# Generated by pormake.
# Topology soc, (4,6)-cn, num edge types: 1
# Building blocks:
#     Node 0, Type 0, BuildingBlock: ESEHIV_clean_sbu_0, # of connection points: 4
#     Node 1, Type 0, BuildingBlock: ESEHIV_clean_sbu_0, # of connection points: 4
#     Node 2, Type 0, BuildingBlock: ESEHIV_clean_sbu_0, # of connection points: 4
#     Node 3, Type 0, BuildingBlock: ESEHIV_clean_sbu_0, # of connection points: 4
#     Node 4, Type 0, BuildingBlock: ESEHIV_clean_sbu_0, # of connection points: 4
#     Node 5, Type 0, BuildingBlock: ESEHIV_clean_sbu_0, # of connection points: 4
#     Node 6, Type 0, BuildingBlock: ESEHIV_clean_sbu_0, # of connection points: 4
#     Node 7, Type 0, BuildingBlock: ESEHIV_clean_sbu_0, # of connection points: 4
#     Node 8, Type 0, BuildingBlock: ESEHIV_clean_sbu_0, # of connection points: 4
#     Node 9, Type 0, BuildingBlock: ESEHIV_clean_sbu_0, # of connection points: 4
#     Node 10, Type 0, BuildingBlock: ESEHIV_clean_sbu_0, # of connection points: 4
#     Node 11, Type 0, BuildingBlock: ESEHIV_clean_sbu_0, # of connection points: 4
#     Node 12, Type 1, BuildingBlock: KUMBUR_clean_sbu_0, # of connection points: 6
#     Node 13, Type 1, BuildingBlock: KUMBUR_clean_sbu_0, # of connection points: 6
#     Node 14, Type 1, BuildingBlock: KUMBUR_clean_sbu_0, # of connection points: 6
#     Node 15, Type 1, BuildingBlock: KUMBUR_clean_sbu_0, # of connection points: 6
#     Node 16, Type 1, BuildingBlock: KUMBUR_clean_sbu_0, # of connection points: 6
#     Node 17, Type 1, BuildingBlock: KUMBUR_clean_sbu_0, # of connection points: 6
#     Node 18, Type 1, BuildingBlock: KUMBUR_clean_sbu_0, # of connection points: 6
#     Node 19, Type 1, BuildingBlock: KUMBUR_clean_sbu_0, # of connection points: 6
#     Edge 20, Type (0, 1), BuildingBlock: EZIPEK_clean_linker_0, # of connection points: 2
#     Edge 21, Type (0, 1), BuildingBlock: EZIPEK_clean_linker_0, # of connection points: 2
#     Edge 22, Type (0, 1), BuildingBlock: EZIPEK_clean_linker_0, # of connection points: 2
#     Edge 23, Type (0, 1), BuildingBlock: EZIPEK_clean_linker_0, # of connection points: 2
#     Edge 24, Type (0, 1), BuildingBlock: EZIPEK_clean_linker_0, # of connection points: 2
#     Edge 25, Type (0, 1), BuildingBlock: EZIPEK_clean_linker_0, # of connection points: 2
#     Edge 26, Type (0, 1), BuildingBlock: EZIPEK_clean_linker_0, # of connection points: 2
#     Edge 27, Type (0, 1), BuildingBlock: EZIPEK_clean_linker_0, # of connection points: 2
#     Edge 28, Type (0, 1), BuildingBlock: EZIPEK_clean_linker_0, # of connection points: 2
#     Edge 29, Type (0, 1), BuildingBlock: EZIPEK_clean_linker_0, # of connection points: 2
#     Edge 30, Type (0, 1), BuildingBlock: EZIPEK_clean_linker_0, # of connection points: 2
#     Edge 31, Type (0, 1), BuildingBlock: EZIPEK_clean_linker_0, # of connection points: 2
#     Edge 32, Type (0, 1), BuildingBlock: EZIPEK_clean_linker_0, # of connection points: 2
#     Edge 33, Type (0, 1), BuildingBlock: EZIPEK_clean_linker_0, # of connection points: 2
#     Edge 34, Type (0, 1), BuildingBlock: EZIPEK_clean_linker_0, # of connection points: 2
#     Edge 35, Type (0, 1), BuildingBlock: EZIPEK_clean_linker_0, # of connection points: 2
#     Edge 36, Type (0, 1), BuildingBlock: EZIPEK_clean_linker_0, # of connection points: 2
#     Edge 37, Type (0, 1), BuildingBlock: EZIPEK_clean_linker_0, # of connection points: 2
#     Edge 38, Type (0, 1), BuildingBlock: EZIPEK_clean_linker_0, # of connection points: 2
#     Edge 39, Type (0, 1), BuildingBlock: EZIPEK_clean_linker_0, # of connection points: 2
#     Edge 40, Type (0, 1), BuildingBlock: EZIPEK_clean_linker_0, # of connection points: 2
#     Edge 41, Type (0, 1), BuildingBlock: EZIPEK_clean_linker_0, # of connection points: 2
#     Edge 42, Type (0, 1), BuildingBlock: EZIPEK_clean_linker_0, # of connection points: 2
#     Edge 43, Type (0, 1), BuildingBlock: EZIPEK_clean_linker_0, # of connection points: 2
#     Edge 44, Type (0, 1), BuildingBlock: EZIPEK_clean_linker_0, # of connection points: 2
#     Edge 45, Type (0, 1), BuildingBlock: EZIPEK_clean_linker_0, # of connection points: 2
#     Edge 46, Type (0, 1), BuildingBlock: EZIPEK_clean_linker_0, # of connection points: 2
#     Edge 47, Type (0, 1), BuildingBlock: EZIPEK_clean_linker_0, # of connection points: 2
#     Edge 48, Type (0, 1), BuildingBlock: EZIPEK_clean_linker_0, # of connection points: 2
#     Edge 49, Type (0, 1), BuildingBlock: EZIPEK_clean_linker_0, # of connection points: 2
#     Edge 50, Type (0, 1), BuildingBlock: EZIPEK_clean_linker_0, # of connection points: 2
#     Edge 51, Type (0, 1), BuildingBlock: EZIPEK_clean_linker_0, # of connection points: 2
#     Edge 52, Type (0, 1), BuildingBlock: EZIPEK_clean_linker_0, # of connection points: 2
#     Edge 53, Type (0, 1), BuildingBlock: EZIPEK_clean_linker_0, # of connection points: 2
#     Edge 54, Type (0, 1), BuildingBlock: EZIPEK_clean_linker_0, # of connection points: 2
#     Edge 55, Type (0, 1), BuildingBlock: EZIPEK_clean_linker_0, # of connection points: 2
#     Edge 56, Type (0, 1), BuildingBlock: EZIPEK_clean_linker_0, # of connection points: 2
#     Edge 57, Type (0, 1), BuildingBlock: EZIPEK_clean_linker_0, # of connection points: 2
#     Edge 58, Type (0, 1), BuildingBlock: EZIPEK_clean_linker_0, # of connection points: 2
#     Edge 59, Type (0, 1), BuildingBlock: EZIPEK_clean_linker_0, # of connection points: 2
#     Edge 60, Type (0, 1), BuildingBlock: EZIPEK_clean_linker_0, # of connection points: 2
#     Edge 61, Type (0, 1), BuildingBlock: EZIPEK_clean_linker_0, # of connection points: 2
#     Edge 62, Type (0, 1), BuildingBlock: EZIPEK_clean_linker_0, # of connection points: 2
#     Edge 63, Type (0, 1), BuildingBlock: EZIPEK_clean_linker_0, # of connection points: 2
#     Edge 64, Type (0, 1), BuildingBlock: EZIPEK_clean_linker_0, # of connection points: 2
#     Edge 65, Type (0, 1), BuildingBlock: EZIPEK_clean_linker_0, # of connection points: 2
#     Edge 66, Type (0, 1), BuildingBlock: EZIPEK_clean_linker_0, # of connection points: 2
#     Edge 67, Type (0, 1), BuildingBlock: EZIPEK_clean_linker_0, # of connection points: 2
# Relax obj value: 0.097
# Max RMSD: 0.263
# Mean RMSD: 0.160
data_MOF--net-soc--node1-ESEHIV_clean_sbu_0--node2-KUMBUR_clean_sbu_0--edge1-EZIPEK_clean_linker_0
_symmetry_space_group_name_H-M    P1
_symmetry_Int_Tables_number       1
_symmetry_cell_setting            triclinic
loop_
_symmetry_equiv_pos_as_xyz
'x, y, z'
_cell_length_a     40.36278
_cell_length_b     38.458879
_cell_length_c     31.541654
_cell_angle_alpha  82.184906
_cell_angle_beta   81.110188
_cell_angle_gamma 68.319581
loop_
_atom_site_label
_atom_site_type_symbol
_atom_site_fract_x
_atom_site_fract_y
_atom_site_fract_z
_atom_type_partial_charge
Cu0 Cu 0.06278 0.07021 0.36315 0.0
N1 N 0.09007 0.1005 0.34426 0.0
N2 N 0.12374 0.13355 0.35138 0.0
C3 C 0.11237 0.1054 0.36858 0.0
C4 C 0.10809 0.14719 0.31491 0.0
C5 C 0.08718 0.12669 0.31058 0.0
O6 O 0.09587 0.02196 0.3906 0.0
C7 C 0.98488 0.10932 0.38717 0.0
O8 O 0.97966 0.08101 0.37419 0.0
H9 H 0.11837 0.09017 0.39961 0.0
H10 H 0.06949 0.13217 0.2861 0.0
N11 N 0.04917 0.05313 0.3187 0.0
N12 N 0.02079 0.0213 0.29459 0.0
C13 C 0.03542 0.0258 0.32784 0.0
C14 C 0.04424 0.0657 0.27727 0.0
C15 C 0.02663 0.04582 0.26214 0.0
C16 C 0.12682 1.00755 0.36885 0.0
O17 O 0.13495 0.02715 0.33409 0.0
H18 H 0.03332 0.01169 0.35975 0.0
H19 H 0.05067 0.0891 0.26017 0.0
O20 O 1.01704 0.1064 0.39148 0.0
H21 H 0.11027 0.17131 0.29421 0.0
H22 H 1.01651 0.0509 0.23117 0.0
Cu23 Cu 0.06185 0.07318 0.73804 0.0
N24 N 0.04279 0.04882 0.70637 0.0
N25 N 1.01193 0.01507 0.69194 0.0
C26 C 1.01741 0.0339 0.72165 0.0
C27 C 0.03451 0.01823 0.65667 0.0
C28 C 0.05357 0.03912 0.66567 0.0
O29 O 0.02206 0.11308 0.7681 0.0
C30 C 0.12691 0.01433 0.74759 0.0
O31 O 0.12971 0.02233 0.70568 0.0
H32 H 1.00422 0.03556 0.75432 0.0
H33 H 0.07466 0.04566 0.64457 0.0
N34 N 0.08758 0.0995 0.70309 0.0
N35 N 0.12278 0.13347 0.68966 0.0
C36 C 0.11154 0.10982 0.71827 0.0
C37 C 0.08342 0.11723 0.66334 0.0
C38 C 0.10531 0.13838 0.65492 0.0
C39 C 0.99645 0.13396 0.74618 0.0
O40 O 0.99623 0.12491 0.70756 0.0
H41 H 0.11851 0.10245 0.75094 0.0
H42 H 0.06425 0.11674 0.64317 0.0
O43 O 0.09831 0.03335 0.77048 0.0
H44 H 0.03765 1.00541 0.6271 0.0
H45 H 0.10659 0.15766 0.62686 0.0
Cu46 Cu 0.30348 0.08463 0.1373 0.0
N47 N 0.2593 0.08723 0.12393 0.0
N48 N 0.22473 0.06437 0.09674 0.0
C49 C 0.25809 0.06393 0.09685 0.0
C50 C 0.20352 0.08935 0.1246 0.0
C51 C 0.22513 0.10377 0.14135 0.0
O52 O 0.32508 0.02932 0.16192 0.0
C53 C 0.30293 0.13976 0.06412 0.0
O54 O 0.27063 0.15527 0.08409 0.0
H55 H 0.28181 0.04469 0.07996 0.0
H56 H 0.21689 0.12287 0.16637 0.0
N57 N 0.29774 0.11468 0.18262 0.0
N58 N 0.30565 0.15315 0.22442 0.0
C59 C 0.31551 0.13771 0.1862 0.0
C60 C 0.27602 0.11586 0.21989 0.0
C61 C 0.28068 0.13969 0.24554 0.0
C62 C 0.30428 0.01478 0.18771 0.0
O63 O 0.27056 0.03623 0.19611 0.0
H64 H 0.33496 0.14336 0.16125 0.0
H65 H 0.25788 0.10056 0.22793 0.0
O66 O 0.32358 0.10819 0.08165 0.0
H67 H 0.17518 0.09503 0.13385 0.0
H68 H 0.26641 0.14712 0.27692 0.0
Cu69 Cu 0.09234 0.31897 0.12101 0.0
N70 N 0.10494 0.35031 0.07208 0.0
N71 N 0.14025 0.35628 0.00904 0.0
C72 C 0.13862 0.33945 0.0499 0.0
C73 C 0.10597 0.37957 1.00579 0.0
C74 C 0.08464 0.37604 0.04406 0.0
O75 O 0.1286 0.31494 0.16196 0.0
C76 C 0.06464 0.26794 0.08907 0.0
O77 O 0.05002 0.26018 0.12749 0.0
H78 H 0.16117 0.31686 0.06192 0.0
H79 H 0.05583 0.38947 0.04948 0.0
N80 N 0.04842 0.3258 0.16186 0.0
N81 N 0.99528 0.32394 0.2 0.0
C82 C 1.01134 0.34133 0.1662 0.0
C83 C 0.05494 0.29928 0.19521 0.0
C84 C 0.02356 0.29726 0.21705 0.0
C85 C 0.16299 0.30402 0.16105 0.0
O86 O 0.18382 0.2854 0.12917 0.0
H87 H 0.99641 0.36387 0.14439 0.0
H88 H 0.08146 0.27976 0.20087 0.0
O89 O 0.09098 0.27981 0.0859 0.0
H90 H 0.09649 0.39662 0.9768 0.0
H91 H 0.02179 0.27648 0.24329 0.0
Cu92 Cu 0.78414 0.03422 0.02129 0.0
N93 N 0.7811 0.07787 0.98175 0.0
N94 N 0.77962 0.13527 0.95175 0.0
C95 C 0.79876 0.10268 0.97363 0.0
C96 C 0.74957 0.1305 0.94495 0.0
C97 C 0.75058 0.09558 0.96322 0.0
O98 O 0.75911 0.05597 0.07645 0.0
C99 C 0.78385 0.99189 0.95298 0.0
O100 O 0.80665 1.00812 0.93498 0.0
H101 H 0.82414 0.09791 0.98509 0.0
H102 H 0.72926 0.08456 0.96519 0.0
N103 N 0.82901 1.00097 0.03806 0.0
N104 N 0.88343 0.92674 0.05668 0.0
C105 C 0.84061 0.95104 0.03426 0.0
C106 C 0.86244 0.0114 0.06178 0.0
C107 C 0.90108 0.95958 0.07428 0.0
C108 C 0.77431 0.07678 0.08771 0.0
O109 O 0.80109 0.08173 0.06189 0.0
H110 H 0.82204 0.93808 0.02921 0.0
H111 H 0.86119 0.03831 0.06972 0.0
O112 O 0.76812 1.00054 0.99106 0.0
H113 H 0.72789 0.15135 0.92897 0.0
H114 H 0.92217 0.95242 0.09489 0.0
Cu115 Cu 0.05233 0.77621 0.02344 0.0
N116 N 0.02513 0.76112 0.98846 0.0
N117 N 0.9823 0.76131 0.94882 0.0
C118 C 0.99464 0.78217 0.96977 0.0
C119 C 1.00599 0.72596 0.95463 0.0
C120 C 0.03198 0.72593 0.97869 0.0
O121 O 1.01672 0.79416 0.0797 0.0
C122 C 0.11277 0.81104 0.97956 0.0
O123 O 0.10954 0.8287 0.01367 0.0
H124 H 0.98144 0.81211 0.97195 0.0
H125 H 0.05425 0.70164 0.98883 0.0
N126 N 0.08671 0.73615 0.05265 0.0
N127 N 0.12916 0.72386 0.09693 0.0
C128 C 0.1177 0.73972 0.05864 0.0
C129 C 0.07949 0.71518 0.08821 0.0
C130 C 0.10541 0.70783 0.11571 0.0
C131 C 0.99096 0.78111 0.09491 0.0
O132 O 0.98194 0.76317 0.06879 0.0
H133 H 0.12879 0.75869 0.03912 0.0
H134 H 0.0545 0.71054 0.09666 0.0
O135 O 0.09001 0.79415 0.97874 0.0
H136 H 1.00447 0.70164 0.9425 0.0
H137 H 0.1043 0.69596 0.14882 0.0
Cu138 Cu 0.54596 0.55506 0.87703 0.0
N139 N 0.56555 0.59185 0.88026 0.0
N140 N 0.59632 0.62907 0.88282 0.0
C141 C 0.5935 0.60209 0.86158 0.0
C142 C 0.56966 0.63607 0.91525 0.0
C143 C 0.5511 0.61311 0.91376 0.0
O144 O 0.5812 0.50667 0.90212 0.0
C145 C 0.48284 0.61568 0.86704 0.0
O146 O 0.50689 0.62215 0.8371 0.0
H147 H 0.61198 0.58946 0.83452 0.0
H148 H 0.52902 0.61094 0.93683 0.0
N149 N 0.5406 0.5371 0.82752 0.0
N150 N 0.51553 0.50245 0.80169 0.0
C151 C 0.52716 0.50938 0.83604 0.0
C152 C 0.53771 0.54833 0.78544 0.0
C153 C 0.52228 0.5266 0.76922 0.0
C154 C 0.61218 0.49678 0.87922 0.0
O155 O 0.617 0.52009 0.8465 0.0
H156 H 0.52318 0.49654 0.86825 0.0
H157 H 0.54333 0.5724 0.7688 0.0
O158 O 0.49339 0.58537 0.89274 0.0
H159 H 0.56496 0.65547 0.93931 0.0
H160 H 0.51419 0.53023 0.73728 0.0
Cu161 Cu 0.56806 0.5688 0.24879 0.0
N162 N 0.54889 0.54966 0.21202 0.0
N163 N 0.51514 0.52107 0.19372 0.0
C164 C 0.51969 0.54021 0.22354 0.0
C165 C 0.54244 0.51807 0.1622 0.0
C166 C 0.56347 0.53575 0.17373 0.0
O167 O 0.52722 0.60441 0.2828 0.0
C168 C 0.63464 0.50977 0.25294 0.0
O169 O 0.64043 0.52698 0.21522 0.0
H170 H 0.50331 0.54532 0.25426 0.0
H171 H 0.58866 0.5364 0.15673 0.0
N172 N 0.59289 0.59812 0.2193 0.0
N173 N 0.62983 0.62964 0.21079 0.0
C174 C 0.61224 0.61143 0.23907 0.0
C175 C 0.59797 0.60874 0.17704 0.0
C176 C 0.62106 0.62839 0.17166 0.0
C177 C 0.50638 0.63186 0.26028 0.0
O178 O 0.51308 0.63328 0.21813 0.0
H179 H 0.61386 0.60731 0.27345 0.0
H180 H 0.58609 0.60237 0.15203 0.0
O181 O 0.60437 0.52413 0.2758 0.0
H182 H 0.54764 0.50265 0.13415 0.0
H183 H 0.63062 0.64082 0.14169 0.0
Cu184 Cu 0.8166 0.60058 0.61668 0.0
N185 N 0.84463 0.61266 0.56541 0.0
N186 N 0.85842 0.64281 0.50187 0.0
C187 C 0.8359 0.64532 0.53922 0.0
C188 C 0.88238 0.60736 0.50501 0.0
C189 C 0.87393 0.58903 0.54379 0.0
O190 O 0.80375 0.64161 0.65505 0.0
C191 C 0.77585 0.58464 0.56035 0.0
O192 O 0.79533 0.59695 0.5294 0.0
H193 H 0.81238 0.66984 0.54637 0.0
H194 H 0.88726 0.55986 0.55453 0.0
N195 N 0.83783 0.55399 0.65005 0.0
N196 N 0.84134 0.49906 0.68939 0.0
C197 C 0.8202 0.53043 0.66787 0.0
C198 C 0.87134 0.53683 0.66126 0.0
C199 C 0.87358 0.50309 0.68528 0.0
C200 C 0.82822 0.65225 0.66426 0.0
O201 O 0.86152 0.63603 0.64757 0.0
H202 H 0.79249 0.5357 0.6642 0.0
H203 H 0.89281 0.54775 0.65213 0.0
O204 O 0.77641 0.59041 0.59912 0.0
H205 H 0.90386 0.59513 0.48025 0.0
H206 H 0.89733 0.48262 0.69788 0.0
Cu207 Cu 0.58474 0.83024 0.60083 0.0
N208 N 0.60949 0.8386 0.53996 0.0
N209 N 0.65166 0.84175 0.48073 0.0
C210 C 0.63677 0.85207 0.52209 0.0
C211 C 0.63325 0.82096 0.47288 0.0
C212 C 0.60873 0.81885 0.50787 0.0
O213 O 0.61588 0.83496 0.64368 0.0
C214 C 0.56767 0.76224 0.58094 0.0
O215 O 0.57597 0.72679 0.59586 0.0
H216 H 0.64662 0.86779 0.53964 0.0
H217 H 0.59276 0.80146 0.51013 0.0
N218 N 0.53318 0.84988 0.63091 0.0
N219 N 0.47843 0.85131 0.67029 0.0
C220 C 0.51186 0.82971 0.6515 0.0
C221 C 0.51197 0.88553 0.63808 0.0
C222 C 0.47926 0.88645 0.66138 0.0
C223 C 0.65024 0.82615 0.64104 0.0
O224 O 0.67037 0.80798 0.60842 0.0
H225 H 0.52067 0.79945 0.65268 0.0
H226 H 0.51963 0.90968 0.62713 0.0
O227 O 0.58369 0.78006 0.59724 0.0
H228 H 0.6381 0.80681 0.44387 0.0
H229 H 0.45742 0.91158 0.67103 0.0
Cu230 Cu 0.29109 0.53143 0.51961 0.0
N231 N 0.31485 0.56105 0.48128 0.0
N232 N 0.3182 0.61473 0.44265 0.0
C233 C 0.30443 0.59933 0.47934 0.0
C234 C 0.33736 0.58484 0.41993 0.0
C235 C 0.33524 0.55226 0.44346 0.0
O236 O 0.26376 0.56952 0.55963 0.0
C237 C 0.26342 0.4815 0.48529 0.0
O238 O 0.26383 0.46383 0.52395 0.0
H239 H 0.28536 0.61609 0.50336 0.0
H240 H 0.34592 0.5244 0.43235 0.0
N241 N 0.31525 0.48821 0.55706 0.0
N242 N 0.32111 0.44646 0.61626 0.0
C243 C 0.29915 0.47759 0.59522 0.0
C244 C 0.34868 0.46228 0.55374 0.0
C245 C 0.3523 0.43659 0.58994 0.0
C246 C 0.28155 0.57284 0.58833 0.0
O247 O 0.31161 0.54572 0.59678 0.0
H248 H 0.27174 0.49285 0.60769 0.0
H249 H 0.36904 0.46195 0.52695 0.0
O250 O 0.26888 0.5127 0.4796 0.0
H251 H 0.35135 0.58651 0.38797 0.0
H252 H 0.37618 0.41273 0.59665 0.0
Cu253 Cu 0.52713 0.30146 0.52859 0.0
N254 N 0.57404 0.27871 0.49624 0.0
N255 N 0.62952 0.27241 0.46066 0.0
C256 C 0.60026 0.294 0.48543 0.0
C257 C 0.62124 0.24244 0.45533 0.0
C258 C 0.58754 0.24626 0.47714 0.0
O259 O 0.53571 0.33963 0.55791 0.0
C260 C 0.48052 0.2938 0.47174 0.0
O261 O 0.50023 0.25831 0.47979 0.0
H262 H 0.59773 0.32093 0.49472 0.0
H263 H 0.5737 0.22679 0.47837 0.0
N264 N 0.51145 0.27186 0.5765 0.0
N265 N 0.47844 0.26039 0.63875 0.0
C266 C 0.47888 0.2825 0.60101 0.0
C267 C 0.53192 0.24127 0.59912 0.0
C268 C 0.51205 0.23448 0.63709 0.0
C269 C 0.56086 0.325 0.58254 0.0
O270 O 0.57684 0.28838 0.58586 0.0
H271 H 0.45652 0.30749 0.59261 0.0
H272 H 0.56013 0.2263 0.59008 0.0
O273 O 0.48781 0.31845 0.48878 0.0
H274 H 0.63833 0.2194 0.43666 0.0
H275 H 0.52214 0.21288 0.66259 0.0
Tb276 Tb 0.28634 0.30709 0.3675 0.0
C277 C 0.33604 0.34375 0.17625 0.0
C278 C 0.39089 0.29056 0.16296 0.0
C279 C 0.36241 0.33079 0.10273 0.0
C280 C 0.36402 0.31366 0.19176 0.0
C281 C 0.33497 0.3528 0.13147 0.0
C282 C 0.38988 0.29926 0.1184 0.0
C283 C 0.28274 0.40784 0.14681 0.0
N284 N 0.3112 0.36569 0.2051 0.0
C285 C 0.28579 0.39846 0.19083 0.0
C286 C 0.30746 0.3849 0.11697 0.0
Tb287 Tb 0.32225 0.3525 0.27589 0.0
N288 N 0.36513 0.30742 0.23505 0.0
C289 C 0.39318 0.27834 0.25126 0.0
C290 C 0.41861 0.26009 0.17971 0.0
C291 C 0.41967 0.25393 0.22409 0.0
H292 H 0.26845 0.41787 0.2136 0.0
H293 H 0.44125 0.23067 0.23745 0.0
H294 H 0.41066 0.28231 0.09579 0.0
H295 H 0.26221 0.43352 0.13592 0.0
H296 H 0.39544 0.27298 0.28525 0.0
H297 H 0.15789 0.42167 0.38836 0.0
H298 H 0.43959 0.24155 0.15868 0.0
H299 H 0.33103 0.24956 0.44508 0.0
H300 H 0.20551 0.37306 0.34948 0.0
H301 H 0.34038 0.25302 0.51974 0.0
H302 H 0.36288 0.33811 0.06832 0.0
H303 H 0.1648 0.43388 0.4608 0.0
H304 H 0.20182 0.41668 0.52271 0.0
H305 H 0.30594 0.39303 0.08287 0.0
H306 H 0.25316 0.37164 0.55782 0.0
N307 N 0.23969 0.35509 0.39981 0.0
C308 C 0.20918 0.37662 0.38137 0.0
C309 C 0.1858 0.41164 0.44417 0.0
C310 C 0.21664 0.38934 0.46329 0.0
C311 C 0.18176 0.40472 0.40339 0.0
C312 C 0.24299 0.36046 0.44039 0.0
H313 H 0.30509 0.31025 0.55702 0.0
N314 N 0.29379 0.30556 0.43862 0.0
C315 C 0.32138 0.27671 0.50312 0.0
C316 C 0.27155 0.3352 0.46015 0.0
C317 C 0.31632 0.275 0.46068 0.0
C318 C 0.30138 0.30897 0.52409 0.0
C319 C 0.27497 0.33807 0.50328 0.0
O320 O 0.29258 0.25085 0.38857 0.0
O321 O 0.30876 0.30302 0.30056 0.0
O322 O 0.26951 0.35493 0.25772 0.0
O323 O 0.24917 0.32196 0.31677 0.0
O324 O 0.32949 0.25807 0.34266 0.0
O325 O 0.24023 0.29273 0.3797 0.0
O326 O 0.32123 0.40818 0.26109 0.0
O327 O 0.29948 0.35602 0.34232 0.0
O328 O 0.33739 0.30616 0.38651 0.0
O329 O 0.36415 0.32618 0.32202 0.0
O330 O 0.28204 0.40341 0.30235 0.0
O331 O 0.371 0.36192 0.26547 0.0
C332 C 0.32907 0.26857 0.30201 0.0
C333 C 0.2415 0.23554 0.41995 0.0
C334 C 0.20546 0.19579 0.43107 0.0
C335 C 0.22075 0.21916 0.40397 0.0
C336 C 0.21071 0.18916 0.47485 0.0
C337 C 0.2465 0.22913 0.46373 0.0
C338 C 0.231 0.206 0.49109 0.0
C339 C 0.24517 0.34034 0.2778 0.0
C340 C 0.25853 0.25743 0.38884 0.0
C341 C 0.25062 0.36861 0.52496 0.0
C342 C 0.22134 0.39415 0.50503 0.0
C343 C 0.27981 0.39054 0.34213 0.0
C344 C 0.37348 0.41587 0.221 0.0
C345 C 0.39759 0.43221 0.2289 0.0
C346 C 0.41468 0.44898 0.19443 0.0
C347 C 0.40783 0.44917 0.15217 0.0
C348 C 0.36662 0.41705 0.17848 0.0
C349 C 0.3838 0.43328 0.1443 0.0
C350 C 0.36559 0.31208 0.36318 0.0
C351 C 0.356 0.39803 0.25748 0.0
H352 H 0.21694 0.22405 0.37004 0.0
H353 H 0.19912 0.17109 0.49627 0.0
H354 H 0.26243 0.24163 0.47657 0.0
H355 H 0.23495 0.20089 0.52487 0.0
H356 H 0.403 0.43202 0.26157 0.0
H357 H 0.42086 0.46198 0.12538 0.0
H358 H 0.34791 0.40592 0.17124 0.0
H359 H 0.37824 0.43375 0.11169 0.0
Tb360 Tb 0.8128 0.33545 0.36715 0.0
C361 C 0.72381 0.28326 0.27774 0.0
C362 C 0.71235 0.23633 0.33148 0.0
C363 C 0.668 0.27146 0.28272 0.0
C364 C 0.73456 0.2565 0.31202 0.0
C365 C 0.69097 0.28992 0.26179 0.0
C366 C 0.67865 0.24475 0.31751 0.0
C367 C 0.70827 0.32806 0.20172 0.0
N368 N 0.74648 0.30086 0.2582 0.0
C369 C 0.7406 0.32018 0.21846 0.0
C370 C 0.68291 0.31362 0.22408 0.0
Tb371 Tb 0.7992 0.28449 0.28805 0.0
N372 N 0.76726 0.24912 0.32515 0.0
C373 C 0.78001 0.22022 0.35593 0.0
C374 C 0.72491 0.20768 0.3638 0.0
C375 C 0.75911 0.19918 0.3755 0.0
H376 H 0.76067 0.3304 0.20038 0.0
H377 H 0.76923 0.17678 0.4002 0.0
H378 H 0.66105 0.22998 0.33262 0.0
H379 H 0.70317 0.34481 0.17134 0.0
H380 H 0.80595 0.21322 0.36645 0.0
H381 H 0.8609 0.4305 0.2541 0.0
H382 H 0.70864 0.1916 0.37948 0.0
H383 H 0.84138 0.28773 0.45867 0.0
H384 H 0.8227 0.39366 0.27998 0.0
H385 H 0.89005 0.27864 0.50258 0.0
H386 H 0.64246 0.2767 0.27132 0.0
H387 H 0.9099 0.42641 0.29498 0.0
H388 H 0.94329 0.3995 0.35949 0.0
H389 H 0.658 0.3194 0.21084 0.0
H390 H 0.95222 0.3571 0.42593 0.0
N391 N 0.85048 0.3664 0.33483 0.0
C392 C 0.84409 0.39071 0.29838 0.0
C393 C 0.89331 0.40969 0.30656 0.0
C394 C 0.899 0.38601 0.34456 0.0
C395 C 0.86574 0.41203 0.28339 0.0
C396 C 0.87689 0.3645 0.35803 0.0
H397 H 0.93313 0.3113 0.47889 0.0
N398 N 0.85901 0.32194 0.40826 0.0
C399 C 0.88824 0.29598 0.47236 0.0
C400 C 0.88168 0.34101 0.3956 0.0
C401 C 0.86107 0.30074 0.44711 0.0
C402 C 0.91244 0.31452 0.45893 0.0
C403 C 0.90894 0.33794 0.42058 0.0
O404 O 0.79875 0.3595 0.42763 0.0
O405 O 0.77768 0.30919 0.34964 0.0
O406 O 0.7604 0.3422 0.27997 0.0
O407 O 0.7774 0.37625 0.32263 0.0
O408 O 0.77896 0.31017 0.4132 0.0
O409 O 0.7767 0.3903 0.37072 0.0
O410 O 0.8208 0.27472 0.22423 0.0
O411 O 0.83615 0.30861 0.30685 0.0
O412 O 0.84953 0.27603 0.37867 0.0
O413 O 0.84154 0.24392 0.32523 0.0
O414 O 0.83414 0.3092 0.24337 0.0
O415 O 0.81193 0.23008 0.26791 0.0
C416 C 0.76326 0.30036 0.38679 0.0
C417 C 0.78507 0.42643 0.41954 0.0
C418 C 0.7757 0.47681 0.46506 0.0
C419 C 0.77208 0.44254 0.45933 0.0
C420 C 0.79241 0.49438 0.43121 0.0
C421 C 0.80066 0.44566 0.38609 0.0
C422 C 0.80472 0.47891 0.39203 0.0
C423 C 0.75681 0.37402 0.29512 0.0
C424 C 0.77925 0.39215 0.41077 0.0
C425 C 0.9312 0.35902 0.40713 0.0
C426 C 0.92604 0.38325 0.36939 0.0
C427 C 0.85095 0.31745 0.2698 0.0
C428 C 0.80091 0.23353 0.19419 0.0
C429 C 0.79031 0.20185 0.19849 0.0
C430 C 0.77665 0.19342 0.16389 0.0
C431 C 0.77129 0.21849 0.12663 0.0
C432 C 0.79586 0.25736 0.15576 0.0
C433 C 0.78048 0.25031 0.12286 0.0
C434 C 0.85789 0.24515 0.35822 0.0
C435 C 0.81909 0.24126 0.22776 0.0
H436 H 0.75908 0.42891 0.48526 0.0
H437 H 0.79579 0.52039 0.43518 0.0
H438 H 0.80872 0.43588 0.35459 0.0
H439 H 0.817 0.49304 0.36587 0.0
H440 H 0.79439 0.1828 0.22747 0.0
H441 H 0.76087 0.2128 0.0997 0.0
H442 H 0.80397 0.28163 0.1508 0.0
H443 H 0.7766 0.26908 0.0937 0.0
Tb444 Tb 0.80968 0.79489 0.26632 0.0
C445 C 0.80309 0.87315 0.40633 0.0
C446 C 0.75395 0.92902 0.38517 0.0
C447 C 0.75928 0.9094 0.46102 0.0
C448 C 0.78505 0.89786 0.37427 0.0
C449 C 0.79029 0.87865 0.45009 0.0
C450 C 0.74131 0.93471 0.42862 0.0
C451 C 0.84078 0.82416 0.46959 0.0
N452 N 0.83282 0.84345 0.39477 0.0
C453 C 0.8529 0.82034 0.42591 0.0
C454 C 0.80893 0.85303 0.48169 0.0
Tb455 Tb 0.84866 0.8388 0.32183 0.0
N456 N 0.79681 0.89033 0.33257 0.0
C457 C 0.77767 0.91258 0.30048 0.0
C458 C 0.73589 0.95308 0.35209 0.0
C459 C 0.74779 0.94475 0.30955 0.0
H460 H 0.87831 0.79852 0.41739 0.0
H461 H 0.73308 0.96225 0.28377 0.0
H462 H 0.71738 0.95833 0.43751 0.0
H463 H 0.85613 0.80489 0.49384 0.0
H464 H 0.78376 0.90501 0.26807 0.0
H465 H 0.91137 0.66303 0.22038 0.0
H466 H 0.71207 0.9774 0.35912 0.0
H467 H 0.75051 0.86478 0.20913 0.0
H468 H 0.87621 0.70965 0.27073 0.0
H469 H 0.74188 0.88277 0.1319 0.0
H470 H 0.74907 0.91393 0.49445 0.0
H471 H 0.90422 0.67629 0.14288 0.0
H472 H 0.87521 0.72121 0.08283 0.0
H473 H 0.79911 0.85571 0.51546 0.0
H474 H 0.83202 0.78199 0.05865 0.0
N475 N 0.84692 0.74942 0.22314 0.0
C476 C 0.87168 0.71616 0.23738 0.0
C477 C 0.88767 0.69676 0.1651 0.0
C478 C 0.8624 0.73069 0.15054 0.0
C479 C 0.8919 0.68926 0.20877 0.0
C480 C 0.84115 0.75624 0.18085 0.0
H481 H 0.78231 0.84224 0.07658 0.0
N482 N 0.79614 0.81512 0.19674 0.0
C483 C 0.76286 0.85693 0.14144 0.0
C484 C 0.81562 0.79026 0.1671 0.0
C485 C 0.76771 0.8467 0.18495 0.0
C486 C 0.78548 0.83377 0.1103 0.0
C487 C 0.81148 0.79954 0.12295 0.0
O488 O 0.75654 0.79853 0.26568 0.0
O489 O 0.80299 0.81912 0.32832 0.0
O490 O 0.85755 0.78332 0.35836 0.0
O491 O 0.83641 0.75199 0.31692 0.0
O492 O 0.75933 0.83461 0.29773 0.0
O493 O 0.79901 0.74444 0.27211 0.0
O494 O 0.89409 0.83727 0.34825 0.0
O495 O 0.85921 0.80716 0.26657 0.0
O496 O 0.82228 0.83823 0.219 0.0
O497 O 0.84609 0.87015 0.25469 0.0
O498 O 0.90081 0.7961 0.29971 0.0
O499 O 0.86266 0.88694 0.31107 0.0
C500 C 0.76864 0.83629 0.3345 0.0
C501 C 0.74963 0.74839 0.23621 0.0
C502 C 0.71914 0.70842 0.22055 0.0
C503 C 0.7356 0.71973 0.24965 0.0
C504 C 0.71898 0.72364 0.1776 0.0
C505 C 0.74576 0.76556 0.19405 0.0
C506 C 0.73209 0.75236 0.16451 0.0
C507 C 0.85071 0.75336 0.35163 0.0
C508 C 0.76511 0.7622 0.26721 0.0
C509 C 0.83371 0.77473 0.0928 0.0
C510 C 0.85858 0.74017 0.10657 0.0
C511 C 0.89355 0.78865 0.26429 0.0
C512 C 0.89901 0.89556 0.35768 0.0
C513 C 0.92102 0.91484 0.33634 0.0
C514 C 0.9307 0.9382 0.35831 0.0
C515 C 0.9181 0.94239 0.40204 0.0
C516 C 0.88639 0.89982 0.40135 0.0
C517 C 0.89602 0.9232 0.42343 0.0
C518 C 0.83591 0.86477 0.21839 0.0
C519 C 0.89035 0.87144 0.33257 0.0
H520 H 0.73567 0.70781 0.28283 0.0
H521 H 0.70649 0.71495 0.15498 0.0
H522 H 0.75144 0.79025 0.18378 0.0
H523 H 0.73001 0.76572 0.13202 0.0
H524 H 0.93072 0.91172 0.30249 0.0
H525 H 0.9253 0.96049 0.41945 0.0
H526 H 0.86927 0.88532 0.41831 0.0
H527 H 0.88633 0.92648 0.45715 0.0
Tb528 Tb 0.29346 0.80437 0.28659 0.0
C529 C 0.32438 0.90686 0.39075 0.0
C530 C 0.3649 0.92786 0.33804 0.0
C531 C 0.33025 0.96688 0.39555 0.0
C532 C 0.34909 0.90093 0.35457 0.0
C533 C 0.3152 0.93955 0.41227 0.0
C534 C 0.3551 0.96102 0.35851 0.0
C535 C 0.28027 0.91376 0.46769 0.0
N536 N 0.31051 0.87979 0.4059 0.0
C537 C 0.29062 0.8817 0.44533 0.0
C538 C 0.29214 0.94314 0.45071 0.0
Tb539 Tb 0.33141 0.82699 0.36925 0.0
N540 N 0.3578 0.86858 0.33574 0.0
C541 C 0.38245 0.86141 0.30005 0.0
C542 C 0.39006 0.92063 0.30146 0.0
C543 C 0.39887 0.88722 0.28239 0.0
H544 H 0.28252 0.85842 0.45923 0.0
H545 H 0.4178 0.8816 0.25361 0.0
H546 H 0.36675 0.98216 0.34613 0.0
H547 H 0.2636 0.91554 0.49827 0.0
H548 H 0.38776 0.837 0.28338 0.0
H549 H 0.17031 0.78022 0.35959 0.0
H550 H 0.40262 0.94071 0.28756 0.0
H551 H 0.35005 0.75514 0.20676 0.0
H552 H 0.20494 0.81879 0.32861 0.0
H553 H 0.37182 0.69066 0.18582 0.0
H554 H 0.32335 0.99231 0.41144 0.0
H555 H 0.19641 0.71144 0.358 0.0
H556 H 0.24679 0.65541 0.33169 0.0
H557 H 0.28442 0.9678 0.46825 0.0
H558 H 0.30212 0.6307 0.28301 0.0
N559 N 0.25455 0.77257 0.31485 0.0
C560 C 0.21884 0.78883 0.33014 0.0
C561 C 0.21278 0.72824 0.34558 0.0
C562 C 0.24747 0.71198 0.32533 0.0
C563 C 0.19802 0.76698 0.34665 0.0
C564 C 0.26758 0.73523 0.30896 0.0
H565 H 0.3476 0.6441 0.22668 0.0
N566 N 0.31486 0.74539 0.2614 0.0
C567 C 0.35157 0.69867 0.21309 0.0
C568 C 0.2986 0.72129 0.28116 0.0
C569 C 0.33894 0.73536 0.22519 0.0
C570 C 0.33793 0.67249 0.23628 0.0
C571 C 0.31032 0.68391 0.26981 0.0
O572 O 0.30313 0.81709 0.21952 0.0
O573 O 0.32155 0.84034 0.30126 0.0
O574 O 0.27503 0.86669 0.3725 0.0
O575 O 0.25005 0.83815 0.33271 0.0
O576 O 0.28015 0.86435 0.26545 0.0
O577 O 0.25125 0.81649 0.24944 0.0
O578 O 0.34178 0.80003 0.43067 0.0
O579 O 0.31534 0.78424 0.34772 0.0
O580 O 0.35209 0.7697 0.28096 0.0
O581 O 0.37689 0.78481 0.33455 0.0
O582 O 0.29994 0.79561 0.4097 0.0
O583 O 0.38288 0.81474 0.38955 0.0
C584 C 0.30323 0.87205 0.28205 0.0
C585 C 0.26542 0.80578 0.17499 0.0
C586 C 0.2315 0.78011 0.13796 0.0
C587 C 0.23959 0.78865 0.17636 0.0
C588 C 0.24959 0.78835 0.09846 0.0
C589 C 0.283 0.81375 0.13494 0.0
C590 C 0.27522 0.80496 0.09703 0.0
C591 C 0.24688 0.8651 0.35681 0.0
C592 C 0.27064 0.82072 0.21342 0.0
C593 C 0.29283 0.65972 0.2904 0.0
C594 C 0.26137 0.67377 0.31815 0.0
C595 C 0.3003 0.77303 0.3827 0.0
C596 C 0.38552 0.80869 0.46641 0.0
C597 C 0.42234 0.79894 0.47082 0.0
C598 C 0.43318 0.80209 0.51032 0.0
C599 C 0.40694 0.81576 0.54478 0.0
C600 C 0.36006 0.82184 0.50198 0.0
C601 C 0.3707 0.82568 0.54053 0.0
C602 C 0.37968 0.7645 0.30261 0.0
C603 C 0.37418 0.80022 0.42739 0.0
H604 H 0.22497 0.7831 0.20674 0.0
H605 H 0.24335 0.78251 0.06859 0.0
H606 H 0.30206 0.82788 0.13282 0.0
H607 H 0.28855 0.81181 0.06631 0.0
H608 H 0.44246 0.78825 0.44411 0.0
H609 H 0.41461 0.81875 0.57515 0.0
H610 H 0.33184 0.8281 0.50077 0.0
H611 H 0.35076 0.83584 0.56753 0.0
Tb612 Tb 0.30762 0.83508 0.86045 0.0
C613 C 0.21296 0.78617 0.79348 0.0
C614 C 0.21746 0.72769 0.83628 0.0
C615 C 0.15956 0.76983 0.81632 0.0
C616 C 0.23359 0.75358 0.81561 0.0
C617 C 0.17603 0.79357 0.79207 0.0
C618 C 0.18029 0.73682 0.8382 0.0
C619 C 0.17557 0.84237 0.73557 0.0
N620 N 0.22969 0.80822 0.7693 0.0
C621 C 0.21202 0.83389 0.73781 0.0
C622 C 0.15716 0.82298 0.76388 0.0
Tb623 Tb 0.28973 0.79269 0.77764 0.0
N624 N 0.26972 0.74541 0.81327 0.0
C625 C 0.29102 0.70945 0.8266 0.0
C626 C 0.23919 0.69264 0.85304 0.0
C627 C 0.27614 0.68325 0.84735 0.0
H628 H 0.22552 0.84919 0.71486 0.0
H629 H 0.29339 0.65543 0.85828 0.0
H630 H 0.16754 0.71769 0.85495 0.0
H631 H 0.16178 0.86384 0.71187 0.0
H632 H 0.31978 0.69897 0.82019 0.0
H633 H 0.36268 0.93025 0.75991 0.0
H634 H 0.2278 0.67212 0.86895 0.0
H635 H 0.33194 0.7861 0.953 0.0
H636 H 0.31687 0.90226 0.7883 0.0
H637 H 0.38561 0.76274 0.9921 0.0
H638 H 0.13118 0.77558 0.81624 0.0
H639 H 0.42155 0.90546 0.78857 0.0
H640 H 0.46101 0.86138 0.84232 0.0
H641 H 0.12892 0.82939 0.76184 0.0
H642 H 0.46757 0.81489 0.90535 0.0
N643 N 0.34941 0.86135 0.8312 0.0
C644 C 0.34232 0.89116 0.80074 0.0
C645 C 0.40145 0.89308 0.80097 0.0
C646 C 0.40781 0.86399 0.83401 0.0
C647 C 0.36827 0.90718 0.78479 0.0
C648 C 0.38075 0.84882 0.84882 0.0
H649 H 0.43929 0.77832 0.96198 0.0
N650 N 0.35588 0.81249 0.89982 0.0
C651 C 0.38573 0.77944 0.96159 0.0
C652 C 0.38429 0.82307 0.88426 0.0
C653 C 0.3554 0.7927 0.93936 0.0
C654 C 0.41602 0.78816 0.94441 0.0
C655 C 0.4152 0.81113 0.90587 0.0
O656 O 0.28634 0.84974 0.92379 0.0
O657 O 0.26711 0.81604 0.84085 0.0
O658 O 0.25744 0.85277 0.76915 0.0
O659 O 0.26798 0.88062 0.82395 0.0
O660 O 0.27825 0.80256 0.90252 0.0
O661 O 0.28611 0.8921 0.87178 0.0
O662 O 0.2904 0.80377 0.71065 0.0
O663 O 0.32498 0.81973 0.79432 0.0
O664 O 0.34696 0.77674 0.86369 0.0
O665 O 0.33423 0.75004 0.80915 0.0
O666 O 0.33813 0.79868 0.73725 0.0
O667 O 0.30214 0.74707 0.74051 0.0
C668 C 0.25678 0.80087 0.87721 0.0
C669 C 0.28837 0.90691 0.94074 0.0
C670 C 0.26976 0.95339 0.99303 0.0
C671 C 0.26147 0.93019 0.96896 0.0
C672 C 0.30516 0.95249 0.98957 0.0
C673 C 0.32354 0.90662 0.93732 0.0
C674 C 0.33192 0.92911 0.96188 0.0
C675 C 0.25092 0.88203 0.79081 0.0
C676 C 0.27863 0.88544 0.91293 0.0
C677 C 0.4434 0.82405 0.88951 0.0
C678 C 0.43965 0.85056 0.85368 0.0
C679 C 0.3494 0.8155 0.76111 0.0
C680 C 0.27293 0.76257 0.67673 0.0
C681 C 0.27451 0.72588 0.67318 0.0
C682 C 0.25612 0.71913 0.64261 0.0
C683 C 0.23428 0.74937 0.61756 0.0
C684 C 0.25187 0.79236 0.65003 0.0
C685 C 0.23199 0.78585 0.62154 0.0
C686 C 0.35274 0.7478 0.84129 0.0
C687 C 0.29593 0.76899 0.70492 0.0
H688 H 0.23409 0.93104 0.97137 0.0
H689 H 0.31194 0.97026 1.008 0.0
H690 H 0.34435 0.88967 0.91521 0.0
H691 H 0.35908 0.92886 0.95894 0.0
H692 H 0.2919 0.70229 0.69189 0.0
H693 H 0.22018 0.74452 0.5937 0.0
H694 H 0.25119 0.8207 0.65044 0.0
H695 H 0.21579 0.80901 0.60133 0.0
Tb696 Tb 0.29648 0.27591 0.80396 0.0
C697 C 0.3319 0.3114 0.965 0.0
C698 C 0.27984 0.36461 0.98698 0.0
C699 C 0.31093 0.31759 0.04097 0.0
C700 C 0.30349 0.34331 0.95436 0.0
C701 C 0.33681 0.2989 1.00844 0.0
C702 C 0.28272 0.35072 0.03029 0.0
C703 C 0.39285 0.25136 0.98398 0.0
N704 N 0.35495 0.29272 0.93254 0.0
C705 C 0.38646 0.26446 0.94127 0.0
C706 C 0.36747 0.26803 0.0177 0.0
Tb707 Tb 0.33891 0.31357 0.86428 0.0
N708 N 0.30042 0.3547 0.91206 0.0
C709 C 0.27742 0.38996 0.90049 0.0
C710 C 0.25491 0.39972 0.97514 0.0
C711 C 0.25474 0.41306 0.93179 0.0
H712 H 0.40558 0.25076 0.91524 0.0
H713 H 0.23645 0.44078 0.92227 0.0
H714 H 0.26386 0.36586 0.05576 0.0
H715 H 0.41709 0.22809 0.99085 0.0
H716 H 0.2761 0.4008 0.86725 0.0
H717 H 0.40088 0.13844 0.83434 0.0
H718 H 0.23661 0.41725 0.99921 0.0
H719 H 0.26776 0.32099 0.71143 0.0
H720 H 0.36408 0.20183 0.85097 0.0
H721 H 0.27927 0.31141 0.63474 0.0
H722 H 0.31298 0.30723 0.0745 0.0
H723 H 0.40878 0.12037 0.76031 0.0
H724 H 0.39823 0.14002 0.68345 0.0
H725 H 0.37217 0.25745 0.0507 0.0
H726 H 0.36835 0.18838 0.62853 0.0
N727 N 0.34272 0.21896 0.79034 0.0
C728 C 0.36321 0.19414 0.81997 0.0
C729 C 0.39047 0.14803 0.76823 0.0
C730 C 0.37331 0.17478 0.73655 0.0
C731 C 0.38579 0.15798 0.81006 0.0
C732 C 0.34935 0.21037 0.74866 0.0
H733 H 0.32484 0.2523 0.6099 0.0
N734 N 0.30918 0.27101 0.73056 0.0
C735 C 0.29515 0.29059 0.65744 0.0
C736 C 0.33272 0.23756 0.71773 0.0
C737 C 0.28916 0.29644 0.70111 0.0
C738 C 0.32066 0.25724 0.64366 0.0
C739 C 0.33925 0.22987 0.67395 0.0
O740 O 0.24272 0.29522 0.79337 0.0
O741 O 0.28971 0.3028 0.86284 0.0
O742 O 0.33142 0.2642 0.90687 0.0
O743 O 0.30309 0.23906 0.86705 0.0
O744 O 0.24862 0.3231 0.82687 0.0
O745 O 0.27299 0.23601 0.7966 0.0
O746 O 0.39191 0.31293 0.85933 0.0
O747 O 0.34302 0.29119 0.80304 0.0
O748 O 0.30241 0.32589 0.76418 0.0
O749 O 0.30983 0.35895 0.81557 0.0
O750 O 0.38732 0.27115 0.83329 0.0
O751 O 0.34716 0.36509 0.85589 0.0
C752 C 0.25735 0.32614 0.86337 0.0
C753 C 0.22464 0.26045 0.75179 0.0
C754 C 0.19591 0.2286 0.71602 0.0
C755 C 0.21704 0.2282 0.74784 0.0
C756 C 0.18436 0.26022 0.68664 0.0
C757 C 0.21052 0.29277 0.72357 0.0
C758 C 0.19171 0.29213 0.69043 0.0
C759 C 0.31685 0.23872 0.90333 0.0
C760 C 0.24254 0.26233 0.78868 0.0
C761 C 0.3631 0.1947 0.6619 0.0
C762 C 0.3799 0.16711 0.69318 0.0
C763 C 0.37607 0.27066 0.79737 0.0
C764 C 0.40096 0.36745 0.87467 0.0
C765 C 0.41858 0.38966 0.84858 0.0
C766 C 0.43777 0.40668 0.86698 0.0
C767 C 0.43899 0.40137 0.91173 0.0
C768 C 0.40235 0.36258 0.91929 0.0
C769 C 0.42134 0.37951 0.93766 0.0
C770 C 0.30236 0.35774 0.7761 0.0
C771 C 0.38185 0.3494 0.85418 0.0
H772 H 0.22546 0.20392 0.77092 0.0
H773 H 0.16807 0.2608 0.66209 0.0
H774 H 0.21294 0.31914 0.72762 0.0
H775 H 0.18144 0.31703 0.66877 0.0
H776 H 0.41743 0.3937 0.81406 0.0
H777 H 0.45343 0.41439 0.92659 0.0
H778 H 0.3889 0.34572 0.93981 0.0
H779 H 0.42235 0.3757 0.97213 0.0
Tb780 Tb 0.78559 0.30553 0.78657 0.0
C781 C 0.82386 0.41182 0.88144 0.0
C782 C 0.86282 0.43343 0.82699 0.0
C783 C 0.82866 0.47263 0.8845 0.0
C784 C 0.84712 0.40645 0.84393 0.0
C785 C 0.81477 0.44471 0.90258 0.0
C786 C 0.85287 0.46687 0.84693 0.0
C787 C 0.78335 0.41758 0.96106 0.0
N788 N 0.8123 0.38354 0.89891 0.0
C789 C 0.79399 0.38512 0.93941 0.0
C790 C 0.79339 0.44776 0.94229 0.0
Tb791 Tb 0.83249 0.3309 0.86194 0.0
N792 N 0.85625 0.37369 0.82565 0.0
C793 C 0.88281 0.36529 0.79175 0.0
C794 C 0.88884 0.42554 0.7913 0.0
C795 C 0.89917 0.39114 0.77395 0.0
H796 H 0.78753 0.36117 0.95473 0.0
H797 H 0.91961 0.38454 0.74666 0.0
H798 H 0.86429 0.4881 0.83405 0.0
H799 H 0.76802 0.41902 0.99253 0.0
H800 H 0.89132 0.33908 0.77746 0.0
H801 H 0.70313 0.23546 0.88574 0.0
H802 H 0.90152 0.4455 0.77738 0.0
H803 H 0.83157 0.28566 0.6909 0.0
H804 H 0.72458 0.2876 0.86139 0.0
H805 H 0.85919 0.23029 0.64839 0.0
H806 H 0.82187 0.49817 0.90014 0.0
H807 H 0.73126 0.1755 0.85181 0.0
H808 H 0.77639 0.13783 0.79589 0.0
H809 H 0.78576 0.47261 0.95949 0.0
H810 H 0.82086 0.13556 0.73247 0.0
N811 N 0.76582 0.25747 0.81473 0.0
C812 C 0.73751 0.26167 0.84627 0.0
C813 C 0.74112 0.19826 0.8412 0.0
C814 C 0.76904 0.19454 0.80783 0.0
C815 C 0.72508 0.2321 0.86025 0.0
C816 C 0.78075 0.22511 0.79495 0.0
H817 H 0.85184 0.17007 0.67692 0.0
N818 N 0.81249 0.2557 0.74487 0.0
C819 C 0.84462 0.22793 0.67981 0.0
C820 C 0.8057 0.22381 0.75936 0.0
C821 C 0.82913 0.25911 0.70394 0.0
C822 C 0.84055 0.19394 0.69612 0.0
C823 C 0.81965 0.192 0.73552 0.0
O824 O 0.76543 0.32837 0.72689 0.0
O825 O 0.8094 0.34493 0.80088 0.0
O826 O 0.77494 0.36879 0.86981 0.0
O827 O 0.74632 0.33801 0.83726 0.0
O828 O 0.7974 0.34902 0.74021 0.0
O829 O 0.72995 0.32098 0.7822 0.0
O830 O 0.85441 0.32004 0.9221 0.0
O831 O 0.80793 0.29224 0.84813 0.0
O832 O 0.84307 0.26875 0.77766 0.0
O833 O 0.87297 0.29252 0.81772 0.0
O834 O 0.81368 0.2925 0.9104 0.0
O835 O 0.88763 0.30176 0.86392 0.0
C836 C 0.80905 0.36487 0.76478 0.0
C837 C 0.71443 0.31582 0.71369 0.0
C838 C 0.66511 0.32319 0.67166 0.0
C839 C 0.68112 0.33832 0.69808 0.0
C840 C 0.68262 0.28591 0.66139 0.0
C841 C 0.7309 0.27885 0.7021 0.0
C842 C 0.71519 0.26401 0.67646 0.0
C843 C 0.74537 0.36539 0.85964 0.0
C844 C 0.73264 0.33061 0.74094 0.0
C845 C 0.81011 0.16043 0.75006 0.0
C846 C 0.78465 0.16179 0.78602 0.0
C847 C 0.80359 0.27545 0.88527 0.0
C848 C 0.91674 0.31534 0.91588 0.0
C849 C 0.93696 0.29731 0.95117 0.0
C850 C 0.96765 0.3056 0.95673 0.0
C851 C 0.97771 0.33136 0.92669 0.0
C852 C 0.9277 0.34159 0.88764 0.0
C853 C 0.95778 0.34934 0.89277 0.0
C854 C 0.87278 0.26872 0.79119 0.0
C855 C 0.88731 0.30416 0.90476 0.0
H856 H 0.66792 0.36709 0.70622 0.0
H857 H 0.67098 0.2737 0.64137 0.0
H858 H 0.75621 0.26127 0.71237 0.0
H859 H 0.72849 0.23535 0.66803 0.0
H860 H 0.92912 0.27712 0.97378 0.0
H861 H 1.00083 0.33826 0.93014 0.0
H862 H 0.91375 0.35559 0.86052 0.0
H863 H 0.96577 0.36938 0.87009 0.0
Tb864 Tb 0.77293 0.80803 0.85187 0.0
C865 C 0.82568 0.84973 0.66504 0.0
C866 C 0.86667 0.78976 0.64182 0.0
C867 C 0.84341 0.84179 0.58866 0.0
C868 C 0.847 0.81304 0.67493 0.0
C869 C 0.82411 0.86482 0.62174 0.0
C870 C 0.86422 0.80416 0.59863 0.0
C871 C 0.78902 0.92552 0.64719 0.0
N872 N 0.80911 0.87153 0.69799 0.0
C873 C 0.79201 0.90937 0.68959 0.0
C874 C 0.80486 0.90306 0.61307 0.0
Tb875 Tb 0.82024 0.84448 0.76624 0.0
N876 N 0.85033 0.80096 0.71704 0.0
C877 C 0.87451 0.76623 0.72783 0.0
C878 C 0.88955 0.75334 0.65312 0.0
C879 C 0.89367 0.74162 0.69639 0.0
H880 H 0.78018 0.92719 0.7157 0.0
H881 H 0.91192 0.71379 0.70558 0.0
H882 H 0.87945 0.78689 0.57278 0.0
H883 H 0.7748 0.95534 0.64089 0.0
H884 H 0.87845 0.7569 0.76083 0.0
H885 H 0.6581 0.93683 0.87059 0.0
H886 H 0.90492 0.73451 0.62872 0.0
H887 H 0.81644 0.74315 0.92535 0.0
H888 H 0.70496 0.8887 0.83016 0.0
H889 H 0.81465 0.73418 1.00441 0.0
H890 H 0.84361 0.85322 0.55541 0.0
H891 H 0.65814 0.93649 0.94888 0.0
H892 H 0.68449 0.90393 0.01644 0.0
H893 H 0.80302 0.91571 0.58024 0.0
H894 H 0.72607 0.84816 0.05299 0.0
N895 N 0.73152 0.85887 0.88479 0.0
C896 C 0.70529 0.88681 0.86435 0.0
C897 C 0.67879 0.91463 0.93131 0.0
C898 C 0.70496 0.88562 0.95243 0.0
C899 C 0.67852 0.91474 0.88724 0.0
C900 C 0.73116 0.85765 0.92809 0.0
H901 H 0.77307 0.78419 0.04885 0.0
N902 N 0.77837 0.79921 0.92448 0.0
C903 C 0.79811 0.76052 0.98913 0.0
C904 C 0.7553 0.82678 0.94861 0.0
C905 C 0.79909 0.76583 0.94433 0.0
C906 C 0.77494 0.78894 0.01408 0.0
C907 C 0.75326 0.82256 0.99402 0.0
O908 O 0.76805 0.7565 0.87539 0.0
O909 O 0.79656 0.80065 0.78514 0.0
O910 O 0.76585 0.86012 0.74361 0.0
O911 O 0.73744 0.83159 0.79945 0.0
O912 O 0.81065 0.755 0.82758 0.0
O913 O 0.7219 0.80391 0.8572 0.0
O914 O 0.83694 0.89125 0.75795 0.0
O915 O 0.79557 0.85154 0.83223 0.0
O916 O 0.82419 0.79913 0.87589 0.0
O917 O 0.85888 0.80643 0.81221 0.0
O918 O 0.78744 0.89869 0.79226 0.0
O919 O 0.87555 0.83491 0.75956 0.0
C920 C 0.81108 0.76475 0.78681 0.0
C921 C 0.71114 0.75355 0.90186 0.0
C922 C 0.67463 0.71444 0.91558 0.0
C923 C 0.69684 0.72987 0.88735 0.0
C924 C 0.66722 0.72233 0.95896 0.0
C925 C 0.70361 0.76159 0.94508 0.0
C926 C 0.68172 0.74584 0.97359 0.0
C927 C 0.73727 0.85102 0.76109 0.0
C928 C 0.73417 0.76841 0.87051 0.0
C929 C 0.72818 0.851 0.01814 0.0
C930 C 0.70434 0.88268 0.99733 0.0
C931 C 0.78121 0.88728 0.83187 0.0
C932 C 0.89395 0.88254 0.71842 0.0
C933 C 0.90783 0.90984 0.72479 0.0
C934 C 0.93099 0.92055 0.692 0.0
C935 C 0.93933 0.90465 0.65248 0.0
C936 C 0.90363 0.86612 0.6791 0.0
C937 C 0.92569 0.87756 0.64614 0.0
C938 C 0.85572 0.79717 0.85474 0.0
C939 C 0.87083 0.87055 0.75376 0.0
H940 H 0.70271 0.72362 0.85388 0.0
H941 H 0.65012 0.71049 0.98126 0.0
H942 H 0.71455 0.7798 0.95671 0.0
H943 H 0.67591 0.75193 1.00702 0.0
H944 H 0.90142 0.92203 0.7554 0.0
H945 H 0.95714 0.91258 0.62696 0.0
H946 H 0.89487 0.84397 0.67399 0.0
H947 H 0.93282 0.86481 0.61589 0.0
C948 C 0.12633 0.17547 0.40238 0.0
C949 C 0.14409 0.14917 0.37147 0.0
C950 C 0.20227 0.14967 0.38401 0.0
C951 C 0.18432 0.17818 0.41265 0.0
N952 N 0.12923 0.22202 0.445 0.0
N953 N 0.19755 0.11373 0.32892 0.0
C954 C 0.14629 0.192 0.42098 0.0
C955 C 0.18172 0.13703 0.36113 0.0
N956 N 0.09034 0.18429 0.4141 0.0
N957 N 0.23891 0.13398 0.37979 0.0
H958 H 0.18301 0.10333 0.31267 0.0
H959 H 0.22437 0.10667 0.31633 0.0
H960 H 0.25476 0.1422 0.39657 0.0
H961 H 0.25361 0.11091 0.36241 0.0
H962 H 0.0763 0.1998 0.43999 0.0
H963 H 0.07476 0.17404 0.39942 0.0
H964 H 0.10156 0.23601 0.44844 0.0
H965 H 0.14288 0.23489 0.4592 0.0
C966 C 0.92579 0.15816 0.41626 0.0
C967 C 0.95505 0.14721 0.38334 0.0
C968 C 0.92063 0.19945 0.33419 0.0
C969 C 0.89161 0.21166 0.36763 0.0
N970 N 0.86909 0.20488 0.44244 0.0
N971 N 0.98291 0.16171 0.31355 0.0
C972 C 0.89517 0.19182 0.40935 0.0
C973 C 0.95316 0.16928 0.34323 0.0
N974 N 0.92682 0.13559 0.4538 0.0
N975 N 0.91719 0.21604 0.2931 0.0
H976 H 1.00675 0.13935 0.31813 0.0
H977 H 0.98522 0.17941 0.28609 0.0
H978 H 0.89604 0.24018 0.28467 0.0
H979 H 0.93459 0.20469 0.26639 0.0
H980 H 0.905 0.13894 0.47732 0.0
H981 H 0.94931 0.112 0.46044 0.0
H982 H 0.87164 0.19476 0.47454 0.0
H983 H 0.84547 0.22755 0.4381 0.0
C984 C 0.95969 0.01902 0.30711 0.0
C985 C 0.9973 1.00033 0.29886 0.0
C986 C 0.99115 0.94012 0.32655 0.0
C987 C 0.95353 0.9589 0.33503 0.0
N988 N 0.90097 0.01368 0.32308 0.0
N989 N 0.04801 0.94347 0.29111 0.0
C990 C 0.93746 0.99758 0.32183 0.0
C991 C 1.01262 0.9608 0.3052 0.0
N992 N 0.9455 0.05735 0.30376 0.0
N993 N 1.00643 0.9031 0.34065 0.0
H994 H 0.0637 0.95865 0.27513 0.0
H995 H 0.06084 0.91447 0.29168 0.0
H996 H 0.99148 0.88705 0.35625 0.0
H997 H 0.03401 0.88879 0.33941 0.0
H998 H 0.919 0.07262 0.31468 0.0
H999 H 0.96075 0.07412 0.29264 0.0
H1000 H 0.88789 0.04077 0.30971 0.0
H1001 H 0.88385 0.99881 0.33406 0.0
C1002 C 0.17187 0.94995 0.4072 0.0
C1003 C 0.15011 0.9664 0.37328 0.0
C1004 C 0.18766 0.91367 0.3303 0.0
C1005 C 0.21023 0.89678 0.36412 0.0
N1006 N 0.21183 0.89205 0.44059 0.0
N1007 N 0.12991 0.95615 0.31004 0.0
C1008 C 0.1988 0.91302 0.40438 0.0
C1009 C 0.15567 0.94554 0.3375 0.0
N1010 N 0.16764 0.96975 0.4416 0.0
N1011 N 0.19698 0.90135 0.29009 0.0
H1012 H 0.10614 0.97908 0.31454 0.0
H1013 H 0.1303 0.93987 0.28597 0.0
H1014 H 0.21727 0.87668 0.28229 0.0
H1015 H 0.18498 0.91701 0.26325 0.0
H1016 H 0.18527 0.9608 0.4651 0.0
H1017 H 0.14761 0.9961 0.44497 0.0
H1018 H 0.20282 0.90112 0.47138 0.0
H1019 H 0.22815 0.86378 0.43986 0.0
C1020 C 0.19215 0.98423 0.75889 0.0
C1021 C 0.15714 0.98242 0.76587 0.0
C1022 C 0.18325 0.9159 0.79242 0.0
C1023 C 0.21868 0.91671 0.78142 0.0
N1024 N 0.25594 0.95005 0.74383 0.0
N1025 N 0.1199 0.94476 0.78314 0.0
C1026 C 0.22289 0.95058 0.76215 0.0
C1027 C 0.1528 0.94782 0.78131 0.0
N1028 N 0.19601 0.01834 0.74913 0.0
N1029 N 0.17849 0.88461 0.81396 0.0
H1030 H 0.09682 0.96756 0.77653 0.0
H1031 H 0.11586 0.91922 0.78817 0.0
H1032 H 0.19985 0.86023 0.821 0.0
H1033 H 0.1536 0.88353 0.82735 0.0
H1034 H 0.22047 0.02204 0.74764 0.0
H1035 H 0.17411 0.04342 0.74678 0.0
H1036 H 0.26046 0.97307 0.72602 0.0
H1037 H 0.27796 0.92515 0.74162 0.0
C1038 C 0.17887 0.14668 0.68077 0.0
C1039 C 0.14272 0.15519 0.69877 0.0
C1040 C 0.14672 0.20349 0.73864 0.0
C1041 C 0.1811 0.19866 0.71599 0.0
N1042 N 0.23033 0.16666 0.665 0.0
N1043 N 0.09041 0.19394 0.74082 0.0
C1044 C 0.19751 0.17024 0.68713 0.0
C1045 C 0.12623 0.18397 0.72702 0.0
N1046 N 0.1953 0.1157 0.65828 0.0
N1047 N 0.13365 0.22692 0.77108 0.0
H1048 H 0.07436 0.1809 0.73183 0.0
H1049 H 0.07585 0.21721 0.75796 0.0
H1050 H 0.14779 0.2421 0.78003 0.0
H1051 H 0.1104 0.2287 0.79169 0.0
H1052 H 0.22257 0.1057 0.64745 0.0
H1053 H 0.18185 0.09836 0.65311 0.0
H1054 H 0.24211 0.1494 0.63997 0.0
H1055 H 0.24523 0.18237 0.67066 0.0
C1056 C 0.94967 0.17276 0.80278 0.0
C1057 C 0.96849 0.17018 0.76077 0.0
C1058 C 0.92545 0.23256 0.73874 0.0
C1059 C 0.90756 0.23619 0.78126 0.0
N1060 N 0.91169 0.21324 0.85672 0.0
N1061 N 0.98132 0.20438 0.69418 0.0
C1062 C 0.92275 0.20765 0.81425 0.0
C1063 C 0.95843 0.20212 0.73034 0.0
N1064 N 0.95544 0.1415 0.83116 0.0
N1065 N 0.91118 0.25816 0.70605 0.0
H1066 H 1.00688 0.18417 0.68852 0.0
H1067 H 0.97686 0.22838 0.67277 0.0
H1068 H 0.88803 0.28135 0.71132 0.0
H1069 H 0.92077 0.25465 0.67369 0.0
H1070 H 0.93937 0.14106 0.86032 0.0
H1071 H 0.97377 0.11513 0.82393 0.0
H1072 H 0.92501 0.19521 0.88149 0.0
H1073 H 0.89062 0.23669 0.86741 0.0
C1074 C 1.00218 0.95556 0.71667 0.0
C1075 C 0.98933 0.99291 0.69758 0.0
C1076 C 0.93421 0.98513 0.68437 0.0
C1077 C 0.9488 0.94659 0.69918 0.0
N1078 N 0.99617 0.8943 0.72941 0.0
N1079 N 0.94415 0.04417 0.66348 0.0
C1080 C 0.98247 0.93168 0.71596 0.0
C1081 C 0.9554 1.00805 0.68183 0.0
N1082 N 0.03347 0.94311 0.73514 0.0
N1083 N 0.90002 0.99962 0.6731 0.0
H1084 H 0.95873 0.06172 0.6629 0.0
H1085 H 0.92139 0.05642 0.64743 0.0
H1086 H 0.88406 0.98336 0.67464 0.0
H1087 H 0.88645 0.02799 0.66501 0.0
H1088 H 0.04299 0.91758 0.75347 0.0
H1089 H 0.04925 0.95946 0.73412 0.0
H1090 H 0.0221 0.88046 0.73766 0.0
H1091 H 0.98194 0.87632 0.73076 0.0
C1092 C 0.34239 0.17199 0.26682 0.0
C1093 C 0.31593 0.18177 0.23818 0.0
C1094 C 0.30691 0.24817 0.2394 0.0
C1095 C 0.32987 0.23948 0.27259 0.0
N1096 N 0.37918 0.19196 0.30537 0.0
N1097 N 0.27091 0.22881 0.19934 0.0
C1098 C 0.35053 0.20087 0.28259 0.0
C1099 C 0.29788 0.21974 0.22487 0.0
N1100 N 0.35863 0.13499 0.28013 0.0
N1101 N 0.29644 0.2829 0.2186 0.0
H1102 H 0.26411 0.20865 0.18737 0.0
H1103 H 0.25363 0.25618 0.19246 0.0
H1104 H 0.30631 0.3021 0.22561 0.0
H1105 H 0.28318 0.29056 0.19108 0.0
H1106 H 0.37518 0.12549 0.30468 0.0
H1107 H 0.35382 0.11363 0.26787 0.0
H1108 H 0.39714 0.1648 0.31131 0.0
H1109 H 0.38727 0.21235 0.31463 0.0
C1110 C 0.92978 0.33485 0.19065 0.0
C1111 C 0.95739 0.32891 0.21705 0.0
C1112 C 0.9173 0.31291 0.27848 0.0
C1113 C 0.8875 0.32363 0.25389 0.0
N1114 N 0.86553 0.35735 0.18714 0.0
N1115 N 0.9695 0.32567 0.29012 0.0
C1116 C 0.89385 0.33846 0.21017 0.0
C1117 C 0.94846 0.32228 0.26216 0.0
N1118 N 0.93765 0.33488 0.14707 0.0
N1119 N 0.91716 0.2926 0.31703 0.0
H1120 H 0.98964 0.33687 0.28002 0.0
H1121 H 0.9643 0.32151 0.32343 0.0
H1122 H 0.89514 0.28621 0.33054 0.0
H1123 H 0.93972 0.28022 0.33359 0.0
H1124 H 0.91911 0.3359 0.12684 0.0
H1125 H 0.96359 0.32931 0.13179 0.0
H1126 H 0.86851 0.37086 0.15659 0.0
H1127 H 0.83893 0.36387 0.20064 0.0
C1128 C 0.88279 0.86828 0.10072 0.0
C1129 C 0.87603 0.90605 0.09378 0.0
C1130 C 0.83883 0.92043 0.16074 0.0
C1131 C 0.84834 0.8805 0.17365 0.0
N1132 N 0.879 0.81727 0.14715 0.0
N1133 N 0.84585 0.96687 0.09471 0.0
C1134 C 0.86938 0.85491 0.141 0.0
C1135 C 0.85289 0.93162 0.11856 0.0
N1136 N 0.90251 0.8451 0.06977 0.0
N1137 N 0.81768 0.94648 0.18784 0.0
H1138 H 0.87559 0.97215 0.02746 0.0
H1139 H 0.8239 0.98745 0.11051 0.0
H1140 H 0.80775 0.939 0.21872 0.0
H1141 H 0.81109 0.97516 0.17946 0.0
H1142 H 0.90834 0.81613 0.0738 0.0
H1143 H 0.91259 0.85554 0.04031 0.0
H1144 H 0.87377 0.80301 0.176 0.0
H1145 H 0.87377 0.80301 0.176 0.0
C1146 C 0.18837 0.71107 0.12137 0.0
C1147 C 0.15251 0.73536 0.11782 0.0
C1148 C 0.16665 0.78837 0.13546 0.0
C1149 C 0.20286 0.76426 0.13762 0.0
N1150 N 0.2471 0.70335 0.14183 0.0
N1151 N 0.10511 0.79414 0.13159 0.0
C1152 C 0.21316 0.72545 0.13371 0.0
C1153 C 0.14091 0.7731 0.12839 0.0
N1154 N 0.19876 0.67506 0.11066 0.0
N1155 N 0.15734 0.82605 0.13807 0.0
H1156 H 0.08583 0.78338 0.12693 0.0
H1157 H 0.09417 0.82088 0.14243 0.0
H1158 H 0.17533 0.83786 0.14449 0.0
H1159 H 0.1325 0.84588 0.1317 0.0
H1160 H 0.22519 0.65648 0.10786 0.0
H1161 H 0.18056 0.66424 0.1026 0.0
H1162 H 0.25747 0.67417 0.14224 0.0
H1163 H 0.25747 0.67417 0.14224 0.0
C1164 C 0.22941 0.99961 0.09455 0.0
C1165 C 0.21718 0.03729 0.0766 0.0
C1166 C 0.22334 0.01681 1.00497 0.0
C1167 C 0.242 0.97964 0.02176 0.0
N1168 N 0.25343 0.93325 0.08214 0.0
N1169 N 0.19254 0.08254 0.01951 0.0
C1170 C 0.2413 0.97021 0.06675 0.0
C1171 C 0.20999 0.04595 0.03333 0.0
N1172 N 0.23237 0.99272 0.13766 0.0
N1173 N 0.22061 0.02415 0.96178 0.0
H1174 H 0.18318 0.10362 0.04072 0.0
H1175 H 0.18568 0.09185 0.98844 0.0
H1176 H 0.22972 1.00292 0.94085 0.0
H1177 H 0.20917 0.0508 0.94652 0.0
H1178 H 0.24423 0.96626 0.15319 0.0
H1179 H 0.22273 0.01441 0.15805 0.0
H1180 H 0.25298 0.92386 0.11466 0.0
H1181 H 0.26205 0.91163 0.06171 0.0
C1182 C 0.18987 0.31069 0.96207 0.0
C1183 C 0.17036 0.34805 0.97385 0.0
C1184 C 0.20439 0.37059 0.91024 0.0
C1185 C 0.22773 0.33332 0.90226 0.0
N1186 N 0.22845 0.27006 0.90805 0.0
N1187 N 0.16455 0.41306 0.96203 0.0
C1188 C 0.21698 0.30373 0.92531 0.0
C1189 C 0.17912 0.37777 0.94849 0.0
N1190 N 0.18143 0.28161 0.98459 0.0
N1191 N 0.20401 0.39926 0.87938 0.0
H1192 H 0.14786 0.41906 0.99086 0.0
H1193 H 0.1722 0.43527 0.94717 0.0
H1194 H 0.22081 0.39524 0.85039 0.0
H1195 H 0.18486 0.42624 0.88095 0.0
H1196 H 0.19849 0.25366 0.98393 0.0
H1197 H 0.15756 0.28536 1.00462 0.0
H1198 H 0.22081 0.24743 0.92093 0.0
H1199 H 0.24107 0.26683 0.8769 0.0
C1200 C 0.76987 0.20241 0.95825 0.0
C1201 C 0.78817 0.16892 0.93741 0.0
C1202 C 0.81733 0.20357 0.8829 0.0
C1203 C 0.79655 0.23863 0.90071 0.0
N1204 N 0.74931 0.27067 0.95399 0.0
N1205 N 0.82586 0.13826 0.87719 0.0
C1206 C 0.77202 0.23763 0.93839 0.0
C1207 C 0.81105 0.16976 0.89915 0.0
N1208 N 0.7509 0.20019 0.99765 0.0
N1209 N 0.84401 0.2021 0.8508 0.0
H1210 H 0.82223 0.11301 0.88861 0.0
H1211 H 0.83946 0.13766 0.84629 0.0
H1212 H 0.84788 0.22622 0.83781 0.0
H1213 H 0.86318 0.17756 0.8395 0.0
H1214 H 0.73969 0.22236 0.01718 0.0
H1215 H 0.74914 0.17484 0.01242 0.0
H1216 H 0.72851 0.27252 0.97862 0.0
H1217 H 0.74904 0.29678 0.9395 0.0
C1218 C 0.95445 0.7662 0.88138 0.0
C1219 C 0.95053 0.77273 0.92541 0.0
C1220 C 0.88455 0.79842 0.92333 0.0
C1221 C 0.88828 0.78756 0.88035 0.0
N1222 N 0.92915 0.74944 0.82613 0.0
N1223 N 0.91078 0.78689 0.99073 0.0
C1224 C 0.92398 0.76848 0.86138 0.0
C1225 C 0.91524 0.78649 0.94702 0.0
N1226 N 0.9875 0.75789 0.85831 0.0
N1227 N 0.85236 0.82167 0.94149 0.0
H1228 H 0.93239 0.7779 0.00888 0.0
H1229 H 0.88589 0.79246 0.00912 0.0
H1230 H 0.82943 0.83352 0.92588 0.0
H1231 H 0.84944 0.83307 0.97059 0.0
H1232 H 0.9916 0.75623 0.82508 0.0
H1233 H 1.01 0.75665 0.87178 0.0
H1234 H 0.95441 0.73301 0.81248 0.0
H1235 H 0.90808 0.74514 0.81526 0.0
C1236 C 0.1828 0.29883 0.2359 0.0
C1237 C 0.17988 0.31655 0.19335 0.0
C1238 C 0.20886 0.35852 0.21205 0.0
C1239 C 0.21631 0.33754 0.25237 0.0
N1240 N 0.19005 0.30373 0.30929 0.0
N1241 N 0.19272 0.36249 0.13999 0.0
C1242 C 0.19781 0.31183 0.26632 0.0
C1243 C 0.19363 0.3462 0.18128 0.0
N1244 N 0.1722 0.26864 0.24715 0.0
N1245 N 0.21156 0.39315 0.20566 0.0
H1246 H 0.18037 0.35588 0.11713 0.0
H1247 H 0.20637 0.38067 0.12776 0.0
H1248 H 0.21638 0.40521 0.23067 0.0
H1249 H 0.20363 0.41181 0.17878 0.0
H1250 H 0.17787 0.25141 0.27559 0.0
H1251 H 0.16036 0.25898 0.22639 0.0
H1252 H 0.17521 0.28679 0.32178 0.0
H1253 H 0.19196 0.31991 0.332 0.0
C1254 C 0.17552 0.77248 0.93933 0.0
C1255 C 0.14685 0.80758 0.94596 0.0
C1256 C 0.18962 0.83855 0.90686 0.0
C1257 C 0.21771 0.80345 0.89778 0.0
N1258 N 0.23985 0.73844 0.92471 0.0
N1259 N 0.12642 0.87421 0.9279 0.0
C1260 C 0.21111 0.77086 0.91934 0.0
C1261 C 0.15415 0.84047 0.92739 0.0
N1262 N 0.16897 0.74 0.95158 0.0
N1263 N 0.19781 0.87039 0.90042 0.0
H1264 H 0.10048 0.87678 0.94167 0.0
H1265 H 0.12822 0.89874 0.91085 0.0
H1266 H 0.22274 0.87058 0.8862 0.0
H1267 H 0.18086 0.89592 0.9118 0.0
H1268 H 0.1871 0.71374 0.94361 0.0
H1269 H 0.14401 0.73964 0.96565 0.0
H1270 H 0.23827 0.71515 0.94486 0.0
H1271 H 0.26599 0.7359 0.91202 0.0
C1272 C 0.306 0.20069 0.02389 0.0
C1273 C 0.31318 0.1617 0.02283 0.0
C1274 C 0.32075 0.17177 0.94229 0.0
C1275 C 0.31347 0.21127 0.94365 0.0
N1276 N 0.2842 0.26295 0.98778 0.0
N1277 N 0.3323 0.10908 0.98036 0.0
C1278 C 0.30241 0.22544 0.98511 0.0
C1279 C 0.32221 0.14699 0.98175 0.0
N1280 N 0.30362 0.21432 0.06251 0.0
N1281 N 0.32295 0.15818 0.90379 0.0
H1282 H 0.33221 0.0908 1.00793 0.0
H1283 H 0.34357 0.09515 0.95267 0.0
H1284 H 0.31733 0.17522 0.87553 0.0
H1285 H 0.32562 0.13078 0.90018 0.0
H1286 H 0.30209 0.2416 0.06516 0.0
H1287 H 0.30728 0.19715 0.09132 0.0
H1288 H 0.27076 0.27443 0.01643 0.0
H1289 H 0.27866 0.28201 0.96077 0.0
C1290 C 0.04185 0.24755 0.02876 0.0
C1291 C 0.04152 0.27646 0.05284 0.0
C1292 C 0.98563 0.31818 0.02358 0.0
C1293 C 0.98858 0.29149 0.99511 0.0
N1294 N 0.02162 0.23134 0.96771 0.0
N1295 N 1.01675 0.34213 0.06471 0.0
C1296 C 1.01722 0.25614 0.99706 0.0
C1297 C 1.01436 0.31252 0.04785 0.0
N1298 N 0.06556 0.21191 0.03628 0.0
N1299 N 0.9551 0.3493 0.02732 0.0
H1300 H 0.03813 0.3394 0.081 0.0
H1301 H 0.99983 0.36981 0.05854 0.0
H1302 H 0.93343 0.354 0.01025 0.0
H1303 H 0.94982 0.36811 0.05051 0.0
H1304 H 0.06486 0.18877 0.02323 0.0
H1305 H 0.08477 0.20527 0.05766 0.0
H1306 H 0.04405 0.20692 0.96408 0.0
H1307 H 1.00344 0.23636 0.9454 0.0
C1308 C 0.74908 0.96722 0.91005 0.0
C1309 C 0.78068 0.96151 0.92896 0.0
C1310 C 0.81247 0.90742 0.88489 0.0
C1311 C 0.78063 0.91184 0.86692 0.0
N1312 N 0.7244 0.95838 0.84861 0.0
N1313 N 0.84357 0.9247 0.93273 0.0
C1314 C 0.75033 0.94509 0.87595 0.0
C1315 C 0.81227 0.9309 0.9163 0.0
N1316 N 0.71773 0.99437 0.92395 0.0
N1317 N 0.84514 0.88439 0.86856 0.0
H1318 H 0.84613 0.94197 0.95361 0.0
H1319 H 0.86711 0.90202 0.92548 0.0
H1320 H 0.84943 0.86962 0.84182 0.0
H1321 H 0.84943 0.86962 0.84182 0.0
H1322 H 0.69303 0.99736 0.91478 0.0
H1323 H 0.71606 0.01162 0.94762 0.0
H1324 H 0.70394 0.98456 0.85015 0.0
H1325 H 0.72525 0.94486 0.82175 0.0
C1326 C 0.95446 0.81689 0.16254 0.0
C1327 C 0.97134 0.78274 0.14213 0.0
C1328 C 0.94383 0.75173 0.20676 0.0
C1329 C 0.92257 0.78659 0.22365 0.0
N1330 N 0.9233 0.84869 0.22645 0.0
N1331 N 0.98001 0.71644 0.14732 0.0
C1332 C 0.93257 0.81807 0.20406 0.0
C1333 C 0.9654 0.74999 0.16518 0.0
N1334 N 0.95705 0.84926 0.14104 0.0
N1335 N 0.94663 0.71959 0.23273 0.0
H1336 H 0.9991 0.71155 0.12052 0.0
H1337 H 0.9719 0.6937 0.15827 0.0
H1338 H 0.93356 0.71995 0.26401 0.0
H1339 H 0.96488 0.6932 0.22541 0.0
H1340 H 0.94149 0.87591 0.15053 0.0
H1341 H 0.97243 0.84987 0.11142 0.0
H1342 H 0.93234 0.87097 0.21709 0.0
H1343 H 0.9105 0.84925 0.25736 0.0
C1344 C 0.30361 0.97456 0.25786 0.0
C1345 C 0.31582 0.97601 0.21317 0.0
C1346 C 0.3314 0.90647 0.21887 0.0
C1347 C 0.3131 0.90649 0.26166 0.0
N1348 N 0.27342 0.946 0.31576 0.0
N1349 N 0.33884 0.94218 0.14998 0.0
C1350 C 0.2971 0.94204 0.27946 0.0
C1351 C 0.32954 0.94147 0.19345 0.0
N1352 N 0.2975 1.00493 0.27995 0.0
N1353 N 0.35038 0.8729 0.20219 0.0
H1354 H 0.33836 0.96677 0.13105 0.0
H1355 H 0.34477 0.91907 0.13255 0.0
H1356 H 0.35247 0.8473 0.21973 0.0
H1357 H 0.36673 0.8704 0.17296 0.0
H1358 H 0.29105 1.00475 0.31326 0.0
H1359 H 0.30284 0.02868 0.26548 0.0
H1360 H 0.25803 0.97191 0.32747 0.0
H1361 H 0.26663 0.92393 0.33169 0.0
C1362 C 0.73455 0.12943 0.13201 0.0
C1363 C 0.76481 0.09599 0.12831 0.0
C1364 C 0.79943 0.12253 0.16274 0.0
C1365 C 0.7703 0.15743 0.16321 0.0
N1366 N 0.70656 0.1895 0.16326 0.0
N1367 N 0.81817 0.05556 0.15854 0.0
C1368 C 0.73644 0.1591 0.1533 0.0
C1369 C 0.79415 0.09083 0.15097 0.0
N1370 N 0.70521 0.13375 0.11257 0.0
N1371 N 0.83301 0.12003 0.16908 0.0
H1372 H 0.81391 0.03254 0.15002 0.0
H1373 H 0.83914 0.04926 0.17724 0.0
H1374 H 0.83912 0.14251 0.17595 0.0
H1375 H 0.85569 0.09606 0.16384 0.0
H1376 H 0.68375 0.15907 0.10956 0.0
H1377 H 0.70318 0.11174 0.09839 0.0
H1378 H 0.68073 0.19142 0.15955 0.0
H1379 H 0.70763 0.21113 0.17913 0.0
C1380 C 0.61354 0.68366 0.86075 0.0
C1381 C 0.62327 0.64578 0.87755 0.0
C1382 C 0.67273 0.65089 0.90937 0.0
C1383 C 0.65881 0.69034 0.89927 0.0
N1384 N 0.61591 0.74511 0.86547 0.0
N1385 N 0.66157 0.59235 0.91744 0.0
C1386 C 0.62959 0.70696 0.87419 0.0
C1387 C 0.65331 0.62887 0.90093 0.0
N1388 N 0.58788 0.69722 0.83309 0.0
N1389 N 0.70448 0.63464 0.92682 0.0
H1390 H 0.64834 0.57544 0.91046 0.0
H1391 H 0.68024 0.57935 0.93935 0.0
H1392 H 0.71921 0.65014 0.93354 0.0
H1393 H 0.71768 0.60573 0.93136 0.0
H1394 H 0.58084 0.72388 0.81677 0.0
H1395 H 0.57579 0.68013 0.82375 0.0
H1396 H 0.59249 0.75929 0.85104 0.0
H1397 H 0.62673 0.76316 0.87509 0.0
C1398 C 0.4328 0.65489 0.82347 0.0
C1399 C 0.44455 0.64307 0.86504 0.0
C1400 C 0.39073 0.69489 0.89279 0.0
C1401 C 0.38381 0.71106 0.85001 0.0
N1402 N 0.40537 0.70764 0.77392 0.0
N1403 N 0.43514 0.655 0.93977 0.0
C1404 C 0.40657 0.69118 0.81515 0.0
C1405 C 0.4235 0.66384 0.90001 0.0
N1406 N 0.44706 0.63128 0.79138 0.0
N1407 N 0.36527 0.70773 0.92648 0.0
H1408 H 0.45823 0.63218 0.94631 0.0
H1409 H 0.42306 0.67177 0.96524 0.0
H1410 H 0.34009 0.72795 0.92205 0.0
H1411 H 0.36759 0.69528 0.95788 0.0
H1412 H 0.4372 0.63684 0.76155 0.0
H1413 H 0.46591 0.60438 0.79647 0.0
H1414 H 0.42393 0.69557 0.74832 0.0
H1415 H 0.38915 0.73514 0.7658 0.0
C1416 C 0.45672 0.49449 0.81613 0.0
C1417 C 0.49429 0.47887 0.8045 0.0
C1418 C 0.49237 0.41528 0.82268 0.0
C1419 C 0.45589 0.43117 0.84011 0.0
N1420 N 0.4024 0.48538 0.85245 0.0
N1421 N 0.54812 0.42542 0.79421 0.0
C1422 C 0.43762 0.47069 0.83587 0.0
C1423 C 0.512 0.43941 0.80635 0.0
N1424 N 0.43965 0.53233 0.80876 0.0
N1425 N 0.50813 0.37716 0.82221 0.0
H1426 H 0.56226 0.44281 0.78036 0.0
H1427 H 0.56419 0.39724 0.79858 0.0
H1428 H 0.49449 0.35894 0.83442 0.0
H1429 H 0.53382 0.36353 0.80752 0.0
H1430 H 0.41199 0.54599 0.81355 0.0
H1431 H 0.45326 0.54998 0.79442 0.0
H1432 H 0.3882 0.51387 0.85496 0.0
H1433 H 0.38733 0.4687 0.86544 0.0
C1434 C 0.6519 0.4397 0.84201 0.0
C1435 C 0.64083 0.45769 0.88089 0.0
C1436 C 0.69466 0.40959 0.91 0.0
C1437 C 0.70886 0.3966 0.8683 0.0
N1438 N 0.70206 0.40736 0.79218 0.0
N1439 N 0.65381 0.46068 0.95188 0.0
C1440 C 0.68756 0.41361 0.83376 0.0
C1441 C 0.66274 0.44273 0.91508 0.0
N1442 N 0.62817 0.44782 0.81238 0.0
N1443 N 0.71059 0.38938 0.94503 0.0
H1444 H 0.63034 0.48397 0.95682 0.0
H1445 H 0.67063 0.45372 0.97609 0.0
H1446 H 0.73202 0.36398 0.9424 0.0
H1447 H 0.70016 0.39557 0.97658 0.0
H1448 H 0.63354 0.4331 0.78519 0.0
H1449 H 0.60174 0.46627 0.81771 0.0
H1450 H 0.68878 0.4219 0.76572 0.0
H1451 H 0.72882 0.3913 0.78377 0.0
C1452 C 0.68362 0.44853 0.23383 0.0
C1453 C 0.6634 0.47333 0.266 0.0
C1454 C 0.70059 0.42909 0.31874 0.0
C1455 C 0.72485 0.40855 0.28509 0.0
N1456 N 0.74239 0.40576 0.20871 0.0
N1457 N 0.65896 0.48986 0.33852 0.0
C1458 C 0.71718 0.42027 0.24204 0.0
C1459 C 0.67361 0.46441 0.30837 0.0
N1460 N 0.67023 0.45072 0.19596 0.0
N1461 N 0.70156 0.41425 0.36055 0.0
H1462 H 0.64028 0.51661 0.33218 0.0
H1463 H 0.66835 0.48568 0.36849 0.0
H1464 H 0.71847 0.38727 0.36963 0.0
H1465 H 0.68239 0.42688 0.38539 0.0
H1466 H 0.68286 0.43131 0.17312 0.0
H1467 H 0.64447 0.46869 0.18998 0.0
H1468 H 0.739 0.41574 0.17665 0.0
H1469 H 0.76806 0.38679 0.2135 0.0
C1470 C 0.68907 0.62689 0.22457 0.0
C1471 C 0.65232 0.64779 0.22116 0.0
C1472 C 0.65939 0.70401 0.23934 0.0
C1473 C 0.69702 0.68504 0.23454 0.0
N1474 N 0.74852 0.62856 0.2261 0.0
N1475 N 0.6017 0.70553 0.22455 0.0
C1476 C 0.71212 0.64618 0.22913 0.0
C1477 C 0.63709 0.68609 0.22906 0.0
N1478 N 0.70164 0.58886 0.22285 0.0
N1479 N 0.64543 0.7395 0.25253 0.0
H1480 H 0.58498 0.69285 0.21654 0.0
H1481 H 0.58947 0.73446 0.22572 0.0
H1482 H 0.66162 0.75303 0.26013 0.0
H1483 H 0.61809 0.75409 0.25964 0.0
H1484 H 0.72748 0.57132 0.22873 0.0
H1485 H 0.68528 0.5745 0.218 0.0
H1486 H 0.76187 0.6012 0.21759 0.0
H1487 H 0.76552 0.64209 0.23127 0.0
C1488 C 0.47897 0.70008 0.27524 0.0
C1489 C 0.47611 0.66406 0.27954 0.0
C1490 C 0.41117 0.69305 0.30111 0.0
C1491 C 0.41358 0.72974 0.29592 0.0
N1492 N 0.45311 0.76488 0.29174 0.0
N1493 N 0.44151 0.62488 0.30466 0.0
C1494 C 0.44847 0.73227 0.28716 0.0
C1495 C 0.44277 0.66019 0.29516 0.0
N1496 N 0.51108 0.70366 0.25903 0.0
N1497 N 0.37858 0.68942 0.31248 0.0
H1498 H 0.46406 0.60064 0.30009 0.0
H1499 H 0.41924 0.61904 0.32016 0.0
H1500 H 0.35562 0.71171 0.32148 0.0
H1501 H 0.37379 0.66462 0.31286 0.0
H1502 H 0.51405 0.72938 0.24886 0.0
H1503 H 0.53459 0.68054 0.25367 0.0
H1504 H 0.47814 0.76723 0.29036 0.0
H1505 H 0.43236 0.78861 0.30181 0.0
C1506 C 0.45341 0.52498 0.19077 0.0
C1507 C 0.4892 0.50318 0.19793 0.0
C1508 C 0.47525 0.44568 0.20869 0.0
C1509 C 0.43926 0.46755 0.20168 0.0
N1510 N 0.39182 0.52802 0.19596 0.0
N1511 N 0.53272 0.44515 0.22345 0.0
C1512 C 0.4276 0.50732 0.19593 0.0
C1513 C 0.49966 0.46416 0.20997 0.0
N1514 N 0.44463 0.56229 0.17752 0.0
N1515 N 0.48642 0.40734 0.21223 0.0
H1516 H 0.55104 0.45822 0.22462 0.0
H1517 H 0.54084 0.41744 0.23683 0.0
H1518 H 0.46913 0.3928 0.21231 0.0
H1519 H 0.51318 0.38986 0.21255 0.0
H1520 H 0.41988 0.57923 0.16746 0.0
H1521 H 0.46318 0.57582 0.17376 0.0
H1522 H 0.38119 0.55716 0.19571 0.0
H1523 H 0.37228 0.51574 0.20008 0.0
C1524 C 0.8242 0.67058 0.73928 0.0
C1525 C 0.82027 0.68146 0.69524 0.0
C1526 C 0.80429 0.74747 0.7099 0.0
C1527 C 0.81028 0.73712 0.75457 0.0
N1528 N 0.80582 0.68859 0.81116 0.0
N1529 N 0.81241 0.72961 0.63685 0.0
C1530 C 0.81524 0.69841 0.76916 0.0
C1531 C 0.81167 0.71969 0.68024 0.0
N1532 N 0.83651 0.63321 0.75309 0.0
N1533 N 0.78827 0.78388 0.69583 0.0
H1534 H 0.81654 0.71056 0.61423 0.0
H1535 H 0.81192 0.75596 0.62298 0.0
H1536 H 0.78398 0.80483 0.71474 0.0
H1537 H 0.77744 0.79301 0.66662 0.0
H1538 H 0.84484 0.62318 0.78351 0.0
H1539 H 0.84124 0.612 0.73305 0.0
H1540 H 0.80701 0.6616 0.82313 0.0
H1541 H 0.78876 0.70805 0.83148 0.0
C1542 C 0.4488 0.81925 0.73428 0.0
C1543 C 0.44706 0.84133 0.6937 0.0
C1544 C 0.38061 0.85271 0.7039 0.0
C1545 C 0.38252 0.82831 0.74303 0.0
N1546 N 0.42254 0.78318 0.78993 0.0
N1547 N 0.41072 0.87296 0.63694 0.0
C1548 C 0.41791 0.81014 0.75637 0.0
C1549 C 0.41263 0.85647 0.67808 0.0
N1550 N 0.47979 0.80799 0.75298 0.0
N1551 N 0.34749 0.87338 0.69146 0.0
H1552 H 0.4333 0.87478 0.61699 0.0
H1553 H 0.38792 0.88109 0.62104 0.0
H1554 H 0.32389 0.87161 0.70879 0.0
H1555 H 0.34309 0.89478 0.66659 0.0
H1556 H 0.48226 0.79548 0.78432 0.0
H1557 H 0.5022 0.81411 0.7382 0.0
H1558 H 0.44756 0.76535 0.79845 0.0
H1559 H 0.40093 0.77781 0.80799 0.0
C1560 C 0.32984 0.42996 0.69465 0.0
C1561 C 0.31305 0.42859 0.65871 0.0
C1562 C 0.27823 0.39506 0.70711 0.0
C1563 C 0.29956 0.39022 0.74076 0.0
N1564 N 0.33053 0.42127 0.77239 0.0
N1565 N 0.27262 0.40709 0.63057 0.0
C1566 C 0.32114 0.41295 0.73639 0.0
C1567 C 0.28721 0.41086 0.66512 0.0
N1568 N 0.35429 0.44749 0.68883 0.0
N1569 N 0.24709 0.38803 0.7167 0.0
H1570 H 0.27939 0.4172 0.59934 0.0
H1571 H 0.25651 0.39097 0.63249 0.0
H1572 H 0.23894 0.37887 0.7479 0.0
H1573 H 0.22816 0.39453 0.69505 0.0
H1574 H 0.37124 0.44534 0.71157 0.0
H1575 H 0.35891 0.46276 0.66006 0.0
H1576 H 0.34518 0.43861 0.77212 0.0
H1577 H 0.31847 0.41606 0.80288 0.0
C1578 C 0.571 0.34014 0.65285 0.0
C1579 C 0.57447 0.34656 0.60728 0.0
C1580 C 0.63086 0.35672 0.60877 0.0
C1581 C 0.63019 0.34437 0.65335 0.0
N1582 N 0.59529 0.33657 0.7202 0.0
N1583 N 0.59944 0.37474 0.5445 0.0
C1584 C 0.59837 0.3408 0.67626 0.0
C1585 C 0.60156 0.35995 0.58623 0.0
N1586 N 0.54251 0.33101 0.67303 0.0
N1587 N 0.66065 0.36291 0.58774 0.0
H1588 H 0.57744 0.378 0.52871 0.0
H1589 H 0.61722 0.38678 0.5272 0.0
H1590 H 0.68153 0.36207 0.60418 0.0
H1591 H 0.66508 0.3679 0.55447 0.0
H1592 H 0.53939 0.32226 0.7056 0.0
H1593 H 0.52192 0.3319 0.6561 0.0
H1594 H 0.57229 0.33557 0.73955 0.0
H1595 H 0.61526 0.33701 0.73734 0.0
C1596 C 0.736 0.55843 0.5319 0.0
C1597 C 0.76732 0.55209 0.55141 0.0
C1598 C 0.79003 0.48631 0.53467 0.0
C1599 C 0.764 0.4954 0.50601 0.0
N1600 N 0.70909 0.53791 0.4806 0.0
N1601 N 0.82649 0.51019 0.56722 0.0
C1602 C 0.73534 0.53058 0.50666 0.0
C1603 C 0.79453 0.51573 0.55294 0.0
N1604 N 0.70778 0.5915 0.53627 0.0
N1605 N 0.81193 0.44986 0.54198 0.0
H1606 H 0.83197 0.5314 0.57861 0.0
H1607 H 0.84879 0.48565 0.56347 0.0
H1608 H 0.80918 0.42813 0.52801 0.0
H1609 H 0.82983 0.44107 0.56515 0.0
H1610 H 0.68322 0.59731 0.52497 0.0
H1611 H 0.70826 0.61207 0.5544 0.0
H1612 H 0.6894 0.5642 0.47534 0.0
H1613 H 0.70794 0.51718 0.46323 0.0
C1614 C 0.67449 0.86672 0.40761 0.0
C1615 C 0.68151 0.84758 0.44919 0.0
C1616 C 0.74671 0.82341 0.41931 0.0
C1617 C 0.74009 0.8426 0.37691 0.0
N1618 N 0.69552 0.89153 0.33782 0.0
N1619 N 0.72629 0.81391 0.49603 0.0
C1620 C 0.7033 0.86679 0.37347 0.0
C1621 C 0.71827 0.82817 0.4553 0.0
N1622 N 0.63951 0.88478 0.40026 0.0
N1623 N 0.78006 0.79878 0.42538 0.0
H1624 H 0.70651 0.81553 0.52195 0.0
H1625 H 0.75219 0.8037 0.50498 0.0
H1626 H 0.80109 0.79571 0.40164 0.0
H1627 H 0.78642 0.78 0.45251 0.0
H1628 H 0.63138 0.89449 0.36971 0.0
H1629 H 0.61835 0.88829 0.42489 0.0
H1630 H 0.67074 0.91293 0.33518 0.0
H1631 H 0.71471 0.89361 0.31254 0.0
C1632 C 0.34395 0.66561 0.419 0.0
C1633 C 0.31352 0.65455 0.42992 0.0
C1634 C 0.27483 0.72167 0.41622 0.0
C1635 C 0.30511 0.73184 0.39893 0.0
N1636 N 0.36851 0.71518 0.40178 0.0
N1637 N 0.24945 0.67236 0.43418 0.0
C1638 C 0.33972 0.70413 0.40524 0.0
C1639 C 0.2788 0.68281 0.42774 0.0
N1640 N 0.37737 0.63907 0.42196 0.0
N1641 N 0.24228 0.74943 0.42415 0.0
H1642 H 0.25136 0.64439 0.43957 0.0
H1643 H 0.22357 0.69093 0.43016 0.0
H1644 H 0.23835 0.77786 0.41683 0.0
H1645 H 0.22003 0.74452 0.44141 0.0
H1646 H 0.40092 0.64284 0.40745 0.0
H1647 H 0.38156 0.61251 0.43799 0.0
H1648 H 0.39353 0.69824 0.411 0.0
H1649 H 0.36665 0.74257 0.39264 0.0
C1650 C 0.44562 0.32704 0.40622 0.0
C1651 C 0.4494 0.30255 0.44483 0.0
C1652 C 0.40599 0.27844 0.42277 0.0
C1653 C 0.39897 0.3053 0.38653 0.0
N1654 N 0.4265 0.34161 0.33457 0.0
N1655 N 0.42554 0.26154 0.49392 0.0
C1656 C 0.42243 0.32641 0.37578 0.0
C1657 C 0.42734 0.28024 0.45408 0.0
N1658 N 0.46456 0.35066 0.39808 0.0
N1659 N 0.3961 0.24796 0.42449 0.0
H1660 H 0.43904 0.26362 0.51859 0.0
H1661 H 0.40743 0.2477 0.50383 0.0
H1662 H 0.3848 0.24317 0.39925 0.0
H1663 H 0.40344 0.22532 0.44774 0.0
H1664 H 0.45987 0.3726 0.37385 0.0
H1665 H 0.48313 0.3504 0.41775 0.0
H1666 H 0.44342 0.35658 0.32365 0.0
H1667 H 0.4189 0.33266 0.30936 0.0
C1668 C 0.69022 0.85982 0.65943 0.0
C1669 C 0.66812 0.8377 0.67347 0.0
C1670 C 0.68114 0.83719 0.74808 0.0
C1671 C 0.70767 0.85387 0.7331 0.0
N1672 N 0.71933 0.89937 0.67946 0.0
N1673 N 0.64593 0.80214 0.73218 0.0
C1674 C 0.70749 0.87008 0.68986 0.0
C1675 C 0.6643 0.82585 0.71815 0.0
N1676 N 0.69496 0.87125 0.61674 0.0
N1677 N 0.66864 0.83626 0.79077 0.0
H1678 H 0.63329 0.79312 0.71179 0.0
H1679 H 0.64599 0.78879 0.76323 0.0
H1680 H 0.67466 0.85106 0.8119 0.0
H1681 H 0.6477 0.82694 0.80357 0.0
H1682 H 0.7146 0.8824 0.6036 0.0
H1683 H 0.68047 0.86792 0.594 0.0
H1684 H 0.7177 0.9149 0.64963 0.0
H1685 H 0.72485 0.91204 0.70334 0.0
C1686 C 0.66167 0.30732 0.40723 0.0
C1687 C 0.66244 0.27976 0.44221 0.0
C1688 C 0.72828 0.26489 0.43939 0.0
C1689 C 0.72841 0.29127 0.4025 0.0
N1690 N 0.69326 0.33617 0.35061 0.0
N1691 N 0.69682 0.23011 0.48971 0.0
C1692 C 0.69439 0.31215 0.38653 0.0
C1693 C 0.69591 0.25805 0.45765 0.0
N1694 N 0.62917 0.32922 0.39377 0.0
N1695 N 0.7595 0.246 0.4573 0.0
H1696 H 0.67362 0.22636 0.50578 0.0
H1697 H 0.72031 0.2095 0.49908 0.0
H1698 H 0.78432 0.24616 0.44248 0.0
H1699 H 0.76093 0.23084 0.48732 0.0
H1700 H 0.62489 0.35325 0.37257 0.0
H1701 H 0.60552 0.32446 0.40574 0.0
H1702 H 0.67108 0.34955 0.33378 0.0
H1703 H 0.71602 0.34021 0.3354 0.0
C1704 C 0.82702 0.68212 0.43949 0.0
C1705 C 0.85632 0.67039 0.46432 0.0
C1706 C 0.88449 0.70824 0.41139 0.0
C1707 C 0.85354 0.72278 0.38869 0.0
N1708 N 0.79225 0.72479 0.38749 0.0
N1709 N 0.91034 0.67744 0.47761 0.0
C1710 C 0.82427 0.71004 0.40419 0.0
C1711 C 0.88438 0.68486 0.45112 0.0
N1712 N 0.80097 0.66679 0.4496 0.0
N1713 N 0.91478 0.71527 0.39399 0.0
H1714 H 0.91054 0.66117 0.50694 0.0
H1715 H 0.92951 0.69017 0.4726 0.0
H1716 H 0.91647 0.73068 0.36438 0.0
H1717 H 0.93929 0.70266 0.40652 0.0
H1718 H 0.77885 0.67446 0.4324 0.0
H1719 H 0.80249 0.64524 0.47378 0.0
H1720 H 0.78541 0.74724 0.36399 0.0
H1721 H 0.78541 0.74724 0.36399 0.0
C1722 C 0.51485 0.8152 0.54133 0.0
C1723 C 0.5384 0.77708 0.54959 0.0
C1724 C 0.49628 0.75618 0.51987 0.0
C1725 C 0.47157 0.79347 0.5164 0.0
N1726 N 0.46235 0.8591 0.5085 0.0
N1727 N 0.55888 0.71722 0.51928 0.0
C1728 C 0.48254 0.8232 0.52235 0.0
C1729 C 0.53137 0.74935 0.53026 0.0
N1730 N 0.52354 0.84404 0.54965 0.0
N1731 N 0.48619 0.72696 0.51476 0.0
H1732 H 0.58557 0.71325 0.52171 0.0
H1733 H 0.55575 0.69739 0.50232 0.0
H1734 H 0.46086 0.73074 0.50687 0.0
H1735 H 0.50223 0.69899 0.52149 0.0
H1736 H 0.506 0.87174 0.55066 0.0
H1737 H 0.54894 0.83973 0.55553 0.0
H1738 H 0.46989 0.88231 0.50758 0.0
H1739 H 0.43913 0.86537 0.49377 0.0
C1740 C 0.23879 0.46897 0.42122 0.0
C1741 C 0.26717 0.45999 0.44724 0.0
C1742 C 0.30492 0.41143 0.39935 0.0
C1743 C 0.27532 0.41583 0.37737 0.0
N1744 N 0.21797 0.45819 0.35726 0.0
N1745 N 0.32659 0.41902 0.46323 0.0
C1746 C 0.2433 0.44752 0.38529 0.0
C1747 C 0.29979 0.42991 0.43717 0.0
N1748 N 0.20687 0.49667 0.43237 0.0
N1749 N 0.33886 0.39473 0.38022 0.0
H1750 H 0.32568 0.43319 0.48951 0.0
H1751 H 0.34881 0.39426 0.4601 0.0
H1752 H 0.34358 0.38816 0.34845 0.0
H1753 H 0.36168 0.39399 0.39246 0.0
H1754 H 0.18355 0.50213 0.41839 0.0
H1755 H 0.20308 0.51291 0.45788 0.0
H1756 H 0.19585 0.48307 0.35795 0.0
H1757 H 0.22001 0.44297 0.33143 0.0
C1758 C 0.44363 0.23262 0.69755 0.0
C1759 C 0.45043 0.26466 0.67591 0.0
C1760 C 0.40658 0.30208 0.73226 0.0
C1761 C 0.4014 0.26922 0.75494 0.0
N1762 N 0.43325 0.20294 0.76807 0.0
N1763 N 0.44529 0.32829 0.68191 0.0
C1764 C 0.42497 0.23428 0.74009 0.0
C1765 C 0.43347 0.29918 0.69554 0.0
N1766 N 0.45512 0.20017 0.67777 0.0
N1767 N 0.38774 0.3361 0.74744 0.0
H1768 H 0.4661 0.3267 0.6575 0.0
H1769 H 0.43758 0.35255 0.69779 0.0
H1770 H 0.37197 0.33889 0.77678 0.0
H1771 H 0.38746 0.36135 0.73055 0.0
H1772 H 0.44926 0.1766 0.69166 0.0
H1773 H 0.46693 0.19846 0.6459 0.0
H1774 H 0.45245 0.17728 0.75958 0.0
H1775 H 0.42506 0.20432 0.80098 0.0
C1776 C 0.81002 0.46743 0.7479 0.0
C1777 C 0.83268 0.46615 0.70854 0.0
C1778 C 0.84201 0.39889 0.70869 0.0
C1779 C 0.81845 0.39992 0.74784 0.0
N1780 N 0.77297 0.43918 0.79747 0.0
N1781 N 0.86463 0.43274 0.64728 0.0
C1782 C 0.80044 0.43541 0.76537 0.0
C1783 C 0.84702 0.43241 0.68785 0.0
N1784 N 0.79844 0.49908 0.76932 0.0
N1785 N 0.86116 0.36524 0.69224 0.0
H1786 H 0.86915 0.45652 0.63163 0.0
H1787 H 0.87202 0.41076 0.62771 0.0
H1788 H 0.85838 0.34033 0.7062 0.0
H1789 H 0.88198 0.36137 0.66729 0.0
H1790 H 0.78502 0.50085 0.80037 0.0
H1791 H 0.80501 0.52264 0.75727 0.0
H1792 H 0.75634 0.46474 0.80903 0.0
H1793 H 0.76491 0.41691 0.80979 0.0
C1794 C 0.30108 0.62729 0.59046 0.0
C1795 C 0.27494 0.60993 0.60343 0.0
C1796 C 0.23777 0.66286 0.64555 0.0
C1797 C 0.26357 0.68031 0.63203 0.0
N1798 N 0.32174 0.67791 0.59656 0.0
N1799 N 0.22252 0.60681 0.64935 0.0
C1800 C 0.29585 0.66205 0.60608 0.0
C1801 C 0.24432 0.62657 0.6326 0.0
N1802 N 0.33037 0.61132 0.56177 0.0
N1803 N 0.20692 0.68128 0.67052 0.0
H1804 H 0.22664 0.58027 0.64037 0.0
H1805 H 0.20191 0.61525 0.67424 0.0
H1806 H 0.2024 0.70674 0.6827 0.0
H1807 H 0.18519 0.6723 0.67792 0.0
H1808 H 0.34722 0.62507 0.54587 0.0
H1809 H 0.33702 0.58497 0.55095 0.0
H1810 H 0.34795 0.66378 0.58368 0.0
H1811 H 0.31799 0.70486 0.60371 0.0
loop_
_geom_bond_atom_site_label_1
_geom_bond_atom_site_label_2
_geom_bond_distance
_geom_bond_site_symmetry_2
_ccdc_geom_bond_type
Cu0 N1 1.999 . S
Cu0 O6 1.974 . S
Cu0 N11 1.985 . S
Cu0 O20 1.959 1_455 S
N1 Cu0 1.999 . S
N1 C3 1.263 . S
N1 C5 1.389 . S
N2 C3 1.358 . S
N2 C4 1.400 . S
C3 N1 1.263 . S
C3 N2 1.358 . S
C3 H9 0.930 . S
C4 N2 1.400 . S
C4 C5 1.351 . S
C4 H21 0.930 . S
C5 N1 1.389 . S
C5 C4 1.351 . S
C5 H10 0.930 . S
O6 Cu0 1.974 . S
O6 C16 1.282 1_545 S
C7 O8 1.246 1_655 S
C7 O20 1.251 . S
O8 C7 1.246 1_455 S
H9 C3 0.930 . S
H10 C5 0.930 . S
N11 Cu0 1.985 . S
N11 C13 1.335 1_455 S
N11 C14 1.390 1_545 S
N12 C13 1.345 1_565 S
N12 C15 1.336 1_655 S
C13 N11 1.335 1_655 S
C13 N12 1.345 1_545 S
C13 H18 0.930 . S
C14 N11 1.390 1_565 S
C14 C15 1.346 . S
C14 H19 0.930 . S
C15 N12 1.336 1_455 S
C15 C14 1.346 . S
C15 H22 0.929 . S
C16 O6 1.282 1_565 S
C16 O17 1.216 1_565 S
O17 C16 1.216 1_545 S
H18 C13 0.930 . S
H19 C14 0.930 . S
O20 Cu0 1.959 1_655 S
O20 C7 1.251 . S
H21 C4 0.930 . S
H22 C15 0.929 . S
Cu23 N24 1.999 . S
Cu23 O29 1.974 1_455 S
Cu23 N34 1.985 . S
Cu23 O43 1.959 . S
N24 Cu23 1.999 . S
N24 C26 1.263 1_455 S
N24 C28 1.389 1_545 S
N25 C26 1.358 . S
N25 C27 1.400 1_545 S
C26 N24 1.263 1_655 S
C26 N25 1.358 . S
C26 H32 0.930 . S
C27 N25 1.400 1_565 S
C27 C28 1.351 1_655 S
C27 H44 0.930 . S
C28 N24 1.389 1_565 S
C28 C27 1.351 1_455 S
C28 H33 0.930 . S
O29 Cu23 1.974 1_655 S
O29 C39 1.282 . S
C30 O31 1.261 . S
C30 O43 1.251 . S
O31 C30 1.261 . S
H32 C26 0.930 . S
H33 C28 0.930 . S
N34 Cu23 1.985 . S
N34 C36 1.335 . S
N34 C37 1.390 . S
N35 C36 1.345 . S
N35 C38 1.336 . S
C36 N34 1.335 . S
C36 N35 1.345 . S
C36 H41 0.930 . S
C37 N34 1.390 . S
C37 C38 1.346 . S
C37 H42 0.930 . S
C38 N35 1.336 . S
C38 C37 1.346 . S
C38 H45 0.929 . S
C39 O29 1.282 . S
C39 O40 1.216 . S
O40 C39 1.216 . S
H41 C36 0.930 . S
H42 C37 0.930 . S
O43 Cu23 1.959 . S
O43 C30 1.251 . S
H44 C27 0.930 . S
H45 C38 0.929 . S
Cu46 N47 1.999 . S
Cu46 O52 1.974 . S
Cu46 N57 1.985 . S
Cu46 O66 1.959 . S
N47 Cu46 1.999 . S
N47 C49 1.263 . S
N47 C51 1.389 . S
N48 C49 1.358 . S
N48 C50 1.400 . S
C49 N47 1.263 . S
C49 N48 1.358 . S
C49 H55 0.930 . S
C50 N48 1.400 . S
C50 C51 1.351 . S
C50 H67 0.930 1_554 S
C51 N47 1.389 . S
C51 C50 1.351 . S
C51 H56 0.930 . S
O52 Cu46 1.974 . S
O52 C62 1.282 . S
C53 O54 1.261 . S
C53 O66 1.251 . S
O54 C53 1.261 . S
H55 C49 0.930 . S
H56 C51 0.930 . S
N57 Cu46 1.985 . S
N57 C59 1.335 . S
N57 C60 1.390 . S
N58 C59 1.345 . S
N58 C61 1.336 . S
C59 N57 1.335 . S
C59 N58 1.345 . S
C59 H64 0.930 . S
C60 N57 1.390 . S
C60 C61 1.346 . S
C60 H65 0.930 . S
C61 N58 1.336 . S
C61 C60 1.346 . S
C61 H68 0.929 . S
C62 O52 1.282 . S
C62 O63 1.216 . S
O63 C62 1.216 . S
H64 C59 0.930 . S
H65 C60 0.930 . S
O66 Cu46 1.959 . S
O66 C53 1.251 . S
H67 C50 0.930 1_556 S
H68 C61 0.929 . S
Cu69 N70 1.999 . S
Cu69 O75 1.974 . S
Cu69 N80 1.985 . S
Cu69 O89 1.959 . S
N70 Cu69 1.999 . S
N70 C72 1.263 . S
N70 C74 1.389 . S
N71 C72 1.358 . S
N71 C73 1.400 1_554 S
C72 N70 1.263 . S
C72 N71 1.358 . S
C72 H78 0.930 . S
C73 N71 1.400 1_556 S
C73 C74 1.351 1_556 S
C73 H90 0.930 . S
C74 N70 1.389 . S
C74 C73 1.351 1_554 S
C74 H79 0.930 1_554 S
O75 Cu69 1.974 . S
O75 C85 1.282 . S
C76 O77 1.261 . S
C76 O89 1.251 . S
O77 C76 1.261 . S
H78 C72 0.930 . S
H79 C74 0.930 1_556 S
N80 Cu69 1.985 . S
N80 C82 1.335 . S
N80 C83 1.390 . S
N81 C82 1.345 1_655 S
N81 C84 1.336 1_655 S
C82 N80 1.335 . S
C82 N81 1.345 1_455 S
C82 H87 0.930 1_455 S
C83 N80 1.390 . S
C83 C84 1.346 . S
C83 H88 0.930 . S
C84 N81 1.336 1_455 S
C84 C83 1.346 . S
C84 H91 0.929 . S
C85 O75 1.282 . S
C85 O86 1.216 . S
O86 C85 1.216 . S
H87 C82 0.930 1_655 S
H88 C83 0.930 . S
O89 Cu69 1.959 . S
O89 C76 1.251 . S
H90 C73 0.930 . S
H91 C84 0.929 . S
Cu92 N93 1.999 1_554 S
Cu92 O98 1.974 . S
Cu92 N103 1.985 1_545 S
Cu92 O112 1.959 1_544 S
N93 Cu92 1.999 1_556 S
N93 C95 1.263 . S
N93 C97 1.389 . S
N94 C95 1.358 . S
N94 C96 1.400 . S
C95 N93 1.263 . S
C95 N94 1.358 . S
C95 H101 0.930 . S
C96 N94 1.400 . S
C96 C97 1.351 . S
C96 H113 0.930 . S
C97 N93 1.389 . S
C97 C96 1.351 . S
C97 H102 0.930 . S
O98 Cu92 1.974 . S
O98 C108 1.282 . S
C99 O100 1.261 . S
C99 O112 1.251 . S
O100 C99 1.261 . S
H101 C95 0.930 . S
H102 C97 0.930 . S
N103 Cu92 1.985 1_565 S
N103 C105 1.335 . S
N103 C106 1.390 . S
N104 C105 1.345 . S
N104 C107 1.336 . S
C105 N103 1.335 . S
C105 N104 1.345 . S
C105 H110 0.930 . S
C106 N103 1.390 . S
C106 C107 1.346 . S
C106 H111 0.930 . S
C107 N104 1.336 . S
C107 C106 1.346 . S
C107 H114 0.929 . S
C108 O98 1.282 . S
C108 O109 1.216 . S
O109 C108 1.216 . S
H110 C105 0.930 . S
H111 C106 0.930 . S
O112 Cu92 1.959 1_566 S
O112 C99 1.251 . S
H113 C96 0.930 . S
H114 C107 0.929 . S
Cu115 N116 1.999 1_454 S
Cu115 O121 1.974 1_455 S
Cu115 N126 1.985 . S
Cu115 O135 1.959 1_554 S
N116 Cu115 1.999 1_656 S
N116 C118 1.263 . S
N116 C120 1.389 . S
N117 C118 1.358 . S
N117 C119 1.400 . S
C118 N116 1.263 . S
C118 N117 1.358 . S
C118 H124 0.930 . S
C119 N117 1.400 . S
C119 C120 1.351 . S
C119 H136 0.930 . S
C120 N116 1.389 . S
C120 C119 1.351 . S
C120 H125 0.930 1_655 S
O121 Cu115 1.974 1_655 S
O121 C131 1.282 . S
C122 O123 1.261 . S
C122 O135 1.251 . S
O123 C122 1.261 . S
H124 C118 0.930 . S
H125 C120 0.930 1_455 S
N126 Cu115 1.985 . S
N126 C128 1.335 . S
N126 C129 1.390 . S
N127 C128 1.345 . S
N127 C130 1.336 . S
C128 N126 1.335 . S
C128 N127 1.345 . S
C128 H133 0.930 . S
C129 N126 1.390 . S
C129 C130 1.346 . S
C129 H134 0.930 1_455 S
C130 N127 1.336 . S
C130 C129 1.346 . S
C130 H137 0.929 . S
C131 O121 1.282 . S
C131 O132 1.216 . S
O132 C131 1.216 . S
H133 C128 0.930 . S
H134 C129 0.930 1_655 S
O135 Cu115 1.959 1_556 S
O135 C122 1.251 . S
H136 C119 0.930 . S
H137 C130 0.929 . S
Cu138 N139 1.999 . S
Cu138 O144 1.974 . S
Cu138 N149 1.985 . S
Cu138 O158 1.959 . S
N139 Cu138 1.999 . S
N139 C141 1.263 . S
N139 C143 1.389 . S
N140 C141 1.358 . S
N140 C142 1.400 . S
C141 N139 1.263 . S
C141 N140 1.358 . S
C141 H147 0.930 . S
C142 N140 1.400 . S
C142 C143 1.351 . S
C142 H159 0.930 . S
C143 N139 1.389 . S
C143 C142 1.351 . S
C143 H148 0.930 . S
O144 Cu138 1.974 . S
O144 C154 1.282 . S
C145 O146 1.261 . S
C145 O158 1.251 . S
O146 C145 1.261 . S
H147 C141 0.930 . S
H148 C143 0.930 . S
N149 Cu138 1.985 . S
N149 C151 1.335 . S
N149 C152 1.390 . S
N150 C151 1.345 . S
N150 C153 1.336 . S
C151 N149 1.335 . S
C151 N150 1.345 . S
C151 H156 0.930 . S
C152 N149 1.390 . S
C152 C153 1.346 . S
C152 H157 0.930 . S
C153 N150 1.336 . S
C153 C152 1.346 . S
C153 H160 0.929 . S
C154 O144 1.282 . S
C154 O155 1.216 . S
O155 C154 1.216 . S
H156 C151 0.930 . S
H157 C152 0.930 . S
O158 Cu138 1.959 . S
O158 C145 1.251 . S
H159 C142 0.930 . S
H160 C153 0.929 . S
Cu161 N162 1.999 . S
Cu161 O167 1.974 . S
Cu161 N172 1.985 . S
Cu161 O181 1.959 . S
N162 Cu161 1.999 . S
N162 C164 1.263 . S
N162 C166 1.389 . S
N163 C164 1.358 . S
N163 C165 1.400 . S
C164 N162 1.263 . S
C164 N163 1.358 . S
C164 H170 0.930 . S
C165 N163 1.400 . S
C165 C166 1.351 . S
C165 H182 0.930 . S
C166 N162 1.389 . S
C166 C165 1.351 . S
C166 H171 0.930 . S
O167 Cu161 1.974 . S
O167 C177 1.282 . S
C168 O169 1.261 . S
C168 O181 1.251 . S
O169 C168 1.261 . S
H170 C164 0.930 . S
H171 C166 0.930 . S
N172 Cu161 1.985 . S
N172 C174 1.335 . S
N172 C175 1.390 . S
N173 C174 1.345 . S
N173 C176 1.336 . S
C174 N172 1.335 . S
C174 N173 1.345 . S
C174 H179 0.930 . S
C175 N172 1.390 . S
C175 C176 1.346 . S
C175 H180 0.930 . S
C176 N173 1.336 . S
C176 C175 1.346 . S
C176 H183 0.929 . S
C177 O167 1.282 . S
C177 O178 1.216 . S
O178 C177 1.216 . S
H179 C174 0.930 . S
H180 C175 0.930 . S
O181 Cu161 1.959 . S
O181 C168 1.251 . S
H182 C165 0.930 . S
H183 C176 0.929 . S
Cu184 N185 1.999 . S
Cu184 O190 1.974 . S
Cu184 N195 1.985 . S
Cu184 O204 1.959 . S
N185 Cu184 1.999 . S
N185 C187 1.263 . S
N185 C189 1.389 . S
N186 C187 1.358 . S
N186 C188 1.400 . S
C187 N185 1.263 . S
C187 N186 1.358 . S
C187 H193 0.930 . S
C188 N186 1.400 . S
C188 C189 1.351 . S
C188 H205 0.930 . S
C189 N185 1.389 . S
C189 C188 1.351 . S
C189 H194 0.930 . S
O190 Cu184 1.974 . S
O190 C200 1.282 . S
C191 O192 1.261 . S
C191 O204 1.251 . S
O192 C191 1.261 . S
H193 C187 0.930 . S
H194 C189 0.930 . S
N195 Cu184 1.985 . S
N195 C197 1.335 . S
N195 C198 1.390 . S
N196 C197 1.345 . S
N196 C199 1.336 . S
C197 N195 1.335 . S
C197 N196 1.345 . S
C197 H202 0.930 . S
C198 N195 1.390 . S
C198 C199 1.346 . S
C198 H203 0.930 . S
C199 N196 1.336 . S
C199 C198 1.346 . S
C199 H206 0.929 . S
C200 O190 1.282 . S
C200 O201 1.216 . S
O201 C200 1.216 . S
H202 C197 0.930 . S
H203 C198 0.930 . S
O204 Cu184 1.959 . S
O204 C191 1.251 . S
H205 C188 0.930 . S
H206 C199 0.929 . S
Cu207 N208 1.999 . S
Cu207 O213 1.974 . S
Cu207 N218 1.985 . S
Cu207 O227 1.959 . S
N208 Cu207 1.999 . S
N208 C210 1.263 . S
N208 C212 1.389 . S
N209 C210 1.358 . S
N209 C211 1.400 . S
C210 N208 1.263 . S
C210 N209 1.358 . S
C210 H216 0.930 . S
C211 N209 1.400 . S
C211 C212 1.351 . S
C211 H228 0.930 . S
C212 N208 1.389 . S
C212 C211 1.351 . S
C212 H217 0.930 . S
O213 Cu207 1.974 . S
O213 C223 1.282 . S
C214 O215 1.261 . S
C214 O227 1.251 . S
O215 C214 1.261 . S
H216 C210 0.930 . S
H217 C212 0.930 . S
N218 Cu207 1.985 . S
N218 C220 1.335 . S
N218 C221 1.390 . S
N219 C220 1.345 . S
N219 C222 1.336 . S
C220 N218 1.335 . S
C220 N219 1.345 . S
C220 H225 0.930 . S
C221 N218 1.390 . S
C221 C222 1.346 . S
C221 H226 0.930 . S
C222 N219 1.336 . S
C222 C221 1.346 . S
C222 H229 0.929 . S
C223 O213 1.282 . S
C223 O224 1.216 . S
O224 C223 1.216 . S
H225 C220 0.930 . S
H226 C221 0.930 . S
O227 Cu207 1.959 . S
O227 C214 1.251 . S
H228 C211 0.930 . S
H229 C222 0.929 . S
Cu230 N231 1.999 . S
Cu230 O236 1.974 . S
Cu230 N241 1.985 . S
Cu230 O250 1.959 . S
N231 Cu230 1.999 . S
N231 C233 1.263 . S
N231 C235 1.389 . S
N232 C233 1.358 . S
N232 C234 1.400 . S
C233 N231 1.263 . S
C233 N232 1.358 . S
C233 H239 0.930 . S
C234 N232 1.400 . S
C234 C235 1.351 . S
C234 H251 0.930 . S
C235 N231 1.389 . S
C235 C234 1.351 . S
C235 H240 0.930 . S
O236 Cu230 1.974 . S
O236 C246 1.282 . S
C237 O238 1.261 . S
C237 O250 1.251 . S
O238 C237 1.261 . S
H239 C233 0.930 . S
H240 C235 0.930 . S
N241 Cu230 1.985 . S
N241 C243 1.335 . S
N241 C244 1.390 . S
N242 C243 1.345 . S
N242 C245 1.336 . S
C243 N241 1.335 . S
C243 N242 1.345 . S
C243 H248 0.930 . S
C244 N241 1.390 . S
C244 C245 1.346 . S
C244 H249 0.930 . S
C245 N242 1.336 . S
C245 C244 1.346 . S
C245 H252 0.929 . S
C246 O236 1.282 . S
C246 O247 1.216 . S
O247 C246 1.216 . S
H248 C243 0.930 . S
H249 C244 0.930 . S
O250 Cu230 1.959 . S
O250 C237 1.251 . S
H251 C234 0.930 . S
H252 C245 0.929 . S
Cu253 N254 1.999 . S
Cu253 O259 1.974 . S
Cu253 N264 1.985 . S
Cu253 O273 1.959 . S
N254 Cu253 1.999 . S
N254 C256 1.263 . S
N254 C258 1.389 . S
N255 C256 1.358 . S
N255 C257 1.400 . S
C256 N254 1.263 . S
C256 N255 1.358 . S
C256 H262 0.930 . S
C257 N255 1.400 . S
C257 C258 1.351 . S
C257 H274 0.930 . S
C258 N254 1.389 . S
C258 C257 1.351 . S
C258 H263 0.930 . S
O259 Cu253 1.974 . S
O259 C269 1.282 . S
C260 O261 1.261 . S
C260 O273 1.251 . S
O261 C260 1.261 . S
H262 C256 0.930 . S
H263 C258 0.930 . S
N264 Cu253 1.985 . S
N264 C266 1.335 . S
N264 C267 1.390 . S
N265 C266 1.345 . S
N265 C268 1.336 . S
C266 N264 1.335 . S
C266 N265 1.345 . S
C266 H271 0.930 . S
C267 N264 1.390 . S
C267 C268 1.346 . S
C267 H272 0.930 . S
C268 N265 1.336 . S
C268 C267 1.346 . S
C268 H275 0.929 . S
C269 O259 1.282 . S
C269 O270 1.216 . S
O270 C269 1.216 . S
H271 C266 0.930 . S
H272 C267 0.930 . S
O273 Cu253 1.959 . S
O273 C260 1.251 . S
H274 C257 0.930 . S
H275 C268 0.929 . S
Tb276 N307 2.660 . S
Tb276 N314 2.600 . S
Tb276 O320 2.546 . S
Tb276 O321 2.610 . S
Tb276 O323 2.320 . S
Tb276 O324 2.552 . S
Tb276 O325 2.413 . S
Tb276 O327 2.362 . S
Tb276 O328 2.421 . S
Tb276 C340 2.833 . S
C277 C280 1.432 . S
C277 C281 1.414 . S
C277 N284 1.359 . S
C278 C280 1.417 . S
C278 C282 1.432 . S
C278 C290 1.410 . S
C279 C281 1.444 . S
C279 C282 1.317 . S
C279 H302 0.929 . S
C280 C277 1.432 . S
C280 C278 1.417 . S
C280 N288 1.360 . S
C281 C277 1.414 . S
C281 C279 1.444 . S
C281 C286 1.385 . S
C282 C278 1.432 . S
C282 C279 1.317 . S
C282 H294 0.930 . S
C283 C285 1.392 . S
C283 C286 1.370 . S
C283 H295 0.931 . S
N284 C277 1.359 . S
N284 C285 1.327 . S
N284 Tb287 2.600 . S
C285 C283 1.392 . S
C285 N284 1.327 . S
C285 H292 0.930 . S
C286 C281 1.385 . S
C286 C283 1.370 . S
C286 H305 0.930 . S
Tb287 N284 2.600 . S
Tb287 N288 2.660 . S
Tb287 O321 2.362 . S
Tb287 O322 2.421 . S
Tb287 O326 2.546 . S
Tb287 O327 2.610 . S
Tb287 O329 2.320 . S
Tb287 O330 2.552 . S
Tb287 O331 2.413 . S
Tb287 C351 2.833 . S
N288 C280 1.360 . S
N288 Tb287 2.660 . S
N288 C289 1.305 . S
C289 N288 1.305 . S
C289 C291 1.407 . S
C289 H296 0.930 . S
C290 C278 1.410 . S
C290 C291 1.345 . S
C290 H298 0.930 . S
C291 C289 1.407 . S
C291 C290 1.345 . S
C291 H293 0.930 . S
H292 C285 0.930 . S
H293 C291 0.930 . S
H294 C282 0.930 . S
H295 C283 0.931 . S
H296 C289 0.930 . S
H297 C311 0.930 . S
H298 C290 0.930 . S
H299 C317 0.930 . S
H300 C308 0.930 . S
H301 C315 0.931 . S
H302 C279 0.929 . S
H303 C309 0.930 . S
H304 C342 0.930 . S
H305 C286 0.930 . S
H306 C341 0.929 . S
N307 Tb276 2.660 . S
N307 C308 1.305 . S
N307 C312 1.360 . S
C308 H300 0.930 . S
C308 N307 1.305 . S
C308 C311 1.407 . S
C309 H303 0.930 . S
C309 C310 1.410 . S
C309 C311 1.345 . S
C310 C309 1.410 . S
C310 C312 1.417 . S
C310 C342 1.432 . S
C311 H297 0.930 . S
C311 C308 1.407 . S
C311 C309 1.345 . S
C312 N307 1.360 . S
C312 C310 1.417 . S
C312 C316 1.432 . S
H313 C318 0.930 . S
N314 Tb276 2.600 . S
N314 C316 1.359 . S
N314 C317 1.327 . S
C315 H301 0.931 . S
C315 C317 1.392 . S
C315 C318 1.370 . S
C316 C312 1.432 . S
C316 N314 1.359 . S
C316 C319 1.414 . S
C317 H299 0.930 . S
C317 N314 1.327 . S
C317 C315 1.392 . S
C318 H313 0.930 . S
C318 C315 1.370 . S
C318 C319 1.385 . S
C319 C316 1.414 . S
C319 C318 1.385 . S
C319 C341 1.444 . S
O320 Tb276 2.546 . S
O320 C340 1.251 . S
O321 Tb276 2.610 . S
O321 Tb287 2.362 . S
O321 C332 1.283 . S
O322 Tb287 2.421 . S
O322 C339 1.262 . S
O323 Tb276 2.320 . S
O323 C339 1.260 . S
O324 Tb276 2.552 . S
O324 C332 1.243 . S
O325 Tb276 2.413 . S
O325 C340 1.256 . S
O326 Tb287 2.546 . S
O326 C351 1.251 . S
O327 Tb276 2.362 . S
O327 Tb287 2.610 . S
O327 C343 1.283 . S
O328 Tb276 2.421 . S
O328 C350 1.262 . S
O329 Tb287 2.320 . S
O329 C350 1.260 . S
O330 Tb287 2.552 . S
O330 C343 1.243 . S
O331 Tb287 2.413 . S
O331 C351 1.256 . S
C332 O321 1.283 . S
C332 O324 1.243 . S
C333 C335 1.382 . S
C333 C337 1.393 . S
C333 C340 1.500 . S
C334 C335 1.400 . S
C334 C336 1.384 . S
C335 C333 1.382 . S
C335 C334 1.400 . S
C335 H352 0.930 . S
C336 C334 1.384 . S
C336 C338 1.392 . S
C336 H353 0.931 . S
C337 C333 1.393 . S
C337 C338 1.401 . S
C337 H354 0.930 . S
C338 C336 1.392 . S
C338 C337 1.401 . S
C338 H355 0.930 . S
C339 O322 1.262 . S
C339 O323 1.260 . S
C340 Tb276 2.833 . S
C340 O320 1.251 . S
C340 O325 1.256 . S
C340 C333 1.500 . S
C341 H306 0.929 . S
C341 C319 1.444 . S
C341 C342 1.317 . S
C342 H304 0.930 . S
C342 C310 1.432 . S
C342 C341 1.317 . S
C343 O327 1.283 . S
C343 O330 1.243 . S
C344 C345 1.382 . S
C344 C348 1.393 . S
C344 C351 1.500 . S
C345 C344 1.382 . S
C345 C346 1.400 . S
C345 H356 0.930 . S
C346 C345 1.400 . S
C346 C347 1.384 . S
C347 C346 1.384 . S
C347 C349 1.392 . S
C347 H357 0.931 . S
C348 C344 1.393 . S
C348 C349 1.401 . S
C348 H358 0.930 . S
C349 C347 1.392 . S
C349 C348 1.401 . S
C349 H359 0.930 . S
C350 O328 1.262 . S
C350 O329 1.260 . S
C351 Tb287 2.833 . S
C351 O326 1.251 . S
C351 O331 1.256 . S
C351 C344 1.500 . S
H352 C335 0.930 . S
H353 C336 0.931 . S
H354 C337 0.930 . S
H355 C338 0.930 . S
H356 C345 0.930 . S
H357 C347 0.931 . S
H358 C348 0.930 . S
H359 C349 0.930 . S
Tb360 N391 2.660 . S
Tb360 N398 2.600 . S
Tb360 O404 2.546 . S
Tb360 O405 2.610 . S
Tb360 O407 2.320 . S
Tb360 O408 2.552 . S
Tb360 O409 2.413 . S
Tb360 O411 2.362 . S
Tb360 O412 2.421 . S
Tb360 C424 2.833 . S
C361 C364 1.432 . S
C361 C365 1.414 . S
C361 N368 1.359 . S
C362 C364 1.417 . S
C362 C366 1.432 . S
C362 C374 1.410 . S
C363 C365 1.444 . S
C363 C366 1.317 . S
C363 H386 0.929 . S
C364 C361 1.432 . S
C364 C362 1.417 . S
C364 N372 1.360 . S
C365 C361 1.414 . S
C365 C363 1.444 . S
C365 C370 1.385 . S
C366 C362 1.432 . S
C366 C363 1.317 . S
C366 H378 0.930 . S
C367 C369 1.392 . S
C367 C370 1.370 . S
C367 H379 0.931 . S
N368 C361 1.359 . S
N368 C369 1.327 . S
N368 Tb371 2.600 . S
C369 C367 1.392 . S
C369 N368 1.327 . S
C369 H376 0.930 . S
C370 C365 1.385 . S
C370 C367 1.370 . S
C370 H389 0.930 . S
Tb371 N368 2.600 . S
Tb371 N372 2.660 . S
Tb371 O405 2.362 . S
Tb371 O406 2.421 . S
Tb371 O410 2.546 . S
Tb371 O411 2.610 . S
Tb371 O413 2.320 . S
Tb371 O414 2.552 . S
Tb371 O415 2.413 . S
Tb371 C435 2.833 . S
N372 C364 1.360 . S
N372 Tb371 2.660 . S
N372 C373 1.305 . S
C373 N372 1.305 . S
C373 C375 1.407 . S
C373 H380 0.930 . S
C374 C362 1.410 . S
C374 C375 1.345 . S
C374 H382 0.930 . S
C375 C373 1.407 . S
C375 C374 1.345 . S
C375 H377 0.930 . S
H376 C369 0.930 . S
H377 C375 0.930 . S
H378 C366 0.930 . S
H379 C367 0.931 . S
H380 C373 0.930 . S
H381 C395 0.930 . S
H382 C374 0.930 . S
H383 C401 0.930 . S
H384 C392 0.930 . S
H385 C399 0.931 . S
H386 C363 0.929 . S
H387 C393 0.930 . S
H388 C426 0.930 . S
H389 C370 0.930 . S
H390 C425 0.929 . S
N391 Tb360 2.660 . S
N391 C392 1.305 . S
N391 C396 1.360 . S
C392 H384 0.930 . S
C392 N391 1.305 . S
C392 C395 1.407 . S
C393 H387 0.930 . S
C393 C394 1.410 . S
C393 C395 1.345 . S
C394 C393 1.410 . S
C394 C396 1.417 . S
C394 C426 1.432 . S
C395 H381 0.930 . S
C395 C392 1.407 . S
C395 C393 1.345 . S
C396 N391 1.360 . S
C396 C394 1.417 . S
C396 C400 1.432 . S
H397 C402 0.930 . S
N398 Tb360 2.600 . S
N398 C400 1.359 . S
N398 C401 1.327 . S
C399 H385 0.931 . S
C399 C401 1.392 . S
C399 C402 1.370 . S
C400 C396 1.432 . S
C400 N398 1.359 . S
C400 C403 1.414 . S
C401 H383 0.930 . S
C401 N398 1.327 . S
C401 C399 1.392 . S
C402 H397 0.930 . S
C402 C399 1.370 . S
C402 C403 1.385 . S
C403 C400 1.414 . S
C403 C402 1.385 . S
C403 C425 1.444 . S
O404 Tb360 2.546 . S
O404 C424 1.251 . S
O405 Tb360 2.610 . S
O405 Tb371 2.362 . S
O405 C416 1.283 . S
O406 Tb371 2.421 . S
O406 C423 1.262 . S
O407 Tb360 2.320 . S
O407 C423 1.260 . S
O408 Tb360 2.552 . S
O408 C416 1.243 . S
O409 Tb360 2.413 . S
O409 C424 1.256 . S
O410 Tb371 2.546 . S
O410 C435 1.251 . S
O411 Tb360 2.362 . S
O411 Tb371 2.610 . S
O411 C427 1.283 . S
O412 Tb360 2.421 . S
O412 C434 1.262 . S
O413 Tb371 2.320 . S
O413 C434 1.260 . S
O414 Tb371 2.552 . S
O414 C427 1.243 . S
O415 Tb371 2.413 . S
O415 C435 1.256 . S
C416 O405 1.283 . S
C416 O408 1.243 . S
C417 C419 1.382 . S
C417 C421 1.393 . S
C417 C424 1.500 . S
C418 C419 1.400 . S
C418 C420 1.384 . S
C419 C417 1.382 . S
C419 C418 1.400 . S
C419 H436 0.930 . S
C420 C418 1.384 . S
C420 C422 1.392 . S
C420 H437 0.931 . S
C421 C417 1.393 . S
C421 C422 1.401 . S
C421 H438 0.930 . S
C422 C420 1.392 . S
C422 C421 1.401 . S
C422 H439 0.930 . S
C423 O406 1.262 . S
C423 O407 1.260 . S
C424 Tb360 2.833 . S
C424 O404 1.251 . S
C424 O409 1.256 . S
C424 C417 1.500 . S
C425 H390 0.929 . S
C425 C403 1.444 . S
C425 C426 1.317 . S
C426 H388 0.930 . S
C426 C394 1.432 . S
C426 C425 1.317 . S
C427 O411 1.283 . S
C427 O414 1.243 . S
C428 C429 1.382 . S
C428 C432 1.393 . S
C428 C435 1.500 . S
C429 C428 1.382 . S
C429 C430 1.400 . S
C429 H440 0.930 . S
C430 C429 1.400 . S
C430 C431 1.384 . S
C431 C430 1.384 . S
C431 C433 1.392 . S
C431 H441 0.931 . S
C432 C428 1.393 . S
C432 C433 1.401 . S
C432 H442 0.930 . S
C433 C431 1.392 . S
C433 C432 1.401 . S
C433 H443 0.930 . S
C434 O412 1.262 . S
C434 O413 1.260 . S
C435 Tb371 2.833 . S
C435 O410 1.251 . S
C435 O415 1.256 . S
C435 C428 1.500 . S
H436 C419 0.930 . S
H437 C420 0.931 . S
H438 C421 0.930 . S
H439 C422 0.930 . S
H440 C429 0.930 . S
H441 C431 0.931 . S
H442 C432 0.930 . S
H443 C433 0.930 . S
Tb444 N475 2.660 . S
Tb444 N482 2.600 . S
Tb444 O488 2.546 . S
Tb444 O489 2.610 . S
Tb444 O491 2.320 . S
Tb444 O492 2.552 . S
Tb444 O493 2.413 . S
Tb444 O495 2.362 . S
Tb444 O496 2.421 . S
Tb444 C508 2.833 . S
C445 C448 1.432 . S
C445 C449 1.414 . S
C445 N452 1.359 . S
C446 C448 1.417 . S
C446 C450 1.432 . S
C446 C458 1.410 . S
C447 C449 1.444 . S
C447 C450 1.317 . S
C447 H470 0.929 . S
C448 C445 1.432 . S
C448 C446 1.417 . S
C448 N456 1.360 . S
C449 C445 1.414 . S
C449 C447 1.444 . S
C449 C454 1.385 . S
C450 C446 1.432 . S
C450 C447 1.317 . S
C450 H462 0.930 . S
C451 C453 1.392 . S
C451 C454 1.370 . S
C451 H463 0.931 . S
N452 C445 1.359 . S
N452 C453 1.327 . S
N452 Tb455 2.600 . S
C453 C451 1.392 . S
C453 N452 1.327 . S
C453 H460 0.930 . S
C454 C449 1.385 . S
C454 C451 1.370 . S
C454 H473 0.930 . S
Tb455 N452 2.600 . S
Tb455 N456 2.660 . S
Tb455 O489 2.362 . S
Tb455 O490 2.421 . S
Tb455 O494 2.546 . S
Tb455 O495 2.610 . S
Tb455 O497 2.320 . S
Tb455 O498 2.552 . S
Tb455 O499 2.413 . S
Tb455 C519 2.833 . S
N456 C448 1.360 . S
N456 Tb455 2.660 . S
N456 C457 1.305 . S
C457 N456 1.305 . S
C457 C459 1.407 . S
C457 H464 0.930 . S
C458 C446 1.410 . S
C458 C459 1.345 . S
C458 H466 0.930 . S
C459 C457 1.407 . S
C459 C458 1.345 . S
C459 H461 0.930 . S
H460 C453 0.930 . S
H461 C459 0.930 . S
H462 C450 0.930 . S
H463 C451 0.931 . S
H464 C457 0.930 . S
H465 C479 0.930 . S
H466 C458 0.930 . S
H467 C485 0.930 . S
H468 C476 0.930 . S
H469 C483 0.931 . S
H470 C447 0.929 . S
H471 C477 0.930 . S
H472 C510 0.930 . S
H473 C454 0.930 . S
H474 C509 0.929 . S
N475 Tb444 2.660 . S
N475 C476 1.305 . S
N475 C480 1.360 . S
C476 H468 0.930 . S
C476 N475 1.305 . S
C476 C479 1.407 . S
C477 H471 0.930 . S
C477 C478 1.410 . S
C477 C479 1.345 . S
C478 C477 1.410 . S
C478 C480 1.417 . S
C478 C510 1.432 . S
C479 H465 0.930 . S
C479 C476 1.407 . S
C479 C477 1.345 . S
C480 N475 1.360 . S
C480 C478 1.417 . S
C480 C484 1.432 . S
H481 C486 0.930 . S
N482 Tb444 2.600 . S
N482 C484 1.359 . S
N482 C485 1.327 . S
C483 H469 0.931 . S
C483 C485 1.392 . S
C483 C486 1.370 . S
C484 C480 1.432 . S
C484 N482 1.359 . S
C484 C487 1.414 . S
C485 H467 0.930 . S
C485 N482 1.327 . S
C485 C483 1.392 . S
C486 H481 0.930 . S
C486 C483 1.370 . S
C486 C487 1.385 . S
C487 C484 1.414 . S
C487 C486 1.385 . S
C487 C509 1.444 . S
O488 Tb444 2.546 . S
O488 C508 1.251 . S
O489 Tb444 2.610 . S
O489 Tb455 2.362 . S
O489 C500 1.283 . S
O490 Tb455 2.421 . S
O490 C507 1.262 . S
O491 Tb444 2.320 . S
O491 C507 1.260 . S
O492 Tb444 2.552 . S
O492 C500 1.243 . S
O493 Tb444 2.413 . S
O493 C508 1.256 . S
O494 Tb455 2.546 . S
O494 C519 1.251 . S
O495 Tb444 2.362 . S
O495 Tb455 2.610 . S
O495 C511 1.283 . S
O496 Tb444 2.421 . S
O496 C518 1.262 . S
O497 Tb455 2.320 . S
O497 C518 1.260 . S
O498 Tb455 2.552 . S
O498 C511 1.243 . S
O499 Tb455 2.413 . S
O499 C519 1.256 . S
C500 O489 1.283 . S
C500 O492 1.243 . S
C501 C503 1.382 . S
C501 C505 1.393 . S
C501 C508 1.500 . S
C502 C503 1.400 . S
C502 C504 1.384 . S
C503 C501 1.382 . S
C503 C502 1.400 . S
C503 H520 0.930 . S
C504 C502 1.384 . S
C504 C506 1.392 . S
C504 H521 0.931 . S
C505 C501 1.393 . S
C505 C506 1.401 . S
C505 H522 0.930 . S
C506 C504 1.392 . S
C506 C505 1.401 . S
C506 H523 0.930 . S
C507 O490 1.262 . S
C507 O491 1.260 . S
C508 Tb444 2.833 . S
C508 O488 1.251 . S
C508 O493 1.256 . S
C508 C501 1.500 . S
C509 H474 0.929 . S
C509 C487 1.444 . S
C509 C510 1.317 . S
C510 H472 0.930 . S
C510 C478 1.432 . S
C510 C509 1.317 . S
C511 O495 1.283 . S
C511 O498 1.243 . S
C512 C513 1.382 . S
C512 C516 1.393 . S
C512 C519 1.500 . S
C513 C512 1.382 . S
C513 C514 1.400 . S
C513 H524 0.930 . S
C514 C513 1.400 . S
C514 C515 1.384 . S
C515 C514 1.384 . S
C515 C517 1.392 . S
C515 H525 0.931 . S
C516 C512 1.393 . S
C516 C517 1.401 . S
C516 H526 0.930 . S
C517 C515 1.392 . S
C517 C516 1.401 . S
C517 H527 0.930 . S
C518 O496 1.262 . S
C518 O497 1.260 . S
C519 Tb455 2.833 . S
C519 O494 1.251 . S
C519 O499 1.256 . S
C519 C512 1.500 . S
H520 C503 0.930 . S
H521 C504 0.931 . S
H522 C505 0.930 . S
H523 C506 0.930 . S
H524 C513 0.930 . S
H525 C515 0.931 . S
H526 C516 0.930 . S
H527 C517 0.930 . S
Tb528 N559 2.660 . S
Tb528 N566 2.600 . S
Tb528 O572 2.546 . S
Tb528 O573 2.610 . S
Tb528 O575 2.320 . S
Tb528 O576 2.552 . S
Tb528 O577 2.413 . S
Tb528 O579 2.362 . S
Tb528 O580 2.421 . S
Tb528 C592 2.833 . S
C529 C532 1.432 . S
C529 C533 1.414 . S
C529 N536 1.359 . S
C530 C532 1.417 . S
C530 C534 1.432 . S
C530 C542 1.410 . S
C531 C533 1.444 . S
C531 C534 1.317 . S
C531 H554 0.929 1_565 S
C532 C529 1.432 . S
C532 C530 1.417 . S
C532 N540 1.360 . S
C533 C529 1.414 . S
C533 C531 1.444 . S
C533 C538 1.385 . S
C534 C530 1.432 . S
C534 C531 1.317 . S
C534 H546 0.930 . S
C535 C537 1.392 . S
C535 C538 1.370 . S
C535 H547 0.931 . S
N536 C529 1.359 . S
N536 C537 1.327 . S
N536 Tb539 2.600 . S
C537 C535 1.392 . S
C537 N536 1.327 . S
C537 H544 0.930 . S
C538 C533 1.385 . S
C538 C535 1.370 . S
C538 H557 0.930 . S
Tb539 N536 2.600 . S
Tb539 N540 2.660 . S
Tb539 O573 2.362 . S
Tb539 O574 2.421 . S
Tb539 O578 2.546 . S
Tb539 O579 2.610 . S
Tb539 O581 2.320 . S
Tb539 O582 2.552 . S
Tb539 O583 2.413 . S
Tb539 C603 2.833 . S
N540 C532 1.360 . S
N540 Tb539 2.660 . S
N540 C541 1.305 . S
C541 N540 1.305 . S
C541 C543 1.407 . S
C541 H548 0.930 . S
C542 C530 1.410 . S
C542 C543 1.345 . S
C542 H550 0.930 . S
C543 C541 1.407 . S
C543 C542 1.345 . S
C543 H545 0.930 . S
H544 C537 0.930 . S
H545 C543 0.930 . S
H546 C534 0.930 . S
H547 C535 0.931 . S
H548 C541 0.930 . S
H549 C563 0.930 . S
H550 C542 0.930 . S
H551 C569 0.930 . S
H552 C560 0.930 . S
H553 C567 0.931 . S
H554 C531 0.929 1_545 S
H555 C561 0.930 . S
H556 C594 0.930 . S
H557 C538 0.930 . S
H558 C593 0.929 . S
N559 Tb528 2.660 . S
N559 C560 1.305 . S
N559 C564 1.360 . S
C560 H552 0.930 . S
C560 N559 1.305 . S
C560 C563 1.407 . S
C561 H555 0.930 . S
C561 C562 1.410 . S
C561 C563 1.345 . S
C562 C561 1.410 . S
C562 C564 1.417 . S
C562 C594 1.432 . S
C563 H549 0.930 . S
C563 C560 1.407 . S
C563 C561 1.345 . S
C564 N559 1.360 . S
C564 C562 1.417 . S
C564 C568 1.432 . S
H565 C570 0.930 . S
N566 Tb528 2.600 . S
N566 C568 1.359 . S
N566 C569 1.327 . S
C567 H553 0.931 . S
C567 C569 1.392 . S
C567 C570 1.370 . S
C568 C564 1.432 . S
C568 N566 1.359 . S
C568 C571 1.414 . S
C569 H551 0.930 . S
C569 N566 1.327 . S
C569 C567 1.392 . S
C570 H565 0.930 . S
C570 C567 1.370 . S
C570 C571 1.385 . S
C571 C568 1.414 . S
C571 C570 1.385 . S
C571 C593 1.444 . S
O572 Tb528 2.546 . S
O572 C592 1.251 . S
O573 Tb528 2.610 . S
O573 Tb539 2.362 . S
O573 C584 1.283 . S
O574 Tb539 2.421 . S
O574 C591 1.262 . S
O575 Tb528 2.320 . S
O575 C591 1.260 . S
O576 Tb528 2.552 . S
O576 C584 1.243 . S
O577 Tb528 2.413 . S
O577 C592 1.256 . S
O578 Tb539 2.546 . S
O578 C603 1.251 . S
O579 Tb528 2.362 . S
O579 Tb539 2.610 . S
O579 C595 1.283 . S
O580 Tb528 2.421 . S
O580 C602 1.262 . S
O581 Tb539 2.320 . S
O581 C602 1.260 . S
O582 Tb539 2.552 . S
O582 C595 1.243 . S
O583 Tb539 2.413 . S
O583 C603 1.256 . S
C584 O573 1.283 . S
C584 O576 1.243 . S
C585 C587 1.382 . S
C585 C589 1.393 . S
C585 C592 1.500 . S
C586 C587 1.400 . S
C586 C588 1.384 . S
C587 C585 1.382 . S
C587 C586 1.400 . S
C587 H604 0.930 . S
C588 C586 1.384 . S
C588 C590 1.392 . S
C588 H605 0.931 . S
C589 C585 1.393 . S
C589 C590 1.401 . S
C589 H606 0.930 . S
C590 C588 1.392 . S
C590 C589 1.401 . S
C590 H607 0.930 . S
C591 O574 1.262 . S
C591 O575 1.260 . S
C592 Tb528 2.833 . S
C592 O572 1.251 . S
C592 O577 1.256 . S
C592 C585 1.500 . S
C593 H558 0.929 . S
C593 C571 1.444 . S
C593 C594 1.317 . S
C594 H556 0.930 . S
C594 C562 1.432 . S
C594 C593 1.317 . S
C595 O579 1.283 . S
C595 O582 1.243 . S
C596 C597 1.382 . S
C596 C600 1.393 . S
C596 C603 1.500 . S
C597 C596 1.382 . S
C597 C598 1.400 . S
C597 H608 0.930 . S
C598 C597 1.400 . S
C598 C599 1.384 . S
C599 C598 1.384 . S
C599 C601 1.392 . S
C599 H609 0.931 . S
C600 C596 1.393 . S
C600 C601 1.401 . S
C600 H610 0.930 . S
C601 C599 1.392 . S
C601 C600 1.401 . S
C601 H611 0.930 . S
C602 O580 1.262 . S
C602 O581 1.260 . S
C603 Tb539 2.833 . S
C603 O578 1.251 . S
C603 O583 1.256 . S
C603 C596 1.500 . S
H604 C587 0.930 . S
H605 C588 0.931 . S
H606 C589 0.930 . S
H607 C590 0.930 . S
H608 C597 0.930 . S
H609 C599 0.931 . S
H610 C600 0.930 . S
H611 C601 0.930 . S
Tb612 N643 2.660 . S
Tb612 N650 2.600 . S
Tb612 O656 2.546 . S
Tb612 O657 2.610 . S
Tb612 O659 2.320 . S
Tb612 O660 2.552 . S
Tb612 O661 2.413 . S
Tb612 O663 2.362 . S
Tb612 O664 2.421 . S
Tb612 C676 2.833 . S
C613 C616 1.432 . S
C613 C617 1.414 . S
C613 N620 1.359 . S
C614 C616 1.417 . S
C614 C618 1.432 . S
C614 C626 1.410 . S
C615 C617 1.444 . S
C615 C618 1.317 . S
C615 H638 0.929 . S
C616 C613 1.432 . S
C616 C614 1.417 . S
C616 N624 1.360 . S
C617 C613 1.414 . S
C617 C615 1.444 . S
C617 C622 1.385 . S
C618 C614 1.432 . S
C618 C615 1.317 . S
C618 H630 0.930 . S
C619 C621 1.392 . S
C619 C622 1.370 . S
C619 H631 0.931 . S
N620 C613 1.359 . S
N620 C621 1.327 . S
N620 Tb623 2.600 . S
C621 C619 1.392 . S
C621 N620 1.327 . S
C621 H628 0.930 . S
C622 C617 1.385 . S
C622 C619 1.370 . S
C622 H641 0.930 . S
Tb623 N620 2.600 . S
Tb623 N624 2.660 . S
Tb623 O657 2.362 . S
Tb623 O658 2.421 . S
Tb623 O662 2.546 . S
Tb623 O663 2.610 . S
Tb623 O665 2.320 . S
Tb623 O666 2.552 . S
Tb623 O667 2.413 . S
Tb623 C687 2.833 . S
N624 C616 1.360 . S
N624 Tb623 2.660 . S
N624 C625 1.305 . S
C625 N624 1.305 . S
C625 C627 1.407 . S
C625 H632 0.930 . S
C626 C614 1.410 . S
C626 C627 1.345 . S
C626 H634 0.930 . S
C627 C625 1.407 . S
C627 C626 1.345 . S
C627 H629 0.930 . S
H628 C621 0.930 . S
H629 C627 0.930 . S
H630 C618 0.930 . S
H631 C619 0.931 . S
H632 C625 0.930 . S
H633 C647 0.930 . S
H634 C626 0.930 . S
H635 C653 0.930 . S
H636 C644 0.930 . S
H637 C651 0.931 . S
H638 C615 0.929 . S
H639 C645 0.930 . S
H640 C678 0.930 . S
H641 C622 0.930 . S
H642 C677 0.929 . S
N643 Tb612 2.660 . S
N643 C644 1.305 . S
N643 C648 1.360 . S
C644 H636 0.930 . S
C644 N643 1.305 . S
C644 C647 1.407 . S
C645 H639 0.930 . S
C645 C646 1.410 . S
C645 C647 1.345 . S
C646 C645 1.410 . S
C646 C648 1.417 . S
C646 C678 1.432 . S
C647 H633 0.930 . S
C647 C644 1.407 . S
C647 C645 1.345 . S
C648 N643 1.360 . S
C648 C646 1.417 . S
C648 C652 1.432 . S
H649 C654 0.930 . S
N650 Tb612 2.600 . S
N650 C652 1.359 . S
N650 C653 1.327 . S
C651 H637 0.931 . S
C651 C653 1.392 . S
C651 C654 1.370 . S
C652 C648 1.432 . S
C652 N650 1.359 . S
C652 C655 1.414 . S
C653 H635 0.930 . S
C653 N650 1.327 . S
C653 C651 1.392 . S
C654 H649 0.930 . S
C654 C651 1.370 . S
C654 C655 1.385 . S
C655 C652 1.414 . S
C655 C654 1.385 . S
C655 C677 1.444 . S
O656 Tb612 2.546 . S
O656 C676 1.251 . S
O657 Tb612 2.610 . S
O657 Tb623 2.362 . S
O657 C668 1.283 . S
O658 Tb623 2.421 . S
O658 C675 1.262 . S
O659 Tb612 2.320 . S
O659 C675 1.260 . S
O660 Tb612 2.552 . S
O660 C668 1.243 . S
O661 Tb612 2.413 . S
O661 C676 1.256 . S
O662 Tb623 2.546 . S
O662 C687 1.251 . S
O663 Tb612 2.362 . S
O663 Tb623 2.610 . S
O663 C679 1.283 . S
O664 Tb612 2.421 . S
O664 C686 1.262 . S
O665 Tb623 2.320 . S
O665 C686 1.260 . S
O666 Tb623 2.552 . S
O666 C679 1.243 . S
O667 Tb623 2.413 . S
O667 C687 1.256 . S
C668 O657 1.283 . S
C668 O660 1.243 . S
C669 C671 1.382 . S
C669 C673 1.393 . S
C669 C676 1.500 . S
C670 C671 1.400 . S
C670 C672 1.384 1_556 S
C671 C669 1.382 . S
C671 C670 1.400 . S
C671 H688 0.930 . S
C672 C670 1.384 1_554 S
C672 C674 1.392 . S
C672 H689 0.931 . S
C673 C669 1.393 . S
C673 C674 1.401 1_556 S
C673 H690 0.930 . S
C674 C672 1.392 . S
C674 C673 1.401 1_554 S
C674 H691 0.930 . S
C675 O658 1.262 . S
C675 O659 1.260 . S
C676 Tb612 2.833 . S
C676 O656 1.251 . S
C676 O661 1.256 . S
C676 C669 1.500 . S
C677 H642 0.929 . S
C677 C655 1.444 . S
C677 C678 1.317 . S
C678 H640 0.930 . S
C678 C646 1.432 . S
C678 C677 1.317 . S
C679 O663 1.283 . S
C679 O666 1.243 . S
C680 C681 1.382 . S
C680 C684 1.393 . S
C680 C687 1.500 . S
C681 C680 1.382 . S
C681 C682 1.400 . S
C681 H692 0.930 . S
C682 C681 1.400 . S
C682 C683 1.384 . S
C683 C682 1.384 . S
C683 C685 1.392 . S
C683 H693 0.931 . S
C684 C680 1.393 . S
C684 C685 1.401 . S
C684 H694 0.930 . S
C685 C683 1.392 . S
C685 C684 1.401 . S
C685 H695 0.930 . S
C686 O664 1.262 . S
C686 O665 1.260 . S
C687 Tb623 2.833 . S
C687 O662 1.251 . S
C687 O667 1.256 . S
C687 C680 1.500 . S
H688 C671 0.930 . S
H689 C672 0.931 . S
H690 C673 0.930 . S
H691 C674 0.930 . S
H692 C681 0.930 . S
H693 C683 0.931 . S
H694 C684 0.930 . S
H695 C685 0.930 . S
Tb696 N727 2.660 . S
Tb696 N734 2.600 . S
Tb696 O740 2.546 . S
Tb696 O741 2.610 . S
Tb696 O743 2.320 . S
Tb696 O744 2.552 . S
Tb696 O745 2.413 . S
Tb696 O747 2.362 . S
Tb696 O748 2.421 . S
Tb696 C760 2.833 . S
C697 C700 1.432 . S
C697 C701 1.414 1_556 S
C697 N704 1.359 . S
C698 C700 1.417 . S
C698 C702 1.432 . S
C698 C710 1.410 . S
C699 C701 1.444 . S
C699 C702 1.317 1_554 S
C699 H722 0.929 . S
C700 C697 1.432 . S
C700 C698 1.417 . S
C700 N708 1.360 . S
C701 C697 1.414 1_554 S
C701 C699 1.444 . S
C701 C706 1.385 . S
C702 C698 1.432 . S
C702 C699 1.317 1_556 S
C702 H714 0.930 1_556 S
C703 C705 1.392 1_554 S
C703 C706 1.370 . S
C703 H715 0.931 . S
N704 C697 1.359 . S
N704 C705 1.327 . S
N704 Tb707 2.600 . S
C705 C703 1.392 1_556 S
C705 N704 1.327 . S
C705 H712 0.930 . S
C706 C701 1.385 . S
C706 C703 1.370 . S
C706 H725 0.930 . S
Tb707 N704 2.600 . S
Tb707 N708 2.660 . S
Tb707 O741 2.362 . S
Tb707 O742 2.421 . S
Tb707 O746 2.546 . S
Tb707 O747 2.610 . S
Tb707 O749 2.320 . S
Tb707 O750 2.552 . S
Tb707 O751 2.413 . S
Tb707 C771 2.833 . S
N708 C700 1.360 . S
N708 Tb707 2.660 . S
N708 C709 1.305 . S
C709 N708 1.305 . S
C709 C711 1.407 . S
C709 H716 0.930 . S
C710 C698 1.410 . S
C710 C711 1.345 . S
C710 H718 0.930 . S
C711 C709 1.407 . S
C711 C710 1.345 . S
C711 H713 0.930 . S
H712 C705 0.930 . S
H713 C711 0.930 . S
H714 C702 0.930 1_554 S
H715 C703 0.931 . S
H716 C709 0.930 . S
H717 C731 0.930 . S
H718 C710 0.930 . S
H719 C737 0.930 . S
H720 C728 0.930 . S
H721 C735 0.931 . S
H722 C699 0.929 . S
H723 C729 0.930 . S
H724 C762 0.930 . S
H725 C706 0.930 . S
H726 C761 0.929 . S
N727 Tb696 2.660 . S
N727 C728 1.305 . S
N727 C732 1.360 . S
C728 H720 0.930 . S
C728 N727 1.305 . S
C728 C731 1.407 . S
C729 H723 0.930 . S
C729 C730 1.410 . S
C729 C731 1.345 . S
C730 C729 1.410 . S
C730 C732 1.417 . S
C730 C762 1.432 . S
C731 H717 0.930 . S
C731 C728 1.407 . S
C731 C729 1.345 . S
C732 N727 1.360 . S
C732 C730 1.417 . S
C732 C736 1.432 . S
H733 C738 0.930 . S
N734 Tb696 2.600 . S
N734 C736 1.359 . S
N734 C737 1.327 . S
C735 H721 0.931 . S
C735 C737 1.392 . S
C735 C738 1.370 . S
C736 C732 1.432 . S
C736 N734 1.359 . S
C736 C739 1.414 . S
C737 H719 0.930 . S
C737 N734 1.327 . S
C737 C735 1.392 . S
C738 H733 0.930 . S
C738 C735 1.370 . S
C738 C739 1.385 . S
C739 C736 1.414 . S
C739 C738 1.385 . S
C739 C761 1.444 . S
O740 Tb696 2.546 . S
O740 C760 1.251 . S
O741 Tb696 2.610 . S
O741 Tb707 2.362 . S
O741 C752 1.283 . S
O742 Tb707 2.421 . S
O742 C759 1.262 . S
O743 Tb696 2.320 . S
O743 C759 1.260 . S
O744 Tb696 2.552 . S
O744 C752 1.243 . S
O745 Tb696 2.413 . S
O745 C760 1.256 . S
O746 Tb707 2.546 . S
O746 C771 1.251 . S
O747 Tb696 2.362 . S
O747 Tb707 2.610 . S
O747 C763 1.283 . S
O748 Tb696 2.421 . S
O748 C770 1.262 . S
O749 Tb707 2.320 . S
O749 C770 1.260 . S
O750 Tb707 2.552 . S
O750 C763 1.243 . S
O751 Tb707 2.413 . S
O751 C771 1.256 . S
C752 O741 1.283 . S
C752 O744 1.243 . S
C753 C755 1.382 . S
C753 C757 1.393 . S
C753 C760 1.500 . S
C754 C755 1.400 . S
C754 C756 1.384 . S
C755 C753 1.382 . S
C755 C754 1.400 . S
C755 H772 0.930 . S
C756 C754 1.384 . S
C756 C758 1.392 . S
C756 H773 0.931 . S
C757 C753 1.393 . S
C757 C758 1.401 . S
C757 H774 0.930 . S
C758 C756 1.392 . S
C758 C757 1.401 . S
C758 H775 0.930 . S
C759 O742 1.262 . S
C759 O743 1.260 . S
C760 Tb696 2.833 . S
C760 O740 1.251 . S
C760 O745 1.256 . S
C760 C753 1.500 . S
C761 H726 0.929 . S
C761 C739 1.444 . S
C761 C762 1.317 . S
C762 H724 0.930 . S
C762 C730 1.432 . S
C762 C761 1.317 . S
C763 O747 1.283 . S
C763 O750 1.243 . S
C764 C765 1.382 . S
C764 C768 1.393 . S
C764 C771 1.500 . S
C765 C764 1.382 . S
C765 C766 1.400 . S
C765 H776 0.930 . S
C766 C765 1.400 . S
C766 C767 1.384 . S
C767 C766 1.384 . S
C767 C769 1.392 . S
C767 H777 0.931 . S
C768 C764 1.393 . S
C768 C769 1.401 . S
C768 H778 0.930 . S
C769 C767 1.392 . S
C769 C768 1.401 . S
C769 H779 0.930 . S
C770 O748 1.262 . S
C770 O749 1.260 . S
C771 Tb707 2.833 . S
C771 O746 1.251 . S
C771 O751 1.256 . S
C771 C764 1.500 . S
H772 C755 0.930 . S
H773 C756 0.931 . S
H774 C757 0.930 . S
H775 C758 0.930 . S
H776 C765 0.930 . S
H777 C767 0.931 . S
H778 C768 0.930 . S
H779 C769 0.930 . S
Tb780 N811 2.660 . S
Tb780 N818 2.600 . S
Tb780 O824 2.546 . S
Tb780 O825 2.610 . S
Tb780 O827 2.320 . S
Tb780 O828 2.552 . S
Tb780 O829 2.413 . S
Tb780 O831 2.362 . S
Tb780 O832 2.421 . S
Tb780 C844 2.833 . S
C781 C784 1.432 . S
C781 C785 1.414 . S
C781 N788 1.359 . S
C782 C784 1.417 . S
C782 C786 1.432 . S
C782 C794 1.410 . S
C783 C785 1.444 . S
C783 C786 1.317 . S
C783 H806 0.929 . S
C784 C781 1.432 . S
C784 C782 1.417 . S
C784 N792 1.360 . S
C785 C781 1.414 . S
C785 C783 1.444 . S
C785 C790 1.385 . S
C786 C782 1.432 . S
C786 C783 1.317 . S
C786 H798 0.930 . S
C787 C789 1.392 . S
C787 C790 1.370 . S
C787 H799 0.931 . S
N788 C781 1.359 . S
N788 C789 1.327 . S
N788 Tb791 2.600 . S
C789 C787 1.392 . S
C789 N788 1.327 . S
C789 H796 0.930 . S
C790 C785 1.385 . S
C790 C787 1.370 . S
C790 H809 0.930 . S
Tb791 N788 2.600 . S
Tb791 N792 2.660 . S
Tb791 O825 2.362 . S
Tb791 O826 2.421 . S
Tb791 O830 2.546 . S
Tb791 O831 2.610 . S
Tb791 O833 2.320 . S
Tb791 O834 2.552 . S
Tb791 O835 2.413 . S
Tb791 C855 2.833 . S
N792 C784 1.360 . S
N792 Tb791 2.660 . S
N792 C793 1.305 . S
C793 N792 1.305 . S
C793 C795 1.407 . S
C793 H800 0.930 . S
C794 C782 1.410 . S
C794 C795 1.345 . S
C794 H802 0.930 . S
C795 C793 1.407 . S
C795 C794 1.345 . S
C795 H797 0.930 . S
H796 C789 0.930 . S
H797 C795 0.930 . S
H798 C786 0.930 . S
H799 C787 0.931 . S
H800 C793 0.930 . S
H801 C815 0.930 . S
H802 C794 0.930 . S
H803 C821 0.930 . S
H804 C812 0.930 . S
H805 C819 0.931 . S
H806 C783 0.929 . S
H807 C813 0.930 . S
H808 C846 0.930 . S
H809 C790 0.930 . S
H810 C845 0.929 . S
N811 Tb780 2.660 . S
N811 C812 1.305 . S
N811 C816 1.360 . S
C812 H804 0.930 . S
C812 N811 1.305 . S
C812 C815 1.407 . S
C813 H807 0.930 . S
C813 C814 1.410 . S
C813 C815 1.345 . S
C814 C813 1.410 . S
C814 C816 1.417 . S
C814 C846 1.432 . S
C815 H801 0.930 . S
C815 C812 1.407 . S
C815 C813 1.345 . S
C816 N811 1.360 . S
C816 C814 1.417 . S
C816 C820 1.432 . S
H817 C822 0.930 . S
N818 Tb780 2.600 . S
N818 C820 1.359 . S
N818 C821 1.327 . S
C819 H805 0.931 . S
C819 C821 1.392 . S
C819 C822 1.370 . S
C820 C816 1.432 . S
C820 N818 1.359 . S
C820 C823 1.414 . S
C821 H803 0.930 . S
C821 N818 1.327 . S
C821 C819 1.392 . S
C822 H817 0.930 . S
C822 C819 1.370 . S
C822 C823 1.385 . S
C823 C820 1.414 . S
C823 C822 1.385 . S
C823 C845 1.444 . S
O824 Tb780 2.546 . S
O824 C844 1.251 . S
O825 Tb780 2.610 . S
O825 Tb791 2.362 . S
O825 C836 1.283 . S
O826 Tb791 2.421 . S
O826 C843 1.262 . S
O827 Tb780 2.320 . S
O827 C843 1.260 . S
O828 Tb780 2.552 . S
O828 C836 1.243 . S
O829 Tb780 2.413 . S
O829 C844 1.256 . S
O830 Tb791 2.546 . S
O830 C855 1.251 . S
O831 Tb780 2.362 . S
O831 Tb791 2.610 . S
O831 C847 1.283 . S
O832 Tb780 2.421 . S
O832 C854 1.262 . S
O833 Tb791 2.320 . S
O833 C854 1.260 . S
O834 Tb791 2.552 . S
O834 C847 1.243 . S
O835 Tb791 2.413 . S
O835 C855 1.256 . S
C836 O825 1.283 . S
C836 O828 1.243 . S
C837 C839 1.382 . S
C837 C841 1.393 . S
C837 C844 1.500 . S
C838 C839 1.400 . S
C838 C840 1.384 . S
C839 C837 1.382 . S
C839 C838 1.400 . S
C839 H856 0.930 . S
C840 C838 1.384 . S
C840 C842 1.392 . S
C840 H857 0.931 . S
C841 C837 1.393 . S
C841 C842 1.401 . S
C841 H858 0.930 . S
C842 C840 1.392 . S
C842 C841 1.401 . S
C842 H859 0.930 . S
C843 O826 1.262 . S
C843 O827 1.260 . S
C844 Tb780 2.833 . S
C844 O824 1.251 . S
C844 O829 1.256 . S
C844 C837 1.500 . S
C845 H810 0.929 . S
C845 C823 1.444 . S
C845 C846 1.317 . S
C846 H808 0.930 . S
C846 C814 1.432 . S
C846 C845 1.317 . S
C847 O831 1.283 . S
C847 O834 1.243 . S
C848 C849 1.382 . S
C848 C852 1.393 . S
C848 C855 1.500 . S
C849 C848 1.382 . S
C849 C850 1.400 . S
C849 H860 0.930 . S
C850 C849 1.400 . S
C850 C851 1.384 1_556 S
C851 C850 1.384 1_554 S
C851 C853 1.392 . S
C851 H861 0.931 . S
C852 C848 1.393 . S
C852 C853 1.401 1_556 S
C852 H862 0.930 . S
C853 C851 1.392 . S
C853 C852 1.401 1_554 S
C853 H863 0.930 . S
C854 O832 1.262 . S
C854 O833 1.260 . S
C855 Tb791 2.833 . S
C855 O830 1.251 . S
C855 O835 1.256 . S
C855 C848 1.500 . S
H856 C839 0.930 . S
H857 C840 0.931 . S
H858 C841 0.930 . S
H859 C842 0.930 . S
H860 C849 0.930 . S
H861 C851 0.931 . S
H862 C852 0.930 . S
H863 C853 0.930 . S
Tb864 N895 2.660 . S
Tb864 N902 2.600 . S
Tb864 O908 2.546 . S
Tb864 O909 2.610 . S
Tb864 O911 2.320 . S
Tb864 O912 2.552 . S
Tb864 O913 2.413 . S
Tb864 O915 2.362 . S
Tb864 O916 2.421 . S
Tb864 C928 2.833 . S
C865 C868 1.432 . S
C865 C869 1.414 . S
C865 N872 1.359 . S
C866 C868 1.417 . S
C866 C870 1.432 . S
C866 C878 1.410 . S
C867 C869 1.444 . S
C867 C870 1.317 . S
C867 H890 0.929 . S
C868 C865 1.432 . S
C868 C866 1.417 . S
C868 N876 1.360 . S
C869 C865 1.414 . S
C869 C867 1.444 . S
C869 C874 1.385 . S
C870 C866 1.432 . S
C870 C867 1.317 . S
C870 H882 0.930 . S
C871 C873 1.392 . S
C871 C874 1.370 . S
C871 H883 0.931 . S
N872 C865 1.359 . S
N872 C873 1.327 . S
N872 Tb875 2.600 . S
C873 C871 1.392 . S
C873 N872 1.327 . S
C873 H880 0.930 . S
C874 C869 1.385 . S
C874 C871 1.370 . S
C874 H893 0.930 . S
Tb875 N872 2.600 . S
Tb875 N876 2.660 . S
Tb875 O909 2.362 . S
Tb875 O910 2.421 . S
Tb875 O914 2.546 . S
Tb875 O915 2.610 . S
Tb875 O917 2.320 . S
Tb875 O918 2.552 . S
Tb875 O919 2.413 . S
Tb875 C939 2.833 . S
N876 C868 1.360 . S
N876 Tb875 2.660 . S
N876 C877 1.305 . S
C877 N876 1.305 . S
C877 C879 1.407 . S
C877 H884 0.930 . S
C878 C866 1.410 . S
C878 C879 1.345 . S
C878 H886 0.930 . S
C879 C877 1.407 . S
C879 C878 1.345 . S
C879 H881 0.930 . S
H880 C873 0.930 . S
H881 C879 0.930 . S
H882 C870 0.930 . S
H883 C871 0.931 . S
H884 C877 0.930 . S
H885 C899 0.930 . S
H886 C878 0.930 . S
H887 C905 0.930 . S
H888 C896 0.930 . S
H889 C903 0.931 . S
H890 C867 0.929 . S
H891 C897 0.930 . S
H892 C930 0.930 1_554 S
H893 C874 0.930 . S
H894 C929 0.929 . S
N895 Tb864 2.660 . S
N895 C896 1.305 . S
N895 C900 1.360 . S
C896 H888 0.930 . S
C896 N895 1.305 . S
C896 C899 1.407 . S
C897 H891 0.930 . S
C897 C898 1.410 . S
C897 C899 1.345 . S
C898 C897 1.410 . S
C898 C900 1.417 . S
C898 C930 1.432 . S
C899 H885 0.930 . S
C899 C896 1.407 . S
C899 C897 1.345 . S
C900 N895 1.360 . S
C900 C898 1.417 . S
C900 C904 1.432 . S
H901 C906 0.930 . S
N902 Tb864 2.600 . S
N902 C904 1.359 . S
N902 C905 1.327 . S
C903 H889 0.931 . S
C903 C905 1.392 . S
C903 C906 1.370 1_556 S
C904 C900 1.432 . S
C904 N902 1.359 . S
C904 C907 1.414 . S
C905 H887 0.930 . S
C905 N902 1.327 . S
C905 C903 1.392 . S
C906 H901 0.930 . S
C906 C903 1.370 1_554 S
C906 C907 1.385 1_554 S
C907 C904 1.414 . S
C907 C906 1.385 1_556 S
C907 C929 1.444 1_556 S
O908 Tb864 2.546 . S
O908 C928 1.251 . S
O909 Tb864 2.610 . S
O909 Tb875 2.362 . S
O909 C920 1.283 . S
O910 Tb875 2.421 . S
O910 C927 1.262 . S
O911 Tb864 2.320 . S
O911 C927 1.260 . S
O912 Tb864 2.552 . S
O912 C920 1.243 . S
O913 Tb864 2.413 . S
O913 C928 1.256 . S
O914 Tb875 2.546 . S
O914 C939 1.251 . S
O915 Tb864 2.362 . S
O915 Tb875 2.610 . S
O915 C931 1.283 . S
O916 Tb864 2.421 . S
O916 C938 1.262 . S
O917 Tb875 2.320 . S
O917 C938 1.260 . S
O918 Tb875 2.552 . S
O918 C931 1.243 . S
O919 Tb875 2.413 . S
O919 C939 1.256 . S
C920 O909 1.283 . S
C920 O912 1.243 . S
C921 C923 1.382 . S
C921 C925 1.393 . S
C921 C928 1.500 . S
C922 C923 1.400 . S
C922 C924 1.384 . S
C923 C921 1.382 . S
C923 C922 1.400 . S
C923 H940 0.930 . S
C924 C922 1.384 . S
C924 C926 1.392 . S
C924 H941 0.931 . S
C925 C921 1.393 . S
C925 C926 1.401 . S
C925 H942 0.930 . S
C926 C924 1.392 . S
C926 C925 1.401 . S
C926 H943 0.930 . S
C927 O910 1.262 . S
C927 O911 1.260 . S
C928 Tb864 2.833 . S
C928 O908 1.251 . S
C928 O913 1.256 . S
C928 C921 1.500 . S
C929 H894 0.929 . S
C929 C907 1.444 1_554 S
C929 C930 1.317 1_554 S
C930 H892 0.930 1_556 S
C930 C898 1.432 . S
C930 C929 1.317 1_556 S
C931 O915 1.283 . S
C931 O918 1.243 . S
C932 C933 1.382 . S
C932 C936 1.393 . S
C932 C939 1.500 . S
C933 C932 1.382 . S
C933 C934 1.400 . S
C933 H944 0.930 . S
C934 C933 1.400 . S
C934 C935 1.384 . S
C935 C934 1.384 . S
C935 C937 1.392 . S
C935 H945 0.931 . S
C936 C932 1.393 . S
C936 C937 1.401 . S
C936 H946 0.930 . S
C937 C935 1.392 . S
C937 C936 1.401 . S
C937 H947 0.930 . S
C938 O916 1.262 . S
C938 O917 1.260 . S
C939 Tb875 2.833 . S
C939 O914 1.251 . S
C939 O919 1.256 . S
C939 C932 1.500 . S
H940 C923 0.930 . S
H941 C924 0.931 . S
H942 C925 0.930 . S
H943 C926 0.930 . S
H944 C933 0.930 . S
H945 C935 0.931 . S
H946 C936 0.930 . S
H947 C937 0.930 . S
C948 C949 1.363 . S
C948 C954 1.379 . S
C948 N956 1.356 . S
C949 C948 1.363 . S
C949 C955 1.363 . S
C950 C951 1.363 . S
C950 C955 1.379 . S
C950 N957 1.356 . S
C951 C950 1.363 . S
C951 C954 1.363 . S
N952 C954 1.356 . S
N952 H964 0.984 . S
N952 H965 0.985 . S
N953 C955 1.356 . S
N953 H958 0.984 . S
N953 H959 0.985 . S
C954 C948 1.379 . S
C954 C951 1.363 . S
C954 N952 1.356 . S
C955 C949 1.363 . S
C955 C950 1.379 . S
C955 N953 1.356 . S
N956 C948 1.356 . S
N956 H962 0.984 . S
N956 H963 0.984 . S
N957 C950 1.356 . S
N957 H960 0.984 . S
N957 H961 0.985 . S
H958 N953 0.984 . S
H959 N953 0.985 . S
H960 N957 0.984 . S
H961 N957 0.985 . S
H962 N956 0.984 . S
H963 N956 0.984 . S
H964 N952 0.984 . S
H965 N952 0.985 . S
C966 C967 1.363 . S
C966 C972 1.379 . S
C966 N974 1.356 . S
C967 C966 1.363 . S
C967 C973 1.363 . S
C968 C969 1.363 . S
C968 C973 1.379 . S
C968 N975 1.356 . S
C969 C968 1.363 . S
C969 C972 1.363 . S
N970 C972 1.356 . S
N970 H982 0.984 . S
N970 H983 0.985 . S
N971 C973 1.356 . S
N971 H976 0.984 . S
N971 H977 0.985 . S
C972 C966 1.379 . S
C972 C969 1.363 . S
C972 N970 1.356 . S
C973 C967 1.363 . S
C973 C968 1.379 . S
C973 N971 1.356 . S
N974 C966 1.356 . S
N974 H980 0.984 . S
N974 H981 0.984 . S
N975 C968 1.356 . S
N975 H978 0.984 . S
N975 H979 0.985 . S
H976 N971 0.984 . S
H977 N971 0.985 . S
H978 N975 0.984 . S
H979 N975 0.985 . S
H980 N974 0.984 . S
H981 N974 0.984 . S
H982 N970 0.984 . S
H983 N970 0.985 . S
C984 C985 1.363 . S
C984 C990 1.379 . S
C984 N992 1.356 1_565 S
C985 C984 1.363 . S
C985 C991 1.363 . S
C986 C987 1.363 . S
C986 C991 1.379 . S
C986 N993 1.356 . S
C987 C986 1.363 . S
C987 C990 1.363 . S
N988 C990 1.356 . S
N988 H1000 0.984 . S
N988 H1001 0.985 . S
N989 C991 1.356 . S
N989 H994 0.984 . S
N989 H995 0.985 1_655 S
C990 C984 1.379 . S
C990 C987 1.363 . S
C990 N988 1.356 . S
C991 C985 1.363 . S
C991 C986 1.379 . S
C991 N989 1.356 . S
N992 C984 1.356 1_545 S
N992 H998 0.984 . S
N992 H999 0.984 . S
N993 C986 1.356 . S
N993 H996 0.984 . S
N993 H997 0.985 . S
H994 N989 0.984 . S
H995 N989 0.985 1_455 S
H996 N993 0.984 . S
H997 N993 0.985 . S
H998 N992 0.984 . S
H999 N992 0.984 . S
H1000 N988 0.984 . S
H1001 N988 0.985 . S
C1002 C1003 1.363 . S
C1002 C1008 1.379 . S
C1002 N1010 1.356 . S
C1003 C1002 1.363 . S
C1003 C1009 1.363 . S
C1004 C1005 1.363 . S
C1004 C1009 1.379 . S
C1004 N1011 1.356 . S
C1005 C1004 1.363 . S
C1005 C1008 1.363 . S
N1006 C1008 1.356 . S
N1006 H1018 0.984 . S
N1006 H1019 0.985 . S
N1007 C1009 1.356 . S
N1007 H1012 0.984 . S
N1007 H1013 0.985 . S
C1008 C1002 1.379 . S
C1008 C1005 1.363 . S
C1008 N1006 1.356 . S
C1009 C1003 1.363 . S
C1009 C1004 1.379 . S
C1009 N1007 1.356 . S
N1010 C1002 1.356 . S
N1010 H1016 0.984 . S
N1010 H1017 0.984 . S
N1011 C1004 1.356 . S
N1011 H1014 0.984 . S
N1011 H1015 0.985 . S
H1012 N1007 0.984 . S
H1013 N1007 0.985 . S
H1014 N1011 0.984 . S
H1015 N1011 0.985 . S
H1016 N1010 0.984 . S
H1017 N1010 0.984 . S
H1018 N1006 0.984 . S
H1019 N1006 0.985 . S
C1020 C1021 1.363 . S
C1020 C1026 1.379 . S
C1020 N1028 1.356 . S
C1021 C1020 1.363 . S
C1021 C1027 1.363 . S
C1022 C1023 1.363 . S
C1022 C1027 1.379 . S
C1022 N1029 1.356 . S
C1023 C1022 1.363 . S
C1023 C1026 1.363 . S
N1024 C1026 1.356 . S
N1024 H1036 0.984 . S
N1024 H1037 0.985 . S
N1025 C1027 1.356 . S
N1025 H1030 0.984 . S
N1025 H1031 0.985 . S
C1026 C1020 1.379 . S
C1026 C1023 1.363 . S
C1026 N1024 1.356 . S
C1027 C1021 1.363 . S
C1027 C1022 1.379 . S
C1027 N1025 1.356 . S
N1028 C1020 1.356 . S
N1028 H1034 0.984 . S
N1028 H1035 0.984 1_565 S
N1029 C1022 1.356 . S
N1029 H1032 0.984 . S
N1029 H1033 0.985 . S
H1030 N1025 0.984 . S
H1031 N1025 0.985 . S
H1032 N1029 0.984 . S
H1033 N1029 0.985 . S
H1034 N1028 0.984 . S
H1035 N1028 0.984 1_545 S
H1036 N1024 0.984 . S
H1037 N1024 0.985 . S
C1038 C1039 1.363 . S
C1038 C1044 1.379 . S
C1038 N1046 1.356 . S
C1039 C1038 1.363 . S
C1039 C1045 1.363 . S
C1040 C1041 1.363 . S
C1040 C1045 1.379 . S
C1040 N1047 1.356 . S
C1041 C1040 1.363 . S
C1041 C1044 1.363 . S
N1042 C1044 1.356 . S
N1042 H1054 0.984 . S
N1042 H1055 0.985 . S
N1043 C1045 1.356 . S
N1043 H1048 0.984 . S
N1043 H1049 0.985 . S
C1044 C1038 1.379 . S
C1044 C1041 1.363 . S
C1044 N1042 1.356 . S
C1045 C1039 1.363 . S
C1045 C1040 1.379 . S
C1045 N1043 1.356 . S
N1046 C1038 1.356 . S
N1046 H1052 0.984 . S
N1046 H1053 0.984 . S
N1047 C1040 1.356 . S
N1047 H1050 0.984 . S
N1047 H1051 0.985 . S
H1048 N1043 0.984 . S
H1049 N1043 0.985 . S
H1050 N1047 0.984 . S
H1051 N1047 0.985 . S
H1052 N1046 0.984 . S
H1053 N1046 0.984 . S
H1054 N1042 0.984 . S
H1055 N1042 0.985 . S
C1056 C1057 1.363 . S
C1056 C1062 1.379 . S
C1056 N1064 1.356 . S
C1057 C1056 1.363 . S
C1057 C1063 1.363 . S
C1058 C1059 1.363 . S
C1058 C1063 1.379 . S
C1058 N1065 1.356 . S
C1059 C1058 1.363 . S
C1059 C1062 1.363 . S
N1060 C1062 1.356 . S
N1060 H1072 0.984 . S
N1060 H1073 0.985 . S
N1061 C1063 1.356 . S
N1061 H1066 0.984 . S
N1061 H1067 0.985 . S
C1062 C1056 1.379 . S
C1062 C1059 1.363 . S
C1062 N1060 1.356 . S
C1063 C1057 1.363 . S
C1063 C1058 1.379 . S
C1063 N1061 1.356 . S
N1064 C1056 1.356 . S
N1064 H1070 0.984 . S
N1064 H1071 0.984 . S
N1065 C1058 1.356 . S
N1065 H1068 0.984 . S
N1065 H1069 0.985 . S
H1066 N1061 0.984 . S
H1067 N1061 0.985 . S
H1068 N1065 0.984 . S
H1069 N1065 0.985 . S
H1070 N1064 0.984 . S
H1071 N1064 0.984 . S
H1072 N1060 0.984 . S
H1073 N1060 0.985 . S
C1074 C1075 1.363 . S
C1074 C1080 1.379 . S
C1074 N1082 1.356 . S
C1075 C1074 1.363 . S
C1075 C1081 1.363 1_565 S
C1076 C1077 1.363 . S
C1076 C1081 1.379 1_565 S
C1076 N1083 1.356 . S
C1077 C1076 1.363 . S
C1077 C1080 1.363 . S
N1078 C1080 1.356 . S
N1078 H1090 0.984 . S
N1078 H1091 0.985 . S
N1079 C1081 1.356 . S
N1079 H1084 0.984 . S
N1079 H1085 0.985 . S
C1080 C1074 1.379 . S
C1080 C1077 1.363 . S
C1080 N1078 1.356 . S
C1081 C1075 1.363 1_545 S
C1081 C1076 1.379 1_545 S
C1081 N1079 1.356 . S
N1082 C1074 1.356 . S
N1082 H1088 0.984 . S
N1082 H1089 0.984 . S
N1083 C1076 1.356 . S
N1083 H1086 0.984 . S
N1083 H1087 0.985 1_565 S
H1084 N1079 0.984 . S
H1085 N1079 0.985 . S
H1086 N1083 0.984 . S
H1087 N1083 0.985 1_545 S
H1088 N1082 0.984 . S
H1089 N1082 0.984 . S
H1090 N1078 0.984 . S
H1091 N1078 0.985 . S
C1092 C1093 1.363 . S
C1092 C1098 1.379 . S
C1092 N1100 1.356 . S
C1093 C1092 1.363 . S
C1093 C1099 1.363 . S
C1094 C1095 1.363 . S
C1094 C1099 1.379 . S
C1094 N1101 1.356 . S
C1095 C1094 1.363 . S
C1095 C1098 1.363 . S
N1096 C1098 1.356 . S
N1096 H1108 0.984 . S
N1096 H1109 0.985 . S
N1097 C1099 1.356 . S
N1097 H1102 0.984 . S
N1097 H1103 0.985 . S
C1098 C1092 1.379 . S
C1098 C1095 1.363 . S
C1098 N1096 1.356 . S
C1099 C1093 1.363 . S
C1099 C1094 1.379 . S
C1099 N1097 1.356 . S
N1100 C1092 1.356 . S
N1100 H1106 0.984 . S
N1100 H1107 0.984 . S
N1101 C1094 1.356 . S
N1101 H1104 0.984 . S
N1101 H1105 0.985 . S
H1102 N1097 0.984 . S
H1103 N1097 0.985 . S
H1104 N1101 0.984 . S
H1105 N1101 0.985 . S
H1106 N1100 0.984 . S
H1107 N1100 0.984 . S
H1108 N1096 0.984 . S
H1109 N1096 0.985 . S
C1110 C1111 1.363 . S
C1110 C1116 1.379 . S
C1110 N1118 1.356 . S
C1111 C1110 1.363 . S
C1111 C1117 1.363 . S
C1112 C1113 1.363 . S
C1112 C1117 1.379 . S
C1112 N1119 1.356 . S
C1113 C1112 1.363 . S
C1113 C1116 1.363 . S
N1114 C1116 1.356 . S
N1114 H1126 0.984 . S
N1114 H1127 0.985 . S
N1115 C1117 1.356 . S
N1115 H1120 0.984 . S
N1115 H1121 0.985 . S
C1116 C1110 1.379 . S
C1116 C1113 1.363 . S
C1116 N1114 1.356 . S
C1117 C1111 1.363 . S
C1117 C1112 1.379 . S
C1117 N1115 1.356 . S
N1118 C1110 1.356 . S
N1118 H1124 0.984 . S
N1118 H1125 0.984 . S
N1119 C1112 1.356 . S
N1119 H1122 0.984 . S
N1119 H1123 0.985 . S
H1120 N1115 0.984 . S
H1121 N1115 0.985 . S
H1122 N1119 0.984 . S
H1123 N1119 0.985 . S
H1124 N1118 0.984 . S
H1125 N1118 0.984 . S
H1126 N1114 0.984 . S
H1127 N1114 0.985 . S
C1128 C1129 1.363 . S
C1128 C1134 1.379 . S
C1128 N1136 1.356 . S
C1129 C1128 1.363 . S
C1129 C1135 1.363 . S
C1130 C1131 1.363 . S
C1130 C1135 1.379 . S
C1130 N1137 1.356 . S
C1131 C1130 1.363 . S
C1131 C1134 1.363 . S
N1132 C1134 1.356 . S
N1132 H1144 0.984 . S
N1132 H1145 0.985 . S
N1133 C1135 1.356 . S
N1133 H1138 0.984 . S
N1133 H1139 0.985 . S
C1134 C1128 1.379 . S
C1134 C1131 1.363 . S
C1134 N1132 1.356 . S
C1135 C1129 1.363 . S
C1135 C1130 1.379 . S
C1135 N1133 1.356 . S
N1136 C1128 1.356 . S
N1136 H1142 0.984 . S
N1136 H1143 0.984 . S
N1137 C1130 1.356 . S
N1137 H1140 0.984 . S
N1137 H1141 0.985 . S
H1138 N1133 0.984 . S
H1139 N1133 0.985 . S
H1140 N1137 0.984 . S
H1141 N1137 0.985 . S
H1142 N1136 0.984 . S
H1143 N1136 0.984 . S
H1144 N1132 0.984 . S
H1145 N1132 0.985 . S
C1146 C1147 1.363 . S
C1146 C1152 1.379 . S
C1146 N1154 1.356 . S
C1147 C1146 1.363 . S
C1147 C1153 1.363 . S
C1148 C1149 1.363 . S
C1148 C1153 1.379 . S
C1148 N1155 1.356 . S
C1149 C1148 1.363 . S
C1149 C1152 1.363 . S
N1150 C1152 1.356 . S
N1150 H1162 0.984 . S
N1150 H1163 0.985 . S
N1151 C1153 1.356 . S
N1151 H1156 0.984 . S
N1151 H1157 0.985 . S
C1152 C1146 1.379 . S
C1152 C1149 1.363 . S
C1152 N1150 1.356 . S
C1153 C1147 1.363 . S
C1153 C1148 1.379 . S
C1153 N1151 1.356 . S
N1154 C1146 1.356 . S
N1154 H1160 0.984 . S
N1154 H1161 0.984 . S
N1155 C1148 1.356 . S
N1155 H1158 0.984 . S
N1155 H1159 0.985 . S
H1156 N1151 0.984 . S
H1157 N1151 0.985 . S
H1158 N1155 0.984 . S
H1159 N1155 0.985 . S
H1160 N1154 0.984 . S
H1161 N1154 0.984 . S
H1162 N1150 0.984 . S
H1163 N1150 0.985 . S
C1164 C1165 1.363 1_565 S
C1164 C1170 1.379 . S
C1164 N1172 1.356 . S
C1165 C1164 1.363 1_545 S
C1165 C1171 1.363 1_554 S
C1166 C1167 1.363 1_545 S
C1166 C1171 1.379 . S
C1166 N1173 1.356 . S
C1167 C1166 1.363 1_565 S
C1167 C1170 1.363 1_556 S
N1168 C1170 1.356 . S
N1168 H1180 0.984 . S
N1168 H1181 0.985 . S
N1169 C1171 1.356 . S
N1169 H1174 0.984 . S
N1169 H1175 0.985 . S
C1170 C1164 1.379 . S
C1170 C1167 1.363 1_554 S
C1170 N1168 1.356 . S
C1171 C1165 1.363 1_556 S
C1171 C1166 1.379 . S
C1171 N1169 1.356 . S
N1172 C1164 1.356 . S
N1172 H1178 0.984 . S
N1172 H1179 0.984 . S
N1173 C1166 1.356 . S
N1173 H1176 0.984 1_545 S
N1173 H1177 0.985 . S
H1174 N1169 0.984 . S
H1175 N1169 0.985 . S
H1176 N1173 0.984 1_565 S
H1177 N1173 0.985 . S
H1178 N1172 0.984 . S
H1179 N1172 0.984 . S
H1180 N1168 0.984 . S
H1181 N1168 0.985 . S
C1182 C1183 1.363 . S
C1182 C1188 1.379 . S
C1182 N1190 1.356 . S
C1183 C1182 1.363 . S
C1183 C1189 1.363 . S
C1184 C1185 1.363 . S
C1184 C1189 1.379 . S
C1184 N1191 1.356 . S
C1185 C1184 1.363 . S
C1185 C1188 1.363 . S
N1186 C1188 1.356 . S
N1186 H1198 0.984 . S
N1186 H1199 0.985 . S
N1187 C1189 1.356 . S
N1187 H1192 0.984 1_556 S
N1187 H1193 0.985 . S
C1188 C1182 1.379 . S
C1188 C1185 1.363 . S
C1188 N1186 1.356 . S
C1189 C1183 1.363 . S
C1189 C1184 1.379 . S
C1189 N1187 1.356 . S
N1190 C1182 1.356 . S
N1190 H1196 0.984 . S
N1190 H1197 0.984 1_556 S
N1191 C1184 1.356 . S
N1191 H1194 0.984 . S
N1191 H1195 0.985 . S
H1192 N1187 0.984 1_554 S
H1193 N1187 0.985 . S
H1194 N1191 0.984 . S
H1195 N1191 0.985 . S
H1196 N1190 0.984 . S
H1197 N1190 0.984 1_554 S
H1198 N1186 0.984 . S
H1199 N1186 0.985 . S
C1200 C1201 1.363 . S
C1200 C1206 1.379 . S
C1200 N1208 1.356 . S
C1201 C1200 1.363 . S
C1201 C1207 1.363 . S
C1202 C1203 1.363 . S
C1202 C1207 1.379 . S
C1202 N1209 1.356 . S
C1203 C1202 1.363 . S
C1203 C1206 1.363 . S
N1204 C1206 1.356 . S
N1204 H1216 0.984 . S
N1204 H1217 0.985 . S
N1205 C1207 1.356 . S
N1205 H1210 0.984 . S
N1205 H1211 0.985 . S
C1206 C1200 1.379 . S
C1206 C1203 1.363 . S
C1206 N1204 1.356 . S
C1207 C1201 1.363 . S
C1207 C1202 1.379 . S
C1207 N1205 1.356 . S
N1208 C1200 1.356 . S
N1208 H1214 0.984 . S
N1208 H1215 0.984 . S
N1209 C1202 1.356 . S
N1209 H1212 0.984 . S
N1209 H1213 0.985 . S
H1210 N1205 0.984 . S
H1211 N1205 0.985 . S
H1212 N1209 0.984 . S
H1213 N1209 0.985 . S
H1214 N1208 0.984 . S
H1215 N1208 0.984 . S
H1216 N1204 0.984 . S
H1217 N1204 0.985 . S
C1218 C1219 1.363 . S
C1218 C1224 1.379 . S
C1218 N1226 1.356 . S
C1219 C1218 1.363 . S
C1219 C1225 1.363 . S
C1220 C1221 1.363 . S
C1220 C1225 1.379 . S
C1220 N1227 1.356 . S
C1221 C1220 1.363 . S
C1221 C1224 1.363 . S
N1222 C1224 1.356 . S
N1222 H1234 0.984 . S
N1222 H1235 0.985 . S
N1223 C1225 1.356 . S
N1223 H1228 0.984 . S
N1223 H1229 0.985 . S
C1224 C1218 1.379 . S
C1224 C1221 1.363 . S
C1224 N1222 1.356 . S
C1225 C1219 1.363 . S
C1225 C1220 1.379 . S
C1225 N1223 1.356 . S
N1226 C1218 1.356 . S
N1226 H1232 0.984 . S
N1226 H1233 0.984 . S
N1227 C1220 1.356 . S
N1227 H1230 0.984 . S
N1227 H1231 0.985 . S
H1228 N1223 0.984 . S
H1229 N1223 0.985 . S
H1230 N1227 0.984 . S
H1231 N1227 0.985 . S
H1232 N1226 0.984 . S
H1233 N1226 0.984 . S
H1234 N1222 0.984 . S
H1235 N1222 0.985 . S
C1236 C1237 1.363 . S
C1236 C1242 1.379 . S
C1236 N1244 1.356 . S
C1237 C1236 1.363 . S
C1237 C1243 1.363 . S
C1238 C1239 1.363 . S
C1238 C1243 1.379 . S
C1238 N1245 1.356 . S
C1239 C1238 1.363 . S
C1239 C1242 1.363 . S
N1240 C1242 1.356 . S
N1240 H1252 0.984 . S
N1240 H1253 0.985 . S
N1241 C1243 1.356 . S
N1241 H1246 0.984 . S
N1241 H1247 0.985 . S
C1242 C1236 1.379 . S
C1242 C1239 1.363 . S
C1242 N1240 1.356 . S
C1243 C1237 1.363 . S
C1243 C1238 1.379 . S
C1243 N1241 1.356 . S
N1244 C1236 1.356 . S
N1244 H1250 0.984 . S
N1244 H1251 0.984 . S
N1245 C1238 1.356 . S
N1245 H1248 0.984 . S
N1245 H1249 0.985 . S
H1246 N1241 0.984 . S
H1247 N1241 0.985 . S
H1248 N1245 0.984 . S
H1249 N1245 0.985 . S
H1250 N1244 0.984 . S
H1251 N1244 0.984 . S
H1252 N1240 0.984 . S
H1253 N1240 0.985 . S
C1254 C1255 1.363 . S
C1254 C1260 1.379 . S
C1254 N1262 1.356 . S
C1255 C1254 1.363 . S
C1255 C1261 1.363 . S
C1256 C1257 1.363 . S
C1256 C1261 1.379 . S
C1256 N1263 1.356 . S
C1257 C1256 1.363 . S
C1257 C1260 1.363 . S
N1258 C1260 1.356 . S
N1258 H1270 0.984 . S
N1258 H1271 0.985 . S
N1259 C1261 1.356 . S
N1259 H1264 0.984 . S
N1259 H1265 0.985 . S
C1260 C1254 1.379 . S
C1260 C1257 1.363 . S
C1260 N1258 1.356 . S
C1261 C1255 1.363 . S
C1261 C1256 1.379 . S
C1261 N1259 1.356 . S
N1262 C1254 1.356 . S
N1262 H1268 0.984 . S
N1262 H1269 0.984 . S
N1263 C1256 1.356 . S
N1263 H1266 0.984 . S
N1263 H1267 0.985 . S
H1264 N1259 0.984 . S
H1265 N1259 0.985 . S
H1266 N1263 0.984 . S
H1267 N1263 0.985 . S
H1268 N1262 0.984 . S
H1269 N1262 0.984 . S
H1270 N1258 0.984 . S
H1271 N1258 0.985 . S
C1272 C1273 1.363 1_556 S
C1272 C1278 1.379 . S
C1272 N1280 1.356 1_556 S
C1273 C1272 1.363 1_554 S
C1273 C1279 1.363 1_554 S
C1274 C1275 1.363 . S
C1274 C1279 1.379 . S
C1274 N1281 1.356 . S
C1275 C1274 1.363 . S
C1275 C1278 1.363 . S
N1276 C1278 1.356 . S
N1276 H1288 0.984 . S
N1276 H1289 0.985 . S
N1277 C1279 1.356 1_554 S
N1277 H1282 0.984 . S
N1277 H1283 0.985 . S
C1278 C1272 1.379 . S
C1278 C1275 1.363 . S
C1278 N1276 1.356 . S
C1279 C1273 1.363 1_556 S
C1279 C1274 1.379 . S
C1279 N1277 1.356 1_556 S
N1280 C1272 1.356 1_554 S
N1280 H1286 0.984 . S
N1280 H1287 0.984 . S
N1281 C1274 1.356 . S
N1281 H1284 0.984 . S
N1281 H1285 0.985 . S
H1282 N1277 0.984 . S
H1283 N1277 0.985 . S
H1284 N1281 0.984 . S
H1285 N1281 0.985 . S
H1286 N1280 0.984 . S
H1287 N1280 0.984 . S
H1288 N1276 0.984 . S
H1289 N1276 0.985 . S
C1290 C1291 1.363 1_556 S
C1290 C1296 1.379 1_455 S
C1290 N1298 1.356 . S
C1291 C1290 1.363 1_554 S
C1291 C1297 1.363 1_455 S
C1292 C1293 1.363 1_554 S
C1292 C1297 1.379 . S
C1292 N1299 1.356 . S
C1293 C1292 1.363 1_556 S
C1293 C1296 1.363 . S
N1294 C1296 1.356 . S
N1294 H1306 0.984 1_655 S
N1294 H1307 0.985 . S
N1295 C1297 1.356 . S
N1295 H1300 1.003 . S
N1295 H1301 0.985 . S
C1296 C1290 1.379 1_655 S
C1296 C1293 1.363 . S
C1296 N1294 1.356 . S
C1297 C1291 1.363 1_655 S
C1297 C1292 1.379 . S
C1297 N1295 1.356 . S
N1298 C1290 1.356 . S
N1298 H1304 0.984 . S
N1298 H1305 0.984 1_556 S
N1299 C1292 1.356 . S
N1299 H1302 0.984 1_554 S
N1299 H1303 0.985 . S
H1300 N1295 1.003 . S
H1301 N1295 0.985 . S
H1302 N1299 0.984 1_556 S
H1303 N1299 0.985 . S
H1304 N1298 0.984 . S
H1305 N1298 0.984 1_554 S
H1306 N1294 0.984 1_455 S
H1307 N1294 0.985 . S
C1308 C1309 1.363 . S
C1308 C1314 1.379 . S
C1308 N1316 1.356 . S
C1309 C1308 1.363 . S
C1309 C1315 1.363 . S
C1310 C1311 1.363 . S
C1310 C1315 1.379 . S
C1310 N1317 1.356 . S
C1311 C1310 1.363 . S
C1311 C1314 1.363 . S
N1312 C1314 1.356 . S
N1312 H1324 0.984 . S
N1312 H1325 0.985 . S
N1313 C1315 1.356 . S
N1313 H1318 0.984 . S
N1313 H1319 0.985 . S
C1314 C1308 1.379 . S
C1314 C1311 1.363 . S
C1314 N1312 1.356 . S
C1315 C1309 1.363 . S
C1315 C1310 1.379 . S
C1315 N1313 1.356 . S
N1316 C1308 1.356 . S
N1316 H1322 0.984 1_565 S
N1316 H1323 0.984 . S
N1317 C1310 1.356 . S
N1317 H1320 0.984 . S
N1317 H1321 0.985 . S
H1318 N1313 0.984 . S
H1319 N1313 0.985 . S
H1320 N1317 0.984 . S
H1321 N1317 0.985 . S
H1322 N1316 0.984 1_545 S
H1323 N1316 0.984 . S
H1324 N1312 0.984 . S
H1325 N1312 0.985 . S
C1326 C1327 1.363 . S
C1326 C1332 1.379 . S
C1326 N1334 1.356 . S
C1327 C1326 1.363 . S
C1327 C1333 1.363 . S
C1328 C1329 1.363 . S
C1328 C1333 1.379 . S
C1328 N1335 1.356 . S
C1329 C1328 1.363 . S
C1329 C1332 1.363 . S
N1330 C1332 1.356 . S
N1330 H1342 0.984 . S
N1330 H1343 0.985 . S
N1331 C1333 1.356 . S
N1331 H1336 0.984 . S
N1331 H1337 0.985 . S
C1332 C1326 1.379 . S
C1332 C1329 1.363 . S
C1332 N1330 1.356 . S
C1333 C1327 1.363 . S
C1333 C1328 1.379 . S
C1333 N1331 1.356 . S
N1334 C1326 1.356 . S
N1334 H1340 0.984 . S
N1334 H1341 0.984 . S
N1335 C1328 1.356 . S
N1335 H1338 0.984 . S
N1335 H1339 0.985 . S
H1336 N1331 0.984 . S
H1337 N1331 0.985 . S
H1338 N1335 0.984 . S
H1339 N1335 0.985 . S
H1340 N1334 0.984 . S
H1341 N1334 0.984 . S
H1342 N1330 0.984 . S
H1343 N1330 0.985 . S
C1344 C1345 1.363 1_565 S
C1344 C1350 1.379 . S
C1344 N1352 1.356 1_565 S
C1345 C1344 1.363 1_545 S
C1345 C1351 1.363 1_545 S
C1346 C1347 1.363 . S
C1346 C1351 1.379 . S
C1346 N1353 1.356 . S
C1347 C1346 1.363 . S
C1347 C1350 1.363 . S
N1348 C1350 1.356 . S
N1348 H1360 0.984 . S
N1348 H1361 0.985 . S
N1349 C1351 1.356 . S
N1349 H1354 0.984 1_565 S
N1349 H1355 0.985 . S
C1350 C1344 1.379 . S
C1350 C1347 1.363 . S
C1350 N1348 1.356 . S
C1351 C1345 1.363 1_565 S
C1351 C1346 1.379 . S
C1351 N1349 1.356 . S
N1352 C1344 1.356 1_545 S
N1352 H1358 0.984 . S
N1352 H1359 0.984 . S
N1353 C1346 1.356 . S
N1353 H1356 0.984 . S
N1353 H1357 0.985 . S
H1354 N1349 0.984 1_545 S
H1355 N1349 0.985 . S
H1356 N1353 0.984 . S
H1357 N1353 0.985 . S
H1358 N1352 0.984 . S
H1359 N1352 0.984 . S
H1360 N1348 0.984 . S
H1361 N1348 0.985 . S
C1362 C1363 1.363 . S
C1362 C1368 1.379 . S
C1362 N1370 1.356 . S
C1363 C1362 1.363 . S
C1363 C1369 1.363 . S
C1364 C1365 1.363 . S
C1364 C1369 1.379 . S
C1364 N1371 1.356 . S
C1365 C1364 1.363 . S
C1365 C1368 1.363 . S
N1366 C1368 1.356 . S
N1366 H1378 0.984 . S
N1366 H1379 0.985 . S
N1367 C1369 1.356 . S
N1367 H1372 0.984 . S
N1367 H1373 0.985 . S
C1368 C1362 1.379 . S
C1368 C1365 1.363 . S
C1368 N1366 1.356 . S
C1369 C1363 1.363 . S
C1369 C1364 1.379 . S
C1369 N1367 1.356 . S
N1370 C1362 1.356 . S
N1370 H1376 0.984 . S
N1370 H1377 0.984 . S
N1371 C1364 1.356 . S
N1371 H1374 0.984 . S
N1371 H1375 0.985 . S
H1372 N1367 0.984 . S
H1373 N1367 0.985 . S
H1374 N1371 0.984 . S
H1375 N1371 0.985 . S
H1376 N1370 0.984 . S
H1377 N1370 0.984 . S
H1378 N1366 0.984 . S
H1379 N1366 0.985 . S
C1380 C1381 1.363 . S
C1380 C1386 1.379 . S
C1380 N1388 1.356 . S
C1381 C1380 1.363 . S
C1381 C1387 1.363 . S
C1382 C1383 1.363 . S
C1382 C1387 1.379 . S
C1382 N1389 1.356 . S
C1383 C1382 1.363 . S
C1383 C1386 1.363 . S
N1384 C1386 1.356 . S
N1384 H1396 0.984 . S
N1384 H1397 0.985 . S
N1385 C1387 1.356 . S
N1385 H1390 0.984 . S
N1385 H1391 0.985 . S
C1386 C1380 1.379 . S
C1386 C1383 1.363 . S
C1386 N1384 1.356 . S
C1387 C1381 1.363 . S
C1387 C1382 1.379 . S
C1387 N1385 1.356 . S
N1388 C1380 1.356 . S
N1388 H1394 0.984 . S
N1388 H1395 0.984 . S
N1389 C1382 1.356 . S
N1389 H1392 0.984 . S
N1389 H1393 0.985 . S
H1390 N1385 0.984 . S
H1391 N1385 0.985 . S
H1392 N1389 0.984 . S
H1393 N1389 0.985 . S
H1394 N1388 0.984 . S
H1395 N1388 0.984 . S
H1396 N1384 0.984 . S
H1397 N1384 0.985 . S
C1398 C1399 1.363 . S
C1398 C1404 1.379 . S
C1398 N1406 1.356 . S
C1399 C1398 1.363 . S
C1399 C1405 1.363 . S
C1400 C1401 1.363 . S
C1400 C1405 1.379 . S
C1400 N1407 1.356 . S
C1401 C1400 1.363 . S
C1401 C1404 1.363 . S
N1402 C1404 1.356 . S
N1402 H1414 0.984 . S
N1402 H1415 0.985 . S
N1403 C1405 1.356 . S
N1403 H1408 0.984 . S
N1403 H1409 0.985 . S
C1404 C1398 1.379 . S
C1404 C1401 1.363 . S
C1404 N1402 1.356 . S
C1405 C1399 1.363 . S
C1405 C1400 1.379 . S
C1405 N1403 1.356 . S
N1406 C1398 1.356 . S
N1406 H1412 0.984 . S
N1406 H1413 0.984 . S
N1407 C1400 1.356 . S
N1407 H1410 0.984 . S
N1407 H1411 0.985 . S
H1408 N1403 0.984 . S
H1409 N1403 0.985 . S
H1410 N1407 0.984 . S
H1411 N1407 0.985 . S
H1412 N1406 0.984 . S
H1413 N1406 0.984 . S
H1414 N1402 0.984 . S
H1415 N1402 0.985 . S
C1416 C1417 1.363 . S
C1416 C1422 1.379 . S
C1416 N1424 1.356 . S
C1417 C1416 1.363 . S
C1417 C1423 1.363 . S
C1418 C1419 1.363 . S
C1418 C1423 1.379 . S
C1418 N1425 1.356 . S
C1419 C1418 1.363 . S
C1419 C1422 1.363 . S
N1420 C1422 1.356 . S
N1420 H1432 0.984 . S
N1420 H1433 0.985 . S
N1421 C1423 1.356 . S
N1421 H1426 0.984 . S
N1421 H1427 0.985 . S
C1422 C1416 1.379 . S
C1422 C1419 1.363 . S
C1422 N1420 1.356 . S
C1423 C1417 1.363 . S
C1423 C1418 1.379 . S
C1423 N1421 1.356 . S
N1424 C1416 1.356 . S
N1424 H1430 0.984 . S
N1424 H1431 0.984 . S
N1425 C1418 1.356 . S
N1425 H1428 0.984 . S
N1425 H1429 0.985 . S
H1426 N1421 0.984 . S
H1427 N1421 0.985 . S
H1428 N1425 0.984 . S
H1429 N1425 0.985 . S
H1430 N1424 0.984 . S
H1431 N1424 0.984 . S
H1432 N1420 0.984 . S
H1433 N1420 0.985 . S
C1434 C1435 1.363 . S
C1434 C1440 1.379 . S
C1434 N1442 1.356 . S
C1435 C1434 1.363 . S
C1435 C1441 1.363 . S
C1436 C1437 1.363 . S
C1436 C1441 1.379 . S
C1436 N1443 1.356 . S
C1437 C1436 1.363 . S
C1437 C1440 1.363 . S
N1438 C1440 1.356 . S
N1438 H1450 0.984 . S
N1438 H1451 0.985 . S
N1439 C1441 1.356 . S
N1439 H1444 0.984 . S
N1439 H1445 0.985 . S
C1440 C1434 1.379 . S
C1440 C1437 1.363 . S
C1440 N1438 1.356 . S
C1441 C1435 1.363 . S
C1441 C1436 1.379 . S
C1441 N1439 1.356 . S
N1442 C1434 1.356 . S
N1442 H1448 0.984 . S
N1442 H1449 0.984 . S
N1443 C1436 1.356 . S
N1443 H1446 0.984 . S
N1443 H1447 0.985 . S
H1444 N1439 0.984 . S
H1445 N1439 0.985 . S
H1446 N1443 0.984 . S
H1447 N1443 0.985 . S
H1448 N1442 0.984 . S
H1449 N1442 0.984 . S
H1450 N1438 0.984 . S
H1451 N1438 0.985 . S
C1452 C1453 1.363 . S
C1452 C1458 1.379 . S
C1452 N1460 1.356 . S
C1453 C1452 1.363 . S
C1453 C1459 1.363 . S
C1454 C1455 1.363 . S
C1454 C1459 1.379 . S
C1454 N1461 1.356 . S
C1455 C1454 1.363 . S
C1455 C1458 1.363 . S
N1456 C1458 1.356 . S
N1456 H1468 0.984 . S
N1456 H1469 0.985 . S
N1457 C1459 1.356 . S
N1457 H1462 0.984 . S
N1457 H1463 0.985 . S
C1458 C1452 1.379 . S
C1458 C1455 1.363 . S
C1458 N1456 1.356 . S
C1459 C1453 1.363 . S
C1459 C1454 1.379 . S
C1459 N1457 1.356 . S
N1460 C1452 1.356 . S
N1460 H1466 0.984 . S
N1460 H1467 0.984 . S
N1461 C1454 1.356 . S
N1461 H1464 0.984 . S
N1461 H1465 0.985 . S
H1462 N1457 0.984 . S
H1463 N1457 0.985 . S
H1464 N1461 0.984 . S
H1465 N1461 0.985 . S
H1466 N1460 0.984 . S
H1467 N1460 0.984 . S
H1468 N1456 0.984 . S
H1469 N1456 0.985 . S
C1470 C1471 1.363 . S
C1470 C1476 1.379 . S
C1470 N1478 1.356 . S
C1471 C1470 1.363 . S
C1471 C1477 1.363 . S
C1472 C1473 1.363 . S
C1472 C1477 1.379 . S
C1472 N1479 1.356 . S
C1473 C1472 1.363 . S
C1473 C1476 1.363 . S
N1474 C1476 1.356 . S
N1474 H1486 0.984 . S
N1474 H1487 0.985 . S
N1475 C1477 1.356 . S
N1475 H1480 0.984 . S
N1475 H1481 0.985 . S
C1476 C1470 1.379 . S
C1476 C1473 1.363 . S
C1476 N1474 1.356 . S
C1477 C1471 1.363 . S
C1477 C1472 1.379 . S
C1477 N1475 1.356 . S
N1478 C1470 1.356 . S
N1478 H1484 0.984 . S
N1478 H1485 0.984 . S
N1479 C1472 1.356 . S
N1479 H1482 0.984 . S
N1479 H1483 0.985 . S
H1480 N1475 0.984 . S
H1481 N1475 0.985 . S
H1482 N1479 0.984 . S
H1483 N1479 0.985 . S
H1484 N1478 0.984 . S
H1485 N1478 0.984 . S
H1486 N1474 0.984 . S
H1487 N1474 0.985 . S
C1488 C1489 1.363 . S
C1488 C1494 1.379 . S
C1488 N1496 1.356 . S
C1489 C1488 1.363 . S
C1489 C1495 1.363 . S
C1490 C1491 1.363 . S
C1490 C1495 1.379 . S
C1490 N1497 1.356 . S
C1491 C1490 1.363 . S
C1491 C1494 1.363 . S
N1492 C1494 1.356 . S
N1492 H1504 0.984 . S
N1492 H1505 0.985 . S
N1493 C1495 1.356 . S
N1493 H1498 0.984 . S
N1493 H1499 0.985 . S
C1494 C1488 1.379 . S
C1494 C1491 1.363 . S
C1494 N1492 1.356 . S
C1495 C1489 1.363 . S
C1495 C1490 1.379 . S
C1495 N1493 1.356 . S
N1496 C1488 1.356 . S
N1496 H1502 0.984 . S
N1496 H1503 0.984 . S
N1497 C1490 1.356 . S
N1497 H1500 0.984 . S
N1497 H1501 0.985 . S
H1498 N1493 0.984 . S
H1499 N1493 0.985 . S
H1500 N1497 0.984 . S
H1501 N1497 0.985 . S
H1502 N1496 0.984 . S
H1503 N1496 0.984 . S
H1504 N1492 0.984 . S
H1505 N1492 0.985 . S
C1506 C1507 1.363 . S
C1506 C1512 1.379 . S
C1506 N1514 1.356 . S
C1507 C1506 1.363 . S
C1507 C1513 1.363 . S
C1508 C1509 1.363 . S
C1508 C1513 1.379 . S
C1508 N1515 1.356 . S
C1509 C1508 1.363 . S
C1509 C1512 1.363 . S
N1510 C1512 1.356 . S
N1510 H1522 0.984 . S
N1510 H1523 0.985 . S
N1511 C1513 1.356 . S
N1511 H1516 0.984 . S
N1511 H1517 0.985 . S
C1512 C1506 1.379 . S
C1512 C1509 1.363 . S
C1512 N1510 1.356 . S
C1513 C1507 1.363 . S
C1513 C1508 1.379 . S
C1513 N1511 1.356 . S
N1514 C1506 1.356 . S
N1514 H1520 0.984 . S
N1514 H1521 0.984 . S
N1515 C1508 1.356 . S
N1515 H1518 0.984 . S
N1515 H1519 0.985 . S
H1516 N1511 0.984 . S
H1517 N1511 0.985 . S
H1518 N1515 0.984 . S
H1519 N1515 0.985 . S
H1520 N1514 0.984 . S
H1521 N1514 0.984 . S
H1522 N1510 0.984 . S
H1523 N1510 0.985 . S
C1524 C1525 1.363 . S
C1524 C1530 1.379 . S
C1524 N1532 1.356 . S
C1525 C1524 1.363 . S
C1525 C1531 1.363 . S
C1526 C1527 1.363 . S
C1526 C1531 1.379 . S
C1526 N1533 1.356 . S
C1527 C1526 1.363 . S
C1527 C1530 1.363 . S
N1528 C1530 1.356 . S
N1528 H1540 0.984 . S
N1528 H1541 0.985 . S
N1529 C1531 1.356 . S
N1529 H1534 0.984 . S
N1529 H1535 0.985 . S
C1530 C1524 1.379 . S
C1530 C1527 1.363 . S
C1530 N1528 1.356 . S
C1531 C1525 1.363 . S
C1531 C1526 1.379 . S
C1531 N1529 1.356 . S
N1532 C1524 1.356 . S
N1532 H1538 0.984 . S
N1532 H1539 0.984 . S
N1533 C1526 1.356 . S
N1533 H1536 0.984 . S
N1533 H1537 0.985 . S
H1534 N1529 0.984 . S
H1535 N1529 0.985 . S
H1536 N1533 0.984 . S
H1537 N1533 0.985 . S
H1538 N1532 0.984 . S
H1539 N1532 0.984 . S
H1540 N1528 0.984 . S
H1541 N1528 0.985 . S
C1542 C1543 1.363 . S
C1542 C1548 1.379 . S
C1542 N1550 1.356 . S
C1543 C1542 1.363 . S
C1543 C1549 1.363 . S
C1544 C1545 1.363 . S
C1544 C1549 1.379 . S
C1544 N1551 1.356 . S
C1545 C1544 1.363 . S
C1545 C1548 1.363 . S
N1546 C1548 1.356 . S
N1546 H1558 0.984 . S
N1546 H1559 0.985 . S
N1547 C1549 1.356 . S
N1547 H1552 0.984 . S
N1547 H1553 0.985 . S
C1548 C1542 1.379 . S
C1548 C1545 1.363 . S
C1548 N1546 1.356 . S
C1549 C1543 1.363 . S
C1549 C1544 1.379 . S
C1549 N1547 1.356 . S
N1550 C1542 1.356 . S
N1550 H1556 0.984 . S
N1550 H1557 0.984 . S
N1551 C1544 1.356 . S
N1551 H1554 0.984 . S
N1551 H1555 0.985 . S
H1552 N1547 0.984 . S
H1553 N1547 0.985 . S
H1554 N1551 0.984 . S
H1555 N1551 0.985 . S
H1556 N1550 0.984 . S
H1557 N1550 0.984 . S
H1558 N1546 0.984 . S
H1559 N1546 0.985 . S
C1560 C1561 1.363 . S
C1560 C1566 1.379 . S
C1560 N1568 1.356 . S
C1561 C1560 1.363 . S
C1561 C1567 1.363 . S
C1562 C1563 1.363 . S
C1562 C1567 1.379 . S
C1562 N1569 1.356 . S
C1563 C1562 1.363 . S
C1563 C1566 1.363 . S
N1564 C1566 1.356 . S
N1564 H1576 0.984 . S
N1564 H1577 0.985 . S
N1565 C1567 1.356 . S
N1565 H1570 0.984 . S
N1565 H1571 0.985 . S
C1566 C1560 1.379 . S
C1566 C1563 1.363 . S
C1566 N1564 1.356 . S
C1567 C1561 1.363 . S
C1567 C1562 1.379 . S
C1567 N1565 1.356 . S
N1568 C1560 1.356 . S
N1568 H1574 0.984 . S
N1568 H1575 0.984 . S
N1569 C1562 1.356 . S
N1569 H1572 0.984 . S
N1569 H1573 0.985 . S
H1570 N1565 0.984 . S
H1571 N1565 0.985 . S
H1572 N1569 0.984 . S
H1573 N1569 0.985 . S
H1574 N1568 0.984 . S
H1575 N1568 0.984 . S
H1576 N1564 0.984 . S
H1577 N1564 0.985 . S
C1578 C1579 1.363 . S
C1578 C1584 1.379 . S
C1578 N1586 1.356 . S
C1579 C1578 1.363 . S
C1579 C1585 1.363 . S
C1580 C1581 1.363 . S
C1580 C1585 1.379 . S
C1580 N1587 1.356 . S
C1581 C1580 1.363 . S
C1581 C1584 1.363 . S
N1582 C1584 1.356 . S
N1582 H1594 0.984 . S
N1582 H1595 0.985 . S
N1583 C1585 1.356 . S
N1583 H1588 0.984 . S
N1583 H1589 0.985 . S
C1584 C1578 1.379 . S
C1584 C1581 1.363 . S
C1584 N1582 1.356 . S
C1585 C1579 1.363 . S
C1585 C1580 1.379 . S
C1585 N1583 1.356 . S
N1586 C1578 1.356 . S
N1586 H1592 0.984 . S
N1586 H1593 0.984 . S
N1587 C1580 1.356 . S
N1587 H1590 0.984 . S
N1587 H1591 0.985 . S
H1588 N1583 0.984 . S
H1589 N1583 0.985 . S
H1590 N1587 0.984 . S
H1591 N1587 0.985 . S
H1592 N1586 0.984 . S
H1593 N1586 0.984 . S
H1594 N1582 0.984 . S
H1595 N1582 0.985 . S
C1596 C1597 1.363 . S
C1596 C1602 1.379 . S
C1596 N1604 1.356 . S
C1597 C1596 1.363 . S
C1597 C1603 1.363 . S
C1598 C1599 1.363 . S
C1598 C1603 1.379 . S
C1598 N1605 1.356 . S
C1599 C1598 1.363 . S
C1599 C1602 1.363 . S
N1600 C1602 1.356 . S
N1600 H1612 0.984 . S
N1600 H1613 0.985 . S
N1601 C1603 1.356 . S
N1601 H1606 0.984 . S
N1601 H1607 0.985 . S
C1602 C1596 1.379 . S
C1602 C1599 1.363 . S
C1602 N1600 1.356 . S
C1603 C1597 1.363 . S
C1603 C1598 1.379 . S
C1603 N1601 1.356 . S
N1604 C1596 1.356 . S
N1604 H1610 0.984 . S
N1604 H1611 0.984 . S
N1605 C1598 1.356 . S
N1605 H1608 0.984 . S
N1605 H1609 0.985 . S
H1606 N1601 0.984 . S
H1607 N1601 0.985 . S
H1608 N1605 0.984 . S
H1609 N1605 0.985 . S
H1610 N1604 0.984 . S
H1611 N1604 0.984 . S
H1612 N1600 0.984 . S
H1613 N1600 0.985 . S
C1614 C1615 1.363 . S
C1614 C1620 1.379 . S
C1614 N1622 1.356 . S
C1615 C1614 1.363 . S
C1615 C1621 1.363 . S
C1616 C1617 1.363 . S
C1616 C1621 1.379 . S
C1616 N1623 1.356 . S
C1617 C1616 1.363 . S
C1617 C1620 1.363 . S
N1618 C1620 1.356 . S
N1618 H1630 0.984 . S
N1618 H1631 0.985 . S
N1619 C1621 1.356 . S
N1619 H1624 0.984 . S
N1619 H1625 0.985 . S
C1620 C1614 1.379 . S
C1620 C1617 1.363 . S
C1620 N1618 1.356 . S
C1621 C1615 1.363 . S
C1621 C1616 1.379 . S
C1621 N1619 1.356 . S
N1622 C1614 1.356 . S
N1622 H1628 0.984 . S
N1622 H1629 0.984 . S
N1623 C1616 1.356 . S
N1623 H1626 0.984 . S
N1623 H1627 0.985 . S
H1624 N1619 0.984 . S
H1625 N1619 0.985 . S
H1626 N1623 0.984 . S
H1627 N1623 0.985 . S
H1628 N1622 0.984 . S
H1629 N1622 0.984 . S
H1630 N1618 0.984 . S
H1631 N1618 0.985 . S
C1632 C1633 1.363 . S
C1632 C1638 1.379 . S
C1632 N1640 1.356 . S
C1633 C1632 1.363 . S
C1633 C1639 1.363 . S
C1634 C1635 1.363 . S
C1634 C1639 1.379 . S
C1634 N1641 1.356 . S
C1635 C1634 1.363 . S
C1635 C1638 1.363 . S
N1636 C1638 1.356 . S
N1636 H1648 0.984 . S
N1636 H1649 0.985 . S
N1637 C1639 1.356 . S
N1637 H1642 0.984 . S
N1637 H1643 0.985 . S
C1638 C1632 1.379 . S
C1638 C1635 1.363 . S
C1638 N1636 1.356 . S
C1639 C1633 1.363 . S
C1639 C1634 1.379 . S
C1639 N1637 1.356 . S
N1640 C1632 1.356 . S
N1640 H1646 0.984 . S
N1640 H1647 0.984 . S
N1641 C1634 1.356 . S
N1641 H1644 0.984 . S
N1641 H1645 0.985 . S
H1642 N1637 0.984 . S
H1643 N1637 0.985 . S
H1644 N1641 0.984 . S
H1645 N1641 0.985 . S
H1646 N1640 0.984 . S
H1647 N1640 0.984 . S
H1648 N1636 0.984 . S
H1649 N1636 0.985 . S
C1650 C1651 1.363 . S
C1650 C1656 1.379 . S
C1650 N1658 1.356 . S
C1651 C1650 1.363 . S
C1651 C1657 1.363 . S
C1652 C1653 1.363 . S
C1652 C1657 1.379 . S
C1652 N1659 1.356 . S
C1653 C1652 1.363 . S
C1653 C1656 1.363 . S
N1654 C1656 1.356 . S
N1654 H1666 0.984 . S
N1654 H1667 0.985 . S
N1655 C1657 1.356 . S
N1655 H1660 0.984 . S
N1655 H1661 0.985 . S
C1656 C1650 1.379 . S
C1656 C1653 1.363 . S
C1656 N1654 1.356 . S
C1657 C1651 1.363 . S
C1657 C1652 1.379 . S
C1657 N1655 1.356 . S
N1658 C1650 1.356 . S
N1658 H1664 0.984 . S
N1658 H1665 0.984 . S
N1659 C1652 1.356 . S
N1659 H1662 0.984 . S
N1659 H1663 0.985 . S
H1660 N1655 0.984 . S
H1661 N1655 0.985 . S
H1662 N1659 0.984 . S
H1663 N1659 0.985 . S
H1664 N1658 0.984 . S
H1665 N1658 0.984 . S
H1666 N1654 0.984 . S
H1667 N1654 0.985 . S
C1668 C1669 1.363 . S
C1668 C1674 1.379 . S
C1668 N1676 1.356 . S
C1669 C1668 1.363 . S
C1669 C1675 1.363 . S
C1670 C1671 1.363 . S
C1670 C1675 1.379 . S
C1670 N1677 1.356 . S
C1671 C1670 1.363 . S
C1671 C1674 1.363 . S
N1672 C1674 1.356 . S
N1672 H1684 0.984 . S
N1672 H1685 0.985 . S
N1673 C1675 1.356 . S
N1673 H1678 0.984 . S
N1673 H1679 0.985 . S
C1674 C1668 1.379 . S
C1674 C1671 1.363 . S
C1674 N1672 1.356 . S
C1675 C1669 1.363 . S
C1675 C1670 1.379 . S
C1675 N1673 1.356 . S
N1676 C1668 1.356 . S
N1676 H1682 0.984 . S
N1676 H1683 0.984 . S
N1677 C1670 1.356 . S
N1677 H1680 0.984 . S
N1677 H1681 0.985 . S
H1678 N1673 0.984 . S
H1679 N1673 0.985 . S
H1680 N1677 0.984 . S
H1681 N1677 0.985 . S
H1682 N1676 0.984 . S
H1683 N1676 0.984 . S
H1684 N1672 0.984 . S
H1685 N1672 0.985 . S
C1686 C1687 1.363 . S
C1686 C1692 1.379 . S
C1686 N1694 1.356 . S
C1687 C1686 1.363 . S
C1687 C1693 1.363 . S
C1688 C1689 1.363 . S
C1688 C1693 1.379 . S
C1688 N1695 1.356 . S
C1689 C1688 1.363 . S
C1689 C1692 1.363 . S
N1690 C1692 1.356 . S
N1690 H1702 0.984 . S
N1690 H1703 0.985 . S
N1691 C1693 1.356 . S
N1691 H1696 0.984 . S
N1691 H1697 0.985 . S
C1692 C1686 1.379 . S
C1692 C1689 1.363 . S
C1692 N1690 1.356 . S
C1693 C1687 1.363 . S
C1693 C1688 1.379 . S
C1693 N1691 1.356 . S
N1694 C1686 1.356 . S
N1694 H1700 0.984 . S
N1694 H1701 0.984 . S
N1695 C1688 1.356 . S
N1695 H1698 0.984 . S
N1695 H1699 0.985 . S
H1696 N1691 0.984 . S
H1697 N1691 0.985 . S
H1698 N1695 0.984 . S
H1699 N1695 0.985 . S
H1700 N1694 0.984 . S
H1701 N1694 0.984 . S
H1702 N1690 0.984 . S
H1703 N1690 0.985 . S
C1704 C1705 1.363 . S
C1704 C1710 1.379 . S
C1704 N1712 1.356 . S
C1705 C1704 1.363 . S
C1705 C1711 1.363 . S
C1706 C1707 1.363 . S
C1706 C1711 1.379 . S
C1706 N1713 1.356 . S
C1707 C1706 1.363 . S
C1707 C1710 1.363 . S
N1708 C1710 1.356 . S
N1708 H1720 0.984 . S
N1708 H1721 0.985 . S
N1709 C1711 1.356 . S
N1709 H1714 0.984 . S
N1709 H1715 0.985 . S
C1710 C1704 1.379 . S
C1710 C1707 1.363 . S
C1710 N1708 1.356 . S
C1711 C1705 1.363 . S
C1711 C1706 1.379 . S
C1711 N1709 1.356 . S
N1712 C1704 1.356 . S
N1712 H1718 0.984 . S
N1712 H1719 0.984 . S
N1713 C1706 1.356 . S
N1713 H1716 0.984 . S
N1713 H1717 0.985 . S
H1714 N1709 0.984 . S
H1715 N1709 0.985 . S
H1716 N1713 0.984 . S
H1717 N1713 0.985 . S
H1718 N1712 0.984 . S
H1719 N1712 0.984 . S
H1720 N1708 0.984 . S
H1721 N1708 0.985 . S
C1722 C1723 1.363 . S
C1722 C1728 1.379 . S
C1722 N1730 1.356 . S
C1723 C1722 1.363 . S
C1723 C1729 1.363 . S
C1724 C1725 1.363 . S
C1724 C1729 1.379 . S
C1724 N1731 1.356 . S
C1725 C1724 1.363 . S
C1725 C1728 1.363 . S
N1726 C1728 1.356 . S
N1726 H1738 0.984 . S
N1726 H1739 0.985 . S
N1727 C1729 1.356 . S
N1727 H1732 0.984 . S
N1727 H1733 0.985 . S
C1728 C1722 1.379 . S
C1728 C1725 1.363 . S
C1728 N1726 1.356 . S
C1729 C1723 1.363 . S
C1729 C1724 1.379 . S
C1729 N1727 1.356 . S
N1730 C1722 1.356 . S
N1730 H1736 0.984 . S
N1730 H1737 0.984 . S
N1731 C1724 1.356 . S
N1731 H1734 0.984 . S
N1731 H1735 0.985 . S
H1732 N1727 0.984 . S
H1733 N1727 0.985 . S
H1734 N1731 0.984 . S
H1735 N1731 0.985 . S
H1736 N1730 0.984 . S
H1737 N1730 0.984 . S
H1738 N1726 0.984 . S
H1739 N1726 0.985 . S
C1740 C1741 1.363 . S
C1740 C1746 1.379 . S
C1740 N1748 1.356 . S
C1741 C1740 1.363 . S
C1741 C1747 1.363 . S
C1742 C1743 1.363 . S
C1742 C1747 1.379 . S
C1742 N1749 1.356 . S
C1743 C1742 1.363 . S
C1743 C1746 1.363 . S
N1744 C1746 1.356 . S
N1744 H1756 0.984 . S
N1744 H1757 0.985 . S
N1745 C1747 1.356 . S
N1745 H1750 0.984 . S
N1745 H1751 0.985 . S
C1746 C1740 1.379 . S
C1746 C1743 1.363 . S
C1746 N1744 1.356 . S
C1747 C1741 1.363 . S
C1747 C1742 1.379 . S
C1747 N1745 1.356 . S
N1748 C1740 1.356 . S
N1748 H1754 0.984 . S
N1748 H1755 0.984 . S
N1749 C1742 1.356 . S
N1749 H1752 0.984 . S
N1749 H1753 0.985 . S
H1750 N1745 0.984 . S
H1751 N1745 0.985 . S
H1752 N1749 0.984 . S
H1753 N1749 0.985 . S
H1754 N1748 0.984 . S
H1755 N1748 0.984 . S
H1756 N1744 0.984 . S
H1757 N1744 0.985 . S
C1758 C1759 1.363 . S
C1758 C1764 1.379 . S
C1758 N1766 1.356 . S
C1759 C1758 1.363 . S
C1759 C1765 1.363 . S
C1760 C1761 1.363 . S
C1760 C1765 1.379 . S
C1760 N1767 1.356 . S
C1761 C1760 1.363 . S
C1761 C1764 1.363 . S
N1762 C1764 1.356 . S
N1762 H1774 0.984 . S
N1762 H1775 0.985 . S
N1763 C1765 1.356 . S
N1763 H1768 0.984 . S
N1763 H1769 0.985 . S
C1764 C1758 1.379 . S
C1764 C1761 1.363 . S
C1764 N1762 1.356 . S
C1765 C1759 1.363 . S
C1765 C1760 1.379 . S
C1765 N1763 1.356 . S
N1766 C1758 1.356 . S
N1766 H1772 0.984 . S
N1766 H1773 0.984 . S
N1767 C1760 1.356 . S
N1767 H1770 0.984 . S
N1767 H1771 0.985 . S
H1768 N1763 0.984 . S
H1769 N1763 0.985 . S
H1770 N1767 0.984 . S
H1771 N1767 0.985 . S
H1772 N1766 0.984 . S
H1773 N1766 0.984 . S
H1774 N1762 0.984 . S
H1775 N1762 0.985 . S
C1776 C1777 1.363 . S
C1776 C1782 1.379 . S
C1776 N1784 1.356 . S
C1777 C1776 1.363 . S
C1777 C1783 1.363 . S
C1778 C1779 1.363 . S
C1778 C1783 1.379 . S
C1778 N1785 1.356 . S
C1779 C1778 1.363 . S
C1779 C1782 1.363 . S
N1780 C1782 1.356 . S
N1780 H1792 0.984 . S
N1780 H1793 0.985 . S
N1781 C1783 1.356 . S
N1781 H1786 0.984 . S
N1781 H1787 0.985 . S
C1782 C1776 1.379 . S
C1782 C1779 1.363 . S
C1782 N1780 1.356 . S
C1783 C1777 1.363 . S
C1783 C1778 1.379 . S
C1783 N1781 1.356 . S
N1784 C1776 1.356 . S
N1784 H1790 0.984 . S
N1784 H1791 0.984 . S
N1785 C1778 1.356 . S
N1785 H1788 0.984 . S
N1785 H1789 0.985 . S
H1786 N1781 0.984 . S
H1787 N1781 0.985 . S
H1788 N1785 0.984 . S
H1789 N1785 0.985 . S
H1790 N1784 0.984 . S
H1791 N1784 0.984 . S
H1792 N1780 0.984 . S
H1793 N1780 0.985 . S
C1794 C1795 1.363 . S
C1794 C1800 1.379 . S
C1794 N1802 1.356 . S
C1795 C1794 1.363 . S
C1795 C1801 1.363 . S
C1796 C1797 1.363 . S
C1796 C1801 1.379 . S
C1796 N1803 1.356 . S
C1797 C1796 1.363 . S
C1797 C1800 1.363 . S
N1798 C1800 1.356 . S
N1798 H1810 0.984 . S
N1798 H1811 0.985 . S
N1799 C1801 1.356 . S
N1799 H1804 0.984 . S
N1799 H1805 0.985 . S
C1800 C1794 1.379 . S
C1800 C1797 1.363 . S
C1800 N1798 1.356 . S
C1801 C1795 1.363 . S
C1801 C1796 1.379 . S
C1801 N1799 1.356 . S
N1802 C1794 1.356 . S
N1802 H1808 0.984 . S
N1802 H1809 0.984 . S
N1803 C1796 1.356 . S
N1803 H1806 0.984 . S
N1803 H1807 0.985 . S
H1804 N1799 0.984 . S
H1805 N1799 0.985 . S
H1806 N1803 0.984 . S
H1807 N1803 0.985 . S
H1808 N1802 0.984 . S
H1809 N1802 0.984 . S
H1810 N1798 0.984 . S
H1811 N1798 0.985 . S
C951 C334 1.163 . S
C949 N2 1.281 . S
C969 C434 2.037 . S
C967 C7 2.043 . S
C987 C514 1.200 . S
C985 N12 1.462 . S
C1003 C16 1.827 . S
C1005 C591 1.875 . S
C1023 C675 2.094 . S
C1021 C30 2.101 1_565 S
C1041 C754 1.027 . S
C1039 N35 1.331 . S
C1057 C39 2.005 . S
C1059 C854 1.991 . S
C1077 C934 1.129 . S
C1075 N25 1.168 1_565 S
C1095 C332 1.245 . S
C1093 N58 1.289 . S
C1111 N81 2.016 . S
C1113 C427 2.020 . S
C1131 C518 1.388 . S
C1129 N104 1.253 . S
C1147 N127 1.330 . S
C1149 C586 0.973 . S
C1167 C670 0.839 . S
C1165 N48 1.156 . S
C1185 C752 1.483 . S
C1183 N71 1.383 1_556 S
C1201 N94 1.703 . S
C1203 C847 1.741 . S
C1221 C938 1.559 . S
C1219 N117 1.506 . S
C1237 C85 2.292 . S
C1239 C339 2.289 . S
C1255 C122 2.514 . S
C1257 C668 2.503 . S
C1273 C53 1.997 . S
C1275 C759 2.098 . S
C1293 C850 1.237 . S
C1291 C76 1.552 . S
C1311 C931 1.990 . S
C1309 C99 2.107 . S
C1329 C511 2.037 . S
C1327 C131 2.076 . S
C1347 C584 2.225 . S
C1345 C62 2.247 . S
C1363 C108 1.335 . S
C1365 C430 1.074 . S
C1383 C922 1.143 . S
C1381 N140 1.324 . S
C1399 C145 2.033 . S
C1401 C686 2.027 . S
C1419 C766 1.123 . S
C1417 N150 1.317 . S
C1435 C154 1.828 . S
C1437 C843 1.877 . S
C1455 C423 2.099 . S
C1453 C168 2.106 . S
C1471 N173 1.181 . S
C1473 C502 0.974 . S
C1491 C602 1.998 . S
C1489 C177 2.014 . S
C1509 C346 1.095 . S
C1507 N163 1.160 . S
C1527 C920 1.667 . S
C1525 C200 1.712 . S
C1545 C679 2.296 . S
C1543 N219 2.293 . S
C1561 N242 1.518 . S
C1563 C770 1.670 . S
C1581 C838 1.190 . S
C1579 C269 1.607 . S
C1599 C418 1.022 . S
C1597 C191 1.374 . S
C1615 N209 1.655 . S
C1617 C500 1.755 . S
C1633 N232 1.991 . S
C1635 C595 2.031 . S
C1651 C260 2.040 . S
C1653 C350 2.043 . S
C1669 C223 1.974 . S
C1671 C927 1.972 . S
C1687 N255 2.139 . S
C1689 C416 2.118 . S
C1705 N186 1.689 . S
C1707 C507 1.780 . S
C1725 C598 1.021 . S
C1723 C214 1.237 . S
C1743 C343 1.695 . S
C1741 C237 1.798 . S
C1761 C763 1.677 . S
C1759 N265 1.580 . S
C1779 C836 1.849 . S
C1777 N196 1.827 . S
C1797 C682 0.888 . S
C1795 C246 1.025 . S
