# Generated by pormake.
# Topology eea, (3,6)-cn, num edge types: 1
# Building blocks:
#     Node 0, Type 0, BuildingBlock: WUSLED_clean_sbu_0, # of connection points: 3
#     Node 1, Type 0, BuildingBlock: WUSLED_clean_sbu_0, # of connection points: 3
#     Node 2, Type 0, BuildingBlock: WUSLED_clean_sbu_0, # of connection points: 3
#     Node 3, Type 0, BuildingBlock: WUSLED_clean_sbu_0, # of connection points: 3
#     Node 4, Type 0, BuildingBlock: WUSLED_clean_sbu_0, # of connection points: 3
#     Node 5, Type 0, BuildingBlock: WUSLED_clean_sbu_0, # of connection points: 3
#     Node 6, Type 0, BuildingBlock: WUSLED_clean_sbu_0, # of connection points: 3
#     Node 7, Type 0, BuildingBlock: WUSLED_clean_sbu_0, # of connection points: 3
#     Node 8, Type 0, BuildingBlock: WUSLED_clean_sbu_0, # of connection points: 3
#     Node 9, Type 0, BuildingBlock: WUSLED_clean_sbu_0, # of connection points: 3
#     Node 10, Type 0, BuildingBlock: WUSLED_clean_sbu_0, # of connection points: 3
#     Node 11, Type 0, BuildingBlock: WUSLED_clean_sbu_0, # of connection points: 3
#     Node 12, Type 0, BuildingBlock: WUSLED_clean_sbu_0, # of connection points: 3
#     Node 13, Type 0, BuildingBlock: WUSLED_clean_sbu_0, # of connection points: 3
#     Node 14, Type 0, BuildingBlock: WUSLED_clean_sbu_0, # of connection points: 3
#     Node 15, Type 0, BuildingBlock: WUSLED_clean_sbu_0, # of connection points: 3
#     Node 16, Type 0, BuildingBlock: WUSLED_clean_sbu_0, # of connection points: 3
#     Node 17, Type 0, BuildingBlock: WUSLED_clean_sbu_0, # of connection points: 3
#     Node 18, Type 1, BuildingBlock: HISSIN_clean_sbu_0, # of connection points: 6
#     Node 19, Type 1, BuildingBlock: HISSIN_clean_sbu_0, # of connection points: 6
#     Node 20, Type 1, BuildingBlock: HISSIN_clean_sbu_0, # of connection points: 6
#     Node 21, Type 1, BuildingBlock: HISSIN_clean_sbu_0, # of connection points: 6
#     Node 22, Type 1, BuildingBlock: HISSIN_clean_sbu_0, # of connection points: 6
#     Node 23, Type 1, BuildingBlock: HISSIN_clean_sbu_0, # of connection points: 6
#     Node 24, Type 1, BuildingBlock: HISSIN_clean_sbu_0, # of connection points: 6
#     Node 25, Type 1, BuildingBlock: HISSIN_clean_sbu_0, # of connection points: 6
#     Node 26, Type 1, BuildingBlock: HISSIN_clean_sbu_0, # of connection points: 6
#     Edge 27, Type (0, 1), BuildingBlock: AJUNOK_clean_linker_0, # of connection points: 2
#     Edge 28, Type (0, 1), BuildingBlock: AJUNOK_clean_linker_0, # of connection points: 2
#     Edge 29, Type (0, 1), BuildingBlock: AJUNOK_clean_linker_0, # of connection points: 2
#     Edge 30, Type (0, 1), BuildingBlock: AJUNOK_clean_linker_0, # of connection points: 2
#     Edge 31, Type (0, 1), BuildingBlock: AJUNOK_clean_linker_0, # of connection points: 2
#     Edge 32, Type (0, 1), BuildingBlock: AJUNOK_clean_linker_0, # of connection points: 2
#     Edge 33, Type (0, 1), BuildingBlock: AJUNOK_clean_linker_0, # of connection points: 2
#     Edge 34, Type (0, 1), BuildingBlock: AJUNOK_clean_linker_0, # of connection points: 2
#     Edge 35, Type (0, 1), BuildingBlock: AJUNOK_clean_linker_0, # of connection points: 2
#     Edge 36, Type (0, 1), BuildingBlock: AJUNOK_clean_linker_0, # of connection points: 2
#     Edge 37, Type (0, 1), BuildingBlock: AJUNOK_clean_linker_0, # of connection points: 2
#     Edge 38, Type (0, 1), BuildingBlock: AJUNOK_clean_linker_0, # of connection points: 2
#     Edge 39, Type (0, 1), BuildingBlock: AJUNOK_clean_linker_0, # of connection points: 2
#     Edge 40, Type (0, 1), BuildingBlock: AJUNOK_clean_linker_0, # of connection points: 2
#     Edge 41, Type (0, 1), BuildingBlock: AJUNOK_clean_linker_0, # of connection points: 2
#     Edge 42, Type (0, 1), BuildingBlock: AJUNOK_clean_linker_0, # of connection points: 2
#     Edge 43, Type (0, 1), BuildingBlock: AJUNOK_clean_linker_0, # of connection points: 2
#     Edge 44, Type (0, 1), BuildingBlock: AJUNOK_clean_linker_0, # of connection points: 2
#     Edge 45, Type (0, 1), BuildingBlock: AJUNOK_clean_linker_0, # of connection points: 2
#     Edge 46, Type (0, 1), BuildingBlock: AJUNOK_clean_linker_0, # of connection points: 2
#     Edge 47, Type (0, 1), BuildingBlock: AJUNOK_clean_linker_0, # of connection points: 2
#     Edge 48, Type (0, 1), BuildingBlock: AJUNOK_clean_linker_0, # of connection points: 2
#     Edge 49, Type (0, 1), BuildingBlock: AJUNOK_clean_linker_0, # of connection points: 2
#     Edge 50, Type (0, 1), BuildingBlock: AJUNOK_clean_linker_0, # of connection points: 2
#     Edge 51, Type (0, 1), BuildingBlock: AJUNOK_clean_linker_0, # of connection points: 2
#     Edge 52, Type (0, 1), BuildingBlock: AJUNOK_clean_linker_0, # of connection points: 2
#     Edge 53, Type (0, 1), BuildingBlock: AJUNOK_clean_linker_0, # of connection points: 2
#     Edge 54, Type (0, 1), BuildingBlock: AJUNOK_clean_linker_0, # of connection points: 2
#     Edge 55, Type (0, 1), BuildingBlock: AJUNOK_clean_linker_0, # of connection points: 2
#     Edge 56, Type (0, 1), BuildingBlock: AJUNOK_clean_linker_0, # of connection points: 2
#     Edge 57, Type (0, 1), BuildingBlock: AJUNOK_clean_linker_0, # of connection points: 2
#     Edge 58, Type (0, 1), BuildingBlock: AJUNOK_clean_linker_0, # of connection points: 2
#     Edge 59, Type (0, 1), BuildingBlock: AJUNOK_clean_linker_0, # of connection points: 2
#     Edge 60, Type (0, 1), BuildingBlock: AJUNOK_clean_linker_0, # of connection points: 2
#     Edge 61, Type (0, 1), BuildingBlock: AJUNOK_clean_linker_0, # of connection points: 2
#     Edge 62, Type (0, 1), BuildingBlock: AJUNOK_clean_linker_0, # of connection points: 2
#     Edge 63, Type (0, 1), BuildingBlock: AJUNOK_clean_linker_0, # of connection points: 2
#     Edge 64, Type (0, 1), BuildingBlock: AJUNOK_clean_linker_0, # of connection points: 2
#     Edge 65, Type (0, 1), BuildingBlock: AJUNOK_clean_linker_0, # of connection points: 2
#     Edge 66, Type (0, 1), BuildingBlock: AJUNOK_clean_linker_0, # of connection points: 2
#     Edge 67, Type (0, 1), BuildingBlock: AJUNOK_clean_linker_0, # of connection points: 2
#     Edge 68, Type (0, 1), BuildingBlock: AJUNOK_clean_linker_0, # of connection points: 2
#     Edge 69, Type (0, 1), BuildingBlock: AJUNOK_clean_linker_0, # of connection points: 2
#     Edge 70, Type (0, 1), BuildingBlock: AJUNOK_clean_linker_0, # of connection points: 2
#     Edge 71, Type (0, 1), BuildingBlock: AJUNOK_clean_linker_0, # of connection points: 2
#     Edge 72, Type (0, 1), BuildingBlock: AJUNOK_clean_linker_0, # of connection points: 2
#     Edge 73, Type (0, 1), BuildingBlock: AJUNOK_clean_linker_0, # of connection points: 2
#     Edge 74, Type (0, 1), BuildingBlock: AJUNOK_clean_linker_0, # of connection points: 2
#     Edge 75, Type (0, 1), BuildingBlock: AJUNOK_clean_linker_0, # of connection points: 2
#     Edge 76, Type (0, 1), BuildingBlock: AJUNOK_clean_linker_0, # of connection points: 2
#     Edge 77, Type (0, 1), BuildingBlock: AJUNOK_clean_linker_0, # of connection points: 2
#     Edge 78, Type (0, 1), BuildingBlock: AJUNOK_clean_linker_0, # of connection points: 2
#     Edge 79, Type (0, 1), BuildingBlock: AJUNOK_clean_linker_0, # of connection points: 2
#     Edge 80, Type (0, 1), BuildingBlock: AJUNOK_clean_linker_0, # of connection points: 2
# Relax obj value: 0.035
# Max RMSD: 0.127
# Mean RMSD: 0.085
data_MOF--net-eea--node1-WUSLED_clean_sbu_0--node2-HISSIN_clean_sbu_0--edge1-AJUNOK_clean_linker_0
_symmetry_space_group_name_H-M    P1
_symmetry_Int_Tables_number       1
_symmetry_cell_setting            triclinic
loop_
_symmetry_equiv_pos_as_xyz
'x, y, z'
_cell_length_a     53.213421
_cell_length_b     53.720852
_cell_length_c     77.533452
_cell_angle_alpha  92.979971
_cell_angle_beta   92.87699
_cell_angle_gamma 119.83137
loop_
_atom_site_label
_atom_site_type_symbol
_atom_site_fract_x
_atom_site_fract_y
_atom_site_fract_z
_atom_type_partial_charge
C0 C 0.22517 0.16847 0.39747 0.0
C1 C 0.23606 0.19508 0.4072 0.0
C2 C 0.21631 0.21193 0.38443 0.0
C3 C 0.23164 0.21662 0.40074 0.0
C4 C 0.20542 0.18517 0.3748 0.0
C5 C 0.20988 0.1637 0.38125 0.0
U6 U 0.24785 0.13323 0.43265 0.0
O7 O 0.22644 0.08765 0.43798 0.0
O8 O 0.27066 0.10871 0.42968 0.0
C9 C 0.24789 0.08434 0.43288 0.0
C10 C 0.22929 0.14532 0.40392 0.0
C11 C 0.24001 0.05876 0.4207 0.0
C12 C 0.20412 0.01148 0.40675 0.0
C13 C 0.21094 0.03648 0.41716 0.0
C14 C 0.25516 0.03053 0.40301 0.0
C15 C 0.22616 0.00816 0.39961 0.0
C16 C 0.262 0.05548 0.41346 0.0
C17 C 0.27844 0.17013 0.47875 0.0
C18 C 0.27522 0.14989 0.50655 0.0
C19 C 0.31645 0.19632 0.5023 0.0
C20 C 0.30486 0.19437 0.48534 0.0
C21 C 0.30179 0.1741 0.51308 0.0
C22 C 0.26371 0.14783 0.48952 0.0
C23 C 0.26651 0.16904 0.46084 0.0
O24 O 0.25635 0.15166 0.40746 0.0
O25 O 0.21204 0.13057 0.41561 0.0
O26 O 0.23893 0.14992 0.45668 0.0
O27 O 0.28323 0.17088 0.44848 0.0
H28 H 0.24789 0.19914 0.41978 0.0
H29 H 0.24027 0.23701 0.40847 0.0
H30 H 0.19292 0.18059 0.36241 0.0
H31 H 0.20117 0.14322 0.3736 0.0
H32 H 0.18164 0.99435 0.40474 0.0
H33 H 0.19345 0.03801 0.42274 0.0
H34 H 0.27263 0.02859 0.39771 0.0
H35 H 0.28463 0.07202 0.41611 0.0
H36 H 0.26349 0.13243 0.51457 0.0
H37 H 0.33672 0.21544 0.50707 0.0
H38 H 0.31652 0.21195 0.47738 0.0
H39 H 0.2433 0.12882 0.48483 0.0
C40 C 0.97101 0.17306 0.4067 0.0
C41 C 0.98061 0.20239 0.41083 0.0
C42 C 0.02108 0.21623 0.39262 0.0
C43 C 1.00538 0.22374 0.40385 0.0
C44 C 1.01137 0.18684 0.38861 0.0
C45 C 0.98671 0.16558 0.39558 0.0
U46 U 0.91152 0.13534 0.43922 0.0
O47 O 0.86429 0.10776 0.43289 0.0
O48 O 0.88944 0.08949 0.44431 0.0
C49 C 0.86401 0.08446 0.4376 0.0
C50 C 0.94397 0.14969 0.4128 0.0
C51 C 0.84652 0.05749 0.42613 0.0
C52 C 0.82061 0.03139 0.39838 0.0
C53 C 0.83983 0.05738 0.40832 0.0
C54 C 0.81539 1.00532 0.42374 0.0
C55 C 0.80762 1.00515 0.40611 0.0
C56 C 0.8345 0.03117 0.43361 0.0
C57 C 0.91461 0.17101 0.48457 0.0
C58 C 0.87589 0.15215 0.5041 0.0
C59 C 0.92238 0.19411 0.51378 0.0
C60 C 0.93262 0.19256 0.49768 0.0
C61 C 0.89375 0.17418 0.51715 0.0
C62 C 0.88619 0.15062 0.48795 0.0
C63 C 0.92594 0.17062 0.46754 0.0
O64 O 0.94702 0.13571 0.42541 0.0
O65 O 0.92215 0.15444 0.41426 0.0
O66 O 0.91054 0.17106 0.45388 0.0
O67 O 0.93568 0.15266 0.46499 0.0
H68 H 0.9688 0.20878 0.41926 0.0
H69 H 1.01193 0.24614 0.40699 0.0
H70 H 0.02298 0.18026 0.38012 0.0
H71 H 0.97966 0.14312 0.39211 0.0
H72 H 0.81513 0.03191 0.38481 0.0
H73 H 0.84885 0.07737 0.40219 0.0
H74 H 0.80628 0.98542 0.42998 0.0
H75 H 0.83937 0.03066 0.44729 0.0
H76 H 0.85378 0.13642 0.50629 0.0
H77 H 0.93698 0.21088 0.52364 0.0
H78 H 0.95468 0.20838 0.49543 0.0
H79 H 0.87193 0.1337 0.47805 0.0
C80 C 0.85752 0.79531 0.40678 0.0
C81 C 0.85329 0.81663 0.41523 0.0
C82 C 0.81111 0.80385 0.39495 0.0
C83 C 0.83039 0.82083 0.40937 0.0
C84 C 0.81513 0.7823 0.38669 0.0
C85 C 0.83803 0.77813 0.39251 0.0
U86 U 0.9069 0.7767 0.43611 0.0
O87 O 0.93243 0.75678 0.42782 0.0
O88 O 0.95476 0.80056 0.44079 0.0
C89 C 0.95755 0.77997 0.43283 0.0
C90 C 0.88361 0.79269 0.41133 0.0
C91 C 0.98088 0.78906 0.42082 0.0
C92 C 0.99834 0.79553 0.39189 0.0
C93 C 0.97545 0.78729 0.40271 0.0
C94 C 0.03216 0.80729 0.41711 0.0
C95 C 0.02708 0.8059 0.399 0.0
C96 C 1.00943 0.79909 0.42784 0.0
C97 C 0.88094 0.7473 0.48142 0.0
C98 C 0.86857 0.70718 0.4993 0.0
C99 C 0.88493 0.75472 0.51309 0.0
C100 C 0.88784 0.76552 0.49675 0.0
C101 C 0.8749 0.72531 0.5146 0.0
C102 C 0.87151 0.71799 0.48295 0.0
C103 C 0.8794 0.75808 0.46422 0.0
O104 O 0.90244 0.81061 0.42394 0.0
O105 O 0.87959 0.76649 0.41149 0.0
O106 O 0.8751 0.74122 0.45014 0.0
O107 O 0.89741 0.78542 0.46241 0.0
H108 H 0.86809 0.83061 0.42609 0.0
H109 H 0.82838 0.83805 0.41582 0.0
H110 H 0.80068 0.76878 0.37558 0.0
H111 H 0.8409 0.76182 0.38556 0.0
H112 H 0.99365 0.79409 0.37801 0.0
H113 H 0.95359 0.77952 0.39694 0.0
H114 H 0.05379 0.81439 0.42304 0.0
H115 H 1.01416 0.80037 0.44172 0.0
H116 H 0.86084 0.68443 0.49996 0.0
H117 H 0.88938 0.76924 0.52452 0.0
H118 H 0.89446 0.78804 0.49612 0.0
H119 H 0.86549 0.70312 0.47149 0.0
C120 C 0.06117 0.22069 0.62971 0.0
C121 C 0.0346 0.20534 0.61937 0.0
C122 C 1.00854 0.21117 0.64298 0.0
C123 C 1.00858 0.20064 0.62594 0.0
C124 C 0.03522 0.22678 0.65317 0.0
C125 C 0.06116 0.23149 0.64661 0.0
U126 U 0.12272 0.23834 0.59836 0.0
O127 O 0.16998 0.26015 0.60567 0.0
O128 O 0.14676 0.21521 0.59449 0.0
C129 C 0.1715 0.2369 0.60161 0.0
C130 C 0.08874 0.22364 0.62404 0.0
C131 C 0.1891 0.2303 0.61403 0.0
C132 C 0.19499 0.1983 0.63304 0.0
C133 C 0.17698 0.20513 0.62285 0.0
C134 C 0.23724 0.24205 0.62621 0.0
C135 C 0.22541 0.21637 0.63447 0.0
C136 C 0.21933 0.24886 0.6161 0.0
C137 C 0.12023 0.26535 0.55288 0.0
C138 C 0.1601 0.29275 0.53511 0.0
C139 C 0.11037 0.27117 0.52272 0.0
C140 C 0.1005 0.26003 0.53854 0.0
C141 C 0.1403 0.28809 0.52083 0.0
C142 C 0.15019 0.28156 0.55097 0.0
C143 C 0.10883 0.25507 0.56978 0.0
O144 O 0.08688 0.20517 0.61151 0.0
O145 O 0.11036 0.24992 0.62301 0.0
O146 O 0.12305 0.27254 0.58373 0.0
O147 O 0.10018 0.22797 0.57202 0.0
H148 H 0.03381 0.19648 0.60636 0.0
H149 H 0.98838 0.18808 0.61783 0.0
H150 H 0.03603 0.23532 0.66628 0.0
H151 H 0.08126 0.24315 0.65492 0.0
H152 H 0.18524 0.17841 0.63929 0.0
H153 H 0.15372 0.19041 0.62154 0.0
H154 H 0.26052 0.25671 0.62732 0.0
H155 H 0.22924 0.2684 0.60949 0.0
H156 H 0.1833 0.30507 0.53403 0.0
H157 H 0.09449 0.26715 0.51206 0.0
H158 H 0.07731 0.24764 0.53968 0.0
H159 H 0.16591 0.28586 0.56179 0.0
C160 C 0.79756 0.84493 0.64026 0.0
C161 C 0.78766 0.81886 0.6301 0.0
C162 C 0.80683 0.80139 0.65285 0.0
C163 C 0.7923 0.79729 0.63634 0.0
C164 C 0.81681 0.82765 0.66289 0.0
C165 C 0.81214 0.84914 0.65666 0.0
U166 U 0.77498 0.88117 0.60561 0.0
O167 O 0.75078 0.90435 0.60889 0.0
O168 O 0.79548 0.92705 0.60127 0.0
C169 C 0.77314 0.92917 0.60592 0.0
C170 C 0.79292 0.86801 0.63416 0.0
C171 C 0.77968 0.95428 0.61799 0.0
C172 C 0.81177 0.99349 0.63967 0.0
C173 C 0.80456 0.96775 0.62987 0.0
C174 C 0.76866 0.99177 0.62646 0.0
C175 C 0.79429 1.00616 0.63768 0.0
C176 C 0.76151 0.96617 0.61669 0.0
C177 C 0.74787 0.84651 0.55881 0.0
C178 C 0.72766 0.86444 0.53708 0.0
C179 C 0.73488 0.8244 0.52914 0.0
C180 C 0.74603 0.82593 0.54615 0.0
C181 C 0.72515 0.84334 0.52444 0.0
C182 C 0.73887 0.86597 0.55414 0.0
C183 C 0.75888 0.84697 0.57676 0.0
O184 O 0.81055 0.88393 0.62296 0.0
O185 O 0.76575 0.86105 0.63027 0.0
O186 O 0.74124 0.84396 0.58878 0.0
O187 O 0.78597 0.86693 0.58139 0.0
H188 H 0.77638 0.81522 0.61739 0.0
H189 H 0.78438 0.77731 0.62828 0.0
H190 H 0.8287 0.83182 0.67544 0.0
H191 H 0.82008 0.8692 0.66465 0.0
H192 H 0.83161 1.00411 0.64825 0.0
H193 H 0.81886 0.9589 0.63119 0.0
H194 H 0.75452 1.00078 0.62491 0.0
H195 H 0.74215 0.95608 0.60769 0.0
H196 H 0.72043 0.87937 0.53385 0.0
H197 H 0.73393 0.80838 0.51964 0.0
H198 H 0.75309 0.81088 0.54945 0.0
H199 H 0.74026 0.88213 0.56371 0.0
C200 C 0.0541 0.83949 0.63071 0.0
C201 C 0.05056 0.81224 0.6334 0.0
C202 C 1.00437 0.7977 0.64586 0.0
C203 C 0.02592 0.79156 0.6408 0.0
C204 C 1.00757 0.82463 0.64268 0.0
C205 C 0.03214 0.84526 0.63529 0.0
U206 U 0.11493 0.87964 0.59915 0.0
O207 O 0.13782 0.92588 0.59533 0.0
O208 O 0.16222 0.9064 0.60607 0.0
C209 C 0.16293 0.93032 0.60229 0.0
C210 C 0.0816 0.86327 0.62512 0.0
C211 C 0.18016 0.95631 0.61476 0.0
C212 C 0.19155 1.00435 0.62618 0.0
C213 C 0.17292 0.97817 0.61637 0.0
C214 C 0.22469 0.98722 0.63349 0.0
C215 C 0.21798 0.00944 0.63451 0.0
C216 C 0.20611 0.96105 0.62364 0.0
C217 C 0.11203 0.84669 0.5529 0.0
C218 C 0.15117 0.86549 0.53367 0.0
C219 C 0.10385 0.82544 0.52318 0.0
C220 C 0.0936 0.82642 0.53935 0.0
C221 C 0.13288 0.84464 0.52018 0.0
C222 C 0.14087 0.86645 0.54991 0.0
C223 C 0.10065 0.84627 0.57 0.0
O224 O 0.10347 0.85865 0.62349 0.0
O225 O 0.07928 0.87859 0.61311 0.0
O226 O 0.0913 0.86442 0.57314 0.0
O227 O 0.11569 0.84468 0.58345 0.0
H228 H 0.0671 0.80708 0.63018 0.0
H229 H 0.02411 0.77101 0.64302 0.0
H230 H 0.9911 0.82985 0.64599 0.0
H231 H 0.0343 0.86609 0.63353 0.0
H232 H 0.18553 0.02086 0.62697 0.0
H233 H 0.15327 0.97547 0.60965 0.0
H234 H 0.24492 0.99051 0.63972 0.0
H235 H 0.21258 0.94488 0.62249 0.0
H236 H 0.17361 0.88063 0.53177 0.0
H237 H 0.08897 0.8096 0.51298 0.0
H238 H 0.07122 0.81113 0.54131 0.0
H239 H 0.15546 0.88238 0.56016 0.0
C240 C 0.88718 0.49718 0.73221 0.0
C241 C 0.88671 0.51812 0.7436 0.0
C242 C 0.87787 0.54035 0.71908 0.0
C243 C 0.88214 0.53956 0.73708 0.0
C244 C 0.87891 0.5196 0.70777 0.0
C245 C 0.88344 0.49821 0.71429 0.0
U246 U 0.9092 0.46205 0.76765 0.0
O247 O 0.88805 0.41647 0.77308 0.0
O248 O 0.93268 0.43812 0.76541 0.0
C249 C 0.91031 0.41378 0.76901 0.0
C250 C 0.89118 0.47389 0.73863 0.0
C251 C 0.90347 0.388 0.75761 0.0
C252 C 0.89034 0.36104 0.72924 0.0
C253 C 0.89594 0.38567 0.73973 0.0
C254 C 0.89937 0.34087 0.75444 0.0
C255 C 0.89241 0.33855 0.73647 0.0
C256 C 0.90493 0.36537 0.76486 0.0
C257 C 0.93818 0.50012 0.81353 0.0
C258 C 0.95812 0.48291 0.83583 0.0
C259 C 0.95368 0.52504 0.84247 0.0
C260 C 0.94179 0.52235 0.8255 0.0
C261 C 0.96237 0.5056 0.84778 0.0
C262 C 0.94619 0.48023 0.81882 0.0
C263 C 0.92657 0.49845 0.79556 0.0
O264 O 0.91821 0.48029 0.74237 0.0
O265 O 0.87365 0.45885 0.75015 0.0
O266 O 0.89929 0.47849 0.79147 0.0
O267 O 0.94368 0.50016 0.78347 0.0
H268 H 0.88967 0.51775 0.75749 0.0
H269 H 0.88149 0.55526 0.74611 0.0
H270 H 0.8764 0.52001 0.69386 0.0
H271 H 0.88394 0.48237 0.7053 0.0
H272 H 0.88489 0.35977 0.71545 0.0
H273 H 0.89461 0.40292 0.73391 0.0
H274 H 0.90041 0.32362 0.76047 0.0
H275 H 0.91049 0.36669 0.77865 0.0
H276 H 0.96455 0.46759 0.83955 0.0
H277 H 0.956 0.54231 0.85147 0.0
H278 H 0.93554 0.53778 0.8217 0.0
H279 H 0.94348 0.46285 0.80976 0.0
C280 C 0.63208 0.50907 0.73691 0.0
C281 C 0.65711 0.52828 0.74772 0.0
C282 C 0.68339 0.54932 0.72243 0.0
C283 C 0.68245 0.54828 0.74056 0.0
C284 C 0.65791 0.53071 0.71174 0.0
C285 C 0.63263 0.51081 0.7189 0.0
U286 U 0.57487 0.47039 0.77071 0.0
O287 O 0.52769 0.44153 0.76504 0.0
O288 O 0.55455 0.4246 0.77578 0.0
C289 C 0.52861 0.41866 0.76942 0.0
C290 C 0.60593 0.48552 0.74369 0.0
C291 C 0.51158 0.39164 0.75789 0.0
C292 C 0.48179 0.36499 0.73116 0.0
C293 C 0.50075 0.39127 0.74087 0.0
C294 C 0.48505 0.33916 0.75502 0.0
C295 C 0.47314 0.33866 0.73832 0.0
C296 C 0.50393 0.36532 0.76469 0.0
C297 C 0.57772 0.5052 0.81625 0.0
C298 C 0.54023 0.48361 0.8364 0.0
C299 C 0.584 0.52907 0.84505 0.0
C300 C 0.59435 0.52818 0.82889 0.0
C301 C 0.55662 0.50702 0.84896 0.0
C302 C 0.55064 0.48275 0.82017 0.0
C303 C 0.58896 0.50548 0.7991 0.0
O304 O 0.61027 0.47224 0.75628 0.0
O305 O 0.58374 0.48952 0.74558 0.0
O306 O 0.57288 0.50534 0.78562 0.0
O307 O 0.59961 0.48833 0.79629 0.0
H308 H 0.65726 0.52749 0.76166 0.0
H309 H 0.70142 0.56278 0.74922 0.0
H310 H 0.65779 0.53085 0.69778 0.0
H311 H 0.61363 0.49615 0.71028 0.0
H312 H 0.47303 0.36527 0.7183 0.0
H313 H 0.50627 0.41121 0.73524 0.0
H314 H 0.47932 0.31925 0.76075 0.0
H315 H 0.51196 0.36498 0.77775 0.0
H316 H 0.51911 0.46625 0.839 0.0
H317 H 0.59754 0.54704 0.85453 0.0
H318 H 0.61539 0.54562 0.82622 0.0
H319 H 0.53746 0.46472 0.81064 0.0
C320 C 0.52316 0.13091 0.73941 0.0
C321 C 0.49542 0.11459 0.74526 0.0
C322 C 0.47685 0.13918 0.72739 0.0
C323 C 0.47245 0.1187 0.7393 0.0
C324 C 0.50476 0.15556 0.72175 0.0
C325 C 0.5276 0.15149 0.72771 0.0
U326 U 0.56889 0.10809 0.76902 0.0
O327 O 0.59316 0.087 0.76018 0.0
O328 O 0.61659 0.13037 0.77365 0.0
C329 C 0.61866 0.10992 0.76489 0.0
C330 C 0.54763 0.12625 0.7444 0.0
C331 C 0.64135 0.11923 0.75225 0.0
C332 C 0.66387 0.10745 0.72877 0.0
C333 C 0.64043 0.09966 0.73903 0.0
C334 C 0.68929 0.15477 0.74429 0.0
C335 C 0.68892 0.13484 0.73163 0.0
C336 C 0.66594 0.14706 0.7545 0.0
C337 C 0.543 0.07862 0.81423 0.0
C338 C 0.53546 0.039 0.8315 0.0
C339 C 0.5426 0.0834 0.84576 0.0
C340 C 0.54547 0.09496 0.82967 0.0
C341 C 0.53686 0.05501 0.84687 0.0
C342 C 0.53837 0.05058 0.81538 0.0
C343 C 0.54151 0.08982 0.79719 0.0
O344 O 0.56617 0.14337 0.75733 0.0
O345 O 0.54178 0.09944 0.74459 0.0
O346 O 0.53644 0.07298 0.78296 0.0
O347 O 0.56018 0.11704 0.79551 0.0
H348 H 0.49142 0.09845 0.75422 0.0
H349 H 0.45113 0.10543 0.74371 0.0
H350 H 0.50896 0.17163 0.7127 0.0
H351 H 0.54879 0.16427 0.72298 0.0
H352 H 0.66303 0.09158 0.71918 0.0
H353 H 0.62205 0.07794 0.73702 0.0
H354 H 0.7082 0.17613 0.74672 0.0
H355 H 0.66767 0.16269 0.76459 0.0
H356 H 0.53168 0.01729 0.83189 0.0
H357 H 0.54372 0.09633 0.85728 0.0
H358 H 0.5486 0.11644 0.82925 0.0
H359 H 0.5362 0.03725 0.80381 0.0
C360 C 0.72609 0.55565 0.9638 0.0
C361 C 0.69884 0.53242 0.95716 0.0
C362 C 0.67418 0.54601 0.97832 0.0
C363 C 0.67325 0.52777 0.96427 0.0
C364 C 0.70133 0.56968 0.98462 0.0
C365 C 0.72691 0.57432 0.97752 0.0
U366 U 0.78848 0.57216 0.93296 0.0
O367 O 0.83555 0.59329 0.94069 0.0
O368 O 0.81192 0.5483 0.92967 0.0
C369 C 0.83665 0.56968 0.93705 0.0
C370 C 0.75386 0.55852 0.95834 0.0
C371 C 0.8534 0.56267 0.94997 0.0
C372 C 0.86242 0.52769 0.96386 0.0
C373 C 0.84444 0.53405 0.95336 0.0
C374 C 0.89842 0.57836 0.96813 0.0
C375 C 0.88982 0.54974 0.97121 0.0
C376 C 0.88049 0.58472 0.95764 0.0
C377 C 0.78708 0.5973 0.88663 0.0
C378 C 0.82398 0.63065 0.86889 0.0
C379 C 0.77734 0.59367 0.8552 0.0
C380 C 0.76852 0.58373 0.87142 0.0
C381 C 0.80495 0.61768 0.85373 0.0
C382 C 0.81513 0.62067 0.88516 0.0
C383 C 0.77564 0.58812 0.90374 0.0
O384 O 0.75226 0.53962 0.9462 0.0
O385 O 0.77564 0.58466 0.95712 0.0
O386 O 0.78978 0.60605 0.91755 0.0
O387 O 0.76621 0.56106 0.90652 0.0
H388 H 0.69728 0.51732 0.94677 0.0
H389 H 0.65274 0.50932 0.95908 0.0
H390 H 0.70286 0.58458 0.99514 0.0
H391 H 0.74752 0.59221 0.9831 0.0
H392 H 0.85535 0.50536 0.96564 0.0
H393 H 0.82392 0.51642 0.94748 0.0
H394 H 0.91933 0.59587 0.97362 0.0
H395 H 0.88824 0.60692 0.95513 0.0
H396 H 0.8454 0.64913 0.86823 0.0
H397 H 0.76237 0.5827 0.84379 0.0
H398 H 0.74681 0.56571 0.87212 0.0
H399 H 0.83002 0.63167 0.8966 0.0
C400 C 0.46868 0.17949 0.97163 0.0
C401 C 0.45816 0.15325 0.96153 0.0
C402 C 0.47682 0.13532 0.98426 0.0
C403 C 0.46224 0.13136 0.96778 0.0
C404 C 0.48742 0.16174 0.99423 0.0
C405 C 0.48331 0.18355 0.98799 0.0
U406 U 0.4467 0.21599 0.93694 0.0
O407 O 0.46805 0.26178 0.9322 0.0
O408 O 0.4235 0.24017 0.9401 0.0
C409 C 0.44612 0.2646 0.93687 0.0
C410 C 0.46469 0.20291 0.9655 0.0
C411 C 0.45322 0.29016 0.94869 0.0
C412 C 0.4863 0.33045 0.96948 0.0
C413 C 0.47907 0.30465 0.95975 0.0
C414 C 0.44149 0.32691 0.95776 0.0
C415 C 0.46789 0.34219 0.96824 0.0
C416 C 0.43432 0.30126 0.94804 0.0
C417 C 0.41764 0.18129 0.89061 0.0
C418 C 0.4036 0.20423 0.86885 0.0
C419 C 0.39828 0.15736 0.86162 0.0
C420 C 0.40943 0.15775 0.87845 0.0
C421 C 0.39502 0.18048 0.85664 0.0
C422 C 0.41476 0.20461 0.8857 0.0
C423 C 0.42896 0.18109 0.90834 0.0
O424 O 0.48222 0.21821 0.95406 0.0
O425 O 0.43766 0.19662 0.96183 0.0
O426 O 0.41192 0.17877 0.9206 0.0
O427 O 0.45636 0.20048 0.9127 0.0
H428 H 0.44683 0.14973 0.94885 0.0
H429 H 0.45385 0.11126 0.95978 0.0
H430 H 0.49937 0.16578 1.00676 0.0
H431 H 0.49173 0.20373 0.99593 0.0
H432 H 0.50673 0.34171 0.9775 0.0
H433 H 0.49397 0.29644 0.96056 0.0
H434 H 0.42655 0.33508 0.95685 0.0
H435 H 0.41422 0.2904 0.93968 0.0
H436 H 0.40193 0.22264 0.86534 0.0
H437 H 0.3918 0.13873 0.85256 0.0
H438 H 0.41149 0.13957 0.88199 0.0
H439 H 0.42114 0.22306 0.8949 0.0
C440 C 0.722 0.17493 0.96367 0.0
C441 C 0.71297 0.14559 0.96022 0.0
C442 C 0.67156 0.13205 0.97759 0.0
C443 C 0.68802 0.12438 0.96712 0.0
C444 C 0.68066 0.16143 0.9809 0.0
C445 C 0.70552 0.18255 0.97401 0.0
U446 U 0.78342 0.21357 0.93222 0.0
O447 O 0.80659 0.25977 0.92815 0.0
O448 O 0.83049 0.24026 0.93955 0.0
C449 C 0.83147 0.26417 0.93546 0.0
C450 C 0.74946 0.19822 0.95792 0.0
C451 C 0.84834 0.2903 0.94785 0.0
C452 C 0.88624 0.31725 0.97148 0.0
C453 C 0.86765 0.29137 0.96136 0.0
C454 C 0.86634 0.34149 0.95506 0.0
C455 C 0.88605 0.34271 0.96831 0.0
C456 C 0.84779 0.31566 0.94494 0.0
C457 C 0.78403 0.18086 0.8867 0.0
C458 C 0.80367 0.20342 0.86025 0.0
C459 C 0.79853 0.15703 0.86498 0.0
C460 C 0.7872 0.15746 0.88086 0.0
C461 C 0.80696 0.18001 0.85446 0.0
C462 C 0.79247 0.20393 0.87622 0.0
C463 C 0.77094 0.18005 0.90334 0.0
O464 O 0.77114 0.1932 0.95669 0.0
O465 O 0.74721 0.21281 0.94542 0.0
O466 O 0.76089 0.19776 0.90601 0.0
O467 O 0.78478 0.17817 0.91729 0.0
H468 H 0.72541 0.13908 0.95243 0.0
H469 H 0.68192 0.10199 0.96453 0.0
H470 H 0.66846 0.1681 0.9888 0.0
H471 H 0.71215 0.20503 0.97698 0.0
H472 H 0.90157 0.31755 0.98133 0.0
H473 H 0.86912 0.27245 0.96379 0.0
H474 H 0.86561 0.3607 0.9523 0.0
H475 H 0.83357 0.31578 0.93448 0.0
H476 H 0.80997 0.22146 0.85247 0.0
H477 H 0.8002 0.1384 0.86077 0.0
H478 H 0.78063 0.13927 0.88855 0.0
H479 H 0.7903 0.22231 0.8803 0.0
C480 C 0.55725 0.83256 0.0662 0.0
C481 C 0.52931 0.82924 0.06388 0.0
C482 C 0.54915 0.87629 0.05255 0.0
C483 C 0.52532 0.85086 0.05716 0.0
C484 C 0.57704 0.87949 0.05466 0.0
C485 C 0.58106 0.85791 0.0614 0.0
U486 U 0.57957 0.79621 0.10096 0.0
O487 O 0.6019 0.77121 0.098 0.0
O488 O 0.55789 0.75079 0.10664 0.0
C489 C 0.57944 0.7473 0.10201 0.0
C490 C 0.56091 0.80874 0.07245 0.0
C491 C 0.57118 0.72111 0.09063 0.0
C492 C 0.55084 0.69147 0.0632 0.0
C493 C 0.55947 0.71726 0.0734 0.0
C494 C 0.56602 0.67357 0.08727 0.0
C495 C 0.5536 0.66918 0.07016 0.0
C496 C 0.57465 0.69923 0.09739 0.0
C497 C 0.6102 0.83435 0.1468 0.0
C498 C 0.63169 0.8181 0.1688 0.0
C499 C 0.62371 0.85785 0.17612 0.0
C500 C 0.61198 0.85531 0.15913 0.0
C501 C 0.63409 0.83955 0.18112 0.0
C502 C 0.61988 0.81554 0.15177 0.0
C503 C 0.59842 0.83274 0.12887 0.0
O504 O 0.5877 0.81394 0.07558 0.0
O505 O 0.54364 0.7937 0.08408 0.0
O506 O 0.57091 0.81328 0.12501 0.0
O507 O 0.61504 0.83389 0.1166 0.0
H508 H 0.51046 0.80979 0.06716 0.0
H509 H 0.50357 0.84777 0.05569 0.0
H510 H 0.59575 0.89854 0.05086 0.0
H511 H 0.60282 0.86103 0.06265 0.0
H512 H 0.54141 0.68865 0.05003 0.0
H513 H 0.5567 0.734 0.06796 0.0
H514 H 0.56894 0.65702 0.09286 0.0
H515 H 0.58381 0.7019 0.11062 0.0
H516 H 0.63942 0.80364 0.17227 0.0
H517 H 0.62455 0.8741 0.18539 0.0
H518 H 0.60438 0.86985 0.1556 0.0
H519 H 0.61854 0.79909 0.14245 0.0
C520 C 0.30036 0.84046 0.06865 0.0
C521 C 0.32098 0.86529 0.07899 0.0
C522 C 0.35079 0.88276 0.0545 0.0
C523 C 0.34599 0.88623 0.07198 0.0
C524 C 0.32992 0.85783 0.04426 0.0
C525 C 0.30501 0.83703 0.05125 0.0
U526 U 0.24423 0.80364 0.10302 0.0
O527 O 0.19684 0.77554 0.09797 0.0
O528 O 0.22326 0.75803 0.10858 0.0
C529 C 0.19734 0.75252 0.1025 0.0
C530 C 0.27427 0.81723 0.07556 0.0
C531 C 0.17962 0.72541 0.09118 0.0
C532 C 0.15159 0.69893 0.06398 0.0
C533 C 0.17099 0.7251 0.07367 0.0
C534 C 0.15008 0.67309 0.08892 0.0
C535 C 0.14036 0.6727 0.07165 0.0
C536 C 0.16937 0.69913 0.09856 0.0
C537 C 0.24944 0.84013 0.14833 0.0
C538 C 0.21273 0.81937 0.16898 0.0
C539 C 0.25687 0.86482 0.17699 0.0
C540 C 0.26658 0.8634 0.1607 0.0
C541 C 0.22965 0.84303 0.18129 0.0
C542 C 0.22249 0.81797 0.15263 0.0
C543 C 0.26002 0.8397 0.13107 0.0
O544 O 0.27878 0.8042 0.08823 0.0
O545 O 0.25253 0.82185 0.07767 0.0
O546 O 0.24368 0.83956 0.11772 0.0
O547 O 0.27 0.82199 0.12826 0.0
H548 H 0.31787 0.86835 0.09247 0.0
H549 H 0.36161 0.90515 0.08024 0.0
H550 H 0.33318 0.85397 0.03093 0.0
H551 H 0.28949 0.81791 0.04307 0.0
H552 H 0.14459 0.69929 0.05068 0.0
H553 H 0.17864 0.74505 0.06761 0.0
H554 H 0.14237 0.65321 0.09507 0.0
H555 H 0.17575 0.69877 0.11201 0.0
H556 H 0.1917 0.80221 0.17189 0.0
H557 H 0.27078 0.88298 0.18628 0.0
H558 H 0.28753 0.88062 0.15772 0.0
H559 H 0.20893 0.79973 0.14331 0.0
C560 C 0.19333 0.46861 0.07359 0.0
C561 C 0.16537 0.45158 0.07901 0.0
C562 C 0.14665 0.47608 0.06116 0.0
C563 C 0.14224 0.45527 0.07283 0.0
C564 C 0.17475 0.49313 0.05591 0.0
C565 C 0.19777 0.48945 0.06208 0.0
U566 U 0.23763 0.44576 0.10416 0.0
O567 O 0.26196 0.42431 0.09642 0.0
O568 O 0.28534 0.46781 0.10974 0.0
C569 C 0.28741 0.4468 0.10175 0.0
C570 C 0.21801 0.46443 0.07895 0.0
C571 C 0.31085 0.45523 0.08986 0.0
C572 C 0.32831 0.46131 0.06094 0.0
C573 C 0.30583 0.45493 0.07183 0.0
C574 C 0.36114 0.46888 0.08595 0.0
C575 C 0.35621 0.46806 0.06787 0.0
C576 C 0.33879 0.46259 0.09677 0.0
C577 C 0.20627 0.41386 0.14804 0.0
C578 C 0.22744 0.41425 0.17686 0.0
C579 C 0.17645 0.381 0.1687 0.0
C580 C 0.17942 0.3916 0.15234 0.0
C581 C 0.20027 0.3924 0.18133 0.0
C582 C 0.23039 0.42496 0.16043 0.0
C583 C 0.20734 0.42641 0.13122 0.0
O584 O 0.23571 0.48131 0.09224 0.0
O585 O 0.21252 0.43772 0.07902 0.0
O586 O 0.20333 0.41005 0.11696 0.0
O587 O 0.22698 0.45359 0.13028 0.0
H588 H 0.16135 0.43522 0.08781 0.0
H589 H 0.12079 0.44145 0.07693 0.0
H590 H 0.17897 0.50945 0.04706 0.0
H591 H 0.21912 0.50277 0.05768 0.0
H592 H 0.32362 0.46011 0.04707 0.0
H593 H 0.28444 0.44928 0.06615 0.0
H594 H 0.38235 0.4742 0.09176 0.0
H595 H 0.34326 0.46302 0.11061 0.0
H596 H 0.24646 0.42311 0.18605 0.0
H597 H 0.15519 0.36431 0.17163 0.0
H598 H 0.1604 0.38281 0.14313 0.0
H599 H 0.2514 0.44213 0.15751 0.0
C600 C 0.39208 0.88193 0.29383 0.0
C601 C 0.38861 0.90565 0.29856 0.0
C602 C 0.34125 0.87392 0.30906 0.0
C603 C 0.36341 0.90165 0.30598 0.0
C604 C 0.34439 0.85021 0.30381 0.0
C605 C 0.36947 0.85419 0.29639 0.0
U606 U 0.45596 0.90129 0.26365 0.0
O607 O 0.50259 0.92074 0.272 0.0
O608 O 0.47857 0.87674 0.25933 0.0
C609 C 0.50326 0.8972 0.2673 0.0
C610 C 0.42016 0.88554 0.28845 0.0
C611 C 0.51913 0.88807 0.27939 0.0
C612 C 0.54614 0.89323 0.30708 0.0
C613 C 0.52801 0.89976 0.29677 0.0
C614 C 0.54595 0.86253 0.28306 0.0
C615 C 0.55595 0.87516 0.30016 0.0
C616 C 0.52787 0.86897 0.27282 0.0
C617 C 0.4561 0.92975 0.21818 0.0
C618 C 0.49606 0.95709 0.2004 0.0
C619 C 0.44643 0.93338 0.18757 0.0
C620 C 0.4365 0.92312 0.20355 0.0
C621 C 0.47635 0.9505 0.18571 0.0
C622 C 0.48606 0.94676 0.21645 0.0
C623 C 0.44435 0.91976 0.23508 0.0
O624 O 0.41883 0.86756 0.27578 0.0
O625 O 0.44217 0.91184 0.28801 0.0
O626 O 0.45879 0.93674 0.24917 0.0
O627 O 0.43433 0.89238 0.23716 0.0
H628 H 0.40565 0.92738 0.29698 0.0
H629 H 0.36167 0.92037 0.30982 0.0
H630 H 0.3275 0.82851 0.30559 0.0
H631 H 0.37154 0.83548 0.29307 0.0
H632 H 0.55347 0.90325 0.32021 0.0
H633 H 0.52167 0.91456 0.30225 0.0
H634 H 0.55272 0.84815 0.27745 0.0
H635 H 0.52142 0.85967 0.2595 0.0
H636 H 0.51924 0.97022 0.19946 0.0
H637 H 0.43054 0.92846 0.17675 0.0
H638 H 0.41329 0.91032 0.20456 0.0
H639 H 0.50172 0.9523 0.22751 0.0
C640 C 0.13271 0.51473 0.30656 0.0
C641 C 0.13813 0.49711 0.29515 0.0
C642 C 0.14297 0.47195 0.3193 0.0
C643 C 0.14321 0.47588 0.30148 0.0
C644 C 0.13687 0.48926 0.33057 0.0
C645 C 0.1319 0.51049 0.32425 0.0
U646 U 0.11062 0.55046 0.27159 0.0
O647 O 0.08604 0.57333 0.27421 0.0
O648 O 0.13083 0.59613 0.26679 0.0
C649 C 0.10825 0.59811 0.27106 0.0
C650 C 0.12821 0.53789 0.30044 0.0
C651 C 0.11464 0.62323 0.28296 0.0
C652 C 0.14159 0.65726 0.30808 0.0
C653 C 0.13422 0.63185 0.29784 0.0
C654 C 0.10917 0.66501 0.28895 0.0
C655 C 0.12944 0.67432 0.30356 0.0
C656 C 0.10186 0.63973 0.27878 0.0
C657 C 0.08418 0.51503 0.22512 0.0
C658 C 0.06235 0.5316 0.20355 0.0
C659 C 0.07271 0.49373 0.19532 0.0
C660 C 0.08391 0.49546 0.21234 0.0
C661 C 0.06136 0.51144 0.19078 0.0
C662 C 0.07363 0.53335 0.22059 0.0
C663 C 0.09509 0.51565 0.24309 0.0
O664 O 0.14601 0.55393 0.28933 0.0
O665 O 0.10107 0.5309 0.29645 0.0
O666 O 0.07729 0.51269 0.255 0.0
O667 O 0.12211 0.5358 0.24772 0.0
H668 H 0.13868 0.49992 0.28142 0.0
H669 H 0.14779 0.46284 0.29248 0.0
H670 H 0.13579 0.48629 0.34428 0.0
H671 H 0.12751 0.52372 0.33324 0.0
H672 H 0.15755 0.66409 0.31911 0.0
H673 H 0.14432 0.61936 0.30128 0.0
H674 H 0.09934 0.67761 0.28522 0.0
H675 H 0.08667 0.6334 0.26737 0.0
H676 H 0.05383 0.54556 0.20043 0.0
H677 H 0.07294 0.47851 0.1857 0.0
H678 H 0.0922 0.48133 0.21555 0.0
H679 H 0.07381 0.54874 0.23028 0.0
C680 C 0.39343 0.50453 0.30059 0.0
C681 C 0.36611 0.49902 0.29346 0.0
C682 C 0.34132 0.46279 0.31381 0.0
C683 C 0.34044 0.47848 0.30001 0.0
C684 C 0.36863 0.46831 0.32092 0.0
C685 C 0.39432 0.48891 0.3144 0.0
U686 U 0.45348 0.5441 0.26874 0.0
O687 O 0.47755 0.59038 0.26509 0.0
O688 O 0.50107 0.5694 0.27496 0.0
C689 C 0.50264 0.59366 0.27116 0.0
C690 C 0.42109 0.52836 0.29516 0.0
C691 C 0.52174 0.61964 0.28308 0.0
C692 C 0.52981 0.65962 0.30347 0.0
C693 C 0.51078 0.63316 0.29391 0.0
C694 C 0.57084 0.65882 0.29192 0.0
C695 C 0.56 0.67306 0.3022 0.0
C696 C 0.55193 0.63246 0.28247 0.0
C697 C 0.44869 0.51035 0.2223 0.0
C698 C 0.46895 0.53303 0.19602 0.0
C699 C 0.45503 0.48317 0.1984 0.0
C700 C 0.44639 0.48475 0.21501 0.0
C701 C 0.46599 0.50713 0.18854 0.0
C702 C 0.46035 0.53463 0.21271 0.0
C703 C 0.43776 0.51059 0.23956 0.0
O704 O 0.44242 0.52304 0.29316 0.0
O705 O 0.41918 0.54429 0.28341 0.0
O706 O 0.42915 0.52929 0.24296 0.0
O707 O 0.45245 0.50819 0.25288 0.0
H708 H 0.36449 0.51095 0.28304 0.0
H709 H 0.31987 0.47534 0.29447 0.0
H710 H 0.37015 0.45665 0.33153 0.0
H711 H 0.41501 0.49299 0.32039 0.0
H712 H 0.52087 0.67009 0.31133 0.0
H713 H 0.48756 0.6237 0.29464 0.0
H714 H 0.59402 0.66837 0.29094 0.0
H715 H 0.5609 0.62245 0.27424 0.0
H716 H 0.47738 0.55191 0.18882 0.0
H717 H 0.45319 0.46313 0.1933 0.0
H718 H 0.43763 0.46578 0.22215 0.0
H719 H 0.46253 0.55473 0.218 0.0
Eu720 Eu 0.50377 0.98997 0.99693 0.0
Eu721 Eu 0.52362 0.02088 0.03767 0.0
C722 C 0.50049 0.04676 1.00813 0.0
C723 C 0.50009 0.98364 0.94721 0.0
C724 C 0.50863 0.01266 0.94544 0.0
C725 C 0.50602 0.97783 0.91654 0.0
C726 C 0.51538 0.02402 0.92929 0.0
C727 C 0.4992 0.96648 0.93266 0.0
C728 C 0.51373 1.00663 0.91453 0.0
C729 C 0.49175 0.97089 0.964 0.0
O730 O 0.48292 0.978 0.0385 0.0
O731 O 0.46217 0.97071 1.01073 0.0
C732 C 0.46006 0.96535 0.02716 0.0
O733 O 0.50904 0.95821 1.01265 0.0
O734 O 0.51235 0.03629 0.06109 0.0
O735 O 0.55292 0.03612 0.06152 0.0
O736 O 0.54168 0.99106 0.03409 0.0
C737 C 0.5286 0.96518 0.02584 0.0
O738 O 0.55239 0.0196 0.99945 0.0
O739 O 0.55881 0.05251 0.02183 0.0
O740 O 0.50003 0.04111 0.02446 0.0
O741 O 0.51209 0.97052 0.97394 0.0
O742 O 0.47568 0.97799 0.97286 0.0
O743 O 0.5074 0.03338 0.99631 0.0
C744 C 0.52829 0.0261 0.08751 0.0
C745 C 0.52806 1.00022 0.08997 0.0
C746 C 0.51394 0.02649 0.1169 0.0
C747 C 0.52083 0.98763 0.10576 0.0
C748 C 0.52127 0.03911 0.10117 0.0
C749 C 0.51334 1.00043 0.11941 0.0
C750 C 0.53467 0.03935 0.07073 0.0
C751 C 0.56739 0.04552 1.00761 0.0
H752 H 0.5098 0.02647 0.95651 0.0
H753 H 0.5053 0.964 0.90562 0.0
H754 H 0.52131 0.04628 0.92828 0.0
H755 H 0.49301 0.94416 0.93372 0.0
H756 H 0.53331 0.98963 0.07966 0.0
H757 H 0.50817 0.03691 0.12703 0.0
H758 H 0.52126 0.96793 0.10729 0.0
H759 H 0.52113 0.05896 0.0996 0.0
Eu760 Eu 0.02891 0.51645 1.00106 0.0
Eu761 Eu 0.99673 0.50058 0.03753 0.0
C762 C 0.97233 0.45443 1.00411 0.0
C763 C 0.03729 0.52355 0.95287 0.0
C764 C 1.00706 0.5105 0.94914 0.0
C765 C 0.04363 0.53061 0.92233 0.0
C766 C 0.9952 0.50757 0.9321 0.0
C767 C 0.05546 0.53348 0.93936 0.0
C768 C 1.01337 0.51781 0.91852 0.0
C769 C 0.04996 0.52678 0.97077 0.0
O770 O 0.03986 0.50299 0.04323 0.0
O771 O 0.04956 0.4947 0.01575 0.0
C772 C 0.05416 0.49574 0.0327 0.0
O773 O 0.06033 0.55251 0.02092 0.0
O774 O 0.97959 0.4716 0.05796 0.0
O775 O 0.97878 0.5115 0.05954 0.0
O776 O 0.02701 0.54868 0.03974 0.0
C777 C 0.05306 0.56298 0.03425 0.0
O778 O 0.99846 0.5344 1.001 0.0
O779 O 0.96524 0.50505 0.01895 0.0
O780 O 0.97798 0.45827 0.02103 0.0
O781 O 0.04958 0.54626 0.98135 0.0
O782 O 0.0424 0.5029 0.97797 0.0
O783 O 0.98565 0.47587 0.99444 0.0
C784 C 0.98738 0.49513 0.08574 0.0
C785 C 0.01755 0.5119 0.08996 0.0
C786 C 0.98083 0.48591 0.116 0.0
C787 C 0.02931 0.51533 0.10708 0.0
C788 C 0.96911 0.48247 0.0989 0.0
C789 C 1.0111 0.50189 0.12023 0.0
C790 C 0.97497 0.4893 0.06759 0.0
C791 C 0.97245 0.52288 1.00669 0.0
H792 H 0.99267 0.50267 0.95942 0.0
H793 H 0.05815 0.53818 0.91211 0.0
H794 H 0.97184 0.49766 0.92958 0.0
H795 H 0.07881 0.54344 0.94197 0.0
H796 H 0.03202 0.52184 0.07995 0.0
H797 H 0.9662 0.47587 0.12591 0.0
H798 H 0.05269 0.52778 0.10994 0.0
H799 H 0.94578 0.46953 0.09589 0.0
Eu800 Eu 0.51963 0.49867 0.03733 0.0
Eu801 Eu 0.50112 0.5141 0.9992 0.0
C802 C 0.52171 0.55903 0.03288 0.0
C803 C 0.521 0.49296 0.08628 0.0
C804 C 0.52142 0.5184 0.09226 0.0
C805 C 0.50167 0.47262 0.11323 0.0
C806 C 0.51222 0.52094 0.10859 0.0
C807 C 0.51106 0.47016 0.09698 0.0
C808 C 0.50205 0.498 0.11924 0.0
C809 C 0.53058 0.48973 0.06901 0.0
O810 O 0.54256 0.51332 0.99604 0.0
O811 O 0.56183 0.52126 0.02426 0.0
C812 C 0.5647 0.5207 1.00746 0.0
O813 O 0.51514 0.46313 0.01827 0.0
O814 O 0.51206 0.54281 0.97845 0.0
O815 O 0.47203 0.50186 0.97538 0.0
O816 O 0.48455 0.46636 0.99765 0.0
C817 C 0.49719 0.45276 1.0041 0.0
O818 O 0.47076 0.47837 0.03432 0.0
O819 O 0.46502 0.5079 0.01621 0.0
O820 O 0.52384 0.55634 0.01616 0.0
O821 O 0.51099 0.46949 0.05782 0.0
O822 O 0.54707 0.5133 0.06177 0.0
O823 O 0.51448 0.53736 0.04236 0.0
C824 C 0.49721 0.51897 0.95022 0.0
C825 C 0.51531 0.50716 0.94785 0.0
C826 C 0.49536 0.52406 0.91921 0.0
C827 C 0.52367 0.50419 0.93131 0.0
C828 C 0.48705 0.52704 0.93573 0.0
C829 C 0.51426 0.51313 0.9168 0.0
C830 C 0.49008 0.52433 0.96778 0.0
C831 C 0.45559 0.48984 0.0284 0.0
H832 H 0.52879 0.53635 0.08431 0.0
H833 H 0.49439 0.45472 0.12122 0.0
H834 H 0.51269 0.54072 0.11281 0.0
H835 H 0.51056 0.45037 0.09274 0.0
H836 H 0.5234 0.50073 0.95884 0.0
H837 H 0.48709 0.53048 0.90829 0.0
H838 H 0.53817 0.49564 0.92995 0.0
H839 H 0.47297 0.53607 0.93722 0.0
Eu840 Eu 0.16804 0.32629 0.33175 0.0
Eu841 Eu 0.18967 0.35681 0.37253 0.0
C842 C 0.1656 0.38338 0.34429 0.0
C843 C 0.16382 0.32146 0.28192 0.0
C844 C 0.16188 0.34606 0.27882 0.0
C845 C 0.18033 0.32199 0.25305 0.0
C846 C 0.16888 0.35832 0.26293 0.0
C847 C 0.17321 0.30968 0.26888 0.0
C848 C 0.1783 0.34651 0.2498 0.0
C849 C 0.15691 0.30812 0.29868 0.0
O850 O 0.14085 0.32814 0.3705 0.0
O851 O 0.13267 0.29525 0.34767 0.0
C852 C 0.12494 0.30244 0.36217 0.0
O853 O 0.19168 0.30564 0.34447 0.0
O854 O 0.18295 0.37714 0.39574 0.0
O855 O 0.21768 0.36711 0.39649 0.0
O856 O 0.18438 0.31276 0.37266 0.0
C857 C 0.19112 0.29951 0.3607 0.0
O858 O 0.20886 0.36871 0.33084 0.0
O859 O 0.23092 0.37582 0.35819 0.0
O860 O 0.18488 0.38923 0.35744 0.0
O861 O 0.17885 0.31041 0.30834 0.0
O862 O 0.13887 0.31177 0.30786 0.0
O863 O 0.15204 0.35793 0.33543 0.0
C864 C 0.193 0.36174 0.42216 0.0
C865 C 0.19028 0.3349 0.4251 0.0
C866 C 0.17817 0.36432 0.45118 0.0
C867 C 0.18199 0.32312 0.44101 0.0
C868 C 0.1866 0.37614 0.43532 0.0
C869 C 0.17617 0.33783 0.45438 0.0
C870 C 0.20232 0.37496 0.40555 0.0
C871 C 0.23233 0.38062 0.34164 0.0
H872 H 0.15487 0.35578 0.28865 0.0
H873 H 0.18765 0.31237 0.24335 0.0
H874 H 0.1664 0.37678 0.26082 0.0
H875 H 0.17513 0.29088 0.27095 0.0
H876 H 0.19471 0.32304 0.41515 0.0
H877 H 0.17298 0.37587 0.46091 0.0
H878 H 0.18056 0.30264 0.44295 0.0
H879 H 0.18812 0.39665 0.43333 0.0
Eu880 Eu 0.69848 0.84978 0.33446 0.0
Eu881 Eu 0.66442 0.83348 0.37036 0.0
C882 C 0.64145 0.78759 0.33667 0.0
C883 C 0.70798 0.85706 0.28646 0.0
C884 C 0.67772 0.84196 0.28237 0.0
C885 C 0.71468 0.86611 0.25617 0.0
C886 C 0.66603 0.839 0.26529 0.0
C887 C 0.72635 0.869 0.27324 0.0
C888 C 0.68438 0.8513 0.25201 0.0
C889 C 0.72043 0.86046 0.30444 0.0
O890 O 0.70711 0.83493 0.37653 0.0
O891 O 0.71793 0.82722 0.34924 0.0
C892 C 0.72173 0.82774 0.36619 0.0
O893 O 0.72935 0.88528 0.35476 0.0
O894 O 0.64656 0.80462 0.3908 0.0
O895 O 0.64631 0.84479 0.39217 0.0
O896 O 0.69498 0.8816 0.37267 0.0
C897 C 0.72145 0.8958 0.36775 0.0
O898 O 0.66826 0.86788 0.33404 0.0
O899 O 0.63362 0.83816 0.35114 0.0
O900 O 0.64533 0.79113 0.3537 0.0
O901 O 0.71961 0.87981 0.31492 0.0
O902 O 0.713 0.83666 0.31169 0.0
O903 O 0.6555 0.80926 0.32728 0.0
C904 C 0.65406 0.82825 0.41859 0.0
C905 C 0.68422 0.84395 0.42304 0.0
C906 C 0.64646 0.8199 0.4489 0.0
C907 C 0.69544 0.84723 0.4403 0.0
C908 C 0.63529 0.81658 0.43166 0.0
C909 C 0.67669 0.83476 0.45339 0.0
C910 C 0.64207 0.82253 0.4003 0.0
C911 C 0.6416 0.85574 0.33872 0.0
H912 H 0.66316 0.83263 0.29241 0.0
H913 H 0.7294 0.8753 0.24617 0.0
H914 H 0.64262 0.82754 0.26252 0.0
H915 H 0.74975 0.88058 0.27612 0.0
H916 H 0.69909 0.85317 0.41312 0.0
H917 H 0.63142 0.81066 0.45873 0.0
H918 H 0.7188 0.85881 0.44332 0.0
H919 H 0.61196 0.80449 0.4285 0.0
Eu920 Eu 0.1907 0.83609 0.37044 0.0
Eu921 Eu 0.17248 0.8491 0.33154 0.0
C922 C 0.1982 0.89808 0.36344 0.0
C923 C 0.1932 0.83154 0.41959 0.0
C924 C 0.17784 0.84631 0.42204 0.0
C925 C 0.19148 0.82345 0.45024 0.0
C926 C 0.16915 0.84938 0.43846 0.0
C927 C 0.20019 0.82044 0.43386 0.0
C928 C 0.1754 0.8375 0.4527 0.0
C929 C 0.20036 0.82592 0.40213 0.0
O930 O 0.22108 0.86621 0.33328 0.0
O931 O 0.22611 0.83945 0.35394 0.0
C932 C 0.23588 0.85548 0.34085 0.0
O933 O 0.1649 0.79288 0.35455 0.0
O934 O 0.18023 0.87763 0.31087 0.0
O935 O 0.14515 0.83337 0.307 0.0
O936 O 0.17546 0.80907 0.32776 0.0
C937 C 0.16635 0.7881 0.33793 0.0
O938 O 0.15192 0.84159 0.37322 0.0
O939 O 0.13061 0.82843 0.34534 0.0
O940 O 0.17922 0.88646 0.34977 0.0
O941 O 0.1783 0.80778 0.39142 0.0
O942 O 0.21901 0.84811 0.39457 0.0
O943 O 0.21002 0.88426 0.37064 0.0
C944 C 0.17013 0.85434 0.28252 0.0
C945 C 0.1893 0.84373 0.28039 0.0
C946 C 0.16936 0.86042 0.25162 0.0
C947 C 0.1985 0.84161 0.26399 0.0
C948 C 0.16015 0.8625 0.268 0.0
C949 C 0.1889 0.85024 0.24941 0.0
C950 C 0.16063 0.85722 0.29978 0.0
C951 C 0.1292 0.8328 0.36208 0.0
H952 H 0.17208 0.85495 0.41118 0.0
H953 H 0.19718 0.81458 0.46098 0.0
H954 H 0.1568 0.8603 0.43991 0.0
H955 H 0.21201 0.80899 0.43228 0.0
H956 H 0.19727 0.83729 0.29144 0.0
H957 H 0.16103 0.86665 0.24064 0.0
H958 H 0.21354 0.83369 0.26275 0.0
H959 H 0.14524 0.87057 0.26932 0.0
Eu960 Eu 0.83583 0.65764 0.66417 0.0
Eu961 Eu 0.85449 0.68652 0.70538 0.0
C962 C 0.83229 0.71366 0.6762 0.0
C963 C 0.83294 0.65305 0.61443 0.0
C964 C 0.84567 0.68295 0.61353 0.0
C965 C 0.83626 0.64753 0.58334 0.0
C966 C 0.85346 0.69499 0.59764 0.0
C967 C 0.82843 0.63552 0.59921 0.0
C968 C 0.84889 0.67744 0.5823 0.0
C969 C 0.82398 0.63985 0.63102 0.0
O970 O 0.81413 0.64347 0.70564 0.0
O971 O 0.79381 0.63701 0.67777 0.0
C972 C 0.79171 0.63058 0.69404 0.0
O973 O 0.84022 0.62482 0.67914 0.0
O974 O 0.84277 0.70219 0.72847 0.0
O975 O 0.88277 0.70083 0.72963 0.0
O976 O 0.87102 0.65521 0.70217 0.0
C977 C 0.8582 0.6301 0.69292 0.0
O978 O 0.88469 0.68688 0.66707 0.0
O979 O 0.89059 0.7183 0.69024 0.0
O980 O 0.83052 0.70655 0.69226 0.0
O981 O 0.84379 0.63851 0.64091 0.0
O982 O 0.80839 0.6475 0.63998 0.0
O983 O 0.84041 0.70146 0.66439 0.0
C984 C 0.85715 0.69173 0.75529 0.0
C985 C 0.85859 0.66699 0.75882 0.0
C986 C 0.8393 0.69175 0.78368 0.0
C987 C 0.85048 0.65482 0.77468 0.0
C988 C 0.84758 0.704 0.76794 0.0
C989 C 0.84038 0.66685 0.78721 0.0
C990 C 0.86448 0.70465 0.73845 0.0
C991 C 0.9 0.71202 0.67616 0.0
H992 H 0.84934 0.69696 0.62509 0.0
H993 H 0.83255 0.63336 0.57186 0.0
H994 H 0.86254 0.718 0.59732 0.0
H995 H 0.81871 0.61243 0.59958 0.0
H996 H 0.86568 0.6569 0.74928 0.0
H997 H 0.83211 0.70186 0.79314 0.0
H998 H 0.85152 0.63563 0.777 0.0
H999 H 0.84628 0.72305 0.76557 0.0
Eu1000 Eu 0.36259 0.18299 0.66735 0.0
Eu1001 Eu 0.32892 0.16688 0.70342 0.0
C1002 C 0.30445 0.12164 0.66952 0.0
C1003 C 0.37199 0.19082 0.61927 0.0
C1004 C 0.34432 0.16768 0.61333 0.0
C1005 C 0.37656 0.20874 0.59075 0.0
C1006 C 0.33305 0.1649 0.59617 0.0
C1007 C 0.38788 0.21142 0.60789 0.0
C1008 C 0.34917 0.18524 0.58461 0.0
C1009 C 0.38428 0.19394 0.63731 0.0
O1010 O 0.37158 0.16824 0.7093 0.0
O1011 O 0.38152 0.15977 0.68193 0.0
C1012 C 0.38571 0.16057 0.69888 0.0
O1013 O 0.39378 0.21845 0.68754 0.0
O1014 O 0.31186 0.13801 0.72393 0.0
O1015 O 0.31051 0.17763 0.72526 0.0
O1016 O 0.36007 0.21488 0.70605 0.0
C1017 C 0.38635 0.2289 0.70081 0.0
O1018 O 0.33269 0.20139 0.66715 0.0
O1019 O 0.29816 0.17214 0.68452 0.0
O1020 O 0.30932 0.12475 0.6865 0.0
O1021 O 0.38361 0.21328 0.64787 0.0
O1022 O 0.37719 0.17015 0.64453 0.0
O1023 O 0.319 0.14317 0.66012 0.0
C1024 C 0.32013 0.16221 0.75157 0.0
C1025 C 0.3504 0.1789 0.75538 0.0
C1026 C 0.3147 0.15504 0.78217 0.0
C1027 C 0.36274 0.18352 0.77246 0.0
C1028 C 0.30239 0.15043 0.76509 0.0
C1029 C 0.34504 0.1716 0.78607 0.0
C1030 C 0.30717 0.15574 0.73349 0.0
C1031 C 0.30611 0.18944 0.67195 0.0
H1032 H 0.33146 0.15166 0.62193 0.0
H1033 H 0.38919 0.22524 0.58235 0.0
H1034 H 0.31186 0.14661 0.59189 0.0
H1035 H 0.40907 0.22965 0.61226 0.0
H1036 H 0.36449 0.18802 0.74509 0.0
H1037 H 0.30051 0.14501 0.79228 0.0
H1038 H 0.38615 0.19635 0.77503 0.0
H1039 H 0.27902 0.13723 0.76238 0.0
Eu1040 Eu 0.85799 0.16811 0.70389 0.0
Eu1041 Eu 0.83657 0.18176 0.66626 0.0
C1042 C 0.86552 0.23062 0.69803 0.0
C1043 C 0.8626 0.16323 0.75291 0.0
C1044 C 0.86036 0.18763 0.75768 0.0
C1045 C 0.84921 0.14676 0.78151 0.0
C1046 C 0.85273 0.19159 0.77428 0.0
C1047 C 0.85694 0.14289 0.76498 0.0
C1048 C 0.84712 0.17123 0.78644 0.0
C1049 C 0.86904 0.15764 0.73519 0.0
O1050 O 0.88505 0.19883 0.66656 0.0
O1051 O 0.89252 0.17229 0.6864 0.0
C1052 C 0.90071 0.18831 0.67321 0.0
O1053 O 0.83171 0.12501 0.68786 0.0
O1054 O 0.84293 0.21046 0.64584 0.0
O1055 O 0.80778 0.16623 0.64229 0.0
O1056 O 0.84004 0.14222 0.66124 0.0
C1057 C 0.83148 0.12077 0.67098 0.0
O1058 O 0.81969 0.17372 0.70806 0.0
O1059 O 0.79578 0.15996 0.68101 0.0
O1060 O 0.84498 0.21914 0.68512 0.0
O1061 O 0.84662 0.13945 0.72472 0.0
O1062 O 0.88745 0.17972 0.72743 0.0
O1063 O 0.87756 0.21637 0.70434 0.0
C1064 C 0.83238 0.18673 0.61761 0.0
C1065 C 0.8488 0.17306 0.61524 0.0
C1066 C 0.83464 0.19552 0.58705 0.0
C1067 C 0.85811 0.17069 0.59892 0.0
C1068 C 0.82528 0.1978 0.60336 0.0
C1069 C 0.85144 0.1822 0.58464 0.0
C1070 C 0.82309 0.18995 0.6349 0.0
C1071 C 0.79555 0.16326 0.69799 0.0
H1072 H 0.86417 0.20346 0.74852 0.0
H1073 H 0.84429 0.13024 0.79031 0.0
H1074 H 0.85121 0.21061 0.7776 0.0
H1075 H 0.85806 0.12368 0.76152 0.0
H1076 H 0.85468 0.16446 0.62606 0.0
H1077 H 0.82859 0.20409 0.57628 0.0
H1078 H 0.87104 0.16037 0.59754 0.0
H1079 H 0.81256 0.20833 0.60486 0.0
C1080 C 0.40521 0.91463 0.05666 0.0
C1081 C 0.37812 0.90427 0.0472 0.0
C1082 C 0.4313 0.93406 0.04997 0.0
C1083 C 0.43165 0.94412 0.03347 0.0
H1084 H 0.40635 0.9073 0.06927 0.0
H1085 H 0.45143 0.94107 0.05787 0.0
S1086 S 0.36646 0.92505 1.00383 0.0
N1087 N 0.35314 0.90663 0.02073 0.0
N1088 N 0.40215 0.94282 1.00808 0.0
C1089 C 0.40469 0.93412 0.02389 0.0
C1090 C 0.37801 0.91434 0.03076 0.0
C1091 C 0.11801 0.4818 0.03632 0.0
C1092 C 0.12219 0.48001 0.05421 0.0
C1093 C 0.09581 0.48641 0.02948 0.0
C1094 C 0.07687 0.48969 0.04023 0.0
H1095 H 0.13202 0.47954 0.02748 0.0
H1096 H 0.09377 0.48776 0.01564 0.0
S1097 S 0.07874 0.48699 0.08814 0.0
N1098 N 0.10561 0.48208 0.08259 0.0
N1099 N 0.06388 0.49048 0.06989 0.0
C1100 C 0.08072 0.48773 0.05819 0.0
C1101 C 0.10329 0.48293 0.06512 0.0
C1102 C 0.55256 0.63974 0.04344 0.0
C1103 C 0.54311 0.64105 0.05994 0.0
C1104 C 0.54486 0.61312 0.03443 0.0
C1105 C 0.52742 0.58692 0.04161 0.0
H1106 H 0.56681 0.65942 0.03774 0.0
H1107 H 0.55341 0.61315 0.02204 0.0
S1108 S 0.4936 0.57876 0.08331 0.0
N1109 N 0.51299 0.61391 0.08222 0.0
N1110 N 0.49847 0.56414 0.06547 0.0
C1111 C 0.51667 0.58805 0.05772 0.0
C1112 C 0.52453 0.61502 0.06683 0.0
C1113 C 0.92363 0.39508 0.96877 0.0
C1114 C 0.90757 0.37087 0.97796 0.0
C1115 C 0.94441 0.42175 0.97734 0.0
C1116 C 0.9501 0.42555 0.99554 0.0
H1117 H 0.92041 0.39332 0.95476 0.0
H1118 H 0.95615 0.43953 0.96953 0.0
S1119 S 0.91294 0.36909 0.02573 0.0
N1120 N 0.89804 0.35253 1.00631 0.0
N1121 N 0.93716 0.40252 0.02249 0.0
C1122 C 0.93399 0.4015 1.00492 0.0
C1123 C 0.9128 0.37425 0.99613 0.0
C1124 C 0.62175 0.53355 0.97563 0.0
C1125 C 0.64685 0.54022 0.98629 0.0
C1126 C 0.59569 0.52758 0.98264 0.0
C1127 C 0.59328 0.52781 1.00072 0.0
H1128 H 0.62227 0.53315 0.96167 0.0
H1129 H 0.57722 0.52267 0.97368 0.0
S1130 S 0.6525 0.54301 0.03438 0.0
N1131 N 0.6675 0.54599 0.01591 0.0
N1132 N 0.61868 0.535 0.02912 0.0
C1133 C 0.61827 0.53443 1.01157 0.0
C1134 C 0.64492 0.54059 1.00437 0.0
C1135 C 0.49294 0.09899 0.97983 0.0
C1136 C 0.48195 0.11239 0.9907 0.0
C1137 C 0.49879 0.07794 0.98564 0.0
C1138 C 0.49388 0.06925 1.00259 0.0
H1139 H 0.49755 0.10516 0.96678 0.0
H1140 H 0.50749 0.06862 0.97669 0.0
S1141 S 0.46355 0.09654 0.03589 0.0
N1142 N 0.46511 0.11462 0.01901 0.0
N1143 N 0.47631 0.07525 0.03001 0.0
C1144 C 0.48256 0.08228 1.01357 0.0
C1145 C 0.47658 0.10376 1.00761 0.0
C1146 C 0.64074 0.11271 1.00272 0.0
C1147 C 0.64501 0.10963 0.98509 0.0
C1148 C 0.61577 0.09202 1.00998 0.0
C1149 C 0.59404 0.0673 0.99992 0.0
H1150 H 0.65699 0.1312 1.01105 0.0
H1151 H 0.61361 0.09535 0.0236 0.0
S1152 S 0.59329 0.0505 0.95264 0.0
N1153 N 0.62431 0.08088 0.95753 0.0
N1154 N 0.57777 0.04205 0.97098 0.0
C1155 C 0.59787 0.06424 0.98218 0.0
C1156 C 0.62321 0.08532 0.97483 0.0
C1157 C 0.93944 0.55559 0.97695 0.0
C1158 C 0.91035 0.54297 0.98099 0.0
C1159 C 0.95917 0.54916 0.98545 0.0
C1160 C 0.95086 0.52986 0.9985 0.0
H1161 H 0.94697 0.5702 0.96685 0.0
H1162 H 0.98114 0.55934 0.98157 0.0
S1163 S 0.87736 0.49191 1.01454 0.0
N1164 N 0.87436 0.51096 0.99935 0.0
N1165 N 0.91128 0.49869 1.0153 0.0
C1166 C 0.92185 0.51733 1.00285 0.0
C1167 C 0.90168 0.52387 0.99411 0.0
C1168 C 0.48585 0.37717 0.99501 0.0
C1169 C 0.47654 0.37086 0.97719 0.0
C1170 C 0.49292 0.40384 1.00367 0.0
C1171 C 0.49082 0.42506 0.99482 0.0
H1172 H 0.48711 0.36118 1.00238 0.0
H1173 H 0.49947 0.40759 0.01745 0.0
S1174 S 0.47149 0.42061 0.94759 0.0
N1175 N 0.46846 0.3891 0.9507 0.0
N1176 N 0.48135 0.43882 0.96686 0.0
C1177 C 0.48253 0.41931 0.97687 0.0
C1178 C 0.47549 0.39234 0.96809 0.0
C1179 C 0.12164 0.6365 0.04539 0.0
C1180 C 0.11765 0.64508 0.06202 0.0
C1181 C 0.10072 0.61003 0.03646 0.0
C1182 C 0.07477 0.59127 0.04371 0.0
H1183 H 0.14133 0.65011 0.03936 0.0
H1184 H 0.10496 0.60428 0.02379 0.0
S1185 S 0.05347 0.60444 0.08674 0.0
N1186 N 0.08543 0.63321 0.08514 0.0
N1187 N 0.04636 0.58371 0.06862 0.0
C1188 C 0.07042 0.59992 0.06027 0.0
C1189 C 0.09176 0.62671 0.06934 0.0
C1190 C 0.39569 0.45848 0.05926 0.0
C1191 C 0.37994 0.47279 0.0565 0.0
C1192 C 0.41919 0.46346 0.04968 0.0
C1193 C 0.42839 0.48317 0.03684 0.0
H1194 H 0.38991 0.44331 0.06906 0.0
H1195 H 0.43058 0.45201 0.0527 0.0
S1196 S 0.39417 0.52608 0.02429 0.0
N1197 N 0.37484 0.50724 0.03973 0.0
N1198 N 0.41909 0.51674 0.02171 0.0
C1199 C 0.4124 0.49722 0.03364 0.0
C1200 C 0.38822 0.49199 0.04342 0.0
C1201 C 0.52316 0.89267 0.03209 0.0
C1202 C 0.54487 0.8994 0.04558 0.0
C1203 C 0.51852 0.91409 0.0255 0.0
C1204 C 0.53525 0.94314 0.03223 0.0
H1205 H 0.50969 0.87063 0.02652 0.0
H1206 H 0.50135 0.90766 1.01523 0.0
S1207 S 0.5945 0.97187 0.06801 0.0
N1208 N 0.58291 0.93702 0.06566 0.0
N1209 N 0.57458 0.9773 0.05335 0.0
C1210 C 0.55716 0.95012 0.04572 0.0
C1211 C 0.56187 0.9283 0.05236 0.0
C1212 C 0.05095 0.23622 0.3672 0.0
C1213 C 0.04745 0.23877 0.38502 0.0
C1214 C 0.07584 0.25683 0.35985 0.0
C1215 C 0.09827 0.28097 0.36998 0.0
H1216 H 0.0342 0.21818 0.35882 0.0
H1217 H 0.07741 0.25386 0.3461 0.0
S1218 S 0.10109 0.29631 0.41763 0.0
N1219 N 0.06956 0.26646 0.41277 0.0
N1220 N 0.11595 0.30515 0.39912 0.0
C1221 C 0.09517 0.28356 0.38788 0.0
C1222 C 0.06991 0.26255 0.39533 0.0
C1223 C 0.7837 0.81108 0.37008 0.0
C1224 C 0.78769 0.80935 0.38799 0.0
C1225 C 0.76233 0.81682 0.36319 0.0
C1226 C 0.74388 0.82106 0.37389 0.0
H1227 H 0.79757 0.80845 0.36129 0.0
H1228 H 0.76052 0.81819 0.34934 0.0
S1229 S 0.74412 0.8169 0.42165 0.0
N1230 N 0.77043 0.81099 0.41621 0.0
N1231 N 0.73053 0.82195 0.40344 0.0
C1232 C 0.74739 0.81897 0.39184 0.0
C1233 C 0.76919 0.81312 0.39884 0.0
C1234 C 0.23517 0.9671 0.39364 0.0
C1235 C 0.21925 0.9808 0.38954 0.0
C1236 C 0.22848 0.94073 0.38494 0.0
C1237 C 0.20565 0.92691 0.37165 0.0
H1238 H 0.25259 0.97653 0.40397 0.0
H1239 H 0.24125 0.93102 0.38883 0.0
S1240 S 0.15804 0.95453 0.35543 0.0
N1241 N 0.1803 0.9792 0.37088 0.0
N1242 N 0.16745 0.9295 0.35458 0.0
C1243 C 0.18983 0.94065 0.36719 0.0
C1244 C 0.19664 0.96754 0.37614 0.0
C1245 C 0.58078 0.70872 0.32873 0.0
C1246 C 0.58023 0.70248 0.31081 0.0
C1247 C 0.60063 0.73616 0.33702 0.0
C1248 C 0.62044 0.75859 0.32767 0.0
H1249 H 0.5661 0.69211 0.33645 0.0
H1250 H 0.60034 0.7398 0.35086 0.0
S1251 S 0.62652 0.75349 0.28017 0.0
N1252 N 0.60035 0.72116 0.28386 0.0
N1253 N 0.63747 0.77241 0.29921 0.0
C1254 C 0.61964 0.7526 0.30964 0.0
C1255 C 0.59962 0.72469 0.30129 0.0
C1256 C 0.29943 0.88297 0.31222 0.0
C1257 C 0.31509 0.86969 0.31783 0.0
C1258 C 0.27427 0.87856 0.31989 0.0
C1259 C 0.26368 0.86086 0.33367 0.0
H1260 H 0.30632 0.89645 0.30153 0.0
H1261 H 0.26291 0.88899 0.31478 0.0
S1262 S 0.29801 0.82265 0.35402 0.0
N1263 N 0.31905 0.83923 0.33862 0.0
N1264 N 0.27193 0.83083 0.35298 0.0
C1265 C 0.27958 0.84796 0.33967 0.0
C1266 C 0.30514 0.85236 0.33177 0.0
C1267 C 0.13468 0.42157 0.31794 0.0
C1268 C 0.14892 0.44975 0.32609 0.0
C1269 C 0.13989 0.40029 0.32409 0.0
C1270 C 0.1597 0.40627 0.33863 0.0
H1271 H 0.11916 0.41582 0.30677 0.0
H1272 H 0.12836 0.379 0.31724 0.0
S1273 S 0.20353 0.47728 0.36421 0.0
N1274 N 0.18431 0.48287 0.34914 0.0
N1275 N 0.19398 0.443 0.36084 0.0
C1276 C 0.17415 0.43449 0.34689 0.0
C1277 C 0.16878 0.45615 0.3406 0.0
C1278 C 0.31115 0.44047 0.33885 0.0
C1279 C 0.31385 0.44095 0.32083 0.0
C1280 C 0.28505 0.42072 0.3456 0.0
C1281 C 0.26055 0.40063 0.3346 0.0
H1282 H 0.32916 0.45591 0.34782 0.0
H1283 H 0.28392 0.42161 0.35951 0.0
S1284 S 0.25736 0.39087 0.28645 0.0
N1285 N 0.29043 0.41799 0.29224 0.0
N1286 N 0.24169 0.38127 0.30466 0.0
C1287 C 0.26336 0.40038 0.31655 0.0
C1288 C 0.28985 0.42041 0.30974 0.0
C1289 C 0.57359 0.861 0.32686 0.0
C1290 C 0.57808 0.8709 0.31019 0.0
C1291 C 0.59408 0.85609 0.33606 0.0
C1292 C 0.62014 0.86147 0.32909 0.0
H1293 H 0.55385 0.85651 0.33269 0.0
H1294 H 0.58949 0.84812 0.34873 0.0
S1295 S 0.64258 0.88861 0.28605 0.0
N1296 N 0.61076 0.88656 0.2873 0.0
N1297 N 0.64911 0.87768 0.30437 0.0
C1298 C 0.62496 0.87184 0.3125 0.0
C1299 C 0.60401 0.87646 0.30313 0.0
C1300 C 0.14788 0.72706 0.30359 0.0
C1301 C 0.13931 0.70291 0.31305 0.0
C1302 C 0.15674 0.75427 0.31183 0.0
C1303 C 0.15736 0.75869 0.32998 0.0
H1304 H 0.14786 0.72495 0.28961 0.0
H1305 H 0.16296 0.77195 0.30376 0.0
S1306 S 0.13706 0.70229 0.36077 0.0
N1307 N 0.13202 0.68492 0.34155 0.0
N1308 N 0.14877 0.73624 0.3572 0.0
C1309 C 0.14905 0.7347 0.33967 0.0
C1310 C 0.14009 0.70684 0.33119 0.0
C1311 C 0.7905 0.96858 0.38009 0.0
C1312 C 0.78515 0.97777 0.39613 0.0
C1313 C 0.76985 0.9422 0.37096 0.0
C1314 C 0.74284 0.9241 0.37738 0.0
H1315 H 0.81105 0.98162 0.37473 0.0
H1316 H 0.77519 0.93596 0.35878 0.0
S1317 S 0.71774 0.93921 0.41851 0.0
N1318 N 0.75049 0.96731 0.41772 0.0
N1319 N 0.7119 0.91798 0.40082 0.0
C1320 C 0.73711 0.93342 0.3933 0.0
C1321 C 0.75817 0.96014 0.40259 0.0
C1322 C 0.05028 0.79698 0.37335 0.0
C1323 C 0.0519 0.81499 0.38782 0.0
C1324 C 0.07487 0.80361 0.36419 0.0
C1325 C 0.10194 0.82842 0.36922 0.0
H1326 H 0.03027 0.77695 0.3696 0.0
H1327 H 0.07306 0.78844 0.35375 0.0
S1328 S 0.11657 0.88504 0.40417 0.0
N1329 N 0.08206 0.86061 0.40512 0.0
N1330 N 0.12796 0.87266 0.38825 0.0
C1331 C 0.10329 0.84741 0.38292 0.0
C1332 C 0.0784 0.84081 0.39212 0.0
C1333 C 0.19987 0.24793 0.38891 0.0
C1334 C 0.21053 0.23439 0.3779 0.0
C1335 C 0.19361 0.26869 0.38313 0.0
C1336 C 0.19776 0.27698 0.36606 0.0
H1337 H 0.1959 0.24213 0.40208 0.0
H1338 H 0.18527 0.27819 0.39223 0.0
S1339 S 0.22655 0.24885 0.33226 0.0
N1340 N 0.22594 0.23133 0.34926 0.0
N1341 N 0.21398 0.27024 0.3383 0.0
C1342 C 0.20859 0.26369 0.3549 0.0
C1343 C 0.21499 0.24246 0.36083 0.0
C1344 C 0.711 0.58569 0.70109 0.0
C1345 C 0.71099 0.56905 0.71463 0.0
C1346 C 0.73691 0.60475 0.69389 0.0
C1347 C 0.76381 0.60798 0.69999 0.0
H1348 H 0.69092 0.58448 0.6963 0.0
H1349 H 0.73599 0.61774 0.68392 0.0
S1350 S 0.77523 0.56655 0.73335 0.0
N1351 N 0.74004 0.55506 0.73243 0.0
N1352 N 0.78841 0.59093 0.7192 0.0
C1353 C 0.7639 0.59065 0.713 0.0
C1354 C 0.73763 0.57124 0.72025 0.0
C1355 C 0.44795 0.14435 0.70254 0.0
C1356 C 0.45257 0.14337 0.72049 0.0
C1357 C 0.42609 0.14942 0.6957 0.0
C1358 C 0.40795 0.15396 0.70649 0.0
H1359 H 0.46138 0.14115 0.69366 0.0
H1360 H 0.42372 0.15012 0.68181 0.0
S1361 S 0.41121 0.15367 0.75455 0.0
N1362 N 0.43725 0.14745 0.74897 0.0
N1363 N 0.39614 0.15677 0.73626 0.0
C1364 C 0.4122 0.15276 0.72451 0.0
C1365 C 0.43443 0.14748 0.73145 0.0
C1366 C 0.86195 0.29706 0.71402 0.0
C1367 C 0.88722 0.31254 0.72548 0.0
C1368 C 0.85553 0.27109 0.70472 0.0
C1369 C 0.87416 0.25959 0.70655 0.0
H1370 H 0.8465 0.30456 0.71266 0.0
H1371 H 0.83534 0.2595 0.6965 0.0
S1372 S 0.9451 0.29398 0.73317 0.0
N1373 N 0.93237 0.31602 0.73681 0.0
N1374 N 0.92036 0.26732 0.71956 0.0
C1375 C 0.90015 0.2756 0.7174 0.0
C1376 C 0.90666 0.30201 0.7268 0.0
C1377 C 0.25162 0.04076 0.66043 0.0
C1378 C 0.23923 0.03829 0.6435 0.0
C1379 C 0.27226 0.06775 0.66888 0.0
C1380 C 0.28171 0.09333 0.66063 0.0
H1381 H 0.24523 0.02166 0.66723 0.0
H1382 H 0.28123 0.06848 0.68187 0.0
S1383 S 0.256 0.09855 0.6162 0.0
N1384 N 0.23803 0.06376 0.61875 0.0
N1385 N 0.27645 0.11427 0.63453 0.0
C1386 C 0.26933 0.0911 0.6437 0.0
C1387 C 0.2482 0.06369 0.63518 0.0
C1388 C 0.97475 0.19523 0.6669 0.0
C1389 C 0.98084 0.20545 0.65036 0.0
C1390 C 0.94892 0.18971 0.67416 0.0
C1391 C 0.92816 0.19452 0.66531 0.0
H1392 H 0.98997 0.19111 0.67425 0.0
H1393 H 0.94534 0.18175 0.68688 0.0
S1394 S 0.93382 0.22156 0.62161 0.0
N1395 N 0.96403 0.22044 0.62541 0.0
N1396 N 0.91569 0.21016 0.63887 0.0
C1397 C 0.93407 0.20486 0.64874 0.0
C1398 C 0.96027 0.21024 0.64132 0.0
C1399 C 0.82412 0.766 0.64833 0.0
C1400 C 0.81262 0.77882 0.65924 0.0
C1401 C 0.8304 0.74519 0.65402 0.0
C1402 C 0.82543 0.73611 0.67089 0.0
H1403 H 0.82873 0.77242 0.63532 0.0
H1404 H 0.8394 0.73627 0.64501 0.0
S1405 S 0.79419 0.76207 0.70433 0.0
N1406 N 0.79548 0.78027 0.68755 0.0
N1407 N 0.80749 0.74131 0.69833 0.0
C1408 C 0.81372 0.74864 0.68194 0.0
C1409 C 0.8073 0.76992 0.6761 0.0
C1410 C 0.96266 0.74725 0.64726 0.0
C1411 C 0.97863 0.77608 0.65436 0.0
C1412 C 0.93781 0.72677 0.65461 0.0
C1413 C 0.92779 0.73406 0.66952 0.0
H1414 H 0.96903 0.74054 0.63564 0.0
H1415 H 0.92616 0.70507 0.64832 0.0
S1416 S 0.96317 0.80637 0.69391 0.0
N1417 N 0.98361 0.81057 0.67775 0.0
N1418 N 0.93694 0.77233 0.6915 0.0
C1419 C 0.94403 0.76273 0.67701 0.0
C1420 C 0.96933 0.78362 0.66946 0.0
C1421 C 0.24134 0.20023 0.66093 0.0
C1422 C 0.2451 0.20809 0.64377 0.0
C1423 C 0.26081 0.19382 0.67 0.0
C1424 C 0.2848 0.19513 0.66225 0.0
H1425 H 0.22359 0.19964 0.66751 0.0
H1426 H 0.2574 0.18841 0.68327 0.0
S1427 S 0.30161 0.21022 0.61669 0.0
N1428 N 0.27281 0.21376 0.61886 0.0
N1429 N 0.30922 0.20197 0.63571 0.0
C1430 C 0.288 0.20182 0.64486 0.0
C1431 C 0.26824 0.20824 0.63568 0.0
C1432 C 0.81092 0.04163 0.66419 0.0
C1433 C 0.80374 0.03532 0.64617 0.0
C1434 C 0.81956 0.06915 0.67223 0.0
C1435 C 0.82177 0.09149 0.66249 0.0
H1436 H 0.80954 0.02507 0.67215 0.0
H1437 H 0.8248 0.073 0.68614 0.0
S1438 S 0.80625 0.08601 0.61466 0.0
N1439 N 0.80015 0.05373 0.61877 0.0
N1440 N 0.81603 0.10506 0.63364 0.0
C1441 C 0.81481 0.08534 0.64439 0.0
C1442 C 0.8059 0.0574 0.6363 0.0
C1443 C 0.45361 0.30342 0.71159 0.0
C1444 C 0.45075 0.31077 0.7288 0.0
C1445 C 0.43285 0.27692 0.70264 0.0
C1446 C 0.40813 0.25695 0.71042 0.0
H1447 H 0.47226 0.31809 0.7051 0.0
H1448 H 0.43612 0.27217 0.68947 0.0
S1449 S 0.39024 0.26627 0.75518 0.0
N1450 N 0.42106 0.29615 0.75317 0.0
N1451 N 0.3822 0.24668 0.73649 0.0
C1452 C 0.40495 0.26427 0.72759 0.0
C1453 C 0.42619 0.29103 0.73672 0.0
C1454 C 0.71575 0.13948 0.7047 0.0
C1455 C 0.71582 0.14177 0.7229 0.0
C1456 C 0.74145 0.14651 0.69662 0.0
C1457 C 0.76814 0.15583 0.70645 0.0
H1458 H 0.69578 0.13257 0.69665 0.0
H1459 H 0.74036 0.14467 0.68259 0.0
S1460 S 0.77885 0.16262 0.75475 0.0
N1461 N 0.7442 0.15221 0.75047 0.0
N1462 N 0.79204 0.16519 0.73571 0.0
C1463 C 0.76807 0.15747 0.72474 0.0
C1464 C 0.74208 0.1505 0.73284 0.0
C1465 C 0.89047 0.59199 0.71817 0.0
C1466 C 0.8725 0.56282 0.7121 0.0
C1467 C 0.88594 0.61352 0.71171 0.0
C1468 C 0.86322 0.60684 0.69889 0.0
H1469 H 0.90839 0.59828 0.72791 0.0
H1470 H 0.90045 0.63563 0.71686 0.0
S1471 S 0.80866 0.53331 0.67959 0.0
N1472 N 0.8302 0.52815 0.69317 0.0
N1473 N 0.82173 0.56845 0.68093 0.0
C1474 C 0.84492 0.57765 0.69281 0.0
C1475 C 0.84954 0.55573 0.69943 0.0
C1476 C 0.50723 0.99171 0.16807 0.0
C1477 C 0.48675 0.9623 0.16869 0.0
C1478 C 0.51588 1.00369 0.15219 0.0
C1479 C 0.50467 0.98679 0.13618 0.0
H1480 H 0.51615 1.00581 0.17995 0.0
H1481 H 0.5315 0.02648 0.15248 0.0
S1482 S 0.45127 0.90833 0.13059 0.0
N1483 N 0.45638 0.91631 0.1518 0.0
N1484 N 0.47209 0.93882 0.12209 0.0
C1485 C 0.48459 0.95722 0.13664 0.0
C1486 C 0.47574 0.94503 0.15281 0.0
C1487 C 0.05636 0.53318 0.16372 0.0
C1488 C 0.04821 0.50863 0.17283 0.0
C1489 C 0.04446 0.53086 0.14671 0.0
C1490 C 0.02366 0.50395 0.13823 0.0
H1491 H 0.07233 0.55432 0.16972 0.0
H1492 H 0.05136 0.55032 0.1402 0.0
S1493 S 0.99484 0.43314 0.15639 0.0
N1494 N 0.01775 0.4566 0.17213 0.0
N1495 N 0.99582 0.45222 0.14016 0.0
C1496 C 0.01532 0.47927 0.14721 0.0
C1497 C 0.02749 0.48161 0.16447 0.0
C1498 C 0.50096 0.52652 0.1653 0.0
C1499 C 0.47431 0.505 0.17055 0.0
C1500 C 0.50959 0.52435 0.14866 0.0
C1501 C 0.492 0.50052 0.13659 0.0
H1502 H 0.51556 0.54494 0.17424 0.0
H1503 H 0.53051 0.54117 0.14535 0.0
S1504 S 0.4187 0.4401 0.14301 0.0
N1505 N 0.42932 0.46033 0.16162 0.0
N1506 N 0.44568 0.45617 0.13059 0.0
C1507 C 0.46499 0.4793 0.14148 0.0
C1508 C 0.45613 0.48155 0.15836 0.0
C1509 C 0.96558 0.48552 0.87591 0.0
C1510 C 0.9759 0.50908 0.86572 0.0
C1511 C 0.97765 0.48854 0.89297 0.0
C1512 C 1.00076 0.51514 0.90044 0.0
H1513 H 0.94776 0.46467 0.87073 0.0
H1514 H 0.96899 0.46982 0.90032 0.0
S1515 S 0.03596 0.58339 0.87919 0.0
N1516 N 1.01094 0.55981 0.8643 0.0
N1517 N 0.0333 0.56552 0.89634 0.0
C1518 C 1.01137 0.53881 0.89036 0.0
C1519 C 0.999 0.53578 0.87304 0.0
C1520 C 0.53398 0.48501 0.8762 0.0
C1521 C 0.54524 0.50868 0.86605 0.0
C1522 C 0.52412 0.48658 0.89255 0.0
C1523 C 0.5247 0.51175 0.89935 0.0
H1524 H 0.53322 0.46524 0.87159 0.0
H1525 H 0.51576 0.46784 0.89987 0.0
S1526 S 0.55162 0.5796 0.87785 0.0
N1527 N 0.55576 0.55787 0.86393 0.0
N1528 N 0.53775 0.56096 0.89457 0.0
C1529 C 0.53571 0.53546 0.88925 0.0
C1530 C 0.54585 0.5339 0.87268 0.0
C1531 C 0.54944 0.05718 0.87905 0.0
C1532 C 0.53115 0.04192 0.86391 0.0
C1533 C 0.54381 0.04565 0.89527 0.0
C1534 C 0.5196 0.01837 0.89709 0.0
H1535 H 0.56839 0.07819 0.87836 0.0
H1536 H 0.55871 0.05817 0.90646 0.0
S1537 S 0.46349 0.97075 0.8618 0.0
N1538 N 0.48689 0.99869 0.85206 0.0
N1539 N 0.47628 0.9772 0.88236 0.0
C1540 C 0.50098 1.00305 0.88208 0.0
C1541 C 0.50674 0.01475 0.86558 0.0
C1542 C 0.13837 0.28432 0.48808 0.0
C1543 C 0.15051 0.30106 0.50407 0.0
C1544 C 0.14695 0.29622 0.47218 0.0
C1545 C 0.16787 0.3255 0.47151 0.0
H1546 H 0.12212 0.26172 0.48783 0.0
H1547 H 0.13672 0.28243 0.46028 0.0
S1548 S 0.20652 0.37874 0.50963 0.0
N1549 N 0.18452 0.34864 0.51814 0.0
N1550 N 0.20105 0.37075 0.48843 0.0
C1551 C 0.18033 0.34243 0.48741 0.0
C1552 C 0.17163 0.3303 0.5036 0.0
C1553 C 0.72184 0.86532 0.49706 0.0
C1554 C 0.71221 0.84086 0.50644 0.0
C1555 C 0.71041 0.86322 0.47993 0.0
C1556 C 0.68861 0.83662 0.47158 0.0
H1557 H 0.73866 0.88621 0.50292 0.0
H1558 H 0.71852 0.88261 0.47323 0.0
S1559 S 0.65567 0.76617 0.49049 0.0
N1560 N 0.67919 0.78929 0.50614 0.0
N1561 N 0.65814 0.78526 0.47399 0.0
C1562 C 0.67872 0.81205 0.48085 0.0
C1563 C 0.69041 0.81418 0.49823 0.0
C1564 C 0.15927 0.86722 0.49405 0.0
C1565 C 0.144 0.84259 0.5031 0.0
C1566 C 0.16913 0.86544 0.47774 0.0
C1567 C 0.16454 0.83904 0.46995 0.0
H1568 H 0.16325 0.88797 0.4995 0.0
H1569 H 0.18071 0.88494 0.47126 0.0
S1570 S 0.12606 0.76828 0.48831 0.0
N1571 N 0.12518 0.79106 0.50307 0.0
N1572 N 0.14337 0.78769 0.47252 0.0
C1573 C 0.14944 0.81432 0.47891 0.0
C1574 C 0.13926 0.8161 0.49542 0.0
C1575 C 0.63844 0.8189 0.2088 0.0
C1576 C 0.64744 0.84294 0.19911 0.0
C1577 C 0.6503 0.82178 0.2259 0.0
C1578 C 0.67191 0.84875 0.23391 0.0
H1579 H 0.6218 0.79773 0.2032 0.0
H1580 H 0.64271 0.80268 0.23285 0.0
S1581 S 0.70322 0.91837 0.21411 0.0
N1582 N 0.67962 0.89456 0.19875 0.0
N1583 N 0.70152 0.9 0.23087 0.0
C1584 C 0.68116 0.87292 0.22434 0.0
C1585 C 0.66901 0.87002 0.20698 0.0
C1586 C 0.20804 0.82166 0.20884 0.0
C1587 C 0.21899 0.84513 0.19854 0.0
C1588 C 0.19861 0.82352 0.22527 0.0
C1589 C 0.19934 0.84878 0.232 0.0
H1590 H 0.20713 0.80181 0.20426 0.0
H1591 H 0.19039 0.80489 0.23269 0.0
S1592 S 0.22568 0.91624 0.21017 0.0
N1593 N 0.22952 0.8943 0.19624 0.0
N1594 N 0.21222 0.89788 0.22706 0.0
C1595 C 0.21011 0.87233 0.22179 0.0
C1596 C 0.21983 0.87049 0.20513 0.0
C1597 C 0.17981 0.35158 0.20072 0.0
C1598 C 0.19627 0.3814 0.19903 0.0
C1599 C 0.17444 0.34063 0.21707 0.0
C1600 C 0.18512 0.35895 0.23257 0.0
H1601 H 0.17093 0.33644 0.18927 0.0
H1602 H 0.1613 0.31754 0.21754 0.0
S1603 S 0.23007 0.43876 0.23553 0.0
N1604 N 0.22338 0.42911 0.21449 0.0
N1605 N 0.21394 0.40854 0.24511 0.0
C1606 C 0.20196 0.38881 0.23111 0.0
C1607 C 0.20744 0.39999 0.21442 0.0
C1608 C 0.84054 0.6361 0.8307 0.0
C1609 C 0.81346 0.62967 0.83656 0.0
C1610 C 0.84888 0.64753 0.81462 0.0
C1611 C 0.8307 0.65348 0.80388 0.0
H1612 H 0.85535 0.63208 0.83855 0.0
H1613 H 0.86996 0.65225 0.81073 0.0
S1614 S 0.75759 0.64059 0.81309 0.0
N1615 N 0.76856 0.63027 0.83018 0.0
N1616 N 0.78411 0.65146 0.80013 0.0
C1617 C 0.80356 0.64705 0.80955 0.0
C1618 C 0.79499 0.63523 0.82581 0.0
C1619 C 0.39308 0.17175 0.82429 0.0
C1620 C 0.38268 0.17959 0.83874 0.0
C1621 C 0.38122 0.16981 0.80733 0.0
C1622 C 0.35825 0.17535 0.80413 0.0
H1623 H 0.41058 0.16707 0.82609 0.0
H1624 H 0.3897 0.16331 0.79667 0.0
S1625 S 0.3235 0.19724 0.83737 0.0
N1626 N 0.34817 0.19316 0.84865 0.0
N1627 N 0.32619 0.18991 0.81683 0.0
C1628 C 0.34789 0.18356 0.81844 0.0
C1629 C 0.36005 0.18565 0.8357 0.0
C1630 C 0.80709 0.18467 0.82222 0.0
C1631 C 0.81859 0.17919 0.83738 0.0
C1632 C 0.81674 0.18257 0.8059 0.0
C1633 C 0.83835 0.17496 0.80404 0.0
H1634 H 0.78995 0.18992 0.8229 0.0
H1635 H 0.80665 0.18625 0.79459 0.0
S1636 S 0.87809 0.16203 0.83998 0.0
N1637 N 0.85449 0.16818 0.84962 0.0
N1638 N 0.87271 0.16445 0.81913 0.0
C1639 C 0.85071 0.17042 0.8192 0.0
C1640 C 0.84084 0.17247 0.83578 0.0
C1641 C 0.29693 0.17235 0.54515 0.0
C1642 C 0.31407 0.17635 0.53117 0.0
C1643 C 0.30837 0.17517 0.56235 0.0
C1644 C 0.33737 0.18198 0.56623 0.0
H1645 H 0.27465 0.16751 0.54281 0.0
H1646 H 0.29452 0.17246 0.5727 0.0
S1647 S 0.39029 0.19161 0.53411 0.0
N1648 N 0.36086 0.18566 0.52226 0.0
N1649 N 0.38225 0.19056 0.55445 0.0
C1650 C 0.35449 0.18533 0.5523 0.0
C1651 C 0.34288 0.18261 0.53483 0.0
C1652 C 0.86833 0.15225 0.54368 0.0
C1653 C 0.88265 0.17652 0.53421 0.0
C1654 C 0.8585 0.15425 0.55996 0.0
C1655 C 0.86218 0.18053 0.56736 0.0
H1656 H 0.86508 0.1316 0.53859 0.0
H1657 H 0.84767 0.13499 0.56675 0.0
S1658 S 0.89792 0.25039 0.5478 0.0
N1659 N 0.89952 0.22759 0.5334 0.0
N1660 N 0.88145 0.23139 0.56393 0.0
C1661 C 0.87631 0.20489 0.55797 0.0
C1662 C 0.88644 0.20289 0.54147 0.0
C1663 C 0.84292 0.68809 0.53411 0.0
C1664 C 0.86933 0.71324 0.53195 0.0
C1665 C 0.83662 0.67675 0.55032 0.0
C1666 C 0.85643 0.68998 0.56516 0.0
H1667 H 0.82664 0.67732 0.52324 0.0
H1668 H 0.81576 0.65765 0.55128 0.0
S1669 S 0.9298 0.75486 0.56624 0.0
N1670 N 0.91617 0.75011 0.54594 0.0
N1671 N 0.90444 0.7288 0.57629 0.0
C1672 C 0.88315 0.71488 0.56312 0.0
C1673 C 0.88956 0.72646 0.5466 0.0
loop_
_geom_bond_atom_site_label_1
_geom_bond_atom_site_label_2
_geom_bond_distance
_geom_bond_site_symmetry_2
_ccdc_geom_bond_type
C0 C1 1.264 . S
C0 C5 1.479 . S
C0 C10 1.465 . S
C1 C0 1.264 . S
C1 C3 1.339 . S
C1 H28 0.931 . S
C2 C3 1.395 . S
C2 C4 1.320 . S
C3 C1 1.339 . S
C3 C2 1.395 . S
C3 H29 0.929 . S
C4 C2 1.320 . S
C4 C5 1.405 . S
C4 H30 0.930 . S
C5 C0 1.479 . S
C5 C4 1.405 . S
C5 H31 0.931 . S
U6 O7 2.454 . S
U6 O8 2.458 . S
U6 C9 2.984 . S
U6 C10 2.847 . S
U6 C23 2.882 . S
U6 O24 2.441 . S
U6 O25 2.420 . S
U6 O26 2.455 . S
U6 O27 2.449 . S
O7 U6 2.454 . S
O7 C9 1.353 . S
O8 U6 2.458 . S
O8 C9 1.286 . S
C9 U6 2.984 . S
C9 O7 1.353 . S
C9 O8 1.286 . S
C9 C11 1.363 . S
C10 C0 1.465 . S
C10 U6 2.847 . S
C10 O24 1.249 . S
C10 O25 1.202 . S
C11 C9 1.363 . S
C11 C13 1.408 . S
C11 C16 1.342 . S
C12 C13 1.310 . S
C12 C15 1.461 . S
C12 H32 0.932 . S
C13 C11 1.408 . S
C13 C12 1.310 . S
C13 H33 0.930 . S
C14 C15 1.474 . S
C14 C16 1.285 . S
C14 H34 0.929 . S
C15 C12 1.461 . S
C15 C14 1.474 . S
C16 C11 1.342 . S
C16 C14 1.285 . S
C16 H35 0.930 . S
C17 C20 1.424 . S
C17 C22 1.245 . S
C17 C23 1.428 . S
C18 C21 1.260 . S
C18 C22 1.477 . S
C18 H36 0.932 . S
C19 C20 1.384 . S
C19 C21 1.479 . S
C19 H37 0.929 . S
C20 C17 1.424 . S
C20 C19 1.384 . S
C20 H38 0.928 . S
C21 C18 1.260 . S
C21 C19 1.479 . S
C22 C17 1.245 . S
C22 C18 1.477 . S
C22 H39 0.932 . S
C23 U6 2.882 . S
C23 C17 1.428 . S
C23 O26 1.301 . S
C23 O27 1.282 . S
O24 U6 2.441 . S
O24 C10 1.249 . S
O25 U6 2.420 . S
O25 C10 1.202 . S
O26 U6 2.455 . S
O26 C23 1.301 . S
O27 U6 2.449 . S
O27 C23 1.282 . S
H28 C1 0.931 . S
H29 C3 0.929 . S
H30 C4 0.930 . S
H31 C5 0.931 . S
H32 C12 0.932 . S
H33 C13 0.930 . S
H34 C14 0.929 . S
H35 C16 0.930 . S
H36 C18 0.932 . S
H37 C19 0.929 . S
H38 C20 0.928 . S
H39 C22 0.932 . S
C40 C41 1.264 . S
C40 C45 1.479 . S
C40 C50 1.465 . S
C41 C40 1.264 . S
C41 C43 1.339 . S
C41 H68 0.931 . S
C42 C43 1.395 . S
C42 C44 1.320 . S
C43 C41 1.339 . S
C43 C42 1.395 . S
C43 H69 0.929 . S
C44 C42 1.320 . S
C44 C45 1.405 . S
C44 H70 0.930 . S
C45 C40 1.479 . S
C45 C44 1.405 . S
C45 H71 0.931 . S
U46 O47 2.454 . S
U46 O48 2.458 . S
U46 C49 2.984 . S
U46 C50 2.847 . S
U46 C63 2.882 . S
U46 O64 2.441 . S
U46 O65 2.420 . S
U46 O66 2.455 . S
U46 O67 2.449 . S
O47 U46 2.454 . S
O47 C49 1.353 . S
O48 U46 2.458 . S
O48 C49 1.286 . S
C49 U46 2.984 . S
C49 O47 1.353 . S
C49 O48 1.286 . S
C49 C51 1.363 . S
C50 C40 1.465 . S
C50 U46 2.847 . S
C50 O64 1.249 . S
C50 O65 1.202 . S
C51 C49 1.363 . S
C51 C53 1.408 . S
C51 C56 1.342 . S
C52 C53 1.310 . S
C52 C55 1.461 . S
C52 H72 0.932 . S
C53 C51 1.408 . S
C53 C52 1.310 . S
C53 H73 0.930 . S
C54 C55 1.474 . S
C54 C56 1.285 . S
C54 H74 0.929 . S
C55 C52 1.461 . S
C55 C54 1.474 . S
C56 C51 1.342 . S
C56 C54 1.285 . S
C56 H75 0.930 . S
C57 C60 1.424 . S
C57 C62 1.245 . S
C57 C63 1.428 . S
C58 C61 1.260 . S
C58 C62 1.477 . S
C58 H76 0.932 . S
C59 C60 1.384 . S
C59 C61 1.479 . S
C59 H77 0.929 . S
C60 C57 1.424 . S
C60 C59 1.384 . S
C60 H78 0.928 . S
C61 C58 1.260 . S
C61 C59 1.479 . S
C62 C57 1.245 . S
C62 C58 1.477 . S
C62 H79 0.932 . S
C63 U46 2.882 . S
C63 C57 1.428 . S
C63 O66 1.301 . S
C63 O67 1.282 . S
O64 U46 2.441 . S
O64 C50 1.249 . S
O65 U46 2.420 . S
O65 C50 1.202 . S
O66 U46 2.455 . S
O66 C63 1.301 . S
O67 U46 2.449 . S
O67 C63 1.282 . S
H68 C41 0.931 . S
H69 C43 0.929 . S
H70 C44 0.930 . S
H71 C45 0.931 . S
H72 C52 0.932 . S
H73 C53 0.930 . S
H74 C54 0.929 . S
H75 C56 0.930 . S
H76 C58 0.932 . S
H77 C59 0.929 . S
H78 C60 0.928 . S
H79 C62 0.932 . S
C80 C81 1.264 . S
C80 C85 1.479 . S
C80 C90 1.465 . S
C81 C80 1.264 . S
C81 C83 1.339 . S
C81 H108 0.931 . S
C82 C83 1.395 . S
C82 C84 1.320 . S
C83 C81 1.339 . S
C83 C82 1.395 . S
C83 H109 0.929 . S
C84 C82 1.320 . S
C84 C85 1.405 . S
C84 H110 0.930 . S
C85 C80 1.479 . S
C85 C84 1.405 . S
C85 H111 0.931 . S
U86 O87 2.454 . S
U86 O88 2.458 . S
U86 C89 2.984 . S
U86 C90 2.847 . S
U86 C103 2.882 . S
U86 O104 2.441 . S
U86 O105 2.420 . S
U86 O106 2.455 . S
U86 O107 2.449 . S
O87 U86 2.454 . S
O87 C89 1.353 . S
O88 U86 2.458 . S
O88 C89 1.286 . S
C89 U86 2.984 . S
C89 O87 1.353 . S
C89 O88 1.286 . S
C89 C91 1.363 . S
C90 C80 1.465 . S
C90 U86 2.847 . S
C90 O104 1.249 . S
C90 O105 1.202 . S
C91 C89 1.363 . S
C91 C93 1.408 . S
C91 C96 1.342 . S
C92 C93 1.310 . S
C92 C95 1.461 1_655 S
C92 H112 0.932 . S
C93 C91 1.408 . S
C93 C92 1.310 . S
C93 H113 0.930 . S
C94 C95 1.474 . S
C94 C96 1.285 1_455 S
C94 H114 0.929 . S
C95 C92 1.461 1_455 S
C95 C94 1.474 . S
C96 C91 1.342 . S
C96 C94 1.285 1_655 S
C96 H115 0.930 . S
C97 C100 1.424 . S
C97 C102 1.245 . S
C97 C103 1.428 . S
C98 C101 1.260 . S
C98 C102 1.477 . S
C98 H116 0.932 . S
C99 C100 1.384 . S
C99 C101 1.479 . S
C99 H117 0.929 . S
C100 C97 1.424 . S
C100 C99 1.384 . S
C100 H118 0.928 . S
C101 C98 1.260 . S
C101 C99 1.479 . S
C102 C97 1.245 . S
C102 C98 1.477 . S
C102 H119 0.932 . S
C103 U86 2.882 . S
C103 C97 1.428 . S
C103 O106 1.301 . S
C103 O107 1.282 . S
O104 U86 2.441 . S
O104 C90 1.249 . S
O105 U86 2.420 . S
O105 C90 1.202 . S
O106 U86 2.455 . S
O106 C103 1.301 . S
O107 U86 2.449 . S
O107 C103 1.282 . S
H108 C81 0.931 . S
H109 C83 0.929 . S
H110 C84 0.930 . S
H111 C85 0.931 . S
H112 C92 0.932 . S
H113 C93 0.930 . S
H114 C94 0.929 . S
H115 C96 0.930 . S
H116 C98 0.932 . S
H117 C99 0.929 . S
H118 C100 0.928 . S
H119 C102 0.932 . S
C120 C121 1.264 . S
C120 C125 1.479 . S
C120 C130 1.465 . S
C121 C120 1.264 . S
C121 C123 1.339 . S
C121 H148 0.931 . S
C122 C123 1.395 1_655 S
C122 C124 1.320 1_655 S
C123 C121 1.339 . S
C123 C122 1.395 1_455 S
C123 H149 0.929 1_455 S
C124 C122 1.320 1_455 S
C124 C125 1.405 . S
C124 H150 0.930 . S
C125 C120 1.479 . S
C125 C124 1.405 . S
C125 H151 0.931 . S
U126 O127 2.454 . S
U126 O128 2.458 . S
U126 C129 2.984 . S
U126 C130 2.847 . S
U126 C143 2.882 . S
U126 O144 2.441 . S
U126 O145 2.420 . S
U126 O146 2.455 . S
U126 O147 2.449 . S
O127 U126 2.454 . S
O127 C129 1.353 . S
O128 U126 2.458 . S
O128 C129 1.286 . S
C129 U126 2.984 . S
C129 O127 1.353 . S
C129 O128 1.286 . S
C129 C131 1.363 . S
C130 C120 1.465 . S
C130 U126 2.847 . S
C130 O144 1.249 . S
C130 O145 1.202 . S
C131 C129 1.363 . S
C131 C133 1.408 . S
C131 C136 1.342 . S
C132 C133 1.310 . S
C132 C135 1.461 . S
C132 H152 0.932 . S
C133 C131 1.408 . S
C133 C132 1.310 . S
C133 H153 0.930 . S
C134 C135 1.474 . S
C134 C136 1.285 . S
C134 H154 0.929 . S
C135 C132 1.461 . S
C135 C134 1.474 . S
C136 C131 1.342 . S
C136 C134 1.285 . S
C136 H155 0.930 . S
C137 C140 1.424 . S
C137 C142 1.245 . S
C137 C143 1.428 . S
C138 C141 1.260 . S
C138 C142 1.477 . S
C138 H156 0.932 . S
C139 C140 1.384 . S
C139 C141 1.479 . S
C139 H157 0.929 . S
C140 C137 1.424 . S
C140 C139 1.384 . S
C140 H158 0.928 . S
C141 C138 1.260 . S
C141 C139 1.479 . S
C142 C137 1.245 . S
C142 C138 1.477 . S
C142 H159 0.932 . S
C143 U126 2.882 . S
C143 C137 1.428 . S
C143 O146 1.301 . S
C143 O147 1.282 . S
O144 U126 2.441 . S
O144 C130 1.249 . S
O145 U126 2.420 . S
O145 C130 1.202 . S
O146 U126 2.455 . S
O146 C143 1.301 . S
O147 U126 2.449 . S
O147 C143 1.282 . S
H148 C121 0.931 . S
H149 C123 0.929 1_655 S
H150 C124 0.930 . S
H151 C125 0.931 . S
H152 C132 0.932 . S
H153 C133 0.930 . S
H154 C134 0.929 . S
H155 C136 0.930 . S
H156 C138 0.932 . S
H157 C139 0.929 . S
H158 C140 0.928 . S
H159 C142 0.932 . S
C160 C161 1.264 . S
C160 C165 1.479 . S
C160 C170 1.465 . S
C161 C160 1.264 . S
C161 C163 1.339 . S
C161 H188 0.931 . S
C162 C163 1.395 . S
C162 C164 1.320 . S
C163 C161 1.339 . S
C163 C162 1.395 . S
C163 H189 0.929 . S
C164 C162 1.320 . S
C164 C165 1.405 . S
C164 H190 0.930 . S
C165 C160 1.479 . S
C165 C164 1.405 . S
C165 H191 0.931 . S
U166 O167 2.454 . S
U166 O168 2.458 . S
U166 C169 2.984 . S
U166 C170 2.847 . S
U166 C183 2.882 . S
U166 O184 2.441 . S
U166 O185 2.420 . S
U166 O186 2.455 . S
U166 O187 2.449 . S
O167 U166 2.454 . S
O167 C169 1.353 . S
O168 U166 2.458 . S
O168 C169 1.286 . S
C169 U166 2.984 . S
C169 O167 1.353 . S
C169 O168 1.286 . S
C169 C171 1.363 . S
C170 C160 1.465 . S
C170 U166 2.847 . S
C170 O184 1.249 . S
C170 O185 1.202 . S
C171 C169 1.363 . S
C171 C173 1.408 . S
C171 C176 1.342 . S
C172 C173 1.310 . S
C172 C175 1.461 . S
C172 H192 0.932 . S
C173 C171 1.408 . S
C173 C172 1.310 . S
C173 H193 0.930 . S
C174 C175 1.474 . S
C174 C176 1.285 . S
C174 H194 0.929 . S
C175 C172 1.461 . S
C175 C174 1.474 . S
C176 C171 1.342 . S
C176 C174 1.285 . S
C176 H195 0.930 . S
C177 C180 1.424 . S
C177 C182 1.245 . S
C177 C183 1.428 . S
C178 C181 1.260 . S
C178 C182 1.477 . S
C178 H196 0.932 . S
C179 C180 1.384 . S
C179 C181 1.479 . S
C179 H197 0.929 . S
C180 C177 1.424 . S
C180 C179 1.384 . S
C180 H198 0.928 . S
C181 C178 1.260 . S
C181 C179 1.479 . S
C182 C177 1.245 . S
C182 C178 1.477 . S
C182 H199 0.932 . S
C183 U166 2.882 . S
C183 C177 1.428 . S
C183 O186 1.301 . S
C183 O187 1.282 . S
O184 U166 2.441 . S
O184 C170 1.249 . S
O185 U166 2.420 . S
O185 C170 1.202 . S
O186 U166 2.455 . S
O186 C183 1.301 . S
O187 U166 2.449 . S
O187 C183 1.282 . S
H188 C161 0.931 . S
H189 C163 0.929 . S
H190 C164 0.930 . S
H191 C165 0.931 . S
H192 C172 0.932 . S
H193 C173 0.930 . S
H194 C174 0.929 . S
H195 C176 0.930 . S
H196 C178 0.932 . S
H197 C179 0.929 . S
H198 C180 0.928 . S
H199 C182 0.932 . S
C200 C201 1.264 . S
C200 C205 1.479 . S
C200 C210 1.465 . S
C201 C200 1.264 . S
C201 C203 1.339 . S
C201 H228 0.931 . S
C202 C203 1.395 . S
C202 C204 1.320 . S
C203 C201 1.339 . S
C203 C202 1.395 . S
C203 H229 0.922 1_455 S
C204 C202 1.320 . S
C204 C205 1.405 . S
C204 H230 0.930 . S
C205 C200 1.479 . S
C205 C204 1.405 . S
C205 H231 0.931 . S
U206 O207 2.454 . S
U206 O208 2.458 . S
U206 C209 2.984 . S
U206 C210 2.847 . S
U206 C223 2.882 . S
U206 O224 2.441 . S
U206 O225 2.420 . S
U206 O226 2.455 . S
U206 O227 2.449 . S
O207 U206 2.454 . S
O207 C209 1.353 . S
O208 U206 2.458 . S
O208 C209 1.286 . S
C209 U206 2.984 . S
C209 O207 1.353 . S
C209 O208 1.286 . S
C209 C211 1.363 . S
C210 C200 1.465 . S
C210 U206 2.847 . S
C210 O224 1.249 . S
C210 O225 1.202 . S
C211 C209 1.363 . S
C211 C213 1.408 . S
C211 C216 1.342 . S
C212 C213 1.310 . S
C212 C215 1.461 . S
C212 H232 0.932 . S
C213 C211 1.408 . S
C213 C212 1.310 . S
C213 H233 0.930 . S
C214 C215 1.474 . S
C214 C216 1.285 . S
C214 H234 0.929 . S
C215 C212 1.461 . S
C215 C214 1.474 . S
C216 C211 1.342 . S
C216 C214 1.285 . S
C216 H235 0.930 . S
C217 C220 1.424 . S
C217 C222 1.245 . S
C217 C223 1.428 . S
C218 C221 1.260 . S
C218 C222 1.477 . S
C218 H236 0.932 . S
C219 C220 1.384 . S
C219 C221 1.479 . S
C219 H237 0.929 . S
C220 C217 1.424 . S
C220 C219 1.384 . S
C220 H238 0.928 . S
C221 C218 1.260 . S
C221 C219 1.479 . S
C222 C217 1.245 . S
C222 C218 1.477 . S
C222 H239 0.932 . S
C223 U206 2.882 . S
C223 C217 1.428 . S
C223 O226 1.301 . S
C223 O227 1.282 . S
O224 U206 2.441 . S
O224 C210 1.249 . S
O225 U206 2.420 . S
O225 C210 1.202 . S
O226 U206 2.455 . S
O226 C223 1.301 . S
O227 U206 2.449 . S
O227 C223 1.282 . S
H228 C201 0.931 . S
H229 C203 0.922 1_655 S
H230 C204 0.930 . S
H231 C205 0.931 . S
H232 C212 0.932 . S
H233 C213 0.930 . S
H234 C214 0.929 . S
H235 C216 0.930 . S
H236 C218 0.932 . S
H237 C219 0.929 . S
H238 C220 0.928 . S
H239 C222 0.932 . S
C240 C241 1.264 . S
C240 C245 1.479 . S
C240 C250 1.465 . S
C241 C240 1.264 . S
C241 C243 1.339 . S
C241 H268 0.931 . S
C242 C243 1.395 . S
C242 C244 1.320 . S
C243 C241 1.339 . S
C243 C242 1.395 . S
C243 H269 0.929 . S
C244 C242 1.320 . S
C244 C245 1.405 . S
C244 H270 0.930 . S
C245 C240 1.479 . S
C245 C244 1.405 . S
C245 H271 0.931 . S
U246 O247 2.454 . S
U246 O248 2.458 . S
U246 C249 2.984 . S
U246 C250 2.847 . S
U246 C263 2.882 . S
U246 O264 2.441 . S
U246 O265 2.420 . S
U246 O266 2.455 . S
U246 O267 2.449 . S
O247 U246 2.454 . S
O247 C249 1.353 . S
O248 U246 2.458 . S
O248 C249 1.286 . S
C249 U246 2.984 . S
C249 O247 1.353 . S
C249 O248 1.286 . S
C249 C251 1.363 . S
C250 C240 1.465 . S
C250 U246 2.847 . S
C250 O264 1.249 . S
C250 O265 1.202 . S
C251 C249 1.363 . S
C251 C253 1.408 . S
C251 C256 1.342 . S
C252 C253 1.310 . S
C252 C255 1.461 . S
C252 H272 0.932 . S
C253 C251 1.408 . S
C253 C252 1.310 . S
C253 H273 0.930 . S
C254 C255 1.474 . S
C254 C256 1.285 . S
C254 H274 0.929 . S
C255 C252 1.461 . S
C255 C254 1.474 . S
C256 C251 1.342 . S
C256 C254 1.285 . S
C256 H275 0.930 . S
C257 C260 1.424 . S
C257 C262 1.245 . S
C257 C263 1.428 . S
C258 C261 1.260 . S
C258 C262 1.477 . S
C258 H276 0.932 . S
C259 C260 1.384 . S
C259 C261 1.479 . S
C259 H277 0.929 . S
C260 C257 1.424 . S
C260 C259 1.384 . S
C260 H278 0.928 . S
C261 C258 1.260 . S
C261 C259 1.479 . S
C262 C257 1.245 . S
C262 C258 1.477 . S
C262 H279 0.932 . S
C263 U246 2.882 . S
C263 C257 1.428 . S
C263 O266 1.301 . S
C263 O267 1.282 . S
O264 U246 2.441 . S
O264 C250 1.249 . S
O265 U246 2.420 . S
O265 C250 1.202 . S
O266 U246 2.455 . S
O266 C263 1.301 . S
O267 U246 2.449 . S
O267 C263 1.282 . S
H268 C241 0.931 . S
H269 C243 0.929 . S
H270 C244 0.930 . S
H271 C245 0.931 . S
H272 C252 0.932 . S
H273 C253 0.930 . S
H274 C254 0.929 . S
H275 C256 0.930 . S
H276 C258 0.932 . S
H277 C259 0.929 . S
H278 C260 0.928 . S
H279 C262 0.932 . S
C280 C281 1.264 . S
C280 C285 1.479 . S
C280 C290 1.465 . S
C281 C280 1.264 . S
C281 C283 1.339 . S
C281 H308 0.931 . S
C282 C283 1.395 . S
C282 C284 1.320 . S
C283 C281 1.339 . S
C283 C282 1.395 . S
C283 H309 0.929 . S
C284 C282 1.320 . S
C284 C285 1.405 . S
C284 H310 0.930 . S
C285 C280 1.479 . S
C285 C284 1.405 . S
C285 H311 0.931 . S
U286 O287 2.454 . S
U286 O288 2.458 . S
U286 C289 2.984 . S
U286 C290 2.847 . S
U286 C303 2.882 . S
U286 O304 2.441 . S
U286 O305 2.420 . S
U286 O306 2.455 . S
U286 O307 2.449 . S
O287 U286 2.454 . S
O287 C289 1.353 . S
O288 U286 2.458 . S
O288 C289 1.286 . S
C289 U286 2.984 . S
C289 O287 1.353 . S
C289 O288 1.286 . S
C289 C291 1.363 . S
C290 C280 1.465 . S
C290 U286 2.847 . S
C290 O304 1.249 . S
C290 O305 1.202 . S
C291 C289 1.363 . S
C291 C293 1.408 . S
C291 C296 1.342 . S
C292 C293 1.310 . S
C292 C295 1.461 . S
C292 H312 0.932 . S
C293 C291 1.408 . S
C293 C292 1.310 . S
C293 H313 0.930 . S
C294 C295 1.474 . S
C294 C296 1.285 . S
C294 H314 0.929 . S
C295 C292 1.461 . S
C295 C294 1.474 . S
C296 C291 1.342 . S
C296 C294 1.285 . S
C296 H315 0.930 . S
C297 C300 1.424 . S
C297 C302 1.245 . S
C297 C303 1.428 . S
C298 C301 1.260 . S
C298 C302 1.477 . S
C298 H316 0.932 . S
C299 C300 1.384 . S
C299 C301 1.479 . S
C299 H317 0.929 . S
C300 C297 1.424 . S
C300 C299 1.384 . S
C300 H318 0.928 . S
C301 C298 1.260 . S
C301 C299 1.479 . S
C302 C297 1.245 . S
C302 C298 1.477 . S
C302 H319 0.932 . S
C303 U286 2.882 . S
C303 C297 1.428 . S
C303 O306 1.301 . S
C303 O307 1.282 . S
O304 U286 2.441 . S
O304 C290 1.249 . S
O305 U286 2.420 . S
O305 C290 1.202 . S
O306 U286 2.455 . S
O306 C303 1.301 . S
O307 U286 2.449 . S
O307 C303 1.282 . S
H308 C281 0.931 . S
H309 C283 0.929 . S
H310 C284 0.930 . S
H311 C285 0.931 . S
H312 C292 0.932 . S
H313 C293 0.930 . S
H314 C294 0.929 . S
H315 C296 0.930 . S
H316 C298 0.932 . S
H317 C299 0.929 . S
H318 C300 0.928 . S
H319 C302 0.932 . S
C320 C321 1.264 . S
C320 C325 1.479 . S
C320 C330 1.465 . S
C321 C320 1.264 . S
C321 C323 1.339 . S
C321 H348 0.931 . S
C322 C323 1.395 . S
C322 C324 1.320 . S
C323 C321 1.339 . S
C323 C322 1.395 . S
C323 H349 0.929 . S
C324 C322 1.320 . S
C324 C325 1.405 . S
C324 H350 0.930 . S
C325 C320 1.479 . S
C325 C324 1.405 . S
C325 H351 0.931 . S
U326 O327 2.454 . S
U326 O328 2.458 . S
U326 C329 2.984 . S
U326 C330 2.847 . S
U326 C343 2.882 . S
U326 O344 2.441 . S
U326 O345 2.420 . S
U326 O346 2.455 . S
U326 O347 2.449 . S
O327 U326 2.454 . S
O327 C329 1.353 . S
O328 U326 2.458 . S
O328 C329 1.286 . S
C329 U326 2.984 . S
C329 O327 1.353 . S
C329 O328 1.286 . S
C329 C331 1.363 . S
C330 C320 1.465 . S
C330 U326 2.847 . S
C330 O344 1.249 . S
C330 O345 1.202 . S
C331 C329 1.363 . S
C331 C333 1.408 . S
C331 C336 1.342 . S
C332 C333 1.310 . S
C332 C335 1.461 . S
C332 H352 0.932 . S
C333 C331 1.408 . S
C333 C332 1.310 . S
C333 H353 0.930 . S
C334 C335 1.474 . S
C334 C336 1.285 . S
C334 H354 0.929 . S
C335 C332 1.461 . S
C335 C334 1.474 . S
C336 C331 1.342 . S
C336 C334 1.285 . S
C336 H355 0.930 . S
C337 C340 1.424 . S
C337 C342 1.245 . S
C337 C343 1.428 . S
C338 C341 1.260 . S
C338 C342 1.477 . S
C338 H356 0.932 . S
C339 C340 1.384 . S
C339 C341 1.479 . S
C339 H357 0.929 . S
C340 C337 1.424 . S
C340 C339 1.384 . S
C340 H358 0.928 . S
C341 C338 1.260 . S
C341 C339 1.479 . S
C342 C337 1.245 . S
C342 C338 1.477 . S
C342 H359 0.932 . S
C343 U326 2.882 . S
C343 C337 1.428 . S
C343 O346 1.301 . S
C343 O347 1.282 . S
O344 U326 2.441 . S
O344 C330 1.249 . S
O345 U326 2.420 . S
O345 C330 1.202 . S
O346 U326 2.455 . S
O346 C343 1.301 . S
O347 U326 2.449 . S
O347 C343 1.282 . S
H348 C321 0.931 . S
H349 C323 0.929 . S
H350 C324 0.930 . S
H351 C325 0.931 . S
H352 C332 0.932 . S
H353 C333 0.930 . S
H354 C334 0.929 . S
H355 C336 0.930 . S
H356 C338 0.932 . S
H357 C339 0.929 . S
H358 C340 0.928 . S
H359 C342 0.932 . S
C360 C361 1.264 . S
C360 C365 1.479 . S
C360 C370 1.465 . S
C361 C360 1.264 . S
C361 C363 1.339 . S
C361 H388 0.931 . S
C362 C363 1.395 . S
C362 C364 1.320 . S
C363 C361 1.339 . S
C363 C362 1.395 . S
C363 H389 0.929 . S
C364 C362 1.320 . S
C364 C365 1.405 . S
C364 H390 0.930 . S
C365 C360 1.479 . S
C365 C364 1.405 . S
C365 H391 0.931 . S
U366 O367 2.454 . S
U366 O368 2.458 . S
U366 C369 2.984 . S
U366 C370 2.847 . S
U366 C383 2.882 . S
U366 O384 2.441 . S
U366 O385 2.420 . S
U366 O386 2.455 . S
U366 O387 2.449 . S
O367 U366 2.454 . S
O367 C369 1.353 . S
O368 U366 2.458 . S
O368 C369 1.286 . S
C369 U366 2.984 . S
C369 O367 1.353 . S
C369 O368 1.286 . S
C369 C371 1.363 . S
C370 C360 1.465 . S
C370 U366 2.847 . S
C370 O384 1.249 . S
C370 O385 1.202 . S
C371 C369 1.363 . S
C371 C373 1.408 . S
C371 C376 1.342 . S
C372 C373 1.310 . S
C372 C375 1.461 . S
C372 H392 0.932 . S
C373 C371 1.408 . S
C373 C372 1.310 . S
C373 H393 0.930 . S
C374 C375 1.474 . S
C374 C376 1.285 . S
C374 H394 0.929 . S
C375 C372 1.461 . S
C375 C374 1.474 . S
C376 C371 1.342 . S
C376 C374 1.285 . S
C376 H395 0.930 . S
C377 C380 1.424 . S
C377 C382 1.245 . S
C377 C383 1.428 . S
C378 C381 1.260 . S
C378 C382 1.477 . S
C378 H396 0.932 . S
C379 C380 1.384 . S
C379 C381 1.479 . S
C379 H397 0.929 . S
C380 C377 1.424 . S
C380 C379 1.384 . S
C380 H398 0.928 . S
C381 C378 1.260 . S
C381 C379 1.479 . S
C382 C377 1.245 . S
C382 C378 1.477 . S
C382 H399 0.932 . S
C383 U366 2.882 . S
C383 C377 1.428 . S
C383 O386 1.301 . S
C383 O387 1.282 . S
O384 U366 2.441 . S
O384 C370 1.249 . S
O385 U366 2.420 . S
O385 C370 1.202 . S
O386 U366 2.455 . S
O386 C383 1.301 . S
O387 U366 2.449 . S
O387 C383 1.282 . S
H388 C361 0.931 . S
H389 C363 0.929 . S
H390 C364 0.930 . S
H391 C365 0.931 . S
H392 C372 0.932 . S
H393 C373 0.930 . S
H394 C374 0.929 . S
H395 C376 0.930 . S
H396 C378 0.932 . S
H397 C379 0.929 . S
H398 C380 0.928 . S
H399 C382 0.932 . S
C400 C401 1.264 . S
C400 C405 1.479 . S
C400 C410 1.465 . S
C401 C400 1.264 . S
C401 C403 1.339 . S
C401 H428 0.931 . S
C402 C403 1.395 . S
C402 C404 1.320 . S
C403 C401 1.339 . S
C403 C402 1.395 . S
C403 H429 0.929 . S
C404 C402 1.320 . S
C404 C405 1.405 . S
C404 H430 0.930 1_556 S
C405 C400 1.479 . S
C405 C404 1.405 . S
C405 H431 0.931 . S
U406 O407 2.454 . S
U406 O408 2.458 . S
U406 C409 2.984 . S
U406 C410 2.847 . S
U406 C423 2.882 . S
U406 O424 2.441 . S
U406 O425 2.420 . S
U406 O426 2.455 . S
U406 O427 2.449 . S
O407 U406 2.454 . S
O407 C409 1.353 . S
O408 U406 2.458 . S
O408 C409 1.286 . S
C409 U406 2.984 . S
C409 O407 1.353 . S
C409 O408 1.286 . S
C409 C411 1.363 . S
C410 C400 1.465 . S
C410 U406 2.847 . S
C410 O424 1.249 . S
C410 O425 1.202 . S
C411 C409 1.363 . S
C411 C413 1.408 . S
C411 C416 1.342 . S
C412 C413 1.310 . S
C412 C415 1.461 . S
C412 H432 0.932 1_556 S
C413 C411 1.408 . S
C413 C412 1.310 . S
C413 H433 0.930 . S
C414 C415 1.474 . S
C414 C416 1.285 . S
C414 H434 0.929 . S
C415 C412 1.461 . S
C415 C414 1.474 . S
C416 C411 1.342 . S
C416 C414 1.285 . S
C416 H435 0.930 . S
C417 C420 1.424 . S
C417 C422 1.245 . S
C417 C423 1.428 . S
C418 C421 1.260 . S
C418 C422 1.477 . S
C418 H436 0.932 . S
C419 C420 1.384 . S
C419 C421 1.479 . S
C419 H437 0.929 . S
C420 C417 1.424 . S
C420 C419 1.384 . S
C420 H438 0.928 . S
C421 C418 1.260 . S
C421 C419 1.479 . S
C422 C417 1.245 . S
C422 C418 1.477 . S
C422 H439 0.932 . S
C423 U406 2.882 . S
C423 C417 1.428 . S
C423 O426 1.301 . S
C423 O427 1.282 . S
O424 U406 2.441 . S
O424 C410 1.249 . S
O425 U406 2.420 . S
O425 C410 1.202 . S
O426 U406 2.455 . S
O426 C423 1.301 . S
O427 U406 2.449 . S
O427 C423 1.282 . S
H428 C401 0.931 . S
H429 C403 0.929 . S
H430 C404 0.930 1_554 S
H431 C405 0.931 . S
H432 C412 0.932 1_554 S
H433 C413 0.930 . S
H434 C414 0.929 . S
H435 C416 0.930 . S
H436 C418 0.932 . S
H437 C419 0.929 . S
H438 C420 0.928 . S
H439 C422 0.932 . S
C440 C441 1.264 . S
C440 C445 1.479 . S
C440 C450 1.465 . S
C441 C440 1.264 . S
C441 C443 1.339 . S
C441 H468 0.931 . S
C442 C443 1.395 . S
C442 C444 1.320 . S
C443 C441 1.339 . S
C443 C442 1.395 . S
C443 H469 0.929 . S
C444 C442 1.320 . S
C444 C445 1.405 . S
C444 H470 0.930 . S
C445 C440 1.479 . S
C445 C444 1.405 . S
C445 H471 0.931 . S
U446 O447 2.454 . S
U446 O448 2.458 . S
U446 C449 2.984 . S
U446 C450 2.847 . S
U446 C463 2.882 . S
U446 O464 2.441 . S
U446 O465 2.420 . S
U446 O466 2.455 . S
U446 O467 2.449 . S
O447 U446 2.454 . S
O447 C449 1.353 . S
O448 U446 2.458 . S
O448 C449 1.286 . S
C449 U446 2.984 . S
C449 O447 1.353 . S
C449 O448 1.286 . S
C449 C451 1.363 . S
C450 C440 1.465 . S
C450 U446 2.847 . S
C450 O464 1.249 . S
C450 O465 1.202 . S
C451 C449 1.363 . S
C451 C453 1.408 . S
C451 C456 1.342 . S
C452 C453 1.310 . S
C452 C455 1.461 . S
C452 H472 0.870 1_556 S
C453 C451 1.408 . S
C453 C452 1.310 . S
C453 H473 0.930 . S
C454 C455 1.474 . S
C454 C456 1.285 . S
C454 H474 0.929 . S
C455 C452 1.461 . S
C455 C454 1.474 . S
C456 C451 1.342 . S
C456 C454 1.285 . S
C456 H475 0.930 . S
C457 C460 1.424 . S
C457 C462 1.245 . S
C457 C463 1.428 . S
C458 C461 1.260 . S
C458 C462 1.477 . S
C458 H476 0.932 . S
C459 C460 1.384 . S
C459 C461 1.479 . S
C459 H477 0.929 . S
C460 C457 1.424 . S
C460 C459 1.384 . S
C460 H478 0.928 . S
C461 C458 1.260 . S
C461 C459 1.479 . S
C462 C457 1.245 . S
C462 C458 1.477 . S
C462 H479 0.932 . S
C463 U446 2.882 . S
C463 C457 1.428 . S
C463 O466 1.301 . S
C463 O467 1.282 . S
O464 U446 2.441 . S
O464 C450 1.249 . S
O465 U446 2.420 . S
O465 C450 1.202 . S
O466 U446 2.455 . S
O466 C463 1.301 . S
O467 U446 2.449 . S
O467 C463 1.282 . S
H468 C441 0.931 . S
H469 C443 0.929 . S
H470 C444 0.930 . S
H471 C445 0.931 . S
H472 C452 0.870 1_554 S
H473 C453 0.930 . S
H474 C454 0.929 . S
H475 C456 0.930 . S
H476 C458 0.932 . S
H477 C459 0.929 . S
H478 C460 0.928 . S
H479 C462 0.932 . S
C480 C481 1.264 . S
C480 C485 1.479 . S
C480 C490 1.465 . S
C481 C480 1.264 . S
C481 C483 1.339 . S
C481 H508 0.931 . S
C482 C483 1.395 . S
C482 C484 1.320 . S
C483 C481 1.339 . S
C483 C482 1.395 . S
C483 H509 0.929 . S
C484 C482 1.320 . S
C484 C485 1.405 . S
C484 H510 0.930 . S
C485 C480 1.479 . S
C485 C484 1.405 . S
C485 H511 0.931 . S
U486 O487 2.454 . S
U486 O488 2.458 . S
U486 C489 2.984 . S
U486 C490 2.847 . S
U486 C503 2.882 . S
U486 O504 2.441 . S
U486 O505 2.420 . S
U486 O506 2.455 . S
U486 O507 2.449 . S
O487 U486 2.454 . S
O487 C489 1.353 . S
O488 U486 2.458 . S
O488 C489 1.286 . S
C489 U486 2.984 . S
C489 O487 1.353 . S
C489 O488 1.286 . S
C489 C491 1.363 . S
C490 C480 1.465 . S
C490 U486 2.847 . S
C490 O504 1.249 . S
C490 O505 1.202 . S
C491 C489 1.363 . S
C491 C493 1.408 . S
C491 C496 1.342 . S
C492 C493 1.310 . S
C492 C495 1.461 . S
C492 H512 0.932 1_554 S
C493 C491 1.408 . S
C493 C492 1.310 . S
C493 H513 0.930 . S
C494 C495 1.474 . S
C494 C496 1.285 . S
C494 H514 0.929 . S
C495 C492 1.461 . S
C495 C494 1.474 . S
C496 C491 1.342 . S
C496 C494 1.285 . S
C496 H515 0.930 . S
C497 C500 1.424 . S
C497 C502 1.245 . S
C497 C503 1.428 . S
C498 C501 1.260 . S
C498 C502 1.477 . S
C498 H516 0.932 . S
C499 C500 1.384 . S
C499 C501 1.479 . S
C499 H517 0.929 . S
C500 C497 1.424 . S
C500 C499 1.384 . S
C500 H518 0.928 . S
C501 C498 1.260 . S
C501 C499 1.479 . S
C502 C497 1.245 . S
C502 C498 1.477 . S
C502 H519 0.932 . S
C503 U486 2.882 . S
C503 C497 1.428 . S
C503 O506 1.301 . S
C503 O507 1.282 . S
O504 U486 2.441 . S
O504 C490 1.249 . S
O505 U486 2.420 . S
O505 C490 1.202 . S
O506 U486 2.455 . S
O506 C503 1.301 . S
O507 U486 2.449 . S
O507 C503 1.282 . S
H508 C481 0.931 . S
H509 C483 0.929 . S
H510 C484 0.930 . S
H511 C485 0.931 . S
H512 C492 0.932 1_556 S
H513 C493 0.930 . S
H514 C494 0.929 . S
H515 C496 0.930 . S
H516 C498 0.932 . S
H517 C499 0.929 . S
H518 C500 0.928 . S
H519 C502 0.932 . S
C520 C521 1.264 . S
C520 C525 1.479 . S
C520 C530 1.465 . S
C521 C520 1.264 . S
C521 C523 1.339 . S
C521 H548 0.931 . S
C522 C523 1.395 . S
C522 C524 1.320 . S
C523 C521 1.339 . S
C523 C522 1.395 . S
C523 H549 0.929 . S
C524 C522 1.320 . S
C524 C525 1.405 . S
C524 H550 0.930 . S
C525 C520 1.479 . S
C525 C524 1.405 . S
C525 H551 0.931 . S
U526 O527 2.454 . S
U526 O528 2.458 . S
U526 C529 2.984 . S
U526 C530 2.847 . S
U526 C543 2.882 . S
U526 O544 2.441 . S
U526 O545 2.420 . S
U526 O546 2.455 . S
U526 O547 2.449 . S
O527 U526 2.454 . S
O527 C529 1.353 . S
O528 U526 2.458 . S
O528 C529 1.286 . S
C529 U526 2.984 . S
C529 O527 1.353 . S
C529 O528 1.286 . S
C529 C531 1.363 . S
C530 C520 1.465 . S
C530 U526 2.847 . S
C530 O544 1.249 . S
C530 O545 1.202 . S
C531 C529 1.363 . S
C531 C533 1.408 . S
C531 C536 1.342 . S
C532 C533 1.310 . S
C532 C535 1.461 . S
C532 H552 0.932 . S
C533 C531 1.408 . S
C533 C532 1.310 . S
C533 H553 0.930 . S
C534 C535 1.474 . S
C534 C536 1.285 . S
C534 H554 0.929 . S
C535 C532 1.461 . S
C535 C534 1.474 . S
C536 C531 1.342 . S
C536 C534 1.285 . S
C536 H555 0.930 . S
C537 C540 1.424 . S
C537 C542 1.245 . S
C537 C543 1.428 . S
C538 C541 1.260 . S
C538 C542 1.477 . S
C538 H556 0.932 . S
C539 C540 1.384 . S
C539 C541 1.479 . S
C539 H557 0.929 . S
C540 C537 1.424 . S
C540 C539 1.384 . S
C540 H558 0.928 . S
C541 C538 1.260 . S
C541 C539 1.479 . S
C542 C537 1.245 . S
C542 C538 1.477 . S
C542 H559 0.932 . S
C543 U526 2.882 . S
C543 C537 1.428 . S
C543 O546 1.301 . S
C543 O547 1.282 . S
O544 U526 2.441 . S
O544 C530 1.249 . S
O545 U526 2.420 . S
O545 C530 1.202 . S
O546 U526 2.455 . S
O546 C543 1.301 . S
O547 U526 2.449 . S
O547 C543 1.282 . S
H548 C521 0.931 . S
H549 C523 0.929 . S
H550 C524 0.930 . S
H551 C525 0.931 . S
H552 C532 0.932 . S
H553 C533 0.930 . S
H554 C534 0.929 . S
H555 C536 0.930 . S
H556 C538 0.932 . S
H557 C539 0.929 . S
H558 C540 0.928 . S
H559 C542 0.932 . S
C560 C561 1.264 . S
C560 C565 1.479 . S
C560 C570 1.465 . S
C561 C560 1.264 . S
C561 C563 1.339 . S
C561 H588 0.931 . S
C562 C563 1.395 . S
C562 C564 1.320 . S
C563 C561 1.339 . S
C563 C562 1.395 . S
C563 H589 0.929 . S
C564 C562 1.320 . S
C564 C565 1.405 . S
C564 H590 0.930 . S
C565 C560 1.479 . S
C565 C564 1.405 . S
C565 H591 0.931 . S
U566 O567 2.454 . S
U566 O568 2.458 . S
U566 C569 2.984 . S
U566 C570 2.847 . S
U566 C583 2.882 . S
U566 O584 2.441 . S
U566 O585 2.420 . S
U566 O586 2.455 . S
U566 O587 2.449 . S
O567 U566 2.454 . S
O567 C569 1.353 . S
O568 U566 2.458 . S
O568 C569 1.286 . S
C569 U566 2.984 . S
C569 O567 1.353 . S
C569 O568 1.286 . S
C569 C571 1.363 . S
C570 C560 1.465 . S
C570 U566 2.847 . S
C570 O584 1.249 . S
C570 O585 1.202 . S
C571 C569 1.363 . S
C571 C573 1.408 . S
C571 C576 1.342 . S
C572 C573 1.310 . S
C572 C575 1.461 . S
C572 H592 0.932 . S
C573 C571 1.408 . S
C573 C572 1.310 . S
C573 H593 0.930 . S
C574 C575 1.474 . S
C574 C576 1.285 . S
C574 H594 0.929 . S
C575 C572 1.461 . S
C575 C574 1.474 . S
C576 C571 1.342 . S
C576 C574 1.285 . S
C576 H595 0.930 . S
C577 C580 1.424 . S
C577 C582 1.245 . S
C577 C583 1.428 . S
C578 C581 1.260 . S
C578 C582 1.477 . S
C578 H596 0.932 . S
C579 C580 1.384 . S
C579 C581 1.479 . S
C579 H597 0.929 . S
C580 C577 1.424 . S
C580 C579 1.384 . S
C580 H598 0.928 . S
C581 C578 1.260 . S
C581 C579 1.479 . S
C582 C577 1.245 . S
C582 C578 1.477 . S
C582 H599 0.932 . S
C583 U566 2.882 . S
C583 C577 1.428 . S
C583 O586 1.301 . S
C583 O587 1.282 . S
O584 U566 2.441 . S
O584 C570 1.249 . S
O585 U566 2.420 . S
O585 C570 1.202 . S
O586 U566 2.455 . S
O586 C583 1.301 . S
O587 U566 2.449 . S
O587 C583 1.282 . S
H588 C561 0.931 . S
H589 C563 0.929 . S
H590 C564 0.930 . S
H591 C565 0.931 . S
H592 C572 0.932 . S
H593 C573 0.930 . S
H594 C574 0.929 . S
H595 C576 0.930 . S
H596 C578 0.932 . S
H597 C579 0.929 . S
H598 C580 0.928 . S
H599 C582 0.932 . S
C600 C601 1.264 . S
C600 C605 1.479 . S
C600 C610 1.465 . S
C601 C600 1.264 . S
C601 C603 1.339 . S
C601 H628 0.931 . S
C602 C603 1.395 . S
C602 C604 1.320 . S
C603 C601 1.339 . S
C603 C602 1.395 . S
C603 H629 0.929 . S
C604 C602 1.320 . S
C604 C605 1.405 . S
C604 H630 0.930 . S
C605 C600 1.479 . S
C605 C604 1.405 . S
C605 H631 0.931 . S
U606 O607 2.454 . S
U606 O608 2.458 . S
U606 C609 2.984 . S
U606 C610 2.847 . S
U606 C623 2.882 . S
U606 O624 2.441 . S
U606 O625 2.420 . S
U606 O626 2.455 . S
U606 O627 2.449 . S
O607 U606 2.454 . S
O607 C609 1.353 . S
O608 U606 2.458 . S
O608 C609 1.286 . S
C609 U606 2.984 . S
C609 O607 1.353 . S
C609 O608 1.286 . S
C609 C611 1.363 . S
C610 C600 1.465 . S
C610 U606 2.847 . S
C610 O624 1.249 . S
C610 O625 1.202 . S
C611 C609 1.363 . S
C611 C613 1.408 . S
C611 C616 1.342 . S
C612 C613 1.310 . S
C612 C615 1.461 . S
C612 H632 0.932 . S
C613 C611 1.408 . S
C613 C612 1.310 . S
C613 H633 0.930 . S
C614 C615 1.474 . S
C614 C616 1.285 . S
C614 H634 0.929 . S
C615 C612 1.461 . S
C615 C614 1.474 . S
C616 C611 1.342 . S
C616 C614 1.285 . S
C616 H635 0.930 . S
C617 C620 1.424 . S
C617 C622 1.245 . S
C617 C623 1.428 . S
C618 C621 1.260 . S
C618 C622 1.477 . S
C618 H636 0.932 . S
C619 C620 1.384 . S
C619 C621 1.479 . S
C619 H637 0.929 . S
C620 C617 1.424 . S
C620 C619 1.384 . S
C620 H638 0.928 . S
C621 C618 1.260 . S
C621 C619 1.479 . S
C622 C617 1.245 . S
C622 C618 1.477 . S
C622 H639 0.932 . S
C623 U606 2.882 . S
C623 C617 1.428 . S
C623 O626 1.301 . S
C623 O627 1.282 . S
O624 U606 2.441 . S
O624 C610 1.249 . S
O625 U606 2.420 . S
O625 C610 1.202 . S
O626 U606 2.455 . S
O626 C623 1.301 . S
O627 U606 2.449 . S
O627 C623 1.282 . S
H628 C601 0.931 . S
H629 C603 0.929 . S
H630 C604 0.930 . S
H631 C605 0.931 . S
H632 C612 0.932 . S
H633 C613 0.930 . S
H634 C614 0.929 . S
H635 C616 0.930 . S
H636 C618 0.932 . S
H637 C619 0.929 . S
H638 C620 0.928 . S
H639 C622 0.932 . S
C640 C641 1.264 . S
C640 C645 1.479 . S
C640 C650 1.465 . S
C641 C640 1.264 . S
C641 C643 1.339 . S
C641 H668 0.931 . S
C642 C643 1.395 . S
C642 C644 1.320 . S
C643 C641 1.339 . S
C643 C642 1.395 . S
C643 H669 0.929 . S
C644 C642 1.320 . S
C644 C645 1.405 . S
C644 H670 0.930 . S
C645 C640 1.479 . S
C645 C644 1.405 . S
C645 H671 0.931 . S
U646 O647 2.454 . S
U646 O648 2.458 . S
U646 C649 2.984 . S
U646 C650 2.847 . S
U646 C663 2.882 . S
U646 O664 2.441 . S
U646 O665 2.420 . S
U646 O666 2.455 . S
U646 O667 2.449 . S
O647 U646 2.454 . S
O647 C649 1.353 . S
O648 U646 2.458 . S
O648 C649 1.286 . S
C649 U646 2.984 . S
C649 O647 1.353 . S
C649 O648 1.286 . S
C649 C651 1.363 . S
C650 C640 1.465 . S
C650 U646 2.847 . S
C650 O664 1.249 . S
C650 O665 1.202 . S
C651 C649 1.363 . S
C651 C653 1.408 . S
C651 C656 1.342 . S
C652 C653 1.310 . S
C652 C655 1.461 . S
C652 H672 0.932 . S
C653 C651 1.408 . S
C653 C652 1.310 . S
C653 H673 0.930 . S
C654 C655 1.474 . S
C654 C656 1.285 . S
C654 H674 0.929 . S
C655 C652 1.461 . S
C655 C654 1.474 . S
C656 C651 1.342 . S
C656 C654 1.285 . S
C656 H675 0.930 . S
C657 C660 1.424 . S
C657 C662 1.245 . S
C657 C663 1.428 . S
C658 C661 1.260 . S
C658 C662 1.477 1_655 S
C658 H676 0.932 . S
C659 C660 1.384 1_655 S
C659 C661 1.479 . S
C659 H677 0.929 . S
C660 C657 1.424 . S
C660 C659 1.384 1_455 S
C660 H678 0.928 . S
C661 C658 1.260 . S
C661 C659 1.479 . S
C662 C657 1.245 . S
C662 C658 1.477 1_455 S
C662 H679 0.932 . S
C663 U646 2.882 . S
C663 C657 1.428 . S
C663 O666 1.301 . S
C663 O667 1.282 . S
O664 U646 2.441 . S
O664 C650 1.249 . S
O665 U646 2.420 . S
O665 C650 1.202 . S
O666 U646 2.455 . S
O666 C663 1.301 . S
O667 U646 2.449 . S
O667 C663 1.282 . S
H668 C641 0.931 . S
H669 C643 0.929 . S
H670 C644 0.930 . S
H671 C645 0.931 . S
H672 C652 0.932 . S
H673 C653 0.930 . S
H674 C654 0.929 . S
H675 C656 0.930 . S
H676 C658 0.932 . S
H677 C659 0.929 . S
H678 C660 0.928 . S
H679 C662 0.932 . S
C680 C681 1.264 . S
C680 C685 1.479 . S
C680 C690 1.465 . S
C681 C680 1.264 . S
C681 C683 1.339 . S
C681 H708 0.931 . S
C682 C683 1.395 . S
C682 C684 1.320 . S
C683 C681 1.339 . S
C683 C682 1.395 . S
C683 H709 0.929 . S
C684 C682 1.320 . S
C684 C685 1.405 . S
C684 H710 0.930 . S
C685 C680 1.479 . S
C685 C684 1.405 . S
C685 H711 0.931 . S
U686 O687 2.454 . S
U686 O688 2.458 . S
U686 C689 2.984 . S
U686 C690 2.847 . S
U686 C703 2.882 . S
U686 O704 2.441 . S
U686 O705 2.420 . S
U686 O706 2.455 . S
U686 O707 2.449 . S
O687 U686 2.454 . S
O687 C689 1.353 . S
O688 U686 2.458 . S
O688 C689 1.286 . S
C689 U686 2.984 . S
C689 O687 1.353 . S
C689 O688 1.286 . S
C689 C691 1.363 . S
C690 C680 1.465 . S
C690 U686 2.847 . S
C690 O704 1.249 . S
C690 O705 1.202 . S
C691 C689 1.363 . S
C691 C693 1.408 . S
C691 C696 1.342 . S
C692 C693 1.310 . S
C692 C695 1.461 . S
C692 H712 0.932 . S
C693 C691 1.408 . S
C693 C692 1.310 . S
C693 H713 0.930 . S
C694 C695 1.474 . S
C694 C696 1.285 . S
C694 H714 0.929 . S
C695 C692 1.461 . S
C695 C694 1.474 . S
C696 C691 1.342 . S
C696 C694 1.285 . S
C696 H715 0.930 . S
C697 C700 1.424 . S
C697 C702 1.245 . S
C697 C703 1.428 . S
C698 C701 1.260 . S
C698 C702 1.477 . S
C698 H716 0.932 . S
C699 C700 1.384 . S
C699 C701 1.479 . S
C699 H717 0.929 . S
C700 C697 1.424 . S
C700 C699 1.384 . S
C700 H718 0.928 . S
C701 C698 1.260 . S
C701 C699 1.479 . S
C702 C697 1.245 . S
C702 C698 1.477 . S
C702 H719 0.932 . S
C703 U686 2.882 . S
C703 C697 1.428 . S
C703 O706 1.301 . S
C703 O707 1.282 . S
O704 U686 2.441 . S
O704 C690 1.249 . S
O705 U686 2.420 . S
O705 C690 1.202 . S
O706 U686 2.455 . S
O706 C703 1.301 . S
O707 U686 2.449 . S
O707 C703 1.282 . S
H708 C681 0.931 . S
H709 C683 0.929 . S
H710 C684 0.930 . S
H711 C685 0.931 . S
H712 C692 0.932 . S
H713 C693 0.930 . S
H714 C694 0.929 . S
H715 C696 0.930 . S
H716 C698 0.932 . S
H717 C699 0.929 . S
H718 C700 0.928 . S
H719 C702 0.932 . S
Eu720 C729 2.828 . S
Eu720 O731 2.350 1_556 S
Eu720 O733 2.418 . S
Eu720 O738 2.373 1_565 S
Eu720 O741 2.488 . S
Eu720 O742 2.471 1_565 S
Eu720 O743 2.349 1_565 S
Eu721 O730 2.373 1_545 S
Eu721 O734 2.488 . S
Eu721 O735 2.471 1_545 S
Eu721 O736 2.349 1_545 S
Eu721 O739 2.392 . S
Eu721 O740 2.418 . S
Eu721 C750 2.828 . S
C722 O740 1.261 . S
C722 O743 1.258 1_554 S
C723 C724 1.379 1_565 S
C723 C727 1.373 . S
C723 C729 1.505 . S
C724 C723 1.379 1_545 S
C724 C726 1.369 . S
C724 H752 0.930 . S
C725 C727 1.383 . S
C725 C728 1.382 1_565 S
C725 H753 0.930 . S
C726 C724 1.369 . S
C726 C728 1.392 . S
C726 H754 0.930 . S
C727 C723 1.373 . S
C727 C725 1.383 . S
C727 H755 0.931 . S
C728 C725 1.382 1_545 S
C728 C726 1.392 . S
C729 Eu720 2.828 . S
C729 C723 1.505 . S
C729 O741 1.249 . S
C729 O742 1.244 1_565 S
O730 Eu721 2.373 1_565 S
O730 C732 1.258 . S
O731 Eu720 2.350 1_554 S
O731 C732 1.293 . S
C732 O730 1.258 . S
C732 O731 1.293 . S
O733 Eu720 2.418 . S
O733 C737 1.244 1_556 S
O734 Eu721 2.488 . S
O734 C750 1.249 . S
O735 Eu721 2.471 1_565 S
O735 C750 1.244 1_565 S
O736 Eu721 2.349 1_565 S
O736 C737 1.265 . S
C737 O733 1.244 1_554 S
C737 O736 1.265 . S
O738 Eu720 2.373 1_545 S
O738 C751 1.258 . S
O739 Eu721 2.392 . S
O739 C751 1.242 1_554 S
O740 Eu721 2.418 . S
O740 C722 1.261 . S
O741 Eu720 2.488 . S
O741 C729 1.249 . S
O742 Eu720 2.471 1_545 S
O742 C729 1.244 1_545 S
O743 Eu720 2.349 1_545 S
O743 C722 1.258 1_556 S
C744 C745 1.379 1_545 S
C744 C748 1.373 . S
C744 C750 1.505 . S
C745 C744 1.379 1_565 S
C745 C747 1.369 . S
C745 H756 0.930 . S
C746 C748 1.383 . S
C746 C749 1.382 1_545 S
C746 H757 0.930 . S
C747 C745 1.369 . S
C747 C749 1.392 . S
C747 H758 0.930 . S
C748 C744 1.373 . S
C748 C746 1.383 . S
C748 H759 0.931 . S
C749 C746 1.382 1_565 S
C749 C747 1.392 . S
C750 Eu721 2.828 . S
C750 O734 1.249 . S
C750 O735 1.244 1_545 S
C750 C744 1.505 . S
C751 O738 1.258 . S
C751 O739 1.242 1_556 S
H752 C724 0.930 . S
H753 C725 0.930 . S
H754 C726 0.930 . S
H755 C727 0.931 . S
H756 C745 0.930 . S
H757 C746 0.930 . S
H758 C747 0.930 . S
H759 C748 0.931 . S
Eu760 C769 2.828 . S
Eu760 O771 2.392 1_556 S
Eu760 O773 2.418 . S
Eu760 O778 2.373 1_455 S
Eu760 O781 2.488 . S
Eu760 O782 2.471 1_455 S
Eu760 O783 2.349 1_455 S
Eu761 O770 2.373 1_655 S
Eu761 O774 2.488 . S
Eu761 O775 2.471 1_655 S
Eu761 O776 2.349 1_655 S
Eu761 O779 2.392 . S
Eu761 O780 2.418 . S
Eu761 C790 2.828 . S
C762 O780 1.244 1_556 S
C762 O783 1.265 . S
C763 C764 1.379 1_455 S
C763 C767 1.373 . S
C763 C769 1.505 . S
C764 C763 1.379 1_655 S
C764 C766 1.369 . S
C764 H792 0.930 . S
C765 C767 1.383 . S
C765 C768 1.382 1_455 S
C765 H793 0.930 . S
C766 C764 1.369 . S
C766 C768 1.392 . S
C766 H794 0.930 . S
C767 C763 1.373 . S
C767 C765 1.383 . S
C767 H795 0.931 . S
C768 C765 1.382 1_655 S
C768 C766 1.392 . S
C769 Eu760 2.828 . S
C769 C763 1.505 . S
C769 O781 1.249 . S
C769 O782 1.244 1_455 S
O770 Eu761 2.373 1_455 S
O770 C772 1.258 . S
O771 Eu760 2.392 1_554 S
O771 C772 1.242 . S
C772 O770 1.258 . S
C772 O771 1.242 . S
O773 Eu760 2.418 . S
O773 C777 1.244 1_556 S
O774 Eu761 2.488 . S
O774 C790 1.249 . S
O775 Eu761 2.471 1_455 S
O775 C790 1.244 1_455 S
O776 Eu761 2.349 1_455 S
O776 C777 1.265 . S
C777 O773 1.244 1_554 S
C777 O776 1.265 . S
O778 Eu760 2.373 1_655 S
O778 C791 1.258 . S
O779 Eu761 2.392 . S
O779 C791 1.242 1_554 S
O780 Eu761 2.418 . S
O780 C762 1.244 1_554 S
O781 Eu760 2.488 . S
O781 C769 1.249 . S
O782 Eu760 2.471 1_655 S
O782 C769 1.244 1_655 S
O783 Eu760 2.349 1_655 S
O783 C762 1.265 . S
C784 C785 1.369 1_655 S
C784 C788 1.379 . S
C784 C790 1.509 . S
C785 C784 1.369 1_455 S
C785 C787 1.369 . S
C785 H796 0.930 . S
C786 C788 1.383 . S
C786 C789 1.382 1_655 S
C786 H797 0.930 . S
C787 C785 1.369 . S
C787 C789 1.392 . S
C787 H798 0.930 . S
C788 C784 1.379 . S
C788 C786 1.383 . S
C788 H799 0.931 . S
C789 C786 1.382 1_455 S
C789 C787 1.392 . S
C790 Eu761 2.828 . S
C790 O774 1.249 . S
C790 O775 1.244 1_655 S
C790 C784 1.509 . S
C791 O778 1.258 . S
C791 O779 1.242 1_556 S
H792 C764 0.930 . S
H793 C765 0.930 . S
H794 C766 0.930 . S
H795 C767 0.931 . S
H796 C785 0.930 . S
H797 C786 0.930 . S
H798 C787 0.930 . S
H799 C788 0.931 . S
Eu800 C809 2.828 . S
Eu800 O811 2.392 . S
Eu800 O813 2.418 . S
Eu800 O818 2.373 . S
Eu800 O821 2.488 . S
Eu800 O822 2.471 . S
Eu800 O823 2.349 . S
Eu801 O810 2.373 . S
Eu801 O814 2.488 . S
Eu801 O815 2.471 . S
Eu801 O816 2.349 . S
Eu801 O819 2.392 1_556 S
Eu801 O820 2.418 . S
Eu801 C830 2.828 . S
C802 O820 1.244 1_554 S
C802 O823 1.265 . S
C803 C804 1.379 . S
C803 C807 1.373 . S
C803 C809 1.505 . S
C804 C803 1.379 . S
C804 C806 1.369 . S
C804 H832 0.930 . S
C805 C807 1.383 . S
C805 C808 1.382 . S
C805 H833 0.930 . S
C806 C804 1.369 . S
C806 C808 1.392 . S
C806 H834 0.930 . S
C807 C803 1.373 . S
C807 C805 1.383 . S
C807 H835 0.931 . S
C808 C805 1.382 . S
C808 C806 1.392 . S
C809 Eu800 2.828 . S
C809 C803 1.505 . S
C809 O821 1.249 . S
C809 O822 1.244 . S
O810 Eu801 2.373 . S
O810 C812 1.258 . S
O811 Eu800 2.392 . S
O811 C812 1.242 1_554 S
C812 O810 1.258 . S
C812 O811 1.242 1_556 S
O813 Eu800 2.418 . S
O813 C817 1.244 1_554 S
O814 Eu801 2.488 . S
O814 C830 1.249 . S
O815 Eu801 2.471 . S
O815 C830 1.244 . S
O816 Eu801 2.349 . S
O816 C817 1.265 . S
C817 O813 1.244 1_556 S
C817 O816 1.265 . S
O818 Eu800 2.373 . S
O818 C831 1.258 . S
O819 Eu801 2.392 1_554 S
O819 C831 1.242 . S
O820 Eu801 2.418 . S
O820 C802 1.244 1_556 S
O821 Eu800 2.488 . S
O821 C809 1.249 . S
O822 Eu800 2.471 . S
O822 C809 1.244 . S
O823 Eu800 2.349 . S
O823 C802 1.265 . S
C824 C825 1.379 . S
C824 C828 1.373 . S
C824 C830 1.505 . S
C825 C824 1.379 . S
C825 C827 1.369 . S
C825 H836 0.930 . S
C826 C828 1.383 . S
C826 C829 1.382 . S
C826 H837 0.930 . S
C827 C825 1.369 . S
C827 C829 1.392 . S
C827 H838 0.930 . S
C828 C824 1.373 . S
C828 C826 1.383 . S
C828 H839 0.931 . S
C829 C826 1.382 . S
C829 C827 1.392 . S
C830 Eu801 2.828 . S
C830 O814 1.249 . S
C830 O815 1.244 . S
C830 C824 1.505 . S
C831 O818 1.258 . S
C831 O819 1.242 . S
H832 C804 0.930 . S
H833 C805 0.930 . S
H834 C806 0.930 . S
H835 C807 0.931 . S
H836 C825 0.930 . S
H837 C826 0.930 . S
H838 C827 0.930 . S
H839 C828 0.931 . S
Eu840 C849 2.828 . S
Eu840 O851 2.392 . S
Eu840 O853 2.418 . S
Eu840 O858 2.373 . S
Eu840 O861 2.488 . S
Eu840 O862 2.471 . S
Eu840 O863 2.349 . S
Eu841 O850 2.373 . S
Eu841 O854 2.488 . S
Eu841 O855 2.471 . S
Eu841 O856 2.349 . S
Eu841 O859 2.392 . S
Eu841 O860 2.418 . S
Eu841 C870 2.828 . S
C842 O860 1.244 . S
C842 O863 1.265 . S
C843 C844 1.379 . S
C843 C847 1.373 . S
C843 C849 1.505 . S
C844 C843 1.379 . S
C844 C846 1.369 . S
C844 H872 0.930 . S
C845 C847 1.383 . S
C845 C848 1.382 . S
C845 H873 0.930 . S
C846 C844 1.369 . S
C846 C848 1.392 . S
C846 H874 0.930 . S
C847 C843 1.373 . S
C847 C845 1.383 . S
C847 H875 0.931 . S
C848 C845 1.382 . S
C848 C846 1.392 . S
C849 Eu840 2.828 . S
C849 C843 1.505 . S
C849 O861 1.249 . S
C849 O862 1.244 . S
O850 Eu841 2.373 . S
O850 C852 1.258 . S
O851 Eu840 2.392 . S
O851 C852 1.242 . S
C852 O850 1.258 . S
C852 O851 1.242 . S
O853 Eu840 2.418 . S
O853 C857 1.244 . S
O854 Eu841 2.488 . S
O854 C870 1.249 . S
O855 Eu841 2.471 . S
O855 C870 1.244 . S
O856 Eu841 2.349 . S
O856 C857 1.265 . S
C857 O853 1.244 . S
C857 O856 1.265 . S
O858 Eu840 2.373 . S
O858 C871 1.258 . S
O859 Eu841 2.392 . S
O859 C871 1.242 . S
O860 Eu841 2.418 . S
O860 C842 1.244 . S
O861 Eu840 2.488 . S
O861 C849 1.249 . S
O862 Eu840 2.471 . S
O862 C849 1.244 . S
O863 Eu840 2.349 . S
O863 C842 1.265 . S
C864 C865 1.379 . S
C864 C868 1.373 . S
C864 C870 1.505 . S
C865 C864 1.379 . S
C865 C867 1.369 . S
C865 H876 0.930 . S
C866 C868 1.383 . S
C866 C869 1.382 . S
C866 H877 0.930 . S
C867 C865 1.369 . S
C867 C869 1.392 . S
C867 H878 0.930 . S
C868 C864 1.373 . S
C868 C866 1.383 . S
C868 H879 0.931 . S
C869 C866 1.382 . S
C869 C867 1.392 . S
C870 Eu841 2.828 . S
C870 O854 1.249 . S
C870 O855 1.244 . S
C870 C864 1.505 . S
C871 O858 1.258 . S
C871 O859 1.242 . S
H872 C844 0.930 . S
H873 C845 0.930 . S
H874 C846 0.930 . S
H875 C847 0.931 . S
H876 C865 0.930 . S
H877 C866 0.930 . S
H878 C867 0.930 . S
H879 C868 0.931 . S
Eu880 C889 2.828 . S
Eu880 O891 2.392 . S
Eu880 O893 2.418 . S
Eu880 O898 2.373 . S
Eu880 O901 2.488 . S
Eu880 O902 2.471 . S
Eu880 O903 2.349 . S
Eu881 O890 2.373 . S
Eu881 O894 2.488 . S
Eu881 O895 2.471 . S
Eu881 O896 2.349 . S
Eu881 O899 2.392 . S
Eu881 O900 2.418 . S
Eu881 C910 2.828 . S
C882 O900 1.244 . S
C882 O903 1.265 . S
C883 C884 1.379 . S
C883 C887 1.373 . S
C883 C889 1.505 . S
C884 C883 1.379 . S
C884 C886 1.369 . S
C884 H912 0.930 . S
C885 C887 1.383 . S
C885 C888 1.382 . S
C885 H913 0.930 . S
C886 C884 1.369 . S
C886 C888 1.392 . S
C886 H914 0.930 . S
C887 C883 1.373 . S
C887 C885 1.383 . S
C887 H915 0.931 . S
C888 C885 1.382 . S
C888 C886 1.392 . S
C889 Eu880 2.828 . S
C889 C883 1.505 . S
C889 O901 1.249 . S
C889 O902 1.244 . S
O890 Eu881 2.373 . S
O890 C892 1.258 . S
O891 Eu880 2.392 . S
O891 C892 1.242 . S
C892 O890 1.258 . S
C892 O891 1.242 . S
O893 Eu880 2.418 . S
O893 C897 1.244 . S
O894 Eu881 2.488 . S
O894 C910 1.249 . S
O895 Eu881 2.471 . S
O895 C910 1.244 . S
O896 Eu881 2.349 . S
O896 C897 1.265 . S
C897 O893 1.244 . S
C897 O896 1.265 . S
O898 Eu880 2.373 . S
O898 C911 1.258 . S
O899 Eu881 2.392 . S
O899 C911 1.242 . S
O900 Eu881 2.418 . S
O900 C882 1.244 . S
O901 Eu880 2.488 . S
O901 C889 1.249 . S
O902 Eu880 2.471 . S
O902 C889 1.244 . S
O903 Eu880 2.349 . S
O903 C882 1.265 . S
C904 C905 1.379 . S
C904 C908 1.373 . S
C904 C910 1.505 . S
C905 C904 1.379 . S
C905 C907 1.369 . S
C905 H916 0.930 . S
C906 C908 1.383 . S
C906 C909 1.382 . S
C906 H917 0.930 . S
C907 C905 1.369 . S
C907 C909 1.392 . S
C907 H918 0.930 . S
C908 C904 1.373 . S
C908 C906 1.383 . S
C908 H919 0.931 . S
C909 C906 1.382 . S
C909 C907 1.392 . S
C910 Eu881 2.828 . S
C910 O894 1.249 . S
C910 O895 1.244 . S
C910 C904 1.505 . S
C911 O898 1.258 . S
C911 O899 1.242 . S
H912 C884 0.930 . S
H913 C885 0.930 . S
H914 C886 0.930 . S
H915 C887 0.931 . S
H916 C905 0.930 . S
H917 C906 0.930 . S
H918 C907 0.930 . S
H919 C908 0.931 . S
Eu920 C929 2.828 . S
Eu920 O931 2.392 . S
Eu920 O933 2.418 . S
Eu920 O938 2.373 . S
Eu920 O941 2.488 . S
Eu920 O942 2.471 . S
Eu920 O943 2.349 . S
Eu921 O930 2.373 . S
Eu921 O934 2.488 . S
Eu921 O935 2.471 . S
Eu921 O936 2.349 . S
Eu921 O939 2.392 . S
Eu921 O940 2.418 . S
Eu921 C950 2.828 . S
C922 O940 1.244 . S
C922 O943 1.265 . S
C923 C924 1.379 . S
C923 C927 1.373 . S
C923 C929 1.505 . S
C924 C923 1.379 . S
C924 C926 1.369 . S
C924 H952 0.930 . S
C925 C927 1.383 . S
C925 C928 1.382 . S
C925 H953 0.930 . S
C926 C924 1.369 . S
C926 C928 1.392 . S
C926 H954 0.930 . S
C927 C923 1.373 . S
C927 C925 1.383 . S
C927 H955 0.931 . S
C928 C925 1.382 . S
C928 C926 1.392 . S
C929 Eu920 2.828 . S
C929 C923 1.505 . S
C929 O941 1.249 . S
C929 O942 1.244 . S
O930 Eu921 2.373 . S
O930 C932 1.258 . S
O931 Eu920 2.392 . S
O931 C932 1.242 . S
C932 O930 1.258 . S
C932 O931 1.242 . S
O933 Eu920 2.418 . S
O933 C937 1.244 . S
O934 Eu921 2.488 . S
O934 C950 1.249 . S
O935 Eu921 2.471 . S
O935 C950 1.244 . S
O936 Eu921 2.349 . S
O936 C937 1.265 . S
C937 O933 1.244 . S
C937 O936 1.265 . S
O938 Eu920 2.373 . S
O938 C951 1.258 . S
O939 Eu921 2.392 . S
O939 C951 1.242 . S
O940 Eu921 2.418 . S
O940 C922 1.244 . S
O941 Eu920 2.488 . S
O941 C929 1.249 . S
O942 Eu920 2.471 . S
O942 C929 1.244 . S
O943 Eu920 2.349 . S
O943 C922 1.265 . S
C944 C945 1.379 . S
C944 C948 1.373 . S
C944 C950 1.505 . S
C945 C944 1.379 . S
C945 C947 1.369 . S
C945 H956 0.930 . S
C946 C948 1.383 . S
C946 C949 1.382 . S
C946 H957 0.930 . S
C947 C945 1.369 . S
C947 C949 1.392 . S
C947 H958 0.930 . S
C948 C944 1.373 . S
C948 C946 1.383 . S
C948 H959 0.931 . S
C949 C946 1.382 . S
C949 C947 1.392 . S
C950 Eu921 2.828 . S
C950 O934 1.249 . S
C950 O935 1.244 . S
C950 C944 1.505 . S
C951 O938 1.258 . S
C951 O939 1.242 . S
H952 C924 0.930 . S
H953 C925 0.930 . S
H954 C926 0.930 . S
H955 C927 0.931 . S
H956 C945 0.930 . S
H957 C946 0.930 . S
H958 C947 0.930 . S
H959 C948 0.931 . S
Eu960 C969 2.828 . S
Eu960 O971 2.392 . S
Eu960 O973 2.418 . S
Eu960 O978 2.373 . S
Eu960 O981 2.488 . S
Eu960 O982 2.471 . S
Eu960 O983 2.349 . S
Eu961 O970 2.373 . S
Eu961 O974 2.488 . S
Eu961 O975 2.471 . S
Eu961 O976 2.349 . S
Eu961 O979 2.392 . S
Eu961 O980 2.418 . S
Eu961 C990 2.828 . S
C962 O980 1.244 . S
C962 O983 1.265 . S
C963 C964 1.379 . S
C963 C967 1.373 . S
C963 C969 1.505 . S
C964 C963 1.379 . S
C964 C966 1.369 . S
C964 H992 0.930 . S
C965 C967 1.383 . S
C965 C968 1.382 . S
C965 H993 0.930 . S
C966 C964 1.369 . S
C966 C968 1.392 . S
C966 H994 0.930 . S
C967 C963 1.373 . S
C967 C965 1.383 . S
C967 H995 0.931 . S
C968 C965 1.382 . S
C968 C966 1.392 . S
C969 Eu960 2.828 . S
C969 C963 1.505 . S
C969 O981 1.249 . S
C969 O982 1.244 . S
O970 Eu961 2.373 . S
O970 C972 1.258 . S
O971 Eu960 2.392 . S
O971 C972 1.242 . S
C972 O970 1.258 . S
C972 O971 1.242 . S
O973 Eu960 2.418 . S
O973 C977 1.244 . S
O974 Eu961 2.488 . S
O974 C990 1.249 . S
O975 Eu961 2.471 . S
O975 C990 1.244 . S
O976 Eu961 2.349 . S
O976 C977 1.265 . S
C977 O973 1.244 . S
C977 O976 1.265 . S
O978 Eu960 2.373 . S
O978 C991 1.258 . S
O979 Eu961 2.392 . S
O979 C991 1.242 . S
O980 Eu961 2.418 . S
O980 C962 1.244 . S
O981 Eu960 2.488 . S
O981 C969 1.249 . S
O982 Eu960 2.471 . S
O982 C969 1.244 . S
O983 Eu960 2.349 . S
O983 C962 1.265 . S
C984 C985 1.379 . S
C984 C988 1.373 . S
C984 C990 1.505 . S
C985 C984 1.379 . S
C985 C987 1.369 . S
C985 H996 0.930 . S
C986 C988 1.383 . S
C986 C989 1.382 . S
C986 H997 0.930 . S
C987 C985 1.369 . S
C987 C989 1.392 . S
C987 H998 0.930 . S
C988 C984 1.373 . S
C988 C986 1.383 . S
C988 H999 0.931 . S
C989 C986 1.382 . S
C989 C987 1.392 . S
C990 Eu961 2.828 . S
C990 O974 1.249 . S
C990 O975 1.244 . S
C990 C984 1.505 . S
C991 O978 1.258 . S
C991 O979 1.242 . S
H992 C964 0.930 . S
H993 C965 0.930 . S
H994 C966 0.930 . S
H995 C967 0.931 . S
H996 C985 0.930 . S
H997 C986 0.930 . S
H998 C987 0.930 . S
H999 C988 0.931 . S
Eu1000 C1009 2.828 . S
Eu1000 O1011 2.392 . S
Eu1000 O1013 2.418 . S
Eu1000 O1018 2.373 . S
Eu1000 O1021 2.488 . S
Eu1000 O1022 2.471 . S
Eu1000 O1023 2.349 . S
Eu1001 O1010 2.373 . S
Eu1001 O1014 2.488 . S
Eu1001 O1015 2.471 . S
Eu1001 O1016 2.349 . S
Eu1001 O1019 2.392 . S
Eu1001 O1020 2.418 . S
Eu1001 C1030 2.828 . S
C1002 O1020 1.244 . S
C1002 O1023 1.265 . S
C1003 C1004 1.379 . S
C1003 C1007 1.373 . S
C1003 C1009 1.505 . S
C1004 C1003 1.379 . S
C1004 C1006 1.369 . S
C1004 H1032 0.930 . S
C1005 C1007 1.383 . S
C1005 C1008 1.382 . S
C1005 H1033 0.930 . S
C1006 C1004 1.369 . S
C1006 C1008 1.392 . S
C1006 H1034 0.930 . S
C1007 C1003 1.373 . S
C1007 C1005 1.383 . S
C1007 H1035 0.931 . S
C1008 C1005 1.382 . S
C1008 C1006 1.392 . S
C1009 Eu1000 2.828 . S
C1009 C1003 1.505 . S
C1009 O1021 1.249 . S
C1009 O1022 1.244 . S
O1010 Eu1001 2.373 . S
O1010 C1012 1.258 . S
O1011 Eu1000 2.392 . S
O1011 C1012 1.242 . S
C1012 O1010 1.258 . S
C1012 O1011 1.242 . S
O1013 Eu1000 2.418 . S
O1013 C1017 1.244 . S
O1014 Eu1001 2.488 . S
O1014 C1030 1.249 . S
O1015 Eu1001 2.471 . S
O1015 C1030 1.244 . S
O1016 Eu1001 2.349 . S
O1016 C1017 1.265 . S
C1017 O1013 1.244 . S
C1017 O1016 1.265 . S
O1018 Eu1000 2.373 . S
O1018 C1031 1.258 . S
O1019 Eu1001 2.392 . S
O1019 C1031 1.242 . S
O1020 Eu1001 2.418 . S
O1020 C1002 1.244 . S
O1021 Eu1000 2.488 . S
O1021 C1009 1.249 . S
O1022 Eu1000 2.471 . S
O1022 C1009 1.244 . S
O1023 Eu1000 2.349 . S
O1023 C1002 1.265 . S
C1024 C1025 1.379 . S
C1024 C1028 1.373 . S
C1024 C1030 1.505 . S
C1025 C1024 1.379 . S
C1025 C1027 1.369 . S
C1025 H1036 0.930 . S
C1026 C1028 1.383 . S
C1026 C1029 1.382 . S
C1026 H1037 0.930 . S
C1027 C1025 1.369 . S
C1027 C1029 1.392 . S
C1027 H1038 0.930 . S
C1028 C1024 1.373 . S
C1028 C1026 1.383 . S
C1028 H1039 0.931 . S
C1029 C1026 1.382 . S
C1029 C1027 1.392 . S
C1030 Eu1001 2.828 . S
C1030 O1014 1.249 . S
C1030 O1015 1.244 . S
C1030 C1024 1.505 . S
C1031 O1018 1.258 . S
C1031 O1019 1.242 . S
H1032 C1004 0.930 . S
H1033 C1005 0.930 . S
H1034 C1006 0.930 . S
H1035 C1007 0.931 . S
H1036 C1025 0.930 . S
H1037 C1026 0.930 . S
H1038 C1027 0.930 . S
H1039 C1028 0.931 . S
Eu1040 C1049 2.828 . S
Eu1040 O1051 2.392 . S
Eu1040 O1053 2.418 . S
Eu1040 O1058 2.373 . S
Eu1040 O1061 2.488 . S
Eu1040 O1062 2.471 . S
Eu1040 O1063 2.349 . S
Eu1041 O1050 2.373 . S
Eu1041 O1054 2.488 . S
Eu1041 O1055 2.471 . S
Eu1041 O1056 2.349 . S
Eu1041 O1059 2.392 . S
Eu1041 O1060 2.418 . S
Eu1041 C1070 2.828 . S
C1042 O1060 1.244 . S
C1042 O1063 1.265 . S
C1043 C1044 1.379 . S
C1043 C1047 1.373 . S
C1043 C1049 1.505 . S
C1044 C1043 1.379 . S
C1044 C1046 1.369 . S
C1044 H1072 0.930 . S
C1045 C1047 1.383 . S
C1045 C1048 1.382 . S
C1045 H1073 0.930 . S
C1046 C1044 1.369 . S
C1046 C1048 1.392 . S
C1046 H1074 0.930 . S
C1047 C1043 1.373 . S
C1047 C1045 1.383 . S
C1047 H1075 0.931 . S
C1048 C1045 1.382 . S
C1048 C1046 1.392 . S
C1049 Eu1040 2.828 . S
C1049 C1043 1.505 . S
C1049 O1061 1.249 . S
C1049 O1062 1.244 . S
O1050 Eu1041 2.373 . S
O1050 C1052 1.258 . S
O1051 Eu1040 2.392 . S
O1051 C1052 1.242 . S
C1052 O1050 1.258 . S
C1052 O1051 1.242 . S
O1053 Eu1040 2.418 . S
O1053 C1057 1.244 . S
O1054 Eu1041 2.488 . S
O1054 C1070 1.249 . S
O1055 Eu1041 2.471 . S
O1055 C1070 1.244 . S
O1056 Eu1041 2.349 . S
O1056 C1057 1.265 . S
C1057 O1053 1.244 . S
C1057 O1056 1.265 . S
O1058 Eu1040 2.373 . S
O1058 C1071 1.258 . S
O1059 Eu1041 2.392 . S
O1059 C1071 1.242 . S
O1060 Eu1041 2.418 . S
O1060 C1042 1.244 . S
O1061 Eu1040 2.488 . S
O1061 C1049 1.249 . S
O1062 Eu1040 2.471 . S
O1062 C1049 1.244 . S
O1063 Eu1040 2.349 . S
O1063 C1042 1.265 . S
C1064 C1065 1.379 . S
C1064 C1068 1.373 . S
C1064 C1070 1.505 . S
C1065 C1064 1.379 . S
C1065 C1067 1.369 . S
C1065 H1076 0.930 . S
C1066 C1068 1.383 . S
C1066 C1069 1.382 . S
C1066 H1077 0.930 . S
C1067 C1065 1.369 . S
C1067 C1069 1.392 . S
C1067 H1078 0.930 . S
C1068 C1064 1.373 . S
C1068 C1066 1.383 . S
C1068 H1079 0.931 . S
C1069 C1066 1.382 . S
C1069 C1067 1.392 . S
C1070 Eu1041 2.828 . S
C1070 O1054 1.249 . S
C1070 O1055 1.244 . S
C1070 C1064 1.505 . S
C1071 O1058 1.258 . S
C1071 O1059 1.242 . S
H1072 C1044 0.930 . S
H1073 C1045 0.930 . S
H1074 C1046 0.930 . S
H1075 C1047 0.931 . S
H1076 C1065 0.930 . S
H1077 C1066 0.930 . S
H1078 C1067 0.930 . S
H1079 C1068 0.931 . S
C1080 C1081 1.369 . S
C1080 C1082 1.419 . S
C1080 H1084 0.930 . S
C1081 C1080 1.369 . S
C1081 C1090 1.429 . S
C1082 C1080 1.419 . S
C1082 C1083 1.363 . S
C1082 H1085 0.929 . S
C1083 C1082 1.363 . S
C1083 C1089 1.428 . S
H1084 C1080 0.930 . S
H1085 C1082 0.929 . S
S1086 N1087 1.613 1_545 S
S1086 N1088 1.610 1_545 S
N1087 S1086 1.613 1_565 S
N1087 C1090 1.350 . S
N1088 S1086 1.610 1_565 S
N1088 C1089 1.351 . S
C1089 C1083 1.428 . S
C1089 N1088 1.351 . S
C1089 C1090 1.434 . S
C1090 C1081 1.429 . S
C1090 N1087 1.350 . S
C1090 C1089 1.434 . S
C1091 C1092 1.369 . S
C1091 C1093 1.419 . S
C1091 H1095 0.930 . S
C1092 C1091 1.369 . S
C1092 C1101 1.429 . S
C1093 C1091 1.419 . S
C1093 C1094 1.363 . S
C1093 H1096 0.929 . S
C1094 C1093 1.363 . S
C1094 C1100 1.428 . S
H1095 C1091 0.930 . S
H1096 C1093 0.929 . S
S1097 N1098 1.613 . S
S1097 N1099 1.610 . S
N1098 S1097 1.613 . S
N1098 C1101 1.350 . S
N1099 S1097 1.610 . S
N1099 C1100 1.351 . S
C1100 C1094 1.428 . S
C1100 N1099 1.351 . S
C1100 C1101 1.434 . S
C1101 C1092 1.429 . S
C1101 N1098 1.350 . S
C1101 C1100 1.434 . S
C1102 C1103 1.320 1_556 S
C1102 C1104 1.417 . S
C1102 H1106 0.991 . S
C1103 C1102 1.320 1_554 S
C1103 C1112 1.429 . S
C1104 C1102 1.417 . S
C1104 C1105 1.315 1_556 S
C1104 H1107 0.973 . S
C1105 C1104 1.315 1_554 S
C1105 C1111 1.428 . S
H1106 C1102 0.991 . S
H1107 C1104 0.973 . S
S1108 N1109 1.613 . S
S1108 N1110 1.610 . S
N1109 S1108 1.613 . S
N1109 C1112 1.350 . S
N1110 S1108 1.610 . S
N1110 C1111 1.351 . S
C1111 C1105 1.428 . S
C1111 N1110 1.351 . S
C1111 C1112 1.434 . S
C1112 C1103 1.429 . S
C1112 N1109 1.350 . S
C1112 C1111 1.434 . S
C1113 C1114 1.369 . S
C1113 C1115 1.419 . S
C1113 H1117 0.930 . S
C1114 C1113 1.369 . S
C1114 C1123 1.429 . S
C1115 C1113 1.419 . S
C1115 C1116 1.363 . S
C1115 H1118 0.929 . S
C1116 C1115 1.363 . S
C1116 C1122 1.458 . S
H1117 C1113 0.930 . S
H1118 C1115 0.929 . S
S1119 N1120 1.613 . S
S1119 N1121 1.610 . S
N1120 S1119 1.613 . S
N1120 C1123 1.350 1_554 S
N1121 S1119 1.610 . S
N1121 C1122 1.322 1_554 S
C1122 C1116 1.458 . S
C1122 N1121 1.322 1_556 S
C1122 C1123 1.434 . S
C1123 C1114 1.429 . S
C1123 N1120 1.350 1_556 S
C1123 C1122 1.434 . S
C1124 C1125 1.369 . S
C1124 C1126 1.419 . S
C1124 H1128 0.930 . S
C1125 C1124 1.369 . S
C1125 C1134 1.429 . S
C1126 C1124 1.419 . S
C1126 C1127 1.363 . S
C1126 H1129 0.929 . S
C1127 C1126 1.363 . S
C1127 C1133 1.428 . S
H1128 C1124 0.930 . S
H1129 C1126 0.929 . S
S1130 N1131 1.613 1_554 S
S1130 N1132 1.610 1_554 S
N1131 S1130 1.613 1_556 S
N1131 C1134 1.350 . S
N1132 S1130 1.610 1_556 S
N1132 C1133 1.355 . S
C1133 C1127 1.428 . S
C1133 N1132 1.355 . S
C1133 C1134 1.434 . S
C1134 C1125 1.429 . S
C1134 N1131 1.350 . S
C1134 C1133 1.434 . S
C1135 C1136 1.369 . S
C1135 C1137 1.419 . S
C1135 H1139 0.930 . S
C1136 C1135 1.369 . S
C1136 C1145 1.429 1_556 S
C1137 C1135 1.419 . S
C1137 C1138 1.363 . S
C1137 H1140 0.929 . S
C1138 C1137 1.363 . S
C1138 C1144 1.428 1_556 S
H1139 C1135 0.930 . S
H1140 C1137 0.929 . S
S1141 N1142 1.613 . S
S1141 N1143 1.610 . S
N1142 S1141 1.613 . S
N1142 C1145 1.350 . S
N1143 S1141 1.610 . S
N1143 C1144 1.351 . S
C1144 C1138 1.428 1_554 S
C1144 N1143 1.351 . S
C1144 C1145 1.434 . S
C1145 C1136 1.429 1_554 S
C1145 N1142 1.350 . S
C1145 C1144 1.434 . S
C1146 C1147 1.369 . S
C1146 C1148 1.419 . S
C1146 H1150 0.889 1_556 S
C1147 C1146 1.369 . S
C1147 C1156 1.429 . S
C1148 C1146 1.419 . S
C1148 C1149 1.363 . S
C1148 H1151 0.929 1_556 S
C1149 C1148 1.363 . S
C1149 C1155 1.428 . S
H1150 C1146 0.889 1_554 S
H1151 C1148 0.929 1_554 S
S1152 N1153 1.613 . S
S1152 N1154 1.610 . S
N1153 S1152 1.613 . S
N1153 C1156 1.350 . S
N1154 S1152 1.610 . S
N1154 C1155 1.351 . S
C1155 C1149 1.428 . S
C1155 N1154 1.351 . S
C1155 C1156 1.434 . S
C1156 C1147 1.429 . S
C1156 N1153 1.350 . S
C1156 C1155 1.434 . S
C1157 C1158 1.369 . S
C1157 C1159 1.419 . S
C1157 H1161 0.930 . S
C1158 C1157 1.369 . S
C1158 C1167 1.429 . S
C1159 C1157 1.419 . S
C1159 C1160 1.363 . S
C1159 H1162 0.929 . S
C1160 C1159 1.363 . S
C1160 C1166 1.428 . S
H1161 C1157 0.930 . S
H1162 C1159 0.929 . S
S1163 N1164 1.613 . S
S1163 N1165 1.610 . S
N1164 S1163 1.613 . S
N1164 C1167 1.350 1_554 S
N1165 S1163 1.610 . S
N1165 C1166 1.351 1_554 S
C1166 C1160 1.428 . S
C1166 N1165 1.351 1_556 S
C1166 C1167 1.434 . S
C1167 C1158 1.429 . S
C1167 N1164 1.350 1_556 S
C1167 C1166 1.434 . S
C1168 C1169 1.369 1_554 S
C1168 C1170 1.419 . S
C1168 H1172 0.930 . S
C1169 C1168 1.369 1_556 S
C1169 C1178 1.429 . S
C1170 C1168 1.419 . S
C1170 C1171 1.363 1_554 S
C1170 H1173 0.929 . S
C1171 C1170 1.363 1_556 S
C1171 C1177 1.428 . S
H1172 C1168 0.930 . S
H1173 C1170 0.929 . S
S1174 N1175 1.613 . S
S1174 N1176 1.610 . S
N1175 S1174 1.613 . S
N1175 C1178 1.350 . S
N1176 S1174 1.610 . S
N1176 C1177 1.351 . S
C1177 C1171 1.428 . S
C1177 N1176 1.351 . S
C1177 C1178 1.434 . S
C1178 C1169 1.429 . S
C1178 N1175 1.350 . S
C1178 C1177 1.434 . S
C1179 C1180 1.369 . S
C1179 C1181 1.419 . S
C1179 H1183 0.930 . S
C1180 C1179 1.369 . S
C1180 C1189 1.429 . S
C1181 C1179 1.419 . S
C1181 C1182 1.363 . S
C1181 H1184 0.929 . S
C1182 C1181 1.363 . S
C1182 C1188 1.428 . S
H1183 C1179 0.930 . S
H1184 C1181 0.929 . S
S1185 N1186 1.613 1_655 S
S1185 N1187 1.610 1_655 S
N1186 S1185 1.613 1_455 S
N1186 C1189 1.350 . S
N1187 S1185 1.610 1_455 S
N1187 C1188 1.351 . S
C1188 C1182 1.428 . S
C1188 N1187 1.351 . S
C1188 C1189 1.434 . S
C1189 C1180 1.429 . S
C1189 N1186 1.350 . S
C1189 C1188 1.434 . S
C1190 C1191 1.369 . S
C1190 C1192 1.419 . S
C1190 H1194 0.930 . S
C1191 C1190 1.369 . S
C1191 C1200 1.429 . S
C1192 C1190 1.419 . S
C1192 C1193 1.363 . S
C1192 H1195 0.929 . S
C1193 C1192 1.363 . S
C1193 C1199 1.428 . S
H1194 C1190 0.930 . S
H1195 C1192 0.929 . S
S1196 N1197 1.613 . S
S1196 N1198 1.610 . S
N1197 S1196 1.613 . S
N1197 C1200 1.350 . S
N1198 S1196 1.610 . S
N1198 C1199 1.351 . S
C1199 C1193 1.428 . S
C1199 N1198 1.351 . S
C1199 C1200 1.434 . S
C1200 C1191 1.429 . S
C1200 N1197 1.350 . S
C1200 C1199 1.434 . S
C1201 C1202 1.369 . S
C1201 C1203 1.419 . S
C1201 H1205 0.930 . S
C1202 C1201 1.369 . S
C1202 C1211 1.429 . S
C1203 C1201 1.419 . S
C1203 C1204 1.363 . S
C1203 H1206 0.929 . S
C1204 C1203 1.363 . S
C1204 C1210 1.428 . S
H1205 C1201 0.930 . S
H1206 C1203 0.929 . S
S1207 N1208 1.613 1_545 S
S1207 N1209 1.610 1_545 S
N1208 S1207 1.613 1_565 S
N1208 C1211 1.350 . S
N1209 S1207 1.610 1_565 S
N1209 C1210 1.349 . S
C1210 C1204 1.428 . S
C1210 N1209 1.349 . S
C1210 C1211 1.434 . S
C1211 C1202 1.429 . S
C1211 N1208 1.350 . S
C1211 C1210 1.434 . S
C1212 C1213 1.369 . S
C1212 C1214 1.419 . S
C1212 H1216 0.930 . S
C1213 C1212 1.369 . S
C1213 C1222 1.429 . S
C1214 C1212 1.419 . S
C1214 C1215 1.363 . S
C1214 H1217 0.929 . S
C1215 C1214 1.363 . S
C1215 C1221 1.428 . S
H1216 C1212 0.930 . S
H1217 C1214 0.929 . S
S1218 N1219 1.613 . S
S1218 N1220 1.610 . S
N1219 S1218 1.613 . S
N1219 C1222 1.350 . S
N1220 S1218 1.610 . S
N1220 C1221 1.351 . S
C1221 C1215 1.428 . S
C1221 N1220 1.351 . S
C1221 C1222 1.434 . S
C1222 C1213 1.429 . S
C1222 N1219 1.350 . S
C1222 C1221 1.434 . S
C1223 C1224 1.369 . S
C1223 C1225 1.419 . S
C1223 H1227 0.930 . S
C1224 C1223 1.369 . S
C1224 C1233 1.429 . S
C1225 C1223 1.419 . S
C1225 C1226 1.363 . S
C1225 H1228 0.929 . S
C1226 C1225 1.363 . S
C1226 C1232 1.428 . S
H1227 C1223 0.930 . S
H1228 C1225 0.929 . S
S1229 N1230 1.613 . S
S1229 N1231 1.610 . S
N1230 S1229 1.613 . S
N1230 C1233 1.350 . S
N1231 S1229 1.610 . S
N1231 C1232 1.351 . S
C1232 C1226 1.428 . S
C1232 N1231 1.351 . S
C1232 C1233 1.434 . S
C1233 C1224 1.429 . S
C1233 N1230 1.350 . S
C1233 C1232 1.434 . S
C1234 C1235 1.369 . S
C1234 C1236 1.419 . S
C1234 H1238 0.930 . S
C1235 C1234 1.369 . S
C1235 C1244 1.429 . S
C1236 C1234 1.419 . S
C1236 C1237 1.363 . S
C1236 H1239 0.929 . S
C1237 C1236 1.363 . S
C1237 C1243 1.428 . S
H1238 C1234 0.930 . S
H1239 C1236 0.929 . S
S1240 N1241 1.613 . S
S1240 N1242 1.610 . S
N1241 S1240 1.613 . S
N1241 C1244 1.350 . S
N1242 S1240 1.610 . S
N1242 C1243 1.351 . S
C1243 C1237 1.428 . S
C1243 N1242 1.351 . S
C1243 C1244 1.434 . S
C1244 C1235 1.429 . S
C1244 N1241 1.350 . S
C1244 C1243 1.434 . S
C1245 C1246 1.369 . S
C1245 C1247 1.419 . S
C1245 H1249 0.930 . S
C1246 C1245 1.369 . S
C1246 C1255 1.429 . S
C1247 C1245 1.419 . S
C1247 C1248 1.363 . S
C1247 H1250 0.929 . S
C1248 C1247 1.363 . S
C1248 C1254 1.428 . S
H1249 C1245 0.930 . S
H1250 C1247 0.929 . S
S1251 N1252 1.613 . S
S1251 N1253 1.610 . S
N1252 S1251 1.613 . S
N1252 C1255 1.350 . S
N1253 S1251 1.610 . S
N1253 C1254 1.351 . S
C1254 C1248 1.428 . S
C1254 N1253 1.351 . S
C1254 C1255 1.434 . S
C1255 C1246 1.429 . S
C1255 N1252 1.350 . S
C1255 C1254 1.434 . S
C1256 C1257 1.369 . S
C1256 C1258 1.419 . S
C1256 H1260 0.930 . S
C1257 C1256 1.369 . S
C1257 C1266 1.429 . S
C1258 C1256 1.419 . S
C1258 C1259 1.363 . S
C1258 H1261 0.929 . S
C1259 C1258 1.363 . S
C1259 C1265 1.428 . S
H1260 C1256 0.930 . S
H1261 C1258 0.929 . S
S1262 N1263 1.613 . S
S1262 N1264 1.610 . S
N1263 S1262 1.613 . S
N1263 C1266 1.350 . S
N1264 S1262 1.610 . S
N1264 C1265 1.351 . S
C1265 C1259 1.428 . S
C1265 N1264 1.351 . S
C1265 C1266 1.434 . S
C1266 C1257 1.429 . S
C1266 N1263 1.350 . S
C1266 C1265 1.434 . S
C1267 C1268 1.369 . S
C1267 C1269 1.419 . S
C1267 H1271 0.930 . S
C1268 C1267 1.369 . S
C1268 C1277 1.429 . S
C1269 C1267 1.419 . S
C1269 C1270 1.363 . S
C1269 H1272 0.929 . S
C1270 C1269 1.363 . S
C1270 C1276 1.428 . S
H1271 C1267 0.930 . S
H1272 C1269 0.929 . S
S1273 N1274 1.613 . S
S1273 N1275 1.610 . S
N1274 S1273 1.613 . S
N1274 C1277 1.350 . S
N1275 S1273 1.610 . S
N1275 C1276 1.351 . S
C1276 C1270 1.428 . S
C1276 N1275 1.351 . S
C1276 C1277 1.434 . S
C1277 C1268 1.429 . S
C1277 N1274 1.350 . S
C1277 C1276 1.434 . S
C1278 C1279 1.369 . S
C1278 C1280 1.419 . S
C1278 H1282 0.930 . S
C1279 C1278 1.369 . S
C1279 C1288 1.429 . S
C1280 C1278 1.419 . S
C1280 C1281 1.363 . S
C1280 H1283 0.929 . S
C1281 C1280 1.363 . S
C1281 C1287 1.428 . S
H1282 C1278 0.930 . S
H1283 C1280 0.929 . S
S1284 N1285 1.613 . S
S1284 N1286 1.610 . S
N1285 S1284 1.613 . S
N1285 C1288 1.350 . S
N1286 S1284 1.610 . S
N1286 C1287 1.351 . S
C1287 C1281 1.428 . S
C1287 N1286 1.351 . S
C1287 C1288 1.434 . S
C1288 C1279 1.429 . S
C1288 N1285 1.350 . S
C1288 C1287 1.434 . S
C1289 C1290 1.369 . S
C1289 C1291 1.419 . S
C1289 H1293 0.930 . S
C1290 C1289 1.369 . S
C1290 C1299 1.429 . S
C1291 C1289 1.419 . S
C1291 C1292 1.363 . S
C1291 H1294 0.929 . S
C1292 C1291 1.363 . S
C1292 C1298 1.428 . S
H1293 C1289 0.930 . S
H1294 C1291 0.929 . S
S1295 N1296 1.613 . S
S1295 N1297 1.610 . S
N1296 S1295 1.613 . S
N1296 C1299 1.350 . S
N1297 S1295 1.610 . S
N1297 C1298 1.351 . S
C1298 C1292 1.428 . S
C1298 N1297 1.351 . S
C1298 C1299 1.434 . S
C1299 C1290 1.429 . S
C1299 N1296 1.350 . S
C1299 C1298 1.434 . S
C1300 C1301 1.369 . S
C1300 C1302 1.419 . S
C1300 H1304 0.930 . S
C1301 C1300 1.369 . S
C1301 C1310 1.429 . S
C1302 C1300 1.419 . S
C1302 C1303 1.363 . S
C1302 H1305 0.929 . S
C1303 C1302 1.363 . S
C1303 C1309 1.428 . S
H1304 C1300 0.930 . S
H1305 C1302 0.929 . S
S1306 N1307 1.613 . S
S1306 N1308 1.610 . S
N1307 S1306 1.613 . S
N1307 C1310 1.350 . S
N1308 S1306 1.610 . S
N1308 C1309 1.351 . S
C1309 C1303 1.428 . S
C1309 N1308 1.351 . S
C1309 C1310 1.434 . S
C1310 C1301 1.429 . S
C1310 N1307 1.350 . S
C1310 C1309 1.434 . S
C1311 C1312 1.369 . S
C1311 C1313 1.419 . S
C1311 H1315 0.930 . S
C1312 C1311 1.369 . S
C1312 C1321 1.429 . S
C1313 C1311 1.419 . S
C1313 C1314 1.363 . S
C1313 H1316 0.929 . S
C1314 C1313 1.363 . S
C1314 C1320 1.428 . S
H1315 C1311 0.930 . S
H1316 C1313 0.929 . S
S1317 N1318 1.613 . S
S1317 N1319 1.610 . S
N1318 S1317 1.613 . S
N1318 C1321 1.350 . S
N1319 S1317 1.610 . S
N1319 C1320 1.351 . S
C1320 C1314 1.428 . S
C1320 N1319 1.351 . S
C1320 C1321 1.434 . S
C1321 C1312 1.429 . S
C1321 N1318 1.350 . S
C1321 C1320 1.434 . S
C1322 C1323 1.369 . S
C1322 C1324 1.419 . S
C1322 H1326 0.930 . S
C1323 C1322 1.369 . S
C1323 C1332 1.429 . S
C1324 C1322 1.419 . S
C1324 C1325 1.363 . S
C1324 H1327 0.929 . S
C1325 C1324 1.363 . S
C1325 C1331 1.428 . S
H1326 C1322 0.930 . S
H1327 C1324 0.929 . S
S1328 N1329 1.613 . S
S1328 N1330 1.610 . S
N1329 S1328 1.613 . S
N1329 C1332 1.350 . S
N1330 S1328 1.610 . S
N1330 C1331 1.351 . S
C1331 C1325 1.428 . S
C1331 N1330 1.351 . S
C1331 C1332 1.434 . S
C1332 C1323 1.429 . S
C1332 N1329 1.350 . S
C1332 C1331 1.434 . S
C1333 C1334 1.369 . S
C1333 C1335 1.419 . S
C1333 H1337 0.930 . S
C1334 C1333 1.369 . S
C1334 C1343 1.429 . S
C1335 C1333 1.419 . S
C1335 C1336 1.363 . S
C1335 H1338 0.929 . S
C1336 C1335 1.363 . S
C1336 C1342 1.428 . S
H1337 C1333 0.930 . S
H1338 C1335 0.929 . S
S1339 N1340 1.613 . S
S1339 N1341 1.610 . S
N1340 S1339 1.613 . S
N1340 C1343 1.350 . S
N1341 S1339 1.610 . S
N1341 C1342 1.351 . S
C1342 C1336 1.428 . S
C1342 N1341 1.351 . S
C1342 C1343 1.434 . S
C1343 C1334 1.429 . S
C1343 N1340 1.350 . S
C1343 C1342 1.434 . S
C1344 C1345 1.369 . S
C1344 C1346 1.419 . S
C1344 H1348 0.930 . S
C1345 C1344 1.369 . S
C1345 C1354 1.429 . S
C1346 C1344 1.419 . S
C1346 C1347 1.363 . S
C1346 H1349 0.929 . S
C1347 C1346 1.363 . S
C1347 C1353 1.428 . S
H1348 C1344 0.930 . S
H1349 C1346 0.929 . S
S1350 N1351 1.613 . S
S1350 N1352 1.610 . S
N1351 S1350 1.613 . S
N1351 C1354 1.350 . S
N1352 S1350 1.610 . S
N1352 C1353 1.351 . S
C1353 C1347 1.428 . S
C1353 N1352 1.351 . S
C1353 C1354 1.434 . S
C1354 C1345 1.429 . S
C1354 N1351 1.350 . S
C1354 C1353 1.434 . S
C1355 C1356 1.369 . S
C1355 C1357 1.419 . S
C1355 H1359 0.930 . S
C1356 C1355 1.369 . S
C1356 C1365 1.429 . S
C1357 C1355 1.419 . S
C1357 C1358 1.363 . S
C1357 H1360 0.929 . S
C1358 C1357 1.363 . S
C1358 C1364 1.428 . S
H1359 C1355 0.930 . S
H1360 C1357 0.929 . S
S1361 N1362 1.613 . S
S1361 N1363 1.610 . S
N1362 S1361 1.613 . S
N1362 C1365 1.350 . S
N1363 S1361 1.610 . S
N1363 C1364 1.351 . S
C1364 C1358 1.428 . S
C1364 N1363 1.351 . S
C1364 C1365 1.434 . S
C1365 C1356 1.429 . S
C1365 N1362 1.350 . S
C1365 C1364 1.434 . S
C1366 C1367 1.369 . S
C1366 C1368 1.419 . S
C1366 H1370 0.930 . S
C1367 C1366 1.369 . S
C1367 C1376 1.429 . S
C1368 C1366 1.419 . S
C1368 C1369 1.363 . S
C1368 H1371 0.929 . S
C1369 C1368 1.363 . S
C1369 C1375 1.428 . S
H1370 C1366 0.930 . S
H1371 C1368 0.929 . S
S1372 N1373 1.613 . S
S1372 N1374 1.610 . S
N1373 S1372 1.613 . S
N1373 C1376 1.350 . S
N1374 S1372 1.610 . S
N1374 C1375 1.351 . S
C1375 C1369 1.428 . S
C1375 N1374 1.351 . S
C1375 C1376 1.434 . S
C1376 C1367 1.429 . S
C1376 N1373 1.350 . S
C1376 C1375 1.434 . S
C1377 C1378 1.369 . S
C1377 C1379 1.419 . S
C1377 H1381 0.930 . S
C1378 C1377 1.369 . S
C1378 C1387 1.429 . S
C1379 C1377 1.419 . S
C1379 C1380 1.363 . S
C1379 H1382 0.929 . S
C1380 C1379 1.363 . S
C1380 C1386 1.428 . S
H1381 C1377 0.930 . S
H1382 C1379 0.929 . S
S1383 N1384 1.613 . S
S1383 N1385 1.610 . S
N1384 S1383 1.613 . S
N1384 C1387 1.350 . S
N1385 S1383 1.610 . S
N1385 C1386 1.351 . S
C1386 C1380 1.428 . S
C1386 N1385 1.351 . S
C1386 C1387 1.434 . S
C1387 C1378 1.429 . S
C1387 N1384 1.350 . S
C1387 C1386 1.434 . S
C1388 C1389 1.369 . S
C1388 C1390 1.419 . S
C1388 H1392 0.930 . S
C1389 C1388 1.369 . S
C1389 C1398 1.429 . S
C1390 C1388 1.419 . S
C1390 C1391 1.363 . S
C1390 H1393 0.929 . S
C1391 C1390 1.363 . S
C1391 C1397 1.428 . S
H1392 C1388 0.930 . S
H1393 C1390 0.929 . S
S1394 N1395 1.613 . S
S1394 N1396 1.610 . S
N1395 S1394 1.613 . S
N1395 C1398 1.350 . S
N1396 S1394 1.610 . S
N1396 C1397 1.351 . S
C1397 C1391 1.428 . S
C1397 N1396 1.351 . S
C1397 C1398 1.434 . S
C1398 C1389 1.429 . S
C1398 N1395 1.350 . S
C1398 C1397 1.434 . S
C1399 C1400 1.369 . S
C1399 C1401 1.419 . S
C1399 H1403 0.930 . S
C1400 C1399 1.369 . S
C1400 C1409 1.429 . S
C1401 C1399 1.419 . S
C1401 C1402 1.363 . S
C1401 H1404 0.929 . S
C1402 C1401 1.363 . S
C1402 C1408 1.428 . S
H1403 C1399 0.930 . S
H1404 C1401 0.929 . S
S1405 N1406 1.613 . S
S1405 N1407 1.610 . S
N1406 S1405 1.613 . S
N1406 C1409 1.350 . S
N1407 S1405 1.610 . S
N1407 C1408 1.351 . S
C1408 C1402 1.428 . S
C1408 N1407 1.351 . S
C1408 C1409 1.434 . S
C1409 C1400 1.429 . S
C1409 N1406 1.350 . S
C1409 C1408 1.434 . S
C1410 C1411 1.369 . S
C1410 C1412 1.419 . S
C1410 H1414 0.930 . S
C1411 C1410 1.369 . S
C1411 C1420 1.429 . S
C1412 C1410 1.419 . S
C1412 C1413 1.363 . S
C1412 H1415 0.929 . S
C1413 C1412 1.363 . S
C1413 C1419 1.428 . S
H1414 C1410 0.930 . S
H1415 C1412 0.929 . S
S1416 N1417 1.613 . S
S1416 N1418 1.610 . S
N1417 S1416 1.613 . S
N1417 C1420 1.350 . S
N1418 S1416 1.610 . S
N1418 C1419 1.351 . S
C1419 C1413 1.428 . S
C1419 N1418 1.351 . S
C1419 C1420 1.434 . S
C1420 C1411 1.429 . S
C1420 N1417 1.350 . S
C1420 C1419 1.434 . S
C1421 C1422 1.369 . S
C1421 C1423 1.419 . S
C1421 H1425 0.930 . S
C1422 C1421 1.369 . S
C1422 C1431 1.429 . S
C1423 C1421 1.419 . S
C1423 C1424 1.363 . S
C1423 H1426 0.929 . S
C1424 C1423 1.363 . S
C1424 C1430 1.428 . S
H1425 C1421 0.930 . S
H1426 C1423 0.929 . S
S1427 N1428 1.613 . S
S1427 N1429 1.610 . S
N1428 S1427 1.613 . S
N1428 C1431 1.350 . S
N1429 S1427 1.610 . S
N1429 C1430 1.351 . S
C1430 C1424 1.428 . S
C1430 N1429 1.351 . S
C1430 C1431 1.434 . S
C1431 C1422 1.429 . S
C1431 N1428 1.350 . S
C1431 C1430 1.434 . S
C1432 C1433 1.369 . S
C1432 C1434 1.419 . S
C1432 H1436 0.930 . S
C1433 C1432 1.369 . S
C1433 C1442 1.429 . S
C1434 C1432 1.419 . S
C1434 C1435 1.363 . S
C1434 H1437 0.929 . S
C1435 C1434 1.363 . S
C1435 C1441 1.428 . S
H1436 C1432 0.930 . S
H1437 C1434 0.929 . S
S1438 N1439 1.613 . S
S1438 N1440 1.610 . S
N1439 S1438 1.613 . S
N1439 C1442 1.350 . S
N1440 S1438 1.610 . S
N1440 C1441 1.351 . S
C1441 C1435 1.428 . S
C1441 N1440 1.351 . S
C1441 C1442 1.434 . S
C1442 C1433 1.429 . S
C1442 N1439 1.350 . S
C1442 C1441 1.434 . S
C1443 C1444 1.369 . S
C1443 C1445 1.419 . S
C1443 H1447 0.930 . S
C1444 C1443 1.369 . S
C1444 C1453 1.429 . S
C1445 C1443 1.419 . S
C1445 C1446 1.363 . S
C1445 H1448 0.929 . S
C1446 C1445 1.363 . S
C1446 C1452 1.428 . S
H1447 C1443 0.930 . S
H1448 C1445 0.929 . S
S1449 N1450 1.613 . S
S1449 N1451 1.610 . S
N1450 S1449 1.613 . S
N1450 C1453 1.350 . S
N1451 S1449 1.610 . S
N1451 C1452 1.351 . S
C1452 C1446 1.428 . S
C1452 N1451 1.351 . S
C1452 C1453 1.434 . S
C1453 C1444 1.429 . S
C1453 N1450 1.350 . S
C1453 C1452 1.434 . S
C1454 C1455 1.369 . S
C1454 C1456 1.419 . S
C1454 H1458 0.930 . S
C1455 C1454 1.369 . S
C1455 C1464 1.429 . S
C1456 C1454 1.419 . S
C1456 C1457 1.363 . S
C1456 H1459 0.929 . S
C1457 C1456 1.363 . S
C1457 C1463 1.428 . S
H1458 C1454 0.930 . S
H1459 C1456 0.929 . S
S1460 N1461 1.613 . S
S1460 N1462 1.610 . S
N1461 S1460 1.613 . S
N1461 C1464 1.350 . S
N1462 S1460 1.610 . S
N1462 C1463 1.351 . S
C1463 C1457 1.428 . S
C1463 N1462 1.351 . S
C1463 C1464 1.434 . S
C1464 C1455 1.429 . S
C1464 N1461 1.350 . S
C1464 C1463 1.434 . S
C1465 C1466 1.369 . S
C1465 C1467 1.419 . S
C1465 H1469 0.930 . S
C1466 C1465 1.369 . S
C1466 C1475 1.429 . S
C1467 C1465 1.419 . S
C1467 C1468 1.363 . S
C1467 H1470 0.929 . S
C1468 C1467 1.363 . S
C1468 C1474 1.428 . S
H1469 C1465 0.930 . S
H1470 C1467 0.929 . S
S1471 N1472 1.613 . S
S1471 N1473 1.610 . S
N1472 S1471 1.613 . S
N1472 C1475 1.350 . S
N1473 S1471 1.610 . S
N1473 C1474 1.351 . S
C1474 C1468 1.428 . S
C1474 N1473 1.351 . S
C1474 C1475 1.434 . S
C1475 C1466 1.429 . S
C1475 N1472 1.350 . S
C1475 C1474 1.434 . S
C1476 C1477 1.359 1_545 S
C1476 C1478 1.423 . S
C1476 H1480 0.936 . S
C1477 C1476 1.359 1_565 S
C1477 C1486 1.429 . S
C1478 C1476 1.423 . S
C1478 C1479 1.363 1_545 S
C1478 H1481 0.929 . S
C1479 C1478 1.363 1_565 S
C1479 C1485 1.428 . S
H1480 C1476 0.936 . S
H1481 C1478 0.929 . S
S1482 N1483 1.613 . S
S1482 N1484 1.610 . S
N1483 S1482 1.613 . S
N1483 C1486 1.350 . S
N1484 S1482 1.610 . S
N1484 C1485 1.351 . S
C1485 C1479 1.428 . S
C1485 N1484 1.351 . S
C1485 C1486 1.434 . S
C1486 C1477 1.429 . S
C1486 N1483 1.350 . S
C1486 C1485 1.434 . S
C1487 C1488 1.370 . S
C1487 C1489 1.419 . S
C1487 H1491 0.930 . S
C1488 C1487 1.370 . S
C1488 C1497 1.435 1_455 S
C1489 C1487 1.419 . S
C1489 C1490 1.363 . S
C1489 H1492 0.929 . S
C1490 C1489 1.363 . S
C1490 C1496 1.428 . S
H1491 C1487 0.930 . S
H1492 C1489 0.929 . S
S1493 N1494 1.613 . S
S1493 N1495 1.610 . S
N1494 S1493 1.613 . S
N1494 C1497 1.350 . S
N1495 S1493 1.610 . S
N1495 C1496 1.351 1_655 S
C1496 C1490 1.428 . S
C1496 N1495 1.351 1_455 S
C1496 C1497 1.434 1_455 S
C1497 C1488 1.435 1_655 S
C1497 N1494 1.350 . S
C1497 C1496 1.434 1_655 S
C1498 C1499 1.369 . S
C1498 C1500 1.419 . S
C1498 H1502 0.930 . S
C1499 C1498 1.369 . S
C1499 C1508 1.429 . S
C1500 C1498 1.419 . S
C1500 C1501 1.363 . S
C1500 H1503 0.929 . S
C1501 C1500 1.363 . S
C1501 C1507 1.428 . S
H1502 C1498 0.930 . S
H1503 C1500 0.929 . S
S1504 N1505 1.613 . S
S1504 N1506 1.610 . S
N1505 S1504 1.613 . S
N1505 C1508 1.350 . S
N1506 S1504 1.610 . S
N1506 C1507 1.351 . S
C1507 C1501 1.428 . S
C1507 N1506 1.351 . S
C1507 C1508 1.434 . S
C1508 C1499 1.429 . S
C1508 N1505 1.350 . S
C1508 C1507 1.434 . S
C1509 C1510 1.369 1_655 S
C1509 C1511 1.419 . S
C1509 H1513 0.930 . S
C1510 C1509 1.369 1_455 S
C1510 C1519 1.429 . S
C1511 C1509 1.419 . S
C1511 C1512 1.363 . S
C1511 H1514 0.929 . S
C1512 C1511 1.363 . S
C1512 C1518 1.428 1_655 S
H1513 C1509 0.930 . S
H1514 C1511 0.929 . S
S1515 N1516 1.613 . S
S1515 N1517 1.610 . S
N1516 S1515 1.613 . S
N1516 C1519 1.350 . S
N1517 S1515 1.610 . S
N1517 C1518 1.351 . S
C1518 C1512 1.428 1_455 S
C1518 N1517 1.351 . S
C1518 C1519 1.434 . S
C1519 C1510 1.429 . S
C1519 N1516 1.350 . S
C1519 C1518 1.434 . S
C1520 C1521 1.369 . S
C1520 C1522 1.419 . S
C1520 H1524 0.930 . S
C1521 C1520 1.369 . S
C1521 C1530 1.429 . S
C1522 C1520 1.419 . S
C1522 C1523 1.363 . S
C1522 H1525 0.929 . S
C1523 C1522 1.363 . S
C1523 C1529 1.428 . S
H1524 C1520 0.930 . S
H1525 C1522 0.929 . S
S1526 N1527 1.613 . S
S1526 N1528 1.610 . S
N1527 S1526 1.613 . S
N1527 C1530 1.350 . S
N1528 S1526 1.610 . S
N1528 C1529 1.351 . S
C1529 C1523 1.428 . S
C1529 N1528 1.351 . S
C1529 C1530 1.434 . S
C1530 C1521 1.429 . S
C1530 N1527 1.350 . S
C1530 C1529 1.434 . S
C1531 C1532 1.369 . S
C1531 C1533 1.419 . S
C1531 H1535 0.930 . S
C1532 C1531 1.369 . S
C1532 C1541 1.429 1_545 S
C1533 C1531 1.419 . S
C1533 C1534 1.363 . S
C1533 H1536 0.929 . S
C1534 C1533 1.363 . S
C1534 C1540 1.428 1_545 S
H1535 C1531 0.930 . S
H1536 C1533 0.929 . S
S1537 N1538 1.613 . S
S1537 N1539 1.610 . S
N1538 S1537 1.613 . S
N1538 C1541 1.350 . S
N1539 S1537 1.610 . S
N1539 C1540 1.351 . S
C1540 C1534 1.428 1_565 S
C1540 N1539 1.351 . S
C1540 C1541 1.434 . S
C1541 C1532 1.429 1_565 S
C1541 N1538 1.350 . S
C1541 C1540 1.434 . S
C1542 C1543 1.369 . S
C1542 C1544 1.419 . S
C1542 H1546 0.930 . S
C1543 C1542 1.369 . S
C1543 C1552 1.429 . S
C1544 C1542 1.419 . S
C1544 C1545 1.363 . S
C1544 H1547 0.929 . S
C1545 C1544 1.363 . S
C1545 C1551 1.428 . S
H1546 C1542 0.930 . S
H1547 C1544 0.929 . S
S1548 N1549 1.613 . S
S1548 N1550 1.610 . S
N1549 S1548 1.613 . S
N1549 C1552 1.350 . S
N1550 S1548 1.610 . S
N1550 C1551 1.351 . S
C1551 C1545 1.428 . S
C1551 N1550 1.351 . S
C1551 C1552 1.434 . S
C1552 C1543 1.429 . S
C1552 N1549 1.350 . S
C1552 C1551 1.434 . S
C1553 C1554 1.369 . S
C1553 C1555 1.419 . S
C1553 H1557 0.930 . S
C1554 C1553 1.369 . S
C1554 C1563 1.429 . S
C1555 C1553 1.419 . S
C1555 C1556 1.363 . S
C1555 H1558 0.929 . S
C1556 C1555 1.363 . S
C1556 C1562 1.428 . S
H1557 C1553 0.930 . S
H1558 C1555 0.929 . S
S1559 N1560 1.613 . S
S1559 N1561 1.610 . S
N1560 S1559 1.613 . S
N1560 C1563 1.350 . S
N1561 S1559 1.610 . S
N1561 C1562 1.351 . S
C1562 C1556 1.428 . S
C1562 N1561 1.351 . S
C1562 C1563 1.434 . S
C1563 C1554 1.429 . S
C1563 N1560 1.350 . S
C1563 C1562 1.434 . S
C1564 C1565 1.369 . S
C1564 C1566 1.419 . S
C1564 H1568 0.930 . S
C1565 C1564 1.369 . S
C1565 C1574 1.429 . S
C1566 C1564 1.419 . S
C1566 C1567 1.363 . S
C1566 H1569 0.929 . S
C1567 C1566 1.363 . S
C1567 C1573 1.428 . S
H1568 C1564 0.930 . S
H1569 C1566 0.929 . S
S1570 N1571 1.613 . S
S1570 N1572 1.610 . S
N1571 S1570 1.613 . S
N1571 C1574 1.350 . S
N1572 S1570 1.610 . S
N1572 C1573 1.351 . S
C1573 C1567 1.428 . S
C1573 N1572 1.351 . S
C1573 C1574 1.434 . S
C1574 C1565 1.429 . S
C1574 N1571 1.350 . S
C1574 C1573 1.434 . S
C1575 C1576 1.369 . S
C1575 C1577 1.419 . S
C1575 H1579 0.930 . S
C1576 C1575 1.369 . S
C1576 C1585 1.429 . S
C1577 C1575 1.419 . S
C1577 C1578 1.363 . S
C1577 H1580 0.929 . S
C1578 C1577 1.363 . S
C1578 C1584 1.428 . S
H1579 C1575 0.930 . S
H1580 C1577 0.929 . S
S1581 N1582 1.613 . S
S1581 N1583 1.610 . S
N1582 S1581 1.613 . S
N1582 C1585 1.350 . S
N1583 S1581 1.610 . S
N1583 C1584 1.351 . S
C1584 C1578 1.428 . S
C1584 N1583 1.351 . S
C1584 C1585 1.434 . S
C1585 C1576 1.429 . S
C1585 N1582 1.350 . S
C1585 C1584 1.434 . S
C1586 C1587 1.369 . S
C1586 C1588 1.419 . S
C1586 H1590 0.930 . S
C1587 C1586 1.369 . S
C1587 C1596 1.429 . S
C1588 C1586 1.419 . S
C1588 C1589 1.363 . S
C1588 H1591 0.929 . S
C1589 C1588 1.363 . S
C1589 C1595 1.428 . S
H1590 C1586 0.930 . S
H1591 C1588 0.929 . S
S1592 N1593 1.613 . S
S1592 N1594 1.610 . S
N1593 S1592 1.613 . S
N1593 C1596 1.350 . S
N1594 S1592 1.610 . S
N1594 C1595 1.351 . S
C1595 C1589 1.428 . S
C1595 N1594 1.351 . S
C1595 C1596 1.434 . S
C1596 C1587 1.429 . S
C1596 N1593 1.350 . S
C1596 C1595 1.434 . S
C1597 C1598 1.369 . S
C1597 C1599 1.419 . S
C1597 H1601 0.930 . S
C1598 C1597 1.369 . S
C1598 C1607 1.429 . S
C1599 C1597 1.419 . S
C1599 C1600 1.363 . S
C1599 H1602 0.929 . S
C1600 C1599 1.363 . S
C1600 C1606 1.428 . S
H1601 C1597 0.930 . S
H1602 C1599 0.929 . S
S1603 N1604 1.613 . S
S1603 N1605 1.610 . S
N1604 S1603 1.613 . S
N1604 C1607 1.350 . S
N1605 S1603 1.610 . S
N1605 C1606 1.351 . S
C1606 C1600 1.428 . S
C1606 N1605 1.351 . S
C1606 C1607 1.434 . S
C1607 C1598 1.429 . S
C1607 N1604 1.350 . S
C1607 C1606 1.434 . S
C1608 C1609 1.369 . S
C1608 C1610 1.419 . S
C1608 H1612 0.930 . S
C1609 C1608 1.369 . S
C1609 C1618 1.429 . S
C1610 C1608 1.419 . S
C1610 C1611 1.363 . S
C1610 H1613 0.929 . S
C1611 C1610 1.363 . S
C1611 C1617 1.428 . S
H1612 C1608 0.930 . S
H1613 C1610 0.929 . S
S1614 N1615 1.613 . S
S1614 N1616 1.610 . S
N1615 S1614 1.613 . S
N1615 C1618 1.350 . S
N1616 S1614 1.610 . S
N1616 C1617 1.351 . S
C1617 C1611 1.428 . S
C1617 N1616 1.351 . S
C1617 C1618 1.434 . S
C1618 C1609 1.429 . S
C1618 N1615 1.350 . S
C1618 C1617 1.434 . S
C1619 C1620 1.369 . S
C1619 C1621 1.419 . S
C1619 H1623 0.930 . S
C1620 C1619 1.369 . S
C1620 C1629 1.429 . S
C1621 C1619 1.419 . S
C1621 C1622 1.363 . S
C1621 H1624 0.929 . S
C1622 C1621 1.363 . S
C1622 C1628 1.428 . S
H1623 C1619 0.930 . S
H1624 C1621 0.929 . S
S1625 N1626 1.613 . S
S1625 N1627 1.610 . S
N1626 S1625 1.613 . S
N1626 C1629 1.350 . S
N1627 S1625 1.610 . S
N1627 C1628 1.351 . S
C1628 C1622 1.428 . S
C1628 N1627 1.351 . S
C1628 C1629 1.434 . S
C1629 C1620 1.429 . S
C1629 N1626 1.350 . S
C1629 C1628 1.434 . S
C1630 C1631 1.369 . S
C1630 C1632 1.419 . S
C1630 H1634 0.930 . S
C1631 C1630 1.369 . S
C1631 C1640 1.429 . S
C1632 C1630 1.419 . S
C1632 C1633 1.363 . S
C1632 H1635 0.929 . S
C1633 C1632 1.363 . S
C1633 C1639 1.428 . S
H1634 C1630 0.930 . S
H1635 C1632 0.929 . S
S1636 N1637 1.613 . S
S1636 N1638 1.610 . S
N1637 S1636 1.613 . S
N1637 C1640 1.350 . S
N1638 S1636 1.610 . S
N1638 C1639 1.351 . S
C1639 C1633 1.428 . S
C1639 N1638 1.351 . S
C1639 C1640 1.434 . S
C1640 C1631 1.429 . S
C1640 N1637 1.350 . S
C1640 C1639 1.434 . S
C1641 C1642 1.369 . S
C1641 C1643 1.419 . S
C1641 H1645 0.930 . S
C1642 C1641 1.369 . S
C1642 C1651 1.429 . S
C1643 C1641 1.419 . S
C1643 C1644 1.363 . S
C1643 H1646 0.929 . S
C1644 C1643 1.363 . S
C1644 C1650 1.428 . S
H1645 C1641 0.930 . S
H1646 C1643 0.929 . S
S1647 N1648 1.613 . S
S1647 N1649 1.610 . S
N1648 S1647 1.613 . S
N1648 C1651 1.350 . S
N1649 S1647 1.610 . S
N1649 C1650 1.351 . S
C1650 C1644 1.428 . S
C1650 N1649 1.351 . S
C1650 C1651 1.434 . S
C1651 C1642 1.429 . S
C1651 N1648 1.350 . S
C1651 C1650 1.434 . S
C1652 C1653 1.369 . S
C1652 C1654 1.419 . S
C1652 H1656 0.930 . S
C1653 C1652 1.369 . S
C1653 C1662 1.429 . S
C1654 C1652 1.419 . S
C1654 C1655 1.363 . S
C1654 H1657 0.929 . S
C1655 C1654 1.363 . S
C1655 C1661 1.428 . S
H1656 C1652 0.930 . S
H1657 C1654 0.929 . S
S1658 N1659 1.613 . S
S1658 N1660 1.610 . S
N1659 S1658 1.613 . S
N1659 C1662 1.350 . S
N1660 S1658 1.610 . S
N1660 C1661 1.351 . S
C1661 C1655 1.428 . S
C1661 N1660 1.351 . S
C1661 C1662 1.434 . S
C1662 C1653 1.429 . S
C1662 N1659 1.350 . S
C1662 C1661 1.434 . S
C1663 C1664 1.369 . S
C1663 C1665 1.419 . S
C1663 H1667 0.930 . S
C1664 C1663 1.369 . S
C1664 C1673 1.429 . S
C1665 C1663 1.419 . S
C1665 C1666 1.363 . S
C1665 H1668 0.929 . S
C1666 C1665 1.363 . S
C1666 C1672 1.428 . S
H1667 C1663 0.930 . S
H1668 C1665 0.929 . S
S1669 N1670 1.613 . S
S1669 N1671 1.610 . S
N1670 S1669 1.613 . S
N1670 C1673 1.350 . S
N1671 S1669 1.610 . S
N1671 C1672 1.351 . S
C1672 C1666 1.428 . S
C1672 N1671 1.351 . S
C1672 C1673 1.434 . S
C1673 C1664 1.429 . S
C1673 N1670 1.350 . S
C1673 C1672 1.434 . S
C1081 C522 1.832 . S
C1083 C732 1.816 . S
C1092 C562 1.834 . S
C1094 C772 1.816 . S
C1103 C495 1.870 . S
C1105 C802 1.919 . S
C1114 C455 1.673 . S
C1116 C762 1.695 . S
C1127 C812 1.558 . S
C1125 C362 1.549 . S
C1136 C402 1.662 . S
C1138 C722 1.647 1_556 S
C1149 C751 1.845 . S
C1147 C442 1.717 . S
C1160 C791 1.789 . S
C1158 C375 1.788 . S
C1169 C415 1.886 . S
C1171 C817 1.922 . S
C1180 C535 1.689 . S
C1182 C777 1.697 . S
C1191 C575 1.511 . S
C1193 C831 1.531 . S
C1204 C737 1.678 . S
C1202 C482 1.544 . S
C1215 C852 1.821 . S
C1213 C42 1.828 1_455 S
C1224 C82 1.836 . S
C1226 C892 1.814 . S
C1235 C15 1.874 1_565 S
C1237 C922 1.914 . S
C1246 C695 1.671 . S
C1248 C882 1.699 . S
C1257 C602 1.550 . S
C1259 C932 1.556 . S
C1268 C642 1.657 . S
C1270 C842 1.657 . S
C1279 C682 1.725 . S
C1281 C871 1.841 . S
C1290 C615 1.786 . S
C1292 C911 1.791 . S
C1303 C937 1.917 . S
C1301 C655 1.894 . S
C1312 C55 1.689 1_565 S
C1314 C897 1.697 . S
C1325 C951 1.532 . S
C1323 C95 1.511 . S
C1334 C2 1.542 . S
C1336 C857 1.677 . S
C1347 C972 1.821 . S
C1345 C282 1.827 . S
C1356 C322 1.834 . S
C1358 C1012 1.816 . S
C1369 C1042 1.914 . S
C1367 C255 1.877 . S
C1380 C1002 1.698 . S
C1378 C215 1.670 1_545 S
C1391 C1052 1.555 . S
C1389 C122 1.555 . S
C1400 C162 1.664 . S
C1402 C962 1.652 . S
C1411 C202 1.728 1_655 S
C1413 C991 1.840 . S
C1422 C135 1.783 . S
C1424 C1031 1.793 . S
C1435 C1057 1.922 . S
C1433 C175 1.886 1_545 S
C1444 C295 1.686 . S
C1446 C1017 1.699 . S
C1455 C335 1.515 . S
C1457 C1071 1.529 . S
C1466 C242 1.533 . S
C1468 C977 1.680 . S
C1477 C621 1.352 . S
C1479 C749 1.342 . S
C1490 C789 1.875 . S
C1488 C661 1.922 1_455 S
C1499 C701 1.573 . S
C1501 C808 1.624 . S
C1510 C261 1.833 1_455 S
C1512 C768 1.888 . S
C1521 C301 1.621 . S
C1523 C829 1.604 . S
C1534 C728 1.339 . S
C1532 C341 1.349 . S
C1543 C141 1.349 . S
C1545 C869 1.342 . S
C1554 C181 1.927 . S
C1556 C909 1.874 . S
C1565 C221 1.575 . S
C1567 C928 1.623 . S
C1576 C501 1.833 . S
C1578 C888 1.888 . S
C1589 C949 1.604 . S
C1587 C541 1.621 . S
C1598 C581 1.351 . S
C1600 C848 1.342 . S
C1609 C381 1.350 . S
C1611 C989 1.344 . S
C1620 C421 1.929 . S
C1622 C1029 1.871 . S
C1633 C1048 1.622 . S
C1631 C461 1.576 . S
C1642 C21 1.834 . S
C1644 C1008 1.887 . S
C1653 C61 1.621 . S
C1655 C1069 1.604 . S
C1664 C101 1.353 . S
C1666 C968 1.340 . S
