# Generated by pormake.
# Topology ocu, (6,8)-cn, num edge types: 1
# Building blocks:
#     Node 0, Type 0, BuildingBlock: PAMTUU_clean_sbu_0, # of connection points: 6
#     Node 1, Type 0, BuildingBlock: PAMTUU_clean_sbu_0, # of connection points: 6
#     Node 2, Type 0, BuildingBlock: PAMTUU_clean_sbu_0, # of connection points: 6
#     Node 3, Type 0, BuildingBlock: PAMTUU_clean_sbu_0, # of connection points: 6
#     Node 4, Type 0, BuildingBlock: PAMTUU_clean_sbu_0, # of connection points: 6
#     Node 5, Type 0, BuildingBlock: PAMTUU_clean_sbu_0, # of connection points: 6
#     Node 6, Type 0, BuildingBlock: PAMTUU_clean_sbu_0, # of connection points: 6
#     Node 7, Type 0, BuildingBlock: PAMTUU_clean_sbu_0, # of connection points: 6
#     Node 8, Type 1, BuildingBlock: TAGTUT_clean_sbu_1, # of connection points: 8
#     Node 9, Type 1, BuildingBlock: TAGTUT_clean_sbu_1, # of connection points: 8
#     Node 10, Type 1, BuildingBlock: TAGTUT_clean_sbu_1, # of connection points: 8
#     Node 11, Type 1, BuildingBlock: TAGTUT_clean_sbu_1, # of connection points: 8
#     Node 12, Type 1, BuildingBlock: TAGTUT_clean_sbu_1, # of connection points: 8
#     Node 13, Type 1, BuildingBlock: TAGTUT_clean_sbu_1, # of connection points: 8
#     Edge 14, Type (0, 1), BuildingBlock: XIVTED_clean_linker_0, # of connection points: 2
#     Edge 15, Type (0, 1), BuildingBlock: XIVTED_clean_linker_0, # of connection points: 2
#     Edge 16, Type (0, 1), BuildingBlock: XIVTED_clean_linker_0, # of connection points: 2
#     Edge 17, Type (0, 1), BuildingBlock: XIVTED_clean_linker_0, # of connection points: 2
#     Edge 18, Type (0, 1), BuildingBlock: XIVTED_clean_linker_0, # of connection points: 2
#     Edge 19, Type (0, 1), BuildingBlock: XIVTED_clean_linker_0, # of connection points: 2
#     Edge 20, Type (0, 1), BuildingBlock: XIVTED_clean_linker_0, # of connection points: 2
#     Edge 21, Type (0, 1), BuildingBlock: XIVTED_clean_linker_0, # of connection points: 2
#     Edge 22, Type (0, 1), BuildingBlock: XIVTED_clean_linker_0, # of connection points: 2
#     Edge 23, Type (0, 1), BuildingBlock: XIVTED_clean_linker_0, # of connection points: 2
#     Edge 24, Type (0, 1), BuildingBlock: XIVTED_clean_linker_0, # of connection points: 2
#     Edge 25, Type (0, 1), BuildingBlock: XIVTED_clean_linker_0, # of connection points: 2
#     Edge 26, Type (0, 1), BuildingBlock: XIVTED_clean_linker_0, # of connection points: 2
#     Edge 27, Type (0, 1), BuildingBlock: XIVTED_clean_linker_0, # of connection points: 2
#     Edge 28, Type (0, 1), BuildingBlock: XIVTED_clean_linker_0, # of connection points: 2
#     Edge 29, Type (0, 1), BuildingBlock: XIVTED_clean_linker_0, # of connection points: 2
#     Edge 30, Type (0, 1), BuildingBlock: XIVTED_clean_linker_0, # of connection points: 2
#     Edge 31, Type (0, 1), BuildingBlock: XIVTED_clean_linker_0, # of connection points: 2
#     Edge 32, Type (0, 1), BuildingBlock: XIVTED_clean_linker_0, # of connection points: 2
#     Edge 33, Type (0, 1), BuildingBlock: XIVTED_clean_linker_0, # of connection points: 2
#     Edge 34, Type (0, 1), BuildingBlock: XIVTED_clean_linker_0, # of connection points: 2
#     Edge 35, Type (0, 1), BuildingBlock: XIVTED_clean_linker_0, # of connection points: 2
#     Edge 36, Type (0, 1), BuildingBlock: XIVTED_clean_linker_0, # of connection points: 2
#     Edge 37, Type (0, 1), BuildingBlock: XIVTED_clean_linker_0, # of connection points: 2
#     Edge 38, Type (0, 1), BuildingBlock: XIVTED_clean_linker_0, # of connection points: 2
#     Edge 39, Type (0, 1), BuildingBlock: XIVTED_clean_linker_0, # of connection points: 2
#     Edge 40, Type (0, 1), BuildingBlock: XIVTED_clean_linker_0, # of connection points: 2
#     Edge 41, Type (0, 1), BuildingBlock: XIVTED_clean_linker_0, # of connection points: 2
#     Edge 42, Type (0, 1), BuildingBlock: XIVTED_clean_linker_0, # of connection points: 2
#     Edge 43, Type (0, 1), BuildingBlock: XIVTED_clean_linker_0, # of connection points: 2
#     Edge 44, Type (0, 1), BuildingBlock: XIVTED_clean_linker_0, # of connection points: 2
#     Edge 45, Type (0, 1), BuildingBlock: XIVTED_clean_linker_0, # of connection points: 2
#     Edge 46, Type (0, 1), BuildingBlock: XIVTED_clean_linker_0, # of connection points: 2
#     Edge 47, Type (0, 1), BuildingBlock: XIVTED_clean_linker_0, # of connection points: 2
#     Edge 48, Type (0, 1), BuildingBlock: XIVTED_clean_linker_0, # of connection points: 2
#     Edge 49, Type (0, 1), BuildingBlock: XIVTED_clean_linker_0, # of connection points: 2
#     Edge 50, Type (0, 1), BuildingBlock: XIVTED_clean_linker_0, # of connection points: 2
#     Edge 51, Type (0, 1), BuildingBlock: XIVTED_clean_linker_0, # of connection points: 2
#     Edge 52, Type (0, 1), BuildingBlock: XIVTED_clean_linker_0, # of connection points: 2
#     Edge 53, Type (0, 1), BuildingBlock: XIVTED_clean_linker_0, # of connection points: 2
#     Edge 54, Type (0, 1), BuildingBlock: XIVTED_clean_linker_0, # of connection points: 2
#     Edge 55, Type (0, 1), BuildingBlock: XIVTED_clean_linker_0, # of connection points: 2
#     Edge 56, Type (0, 1), BuildingBlock: XIVTED_clean_linker_0, # of connection points: 2
#     Edge 57, Type (0, 1), BuildingBlock: XIVTED_clean_linker_0, # of connection points: 2
#     Edge 58, Type (0, 1), BuildingBlock: XIVTED_clean_linker_0, # of connection points: 2
#     Edge 59, Type (0, 1), BuildingBlock: XIVTED_clean_linker_0, # of connection points: 2
#     Edge 60, Type (0, 1), BuildingBlock: XIVTED_clean_linker_0, # of connection points: 2
#     Edge 61, Type (0, 1), BuildingBlock: XIVTED_clean_linker_0, # of connection points: 2
# Relax obj value: 0.134
# Max RMSD: 0.268
# Mean RMSD: 0.146
data_MOF--net-ocu--node1-PAMTUU_clean_sbu_0--node2-TAGTUT_clean_sbu_1--edge1-XIVTED_clean_linker_0
_symmetry_space_group_name_H-M    P1
_symmetry_Int_Tables_number       1
_symmetry_cell_setting            triclinic
loop_
_symmetry_equiv_pos_as_xyz
'x, y, z'
_cell_length_a     39.427014
_cell_length_b     40.042205
_cell_length_c     41.972163
_cell_angle_alpha  84.400006
_cell_angle_beta   97.208663
_cell_angle_gamma 110.6329
loop_
_atom_site_label
_atom_site_type_symbol
_atom_site_fract_x
_atom_site_fract_y
_atom_site_fract_z
_atom_type_partial_charge
Tb0 Tb 0.26011 0.26017 0.25921 0.0
Tb1 Tb 0.33268 0.27726 0.30794 0.0
C2 C 0.26255 0.21262 0.32117 0.0
C3 C 0.17785 0.27363 0.22164 0.0
C4 C 0.1366 0.31825 0.22401 0.0
C5 C 0.12093 0.28103 0.22977 0.0
C6 C 0.14141 0.25893 0.22858 0.0
C7 C 0.19338 0.31073 0.21556 0.0
C8 C 0.17294 0.33271 0.21652 0.0
C9 C 0.20073 0.25102 0.2251 0.0
O10 O 0.2488 0.28845 0.29806 0.0
O11 O 0.30529 0.31211 0.32539 0.0
O12 O 0.34897 0.30769 0.26371 0.0
O13 O 0.29496 0.31406 0.2445 0.0
O14 O 0.36331 0.25796 0.34449 0.0
O15 O 0.38323 0.31308 0.32622 0.0
O16 O 0.3385 0.23848 0.27521 0.0
O17 O 0.29229 0.23527 0.23502 0.0
O18 O 0.25368 0.21188 0.29008 0.0
O19 O 0.28899 0.23977 0.33337 0.0
C20 C 0.27026 0.30916 0.32072 0.0
O21 O 0.23239 0.2646 0.21369 0.0
O22 O 0.20323 0.23573 0.25368 0.0
C23 C 0.3304 0.32386 0.2443 0.0
C24 C 0.42502 0.28229 0.33806 0.0
C25 C 0.47774 0.25178 0.33141 0.0
C26 C 0.47638 0.26504 0.36089 0.0
C27 C 0.44994 0.27992 0.36425 0.0
C28 C 0.42884 0.27262 0.30777 0.0
C29 C 0.45487 0.25718 0.3045 0.0
C30 C 0.39128 0.28754 0.34364 0.0
C31 C 0.3222 0.228 0.24622 0.0
H32 H 0.09308 0.26902 0.23571 0.0
H33 H 0.1291 0.23045 0.23394 0.0
H34 H 0.22157 0.323 0.21061 0.0
H35 H 0.18566 0.3611 0.21107 0.0
H36 H 0.49344 0.26087 0.38211 0.0
H37 H 0.44723 0.28702 0.38782 0.0
H38 H 0.40992 0.27451 0.28721 0.0
H39 H 0.45553 0.2473 0.28154 0.0
Tb40 Tb 0.75693 0.27492 0.26703 0.0
Tb41 Tb 0.83635 0.26416 0.2761 0.0
C42 C 0.81682 0.31044 0.32113 0.0
C43 C 0.67527 0.3006 0.274 0.0
C44 C 0.6321 0.34086 0.28407 0.0
C45 C 0.62156 0.30435 0.29393 0.0
C46 C 0.64288 0.28435 0.28869 0.0
C47 C 0.68786 0.33767 0.26738 0.0
C48 C 0.66646 0.35762 0.27233 0.0
C49 C 0.69373 0.27799 0.26362 0.0
O50 O 0.7945 0.32735 0.25141 0.0
O51 O 0.83836 0.30644 0.23927 0.0
O52 O 0.80214 0.22517 0.24278 0.0
O53 O 0.76514 0.25696 0.22251 0.0
O54 O 0.87873 0.25081 0.30338 0.0
O55 O 0.88337 0.27129 0.25399 0.0
O56 O 0.80379 0.22845 0.3124 0.0
O57 O 0.74922 0.2196 0.28286 0.0
O58 O 0.78209 0.29364 0.3138 0.0
O59 O 0.84205 0.30828 0.3047 0.0
C60 C 0.82415 0.3317 0.2376 0.0
O61 O 0.71579 0.29131 0.24123 0.0
O62 O 0.7068 0.26022 0.28641 0.0
C63 C 0.78043 0.2333 0.21953 0.0
C64 C 0.91436 0.23193 0.27238 0.0
C65 C 0.95142 0.18468 0.2667 0.0
C66 C 0.96574 0.22061 0.25543 0.0
C67 C 0.9474 0.24409 0.25842 0.0
C68 C 0.89819 0.19548 0.28072 0.0
C69 C 0.9166 0.17202 0.27794 0.0
C70 C 0.89826 0.25807 0.27903 0.0
C71 C 0.76865 0.21068 0.30766 0.0
H72 H 0.59566 0.29072 0.3036 0.0
H73 H 0.63307 0.25579 0.29453 0.0
H74 H 0.71313 0.35094 0.25658 0.0
H75 H 0.67559 0.38557 0.26418 0.0
H76 H 0.99221 0.23107 0.24627 0.0
H77 H 0.95985 0.27211 0.25121 0.0
H78 H 0.8723 0.18545 0.29093 0.0
H79 H 0.90479 0.14463 0.28718 0.0
Tb80 Tb 0.82389 0.79066 0.26116 0.0
Tb81 Tb 0.75622 0.74103 0.29869 0.0
C82 C 0.80716 0.81385 0.32568 0.0
C83 C 0.89882 0.82139 0.21126 0.0
C84 C 0.91124 0.79022 0.15917 0.0
C85 C 0.91082 0.7731 0.19001 0.0
C86 C 0.90446 0.78848 0.2159 0.0
C87 C 0.90364 0.84047 0.18135 0.0
C88 C 0.9098 0.82492 0.15532 0.0
C89 C 0.87843 0.83061 0.23368 0.0
O90 O 0.84642 0.75141 0.29089 0.0
O91 O 0.79844 0.71744 0.31922 0.0
O92 O 0.75476 0.71058 0.25825 0.0
O93 O 0.80271 0.74613 0.23046 0.0
O94 O 0.73242 0.71092 0.33896 0.0
O95 O 0.69969 0.71354 0.29435 0.0
O96 O 0.73834 0.78595 0.27428 0.0
O97 O 0.77716 0.80463 0.23512 0.0
O98 O 0.81943 0.82346 0.29745 0.0
O99 O 0.78546 0.78139 0.33253 0.0
C100 C 0.83262 0.72529 0.31291 0.0
O101 O 0.84491 0.82582 0.2225 0.0
O102 O 0.88057 0.8177 0.26329 0.0
C103 C 0.7745 0.71697 0.23397 0.0
C104 C 0.67687 0.71703 0.34251 0.0
C105 C 0.65691 0.75341 0.38646 0.0
C106 C 0.65592 0.71808 0.39407 0.0
C107 C 0.66611 0.70006 0.37222 0.0
C108 C 0.67363 0.75049 0.33347 0.0
C109 C 0.66384 0.76857 0.35526 0.0
C110 C 0.69956 0.70461 0.32505 0.0
C111 C 0.74742 0.80457 0.24669 0.0
H112 H 0.91288 0.74669 0.19368 0.0
H113 H 0.90074 0.77313 0.23873 0.0
H114 H 0.89906 0.86576 0.17734 0.0
H115 H 0.91029 0.83871 0.13177 0.0
H116 H 0.64977 0.70534 0.41765 0.0
H117 H 0.66853 0.67422 0.37956 0.0
H118 H 0.68193 0.76423 0.31069 0.0
H119 H 0.66518 0.79576 0.34848 0.0
Tb120 Tb 0.31894 0.74349 0.28748 0.0
Tb121 Tb 0.27164 0.79789 0.27368 0.0
C122 C 0.24433 0.72416 0.3118 0.0
C123 C 0.36159 0.68657 0.26177 0.0
C124 C 0.37766 0.67186 0.20224 0.0
C125 C 0.34139 0.66409 0.20833 0.0
C126 C 0.33343 0.67144 0.23774 0.0
C127 C 0.3977 0.6926 0.25637 0.0
C128 C 0.4057 0.68532 0.22684 0.0
C129 C 0.35396 0.70173 0.28954 0.0
O130 O 0.27688 0.72319 0.24849 0.0
O131 O 0.26829 0.77509 0.22776 0.0
O132 O 0.32846 0.82842 0.27023 0.0
O133 O 0.34235 0.78417 0.25114 0.0
O134 O 0.22096 0.80432 0.27218 0.0
O135 O 0.26812 0.84864 0.25952 0.0
O136 O 0.29424 0.8046 0.32378 0.0
O137 O 0.3403 0.78085 0.32549 0.0
O138 O 0.27801 0.72633 0.32059 0.0
O139 O 0.23597 0.7456 0.28921 0.0
C140 C 0.26491 0.74156 0.225 0.0
O141 O 0.36959 0.73629 0.29078 0.0
O142 O 0.31991 0.69123 0.29536 0.0
C143 C 0.35026 0.81787 0.25605 0.0
C144 C 0.22837 0.85851 0.29254 0.0
C145 C 0.21249 0.87662 0.35064 0.0
C146 C 0.1845 0.8628 0.32613 0.0
C147 C 0.1924 0.85382 0.29731 0.0
C148 C 0.25666 0.87514 0.31587 0.0
C149 C 0.24879 0.88417 0.3447 0.0
C150 C 0.23496 0.83884 0.26755 0.0
C151 C 0.32461 0.80039 0.3374 0.0
H152 H 0.31922 0.65397 0.18982 0.0
H153 H 0.3053 0.66686 0.24096 0.0
H154 H 0.41984 0.70453 0.27441 0.0
H155 H 0.43389 0.69099 0.22299 0.0
H156 H 0.15631 0.85744 0.32981 0.0
H157 H 0.17017 0.84086 0.27972 0.0
H158 H 0.28463 0.87897 0.31275 0.0
H159 H 0.27093 0.89482 0.36311 0.0
Tb160 Tb 0.26865 0.79342 0.76519 0.0
Tb161 Tb 0.32377 0.75047 0.78859 0.0
C162 C 0.32305 0.81523 0.82885 0.0
C163 C 0.19316 0.83003 0.76065 0.0
C164 C 0.13656 0.85001 0.77817 0.0
C165 C 0.12974 0.82521 0.75445 0.0
C166 C 0.15776 0.81554 0.74573 0.0
C167 C 0.19948 0.85196 0.78655 0.0
C168 C 0.17132 0.86176 0.79531 0.0
C169 C 0.22304 0.82401 0.747 0.0
O170 O 0.31997 0.82597 0.74715 0.0
O171 O 0.3439 0.78202 0.7454 0.0
O172 O 0.28331 0.7165 0.7531 0.0
O173 O 0.26558 0.76026 0.72488 0.0
O174 O 0.33578 0.70308 0.79829 0.0
O175 O 0.37746 0.75494 0.80483 0.0
O176 O 0.2838 0.73161 0.82326 0.0
O177 O 0.23795 0.74823 0.79503 0.0
O178 O 0.2918 0.81459 0.81283 0.0
O179 O 0.34074 0.79529 0.82074 0.0
C180 C 0.3438 0.81438 0.73722 0.0
O181 O 0.25623 0.84064 0.75907 0.0
O182 O 0.2179 0.7911 0.74139 0.0
C183 C 0.26669 0.72749 0.72714 0.0
C184 C 0.39671 0.71001 0.7897 0.0
C185 C 0.44746 0.68162 0.77249 0.0
C186 C 0.45872 0.71097 0.79212 0.0
C187 C 0.4336 0.72481 0.80069 0.0
C188 C 0.3858 0.68343 0.76728 0.0
C189 C 0.4111 0.66953 0.75854 0.0
C190 C 0.37046 0.72069 0.80452 0.0
C191 C 0.24973 0.73 0.81869 0.0
H192 H 0.10361 0.81574 0.74032 0.0
H193 H 0.15216 0.79835 0.72588 0.0
H194 H 0.22647 0.86302 0.79893 0.0
H195 H 0.17741 0.88049 0.81395 0.0
H196 H 0.4862 0.72117 0.80369 0.0
H197 H 0.4427 0.74558 0.81776 0.0
H198 H 0.35752 0.67205 0.75789 0.0
H199 H 0.40158 0.64756 0.74276 0.0
Tb200 Tb 0.32345 0.27859 0.76269 0.0
Tb201 Tb 0.25157 0.24945 0.80446 0.0
C202 C 0.3159 0.32373 0.81631 0.0
C203 C 0.38575 0.27345 0.70595 0.0
C204 C 0.40267 0.23424 0.66141 0.0
C205 C 0.42494 0.26988 0.667 0.0
C206 C 0.41643 0.28931 0.68896 0.0
C207 C 0.36353 0.23809 0.70045 0.0
C208 C 0.37155 0.21886 0.67822 0.0
C209 C 0.37764 0.29301 0.73035 0.0
O210 O 0.33986 0.26027 0.81113 0.0
O211 O 0.28596 0.21682 0.82097 0.0
O212 O 0.23604 0.21418 0.76527 0.0
O213 O 0.29299 0.22422 0.74964 0.0
O214 O 0.232 0.23072 0.84952 0.0
O215 O 0.19615 0.23912 0.80907 0.0
O216 O 0.24254 0.29112 0.76991 0.0
O217 O 0.28026 0.2921 0.73195 0.0
O218 O 0.32927 0.32483 0.78889 0.0
O219 O 0.29059 0.29533 0.82743 0.0
C220 C 0.32172 0.23037 0.82662 0.0
O221 O 0.35084 0.30496 0.72233 0.0
O222 O 0.3757 0.27754 0.7591 0.0
C223 C 0.2578 0.20672 0.74814 0.0
C224 C 0.18936 0.25609 0.85941 0.0
C225 C 0.17147 0.29983 0.89882 0.0
C226 C 0.15099 0.26301 0.89751 0.0
C227 C 0.16004 0.24134 0.87817 0.0
C228 C 0.20926 0.2928 0.85996 0.0
C229 C 0.20074 0.31434 0.87966 0.0
C230 C 0.20025 0.23335 0.84015 0.0
C231 C 0.25286 0.29964 0.74061 0.0
H232 H 0.44948 0.28258 0.65505 0.0
H233 H 0.43419 0.31648 0.69309 0.0
H234 H 0.34023 0.22508 0.71377 0.0
H235 H 0.35329 0.19183 0.67436 0.0
H236 H 0.12777 0.25083 0.91124 0.0
H237 H 0.14421 0.21307 0.87793 0.0
H238 H 0.23172 0.30476 0.84533 0.0
H239 H 0.21763 0.34227 0.88018 0.0
Tb240 Tb 0.82376 0.25009 0.79528 0.0
Tb241 Tb 0.76535 0.28976 0.76904 0.0
C242 C 0.74919 0.22995 0.82691 0.0
C243 C 0.88704 0.21011 0.78004 0.0
C244 C 0.90436 0.18933 0.72328 0.0
C245 C 0.89415 0.16457 0.74965 0.0
C246 C 0.88552 0.17486 0.77771 0.0
C247 C 0.89882 0.23519 0.75427 0.0
C248 C 0.90738 0.22496 0.72632 0.0
C249 C 0.8693 0.21875 0.8056 0.0
O250 O 0.80026 0.23006 0.74876 0.0
O251 O 0.74692 0.24217 0.74212 0.0
O252 O 0.80304 0.30363 0.73133 0.0
O253 O 0.85174 0.29618 0.76331 0.0
O254 O 0.71133 0.28916 0.76246 0.0
O255 O 0.75601 0.33725 0.75213 0.0
O256 O 0.80928 0.32463 0.79927 0.0
O257 O 0.8258 0.28395 0.83344 0.0
O258 O 0.7743 0.21856 0.81861 0.0
O259 O 0.74673 0.26068 0.81461 0.0
C260 C 0.76745 0.22499 0.73481 0.0
O261 O 0.87759 0.25262 0.81036 0.0
O262 O 0.83425 0.2019 0.80426 0.0
C263 C 0.83826 0.30881 0.73638 0.0
C264 C 0.71184 0.34175 0.78333 0.0
C265 C 0.6954 0.36369 0.83982 0.0
C266 C 0.66791 0.33972 0.82 0.0
C267 C 0.67608 0.32882 0.79209 0.0
C268 C 0.73879 0.36742 0.80203 0.0
C269 C 0.73073 0.37814 0.82997 0.0
C270 C 0.72219 0.32393 0.75873 0.0
C271 C 0.82264 0.31555 0.82746 0.0
H272 H 0.89207 0.13703 0.74836 0.0
H273 H 0.87594 0.15488 0.79697 0.0
H274 H 0.89961 0.26241 0.75492 0.0
H275 H 0.91464 0.24471 0.70648 0.0
H276 H 0.6402 0.32866 0.82646 0.0
H277 H 0.6548 0.30895 0.7782 0.0
H278 H 0.76666 0.37798 0.79606 0.0
H279 H 0.75269 0.39644 0.84464 0.0
Tb280 Tb 0.80814 0.79841 0.80446 0.0
Tb281 Tb 0.7713 0.73584 0.75208 0.0
C282 C 0.8379 0.80505 0.73744 0.0
C283 C 0.81216 0.85635 0.86783 0.0
C284 C 0.77034 0.88092 0.90319 0.0
C285 C 0.80433 0.9041 0.89416 0.0
C286 C 0.82505 0.89186 0.87658 0.0
C287 C 0.77872 0.83292 0.87745 0.0
C288 C 0.75813 0.84503 0.89514 0.0
C289 C 0.8316 0.84475 0.84602 0.0
O290 O 0.75654 0.80461 0.78484 0.0
O291 O 0.74597 0.77596 0.73768 0.0
O292 O 0.73279 0.72384 0.78799 0.0
O293 O 0.77384 0.75104 0.82939 0.0
O294 O 0.75617 0.72158 0.70413 0.0
O295 O 0.7477 0.68132 0.74321 0.0
O296 O 0.80918 0.71876 0.78626 0.0
O297 O 0.84849 0.77277 0.80348 0.0
O298 O 0.83139 0.82148 0.76019 0.0
O299 O 0.82231 0.7705 0.73434 0.0
C300 C 0.74021 0.79824 0.7556 0.0
O301 O 0.83155 0.81211 0.85127 0.0
O302 O 0.82413 0.85212 0.81563 0.0
C303 C 0.74249 0.72788 0.81885 0.0
C304 C 0.76831 0.66996 0.69665 0.0
C305 C 0.80968 0.64174 0.66421 0.0
C306 C 0.77416 0.6394 0.65154 0.0
C307 C 0.75366 0.65348 0.66764 0.0
C308 C 0.8034 0.67169 0.70969 0.0
C309 C 0.8238 0.65757 0.69374 0.0
C310 C 0.74838 0.68766 0.71219 0.0
C311 C 0.84079 0.73847 0.80009 0.0
H312 H 0.81432 0.93198 0.89966 0.0
H313 H 0.85058 0.91039 0.86897 0.0
H314 H 0.76807 0.80545 0.87063 0.0
H315 H 0.7324 0.82634 0.90216 0.0
H316 H 0.76264 0.62773 0.62869 0.0
H317 H 0.72674 0.65225 0.6571 0.0
H318 H 0.8153 0.68455 0.73198 0.0
H319 H 0.85079 0.65931 0.70445 0.0
C320 C 0.96707 0.1025 0.53289 0.0
C321 C 1.01737 0.08254 0.44888 0.0
C322 C 0.97689 0.94987 0.49336 0.0
Mg323 Mg 0.04167 0.09926 0.51921 0.0
O324 O 1.01626 0.0511 0.53103 0.0
Mg325 Mg 0.96898 0.02595 0.50549 0.0
Mg326 Mg 0.04088 0.01614 0.52918 0.0
O327 O 0.06548 0.98073 0.52835 0.0
Mg328 Mg 0.03971 0.93272 0.54061 0.0
Mg329 Mg 0.11051 0.00573 0.5571 0.0
C330 C 0.10325 0.0817 0.56658 0.0
C331 C 0.11177 0.05148 0.48833 0.0
O332 O 0.95071 0.07079 0.52281 0.0
O333 O 1.00148 0.11857 0.53247 0.0
O334 O 0.98944 0.05791 0.45894 0.0
O335 O 0.0429 0.10161 0.46815 0.0
O336 O 0.09162 0.10553 0.55117 0.0
O337 O 0.08613 0.04818 0.56396 0.0
C338 C 0.97227 0.97873 0.57176 0.0
O339 O 1.00598 0.98491 0.56913 0.0
O340 O 0.95256 0.99148 0.55115 0.0
O341 O 0.13056 0.96081 0.54499 0.0
O342 O 0.08139 0.9132 0.53088 0.0
O343 O 0.08669 0.97471 0.60318 0.0
C344 C 0.11599 0.92927 0.53443 0.0
O345 O 0.03548 0.92922 0.59134 0.0
O346 O 0.98999 0.92688 0.50851 0.0
C347 C 0.05874 0.94893 0.61174 0.0
O348 O 0.99363 0.98374 0.49492 0.0
O349 O 0.07793 0.04734 0.48906 0.0
O350 O 0.12913 0.03809 0.51086 0.0
C351 C 0.44061 0.10583 0.10097 0.0
C352 C 0.45635 0.11103 0.99771 0.0
C353 C 0.46249 0.96687 0.01612 0.0
Mg354 Mg 0.50933 0.1164 0.0628 0.0
O355 O 0.49652 0.06667 0.06074 0.0
Mg356 Mg 0.44405 0.03819 0.05025 0.0
Mg357 Mg 0.5262 0.03605 0.05036 0.0
O358 O 0.55617 0.00454 0.04406 0.0
Mg359 Mg 0.54138 0.95453 0.04883 0.0
Mg360 Mg 0.60672 0.03088 0.06394 0.0
C361 C 0.58859 0.10172 0.08265 0.0
C362 C 0.5885 0.08097 0.99959 0.0
O363 O 0.42462 0.07694 0.08494 0.0
O364 O 0.47461 0.12335 0.09836 0.0
O365 O 0.44024 0.07794 0.00613 0.0
O366 O 0.48459 0.13062 0.0148 0.0
O367 O 0.56842 0.12168 0.07634 0.0
O368 O 0.57606 0.06744 0.08161 0.0
C369 C 0.47566 0.99271 0.10674 0.0
O370 O 0.50526 0.001 0.09387 0.0
O371 O 0.44952 0.00315 0.09461 0.0
O372 O 0.62764 0.99584 0.03626 0.0
O373 O 0.5787 0.95079 0.01707 0.0
O374 O 0.60946 0.98646 0.1096 0.0
C375 C 0.61296 0.96871 0.01887 0.0
O376 O 0.56846 0.93463 0.09405 0.0
O377 O 0.48454 0.94945 0.02613 0.0
C378 C 0.59628 0.95174 0.11307 0.0
O379 O 0.47121 0.00105 0.02096 0.0
O380 O 0.55478 0.07385 0.00481 0.0
O381 O 0.60933 0.06822 0.01884 0.0
C382 C 0.94784 0.63446 0.01721 0.0
C383 C 0.98252 0.61059 0.93704 0.0
C384 C 0.95018 0.47575 0.99265 0.0
Mg385 Mg 1.01973 0.62461 0.00495 0.0
O386 O 0.99391 0.57922 0.02229 0.0
Mg387 Mg 0.94475 0.55367 0.99935 0.0
Mg388 Mg 1.01748 0.5427 0.0228 0.0
O389 O 0.0405 0.50585 0.02274 0.0
Mg390 Mg 1.01454 0.45935 0.03754 0.0
Mg391 Mg 0.08869 0.53004 0.04707 0.0
C392 C 0.08472 0.61014 0.05233 0.0
C393 C 0.08504 0.57255 0.97742 0.0
O394 O 0.9293 0.6015 0.01203 0.0
O395 O 0.98248 0.64794 0.01668 0.0
O396 O 0.9581 0.58453 0.95024 0.0
O397 O 1.01225 0.62789 0.95311 0.0
O398 O 0.07166 0.63159 0.03429 0.0
O399 O 0.06718 0.57616 0.05486 0.0
C400 C 0.95018 0.51099 0.06933 0.0
O401 O 0.98333 0.51462 0.06594 0.0
O402 O 0.93126 0.52375 0.04787 0.0
O403 O 0.10416 0.48169 0.0332 0.0
O404 O 0.05167 0.43519 0.02572 0.0
O405 O 0.07116 0.50002 0.09589 0.0
C406 C 0.08633 0.44922 0.02566 0.0
O407 O 1.01641 0.458 0.08846 0.0
O408 O 0.96324 0.45341 0.00896 0.0
C409 C 0.04382 0.47537 0.10699 0.0
O410 O 0.96793 0.50955 0.9909 0.0
O411 O 0.0522 0.5707 0.98005 0.0
O412 O 0.10286 0.55903 0.99927 0.0
C413 C 0.46834 0.60931 0.02038 0.0
C414 C 0.52371 0.58516 0.94451 0.0
C415 C 0.47748 0.45409 0.9904 0.0
Mg416 Mg 0.54364 0.60275 0.01528 0.0
O417 O 0.51619 0.55551 0.02862 0.0
Mg418 Mg 0.47095 0.53077 0.99992 0.0
Mg419 Mg 0.53969 0.519 0.02917 0.0
O420 O 0.56338 0.48304 0.02862 0.0
Mg421 Mg 0.53726 0.43468 0.03879 0.0
Mg422 Mg 0.61006 0.50744 0.05521 0.0
C423 C 0.60437 0.58457 0.06481 0.0
C424 C 0.60962 0.55384 0.98756 0.0
O425 O 0.45264 0.5774 0.01078 0.0
O426 O 0.5031 0.62436 0.02372 0.0
O427 O 0.49539 0.56032 0.95366 0.0
O428 O 0.54774 0.60483 0.96447 0.0
O429 O 0.59284 0.60793 0.04825 0.0
O430 O 0.58644 0.55084 0.06418 0.0
C431 C 0.46765 0.48566 0.06921 0.0
O432 O 0.50135 0.48912 0.06868 0.0
O433 O 0.45077 0.49927 0.04644 0.0
O434 O 0.62849 0.46243 0.03959 0.0
O435 O 0.57816 0.41536 0.02673 0.0
O436 O 0.5874 0.47474 0.10126 0.0
C437 C 0.61278 0.43118 0.02853 0.0
O438 O 0.53436 0.43116 0.08967 0.0
O439 O 0.48842 0.42962 0.00545 0.0
C440 C 0.55907 0.44948 0.11004 0.0
O441 O 0.49464 0.48736 0.99422 0.0
O442 O 0.57593 0.54866 0.9894 0.0
O443 O 0.62843 0.54123 0.00931 0.0
C444 C 0.97049 0.56406 0.54259 0.0
C445 C 0.98758 0.58273 0.44809 0.0
C446 C 0.99749 0.43339 0.47655 0.0
Mg447 Mg 0.04251 0.57989 0.51248 0.0
O448 O 0.02826 0.52987 0.51668 0.0
Mg449 Mg 0.97788 0.50313 0.49637 0.0
Mg450 Mg 0.05898 0.49877 0.51113 0.0
O451 O 0.08896 0.468 0.50171 0.0
Mg452 Mg 0.0759 0.41813 0.50003 0.0
Mg453 Mg 0.14113 0.49612 0.51368 0.0
C454 C 0.12164 0.56803 0.54583 0.0
C455 C 0.11134 0.5414 0.45576 0.0
O456 O 0.956 0.53707 0.52496 0.0
O457 O 1.00465 0.5824 0.54421 0.0
O458 O 0.975 0.54799 0.45127 0.0
O459 O 1.01504 0.6 0.4674 0.0
O460 O 0.09947 0.58529 0.53556 0.0
O461 O 0.11316 0.53376 0.54146 0.0
C462 C 0.99517 0.45142 0.55962 0.0
O463 O 0.02959 0.46051 0.55609 0.0
O464 O 0.97457 0.46406 0.54001 0.0
O465 O 0.16192 0.45764 0.47993 0.0
O466 O 0.11252 0.41079 0.4663 0.0
O467 O 0.1432 0.45588 0.55793 0.0
C468 C 0.14657 0.42852 0.46411 0.0
O469 O 0.09807 0.40369 0.54911 0.0
O470 O 1.01735 0.41318 0.48344 0.0
C471 C 0.12623 0.42299 0.56647 0.0
O472 O 1.0099 0.46748 0.47911 0.0
O473 O 0.08117 0.53387 0.4676 0.0
O474 O 0.13691 0.53081 0.46917 0.0
C475 C 0.49837 0.09588 0.53249 0.0
C476 C 0.54474 0.07651 0.45062 0.0
C477 C 0.50784 0.93934 0.502 0.0
Mg478 Mg 0.57196 0.08961 0.52096 0.0
O479 O 0.54756 0.04217 0.53391 0.0
Mg480 Mg 0.50009 0.01752 0.50869 0.0
Mg481 Mg 0.57292 0.00748 0.53211 0.0
O482 O 0.59895 0.97314 0.53111 0.0
Mg483 Mg 0.57531 0.9267 0.54743 0.0
Mg484 Mg 0.64764 -0.00034 0.55455 0.0
C485 C 0.63784 0.07457 0.56443 0.0
C486 C 0.63987 0.04467 0.48592 0.0
O487 O 0.48187 0.06356 0.52395 0.0
O488 O 0.53298 0.11111 0.5332 0.0
O489 O 0.51742 0.05055 0.46035 0.0
O490 O 0.57133 0.09324 0.47021 0.0
O491 O 0.62343 0.09651 0.54932 0.0
O492 O 0.6215 0.04056 0.56518 0.0
C493 C 0.50569 0.9729 0.57725 0.0
O494 O 0.53886 0.97635 0.57409 0.0
O495 O 0.48682 0.98625 0.55618 0.0
O496 O 0.66604 0.95531 0.53872 0.0
O497 O 0.61461 0.90679 0.53403 0.0
O498 O 0.63611 0.96572 0.60312 0.0
C499 C 0.64896 0.92234 0.53276 0.0
O500 O 0.58241 0.92182 0.59916 0.0
O501 O 0.52265 0.91866 0.51913 0.0
C502 C 0.61207 0.9386 0.61559 0.0
O503 O 0.52404 0.97357 0.49945 0.0
O504 O 0.60623 0.03883 0.48932 0.0
O505 O 0.65966 0.03245 0.50696 0.0
H506 H 0.28407 0.1945 0.38241 0.0
H507 H 0.08559 0.07146 0.42795 0.0
H508 H 0.19113 0.16785 0.31125 0.0
H509 H 0.18535 0.08029 0.48775 0.0
H510 H 0.1218 0.1082 0.38518 0.0
H511 H 0.24675 0.15368 0.42153 0.0
C512 C 0.25581 0.17975 0.37492 0.0
C513 C 0.24074 0.18456 0.34349 0.0
C514 C 0.13563 0.1019 0.40767 0.0
C515 C 0.19737 0.13793 0.38854 0.0
C516 C 0.11498 0.08125 0.43215 0.0
C517 C 0.13236 0.07304 0.46162 0.0
C518 C 0.17389 0.11456 0.41289 0.0
C519 C 0.1706 0.08582 0.46551 0.0
C520 C 0.23443 0.1564 0.39732 0.0
C521 C 0.2039 0.16469 0.33518 0.0
N522 N 0.18993 0.10598 0.44161 0.0
N523 N 0.1833 0.14247 0.35769 0.0
H524 H 0.9346 0.11225 0.26153 0.0
H525 H 0.97654 0.03928 0.40144 0.0
H526 H 1.02341 0.20735 0.28975 0.0
H527 H 0.06476 0.13912 0.41646 0.0
H528 H 0.97408 0.05378 0.34419 0.0
H529 H 0.96375 0.07643 0.29674 0.0
C530 C 0.96076 0.12553 0.27456 0.0
C531 C 0.97536 0.16295 0.27429 0.0
C532 C 0.99436 0.07262 0.35955 0.0
C533 C 1.00825 0.12244 0.31594 0.0
C534 C 0.99557 0.06432 0.39257 0.0
C535 C 1.01966 0.08887 0.41387 0.0
C536 C 1.01696 0.10616 0.34775 0.0
C537 C 0.04476 0.12002 0.40098 0.0
C538 C 0.97736 0.10504 0.29515 0.0
C539 C 1.01023 0.17862 0.29014 0.0
N540 N 0.04219 0.12812 0.36881 0.0
N541 N 1.02486 0.15838 0.31122 0.0
H542 H 0.84549 0.88545 0.31875 0.0
H543 H 0.94876 0.98561 0.44372 0.0
H544 H 0.80147 0.80147 0.3906 0.0
H545 H 0.92632 0.88276 0.49545 0.0
H546 H 0.89775 0.95878 0.40387 0.0
H547 H 0.87879 0.92488 0.36117 0.0
C548 C 0.84214 0.87553 0.34353 0.0
C549 C 0.82115 0.83984 0.35109 0.0
C550 C 0.90398 0.94203 0.42386 0.0
C551 C 0.85905 0.88525 0.40019 0.0
C552 C 0.93286 0.95749 0.44688 0.0
C553 C 0.94246 0.93618 0.47243 0.0
C554 C 0.88479 0.90498 0.42648 0.0
C555 C 0.92054 0.90002 0.47564 0.0
C556 C 0.86101 0.89831 0.36791 0.0
C557 C 0.81762 0.82865 0.38361 0.0
N558 N 0.89307 0.88551 0.45273 0.0
N559 N 0.837 0.85106 0.40694 0.0
H560 H 0.15961 0.82909 0.38464 0.0
H561 H 0.18727 0.96222 0.52194 0.0
H562 H 0.24574 0.93164 0.39089 0.0
H563 H 0.09705 0.86288 0.51109 0.0
H564 H 0.21705 0.94498 0.48207 0.0
H565 H 0.14338 0.83578 0.43721 0.0
C566 C 0.17501 0.85313 0.39706 0.0
C567 C 0.20351 0.88026 0.38306 0.0
C568 C 0.19107 0.92664 0.4889 0.0
C569 C 0.18545 0.88785 0.44357 0.0
C570 C 0.17413 0.93631 0.51192 0.0
C571 C 0.13906 0.9144 0.51924 0.0
C572 C 0.17279 0.8949 0.47316 0.0
C573 C 0.12368 0.88102 0.50567 0.0
C574 C 0.16599 0.85676 0.42724 0.0
C575 C 0.22337 0.91024 0.40071 0.0
N576 N 0.14031 0.87261 0.4828 0.0
N577 N 0.21366 0.91345 0.42991 0.0
H578 H 0.15303 0.92169 0.78421 0.0
H579 H 0.08621 0.99466 0.66039 0.0
H580 H 0.06107 0.82427 0.77174 0.0
H581 H 1.01945 0.88582 0.64187 0.0
H582 H 0.08793 0.97866 0.71784 0.0
H583 H 0.11772 0.95483 0.75521 0.0
C584 C 0.12474 0.90723 0.77662 0.0
C585 C 0.11088 0.86971 0.77832 0.0
C586 C 0.07299 0.95809 0.70141 0.0
C587 C 0.07024 0.90768 0.74341 0.0
C588 C 0.07196 0.96731 0.6685 0.0
C589 C 0.05434 0.94106 0.64634 0.0
C590 C 0.05758 0.92202 0.71207 0.0
C591 C 0.03463 0.90658 0.65812 0.0
C592 C 0.10432 0.9264 0.75945 0.0
C593 C 0.07363 0.85304 0.76898 0.0
N594 N 0.03762 0.89782 0.69016 0.0
N595 N 0.05502 0.87191 0.75051 0.0
H596 H 0.19742 0.14603 0.75005 0.0
H597 H 0.16205 0.14324 0.56492 0.0
H598 H 0.28066 0.20894 0.68946 0.0
H599 H 0.11482 0.04723 0.62374 0.0
H600 H 0.20677 0.16758 0.61024 0.0
H601 H 0.16639 0.10853 0.70482 0.0
C602 C 0.20954 0.1514 0.72748 0.0
C603 C 0.24175 0.18036 0.72348 0.0
C604 C 0.18712 0.14085 0.613 0.0
C605 C 0.20632 0.13843 0.67184 0.0
C606 C 0.16164 0.12703 0.58721 0.0
C607 C 0.1347 0.09337 0.59081 0.0
C608 C 0.18481 0.12126 0.64278 0.0
C609 C 0.13527 0.07331 0.6201 0.0
C610 C 0.192 0.12999 0.7018 0.0
C611 C 0.25634 0.18642 0.69376 0.0
N612 N 0.15941 0.08793 0.64533 0.0
N613 N 0.23814 0.16606 0.66886 0.0
H614 H 0.95563 0.22628 0.68196 0.0
H615 H 0.90444 0.06861 0.56257 0.0
H616 H 0.86647 0.12677 0.6933 0.0
H617 H 0.98734 0.17197 0.54865 0.0
H618 H 0.88502 0.09128 0.60657 0.0
H619 H 0.96393 0.20819 0.63056 0.0
C620 C 0.93762 0.20067 0.67361 0.0
C621 C 0.91039 0.178 0.69224 0.0
C622 C 0.90702 0.10918 0.59348 0.0
C623 C 0.92 0.15686 0.63312 0.0
C624 C 0.91785 0.09637 0.56804 0.0
C625 C 0.94791 0.11826 0.55207 0.0
C626 C 0.92643 0.14408 0.60303 0.0
C627 C 0.96434 0.15394 0.5605 0.0
C628 C 0.94242 0.19031 0.64418 0.0
C629 C 0.88828 0.14489 0.68016 0.0
N630 N 0.95378 0.16552 0.58566 0.0
N631 N 0.89367 0.13527 0.65148 0.0
H632 H 0.8376 0.79222 0.67461 0.0
H633 H 0.99789 0.97436 0.63497 0.0
H634 H 0.89371 0.86799 0.74668 0.0
H635 H 0.90744 0.92478 0.566 0.0
H636 H 0.96888 0.92885 0.67636 0.0
H637 H 0.87329 0.83367 0.63415 0.0
C638 C 0.85786 0.81727 0.68199 0.0
C639 C 0.86253 0.82697 0.71385 0.0
C640 C 0.95549 0.92802 0.65213 0.0
C641 C 0.9032 0.8741 0.66804 0.0
C642 C 0.97197 0.95382 0.62867 0.0
C643 C 0.95477 0.9532 0.59734 0.0
C644 C 0.9221 0.90116 0.6438 0.0
C645 C 0.92121 0.9263 0.59011 0.0
C646 C 0.87795 0.84094 0.65893 0.0
C647 C 0.88903 0.85977 0.72222 0.0
N648 N 0.90601 0.90114 0.61316 0.0
N649 N 0.90838 0.88226 0.6994 0.0
H650 H 0.39045 0.21877 0.25429 0.0
H651 H 0.36499 0.09471 0.10285 0.0
H652 H 0.29274 0.19072 0.18915 0.0
H653 H 0.46959 0.15305 0.15039 0.0
H654 H 0.33628 0.12277 0.13665 0.0
H655 H 0.41715 0.18943 0.22048 0.0
C656 C 0.37422 0.20643 0.23304 0.0
C657 C 0.33869 0.20804 0.22536 0.0
C658 C 0.36554 0.12941 0.13988 0.0
C659 C 0.37006 0.17254 0.18529 0.0
C660 C 0.38219 0.11301 0.12043 0.0
C661 C 0.42046 0.1208 0.12303 0.0
C662 C 0.38666 0.15384 0.16326 0.0
C663 C 0.44026 0.14553 0.14674 0.0
C664 C 0.38979 0.18944 0.2134 0.0
C665 C 0.32002 0.19083 0.19682 0.0
N666 N 0.42348 0.16049 0.16552 0.0
N667 N 0.33554 0.17402 0.17842 0.0
H668 H 0.89661 0.36242 0.23385 0.0
H669 H 0.87777 0.48886 0.0789 0.0
H670 H 0.79475 0.37583 0.19731 0.0
H671 H 0.98074 0.48538 0.12483 0.0
H672 H 0.84733 0.45069 0.12328 0.0
H673 H 0.92797 0.41024 0.19617 0.0
C674 C 0.88086 0.37587 0.21812 0.0
C675 C 0.84293 0.36498 0.21864 0.0
C676 C 0.8766 0.45839 0.12377 0.0
C677 C 0.87882 0.41972 0.17471 0.0
C678 C 0.89415 0.48025 0.09837 0.0
C679 C 0.93204 0.48994 0.09766 0.0
C680 C 0.89693 0.44584 0.1488 0.0
C681 C 0.95152 0.47795 0.12379 0.0
C682 C 0.89885 0.40321 0.19653 0.0
C683 C 0.82402 0.38349 0.19782 0.0
N684 N 0.93376 0.45634 0.14808 0.0
N685 N 0.8421 0.40964 0.17634 0.0
H686 H 0.73406 0.81752 0.18027 0.0
H687 H 0.63905 0.96703 0.1737 0.0
H688 H 0.7065 0.84223 0.26888 0.0
H689 H 0.60341 0.88638 0.10434 0.0
H690 H 0.67341 0.93205 0.20642 0.0
H691 H 0.69747 0.85142 0.15022 0.0
C692 C 0.72057 0.83007 0.19371 0.0
C693 C 0.72397 0.82604 0.22782 0.0
C694 C 0.65797 0.92182 0.18411 0.0
C695 C 0.68168 0.86738 0.19231 0.0
C696 C 0.63805 0.94202 0.16516 0.0
C697 C 0.61699 0.93008 0.13575 0.0
C698 C 0.65883 0.88953 0.17354 0.0
C699 C 0.61817 0.89714 0.12671 0.0
C700 C 0.69936 0.84965 0.17624 0.0
C701 C 0.70511 0.84372 0.2429 0.0
N702 N 0.63866 0.87887 0.14484 0.0
N703 N 0.68565 0.86359 0.22539 0.0
H704 H 0.23962 0.76955 0.16832 0.0
H705 H 0.1151 0.57948 0.10478 0.0
H706 H 0.24309 0.66999 0.21579 0.0
H707 H 0.13184 0.67893 0.04808 0.0
H708 H 0.16434 0.61126 0.14442 0.0
H709 H 0.20173 0.73644 0.12303 0.0
C710 C 0.23269 0.74081 0.16915 0.0
C711 C 0.24443 0.72261 0.19606 0.0
C712 C 0.15752 0.62597 0.12304 0.0
C713 C 0.20076 0.68439 0.14435 0.0
C714 C 0.12952 0.60777 0.10031 0.0
C715 C 0.11885 0.62659 0.07324 0.0
C716 C 0.17473 0.66322 0.11875 0.0
C717 C 0.13862 0.66331 0.06879 0.0
C718 C 0.2111 0.72187 0.14323 0.0
C719 C 0.23466 0.68526 0.19565 0.0
N720 N 0.16514 0.68044 0.09148 0.0
N721 N 0.21311 0.66739 0.17042 0.0
H722 H 0.3152 0.87945 0.84095 0.0
H723 H 0.42595 0.89504 0.01628 0.0
H724 H 0.36871 0.80592 0.88183 0.0
H725 H 0.43016 0.99142 0.95889 0.0
H726 H 0.39077 0.8597 0.97143 0.0
H727 H 0.34415 0.918 0.88655 0.0
C728 C 0.33274 0.87115 0.85952 0.0
C729 C 0.33929 0.83901 0.85712 0.0
C730 C 0.39876 0.88854 0.96865 0.0
C731 C 0.37221 0.88316 0.91023 0.0
C732 C 0.41866 0.909 0.99456 0.0
C733 C 0.43142 0.94677 0.99201 0.0
C734 C 0.39039 0.9053 0.93927 0.0
C735 C 0.42079 0.96261 0.96263 0.0
C736 C 0.34946 0.89339 0.88555 0.0
C737 C 0.36267 0.83023 0.88217 0.0
N738 N 0.40115 0.94193 0.93754 0.0
N739 N 0.37772 0.85173 0.90747 0.0
H740 H 0.17874 0.37117 0.88846 0.0
H741 H 0.0693 0.37689 0.03168 0.0
H742 H 0.14353 0.28183 0.95782 0.0
H743 H 0.14513 0.47266 0.99022 0.0
H744 H 0.09361 0.34096 0.00341 0.0
H745 H 0.16394 0.40829 0.92334 0.0
C746 C 0.16829 0.35928 0.91109 0.0
C747 C 0.16246 0.32299 0.91996 0.0
C748 C 0.10533 0.36983 1.00087 0.0
C749 C 0.14453 0.36559 0.95977 0.0
C750 C 0.0915 0.39035 0.01701 0.0
C751 C 0.10526 0.42782 0.01332 0.0
C752 C 0.13251 0.38682 0.98019 0.0
C753 C 0.13395 0.44386 0.99394 0.0
C754 C 0.15972 0.38061 0.93097 0.0
C755 C 0.14788 0.30929 0.94941 0.0
N756 N 0.14623 0.42327 0.97765 0.0
N757 N 0.13915 0.33048 0.96805 0.0
H758 H 0.74517 0.1647 0.85779 0.0
H759 H 0.58042 0.1427 0.96519 0.0
H760 H 0.69356 0.24408 0.8519 0.0
H761 H 0.6375 0.06832 0.96714 0.0
H762 H 0.61778 0.1793 0.92238 0.0
H763 H 0.70354 0.12897 0.89666 0.0
C764 C 0.72514 0.17479 0.86459 0.0
C765 C 0.72338 0.20783 0.8512 0.0
C766 C 0.62182 0.15477 0.93207 0.0
C767 C 0.67453 0.16621 0.89657 0.0
C768 C 0.60017 0.13364 0.95636 0.0
C769 C 0.60553 0.1021 0.97012 0.0
C770 C 0.64899 0.14429 0.92125 0.0
C771 C 0.6322 0.09235 0.95771 0.0
C772 C 0.7011 0.15418 0.88696 0.0
C773 C 0.69631 0.21893 0.86138 0.0
N774 N 0.65262 0.11312 0.93446 0.0
N775 N 0.67318 0.19836 0.88331 0.0
H776 H 0.90918 0.76834 0.83193 0.0
H777 H 0.92596 0.57968 0.89199 0.0
H778 H 0.83314 0.6678 0.79908 0.0
H779 H 1.01111 0.67997 0.91291 0.0
H780 H 0.89556 0.61145 0.85254 0.0
H781 H 0.9498 0.73705 0.85751 0.0
C782 C 0.9011 0.73978 0.82984 0.0
C783 C 0.86737 0.72072 0.8136 0.0
C784 C 0.92128 0.62649 0.86525 0.0
C785 C 0.91385 0.68462 0.84294 0.0
C786 C 0.93888 0.60825 0.88763 0.0
C787 C 0.97103 0.62711 0.90618 0.0
C788 C 0.93557 0.664 0.8616 0.0
C789 C 0.98637 0.6642 0.89933 0.0
C790 C 0.92439 0.72191 0.8444 0.0
C791 C 0.85861 0.6837 0.81158 0.0
N792 N 0.96813 0.68149 0.87816 0.0
N793 N 0.88144 0.6669 0.82633 0.0
H794 H 0.15877 0.38594 0.2458 0.0
H795 H 0.9939 0.41964 0.13802 0.0
H796 H 0.06481 0.30503 0.20163 0.0
H797 H 0.10198 0.49775 0.15288 0.0
H798 H 1.00931 0.38252 0.18297 0.0
H799 H 0.12774 0.4294 0.23255 0.0
C800 C 0.1314 0.37713 0.2338 0.0
C801 C 0.11495 0.34209 0.22364 0.0
C802 C 0.02926 0.40829 0.17698 0.0
C803 C 0.07913 0.39149 0.20919 0.0
C804 C 1.0205 0.42963 0.15134 0.0
C805 C 0.04736 0.46105 0.14063 0.0
C806 C 0.06499 0.41856 0.1919 0.0
C807 C 0.08086 0.47308 0.15954 0.0
C808 C 0.11362 0.40189 0.22656 0.0
C809 C 0.07886 0.33183 0.20948 0.0
N810 N 0.08914 0.45129 0.18374 0.0
N811 N 0.06245 0.35662 0.20206 0.0
H812 H 0.17959 0.7264 0.82325 0.0
H813 H 0.14422 0.56475 0.9569 0.0
H814 H 0.2595 0.67893 0.86348 0.0
H815 H 0.07123 0.62449 0.93455 0.0
H816 H 0.18233 0.60161 0.91664 0.0
H817 H 0.13621 0.68573 0.85878 0.0
C818 C 0.18805 0.70745 0.83951 0.0
C819 C 0.22335 0.70615 0.84042 0.0
C820 C 0.15793 0.60669 0.92036 0.0
C821 C 0.1737 0.65942 0.88082 0.0
C822 C 0.13599 0.58554 0.94335 0.0
C823 C 0.10462 0.59183 0.94951 0.0
C824 C 0.14867 0.63458 0.90319 0.0
C825 C 0.09516 0.61878 0.93069 0.0
C826 C 0.16324 0.68427 0.85976 0.0
C827 C 0.23273 0.68108 0.862 0.0
N828 N 0.11733 0.63946 0.90851 0.0
N829 N 0.20805 0.65872 0.88124 0.0
H830 H 0.39367 0.25679 0.85121 0.0
H831 H 0.39145 0.0798 0.96108 0.0
H832 H 0.29734 0.16323 0.85834 0.0
H833 H 0.47958 0.18064 0.97032 0.0
H834 H 0.35934 0.10809 0.9197 0.0
H835 H 0.42726 0.228 0.8909 0.0
C836 C 0.37945 0.23014 0.86101 0.0
C837 C 0.34231 0.2126 0.85115 0.0
C838 C 0.38578 0.12406 0.9306 0.0
C839 C 0.38128 0.17905 0.89697 0.0
C840 C 0.40444 0.10783 0.95425 0.0
C841 C 0.43866 0.12763 0.96958 0.0
C842 C 0.40124 0.1606 0.92159 0.0
C843 C 0.45347 0.16403 0.95939 0.0
C844 C 0.39879 0.2137 0.88383 0.0
C845 C 0.32575 0.17802 0.86506 0.0
N846 N 0.43479 0.1792 0.9362 0.0
N847 N 0.34528 0.16246 0.88701 0.0
H848 H 0.82746 0.3854 0.81966 0.0
H849 H 0.93044 0.50227 0.9336 0.0
H850 H 0.84219 0.30583 0.89186 0.0
H851 H 0.89484 0.41348 0.00309 0.0
H852 H 0.88971 0.46567 0.89198 0.0
H853 H 0.84424 0.42874 0.86059 0.0
C854 C 0.83434 0.37701 0.84417 0.0
C855 C 0.83389 0.34197 0.85229 0.0
C856 C 0.88949 0.45446 0.91649 0.0
C857 C 0.85433 0.39204 0.89921 0.0
C858 C 0.91276 0.47557 0.94035 0.0
C859 C 0.91662 0.46044 0.9715 0.0
C860 C 0.87015 0.41819 0.92417 0.0
C861 C 0.89321 0.42575 0.97904 0.0
C862 C 0.84421 0.40199 0.86752 0.0
C863 C 0.84285 0.3327 0.88443 0.0
N864 N 0.87168 0.40541 0.95533 0.0
N865 N 0.85294 0.35771 0.90671 0.0
H866 H 0.6964 0.86414 0.8929 0.0
H867 H 0.68749 0.99477 0.02144 0.0
H868 H 0.79092 0.92865 0.95088 0.0
H869 H 0.59247 0.91662 0.97538 0.0
H870 H 0.72605 0.97425 0.99287 0.0
H871 H 0.65818 0.88606 0.92037 0.0
C872 C 0.70913 0.88269 0.91161 0.0
C873 C 0.74696 0.89433 0.91976 0.0
C874 C 0.69676 0.96163 0.98902 0.0
C875 C 0.70329 0.92008 0.95094 0.0
C876 C 0.67468 0.97339 0.00525 0.0
C877 C 0.63661 0.95735 1.00089 0.0
C878 C 0.68072 0.93374 0.96813 0.0
C879 C 0.62165 0.92972 0.9796 0.0
C880 C 0.68727 0.89538 0.92714 0.0
C881 C 0.76195 0.91915 0.94362 0.0
N882 N 0.64375 0.91881 0.96403 0.0
N883 N 0.74006 0.93118 0.95839 0.0
H884 H 0.94885 0.81285 0.10588 0.0
H885 H 0.88632 0.61588 0.04854 0.0
H886 H 0.86669 0.72238 0.1478 0.0
H887 H 0.96871 0.70642 0.00698 0.0
H888 H 0.86748 0.65697 0.07559 0.0
H889 H 0.94632 0.777 0.06111 0.0
C890 C 0.93013 0.78553 0.10548 0.0
C891 C 0.90884 0.77011 0.13093 0.0
C892 C 0.88917 0.66787 0.05999 0.0
C893 C 0.90564 0.72906 0.08009 0.0
C894 C 0.89974 0.64442 0.04444 0.0
C895 C 0.92977 0.65789 0.02644 0.0
C896 C 0.909 0.70475 0.05745 0.0
C897 C 0.9461 0.69502 0.02156 0.0
C898 C 0.92856 0.7651 0.07994 0.0
C899 C 0.88459 0.73479 0.12915 0.0
N900 N 0.93597 0.71719 0.03752 0.0
N901 N 0.88401 0.71527 0.10438 0.0
H902 H 0.3809 0.88702 0.27198 0.0
H903 H 0.50026 0.93735 0.12484 0.0
H904 H 0.3955 0.80929 0.21559 0.0
H905 H 0.44329 0.00012 0.1572 0.0
H906 H 0.48537 0.89657 0.17282 0.0
H907 H 0.42885 0.93385 0.24569 0.0
C908 C 0.3945 0.87976 0.25432 0.0
C909 C 0.38322 0.84464 0.24472 0.0
C910 C 0.47703 0.91982 0.16968 0.0
C911 C 0.43784 0.89781 0.21492 0.0
C912 C 0.48527 0.94283 0.14242 0.0
C913 C 0.47177 0.97112 0.13693 0.0
C914 C 0.45587 0.92591 0.19144 0.0
C915 C 0.45307 0.97778 0.16031 0.0
C916 C 0.42204 0.90641 0.23961 0.0
C917 C 0.40268 0.83636 0.22279 0.0
N918 N 0.44532 0.95504 0.18651 0.0
N919 N 0.42861 0.86305 0.2079 0.0
H920 H 0.76981 0.26081 0.15934 0.0
H921 H 0.63662 0.071 0.11336 0.0
H922 H 0.76754 0.16259 0.21274 0.0
H923 H 0.63013 0.17167 0.07136 0.0
H924 H 0.6988 0.10216 0.13583 0.0
H925 H 0.73576 0.22677 0.1135 0.0
C926 C 0.7628 0.23202 0.16103 0.0
C927 C 0.77019 0.21416 0.18994 0.0
C928 C 0.68405 0.11728 0.12108 0.0
C929 C 0.73045 0.17514 0.13829 0.0
C930 C 0.64852 0.09956 0.10828 0.0
C931 C 0.62783 0.11904 0.09142 0.0
C932 C 0.69873 0.15465 0.11704 0.0
C933 C 0.64474 0.15583 0.08518 0.0
C934 C 0.74342 0.21261 0.13491 0.0
C935 C 0.76156 0.1771 0.19089 0.0
N936 N 0.67904 0.17255 0.09848 0.0
N937 N 0.74104 0.15855 0.16564 0.0
H938 H 0.7548 0.72996 0.88404 0.0
H939 H 0.58224 0.5599 0.92488 0.0
H940 H 0.67839 0.67069 0.809 0.0
H941 H 0.67874 0.60122 0.99024 0.0
H942 H 0.61224 0.60342 0.88255 0.0
H943 H 0.72151 0.68712 0.924 0.0
C944 C 0.73086 0.70802 0.87587 0.0
C945 C 0.71966 0.70376 0.84297 0.0
C946 C 0.6268 0.60283 0.90614 0.0
C947 C 0.6813 0.65429 0.88901 0.0
C948 C 0.60967 0.57825 0.93024 0.0
C949 C 0.62797 0.57738 0.96104 0.0
C950 C 0.66226 0.62686 0.9132 0.0
C951 C 0.66375 0.60097 0.96676 0.0
C952 C 0.71193 0.68343 0.89881 0.0
C953 C 0.68812 0.67491 0.83408 0.0
N954 N 0.67959 0.62494 0.94315 0.0
N955 N 0.67003 0.65112 0.85702 0.0
H956 H 0.42543 0.60835 0.77394 0.0
H957 H 0.49629 0.53746 0.89751 0.0
H958 H 0.52282 0.70186 0.77583 0.0
H959 H 0.56141 0.64758 0.91229 0.0
H960 H 0.49306 0.5511 0.83966 0.0
H961 H 0.45883 0.57495 0.80541 0.0
C962 C 0.45435 0.62173 0.77968 0.0
C963 C 0.47059 0.65887 0.77424 0.0
C964 C 0.50805 0.57239 0.85543 0.0
C965 C 0.50927 0.62057 0.81175 0.0
C966 C 0.50992 0.56456 0.88853 0.0
C967 C 0.52754 0.59183 0.90974 0.0
C968 C 0.52266 0.60806 0.84358 0.0
C969 C 0.54637 0.62603 0.89678 0.0
C970 C 0.47373 0.60238 0.79818 0.0
C971 C 0.50851 0.67382 0.78155 0.0
N972 N 0.54258 0.63342 0.86452 0.0
N973 N 0.52624 0.65513 0.80142 0.0
H974 H 0.29184 0.33122 0.87233 0.0
H975 H 0.47017 0.48871 0.93261 0.0
H976 H 0.37833 0.38294 0.81121 0.0
H977 H 0.41597 0.3951 0.99129 0.0
H978 H 0.42495 0.46511 0.88699 0.0
H979 H 0.32551 0.37117 0.91422 0.0
C980 C 0.31756 0.35145 0.86731 0.0
C981 C 0.33266 0.3531 0.83833 0.0
C982 C 0.42261 0.45026 0.91009 0.0
C983 C 0.37117 0.39899 0.88651 0.0
C984 C 0.44809 0.46374 0.93606 0.0
C985 C 0.4467 0.44364 0.96547 0.0
C986 C 0.3952 0.41696 0.91408 0.0
C987 C 0.41801 0.41121 0.96886 0.0
C988 C 0.33672 0.37419 0.89138 0.0
C989 C 0.36592 0.38036 0.83332 0.0
N990 N 0.39335 0.39878 0.94337 0.0
N991 N 0.38446 0.40202 0.85749 0.0
H992 H 0.72269 0.42805 0.86858 0.0
H993 H 0.59403 0.3627 0.01007 0.0
H994 H 0.65133 0.31891 0.88343 0.0
H995 H 0.67837 0.46641 0.00438 0.0
H996 H 0.61901 0.34408 0.9674 0.0
H997 H 0.71014 0.44124 0.92052 0.0
C998 C 0.70456 0.40676 0.8828 0.0
C999 C 0.68778 0.37236 0.87131 0.0
C1000 C 0.6325 0.37069 0.97589 0.0
C1001 C 0.67306 0.38743 0.93092 0.0
C1002 C 0.61838 0.38128 1.00045 0.0
C1003 C 0.63378 0.41636 0.01056 0.0
C1004 C 0.66195 0.3955 0.961 0.0
C1005 C 0.66544 0.43916 0.99729 0.0
C1006 C 0.6974 0.41433 0.91252 0.0
C1007 C 0.66423 0.34603 0.89082 0.0
N1008 N 0.67802 0.42858 0.97274 0.0
N1009 N 0.6574 0.35417 0.9195 0.0
H1010 H 0.5593 0.31201 0.26411 0.0
H1011 H 0.5035 0.39754 0.1389 0.0
H1012 H 0.64204 0.41193 0.29033 0.0
H1013 H 0.60656 0.48117 0.16074 0.0
H1014 H 0.50379 0.37673 0.19528 0.0
H1015 H 0.52525 0.34425 0.23156 0.0
C1016 C 0.56977 0.3409 0.26417 0.0
C1017 C 0.60486 0.35925 0.27843 0.0
C1018 C 0.5265 0.3995 0.18791 0.0
C1019 C 0.56617 0.39687 0.23981 0.0
C1020 C 0.52624 0.41155 0.15558 0.0
C1021 C 0.55592 0.44011 0.14476 0.0
C1022 C 0.5573 0.4154 0.20931 0.0
C1023 C 0.58377 0.45816 0.1677 0.0
C1024 C 0.55016 0.35962 0.24505 0.0
C1025 C 0.61609 0.39665 0.27812 0.0
N1026 N 0.58417 0.44498 0.1987 0.0
N1027 N 0.59753 0.4143 0.25797 0.0
H1028 H 0.78838 0.72953 0.17062 0.0
H1029 H 0.62619 0.55102 0.11948 0.0
H1030 H 0.73 0.64704 0.23789 0.0
H1031 H 0.66025 0.6481 0.05891 0.0
H1032 H 0.67733 0.57823 0.15937 0.0
H1033 H 0.75503 0.69173 0.12636 0.0
C1034 C 0.76925 0.70315 0.17616 0.0
C1035 C 0.76138 0.69171 0.20794 0.0
C1036 C 0.67392 0.59327 0.13707 0.0
C1037 C 0.72319 0.64852 0.15752 0.0
C1038 C 0.64486 0.57773 0.11426 0.0
C1039 C 0.63858 0.59762 0.08616 0.0
C1040 C 0.69699 0.62873 0.1315 0.0
C1041 C 0.66369 0.63209 0.08057 0.0
C1042 C 0.75009 0.68169 0.15088 0.0
C1043 C 0.73639 0.6572 0.21369 0.0
N1044 N 0.69156 0.64669 0.10318 0.0
N1045 N 0.71785 0.63701 0.1887 0.0
H1046 H 0.43144 0.71755 0.16762 0.0
H1047 H 0.39676 0.57977 0.03285 0.0
H1048 H 0.34273 0.61661 0.16282 0.0
H1049 H 0.49013 0.67687 0.04182 0.0
H1050 H 0.36866 0.60013 0.07195 0.0
H1051 H 0.44652 0.70896 0.11506 0.0
C1052 C 0.4152 0.69351 0.15553 0.0
C1053 C 0.38623 0.66742 0.16988 0.0
C1054 C 0.39498 0.61731 0.06488 0.0
C1055 C 0.40293 0.65769 0.10946 0.0
C1056 C 0.41097 0.60584 0.04228 0.0
C1057 C 0.44641 0.62614 0.03475 0.0
C1058 C 0.41462 0.6492 0.08 0.0
C1059 C 0.46316 0.65989 0.04751 0.0
C1060 C 0.42355 0.68882 0.12536 0.0
C1061 C 0.36538 0.63734 0.15268 0.0
N1062 N 0.44747 0.67001 0.07005 0.0
N1063 N 0.3744 0.63311 0.12353 0.0
H1064 H 0.40398 0.35541 0.24342 0.0
H1065 H 0.39365 0.45939 0.07179 0.0
H1066 H 0.30266 0.3557 0.19088 0.0
H1067 H 0.49429 0.46462 0.12842 0.0
H1068 H 0.3599 0.42316 0.11548 0.0
H1069 H 0.43716 0.39676 0.20226 0.0
C1070 C 0.3886 0.36436 0.22332 0.0
C1071 C 0.3503 0.35182 0.22065 0.0
C1072 C 0.38937 0.43221 0.11841 0.0
C1073 C 0.38854 0.39941 0.17298 0.0
C1074 C 0.40875 0.45298 0.09345 0.0
C1075 C 0.44703 0.46466 0.0962 0.0
C1076 C 0.40828 0.42295 0.14648 0.0
C1077 C 0.4649 0.4555 0.12492 0.0
C1078 C 0.40769 0.38806 0.19975 0.0
C1079 C 0.33211 0.36463 0.19402 0.0
N1080 N 0.44543 0.43511 0.14884 0.0
N1081 N 0.35139 0.38752 0.17111 0.0
H1082 H 0.7894 0.58107 0.63033 0.0
H1083 H 0.99022 0.62097 0.58068 0.0
H1084 H 0.88228 0.67379 0.65691 0.0
H1085 H 0.89694 0.53184 0.54725 0.0
H1086 H 0.95102 0.63915 0.61037 0.0
H1087 H 0.82817 0.56139 0.60088 0.0
C1088 C 0.81788 0.59735 0.62991 0.0
C1089 C 0.83261 0.62906 0.64628 0.0
C1090 C 0.93908 0.61559 0.59657 0.0
C1091 C 0.87716 0.60655 0.61287 0.0
C1092 C 0.9615 0.60512 0.5796 0.0
C1093 C 0.94693 0.5748 0.56133 0.0
C1094 C 0.9017 0.59565 0.59539 0.0
C1095 C 0.90943 0.55542 0.56094 0.0
C1096 C 0.84002 0.58601 0.61322 0.0
C1097 C 0.86981 0.64885 0.64517 0.0
N1098 N 0.88811 0.56619 0.5777 0.0
N1099 N 0.89073 0.63727 0.62879 0.0
H1100 H 0.39954 0.80167 0.71283 0.0
H1101 H 0.4541 0.98555 0.60601 0.0
H1102 H 0.35003 0.88211 0.71354 0.0
H1103 H 0.51478 0.91383 0.61176 0.0
H1104 H 0.41763 0.94837 0.64734 0.0
H1105 H 0.4432 0.84208 0.67732 0.0
C1106 C 0.39782 0.82779 0.70558 0.0
C1107 C 0.37083 0.83837 0.71604 0.0
C1108 C 0.43911 0.94077 0.63991 0.0
C1109 C 0.4208 0.88471 0.67556 0.0
C1110 C 0.45999 0.96206 0.61628 0.0
C1111 C 0.48745 0.95269 0.60539 0.0
C1112 C 0.44523 0.90941 0.65261 0.0
C1113 C 0.49405 0.92211 0.61968 0.0
C1114 C 0.42287 0.85087 0.68541 0.0
C1115 C 0.37014 0.87262 0.70602 0.0
N1116 N 0.47274 0.90123 0.64235 0.0
N1117 N 0.39458 0.89439 0.68629 0.0
H1118 H 0.18127 0.29665 0.73698 0.0
H1119 H 0.1968 0.44671 0.59397 0.0
H1120 H 0.27855 0.34496 0.68841 0.0
H1121 H 0.09521 0.35994 0.6035 0.0
H1122 H 0.2265 0.41705 0.63627 0.0
H1123 H 0.149 0.32612 0.69595 0.0
C1124 C 0.19598 0.3136 0.71787 0.0
C1125 C 0.23287 0.31818 0.71634 0.0
C1126 C 0.19766 0.40457 0.62931 0.0
C1127 C 0.19599 0.35265 0.66943 0.0
C1128 C 0.18044 0.42166 0.60522 0.0
C1129 C 0.14312 0.40607 0.59487 0.0
C1130 C 0.17758 0.37175 0.64414 0.0
C1131 C 0.12391 0.37317 0.61049 0.0
C1132 C 0.17741 0.33027 0.69435 0.0
C1133 C 0.2502 0.3404 0.69071 0.0
N1134 N 0.14122 0.35731 0.63438 0.0
N1135 N 0.23184 0.35697 0.66865 0.0
H1136 H 0.72724 0.23364 0.67938 0.0
H1137 H 0.66214 0.04726 0.62157 0.0
H1138 H 0.78037 0.16342 0.72962 0.0
H1139 H 0.69072 0.1382 0.55328 0.0
H1140 H 0.7047 0.0843 0.66281 0.0
H1141 H 0.70854 0.19486 0.6341 0.0
C1142 C 0.73472 0.20992 0.68085 0.0
C1143 C 0.75495 0.20133 0.70811 0.0
C1144 C 0.70253 0.09562 0.63843 0.0
C1145 C 0.73394 0.15724 0.65685 0.0
C1146 C 0.67848 0.07451 0.61491 0.0
C1147 C 0.67216 0.09024 0.58446 0.0
C1148 C 0.71949 0.13229 0.63111 0.0
C1149 C 0.69407 0.12553 0.57689 0.0
C1150 C 0.72459 0.18817 0.65497 0.0
C1151 C 0.76457 0.17064 0.70885 0.0
N1152 N 0.71595 0.14582 0.60042 0.0
N1153 N 0.75335 0.14912 0.68369 0.0
H1154 H 0.81006 0.28421 0.38272 0.0
H1155 H 0.95288 0.46686 0.44417 0.0
H1156 H 0.85074 0.38168 0.32411 0.0
H1157 H 0.95475 0.36262 0.48021 0.0
H1158 H 0.89444 0.43834 0.41374 0.0
H1159 H 0.84263 0.31645 0.43067 0.0
C1160 C 0.82486 0.31269 0.38027 0.0
C1161 C 0.82841 0.3306 0.34988 0.0
C1162 C 0.90726 0.42186 0.42904 0.0
C1163 C 0.86479 0.36715 0.40375 0.0
C1164 C 0.94061 0.43802 0.4464 0.0
C1165 C 0.9592 0.41693 0.46392 0.0
C1166 C 0.89252 0.38451 0.42934 0.0
C1167 C 0.94178 0.37976 0.46618 0.0
C1168 C 0.84332 0.33093 0.40742 0.0
C1169 C 0.84788 0.36721 0.34737 0.0
N1170 N 0.90956 0.36459 0.44852 0.0
N1171 N 0.86574 0.38436 0.37406 0.0
H1172 H 0.62828 0.80724 0.38139 0.0
H1173 H 0.65244 0.85759 0.5544 0.0
H1174 H 0.6864 0.75316 0.44927 0.0
H1175 H 0.68369 0.94034 0.47897 0.0
H1176 H 0.66056 0.8152 0.52016 0.0
H1177 H 0.6394 0.85231 0.42024 0.0
C1178 C 0.6432 0.80467 0.40444 0.0
C1179 C 0.6568 0.77654 0.41184 0.0
C1180 C 0.6669 0.84295 0.51166 0.0
C1181 C 0.669 0.82766 0.4563 0.0
C1182 C 0.6626 0.86708 0.53116 0.0
C1183 C 0.66752 0.90221 0.51923 0.0
C1184 C 0.67475 0.8541 0.47993 0.0
C1185 C 0.67996 0.91341 0.4889 0.0
C1186 C 0.6497 0.83051 0.42641 0.0
C1187 C 0.67501 0.77409 0.44257 0.0
N1188 N 0.68204 0.88901 0.4697 0.0
N1189 N 0.68044 0.79933 0.46387 0.0
H1190 H 0.17738 0.72202 0.32479 0.0
H1191 H 0.14118 0.52748 0.40678 0.0
H1192 H 0.24515 0.65751 0.32601 0.0
H1193 H 0.09283 0.60006 0.43483 0.0
H1194 H 0.16116 0.56703 0.35975 0.0
H1195 H 0.131 0.67072 0.34969 0.0
C1196 C 0.18217 0.69693 0.33002 0.0
C1197 C 0.21526 0.6939 0.3245 0.0
C1198 C 0.14568 0.5741 0.37587 0.0
C1199 C 0.16271 0.63575 0.35148 0.0
C1200 C 0.13448 0.55169 0.40267 0.0
C1201 C 0.11671 0.56154 0.42494 0.0
C1202 C 0.14009 0.60702 0.3721 0.0
C1203 C 0.10737 0.59231 0.41832 0.0
C1204 C 0.1558 0.66782 0.34393 0.0
C1205 C 0.22034 0.66104 0.33096 0.0
N1206 N 0.12019 0.61476 0.39275 0.0
N1207 N 0.19438 0.63325 0.34432 0.0
H1208 H 0.54871 0.26028 0.35307 0.0
H1209 H 0.48652 0.06042 0.40407 0.0
H1210 H 0.44991 0.18451 0.31032 0.0
H1211 H 0.59784 0.13087 0.42181 0.0
H1212 H 0.47743 0.10121 0.35943 0.0
H1213 H 0.57278 0.21177 0.36782 0.0
C1214 C 0.53259 0.23356 0.34595 0.0
C1215 C 0.4971 0.2262 0.33105 0.0
C1216 C 0.50419 0.10725 0.37247 0.0
C1217 C 0.52372 0.17036 0.34874 0.0
C1218 C 0.50942 0.08381 0.39797 0.0
C1219 C 0.54258 0.09286 0.41753 0.0
C1220 C 0.53214 0.14008 0.36693 0.0
C1221 C 0.57141 0.12329 0.40805 0.0
C1222 C 0.54624 0.20579 0.35437 0.0
C1223 C 0.47735 0.19122 0.32205 0.0
N1224 N 0.56523 0.14634 0.38405 0.0
N1225 N 0.49048 0.16438 0.33188 0.0
H1226 H 0.68194 0.77596 0.71034 0.0
H1227 H 0.6708 0.96607 0.66033 0.0
H1228 H 0.74261 0.86528 0.76806 0.0
H1229 H 0.58039 0.86946 0.639 0.0
H1230 H 0.69791 0.93136 0.7002 0.0
H1231 H 0.64533 0.81054 0.68316 0.0
C1232 C 0.68734 0.80276 0.71751 0.0
C1233 C 0.71543 0.81772 0.74151 0.0
C1234 C 0.67175 0.91796 0.68727 0.0
C1235 C 0.67395 0.85786 0.70996 0.0
C1236 C 0.65611 0.9378 0.66458 0.0
C1237 C 0.62329 0.92076 0.64592 0.0
C1238 C 0.6549 0.88068 0.69089 0.0
C1239 C 0.60571 0.88393 0.65259 0.0
C1240 C 0.66631 0.82246 0.70207 0.0
C1241 C 0.72111 0.85262 0.74981 0.0
N1242 N 0.6221 0.86507 0.67391 0.0
N1243 N 0.70101 0.87174 0.73368 0.0
H1244 H 0.79912 0.18422 0.36235 0.0
H1245 H 0.60765 0.06564 0.42871 0.0
H1246 H 0.69527 0.17367 0.30899 0.0
H1247 H 0.71262 0.07456 0.47884 0.0
H1248 H 0.63848 0.10399 0.38406 0.0
H1249 H 0.7674 0.1424 0.40436 0.0
C1250 C 0.76967 0.17289 0.35926 0.0
C1251 C 0.74997 0.18259 0.33194 0.0
C1252 C 0.65473 0.09749 0.40484 0.0
C1253 C 0.71319 0.13474 0.38042 0.0
C1254 C 0.63709 0.07577 0.43046 0.0
C1255 C 0.65742 0.06706 0.45785 0.0
C1256 C 0.69304 0.11064 0.40659 0.0
C1257 C 0.69562 0.08043 0.45834 0.0
C1258 C 0.75149 0.14902 0.38338 0.0
C1259 C 0.71172 0.16699 0.32951 0.0
N1260 N 0.71205 0.10151 0.4333 0.0
N1261 N 0.69464 0.14407 0.35344 0.0
H1262 H 0.83593 0.7021 0.37807 0.0
H1263 H 0.94985 0.56977 0.38522 0.0
H1264 H 0.88442 0.69905 0.29269 0.0
H1265 H 0.97423 0.6445 0.45893 0.0
H1266 H 0.91465 0.60377 0.3522 0.0
H1267 H 0.87345 0.66945 0.40875 0.0
C1268 C 0.8542 0.69454 0.36544 0.0
C1269 C 0.85635 0.70427 0.33211 0.0
C1270 C 0.92779 0.61291 0.37555 0.0
C1271 C 0.89982 0.66436 0.36813 0.0
C1272 C 0.94818 0.59328 0.39468 0.0
C1273 C 0.96639 0.60393 0.4254 0.0
C1274 C 0.92345 0.64315 0.3872 0.0
C1275 C 0.9618 0.63489 0.43555 0.0
C1276 C 0.87594 0.67569 0.38328 0.0
C1277 C 0.88129 0.69294 0.31808 0.0
N1278 N 0.94084 0.65253 0.41716 0.0
N1279 N 0.90117 0.67355 0.33571 0.0
H1280 H 0.32948 0.86766 0.35054 0.0
H1281 H 0.46171 0.87106 0.5112 0.0
H1282 H 0.36459 0.77984 0.38819 0.0
H1283 H 0.47341 0.96656 0.44957 0.0
H1284 H 0.41122 0.83761 0.47428 0.0
H1285 H 0.36836 0.90378 0.3942 0.0
C1286 C 0.34468 0.85572 0.3684 0.0
C1287 C 0.34376 0.82068 0.36585 0.0
C1288 C 0.42452 0.86597 0.46903 0.0
C1289 C 0.38794 0.86164 0.41565 0.0
C1290 C 0.45336 0.88524 0.49012 0.0
C1291 C 0.47248 0.92165 0.48317 0.0
C1292 C 0.41425 0.8831 0.44075 0.0
C1293 C 0.45971 0.9385 0.45575 0.0
C1294 C 0.36706 0.87644 0.39306 0.0
C1295 C 0.36456 0.80674 0.38925 0.0
N1296 N 0.43156 0.91895 0.43525 0.0
N1297 N 0.38571 0.82721 0.4132 0.0
H1298 H 0.19748 0.30354 0.32193 0.0
H1299 H 0.2228 0.44701 0.45765 0.0
H1300 H 0.30303 0.35999 0.36896 0.0
H1301 H 0.11909 0.37434 0.4206 0.0
H1302 H 0.25308 0.41995 0.4244 0.0
H1303 H 0.16998 0.33234 0.3553 0.0
C1304 C 0.21529 0.32204 0.33911 0.0
C1305 C 0.25335 0.3286 0.34179 0.0
C1306 C 0.22366 0.40987 0.4234 0.0
C1307 C 0.22064 0.36323 0.38155 0.0
C1308 C 0.20606 0.42562 0.44259 0.0
C1309 C 0.16755 0.41362 0.44273 0.0
C1310 C 0.20322 0.3816 0.40321 0.0
C1311 C 0.14852 0.38523 0.4221 0.0
C1312 C 0.19921 0.33871 0.35853 0.0
C1313 C 0.27381 0.35339 0.36528 0.0
N1314 N 0.16612 0.3708 0.40367 0.0
N1315 N 0.25751 0.36948 0.38371 0.0
H1316 H 0.39185 0.16206 0.66653 0.0
H1317 H 0.51393 0.16797 0.52902 0.0
H1318 H 0.43589 0.25703 0.60513 0.0
H1319 H 0.43712 0.06929 0.5649 0.0
H1320 H 0.48654 0.2013 0.55707 0.0
H1321 H 0.40904 0.1278 0.63058 0.0
C1322 C 0.40467 0.17578 0.64532 0.0
C1323 C 0.41233 0.21277 0.63906 0.0
C1324 C 0.47529 0.17238 0.55844 0.0
C1325 C 0.433 0.1734 0.59807 0.0
C1326 C 0.49089 0.15332 0.54243 0.0
C1327 C 0.47782 0.11579 0.54469 0.0
C1328 C 0.44687 0.15383 0.5775 0.0
C1329 C 0.4479 0.0982 0.56237 0.0
C1330 C 0.41462 0.15608 0.62484 0.0
C1331 C 0.42995 0.22884 0.61147 0.0
N1332 N 0.43381 0.11737 0.57855 0.0
N1333 N 0.43993 0.20916 0.59221 0.0
H1334 H 0.91393 0.33335 0.74093 0.0
H1335 H 0.9248 0.40726 0.55587 0.0
H1336 H 0.82099 0.33058 0.67372 0.0
H1337 H 1.02036 0.43677 0.62398 0.0
H1338 H 0.88868 0.3729 0.59841 0.0
H1339 H 0.95429 0.36551 0.69921 0.0
C1340 C 0.90184 0.33943 0.71748 0.0
C1341 C 0.86358 0.32906 0.7112 0.0
C1342 C 0.91753 0.38662 0.60431 0.0
C1343 C 0.91025 0.36591 0.66278 0.0
C1344 C 0.9385 0.40633 0.57982 0.0
C1345 C 0.97607 0.42553 0.58595 0.0
C1346 C 0.93365 0.38537 0.63596 0.0
C1347 C 0.99172 0.42247 0.61776 0.0
C1348 C 0.92509 0.35792 0.69361 0.0
C1349 C 0.85004 0.33793 0.6801 0.0
N1350 N 0.97047 0.40303 0.64152 0.0
N1351 N 0.87314 0.3555 0.65733 0.0
H1352 H 0.25271 0.65429 0.726 0.0
H1353 H 0.16213 0.63909 0.54171 0.0
H1354 H 0.23953 0.74288 0.66524 0.0
H1355 H 0.15017 0.54564 0.6056 0.0
H1356 H 0.19873 0.67665 0.58484 0.0
H1357 H 0.22265 0.61441 0.68184 0.0
C1358 C 0.24374 0.66558 0.70342 0.0
C1359 C 0.24896 0.7025 0.69984 0.0
C1360 C 0.18873 0.64793 0.58951 0.0
C1361 C 0.21435 0.65625 0.64833 0.0
C1362 C 0.16806 0.62619 0.56456 0.0
C1363 C 0.15301 0.58864 0.56935 0.0
C1364 C 0.19501 0.63264 0.62031 0.0
C1365 C 0.16154 0.57416 0.60013 0.0
C1366 C 0.22642 0.64257 0.6781 0.0
C1367 C 0.23634 0.7149 0.66965 0.0
N1368 N 0.18159 0.59603 0.62428 0.0
N1369 N 0.21997 0.69212 0.6454 0.0
loop_
_geom_bond_atom_site_label_1
_geom_bond_atom_site_label_2
_geom_bond_distance
_geom_bond_site_symmetry_2
_ccdc_geom_bond_type
Tb0 C9 2.764 . S
Tb0 O10 2.325 . S
Tb0 O13 2.303 . S
Tb0 O17 2.322 . S
Tb0 O18 2.349 . S
Tb0 O21 2.415 . S
Tb0 O22 2.399 . S
Tb1 O11 2.322 . S
Tb1 O12 2.349 . S
Tb1 O14 2.415 . S
Tb1 O15 2.399 . S
Tb1 O16 2.325 . S
Tb1 O19 2.303 . S
Tb1 C30 2.764 . S
C2 O18 1.261 . S
C2 O19 1.257 . S
C3 C6 1.358 . S
C3 C7 1.332 . S
C3 C9 1.504 . S
C4 C5 1.373 . S
C4 C8 1.308 . S
C5 C4 1.373 . S
C5 C6 1.429 . S
C5 H32 0.932 . S
C6 C3 1.358 . S
C6 C5 1.429 . S
C6 H33 0.930 . S
C7 C3 1.332 . S
C7 C8 1.394 . S
C7 H34 0.932 . S
C8 C4 1.308 . S
C8 C7 1.394 . S
C8 H35 0.929 . S
C9 Tb0 2.764 . S
C9 C3 1.504 . S
C9 O21 1.239 . S
C9 O22 1.263 . S
O10 Tb0 2.325 . S
O10 C20 1.236 . S
O11 Tb1 2.322 . S
O11 C20 1.257 . S
O12 Tb1 2.349 . S
O12 C23 1.261 . S
O13 Tb0 2.303 . S
O13 C23 1.257 . S
O14 Tb1 2.415 . S
O14 C30 1.239 . S
O15 Tb1 2.399 . S
O15 C30 1.263 . S
O16 Tb1 2.325 . S
O16 C31 1.236 . S
O17 Tb0 2.322 . S
O17 C31 1.257 . S
O18 Tb0 2.349 . S
O18 C2 1.261 . S
O19 Tb1 2.303 . S
O19 C2 1.257 . S
C20 O10 1.236 . S
C20 O11 1.257 . S
O21 Tb0 2.415 . S
O21 C9 1.239 . S
O22 Tb0 2.399 . S
O22 C9 1.263 . S
C23 O12 1.261 . S
C23 O13 1.257 . S
C24 C27 1.358 . S
C24 C28 1.332 . S
C24 C30 1.504 . S
C25 C26 1.373 . S
C25 C29 1.308 . S
C26 C25 1.373 . S
C26 C27 1.429 . S
C26 H36 0.932 . S
C27 C24 1.358 . S
C27 C26 1.429 . S
C27 H37 0.930 . S
C28 C24 1.332 . S
C28 C29 1.394 . S
C28 H38 0.932 . S
C29 C25 1.308 . S
C29 C28 1.394 . S
C29 H39 0.929 . S
C30 Tb1 2.764 . S
C30 O14 1.239 . S
C30 O15 1.263 . S
C30 C24 1.504 . S
C31 O16 1.236 . S
C31 O17 1.257 . S
H32 C5 0.932 . S
H33 C6 0.930 . S
H34 C7 0.932 . S
H35 C8 0.929 . S
H36 C26 0.932 . S
H37 C27 0.930 . S
H38 C28 0.932 . S
H39 C29 0.929 . S
Tb40 C49 2.764 . S
Tb40 O50 2.325 . S
Tb40 O53 2.303 . S
Tb40 O57 2.322 . S
Tb40 O58 2.349 . S
Tb40 O61 2.415 . S
Tb40 O62 2.399 . S
Tb41 O51 2.322 . S
Tb41 O52 2.349 . S
Tb41 O54 2.415 . S
Tb41 O55 2.399 . S
Tb41 O56 2.325 . S
Tb41 O59 2.303 . S
Tb41 C70 2.764 . S
C42 O58 1.261 . S
C42 O59 1.257 . S
C43 C46 1.358 . S
C43 C47 1.332 . S
C43 C49 1.504 . S
C44 C45 1.373 . S
C44 C48 1.308 . S
C45 C44 1.373 . S
C45 C46 1.429 . S
C45 H72 0.932 . S
C46 C43 1.358 . S
C46 C45 1.429 . S
C46 H73 0.930 . S
C47 C43 1.332 . S
C47 C48 1.394 . S
C47 H74 0.932 . S
C48 C44 1.308 . S
C48 C47 1.394 . S
C48 H75 0.929 . S
C49 Tb40 2.764 . S
C49 C43 1.504 . S
C49 O61 1.239 . S
C49 O62 1.263 . S
O50 Tb40 2.325 . S
O50 C60 1.236 . S
O51 Tb41 2.322 . S
O51 C60 1.257 . S
O52 Tb41 2.349 . S
O52 C63 1.261 . S
O53 Tb40 2.303 . S
O53 C63 1.257 . S
O54 Tb41 2.415 . S
O54 C70 1.239 . S
O55 Tb41 2.399 . S
O55 C70 1.263 . S
O56 Tb41 2.325 . S
O56 C71 1.236 . S
O57 Tb40 2.322 . S
O57 C71 1.257 . S
O58 Tb40 2.349 . S
O58 C42 1.261 . S
O59 Tb41 2.303 . S
O59 C42 1.257 . S
C60 O50 1.236 . S
C60 O51 1.257 . S
O61 Tb40 2.415 . S
O61 C49 1.239 . S
O62 Tb40 2.399 . S
O62 C49 1.263 . S
C63 O52 1.261 . S
C63 O53 1.257 . S
C64 C67 1.358 . S
C64 C68 1.332 . S
C64 C70 1.504 . S
C65 C66 1.373 . S
C65 C69 1.308 . S
C66 C65 1.373 . S
C66 C67 1.429 . S
C66 H76 0.932 . S
C67 C64 1.358 . S
C67 C66 1.429 . S
C67 H77 0.930 . S
C68 C64 1.332 . S
C68 C69 1.394 . S
C68 H78 0.932 . S
C69 C65 1.308 . S
C69 C68 1.394 . S
C69 H79 0.929 . S
C70 Tb41 2.764 . S
C70 O54 1.239 . S
C70 O55 1.263 . S
C70 C64 1.504 . S
C71 O56 1.236 . S
C71 O57 1.257 . S
H72 C45 0.932 . S
H73 C46 0.930 . S
H74 C47 0.932 . S
H75 C48 0.929 . S
H76 C66 0.932 . S
H77 C67 0.930 . S
H78 C68 0.932 . S
H79 C69 0.929 . S
Tb80 C89 2.764 . S
Tb80 O90 2.325 . S
Tb80 O93 2.303 . S
Tb80 O97 2.322 . S
Tb80 O98 2.349 . S
Tb80 O101 2.415 . S
Tb80 O102 2.399 . S
Tb81 O91 2.322 . S
Tb81 O92 2.349 . S
Tb81 O94 2.415 . S
Tb81 O95 2.399 . S
Tb81 O96 2.325 . S
Tb81 O99 2.303 . S
Tb81 C110 2.764 . S
C82 O98 1.261 . S
C82 O99 1.257 . S
C83 C86 1.358 . S
C83 C87 1.332 . S
C83 C89 1.504 . S
C84 C85 1.373 . S
C84 C88 1.308 . S
C85 C84 1.373 . S
C85 C86 1.429 . S
C85 H112 0.932 . S
C86 C83 1.358 . S
C86 C85 1.429 . S
C86 H113 0.930 . S
C87 C83 1.332 . S
C87 C88 1.394 . S
C87 H114 0.932 . S
C88 C84 1.308 . S
C88 C87 1.394 . S
C88 H115 0.929 . S
C89 Tb80 2.764 . S
C89 C83 1.504 . S
C89 O101 1.239 . S
C89 O102 1.263 . S
O90 Tb80 2.325 . S
O90 C100 1.236 . S
O91 Tb81 2.322 . S
O91 C100 1.257 . S
O92 Tb81 2.349 . S
O92 C103 1.261 . S
O93 Tb80 2.303 . S
O93 C103 1.257 . S
O94 Tb81 2.415 . S
O94 C110 1.239 . S
O95 Tb81 2.399 . S
O95 C110 1.263 . S
O96 Tb81 2.325 . S
O96 C111 1.236 . S
O97 Tb80 2.322 . S
O97 C111 1.257 . S
O98 Tb80 2.349 . S
O98 C82 1.261 . S
O99 Tb81 2.303 . S
O99 C82 1.257 . S
C100 O90 1.236 . S
C100 O91 1.257 . S
O101 Tb80 2.415 . S
O101 C89 1.239 . S
O102 Tb80 2.399 . S
O102 C89 1.263 . S
C103 O92 1.261 . S
C103 O93 1.257 . S
C104 C107 1.358 . S
C104 C108 1.332 . S
C104 C110 1.504 . S
C105 C106 1.373 . S
C105 C109 1.308 . S
C106 C105 1.373 . S
C106 C107 1.429 . S
C106 H116 0.932 . S
C107 C104 1.358 . S
C107 C106 1.429 . S
C107 H117 0.930 . S
C108 C104 1.332 . S
C108 C109 1.394 . S
C108 H118 0.932 . S
C109 C105 1.308 . S
C109 C108 1.394 . S
C109 H119 0.929 . S
C110 Tb81 2.764 . S
C110 O94 1.239 . S
C110 O95 1.263 . S
C110 C104 1.504 . S
C111 O96 1.236 . S
C111 O97 1.257 . S
H112 C85 0.932 . S
H113 C86 0.930 . S
H114 C87 0.932 . S
H115 C88 0.929 . S
H116 C106 0.932 . S
H117 C107 0.930 . S
H118 C108 0.932 . S
H119 C109 0.929 . S
Tb120 C129 2.764 . S
Tb120 O130 2.325 . S
Tb120 O133 2.303 . S
Tb120 O137 2.322 . S
Tb120 O138 2.349 . S
Tb120 O141 2.415 . S
Tb120 O142 2.399 . S
Tb121 O131 2.322 . S
Tb121 O132 2.349 . S
Tb121 O134 2.415 . S
Tb121 O135 2.399 . S
Tb121 O136 2.325 . S
Tb121 O139 2.303 . S
Tb121 C150 2.764 . S
C122 O138 1.261 . S
C122 O139 1.257 . S
C123 C126 1.358 . S
C123 C127 1.332 . S
C123 C129 1.504 . S
C124 C125 1.373 . S
C124 C128 1.308 . S
C125 C124 1.373 . S
C125 C126 1.429 . S
C125 H152 0.932 . S
C126 C123 1.358 . S
C126 C125 1.429 . S
C126 H153 0.930 . S
C127 C123 1.332 . S
C127 C128 1.394 . S
C127 H154 0.932 . S
C128 C124 1.308 . S
C128 C127 1.394 . S
C128 H155 0.929 . S
C129 Tb120 2.764 . S
C129 C123 1.504 . S
C129 O141 1.239 . S
C129 O142 1.263 . S
O130 Tb120 2.325 . S
O130 C140 1.236 . S
O131 Tb121 2.322 . S
O131 C140 1.257 . S
O132 Tb121 2.349 . S
O132 C143 1.261 . S
O133 Tb120 2.303 . S
O133 C143 1.257 . S
O134 Tb121 2.415 . S
O134 C150 1.239 . S
O135 Tb121 2.399 . S
O135 C150 1.263 . S
O136 Tb121 2.325 . S
O136 C151 1.236 . S
O137 Tb120 2.322 . S
O137 C151 1.257 . S
O138 Tb120 2.349 . S
O138 C122 1.261 . S
O139 Tb121 2.303 . S
O139 C122 1.257 . S
C140 O130 1.236 . S
C140 O131 1.257 . S
O141 Tb120 2.415 . S
O141 C129 1.239 . S
O142 Tb120 2.399 . S
O142 C129 1.263 . S
C143 O132 1.261 . S
C143 O133 1.257 . S
C144 C147 1.358 . S
C144 C148 1.332 . S
C144 C150 1.504 . S
C145 C146 1.373 . S
C145 C149 1.308 . S
C146 C145 1.373 . S
C146 C147 1.429 . S
C146 H156 0.932 . S
C147 C144 1.358 . S
C147 C146 1.429 . S
C147 H157 0.930 . S
C148 C144 1.332 . S
C148 C149 1.394 . S
C148 H158 0.932 . S
C149 C145 1.308 . S
C149 C148 1.394 . S
C149 H159 0.929 . S
C150 Tb121 2.764 . S
C150 O134 1.239 . S
C150 O135 1.263 . S
C150 C144 1.504 . S
C151 O136 1.236 . S
C151 O137 1.257 . S
H152 C125 0.932 . S
H153 C126 0.930 . S
H154 C127 0.932 . S
H155 C128 0.929 . S
H156 C146 0.932 . S
H157 C147 0.930 . S
H158 C148 0.932 . S
H159 C149 0.929 . S
Tb160 C169 2.764 . S
Tb160 O170 2.325 . S
Tb160 O173 2.303 . S
Tb160 O177 2.322 . S
Tb160 O178 2.349 . S
Tb160 O181 2.415 . S
Tb160 O182 2.399 . S
Tb161 O171 2.322 . S
Tb161 O172 2.349 . S
Tb161 O174 2.415 . S
Tb161 O175 2.399 . S
Tb161 O176 2.325 . S
Tb161 O179 2.303 . S
Tb161 C190 2.764 . S
C162 O178 1.261 . S
C162 O179 1.257 . S
C163 C166 1.358 . S
C163 C167 1.332 . S
C163 C169 1.504 . S
C164 C165 1.373 . S
C164 C168 1.308 . S
C165 C164 1.373 . S
C165 C166 1.429 . S
C165 H192 0.932 . S
C166 C163 1.358 . S
C166 C165 1.429 . S
C166 H193 0.930 . S
C167 C163 1.332 . S
C167 C168 1.394 . S
C167 H194 0.932 . S
C168 C164 1.308 . S
C168 C167 1.394 . S
C168 H195 0.929 . S
C169 Tb160 2.764 . S
C169 C163 1.504 . S
C169 O181 1.239 . S
C169 O182 1.263 . S
O170 Tb160 2.325 . S
O170 C180 1.236 . S
O171 Tb161 2.322 . S
O171 C180 1.257 . S
O172 Tb161 2.349 . S
O172 C183 1.261 . S
O173 Tb160 2.303 . S
O173 C183 1.257 . S
O174 Tb161 2.415 . S
O174 C190 1.239 . S
O175 Tb161 2.399 . S
O175 C190 1.263 . S
O176 Tb161 2.325 . S
O176 C191 1.236 . S
O177 Tb160 2.322 . S
O177 C191 1.257 . S
O178 Tb160 2.349 . S
O178 C162 1.261 . S
O179 Tb161 2.303 . S
O179 C162 1.257 . S
C180 O170 1.236 . S
C180 O171 1.257 . S
O181 Tb160 2.415 . S
O181 C169 1.239 . S
O182 Tb160 2.399 . S
O182 C169 1.263 . S
C183 O172 1.261 . S
C183 O173 1.257 . S
C184 C187 1.358 . S
C184 C188 1.332 . S
C184 C190 1.504 . S
C185 C186 1.373 . S
C185 C189 1.308 . S
C186 C185 1.373 . S
C186 C187 1.429 . S
C186 H196 0.932 . S
C187 C184 1.358 . S
C187 C186 1.429 . S
C187 H197 0.930 . S
C188 C184 1.332 . S
C188 C189 1.394 . S
C188 H198 0.932 . S
C189 C185 1.308 . S
C189 C188 1.394 . S
C189 H199 0.929 . S
C190 Tb161 2.764 . S
C190 O174 1.239 . S
C190 O175 1.263 . S
C190 C184 1.504 . S
C191 O176 1.236 . S
C191 O177 1.257 . S
H192 C165 0.932 . S
H193 C166 0.930 . S
H194 C167 0.932 . S
H195 C168 0.929 . S
H196 C186 0.932 . S
H197 C187 0.930 . S
H198 C188 0.932 . S
H199 C189 0.929 . S
Tb200 C209 2.764 . S
Tb200 O210 2.325 . S
Tb200 O213 2.303 . S
Tb200 O217 2.322 . S
Tb200 O218 2.349 . S
Tb200 O221 2.415 . S
Tb200 O222 2.399 . S
Tb201 O211 2.322 . S
Tb201 O212 2.349 . S
Tb201 O214 2.415 . S
Tb201 O215 2.399 . S
Tb201 O216 2.325 . S
Tb201 O219 2.303 . S
Tb201 C230 2.764 . S
C202 O218 1.261 . S
C202 O219 1.257 . S
C203 C206 1.358 . S
C203 C207 1.332 . S
C203 C209 1.504 . S
C204 C205 1.373 . S
C204 C208 1.308 . S
C205 C204 1.373 . S
C205 C206 1.429 . S
C205 H232 0.932 . S
C206 C203 1.358 . S
C206 C205 1.429 . S
C206 H233 0.930 . S
C207 C203 1.332 . S
C207 C208 1.394 . S
C207 H234 0.932 . S
C208 C204 1.308 . S
C208 C207 1.394 . S
C208 H235 0.929 . S
C209 Tb200 2.764 . S
C209 C203 1.504 . S
C209 O221 1.239 . S
C209 O222 1.263 . S
O210 Tb200 2.325 . S
O210 C220 1.236 . S
O211 Tb201 2.322 . S
O211 C220 1.257 . S
O212 Tb201 2.349 . S
O212 C223 1.261 . S
O213 Tb200 2.303 . S
O213 C223 1.257 . S
O214 Tb201 2.415 . S
O214 C230 1.239 . S
O215 Tb201 2.399 . S
O215 C230 1.263 . S
O216 Tb201 2.325 . S
O216 C231 1.236 . S
O217 Tb200 2.322 . S
O217 C231 1.257 . S
O218 Tb200 2.349 . S
O218 C202 1.261 . S
O219 Tb201 2.303 . S
O219 C202 1.257 . S
C220 O210 1.236 . S
C220 O211 1.257 . S
O221 Tb200 2.415 . S
O221 C209 1.239 . S
O222 Tb200 2.399 . S
O222 C209 1.263 . S
C223 O212 1.261 . S
C223 O213 1.257 . S
C224 C227 1.358 . S
C224 C228 1.332 . S
C224 C230 1.504 . S
C225 C226 1.373 . S
C225 C229 1.308 . S
C226 C225 1.373 . S
C226 C227 1.429 . S
C226 H236 0.932 . S
C227 C224 1.358 . S
C227 C226 1.429 . S
C227 H237 0.930 . S
C228 C224 1.332 . S
C228 C229 1.394 . S
C228 H238 0.932 . S
C229 C225 1.308 . S
C229 C228 1.394 . S
C229 H239 0.929 . S
C230 Tb201 2.764 . S
C230 O214 1.239 . S
C230 O215 1.263 . S
C230 C224 1.504 . S
C231 O216 1.236 . S
C231 O217 1.257 . S
H232 C205 0.932 . S
H233 C206 0.930 . S
H234 C207 0.932 . S
H235 C208 0.929 . S
H236 C226 0.932 . S
H237 C227 0.930 . S
H238 C228 0.932 . S
H239 C229 0.929 . S
Tb240 C249 2.764 . S
Tb240 O250 2.325 . S
Tb240 O253 2.303 . S
Tb240 O257 2.322 . S
Tb240 O258 2.349 . S
Tb240 O261 2.415 . S
Tb240 O262 2.399 . S
Tb241 O251 2.322 . S
Tb241 O252 2.349 . S
Tb241 O254 2.415 . S
Tb241 O255 2.399 . S
Tb241 O256 2.325 . S
Tb241 O259 2.303 . S
Tb241 C270 2.764 . S
C242 O258 1.261 . S
C242 O259 1.257 . S
C243 C246 1.358 . S
C243 C247 1.332 . S
C243 C249 1.504 . S
C244 C245 1.373 . S
C244 C248 1.308 . S
C245 C244 1.373 . S
C245 C246 1.429 . S
C245 H272 0.932 . S
C246 C243 1.358 . S
C246 C245 1.429 . S
C246 H273 0.930 . S
C247 C243 1.332 . S
C247 C248 1.394 . S
C247 H274 0.932 . S
C248 C244 1.308 . S
C248 C247 1.394 . S
C248 H275 0.929 . S
C249 Tb240 2.764 . S
C249 C243 1.504 . S
C249 O261 1.239 . S
C249 O262 1.263 . S
O250 Tb240 2.325 . S
O250 C260 1.236 . S
O251 Tb241 2.322 . S
O251 C260 1.257 . S
O252 Tb241 2.349 . S
O252 C263 1.261 . S
O253 Tb240 2.303 . S
O253 C263 1.257 . S
O254 Tb241 2.415 . S
O254 C270 1.239 . S
O255 Tb241 2.399 . S
O255 C270 1.263 . S
O256 Tb241 2.325 . S
O256 C271 1.236 . S
O257 Tb240 2.322 . S
O257 C271 1.257 . S
O258 Tb240 2.349 . S
O258 C242 1.261 . S
O259 Tb241 2.303 . S
O259 C242 1.257 . S
C260 O250 1.236 . S
C260 O251 1.257 . S
O261 Tb240 2.415 . S
O261 C249 1.239 . S
O262 Tb240 2.399 . S
O262 C249 1.263 . S
C263 O252 1.261 . S
C263 O253 1.257 . S
C264 C267 1.358 . S
C264 C268 1.332 . S
C264 C270 1.504 . S
C265 C266 1.373 . S
C265 C269 1.308 . S
C266 C265 1.373 . S
C266 C267 1.429 . S
C266 H276 0.932 . S
C267 C264 1.358 . S
C267 C266 1.429 . S
C267 H277 0.930 . S
C268 C264 1.332 . S
C268 C269 1.394 . S
C268 H278 0.932 . S
C269 C265 1.308 . S
C269 C268 1.394 . S
C269 H279 0.929 . S
C270 Tb241 2.764 . S
C270 O254 1.239 . S
C270 O255 1.263 . S
C270 C264 1.504 . S
C271 O256 1.236 . S
C271 O257 1.257 . S
H272 C245 0.932 . S
H273 C246 0.930 . S
H274 C247 0.932 . S
H275 C248 0.929 . S
H276 C266 0.932 . S
H277 C267 0.930 . S
H278 C268 0.932 . S
H279 C269 0.929 . S
Tb280 C289 2.764 . S
Tb280 O290 2.325 . S
Tb280 O293 2.303 . S
Tb280 O297 2.322 . S
Tb280 O298 2.349 . S
Tb280 O301 2.415 . S
Tb280 O302 2.399 . S
Tb281 O291 2.322 . S
Tb281 O292 2.349 . S
Tb281 O294 2.415 . S
Tb281 O295 2.399 . S
Tb281 O296 2.325 . S
Tb281 O299 2.303 . S
Tb281 C310 2.764 . S
C282 O298 1.261 . S
C282 O299 1.257 . S
C283 C286 1.358 . S
C283 C287 1.332 . S
C283 C289 1.504 . S
C284 C285 1.373 . S
C284 C288 1.308 . S
C285 C284 1.373 . S
C285 C286 1.429 . S
C285 H312 0.932 . S
C286 C283 1.358 . S
C286 C285 1.429 . S
C286 H313 0.930 . S
C287 C283 1.332 . S
C287 C288 1.394 . S
C287 H314 0.932 . S
C288 C284 1.308 . S
C288 C287 1.394 . S
C288 H315 0.929 . S
C289 Tb280 2.764 . S
C289 C283 1.504 . S
C289 O301 1.239 . S
C289 O302 1.263 . S
O290 Tb280 2.325 . S
O290 C300 1.236 . S
O291 Tb281 2.322 . S
O291 C300 1.257 . S
O292 Tb281 2.349 . S
O292 C303 1.261 . S
O293 Tb280 2.303 . S
O293 C303 1.257 . S
O294 Tb281 2.415 . S
O294 C310 1.239 . S
O295 Tb281 2.399 . S
O295 C310 1.263 . S
O296 Tb281 2.325 . S
O296 C311 1.236 . S
O297 Tb280 2.322 . S
O297 C311 1.257 . S
O298 Tb280 2.349 . S
O298 C282 1.261 . S
O299 Tb281 2.303 . S
O299 C282 1.257 . S
C300 O290 1.236 . S
C300 O291 1.257 . S
O301 Tb280 2.415 . S
O301 C289 1.239 . S
O302 Tb280 2.399 . S
O302 C289 1.263 . S
C303 O292 1.261 . S
C303 O293 1.257 . S
C304 C307 1.358 . S
C304 C308 1.332 . S
C304 C310 1.504 . S
C305 C306 1.373 . S
C305 C309 1.308 . S
C306 C305 1.373 . S
C306 C307 1.429 . S
C306 H316 0.932 . S
C307 C304 1.358 . S
C307 C306 1.429 . S
C307 H317 0.930 . S
C308 C304 1.332 . S
C308 C309 1.394 . S
C308 H318 0.932 . S
C309 C305 1.308 . S
C309 C308 1.394 . S
C309 H319 0.929 . S
C310 Tb281 2.764 . S
C310 O294 1.239 . S
C310 O295 1.263 . S
C310 C304 1.504 . S
C311 O296 1.236 . S
C311 O297 1.257 . S
H312 C285 0.932 . S
H313 C286 0.930 . S
H314 C287 0.932 . S
H315 C288 0.929 . S
H316 C306 0.932 . S
H317 C307 0.930 . S
H318 C308 0.932 . S
H319 C309 0.929 . S
C320 O332 1.241 . S
C320 O333 1.280 . S
C321 O334 1.277 . S
C321 O335 1.245 . S
C322 O346 1.247 . S
C322 O348 1.289 . S
Mg323 O324 1.926 1_455 S
Mg323 O333 1.984 1_455 S
Mg323 O335 1.988 1_455 S
Mg323 O336 2.061 . S
O324 Mg323 1.926 1_655 S
O324 Mg325 1.986 . S
O324 Mg326 1.917 1_655 S
Mg325 O324 1.986 . S
Mg325 O332 2.042 . S
Mg325 O334 2.041 . S
Mg325 O340 2.038 1_545 S
Mg325 O348 2.238 1_545 S
Mg326 O324 1.917 1_455 S
Mg326 O327 1.917 1_545 S
Mg326 O337 2.106 . S
Mg326 O339 2.079 1_445 S
Mg326 O348 2.106 1_445 S
Mg326 O349 2.079 . S
O327 Mg326 1.917 1_565 S
O327 Mg328 1.926 . S
O327 Mg329 1.986 1_565 S
Mg328 O327 1.926 . S
Mg328 O342 1.984 . S
Mg328 O345 1.988 . S
Mg328 O346 2.061 1_455 S
Mg329 O327 1.986 1_545 S
Mg329 O337 2.238 . S
Mg329 O341 2.042 . S
Mg329 O343 2.041 1_545 S
Mg329 O350 2.038 . S
C330 O336 1.247 . S
C330 O337 1.289 . S
C331 O349 1.245 . S
C331 O350 1.274 . S
O332 C320 1.241 . S
O332 Mg325 2.042 . S
O333 C320 1.280 . S
O333 Mg323 1.984 1_655 S
O334 C321 1.277 . S
O334 Mg325 2.041 . S
O335 C321 1.245 . S
O335 Mg323 1.988 1_655 S
O336 Mg323 2.061 . S
O336 C330 1.247 . S
O337 Mg326 2.106 . S
O337 Mg329 2.238 . S
O337 C330 1.289 . S
C338 O339 1.245 . S
C338 O340 1.274 . S
O339 Mg326 2.079 1_665 S
O339 C338 1.245 . S
O340 Mg325 2.038 1_565 S
O340 C338 1.274 . S
O341 Mg329 2.042 . S
O341 C344 1.241 1_545 S
O342 Mg328 1.984 . S
O342 C344 1.280 . S
O343 Mg329 2.041 1_565 S
O343 C347 1.277 . S
C344 O341 1.241 1_565 S
C344 O342 1.280 . S
O345 Mg328 1.988 . S
O345 C347 1.245 . S
O346 C322 1.247 . S
O346 Mg328 2.061 1_655 S
C347 O343 1.277 . S
C347 O345 1.245 . S
O348 C322 1.289 . S
O348 Mg325 2.238 1_565 S
O348 Mg326 2.106 1_665 S
O349 Mg326 2.079 . S
O349 C331 1.245 . S
O350 Mg329 2.038 . S
O350 C331 1.274 . S
C351 O363 1.241 . S
C351 O364 1.280 . S
C352 O365 1.277 1_556 S
C352 O366 1.245 1_556 S
C353 O377 1.247 1_556 S
C353 O379 1.289 1_566 S
Mg354 O355 1.926 . S
Mg354 O364 1.984 . S
Mg354 O366 1.988 . S
Mg354 O367 2.061 . S
O355 Mg354 1.926 . S
O355 Mg356 1.986 . S
O355 Mg357 1.917 . S
Mg356 O355 1.986 . S
Mg356 O363 2.042 . S
Mg356 O365 2.041 . S
Mg356 O371 2.038 1_545 S
Mg356 O379 2.238 . S
Mg357 O355 1.917 . S
Mg357 O358 1.917 . S
Mg357 O368 2.106 . S
Mg357 O370 2.079 1_545 S
Mg357 O379 2.106 . S
Mg357 O380 2.079 . S
O358 Mg357 1.917 . S
O358 Mg359 1.926 1_545 S
O358 Mg360 1.986 . S
Mg359 O358 1.926 1_565 S
Mg359 O373 1.984 . S
Mg359 O376 1.988 . S
Mg359 O377 2.061 . S
Mg360 O358 1.986 . S
Mg360 O368 2.238 . S
Mg360 O372 2.042 . S
Mg360 O374 2.041 . S
Mg360 O381 2.038 . S
C361 O367 1.247 . S
C361 O368 1.289 . S
C362 O380 1.245 1_556 S
C362 O381 1.274 1_556 S
O363 C351 1.241 . S
O363 Mg356 2.042 . S
O364 C351 1.280 . S
O364 Mg354 1.984 . S
O365 C352 1.277 1_554 S
O365 Mg356 2.041 . S
O366 C352 1.245 1_554 S
O366 Mg354 1.988 . S
O367 Mg354 2.061 . S
O367 C361 1.247 . S
O368 Mg357 2.106 . S
O368 Mg360 2.238 . S
O368 C361 1.289 . S
C369 O370 1.245 . S
C369 O371 1.274 . S
O370 Mg357 2.079 1_565 S
O370 C369 1.245 . S
O371 Mg356 2.038 1_565 S
O371 C369 1.274 . S
O372 Mg360 2.042 . S
O372 C375 1.243 1_545 S
O373 Mg359 1.984 . S
O373 C375 1.280 . S
O374 Mg360 2.041 . S
O374 C378 1.277 1_545 S
C375 O372 1.243 1_565 S
C375 O373 1.280 . S
O376 Mg359 1.988 . S
O376 C378 1.245 . S
O377 C353 1.247 1_554 S
O377 Mg359 2.061 . S
C378 O374 1.277 1_565 S
C378 O376 1.245 . S
O379 C353 1.289 1_544 S
O379 Mg356 2.238 . S
O379 Mg357 2.106 . S
O380 Mg357 2.079 . S
O380 C362 1.245 1_554 S
O381 Mg360 2.038 . S
O381 C362 1.274 1_554 S
C382 O394 1.241 . S
C382 O395 1.280 . S
C383 O396 1.277 . S
C383 O397 1.245 . S
C384 O408 1.247 . S
C384 O410 1.289 . S
Mg385 O386 1.926 . S
Mg385 O395 1.984 . S
Mg385 O397 1.988 1_554 S
Mg385 O398 2.061 1_655 S
O386 Mg385 1.926 . S
O386 Mg387 1.986 1_554 S
O386 Mg388 1.917 1_655 S
Mg387 O386 1.986 1_556 S
Mg387 O394 2.042 1_556 S
Mg387 O396 2.041 . S
Mg387 O402 2.038 1_556 S
Mg387 O410 2.238 . S
Mg388 O386 1.917 1_455 S
Mg388 O389 1.917 1_554 S
Mg388 O399 2.106 . S
Mg388 O401 2.079 1_455 S
Mg388 O410 2.106 1_454 S
Mg388 O411 2.079 1_554 S
O389 Mg388 1.917 1_556 S
O389 Mg390 1.926 . S
O389 Mg391 1.986 1_556 S
Mg390 O389 1.926 . S
Mg390 O404 1.984 . S
Mg390 O407 1.988 1_556 S
Mg390 O408 2.061 1_455 S
Mg391 O389 1.986 1_554 S
Mg391 O399 2.238 . S
Mg391 O403 2.042 1_554 S
Mg391 O405 2.041 . S
Mg391 O412 2.038 1_554 S
C392 O398 1.247 . S
C392 O399 1.289 . S
C393 O411 1.245 . S
C393 O412 1.274 . S
O394 C382 1.241 . S
O394 Mg387 2.042 1_554 S
O395 C382 1.280 . S
O395 Mg385 1.984 . S
O396 C383 1.277 . S
O396 Mg387 2.041 . S
O397 C383 1.245 . S
O397 Mg385 1.988 1_556 S
O398 Mg385 2.061 1_455 S
O398 C392 1.247 . S
O399 Mg388 2.106 . S
O399 Mg391 2.238 . S
O399 C392 1.289 . S
C400 O401 1.245 . S
C400 O402 1.274 . S
O401 Mg388 2.079 1_655 S
O401 C400 1.245 . S
O402 Mg387 2.038 1_554 S
O402 C400 1.274 . S
O403 Mg391 2.042 1_556 S
O403 C406 1.241 . S
O404 Mg390 1.984 . S
O404 C406 1.280 . S
O405 Mg391 2.041 . S
O405 C409 1.277 . S
C406 O403 1.241 . S
C406 O404 1.280 . S
O407 Mg390 1.988 1_554 S
O407 C409 1.245 . S
O408 C384 1.247 . S
O408 Mg390 2.061 1_655 S
C409 O405 1.277 . S
C409 O407 1.245 . S
O410 C384 1.289 . S
O410 Mg387 2.238 . S
O410 Mg388 2.106 1_656 S
O411 Mg388 2.079 1_556 S
O411 C393 1.245 . S
O412 Mg391 2.038 1_556 S
O412 C393 1.274 . S
C413 O425 1.241 . S
C413 O426 1.280 . S
C414 O427 1.277 . S
C414 O428 1.245 . S
C415 O439 1.247 . S
C415 O441 1.289 . S
Mg416 O417 1.926 . S
Mg416 O426 1.984 . S
Mg416 O428 1.988 1_554 S
Mg416 O429 2.061 . S
O417 Mg416 1.926 . S
O417 Mg418 1.986 . S
O417 Mg419 1.917 . S
Mg418 O417 1.986 . S
Mg418 O425 2.042 . S
Mg418 O427 2.041 1_554 S
Mg418 O433 2.038 . S
Mg418 O441 2.238 1_554 S
Mg419 O417 1.917 . S
Mg419 O420 1.917 . S
Mg419 O430 2.106 . S
Mg419 O432 2.079 . S
Mg419 O441 2.106 1_554 S
Mg419 O442 2.079 1_554 S
O420 Mg419 1.917 . S
O420 Mg421 1.926 . S
O420 Mg422 1.986 . S
Mg421 O420 1.926 . S
Mg421 O435 1.984 1_554 S
Mg421 O438 1.988 . S
Mg421 O439 2.061 1_554 S
Mg422 O420 1.986 . S
Mg422 O430 2.238 . S
Mg422 O434 2.042 1_554 S
Mg422 O436 2.041 . S
Mg422 O443 2.038 1_554 S
C423 O429 1.247 . S
C423 O430 1.289 . S
C424 O442 1.245 . S
C424 O443 1.274 . S
O425 C413 1.241 . S
O425 Mg418 2.042 . S
O426 C413 1.280 . S
O426 Mg416 1.984 . S
O427 C414 1.277 . S
O427 Mg418 2.041 1_556 S
O428 C414 1.245 . S
O428 Mg416 1.988 1_556 S
O429 Mg416 2.061 . S
O429 C423 1.247 . S
O430 Mg419 2.106 . S
O430 Mg422 2.238 . S
O430 C423 1.289 . S
C431 O432 1.245 . S
C431 O433 1.274 . S
O432 Mg419 2.079 . S
O432 C431 1.245 . S
O433 Mg418 2.038 . S
O433 C431 1.274 . S
O434 Mg422 2.042 1_556 S
O434 C437 1.241 . S
O435 Mg421 1.984 1_556 S
O435 C437 1.280 . S
O436 Mg422 2.041 . S
O436 C440 1.277 . S
C437 O434 1.241 . S
C437 O435 1.280 . S
O438 Mg421 1.988 . S
O438 C440 1.245 . S
O439 C415 1.247 . S
O439 Mg421 2.061 1_556 S
C440 O436 1.277 . S
C440 O438 1.245 . S
O441 C415 1.289 . S
O441 Mg418 2.238 1_556 S
O441 Mg419 2.106 1_556 S
O442 Mg419 2.079 1_556 S
O442 C424 1.245 . S
O443 Mg422 2.038 1_556 S
O443 C424 1.274 . S
C444 O456 1.241 . S
C444 O457 1.280 . S
C445 O458 1.277 . S
C445 O459 1.245 1_655 S
C446 O470 1.247 . S
C446 O472 1.289 . S
Mg447 O448 1.926 . S
Mg447 O457 1.984 1_455 S
Mg447 O459 1.988 . S
Mg447 O460 2.061 . S
O448 Mg447 1.926 . S
O448 Mg449 1.986 1_455 S
O448 Mg450 1.917 . S
Mg449 O448 1.986 1_655 S
Mg449 O456 2.042 . S
Mg449 O458 2.041 . S
Mg449 O464 2.038 . S
Mg449 O472 2.238 . S
Mg450 O448 1.917 . S
Mg450 O451 1.917 . S
Mg450 O461 2.106 . S
Mg450 O463 2.079 . S
Mg450 O472 2.106 1_455 S
Mg450 O473 2.079 . S
O451 Mg450 1.917 . S
O451 Mg452 1.926 . S
O451 Mg453 1.986 . S
Mg452 O451 1.926 . S
Mg452 O466 1.984 . S
Mg452 O469 1.988 . S
Mg452 O470 2.061 1_455 S
Mg453 O451 1.986 . S
Mg453 O461 2.238 . S
Mg453 O465 2.042 . S
Mg453 O467 2.041 . S
Mg453 O474 2.038 . S
C454 O460 1.247 . S
C454 O461 1.289 . S
C455 O473 1.245 . S
C455 O474 1.274 . S
O456 C444 1.241 . S
O456 Mg449 2.042 . S
O457 C444 1.280 . S
O457 Mg447 1.984 1_655 S
O458 C445 1.277 . S
O458 Mg449 2.041 . S
O459 C445 1.245 1_455 S
O459 Mg447 1.988 . S
O460 Mg447 2.061 . S
O460 C454 1.247 . S
O461 Mg450 2.106 . S
O461 Mg453 2.238 . S
O461 C454 1.289 . S
C462 O463 1.245 1_655 S
C462 O464 1.274 . S
O463 Mg450 2.079 . S
O463 C462 1.245 1_455 S
O464 Mg449 2.038 . S
O464 C462 1.274 . S
O465 Mg453 2.042 . S
O465 C468 1.241 . S
O466 Mg452 1.984 . S
O466 C468 1.280 . S
O467 Mg453 2.041 . S
O467 C471 1.277 . S
C468 O465 1.241 . S
C468 O466 1.280 . S
O469 Mg452 1.988 . S
O469 C471 1.245 . S
O470 C446 1.247 . S
O470 Mg452 2.061 1_655 S
C471 O467 1.277 . S
C471 O469 1.245 . S
O472 C446 1.289 . S
O472 Mg449 2.238 . S
O472 Mg450 2.106 1_655 S
O473 Mg450 2.079 . S
O473 C455 1.245 . S
O474 Mg453 2.038 . S
O474 C455 1.274 . S
C475 O487 1.241 . S
C475 O488 1.280 . S
C476 O489 1.277 . S
C476 O490 1.245 . S
C477 O501 1.247 . S
C477 O503 1.289 . S
Mg478 O479 1.926 . S
Mg478 O488 1.984 . S
Mg478 O490 1.988 . S
Mg478 O491 2.061 . S
O479 Mg478 1.926 . S
O479 Mg480 1.982 1_545 S
O479 Mg481 1.917 . S
Mg480 O479 1.982 1_565 S
Mg480 O487 2.024 1_565 S
Mg480 O489 2.025 1_565 S
Mg480 O495 2.055 . S
Mg480 O503 2.256 . S
Mg481 O479 1.917 . S
Mg481 O482 1.917 1_545 S
Mg481 O492 2.106 . S
Mg481 O494 2.079 1_545 S
Mg481 O503 2.106 1_545 S
Mg481 O504 2.079 . S
O482 Mg481 1.917 1_565 S
O482 Mg483 1.926 . S
O482 Mg484 1.986 1_565 S
Mg483 O482 1.926 . S
Mg483 O497 1.984 . S
Mg483 O500 1.988 . S
Mg483 O501 2.061 . S
Mg484 O482 1.986 1_545 S
Mg484 O492 2.238 . S
Mg484 O496 2.042 1_545 S
Mg484 O498 2.041 1_545 S
Mg484 O505 2.038 . S
C485 O491 1.247 . S
C485 O492 1.289 . S
C486 O504 1.245 . S
C486 O505 1.274 . S
O487 C475 1.241 . S
O487 Mg480 2.024 1_545 S
O488 C475 1.280 . S
O488 Mg478 1.984 . S
O489 C476 1.277 . S
O489 Mg480 2.025 1_545 S
O490 C476 1.245 . S
O490 Mg478 1.988 . S
O491 Mg478 2.061 . S
O491 C485 1.247 . S
O492 Mg481 2.106 . S
O492 Mg484 2.238 . S
O492 C485 1.289 . S
C493 O494 1.245 . S
C493 O495 1.274 . S
O494 Mg481 2.079 1_565 S
O494 C493 1.245 . S
O495 Mg480 2.055 . S
O495 C493 1.274 . S
O496 Mg484 2.042 1_565 S
O496 C499 1.241 . S
O497 Mg483 1.984 . S
O497 C499 1.280 . S
O498 Mg484 2.041 1_565 S
O498 C502 1.277 . S
C499 O496 1.241 . S
C499 O497 1.280 . S
O500 Mg483 1.988 . S
O500 C502 1.245 . S
O501 C477 1.247 . S
O501 Mg483 2.061 . S
C502 O498 1.277 . S
C502 O500 1.245 . S
O503 C477 1.289 . S
O503 Mg480 2.256 . S
O503 Mg481 2.106 1_565 S
O504 Mg481 2.079 . S
O504 C486 1.245 . S
O505 Mg484 2.038 . S
O505 C486 1.274 . S
H506 C512 0.930 . S
H507 C516 0.930 . S
H508 C521 0.929 . S
H509 C519 0.929 . S
H510 C514 0.929 . S
H511 C520 0.929 . S
C512 H506 0.930 . S
C512 C513 1.367 . S
C512 C520 1.378 . S
C513 C512 1.367 . S
C513 C521 1.433 . S
C514 H510 0.929 . S
C514 C516 1.378 . S
C514 C518 1.350 . S
C515 C518 1.463 . S
C515 C520 1.350 . S
C515 N523 1.427 . S
C516 H507 0.930 . S
C516 C514 1.378 . S
C516 C517 1.367 . S
C517 C516 1.367 . S
C517 C519 1.433 . S
C518 C514 1.350 . S
C518 C515 1.463 . S
C518 N522 1.427 . S
C519 H509 0.929 . S
C519 C517 1.433 . S
C519 N522 1.384 . S
C520 H511 0.929 . S
C520 C512 1.378 . S
C520 C515 1.350 . S
C521 H508 0.929 . S
C521 C513 1.433 . S
C521 N523 1.384 . S
N522 C518 1.427 . S
N522 C519 1.384 . S
N523 C515 1.427 . S
N523 C521 1.384 . S
H524 C530 0.930 . S
H525 C534 0.930 . S
H526 C539 0.929 . S
H527 C537 0.929 . S
H528 C532 0.929 . S
H529 C538 0.929 . S
C530 H524 0.930 . S
C530 C531 1.367 . S
C530 C538 1.378 . S
C531 C530 1.367 . S
C531 C539 1.433 . S
C532 H528 0.929 . S
C532 C534 1.378 . S
C532 C536 1.350 . S
C533 C536 1.463 . S
C533 C538 1.350 . S
C533 N541 1.427 . S
C534 H525 0.930 . S
C534 C532 1.378 . S
C534 C535 1.367 . S
C535 C534 1.367 . S
C535 C537 1.433 . S
C536 C532 1.350 . S
C536 C533 1.463 . S
C536 N540 1.427 . S
C537 H527 0.929 . S
C537 C535 1.433 . S
C537 N540 1.384 . S
C538 H529 0.929 . S
C538 C530 1.378 . S
C538 C533 1.350 . S
C539 H526 0.929 . S
C539 C531 1.433 . S
C539 N541 1.384 . S
N540 C536 1.427 . S
N540 C537 1.384 . S
N541 C533 1.427 . S
N541 C539 1.384 . S
H542 C548 0.930 . S
H543 C552 0.930 . S
H544 C557 0.929 . S
H545 C555 0.929 . S
H546 C550 0.929 . S
H547 C556 0.929 . S
C548 H542 0.930 . S
C548 C549 1.367 . S
C548 C556 1.378 . S
C549 C548 1.367 . S
C549 C557 1.433 . S
C550 H546 0.929 . S
C550 C552 1.378 . S
C550 C554 1.350 . S
C551 C554 1.463 . S
C551 C556 1.350 . S
C551 N559 1.427 . S
C552 H543 0.930 . S
C552 C550 1.378 . S
C552 C553 1.367 . S
C553 C552 1.367 . S
C553 C555 1.433 . S
C554 C550 1.350 . S
C554 C551 1.463 . S
C554 N558 1.427 . S
C555 H545 0.929 . S
C555 C553 1.433 . S
C555 N558 1.384 . S
C556 H547 0.929 . S
C556 C548 1.378 . S
C556 C551 1.350 . S
C557 H544 0.929 . S
C557 C549 1.433 . S
C557 N559 1.384 . S
N558 C554 1.427 . S
N558 C555 1.384 . S
N559 C551 1.427 . S
N559 C557 1.384 . S
H560 C566 0.930 . S
H561 C570 0.930 . S
H562 C575 0.929 . S
H563 C573 0.929 . S
H564 C568 0.929 . S
H565 C574 0.929 . S
C566 H560 0.930 . S
C566 C567 1.367 . S
C566 C574 1.378 . S
C567 C566 1.367 . S
C567 C575 1.433 . S
C568 H564 0.929 . S
C568 C570 1.378 . S
C568 C572 1.350 . S
C569 C572 1.463 . S
C569 C574 1.350 . S
C569 N577 1.427 . S
C570 H561 0.930 . S
C570 C568 1.378 . S
C570 C571 1.367 . S
C571 C570 1.367 . S
C571 C573 1.433 . S
C572 C568 1.350 . S
C572 C569 1.463 . S
C572 N576 1.427 . S
C573 H563 0.929 . S
C573 C571 1.433 . S
C573 N576 1.384 . S
C574 H565 0.929 . S
C574 C566 1.378 . S
C574 C569 1.350 . S
C575 H562 0.929 . S
C575 C567 1.433 . S
C575 N577 1.384 . S
N576 C572 1.427 . S
N576 C573 1.384 . S
N577 C569 1.427 . S
N577 C575 1.384 . S
H578 C584 0.930 . S
H579 C588 0.930 1_545 S
H580 C593 0.929 . S
H581 C591 0.929 . S
H582 C586 0.929 . S
H583 C592 0.929 . S
C584 H578 0.930 . S
C584 C585 1.367 . S
C584 C592 1.378 . S
C585 C584 1.367 . S
C585 C593 1.433 . S
C586 H582 0.929 . S
C586 C588 1.378 . S
C586 C590 1.350 . S
C587 C590 1.463 . S
C587 C592 1.350 . S
C587 N595 1.427 . S
C588 H579 0.930 1_565 S
C588 C586 1.378 . S
C588 C589 1.367 . S
C589 C588 1.367 . S
C589 C591 1.433 . S
C590 C586 1.350 . S
C590 C587 1.463 . S
C590 N594 1.427 . S
C591 H581 0.929 . S
C591 C589 1.433 . S
C591 N594 1.384 . S
C592 H583 0.929 . S
C592 C584 1.378 . S
C592 C587 1.350 . S
C593 H580 0.929 . S
C593 C585 1.433 . S
C593 N595 1.384 . S
N594 C590 1.427 . S
N594 C591 1.384 . S
N595 C587 1.427 . S
N595 C593 1.384 . S
H596 C602 0.930 . S
H597 C606 0.930 . S
H598 C611 0.929 . S
H599 C609 0.929 . S
H600 C604 0.929 . S
H601 C610 0.929 . S
C602 H596 0.930 . S
C602 C603 1.367 . S
C602 C610 1.378 . S
C603 C602 1.367 . S
C603 C611 1.433 . S
C604 H600 0.929 . S
C604 C606 1.378 . S
C604 C608 1.350 . S
C605 C608 1.463 . S
C605 C610 1.350 . S
C605 N613 1.427 . S
C606 H597 0.930 . S
C606 C604 1.378 . S
C606 C607 1.367 . S
C607 C606 1.367 . S
C607 C609 1.433 . S
C608 C604 1.350 . S
C608 C605 1.463 . S
C608 N612 1.427 . S
C609 H599 0.929 . S
C609 C607 1.433 . S
C609 N612 1.384 . S
C610 H601 0.929 . S
C610 C602 1.378 . S
C610 C605 1.350 . S
C611 H598 0.929 . S
C611 C603 1.433 . S
C611 N613 1.384 . S
N612 C608 1.427 . S
N612 C609 1.384 . S
N613 C605 1.427 . S
N613 C611 1.384 . S
H614 C620 0.930 . S
H615 C624 0.930 . S
H616 C629 0.929 . S
H617 C627 0.929 . S
H618 C622 0.929 . S
H619 C628 0.929 . S
C620 H614 0.930 . S
C620 C621 1.367 . S
C620 C628 1.378 . S
C621 C620 1.367 . S
C621 C629 1.433 . S
C622 H618 0.929 . S
C622 C624 1.378 . S
C622 C626 1.350 . S
C623 C626 1.463 . S
C623 C628 1.350 . S
C623 N631 1.427 . S
C624 H615 0.930 . S
C624 C622 1.378 . S
C624 C625 1.367 . S
C625 C624 1.367 . S
C625 C627 1.433 . S
C626 C622 1.350 . S
C626 C623 1.463 . S
C626 N630 1.427 . S
C627 H617 0.929 . S
C627 C625 1.433 . S
C627 N630 1.384 . S
C628 H619 0.929 . S
C628 C620 1.378 . S
C628 C623 1.350 . S
C629 H616 0.929 . S
C629 C621 1.433 . S
C629 N631 1.384 . S
N630 C626 1.427 . S
N630 C627 1.384 . S
N631 C623 1.427 . S
N631 C629 1.384 . S
H632 C638 0.930 . S
H633 C642 0.930 . S
H634 C647 0.929 . S
H635 C645 0.929 . S
H636 C640 0.929 . S
H637 C646 0.929 . S
C638 H632 0.930 . S
C638 C639 1.367 . S
C638 C646 1.378 . S
C639 C638 1.367 . S
C639 C647 1.433 . S
C640 H636 0.929 . S
C640 C642 1.378 . S
C640 C644 1.350 . S
C641 C644 1.463 . S
C641 C646 1.350 . S
C641 N649 1.427 . S
C642 H633 0.930 . S
C642 C640 1.378 . S
C642 C643 1.367 . S
C643 C642 1.367 . S
C643 C645 1.433 . S
C644 C640 1.350 . S
C644 C641 1.463 . S
C644 N648 1.427 . S
C645 H635 0.929 . S
C645 C643 1.433 . S
C645 N648 1.384 . S
C646 H637 0.929 . S
C646 C638 1.378 . S
C646 C641 1.350 . S
C647 H634 0.929 . S
C647 C639 1.433 . S
C647 N649 1.384 . S
N648 C644 1.427 . S
N648 C645 1.384 . S
N649 C641 1.427 . S
N649 C647 1.384 . S
H650 C656 0.930 . S
H651 C660 0.930 . S
H652 C665 0.929 . S
H653 C663 0.929 . S
H654 C658 0.929 . S
H655 C664 0.929 . S
C656 H650 0.930 . S
C656 C657 1.367 . S
C656 C664 1.378 . S
C657 C656 1.367 . S
C657 C665 1.433 . S
C658 H654 0.929 . S
C658 C660 1.378 . S
C658 C662 1.350 . S
C659 C662 1.463 . S
C659 C664 1.350 . S
C659 N667 1.427 . S
C660 H651 0.930 . S
C660 C658 1.378 . S
C660 C661 1.367 . S
C661 C660 1.367 . S
C661 C663 1.433 . S
C662 C658 1.350 . S
C662 C659 1.463 . S
C662 N666 1.427 . S
C663 H653 0.929 . S
C663 C661 1.433 . S
C663 N666 1.384 . S
C664 H655 0.929 . S
C664 C656 1.378 . S
C664 C659 1.350 . S
C665 H652 0.929 . S
C665 C657 1.433 . S
C665 N667 1.384 . S
N666 C662 1.427 . S
N666 C663 1.384 . S
N667 C659 1.427 . S
N667 C665 1.384 . S
H668 C674 0.930 . S
H669 C678 0.930 . S
H670 C683 0.929 . S
H671 C681 0.929 . S
H672 C676 0.929 . S
H673 C682 0.929 . S
C674 H668 0.930 . S
C674 C675 1.367 . S
C674 C682 1.378 . S
C675 C674 1.367 . S
C675 C683 1.433 . S
C676 H672 0.929 . S
C676 C678 1.378 . S
C676 C680 1.350 . S
C677 C680 1.463 . S
C677 C682 1.350 . S
C677 N685 1.427 . S
C678 H669 0.930 . S
C678 C676 1.378 . S
C678 C679 1.367 . S
C679 C678 1.367 . S
C679 C681 1.433 . S
C680 C676 1.350 . S
C680 C677 1.463 . S
C680 N684 1.427 . S
C681 H671 0.929 . S
C681 C679 1.433 . S
C681 N684 1.384 . S
C682 H673 0.929 . S
C682 C674 1.378 . S
C682 C677 1.350 . S
C683 H670 0.929 . S
C683 C675 1.433 . S
C683 N685 1.384 . S
N684 C680 1.427 . S
N684 C681 1.384 . S
N685 C677 1.427 . S
N685 C683 1.384 . S
H686 C692 0.930 . S
H687 C696 0.930 . S
H688 C701 0.929 . S
H689 C699 0.929 . S
H690 C694 0.929 . S
H691 C700 0.929 . S
C692 H686 0.930 . S
C692 C693 1.367 . S
C692 C700 1.378 . S
C693 C692 1.367 . S
C693 C701 1.433 . S
C694 H690 0.929 . S
C694 C696 1.378 . S
C694 C698 1.350 . S
C695 C698 1.463 . S
C695 C700 1.350 . S
C695 N703 1.427 . S
C696 H687 0.930 . S
C696 C694 1.378 . S
C696 C697 1.367 . S
C697 C696 1.367 . S
C697 C699 1.433 . S
C698 C694 1.350 . S
C698 C695 1.463 . S
C698 N702 1.427 . S
C699 H689 0.929 . S
C699 C697 1.433 . S
C699 N702 1.384 . S
C700 H691 0.929 . S
C700 C692 1.378 . S
C700 C695 1.350 . S
C701 H688 0.929 . S
C701 C693 1.433 . S
C701 N703 1.384 . S
N702 C698 1.427 . S
N702 C699 1.384 . S
N703 C695 1.427 . S
N703 C701 1.384 . S
H704 C710 0.930 . S
H705 C714 0.930 . S
H706 C719 0.929 . S
H707 C717 0.929 . S
H708 C712 0.929 . S
H709 C718 0.929 . S
C710 H704 0.930 . S
C710 C711 1.367 . S
C710 C718 1.378 . S
C711 C710 1.367 . S
C711 C719 1.433 . S
C712 H708 0.929 . S
C712 C714 1.378 . S
C712 C716 1.350 . S
C713 C716 1.463 . S
C713 C718 1.350 . S
C713 N721 1.427 . S
C714 H705 0.930 . S
C714 C712 1.378 . S
C714 C715 1.367 . S
C715 C714 1.367 . S
C715 C717 1.433 . S
C716 C712 1.350 . S
C716 C713 1.463 . S
C716 N720 1.427 . S
C717 H707 0.929 . S
C717 C715 1.433 . S
C717 N720 1.384 . S
C718 H709 0.929 . S
C718 C710 1.378 . S
C718 C713 1.350 . S
C719 H706 0.929 . S
C719 C711 1.433 . S
C719 N721 1.384 . S
N720 C716 1.427 . S
N720 C717 1.384 . S
N721 C713 1.427 . S
N721 C719 1.384 . S
H722 C728 0.930 . S
H723 C732 0.930 . S
H724 C737 0.929 . S
H725 C735 0.929 . S
H726 C730 0.929 . S
H727 C736 0.929 . S
C728 H722 0.930 . S
C728 C729 1.367 . S
C728 C736 1.378 . S
C729 C728 1.367 . S
C729 C737 1.433 . S
C730 H726 0.929 . S
C730 C732 1.378 . S
C730 C734 1.350 . S
C731 C734 1.463 . S
C731 C736 1.350 . S
C731 N739 1.427 . S
C732 H723 0.930 . S
C732 C730 1.378 . S
C732 C733 1.367 . S
C733 C732 1.367 . S
C733 C735 1.433 . S
C734 C730 1.350 . S
C734 C731 1.463 . S
C734 N738 1.427 . S
C735 H725 0.929 . S
C735 C733 1.433 . S
C735 N738 1.384 . S
C736 H727 0.929 . S
C736 C728 1.378 . S
C736 C731 1.350 . S
C737 H724 0.929 . S
C737 C729 1.433 . S
C737 N739 1.384 . S
N738 C734 1.427 . S
N738 C735 1.384 . S
N739 C731 1.427 . S
N739 C737 1.384 . S
H740 C746 0.930 . S
H741 C750 0.930 . S
H742 C755 0.929 . S
H743 C753 0.929 . S
H744 C748 0.929 . S
H745 C754 0.929 . S
C746 H740 0.930 . S
C746 C747 1.367 . S
C746 C754 1.378 . S
C747 C746 1.367 . S
C747 C755 1.433 . S
C748 H744 0.929 . S
C748 C750 1.378 . S
C748 C752 1.350 . S
C749 C752 1.463 . S
C749 C754 1.350 . S
C749 N757 1.427 . S
C750 H741 0.930 . S
C750 C748 1.378 . S
C750 C751 1.367 . S
C751 C750 1.367 . S
C751 C753 1.433 . S
C752 C748 1.350 . S
C752 C749 1.463 . S
C752 N756 1.427 . S
C753 H743 0.929 . S
C753 C751 1.433 . S
C753 N756 1.384 . S
C754 H745 0.929 . S
C754 C746 1.378 . S
C754 C749 1.350 . S
C755 H742 0.929 . S
C755 C747 1.433 . S
C755 N757 1.384 . S
N756 C752 1.427 . S
N756 C753 1.384 . S
N757 C749 1.427 . S
N757 C755 1.384 . S
H758 C764 0.930 . S
H759 C768 0.930 . S
H760 C773 0.929 . S
H761 C771 0.929 . S
H762 C766 0.929 . S
H763 C772 0.929 . S
C764 H758 0.930 . S
C764 C765 1.367 . S
C764 C772 1.378 . S
C765 C764 1.367 . S
C765 C773 1.433 . S
C766 H762 0.929 . S
C766 C768 1.378 . S
C766 C770 1.350 . S
C767 C770 1.463 . S
C767 C772 1.350 . S
C767 N775 1.427 . S
C768 H759 0.930 . S
C768 C766 1.378 . S
C768 C769 1.367 . S
C769 C768 1.367 . S
C769 C771 1.433 . S
C770 C766 1.350 . S
C770 C767 1.463 . S
C770 N774 1.427 . S
C771 H761 0.929 . S
C771 C769 1.433 . S
C771 N774 1.384 . S
C772 H763 0.929 . S
C772 C764 1.378 . S
C772 C767 1.350 . S
C773 H760 0.929 . S
C773 C765 1.433 . S
C773 N775 1.384 . S
N774 C770 1.427 . S
N774 C771 1.384 . S
N775 C767 1.427 . S
N775 C773 1.384 . S
H776 C782 0.930 . S
H777 C786 0.930 . S
H778 C791 0.929 . S
H779 C789 0.929 . S
H780 C784 0.929 . S
H781 C790 0.929 . S
C782 H776 0.930 . S
C782 C783 1.367 . S
C782 C790 1.378 . S
C783 C782 1.367 . S
C783 C791 1.433 . S
C784 H780 0.929 . S
C784 C786 1.378 . S
C784 C788 1.350 . S
C785 C788 1.463 . S
C785 C790 1.350 . S
C785 N793 1.427 . S
C786 H777 0.930 . S
C786 C784 1.378 . S
C786 C787 1.367 . S
C787 C786 1.367 . S
C787 C789 1.433 . S
C788 C784 1.350 . S
C788 C785 1.463 . S
C788 N792 1.427 . S
C789 H779 0.929 . S
C789 C787 1.433 . S
C789 N792 1.384 . S
C790 H781 0.929 . S
C790 C782 1.378 . S
C790 C785 1.350 . S
C791 H778 0.929 . S
C791 C783 1.433 . S
C791 N793 1.384 . S
N792 C788 1.427 . S
N792 C789 1.384 . S
N793 C785 1.427 . S
N793 C791 1.384 . S
H794 C800 0.930 . S
H795 C804 0.930 . S
H796 C809 0.929 . S
H797 C807 0.929 . S
H798 C802 0.929 . S
H799 C808 0.929 . S
C800 H794 0.930 . S
C800 C801 1.367 . S
C800 C808 1.378 . S
C801 C800 1.367 . S
C801 C809 1.433 . S
C802 H798 0.929 . S
C802 C804 1.378 . S
C802 C806 1.350 . S
C803 C806 1.463 . S
C803 C808 1.350 . S
C803 N811 1.427 . S
C804 H795 0.930 . S
C804 C802 1.378 . S
C804 C805 1.367 . S
C805 C804 1.367 . S
C805 C807 1.433 . S
C806 C802 1.350 . S
C806 C803 1.463 . S
C806 N810 1.427 . S
C807 H797 0.929 . S
C807 C805 1.433 . S
C807 N810 1.384 . S
C808 H799 0.929 . S
C808 C800 1.378 . S
C808 C803 1.350 . S
C809 H796 0.929 . S
C809 C801 1.433 . S
C809 N811 1.384 . S
N810 C806 1.427 . S
N810 C807 1.384 . S
N811 C803 1.427 . S
N811 C809 1.384 . S
H812 C818 0.930 . S
H813 C822 0.930 . S
H814 C827 0.929 . S
H815 C825 0.929 . S
H816 C820 0.929 . S
H817 C826 0.929 . S
C818 H812 0.930 . S
C818 C819 1.367 . S
C818 C826 1.378 . S
C819 C818 1.367 . S
C819 C827 1.433 . S
C820 H816 0.929 . S
C820 C822 1.378 . S
C820 C824 1.350 . S
C821 C824 1.463 . S
C821 C826 1.350 . S
C821 N829 1.427 . S
C822 H813 0.930 . S
C822 C820 1.378 . S
C822 C823 1.367 . S
C823 C822 1.367 . S
C823 C825 1.433 . S
C824 C820 1.350 . S
C824 C821 1.463 . S
C824 N828 1.427 . S
C825 H815 0.929 . S
C825 C823 1.433 . S
C825 N828 1.384 . S
C826 H817 0.929 . S
C826 C818 1.378 . S
C826 C821 1.350 . S
C827 H814 0.929 . S
C827 C819 1.433 . S
C827 N829 1.384 . S
N828 C824 1.427 . S
N828 C825 1.384 . S
N829 C821 1.427 . S
N829 C827 1.384 . S
H830 C836 0.930 . S
H831 C840 0.930 . S
H832 C845 0.929 . S
H833 C843 0.929 . S
H834 C838 0.929 . S
H835 C844 0.929 . S
C836 H830 0.930 . S
C836 C837 1.367 . S
C836 C844 1.378 . S
C837 C836 1.367 . S
C837 C845 1.433 . S
C838 H834 0.929 . S
C838 C840 1.378 . S
C838 C842 1.350 . S
C839 C842 1.463 . S
C839 C844 1.350 . S
C839 N847 1.427 . S
C840 H831 0.930 . S
C840 C838 1.378 . S
C840 C841 1.367 . S
C841 C840 1.367 . S
C841 C843 1.433 . S
C842 C838 1.350 . S
C842 C839 1.463 . S
C842 N846 1.427 . S
C843 H833 0.929 . S
C843 C841 1.433 . S
C843 N846 1.384 . S
C844 H835 0.929 . S
C844 C836 1.378 . S
C844 C839 1.350 . S
C845 H832 0.929 . S
C845 C837 1.433 . S
C845 N847 1.384 . S
N846 C842 1.427 . S
N846 C843 1.384 . S
N847 C839 1.427 . S
N847 C845 1.384 . S
H848 C854 0.930 . S
H849 C858 0.930 . S
H850 C863 0.929 . S
H851 C861 0.929 . S
H852 C856 0.929 . S
H853 C862 0.929 . S
C854 H848 0.930 . S
C854 C855 1.367 . S
C854 C862 1.378 . S
C855 C854 1.367 . S
C855 C863 1.433 . S
C856 H852 0.929 . S
C856 C858 1.378 . S
C856 C860 1.350 . S
C857 C860 1.463 . S
C857 C862 1.350 . S
C857 N865 1.427 . S
C858 H849 0.930 . S
C858 C856 1.378 . S
C858 C859 1.367 . S
C859 C858 1.367 . S
C859 C861 1.433 . S
C860 C856 1.350 . S
C860 C857 1.463 . S
C860 N864 1.427 . S
C861 H851 0.929 . S
C861 C859 1.433 . S
C861 N864 1.384 . S
C862 H853 0.929 . S
C862 C854 1.378 . S
C862 C857 1.350 . S
C863 H850 0.929 . S
C863 C855 1.433 . S
C863 N865 1.384 . S
N864 C860 1.427 . S
N864 C861 1.384 . S
N865 C857 1.427 . S
N865 C863 1.384 . S
H866 C872 0.930 . S
H867 C876 0.910 1_544 S
H868 C881 0.929 . S
H869 C879 0.929 . S
H870 C874 0.929 . S
H871 C880 0.929 . S
C872 H866 0.930 . S
C872 C873 1.367 . S
C872 C880 1.378 . S
C873 C872 1.367 . S
C873 C881 1.433 . S
C874 H870 0.929 . S
C874 C876 1.378 . S
C874 C878 1.350 . S
C875 C878 1.463 . S
C875 C880 1.350 . S
C875 N883 1.427 . S
C876 H867 0.910 1_566 S
C876 C874 1.378 . S
C876 C877 1.367 . S
C877 C876 1.367 . S
C877 C879 1.433 . S
C878 C874 1.350 . S
C878 C875 1.463 . S
C878 N882 1.427 . S
C879 H869 0.929 . S
C879 C877 1.433 . S
C879 N882 1.384 . S
C880 H871 0.929 . S
C880 C872 1.378 . S
C880 C875 1.350 . S
C881 H868 0.929 . S
C881 C873 1.433 . S
C881 N883 1.384 . S
N882 C878 1.427 . S
N882 C879 1.384 . S
N883 C875 1.427 . S
N883 C881 1.384 . S
H884 C890 0.930 . S
H885 C894 0.930 . S
H886 C899 0.929 . S
H887 C897 0.929 . S
H888 C892 0.929 . S
H889 C898 0.929 . S
C890 H884 0.930 . S
C890 C891 1.367 . S
C890 C898 1.378 . S
C891 C890 1.367 . S
C891 C899 1.433 . S
C892 H888 0.929 . S
C892 C894 1.378 . S
C892 C896 1.350 . S
C893 C896 1.463 . S
C893 C898 1.350 . S
C893 N901 1.427 . S
C894 H885 0.930 . S
C894 C892 1.378 . S
C894 C895 1.367 . S
C895 C894 1.367 . S
C895 C897 1.433 . S
C896 C892 1.350 . S
C896 C893 1.463 . S
C896 N900 1.427 . S
C897 H887 0.929 . S
C897 C895 1.433 . S
C897 N900 1.384 . S
C898 H889 0.929 . S
C898 C890 1.378 . S
C898 C893 1.350 . S
C899 H886 0.929 . S
C899 C891 1.433 . S
C899 N901 1.384 . S
N900 C896 1.427 . S
N900 C897 1.384 . S
N901 C893 1.427 . S
N901 C899 1.384 . S
H902 C908 0.930 . S
H903 C912 0.930 . S
H904 C917 0.929 . S
H905 C915 0.929 1_545 S
H906 C910 0.929 . S
H907 C916 0.929 . S
C908 H902 0.930 . S
C908 C909 1.367 . S
C908 C916 1.378 . S
C909 C908 1.367 . S
C909 C917 1.433 . S
C910 H906 0.929 . S
C910 C912 1.378 . S
C910 C914 1.350 . S
C911 C914 1.463 . S
C911 C916 1.350 . S
C911 N919 1.427 . S
C912 H903 0.930 . S
C912 C910 1.378 . S
C912 C913 1.367 . S
C913 C912 1.367 . S
C913 C915 1.433 . S
C914 C910 1.350 . S
C914 C911 1.463 . S
C914 N918 1.427 . S
C915 H905 0.929 1_565 S
C915 C913 1.433 . S
C915 N918 1.384 . S
C916 H907 0.929 . S
C916 C908 1.378 . S
C916 C911 1.350 . S
C917 H904 0.929 . S
C917 C909 1.433 . S
C917 N919 1.384 . S
N918 C914 1.427 . S
N918 C915 1.384 . S
N919 C911 1.427 . S
N919 C917 1.384 . S
H920 C926 0.930 . S
H921 C930 0.930 . S
H922 C935 0.929 . S
H923 C933 0.929 . S
H924 C928 0.929 . S
H925 C934 0.929 . S
C926 H920 0.930 . S
C926 C927 1.367 . S
C926 C934 1.378 . S
C927 C926 1.367 . S
C927 C935 1.433 . S
C928 H924 0.929 . S
C928 C930 1.378 . S
C928 C932 1.350 . S
C929 C932 1.463 . S
C929 C934 1.350 . S
C929 N937 1.427 . S
C930 H921 0.930 . S
C930 C928 1.378 . S
C930 C931 1.367 . S
C931 C930 1.367 . S
C931 C933 1.433 . S
C932 C928 1.350 . S
C932 C929 1.463 . S
C932 N936 1.427 . S
C933 H923 0.929 . S
C933 C931 1.433 . S
C933 N936 1.384 . S
C934 H925 0.929 . S
C934 C926 1.378 . S
C934 C929 1.350 . S
C935 H922 0.929 . S
C935 C927 1.433 . S
C935 N937 1.384 . S
N936 C932 1.427 . S
N936 C933 1.384 . S
N937 C929 1.427 . S
N937 C935 1.384 . S
H938 C944 0.930 . S
H939 C948 0.930 . S
H940 C953 0.929 . S
H941 C951 0.929 . S
H942 C946 0.929 . S
H943 C952 0.929 . S
C944 H938 0.930 . S
C944 C945 1.367 . S
C944 C952 1.378 . S
C945 C944 1.367 . S
C945 C953 1.433 . S
C946 H942 0.929 . S
C946 C948 1.378 . S
C946 C950 1.350 . S
C947 C950 1.463 . S
C947 C952 1.350 . S
C947 N955 1.427 . S
C948 H939 0.930 . S
C948 C946 1.378 . S
C948 C949 1.367 . S
C949 C948 1.367 . S
C949 C951 1.433 . S
C950 C946 1.350 . S
C950 C947 1.463 . S
C950 N954 1.427 . S
C951 H941 0.929 . S
C951 C949 1.433 . S
C951 N954 1.384 . S
C952 H943 0.929 . S
C952 C944 1.378 . S
C952 C947 1.350 . S
C953 H940 0.929 . S
C953 C945 1.433 . S
C953 N955 1.384 . S
N954 C950 1.427 . S
N954 C951 1.384 . S
N955 C947 1.427 . S
N955 C953 1.384 . S
H956 C962 0.930 . S
H957 C966 0.930 . S
H958 C971 0.929 . S
H959 C969 0.929 . S
H960 C964 0.929 . S
H961 C970 0.929 . S
C962 H956 0.930 . S
C962 C963 1.367 . S
C962 C970 1.378 . S
C963 C962 1.367 . S
C963 C971 1.433 . S
C964 H960 0.929 . S
C964 C966 1.378 . S
C964 C968 1.350 . S
C965 C968 1.463 . S
C965 C970 1.350 . S
C965 N973 1.427 . S
C966 H957 0.930 . S
C966 C964 1.378 . S
C966 C967 1.367 . S
C967 C966 1.367 . S
C967 C969 1.433 . S
C968 C964 1.350 . S
C968 C965 1.463 . S
C968 N972 1.427 . S
C969 H959 0.929 . S
C969 C967 1.433 . S
C969 N972 1.384 . S
C970 H961 0.929 . S
C970 C962 1.378 . S
C970 C965 1.350 . S
C971 H958 0.929 . S
C971 C963 1.433 . S
C971 N973 1.384 . S
N972 C968 1.427 . S
N972 C969 1.384 . S
N973 C965 1.427 . S
N973 C971 1.384 . S
H974 C980 0.930 . S
H975 C984 0.930 . S
H976 C989 0.929 . S
H977 C987 0.929 . S
H978 C982 0.929 . S
H979 C988 0.929 . S
C980 H974 0.930 . S
C980 C981 1.367 . S
C980 C988 1.378 . S
C981 C980 1.367 . S
C981 C989 1.433 . S
C982 H978 0.929 . S
C982 C984 1.378 . S
C982 C986 1.350 . S
C983 C986 1.463 . S
C983 C988 1.350 . S
C983 N991 1.427 . S
C984 H975 0.930 . S
C984 C982 1.378 . S
C984 C985 1.367 . S
C985 C984 1.367 . S
C985 C987 1.433 . S
C986 C982 1.350 . S
C986 C983 1.463 . S
C986 N990 1.427 . S
C987 H977 0.929 . S
C987 C985 1.433 . S
C987 N990 1.384 . S
C988 H979 0.929 . S
C988 C980 1.378 . S
C988 C983 1.350 . S
C989 H976 0.929 . S
C989 C981 1.433 . S
C989 N991 1.384 . S
N990 C986 1.427 . S
N990 C987 1.384 . S
N991 C983 1.427 . S
N991 C989 1.384 . S
H992 C998 0.930 . S
H993 C1002 0.930 . S
H994 C1007 0.929 . S
H995 C1005 0.929 . S
H996 C1000 0.929 . S
H997 C1006 0.929 . S
C998 H992 0.930 . S
C998 C999 1.367 . S
C998 C1006 1.378 . S
C999 C998 1.367 . S
C999 C1007 1.433 . S
C1000 H996 0.929 . S
C1000 C1002 1.378 . S
C1000 C1004 1.350 . S
C1001 C1004 1.463 . S
C1001 C1006 1.350 . S
C1001 N1009 1.427 . S
C1002 H993 0.930 . S
C1002 C1000 1.378 . S
C1002 C1003 1.367 . S
C1003 C1002 1.367 . S
C1003 C1005 1.433 . S
C1004 C1000 1.350 . S
C1004 C1001 1.463 . S
C1004 N1008 1.427 . S
C1005 H995 0.929 . S
C1005 C1003 1.433 . S
C1005 N1008 1.384 . S
C1006 H997 0.929 . S
C1006 C998 1.378 . S
C1006 C1001 1.350 . S
C1007 H994 0.929 . S
C1007 C999 1.433 . S
C1007 N1009 1.384 . S
N1008 C1004 1.427 . S
N1008 C1005 1.384 . S
N1009 C1001 1.427 . S
N1009 C1007 1.384 . S
H1010 C1016 0.930 . S
H1011 C1020 0.930 . S
H1012 C1025 0.929 . S
H1013 C1023 0.929 . S
H1014 C1018 0.929 . S
H1015 C1024 0.929 . S
C1016 H1010 0.930 . S
C1016 C1017 1.367 . S
C1016 C1024 1.378 . S
C1017 C1016 1.367 . S
C1017 C1025 1.433 . S
C1018 H1014 0.929 . S
C1018 C1020 1.378 . S
C1018 C1022 1.350 . S
C1019 C1022 1.463 . S
C1019 C1024 1.350 . S
C1019 N1027 1.427 . S
C1020 H1011 0.930 . S
C1020 C1018 1.378 . S
C1020 C1021 1.367 . S
C1021 C1020 1.367 . S
C1021 C1023 1.433 . S
C1022 C1018 1.350 . S
C1022 C1019 1.463 . S
C1022 N1026 1.427 . S
C1023 H1013 0.929 . S
C1023 C1021 1.433 . S
C1023 N1026 1.384 . S
C1024 H1015 0.929 . S
C1024 C1016 1.378 . S
C1024 C1019 1.350 . S
C1025 H1012 0.929 . S
C1025 C1017 1.433 . S
C1025 N1027 1.384 . S
N1026 C1022 1.427 . S
N1026 C1023 1.384 . S
N1027 C1019 1.427 . S
N1027 C1025 1.384 . S
H1028 C1034 0.930 . S
H1029 C1038 0.930 . S
H1030 C1043 0.929 . S
H1031 C1041 0.929 . S
H1032 C1036 0.929 . S
H1033 C1042 0.929 . S
C1034 H1028 0.930 . S
C1034 C1035 1.367 . S
C1034 C1042 1.378 . S
C1035 C1034 1.367 . S
C1035 C1043 1.433 . S
C1036 H1032 0.929 . S
C1036 C1038 1.378 . S
C1036 C1040 1.350 . S
C1037 C1040 1.463 . S
C1037 C1042 1.350 . S
C1037 N1045 1.427 . S
C1038 H1029 0.930 . S
C1038 C1036 1.378 . S
C1038 C1039 1.367 . S
C1039 C1038 1.367 . S
C1039 C1041 1.433 . S
C1040 C1036 1.350 . S
C1040 C1037 1.463 . S
C1040 N1044 1.427 . S
C1041 H1031 0.929 . S
C1041 C1039 1.433 . S
C1041 N1044 1.384 . S
C1042 H1033 0.929 . S
C1042 C1034 1.378 . S
C1042 C1037 1.350 . S
C1043 H1030 0.929 . S
C1043 C1035 1.433 . S
C1043 N1045 1.384 . S
N1044 C1040 1.427 . S
N1044 C1041 1.384 . S
N1045 C1037 1.427 . S
N1045 C1043 1.384 . S
H1046 C1052 0.930 . S
H1047 C1056 0.930 . S
H1048 C1061 0.929 . S
H1049 C1059 0.929 . S
H1050 C1054 0.929 . S
H1051 C1060 0.929 . S
C1052 H1046 0.930 . S
C1052 C1053 1.367 . S
C1052 C1060 1.378 . S
C1053 C1052 1.367 . S
C1053 C1061 1.433 . S
C1054 H1050 0.929 . S
C1054 C1056 1.378 . S
C1054 C1058 1.350 . S
C1055 C1058 1.463 . S
C1055 C1060 1.350 . S
C1055 N1063 1.427 . S
C1056 H1047 0.930 . S
C1056 C1054 1.378 . S
C1056 C1057 1.367 . S
C1057 C1056 1.367 . S
C1057 C1059 1.433 . S
C1058 C1054 1.350 . S
C1058 C1055 1.463 . S
C1058 N1062 1.427 . S
C1059 H1049 0.929 . S
C1059 C1057 1.433 . S
C1059 N1062 1.384 . S
C1060 H1051 0.929 . S
C1060 C1052 1.378 . S
C1060 C1055 1.350 . S
C1061 H1048 0.929 . S
C1061 C1053 1.433 . S
C1061 N1063 1.384 . S
N1062 C1058 1.427 . S
N1062 C1059 1.384 . S
N1063 C1055 1.427 . S
N1063 C1061 1.384 . S
H1064 C1070 0.930 . S
H1065 C1074 0.930 . S
H1066 C1079 0.929 . S
H1067 C1077 0.929 . S
H1068 C1072 0.929 . S
H1069 C1078 0.929 . S
C1070 H1064 0.930 . S
C1070 C1071 1.367 . S
C1070 C1078 1.378 . S
C1071 C1070 1.367 . S
C1071 C1079 1.433 . S
C1072 H1068 0.929 . S
C1072 C1074 1.378 . S
C1072 C1076 1.350 . S
C1073 C1076 1.463 . S
C1073 C1078 1.350 . S
C1073 N1081 1.427 . S
C1074 H1065 0.930 . S
C1074 C1072 1.378 . S
C1074 C1075 1.367 . S
C1075 C1074 1.367 . S
C1075 C1077 1.433 . S
C1076 C1072 1.350 . S
C1076 C1073 1.463 . S
C1076 N1080 1.427 . S
C1077 H1067 0.929 . S
C1077 C1075 1.433 . S
C1077 N1080 1.384 . S
C1078 H1069 0.929 . S
C1078 C1070 1.378 . S
C1078 C1073 1.350 . S
C1079 H1066 0.929 . S
C1079 C1071 1.433 . S
C1079 N1081 1.384 . S
N1080 C1076 1.427 . S
N1080 C1077 1.384 . S
N1081 C1073 1.427 . S
N1081 C1079 1.384 . S
H1082 C1088 0.930 . S
H1083 C1092 0.930 . S
H1084 C1097 0.929 . S
H1085 C1095 0.929 . S
H1086 C1090 0.929 . S
H1087 C1096 0.929 . S
C1088 H1082 0.930 . S
C1088 C1089 1.367 . S
C1088 C1096 1.378 . S
C1089 C1088 1.367 . S
C1089 C1097 1.433 . S
C1090 H1086 0.929 . S
C1090 C1092 1.378 . S
C1090 C1094 1.350 . S
C1091 C1094 1.463 . S
C1091 C1096 1.350 . S
C1091 N1099 1.427 . S
C1092 H1083 0.930 . S
C1092 C1090 1.378 . S
C1092 C1093 1.367 . S
C1093 C1092 1.367 . S
C1093 C1095 1.433 . S
C1094 C1090 1.350 . S
C1094 C1091 1.463 . S
C1094 N1098 1.427 . S
C1095 H1085 0.929 . S
C1095 C1093 1.433 . S
C1095 N1098 1.384 . S
C1096 H1087 0.929 . S
C1096 C1088 1.378 . S
C1096 C1091 1.350 . S
C1097 H1084 0.929 . S
C1097 C1089 1.433 . S
C1097 N1099 1.384 . S
N1098 C1094 1.427 . S
N1098 C1095 1.384 . S
N1099 C1091 1.427 . S
N1099 C1097 1.384 . S
H1100 C1106 0.930 . S
H1101 C1110 0.930 . S
H1102 C1115 0.929 . S
H1103 C1113 0.929 . S
H1104 C1108 0.929 . S
H1105 C1114 0.929 . S
C1106 H1100 0.930 . S
C1106 C1107 1.367 . S
C1106 C1114 1.378 . S
C1107 C1106 1.367 . S
C1107 C1115 1.433 . S
C1108 H1104 0.929 . S
C1108 C1110 1.378 . S
C1108 C1112 1.350 . S
C1109 C1112 1.463 . S
C1109 C1114 1.350 . S
C1109 N1117 1.427 . S
C1110 H1101 0.930 . S
C1110 C1108 1.378 . S
C1110 C1111 1.367 . S
C1111 C1110 1.367 . S
C1111 C1113 1.433 . S
C1112 C1108 1.350 . S
C1112 C1109 1.463 . S
C1112 N1116 1.427 . S
C1113 H1103 0.929 . S
C1113 C1111 1.433 . S
C1113 N1116 1.384 . S
C1114 H1105 0.929 . S
C1114 C1106 1.378 . S
C1114 C1109 1.350 . S
C1115 H1102 0.929 . S
C1115 C1107 1.433 . S
C1115 N1117 1.384 . S
N1116 C1112 1.427 . S
N1116 C1113 1.384 . S
N1117 C1109 1.427 . S
N1117 C1115 1.384 . S
H1118 C1124 0.930 . S
H1119 C1128 0.930 . S
H1120 C1133 0.929 . S
H1121 C1131 0.929 . S
H1122 C1126 0.929 . S
H1123 C1132 0.929 . S
C1124 H1118 0.930 . S
C1124 C1125 1.367 . S
C1124 C1132 1.378 . S
C1125 C1124 1.367 . S
C1125 C1133 1.433 . S
C1126 H1122 0.929 . S
C1126 C1128 1.378 . S
C1126 C1130 1.350 . S
C1127 C1130 1.463 . S
C1127 C1132 1.350 . S
C1127 N1135 1.427 . S
C1128 H1119 0.930 . S
C1128 C1126 1.378 . S
C1128 C1129 1.367 . S
C1129 C1128 1.367 . S
C1129 C1131 1.433 . S
C1130 C1126 1.350 . S
C1130 C1127 1.463 . S
C1130 N1134 1.427 . S
C1131 H1121 0.929 . S
C1131 C1129 1.433 . S
C1131 N1134 1.384 . S
C1132 H1123 0.929 . S
C1132 C1124 1.378 . S
C1132 C1127 1.350 . S
C1133 H1120 0.929 . S
C1133 C1125 1.433 . S
C1133 N1135 1.384 . S
N1134 C1130 1.427 . S
N1134 C1131 1.384 . S
N1135 C1127 1.427 . S
N1135 C1133 1.384 . S
H1136 C1142 0.930 . S
H1137 C1146 0.930 . S
H1138 C1151 0.929 . S
H1139 C1149 0.929 . S
H1140 C1144 0.929 . S
H1141 C1150 0.929 . S
C1142 H1136 0.930 . S
C1142 C1143 1.367 . S
C1142 C1150 1.378 . S
C1143 C1142 1.367 . S
C1143 C1151 1.433 . S
C1144 H1140 0.929 . S
C1144 C1146 1.378 . S
C1144 C1148 1.350 . S
C1145 C1148 1.463 . S
C1145 C1150 1.350 . S
C1145 N1153 1.427 . S
C1146 H1137 0.930 . S
C1146 C1144 1.378 . S
C1146 C1147 1.367 . S
C1147 C1146 1.367 . S
C1147 C1149 1.433 . S
C1148 C1144 1.350 . S
C1148 C1145 1.463 . S
C1148 N1152 1.427 . S
C1149 H1139 0.929 . S
C1149 C1147 1.433 . S
C1149 N1152 1.384 . S
C1150 H1141 0.929 . S
C1150 C1142 1.378 . S
C1150 C1145 1.350 . S
C1151 H1138 0.929 . S
C1151 C1143 1.433 . S
C1151 N1153 1.384 . S
N1152 C1148 1.427 . S
N1152 C1149 1.384 . S
N1153 C1145 1.427 . S
N1153 C1151 1.384 . S
H1154 C1160 0.930 . S
H1155 C1164 0.930 . S
H1156 C1169 0.929 . S
H1157 C1167 0.929 . S
H1158 C1162 0.929 . S
H1159 C1168 0.929 . S
C1160 H1154 0.930 . S
C1160 C1161 1.367 . S
C1160 C1168 1.378 . S
C1161 C1160 1.367 . S
C1161 C1169 1.433 . S
C1162 H1158 0.929 . S
C1162 C1164 1.378 . S
C1162 C1166 1.350 . S
C1163 C1166 1.463 . S
C1163 C1168 1.350 . S
C1163 N1171 1.427 . S
C1164 H1155 0.930 . S
C1164 C1162 1.378 . S
C1164 C1165 1.367 . S
C1165 C1164 1.367 . S
C1165 C1167 1.433 . S
C1166 C1162 1.350 . S
C1166 C1163 1.463 . S
C1166 N1170 1.427 . S
C1167 H1157 0.929 . S
C1167 C1165 1.433 . S
C1167 N1170 1.384 . S
C1168 H1159 0.929 . S
C1168 C1160 1.378 . S
C1168 C1163 1.350 . S
C1169 H1156 0.929 . S
C1169 C1161 1.433 . S
C1169 N1171 1.384 . S
N1170 C1166 1.427 . S
N1170 C1167 1.384 . S
N1171 C1163 1.427 . S
N1171 C1169 1.384 . S
H1172 C1178 0.930 . S
H1173 C1182 0.930 . S
H1174 C1187 0.929 . S
H1175 C1185 0.929 . S
H1176 C1180 0.929 . S
H1177 C1186 0.929 . S
C1178 H1172 0.930 . S
C1178 C1179 1.367 . S
C1178 C1186 1.378 . S
C1179 C1178 1.367 . S
C1179 C1187 1.433 . S
C1180 H1176 0.929 . S
C1180 C1182 1.378 . S
C1180 C1184 1.350 . S
C1181 C1184 1.463 . S
C1181 C1186 1.350 . S
C1181 N1189 1.427 . S
C1182 H1173 0.930 . S
C1182 C1180 1.378 . S
C1182 C1183 1.367 . S
C1183 C1182 1.367 . S
C1183 C1185 1.433 . S
C1184 C1180 1.350 . S
C1184 C1181 1.463 . S
C1184 N1188 1.427 . S
C1185 H1175 0.929 . S
C1185 C1183 1.433 . S
C1185 N1188 1.384 . S
C1186 H1177 0.929 . S
C1186 C1178 1.378 . S
C1186 C1181 1.350 . S
C1187 H1174 0.929 . S
C1187 C1179 1.433 . S
C1187 N1189 1.384 . S
N1188 C1184 1.427 . S
N1188 C1185 1.384 . S
N1189 C1181 1.427 . S
N1189 C1187 1.384 . S
H1190 C1196 0.930 . S
H1191 C1200 0.930 . S
H1192 C1205 0.929 . S
H1193 C1203 0.929 . S
H1194 C1198 0.929 . S
H1195 C1204 0.929 . S
C1196 H1190 0.930 . S
C1196 C1197 1.367 . S
C1196 C1204 1.378 . S
C1197 C1196 1.367 . S
C1197 C1205 1.433 . S
C1198 H1194 0.929 . S
C1198 C1200 1.378 . S
C1198 C1202 1.350 . S
C1199 C1202 1.463 . S
C1199 C1204 1.350 . S
C1199 N1207 1.427 . S
C1200 H1191 0.930 . S
C1200 C1198 1.378 . S
C1200 C1201 1.367 . S
C1201 C1200 1.367 . S
C1201 C1203 1.433 . S
C1202 C1198 1.350 . S
C1202 C1199 1.463 . S
C1202 N1206 1.427 . S
C1203 H1193 0.929 . S
C1203 C1201 1.433 . S
C1203 N1206 1.384 . S
C1204 H1195 0.929 . S
C1204 C1196 1.378 . S
C1204 C1199 1.350 . S
C1205 H1192 0.929 . S
C1205 C1197 1.433 . S
C1205 N1207 1.384 . S
N1206 C1202 1.427 . S
N1206 C1203 1.384 . S
N1207 C1199 1.427 . S
N1207 C1205 1.384 . S
H1208 C1214 0.930 . S
H1209 C1218 0.930 . S
H1210 C1223 0.929 . S
H1211 C1221 0.929 . S
H1212 C1216 0.929 . S
H1213 C1222 0.929 . S
C1214 H1208 0.930 . S
C1214 C1215 1.367 . S
C1214 C1222 1.378 . S
C1215 C1214 1.367 . S
C1215 C1223 1.433 . S
C1216 H1212 0.929 . S
C1216 C1218 1.378 . S
C1216 C1220 1.350 . S
C1217 C1220 1.463 . S
C1217 C1222 1.350 . S
C1217 N1225 1.427 . S
C1218 H1209 0.930 . S
C1218 C1216 1.378 . S
C1218 C1219 1.367 . S
C1219 C1218 1.367 . S
C1219 C1221 1.433 . S
C1220 C1216 1.350 . S
C1220 C1217 1.463 . S
C1220 N1224 1.427 . S
C1221 H1211 0.929 . S
C1221 C1219 1.433 . S
C1221 N1224 1.384 . S
C1222 H1213 0.929 . S
C1222 C1214 1.378 . S
C1222 C1217 1.350 . S
C1223 H1210 0.929 . S
C1223 C1215 1.433 . S
C1223 N1225 1.384 . S
N1224 C1220 1.427 . S
N1224 C1221 1.384 . S
N1225 C1217 1.427 . S
N1225 C1223 1.384 . S
H1226 C1232 0.930 . S
H1227 C1236 0.930 . S
H1228 C1241 0.929 . S
H1229 C1239 0.929 . S
H1230 C1234 0.929 . S
H1231 C1240 0.929 . S
C1232 H1226 0.930 . S
C1232 C1233 1.367 . S
C1232 C1240 1.378 . S
C1233 C1232 1.367 . S
C1233 C1241 1.433 . S
C1234 H1230 0.929 . S
C1234 C1236 1.378 . S
C1234 C1238 1.350 . S
C1235 C1238 1.463 . S
C1235 C1240 1.350 . S
C1235 N1243 1.427 . S
C1236 H1227 0.930 . S
C1236 C1234 1.378 . S
C1236 C1237 1.367 . S
C1237 C1236 1.367 . S
C1237 C1239 1.433 . S
C1238 C1234 1.350 . S
C1238 C1235 1.463 . S
C1238 N1242 1.427 . S
C1239 H1229 0.929 . S
C1239 C1237 1.433 . S
C1239 N1242 1.384 . S
C1240 H1231 0.929 . S
C1240 C1232 1.378 . S
C1240 C1235 1.350 . S
C1241 H1228 0.929 . S
C1241 C1233 1.433 . S
C1241 N1243 1.384 . S
N1242 C1238 1.427 . S
N1242 C1239 1.384 . S
N1243 C1235 1.427 . S
N1243 C1241 1.384 . S
H1244 C1250 0.930 . S
H1245 C1254 0.930 . S
H1246 C1259 0.929 . S
H1247 C1257 0.929 . S
H1248 C1252 0.929 . S
H1249 C1258 0.929 . S
C1250 H1244 0.930 . S
C1250 C1251 1.367 . S
C1250 C1258 1.378 . S
C1251 C1250 1.367 . S
C1251 C1259 1.433 . S
C1252 H1248 0.929 . S
C1252 C1254 1.378 . S
C1252 C1256 1.350 . S
C1253 C1256 1.463 . S
C1253 C1258 1.350 . S
C1253 N1261 1.427 . S
C1254 H1245 0.930 . S
C1254 C1252 1.378 . S
C1254 C1255 1.367 . S
C1255 C1254 1.367 . S
C1255 C1257 1.433 . S
C1256 C1252 1.350 . S
C1256 C1253 1.463 . S
C1256 N1260 1.427 . S
C1257 H1247 0.929 . S
C1257 C1255 1.433 . S
C1257 N1260 1.384 . S
C1258 H1249 0.929 . S
C1258 C1250 1.378 . S
C1258 C1253 1.350 . S
C1259 H1246 0.929 . S
C1259 C1251 1.433 . S
C1259 N1261 1.384 . S
N1260 C1256 1.427 . S
N1260 C1257 1.384 . S
N1261 C1253 1.427 . S
N1261 C1259 1.384 . S
H1262 C1268 0.930 . S
H1263 C1272 0.930 . S
H1264 C1277 0.929 . S
H1265 C1275 0.929 . S
H1266 C1270 0.929 . S
H1267 C1276 0.929 . S
C1268 H1262 0.930 . S
C1268 C1269 1.367 . S
C1268 C1276 1.378 . S
C1269 C1268 1.367 . S
C1269 C1277 1.433 . S
C1270 H1266 0.929 . S
C1270 C1272 1.378 . S
C1270 C1274 1.350 . S
C1271 C1274 1.463 . S
C1271 C1276 1.350 . S
C1271 N1279 1.427 . S
C1272 H1263 0.930 . S
C1272 C1270 1.378 . S
C1272 C1273 1.367 . S
C1273 C1272 1.367 . S
C1273 C1275 1.433 . S
C1274 C1270 1.350 . S
C1274 C1271 1.463 . S
C1274 N1278 1.427 . S
C1275 H1265 0.929 . S
C1275 C1273 1.433 . S
C1275 N1278 1.384 . S
C1276 H1267 0.929 . S
C1276 C1268 1.378 . S
C1276 C1271 1.350 . S
C1277 H1264 0.929 . S
C1277 C1269 1.433 . S
C1277 N1279 1.384 . S
N1278 C1274 1.427 . S
N1278 C1275 1.384 . S
N1279 C1271 1.427 . S
N1279 C1277 1.384 . S
H1280 C1286 0.930 . S
H1281 C1290 0.930 . S
H1282 C1295 0.929 . S
H1283 C1293 0.929 . S
H1284 C1288 0.929 . S
H1285 C1294 0.929 . S
C1286 H1280 0.930 . S
C1286 C1287 1.367 . S
C1286 C1294 1.378 . S
C1287 C1286 1.367 . S
C1287 C1295 1.433 . S
C1288 H1284 0.929 . S
C1288 C1290 1.378 . S
C1288 C1292 1.350 . S
C1289 C1292 1.463 . S
C1289 C1294 1.350 . S
C1289 N1297 1.427 . S
C1290 H1281 0.930 . S
C1290 C1288 1.378 . S
C1290 C1291 1.367 . S
C1291 C1290 1.367 . S
C1291 C1293 1.433 . S
C1292 C1288 1.350 . S
C1292 C1289 1.463 . S
C1292 N1296 1.427 . S
C1293 H1283 0.929 . S
C1293 C1291 1.433 . S
C1293 N1296 1.384 . S
C1294 H1285 0.929 . S
C1294 C1286 1.378 . S
C1294 C1289 1.350 . S
C1295 H1282 0.929 . S
C1295 C1287 1.433 . S
C1295 N1297 1.384 . S
N1296 C1292 1.427 . S
N1296 C1293 1.384 . S
N1297 C1289 1.427 . S
N1297 C1295 1.384 . S
H1298 C1304 0.930 . S
H1299 C1308 0.930 . S
H1300 C1313 0.929 . S
H1301 C1311 0.929 . S
H1302 C1306 0.929 . S
H1303 C1312 0.929 . S
C1304 H1298 0.930 . S
C1304 C1305 1.367 . S
C1304 C1312 1.378 . S
C1305 C1304 1.367 . S
C1305 C1313 1.433 . S
C1306 H1302 0.929 . S
C1306 C1308 1.378 . S
C1306 C1310 1.350 . S
C1307 C1310 1.463 . S
C1307 C1312 1.350 . S
C1307 N1315 1.427 . S
C1308 H1299 0.930 . S
C1308 C1306 1.378 . S
C1308 C1309 1.367 . S
C1309 C1308 1.367 . S
C1309 C1311 1.433 . S
C1310 C1306 1.350 . S
C1310 C1307 1.463 . S
C1310 N1314 1.427 . S
C1311 H1301 0.929 . S
C1311 C1309 1.433 . S
C1311 N1314 1.384 . S
C1312 H1303 0.929 . S
C1312 C1304 1.378 . S
C1312 C1307 1.350 . S
C1313 H1300 0.929 . S
C1313 C1305 1.433 . S
C1313 N1315 1.384 . S
N1314 C1310 1.427 . S
N1314 C1311 1.384 . S
N1315 C1307 1.427 . S
N1315 C1313 1.384 . S
H1316 C1322 0.930 . S
H1317 C1326 0.930 . S
H1318 C1331 0.929 . S
H1319 C1329 0.929 . S
H1320 C1324 0.929 . S
H1321 C1330 0.929 . S
C1322 H1316 0.930 . S
C1322 C1323 1.367 . S
C1322 C1330 1.378 . S
C1323 C1322 1.367 . S
C1323 C1331 1.433 . S
C1324 H1320 0.929 . S
C1324 C1326 1.378 . S
C1324 C1328 1.350 . S
C1325 C1328 1.463 . S
C1325 C1330 1.350 . S
C1325 N1333 1.427 . S
C1326 H1317 0.930 . S
C1326 C1324 1.378 . S
C1326 C1327 1.367 . S
C1327 C1326 1.367 . S
C1327 C1329 1.433 . S
C1328 C1324 1.350 . S
C1328 C1325 1.463 . S
C1328 N1332 1.427 . S
C1329 H1319 0.929 . S
C1329 C1327 1.433 . S
C1329 N1332 1.384 . S
C1330 H1321 0.929 . S
C1330 C1322 1.378 . S
C1330 C1325 1.350 . S
C1331 H1318 0.929 . S
C1331 C1323 1.433 . S
C1331 N1333 1.384 . S
N1332 C1328 1.427 . S
N1332 C1329 1.384 . S
N1333 C1325 1.427 . S
N1333 C1331 1.384 . S
H1334 C1340 0.930 . S
H1335 C1344 0.930 . S
H1336 C1349 0.929 . S
H1337 C1347 0.929 . S
H1338 C1342 0.929 . S
H1339 C1348 0.929 . S
C1340 H1334 0.930 . S
C1340 C1341 1.367 . S
C1340 C1348 1.378 . S
C1341 C1340 1.367 . S
C1341 C1349 1.433 . S
C1342 H1338 0.929 . S
C1342 C1344 1.378 . S
C1342 C1346 1.350 . S
C1343 C1346 1.463 . S
C1343 C1348 1.350 . S
C1343 N1351 1.427 . S
C1344 H1335 0.930 . S
C1344 C1342 1.378 . S
C1344 C1345 1.367 . S
C1345 C1344 1.367 . S
C1345 C1347 1.433 . S
C1346 C1342 1.350 . S
C1346 C1343 1.463 . S
C1346 N1350 1.427 . S
C1347 H1337 0.929 . S
C1347 C1345 1.433 . S
C1347 N1350 1.384 . S
C1348 H1339 0.929 . S
C1348 C1340 1.378 . S
C1348 C1343 1.350 . S
C1349 H1336 0.929 . S
C1349 C1341 1.433 . S
C1349 N1351 1.384 . S
N1350 C1346 1.427 . S
N1350 C1347 1.384 . S
N1351 C1343 1.427 . S
N1351 C1349 1.384 . S
H1352 C1358 0.930 . S
H1353 C1362 0.930 . S
H1354 C1367 0.929 . S
H1355 C1365 0.929 . S
H1356 C1360 0.929 . S
H1357 C1366 0.929 . S
C1358 H1352 0.930 . S
C1358 C1359 1.367 . S
C1358 C1366 1.378 . S
C1359 C1358 1.367 . S
C1359 C1367 1.433 . S
C1360 H1356 0.929 . S
C1360 C1362 1.378 . S
C1360 C1364 1.350 . S
C1361 C1364 1.463 . S
C1361 C1366 1.350 . S
C1361 N1369 1.427 . S
C1362 H1353 0.930 . S
C1362 C1360 1.378 . S
C1362 C1363 1.367 . S
C1363 C1362 1.367 . S
C1363 C1365 1.433 . S
C1364 C1360 1.350 . S
C1364 C1361 1.463 . S
C1364 N1368 1.427 . S
C1365 H1355 0.929 . S
C1365 C1363 1.433 . S
C1365 N1368 1.384 . S
C1366 H1357 0.929 . S
C1366 C1358 1.378 . S
C1366 C1361 1.350 . S
C1367 H1354 0.929 . S
C1367 C1359 1.433 . S
C1367 N1369 1.384 . S
N1368 C1364 1.427 . S
N1368 C1365 1.384 . S
N1369 C1361 1.427 . S
N1369 C1367 1.384 . S
C517 C331 1.607 . S
C513 C2 1.613 . S
C535 C321 0.483 . S
C531 C65 0.362 . S
C553 C322 1.208 . S
C549 C82 1.214 . S
C567 C145 0.804 . S
C571 C344 0.786 . S
C585 C164 0.291 . S
C589 C347 0.503 . S
C607 C330 1.176 . S
C603 C223 1.193 . S
C621 C244 1.012 . S
C625 C320 1.008 . S
C639 C282 1.570 . S
C643 C338 1.562 . S
C661 C351 3.228 . S
C657 C31 3.252 . S
C675 C60 1.865 . S
C679 C400 1.838 . S
C697 C378 3.353 . S
C693 C111 3.414 . S
C715 C392 1.348 . S
C711 C140 1.364 . S
C729 C162 1.401 . S
C733 C353 1.370 . S
C751 C406 1.265 . S
C747 C225 1.326 . S
C765 C242 1.951 . S
C769 C362 1.893 . S
C783 C311 2.473 . S
C787 C383 2.435 . S
C801 C4 1.022 . S
C805 C409 1.011 . S
C819 C191 1.163 . S
C823 C393 1.110 . S
C841 C352 2.974 . S
C837 C220 2.979 . S
C859 C384 0.843 . S
C855 C271 0.880 . S
C873 C284 1.581 . S
C877 C375 1.575 1_556 S
C891 C84 1.004 . S
C895 C382 0.999 . S
C913 C369 1.182 . S
C909 C143 1.201 . S
C927 C63 0.931 . S
C931 C361 0.925 . S
C945 C303 1.563 . S
C949 C424 1.565 . S
C963 C185 0.297 . S
C967 C414 0.511 . S
C985 C415 1.173 . S
C981 C202 1.199 . S
C1003 C437 1.008 . S
C999 C265 1.013 . S
C1017 C44 0.363 . S
C1021 C440 0.432 . S
C1039 C423 1.204 . S
C1035 C103 1.218 . S
C1053 C124 0.797 . S
C1057 C413 0.810 . S
C1071 C23 1.607 . S
C1075 C431 1.600 . S
C1089 C305 1.591 . S
C1093 C444 1.576 . S
C1111 C493 1.122 . S
C1107 C180 1.170 . S
C1125 C231 2.979 . S
C1129 C471 2.974 . S
C1143 C260 0.892 . S
C1147 C485 0.876 . S
C1165 C446 0.927 . S
C1161 C42 0.936 . S
C1179 C105 0.992 . S
C1183 C499 0.978 . S
C1201 C455 1.189 . S
C1197 C122 1.213 . S
C1219 C476 1.010 . S
C1215 C25 1.030 . S
C1237 C502 2.440 . S
C1233 C300 2.471 . S
C1251 C71 1.865 . S
C1255 C486 1.840 . S
C1269 C100 3.415 . S
C1273 C445 3.354 . S
C1291 C477 1.335 . S
C1287 C151 1.364 . S
C1305 C20 3.256 . S
C1309 C468 3.224 . S
C1323 C204 1.323 . S
C1327 C475 1.265 . S
C1345 C462 1.882 . S
C1341 C263 1.950 . S
C1363 C454 1.370 . S
C1359 C183 1.402 . S
