# Generated by pormake.
# Topology gar, (4,6)-cn, num edge types: 1
# Building blocks:
#     Node 0, Type 0, BuildingBlock: AZAVOO_clean_sbu_0, # of connection points: 4
#     Node 1, Type 0, BuildingBlock: AZAVOO_clean_sbu_0, # of connection points: 4
#     Node 2, Type 0, BuildingBlock: AZAVOO_clean_sbu_0, # of connection points: 4
#     Node 3, Type 0, BuildingBlock: AZAVOO_clean_sbu_0, # of connection points: 4
#     Node 4, Type 0, BuildingBlock: AZAVOO_clean_sbu_0, # of connection points: 4
#     Node 5, Type 0, BuildingBlock: AZAVOO_clean_sbu_0, # of connection points: 4
#     Node 6, Type 0, BuildingBlock: AZAVOO_clean_sbu_0, # of connection points: 4
#     Node 7, Type 0, BuildingBlock: AZAVOO_clean_sbu_0, # of connection points: 4
#     Node 8, Type 0, BuildingBlock: AZAVOO_clean_sbu_0, # of connection points: 4
#     Node 9, Type 0, BuildingBlock: AZAVOO_clean_sbu_0, # of connection points: 4
#     Node 10, Type 0, BuildingBlock: AZAVOO_clean_sbu_0, # of connection points: 4
#     Node 11, Type 0, BuildingBlock: AZAVOO_clean_sbu_0, # of connection points: 4
#     Node 12, Type 0, BuildingBlock: AZAVOO_clean_sbu_0, # of connection points: 4
#     Node 13, Type 0, BuildingBlock: AZAVOO_clean_sbu_0, # of connection points: 4
#     Node 14, Type 0, BuildingBlock: AZAVOO_clean_sbu_0, # of connection points: 4
#     Node 15, Type 0, BuildingBlock: AZAVOO_clean_sbu_0, # of connection points: 4
#     Node 16, Type 0, BuildingBlock: AZAVOO_clean_sbu_0, # of connection points: 4
#     Node 17, Type 0, BuildingBlock: AZAVOO_clean_sbu_0, # of connection points: 4
#     Node 18, Type 0, BuildingBlock: AZAVOO_clean_sbu_0, # of connection points: 4
#     Node 19, Type 0, BuildingBlock: AZAVOO_clean_sbu_0, # of connection points: 4
#     Node 20, Type 0, BuildingBlock: AZAVOO_clean_sbu_0, # of connection points: 4
#     Node 21, Type 0, BuildingBlock: AZAVOO_clean_sbu_0, # of connection points: 4
#     Node 22, Type 0, BuildingBlock: AZAVOO_clean_sbu_0, # of connection points: 4
#     Node 23, Type 0, BuildingBlock: AZAVOO_clean_sbu_0, # of connection points: 4
#     Node 24, Type 1, BuildingBlock: KUMBOL_clean_sbu_1, # of connection points: 6
#     Node 25, Type 1, BuildingBlock: KUMBOL_clean_sbu_1, # of connection points: 6
#     Node 26, Type 1, BuildingBlock: KUMBOL_clean_sbu_1, # of connection points: 6
#     Node 27, Type 1, BuildingBlock: KUMBOL_clean_sbu_1, # of connection points: 6
#     Node 28, Type 1, BuildingBlock: KUMBOL_clean_sbu_1, # of connection points: 6
#     Node 29, Type 1, BuildingBlock: KUMBOL_clean_sbu_1, # of connection points: 6
#     Node 30, Type 1, BuildingBlock: KUMBOL_clean_sbu_1, # of connection points: 6
#     Node 31, Type 1, BuildingBlock: KUMBOL_clean_sbu_1, # of connection points: 6
#     Node 32, Type 1, BuildingBlock: KUMBOL_clean_sbu_1, # of connection points: 6
#     Node 33, Type 1, BuildingBlock: KUMBOL_clean_sbu_1, # of connection points: 6
#     Node 34, Type 1, BuildingBlock: KUMBOL_clean_sbu_1, # of connection points: 6
#     Node 35, Type 1, BuildingBlock: KUMBOL_clean_sbu_1, # of connection points: 6
#     Node 36, Type 1, BuildingBlock: KUMBOL_clean_sbu_1, # of connection points: 6
#     Node 37, Type 1, BuildingBlock: KUMBOL_clean_sbu_1, # of connection points: 6
#     Node 38, Type 1, BuildingBlock: KUMBOL_clean_sbu_1, # of connection points: 6
#     Node 39, Type 1, BuildingBlock: KUMBOL_clean_sbu_1, # of connection points: 6
#     Edge 40, Type (0, 1), BuildingBlock: EZIPEK_clean_linker_0, # of connection points: 2
#     Edge 41, Type (0, 1), BuildingBlock: EZIPEK_clean_linker_0, # of connection points: 2
#     Edge 42, Type (0, 1), BuildingBlock: EZIPEK_clean_linker_0, # of connection points: 2
#     Edge 43, Type (0, 1), BuildingBlock: EZIPEK_clean_linker_0, # of connection points: 2
#     Edge 44, Type (0, 1), BuildingBlock: EZIPEK_clean_linker_0, # of connection points: 2
#     Edge 45, Type (0, 1), BuildingBlock: EZIPEK_clean_linker_0, # of connection points: 2
#     Edge 46, Type (0, 1), BuildingBlock: EZIPEK_clean_linker_0, # of connection points: 2
#     Edge 47, Type (0, 1), BuildingBlock: EZIPEK_clean_linker_0, # of connection points: 2
#     Edge 48, Type (0, 1), BuildingBlock: EZIPEK_clean_linker_0, # of connection points: 2
#     Edge 49, Type (0, 1), BuildingBlock: EZIPEK_clean_linker_0, # of connection points: 2
#     Edge 50, Type (0, 1), BuildingBlock: EZIPEK_clean_linker_0, # of connection points: 2
#     Edge 51, Type (0, 1), BuildingBlock: EZIPEK_clean_linker_0, # of connection points: 2
#     Edge 52, Type (0, 1), BuildingBlock: EZIPEK_clean_linker_0, # of connection points: 2
#     Edge 53, Type (0, 1), BuildingBlock: EZIPEK_clean_linker_0, # of connection points: 2
#     Edge 54, Type (0, 1), BuildingBlock: EZIPEK_clean_linker_0, # of connection points: 2
#     Edge 55, Type (0, 1), BuildingBlock: EZIPEK_clean_linker_0, # of connection points: 2
#     Edge 56, Type (0, 1), BuildingBlock: EZIPEK_clean_linker_0, # of connection points: 2
#     Edge 57, Type (0, 1), BuildingBlock: EZIPEK_clean_linker_0, # of connection points: 2
#     Edge 58, Type (0, 1), BuildingBlock: EZIPEK_clean_linker_0, # of connection points: 2
#     Edge 59, Type (0, 1), BuildingBlock: EZIPEK_clean_linker_0, # of connection points: 2
#     Edge 60, Type (0, 1), BuildingBlock: EZIPEK_clean_linker_0, # of connection points: 2
#     Edge 61, Type (0, 1), BuildingBlock: EZIPEK_clean_linker_0, # of connection points: 2
#     Edge 62, Type (0, 1), BuildingBlock: EZIPEK_clean_linker_0, # of connection points: 2
#     Edge 63, Type (0, 1), BuildingBlock: EZIPEK_clean_linker_0, # of connection points: 2
#     Edge 64, Type (0, 1), BuildingBlock: EZIPEK_clean_linker_0, # of connection points: 2
#     Edge 65, Type (0, 1), BuildingBlock: EZIPEK_clean_linker_0, # of connection points: 2
#     Edge 66, Type (0, 1), BuildingBlock: EZIPEK_clean_linker_0, # of connection points: 2
#     Edge 67, Type (0, 1), BuildingBlock: EZIPEK_clean_linker_0, # of connection points: 2
#     Edge 68, Type (0, 1), BuildingBlock: EZIPEK_clean_linker_0, # of connection points: 2
#     Edge 69, Type (0, 1), BuildingBlock: EZIPEK_clean_linker_0, # of connection points: 2
#     Edge 70, Type (0, 1), BuildingBlock: EZIPEK_clean_linker_0, # of connection points: 2
#     Edge 71, Type (0, 1), BuildingBlock: EZIPEK_clean_linker_0, # of connection points: 2
#     Edge 72, Type (0, 1), BuildingBlock: EZIPEK_clean_linker_0, # of connection points: 2
#     Edge 73, Type (0, 1), BuildingBlock: EZIPEK_clean_linker_0, # of connection points: 2
#     Edge 74, Type (0, 1), BuildingBlock: EZIPEK_clean_linker_0, # of connection points: 2
#     Edge 75, Type (0, 1), BuildingBlock: EZIPEK_clean_linker_0, # of connection points: 2
#     Edge 76, Type (0, 1), BuildingBlock: EZIPEK_clean_linker_0, # of connection points: 2
#     Edge 77, Type (0, 1), BuildingBlock: EZIPEK_clean_linker_0, # of connection points: 2
#     Edge 78, Type (0, 1), BuildingBlock: EZIPEK_clean_linker_0, # of connection points: 2
#     Edge 79, Type (0, 1), BuildingBlock: EZIPEK_clean_linker_0, # of connection points: 2
#     Edge 80, Type (0, 1), BuildingBlock: EZIPEK_clean_linker_0, # of connection points: 2
#     Edge 81, Type (0, 1), BuildingBlock: EZIPEK_clean_linker_0, # of connection points: 2
#     Edge 82, Type (0, 1), BuildingBlock: EZIPEK_clean_linker_0, # of connection points: 2
#     Edge 83, Type (0, 1), BuildingBlock: EZIPEK_clean_linker_0, # of connection points: 2
#     Edge 84, Type (0, 1), BuildingBlock: EZIPEK_clean_linker_0, # of connection points: 2
#     Edge 85, Type (0, 1), BuildingBlock: EZIPEK_clean_linker_0, # of connection points: 2
#     Edge 86, Type (0, 1), BuildingBlock: EZIPEK_clean_linker_0, # of connection points: 2
#     Edge 87, Type (0, 1), BuildingBlock: EZIPEK_clean_linker_0, # of connection points: 2
#     Edge 88, Type (0, 1), BuildingBlock: EZIPEK_clean_linker_0, # of connection points: 2
#     Edge 89, Type (0, 1), BuildingBlock: EZIPEK_clean_linker_0, # of connection points: 2
#     Edge 90, Type (0, 1), BuildingBlock: EZIPEK_clean_linker_0, # of connection points: 2
#     Edge 91, Type (0, 1), BuildingBlock: EZIPEK_clean_linker_0, # of connection points: 2
#     Edge 92, Type (0, 1), BuildingBlock: EZIPEK_clean_linker_0, # of connection points: 2
#     Edge 93, Type (0, 1), BuildingBlock: EZIPEK_clean_linker_0, # of connection points: 2
#     Edge 94, Type (0, 1), BuildingBlock: EZIPEK_clean_linker_0, # of connection points: 2
#     Edge 95, Type (0, 1), BuildingBlock: EZIPEK_clean_linker_0, # of connection points: 2
#     Edge 96, Type (0, 1), BuildingBlock: EZIPEK_clean_linker_0, # of connection points: 2
#     Edge 97, Type (0, 1), BuildingBlock: EZIPEK_clean_linker_0, # of connection points: 2
#     Edge 98, Type (0, 1), BuildingBlock: EZIPEK_clean_linker_0, # of connection points: 2
#     Edge 99, Type (0, 1), BuildingBlock: EZIPEK_clean_linker_0, # of connection points: 2
#     Edge 100, Type (0, 1), BuildingBlock: EZIPEK_clean_linker_0, # of connection points: 2
#     Edge 101, Type (0, 1), BuildingBlock: EZIPEK_clean_linker_0, # of connection points: 2
#     Edge 102, Type (0, 1), BuildingBlock: EZIPEK_clean_linker_0, # of connection points: 2
#     Edge 103, Type (0, 1), BuildingBlock: EZIPEK_clean_linker_0, # of connection points: 2
#     Edge 104, Type (0, 1), BuildingBlock: EZIPEK_clean_linker_0, # of connection points: 2
#     Edge 105, Type (0, 1), BuildingBlock: EZIPEK_clean_linker_0, # of connection points: 2
#     Edge 106, Type (0, 1), BuildingBlock: EZIPEK_clean_linker_0, # of connection points: 2
#     Edge 107, Type (0, 1), BuildingBlock: EZIPEK_clean_linker_0, # of connection points: 2
#     Edge 108, Type (0, 1), BuildingBlock: EZIPEK_clean_linker_0, # of connection points: 2
#     Edge 109, Type (0, 1), BuildingBlock: EZIPEK_clean_linker_0, # of connection points: 2
#     Edge 110, Type (0, 1), BuildingBlock: EZIPEK_clean_linker_0, # of connection points: 2
#     Edge 111, Type (0, 1), BuildingBlock: EZIPEK_clean_linker_0, # of connection points: 2
#     Edge 112, Type (0, 1), BuildingBlock: EZIPEK_clean_linker_0, # of connection points: 2
#     Edge 113, Type (0, 1), BuildingBlock: EZIPEK_clean_linker_0, # of connection points: 2
#     Edge 114, Type (0, 1), BuildingBlock: EZIPEK_clean_linker_0, # of connection points: 2
#     Edge 115, Type (0, 1), BuildingBlock: EZIPEK_clean_linker_0, # of connection points: 2
#     Edge 116, Type (0, 1), BuildingBlock: EZIPEK_clean_linker_0, # of connection points: 2
#     Edge 117, Type (0, 1), BuildingBlock: EZIPEK_clean_linker_0, # of connection points: 2
#     Edge 118, Type (0, 1), BuildingBlock: EZIPEK_clean_linker_0, # of connection points: 2
#     Edge 119, Type (0, 1), BuildingBlock: EZIPEK_clean_linker_0, # of connection points: 2
#     Edge 120, Type (0, 1), BuildingBlock: EZIPEK_clean_linker_0, # of connection points: 2
#     Edge 121, Type (0, 1), BuildingBlock: EZIPEK_clean_linker_0, # of connection points: 2
#     Edge 122, Type (0, 1), BuildingBlock: EZIPEK_clean_linker_0, # of connection points: 2
#     Edge 123, Type (0, 1), BuildingBlock: EZIPEK_clean_linker_0, # of connection points: 2
#     Edge 124, Type (0, 1), BuildingBlock: EZIPEK_clean_linker_0, # of connection points: 2
#     Edge 125, Type (0, 1), BuildingBlock: EZIPEK_clean_linker_0, # of connection points: 2
#     Edge 126, Type (0, 1), BuildingBlock: EZIPEK_clean_linker_0, # of connection points: 2
#     Edge 127, Type (0, 1), BuildingBlock: EZIPEK_clean_linker_0, # of connection points: 2
#     Edge 128, Type (0, 1), BuildingBlock: EZIPEK_clean_linker_0, # of connection points: 2
#     Edge 129, Type (0, 1), BuildingBlock: EZIPEK_clean_linker_0, # of connection points: 2
#     Edge 130, Type (0, 1), BuildingBlock: EZIPEK_clean_linker_0, # of connection points: 2
#     Edge 131, Type (0, 1), BuildingBlock: EZIPEK_clean_linker_0, # of connection points: 2
#     Edge 132, Type (0, 1), BuildingBlock: EZIPEK_clean_linker_0, # of connection points: 2
#     Edge 133, Type (0, 1), BuildingBlock: EZIPEK_clean_linker_0, # of connection points: 2
#     Edge 134, Type (0, 1), BuildingBlock: EZIPEK_clean_linker_0, # of connection points: 2
#     Edge 135, Type (0, 1), BuildingBlock: EZIPEK_clean_linker_0, # of connection points: 2
# Relax obj value: 0.133
# Max RMSD: 0.229
# Mean RMSD: 0.158
data_MOF--net-gar--node1-AZAVOO_clean_sbu_0--node2-KUMBOL_clean_sbu_1--edge1-EZIPEK_clean_linker_0
_symmetry_space_group_name_H-M    P1
_symmetry_Int_Tables_number       1
_symmetry_cell_setting            triclinic
loop_
_symmetry_equiv_pos_as_xyz
'x, y, z'
_cell_length_a     46.741749
_cell_length_b     45.279532
_cell_length_c     42.028707
_cell_angle_alpha  100.10928
_cell_angle_beta   96.968629
_cell_angle_gamma 104.24971
loop_
_atom_site_label
_atom_site_type_symbol
_atom_site_fract_x
_atom_site_fract_y
_atom_site_fract_z
_atom_type_partial_charge
Mg0 Mg 0.05762 0.32764 0.34262 0.0
O1 O 0.06334 0.3748 0.38516 0.0
O2 O 0.04029 0.35836 0.42489 0.0
Mg3 Mg 0.99503 0.32536 0.39997 0.0
C4 C 0.05576 0.3803 0.41382 0.0
C5 C 0.12615 0.32099 0.31387 0.0
O6 O 0.10993 0.3134 0.28439 0.0
O7 O 0.05289 0.28845 0.37324 0.0
O8 O 0.01648 0.28637 0.40379 0.0
O9 O 1.00848 0.31236 0.3031 0.0
O10 O 1.00812 0.32627 0.35187 0.0
C11 C 0.03745 0.27629 0.39323 0.0
C12 C 0.99212 0.31701 0.32405 0.0
O13 O 0.11292 0.32811 0.33878 0.0
Mg14 Mg 0.02885 0.76339 0.73459 0.0
O15 O 0.03375 0.72459 0.69175 0.0
O16 O 0.98904 0.70664 0.65943 0.0
Mg17 Mg 0.95866 0.73927 0.67292 0.0
C18 C 0.01582 0.705 0.66738 0.0
C19 C 0.10266 0.76939 0.76857 0.0
O20 O 0.09164 0.75653 0.79174 0.0
O21 O 0.03264 0.79879 0.70065 0.0
O22 O 0.99283 0.78035 0.66045 0.0
O23 O 1.00116 0.79036 0.76878 0.0
O24 O 0.97858 0.75506 0.72619 0.0
C25 C 0.01799 0.80014 0.67344 0.0
C26 C 0.97581 0.77516 0.75046 0.0
O27 O 0.08435 0.77571 0.74679 0.0
Mg28 Mg 0.55312 0.82174 0.84384 0.0
O29 O 0.55985 0.8668 0.88896 0.0
O30 O 0.51892 0.85553 0.91213 0.0
Mg31 Mg 0.48518 0.80829 0.89145 0.0
C32 C 0.54388 0.87421 0.91067 0.0
C33 C 0.62053 0.812 0.81724 0.0
O34 O 0.60206 0.7878 0.79648 0.0
O35 O 0.55921 0.78919 0.88025 0.0
O36 O 0.51913 0.78286 0.9056 0.0
O37 O 0.51144 0.83206 0.80811 0.0
O38 O 0.50255 0.8094 0.84638 0.0
C39 C 0.54384 0.77739 0.90052 0.0
C40 C 0.49127 0.81901 0.82296 0.0
O41 O 0.60882 0.82949 0.83716 0.0
Mg42 Mg 0.53085 0.25539 0.23466 0.0
O43 O 0.53267 0.21462 0.19316 0.0
O44 O 0.48832 0.20049 0.15985 0.0
Mg45 Mg 0.45883 0.23381 0.17434 0.0
C46 C 0.51421 0.19672 0.16823 0.0
C47 C 0.61048 0.28433 0.25913 0.0
O48 O 0.60903 0.31323 0.26704 0.0
O49 O 0.53571 0.28979 0.19877 0.0
O50 O 0.49249 0.27577 0.16309 0.0
O51 O 0.5042 0.28393 0.26852 0.0
O52 O 0.48089 0.24883 0.22637 0.0
C53 C 0.51907 0.29346 0.17394 0.0
C54 C 0.47856 0.26889 0.25075 0.0
O55 O 0.58583 0.26239 0.24826 0.0
Mg56 Mg 0.0897 0.81399 0.11579 0.0
O57 O 0.08595 0.75917 0.11051 0.0
O58 O 0.05472 0.74945 0.06547 0.0
Mg59 Mg 0.06246 0.80204 0.06831 0.0
C60 C 0.06904 0.73879 0.08614 0.0
C61 C 0.1446 0.80836 0.16877 0.0
O62 O 0.1211 0.79071 0.17704 0.0
O63 O 0.0926 0.86938 0.11477 0.0
O64 O 0.06545 0.85327 0.06572 0.0
O65 O 0.06608 0.81382 0.15884 0.0
O66 O 0.03676 0.80387 0.11109 0.0
C67 C 0.0796 0.876 0.089 0.0
C68 C 0.03964 0.80669 0.14239 0.0
O69 O 0.14021 0.82263 0.14534 0.0
Mg70 Mg 0.50221 0.77095 0.44691 0.0
O71 O 0.51964 0.82522 0.47693 0.0
O72 O 0.47883 0.82548 0.49637 0.0
Mg73 Mg 0.47645 0.77298 0.49201 0.0
C74 C 0.50316 0.84108 0.48994 0.0
C75 C 0.55247 0.77479 0.40315 0.0
O76 O 0.52906 0.75954 0.3805 0.0
O77 O 0.5191 0.73589 0.47948 0.0
O78 O 0.47507 0.72038 0.49197 0.0
O79 O 0.47772 0.79229 0.41204 0.0
O80 O 0.44973 0.76351 0.44015 0.0
C81 C 0.50042 0.71527 0.48979 0.0
C82 C 0.45153 0.77961 0.41741 0.0
O83 O 0.54904 0.78207 0.4328 0.0
Mg84 Mg 0.59021 0.31606 0.61719 0.0
O85 O 0.58757 0.26155 0.61093 0.0
O86 O 0.5558 0.25143 0.56567 0.0
Mg87 Mg 0.56134 0.30387 0.56967 0.0
C88 C 0.57105 0.24133 0.58615 0.0
C89 C 0.64807 0.32196 0.67556 0.0
O90 O 0.62708 0.32122 0.69379 0.0
O91 O 0.59157 0.37137 0.61627 0.0
O92 O 0.56236 0.35475 0.56829 0.0
O93 O 0.56748 0.315 0.66088 0.0
O94 O 0.53721 0.30484 0.6138 0.0
C95 C 0.57697 0.37761 0.59119 0.0
C96 C 0.54077 0.30763 0.64511 0.0
O97 O 0.64144 0.32369 0.6453 0.0
Mg98 Mg 1.00281 0.26872 0.94634 0.0
O99 O 0.01875 0.32138 0.97985 0.0
O100 O 0.97669 0.31965 0.99716 0.0
Mg101 Mg 0.97636 0.26774 0.99089 0.0
C102 C 1.00143 0.33618 0.9927 0.0
C103 C 0.05384 0.27404 0.90322 0.0
O104 O 0.03116 0.25653 0.88074 0.0
O105 O 0.02158 0.23467 0.97825 0.0
O106 O 0.97739 0.21567 0.98895 0.0
O107 O 0.97733 0.29028 0.91244 0.0
O108 O 0.94998 0.2592 0.93905 0.0
C109 C 1.00359 0.2127 0.98748 0.0
C110 C 0.95129 0.27613 0.91705 0.0
O111 O 0.04969 0.28236 0.93245 0.0
Mg112 Mg 0.40039 0.02924 0.34062 0.0
O113 O 0.35824 0.99033 0.32573 0.0
O114 O 0.34387 0.97949 0.37167 0.0
Mg115 Mg 0.35484 0.02919 0.40031 0.0
C116 C 0.34545 0.97126 0.34162 0.0
C117 C 0.43065 0.03038 0.28055 0.0
O118 O 0.4486 0.05526 0.30084 0.0
O119 O 0.37595 0.06127 0.32651 0.0
O120 O 0.33914 0.04712 0.35481 0.0
O121 O 0.41955 0.99968 0.36592 0.0
O122 O 0.40187 0.03758 0.39114 0.0
C123 C 0.34975 0.05994 0.33238 0.0
C124 C 0.4187 0.0188 0.39235 0.0
O125 O 0.40777 0.01468 0.28936 0.0
Mg126 Mg 0.27234 0.18565 0.51526 0.0
O127 O 0.27687 0.21833 0.56611 0.0
O128 O 0.32377 0.24858 0.5792 0.0
Mg129 Mg 0.34898 0.23428 0.53678 0.0
C130 C 0.29776 0.23915 0.58642 0.0
C131 C 0.21115 0.14121 0.51052 0.0
O132 O 0.22881 0.12322 0.50432 0.0
O133 O 0.27336 0.22201 0.48122 0.0
O134 O 0.32258 0.2454 0.49194 0.0
O135 O 0.28596 0.15208 0.54226 0.0
O136 O 0.31832 0.18618 0.52332 0.0
C137 C 0.29669 0.24013 0.47458 0.0
C138 C 0.31324 0.16373 0.53878 0.0
O139 O 0.22143 0.17062 0.51392 0.0
Mg140 Mg 0.13636 0.06592 0.81109 0.0
O141 O 0.17188 0.11329 0.8185 0.0
O142 O 0.2064 0.11778 0.86195 0.0
Mg143 Mg 0.18915 0.07676 0.88727 0.0
C144 C 0.19677 0.12776 0.83731 0.0
C145 C 0.10242 0.04957 0.73667 0.0
O146 O 0.08952 0.0234 0.74477 0.0
O147 O 0.17076 0.03976 0.7963 0.0
O148 O 0.19773 0.04208 0.8452 0.0
O149 O 0.10558 0.0831 0.84441 0.0
O150 O 0.14249 0.0648 0.86137 0.0
C151 C 0.19049 0.03167 0.81418 0.0
C152 C 0.11992 0.07451 0.86789 0.0
O153 O 0.12168 0.07096 0.75799 0.0
Mg154 Mg 0.32001 0.96805 0.01292 0.0
O155 O 0.2983 0.94157 0.96041 0.0
O156 O 0.34072 0.93446 0.9759 0.0
Mg157 Mg 0.38282 0.92552 0.99667 0.0
C158 C 0.31748 0.92712 0.95426 0.0
C159 C 0.26323 0.98718 0.99829 0.0
O160 O 0.27358 0.98925 0.97087 0.0
O161 O 0.31183 0.92434 0.03494 0.0
O162 O 0.35576 0.91127 0.03575 0.0
O163 O 0.35233 0.01136 0.00524 0.0
O164 O 0.3619 0.96581 1.00106 0.0
C165 C 0.3307 0.91043 0.0455 0.0
C166 C 0.37176 0.9954 0.00531 0.0
O167 O 0.27764 0.97886 0.02111 0.0
Mg168 Mg 0.3237 0.40221 0.06418 0.0
O169 O 0.31395 0.36699 0.01325 0.0
O170 O 0.3532 0.34781 0.01342 0.0
Mg171 Mg 0.38105 0.36285 0.06668 0.0
C172 C 0.3294 0.35138 0.99796 0.0
C173 C 0.27655 0.43632 0.06843 0.0
O174 O 0.29926 0.45417 0.09068 0.0
O175 O 0.30725 0.36696 0.09578 0.0
O176 O 0.34734 0.34903 0.10313 0.0
O177 O 0.35166 0.43781 0.04249 0.0
O178 O 0.37072 0.40833 0.0709 0.0
C179 C 0.32217 0.35178 0.11063 0.0
C180 C 0.37489 0.42996 0.05423 0.0
O181 O 0.27826 0.41021 0.05309 0.0
Mg182 Mg 0.77785 0.13255 0.06067 0.0
O183 O 0.76236 0.14617 0.11006 0.0
O184 O 0.80914 0.16673 0.11111 0.0
Mg185 Mg 0.85512 0.18118 0.09672 0.0
C186 C 0.78676 0.16555 0.12567 0.0
C187 C 0.70738 0.1085 0.02179 0.0
O188 O 0.68967 0.10577 0.99405 0.0
O189 O 0.78288 0.18216 0.05707 0.0
O190 O 0.83106 0.19624 0.05216 0.0
O191 O 0.78776 0.08853 0.06702 0.0
O192 O 0.81974 0.13499 0.08754 0.0
C193 C 0.80384 0.19681 0.04455 0.0
C194 C 0.8152 0.10543 0.07694 0.0
O195 O 0.73507 0.12091 0.02429 0.0
Mg196 Mg 0.18511 0.54927 0.24644 0.0
O197 O 0.21443 0.59795 0.24611 0.0
O198 O 0.24324 0.61988 0.29521 0.0
Mg199 Mg 0.23898 0.58206 0.32278 0.0
C200 C 0.23262 0.62102 0.26632 0.0
C201 C 0.1633 0.56664 0.18609 0.0
O202 O 0.16296 0.58842 0.21106 0.0
O203 O 0.22064 0.52398 0.23898 0.0
O204 O 0.25188 0.56233 0.27489 0.0
O205 O 0.1529 0.57149 0.26812 0.0
O206 O 0.19022 0.56177 0.29853 0.0
C207 C 0.24484 0.53421 0.25947 0.0
C208 C 0.16746 0.57311 0.29682 0.0
O209 O 0.17095 0.54297 0.19227 0.0
Mg210 Mg 0.82349 0.90128 0.56153 0.0
O211 O 0.81485 0.86705 0.51012 0.0
O212 O 0.85227 0.84495 0.51202 0.0
Mg213 Mg 0.88039 0.86221 0.56519 0.0
C214 C 0.82952 0.84982 0.4958 0.0
C215 C 0.77674 0.93527 0.56219 0.0
O216 O 0.80055 0.95566 0.58062 0.0
O217 O 0.80686 0.86596 0.59339 0.0
O218 O 0.84698 0.84838 0.60185 0.0
O219 O 0.85064 0.93699 0.53965 0.0
O220 O 0.87051 0.90833 0.56877 0.0
C221 C 0.82167 0.85108 0.60888 0.0
C222 C 0.87402 0.92939 0.5513 0.0
O223 O 0.77801 0.90803 0.55007 0.0
Mg224 Mg 0.96419 0.02426 0.28288 0.0
O225 O 0.92951 0.9758 0.27789 0.0
O226 O 0.9035 0.98341 0.3187 0.0
Mg227 Mg 0.92324 0.03161 0.35237 0.0
C228 C 0.90845 0.96618 0.29365 0.0
C229 C 0.98537 0.03774 0.21859 0.0
O230 O 0.99091 0.06545 0.23776 0.0
O231 O 0.92686 0.04507 0.26538 0.0
O232 O 0.90729 0.05305 0.3111 0.0
O233 O 0.99928 0.01197 0.31756 0.0
O234 O 0.9652 0.03388 0.33388 0.0
C235 C 0.90911 0.05599 0.28172 0.0
C236 C 0.98743 0.0232 0.34155 0.0
O237 O 0.97325 0.0138 0.22939 0.0
Mg238 Mg 0.28019 0.62367 0.55443 0.0
O239 O 0.27416 0.64524 0.60575 0.0
O240 O 0.31703 0.68402 0.61472 0.0
Mg241 Mg 0.35166 0.67709 0.58169 0.0
C242 C 0.2918 0.67129 0.6224 0.0
C243 C 0.20687 0.59702 0.523 0.0
O244 O 0.18857 0.58657 0.49471 0.0
O245 O 0.27743 0.66884 0.54285 0.0
O246 O 0.32479 0.69009 0.53937 0.0
O247 O 0.29349 0.58202 0.56421 0.0
O248 O 0.32372 0.62965 0.575 0.0
C249 C 0.29686 0.68693 0.53154 0.0
C250 C 0.32035 0.60014 0.56811 0.0
O251 O 0.23467 0.60475 0.52307 0.0
Mg252 Mg 0.46369 0.53037 0.78545 0.0
O253 O 0.42495 0.48383 0.78007 0.0
O254 O 0.41289 0.48245 0.83006 0.0
Mg255 Mg 0.43068 0.53125 0.85967 0.0
C256 C 0.41088 0.46974 0.80002 0.0
C257 C 0.48819 0.54185 0.72192 0.0
O258 O 0.50752 0.56277 0.74543 0.0
O259 O 0.43228 0.5621 0.78376 0.0
O260 O 0.40261 0.54255 0.81682 0.0
O261 O 0.49779 0.50995 0.81118 0.0
O262 O 0.47003 0.5362 0.83598 0.0
C263 C 0.41037 0.56231 0.79919 0.0
C264 C 0.48977 0.52124 0.83809 0.0
O265 O 0.46623 0.52294 0.72952 0.0
Mg266 Mg 0.69833 0.05418 0.74775 0.0
O267 O 0.72793 0.10357 0.7624 0.0
O268 O 0.75485 0.11585 0.81321 0.0
Mg269 Mg 0.74377 0.07028 0.83164 0.0
C270 C 0.74628 0.12288 0.78626 0.0
C271 C 0.65924 0.04605 0.68744 0.0
O272 O 0.64489 0.0294 0.70615 0.0
O273 O 0.73606 0.03535 0.73083 0.0
O274 O 0.75084 0.04907 0.7833 0.0
O275 O 0.66403 0.06975 0.77199 0.0
O276 O 0.69858 0.05386 0.79968 0.0
C277 C 0.75498 0.03685 0.75556 0.0
C278 C 0.67592 0.0653 0.79943 0.0
O279 O 0.68637 0.06112 0.6973 0.0
Mg280 Mg 0.77114 0.68313 0.01186 0.0
O281 O 0.7748 0.71526 0.06318 0.0
O282 O 0.8221 0.74419 0.07769 0.0
Mg283 Mg 0.84769 0.73422 0.03455 0.0
C284 C 0.79588 0.73486 0.08449 0.0
C285 C 0.71064 0.63701 0.01005 0.0
O286 O 0.72921 0.61957 0.00726 0.0
O287 O 0.77102 0.72026 0.97892 0.0
O288 O 0.81985 0.74573 0.99088 0.0
O289 O 0.78817 0.64919 0.03694 0.0
O290 O 0.8174 0.68682 0.01955 0.0
C291 C 0.79394 0.7398 0.97323 0.0
C292 C 0.81479 0.66355 0.03361 0.0
O293 O 0.72011 0.66604 0.01049 0.0
Mg294 Mg 0.90632 0.54841 0.83497 0.0
O295 O 0.88139 0.49694 0.82211 0.0
O296 O 0.85574 0.48573 0.86195 0.0
Mg297 Mg 0.86371 0.53132 0.89909 0.0
C298 C 0.86428 0.47769 0.83487 0.0
C299 C 0.9381 0.54048 0.77778 0.0
O300 O 0.96117 0.55185 0.80179 0.0
O301 O 0.865 0.56114 0.82213 0.0
O302 O 0.83689 0.54856 0.85965 0.0
O303 O 0.9436 0.53633 0.85926 0.0
O304 O 0.90775 0.54996 0.88435 0.0
C305 C 0.84097 0.559 0.83375 0.0
C306 C 0.93142 0.53996 0.8852 0.0
O307 O 0.91222 0.54097 0.78316 0.0
Mg308 Mg 0.82125 0.46084 0.5208 0.0
O309 O 0.82 0.42765 0.47275 0.0
O310 O 0.86131 0.41119 0.47853 0.0
Mg311 Mg 0.8849 0.42704 0.53113 0.0
C312 C 0.837 0.41175 0.46151 0.0
C313 C 0.77762 0.49441 0.49815 0.0
O314 O 0.80393 0.51429 0.50117 0.0
O315 O 0.80149 0.41838 0.54052 0.0
O316 O 0.84252 0.40127 0.54687 0.0
O317 O 0.85448 0.50106 0.50965 0.0
O318 O 0.86523 0.46514 0.53418 0.0
C319 C 0.81505 0.399 0.54907 0.0
C320 C 0.87432 0.48942 0.5228 0.0
O321 O 0.77675 0.46724 0.50276 0.0
Mg322 Mg 0.63171 0.56258 0.31279 0.0
O323 O 0.66499 0.61107 0.31683 0.0
O324 O 0.70273 0.61889 0.35713 0.0
Mg325 Mg 0.68987 0.57906 0.38422 0.0
C326 C 0.6902 0.62783 0.33334 0.0
C327 C 0.59053 0.54869 0.2413 0.0
O328 O 0.57097 0.5307 0.25454 0.0
O329 O 0.66448 0.53497 0.29648 0.0
O330 O 0.69856 0.54545 0.34172 0.0
O331 O 0.60334 0.58261 0.34576 0.0
O332 O 0.64002 0.5652 0.36482 0.0
C333 C 0.68807 0.53117 0.31204 0.0
C334 C 0.61838 0.57716 0.371 0.0
O335 O 0.61586 0.5641 0.25857 0.0
C336 C 0.99219 0.94932 0.98817 0.0
C337 C 0.9665 0.92479 0.02752 0.0
C338 C 0.9816 0.95176 0.01765 0.0
C339 C 0.96406 0.89525 0.00839 0.0
C340 C 0.98877 0.91975 0.96826 0.0
C341 C 0.97541 0.89274 0.97895 0.0
N342 N 1.00382 0.97592 0.9779 0.0
C343 C 1.0079 0.97442 0.94625 0.0
C344 C 0.99755 0.91831 0.93749 0.0
C345 C 1.00618 0.94575 0.92597 0.0
Gd346 Gd 0.08801 0.07585 0.06641 0.0
Gd347 Gd 0.01096 0.02299 0.01578 0.0
N348 N 0.98483 0.98069 0.03587 0.0
C349 C 0.95339 0.92837 0.05568 0.0
C350 C 0.97019 0.98432 0.06189 0.0
C351 C 0.95472 0.95829 0.07254 0.0
H352 H 0.97016 0.0072 0.07449 0.0
H353 H 0.94375 0.96132 0.09365 0.0
H354 H 0.09553 0.10608 0.99848 0.0
H355 H 0.01226 0.99539 0.93668 0.0
H356 H 0.11596 0.15735 0.98603 0.0
H357 H 0.94141 0.90825 0.06398 0.0
H358 H 0.95276 0.87424 0.01572 0.0
H359 H 0.0736 0.08948 0.14483 0.0
H360 H 0.99539 0.89608 0.92143 0.0
H361 H 0.01035 0.94465 0.90108 0.0
H362 H 0.13255 0.22861 0.08958 0.0
H363 H 0.97261 0.86982 0.96397 0.0
H364 H 0.10097 0.18784 0.18094 0.0
H365 H 0.08002 0.13463 0.18918 0.0
N366 N 0.08751 0.1164 0.1097 0.0
C367 C 0.09938 0.14559 0.10478 0.0
C368 C 0.08081 0.11236 0.13972 0.0
C369 C 0.09718 0.16803 0.16075 0.0
C370 C 0.08518 0.13805 0.16544 0.0
C371 C 0.10465 0.17213 0.13029 0.0
H372 H 0.12181 0.22245 0.14421 0.0
N373 N 0.09944 0.12336 0.0493 0.0
C374 C 0.10579 0.14914 0.07389 0.0
C375 C 0.1214 0.18201 0.03607 0.0
C376 C 0.11715 0.17917 0.06791 0.0
C377 C 0.10248 0.12615 0.01805 0.0
C378 C 0.11355 0.15539 0.01092 0.0
O379 O 0.03721 0.99282 0.03836 0.0
O380 O 0.08373 0.02339 0.0668 0.0
O381 O 0.13495 0.08805 0.06268 0.0
O382 O 0.12178 0.08466 0.10972 0.0
O383 O 0.01437 0.04707 0.06917 0.0
O384 O 0.05996 0.04959 0.09653 0.0
O385 O 0.05203 0.10078 0.05168 0.0
O386 O 0.02499 0.07101 0.00302 0.0
O387 O 0.97287 0.03932 0.02542 0.0
O388 O 0.97132 0.00963 0.97736 0.0
O389 O 0.09214 0.05271 0.01548 0.0
O390 O 0.04546 0.0378 0.98247 0.0
C391 C 0.06343 0.99573 0.05615 0.0
C392 C 0.03126 0.04451 0.09549 0.0
C393 C 0.16416 0.06854 0.0993 0.0
C394 C 0.19424 0.03546 0.07878 0.0
C395 C 0.1973 0.0521 0.13737 0.0
C396 C 0.17649 0.06887 0.1316 0.0
C397 C 0.20655 0.03575 0.111 0.0
C398 C 0.17227 0.05071 0.07303 0.0
C399 C 0.1436 0.08745 0.09317 0.0
C400 C 0.1234 0.20542 0.09363 0.0
C401 C 0.11718 0.20191 0.12472 0.0
H402 H 0.13002 0.20467 0.0305 0.0
C403 C 0.03477 0.09856 0.02334 0.0
C404 C 0.07526 0.04551 0.98632 0.0
C405 C 0.92641 0.02521 0.98746 0.0
C406 C 0.88321 0.04038 0.00324 0.0
C407 C 0.87988 0.01026 0.94855 0.0
C408 C 0.90978 0.01009 0.95621 0.0
C409 C 0.8666 0.02551 0.97197 0.0
C410 C 0.91292 0.04015 0.0109 0.0
C411 C 0.95712 0.02399 0.99689 0.0
H412 H 0.20684 0.05246 0.16226 0.0
H413 H 0.17024 0.08231 0.15227 0.0
H414 H 0.22361 0.02386 0.11562 0.0
H415 H 0.16295 0.04999 0.04792 0.0
H416 H 0.86708 0.99875 0.92443 0.0
H417 H 0.91976 0.99803 0.93789 0.0
H418 H 0.84363 0.02618 0.96563 0.0
H419 H 0.92549 0.05208 0.0351 0.0
C420 C 0.34125 0.73922 0.21027 0.0
C421 C 0.30309 0.71883 0.16162 0.0
C422 C 0.31574 0.74103 0.19117 0.0
C423 C 0.31578 0.69419 0.15247 0.0
C424 C 0.35492 0.71538 0.20046 0.0
C425 C 0.34175 0.69258 0.17175 0.0
N426 N 0.35312 0.76118 0.23819 0.0
C427 C 0.37917 0.76144 0.25697 0.0
C428 C 0.38138 0.71516 0.21988 0.0
C429 C 0.39367 0.73844 0.24815 0.0
Gd430 Gd 0.27757 0.80708 0.33446 0.0
Gd431 Gd 0.32719 0.79822 0.25241 0.0
N432 N 0.30444 0.76552 0.20043 0.0
C433 C 0.27877 0.72269 0.14152 0.0
C434 C 0.28283 0.77108 0.17906 0.0
C435 C 0.26905 0.74932 0.14993 0.0
H436 H 0.27607 0.79232 0.18389 0.0
H437 H 0.25123 0.75337 0.13374 0.0
H438 H 0.33823 0.82647 0.39473 0.0
H439 H 0.38897 0.77944 0.27875 0.0
H440 H 0.36527 0.87093 0.43951 0.0
H441 H 0.26829 0.70606 0.11875 0.0
H442 H 0.30618 0.67678 0.13004 0.0
H443 H 0.21219 0.82113 0.3085 0.0
H444 H 0.39259 0.69728 0.21316 0.0
H445 H 0.41426 0.73868 0.26318 0.0
H446 H 0.30384 0.9416 0.44003 0.0
H447 H 0.35169 0.67385 0.16404 0.0
H448 H 0.21176 0.90994 0.36324 0.0
H449 H 0.18721 0.86277 0.3199 0.0
N450 N 0.25151 0.8452 0.34365 0.0
C451 C 0.26458 0.87007 0.369 0.0
C452 C 0.22357 0.84187 0.32697 0.0
C453 C 0.223 0.8918 0.35822 0.0
C454 C 0.20911 0.86528 0.33365 0.0
C455 C 0.25092 0.89432 0.3765 0.0
H456 H 0.25534 0.93914 0.40796 0.0
N457 N 0.30501 0.84791 0.3788 0.0
C458 C 0.2921 0.87148 0.3871 0.0
C459 C 0.33348 0.89728 0.43153 0.0
C460 C 0.30639 0.89714 0.41315 0.0
C461 C 0.33002 0.84678 0.39844 0.0
C462 C 0.34503 0.87169 0.42453 0.0
O463 O 0.3123 0.75488 0.2701 0.0
O464 O 0.27248 0.76614 0.2911 0.0
O465 O 0.27372 0.79075 0.37921 0.0
O466 O 0.2336 0.78391 0.34413 0.0
O467 O 0.27876 0.80249 0.24026 0.0
O468 O 0.25025 0.80276 0.28348 0.0
O469 O 0.2983 0.854 0.32519 0.0
O470 O 0.3122 0.82139 0.29266 0.0
O471 O 0.33404 0.83868 0.23126 0.0
O472 O 0.37221 0.82358 0.24831 0.0
O473 O 0.32121 0.79134 0.34273 0.0
O474 O 0.35341 0.80342 0.30435 0.0
C475 C 0.28948 0.74696 0.28501 0.0
C476 C 0.25373 0.80347 0.25249 0.0
C477 C 0.23006 0.75475 0.38665 0.0
C478 C 0.23231 0.72341 0.42763 0.0
C479 C 0.18516 0.71688 0.39246 0.0
C480 C 0.19927 0.73985 0.37684 0.0
C481 C 0.20154 0.70904 0.41819 0.0
C482 C 0.24642 0.74626 0.41203 0.0
C483 C 0.24463 0.78116 0.37304 0.0
C484 C 0.29307 0.9216 0.42025 0.0
C485 C 0.26543 0.92019 0.402 0.0
H486 H 0.34516 0.91654 0.45176 0.0
C487 C 0.31328 0.85034 0.30228 0.0
C488 C 0.34777 0.79552 0.33266 0.0
C489 C 0.37325 0.84541 0.20118 0.0
C490 C 0.36663 0.86019 0.14869 0.0
C491 C 0.41038 0.84343 0.16573 0.0
C492 C 0.40041 0.83938 0.19511 0.0
C493 C 0.39359 0.85392 0.14254 0.0
C494 C 0.35632 0.85543 0.17758 0.0
C495 C 0.36251 0.84207 0.23207 0.0
H496 H 0.16141 0.70563 0.38508 0.0
H497 H 0.18609 0.74626 0.35752 0.0
H498 H 0.19024 0.69233 0.43113 0.0
H499 H 0.27012 0.75771 0.42028 0.0
H500 H 0.43126 0.83872 0.16106 0.0
H501 H 0.41391 0.83162 0.213 0.0
H502 H 0.40166 0.85736 0.12002 0.0
H503 H 0.33542 0.8605 0.18186 0.0
C504 C 0.61802 0.10391 0.48444 0.0
C505 C 0.65186 0.14326 0.52922 0.0
C506 C 0.63038 0.11413 0.51777 0.0
C507 C 0.65985 0.16259 0.50719 0.0
C508 C 0.62746 0.12263 0.46208 0.0
C509 C 0.64768 0.15232 0.47374 0.0
N510 N 0.59877 0.07485 0.47356 0.0
C511 C 0.5916 0.06171 0.4407 0.0
C512 C 0.61747 0.1104 0.42845 0.0
C513 C 0.60007 0.07955 0.4177 0.0
Gd514 Gd 0.50267 0.03819 0.56016 0.0
Gd515 Gd 0.58629 0.04814 0.51529 0.0
N516 N 0.62238 0.09506 0.53879 0.0
C517 C 0.66539 0.15172 0.56234 0.0
C518 C 0.6368 0.10224 0.5705 0.0
C519 C 0.65817 0.1309 0.58292 0.0
H520 H 0.63155 0.08599 0.58618 0.0
H521 H 0.66913 0.13684 0.6083 0.0
H522 H 0.45902 0.99232 0.49109 0.0
H523 H 0.5787 0.03758 0.43216 0.0
H524 H 0.42236 0.94008 0.47465 0.0
H525 H 0.68207 0.17386 0.57201 0.0
H526 H 0.67612 0.18517 0.51561 0.0
H527 H 0.51243 0.05791 0.6431 0.0
H528 H 0.6242 0.12408 0.41055 0.0
H529 H 0.59332 0.06942 0.39172 0.0
H530 H 0.41563 0.90548 0.57575 0.0
H531 H 0.65489 0.16711 0.45692 0.0
H532 H 0.46741 0.97711 0.67565 0.0
H533 H 0.49863 0.03182 0.68827 0.0
N534 N 0.49104 0.01749 0.60568 0.0
C535 C 0.47189 0.98824 0.59801 0.0
C536 C 0.49927 0.03378 0.6375 0.0
C537 C 0.47368 0.9883 0.65578 0.0
C538 C 0.49133 0.01918 0.66304 0.0
C539 C 0.46316 0.97267 0.623 0.0
H540 H 0.43673 0.9301 0.63353 0.0
N541 N 0.46651 0.99051 0.54149 0.0
C542 C 0.45938 0.97443 0.56517 0.0
C543 C 0.42559 0.93208 0.52388 0.0
C544 C 0.43871 0.94461 0.55687 0.0
C545 C 0.45311 0.97898 0.50942 0.0
C546 C 0.43263 0.94946 0.50011 0.0
O547 O 0.57783 0.09375 0.54067 0.0
O548 O 0.53398 0.08788 0.56491 0.0
O549 O 0.45756 0.04143 0.544 0.0
O550 O 0.48912 0.07859 0.58083 0.0
O551 O 0.56238 0.04044 0.55684 0.0
O552 O 0.54015 0.03915 0.59918 0.0
O553 O 0.51248 0.99331 0.53338 0.0
O554 O 0.55549 0.99748 0.50757 0.0
O555 O 0.62178 0.03121 0.53813 0.0
O556 O 0.61458 0.02958 0.48571 0.0
O557 O 0.52325 0.0436 0.5159 0.0
O558 O 0.54816 0.04423 0.47563 0.0
C559 C 0.55881 0.10495 0.5571 0.0
C560 C 0.56515 0.04123 0.5882 0.0
C561 C 0.438 0.0747 0.58066 0.0
C562 C 0.39802 0.10015 0.58335 0.0
C563 C 0.41521 0.07966 0.62947 0.0
C564 C 0.43605 0.0695 0.61235 0.0
C565 C 0.39636 0.09511 0.61513 0.0
C566 C 0.41875 0.08976 0.5661 0.0
C567 C 0.46215 0.06834 0.56385 0.0
C568 C 0.4313 0.92851 0.5817 0.0
C569 C 0.4434 0.94251 0.61463 0.0
H570 H 0.40964 0.90923 0.51658 0.0
C571 C 0.53085 0.98095 0.51657 0.0
C572 C 0.52353 0.04682 0.48578 0.0
C573 C 0.63467 0.99143 0.50232 0.0
C574 C 0.66982 0.96062 0.50699 0.0
C575 C 0.62439 0.9403 0.46652 0.0
C576 C 0.61588 0.96741 0.47699 0.0
C577 C 0.65146 0.93695 0.48132 0.0
C578 C 0.66141 0.98775 0.51745 0.0
C579 C 0.62932 0.02213 0.50989 0.0
H580 H 0.41395 0.07593 0.65406 0.0
H581 H 0.451 0.05829 0.62409 0.0
H582 H 0.3805 0.10317 0.62877 0.0
H583 H 0.4204 0.09427 0.54179 0.0
H584 H 0.61023 0.92211 0.44661 0.0
H585 H 0.59519 0.96999 0.46464 0.0
H586 H 0.65812 0.91603 0.47286 0.0
H587 H 0.67618 0.00635 0.53669 0.0
C588 C 0.23113 0.31022 0.71347 0.0
C589 C 0.19738 0.25945 0.68728 0.0
C590 C 0.21826 0.27917 0.71441 0.0
C591 C 0.19004 0.27108 0.65941 0.0
C592 C 0.22382 0.32191 0.68551 0.0
C593 C 0.2032 0.30219 0.65854 0.0
N594 N 0.25167 0.32872 0.73954 0.0
C595 C 0.26468 0.35925 0.73989 0.0
C596 C 0.23756 0.3531 0.68543 0.0
C597 C 0.25801 0.37186 0.7128 0.0
Gd598 Gd 0.33578 0.27688 0.78889 0.0
Gd599 Gd 0.2601 0.30621 0.78444 0.0
N600 N 0.22593 0.26837 0.74173 0.0
C601 C 0.18411 0.22868 0.68904 0.0
C602 C 0.2116 0.23885 0.74413 0.0
C603 C 0.19102 0.21847 0.7177 0.0
H604 H 0.21506 0.23078 0.76642 0.0
H605 H 0.18013 0.19498 0.71965 0.0
H606 H 0.38425 0.34772 0.81778 0.0
H607 H 0.28008 0.3739 0.76108 0.0
H608 H 0.42247 0.3753 0.86666 0.0
H609 H 0.16798 0.21284 0.66872 0.0
H610 H 0.17404 0.25621 0.63842 0.0
H611 H 0.32006 0.20038 0.791 0.0
H612 H 0.23245 0.36294 0.66443 0.0
H613 H 0.26855 0.39607 0.71311 0.0
H614 H 0.42735 0.29641 0.92839 0.0
H615 H 0.19726 0.31078 0.63687 0.0
H616 H 0.36706 0.19207 0.88145 0.0
H617 H 0.33152 0.16791 0.82944 0.0
N618 N 0.34767 0.24295 0.82167 0.0
C619 C 0.36837 0.2564 0.84934 0.0
C620 C 0.33519 0.21139 0.81391 0.0
C621 C 0.36199 0.20653 0.86476 0.0
C622 C 0.34186 0.19282 0.83547 0.0
C623 C 0.37583 0.23862 0.87183 0.0
H624 H 0.40267 0.24013 0.91825 0.0
N625 N 0.37447 0.30449 0.83301 0.0
C626 C 0.38233 0.28806 0.85509 0.0
C627 C 0.41818 0.3347 0.88781 0.0
C628 C 0.40402 0.30285 0.88343 0.0
C629 C 0.3894 0.33516 0.83621 0.0
C630 C 0.41117 0.35082 0.86384 0.0
O631 O 0.28246 0.30052 0.73946 0.0
O632 O 0.29762 0.25813 0.74568 0.0
O633 O 0.36896 0.29249 0.75843 0.0
O634 O 0.35713 0.24467 0.76334 0.0
O635 O 0.25673 0.26312 0.8054 0.0
O636 O 0.29298 0.23946 0.78891 0.0
O637 O 0.33022 0.30396 0.83829 0.0
O638 O 0.28112 0.30764 0.83667 0.0
O639 O 0.21463 0.30185 0.79373 0.0
O640 O 0.24681 0.34712 0.80521 0.0
O641 O 0.33807 0.32324 0.77483 0.0
O642 O 0.30421 0.34374 0.79938 0.0
C643 C 0.29067 0.27615 0.72645 0.0
C644 C 0.26869 0.23949 0.80216 0.0
C645 C 0.40581 0.26446 0.75117 0.0
C646 C 0.45127 0.27327 0.72615 0.0
C647 C 0.44688 0.24385 0.7693 0.0
C648 C 0.41855 0.24798 0.7717 0.0
C649 C 0.46305 0.25623 0.74664 0.0
C650 C 0.42249 0.27744 0.72851 0.0
C651 C 0.37425 0.26546 0.75107 0.0
C652 C 0.41094 0.28541 0.90631 0.0
C653 C 0.39688 0.25336 0.90053 0.0
H654 H 0.43485 0.3469 0.90935 0.0
C655 C 0.30792 0.30969 0.85274 0.0
C656 C 0.32814 0.34731 0.78539 0.0
C657 C 0.20951 0.33837 0.83913 0.0
C658 C 0.16998 0.32943 0.8724 0.0
C659 C 0.21556 0.37145 0.89316 0.0
C660 C 0.22659 0.36349 0.86438 0.0
C661 C 0.18735 0.35468 0.89711 0.0
C662 C 0.18122 0.32115 0.84351 0.0
C663 C 0.22017 0.33116 0.8076 0.0
H664 H 0.45624 0.23069 0.78489 0.0
H665 H 0.40637 0.23767 0.78919 0.0
H666 H 0.48489 0.25247 0.74502 0.0
H667 H 0.41291 0.28997 0.71228 0.0
H668 H 0.2288 0.39092 0.91236 0.0
H669 H 0.24832 0.3773 0.86181 0.0
H670 H 0.17899 0.36143 0.91944 0.0
H671 H 0.16761 0.30187 0.82425 0.0
C672 C 0.0155 0.11904 0.61227 0.0
C673 C 0.0606 0.15878 0.64114 0.0
C674 C 0.04559 0.13409 0.6144 0.0
C675 C 0.04519 0.16734 0.66637 0.0
C676 C 0.99973 0.12819 0.63711 0.0
C677 C 0.01485 0.15208 0.66436 0.0
N678 N 1.00152 0.09583 0.58571 0.0
C679 C 0.97129 0.08255 0.58135 0.0
C680 C 0.96914 0.11337 0.63361 0.0
C681 C 0.95481 0.09072 0.60542 0.0
Gd682 Gd 0.05918 1.00207 0.53619 0.0
Gd683 Gd 0.03196 0.08374 0.54741 0.0
N684 N 0.05999 0.12518 0.58979 0.0
C685 C 0.09045 0.1746 0.6413 0.0
C686 C 0.08826 0.14193 0.58853 0.0
C687 C 0.10418 0.16644 0.61461 0.0
H688 H 0.09852 0.13612 0.56749 0.0
H689 H 0.12691 0.17915 0.61399 0.0
H690 H 1.00151 0.93616 0.52087 0.0
H691 H 0.95958 0.06597 0.55907 0.0
H692 H 0.97612 0.89281 0.47394 0.0
H693 H 0.10278 0.19369 0.66142 0.0
H694 H 0.05639 0.18611 0.68725 0.0
H695 H 0.13107 0.0251 0.52523 0.0
H696 H 0.95626 0.11974 0.65215 0.0
H697 H 0.93098 0.07977 0.60203 0.0
H698 H 0.03986 0.90562 0.3932 0.0
H699 H 1.00313 0.15927 0.68377 0.0
H700 H 0.13552 0.98117 0.42788 0.0
H701 H 0.15981 0.01816 0.4804 0.0
N702 N 0.09034 0.99375 0.49775 0.0
C703 C 0.07718 0.97181 0.47 0.0
C704 C 0.12001 0.00929 0.50229 0.0
C705 C 0.12268 0.98434 0.44739 0.0
C706 C 0.13649 0.00518 0.47702 0.0
C707 C 0.09287 0.96675 0.44387 0.0
H708 H 0.09029 0.93964 0.39515 0.0
N709 N 0.03514 0.95704 0.49538 0.0
C710 C 0.04865 0.95286 0.46877 0.0
C711 C 1.00822 0.90697 0.44303 0.0
C712 C 0.03527 0.92806 0.44156 0.0
C713 C 0.01056 0.93469 0.49835 0.0
C714 C 0.99627 0.90981 0.47194 0.0
O715 O 0.06402 0.07988 0.59106 0.0
O716 O 0.04729 0.02781 0.58161 0.0
O717 O 0.05017 0.97133 0.57009 0.0
O718 O 0.09403 0.98295 0.55678 0.0
O719 O 0.07364 0.08249 0.52556 0.0
O720 O 0.09484 0.04849 0.54883 0.0
O721 O 0.04666 0.01947 0.48945 0.0
O722 O 0.01174 0.04493 0.50357 0.0
O723 O 0.04341 0.11622 0.5143 0.0
O724 O 1.00115 0.10914 0.53286 0.0
O725 O 0.00978 0.99205 0.53442 0.0
O726 O 0.99596 0.03853 0.54805 0.0
C727 C 0.0644 0.0538 0.60037 0.0
C728 C 0.09681 0.07257 0.53488 0.0
C729 C 0.07598 0.93299 0.5697 0.0
C730 C 0.06423 0.88544 0.59141 0.0
C731 C 0.08375 0.88523 0.54034 0.0
C732 C 0.0848 0.91665 0.54275 0.0
C733 C 0.07357 0.86971 0.56447 0.0
C734 C 0.06567 0.91725 0.59405 0.0
C735 C 0.07629 0.96603 0.57236 0.0
C736 C 0.05 0.92423 0.41454 0.0
C737 C 0.07874 0.94357 0.41568 0.0
H738 H 0.9972 0.8876 0.42266 0.0
C739 C 0.02587 0.03347 0.48153 0.0
C740 C 0.99034 0.00752 0.54199 0.0
C741 C 1.00838 0.14572 0.49722 0.0
C742 C 0.01629 0.18392 0.46241 0.0
C743 C 0.96996 0.17155 0.484 0.0
C744 C 0.98005 0.15053 0.49979 0.0
C745 C 0.98794 0.18816 0.46547 0.0
C746 C 0.02659 0.16249 0.47822 0.0
C747 C 0.01816 0.12345 0.51495 0.0
H748 H 0.09069 0.87279 0.51956 0.0
H749 H 0.09237 0.92808 0.5235 0.0
H750 H 0.07276 0.84528 0.56203 0.0
H751 H 0.0585 0.92956 0.61479 0.0
H752 H 0.94815 0.17506 0.48625 0.0
H753 H 0.96553 0.13808 0.51416 0.0
H754 H 0.97976 0.20459 0.45354 0.0
H755 H 0.04851 0.15921 0.47597 0.0
C756 C 0.237 0.72336 0.84306 0.0
C757 C 0.2066 0.67892 0.80099 0.0
C758 C 0.23145 0.70551 0.81106 0.0
C759 C 0.18683 0.6712 0.82275 0.0
C760 C 0.2177 0.7148 0.86526 0.0
C761 C 0.19236 0.68905 0.85475 0.0
N762 N 0.26187 0.74804 0.85298 0.0
C763 C 0.2698 0.76361 0.88507 0.0
C764 C 0.22488 0.7318 0.89775 0.0
C765 C 0.25123 0.75606 0.90777 0.0
Gd766 Gd 0.30328 0.83072 0.76675 0.0
Gd767 Gd 0.29111 0.75738 0.81247 0.0
N768 N 0.25089 0.71335 0.79024 0.0
C769 C 0.20273 0.66032 0.76957 0.0
C770 C 0.24812 0.69441 0.76032 0.0
C771 C 0.2238 0.66789 0.74933 0.0
H772 H 0.26506 0.6992 0.74536 0.0
H773 H 0.22148 0.65313 0.7254 0.0
H774 H 0.33221 0.89367 0.8281 0.0
H775 H 0.2906 0.78178 0.89331 0.0
H776 H 0.37669 0.93911 0.84264 0.0
H777 H 0.18396 0.63969 0.76101 0.0
H778 H 0.16751 0.651 0.8153 0.0
H779 H 0.30364 0.79442 0.68887 0.0
H780 H 0.21066 0.72584 0.9155 0.0
H781 H 0.25742 0.76873 0.93305 0.0
H782 H 0.42925 0.92697 0.75217 0.0
H783 H 0.17724 0.68231 0.87144 0.0
H784 H 0.3846 0.84147 0.66098 0.0
H785 H 0.33738 0.79907 0.6485 0.0
N786 N 0.33248 0.83224 0.72532 0.0
C787 C 0.35792 0.85645 0.73236 0.0
C788 C 0.32464 0.81227 0.69538 0.0
C789 C 0.37015 0.83917 0.67923 0.0
C790 C 0.34355 0.81515 0.67211 0.0
C791 C 0.37746 0.86043 0.70944 0.0
H792 H 0.41859 0.88909 0.6997 0.0
N793 N 0.34484 0.87404 0.78389 0.0
C794 C 0.36415 0.87791 0.7623 0.0
C795 C 0.39444 0.92569 0.79902 0.0
C796 C 0.38973 0.90376 0.76954 0.0
C797 C 0.34853 0.89603 0.81195 0.0
C798 C 0.37357 0.92197 0.82013 0.0
O799 O 0.24543 0.76527 0.79351 0.0
O800 O 0.25377 0.80707 0.76737 0.0
O801 O 0.28414 0.86966 0.78175 0.0
O802 O 0.29008 0.85525 0.73063 0.0
O803 O 0.30456 0.75719 0.76338 0.0
O804 O 0.27973 0.78386 0.73453 0.0
O805 O 0.34662 0.81552 0.77747 0.0
O806 O 0.34071 0.78718 0.8188 0.0
O807 O 0.30124 0.71285 0.80732 0.0
O808 O 0.3176 0.74744 0.85316 0.0
O809 O 0.31641 0.83566 0.82054 0.0
O810 O 0.28513 0.80069 0.8417 0.0
C811 C 0.23541 0.78513 0.77817 0.0
C812 C 0.28762 0.75841 0.7368 0.0
C813 C 0.26959 0.89939 0.74168 0.0
C814 C 0.24568 0.94155 0.75204 0.0
C815 C 0.2626 0.92952 0.70025 0.0
C816 C 0.27278 0.90573 0.71052 0.0
C817 C 0.2492 0.9474 0.72088 0.0
C818 C 0.25575 0.91734 0.7625 0.0
C819 C 0.2815 0.87452 0.75189 0.0
C820 C 0.40943 0.90732 0.74695 0.0
C821 C 0.40334 0.88573 0.71704 0.0
H822 H 0.41381 0.94586 0.80541 0.0
C823 C 0.35786 0.80279 0.80057 0.0
C824 C 0.29813 0.82933 0.84084 0.0
C825 C 0.34729 0.71338 0.83731 0.0
C826 C 0.3756 0.67579 0.82381 0.0
C827 C 0.40088 0.72727 0.85715 0.0
C828 C 0.37375 0.73509 0.85523 0.0
C829 C 0.40181 0.69772 0.84169 0.0
C830 C 0.34844 0.68382 0.82124 0.0
C831 C 0.31816 0.72051 0.83617 0.0
H832 H 0.26525 0.93421 0.67624 0.0
H833 H 0.28342 0.89245 0.69404 0.0
H834 H 0.2415 0.96589 0.71254 0.0
H835 H 0.25304 0.91281 0.7866 0.0
H836 H 0.42117 0.74401 0.87104 0.0
H837 H 0.37355 0.75804 0.86779 0.0
H838 H 0.42286 0.69162 0.84437 0.0
H839 H 0.32808 0.66653 0.80814 0.0
C840 C 0.61682 0.01103 0.11619 0.0
C841 C 0.64044 0.05578 0.1605 0.0
C842 C 0.61584 0.03882 0.1357 0.0
C843 C 0.66603 0.04488 0.1647 0.0
C844 C 0.6421 0.99958 0.12085 0.0
C845 C 0.66681 0.01681 0.145 0.0
N846 N 0.59311 0.9954 0.09214 0.0
C847 C 0.59198 0.96701 0.07374 0.0
C848 C 0.6417 0.97106 0.10112 0.0
C849 C 0.61636 0.95453 0.07772 0.0
Gd850 Gd 0.5554 0.06568 0.01235 0.0
Gd851 Gd 0.55328 0.01763 0.08618 0.0
N852 N 0.59066 0.04876 0.13099 0.0
C853 C 0.63842 0.08286 0.18085 0.0
C854 C 0.58785 0.07387 0.15262 0.0
C855 C 0.61183 0.09162 0.17724 0.0
H856 H 0.56719 0.0804 0.15192 0.0
H857 H 0.60962 0.11185 0.19374 0.0
H858 H 0.53197 1.00229 0.94996 0.0
H859 H 0.57234 0.95408 0.05583 0.0
H860 H 0.49161 0.98017 0.90256 0.0
H861 H 0.65686 0.09659 0.2001 0.0
H862 H 0.68516 0.05774 0.1835 0.0
H863 H 0.55382 0.14028 0.03783 0.0
H864 H 0.66065 0.96142 0.10403 0.0
H865 H 0.61561 0.93223 0.06275 0.0
H866 H 0.44046 0.05951 0.89961 0.0
H867 H 0.68654 0.00851 0.14883 0.0
H868 H 0.48041 0.15586 0.97842 0.0
H869 H 0.52316 0.17483 0.02448 0.0
N870 N 0.52778 0.10102 1.00093 0.0
C871 C 0.50512 0.09066 0.97475 0.0
C872 C 0.53472 0.13119 0.01824 0.0
C873 C 0.49361 0.14036 0.98439 0.0
C874 C 0.51763 0.15111 0.01047 0.0
C875 C 0.48725 0.10994 0.96595 0.0
H876 H 0.44957 0.11269 0.93214 0.0
N877 N 0.51841 0.04345 0.96485 0.0
C878 C 0.50006 0.06085 0.95639 0.0
C879 C 0.47341 0.01965 0.90977 0.0
C880 C 0.47691 0.04934 0.92878 0.0
C881 C 0.51624 0.0153 0.94504 0.0
C882 C 0.49347 1.00275 0.91769 0.0
O883 O 0.59388 0.02927 0.06372 0.0
O884 O 0.58883 0.0758 0.05833 0.0
O885 O 0.58756 0.06226 0.97962 0.0
O886 O 0.58299 0.10734 1.00195 0.0
O887 O 0.54065 0.06384 0.09954 0.0
O888 O 0.55029 0.0943 0.0604 0.0
O889 O 0.51273 0.03052 0.0131 0.0
O890 O 0.5118 0.03025 0.06785 0.0
O891 O 0.54195 1.00346 0.13072 0.0
O892 O 0.52627 0.97079 0.08412 0.0
O893 O 0.56656 0.01893 1.00108 0.0
O894 O 0.54281 0.98833 0.03384 0.0
C895 C 0.606 0.05738 0.06108 0.0
C896 C 0.54313 0.09039 0.08916 0.0
C897 C 0.59086 0.10026 0.94754 0.0
C898 C 0.60569 0.09708 0.89441 0.0
C899 C 0.57313 0.12925 0.90949 0.0
C900 C 0.57406 0.12081 0.93993 0.0
C901 C 0.58921 0.11765 0.88678 0.0
C902 C 0.60601 0.08795 0.92437 0.0
C903 C 0.5937 0.09192 0.97959 0.0
C904 C 0.45847 0.06805 0.92055 0.0
C905 C 0.46371 0.09834 0.93903 0.0
H906 H 0.45588 0.00996 0.88844 0.0
C907 C 0.49881 0.02978 0.03821 0.0
C908 C 0.55488 0.99115 0.00714 0.0
C909 C 0.495 0.96585 0.12399 0.0
C910 C 0.45978 0.97122 0.16114 0.0
C911 C 0.44705 0.92677 0.11553 0.0
C912 C 0.47474 0.93771 0.10623 0.0
C913 C 0.4397 0.94327 0.14316 0.0
C914 C 0.48713 0.98276 0.15127 0.0
C915 C 0.52485 0.97618 0.1152 0.0
H916 H 0.5604 0.14519 0.90377 0.0
H917 H 0.56197 0.13066 0.95745 0.0
H918 H 0.58912 0.1249 0.86354 0.0
H919 H 0.6192 0.0723 0.93013 0.0
H920 H 0.43152 0.90517 0.10167 0.0
H921 H 0.48039 0.9241 0.08523 0.0
H922 H 0.4187 0.93404 0.15085 0.0
H923 H 0.50258 0.00423 0.1657 0.0
C924 C 0.38953 0.38017 0.35759 0.0
C925 C 0.41545 0.40905 0.32111 0.0
C926 C 0.39089 0.38634 0.32641 0.0
C927 C 0.43723 0.42731 0.34799 0.0
C928 C 0.41221 0.39729 0.38427 0.0
C929 C 0.43554 0.42153 0.37951 0.0
N930 N 0.36672 0.35644 0.36135 0.0
C931 C 0.3658 0.34792 0.39087 0.0
C932 C 0.4109 0.38931 0.41485 0.0
C933 C 0.38794 0.36416 0.41802 0.0
Gd934 Gd 0.29024 0.2567 0.26976 0.0
Gd935 Gd 0.3263 0.34165 0.31784 0.0
N936 N 0.36972 0.36785 0.30087 0.0
C937 C 0.41806 0.41168 0.28882 0.0
C938 C 0.37343 0.36861 0.26931 0.0
C939 C 0.39741 0.3908 0.2628 0.0
H940 H 0.35827 0.35217 0.24907 0.0
H941 H 0.39994 0.39177 0.23772 0.0
H942 H 0.26942 0.22438 0.33255 0.0
H943 H 0.3473 0.32983 0.39417 0.0
H944 H 0.22421 0.19319 0.34725 0.0
H945 H 0.43663 0.42879 0.28368 0.0
H946 H 0.45598 0.44529 0.3445 0.0
H947 H 0.27704 0.24499 0.18712 0.0
H948 H 0.42756 0.4023 0.43607 0.0
H949 H 0.38683 0.35783 0.44159 0.0
H950 H 0.15189 0.16501 0.24847 0.0
H951 H 0.45283 0.43537 0.39988 0.0
H952 H 0.18618 0.19137 0.15193 0.0
H953 H 0.23542 0.21911 0.14122 0.0
N954 N 0.25121 0.23426 0.22412 0.0
C955 C 0.22489 0.2174 0.2303 0.0
C956 C 0.25538 0.23397 0.19241 0.0
C957 C 0.20422 0.20328 0.17232 0.0
C958 C 0.23195 0.2189 0.16619 0.0
C959 C 0.20059 0.20176 0.20458 0.0
H960 H 0.15532 0.17145 0.19212 0.0
N961 N 0.24803 0.22586 0.28543 0.0
C962 C 0.22323 0.21312 0.26192 0.0
C963 C 0.1971 0.18766 0.30025 0.0
C964 C 0.19702 0.1938 0.26877 0.0
C965 C 0.24898 0.21746 0.31514 0.0
C966 C 0.22342 0.19903 0.32333 0.0
O967 O 0.3601 0.31175 0.31223 0.0
O968 O 0.33835 0.28016 0.26255 0.0
O969 O 0.30401 0.21769 0.28341 0.0
O970 O 0.30091 0.22312 0.23301 0.0
O971 O 0.30926 0.34031 0.26452 0.0
O972 O 0.29409 0.28971 0.23423 0.0
O973 O 0.2524 0.27773 0.28655 0.0
O974 O 0.27428 0.33024 0.30948 0.0
O975 O 0.32945 0.38945 0.31654 0.0
O976 O 0.32162 0.37285 0.36102 0.0
O977 O 0.31033 0.26599 0.32439 0.0
O978 O 0.30324 0.3116 0.34894 0.0
C979 C 0.36271 0.29324 0.28517 0.0
C980 C 0.29972 0.3201 0.23625 0.0
C981 C 0.29025 0.17197 0.24211 0.0
C982 C 0.28786 0.12013 0.25044 0.0
C983 C 0.25334 0.12724 0.20656 0.0
C984 C 0.2664 0.15947 0.2155 0.0
C985 C 0.2639 0.10749 0.22416 0.0
C986 C 0.30112 0.15217 0.259 0.0
C987 C 0.30474 0.20531 0.25319 0.0
C988 C 0.17219 0.17987 0.24365 0.0
C989 C 0.17407 0.18365 0.21158 0.0
H990 H 0.17744 0.17297 0.30648 0.0
C991 C 0.25014 0.30584 0.29993 0.0
C992 C 0.30369 0.28317 0.3498 0.0
C993 C 0.29738 0.40912 0.34613 0.0
C994 C 0.27227 0.44249 0.32292 0.0
C995 C 0.24668 0.40772 0.35452 0.0
C996 C 0.27189 0.39669 0.35932 0.0
C997 C 0.24672 0.43049 0.33607 0.0
C998 C 0.29768 0.43263 0.32885 0.0
C999 C 0.32225 0.3954 0.34553 0.0
H1000 H 0.23499 0.11762 0.1861 0.0
H1001 H 0.25792 0.17434 0.2016 0.0
H1002 H 0.2536 0.08256 0.21735 0.0
H1003 H 0.31979 0.16174 0.2793 0.0
H1004 H 0.227 0.39827 0.36455 0.0
H1005 H 0.27113 0.37806 0.37249 0.0
H1006 H 0.22708 0.43894 0.33223 0.0
H1007 H 0.31736 0.4425 0.31881 0.0
C1008 C 0.51836 0.61463 0.10938 0.0
C1009 C 0.56325 0.65711 0.13237 0.0
C1010 C 0.54765 0.63043 0.10798 0.0
C1011 C 0.54946 0.66702 0.15858 0.0
C1012 C 0.5044 0.62473 0.13554 0.0
C1013 C 0.52017 0.65084 0.16021 0.0
N1014 N 0.50344 0.58958 0.08502 0.0
C1015 C 0.47434 0.57423 0.08477 0.0
C1016 C 0.47483 0.60849 0.13594 0.0
C1017 C 0.45973 0.58321 0.11039 0.0
Gd1018 Gd 0.5571 0.49867 0.03482 0.0
Gd1019 Gd 0.52977 0.57796 0.04276 0.0
N1020 N 0.56071 0.62006 0.0826 0.0
C1021 C 0.59218 0.67326 0.1295 0.0
C1022 C 0.58824 0.63667 0.07878 0.0
C1023 C 0.6046 0.66314 0.10244 0.0
H1024 H 0.59749 0.63007 0.05726 0.0
H1025 H 0.62662 0.67595 0.09956 0.0
H1026 H 0.48966 0.44569 0.01807 0.0
H1027 H 0.46201 0.55548 0.06458 0.0
H1028 H 0.45929 0.40377 0.972 0.0
H1029 H 0.60488 0.69384 0.14773 0.0
H1030 H 0.56118 0.68736 0.17761 0.0
H1031 H 0.62595 0.51945 0.01574 0.0
H1032 H 0.46333 0.61555 0.15561 0.0
H1033 H 0.43669 0.57088 0.11017 0.0
H1034 H 0.52264 0.40176 0.89033 0.0
H1035 H 0.50979 0.65893 0.18048 0.0
H1036 H 0.62264 0.46959 0.9184 0.0
H1037 H 0.65081 0.50845 0.96831 0.0
N1038 N 0.58366 0.48845 0.9923 0.0
C1039 C 0.56808 0.46607 0.96567 0.0
C1040 C 0.61321 0.50298 0.99388 0.0
C1041 C 0.6115 0.47453 0.93906 0.0
C1042 C 0.62748 0.49653 0.96716 0.0
C1043 C 0.58153 0.45872 0.93818 0.0
H1044 H 0.57466 0.42997 0.88942 0.0
N1045 N 0.52593 0.45861 0.99266 0.0
C1046 C 0.53844 0.45063 0.96593 0.0
C1047 C 0.49296 0.41016 0.94115 0.0
C1048 C 0.52197 0.42673 0.93909 0.0
C1049 C 0.49847 0.44119 0.99572 0.0
C1050 C 0.48138 0.41703 0.96983 0.0
O1051 O 0.54083 0.5624 0.09102 0.0
O1052 O 0.57545 0.53456 0.08211 0.0
O1053 O 0.54491 0.45888 0.05867 0.0
O1054 O 0.59063 0.47593 0.04998 0.0
O1055 O 0.57296 0.57701 0.02397 0.0
O1056 O 0.59436 0.5438 0.04835 0.0
O1057 O 0.54711 0.51579 0.9876 0.0
O1058 O 0.51133 0.54229 0.99526 0.0
O1059 O 0.54165 0.6158 0.01678 0.0
O1060 O 0.49642 0.60126 0.02817 0.0
O1061 O 0.51311 0.49928 0.05222 0.0
O1062 O 0.49224 0.53351 0.02907 0.0
C1063 C 0.56077 0.54856 0.10177 0.0
C1064 C 0.59638 0.56811 0.03462 0.0
C1065 C 0.5815 0.43182 0.07696 0.0
C1066 C 0.57258 0.38925 0.10678 0.0
C1067 C 0.62036 0.40624 0.08907 0.0
C1068 C 0.61046 0.42858 0.07535 0.0
C1069 C 0.6016 0.3867 0.10461 0.0
C1070 C 0.56244 0.412 0.09294 0.0
C1071 C 0.57206 0.45597 0.06182 0.0
C1072 C 0.5351 0.41978 0.91136 0.0
C1073 C 0.56476 0.4358 0.91087 0.0
H1074 H 0.47962 0.39167 0.92102 0.0
C1075 C 0.52634 0.52817 0.97616 0.0
C1076 C 0.48975 0.50791 0.04051 0.0
C1077 C 0.50628 0.64395 0.99928 0.0
C1078 C 0.5174 0.6858 0.9692 0.0
C1079 C 0.4685 0.67007 0.98486 0.0
C1080 C 0.47733 0.64767 0.9995 0.0
C1081 C 0.48836 0.689 0.96978 0.0
C1082 C 0.52645 0.66326 0.98408 0.0
C1083 C 0.51499 0.62001 0.01503 0.0
H1084 H 0.64271 0.404 0.08757 0.0
H1085 H 0.6256 0.4433 0.06333 0.0
H1086 H 0.60974 0.36941 0.11499 0.0
H1087 H 0.54002 0.41408 0.09451 0.0
H1088 H 0.44615 0.67275 0.98519 0.0
H1089 H 0.46143 0.63327 0.01106 0.0
H1090 H 0.48107 0.70627 0.95849 0.0
H1091 H 0.54889 0.66078 0.98365 0.0
C1092 C 0.74056 0.22376 0.35121 0.0
C1093 C 0.70289 0.18059 0.31423 0.0
C1094 C 0.73012 0.2043 0.32021 0.0
C1095 C 0.68535 0.17801 0.33899 0.0
C1096 C 0.72388 0.21969 0.37673 0.0
C1097 C 0.69581 0.19752 0.37014 0.0
N1098 N 0.76807 0.24466 0.35718 0.0
C1099 C 0.78167 0.25897 0.38872 0.0
C1100 C 0.73654 0.23691 0.40853 0.0
C1101 C 0.76585 0.25608 0.41467 0.0
Gd1102 Gd 0.80406 0.3318 0.2662 0.0
Gd1103 Gd 0.79026 0.24945 0.31024 0.0
N1104 N 0.74765 0.20691 0.29672 0.0
C1105 C 0.69474 0.15924 0.28403 0.0
C1106 C 0.74113 0.18467 0.26852 0.0
C1107 C 0.71431 0.16084 0.26141 0.0
H1108 H 0.75685 0.18502 0.25181 0.0
H1109 H 0.7089 0.1435 0.23873 0.0
H1110 H 0.84425 0.3834 0.33285 0.0
H1111 H 0.80457 0.27306 0.3938 0.0
H1112 H 0.89277 0.42378 0.34857 0.0
H1113 H 0.67408 0.1406 0.27857 0.0
H1114 H 0.6642 0.16018 0.33467 0.0
H1115 H 0.78722 0.31834 0.18289 0.0
H1116 H 0.72443 0.23444 0.42875 0.0
H1117 H 0.77638 0.26839 0.43941 0.0
H1118 H 0.92992 0.4263 0.24718 0.0
H1119 H 0.68256 0.19439 0.38936 0.0
H1120 H 0.86506 0.36444 0.14847 0.0
H1121 H 0.81326 0.33005 0.13717 0.0
N1122 N 0.82497 0.3433 0.21999 0.0
C1123 C 0.85256 0.36407 0.22667 0.0
C1124 C 0.81023 0.33247 0.18828 0.0
C1125 C 0.85397 0.35885 0.16871 0.0
C1126 C 0.82475 0.33941 0.16223 0.0
C1127 C 0.86796 0.37212 0.20122 0.0
H1128 H 0.90854 0.40026 0.18973 0.0
N1129 N 0.84811 0.37253 0.28255 0.0
C1130 C 0.86444 0.37919 0.25894 0.0
C1131 C 0.9027 0.41797 0.29947 0.0
C1132 C 0.89227 0.4021 0.26676 0.0
C1133 C 0.85763 0.38856 0.3143 0.0
C1134 C 0.8851 0.41142 0.32328 0.0
O1135 O 0.74585 0.2546 0.28493 0.0
O1136 O 0.7564 0.3045 0.27199 0.0
O1137 O 0.79377 0.37347 0.29051 0.0
O1138 O 0.77055 0.34942 0.24153 0.0
O1139 O 0.79433 0.27017 0.26734 0.0
O1140 O 0.79444 0.28999 0.22492 0.0
O1141 O 0.84829 0.31874 0.28286 0.0
O1142 O 0.83984 0.2759 0.3092 0.0
O1143 O 0.80578 0.209 0.29079 0.0
O1144 O 0.81937 0.23447 0.34292 0.0
O1145 O 0.81591 0.32471 0.31692 0.0
O1146 O 0.78863 0.29304 0.34356 0.0
C1147 C 0.73748 0.27888 0.27682 0.0
C1148 C 0.79182 0.26465 0.23552 0.0
C1149 C 0.77544 0.40315 0.25611 0.0
C1150 C 0.75635 0.44881 0.25856 0.0
C1151 C 0.79613 0.44339 0.22758 0.0
C1152 C 0.79565 0.41494 0.23635 0.0
C1153 C 0.77681 0.46042 0.23884 0.0
C1154 C 0.75544 0.41977 0.2666 0.0
C1155 C 0.77429 0.37329 0.2655 0.0
C1156 C 0.9084 0.40894 0.24165 0.0
C1157 C 0.89625 0.39403 0.20895 0.0
H1158 H 0.92399 0.43568 0.30648 0.0
C1159 C 0.85801 0.29843 0.29826 0.0
C1160 C 0.79909 0.32126 0.3392 0.0
C1161 C 0.83911 0.19079 0.32823 0.0
C1162 C 0.86129 0.14859 0.31229 0.0
C1163 C 0.87104 0.17596 0.36915 0.0
C1164 C 0.85312 0.19483 0.36092 0.0
C1165 C 0.87518 0.15293 0.34494 0.0
C1166 C 0.84319 0.16748 0.30386 0.0
C1167 C 0.82094 0.21149 0.32008 0.0
H1168 H 0.81171 0.45241 0.21226 0.0
H1169 H 0.81093 0.40218 0.22766 0.0
H1170 H 0.77789 0.48273 0.23233 0.0
H1171 H 0.7396 0.4105 0.28164 0.0
H1172 H 0.88178 0.17925 0.39431 0.0
H1173 H 0.85034 0.21265 0.38022 0.0
H1174 H 0.88922 0.13841 0.35162 0.0
H1175 H 0.83264 0.1641 0.27857 0.0
C1176 C 0.10526 0.49451 0.60622 0.0
C1177 C 0.14278 0.5329 0.6484 0.0
C1178 C 0.11546 0.52427 0.62614 0.0
C1179 C 0.1606 0.51211 0.64869 0.0
C1180 C 0.12226 0.47289 0.60811 0.0
C1181 C 0.15035 0.48216 0.62864 0.0
N1182 N 0.0781 0.48615 0.58628 0.0
C1183 C 0.06507 0.45563 0.57104 0.0
C1184 C 0.11008 0.44225 0.59013 0.0
C1185 C 0.0811 0.43343 0.5721 0.0
Gd1186 Gd 0.05695 0.57241 0.50833 0.0
Gd1187 Gd 0.05402 0.52591 0.5844 0.0
N1188 N 0.09777 0.54398 0.6254 0.0
C1189 C 0.15083 0.56163 0.67071 0.0
C1190 C 0.10406 0.57045 0.64966 0.0
C1191 C 0.13103 0.58016 0.67183 0.0
H1192 H 0.08944 0.58541 0.65012 0.0
H1193 H 0.13656 0.60198 0.68966 0.0
H1194 H 0.02008 0.49988 0.45803 0.0
H1195 H 0.04234 0.44846 0.55767 0.0
H1196 H 0.98487 0.47827 0.40759 0.0
H1197 H 0.17169 0.56913 0.68803 0.0
H1198 H 0.18185 0.51855 0.66524 0.0
H1199 H 0.05518 0.64622 0.5282 0.0
H1200 H 0.12242 0.42496 0.59102 0.0
H1201 H 0.07101 0.4095 0.55918 0.0
H1202 H 0.95348 0.56496 0.38105 0.0
H1203 H 0.16389 0.466 0.63 0.0
H1204 H 0.99312 0.66386 0.45541 0.0
H1205 H 0.02986 0.68223 0.50706 0.0
N1206 N 0.03308 0.60753 0.48904 0.0
C1207 C 0.01337 0.59716 0.46043 0.0
C1208 C 0.03919 0.63776 0.50561 0.0
C1209 C 1.00437 0.64795 0.46446 0.0
C1210 C 0.02498 0.65836 0.49365 0.0
C1211 C 0.99824 0.61702 0.44749 0.0
H1212 H 0.96507 0.62016 0.40838 0.0
N1213 N 0.02004 0.54724 0.46007 0.0
C1214 C 1.00673 0.56608 0.44535 0.0
C1215 C 0.97747 0.52228 0.40245 0.0
C1216 C 0.98486 0.55406 0.41648 0.0
C1217 C 0.01165 0.51588 0.44676 0.0
C1218 C 0.99086 0.5031 0.41778 0.0
O1219 O 0.0918 0.56835 0.5885 0.0
O1220 O 0.08977 0.55482 0.53571 0.0
O1221 O 0.08746 0.57452 0.47462 0.0
O1222 O 0.0918 0.61586 0.51208 0.0
O1223 O 0.04038 0.57097 0.59483 0.0
O1224 O 0.05554 0.60311 0.55874 0.0
O1225 O 0.01473 0.55886 0.52757 0.0
O1226 O 0.01951 0.5132 0.53827 0.0
O1227 O 0.0137 0.52457 0.60587 0.0
O1228 O 0.04422 0.49877 0.62107 0.0
O1229 O 0.06396 0.52369 0.49354 0.0
O1230 O 0.05324 0.49472 0.53389 0.0
C1231 C 0.10445 0.57182 0.56343 0.0
C1232 C 0.04513 0.59824 0.5863 0.0
C1233 C 0.10406 0.62137 0.45929 0.0
C1234 C 0.11655 0.62112 0.40519 0.0
C1235 C 0.09757 0.66254 0.43149 0.0
C1236 C 0.09582 0.64915 0.45906 0.0
C1237 C 0.10798 0.64857 0.40449 0.0
C1238 C 0.11461 0.60776 0.43237 0.0
C1239 C 0.1005 0.60413 0.4855 0.0
C1240 C 0.97034 0.57387 0.40306 0.0
C1241 C 0.97693 0.60527 0.4186 0.0
H1242 H 0.96095 0.51221 0.38028 0.0
C1243 C 1.00241 0.53063 0.53017 0.0
C1244 C 0.05988 0.49726 0.50429 0.0
C1245 C 0.99475 0.48165 0.6295 0.0
C1246 C 0.9568 0.46808 0.66254 0.0
C1247 C 0.96474 0.42804 0.62095 0.0
C1248 C 0.98819 0.45023 0.61342 0.0
C1249 C 0.94897 0.43694 0.64556 0.0
C1250 C 0.97906 0.49032 0.65384 0.0
C1251 C 0.01953 0.50597 0.62445 0.0
H1252 H 0.09102 0.68381 0.43111 0.0
H1253 H 0.08808 0.66044 0.47983 0.0
H1254 H 0.10969 0.65922 0.38341 0.0
H1255 H 0.12157 0.58658 0.43251 0.0
H1256 H 0.95922 0.40388 0.60822 0.0
H1257 H 1.0008 0.44304 0.59496 0.0
H1258 H 0.93152 0.4197 0.6521 0.0
H1259 H 0.9851 0.51443 0.66721 0.0
C1260 C 0.73533 0.82225 0.21716 0.0
C1261 C 0.70023 0.77477 0.18409 0.0
C1262 C 0.72079 0.79059 0.21306 0.0
C1263 C 0.69514 0.79078 0.15913 0.0
C1264 C 0.72962 0.83852 0.19248 0.0
C1265 C 0.70977 0.82252 0.16331 0.0
N1266 N 0.75482 0.8372 0.24542 0.0
C1267 C 0.76741 0.86865 0.2517 0.0
C1268 C 0.74368 0.87054 0.19806 0.0
C1269 C 0.76234 0.88573 0.22797 0.0
Gd1270 Gd 0.83463 0.77359 0.28612 0.0
Gd1271 Gd 0.7607 0.80671 0.28376 0.0
N1272 N 0.72634 0.77548 0.23753 0.0
C1273 C 0.68487 0.74347 0.18133 0.0
C1274 C 0.71016 0.74552 0.23571 0.0
C1275 C 0.68951 0.72896 0.20745 0.0
H1276 H 0.71287 0.73417 0.25585 0.0
H1277 H 0.67714 0.705 0.20586 0.0
H1278 H 0.89003 0.83854 0.31028 0.0
H1279 H 0.78165 0.88062 0.2749 0.0
H1280 H 0.93273 0.86285 0.3562 0.0
H1281 H 0.66885 0.73053 0.15949 0.0
H1282 H 0.67954 0.77892 0.13666 0.0
H1283 H 0.81621 0.69607 0.28416 0.0
H1284 H 0.73983 0.88384 0.1797 0.0
H1285 H 0.77286 0.91057 0.23277 0.0
H1286 H 0.93304 0.78255 0.41696 0.0
H1287 H 0.70524 0.83461 0.14401 0.0
H1288 H 0.86573 0.68146 0.36978 0.0
H1289 H 0.82774 0.66072 0.31917 0.0
N1290 N 0.84593 0.73695 0.31575 0.0
C1291 C 0.86799 0.7484 0.34246 0.0
C1292 C 0.8323 0.70562 0.30663 0.0
C1293 C 0.86049 0.69719 0.35473 0.0
C1294 C 0.83901 0.68541 0.32621 0.0
C1295 C 0.8757 0.72896 0.36287 0.0
H1296 H 0.90474 0.7272 0.40644 0.0
N1297 N 0.8763 0.79706 0.32771 0.0
C1298 C 0.88367 0.7795 0.34865 0.0
C1299 C 0.92497 0.82289 0.37837 0.0
C1300 C 0.90784 0.7921 0.37502 0.0
C1301 C 0.89434 0.82607 0.32913 0.0
C1302 C 0.91864 0.83967 0.3548 0.0
O1303 O 0.78155 0.79748 0.2371 0.0
O1304 O 0.79489 0.75439 0.24507 0.0
O1305 O 0.86542 0.78978 0.25352 0.0
O1306 O 0.85448 0.74173 0.25753 0.0
O1307 O 0.75353 0.76109 0.30028 0.0
O1308 O 0.79183 0.73766 0.2898 0.0
O1309 O 0.83189 0.80331 0.33558 0.0
O1310 O 0.78193 0.80387 0.33467 0.0
O1311 O 0.71534 0.80075 0.29446 0.0
O1312 O 0.74715 0.84627 0.30736 0.0
O1313 O 0.83685 0.8207 0.27324 0.0
O1314 O 0.80479 0.84339 0.30024 0.0
C1315 C 0.78877 0.77196 0.22502 0.0
C1316 C 0.76566 0.73763 0.29889 0.0
C1317 C 0.90292 0.76299 0.24593 0.0
C1318 C 0.94874 0.77242 0.22162 0.0
C1319 C 0.9459 0.7471 0.26804 0.0
C1320 C 0.91682 0.7495 0.26887 0.0
C1321 C 0.96169 0.7583 0.24454 0.0
C1322 C 0.91918 0.77483 0.2224 0.0
C1323 C 0.87108 0.76301 0.24537 0.0
C1324 C 0.91478 0.77323 0.39632 0.0
C1325 C 0.89871 0.7417 0.39027 0.0
H1326 H 0.94384 0.83343 0.39818 0.0
C1327 C 0.80938 0.80799 0.35051 0.0
C1328 C 0.82886 0.84525 0.28675 0.0
C1329 C 0.70931 0.83672 0.34033 0.0
C1330 C 0.66924 0.82764 0.37285 0.0
C1331 C 0.71364 0.8711 0.39324 0.0
C1332 C 0.7252 0.86299 0.3649 0.0
C1333 C 0.68575 0.85365 0.39717 0.0
C1334 C 0.68121 0.81895 0.34458 0.0
C1335 C 0.72051 0.82985 0.30907 0.0
H1336 H 0.95622 0.73634 0.28561 0.0
H1337 H 0.90505 0.74034 0.28723 0.0
H1338 H 0.98424 0.7561 0.24432 0.0
H1339 H 0.90883 0.78536 0.20457 0.0
H1340 H 0.72606 0.89141 0.41191 0.0
H1341 H 0.74626 0.8778 0.36195 0.0
H1342 H 0.67679 0.86069 0.41898 0.0
H1343 H 0.66819 0.79914 0.32557 0.0
C1344 C 0.84939 0.24672 0.70836 0.0
C1345 C 0.81638 0.23116 0.65546 0.0
C1346 C 0.82614 0.2507 0.687 0.0
C1347 C 0.82982 0.20724 0.64598 0.0
C1348 C 0.86353 0.2233 0.69846 0.0
C1349 C 0.85333 0.20333 0.6674 0.0
N1350 N 0.85847 0.26599 0.73856 0.0
C1351 C 0.88323 0.26486 0.75876 0.0
C1352 C 0.88776 0.22086 0.71992 0.0
C1353 C 0.89794 0.24206 0.74996 0.0
Gd1354 Gd 0.77526 0.29702 0.83221 0.0
Gd1355 Gd 0.82979 0.30094 0.75194 0.0
N1356 N 0.81283 0.2734 0.69724 0.0
C1357 C 0.79338 0.23625 0.63436 0.0
C1358 C 0.79142 0.27943 0.67613 0.0
C1359 C 0.78118 0.26078 0.64458 0.0
H1360 H 0.78221 0.29873 0.68316 0.0
H1361 H 0.76391 0.26538 0.62813 0.0
H1362 H 0.82781 0.30946 0.90013 0.0
H1363 H 0.8922 0.28171 0.78154 0.0
H1364 H 0.84903 0.34961 0.95053 0.0
H1365 H 0.78526 0.22173 0.60996 0.0
H1366 H 0.82239 0.19181 0.62198 0.0
H1367 H 0.7107 0.3111 0.8015 0.0
H1368 H 0.89923 0.20321 0.71319 0.0
H1369 H 0.91725 0.24098 0.76631 0.0
H1370 H 0.78694 0.41964 0.94958 0.0
H1371 H 0.86373 0.18502 0.65955 0.0
H1372 H 0.70439 0.3953 0.86096 0.0
H1373 H 0.6848 0.35197 0.81235 0.0
N1374 N 0.74582 0.3318 0.84264 0.0
C1375 C 0.75585 0.35431 0.87065 0.0
C1376 C 0.72001 0.33016 0.82244 0.0
C1377 C 0.71601 0.37744 0.85629 0.0
C1378 C 0.70496 0.3531 0.82875 0.0
C1379 C 0.74153 0.37809 0.87788 0.0
H1380 H 0.74256 0.42035 0.91204 0.0
N1381 N 0.79463 0.33104 0.88389 0.0
C1382 C 0.78075 0.35375 0.8921 0.0
C1383 C 0.81727 0.37585 0.94182 0.0
C1384 C 0.79214 0.37718 0.92091 0.0
C1385 C 0.81806 0.32863 0.90518 0.0
C1386 C 0.82999 0.35121 0.93415 0.0
O1387 O 0.80018 0.25217 0.7429 0.0
O1388 O 0.78421 0.27136 0.78576 0.0
O1389 O 0.77137 0.25706 0.85468 0.0
O1390 O 0.73209 0.27289 0.84225 0.0
O1391 O 0.78318 0.30892 0.74014 0.0
O1392 O 0.75214 0.29901 0.78019 0.0
O1393 O 0.80373 0.34627 0.83767 0.0
O1394 O 0.81899 0.32175 0.79803 0.0
O1395 O 0.83636 0.34565 0.7385 0.0
O1396 O 0.87405 0.3264 0.7461 0.0
O1397 O 0.82132 0.2876 0.84364 0.0
O1398 O 0.85109 0.294 0.80193 0.0
C1399 C 0.7826 0.2463 0.76392 0.0
C1400 C 0.75713 0.30589 0.75106 0.0
C1401 C 0.73233 0.24605 0.88597 0.0
C1402 C 0.74079 0.2308 0.93811 0.0
C1403 C 0.69011 0.22426 0.91116 0.0
C1404 C 0.70129 0.23648 0.88548 0.0
C1405 C 0.70976 0.22109 0.93728 0.0
C1406 C 0.75209 0.24377 0.91279 0.0
C1407 C 0.74315 0.25376 0.85627 0.0
C1408 C 0.77832 0.40127 0.92774 0.0
C1409 C 0.75307 0.4017 0.90632 0.0
H1410 H 0.82679 0.39348 0.96411 0.0
C1411 C 0.8198 0.34877 0.815 0.0
C1412 C 0.84652 0.28842 0.83142 0.0
C1413 C 0.87096 0.35182 0.70229 0.0
C1414 C 0.85513 0.35728 0.64704 0.0
C1415 C 0.90708 0.35995 0.66563 0.0
C1416 C 0.90043 0.35582 0.69634 0.0
C1417 C 0.88456 0.36096 0.64107 0.0
C1418 C 0.84824 0.35168 0.67715 0.0
C1419 C 0.86384 0.34726 0.73439 0.0
H1420 H 0.66615 0.2164 0.91033 0.0
H1421 H 0.68568 0.23747 0.86468 0.0
H1422 H 0.70083 0.21053 0.95649 0.0
H1423 H 0.77609 0.25032 0.91325 0.0
H1424 H 0.92982 0.36301 0.66109 0.0
H1425 H 0.91821 0.35568 0.71537 0.0
H1426 H 0.89018 0.36529 0.61774 0.0
H1427 H 0.82531 0.34858 0.68117 0.0
C1428 C 0.88536 0.87247 0.86065 0.0
C1429 C 0.91766 0.89798 0.82646 0.0
C1430 C 0.89053 0.87758 0.82978 0.0
C1431 C 0.93843 0.91491 0.8546 0.0
C1432 C 0.90684 0.88864 0.88875 0.0
C1433 C 0.93255 0.91078 0.8856 0.0
N1434 N 0.85879 0.85315 0.86343 0.0
C1435 C 0.85328 0.84789 0.89349 0.0
C1436 C 0.90133 0.88315 0.91945 0.0
C1437 C 0.87467 0.86223 0.92172 0.0
Gd1438 Gd 0.78648 0.75753 0.76911 0.0
Gd1439 Gd 0.82191 0.84253 0.81656 0.0
N1440 N 0.86877 0.86335 0.8032 0.0
C1441 C 0.92255 0.90177 0.79504 0.0
C1442 C 0.87335 0.86713 0.77257 0.0
C1443 C 0.90044 0.88587 0.76792 0.0
H1444 H 0.85614 0.85609 0.75169 0.0
H1445 H 0.90388 0.88874 0.74351 0.0
H1446 H 0.76324 0.72805 0.83238 0.0
H1447 H 0.83171 0.8348 0.89661 0.0
H1448 H 0.71738 0.69716 0.84616 0.0
H1449 H 0.94315 0.91713 0.7915 0.0
H1450 H 0.95876 0.93177 0.85271 0.0
H1451 H 0.77556 0.74558 0.68672 0.0
H1452 H 0.91731 0.89527 0.94157 0.0
H1453 H 0.86991 0.85833 0.94545 0.0
H1454 H 0.64858 0.66423 0.74436 0.0
H1455 H 0.94753 0.92534 0.90719 0.0
H1456 H 0.68575 0.68994 0.6488 0.0
H1457 H 0.73521 0.71891 0.63968 0.0
N1458 N 0.74862 0.73431 0.72264 0.0
C1459 C 0.7221 0.7172 0.72801 0.0
C1460 C 0.75371 0.73417 0.69125 0.0
C1461 C 0.70318 0.70229 0.66966 0.0
C1462 C 0.73103 0.71861 0.66441 0.0
C1463 C 0.69862 0.70087 0.70169 0.0
H1464 H 0.654 0.66931 0.68801 0.0
N1465 N 0.74345 0.72727 0.78384 0.0
C1466 C 0.71941 0.7136 0.75961 0.0
C1467 C 0.69192 0.68932 0.79774 0.0
C1468 C 0.69296 0.69426 0.76592 0.0
C1469 C 0.74335 0.72021 0.81411 0.0
C1470 C 0.71743 0.70197 0.82182 0.0
O1471 O 0.85495 0.81182 0.80766 0.0
O1472 O 0.83195 0.78213 0.75771 0.0
O1473 O 0.8028 0.7206 0.78554 0.0
O1474 O 0.79807 0.72315 0.73441 0.0
O1475 O 0.80559 0.84136 0.76308 0.0
O1476 O 0.79119 0.79055 0.73338 0.0
O1477 O 0.74836 0.77822 0.78532 0.0
O1478 O 0.76976 0.83072 0.8094 0.0
O1479 O 0.82748 0.88972 0.81068 0.0
O1480 O 0.81961 0.87824 0.85725 0.0
O1481 O 0.80658 0.76782 0.82411 0.0
O1482 O 0.79686 0.81248 0.84648 0.0
C1483 C 0.85675 0.79455 0.77933 0.0
C1484 C 0.79685 0.82092 0.73491 0.0
C1485 C 0.78615 0.67312 0.74587 0.0
C1486 C 0.77889 0.62099 0.75602 0.0
C1487 C 0.74806 0.62951 0.70984 0.0
C1488 C 0.76333 0.66119 0.71808 0.0
C1489 C 0.7556 0.60941 0.72892 0.0
C1490 C 0.794 0.6528 0.76447 0.0
C1491 C 0.80233 0.7064 0.75558 0.0
C1492 C 0.66901 0.67925 0.74003 0.0
C1493 C 0.67198 0.68232 0.70796 0.0
H1494 H 0.67201 0.67469 0.80358 0.0
C1495 C 0.74585 0.80606 0.79916 0.0
C1496 C 0.79913 0.78493 0.84901 0.0
C1497 C 0.80249 0.9196 0.84239 0.0
C1498 C 0.78327 0.95838 0.82121 0.0
C1499 C 0.76686 0.94152 0.86915 0.0
C1500 C 0.78516 0.92126 0.86745 0.0
C1501 C 0.76584 0.96012 0.846 0.0
C1502 C 0.80155 0.93845 0.81961 0.0
C1503 C 0.82273 0.89964 0.84005 0.0
H1504 H 0.73054 0.62053 0.68848 0.0
H1505 H 0.75731 0.67607 0.70255 0.0
H1506 H 0.7439 0.58479 0.72218 0.0
H1507 H 0.81206 0.66163 0.78543 0.0
H1508 H 0.75357 0.94286 0.88845 0.0
H1509 H 0.78586 0.90716 0.8857 0.0
H1510 H 0.75169 0.97583 0.84744 0.0
H1511 H 0.81522 0.93791 0.8005 0.0
C1512 C 0.49319 0.44913 0.48908 0.0
C1513 C 0.46334 0.42233 0.52446 0.0
C1514 C 0.47921 0.45025 0.51681 0.0
C1515 C 0.46179 0.39352 0.50439 0.0
C1516 C 0.4913 0.4201 0.46883 0.0
C1517 C 0.47575 0.39241 0.47676 0.0
N1518 N 0.50867 0.47633 0.48204 0.0
C1519 C 0.52027 0.47593 0.45372 0.0
C1520 C 0.5046 0.41967 0.44073 0.0
C1521 C 0.51888 0.44771 0.43301 0.0
Gd1522 Gd 0.58451 0.57368 0.56046 0.0
Gd1523 Gd 0.5047 0.52171 0.51594 0.0
N1524 N 0.4809 0.47849 0.53604 0.0
C1525 C 0.44906 0.42408 0.55186 0.0
C1526 C 0.46617 0.48027 0.56226 0.0
C1527 C 0.45035 0.45315 0.57069 0.0
H1528 H 0.46588 0.50252 0.57628 0.0
H1529 H 0.43889 0.45469 0.59155 0.0
H1530 H 0.60946 0.60133 0.49787 0.0
H1531 H 0.52943 0.49705 0.44594 0.0
H1532 H 0.63238 0.65198 0.48498 0.0
H1533 H 0.43663 0.40312 0.55843 0.0
H1534 H 0.44959 0.37189 0.50988 0.0
H1535 H 0.57611 0.58955 0.64141 0.0
H1536 H 0.5033 0.39784 0.42438 0.0
H1537 H 0.52821 0.44762 0.41066 0.0
H1538 H 0.63873 0.72614 0.58399 0.0
H1539 H 0.47399 0.36996 0.46134 0.0
H1540 H 0.60286 0.68811 0.67495 0.0
H1541 H 0.58252 0.63537 0.68465 0.0
N1542 N 0.5884 0.61543 0.6048 0.0
C1543 C 0.60093 0.64432 0.59947 0.0
C1544 C 0.58285 0.61211 0.63542 0.0
C1545 C 0.59893 0.66796 0.65512 0.0
C1546 C 0.5873 0.63824 0.66064 0.0
C1547 C 0.60665 0.67128 0.6246 0.0
H1548 H 0.62491 0.72152 0.63783 0.0
N1549 N 0.60268 0.62095 0.54497 0.0
C1550 C 0.6085 0.64711 0.56889 0.0
C1551 C 0.63043 0.67834 0.53225 0.0
C1552 C 0.62229 0.67661 0.56299 0.0
C1553 C 0.61189 0.62236 0.51555 0.0
C1554 C 0.62539 0.65103 0.50849 0.0
O1555 O 0.53621 0.49284 0.53298 0.0
O1556 O 0.57691 0.52421 0.57118 0.0
O1557 O 0.6261 0.56959 0.54557 0.0
O1558 O 0.62487 0.58612 0.59694 0.0
O1559 O 0.50605 0.54472 0.56883 0.0
O1560 O 0.55475 0.55274 0.59361 0.0
O1561 O 0.55583 0.60143 0.53559 0.0
O1562 O 0.50567 0.57407 0.52675 0.0
O1563 O 0.45695 0.5082 0.51051 0.0
O1564 O 0.47719 0.5173 0.46833 0.0
O1565 O 0.57921 0.54536 0.50905 0.0
O1566 O 0.53422 0.54738 0.48508 0.0
C1567 C 0.55927 0.49619 0.55627 0.0
C1568 C 0.52609 0.54729 0.59487 0.0
C1569 C 0.65839 0.55621 0.58395 0.0
C1570 C 0.69447 0.5287 0.56856 0.0
C1571 C 0.67517 0.52427 0.61897 0.0
C1572 C 0.65742 0.54403 0.6125 0.0
C1573 C 0.69384 0.51667 0.5971 0.0
C1574 C 0.67673 0.54821 0.56209 0.0
C1575 C 0.64057 0.57701 0.57562 0.0
C1576 C 0.62804 0.70332 0.58804 0.0
C1577 C 0.62018 0.70068 0.6187 0.0
H1578 H 0.64118 0.70054 0.52685 0.0
C1579 C 0.52704 0.6 0.52761 0.0
C1580 C 0.56198 0.54777 0.48313 0.0
C1581 C 0.42707 0.52015 0.46895 0.0
C1582 C 0.38741 0.54178 0.48519 0.0
C1583 C 0.38089 0.50982 0.43063 0.0
C1584 C 0.40945 0.50588 0.43806 0.0
C1585 C 0.36959 0.52716 0.45435 0.0
C1586 C 0.41663 0.53953 0.49177 0.0
C1587 C 0.45242 0.5089 0.47965 0.0
H1588 H 0.67447 0.51488 0.64092 0.0
H1589 H 0.64307 0.54966 0.62967 0.0
H1590 H 0.70754 0.50138 0.60222 0.0
H1591 H 0.67742 0.55735 0.53988 0.0
H1592 H 0.36708 0.49843 0.40697 0.0
H1593 H 0.41716 0.49049 0.42039 0.0
H1594 H 0.34698 0.52914 0.44875 0.0
H1595 H 0.43023 0.55081 0.51566 0.0
C1596 C 0.10394 0.59929 0.98576 0.0
C1597 C 0.14491 0.6364 0.0256 0.0
C1598 C 0.12223 0.60788 0.01665 0.0
C1599 C 0.14832 0.65674 0.00385 0.0
C1600 C 0.10846 0.6192 0.96337 0.0
C1601 C 0.13018 0.64817 0.97285 0.0
N1602 N 0.08323 0.57087 0.97685 0.0
C1603 C 0.06888 0.55984 0.94499 0.0
C1604 C 0.09182 0.60896 0.9316 0.0
C1605 C 0.07239 0.57895 0.92222 0.0
Gd1606 Gd 0.99866 0.53327 0.06509 0.0
Gd1607 Gd 0.07953 0.54244 0.01869 0.0
N1608 N 0.11857 0.58794 0.03752 0.0
C1609 C 0.16413 0.64324 0.05581 0.0
C1610 C 0.13845 0.59346 0.06583 0.0
C1611 C 0.16125 0.62139 0.07571 0.0
H1612 H 0.13672 0.57641 0.08079 0.0
H1613 H 0.17654 0.62603 0.09864 0.0
H1614 H 0.94709 0.49527 0.99966 0.0
H1615 H 0.05493 0.53619 0.93657 0.0
H1616 H 0.9116 0.44264 0.9792 0.0
H1617 H 0.18183 0.66489 0.06352 0.0
H1618 H 0.16548 0.67882 0.01042 0.0
H1619 H 0.01166 0.54517 0.14909 0.0
H1620 H 0.09471 0.62355 0.91372 0.0
H1621 H 0.06044 0.57033 0.89726 0.0
H1622 H 0.91756 0.39406 0.07165 0.0
H1623 H 0.13371 0.66377 0.95601 0.0
H1624 H 0.97411 0.45779 0.17374 0.0
H1625 H 1.00306 0.51326 0.19056 0.0
N1626 N 0.99049 0.50725 0.10848 0.0
C1627 C 0.97233 0.47753 0.09899 0.0
C1628 C 0.99994 0.52065 0.14115 0.0
C1629 C 0.97835 0.47149 0.15524 0.0
C1630 C 0.99474 0.50278 0.16485 0.0
C1631 C 0.96619 0.45873 0.12213 0.0
H1632 H 0.94252 0.41341 0.12917 0.0
N1633 N 0.96296 0.48553 0.04482 0.0
C1634 C 0.958 0.46649 0.06641 0.0
C1635 C 0.92155 0.42757 0.0242 0.0
C1636 C 0.93756 0.43661 0.05638 0.0
C1637 C 0.94534 0.47822 0.01473 0.0
C1638 C 0.92493 0.44879 0.00353 0.0
O1639 O 0.07238 0.58916 0.04528 0.0
O1640 O 0.02952 0.58353 0.07153 0.0
O1641 O 0.96235 0.54933 0.04262 0.0
O1642 O 0.97027 0.55218 0.09501 0.0
O1643 O 0.05601 0.53497 0.05966 0.0
O1644 O 0.03868 0.5428 0.10432 0.0
O1645 O 1.00656 0.48721 0.03742 0.0
O1646 O 0.05348 0.49239 0.0197 0.0
O1647 O 0.11773 0.52508 0.03548 0.0
O1648 O 0.09968 0.5195 0.98295 0.0
O1649 O 0.01545 0.54823 0.02116 0.0
O1650 O 0.03666 0.52484 0.98338 0.0
C1651 C 0.05379 0.6007 0.06261 0.0
C1652 C 0.0621 0.5419 0.09143 0.0
C1653 C 0.9525 0.59163 0.07709 0.0
C1654 C 0.92153 0.62729 0.07358 0.0
C1655 C 0.9726 0.64656 0.10311 0.0
C1656 C 0.97622 0.61656 0.0957 0.0
C1657 C 0.94528 0.6519 0.09228 0.0
C1658 C 0.92521 0.59716 0.06579 0.0
C1659 C 0.95545 0.55962 0.07082 0.0
C1660 C 0.93291 0.41724 0.079 0.0
C1661 C 0.94717 0.42827 0.11177 0.0
H1662 H 0.90558 0.40483 0.01558 0.0
C1663 C 0.02738 0.47538 0.02476 0.0
C1664 C 0.01243 0.53027 0.99237 0.0
C1665 C 0.14039 0.49733 0.99352 0.0
C1666 C 0.18154 0.47462 0.00415 0.0
C1667 C 0.15698 0.4683 0.94829 0.0
C1668 C 0.13788 0.48537 0.95969 0.0
C1669 C 0.17873 0.46288 0.97041 0.0
C1670 C 0.16246 0.492 0.0158 0.0
C1671 C 0.11912 0.51427 0.00477 0.0
H1672 H 0.9909 0.66565 0.1175 0.0
H1673 H 0.9974 0.61282 0.10491 0.0
H1674 H 0.94258 0.67517 0.09836 0.0
H1675 H 0.90676 0.5781 0.05148 0.0
H1676 H 0.15486 0.45921 0.92226 0.0
H1677 H 0.121 0.48899 0.94187 0.0
H1678 H 0.19349 0.44957 0.96125 0.0
H1679 H 0.16475 0.50105 0.04191 0.0
C1680 C 0.03017 0.18549 0.02683 0.0
C1681 C 0.01266 0.18393 0.99609 0.0
C1682 C 0.01406 0.12849 0.98093 0.0
C1683 C 0.02709 0.12826 0.01378 0.0
N1684 N 0.03765 0.15796 0.07012 0.0
N1685 N 0.98236 0.15011 0.94648 0.0
C1686 C 0.03264 0.15726 0.03729 0.0
C1687 C 1.00262 0.15415 0.97423 0.0
N1688 N 0.04407 0.21392 0.04678 0.0
N1689 N 0.01443 0.10571 0.95509 0.0
H1690 H 0.97447 0.16823 0.93994 0.0
H1691 H 0.97162 0.12818 0.93166 0.0
H1692 H 0.02687 0.08977 0.95676 0.0
H1693 H 1.00664 0.10593 0.93084 0.0
H1694 H 0.05969 0.21669 0.06779 0.0
H1695 H 0.04208 0.23475 0.0406 0.0
H1696 H 0.04038 0.17807 0.08793 0.0
H1697 H 0.03423 0.13798 0.07973 0.0
C1698 C 0.19378 0.8358 0.2086 0.0
C1699 C 0.17544 0.80876 0.18586 0.0
C1700 C 0.20979 0.77865 0.20491 0.0
C1701 C 0.22682 0.80525 0.22925 0.0
N1702 N 0.23204 0.85794 0.25738 0.0
N1703 N 0.16609 0.75428 0.1618 0.0
C1704 C 0.21802 0.83351 0.23178 0.0
C1705 C 0.18368 0.78019 0.18385 0.0
N1706 N 0.18808 0.86389 0.208 0.0
N1707 N 0.21844 0.75169 0.20227 0.0
H1708 H 0.14894 0.75531 0.14401 0.0
H1709 H 0.16788 0.73176 0.1611 0.0
H1710 H 0.23597 0.74916 0.21851 0.0
H1711 H 0.20926 0.73208 0.18348 0.0
H1712 H 0.20237 0.88515 0.22108 0.0
H1713 H 0.17023 0.86627 0.19213 0.0
H1714 H 0.22481 0.87789 0.26319 0.0
H1715 H 0.24979 0.85737 0.27458 0.0
C1716 C 0.51868 0.89401 0.47176 0.0
C1717 C 0.51164 0.87714 0.49696 0.0
C1718 C 0.51945 0.92847 0.53532 0.0
C1719 C 0.52417 0.94508 0.50954 0.0
N1720 N 0.52301 0.94211 0.45171 0.0
N1721 N 0.50269 0.87944 0.55257 0.0
C1722 C 0.52266 0.92737 0.47746 0.0
C1723 C 0.51103 0.89479 0.52851 0.0
N1724 N 0.52118 0.87819 0.44187 0.0
N1725 N 0.52489 0.94484 0.56708 0.0
H1726 H 0.50038 0.8557 0.55076 0.0
H1727 H 0.49669 0.89001 0.57386 0.0
H1728 H 0.53179 0.96907 0.57377 0.0
H1729 H 0.52543 0.93456 0.58735 0.0
H1730 H 0.53053 0.88914 0.42428 0.0
H1731 H 0.51549 0.85397 0.43509 0.0
H1732 H 0.51864 0.9305 0.42723 0.0
H1733 H 0.5248 0.96587 0.45452 0.0
C1734 C 0.4914 0.27268 0.6528 0.0
C1735 C 0.51454 0.30128 0.66286 0.0
C1736 C 0.49302 0.314 0.71264 0.0
C1737 C 0.46971 0.28579 0.70217 0.0
N1738 N 0.4423 0.24255 0.65864 0.0
N1739 N 0.53249 0.35256 0.69799 0.0
C1740 C 0.4674 0.26669 0.67092 0.0
C1741 C 0.51385 0.32298 0.69151 0.0
N1742 N 0.49338 0.25005 0.6276 0.0
N1743 N 0.4958 0.3318 0.74326 0.0
H1744 H 0.54721 0.36025 0.68251 0.0
H1745 H 0.53125 0.37033 0.71676 0.0
H1746 H 0.48008 0.32683 0.75858 0.0
H1747 H 0.51442 0.35042 0.75413 0.0
H1748 H 0.479 0.22755 0.62166 0.0
H1749 H 0.51104 0.25252 0.61449 0.0
H1750 H 0.43775 0.23009 0.63452 0.0
H1751 H 0.42462 0.23714 0.67148 0.0
C1752 C 0.01152 0.84064 0.64048 0.0
C1753 C 0.03068 0.82516 0.65574 0.0
C1754 C 0.07303 0.85732 0.63662 0.0
C1755 C 0.0529 0.86794 0.61646 0.0
N1756 N 1.00196 0.86676 0.59636 0.0
N1757 N 0.07968 0.81551 0.66274 0.0
C1758 C 0.02185 0.85894 0.61772 0.0
C1759 C 0.06158 0.83287 0.6527 0.0
N1760 N 0.98381 0.83892 0.64857 0.0
N1761 N 0.10316 0.87061 0.6404 0.0
H1762 H 0.0721 0.79568 0.67201 0.0
H1763 H 0.10155 0.81861 0.65824 0.0
H1764 H 0.11218 0.88867 0.62905 0.0
H1765 H 0.11875 0.86601 0.65741 0.0
H1766 H 0.97013 0.85209 0.64049 0.0
H1767 H 0.97593 0.82721 0.66631 0.0
H1768 H 0.97882 0.85767 0.59363 0.0
H1769 H 1.00853 0.88032 0.57948 0.0
C1770 C 0.43628 0.78468 0.80645 0.0
C1771 C 0.45709 0.81513 0.81494 0.0
C1772 C 0.41304 0.83693 0.81789 0.0
C1773 C 0.39217 0.80681 0.80662 0.0
N1774 N 0.38498 0.752 0.78639 0.0
N1775 N 0.46379 0.87054 0.82378 0.0
C1776 C 0.40421 0.78073 0.8 0.0
C1777 C 0.44491 0.84126 0.81883 0.0
N1778 N 0.44718 0.75916 0.80452 0.0
N1779 N 0.40262 0.86134 0.83037 0.0
H1780 H 0.48699 0.87479 0.82614 0.0
H1781 H 0.45628 0.89026 0.82287 0.0
H1782 H 0.38022 0.85836 0.83274 0.0
H1783 H 0.41647 0.88335 0.84193 0.0
H1784 H 0.43386 0.73654 0.80213 0.0
H1785 H 0.46997 0.76064 0.8067 0.0
H1786 H 0.39185 0.73256 0.77699 0.0
H1787 H 0.36177 0.74792 0.78262 0.0
C1788 C 0.54662 0.17462 0.13136 0.0
C1789 C 0.52245 0.16963 0.14901 0.0
C1790 C 0.51015 0.11323 0.12551 0.0
C1791 C 0.53628 0.11762 0.11054 0.0
N1792 N 0.5828 0.15317 0.10564 0.0
N1793 N 0.48539 0.13322 0.16854 0.0
C1794 C 0.55544 0.14855 0.11523 0.0
C1795 C 0.50553 0.13864 0.14778 0.0
N1796 N 0.56061 0.20424 0.12898 0.0
N1797 N 0.48853 0.08541 0.11703 0.0
H1798 H 0.48143 0.15105 0.18531 0.0
H1799 H 0.47491 0.11093 0.17139 0.0
H1800 H 0.48961 0.06682 0.09933 0.0
H1801 H 0.46779 0.08202 0.12466 0.0
H1802 H 0.57594 0.20909 0.11328 0.0
H1803 H 0.5549 0.22384 0.14044 0.0
H1804 H 0.5989 0.17467 0.11152 0.0
H1805 H 0.59071 0.13504 0.09469 0.0
C1806 C 0.18023 0.34101 0.30216 0.0
C1807 C 0.1596 0.32 0.31603 0.0
C1808 C 0.199 0.29118 0.32197 0.0
C1809 C 0.21859 0.31051 0.30531 0.0
N1810 N 0.22415 0.35166 0.2753 0.0
N1811 N 0.14918 0.27241 0.33559 0.0
C1812 C 0.20818 0.33501 0.2946 0.0
C1813 C 0.16917 0.2945 0.32505 0.0
N1814 N 0.17326 0.36744 0.2966 0.0
N1815 N 0.20931 0.27017 0.33632 0.0
H1816 H 0.12814 0.27466 0.33957 0.0
H1817 H 0.15258 0.25107 0.33836 0.0
H1818 H 0.2305 0.26723 0.33508 0.0
H1819 H 0.19825 0.25793 0.35207 0.0
H1820 H 0.18807 0.38564 0.28996 0.0
H1821 H 0.15348 0.3725 0.30176 0.0
H1822 H 0.2167 0.36751 0.26361 0.0
H1823 H 0.24368 0.34754 0.26826 0.0
C1824 C 0.98387 0.05306 0.16377 0.0
C1825 C 0.99419 0.03555 0.18532 0.0
C1826 C 0.02973 0.02448 0.14924 0.0
C1827 C 0.01919 0.0419 0.1271 0.0
N1828 N 0.99416 0.08197 0.12134 0.0
N1829 N 0.0228 0.99955 0.19534 0.0
C1830 C 0.99811 0.05841 0.13632 0.0
C1831 C 0.01581 0.01979 0.17705 0.0
N1832 N 0.95957 0.0638 0.16898 0.0
N1833 N 0.05462 0.01425 0.14575 0.0
H1834 H 0.01525 0.99693 0.21723 0.0
H1835 H 0.0342 0.98331 0.18742 0.0
H1836 H 0.0652 0.01409 0.12551 0.0
H1837 H 0.0663 0.00705 0.16428 0.0
H1838 H 0.94869 0.07357 0.1522 0.0
H1839 H 0.94823 0.05983 0.1884 0.0
H1840 H 0.98148 0.09691 0.12916 0.0
H1841 H 1.00683 0.08972 0.10417 0.0
C1842 C 0.2863 0.688 0.47237 0.0
C1843 C 0.28552 0.70105 0.50547 0.0
C1844 C 0.25063 0.72967 0.48742 0.0
C1845 C 0.25019 0.71528 0.45447 0.0
N1846 N 0.27034 0.6849 0.41446 0.0
N1847 N 0.26671 0.73288 0.54538 0.0
C1848 C 0.26885 0.69563 0.44662 0.0
C1849 C 0.26782 0.72177 0.51322 0.0
N1850 N 0.3022 0.66669 0.46565 0.0
N1851 N 0.2355 0.75176 0.49383 0.0
H1852 H 0.28066 0.72932 0.56485 0.0
H1853 H 0.25138 0.74462 0.55302 0.0
H1854 H 0.2223 0.7578 0.47555 0.0
H1855 H 0.23732 0.76562 0.5169 0.0
H1856 H 0.30019 0.65257 0.44268 0.0
H1857 H 0.31701 0.66221 0.4835 0.0
H1858 H 0.28602 0.67366 0.40687 0.0
H1859 H 0.25679 0.68869 0.39483 0.0
C1860 C 0.62648 0.07381 0.66254 0.0
C1861 C 0.64219 0.05095 0.6584 0.0
C1862 C 0.61033 0.02433 0.60613 0.0
C1863 C 0.59328 0.04629 0.61065 0.0
N1864 N 0.58213 0.08916 0.6458 0.0
N1865 N 0.65605 0.01099 0.62334 0.0
C1866 C 0.60074 0.0706 0.63939 0.0
C1867 C 0.6364 0.02839 0.6291 0.0
N1868 N 0.63667 0.09888 0.68839 0.0
N1869 N 0.59985 0.99775 0.58218 0.0
H1870 H 0.67543 0.01383 0.64013 0.0
H1871 H 0.6548 0.99636 0.60083 0.0
H1872 H 0.58043 0.99334 0.56518 0.0
H1873 H 0.60936 0.97913 0.5804 0.0
H1874 H 0.62828 0.11828 0.69096 0.0
H1875 H 0.65564 0.10165 0.70572 0.0
H1876 H 0.5838 0.10361 0.66852 0.0
H1877 H 0.56429 0.08982 0.62876 0.0
C1878 C 0.31363 0.35919 0.93959 0.0
C1879 C 0.32153 0.33963 0.96063 0.0
C1880 C 0.31955 0.29972 0.91056 0.0
C1881 C 0.31332 0.32004 0.88996 0.0
N1882 N 0.30889 0.37091 0.8853 0.0
N1883 N 0.33098 0.29042 0.96542 0.0
C1884 C 0.3111 0.34999 0.90467 0.0
C1885 C 0.32434 0.30973 0.94576 0.0
N1886 N 0.30892 0.3871 0.95263 0.0
N1887 N 0.3193 0.27005 0.89636 0.0
H1888 H 0.32944 0.29401 0.99026 0.0
H1889 H 0.33833 0.27094 0.95746 0.0
H1890 H 0.31552 0.26186 0.87105 0.0
H1891 H 0.32074 0.25262 0.9091 0.0
H1892 H 0.29701 0.39874 0.93907 0.0
H1893 H 0.31607 0.39868 0.977 0.0
H1894 H 0.31097 0.39441 0.89422 0.0
H1895 H 0.30769 0.36551 0.86003 0.0
C1896 C 0.02702 0.04309 0.39263 0.0
C1897 C 0.99829 0.02393 0.37676 0.0
C1898 C 0.98544 0.01591 0.43034 0.0
C1899 C 0.01519 0.03238 0.44594 0.0
N1900 N 0.05747 0.0741 0.44359 0.0
N1901 N 0.95207 0.98799 0.38008 0.0
C1902 C 0.03446 0.04908 0.4275 0.0
C1903 C 0.97809 0.00934 0.39561 0.0
N1904 N 0.04727 0.05595 0.37459 0.0
N1905 N 0.96321 0.00911 0.44839 0.0
H1906 H 0.94645 0.98289 0.35482 0.0
H1907 H 0.93807 0.97332 0.39171 0.0
H1908 H 0.96634 0.01599 0.47372 0.0
H1909 H 0.94061 1.00017 0.43809 0.0
H1910 H 0.06976 0.06677 0.38438 0.0
H1911 H 0.04225 0.0539 0.34933 0.0
H1912 H 0.07033 0.0898 0.43203 0.0
H1913 H 0.0611 0.08149 0.46888 0.0
C1914 C 0.26001 0.69834 0.65545 0.0
C1915 C 0.2857 0.68707 0.65377 0.0
C1916 C 0.31285 0.72595 0.70225 0.0
C1917 C 0.28679 0.73584 0.70627 0.0
N1918 N 0.2338 0.7284 0.68878 0.0
N1919 N 0.33166 0.68249 0.68266 0.0
C1920 C 0.25971 0.72109 0.68352 0.0
C1921 C 0.31028 0.69815 0.67986 0.0
N1922 N 0.23659 0.6885 0.62985 0.0
N1923 N 0.34051 0.74431 0.71774 0.0
H1924 H 0.32991 0.6614 0.66671 0.0
H1925 H 0.349 0.68875 0.70278 0.0
H1926 H 0.34388 0.76687 0.73122 0.0
H1927 H 0.36028 0.73879 0.71341 0.0
H1928 H 0.21882 0.69853 0.62796 0.0
H1929 H 0.23566 0.67116 0.60963 0.0
H1930 H 0.2128 0.71554 0.67553 0.0
H1931 H 0.23305 0.74635 0.7076 0.0
C1932 C 0.67381 0.09284 0.85625 0.0
C1933 C 0.66053 0.06904 0.82783 0.0
C1934 C 0.61153 0.06172 0.84467 0.0
C1935 C 0.62462 0.08655 0.87212 0.0
N1936 N 0.66843 0.12202 0.90821 0.0
N1937 N 0.61967 0.02471 0.79988 0.0
C1938 C 0.65593 0.10071 0.87941 0.0
C1939 C 0.63021 0.05152 0.82361 0.0
N1940 N 0.70306 0.10916 0.86012 0.0
N1941 N 0.58124 0.04842 0.83848 0.0
H1942 H 0.63326 0.01624 0.78471 0.0
H1943 H 0.59852 0.00931 0.7972 0.0
H1944 H 0.56704 0.05427 0.85437 0.0
H1945 H 0.56985 0.03282 0.81681 0.0
H1946 H 0.71355 0.12918 0.87804 0.0
H1947 H 0.71649 0.10358 0.84368 0.0
H1948 H 0.69135 0.13 0.91711 0.0
H1949 H 0.65589 0.13077 0.9245 0.0
C1950 C 0.29156 0.31731 0.14356 0.0
C1951 C 0.31393 0.34461 0.14265 0.0
C1952 C 0.31687 0.36219 0.20252 0.0
C1953 C 0.29929 0.33215 0.20423 0.0
N1954 N 0.25555 0.29302 0.17459 0.0
N1955 N 0.34831 0.39363 0.17211 0.0
C1956 C 0.2826 0.31269 0.17415 0.0
C1957 C 0.32661 0.36724 0.1724 0.0
N1958 N 0.27932 0.29529 0.11542 0.0
N1959 N 0.32115 0.38692 0.2281 0.0
H1960 H 0.35525 0.3991 0.15067 0.0
H1961 H 0.36097 0.40894 0.19345 0.0
H1962 H 0.30981 0.38557 0.24784 0.0
H1963 H 0.33174 0.40981 0.22731 0.0
H1964 H 0.2653 0.27342 0.11526 0.0
H1965 H 0.28502 0.29814 0.09268 0.0
H1966 H 0.24029 0.28097 0.15335 0.0
H1967 H 0.24705 0.2922 0.19639 0.0
C1968 C 0.23704 0.02799 0.00835 0.0
C1969 C 0.23618 0.99626 0.0046 0.0
C1970 C 0.20004 0.98859 0.04165 0.0
C1971 C 0.20606 0.0215 0.05075 0.0
N1972 N 0.23087 0.07316 0.04388 0.0
N1973 N 0.2111 0.94443 0.0081 0.0
C1974 C 0.22408 0.04143 0.03382 0.0
C1975 C 0.21535 0.97584 0.01798 0.0
N1976 N 0.25062 0.0452 0.98798 0.0
N1977 N 0.18088 0.97 0.05677 0.0
H1978 H 0.22194 0.93535 0.98997 0.0
H1979 H 0.19617 0.92743 0.01619 0.0
H1980 H 0.16869 0.97883 0.07349 0.0
H1981 H 0.17674 0.94592 0.05296 0.0
H1982 H 0.24986 0.06796 0.98782 0.0
H1983 H 0.25951 0.03546 0.96849 0.0
H1984 H 0.24664 0.08864 0.03489 0.0
H1985 H 0.22278 0.0843 0.06325 0.0
C1986 C 0.6562 0.6097 0.99111 0.0
C1987 C 0.68053 0.62315 0.0173 0.0
C1988 C 0.64953 0.60174 0.05563 0.0
C1989 C 0.62614 0.58562 0.02879 0.0
N1990 N 0.60988 0.56925 0.97017 0.0
N1991 N 0.70183 0.63052 0.07423 0.0
C1992 C 0.63011 0.58844 0.9963 0.0
C1993 C 0.67756 0.61883 0.04954 0.0
N1994 N 0.65803 0.61729 0.96122 0.0
N1995 N 0.64468 0.60159 0.08702 0.0
H1996 H 0.72215 0.64457 0.07108 0.0
H1997 H 0.7024 0.62502 0.09729 0.0
H1998 H 0.62504 0.58837 0.09245 0.0
H1999 H 0.65922 0.6161 0.10767 0.0
H2000 H 0.63987 0.61086 0.94204 0.0
H2001 H 0.67703 0.63256 0.95664 0.0
H2002 H 0.61299 0.5679 0.94589 0.0
H2003 H 0.59145 0.55216 0.97289 0.0
C2004 C 0.70411 0.50146 0.26272 0.0
C2005 C 0.70278 0.50763 0.29687 0.0
C2006 C 0.73773 0.47634 0.3059 0.0
C2007 C 0.73666 0.46765 0.27163 0.0
N2008 N 0.71065 0.46411 0.21725 0.0
N2009 N 0.70879 0.48878 0.34729 0.0
C2010 C 0.71717 0.47765 0.24992 0.0
C2011 C 0.71668 0.4914 0.31743 0.0
N2012 N 0.69478 0.51916 0.24265 0.0
N2013 N 0.75934 0.47141 0.32769 0.0
H2014 H 0.69086 0.49605 0.35524 0.0
H2015 H 0.71721 0.47537 0.36186 0.0
H2016 H 0.77637 0.462 0.32053 0.0
H2017 H 0.76214 0.47995 0.35292 0.0
H2018 H 0.69766 0.51666 0.2182 0.0
H2019 H 0.68761 0.53868 0.25101 0.0
H2020 H 0.69438 0.46867 0.20102 0.0
H2021 H 0.71904 0.44588 0.20726 0.0
C2022 C 0.92656 0.49513 0.54772 0.0
C2023 C 0.90656 0.50159 0.52365 0.0
C2024 C 0.94936 0.53133 0.50521 0.0
C2025 C 0.96908 0.51893 0.52493 0.0
N2026 N 0.96809 0.47403 0.55065 0.0
N2027 N 0.90075 0.51643 0.47097 0.0
C2028 C 0.95547 0.49615 0.54184 0.0
C2029 C 0.9183 0.51662 0.49949 0.0
N2030 N 0.91858 0.48824 0.57627 0.0
N2031 N 0.95871 0.55737 0.493 0.0
H2032 H 0.87835 0.50365 0.46427 0.0
H2033 H 0.90979 0.52562 0.45211 0.0
H2034 H 0.97972 0.57278 0.49954 0.0
H2035 H 0.94373 0.56655 0.48008 0.0
H2036 H 0.93383 0.48409 0.59408 0.0
H2037 H 0.89864 0.49072 0.58367 0.0
H2038 H 0.95558 0.45593 0.55978 0.0
H2039 H 0.98765 0.46993 0.54411 0.0
C2040 C 0.3161 0.09414 0.3251 0.0
C2041 C 0.33075 0.07243 0.31119 0.0
C2042 C 0.31673 0.08137 0.25669 0.0
C2043 C 0.29955 0.10058 0.2701 0.0
N2044 N 0.2775 0.12012 0.31559 0.0
N2045 N 0.3382 0.03904 0.26296 0.0
C2046 C 0.29734 0.10511 0.30387 0.0
C2047 C 0.32894 0.064 0.27669 0.0
N2048 N 0.32161 0.10593 0.3582 0.0
N2049 N 0.3228 0.08093 0.22563 0.0
H2050 H 0.34583 0.02455 0.27666 0.0
H2051 H 0.33514 0.0307 0.23769 0.0
H2052 H 0.31456 0.09369 0.21013 0.0
H2053 H 0.33822 0.07008 0.21641 0.0
H2054 H 0.31387 0.12433 0.36896 0.0
H2055 H 0.3364 0.09969 0.37468 0.0
H2056 H 0.27325 0.12167 0.33952 0.0
H2057 H 0.26317 0.1283 0.30051 0.0
C2058 C 0.36391 0.16512 0.56865 0.0
C2059 C 0.33656 0.14814 0.54767 0.0
C2060 C 0.35037 0.09935 0.54825 0.0
C2061 C 0.37805 0.11661 0.56835 0.0
N2062 N 0.41491 0.16611 0.58891 0.0
N2063 N 0.30794 0.10045 0.50972 0.0
C2064 C 0.38607 0.14959 0.57566 0.0
C2065 C 0.33098 0.11559 0.53512 0.0
N2066 N 0.36797 0.19541 0.58386 0.0
N2067 N 0.34234 0.06749 0.54221 0.0
H2068 H 0.29402 0.11176 0.49838 0.0
H2069 H 0.30462 0.07744 0.49757 0.0
H2070 H 0.35646 0.05477 0.55041 0.0
H2071 H 0.32095 0.05378 0.53097 0.0
H2072 H 0.38651 0.20797 0.60168 0.0
H2073 H 0.35127 0.20676 0.58132 0.0
H2074 H 0.42271 0.18993 0.59001 0.0
H2075 H 0.43163 0.15549 0.5951 0.0
C2076 C 0.7253 0.68298 0.34986 0.0
C2077 C 0.70632 0.65803 0.32463 0.0
C2078 C 0.73003 0.68343 0.2835 0.0
C2079 C 0.74768 0.70901 0.30824 0.0
N2080 N 0.75821 0.7356 0.36499 0.0
N2081 N 0.68294 0.64383 0.26696 0.0
C2082 C 0.74425 0.7094 0.34145 0.0
C2083 C 0.70624 0.66091 0.29129 0.0
N2084 N 0.72448 0.68217 0.38209 0.0
N2085 N 0.73611 0.68027 0.25236 0.0
H2086 H 0.66321 0.6296 0.27092 0.0
H2087 H 0.6811 0.64767 0.24315 0.0
H2088 H 0.75449 0.69521 0.24646 0.0
H2089 H 0.72533 0.6608 0.23373 0.0
H2090 H 0.74134 0.69592 0.40124 0.0
H2091 H 0.70683 0.6677 0.38976 0.0
H2092 H 0.75441 0.73903 0.38908 0.0
H2093 H 0.77221 0.7551 0.35978 0.0
C2094 C 0.87494 0.42591 0.8201 0.0
C2095 C 0.8546 0.44448 0.81852 0.0
C2096 C 0.81209 0.39829 0.80304 0.0
C2097 C 0.832 0.37955 0.80743 0.0
N2098 N 0.88219 0.37403 0.81277 0.0
N2099 N 0.80602 0.44893 0.79789 0.0
C2100 C 0.86346 0.39288 0.81299 0.0
C2101 C 0.82387 0.43074 0.80625 0.0
N2102 N 0.90491 0.43994 0.83037 0.0
N2103 N 0.7818 0.38538 0.79812 0.0
H2104 H 0.81428 0.47298 0.8006 0.0
H2105 H 0.784 0.43997 0.78553 0.0
H2106 H 0.77215 0.36146 0.79384 0.0
H2107 H 0.76626 0.39835 0.79953 0.0
H2108 H 0.92068 0.42817 0.83611 0.0
H2109 H 0.91413 0.46396 0.83422 0.0
H2110 H 0.90525 0.38175 0.81396 0.0
H2111 H 0.87426 0.34994 0.80875 0.0
C2112 C 0.05865 0.92378 0.09839 0.0
C2113 C 0.07941 0.90924 0.08473 0.0
C2114 C 0.09141 0.95241 0.05386 0.0
C2115 C 0.06942 0.96603 0.06637 0.0
N2116 N 0.02722 0.9588 0.0948 0.0
N2117 N 0.11345 0.90831 0.04634 0.0
C2118 C 0.05175 0.94996 0.08698 0.0
C2119 C 0.09519 0.92332 0.06158 0.0
N2120 N 0.04537 0.91264 0.12273 0.0
N2121 N 0.10819 0.96691 0.03368 0.0
H2122 H 0.11807 0.88852 0.05275 0.0
H2123 H 0.12309 0.9144 0.02655 0.0
H2124 H 0.10536 0.98717 0.02678 0.0
H2125 H 0.12541 0.95964 0.0242 0.0
H2126 H 0.03279 0.92411 0.13664 0.0
H2127 H 0.04925 0.89338 0.13111 0.0
H2128 H 0.01103 0.94584 0.10565 0.0
H2129 H 0.02223 0.97844 0.08884 0.0
C2130 C 0.91431 0.3065 0.90146 0.0
C2131 C 0.92339 0.27846 0.89601 0.0
C2132 C 0.88092 0.25622 0.84935 0.0
C2133 C 0.87294 0.28486 0.85374 0.0
N2134 N 0.88481 0.33885 0.88106 0.0
N2135 N 0.91779 0.22817 0.86175 0.0
C2136 C 0.89038 0.31038 0.87909 0.0
C2137 C 0.90724 0.2537 0.86916 0.0
N2138 N 0.92816 0.32931 0.92863 0.0
N2139 N 0.8629 0.23111 0.82657 0.0
H2140 H 0.93643 0.22527 0.87591 0.0
H2141 H 0.9095 0.21094 0.84044 0.0
H2142 H 0.84407 0.23232 0.81128 0.0
H2143 H 0.86529 0.20862 0.82421 0.0
H2144 H 0.92059 0.34869 0.93648 0.0
H2145 H 0.94613 0.32775 0.94487 0.0
H2146 H 0.89868 0.35938 0.89615 0.0
H2147 H 0.86724 0.34245 0.86582 0.0
C2148 C 0.56377 0.18902 0.54597 0.0
C2149 C 0.57033 0.20664 0.57917 0.0
C2150 C 0.57782 0.1589 0.59595 0.0
C2151 C 0.5643 0.14023 0.56439 0.0
N2152 N 0.54313 0.13855 0.50871 0.0
N2153 N 0.57923 0.20432 0.63673 0.0
C2154 C 0.55665 0.15562 0.5393 0.0
C2155 C 0.5762 0.19047 0.60449 0.0
N2156 N 0.56692 0.20401 0.52055 0.0
N2157 N 0.59423 0.14734 0.61711 0.0
H2158 H 0.57602 0.22619 0.64455 0.0
H2159 H 0.58145 0.19236 0.65555 0.0
H2160 H 0.59889 0.12612 0.60957 0.0
H2161 H 0.60665 0.16065 0.63958 0.0
H2162 H 0.5646 0.19229 0.49631 0.0
H2163 H 0.57634 0.22795 0.52395 0.0
H2164 H 0.53377 0.14816 0.49063 0.0
H2165 H 0.53961 0.11449 0.50211 0.0
C2166 C 0.58567 0.80925 0.37393 0.0
C2167 C 0.58207 0.78652 0.39359 0.0
C2168 C 0.63553 0.78893 0.39771 0.0
C2169 C 0.63878 0.81074 0.377 0.0
N2170 N 0.61636 0.83761 0.34059 0.0
N2171 N 0.6019 0.75098 0.42012 0.0
C2172 C 0.61358 0.81948 0.36346 0.0
C2173 C 0.60657 0.77529 0.40436 0.0
N2174 N 0.56296 0.82249 0.3669 0.0
N2175 N 0.66032 0.78181 0.41155 0.0
H2176 H 0.58105 0.74062 0.42553 0.0
H2177 H 0.61798 0.73949 0.42569 0.0
H2178 H 0.68152 0.78995 0.40571 0.0
H2179 H 0.6603 0.76918 0.42999 0.0
H2180 H 0.56533 0.8417 0.35599 0.0
H2181 H 0.54232 0.81613 0.37455 0.0
H2182 H 0.59819 0.84183 0.32702 0.0
H2183 H 0.63665 0.84647 0.33314 0.0
C2184 C 0.0293 0.21904 0.38999 0.0
C2185 C 0.04427 0.2501 0.40652 0.0
C2186 C 0.05276 0.23328 0.45831 0.0
C2187 C 0.03433 0.20309 0.44269 0.0
N2188 N 0.01341 0.16434 0.39318 0.0
N2189 N 0.07825 0.28542 0.45265 0.0
C2190 C 0.02579 0.19497 0.40812 0.0
C2191 C 0.05903 0.2566 0.43946 0.0
N2192 N 0.01683 0.21313 0.35762 0.0
N2193 N 0.0623 0.24002 0.49146 0.0
H2194 H 0.08289 0.3026 0.4389 0.0
H2195 H 0.09134 0.29148 0.4759 0.0
H2196 H 0.05883 0.22295 0.50542 0.0
H2197 H 0.07287 0.26237 0.50525 0.0
H2198 H 1.00277 0.1917 0.3447 0.0
H2199 H 0.02012 0.23034 0.34379 0.0
H2200 H 1.00807 0.15618 0.36787 0.0
H2201 H 0.01082 0.14669 0.40648 0.0
C2202 C 0.65878 0.28358 0.29543 0.0
C2203 C 0.64149 0.27813 0.26345 0.0
C2204 C 0.68713 0.27344 0.24006 0.0
C2205 C 0.704 0.27731 0.27195 0.0
N2206 N 0.70412 0.28205 0.32992 0.0
N2207 N 0.63833 0.26193 0.20519 0.0
C2208 C 0.68914 0.28096 0.29952 0.0
C2209 C 0.65543 0.27104 0.2358 0.0
N2210 N 0.64634 0.29207 0.32218 0.0
N2211 N 0.70162 0.27328 0.21371 0.0
H2212 H 0.61558 0.26074 0.20107 0.0
H2213 H 0.64595 0.25299 0.1843 0.0
H2214 H 0.72449 0.27532 0.21568 0.0
H2215 H 0.69165 0.27385 0.19038 0.0
H2216 H 0.65848 0.3005 0.34589 0.0
H2217 H 0.62392 0.29221 0.32043 0.0
H2218 H 0.69392 0.28087 0.35051 0.0
H2219 H 0.72656 0.28207 0.33425 0.0
C2220 C 0.54316 0.90413 0.96714 0.0
C2221 C 0.55319 0.90466 0.93657 0.0
C2222 C 0.57224 0.96195 0.95633 0.0
C2223 C 0.55501 0.96145 0.98259 0.0
N2224 N 0.51449 0.92787 1.00192 0.0
N2225 N 0.57353 0.93745 0.90047 0.0
C2226 C 0.53786 0.93136 0.98511 0.0
C2227 C 0.56669 0.93455 0.9306 0.0
N2228 N 0.53811 0.87748 0.97904 0.0
N2229 N 0.59491 0.98748 0.95612 0.0
H2230 H 0.56963 0.91854 0.88091 0.0
H2231 H 0.58052 0.95911 0.89428 0.0
H2232 H 0.60317 0.00637 0.9758 0.0
H2233 H 0.6087 0.98769 0.93838 0.0
H2234 H 0.532 0.87674 1.00203 0.0
H2235 H 0.54371 0.8577 0.96782 0.0
H2236 H 0.50127 0.90598 0.00307 0.0
H2237 H 0.50475 0.94574 0.00899 0.0
C2238 C 0.92995 0.79749 0.73994 0.0
C2239 C 0.94522 0.78016 0.75772 0.0
C2240 C 0.90338 0.77331 0.79047 0.0
C2241 C 0.88721 0.7892 0.77141 0.0
N2242 N 0.88334 0.80947 0.72208 0.0
N2243 N 0.9435 0.74774 0.79733 0.0
C2244 C 0.90004 0.7992 0.74444 0.0
C2245 C 0.93108 0.76722 0.7824 0.0
N2246 N 0.94453 0.81346 0.7193 0.0
N2247 N 0.89181 0.76317 0.81612 0.0
H2248 H 0.9635 0.74307 0.79248 0.0
H2249 H 0.93311 0.73439 0.81263 0.0
H2250 H 0.87034 0.76353 0.82 0.0
H2251 H 0.90361 0.75535 0.83399 0.0
H2252 H 0.93665 0.82963 0.70853 0.0
H2253 H 0.966 0.81268 0.71552 0.0
H2254 H 0.88996 0.81418 0.7003 0.0
H2255 H 0.86152 0.8104 0.72357 0.0
C2256 C 0.12554 0.08403 0.92965 0.0
C2257 C 0.10782 0.06904 0.89846 0.0
C2258 C 0.07668 0.03181 0.925 0.0
C2259 C 0.09067 0.04978 0.95643 0.0
N2260 N 0.14014 0.07969 0.98541 0.0
N2261 N 0.06451 0.02879 0.86687 0.0
C2262 C 0.11859 0.07233 0.95815 0.0
C2263 C 0.0826 0.04325 0.89632 0.0
N2264 N 0.14881 0.10986 0.93215 0.0
N2265 N 0.06323 1.0011 0.92229 0.0
H2266 H 0.06834 0.03524 0.84483 0.0
H2267 H 0.04436 0.01182 0.86502 0.0
H2268 H 0.06445 0.9911 0.94283 0.0
H2269 H 0.05564 0.9853 0.8998 0.0
H2270 H 0.16052 0.124 0.95453 0.0
H2271 H 0.15445 0.11883 0.9118 0.0
H2272 H 0.1615 0.09449 0.98735 0.0
H2273 H 0.13885 0.0667 0.00346 0.0
C2274 C 0.8083 0.34882 0.56495 0.0
C2275 C 0.80243 0.37824 0.57004 0.0
C2276 C 0.82124 0.38832 0.62815 0.0
C2277 C 0.83187 0.36133 0.62245 0.0
N2278 N 0.82636 0.31045 0.58925 0.0
N2279 N 0.78723 0.41576 0.60681 0.0
C2280 C 0.82196 0.33944 0.59207 0.0
C2281 C 0.80262 0.39388 0.60206 0.0
N2282 N 0.80382 0.33203 0.53362 0.0
N2283 N 0.83091 0.40993 0.65705 0.0
H2284 H 0.7737 0.41977 0.58727 0.0
H2285 H 0.7854 0.42707 0.63001 0.0
H2286 H 0.84565 0.40763 0.67653 0.0
H2287 H 0.82614 0.43145 0.66071 0.0
H2288 H 0.81067 0.31191 0.52716 0.0
H2289 H 0.79374 0.33939 0.514 0.0
H2290 H 0.81814 0.29288 0.5682 0.0
H2291 H 0.83623 0.30331 0.60913 0.0
C2292 C 0.44455 0.03863 0.45043 0.0
C2293 C 0.44614 0.03022 0.41672 0.0
C2294 C 0.50063 0.04948 0.42996 0.0
C2295 C 0.49811 0.04916 0.46285 0.0
N2296 N 0.47267 0.07459 0.49943 0.0
N2297 N 0.47647 0.03669 0.37369 0.0
C2298 C 0.47147 0.05243 0.47273 0.0
C2299 C 0.47445 0.03814 0.40606 0.0
N2300 N 0.41787 0.03323 0.46147 0.0
N2301 N 0.52671 0.0661 0.42287 0.0
H2302 H 0.45876 0.03643 0.356 0.0
H2303 H 0.49622 0.03652 0.36461 0.0
H2304 H 0.54323 0.08123 0.44159 0.0
H2305 H 0.52989 0.06927 0.39947 0.0
H2306 H 0.41683 0.03803 0.48646 0.0
H2307 H 0.3974 0.02208 0.44603 0.0
H2308 H 0.45394 0.0823 0.50384 0.0
H2309 H 0.49301 0.08738 0.51433 0.0
C2310 C 0.80403 0.77599 0.13699 0.0
C2311 C 0.79104 0.74472 0.11943 0.0
C2312 C 0.77254 0.73268 0.16979 0.0
C2313 C 0.78935 0.76264 0.18846 0.0
N2314 N 0.82841 0.80904 0.1895 0.0
N2315 N 0.76815 0.69137 0.12298 0.0
C2316 C 0.80693 0.78338 0.17191 0.0
C2317 C 0.77655 0.72253 0.13681 0.0
N2318 N 0.81326 0.799 0.12041 0.0
N2319 N 0.75202 0.71388 0.18313 0.0
H2320 H 0.77134 0.68216 0.09967 0.0
H2321 H 0.76076 0.67426 0.13607 0.0
H2322 H 0.74831 0.72056 0.20681 0.0
H2323 H 0.73669 0.69338 0.16961 0.0
H2324 H 0.82048 0.82256 0.13188 0.0
H2325 H 0.8104 0.79485 0.09486 0.0
H2326 H 0.84373 0.82343 0.17886 0.0
H2327 H 0.83338 0.81336 0.21486 0.0
C2328 C 0.06516 0.0575 0.69267 0.0
C2329 C 0.09399 0.05402 0.70281 0.0
C2330 C 0.10335 0.0497 0.64611 0.0
C2331 C 0.07504 0.05471 0.63593 0.0
N2332 N 0.03051 0.06712 0.65062 0.0
N2333 N 0.14286 0.05295 0.69083 0.0
C2334 C 0.05648 0.05983 0.65965 0.0
C2335 C 0.11385 0.05226 0.68006 0.0
N2336 N 0.0458 0.05805 0.71456 0.0
N2337 N 0.11969 0.04085 0.62328 0.0
H2338 H 0.15109 0.05342 0.71516 0.0
H2339 H 0.15944 0.05568 0.67627 0.0
H2340 H 0.11272 0.03815 0.59839 0.0
H2341 H 0.13865 0.03324 0.62866 0.0
H2342 H 0.02318 0.05644 0.70801 0.0
H2343 H 0.052 0.05855 0.73939 0.0
H2344 H 0.01766 0.07501 0.66702 0.0
H2345 H 0.02272 0.06696 0.62644 0.0
C2346 C 0.83272 0.3598 0.42667 0.0
C2347 C 0.82628 0.38911 0.42971 0.0
C2348 C 0.79682 0.37125 0.37433 0.0
C2349 C 0.80853 0.34512 0.3698 0.0
N2350 N 0.84564 0.32048 0.38977 0.0
N2351 N 0.80676 0.42496 0.40261 0.0
C2352 C 0.82921 0.34138 0.39524 0.0
C2353 C 0.80955 0.39564 0.40246 0.0
N2354 N 0.83995 0.3482 0.45355 0.0
N2355 N 0.7732 0.37242 0.35256 0.0
H2356 H 0.81746 0.44399 0.42174 0.0
H2357 H 0.79663 0.4309 0.38206 0.0
H2358 H 0.76254 0.35404 0.33269 0.0
H2359 H 0.76253 0.39012 0.35623 0.0
H2360 H 0.84279 0.32584 0.45154 0.0
H2361 H 0.83867 0.35866 0.47731 0.0
H2362 H 0.86265 0.31929 0.40764 0.0
H2363 H 0.84405 0.30638 0.36689 0.0
C2364 C 0.45756 0.99599 0.25154 0.0
C2365 C 0.43982 0.01719 0.25031 0.0
C2366 C 0.43459 0.00791 0.19052 0.0
C2367 C 0.45316 0.98748 0.19184 0.0
N2368 N 0.48588 0.96502 0.223 0.0
N2369 N 0.4143 0.04673 0.22053 0.0
C2370 C 0.46578 0.98246 0.22222 0.0
C2371 C 0.42917 0.02419 0.22031 0.0
N2372 N 0.46557 0.98796 0.28059 0.0
N2373 N 0.42184 0.01125 0.16077 0.0
H2374 H 0.40954 0.05861 0.24198 0.0
H2375 H 0.40835 0.05525 0.2 0.0
H2376 H 0.4264 1.00072 0.13853 0.0
H2377 H 0.40554 0.02304 0.15778 0.0
H2378 H 0.47527 0.96984 0.28251 0.0
H2379 H 0.46081 0.99813 0.30286 0.0
H2380 H 0.49874 0.96376 0.24448 0.0
H2381 H 0.49124 0.95316 0.20195 0.0
C2382 C 0.81037 0.74071 0.91825 0.0
C2383 C 0.79292 0.75074 0.94117 0.0
C2384 C 0.77929 0.78489 0.90513 0.0
C2385 C 0.79755 0.775 0.88219 0.0
N2386 N 0.84051 0.75501 0.87797 0.0
N2387 N 0.75798 0.77959 0.955 0.0
C2388 C 0.81563 0.75582 0.89166 0.0
C2389 C 0.77674 0.77219 0.93423 0.0
N2390 N 0.82153 0.71594 0.92127 0.0
N2391 N 0.76587 0.80788 0.90082 0.0
H2392 H 0.75673 0.77185 0.97688 0.0
H2393 H 0.7421 0.79138 0.94978 0.0
H2394 H 0.7645 0.8171 0.88002 0.0
H2395 H 0.75701 0.81965 0.91898 0.0
H2396 H 0.8316 0.70555 0.90325 0.0
H2397 H 0.8178 0.70361 0.93984 0.0
H2398 H 0.85587 0.74335 0.88556 0.0
H2399 H 0.84856 0.77051 0.86347 0.0
C2400 C 0.85177 0.10482 0.03819 0.0
C2401 C 0.83906 0.09327 0.06426 0.0
C2402 C 0.85891 0.04805 0.05307 0.0
C2403 C 0.87081 0.0596 0.0268 0.0
N2404 N 0.88803 0.10341 1.00205 0.0
N2405 N 0.83677 0.05875 0.10184 0.0
C2406 C 0.87054 0.08958 0.02212 0.0
C2407 C 0.8448 0.06641 0.07353 0.0
N2408 N 0.84389 0.12851 0.02652 0.0
N2409 N 0.86023 0.01923 0.05764 0.0
H2410 H 0.82661 0.07221 0.11715 0.0
H2411 H 0.84248 0.04094 0.11157 0.0
H2412 H 0.87107 0.00564 0.04345 0.0
H2413 H 0.84936 0.00811 0.07426 0.0
H2414 H 0.84931 0.13467 0.0048 0.0
H2415 H 0.82969 0.14028 0.03659 0.0
H2416 H 0.89112 0.12672 1.00067 0.0
H2417 H 0.90183 0.09265 0.98928 0.0
C2418 C 0.42648 0.46513 0.07963 0.0
C2419 C 0.40529 0.44802 0.05114 0.0
C2420 C 0.43628 0.47605 0.01694 0.0
C2421 C 0.45943 0.48996 0.04462 0.0
N2422 N 0.47623 0.49883 0.10297 0.0
N2423 N 0.39274 0.43284 0.99224 0.0
C2424 C 0.45452 0.48448 0.07611 0.0
C2425 C 0.41103 0.45224 0.01969 0.0
N2426 N 0.41906 0.46478 0.11011 0.0
N2427 N 0.43756 0.48619 0.98829 0.0
H2428 H 0.37446 0.41462 0.99332 0.0
H2429 H 0.39757 0.43264 0.96865 0.0
H2430 H 0.45457 0.50464 0.98539 0.0
H2431 H 0.41988 0.47878 0.96851 0.0
H2432 H 0.43207 0.47945 0.13159 0.0
H2433 H 0.39866 0.45168 0.11406 0.0
H2434 H 0.47637 0.49213 0.12545 0.0
H2435 H 0.49458 0.51721 0.1026 0.0
C2436 C 0.39314 0.60468 0.77604 0.0
C2437 C 0.39719 0.58934 0.8024 0.0
C2438 C 0.37402 0.62395 0.83536 0.0
C2439 C 0.37646 0.64324 0.81242 0.0
N2440 N 0.38903 0.65301 0.76069 0.0
N2441 N 0.40009 0.59307 0.86141 0.0
C2442 C 0.38608 0.63385 0.78249 0.0
C2443 C 0.38952 0.60089 0.83316 0.0
N2444 N 0.39523 0.59124 0.745 0.0
N2445 N 0.3585 0.62877 0.8604 0.0
H2446 H 0.41677 0.58158 0.86309 0.0
H2447 H 0.39619 0.60263 0.88437 0.0
H2448 H 0.34727 0.64607 0.86315 0.0
H2449 H 0.35425 0.61336 0.87612 0.0
H2450 H 0.39039 0.60048 0.72461 0.0
H2451 H 0.39867 0.56918 0.73908 0.0
H2452 H 0.3992 0.64913 0.7402 0.0
H2453 H 0.38255 0.67366 0.76419 0.0
C2454 C 0.18019 0.62135 0.56184 0.0
C2455 C 0.19427 0.59764 0.55311 0.0
C2456 C 0.15314 0.55847 0.56295 0.0
C2457 C 0.1372 0.58137 0.56815 0.0
N2458 N 0.13866 0.63555 0.58412 0.0
N2459 N 0.20169 0.54884 0.56067 0.0
C2460 C 0.15208 0.61336 0.57223 0.0
C2461 C 0.18358 0.56823 0.56022 0.0
N2462 N 0.19233 0.65042 0.5568 0.0
N2463 N 0.13874 0.52747 0.55718 0.0
H2464 H 0.2239 0.55608 0.55722 0.0
H2465 H 0.19559 0.52743 0.56756 0.0
H2466 H 0.11578 0.51931 0.5561 0.0
H2467 H 0.149 0.5099 0.55043 0.0
H2468 H 0.18161 0.66811 0.55908 0.0
H2469 H 0.21321 0.65623 0.54946 0.0
H2470 H 0.14931 0.65937 0.58935 0.0
H2471 H 0.11777 0.6298 0.59137 0.0
C2472 C 0.76228 0.98527 0.74374 0.0
C2473 C 0.77575 0.01738 0.75526 0.0
C2474 C 0.80363 0.00784 0.80332 0.0
C2475 C 0.7832 0.97766 0.79664 0.0
N2476 N 0.74604 0.93526 0.75878 0.0
N2477 N 0.81595 0.05856 0.78836 0.0
C2478 C 0.76381 0.96529 0.7659 0.0
C2479 C 0.79988 0.02796 0.78182 0.0
N2480 N 0.74709 0.97466 0.71236 0.0
N2481 N 0.8256 0.01726 0.8305 0.0
H2482 H 0.81223 0.07301 0.77235 0.0
H2483 H 0.83225 0.06957 0.80898 0.0
H2484 H 0.82841 1.00301 0.84696 0.0
H2485 H 0.84182 0.03861 0.83627 0.0
H2486 H 0.73774 0.95114 0.70158 0.0
H2487 H 0.74664 0.9898 0.69631 0.0
H2488 H 0.72941 0.92598 0.7381 0.0
H2489 H 0.74698 0.91987 0.77443 0.0
C2490 C 0.72699 0.9439 0.56817 0.0
C2491 C 0.75088 0.94556 0.55028 0.0
C2492 C 0.72378 0.96346 0.50747 0.0
C2493 C 0.69828 0.95724 0.5229 0.0
N2494 N 0.67438 0.94092 0.56709 0.0
N2495 N 0.7728 0.95601 0.50287 0.0
C2496 C 0.6996 0.94761 0.55325 0.0
C2497 C 0.74962 0.95533 0.52 0.0
N2498 N 0.7307 0.93907 0.59944 0.0
N2499 N 0.72342 0.97781 0.48142 0.0
H2500 H 0.79274 0.95155 0.51197 0.0
H2501 H 0.7717 0.95925 0.47888 0.0
H2502 H 0.70469 0.98397 0.47157 0.0
H2503 H 0.74232 0.98597 0.47129 0.0
H2504 H 0.71528 0.94083 0.6151 0.0
H2505 H 0.75047 0.93578 0.61078 0.0
H2506 H 0.673 0.93059 0.5873 0.0
H2507 H 0.65397 0.94388 0.55713 0.0
C2508 C 0.39545 0.41169 0.77561 0.0
C2509 C 0.38799 0.43918 0.78824 0.0
C2510 C 0.34007 0.4082 0.79754 0.0
C2511 C 0.34644 0.37968 0.78309 0.0
N2512 N 0.37567 0.35942 0.7441 0.0
N2513 N 0.34855 0.46318 0.79787 0.0
C2514 C 0.37272 0.38283 0.76774 0.0
C2515 C 0.35875 0.43718 0.79468 0.0
N2516 N 0.42417 0.41272 0.77151 0.0
N2517 N 0.31749 0.40908 0.81525 0.0
H2518 H 0.36145 0.4846 0.795 0.0
H2519 H 0.32627 0.46243 0.79937 0.0
H2520 H 0.30026 0.39051 0.81699 0.0
H2521 H 0.31645 0.42973 0.83004 0.0
H2522 H 0.43128 0.39262 0.76571 0.0
H2523 H 0.44124 0.43352 0.77636 0.0
H2524 H 0.39376 0.36195 0.73157 0.0
H2525 H 0.35837 0.33974 0.73299 0.0
C2526 C 0.22965 0.67365 0.2811 0.0
C2527 C 0.23839 0.65187 0.259 0.0
C2528 C 0.28385 0.69046 0.25724 0.0
C2529 C 0.27529 0.71284 0.27984 0.0
N2530 N 0.24854 0.71903 0.32441 0.0
N2531 N 0.26748 0.64105 0.21782 0.0
C2532 C 0.25011 0.70289 0.29454 0.0
C2533 C 0.26319 0.66107 0.24391 0.0
N2534 N 0.20238 0.66541 0.29054 0.0
N2535 N 0.3129 0.69477 0.2529 0.0
H2536 H 0.25228 0.61916 0.20839 0.0
H2537 H 0.28396 0.64755 0.20379 0.0
H2538 H 0.33038 0.71231 0.26802 0.0
H2539 H 0.32033 0.67785 0.23868 0.0
H2540 H 0.19401 0.68115 0.30535 0.0
H2541 H 0.18731 0.64348 0.28083 0.0
H2542 H 0.23298 0.70995 0.33836 0.0
H2543 H 0.26609 0.73809 0.33713 0.0
C2544 C 0.49158 0.65488 0.48075 0.0
C2545 C 0.50763 0.6856 0.49893 0.0
C2546 C 0.53167 0.65973 0.53849 0.0
C2547 C 0.51876 0.62924 0.51825 0.0
N2548 N 0.48886 0.59955 0.46643 0.0
N2549 N 0.54699 0.71607 0.54348 0.0
C2550 C 0.49921 0.62739 0.48849 0.0
C2551 C 0.52908 0.68753 0.52705 0.0
N2552 N 0.46872 0.65169 0.45575 0.0
N2553 N 0.54417 0.66218 0.57019 0.0
H2554 H 0.54502 0.73681 0.53709 0.0
H2555 H 0.56526 0.71884 0.56171 0.0
H2556 H 0.54328 0.64257 0.58026 0.0
H2557 H 0.55161 0.68324 0.58736 0.0
H2558 H 0.45348 0.63034 0.44445 0.0
H2559 H 0.46371 0.67066 0.44776 0.0
H2560 H 0.4775 0.59709 0.44281 0.0
H2561 H 0.49395 0.5793 0.47056 0.0
C2562 C 0.6765 0.28902 0.70332 0.0
C2563 C 0.67739 0.31615 0.69003 0.0
C2564 C 0.73173 0.33589 0.71406 0.0
C2565 C 0.7305 0.30889 0.72777 0.0
N2566 N 0.70434 0.25523 0.72318 0.0
N2567 N 0.70779 0.36205 0.6769 0.0
C2568 C 0.70351 0.28428 0.71912 0.0
C2569 C 0.70568 0.33841 0.69344 0.0
N2570 N 0.64977 0.26711 0.70031 0.0
N2571 N 0.75745 0.35982 0.7216 0.0
H2572 H 0.68929 0.36535 0.66295 0.0
H2573 H 0.72804 0.37688 0.6748 0.0
H2574 H 0.77718 0.35869 0.73509 0.0
H2575 H 0.75894 0.38164 0.71616 0.0
H2576 H 0.64682 0.24952 0.71359 0.0
H2577 H 0.63022 0.26714 0.68547 0.0
H2578 H 0.68619 0.23546 0.71537 0.0
H2579 H 0.72451 0.25019 0.72993 0.0
C2580 C 1.00631 0.3884 0.03259 0.0
C2581 C 0.00939 0.37209 1.00132 0.0
C2582 C 0.02376 0.42356 0.98496 0.0
C2583 C 0.02155 0.43978 0.01659 0.0
N2584 N 0.01796 0.43735 0.07274 0.0
N2585 N 0.024 0.37554 0.94857 0.0
C2586 C 0.0145 0.42202 0.04085 0.0
C2587 C 0.01922 0.39018 0.97797 0.0
N2588 N 0.99595 0.37184 0.05503 0.0
N2589 N 0.02871 0.43981 0.96071 0.0
H2590 H 0.01707 0.35148 0.93995 0.0
H2591 H 0.03602 0.38716 0.93303 0.0
H2592 H 0.03301 0.46392 0.96446 0.0
H2593 H 0.02644 0.4294 0.93608 0.0
H2594 H 0.9884 0.38153 0.07564 0.0
H2595 H 0.99371 0.34805 0.05253 0.0
H2596 H 0.01648 0.42626 0.09242 0.0
H2597 H 0.02533 0.46156 0.08021 0.0
C2598 C 0.99038 0.77116 0.14939 0.0
C2599 C 0.0129 0.80025 0.15928 0.0
C2600 C 0.98984 0.81344 0.20771 0.0
C2601 C 0.96723 0.78463 0.19752 0.0
N2602 N 0.94162 0.73977 0.15481 0.0
N2603 N 0.02941 0.85207 0.19326 0.0
C2604 C 0.96599 0.76486 0.16693 0.0
C2605 C 0.01117 0.82231 0.18708 0.0
N2606 N 0.99341 0.74844 0.12494 0.0
N2607 N 0.99148 0.83193 0.23768 0.0
H2608 H 0.04466 0.85954 0.17822 0.0
H2609 H 0.02743 0.87009 0.21126 0.0
H2610 H 0.97529 0.82711 0.2525 0.0
H2611 H 0.00961 0.85107 0.24858 0.0
H2612 H 0.97968 0.72567 0.11933 0.0
H2613 H 0.01129 0.75125 0.11216 0.0
H2614 H 0.93774 0.72639 0.13109 0.0
H2615 H 0.92379 0.7342 0.1674 0.0
C2616 C 0.52966 0.31202 0.12203 0.0
C2617 C 0.53082 0.31904 0.15663 0.0
C2618 C 0.55607 0.37403 0.15809 0.0
C2619 C 0.5536 0.36711 0.12342 0.0
N2620 N 0.53178 0.33143 0.0718 0.0
N2621 N 0.53873 0.35826 0.20627 0.0
C2622 C 0.53815 0.33672 0.10524 0.0
C2623 C 0.54218 0.35054 0.17431 0.0
N2624 N 0.52241 0.28165 0.1054 0.0
N2625 N 0.5725 0.40284 0.17563 0.0
H2626 H 0.52811 0.34197 0.21879 0.0
H2627 H 0.54381 0.38118 0.21943 0.0
H2628 H 0.58191 0.42087 0.16447 0.0
H2629 H 0.57831 0.40825 0.20111 0.0
H2630 H 0.52416 0.27514 0.08084 0.0
H2631 H 0.51765 0.26278 0.11682 0.0
H2632 H 0.51794 0.31058 0.05725 0.0
H2633 H 0.53795 0.34902 0.05887 0.0
C2634 C 0.93749 0.2823 0.29997 0.0
C2635 C 0.95754 0.31168 0.31707 0.0
C2636 C 0.91226 0.33023 0.32576 0.0
C2637 C 0.89233 0.30235 0.3055 0.0
N2638 N 0.88712 0.25172 0.27213 0.0
N2639 N 0.96256 0.36552 0.34081 0.0
C2640 C 0.90538 0.27836 0.2924 0.0
C2641 C 0.94439 0.33604 0.3285 0.0
N2642 N 0.94893 0.25747 0.29226 0.0
N2643 N 0.90057 0.35065 0.34429 0.0
H2644 H 0.98577 0.37109 0.34229 0.0
H2645 H 0.95443 0.38494 0.34633 0.0
H2646 H 0.87763 0.34659 0.34417 0.0
H2647 H 0.91361 0.3696 0.36234 0.0
H2648 H 0.93578 0.23464 0.28322 0.0
H2649 H 0.97174 0.25923 0.2975 0.0
H2650 H 0.89498 0.23499 0.25823 0.0
H2651 H 0.86386 0.2471 0.26763 0.0
C2652 C 0.01949 0.6728 0.61262 0.0
C2653 C 0.02559 0.6789 0.64749 0.0
C2654 C 0.04102 0.62987 0.64359 0.0
C2655 C 0.03651 0.62463 0.60828 0.0
N2656 N 1.0066 0.63378 0.56228 0.0
N2657 N 0.04707 0.66508 0.69611 0.0
C2658 C 0.02196 0.64433 0.59361 0.0
C2659 C 0.0381 0.6582 0.66282 0.0
N2660 N 0.01259 0.69497 0.59723 0.0
N2661 N 0.04409 0.60654 0.65932 0.0
H2662 H 0.04198 0.68259 0.71207 0.0
H2663 H 0.06148 0.65452 0.70785 0.0
H2664 H 0.04138 0.58366 0.64789 0.0
H2665 H 0.04438 0.60816 0.68438 0.0
H2666 H 0.01109 0.69322 0.57198 0.0
H2667 H 0.01183 0.71664 0.60997 0.0
H2668 H 0.99257 0.64522 0.55137 0.0
H2669 H 1.00455 0.61151 0.54891 0.0
C2670 C 0.66795 0.82666 0.78984 0.0
C2671 C 0.65473 0.8165 0.81652 0.0
C2672 C 0.69993 0.79739 0.83007 0.0
C2673 C 0.71427 0.8097 0.80506 0.0
N2674 N 0.71206 0.83975 0.7635 0.0
N2675 N 0.66196 0.79684 0.86541 0.0
C2676 C 0.69829 0.8256 0.78589 0.0
C2677 C 0.67207 0.80343 0.83762 0.0
N2678 N 0.65101 0.8365 0.76729 0.0
N2679 N 0.71229 0.77859 0.84603 0.0
H2680 H 0.64195 0.80064 0.8714 0.0
H2681 H 0.67466 0.79057 0.88389 0.0
H2682 H 0.73233 0.77394 0.84164 0.0
H2683 H 0.7017 0.7658 0.86168 0.0
H2684 H 0.65709 0.8403 0.74502 0.0
H2685 H 0.62985 0.83916 0.77015 0.0
H2686 H 0.70358 0.85463 0.75117 0.0
H2687 H 0.73312 0.83822 0.7588 0.0
C2688 C 0.51425 0.52291 0.67725 0.0
C2689 C 0.49406 0.53963 0.68753 0.0
C2690 C 0.49559 0.56232 0.63824 0.0
C2691 C 0.51624 0.54563 0.62779 0.0
N2692 N 0.55244 0.51818 0.64502 0.0
N2693 N 0.46167 0.57155 0.67631 0.0
C2694 C 0.5276 0.52818 0.64932 0.0
C2695 C 0.48359 0.55823 0.6675 0.0
N2696 N 0.52003 0.50091 0.69369 0.0
N2697 N 0.48992 0.58461 0.62217 0.0
H2698 H 0.45282 0.56913 0.69766 0.0
H2699 H 0.45042 0.58267 0.66144 0.0
H2700 H 0.50055 0.59074 0.60293 0.0
H2701 H 0.47739 0.59968 0.62998 0.0
H2702 H 0.53126 0.48479 0.68485 0.0
H2703 H 0.51078 0.49651 0.71433 0.0
H2704 H 0.56395 0.50999 0.66284 0.0
H2705 H 0.56331 0.51964 0.62517 0.0
C2706 C 0.78394 0.18703 0.98487 0.0
C2707 C 0.79422 0.20843 0.01563 0.0
C2708 C 0.77077 0.24565 0.99496 0.0
C2709 C 0.76131 0.22455 0.96406 0.0
N2710 N 0.76357 0.17816 0.92719 0.0
N2711 N 0.80129 0.25922 0.04935 0.0
C2712 C 0.76965 0.19631 0.95819 0.0
C2713 C 0.78901 0.23826 0.02037 0.0
N2714 N 0.78582 0.15703 0.98177 0.0
N2715 N 0.76141 0.27217 1.0002 0.0
H2716 H 0.81453 0.25411 0.06835 0.0
H2717 H 0.80035 0.28226 0.05379 0.0
H2718 H 0.74902 0.27879 0.98169 0.0
H2719 H 0.76453 0.28684 0.02309 0.0
H2720 H 0.77516 0.13926 0.96143 0.0
H2721 H 0.79604 0.14914 1.00066 0.0
H2722 H 0.77217 0.15922 0.92074 0.0
H2723 H 0.75182 0.18332 0.90713 0.0
C2724 C 0.13871 0.5384 0.12893 0.0
C2725 C 0.14686 0.56591 0.15353 0.0
C2726 C 0.10238 0.58015 0.13406 0.0
C2727 C 0.09209 0.55098 0.11128 0.0
N2728 N 0.0984 0.49995 0.09078 0.0
N2729 N 0.1461 0.61942 0.16575 0.0
C2730 C 0.10996 0.5296 0.10911 0.0
C2731 C 0.13183 0.58899 0.15146 0.0
N2732 N 0.15896 0.52165 0.1239 0.0
N2733 N 0.08394 0.59876 0.14082 0.0
H2734 H 0.16878 0.6264 0.17631 0.0
H2735 H 0.13663 0.6377 0.16368 0.0
H2736 H 0.06238 0.59474 0.12818 0.0
H2737 H 0.08988 0.61794 0.16048 0.0
H2738 H 0.15537 0.50263 0.1045 0.0
H2739 H 0.18088 0.52948 0.13688 0.0
H2740 H 0.1093 0.4825 0.09094 0.0
H2741 H 0.07667 0.49188 0.07763 0.0
C2742 C 0.82304 0.8079 0.44368 0.0
C2743 C 0.82278 0.83862 0.45851 0.0
C2744 C 0.81146 0.8484 0.40255 0.0
C2745 C 0.81483 0.81883 0.38782 0.0
N2746 N 0.82767 0.77194 0.39572 0.0
N2747 N 0.82384 0.89057 0.45059 0.0
C2748 C 0.82207 0.79925 0.40889 0.0
C2749 C 0.81867 0.85946 0.43753 0.0
N2750 N 0.82241 0.78616 0.46259 0.0
N2751 N 0.80169 0.86646 0.38323 0.0
H2752 H 0.83115 0.9005 0.47542 0.0
H2753 H 0.82441 0.90736 0.43645 0.0
H2754 H 0.79799 0.86066 0.35776 0.0
H2755 H 0.79528 0.88626 0.39254 0.0
H2756 H 0.8195 0.76259 0.45298 0.0
H2757 H 0.82151 0.79096 0.48758 0.0
H2758 H 0.83722 0.75885 0.40971 0.0
H2759 H 0.82407 0.76316 0.37056 0.0
C2760 C 0.52525 0.54647 0.89032 0.0
C2761 C 0.50365 0.51961 0.87113 0.0
C2762 C 0.49724 0.49799 0.92016 0.0
C2763 C 0.51869 0.52506 0.93978 0.0
N2764 N 0.54833 0.57784 0.94426 0.0
N2765 N 0.47301 0.46744 0.86569 0.0
C2766 C 0.53165 0.54995 0.92498 0.0
C2767 C 0.49089 0.4946 0.88546 0.0
N2768 N 0.54011 0.56842 0.87509 0.0
N2769 N 0.48104 0.4768 0.93506 0.0
H2770 H 0.46823 0.46453 0.84024 0.0
H2771 H 0.46518 0.44703 0.8739 0.0
H2772 H 0.48463 0.47927 0.96034 0.0
H2773 H 0.46251 0.45858 0.92301 0.0
H2774 H 0.55839 0.58705 0.88687 0.0
H2775 H 0.53589 0.56642 0.84973 0.0
H2776 H 0.55526 0.59822 0.93572 0.0
H2777 H 0.55338 0.58131 0.96956 0.0
C2778 C 0.76626 0.18504 0.17645 0.0
C2779 C 0.78834 0.18937 0.15594 0.0
C2780 C 0.81607 0.23749 0.19539 0.0
C2781 C 0.7917 0.23569 0.21266 0.0
N2782 N 0.73865 0.21281 0.20931 0.0
N2783 N 0.82701 0.22884 0.14093 0.0
C2784 C 0.76525 0.21095 0.20033 0.0
C2785 C 0.8116 0.21795 0.16403 0.0
N2786 N 0.74658 0.1566 0.17393 0.0
N2787 N 0.84276 0.2595 0.20748 0.0
H2788 H 0.82054 0.21931 0.11594 0.0
H2789 H 0.84268 0.25061 0.14578 0.0
H2790 H 0.84654 0.27544 0.2297 0.0
H2791 H 0.86174 0.2599 0.19664 0.0
H2792 H 0.73107 0.15293 0.18969 0.0
H2793 H 0.74824 0.13618 0.15936 0.0
H2794 H 0.71837 0.19648 0.19822 0.0
H2795 H 0.73688 0.23158 0.22627 0.0
C2796 C 0.125 0.56901 0.32793 0.0
C2797 C 0.15529 0.58338 0.32635 0.0
C2798 C 0.16101 0.61598 0.38065 0.0
C2799 C 0.12965 0.60689 0.3786 0.0
N2800 N 0.08098 0.57395 0.35119 0.0
N2801 N 0.20077 0.62419 0.34978 0.0
C2802 C 0.1113 0.58306 0.35249 0.0
C2803 C 0.17311 0.60754 0.35255 0.0
N2804 N 0.10987 0.54133 0.307 0.0
N2805 N 0.17934 0.63223 0.40946 0.0
H2806 H 0.20894 0.62024 0.32828 0.0
H2807 H 0.21338 0.64417 0.36682 0.0
H2808 H 0.1713 0.63887 0.43091 0.0
H2809 H 0.20259 0.63655 0.41277 0.0
H2810 H 0.0887 0.52836 0.30908 0.0
H2811 H 0.11974 0.5296 0.28973 0.0
H2812 H 0.06621 0.55889 0.33099 0.0
H2813 H 0.07042 0.58301 0.36956 0.0
C2814 C 0.8266 0.86631 0.67079 0.0
C2815 C 0.81303 0.84416 0.64094 0.0
C2816 C 0.78059 0.81322 0.67253 0.0
C2817 C 0.79746 0.83256 0.70264 0.0
N2818 N 0.82131 0.88709 0.72616 0.0
N2819 N 0.77668 0.79602 0.61357 0.0
C2820 C 0.81631 0.86198 0.70082 0.0
C2821 C 0.78966 0.81762 0.64184 0.0
N2822 N 0.84957 0.89167 0.6707 0.0
N2823 N 0.75348 0.79365 0.67307 0.0
H2824 H 0.78244 0.79879 0.59083 0.0
H2825 H 0.76193 0.77449 0.61316 0.0
H2826 H 0.74502 0.79283 0.69489 0.0
H2827 H 0.73811 0.78152 0.65195 0.0
H2828 H 0.8628 0.90626 0.69216 0.0
H2829 H 0.85693 0.89685 0.64935 0.0
H2830 H 0.83307 0.9096 0.72528 0.0
H2831 H 0.80946 0.88672 0.74555 0.0
C2832 C 0.72342 0.48402 0.50047 0.0
C2833 C 0.75097 0.50597 0.50168 0.0
C2834 C 0.73838 0.54462 0.54109 0.0
C2835 C 0.71333 0.52101 0.54453 0.0
N2836 N 0.67885 0.46984 0.52472 0.0
N2837 N 0.77487 0.56041 0.50677 0.0
C2838 C 0.70455 0.49122 0.5229 0.0
C2839 C 0.75532 0.53751 0.51668 0.0
N2840 N 0.71577 0.45669 0.47758 0.0
N2841 N 0.7469 0.57314 0.56217 0.0
H2842 H 0.78524 0.55541 0.48662 0.0
H2843 H 0.77755 0.58411 0.51539 0.0
H2844 H 0.7354 0.57915 0.58098 0.0
H2845 H 0.76681 0.58993 0.56272 0.0
H2846 H 0.69559 0.43952 0.47402 0.0
H2847 H 0.72929 0.45252 0.46018 0.0
H2848 H 0.67199 0.44696 0.51134 0.0
H2849 H 0.66452 0.47497 0.54067 0.0
C2850 C 0.15796 0.11019 0.49083 0.0
C2851 C 0.18104 0.12698 0.51742 0.0
C2852 C 0.14907 0.1083 0.55623 0.0
C2853 C 0.12669 0.08988 0.52932 0.0
N2854 N 0.11377 0.06687 0.47149 0.0
N2855 N 0.20067 0.13948 0.57536 0.0
C2856 C 0.13214 0.0892 0.49673 0.0
C2857 C 0.17715 0.12544 0.55017 0.0
N2858 N 0.16061 0.11454 0.45984 0.0
N2859 N 0.14333 0.10984 0.58752 0.0
H2860 H 0.2211 0.1532 0.57201 0.0
H2861 H 0.20069 0.1362 0.59926 0.0
H2862 H 0.12363 0.09672 0.593 0.0
H2863 H 0.1571 0.1256 0.60791 0.0
H2864 H 0.14312 0.10544 0.43992 0.0
H2865 H 0.17937 0.12972 0.45469 0.0
H2866 H 0.11843 0.06283 0.44775 0.0
H2867 H 0.09536 0.05022 0.47504 0.0
C2868 C 0.2361 0.01376 0.80458 0.0
C2869 C 0.20439 0.00766 0.79922 0.0
C2870 C 0.19953 0.9555 0.7666 0.0
C2871 C 0.23115 0.96141 0.77285 0.0
N2872 N 0.27893 0.99252 0.80413 0.0
N2873 N 0.15582 0.96991 0.78228 0.0
C2874 C 0.24921 0.98934 0.79409 0.0
C2875 C 0.18601 0.97771 0.78221 0.0
N2876 N 0.25375 0.04334 0.818 0.0
N2877 N 0.18249 0.92888 0.7452 0.0
H2878 H 0.14504 0.98505 0.79421 0.0
H2879 H 0.14181 0.94745 0.77318 0.0
H2880 H 0.19145 0.91115 0.73509 0.0
H2881 H 0.15983 0.92509 0.73619 0.0
H2882 H 0.27693 0.04986 0.81956 0.0
H2883 H 0.24507 0.06222 0.82467 0.0
H2884 H 0.29261 0.01094 0.82234 0.0
H2885 H 0.28924 0.97516 0.79652 0.0
C2886 C 0.42127 0.03586 0.00931 0.0
C2887 C 0.40384 0.0092 0.01796 0.0
C2888 C 0.44855 0.99635 0.03954 0.0
C2889 C 0.46621 0.0236 0.03247 0.0
N2890 N 0.46816 0.07587 0.02617 0.0
N2891 N 0.40244 0.97581 0.05741 0.0
C2892 C 0.45238 0.04551 0.02175 0.0
C2893 C 0.41793 0.99311 0.0383 0.0
N2894 N 0.40883 0.0515 0.98908 0.0
N2895 N 0.46041 0.97305 0.04627 0.0
H2896 H 0.38041 0.97553 0.05974 0.0
H2897 H 0.41281 0.9653 0.07391 0.0
H2898 H 0.48277 0.97392 0.04583 0.0
H2899 H 0.44701 0.95162 0.04847 0.0
H2900 H 0.42177 0.06982 0.98065 0.0
H2901 H 0.38615 0.04469 0.97889 0.0
H2902 H 0.45811 0.09315 0.02131 0.0
H2903 H 0.49015 0.08398 0.03873 0.0
C2904 C 0.81314 0.55911 0.78018 0.0
C2905 C 0.81732 0.56833 0.81485 0.0
C2906 C 0.78681 0.60434 0.80912 0.0
C2907 C 0.78869 0.59998 0.77527 0.0
N2908 N 0.80855 0.57679 0.72953 0.0
N2909 N 0.8101 0.60225 0.86288 0.0
C2910 C 0.80281 0.57803 0.76081 0.0
C2911 C 0.80422 0.59121 0.82967 0.0
N2912 N 0.81977 0.53266 0.76587 0.0
N2913 N 0.7687 0.6213 0.82156 0.0
H2914 H 0.82293 0.59373 0.87914 0.0
H2915 H 0.80403 0.62163 0.87419 0.0
H2916 H 0.75556 0.6311 0.80696 0.0
H2917 H 0.7645 0.62296 0.84551 0.0
H2918 H 0.81493 0.52373 0.74062 0.0
H2919 H 0.82718 0.51804 0.77956 0.0
H2920 H 0.82191 0.56353 0.71953 0.0
H2921 H 0.80256 0.59121 0.71465 0.0
C2922 C 0.84696 0.646 0.07511 0.0
C2923 C 0.84123 0.65248 0.04345 0.0
C2924 C 0.88821 0.64186 0.03131 0.0
C2925 C 0.89285 0.63354 0.06207 0.0
N2926 N 0.8738 0.62091 0.1102 0.0
N2927 N 0.85237 0.64814 0.9883 0.0
C2928 C 0.87121 0.63333 0.08296 0.0
C2929 C 0.86074 0.64808 0.02062 0.0
N2930 N 0.83048 0.65366 0.09838 0.0
N2931 N 0.91026 0.64436 0.01252 0.0
H2932 H 0.83168 0.65074 0.97883 0.0
H2933 H 0.86447 0.64212 0.97013 0.0
H2934 H 0.93027 0.63878 0.01889 0.0
H2935 H 0.90961 0.6541 0.99185 0.0
H2936 H 0.83557 0.6523 0.12281 0.0
H2937 H 0.81355 0.66444 0.09417 0.0
H2938 H 0.85701 0.61702 0.1244 0.0
H2939 H 0.89158 0.61187 0.11692 0.0
C2940 C 0.22936 0.15316 0.80039 0.0
C2941 C 0.21596 0.15611 0.82893 0.0
C2942 C 0.24056 0.21251 0.84222 0.0
C2943 C 0.25163 0.21027 0.81184 0.0
N2944 N 0.25065 0.17806 0.75901 0.0
N2945 N 0.20495 0.18919 0.87444 0.0
C2946 C 0.24459 0.18043 0.7902 0.0
C2947 C 0.22056 0.18595 0.84914 0.0
N2948 N 0.2282 0.12414 0.78329 0.0
N2949 N 0.2499 0.23974 0.86528 0.0
H2950 H 0.19048 0.17032 0.88056 0.0
H2951 H 0.2043 0.21072 0.88755 0.0
H2952 H 0.26423 0.25985 0.8617 0.0
H2953 H 0.24577 0.24167 0.88926 0.0
H2954 H 0.24046 0.12043 0.76459 0.0
H2955 H 0.21716 0.10363 0.78975 0.0
H2956 H 0.24265 0.15763 0.74098 0.0
H2957 H 0.26108 0.19706 0.74997 0.0
C2958 C 0.35919 0.92145 0.33504 0.0
C2959 C 0.33882 0.93836 0.32584 0.0
C2960 C 0.31401 0.89557 0.27909 0.0
C2961 C 0.33097 0.87739 0.29218 0.0
N2962 N 0.38024 0.87917 0.31665 0.0
N2963 N 0.29841 0.94332 0.28733 0.0
C2964 C 0.35731 0.89262 0.31467 0.0
C2965 C 0.31705 0.92624 0.29676 0.0
N2966 N 0.37959 0.93211 0.36349 0.0
N2967 N 0.29514 0.88308 0.24988 0.0
H2968 H 0.29979 0.96563 0.30035 0.0
H2969 H 0.28054 0.93493 0.26783 0.0
H2970 H 0.29204 0.86009 0.23791 0.0
H2971 H 0.28382 0.89556 0.2369 0.0
H2972 H 0.39272 0.91874 0.37232 0.0
H2973 H 0.38154 0.95288 0.37987 0.0
H2974 H 0.40137 0.89056 0.33057 0.0
H2975 H 0.37838 0.85752 0.30211 0.0
C2976 C 0.55159 0.42253 0.59675 0.0
C2977 C 0.5755 0.41058 0.58708 0.0
C2978 C 0.58778 0.45347 0.55616 0.0
C2979 C 0.56495 0.46656 0.56713 0.0
N2980 N 0.52342 0.46141 0.59612 0.0
N2981 N 0.61796 0.41664 0.55966 0.0
C2982 C 0.54644 0.45032 0.58698 0.0
C2983 C 0.59391 0.42671 0.56733 0.0
N2984 N 0.53363 0.40693 0.61531 0.0
N2985 N 0.60234 0.46532 0.53301 0.0
H2986 H 0.62312 0.39761 0.56741 0.0
H2987 H 0.63401 0.42831 0.5478 0.0
H2988 H 0.59952 0.48527 0.52532 0.0
H2989 H 0.61464 0.45359 0.519 0.0
H2990 H 0.51525 0.4129 0.62333 0.0
H2991 H 0.53741 0.38747 0.62338 0.0
H2992 H 0.50837 0.45175 0.6102 0.0
H2993 H 0.51969 0.48151 0.58991 0.0
C2994 C 0.40498 0.75754 0.37251 0.0
C2995 C 0.42399 0.78305 0.39679 0.0
C2996 C 0.3945 0.81711 0.37749 0.0
C2997 C 0.3738 0.79109 0.35525 0.0
N2998 N 0.35713 0.7354 0.33572 0.0
N2999 N 0.4338 0.83637 0.42553 0.0
C3000 C 0.37847 0.76099 0.35401 0.0
C3001 C 0.41787 0.81261 0.40004 0.0
N3002 N 0.41288 0.73026 0.36612 0.0
N3003 N 0.39225 0.84644 0.37671 0.0
H3004 H 0.45123 0.83421 0.44209 0.0
H3005 H 0.42817 0.85724 0.43193 0.0
H3006 H 0.37458 0.85043 0.36211 0.0
H3007 H 0.40853 0.86669 0.38912 0.0
H3008 H 0.40225 0.71212 0.3461 0.0
H3009 H 0.43174 0.72678 0.37927 0.0
H3010 H 0.35767 0.71256 0.33578 0.0
H3011 H 0.33732 0.73704 0.32288 0.0
C3012 C 0.08191 0.68946 0.10258 0.0
C3013 C 0.06594 0.70326 0.08066 0.0
C3014 C 0.03851 0.64905 0.05143 0.0
C3015 C 0.0582 0.63604 0.06937 0.0
N3016 N 0.10561 0.64797 0.10532 0.0
N3017 N 0.03837 0.69149 0.02447 0.0
C3018 C 0.08215 0.6575 0.09272 0.0
C3019 C 0.04673 0.68181 0.05229 0.0
N3020 N 0.09581 0.70552 0.13338 0.0
N3021 N 0.01229 0.63049 0.03261 0.0
H3022 H 0.04866 0.71305 0.01986 0.0
H3023 H 0.02551 0.67595 0.00333 0.0
H3024 H 1.00512 0.60656 0.03118 0.0
H3025 H 0.99646 0.63966 0.02109 0.0
H3026 H 0.10608 0.69514 0.15009 0.0
H3027 H 0.09349 0.72705 0.14413 0.0
H3028 H 0.12491 0.66352 0.11994 0.0
H3029 H 0.10684 0.62529 0.09793 0.0
C3030 C 0.08608 0.30862 0.87327 0.0
C3031 C 0.08333 0.28661 0.89377 0.0
C3032 C 0.13721 0.29089 0.89838 0.0
C3033 C 0.13974 0.31227 0.87715 0.0
N3034 N 0.11616 0.33751 0.8398 0.0
N3035 N 0.10464 0.25299 0.92191 0.0
C3036 C 0.11397 0.31974 0.86303 0.0
C3037 C 0.10848 0.27668 0.90527 0.0
N3038 N 0.06246 0.32027 0.8651 0.0
N3039 N 0.16243 0.2846 0.91233 0.0
H3040 H 0.08399 0.24231 0.92757 0.0
H3041 H 0.12122 0.24231 0.92813 0.0
H3042 H 0.18345 0.29289 0.90614 0.0
H3043 H 0.16296 0.27238 0.93108 0.0
H3044 H 0.06396 0.33895 0.85348 0.0
H3045 H 0.04174 0.31301 0.87232 0.0
H3046 H 0.09769 0.34066 0.82569 0.0
H3047 H 0.13638 0.3473 0.83271 0.0
C3048 C 0.56058 0.76126 0.95135 0.0
C3049 C 0.55219 0.75351 0.91681 0.0
C3050 C 0.53568 0.69807 0.91831 0.0
C3051 C 0.53753 0.70676 0.9527 0.0
N3052 N 0.55607 0.74495 0.00316 0.0
N3053 N 0.53574 0.7149 0.86643 0.0
C3054 C 0.55211 0.73783 0.96968 0.0
C3055 C 0.54185 0.72183 0.89994 0.0
N3056 N 0.57564 0.79136 0.96623 0.0
N3057 N 0.52708 0.66716 0.90343 0.0
H3058 H 0.54119 0.73187 0.85262 0.0
H3059 H 0.52485 0.69277 0.85231 0.0
H3060 H 0.52237 0.64962 0.91669 0.0
H3061 H 0.52688 0.65878 0.8787 0.0
H3062 H 0.58381 0.79896 0.99125 0.0
H3063 H 0.58181 0.80842 0.95264 0.0
H3064 H 0.56392 0.76749 0.01737 0.0
H3065 H 0.55101 0.72779 0.01685 0.0
C3066 C 0.15613 0.80351 0.76877 0.0
C3067 C 0.13617 0.7737 0.767 0.0
C3068 C 0.17995 0.75159 0.76429 0.0
C3069 C 0.20093 0.78178 0.77166 0.0
N3070 N 0.20655 0.83768 0.78038 0.0
N3071 N 0.13042 0.71885 0.76463 0.0
C3072 C 0.18827 0.80798 0.77334 0.0
C3073 C 0.14862 0.74779 0.76556 0.0
N3074 N 0.14446 0.82796 0.76577 0.0
N3075 N 0.18927 0.72621 0.75256 0.0
H3076 H 0.10713 0.71373 0.76122 0.0
H3077 H 0.13871 0.70022 0.76872 0.0
H3078 H 0.21085 0.72825 0.74783 0.0
H3079 H 0.17475 0.70406 0.74302 0.0
H3080 H 0.15686 0.84913 0.76191 0.0
H3081 H 0.12174 0.82642 0.7646 0.0
H3082 H 0.19936 0.8573 0.78838 0.0
H3083 H 0.22911 0.84323 0.77925 0.0
C3084 C 0.03109 0.41948 0.44026 0.0
C3085 C 0.058 0.41291 0.43255 0.0
C3086 C 0.08619 0.46403 0.46832 0.0
C3087 C 0.05957 0.46796 0.47992 0.0
N3088 N 1.0065 0.44653 0.47826 0.0
N3089 N 0.11181 0.42835 0.44142 0.0
C3090 C 0.03208 0.44469 0.46642 0.0
C3091 C 0.08577 0.43519 0.44699 0.0
N3092 N 1.00426 0.40226 0.42139 0.0
N3093 N 0.11191 0.48789 0.47744 0.0
H3094 H 0.11212 0.408 0.42552 0.0
H3095 H 0.13286 0.44176 0.45403 0.0
H3096 H 0.11324 0.50889 0.49317 0.0
H3097 H 0.13122 0.48786 0.46742 0.0
H3098 H 0.98411 0.40784 0.42327 0.0
H3099 H 1.00269 0.38451 0.40123 0.0
H3100 H 0.98691 0.42823 0.47263 0.0
H3101 H 1.00522 0.46568 0.49504 0.0
C3102 C 0.4456 0.30536 0.26769 0.0
C3103 C 0.44835 0.27452 0.25847 0.0
C3104 C 0.39607 0.25568 0.27015 0.0
C3105 C 0.39349 0.28676 0.27906 0.0
N3106 N 0.42446 0.33846 0.30332 0.0
N3107 N 0.42424 0.21943 0.2501 0.0
C3108 C 0.42051 0.31099 0.28212 0.0
C3109 C 0.42286 0.24945 0.25924 0.0
N3110 N 0.46673 0.32978 0.26212 0.0
N3111 N 0.37458 0.23235 0.27688 0.0
H3112 H 0.44381 0.21366 0.2456 0.0
H3113 H 0.40577 0.20004 0.24563 0.0
H3114 H 0.35847 0.23739 0.29035 0.0
H3115 H 0.3748 0.20912 0.27361 0.0
H3116 H 0.46426 0.35234 0.26534 0.0
H3117 H 0.4848 0.32685 0.25082 0.0
H3118 H 0.44409 0.35668 0.30809 0.0
H3119 H 0.41129 0.33946 0.32134 0.0
C3120 C 0.62066 0.5652 0.4281 0.0
C3121 C 0.60614 0.5762 0.40294 0.0
C3122 C 0.56027 0.56513 0.42745 0.0
C3123 C 0.57473 0.55282 0.45205 0.0
N3124 N 0.61494 0.52957 0.46469 0.0
N3125 N 0.56675 0.59992 0.38952 0.0
C3126 C 0.60387 0.54952 0.44919 0.0
C3127 C 0.57724 0.58006 0.40572 0.0
N3128 N 0.6511 0.57286 0.43433 0.0
N3129 N 0.52987 0.55994 0.42215 0.0
H3130 H 0.5801 0.61435 0.3771 0.0
H3131 H 0.54699 0.60586 0.39286 0.0
H3132 H 0.51564 0.54407 0.43221 0.0
H3133 H 0.51828 0.56667 0.40316 0.0
H3134 H 0.6632 0.56731 0.45388 0.0
H3135 H 0.66359 0.58981 0.42387 0.0
H3136 H 0.63535 0.52502 0.46156 0.0
H3137 H 0.60178 0.514 0.47619 0.0
C3138 C 0.33979 0.91719 0.10533 0.0
C3139 C 0.32675 0.89706 0.07443 0.0
C3140 C 0.33159 0.85167 0.09611 0.0
C3141 C 0.34925 0.87233 0.12502 0.0
N3142 N 0.36314 0.92302 0.16167 0.0
N3143 N 0.30564 0.84598 0.04057 0.0
C3144 C 0.35081 0.90457 0.13125 0.0
C3145 C 0.32051 0.86436 0.0702 0.0
N3146 N 0.34405 0.94865 0.10865 0.0
N3147 N 0.32551 0.82016 0.0938 0.0
H3148 H 0.29644 0.85528 0.02205 0.0
H3149 H 0.30249 0.82202 0.03409 0.0
H3150 H 0.33315 0.81044 0.11278 0.0
H3151 H 0.31152 0.80357 0.0742 0.0
H3152 H 0.35718 0.96536 0.12872 0.0
H3153 H 0.33481 0.95826 0.09049 0.0
H3154 H 0.36242 0.94597 0.16882 0.0
H3155 H 0.37324 0.91509 0.18072 0.0
C3156 C 0.947 0.50805 0.92254 0.0
C3157 C 0.94781 0.53777 0.91601 0.0
C3158 C 0.99159 0.56226 0.95848 0.0
C3159 C 0.99026 0.5326 0.96593 0.0
N3160 N 0.97215 0.47653 0.95013 0.0
N3161 N 0.96717 0.59376 0.93002 0.0
C3162 C 0.96956 0.5052 0.94648 0.0
C3163 C 0.96892 0.56508 0.93478 0.0
N3164 N 0.92383 0.48288 0.90683 0.0
N3165 N 0.01606 0.58708 0.97159 0.0
H3166 H 0.95122 0.59677 0.91217 0.0
H3167 H 0.97977 0.61466 0.94556 0.0
H3168 H 0.0337 0.58623 0.98872 0.0
H3169 H 0.02039 0.6079 0.96342 0.0
H3170 H 0.92007 0.46099 0.91267 0.0
H3171 H 0.90661 0.48486 0.88992 0.0
H3172 H 0.96028 0.45571 0.934 0.0
H3173 H 0.98728 0.47365 0.96882 0.0
C3174 C 0.28474 0.22647 0.64046 0.0
C3175 C 0.29321 0.24912 0.62127 0.0
C3176 C 0.29924 0.29057 0.67057 0.0
C3177 C 0.28947 0.26765 0.68945 0.0
N3178 N 0.26159 0.2146 0.68671 0.0
N3179 N 0.30175 0.30256 0.6165 0.0
C3180 C 0.27896 0.23584 0.67272 0.0
C3181 C 0.29846 0.28112 0.63593 0.0
N3182 N 0.28341 0.19596 0.62867 0.0
N3183 N 0.3103 0.32138 0.68545 0.0
H3184 H 0.30115 0.29645 0.59126 0.0
H3185 H 0.30208 0.32574 0.62466 0.0
H3186 H 0.31033 0.33029 0.70992 0.0
H3187 H 0.32153 0.3382 0.67394 0.0
H3188 H 0.2803 0.17926 0.64307 0.0
H3189 H 0.2885 0.18791 0.60584 0.0
H3190 H 0.25107 0.19164 0.67447 0.0
H3191 H 0.25419 0.22119 0.70852 0.0
C3192 C 0.58648 0.57779 0.19523 0.0
C3193 C 0.58374 0.54922 0.20572 0.0
C3194 C 0.56264 0.5208 0.14908 0.0
C3195 C 0.56807 0.54922 0.13789 0.0
N3196 N 0.59411 0.60391 0.15038 0.0
N3197 N 0.57717 0.49374 0.19038 0.0
C3198 C 0.58238 0.57756 0.16101 0.0
C3199 C 0.57412 0.52076 0.18199 0.0
N3200 N 0.59226 0.60516 0.21774 0.0
N3201 N 0.54551 0.49379 0.12871 0.0
H3202 H 0.58665 0.49282 0.21384 0.0
H3203 H 0.57344 0.47302 0.17314 0.0
H3204 H 0.53544 0.49326 0.10519 0.0
H3205 H 0.53851 0.4729 0.13639 0.0
H3206 H 0.59144 0.62613 0.21116 0.0
H3207 H 0.59504 0.60638 0.24298 0.0
H3208 H 0.60729 0.62455 0.16599 0.0
H3209 H 0.59376 0.60365 0.12563 0.0
C3210 C 0.29555 0.90294 0.89536 0.0
C3211 C 0.31184 0.90143 0.92551 0.0
C3212 C 0.32122 0.85318 0.89914 0.0
C3213 C 0.30168 0.85285 0.87061 0.0
N3214 N 0.26279 0.87197 0.84581 0.0
N3215 N 0.33043 0.86849 0.95787 0.0
C3216 C 0.28646 0.87606 0.87 0.0
C3217 C 0.32212 0.87473 0.92806 0.0
N3218 N 0.28993 0.93007 0.89011 0.0
N3219 N 0.33887 0.83321 0.8988 0.0
H3220 H 0.32723 0.88121 0.9796 0.0
H3221 H 0.33608 0.84805 0.96048 0.0
H3222 H 0.33863 0.81675 0.87797 0.0
H3223 H 0.35543 0.83489 0.91857 0.0
H3224 H 0.27996 0.93215 0.86733 0.0
H3225 H 0.29843 0.95128 0.90692 0.0
H3226 H 0.24955 0.88744 0.84556 0.0
H3227 H 0.25442 0.85102 0.82867 0.0
C3228 C 0.95185 0.49344 0.75112 0.0
C3229 C 0.94012 0.51913 0.74812 0.0
C3230 C 0.9267 0.49953 0.68901 0.0
C3231 C 0.94431 0.47851 0.69155 0.0
N3232 N 0.97584 0.45661 0.72499 0.0
N3233 N 0.91779 0.54804 0.71393 0.0
C3234 C 0.95723 0.47544 0.72262 0.0
C3235 C 0.92757 0.52243 0.71697 0.0
N3236 N 0.95662 0.48533 0.78077 0.0
N3237 N 0.90955 0.49757 0.65965 0.0
H3238 H 0.91879 0.56581 0.73389 0.0
H3239 H 0.91115 0.55302 0.69136 0.0
H3240 H 0.90794 0.47983 0.63943 0.0
H3241 H 0.8946 0.51093 0.65652 0.0
H3242 H 0.96254 0.46503 0.78336 0.0
H3243 H 0.95135 0.49674 0.80211 0.0
H3244 H 0.98882 0.45678 0.74705 0.0
H3245 H 0.97969 0.44221 0.70467 0.0
C3246 C 0.31139 0.23739 0.41845 0.0
C3247 C 0.29576 0.25 0.442 0.0
C3248 C 0.28254 0.28261 0.40427 0.0
C3249 C 0.30132 0.27253 0.38227 0.0
N3250 N 0.34149 0.2479 0.37686 0.0
N3251 N 0.27046 0.2885 0.45948 0.0
C3252 C 0.31782 0.25189 0.39162 0.0
C3253 C 0.28246 0.2737 0.43548 0.0
N3254 N 0.32 0.21113 0.42141 0.0
N3255 N 0.26383 0.29981 0.39541 0.0
H3256 H 0.26928 0.28194 0.48199 0.0
H3257 H 0.26395 0.30871 0.45812 0.0
H3258 H 0.26241 0.30742 0.37356 0.0
H3259 H 0.24733 0.30422 0.40863 0.0
H3260 H 0.32869 0.19915 0.40313 0.0
H3261 H 0.31547 0.19951 0.44036 0.0
H3262 H 0.35555 0.23496 0.38463 0.0
H3263 H 0.34994 0.26108 0.36042 0.0
C3264 C 0.34535 0.59616 0.51942 0.0
C3265 C 0.34185 0.58856 0.55039 0.0
C3266 C 0.37049 0.5506 0.54023 0.0
C3267 C 0.37536 0.55999 0.51024 0.0
N3268 N 0.37645 0.59908 0.47783 0.0
N3269 N 0.35586 0.56353 0.59343 0.0
C3270 C 0.36594 0.58538 0.50218 0.0
C3271 C 0.35618 0.56749 0.56198 0.0
N3272 N 0.32734 0.61133 0.50482 0.0
N3273 N 0.37777 0.52467 0.54703 0.0
H3274 H 0.34514 0.57552 0.60952 0.0
H3275 H 0.36833 0.55065 0.60429 0.0
H3276 H 0.38741 0.51104 0.53132 0.0
H3277 H 0.37208 0.51522 0.56702 0.0
H3278 H 0.32663 0.61299 0.48032 0.0
H3279 H 0.31081 0.61906 0.51537 0.0
H3280 H 0.37188 0.61944 0.47302 0.0
H3281 H 0.39227 0.59209 0.46501 0.0
C3282 C 0.91766 0.94096 0.52187 0.0
C3283 C 0.90409 0.94855 0.54932 0.0
C3284 C 0.94749 0.99347 0.57281 0.0
C3285 C 0.95992 0.98799 0.54383 0.0
N3286 N 0.95439 0.95813 0.48855 0.0
N3287 N 0.90324 0.98512 0.59821 0.0
C3288 C 0.94435 0.9621 0.51776 0.0
C3289 C 0.9181 0.97582 0.57389 0.0
N3290 N 0.90531 0.9132 0.49996 0.0
N3291 N 0.96456 0.01386 0.60028 0.0
H3292 H 0.88211 0.97226 0.60069 0.0
H3293 H 0.91089 0.00681 0.61433 0.0
H3294 H 0.98693 0.02521 0.6012 0.0
H3295 H 0.95773 0.01672 0.62304 0.0
H3296 H 0.91599 0.90439 0.48164 0.0
H3297 H 0.8853 0.89772 0.50174 0.0
H3298 H 0.94194 0.94244 0.46737 0.0
H3299 H 0.97445 0.97187 0.48463 0.0
C3300 C 0.90632 0.10554 0.26547 0.0
C3301 C 0.89124 0.07518 0.26846 0.0
C3302 C 0.84869 0.09286 0.28393 0.0
C3303 C 0.86633 0.12387 0.28751 0.0
N3304 N 0.90648 0.16022 0.27252 0.0
N3305 N 0.8449 0.03757 0.26711 0.0
C3306 C 0.89321 0.13029 0.27455 0.0
C3307 C 0.86091 0.0681 0.27246 0.0
N3308 N 0.93388 0.11079 0.25637 0.0
N3309 N 0.82151 0.08745 0.294 0.0
H3310 H 0.85438 0.01957 0.25906 0.0
H3311 H 0.82217 0.03022 0.26812 0.0
H3312 H 0.81193 0.10544 0.3016 0.0
H3313 H 0.8088 0.06554 0.29548 0.0
H3314 H 0.94771 0.13273 0.25678 0.0
H3315 H 0.94279 0.09262 0.24764 0.0
H3316 H 0.92576 0.1669 0.26255 0.0
H3317 H 0.89682 0.17836 0.27917 0.0
C3318 C 0.68537 0.06408 0.04434 0.0
C3319 C 0.69431 0.0966 0.04843 0.0
C3320 C 0.65331 0.10044 0.07767 0.0
C3321 C 0.63881 0.0687 0.06277 0.0
N3322 N 0.64333 0.01868 0.03354 0.0
N3323 N 0.69104 0.14685 0.07433 0.0
C3324 C 0.65572 0.04957 0.04758 0.0
C3325 C 0.68003 0.11518 0.06764 0.0
N3326 N 0.70482 0.04739 0.03551 0.0
N3327 N 0.64176 0.11607 0.10143 0.0
H3328 H 0.71137 0.15762 0.06797 0.0
H3329 H 0.67966 0.16202 0.08499 0.0
H3330 H 0.62322 0.10494 0.11056 0.0
H3331 H 0.65244 0.13872 0.11445 0.0
H3332 H 0.70074 0.02357 0.03485 0.0
H3333 H 0.72641 0.0585 0.03246 0.0
H3334 H 0.65433 0.00541 0.01928 0.0
H3335 H 0.62153 0.00625 0.03343 0.0
C3336 C 0.26319 0.48616 0.2554 0.0
C3337 C 0.25575 0.51131 0.27464 0.0
C3338 C 0.27322 0.49638 0.3242 0.0
C3339 C 0.27342 0.46772 0.30555 0.0
N3340 N 0.26817 0.43371 0.25276 0.0
N3341 N 0.23897 0.52665 0.32542 0.0
C3342 C 0.26872 0.46209 0.27077 0.0
C3343 C 0.25763 0.51383 0.30889 0.0
N3344 N 0.26455 0.48513 0.22298 0.0
N3345 N 0.28437 0.50498 0.35699 0.0
H3346 H 0.21988 0.52956 0.31244 0.0
H3347 H 0.23885 0.52765 0.35042 0.0
H3348 H 0.29567 0.49178 0.36908 0.0
H3349 H 0.28466 0.52663 0.37084 0.0
H3350 H 0.272 0.46834 0.20857 0.0
H3351 H 0.26052 0.50258 0.21128 0.0
H3352 H 0.26182 0.42743 0.22734 0.0
H3353 H 0.27243 0.41584 0.2636 0.0
C3354 C 0.22258 0.43583 0.06049 0.0
C3355 C 0.25232 0.44915 0.05639 0.0
C3356 C 0.23542 0.48552 0.02705 0.0
C3357 C 0.20542 0.46902 0.02669 0.0
N3358 N 0.16955 0.42775 0.04156 0.0
N3359 N 0.28708 0.48411 0.0324 0.0
C3360 C 0.19868 0.44419 0.04338 0.0
C3361 C 0.25888 0.47362 0.03913 0.0
N3362 N 0.21735 0.41552 0.08101 0.0
N3363 N 0.24135 0.51252 0.0157 0.0
H3364 H 0.30498 0.47573 0.04027 0.0
H3365 H 0.29221 0.49923 0.0166 0.0
H3366 H 0.22446 0.5218 0.00667 0.0
H3367 H 0.26285 0.52722 0.01816 0.0
H3368 H 0.19655 0.40735 0.0876 0.0
H3369 H 0.23449 0.40884 0.0937 0.0
H3370 H 0.16333 0.40711 0.04984 0.0
H3371 H 0.15145 0.43378 0.02999 0.0
C3372 C 0.89498 0.91632 0.31167 0.0
C3373 C 0.89138 0.93279 0.2866 0.0
C3374 C 0.84782 0.88975 0.25858 0.0
C3375 C 0.84864 0.87654 0.28699 0.0
N3376 N 0.86937 0.88308 0.34412 0.0
N3377 N 0.86257 0.93653 0.23676 0.0
C3378 C 0.87093 0.8918 0.31479 0.0
C3379 C 0.86734 0.91983 0.25998 0.0
N3380 N 0.92214 0.92294 0.33128 0.0
N3381 N 0.82858 0.87377 0.23041 0.0
H3382 H 0.8771 0.95811 0.23679 0.0
H3383 H 0.84342 0.92977 0.21878 0.0
H3384 H 0.81299 0.85261 0.22913 0.0
H3385 H 0.82919 0.88072 0.20809 0.0
H3386 H 0.92628 0.91115 0.34974 0.0
H3387 H 0.94122 0.93698 0.32545 0.0
H3388 H 0.8842 0.89544 0.36559 0.0
H3389 H 0.85188 0.86522 0.34743 0.0
C3390 C 0.77506 0.16116 0.75887 0.0
C3391 C 0.75635 0.15501 0.78222 0.0
C3392 C 0.74618 0.20572 0.78481 0.0
C3393 C 0.76805 0.21338 0.76512 0.0
N3394 N 0.78492 0.19031 0.71705 0.0
N3395 N 0.72372 0.17106 0.81798 0.0
C3396 C 0.7776 0.18893 0.74733 0.0
C3397 C 0.7417 0.17714 0.79531 0.0
N3398 N 0.79032 0.14044 0.74763 0.0
N3399 N 0.72658 0.22322 0.78899 0.0
H3400 H 0.71907 0.14995 0.8254 0.0
H3401 H 0.71501 0.18766 0.83085 0.0
H3402 H 0.72891 0.24388 0.78086 0.0
H3403 H 0.70669 0.2158 0.79779 0.0
H3404 H 0.80649 0.1454 0.73285 0.0
H3405 H 0.78885 0.11962 0.7556 0.0
H3406 H 0.79043 0.17224 0.70227 0.0
H3407 H 0.77984 0.20662 0.70427 0.0
loop_
_geom_bond_atom_site_label_1
_geom_bond_atom_site_label_2
_geom_bond_distance
_geom_bond_site_symmetry_2
_ccdc_geom_bond_type
Mg0 O1 2.028 . S
Mg0 O7 1.986 . S
Mg0 O9 2.114 . S
Mg0 O10 2.251 1_455 S
Mg0 O13 2.010 . S
O1 Mg0 2.028 . S
O1 C4 1.250 . S
O2 Mg3 2.028 1_455 S
O2 C4 1.248 . S
Mg3 O2 2.028 1_655 S
Mg3 O8 2.032 1_655 S
Mg3 O10 2.079 . S
C4 O1 1.250 . S
C4 O2 1.248 . S
C5 O6 1.264 . S
C5 O13 1.249 . S
O6 C5 1.264 . S
O7 Mg0 1.986 . S
O7 C11 1.246 . S
O8 Mg3 2.032 1_455 S
O8 C11 1.259 . S
O9 Mg0 2.114 . S
O9 C12 1.252 1_455 S
O10 Mg0 2.251 1_655 S
O10 Mg3 2.079 . S
O10 C12 1.273 . S
C11 O7 1.246 . S
C11 O8 1.259 . S
C12 O9 1.252 1_655 S
C12 O10 1.273 . S
O13 Mg0 2.010 . S
O13 C5 1.249 . S
Mg14 O15 2.028 . S
Mg14 O21 1.986 . S
Mg14 O23 2.114 . S
Mg14 O24 2.251 1_455 S
Mg14 O27 2.010 . S
O15 Mg14 2.028 . S
O15 C18 1.250 . S
O16 Mg17 2.028 . S
O16 C18 1.248 1_655 S
Mg17 O16 2.028 . S
Mg17 O22 2.032 . S
Mg17 O24 2.079 . S
C18 O15 1.250 . S
C18 O16 1.248 1_455 S
C19 O20 1.264 . S
C19 O27 1.249 . S
O20 C19 1.264 . S
O21 Mg14 1.986 . S
O21 C25 1.246 . S
O22 Mg17 2.032 . S
O22 C25 1.259 1_655 S
O23 Mg14 2.114 . S
O23 C26 1.252 1_455 S
O24 Mg14 2.251 1_655 S
O24 Mg17 2.079 . S
O24 C26 1.273 . S
C25 O21 1.246 . S
C25 O22 1.259 1_455 S
C26 O23 1.252 1_655 S
C26 O24 1.273 . S
O27 Mg14 2.010 . S
O27 C19 1.249 . S
Mg28 O29 2.028 . S
Mg28 O35 1.986 . S
Mg28 O37 2.114 . S
Mg28 O38 2.251 . S
Mg28 O41 2.010 . S
O29 Mg28 2.028 . S
O29 C32 1.250 . S
O30 Mg31 2.028 . S
O30 C32 1.248 . S
Mg31 O30 2.028 . S
Mg31 O36 2.032 . S
Mg31 O38 2.079 . S
C32 O29 1.250 . S
C32 O30 1.248 . S
C33 O34 1.264 . S
C33 O41 1.249 . S
O34 C33 1.264 . S
O35 Mg28 1.986 . S
O35 C39 1.246 . S
O36 Mg31 2.032 . S
O36 C39 1.259 . S
O37 Mg28 2.114 . S
O37 C40 1.252 . S
O38 Mg28 2.251 . S
O38 Mg31 2.079 . S
O38 C40 1.273 . S
C39 O35 1.246 . S
C39 O36 1.259 . S
C40 O37 1.252 . S
C40 O38 1.273 . S
O41 Mg28 2.010 . S
O41 C33 1.249 . S
Mg42 O43 2.028 . S
Mg42 O49 1.986 . S
Mg42 O51 2.114 . S
Mg42 O52 2.251 . S
Mg42 O55 2.010 . S
O43 Mg42 2.028 . S
O43 C46 1.250 . S
O44 Mg45 2.028 . S
O44 C46 1.248 . S
Mg45 O44 2.028 . S
Mg45 O50 2.032 . S
Mg45 O52 2.079 . S
C46 O43 1.250 . S
C46 O44 1.248 . S
C47 O48 1.264 . S
C47 O55 1.249 . S
O48 C47 1.264 . S
O49 Mg42 1.986 . S
O49 C53 1.246 . S
O50 Mg45 2.032 . S
O50 C53 1.259 . S
O51 Mg42 2.114 . S
O51 C54 1.252 . S
O52 Mg42 2.251 . S
O52 Mg45 2.079 . S
O52 C54 1.273 . S
C53 O49 1.246 . S
C53 O50 1.259 . S
C54 O51 1.252 . S
C54 O52 1.273 . S
O55 Mg42 2.010 . S
O55 C47 1.249 . S
Mg56 O57 2.028 . S
Mg56 O63 1.986 . S
Mg56 O65 2.114 . S
Mg56 O66 2.251 . S
Mg56 O69 2.010 . S
O57 Mg56 2.028 . S
O57 C60 1.250 . S
O58 Mg59 2.028 . S
O58 C60 1.248 . S
Mg59 O58 2.028 . S
Mg59 O64 2.032 . S
Mg59 O66 2.079 . S
C60 O57 1.250 . S
C60 O58 1.248 . S
C61 O62 1.264 . S
C61 O69 1.249 . S
O62 C61 1.264 . S
O63 Mg56 1.986 . S
O63 C67 1.246 . S
O64 Mg59 2.032 . S
O64 C67 1.259 . S
O65 Mg56 2.114 . S
O65 C68 1.252 . S
O66 Mg56 2.251 . S
O66 Mg59 2.079 . S
O66 C68 1.273 . S
C67 O63 1.246 . S
C67 O64 1.259 . S
C68 O65 1.252 . S
C68 O66 1.273 . S
O69 Mg56 2.010 . S
O69 C61 1.249 . S
Mg70 O71 2.028 . S
Mg70 O77 1.986 . S
Mg70 O79 2.114 . S
Mg70 O80 2.251 . S
Mg70 O83 2.010 . S
O71 Mg70 2.028 . S
O71 C74 1.250 . S
O72 Mg73 2.028 . S
O72 C74 1.248 . S
Mg73 O72 2.028 . S
Mg73 O78 2.032 . S
Mg73 O80 2.079 . S
C74 O71 1.250 . S
C74 O72 1.248 . S
C75 O76 1.264 . S
C75 O83 1.249 . S
O76 C75 1.264 . S
O77 Mg70 1.986 . S
O77 C81 1.246 . S
O78 Mg73 2.032 . S
O78 C81 1.259 . S
O79 Mg70 2.114 . S
O79 C82 1.252 . S
O80 Mg70 2.251 . S
O80 Mg73 2.079 . S
O80 C82 1.273 . S
C81 O77 1.246 . S
C81 O78 1.259 . S
C82 O79 1.252 . S
C82 O80 1.273 . S
O83 Mg70 2.010 . S
O83 C75 1.249 . S
Mg84 O85 2.028 . S
Mg84 O91 1.986 . S
Mg84 O93 2.114 . S
Mg84 O94 2.251 . S
Mg84 O97 2.010 . S
O85 Mg84 2.028 . S
O85 C88 1.250 . S
O86 Mg87 2.028 . S
O86 C88 1.248 . S
Mg87 O86 2.028 . S
Mg87 O92 2.032 . S
Mg87 O94 2.079 . S
C88 O85 1.250 . S
C88 O86 1.248 . S
C89 O90 1.264 . S
C89 O97 1.249 . S
O90 C89 1.264 . S
O91 Mg84 1.986 . S
O91 C95 1.246 . S
O92 Mg87 2.032 . S
O92 C95 1.259 . S
O93 Mg84 2.114 . S
O93 C96 1.252 . S
O94 Mg84 2.251 . S
O94 Mg87 2.079 . S
O94 C96 1.273 . S
C95 O91 1.246 . S
C95 O92 1.259 . S
C96 O93 1.252 . S
C96 O94 1.273 . S
O97 Mg84 2.010 . S
O97 C89 1.249 . S
Mg98 O99 2.028 1_655 S
Mg98 O105 1.986 1_655 S
Mg98 O107 2.114 . S
Mg98 O108 2.251 . S
Mg98 O111 2.010 1_655 S
O99 Mg98 2.028 1_455 S
O99 C102 1.250 . S
O100 Mg101 2.028 1_554 S
O100 C102 1.248 1_654 S
Mg101 O100 2.028 1_556 S
Mg101 O106 2.032 1_556 S
Mg101 O108 2.079 . S
C102 O99 1.250 . S
C102 O100 1.248 1_456 S
C103 O104 1.264 . S
C103 O111 1.249 . S
O104 C103 1.264 . S
O105 Mg98 1.986 1_455 S
O105 C109 1.246 1_456 S
O106 Mg101 2.032 1_554 S
O106 C109 1.259 . S
O107 Mg98 2.114 . S
O107 C110 1.252 . S
O108 Mg98 2.251 . S
O108 Mg101 2.079 . S
O108 C110 1.273 . S
C109 O105 1.246 1_654 S
C109 O106 1.259 . S
C110 O107 1.252 . S
C110 O108 1.273 . S
O111 Mg98 2.010 1_455 S
O111 C103 1.249 . S
Mg112 O113 2.028 1_545 S
Mg112 O119 1.986 . S
Mg112 O121 2.114 . S
Mg112 O122 2.251 . S
Mg112 O125 2.010 . S
O113 Mg112 2.028 1_565 S
O113 C116 1.250 . S
O114 Mg115 2.028 1_565 S
O114 C116 1.248 . S
Mg115 O114 2.028 1_545 S
Mg115 O120 2.032 . S
Mg115 O122 2.079 . S
C116 O113 1.250 . S
C116 O114 1.248 . S
C117 O118 1.264 . S
C117 O125 1.249 . S
O118 C117 1.264 . S
O119 Mg112 1.986 . S
O119 C123 1.246 . S
O120 Mg115 2.032 . S
O120 C123 1.259 . S
O121 Mg112 2.114 . S
O121 C124 1.252 . S
O122 Mg112 2.251 . S
O122 Mg115 2.079 . S
O122 C124 1.273 . S
C123 O119 1.246 . S
C123 O120 1.259 . S
C124 O121 1.252 . S
C124 O122 1.273 . S
O125 Mg112 2.010 . S
O125 C117 1.249 . S
Mg126 O127 2.028 . S
Mg126 O133 1.986 . S
Mg126 O135 2.114 . S
Mg126 O136 2.251 . S
Mg126 O139 2.010 . S
O127 Mg126 2.028 . S
O127 C130 1.250 . S
O128 Mg129 2.028 . S
O128 C130 1.248 . S
Mg129 O128 2.028 . S
Mg129 O134 2.032 . S
Mg129 O136 2.079 . S
C130 O127 1.250 . S
C130 O128 1.248 . S
C131 O132 1.264 . S
C131 O139 1.249 . S
O132 C131 1.264 . S
O133 Mg126 1.986 . S
O133 C137 1.246 . S
O134 Mg129 2.032 . S
O134 C137 1.259 . S
O135 Mg126 2.114 . S
O135 C138 1.252 . S
O136 Mg126 2.251 . S
O136 Mg129 2.079 . S
O136 C138 1.273 . S
C137 O133 1.246 . S
C137 O134 1.259 . S
C138 O135 1.252 . S
C138 O136 1.273 . S
O139 Mg126 2.010 . S
O139 C131 1.249 . S
Mg140 O141 2.028 . S
Mg140 O147 1.986 . S
Mg140 O149 2.114 . S
Mg140 O150 2.251 . S
Mg140 O153 2.010 . S
O141 Mg140 2.028 . S
O141 C144 1.250 . S
O142 Mg143 2.028 . S
O142 C144 1.248 . S
Mg143 O142 2.028 . S
Mg143 O148 2.032 . S
Mg143 O150 2.079 . S
C144 O141 1.250 . S
C144 O142 1.248 . S
C145 O146 1.264 . S
C145 O153 1.249 . S
O146 C145 1.264 . S
O147 Mg140 1.986 . S
O147 C151 1.246 . S
O148 Mg143 2.032 . S
O148 C151 1.259 . S
O149 Mg140 2.114 . S
O149 C152 1.252 . S
O150 Mg140 2.251 . S
O150 Mg143 2.079 . S
O150 C152 1.273 . S
C151 O147 1.246 . S
C151 O148 1.259 . S
C152 O149 1.252 . S
C152 O150 1.273 . S
O153 Mg140 2.010 . S
O153 C145 1.249 . S
Mg154 O155 2.028 1_554 S
Mg154 O161 1.986 . S
Mg154 O163 2.114 1_554 S
Mg154 O164 2.251 . S
Mg154 O167 2.010 . S
O155 Mg154 2.028 1_556 S
O155 C158 1.250 . S
O156 Mg157 2.028 1_556 S
O156 C158 1.248 . S
Mg157 O156 2.028 1_554 S
Mg157 O162 2.032 . S
Mg157 O164 2.079 . S
C158 O155 1.250 . S
C158 O156 1.248 . S
C159 O160 1.264 1_565 S
C159 O167 1.249 . S
O160 C159 1.264 1_545 S
O161 Mg154 1.986 . S
O161 C165 1.246 . S
O162 Mg157 2.032 . S
O162 C165 1.259 . S
O163 Mg154 2.114 1_556 S
O163 C166 1.252 1_556 S
O164 Mg154 2.251 . S
O164 Mg157 2.079 . S
O164 C166 1.273 . S
C165 O161 1.246 . S
C165 O162 1.259 . S
C166 O163 1.252 1_554 S
C166 O164 1.273 . S
O167 Mg154 2.010 . S
O167 C159 1.249 . S
Mg168 O169 2.028 . S
Mg168 O175 1.986 . S
Mg168 O177 2.114 . S
Mg168 O178 2.251 . S
Mg168 O181 2.010 . S
O169 Mg168 2.028 . S
O169 C172 1.250 . S
O170 Mg171 2.028 . S
O170 C172 1.248 . S
Mg171 O170 2.028 . S
Mg171 O176 2.032 . S
Mg171 O178 2.079 . S
C172 O169 1.250 . S
C172 O170 1.248 . S
C173 O174 1.264 . S
C173 O181 1.249 . S
O174 C173 1.264 . S
O175 Mg168 1.986 . S
O175 C179 1.246 . S
O176 Mg171 2.032 . S
O176 C179 1.259 . S
O177 Mg168 2.114 . S
O177 C180 1.252 . S
O178 Mg168 2.251 . S
O178 Mg171 2.079 . S
O178 C180 1.273 . S
C179 O175 1.246 . S
C179 O176 1.259 . S
C180 O177 1.252 . S
C180 O178 1.273 . S
O181 Mg168 2.010 . S
O181 C173 1.249 . S
Mg182 O183 2.028 . S
Mg182 O189 1.986 . S
Mg182 O191 2.114 . S
Mg182 O192 2.251 . S
Mg182 O195 2.010 . S
O183 Mg182 2.028 . S
O183 C186 1.250 . S
O184 Mg185 2.028 . S
O184 C186 1.248 . S
Mg185 O184 2.028 . S
Mg185 O190 2.032 . S
Mg185 O192 2.079 . S
C186 O183 1.250 . S
C186 O184 1.248 . S
C187 O188 1.264 . S
C187 O195 1.249 . S
O188 C187 1.264 . S
O189 Mg182 1.986 . S
O189 C193 1.246 . S
O190 Mg185 2.032 . S
O190 C193 1.259 . S
O191 Mg182 2.114 . S
O191 C194 1.252 . S
O192 Mg182 2.251 . S
O192 Mg185 2.079 . S
O192 C194 1.273 . S
C193 O189 1.246 . S
C193 O190 1.259 . S
C194 O191 1.252 . S
C194 O192 1.273 . S
O195 Mg182 2.010 . S
O195 C187 1.249 . S
Mg196 O197 2.028 . S
Mg196 O203 1.986 . S
Mg196 O205 2.114 . S
Mg196 O206 2.251 . S
Mg196 O209 2.010 . S
O197 Mg196 2.028 . S
O197 C200 1.250 . S
O198 Mg199 2.028 . S
O198 C200 1.248 . S
Mg199 O198 2.028 . S
Mg199 O204 2.032 . S
Mg199 O206 2.079 . S
C200 O197 1.250 . S
C200 O198 1.248 . S
C201 O202 1.264 . S
C201 O209 1.249 . S
O202 C201 1.264 . S
O203 Mg196 1.986 . S
O203 C207 1.246 . S
O204 Mg199 2.032 . S
O204 C207 1.259 . S
O205 Mg196 2.114 . S
O205 C208 1.252 . S
O206 Mg196 2.251 . S
O206 Mg199 2.079 . S
O206 C208 1.273 . S
C207 O203 1.246 . S
C207 O204 1.259 . S
C208 O205 1.252 . S
C208 O206 1.273 . S
O209 Mg196 2.010 . S
O209 C201 1.249 . S
Mg210 O211 2.028 . S
Mg210 O217 1.986 . S
Mg210 O219 2.114 . S
Mg210 O220 2.251 . S
Mg210 O223 2.010 . S
O211 Mg210 2.028 . S
O211 C214 1.250 . S
O212 Mg213 2.028 . S
O212 C214 1.248 . S
Mg213 O212 2.028 . S
Mg213 O218 2.032 . S
Mg213 O220 2.079 . S
C214 O211 1.250 . S
C214 O212 1.248 . S
C215 O216 1.264 . S
C215 O223 1.249 . S
O216 C215 1.264 . S
O217 Mg210 1.986 . S
O217 C221 1.246 . S
O218 Mg213 2.032 . S
O218 C221 1.259 . S
O219 Mg210 2.114 . S
O219 C222 1.252 . S
O220 Mg210 2.251 . S
O220 Mg213 2.079 . S
O220 C222 1.273 . S
C221 O217 1.246 . S
C221 O218 1.259 . S
C222 O219 1.252 . S
C222 O220 1.273 . S
O223 Mg210 2.010 . S
O223 C215 1.249 . S
Mg224 O225 2.028 1_545 S
Mg224 O231 1.986 . S
Mg224 O233 2.114 . S
Mg224 O234 2.251 . S
Mg224 O237 2.010 . S
O225 Mg224 2.028 1_565 S
O225 C228 1.250 . S
O226 Mg227 2.028 1_565 S
O226 C228 1.248 . S
Mg227 O226 2.028 1_545 S
Mg227 O232 2.032 . S
Mg227 O234 2.079 . S
C228 O225 1.250 . S
C228 O226 1.248 . S
C229 O230 1.264 1_655 S
C229 O237 1.249 . S
O230 C229 1.264 1_455 S
O231 Mg224 1.986 . S
O231 C235 1.246 . S
O232 Mg227 2.032 . S
O232 C235 1.259 . S
O233 Mg224 2.114 . S
O233 C236 1.252 . S
O234 Mg224 2.251 . S
O234 Mg227 2.079 . S
O234 C236 1.273 . S
C235 O231 1.246 . S
C235 O232 1.259 . S
C236 O233 1.252 . S
C236 O234 1.273 . S
O237 Mg224 2.010 . S
O237 C229 1.249 . S
Mg238 O239 2.028 . S
Mg238 O245 1.986 . S
Mg238 O247 2.114 . S
Mg238 O248 2.251 . S
Mg238 O251 2.010 . S
O239 Mg238 2.028 . S
O239 C242 1.250 . S
O240 Mg241 2.028 . S
O240 C242 1.248 . S
Mg241 O240 2.028 . S
Mg241 O246 2.032 . S
Mg241 O248 2.079 . S
C242 O239 1.250 . S
C242 O240 1.248 . S
C243 O244 1.264 . S
C243 O251 1.249 . S
O244 C243 1.264 . S
O245 Mg238 1.986 . S
O245 C249 1.246 . S
O246 Mg241 2.032 . S
O246 C249 1.259 . S
O247 Mg238 2.114 . S
O247 C250 1.252 . S
O248 Mg238 2.251 . S
O248 Mg241 2.079 . S
O248 C250 1.273 . S
C249 O245 1.246 . S
C249 O246 1.259 . S
C250 O247 1.252 . S
C250 O248 1.273 . S
O251 Mg238 2.010 . S
O251 C243 1.249 . S
Mg252 O253 2.028 . S
Mg252 O259 1.986 . S
Mg252 O261 2.114 . S
Mg252 O262 2.251 . S
Mg252 O265 2.010 . S
O253 Mg252 2.028 . S
O253 C256 1.250 . S
O254 Mg255 2.028 . S
O254 C256 1.248 . S
Mg255 O254 2.028 . S
Mg255 O260 2.032 . S
Mg255 O262 2.079 . S
C256 O253 1.250 . S
C256 O254 1.248 . S
C257 O258 1.264 . S
C257 O265 1.249 . S
O258 C257 1.264 . S
O259 Mg252 1.986 . S
O259 C263 1.246 . S
O260 Mg255 2.032 . S
O260 C263 1.259 . S
O261 Mg252 2.114 . S
O261 C264 1.252 . S
O262 Mg252 2.251 . S
O262 Mg255 2.079 . S
O262 C264 1.273 . S
C263 O259 1.246 . S
C263 O260 1.259 . S
C264 O261 1.252 . S
C264 O262 1.273 . S
O265 Mg252 2.010 . S
O265 C257 1.249 . S
Mg266 O267 2.028 . S
Mg266 O273 1.986 . S
Mg266 O275 2.114 . S
Mg266 O276 2.251 . S
Mg266 O279 2.010 . S
O267 Mg266 2.028 . S
O267 C270 1.250 . S
O268 Mg269 2.028 . S
O268 C270 1.248 . S
Mg269 O268 2.028 . S
Mg269 O274 2.032 . S
Mg269 O276 2.079 . S
C270 O267 1.250 . S
C270 O268 1.248 . S
C271 O272 1.264 . S
C271 O279 1.249 . S
O272 C271 1.264 . S
O273 Mg266 1.986 . S
O273 C277 1.246 . S
O274 Mg269 2.032 . S
O274 C277 1.259 . S
O275 Mg266 2.114 . S
O275 C278 1.252 . S
O276 Mg266 2.251 . S
O276 Mg269 2.079 . S
O276 C278 1.273 . S
C277 O273 1.246 . S
C277 O274 1.259 . S
C278 O275 1.252 . S
C278 O276 1.273 . S
O279 Mg266 2.010 . S
O279 C271 1.249 . S
Mg280 O281 2.028 . S
Mg280 O287 1.986 1_554 S
Mg280 O289 2.114 . S
Mg280 O290 2.251 . S
Mg280 O293 2.010 1_554 S
O281 Mg280 2.028 . S
O281 C284 1.250 . S
O282 Mg283 2.028 . S
O282 C284 1.248 . S
Mg283 O282 2.028 . S
Mg283 O288 2.032 1_554 S
Mg283 O290 2.079 . S
C284 O281 1.250 . S
C284 O282 1.248 . S
C285 O286 1.264 1_554 S
C285 O293 1.250 1_554 S
O286 C285 1.264 1_556 S
O287 Mg280 1.986 1_556 S
O287 C291 1.246 . S
O288 Mg283 2.032 1_556 S
O288 C291 1.259 . S
O289 Mg280 2.114 . S
O289 C292 1.252 . S
O290 Mg280 2.251 . S
O290 Mg283 2.079 . S
O290 C292 1.273 . S
C291 O287 1.246 . S
C291 O288 1.259 . S
C292 O289 1.252 . S
C292 O290 1.273 . S
O293 Mg280 2.010 1_556 S
O293 C285 1.250 1_556 S
Mg294 O295 2.028 . S
Mg294 O301 1.986 . S
Mg294 O303 2.114 . S
Mg294 O304 2.251 . S
Mg294 O307 2.010 . S
O295 Mg294 2.028 . S
O295 C298 1.250 . S
O296 Mg297 2.028 . S
O296 C298 1.248 . S
Mg297 O296 2.028 . S
Mg297 O302 2.032 . S
Mg297 O304 2.079 . S
C298 O295 1.250 . S
C298 O296 1.248 . S
C299 O300 1.264 . S
C299 O307 1.249 . S
O300 C299 1.264 . S
O301 Mg294 1.986 . S
O301 C305 1.246 . S
O302 Mg297 2.032 . S
O302 C305 1.259 . S
O303 Mg294 2.114 . S
O303 C306 1.252 . S
O304 Mg294 2.251 . S
O304 Mg297 2.079 . S
O304 C306 1.273 . S
C305 O301 1.246 . S
C305 O302 1.259 . S
C306 O303 1.252 . S
C306 O304 1.273 . S
O307 Mg294 2.010 . S
O307 C299 1.249 . S
Mg308 O309 2.028 . S
Mg308 O315 1.986 . S
Mg308 O317 2.114 . S
Mg308 O318 2.251 . S
Mg308 O321 2.010 . S
O309 Mg308 2.028 . S
O309 C312 1.250 . S
O310 Mg311 2.028 . S
O310 C312 1.248 . S
Mg311 O310 2.028 . S
Mg311 O316 2.032 . S
Mg311 O318 2.079 . S
C312 O309 1.250 . S
C312 O310 1.248 . S
C313 O314 1.264 . S
C313 O321 1.249 . S
O314 C313 1.264 . S
O315 Mg308 1.986 . S
O315 C319 1.246 . S
O316 Mg311 2.032 . S
O316 C319 1.259 . S
O317 Mg308 2.114 . S
O317 C320 1.252 . S
O318 Mg308 2.251 . S
O318 Mg311 2.079 . S
O318 C320 1.273 . S
C319 O315 1.246 . S
C319 O316 1.259 . S
C320 O317 1.252 . S
C320 O318 1.273 . S
O321 Mg308 2.010 . S
O321 C313 1.249 . S
Mg322 O323 2.028 . S
Mg322 O329 1.986 . S
Mg322 O331 2.114 . S
Mg322 O332 2.251 . S
Mg322 O335 2.010 . S
O323 Mg322 2.028 . S
O323 C326 1.250 . S
O324 Mg325 2.028 . S
O324 C326 1.248 . S
Mg325 O324 2.028 . S
Mg325 O330 2.032 . S
Mg325 O332 2.079 . S
C326 O323 1.250 . S
C326 O324 1.248 . S
C327 O328 1.264 . S
C327 O335 1.249 . S
O328 C327 1.264 . S
O329 Mg322 1.986 . S
O329 C333 1.246 . S
O330 Mg325 2.032 . S
O330 C333 1.259 . S
O331 Mg322 2.114 . S
O331 C334 1.252 . S
O332 Mg322 2.251 . S
O332 Mg325 2.079 . S
O332 C334 1.273 . S
C333 O329 1.246 . S
C333 O330 1.259 . S
C334 O331 1.252 . S
C334 O332 1.273 . S
O335 Mg322 2.010 . S
O335 C327 1.249 . S
C336 C338 1.422 . S
C336 C340 1.415 . S
C336 N342 1.369 . S
C337 C338 1.427 . S
C337 C339 1.426 . S
C337 C349 1.407 1_556 S
C338 C336 1.422 . S
C338 C337 1.427 . S
C338 N348 1.359 1_556 S
C339 C337 1.426 . S
C339 C341 1.329 . S
C339 H358 0.930 . S
C340 C336 1.415 . S
C340 C341 1.437 . S
C340 C344 1.413 . S
C341 C339 1.329 . S
C341 C340 1.437 . S
C341 H363 0.929 . S
N342 C336 1.369 . S
N342 C343 1.338 . S
N342 Gd347 2.622 1_566 S
C343 N342 1.338 . S
C343 C345 1.378 . S
C343 H355 0.929 . S
C344 C340 1.413 . S
C344 C345 1.348 . S
C344 H360 0.931 . S
C345 C343 1.378 . S
C345 C344 1.348 . S
C345 H361 0.930 . S
Gd346 N366 2.622 . S
Gd346 N373 2.570 . S
Gd346 O380 2.353 . S
Gd346 O381 2.468 . S
Gd346 O382 2.427 . S
Gd346 O384 2.388 . S
Gd346 O385 2.386 . S
Gd346 O389 2.307 . S
Gd346 C399 2.805 . S
Gd347 N342 2.622 1_544 S
Gd347 N348 2.570 1_545 S
Gd347 O379 2.386 1_645 S
Gd347 O383 2.307 1_655 S
Gd347 O386 2.353 1_655 S
Gd347 O387 2.468 . S
Gd347 O388 2.427 1_554 S
Gd347 O390 2.388 1_654 S
Gd347 C411 2.805 1_554 S
N348 C338 1.359 1_554 S
N348 Gd347 2.570 1_565 S
N348 C350 1.343 . S
C349 C337 1.407 1_554 S
C349 C351 1.321 . S
C349 H357 0.931 . S
C350 N348 1.343 . S
C350 C351 1.390 . S
C350 H352 0.931 . S
C351 C349 1.321 . S
C351 C350 1.390 . S
C351 H353 0.930 . S
H352 C350 0.931 . S
H353 C351 0.930 . S
H354 C377 0.931 1_556 S
H355 C343 0.929 . S
H356 C378 0.930 1_556 S
H357 C349 0.931 . S
H358 C339 0.930 . S
H359 C368 0.929 . S
H360 C344 0.931 . S
H361 C345 0.930 . S
H362 C400 0.930 . S
H363 C341 0.929 . S
H364 C369 0.931 . S
H365 C370 0.930 . S
N366 Gd346 2.622 . S
N366 C367 1.369 . S
N366 C368 1.338 . S
C367 N366 1.369 . S
C367 C371 1.415 . S
C367 C374 1.422 . S
C368 H359 0.929 . S
C368 N366 1.338 . S
C368 C370 1.378 . S
C369 H364 0.931 . S
C369 C370 1.348 . S
C369 C371 1.413 . S
C370 H365 0.930 . S
C370 C368 1.378 . S
C370 C369 1.348 . S
C371 C367 1.415 . S
C371 C369 1.413 . S
C371 C401 1.437 . S
H372 C401 0.929 . S
N373 Gd346 2.570 . S
N373 C374 1.359 . S
N373 C377 1.343 . S
C374 C367 1.422 . S
C374 N373 1.359 . S
C374 C376 1.421 . S
C375 C376 1.422 . S
C375 C378 1.321 . S
C375 H402 0.931 . S
C376 C374 1.421 . S
C376 C375 1.422 . S
C376 C400 1.417 . S
C377 H354 0.931 1_554 S
C377 N373 1.343 . S
C377 C378 1.390 . S
C378 H356 0.930 1_554 S
C378 C375 1.321 . S
C378 C377 1.390 . S
O379 Gd347 2.386 1_465 S
O379 C391 1.265 . S
O380 Gd346 2.353 . S
O380 C391 1.242 1_545 S
O381 Gd346 2.468 . S
O381 C399 1.263 . S
O382 Gd346 2.427 . S
O382 C399 1.252 . S
O383 Gd347 2.307 1_455 S
O383 C392 1.261 . S
O384 Gd346 2.388 . S
O384 C392 1.252 . S
O385 Gd346 2.386 . S
O385 C403 1.265 . S
O386 Gd347 2.353 1_455 S
O386 C403 1.242 . S
O387 Gd347 2.468 . S
O387 C411 1.263 1_554 S
O388 Gd347 2.427 1_556 S
O388 C411 1.252 . S
O389 Gd346 2.307 . S
O389 C404 1.261 1_554 S
O390 Gd347 2.388 1_456 S
O390 C404 1.252 . S
C391 O379 1.265 . S
C391 O380 1.242 1_565 S
C392 O383 1.261 . S
C392 O384 1.252 . S
C393 C396 1.394 . S
C393 C398 1.370 . S
C393 C399 1.500 . S
C394 C397 1.383 . S
C394 C398 1.395 . S
C395 C396 1.396 . S
C395 C397 1.365 . S
C395 H412 0.929 . S
C396 C393 1.394 . S
C396 C395 1.396 . S
C396 H413 0.930 . S
C397 C394 1.383 . S
C397 C395 1.365 . S
C397 H414 0.931 . S
C398 C393 1.370 . S
C398 C394 1.395 . S
C398 H415 0.930 . S
C399 Gd346 2.805 . S
C399 O381 1.263 . S
C399 O382 1.252 . S
C399 C393 1.500 . S
C400 H362 0.930 . S
C400 C376 1.417 . S
C400 C401 1.329 . S
C401 C371 1.437 . S
C401 H372 0.929 . S
C401 C400 1.329 . S
H402 C375 0.931 . S
C403 O385 1.265 . S
C403 O386 1.242 . S
C404 O389 1.261 1_556 S
C404 O390 1.252 . S
C405 C408 1.394 . S
C405 C410 1.370 1_556 S
C405 C411 1.500 . S
C406 C409 1.383 1_554 S
C406 C410 1.395 . S
C407 C408 1.396 . S
C407 C409 1.365 . S
C407 H416 0.929 . S
C408 C405 1.394 . S
C408 C407 1.396 . S
C408 H417 0.930 . S
C409 C406 1.383 1_556 S
C409 C407 1.365 . S
C409 H418 0.931 . S
C410 C405 1.370 1_554 S
C410 C406 1.395 . S
C410 H419 0.930 . S
C411 Gd347 2.805 1_556 S
C411 O387 1.263 1_556 S
C411 O388 1.252 . S
C411 C405 1.500 . S
H412 C395 0.929 . S
H413 C396 0.930 . S
H414 C397 0.931 . S
H415 C398 0.930 . S
H416 C407 0.929 . S
H417 C408 0.930 . S
H418 C409 0.931 . S
H419 C410 0.930 . S
C420 C422 1.422 . S
C420 C424 1.415 . S
C420 N426 1.369 . S
C421 C422 1.421 . S
C421 C423 1.417 . S
C421 C433 1.422 . S
C422 C420 1.422 . S
C422 C421 1.421 . S
C422 N432 1.359 . S
C423 C421 1.417 . S
C423 C425 1.329 . S
C423 H442 0.930 . S
C424 C420 1.415 . S
C424 C425 1.437 . S
C424 C428 1.413 . S
C425 C423 1.329 . S
C425 C424 1.437 . S
C425 H447 0.929 . S
N426 C420 1.369 . S
N426 C427 1.338 . S
N426 Gd431 2.622 . S
C427 N426 1.338 . S
C427 C429 1.378 . S
C427 H439 0.929 . S
C428 C424 1.413 . S
C428 C429 1.348 . S
C428 H444 0.931 . S
C429 C427 1.378 . S
C429 C428 1.348 . S
C429 H445 0.930 . S
Gd430 N450 2.622 . S
Gd430 N457 2.570 . S
Gd430 O464 2.353 . S
Gd430 O465 2.468 . S
Gd430 O466 2.427 . S
Gd430 O468 2.388 . S
Gd430 O469 2.386 . S
Gd430 O473 2.307 . S
Gd430 C483 2.805 . S
Gd431 N426 2.622 . S
Gd431 N432 2.570 . S
Gd431 O463 2.386 . S
Gd431 O467 2.307 . S
Gd431 O470 2.353 . S
Gd431 O471 2.468 . S
Gd431 O472 2.427 . S
Gd431 O474 2.388 . S
Gd431 C495 2.805 . S
N432 C422 1.359 . S
N432 Gd431 2.570 . S
N432 C434 1.343 . S
C433 C421 1.422 . S
C433 C435 1.321 . S
C433 H441 0.931 . S
C434 N432 1.343 . S
C434 C435 1.390 . S
C434 H436 0.931 . S
C435 C433 1.321 . S
C435 C434 1.390 . S
C435 H437 0.930 . S
H436 C434 0.931 . S
H437 C435 0.930 . S
H438 C461 0.931 . S
H439 C427 0.929 . S
H440 C462 0.930 . S
H441 C433 0.931 . S
H442 C423 0.930 . S
H443 C452 0.929 . S
H444 C428 0.931 . S
H445 C429 0.930 . S
H446 C484 0.930 . S
H447 C425 0.929 . S
H448 C453 0.931 . S
H449 C454 0.930 . S
N450 Gd430 2.622 . S
N450 C451 1.369 . S
N450 C452 1.338 . S
C451 N450 1.369 . S
C451 C455 1.415 . S
C451 C458 1.422 . S
C452 H443 0.929 . S
C452 N450 1.338 . S
C452 C454 1.378 . S
C453 H448 0.931 . S
C453 C454 1.348 . S
C453 C455 1.413 . S
C454 H449 0.930 . S
C454 C452 1.378 . S
C454 C453 1.348 . S
C455 C451 1.415 . S
C455 C453 1.413 . S
C455 C485 1.437 . S
H456 C485 0.929 . S
N457 Gd430 2.570 . S
N457 C458 1.359 . S
N457 C461 1.343 . S
C458 C451 1.422 . S
C458 N457 1.359 . S
C458 C460 1.421 . S
C459 C460 1.422 . S
C459 C462 1.321 . S
C459 H486 0.931 . S
C460 C458 1.421 . S
C460 C459 1.422 . S
C460 C484 1.417 . S
C461 H438 0.931 . S
C461 N457 1.343 . S
C461 C462 1.390 . S
C462 H440 0.930 . S
C462 C459 1.321 . S
C462 C461 1.390 . S
O463 Gd431 2.386 . S
O463 C475 1.265 . S
O464 Gd430 2.353 . S
O464 C475 1.242 . S
O465 Gd430 2.468 . S
O465 C483 1.263 . S
O466 Gd430 2.427 . S
O466 C483 1.252 . S
O467 Gd431 2.307 . S
O467 C476 1.261 . S
O468 Gd430 2.388 . S
O468 C476 1.252 . S
O469 Gd430 2.386 . S
O469 C487 1.265 . S
O470 Gd431 2.353 . S
O470 C487 1.242 . S
O471 Gd431 2.468 . S
O471 C495 1.263 . S
O472 Gd431 2.427 . S
O472 C495 1.252 . S
O473 Gd430 2.307 . S
O473 C488 1.261 . S
O474 Gd431 2.388 . S
O474 C488 1.252 . S
C475 O463 1.265 . S
C475 O464 1.242 . S
C476 O467 1.261 . S
C476 O468 1.252 . S
C477 C480 1.394 . S
C477 C482 1.370 . S
C477 C483 1.500 . S
C478 C481 1.383 . S
C478 C482 1.395 . S
C479 C480 1.396 . S
C479 C481 1.365 . S
C479 H496 0.929 . S
C480 C477 1.394 . S
C480 C479 1.396 . S
C480 H497 0.930 . S
C481 C478 1.383 . S
C481 C479 1.365 . S
C481 H498 0.931 . S
C482 C477 1.370 . S
C482 C478 1.395 . S
C482 H499 0.930 . S
C483 Gd430 2.805 . S
C483 O465 1.263 . S
C483 O466 1.252 . S
C483 C477 1.500 . S
C484 H446 0.930 . S
C484 C460 1.417 . S
C484 C485 1.329 . S
C485 C455 1.437 . S
C485 H456 0.929 . S
C485 C484 1.329 . S
H486 C459 0.931 . S
C487 O469 1.265 . S
C487 O470 1.242 . S
C488 O473 1.261 . S
C488 O474 1.252 . S
C489 C492 1.394 . S
C489 C494 1.370 . S
C489 C495 1.500 . S
C490 C493 1.383 . S
C490 C494 1.395 . S
C491 C492 1.396 . S
C491 C493 1.365 . S
C491 H500 0.929 . S
C492 C489 1.394 . S
C492 C491 1.396 . S
C492 H501 0.930 . S
C493 C490 1.383 . S
C493 C491 1.365 . S
C493 H502 0.931 . S
C494 C489 1.370 . S
C494 C490 1.395 . S
C494 H503 0.930 . S
C495 Gd431 2.805 . S
C495 O471 1.263 . S
C495 O472 1.252 . S
C495 C489 1.500 . S
H496 C479 0.929 . S
H497 C480 0.930 . S
H498 C481 0.931 . S
H499 C482 0.930 . S
H500 C491 0.929 . S
H501 C492 0.930 . S
H502 C493 0.931 . S
H503 C494 0.930 . S
C504 C506 1.422 . S
C504 C508 1.415 . S
C504 N510 1.369 . S
C505 C506 1.421 . S
C505 C507 1.417 . S
C505 C517 1.422 . S
C506 C504 1.422 . S
C506 C505 1.421 . S
C506 N516 1.359 . S
C507 C505 1.417 . S
C507 C509 1.329 . S
C507 H526 0.930 . S
C508 C504 1.415 . S
C508 C509 1.437 . S
C508 C512 1.413 . S
C509 C507 1.329 . S
C509 C508 1.437 . S
C509 H531 0.929 . S
N510 C504 1.369 . S
N510 C511 1.338 . S
N510 Gd515 2.622 . S
C511 N510 1.338 . S
C511 C513 1.378 . S
C511 H523 0.929 . S
C512 C508 1.413 . S
C512 C513 1.348 . S
C512 H528 0.931 . S
C513 C511 1.378 . S
C513 C512 1.348 . S
C513 H529 0.930 . S
Gd514 N534 2.622 . S
Gd514 N541 2.570 1_545 S
Gd514 O548 2.353 . S
Gd514 O549 2.468 . S
Gd514 O550 2.427 . S
Gd514 O552 2.388 . S
Gd514 O553 2.386 1_545 S
Gd514 O557 2.307 . S
Gd514 C567 2.805 . S
Gd515 N510 2.622 . S
Gd515 N516 2.570 . S
Gd515 O547 2.386 . S
Gd515 O551 2.307 . S
Gd515 O554 2.353 1_545 S
Gd515 O555 2.468 . S
Gd515 O556 2.427 . S
Gd515 O558 2.388 . S
Gd515 C579 2.805 . S
N516 C506 1.359 . S
N516 Gd515 2.570 . S
N516 C518 1.343 . S
C517 C505 1.422 . S
C517 C519 1.321 . S
C517 H525 0.931 . S
C518 N516 1.343 . S
C518 C519 1.390 . S
C518 H520 0.931 . S
C519 C517 1.321 . S
C519 C518 1.390 . S
C519 H521 0.930 . S
H520 C518 0.931 . S
H521 C519 0.930 . S
H522 C545 0.931 . S
H523 C511 0.929 . S
H524 C546 0.930 . S
H525 C517 0.931 . S
H526 C507 0.930 . S
H527 C536 0.929 . S
H528 C512 0.931 . S
H529 C513 0.930 . S
H530 C568 0.930 . S
H531 C509 0.929 . S
H532 C537 0.931 . S
H533 C538 0.930 1_545 S
N534 Gd514 2.622 . S
N534 C535 1.369 1_545 S
N534 C536 1.338 . S
C535 N534 1.369 1_565 S
C535 C539 1.415 . S
C535 C542 1.422 . S
C536 H527 0.929 . S
C536 N534 1.338 . S
C536 C538 1.378 1_545 S
C537 H532 0.931 . S
C537 C538 1.348 . S
C537 C539 1.413 . S
C538 H533 0.930 1_565 S
C538 C536 1.378 1_565 S
C538 C537 1.348 . S
C539 C535 1.415 . S
C539 C537 1.413 . S
C539 C569 1.437 . S
H540 C569 0.929 . S
N541 Gd514 2.570 1_565 S
N541 C542 1.359 . S
N541 C545 1.343 . S
C542 C535 1.422 . S
C542 N541 1.359 . S
C542 C544 1.421 . S
C543 C544 1.422 . S
C543 C546 1.321 . S
C543 H570 0.931 . S
C544 C542 1.421 . S
C544 C543 1.422 . S
C544 C568 1.417 . S
C545 H522 0.931 . S
C545 N541 1.343 . S
C545 C546 1.390 . S
C546 H524 0.930 . S
C546 C543 1.321 . S
C546 C545 1.390 . S
O547 Gd515 2.386 . S
O547 C559 1.265 . S
O548 Gd514 2.353 . S
O548 C559 1.242 . S
O549 Gd514 2.468 . S
O549 C567 1.263 . S
O550 Gd514 2.427 . S
O550 C567 1.252 . S
O551 Gd515 2.307 . S
O551 C560 1.261 . S
O552 Gd514 2.388 . S
O552 C560 1.252 . S
O553 Gd514 2.386 1_565 S
O553 C571 1.265 . S
O554 Gd515 2.353 1_565 S
O554 C571 1.242 . S
O555 Gd515 2.468 . S
O555 C579 1.263 . S
O556 Gd515 2.427 . S
O556 C579 1.252 . S
O557 Gd514 2.307 . S
O557 C572 1.261 . S
O558 Gd515 2.388 . S
O558 C572 1.252 . S
C559 O547 1.265 . S
C559 O548 1.242 . S
C560 O551 1.261 . S
C560 O552 1.252 . S
C561 C564 1.394 . S
C561 C566 1.370 . S
C561 C567 1.500 . S
C562 C565 1.383 . S
C562 C566 1.395 . S
C563 C564 1.396 . S
C563 C565 1.365 . S
C563 H580 0.929 . S
C564 C561 1.394 . S
C564 C563 1.396 . S
C564 H581 0.930 . S
C565 C562 1.383 . S
C565 C563 1.365 . S
C565 H582 0.931 . S
C566 C561 1.370 . S
C566 C562 1.395 . S
C566 H583 0.930 . S
C567 Gd514 2.805 . S
C567 O549 1.263 . S
C567 O550 1.252 . S
C567 C561 1.500 . S
C568 H530 0.930 . S
C568 C544 1.417 . S
C568 C569 1.329 . S
C569 C539 1.437 . S
C569 H540 0.929 . S
C569 C568 1.329 . S
H570 C543 0.931 . S
C571 O553 1.265 . S
C571 O554 1.242 . S
C572 O557 1.261 . S
C572 O558 1.252 . S
C573 C576 1.394 . S
C573 C578 1.370 . S
C573 C579 1.500 1_565 S
C574 C577 1.383 . S
C574 C578 1.395 . S
C575 C576 1.396 . S
C575 C577 1.365 . S
C575 H584 0.929 . S
C576 C573 1.394 . S
C576 C575 1.396 . S
C576 H585 0.930 . S
C577 C574 1.383 . S
C577 C575 1.365 . S
C577 H586 0.931 . S
C578 C573 1.370 . S
C578 C574 1.395 . S
C578 H587 0.930 . S
C579 Gd515 2.805 . S
C579 O555 1.263 . S
C579 O556 1.252 . S
C579 C573 1.500 1_545 S
H580 C563 0.929 . S
H581 C564 0.930 . S
H582 C565 0.931 . S
H583 C566 0.930 . S
H584 C575 0.929 . S
H585 C576 0.930 . S
H586 C577 0.931 . S
H587 C578 0.930 . S
C588 C590 1.422 . S
C588 C592 1.415 . S
C588 N594 1.369 . S
C589 C590 1.421 . S
C589 C591 1.417 . S
C589 C601 1.422 . S
C590 C588 1.422 . S
C590 C589 1.421 . S
C590 N600 1.359 . S
C591 C589 1.417 . S
C591 C593 1.329 . S
C591 H610 0.930 . S
C592 C588 1.415 . S
C592 C593 1.437 . S
C592 C596 1.413 . S
C593 C591 1.329 . S
C593 C592 1.437 . S
C593 H615 0.929 . S
N594 C588 1.369 . S
N594 C595 1.338 . S
N594 Gd599 2.622 . S
C595 N594 1.338 . S
C595 C597 1.378 . S
C595 H607 0.929 . S
C596 C592 1.413 . S
C596 C597 1.348 . S
C596 H612 0.931 . S
C597 C595 1.378 . S
C597 C596 1.348 . S
C597 H613 0.930 . S
Gd598 N618 2.622 . S
Gd598 N625 2.570 . S
Gd598 O632 2.353 . S
Gd598 O633 2.468 . S
Gd598 O634 2.427 . S
Gd598 O636 2.388 . S
Gd598 O637 2.386 . S
Gd598 O641 2.307 . S
Gd598 C651 2.805 . S
Gd599 N594 2.622 . S
Gd599 N600 2.570 . S
Gd599 O631 2.386 . S
Gd599 O635 2.307 . S
Gd599 O638 2.353 . S
Gd599 O639 2.468 . S
Gd599 O640 2.427 . S
Gd599 O642 2.388 . S
Gd599 C663 2.805 . S
N600 C590 1.359 . S
N600 Gd599 2.570 . S
N600 C602 1.343 . S
C601 C589 1.422 . S
C601 C603 1.321 . S
C601 H609 0.931 . S
C602 N600 1.343 . S
C602 C603 1.390 . S
C602 H604 0.931 . S
C603 C601 1.321 . S
C603 C602 1.390 . S
C603 H605 0.930 . S
H604 C602 0.931 . S
H605 C603 0.930 . S
H606 C629 0.931 . S
H607 C595 0.929 . S
H608 C630 0.930 . S
H609 C601 0.931 . S
H610 C591 0.930 . S
H611 C620 0.929 . S
H612 C596 0.931 . S
H613 C597 0.930 . S
H614 C652 0.930 . S
H615 C593 0.929 . S
H616 C621 0.931 . S
H617 C622 0.930 . S
N618 Gd598 2.622 . S
N618 C619 1.369 . S
N618 C620 1.338 . S
C619 N618 1.369 . S
C619 C623 1.415 . S
C619 C626 1.422 . S
C620 H611 0.929 . S
C620 N618 1.338 . S
C620 C622 1.378 . S
C621 H616 0.931 . S
C621 C622 1.348 . S
C621 C623 1.413 . S
C622 H617 0.930 . S
C622 C620 1.378 . S
C622 C621 1.348 . S
C623 C619 1.415 . S
C623 C621 1.413 . S
C623 C653 1.437 . S
H624 C653 0.929 . S
N625 Gd598 2.570 . S
N625 C626 1.359 . S
N625 C629 1.343 . S
C626 C619 1.422 . S
C626 N625 1.359 . S
C626 C628 1.421 . S
C627 C628 1.422 . S
C627 C630 1.321 . S
C627 H654 0.931 . S
C628 C626 1.421 . S
C628 C627 1.422 . S
C628 C652 1.417 . S
C629 H606 0.931 . S
C629 N625 1.343 . S
C629 C630 1.390 . S
C630 H608 0.930 . S
C630 C627 1.321 . S
C630 C629 1.390 . S
O631 Gd599 2.386 . S
O631 C643 1.265 . S
O632 Gd598 2.353 . S
O632 C643 1.242 . S
O633 Gd598 2.468 . S
O633 C651 1.263 . S
O634 Gd598 2.427 . S
O634 C651 1.252 . S
O635 Gd599 2.307 . S
O635 C644 1.261 . S
O636 Gd598 2.388 . S
O636 C644 1.252 . S
O637 Gd598 2.386 . S
O637 C655 1.265 . S
O638 Gd599 2.353 . S
O638 C655 1.242 . S
O639 Gd599 2.468 . S
O639 C663 1.263 . S
O640 Gd599 2.427 . S
O640 C663 1.252 . S
O641 Gd598 2.307 . S
O641 C656 1.261 . S
O642 Gd599 2.388 . S
O642 C656 1.252 . S
C643 O631 1.265 . S
C643 O632 1.242 . S
C644 O635 1.261 . S
C644 O636 1.252 . S
C645 C648 1.394 . S
C645 C650 1.370 . S
C645 C651 1.500 . S
C646 C649 1.383 . S
C646 C650 1.395 . S
C647 C648 1.396 . S
C647 C649 1.365 . S
C647 H664 0.929 . S
C648 C645 1.394 . S
C648 C647 1.396 . S
C648 H665 0.930 . S
C649 C646 1.383 . S
C649 C647 1.365 . S
C649 H666 0.931 . S
C650 C645 1.370 . S
C650 C646 1.395 . S
C650 H667 0.930 . S
C651 Gd598 2.805 . S
C651 O633 1.263 . S
C651 O634 1.252 . S
C651 C645 1.500 . S
C652 H614 0.930 . S
C652 C628 1.417 . S
C652 C653 1.329 . S
C653 C623 1.437 . S
C653 H624 0.929 . S
C653 C652 1.329 . S
H654 C627 0.931 . S
C655 O637 1.265 . S
C655 O638 1.242 . S
C656 O641 1.261 . S
C656 O642 1.252 . S
C657 C660 1.394 . S
C657 C662 1.370 . S
C657 C663 1.500 . S
C658 C661 1.383 . S
C658 C662 1.395 . S
C659 C660 1.396 . S
C659 C661 1.365 . S
C659 H668 0.929 . S
C660 C657 1.394 . S
C660 C659 1.396 . S
C660 H669 0.930 . S
C661 C658 1.383 . S
C661 C659 1.365 . S
C661 H670 0.931 . S
C662 C657 1.370 . S
C662 C658 1.395 . S
C662 H671 0.930 . S
C663 Gd599 2.805 . S
C663 O639 1.263 . S
C663 O640 1.252 . S
C663 C657 1.500 . S
H664 C647 0.929 . S
H665 C648 0.930 . S
H666 C649 0.931 . S
H667 C650 0.930 . S
H668 C659 0.929 . S
H669 C660 0.930 . S
H670 C661 0.931 . S
H671 C662 0.930 . S
C672 C674 1.422 . S
C672 C676 1.415 1_455 S
C672 N678 1.369 1_455 S
C673 C674 1.421 . S
C673 C675 1.417 . S
C673 C685 1.422 . S
C674 C672 1.422 . S
C674 C673 1.421 . S
C674 N684 1.359 . S
C675 C673 1.417 . S
C675 C677 1.329 . S
C675 H694 0.930 . S
C676 C672 1.415 1_655 S
C676 C677 1.437 1_655 S
C676 C680 1.413 . S
C677 C675 1.329 . S
C677 C676 1.437 1_455 S
C677 H699 0.929 1_455 S
N678 C672 1.369 1_655 S
N678 C679 1.338 . S
N678 Gd683 2.622 1_655 S
C679 N678 1.338 . S
C679 C681 1.378 . S
C679 H691 0.929 . S
C680 C676 1.413 . S
C680 C681 1.348 . S
C680 H696 0.931 . S
C681 C679 1.378 . S
C681 C680 1.348 . S
C681 H697 0.930 . S
Gd682 N702 2.622 . S
Gd682 N709 2.570 . S
Gd682 O716 2.353 1_565 S
Gd682 O717 2.468 . S
Gd682 O718 2.427 . S
Gd682 O720 2.388 1_565 S
Gd682 O721 2.386 1_565 S
Gd682 O725 2.309 1_465 S
Gd682 C735 2.805 . S
Gd683 N678 2.622 1_455 S
Gd683 N684 2.570 . S
Gd683 O715 2.386 . S
Gd683 O719 2.307 . S
Gd683 O722 2.353 . S
Gd683 O723 2.468 . S
Gd683 O724 2.427 1_455 S
Gd683 O726 2.388 1_455 S
Gd683 C747 2.805 . S
N684 C674 1.359 . S
N684 Gd683 2.570 . S
N684 C686 1.343 . S
C685 C673 1.422 . S
C685 C687 1.321 . S
C685 H693 0.931 . S
C686 N684 1.343 . S
C686 C687 1.390 . S
C686 H688 0.931 . S
C687 C685 1.321 . S
C687 C686 1.390 . S
C687 H689 0.930 . S
H688 C686 0.931 . S
H689 C687 0.930 . S
H690 C713 0.931 . S
H691 C679 0.929 . S
H692 C714 0.930 . S
H693 C685 0.931 . S
H694 C675 0.930 . S
H695 C704 0.929 1_545 S
H696 C680 0.931 . S
H697 C681 0.930 . S
H698 C736 0.930 . S
H699 C677 0.929 1_655 S
H700 C705 0.931 . S
H701 C706 0.930 . S
N702 Gd682 2.622 . S
N702 C703 1.369 . S
N702 C704 1.338 . S
C703 N702 1.369 . S
C703 C707 1.415 . S
C703 C710 1.422 . S
C704 H695 0.929 1_565 S
C704 N702 1.338 . S
C704 C706 1.378 . S
C705 H700 0.931 . S
C705 C706 1.348 . S
C705 C707 1.413 . S
C706 H701 0.930 . S
C706 C704 1.378 . S
C706 C705 1.348 . S
C707 C703 1.415 . S
C707 C705 1.413 . S
C707 C737 1.437 . S
H708 C737 0.929 . S
N709 Gd682 2.570 . S
N709 C710 1.359 . S
N709 C713 1.343 1_455 S
C710 C703 1.422 . S
C710 N709 1.359 . S
C710 C712 1.421 . S
C711 C712 1.422 1_655 S
C711 C714 1.321 . S
C711 H738 0.931 . S
C712 C710 1.421 . S
C712 C711 1.422 1_455 S
C712 C736 1.417 . S
C713 H690 0.931 . S
C713 N709 1.343 1_655 S
C713 C714 1.390 . S
C714 H692 0.930 . S
C714 C711 1.321 . S
C714 C713 1.390 . S
O715 Gd683 2.386 . S
O715 C727 1.265 . S
O716 Gd682 2.353 1_545 S
O716 C727 1.242 . S
O717 Gd682 2.468 . S
O717 C735 1.263 . S
O718 Gd682 2.427 . S
O718 C735 1.252 . S
O719 Gd683 2.307 . S
O719 C728 1.261 . S
O720 Gd682 2.388 1_545 S
O720 C728 1.252 . S
O721 Gd682 2.386 1_545 S
O721 C739 1.265 . S
O722 Gd683 2.353 . S
O722 C739 1.242 . S
O723 Gd683 2.468 . S
O723 C747 1.263 . S
O724 Gd683 2.427 1_655 S
O724 C747 1.252 1_655 S
O725 Gd682 2.309 1_645 S
O725 C740 1.259 . S
O726 Gd683 2.388 1_655 S
O726 C740 1.252 . S
C727 O715 1.265 . S
C727 O716 1.242 . S
C728 O719 1.261 . S
C728 O720 1.252 . S
C729 C732 1.394 . S
C729 C734 1.370 . S
C729 C735 1.500 . S
C730 C733 1.383 . S
C730 C734 1.395 . S
C731 C732 1.396 . S
C731 C733 1.365 . S
C731 H748 0.929 . S
C732 C729 1.394 . S
C732 C731 1.396 . S
C732 H749 0.930 . S
C733 C730 1.383 . S
C733 C731 1.365 . S
C733 H750 0.931 . S
C734 C729 1.370 . S
C734 C730 1.395 . S
C734 H751 0.930 . S
C735 Gd682 2.805 . S
C735 O717 1.263 . S
C735 O718 1.252 . S
C735 C729 1.500 . S
C736 H698 0.930 . S
C736 C712 1.417 . S
C736 C737 1.329 . S
C737 C707 1.437 . S
C737 H708 0.929 . S
C737 C736 1.329 . S
H738 C711 0.931 . S
C739 O721 1.265 . S
C739 O722 1.242 . S
C740 O725 1.259 . S
C740 O726 1.252 . S
C741 C744 1.394 1_455 S
C741 C746 1.370 . S
C741 C747 1.500 . S
C742 C745 1.383 1_455 S
C742 C746 1.395 . S
C743 C744 1.396 . S
C743 C745 1.365 . S
C743 H752 0.929 . S
C744 C741 1.394 1_655 S
C744 C743 1.396 . S
C744 H753 0.930 . S
C745 C742 1.383 1_655 S
C745 C743 1.365 . S
C745 H754 0.931 . S
C746 C741 1.370 . S
C746 C742 1.395 . S
C746 H755 0.930 . S
C747 Gd683 2.805 . S
C747 O723 1.263 . S
C747 O724 1.252 1_455 S
C747 C741 1.500 . S
H748 C731 0.929 . S
H749 C732 0.930 . S
H750 C733 0.931 . S
H751 C734 0.930 . S
H752 C743 0.929 . S
H753 C744 0.930 . S
H754 C745 0.931 . S
H755 C746 0.930 . S
C756 C758 1.422 . S
C756 C760 1.415 . S
C756 N762 1.369 . S
C757 C758 1.421 . S
C757 C759 1.417 . S
C757 C769 1.422 . S
C758 C756 1.422 . S
C758 C757 1.421 . S
C758 N768 1.359 . S
C759 C757 1.417 . S
C759 C761 1.329 . S
C759 H778 0.930 . S
C760 C756 1.415 . S
C760 C761 1.437 . S
C760 C764 1.413 . S
C761 C759 1.329 . S
C761 C760 1.437 . S
C761 H783 0.929 . S
N762 C756 1.369 . S
N762 C763 1.338 . S
N762 Gd767 2.622 . S
C763 N762 1.338 . S
C763 C765 1.378 . S
C763 H775 0.929 . S
C764 C760 1.413 . S
C764 C765 1.348 . S
C764 H780 0.931 . S
C765 C763 1.378 . S
C765 C764 1.348 . S
C765 H781 0.930 . S
Gd766 N786 2.622 . S
Gd766 N793 2.570 . S
Gd766 O800 2.353 . S
Gd766 O801 2.468 . S
Gd766 O802 2.427 . S
Gd766 O804 2.388 . S
Gd766 O805 2.386 . S
Gd766 O809 2.307 . S
Gd766 C819 2.805 . S
Gd767 N762 2.622 . S
Gd767 N768 2.570 . S
Gd767 O799 2.386 . S
Gd767 O803 2.307 . S
Gd767 O806 2.353 . S
Gd767 O807 2.468 . S
Gd767 O808 2.427 . S
Gd767 O810 2.388 . S
Gd767 C831 2.805 . S
N768 C758 1.359 . S
N768 Gd767 2.570 . S
N768 C770 1.343 . S
C769 C757 1.422 . S
C769 C771 1.321 . S
C769 H777 0.931 . S
C770 N768 1.343 . S
C770 C771 1.390 . S
C770 H772 0.931 . S
C771 C769 1.321 . S
C771 C770 1.390 . S
C771 H773 0.930 . S
H772 C770 0.931 . S
H773 C771 0.930 . S
H774 C797 0.931 . S
H775 C763 0.929 . S
H776 C798 0.930 . S
H777 C769 0.931 . S
H778 C759 0.930 . S
H779 C788 0.929 . S
H780 C764 0.931 . S
H781 C765 0.930 . S
H782 C820 0.930 . S
H783 C761 0.929 . S
H784 C789 0.931 . S
H785 C790 0.930 . S
N786 Gd766 2.622 . S
N786 C787 1.369 . S
N786 C788 1.338 . S
C787 N786 1.369 . S
C787 C791 1.415 . S
C787 C794 1.422 . S
C788 H779 0.929 . S
C788 N786 1.338 . S
C788 C790 1.378 . S
C789 H784 0.931 . S
C789 C790 1.348 . S
C789 C791 1.413 . S
C790 H785 0.930 . S
C790 C788 1.378 . S
C790 C789 1.348 . S
C791 C787 1.415 . S
C791 C789 1.413 . S
C791 C821 1.437 . S
H792 C821 0.929 . S
N793 Gd766 2.570 . S
N793 C794 1.359 . S
N793 C797 1.343 . S
C794 C787 1.422 . S
C794 N793 1.359 . S
C794 C796 1.421 . S
C795 C796 1.422 . S
C795 C798 1.321 . S
C795 H822 0.931 . S
C796 C794 1.421 . S
C796 C795 1.422 . S
C796 C820 1.417 . S
C797 H774 0.931 . S
C797 N793 1.343 . S
C797 C798 1.390 . S
C798 H776 0.930 . S
C798 C795 1.321 . S
C798 C797 1.390 . S
O799 Gd767 2.386 . S
O799 C811 1.265 . S
O800 Gd766 2.353 . S
O800 C811 1.242 . S
O801 Gd766 2.468 . S
O801 C819 1.263 . S
O802 Gd766 2.427 . S
O802 C819 1.252 . S
O803 Gd767 2.307 . S
O803 C812 1.261 . S
O804 Gd766 2.388 . S
O804 C812 1.252 . S
O805 Gd766 2.386 . S
O805 C823 1.265 . S
O806 Gd767 2.353 . S
O806 C823 1.242 . S
O807 Gd767 2.468 . S
O807 C831 1.263 . S
O808 Gd767 2.427 . S
O808 C831 1.252 . S
O809 Gd766 2.307 . S
O809 C824 1.261 . S
O810 Gd767 2.388 . S
O810 C824 1.252 . S
C811 O799 1.265 . S
C811 O800 1.242 . S
C812 O803 1.261 . S
C812 O804 1.252 . S
C813 C816 1.394 . S
C813 C818 1.370 . S
C813 C819 1.500 . S
C814 C817 1.383 . S
C814 C818 1.395 . S
C815 C816 1.396 . S
C815 C817 1.365 . S
C815 H832 0.929 . S
C816 C813 1.394 . S
C816 C815 1.396 . S
C816 H833 0.930 . S
C817 C814 1.383 . S
C817 C815 1.365 . S
C817 H834 0.931 . S
C818 C813 1.370 . S
C818 C814 1.395 . S
C818 H835 0.930 . S
C819 Gd766 2.805 . S
C819 O801 1.263 . S
C819 O802 1.252 . S
C819 C813 1.500 . S
C820 H782 0.930 . S
C820 C796 1.417 . S
C820 C821 1.329 . S
C821 C791 1.437 . S
C821 H792 0.929 . S
C821 C820 1.329 . S
H822 C795 0.931 . S
C823 O805 1.265 . S
C823 O806 1.242 . S
C824 O809 1.261 . S
C824 O810 1.252 . S
C825 C828 1.394 . S
C825 C830 1.370 . S
C825 C831 1.500 . S
C826 C829 1.383 . S
C826 C830 1.395 . S
C827 C828 1.396 . S
C827 C829 1.365 . S
C827 H836 0.929 . S
C828 C825 1.394 . S
C828 C827 1.396 . S
C828 H837 0.930 . S
C829 C826 1.383 . S
C829 C827 1.365 . S
C829 H838 0.931 . S
C830 C825 1.370 . S
C830 C826 1.395 . S
C830 H839 0.930 . S
C831 Gd767 2.805 . S
C831 O807 1.263 . S
C831 O808 1.252 . S
C831 C825 1.500 . S
H832 C815 0.929 . S
H833 C816 0.930 . S
H834 C817 0.931 . S
H835 C818 0.930 . S
H836 C827 0.929 . S
H837 C828 0.930 . S
H838 C829 0.931 . S
H839 C830 0.930 . S
C840 C842 1.422 1_565 S
C840 C844 1.415 . S
C840 N846 1.369 . S
C841 C842 1.421 . S
C841 C843 1.417 . S
C841 C853 1.422 . S
C842 C840 1.422 1_545 S
C842 C841 1.421 . S
C842 N852 1.359 . S
C843 C841 1.417 . S
C843 C845 1.329 1_545 S
C843 H862 0.930 . S
C844 C840 1.415 . S
C844 C845 1.437 . S
C844 C848 1.413 . S
C845 C843 1.329 1_565 S
C845 C844 1.437 . S
C845 H867 0.929 . S
N846 C840 1.369 . S
N846 C847 1.338 . S
N846 Gd851 2.622 1_565 S
C847 N846 1.338 . S
C847 C849 1.378 . S
C847 H859 0.929 . S
C848 C844 1.413 . S
C848 C849 1.348 . S
C848 H864 0.931 . S
C849 C847 1.378 . S
C849 C848 1.348 . S
C849 H865 0.930 . S
Gd850 N870 2.622 . S
Gd850 N877 2.570 . S
Gd850 O884 2.353 1_556 S
Gd850 O885 2.468 . S
Gd850 O886 2.427 . S
Gd850 O888 2.388 1_556 S
Gd850 O889 2.386 1_556 S
Gd850 O893 2.307 . S
Gd850 C903 2.805 . S
Gd851 N846 2.622 1_545 S
Gd851 N852 2.570 . S
Gd851 O883 2.386 . S
Gd851 O887 2.307 . S
Gd851 O890 2.353 . S
Gd851 O891 2.468 . S
Gd851 O892 2.427 1_545 S
Gd851 O894 2.388 1_545 S
Gd851 C915 2.805 1_545 S
N852 C842 1.359 . S
N852 Gd851 2.570 . S
N852 C854 1.343 . S
C853 C841 1.422 . S
C853 C855 1.321 . S
C853 H861 0.931 . S
C854 N852 1.343 . S
C854 C855 1.390 . S
C854 H856 0.931 . S
C855 C853 1.321 . S
C855 C854 1.390 . S
C855 H857 0.930 . S
H856 C854 0.931 . S
H857 C855 0.930 . S
H858 C881 0.931 1_565 S
H859 C847 0.929 . S
H860 C882 0.930 . S
H861 C853 0.931 . S
H862 C843 0.930 . S
H863 C872 0.929 1_554 S
H864 C848 0.931 . S
H865 C849 0.930 . S
H866 C904 0.930 . S
H867 C845 0.929 . S
H868 C873 0.931 . S
H869 C874 0.930 1_554 S
N870 Gd850 2.622 . S
N870 C871 1.369 . S
N870 C872 1.338 . S
C871 N870 1.369 . S
C871 C875 1.415 . S
C871 C878 1.422 . S
C872 H863 0.929 1_556 S
C872 N870 1.338 . S
C872 C874 1.378 . S
C873 H868 0.931 . S
C873 C874 1.348 . S
C873 C875 1.413 . S
C874 H869 0.930 1_556 S
C874 C872 1.378 . S
C874 C873 1.348 . S
C875 C871 1.415 . S
C875 C873 1.413 . S
C875 C905 1.437 . S
H876 C905 0.929 . S
N877 Gd850 2.570 . S
N877 C878 1.359 . S
N877 C881 1.343 . S
C878 C871 1.422 . S
C878 N877 1.359 . S
C878 C880 1.421 . S
C879 C880 1.422 . S
C879 C882 1.321 1_545 S
C879 H906 0.931 1_545 S
C880 C878 1.421 . S
C880 C879 1.422 . S
C880 C904 1.417 . S
C881 H858 0.931 1_545 S
C881 N877 1.343 . S
C881 C882 1.390 1_545 S
C882 H860 0.930 . S
C882 C879 1.321 1_565 S
C882 C881 1.390 1_565 S
O883 Gd851 2.386 . S
O883 C895 1.265 . S
O884 Gd850 2.353 1_554 S
O884 C895 1.242 . S
O885 Gd850 2.468 . S
O885 C903 1.263 . S
O886 Gd850 2.427 . S
O886 C903 1.252 . S
O887 Gd851 2.307 . S
O887 C896 1.261 . S
O888 Gd850 2.388 1_554 S
O888 C896 1.252 . S
O889 Gd850 2.386 1_554 S
O889 C907 1.265 . S
O890 Gd851 2.353 . S
O890 C907 1.242 . S
O891 Gd851 2.468 . S
O891 C915 1.263 1_545 S
O892 Gd851 2.427 1_565 S
O892 C915 1.252 . S
O893 Gd850 2.307 . S
O893 C908 1.251 1_546 S
O894 Gd851 2.388 1_565 S
O894 C908 1.282 . S
C895 O883 1.265 . S
C895 O884 1.242 . S
C896 O887 1.261 . S
C896 O888 1.252 . S
C897 C900 1.394 . S
C897 C902 1.370 . S
C897 C903 1.500 . S
C898 C901 1.383 . S
C898 C902 1.395 . S
C899 C900 1.396 . S
C899 C901 1.365 . S
C899 H916 0.929 . S
C900 C897 1.394 . S
C900 C899 1.396 . S
C900 H917 0.930 . S
C901 C898 1.383 . S
C901 C899 1.365 . S
C901 H918 0.931 . S
C902 C897 1.370 . S
C902 C898 1.395 . S
C902 H919 0.930 . S
C903 Gd850 2.805 . S
C903 O885 1.263 . S
C903 O886 1.252 . S
C903 C897 1.500 . S
C904 H866 0.930 . S
C904 C880 1.417 . S
C904 C905 1.329 . S
C905 C875 1.437 . S
C905 H876 0.929 . S
C905 C904 1.329 . S
H906 C879 0.931 1_565 S
C907 O889 1.265 . S
C907 O890 1.242 . S
C908 O893 1.251 1_564 S
C908 O894 1.282 . S
C909 C912 1.394 . S
C909 C914 1.370 1_565 S
C909 C915 1.500 . S
C910 C913 1.383 . S
C910 C914 1.395 1_565 S
C911 C912 1.396 . S
C911 C913 1.365 . S
C911 H920 0.929 . S
C912 C909 1.394 . S
C912 C911 1.396 . S
C912 H921 0.930 . S
C913 C910 1.383 . S
C913 C911 1.365 . S
C913 H922 0.931 . S
C914 C909 1.370 1_545 S
C914 C910 1.395 1_545 S
C914 H923 0.930 . S
C915 Gd851 2.805 1_565 S
C915 O891 1.263 1_565 S
C915 O892 1.252 . S
C915 C909 1.500 . S
H916 C899 0.929 . S
H917 C900 0.930 . S
H918 C901 0.931 . S
H919 C902 0.930 . S
H920 C911 0.929 . S
H921 C912 0.930 . S
H922 C913 0.931 . S
H923 C914 0.930 . S
C924 C926 1.422 . S
C924 C928 1.415 . S
C924 N930 1.369 . S
C925 C926 1.421 . S
C925 C927 1.417 . S
C925 C937 1.422 . S
C926 C924 1.422 . S
C926 C925 1.421 . S
C926 N936 1.359 . S
C927 C925 1.417 . S
C927 C929 1.329 . S
C927 H946 0.930 . S
C928 C924 1.415 . S
C928 C929 1.437 . S
C928 C932 1.413 . S
C929 C927 1.329 . S
C929 C928 1.437 . S
C929 H951 0.929 . S
N930 C924 1.369 . S
N930 C931 1.338 . S
N930 Gd935 2.622 . S
C931 N930 1.338 . S
C931 C933 1.378 . S
C931 H943 0.929 . S
C932 C928 1.413 . S
C932 C933 1.348 . S
C932 H948 0.931 . S
C933 C931 1.378 . S
C933 C932 1.348 . S
C933 H949 0.930 . S
Gd934 N954 2.622 . S
Gd934 N961 2.570 . S
Gd934 O968 2.353 . S
Gd934 O969 2.468 . S
Gd934 O970 2.427 . S
Gd934 O972 2.388 . S
Gd934 O973 2.386 . S
Gd934 O977 2.307 . S
Gd934 C987 2.805 . S
Gd935 N930 2.622 . S
Gd935 N936 2.570 . S
Gd935 O967 2.386 . S
Gd935 O971 2.307 . S
Gd935 O974 2.353 . S
Gd935 O975 2.468 . S
Gd935 O976 2.427 . S
Gd935 O978 2.388 . S
Gd935 C999 2.805 . S
N936 C926 1.359 . S
N936 Gd935 2.570 . S
N936 C938 1.343 . S
C937 C925 1.422 . S
C937 C939 1.321 . S
C937 H945 0.931 . S
C938 N936 1.343 . S
C938 C939 1.390 . S
C938 H940 0.931 . S
C939 C937 1.321 . S
C939 C938 1.390 . S
C939 H941 0.930 . S
H940 C938 0.931 . S
H941 C939 0.930 . S
H942 C965 0.931 . S
H943 C931 0.929 . S
H944 C966 0.930 . S
H945 C937 0.931 . S
H946 C927 0.930 . S
H947 C956 0.929 . S
H948 C932 0.931 . S
H949 C933 0.930 . S
H950 C988 0.930 . S
H951 C929 0.929 . S
H952 C957 0.931 . S
H953 C958 0.930 . S
N954 Gd934 2.622 . S
N954 C955 1.369 . S
N954 C956 1.338 . S
C955 N954 1.369 . S
C955 C959 1.415 . S
C955 C962 1.422 . S
C956 H947 0.929 . S
C956 N954 1.338 . S
C956 C958 1.378 . S
C957 H952 0.931 . S
C957 C958 1.348 . S
C957 C959 1.413 . S
C958 H953 0.930 . S
C958 C956 1.378 . S
C958 C957 1.348 . S
C959 C955 1.415 . S
C959 C957 1.413 . S
C959 C989 1.437 . S
H960 C989 0.929 . S
N961 Gd934 2.570 . S
N961 C962 1.359 . S
N961 C965 1.343 . S
C962 C955 1.422 . S
C962 N961 1.359 . S
C962 C964 1.421 . S
C963 C964 1.422 . S
C963 C966 1.321 . S
C963 H990 0.931 . S
C964 C962 1.421 . S
C964 C963 1.422 . S
C964 C988 1.417 . S
C965 H942 0.931 . S
C965 N961 1.343 . S
C965 C966 1.390 . S
C966 H944 0.930 . S
C966 C963 1.321 . S
C966 C965 1.390 . S
O967 Gd935 2.386 . S
O967 C979 1.265 . S
O968 Gd934 2.353 . S
O968 C979 1.242 . S
O969 Gd934 2.468 . S
O969 C987 1.263 . S
O970 Gd934 2.427 . S
O970 C987 1.252 . S
O971 Gd935 2.307 . S
O971 C980 1.261 . S
O972 Gd934 2.388 . S
O972 C980 1.252 . S
O973 Gd934 2.386 . S
O973 C991 1.265 . S
O974 Gd935 2.353 . S
O974 C991 1.242 . S
O975 Gd935 2.468 . S
O975 C999 1.263 . S
O976 Gd935 2.427 . S
O976 C999 1.252 . S
O977 Gd934 2.307 . S
O977 C992 1.261 . S
O978 Gd935 2.388 . S
O978 C992 1.252 . S
C979 O967 1.265 . S
C979 O968 1.242 . S
C980 O971 1.261 . S
C980 O972 1.252 . S
C981 C984 1.394 . S
C981 C986 1.370 . S
C981 C987 1.500 . S
C982 C985 1.383 . S
C982 C986 1.395 . S
C983 C984 1.396 . S
C983 C985 1.365 . S
C983 H1000 0.929 . S
C984 C981 1.394 . S
C984 C983 1.396 . S
C984 H1001 0.930 . S
C985 C982 1.383 . S
C985 C983 1.365 . S
C985 H1002 0.931 . S
C986 C981 1.370 . S
C986 C982 1.395 . S
C986 H1003 0.930 . S
C987 Gd934 2.805 . S
C987 O969 1.263 . S
C987 O970 1.252 . S
C987 C981 1.500 . S
C988 H950 0.930 . S
C988 C964 1.417 . S
C988 C989 1.329 . S
C989 C959 1.437 . S
C989 H960 0.929 . S
C989 C988 1.329 . S
H990 C963 0.931 . S
C991 O973 1.265 . S
C991 O974 1.242 . S
C992 O977 1.261 . S
C992 O978 1.252 . S
C993 C996 1.394 . S
C993 C998 1.370 . S
C993 C999 1.500 . S
C994 C997 1.383 . S
C994 C998 1.395 . S
C995 C996 1.396 . S
C995 C997 1.365 . S
C995 H1004 0.929 . S
C996 C993 1.394 . S
C996 C995 1.396 . S
C996 H1005 0.930 . S
C997 C994 1.383 . S
C997 C995 1.365 . S
C997 H1006 0.931 . S
C998 C993 1.370 . S
C998 C994 1.395 . S
C998 H1007 0.930 . S
C999 Gd935 2.805 . S
C999 O975 1.263 . S
C999 O976 1.252 . S
C999 C993 1.500 . S
H1000 C983 0.929 . S
H1001 C984 0.930 . S
H1002 C985 0.931 . S
H1003 C986 0.930 . S
H1004 C995 0.929 . S
H1005 C996 0.930 . S
H1006 C997 0.931 . S
H1007 C998 0.930 . S
C1008 C1010 1.422 . S
C1008 C1012 1.415 . S
C1008 N1014 1.369 . S
C1009 C1010 1.421 . S
C1009 C1011 1.417 . S
C1009 C1021 1.422 . S
C1010 C1008 1.422 . S
C1010 C1009 1.421 . S
C1010 N1020 1.359 . S
C1011 C1009 1.417 . S
C1011 C1013 1.329 . S
C1011 H1030 0.930 . S
C1012 C1008 1.415 . S
C1012 C1013 1.437 . S
C1012 C1016 1.413 . S
C1013 C1011 1.329 . S
C1013 C1012 1.437 . S
C1013 H1035 0.929 . S
N1014 C1008 1.369 . S
N1014 C1015 1.338 . S
N1014 Gd1019 2.622 . S
C1015 N1014 1.338 . S
C1015 C1017 1.378 . S
C1015 H1027 0.929 . S
C1016 C1012 1.413 . S
C1016 C1017 1.348 . S
C1016 H1032 0.931 . S
C1017 C1015 1.378 . S
C1017 C1016 1.348 . S
C1017 H1033 0.930 . S
Gd1018 N1038 2.622 1_554 S
Gd1018 N1045 2.570 1_554 S
Gd1018 O1052 2.353 . S
Gd1018 O1053 2.468 . S
Gd1018 O1054 2.427 . S
Gd1018 O1056 2.388 . S
Gd1018 O1057 2.386 1_554 S
Gd1018 O1061 2.307 . S
Gd1018 C1071 2.805 . S
Gd1019 N1014 2.622 . S
Gd1019 N1020 2.570 . S
Gd1019 O1051 2.386 . S
Gd1019 O1055 2.307 . S
Gd1019 O1058 2.353 1_554 S
Gd1019 O1059 2.468 . S
Gd1019 O1060 2.427 . S
Gd1019 O1062 2.388 . S
Gd1019 C1083 2.805 . S
N1020 C1010 1.359 . S
N1020 Gd1019 2.570 . S
N1020 C1022 1.343 . S
C1021 C1009 1.422 . S
C1021 C1023 1.321 . S
C1021 H1029 0.931 . S
C1022 N1020 1.343 . S
C1022 C1023 1.390 . S
C1022 H1024 0.931 . S
C1023 C1021 1.321 . S
C1023 C1022 1.390 . S
C1023 H1025 0.930 . S
H1024 C1022 0.931 . S
H1025 C1023 0.930 . S
H1026 C1049 0.931 . S
H1027 C1015 0.929 . S
H1028 C1050 0.930 . S
H1029 C1021 0.931 . S
H1030 C1011 0.930 . S
H1031 C1040 0.929 1_554 S
H1032 C1016 0.931 . S
H1033 C1017 0.930 . S
H1034 C1072 0.930 . S
H1035 C1013 0.929 . S
H1036 C1041 0.931 . S
H1037 C1042 0.930 . S
N1038 Gd1018 2.622 1_556 S
N1038 C1039 1.369 . S
N1038 C1040 1.338 . S
C1039 N1038 1.369 . S
C1039 C1043 1.415 . S
C1039 C1046 1.422 . S
C1040 H1031 0.929 1_556 S
C1040 N1038 1.338 . S
C1040 C1042 1.378 . S
C1041 H1036 0.931 . S
C1041 C1042 1.348 . S
C1041 C1043 1.413 . S
C1042 H1037 0.930 . S
C1042 C1040 1.378 . S
C1042 C1041 1.348 . S
C1043 C1039 1.415 . S
C1043 C1041 1.413 . S
C1043 C1073 1.437 . S
H1044 C1073 0.929 . S
N1045 Gd1018 2.570 1_556 S
N1045 C1046 1.359 . S
N1045 C1049 1.343 . S
C1046 C1039 1.422 . S
C1046 N1045 1.359 . S
C1046 C1048 1.421 . S
C1047 C1048 1.422 . S
C1047 C1050 1.321 . S
C1047 H1074 0.931 . S
C1048 C1046 1.421 . S
C1048 C1047 1.422 . S
C1048 C1072 1.417 . S
C1049 H1026 0.931 . S
C1049 N1045 1.343 . S
C1049 C1050 1.390 . S
C1050 H1028 0.930 . S
C1050 C1047 1.321 . S
C1050 C1049 1.390 . S
O1051 Gd1019 2.386 . S
O1051 C1063 1.265 . S
O1052 Gd1018 2.353 . S
O1052 C1063 1.242 . S
O1053 Gd1018 2.468 . S
O1053 C1071 1.263 . S
O1054 Gd1018 2.427 . S
O1054 C1071 1.252 . S
O1055 Gd1019 2.307 . S
O1055 C1064 1.261 . S
O1056 Gd1018 2.388 . S
O1056 C1064 1.252 . S
O1057 Gd1018 2.386 1_556 S
O1057 C1075 1.265 . S
O1058 Gd1019 2.353 1_556 S
O1058 C1075 1.242 . S
O1059 Gd1019 2.468 . S
O1059 C1083 1.263 . S
O1060 Gd1019 2.427 . S
O1060 C1083 1.252 . S
O1061 Gd1018 2.307 . S
O1061 C1076 1.261 . S
O1062 Gd1019 2.388 . S
O1062 C1076 1.252 . S
C1063 O1051 1.265 . S
C1063 O1052 1.242 . S
C1064 O1055 1.261 . S
C1064 O1056 1.252 . S
C1065 C1068 1.394 . S
C1065 C1070 1.370 . S
C1065 C1071 1.500 . S
C1066 C1069 1.383 . S
C1066 C1070 1.395 . S
C1067 C1068 1.396 . S
C1067 C1069 1.365 . S
C1067 H1084 0.929 . S
C1068 C1065 1.394 . S
C1068 C1067 1.396 . S
C1068 H1085 0.930 . S
C1069 C1066 1.383 . S
C1069 C1067 1.365 . S
C1069 H1086 0.931 . S
C1070 C1065 1.370 . S
C1070 C1066 1.395 . S
C1070 H1087 0.930 . S
C1071 Gd1018 2.805 . S
C1071 O1053 1.263 . S
C1071 O1054 1.252 . S
C1071 C1065 1.500 . S
C1072 H1034 0.930 . S
C1072 C1048 1.417 . S
C1072 C1073 1.329 . S
C1073 C1043 1.437 . S
C1073 H1044 0.929 . S
C1073 C1072 1.329 . S
H1074 C1047 0.931 . S
C1075 O1057 1.265 . S
C1075 O1058 1.242 . S
C1076 O1061 1.261 . S
C1076 O1062 1.252 . S
C1077 C1080 1.394 . S
C1077 C1082 1.370 . S
C1077 C1083 1.500 1_556 S
C1078 C1081 1.383 . S
C1078 C1082 1.395 . S
C1079 C1080 1.396 . S
C1079 C1081 1.365 . S
C1079 H1088 0.929 . S
C1080 C1077 1.394 . S
C1080 C1079 1.396 . S
C1080 H1089 0.930 . S
C1081 C1078 1.383 . S
C1081 C1079 1.365 . S
C1081 H1090 0.931 . S
C1082 C1077 1.370 . S
C1082 C1078 1.395 . S
C1082 H1091 0.930 . S
C1083 Gd1019 2.805 . S
C1083 O1059 1.263 . S
C1083 O1060 1.252 . S
C1083 C1077 1.500 1_554 S
H1084 C1067 0.929 . S
H1085 C1068 0.930 . S
H1086 C1069 0.931 . S
H1087 C1070 0.930 . S
H1088 C1079 0.929 . S
H1089 C1080 0.930 . S
H1090 C1081 0.931 . S
H1091 C1082 0.930 . S
C1092 C1094 1.422 . S
C1092 C1096 1.415 . S
C1092 N1098 1.369 . S
C1093 C1094 1.421 . S
C1093 C1095 1.417 . S
C1093 C1105 1.422 . S
C1094 C1092 1.422 . S
C1094 C1093 1.421 . S
C1094 N1104 1.359 . S
C1095 C1093 1.417 . S
C1095 C1097 1.329 . S
C1095 H1114 0.930 . S
C1096 C1092 1.415 . S
C1096 C1097 1.437 . S
C1096 C1100 1.413 . S
C1097 C1095 1.329 . S
C1097 C1096 1.437 . S
C1097 H1119 0.929 . S
N1098 C1092 1.369 . S
N1098 C1099 1.338 . S
N1098 Gd1103 2.622 . S
C1099 N1098 1.338 . S
C1099 C1101 1.378 . S
C1099 H1111 0.929 . S
C1100 C1096 1.413 . S
C1100 C1101 1.348 . S
C1100 H1116 0.931 . S
C1101 C1099 1.378 . S
C1101 C1100 1.348 . S
C1101 H1117 0.930 . S
Gd1102 N1122 2.622 . S
Gd1102 N1129 2.570 . S
Gd1102 O1136 2.353 . S
Gd1102 O1137 2.468 . S
Gd1102 O1138 2.427 . S
Gd1102 O1140 2.388 . S
Gd1102 O1141 2.386 . S
Gd1102 O1145 2.307 . S
Gd1102 C1155 2.805 . S
Gd1103 N1098 2.622 . S
Gd1103 N1104 2.570 . S
Gd1103 O1135 2.386 . S
Gd1103 O1139 2.307 . S
Gd1103 O1142 2.353 . S
Gd1103 O1143 2.468 . S
Gd1103 O1144 2.427 . S
Gd1103 O1146 2.388 . S
Gd1103 C1167 2.805 . S
N1104 C1094 1.359 . S
N1104 Gd1103 2.570 . S
N1104 C1106 1.343 . S
C1105 C1093 1.422 . S
C1105 C1107 1.321 . S
C1105 H1113 0.931 . S
C1106 N1104 1.343 . S
C1106 C1107 1.390 . S
C1106 H1108 0.931 . S
C1107 C1105 1.321 . S
C1107 C1106 1.390 . S
C1107 H1109 0.930 . S
H1108 C1106 0.931 . S
H1109 C1107 0.930 . S
H1110 C1133 0.931 . S
H1111 C1099 0.929 . S
H1112 C1134 0.930 . S
H1113 C1105 0.931 . S
H1114 C1095 0.930 . S
H1115 C1124 0.929 . S
H1116 C1100 0.931 . S
H1117 C1101 0.930 . S
H1118 C1156 0.930 . S
H1119 C1097 0.929 . S
H1120 C1125 0.931 . S
H1121 C1126 0.930 . S
N1122 Gd1102 2.622 . S
N1122 C1123 1.369 . S
N1122 C1124 1.338 . S
C1123 N1122 1.369 . S
C1123 C1127 1.415 . S
C1123 C1130 1.422 . S
C1124 H1115 0.929 . S
C1124 N1122 1.338 . S
C1124 C1126 1.378 . S
C1125 H1120 0.931 . S
C1125 C1126 1.348 . S
C1125 C1127 1.413 . S
C1126 H1121 0.930 . S
C1126 C1124 1.378 . S
C1126 C1125 1.348 . S
C1127 C1123 1.415 . S
C1127 C1125 1.413 . S
C1127 C1157 1.437 . S
H1128 C1157 0.929 . S
N1129 Gd1102 2.570 . S
N1129 C1130 1.359 . S
N1129 C1133 1.343 . S
C1130 C1123 1.422 . S
C1130 N1129 1.359 . S
C1130 C1132 1.421 . S
C1131 C1132 1.422 . S
C1131 C1134 1.321 . S
C1131 H1158 0.931 . S
C1132 C1130 1.421 . S
C1132 C1131 1.422 . S
C1132 C1156 1.417 . S
C1133 H1110 0.931 . S
C1133 N1129 1.343 . S
C1133 C1134 1.390 . S
C1134 H1112 0.930 . S
C1134 C1131 1.321 . S
C1134 C1133 1.390 . S
O1135 Gd1103 2.386 . S
O1135 C1147 1.265 . S
O1136 Gd1102 2.353 . S
O1136 C1147 1.242 . S
O1137 Gd1102 2.468 . S
O1137 C1155 1.263 . S
O1138 Gd1102 2.427 . S
O1138 C1155 1.252 . S
O1139 Gd1103 2.307 . S
O1139 C1148 1.261 . S
O1140 Gd1102 2.388 . S
O1140 C1148 1.252 . S
O1141 Gd1102 2.386 . S
O1141 C1159 1.265 . S
O1142 Gd1103 2.353 . S
O1142 C1159 1.242 . S
O1143 Gd1103 2.468 . S
O1143 C1167 1.263 . S
O1144 Gd1103 2.427 . S
O1144 C1167 1.252 . S
O1145 Gd1102 2.307 . S
O1145 C1160 1.261 . S
O1146 Gd1103 2.388 . S
O1146 C1160 1.252 . S
C1147 O1135 1.265 . S
C1147 O1136 1.242 . S
C1148 O1139 1.261 . S
C1148 O1140 1.252 . S
C1149 C1152 1.394 . S
C1149 C1154 1.370 . S
C1149 C1155 1.500 . S
C1150 C1153 1.383 . S
C1150 C1154 1.395 . S
C1151 C1152 1.396 . S
C1151 C1153 1.365 . S
C1151 H1168 0.929 . S
C1152 C1149 1.394 . S
C1152 C1151 1.396 . S
C1152 H1169 0.930 . S
C1153 C1150 1.383 . S
C1153 C1151 1.365 . S
C1153 H1170 0.931 . S
C1154 C1149 1.370 . S
C1154 C1150 1.395 . S
C1154 H1171 0.930 . S
C1155 Gd1102 2.805 . S
C1155 O1137 1.263 . S
C1155 O1138 1.252 . S
C1155 C1149 1.500 . S
C1156 H1118 0.930 . S
C1156 C1132 1.417 . S
C1156 C1157 1.329 . S
C1157 C1127 1.437 . S
C1157 H1128 0.929 . S
C1157 C1156 1.329 . S
H1158 C1131 0.931 . S
C1159 O1141 1.265 . S
C1159 O1142 1.242 . S
C1160 O1145 1.261 . S
C1160 O1146 1.252 . S
C1161 C1164 1.394 . S
C1161 C1166 1.370 . S
C1161 C1167 1.500 . S
C1162 C1165 1.383 . S
C1162 C1166 1.395 . S
C1163 C1164 1.396 . S
C1163 C1165 1.365 . S
C1163 H1172 0.929 . S
C1164 C1161 1.394 . S
C1164 C1163 1.396 . S
C1164 H1173 0.930 . S
C1165 C1162 1.383 . S
C1165 C1163 1.365 . S
C1165 H1174 0.931 . S
C1166 C1161 1.370 . S
C1166 C1162 1.395 . S
C1166 H1175 0.930 . S
C1167 Gd1103 2.805 . S
C1167 O1143 1.263 . S
C1167 O1144 1.252 . S
C1167 C1161 1.500 . S
H1168 C1151 0.929 . S
H1169 C1152 0.930 . S
H1170 C1153 0.931 . S
H1171 C1154 0.930 . S
H1172 C1163 0.929 . S
H1173 C1164 0.930 . S
H1174 C1165 0.931 . S
H1175 C1166 0.930 . S
C1176 C1178 1.422 . S
C1176 C1180 1.415 . S
C1176 N1182 1.369 . S
C1177 C1178 1.421 . S
C1177 C1179 1.417 . S
C1177 C1189 1.422 . S
C1178 C1176 1.422 . S
C1178 C1177 1.421 . S
C1178 N1188 1.359 . S
C1179 C1177 1.417 . S
C1179 C1181 1.329 . S
C1179 H1198 0.930 . S
C1180 C1176 1.415 . S
C1180 C1181 1.437 . S
C1180 C1184 1.413 . S
C1181 C1179 1.329 . S
C1181 C1180 1.437 . S
C1181 H1203 0.929 . S
N1182 C1176 1.369 . S
N1182 C1183 1.338 . S
N1182 Gd1187 2.622 . S
C1183 N1182 1.338 . S
C1183 C1185 1.378 . S
C1183 H1195 0.929 . S
C1184 C1180 1.413 . S
C1184 C1185 1.348 . S
C1184 H1200 0.931 . S
C1185 C1183 1.378 . S
C1185 C1184 1.348 . S
C1185 H1201 0.930 . S
Gd1186 N1206 2.638 . S
Gd1186 N1213 2.570 1_455 S
Gd1186 O1220 2.353 . S
Gd1186 O1221 2.468 . S
Gd1186 O1222 2.427 . S
Gd1186 O1224 2.388 . S
Gd1186 O1225 2.386 1_455 S
Gd1186 O1229 2.307 . S
Gd1186 C1239 2.805 . S
Gd1187 N1182 2.622 . S
Gd1187 N1188 2.570 . S
Gd1187 O1219 2.386 . S
Gd1187 O1223 2.307 . S
Gd1187 O1226 2.353 1_455 S
Gd1187 O1227 2.468 . S
Gd1187 O1228 2.427 . S
Gd1187 O1230 2.388 . S
Gd1187 C1251 2.805 . S
N1188 C1178 1.359 . S
N1188 Gd1187 2.570 . S
N1188 C1190 1.343 . S
C1189 C1177 1.422 . S
C1189 C1191 1.321 . S
C1189 H1197 0.931 . S
C1190 N1188 1.343 . S
C1190 C1191 1.390 . S
C1190 H1192 0.931 . S
C1191 C1189 1.321 . S
C1191 C1190 1.390 . S
C1191 H1193 0.930 . S
H1192 C1190 0.931 . S
H1193 C1191 0.930 . S
H1194 C1217 0.931 1_455 S
H1195 C1183 0.929 . S
H1196 C1218 0.930 . S
H1197 C1189 0.931 . S
H1198 C1179 0.930 . S
H1199 C1208 0.929 . S
H1200 C1184 0.931 . S
H1201 C1185 0.930 . S
H1202 C1240 0.930 . S
H1203 C1181 0.929 . S
H1204 C1209 0.931 . S
H1205 C1210 0.930 . S
N1206 Gd1186 2.638 . S
N1206 C1207 1.356 1_455 S
N1206 C1208 1.333 . S
C1207 N1206 1.356 1_655 S
C1207 C1211 1.415 . S
C1207 C1214 1.422 . S
C1208 H1199 0.929 . S
C1208 N1206 1.333 . S
C1208 C1210 1.378 1_455 S
C1209 H1204 0.931 . S
C1209 C1210 1.348 . S
C1209 C1211 1.413 . S
C1210 H1205 0.930 . S
C1210 C1208 1.378 1_655 S
C1210 C1209 1.348 . S
C1211 C1207 1.415 . S
C1211 C1209 1.413 . S
C1211 C1241 1.437 . S
H1212 C1241 0.929 . S
N1213 Gd1186 2.570 1_655 S
N1213 C1214 1.359 . S
N1213 C1217 1.343 . S
C1214 C1207 1.422 . S
C1214 N1213 1.359 . S
C1214 C1216 1.421 . S
C1215 C1216 1.422 . S
C1215 C1218 1.321 . S
C1215 H1242 0.931 . S
C1216 C1214 1.421 . S
C1216 C1215 1.422 . S
C1216 C1240 1.417 . S
C1217 H1194 0.931 1_655 S
C1217 N1213 1.343 . S
C1217 C1218 1.390 . S
C1218 H1196 0.930 . S
C1218 C1215 1.321 . S
C1218 C1217 1.390 . S
O1219 Gd1187 2.386 . S
O1219 C1231 1.265 . S
O1220 Gd1186 2.353 . S
O1220 C1231 1.242 . S
O1221 Gd1186 2.468 . S
O1221 C1239 1.263 . S
O1222 Gd1186 2.427 . S
O1222 C1239 1.252 . S
O1223 Gd1187 2.307 . S
O1223 C1232 1.261 . S
O1224 Gd1186 2.388 . S
O1224 C1232 1.252 . S
O1225 Gd1186 2.386 1_655 S
O1225 C1243 1.265 . S
O1226 Gd1187 2.353 1_655 S
O1226 C1243 1.242 . S
O1227 Gd1187 2.468 . S
O1227 C1251 1.263 . S
O1228 Gd1187 2.427 . S
O1228 C1251 1.252 . S
O1229 Gd1186 2.307 . S
O1229 C1244 1.261 . S
O1230 Gd1187 2.388 . S
O1230 C1244 1.252 . S
C1231 O1219 1.265 . S
C1231 O1220 1.242 . S
C1232 O1223 1.261 . S
C1232 O1224 1.252 . S
C1233 C1236 1.394 . S
C1233 C1238 1.370 . S
C1233 C1239 1.500 . S
C1234 C1237 1.383 . S
C1234 C1238 1.395 . S
C1235 C1236 1.396 . S
C1235 C1237 1.365 . S
C1235 H1252 0.929 . S
C1236 C1233 1.394 . S
C1236 C1235 1.396 . S
C1236 H1253 0.930 . S
C1237 C1234 1.383 . S
C1237 C1235 1.365 . S
C1237 H1254 0.931 . S
C1238 C1233 1.370 . S
C1238 C1234 1.395 . S
C1238 H1255 0.930 . S
C1239 Gd1186 2.805 . S
C1239 O1221 1.263 . S
C1239 O1222 1.252 . S
C1239 C1233 1.500 . S
C1240 H1202 0.930 . S
C1240 C1216 1.417 . S
C1240 C1241 1.329 . S
C1241 C1211 1.437 . S
C1241 H1212 0.929 . S
C1241 C1240 1.329 . S
H1242 C1215 0.931 . S
C1243 O1225 1.265 . S
C1243 O1226 1.242 . S
C1244 O1229 1.261 . S
C1244 O1230 1.252 . S
C1245 C1248 1.394 . S
C1245 C1250 1.370 . S
C1245 C1251 1.500 1_655 S
C1246 C1249 1.383 . S
C1246 C1250 1.395 . S
C1247 C1248 1.396 . S
C1247 C1249 1.365 . S
C1247 H1256 0.929 . S
C1248 C1245 1.394 . S
C1248 C1247 1.396 . S
C1248 H1257 0.930 . S
C1249 C1246 1.383 . S
C1249 C1247 1.365 . S
C1249 H1258 0.931 . S
C1250 C1245 1.370 . S
C1250 C1246 1.395 . S
C1250 H1259 0.930 . S
C1251 Gd1187 2.805 . S
C1251 O1227 1.263 . S
C1251 O1228 1.252 . S
C1251 C1245 1.500 1_455 S
H1252 C1235 0.929 . S
H1253 C1236 0.930 . S
H1254 C1237 0.931 . S
H1255 C1238 0.930 . S
H1256 C1247 0.929 . S
H1257 C1248 0.930 . S
H1258 C1249 0.931 . S
H1259 C1250 0.930 . S
C1260 C1262 1.422 . S
C1260 C1264 1.415 . S
C1260 N1266 1.369 . S
C1261 C1262 1.421 . S
C1261 C1263 1.417 . S
C1261 C1273 1.422 . S
C1262 C1260 1.422 . S
C1262 C1261 1.421 . S
C1262 N1272 1.359 . S
C1263 C1261 1.417 . S
C1263 C1265 1.329 . S
C1263 H1282 0.930 . S
C1264 C1260 1.415 . S
C1264 C1265 1.437 . S
C1264 C1268 1.413 . S
C1265 C1263 1.329 . S
C1265 C1264 1.437 . S
C1265 H1287 0.929 . S
N1266 C1260 1.369 . S
N1266 C1267 1.338 . S
N1266 Gd1271 2.622 . S
C1267 N1266 1.338 . S
C1267 C1269 1.378 . S
C1267 H1279 0.929 . S
C1268 C1264 1.413 . S
C1268 C1269 1.348 . S
C1268 H1284 0.931 . S
C1269 C1267 1.378 . S
C1269 C1268 1.348 . S
C1269 H1285 0.930 . S
Gd1270 N1290 2.622 . S
Gd1270 N1297 2.570 . S
Gd1270 O1304 2.353 . S
Gd1270 O1305 2.468 . S
Gd1270 O1306 2.427 . S
Gd1270 O1308 2.388 . S
Gd1270 O1309 2.386 . S
Gd1270 O1313 2.307 . S
Gd1270 C1323 2.805 . S
Gd1271 N1266 2.622 . S
Gd1271 N1272 2.570 . S
Gd1271 O1303 2.386 . S
Gd1271 O1307 2.307 . S
Gd1271 O1310 2.353 . S
Gd1271 O1311 2.468 . S
Gd1271 O1312 2.427 . S
Gd1271 O1314 2.388 . S
Gd1271 C1335 2.805 . S
N1272 C1262 1.359 . S
N1272 Gd1271 2.570 . S
N1272 C1274 1.343 . S
C1273 C1261 1.422 . S
C1273 C1275 1.321 . S
C1273 H1281 0.931 . S
C1274 N1272 1.343 . S
C1274 C1275 1.390 . S
C1274 H1276 0.931 . S
C1275 C1273 1.321 . S
C1275 C1274 1.390 . S
C1275 H1277 0.930 . S
H1276 C1274 0.931 . S
H1277 C1275 0.930 . S
H1278 C1301 0.931 . S
H1279 C1267 0.929 . S
H1280 C1302 0.930 . S
H1281 C1273 0.931 . S
H1282 C1263 0.930 . S
H1283 C1292 0.929 . S
H1284 C1268 0.931 . S
H1285 C1269 0.930 . S
H1286 C1324 0.930 . S
H1287 C1265 0.929 . S
H1288 C1293 0.931 . S
H1289 C1294 0.930 . S
N1290 Gd1270 2.622 . S
N1290 C1291 1.369 . S
N1290 C1292 1.338 . S
C1291 N1290 1.369 . S
C1291 C1295 1.415 . S
C1291 C1298 1.422 . S
C1292 H1283 0.929 . S
C1292 N1290 1.338 . S
C1292 C1294 1.378 . S
C1293 H1288 0.931 . S
C1293 C1294 1.348 . S
C1293 C1295 1.413 . S
C1294 H1289 0.930 . S
C1294 C1292 1.378 . S
C1294 C1293 1.348 . S
C1295 C1291 1.415 . S
C1295 C1293 1.413 . S
C1295 C1325 1.437 . S
H1296 C1325 0.929 . S
N1297 Gd1270 2.570 . S
N1297 C1298 1.359 . S
N1297 C1301 1.343 . S
C1298 C1291 1.422 . S
C1298 N1297 1.359 . S
C1298 C1300 1.421 . S
C1299 C1300 1.422 . S
C1299 C1302 1.321 . S
C1299 H1326 0.931 . S
C1300 C1298 1.421 . S
C1300 C1299 1.422 . S
C1300 C1324 1.417 . S
C1301 H1278 0.931 . S
C1301 N1297 1.343 . S
C1301 C1302 1.390 . S
C1302 H1280 0.930 . S
C1302 C1299 1.321 . S
C1302 C1301 1.390 . S
O1303 Gd1271 2.386 . S
O1303 C1315 1.265 . S
O1304 Gd1270 2.353 . S
O1304 C1315 1.242 . S
O1305 Gd1270 2.468 . S
O1305 C1323 1.263 . S
O1306 Gd1270 2.427 . S
O1306 C1323 1.252 . S
O1307 Gd1271 2.307 . S
O1307 C1316 1.261 . S
O1308 Gd1270 2.388 . S
O1308 C1316 1.252 . S
O1309 Gd1270 2.386 . S
O1309 C1327 1.265 . S
O1310 Gd1271 2.353 . S
O1310 C1327 1.242 . S
O1311 Gd1271 2.468 . S
O1311 C1335 1.263 . S
O1312 Gd1271 2.427 . S
O1312 C1335 1.252 . S
O1313 Gd1270 2.307 . S
O1313 C1328 1.261 . S
O1314 Gd1271 2.388 . S
O1314 C1328 1.252 . S
C1315 O1303 1.265 . S
C1315 O1304 1.242 . S
C1316 O1307 1.261 . S
C1316 O1308 1.252 . S
C1317 C1320 1.394 . S
C1317 C1322 1.370 . S
C1317 C1323 1.500 . S
C1318 C1321 1.383 . S
C1318 C1322 1.395 . S
C1319 C1320 1.396 . S
C1319 C1321 1.365 . S
C1319 H1336 0.929 . S
C1320 C1317 1.394 . S
C1320 C1319 1.396 . S
C1320 H1337 0.930 . S
C1321 C1318 1.383 . S
C1321 C1319 1.365 . S
C1321 H1338 0.931 . S
C1322 C1317 1.370 . S
C1322 C1318 1.395 . S
C1322 H1339 0.930 . S
C1323 Gd1270 2.805 . S
C1323 O1305 1.263 . S
C1323 O1306 1.252 . S
C1323 C1317 1.500 . S
C1324 H1286 0.930 . S
C1324 C1300 1.417 . S
C1324 C1325 1.329 . S
C1325 C1295 1.437 . S
C1325 H1296 0.929 . S
C1325 C1324 1.329 . S
H1326 C1299 0.931 . S
C1327 O1309 1.265 . S
C1327 O1310 1.242 . S
C1328 O1313 1.261 . S
C1328 O1314 1.252 . S
C1329 C1332 1.394 . S
C1329 C1334 1.370 . S
C1329 C1335 1.500 . S
C1330 C1333 1.383 . S
C1330 C1334 1.395 . S
C1331 C1332 1.396 . S
C1331 C1333 1.365 . S
C1331 H1340 0.929 . S
C1332 C1329 1.394 . S
C1332 C1331 1.396 . S
C1332 H1341 0.930 . S
C1333 C1330 1.383 . S
C1333 C1331 1.365 . S
C1333 H1342 0.931 . S
C1334 C1329 1.370 . S
C1334 C1330 1.395 . S
C1334 H1343 0.930 . S
C1335 Gd1271 2.805 . S
C1335 O1311 1.263 . S
C1335 O1312 1.252 . S
C1335 C1329 1.500 . S
H1336 C1319 0.929 . S
H1337 C1320 0.930 . S
H1338 C1321 0.931 . S
H1339 C1322 0.930 . S
H1340 C1331 0.929 . S
H1341 C1332 0.930 . S
H1342 C1333 0.931 . S
H1343 C1334 0.930 . S
C1344 C1346 1.422 . S
C1344 C1348 1.415 . S
C1344 N1350 1.369 . S
C1345 C1346 1.421 . S
C1345 C1347 1.417 . S
C1345 C1357 1.422 . S
C1346 C1344 1.422 . S
C1346 C1345 1.421 . S
C1346 N1356 1.359 . S
C1347 C1345 1.417 . S
C1347 C1349 1.329 . S
C1347 H1366 0.930 . S
C1348 C1344 1.415 . S
C1348 C1349 1.437 . S
C1348 C1352 1.413 . S
C1349 C1347 1.329 . S
C1349 C1348 1.437 . S
C1349 H1371 0.929 . S
N1350 C1344 1.369 . S
N1350 C1351 1.338 . S
N1350 Gd1355 2.622 . S
C1351 N1350 1.338 . S
C1351 C1353 1.378 . S
C1351 H1363 0.929 . S
C1352 C1348 1.413 . S
C1352 C1353 1.348 . S
C1352 H1368 0.931 . S
C1353 C1351 1.378 . S
C1353 C1352 1.348 . S
C1353 H1369 0.930 . S
Gd1354 N1374 2.622 . S
Gd1354 N1381 2.570 . S
Gd1354 O1388 2.353 . S
Gd1354 O1389 2.468 . S
Gd1354 O1390 2.427 . S
Gd1354 O1392 2.388 . S
Gd1354 O1393 2.386 . S
Gd1354 O1397 2.307 . S
Gd1354 C1407 2.805 . S
Gd1355 N1350 2.622 . S
Gd1355 N1356 2.570 . S
Gd1355 O1387 2.386 . S
Gd1355 O1391 2.307 . S
Gd1355 O1394 2.353 . S
Gd1355 O1395 2.468 . S
Gd1355 O1396 2.427 . S
Gd1355 O1398 2.388 . S
Gd1355 C1419 2.805 . S
N1356 C1346 1.359 . S
N1356 Gd1355 2.570 . S
N1356 C1358 1.343 . S
C1357 C1345 1.422 . S
C1357 C1359 1.321 . S
C1357 H1365 0.931 . S
C1358 N1356 1.343 . S
C1358 C1359 1.390 . S
C1358 H1360 0.931 . S
C1359 C1357 1.321 . S
C1359 C1358 1.390 . S
C1359 H1361 0.930 . S
H1360 C1358 0.931 . S
H1361 C1359 0.930 . S
H1362 C1385 0.931 . S
H1363 C1351 0.929 . S
H1364 C1386 0.930 . S
H1365 C1357 0.931 . S
H1366 C1347 0.930 . S
H1367 C1376 0.929 . S
H1368 C1352 0.931 . S
H1369 C1353 0.930 . S
H1370 C1408 0.930 . S
H1371 C1349 0.929 . S
H1372 C1377 0.931 . S
H1373 C1378 0.930 . S
N1374 Gd1354 2.622 . S
N1374 C1375 1.369 . S
N1374 C1376 1.338 . S
C1375 N1374 1.369 . S
C1375 C1379 1.415 . S
C1375 C1382 1.422 . S
C1376 H1367 0.929 . S
C1376 N1374 1.338 . S
C1376 C1378 1.378 . S
C1377 H1372 0.931 . S
C1377 C1378 1.348 . S
C1377 C1379 1.413 . S
C1378 H1373 0.930 . S
C1378 C1376 1.378 . S
C1378 C1377 1.348 . S
C1379 C1375 1.415 . S
C1379 C1377 1.413 . S
C1379 C1409 1.437 . S
H1380 C1409 0.929 . S
N1381 Gd1354 2.570 . S
N1381 C1382 1.359 . S
N1381 C1385 1.343 . S
C1382 C1375 1.422 . S
C1382 N1381 1.359 . S
C1382 C1384 1.421 . S
C1383 C1384 1.422 . S
C1383 C1386 1.321 . S
C1383 H1410 0.931 . S
C1384 C1382 1.421 . S
C1384 C1383 1.422 . S
C1384 C1408 1.417 . S
C1385 H1362 0.931 . S
C1385 N1381 1.343 . S
C1385 C1386 1.390 . S
C1386 H1364 0.930 . S
C1386 C1383 1.321 . S
C1386 C1385 1.390 . S
O1387 Gd1355 2.386 . S
O1387 C1399 1.265 . S
O1388 Gd1354 2.353 . S
O1388 C1399 1.242 . S
O1389 Gd1354 2.468 . S
O1389 C1407 1.263 . S
O1390 Gd1354 2.427 . S
O1390 C1407 1.252 . S
O1391 Gd1355 2.307 . S
O1391 C1400 1.261 . S
O1392 Gd1354 2.388 . S
O1392 C1400 1.252 . S
O1393 Gd1354 2.386 . S
O1393 C1411 1.265 . S
O1394 Gd1355 2.353 . S
O1394 C1411 1.242 . S
O1395 Gd1355 2.468 . S
O1395 C1419 1.263 . S
O1396 Gd1355 2.427 . S
O1396 C1419 1.252 . S
O1397 Gd1354 2.307 . S
O1397 C1412 1.261 . S
O1398 Gd1355 2.388 . S
O1398 C1412 1.252 . S
C1399 O1387 1.265 . S
C1399 O1388 1.242 . S
C1400 O1391 1.261 . S
C1400 O1392 1.252 . S
C1401 C1404 1.394 . S
C1401 C1406 1.370 . S
C1401 C1407 1.500 . S
C1402 C1405 1.383 . S
C1402 C1406 1.395 . S
C1403 C1404 1.396 . S
C1403 C1405 1.365 . S
C1403 H1420 0.929 . S
C1404 C1401 1.394 . S
C1404 C1403 1.396 . S
C1404 H1421 0.930 . S
C1405 C1402 1.383 . S
C1405 C1403 1.365 . S
C1405 H1422 0.931 . S
C1406 C1401 1.370 . S
C1406 C1402 1.395 . S
C1406 H1423 0.930 . S
C1407 Gd1354 2.805 . S
C1407 O1389 1.263 . S
C1407 O1390 1.252 . S
C1407 C1401 1.500 . S
C1408 H1370 0.930 . S
C1408 C1384 1.417 . S
C1408 C1409 1.329 . S
C1409 C1379 1.437 . S
C1409 H1380 0.929 . S
C1409 C1408 1.329 . S
H1410 C1383 0.931 . S
C1411 O1393 1.265 . S
C1411 O1394 1.242 . S
C1412 O1397 1.261 . S
C1412 O1398 1.252 . S
C1413 C1416 1.394 . S
C1413 C1418 1.370 . S
C1413 C1419 1.500 . S
C1414 C1417 1.383 . S
C1414 C1418 1.395 . S
C1415 C1416 1.396 . S
C1415 C1417 1.365 . S
C1415 H1424 0.929 . S
C1416 C1413 1.394 . S
C1416 C1415 1.396 . S
C1416 H1425 0.930 . S
C1417 C1414 1.383 . S
C1417 C1415 1.365 . S
C1417 H1426 0.931 . S
C1418 C1413 1.370 . S
C1418 C1414 1.395 . S
C1418 H1427 0.930 . S
C1419 Gd1355 2.805 . S
C1419 O1395 1.263 . S
C1419 O1396 1.252 . S
C1419 C1413 1.500 . S
H1420 C1403 0.929 . S
H1421 C1404 0.930 . S
H1422 C1405 0.931 . S
H1423 C1406 0.930 . S
H1424 C1415 0.929 . S
H1425 C1416 0.930 . S
H1426 C1417 0.931 . S
H1427 C1418 0.930 . S
C1428 C1430 1.422 . S
C1428 C1432 1.415 . S
C1428 N1434 1.369 . S
C1429 C1430 1.421 . S
C1429 C1431 1.417 . S
C1429 C1441 1.422 . S
C1430 C1428 1.422 . S
C1430 C1429 1.421 . S
C1430 N1440 1.359 . S
C1431 C1429 1.417 . S
C1431 C1433 1.329 . S
C1431 H1450 0.930 . S
C1432 C1428 1.415 . S
C1432 C1433 1.437 . S
C1432 C1436 1.413 . S
C1433 C1431 1.329 . S
C1433 C1432 1.437 . S
C1433 H1455 0.929 . S
N1434 C1428 1.369 . S
N1434 C1435 1.338 . S
N1434 Gd1439 2.622 . S
C1435 N1434 1.338 . S
C1435 C1437 1.378 . S
C1435 H1447 0.929 . S
C1436 C1432 1.413 . S
C1436 C1437 1.348 . S
C1436 H1452 0.931 . S
C1437 C1435 1.378 . S
C1437 C1436 1.348 . S
C1437 H1453 0.930 . S
Gd1438 N1458 2.622 . S
Gd1438 N1465 2.570 . S
Gd1438 O1472 2.353 . S
Gd1438 O1473 2.468 . S
Gd1438 O1474 2.427 . S
Gd1438 O1476 2.388 . S
Gd1438 O1477 2.386 . S
Gd1438 O1481 2.307 . S
Gd1438 C1491 2.805 . S
Gd1439 N1434 2.622 . S
Gd1439 N1440 2.570 . S
Gd1439 O1471 2.386 . S
Gd1439 O1475 2.307 . S
Gd1439 O1478 2.353 . S
Gd1439 O1479 2.468 . S
Gd1439 O1480 2.427 . S
Gd1439 O1482 2.388 . S
Gd1439 C1503 2.805 . S
N1440 C1430 1.359 . S
N1440 Gd1439 2.570 . S
N1440 C1442 1.343 . S
C1441 C1429 1.422 . S
C1441 C1443 1.321 . S
C1441 H1449 0.931 . S
C1442 N1440 1.343 . S
C1442 C1443 1.390 . S
C1442 H1444 0.931 . S
C1443 C1441 1.321 . S
C1443 C1442 1.390 . S
C1443 H1445 0.930 . S
H1444 C1442 0.931 . S
H1445 C1443 0.930 . S
H1446 C1469 0.931 . S
H1447 C1435 0.929 . S
H1448 C1470 0.930 . S
H1449 C1441 0.931 . S
H1450 C1431 0.930 . S
H1451 C1460 0.929 . S
H1452 C1436 0.931 . S
H1453 C1437 0.930 . S
H1454 C1492 0.930 . S
H1455 C1433 0.929 . S
H1456 C1461 0.931 . S
H1457 C1462 0.930 . S
N1458 Gd1438 2.622 . S
N1458 C1459 1.369 . S
N1458 C1460 1.338 . S
C1459 N1458 1.369 . S
C1459 C1463 1.415 . S
C1459 C1466 1.422 . S
C1460 H1451 0.929 . S
C1460 N1458 1.338 . S
C1460 C1462 1.378 . S
C1461 H1456 0.931 . S
C1461 C1462 1.348 . S
C1461 C1463 1.413 . S
C1462 H1457 0.930 . S
C1462 C1460 1.378 . S
C1462 C1461 1.348 . S
C1463 C1459 1.415 . S
C1463 C1461 1.413 . S
C1463 C1493 1.437 . S
H1464 C1493 0.929 . S
N1465 Gd1438 2.570 . S
N1465 C1466 1.359 . S
N1465 C1469 1.343 . S
C1466 C1459 1.422 . S
C1466 N1465 1.359 . S
C1466 C1468 1.421 . S
C1467 C1468 1.422 . S
C1467 C1470 1.321 . S
C1467 H1494 0.931 . S
C1468 C1466 1.421 . S
C1468 C1467 1.422 . S
C1468 C1492 1.417 . S
C1469 H1446 0.931 . S
C1469 N1465 1.343 . S
C1469 C1470 1.390 . S
C1470 H1448 0.930 . S
C1470 C1467 1.321 . S
C1470 C1469 1.390 . S
O1471 Gd1439 2.386 . S
O1471 C1483 1.265 . S
O1472 Gd1438 2.353 . S
O1472 C1483 1.242 . S
O1473 Gd1438 2.468 . S
O1473 C1491 1.263 . S
O1474 Gd1438 2.427 . S
O1474 C1491 1.252 . S
O1475 Gd1439 2.307 . S
O1475 C1484 1.261 . S
O1476 Gd1438 2.388 . S
O1476 C1484 1.252 . S
O1477 Gd1438 2.386 . S
O1477 C1495 1.265 . S
O1478 Gd1439 2.353 . S
O1478 C1495 1.242 . S
O1479 Gd1439 2.468 . S
O1479 C1503 1.263 . S
O1480 Gd1439 2.427 . S
O1480 C1503 1.252 . S
O1481 Gd1438 2.307 . S
O1481 C1496 1.261 . S
O1482 Gd1439 2.388 . S
O1482 C1496 1.252 . S
C1483 O1471 1.265 . S
C1483 O1472 1.242 . S
C1484 O1475 1.261 . S
C1484 O1476 1.252 . S
C1485 C1488 1.394 . S
C1485 C1490 1.370 . S
C1485 C1491 1.500 . S
C1486 C1489 1.383 . S
C1486 C1490 1.395 . S
C1487 C1488 1.396 . S
C1487 C1489 1.365 . S
C1487 H1504 0.929 . S
C1488 C1485 1.394 . S
C1488 C1487 1.396 . S
C1488 H1505 0.930 . S
C1489 C1486 1.383 . S
C1489 C1487 1.365 . S
C1489 H1506 0.931 . S
C1490 C1485 1.370 . S
C1490 C1486 1.395 . S
C1490 H1507 0.930 . S
C1491 Gd1438 2.805 . S
C1491 O1473 1.263 . S
C1491 O1474 1.252 . S
C1491 C1485 1.500 . S
C1492 H1454 0.930 . S
C1492 C1468 1.417 . S
C1492 C1493 1.329 . S
C1493 C1463 1.437 . S
C1493 H1464 0.929 . S
C1493 C1492 1.329 . S
H1494 C1467 0.931 . S
C1495 O1477 1.265 . S
C1495 O1478 1.242 . S
C1496 O1481 1.261 . S
C1496 O1482 1.252 . S
C1497 C1500 1.394 . S
C1497 C1502 1.370 . S
C1497 C1503 1.500 . S
C1498 C1501 1.383 . S
C1498 C1502 1.395 . S
C1499 C1500 1.396 . S
C1499 C1501 1.365 . S
C1499 H1508 0.929 . S
C1500 C1497 1.394 . S
C1500 C1499 1.396 . S
C1500 H1509 0.930 . S
C1501 C1498 1.383 . S
C1501 C1499 1.365 . S
C1501 H1510 0.895 1_565 S
C1502 C1497 1.370 . S
C1502 C1498 1.395 . S
C1502 H1511 0.930 . S
C1503 Gd1439 2.805 . S
C1503 O1479 1.263 . S
C1503 O1480 1.252 . S
C1503 C1497 1.500 . S
H1504 C1487 0.929 . S
H1505 C1488 0.930 . S
H1506 C1489 0.931 . S
H1507 C1490 0.930 . S
H1508 C1499 0.929 . S
H1509 C1500 0.930 . S
H1510 C1501 0.895 1_545 S
H1511 C1502 0.930 . S
C1512 C1514 1.422 . S
C1512 C1516 1.415 . S
C1512 N1518 1.369 . S
C1513 C1514 1.421 . S
C1513 C1515 1.417 . S
C1513 C1525 1.422 . S
C1514 C1512 1.422 . S
C1514 C1513 1.421 . S
C1514 N1524 1.359 . S
C1515 C1513 1.417 . S
C1515 C1517 1.329 . S
C1515 H1534 0.930 . S
C1516 C1512 1.415 . S
C1516 C1517 1.437 . S
C1516 C1520 1.413 . S
C1517 C1515 1.329 . S
C1517 C1516 1.437 . S
C1517 H1539 0.929 . S
N1518 C1512 1.369 . S
N1518 C1519 1.338 . S
N1518 Gd1523 2.622 . S
C1519 N1518 1.338 . S
C1519 C1521 1.378 . S
C1519 H1531 0.929 . S
C1520 C1516 1.413 . S
C1520 C1521 1.348 . S
C1520 H1536 0.931 . S
C1521 C1519 1.378 . S
C1521 C1520 1.348 . S
C1521 H1537 0.930 . S
Gd1522 N1542 2.622 . S
Gd1522 N1549 2.570 . S
Gd1522 O1556 2.353 . S
Gd1522 O1557 2.468 . S
Gd1522 O1558 2.427 . S
Gd1522 O1560 2.388 . S
Gd1522 O1561 2.386 . S
Gd1522 O1565 2.307 . S
Gd1522 C1575 2.805 . S
Gd1523 N1518 2.622 . S
Gd1523 N1524 2.570 . S
Gd1523 O1555 2.386 . S
Gd1523 O1559 2.307 . S
Gd1523 O1562 2.353 . S
Gd1523 O1563 2.468 . S
Gd1523 O1564 2.427 . S
Gd1523 O1566 2.388 . S
Gd1523 C1587 2.805 . S
N1524 C1514 1.359 . S
N1524 Gd1523 2.570 . S
N1524 C1526 1.343 . S
C1525 C1513 1.422 . S
C1525 C1527 1.321 . S
C1525 H1533 0.931 . S
C1526 N1524 1.343 . S
C1526 C1527 1.390 . S
C1526 H1528 0.931 . S
C1527 C1525 1.321 . S
C1527 C1526 1.390 . S
C1527 H1529 0.930 . S
H1528 C1526 0.931 . S
H1529 C1527 0.930 . S
H1530 C1553 0.931 . S
H1531 C1519 0.929 . S
H1532 C1554 0.930 . S
H1533 C1525 0.931 . S
H1534 C1515 0.930 . S
H1535 C1544 0.929 . S
H1536 C1520 0.931 . S
H1537 C1521 0.930 . S
H1538 C1576 0.930 . S
H1539 C1517 0.929 . S
H1540 C1545 0.931 . S
H1541 C1546 0.930 . S
N1542 Gd1522 2.622 . S
N1542 C1543 1.369 . S
N1542 C1544 1.338 . S
C1543 N1542 1.369 . S
C1543 C1547 1.415 . S
C1543 C1550 1.422 . S
C1544 H1535 0.929 . S
C1544 N1542 1.338 . S
C1544 C1546 1.378 . S
C1545 H1540 0.931 . S
C1545 C1546 1.348 . S
C1545 C1547 1.413 . S
C1546 H1541 0.930 . S
C1546 C1544 1.378 . S
C1546 C1545 1.348 . S
C1547 C1543 1.415 . S
C1547 C1545 1.413 . S
C1547 C1577 1.437 . S
H1548 C1577 0.929 . S
N1549 Gd1522 2.570 . S
N1549 C1550 1.359 . S
N1549 C1553 1.343 . S
C1550 C1543 1.422 . S
C1550 N1549 1.359 . S
C1550 C1552 1.421 . S
C1551 C1552 1.422 . S
C1551 C1554 1.321 . S
C1551 H1578 0.931 . S
C1552 C1550 1.421 . S
C1552 C1551 1.422 . S
C1552 C1576 1.417 . S
C1553 H1530 0.931 . S
C1553 N1549 1.343 . S
C1553 C1554 1.390 . S
C1554 H1532 0.930 . S
C1554 C1551 1.321 . S
C1554 C1553 1.390 . S
O1555 Gd1523 2.386 . S
O1555 C1567 1.265 . S
O1556 Gd1522 2.353 . S
O1556 C1567 1.242 . S
O1557 Gd1522 2.468 . S
O1557 C1575 1.263 . S
O1558 Gd1522 2.427 . S
O1558 C1575 1.252 . S
O1559 Gd1523 2.307 . S
O1559 C1568 1.261 . S
O1560 Gd1522 2.388 . S
O1560 C1568 1.252 . S
O1561 Gd1522 2.386 . S
O1561 C1579 1.265 . S
O1562 Gd1523 2.353 . S
O1562 C1579 1.242 . S
O1563 Gd1523 2.468 . S
O1563 C1587 1.263 . S
O1564 Gd1523 2.427 . S
O1564 C1587 1.252 . S
O1565 Gd1522 2.307 . S
O1565 C1580 1.261 . S
O1566 Gd1523 2.388 . S
O1566 C1580 1.252 . S
C1567 O1555 1.265 . S
C1567 O1556 1.242 . S
C1568 O1559 1.261 . S
C1568 O1560 1.252 . S
C1569 C1572 1.394 . S
C1569 C1574 1.370 . S
C1569 C1575 1.500 . S
C1570 C1573 1.383 . S
C1570 C1574 1.395 . S
C1571 C1572 1.396 . S
C1571 C1573 1.365 . S
C1571 H1588 0.929 . S
C1572 C1569 1.394 . S
C1572 C1571 1.396 . S
C1572 H1589 0.930 . S
C1573 C1570 1.383 . S
C1573 C1571 1.365 . S
C1573 H1590 0.931 . S
C1574 C1569 1.370 . S
C1574 C1570 1.395 . S
C1574 H1591 0.930 . S
C1575 Gd1522 2.805 . S
C1575 O1557 1.263 . S
C1575 O1558 1.252 . S
C1575 C1569 1.500 . S
C1576 H1538 0.930 . S
C1576 C1552 1.417 . S
C1576 C1577 1.329 . S
C1577 C1547 1.437 . S
C1577 H1548 0.929 . S
C1577 C1576 1.329 . S
H1578 C1551 0.931 . S
C1579 O1561 1.265 . S
C1579 O1562 1.242 . S
C1580 O1565 1.261 . S
C1580 O1566 1.252 . S
C1581 C1584 1.394 . S
C1581 C1586 1.370 . S
C1581 C1587 1.500 . S
C1582 C1585 1.383 . S
C1582 C1586 1.395 . S
C1583 C1584 1.396 . S
C1583 C1585 1.365 . S
C1583 H1592 0.929 . S
C1584 C1581 1.394 . S
C1584 C1583 1.396 . S
C1584 H1593 0.930 . S
C1585 C1582 1.383 . S
C1585 C1583 1.365 . S
C1585 H1594 0.931 . S
C1586 C1581 1.370 . S
C1586 C1582 1.395 . S
C1586 H1595 0.930 . S
C1587 Gd1523 2.805 . S
C1587 O1563 1.263 . S
C1587 O1564 1.252 . S
C1587 C1581 1.500 . S
H1588 C1571 0.929 . S
H1589 C1572 0.930 . S
H1590 C1573 0.931 . S
H1591 C1574 0.930 . S
H1592 C1583 0.929 . S
H1593 C1584 0.930 . S
H1594 C1585 0.931 . S
H1595 C1586 0.930 . S
C1596 C1598 1.422 1_556 S
C1596 C1600 1.415 . S
C1596 N1602 1.369 . S
C1597 C1598 1.421 . S
C1597 C1599 1.417 1_554 S
C1597 C1609 1.422 . S
C1598 C1596 1.422 1_554 S
C1598 C1597 1.421 . S
C1598 N1608 1.359 . S
C1599 C1597 1.417 1_556 S
C1599 C1601 1.329 . S
C1599 H1618 0.930 . S
C1600 C1596 1.415 . S
C1600 C1601 1.437 . S
C1600 C1604 1.413 . S
C1601 C1599 1.329 . S
C1601 C1600 1.437 . S
C1601 H1623 0.929 . S
N1602 C1596 1.369 . S
N1602 C1603 1.338 . S
N1602 Gd1607 2.622 1_556 S
C1603 N1602 1.338 . S
C1603 C1605 1.378 . S
C1603 H1615 0.929 . S
C1604 C1600 1.413 . S
C1604 C1605 1.348 . S
C1604 H1620 0.931 . S
C1605 C1603 1.378 . S
C1605 C1604 1.348 . S
C1605 H1621 0.930 . S
Gd1606 N1626 2.622 . S
Gd1606 N1633 2.570 . S
Gd1606 O1640 2.353 1_655 S
Gd1606 O1641 2.468 . S
Gd1606 O1642 2.427 . S
Gd1606 O1644 2.388 1_655 S
Gd1606 O1645 2.386 1_655 S
Gd1606 O1649 2.307 . S
Gd1606 C1659 2.805 . S
Gd1607 N1602 2.622 1_554 S
Gd1607 N1608 2.570 . S
Gd1607 O1639 2.386 . S
Gd1607 O1643 2.307 . S
Gd1607 O1646 2.353 . S
Gd1607 O1647 2.468 . S
Gd1607 O1648 2.427 1_554 S
Gd1607 O1650 2.388 1_554 S
Gd1607 C1671 2.805 1_554 S
N1608 C1598 1.359 . S
N1608 Gd1607 2.570 . S
N1608 C1610 1.343 . S
C1609 C1597 1.422 . S
C1609 C1611 1.321 . S
C1609 H1617 0.931 . S
C1610 N1608 1.343 . S
C1610 C1611 1.390 . S
C1610 H1612 0.931 . S
C1611 C1609 1.321 . S
C1611 C1610 1.390 . S
C1611 H1613 0.930 . S
H1612 C1610 0.931 . S
H1613 C1611 0.930 . S
H1614 C1637 0.931 1_556 S
H1615 C1603 0.929 . S
H1616 C1638 0.904 1_556 S
H1617 C1609 0.931 . S
H1618 C1599 0.930 . S
H1619 C1628 0.916 1_455 S
H1620 C1604 0.931 . S
H1621 C1605 0.930 . S
H1622 C1660 0.930 . S
H1623 C1601 0.929 . S
H1624 C1629 0.931 . S
H1625 C1630 0.930 1_455 S
N1626 Gd1606 2.622 . S
N1626 C1627 1.369 . S
N1626 C1628 1.347 . S
C1627 N1626 1.369 . S
C1627 C1631 1.415 . S
C1627 C1634 1.422 . S
C1628 H1619 0.916 1_655 S
C1628 N1626 1.347 . S
C1628 C1630 1.382 . S
C1629 H1624 0.931 . S
C1629 C1630 1.348 . S
C1629 C1631 1.413 . S
C1630 H1625 0.930 1_655 S
C1630 C1628 1.382 . S
C1630 C1629 1.348 . S
C1631 C1627 1.415 . S
C1631 C1629 1.413 . S
C1631 C1661 1.437 . S
H1632 C1661 0.929 . S
N1633 Gd1606 2.570 . S
N1633 C1634 1.359 . S
N1633 C1637 1.343 . S
C1634 C1627 1.422 . S
C1634 N1633 1.359 . S
C1634 C1636 1.421 . S
C1635 C1636 1.422 . S
C1635 C1638 1.344 . S
C1635 H1662 0.931 . S
C1636 C1634 1.421 . S
C1636 C1635 1.422 . S
C1636 C1660 1.417 . S
C1637 H1614 0.931 1_554 S
C1637 N1633 1.343 . S
C1637 C1638 1.393 . S
C1638 H1616 0.904 1_554 S
C1638 C1635 1.344 . S
C1638 C1637 1.393 . S
O1639 Gd1607 2.386 . S
O1639 C1651 1.265 . S
O1640 Gd1606 2.353 1_455 S
O1640 C1651 1.242 . S
O1641 Gd1606 2.468 . S
O1641 C1659 1.263 . S
O1642 Gd1606 2.427 . S
O1642 C1659 1.252 . S
O1643 Gd1607 2.307 . S
O1643 C1652 1.261 . S
O1644 Gd1606 2.388 1_455 S
O1644 C1652 1.252 . S
O1645 Gd1606 2.386 1_455 S
O1645 C1663 1.265 . S
O1646 Gd1607 2.353 . S
O1646 C1663 1.242 . S
O1647 Gd1607 2.468 . S
O1647 C1671 1.263 1_554 S
O1648 Gd1607 2.427 1_556 S
O1648 C1671 1.252 . S
O1649 Gd1606 2.307 . S
O1649 C1664 1.261 1_654 S
O1650 Gd1607 2.388 1_556 S
O1650 C1664 1.252 . S
C1651 O1639 1.265 . S
C1651 O1640 1.242 . S
C1652 O1643 1.261 . S
C1652 O1644 1.252 . S
C1653 C1656 1.394 . S
C1653 C1658 1.370 . S
C1653 C1659 1.500 . S
C1654 C1657 1.383 . S
C1654 C1658 1.395 . S
C1655 C1656 1.396 . S
C1655 C1657 1.365 . S
C1655 H1672 0.929 . S
C1656 C1653 1.394 . S
C1656 C1655 1.396 . S
C1656 H1673 0.930 . S
C1657 C1654 1.383 . S
C1657 C1655 1.365 . S
C1657 H1674 0.931 . S
C1658 C1653 1.370 . S
C1658 C1654 1.395 . S
C1658 H1675 0.930 . S
C1659 Gd1606 2.805 . S
C1659 O1641 1.263 . S
C1659 O1642 1.252 . S
C1659 C1653 1.500 . S
C1660 H1622 0.930 . S
C1660 C1636 1.417 . S
C1660 C1661 1.329 . S
C1661 C1631 1.437 . S
C1661 H1632 0.929 . S
C1661 C1660 1.329 . S
H1662 C1635 0.931 . S
C1663 O1645 1.265 . S
C1663 O1646 1.242 . S
C1664 O1649 1.261 1_456 S
C1664 O1650 1.252 . S
C1665 C1668 1.394 . S
C1665 C1670 1.370 1_556 S
C1665 C1671 1.500 . S
C1666 C1669 1.383 1_554 S
C1666 C1670 1.395 . S
C1667 C1668 1.396 . S
C1667 C1669 1.365 . S
C1667 H1676 0.929 . S
C1668 C1665 1.394 . S
C1668 C1667 1.396 . S
C1668 H1677 0.930 . S
C1669 C1666 1.383 1_556 S
C1669 C1667 1.365 . S
C1669 H1678 0.931 . S
C1670 C1665 1.370 1_554 S
C1670 C1666 1.395 . S
C1670 H1679 0.930 . S
C1671 Gd1607 2.805 1_556 S
C1671 O1647 1.263 1_556 S
C1671 O1648 1.252 . S
C1671 C1665 1.500 . S
H1672 C1655 0.929 . S
H1673 C1656 0.930 . S
H1674 C1657 0.931 . S
H1675 C1658 0.930 . S
H1676 C1667 0.929 . S
H1677 C1668 0.930 . S
H1678 C1669 0.931 . S
H1679 C1670 0.930 . S
C1680 C1681 1.363 . S
C1680 C1686 1.379 . S
C1680 N1688 1.356 . S
C1681 C1680 1.363 . S
C1681 C1687 1.363 1_455 S
C1682 C1683 1.363 1_655 S
C1682 C1687 1.379 . S
C1682 N1689 1.356 1_554 S
C1683 C1682 1.363 1_455 S
C1683 C1686 1.363 . S
N1684 C1686 1.356 . S
N1684 H1696 0.984 . S
N1684 H1697 0.985 . S
N1685 C1687 1.356 1_556 S
N1685 H1690 0.984 . S
N1685 H1691 0.985 . S
C1686 C1680 1.379 . S
C1686 C1683 1.363 . S
C1686 N1684 1.356 . S
C1687 C1681 1.363 1_655 S
C1687 C1682 1.379 . S
C1687 N1685 1.356 1_554 S
N1688 C1680 1.356 . S
N1688 H1694 0.984 . S
N1688 H1695 0.984 . S
N1689 C1682 1.356 1_556 S
N1689 H1692 0.984 1_556 S
N1689 H1693 0.985 . S
H1690 N1685 0.984 . S
H1691 N1685 0.985 . S
H1692 N1689 0.984 1_554 S
H1693 N1689 0.985 . S
H1694 N1688 0.984 . S
H1695 N1688 0.984 . S
H1696 N1684 0.984 . S
H1697 N1684 0.985 . S
C1698 C1699 1.363 . S
C1698 C1704 1.379 . S
C1698 N1706 1.356 . S
C1699 C1698 1.363 . S
C1699 C1705 1.363 . S
C1700 C1701 1.363 . S
C1700 C1705 1.379 . S
C1700 N1707 1.356 . S
C1701 C1700 1.363 . S
C1701 C1704 1.363 . S
N1702 C1704 1.356 . S
N1702 H1714 0.984 . S
N1702 H1715 0.985 . S
N1703 C1705 1.356 . S
N1703 H1708 0.984 . S
N1703 H1709 0.985 . S
C1704 C1698 1.379 . S
C1704 C1701 1.363 . S
C1704 N1702 1.356 . S
C1705 C1699 1.363 . S
C1705 C1700 1.379 . S
C1705 N1703 1.356 . S
N1706 C1698 1.356 . S
N1706 H1712 0.984 . S
N1706 H1713 0.984 . S
N1707 C1700 1.356 . S
N1707 H1710 0.984 . S
N1707 H1711 0.985 . S
H1708 N1703 0.984 . S
H1709 N1703 0.985 . S
H1710 N1707 0.984 . S
H1711 N1707 0.985 . S
H1712 N1706 0.984 . S
H1713 N1706 0.984 . S
H1714 N1702 0.984 . S
H1715 N1702 0.985 . S
C1716 C1717 1.363 . S
C1716 C1722 1.379 . S
C1716 N1724 1.356 . S
C1717 C1716 1.363 . S
C1717 C1723 1.363 . S
C1718 C1719 1.363 . S
C1718 C1723 1.379 . S
C1718 N1725 1.356 . S
C1719 C1718 1.363 . S
C1719 C1722 1.363 . S
N1720 C1722 1.356 . S
N1720 H1732 0.984 . S
N1720 H1733 0.985 . S
N1721 C1723 1.356 . S
N1721 H1726 0.984 . S
N1721 H1727 0.985 . S
C1722 C1716 1.379 . S
C1722 C1719 1.363 . S
C1722 N1720 1.356 . S
C1723 C1717 1.363 . S
C1723 C1718 1.379 . S
C1723 N1721 1.356 . S
N1724 C1716 1.356 . S
N1724 H1730 0.984 . S
N1724 H1731 0.984 . S
N1725 C1718 1.356 . S
N1725 H1728 0.984 . S
N1725 H1729 0.985 . S
H1726 N1721 0.984 . S
H1727 N1721 0.985 . S
H1728 N1725 0.984 . S
H1729 N1725 0.985 . S
H1730 N1724 0.984 . S
H1731 N1724 0.984 . S
H1732 N1720 0.984 . S
H1733 N1720 0.985 . S
C1734 C1735 1.363 . S
C1734 C1740 1.379 . S
C1734 N1742 1.356 . S
C1735 C1734 1.363 . S
C1735 C1741 1.363 . S
C1736 C1737 1.363 . S
C1736 C1741 1.379 . S
C1736 N1743 1.356 . S
C1737 C1736 1.363 . S
C1737 C1740 1.363 . S
N1738 C1740 1.356 . S
N1738 H1750 0.984 . S
N1738 H1751 0.985 . S
N1739 C1741 1.356 . S
N1739 H1744 0.984 . S
N1739 H1745 0.985 . S
C1740 C1734 1.379 . S
C1740 C1737 1.363 . S
C1740 N1738 1.356 . S
C1741 C1735 1.363 . S
C1741 C1736 1.379 . S
C1741 N1739 1.356 . S
N1742 C1734 1.356 . S
N1742 H1748 0.984 . S
N1742 H1749 0.984 . S
N1743 C1736 1.356 . S
N1743 H1746 0.984 . S
N1743 H1747 0.985 . S
H1744 N1739 0.984 . S
H1745 N1739 0.985 . S
H1746 N1743 0.984 . S
H1747 N1743 0.985 . S
H1748 N1742 0.984 . S
H1749 N1742 0.984 . S
H1750 N1738 0.984 . S
H1751 N1738 0.985 . S
C1752 C1753 1.363 . S
C1752 C1758 1.379 . S
C1752 N1760 1.356 1_455 S
C1753 C1752 1.363 . S
C1753 C1759 1.363 . S
C1754 C1755 1.363 . S
C1754 C1759 1.379 . S
C1754 N1761 1.356 . S
C1755 C1754 1.363 . S
C1755 C1758 1.363 . S
N1756 C1758 1.356 1_655 S
N1756 H1768 0.984 . S
N1756 H1769 0.985 . S
N1757 C1759 1.356 . S
N1757 H1762 0.984 . S
N1757 H1763 0.985 . S
C1758 C1752 1.379 . S
C1758 C1755 1.363 . S
C1758 N1756 1.356 1_455 S
C1759 C1753 1.363 . S
C1759 C1754 1.379 . S
C1759 N1757 1.356 . S
N1760 C1752 1.356 1_655 S
N1760 H1766 0.984 . S
N1760 H1767 0.984 . S
N1761 C1754 1.356 . S
N1761 H1764 0.984 . S
N1761 H1765 0.985 . S
H1762 N1757 0.984 . S
H1763 N1757 0.985 . S
H1764 N1761 0.984 . S
H1765 N1761 0.985 . S
H1766 N1760 0.984 . S
H1767 N1760 0.984 . S
H1768 N1756 0.984 . S
H1769 N1756 0.985 . S
C1770 C1771 1.363 . S
C1770 C1776 1.379 . S
C1770 N1778 1.356 . S
C1771 C1770 1.363 . S
C1771 C1777 1.363 . S
C1772 C1773 1.363 . S
C1772 C1777 1.379 . S
C1772 N1779 1.356 . S
C1773 C1772 1.363 . S
C1773 C1776 1.363 . S
N1774 C1776 1.356 . S
N1774 H1786 0.984 . S
N1774 H1787 0.985 . S
N1775 C1777 1.356 . S
N1775 H1780 0.984 . S
N1775 H1781 0.985 . S
C1776 C1770 1.379 . S
C1776 C1773 1.363 . S
C1776 N1774 1.356 . S
C1777 C1771 1.363 . S
C1777 C1772 1.379 . S
C1777 N1775 1.356 . S
N1778 C1770 1.356 . S
N1778 H1784 0.984 . S
N1778 H1785 0.984 . S
N1779 C1772 1.356 . S
N1779 H1782 0.984 . S
N1779 H1783 0.985 . S
H1780 N1775 0.984 . S
H1781 N1775 0.985 . S
H1782 N1779 0.984 . S
H1783 N1779 0.985 . S
H1784 N1778 0.984 . S
H1785 N1778 0.984 . S
H1786 N1774 0.984 . S
H1787 N1774 0.985 . S
C1788 C1789 1.363 . S
C1788 C1794 1.379 . S
C1788 N1796 1.356 . S
C1789 C1788 1.363 . S
C1789 C1795 1.363 . S
C1790 C1791 1.363 . S
C1790 C1795 1.379 . S
C1790 N1797 1.356 . S
C1791 C1790 1.363 . S
C1791 C1794 1.363 . S
N1792 C1794 1.356 . S
N1792 H1804 0.984 . S
N1792 H1805 0.985 . S
N1793 C1795 1.356 . S
N1793 H1798 0.984 . S
N1793 H1799 0.985 . S
C1794 C1788 1.379 . S
C1794 C1791 1.363 . S
C1794 N1792 1.356 . S
C1795 C1789 1.363 . S
C1795 C1790 1.379 . S
C1795 N1793 1.356 . S
N1796 C1788 1.356 . S
N1796 H1802 0.984 . S
N1796 H1803 0.984 . S
N1797 C1790 1.356 . S
N1797 H1800 0.984 . S
N1797 H1801 0.985 . S
H1798 N1793 0.984 . S
H1799 N1793 0.985 . S
H1800 N1797 0.984 . S
H1801 N1797 0.985 . S
H1802 N1796 0.984 . S
H1803 N1796 0.984 . S
H1804 N1792 0.984 . S
H1805 N1792 0.985 . S
C1806 C1807 1.363 . S
C1806 C1812 1.379 . S
C1806 N1814 1.356 . S
C1807 C1806 1.363 . S
C1807 C1813 1.363 . S
C1808 C1809 1.363 . S
C1808 C1813 1.379 . S
C1808 N1815 1.356 . S
C1809 C1808 1.363 . S
C1809 C1812 1.363 . S
N1810 C1812 1.356 . S
N1810 H1822 0.984 . S
N1810 H1823 0.985 . S
N1811 C1813 1.356 . S
N1811 H1816 0.984 . S
N1811 H1817 0.985 . S
C1812 C1806 1.379 . S
C1812 C1809 1.363 . S
C1812 N1810 1.356 . S
C1813 C1807 1.363 . S
C1813 C1808 1.379 . S
C1813 N1811 1.356 . S
N1814 C1806 1.356 . S
N1814 H1820 0.984 . S
N1814 H1821 0.984 . S
N1815 C1808 1.356 . S
N1815 H1818 0.984 . S
N1815 H1819 0.985 . S
H1816 N1811 0.984 . S
H1817 N1811 0.985 . S
H1818 N1815 0.984 . S
H1819 N1815 0.985 . S
H1820 N1814 0.984 . S
H1821 N1814 0.984 . S
H1822 N1810 0.984 . S
H1823 N1810 0.985 . S
C1824 C1825 1.363 . S
C1824 C1830 1.379 . S
C1824 N1832 1.356 . S
C1825 C1824 1.363 . S
C1825 C1831 1.368 . S
C1826 C1827 1.363 . S
C1826 C1831 1.376 1_455 S
C1826 N1833 1.356 . S
C1827 C1826 1.363 . S
C1827 C1830 1.363 1_455 S
N1828 C1830 1.356 . S
N1828 H1840 0.984 . S
N1828 H1841 0.985 . S
N1829 C1831 1.355 1_465 S
N1829 H1834 0.984 1_455 S
N1829 H1835 0.985 . S
C1830 C1824 1.379 . S
C1830 C1827 1.363 1_655 S
C1830 N1828 1.356 . S
C1831 C1825 1.368 . S
C1831 C1826 1.376 1_655 S
C1831 N1829 1.355 1_645 S
N1832 C1824 1.356 . S
N1832 H1838 0.984 . S
N1832 H1839 0.984 . S
N1833 C1826 1.356 . S
N1833 H1836 0.984 . S
N1833 H1837 0.985 1_545 S
H1834 N1829 0.984 1_655 S
H1835 N1829 0.985 . S
H1836 N1833 0.984 . S
H1837 N1833 0.985 1_565 S
H1838 N1832 0.984 . S
H1839 N1832 0.984 . S
H1840 N1828 0.984 . S
H1841 N1828 0.985 . S
C1842 C1843 1.363 . S
C1842 C1848 1.379 . S
C1842 N1850 1.356 . S
C1843 C1842 1.363 . S
C1843 C1849 1.363 . S
C1844 C1845 1.363 . S
C1844 C1849 1.379 . S
C1844 N1851 1.356 . S
C1845 C1844 1.363 . S
C1845 C1848 1.363 . S
N1846 C1848 1.356 . S
N1846 H1858 0.984 . S
N1846 H1859 0.985 . S
N1847 C1849 1.356 . S
N1847 H1852 0.984 . S
N1847 H1853 0.985 . S
C1848 C1842 1.379 . S
C1848 C1845 1.363 . S
C1848 N1846 1.356 . S
C1849 C1843 1.363 . S
C1849 C1844 1.379 . S
C1849 N1847 1.356 . S
N1850 C1842 1.356 . S
N1850 H1856 0.984 . S
N1850 H1857 0.984 . S
N1851 C1844 1.356 . S
N1851 H1854 0.984 . S
N1851 H1855 0.985 . S
H1852 N1847 0.984 . S
H1853 N1847 0.985 . S
H1854 N1851 0.984 . S
H1855 N1851 0.985 . S
H1856 N1850 0.984 . S
H1857 N1850 0.984 . S
H1858 N1846 0.984 . S
H1859 N1846 0.985 . S
C1860 C1861 1.363 . S
C1860 C1866 1.379 . S
C1860 N1868 1.356 . S
C1861 C1860 1.363 . S
C1861 C1867 1.363 . S
C1862 C1863 1.363 . S
C1862 C1867 1.379 . S
C1862 N1869 1.356 . S
C1863 C1862 1.363 . S
C1863 C1866 1.363 . S
N1864 C1866 1.356 . S
N1864 H1876 0.984 . S
N1864 H1877 0.985 . S
N1865 C1867 1.356 . S
N1865 H1870 0.984 . S
N1865 H1871 0.985 . S
C1866 C1860 1.379 . S
C1866 C1863 1.363 . S
C1866 N1864 1.356 . S
C1867 C1861 1.363 . S
C1867 C1862 1.379 . S
C1867 N1865 1.356 . S
N1868 C1860 1.356 . S
N1868 H1874 0.984 . S
N1868 H1875 0.984 . S
N1869 C1862 1.356 . S
N1869 H1872 0.984 . S
N1869 H1873 0.985 1_545 S
H1870 N1865 0.984 . S
H1871 N1865 0.985 . S
H1872 N1869 0.984 . S
H1873 N1869 0.985 1_565 S
H1874 N1868 0.984 . S
H1875 N1868 0.984 . S
H1876 N1864 0.984 . S
H1877 N1864 0.985 . S
C1878 C1879 1.363 . S
C1878 C1884 1.379 . S
C1878 N1886 1.356 . S
C1879 C1878 1.363 . S
C1879 C1885 1.363 . S
C1880 C1881 1.363 . S
C1880 C1885 1.379 . S
C1880 N1887 1.356 . S
C1881 C1880 1.363 . S
C1881 C1884 1.363 . S
N1882 C1884 1.356 . S
N1882 H1894 0.984 . S
N1882 H1895 0.985 . S
N1883 C1885 1.356 . S
N1883 H1888 0.984 . S
N1883 H1889 0.985 . S
C1884 C1878 1.379 . S
C1884 C1881 1.363 . S
C1884 N1882 1.356 . S
C1885 C1879 1.363 . S
C1885 C1880 1.379 . S
C1885 N1883 1.356 . S
N1886 C1878 1.356 . S
N1886 H1892 0.984 . S
N1886 H1893 0.984 . S
N1887 C1880 1.356 . S
N1887 H1890 0.984 . S
N1887 H1891 0.985 . S
H1888 N1883 0.984 . S
H1889 N1883 0.985 . S
H1890 N1887 0.984 . S
H1891 N1887 0.985 . S
H1892 N1886 0.984 . S
H1893 N1886 0.984 . S
H1894 N1882 0.984 . S
H1895 N1882 0.985 . S
C1896 C1897 1.363 1_455 S
C1896 C1902 1.379 . S
C1896 N1904 1.356 . S
C1897 C1896 1.363 1_655 S
C1897 C1903 1.363 . S
C1898 C1899 1.363 1_655 S
C1898 C1903 1.379 . S
C1898 N1905 1.356 1_545 S
C1899 C1898 1.363 1_455 S
C1899 C1902 1.363 . S
N1900 C1902 1.356 . S
N1900 H1912 0.984 . S
N1900 H1913 0.985 . S
N1901 C1903 1.356 1_565 S
N1901 H1906 0.984 . S
N1901 H1907 0.985 . S
C1902 C1896 1.379 . S
C1902 C1899 1.363 . S
C1902 N1900 1.356 . S
C1903 C1897 1.363 . S
C1903 C1898 1.379 . S
C1903 N1901 1.356 1_545 S
N1904 C1896 1.356 . S
N1904 H1910 0.984 . S
N1904 H1911 0.984 . S
N1905 C1898 1.356 1_565 S
N1905 H1908 0.984 . S
N1905 H1909 0.985 . S
H1906 N1901 0.984 . S
H1907 N1901 0.985 . S
H1908 N1905 0.984 . S
H1909 N1905 0.985 . S
H1910 N1904 0.984 . S
H1911 N1904 0.984 . S
H1912 N1900 0.984 . S
H1913 N1900 0.985 . S
C1914 C1915 1.363 . S
C1914 C1920 1.379 . S
C1914 N1922 1.356 . S
C1915 C1914 1.363 . S
C1915 C1921 1.363 . S
C1916 C1917 1.363 . S
C1916 C1921 1.379 . S
C1916 N1923 1.356 . S
C1917 C1916 1.363 . S
C1917 C1920 1.363 . S
N1918 C1920 1.356 . S
N1918 H1930 0.984 . S
N1918 H1931 0.985 . S
N1919 C1921 1.356 . S
N1919 H1924 0.984 . S
N1919 H1925 0.985 . S
C1920 C1914 1.379 . S
C1920 C1917 1.363 . S
C1920 N1918 1.356 . S
C1921 C1915 1.363 . S
C1921 C1916 1.379 . S
C1921 N1919 1.356 . S
N1922 C1914 1.356 . S
N1922 H1928 0.984 . S
N1922 H1929 0.984 . S
N1923 C1916 1.356 . S
N1923 H1926 0.984 . S
N1923 H1927 0.985 . S
H1924 N1919 0.984 . S
H1925 N1919 0.985 . S
H1926 N1923 0.984 . S
H1927 N1923 0.985 . S
H1928 N1922 0.984 . S
H1929 N1922 0.984 . S
H1930 N1918 0.984 . S
H1931 N1918 0.985 . S
C1932 C1933 1.363 . S
C1932 C1938 1.379 . S
C1932 N1940 1.356 . S
C1933 C1932 1.363 . S
C1933 C1939 1.363 . S
C1934 C1935 1.363 . S
C1934 C1939 1.379 . S
C1934 N1941 1.356 . S
C1935 C1934 1.363 . S
C1935 C1938 1.363 . S
N1936 C1938 1.356 . S
N1936 H1948 0.984 . S
N1936 H1949 0.985 . S
N1937 C1939 1.356 . S
N1937 H1942 0.984 . S
N1937 H1943 0.985 . S
C1938 C1932 1.379 . S
C1938 C1935 1.363 . S
C1938 N1936 1.356 . S
C1939 C1933 1.363 . S
C1939 C1934 1.379 . S
C1939 N1937 1.356 . S
N1940 C1932 1.356 . S
N1940 H1946 0.984 . S
N1940 H1947 0.984 . S
N1941 C1934 1.356 . S
N1941 H1944 0.984 . S
N1941 H1945 0.985 . S
H1942 N1937 0.984 . S
H1943 N1937 0.985 . S
H1944 N1941 0.984 . S
H1945 N1941 0.985 . S
H1946 N1940 0.984 . S
H1947 N1940 0.984 . S
H1948 N1936 0.984 . S
H1949 N1936 0.985 . S
C1950 C1951 1.363 . S
C1950 C1956 1.379 . S
C1950 N1958 1.356 . S
C1951 C1950 1.363 . S
C1951 C1957 1.363 . S
C1952 C1953 1.363 . S
C1952 C1957 1.379 . S
C1952 N1959 1.356 . S
C1953 C1952 1.363 . S
C1953 C1956 1.363 . S
N1954 C1956 1.356 . S
N1954 H1966 0.984 . S
N1954 H1967 0.985 . S
N1955 C1957 1.356 . S
N1955 H1960 0.984 . S
N1955 H1961 0.985 . S
C1956 C1950 1.379 . S
C1956 C1953 1.363 . S
C1956 N1954 1.356 . S
C1957 C1951 1.363 . S
C1957 C1952 1.379 . S
C1957 N1955 1.356 . S
N1958 C1950 1.356 . S
N1958 H1964 0.984 . S
N1958 H1965 0.984 . S
N1959 C1952 1.356 . S
N1959 H1962 0.984 . S
N1959 H1963 0.985 . S
H1960 N1955 0.984 . S
H1961 N1955 0.985 . S
H1962 N1959 0.984 . S
H1963 N1959 0.985 . S
H1964 N1958 0.984 . S
H1965 N1958 0.984 . S
H1966 N1954 0.984 . S
H1967 N1954 0.985 . S
C1968 C1969 1.365 1_544 S
C1968 C1974 1.389 . S
C1968 N1976 1.343 1_554 S
C1969 C1968 1.365 1_566 S
C1969 C1975 1.363 1_556 S
C1970 C1971 1.363 1_565 S
C1970 C1975 1.379 . S
C1970 N1977 1.356 . S
C1971 C1970 1.363 1_545 S
C1971 C1974 1.363 . S
N1972 C1974 1.356 . S
N1972 H1984 0.984 . S
N1972 H1985 0.985 . S
N1973 C1975 1.356 . S
N1973 H1978 0.984 1_554 S
N1973 H1979 0.985 . S
C1974 C1968 1.389 . S
C1974 C1971 1.363 . S
C1974 N1972 1.356 . S
C1975 C1969 1.363 1_554 S
C1975 C1970 1.379 . S
C1975 N1973 1.356 . S
N1976 C1968 1.343 1_556 S
N1976 H1982 0.984 . S
N1976 H1983 0.984 . S
N1977 C1970 1.356 . S
N1977 H1980 0.984 . S
N1977 H1981 0.985 . S
H1978 N1973 0.984 1_556 S
H1979 N1973 0.985 . S
H1980 N1977 0.984 . S
H1981 N1977 0.985 . S
H1982 N1976 0.984 . S
H1983 N1976 0.984 . S
H1984 N1972 0.984 . S
H1985 N1972 0.985 . S
C1986 C1987 1.363 1_556 S
C1986 C1992 1.379 . S
C1986 N1994 1.356 . S
C1987 C1986 1.363 1_554 S
C1987 C1993 1.363 . S
C1988 C1989 1.363 . S
C1988 C1993 1.379 . S
C1988 N1995 1.356 . S
C1989 C1988 1.363 . S
C1989 C1992 1.363 1_554 S
N1990 C1992 1.356 . S
N1990 H2002 0.984 . S
N1990 H2003 0.985 . S
N1991 C1993 1.356 . S
N1991 H1996 0.984 . S
N1991 H1997 0.985 . S
C1992 C1986 1.379 . S
C1992 C1989 1.363 1_556 S
C1992 N1990 1.356 . S
C1993 C1987 1.363 . S
C1993 C1988 1.379 . S
C1993 N1991 1.356 . S
N1994 C1986 1.356 . S
N1994 H2000 0.984 . S
N1994 H2001 0.984 . S
N1995 C1988 1.356 . S
N1995 H1998 0.984 . S
N1995 H1999 0.985 . S
H1996 N1991 0.984 . S
H1997 N1991 0.985 . S
H1998 N1995 0.984 . S
H1999 N1995 0.985 . S
H2000 N1994 0.984 . S
H2001 N1994 0.984 . S
H2002 N1990 0.984 . S
H2003 N1990 0.985 . S
C2004 C2005 1.363 . S
C2004 C2010 1.379 . S
C2004 N2012 1.356 . S
C2005 C2004 1.363 . S
C2005 C2011 1.363 . S
C2006 C2007 1.363 . S
C2006 C2011 1.379 . S
C2006 N2013 1.356 . S
C2007 C2006 1.363 . S
C2007 C2010 1.363 . S
N2008 C2010 1.356 . S
N2008 H2020 0.984 . S
N2008 H2021 0.985 . S
N2009 C2011 1.356 . S
N2009 H2014 0.984 . S
N2009 H2015 0.985 . S
C2010 C2004 1.379 . S
C2010 C2007 1.363 . S
C2010 N2008 1.356 . S
C2011 C2005 1.363 . S
C2011 C2006 1.379 . S
C2011 N2009 1.356 . S
N2012 C2004 1.356 . S
N2012 H2018 0.984 . S
N2012 H2019 0.984 . S
N2013 C2006 1.356 . S
N2013 H2016 0.984 . S
N2013 H2017 0.985 . S
H2014 N2009 0.984 . S
H2015 N2009 0.985 . S
H2016 N2013 0.984 . S
H2017 N2013 0.985 . S
H2018 N2012 0.984 . S
H2019 N2012 0.984 . S
H2020 N2008 0.984 . S
H2021 N2008 0.985 . S
C2022 C2023 1.363 . S
C2022 C2028 1.379 . S
C2022 N2030 1.356 . S
C2023 C2022 1.363 . S
C2023 C2029 1.363 . S
C2024 C2025 1.363 . S
C2024 C2029 1.379 . S
C2024 N2031 1.356 . S
C2025 C2024 1.363 . S
C2025 C2028 1.363 . S
N2026 C2028 1.356 . S
N2026 H2038 0.984 . S
N2026 H2039 0.985 . S
N2027 C2029 1.356 . S
N2027 H2032 0.984 . S
N2027 H2033 0.985 . S
C2028 C2022 1.379 . S
C2028 C2025 1.363 . S
C2028 N2026 1.356 . S
C2029 C2023 1.363 . S
C2029 C2024 1.379 . S
C2029 N2027 1.356 . S
N2030 C2022 1.356 . S
N2030 H2036 0.984 . S
N2030 H2037 0.984 . S
N2031 C2024 1.356 . S
N2031 H2034 0.984 . S
N2031 H2035 0.985 . S
H2032 N2027 0.984 . S
H2033 N2027 0.985 . S
H2034 N2031 0.984 . S
H2035 N2031 0.985 . S
H2036 N2030 0.984 . S
H2037 N2030 0.984 . S
H2038 N2026 0.984 . S
H2039 N2026 0.985 . S
C2040 C2041 1.363 . S
C2040 C2046 1.379 . S
C2040 N2048 1.356 . S
C2041 C2040 1.363 . S
C2041 C2047 1.363 . S
C2042 C2043 1.363 . S
C2042 C2047 1.379 . S
C2042 N2049 1.356 . S
C2043 C2042 1.363 . S
C2043 C2046 1.363 . S
N2044 C2046 1.356 . S
N2044 H2056 0.984 . S
N2044 H2057 0.985 . S
N2045 C2047 1.356 . S
N2045 H2050 0.984 . S
N2045 H2051 0.985 . S
C2046 C2040 1.379 . S
C2046 C2043 1.363 . S
C2046 N2044 1.356 . S
C2047 C2041 1.363 . S
C2047 C2042 1.379 . S
C2047 N2045 1.356 . S
N2048 C2040 1.356 . S
N2048 H2054 0.984 . S
N2048 H2055 0.984 . S
N2049 C2042 1.356 . S
N2049 H2052 0.984 . S
N2049 H2053 0.985 . S
H2050 N2045 0.984 . S
H2051 N2045 0.985 . S
H2052 N2049 0.984 . S
H2053 N2049 0.985 . S
H2054 N2048 0.984 . S
H2055 N2048 0.984 . S
H2056 N2044 0.984 . S
H2057 N2044 0.985 . S
C2058 C2059 1.363 . S
C2058 C2064 1.379 . S
C2058 N2066 1.356 . S
C2059 C2058 1.363 . S
C2059 C2065 1.363 . S
C2060 C2061 1.363 . S
C2060 C2065 1.379 . S
C2060 N2067 1.356 . S
C2061 C2060 1.363 . S
C2061 C2064 1.363 . S
N2062 C2064 1.356 . S
N2062 H2074 0.984 . S
N2062 H2075 0.985 . S
N2063 C2065 1.356 . S
N2063 H2068 0.984 . S
N2063 H2069 0.985 . S
C2064 C2058 1.379 . S
C2064 C2061 1.363 . S
C2064 N2062 1.356 . S
C2065 C2059 1.363 . S
C2065 C2060 1.379 . S
C2065 N2063 1.356 . S
N2066 C2058 1.356 . S
N2066 H2072 0.984 . S
N2066 H2073 0.984 . S
N2067 C2060 1.356 . S
N2067 H2070 0.984 . S
N2067 H2071 0.985 . S
H2068 N2063 0.984 . S
H2069 N2063 0.985 . S
H2070 N2067 0.984 . S
H2071 N2067 0.985 . S
H2072 N2066 0.984 . S
H2073 N2066 0.984 . S
H2074 N2062 0.984 . S
H2075 N2062 0.985 . S
C2076 C2077 1.363 . S
C2076 C2082 1.379 . S
C2076 N2084 1.356 . S
C2077 C2076 1.363 . S
C2077 C2083 1.363 . S
C2078 C2079 1.363 . S
C2078 C2083 1.379 . S
C2078 N2085 1.356 . S
C2079 C2078 1.363 . S
C2079 C2082 1.363 . S
N2080 C2082 1.356 . S
N2080 H2092 0.984 . S
N2080 H2093 0.985 . S
N2081 C2083 1.356 . S
N2081 H2086 0.984 . S
N2081 H2087 0.985 . S
C2082 C2076 1.379 . S
C2082 C2079 1.363 . S
C2082 N2080 1.356 . S
C2083 C2077 1.363 . S
C2083 C2078 1.379 . S
C2083 N2081 1.356 . S
N2084 C2076 1.356 . S
N2084 H2090 0.984 . S
N2084 H2091 0.984 . S
N2085 C2078 1.356 . S
N2085 H2088 0.984 . S
N2085 H2089 0.985 . S
H2086 N2081 0.984 . S
H2087 N2081 0.985 . S
H2088 N2085 0.984 . S
H2089 N2085 0.985 . S
H2090 N2084 0.984 . S
H2091 N2084 0.984 . S
H2092 N2080 0.984 . S
H2093 N2080 0.985 . S
C2094 C2095 1.363 . S
C2094 C2100 1.379 . S
C2094 N2102 1.356 . S
C2095 C2094 1.363 . S
C2095 C2101 1.363 . S
C2096 C2097 1.363 . S
C2096 C2101 1.379 . S
C2096 N2103 1.356 . S
C2097 C2096 1.363 . S
C2097 C2100 1.363 . S
N2098 C2100 1.356 . S
N2098 H2110 0.984 . S
N2098 H2111 0.985 . S
N2099 C2101 1.356 . S
N2099 H2104 0.984 . S
N2099 H2105 0.985 . S
C2100 C2094 1.379 . S
C2100 C2097 1.363 . S
C2100 N2098 1.356 . S
C2101 C2095 1.363 . S
C2101 C2096 1.379 . S
C2101 N2099 1.356 . S
N2102 C2094 1.356 . S
N2102 H2108 0.984 . S
N2102 H2109 0.984 . S
N2103 C2096 1.356 . S
N2103 H2106 0.984 . S
N2103 H2107 0.985 . S
H2104 N2099 0.984 . S
H2105 N2099 0.985 . S
H2106 N2103 0.984 . S
H2107 N2103 0.985 . S
H2108 N2102 0.984 . S
H2109 N2102 0.984 . S
H2110 N2098 0.984 . S
H2111 N2098 0.985 . S
C2112 C2113 1.363 . S
C2112 C2118 1.379 . S
C2112 N2120 1.356 . S
C2113 C2112 1.363 . S
C2113 C2119 1.363 . S
C2114 C2115 1.363 . S
C2114 C2119 1.379 . S
C2114 N2121 1.356 . S
C2115 C2114 1.363 . S
C2115 C2118 1.363 . S
N2116 C2118 1.356 . S
N2116 H2128 0.984 . S
N2116 H2129 0.985 . S
N2117 C2119 1.356 . S
N2117 H2122 0.984 . S
N2117 H2123 0.985 . S
C2118 C2112 1.379 . S
C2118 C2115 1.363 . S
C2118 N2116 1.356 . S
C2119 C2113 1.363 . S
C2119 C2114 1.379 . S
C2119 N2117 1.356 . S
N2120 C2112 1.356 . S
N2120 H2126 0.984 . S
N2120 H2127 0.984 . S
N2121 C2114 1.356 . S
N2121 H2124 0.984 . S
N2121 H2125 0.985 1_554 S
H2122 N2117 0.984 . S
H2123 N2117 0.985 . S
H2124 N2121 0.984 . S
H2125 N2121 0.985 1_556 S
H2126 N2120 0.984 . S
H2127 N2120 0.984 . S
H2128 N2116 0.984 . S
H2129 N2116 0.985 . S
C2130 C2131 1.363 . S
C2130 C2136 1.379 . S
C2130 N2138 1.356 . S
C2131 C2130 1.363 . S
C2131 C2137 1.363 . S
C2132 C2133 1.363 . S
C2132 C2137 1.379 . S
C2132 N2139 1.356 . S
C2133 C2132 1.363 . S
C2133 C2136 1.363 . S
N2134 C2136 1.356 . S
N2134 H2146 0.984 . S
N2134 H2147 0.985 . S
N2135 C2137 1.356 . S
N2135 H2140 0.984 . S
N2135 H2141 0.985 . S
C2136 C2130 1.379 . S
C2136 C2133 1.363 . S
C2136 N2134 1.356 . S
C2137 C2131 1.363 . S
C2137 C2132 1.379 . S
C2137 N2135 1.356 . S
N2138 C2130 1.356 . S
N2138 H2144 0.984 . S
N2138 H2145 0.984 . S
N2139 C2132 1.356 . S
N2139 H2142 0.984 . S
N2139 H2143 0.985 . S
H2140 N2135 0.984 . S
H2141 N2135 0.985 . S
H2142 N2139 0.984 . S
H2143 N2139 0.985 . S
H2144 N2138 0.984 . S
H2145 N2138 0.984 . S
H2146 N2134 0.984 . S
H2147 N2134 0.985 . S
C2148 C2149 1.363 . S
C2148 C2154 1.379 . S
C2148 N2156 1.356 . S
C2149 C2148 1.363 . S
C2149 C2155 1.363 . S
C2150 C2151 1.363 . S
C2150 C2155 1.379 . S
C2150 N2157 1.356 . S
C2151 C2150 1.363 . S
C2151 C2154 1.363 . S
N2152 C2154 1.356 . S
N2152 H2164 0.984 . S
N2152 H2165 0.985 . S
N2153 C2155 1.356 . S
N2153 H2158 0.984 . S
N2153 H2159 0.985 . S
C2154 C2148 1.379 . S
C2154 C2151 1.363 . S
C2154 N2152 1.356 . S
C2155 C2149 1.363 . S
C2155 C2150 1.379 . S
C2155 N2153 1.356 . S
N2156 C2148 1.356 . S
N2156 H2162 0.984 . S
N2156 H2163 0.984 . S
N2157 C2150 1.356 . S
N2157 H2160 0.984 . S
N2157 H2161 0.985 . S
H2158 N2153 0.984 . S
H2159 N2153 0.985 . S
H2160 N2157 0.984 . S
H2161 N2157 0.985 . S
H2162 N2156 0.984 . S
H2163 N2156 0.984 . S
H2164 N2152 0.984 . S
H2165 N2152 0.985 . S
C2166 C2167 1.363 . S
C2166 C2172 1.379 . S
C2166 N2174 1.356 . S
C2167 C2166 1.363 . S
C2167 C2173 1.363 . S
C2168 C2169 1.363 . S
C2168 C2173 1.379 . S
C2168 N2175 1.356 . S
C2169 C2168 1.363 . S
C2169 C2172 1.363 . S
N2170 C2172 1.356 . S
N2170 H2182 0.984 . S
N2170 H2183 0.985 . S
N2171 C2173 1.356 . S
N2171 H2176 0.984 . S
N2171 H2177 0.985 . S
C2172 C2166 1.379 . S
C2172 C2169 1.363 . S
C2172 N2170 1.356 . S
C2173 C2167 1.363 . S
C2173 C2168 1.379 . S
C2173 N2171 1.356 . S
N2174 C2166 1.356 . S
N2174 H2180 0.984 . S
N2174 H2181 0.984 . S
N2175 C2168 1.356 . S
N2175 H2178 0.984 . S
N2175 H2179 0.985 . S
H2176 N2171 0.984 . S
H2177 N2171 0.985 . S
H2178 N2175 0.984 . S
H2179 N2175 0.985 . S
H2180 N2174 0.984 . S
H2181 N2174 0.984 . S
H2182 N2170 0.984 . S
H2183 N2170 0.985 . S
C2184 C2185 1.363 . S
C2184 C2190 1.379 . S
C2184 N2192 1.356 . S
C2185 C2184 1.363 . S
C2185 C2191 1.363 . S
C2186 C2187 1.363 . S
C2186 C2191 1.379 . S
C2186 N2193 1.356 . S
C2187 C2186 1.363 . S
C2187 C2190 1.363 . S
N2188 C2190 1.356 . S
N2188 H2200 0.984 1_455 S
N2188 H2201 0.985 . S
N2189 C2191 1.356 . S
N2189 H2194 0.984 . S
N2189 H2195 0.985 . S
C2190 C2184 1.379 . S
C2190 C2187 1.363 . S
C2190 N2188 1.356 . S
C2191 C2185 1.363 . S
C2191 C2186 1.379 . S
C2191 N2189 1.356 . S
N2192 C2184 1.356 . S
N2192 H2198 0.984 . S
N2192 H2199 0.984 . S
N2193 C2186 1.356 . S
N2193 H2196 0.984 . S
N2193 H2197 0.985 . S
H2194 N2189 0.984 . S
H2195 N2189 0.985 . S
H2196 N2193 0.984 . S
H2197 N2193 0.985 . S
H2198 N2192 0.984 . S
H2199 N2192 0.984 . S
H2200 N2188 0.984 1_655 S
H2201 N2188 0.985 . S
C2202 C2203 1.363 . S
C2202 C2208 1.379 . S
C2202 N2210 1.356 . S
C2203 C2202 1.363 . S
C2203 C2209 1.363 . S
C2204 C2205 1.363 . S
C2204 C2209 1.379 . S
C2204 N2211 1.356 . S
C2205 C2204 1.363 . S
C2205 C2208 1.363 . S
N2206 C2208 1.356 . S
N2206 H2218 0.984 . S
N2206 H2219 0.985 . S
N2207 C2209 1.356 . S
N2207 H2212 0.984 . S
N2207 H2213 0.985 . S
C2208 C2202 1.379 . S
C2208 C2205 1.363 . S
C2208 N2206 1.356 . S
C2209 C2203 1.363 . S
C2209 C2204 1.379 . S
C2209 N2207 1.356 . S
N2210 C2202 1.356 . S
N2210 H2216 0.984 . S
N2210 H2217 0.984 . S
N2211 C2204 1.356 . S
N2211 H2214 0.984 . S
N2211 H2215 0.985 . S
H2212 N2207 0.984 . S
H2213 N2207 0.985 . S
H2214 N2211 0.984 . S
H2215 N2211 0.985 . S
H2216 N2210 0.984 . S
H2217 N2210 0.984 . S
H2218 N2206 0.984 . S
H2219 N2206 0.985 . S
C2220 C2221 1.363 . S
C2220 C2226 1.379 . S
C2220 N2228 1.356 . S
C2221 C2220 1.363 . S
C2221 C2227 1.363 . S
C2222 C2223 1.363 . S
C2222 C2227 1.379 . S
C2222 N2229 1.356 . S
C2223 C2222 1.363 . S
C2223 C2226 1.363 . S
N2224 C2226 1.337 1_554 S
N2224 H2236 0.997 . S
N2224 H2237 0.992 . S
N2225 C2227 1.356 . S
N2225 H2230 0.984 . S
N2225 H2231 0.985 . S
C2226 C2220 1.379 . S
C2226 C2223 1.363 . S
C2226 N2224 1.337 1_556 S
C2227 C2221 1.363 . S
C2227 C2222 1.379 . S
C2227 N2225 1.356 . S
N2228 C2220 1.356 . S
N2228 H2234 0.984 . S
N2228 H2235 0.984 . S
N2229 C2222 1.356 . S
N2229 H2232 0.984 1_565 S
N2229 H2233 0.985 1_565 S
H2230 N2225 0.984 . S
H2231 N2225 0.985 . S
H2232 N2229 0.984 1_545 S
H2233 N2229 0.985 1_545 S
H2234 N2228 0.984 . S
H2235 N2228 0.984 . S
H2236 N2224 0.997 . S
H2237 N2224 0.992 . S
C2238 C2239 1.363 . S
C2238 C2244 1.379 . S
C2238 N2246 1.356 . S
C2239 C2238 1.363 . S
C2239 C2245 1.363 . S
C2240 C2241 1.363 . S
C2240 C2245 1.379 . S
C2240 N2247 1.356 . S
C2241 C2240 1.363 . S
C2241 C2244 1.363 . S
N2242 C2244 1.356 . S
N2242 H2254 0.984 . S
N2242 H2255 0.985 . S
N2243 C2245 1.356 . S
N2243 H2248 0.984 . S
N2243 H2249 0.985 . S
C2244 C2238 1.379 . S
C2244 C2241 1.363 . S
C2244 N2242 1.356 . S
C2245 C2239 1.363 . S
C2245 C2240 1.379 . S
C2245 N2243 1.356 . S
N2246 C2238 1.356 . S
N2246 H2252 0.984 . S
N2246 H2253 0.984 . S
N2247 C2240 1.356 . S
N2247 H2250 0.984 . S
N2247 H2251 0.985 . S
H2248 N2243 0.984 . S
H2249 N2243 0.985 . S
H2250 N2247 0.984 . S
H2251 N2247 0.985 . S
H2252 N2246 0.984 . S
H2253 N2246 0.984 . S
H2254 N2242 0.984 . S
H2255 N2242 0.985 . S
C2256 C2257 1.363 . S
C2256 C2262 1.379 . S
C2256 N2264 1.356 . S
C2257 C2256 1.363 . S
C2257 C2263 1.363 . S
C2258 C2259 1.363 . S
C2258 C2263 1.379 . S
C2258 N2265 1.356 . S
C2259 C2258 1.363 . S
C2259 C2262 1.363 . S
N2260 C2262 1.356 . S
N2260 H2272 0.984 . S
N2260 H2273 0.985 . S
N2261 C2263 1.356 . S
N2261 H2266 0.984 . S
N2261 H2267 0.985 . S
C2262 C2256 1.379 . S
C2262 C2259 1.363 . S
C2262 N2260 1.356 . S
C2263 C2257 1.363 . S
C2263 C2258 1.379 . S
C2263 N2261 1.356 . S
N2264 C2256 1.356 . S
N2264 H2270 0.984 . S
N2264 H2271 0.984 . S
N2265 C2258 1.356 . S
N2265 H2268 0.984 . S
N2265 H2269 0.985 1_545 S
H2266 N2261 0.984 . S
H2267 N2261 0.985 . S
H2268 N2265 0.984 . S
H2269 N2265 0.985 1_565 S
H2270 N2264 0.984 . S
H2271 N2264 0.984 . S
H2272 N2260 0.984 . S
H2273 N2260 0.985 . S
C2274 C2275 1.363 . S
C2274 C2280 1.379 . S
C2274 N2282 1.356 . S
C2275 C2274 1.363 . S
C2275 C2281 1.363 . S
C2276 C2277 1.363 . S
C2276 C2281 1.379 . S
C2276 N2283 1.356 . S
C2277 C2276 1.363 . S
C2277 C2280 1.363 . S
N2278 C2280 1.356 . S
N2278 H2290 0.984 . S
N2278 H2291 0.985 . S
N2279 C2281 1.356 . S
N2279 H2284 0.984 . S
N2279 H2285 0.985 . S
C2280 C2274 1.379 . S
C2280 C2277 1.363 . S
C2280 N2278 1.356 . S
C2281 C2275 1.363 . S
C2281 C2276 1.379 . S
C2281 N2279 1.356 . S
N2282 C2274 1.356 . S
N2282 H2288 0.984 . S
N2282 H2289 0.984 . S
N2283 C2276 1.356 . S
N2283 H2286 0.984 . S
N2283 H2287 0.985 . S
H2284 N2279 0.984 . S
H2285 N2279 0.985 . S
H2286 N2283 0.984 . S
H2287 N2283 0.985 . S
H2288 N2282 0.984 . S
H2289 N2282 0.984 . S
H2290 N2278 0.984 . S
H2291 N2278 0.985 . S
C2292 C2293 1.363 . S
C2292 C2298 1.379 . S
C2292 N2300 1.356 . S
C2293 C2292 1.363 . S
C2293 C2299 1.363 . S
C2294 C2295 1.363 . S
C2294 C2299 1.379 . S
C2294 N2301 1.356 . S
C2295 C2294 1.363 . S
C2295 C2298 1.363 . S
N2296 C2298 1.356 . S
N2296 H2308 0.984 . S
N2296 H2309 0.985 . S
N2297 C2299 1.356 . S
N2297 H2302 0.984 . S
N2297 H2303 0.985 . S
C2298 C2292 1.379 . S
C2298 C2295 1.363 . S
C2298 N2296 1.356 . S
C2299 C2293 1.363 . S
C2299 C2294 1.379 . S
C2299 N2297 1.356 . S
N2300 C2292 1.356 . S
N2300 H2306 0.984 . S
N2300 H2307 0.984 . S
N2301 C2294 1.356 . S
N2301 H2304 0.984 . S
N2301 H2305 0.985 . S
H2302 N2297 0.984 . S
H2303 N2297 0.985 . S
H2304 N2301 0.984 . S
H2305 N2301 0.985 . S
H2306 N2300 0.984 . S
H2307 N2300 0.984 . S
H2308 N2296 0.984 . S
H2309 N2296 0.985 . S
C2310 C2311 1.363 . S
C2310 C2316 1.379 . S
C2310 N2318 1.356 . S
C2311 C2310 1.363 . S
C2311 C2317 1.363 . S
C2312 C2313 1.363 . S
C2312 C2317 1.379 . S
C2312 N2319 1.356 . S
C2313 C2312 1.363 . S
C2313 C2316 1.363 . S
N2314 C2316 1.356 . S
N2314 H2326 0.984 . S
N2314 H2327 0.985 . S
N2315 C2317 1.356 . S
N2315 H2320 0.984 . S
N2315 H2321 0.985 . S
C2316 C2310 1.379 . S
C2316 C2313 1.363 . S
C2316 N2314 1.356 . S
C2317 C2311 1.363 . S
C2317 C2312 1.379 . S
C2317 N2315 1.356 . S
N2318 C2310 1.356 . S
N2318 H2324 0.984 . S
N2318 H2325 0.984 . S
N2319 C2312 1.356 . S
N2319 H2322 0.984 . S
N2319 H2323 0.985 . S
H2320 N2315 0.984 . S
H2321 N2315 0.985 . S
H2322 N2319 0.984 . S
H2323 N2319 0.985 . S
H2324 N2318 0.984 . S
H2325 N2318 0.984 . S
H2326 N2314 0.984 . S
H2327 N2314 0.985 . S
C2328 C2329 1.363 . S
C2328 C2334 1.379 . S
C2328 N2336 1.356 . S
C2329 C2328 1.363 . S
C2329 C2335 1.363 . S
C2330 C2331 1.363 . S
C2330 C2335 1.379 . S
C2330 N2337 1.356 . S
C2331 C2330 1.363 . S
C2331 C2334 1.363 . S
N2332 C2334 1.356 . S
N2332 H2344 1.019 . S
N2332 H2345 0.985 . S
N2333 C2335 1.356 . S
N2333 H2338 0.984 . S
N2333 H2339 0.985 . S
C2334 C2328 1.379 . S
C2334 C2331 1.363 . S
C2334 N2332 1.356 . S
C2335 C2329 1.363 . S
C2335 C2330 1.379 . S
C2335 N2333 1.356 . S
N2336 C2328 1.356 . S
N2336 H2342 0.984 . S
N2336 H2343 0.984 . S
N2337 C2330 1.356 . S
N2337 H2340 0.984 . S
N2337 H2341 0.985 . S
H2338 N2333 0.984 . S
H2339 N2333 0.985 . S
H2340 N2337 0.984 . S
H2341 N2337 0.985 . S
H2342 N2336 0.984 . S
H2343 N2336 0.984 . S
H2344 N2332 1.019 . S
H2345 N2332 0.985 . S
C2346 C2347 1.363 . S
C2346 C2352 1.379 . S
C2346 N2354 1.356 . S
C2347 C2346 1.363 . S
C2347 C2353 1.363 . S
C2348 C2349 1.363 . S
C2348 C2353 1.379 . S
C2348 N2355 1.356 . S
C2349 C2348 1.363 . S
C2349 C2352 1.363 . S
N2350 C2352 1.356 . S
N2350 H2362 0.984 . S
N2350 H2363 0.985 . S
N2351 C2353 1.356 . S
N2351 H2356 0.984 . S
N2351 H2357 0.985 . S
C2352 C2346 1.379 . S
C2352 C2349 1.363 . S
C2352 N2350 1.356 . S
C2353 C2347 1.363 . S
C2353 C2348 1.379 . S
C2353 N2351 1.356 . S
N2354 C2346 1.356 . S
N2354 H2360 0.984 . S
N2354 H2361 0.984 . S
N2355 C2348 1.356 . S
N2355 H2358 0.984 . S
N2355 H2359 0.985 . S
H2356 N2351 0.984 . S
H2357 N2351 0.985 . S
H2358 N2355 0.984 . S
H2359 N2355 0.985 . S
H2360 N2354 0.984 . S
H2361 N2354 0.984 . S
H2362 N2350 0.984 . S
H2363 N2350 0.985 . S
C2364 C2365 1.363 . S
C2364 C2370 1.379 . S
C2364 N2372 1.356 . S
C2365 C2364 1.363 . S
C2365 C2371 1.363 1_565 S
C2366 C2367 1.363 . S
C2366 C2371 1.379 . S
C2366 N2373 1.356 . S
C2367 C2366 1.363 . S
C2367 C2370 1.363 1_545 S
N2368 C2370 1.356 . S
N2368 H2380 0.984 . S
N2368 H2381 0.985 . S
N2369 C2371 1.356 . S
N2369 H2374 0.984 . S
N2369 H2375 0.985 . S
C2370 C2364 1.379 . S
C2370 C2367 1.363 1_565 S
C2370 N2368 1.356 . S
C2371 C2365 1.363 1_545 S
C2371 C2366 1.379 . S
C2371 N2369 1.356 . S
N2372 C2364 1.356 . S
N2372 H2378 0.984 . S
N2372 H2379 0.984 . S
N2373 C2366 1.356 . S
N2373 H2376 0.984 . S
N2373 H2377 0.985 . S
H2374 N2369 0.984 . S
H2375 N2369 0.985 . S
H2376 N2373 0.984 . S
H2377 N2373 0.985 . S
H2378 N2372 0.984 . S
H2379 N2372 0.984 . S
H2380 N2368 0.984 . S
H2381 N2368 0.985 . S
C2382 C2383 1.363 . S
C2382 C2388 1.379 . S
C2382 N2390 1.356 . S
C2383 C2382 1.363 . S
C2383 C2389 1.363 . S
C2384 C2385 1.363 . S
C2384 C2389 1.379 . S
C2384 N2391 1.356 . S
C2385 C2384 1.363 . S
C2385 C2388 1.363 . S
N2386 C2388 1.356 . S
N2386 H2398 0.984 . S
N2386 H2399 0.985 . S
N2387 C2389 1.356 . S
N2387 H2392 0.984 . S
N2387 H2393 0.985 . S
C2388 C2382 1.379 . S
C2388 C2385 1.363 . S
C2388 N2386 1.356 . S
C2389 C2383 1.363 . S
C2389 C2384 1.379 . S
C2389 N2387 1.356 . S
N2390 C2382 1.356 . S
N2390 H2396 0.984 . S
N2390 H2397 0.984 . S
N2391 C2384 1.356 . S
N2391 H2394 0.984 . S
N2391 H2395 0.985 . S
H2392 N2387 0.984 . S
H2393 N2387 0.985 . S
H2394 N2391 0.984 . S
H2395 N2391 0.985 . S
H2396 N2390 0.984 . S
H2397 N2390 0.984 . S
H2398 N2386 0.984 . S
H2399 N2386 0.985 . S
C2400 C2401 1.363 . S
C2400 C2406 1.379 . S
C2400 N2408 1.356 . S
C2401 C2400 1.363 . S
C2401 C2407 1.363 . S
C2402 C2403 1.363 . S
C2402 C2407 1.379 . S
C2402 N2409 1.356 . S
C2403 C2402 1.363 . S
C2403 C2406 1.363 . S
N2404 C2406 1.356 1_556 S
N2404 H2416 0.984 . S
N2404 H2417 0.985 . S
N2405 C2407 1.356 . S
N2405 H2410 0.984 . S
N2405 H2411 0.985 . S
C2406 C2400 1.379 . S
C2406 C2403 1.363 . S
C2406 N2404 1.356 1_554 S
C2407 C2401 1.363 . S
C2407 C2402 1.379 . S
C2407 N2405 1.356 . S
N2408 C2400 1.356 . S
N2408 H2414 0.984 . S
N2408 H2415 0.984 . S
N2409 C2402 1.356 . S
N2409 H2412 0.984 . S
N2409 H2413 0.985 . S
H2410 N2405 0.984 . S
H2411 N2405 0.985 . S
H2412 N2409 0.984 . S
H2413 N2409 0.985 . S
H2414 N2408 0.984 . S
H2415 N2408 0.984 . S
H2416 N2404 0.984 . S
H2417 N2404 0.985 . S
C2418 C2419 1.363 . S
C2418 C2424 1.379 . S
C2418 N2426 1.356 . S
C2419 C2418 1.363 . S
C2419 C2425 1.363 . S
C2420 C2421 1.363 . S
C2420 C2425 1.379 . S
C2420 N2427 1.356 . S
C2421 C2420 1.363 . S
C2421 C2424 1.363 . S
N2422 C2424 1.356 . S
N2422 H2434 0.984 . S
N2422 H2435 0.985 . S
N2423 C2425 1.356 . S
N2423 H2428 0.984 . S
N2423 H2429 0.985 1_554 S
C2424 C2418 1.379 . S
C2424 C2421 1.363 . S
C2424 N2422 1.356 . S
C2425 C2419 1.363 . S
C2425 C2420 1.379 . S
C2425 N2423 1.356 . S
N2426 C2418 1.356 . S
N2426 H2432 0.984 . S
N2426 H2433 0.984 . S
N2427 C2420 1.356 . S
N2427 H2430 0.984 . S
N2427 H2431 0.985 1_554 S
H2428 N2423 0.984 . S
H2429 N2423 0.985 1_556 S
H2430 N2427 0.984 . S
H2431 N2427 0.985 1_556 S
H2432 N2426 0.984 . S
H2433 N2426 0.984 . S
H2434 N2422 0.984 . S
H2435 N2422 0.985 . S
C2436 C2437 1.363 . S
C2436 C2442 1.379 . S
C2436 N2444 1.356 . S
C2437 C2436 1.363 . S
C2437 C2443 1.363 . S
C2438 C2439 1.363 . S
C2438 C2443 1.379 . S
C2438 N2445 1.356 . S
C2439 C2438 1.363 . S
C2439 C2442 1.363 . S
N2440 C2442 1.356 . S
N2440 H2452 0.984 . S
N2440 H2453 0.985 . S
N2441 C2443 1.356 . S
N2441 H2446 0.984 . S
N2441 H2447 0.985 . S
C2442 C2436 1.379 . S
C2442 C2439 1.363 . S
C2442 N2440 1.356 . S
C2443 C2437 1.363 . S
C2443 C2438 1.379 . S
C2443 N2441 1.356 . S
N2444 C2436 1.356 . S
N2444 H2450 0.984 . S
N2444 H2451 0.984 . S
N2445 C2438 1.356 . S
N2445 H2448 0.984 . S
N2445 H2449 0.985 . S
H2446 N2441 0.984 . S
H2447 N2441 0.985 . S
H2448 N2445 0.984 . S
H2449 N2445 0.985 . S
H2450 N2444 0.984 . S
H2451 N2444 0.984 . S
H2452 N2440 0.984 . S
H2453 N2440 0.985 . S
C2454 C2455 1.363 . S
C2454 C2460 1.379 . S
C2454 N2462 1.356 . S
C2455 C2454 1.363 . S
C2455 C2461 1.363 . S
C2456 C2457 1.363 . S
C2456 C2461 1.379 . S
C2456 N2463 1.356 . S
C2457 C2456 1.363 . S
C2457 C2460 1.363 . S
N2458 C2460 1.356 . S
N2458 H2470 0.984 . S
N2458 H2471 0.985 . S
N2459 C2461 1.356 . S
N2459 H2464 0.984 . S
N2459 H2465 0.985 . S
C2460 C2454 1.379 . S
C2460 C2457 1.363 . S
C2460 N2458 1.356 . S
C2461 C2455 1.363 . S
C2461 C2456 1.379 . S
C2461 N2459 1.356 . S
N2462 C2454 1.356 . S
N2462 H2468 0.984 . S
N2462 H2469 0.984 . S
N2463 C2456 1.356 . S
N2463 H2466 0.984 . S
N2463 H2467 0.985 . S
H2464 N2459 0.984 . S
H2465 N2459 0.985 . S
H2466 N2463 0.984 . S
H2467 N2463 0.985 . S
H2468 N2462 0.984 . S
H2469 N2462 0.984 . S
H2470 N2458 0.984 . S
H2471 N2458 0.985 . S
C2472 C2473 1.363 1_565 S
C2472 C2478 1.379 . S
C2472 N2480 1.356 . S
C2473 C2472 1.363 1_545 S
C2473 C2479 1.363 . S
C2474 C2475 1.363 1_545 S
C2474 C2479 1.379 . S
C2474 N2481 1.356 . S
C2475 C2474 1.363 1_565 S
C2475 C2478 1.363 . S
N2476 C2478 1.356 . S
N2476 H2488 0.984 . S
N2476 H2489 0.985 . S
N2477 C2479 1.356 . S
N2477 H2482 0.984 . S
N2477 H2483 0.985 . S
C2478 C2472 1.379 . S
C2478 C2475 1.363 . S
C2478 N2476 1.356 . S
C2479 C2473 1.363 . S
C2479 C2474 1.379 . S
C2479 N2477 1.356 . S
N2480 C2472 1.356 . S
N2480 H2486 0.984 . S
N2480 H2487 0.984 . S
N2481 C2474 1.356 . S
N2481 H2484 0.949 1_545 S
N2481 H2485 0.985 . S
H2482 N2477 0.984 . S
H2483 N2477 0.985 . S
H2484 N2481 0.949 1_565 S
H2485 N2481 0.985 . S
H2486 N2480 0.984 . S
H2487 N2480 0.984 . S
H2488 N2476 0.984 . S
H2489 N2476 0.985 . S
C2490 C2491 1.363 . S
C2490 C2496 1.379 . S
C2490 N2498 1.356 . S
C2491 C2490 1.363 . S
C2491 C2497 1.363 . S
C2492 C2493 1.363 . S
C2492 C2497 1.379 . S
C2492 N2499 1.356 . S
C2493 C2492 1.363 . S
C2493 C2496 1.363 . S
N2494 C2496 1.356 . S
N2494 H2506 0.984 . S
N2494 H2507 0.985 . S
N2495 C2497 1.356 . S
N2495 H2500 0.984 . S
N2495 H2501 0.985 . S
C2496 C2490 1.379 . S
C2496 C2493 1.363 . S
C2496 N2494 1.356 . S
C2497 C2491 1.363 . S
C2497 C2492 1.379 . S
C2497 N2495 1.356 . S
N2498 C2490 1.356 . S
N2498 H2504 0.984 . S
N2498 H2505 0.984 . S
N2499 C2492 1.356 . S
N2499 H2502 0.984 . S
N2499 H2503 0.985 . S
H2500 N2495 0.984 . S
H2501 N2495 0.985 . S
H2502 N2499 0.984 . S
H2503 N2499 0.985 . S
H2504 N2498 0.984 . S
H2505 N2498 0.984 . S
H2506 N2494 0.984 . S
H2507 N2494 0.985 . S
C2508 C2509 1.363 . S
C2508 C2514 1.379 . S
C2508 N2516 1.356 . S
C2509 C2508 1.363 . S
C2509 C2515 1.363 . S
C2510 C2511 1.363 . S
C2510 C2515 1.379 . S
C2510 N2517 1.356 . S
C2511 C2510 1.363 . S
C2511 C2514 1.363 . S
N2512 C2514 1.356 . S
N2512 H2524 0.984 . S
N2512 H2525 0.985 . S
N2513 C2515 1.356 . S
N2513 H2518 0.984 . S
N2513 H2519 0.985 . S
C2514 C2508 1.379 . S
C2514 C2511 1.363 . S
C2514 N2512 1.356 . S
C2515 C2509 1.363 . S
C2515 C2510 1.379 . S
C2515 N2513 1.356 . S
N2516 C2508 1.356 . S
N2516 H2522 0.984 . S
N2516 H2523 0.984 . S
N2517 C2510 1.356 . S
N2517 H2520 0.984 . S
N2517 H2521 0.985 . S
H2518 N2513 0.984 . S
H2519 N2513 0.985 . S
H2520 N2517 0.984 . S
H2521 N2517 0.985 . S
H2522 N2516 0.984 . S
H2523 N2516 0.984 . S
H2524 N2512 0.984 . S
H2525 N2512 0.985 . S
C2526 C2527 1.363 . S
C2526 C2532 1.379 . S
C2526 N2534 1.356 . S
C2527 C2526 1.363 . S
C2527 C2533 1.363 . S
C2528 C2529 1.363 . S
C2528 C2533 1.379 . S
C2528 N2535 1.356 . S
C2529 C2528 1.363 . S
C2529 C2532 1.363 . S
N2530 C2532 1.356 . S
N2530 H2542 0.984 . S
N2530 H2543 0.985 . S
N2531 C2533 1.356 . S
N2531 H2536 0.984 . S
N2531 H2537 0.985 . S
C2532 C2526 1.379 . S
C2532 C2529 1.363 . S
C2532 N2530 1.356 . S
C2533 C2527 1.363 . S
C2533 C2528 1.379 . S
C2533 N2531 1.356 . S
N2534 C2526 1.356 . S
N2534 H2540 0.984 . S
N2534 H2541 0.984 . S
N2535 C2528 1.356 . S
N2535 H2538 0.984 . S
N2535 H2539 0.985 . S
H2536 N2531 0.984 . S
H2537 N2531 0.985 . S
H2538 N2535 0.984 . S
H2539 N2535 0.985 . S
H2540 N2534 0.984 . S
H2541 N2534 0.984 . S
H2542 N2530 0.984 . S
H2543 N2530 0.985 . S
C2544 C2545 1.363 . S
C2544 C2550 1.379 . S
C2544 N2552 1.356 . S
C2545 C2544 1.363 . S
C2545 C2551 1.363 . S
C2546 C2547 1.363 . S
C2546 C2551 1.379 . S
C2546 N2553 1.356 . S
C2547 C2546 1.363 . S
C2547 C2550 1.363 . S
N2548 C2550 1.356 . S
N2548 H2560 0.984 . S
N2548 H2561 0.985 . S
N2549 C2551 1.356 . S
N2549 H2554 0.984 . S
N2549 H2555 0.985 . S
C2550 C2544 1.379 . S
C2550 C2547 1.363 . S
C2550 N2548 1.356 . S
C2551 C2545 1.363 . S
C2551 C2546 1.379 . S
C2551 N2549 1.356 . S
N2552 C2544 1.356 . S
N2552 H2558 0.984 . S
N2552 H2559 0.984 . S
N2553 C2546 1.356 . S
N2553 H2556 0.984 . S
N2553 H2557 0.985 . S
H2554 N2549 0.984 . S
H2555 N2549 0.985 . S
H2556 N2553 0.984 . S
H2557 N2553 0.985 . S
H2558 N2552 0.984 . S
H2559 N2552 0.984 . S
H2560 N2548 0.984 . S
H2561 N2548 0.985 . S
C2562 C2563 1.363 . S
C2562 C2568 1.379 . S
C2562 N2570 1.356 . S
C2563 C2562 1.363 . S
C2563 C2569 1.363 . S
C2564 C2565 1.363 . S
C2564 C2569 1.379 . S
C2564 N2571 1.356 . S
C2565 C2564 1.363 . S
C2565 C2568 1.363 . S
N2566 C2568 1.356 . S
N2566 H2578 0.984 . S
N2566 H2579 0.985 . S
N2567 C2569 1.356 . S
N2567 H2572 0.984 . S
N2567 H2573 0.985 . S
C2568 C2562 1.379 . S
C2568 C2565 1.363 . S
C2568 N2566 1.356 . S
C2569 C2563 1.363 . S
C2569 C2564 1.379 . S
C2569 N2567 1.356 . S
N2570 C2562 1.356 . S
N2570 H2576 0.984 . S
N2570 H2577 0.984 . S
N2571 C2564 1.356 . S
N2571 H2574 0.984 . S
N2571 H2575 0.985 . S
H2572 N2567 0.984 . S
H2573 N2567 0.985 . S
H2574 N2571 0.984 . S
H2575 N2571 0.985 . S
H2576 N2570 0.984 . S
H2577 N2570 0.984 . S
H2578 N2566 0.984 . S
H2579 N2566 0.985 . S
C2580 C2581 1.363 . S
C2580 C2586 1.379 . S
C2580 N2588 1.356 1_455 S
C2581 C2580 1.363 . S
C2581 C2587 1.363 1_554 S
C2582 C2583 1.363 1_556 S
C2582 C2587 1.379 . S
C2582 N2589 1.356 . S
C2583 C2582 1.363 1_554 S
C2583 C2586 1.363 . S
N2584 C2586 1.356 1_655 S
N2584 H2596 0.984 . S
N2584 H2597 0.985 1_655 S
N2585 C2587 1.356 . S
N2585 H2590 0.984 . S
N2585 H2591 0.985 . S
C2586 C2580 1.379 . S
C2586 C2583 1.363 . S
C2586 N2584 1.356 1_455 S
C2587 C2581 1.363 1_556 S
C2587 C2582 1.379 . S
C2587 N2585 1.356 . S
N2588 C2580 1.356 1_655 S
N2588 H2594 0.984 . S
N2588 H2595 0.984 . S
N2589 C2582 1.356 . S
N2589 H2592 0.984 . S
N2589 H2593 0.985 . S
H2590 N2585 0.984 . S
H2591 N2585 0.985 . S
H2592 N2589 0.984 . S
H2593 N2589 0.985 . S
H2594 N2588 0.984 . S
H2595 N2588 0.984 . S
H2596 N2584 0.984 . S
H2597 N2584 0.985 1_455 S
C2598 C2599 1.363 1_655 S
C2598 C2604 1.379 . S
C2598 N2606 1.356 . S
C2599 C2598 1.363 1_455 S
C2599 C2605 1.363 . S
C2600 C2601 1.363 . S
C2600 C2605 1.379 1_655 S
C2600 N2607 1.356 . S
C2601 C2600 1.363 . S
C2601 C2604 1.363 . S
N2602 C2604 1.356 . S
N2602 H2614 0.984 . S
N2602 H2615 0.985 . S
N2603 C2605 1.356 . S
N2603 H2608 0.984 . S
N2603 H2609 0.985 . S
C2604 C2598 1.379 . S
C2604 C2601 1.363 . S
C2604 N2602 1.356 . S
C2605 C2599 1.363 . S
C2605 C2600 1.379 1_455 S
C2605 N2603 1.356 . S
N2606 C2598 1.356 . S
N2606 H2612 0.984 . S
N2606 H2613 0.984 1_655 S
N2607 C2600 1.356 . S
N2607 H2610 0.984 . S
N2607 H2611 0.985 . S
H2608 N2603 0.984 . S
H2609 N2603 0.985 . S
H2610 N2607 0.984 . S
H2611 N2607 0.985 . S
H2612 N2606 0.984 . S
H2613 N2606 0.984 1_455 S
H2614 N2602 0.984 . S
H2615 N2602 0.985 . S
C2616 C2617 1.363 . S
C2616 C2622 1.379 . S
C2616 N2624 1.356 . S
C2617 C2616 1.363 . S
C2617 C2623 1.363 . S
C2618 C2619 1.363 . S
C2618 C2623 1.379 . S
C2618 N2625 1.356 . S
C2619 C2618 1.363 . S
C2619 C2622 1.363 . S
N2620 C2622 1.356 . S
N2620 H2632 0.984 . S
N2620 H2633 0.985 . S
N2621 C2623 1.356 . S
N2621 H2626 0.984 . S
N2621 H2627 0.985 . S
C2622 C2616 1.379 . S
C2622 C2619 1.363 . S
C2622 N2620 1.356 . S
C2623 C2617 1.363 . S
C2623 C2618 1.379 . S
C2623 N2621 1.356 . S
N2624 C2616 1.356 . S
N2624 H2630 0.984 . S
N2624 H2631 0.984 . S
N2625 C2618 1.356 . S
N2625 H2628 0.984 . S
N2625 H2629 0.985 . S
H2626 N2621 0.984 . S
H2627 N2621 0.985 . S
H2628 N2625 0.984 . S
H2629 N2625 0.985 . S
H2630 N2624 0.984 . S
H2631 N2624 0.984 . S
H2632 N2620 0.984 . S
H2633 N2620 0.985 . S
C2634 C2635 1.363 . S
C2634 C2640 1.379 . S
C2634 N2642 1.356 . S
C2635 C2634 1.363 . S
C2635 C2641 1.363 . S
C2636 C2637 1.363 . S
C2636 C2641 1.379 . S
C2636 N2643 1.356 . S
C2637 C2636 1.363 . S
C2637 C2640 1.363 . S
N2638 C2640 1.356 . S
N2638 H2650 0.984 . S
N2638 H2651 0.985 . S
N2639 C2641 1.356 . S
N2639 H2644 0.984 . S
N2639 H2645 0.985 . S
C2640 C2634 1.379 . S
C2640 C2637 1.363 . S
C2640 N2638 1.356 . S
C2641 C2635 1.363 . S
C2641 C2636 1.379 . S
C2641 N2639 1.356 . S
N2642 C2634 1.356 . S
N2642 H2648 0.984 . S
N2642 H2649 0.984 . S
N2643 C2636 1.356 . S
N2643 H2646 0.984 . S
N2643 H2647 0.985 . S
H2644 N2639 0.984 . S
H2645 N2639 0.985 . S
H2646 N2643 0.984 . S
H2647 N2643 0.985 . S
H2648 N2642 0.984 . S
H2649 N2642 0.984 . S
H2650 N2638 0.984 . S
H2651 N2638 0.985 . S
C2652 C2653 1.363 . S
C2652 C2658 1.379 . S
C2652 N2660 1.360 . S
C2653 C2652 1.363 . S
C2653 C2659 1.363 . S
C2654 C2655 1.363 . S
C2654 C2659 1.379 . S
C2654 N2661 1.356 . S
C2655 C2654 1.363 . S
C2655 C2658 1.363 . S
N2656 C2658 1.356 . S
N2656 H2668 0.984 . S
N2656 H2669 0.985 . S
N2657 C2659 1.356 . S
N2657 H2662 0.984 . S
N2657 H2663 0.985 . S
C2658 C2652 1.379 . S
C2658 C2655 1.363 . S
C2658 N2656 1.356 . S
C2659 C2653 1.363 . S
C2659 C2654 1.379 . S
C2659 N2657 1.356 . S
N2660 C2652 1.360 . S
N2660 H2666 0.982 1_455 S
N2660 H2667 0.983 1_455 S
N2661 C2654 1.356 . S
N2661 H2664 0.984 . S
N2661 H2665 0.985 . S
H2662 N2657 0.984 . S
H2663 N2657 0.985 . S
H2664 N2661 0.984 . S
H2665 N2661 0.985 . S
H2666 N2660 0.982 1_655 S
H2667 N2660 0.983 1_655 S
H2668 N2656 0.984 . S
H2669 N2656 0.985 . S
C2670 C2671 1.363 . S
C2670 C2676 1.379 . S
C2670 N2678 1.356 . S
C2671 C2670 1.363 . S
C2671 C2677 1.363 . S
C2672 C2673 1.363 . S
C2672 C2677 1.379 . S
C2672 N2679 1.356 . S
C2673 C2672 1.363 . S
C2673 C2676 1.363 . S
N2674 C2676 1.356 . S
N2674 H2686 0.984 . S
N2674 H2687 0.985 . S
N2675 C2677 1.356 . S
N2675 H2680 0.984 . S
N2675 H2681 0.985 . S
C2676 C2670 1.379 . S
C2676 C2673 1.363 . S
C2676 N2674 1.356 . S
C2677 C2671 1.363 . S
C2677 C2672 1.379 . S
C2677 N2675 1.356 . S
N2678 C2670 1.356 . S
N2678 H2684 0.984 . S
N2678 H2685 0.984 . S
N2679 C2672 1.356 . S
N2679 H2682 0.984 . S
N2679 H2683 0.985 . S
H2680 N2675 0.984 . S
H2681 N2675 0.985 . S
H2682 N2679 0.984 . S
H2683 N2679 0.985 . S
H2684 N2678 0.984 . S
H2685 N2678 0.984 . S
H2686 N2674 0.984 . S
H2687 N2674 0.985 . S
C2688 C2689 1.363 . S
C2688 C2694 1.379 . S
C2688 N2696 1.356 . S
C2689 C2688 1.363 . S
C2689 C2695 1.363 . S
C2690 C2691 1.363 . S
C2690 C2695 1.379 . S
C2690 N2697 1.356 . S
C2691 C2690 1.363 . S
C2691 C2694 1.363 . S
N2692 C2694 1.356 . S
N2692 H2704 0.984 . S
N2692 H2705 0.985 . S
N2693 C2695 1.356 . S
N2693 H2698 0.984 . S
N2693 H2699 0.985 . S
C2694 C2688 1.379 . S
C2694 C2691 1.363 . S
C2694 N2692 1.356 . S
C2695 C2689 1.363 . S
C2695 C2690 1.379 . S
C2695 N2693 1.356 . S
N2696 C2688 1.356 . S
N2696 H2702 0.984 . S
N2696 H2703 0.984 . S
N2697 C2690 1.356 . S
N2697 H2700 0.984 . S
N2697 H2701 0.985 . S
H2698 N2693 0.984 . S
H2699 N2693 0.985 . S
H2700 N2697 0.984 . S
H2701 N2697 0.985 . S
H2702 N2696 0.984 . S
H2703 N2696 0.984 . S
H2704 N2692 0.984 . S
H2705 N2692 0.985 . S
C2706 C2707 1.363 1_556 S
C2706 C2712 1.379 . S
C2706 N2714 1.356 . S
C2707 C2706 1.363 1_554 S
C2707 C2713 1.363 . S
C2708 C2709 1.363 . S
C2708 C2713 1.379 1_556 S
C2708 N2715 1.356 . S
C2709 C2708 1.363 . S
C2709 C2712 1.363 . S
N2710 C2712 1.356 . S
N2710 H2722 0.984 . S
N2710 H2723 0.985 . S
N2711 C2713 1.356 . S
N2711 H2716 0.984 . S
N2711 H2717 0.985 . S
C2712 C2706 1.379 . S
C2712 C2709 1.363 . S
C2712 N2710 1.356 . S
C2713 C2707 1.363 . S
C2713 C2708 1.379 1_554 S
C2713 N2711 1.356 . S
N2714 C2706 1.356 . S
N2714 H2720 0.984 . S
N2714 H2721 0.984 1_556 S
N2715 C2708 1.356 . S
N2715 H2718 0.984 . S
N2715 H2719 0.985 . S
H2716 N2711 0.984 . S
H2717 N2711 0.985 . S
H2718 N2715 0.984 . S
H2719 N2715 0.985 . S
H2720 N2714 0.984 . S
H2721 N2714 0.984 1_554 S
H2722 N2710 0.984 . S
H2723 N2710 0.985 . S
C2724 C2725 1.363 . S
C2724 C2730 1.379 . S
C2724 N2732 1.356 . S
C2725 C2724 1.363 . S
C2725 C2731 1.363 . S
C2726 C2727 1.363 . S
C2726 C2731 1.379 . S
C2726 N2733 1.356 . S
C2727 C2726 1.363 . S
C2727 C2730 1.363 . S
N2728 C2730 1.356 . S
N2728 H2740 0.984 . S
N2728 H2741 0.985 . S
N2729 C2731 1.356 . S
N2729 H2734 0.984 . S
N2729 H2735 0.985 . S
C2730 C2724 1.379 . S
C2730 C2727 1.363 . S
C2730 N2728 1.356 . S
C2731 C2725 1.363 . S
C2731 C2726 1.379 . S
C2731 N2729 1.356 . S
N2732 C2724 1.356 . S
N2732 H2738 0.984 . S
N2732 H2739 0.984 . S
N2733 C2726 1.356 . S
N2733 H2736 0.984 . S
N2733 H2737 0.985 . S
H2734 N2729 0.984 . S
H2735 N2729 0.985 . S
H2736 N2733 0.984 . S
H2737 N2733 0.985 . S
H2738 N2732 0.984 . S
H2739 N2732 0.984 . S
H2740 N2728 0.984 . S
H2741 N2728 0.985 . S
C2742 C2743 1.363 . S
C2742 C2748 1.379 . S
C2742 N2750 1.356 . S
C2743 C2742 1.363 . S
C2743 C2749 1.363 . S
C2744 C2745 1.363 . S
C2744 C2749 1.379 . S
C2744 N2751 1.356 . S
C2745 C2744 1.363 . S
C2745 C2748 1.363 . S
N2746 C2748 1.356 . S
N2746 H2758 0.984 . S
N2746 H2759 0.985 . S
N2747 C2749 1.356 . S
N2747 H2752 0.984 . S
N2747 H2753 0.985 . S
C2748 C2742 1.379 . S
C2748 C2745 1.363 . S
C2748 N2746 1.356 . S
C2749 C2743 1.363 . S
C2749 C2744 1.379 . S
C2749 N2747 1.356 . S
N2750 C2742 1.356 . S
N2750 H2756 0.984 . S
N2750 H2757 0.984 . S
N2751 C2744 1.356 . S
N2751 H2754 0.984 . S
N2751 H2755 0.985 . S
H2752 N2747 0.984 . S
H2753 N2747 0.985 . S
H2754 N2751 0.984 . S
H2755 N2751 0.985 . S
H2756 N2750 0.984 . S
H2757 N2750 0.984 . S
H2758 N2746 0.984 . S
H2759 N2746 0.985 . S
C2760 C2761 1.363 . S
C2760 C2766 1.379 . S
C2760 N2768 1.356 . S
C2761 C2760 1.363 . S
C2761 C2767 1.363 . S
C2762 C2763 1.363 . S
C2762 C2767 1.379 . S
C2762 N2769 1.356 . S
C2763 C2762 1.363 . S
C2763 C2766 1.363 . S
N2764 C2766 1.356 . S
N2764 H2776 0.984 . S
N2764 H2777 0.985 . S
N2765 C2767 1.356 . S
N2765 H2770 0.984 . S
N2765 H2771 0.985 . S
C2766 C2760 1.379 . S
C2766 C2763 1.363 . S
C2766 N2764 1.356 . S
C2767 C2761 1.363 . S
C2767 C2762 1.379 . S
C2767 N2765 1.356 . S
N2768 C2760 1.356 . S
N2768 H2774 0.984 . S
N2768 H2775 0.984 . S
N2769 C2762 1.356 . S
N2769 H2772 0.984 . S
N2769 H2773 0.985 . S
H2770 N2765 0.984 . S
H2771 N2765 0.985 . S
H2772 N2769 0.984 . S
H2773 N2769 0.985 . S
H2774 N2768 0.984 . S
H2775 N2768 0.984 . S
H2776 N2764 0.984 . S
H2777 N2764 0.985 . S
C2778 C2779 1.363 . S
C2778 C2784 1.379 . S
C2778 N2786 1.356 . S
C2779 C2778 1.363 . S
C2779 C2785 1.363 . S
C2780 C2781 1.363 . S
C2780 C2785 1.379 . S
C2780 N2787 1.356 . S
C2781 C2780 1.363 . S
C2781 C2784 1.363 . S
N2782 C2784 1.356 . S
N2782 H2794 0.984 . S
N2782 H2795 0.985 . S
N2783 C2785 1.356 . S
N2783 H2788 0.984 . S
N2783 H2789 0.985 . S
C2784 C2778 1.379 . S
C2784 C2781 1.363 . S
C2784 N2782 1.356 . S
C2785 C2779 1.363 . S
C2785 C2780 1.379 . S
C2785 N2783 1.356 . S
N2786 C2778 1.356 . S
N2786 H2792 0.984 . S
N2786 H2793 0.984 . S
N2787 C2780 1.356 . S
N2787 H2790 0.984 . S
N2787 H2791 0.985 . S
H2788 N2783 0.984 . S
H2789 N2783 0.985 . S
H2790 N2787 0.984 . S
H2791 N2787 0.985 . S
H2792 N2786 0.984 . S
H2793 N2786 0.984 . S
H2794 N2782 0.984 . S
H2795 N2782 0.985 . S
C2796 C2797 1.363 . S
C2796 C2802 1.379 . S
C2796 N2804 1.356 . S
C2797 C2796 1.363 . S
C2797 C2803 1.363 . S
C2798 C2799 1.363 . S
C2798 C2803 1.379 . S
C2798 N2805 1.356 . S
C2799 C2798 1.363 . S
C2799 C2802 1.363 . S
N2800 C2802 1.356 . S
N2800 H2812 0.984 . S
N2800 H2813 0.985 . S
N2801 C2803 1.356 . S
N2801 H2806 0.984 . S
N2801 H2807 0.985 . S
C2802 C2796 1.379 . S
C2802 C2799 1.363 . S
C2802 N2800 1.356 . S
C2803 C2797 1.363 . S
C2803 C2798 1.379 . S
C2803 N2801 1.356 . S
N2804 C2796 1.356 . S
N2804 H2810 0.984 . S
N2804 H2811 0.984 . S
N2805 C2798 1.356 . S
N2805 H2808 0.984 . S
N2805 H2809 0.985 . S
H2806 N2801 0.984 . S
H2807 N2801 0.985 . S
H2808 N2805 0.984 . S
H2809 N2805 0.985 . S
H2810 N2804 0.984 . S
H2811 N2804 0.984 . S
H2812 N2800 0.984 . S
H2813 N2800 0.985 . S
C2814 C2815 1.363 . S
C2814 C2820 1.379 . S
C2814 N2822 1.356 . S
C2815 C2814 1.363 . S
C2815 C2821 1.363 . S
C2816 C2817 1.363 . S
C2816 C2821 1.379 . S
C2816 N2823 1.356 . S
C2817 C2816 1.363 . S
C2817 C2820 1.363 . S
N2818 C2820 1.356 . S
N2818 H2830 0.984 . S
N2818 H2831 0.985 . S
N2819 C2821 1.356 . S
N2819 H2824 0.984 . S
N2819 H2825 0.985 . S
C2820 C2814 1.379 . S
C2820 C2817 1.363 . S
C2820 N2818 1.356 . S
C2821 C2815 1.363 . S
C2821 C2816 1.379 . S
C2821 N2819 1.356 . S
N2822 C2814 1.356 . S
N2822 H2828 0.984 . S
N2822 H2829 0.984 . S
N2823 C2816 1.356 . S
N2823 H2826 0.984 . S
N2823 H2827 0.985 . S
H2824 N2819 0.984 . S
H2825 N2819 0.985 . S
H2826 N2823 0.984 . S
H2827 N2823 0.985 . S
H2828 N2822 0.984 . S
H2829 N2822 0.984 . S
H2830 N2818 0.984 . S
H2831 N2818 0.985 . S
C2832 C2833 1.363 . S
C2832 C2838 1.379 . S
C2832 N2840 1.356 . S
C2833 C2832 1.363 . S
C2833 C2839 1.363 . S
C2834 C2835 1.363 . S
C2834 C2839 1.379 . S
C2834 N2841 1.356 . S
C2835 C2834 1.363 . S
C2835 C2838 1.363 . S
N2836 C2838 1.356 . S
N2836 H2848 0.984 . S
N2836 H2849 0.985 . S
N2837 C2839 1.356 . S
N2837 H2842 0.984 . S
N2837 H2843 0.985 . S
C2838 C2832 1.379 . S
C2838 C2835 1.363 . S
C2838 N2836 1.356 . S
C2839 C2833 1.363 . S
C2839 C2834 1.379 . S
C2839 N2837 1.356 . S
N2840 C2832 1.356 . S
N2840 H2846 0.984 . S
N2840 H2847 0.984 . S
N2841 C2834 1.356 . S
N2841 H2844 0.984 . S
N2841 H2845 0.985 . S
H2842 N2837 0.984 . S
H2843 N2837 0.985 . S
H2844 N2841 0.984 . S
H2845 N2841 0.985 . S
H2846 N2840 0.984 . S
H2847 N2840 0.984 . S
H2848 N2836 0.984 . S
H2849 N2836 0.985 . S
C2850 C2851 1.363 . S
C2850 C2856 1.379 . S
C2850 N2858 1.356 . S
C2851 C2850 1.363 . S
C2851 C2857 1.363 . S
C2852 C2853 1.363 . S
C2852 C2857 1.379 . S
C2852 N2859 1.356 . S
C2853 C2852 1.363 . S
C2853 C2856 1.363 . S
N2854 C2856 1.356 . S
N2854 H2866 0.984 . S
N2854 H2867 0.985 . S
N2855 C2857 1.356 . S
N2855 H2860 0.984 . S
N2855 H2861 0.985 . S
C2856 C2850 1.379 . S
C2856 C2853 1.363 . S
C2856 N2854 1.356 . S
C2857 C2851 1.363 . S
C2857 C2852 1.379 . S
C2857 N2855 1.356 . S
N2858 C2850 1.356 . S
N2858 H2864 0.984 . S
N2858 H2865 0.984 . S
N2859 C2852 1.356 . S
N2859 H2862 0.984 . S
N2859 H2863 0.985 . S
H2860 N2855 0.984 . S
H2861 N2855 0.985 . S
H2862 N2859 0.984 . S
H2863 N2859 0.985 . S
H2864 N2858 0.984 . S
H2865 N2858 0.984 . S
H2866 N2854 0.984 . S
H2867 N2854 0.985 . S
C2868 C2869 1.363 . S
C2868 C2874 1.379 1_545 S
C2868 N2876 1.356 . S
C2869 C2868 1.363 . S
C2869 C2875 1.363 1_545 S
C2870 C2871 1.363 . S
C2870 C2875 1.379 . S
C2870 N2877 1.356 . S
C2871 C2870 1.363 . S
C2871 C2874 1.363 . S
N2872 C2874 1.356 . S
N2872 H2884 0.984 . S
N2872 H2885 0.985 . S
N2873 C2875 1.356 . S
N2873 H2878 0.984 1_565 S
N2873 H2879 0.985 . S
C2874 C2868 1.379 1_565 S
C2874 C2871 1.363 . S
C2874 N2872 1.356 . S
C2875 C2869 1.363 1_565 S
C2875 C2870 1.379 . S
C2875 N2873 1.356 . S
N2876 C2868 1.356 . S
N2876 H2882 0.984 . S
N2876 H2883 0.984 . S
N2877 C2870 1.356 . S
N2877 H2880 0.984 . S
N2877 H2881 0.985 . S
H2878 N2873 0.984 1_545 S
H2879 N2873 0.985 . S
H2880 N2877 0.984 . S
H2881 N2877 0.985 . S
H2882 N2876 0.984 . S
H2883 N2876 0.984 . S
H2884 N2872 0.984 . S
H2885 N2872 0.985 . S
C2886 C2887 1.363 1_546 S
C2886 C2892 1.379 1_556 S
C2886 N2894 1.356 . S
C2887 C2886 1.363 1_564 S
C2887 C2893 1.363 . S
C2888 C2889 1.363 1_565 S
C2888 C2893 1.379 . S
C2888 N2895 1.356 . S
C2889 C2888 1.363 1_545 S
C2889 C2892 1.363 . S
N2890 C2892 1.349 1_556 S
N2890 H2902 0.996 . S
N2890 H2903 0.980 1_556 S
N2891 C2893 1.356 . S
N2891 H2896 0.984 . S
N2891 H2897 0.985 . S
C2892 C2886 1.379 1_554 S
C2892 C2889 1.363 . S
C2892 N2890 1.349 1_554 S
C2893 C2887 1.363 . S
C2893 C2888 1.379 . S
C2893 N2891 1.356 . S
N2894 C2886 1.356 . S
N2894 H2900 0.984 . S
N2894 H2901 0.984 . S
N2895 C2888 1.356 . S
N2895 H2898 0.984 . S
N2895 H2899 0.985 . S
H2896 N2891 0.984 . S
H2897 N2891 0.985 . S
H2898 N2895 0.984 . S
H2899 N2895 0.985 . S
H2900 N2894 0.984 . S
H2901 N2894 0.984 . S
H2902 N2890 0.996 . S
H2903 N2890 0.980 1_554 S
C2904 C2905 1.363 . S
C2904 C2910 1.379 . S
C2904 N2912 1.356 . S
C2905 C2904 1.363 . S
C2905 C2911 1.363 . S
C2906 C2907 1.363 . S
C2906 C2911 1.379 . S
C2906 N2913 1.356 . S
C2907 C2906 1.363 . S
C2907 C2910 1.363 . S
N2908 C2910 1.356 . S
N2908 H2920 0.984 . S
N2908 H2921 0.985 . S
N2909 C2911 1.356 . S
N2909 H2914 0.984 . S
N2909 H2915 0.985 . S
C2910 C2904 1.379 . S
C2910 C2907 1.363 . S
C2910 N2908 1.356 . S
C2911 C2905 1.363 . S
C2911 C2906 1.379 . S
C2911 N2909 1.356 . S
N2912 C2904 1.356 . S
N2912 H2918 0.984 . S
N2912 H2919 0.984 . S
N2913 C2906 1.356 . S
N2913 H2916 0.984 . S
N2913 H2917 0.985 . S
H2914 N2909 0.984 . S
H2915 N2909 0.985 . S
H2916 N2913 0.984 . S
H2917 N2913 0.985 . S
H2918 N2912 0.984 . S
H2919 N2912 0.984 . S
H2920 N2908 0.984 . S
H2921 N2908 0.985 . S
C2922 C2923 1.363 . S
C2922 C2928 1.379 . S
C2922 N2930 1.356 . S
C2923 C2922 1.363 . S
C2923 C2929 1.363 . S
C2924 C2925 1.363 . S
C2924 C2929 1.379 . S
C2924 N2931 1.356 . S
C2925 C2924 1.363 . S
C2925 C2928 1.363 . S
N2926 C2928 1.356 . S
N2926 H2938 0.984 . S
N2926 H2939 0.985 . S
N2927 C2929 1.356 1_556 S
N2927 H2932 0.984 . S
N2927 H2933 0.985 . S
C2928 C2922 1.379 . S
C2928 C2925 1.363 . S
C2928 N2926 1.356 . S
C2929 C2923 1.363 . S
C2929 C2924 1.379 . S
C2929 N2927 1.356 1_554 S
N2930 C2922 1.356 . S
N2930 H2936 0.984 . S
N2930 H2937 0.984 . S
N2931 C2924 1.356 . S
N2931 H2934 0.984 . S
N2931 H2935 0.985 1_554 S
H2932 N2927 0.984 . S
H2933 N2927 0.985 . S
H2934 N2931 0.984 . S
H2935 N2931 0.985 1_556 S
H2936 N2930 0.984 . S
H2937 N2930 0.984 . S
H2938 N2926 0.984 . S
H2939 N2926 0.985 . S
C2940 C2941 1.363 . S
C2940 C2946 1.379 . S
C2940 N2948 1.356 . S
C2941 C2940 1.363 . S
C2941 C2947 1.363 . S
C2942 C2943 1.363 . S
C2942 C2947 1.379 . S
C2942 N2949 1.356 . S
C2943 C2942 1.363 . S
C2943 C2946 1.363 . S
N2944 C2946 1.356 . S
N2944 H2956 0.984 . S
N2944 H2957 0.985 . S
N2945 C2947 1.356 . S
N2945 H2950 0.984 . S
N2945 H2951 0.985 . S
C2946 C2940 1.379 . S
C2946 C2943 1.363 . S
C2946 N2944 1.356 . S
C2947 C2941 1.363 . S
C2947 C2942 1.379 . S
C2947 N2945 1.356 . S
N2948 C2940 1.356 . S
N2948 H2954 0.984 . S
N2948 H2955 0.984 . S
N2949 C2942 1.356 . S
N2949 H2952 0.984 . S
N2949 H2953 0.985 . S
H2950 N2945 0.984 . S
H2951 N2945 0.985 . S
H2952 N2949 0.984 . S
H2953 N2949 0.985 . S
H2954 N2948 0.984 . S
H2955 N2948 0.984 . S
H2956 N2944 0.984 . S
H2957 N2944 0.985 . S
C2958 C2959 1.363 . S
C2958 C2964 1.379 . S
C2958 N2966 1.356 . S
C2959 C2958 1.363 . S
C2959 C2965 1.363 . S
C2960 C2961 1.363 . S
C2960 C2965 1.379 . S
C2960 N2967 1.356 . S
C2961 C2960 1.363 . S
C2961 C2964 1.363 . S
N2962 C2964 1.356 . S
N2962 H2974 0.984 . S
N2962 H2975 0.985 . S
N2963 C2965 1.356 . S
N2963 H2968 0.984 . S
N2963 H2969 0.985 . S
C2964 C2958 1.379 . S
C2964 C2961 1.363 . S
C2964 N2962 1.356 . S
C2965 C2959 1.363 . S
C2965 C2960 1.379 . S
C2965 N2963 1.356 . S
N2966 C2958 1.356 . S
N2966 H2972 0.984 . S
N2966 H2973 0.984 . S
N2967 C2960 1.356 . S
N2967 H2970 0.984 . S
N2967 H2971 0.985 . S
H2968 N2963 0.984 . S
H2969 N2963 0.985 . S
H2970 N2967 0.984 . S
H2971 N2967 0.985 . S
H2972 N2966 0.984 . S
H2973 N2966 0.984 . S
H2974 N2962 0.984 . S
H2975 N2962 0.985 . S
C2976 C2977 1.363 . S
C2976 C2982 1.379 . S
C2976 N2984 1.356 . S
C2977 C2976 1.363 . S
C2977 C2983 1.363 . S
C2978 C2979 1.363 . S
C2978 C2983 1.379 . S
C2978 N2985 1.356 . S
C2979 C2978 1.363 . S
C2979 C2982 1.363 . S
N2980 C2982 1.356 . S
N2980 H2992 0.984 . S
N2980 H2993 0.985 . S
N2981 C2983 1.356 . S
N2981 H2986 0.984 . S
N2981 H2987 0.985 . S
C2982 C2976 1.379 . S
C2982 C2979 1.363 . S
C2982 N2980 1.356 . S
C2983 C2977 1.363 . S
C2983 C2978 1.379 . S
C2983 N2981 1.356 . S
N2984 C2976 1.356 . S
N2984 H2990 0.984 . S
N2984 H2991 0.984 . S
N2985 C2978 1.356 . S
N2985 H2988 0.984 . S
N2985 H2989 0.985 . S
H2986 N2981 0.984 . S
H2987 N2981 0.985 . S
H2988 N2985 0.984 . S
H2989 N2985 0.985 . S
H2990 N2984 0.984 . S
H2991 N2984 0.984 . S
H2992 N2980 0.984 . S
H2993 N2980 0.985 . S
C2994 C2995 1.363 . S
C2994 C3000 1.379 . S
C2994 N3002 1.356 . S
C2995 C2994 1.363 . S
C2995 C3001 1.363 . S
C2996 C2997 1.363 . S
C2996 C3001 1.379 . S
C2996 N3003 1.356 . S
C2997 C2996 1.363 . S
C2997 C3000 1.363 . S
N2998 C3000 1.356 . S
N2998 H3010 0.984 . S
N2998 H3011 0.985 . S
N2999 C3001 1.356 . S
N2999 H3004 0.984 . S
N2999 H3005 0.985 . S
C3000 C2994 1.379 . S
C3000 C2997 1.363 . S
C3000 N2998 1.356 . S
C3001 C2995 1.363 . S
C3001 C2996 1.379 . S
C3001 N2999 1.356 . S
N3002 C2994 1.356 . S
N3002 H3008 0.984 . S
N3002 H3009 0.984 . S
N3003 C2996 1.356 . S
N3003 H3006 0.984 . S
N3003 H3007 0.985 . S
H3004 N2999 0.984 . S
H3005 N2999 0.985 . S
H3006 N3003 0.984 . S
H3007 N3003 0.985 . S
H3008 N3002 0.984 . S
H3009 N3002 0.984 . S
H3010 N2998 0.984 . S
H3011 N2998 0.985 . S
C3012 C3013 1.363 . S
C3012 C3018 1.379 . S
C3012 N3020 1.356 . S
C3013 C3012 1.363 . S
C3013 C3019 1.363 . S
C3014 C3015 1.363 . S
C3014 C3019 1.379 . S
C3014 N3021 1.356 . S
C3015 C3014 1.363 . S
C3015 C3018 1.363 . S
N3016 C3018 1.356 . S
N3016 H3028 0.984 . S
N3016 H3029 0.985 . S
N3017 C3019 1.356 . S
N3017 H3022 0.984 . S
N3017 H3023 0.985 1_554 S
C3018 C3012 1.379 . S
C3018 C3015 1.363 . S
C3018 N3016 1.356 . S
C3019 C3013 1.363 . S
C3019 C3014 1.379 . S
C3019 N3017 1.356 . S
N3020 C3012 1.356 . S
N3020 H3026 0.984 . S
N3020 H3027 0.984 . S
N3021 C3014 1.356 . S
N3021 H3024 0.984 . S
N3021 H3025 0.985 1_554 S
H3022 N3017 0.984 . S
H3023 N3017 0.985 1_556 S
H3024 N3021 0.984 . S
H3025 N3021 0.985 1_556 S
H3026 N3020 0.984 . S
H3027 N3020 0.984 . S
H3028 N3016 0.984 . S
H3029 N3016 0.985 . S
C3030 C3031 1.363 . S
C3030 C3036 1.379 . S
C3030 N3038 1.356 . S
C3031 C3030 1.363 . S
C3031 C3037 1.363 . S
C3032 C3033 1.363 . S
C3032 C3037 1.379 . S
C3032 N3039 1.356 . S
C3033 C3032 1.363 . S
C3033 C3036 1.363 . S
N3034 C3036 1.356 . S
N3034 H3046 0.984 . S
N3034 H3047 0.985 . S
N3035 C3037 1.356 . S
N3035 H3040 0.984 . S
N3035 H3041 0.985 . S
C3036 C3030 1.379 . S
C3036 C3033 1.363 . S
C3036 N3034 1.356 . S
C3037 C3031 1.363 . S
C3037 C3032 1.379 . S
C3037 N3035 1.356 . S
N3038 C3030 1.356 . S
N3038 H3044 0.984 . S
N3038 H3045 0.984 . S
N3039 C3032 1.356 . S
N3039 H3042 0.984 . S
N3039 H3043 0.985 . S
H3040 N3035 0.984 . S
H3041 N3035 0.985 . S
H3042 N3039 0.984 . S
H3043 N3039 0.985 . S
H3044 N3038 0.984 . S
H3045 N3038 0.984 . S
H3046 N3034 0.984 . S
H3047 N3034 0.985 . S
C3048 C3049 1.363 . S
C3048 C3054 1.379 . S
C3048 N3056 1.356 . S
C3049 C3048 1.363 . S
C3049 C3055 1.363 . S
C3050 C3051 1.363 . S
C3050 C3055 1.379 . S
C3050 N3057 1.356 . S
C3051 C3050 1.363 . S
C3051 C3054 1.363 . S
N3052 C3054 1.356 . S
N3052 H3064 0.984 1_556 S
N3052 H3065 0.985 1_556 S
N3053 C3055 1.356 . S
N3053 H3058 0.984 . S
N3053 H3059 0.985 . S
C3054 C3048 1.379 . S
C3054 C3051 1.363 . S
C3054 N3052 1.356 . S
C3055 C3049 1.363 . S
C3055 C3050 1.379 . S
C3055 N3053 1.356 . S
N3056 C3048 1.356 . S
N3056 H3062 0.984 . S
N3056 H3063 0.984 . S
N3057 C3050 1.356 . S
N3057 H3060 0.984 . S
N3057 H3061 0.985 . S
H3058 N3053 0.984 . S
H3059 N3053 0.985 . S
H3060 N3057 0.984 . S
H3061 N3057 0.985 . S
H3062 N3056 0.984 . S
H3063 N3056 0.984 . S
H3064 N3052 0.984 1_554 S
H3065 N3052 0.985 1_554 S
C3066 C3067 1.363 . S
C3066 C3072 1.379 . S
C3066 N3074 1.356 . S
C3067 C3066 1.363 . S
C3067 C3073 1.363 . S
C3068 C3069 1.363 . S
C3068 C3073 1.379 . S
C3068 N3075 1.356 . S
C3069 C3068 1.363 . S
C3069 C3072 1.363 . S
N3070 C3072 1.356 . S
N3070 H3082 0.984 . S
N3070 H3083 0.985 . S
N3071 C3073 1.356 . S
N3071 H3076 0.984 . S
N3071 H3077 0.985 . S
C3072 C3066 1.379 . S
C3072 C3069 1.363 . S
C3072 N3070 1.356 . S
C3073 C3067 1.363 . S
C3073 C3068 1.379 . S
C3073 N3071 1.356 . S
N3074 C3066 1.356 . S
N3074 H3080 0.984 . S
N3074 H3081 0.984 . S
N3075 C3068 1.356 . S
N3075 H3078 0.984 . S
N3075 H3079 0.985 . S
H3076 N3071 0.984 . S
H3077 N3071 0.985 . S
H3078 N3075 0.984 . S
H3079 N3075 0.985 . S
H3080 N3074 0.984 . S
H3081 N3074 0.984 . S
H3082 N3070 0.984 . S
H3083 N3070 0.985 . S
C3084 C3085 1.363 . S
C3084 C3090 1.379 . S
C3084 N3092 1.356 . S
C3085 C3084 1.363 . S
C3085 C3091 1.363 . S
C3086 C3087 1.363 . S
C3086 C3091 1.379 . S
C3086 N3093 1.356 . S
C3087 C3086 1.363 . S
C3087 C3090 1.363 . S
N3088 C3090 1.356 . S
N3088 H3100 0.984 1_455 S
N3088 H3101 0.985 . S
N3089 C3091 1.356 . S
N3089 H3094 0.984 . S
N3089 H3095 0.985 . S
C3090 C3084 1.379 . S
C3090 C3087 1.363 . S
C3090 N3088 1.356 . S
C3091 C3085 1.363 . S
C3091 C3086 1.379 . S
C3091 N3089 1.356 . S
N3092 C3084 1.356 . S
N3092 H3098 0.984 1_455 S
N3092 H3099 0.984 . S
N3093 C3086 1.356 . S
N3093 H3096 0.984 . S
N3093 H3097 0.985 . S
H3094 N3089 0.984 . S
H3095 N3089 0.985 . S
H3096 N3093 0.984 . S
H3097 N3093 0.985 . S
H3098 N3092 0.984 1_655 S
H3099 N3092 0.984 . S
H3100 N3088 0.984 1_655 S
H3101 N3088 0.985 . S
C3102 C3103 1.363 . S
C3102 C3108 1.379 . S
C3102 N3110 1.356 . S
C3103 C3102 1.363 . S
C3103 C3109 1.363 . S
C3104 C3105 1.363 . S
C3104 C3109 1.379 . S
C3104 N3111 1.356 . S
C3105 C3104 1.363 . S
C3105 C3108 1.363 . S
N3106 C3108 1.356 . S
N3106 H3118 0.984 . S
N3106 H3119 0.985 . S
N3107 C3109 1.356 . S
N3107 H3112 0.984 . S
N3107 H3113 0.985 . S
C3108 C3102 1.379 . S
C3108 C3105 1.363 . S
C3108 N3106 1.356 . S
C3109 C3103 1.363 . S
C3109 C3104 1.379 . S
C3109 N3107 1.356 . S
N3110 C3102 1.356 . S
N3110 H3116 0.984 . S
N3110 H3117 0.984 . S
N3111 C3104 1.356 . S
N3111 H3114 0.984 . S
N3111 H3115 0.985 . S
H3112 N3107 0.984 . S
H3113 N3107 0.985 . S
H3114 N3111 0.984 . S
H3115 N3111 0.985 . S
H3116 N3110 0.984 . S
H3117 N3110 0.984 . S
H3118 N3106 0.984 . S
H3119 N3106 0.985 . S
C3120 C3121 1.363 . S
C3120 C3126 1.379 . S
C3120 N3128 1.356 . S
C3121 C3120 1.363 . S
C3121 C3127 1.363 . S
C3122 C3123 1.363 . S
C3122 C3127 1.379 . S
C3122 N3129 1.356 . S
C3123 C3122 1.363 . S
C3123 C3126 1.363 . S
N3124 C3126 1.356 . S
N3124 H3136 0.984 . S
N3124 H3137 0.985 . S
N3125 C3127 1.356 . S
N3125 H3130 0.984 . S
N3125 H3131 0.985 . S
C3126 C3120 1.379 . S
C3126 C3123 1.363 . S
C3126 N3124 1.356 . S
C3127 C3121 1.363 . S
C3127 C3122 1.379 . S
C3127 N3125 1.356 . S
N3128 C3120 1.356 . S
N3128 H3134 0.984 . S
N3128 H3135 0.984 . S
N3129 C3122 1.356 . S
N3129 H3132 0.984 . S
N3129 H3133 0.985 . S
H3130 N3125 0.984 . S
H3131 N3125 0.985 . S
H3132 N3129 0.984 . S
H3133 N3129 0.985 . S
H3134 N3128 0.984 . S
H3135 N3128 0.984 . S
H3136 N3124 0.984 . S
H3137 N3124 0.985 . S
C3138 C3139 1.363 . S
C3138 C3144 1.379 . S
C3138 N3146 1.356 . S
C3139 C3138 1.363 . S
C3139 C3145 1.363 . S
C3140 C3141 1.363 . S
C3140 C3145 1.379 . S
C3140 N3147 1.356 . S
C3141 C3140 1.363 . S
C3141 C3144 1.363 . S
N3142 C3144 1.356 . S
N3142 H3154 0.984 . S
N3142 H3155 0.985 . S
N3143 C3145 1.356 . S
N3143 H3148 0.984 . S
N3143 H3149 0.985 . S
C3144 C3138 1.379 . S
C3144 C3141 1.363 . S
C3144 N3142 1.356 . S
C3145 C3139 1.363 . S
C3145 C3140 1.379 . S
C3145 N3143 1.356 . S
N3146 C3138 1.356 . S
N3146 H3152 0.984 . S
N3146 H3153 0.984 . S
N3147 C3140 1.356 . S
N3147 H3150 0.984 . S
N3147 H3151 0.985 . S
H3148 N3143 0.984 . S
H3149 N3143 0.985 . S
H3150 N3147 0.984 . S
H3151 N3147 0.985 . S
H3152 N3146 0.984 . S
H3153 N3146 0.984 . S
H3154 N3142 0.984 . S
H3155 N3142 0.985 . S
C3156 C3157 1.363 . S
C3156 C3162 1.379 . S
C3156 N3164 1.356 . S
C3157 C3156 1.363 . S
C3157 C3163 1.363 . S
C3158 C3159 1.363 . S
C3158 C3163 1.379 . S
C3158 N3165 1.356 1_655 S
C3159 C3158 1.363 . S
C3159 C3162 1.363 . S
N3160 C3162 1.356 . S
N3160 H3172 0.984 . S
N3160 H3173 0.995 . S
N3161 C3163 1.356 . S
N3161 H3166 0.984 . S
N3161 H3167 0.985 . S
C3162 C3156 1.379 . S
C3162 C3159 1.363 . S
C3162 N3160 1.356 . S
C3163 C3157 1.363 . S
C3163 C3158 1.379 . S
C3163 N3161 1.356 . S
N3164 C3156 1.356 . S
N3164 H3170 0.984 . S
N3164 H3171 0.984 . S
N3165 C3158 1.356 1_455 S
N3165 H3168 0.984 . S
N3165 H3169 0.985 . S
H3166 N3161 0.984 . S
H3167 N3161 0.985 . S
H3168 N3165 0.984 . S
H3169 N3165 0.985 . S
H3170 N3164 0.984 . S
H3171 N3164 0.984 . S
H3172 N3160 0.984 . S
H3173 N3160 0.995 . S
C3174 C3175 1.363 . S
C3174 C3180 1.379 . S
C3174 N3182 1.356 . S
C3175 C3174 1.363 . S
C3175 C3181 1.363 . S
C3176 C3177 1.363 . S
C3176 C3181 1.379 . S
C3176 N3183 1.356 . S
C3177 C3176 1.363 . S
C3177 C3180 1.363 . S
N3178 C3180 1.356 . S
N3178 H3190 0.984 . S
N3178 H3191 0.985 . S
N3179 C3181 1.356 . S
N3179 H3184 0.984 . S
N3179 H3185 0.985 . S
C3180 C3174 1.379 . S
C3180 C3177 1.363 . S
C3180 N3178 1.356 . S
C3181 C3175 1.363 . S
C3181 C3176 1.379 . S
C3181 N3179 1.356 . S
N3182 C3174 1.356 . S
N3182 H3188 0.984 . S
N3182 H3189 0.984 . S
N3183 C3176 1.356 . S
N3183 H3186 0.984 . S
N3183 H3187 0.985 . S
H3184 N3179 0.984 . S
H3185 N3179 0.985 . S
H3186 N3183 0.984 . S
H3187 N3183 0.985 . S
H3188 N3182 0.984 . S
H3189 N3182 0.984 . S
H3190 N3178 0.984 . S
H3191 N3178 0.985 . S
C3192 C3193 1.363 . S
C3192 C3198 1.379 . S
C3192 N3200 1.356 . S
C3193 C3192 1.363 . S
C3193 C3199 1.363 . S
C3194 C3195 1.363 . S
C3194 C3199 1.379 . S
C3194 N3201 1.356 . S
C3195 C3194 1.363 . S
C3195 C3198 1.363 . S
N3196 C3198 1.356 . S
N3196 H3208 0.984 . S
N3196 H3209 0.985 . S
N3197 C3199 1.356 . S
N3197 H3202 0.984 . S
N3197 H3203 0.985 . S
C3198 C3192 1.379 . S
C3198 C3195 1.363 . S
C3198 N3196 1.356 . S
C3199 C3193 1.363 . S
C3199 C3194 1.379 . S
C3199 N3197 1.356 . S
N3200 C3192 1.356 . S
N3200 H3206 0.984 . S
N3200 H3207 0.984 . S
N3201 C3194 1.356 . S
N3201 H3204 0.984 . S
N3201 H3205 0.985 . S
H3202 N3197 0.984 . S
H3203 N3197 0.985 . S
H3204 N3201 0.984 . S
H3205 N3201 0.985 . S
H3206 N3200 0.984 . S
H3207 N3200 0.984 . S
H3208 N3196 0.984 . S
H3209 N3196 0.985 . S
C3210 C3211 1.363 . S
C3210 C3216 1.379 . S
C3210 N3218 1.356 . S
C3211 C3210 1.363 . S
C3211 C3217 1.363 . S
C3212 C3213 1.363 . S
C3212 C3217 1.379 . S
C3212 N3219 1.356 . S
C3213 C3212 1.363 . S
C3213 C3216 1.363 . S
N3214 C3216 1.356 . S
N3214 H3226 0.984 . S
N3214 H3227 0.985 . S
N3215 C3217 1.356 . S
N3215 H3220 0.984 . S
N3215 H3221 0.985 . S
C3216 C3210 1.379 . S
C3216 C3213 1.363 . S
C3216 N3214 1.356 . S
C3217 C3211 1.363 . S
C3217 C3212 1.379 . S
C3217 N3215 1.356 . S
N3218 C3210 1.356 . S
N3218 H3224 0.984 . S
N3218 H3225 0.984 . S
N3219 C3212 1.356 . S
N3219 H3222 0.984 . S
N3219 H3223 0.985 . S
H3220 N3215 0.984 . S
H3221 N3215 0.985 . S
H3222 N3219 0.984 . S
H3223 N3219 0.985 . S
H3224 N3218 0.984 . S
H3225 N3218 0.984 . S
H3226 N3214 0.984 . S
H3227 N3214 0.985 . S
C3228 C3229 1.363 . S
C3228 C3234 1.379 . S
C3228 N3236 1.356 . S
C3229 C3228 1.363 . S
C3229 C3235 1.363 . S
C3230 C3231 1.363 . S
C3230 C3235 1.379 . S
C3230 N3237 1.356 . S
C3231 C3230 1.363 . S
C3231 C3234 1.363 . S
N3232 C3234 1.356 . S
N3232 H3244 0.984 . S
N3232 H3245 0.985 . S
N3233 C3235 1.356 . S
N3233 H3238 0.984 . S
N3233 H3239 0.985 . S
C3234 C3228 1.379 . S
C3234 C3231 1.363 . S
C3234 N3232 1.356 . S
C3235 C3229 1.363 . S
C3235 C3230 1.379 . S
C3235 N3233 1.356 . S
N3236 C3228 1.356 . S
N3236 H3242 0.984 . S
N3236 H3243 0.984 . S
N3237 C3230 1.356 . S
N3237 H3240 0.984 . S
N3237 H3241 0.985 . S
H3238 N3233 0.984 . S
H3239 N3233 0.985 . S
H3240 N3237 0.984 . S
H3241 N3237 0.985 . S
H3242 N3236 0.984 . S
H3243 N3236 0.984 . S
H3244 N3232 0.984 . S
H3245 N3232 0.985 . S
C3246 C3247 1.363 . S
C3246 C3252 1.379 . S
C3246 N3254 1.356 . S
C3247 C3246 1.363 . S
C3247 C3253 1.363 . S
C3248 C3249 1.363 . S
C3248 C3253 1.379 . S
C3248 N3255 1.356 . S
C3249 C3248 1.363 . S
C3249 C3252 1.363 . S
N3250 C3252 1.356 . S
N3250 H3262 0.984 . S
N3250 H3263 0.985 . S
N3251 C3253 1.356 . S
N3251 H3256 0.984 . S
N3251 H3257 0.985 . S
C3252 C3246 1.379 . S
C3252 C3249 1.363 . S
C3252 N3250 1.356 . S
C3253 C3247 1.363 . S
C3253 C3248 1.379 . S
C3253 N3251 1.356 . S
N3254 C3246 1.356 . S
N3254 H3260 0.984 . S
N3254 H3261 0.984 . S
N3255 C3248 1.356 . S
N3255 H3258 0.984 . S
N3255 H3259 0.985 . S
H3256 N3251 0.984 . S
H3257 N3251 0.985 . S
H3258 N3255 0.984 . S
H3259 N3255 0.985 . S
H3260 N3254 0.984 . S
H3261 N3254 0.984 . S
H3262 N3250 0.984 . S
H3263 N3250 0.985 . S
C3264 C3265 1.363 . S
C3264 C3270 1.379 . S
C3264 N3272 1.356 . S
C3265 C3264 1.363 . S
C3265 C3271 1.363 . S
C3266 C3267 1.363 . S
C3266 C3271 1.379 . S
C3266 N3273 1.356 . S
C3267 C3266 1.363 . S
C3267 C3270 1.363 . S
N3268 C3270 1.356 . S
N3268 H3280 0.984 . S
N3268 H3281 0.985 . S
N3269 C3271 1.356 . S
N3269 H3274 0.984 . S
N3269 H3275 0.985 . S
C3270 C3264 1.379 . S
C3270 C3267 1.363 . S
C3270 N3268 1.356 . S
C3271 C3265 1.363 . S
C3271 C3266 1.379 . S
C3271 N3269 1.356 . S
N3272 C3264 1.356 . S
N3272 H3278 0.984 . S
N3272 H3279 0.984 . S
N3273 C3266 1.356 . S
N3273 H3276 0.984 . S
N3273 H3277 0.985 . S
H3274 N3269 0.984 . S
H3275 N3269 0.985 . S
H3276 N3273 0.984 . S
H3277 N3273 0.985 . S
H3278 N3272 0.984 . S
H3279 N3272 0.984 . S
H3280 N3268 0.984 . S
H3281 N3268 0.985 . S
C3282 C3283 1.363 . S
C3282 C3288 1.379 . S
C3282 N3290 1.356 . S
C3283 C3282 1.363 . S
C3283 C3289 1.363 . S
C3284 C3285 1.363 . S
C3284 C3289 1.379 . S
C3284 N3291 1.356 1_565 S
C3285 C3284 1.363 . S
C3285 C3288 1.363 . S
N3286 C3288 1.356 . S
N3286 H3298 0.984 . S
N3286 H3299 0.985 . S
N3287 C3289 1.356 . S
N3287 H3292 0.984 . S
N3287 H3293 0.985 . S
C3288 C3282 1.379 . S
C3288 C3285 1.363 . S
C3288 N3286 1.356 . S
C3289 C3283 1.363 . S
C3289 C3284 1.379 . S
C3289 N3287 1.356 . S
N3290 C3282 1.356 . S
N3290 H3296 0.984 . S
N3290 H3297 0.984 . S
N3291 C3284 1.356 1_545 S
N3291 H3294 0.984 . S
N3291 H3295 0.985 . S
H3292 N3287 0.984 . S
H3293 N3287 0.985 . S
H3294 N3291 0.984 . S
H3295 N3291 0.985 . S
H3296 N3290 0.984 . S
H3297 N3290 0.984 . S
H3298 N3286 0.984 . S
H3299 N3286 0.985 . S
C3300 C3301 1.363 . S
C3300 C3306 1.379 . S
C3300 N3308 1.356 . S
C3301 C3300 1.363 . S
C3301 C3307 1.363 . S
C3302 C3303 1.363 . S
C3302 C3307 1.379 . S
C3302 N3309 1.356 . S
C3303 C3302 1.363 . S
C3303 C3306 1.363 . S
N3304 C3306 1.356 . S
N3304 H3316 0.984 . S
N3304 H3317 0.985 . S
N3305 C3307 1.356 . S
N3305 H3310 0.984 . S
N3305 H3311 0.985 . S
C3306 C3300 1.379 . S
C3306 C3303 1.363 . S
C3306 N3304 1.356 . S
C3307 C3301 1.363 . S
C3307 C3302 1.379 . S
C3307 N3305 1.356 . S
N3308 C3300 1.356 . S
N3308 H3314 0.984 . S
N3308 H3315 0.984 . S
N3309 C3302 1.356 . S
N3309 H3312 0.984 . S
N3309 H3313 0.985 . S
H3310 N3305 0.984 . S
H3311 N3305 0.985 . S
H3312 N3309 0.984 . S
H3313 N3309 0.985 . S
H3314 N3308 0.984 . S
H3315 N3308 0.984 . S
H3316 N3304 0.984 . S
H3317 N3304 0.985 . S
C3318 C3319 1.363 . S
C3318 C3324 1.379 . S
C3318 N3326 1.356 . S
C3319 C3318 1.363 . S
C3319 C3325 1.363 . S
C3320 C3321 1.363 . S
C3320 C3325 1.379 . S
C3320 N3327 1.356 . S
C3321 C3320 1.363 . S
C3321 C3324 1.363 . S
N3322 C3324 1.356 . S
N3322 H3334 0.984 1_545 S
N3322 H3335 0.985 . S
N3323 C3325 1.356 . S
N3323 H3328 0.984 . S
N3323 H3329 0.985 . S
C3324 C3318 1.379 . S
C3324 C3321 1.363 . S
C3324 N3322 1.356 . S
C3325 C3319 1.363 . S
C3325 C3320 1.379 . S
C3325 N3323 1.356 . S
N3326 C3318 1.356 . S
N3326 H3332 0.984 . S
N3326 H3333 0.984 . S
N3327 C3320 1.356 . S
N3327 H3330 0.984 . S
N3327 H3331 0.985 . S
H3328 N3323 0.984 . S
H3329 N3323 0.985 . S
H3330 N3327 0.984 . S
H3331 N3327 0.985 . S
H3332 N3326 0.984 . S
H3333 N3326 0.984 . S
H3334 N3322 0.984 1_565 S
H3335 N3322 0.985 . S
C3336 C3337 1.363 . S
C3336 C3342 1.379 . S
C3336 N3344 1.356 . S
C3337 C3336 1.363 . S
C3337 C3343 1.363 . S
C3338 C3339 1.363 . S
C3338 C3343 1.379 . S
C3338 N3345 1.356 . S
C3339 C3338 1.363 . S
C3339 C3342 1.363 . S
N3340 C3342 1.356 . S
N3340 H3352 0.984 . S
N3340 H3353 0.985 . S
N3341 C3343 1.356 . S
N3341 H3346 0.984 . S
N3341 H3347 0.985 . S
C3342 C3336 1.379 . S
C3342 C3339 1.363 . S
C3342 N3340 1.356 . S
C3343 C3337 1.363 . S
C3343 C3338 1.379 . S
C3343 N3341 1.356 . S
N3344 C3336 1.356 . S
N3344 H3350 0.984 . S
N3344 H3351 0.984 . S
N3345 C3338 1.356 . S
N3345 H3348 0.984 . S
N3345 H3349 0.985 . S
H3346 N3341 0.984 . S
H3347 N3341 0.985 . S
H3348 N3345 0.984 . S
H3349 N3345 0.985 . S
H3350 N3344 0.984 . S
H3351 N3344 0.984 . S
H3352 N3340 0.984 . S
H3353 N3340 0.985 . S
C3354 C3355 1.363 . S
C3354 C3360 1.379 . S
C3354 N3362 1.356 . S
C3355 C3354 1.363 . S
C3355 C3361 1.363 . S
C3356 C3357 1.363 . S
C3356 C3361 1.379 . S
C3356 N3363 1.358 . S
C3357 C3356 1.363 . S
C3357 C3360 1.363 . S
N3358 C3360 1.356 . S
N3358 H3370 0.984 . S
N3358 H3371 0.985 . S
N3359 C3361 1.356 . S
N3359 H3364 0.984 . S
N3359 H3365 0.985 . S
C3360 C3354 1.379 . S
C3360 C3357 1.363 . S
C3360 N3358 1.356 . S
C3361 C3355 1.363 . S
C3361 C3356 1.379 . S
C3361 N3359 1.356 . S
N3362 C3354 1.356 . S
N3362 H3368 0.984 . S
N3362 H3369 0.984 . S
N3363 C3356 1.358 . S
N3363 H3366 0.984 1_554 S
N3363 H3367 0.983 1_554 S
H3364 N3359 0.984 . S
H3365 N3359 0.985 . S
H3366 N3363 0.984 1_556 S
H3367 N3363 0.983 1_556 S
H3368 N3362 0.984 . S
H3369 N3362 0.984 . S
H3370 N3358 0.984 . S
H3371 N3358 0.985 . S
C3372 C3373 1.363 . S
C3372 C3378 1.379 . S
C3372 N3380 1.356 . S
C3373 C3372 1.363 . S
C3373 C3379 1.363 . S
C3374 C3375 1.363 . S
C3374 C3379 1.379 . S
C3374 N3381 1.356 . S
C3375 C3374 1.363 . S
C3375 C3378 1.363 . S
N3376 C3378 1.356 . S
N3376 H3388 0.984 . S
N3376 H3389 0.985 . S
N3377 C3379 1.356 . S
N3377 H3382 0.984 . S
N3377 H3383 0.985 . S
C3378 C3372 1.379 . S
C3378 C3375 1.363 . S
C3378 N3376 1.356 . S
C3379 C3373 1.363 . S
C3379 C3374 1.379 . S
C3379 N3377 1.356 . S
N3380 C3372 1.356 . S
N3380 H3386 0.984 . S
N3380 H3387 0.984 . S
N3381 C3374 1.356 . S
N3381 H3384 0.984 . S
N3381 H3385 0.985 . S
H3382 N3377 0.984 . S
H3383 N3377 0.985 . S
H3384 N3381 0.984 . S
H3385 N3381 0.985 . S
H3386 N3380 0.984 . S
H3387 N3380 0.984 . S
H3388 N3376 0.984 . S
H3389 N3376 0.985 . S
C3390 C3391 1.363 . S
C3390 C3396 1.379 . S
C3390 N3398 1.356 . S
C3391 C3390 1.363 . S
C3391 C3397 1.363 . S
C3392 C3393 1.363 . S
C3392 C3397 1.379 . S
C3392 N3399 1.356 . S
C3393 C3392 1.363 . S
C3393 C3396 1.363 . S
N3394 C3396 1.356 . S
N3394 H3406 0.984 . S
N3394 H3407 0.985 . S
N3395 C3397 1.356 . S
N3395 H3400 0.984 . S
N3395 H3401 0.985 . S
C3396 C3390 1.379 . S
C3396 C3393 1.363 . S
C3396 N3394 1.356 . S
C3397 C3391 1.363 . S
C3397 C3392 1.379 . S
C3397 N3395 1.356 . S
N3398 C3390 1.356 . S
N3398 H3404 0.984 . S
N3398 H3405 0.984 . S
N3399 C3392 1.356 . S
N3399 H3402 0.984 . S
N3399 H3403 0.985 . S
H3400 N3395 0.984 . S
H3401 N3395 0.985 . S
H3402 N3399 0.984 . S
H3403 N3399 0.985 . S
H3404 N3398 0.984 . S
H3405 N3398 0.984 . S
H3406 N3394 0.984 . S
H3407 N3394 0.985 . S
C1681 C109 2.267 1_455 S
C1683 C403 2.270 . S
C1699 C61 1.683 . S
C1701 C476 1.899 . S
C1717 C74 1.962 . S
C1719 C571 2.021 . S
C1737 C646 1.337 . S
C1735 C96 1.426 . S
C1753 C25 1.360 . S
C1755 C730 1.275 . S
C1773 C823 2.019 . S
C1771 C40 1.963 . S
C1791 C896 2.006 . S
C1789 C46 1.992 . S
C1807 C5 1.879 . S
C1809 C991 2.309 . S
C1827 C392 1.771 . S
C1825 C229 1.429 . S
C1843 C249 0.921 . S
C1845 C478 0.890 . S
C1863 C560 1.111 . S
C1861 C271 0.891 . S
C1881 C655 1.774 . S
C1879 C172 1.728 1_556 S
C1897 C236 1.596 . S
C1899 C739 1.604 . S
C1917 C812 1.309 . S
C1915 C242 1.282 . S
C1935 C898 0.892 . S
C1933 C278 0.946 . S
C1953 C980 1.836 . S
C1951 C179 1.906 . S
C1971 C394 1.186 . S
C1969 C159 0.868 1_556 S
C1987 C285 1.425 . S
C1989 C1064 1.597 . S
C2007 C1150 1.267 . S
C2005 C333 1.328 . S
C2025 C1243 0.875 . S
C2023 C320 0.866 . S
C2041 C123 1.190 . S
C2043 C982 1.190 . S
C2059 C138 1.433 . S
C2061 C562 1.381 . S
C2077 C326 1.755 . S
C2079 C1316 1.759 . S
C2097 C1411 0.880 . S
C2095 C298 0.877 . S
C2115 C391 2.230 . S
C2113 C67 2.132 . S
C2133 C1412 1.834 . S
C2131 C110 1.822 . S
C2149 C88 1.942 . S
C2151 C559 1.985 . S
C2167 C75 1.120 . S
C2169 C1330 1.251 . S
C2187 C742 1.259 . S
C2185 C11 1.318 . S
C2203 C47 1.772 . S
C2205 C1147 1.966 . S
C2223 C908 1.861 1_556 S
C2221 C32 1.752 . S
C2241 C1483 2.319 . S
C2239 C26 2.274 . S
C2259 C404 1.836 . S
C2257 C152 1.888 . S
C2277 C1414 0.893 . S
C2275 C319 0.919 . S
C2293 C124 1.093 . S
C2295 C572 1.089 . S
C2311 C284 1.764 . S
C2313 C1315 1.781 . S
C2329 C145 1.368 . S
C2331 C727 1.550 . S
C2349 C1160 1.197 . S
C2347 C312 1.178 . S
C2365 C117 0.771 1_565 S
C2367 C910 0.799 1_545 S
C2383 C291 1.749 . S
C2385 C1496 1.741 . S
C2401 C194 1.235 . S
C2403 C406 1.292 . S
C2419 C180 1.576 . S
C2421 C1076 1.567 . S
C2437 C263 1.232 . S
C2439 C826 1.227 . S
C2455 C243 0.793 . S
C2457 C1231 0.845 . S
C2475 C1498 1.222 . S
C2473 C277 1.119 . S
C2491 C215 1.250 . S
C2493 C574 1.374 . S
C2511 C656 1.661 . S
C2509 C256 1.566 . S
C2529 C475 0.915 . S
C2527 C200 0.901 . S
C2545 C81 2.267 . S
C2547 C1579 2.270 . S
C2565 C1400 1.899 . S
C2563 C89 1.683 . S
C2581 C102 1.962 1_554 S
C2583 C1663 2.021 . S
C2599 C68 1.425 . S
C2601 C1318 1.337 . S
C2617 C53 1.360 . S
C2619 C1066 1.275 . S
C2637 C1159 2.020 . S
C2635 C12 1.963 . S
C2655 C1232 2.006 . S
C2653 C18 1.992 . S
C2673 C1495 2.309 . S
C2671 C33 1.879 . S
C2691 C1568 1.771 . S
C2689 C257 1.429 . S
C2707 C193 0.921 . S
C2709 C1402 0.890 . S
C2727 C1652 1.111 . S
C2725 C201 0.891 . S
C2745 C1327 1.774 . S
C2743 C214 1.728 . S
C2763 C1075 1.604 . S
C2761 C264 1.596 . S
C2779 C186 1.282 . S
C2781 C1148 1.309 . S
C2799 C1234 0.891 . S
C2797 C208 0.946 . S
C2815 C221 1.905 . S
C2817 C1484 1.836 . S
C2835 C1570 1.187 . S
C2833 C313 0.866 . S
C2851 C131 1.425 . S
C2853 C728 1.597 . S
C2871 C814 1.267 . S
C2869 C151 1.328 . S
C2889 C907 0.874 . S
C2887 C166 0.866 . S
C2907 C1486 1.190 . S
C2905 C305 1.190 . S
C2923 C292 1.433 . S
C2925 C1654 1.381 . S
C2943 C644 1.759 . S
C2941 C144 1.755 . S
C2961 C487 0.880 . S
C2959 C116 0.876 . S
C2977 C95 2.132 . S
C2979 C1567 2.230 . S
C2997 C488 1.833 . S
C2995 C82 1.821 . S
C3013 C60 1.942 . S
C3015 C1651 1.985 . S
C3031 C103 1.120 . S
C3033 C658 1.251 . S
C3049 C39 1.318 . S
C3051 C1078 1.259 . S
C3069 C811 1.967 . S
C3067 C19 1.772 . S
C3085 C4 1.751 . S
C3087 C1244 1.879 . S
C3103 C54 2.274 . S
C3105 C979 2.319 . S
C3123 C1580 1.836 . S
C3121 C334 1.888 . S
C3139 C165 0.918 . S
C3141 C490 0.889 . S
C3159 C1664 1.090 1_655 S
C3157 C306 1.094 . S
C3175 C130 1.764 . S
C3177 C643 1.781 . S
C3193 C327 1.368 . S
C3195 C1063 1.550 . S
C3213 C824 1.200 . S
C3211 C158 1.183 . S
C3229 C299 0.771 . S
C3231 C1246 0.798 . S
C3249 C992 1.741 . S
C3247 C137 1.749 . S
C3267 C1582 1.293 . S
C3265 C250 1.236 . S
C3285 C740 1.567 1_565 S
C3283 C222 1.577 . S
C3301 C235 1.232 . S
C3303 C1162 1.227 . S
C3321 C895 0.844 . S
C3319 C187 0.792 . S
C3337 C207 1.119 . S
C3339 C994 1.222 . S
C3355 C173 1.250 . S
C3357 C1666 1.374 . S
C3375 C1328 1.661 . S
C3373 C228 1.566 . S
C3393 C1399 0.914 . S
C3391 C270 0.901 . S
