# Generated by pormake.
# Topology nia, (6,6)-cn, num edge types: 1
# Building blocks:
#     Node 0, Type 0, BuildingBlock: BETDEL_clean_sbu_0, # of connection points: 6
#     Node 1, Type 0, BuildingBlock: BETDEL_clean_sbu_0, # of connection points: 6
#     Node 2, Type 1, BuildingBlock: MIDCAF_clean_sbu_0, # of connection points: 6
#     Node 3, Type 1, BuildingBlock: MIDCAF_clean_sbu_0, # of connection points: 6
#     Edge 4, Type (0, 1), BuildingBlock: KIFKEQ_clean_linker_1, # of connection points: 2
#     Edge 5, Type (0, 1), BuildingBlock: KIFKEQ_clean_linker_1, # of connection points: 2
#     Edge 6, Type (0, 1), BuildingBlock: KIFKEQ_clean_linker_1, # of connection points: 2
#     Edge 7, Type (0, 1), BuildingBlock: KIFKEQ_clean_linker_1, # of connection points: 2
#     Edge 8, Type (0, 1), BuildingBlock: KIFKEQ_clean_linker_1, # of connection points: 2
#     Edge 9, Type (0, 1), BuildingBlock: KIFKEQ_clean_linker_1, # of connection points: 2
#     Edge 10, Type (0, 1), BuildingBlock: KIFKEQ_clean_linker_1, # of connection points: 2
#     Edge 11, Type (0, 1), BuildingBlock: KIFKEQ_clean_linker_1, # of connection points: 2
#     Edge 12, Type (0, 1), BuildingBlock: KIFKEQ_clean_linker_1, # of connection points: 2
#     Edge 13, Type (0, 1), BuildingBlock: KIFKEQ_clean_linker_1, # of connection points: 2
#     Edge 14, Type (0, 1), BuildingBlock: KIFKEQ_clean_linker_1, # of connection points: 2
#     Edge 15, Type (0, 1), BuildingBlock: KIFKEQ_clean_linker_1, # of connection points: 2
# Relax obj value: 0.209
# Max RMSD: 0.245
# Mean RMSD: 0.204
data_MOF--net-nia--node1-BETDEL_clean_sbu_0--node2-MIDCAF_clean_sbu_0--edge1-KIFKEQ_clean_linker_1
_symmetry_space_group_name_H-M    P1
_symmetry_Int_Tables_number       1
_symmetry_cell_setting            triclinic
loop_
_symmetry_equiv_pos_as_xyz
'x, y, z'
_cell_length_a     24.23219
_cell_length_b     25.339571
_cell_length_c     32.677711
_cell_angle_alpha  83.787209
_cell_angle_beta   93.179953
_cell_angle_gamma 125.4192
loop_
_atom_site_label
_atom_site_type_symbol
_atom_site_fract_x
_atom_site_fract_y
_atom_site_fract_z
_atom_type_partial_charge
Dy0 Dy 0.04102 0.04485 0.03974 0.0
C1 C 0.91769 0.84156 0.93268 0.0
C2 C 0.12954 0.14963 0.08161 0.0
Dy3 Dy 0.97049 0.94047 0.98189 0.0
O4 O 0.09484 0.08961 0.09718 0.0
O5 O 0.11739 0.1528 0.0424 0.0
O6 O 0.96084 0.0141 0.0854 0.0
O7 O 0.93666 0.95601 0.037 0.0
C8 C 0.91395 0.9623 0.06878 0.0
C9 C 0.09197 0.0473 0.95505 0.0
O10 O 0.92242 0.99169 0.96211 0.0
O11 O 0.00419 0.08696 0.99085 0.0
O12 O 0.88189 0.85561 0.95094 0.0
O13 O 0.98062 0.8793 0.94292 0.0
O14 O 0.03866 0.01694 0.93249 0.0
O15 O 0.07782 0.01952 0.99122 0.0
O16 O 0.07696 0.98408 0.0634 0.0
O17 O -0.00838 0.89049 0.03512 0.0
C18 C 0.95158 0.05391 0.96633 0.0
C19 C 0.04218 0.92072 0.06128 0.0
Dy20 Dy 0.97445 0.02931 0.53905 0.0
C21 C 0.0512 0.88319 0.45285 0.0
C22 C 0.94367 0.10481 0.57114 0.0
Dy23 Dy 0.02816 0.96186 0.48747 0.0
O24 O 0.97116 0.07849 0.59116 0.0
O25 O 0.93472 0.09151 0.53291 0.0
O26 O 0.91076 0.9405 0.58506 0.0
O27 O 0.96271 0.93817 0.53875 0.0
C28 C 0.92535 0.90494 0.56947 0.0
C29 C 0.0781 0.08572 0.4569 0.0
O30 O 0.92152 0.91724 0.46699 0.0
O31 O 0.90454 -0.006 0.48502 0.0
O32 O 0.02054 0.90777 0.43512 0.0
O33 O 0.06797 0.90028 0.49026 0.0
O34 O 0.09373 0.05037 0.44216 0.0
O35 O 0.03884 0.05255 0.48696 0.0
O36 O 0.08213 0.07463 0.55993 0.0
O37 O 0.10153 0.00067 0.53911 0.0
C38 C 0.88863 0.94497 0.46386 0.0
C39 C 0.11826 0.05008 0.56016 0.0
Zn40 Zn 0.31575 0.66437 0.18377 0.0
Zn41 Zn 0.34462 0.66899 0.33286 0.0
Zn42 Zn 0.32842 0.66328 0.25838 0.0
C43 C 0.47241 0.73557 0.30359 0.0
C44 C 0.26271 0.53874 0.32758 0.0
O45 O 0.26225 0.69719 0.23736 0.0
O46 O 0.2376 0.66784 0.17409 0.0
C47 C 0.44902 0.74907 0.18882 0.0
O48 O 0.43931 0.72814 0.26993 0.0
O49 O 0.44138 0.70767 0.33728 0.0
O50 O 0.28167 0.57791 0.35451 0.0
O51 O 0.27891 0.56095 0.28939 0.0
O52 O 0.40477 0.73946 0.16247 0.0
O53 O 0.43039 0.72324 0.22626 0.0
O54 O 0.28437 0.56199 0.24681 0.0
O55 O 0.30194 0.58097 0.17953 0.0
C56 C 0.28524 0.54312 0.21197 0.0
O57 O 0.27646 0.70566 0.2794 0.0
O58 O 0.3187 0.72692 0.34187 0.0
C59 C 0.22906 0.69049 0.20367 0.0
C60 C 0.28353 0.73056 0.31339 0.0
Zn61 Zn 0.69946 0.34461 0.83805 0.0
Zn62 Zn 0.66184 0.31405 0.63655 0.0
Zn63 Zn 0.67498 0.32427 0.76359 0.0
C64 C 0.7353 0.44168 0.67701 0.0
C65 C 0.56126 0.25841 0.71296 0.0
O66 O 0.73244 0.28355 0.79083 0.0
O67 O 0.75934 0.31659 0.85335 0.0
C68 C 0.75087 0.46431 0.78977 0.0
O69 O 0.72063 0.41332 0.71463 0.0
O70 O 0.71794 0.41102 0.64461 0.0
O71 O 0.61642 0.28488 0.69344 0.0
O72 O 0.56702 0.26328 0.75162 0.0
O73 O 0.74263 0.43888 0.82632 0.0
O74 O 0.72997 0.42923 0.7594 0.0
O75 O 0.57339 0.27516 0.79345 0.0
O76 O 0.60407 0.28858 0.8586 0.0
C77 C 0.5579 0.2661 0.83194 0.0
O78 O 0.72 0.27423 0.75017 0.0
O79 O 0.68186 0.2875 0.6924 0.0
C80 C 0.76214 0.28735 0.82558 0.0
C81 C 0.71519 0.26881 0.71164 0.0
H82 H 0.16172 0.96785 0.1012 0.0
H83 H 0.96537 0.78979 0.08479 0.0
H84 H 0.19556 0.9075 0.14471 0.0
H85 H -0.00221 0.72926 0.13025 0.0
H86 H 0.11857 0.64038 0.15558 0.0
H87 H 0.06594 0.69321 0.12748 0.0
H88 H 0.18844 0.84777 0.2067 0.0
H89 H 0.24443 0.796 0.23293 0.0
C90 C 0.12534 0.91576 0.10739 0.0
C91 C 0.06117 0.88347 0.08901 0.0
C92 C 0.1445 0.88108 0.13288 0.0
C93 C 0.09962 0.81317 0.14122 0.0
C94 C 0.03436 0.78127 0.12399 0.0
C95 C 0.01562 0.81591 0.09789 0.0
C96 C 0.13321 0.68494 0.1677 0.0
C97 C 0.18575 0.71412 0.1964 0.0
C98 C 0.1026 0.71523 0.15173 0.0
C99 C 0.12335 0.77555 0.16421 0.0
C100 C 0.17212 0.8021 0.19559 0.0
C101 C 0.20338 0.77185 0.21134 0.0
H102 H 0.21939 0.03378 0.55464 0.0
H103 H 0.16169 0.13488 0.61969 0.0
H104 H 0.32488 0.084 0.59258 0.0
H105 H 0.26809 0.18531 0.65782 0.0
H106 H 0.43529 0.20056 0.74665 0.0
H107 H 0.32716 0.1515 0.71069 0.0
H108 H 0.43047 0.19705 0.59504 0.0
H109 H 0.53813 0.24659 0.63073 0.0
C110 C 0.22898 0.06656 0.57713 0.0
C111 C 0.18194 0.08033 0.58403 0.0
C112 C 0.28975 0.09563 0.5987 0.0
C113 C 0.30486 0.13877 0.62803 0.0
C114 C 0.25756 0.15195 0.63552 0.0
C115 C 0.19687 0.12336 0.61352 0.0
C116 C 0.43495 0.20074 0.71355 0.0
C117 C 0.49543 0.22803 0.69158 0.0
C118 C 0.37307 0.17267 0.69296 0.0
C119 C 0.3704 0.17044 0.65006 0.0
C120 C 0.43086 0.19753 0.62817 0.0
C121 C 0.49262 0.22613 0.64865 0.0
H122 H 0.21134 0.27836 0.0548 0.0
H123 H 0.12666 0.14541 0.16478 0.0
H124 H 0.25745 0.37004 0.09626 0.0
H125 H 0.17159 0.2371 0.20607 0.0
H126 H 0.16827 0.42258 0.22985 0.0
H127 H 0.13926 0.32176 0.20413 0.0
H128 H 0.34276 0.42317 0.15646 0.0
H129 H 0.37158 0.52297 0.1825 0.0
C130 C 0.2037 0.26895 0.08787 0.0
C131 C 0.16562 0.20514 0.10664 0.0
C132 C 0.23006 0.32119 0.11158 0.0
C133 C 0.21778 0.31025 0.15428 0.0
C134 C 0.18147 0.24652 0.17321 0.0
C135 C 0.15619 0.19434 0.1496 0.0
C136 C 0.2072 0.4222 0.21541 0.0
C137 C 0.27207 0.47976 0.20826 0.0
C138 C 0.19076 0.36492 0.20062 0.0
C139 C 0.23879 0.36535 0.17796 0.0
C140 C 0.3049 0.42193 0.17355 0.0
C141 C 0.32139 0.47867 0.18862 0.0
H142 H 0.92942 0.10495 0.65287 0.0
H143 H 0.89717 0.17409 0.53379 0.0
H144 H 0.87588 0.14586 0.68599 0.0
H145 H 0.84702 0.21918 0.56689 0.0
H146 H 0.69299 0.2281 0.63464 0.0
H147 H 0.75113 0.19238 0.60035 0.0
H148 H 0.88195 0.23309 0.70568 0.0
H149 H 0.82079 0.26485 0.74059 0.0
C150 C 0.91207 0.13026 0.63379 0.0
C151 C 0.91744 0.13629 0.59074 0.0
C152 C 0.88158 0.15426 0.65283 0.0
C153 C 0.85667 0.18617 0.62938 0.0
C154 C 0.86407 0.19383 0.58616 0.0
C155 C 0.89353 0.16864 0.56707 0.0
C156 C 0.73417 0.22928 0.65039 0.0
C157 C 0.752 0.24888 0.6904 0.0
C158 C 0.76811 0.20931 0.63057 0.0
C159 C 0.82169 0.20953 0.64998 0.0
C160 C 0.84016 0.23057 0.68984 0.0
C161 C 0.80533 0.24929 0.70991 0.0
H162 H 0.79231 0.88535 0.02918 0.0
H163 H 0.8803 0.94482 0.14839 0.0
H164 H 0.67862 0.83069 0.05948 0.0
H165 H 0.76825 0.89081 0.17842 0.0
H166 H 0.5485 0.73973 0.22402 0.0
H167 H 0.6597 0.7834 0.19503 0.0
H168 H 0.61748 0.87171 0.08901 0.0
H169 H 0.50745 0.8296 0.11857 0.0
C170 C 0.7872 0.88538 0.0619 0.0
C171 C 0.84486 0.91924 0.08644 0.0
C172 C 0.72243 0.85484 0.07919 0.0
C173 C 0.71453 0.85689 0.12136 0.0
C174 C 0.77235 0.8879 0.14602 0.0
C175 C 0.83661 0.919 0.12872 0.0
C176 C 0.56402 0.77039 0.19534 0.0
C177 C 0.51981 0.78252 0.17428 0.0
C178 C 0.62719 0.79446 0.17829 0.0
C179 C 0.64709 0.83039 0.13942 0.0
C180 C 0.60318 0.84317 0.1186 0.0
C181 C 0.54047 0.81971 0.13585 0.0
H182 H 0.87094 0.84785 0.645 0.0
H183 H 0.93217 0.81468 0.53469 0.0
H184 H 0.83345 0.7403 0.67581 0.0
H185 H 0.89124 0.70492 0.56452 0.0
H186 H 0.85439 0.52526 0.63608 0.0
H187 H 0.90663 0.63965 0.61276 0.0
H188 H 0.74722 0.63082 0.67391 0.0
H189 H 0.69729 0.5172 0.69827 0.0
C190 C 0.87597 0.81714 0.62721 0.0
C191 C 0.90427 0.83952 0.58738 0.0
C192 C 0.85395 0.75508 0.6448 0.0
C193 C 0.85852 0.71298 0.62279 0.0
C194 C 0.88767 0.73592 0.58289 0.0
C195 C 0.91074 0.79869 0.56551 0.0
C196 C 0.83183 0.54864 0.64534 0.0
C197 C 0.77276 0.51308 0.6697 0.0
C198 C 0.86109 0.61396 0.63147 0.0
C199 C 0.83107 0.64502 0.64086 0.0
C200 C 0.7728 0.60947 0.66641 0.0
C201 C 0.7441 0.54429 0.68067 0.0
H202 H 0.13365 0.84739 0.48163 0.0
H203 H 0.02295 0.84951 0.37402 0.0
H204 H 0.18657 0.81139 0.44189 0.0
H205 H 0.07632 0.81371 0.33407 0.0
H206 H 0.33498 0.83763 0.35264 0.0
H207 H 0.27212 0.87037 0.38444 0.0
H208 H 0.08817 0.71994 0.3285 0.0
H209 H 0.15197 0.68697 0.29634 0.0
C210 C 0.11987 0.83917 0.44966 0.0
C211 C 0.07464 0.85162 0.43083 0.0
C212 C 0.15055 0.81913 0.42679 0.0
C213 C 0.13646 0.81095 0.38466 0.0
C214 C 0.08821 0.81978 0.36641 0.0
C215 C 0.05777 0.84025 0.38929 0.0
C216 C 0.28142 0.81259 0.34627 0.0
C217 C 0.24822 0.7598 0.32213 0.0
C218 C 0.2453 0.83081 0.36486 0.0
C219 C 0.17497 0.79651 0.35989 0.0
C220 C 0.14234 0.7469 0.33306 0.0
C221 C 0.17879 0.72842 0.31438 0.0
H222 H 0.12581 0.07964 0.87373 0.0
H223 H 0.21367 0.1036 0.99474 0.0
H224 H 0.23666 0.13154 0.84251 0.0
H225 H 0.32579 0.15865 0.96354 0.0
H226 H 0.50095 0.18235 0.90021 0.0
H227 H 0.38927 0.13352 0.9294 0.0
H228 H 0.34522 0.22704 0.82732 0.0
H229 H 0.45694 0.27416 0.7976 0.0
C230 C 0.16918 0.09716 0.8937 0.0
C231 C 0.16094 0.08698 0.93675 0.0
C232 C 0.23302 0.12732 0.87573 0.0
C233 C 0.29058 0.14883 0.90033 0.0
C234 C 0.28257 0.14127 0.9435 0.0
C235 C 0.21843 0.11037 0.96149 0.0
C236 C 0.46691 0.19167 0.88376 0.0
C237 C 0.4871 0.23114 0.84631 0.0
C238 C 0.4031 0.16439 0.90077 0.0
C239 C 0.35802 0.1768 0.88117 0.0
C240 C 0.37799 0.21561 0.84318 0.0
C241 C 0.44184 0.24237 0.82591 0.0
H242 H 0.02091 0.15142 0.46446 0.0
H243 H 0.18701 0.16729 0.40775 0.0
H244 H 0.05613 0.25662 0.4288 0.0
H245 H 0.2248 0.27325 0.37406 0.0
H246 H 0.25942 0.44255 0.2934 0.0
H247 H 0.20605 0.33005 0.32189 0.0
H248 H 0.13643 0.36784 0.42673 0.0
H249 H 0.18409 0.47751 0.39606 0.0
C250 C 0.06563 0.17807 0.44495 0.0
C251 C 0.10142 0.15155 0.43897 0.0
C252 C 0.08601 0.2384 0.42441 0.0
C253 C 0.14331 0.27386 0.39803 0.0
C254 C 0.17946 0.24717 0.39298 0.0
C255 C 0.15837 0.18664 0.41283 0.0
C256 C 0.2299 0.42567 0.3214 0.0
C257 C 0.22478 0.46853 0.34182 0.0
C258 C 0.20075 0.36159 0.33854 0.0
C259 C 0.16727 0.3394 0.37713 0.0
C260 C 0.16069 0.38215 0.39684 0.0
C261 C 0.18874 0.44557 0.37934 0.0
H262 H 0.96848 0.16607 0.98156 0.0
H263 H 0.87761 0.01952 0.89554 0.0
H264 H 0.92658 0.22243 0.94192 0.0
H265 H 0.8387 0.07787 0.85419 0.0
H266 H 0.71313 0.16104 0.81877 0.0
H267 H 0.76101 0.10396 0.85002 0.0
H268 H 0.93968 0.28717 0.88312 0.0
H269 H 0.8889 0.34239 0.85469 0.0
C270 C 0.9402 0.14634 0.95381 0.0
C271 C 0.92622 0.08827 0.9418 0.0
C272 C 0.91664 0.17908 0.93066 0.0
C273 C 0.87966 0.15545 0.89428 0.0
C274 C 0.86614 0.09737 0.88217 0.0
C275 C 0.88868 0.06393 0.90583 0.0
C276 C 0.76319 0.18887 0.83206 0.0
C277 C 0.79731 0.25579 0.83469 0.0
C278 C 0.79086 0.15632 0.85002 0.0
C279 C 0.85382 0.1905 0.87018 0.0
C280 C 0.89006 0.25856 0.86944 0.0
C281 C 0.86158 0.29056 0.85256 0.0
H282 H 0.80169 0.82113 0.44376 0.0
H283 H 0.85217 0.0148 0.4158 0.0
H284 H 0.712 0.78065 0.39334 0.0
H285 H 0.76524 0.97563 0.36288 0.0
H286 H 0.54092 0.85908 0.32136 0.0
H287 H 0.65023 0.91729 0.35471 0.0
H288 H 0.67905 0.77192 0.32593 0.0
H289 H 0.56637 0.71113 0.29592 0.0
C290 C 0.79384 0.85515 0.42637 0.0
C291 C 0.83303 0.92079 0.43402 0.0
C292 C 0.74306 0.83224 0.39683 0.0
C293 C 0.7313 0.8748 0.37333 0.0
C294 C 0.77177 0.94102 0.38062 0.0
C295 C 0.82155 0.96359 0.41101 0.0
C296 C 0.57216 0.84132 0.32066 0.0
C297 C 0.54604 0.78138 0.30564 0.0
C298 C 0.63499 0.87454 0.33999 0.0
C299 C 0.67325 0.84862 0.34422 0.0
C300 C 0.65013 0.79231 0.32466 0.0
C301 C 0.58634 0.75818 0.3064 0.0
H302 H -0.00583 0.84239 0.87531 0.0
H303 H 0.78777 0.73923 0.91785 0.0
H304 H 0.95819 0.76674 0.8235 0.0
H305 H 0.75159 0.66041 0.86761 0.0
H306 H 0.68938 0.52572 0.77532 0.0
H307 H 0.73269 0.63113 0.79946 0.0
H308 H 0.92564 0.66084 0.82438 0.0
H309 H 0.88284 0.55773 0.7984 0.0
C310 C 0.94094 0.80306 0.87366 0.0
C311 C 0.89377 0.79576 0.90099 0.0
C312 C 0.92026 0.75964 0.84392 0.0
C313 C 0.85204 0.7068 0.84142 0.0
C314 C 0.80444 0.70096 0.86802 0.0
C315 C 0.82508 0.74548 0.89727 0.0
C316 C 0.7423 0.55704 0.7835 0.0
C317 C 0.78328 0.53446 0.78452 0.0
C318 C 0.76673 0.61669 0.7983 0.0
C319 C 0.83208 0.65387 0.8151 0.0
C320 C 0.87521 0.63417 0.81162 0.0
C321 C 0.85095 0.57505 0.79641 0.0
loop_
_geom_bond_atom_site_label_1
_geom_bond_atom_site_label_2
_geom_bond_distance
_geom_bond_site_symmetry_2
_ccdc_geom_bond_type
Dy0 O4 2.398 . S
Dy0 O5 2.491 . S
Dy0 O6 2.403 1_455 S
Dy0 O7 2.664 1_445 S
Dy0 O11 2.326 1_455 S
Dy0 O15 2.310 1_554 S
Dy0 O16 2.351 1_545 S
C1 O12 1.185 . S
C1 O13 1.355 . S
C2 O4 1.185 . S
C2 O5 1.355 . S
Dy3 O7 2.310 1_556 S
Dy3 O10 2.351 1_565 S
Dy3 O12 2.398 . S
Dy3 O13 2.491 . S
Dy3 O14 2.403 1_665 S
Dy3 O15 2.664 1_665 S
Dy3 O17 2.326 1_656 S
O4 Dy0 2.398 . S
O4 C2 1.185 . S
O5 Dy0 2.491 . S
O5 C2 1.355 . S
O6 Dy0 2.403 1_655 S
O6 C8 1.254 1_545 S
O7 Dy0 2.664 1_665 S
O7 Dy3 2.310 1_554 S
O7 C8 1.268 . S
C8 O6 1.254 1_565 S
C8 O7 1.268 . S
C9 O14 1.254 . S
C9 O15 1.268 . S
O10 Dy3 2.351 1_545 S
O10 C18 1.249 . S
O11 Dy0 2.326 1_655 S
O11 C18 1.267 1_554 S
O12 C1 1.185 . S
O12 Dy3 2.398 . S
O13 C1 1.355 . S
O13 Dy3 2.491 . S
O14 Dy3 2.403 1_445 S
O14 C9 1.254 . S
O15 Dy0 2.310 1_556 S
O15 Dy3 2.664 1_445 S
O15 C9 1.268 . S
O16 Dy0 2.351 1_565 S
O16 C19 1.249 . S
O17 Dy3 2.326 1_454 S
O17 C19 1.267 . S
C18 O10 1.249 . S
C18 O11 1.267 1_556 S
C19 O16 1.249 . S
C19 O17 1.267 . S
Dy20 O24 2.398 . S
Dy20 O25 2.491 . S
Dy20 O26 2.403 1_545 S
Dy20 O27 2.675 1_545 S
Dy20 O31 2.326 1_545 S
Dy20 O35 2.310 1_655 S
Dy20 O36 2.351 1_655 S
C21 O32 1.185 . S
C21 O33 1.355 . S
C22 O24 1.185 . S
C22 O25 1.355 . S
Dy23 O27 2.305 1_455 S
Dy23 O30 2.351 1_455 S
Dy23 O32 2.398 . S
Dy23 O33 2.491 . S
Dy23 O34 2.403 1_565 S
Dy23 O35 2.664 1_565 S
Dy23 O37 2.326 1_565 S
O24 Dy20 2.398 . S
O24 C22 1.185 . S
O25 Dy20 2.491 . S
O25 C22 1.355 . S
O26 Dy20 2.403 1_565 S
O26 C28 1.254 . S
O27 Dy20 2.675 1_565 S
O27 Dy23 2.305 1_655 S
O27 C28 1.274 . S
C28 O26 1.254 . S
C28 O27 1.274 . S
C29 O34 1.254 . S
C29 O35 1.268 . S
O30 Dy23 2.351 1_655 S
O30 C38 1.249 . S
O31 Dy20 2.326 1_565 S
O31 C38 1.267 . S
O32 C21 1.185 . S
O32 Dy23 2.398 . S
O33 C21 1.355 . S
O33 Dy23 2.491 . S
O34 Dy23 2.403 1_545 S
O34 C29 1.254 . S
O35 Dy20 2.310 1_455 S
O35 Dy23 2.664 1_545 S
O35 C29 1.268 . S
O36 Dy20 2.351 1_455 S
O36 C39 1.249 . S
O37 Dy23 2.326 1_545 S
O37 C39 1.267 . S
C38 O30 1.249 . S
C38 O31 1.267 . S
C39 O36 1.249 . S
C39 O37 1.267 . S
Zn40 O46 1.920 . S
Zn40 O52 1.898 . S
Zn40 O55 1.905 . S
Zn41 O49 1.905 . S
Zn41 O50 1.898 . S
Zn41 O58 1.920 . S
Zn42 O45 2.080 . S
Zn42 O48 2.114 . S
Zn42 O51 2.120 . S
Zn42 O53 2.120 . S
Zn42 O54 2.114 . S
Zn42 O57 2.080 . S
C43 O48 1.166 . S
C43 O49 1.182 . S
C44 O50 1.167 . S
C44 O51 1.299 . S
O45 Zn42 2.080 . S
O45 C59 1.305 . S
O46 Zn40 1.920 . S
O46 C59 1.234 . S
C47 O52 1.167 . S
C47 O53 1.299 . S
O48 Zn42 2.114 . S
O48 C43 1.166 . S
O49 Zn41 1.905 . S
O49 C43 1.182 . S
O50 Zn41 1.898 . S
O50 C44 1.167 . S
O51 Zn42 2.120 . S
O51 C44 1.299 . S
O52 Zn40 1.898 . S
O52 C47 1.167 . S
O53 Zn42 2.120 . S
O53 C47 1.299 . S
O54 Zn42 2.114 . S
O54 C56 1.166 . S
O55 Zn40 1.905 . S
O55 C56 1.182 . S
C56 O54 1.166 . S
C56 O55 1.182 . S
O57 Zn42 2.080 . S
O57 C60 1.305 . S
O58 Zn41 1.920 . S
O58 C60 1.234 . S
C59 O45 1.305 . S
C59 O46 1.234 . S
C60 O57 1.305 . S
C60 O58 1.234 . S
Zn61 O67 1.920 . S
Zn61 O73 1.898 . S
Zn61 O76 1.905 . S
Zn62 O70 1.905 . S
Zn62 O71 1.898 . S
Zn62 O79 1.920 . S
Zn63 O66 2.080 . S
Zn63 O69 2.114 . S
Zn63 O72 2.120 . S
Zn63 O74 2.120 . S
Zn63 O75 2.114 . S
Zn63 O78 2.080 . S
C64 O69 1.166 . S
C64 O70 1.182 . S
C65 O71 1.167 . S
C65 O72 1.299 . S
O66 Zn63 2.080 . S
O66 C80 1.305 . S
O67 Zn61 1.920 . S
O67 C80 1.234 . S
C68 O73 1.167 . S
C68 O74 1.299 . S
O69 Zn63 2.114 . S
O69 C64 1.166 . S
O70 Zn62 1.905 . S
O70 C64 1.182 . S
O71 Zn62 1.898 . S
O71 C65 1.167 . S
O72 Zn63 2.120 . S
O72 C65 1.299 . S
O73 Zn61 1.898 . S
O73 C68 1.167 . S
O74 Zn63 2.120 . S
O74 C68 1.299 . S
O75 Zn63 2.114 . S
O75 C77 1.166 . S
O76 Zn61 1.905 . S
O76 C77 1.182 . S
C77 O75 1.166 . S
C77 O76 1.182 . S
O78 Zn63 2.080 . S
O78 C81 1.305 . S
O79 Zn62 1.920 . S
O79 C81 1.234 . S
C80 O66 1.305 . S
C80 O67 1.234 . S
C81 O78 1.305 . S
C81 O79 1.234 . S
H82 C90 0.950 . S
H83 C95 0.950 1_655 S
H84 C92 0.950 . S
H85 C94 0.950 . S
H86 C96 0.950 . S
H87 C98 0.950 . S
H88 C100 0.950 . S
H89 C101 0.950 . S
C90 H82 0.950 . S
C90 C91 1.386 . S
C90 C92 1.391 . S
C91 C90 1.386 . S
C91 C95 1.393 . S
C92 H84 0.950 . S
C92 C90 1.391 . S
C92 C93 1.400 . S
C93 C92 1.400 . S
C93 C94 1.398 . S
C93 C99 1.491 . S
C94 H85 0.950 . S
C94 C93 1.398 . S
C94 C95 1.391 . S
C95 H83 0.950 1_455 S
C95 C91 1.393 . S
C95 C94 1.391 . S
C96 H86 0.950 . S
C96 C97 1.386 . S
C96 C98 1.391 . S
C97 C96 1.386 . S
C97 C101 1.393 . S
C98 H87 0.950 . S
C98 C96 1.391 . S
C98 C99 1.400 . S
C99 C93 1.491 . S
C99 C98 1.400 . S
C99 C100 1.398 . S
C100 H88 0.950 . S
C100 C99 1.398 . S
C100 C101 1.391 . S
C101 H89 0.950 . S
C101 C97 1.393 . S
C101 C100 1.391 . S
H102 C110 0.950 . S
H103 C115 0.945 1_565 S
H104 C112 0.950 . S
H105 C114 0.950 . S
H106 C116 0.950 . S
H107 C118 0.950 . S
H108 C120 0.950 . S
H109 C121 0.950 . S
C110 H102 0.950 . S
C110 C111 1.386 . S
C110 C112 1.391 . S
C111 C110 1.386 . S
C111 C115 1.393 . S
C112 H104 0.950 . S
C112 C110 1.391 . S
C112 C113 1.400 . S
C113 C112 1.400 . S
C113 C114 1.398 . S
C113 C119 1.491 . S
C114 H105 0.950 . S
C114 C113 1.398 . S
C114 C115 1.391 . S
C115 H103 0.945 1_545 S
C115 C111 1.393 . S
C115 C114 1.391 . S
C116 H106 0.950 . S
C116 C117 1.386 . S
C116 C118 1.391 . S
C117 C116 1.386 . S
C117 C121 1.393 . S
C118 H107 0.950 . S
C118 C116 1.391 . S
C118 C119 1.400 . S
C119 C113 1.491 . S
C119 C118 1.400 . S
C119 C120 1.398 . S
C120 H108 0.950 . S
C120 C119 1.398 . S
C120 C121 1.391 . S
C121 H109 0.950 . S
C121 C117 1.393 . S
C121 C120 1.391 . S
H122 C130 0.950 . S
H123 C135 0.950 . S
H124 C132 0.950 . S
H125 C134 0.950 . S
H126 C136 0.950 . S
H127 C138 0.950 . S
H128 C140 0.950 . S
H129 C141 0.950 . S
C130 H122 0.950 . S
C130 C131 1.386 . S
C130 C132 1.391 . S
C131 C130 1.386 . S
C131 C135 1.393 . S
C132 H124 0.950 . S
C132 C130 1.391 . S
C132 C133 1.400 . S
C133 C132 1.400 . S
C133 C134 1.398 . S
C133 C139 1.491 . S
C134 H125 0.950 . S
C134 C133 1.398 . S
C134 C135 1.391 . S
C135 H123 0.950 . S
C135 C131 1.393 . S
C135 C134 1.391 . S
C136 H126 0.950 . S
C136 C137 1.386 . S
C136 C138 1.391 . S
C137 C136 1.386 . S
C137 C141 1.393 . S
C138 H127 0.950 . S
C138 C136 1.391 . S
C138 C139 1.400 . S
C139 C133 1.491 . S
C139 C138 1.400 . S
C139 C140 1.398 . S
C140 H128 0.950 . S
C140 C139 1.398 . S
C140 C141 1.391 . S
C141 H129 0.950 . S
C141 C137 1.393 . S
C141 C140 1.391 . S
H142 C150 0.950 . S
H143 C155 0.950 . S
H144 C152 0.950 . S
H145 C154 0.950 . S
H146 C156 0.950 . S
H147 C158 0.950 . S
H148 C160 0.950 . S
H149 C161 0.950 . S
C150 H142 0.950 . S
C150 C151 1.386 . S
C150 C152 1.391 . S
C151 C150 1.386 . S
C151 C155 1.393 . S
C152 H144 0.950 . S
C152 C150 1.391 . S
C152 C153 1.400 . S
C153 C152 1.400 . S
C153 C154 1.398 . S
C153 C159 1.491 . S
C154 H145 0.950 . S
C154 C153 1.398 . S
C154 C155 1.391 . S
C155 H143 0.950 . S
C155 C151 1.393 . S
C155 C154 1.391 . S
C156 H146 0.950 . S
C156 C157 1.386 . S
C156 C158 1.391 . S
C157 C156 1.386 . S
C157 C161 1.393 . S
C158 H147 0.950 . S
C158 C156 1.391 . S
C158 C159 1.400 . S
C159 C153 1.491 . S
C159 C158 1.400 . S
C159 C160 1.398 . S
C160 H148 0.950 . S
C160 C159 1.398 . S
C160 C161 1.391 . S
C161 H149 0.950 . S
C161 C157 1.393 . S
C161 C160 1.391 . S
H162 C170 0.950 . S
H163 C175 0.950 . S
H164 C172 0.950 . S
H165 C174 0.950 . S
H166 C176 0.950 . S
H167 C178 0.950 . S
H168 C180 0.950 . S
H169 C181 0.950 . S
C170 H162 0.950 . S
C170 C171 1.386 . S
C170 C172 1.391 . S
C171 C170 1.386 . S
C171 C175 1.393 . S
C172 H164 0.950 . S
C172 C170 1.391 . S
C172 C173 1.400 . S
C173 C172 1.400 . S
C173 C174 1.398 . S
C173 C179 1.491 . S
C174 H165 0.950 . S
C174 C173 1.398 . S
C174 C175 1.391 . S
C175 H163 0.950 . S
C175 C171 1.393 . S
C175 C174 1.391 . S
C176 H166 0.950 . S
C176 C177 1.386 . S
C176 C178 1.391 . S
C177 C176 1.386 . S
C177 C181 1.393 . S
C178 H167 0.950 . S
C178 C176 1.391 . S
C178 C179 1.400 . S
C179 C173 1.491 . S
C179 C178 1.400 . S
C179 C180 1.398 . S
C180 H168 0.950 . S
C180 C179 1.398 . S
C180 C181 1.391 . S
C181 H169 0.950 . S
C181 C177 1.393 . S
C181 C180 1.391 . S
H182 C190 0.950 . S
H183 C195 0.950 1_455 S
H184 C192 0.950 . S
H185 C194 0.950 . S
H186 C196 0.950 . S
H187 C198 0.950 . S
H188 C200 0.950 . S
H189 C201 0.950 . S
C190 H182 0.950 . S
C190 C191 1.386 . S
C190 C192 1.391 . S
C191 C190 1.386 . S
C191 C195 1.393 . S
C192 H184 0.950 . S
C192 C190 1.391 . S
C192 C193 1.400 . S
C193 C192 1.400 . S
C193 C194 1.398 . S
C193 C199 1.491 . S
C194 H185 0.950 . S
C194 C193 1.398 . S
C194 C195 1.391 . S
C195 H183 0.950 1_655 S
C195 C191 1.393 . S
C195 C194 1.391 . S
C196 H186 0.950 . S
C196 C197 1.386 . S
C196 C198 1.391 . S
C197 C196 1.386 . S
C197 C201 1.393 . S
C198 H187 0.950 . S
C198 C196 1.391 . S
C198 C199 1.400 . S
C199 C193 1.491 . S
C199 C198 1.400 . S
C199 C200 1.398 . S
C200 H188 0.950 . S
C200 C199 1.398 . S
C200 C201 1.391 . S
C201 H189 0.950 . S
C201 C197 1.393 . S
C201 C200 1.391 . S
H202 C210 0.950 . S
H203 C215 0.950 1_545 S
H204 C212 0.950 . S
H205 C214 0.950 . S
H206 C216 0.950 . S
H207 C218 0.950 . S
H208 C220 0.950 . S
H209 C221 0.950 . S
C210 H202 0.950 . S
C210 C211 1.386 . S
C210 C212 1.391 . S
C211 C210 1.386 . S
C211 C215 1.393 . S
C212 H204 0.950 . S
C212 C210 1.391 . S
C212 C213 1.400 . S
C213 C212 1.400 . S
C213 C214 1.398 . S
C213 C219 1.491 . S
C214 H205 0.950 . S
C214 C213 1.398 . S
C214 C215 1.391 . S
C215 H203 0.950 1_565 S
C215 C211 1.393 . S
C215 C214 1.391 . S
C216 H206 0.950 . S
C216 C217 1.386 . S
C216 C218 1.391 . S
C217 C216 1.386 . S
C217 C221 1.393 . S
C218 H207 0.950 . S
C218 C216 1.391 . S
C218 C219 1.400 . S
C219 C213 1.491 . S
C219 C218 1.400 . S
C219 C220 1.398 . S
C220 H208 0.950 . S
C220 C219 1.398 . S
C220 C221 1.391 . S
C221 H209 0.950 . S
C221 C217 1.393 . S
C221 C220 1.391 . S
H222 C230 0.950 . S
H223 C235 0.950 . S
H224 C232 0.950 . S
H225 C234 0.950 . S
H226 C236 0.950 . S
H227 C238 0.950 . S
H228 C240 0.950 . S
H229 C241 0.950 . S
C230 H222 0.950 . S
C230 C231 1.386 . S
C230 C232 1.391 . S
C231 C230 1.386 . S
C231 C235 1.393 . S
C232 H224 0.950 . S
C232 C230 1.391 . S
C232 C233 1.400 . S
C233 C232 1.400 . S
C233 C234 1.398 . S
C233 C239 1.491 . S
C234 H225 0.950 . S
C234 C233 1.398 . S
C234 C235 1.391 . S
C235 H223 0.950 . S
C235 C231 1.393 . S
C235 C234 1.391 . S
C236 H226 0.950 . S
C236 C237 1.386 . S
C236 C238 1.391 . S
C237 C236 1.386 . S
C237 C241 1.393 . S
C238 H227 0.950 . S
C238 C236 1.391 . S
C238 C239 1.400 . S
C239 C233 1.491 . S
C239 C238 1.400 . S
C239 C240 1.398 . S
C240 H228 0.950 . S
C240 C239 1.398 . S
C240 C241 1.391 . S
C241 H229 0.950 . S
C241 C237 1.393 . S
C241 C240 1.391 . S
H242 C250 0.950 . S
H243 C255 0.950 . S
H244 C252 0.950 . S
H245 C254 0.950 . S
H246 C256 0.950 . S
H247 C258 0.950 . S
H248 C260 0.950 . S
H249 C261 0.950 . S
C250 H242 0.950 . S
C250 C251 1.386 . S
C250 C252 1.391 . S
C251 C250 1.386 . S
C251 C255 1.393 . S
C252 H244 0.950 . S
C252 C250 1.391 . S
C252 C253 1.400 . S
C253 C252 1.400 . S
C253 C254 1.398 . S
C253 C259 1.491 . S
C254 H245 0.950 . S
C254 C253 1.398 . S
C254 C255 1.391 . S
C255 H243 0.950 . S
C255 C251 1.393 . S
C255 C254 1.391 . S
C256 H246 0.950 . S
C256 C257 1.386 . S
C256 C258 1.391 . S
C257 C256 1.386 . S
C257 C261 1.393 . S
C258 H247 0.950 . S
C258 C256 1.391 . S
C258 C259 1.400 . S
C259 C253 1.491 . S
C259 C258 1.400 . S
C259 C260 1.398 . S
C260 H248 0.950 . S
C260 C259 1.398 . S
C260 C261 1.391 . S
C261 H249 0.950 . S
C261 C257 1.393 . S
C261 C260 1.391 . S
H262 C270 0.950 . S
H263 C275 0.950 . S
H264 C272 0.950 . S
H265 C274 0.950 . S
H266 C276 0.950 . S
H267 C278 0.950 . S
H268 C280 0.950 . S
H269 C281 0.950 . S
C270 H262 0.950 . S
C270 C271 1.386 . S
C270 C272 1.391 . S
C271 C270 1.386 . S
C271 C275 1.393 . S
C272 H264 0.950 . S
C272 C270 1.391 . S
C272 C273 1.400 . S
C273 C272 1.400 . S
C273 C274 1.398 . S
C273 C279 1.491 . S
C274 H265 0.950 . S
C274 C273 1.398 . S
C274 C275 1.391 . S
C275 H263 0.950 . S
C275 C271 1.393 . S
C275 C274 1.391 . S
C276 H266 0.950 . S
C276 C277 1.386 . S
C276 C278 1.391 . S
C277 C276 1.386 . S
C277 C281 1.393 . S
C278 H267 0.950 . S
C278 C276 1.391 . S
C278 C279 1.400 . S
C279 C273 1.491 . S
C279 C278 1.400 . S
C279 C280 1.398 . S
C280 H268 0.950 . S
C280 C279 1.398 . S
C280 C281 1.391 . S
C281 H269 0.950 . S
C281 C277 1.393 . S
C281 C280 1.391 . S
H282 C290 0.950 . S
H283 C295 0.950 1_545 S
H284 C292 0.950 . S
H285 C294 0.950 . S
H286 C296 0.950 . S
H287 C298 0.950 . S
H288 C300 0.950 . S
H289 C301 0.950 . S
C290 H282 0.950 . S
C290 C291 1.386 . S
C290 C292 1.391 . S
C291 C290 1.386 . S
C291 C295 1.393 . S
C292 H284 0.950 . S
C292 C290 1.391 . S
C292 C293 1.400 . S
C293 C292 1.400 . S
C293 C294 1.398 . S
C293 C299 1.491 . S
C294 H285 0.950 . S
C294 C293 1.398 . S
C294 C295 1.391 . S
C295 H283 0.950 1_565 S
C295 C291 1.393 . S
C295 C294 1.391 . S
C296 H286 0.950 . S
C296 C297 1.386 . S
C296 C298 1.391 . S
C297 C296 1.386 . S
C297 C301 1.393 . S
C298 H287 0.950 . S
C298 C296 1.391 . S
C298 C299 1.400 . S
C299 C293 1.491 . S
C299 C298 1.400 . S
C299 C300 1.398 . S
C300 H288 0.950 . S
C300 C299 1.398 . S
C300 C301 1.391 . S
C301 H289 0.950 . S
C301 C297 1.393 . S
C301 C300 1.391 . S
H302 C310 0.950 . S
H303 C315 0.950 . S
H304 C312 0.950 . S
H305 C314 0.950 . S
H306 C316 0.950 . S
H307 C318 0.950 . S
H308 C320 0.950 . S
H309 C321 0.950 . S
C310 H302 0.950 . S
C310 C311 1.386 . S
C310 C312 1.391 . S
C311 C310 1.386 . S
C311 C315 1.393 . S
C312 H304 0.950 . S
C312 C310 1.391 . S
C312 C313 1.400 . S
C313 C312 1.400 . S
C313 C314 1.398 . S
C313 C319 1.491 . S
C314 H305 0.950 . S
C314 C313 1.398 . S
C314 C315 1.391 . S
C315 H303 0.950 . S
C315 C311 1.393 . S
C315 C314 1.391 . S
C316 H306 0.950 . S
C316 C317 1.386 . S
C316 C318 1.391 . S
C317 C316 1.386 . S
C317 C321 1.393 . S
C318 H307 0.950 . S
C318 C316 1.391 . S
C318 C319 1.400 . S
C319 C313 1.491 . S
C319 C318 1.400 . S
C319 C320 1.398 . S
C320 H308 0.950 . S
C320 C319 1.398 . S
C320 C321 1.391 . S
C321 H309 0.950 . S
C321 C317 1.393 . S
C321 C320 1.391 . S
C91 C19 1.653 . S
C97 C59 1.528 . S
C111 C39 1.256 . S
C117 C65 1.151 . S
C131 C2 1.092 . S
C137 C56 1.051 . S
C151 C22 1.352 . S
C157 C81 1.281 . S
C171 C8 1.784 . S
C177 C47 1.675 . S
C197 C64 1.805 . S
C191 C28 1.888 . S
C211 C21 1.289 . S
C217 C60 1.212 . S
C237 C77 1.608 . S
C231 C9 1.702 . S
C257 C44 1.760 . S
C251 C29 1.873 . S
C277 C80 1.602 . S
C271 C18 1.705 . S
C297 C43 1.264 . S
C291 C38 1.327 . S
C317 C68 1.045 . S
C311 C1 1.101 . S
