# Generated by pormake.
# Topology fgl, (4,4)-cn, num edge types: 1
# Building blocks:
#     Node 0, Type 0, BuildingBlock: ESEHIV_clean_sbu_0, # of connection points: 4
#     Node 1, Type 0, BuildingBlock: ESEHIV_clean_sbu_0, # of connection points: 4
#     Node 2, Type 0, BuildingBlock: ESEHIV_clean_sbu_0, # of connection points: 4
#     Node 3, Type 0, BuildingBlock: ESEHIV_clean_sbu_0, # of connection points: 4
#     Node 4, Type 0, BuildingBlock: ESEHIV_clean_sbu_0, # of connection points: 4
#     Node 5, Type 0, BuildingBlock: ESEHIV_clean_sbu_0, # of connection points: 4
#     Node 6, Type 0, BuildingBlock: ESEHIV_clean_sbu_0, # of connection points: 4
#     Node 7, Type 0, BuildingBlock: ESEHIV_clean_sbu_0, # of connection points: 4
#     Node 8, Type 0, BuildingBlock: ESEHIV_clean_sbu_0, # of connection points: 4
#     Node 9, Type 0, BuildingBlock: ESEHIV_clean_sbu_0, # of connection points: 4
#     Node 10, Type 0, BuildingBlock: ESEHIV_clean_sbu_0, # of connection points: 4
#     Node 11, Type 0, BuildingBlock: ESEHIV_clean_sbu_0, # of connection points: 4
#     Node 12, Type 0, BuildingBlock: ESEHIV_clean_sbu_0, # of connection points: 4
#     Node 13, Type 0, BuildingBlock: ESEHIV_clean_sbu_0, # of connection points: 4
#     Node 14, Type 0, BuildingBlock: ESEHIV_clean_sbu_0, # of connection points: 4
#     Node 15, Type 0, BuildingBlock: ESEHIV_clean_sbu_0, # of connection points: 4
#     Node 16, Type 0, BuildingBlock: ESEHIV_clean_sbu_0, # of connection points: 4
#     Node 17, Type 0, BuildingBlock: ESEHIV_clean_sbu_0, # of connection points: 4
#     Node 18, Type 1, BuildingBlock: KUFVIS_clean_sbu_0, # of connection points: 4
#     Node 19, Type 1, BuildingBlock: KUFVIS_clean_sbu_0, # of connection points: 4
#     Node 20, Type 1, BuildingBlock: KUFVIS_clean_sbu_0, # of connection points: 4
#     Node 21, Type 1, BuildingBlock: KUFVIS_clean_sbu_0, # of connection points: 4
#     Node 22, Type 1, BuildingBlock: KUFVIS_clean_sbu_0, # of connection points: 4
#     Node 23, Type 1, BuildingBlock: KUFVIS_clean_sbu_0, # of connection points: 4
#     Node 24, Type 1, BuildingBlock: KUFVIS_clean_sbu_0, # of connection points: 4
#     Node 25, Type 1, BuildingBlock: KUFVIS_clean_sbu_0, # of connection points: 4
#     Node 26, Type 1, BuildingBlock: KUFVIS_clean_sbu_0, # of connection points: 4
#     Node 27, Type 1, BuildingBlock: KUFVIS_clean_sbu_0, # of connection points: 4
#     Node 28, Type 1, BuildingBlock: KUFVIS_clean_sbu_0, # of connection points: 4
#     Node 29, Type 1, BuildingBlock: KUFVIS_clean_sbu_0, # of connection points: 4
#     Node 30, Type 1, BuildingBlock: KUFVIS_clean_sbu_0, # of connection points: 4
#     Node 31, Type 1, BuildingBlock: KUFVIS_clean_sbu_0, # of connection points: 4
#     Node 32, Type 1, BuildingBlock: KUFVIS_clean_sbu_0, # of connection points: 4
#     Node 33, Type 1, BuildingBlock: KUFVIS_clean_sbu_0, # of connection points: 4
#     Node 34, Type 1, BuildingBlock: KUFVIS_clean_sbu_0, # of connection points: 4
#     Node 35, Type 1, BuildingBlock: KUFVIS_clean_sbu_0, # of connection points: 4
#     Edge 36, Type (0, 1), BuildingBlock: AJUNOK_clean_linker_0, # of connection points: 2
#     Edge 37, Type (0, 1), BuildingBlock: AJUNOK_clean_linker_0, # of connection points: 2
#     Edge 38, Type (0, 1), BuildingBlock: AJUNOK_clean_linker_0, # of connection points: 2
#     Edge 39, Type (0, 1), BuildingBlock: AJUNOK_clean_linker_0, # of connection points: 2
#     Edge 40, Type (0, 1), BuildingBlock: AJUNOK_clean_linker_0, # of connection points: 2
#     Edge 41, Type (0, 1), BuildingBlock: AJUNOK_clean_linker_0, # of connection points: 2
#     Edge 42, Type (0, 1), BuildingBlock: AJUNOK_clean_linker_0, # of connection points: 2
#     Edge 43, Type (0, 1), BuildingBlock: AJUNOK_clean_linker_0, # of connection points: 2
#     Edge 44, Type (0, 1), BuildingBlock: AJUNOK_clean_linker_0, # of connection points: 2
#     Edge 45, Type (0, 1), BuildingBlock: AJUNOK_clean_linker_0, # of connection points: 2
#     Edge 46, Type (0, 1), BuildingBlock: AJUNOK_clean_linker_0, # of connection points: 2
#     Edge 47, Type (0, 1), BuildingBlock: AJUNOK_clean_linker_0, # of connection points: 2
#     Edge 48, Type (0, 1), BuildingBlock: AJUNOK_clean_linker_0, # of connection points: 2
#     Edge 49, Type (0, 1), BuildingBlock: AJUNOK_clean_linker_0, # of connection points: 2
#     Edge 50, Type (0, 1), BuildingBlock: AJUNOK_clean_linker_0, # of connection points: 2
#     Edge 51, Type (0, 1), BuildingBlock: AJUNOK_clean_linker_0, # of connection points: 2
#     Edge 52, Type (0, 1), BuildingBlock: AJUNOK_clean_linker_0, # of connection points: 2
#     Edge 53, Type (0, 1), BuildingBlock: AJUNOK_clean_linker_0, # of connection points: 2
#     Edge 54, Type (0, 1), BuildingBlock: AJUNOK_clean_linker_0, # of connection points: 2
#     Edge 55, Type (0, 1), BuildingBlock: AJUNOK_clean_linker_0, # of connection points: 2
#     Edge 56, Type (0, 1), BuildingBlock: AJUNOK_clean_linker_0, # of connection points: 2
#     Edge 57, Type (0, 1), BuildingBlock: AJUNOK_clean_linker_0, # of connection points: 2
#     Edge 58, Type (0, 1), BuildingBlock: AJUNOK_clean_linker_0, # of connection points: 2
#     Edge 59, Type (0, 1), BuildingBlock: AJUNOK_clean_linker_0, # of connection points: 2
#     Edge 60, Type (0, 1), BuildingBlock: AJUNOK_clean_linker_0, # of connection points: 2
#     Edge 61, Type (0, 1), BuildingBlock: AJUNOK_clean_linker_0, # of connection points: 2
#     Edge 62, Type (0, 1), BuildingBlock: AJUNOK_clean_linker_0, # of connection points: 2
#     Edge 63, Type (0, 1), BuildingBlock: AJUNOK_clean_linker_0, # of connection points: 2
#     Edge 64, Type (0, 1), BuildingBlock: AJUNOK_clean_linker_0, # of connection points: 2
#     Edge 65, Type (0, 1), BuildingBlock: AJUNOK_clean_linker_0, # of connection points: 2
#     Edge 66, Type (0, 1), BuildingBlock: AJUNOK_clean_linker_0, # of connection points: 2
#     Edge 67, Type (0, 1), BuildingBlock: AJUNOK_clean_linker_0, # of connection points: 2
#     Edge 68, Type (0, 1), BuildingBlock: AJUNOK_clean_linker_0, # of connection points: 2
#     Edge 69, Type (0, 1), BuildingBlock: AJUNOK_clean_linker_0, # of connection points: 2
#     Edge 70, Type (0, 1), BuildingBlock: AJUNOK_clean_linker_0, # of connection points: 2
#     Edge 71, Type (0, 1), BuildingBlock: AJUNOK_clean_linker_0, # of connection points: 2
#     Edge 72, Type (0, 1), BuildingBlock: AJUNOK_clean_linker_0, # of connection points: 2
#     Edge 73, Type (0, 1), BuildingBlock: AJUNOK_clean_linker_0, # of connection points: 2
#     Edge 74, Type (0, 1), BuildingBlock: AJUNOK_clean_linker_0, # of connection points: 2
#     Edge 75, Type (0, 1), BuildingBlock: AJUNOK_clean_linker_0, # of connection points: 2
#     Edge 76, Type (0, 1), BuildingBlock: AJUNOK_clean_linker_0, # of connection points: 2
#     Edge 77, Type (0, 1), BuildingBlock: AJUNOK_clean_linker_0, # of connection points: 2
#     Edge 78, Type (0, 1), BuildingBlock: AJUNOK_clean_linker_0, # of connection points: 2
#     Edge 79, Type (0, 1), BuildingBlock: AJUNOK_clean_linker_0, # of connection points: 2
#     Edge 80, Type (0, 1), BuildingBlock: AJUNOK_clean_linker_0, # of connection points: 2
#     Edge 81, Type (0, 1), BuildingBlock: AJUNOK_clean_linker_0, # of connection points: 2
#     Edge 82, Type (0, 1), BuildingBlock: AJUNOK_clean_linker_0, # of connection points: 2
#     Edge 83, Type (0, 1), BuildingBlock: AJUNOK_clean_linker_0, # of connection points: 2
#     Edge 84, Type (0, 1), BuildingBlock: AJUNOK_clean_linker_0, # of connection points: 2
#     Edge 85, Type (0, 1), BuildingBlock: AJUNOK_clean_linker_0, # of connection points: 2
#     Edge 86, Type (0, 1), BuildingBlock: AJUNOK_clean_linker_0, # of connection points: 2
#     Edge 87, Type (0, 1), BuildingBlock: AJUNOK_clean_linker_0, # of connection points: 2
#     Edge 88, Type (0, 1), BuildingBlock: AJUNOK_clean_linker_0, # of connection points: 2
#     Edge 89, Type (0, 1), BuildingBlock: AJUNOK_clean_linker_0, # of connection points: 2
#     Edge 90, Type (0, 1), BuildingBlock: AJUNOK_clean_linker_0, # of connection points: 2
#     Edge 91, Type (0, 1), BuildingBlock: AJUNOK_clean_linker_0, # of connection points: 2
#     Edge 92, Type (0, 1), BuildingBlock: AJUNOK_clean_linker_0, # of connection points: 2
#     Edge 93, Type (0, 1), BuildingBlock: AJUNOK_clean_linker_0, # of connection points: 2
#     Edge 94, Type (0, 1), BuildingBlock: AJUNOK_clean_linker_0, # of connection points: 2
#     Edge 95, Type (0, 1), BuildingBlock: AJUNOK_clean_linker_0, # of connection points: 2
#     Edge 96, Type (0, 1), BuildingBlock: AJUNOK_clean_linker_0, # of connection points: 2
#     Edge 97, Type (0, 1), BuildingBlock: AJUNOK_clean_linker_0, # of connection points: 2
#     Edge 98, Type (0, 1), BuildingBlock: AJUNOK_clean_linker_0, # of connection points: 2
#     Edge 99, Type (0, 1), BuildingBlock: AJUNOK_clean_linker_0, # of connection points: 2
#     Edge 100, Type (0, 1), BuildingBlock: AJUNOK_clean_linker_0, # of connection points: 2
#     Edge 101, Type (0, 1), BuildingBlock: AJUNOK_clean_linker_0, # of connection points: 2
#     Edge 102, Type (0, 1), BuildingBlock: AJUNOK_clean_linker_0, # of connection points: 2
#     Edge 103, Type (0, 1), BuildingBlock: AJUNOK_clean_linker_0, # of connection points: 2
#     Edge 104, Type (0, 1), BuildingBlock: AJUNOK_clean_linker_0, # of connection points: 2
#     Edge 105, Type (0, 1), BuildingBlock: AJUNOK_clean_linker_0, # of connection points: 2
#     Edge 106, Type (0, 1), BuildingBlock: AJUNOK_clean_linker_0, # of connection points: 2
#     Edge 107, Type (0, 1), BuildingBlock: AJUNOK_clean_linker_0, # of connection points: 2
# Relax obj value: 0.025
# Max RMSD: 0.141
# Mean RMSD: 0.074
data_MOF--net-fgl--node1-ESEHIV_clean_sbu_0--node2-KUFVIS_clean_sbu_0--edge1-AJUNOK_clean_linker_0
_symmetry_space_group_name_H-M    P1
_symmetry_Int_Tables_number       1
_symmetry_cell_setting            triclinic
loop_
_symmetry_equiv_pos_as_xyz
'x, y, z'
_cell_length_a     54.979649
_cell_length_b     56.927021
_cell_length_c     37.831647
_cell_angle_alpha  89.232391
_cell_angle_beta   89.654166
_cell_angle_gamma 119.67323
loop_
_atom_site_label
_atom_site_type_symbol
_atom_site_fract_x
_atom_site_fract_y
_atom_site_fract_z
_atom_type_partial_charge
Cu0 Cu 0.01952 0.54156 0.02562 0.0
N1 N 0.99779 0.54146 0.06523 0.0
N2 N 0.98545 0.557 0.11303 0.0
C3 C 1.00332 0.5633 0.08502 0.0
C4 C 0.96839 0.52992 0.11088 0.0
C5 C 0.97576 0.52057 0.0815 0.0
O6 O 0.03607 0.57817 1.00699 0.0
C7 C 0.03014 0.50293 0.04729 0.0
O8 O 1.00275 0.49082 0.04551 0.0
H9 H 0.02022 0.58349 0.07891 0.0
H10 H 0.96593 0.49983 0.07312 0.0
N11 N 1.00105 0.51851 0.98684 0.0
N12 N 0.99577 0.49304 0.93901 0.0
C13 C 1.01374 0.51021 0.96309 0.0
C14 C 0.97409 0.50635 0.97719 0.0
C15 C 0.97084 0.49093 0.94775 0.0
C16 C 1.01654 0.58265 0.9974 0.0
O17 O 0.99044 0.56314 1.00038 0.0
H18 H 0.0357 0.51609 0.96415 0.0
H19 H 0.95785 0.5084 0.99068 0.0
O20 O 0.04426 0.52841 0.0416 0.0
H21 H 0.95215 0.51725 0.12975 0.0
H22 H 0.95149 0.47928 0.93376 0.0
Cu23 Cu 0.51975 0.55913 0.02599 0.0
N24 N 0.53257 0.56295 0.97589 0.0
N25 N 0.55727 0.58266 0.92575 0.0
C26 C 0.55725 0.58229 0.96168 0.0
C27 C 0.53155 0.56256 0.91724 0.0
C28 C 0.51643 0.55066 0.94794 0.0
O29 O 0.54996 0.60019 0.03288 0.0
C30 C 0.49194 0.49873 1.01031 0.0
O31 O 0.51773 0.50352 1.00586 0.0
H32 H 0.57423 0.59675 0.97742 0.0
H33 H 0.49469 0.53502 0.94961 0.0
N34 N 0.50609 0.55643 0.07531 0.0
N35 N 0.48558 0.5416 0.12882 0.0
C36 C 0.49474 0.53532 0.09883 0.0
C37 C 0.5037 0.5763 0.0909 0.0
C38 C 0.49147 0.56742 0.12366 0.0
C39 C 0.5673 0.61076 0.05831 0.0
O40 O 0.56702 0.59497 0.08415 0.0
H41 H 0.49202 0.51555 0.09344 0.0
H42 H 0.50978 0.59579 0.07881 0.0
O43 O 0.48822 0.51862 1.0184 0.0
H44 H 0.52382 0.55721 0.89064 0.0
H45 H 0.48662 0.57897 0.14206 0.0
Cu46 Cu 0.5409 0.06468 0.07113 0.0
N47 N 0.53819 0.07923 0.02776 0.0
N48 N 0.51805 0.0756 0.97541 0.0
C49 C 0.51406 0.07181 1.01065 0.0
C50 C 0.5456 0.0855 0.96981 0.0
C51 C 0.55793 0.08786 1.00211 0.0
O52 O 0.50153 0.04015 0.08519 0.0
C53 C 0.5937 0.06991 0.06097 0.0
O54 O 0.60072 0.09383 0.07314 0.0
H55 H 0.49357 0.06082 0.02295 0.0
H56 H 0.57919 0.09247 1.00617 0.0
N57 N 0.55719 0.08981 0.1074 0.0
N58 N 0.5833 0.10688 0.15549 0.0
C59 C 0.56644 0.0843 0.13756 0.0
C60 C 0.568 0.1168 0.1064 0.0
C61 C 0.58416 0.12739 0.13604 0.0
C62 C 0.48911 0.05359 0.09216 0.0
O63 O 0.50433 0.08008 0.09236 0.0
H64 H 0.56268 0.06428 0.14461 0.0
H65 H 0.56633 0.12811 0.08426 0.0
O66 O 0.56765 0.05199 0.05949 0.0
H67 H 0.55564 0.08889 0.94411 0.0
H68 H 0.59747 0.14869 0.14106 0.0
Cu69 Cu 0.53362 0.07059 0.54286 0.0
N70 N 0.5646 0.09731 0.51742 0.0
N71 N 0.59983 0.11473 0.47765 0.0
C72 C 0.58414 0.09396 0.50005 0.0
C73 C 0.59014 0.13222 0.48159 0.0
C74 C 0.56846 0.12144 0.50613 0.0
O75 O 0.54358 0.04133 0.55263 0.0
C76 C 0.47591 0.06226 0.53077 0.0
O77 O 0.4692 0.05079 0.56229 0.0
H78 H 0.58554 0.07582 0.50151 0.0
H79 H 0.55515 0.12967 0.51332 0.0
N80 N 0.53272 0.08307 0.58803 0.0
N81 N 0.51829 0.08213 0.64381 0.0
C82 C 0.51522 0.0678 0.61435 0.0
C83 C 0.54779 0.10798 0.60124 0.0
C84 C 0.53883 0.1075 0.63559 0.0
C85 C 0.55171 0.02929 0.53106 0.0
O86 O 0.54571 0.02913 0.49747 0.0
H87 H 0.49964 0.04682 0.61113 0.0
H88 H 0.56374 0.12536 0.58674 0.0
O89 O 0.50001 0.06843 0.51736 0.0
H90 H 0.59708 0.15073 0.46633 0.0
H91 H 0.54649 0.12464 0.65289 0.0
Cu92 Cu 0.02902 0.56523 0.53577 0.0
N93 N 0.04968 0.55561 0.56815 0.0
N94 N 0.05421 0.5291 0.61019 0.0
C95 C 0.03641 0.53441 0.59146 0.0
C96 C 0.07991 0.54822 0.59852 0.0
C97 C 0.07709 0.56425 0.57258 0.0
O98 O 1.0026 0.5279 0.52202 0.0
C99 C 0.04383 0.61275 0.5681 0.0
O100 O 0.06758 0.61338 0.56119 0.0
H101 H 1.01386 0.5227 0.59407 0.0
H102 H 0.09385 0.58053 0.55744 0.0
N103 N 0.0424 0.58416 0.49137 0.0
N104 N 0.03897 0.60321 0.43983 0.0
C105 C 0.02537 0.58798 0.46897 0.0
C106 C 0.06796 0.59777 0.47607 0.0
C107 C 0.0659 0.60942 0.44452 0.0
C108 C 1.01622 0.51898 0.5042 0.0
O109 O 0.04176 0.53635 0.49343 0.0
H110 H 1.00345 0.58044 0.47489 0.0
H111 H 0.08682 0.59947 0.48724 0.0
O112 O 0.021 0.59111 0.56077 0.0
H113 H 0.09944 0.54986 0.60708 0.0
H114 H 0.08307 0.62161 0.42644 0.0
Cu115 Cu 0.52652 0.55751 0.53982 0.0
N116 N 0.56051 0.56116 0.52549 0.0
N117 N 0.60616 0.58628 0.51415 0.0
C118 C 0.58183 0.58605 0.51872 0.0
C119 C 0.5998 0.56017 0.51705 0.0
C120 C 0.57145 0.54461 0.52457 0.0
O121 O 0.53893 0.58656 0.57514 0.0
C122 C 0.5008 0.53406 0.4782 0.0
O123 O 0.51172 0.51948 0.48977 0.0
H124 H 0.57932 0.60373 0.51731 0.0
H125 H 0.55994 0.52306 0.52979 0.0
N126 N 0.50343 0.52621 0.56546 0.0
N127 N 0.46468 0.49806 0.59538 0.0
C128 C 0.4777 0.52071 0.57542 0.0
C129 C 0.50696 0.50623 0.57942 0.0
C130 C 0.48284 0.48865 0.59795 0.0
C131 C 0.55165 0.58186 0.6003 0.0
O132 O 0.55319 0.5596 0.59897 0.0
H133 H 0.46861 0.53309 0.56789 0.0
H134 H 0.52561 0.50457 0.5765 0.0
O135 O 0.50512 0.55462 0.49639 0.0
H136 H 0.61463 0.55298 0.51458 0.0
H137 H 0.47858 0.46997 0.61111 0.0
Cu138 Cu 0.69472 0.89063 0.35606 0.0
N139 N 0.71455 0.92694 0.34124 0.0
N140 N 0.72095 0.96881 0.33501 0.0
C141 C 0.70226 0.94234 0.33975 0.0
C142 C 0.74614 0.97011 0.33277 0.0
C143 C 0.74213 0.94421 0.33681 0.0
O144 O 0.67315 0.89396 0.39825 0.0
C145 C 0.69816 0.87149 0.28812 0.0
O146 O 0.72435 0.88802 0.29626 0.0
H147 H 0.68007 0.93439 0.34436 0.0
H148 H 0.75824 0.93859 0.33796 0.0
N149 N 0.71761 0.87745 0.37394 0.0
N150 N 0.73021 0.84646 0.38756 0.0
C151 C 0.71092 0.8513 0.37223 0.0
C152 C 0.74216 0.88982 0.39088 0.0
C153 C 0.74986 0.87076 0.39956 0.0
C154 C 0.68864 0.91178 0.42116 0.0
O155 O 0.71587 0.92346 0.41661 0.0
H156 H 0.69216 0.83611 0.35969 0.0
H157 H 0.75356 0.91108 0.39694 0.0
O158 O 0.67928 0.86878 0.31102 0.0
H159 H 0.76606 0.98843 0.32901 0.0
H160 H 0.7681 0.87456 0.41453 0.0
Cu161 Cu 0.19201 0.89131 0.37026 0.0
N162 N 0.15682 0.87114 0.34922 0.0
N163 N 0.12037 0.83464 0.32624 0.0
C164 C 0.14667 0.84542 0.33864 0.0
C165 C 0.11368 0.8544 0.32936 0.0
C166 C 0.13621 0.87691 0.34339 0.0
O167 O 0.1891 0.86927 0.41283 0.0
C168 C 0.2165 0.91202 0.30561 0.0
O169 O 0.19455 0.91542 0.30594 0.0
H170 H 0.15803 0.8345 0.34143 0.0
H171 H 0.13726 0.89589 0.34946 0.0
N172 N 0.2021 0.92635 0.38557 0.0
N173 N 0.23197 0.96944 0.39966 0.0
C174 C 0.22914 0.94576 0.38856 0.0
C175 C 0.18711 0.9381 0.39537 0.0
C176 C 0.2055 0.96463 0.4043 0.0
C177 C 0.17006 0.86699 0.43466 0.0
O178 O 0.1564 0.87989 0.42734 0.0
H179 H 0.24647 0.94231 0.38319 0.0
H180 H 0.16451 0.92819 0.39613 0.0
O181 O 0.21997 0.89973 0.33214 0.0
H182 H 0.09378 0.85261 0.32232 0.0
H183 H 0.19983 0.97931 0.41314 0.0
Cu184 Cu 0.19716 0.40844 0.38692 0.0
N185 N 0.20311 0.43194 0.34931 0.0
N186 N 0.19529 0.44053 0.29414 0.0
C187 C 0.19166 0.42145 0.3182 0.0
C188 C 0.20968 0.46426 0.31102 0.0
C189 C 0.21457 0.45887 0.34522 0.0
O190 O 0.15559 0.38737 0.39097 0.0
C191 C 0.24857 0.41103 0.38004 0.0
O192 O 0.25486 0.4342 0.39419 0.0
H193 H 0.17888 0.3999 0.31445 0.0
H194 H 0.22471 0.47343 0.36576 0.0
N195 N 0.20887 0.42393 0.43099 0.0
N196 N 0.22637 0.42589 0.48449 0.0
C197 C 0.21298 0.41012 0.45704 0.0
C198 C 0.21912 0.44929 0.44271 0.0
C199 C 0.22991 0.45051 0.47599 0.0
C200 C 0.1456 0.40323 0.39638 0.0
O201 O 0.16353 0.42911 0.39951 0.0
H202 H 0.2075 0.38914 0.45489 0.0
H203 H 0.22019 0.46599 0.42754 0.0
O204 O 0.22262 0.39402 0.37455 0.0
H205 H 0.2152 0.48394 0.29996 0.0
H206 H 0.24109 0.46846 0.49165 0.0
Cu207 Cu 0.18082 0.35533 0.86832 0.0
N208 N 0.17254 0.32722 0.83786 0.0
N209 N 0.18694 0.31624 0.78878 0.0
C210 C 0.1812 0.33409 0.80427 0.0
C211 C 0.18037 0.29648 0.81334 0.0
C212 C 0.17152 0.30338 0.84379 0.0
O213 O 0.2218 0.36985 0.87736 0.0
C214 C 0.13707 0.3618 0.84249 0.0
O215 O 0.12523 0.33617 0.85207 0.0
H216 H 0.18804 0.35422 0.79365 0.0
H217 H 0.16848 0.29366 0.86944 0.0
N218 N 0.16346 0.34453 0.91224 0.0
N219 N 0.15137 0.35099 0.96586 0.0
C220 C 0.16575 0.36276 0.93592 0.0
C221 C 0.14698 0.32012 0.92753 0.0
C222 C 0.13941 0.3241 0.96088 0.0
C223 C 0.22709 0.35436 0.89717 0.0
O224 O 0.20595 0.33238 0.91067 0.0
H225 H 0.17717 0.38437 0.93079 0.0
H226 H 0.14039 0.30095 0.91509 0.0
O227 O 0.16376 0.3762 0.84647 0.0
H228 H 0.18466 0.27995 0.81093 0.0
H229 H 0.12503 0.30853 0.97915 0.0
Cu230 Cu 0.69578 0.89467 0.85129 0.0
N231 N 0.71396 0.87736 0.83195 0.0
N232 N 0.71825 0.84222 0.81468 0.0
C233 C 0.7029 0.85032 0.83331 0.0
C234 C 0.73999 0.86501 0.80098 0.0
C235 C 0.73738 0.88678 0.81189 0.0
O236 O 0.67569 0.86944 0.89361 0.0
C237 C 0.69451 0.92064 0.78632 0.0
O238 O 0.72143 0.93209 0.79253 0.0
H239 H 0.68323 0.83668 0.84642 0.0
H240 H 0.7512 0.90783 0.80499 0.0
N241 N 0.72115 0.92886 0.86845 0.0
N242 N 0.73722 0.97152 0.88574 0.0
C243 C 0.71583 0.94946 0.87117 0.0
C244 C 0.7469 0.93807 0.88159 0.0
C245 C 0.75678 0.96428 0.89255 0.0
C246 C 0.68418 0.8749 0.92586 0.0
O247 O 0.7023 0.90004 0.93325 0.0
H248 H 0.69645 0.94813 0.86262 0.0
H249 H 0.75734 0.92627 0.88404 0.0
O250 O 0.67767 0.90265 0.80916 0.0
H251 H 0.75635 0.8658 0.78409 0.0
H252 H 0.77635 0.97646 0.90584 0.0
Cu253 Cu 0.19464 0.88476 0.87308 0.0
N254 N 0.17357 0.88704 0.83525 0.0
N255 N 0.15089 0.87607 0.78342 0.0
C256 C 0.16698 0.87144 0.80627 0.0
C257 C 0.14701 0.89524 0.79902 0.0
C258 C 0.16099 0.90196 0.8308 0.0
O259 O 0.17469 0.84576 0.88313 0.0
C260 C 0.2428 0.92711 0.8495 0.0
O261 O 0.2251 0.93628 0.85124 0.0
H262 H 0.17388 0.85687 0.80212 0.0
H263 H 0.16153 0.91639 0.84951 0.0
N264 N 0.19664 0.90414 0.91448 0.0
N265 N 0.21364 0.92595 0.96558 0.0
C266 C 0.21728 0.91248 0.93865 0.0
C267 C 0.17928 0.91257 0.92666 0.0
C268 C 0.1895 0.92574 0.95812 0.0
C269 C 0.15899 0.83608 0.91055 0.0
O270 O 0.16321 0.85201 0.93734 0.0
H271 H 0.23492 0.9091 0.93615 0.0
H272 H 0.16048 0.90943 0.91376 0.0
O273 O 0.23351 0.90206 0.85655 0.0
H274 H 0.13416 0.90325 0.78894 0.0
H275 H 0.17956 0.93414 0.9744 0.0
Cu276 Cu 0.36917 0.22399 0.72111 0.0
N277 N 0.38684 0.25754 0.69867 0.0
N278 N 0.38696 0.29072 0.66678 0.0
C279 C 0.37128 0.26624 0.68203 0.0
C280 C 0.41371 0.29799 0.67455 0.0
C281 C 0.41362 0.27717 0.69401 0.0
O282 O 0.35086 0.23004 0.76435 0.0
C283 C 0.37072 0.20288 0.65603 0.0
O284 O 0.39683 0.22047 0.66315 0.0
H285 H 0.34862 0.25519 0.68269 0.0
H286 H 0.4316 0.27664 0.70443 0.0
N287 N 0.39274 0.21174 0.73754 0.0
N288 N 0.40436 0.17995 0.74783 0.0
C289 C 0.3841 0.18518 0.73784 0.0
C290 C 0.41949 0.224 0.74821 0.0
C291 C 0.42666 0.20424 0.75498 0.0
C292 C 0.36789 0.24921 0.78461 0.0
O293 O 0.39453 0.26167 0.77556 0.0
H294 H 0.36311 0.16992 0.73095 0.0
H295 H 0.43286 0.2456 0.75055 0.0
O296 O 0.35184 0.19967 0.67922 0.0
H297 H 0.43187 0.31719 0.66749 0.0
H298 H 0.44671 0.20746 0.76401 0.0
Cu299 Cu 0.84741 0.21345 0.67188 0.0
N300 N 0.84726 0.23204 0.63063 0.0
N301 N 0.86638 0.26223 0.58613 0.0
C302 C 0.8709 0.24885 0.61259 0.0
C303 C 0.83858 0.25308 0.58681 0.0
C304 C 0.8268 0.23451 0.61457 0.0
O305 O 0.88681 0.23741 0.68979 0.0
C306 C 0.80274 0.16121 0.65571 0.0
O307 O 0.79033 0.17585 0.65612 0.0
H308 H 0.89131 0.2518 0.61939 0.0
H309 H 0.80511 0.22436 0.62314 0.0
N310 N 0.82382 0.21404 0.70731 0.0
N311 N 0.79709 0.20128 0.7564 0.0
C312 C 0.81424 0.19683 0.73534 0.0
C313 C 0.81247 0.2301 0.71071 0.0
C314 C 0.79617 0.22244 0.74112 0.0
C315 C 0.89283 0.26195 0.69629 0.0
O316 O 0.87317 0.26834 0.6915 0.0
H317 H 0.81934 0.18094 0.73974 0.0
H318 H 0.81588 0.24627 0.69246 0.0
O319 O 0.82945 0.17345 0.6608 0.0
H320 H 0.82783 0.26017 0.56957 0.0
H321 H 0.78495 0.23208 0.75137 0.0
Cu322 Cu 0.86044 0.70651 0.6766 0.0
N323 N 0.84306 0.68574 0.63722 0.0
N324 N 0.82592 0.67969 0.58253 0.0
C325 C 0.84662 0.69616 0.60424 0.0
C326 C 0.80916 0.65761 0.60267 0.0
C327 C 0.81968 0.66149 0.63643 0.0
O328 O 0.83305 0.71452 0.69841 0.0
C329 C 0.91219 0.72749 0.646 0.0
O330 O 0.90033 0.70193 0.6374 0.0
H331 H 0.86322 0.71625 0.59723 0.0
H332 H 0.80962 0.64873 0.65943 0.0
N333 N 0.86907 0.68862 0.71128 0.0
N334 N 0.89318 0.68728 0.75779 0.0
C335 C 0.88539 0.70234 0.73834 0.0
C336 C 0.86635 0.66383 0.71328 0.0
C337 C 0.88132 0.66295 0.7421 0.0
C338 C 0.81738 0.7212 0.68139 0.0
O339 O 0.82286 0.72843 0.64791 0.0
H340 H 0.89309 0.72369 0.74193 0.0
H341 H 0.8556 0.64811 0.6942 0.0
O342 O 0.89765 0.73582 0.6626 0.0
H343 H 0.78933 0.64094 0.59452 0.0
H344 H 0.88404 0.64609 0.75016 0.0
Cu345 Cu 0.83968 0.70818 0.14884 0.0
N346 N 0.84419 0.69521 0.1053 0.0
N347 N 0.86901 0.69296 0.05952 0.0
C348 C 0.86777 0.70841 0.08547 0.0
C349 C 0.84521 0.66893 0.06322 0.0
C350 C 0.82988 0.67039 0.09147 0.0
O351 O 0.87491 0.71716 0.17468 0.0
C352 C 0.79968 0.72287 0.12898 0.0
O353 O 0.78801 0.69733 0.1202 0.0
H354 H 0.88467 0.72833 0.09171 0.0
H355 H 0.81062 0.65403 0.10246 0.0
N356 N 0.81198 0.68234 0.17854 0.0
N357 N 0.78499 0.67148 0.22688 0.0
C358 C 0.79967 0.69054 0.20226 0.0
C359 C 0.80483 0.65688 0.18857 0.0
C360 C 0.78825 0.65018 0.21886 0.0
C361 C 0.88057 0.69773 0.1755 0.0
O362 O 0.86374 0.67531 0.15929 0.0
H363 H 0.80343 0.71107 0.20327 0.0
H364 H 0.81246 0.64467 0.17633 0.0
O365 O 0.82495 0.73409 0.14053 0.0
H366 H 0.83971 0.65136 0.04735 0.0
H367 H 0.78027 0.63173 0.23453 0.0
Cu368 Cu 0.37201 0.22774 0.21417 0.0
N369 N 0.3863 0.20601 0.19624 0.0
N370 N 0.38693 0.16797 0.18269 0.0
C371 C 0.37144 0.17872 0.19459 0.0
C372 C 0.41261 0.18932 0.17613 0.0
C373 C 0.41221 0.21275 0.18469 0.0
O374 O 0.35946 0.21216 0.26402 0.0
C375 C 0.36982 0.25042 0.14761 0.0
O376 O 0.39623 0.25693 0.15031 0.0
H377 H 0.34952 0.16681 0.20155 0.0
H378 H 0.42969 0.23318 0.18315 0.0
N379 N 0.39878 0.26334 0.2257 0.0
N380 N 0.41221 0.30577 0.24277 0.0
C381 C 0.39308 0.28388 0.22525 0.0
C382 C 0.42235 0.27238 0.24441 0.0
C383 C 0.43071 0.29848 0.25486 0.0
C384 C 0.34429 0.18796 0.2766 0.0
O385 O 0.32642 0.16916 0.25578 0.0
H386 H 0.37421 0.28209 0.21398 0.0
H387 H 0.4315 0.26016 0.25236 0.0
O388 O 0.35294 0.23555 0.17294 0.0
H389 H 0.43054 0.18802 0.16673 0.0
H390 H 0.44783 0.31018 0.27242 0.0
Cu391 Cu 0.87128 0.25282 0.17937 0.0
N392 N 0.85837 0.25425 0.13393 0.0
N393 N 0.83718 0.23889 0.08216 0.0
C394 C 0.84697 0.23319 0.11179 0.0
C395 C 0.84305 0.26477 0.08565 0.0
C396 C 0.85615 0.27419 0.1175 0.0
O397 O 0.84941 0.21606 0.19798 0.0
C398 C 0.92338 0.29492 0.17271 0.0
O399 O 0.90715 0.30529 0.16635 0.0
H400 H 0.84414 0.21347 0.11862 0.0
H401 H 0.86261 0.29385 0.12837 0.0
N402 N 0.86594 0.27303 0.21372 0.0
N403 N 0.87768 0.29526 0.26459 0.0
C404 C 0.87847 0.2761 0.24499 0.0
C405 C 0.85656 0.29083 0.21317 0.0
C406 C 0.86402 0.3048 0.24458 0.0
C407 C 0.82314 0.20675 0.19485 0.0
O408 O 0.81437 0.22133 0.17783 0.0
H409 H 0.89029 0.26613 0.25161 0.0
H410 H 0.84679 0.29467 0.19081 0.0
O411 O 0.91193 0.26935 0.17735 0.0
H412 H 0.83738 0.27582 0.06707 0.0
H413 H 0.86064 0.32135 0.25152 0.0
Mn414 Mn 1.008 0.68222 0.26311 0.0
Mn415 Mn 0.94331 0.6303 0.27905 0.0
C416 C 0.9698 0.68391 0.23862 0.0
C417 C 0.04386 0.72458 0.2829 0.0
C418 C 0.9825 0.62794 0.22316 0.0
O419 O 1.01422 0.66197 0.30435 0.0
O420 O 0.97012 0.62893 0.31449 0.0
C421 C 0.93374 0.64823 0.34828 0.0
N422 N 0.92576 0.64087 0.31434 0.0
C423 C 0.88583 0.64713 0.32166 0.0
C424 C 0.89351 0.65457 0.35677 0.0
C425 C 0.9176 0.65516 0.3701 0.0
C426 C 0.90266 0.64031 0.30122 0.0
H427 H 0.95232 0.64886 0.35859 0.0
C428 C 0.99633 0.64114 0.32194 0.0
O429 O 0.04937 0.71024 0.26114 0.0
O430 O 0.01817 0.71387 0.29357 0.0
N431 N 0.91507 0.62869 0.24805 0.0
C432 C 0.91147 0.62274 0.21304 0.0
C433 C 0.88851 0.62169 0.19552 0.0
C434 C 0.86953 0.62686 0.21411 0.0
C435 C 0.87372 0.63309 0.25006 0.0
C436 C 0.89682 0.63355 0.26623 0.0
H437 H 0.92641 0.61959 0.19832 0.0
O438 O 0.99496 0.69888 0.22622 0.0
O439 O 0.96779 0.66845 0.26575 0.0
O440 O 1.00332 0.65191 0.22787 0.0
O441 O 0.95984 0.61835 0.24157 0.0
C442 C 0.85627 0.63953 0.27027 0.0
C443 C 0.86235 0.64659 0.30603 0.0
H444 H 0.88119 0.66005 0.37365 0.0
H445 H 0.92374 0.66102 0.39711 0.0
H446 H 0.88568 0.61728 0.16763 0.0
H447 H 0.85205 0.62637 0.2004 0.0
H448 H 0.83836 0.63949 0.25843 0.0
H449 H 0.84896 0.65179 0.32118 0.0
Mn450 Mn 0.4 0.43574 0.30952 0.0
Mn451 Mn 0.38173 0.48444 0.30789 0.0
C452 C 0.35699 0.42721 0.335 0.0
C453 C 0.40356 0.39939 0.28548 0.0
C454 C 0.42611 0.48606 0.35701 0.0
O455 O 0.4252 0.46161 0.26942 0.0
O456 O 0.40849 0.49057 0.2686 0.0
C457 C 0.3513 0.47147 0.24021 0.0
N458 N 0.35185 0.4754 0.27569 0.0
C459 C 0.30609 0.47115 0.27503 0.0
C460 C 0.30507 0.4672 0.23844 0.0
C461 C 0.32769 0.46715 0.22101 0.0
C462 C 0.32996 0.47489 0.29283 0.0
H463 H 0.36877 0.47174 0.22665 0.0
C464 C 0.42406 0.48178 0.25576 0.0
O465 O 0.42098 0.41548 0.30842 0.0
O466 O 0.3837 0.40425 0.27616 0.0
N467 N 0.35562 0.48103 0.34395 0.0
C468 C 0.35979 0.48485 0.37938 0.0
C469 C 0.33924 0.48566 0.40067 0.0
C470 C 0.31482 0.48292 0.38527 0.0
C471 C 0.31094 0.47886 0.34878 0.0
C472 C 0.3321 0.47817 0.32892 0.0
H473 H 0.37866 0.48735 0.39133 0.0
O474 O 0.36886 0.4134 0.34495 0.0
O475 O 0.37076 0.44577 0.31098 0.0
O476 O 0.42299 0.46332 0.34753 0.0
O477 O 0.41241 0.49635 0.3429 0.0
C478 C 0.28703 0.47577 0.3313 0.0
C479 C 0.28441 0.47157 0.29453 0.0
H480 H 0.28699 0.46407 0.2235 0.0
H481 H 0.32702 0.46401 0.1928 0.0
H482 H 0.34234 0.48867 0.42883 0.0
H483 H 0.2992 0.48393 0.40174 0.0
H484 H 0.27059 0.47662 0.34598 0.0
H485 H 0.26573 0.46888 0.2815 0.0
Mn486 Mn 0.69144 0.09331 0.30702 0.0
Mn487 Mn 0.7091 0.15926 0.30876 0.0
C488 C 0.72908 0.12494 0.2736 0.0
C489 C 0.69556 0.05622 0.32691 0.0
C490 C 0.66163 0.11852 0.26496 0.0
O491 O 0.67046 0.09448 0.35142 0.0
O492 O 0.6825 0.13842 0.34745 0.0
C493 C 0.74051 0.17117 0.37556 0.0
N494 N 0.73949 0.17675 0.34066 0.0
C495 C 0.78615 0.21483 0.34168 0.0
C496 C 0.78771 0.20958 0.37767 0.0
C497 C 0.76484 0.18754 0.39462 0.0
C498 C 0.76159 0.19748 0.3239 0.0
H499 H 0.72289 0.15439 0.38877 0.0
C500 C 0.66917 0.11503 0.36217 0.0
O501 O 0.67374 0.05304 0.30981 0.0
O502 O 0.71386 0.08083 0.33469 0.0
N503 N 0.73466 0.18284 0.27318 0.0
C504 C 0.72928 0.18592 0.23883 0.0
C505 C 0.74973 0.20752 0.21834 0.0
C506 C 0.7752 0.22605 0.23361 0.0
C507 C 0.78004 0.22276 0.26917 0.0
C508 C 0.75887 0.20094 0.2883 0.0
H509 H 0.70945 0.17211 0.22721 0.0
O510 O 0.71647 0.09964 0.26546 0.0
O511 O 0.71955 0.13125 0.30137 0.0
O512 O 0.66362 0.098 0.27519 0.0
O513 O 0.67812 0.14258 0.27505 0.0
C514 C 0.8048 0.24062 0.28661 0.0
C515 C 0.80799 0.23659 0.32275 0.0
H516 H 0.80636 0.22231 0.3925 0.0
H517 H 0.76588 0.1833 0.42237 0.0
H518 H 0.74575 0.21004 0.19096 0.0
H519 H 0.79077 0.24295 0.21793 0.0
H520 H 0.82139 0.25761 0.27252 0.0
H521 H 0.82721 0.25046 0.33577 0.0
Mn522 Mn 0.02607 0.41237 0.77976 0.0
Mn523 Mn 0.05937 0.40039 0.71253 0.0
C524 C 0.05715 0.39588 0.79223 0.0
C525 C 0.01909 0.43829 0.82397 0.0
C526 C 0.99757 0.36232 0.73071 0.0
O527 O 0.02432 0.43592 0.73832 0.0
O528 O 0.04826 0.42762 0.69626 0.0
C529 C 0.11003 0.45451 0.70561 0.0
N530 N 0.09817 0.42733 0.71134 0.0
C531 C 0.14347 0.43071 0.71571 0.0
C532 C 0.15612 0.4587 0.70962 0.0
C533 C 0.13931 0.47065 0.70469 0.0
C534 C 0.11417 0.41566 0.71639 0.0
H535 H 0.09727 0.46384 0.70174 0.0
C536 C 0.03564 0.44009 0.70734 0.0
O537 O 0.99884 0.41741 0.80948 0.0
O538 O 0.04401 0.44518 0.81184 0.0
N539 N 0.07207 0.37543 0.72434 0.0
C540 C 0.05668 0.34821 0.73039 0.0
C541 C 0.07041 0.33332 0.73656 0.0
C542 C 0.09978 0.34649 0.73617 0.0
C543 C 0.11518 0.37441 0.72933 0.0
C544 C 0.10036 0.38818 0.72316 0.0
H545 H 0.0341 0.3379 0.73076 0.0
O546 O 0.03716 0.39198 0.81416 0.0
O547 O 0.05814 0.40892 0.76312 0.0
O548 O 0.99744 0.3764 0.75663 0.0
O549 O 0.01945 0.37011 0.71125 0.0
C550 C 0.14467 0.38913 0.7286 0.0
C551 C 0.1588 0.41726 0.72177 0.0
H552 H 0.1787 0.47123 0.709 0.0
H553 H 0.14892 0.49225 0.70015 0.0
H554 H 0.05836 0.31176 0.74175 0.0
H555 H 0.11029 0.33497 0.74122 0.0
H556 H 0.15668 0.37904 0.73345 0.0
H557 H 0.18147 0.4284 0.72156 0.0
Mn558 Mn 0.6599 0.67989 0.74943 0.0
Mn559 Mn 0.70717 0.69034 0.81329 0.0
C560 C 0.70631 0.69368 0.73382 0.0
C561 C 0.62461 0.652 0.71 0.0
C562 C 0.68868 0.73092 0.79414 0.0
O563 O 0.63498 0.66084 0.79348 0.0
O564 O 0.6684 0.66691 0.8321 0.0
C565 C 0.69685 0.63434 0.82197 0.0
N566 N 0.7148 0.66103 0.81492 0.0
C567 C 0.75403 0.65337 0.811 0.0
C568 C 0.73598 0.62583 0.81842 0.0
C569 C 0.70725 0.61626 0.82377 0.0
C570 C 0.74243 0.6704 0.8094 0.0
H571 H 0.67477 0.6269 0.82627 0.0
C572 C 0.6426 0.65691 0.82396 0.0
O573 O 0.62701 0.67458 0.72066 0.0
O574 O 0.64207 0.64516 0.72312 0.0
N575 N 0.74566 0.71228 0.79934 0.0
C576 C 0.76026 0.7394 0.79227 0.0
C577 C 0.78919 0.75202 0.78538 0.0
C578 C 0.8029 0.73676 0.7864 0.0
C579 C 0.78758 0.70903 0.79458 0.0
C580 C 0.75879 0.69755 0.80123 0.0
H581 H 0.74992 0.75131 0.79164 0.0
O582 O 0.68997 0.69686 0.71208 0.0
O583 O 0.69486 0.68165 0.76388 0.0
O584 O 0.67233 0.71743 0.76931 0.0
O585 O 0.70157 0.72212 0.81337 0.0
C586 C 0.79973 0.6923 0.79625 0.0
C587 C 0.78297 0.6645 0.80448 0.0
H588 H 0.74392 0.61181 0.81978 0.0
H589 H 0.69318 0.59501 0.82936 0.0
H590 H 0.8009 0.77347 0.77927 0.0
H591 H 0.82519 0.74654 0.7809 0.0
H592 H 0.82192 0.70058 0.79106 0.0
H593 H 0.79251 0.6518 0.8054 0.0
Mn594 Mn 0.40573 0.04276 0.82235 0.0
Mn595 Mn 0.36991 0.01587 0.74836 0.0
C596 C 0.35964 1.00873 0.82752 0.0
C597 C 0.43718 0.04757 0.86583 0.0
C598 C 0.38782 0.07266 0.77315 0.0
O599 O 0.43546 0.05522 0.78274 0.0
O600 O 0.40991 0.02717 0.73917 0.0
C601 C 0.37448 0.9665 0.74113 0.0
N602 N 0.35834 0.97835 0.74458 0.0
C603 C 0.31604 0.93538 0.74087 0.0
C604 C 0.33223 0.92275 0.73691 0.0
C605 C 0.36157 0.93837 0.73722 0.0
C606 C 0.33009 0.96349 0.74467 0.0
H607 H 0.39701 0.97845 0.74139 0.0
C608 C 0.43325 0.04468 0.75241 0.0
O609 O 0.43314 0.06722 0.85624 0.0
O610 O 0.42362 0.02483 0.84923 0.0
N611 N 0.33088 1.00416 0.75409 0.0
C612 C 0.31828 0.01942 0.75829 0.0
C613 C 0.28892 1.0068 0.7592 0.0
C614 C 0.27281 0.97867 0.75537 0.0
C615 C 0.28622 0.96344 0.75043 0.0
C616 C 0.31554 0.97716 0.74955 0.0
H617 H 0.33047 0.04105 0.76099 0.0
O618 O 0.37188 0.02454 0.85382 0.0
O619 O 0.37508 1.01277 0.79939 0.0
O620 O 0.39345 0.06858 0.80423 0.0
O621 O 0.38049 0.05492 0.74913 0.0
C622 C 0.27163 0.93517 0.74653 0.0
C623 C 0.28654 0.92115 0.74178 0.0
H624 H 0.32234 0.90105 0.73401 0.0
H625 H 0.37421 0.92875 0.73445 0.0
H626 H 0.27874 0.01872 0.76287 0.0
H627 H 0.25018 0.96898 0.75633 0.0
H628 H 0.24896 0.924 0.74735 0.0
H629 H 0.2751 0.89939 0.73908 0.0
Mn630 Mn 0.68191 1.0062 0.59845 0.0
Mn631 Mn 0.61781 0.94968 0.6029 0.0
C632 C 0.64212 1.00696 0.57498 0.0
C633 C 0.71898 0.04827 0.62155 0.0
C634 C 0.66248 0.95661 0.54845 0.0
O635 O 0.68621 0.98258 0.63839 0.0
O636 O 0.64217 0.9475 0.64083 0.0
C637 C 0.59953 0.95897 0.67267 0.0
N638 N 0.59516 0.95457 0.63737 0.0
C639 C 0.55239 0.95636 0.64115 0.0
C640 C 0.55629 0.96061 0.67758 0.0
C641 C 0.58 0.96199 0.69338 0.0
C642 C 0.57251 0.95342 0.62186 0.0
H643 H 0.61783 0.96031 0.68495 0.0
C644 C 0.66714 0.9603 0.65293 0.0
O645 O 0.72352 0.03438 0.59821 0.0
O646 O 0.6931 0.03734 0.63237 0.0
N647 N 0.59166 0.94894 0.56904 0.0
C648 C 0.59123 0.94535 0.53344 0.0
C649 C 0.569 0.94385 0.51364 0.0
C650 C 0.54736 0.94589 0.53061 0.0
C651 C 0.54798 0.94911 0.56732 0.0
C652 C 0.57051 0.95016 0.58575 0.0
H653 H 0.60778 0.94379 0.52013 0.0
O654 O 0.66739 0.02428 0.56452 0.0
O655 O 0.64083 0.98956 0.59877 0.0
O656 O 0.68056 0.98048 0.5583 0.0
O657 O 0.63908 0.94265 0.56499 0.0
C658 C 0.52729 0.95165 0.58627 0.0
C659 C 0.52954 0.95536 0.62314 0.0
H660 H 0.54135 0.96307 0.69363 0.0
H661 H 0.58327 0.96545 0.72144 0.0
H662 H 0.56865 0.94131 0.48532 0.0
H663 H 0.53042 0.94505 0.51518 0.0
H664 H 0.50972 0.95108 0.5727 0.0
H665 H 0.51368 0.95761 0.63736 0.0
Mn666 Mn 0.07078 0.7655 0.61166 0.0
Mn667 Mn 0.06255 0.81946 0.59305 0.0
C668 C 0.02998 0.76568 0.62863 0.0
C669 C 0.06443 0.72204 0.59805 0.0
C670 C 0.0975 0.81866 0.6544 0.0
O671 O 0.10095 0.78573 0.57247 0.0
O672 O 0.09375 0.82113 0.5641 0.0
C673 C 0.0431 0.80496 0.51959 0.0
N674 N 0.03882 0.81099 0.55296 0.0
C675 C 0.99397 0.80559 0.5374 0.0
C676 C 0.998 0.79951 0.50281 0.0
C677 C 0.02266 0.79917 0.49389 0.0
C678 C 1.01514 0.81135 0.56184 0.0
H679 H 0.06193 0.80448 0.51265 0.0
C680 C 0.10681 0.80826 0.55723 0.0
O681 O 0.08302 0.73791 0.62033 0.0
O682 O 0.05073 0.73207 0.58211 0.0
N683 N 0.03303 0.82058 0.6187 0.0
C684 C 0.0321 0.82625 0.65341 0.0
C685 C 1.00859 0.82698 0.66674 0.0
C686 C 0.98643 0.82211 0.64421 0.0
C687 C 0.98812 0.81686 0.60843 0.0
C688 C 1.0122 0.81667 0.59657 0.0
H689 H 0.04903 0.82992 0.67089 0.0
O690 O 0.03747 0.75004 0.64464 0.0
O691 O 0.04649 0.78069 0.60307 0.0
O692 O 0.09427 0.79512 0.64846 0.0
O693 O 0.08638 0.82935 0.63521 0.0
C694 C 0.96668 0.81143 0.5842 0.0
C695 C 0.96958 0.80575 0.54872 0.0
H696 H 0.98222 0.79489 0.48295 0.0
H697 H 0.02587 0.79436 0.46729 0.0
H698 H 1.00747 0.83109 0.69436 0.0
H699 H 0.96819 0.82238 0.65468 0.0
H700 H 0.94776 0.81131 0.59264 0.0
H701 H 0.95284 0.80134 0.53043 0.0
Mn702 Mn 0.31638 0.38293 0.63185 0.0
Mn703 Mn 0.31137 0.43379 0.668 0.0
C704 C 0.35055 0.4265 0.62137 0.0
C705 C 0.33382 0.35327 0.63697 0.0
C706 C 0.28125 0.4066 0.60149 0.0
O707 O 0.28656 0.36325 0.66928 0.0
O708 O 0.28264 0.39838 0.6893 0.0
C709 C 0.33035 0.42843 0.7392 0.0
N710 N 0.3338 0.44357 0.70945 0.0
C711 C 0.37654 0.48043 0.73124 0.0
C712 C 0.37332 0.4653 0.76222 0.0
C713 C 0.35012 0.4392 0.76621 0.0
C714 C 0.35604 0.46873 0.70536 0.0
H715 H 0.31274 0.40823 0.74223 0.0
C716 C 0.27509 0.37316 0.68868 0.0
O717 O 0.31369 0.3483 0.61506 0.0
O718 O 0.34209 0.37411 0.65659 0.0
N719 N 0.33805 0.46889 0.64991 0.0
C720 C 0.33823 0.48067 0.61824 0.0
C721 C 0.36025 0.50675 0.60991 0.0
C722 C 0.38177 0.52043 0.63423 0.0
C723 C 0.38087 0.50805 0.66689 0.0
C724 C 0.35823 0.48217 0.67389 0.0
H725 H 0.32188 0.4701 0.59931 0.0
O726 O 0.34722 0.40763 0.59996 0.0
O727 O 0.33373 0.41911 0.64869 0.0
O728 O 0.28857 0.3884 0.60124 0.0
O729 O 0.28903 0.42486 0.62489 0.0
C730 C 0.4017 0.52027 0.69262 0.0
C731 C 0.39954 0.50646 0.72477 0.0
H732 H 0.38866 0.47345 0.78299 0.0
H733 H 0.34759 0.42733 0.78995 0.0
H734 H 0.36077 0.51617 0.58467 0.0
H735 H 0.39889 0.54042 0.62755 0.0
H736 H 0.41954 0.54021 0.68788 0.0
H737 H 0.41578 0.51598 0.74424 0.0
Mn738 Mn 0.68665 0.7792 0.11116 0.0
Mn739 Mn 0.71242 0.76496 0.03704 0.0
C740 C 0.72021 0.76426 0.116 0.0
C741 C 0.68719 0.80885 0.1576 0.0
C742 C 0.65462 0.726 0.06786 0.0
O743 O 0.67728 0.799 0.07019 0.0
O744 O 0.69604 0.78829 0.02431 0.0
C745 C 0.75865 0.82045 0.02146 0.0
N746 N 0.74965 0.79377 0.0279 0.0
C747 C 0.79622 0.80073 1.01974 0.0
C748 C 0.80596 0.82825 1.01285 0.0
C749 C 0.78711 0.83817 1.01389 0.0
C750 C 0.76769 0.78411 0.02756 0.0
H751 H 0.74421 0.82814 0.02206 0.0
C752 C 0.68331 0.80013 0.03687 0.0
O753 O 0.66477 0.78684 0.14912 0.0
O754 O 0.70896 0.81441 0.138 0.0
N755 N 0.72917 0.74272 0.04375 0.0
C756 C 0.71628 0.71549 0.04992 0.0
C757 C 0.7322 0.70236 0.04968 0.0
C758 C 0.7611 0.71723 0.04244 0.0
C759 C 0.77375 0.74506 0.03508 0.0
C760 C 0.7568 0.75702 0.03557 0.0
H761 H 0.69403 0.70386 0.05508 0.0
O762 O 0.70372 0.7619 0.14214 0.0
O763 O 0.71674 0.77535 0.08745 0.0
O764 O 0.65614 0.74079 0.09411 0.0
O765 O 0.67423 0.73362 0.0447 0.0
C766 C 0.8025 0.76135 0.02708 0.0
C767 C 0.81374 0.78918 1.01951 0.0
H768 H 0.82788 0.84197 1.00689 0.0
H769 H 0.79449 0.8594 1.00871 0.0
H770 H 0.72222 0.68083 0.05505 0.0
H771 H 0.77333 0.70706 0.04244 0.0
H772 H 0.81616 0.7527 0.02676 0.0
H773 H 0.8359 0.80154 1.01361 0.0
Mn774 Mn 0.32368 1.00249 0.12626 0.0
Mn775 Mn 0.36746 1.01165 0.19452 0.0
C776 C 0.37006 1.01398 0.11457 0.0
C777 C 0.28897 0.9771 0.0839 0.0
C778 C 0.3521 0.05386 0.17137 0.0
O779 O 0.29673 0.98379 0.16876 0.0
O780 O 0.32793 0.98866 0.21025 0.0
C781 C 0.35535 0.95507 0.20341 0.0
N782 N 0.37413 0.98179 0.19803 0.0
C783 C 0.41283 0.97328 0.20007 0.0
C784 C 0.39391 0.94569 0.20581 0.0
C785 C 0.36504 0.93653 0.20726 0.0
C786 C 0.40191 0.99074 0.19588 0.0
H787 H 0.33314 0.94796 0.20482 0.0
C788 C 0.30272 0.9791 0.19988 0.0
O789 O 0.29289 0.99981 0.09602 0.0
O790 O 0.30461 0.96815 0.09755 0.0
N791 N 0.40674 0.03313 0.18437 0.0
C792 C 0.42232 0.06049 0.17974 0.0
C793 C 0.45164 0.07291 0.17789 0.0
C794 C 0.46471 0.05719 0.18156 0.0
C795 C 0.44834 0.02921 0.18738 0.0
C796 C 0.4192 0.01796 0.18907 0.0
H797 H 0.41251 0.07282 0.17742 0.0
O798 O 0.35543 0.01824 0.09115 0.0
O799 O 0.35713 1.00267 0.14424 0.0
O800 O 0.33708 0.04056 0.1455 0.0
O801 O 0.36293 0.04428 0.19291 0.0
C802 C 0.45981 1.01206 0.19178 0.0
C803 C 0.44206 0.98411 0.198 0.0
H804 H 0.40132 0.93135 0.20896 0.0
H805 H 0.3503 0.91526 0.21155 0.0
H806 H 0.46414 0.09456 0.1737 0.0
H807 H 0.48733 0.06683 0.17997 0.0
H808 H 0.48225 0.02016 0.19033 0.0
H809 H 0.45111 0.97109 0.20109 0.0
Mn810 Mn 0.0864 0.40143 0.13516 0.0
Mn811 Mn 0.04035 0.36251 0.07293 0.0
C812 C 0.04027 0.37154 0.15103 0.0
C813 C 0.12138 0.41209 0.17619 0.0
C814 C 0.06156 0.42259 0.07991 0.0
O815 O 0.11179 0.40247 0.09498 0.0
O816 O 0.07886 0.37295 0.05829 0.0
C817 C 0.04721 0.31415 0.07724 0.0
N818 N 0.0304 0.32541 0.07859 0.0
C819 C 0.98897 0.28161 0.08253 0.0
C820 C 1.00583 0.26952 0.08108 0.0
C821 C 0.03509 0.28588 0.07869 0.0
C822 C 1.00228 0.30988 0.08155 0.0
H823 H 0.06966 0.32664 0.07481 0.0
C824 C 0.10424 0.38827 0.06719 0.0
O825 O 0.11825 0.43049 0.15988 0.0
O826 O 0.10426 0.38698 0.16839 0.0
N827 N 1.00178 0.35049 0.08331 0.0
C828 C 0.98844 0.36529 0.08376 0.0
C829 C 0.95908 0.35198 0.08595 0.0
C830 C 0.94367 0.3236 0.08696 0.0
C831 C 0.95779 0.30878 0.08585 0.0
C832 C 0.98709 0.32316 0.0837 0.0
H833 H 1.00009 0.38709 0.0824 0.0
O834 O 0.05562 0.39224 0.17048 0.0
O835 O 0.05215 0.36879 0.12284 0.0
O836 O 0.07557 0.42556 0.10758 0.0
O837 O 0.04839 0.40006 0.06424 0.0
C838 C 0.94394 0.28029 0.0867 0.0
C839 C 0.95952 0.26672 0.08519 0.0
H840 H 0.99656 0.24772 0.08197 0.0
H841 H 0.04824 0.27671 0.07763 0.0
H842 H 0.94833 0.36357 0.08666 0.0
H843 H 0.92103 0.3134 0.08862 0.0
H844 H 0.9213 0.26864 0.08865 0.0
H845 H 0.94865 0.24482 0.08609 0.0
Mn846 Mn 0.36307 0.34362 0.96278 0.0
Mn847 Mn 0.2981 0.28854 0.96699 0.0
C848 C 0.32461 0.34511 0.93695 0.0
C849 C 0.40007 0.38652 0.98357 0.0
C850 C 0.34263 0.29318 0.91407 0.0
O851 O 0.36607 0.32052 1.00476 0.0
O852 O 0.32207 0.28537 1.00466 0.0
C853 C 0.28052 0.29803 0.03713 0.0
N854 N 0.27597 0.29378 1.00184 0.0
C855 C 0.2316 0.29232 1.00702 0.0
C856 C 0.23563 0.29627 0.04349 0.0
C857 C 0.26031 0.29937 0.05855 0.0
C858 C 0.2526 0.29141 0.98696 0.0
H859 H 0.2994 0.30036 0.0489 0.0
C860 C 0.34661 0.29786 1.01808 0.0
O861 O 0.40464 0.37121 0.96265 0.0
O862 O 0.37424 0.37622 0.99426 0.0
N863 N 0.27208 0.28854 0.93352 0.0
C864 C 0.27185 0.28593 0.89774 0.0
C865 C 0.24903 0.2836 0.87847 0.0
C866 C 0.22652 0.28362 0.89618 0.0
C867 C 0.2271 0.2861 0.93303 0.0
C868 C 0.2505 0.28857 0.9508 0.0
H869 H 0.28899 0.28576 0.88394 0.0
O870 O 0.35011 0.36132 0.92629 0.0
O871 O 0.32224 0.32822 0.9622 0.0
O872 O 0.36175 0.31636 0.92473 0.0
O873 O 0.31843 0.2808 0.92898 0.0
C874 C 0.20533 0.28614 0.95284 0.0
C875 C 0.20769 0.2895 0.98975 0.0
H876 H 0.22005 0.29724 0.06011 0.0
H877 H 0.2637 0.30266 0.08662 0.0
H878 H 0.24872 0.28164 0.85005 0.0
H879 H 0.20894 0.28176 0.88121 0.0
H880 H 0.18673 0.28374 0.93993 0.0
H881 H 0.19102 0.28995 1.0046 0.0
Mn882 Mn 0.73288 0.10566 0.94755 0.0
Mn883 Mn 0.70532 0.147 0.94701 0.0
C884 C 0.69371 0.09499 0.98289 0.0
C885 C 0.73627 0.06939 0.92441 0.0
C886 C 0.75909 0.16003 0.98471 0.0
O887 O 0.7499 0.12892 0.90256 0.0
O888 O 0.72626 0.15182 0.90209 0.0
C889 C 0.66449 0.1239 0.88922 0.0
N890 N 0.67046 0.13201 0.92327 0.0
C891 C 0.62667 0.1312 0.93101 0.0
C892 C 0.62009 0.12319 0.89584 0.0
C893 C 0.63886 0.119 0.87506 0.0
C894 C 0.65186 0.13449 0.94408 0.0
H895 H 0.67933 0.12151 0.87302 0.0
C896 C 0.74325 0.14531 0.88791 0.0
O897 O 0.7566 0.08838 0.94181 0.0
O898 O 0.71426 0.07183 0.91963 0.0
N899 N 0.68441 0.14496 0.98857 0.0
C900 C 0.69342 0.15143 0.02238 0.0
C901 C 0.67606 0.15404 0.04754 0.0
C902 C 0.65027 0.15127 0.03725 0.0
C903 C 0.64175 0.14513 1.00211 0.0
C904 C 0.65922 0.14127 0.97876 0.0
H905 H 0.71377 0.15476 0.02999 0.0
O906 O 0.7098 0.08493 0.99001 0.0
O907 O 0.70081 0.11088 0.95514 0.0
O908 O 0.75865 0.13784 0.97864 0.0
O909 O 0.74073 0.16533 0.97271 0.0
C910 C 0.61712 0.14363 0.98896 0.0
C911 C 0.60966 0.13678 0.95338 0.0
H912 H 0.60069 0.12013 0.88457 0.0
H913 H 0.6339 0.11268 0.84796 0.0
H914 H 0.68289 0.15895 0.07454 0.0
H915 H 0.6373 0.15413 0.05644 0.0
H916 H 0.60364 0.14746 1.00606 0.0
H917 H 0.59079 0.13589 0.9435 0.0
Mn918 Mn 1.00301 0.70854 0.92395 0.0
Mn919 Mn 1.00937 0.7703 0.92095 0.0
C920 C 0.04527 0.74565 0.90679 0.0
C921 C 1.00678 0.67338 0.94977 0.0
C922 C 0.97532 0.72644 0.86874 0.0
O923 O 0.9701 0.70407 0.9554 0.0
O924 O 0.9794 0.74744 0.95594 0.0
C925 C 0.03064 0.79025 0.99234 0.0
N926 N 0.03401 0.79292 0.95656 0.0
C927 C 0.07825 0.83391 0.96146 0.0
C928 C 0.07523 0.83165 0.99838 0.0
C929 C 0.05133 0.80972 1.01387 0.0
C930 C 0.05684 0.81402 0.94136 0.0
H931 H 1.01232 0.77337 1.00429 0.0
C932 C 0.96478 0.72251 0.96578 0.0
O933 O 0.98987 0.66956 0.92403 0.0
O934 O 0.01972 0.69742 0.9631 0.0
N935 N 0.0379 0.79368 0.8879 0.0
C936 C 0.03861 0.79169 0.85209 0.0
C937 C 0.06175 0.81137 0.8326 0.0
C938 C 0.08383 0.83284 0.85013 0.0
C939 C 0.08256 0.83447 0.88698 0.0
C940 C 0.05893 0.81437 0.90499 0.0
H941 H 0.02179 0.77511 0.83851 0.0
O942 O 0.03888 0.72167 0.8964 0.0
O943 O 0.02628 0.74711 0.92576 0.0
O944 O 0.98271 0.70987 0.87996 0.0
O945 O 0.98355 0.74939 0.88264 0.0
C946 C 0.10413 0.85491 0.90661 0.0
C947 C 0.10198 0.85471 0.94382 0.0
H948 H 0.09125 0.84649 1.0151 0.0
H949 H 0.04891 0.80779 0.04235 0.0
H950 H 0.06266 0.80988 0.80418 0.0
H951 H 0.10178 0.84778 0.83507 0.0
H952 H 0.12263 0.87055 0.89326 0.0
H953 H 0.11894 0.87033 0.95865 0.0
Mn954 Mn 0.36657 0.1177 0.47741 0.0
Mn955 Mn 0.39686 0.10634 0.40592 0.0
C956 C 0.39782 0.10018 0.48531 0.0
C957 C 0.36432 0.14477 0.52438 0.0
C958 C 0.33616 0.06875 0.42839 0.0
O959 O 0.36004 0.13919 0.43633 0.0
O960 O 0.38352 0.13226 0.39226 0.0
C961 C 0.44636 0.16103 0.39847 0.0
N962 N 0.43531 0.13381 0.40231 0.0
C963 C 0.48113 0.13816 0.40153 0.0
C964 C 0.493 0.16623 0.39715 0.0
C965 C 0.47553 0.17772 0.39573 0.0
C966 C 0.45192 0.12256 0.40399 0.0
H967 H 0.43299 0.16989 0.39767 0.0
C968 C 0.36915 0.14273 0.40406 0.0
O969 O 0.34231 0.12388 0.51253 0.0
O970 O 0.38752 0.151 0.50757 0.0
N971 N 0.41072 0.08184 0.41387 0.0
C972 C 0.39601 0.05455 0.41959 0.0
C973 C 0.4104 0.04001 0.42253 0.0
C974 C 0.43972 0.05358 0.4191 0.0
C975 C 0.45436 0.08158 0.41254 0.0
C976 C 0.43887 0.09498 0.40967 0.0
H977 H 0.37348 0.044 0.42223 0.0
O978 O 0.37977 0.09755 0.50947 0.0
O979 O 0.39756 0.11358 0.45705 0.0
O980 O 0.33677 0.08185 0.45586 0.0
O981 O 0.35738 0.07648 0.40776 0.0
C982 C 0.48377 0.09681 0.40953 0.0
C983 C 0.49715 0.12508 0.40413 0.0
H984 H 0.5155 0.17918 0.39517 0.0
H985 H 0.48453 0.19939 0.39262 0.0
H986 H 0.39894 0.01841 0.42758 0.0
H987 H 0.45077 0.04233 0.42175 0.0
H988 H 0.49632 0.08702 0.41183 0.0
H989 H 0.51979 0.13662 0.40233 0.0
Mn990 Mn 0.9826 0.36693 0.42734 0.0
Mn991 Mn 0.02185 0.37166 0.49822 0.0
C992 C 0.02941 0.37789 0.41909 0.0
C993 C 0.95039 0.34353 0.38323 0.0
C994 C 1.00463 0.41353 0.47941 0.0
O995 O 0.95325 0.3464 0.46627 0.0
O996 O 0.98151 0.34779 0.51014 0.0
C997 C 1.01063 0.31526 0.50421 0.0
N998 N 0.02916 0.34218 0.50035 0.0
C999 C 0.06833 0.33438 0.50267 0.0
C1000 C 0.04966 0.30657 0.50684 0.0
C1001 C 0.02068 0.29697 0.50744 0.0
C1002 C 0.05707 0.35161 0.49943 0.0
H1003 H 0.98834 0.30784 0.50495 0.0
C1004 C 0.95718 0.34015 0.49749 0.0
O1005 O 0.95387 0.36609 0.39537 0.0
O1006 O 0.96561 0.33411 0.39687 0.0
N1007 N 0.06134 0.394 0.49046 0.0
C1008 C 0.0765 0.4213 0.48525 0.0
C1009 C 0.10585 0.43411 0.48335 0.0
C1010 C 0.11932 0.41873 0.48693 0.0
C1011 C 0.1033 0.39068 0.49244 0.0
C1012 C 0.07413 0.37907 0.49433 0.0
H1013 H 0.06626 0.43316 0.48202 0.0
O1014 O 1.01667 0.38442 0.39542 0.0
O1015 O 1.01453 0.36541 0.44718 0.0
O1016 O 0.99294 0.40283 0.45057 0.0
O1017 O 1.01601 0.40346 0.49925 0.0
C1018 C 0.11512 0.37375 0.49584 0.0
C1019 C 0.09764 0.34562 0.50096 0.0
H1020 H 0.05734 0.29239 0.5093 0.0
H1021 H 1.00615 0.27553 0.51051 0.0
H1022 H 0.11804 0.45575 0.47889 0.0
H1023 H 0.14195 0.42864 0.48512 0.0
H1024 H 0.1376 0.38213 0.49428 0.0
H1025 H 0.10695 0.33277 0.50323 0.0
Mn1026 Mn 0.74466 0.7049 0.42999 0.0
Mn1027 Mn 0.68507 0.68139 0.38376 0.0
C1028 C 0.70158 0.68056 0.45764 0.0
C1029 C 0.77951 0.69988 0.45805 0.0
C1030 C 0.72166 0.74064 0.40093 0.0
O1031 O 0.75787 0.70396 0.37992 0.0
O1032 O 0.71657 0.6879 0.35155 0.0
C1033 C 0.67809 0.62862 0.36194 0.0
N1034 N 0.66806 0.64306 0.37901 0.0
C1035 C 0.62523 0.60247 0.39477 0.0
C1036 C 0.63509 0.58721 0.37724 0.0
C1037 C 0.66165 0.60034 0.36083 0.0
C1038 C 0.6425 0.63061 0.39489 0.0
H1039 H 0.69849 0.63857 0.34928 0.0
C1040 C 0.74284 0.69573 0.35221 0.0
O1041 O 0.78306 0.72355 0.44949 0.0
O1042 O 0.75674 0.67913 0.4473 0.0
N1043 N 0.65323 0.67357 0.41295 0.0
C1044 C 0.64791 0.69092 0.43149 0.0
C1045 C 0.62269 0.68084 0.45076 0.0
C1046 C 0.60322 0.65305 0.45079 0.0
C1047 C 0.60921 0.63555 0.43167 0.0
C1048 C 0.63467 0.64676 0.4129 0.0
H1049 H 0.66294 0.71224 0.43191 0.0
O1050 O 0.72289 0.69798 0.47539 0.0
O1051 O 0.70586 0.67946 0.42421 0.0
O1052 O 0.74018 0.73779 0.41749 0.0
O1053 O 0.70015 0.72085 0.38752 0.0
C1054 C 0.59117 0.60736 0.4311 0.0
C1055 C 0.59921 0.59082 0.41275 0.0
H1056 H 0.62254 0.56538 0.37649 0.0
H1057 H 0.66945 0.58868 0.34738 0.0
H1058 H 0.61835 0.69444 0.46576 0.0
H1059 H 0.5839 0.64532 0.46595 0.0
H1060 H 0.57126 0.59813 0.44514 0.0
H1061 H 0.5854 0.56912 0.4131 0.0
C1062 C 0.03 0.46053 0.03446 0.0
C1063 C 0.04301 0.48573 0.05103 0.0
C1064 C 0.03748 0.44093 0.04225 0.0
C1065 C 0.05805 0.44558 0.06739 0.0
H1066 H 1.01304 0.45546 1.01622 0.0
H1067 H 0.02592 0.4215 0.02973 0.0
S1068 S 0.10112 0.51003 0.1144 0.0
N1069 N 0.07941 0.51568 0.09054 0.0
N1070 N 0.09373 0.47883 0.10575 0.0
C1071 C 0.07271 0.47159 0.08225 0.0
C1072 C 0.06514 0.49169 0.07391 0.0
C1073 C 0.59722 0.65349 0.09268 0.0
C1074 C 0.58765 0.64086 0.05975 0.0
C1075 C 0.61758 0.68121 0.09518 0.0
C1076 C 0.63003 0.69765 0.06484 0.0
H1077 H 0.58905 0.64176 0.11696 0.0
H1078 H 0.62446 0.68951 0.12117 0.0
S1079 S 0.61226 0.67509 0.97205 0.0
N1080 N 0.59177 0.64777 0.99605 0.0
N1081 N 0.63052 0.69907 1.00054 0.0
C1082 C 0.62038 0.68539 0.03173 0.0
C1083 C 0.59913 0.65735 0.02923 0.0
C1084 C 0.44672 0.05886 0.09246 0.0
C1085 C 0.45809 0.04143 0.09523 0.0
C1086 C 0.41816 0.0495 0.0978 0.0
C1087 C 0.39973 0.02245 0.10703 0.0
H1088 H 0.46003 0.08023 0.08668 0.0
H1089 H 0.41065 0.06386 0.09617 0.0
S1090 S 0.41688 0.96713 0.10946 0.0
N1091 N 0.44738 0.99471 0.10191 0.0
N1092 N 0.39344 0.9772 0.11254 0.0
C1093 C 0.41008 1.00424 0.10719 0.0
C1094 C 0.43934 1.01373 0.10122 0.0
C1095 C 0.46602 0.09691 0.4996 0.0
C1096 C 0.45627 0.07056 0.51376 0.0
C1097 C 0.4473 0.10631 0.48962 0.0
C1098 C 0.41788 0.08959 0.49232 0.0
H1099 H 0.48833 0.11085 0.49773 0.0
H1100 H 0.45597 0.12706 0.48047 0.0
S1101 S 0.38135 0.01882 0.52679 0.0
N1102 N 0.41487 0.02804 0.52955 0.0
N1103 N 0.38027 0.04527 0.51024 0.0
C1104 C 0.40802 0.06323 0.50609 0.0
C1105 C 0.42694 0.05381 0.51661 0.0
C1106 C 0.98779 0.47131 0.48267 0.0
C1107 C 1.00886 0.49014 0.50436 0.0
C1108 C 0.98608 0.44626 0.47546 0.0
C1109 C 1.0052 0.43903 0.48998 0.0
H1110 H 0.97364 0.47658 0.46954 0.0
H1111 H 0.97006 0.43276 0.45761 0.0
S1112 S 0.06368 0.48125 0.54953 0.0
N1113 N 0.04916 0.49989 0.54019 0.0
N1114 N 0.0448 0.45257 0.52889 0.0
C1115 C 0.02538 0.45724 0.5132 0.0
C1116 C 0.02754 0.48285 0.51968 0.0
C1117 C 0.65011 0.60771 0.47978 0.0
C1118 C 0.63252 0.60967 0.5051 0.0
C1119 C 0.67299 0.63096 0.4655 0.0
C1120 C 0.67885 0.65688 0.47583 0.0
H1121 H 0.64522 0.58824 0.46942 0.0
H1122 H 0.68562 0.62865 0.44522 0.0
S1123 S 0.643 0.67267 0.54679 0.0
N1124 N 0.62536 0.63936 0.5444 0.0
N1125 N 0.66827 0.68317 0.51663 0.0
C1126 C 0.6631 0.6591 0.50335 0.0
C1127 C 0.63981 0.63542 0.51809 0.0
C1128 C 0.02841 0.63047 1.00482 0.0
C1129 C 0.02155 0.60854 0.98257 0.0
C1130 C 0.02438 0.65199 0.99381 0.0
C1131 C 1.01289 0.65179 0.96057 0.0
H1132 H 0.0352 0.63014 0.03156 0.0
H1133 H 0.02904 0.66817 1.01201 0.0
S1134 S 0.99471 0.60005 0.8915 0.0
N1135 N 1.00517 0.58881 0.92526 0.0
N1136 N 0.99763 0.62894 0.90425 0.0
C1137 C 1.00753 0.63057 0.93751 0.0
C1138 C 1.01184 0.60899 0.94864 0.0
C1139 C 0.47272 0.45072 0.98845 0.0
C1140 C 0.46774 0.47024 1.00469 0.0
C1141 C 0.45102 0.42402 0.98235 0.0
C1142 C 0.42295 0.41494 0.99247 0.0
H1143 H 0.49371 0.45616 0.97984 0.0
H1144 H 0.45641 0.41035 0.96932 0.0
S1145 S 0.3981 0.45727 0.037 0.0
N1146 N 0.43206 0.47796 0.03135 0.0
N1147 N 0.3916 0.42807 0.02035 0.0
C1148 C 0.41761 0.43407 1.00922 0.0
C1149 C 0.43977 0.46147 1.01514 0.0
C1150 C 0.64219 0.07796 0.05905 0.0
C1151 C 0.61624 0.06794 0.04215 0.0
C1152 C 0.66703 0.08594 0.03974 0.0
C1153 C 0.66703 0.08532 1.00266 0.0
H1154 H 0.64351 0.08111 0.08732 0.0
H1155 H 0.6866 0.09406 0.05379 0.0
S1156 S 0.60447 0.05768 0.94586 0.0
N1157 N 0.59181 0.05503 0.98635 0.0
N1158 N 0.63869 0.07098 0.94992 0.0
C1159 C 0.64114 0.07392 0.98551 0.0
C1160 C 0.61569 0.065 1.00529 0.0
C1161 C 0.57959 0.02017 0.57821 0.0
C1162 C 0.57311 0.02107 0.54223 0.0
C1163 C 0.60121 0.01484 0.58868 0.0
C1164 C 0.61761 1.01028 0.56377 0.0
H1165 H 0.56805 0.02389 0.59857 0.0
H1166 H 0.60545 0.01477 0.61659 0.0
S1167 S 0.61026 1.01076 0.46644 0.0
N1168 N 0.58567 0.01672 0.48173 0.0
N1169 N 0.6263 1.00778 0.50153 0.0
C1170 C 0.61172 1.0115 0.52789 0.0
C1171 C 0.58945 0.01638 0.51716 0.0
C1172 C 0.0296 0.64889 0.56468 0.0
C1173 C 0.0455 0.63843 0.58035 0.0
C1174 C 0.03575 0.6758 0.57056 0.0
C1175 C 0.05801 0.69338 0.59244 0.0
H1176 H 1.0132 0.63669 0.54641 0.0
H1177 H 0.02322 0.68301 0.55732 0.0
S1178 S 0.10451 0.67491 0.64185 0.0
N1179 N 0.08345 0.64732 0.62021 0.0
N1180 N 0.09477 0.69725 0.6314 0.0
C1181 C 0.07328 0.68267 0.60925 0.0
C1182 C 0.0671 0.65545 0.60316 0.0
C1183 C 0.41562 0.48257 0.58153 0.0
C1184 C 0.43576 0.48456 0.60585 0.0
C1185 C 0.38712 0.46565 0.58852 0.0
C1186 C 0.37791 0.45091 0.62044 0.0
H1187 H 0.422 0.4925 0.55584 0.0
H1188 H 0.3723 0.46264 0.56789 0.0
S1189 S 0.42214 0.45194 0.69452 0.0
N1190 N 0.44464 0.47272 0.66435 0.0
N1191 N 0.39075 0.44078 0.67765 0.0
C1192 C 0.39768 0.45441 0.64613 0.0
C1193 C 0.42677 0.47132 0.63878 0.0
C1194 C 0.70279 0.7964 0.39172 0.0
C1195 C 0.72891 0.82043 0.39124 0.0
C1196 C 0.70075 0.77088 0.39456 0.0
C1197 C 0.7247 0.76811 0.3977 0.0
H1198 H 0.68357 0.79719 0.39024 0.0
H1199 H 0.68009 0.75318 0.39471 0.0
S1200 S 0.79831 0.82423 0.39559 0.0
N1201 N 0.7795 0.83946 0.39207 0.0
N1202 N 0.77554 0.79158 0.39885 0.0
C1203 C 0.75101 0.79187 0.39725 0.0
C1204 C 0.75314 0.81794 0.39373 0.0
C1205 C 0.26017 1.01066 0.43469 0.0
C1206 C 0.25785 0.99436 0.40583 0.0
C1207 C 0.2854 0.03447 0.44175 0.0
C1208 C 0.30949 0.04327 0.42007 0.0
H1209 H 0.24243 1.00469 0.45238 0.0
H1210 H 0.28595 0.04601 0.46455 0.0
S1211 S 0.31365 1.00861 0.33935 0.0
N1212 N 0.28131 0.98937 0.35429 0.0
N1213 N 0.32858 0.03372 0.3673 0.0
C1214 C 0.30719 0.02726 0.39064 0.0
C1215 C 0.2815 1.00298 0.38362 0.0
C1216 C 0.10723 0.41484 0.39722 0.0
C1217 C 0.11503 0.3946 0.39922 0.0
C1218 C 0.07956 0.40904 0.40301 0.0
C1219 C 0.05832 0.38285 0.41208 0.0
H1220 H 0.12278 0.43571 0.39162 0.0
H1221 H 0.07496 0.42547 0.40163 0.0
S1222 S 0.06558 0.32139 0.41342 0.0
N1223 N 0.09781 0.34636 0.40576 0.0
N1224 N 0.04569 0.33554 0.41702 0.0
C1225 C 0.06512 0.36198 0.41185 0.0
C1226 C 0.09346 0.36783 0.40544 0.0
C1227 C 0.08909 0.35373 0.82631 0.0
C1228 C 0.11822 0.37211 0.8284 0.0
C1229 C 0.06991 0.36163 0.81443 0.0
C1230 C 0.07869 0.38819 0.80283 0.0
H1231 H 0.08065 0.33275 0.83423 0.0
H1232 H 0.04789 0.34658 0.81391 0.0
S1233 S 0.15168 0.4454 0.8062 0.0
N1234 N 0.15431 0.41907 0.81998 0.0
N1235 N 0.11827 0.43377 0.79734 0.0
C1236 C 0.10754 0.40712 0.80539 0.0
C1237 C 0.12723 0.39912 0.81799 0.0
C1238 C 0.70573 0.79693 0.83811 0.0
C1239 C 0.71133 0.81467 0.8091 0.0
C1240 C 0.6982 0.76975 0.83319 0.0
C1241 C 0.69513 0.7592 0.79903 0.0
H1242 H 0.7076 0.80433 0.86473 0.0
H1243 H 0.69457 0.75686 0.85623 0.0
S1244 S 0.70717 0.79746 0.71448 0.0
N1245 N 0.71343 0.82 0.74528 0.0
N1246 N 0.69856 0.76881 0.73578 0.0
C1247 C 0.70039 0.77675 0.76984 0.0
C1248 C 0.7087 0.80452 0.77492 0.0
C1249 C 0.28175 0.9747 0.84389 0.0
C1250 C 0.27296 0.94684 0.84304 0.0
C1251 C 0.30981 0.99441 0.83871 0.0
C1252 C 0.33019 0.98721 0.83127 0.0
H1253 H 0.26691 0.98158 0.84897 0.0
H1254 H 0.31555 0.01555 0.84002 0.0
S1255 S 0.31948 0.91764 0.83015 0.0
N1256 N 0.28779 0.91326 0.83715 0.0
N1257 N 0.34072 0.95066 0.82675 0.0
C1258 C 0.32217 0.95962 0.83129 0.0
C1259 C 0.29349 0.93935 0.83716 0.0
C1260 C 0.68999 0.98715 0.31889 0.0
C1261 C 0.71469 0.99069 0.33462 0.0
C1262 C 0.68341 1.00805 0.31785 0.0
C1263 C 0.70119 0.03339 0.33268 0.0
H1264 H 0.67591 0.96823 0.30648 0.0
H1265 H 0.66456 1.00446 0.30442 0.0
S1266 S 0.76691 0.05201 0.38066 0.0
N1267 N 0.75585 0.02073 0.36797 0.0
N1268 N 0.74372 0.06007 0.36596 0.0
C1269 C 0.72547 0.03685 0.34971 0.0
C1270 C 0.7322 0.01555 0.35063 0.0
C1271 C 0.07361 0.79378 0.32474 0.0
C1272 C 0.10215 0.80708 0.31531 0.0
C1273 C 0.0554 0.76713 0.3146 0.0
C1274 C 0.06474 0.75247 0.29417 0.0
H1275 H 0.06528 0.804 0.34047 0.0
H1276 H 0.03363 0.75808 0.32269 0.0
S1277 S 0.13761 0.77827 0.26184 0.0
N1278 N 0.13903 0.80372 0.28402 0.0
N1279 N 0.10474 0.7536 0.26474 0.0
C1280 C 0.09331 0.7655 0.28452 0.0
C1281 C 0.11199 0.79274 0.29517 0.0
C1282 C 0.29441 0.41399 0.39335 0.0
C1283 C 0.27266 0.40747 0.36908 0.0
C1284 C 0.32115 0.419 0.38243 0.0
C1285 C 0.32774 0.41906 0.34649 0.0
H1286 H 0.2912 0.41672 0.42092 0.0
H1287 H 0.33728 0.42457 0.40205 0.0
S1288 S 0.27773 0.40014 0.27257 0.0
N1289 N 0.25903 0.39879 0.30771 0.0
N1290 N 0.3094 0.40897 0.28698 0.0
C1291 C 0.30584 0.4111 0.32211 0.0
C1292 C 0.27834 0.40524 0.33341 0.0
C1293 C 0.27238 0.35547 0.88037 0.0
C1294 C 0.25571 0.35907 0.90585 0.0
C1295 C 0.29504 0.35162 0.89036 0.0
C1296 C 0.3013 0.35026 0.92627 0.0
H1297 H 0.26693 0.3541 0.85271 0.0
H1298 H 0.30685 0.34835 0.86991 0.0
S1299 S 0.26693 0.36271 1.0027 0.0
N1300 N 0.24918 0.36382 0.96826 0.0
N1301 N 0.29135 0.35675 0.98676 0.0
C1302 C 0.28586 0.35545 0.95166 0.0
C1303 C 0.26312 0.35961 0.94154 0.0
C1304 C 0.71247 0.99661 0.90076 0.0
C1305 C 0.73773 0.99654 0.89423 0.0
C1306 C 0.71224 0.02037 0.90953 0.0
C1307 C 0.73725 0.04507 0.91271 0.0
H1308 H 0.69261 0.97804 0.89986 0.0
H1309 H 0.69226 0.01916 0.91482 0.0
S1310 S 0.80895 0.05685 0.89541 0.0
N1311 N 0.78843 0.02421 0.8889 0.0
N1312 N 0.78793 0.06852 0.90687 0.0
C1313 C 0.76265 0.04554 0.9058 0.0
C1314 C 0.76291 0.0214 0.89625 0.0
C1315 C 0.11501 0.80053 0.94005 0.0
C1316 C 0.13194 0.81008 0.90926 0.0
C1317 C 0.08717 0.77953 0.93889 0.0
C1318 C 0.07496 0.76727 0.9069 0.0
H1319 H 0.12291 0.81005 0.9652 0.0
H1320 H 0.0749 0.77323 0.9632 0.0
S1321 S 0.11083 0.78116 0.81982 0.0
N1322 N 0.1349 0.80317 0.84627 0.0
N1323 N 0.08254 0.76337 0.84464 0.0
C1324 C 0.09202 0.77496 0.87645 0.0
C1325 C 0.12047 0.79651 0.87745 0.0
C1326 C 0.41227 0.14744 0.78206 0.0
C1327 C 0.40155 0.15357 0.75205 0.0
C1328 C 0.40747 0.12123 0.78847 0.0
C1329 C 0.39196 0.10002 0.76491 0.0
H1330 H 0.42376 0.16288 0.80128 0.0
H1331 H 0.41613 0.11769 0.81227 0.0
S1332 S 0.36124 0.10641 0.68069 0.0
N1333 N 0.37611 0.13703 0.69732 0.0
N1334 N 0.36703 0.08758 0.70927 0.0
C1335 C 0.38179 0.10613 0.73413 0.0
C1336 C 0.38656 0.13291 0.72776 0.0
C1337 C 0.94617 0.2924 0.69054 0.0
C1338 C 0.92073 0.28426 0.70894 0.0
C1339 C 0.97082 0.31732 0.69773 0.0
C1340 C 0.97128 0.33537 0.72363 0.0
H1341 H 0.94671 0.28017 0.66921 0.0
H1342 H 0.98954 0.3227 0.68225 0.0
S1343 S 0.91034 0.32244 0.78081 0.0
N1344 N 0.89807 0.29577 0.75533 0.0
N1345 N 0.94347 0.34169 0.76888 0.0
C1346 C 0.94606 0.32675 0.74293 0.0
C1347 C 0.92118 0.3016 0.73556 0.0
C1348 C 0.7805 0.7336 0.69594 0.0
C1349 C 0.78968 0.71452 0.69652 0.0
C1350 C 0.75358 0.7268 0.70851 0.0
C1351 C 0.73499 0.70074 0.72217 0.0
H1352 H 0.79422 0.7539 0.68579 0.0
H1353 H 0.74732 0.74211 0.70784 0.0
S1354 S 0.74666 0.64198 0.72165 0.0
N1355 N 0.77667 0.66756 0.70726 0.0
N1356 N 0.72601 0.65473 0.72988 0.0
C1357 C 0.74337 0.68113 0.72095 0.0
C1358 C 0.77079 0.68808 0.70855 0.0
C1359 C 0.75202 0.71876 0.13416 0.0
C1360 C 0.78122 0.73569 0.12887 0.0
C1361 C 0.73287 0.72834 0.13065 0.0
C1362 C 0.74163 0.7552 0.1203 0.0
H1363 H 0.74364 0.69753 0.14074 0.0
H1364 H 0.71077 0.71422 0.13479 0.0
S1365 S 0.81578 0.80938 0.10918 0.0
N1366 N 0.81803 0.78189 0.11726 0.0
N1367 N 0.78203 0.79973 0.10985 0.0
C1368 C 0.77083 0.77289 0.11698 0.0
C1369 C 0.79054 0.7632 0.12134 0.0
C1370 C 0.36582 0.12154 0.20859 0.0
C1371 C 0.37805 0.13953 0.17953 0.0
C1372 C 0.35749 0.09383 0.20607 0.0
C1373 C 0.36011 0.08294 0.17399 0.0
H1374 H 0.36321 0.12911 0.23361 0.0
H1375 H 0.34871 0.08081 0.22923 0.0
S1376 S 0.39063 0.12148 0.09023 0.0
N1377 N 0.39263 0.1445 0.11804 0.0
N1378 N 0.37601 0.09252 0.11272 0.0
C1379 C 0.37198 0.10073 0.14472 0.0
C1380 C 0.38119 0.12897 0.14761 0.0
C1381 C 0.96382 0.34168 0.17293 0.0
C1382 C 0.95399 0.31358 0.17347 0.0
C1383 C 0.99214 0.36043 0.16756 0.0
C1384 C 1.01155 0.35174 0.16194 0.0
H1385 H 0.9494 0.3494 0.17511 0.0
H1386 H 0.99857 0.38173 0.16555 0.0
S1387 S 0.99855 0.28159 0.17189 0.0
N1388 N 0.96717 0.27861 0.17583 0.0
N1389 N 0.02069 0.31416 0.1652 0.0
C1390 C 1.00278 0.32411 0.16635 0.0
C1391 C 0.97386 0.3049 0.17226 0.0
C1392 C 0.38791 0.33416 0.6635 0.0
C1393 C 0.37616 0.30729 0.6529 0.0
C1394 C 0.37428 0.34892 0.65699 0.0
C1395 C 0.34842 0.33743 0.63947 0.0
H1396 H 0.40687 0.34333 0.67882 0.0
H1397 H 0.38384 0.36933 0.66682 0.0
S1398 S 0.31125 0.26905 0.60141 0.0
N1399 N 0.33904 0.27067 0.62031 0.0
N1400 N 0.31321 0.29855 0.60818 0.0
C1401 C 0.33743 0.31122 0.62645 0.0
C1402 C 0.35135 0.2961 0.63319 0.0
C1403 C 0.78951 0.11599 0.62621 0.0
C1404 C 0.7841 0.13097 0.65141 0.0
C1405 C 0.76885 0.08914 0.61751 0.0
C1406 C 0.74179 0.07591 0.63355 0.0
H1407 H 0.80927 0.12551 0.61182 0.0
H1408 H 0.77389 0.079 0.59711 0.0
S1409 S 0.71813 0.10527 0.70402 0.0
N1410 N 0.75023 0.12949 0.69415 0.0
N1411 N 0.71213 0.07987 0.67816 0.0
C1412 C 0.73679 0.09035 0.65994 0.0
C1413 C 0.75766 0.11751 0.66868 0.0
C1414 C 0.95473 0.74486 0.60803 0.0
C1415 C 0.94288 0.74381 0.64146 0.0
C1416 C 0.98329 0.75325 0.604 0.0
C1417 C 1.00103 0.76071 0.6333 0.0
H1418 H 0.94153 0.73789 0.58502 0.0
H1419 H 0.9913 0.75278 0.57794 0.0
S1420 S 0.98016 0.76059 0.72669 0.0
N1421 N 0.95102 0.75078 0.70443 0.0
N1422 N 1.00465 0.76601 0.69696 0.0
C1423 C 0.98952 0.75993 0.66686 0.0
C1424 C 0.9605 0.75186 0.67088 0.0
C1425 C 0.91057 0.70108 0.22824 0.0
C1426 C 0.90614 0.69923 0.19142 0.0
C1427 C 0.93069 0.69555 0.24381 0.0
C1428 C 0.94672 0.68747 0.22323 0.0
H1429 H 0.8976 0.70566 0.24524 0.0
H1430 H 0.93354 0.69738 0.27214 0.0
S1431 S 0.94416 0.68101 0.12571 0.0
N1432 N 0.92037 0.68975 0.13502 0.0
N1433 N 0.95789 0.67978 0.16392 0.0
C1434 C 0.94318 0.68668 0.18641 0.0
C1435 C 0.92285 0.69219 0.1707 0.0
C1436 C 0.3845 0.32907 0.25314 0.0
C1437 C 0.41062 0.3299 0.25116 0.0
C1438 C 0.38238 0.35182 0.26294 0.0
C1439 C 0.40621 0.37629 0.27168 0.0
H1440 H 0.36534 0.3105 0.24809 0.0
H1441 H 0.3618 0.34989 0.26489 0.0
S1442 S 0.47977 0.3906 0.26651 0.0
N1443 N 0.46108 0.35861 0.25532 0.0
N1444 N 0.45695 0.40073 0.27494 0.0
C1445 C 0.43247 0.37773 0.26877 0.0
C1446 C 0.43471 0.35475 0.25828 0.0
C1447 C 0.77624 0.166 0.19749 0.0
C1448 C 0.80202 0.18233 0.21387 0.0
C1449 C 0.75293 0.14684 0.21696 0.0
C1450 C 0.75437 0.14418 0.25367 0.0
H1451 H 0.77374 0.16892 0.16966 0.0
H1452 H 0.73325 0.1351 0.20355 0.0
S1453 S 0.81793 0.17884 0.30818 0.0
N1454 N 0.8285 0.19221 0.26814 0.0
N1455 N 0.78433 0.15631 0.30495 0.0
C1456 C 0.78043 0.1589 0.27001 0.0
C1457 C 0.80438 0.17805 0.25002 0.0
C1458 C 0.02793 0.49132 0.893 0.0
C1459 C 1.00169 0.47917 0.91082 0.0
C1460 C 0.03365 0.47821 0.86519 0.0
C1461 C 1.01338 0.45233 0.85383 0.0
H1462 H 0.04407 0.51134 0.90024 0.0
H1463 H 0.05401 0.48857 0.85225 0.0
S1464 S 0.94251 0.41028 0.89432 0.0
N1465 N 0.95625 0.43855 0.91674 0.0
N1466 N 0.96652 0.41442 0.86472 0.0
C1467 C 0.98733 0.43978 0.87206 0.0
C1468 C 0.98162 0.453 0.90036 0.0
C1469 C 0.57161 0.60824 0.86819 0.0
C1470 C 0.57884 0.60181 0.9013 0.0
C1471 C 0.59207 0.62627 0.84376 0.0
C1472 C 0.62089 0.6389 0.85116 0.0
H1473 H 0.54984 0.59938 0.861 0.0
H1474 H 0.58515 0.63014 0.81872 0.0
S1475 S 0.65124 0.62898 0.93414 0.0
N1476 N 0.61715 0.60945 0.93979 0.0
N1477 N 0.65539 0.64358 0.89492 0.0
C1478 C 0.62839 0.63288 0.88448 0.0
C1479 C 0.60752 0.61439 0.9092 0.0
C1480 C 0.49797 0.0534 0.91883 0.0
C1481 C 0.49668 0.06688 0.94916 0.0
C1482 C 0.47759 0.04553 0.89253 0.0
C1483 C 0.45575 0.05145 0.89562 0.0
H1484 H 0.51489 0.04903 0.9154 0.0
H1485 H 0.4796 0.03588 0.86908 0.0
S1486 S 0.44242 0.0852 0.97045 0.0
N1487 N 0.47119 0.08467 0.9813 0.0
N1488 N 0.43324 0.07043 0.93174 0.0
C1489 C 0.4539 0.06429 0.92616 0.0
C1490 C 0.47429 0.07186 0.95302 0.0
C1491 C 0.49437 0.09123 0.69313 0.0
C1492 C 0.50032 0.07313 0.67497 0.0
C1493 C 0.47387 0.08212 0.7201 0.0
C1494 C 0.4584 0.05457 0.72959 0.0
H1495 H 0.50452 0.11236 0.68527 0.0
H1496 H 0.46894 0.09646 0.73209 0.0
S1497 S 0.46899 0.99966 0.69514 0.0
N1498 N 0.49174 0.0269 0.67261 0.0
N1499 N 0.45232 1.00977 0.72194 0.0
C1500 C 0.46518 0.03654 0.7133 0.0
C1501 C 0.48638 0.04582 0.68635 0.0
C1502 C 0.06483 0.51088 0.66503 0.0
C1503 C 0.04763 0.50691 0.63555 0.0
C1504 C 0.05987 0.4895 0.68888 0.0
C1505 C 0.03775 0.46287 0.68423 0.0
H1506 H 0.08243 0.53077 0.66967 0.0
H1507 H 0.07404 0.49373 0.7107 0.0
S1508 S 0.98703 0.4408 0.61095 0.0
N1509 N 1.00723 0.47361 0.6035 0.0
N1510 N 0.9989 0.43365 0.6472 0.0
C1511 C 0.02042 0.45849 0.65494 0.0
C1512 C 0.02503 0.48038 0.63104 0.0
C1513 C 0.5748 0.59015 0.65877 0.0
C1514 C 0.56673 0.60058 0.6298 0.0
C1515 C 0.59289 0.60688 0.68471 0.0
C1516 C 0.60344 0.63489 0.68358 0.0
H1517 H 0.56778 0.56873 0.66103 0.0
H1518 H 0.59896 0.59774 0.70567 0.0
S1519 S 0.58795 0.67274 0.61494 0.0
N1520 N 0.57018 0.64095 0.60238 0.0
N1521 N 0.60363 0.67251 0.65199 0.0
C1522 C 0.5946 0.64567 0.65587 0.0
C1523 C 0.57636 0.62852 0.62886 0.0
C1524 C 1.00895 0.59912 0.14926 0.0
C1525 C 0.98461 0.57504 0.13967 0.0
C1526 C 1.00835 0.6162 0.17589 0.0
C1527 C 0.98343 0.60994 0.1945 0.0
H1528 H 0.02878 0.60467 0.13648 0.0
H1529 H 0.02768 0.63429 0.18217 0.0
S1530 S 0.91325 0.55039 0.17741 0.0
N1531 N 0.9344 0.54742 0.14908 0.0
N1532 N 0.9334 0.57775 0.19985 0.0
C1533 C 0.95892 0.58598 0.1847 0.0
C1534 C 0.95947 0.56906 0.15724 0.0
C1535 C 0.44843 0.52821 0.17418 0.0
C1536 C 0.46959 0.52452 0.15872 0.0
C1537 C 0.43417 0.51425 0.20503 0.0
C1538 C 0.4401 0.49558 0.22238 0.0
H1539 H 0.44281 0.54225 0.16234 0.0
H1540 H 0.41825 0.51836 0.2153 0.0
S1541 S 0.49299 0.47742 0.19199 0.0
N1542 N 0.49542 0.50018 0.16245 0.0
N1543 N 0.46829 0.47344 0.22053 0.0
C1544 C 0.46072 0.49097 0.20668 0.0
C1545 C 0.47545 0.50545 0.17491 0.0
C1546 C 0.61187 0.09104 0.18758 0.0
C1547 C 0.60122 0.10899 0.18456 0.0
C1548 C 0.63068 0.09372 0.21426 0.0
C1549 C 0.63987 0.11464 0.23885 0.0
H1550 H 0.60637 0.07525 0.1685 0.0
H1551 H 0.63879 0.07983 0.21484 0.0
S1552 S 0.61606 0.16521 0.24491 0.0
N1553 N 0.59952 0.14697 0.21039 0.0
N1554 N 0.63529 0.15247 0.26002 0.0
C1555 C 0.62879 0.13226 0.23678 0.0
C1556 C 0.60943 0.12935 0.20979 0.0
C1557 C 0.61743 0.12549 0.41607 0.0
C1558 C 0.61774 0.11466 0.44957 0.0
C1559 C 0.63347 0.12454 0.38788 0.0
C1560 C 0.65032 0.11247 0.39177 0.0
H1561 H 0.60438 0.13448 0.41137 0.0
H1562 H 0.63276 0.13346 0.36268 0.0
S1563 S 0.66022 0.08277 0.47435 0.0
N1564 N 0.63754 0.09258 0.48542 0.0
N1565 N 0.66731 0.09037 0.43184 0.0
C1566 C 0.65088 0.10144 0.42493 0.0
C1567 C 0.6347 0.10266 0.45395 0.0
C1568 C 0.04476 0.63678 0.3923 0.0
C1569 C 0.02772 0.61213 0.41072 0.0
C1570 C 0.0345 0.64584 0.36409 0.0
C1571 C 1.00654 0.63082 0.35253 0.0
H1572 H 0.06629 0.64949 0.39998 0.0
H1573 H 0.04876 0.66502 0.35135 0.0
S1574 S 0.9533 0.56401 0.39023 0.0
N1575 N 0.98146 0.57223 0.41385 0.0
N1576 N 0.96219 0.58929 0.36177 0.0
C1577 C 0.98927 0.60601 0.3706 0.0
C1578 C 0.99978 0.59673 0.39931 0.0
C1579 C 0.48214 0.50305 0.42675 0.0
C1580 C 0.48298 0.52462 0.44577 0.0
C1581 C 0.46427 0.49138 0.39809 0.0
C1582 C 0.44617 0.50064 0.38641 0.0
H1583 H 0.49519 0.49455 0.43433 0.0
H1584 H 0.46455 0.47463 0.38522 0.0
S1585 S 0.44092 0.55767 0.42551 0.0
N1586 N 0.4646 0.55548 0.44985 0.0
N1587 N 0.4312 0.53391 0.39558 0.0
C1588 C 0.44735 0.52287 0.40435 0.0
C1589 C 0.46563 0.53473 0.43398 0.0
C1590 C 0.66945 0.83073 0.24729 0.0
C1591 C 0.69283 0.85654 0.25313 0.0
C1592 C 0.66727 0.81582 0.21619 0.0
C1593 C 0.68837 0.82581 0.1893 0.0
H1594 H 0.65317 0.82152 0.26742 0.0
H1595 H 0.6492 0.79587 0.21375 0.0
S1596 S 0.7524 0.89344 0.18933 0.0
N1597 N 0.73639 0.89209 0.22695 0.0
N1598 N 0.7324 0.86432 0.17016 0.0
C1599 C 0.7112 0.85193 0.19432 0.0
C1600 C 0.71336 0.8671 0.22558 0.0
C1601 C 0.26665 0.93722 0.28385 0.0
C1602 C 0.238 0.92605 0.277 0.0
C1603 C 0.28713 0.95422 0.25883 0.0
C1604 C 0.27999 0.9608 0.22562 0.0
H1605 H 0.27336 0.93369 0.30927 0.0
H1606 H 0.30887 0.96251 0.26597 0.0
S1607 S 0.20754 0.93483 0.19371 0.0
N1608 N 0.20337 0.9215 0.23383 0.0
N1609 N 0.24168 0.95316 0.18698 0.0
C1610 C 0.25131 0.94896 0.21808 0.0
C1611 C 0.23045 0.93174 0.24365 0.0
C1612 C 0.16906 0.45148 0.25067 0.0
C1613 C 0.18062 0.43539 0.26123 0.0
C1614 C 0.15051 0.444 0.22246 0.0
C1615 C 0.14254 0.41999 0.20402 0.0
H1616 H 0.17324 0.46924 0.26536 0.0
H1617 H 0.14145 0.45662 0.21603 0.0
S1618 S 0.17049 0.37327 0.21728 0.0
N1619 N 0.1858 0.39637 0.24782 0.0
N1620 N 0.14992 0.38177 0.19559 0.0
C1621 C 0.155 0.40445 0.21301 0.0
C1622 C 0.17434 0.41232 0.24136 0.0
C1623 C 0.13908 0.38496 0.9847 0.0
C1624 C 0.14533 0.36444 0.99347 0.0
C1625 C 0.12872 0.39538 1.01022 0.0
C1626 C 0.12496 0.38608 0.0454 0.0
H1627 H 0.14018 0.39153 0.95745 0.0
H1628 H 0.12159 0.40923 1.0019 0.0
S1629 S 0.14169 0.33539 0.08276 0.0
N1630 N 0.14967 0.33718 0.04024 0.0
N1631 N 0.13049 0.35719 0.08857 0.0
C1632 C 0.13329 0.36727 0.0551 0.0
C1633 C 0.14337 0.35627 0.02899 0.0
C1634 C 0.68346 0.86114 0.99059 0.0
C1635 C 0.67781 0.85348 0.95466 0.0
C1636 C 0.68304 0.84334 1.01764 0.0
C1637 C 0.67735 0.81691 1.01027 0.0
H1638 H 0.6894 0.88161 0.99782 0.0
H1639 H 0.68891 0.85098 0.04412 0.0
S1640 S 0.6586 0.78537 0.92174 0.0
N1641 N 0.66409 0.81631 0.91442 0.0
N1642 N 0.66379 0.78336 0.96436 0.0
C1643 C 0.67031 0.80853 0.97485 0.0
C1644 C 0.67035 0.82653 0.94744 0.0
C1645 C 0.24718 0.92711 1.01082 0.0
C1646 C 0.23202 0.93856 0.99537 0.0
C1647 C 0.26511 0.93922 0.03973 0.0
C1648 C 0.26877 0.9634 0.05441 0.0
H1649 H 0.24502 0.9085 1.00064 0.0
H1650 H 0.27632 0.92964 0.05045 0.0
S1651 S 0.23512 1.00247 0.02239 0.0
N1652 N 0.22306 0.97625 0.99616 0.0
N1653 N 0.25587 0.99858 0.05026 0.0
C1654 C 0.25374 0.97505 0.03902 0.0
C1655 C 0.23564 0.96278 1.00966 0.0
C1656 C 0.65783 0.90606 0.47623 0.0
C1657 C 0.67835 0.92266 0.45084 0.0
C1658 C 0.65272 0.91699 0.50738 0.0
C1659 C 0.66807 0.94502 0.51503 0.0
H1660 H 0.64638 0.88438 0.47276 0.0
H1661 H 0.63695 0.90317 0.52605 0.0
S1662 S 0.72176 0.9976 0.45489 0.0
N1663 N 0.71226 0.96901 0.43436 0.0
N1664 N 0.70306 0.98908 0.4919 0.0
C1665 C 0.68785 0.96176 0.48903 0.0
C1666 C 0.69283 0.95075 0.45744 0.0
C1667 C 0.16318 0.8636 0.49976 0.0
C1668 C 0.1621 0.85052 0.46804 0.0
C1669 C 0.1472 0.84918 0.52968 0.0
C1670 C 0.12924 0.82096 0.52933 0.0
H1671 H 0.17484 0.88548 0.50062 0.0
H1672 H 0.14743 0.86053 0.55257 0.0
S1673 S 0.11987 0.77677 0.45352 0.0
N1674 N 0.1427 0.80743 0.43865 0.0
N1675 N 0.11273 0.78024 0.495 0.0
C1676 C 0.12944 0.80731 0.49864 0.0
C1677 C 0.1458 0.82211 0.46796 0.0
C1678 C 0.23837 0.42918 0.54743 0.0
C1679 C 0.23827 0.41899 0.51388 0.0
C1680 C 0.25117 0.42393 0.57596 0.0
C1681 C 0.26457 0.40841 0.572 0.0
H1682 H 0.22864 0.44148 0.55152 0.0
H1683 H 0.25104 0.43263 0.60121 0.0
S1684 S 0.27068 0.37762 0.48895 0.0
N1685 N 0.25293 0.39293 0.47793 0.0
N1686 N 0.27684 0.3829 0.53157 0.0
C1687 C 0.26411 0.39763 0.53863 0.0
C1688 C 0.25106 0.403 0.50956 0.0
C1689 C 0.20321 0.33824 0.73076 0.0
C1690 C 0.20626 0.32391 0.75939 0.0
C1691 C 0.22545 0.35357 0.70727 0.0
C1692 C 0.25127 0.35455 0.71114 0.0
H1693 H 0.18406 0.3391 0.7281 0.0
H1694 H 0.22272 0.36541 0.68662 0.0
S1695 S 0.26989 0.31952 0.77982 0.0
N1696 N 0.23713 0.311 0.78927 0.0
N1697 N 0.2785 0.33887 0.74382 0.0
C1698 C 0.25415 0.33891 0.73794 0.0
C1699 C 0.23168 0.32368 0.76237 0.0
C1700 C 0.70649 0.95211 0.73268 0.0
C1701 C 0.68586 0.92978 0.75282 0.0
C1702 C 0.70045 0.96149 0.70086 0.0
C1703 C 0.67333 0.94909 0.68668 0.0
H1704 H 0.72792 0.96281 0.74158 0.0
H1705 H 0.71738 0.97879 0.68729 0.0
S1706 S 0.6111 0.88979 0.72844 0.0
N1707 N 0.63679 0.89562 0.75566 0.0
N1708 N 0.62522 0.91272 0.69629 0.0
C1709 C 0.65233 0.92662 0.7065 0.0
C1710 C 0.65857 0.91718 0.73922 0.0
C1711 C 0.13175 0.83518 0.74578 0.0
C1712 C 0.13931 0.86252 0.75027 0.0
C1713 C 0.11904 0.82129 0.71456 0.0
C1714 C 0.11353 0.8342 0.68615 0.0
H1715 H 0.13511 0.82423 0.76692 0.0
H1716 H 0.11287 0.80008 0.71312 0.0
S1717 S 0.13323 0.90691 0.68231 0.0
N1718 N 0.14302 0.90268 0.72192 0.0
N1719 N 0.11939 0.87706 0.66368 0.0
C1720 C 0.12224 0.86196 0.68976 0.0
C1721 C 0.13501 0.87596 0.72157 0.0
C1722 C 0.38761 0.19879 0.59562 0.0
C1723 C 0.36579 0.18809 0.62145 0.0
C1724 C 0.38656 0.18503 0.56446 0.0
C1725 C 0.36346 0.15974 0.55679 0.0
H1726 H 0.40632 0.21804 0.59969 0.0
H1727 H 0.40433 0.1943 0.54638 0.0
S1728 S 0.3001 0.12243 0.61452 0.0
N1729 N 0.31992 0.15036 0.63642 0.0
N1730 N 0.31755 0.1246 0.57774 0.0
C1731 C 0.34096 0.14896 0.58172 0.0
C1732 C 0.34217 0.16304 0.61388 0.0
C1733 C 0.88508 0.28353 0.52733 0.0
C1734 C 0.88761 0.28357 0.5643 0.0
C1735 C 0.90723 0.30259 0.50569 0.0
C1736 C 0.93258 0.3223 0.5204 0.0
H1737 H 0.86634 0.26801 0.51508 0.0
H1738 H 0.90489 0.30117 0.47726 0.0
S1739 S 0.94736 0.33372 0.61622 0.0
N1740 N 0.91581 0.30688 0.61484 0.0
N1741 N 0.95727 0.34256 0.57462 0.0
C1742 C 0.93453 0.32342 0.55752 0.0
C1743 C 0.9121 0.30409 0.57935 0.0
C1744 C 0.80338 0.66545 0.52443 0.0
C1745 C 0.81919 0.68625 0.54815 0.0
C1746 C 0.79247 0.67043 0.49359 0.0
C1747 C 0.79709 0.69648 0.48503 0.0
H1748 H 0.79843 0.64491 0.53051 0.0
H1749 H 0.77912 0.65343 0.47729 0.0
S1750 S 0.83918 0.75866 0.53637 0.0
N1751 N 0.84016 0.73443 0.5596 0.0
N1752 N 0.82068 0.74384 0.50116 0.0
C1753 C 0.81461 0.71786 0.50706 0.0
C1754 C 0.82539 0.71275 0.53876 0.0
C1755 C 0.78142 0.67232 0.29173 0.0
C1756 C 0.77308 0.676 0.25807 0.0
C1757 C 0.77271 0.68012 0.32217 0.0
C1758 C 0.7551 0.69149 0.31981 0.0
H1759 H 0.79527 0.66397 0.29437 0.0
H1760 H 0.77919 0.67657 0.34774 0.0
S1761 S 0.72779 0.70538 0.23742 0.0
N1762 N 0.74679 0.69198 0.22389 0.0
N1763 N 0.72985 0.70613 0.28098 0.0
C1764 C 0.74663 0.69517 0.28619 0.0
C1765 C 0.75577 0.68755 0.25535 0.0
C1766 C 0.32942 0.15469 0.32905 0.0
C1767 C 0.34944 0.17957 0.31307 0.0
C1768 C 0.33513 0.14407 0.36012 0.0
C1769 C 0.36126 0.15759 0.37696 0.0
H1770 H 0.30932 0.1427 0.31672 0.0
H1771 H 0.31938 0.12432 0.36995 0.0
S1772 S 0.42105 0.22357 0.34726 0.0
N1773 N 0.39654 0.21776 0.31809 0.0
N1774 N 0.40721 0.19765 0.37544 0.0
C1775 C 0.3812 0.18278 0.36197 0.0
C1776 C 0.3753 0.19381 0.33057 0.0
C1777 C 0.90671 0.33441 0.30197 0.0
C1778 C 0.89332 0.30641 0.29643 0.0
C1779 C 0.92483 0.34602 0.33039 0.0
C1780 C 0.93053 0.33017 0.35418 0.0
H1781 H 0.90401 0.3476 0.28351 0.0
H1782 H 0.93506 0.36776 0.33313 0.0
S1783 S 0.89781 0.25551 0.35434 0.0
N1784 N 0.8846 0.26276 0.31951 0.0
N1785 N 0.91943 0.28481 0.37223 0.0
C1786 C 0.91656 0.30207 0.34976 0.0
C1787 C 0.89775 0.29016 0.3211 0.0
C1788 C 0.3804 0.28251 0.8345 0.0
C1789 C 0.35972 0.25901 0.81764 0.0
C1790 C 0.37481 0.29295 0.86531 0.0
C1791 C 0.34814 0.28054 0.88173 0.0
H1792 H 0.4015 0.29339 0.82369 0.0
H1793 H 0.39176 0.31114 0.87625 0.0
S1794 S 0.28606 0.21822 0.84916 0.0
N1795 N 0.31109 0.22361 0.82038 0.0
N1796 N 0.30045 0.24268 0.87816 0.0
C1797 C 0.32712 0.25681 0.86537 0.0
C1798 C 0.33288 0.24627 0.83359 0.0
C1799 C 0.79536 0.17548 0.81069 0.0
C1800 C 0.78288 0.18643 0.78836 0.0
C1801 C 0.78218 0.16159 0.84234 0.0
C1802 C 0.75606 0.15825 0.85306 0.0
H1803 H 0.81578 0.17819 0.80408 0.0
H1804 H 0.79292 0.15408 0.85896 0.0
S1805 S 0.713 0.1802 0.80185 0.0
N1806 N 0.74164 0.19055 0.77756 0.0
N1807 N 0.71735 0.16547 0.83719 0.0
C1808 C 0.74304 0.16846 0.83037 0.0
C1809 C 0.75631 0.18229 0.79806 0.0
C1810 C 0.93287 0.68807 0.78929 0.0
C1811 C 0.91316 0.69686 0.78604 0.0
C1812 C 0.95328 0.6982 0.81559 0.0
C1813 C 0.95492 0.71768 0.83953 0.0
H1814 H 0.93278 0.67354 0.77105 0.0
H1815 H 0.96794 0.69073 0.8171 0.0
S1816 S 0.90687 0.74584 0.84383 0.0
N1817 N 0.89555 0.72501 0.81027 0.0
N1818 N 0.93422 0.7445 0.8591 0.0
C1819 C 0.93526 0.72658 0.83662 0.0
C1820 C 0.91431 0.71605 0.81008 0.0
C1821 C 0.9014 0.68159 0.02755 0.0
C1822 C 0.89227 0.70013 0.03538 0.0
C1823 C 0.92482 0.68887 1.00526 0.0
C1824 C 0.94003 0.71499 0.98977 0.0
H1825 H 0.89068 0.66146 0.03931 0.0
H1826 H 0.93112 0.67393 1.00038 0.0
S1827 S 0.92288 0.77024 0.99998 0.0
N1828 N 0.8991 0.74504 0.02451 0.0
N1829 N 0.94282 0.759 0.983 0.0
C1830 C 0.9306 0.73351 0.99708 0.0
C1831 C 0.90686 0.72604 1.01974 0.0
C1832 C 0.38385 0.28392 0.09584 0.0
C1833 C 0.36217 0.26219 0.11573 0.0
C1834 C 0.3788 0.29523 0.06501 0.0
C1835 C 0.35168 0.28537 0.05151 0.0
H1836 H 0.40536 0.29256 0.10417 0.0
H1837 H 0.39652 0.31179 0.05145 0.0
S1838 S 0.2869 0.22899 0.09334 0.0
N1839 N 0.31212 0.23174 0.11944 0.0
N1840 N 0.30237 0.25221 0.06178 0.0
C1841 C 0.32962 0.26367 0.07127 0.0
C1842 C 0.33486 0.25238 0.10308 0.0
C1843 C 0.79697 0.22206 0.04208 0.0
C1844 C 0.81941 0.21991 0.05606 0.0
C1845 C 0.77813 0.20289 1.01877 0.0
C1846 C 0.78075 0.18054 1.00821 0.0
H1847 H 0.79333 0.23826 0.05005 0.0
H1848 H 0.76098 0.2055 1.00959 0.0
S1849 S 0.83749 0.16683 0.035 0.0
N1850 N 0.84442 0.19468 0.05597 0.0
N1851 N 0.80878 0.15833 1.0124 0.0
C1852 C 0.80357 0.17847 0.02132 0.0
C1853 C 0.82289 0.19817 0.04515 0.0
loop_
_geom_bond_atom_site_label_1
_geom_bond_atom_site_label_2
_geom_bond_distance
_geom_bond_site_symmetry_2
_ccdc_geom_bond_type
Cu0 N1 1.999 . S
Cu0 O6 1.974 1_554 S
Cu0 N11 1.985 1_554 S
Cu0 O20 1.959 . S
N1 Cu0 1.999 . S
N1 C3 1.263 . S
N1 C5 1.389 . S
N2 C3 1.358 . S
N2 C4 1.400 . S
C3 N1 1.263 . S
C3 N2 1.358 . S
C3 H9 0.930 . S
C4 N2 1.400 . S
C4 C5 1.351 . S
C4 H21 0.930 . S
C5 N1 1.389 . S
C5 C4 1.351 . S
C5 H10 0.930 . S
O6 Cu0 1.974 1_556 S
O6 C16 1.282 . S
C7 O8 1.261 . S
C7 O20 1.251 . S
O8 C7 1.261 . S
H9 C3 0.930 . S
H10 C5 0.930 . S
N11 Cu0 1.985 1_556 S
N11 C13 1.335 . S
N11 C14 1.390 . S
N12 C13 1.345 . S
N12 C15 1.336 . S
C13 N11 1.335 . S
C13 N12 1.345 . S
C13 H18 0.930 . S
C14 N11 1.390 . S
C14 C15 1.346 . S
C14 H19 0.930 . S
C15 N12 1.336 . S
C15 C14 1.346 . S
C15 H22 0.929 . S
C16 O6 1.282 . S
C16 O17 1.216 . S
O17 C16 1.216 . S
H18 C13 0.930 . S
H19 C14 0.930 . S
O20 Cu0 1.959 . S
O20 C7 1.251 . S
H21 C4 0.930 . S
H22 C15 0.929 . S
Cu23 N24 1.999 1_554 S
Cu23 O29 1.974 . S
Cu23 N34 1.985 . S
Cu23 O43 1.959 1_554 S
N24 Cu23 1.999 1_556 S
N24 C26 1.263 . S
N24 C28 1.389 . S
N25 C26 1.358 . S
N25 C27 1.400 . S
C26 N24 1.263 . S
C26 N25 1.358 . S
C26 H32 0.930 . S
C27 N25 1.400 . S
C27 C28 1.351 . S
C27 H44 0.930 . S
C28 N24 1.389 . S
C28 C27 1.351 . S
C28 H33 0.930 . S
O29 Cu23 1.974 . S
O29 C39 1.282 . S
C30 O31 1.257 1_556 S
C30 O43 1.251 . S
O31 C30 1.257 1_554 S
H32 C26 0.930 . S
H33 C28 0.930 . S
N34 Cu23 1.985 . S
N34 C36 1.335 . S
N34 C37 1.390 . S
N35 C36 1.345 . S
N35 C38 1.336 . S
C36 N34 1.335 . S
C36 N35 1.345 . S
C36 H41 0.930 . S
C37 N34 1.390 . S
C37 C38 1.346 . S
C37 H42 0.930 . S
C38 N35 1.336 . S
C38 C37 1.346 . S
C38 H45 0.929 . S
C39 O29 1.282 . S
C39 O40 1.216 . S
O40 C39 1.216 . S
H41 C36 0.930 . S
H42 C37 0.930 . S
O43 Cu23 1.959 1_556 S
O43 C30 1.251 . S
H44 C27 0.930 . S
H45 C38 0.929 . S
Cu46 N47 1.999 1_554 S
Cu46 O52 1.974 . S
Cu46 N57 1.985 . S
Cu46 O66 1.951 . S
N47 Cu46 1.999 1_556 S
N47 C49 1.263 . S
N47 C51 1.389 . S
N48 C49 1.358 . S
N48 C50 1.400 . S
C49 N47 1.263 . S
C49 N48 1.358 . S
C49 H55 0.930 1_565 S
C50 N48 1.400 . S
C50 C51 1.351 . S
C50 H67 0.930 . S
C51 N47 1.389 . S
C51 C50 1.351 . S
C51 H56 0.930 . S
O52 Cu46 1.974 . S
O52 C62 1.282 1_565 S
C53 O54 1.261 . S
C53 O66 1.231 1_545 S
O54 C53 1.261 . S
H55 C49 0.930 1_545 S
H56 C51 0.930 . S
N57 Cu46 1.985 . S
N57 C59 1.333 . S
N57 C60 1.392 1_565 S
N58 C59 1.345 1_545 S
N58 C61 1.336 . S
C59 N57 1.333 . S
C59 N58 1.345 1_565 S
C59 H64 0.930 . S
C60 N57 1.392 1_545 S
C60 C61 1.346 . S
C60 H65 0.930 . S
C61 N58 1.336 . S
C61 C60 1.346 . S
C61 H68 0.929 . S
C62 O52 1.282 1_545 S
C62 O63 1.216 . S
O63 C62 1.216 . S
H64 C59 0.930 . S
H65 C60 0.930 . S
O66 Cu46 1.951 . S
O66 C53 1.231 1_565 S
H67 C50 0.930 . S
H68 C61 0.929 . S
Cu69 N70 1.999 . S
Cu69 O75 1.974 . S
Cu69 N80 1.985 . S
Cu69 O89 1.959 . S
N70 Cu69 1.999 . S
N70 C72 1.263 . S
N70 C74 1.389 . S
N71 C72 1.358 . S
N71 C73 1.400 . S
C72 N70 1.263 . S
C72 N71 1.358 . S
C72 H78 0.930 . S
C73 N71 1.400 . S
C73 C74 1.351 . S
C73 H90 0.930 . S
C74 N70 1.389 . S
C74 C73 1.351 . S
C74 H79 0.930 . S
O75 Cu69 1.974 . S
O75 C85 1.282 . S
C76 O77 1.261 . S
C76 O89 1.251 . S
O77 C76 1.261 . S
H78 C72 0.930 . S
H79 C74 0.930 . S
N80 Cu69 1.985 . S
N80 C82 1.335 . S
N80 C83 1.390 . S
N81 C82 1.345 . S
N81 C84 1.336 . S
C82 N80 1.335 . S
C82 N81 1.345 . S
C82 H87 0.930 . S
C83 N80 1.390 . S
C83 C84 1.346 . S
C83 H88 0.930 . S
C84 N81 1.336 . S
C84 C83 1.346 . S
C84 H91 0.929 1_545 S
C85 O75 1.282 . S
C85 O86 1.216 1_545 S
O86 C85 1.216 1_565 S
H87 C82 0.930 . S
H88 C83 0.930 . S
O89 Cu69 1.959 . S
O89 C76 1.251 . S
H90 C73 0.930 . S
H91 C84 0.929 1_565 S
Cu92 N93 1.999 . S
Cu92 O98 1.974 . S
Cu92 N103 1.985 . S
Cu92 O112 1.959 . S
N93 Cu92 1.999 . S
N93 C95 1.263 . S
N93 C97 1.389 . S
N94 C95 1.358 . S
N94 C96 1.400 . S
C95 N93 1.263 . S
C95 N94 1.358 . S
C95 H101 0.930 . S
C96 N94 1.400 . S
C96 C97 1.351 . S
C96 H113 0.930 . S
C97 N93 1.389 . S
C97 C96 1.351 . S
C97 H102 0.930 . S
O98 Cu92 1.974 . S
O98 C108 1.282 . S
C99 O100 1.261 . S
C99 O112 1.251 . S
O100 C99 1.261 . S
H101 C95 0.930 . S
H102 C97 0.930 . S
N103 Cu92 1.985 . S
N103 C105 1.335 . S
N103 C106 1.390 . S
N104 C105 1.345 . S
N104 C107 1.336 . S
C105 N103 1.335 . S
C105 N104 1.345 . S
C105 H110 0.930 . S
C106 N103 1.390 . S
C106 C107 1.346 . S
C106 H111 0.930 . S
C107 N104 1.336 . S
C107 C106 1.346 . S
C107 H114 0.929 . S
C108 O98 1.282 . S
C108 O109 1.216 . S
O109 C108 1.216 . S
H110 C105 0.930 . S
H111 C106 0.930 . S
O112 Cu92 1.959 . S
O112 C99 1.251 . S
H113 C96 0.930 . S
H114 C107 0.929 . S
Cu115 N116 1.999 . S
Cu115 O121 1.974 . S
Cu115 N126 1.985 . S
Cu115 O135 1.959 . S
N116 Cu115 1.999 . S
N116 C118 1.263 . S
N116 C120 1.389 . S
N117 C118 1.358 . S
N117 C119 1.400 . S
C118 N116 1.263 . S
C118 N117 1.358 . S
C118 H124 0.930 . S
C119 N117 1.400 . S
C119 C120 1.351 . S
C119 H136 0.930 . S
C120 N116 1.389 . S
C120 C119 1.351 . S
C120 H125 0.930 . S
O121 Cu115 1.974 . S
O121 C131 1.282 . S
C122 O123 1.261 . S
C122 O135 1.251 . S
O123 C122 1.261 . S
H124 C118 0.930 . S
H125 C120 0.930 . S
N126 Cu115 1.985 . S
N126 C128 1.335 . S
N126 C129 1.390 . S
N127 C128 1.345 . S
N127 C130 1.336 . S
C128 N126 1.335 . S
C128 N127 1.345 . S
C128 H133 0.930 . S
C129 N126 1.390 . S
C129 C130 1.346 . S
C129 H134 0.930 . S
C130 N127 1.336 . S
C130 C129 1.346 . S
C130 H137 0.929 . S
C131 O121 1.282 . S
C131 O132 1.216 . S
O132 C131 1.216 . S
H133 C128 0.930 . S
H134 C129 0.930 . S
O135 Cu115 1.959 . S
O135 C122 1.251 . S
H136 C119 0.930 . S
H137 C130 0.929 . S
Cu138 N139 1.999 . S
Cu138 O144 1.974 . S
Cu138 N149 1.985 . S
Cu138 O158 1.959 . S
N139 Cu138 1.999 . S
N139 C141 1.263 . S
N139 C143 1.389 . S
N140 C141 1.358 . S
N140 C142 1.400 . S
C141 N139 1.263 . S
C141 N140 1.358 . S
C141 H147 0.930 . S
C142 N140 1.400 . S
C142 C143 1.351 . S
C142 H159 0.930 . S
C143 N139 1.389 . S
C143 C142 1.351 . S
C143 H148 0.930 . S
O144 Cu138 1.974 . S
O144 C154 1.282 . S
C145 O146 1.261 . S
C145 O158 1.251 . S
O146 C145 1.261 . S
H147 C141 0.930 . S
H148 C143 0.930 . S
N149 Cu138 1.985 . S
N149 C151 1.335 . S
N149 C152 1.390 . S
N150 C151 1.345 . S
N150 C153 1.336 . S
C151 N149 1.335 . S
C151 N150 1.345 . S
C151 H156 0.930 . S
C152 N149 1.390 . S
C152 C153 1.346 . S
C152 H157 0.930 . S
C153 N150 1.336 . S
C153 C152 1.346 . S
C153 H160 0.929 . S
C154 O144 1.282 . S
C154 O155 1.216 . S
O155 C154 1.216 . S
H156 C151 0.930 . S
H157 C152 0.930 . S
O158 Cu138 1.959 . S
O158 C145 1.251 . S
H159 C142 0.930 . S
H160 C153 0.929 . S
Cu161 N162 1.999 . S
Cu161 O167 1.974 . S
Cu161 N172 1.985 . S
Cu161 O181 1.959 . S
N162 Cu161 1.999 . S
N162 C164 1.263 . S
N162 C166 1.389 . S
N163 C164 1.358 . S
N163 C165 1.400 . S
C164 N162 1.263 . S
C164 N163 1.358 . S
C164 H170 0.930 . S
C165 N163 1.400 . S
C165 C166 1.351 . S
C165 H182 0.930 . S
C166 N162 1.389 . S
C166 C165 1.351 . S
C166 H171 0.930 . S
O167 Cu161 1.974 . S
O167 C177 1.282 . S
C168 O169 1.261 . S
C168 O181 1.251 . S
O169 C168 1.261 . S
H170 C164 0.930 . S
H171 C166 0.930 . S
N172 Cu161 1.985 . S
N172 C174 1.335 . S
N172 C175 1.390 . S
N173 C174 1.345 . S
N173 C176 1.336 . S
C174 N172 1.335 . S
C174 N173 1.345 . S
C174 H179 0.930 . S
C175 N172 1.390 . S
C175 C176 1.346 . S
C175 H180 0.930 . S
C176 N173 1.336 . S
C176 C175 1.346 . S
C176 H183 0.929 . S
C177 O167 1.282 . S
C177 O178 1.216 . S
O178 C177 1.216 . S
H179 C174 0.930 . S
H180 C175 0.930 . S
O181 Cu161 1.959 . S
O181 C168 1.251 . S
H182 C165 0.930 . S
H183 C176 0.929 . S
Cu184 N185 1.999 . S
Cu184 O190 1.974 . S
Cu184 N195 1.985 . S
Cu184 O204 1.959 . S
N185 Cu184 1.999 . S
N185 C187 1.263 . S
N185 C189 1.389 . S
N186 C187 1.358 . S
N186 C188 1.400 . S
C187 N185 1.263 . S
C187 N186 1.358 . S
C187 H193 0.930 . S
C188 N186 1.400 . S
C188 C189 1.351 . S
C188 H205 0.930 . S
C189 N185 1.389 . S
C189 C188 1.351 . S
C189 H194 0.930 . S
O190 Cu184 1.974 . S
O190 C200 1.282 . S
C191 O192 1.261 . S
C191 O204 1.251 . S
O192 C191 1.261 . S
H193 C187 0.930 . S
H194 C189 0.930 . S
N195 Cu184 1.985 . S
N195 C197 1.335 . S
N195 C198 1.390 . S
N196 C197 1.345 . S
N196 C199 1.336 . S
C197 N195 1.335 . S
C197 N196 1.345 . S
C197 H202 0.930 . S
C198 N195 1.390 . S
C198 C199 1.346 . S
C198 H203 0.930 . S
C199 N196 1.336 . S
C199 C198 1.346 . S
C199 H206 0.929 . S
C200 O190 1.282 . S
C200 O201 1.216 . S
O201 C200 1.216 . S
H202 C197 0.930 . S
H203 C198 0.930 . S
O204 Cu184 1.959 . S
O204 C191 1.251 . S
H205 C188 0.930 . S
H206 C199 0.929 . S
Cu207 N208 1.999 . S
Cu207 O213 1.974 . S
Cu207 N218 1.985 . S
Cu207 O227 1.959 . S
N208 Cu207 1.999 . S
N208 C210 1.263 . S
N208 C212 1.389 . S
N209 C210 1.358 . S
N209 C211 1.400 . S
C210 N208 1.263 . S
C210 N209 1.358 . S
C210 H216 0.930 . S
C211 N209 1.400 . S
C211 C212 1.351 . S
C211 H228 0.930 . S
C212 N208 1.389 . S
C212 C211 1.351 . S
C212 H217 0.930 . S
O213 Cu207 1.974 . S
O213 C223 1.282 . S
C214 O215 1.261 . S
C214 O227 1.251 . S
O215 C214 1.261 . S
H216 C210 0.930 . S
H217 C212 0.930 . S
N218 Cu207 1.985 . S
N218 C220 1.335 . S
N218 C221 1.390 . S
N219 C220 1.345 . S
N219 C222 1.336 . S
C220 N218 1.335 . S
C220 N219 1.345 . S
C220 H225 0.930 . S
C221 N218 1.390 . S
C221 C222 1.346 . S
C221 H226 0.930 . S
C222 N219 1.336 . S
C222 C221 1.346 . S
C222 H229 0.929 . S
C223 O213 1.282 . S
C223 O224 1.216 . S
O224 C223 1.216 . S
H225 C220 0.930 . S
H226 C221 0.930 . S
O227 Cu207 1.959 . S
O227 C214 1.251 . S
H228 C211 0.930 . S
H229 C222 0.929 . S
Cu230 N231 1.999 . S
Cu230 O236 1.974 . S
Cu230 N241 1.985 . S
Cu230 O250 1.959 . S
N231 Cu230 1.999 . S
N231 C233 1.263 . S
N231 C235 1.389 . S
N232 C233 1.358 . S
N232 C234 1.400 . S
C233 N231 1.263 . S
C233 N232 1.358 . S
C233 H239 0.930 . S
C234 N232 1.400 . S
C234 C235 1.351 . S
C234 H251 0.930 . S
C235 N231 1.389 . S
C235 C234 1.351 . S
C235 H240 0.930 . S
O236 Cu230 1.974 . S
O236 C246 1.282 . S
C237 O238 1.261 . S
C237 O250 1.251 . S
O238 C237 1.261 . S
H239 C233 0.930 . S
H240 C235 0.930 . S
N241 Cu230 1.985 . S
N241 C243 1.335 . S
N241 C244 1.390 . S
N242 C243 1.345 . S
N242 C245 1.336 . S
C243 N241 1.335 . S
C243 N242 1.345 . S
C243 H248 0.930 . S
C244 N241 1.390 . S
C244 C245 1.346 . S
C244 H249 0.930 . S
C245 N242 1.336 . S
C245 C244 1.346 . S
C245 H252 0.929 . S
C246 O236 1.282 . S
C246 O247 1.216 . S
O247 C246 1.216 . S
H248 C243 0.930 . S
H249 C244 0.930 . S
O250 Cu230 1.959 . S
O250 C237 1.251 . S
H251 C234 0.930 . S
H252 C245 0.929 . S
Cu253 N254 1.999 . S
Cu253 O259 1.974 . S
Cu253 N264 1.985 . S
Cu253 O273 1.959 . S
N254 Cu253 1.999 . S
N254 C256 1.263 . S
N254 C258 1.389 . S
N255 C256 1.358 . S
N255 C257 1.400 . S
C256 N254 1.263 . S
C256 N255 1.358 . S
C256 H262 0.930 . S
C257 N255 1.400 . S
C257 C258 1.351 . S
C257 H274 0.930 . S
C258 N254 1.389 . S
C258 C257 1.351 . S
C258 H263 0.930 . S
O259 Cu253 1.974 . S
O259 C269 1.282 . S
C260 O261 1.261 . S
C260 O273 1.251 . S
O261 C260 1.261 . S
H262 C256 0.930 . S
H263 C258 0.930 . S
N264 Cu253 1.985 . S
N264 C266 1.335 . S
N264 C267 1.390 . S
N265 C266 1.345 . S
N265 C268 1.336 . S
C266 N264 1.335 . S
C266 N265 1.345 . S
C266 H271 0.930 . S
C267 N264 1.390 . S
C267 C268 1.346 . S
C267 H272 0.930 . S
C268 N265 1.336 . S
C268 C267 1.346 . S
C268 H275 0.929 . S
C269 O259 1.282 . S
C269 O270 1.216 . S
O270 C269 1.216 . S
H271 C266 0.930 . S
H272 C267 0.930 . S
O273 Cu253 1.959 . S
O273 C260 1.251 . S
H274 C257 0.930 . S
H275 C268 0.929 . S
Cu276 N277 1.999 . S
Cu276 O282 1.974 . S
Cu276 N287 1.985 . S
Cu276 O296 1.959 . S
N277 Cu276 1.999 . S
N277 C279 1.263 . S
N277 C281 1.389 . S
N278 C279 1.358 . S
N278 C280 1.400 . S
C279 N277 1.263 . S
C279 N278 1.358 . S
C279 H285 0.930 . S
C280 N278 1.400 . S
C280 C281 1.351 . S
C280 H297 0.930 . S
C281 N277 1.389 . S
C281 C280 1.351 . S
C281 H286 0.930 . S
O282 Cu276 1.974 . S
O282 C292 1.282 . S
C283 O284 1.261 . S
C283 O296 1.251 . S
O284 C283 1.261 . S
H285 C279 0.930 . S
H286 C281 0.930 . S
N287 Cu276 1.985 . S
N287 C289 1.335 . S
N287 C290 1.390 . S
N288 C289 1.345 . S
N288 C291 1.336 . S
C289 N287 1.335 . S
C289 N288 1.345 . S
C289 H294 0.930 . S
C290 N287 1.390 . S
C290 C291 1.346 . S
C290 H295 0.930 . S
C291 N288 1.336 . S
C291 C290 1.346 . S
C291 H298 0.929 . S
C292 O282 1.282 . S
C292 O293 1.216 . S
O293 C292 1.216 . S
H294 C289 0.930 . S
H295 C290 0.930 . S
O296 Cu276 1.959 . S
O296 C283 1.251 . S
H297 C280 0.930 . S
H298 C291 0.929 . S
Cu299 N300 1.999 . S
Cu299 O305 1.974 . S
Cu299 N310 1.985 . S
Cu299 O319 1.959 . S
N300 Cu299 1.999 . S
N300 C302 1.263 . S
N300 C304 1.389 . S
N301 C302 1.358 . S
N301 C303 1.400 . S
C302 N300 1.263 . S
C302 N301 1.358 . S
C302 H308 0.930 . S
C303 N301 1.400 . S
C303 C304 1.351 . S
C303 H320 0.930 . S
C304 N300 1.389 . S
C304 C303 1.351 . S
C304 H309 0.930 . S
O305 Cu299 1.974 . S
O305 C315 1.282 . S
C306 O307 1.261 . S
C306 O319 1.251 . S
O307 C306 1.261 . S
H308 C302 0.930 . S
H309 C304 0.930 . S
N310 Cu299 1.985 . S
N310 C312 1.335 . S
N310 C313 1.390 . S
N311 C312 1.345 . S
N311 C314 1.336 . S
C312 N310 1.335 . S
C312 N311 1.345 . S
C312 H317 0.930 . S
C313 N310 1.390 . S
C313 C314 1.346 . S
C313 H318 0.930 . S
C314 N311 1.336 . S
C314 C313 1.346 . S
C314 H321 0.929 . S
C315 O305 1.282 . S
C315 O316 1.216 . S
O316 C315 1.216 . S
H317 C312 0.930 . S
H318 C313 0.930 . S
O319 Cu299 1.959 . S
O319 C306 1.251 . S
H320 C303 0.930 . S
H321 C314 0.929 . S
Cu322 N323 1.999 . S
Cu322 O328 1.974 . S
Cu322 N333 1.985 . S
Cu322 O342 1.959 . S
N323 Cu322 1.999 . S
N323 C325 1.263 . S
N323 C327 1.389 . S
N324 C325 1.358 . S
N324 C326 1.400 . S
C325 N323 1.263 . S
C325 N324 1.358 . S
C325 H331 0.930 . S
C326 N324 1.400 . S
C326 C327 1.351 . S
C326 H343 0.930 . S
C327 N323 1.389 . S
C327 C326 1.351 . S
C327 H332 0.930 . S
O328 Cu322 1.974 . S
O328 C338 1.282 . S
C329 O330 1.261 . S
C329 O342 1.251 . S
O330 C329 1.261 . S
H331 C325 0.930 . S
H332 C327 0.930 . S
N333 Cu322 1.985 . S
N333 C335 1.335 . S
N333 C336 1.390 . S
N334 C335 1.345 . S
N334 C337 1.336 . S
C335 N333 1.335 . S
C335 N334 1.345 . S
C335 H340 0.930 . S
C336 N333 1.390 . S
C336 C337 1.346 . S
C336 H341 0.930 . S
C337 N334 1.336 . S
C337 C336 1.346 . S
C337 H344 0.929 . S
C338 O328 1.282 . S
C338 O339 1.216 . S
O339 C338 1.216 . S
H340 C335 0.930 . S
H341 C336 0.930 . S
O342 Cu322 1.959 . S
O342 C329 1.251 . S
H343 C326 0.930 . S
H344 C337 0.929 . S
Cu345 N346 1.999 . S
Cu345 O351 1.974 . S
Cu345 N356 1.985 . S
Cu345 O365 1.959 . S
N346 Cu345 1.999 . S
N346 C348 1.263 . S
N346 C350 1.389 . S
N347 C348 1.358 . S
N347 C349 1.400 . S
C348 N346 1.263 . S
C348 N347 1.358 . S
C348 H354 0.930 . S
C349 N347 1.400 . S
C349 C350 1.351 . S
C349 H366 0.930 . S
C350 N346 1.389 . S
C350 C349 1.351 . S
C350 H355 0.930 . S
O351 Cu345 1.974 . S
O351 C361 1.282 . S
C352 O353 1.261 . S
C352 O365 1.251 . S
O353 C352 1.261 . S
H354 C348 0.930 . S
H355 C350 0.930 . S
N356 Cu345 1.985 . S
N356 C358 1.335 . S
N356 C359 1.390 . S
N357 C358 1.345 . S
N357 C360 1.336 . S
C358 N356 1.335 . S
C358 N357 1.345 . S
C358 H363 0.930 . S
C359 N356 1.390 . S
C359 C360 1.346 . S
C359 H364 0.930 . S
C360 N357 1.336 . S
C360 C359 1.346 . S
C360 H367 0.929 . S
C361 O351 1.282 . S
C361 O362 1.216 . S
O362 C361 1.216 . S
H363 C358 0.930 . S
H364 C359 0.930 . S
O365 Cu345 1.959 . S
O365 C352 1.251 . S
H366 C349 0.930 . S
H367 C360 0.929 . S
Cu368 N369 1.999 . S
Cu368 O374 1.974 . S
Cu368 N379 1.985 . S
Cu368 O388 1.959 . S
N369 Cu368 1.999 . S
N369 C371 1.263 . S
N369 C373 1.389 . S
N370 C371 1.358 . S
N370 C372 1.400 . S
C371 N369 1.263 . S
C371 N370 1.358 . S
C371 H377 0.930 . S
C372 N370 1.400 . S
C372 C373 1.351 . S
C372 H389 0.930 . S
C373 N369 1.389 . S
C373 C372 1.351 . S
C373 H378 0.930 . S
O374 Cu368 1.974 . S
O374 C384 1.282 . S
C375 O376 1.261 . S
C375 O388 1.251 . S
O376 C375 1.261 . S
H377 C371 0.930 . S
H378 C373 0.930 . S
N379 Cu368 1.985 . S
N379 C381 1.335 . S
N379 C382 1.390 . S
N380 C381 1.345 . S
N380 C383 1.336 . S
C381 N379 1.335 . S
C381 N380 1.345 . S
C381 H386 0.930 . S
C382 N379 1.390 . S
C382 C383 1.346 . S
C382 H387 0.930 . S
C383 N380 1.336 . S
C383 C382 1.346 . S
C383 H390 0.929 . S
C384 O374 1.282 . S
C384 O385 1.216 . S
O385 C384 1.216 . S
H386 C381 0.930 . S
H387 C382 0.930 . S
O388 Cu368 1.959 . S
O388 C375 1.251 . S
H389 C372 0.930 . S
H390 C383 0.929 . S
Cu391 N392 1.999 . S
Cu391 O397 1.974 . S
Cu391 N402 1.985 . S
Cu391 O411 1.959 . S
N392 Cu391 1.999 . S
N392 C394 1.263 . S
N392 C396 1.389 . S
N393 C394 1.358 . S
N393 C395 1.400 . S
C394 N392 1.263 . S
C394 N393 1.358 . S
C394 H400 0.930 . S
C395 N393 1.400 . S
C395 C396 1.351 . S
C395 H412 0.930 . S
C396 N392 1.389 . S
C396 C395 1.351 . S
C396 H401 0.930 . S
O397 Cu391 1.974 . S
O397 C407 1.282 . S
C398 O399 1.261 . S
C398 O411 1.251 . S
O399 C398 1.261 . S
H400 C394 0.930 . S
H401 C396 0.930 . S
N402 Cu391 1.985 . S
N402 C404 1.335 . S
N402 C405 1.390 . S
N403 C404 1.345 . S
N403 C406 1.336 . S
C404 N402 1.335 . S
C404 N403 1.345 . S
C404 H409 0.930 . S
C405 N402 1.390 . S
C405 C406 1.346 . S
C405 H410 0.930 . S
C406 N403 1.336 . S
C406 C405 1.346 . S
C406 H413 0.929 . S
C407 O397 1.282 . S
C407 O408 1.216 . S
O408 C407 1.216 . S
H409 C404 0.930 . S
H410 C405 0.930 . S
O411 Cu391 1.959 . S
O411 C398 1.251 . S
H412 C395 0.930 . S
H413 C406 0.929 . S
Mn414 O419 2.095 . S
Mn414 O429 2.162 . S
Mn414 O430 2.297 . S
Mn414 O438 2.385 1_455 S
Mn414 O439 2.209 1_455 S
Mn414 O440 2.094 . S
Mn415 O420 2.121 . S
Mn415 N422 2.257 . S
Mn415 N431 2.282 . S
Mn415 O439 2.215 . S
Mn415 O441 2.117 . S
C416 O438 1.234 . S
C416 O439 1.283 . S
C417 O429 1.281 . S
C417 O430 1.236 . S
C418 O440 1.240 . S
C418 O441 1.264 1_455 S
O419 Mn414 2.095 . S
O419 C428 1.250 . S
O420 Mn415 2.121 . S
O420 C428 1.258 1_655 S
C421 N422 1.326 . S
C421 C425 1.460 . S
C421 H427 0.929 . S
N422 Mn415 2.257 . S
N422 C421 1.326 . S
N422 C426 1.362 . S
C423 C424 1.258 . S
C423 C426 1.431 . S
C423 C443 1.449 . S
C424 C423 1.258 . S
C424 C425 1.477 . S
C424 H444 0.931 . S
C425 C421 1.460 . S
C425 C424 1.477 . S
C425 H445 0.930 . S
C426 N422 1.362 . S
C426 C423 1.431 . S
C426 C436 1.476 . S
H427 C421 0.929 . S
C428 O419 1.250 . S
C428 O420 1.258 1_455 S
O429 Mn414 2.162 . S
O429 C417 1.281 . S
O430 Mn414 2.297 . S
O430 C417 1.236 . S
N431 Mn415 2.282 . S
N431 C432 1.328 . S
N431 C436 1.318 . S
C432 N431 1.328 . S
C432 C433 1.457 . S
C432 H437 0.929 . S
C433 C432 1.457 . S
C433 C434 1.291 . S
C433 H446 0.931 . S
C434 C433 1.291 . S
C434 C435 1.373 . S
C434 H447 0.929 . S
C435 C434 1.373 . S
C435 C436 1.396 . S
C435 C442 1.403 . S
C436 C426 1.476 . S
C436 N431 1.318 . S
C436 C435 1.396 . S
H437 C432 0.929 . S
O438 Mn414 2.385 1_655 S
O438 C416 1.234 . S
O439 Mn414 2.209 1_655 S
O439 Mn415 2.215 . S
O439 C416 1.283 . S
O440 Mn414 2.094 . S
O440 C418 1.240 . S
O441 Mn415 2.117 . S
O441 C418 1.264 1_655 S
C442 C435 1.403 . S
C442 C443 1.399 . S
C442 H448 0.929 . S
C443 C423 1.449 . S
C443 C442 1.399 . S
C443 H449 0.930 . S
H444 C424 0.931 . S
H445 C425 0.930 . S
H446 C433 0.931 . S
H447 C434 0.929 . S
H448 C442 0.929 . S
H449 C443 0.930 . S
Mn450 O455 2.095 . S
Mn450 O465 2.162 . S
Mn450 O466 2.297 . S
Mn450 O474 2.385 . S
Mn450 O475 2.209 . S
Mn450 O476 2.094 . S
Mn451 O456 2.121 . S
Mn451 N458 2.257 . S
Mn451 N467 2.282 . S
Mn451 O475 2.215 . S
Mn451 O477 2.117 . S
C452 O474 1.234 . S
C452 O475 1.283 . S
C453 O465 1.281 . S
C453 O466 1.236 . S
C454 O476 1.240 . S
C454 O477 1.264 . S
O455 Mn450 2.095 . S
O455 C464 1.250 . S
O456 Mn451 2.121 . S
O456 C464 1.258 . S
C457 N458 1.326 . S
C457 C461 1.460 . S
C457 H463 0.929 . S
N458 Mn451 2.257 . S
N458 C457 1.326 . S
N458 C462 1.362 . S
C459 C460 1.258 . S
C459 C462 1.431 . S
C459 C479 1.449 . S
C460 C459 1.258 . S
C460 C461 1.477 . S
C460 H480 0.931 . S
C461 C457 1.460 . S
C461 C460 1.477 . S
C461 H481 0.930 . S
C462 N458 1.362 . S
C462 C459 1.431 . S
C462 C472 1.476 . S
H463 C457 0.929 . S
C464 O455 1.250 . S
C464 O456 1.258 . S
O465 Mn450 2.162 . S
O465 C453 1.281 . S
O466 Mn450 2.297 . S
O466 C453 1.236 . S
N467 Mn451 2.282 . S
N467 C468 1.328 . S
N467 C472 1.318 . S
C468 N467 1.328 . S
C468 C469 1.457 . S
C468 H473 0.929 . S
C469 C468 1.457 . S
C469 C470 1.291 . S
C469 H482 0.931 . S
C470 C469 1.291 . S
C470 C471 1.373 . S
C470 H483 0.929 . S
C471 C470 1.373 . S
C471 C472 1.396 . S
C471 C478 1.403 . S
C472 C462 1.476 . S
C472 N467 1.318 . S
C472 C471 1.396 . S
H473 C468 0.929 . S
O474 Mn450 2.385 . S
O474 C452 1.234 . S
O475 Mn450 2.209 . S
O475 Mn451 2.215 . S
O475 C452 1.283 . S
O476 Mn450 2.094 . S
O476 C454 1.240 . S
O477 Mn451 2.117 . S
O477 C454 1.264 . S
C478 C471 1.403 . S
C478 C479 1.399 . S
C478 H484 0.929 . S
C479 C459 1.449 . S
C479 C478 1.399 . S
C479 H485 0.930 . S
H480 C460 0.931 . S
H481 C461 0.930 . S
H482 C469 0.931 . S
H483 C470 0.929 . S
H484 C478 0.929 . S
H485 C479 0.930 . S
Mn486 O491 2.095 . S
Mn486 O501 2.162 . S
Mn486 O502 2.297 . S
Mn486 O510 2.385 . S
Mn486 O511 2.209 . S
Mn486 O512 2.094 . S
Mn487 O492 2.121 . S
Mn487 N494 2.257 . S
Mn487 N503 2.282 . S
Mn487 O511 2.215 . S
Mn487 O513 2.117 . S
C488 O510 1.234 . S
C488 O511 1.283 . S
C489 O501 1.281 . S
C489 O502 1.236 . S
C490 O512 1.240 . S
C490 O513 1.264 . S
O491 Mn486 2.095 . S
O491 C500 1.250 . S
O492 Mn487 2.121 . S
O492 C500 1.258 . S
C493 N494 1.326 . S
C493 C497 1.460 . S
C493 H499 0.929 . S
N494 Mn487 2.257 . S
N494 C493 1.326 . S
N494 C498 1.362 . S
C495 C496 1.258 . S
C495 C498 1.431 . S
C495 C515 1.449 . S
C496 C495 1.258 . S
C496 C497 1.477 . S
C496 H516 0.931 . S
C497 C493 1.460 . S
C497 C496 1.477 . S
C497 H517 0.930 . S
C498 N494 1.362 . S
C498 C495 1.431 . S
C498 C508 1.476 . S
H499 C493 0.929 . S
C500 O491 1.250 . S
C500 O492 1.258 . S
O501 Mn486 2.162 . S
O501 C489 1.281 . S
O502 Mn486 2.297 . S
O502 C489 1.236 . S
N503 Mn487 2.282 . S
N503 C504 1.328 . S
N503 C508 1.318 . S
C504 N503 1.328 . S
C504 C505 1.457 . S
C504 H509 0.929 . S
C505 C504 1.457 . S
C505 C506 1.291 . S
C505 H518 0.931 . S
C506 C505 1.291 . S
C506 C507 1.373 . S
C506 H519 0.929 . S
C507 C506 1.373 . S
C507 C508 1.396 . S
C507 C514 1.403 . S
C508 C498 1.476 . S
C508 N503 1.318 . S
C508 C507 1.396 . S
H509 C504 0.929 . S
O510 Mn486 2.385 . S
O510 C488 1.234 . S
O511 Mn486 2.209 . S
O511 Mn487 2.215 . S
O511 C488 1.283 . S
O512 Mn486 2.094 . S
O512 C490 1.240 . S
O513 Mn487 2.117 . S
O513 C490 1.264 . S
C514 C507 1.403 . S
C514 C515 1.399 . S
C514 H520 0.929 . S
C515 C495 1.449 . S
C515 C514 1.399 . S
C515 H521 0.930 . S
H516 C496 0.931 . S
H517 C497 0.930 . S
H518 C505 0.931 . S
H519 C506 0.929 . S
H520 C514 0.929 . S
H521 C515 0.930 . S
Mn522 O527 2.095 . S
Mn522 O537 2.136 1_455 S
Mn522 O538 2.297 . S
Mn522 O546 2.385 . S
Mn522 O547 2.209 . S
Mn522 O548 2.094 1_455 S
Mn523 O528 2.121 . S
Mn523 N530 2.257 . S
Mn523 N539 2.282 . S
Mn523 O547 2.215 . S
Mn523 O549 2.117 1_455 S
C524 O546 1.234 . S
C524 O547 1.283 . S
C525 O537 1.251 1_455 S
C525 O538 1.236 . S
C526 O548 1.240 . S
C526 O549 1.264 . S
O527 Mn522 2.095 . S
O527 C536 1.250 . S
O528 Mn523 2.121 . S
O528 C536 1.258 . S
C529 N530 1.326 . S
C529 C533 1.460 . S
C529 H535 0.929 . S
N530 Mn523 2.257 . S
N530 C529 1.326 . S
N530 C534 1.362 . S
C531 C532 1.258 . S
C531 C534 1.431 . S
C531 C551 1.449 . S
C532 C531 1.258 . S
C532 C533 1.477 . S
C532 H552 0.931 . S
C533 C529 1.460 . S
C533 C532 1.477 . S
C533 H553 0.930 . S
C534 N530 1.362 . S
C534 C531 1.431 . S
C534 C544 1.476 . S
H535 C529 0.929 . S
C536 O527 1.250 . S
C536 O528 1.258 . S
O537 Mn522 2.136 1_655 S
O537 C525 1.251 1_655 S
O538 Mn522 2.297 . S
O538 C525 1.236 . S
N539 Mn523 2.282 . S
N539 C540 1.328 . S
N539 C544 1.318 . S
C540 N539 1.328 . S
C540 C541 1.457 . S
C540 H545 0.929 . S
C541 C540 1.457 . S
C541 C542 1.291 . S
C541 H554 0.931 . S
C542 C541 1.291 . S
C542 C543 1.373 . S
C542 H555 0.929 . S
C543 C542 1.373 . S
C543 C544 1.396 . S
C543 C550 1.403 . S
C544 C534 1.476 . S
C544 N539 1.318 . S
C544 C543 1.396 . S
H545 C540 0.929 . S
O546 Mn522 2.385 . S
O546 C524 1.234 . S
O547 Mn522 2.209 . S
O547 Mn523 2.215 . S
O547 C524 1.283 . S
O548 Mn522 2.094 1_655 S
O548 C526 1.240 . S
O549 Mn523 2.117 1_655 S
O549 C526 1.264 . S
C550 C543 1.403 . S
C550 C551 1.399 . S
C550 H556 0.929 . S
C551 C531 1.449 . S
C551 C550 1.399 . S
C551 H557 0.930 . S
H552 C532 0.931 . S
H553 C533 0.930 . S
H554 C541 0.931 . S
H555 C542 0.929 . S
H556 C550 0.929 . S
H557 C551 0.930 . S
Mn558 O563 2.095 . S
Mn558 O573 2.162 . S
Mn558 O574 2.297 . S
Mn558 O582 2.385 . S
Mn558 O583 2.209 . S
Mn558 O584 2.094 . S
Mn559 O564 2.121 . S
Mn559 N566 2.257 . S
Mn559 N575 2.282 . S
Mn559 O583 2.215 . S
Mn559 O585 2.117 . S
C560 O582 1.234 . S
C560 O583 1.283 . S
C561 O573 1.281 . S
C561 O574 1.236 . S
C562 O584 1.240 . S
C562 O585 1.264 . S
O563 Mn558 2.095 . S
O563 C572 1.250 . S
O564 Mn559 2.121 . S
O564 C572 1.258 . S
C565 N566 1.326 . S
C565 C569 1.460 . S
C565 H571 0.929 . S
N566 Mn559 2.257 . S
N566 C565 1.326 . S
N566 C570 1.362 . S
C567 C568 1.258 . S
C567 C570 1.431 . S
C567 C587 1.449 . S
C568 C567 1.258 . S
C568 C569 1.477 . S
C568 H588 0.931 . S
C569 C565 1.460 . S
C569 C568 1.477 . S
C569 H589 0.930 . S
C570 N566 1.362 . S
C570 C567 1.431 . S
C570 C580 1.476 . S
H571 C565 0.929 . S
C572 O563 1.250 . S
C572 O564 1.258 . S
O573 Mn558 2.162 . S
O573 C561 1.281 . S
O574 Mn558 2.297 . S
O574 C561 1.236 . S
N575 Mn559 2.282 . S
N575 C576 1.328 . S
N575 C580 1.318 . S
C576 N575 1.328 . S
C576 C577 1.457 . S
C576 H581 0.929 . S
C577 C576 1.457 . S
C577 C578 1.291 . S
C577 H590 0.931 . S
C578 C577 1.291 . S
C578 C579 1.373 . S
C578 H591 0.929 . S
C579 C578 1.373 . S
C579 C580 1.396 . S
C579 C586 1.403 . S
C580 C570 1.476 . S
C580 N575 1.318 . S
C580 C579 1.396 . S
H581 C576 0.929 . S
O582 Mn558 2.385 . S
O582 C560 1.234 . S
O583 Mn558 2.209 . S
O583 Mn559 2.215 . S
O583 C560 1.283 . S
O584 Mn558 2.094 . S
O584 C562 1.240 . S
O585 Mn559 2.117 . S
O585 C562 1.264 . S
C586 C579 1.403 . S
C586 C587 1.399 . S
C586 H592 0.929 . S
C587 C567 1.449 . S
C587 C586 1.399 . S
C587 H593 0.930 . S
H588 C568 0.931 . S
H589 C569 0.930 . S
H590 C577 0.931 . S
H591 C578 0.929 . S
H592 C586 0.929 . S
H593 C587 0.930 . S
Mn594 O599 2.095 . S
Mn594 O609 2.162 . S
Mn594 O610 2.297 1_545 S
Mn594 O618 2.385 . S
Mn594 O619 2.209 1_545 S
Mn594 O620 2.094 . S
Mn595 O600 2.121 . S
Mn595 N602 2.257 1_545 S
Mn595 N611 2.277 . S
Mn595 O619 2.215 1_545 S
Mn595 O621 2.117 . S
C596 O618 1.234 1_565 S
C596 O619 1.283 . S
C597 O609 1.281 . S
C597 O610 1.236 1_545 S
C598 O620 1.240 . S
C598 O621 1.264 . S
O599 Mn594 2.095 . S
O599 C608 1.250 . S
O600 Mn595 2.121 . S
O600 C608 1.258 . S
C601 N602 1.326 . S
C601 C605 1.460 . S
C601 H607 0.929 . S
N602 Mn595 2.257 1_565 S
N602 C601 1.326 . S
N602 C606 1.362 . S
C603 C604 1.258 . S
C603 C606 1.431 . S
C603 C623 1.449 . S
C604 C603 1.258 . S
C604 C605 1.477 . S
C604 H624 0.931 . S
C605 C601 1.460 . S
C605 C604 1.477 . S
C605 H625 0.930 . S
C606 N602 1.362 . S
C606 C603 1.431 . S
C606 C616 1.476 . S
H607 C601 0.929 . S
C608 O599 1.250 . S
C608 O600 1.258 . S
O609 Mn594 2.162 . S
O609 C597 1.281 . S
O610 Mn594 2.297 1_565 S
O610 C597 1.236 1_565 S
N611 Mn595 2.277 . S
N611 C612 1.341 . S
N611 C616 1.308 1_545 S
C612 N611 1.341 . S
C612 C613 1.457 . S
C612 H617 0.929 . S
C613 C612 1.457 . S
C613 C614 1.291 1_545 S
C613 H626 0.931 . S
C614 C613 1.291 1_565 S
C614 C615 1.373 . S
C614 H627 0.929 . S
C615 C614 1.373 . S
C615 C616 1.396 . S
C615 C622 1.403 . S
C616 C606 1.476 . S
C616 N611 1.308 1_565 S
C616 C615 1.396 . S
H617 C612 0.929 . S
O618 Mn594 2.385 . S
O618 C596 1.234 1_545 S
O619 Mn594 2.209 1_565 S
O619 Mn595 2.215 1_565 S
O619 C596 1.283 . S
O620 Mn594 2.094 . S
O620 C598 1.240 . S
O621 Mn595 2.117 . S
O621 C598 1.264 . S
C622 C615 1.403 . S
C622 C623 1.399 . S
C622 H628 0.929 . S
C623 C603 1.449 . S
C623 C622 1.399 . S
C623 H629 0.930 . S
H624 C604 0.931 . S
H625 C605 0.930 . S
H626 C613 0.931 . S
H627 C614 0.929 . S
H628 C622 0.929 . S
H629 C623 0.930 . S
Mn630 O635 2.095 1_545 S
Mn630 O645 2.162 . S
Mn630 O646 2.297 . S
Mn630 O654 2.385 . S
Mn630 O655 2.209 1_545 S
Mn630 O656 2.094 1_545 S
Mn631 O636 2.121 . S
Mn631 N638 2.257 . S
Mn631 N647 2.282 . S
Mn631 O655 2.215 . S
Mn631 O657 2.117 . S
C632 O654 1.234 . S
C632 O655 1.283 1_545 S
C633 O645 1.281 . S
C633 O646 1.236 . S
C634 O656 1.240 . S
C634 O657 1.264 . S
O635 Mn630 2.095 1_565 S
O635 C644 1.250 . S
O636 Mn631 2.121 . S
O636 C644 1.258 . S
C637 N638 1.326 . S
C637 C641 1.460 . S
C637 H643 0.929 . S
N638 Mn631 2.257 . S
N638 C637 1.326 . S
N638 C642 1.362 . S
C639 C640 1.258 . S
C639 C642 1.431 . S
C639 C659 1.449 . S
C640 C639 1.258 . S
C640 C641 1.477 . S
C640 H660 0.931 . S
C641 C637 1.460 . S
C641 C640 1.477 . S
C641 H661 0.930 . S
C642 N638 1.362 . S
C642 C639 1.431 . S
C642 C652 1.476 . S
H643 C637 0.929 . S
C644 O635 1.250 . S
C644 O636 1.258 . S
O645 Mn630 2.162 . S
O645 C633 1.281 . S
O646 Mn630 2.297 . S
O646 C633 1.236 . S
N647 Mn631 2.282 . S
N647 C648 1.328 . S
N647 C652 1.318 . S
C648 N647 1.328 . S
C648 C649 1.457 . S
C648 H653 0.929 . S
C649 C648 1.457 . S
C649 C650 1.291 . S
C649 H662 0.931 . S
C650 C649 1.291 . S
C650 C651 1.373 . S
C650 H663 0.929 . S
C651 C650 1.373 . S
C651 C652 1.396 . S
C651 C658 1.403 . S
C652 C642 1.476 . S
C652 N647 1.318 . S
C652 C651 1.396 . S
H653 C648 0.929 . S
O654 Mn630 2.385 . S
O654 C632 1.234 . S
O655 Mn630 2.209 1_565 S
O655 Mn631 2.215 . S
O655 C632 1.283 1_565 S
O656 Mn630 2.094 1_565 S
O656 C634 1.240 . S
O657 Mn631 2.117 . S
O657 C634 1.264 . S
C658 C651 1.403 . S
C658 C659 1.399 . S
C658 H664 0.929 . S
C659 C639 1.449 . S
C659 C658 1.399 . S
C659 H665 0.930 . S
H660 C640 0.931 . S
H661 C641 0.930 . S
H662 C649 0.931 . S
H663 C650 0.929 . S
H664 C658 0.929 . S
H665 C659 0.930 . S
Mn666 O671 2.095 . S
Mn666 O681 2.162 . S
Mn666 O682 2.297 . S
Mn666 O690 2.385 . S
Mn666 O691 2.209 . S
Mn666 O692 2.094 . S
Mn667 O672 2.121 . S
Mn667 N674 2.257 . S
Mn667 N683 2.282 . S
Mn667 O691 2.215 . S
Mn667 O693 2.117 . S
C668 O690 1.234 . S
C668 O691 1.283 . S
C669 O681 1.281 . S
C669 O682 1.236 . S
C670 O692 1.240 . S
C670 O693 1.264 . S
O671 Mn666 2.095 . S
O671 C680 1.250 . S
O672 Mn667 2.121 . S
O672 C680 1.258 . S
C673 N674 1.326 . S
C673 C677 1.460 1_455 S
C673 H679 0.929 . S
N674 Mn667 2.257 . S
N674 C673 1.326 . S
N674 C678 1.362 1_455 S
C675 C676 1.258 . S
C675 C678 1.431 . S
C675 C695 1.449 . S
C676 C675 1.258 . S
C676 C677 1.477 . S
C676 H696 0.931 . S
C677 C673 1.460 1_655 S
C677 C676 1.477 . S
C677 H697 0.930 . S
C678 N674 1.362 1_655 S
C678 C675 1.431 . S
C678 C688 1.476 . S
H679 C673 0.929 . S
C680 O671 1.250 . S
C680 O672 1.258 . S
O681 Mn666 2.162 . S
O681 C669 1.281 . S
O682 Mn666 2.297 . S
O682 C669 1.236 . S
N683 Mn667 2.282 . S
N683 C684 1.328 . S
N683 C688 1.318 1_455 S
C684 N683 1.328 . S
C684 C685 1.457 1_455 S
C684 H689 0.929 . S
C685 C684 1.457 1_655 S
C685 C686 1.291 . S
C685 H698 0.931 . S
C686 C685 1.291 . S
C686 C687 1.373 . S
C686 H699 0.929 . S
C687 C686 1.373 . S
C687 C688 1.396 . S
C687 C694 1.403 . S
C688 C678 1.476 . S
C688 N683 1.318 1_655 S
C688 C687 1.396 . S
H689 C684 0.929 . S
O690 Mn666 2.385 . S
O690 C668 1.234 . S
O691 Mn666 2.209 . S
O691 Mn667 2.215 . S
O691 C668 1.283 . S
O692 Mn666 2.094 . S
O692 C670 1.240 . S
O693 Mn667 2.117 . S
O693 C670 1.264 . S
C694 C687 1.403 . S
C694 C695 1.399 . S
C694 H700 0.929 . S
C695 C675 1.449 . S
C695 C694 1.399 . S
C695 H701 0.930 . S
H696 C676 0.931 . S
H697 C677 0.930 . S
H698 C685 0.931 . S
H699 C686 0.929 . S
H700 C694 0.929 . S
H701 C695 0.930 . S
Mn702 O707 2.095 . S
Mn702 O717 2.162 . S
Mn702 O718 2.297 . S
Mn702 O726 2.385 . S
Mn702 O727 2.209 . S
Mn702 O728 2.094 . S
Mn703 O708 2.121 . S
Mn703 N710 2.257 . S
Mn703 N719 2.282 . S
Mn703 O727 2.215 . S
Mn703 O729 2.117 . S
C704 O726 1.234 . S
C704 O727 1.283 . S
C705 O717 1.281 . S
C705 O718 1.236 . S
C706 O728 1.240 . S
C706 O729 1.264 . S
O707 Mn702 2.095 . S
O707 C716 1.250 . S
O708 Mn703 2.121 . S
O708 C716 1.258 . S
C709 N710 1.326 . S
C709 C713 1.460 . S
C709 H715 0.929 . S
N710 Mn703 2.257 . S
N710 C709 1.326 . S
N710 C714 1.362 . S
C711 C712 1.258 . S
C711 C714 1.431 . S
C711 C731 1.449 . S
C712 C711 1.258 . S
C712 C713 1.477 . S
C712 H732 0.931 . S
C713 C709 1.460 . S
C713 C712 1.477 . S
C713 H733 0.930 . S
C714 N710 1.362 . S
C714 C711 1.431 . S
C714 C724 1.476 . S
H715 C709 0.929 . S
C716 O707 1.250 . S
C716 O708 1.258 . S
O717 Mn702 2.162 . S
O717 C705 1.281 . S
O718 Mn702 2.297 . S
O718 C705 1.236 . S
N719 Mn703 2.282 . S
N719 C720 1.328 . S
N719 C724 1.318 . S
C720 N719 1.328 . S
C720 C721 1.457 . S
C720 H725 0.929 . S
C721 C720 1.457 . S
C721 C722 1.291 . S
C721 H734 0.931 . S
C722 C721 1.291 . S
C722 C723 1.373 . S
C722 H735 0.929 . S
C723 C722 1.373 . S
C723 C724 1.396 . S
C723 C730 1.403 . S
C724 C714 1.476 . S
C724 N719 1.318 . S
C724 C723 1.396 . S
H725 C720 0.929 . S
O726 Mn702 2.385 . S
O726 C704 1.234 . S
O727 Mn702 2.209 . S
O727 Mn703 2.215 . S
O727 C704 1.283 . S
O728 Mn702 2.094 . S
O728 C706 1.240 . S
O729 Mn703 2.117 . S
O729 C706 1.264 . S
C730 C723 1.403 . S
C730 C731 1.399 . S
C730 H736 0.929 . S
C731 C711 1.449 . S
C731 C730 1.399 . S
C731 H737 0.930 . S
H732 C712 0.931 . S
H733 C713 0.930 . S
H734 C721 0.931 . S
H735 C722 0.929 . S
H736 C730 0.929 . S
H737 C731 0.930 . S
Mn738 O743 2.095 . S
Mn738 O753 2.162 . S
Mn738 O754 2.297 . S
Mn738 O762 2.385 . S
Mn738 O763 2.209 . S
Mn738 O764 2.094 . S
Mn739 O744 2.121 . S
Mn739 N746 2.257 . S
Mn739 N755 2.282 . S
Mn739 O763 2.215 . S
Mn739 O765 2.117 . S
C740 O762 1.234 . S
C740 O763 1.283 . S
C741 O753 1.281 . S
C741 O754 1.236 . S
C742 O764 1.240 . S
C742 O765 1.264 . S
O743 Mn738 2.095 . S
O743 C752 1.250 . S
O744 Mn739 2.121 . S
O744 C752 1.258 . S
C745 N746 1.326 1_556 S
C745 C749 1.460 . S
C745 H751 0.929 . S
N746 Mn739 2.257 . S
N746 C745 1.326 1_554 S
N746 C750 1.362 . S
C747 C748 1.262 . S
C747 C750 1.428 1_556 S
C747 C767 1.448 1_556 S
C748 C747 1.262 . S
C748 C749 1.477 . S
C748 H768 0.931 . S
C749 C745 1.460 . S
C749 C748 1.477 . S
C749 H769 0.930 . S
C750 N746 1.362 . S
C750 C747 1.428 1_554 S
C750 C760 1.476 . S
H751 C745 0.929 . S
C752 O743 1.250 . S
C752 O744 1.258 . S
O753 Mn738 2.162 . S
O753 C741 1.281 . S
O754 Mn738 2.297 . S
O754 C741 1.236 . S
N755 Mn739 2.282 . S
N755 C756 1.328 . S
N755 C760 1.318 . S
C756 N755 1.328 . S
C756 C757 1.457 . S
C756 H761 0.929 . S
C757 C756 1.457 . S
C757 C758 1.291 . S
C757 H770 0.931 . S
C758 C757 1.291 . S
C758 C759 1.373 . S
C758 H771 0.929 . S
C759 C758 1.373 . S
C759 C760 1.396 . S
C759 C766 1.403 . S
C760 C750 1.476 . S
C760 N755 1.318 . S
C760 C759 1.396 . S
H761 C756 0.929 . S
O762 Mn738 2.385 . S
O762 C740 1.234 . S
O763 Mn738 2.209 . S
O763 Mn739 2.215 . S
O763 C740 1.283 . S
O764 Mn738 2.094 . S
O764 C742 1.240 . S
O765 Mn739 2.117 . S
O765 C742 1.264 . S
C766 C759 1.403 . S
C766 C767 1.399 . S
C766 H772 0.929 . S
C767 C747 1.448 1_554 S
C767 C766 1.399 . S
C767 H773 0.930 1_554 S
H768 C748 0.931 . S
H769 C749 0.930 . S
H770 C757 0.931 . S
H771 C758 0.929 . S
H772 C766 0.929 . S
H773 C767 0.930 1_556 S
Mn774 O779 2.095 . S
Mn774 O789 2.162 . S
Mn774 O790 2.297 . S
Mn774 O798 2.385 1_565 S
Mn774 O799 2.209 . S
Mn774 O800 2.094 1_565 S
Mn775 O780 2.121 1_545 S
Mn775 N782 2.257 1_545 S
Mn775 N791 2.282 . S
Mn775 O799 2.215 1_545 S
Mn775 O801 2.117 . S
C776 O798 1.234 1_565 S
C776 O799 1.283 . S
C777 O789 1.281 . S
C777 O790 1.236 . S
C778 O800 1.240 . S
C778 O801 1.264 . S
O779 Mn774 2.095 . S
O779 C788 1.250 . S
O780 Mn775 2.121 1_565 S
O780 C788 1.258 . S
C781 N782 1.326 . S
C781 C785 1.460 . S
C781 H787 0.929 . S
N782 Mn775 2.257 1_565 S
N782 C781 1.326 . S
N782 C786 1.362 . S
C783 C784 1.258 . S
C783 C786 1.431 . S
C783 C803 1.449 . S
C784 C783 1.258 . S
C784 C785 1.477 . S
C784 H804 0.931 . S
C785 C781 1.460 . S
C785 C784 1.477 . S
C785 H805 0.930 . S
C786 N782 1.362 . S
C786 C783 1.431 . S
C786 C796 1.476 1_565 S
H787 C781 0.929 . S
C788 O779 1.250 . S
C788 O780 1.258 . S
O789 Mn774 2.162 . S
O789 C777 1.281 . S
O790 Mn774 2.297 . S
O790 C777 1.236 . S
N791 Mn775 2.282 . S
N791 C792 1.328 . S
N791 C796 1.318 . S
C792 N791 1.328 . S
C792 C793 1.457 . S
C792 H797 0.929 . S
C793 C792 1.457 . S
C793 C794 1.291 . S
C793 H806 0.931 . S
C794 C793 1.291 . S
C794 C795 1.373 . S
C794 H807 0.929 . S
C795 C794 1.373 . S
C795 C796 1.396 . S
C795 C802 1.403 . S
C796 C786 1.476 1_545 S
C796 N791 1.318 . S
C796 C795 1.396 . S
H797 C792 0.929 . S
O798 Mn774 2.385 1_545 S
O798 C776 1.234 1_545 S
O799 Mn774 2.209 . S
O799 Mn775 2.215 1_565 S
O799 C776 1.283 . S
O800 Mn774 2.094 1_545 S
O800 C778 1.240 . S
O801 Mn775 2.117 . S
O801 C778 1.264 . S
C802 C795 1.403 . S
C802 C803 1.399 1_545 S
C802 H808 0.929 . S
C803 C783 1.449 . S
C803 C802 1.399 1_565 S
C803 H809 0.930 . S
H804 C784 0.931 . S
H805 C785 0.930 . S
H806 C793 0.931 . S
H807 C794 0.929 . S
H808 C802 0.929 . S
H809 C803 0.930 . S
Mn810 O815 2.095 . S
Mn810 O825 2.162 . S
Mn810 O826 2.297 . S
Mn810 O834 2.385 . S
Mn810 O835 2.209 . S
Mn810 O836 2.094 . S
Mn811 O816 2.121 . S
Mn811 N818 2.257 1_455 S
Mn811 N827 2.282 1_455 S
Mn811 O835 2.215 . S
Mn811 O837 2.117 . S
C812 O834 1.234 1_655 S
C812 O835 1.283 1_655 S
C813 O825 1.281 . S
C813 O826 1.236 . S
C814 O836 1.240 . S
C814 O837 1.264 . S
O815 Mn810 2.095 . S
O815 C824 1.250 . S
O816 Mn811 2.121 . S
O816 C824 1.258 . S
C817 N818 1.326 . S
C817 C821 1.460 1_554 S
C817 H823 0.932 1_655 S
N818 Mn811 2.257 1_655 S
N818 C817 1.326 . S
N818 C822 1.362 . S
C819 C820 1.263 . S
C819 C822 1.431 . S
C819 C839 1.449 . S
C820 C819 1.263 . S
C820 C821 1.476 1_554 S
C820 H840 0.927 1_554 S
C821 C817 1.460 1_556 S
C821 C820 1.476 1_556 S
C821 H841 0.930 . S
C822 N818 1.362 . S
C822 C819 1.431 . S
C822 C832 1.476 . S
H823 C817 0.932 1_455 S
C824 O815 1.250 . S
C824 O816 1.258 . S
O825 Mn810 2.162 . S
O825 C813 1.281 . S
O826 Mn810 2.297 . S
O826 C813 1.236 . S
N827 Mn811 2.282 1_655 S
N827 C828 1.328 . S
N827 C832 1.318 . S
C828 N827 1.328 . S
C828 C829 1.457 . S
C828 H833 0.929 . S
C829 C828 1.457 . S
C829 C830 1.291 . S
C829 H842 0.931 . S
C830 C829 1.291 . S
C830 C831 1.373 . S
C830 H843 0.929 . S
C831 C830 1.373 . S
C831 C832 1.396 . S
C831 C838 1.403 . S
C832 C822 1.476 . S
C832 N827 1.318 . S
C832 C831 1.396 . S
H833 C828 0.929 . S
O834 Mn810 2.385 . S
O834 C812 1.234 1_455 S
O835 Mn810 2.209 . S
O835 Mn811 2.215 . S
O835 C812 1.283 1_455 S
O836 Mn810 2.094 . S
O836 C814 1.240 . S
O837 Mn811 2.117 . S
O837 C814 1.264 . S
C838 C831 1.403 . S
C838 C839 1.399 . S
C838 H844 0.929 . S
C839 C819 1.449 . S
C839 C838 1.399 . S
C839 H845 0.930 . S
H840 C820 0.927 1_556 S
H841 C821 0.930 . S
H842 C829 0.931 . S
H843 C830 0.929 . S
H844 C838 0.929 . S
H845 C839 0.930 . S
Mn846 O851 2.095 . S
Mn846 O861 2.162 . S
Mn846 O862 2.297 . S
Mn846 O870 2.385 . S
Mn846 O871 2.209 . S
Mn846 O872 2.094 . S
Mn847 O852 2.121 . S
Mn847 N854 2.257 . S
Mn847 N863 2.282 . S
Mn847 O871 2.215 . S
Mn847 O873 2.117 . S
C848 O870 1.234 . S
C848 O871 1.283 . S
C849 O861 1.281 . S
C849 O862 1.236 . S
C850 O872 1.240 . S
C850 O873 1.264 . S
O851 Mn846 2.095 . S
O851 C860 1.250 . S
O852 Mn847 2.121 . S
O852 C860 1.258 . S
C853 N854 1.326 1_554 S
C853 C857 1.460 . S
C853 H859 0.929 . S
N854 Mn847 2.257 . S
N854 C853 1.326 1_556 S
N854 C858 1.362 . S
C855 C856 1.258 . S
C855 C858 1.431 . S
C855 C875 1.449 . S
C856 C855 1.258 . S
C856 C857 1.477 1_556 S
C856 H876 0.931 1_556 S
C857 C853 1.460 . S
C857 C856 1.477 1_554 S
C857 H877 0.930 . S
C858 N854 1.362 . S
C858 C855 1.431 . S
C858 C868 1.476 . S
H859 C853 0.929 . S
C860 O851 1.250 . S
C860 O852 1.258 . S
O861 Mn846 2.162 . S
O861 C849 1.281 . S
O862 Mn846 2.297 . S
O862 C849 1.236 . S
N863 Mn847 2.282 . S
N863 C864 1.328 . S
N863 C868 1.318 . S
C864 N863 1.328 . S
C864 C865 1.457 . S
C864 H869 0.929 . S
C865 C864 1.457 . S
C865 C866 1.291 . S
C865 H878 0.931 . S
C866 C865 1.291 . S
C866 C867 1.373 . S
C866 H879 0.929 . S
C867 C866 1.373 . S
C867 C868 1.396 . S
C867 C874 1.403 . S
C868 C858 1.476 . S
C868 N863 1.318 . S
C868 C867 1.396 . S
H869 C864 0.929 . S
O870 Mn846 2.385 . S
O870 C848 1.234 . S
O871 Mn846 2.209 . S
O871 Mn847 2.215 . S
O871 C848 1.283 . S
O872 Mn846 2.094 . S
O872 C850 1.240 . S
O873 Mn847 2.117 . S
O873 C850 1.264 . S
C874 C867 1.403 . S
C874 C875 1.399 . S
C874 H880 0.929 . S
C875 C855 1.449 . S
C875 C874 1.399 . S
C875 H881 0.930 . S
H876 C856 0.931 1_554 S
H877 C857 0.930 . S
H878 C865 0.931 . S
H879 C866 0.929 . S
H880 C874 0.929 . S
H881 C875 0.930 . S
Mn882 O887 2.095 . S
Mn882 O897 2.162 . S
Mn882 O898 2.297 . S
Mn882 O906 2.385 . S
Mn882 O907 2.209 . S
Mn882 O908 2.094 . S
Mn883 O888 2.121 . S
Mn883 N890 2.257 . S
Mn883 N899 2.282 . S
Mn883 O907 2.215 . S
Mn883 O909 2.117 . S
C884 O906 1.234 . S
C884 O907 1.283 . S
C885 O897 1.281 . S
C885 O898 1.236 . S
C886 O908 1.240 . S
C886 O909 1.264 . S
O887 Mn882 2.095 . S
O887 C896 1.250 . S
O888 Mn883 2.121 . S
O888 C896 1.258 . S
C889 N890 1.326 . S
C889 C893 1.460 . S
C889 H895 0.929 . S
N890 Mn883 2.257 . S
N890 C889 1.326 . S
N890 C894 1.362 . S
C891 C892 1.258 . S
C891 C894 1.431 . S
C891 C911 1.449 . S
C892 C891 1.258 . S
C892 C893 1.477 . S
C892 H912 0.931 . S
C893 C889 1.460 . S
C893 C892 1.477 . S
C893 H913 0.930 . S
C894 N890 1.362 . S
C894 C891 1.431 . S
C894 C904 1.476 . S
H895 C889 0.929 . S
C896 O887 1.250 . S
C896 O888 1.258 . S
O897 Mn882 2.162 . S
O897 C885 1.281 . S
O898 Mn882 2.297 . S
O898 C885 1.236 . S
N899 Mn883 2.282 . S
N899 C900 1.328 1_556 S
N899 C904 1.318 . S
C900 N899 1.328 1_554 S
C900 C901 1.457 . S
C900 H905 0.929 . S
C901 C900 1.457 . S
C901 C902 1.291 . S
C901 H914 0.931 . S
C902 C901 1.291 . S
C902 C903 1.373 1_554 S
C902 H915 0.929 . S
C903 C902 1.373 1_556 S
C903 C904 1.396 . S
C903 C910 1.403 . S
C904 C894 1.476 . S
C904 N899 1.318 . S
C904 C903 1.396 . S
H905 C900 0.929 . S
O906 Mn882 2.385 . S
O906 C884 1.234 . S
O907 Mn882 2.209 . S
O907 Mn883 2.215 . S
O907 C884 1.283 . S
O908 Mn882 2.094 . S
O908 C886 1.240 . S
O909 Mn883 2.117 . S
O909 C886 1.264 . S
C910 C903 1.403 . S
C910 C911 1.399 . S
C910 H916 0.929 . S
C911 C891 1.449 . S
C911 C910 1.399 . S
C911 H917 0.930 . S
H912 C892 0.931 . S
H913 C893 0.930 . S
H914 C901 0.931 . S
H915 C902 0.929 . S
H916 C910 0.929 . S
H917 C911 0.930 . S
Mn918 O923 2.095 . S
Mn918 O933 2.162 . S
Mn918 O934 2.297 1_655 S
Mn918 O942 2.385 1_655 S
Mn918 O943 2.209 1_655 S
Mn918 O944 2.094 . S
Mn919 O924 2.121 . S
Mn919 N926 2.257 . S
Mn919 N935 2.282 . S
Mn919 O943 2.215 1_655 S
Mn919 O945 2.117 . S
C920 O942 1.234 . S
C920 O943 1.283 . S
C921 O933 1.281 . S
C921 O934 1.236 1_655 S
C922 O944 1.240 . S
C922 O945 1.264 . S
O923 Mn918 2.095 . S
O923 C932 1.250 . S
O924 Mn919 2.121 . S
O924 C932 1.258 . S
C925 N926 1.326 . S
C925 C929 1.460 1_655 S
C925 H931 0.929 . S
N926 Mn919 2.257 . S
N926 C925 1.326 . S
N926 C930 1.362 1_655 S
C927 C928 1.258 . S
C927 C930 1.431 . S
C927 C947 1.449 . S
C928 C927 1.258 . S
C928 C929 1.477 . S
C928 H948 0.931 . S
C929 C925 1.460 1_455 S
C929 C928 1.477 . S
C929 H949 0.930 1_556 S
C930 N926 1.362 1_455 S
C930 C927 1.431 . S
C930 C940 1.476 . S
H931 C925 0.929 . S
C932 O923 1.250 . S
C932 O924 1.258 . S
O933 Mn918 2.162 . S
O933 C921 1.281 . S
O934 Mn918 2.297 1_455 S
O934 C921 1.236 1_455 S
N935 Mn919 2.282 . S
N935 C936 1.334 . S
N935 C940 1.318 1_655 S
C936 N935 1.334 . S
C936 C937 1.446 1_655 S
C936 H941 0.934 . S
C937 C936 1.446 1_455 S
C937 C938 1.291 . S
C937 H950 0.931 . S
C938 C937 1.291 . S
C938 C939 1.373 . S
C938 H951 0.929 . S
C939 C938 1.373 . S
C939 C940 1.396 . S
C939 C946 1.403 . S
C940 C930 1.476 . S
C940 N935 1.318 1_455 S
C940 C939 1.396 . S
H941 C936 0.934 . S
O942 Mn918 2.385 1_455 S
O942 C920 1.234 . S
O943 Mn918 2.209 1_455 S
O943 Mn919 2.215 1_455 S
O943 C920 1.283 . S
O944 Mn918 2.094 . S
O944 C922 1.240 . S
O945 Mn919 2.117 . S
O945 C922 1.264 . S
C946 C939 1.403 . S
C946 C947 1.399 . S
C946 H952 0.929 . S
C947 C927 1.449 . S
C947 C946 1.399 . S
C947 H953 0.930 . S
H948 C928 0.931 . S
H949 C929 0.930 1_554 S
H950 C937 0.931 . S
H951 C938 0.929 . S
H952 C946 0.929 . S
H953 C947 0.930 . S
Mn954 O959 2.095 . S
Mn954 O969 2.162 . S
Mn954 O970 2.297 . S
Mn954 O978 2.385 . S
Mn954 O979 2.209 . S
Mn954 O980 2.094 . S
Mn955 O960 2.121 . S
Mn955 N962 2.257 . S
Mn955 N971 2.282 . S
Mn955 O979 2.215 . S
Mn955 O981 2.117 . S
C956 O978 1.234 . S
C956 O979 1.283 . S
C957 O969 1.281 . S
C957 O970 1.236 . S
C958 O980 1.240 . S
C958 O981 1.264 . S
O959 Mn954 2.095 . S
O959 C968 1.250 . S
O960 Mn955 2.121 . S
O960 C968 1.258 . S
C961 N962 1.326 . S
C961 C965 1.460 . S
C961 H967 0.929 . S
N962 Mn955 2.257 . S
N962 C961 1.326 . S
N962 C966 1.362 . S
C963 C964 1.258 . S
C963 C966 1.431 . S
C963 C983 1.449 . S
C964 C963 1.258 . S
C964 C965 1.477 . S
C964 H984 0.931 . S
C965 C961 1.460 . S
C965 C964 1.477 . S
C965 H985 0.930 . S
C966 N962 1.362 . S
C966 C963 1.431 . S
C966 C976 1.476 . S
H967 C961 0.929 . S
C968 O959 1.250 . S
C968 O960 1.258 . S
O969 Mn954 2.162 . S
O969 C957 1.281 . S
O970 Mn954 2.297 . S
O970 C957 1.236 . S
N971 Mn955 2.282 . S
N971 C972 1.328 . S
N971 C976 1.318 . S
C972 N971 1.328 . S
C972 C973 1.457 . S
C972 H977 0.929 . S
C973 C972 1.457 . S
C973 C974 1.291 . S
C973 H986 0.931 . S
C974 C973 1.291 . S
C974 C975 1.373 . S
C974 H987 0.929 . S
C975 C974 1.373 . S
C975 C976 1.396 . S
C975 C982 1.403 . S
C976 C966 1.476 . S
C976 N971 1.318 . S
C976 C975 1.396 . S
H977 C972 0.929 . S
O978 Mn954 2.385 . S
O978 C956 1.234 . S
O979 Mn954 2.209 . S
O979 Mn955 2.215 . S
O979 C956 1.283 . S
O980 Mn954 2.094 . S
O980 C958 1.240 . S
O981 Mn955 2.117 . S
O981 C958 1.264 . S
C982 C975 1.403 . S
C982 C983 1.399 . S
C982 H988 0.929 . S
C983 C963 1.449 . S
C983 C982 1.399 . S
C983 H989 0.930 . S
H984 C964 0.931 . S
H985 C965 0.930 . S
H986 C973 0.931 . S
H987 C974 0.929 . S
H988 C982 0.929 . S
H989 C983 0.930 . S
Mn990 O995 2.095 . S
Mn990 O1005 2.162 . S
Mn990 O1006 2.297 . S
Mn990 O1014 2.385 1_655 S
Mn990 O1015 2.209 . S
Mn990 O1016 2.094 . S
Mn991 O996 2.121 1_455 S
Mn991 N998 2.257 . S
Mn991 N1007 2.282 . S
Mn991 O1015 2.215 1_455 S
Mn991 O1017 2.117 . S
C992 O1014 1.234 . S
C992 O1015 1.283 1_455 S
C993 O1005 1.281 . S
C993 O1006 1.236 . S
C994 O1016 1.240 . S
C994 O1017 1.264 1_655 S
O995 Mn990 2.095 . S
O995 C1004 1.250 . S
O996 Mn991 2.121 1_655 S
O996 C1004 1.258 . S
C997 N998 1.326 . S
C997 C1001 1.460 . S
C997 H1003 0.929 1_455 S
N998 Mn991 2.257 . S
N998 C997 1.326 . S
N998 C1002 1.362 . S
C999 C1000 1.258 . S
C999 C1002 1.431 . S
C999 C1019 1.449 . S
C1000 C999 1.258 . S
C1000 C1001 1.477 . S
C1000 H1020 0.931 . S
C1001 C997 1.460 . S
C1001 C1000 1.477 . S
C1001 H1021 0.930 . S
C1002 N998 1.362 . S
C1002 C999 1.431 . S
C1002 C1012 1.476 . S
H1003 C997 0.929 1_655 S
C1004 O995 1.250 . S
C1004 O996 1.258 . S
O1005 Mn990 2.162 . S
O1005 C993 1.281 . S
O1006 Mn990 2.297 . S
O1006 C993 1.236 . S
N1007 Mn991 2.282 . S
N1007 C1008 1.328 . S
N1007 C1012 1.318 . S
C1008 N1007 1.328 . S
C1008 C1009 1.457 . S
C1008 H1013 0.929 . S
C1009 C1008 1.457 . S
C1009 C1010 1.291 . S
C1009 H1022 0.931 . S
C1010 C1009 1.291 . S
C1010 C1011 1.373 . S
C1010 H1023 0.929 . S
C1011 C1010 1.373 . S
C1011 C1012 1.396 . S
C1011 C1018 1.403 . S
C1012 C1002 1.476 . S
C1012 N1007 1.318 . S
C1012 C1011 1.396 . S
H1013 C1008 0.929 . S
O1014 Mn990 2.385 1_455 S
O1014 C992 1.234 . S
O1015 Mn990 2.209 . S
O1015 Mn991 2.215 1_655 S
O1015 C992 1.283 1_655 S
O1016 Mn990 2.094 . S
O1016 C994 1.240 . S
O1017 Mn991 2.117 . S
O1017 C994 1.264 1_455 S
C1018 C1011 1.403 . S
C1018 C1019 1.399 . S
C1018 H1024 0.929 . S
C1019 C999 1.449 . S
C1019 C1018 1.399 . S
C1019 H1025 0.930 . S
H1020 C1000 0.931 . S
H1021 C1001 0.930 . S
H1022 C1009 0.931 . S
H1023 C1010 0.929 . S
H1024 C1018 0.929 . S
H1025 C1019 0.930 . S
Mn1026 O1031 2.095 . S
Mn1026 O1041 2.162 . S
Mn1026 O1042 2.297 . S
Mn1026 O1050 2.385 . S
Mn1026 O1051 2.209 . S
Mn1026 O1052 2.094 . S
Mn1027 O1032 2.121 . S
Mn1027 N1034 2.257 . S
Mn1027 N1043 2.282 . S
Mn1027 O1051 2.215 . S
Mn1027 O1053 2.117 . S
C1028 O1050 1.234 . S
C1028 O1051 1.283 . S
C1029 O1041 1.281 . S
C1029 O1042 1.236 . S
C1030 O1052 1.240 . S
C1030 O1053 1.264 . S
O1031 Mn1026 2.095 . S
O1031 C1040 1.250 . S
O1032 Mn1027 2.121 . S
O1032 C1040 1.258 . S
C1033 N1034 1.326 . S
C1033 C1037 1.460 . S
C1033 H1039 0.929 . S
N1034 Mn1027 2.257 . S
N1034 C1033 1.326 . S
N1034 C1038 1.362 . S
C1035 C1036 1.258 . S
C1035 C1038 1.431 . S
C1035 C1055 1.449 . S
C1036 C1035 1.258 . S
C1036 C1037 1.477 . S
C1036 H1056 0.931 . S
C1037 C1033 1.460 . S
C1037 C1036 1.477 . S
C1037 H1057 0.930 . S
C1038 N1034 1.362 . S
C1038 C1035 1.431 . S
C1038 C1048 1.476 . S
H1039 C1033 0.929 . S
C1040 O1031 1.250 . S
C1040 O1032 1.258 . S
O1041 Mn1026 2.162 . S
O1041 C1029 1.281 . S
O1042 Mn1026 2.297 . S
O1042 C1029 1.236 . S
N1043 Mn1027 2.282 . S
N1043 C1044 1.328 . S
N1043 C1048 1.318 . S
C1044 N1043 1.328 . S
C1044 C1045 1.457 . S
C1044 H1049 0.929 . S
C1045 C1044 1.457 . S
C1045 C1046 1.291 . S
C1045 H1058 0.931 . S
C1046 C1045 1.291 . S
C1046 C1047 1.373 . S
C1046 H1059 0.929 . S
C1047 C1046 1.373 . S
C1047 C1048 1.396 . S
C1047 C1054 1.403 . S
C1048 C1038 1.476 . S
C1048 N1043 1.318 . S
C1048 C1047 1.396 . S
H1049 C1044 0.929 . S
O1050 Mn1026 2.385 . S
O1050 C1028 1.234 . S
O1051 Mn1026 2.209 . S
O1051 Mn1027 2.215 . S
O1051 C1028 1.283 . S
O1052 Mn1026 2.094 . S
O1052 C1030 1.240 . S
O1053 Mn1027 2.117 . S
O1053 C1030 1.264 . S
C1054 C1047 1.403 . S
C1054 C1055 1.399 . S
C1054 H1060 0.929 . S
C1055 C1035 1.449 . S
C1055 C1054 1.399 . S
C1055 H1061 0.930 . S
H1056 C1036 0.931 . S
H1057 C1037 0.930 . S
H1058 C1045 0.931 . S
H1059 C1046 0.929 . S
H1060 C1054 0.929 . S
H1061 C1055 0.930 . S
C1062 C1063 1.369 . S
C1062 C1064 1.419 . S
C1062 H1066 0.930 . S
C1063 C1062 1.369 . S
C1063 C1072 1.429 . S
C1064 C1062 1.419 . S
C1064 C1065 1.363 . S
C1064 H1067 0.929 . S
C1065 C1064 1.363 . S
C1065 C1071 1.428 . S
H1066 C1062 0.930 . S
H1067 C1064 0.929 . S
S1068 N1069 1.613 . S
S1068 N1070 1.610 . S
N1069 S1068 1.613 . S
N1069 C1072 1.350 . S
N1070 S1068 1.610 . S
N1070 C1071 1.351 . S
C1071 C1065 1.428 . S
C1071 N1070 1.351 . S
C1071 C1072 1.434 . S
C1072 C1063 1.429 . S
C1072 N1069 1.350 . S
C1072 C1071 1.434 . S
C1073 C1074 1.369 . S
C1073 C1075 1.419 . S
C1073 H1077 0.930 . S
C1074 C1073 1.369 . S
C1074 C1083 1.429 . S
C1075 C1073 1.419 . S
C1075 C1076 1.363 . S
C1075 H1078 0.929 . S
C1076 C1075 1.363 . S
C1076 C1082 1.428 . S
H1077 C1073 0.930 . S
H1078 C1075 0.929 . S
S1079 N1080 1.613 . S
S1079 N1081 1.610 . S
N1080 S1079 1.613 . S
N1080 C1083 1.350 1_556 S
N1081 S1079 1.610 . S
N1081 C1082 1.351 1_556 S
C1082 C1076 1.428 . S
C1082 N1081 1.351 1_554 S
C1082 C1083 1.434 . S
C1083 C1074 1.429 . S
C1083 N1080 1.350 1_554 S
C1083 C1082 1.434 . S
C1084 C1085 1.369 1_545 S
C1084 C1086 1.419 . S
C1084 H1088 0.930 . S
C1085 C1084 1.369 1_565 S
C1085 C1094 1.429 . S
C1086 C1084 1.419 . S
C1086 C1087 1.363 1_545 S
C1086 H1089 0.929 . S
C1087 C1086 1.363 1_565 S
C1087 C1093 1.428 . S
H1088 C1084 0.930 . S
H1089 C1086 0.929 . S
S1090 N1091 1.613 . S
S1090 N1092 1.610 . S
N1091 S1090 1.613 . S
N1091 C1094 1.350 . S
N1092 S1090 1.610 . S
N1092 C1093 1.351 . S
C1093 C1087 1.428 . S
C1093 N1092 1.351 . S
C1093 C1094 1.434 . S
C1094 C1085 1.429 . S
C1094 N1091 1.350 . S
C1094 C1093 1.434 . S
C1095 C1096 1.369 . S
C1095 C1097 1.419 . S
C1095 H1099 0.930 . S
C1096 C1095 1.369 . S
C1096 C1105 1.429 . S
C1097 C1095 1.419 . S
C1097 C1098 1.363 . S
C1097 H1100 0.929 . S
C1098 C1097 1.363 . S
C1098 C1104 1.428 . S
H1099 C1095 0.930 . S
H1100 C1097 0.929 . S
S1101 N1102 1.613 . S
S1101 N1103 1.610 . S
N1102 S1101 1.613 . S
N1102 C1105 1.350 . S
N1103 S1101 1.610 . S
N1103 C1104 1.351 . S
C1104 C1098 1.428 . S
C1104 N1103 1.351 . S
C1104 C1105 1.434 . S
C1105 C1096 1.429 . S
C1105 N1102 1.350 . S
C1105 C1104 1.434 . S
C1106 C1107 1.369 . S
C1106 C1108 1.419 1_455 S
C1106 H1110 0.930 . S
C1107 C1106 1.369 . S
C1107 C1116 1.429 . S
C1108 C1106 1.419 1_655 S
C1108 C1109 1.346 1_655 S
C1108 H1111 0.929 . S
C1109 C1108 1.346 1_455 S
C1109 C1115 1.446 . S
H1110 C1106 0.930 . S
H1111 C1108 0.929 . S
S1112 N1113 1.613 . S
S1112 N1114 1.610 . S
N1113 S1112 1.613 . S
N1113 C1116 1.350 . S
N1114 S1112 1.610 . S
N1114 C1115 1.351 . S
C1115 C1109 1.446 . S
C1115 N1114 1.351 . S
C1115 C1116 1.434 . S
C1116 C1107 1.429 . S
C1116 N1113 1.350 . S
C1116 C1115 1.434 . S
C1117 C1118 1.369 . S
C1117 C1119 1.419 . S
C1117 H1121 0.930 . S
C1118 C1117 1.369 . S
C1118 C1127 1.429 . S
C1119 C1117 1.419 . S
C1119 C1120 1.363 . S
C1119 H1122 0.929 . S
C1120 C1119 1.363 . S
C1120 C1126 1.428 . S
H1121 C1117 0.930 . S
H1122 C1119 0.929 . S
S1123 N1124 1.613 . S
S1123 N1125 1.610 . S
N1124 S1123 1.613 . S
N1124 C1127 1.350 . S
N1125 S1123 1.610 . S
N1125 C1126 1.351 . S
C1126 C1120 1.428 . S
C1126 N1125 1.351 . S
C1126 C1127 1.434 . S
C1127 C1118 1.429 . S
C1127 N1124 1.350 . S
C1127 C1126 1.434 . S
C1128 C1129 1.369 . S
C1128 C1130 1.419 . S
C1128 H1132 0.930 1_556 S
C1129 C1128 1.369 . S
C1129 C1138 1.429 . S
C1130 C1128 1.419 . S
C1130 C1131 1.363 . S
C1130 H1133 0.929 1_556 S
C1131 C1130 1.363 . S
C1131 C1137 1.428 . S
H1132 C1128 0.930 1_554 S
H1133 C1130 0.929 1_554 S
S1134 N1135 1.613 . S
S1134 N1136 1.610 . S
N1135 S1134 1.613 . S
N1135 C1138 1.350 . S
N1136 S1134 1.610 . S
N1136 C1137 1.351 . S
C1137 C1131 1.428 . S
C1137 N1136 1.351 . S
C1137 C1138 1.434 . S
C1138 C1129 1.429 . S
C1138 N1135 1.350 . S
C1138 C1137 1.434 . S
C1139 C1140 1.369 . S
C1139 C1141 1.419 . S
C1139 H1143 0.930 . S
C1140 C1139 1.369 . S
C1140 C1149 1.429 1_556 S
C1141 C1139 1.419 . S
C1141 C1142 1.363 . S
C1141 H1144 0.929 . S
C1142 C1141 1.363 . S
C1142 C1148 1.411 1_556 S
H1143 C1139 0.930 . S
H1144 C1141 0.929 . S
S1145 N1146 1.613 . S
S1145 N1147 1.610 . S
N1146 S1145 1.613 . S
N1146 C1149 1.350 . S
N1147 S1145 1.610 . S
N1147 C1148 1.365 . S
C1148 C1142 1.411 1_554 S
C1148 N1147 1.365 . S
C1148 C1149 1.439 . S
C1149 C1140 1.429 1_554 S
C1149 N1146 1.350 . S
C1149 C1148 1.439 . S
C1150 C1151 1.369 . S
C1150 C1152 1.419 . S
C1150 H1154 0.930 1_556 S
C1151 C1150 1.369 . S
C1151 C1160 1.429 . S
C1152 C1150 1.419 . S
C1152 C1153 1.363 . S
C1152 H1155 0.929 . S
C1153 C1152 1.363 . S
C1153 C1159 1.428 . S
H1154 C1150 0.930 1_554 S
H1155 C1152 0.929 . S
S1156 N1157 1.613 . S
S1156 N1158 1.610 . S
N1157 S1156 1.613 . S
N1157 C1160 1.350 . S
N1158 S1156 1.610 . S
N1158 C1159 1.351 . S
C1159 C1153 1.428 . S
C1159 N1158 1.351 . S
C1159 C1160 1.434 . S
C1160 C1151 1.429 . S
C1160 N1157 1.350 . S
C1160 C1159 1.434 . S
C1161 C1162 1.369 . S
C1161 C1163 1.419 . S
C1161 H1165 0.930 . S
C1162 C1161 1.369 . S
C1162 C1171 1.416 1_545 S
C1163 C1161 1.419 . S
C1163 C1164 1.363 . S
C1163 H1166 0.929 . S
C1164 C1163 1.363 . S
C1164 C1170 1.428 1_545 S
H1165 C1161 0.930 . S
H1166 C1163 0.929 . S
S1167 N1168 1.613 . S
S1167 N1169 1.610 . S
N1168 S1167 1.613 . S
N1168 C1171 1.352 . S
N1169 S1167 1.610 . S
N1169 C1170 1.351 . S
C1170 C1164 1.428 1_565 S
C1170 N1169 1.351 . S
C1170 C1171 1.447 . S
C1171 C1162 1.416 1_565 S
C1171 N1168 1.352 . S
C1171 C1170 1.447 . S
C1172 C1173 1.369 . S
C1172 C1174 1.419 . S
C1172 H1176 0.930 . S
C1173 C1172 1.369 . S
C1173 C1182 1.429 . S
C1174 C1172 1.419 . S
C1174 C1175 1.363 . S
C1174 H1177 0.929 . S
C1175 C1174 1.363 . S
C1175 C1181 1.428 . S
H1176 C1172 0.930 . S
H1177 C1174 0.929 . S
S1178 N1179 1.613 . S
S1178 N1180 1.610 . S
N1179 S1178 1.613 . S
N1179 C1182 1.350 . S
N1180 S1178 1.610 . S
N1180 C1181 1.351 . S
C1181 C1175 1.428 . S
C1181 N1180 1.351 . S
C1181 C1182 1.434 . S
C1182 C1173 1.429 . S
C1182 N1179 1.350 . S
C1182 C1181 1.434 . S
C1183 C1184 1.369 . S
C1183 C1185 1.419 . S
C1183 H1187 0.930 . S
C1184 C1183 1.369 . S
C1184 C1193 1.429 . S
C1185 C1183 1.419 . S
C1185 C1186 1.363 . S
C1185 H1188 0.929 . S
C1186 C1185 1.363 . S
C1186 C1192 1.428 . S
H1187 C1183 0.930 . S
H1188 C1185 0.929 . S
S1189 N1190 1.613 . S
S1189 N1191 1.610 . S
N1190 S1189 1.613 . S
N1190 C1193 1.350 . S
N1191 S1189 1.610 . S
N1191 C1192 1.351 . S
C1192 C1186 1.428 . S
C1192 N1191 1.351 . S
C1192 C1193 1.434 . S
C1193 C1184 1.429 . S
C1193 N1190 1.350 . S
C1193 C1192 1.434 . S
C1194 C1195 1.369 . S
C1194 C1196 1.419 . S
C1194 H1198 0.930 . S
C1195 C1194 1.369 . S
C1195 C1204 1.429 . S
C1196 C1194 1.419 . S
C1196 C1197 1.363 . S
C1196 H1199 0.929 . S
C1197 C1196 1.363 . S
C1197 C1203 1.428 . S
H1198 C1194 0.930 . S
H1199 C1196 0.929 . S
S1200 N1201 1.613 . S
S1200 N1202 1.610 . S
N1201 S1200 1.613 . S
N1201 C1204 1.350 . S
N1202 S1200 1.610 . S
N1202 C1203 1.351 . S
C1203 C1197 1.428 . S
C1203 N1202 1.351 . S
C1203 C1204 1.434 . S
C1204 C1195 1.429 . S
C1204 N1201 1.350 . S
C1204 C1203 1.434 . S
C1205 C1206 1.369 1_545 S
C1205 C1207 1.419 . S
C1205 H1209 0.935 1_545 S
C1206 C1205 1.369 1_565 S
C1206 C1215 1.426 . S
C1207 C1205 1.419 . S
C1207 C1208 1.363 . S
C1207 H1210 0.929 . S
C1208 C1207 1.363 . S
C1208 C1214 1.428 . S
H1209 C1205 0.935 1_565 S
H1210 C1207 0.929 . S
S1211 N1212 1.613 1_545 S
S1211 N1213 1.610 . S
N1212 S1211 1.613 1_565 S
N1212 C1215 1.366 . S
N1213 S1211 1.610 . S
N1213 C1214 1.351 . S
C1214 C1208 1.428 . S
C1214 N1213 1.351 . S
C1214 C1215 1.421 1_545 S
C1215 C1206 1.426 . S
C1215 N1212 1.366 . S
C1215 C1214 1.421 1_565 S
C1216 C1217 1.369 . S
C1216 C1218 1.419 . S
C1216 H1220 0.930 . S
C1217 C1216 1.369 . S
C1217 C1226 1.429 . S
C1218 C1216 1.419 . S
C1218 C1219 1.363 . S
C1218 H1221 0.929 . S
C1219 C1218 1.363 . S
C1219 C1225 1.428 . S
H1220 C1216 0.930 . S
H1221 C1218 0.929 . S
S1222 N1223 1.613 . S
S1222 N1224 1.610 . S
N1223 S1222 1.613 . S
N1223 C1226 1.350 . S
N1224 S1222 1.610 . S
N1224 C1225 1.351 . S
C1225 C1219 1.428 . S
C1225 N1224 1.351 . S
C1225 C1226 1.434 . S
C1226 C1217 1.429 . S
C1226 N1223 1.350 . S
C1226 C1225 1.434 . S
C1227 C1228 1.369 . S
C1227 C1229 1.419 . S
C1227 H1231 0.930 . S
C1228 C1227 1.369 . S
C1228 C1237 1.429 . S
C1229 C1227 1.419 . S
C1229 C1230 1.363 . S
C1229 H1232 0.929 . S
C1230 C1229 1.363 . S
C1230 C1236 1.428 . S
H1231 C1227 0.930 . S
H1232 C1229 0.929 . S
S1233 N1234 1.613 . S
S1233 N1235 1.610 . S
N1234 S1233 1.613 . S
N1234 C1237 1.350 . S
N1235 S1233 1.610 . S
N1235 C1236 1.351 . S
C1236 C1230 1.428 . S
C1236 N1235 1.351 . S
C1236 C1237 1.434 . S
C1237 C1228 1.429 . S
C1237 N1234 1.350 . S
C1237 C1236 1.434 . S
C1238 C1239 1.369 . S
C1238 C1240 1.419 . S
C1238 H1242 0.930 . S
C1239 C1238 1.369 . S
C1239 C1248 1.429 . S
C1240 C1238 1.419 . S
C1240 C1241 1.363 . S
C1240 H1243 0.929 . S
C1241 C1240 1.363 . S
C1241 C1247 1.428 . S
H1242 C1238 0.930 . S
H1243 C1240 0.929 . S
S1244 N1245 1.613 . S
S1244 N1246 1.610 . S
N1245 S1244 1.613 . S
N1245 C1248 1.350 . S
N1246 S1244 1.610 . S
N1246 C1247 1.351 . S
C1247 C1241 1.428 . S
C1247 N1246 1.351 . S
C1247 C1248 1.434 . S
C1248 C1239 1.429 . S
C1248 N1245 1.350 . S
C1248 C1247 1.434 . S
C1249 C1250 1.369 . S
C1249 C1251 1.419 . S
C1249 H1253 0.930 . S
C1250 C1249 1.369 . S
C1250 C1259 1.429 . S
C1251 C1249 1.419 . S
C1251 C1252 1.363 . S
C1251 H1254 0.929 . S
C1252 C1251 1.363 . S
C1252 C1258 1.428 . S
H1253 C1249 0.930 . S
H1254 C1251 0.929 . S
S1255 N1256 1.613 . S
S1255 N1257 1.610 . S
N1256 S1255 1.613 . S
N1256 C1259 1.350 . S
N1257 S1255 1.610 . S
N1257 C1258 1.351 . S
C1258 C1252 1.428 . S
C1258 N1257 1.351 . S
C1258 C1259 1.434 . S
C1259 C1250 1.429 . S
C1259 N1256 1.350 . S
C1259 C1258 1.434 . S
C1260 C1261 1.369 . S
C1260 C1262 1.419 . S
C1260 H1264 0.930 . S
C1261 C1260 1.369 . S
C1261 C1270 1.429 1_565 S
C1262 C1260 1.419 . S
C1262 C1263 1.363 1_565 S
C1262 H1265 0.929 . S
C1263 C1262 1.363 1_545 S
C1263 C1269 1.428 . S
H1264 C1260 0.930 . S
H1265 C1262 0.929 . S
S1266 N1267 1.613 . S
S1266 N1268 1.610 . S
N1267 S1266 1.613 . S
N1267 C1270 1.350 . S
N1268 S1266 1.610 . S
N1268 C1269 1.351 . S
C1269 C1263 1.428 . S
C1269 N1268 1.351 . S
C1269 C1270 1.434 . S
C1270 C1261 1.429 1_545 S
C1270 N1267 1.350 . S
C1270 C1269 1.434 . S
C1271 C1272 1.369 . S
C1271 C1273 1.419 . S
C1271 H1275 0.930 . S
C1272 C1271 1.369 . S
C1272 C1281 1.429 . S
C1273 C1271 1.419 . S
C1273 C1274 1.363 . S
C1273 H1276 0.929 . S
C1274 C1273 1.363 . S
C1274 C1280 1.428 . S
H1275 C1271 0.930 . S
H1276 C1273 0.929 . S
S1277 N1278 1.613 . S
S1277 N1279 1.610 . S
N1278 S1277 1.613 . S
N1278 C1281 1.350 . S
N1279 S1277 1.610 . S
N1279 C1280 1.351 . S
C1280 C1274 1.428 . S
C1280 N1279 1.351 . S
C1280 C1281 1.434 . S
C1281 C1272 1.429 . S
C1281 N1278 1.350 . S
C1281 C1280 1.434 . S
C1282 C1283 1.369 . S
C1282 C1284 1.419 . S
C1282 H1286 0.930 . S
C1283 C1282 1.369 . S
C1283 C1292 1.429 . S
C1284 C1282 1.419 . S
C1284 C1285 1.363 . S
C1284 H1287 0.929 . S
C1285 C1284 1.363 . S
C1285 C1291 1.428 . S
H1286 C1282 0.930 . S
H1287 C1284 0.929 . S
S1288 N1289 1.613 . S
S1288 N1290 1.610 . S
N1289 S1288 1.613 . S
N1289 C1292 1.350 . S
N1290 S1288 1.610 . S
N1290 C1291 1.351 . S
C1291 C1285 1.428 . S
C1291 N1290 1.351 . S
C1291 C1292 1.434 . S
C1292 C1283 1.429 . S
C1292 N1289 1.350 . S
C1292 C1291 1.434 . S
C1293 C1294 1.369 . S
C1293 C1295 1.419 . S
C1293 H1297 0.930 . S
C1294 C1293 1.369 . S
C1294 C1303 1.429 . S
C1295 C1293 1.419 . S
C1295 C1296 1.363 . S
C1295 H1298 0.929 . S
C1296 C1295 1.363 . S
C1296 C1302 1.428 . S
H1297 C1293 0.930 . S
H1298 C1295 0.929 . S
S1299 N1300 1.613 . S
S1299 N1301 1.610 . S
N1300 S1299 1.613 . S
N1300 C1303 1.350 . S
N1301 S1299 1.610 . S
N1301 C1302 1.351 . S
C1302 C1296 1.428 . S
C1302 N1301 1.351 . S
C1302 C1303 1.434 . S
C1303 C1294 1.429 . S
C1303 N1300 1.350 . S
C1303 C1302 1.434 . S
C1304 C1305 1.369 . S
C1304 C1306 1.419 . S
C1304 H1308 0.930 . S
C1305 C1304 1.369 . S
C1305 C1314 1.429 1_565 S
C1306 C1304 1.419 . S
C1306 C1307 1.363 1_565 S
C1306 H1309 0.929 . S
C1307 C1306 1.363 1_545 S
C1307 C1313 1.428 . S
H1308 C1304 0.930 . S
H1309 C1306 0.929 . S
S1310 N1311 1.613 . S
S1310 N1312 1.610 . S
N1311 S1310 1.613 . S
N1311 C1314 1.350 . S
N1312 S1310 1.610 . S
N1312 C1313 1.351 . S
C1313 C1307 1.428 . S
C1313 N1312 1.351 . S
C1313 C1314 1.434 . S
C1314 C1305 1.429 1_545 S
C1314 N1311 1.350 . S
C1314 C1313 1.434 . S
C1315 C1316 1.369 . S
C1315 C1317 1.419 . S
C1315 H1319 0.930 . S
C1316 C1315 1.369 . S
C1316 C1325 1.429 . S
C1317 C1315 1.419 . S
C1317 C1318 1.363 . S
C1317 H1320 0.929 . S
C1318 C1317 1.363 . S
C1318 C1324 1.428 . S
H1319 C1315 0.930 . S
H1320 C1317 0.929 . S
S1321 N1322 1.613 . S
S1321 N1323 1.610 . S
N1322 S1321 1.613 . S
N1322 C1325 1.350 . S
N1323 S1321 1.610 . S
N1323 C1324 1.351 . S
C1324 C1318 1.428 . S
C1324 N1323 1.351 . S
C1324 C1325 1.434 . S
C1325 C1316 1.429 . S
C1325 N1322 1.350 . S
C1325 C1324 1.434 . S
C1326 C1327 1.369 . S
C1326 C1328 1.419 . S
C1326 H1330 0.930 . S
C1327 C1326 1.369 . S
C1327 C1336 1.429 . S
C1328 C1326 1.419 . S
C1328 C1329 1.363 . S
C1328 H1331 0.929 . S
C1329 C1328 1.363 . S
C1329 C1335 1.428 . S
H1330 C1326 0.930 . S
H1331 C1328 0.929 . S
S1332 N1333 1.613 . S
S1332 N1334 1.610 . S
N1333 S1332 1.613 . S
N1333 C1336 1.350 . S
N1334 S1332 1.610 . S
N1334 C1335 1.351 . S
C1335 C1329 1.428 . S
C1335 N1334 1.351 . S
C1335 C1336 1.434 . S
C1336 C1327 1.429 . S
C1336 N1333 1.350 . S
C1336 C1335 1.434 . S
C1337 C1338 1.369 . S
C1337 C1339 1.419 . S
C1337 H1341 0.930 . S
C1338 C1337 1.369 . S
C1338 C1347 1.429 . S
C1339 C1337 1.419 . S
C1339 C1340 1.363 . S
C1339 H1342 0.929 . S
C1340 C1339 1.363 . S
C1340 C1346 1.428 . S
H1341 C1337 0.930 . S
H1342 C1339 0.929 . S
S1343 N1344 1.613 . S
S1343 N1345 1.610 . S
N1344 S1343 1.613 . S
N1344 C1347 1.350 . S
N1345 S1343 1.610 . S
N1345 C1346 1.351 . S
C1346 C1340 1.428 . S
C1346 N1345 1.351 . S
C1346 C1347 1.434 . S
C1347 C1338 1.429 . S
C1347 N1344 1.350 . S
C1347 C1346 1.434 . S
C1348 C1349 1.369 . S
C1348 C1350 1.419 . S
C1348 H1352 0.930 . S
C1349 C1348 1.369 . S
C1349 C1358 1.429 . S
C1350 C1348 1.419 . S
C1350 C1351 1.363 . S
C1350 H1353 0.929 . S
C1351 C1350 1.363 . S
C1351 C1357 1.428 . S
H1352 C1348 0.930 . S
H1353 C1350 0.929 . S
S1354 N1355 1.613 . S
S1354 N1356 1.610 . S
N1355 S1354 1.613 . S
N1355 C1358 1.350 . S
N1356 S1354 1.610 . S
N1356 C1357 1.351 . S
C1357 C1351 1.428 . S
C1357 N1356 1.351 . S
C1357 C1358 1.434 . S
C1358 C1349 1.429 . S
C1358 N1355 1.350 . S
C1358 C1357 1.434 . S
C1359 C1360 1.369 . S
C1359 C1361 1.419 . S
C1359 H1363 0.930 . S
C1360 C1359 1.369 . S
C1360 C1369 1.429 . S
C1361 C1359 1.419 . S
C1361 C1362 1.363 . S
C1361 H1364 0.929 . S
C1362 C1361 1.363 . S
C1362 C1368 1.428 . S
H1363 C1359 0.930 . S
H1364 C1361 0.929 . S
S1365 N1366 1.613 . S
S1365 N1367 1.610 . S
N1366 S1365 1.613 . S
N1366 C1369 1.350 . S
N1367 S1365 1.610 . S
N1367 C1368 1.351 . S
C1368 C1362 1.428 . S
C1368 N1367 1.351 . S
C1368 C1369 1.434 . S
C1369 C1360 1.429 . S
C1369 N1366 1.350 . S
C1369 C1368 1.434 . S
C1370 C1371 1.369 . S
C1370 C1372 1.419 . S
C1370 H1374 0.930 . S
C1371 C1370 1.369 . S
C1371 C1380 1.429 . S
C1372 C1370 1.419 . S
C1372 C1373 1.363 . S
C1372 H1375 0.929 . S
C1373 C1372 1.363 . S
C1373 C1379 1.428 . S
H1374 C1370 0.930 . S
H1375 C1372 0.929 . S
S1376 N1377 1.613 . S
S1376 N1378 1.610 . S
N1377 S1376 1.613 . S
N1377 C1380 1.350 . S
N1378 S1376 1.610 . S
N1378 C1379 1.351 . S
C1379 C1373 1.428 . S
C1379 N1378 1.351 . S
C1379 C1380 1.434 . S
C1380 C1371 1.429 . S
C1380 N1377 1.350 . S
C1380 C1379 1.434 . S
C1381 C1382 1.369 . S
C1381 C1383 1.419 . S
C1381 H1385 0.930 . S
C1382 C1381 1.369 . S
C1382 C1391 1.429 . S
C1383 C1381 1.419 . S
C1383 C1384 1.363 . S
C1383 H1386 0.929 . S
C1384 C1383 1.363 . S
C1384 C1390 1.428 . S
H1385 C1381 0.930 . S
H1386 C1383 0.929 . S
S1387 N1388 1.613 . S
S1387 N1389 1.610 . S
N1388 S1387 1.613 . S
N1388 C1391 1.350 . S
N1389 S1387 1.610 . S
N1389 C1390 1.351 . S
C1390 C1384 1.428 . S
C1390 N1389 1.351 . S
C1390 C1391 1.434 . S
C1391 C1382 1.429 . S
C1391 N1388 1.350 . S
C1391 C1390 1.434 . S
C1392 C1393 1.369 . S
C1392 C1394 1.419 . S
C1392 H1396 0.930 . S
C1393 C1392 1.369 . S
C1393 C1402 1.429 . S
C1394 C1392 1.419 . S
C1394 C1395 1.363 . S
C1394 H1397 0.929 . S
C1395 C1394 1.363 . S
C1395 C1401 1.428 . S
H1396 C1392 0.930 . S
H1397 C1394 0.929 . S
S1398 N1399 1.613 . S
S1398 N1400 1.610 . S
N1399 S1398 1.613 . S
N1399 C1402 1.350 . S
N1400 S1398 1.610 . S
N1400 C1401 1.351 . S
C1401 C1395 1.428 . S
C1401 N1400 1.351 . S
C1401 C1402 1.434 . S
C1402 C1393 1.429 . S
C1402 N1399 1.350 . S
C1402 C1401 1.434 . S
C1403 C1404 1.369 . S
C1403 C1405 1.419 . S
C1403 H1407 0.930 . S
C1404 C1403 1.369 . S
C1404 C1413 1.429 . S
C1405 C1403 1.419 . S
C1405 C1406 1.363 . S
C1405 H1408 0.929 . S
C1406 C1405 1.363 . S
C1406 C1412 1.428 . S
H1407 C1403 0.930 . S
H1408 C1405 0.929 . S
S1409 N1410 1.613 . S
S1409 N1411 1.610 . S
N1410 S1409 1.613 . S
N1410 C1413 1.350 . S
N1411 S1409 1.610 . S
N1411 C1412 1.351 . S
C1412 C1406 1.428 . S
C1412 N1411 1.351 . S
C1412 C1413 1.434 . S
C1413 C1404 1.429 . S
C1413 N1410 1.350 . S
C1413 C1412 1.434 . S
C1414 C1415 1.369 . S
C1414 C1416 1.419 . S
C1414 H1418 0.930 . S
C1415 C1414 1.369 . S
C1415 C1424 1.429 . S
C1416 C1414 1.419 . S
C1416 C1417 1.363 . S
C1416 H1419 0.929 . S
C1417 C1416 1.363 . S
C1417 C1423 1.428 . S
H1418 C1414 0.930 . S
H1419 C1416 0.929 . S
S1420 N1421 1.613 . S
S1420 N1422 1.610 . S
N1421 S1420 1.613 . S
N1421 C1424 1.350 . S
N1422 S1420 1.610 . S
N1422 C1423 1.351 . S
C1423 C1417 1.428 . S
C1423 N1422 1.351 . S
C1423 C1424 1.434 . S
C1424 C1415 1.429 . S
C1424 N1421 1.350 . S
C1424 C1423 1.434 . S
C1425 C1426 1.369 . S
C1425 C1427 1.419 . S
C1425 H1429 0.930 . S
C1426 C1425 1.369 . S
C1426 C1435 1.429 . S
C1427 C1425 1.419 . S
C1427 C1428 1.363 . S
C1427 H1430 0.929 . S
C1428 C1427 1.363 . S
C1428 C1434 1.428 . S
H1429 C1425 0.930 . S
H1430 C1427 0.929 . S
S1431 N1432 1.613 . S
S1431 N1433 1.610 . S
N1432 S1431 1.613 . S
N1432 C1435 1.350 . S
N1433 S1431 1.610 . S
N1433 C1434 1.351 . S
C1434 C1428 1.428 . S
C1434 N1433 1.351 . S
C1434 C1435 1.434 . S
C1435 C1426 1.429 . S
C1435 N1432 1.350 . S
C1435 C1434 1.434 . S
C1436 C1437 1.369 . S
C1436 C1438 1.419 . S
C1436 H1440 0.930 . S
C1437 C1436 1.369 . S
C1437 C1446 1.429 . S
C1438 C1436 1.419 . S
C1438 C1439 1.363 . S
C1438 H1441 0.929 . S
C1439 C1438 1.363 . S
C1439 C1445 1.428 . S
H1440 C1436 0.930 . S
H1441 C1438 0.929 . S
S1442 N1443 1.613 . S
S1442 N1444 1.610 . S
N1443 S1442 1.613 . S
N1443 C1446 1.350 . S
N1444 S1442 1.610 . S
N1444 C1445 1.351 . S
C1445 C1439 1.428 . S
C1445 N1444 1.351 . S
C1445 C1446 1.434 . S
C1446 C1437 1.429 . S
C1446 N1443 1.350 . S
C1446 C1445 1.434 . S
C1447 C1448 1.369 . S
C1447 C1449 1.419 . S
C1447 H1451 0.930 . S
C1448 C1447 1.369 . S
C1448 C1457 1.429 . S
C1449 C1447 1.419 . S
C1449 C1450 1.363 . S
C1449 H1452 0.929 . S
C1450 C1449 1.363 . S
C1450 C1456 1.428 . S
H1451 C1447 0.930 . S
H1452 C1449 0.929 . S
S1453 N1454 1.613 . S
S1453 N1455 1.610 . S
N1454 S1453 1.613 . S
N1454 C1457 1.350 . S
N1455 S1453 1.610 . S
N1455 C1456 1.351 . S
C1456 C1450 1.428 . S
C1456 N1455 1.351 . S
C1456 C1457 1.434 . S
C1457 C1448 1.429 . S
C1457 N1454 1.350 . S
C1457 C1456 1.434 . S
C1458 C1459 1.369 . S
C1458 C1460 1.419 . S
C1458 H1462 0.930 . S
C1459 C1458 1.369 . S
C1459 C1468 1.429 . S
C1460 C1458 1.419 . S
C1460 C1461 1.363 . S
C1460 H1463 0.929 . S
C1461 C1460 1.363 . S
C1461 C1467 1.428 . S
H1462 C1458 0.930 . S
H1463 C1460 0.929 . S
S1464 N1465 1.613 . S
S1464 N1466 1.610 . S
N1465 S1464 1.613 . S
N1465 C1468 1.350 . S
N1466 S1464 1.610 . S
N1466 C1467 1.351 . S
C1467 C1461 1.428 . S
C1467 N1466 1.351 . S
C1467 C1468 1.434 . S
C1468 C1459 1.429 . S
C1468 N1465 1.350 . S
C1468 C1467 1.434 . S
C1469 C1470 1.369 . S
C1469 C1471 1.419 . S
C1469 H1473 0.930 . S
C1470 C1469 1.369 . S
C1470 C1479 1.429 . S
C1471 C1469 1.419 . S
C1471 C1472 1.363 . S
C1471 H1474 0.929 . S
C1472 C1471 1.363 . S
C1472 C1478 1.428 . S
H1473 C1469 0.930 . S
H1474 C1471 0.929 . S
S1475 N1476 1.613 . S
S1475 N1477 1.610 . S
N1476 S1475 1.613 . S
N1476 C1479 1.350 . S
N1477 S1475 1.610 . S
N1477 C1478 1.351 . S
C1478 C1472 1.428 . S
C1478 N1477 1.351 . S
C1478 C1479 1.434 . S
C1479 C1470 1.429 . S
C1479 N1476 1.350 . S
C1479 C1478 1.434 . S
C1480 C1481 1.369 . S
C1480 C1482 1.419 . S
C1480 H1484 0.930 . S
C1481 C1480 1.369 . S
C1481 C1490 1.429 1_565 S
C1482 C1480 1.419 . S
C1482 C1483 1.363 1_565 S
C1482 H1485 0.929 . S
C1483 C1482 1.363 1_545 S
C1483 C1489 1.428 . S
H1484 C1480 0.930 . S
H1485 C1482 0.929 . S
S1486 N1487 1.613 . S
S1486 N1488 1.610 . S
N1487 S1486 1.613 . S
N1487 C1490 1.350 . S
N1488 S1486 1.610 . S
N1488 C1489 1.351 . S
C1489 C1483 1.428 . S
C1489 N1488 1.351 . S
C1489 C1490 1.434 . S
C1490 C1481 1.429 1_545 S
C1490 N1487 1.350 . S
C1490 C1489 1.434 . S
C1491 C1492 1.369 . S
C1491 C1493 1.419 . S
C1491 H1495 0.930 . S
C1492 C1491 1.369 . S
C1492 C1501 1.429 . S
C1493 C1491 1.419 . S
C1493 C1494 1.363 . S
C1493 H1496 0.929 . S
C1494 C1493 1.363 . S
C1494 C1500 1.428 . S
H1495 C1491 0.930 . S
H1496 C1493 0.929 . S
S1497 N1498 1.613 . S
S1497 N1499 1.610 . S
N1498 S1497 1.613 . S
N1498 C1501 1.350 . S
N1499 S1497 1.610 . S
N1499 C1500 1.351 . S
C1500 C1494 1.428 . S
C1500 N1499 1.351 . S
C1500 C1501 1.434 . S
C1501 C1492 1.429 . S
C1501 N1498 1.350 . S
C1501 C1500 1.434 . S
C1502 C1503 1.369 . S
C1502 C1504 1.419 . S
C1502 H1506 0.930 . S
C1503 C1502 1.369 . S
C1503 C1512 1.429 . S
C1504 C1502 1.419 . S
C1504 C1505 1.363 . S
C1504 H1507 0.929 . S
C1505 C1504 1.363 . S
C1505 C1511 1.428 . S
H1506 C1502 0.930 . S
H1507 C1504 0.929 . S
S1508 N1509 1.613 . S
S1508 N1510 1.610 . S
N1509 S1508 1.613 . S
N1509 C1512 1.350 . S
N1510 S1508 1.610 . S
N1510 C1511 1.351 . S
C1511 C1505 1.428 . S
C1511 N1510 1.351 . S
C1511 C1512 1.434 . S
C1512 C1503 1.429 . S
C1512 N1509 1.350 . S
C1512 C1511 1.434 . S
C1513 C1514 1.369 . S
C1513 C1515 1.419 . S
C1513 H1517 0.930 . S
C1514 C1513 1.369 . S
C1514 C1523 1.429 . S
C1515 C1513 1.419 . S
C1515 C1516 1.363 . S
C1515 H1518 0.929 . S
C1516 C1515 1.363 . S
C1516 C1522 1.428 . S
H1517 C1513 0.930 . S
H1518 C1515 0.929 . S
S1519 N1520 1.613 . S
S1519 N1521 1.610 . S
N1520 S1519 1.613 . S
N1520 C1523 1.350 . S
N1521 S1519 1.610 . S
N1521 C1522 1.351 . S
C1522 C1516 1.428 . S
C1522 N1521 1.351 . S
C1522 C1523 1.434 . S
C1523 C1514 1.429 . S
C1523 N1520 1.350 . S
C1523 C1522 1.434 . S
C1524 C1525 1.369 . S
C1524 C1526 1.419 . S
C1524 H1528 0.930 . S
C1525 C1524 1.369 . S
C1525 C1534 1.429 . S
C1526 C1524 1.419 . S
C1526 C1527 1.363 . S
C1526 H1529 0.929 . S
C1527 C1526 1.363 . S
C1527 C1533 1.428 . S
H1528 C1524 0.930 . S
H1529 C1526 0.929 . S
S1530 N1531 1.613 . S
S1530 N1532 1.610 . S
N1531 S1530 1.613 . S
N1531 C1534 1.350 . S
N1532 S1530 1.610 . S
N1532 C1533 1.351 . S
C1533 C1527 1.428 . S
C1533 N1532 1.351 . S
C1533 C1534 1.434 . S
C1534 C1525 1.429 . S
C1534 N1531 1.350 . S
C1534 C1533 1.434 . S
C1535 C1536 1.369 . S
C1535 C1537 1.419 . S
C1535 H1539 0.930 . S
C1536 C1535 1.369 . S
C1536 C1545 1.429 . S
C1537 C1535 1.419 . S
C1537 C1538 1.363 . S
C1537 H1540 0.929 . S
C1538 C1537 1.363 . S
C1538 C1544 1.428 . S
H1539 C1535 0.930 . S
H1540 C1537 0.929 . S
S1541 N1542 1.613 . S
S1541 N1543 1.610 . S
N1542 S1541 1.613 . S
N1542 C1545 1.350 . S
N1543 S1541 1.610 . S
N1543 C1544 1.351 . S
C1544 C1538 1.428 . S
C1544 N1543 1.351 . S
C1544 C1545 1.434 . S
C1545 C1536 1.429 . S
C1545 N1542 1.350 . S
C1545 C1544 1.434 . S
C1546 C1547 1.369 . S
C1546 C1548 1.419 . S
C1546 H1550 0.930 . S
C1547 C1546 1.369 . S
C1547 C1556 1.429 . S
C1548 C1546 1.419 . S
C1548 C1549 1.363 . S
C1548 H1551 0.929 . S
C1549 C1548 1.363 . S
C1549 C1555 1.428 . S
H1550 C1546 0.930 . S
H1551 C1548 0.929 . S
S1552 N1553 1.613 . S
S1552 N1554 1.610 1_565 S
N1553 S1552 1.613 . S
N1553 C1556 1.350 1_565 S
N1554 S1552 1.610 1_545 S
N1554 C1555 1.351 . S
C1555 C1549 1.428 . S
C1555 N1554 1.351 . S
C1555 C1556 1.434 . S
C1556 C1547 1.429 . S
C1556 N1553 1.350 1_545 S
C1556 C1555 1.434 . S
C1557 C1558 1.369 . S
C1557 C1559 1.419 . S
C1557 H1561 0.930 . S
C1558 C1557 1.369 . S
C1558 C1567 1.429 . S
C1559 C1557 1.419 . S
C1559 C1560 1.363 . S
C1559 H1562 0.929 . S
C1560 C1559 1.363 . S
C1560 C1566 1.428 . S
H1561 C1557 0.930 . S
H1562 C1559 0.929 . S
S1563 N1564 1.613 . S
S1563 N1565 1.610 . S
N1564 S1563 1.613 . S
N1564 C1567 1.350 . S
N1565 S1563 1.610 . S
N1565 C1566 1.351 . S
C1566 C1560 1.428 . S
C1566 N1565 1.351 . S
C1566 C1567 1.434 . S
C1567 C1558 1.429 . S
C1567 N1564 1.350 . S
C1567 C1566 1.434 . S
C1568 C1569 1.369 . S
C1568 C1570 1.419 . S
C1568 H1572 0.930 . S
C1569 C1568 1.369 . S
C1569 C1578 1.429 1_455 S
C1570 C1568 1.419 . S
C1570 C1571 1.363 . S
C1570 H1573 0.929 . S
C1571 C1570 1.363 . S
C1571 C1577 1.428 1_455 S
H1572 C1568 0.930 . S
H1573 C1570 0.929 . S
S1574 N1575 1.613 . S
S1574 N1576 1.610 . S
N1575 S1574 1.613 . S
N1575 C1578 1.350 . S
N1576 S1574 1.610 . S
N1576 C1577 1.351 . S
C1577 C1571 1.428 1_655 S
C1577 N1576 1.351 . S
C1577 C1578 1.434 . S
C1578 C1569 1.429 1_655 S
C1578 N1575 1.350 . S
C1578 C1577 1.434 . S
C1579 C1580 1.369 . S
C1579 C1581 1.419 . S
C1579 H1583 0.930 . S
C1580 C1579 1.369 . S
C1580 C1589 1.429 . S
C1581 C1579 1.419 . S
C1581 C1582 1.363 . S
C1581 H1584 0.929 . S
C1582 C1581 1.363 . S
C1582 C1588 1.428 . S
H1583 C1579 0.930 . S
H1584 C1581 0.929 . S
S1585 N1586 1.613 . S
S1585 N1587 1.610 . S
N1586 S1585 1.613 . S
N1586 C1589 1.350 . S
N1587 S1585 1.610 . S
N1587 C1588 1.351 . S
C1588 C1582 1.428 . S
C1588 N1587 1.351 . S
C1588 C1589 1.434 . S
C1589 C1580 1.429 . S
C1589 N1586 1.350 . S
C1589 C1588 1.434 . S
C1590 C1591 1.369 . S
C1590 C1592 1.419 . S
C1590 H1594 0.930 . S
C1591 C1590 1.369 . S
C1591 C1600 1.429 . S
C1592 C1590 1.419 . S
C1592 C1593 1.363 . S
C1592 H1595 0.929 . S
C1593 C1592 1.363 . S
C1593 C1599 1.428 . S
H1594 C1590 0.930 . S
H1595 C1592 0.929 . S
S1596 N1597 1.613 . S
S1596 N1598 1.610 . S
N1597 S1596 1.613 . S
N1597 C1600 1.350 . S
N1598 S1596 1.610 . S
N1598 C1599 1.351 . S
C1599 C1593 1.428 . S
C1599 N1598 1.351 . S
C1599 C1600 1.434 . S
C1600 C1591 1.429 . S
C1600 N1597 1.350 . S
C1600 C1599 1.434 . S
C1601 C1602 1.369 . S
C1601 C1603 1.419 . S
C1601 H1605 0.930 . S
C1602 C1601 1.369 . S
C1602 C1611 1.429 . S
C1603 C1601 1.419 . S
C1603 C1604 1.363 . S
C1603 H1606 0.929 . S
C1604 C1603 1.363 . S
C1604 C1610 1.428 . S
H1605 C1601 0.930 . S
H1606 C1603 0.929 . S
S1607 N1608 1.613 . S
S1607 N1609 1.610 . S
N1608 S1607 1.613 . S
N1608 C1611 1.350 . S
N1609 S1607 1.610 . S
N1609 C1610 1.351 . S
C1610 C1604 1.428 . S
C1610 N1609 1.351 . S
C1610 C1611 1.434 . S
C1611 C1602 1.429 . S
C1611 N1608 1.350 . S
C1611 C1610 1.434 . S
C1612 C1613 1.369 . S
C1612 C1614 1.419 . S
C1612 H1616 0.930 . S
C1613 C1612 1.369 . S
C1613 C1622 1.429 . S
C1614 C1612 1.419 . S
C1614 C1615 1.363 . S
C1614 H1617 0.929 . S
C1615 C1614 1.363 . S
C1615 C1621 1.428 . S
H1616 C1612 0.930 . S
H1617 C1614 0.929 . S
S1618 N1619 1.613 . S
S1618 N1620 1.610 . S
N1619 S1618 1.613 . S
N1619 C1622 1.350 . S
N1620 S1618 1.610 . S
N1620 C1621 1.351 . S
C1621 C1615 1.428 . S
C1621 N1620 1.351 . S
C1621 C1622 1.434 . S
C1622 C1613 1.429 . S
C1622 N1619 1.350 . S
C1622 C1621 1.434 . S
C1623 C1624 1.369 . S
C1623 C1625 1.419 . S
C1623 H1627 0.930 . S
C1624 C1623 1.369 . S
C1624 C1633 1.429 1_556 S
C1625 C1623 1.419 . S
C1625 C1626 1.363 1_556 S
C1625 H1628 0.929 . S
C1626 C1625 1.363 1_554 S
C1626 C1632 1.428 . S
H1627 C1623 0.930 . S
H1628 C1625 0.929 . S
S1629 N1630 1.613 . S
S1629 N1631 1.610 . S
N1630 S1629 1.613 . S
N1630 C1633 1.350 . S
N1631 S1629 1.610 . S
N1631 C1632 1.351 . S
C1632 C1626 1.428 . S
C1632 N1631 1.351 . S
C1632 C1633 1.434 . S
C1633 C1624 1.429 1_554 S
C1633 N1630 1.350 . S
C1633 C1632 1.434 . S
C1634 C1635 1.369 . S
C1634 C1636 1.419 . S
C1634 H1638 0.930 . S
C1635 C1634 1.369 . S
C1635 C1644 1.429 . S
C1636 C1634 1.419 . S
C1636 C1637 1.363 . S
C1636 H1639 0.929 1_556 S
C1637 C1636 1.363 . S
C1637 C1643 1.428 . S
H1638 C1634 0.930 . S
H1639 C1636 0.929 1_554 S
S1640 N1641 1.613 . S
S1640 N1642 1.610 . S
N1641 S1640 1.613 . S
N1641 C1644 1.350 . S
N1642 S1640 1.610 . S
N1642 C1643 1.351 . S
C1643 C1637 1.428 . S
C1643 N1642 1.351 . S
C1643 C1644 1.434 . S
C1644 C1635 1.429 . S
C1644 N1641 1.350 . S
C1644 C1643 1.434 . S
C1645 C1646 1.369 . S
C1645 C1647 1.419 1_556 S
C1645 H1649 0.930 . S
C1646 C1645 1.369 . S
C1646 C1655 1.429 . S
C1647 C1645 1.419 1_554 S
C1647 C1648 1.363 . S
C1647 H1650 0.929 . S
C1648 C1647 1.363 . S
C1648 C1654 1.428 . S
H1649 C1645 0.930 . S
H1650 C1647 0.929 . S
S1651 N1652 1.613 . S
S1651 N1653 1.610 1_556 S
N1652 S1651 1.613 . S
N1652 C1655 1.350 . S
N1653 S1651 1.610 1_554 S
N1653 C1654 1.351 . S
C1654 C1648 1.428 . S
C1654 N1653 1.351 . S
C1654 C1655 1.434 1_554 S
C1655 C1646 1.429 . S
C1655 N1652 1.350 . S
C1655 C1654 1.434 1_556 S
C1656 C1657 1.369 . S
C1656 C1658 1.419 . S
C1656 H1660 0.930 . S
C1657 C1656 1.369 . S
C1657 C1666 1.429 . S
C1658 C1656 1.419 . S
C1658 C1659 1.363 . S
C1658 H1661 0.929 . S
C1659 C1658 1.363 . S
C1659 C1665 1.428 . S
H1660 C1656 0.930 . S
H1661 C1658 0.929 . S
S1662 N1663 1.613 1_545 S
S1662 N1664 1.610 . S
N1663 S1662 1.613 1_565 S
N1663 C1666 1.350 . S
N1664 S1662 1.610 . S
N1664 C1665 1.351 1_545 S
C1665 C1659 1.428 . S
C1665 N1664 1.351 1_565 S
C1665 C1666 1.434 . S
C1666 C1657 1.429 . S
C1666 N1663 1.350 . S
C1666 C1665 1.434 . S
C1667 C1668 1.369 . S
C1667 C1669 1.419 . S
C1667 H1671 0.930 . S
C1668 C1667 1.369 . S
C1668 C1677 1.429 . S
C1669 C1667 1.419 . S
C1669 C1670 1.363 . S
C1669 H1672 0.929 . S
C1670 C1669 1.363 . S
C1670 C1676 1.428 . S
H1671 C1667 0.930 . S
H1672 C1669 0.929 . S
S1673 N1674 1.613 . S
S1673 N1675 1.610 . S
N1674 S1673 1.613 . S
N1674 C1677 1.350 . S
N1675 S1673 1.610 . S
N1675 C1676 1.351 . S
C1676 C1670 1.428 . S
C1676 N1675 1.351 . S
C1676 C1677 1.434 . S
C1677 C1668 1.429 . S
C1677 N1674 1.350 . S
C1677 C1676 1.434 . S
C1678 C1679 1.369 . S
C1678 C1680 1.419 . S
C1678 H1682 0.930 . S
C1679 C1678 1.369 . S
C1679 C1688 1.429 . S
C1680 C1678 1.419 . S
C1680 C1681 1.363 . S
C1680 H1683 0.929 . S
C1681 C1680 1.363 . S
C1681 C1687 1.428 . S
H1682 C1678 0.930 . S
H1683 C1680 0.929 . S
S1684 N1685 1.613 . S
S1684 N1686 1.610 . S
N1685 S1684 1.613 . S
N1685 C1688 1.350 . S
N1686 S1684 1.610 . S
N1686 C1687 1.351 . S
C1687 C1681 1.428 . S
C1687 N1686 1.351 . S
C1687 C1688 1.434 . S
C1688 C1679 1.429 . S
C1688 N1685 1.350 . S
C1688 C1687 1.434 . S
C1689 C1690 1.369 . S
C1689 C1691 1.419 . S
C1689 H1693 0.930 . S
C1690 C1689 1.369 . S
C1690 C1699 1.429 . S
C1691 C1689 1.419 . S
C1691 C1692 1.363 . S
C1691 H1694 0.929 . S
C1692 C1691 1.363 . S
C1692 C1698 1.428 . S
H1693 C1689 0.930 . S
H1694 C1691 0.929 . S
S1695 N1696 1.613 . S
S1695 N1697 1.610 . S
N1696 S1695 1.613 . S
N1696 C1699 1.350 . S
N1697 S1695 1.610 . S
N1697 C1698 1.351 . S
C1698 C1692 1.428 . S
C1698 N1697 1.351 . S
C1698 C1699 1.434 . S
C1699 C1690 1.429 . S
C1699 N1696 1.350 . S
C1699 C1698 1.434 . S
C1700 C1701 1.369 . S
C1700 C1702 1.419 . S
C1700 H1704 0.930 . S
C1701 C1700 1.369 . S
C1701 C1710 1.429 . S
C1702 C1700 1.419 . S
C1702 C1703 1.363 . S
C1702 H1705 0.929 . S
C1703 C1702 1.363 . S
C1703 C1709 1.428 . S
H1704 C1700 0.930 . S
H1705 C1702 0.929 . S
S1706 N1707 1.613 . S
S1706 N1708 1.610 . S
N1707 S1706 1.613 . S
N1707 C1710 1.350 . S
N1708 S1706 1.610 . S
N1708 C1709 1.351 . S
C1709 C1703 1.428 . S
C1709 N1708 1.351 . S
C1709 C1710 1.434 . S
C1710 C1701 1.429 . S
C1710 N1707 1.350 . S
C1710 C1709 1.434 . S
C1711 C1712 1.369 . S
C1711 C1713 1.419 . S
C1711 H1715 0.930 . S
C1712 C1711 1.369 . S
C1712 C1721 1.429 . S
C1713 C1711 1.419 . S
C1713 C1714 1.363 . S
C1713 H1716 0.929 . S
C1714 C1713 1.363 . S
C1714 C1720 1.428 . S
H1715 C1711 0.930 . S
H1716 C1713 0.929 . S
S1717 N1718 1.613 . S
S1717 N1719 1.610 . S
N1718 S1717 1.613 . S
N1718 C1721 1.350 . S
N1719 S1717 1.610 . S
N1719 C1720 1.351 . S
C1720 C1714 1.428 . S
C1720 N1719 1.351 . S
C1720 C1721 1.434 . S
C1721 C1712 1.429 . S
C1721 N1718 1.350 . S
C1721 C1720 1.434 . S
C1722 C1723 1.369 . S
C1722 C1724 1.419 . S
C1722 H1726 0.930 . S
C1723 C1722 1.369 . S
C1723 C1732 1.429 . S
C1724 C1722 1.419 . S
C1724 C1725 1.363 . S
C1724 H1727 0.929 . S
C1725 C1724 1.363 . S
C1725 C1731 1.428 . S
H1726 C1722 0.930 . S
H1727 C1724 0.929 . S
S1728 N1729 1.613 . S
S1728 N1730 1.610 . S
N1729 S1728 1.613 . S
N1729 C1732 1.350 . S
N1730 S1728 1.610 . S
N1730 C1731 1.351 . S
C1731 C1725 1.428 . S
C1731 N1730 1.351 . S
C1731 C1732 1.434 . S
C1732 C1723 1.429 . S
C1732 N1729 1.350 . S
C1732 C1731 1.434 . S
C1733 C1734 1.369 . S
C1733 C1735 1.419 . S
C1733 H1737 0.930 . S
C1734 C1733 1.369 . S
C1734 C1743 1.429 . S
C1735 C1733 1.419 . S
C1735 C1736 1.363 . S
C1735 H1738 0.929 . S
C1736 C1735 1.363 . S
C1736 C1742 1.428 . S
H1737 C1733 0.930 . S
H1738 C1735 0.929 . S
S1739 N1740 1.613 . S
S1739 N1741 1.610 . S
N1740 S1739 1.613 . S
N1740 C1743 1.350 . S
N1741 S1739 1.610 . S
N1741 C1742 1.351 . S
C1742 C1736 1.428 . S
C1742 N1741 1.351 . S
C1742 C1743 1.434 . S
C1743 C1734 1.429 . S
C1743 N1740 1.350 . S
C1743 C1742 1.434 . S
C1744 C1745 1.369 . S
C1744 C1746 1.419 . S
C1744 H1748 0.930 . S
C1745 C1744 1.369 . S
C1745 C1754 1.429 . S
C1746 C1744 1.419 . S
C1746 C1747 1.363 . S
C1746 H1749 0.929 . S
C1747 C1746 1.363 . S
C1747 C1753 1.428 . S
H1748 C1744 0.930 . S
H1749 C1746 0.929 . S
S1750 N1751 1.613 . S
S1750 N1752 1.610 . S
N1751 S1750 1.613 . S
N1751 C1754 1.350 . S
N1752 S1750 1.610 . S
N1752 C1753 1.351 . S
C1753 C1747 1.428 . S
C1753 N1752 1.351 . S
C1753 C1754 1.434 . S
C1754 C1745 1.429 . S
C1754 N1751 1.350 . S
C1754 C1753 1.434 . S
C1755 C1756 1.369 . S
C1755 C1757 1.419 . S
C1755 H1759 0.930 . S
C1756 C1755 1.369 . S
C1756 C1765 1.429 . S
C1757 C1755 1.419 . S
C1757 C1758 1.363 . S
C1757 H1760 0.929 . S
C1758 C1757 1.363 . S
C1758 C1764 1.428 . S
H1759 C1755 0.930 . S
H1760 C1757 0.929 . S
S1761 N1762 1.613 . S
S1761 N1763 1.610 . S
N1762 S1761 1.613 . S
N1762 C1765 1.350 . S
N1763 S1761 1.610 . S
N1763 C1764 1.351 . S
C1764 C1758 1.428 . S
C1764 N1763 1.351 . S
C1764 C1765 1.434 . S
C1765 C1756 1.429 . S
C1765 N1762 1.350 . S
C1765 C1764 1.434 . S
C1766 C1767 1.369 . S
C1766 C1768 1.419 . S
C1766 H1770 0.930 . S
C1767 C1766 1.369 . S
C1767 C1776 1.429 . S
C1768 C1766 1.419 . S
C1768 C1769 1.363 . S
C1768 H1771 0.929 . S
C1769 C1768 1.363 . S
C1769 C1775 1.428 . S
H1770 C1766 0.930 . S
H1771 C1768 0.929 . S
S1772 N1773 1.613 . S
S1772 N1774 1.610 . S
N1773 S1772 1.613 . S
N1773 C1776 1.350 . S
N1774 S1772 1.610 . S
N1774 C1775 1.351 . S
C1775 C1769 1.428 . S
C1775 N1774 1.351 . S
C1775 C1776 1.434 . S
C1776 C1767 1.429 . S
C1776 N1773 1.350 . S
C1776 C1775 1.434 . S
C1777 C1778 1.369 . S
C1777 C1779 1.419 . S
C1777 H1781 0.930 . S
C1778 C1777 1.369 . S
C1778 C1787 1.429 . S
C1779 C1777 1.419 . S
C1779 C1780 1.363 . S
C1779 H1782 0.929 . S
C1780 C1779 1.363 . S
C1780 C1786 1.428 . S
H1781 C1777 0.930 . S
H1782 C1779 0.929 . S
S1783 N1784 1.613 . S
S1783 N1785 1.610 . S
N1784 S1783 1.613 . S
N1784 C1787 1.350 . S
N1785 S1783 1.610 . S
N1785 C1786 1.351 . S
C1786 C1780 1.428 . S
C1786 N1785 1.351 . S
C1786 C1787 1.434 . S
C1787 C1778 1.429 . S
C1787 N1784 1.350 . S
C1787 C1786 1.434 . S
C1788 C1789 1.369 . S
C1788 C1790 1.419 . S
C1788 H1792 0.930 . S
C1789 C1788 1.369 . S
C1789 C1798 1.429 . S
C1790 C1788 1.419 . S
C1790 C1791 1.363 . S
C1790 H1793 0.929 . S
C1791 C1790 1.363 . S
C1791 C1797 1.428 . S
H1792 C1788 0.930 . S
H1793 C1790 0.929 . S
S1794 N1795 1.613 . S
S1794 N1796 1.610 . S
N1795 S1794 1.613 . S
N1795 C1798 1.350 . S
N1796 S1794 1.610 . S
N1796 C1797 1.351 . S
C1797 C1791 1.428 . S
C1797 N1796 1.351 . S
C1797 C1798 1.434 . S
C1798 C1789 1.429 . S
C1798 N1795 1.350 . S
C1798 C1797 1.434 . S
C1799 C1800 1.369 . S
C1799 C1801 1.419 . S
C1799 H1803 0.930 . S
C1800 C1799 1.369 . S
C1800 C1809 1.429 . S
C1801 C1799 1.419 . S
C1801 C1802 1.363 . S
C1801 H1804 0.929 . S
C1802 C1801 1.363 . S
C1802 C1808 1.428 . S
H1803 C1799 0.930 . S
H1804 C1801 0.929 . S
S1805 N1806 1.613 . S
S1805 N1807 1.610 . S
N1806 S1805 1.613 . S
N1806 C1809 1.350 . S
N1807 S1805 1.610 . S
N1807 C1808 1.351 . S
C1808 C1802 1.428 . S
C1808 N1807 1.351 . S
C1808 C1809 1.434 . S
C1809 C1800 1.429 . S
C1809 N1806 1.350 . S
C1809 C1808 1.434 . S
C1810 C1811 1.369 . S
C1810 C1812 1.419 . S
C1810 H1814 0.930 . S
C1811 C1810 1.369 . S
C1811 C1820 1.429 . S
C1812 C1810 1.419 . S
C1812 C1813 1.363 . S
C1812 H1815 0.929 . S
C1813 C1812 1.363 . S
C1813 C1819 1.428 . S
H1814 C1810 0.930 . S
H1815 C1812 0.929 . S
S1816 N1817 1.613 . S
S1816 N1818 1.610 . S
N1817 S1816 1.613 . S
N1817 C1820 1.350 . S
N1818 S1816 1.610 . S
N1818 C1819 1.351 . S
C1819 C1813 1.428 . S
C1819 N1818 1.351 . S
C1819 C1820 1.434 . S
C1820 C1811 1.429 . S
C1820 N1817 1.350 . S
C1820 C1819 1.434 . S
C1821 C1822 1.369 . S
C1821 C1823 1.419 1_554 S
C1821 H1825 0.930 . S
C1822 C1821 1.369 . S
C1822 C1831 1.429 . S
C1823 C1821 1.419 1_556 S
C1823 C1824 1.363 . S
C1823 H1826 0.929 . S
C1824 C1823 1.363 . S
C1824 C1830 1.428 1_556 S
H1825 C1821 0.930 . S
H1826 C1823 0.929 . S
S1827 N1828 1.613 . S
S1827 N1829 1.610 . S
N1828 S1827 1.613 . S
N1828 C1831 1.350 . S
N1829 S1827 1.610 . S
N1829 C1830 1.351 . S
C1830 C1824 1.428 1_554 S
C1830 N1829 1.351 . S
C1830 C1831 1.434 . S
C1831 C1822 1.429 . S
C1831 N1828 1.350 . S
C1831 C1830 1.434 . S
C1832 C1833 1.369 . S
C1832 C1834 1.419 . S
C1832 H1836 0.930 . S
C1833 C1832 1.369 . S
C1833 C1842 1.429 . S
C1834 C1832 1.419 . S
C1834 C1835 1.363 . S
C1834 H1837 0.929 . S
C1835 C1834 1.363 . S
C1835 C1841 1.428 . S
H1836 C1832 0.930 . S
H1837 C1834 0.929 . S
S1838 N1839 1.613 . S
S1838 N1840 1.610 . S
N1839 S1838 1.613 . S
N1839 C1842 1.350 . S
N1840 S1838 1.610 . S
N1840 C1841 1.351 . S
C1841 C1835 1.428 . S
C1841 N1840 1.351 . S
C1841 C1842 1.434 . S
C1842 C1833 1.429 . S
C1842 N1839 1.350 . S
C1842 C1841 1.434 . S
C1843 C1844 1.369 . S
C1843 C1845 1.419 . S
C1843 H1847 0.930 . S
C1844 C1843 1.369 . S
C1844 C1853 1.429 . S
C1845 C1843 1.419 . S
C1845 C1846 1.363 . S
C1845 H1848 0.929 . S
C1846 C1845 1.363 . S
C1846 C1852 1.428 . S
H1847 C1843 0.930 . S
H1848 C1845 0.929 . S
S1849 N1850 1.613 . S
S1849 N1851 1.610 . S
N1850 S1849 1.613 . S
N1850 C1853 1.350 . S
N1851 S1849 1.610 . S
N1851 C1852 1.351 . S
C1852 C1846 1.428 . S
C1852 N1851 1.351 . S
C1852 C1853 1.434 . S
C1853 C1844 1.429 . S
C1853 N1850 1.350 . S
C1853 C1852 1.434 . S
C1063 C7 1.397 . S
C1065 C814 1.405 . S
C1076 C742 1.776 . S
C1074 C39 1.770 . S
C1087 C776 1.562 . S
C1085 C62 1.554 1_565 S
C1096 C76 1.895 . S
C1098 C956 1.867 . S
C1107 C108 1.442 . S
C1109 C994 1.432 1_455 S
C1118 N117 1.367 . S
C1120 C1028 1.344 . S
C1131 C921 1.396 1_455 S
C1129 C16 1.384 . S
C1140 C30 1.830 . S
C1142 C849 1.834 . S
C1153 C884 1.538 . S
C1151 C53 1.545 1_556 S
C1162 C85 1.871 . S
C1164 C632 1.857 . S
C1175 C669 1.653 . S
C1173 C99 1.650 . S
C1184 N127 1.284 . S
C1186 C704 1.347 . S
C1195 N150 1.159 . S
C1197 C1030 1.175 . S
C1208 C958 1.546 . S
C1206 N173 1.534 . S
C1219 C992 1.420 . S
C1217 C200 1.396 . S
C1228 C214 1.700 . S
C1230 C524 1.689 . S
C1239 N232 1.501 . S
C1241 C562 1.504 . S
C1250 C260 1.477 . S
C1252 C596 1.474 . S
C1263 C489 1.260 . S
C1261 N140 1.227 . S
C1272 N163 1.281 . S
C1274 C417 1.327 . S
C1285 C452 1.635 . S
C1283 C191 1.635 . S
C1296 C848 1.955 . S
C1294 C223 1.967 . S
C1307 C885 1.479 . S
C1305 N242 1.422 . S
C1318 C920 1.524 . S
C1316 C269 1.530 . S
C1327 N288 1.342 . S
C1329 C598 1.360 . S
C1338 C315 1.516 . S
C1340 C526 1.554 . S
C1349 C338 1.625 . S
C1351 C560 1.638 . S
C1360 C352 1.883 . S
C1362 C740 1.872 . S
C1373 C778 1.548 . S
C1371 N370 1.557 . S
C1384 C812 1.553 . S
C1382 C398 1.543 . S
C1395 C705 1.217 . S
C1393 N278 1.138 . S
C1404 C306 1.741 . S
C1406 C633 1.753 . S
C1415 C329 1.635 . S
C1417 C668 1.624 1_655 S
C1428 C416 1.591 . S
C1426 C361 1.609 . S
C1437 N380 1.462 . S
C1439 C453 1.510 . S
C1450 C488 1.480 . S
C1448 C407 1.480 . S
C1461 C525 1.472 . S
C1459 N12 1.412 . S
C1470 N25 1.569 . S
C1472 C572 1.519 . S
C1483 C597 1.317 . S
C1481 N48 1.299 . S
C1494 C608 1.309 . S
C1492 N81 1.341 . S
C1505 C536 1.538 . S
C1503 N94 1.536 . S
C1516 C561 1.565 . S
C1514 C131 1.551 . S
C1527 C418 1.492 . S
C1525 N2 1.482 . S
C1536 N35 1.459 . S
C1538 C464 1.475 . S
C1547 N58 1.333 . S
C1549 C490 1.408 . S
C1560 C500 1.295 . S
C1558 N71 1.275 . S
C1571 C428 1.434 . S
C1569 N104 1.423 . S
C1582 C454 1.586 . S
C1580 C122 1.588 . S
C1591 C145 2.033 . S
C1593 C741 2.054 . S
C1602 C168 1.729 . S
C1604 C788 1.686 . S
C1613 N186 1.376 . S
C1615 C813 1.384 . S
C1626 C824 1.311 . S
C1624 N219 1.329 . S
C1637 C752 1.745 1_556 S
C1635 C246 1.815 . S
C1648 C777 1.474 . S
C1646 N265 1.447 . S
C1659 C634 1.974 . S
C1657 C154 1.968 . S
C1668 C177 1.833 . S
C1670 C680 1.743 . S
C1679 N196 1.248 . S
C1681 C706 1.289 . S
C1690 N209 1.145 . S
C1692 C716 1.201 . S
C1701 C237 1.886 . S
C1703 C644 1.854 . S
C1714 C670 1.430 . S
C1712 N255 1.393 . S
C1723 C283 1.780 . S
C1725 C957 1.789 . S
C1734 N301 1.445 . S
C1736 C1004 1.418 . S
C1745 N324 1.310 . S
C1747 C1029 1.317 . S
C1758 C1040 1.128 . S
C1756 N357 1.158 . S
C1769 C968 1.733 . S
C1767 C384 1.816 . S
C1778 N403 1.310 . S
C1780 C993 1.332 . S
C1789 C292 1.900 . S
C1791 C850 1.898 . S
C1802 C896 1.331 . S
C1800 N311 1.324 . S
C1811 N334 1.387 . S
C1813 C922 1.467 . S
C1822 N347 1.331 . S
C1824 C932 1.315 . S
C1835 C860 1.893 1_554 S
C1833 C375 1.932 . S
C1844 N393 1.341 . S
C1846 C886 1.381 1_554 S
