# Generated by pormake.
# Topology llj, (12,3)-cn, num edge types: 1
# Building blocks:
#     Node 0, Type 0, BuildingBlock: QEWDON_clean_sbu_0, # of connection points: 12
#     Node 1, Type 0, BuildingBlock: QEWDON_clean_sbu_0, # of connection points: 12
#     Node 2, Type 1, BuildingBlock: WUSLED_clean_sbu_0, # of connection points: 3
#     Node 3, Type 1, BuildingBlock: WUSLED_clean_sbu_0, # of connection points: 3
#     Node 4, Type 1, BuildingBlock: WUSLED_clean_sbu_0, # of connection points: 3
#     Node 5, Type 1, BuildingBlock: WUSLED_clean_sbu_0, # of connection points: 3
#     Node 6, Type 1, BuildingBlock: WUSLED_clean_sbu_0, # of connection points: 3
#     Node 7, Type 1, BuildingBlock: WUSLED_clean_sbu_0, # of connection points: 3
#     Node 8, Type 1, BuildingBlock: WUSLED_clean_sbu_0, # of connection points: 3
#     Node 9, Type 1, BuildingBlock: WUSLED_clean_sbu_0, # of connection points: 3
#     Edge 10, Type (0, 1), BuildingBlock: TEMPAE_clean_linker_10, # of connection points: 2
#     Edge 11, Type (0, 1), BuildingBlock: TEMPAE_clean_linker_10, # of connection points: 2
#     Edge 12, Type (0, 1), BuildingBlock: TEMPAE_clean_linker_10, # of connection points: 2
#     Edge 13, Type (0, 1), BuildingBlock: TEMPAE_clean_linker_10, # of connection points: 2
#     Edge 14, Type (0, 1), BuildingBlock: TEMPAE_clean_linker_10, # of connection points: 2
#     Edge 15, Type (0, 1), BuildingBlock: TEMPAE_clean_linker_10, # of connection points: 2
#     Edge 16, Type (0, 1), BuildingBlock: TEMPAE_clean_linker_10, # of connection points: 2
#     Edge 17, Type (0, 1), BuildingBlock: TEMPAE_clean_linker_10, # of connection points: 2
#     Edge 18, Type (0, 1), BuildingBlock: TEMPAE_clean_linker_10, # of connection points: 2
#     Edge 19, Type (0, 1), BuildingBlock: TEMPAE_clean_linker_10, # of connection points: 2
#     Edge 20, Type (0, 1), BuildingBlock: TEMPAE_clean_linker_10, # of connection points: 2
#     Edge 21, Type (0, 1), BuildingBlock: TEMPAE_clean_linker_10, # of connection points: 2
#     Edge 22, Type (0, 1), BuildingBlock: TEMPAE_clean_linker_10, # of connection points: 2
#     Edge 23, Type (0, 1), BuildingBlock: TEMPAE_clean_linker_10, # of connection points: 2
#     Edge 24, Type (0, 1), BuildingBlock: TEMPAE_clean_linker_10, # of connection points: 2
#     Edge 25, Type (0, 1), BuildingBlock: TEMPAE_clean_linker_10, # of connection points: 2
#     Edge 26, Type (0, 1), BuildingBlock: TEMPAE_clean_linker_10, # of connection points: 2
#     Edge 27, Type (0, 1), BuildingBlock: TEMPAE_clean_linker_10, # of connection points: 2
#     Edge 28, Type (0, 1), BuildingBlock: TEMPAE_clean_linker_10, # of connection points: 2
#     Edge 29, Type (0, 1), BuildingBlock: TEMPAE_clean_linker_10, # of connection points: 2
#     Edge 30, Type (0, 1), BuildingBlock: TEMPAE_clean_linker_10, # of connection points: 2
#     Edge 31, Type (0, 1), BuildingBlock: TEMPAE_clean_linker_10, # of connection points: 2
#     Edge 32, Type (0, 1), BuildingBlock: TEMPAE_clean_linker_10, # of connection points: 2
#     Edge 33, Type (0, 1), BuildingBlock: TEMPAE_clean_linker_10, # of connection points: 2
# Relax obj value: 0.010
# Max RMSD: 0.048
# Mean RMSD: 0.045
data_MOF--net-llj--node1-QEWDON_clean_sbu_0--node2-WUSLED_clean_sbu_0--edge1-TEMPAE_clean_linker_10
_symmetry_space_group_name_H-M    P1
_symmetry_Int_Tables_number       1
_symmetry_cell_setting            triclinic
loop_
_symmetry_equiv_pos_as_xyz
'x, y, z'
_cell_length_a     48.59943
_cell_length_b     48.598355
_cell_length_c     33.667897
_cell_angle_alpha  90.305155
_cell_angle_beta   90.221426
_cell_angle_gamma 90.044361
loop_
_atom_site_label
_atom_site_type_symbol
_atom_site_fract_x
_atom_site_fract_y
_atom_site_fract_z
_atom_type_partial_charge
Zn0 Zn 0.96652 0.06787 0.97986 0.0
Zn1 Zn 0.95967 0.05766 0.07296 0.0
O2 O 0.98571 0.05222 0.02776 0.0
H3 H 0.99856 0.03712 0.0256 0.0
C4 C 0.89547 0.98654 0.91729 0.0
O5 O 0.87714 0.98032 0.9444 0.0
Zn6 Zn 0.03695 0.93999 0.07533 0.0
Zn7 Zn 0.03797 0.93328 0.98 0.0
O8 O 0.01571 0.94804 0.02567 0.0
H9 H 0.00221 0.96251 0.023 0.0
Zn10 Zn 0.93013 0.95978 0.97547 0.0
O11 O 0.94583 0.98184 0.02102 0.0
Zn12 Zn 0.93905 0.95971 0.07014 0.0
H13 H 0.96029 0.9953 0.01783 0.0
Zn14 Zn 0.06667 0.03719 0.98461 0.0
O15 O 0.0506 0.01565 0.03015 0.0
H16 H 0.03705 0.00121 0.02681 0.0
Zn17 Zn 0.05644 0.03822 0.07918 0.0
C18 C 0.08082 0.98989 0.93499 0.0
O19 O 0.07694 0.97719 0.96887 0.0
O20 O 0.93414 0.09301 0.99444 0.0
O21 O 0.93028 0.08667 0.05965 0.0
O22 O 0.06953 0.90826 0.99796 0.0
O23 O 0.06915 0.91343 0.06378 0.0
O24 O 0.90497 0.92853 0.99389 0.0
O25 O 0.91146 0.92818 0.05947 0.0
C26 C 0.00696 0.06325 0.12437 0.0
O27 O 0.09122 0.06943 0.00281 0.0
O28 O 0.08406 0.06957 0.06809 0.0
O29 O 0.01882 0.92638 0.92555 0.0
C30 C 0.92259 0.0984 0.02751 0.0
O31 O 0.99074 0.07866 0.93192 0.0
C32 C 0.98482 0.92868 0.11285 0.0
O33 O 0.92043 0.97996 0.92315 0.0
C34 C 0.07926 0.9027 0.0322 0.0
O35 O 0.07754 0.01581 0.93356 0.0
C36 C 0.93037 0.01092 0.11175 0.0
O37 O 0.98129 0.06829 0.12227 0.0
O38 O 0.01861 0.0526 0.09417 0.0
C39 C 0.89987 0.91863 0.02807 0.0
O40 O 0.01024 0.92255 0.11417 0.0
O41 O 0.97646 0.94505 0.08608 0.0
C42 C 0.06563 0.98744 0.12212 0.0
O43 O 0.92497 0.98534 0.11304 0.0
O44 O 0.94307 0.02035 0.0819 0.0
C45 C 0.09583 0.0794 0.03731 0.0
O46 O 0.07099 0.0131 0.1222 0.0
O47 O 0.05076 0.97759 0.09422 0.0
C48 C 0.99272 0.92724 0.92328 0.0
O49 O 0.97852 0.93247 0.95557 0.0
C50 C 0.99697 0.10386 0.92761 0.0
O51 O 0.98758 0.12195 0.95334 0.0
Zn52 Zn 0.45549 0.55782 0.47679 0.0
Zn53 Zn 0.4598 0.55759 0.57129 0.0
O54 O 0.48206 0.55029 0.52235 0.0
H55 H 0.49741 0.53775 0.52022 0.0
C56 C 0.44394 0.49141 0.40132 0.0
O57 O 0.47047 0.4882 0.40726 0.0
Zn58 Zn 0.53859 0.44517 0.57885 0.0
Zn59 Zn 0.53545 0.43879 0.48393 0.0
O60 O 0.51499 0.45333 0.53155 0.0
H61 H 0.50285 0.46901 0.53015 0.0
Zn62 Zn 0.43858 0.46077 0.47739 0.0
O63 O 0.44921 0.4837 0.52535 0.0
Zn64 Zn 0.44148 0.46072 0.57338 0.0
H65 H 0.46233 0.49855 0.52388 0.0
Zn66 Zn 0.57169 0.54276 0.48487 0.0
O67 O 0.55935 0.51761 0.52896 0.0
H68 H 0.54785 0.50168 0.52446 0.0
Zn69 Zn 0.55985 0.54164 0.57728 0.0
C70 C 0.6087 0.51582 0.42936 0.0
O71 O 0.62583 0.52033 0.45898 0.0
O72 O 0.42365 0.58326 0.49348 0.0
O73 O 0.43011 0.58624 0.55883 0.0
O74 O 0.56705 0.4127 0.49835 0.0
O75 O 0.56926 0.41764 0.56409 0.0
O76 O 0.41486 0.42748 0.49257 0.0
O77 O 0.41451 0.42962 0.5587 0.0
C78 C 0.51042 0.56629 0.61481 0.0
O79 O 0.59368 0.57632 0.5051 0.0
O80 O 0.58674 0.57377 0.57032 0.0
O81 O 0.51436 0.43319 0.43081 0.0
C82 C 0.4174 0.5934 0.52724 0.0
O83 O 0.47281 0.5673 0.42231 0.0
C84 C 0.48851 0.43314 0.62151 0.0
O85 O 0.42707 0.48166 0.42635 0.0
C86 C 0.57785 0.40671 0.53176 0.0
O87 O 0.58394 0.52381 0.43261 0.0
C88 C 0.43231 0.51066 0.6178 0.0
O89 O 0.48463 0.57055 0.61588 0.0
O90 O 0.52088 0.55488 0.58442 0.0
C91 C 0.40671 0.41849 0.52602 0.0
O92 O 0.51445 0.42959 0.62245 0.0
O93 O 0.47839 0.44596 0.59193 0.0
C94 C 0.56513 0.49328 0.626 0.0
O95 O 0.42719 0.48499 0.61787 0.0
O96 O 0.44356 0.52086 0.58712 0.0
C97 C 0.5979 0.58525 0.54029 0.0
O98 O 0.57049 0.51891 0.62511 0.0
O99 O 0.55381 0.4824 0.59558 0.0
C100 C 0.48955 0.4249 0.43116 0.0
O101 O 0.47776 0.41997 0.46544 0.0
C102 C 0.49594 0.55762 0.41176 0.0
O103 O 0.50863 0.54018 0.43521 0.0
C104 C 0.34894 0.32756 0.91015 0.0
C105 C 0.36977 0.34693 0.91763 0.0
C106 C 0.37714 0.35244 0.84648 0.0
C107 C 0.38374 0.35926 0.8861 0.0
C108 C 0.35608 0.3331 0.83926 0.0
C109 C 0.34213 0.32079 0.87083 0.0
U110 U 0.33767 0.31811 0.02084 0.0
O111 O 0.29988 0.31247 0.0555 0.0
O112 O 0.33167 0.28039 0.05587 0.0
C113 C 0.30672 0.28752 0.06679 0.0
C114 C 0.33457 0.31406 0.94314 0.0
C115 C 0.28531 0.26614 0.06264 0.0
C116 C 0.24507 0.24676 0.02957 0.0
C117 C 0.26593 0.26663 0.03159 0.0
C118 C 0.26309 0.22532 0.089 0.0
C119 C 0.24335 0.22594 0.05837 0.0
C120 C 0.28381 0.24527 0.09113 0.0
C121 C 0.38074 0.36154 0.09322 0.0
C122 C 0.38456 0.35237 0.16391 0.0
C123 C 0.40314 0.39461 0.137 0.0
C124 C 0.39433 0.38668 0.09904 0.0
C125 C 0.3986 0.37743 0.16982 0.0
C126 C 0.37562 0.34453 0.12593 0.0
C127 C 0.37251 0.35323 0.0528 0.0
O128 O 0.34995 0.29787 0.9651 0.0
O129 O 0.31836 0.33005 0.96423 0.0
O130 O 0.34737 0.35995 0.04219 0.0
O131 O 0.37931 0.32808 0.04217 0.0
H132 H 0.37537 0.35233 0.94787 0.0
H133 H 0.40007 0.37376 0.89277 0.0
H134 H 0.35022 0.32763 0.80917 0.0
H135 H 0.32606 0.30591 0.86454 0.0
H136 H 0.23039 0.24758 0.00532 0.0
H137 H 0.26679 0.28246 0.00909 0.0
H138 H 0.2622 0.20972 0.11182 0.0
H139 H 0.29852 0.24457 0.11537 0.0
H140 H 0.3805 0.33884 0.18867 0.0
H141 H 0.41415 0.41386 0.14048 0.0
H142 H 0.39844 0.40005 0.0741 0.0
H143 H 0.36496 0.32511 0.12203 0.0
C144 C 0.6944 0.36952 0.13382 0.0
C145 C 0.67888 0.39308 0.12505 0.0
C146 C 0.67422 0.40311 0.19564 0.0
C147 C 0.66894 0.4098 0.15572 0.0
C148 C 0.68987 0.3795 0.20415 0.0
C149 C 0.69988 0.36287 0.17347 0.0
U150 U 0.6944 0.3477 0.02547 0.0
O151 O 0.72832 0.33504 0.98646 0.0
O152 O 0.69458 0.30628 0.99866 0.0
C153 C 0.71912 0.30967 0.98317 0.0
C154 C 0.70442 0.35148 0.10191 0.0
C155 C 0.73913 0.28789 0.99237 0.0
C156 C 0.77513 0.2689 0.03441 0.0
C157 C 0.75624 0.2898 0.026 0.0
C158 C 0.75961 0.2437 0.97618 0.0
C159 C 0.77702 0.24561 0.00958 0.0
C160 C 0.74088 0.26469 0.96765 0.0
C161 C 0.64781 0.38775 0.95361 0.0
C162 C 0.64838 0.38272 0.88177 0.0
C163 C 0.61493 0.41268 0.91307 0.0
C164 C 0.6256 0.40594 0.95033 0.0
C165 C 0.62632 0.40134 0.8783 0.0
C166 C 0.65902 0.37593 0.91918 0.0
C167 C 0.65932 0.38207 0.99311 0.0
O168 O 0.68589 0.33474 0.08671 0.0
O169 O 0.71964 0.36353 0.07489 0.0
O170 O 0.68563 0.38756 0.99768 0.0
O171 O 0.65189 0.35865 0.00919 0.0
H172 H 0.67432 0.3984 0.09451 0.0
H173 H 0.65672 0.42768 0.14824 0.0
H174 H 0.69458 0.37401 0.23457 0.0
H175 H 0.71183 0.34474 0.1807 0.0
H176 H 0.78809 0.27082 0.06052 0.0
H177 H 0.75498 0.30744 0.04571 0.0
H178 H 0.76081 0.22617 0.95626 0.0
H179 H 0.72777 0.26285 0.94165 0.0
H180 H 0.65745 0.37347 0.85558 0.0
H181 H 0.59825 0.4274 0.91144 0.0
H182 H 0.61677 0.4153 0.97664 0.0
H183 H 0.67615 0.36174 0.92125 0.0
C184 C 0.63486 0.67446 0.13391 0.0
C185 C 0.60932 0.66309 0.12316 0.0
C186 C 0.60202 0.64813 0.19127 0.0
C187 C 0.59299 0.65013 0.15161 0.0
C188 C 0.62773 0.65949 0.20173 0.0
C189 C 0.64396 0.67257 0.17329 0.0
U190 U 0.65367 0.68557 0.02627 0.0
O191 O 0.6655 0.72293 0.99404 0.0
O192 O 0.69407 0.68804 0.99713 0.0
C193 C 0.69044 0.7138 0.98668 0.0
C194 C 0.65242 0.68761 0.10406 0.0
C195 C 0.713 0.7327 0.99715 0.0
C196 C 0.73603 0.76327 0.04407 0.0
C197 C 0.71466 0.7449 0.03498 0.0
C198 C 0.75449 0.75696 0.97789 0.0
C199 C 0.75616 0.76954 0.01558 0.0
C200 C 0.73308 0.73874 0.96879 0.0
C201 C 0.60994 0.64719 0.94803 0.0
C202 C 0.62175 0.63873 0.8789 0.0
C203 C 0.57487 0.63214 0.90126 0.0
C204 C 0.58264 0.63994 0.93964 0.0
C205 C 0.59432 0.63138 0.87046 0.0
C206 C 0.62949 0.64672 0.9174 0.0
C207 C 0.6174 0.65469 0.98905 0.0
O208 O 0.66843 0.67071 0.08419 0.0
O209 O 0.64012 0.70581 0.08136 0.0
O210 O 0.61262 0.68036 0.99936 0.0
O211 O 0.64113 0.64536 0.00214 0.0
H212 H 0.60203 0.66423 0.09276 0.0
H213 H 0.5732 0.6419 0.14261 0.0
H214 H 0.63555 0.65791 0.23179 0.0
H215 H 0.66374 0.68101 0.18199 0.0
H216 H 0.73688 0.77243 0.07345 0.0
H217 H 0.69939 0.74033 0.05735 0.0
H218 H 0.76942 0.76164 0.9551 0.0
H219 H 0.73209 0.72952 0.93945 0.0
H220 H 0.63711 0.63855 0.85568 0.0
H221 H 0.55368 0.62625 0.89581 0.0
H222 H 0.56731 0.64011 0.96294 0.0
H223 H 0.65068 0.65241 0.92328 0.0
C224 C 0.3353 0.6453 0.13255 0.0
C225 C 0.35515 0.62643 0.11936 0.0
C226 C 0.36343 0.61176 0.1874 0.0
C227 C 0.3691 0.60981 0.14654 0.0
C228 C 0.34352 0.6308 0.20041 0.0
C229 C 0.32957 0.64742 0.17317 0.0
U230 U 0.32232 0.66567 0.02626 0.0
O231 O 0.2841 0.67524 0.99407 0.0
O232 O 0.31677 0.70635 0.99882 0.0
C233 C 0.29128 0.701 0.9881 0.0
C234 C 0.32053 0.66262 0.10394 0.0
C235 C 0.27083 0.72199 0.99935 0.0
C236 C 0.23569 0.7397 0.044 0.0
C237 C 0.25522 0.71961 0.03421 0.0
C238 C 0.24761 0.76503 0.98471 0.0
C239 C 0.23167 0.76265 0.01933 0.0
C240 C 0.26695 0.74486 0.97482 0.0
C241 C 0.36517 0.62567 0.94824 0.0
C242 C 0.35801 0.6247 0.87677 0.0
C243 C 0.39773 0.60207 0.90551 0.0
C244 C 0.38934 0.61039 0.94332 0.0
C245 C 0.38206 0.60888 0.87176 0.0
C246 C 0.34964 0.63307 0.91475 0.0
C247 C 0.35627 0.63258 0.98875 0.0
O248 O 0.33594 0.68044 0.08498 0.0
O249 O 0.30332 0.64937 0.08047 0.0
O250 O 0.3309 0.62578 0.9979 0.0
O251 O 0.36352 0.65696 0.00223 0.0
H252 H 0.35984 0.62459 0.08802 0.0
H253 H 0.38449 0.5956 0.13559 0.0
H254 H 0.33839 0.63254 0.2316 0.0
H255 H 0.31423 0.66183 0.18379 0.0
H256 H 0.22388 0.73741 0.071 0.0
H257 H 0.25808 0.70221 0.05377 0.0
H258 H 0.24475 0.78224 0.96481 0.0
H259 H 0.2788 0.74707 0.94783 0.0
H260 H 0.34562 0.6305 0.85135 0.0
H261 H 0.41607 0.58956 0.90288 0.0
H262 H 0.40151 0.60442 0.9689 0.0
H263 H 0.33093 0.64495 0.91803 0.0
C264 C 0.84785 0.82736 0.40539 0.0
C265 C 0.86489 0.85044 0.41054 0.0
C266 C 0.87535 0.85049 0.33977 0.0
C267 C 0.87845 0.86194 0.37803 0.0
C268 C 0.85821 0.82733 0.33486 0.0
C269 C 0.84459 0.81589 0.36741 0.0
U270 U 0.83855 0.82156 0.5167 0.0
O271 O 0.80109 0.81854 0.55309 0.0
O272 O 0.83204 0.78567 0.55499 0.0
C273 C 0.80746 0.7939 0.56613 0.0
C274 C 0.83375 0.81504 0.43955 0.0
C275 C 0.78532 0.77321 0.56401 0.0
C276 C 0.76355 0.7334 0.53311 0.0
C277 C 0.78442 0.75327 0.53369 0.0
C278 C 0.74394 0.75351 0.59259 0.0
C279 C 0.7431 0.73327 0.56261 0.0
C280 C 0.7649 0.77323 0.59331 0.0
C281 C 0.88407 0.86542 0.58439 0.0
C282 C 0.88134 0.86251 0.65625 0.0
C283 C 0.91444 0.89309 0.62577 0.0
C284 C 0.90518 0.8849 0.58817 0.0
C285 C 0.90274 0.88188 0.66027 0.0
C286 C 0.87208 0.85435 0.6186 0.0
C287 C 0.87516 0.85645 0.54467 0.0
O288 O 0.84915 0.79911 0.46189 0.0
O289 O 0.81828 0.83198 0.46026 0.0
O290 O 0.85008 0.86367 0.5344 0.0
O291 O 0.88092 0.83076 0.53561 0.0
H292 H 0.86768 0.85955 0.43972 0.0
H293 H 0.89118 0.87996 0.38285 0.0
H294 H 0.85566 0.81775 0.30596 0.0
H295 H 0.83163 0.79797 0.36296 0.0
H296 H 0.76324 0.71829 0.50935 0.0
H297 H 0.79987 0.75299 0.51058 0.0
H298 H 0.72864 0.75381 0.6159 0.0
H299 H 0.76528 0.78843 0.61697 0.0
H300 H 0.87172 0.8537 0.68222 0.0
H301 H 0.9312 0.90774 0.6278 0.0
H302 H 0.91471 0.89355 0.562 0.0
H303 H 0.8557 0.83928 0.61614 0.0
C304 C 0.18558 0.8596 0.63674 0.0
C305 C 0.16308 0.87705 0.63007 0.0
C306 C 0.16091 0.88771 0.70075 0.0
C307 C 0.15079 0.89096 0.66184 0.0
C308 C 0.18351 0.87017 0.70716 0.0
C309 C 0.19572 0.85623 0.67539 0.0
U310 U 0.19381 0.84611 0.52604 0.0
O311 O 0.23145 0.83906 0.49119 0.0
O312 O 0.19929 0.80736 0.49322 0.0
C313 C 0.22452 0.81357 0.48254 0.0
C314 C 0.19879 0.84503 0.60364 0.0
C315 C 0.24534 0.79266 0.49192 0.0
C316 C 0.26602 0.76049 0.53826 0.0
C317 C 0.24681 0.7811 0.53 0.0
C318 C 0.28305 0.7634 0.47083 0.0
C319 C 0.28423 0.75131 0.50868 0.0
C320 C 0.2637 0.78388 0.46252 0.0
C321 C 0.14862 0.88602 0.45263 0.0
C322 C 0.15707 0.89139 0.38195 0.0
C323 C 0.11241 0.90274 0.40922 0.0
C324 C 0.12162 0.89525 0.44698 0.0
C325 C 0.13012 0.90129 0.37631 0.0
C326 C 0.16623 0.88376 0.4198 0.0
C327 C 0.15795 0.8793 0.49305 0.0
O328 O 0.18277 0.8281 0.58359 0.0
O329 O 0.21429 0.86038 0.58077 0.0
O330 O 0.18318 0.8868 0.50235 0.0
O331 O 0.1516 0.85453 0.50551 0.0
H332 H 0.15511 0.87997 0.60028 0.0
H333 H 0.13364 0.90456 0.6559 0.0
H334 H 0.19158 0.86699 0.73682 0.0
H335 H 0.21308 0.84281 0.681 0.0
H336 H 0.26667 0.75175 0.56778 0.0
H337 H 0.23293 0.78784 0.55319 0.0
H338 H 0.29664 0.75656 0.44736 0.0
H339 H 0.26286 0.79263 0.43301 0.0
H340 H 0.17131 0.89022 0.35733 0.0
H341 H 0.09139 0.90978 0.40584 0.0
H342 H 0.10767 0.8969 0.47192 0.0
H343 H 0.18715 0.87649 0.42353 0.0
C344 C 0.14377 0.18838 0.63363 0.0
C345 C 0.12363 0.16814 0.62723 0.0
C346 C 0.11296 0.16807 0.69782 0.0
C347 C 0.10836 0.15805 0.65907 0.0
C348 C 0.13329 0.1883 0.704 0.0
C349 C 0.14856 0.19838 0.67211 0.0
U350 U 0.15785 0.19138 0.52316 0.0
O351 O 0.16712 0.22692 0.48512 0.0
O352 O 0.19675 0.19302 0.49025 0.0
C353 C 0.19216 0.21817 0.4776 0.0
C354 C 0.15952 0.19941 0.60022 0.0
C355 C 0.21423 0.23817 0.4858 0.0
C356 C 0.24917 0.25726 0.52988 0.0
C357 C 0.22826 0.23814 0.52235 0.0
C358 C 0.24179 0.27713 0.46483 0.0
C359 C 0.25614 0.27696 0.5012 0.0
C360 C 0.22105 0.25783 0.45718 0.0
C361 C 0.11383 0.14607 0.45413 0.0
C362 C 0.11439 0.14872 0.3821 0.0
C363 C 0.08843 0.11272 0.41458 0.0
C364 C 0.09675 0.12292 0.45158 0.0
C365 C 0.09703 0.12556 0.3794 0.0
C366 C 0.12279 0.15886 0.41922 0.0
C367 C 0.12178 0.15661 0.49349 0.0
O368 O 0.17527 0.18153 0.58175 0.0
O369 O 0.14542 0.21511 0.57588 0.0
O370 O 0.11631 0.1827 0.50028 0.0
O371 O 0.14625 0.14914 0.50616 0.0
H372 H 0.11972 0.16022 0.59759 0.0
H373 H 0.09309 0.14225 0.65339 0.0
H374 H 0.13707 0.1967 0.73339 0.0
H375 H 0.16397 0.21411 0.67745 0.0
H376 H 0.25968 0.25686 0.55831 0.0
H377 H 0.22305 0.22334 0.54508 0.0
H378 H 0.24688 0.29194 0.44207 0.0
H379 H 0.21034 0.25823 0.4289 0.0
H380 H 0.12155 0.1589 0.35554 0.0
H381 H 0.07475 0.09512 0.41356 0.0
H382 H 0.08963 0.11284 0.47828 0.0
H383 H 0.13613 0.17671 0.42072 0.0
C384 C 0.81285 0.13675 0.62588 0.0
C385 C 0.82687 0.1125 0.61571 0.0
C386 C 0.83451 0.10261 0.68575 0.0
C387 C 0.83756 0.09551 0.64543 0.0
C388 C 0.82049 0.12702 0.69564 0.0
C389 C 0.80976 0.14392 0.66593 0.0
U390 U 0.80573 0.15707 0.51745 0.0
O391 O 0.76946 0.17035 0.48348 0.0
O392 O 0.80479 0.19818 0.49021 0.0
C393 C 0.77911 0.19537 0.47847 0.0
C394 C 0.80151 0.15476 0.59503 0.0
C395 C 0.76046 0.21783 0.49016 0.0
C396 C 0.72767 0.23798 0.53628 0.0
C397 C 0.7458 0.21678 0.52599 0.0
C398 C 0.73924 0.26187 0.4756 0.0
C399 C 0.72413 0.26073 0.51112 0.0
C400 C 0.7572 0.24057 0.4652 0.0
C401 C 0.84444 0.11333 0.43964 0.0
C402 C 0.85764 0.12558 0.37236 0.0
C403 C 0.85678 0.07772 0.39212 0.0
C404 C 0.8483 0.08552 0.43011 0.0
C405 C 0.86165 0.09764 0.36282 0.0
C406 C 0.84898 0.13337 0.41045 0.0
C407 C 0.83631 0.12064 0.48045 0.0
O408 O 0.8196 0.17031 0.57684 0.0
O409 O 0.78379 0.14309 0.57063 0.0
O410 O 0.81035 0.11633 0.48934 0.0
O411 O 0.84603 0.14392 0.49486 0.0
H412 H 0.82955 0.10675 0.58483 0.0
H413 H 0.84847 0.077 0.63685 0.0
H414 H 0.81747 0.13287 0.7264 0.0
H415 H 0.79896 0.16258 0.67424 0.0
H416 H 0.7165 0.23665 0.56399 0.0
H417 H 0.74825 0.19948 0.54587 0.0
H418 H 0.73672 0.27896 0.45538 0.0
H419 H 0.76838 0.24174 0.43748 0.0
H420 H 0.86101 0.14136 0.3503 0.0
H421 H 0.86005 0.05608 0.38592 0.0
H422 H 0.845 0.06976 0.45226 0.0
H423 H 0.84598 0.15499 0.41713 0.0
C424 C 0.13089 0.11126 0.00831 0.0
C425 C 0.11608 0.10221 0.04153 0.0
C426 C 0.151 0.13188 0.01173 0.0
C427 C 0.15645 0.14397 0.04928 0.0
C428 C 0.14127 0.13535 0.08286 0.0
C429 C 0.1213 0.11454 0.07862 0.0
C430 C 0.16674 0.14039 0.97518 0.0
C431 C 0.14634 0.14788 0.12335 0.0
C432 C 0.2268 0.17712 0.06322 0.0
C433 C 0.22097 0.20501 0.0567 0.0
C434 C 0.20593 0.15712 0.06151 0.0
C435 C 0.1785 0.16518 0.0533 0.0
C436 C 0.17241 0.19334 0.04721 0.0
C437 C 0.19372 0.21289 0.04882 0.0
C438 C 0.21334 0.12728 0.06776 0.0
C439 C 0.14341 0.20279 0.03865 0.0
H440 H 0.12708 0.10194 0.97947 0.0
H441 H 0.10992 0.10784 0.10442 0.0
H442 H 0.16454 0.16285 0.97037 0.0
H443 H 0.18898 0.13614 0.97945 0.0
H444 H 0.1596 0.12942 0.948 0.0
H445 H 0.13211 0.13965 0.14616 0.0
H446 H 0.16779 0.14371 0.13292 0.0
H447 H 0.14388 0.17055 0.12204 0.0
H448 H 0.24783 0.17085 0.06893 0.0
H449 H 0.18901 0.23445 0.04431 0.0
H450 H 0.20854 0.11524 0.0405 0.0
H451 H 0.20086 0.11855 0.09216 0.0
H452 H 0.23547 0.12449 0.07507 0.0
H453 H 0.13599 0.19342 0.01047 0.0
H454 H 0.14191 0.22553 0.03617 0.0
H455 H 0.1294 0.19584 0.06253 0.0
C456 C 0.88735 0.12689 0.06381 0.0
C457 C 0.90025 0.11926 0.02819 0.0
C458 C 0.86665 0.14712 0.06435 0.0
C459 C 0.85878 0.16007 0.02847 0.0
C460 C 0.8717 0.15243 0.99248 0.0
C461 C 0.89215 0.13213 0.99277 0.0
C462 C 0.85316 0.15458 0.10325 0.0
C463 C 0.86409 0.16588 0.95359 0.0
C464 C 0.78995 0.19581 0.01481 0.0
C465 C 0.79746 0.22362 0.01784 0.0
C466 C 0.80947 0.17483 0.02003 0.0
C467 C 0.83723 0.18184 0.0281 0.0
C468 C 0.84476 0.20987 0.03241 0.0
C469 C 0.82476 0.23041 0.02736 0.0
C470 C 0.80057 0.1452 0.01561 0.0
C471 C 0.87417 0.21819 0.04074 0.0
H472 H 0.89355 0.1172 0.09131 0.0
H473 H 0.90195 0.1265 0.96502 0.0
H474 H 0.85394 0.17715 0.10819 0.0
H475 H 0.83114 0.14856 0.10225 0.0
H476 H 0.86306 0.14424 0.12892 0.0
H477 H 0.87614 0.15761 0.92822 0.0
H478 H 0.8419 0.16271 0.94722 0.0
H479 H 0.86764 0.1884 0.95561 0.0
H480 H 0.76878 0.19045 0.00805 0.0
H481 H 0.83072 0.25187 0.02945 0.0
H482 H 0.80754 0.13308 0.0416 0.0
H483 H 0.81028 0.13603 0.98888 0.0
H484 H 0.77788 0.14311 0.01268 0.0
H485 H 0.88219 0.20708 0.06705 0.0
H486 H 0.87628 0.24067 0.04611 0.0
H487 H 0.88728 0.21243 0.01511 0.0
C488 C 0.86128 0.89128 0.99886 0.0
C489 C 0.8794 0.89603 0.03074 0.0
C490 C 0.84171 0.87014 1.00002 0.0
C491 C 0.84036 0.85288 0.03367 0.0
C492 C 0.85873 0.85731 0.06591 0.0
C493 C 0.87778 0.87913 0.06433 0.0
C494 C 0.82247 0.86626 0.96506 0.0
C495 C 0.85824 0.83933 0.1023 0.0
C496 C 0.7725 0.81472 0.04351 0.0
C497 C 0.77845 0.7897 0.02442 0.0
C498 C 0.79285 0.835 0.0486 0.0
C499 C 0.81977 0.83014 0.03427 0.0
C500 C 0.82624 0.80438 0.01689 0.0
C501 C 0.8055 0.78451 0.01205 0.0
C502 C 0.7853 0.86207 0.0678 0.0
C503 C 0.85491 0.79814 0.00229 0.0
H504 H 0.86216 0.90434 0.97289 0.0
H505 H 0.89168 0.88264 0.08913 0.0
H506 H 0.82529 0.84544 0.95201 0.0
H507 H 0.80079 0.86777 0.97506 0.0
H508 H 0.8259 0.88175 0.94143 0.0
H509 H 0.87867 0.8389 0.11715 0.0
H510 H 0.84307 0.84777 0.12367 0.0
H511 H 0.85215 0.81786 0.09511 0.0
H512 H 0.75164 0.81892 0.05305 0.0
H513 H 0.81038 0.76498 0.99808 0.0
H514 H 0.78712 0.87887 0.04576 0.0
H515 H 0.79978 0.8668 0.09248 0.0
H516 H 0.76399 0.86202 0.07963 0.0
H517 H 0.85995 0.81177 0.977 0.0
H518 H 0.85715 0.77641 0.99239 0.0
H519 H 0.87016 0.80234 0.02618 0.0
C520 C 0.11589 0.87748 0.07088 0.0
C521 C 0.10237 0.88274 0.03477 0.0
C522 C 0.13759 0.85833 0.07293 0.0
C523 C 0.14579 0.84401 0.03814 0.0
C524 C 0.13218 0.84924 0.00173 0.0
C525 C 0.11079 0.86852 0.0005 0.0
C526 C 0.15178 0.85346 0.11223 0.0
C527 C 0.14012 0.83438 0.96393 0.0
C528 C 0.21629 0.81182 0.02439 0.0
C529 C 0.21044 0.78372 0.02878 0.0
C530 C 0.19577 0.83183 0.02961 0.0
C531 C 0.16865 0.82356 0.03916 0.0
C532 C 0.16289 0.79532 0.04531 0.0
C533 C 0.18387 0.77575 0.04016 0.0
C534 C 0.20284 0.86172 0.02314 0.0
C535 C 0.13422 0.78562 0.05522 0.0
H536 H 0.1096 0.88836 0.09751 0.0
H537 H 0.10047 0.87224 0.97244 0.0
H538 H 0.14985 0.83151 0.12064 0.0
H539 H 0.17407 0.85801 0.10957 0.0
H540 H 0.14311 0.86638 0.13646 0.0
H541 H 0.12739 0.84075 0.93809 0.0
H542 H 0.16204 0.83845 0.95697 0.0
H543 H 0.13784 0.81184 0.96789 0.0
H544 H 0.23689 0.81814 0.01624 0.0
H545 H 0.17916 0.75407 0.04336 0.0
H546 H 0.1952 0.87449 0.04818 0.0
H547 H 0.19257 0.86912 0.99573 0.0
H548 H 0.22535 0.86504 0.02012 0.0
H549 H 0.12576 0.79771 0.0804 0.0
H550 H 0.13371 0.76344 0.06302 0.0
H551 H 0.12046 0.78893 0.02931 0.0
C552 C 0.62577 0.6242 0.51345 0.0
C553 C 0.6171 0.6087 0.54618 0.0
C554 C 0.64533 0.64525 0.51776 0.0
C555 C 0.65674 0.65089 0.55568 0.0
C556 C 0.64766 0.63577 0.58904 0.0
C557 C 0.62786 0.61492 0.58392 0.0
C558 C 0.65423 0.66105 0.48148 0.0
C559 C 0.65935 0.64118 0.62995 0.0
C560 C 0.72744 0.68435 0.55514 0.0
C561 C 0.72102 0.71207 0.56219 0.0
C562 C 0.70678 0.66414 0.55405 0.0
C563 C 0.67897 0.67185 0.55984 0.0
C564 C 0.67239 0.69975 0.5675 0.0
C565 C 0.6935 0.71951 0.56871 0.0
C566 C 0.71468 0.63457 0.54616 0.0
C567 C 0.64298 0.70883 0.57341 0.0
H568 H 0.61745 0.61971 0.48421 0.0
H569 H 0.62138 0.60299 0.60934 0.0
H570 H 0.65173 0.68348 0.48663 0.0
H571 H 0.67637 0.65726 0.4757 0.0
H572 H 0.64232 0.65514 0.45452 0.0
H573 H 0.65018 0.62758 0.65279 0.0
H574 H 0.68195 0.63798 0.62975 0.0
H575 H 0.65567 0.6629 0.63866 0.0
H576 H 0.74871 0.67842 0.55068 0.0
H577 H 0.68839 0.74094 0.57385 0.0
H578 H 0.70525 0.62745 0.51785 0.0
H579 H 0.70666 0.62118 0.57008 0.0
H580 H 0.73732 0.63176 0.54424 0.0
H581 H 0.63098 0.70498 0.54583 0.0
H582 H 0.64143 0.73103 0.58113 0.0
H583 H 0.63324 0.69667 0.59735 0.0
C584 C 0.37823 0.61913 0.49676 0.0
C585 C 0.396 0.61507 0.52913 0.0
C586 C 0.35939 0.64096 0.49642 0.0
C587 C 0.35845 0.65939 0.52908 0.0
C588 C 0.37578 0.655 0.56235 0.0
C589 C 0.3943 0.63281 0.56204 0.0
C590 C 0.34099 0.64471 0.46059 0.0
C591 C 0.37549 0.6743 0.59764 0.0
C592 C 0.33121 0.7304 0.50406 0.0
C593 C 0.30384 0.72859 0.51677 0.0
C594 C 0.34951 0.70838 0.5093 0.0
C595 C 0.34011 0.68386 0.52735 0.0
C596 C 0.31271 0.68219 0.54123 0.0
C597 C 0.29492 0.70462 0.53588 0.0
C598 C 0.37868 0.71108 0.49453 0.0
C599 C 0.3019 0.65635 0.56038 0.0
H600 H 0.37925 0.6054 0.47132 0.0
H601 H 0.4081 0.62995 0.58702 0.0
H602 H 0.31915 0.6459 0.4699 0.0
H603 H 0.34607 0.66436 0.44567 0.0
H604 H 0.34317 0.62769 0.43866 0.0
H605 H 0.38863 0.66681 0.6224 0.0
H606 H 0.38301 0.69487 0.58849 0.0
H607 H 0.35419 0.67699 0.60872 0.0
H608 H 0.33828 0.74904 0.48978 0.0
H609 H 0.2737 0.70305 0.54545 0.0
H610 H 0.38219 0.69627 0.46987 0.0
H611 H 0.39345 0.70595 0.51859 0.0
H612 H 0.38327 0.73213 0.4837 0.0
H613 H 0.30167 0.63932 0.53828 0.0
H614 H 0.28073 0.65905 0.57211 0.0
H615 H 0.31561 0.64997 0.58509 0.0
C616 C 0.38233 0.37981 0.49176 0.0
C617 C 0.38669 0.39549 0.52634 0.0
C618 C 0.36184 0.35954 0.49005 0.0
C619 C 0.34507 0.35493 0.52364 0.0
C620 C 0.3499 0.37004 0.55909 0.0
C621 C 0.37078 0.39008 0.56009 0.0
C622 C 0.35765 0.3436 0.45184 0.0
C623 C 0.33237 0.3658 0.59546 0.0
C624 C 0.27463 0.32504 0.50025 0.0
C625 C 0.27848 0.29714 0.50899 0.0
C626 C 0.29588 0.34422 0.50616 0.0
C627 C 0.3217 0.3352 0.52075 0.0
C628 C 0.32556 0.30713 0.53029 0.0
C629 C 0.30384 0.28845 0.52446 0.0
C630 C 0.29086 0.37404 0.49606 0.0
C631 C 0.35288 0.29669 0.54546 0.0
H632 H 0.39475 0.38361 0.46568 0.0
H633 H 0.374 0.40211 0.5869 0.0
H634 H 0.35813 0.32117 0.45773 0.0
H635 H 0.33713 0.34843 0.43913 0.0
H636 H 0.37355 0.34846 0.4293 0.0
H637 H 0.34005 0.3777 0.62151 0.0
H638 H 0.31093 0.3723 0.58903 0.0
H639 H 0.33171 0.34369 0.60338 0.0
H640 H 0.25493 0.33189 0.48879 0.0
H641 H 0.30695 0.26684 0.53096 0.0
H642 H 0.30441 0.38023 0.47121 0.0
H643 H 0.29606 0.38736 0.52189 0.0
H644 H 0.26916 0.37797 0.4873 0.0
H645 H 0.36882 0.29945 0.52232 0.0
H646 H 0.35207 0.27458 0.55359 0.0
H647 H 0.35951 0.30876 0.57188 0.0
C648 C 0.60723 0.37162 0.49784 0.0
C649 C 0.60036 0.38604 0.53266 0.0
C650 C 0.62792 0.35157 0.49775 0.0
C651 C 0.64239 0.3458 0.53329 0.0
C652 C 0.63578 0.36036 0.56856 0.0
C653 C 0.61475 0.38026 0.56788 0.0
C654 C 0.63416 0.3364 0.45952 0.0
C655 C 0.65092 0.35493 0.60694 0.0
C656 C 0.67748 0.27602 0.53383 0.0
C657 C 0.70406 0.28278 0.52102 0.0
C658 C 0.65751 0.29648 0.53979 0.0
C659 C 0.66433 0.3244 0.533 0.0
C660 C 0.69149 0.33145 0.52187 0.0
C661 C 0.71099 0.31055 0.51583 0.0
C662 C 0.62873 0.28807 0.55133 0.0
C663 C 0.69967 0.36099 0.51473 0.0
H664 H 0.59624 0.37579 0.47046 0.0
H665 H 0.60963 0.3913 0.59492 0.0
H666 H 0.65597 0.33965 0.45116 0.0
H667 H 0.63119 0.31396 0.46371 0.0
H668 H 0.62088 0.3432 0.4345 0.0
H669 H 0.64345 0.36811 0.63171 0.0
H670 H 0.64846 0.33305 0.61545 0.0
H671 H 0.67326 0.35867 0.60291 0.0
H672 H 0.67194 0.25458 0.5376 0.0
H673 H 0.73163 0.31591 0.50651 0.0
H674 H 0.61443 0.29205 0.52623 0.0
H675 H 0.62152 0.30049 0.57698 0.0
H676 H 0.62742 0.26593 0.55914 0.0
H677 H 0.68893 0.36877 0.48792 0.0
H678 H 0.72219 0.3633 0.51032 0.0
H679 H 0.69333 0.37414 0.54013 0.0
C680 C 0.00769 0.07331 0.19713 0.0
C681 C 0.02218 0.0695 0.16156 0.0
C682 C 0.02135 0.08081 0.23234 0.0
C683 C 0.05017 0.08505 0.23188 0.0
C684 C 0.06503 0.08048 0.19637 0.0
C685 C 0.05082 0.07273 0.16167 0.0
C686 C 0.00468 0.08508 0.26964 0.0
C687 C 0.09579 0.08468 0.19458 0.0
C688 C 0.07769 0.13365 0.31131 0.0
C689 C 0.08713 0.11522 0.34023 0.0
C690 C 0.06635 0.12409 0.27539 0.0
C691 C 0.06443 0.09542 0.26819 0.0
C692 C 0.07471 0.07673 0.2967 0.0
C693 C 0.08592 0.08686 0.33239 0.0
C694 C 0.0556 0.14466 0.24569 0.0
C695 C 0.0731 0.04604 0.29004 0.0
H696 H 0.98554 0.07062 0.19747 0.0
H697 H 0.06208 0.07004 0.13443 0.0
H698 H 0.01532 0.07635 0.29591 0.0
H699 H 0.002 0.10747 0.27499 0.0
H700 H 0.98401 0.07549 0.26726 0.0
H701 H 0.10471 0.07649 0.16658 0.0
H702 H 0.10045 0.107 0.19655 0.0
H703 H 0.10611 0.07455 0.22004 0.0
H704 H 0.07832 0.15558 0.31732 0.0
H705 H 0.09355 0.07252 0.35438 0.0
H706 H 0.033 0.14221 0.24237 0.0
H707 H 0.06489 0.14084 0.21612 0.0
H708 H 0.06003 0.16624 0.25473 0.0
H709 H 0.05123 0.03951 0.28855 0.0
H710 H 0.08349 0.03437 0.31408 0.0
H711 H 0.08268 0.04044 0.26124 0.0
C712 C 0.9056 0.05077 0.14165 0.0
C713 C 0.92359 0.02852 0.14592 0.0
C714 C 0.89579 0.06499 0.17522 0.0
C715 C 0.90488 0.05709 0.21356 0.0
C716 C 0.92448 0.03571 0.21751 0.0
C717 C 0.93331 0.02144 0.18362 0.0
C718 C 0.87506 0.08776 0.16978 0.0
C719 C 0.93527 0.02709 0.25767 0.0
C720 C 0.8932 0.10266 0.30428 0.0
C721 C 0.87129 0.089 0.32278 0.0
C722 C 0.90402 0.09301 0.26812 0.0
C723 C 0.89237 0.06938 0.24983 0.0
C724 C 0.86951 0.05626 0.26756 0.0
C725 C 0.85933 0.06616 0.30382 0.0
C726 C 0.92794 0.10812 0.24981 0.0
C727 C 0.85609 0.03139 0.24855 0.0
H728 H 0.89812 0.05611 0.11231 0.0
H729 H 0.94755 0.00441 0.18665 0.0
H730 H 0.85731 0.08493 0.18997 0.0
H731 H 0.88482 0.10775 0.17743 0.0
H732 H 0.86722 0.08876 0.13879 0.0
H733 H 0.95314 0.01294 0.25519 0.0
H734 H 0.94152 0.04538 0.27539 0.0
H735 H 0.91873 0.01643 0.27423 0.0
H736 H 0.90251 0.12036 0.31873 0.0
H737 H 0.84204 0.05586 0.31756 0.0
H738 H 0.92 0.12227 0.22671 0.0
H739 H 0.94255 0.09378 0.23527 0.0
H740 H 0.93933 0.12058 0.27222 0.0
H741 H 0.85025 0.03602 0.21739 0.0
H742 H 0.83742 0.02467 0.26478 0.0
H743 H 0.87089 0.01402 0.24776 0.0
C744 C 0.96596 0.88897 0.15032 0.0
C745 C 0.96595 0.91723 0.14262 0.0
C746 C 0.94986 0.87802 0.18098 0.0
C747 C 0.93386 0.8959 0.20494 0.0
C748 C 0.93356 0.92447 0.19683 0.0
C749 C 0.9498 0.93478 0.16586 0.0
C750 C 0.95035 0.84739 0.18821 0.0
C751 C 0.91719 0.94438 0.2219 0.0
C752 C 0.87708 0.8649 0.26815 0.0
C753 C 0.89016 0.86249 0.30524 0.0
C754 C 0.89098 0.87585 0.23529 0.0
C755 C 0.91856 0.88479 0.23962 0.0
C756 C 0.93179 0.88271 0.27703 0.0
C757 C 0.91748 0.8715 0.30929 0.0
C758 C 0.87602 0.8782 0.19609 0.0
C759 C 0.96114 0.89218 0.28291 0.0
H760 H 0.97875 0.87547 0.1325 0.0
H761 H 0.95097 0.95671 0.16112 0.0
H762 H 0.95883 0.84319 0.21821 0.0
H763 H 0.92908 0.83906 0.18732 0.0
H764 H 0.96295 0.8362 0.16592 0.0
H765 H 0.91484 0.96467 0.20724 0.0
H766 H 0.89642 0.9361 0.22836 0.0
H767 H 0.9279 0.94762 0.25072 0.0
H768 H 0.85583 0.8585 0.26487 0.0
H769 H 0.92789 0.86942 0.33764 0.0
H770 H 0.88895 0.87015 0.17159 0.0
H771 H 0.8719 0.9002 0.18975 0.0
H772 H 0.85611 0.86696 0.19606 0.0
H773 H 0.97502 0.88028 0.26316 0.0
H774 H 0.96827 0.88971 0.31407 0.0
H775 H 0.96309 0.91417 0.27465 0.0
C776 C 0.10276 0.97592 0.17022 0.0
C777 C 0.07671 0.97015 0.15429 0.0
C778 C 0.11242 0.96217 0.20403 0.0
C779 C 0.09543 0.94238 0.22259 0.0
C780 C 0.06946 0.93582 0.20578 0.0
C781 C 0.06038 0.94995 0.17192 0.0
C782 C 0.14018 0.96987 0.22105 0.0
C783 C 0.05057 0.91508 0.22483 0.0
C784 C 0.12772 0.89687 0.30177 0.0
C785 C 0.12075 0.91113 0.3367 0.0
C786 C 0.1193 0.90651 0.26432 0.0
C787 C 0.10358 0.93095 0.26182 0.0
C788 C 0.09629 0.94525 0.29696 0.0
C789 C 0.10501 0.93524 0.33387 0.0
C790 C 0.12741 0.89071 0.22744 0.0
C791 C 0.07962 0.97145 0.29554 0.0
H792 H 0.11535 0.99174 0.15674 0.0
H793 H 0.03983 0.94649 0.16083 0.0
H794 H 0.13738 0.98071 0.24984 0.0
H795 H 0.15255 0.95114 0.22692 0.0
H796 H 0.15197 0.98351 0.20092 0.0
H797 H 0.03264 0.90994 0.20556 0.0
H798 H 0.06191 0.89587 0.23165 0.0
H799 H 0.04277 0.9235 0.25334 0.0
H800 H 0.13962 0.87807 0.30371 0.0
H801 H 0.09994 0.94667 0.36057 0.0
H802 H 0.1403 0.90388 0.20814 0.0
H803 H 0.10878 0.88503 0.21007 0.0
H804 H 0.13905 0.87168 0.23447 0.0
H805 H 0.09064 0.98711 0.2778 0.0
H806 H 0.07563 0.98009 0.32558 0.0
H807 H 0.05959 0.96755 0.28064 0.0
C808 C 0.09527 0.94607 0.90176 0.0
C809 C 0.09026 0.97445 0.89954 0.0
C810 C 0.10567 0.93145 0.86905 0.0
C811 C 0.11117 0.94556 0.83325 0.0
C812 C 0.10549 0.97405 0.83049 0.0
C813 C 0.09511 0.98816 0.86367 0.0
C814 C 0.11135 0.90105 0.8731 0.0
C815 C 0.11097 0.98979 0.79277 0.0
C816 C 0.1646 0.91525 0.76368 0.0
C817 C 0.14808 0.90263 0.73456 0.0
C818 C 0.15283 0.92929 0.79591 0.0
C819 C 0.12383 0.93073 0.79916 0.0
C820 C 0.10703 0.91809 0.76988 0.0
C821 C 0.11935 0.90422 0.73787 0.0
C822 C 0.17144 0.94265 0.82644 0.0
C823 C 0.07605 0.91911 0.77248 0.0
H824 H 0.09148 0.93528 0.9293 0.0
H825 H 0.09116 0.01005 0.86161 0.0
H826 H 0.10081 0.8894 0.84904 0.0
H827 H 0.13375 0.89718 0.87007 0.0
H828 H 0.10448 0.89285 0.90216 0.0
H829 H 0.10423 0.01159 0.79488 0.0
H830 H 0.1333 0.98938 0.78609 0.0
H831 H 0.10016 0.97989 0.76736 0.0
H832 H 0.1868 0.91442 0.76099 0.0
H833 H 0.10649 0.89425 0.71571 0.0
H834 H 0.16723 0.93404 0.85626 0.0
H835 H 0.16722 0.96507 0.82802 0.0
H836 H 0.19358 0.93962 0.8196 0.0
H837 H 0.06919 0.91011 0.801 0.0
H838 H 0.0659 0.9078 0.74768 0.0
H839 H 0.06895 0.94079 0.77206 0.0
C840 C 0.02628 0.09322 0.86845 0.0
C841 C 0.01455 0.11271 0.8942 0.0
C842 C 0.04286 0.10142 0.83659 0.0
C843 C 0.04771 0.12978 0.83023 0.0
C844 C 0.03606 0.14953 0.85623 0.0
C845 C 0.01966 0.14076 0.88793 0.0
C846 C 0.05506 0.07975 0.80959 0.0
C847 C 0.04078 0.17997 0.85039 0.0
C848 C 0.10889 0.15195 0.76823 0.0
C849 C 0.09637 0.15771 0.73159 0.0
C850 C 0.09335 0.14259 0.80052 0.0
C851 C 0.06461 0.1389 0.79603 0.0
C852 C 0.05188 0.14447 0.75906 0.0
C853 C 0.0679 0.15383 0.7273 0.0
C854 C 0.10765 0.13679 0.83949 0.0
C855 C 0.02126 0.14087 0.75319 0.0
H856 H 0.02252 0.0715 0.87318 0.0
H857 H 0.0107 0.15595 0.90768 0.0
H858 H 0.0473 0.08259 0.77885 0.0
H859 H 0.07777 0.08194 0.80867 0.0
H860 H 0.04997 0.05853 0.81928 0.0
H861 H 0.03053 0.19266 0.87355 0.0
H862 H 0.06315 0.18454 0.85098 0.0
H863 H 0.03286 0.18628 0.82086 0.0
H864 H 0.13093 0.15456 0.77158 0.0
H865 H 0.05804 0.1586 0.69925 0.0
H866 H 0.10395 0.11516 0.8484 0.0
H867 H 0.09906 0.15016 0.86319 0.0
H868 H 0.13021 0.14031 0.83792 0.0
H869 H 0.01518 0.11944 0.76023 0.0
H870 H 0.01463 0.14551 0.72233 0.0
H871 H 0.00995 0.15463 0.77384 0.0
C872 C 0.86081 0.01314 0.87829 0.0
C873 C 0.88729 0.0019 0.88128 0.0
C874 C 0.853 0.02875 0.84521 0.0
C875 C 0.8721 0.03314 0.81423 0.0
C876 C 0.89871 0.02143 0.81667 0.0
C877 C 0.90601 0.00592 0.85019 0.0
C878 C 0.82444 0.04097 0.84376 0.0
C879 C 0.91956 0.02556 0.78411 0.0
C880 C 0.84214 0.05593 0.71534 0.0
C881 C 0.84561 0.08457 0.71751 0.0
C882 C 0.85133 0.03882 0.74614 0.0
C883 C 0.86428 0.05064 0.77989 0.0
C884 C 0.86849 0.07945 0.78177 0.0
C885 C 0.8591 0.09605 0.75058 0.0
C886 C 0.84647 0.00818 0.74311 0.0
C887 C 0.8824 0.09281 0.81714 0.0
H888 H 0.84623 0.01013 0.90216 0.0
H889 H 0.92643 0.99706 0.85211 0.0
H890 H 0.82581 0.06375 0.84285 0.0
H891 H 0.81365 0.03418 0.81631 0.0
H892 H 0.81182 0.03503 0.86979 0.0
H893 H 0.93953 0.01544 0.79081 0.0
H894 H 0.91146 0.01715 0.7557 0.0
H895 H 0.92329 0.04786 0.77964 0.0
H896 H 0.83153 0.04694 0.69004 0.0
H897 H 0.86226 0.11811 0.75211 0.0
H898 H 0.83223 0.00159 0.76691 0.0
H899 H 0.86607 0.99689 0.74752 0.0
H900 H 0.83753 0.00206 0.71395 0.0
H901 H 0.86991 0.08943 0.8442 0.0
H902 H 0.88527 0.11531 0.81317 0.0
H903 H 0.90282 0.08327 0.82239 0.0
C904 C 0.99355 0.91542 0.85079 0.0
C905 C 0.97846 0.92201 0.88498 0.0
C906 C 0.98024 0.90968 0.81462 0.0
C907 C 0.95116 0.91101 0.81237 0.0
C908 C 0.93583 0.91815 0.84657 0.0
C909 C 0.94966 0.92332 0.88253 0.0
C910 C 0.99734 0.90216 0.77882 0.0
C911 C 0.90483 0.92007 0.84529 0.0
C912 C 0.92018 0.91721 0.70898 0.0
C913 C 0.9135 0.88974 0.70018 0.0
C914 C 0.93179 0.9246 0.7458 0.0
C915 C 0.93687 0.904 0.77446 0.0
C916 C 0.92955 0.87635 0.76615 0.0
C917 C 0.91798 0.86956 0.72913 0.0
C918 C 0.93908 0.95433 0.75373 0.0
C919 C 0.93474 0.85379 0.79592 0.0
H920 H 0.01582 0.91445 0.85233 0.0
H921 H 0.93783 0.92822 0.90883 0.0
H922 H 0.98936 0.88314 0.76449 0.0
H923 H 0.99607 0.91889 0.7566 0.0
H924 H 0.01927 0.89885 0.78666 0.0
H925 H 0.89597 0.92587 0.87453 0.0
H926 H 0.89841 0.93561 0.82309 0.0
H927 H 0.89593 0.90005 0.83583 0.0
H928 H 0.91639 0.93298 0.68698 0.0
H929 H 0.9132 0.84824 0.7224 0.0
H930 H 0.96168 0.9564 0.75752 0.0
H931 H 0.92943 0.96143 0.78177 0.0
H932 H 0.93236 0.96807 0.72929 0.0
H933 H 0.95719 0.85175 0.80131 0.0
H934 H 0.92662 0.83358 0.7857 0.0
H935 H 0.92506 0.85908 0.82475 0.0
C936 C 0.52173 0.56115 0.6861 0.0
C937 C 0.5274 0.5733 0.64949 0.0
C938 C 0.5359 0.56942 0.72048 0.0
C939 C 0.55533 0.5911 0.71828 0.0
C940 C 0.56171 0.60281 0.68098 0.0
C941 C 0.54781 0.5935 0.6468 0.0
C942 C 0.52952 0.55551 0.75936 0.0
C943 C 0.58238 0.62584 0.67748 0.0
C944 C 0.56127 0.63266 0.81343 0.0
C945 C 0.58578 0.62262 0.82991 0.0
C946 C 0.55175 0.62322 0.77645 0.0
C947 C 0.56695 0.60299 0.75554 0.0
C948 C 0.59218 0.59334 0.77143 0.0
C949 C 0.6014 0.60347 0.80834 0.0
C950 C 0.52519 0.63467 0.75995 0.0
C951 C 0.60964 0.57243 0.74983 0.0
H952 H 0.50599 0.54536 0.68784 0.0
H953 H 0.55191 0.60293 0.61832 0.0
H954 H 0.54887 0.54885 0.77401 0.0
H955 H 0.51926 0.5703 0.77967 0.0
H956 H 0.51591 0.53732 0.75536 0.0
H957 H 0.58434 0.63334 0.64651 0.0
H958 H 0.5763 0.64336 0.69681 0.0
H959 H 0.60282 0.61864 0.68783 0.0
H960 H 0.54943 0.64791 0.82961 0.0
H961 H 0.62044 0.59571 0.82087 0.0
H962 H 0.50979 0.61795 0.75666 0.0
H963 H 0.52876 0.64332 0.72997 0.0
H964 H 0.51635 0.65101 0.77924 0.0
H965 H 0.59721 0.5585 0.7307 0.0
H966 H 0.62172 0.55979 0.77104 0.0
H967 H 0.62445 0.58344 0.73058 0.0
C968 C 0.42538 0.51414 0.69102 0.0
C969 C 0.42689 0.52721 0.65403 0.0
C970 C 0.41966 0.52907 0.72578 0.0
C971 C 0.41463 0.55771 0.72345 0.0
C972 C 0.41665 0.57113 0.68634 0.0
C973 C 0.42281 0.55568 0.65212 0.0
C974 C 0.41825 0.51384 0.7647 0.0
C975 C 0.41146 0.60162 0.68252 0.0
C976 C 0.37036 0.58708 0.80613 0.0
C977 C 0.39021 0.59825 0.83195 0.0
C978 C 0.37799 0.57462 0.7701 0.0
C979 C 0.40614 0.57325 0.7596 0.0
C980 C 0.42621 0.58524 0.78489 0.0
C981 C 0.41801 0.59764 0.82071 0.0
C982 C 0.35599 0.562 0.74397 0.0
C983 C 0.45645 0.58398 0.77483 0.0
H984 H 0.42873 0.49212 0.6929 0.0
H985 H 0.42361 0.56577 0.62378 0.0
H986 H 0.42668 0.52633 0.78959 0.0
H987 H 0.39643 0.50912 0.77149 0.0
H988 H 0.42981 0.49418 0.76333 0.0
H989 H 0.41758 0.60951 0.65295 0.0
H990 H 0.38922 0.60581 0.68682 0.0
H991 H 0.42288 0.61325 0.70574 0.0
H992 H 0.3489 0.58714 0.81476 0.0
H993 H 0.43344 0.60654 0.84024 0.0
H994 H 0.35879 0.53935 0.74274 0.0
H995 H 0.35783 0.5698 0.71318 0.0
H996 H 0.33493 0.56646 0.75494 0.0
H997 H 0.46329 0.5622 0.77402 0.0
H998 H 0.46936 0.59536 0.79671 0.0
H999 H 0.46007 0.59265 0.74487 0.0
C1000 C 0.48401 0.41152 0.68857 0.0
C1001 C 0.47133 0.4228 0.65479 0.0
C1002 C 0.46839 0.40059 0.71977 0.0
C1003 C 0.4393 0.4011 0.71745 0.0
C1004 C 0.42635 0.41284 0.68382 0.0
C1005 C 0.44253 0.42346 0.65298 0.0
C1006 C 0.4831 0.38855 0.75524 0.0
C1007 C 0.3954 0.41362 0.67991 0.0
C1008 C 0.40039 0.34913 0.78006 0.0
C1009 C 0.39242 0.36513 0.8129 0.0
C1010 C 0.4153 0.36067 0.74858 0.0
C1011 C 0.42252 0.38889 0.74991 0.0
C1012 C 0.4143 0.40523 0.78272 0.0
C1013 C 0.39936 0.39318 0.81377 0.0
C1014 C 0.42376 0.34252 0.7142 0.0
C1015 C 0.42125 0.43546 0.78492 0.0
H1016 H 0.50628 0.41106 0.69065 0.0
H1017 H 0.43251 0.43193 0.6273 0.0
H1018 H 0.47993 0.40209 0.78147 0.0
H1019 H 0.47461 0.36801 0.76257 0.0
H1020 H 0.50556 0.38638 0.75016 0.0
H1021 H 0.38856 0.42619 0.65423 0.0
H1022 H 0.38743 0.39238 0.67587 0.0
H1023 H 0.38597 0.42212 0.7073 0.0
H1024 H 0.39547 0.32738 0.77933 0.0
H1025 H 0.3929 0.40582 0.83866 0.0
H1026 H 0.44654 0.34181 0.71229 0.0
H1027 H 0.41602 0.35121 0.68588 0.0
H1028 H 0.4159 0.32116 0.71709 0.0
H1029 H 0.44388 0.43834 0.78362 0.0
H1030 H 0.41345 0.44536 0.81249 0.0
H1031 H 0.41224 0.4462 0.75896 0.0
C1032 C 0.57301 0.44847 0.66126 0.0
C1033 C 0.57176 0.47727 0.66216 0.0
C1034 C 0.58052 0.43347 0.69517 0.0
C1035 C 0.58718 0.44768 0.73074 0.0
C1036 C 0.58542 0.47674 0.73207 0.0
C1037 C 0.57776 0.49116 0.69782 0.0
C1038 C 0.58167 0.40246 0.69279 0.0
C1039 C 0.59222 0.49267 0.76949 0.0
C1040 C 0.58769 0.41347 0.83183 0.0
C1041 C 0.616 0.41013 0.83869 0.0
C1042 C 0.57787 0.42445 0.79599 0.0
C1043 C 0.59683 0.43247 0.76641 0.0
C1044 C 0.62534 0.42806 0.77245 0.0
C1045 C 0.63458 0.41692 0.80849 0.0
C1046 C 0.5473 0.42876 0.79077 0.0
C1047 C 0.6462 0.43632 0.74159 0.0
H1048 H 0.56876 0.43762 0.63391 0.0
H1049 H 0.57664 0.51343 0.69896 0.0
H1050 H 0.60302 0.39534 0.69827 0.0
H1051 H 0.56849 0.39338 0.71616 0.0
H1052 H 0.57477 0.39449 0.66339 0.0
H1053 H 0.58795 0.51498 0.76647 0.0
H1054 H 0.58013 0.48471 0.79483 0.0
H1055 H 0.61432 0.48999 0.77692 0.0
H1056 H 0.57318 0.40791 0.85482 0.0
H1057 H 0.65648 0.41466 0.81368 0.0
H1058 H 0.54067 0.4237 0.76003 0.0
H1059 H 0.54236 0.45074 0.79622 0.0
H1060 H 0.53518 0.41614 0.81184 0.0
H1061 H 0.64065 0.42739 0.71224 0.0
H1062 H 0.66736 0.4296 0.74949 0.0
H1063 H 0.6462 0.45904 0.73839 0.0
C1064 C 0.59932 0.49503 0.36238 0.0
C1065 C 0.61787 0.50081 0.39338 0.0
C1066 C 0.60765 0.48019 0.32863 0.0
C1067 C 0.63509 0.47062 0.32604 0.0
C1068 C 0.65398 0.47664 0.35701 0.0
C1069 C 0.64516 0.4917 0.39025 0.0
C1070 C 0.58695 0.47436 0.29608 0.0
C1071 C 0.68342 0.46677 0.35535 0.0
C1072 C 0.65148 0.40837 0.26187 0.0
C1073 C 0.66334 0.42056 0.22836 0.0
C1074 C 0.64173 0.42447 0.29352 0.0
C1075 C 0.64393 0.45348 0.29166 0.0
C1076 C 0.65548 0.46596 0.25767 0.0
C1077 C 0.66503 0.44934 0.22639 0.0
C1078 C 0.62938 0.41041 0.32917 0.0
C1079 C 0.65823 0.49683 0.2547 0.0
H1080 H 0.57818 0.50193 0.36456 0.0
H1081 H 0.65964 0.49608 0.41402 0.0
H1082 H 0.59504 0.48131 0.26705 0.0
H1083 H 0.58335 0.45187 0.29372 0.0
H1084 H 0.56691 0.4847 0.30152 0.0
H1085 H 0.69573 0.4739 0.3813 0.0
H1086 H 0.68388 0.44395 0.35444 0.0
H1087 H 0.6934 0.47419 0.32783 0.0
H1088 H 0.64971 0.38616 0.26327 0.0
H1089 H 0.67439 0.45886 0.20072 0.0
H1090 H 0.60824 0.41818 0.33444 0.0
H1091 H 0.64173 0.41525 0.3561 0.0
H1092 H 0.62847 0.38769 0.32549 0.0
H1093 H 0.63793 0.50677 0.25922 0.0
H1094 H 0.66651 0.50337 0.22552 0.0
H1095 H 0.67215 0.50455 0.27846 0.0
C1096 C 0.5366 0.56016 0.36656 0.0
C1097 C 0.50964 0.56818 0.37567 0.0
C1098 C 0.55099 0.57232 0.33514 0.0
C1099 C 0.53776 0.59238 0.31144 0.0
C1100 C 0.51008 0.59958 0.31925 0.0
C1101 C 0.49644 0.58758 0.35149 0.0
C1102 C 0.58045 0.56378 0.32789 0.0
C1103 C 0.49509 0.62046 0.29415 0.0
C1104 C 0.58298 0.64498 0.26025 0.0
C1105 C 0.5848 0.63416 0.22162 0.0
C1106 C 0.5676 0.63165 0.28959 0.0
C1107 C 0.55337 0.60704 0.28005 0.0
C1108 C 0.55475 0.59618 0.24105 0.0
C1109 C 0.57051 0.60982 0.21231 0.0
C1110 C 0.56708 0.64356 0.33111 0.0
C1111 C 0.53988 0.56995 0.22989 0.0
H1112 H 0.5468 0.54492 0.38469 0.0
H1113 H 0.47555 0.59376 0.35813 0.0
H1114 H 0.58092 0.54811 0.30381 0.0
H1115 H 0.59339 0.5814 0.3186 0.0
H1116 H 0.58987 0.55463 0.35485 0.0
H1117 H 0.47314 0.62261 0.30272 0.0
H1118 H 0.5052 0.64084 0.29715 0.0
H1119 H 0.49607 0.61443 0.26235 0.0
H1120 H 0.59358 0.66397 0.26759 0.0
H1121 H 0.57208 0.60109 0.18272 0.0
H1122 H 0.57576 0.62845 0.35234 0.0
H1123 H 0.54555 0.64769 0.34023 0.0
H1124 H 0.57903 0.663 0.33361 0.0
H1125 H 0.54816 0.55261 0.24757 0.0
H1126 H 0.54202 0.56484 0.19785 0.0
H1127 H 0.51768 0.57181 0.23697 0.0
C1128 C 0.40528 0.51173 0.36214 0.0
C1129 C 0.43362 0.50735 0.36694 0.0
C1130 C 0.39507 0.52798 0.33114 0.0
C1131 C 0.41362 0.54014 0.3041 0.0
C1132 C 0.44222 0.53519 0.30802 0.0
C1133 C 0.4519 0.51884 0.33943 0.0
C1134 C 0.36442 0.53261 0.32785 0.0
C1135 C 0.46256 0.54725 0.27914 0.0
C1136 C 0.38202 0.56575 0.20772 0.0
C1137 C 0.37788 0.59373 0.21631 0.0
C1138 C 0.39454 0.54822 0.23542 0.0
C1139 C 0.40296 0.55886 0.27275 0.0
C1140 C 0.39952 0.58723 0.28119 0.0
C1141 C 0.38702 0.60431 0.25289 0.0
C1142 C 0.39754 0.51809 0.2253 0.0
C1143 C 0.40835 0.59942 0.32057 0.0
H1144 H 0.39096 0.50279 0.38305 0.0
H1145 H 0.47382 0.51535 0.34267 0.0
H1146 H 0.35978 0.55484 0.33143 0.0
H1147 H 0.35699 0.52627 0.29798 0.0
H1148 H 0.3527 0.521 0.35055 0.0
H1149 H 0.48421 0.5427 0.28749 0.0
H1150 H 0.45861 0.53881 0.24897 0.0
H1151 H 0.45989 0.56988 0.27745 0.0
H1152 H 0.37471 0.55732 0.17973 0.0
H1153 H 0.38432 0.62599 0.25948 0.0
H1154 H 0.38151 0.50628 0.24124 0.0
H1155 H 0.41789 0.51016 0.2349 0.0
H1156 H 0.39504 0.51412 0.19296 0.0
H1157 H 0.39533 0.59096 0.34461 0.0
H1158 H 0.40665 0.62221 0.32111 0.0
H1159 H 0.42993 0.59365 0.32726 0.0
C1160 C 0.48766 0.42382 0.35686 0.0
C1161 C 0.47445 0.42011 0.39342 0.0
C1162 C 0.47406 0.41807 0.32092 0.0
C1163 C 0.44654 0.40851 0.32151 0.0
C1164 C 0.43277 0.40564 0.35823 0.0
C1165 C 0.44693 0.41136 0.39376 0.0
C1166 C 0.48938 0.42162 0.28234 0.0
C1167 C 0.40325 0.39606 0.36003 0.0
C1168 C 0.40679 0.4122 0.22415 0.0
C1169 C 0.40943 0.38517 0.20973 0.0
C1170 C 0.41805 0.41995 0.26107 0.0
C1171 C 0.43269 0.40032 0.28375 0.0
C1172 C 0.43503 0.37292 0.26963 0.0
C1173 C 0.4233 0.36566 0.23289 0.0
C1174 C 0.41481 0.44932 0.27522 0.0
C1175 C 0.45056 0.3514 0.29289 0.0
H1176 H 0.50884 0.4308 0.35627 0.0
H1177 H 0.43649 0.40864 0.42183 0.0
H1178 H 0.49087 0.40153 0.26668 0.0
H1179 H 0.47795 0.43583 0.2626 0.0
H1180 H 0.5105 0.42985 0.28695 0.0
H1181 H 0.3948 0.3971 0.39061 0.0
H1182 H 0.39017 0.40879 0.34026 0.0
H1183 H 0.4018 0.37449 0.34927 0.0
H1184 H 0.39587 0.42731 0.20656 0.0
H1185 H 0.42571 0.34485 0.22172 0.0
H1186 H 0.43432 0.46066 0.27036 0.0
H1187 H 0.41023 0.45023 0.30746 0.0
H1188 H 0.39813 0.46006 0.25892 0.0
H1189 H 0.47243 0.35765 0.2961 0.0
H1190 H 0.44977 0.33082 0.2784 0.0
H1191 H 0.44193 0.34966 0.32323 0.0
loop_
_geom_bond_atom_site_label_1
_geom_bond_atom_site_label_2
_geom_bond_distance
_geom_bond_site_symmetry_2
_ccdc_geom_bond_type
Zn0 O2 1.933 1_556 S
Zn0 O20 1.985 . S
Zn0 O31 1.955 . S
Zn1 O2 1.911 . S
Zn1 O21 1.970 . S
Zn1 O37 1.945 . S
Zn1 O44 1.981 . S
O2 Zn0 1.933 1_554 S
O2 Zn1 1.911 . S
O2 H3 0.841 1_655 S
H3 O2 0.841 1_455 S
C4 O5 1.246 . S
C4 O33 1.276 1_545 S
O5 C4 1.246 . S
Zn6 O8 1.911 . S
Zn6 O23 1.970 . S
Zn6 O40 1.945 . S
Zn6 O47 1.981 . S
Zn7 O8 1.933 1_556 S
Zn7 O22 1.985 . S
Zn7 O29 1.955 . S
O8 Zn6 1.911 . S
O8 Zn7 1.933 1_554 S
O8 H9 0.841 1_455 S
H9 O8 0.841 1_655 S
Zn10 O11 1.933 1_556 S
Zn10 O24 1.985 . S
Zn10 O33 1.955 . S
O11 Zn10 1.933 1_554 S
O11 Zn12 1.911 . S
O11 H13 0.841 1_565 S
Zn12 O11 1.911 . S
Zn12 O25 1.970 . S
Zn12 O41 1.981 . S
Zn12 O43 1.945 . S
H13 O11 0.841 1_545 S
Zn14 O15 1.933 1_556 S
Zn14 O27 1.985 . S
Zn14 O35 1.955 . S
O15 Zn14 1.933 1_554 S
O15 H16 0.841 1_545 S
O15 Zn17 1.911 . S
H16 O15 0.841 1_565 S
Zn17 O15 1.911 . S
Zn17 O28 1.970 . S
Zn17 O38 1.981 . S
Zn17 O46 1.945 . S
C18 O19 1.246 . S
C18 O35 1.276 1_565 S
O19 C18 1.246 . S
O20 Zn0 1.985 . S
O20 C30 1.245 1_556 S
O21 Zn1 1.970 . S
O21 C30 1.263 . S
O22 Zn7 1.985 . S
O22 C34 1.245 1_556 S
O23 Zn6 1.970 . S
O23 C34 1.263 . S
O24 Zn10 1.985 . S
O24 C39 1.245 1_556 S
O25 Zn12 1.970 . S
O25 C39 1.263 . S
C26 O37 1.262 1_455 S
C26 O38 1.245 . S
O27 Zn14 1.985 . S
O27 C45 1.245 1_556 S
O28 Zn17 1.970 . S
O28 C45 1.263 . S
O29 Zn7 1.955 . S
O29 C48 1.276 1_455 S
C30 O20 1.245 1_554 S
C30 O21 1.263 . S
O31 Zn0 1.955 . S
O31 C50 1.276 1_655 S
C32 O40 1.262 1_655 S
C32 O41 1.245 . S
O33 C4 1.276 1_565 S
O33 Zn10 1.955 . S
C34 O22 1.245 1_554 S
C34 O23 1.263 . S
O35 Zn14 1.955 . S
O35 C18 1.276 1_545 S
C36 O43 1.262 1_545 S
C36 O44 1.245 . S
O37 Zn1 1.945 . S
O37 C26 1.262 1_655 S
O38 Zn17 1.981 . S
O38 C26 1.245 . S
C39 O24 1.245 1_554 S
C39 O25 1.263 . S
O40 Zn6 1.945 . S
O40 C32 1.262 1_455 S
O41 Zn12 1.981 . S
O41 C32 1.245 . S
C42 O46 1.262 1_565 S
C42 O47 1.245 . S
O43 Zn12 1.945 . S
O43 C36 1.262 1_565 S
O44 Zn1 1.981 . S
O44 C36 1.245 . S
C45 O27 1.245 1_554 S
C45 O28 1.263 . S
O46 Zn17 1.945 . S
O46 C42 1.262 1_545 S
O47 Zn6 1.981 . S
O47 C42 1.245 . S
C48 O29 1.276 1_655 S
C48 O49 1.246 . S
O49 C48 1.246 . S
C50 O31 1.276 1_455 S
C50 O51 1.246 . S
O51 C50 1.246 . S
Zn52 O54 1.933 . S
Zn52 O72 1.985 . S
Zn52 O83 1.955 . S
Zn53 O54 1.911 . S
Zn53 O73 1.970 . S
Zn53 O89 1.945 . S
Zn53 O96 1.981 . S
O54 Zn52 1.933 . S
O54 Zn53 1.911 . S
O54 H55 0.841 . S
H55 O54 0.841 . S
C56 O57 1.246 . S
C56 O85 1.276 . S
O57 C56 1.246 . S
Zn58 O60 1.911 . S
Zn58 O75 1.970 . S
Zn58 O92 1.945 . S
Zn58 O99 1.981 . S
Zn59 O60 1.933 . S
Zn59 O74 1.985 . S
Zn59 O81 1.955 . S
O60 Zn58 1.911 . S
O60 Zn59 1.933 . S
O60 H61 0.841 . S
H61 O60 0.841 . S
Zn62 O63 1.933 . S
Zn62 O76 1.985 . S
Zn62 O85 1.955 . S
O63 Zn62 1.933 . S
O63 Zn64 1.911 . S
O63 H65 0.841 . S
Zn64 O63 1.911 . S
Zn64 O77 1.970 . S
Zn64 O93 1.981 . S
Zn64 O95 1.945 . S
H65 O63 0.841 . S
Zn66 O67 1.933 . S
Zn66 O79 1.985 . S
Zn66 O87 1.955 . S
O67 Zn66 1.933 . S
O67 H68 0.841 . S
O67 Zn69 1.911 . S
H68 O67 0.841 . S
Zn69 O67 1.911 . S
Zn69 O80 1.970 . S
Zn69 O90 1.981 . S
Zn69 O98 1.945 . S
C70 O71 1.246 . S
C70 O87 1.276 . S
O71 C70 1.246 . S
O72 Zn52 1.985 . S
O72 C82 1.245 . S
O73 Zn53 1.970 . S
O73 C82 1.263 . S
O74 Zn59 1.985 . S
O74 C86 1.245 . S
O75 Zn58 1.970 . S
O75 C86 1.263 . S
O76 Zn62 1.985 . S
O76 C91 1.245 . S
O77 Zn64 1.970 . S
O77 C91 1.263 . S
C78 O89 1.262 . S
C78 O90 1.245 . S
O79 Zn66 1.985 . S
O79 C97 1.245 . S
O80 Zn69 1.970 . S
O80 C97 1.263 . S
O81 Zn59 1.955 . S
O81 C100 1.276 . S
C82 O72 1.245 . S
C82 O73 1.263 . S
O83 Zn52 1.955 . S
O83 C102 1.276 . S
C84 O92 1.262 . S
C84 O93 1.245 . S
O85 C56 1.276 . S
O85 Zn62 1.955 . S
C86 O74 1.245 . S
C86 O75 1.263 . S
O87 Zn66 1.955 . S
O87 C70 1.276 . S
C88 O95 1.262 . S
C88 O96 1.245 . S
O89 Zn53 1.945 . S
O89 C78 1.262 . S
O90 Zn69 1.981 . S
O90 C78 1.245 . S
C91 O76 1.245 . S
C91 O77 1.263 . S
O92 Zn58 1.945 . S
O92 C84 1.262 . S
O93 Zn64 1.981 . S
O93 C84 1.245 . S
C94 O98 1.262 . S
C94 O99 1.245 . S
O95 Zn64 1.945 . S
O95 C88 1.262 . S
O96 Zn53 1.981 . S
O96 C88 1.245 . S
C97 O79 1.245 . S
C97 O80 1.263 . S
O98 Zn69 1.945 . S
O98 C94 1.262 . S
O99 Zn58 1.981 . S
O99 C94 1.245 . S
C100 O81 1.276 . S
C100 O101 1.246 . S
O101 C100 1.246 . S
C102 O83 1.276 . S
C102 O103 1.246 . S
O103 C102 1.246 . S
C104 C105 1.264 . S
C104 C109 1.479 . S
C104 C114 1.465 . S
C105 C104 1.264 . S
C105 C107 1.339 . S
C105 H132 0.931 . S
C106 C107 1.395 . S
C106 C108 1.320 . S
C107 C105 1.339 . S
C107 C106 1.395 . S
C107 H133 0.929 . S
C108 C106 1.320 . S
C108 C109 1.405 . S
C108 H134 0.930 . S
C109 C104 1.479 . S
C109 C108 1.405 . S
C109 H135 0.931 . S
U110 O111 2.454 1_554 S
U110 O112 2.458 . S
U110 C113 2.984 . S
U110 C114 2.847 1_554 S
U110 C127 2.882 . S
U110 O128 2.441 1_554 S
U110 O129 2.420 1_554 S
U110 O130 2.455 . S
U110 O131 2.449 . S
O111 U110 2.454 1_556 S
O111 C113 1.353 1_556 S
O112 U110 2.458 . S
O112 C113 1.286 . S
C113 U110 2.984 . S
C113 O111 1.353 1_554 S
C113 O112 1.286 . S
C113 C115 1.363 . S
C114 C104 1.465 . S
C114 U110 2.847 1_556 S
C114 O128 1.249 . S
C114 O129 1.202 . S
C115 C113 1.363 . S
C115 C117 1.408 1_554 S
C115 C120 1.342 . S
C116 C117 1.310 . S
C116 C119 1.461 1_556 S
C116 H136 0.932 . S
C117 C115 1.408 1_556 S
C117 C116 1.310 . S
C117 H137 0.930 . S
C118 C119 1.474 . S
C118 C120 1.285 . S
C118 H138 0.929 . S
C119 C116 1.461 1_554 S
C119 C118 1.474 . S
C120 C115 1.342 . S
C120 C118 1.285 . S
C120 H139 0.930 . S
C121 C124 1.424 . S
C121 C126 1.245 . S
C121 C127 1.428 . S
C122 C125 1.260 . S
C122 C126 1.477 . S
C122 H140 0.932 . S
C123 C124 1.384 . S
C123 C125 1.479 . S
C123 H141 0.929 . S
C124 C121 1.424 . S
C124 C123 1.384 . S
C124 H142 0.928 . S
C125 C122 1.260 . S
C125 C123 1.479 . S
C126 C121 1.245 . S
C126 C122 1.477 . S
C126 H143 0.932 . S
C127 U110 2.882 . S
C127 C121 1.428 . S
C127 O130 1.301 . S
C127 O131 1.282 . S
O128 U110 2.441 1_556 S
O128 C114 1.249 . S
O129 U110 2.420 1_556 S
O129 C114 1.202 . S
O130 U110 2.455 . S
O130 C127 1.301 . S
O131 U110 2.449 . S
O131 C127 1.282 . S
H132 C105 0.931 . S
H133 C107 0.929 . S
H134 C108 0.930 . S
H135 C109 0.931 . S
H136 C116 0.932 . S
H137 C117 0.930 . S
H138 C118 0.929 . S
H139 C120 0.930 . S
H140 C122 0.932 . S
H141 C123 0.929 . S
H142 C124 0.928 . S
H143 C126 0.932 . S
C144 C145 1.264 . S
C144 C149 1.479 . S
C144 C154 1.465 . S
C145 C144 1.264 . S
C145 C147 1.339 . S
C145 H172 0.931 . S
C146 C147 1.395 . S
C146 C148 1.320 . S
C147 C145 1.339 . S
C147 C146 1.395 . S
C147 H173 0.929 . S
C148 C146 1.320 . S
C148 C149 1.405 . S
C148 H174 0.930 . S
C149 C144 1.479 . S
C149 C148 1.405 . S
C149 H175 0.931 . S
U150 O151 2.454 . S
U150 O152 2.458 1_554 S
U150 C153 2.984 . S
U150 C154 2.847 . S
U150 C167 2.882 1_554 S
U150 O168 2.441 . S
U150 O169 2.420 . S
U150 O170 2.455 1_554 S
U150 O171 2.449 1_554 S
O151 U150 2.454 . S
O151 C153 1.353 . S
O152 U150 2.458 1_556 S
O152 C153 1.286 1_556 S
C153 U150 2.984 . S
C153 O151 1.353 . S
C153 O152 1.286 1_554 S
C153 C155 1.363 . S
C154 C144 1.465 . S
C154 U150 2.847 . S
C154 O168 1.249 . S
C154 O169 1.202 . S
C155 C153 1.363 . S
C155 C157 1.408 . S
C155 C160 1.342 1_554 S
C156 C157 1.310 . S
C156 C159 1.461 . S
C156 H176 0.932 . S
C157 C155 1.408 . S
C157 C156 1.310 . S
C157 H177 0.930 . S
C158 C159 1.474 1_556 S
C158 C160 1.285 . S
C158 H178 0.929 . S
C159 C156 1.461 . S
C159 C158 1.474 1_554 S
C160 C155 1.342 1_556 S
C160 C158 1.285 . S
C160 H179 0.930 . S
C161 C164 1.424 . S
C161 C166 1.245 . S
C161 C167 1.428 . S
C162 C165 1.260 . S
C162 C166 1.477 . S
C162 H180 0.932 . S
C163 C164 1.384 . S
C163 C165 1.479 . S
C163 H181 0.929 . S
C164 C161 1.424 . S
C164 C163 1.384 . S
C164 H182 0.928 . S
C165 C162 1.260 . S
C165 C163 1.479 . S
C166 C161 1.245 . S
C166 C162 1.477 . S
C166 H183 0.932 . S
C167 U150 2.882 1_556 S
C167 C161 1.428 . S
C167 O170 1.301 . S
C167 O171 1.282 . S
O168 U150 2.441 . S
O168 C154 1.249 . S
O169 U150 2.420 . S
O169 C154 1.202 . S
O170 U150 2.455 1_556 S
O170 C167 1.301 . S
O171 U150 2.449 1_556 S
O171 C167 1.282 . S
H172 C145 0.931 . S
H173 C147 0.929 . S
H174 C148 0.930 . S
H175 C149 0.931 . S
H176 C156 0.932 . S
H177 C157 0.930 . S
H178 C158 0.929 . S
H179 C160 0.930 . S
H180 C162 0.932 . S
H181 C163 0.929 . S
H182 C164 0.928 . S
H183 C166 0.932 . S
C184 C185 1.264 . S
C184 C189 1.479 . S
C184 C194 1.465 . S
C185 C184 1.264 . S
C185 C187 1.339 . S
C185 H212 0.931 . S
C186 C187 1.395 . S
C186 C188 1.320 . S
C187 C185 1.339 . S
C187 C186 1.395 . S
C187 H213 0.929 . S
C188 C186 1.320 . S
C188 C189 1.405 . S
C188 H214 0.930 . S
C189 C184 1.479 . S
C189 C188 1.405 . S
C189 H215 0.931 . S
U190 O191 2.454 . S
U190 O192 2.458 1_554 S
U190 C193 2.984 . S
U190 C194 2.847 . S
U190 C207 2.882 1_554 S
U190 O208 2.441 . S
U190 O209 2.420 . S
U190 O210 2.455 1_554 S
U190 O211 2.449 1_554 S
O191 U190 2.454 . S
O191 C193 1.353 . S
O192 U190 2.458 1_556 S
O192 C193 1.286 1_556 S
C193 U190 2.984 . S
C193 O191 1.353 . S
C193 O192 1.286 1_554 S
C193 C195 1.363 . S
C194 C184 1.465 . S
C194 U190 2.847 . S
C194 O208 1.249 . S
C194 O209 1.202 . S
C195 C193 1.363 . S
C195 C197 1.408 . S
C195 C200 1.342 1_554 S
C196 C197 1.310 . S
C196 C199 1.461 . S
C196 H216 0.932 . S
C197 C195 1.408 . S
C197 C196 1.310 . S
C197 H217 0.930 . S
C198 C199 1.474 1_556 S
C198 C200 1.285 . S
C198 H218 0.929 . S
C199 C196 1.461 . S
C199 C198 1.474 1_554 S
C200 C195 1.342 1_556 S
C200 C198 1.285 . S
C200 H219 0.930 . S
C201 C204 1.424 . S
C201 C206 1.245 . S
C201 C207 1.428 . S
C202 C205 1.260 . S
C202 C206 1.477 . S
C202 H220 0.932 . S
C203 C204 1.384 . S
C203 C205 1.479 . S
C203 H221 0.929 . S
C204 C201 1.424 . S
C204 C203 1.384 . S
C204 H222 0.928 . S
C205 C202 1.260 . S
C205 C203 1.479 . S
C206 C201 1.245 . S
C206 C202 1.477 . S
C206 H223 0.932 . S
C207 U190 2.882 1_556 S
C207 C201 1.428 . S
C207 O210 1.301 . S
C207 O211 1.282 . S
O208 U190 2.441 . S
O208 C194 1.249 . S
O209 U190 2.420 . S
O209 C194 1.202 . S
O210 U190 2.455 1_556 S
O210 C207 1.301 . S
O211 U190 2.449 1_556 S
O211 C207 1.282 . S
H212 C185 0.931 . S
H213 C187 0.929 . S
H214 C188 0.930 . S
H215 C189 0.931 . S
H216 C196 0.932 . S
H217 C197 0.930 . S
H218 C198 0.929 . S
H219 C200 0.930 . S
H220 C202 0.932 . S
H221 C203 0.929 . S
H222 C204 0.928 . S
H223 C206 0.932 . S
C224 C225 1.264 . S
C224 C229 1.479 . S
C224 C234 1.465 . S
C225 C224 1.264 . S
C225 C227 1.339 . S
C225 H252 0.931 . S
C226 C227 1.395 . S
C226 C228 1.320 . S
C227 C225 1.339 . S
C227 C226 1.395 . S
C227 H253 0.929 . S
C228 C226 1.320 . S
C228 C229 1.405 . S
C228 H254 0.930 . S
C229 C224 1.479 . S
C229 C228 1.405 . S
C229 H255 0.931 . S
U230 O231 2.454 . S
U230 O232 2.458 1_554 S
U230 C233 2.984 . S
U230 C234 2.847 . S
U230 C247 2.882 1_554 S
U230 O248 2.441 . S
U230 O249 2.420 . S
U230 O250 2.455 1_554 S
U230 O251 2.449 1_554 S
O231 U230 2.454 . S
O231 C233 1.353 . S
O232 U230 2.458 1_556 S
O232 C233 1.286 1_556 S
C233 U230 2.984 . S
C233 O231 1.353 . S
C233 O232 1.286 1_554 S
C233 C235 1.363 . S
C234 C224 1.465 . S
C234 U230 2.847 . S
C234 O248 1.249 . S
C234 O249 1.202 . S
C235 C233 1.363 . S
C235 C237 1.408 . S
C235 C240 1.342 1_554 S
C236 C237 1.310 . S
C236 C239 1.461 . S
C236 H256 0.932 . S
C237 C235 1.408 . S
C237 C236 1.310 . S
C237 H257 0.930 . S
C238 C239 1.474 1_556 S
C238 C240 1.285 . S
C238 H258 0.929 . S
C239 C236 1.461 . S
C239 C238 1.474 1_554 S
C240 C235 1.342 1_556 S
C240 C238 1.285 . S
C240 H259 0.930 . S
C241 C244 1.424 . S
C241 C246 1.245 . S
C241 C247 1.428 . S
C242 C245 1.260 . S
C242 C246 1.477 . S
C242 H260 0.932 . S
C243 C244 1.384 . S
C243 C245 1.479 . S
C243 H261 0.929 . S
C244 C241 1.424 . S
C244 C243 1.384 . S
C244 H262 0.928 . S
C245 C242 1.260 . S
C245 C243 1.479 . S
C246 C241 1.245 . S
C246 C242 1.477 . S
C246 H263 0.932 . S
C247 U230 2.882 1_556 S
C247 C241 1.428 . S
C247 O250 1.301 . S
C247 O251 1.282 . S
O248 U230 2.441 . S
O248 C234 1.249 . S
O249 U230 2.420 . S
O249 C234 1.202 . S
O250 U230 2.455 1_556 S
O250 C247 1.301 . S
O251 U230 2.449 1_556 S
O251 C247 1.282 . S
H252 C225 0.931 . S
H253 C227 0.929 . S
H254 C228 0.930 . S
H255 C229 0.931 . S
H256 C236 0.932 . S
H257 C237 0.930 . S
H258 C238 0.929 . S
H259 C240 0.930 . S
H260 C242 0.932 . S
H261 C243 0.929 . S
H262 C244 0.928 . S
H263 C246 0.932 . S
C264 C265 1.264 . S
C264 C269 1.479 . S
C264 C274 1.465 . S
C265 C264 1.264 . S
C265 C267 1.339 . S
C265 H292 0.931 . S
C266 C267 1.395 . S
C266 C268 1.320 . S
C267 C265 1.339 . S
C267 C266 1.395 . S
C267 H293 0.929 . S
C268 C266 1.320 . S
C268 C269 1.405 . S
C268 H294 0.930 . S
C269 C264 1.479 . S
C269 C268 1.405 . S
C269 H295 0.931 . S
U270 O271 2.454 . S
U270 O272 2.458 . S
U270 C273 2.984 . S
U270 C274 2.847 . S
U270 C287 2.882 . S
U270 O288 2.441 . S
U270 O289 2.420 . S
U270 O290 2.455 . S
U270 O291 2.449 . S
O271 U270 2.454 . S
O271 C273 1.353 . S
O272 U270 2.458 . S
O272 C273 1.286 . S
C273 U270 2.984 . S
C273 O271 1.353 . S
C273 O272 1.286 . S
C273 C275 1.363 . S
C274 C264 1.465 . S
C274 U270 2.847 . S
C274 O288 1.249 . S
C274 O289 1.202 . S
C275 C273 1.363 . S
C275 C277 1.408 . S
C275 C280 1.342 . S
C276 C277 1.310 . S
C276 C279 1.461 . S
C276 H296 0.932 . S
C277 C275 1.408 . S
C277 C276 1.310 . S
C277 H297 0.930 . S
C278 C279 1.474 . S
C278 C280 1.285 . S
C278 H298 0.929 . S
C279 C276 1.461 . S
C279 C278 1.474 . S
C280 C275 1.342 . S
C280 C278 1.285 . S
C280 H299 0.930 . S
C281 C284 1.424 . S
C281 C286 1.245 . S
C281 C287 1.428 . S
C282 C285 1.260 . S
C282 C286 1.477 . S
C282 H300 0.932 . S
C283 C284 1.384 . S
C283 C285 1.479 . S
C283 H301 0.929 . S
C284 C281 1.424 . S
C284 C283 1.384 . S
C284 H302 0.928 . S
C285 C282 1.260 . S
C285 C283 1.479 . S
C286 C281 1.245 . S
C286 C282 1.477 . S
C286 H303 0.932 . S
C287 U270 2.882 . S
C287 C281 1.428 . S
C287 O290 1.301 . S
C287 O291 1.282 . S
O288 U270 2.441 . S
O288 C274 1.249 . S
O289 U270 2.420 . S
O289 C274 1.202 . S
O290 U270 2.455 . S
O290 C287 1.301 . S
O291 U270 2.449 . S
O291 C287 1.282 . S
H292 C265 0.931 . S
H293 C267 0.929 . S
H294 C268 0.930 . S
H295 C269 0.931 . S
H296 C276 0.932 . S
H297 C277 0.930 . S
H298 C278 0.929 . S
H299 C280 0.930 . S
H300 C282 0.932 . S
H301 C283 0.929 . S
H302 C284 0.928 . S
H303 C286 0.932 . S
C304 C305 1.264 . S
C304 C309 1.479 . S
C304 C314 1.465 . S
C305 C304 1.264 . S
C305 C307 1.339 . S
C305 H332 0.931 . S
C306 C307 1.395 . S
C306 C308 1.320 . S
C307 C305 1.339 . S
C307 C306 1.395 . S
C307 H333 0.929 . S
C308 C306 1.320 . S
C308 C309 1.405 . S
C308 H334 0.930 . S
C309 C304 1.479 . S
C309 C308 1.405 . S
C309 H335 0.931 . S
U310 O311 2.454 . S
U310 O312 2.458 . S
U310 C313 2.984 . S
U310 C314 2.847 . S
U310 C327 2.882 . S
U310 O328 2.441 . S
U310 O329 2.420 . S
U310 O330 2.455 . S
U310 O331 2.449 . S
O311 U310 2.454 . S
O311 C313 1.353 . S
O312 U310 2.458 . S
O312 C313 1.286 . S
C313 U310 2.984 . S
C313 O311 1.353 . S
C313 O312 1.286 . S
C313 C315 1.363 . S
C314 C304 1.465 . S
C314 U310 2.847 . S
C314 O328 1.249 . S
C314 O329 1.202 . S
C315 C313 1.363 . S
C315 C317 1.408 . S
C315 C320 1.342 . S
C316 C317 1.310 . S
C316 C319 1.461 . S
C316 H336 0.932 . S
C317 C315 1.408 . S
C317 C316 1.310 . S
C317 H337 0.930 . S
C318 C319 1.474 . S
C318 C320 1.285 . S
C318 H338 0.929 . S
C319 C316 1.461 . S
C319 C318 1.474 . S
C320 C315 1.342 . S
C320 C318 1.285 . S
C320 H339 0.930 . S
C321 C324 1.424 . S
C321 C326 1.245 . S
C321 C327 1.428 . S
C322 C325 1.260 . S
C322 C326 1.477 . S
C322 H340 0.932 . S
C323 C324 1.384 . S
C323 C325 1.479 . S
C323 H341 0.929 . S
C324 C321 1.424 . S
C324 C323 1.384 . S
C324 H342 0.928 . S
C325 C322 1.260 . S
C325 C323 1.479 . S
C326 C321 1.245 . S
C326 C322 1.477 . S
C326 H343 0.932 . S
C327 U310 2.882 . S
C327 C321 1.428 . S
C327 O330 1.301 . S
C327 O331 1.282 . S
O328 U310 2.441 . S
O328 C314 1.249 . S
O329 U310 2.420 . S
O329 C314 1.202 . S
O330 U310 2.455 . S
O330 C327 1.301 . S
O331 U310 2.449 . S
O331 C327 1.282 . S
H332 C305 0.931 . S
H333 C307 0.929 . S
H334 C308 0.930 . S
H335 C309 0.931 . S
H336 C316 0.932 . S
H337 C317 0.930 . S
H338 C318 0.929 . S
H339 C320 0.930 . S
H340 C322 0.932 . S
H341 C323 0.929 . S
H342 C324 0.928 . S
H343 C326 0.932 . S
C344 C345 1.264 . S
C344 C349 1.479 . S
C344 C354 1.465 . S
C345 C344 1.264 . S
C345 C347 1.339 . S
C345 H372 0.931 . S
C346 C347 1.395 . S
C346 C348 1.320 . S
C347 C345 1.339 . S
C347 C346 1.395 . S
C347 H373 0.929 . S
C348 C346 1.320 . S
C348 C349 1.405 . S
C348 H374 0.930 . S
C349 C344 1.479 . S
C349 C348 1.405 . S
C349 H375 0.931 . S
U350 O351 2.454 . S
U350 O352 2.458 . S
U350 C353 2.984 . S
U350 C354 2.847 . S
U350 C367 2.882 . S
U350 O368 2.441 . S
U350 O369 2.420 . S
U350 O370 2.455 . S
U350 O371 2.449 . S
O351 U350 2.454 . S
O351 C353 1.353 . S
O352 U350 2.458 . S
O352 C353 1.286 . S
C353 U350 2.984 . S
C353 O351 1.353 . S
C353 O352 1.286 . S
C353 C355 1.363 . S
C354 C344 1.465 . S
C354 U350 2.847 . S
C354 O368 1.249 . S
C354 O369 1.202 . S
C355 C353 1.363 . S
C355 C357 1.408 . S
C355 C360 1.342 . S
C356 C357 1.310 . S
C356 C359 1.461 . S
C356 H376 0.932 . S
C357 C355 1.408 . S
C357 C356 1.310 . S
C357 H377 0.930 . S
C358 C359 1.474 . S
C358 C360 1.285 . S
C358 H378 0.929 . S
C359 C356 1.461 . S
C359 C358 1.474 . S
C360 C355 1.342 . S
C360 C358 1.285 . S
C360 H379 0.930 . S
C361 C364 1.424 . S
C361 C366 1.245 . S
C361 C367 1.428 . S
C362 C365 1.260 . S
C362 C366 1.477 . S
C362 H380 0.932 . S
C363 C364 1.384 . S
C363 C365 1.479 . S
C363 H381 0.929 . S
C364 C361 1.424 . S
C364 C363 1.384 . S
C364 H382 0.928 . S
C365 C362 1.260 . S
C365 C363 1.479 . S
C366 C361 1.245 . S
C366 C362 1.477 . S
C366 H383 0.932 . S
C367 U350 2.882 . S
C367 C361 1.428 . S
C367 O370 1.301 . S
C367 O371 1.282 . S
O368 U350 2.441 . S
O368 C354 1.249 . S
O369 U350 2.420 . S
O369 C354 1.202 . S
O370 U350 2.455 . S
O370 C367 1.301 . S
O371 U350 2.449 . S
O371 C367 1.282 . S
H372 C345 0.931 . S
H373 C347 0.929 . S
H374 C348 0.930 . S
H375 C349 0.931 . S
H376 C356 0.932 . S
H377 C357 0.930 . S
H378 C358 0.929 . S
H379 C360 0.930 . S
H380 C362 0.932 . S
H381 C363 0.929 . S
H382 C364 0.928 . S
H383 C366 0.932 . S
C384 C385 1.264 . S
C384 C389 1.479 . S
C384 C394 1.465 . S
C385 C384 1.264 . S
C385 C387 1.339 . S
C385 H412 0.931 . S
C386 C387 1.395 . S
C386 C388 1.320 . S
C387 C385 1.339 . S
C387 C386 1.395 . S
C387 H413 0.929 . S
C388 C386 1.320 . S
C388 C389 1.405 . S
C388 H414 0.930 . S
C389 C384 1.479 . S
C389 C388 1.405 . S
C389 H415 0.931 . S
U390 O391 2.454 . S
U390 O392 2.458 . S
U390 C393 2.984 . S
U390 C394 2.847 . S
U390 C407 2.882 . S
U390 O408 2.441 . S
U390 O409 2.420 . S
U390 O410 2.455 . S
U390 O411 2.449 . S
O391 U390 2.454 . S
O391 C393 1.353 . S
O392 U390 2.458 . S
O392 C393 1.286 . S
C393 U390 2.984 . S
C393 O391 1.353 . S
C393 O392 1.286 . S
C393 C395 1.363 . S
C394 C384 1.465 . S
C394 U390 2.847 . S
C394 O408 1.249 . S
C394 O409 1.202 . S
C395 C393 1.363 . S
C395 C397 1.408 . S
C395 C400 1.342 . S
C396 C397 1.310 . S
C396 C399 1.461 . S
C396 H416 0.932 . S
C397 C395 1.408 . S
C397 C396 1.310 . S
C397 H417 0.930 . S
C398 C399 1.474 . S
C398 C400 1.285 . S
C398 H418 0.929 . S
C399 C396 1.461 . S
C399 C398 1.474 . S
C400 C395 1.342 . S
C400 C398 1.285 . S
C400 H419 0.930 . S
C401 C404 1.424 . S
C401 C406 1.245 . S
C401 C407 1.428 . S
C402 C405 1.260 . S
C402 C406 1.477 . S
C402 H420 0.932 . S
C403 C404 1.384 . S
C403 C405 1.479 . S
C403 H421 0.929 . S
C404 C401 1.424 . S
C404 C403 1.384 . S
C404 H422 0.928 . S
C405 C402 1.260 . S
C405 C403 1.479 . S
C406 C401 1.245 . S
C406 C402 1.477 . S
C406 H423 0.932 . S
C407 U390 2.882 . S
C407 C401 1.428 . S
C407 O410 1.301 . S
C407 O411 1.282 . S
O408 U390 2.441 . S
O408 C394 1.249 . S
O409 U390 2.420 . S
O409 C394 1.202 . S
O410 U390 2.455 . S
O410 C407 1.301 . S
O411 U390 2.449 . S
O411 C407 1.282 . S
H412 C385 0.931 . S
H413 C387 0.929 . S
H414 C388 0.930 . S
H415 C389 0.931 . S
H416 C396 0.932 . S
H417 C397 0.930 . S
H418 C398 0.929 . S
H419 C400 0.930 . S
H420 C402 0.932 . S
H421 C403 0.929 . S
H422 C404 0.928 . S
H423 C406 0.932 . S
C424 C425 1.391 1_556 S
C424 C426 1.394 . S
C424 H440 0.931 . S
C425 C424 1.391 1_554 S
C425 C429 1.376 . S
C426 C424 1.394 . S
C426 C427 1.369 1_556 S
C426 C430 1.531 . S
C427 C426 1.369 1_554 S
C427 C428 1.410 . S
C427 C435 1.503 . S
C428 C427 1.410 . S
C428 C429 1.392 . S
C428 C431 1.511 . S
C429 C425 1.376 . S
C429 C428 1.392 . S
C429 H441 0.929 . S
C430 C426 1.531 . S
C430 H442 0.960 . S
C430 H443 0.962 . S
C430 H444 0.960 . S
C431 C428 1.511 . S
C431 H445 0.961 . S
C431 H446 0.961 . S
C431 H447 0.961 . S
C432 C433 1.370 . S
C432 C434 1.363 . S
C432 H448 0.931 . S
C433 C432 1.370 . S
C433 C437 1.408 . S
C434 C432 1.363 . S
C434 C435 1.370 . S
C434 C438 1.524 . S
C435 C427 1.503 . S
C435 C434 1.370 . S
C435 C436 1.403 . S
C436 C435 1.403 . S
C436 C437 1.404 . S
C436 C439 1.539 1_554 S
C437 C433 1.408 . S
C437 C436 1.404 . S
C437 H449 0.930 . S
C438 C434 1.524 . S
C438 H450 0.956 . S
C438 H451 0.961 . S
C438 H452 0.961 . S
C439 C436 1.539 1_556 S
C439 H453 0.958 . S
C439 H454 0.961 1_556 S
C439 H455 0.960 1_556 S
H440 C424 0.931 . S
H441 C429 0.929 . S
H442 C430 0.960 . S
H443 C430 0.962 . S
H444 C430 0.960 . S
H445 C431 0.961 . S
H446 C431 0.961 . S
H447 C431 0.961 . S
H448 C432 0.931 . S
H449 C437 0.930 . S
H450 C438 0.956 . S
H451 C438 0.961 . S
H452 C438 0.961 . S
H453 C439 0.958 . S
H454 C439 0.961 1_554 S
H455 C439 0.960 1_554 S
C456 C457 1.391 . S
C456 C458 1.394 . S
C456 H472 0.931 . S
C457 C456 1.391 . S
C457 C461 1.376 . S
C458 C456 1.394 . S
C458 C459 1.369 . S
C458 C462 1.531 . S
C459 C458 1.369 . S
C459 C460 1.410 . S
C459 C467 1.503 . S
C460 C459 1.410 . S
C460 C461 1.392 . S
C460 C463 1.511 1_554 S
C461 C457 1.376 . S
C461 C460 1.392 . S
C461 H473 0.929 1_554 S
C462 C458 1.531 . S
C462 H474 0.960 . S
C462 H475 0.962 . S
C462 H476 0.960 . S
C463 C460 1.511 1_556 S
C463 H477 0.961 . S
C463 H478 0.961 . S
C463 H479 0.961 . S
C464 C465 1.370 1_556 S
C464 C466 1.363 1_556 S
C464 H480 0.931 . S
C465 C464 1.370 1_554 S
C465 C469 1.408 . S
C466 C464 1.363 1_554 S
C466 C467 1.378 . S
C466 C470 1.517 1_554 S
C467 C459 1.503 . S
C467 C466 1.378 . S
C467 C468 1.403 . S
C468 C467 1.403 . S
C468 C469 1.404 . S
C468 C471 1.539 . S
C469 C465 1.408 . S
C469 C468 1.404 . S
C469 H481 0.930 . S
C470 C466 1.517 1_556 S
C470 H482 0.956 . S
C470 H483 0.961 . S
C470 H484 0.961 . S
C471 C468 1.539 . S
C471 H485 0.958 . S
C471 H486 0.961 . S
C471 H487 0.960 . S
H472 C456 0.931 . S
H473 C461 0.929 1_556 S
H474 C462 0.960 . S
H475 C462 0.962 . S
H476 C462 0.960 . S
H477 C463 0.961 . S
H478 C463 0.961 . S
H479 C463 0.961 . S
H480 C464 0.931 . S
H481 C469 0.930 . S
H482 C470 0.956 . S
H483 C470 0.961 . S
H484 C470 0.961 . S
H485 C471 0.958 . S
H486 C471 0.961 . S
H487 C471 0.960 . S
C488 C489 1.377 1_556 S
C488 C490 1.395 . S
C488 H504 0.943 . S
C489 C488 1.377 1_554 S
C489 C493 1.376 . S
C490 C488 1.395 . S
C490 C491 1.369 1_556 S
C490 C494 1.531 . S
C491 C490 1.369 1_554 S
C491 C492 1.410 . S
C491 C499 1.503 . S
C492 C491 1.410 . S
C492 C493 1.392 . S
C492 C495 1.511 . S
C493 C489 1.376 . S
C493 C492 1.392 . S
C493 H505 0.929 . S
C494 C490 1.531 . S
C494 H506 0.960 . S
C494 H507 0.962 . S
C494 H508 0.960 . S
C495 C492 1.511 . S
C495 H509 0.961 . S
C495 H510 0.961 . S
C495 H511 0.961 . S
C496 C497 1.370 . S
C496 C498 1.363 . S
C496 H512 0.931 . S
C497 C496 1.370 . S
C497 C501 1.408 1_554 S
C498 C496 1.363 . S
C498 C499 1.370 . S
C498 C502 1.524 . S
C499 C491 1.503 . S
C499 C498 1.370 . S
C499 C500 1.403 1_554 S
C500 C499 1.403 1_556 S
C500 C501 1.404 . S
C500 C503 1.539 . S
C501 C497 1.408 1_556 S
C501 C500 1.404 . S
C501 H513 0.930 . S
C502 C498 1.524 . S
C502 H514 0.956 . S
C502 H515 0.961 . S
C502 H516 0.961 . S
C503 C500 1.539 . S
C503 H517 0.958 . S
C503 H518 0.961 . S
C503 H519 0.960 . S
H504 C488 0.943 . S
H505 C493 0.929 . S
H506 C494 0.960 . S
H507 C494 0.962 . S
H508 C494 0.960 . S
H509 C495 0.961 . S
H510 C495 0.961 . S
H511 C495 0.961 . S
H512 C496 0.931 . S
H513 C501 0.930 . S
H514 C502 0.956 . S
H515 C502 0.961 . S
H516 C502 0.961 . S
H517 C503 0.958 . S
H518 C503 0.961 . S
H519 C503 0.960 . S
C520 C521 1.391 . S
C520 C522 1.394 . S
C520 H536 0.931 . S
C521 C520 1.391 . S
C521 C525 1.376 . S
C522 C520 1.394 . S
C522 C523 1.369 . S
C522 C526 1.531 . S
C523 C522 1.369 . S
C523 C524 1.410 . S
C523 C531 1.503 . S
C524 C523 1.410 . S
C524 C525 1.392 . S
C524 C527 1.511 . S
C525 C521 1.376 . S
C525 C524 1.392 . S
C525 H537 0.929 . S
C526 C522 1.531 . S
C526 H538 0.960 . S
C526 H539 0.962 . S
C526 H540 0.960 . S
C527 C524 1.511 . S
C527 H541 0.961 . S
C527 H542 0.961 . S
C527 H543 0.961 . S
C528 C529 1.370 1_556 S
C528 C530 1.363 . S
C528 H544 0.931 . S
C529 C528 1.370 1_554 S
C529 C533 1.408 . S
C530 C528 1.363 . S
C530 C531 1.370 1_556 S
C530 C534 1.524 . S
C531 C523 1.503 . S
C531 C530 1.370 1_554 S
C531 C532 1.403 . S
C532 C531 1.403 . S
C532 C533 1.404 . S
C532 C535 1.539 . S
C533 C529 1.408 . S
C533 C532 1.404 . S
C533 H545 0.930 . S
C534 C530 1.524 . S
C534 H546 0.956 . S
C534 H547 0.961 . S
C534 H548 0.961 . S
C535 C532 1.539 . S
C535 H549 0.958 . S
C535 H550 0.961 . S
C535 H551 0.960 . S
H536 C520 0.931 . S
H537 C525 0.929 . S
H538 C526 0.960 . S
H539 C526 0.962 . S
H540 C526 0.960 . S
H541 C527 0.961 . S
H542 C527 0.961 . S
H543 C527 0.961 . S
H544 C528 0.931 . S
H545 C533 0.930 . S
H546 C534 0.956 . S
H547 C534 0.961 . S
H548 C534 0.961 . S
H549 C535 0.958 . S
H550 C535 0.961 . S
H551 C535 0.960 . S
C552 C553 1.391 . S
C552 C554 1.394 . S
C552 H568 0.931 . S
C553 C552 1.391 . S
C553 C557 1.376 . S
C554 C552 1.394 . S
C554 C555 1.369 . S
C554 C558 1.531 . S
C555 C554 1.369 . S
C555 C556 1.410 . S
C555 C563 1.503 . S
C556 C555 1.410 . S
C556 C557 1.392 . S
C556 C559 1.511 . S
C557 C553 1.376 . S
C557 C556 1.392 . S
C557 H569 0.929 . S
C558 C554 1.531 . S
C558 H570 0.960 . S
C558 H571 0.962 . S
C558 H572 0.960 . S
C559 C556 1.511 . S
C559 H573 0.961 . S
C559 H574 0.961 . S
C559 H575 0.961 . S
C560 C561 1.370 . S
C560 C562 1.363 . S
C560 H576 0.931 . S
C561 C560 1.370 . S
C561 C565 1.408 . S
C562 C560 1.363 . S
C562 C563 1.370 . S
C562 C566 1.524 . S
C563 C555 1.503 . S
C563 C562 1.370 . S
C563 C564 1.403 . S
C564 C563 1.403 . S
C564 C565 1.404 . S
C564 C567 1.539 . S
C565 C561 1.408 . S
C565 C564 1.404 . S
C565 H577 0.930 . S
C566 C562 1.524 . S
C566 H578 0.956 . S
C566 H579 0.961 . S
C566 H580 0.961 . S
C567 C564 1.539 . S
C567 H581 0.958 . S
C567 H582 0.961 . S
C567 H583 0.960 . S
H568 C552 0.931 . S
H569 C557 0.929 . S
H570 C558 0.960 . S
H571 C558 0.962 . S
H572 C558 0.960 . S
H573 C559 0.961 . S
H574 C559 0.961 . S
H575 C559 0.961 . S
H576 C560 0.931 . S
H577 C565 0.930 . S
H578 C566 0.956 . S
H579 C566 0.961 . S
H580 C566 0.961 . S
H581 C567 0.958 . S
H582 C567 0.961 . S
H583 C567 0.960 . S
C584 C585 1.391 . S
C584 C586 1.394 . S
C584 H600 0.931 . S
C585 C584 1.391 . S
C585 C589 1.376 . S
C586 C584 1.394 . S
C586 C587 1.369 . S
C586 C590 1.531 . S
C587 C586 1.369 . S
C587 C588 1.410 . S
C587 C595 1.503 . S
C588 C587 1.410 . S
C588 C589 1.392 . S
C588 C591 1.511 . S
C589 C585 1.376 . S
C589 C588 1.392 . S
C589 H601 0.929 . S
C590 C586 1.531 . S
C590 H602 0.960 . S
C590 H603 0.962 . S
C590 H604 0.960 . S
C591 C588 1.511 . S
C591 H605 0.961 . S
C591 H606 0.961 . S
C591 H607 0.961 . S
C592 C593 1.370 . S
C592 C594 1.363 . S
C592 H608 0.931 . S
C593 C592 1.370 . S
C593 C597 1.408 . S
C594 C592 1.363 . S
C594 C595 1.370 . S
C594 C598 1.524 . S
C595 C587 1.503 . S
C595 C594 1.370 . S
C595 C596 1.403 . S
C596 C595 1.403 . S
C596 C597 1.404 . S
C596 C599 1.539 . S
C597 C593 1.408 . S
C597 C596 1.404 . S
C597 H609 0.930 . S
C598 C594 1.524 . S
C598 H610 0.956 . S
C598 H611 0.961 . S
C598 H612 0.961 . S
C599 C596 1.539 . S
C599 H613 0.958 . S
C599 H614 0.961 . S
C599 H615 0.960 . S
H600 C584 0.931 . S
H601 C589 0.929 . S
H602 C590 0.960 . S
H603 C590 0.962 . S
H604 C590 0.960 . S
H605 C591 0.961 . S
H606 C591 0.961 . S
H607 C591 0.961 . S
H608 C592 0.931 . S
H609 C597 0.930 . S
H610 C598 0.956 . S
H611 C598 0.961 . S
H612 C598 0.961 . S
H613 C599 0.958 . S
H614 C599 0.961 . S
H615 C599 0.960 . S
C616 C617 1.391 . S
C616 C618 1.394 . S
C616 H632 0.931 . S
C617 C616 1.391 . S
C617 C621 1.376 . S
C618 C616 1.394 . S
C618 C619 1.369 . S
C618 C622 1.531 . S
C619 C618 1.369 . S
C619 C620 1.410 . S
C619 C627 1.503 . S
C620 C619 1.410 . S
C620 C621 1.392 . S
C620 C623 1.511 . S
C621 C617 1.376 . S
C621 C620 1.392 . S
C621 H633 0.929 . S
C622 C618 1.531 . S
C622 H634 0.960 . S
C622 H635 0.962 . S
C622 H636 0.960 . S
C623 C620 1.511 . S
C623 H637 0.961 . S
C623 H638 0.961 . S
C623 H639 0.961 . S
C624 C625 1.370 . S
C624 C626 1.363 . S
C624 H640 0.931 . S
C625 C624 1.370 . S
C625 C629 1.408 . S
C626 C624 1.363 . S
C626 C627 1.370 . S
C626 C630 1.524 . S
C627 C619 1.503 . S
C627 C626 1.370 . S
C627 C628 1.403 . S
C628 C627 1.403 . S
C628 C629 1.404 . S
C628 C631 1.539 . S
C629 C625 1.408 . S
C629 C628 1.404 . S
C629 H641 0.930 . S
C630 C626 1.524 . S
C630 H642 0.956 . S
C630 H643 0.961 . S
C630 H644 0.961 . S
C631 C628 1.539 . S
C631 H645 0.958 . S
C631 H646 0.961 . S
C631 H647 0.960 . S
H632 C616 0.931 . S
H633 C621 0.929 . S
H634 C622 0.960 . S
H635 C622 0.962 . S
H636 C622 0.960 . S
H637 C623 0.961 . S
H638 C623 0.961 . S
H639 C623 0.961 . S
H640 C624 0.931 . S
H641 C629 0.930 . S
H642 C630 0.956 . S
H643 C630 0.961 . S
H644 C630 0.961 . S
H645 C631 0.958 . S
H646 C631 0.961 . S
H647 C631 0.960 . S
C648 C649 1.391 . S
C648 C650 1.394 . S
C648 H664 0.931 . S
C649 C648 1.391 . S
C649 C653 1.376 . S
C650 C648 1.394 . S
C650 C651 1.369 . S
C650 C654 1.531 . S
C651 C650 1.369 . S
C651 C652 1.410 . S
C651 C659 1.503 . S
C652 C651 1.410 . S
C652 C653 1.392 . S
C652 C655 1.511 . S
C653 C649 1.376 . S
C653 C652 1.392 . S
C653 H665 0.929 . S
C654 C650 1.531 . S
C654 H666 0.960 . S
C654 H667 0.962 . S
C654 H668 0.960 . S
C655 C652 1.511 . S
C655 H669 0.961 . S
C655 H670 0.961 . S
C655 H671 0.961 . S
C656 C657 1.370 . S
C656 C658 1.363 . S
C656 H672 0.931 . S
C657 C656 1.370 . S
C657 C661 1.408 . S
C658 C656 1.363 . S
C658 C659 1.370 . S
C658 C662 1.524 . S
C659 C651 1.503 . S
C659 C658 1.370 . S
C659 C660 1.403 . S
C660 C659 1.403 . S
C660 C661 1.404 . S
C660 C663 1.539 . S
C661 C657 1.408 . S
C661 C660 1.404 . S
C661 H673 0.930 . S
C662 C658 1.524 . S
C662 H674 0.956 . S
C662 H675 0.961 . S
C662 H676 0.961 . S
C663 C660 1.539 . S
C663 H677 0.958 . S
C663 H678 0.961 . S
C663 H679 0.960 . S
H664 C648 0.931 . S
H665 C653 0.929 . S
H666 C654 0.960 . S
H667 C654 0.962 . S
H668 C654 0.960 . S
H669 C655 0.961 . S
H670 C655 0.961 . S
H671 C655 0.961 . S
H672 C656 0.931 . S
H673 C661 0.930 . S
H674 C662 0.956 . S
H675 C662 0.961 . S
H676 C662 0.961 . S
H677 C663 0.958 . S
H678 C663 0.961 . S
H679 C663 0.960 . S
C680 C681 1.391 . S
C680 C682 1.394 . S
C680 H696 0.931 1_455 S
C681 C680 1.391 . S
C681 C685 1.376 . S
C682 C680 1.394 . S
C682 C683 1.369 . S
C682 C686 1.531 1_455 S
C683 C682 1.369 . S
C683 C684 1.410 . S
C683 C691 1.503 . S
C684 C683 1.410 . S
C684 C685 1.392 . S
C684 C687 1.511 . S
C685 C681 1.376 . S
C685 C684 1.392 . S
C685 H697 0.929 . S
C686 C682 1.531 1_655 S
C686 H698 0.960 . S
C686 H699 0.962 . S
C686 H700 0.960 . S
C687 C684 1.511 . S
C687 H701 0.961 . S
C687 H702 0.961 . S
C687 H703 0.961 . S
C688 C689 1.370 . S
C688 C690 1.363 . S
C688 H704 0.931 . S
C689 C688 1.370 . S
C689 C693 1.408 . S
C690 C688 1.363 . S
C690 C691 1.370 . S
C690 C694 1.524 . S
C691 C683 1.503 . S
C691 C690 1.370 . S
C691 C692 1.403 . S
C692 C691 1.403 . S
C692 C693 1.404 . S
C692 C695 1.539 . S
C693 C689 1.408 . S
C693 C692 1.404 . S
C693 H705 0.930 . S
C694 C690 1.524 . S
C694 H706 0.956 . S
C694 H707 0.961 . S
C694 H708 0.961 . S
C695 C692 1.539 . S
C695 H709 0.958 . S
C695 H710 0.961 . S
C695 H711 0.960 . S
H696 C680 0.931 1_655 S
H697 C685 0.929 . S
H698 C686 0.960 . S
H699 C686 0.962 . S
H700 C686 0.960 . S
H701 C687 0.961 . S
H702 C687 0.961 . S
H703 C687 0.961 . S
H704 C688 0.931 . S
H705 C693 0.930 . S
H706 C694 0.956 . S
H707 C694 0.961 . S
H708 C694 0.961 . S
H709 C695 0.958 . S
H710 C695 0.961 . S
H711 C695 0.960 . S
C712 C713 1.391 . S
C712 C714 1.394 . S
C712 H728 0.931 . S
C713 C712 1.391 . S
C713 C717 1.376 . S
C714 C712 1.394 . S
C714 C715 1.369 . S
C714 C718 1.531 . S
C715 C714 1.369 . S
C715 C716 1.410 . S
C715 C723 1.503 . S
C716 C715 1.410 . S
C716 C717 1.392 . S
C716 C719 1.511 . S
C717 C713 1.376 . S
C717 C716 1.392 . S
C717 H729 0.929 . S
C718 C714 1.531 . S
C718 H730 0.960 . S
C718 H731 0.962 . S
C718 H732 0.960 . S
C719 C716 1.511 . S
C719 H733 0.961 . S
C719 H734 0.961 . S
C719 H735 0.961 1_545 S
C720 C721 1.370 . S
C720 C722 1.363 . S
C720 H736 0.931 . S
C721 C720 1.370 . S
C721 C725 1.408 . S
C722 C720 1.363 . S
C722 C723 1.370 . S
C722 C726 1.524 . S
C723 C715 1.503 . S
C723 C722 1.370 . S
C723 C724 1.403 . S
C724 C723 1.403 . S
C724 C725 1.404 . S
C724 C727 1.539 1_545 S
C725 C721 1.408 . S
C725 C724 1.404 . S
C725 H737 0.930 . S
C726 C722 1.524 . S
C726 H738 0.956 . S
C726 H739 0.961 . S
C726 H740 0.961 . S
C727 C724 1.539 1_565 S
C727 H741 0.958 . S
C727 H742 0.961 . S
C727 H743 0.960 . S
H728 C712 0.931 . S
H729 C717 0.929 . S
H730 C718 0.960 . S
H731 C718 0.962 . S
H732 C718 0.960 . S
H733 C719 0.961 . S
H734 C719 0.961 . S
H735 C719 0.961 1_565 S
H736 C720 0.931 . S
H737 C725 0.930 . S
H738 C726 0.956 . S
H739 C726 0.961 . S
H740 C726 0.961 . S
H741 C727 0.958 . S
H742 C727 0.961 . S
H743 C727 0.960 . S
C744 C745 1.391 . S
C744 C746 1.394 . S
C744 H760 0.931 1_655 S
C745 C744 1.391 . S
C745 C749 1.376 . S
C746 C744 1.394 . S
C746 C747 1.369 . S
C746 C750 1.531 1_655 S
C747 C746 1.369 . S
C747 C748 1.410 . S
C747 C755 1.503 . S
C748 C747 1.410 . S
C748 C749 1.392 . S
C748 C751 1.511 . S
C749 C745 1.376 . S
C749 C748 1.392 . S
C749 H761 0.929 . S
C750 C746 1.531 1_455 S
C750 H762 0.960 . S
C750 H763 0.962 1_455 S
C750 H764 0.960 . S
C751 C748 1.511 . S
C751 H765 0.961 . S
C751 H766 0.961 . S
C751 H767 0.961 . S
C752 C753 1.370 . S
C752 C754 1.363 . S
C752 H768 0.931 . S
C753 C752 1.370 . S
C753 C757 1.408 . S
C754 C752 1.363 . S
C754 C755 1.370 . S
C754 C758 1.524 . S
C755 C747 1.503 . S
C755 C754 1.370 . S
C755 C756 1.403 . S
C756 C755 1.403 . S
C756 C757 1.404 . S
C756 C759 1.539 . S
C757 C753 1.408 . S
C757 C756 1.404 . S
C757 H769 0.930 . S
C758 C754 1.524 . S
C758 H770 0.956 . S
C758 H771 0.961 . S
C758 H772 0.961 . S
C759 C756 1.539 . S
C759 H773 0.958 1_655 S
C759 H774 0.961 . S
C759 H775 0.960 . S
H760 C744 0.931 1_455 S
H761 C749 0.929 . S
H762 C750 0.960 . S
H763 C750 0.962 1_655 S
H764 C750 0.960 . S
H765 C751 0.961 . S
H766 C751 0.961 . S
H767 C751 0.961 . S
H768 C752 0.931 . S
H769 C757 0.930 . S
H770 C758 0.956 . S
H771 C758 0.961 . S
H772 C758 0.961 . S
H773 C759 0.958 1_455 S
H774 C759 0.961 . S
H775 C759 0.960 . S
C776 C777 1.391 . S
C776 C778 1.394 . S
C776 H792 0.931 . S
C777 C776 1.391 . S
C777 C781 1.376 . S
C778 C776 1.394 . S
C778 C779 1.369 . S
C778 C782 1.531 . S
C779 C778 1.369 . S
C779 C780 1.410 . S
C779 C787 1.503 . S
C780 C779 1.410 . S
C780 C781 1.392 . S
C780 C783 1.511 . S
C781 C777 1.376 . S
C781 C780 1.392 . S
C781 H793 0.929 . S
C782 C778 1.531 . S
C782 H794 0.960 1_565 S
C782 H795 0.962 . S
C782 H796 0.960 1_565 S
C783 C780 1.511 . S
C783 H797 0.961 . S
C783 H798 0.961 . S
C783 H799 0.961 . S
C784 C785 1.370 . S
C784 C786 1.363 . S
C784 H800 0.931 . S
C785 C784 1.370 . S
C785 C789 1.408 . S
C786 C784 1.363 . S
C786 C787 1.370 . S
C786 C790 1.524 . S
C787 C779 1.503 . S
C787 C786 1.370 . S
C787 C788 1.403 . S
C788 C787 1.403 . S
C788 C789 1.404 . S
C788 C791 1.539 1_565 S
C789 C785 1.408 . S
C789 C788 1.404 . S
C789 H801 0.930 . S
C790 C786 1.524 . S
C790 H802 0.956 . S
C790 H803 0.961 . S
C790 H804 0.961 . S
C791 C788 1.539 1_545 S
C791 H805 0.958 . S
C791 H806 0.961 . S
C791 H807 0.960 1_545 S
H792 C776 0.931 . S
H793 C781 0.929 . S
H794 C782 0.960 1_545 S
H795 C782 0.962 . S
H796 C782 0.960 1_545 S
H797 C783 0.961 . S
H798 C783 0.961 . S
H799 C783 0.961 . S
H800 C784 0.931 . S
H801 C789 0.930 . S
H802 C790 0.956 . S
H803 C790 0.961 . S
H804 C790 0.961 . S
H805 C791 0.958 . S
H806 C791 0.961 . S
H807 C791 0.960 1_565 S
C808 C809 1.391 . S
C808 C810 1.394 . S
C808 H824 0.931 . S
C809 C808 1.391 . S
C809 C813 1.376 . S
C810 C808 1.394 . S
C810 C811 1.369 . S
C810 C814 1.531 . S
C811 C810 1.369 . S
C811 C812 1.410 . S
C811 C819 1.503 . S
C812 C811 1.410 . S
C812 C813 1.392 . S
C812 C815 1.511 . S
C813 C809 1.376 . S
C813 C812 1.392 . S
C813 H825 0.929 . S
C814 C810 1.531 . S
C814 H826 0.960 . S
C814 H827 0.962 . S
C814 H828 0.960 . S
C815 C812 1.511 . S
C815 H829 0.961 1_565 S
C815 H830 0.961 . S
C815 H831 0.961 . S
C816 C817 1.370 . S
C816 C818 1.363 . S
C816 H832 0.931 . S
C817 C816 1.370 . S
C817 C821 1.408 . S
C818 C816 1.363 . S
C818 C819 1.370 . S
C818 C822 1.524 . S
C819 C811 1.503 . S
C819 C818 1.370 . S
C819 C820 1.403 . S
C820 C819 1.403 . S
C820 C821 1.404 . S
C820 C823 1.539 . S
C821 C817 1.408 . S
C821 C820 1.404 . S
C821 H833 0.930 . S
C822 C818 1.524 . S
C822 H834 0.956 . S
C822 H835 0.961 1_565 S
C822 H836 0.961 1_565 S
C823 C820 1.539 . S
C823 H837 0.958 . S
C823 H838 0.961 . S
C823 H839 0.960 . S
H824 C808 0.931 . S
H825 C813 0.929 . S
H826 C814 0.960 . S
H827 C814 0.962 . S
H828 C814 0.960 . S
H829 C815 0.961 1_545 S
H830 C815 0.961 . S
H831 C815 0.961 . S
H832 C816 0.931 . S
H833 C821 0.930 . S
H834 C822 0.956 . S
H835 C822 0.961 1_545 S
H836 C822 0.961 1_545 S
H837 C823 0.958 . S
H838 C823 0.961 . S
H839 C823 0.960 . S
C840 C841 1.391 . S
C840 C842 1.394 . S
C840 H856 0.931 . S
C841 C840 1.391 . S
C841 C845 1.376 . S
C842 C840 1.394 . S
C842 C843 1.369 . S
C842 C846 1.531 . S
C843 C842 1.369 . S
C843 C844 1.410 . S
C843 C851 1.503 . S
C844 C843 1.410 . S
C844 C845 1.392 . S
C844 C847 1.511 . S
C845 C841 1.376 . S
C845 C844 1.392 . S
C845 H857 0.929 . S
C846 C842 1.531 . S
C846 H858 0.960 . S
C846 H859 0.962 . S
C846 H860 0.960 . S
C847 C844 1.511 . S
C847 H861 0.961 . S
C847 H862 0.961 . S
C847 H863 0.961 1_455 S
C848 C849 1.370 . S
C848 C850 1.363 . S
C848 H864 0.931 . S
C849 C848 1.370 . S
C849 C853 1.408 . S
C850 C848 1.363 . S
C850 C851 1.370 . S
C850 C854 1.524 . S
C851 C843 1.503 . S
C851 C850 1.370 . S
C851 C852 1.403 . S
C852 C851 1.403 . S
C852 C853 1.404 . S
C852 C855 1.539 1_455 S
C853 C849 1.408 . S
C853 C852 1.404 . S
C853 H865 0.930 . S
C854 C850 1.524 . S
C854 H866 0.956 . S
C854 H867 0.961 . S
C854 H868 0.961 . S
C855 C852 1.539 1_655 S
C855 H869 0.958 . S
C855 H870 0.961 . S
C855 H871 0.960 . S
H856 C840 0.931 . S
H857 C845 0.929 . S
H858 C846 0.960 . S
H859 C846 0.962 . S
H860 C846 0.960 . S
H861 C847 0.961 . S
H862 C847 0.961 . S
H863 C847 0.961 1_655 S
H864 C848 0.931 . S
H865 C853 0.930 . S
H866 C854 0.956 . S
H867 C854 0.961 . S
H868 C854 0.961 . S
H869 C855 0.958 . S
H870 C855 0.961 . S
H871 C855 0.960 . S
C872 C873 1.391 . S
C872 C874 1.394 . S
C872 H888 0.931 . S
C873 C872 1.391 . S
C873 C877 1.376 . S
C874 C872 1.394 . S
C874 C875 1.369 . S
C874 C878 1.531 . S
C875 C874 1.369 . S
C875 C876 1.410 . S
C875 C883 1.503 . S
C876 C875 1.410 . S
C876 C877 1.392 . S
C876 C879 1.511 . S
C877 C873 1.376 . S
C877 C876 1.392 . S
C877 H889 0.929 . S
C878 C874 1.531 . S
C878 H890 0.960 . S
C878 H891 0.962 . S
C878 H892 0.960 . S
C879 C876 1.511 . S
C879 H893 0.961 . S
C879 H894 0.961 . S
C879 H895 0.961 . S
C880 C881 1.370 . S
C880 C882 1.363 . S
C880 H896 0.931 . S
C881 C880 1.370 . S
C881 C885 1.408 . S
C882 C880 1.363 . S
C882 C883 1.370 . S
C882 C886 1.524 1_545 S
C883 C875 1.503 . S
C883 C882 1.370 . S
C883 C884 1.403 . S
C884 C883 1.403 . S
C884 C885 1.404 . S
C884 C887 1.539 . S
C885 C881 1.408 . S
C885 C884 1.404 . S
C885 H897 0.930 . S
C886 C882 1.524 1_565 S
C886 H898 0.953 1_565 S
C886 H899 0.961 . S
C886 H900 0.961 . S
C887 C884 1.539 . S
C887 H901 0.958 . S
C887 H902 0.961 . S
C887 H903 0.960 . S
H888 C872 0.931 . S
H889 C877 0.929 . S
H890 C878 0.960 . S
H891 C878 0.962 . S
H892 C878 0.960 . S
H893 C879 0.961 . S
H894 C879 0.961 . S
H895 C879 0.961 . S
H896 C880 0.931 . S
H897 C885 0.930 . S
H898 C886 0.953 1_545 S
H899 C886 0.961 . S
H900 C886 0.961 . S
H901 C887 0.958 . S
H902 C887 0.961 . S
H903 C887 0.960 . S
C904 C905 1.391 . S
C904 C906 1.394 . S
C904 H920 0.931 1_655 S
C905 C904 1.391 . S
C905 C909 1.376 . S
C906 C904 1.394 . S
C906 C907 1.369 . S
C906 C910 1.531 1_655 S
C907 C906 1.369 . S
C907 C908 1.410 . S
C907 C915 1.503 . S
C908 C907 1.410 . S
C908 C909 1.392 . S
C908 C911 1.511 . S
C909 C905 1.376 . S
C909 C908 1.392 . S
C909 H921 0.929 . S
C910 C906 1.531 1_455 S
C910 H922 0.960 . S
C910 H923 0.962 . S
C910 H924 0.960 . S
C911 C908 1.511 . S
C911 H925 0.961 . S
C911 H926 0.961 . S
C911 H927 0.961 . S
C912 C913 1.370 . S
C912 C914 1.363 . S
C912 H928 0.931 . S
C913 C912 1.370 . S
C913 C917 1.408 . S
C914 C912 1.363 . S
C914 C915 1.370 . S
C914 C918 1.524 . S
C915 C907 1.503 . S
C915 C914 1.370 . S
C915 C916 1.403 . S
C916 C915 1.403 . S
C916 C917 1.404 . S
C916 C919 1.539 . S
C917 C913 1.408 . S
C917 C916 1.404 . S
C917 H929 0.930 . S
C918 C914 1.524 . S
C918 H930 0.956 . S
C918 H931 0.961 . S
C918 H932 0.961 . S
C919 C916 1.539 . S
C919 H933 0.958 . S
C919 H934 0.961 . S
C919 H935 0.960 . S
H920 C904 0.931 1_455 S
H921 C909 0.929 . S
H922 C910 0.960 . S
H923 C910 0.962 . S
H924 C910 0.960 . S
H925 C911 0.961 . S
H926 C911 0.961 . S
H927 C911 0.961 . S
H928 C912 0.931 . S
H929 C917 0.930 . S
H930 C918 0.956 . S
H931 C918 0.961 . S
H932 C918 0.961 . S
H933 C919 0.958 . S
H934 C919 0.961 . S
H935 C919 0.960 . S
C936 C937 1.391 . S
C936 C938 1.394 . S
C936 H952 0.931 . S
C937 C936 1.391 . S
C937 C941 1.376 . S
C938 C936 1.394 . S
C938 C939 1.369 . S
C938 C942 1.531 . S
C939 C938 1.369 . S
C939 C940 1.410 . S
C939 C947 1.503 . S
C940 C939 1.410 . S
C940 C941 1.392 . S
C940 C943 1.511 . S
C941 C937 1.376 . S
C941 C940 1.392 . S
C941 H953 0.929 . S
C942 C938 1.531 . S
C942 H954 0.960 . S
C942 H955 0.962 . S
C942 H956 0.960 . S
C943 C940 1.511 . S
C943 H957 0.961 . S
C943 H958 0.961 . S
C943 H959 0.961 . S
C944 C945 1.370 . S
C944 C946 1.363 . S
C944 H960 0.931 . S
C945 C944 1.370 . S
C945 C949 1.408 . S
C946 C944 1.363 . S
C946 C947 1.370 . S
C946 C950 1.524 . S
C947 C939 1.503 . S
C947 C946 1.370 . S
C947 C948 1.403 . S
C948 C947 1.403 . S
C948 C949 1.404 . S
C948 C951 1.539 . S
C949 C945 1.408 . S
C949 C948 1.404 . S
C949 H961 0.930 . S
C950 C946 1.524 . S
C950 H962 0.956 . S
C950 H963 0.961 . S
C950 H964 0.961 . S
C951 C948 1.539 . S
C951 H965 0.958 . S
C951 H966 0.961 . S
C951 H967 0.960 . S
H952 C936 0.931 . S
H953 C941 0.929 . S
H954 C942 0.960 . S
H955 C942 0.962 . S
H956 C942 0.960 . S
H957 C943 0.961 . S
H958 C943 0.961 . S
H959 C943 0.961 . S
H960 C944 0.931 . S
H961 C949 0.930 . S
H962 C950 0.956 . S
H963 C950 0.961 . S
H964 C950 0.961 . S
H965 C951 0.958 . S
H966 C951 0.961 . S
H967 C951 0.960 . S
C968 C969 1.391 . S
C968 C970 1.394 . S
C968 H984 0.931 . S
C969 C968 1.391 . S
C969 C973 1.376 . S
C970 C968 1.394 . S
C970 C971 1.369 . S
C970 C974 1.531 . S
C971 C970 1.369 . S
C971 C972 1.410 . S
C971 C979 1.503 . S
C972 C971 1.410 . S
C972 C973 1.392 . S
C972 C975 1.511 . S
C973 C969 1.376 . S
C973 C972 1.392 . S
C973 H985 0.929 . S
C974 C970 1.531 . S
C974 H986 0.960 . S
C974 H987 0.962 . S
C974 H988 0.960 . S
C975 C972 1.511 . S
C975 H989 0.961 . S
C975 H990 0.961 . S
C975 H991 0.961 . S
C976 C977 1.370 . S
C976 C978 1.363 . S
C976 H992 0.931 . S
C977 C976 1.370 . S
C977 C981 1.408 . S
C978 C976 1.363 . S
C978 C979 1.370 . S
C978 C982 1.524 . S
C979 C971 1.503 . S
C979 C978 1.370 . S
C979 C980 1.403 . S
C980 C979 1.403 . S
C980 C981 1.404 . S
C980 C983 1.539 . S
C981 C977 1.408 . S
C981 C980 1.404 . S
C981 H993 0.930 . S
C982 C978 1.524 . S
C982 H994 0.956 . S
C982 H995 0.961 . S
C982 H996 0.961 . S
C983 C980 1.539 . S
C983 H997 0.958 . S
C983 H998 0.961 . S
C983 H999 0.960 . S
H984 C968 0.931 . S
H985 C973 0.929 . S
H986 C974 0.960 . S
H987 C974 0.962 . S
H988 C974 0.960 . S
H989 C975 0.961 . S
H990 C975 0.961 . S
H991 C975 0.961 . S
H992 C976 0.931 . S
H993 C981 0.930 . S
H994 C982 0.956 . S
H995 C982 0.961 . S
H996 C982 0.961 . S
H997 C983 0.958 . S
H998 C983 0.961 . S
H999 C983 0.960 . S
C1000 C1001 1.391 . S
C1000 C1002 1.394 . S
C1000 H1016 0.931 . S
C1001 C1000 1.391 . S
C1001 C1005 1.376 . S
C1002 C1000 1.394 . S
C1002 C1003 1.369 . S
C1002 C1006 1.531 . S
C1003 C1002 1.369 . S
C1003 C1004 1.410 . S
C1003 C1011 1.503 . S
C1004 C1003 1.410 . S
C1004 C1005 1.392 . S
C1004 C1007 1.511 . S
C1005 C1001 1.376 . S
C1005 C1004 1.392 . S
C1005 H1017 0.929 . S
C1006 C1002 1.531 . S
C1006 H1018 0.960 . S
C1006 H1019 0.962 . S
C1006 H1020 0.960 . S
C1007 C1004 1.511 . S
C1007 H1021 0.961 . S
C1007 H1022 0.961 . S
C1007 H1023 0.961 . S
C1008 C1009 1.370 . S
C1008 C1010 1.363 . S
C1008 H1024 0.931 . S
C1009 C1008 1.370 . S
C1009 C1013 1.408 . S
C1010 C1008 1.363 . S
C1010 C1011 1.370 . S
C1010 C1014 1.524 . S
C1011 C1003 1.503 . S
C1011 C1010 1.370 . S
C1011 C1012 1.403 . S
C1012 C1011 1.403 . S
C1012 C1013 1.404 . S
C1012 C1015 1.539 . S
C1013 C1009 1.408 . S
C1013 C1012 1.404 . S
C1013 H1025 0.930 . S
C1014 C1010 1.524 . S
C1014 H1026 0.956 . S
C1014 H1027 0.961 . S
C1014 H1028 0.961 . S
C1015 C1012 1.539 . S
C1015 H1029 0.958 . S
C1015 H1030 0.961 . S
C1015 H1031 0.960 . S
H1016 C1000 0.931 . S
H1017 C1005 0.929 . S
H1018 C1006 0.960 . S
H1019 C1006 0.962 . S
H1020 C1006 0.960 . S
H1021 C1007 0.961 . S
H1022 C1007 0.961 . S
H1023 C1007 0.961 . S
H1024 C1008 0.931 . S
H1025 C1013 0.930 . S
H1026 C1014 0.956 . S
H1027 C1014 0.961 . S
H1028 C1014 0.961 . S
H1029 C1015 0.958 . S
H1030 C1015 0.961 . S
H1031 C1015 0.960 . S
C1032 C1033 1.391 . S
C1032 C1034 1.394 . S
C1032 H1048 0.931 . S
C1033 C1032 1.391 . S
C1033 C1037 1.376 . S
C1034 C1032 1.394 . S
C1034 C1035 1.369 . S
C1034 C1038 1.531 . S
C1035 C1034 1.369 . S
C1035 C1036 1.410 . S
C1035 C1043 1.503 . S
C1036 C1035 1.410 . S
C1036 C1037 1.392 . S
C1036 C1039 1.511 . S
C1037 C1033 1.376 . S
C1037 C1036 1.392 . S
C1037 H1049 0.929 . S
C1038 C1034 1.531 . S
C1038 H1050 0.960 . S
C1038 H1051 0.962 . S
C1038 H1052 0.960 . S
C1039 C1036 1.511 . S
C1039 H1053 0.961 . S
C1039 H1054 0.961 . S
C1039 H1055 0.961 . S
C1040 C1041 1.370 . S
C1040 C1042 1.363 . S
C1040 H1056 0.931 . S
C1041 C1040 1.370 . S
C1041 C1045 1.408 . S
C1042 C1040 1.363 . S
C1042 C1043 1.370 . S
C1042 C1046 1.524 . S
C1043 C1035 1.503 . S
C1043 C1042 1.370 . S
C1043 C1044 1.403 . S
C1044 C1043 1.403 . S
C1044 C1045 1.404 . S
C1044 C1047 1.539 . S
C1045 C1041 1.408 . S
C1045 C1044 1.404 . S
C1045 H1057 0.930 . S
C1046 C1042 1.524 . S
C1046 H1058 0.956 . S
C1046 H1059 0.961 . S
C1046 H1060 0.961 . S
C1047 C1044 1.539 . S
C1047 H1061 0.958 . S
C1047 H1062 0.961 . S
C1047 H1063 0.960 . S
H1048 C1032 0.931 . S
H1049 C1037 0.929 . S
H1050 C1038 0.960 . S
H1051 C1038 0.962 . S
H1052 C1038 0.960 . S
H1053 C1039 0.961 . S
H1054 C1039 0.961 . S
H1055 C1039 0.961 . S
H1056 C1040 0.931 . S
H1057 C1045 0.930 . S
H1058 C1046 0.956 . S
H1059 C1046 0.961 . S
H1060 C1046 0.961 . S
H1061 C1047 0.958 . S
H1062 C1047 0.961 . S
H1063 C1047 0.960 . S
C1064 C1065 1.391 . S
C1064 C1066 1.394 . S
C1064 H1080 0.931 . S
C1065 C1064 1.391 . S
C1065 C1069 1.376 . S
C1066 C1064 1.394 . S
C1066 C1067 1.369 . S
C1066 C1070 1.531 . S
C1067 C1066 1.369 . S
C1067 C1068 1.410 . S
C1067 C1075 1.503 . S
C1068 C1067 1.410 . S
C1068 C1069 1.392 . S
C1068 C1071 1.511 . S
C1069 C1065 1.376 . S
C1069 C1068 1.392 . S
C1069 H1081 0.929 . S
C1070 C1066 1.531 . S
C1070 H1082 0.960 . S
C1070 H1083 0.962 . S
C1070 H1084 0.960 . S
C1071 C1068 1.511 . S
C1071 H1085 0.961 . S
C1071 H1086 0.961 . S
C1071 H1087 0.961 . S
C1072 C1073 1.370 . S
C1072 C1074 1.363 . S
C1072 H1088 0.931 . S
C1073 C1072 1.370 . S
C1073 C1077 1.408 . S
C1074 C1072 1.363 . S
C1074 C1075 1.370 . S
C1074 C1078 1.524 . S
C1075 C1067 1.503 . S
C1075 C1074 1.370 . S
C1075 C1076 1.403 . S
C1076 C1075 1.403 . S
C1076 C1077 1.404 . S
C1076 C1079 1.539 . S
C1077 C1073 1.408 . S
C1077 C1076 1.404 . S
C1077 H1089 0.930 . S
C1078 C1074 1.524 . S
C1078 H1090 0.956 . S
C1078 H1091 0.961 . S
C1078 H1092 0.961 . S
C1079 C1076 1.539 . S
C1079 H1093 0.958 . S
C1079 H1094 0.961 . S
C1079 H1095 0.960 . S
H1080 C1064 0.931 . S
H1081 C1069 0.929 . S
H1082 C1070 0.960 . S
H1083 C1070 0.962 . S
H1084 C1070 0.960 . S
H1085 C1071 0.961 . S
H1086 C1071 0.961 . S
H1087 C1071 0.961 . S
H1088 C1072 0.931 . S
H1089 C1077 0.930 . S
H1090 C1078 0.956 . S
H1091 C1078 0.961 . S
H1092 C1078 0.961 . S
H1093 C1079 0.958 . S
H1094 C1079 0.961 . S
H1095 C1079 0.960 . S
C1096 C1097 1.391 . S
C1096 C1098 1.394 . S
C1096 H1112 0.931 . S
C1097 C1096 1.391 . S
C1097 C1101 1.376 . S
C1098 C1096 1.394 . S
C1098 C1099 1.369 . S
C1098 C1102 1.531 . S
C1099 C1098 1.369 . S
C1099 C1100 1.410 . S
C1099 C1107 1.503 . S
C1100 C1099 1.410 . S
C1100 C1101 1.392 . S
C1100 C1103 1.511 . S
C1101 C1097 1.376 . S
C1101 C1100 1.392 . S
C1101 H1113 0.929 . S
C1102 C1098 1.531 . S
C1102 H1114 0.960 . S
C1102 H1115 0.962 . S
C1102 H1116 0.960 . S
C1103 C1100 1.511 . S
C1103 H1117 0.961 . S
C1103 H1118 0.961 . S
C1103 H1119 0.961 . S
C1104 C1105 1.370 . S
C1104 C1106 1.363 . S
C1104 H1120 0.931 . S
C1105 C1104 1.370 . S
C1105 C1109 1.408 . S
C1106 C1104 1.363 . S
C1106 C1107 1.370 . S
C1106 C1110 1.524 . S
C1107 C1099 1.503 . S
C1107 C1106 1.370 . S
C1107 C1108 1.403 . S
C1108 C1107 1.403 . S
C1108 C1109 1.404 . S
C1108 C1111 1.539 . S
C1109 C1105 1.408 . S
C1109 C1108 1.404 . S
C1109 H1121 0.930 . S
C1110 C1106 1.524 . S
C1110 H1122 0.956 . S
C1110 H1123 0.961 . S
C1110 H1124 0.961 . S
C1111 C1108 1.539 . S
C1111 H1125 0.958 . S
C1111 H1126 0.961 . S
C1111 H1127 0.960 . S
H1112 C1096 0.931 . S
H1113 C1101 0.929 . S
H1114 C1102 0.960 . S
H1115 C1102 0.962 . S
H1116 C1102 0.960 . S
H1117 C1103 0.961 . S
H1118 C1103 0.961 . S
H1119 C1103 0.961 . S
H1120 C1104 0.931 . S
H1121 C1109 0.930 . S
H1122 C1110 0.956 . S
H1123 C1110 0.961 . S
H1124 C1110 0.961 . S
H1125 C1111 0.958 . S
H1126 C1111 0.961 . S
H1127 C1111 0.960 . S
C1128 C1129 1.391 . S
C1128 C1130 1.394 . S
C1128 H1144 0.931 . S
C1129 C1128 1.391 . S
C1129 C1133 1.376 . S
C1130 C1128 1.394 . S
C1130 C1131 1.369 . S
C1130 C1134 1.531 . S
C1131 C1130 1.369 . S
C1131 C1132 1.410 . S
C1131 C1139 1.503 . S
C1132 C1131 1.410 . S
C1132 C1133 1.392 . S
C1132 C1135 1.511 . S
C1133 C1129 1.376 . S
C1133 C1132 1.392 . S
C1133 H1145 0.929 . S
C1134 C1130 1.531 . S
C1134 H1146 0.960 . S
C1134 H1147 0.962 . S
C1134 H1148 0.960 . S
C1135 C1132 1.511 . S
C1135 H1149 0.961 . S
C1135 H1150 0.961 . S
C1135 H1151 0.961 . S
C1136 C1137 1.370 . S
C1136 C1138 1.363 . S
C1136 H1152 0.931 . S
C1137 C1136 1.370 . S
C1137 C1141 1.408 . S
C1138 C1136 1.363 . S
C1138 C1139 1.370 . S
C1138 C1142 1.524 . S
C1139 C1131 1.503 . S
C1139 C1138 1.370 . S
C1139 C1140 1.403 . S
C1140 C1139 1.403 . S
C1140 C1141 1.404 . S
C1140 C1143 1.539 . S
C1141 C1137 1.408 . S
C1141 C1140 1.404 . S
C1141 H1153 0.930 . S
C1142 C1138 1.524 . S
C1142 H1154 0.956 . S
C1142 H1155 0.961 . S
C1142 H1156 0.961 . S
C1143 C1140 1.539 . S
C1143 H1157 0.958 . S
C1143 H1158 0.961 . S
C1143 H1159 0.960 . S
H1144 C1128 0.931 . S
H1145 C1133 0.929 . S
H1146 C1134 0.960 . S
H1147 C1134 0.962 . S
H1148 C1134 0.960 . S
H1149 C1135 0.961 . S
H1150 C1135 0.961 . S
H1151 C1135 0.961 . S
H1152 C1136 0.931 . S
H1153 C1141 0.930 . S
H1154 C1142 0.956 . S
H1155 C1142 0.961 . S
H1156 C1142 0.961 . S
H1157 C1143 0.958 . S
H1158 C1143 0.961 . S
H1159 C1143 0.960 . S
C1160 C1161 1.391 . S
C1160 C1162 1.394 . S
C1160 H1176 0.931 . S
C1161 C1160 1.391 . S
C1161 C1165 1.376 . S
C1162 C1160 1.394 . S
C1162 C1163 1.369 . S
C1162 C1166 1.531 . S
C1163 C1162 1.369 . S
C1163 C1164 1.410 . S
C1163 C1171 1.503 . S
C1164 C1163 1.410 . S
C1164 C1165 1.392 . S
C1164 C1167 1.511 . S
C1165 C1161 1.376 . S
C1165 C1164 1.392 . S
C1165 H1177 0.929 . S
C1166 C1162 1.531 . S
C1166 H1178 0.960 . S
C1166 H1179 0.962 . S
C1166 H1180 0.960 . S
C1167 C1164 1.511 . S
C1167 H1181 0.961 . S
C1167 H1182 0.961 . S
C1167 H1183 0.961 . S
C1168 C1169 1.370 . S
C1168 C1170 1.363 . S
C1168 H1184 0.931 . S
C1169 C1168 1.370 . S
C1169 C1173 1.408 . S
C1170 C1168 1.363 . S
C1170 C1171 1.370 . S
C1170 C1174 1.524 . S
C1171 C1163 1.503 . S
C1171 C1170 1.370 . S
C1171 C1172 1.403 . S
C1172 C1171 1.403 . S
C1172 C1173 1.404 . S
C1172 C1175 1.539 . S
C1173 C1169 1.408 . S
C1173 C1172 1.404 . S
C1173 H1185 0.930 . S
C1174 C1170 1.524 . S
C1174 H1186 0.956 . S
C1174 H1187 0.961 . S
C1174 H1188 0.961 . S
C1175 C1172 1.539 . S
C1175 H1189 0.958 . S
C1175 H1190 0.961 . S
C1175 H1191 0.960 . S
H1176 C1160 0.931 . S
H1177 C1165 0.929 . S
H1178 C1166 0.960 . S
H1179 C1166 0.962 . S
H1180 C1166 0.960 . S
H1181 C1167 0.961 . S
H1182 C1167 0.961 . S
H1183 C1167 0.961 . S
H1184 C1168 0.931 . S
H1185 C1173 0.930 . S
H1186 C1174 0.956 . S
H1187 C1174 0.961 . S
H1188 C1174 0.961 . S
H1189 C1175 0.958 . S
H1190 C1175 0.961 . S
H1191 C1175 0.960 . S
C425 C45 1.684 . S
C433 C119 1.668 . S
C457 C30 1.648 . S
C465 C159 1.690 . S
C489 C39 1.676 . S
C497 C199 1.678 . S
C529 C239 1.685 . S
C521 C34 1.663 . S
C553 C97 1.677 . S
C561 C279 1.673 . S
C593 C319 1.679 . S
C585 C82 1.681 . S
C625 C359 1.676 . S
C617 C91 1.685 . S
C657 C399 1.678 . S
C649 C86 1.679 . S
C689 C365 1.605 . S
C681 C26 1.558 . S
C721 C405 1.636 . S
C713 C36 1.520 . S
C753 C266 1.533 . S
C745 C32 1.521 . S
C785 C325 1.630 . S
C777 C42 1.550 . S
C809 C18 1.611 . S
C817 C306 1.681 . S
C849 C346 1.711 . S
C841 C50 1.584 . S
C873 C4 1.605 . S
C881 C386 1.679 . S
C905 C48 1.584 . S
C913 C285 1.636 . S
C945 C205 1.610 . S
C937 C78 1.550 . S
C969 C88 1.584 . S
C977 C245 1.631 . S
C1009 C106 1.519 . S
C1001 C84 1.549 . S
C1041 C165 1.638 . S
C1033 C94 1.537 . S
C1073 C146 1.689 . S
C1065 C70 1.545 . S
C1105 C186 1.709 . S
C1097 C102 1.608 . S
C1129 C56 1.568 . S
C1137 C226 1.682 . S
C1161 C100 1.577 . S
C1169 C125 1.639 . S
