# Generated by pormake.
# Topology ocu, (6,8)-cn, num edge types: 1
# Building blocks:
#     Node 0, Type 0, BuildingBlock: KUMBOL_clean_sbu_0, # of connection points: 6
#     Node 1, Type 0, BuildingBlock: KUMBOL_clean_sbu_0, # of connection points: 6
#     Node 2, Type 0, BuildingBlock: KUMBOL_clean_sbu_0, # of connection points: 6
#     Node 3, Type 0, BuildingBlock: KUMBOL_clean_sbu_0, # of connection points: 6
#     Node 4, Type 0, BuildingBlock: KUMBOL_clean_sbu_0, # of connection points: 6
#     Node 5, Type 0, BuildingBlock: KUMBOL_clean_sbu_0, # of connection points: 6
#     Node 6, Type 0, BuildingBlock: KUMBOL_clean_sbu_0, # of connection points: 6
#     Node 7, Type 0, BuildingBlock: KUMBOL_clean_sbu_0, # of connection points: 6
#     Node 8, Type 1, BuildingBlock: VETTIZ_charged_sbu_0, # of connection points: 8
#     Node 9, Type 1, BuildingBlock: VETTIZ_charged_sbu_0, # of connection points: 8
#     Node 10, Type 1, BuildingBlock: VETTIZ_charged_sbu_0, # of connection points: 8
#     Node 11, Type 1, BuildingBlock: VETTIZ_charged_sbu_0, # of connection points: 8
#     Node 12, Type 1, BuildingBlock: VETTIZ_charged_sbu_0, # of connection points: 8
#     Node 13, Type 1, BuildingBlock: VETTIZ_charged_sbu_0, # of connection points: 8
#     Edge 14, Type (0, 1), BuildingBlock: TEMPAE_clean_linker_10, # of connection points: 2
#     Edge 15, Type (0, 1), BuildingBlock: TEMPAE_clean_linker_10, # of connection points: 2
#     Edge 16, Type (0, 1), BuildingBlock: TEMPAE_clean_linker_10, # of connection points: 2
#     Edge 17, Type (0, 1), BuildingBlock: TEMPAE_clean_linker_10, # of connection points: 2
#     Edge 18, Type (0, 1), BuildingBlock: TEMPAE_clean_linker_10, # of connection points: 2
#     Edge 19, Type (0, 1), BuildingBlock: TEMPAE_clean_linker_10, # of connection points: 2
#     Edge 20, Type (0, 1), BuildingBlock: TEMPAE_clean_linker_10, # of connection points: 2
#     Edge 21, Type (0, 1), BuildingBlock: TEMPAE_clean_linker_10, # of connection points: 2
#     Edge 22, Type (0, 1), BuildingBlock: TEMPAE_clean_linker_10, # of connection points: 2
#     Edge 23, Type (0, 1), BuildingBlock: TEMPAE_clean_linker_10, # of connection points: 2
#     Edge 24, Type (0, 1), BuildingBlock: TEMPAE_clean_linker_10, # of connection points: 2
#     Edge 25, Type (0, 1), BuildingBlock: TEMPAE_clean_linker_10, # of connection points: 2
#     Edge 26, Type (0, 1), BuildingBlock: TEMPAE_clean_linker_10, # of connection points: 2
#     Edge 27, Type (0, 1), BuildingBlock: TEMPAE_clean_linker_10, # of connection points: 2
#     Edge 28, Type (0, 1), BuildingBlock: TEMPAE_clean_linker_10, # of connection points: 2
#     Edge 29, Type (0, 1), BuildingBlock: TEMPAE_clean_linker_10, # of connection points: 2
#     Edge 30, Type (0, 1), BuildingBlock: TEMPAE_clean_linker_10, # of connection points: 2
#     Edge 31, Type (0, 1), BuildingBlock: TEMPAE_clean_linker_10, # of connection points: 2
#     Edge 32, Type (0, 1), BuildingBlock: TEMPAE_clean_linker_10, # of connection points: 2
#     Edge 33, Type (0, 1), BuildingBlock: TEMPAE_clean_linker_10, # of connection points: 2
#     Edge 34, Type (0, 1), BuildingBlock: TEMPAE_clean_linker_10, # of connection points: 2
#     Edge 35, Type (0, 1), BuildingBlock: TEMPAE_clean_linker_10, # of connection points: 2
#     Edge 36, Type (0, 1), BuildingBlock: TEMPAE_clean_linker_10, # of connection points: 2
#     Edge 37, Type (0, 1), BuildingBlock: TEMPAE_clean_linker_10, # of connection points: 2
#     Edge 38, Type (0, 1), BuildingBlock: TEMPAE_clean_linker_10, # of connection points: 2
#     Edge 39, Type (0, 1), BuildingBlock: TEMPAE_clean_linker_10, # of connection points: 2
#     Edge 40, Type (0, 1), BuildingBlock: TEMPAE_clean_linker_10, # of connection points: 2
#     Edge 41, Type (0, 1), BuildingBlock: TEMPAE_clean_linker_10, # of connection points: 2
#     Edge 42, Type (0, 1), BuildingBlock: TEMPAE_clean_linker_10, # of connection points: 2
#     Edge 43, Type (0, 1), BuildingBlock: TEMPAE_clean_linker_10, # of connection points: 2
#     Edge 44, Type (0, 1), BuildingBlock: TEMPAE_clean_linker_10, # of connection points: 2
#     Edge 45, Type (0, 1), BuildingBlock: TEMPAE_clean_linker_10, # of connection points: 2
#     Edge 46, Type (0, 1), BuildingBlock: TEMPAE_clean_linker_10, # of connection points: 2
#     Edge 47, Type (0, 1), BuildingBlock: TEMPAE_clean_linker_10, # of connection points: 2
#     Edge 48, Type (0, 1), BuildingBlock: TEMPAE_clean_linker_10, # of connection points: 2
#     Edge 49, Type (0, 1), BuildingBlock: TEMPAE_clean_linker_10, # of connection points: 2
#     Edge 50, Type (0, 1), BuildingBlock: TEMPAE_clean_linker_10, # of connection points: 2
#     Edge 51, Type (0, 1), BuildingBlock: TEMPAE_clean_linker_10, # of connection points: 2
#     Edge 52, Type (0, 1), BuildingBlock: TEMPAE_clean_linker_10, # of connection points: 2
#     Edge 53, Type (0, 1), BuildingBlock: TEMPAE_clean_linker_10, # of connection points: 2
#     Edge 54, Type (0, 1), BuildingBlock: TEMPAE_clean_linker_10, # of connection points: 2
#     Edge 55, Type (0, 1), BuildingBlock: TEMPAE_clean_linker_10, # of connection points: 2
#     Edge 56, Type (0, 1), BuildingBlock: TEMPAE_clean_linker_10, # of connection points: 2
#     Edge 57, Type (0, 1), BuildingBlock: TEMPAE_clean_linker_10, # of connection points: 2
#     Edge 58, Type (0, 1), BuildingBlock: TEMPAE_clean_linker_10, # of connection points: 2
#     Edge 59, Type (0, 1), BuildingBlock: TEMPAE_clean_linker_10, # of connection points: 2
#     Edge 60, Type (0, 1), BuildingBlock: TEMPAE_clean_linker_10, # of connection points: 2
#     Edge 61, Type (0, 1), BuildingBlock: TEMPAE_clean_linker_10, # of connection points: 2
# Relax obj value: 0.125
# Max RMSD: 0.255
# Mean RMSD: 0.161
data_MOF--net-ocu--node1-KUMBOL_clean_sbu_0--node2-VETTIZ_charged_sbu_0--edge1-TEMPAE_clean_linker_10
_symmetry_space_group_name_H-M    P1
_symmetry_Int_Tables_number       1
_symmetry_cell_setting            triclinic
loop_
_symmetry_equiv_pos_as_xyz
'x, y, z'
_cell_length_a     40.133554
_cell_length_b     37.468513
_cell_length_c     42.078012
_cell_angle_alpha  84.221834
_cell_angle_beta   94.389775
_cell_angle_gamma 102.53622
loop_
_atom_site_label
_atom_site_type_symbol
_atom_site_fract_x
_atom_site_fract_y
_atom_site_fract_z
_atom_type_partial_charge
Gd0 Gd 0.29659 0.3231 0.30956 0.0
Gd1 Gd 0.27673 0.25445 0.25915 0.0
C2 C 0.21835 0.27699 0.16617 0.0
C3 C 0.16041 0.2462 0.17741 0.0
C4 C 0.20528 0.25116 0.22045 0.0
C5 C 0.22896 0.27079 0.19883 0.0
C6 C 0.17079 0.23861 0.20945 0.0
C7 C 0.18413 0.26492 0.15582 0.0
C8 C 0.24234 0.29584 0.14467 0.0
C9 C 0.27597 0.3084 0.15563 0.0
N10 N 0.26235 0.28252 0.20899 0.0
C11 C 0.28568 0.30103 0.18771 0.0
H12 H 0.31238 0.30824 0.19407 0.0
C13 C 0.19416 0.21604 0.2698 0.0
N14 N 0.21621 0.24126 0.25097 0.0
C15 C 0.15976 0.20478 0.26045 0.0
C16 C 0.14788 0.2165 0.23028 0.0
H17 H 0.20291 0.20094 0.29065 0.0
H18 H 0.17574 0.26984 0.13098 0.0
H19 H 0.28069 0.25953 0.37153 0.0
H20 H 0.23506 0.30117 0.1196 0.0
H21 H 0.2948 0.32279 0.13912 0.0
H22 H 0.13417 0.23651 0.16878 0.0
H23 H 0.34863 0.40402 0.28615 0.0
H24 H 0.37095 0.26318 0.43182 0.0
H25 H 0.31032 0.23552 0.41903 0.0
H26 H 0.44962 0.36517 0.38436 0.0
H27 H 0.14292 0.18508 0.2758 0.0
H28 H 0.12143 0.2063 0.22255 0.0
H29 H 0.4225 0.31159 0.41875 0.0
H30 H 0.40757 0.4373 0.2969 0.0
N31 N 0.32447 0.2965 0.3541 0.0
C32 C 0.3582 0.27277 0.41001 0.0
C33 C 0.32412 0.25694 0.40279 0.0
C34 C 0.37503 0.30181 0.38968 0.0
C35 C 0.35738 0.31317 0.36136 0.0
C36 C 0.30746 0.26984 0.37509 0.0
N37 N 0.35368 0.35657 0.31709 0.0
C38 C 0.37269 0.34347 0.34188 0.0
C39 C 0.3985 0.41054 0.3092 0.0
C40 C 0.41919 0.39613 0.3329 0.0
C41 C 0.36538 0.391 0.30245 0.0
C42 C 0.40598 0.363 0.35041 0.0
H43 H 0.4445 0.41191 0.33885 0.0
O44 O 0.29839 0.37819 0.3202 0.0
O45 O 0.26349 0.31127 0.26265 0.0
O46 O 0.32858 0.28753 0.24587 0.0
O47 O 0.3266 0.34118 0.26744 0.0
O48 O 0.26579 0.36043 0.27968 0.0
O49 O 0.27368 0.33188 0.35234 0.0
O50 O 0.25309 0.1973 0.2543 0.0
O51 O 0.3132 0.26822 0.30348 0.0
O52 O 0.24612 0.28695 0.32202 0.0
O53 O 0.256 0.23373 0.30679 0.0
O54 O 0.31506 0.22148 0.28324 0.0
O55 O 0.28712 0.22879 0.2187 0.0
C56 C 0.25118 0.34177 0.25644 0.0
C57 C 0.4241 0.35053 0.37758 0.0
C58 C 0.40858 0.32017 0.39727 0.0
C59 C 0.28401 0.36741 0.34705 0.0
C60 C 0.29781 0.38822 0.37389 0.0
C61 C 0.33263 0.40329 0.3803 0.0
C62 C 0.2736 0.39732 0.39093 0.0
C63 C 0.28307 0.4217 0.41431 0.0
C64 C 0.34244 0.42758 0.40421 0.0
C65 C 0.31752 0.4373 0.4211 0.0
C66 C 0.34035 0.32272 0.24934 0.0
C67 C 0.32862 0.23973 0.30726 0.0
C68 C 0.2657 0.19804 0.22664 0.0
C69 C 0.27163 0.16406 0.2166 0.0
C70 C 0.24679 0.1314 0.22011 0.0
C71 C 0.30059 0.16494 0.20044 0.0
C72 C 0.30634 0.13321 0.18928 0.0
C73 C 0.25165 0.09975 0.20771 0.0
C74 C 0.28149 0.10052 0.1923 0.0
C75 C 0.23967 0.25118 0.32354 0.0
H76 H 0.35196 0.39748 0.36652 0.0
H77 H 0.24666 0.38667 0.38474 0.0
H78 H 0.36919 0.43951 0.40906 0.0
H79 H 0.32489 0.45677 0.43905 0.0
H80 H 0.2235 0.13059 0.23185 0.0
H81 H 0.31892 0.19064 0.19632 0.0
H82 H 0.23238 0.07464 0.21017 0.0
H83 H 0.28536 0.07573 0.1833 0.0
Gd84 Gd 0.74893 0.32058 0.29399 0.0
Gd85 Gd 0.80927 0.2708 0.27041 0.0
C86 C 0.90958 0.32613 0.22524 0.0
C87 C 0.91039 0.2871 0.1828 0.0
C88 C 0.85988 0.27916 0.21346 0.0
C89 C 0.87642 0.30641 0.23207 0.0
C90 C 0.87642 0.26949 0.18819 0.0
C91 C 0.92697 0.31547 0.2013 0.0
C92 C 0.92358 0.35695 0.24164 0.0
C93 C 0.90327 0.36933 0.26171 0.0
N94 N 0.85864 0.31586 0.25485 0.0
C95 C 0.87028 0.34909 0.26714 0.0
H96 H 0.85469 0.36 0.2818 0.0
C97 C 0.80952 0.23638 0.2008 0.0
N98 N 0.82702 0.26315 0.21939 0.0
C99 C 0.82459 0.22617 0.17523 0.0
C100 C 0.85831 0.24262 0.16901 0.0
H101 H 0.78464 0.22065 0.20681 0.0
H102 H 0.9527 0.32988 0.19612 0.0
H103 H 0.68724 0.2427 0.27297 0.0
H104 H 0.94922 0.37246 0.23758 0.0
H105 H 0.91302 0.39441 0.27317 0.0
H106 H 0.9237 0.27968 0.16382 0.0
H107 H 0.78186 0.36873 0.35733 0.0
H108 H 0.60326 0.23587 0.3302 0.0
H109 H 0.6283 0.21683 0.28457 0.0
H110 H 0.64892 0.31438 0.41247 0.0
H111 H 0.81052 0.20468 0.16105 0.0
H112 H 0.87012 0.23428 0.14947 0.0
H113 H 0.61089 0.27325 0.37699 0.0
H114 H 0.76454 0.38015 0.40871 0.0
N115 N 0.69636 0.28073 0.30909 0.0
C116 C 0.62942 0.24824 0.32475 0.0
C117 C 0.64334 0.23771 0.29886 0.0
C118 C 0.64992 0.27337 0.34415 0.0
C119 C 0.68405 0.28839 0.33625 0.0
C120 C 0.67697 0.25377 0.29166 0.0
N121 N 0.73793 0.3262 0.34774 0.0
C122 C 0.70559 0.31127 0.35639 0.0
C123 C 0.74788 0.36013 0.39462 0.0
C124 C 0.71523 0.34409 0.40415 0.0
C125 C 0.75819 0.35216 0.3657 0.0
C126 C 0.69324 0.32039 0.38448 0.0
H127 H 0.70676 0.35144 0.42598 0.0
O128 O 0.76887 0.37887 0.29684 0.0
O129 O 0.79462 0.32408 0.26622 0.0
O130 O 0.83956 0.29857 0.31225 0.0
O131 O 0.79772 0.32706 0.32789 0.0
O132 O 0.75467 0.34411 0.24304 0.0
O133 O 0.71408 0.35742 0.29246 0.0
O134 O 0.78999 0.21305 0.26553 0.0
O135 O 0.76267 0.26701 0.29696 0.0
O136 O 0.72134 0.29371 0.24964 0.0
O137 O 0.7627 0.26419 0.23407 0.0
O138 O 0.80232 0.24652 0.32163 0.0
O139 O 0.84459 0.23431 0.27603 0.0
C140 C 0.78512 0.33972 0.24025 0.0
C141 C 0.65891 0.30707 0.39138 0.0
C142 C 0.63722 0.28382 0.3711 0.0
C143 C 0.73872 0.38676 0.29192 0.0
C144 C 0.73608 0.4144 0.26539 0.0
C145 C 0.75211 0.45128 0.26717 0.0
C146 C 0.72102 0.40238 0.23646 0.0
C147 C 0.72311 0.4256 0.20848 0.0
C148 C 0.75305 0.47564 0.23965 0.0
C149 C 0.73902 0.46291 0.21032 0.0
C150 C 0.82888 0.31968 0.33121 0.0
C151 C 0.77154 0.25107 0.32294 0.0
C152 C 0.82054 0.2059 0.26935 0.0
C153 C 0.82326 0.17096 0.28596 0.0
C154 C 0.82769 0.14272 0.2684 0.0
C155 C 0.82483 0.16681 0.31914 0.0
C156 C 0.83441 0.13595 0.33527 0.0
C157 C 0.83489 0.1106 0.28434 0.0
C158 C 0.83891 0.1074 0.31766 0.0
C159 C 0.73181 0.27237 0.23042 0.0
H160 H 0.76438 0.46093 0.28947 0.0
H161 H 0.70862 0.37394 0.23573 0.0
H162 H 0.76523 0.50426 0.24089 0.0
H163 H 0.73987 0.48252 0.18953 0.0
H164 H 0.82651 0.14596 0.24248 0.0
H165 H 0.82127 0.18879 0.3324 0.0
H166 H 0.83899 0.08897 0.27084 0.0
H167 H 0.8474 0.08358 0.32933 0.0
Gd168 Gd 0.78067 0.75865 0.30612 0.0
Gd169 Gd 0.80157 0.83964 0.25717 0.0
C170 C 0.85725 0.81446 0.17394 0.0
C171 C 0.91636 0.8414 0.18807 0.0
C172 C 0.87171 0.84332 0.22377 0.0
C173 C 0.84719 0.82444 0.20276 0.0
C174 C 0.90638 0.85318 0.21571 0.0
C175 C 0.89188 0.82214 0.16725 0.0
C176 C 0.83214 0.79803 0.15199 0.0
C177 C 0.79786 0.79319 0.15826 0.0
N178 N 0.8135 0.81789 0.20926 0.0
C179 C 0.78898 0.80416 0.18663 0.0
H180 H 0.76242 0.80317 0.18907 0.0
C181 C 0.88391 0.88202 0.26581 0.0
N182 N 0.86146 0.85554 0.25003 0.0
C183 C 0.91825 0.89223 0.25889 0.0
C184 C 0.92979 0.87694 0.23429 0.0
H185 H 0.87528 0.89697 0.28308 0.0
H186 H 0.89985 0.81472 0.14526 0.0
H187 H 0.79497 0.82243 0.36045 0.0
H188 H 0.83893 0.78987 0.12978 0.0
H189 H 0.77816 0.78175 0.14087 0.0
H190 H 0.94282 0.84857 0.18178 0.0
H191 H 0.71901 0.69344 0.27053 0.0
H192 H 0.71572 0.79466 0.42542 0.0
H193 H 0.77198 0.8314 0.41043 0.0
H194 H 0.6341 0.70086 0.37647 0.0
H195 H 0.93555 0.91275 0.27201 0.0
H196 H 0.95636 0.8855 0.22852 0.0
H197 H 0.66453 0.74641 0.41239 0.0
H198 H 0.6614 0.65881 0.28033 0.0
N199 N 0.75515 0.77829 0.34828 0.0
C200 C 0.72649 0.78981 0.40381 0.0
C201 C 0.7584 0.81021 0.3957 0.0
C202 C 0.70854 0.76398 0.38355 0.0
C203 C 0.72359 0.75883 0.35547 0.0
C204 C 0.77219 0.80412 0.36777 0.0
N205 N 0.72186 0.72822 0.3086 0.0
C206 C 0.70633 0.73343 0.33493 0.0
C207 C 0.67342 0.68017 0.29555 0.0
C208 C 0.65721 0.68578 0.32208 0.0
C209 C 0.70593 0.70102 0.28949 0.0
C210 C 0.67371 0.71223 0.34237 0.0
H211 H 0.63233 0.66889 0.32716 0.0
O212 O 0.76866 0.70047 0.31663 0.0
O213 O 0.81284 0.78195 0.26286 0.0
O214 O 0.74785 0.80963 0.24128 0.0
O215 O 0.75427 0.7514 0.2588 0.0
O216 O 0.81226 0.72907 0.2772 0.0
O217 O 0.80607 0.73499 0.3481 0.0
O218 O 0.82218 0.89748 0.25228 0.0
O219 O 0.76805 0.81658 0.29968 0.0
O220 O 0.82985 0.78902 0.32896 0.0
O221 O 0.83361 0.84717 0.30349 0.0
O222 O 0.76857 0.8694 0.2839 0.0
O223 O 0.78527 0.87258 0.21629 0.0
C224 C 0.82523 0.75403 0.25549 0.0
C225 C 0.65889 0.71717 0.37033 0.0
C226 C 0.67624 0.743 0.39083 0.0
C227 C 0.78844 0.70227 0.34245 0.0
C228 C 0.79122 0.66913 0.36227 0.0
C229 C 0.76775 0.63593 0.35821 0.0
C230 C 0.81935 0.67006 0.38353 0.0
C231 C 0.82592 0.63765 0.39913 0.0
C232 C 0.77343 0.60353 0.37492 0.0
C233 C 0.80278 0.60419 0.39506 0.0
C234 C 0.73735 0.77358 0.24225 0.0
C235 C 0.75452 0.84465 0.3052 0.0
C236 C 0.80208 0.90308 0.22771 0.0
C237 C 0.7829 0.93091 0.2315 0.0
C238 C 0.79768 0.96257 0.24709 0.0
C239 C 0.74934 0.92574 0.21958 0.0
C240 C 0.73214 0.95397 0.21865 0.0
C241 C 0.77897 0.98965 0.24885 0.0
C242 C 0.74639 0.98595 0.23363 0.0
C243 C 0.84419 0.82414 0.32572 0.0
H244 H 0.74549 0.63494 0.34178 0.0
H245 H 0.83706 0.69594 0.3869 0.0
H246 H 0.75564 0.57783 0.37158 0.0
H247 H 0.80777 0.57863 0.40675 0.0
H248 H 0.82366 0.96654 0.25739 0.0
H249 H 0.73778 0.90166 0.20708 0.0
H250 H 0.79045 1.01431 0.26034 0.0
H251 H 0.73336 1.00861 0.23181 0.0
Gd252 Gd 0.25918 0.82683 0.28045 0.0
Gd253 Gd 0.32111 0.77105 0.29371 0.0
C254 C 0.28279 0.66063 0.35097 0.0
C255 C 0.3136 0.67007 0.40229 0.0
C256 C 0.32137 0.71883 0.35892 0.0
C257 C 0.29832 0.69667 0.33921 0.0
C258 C 0.3305 0.7049 0.3901 0.0
C259 C 0.29004 0.6479 0.38265 0.0
C260 C 0.26213 0.63744 0.33007 0.0
C261 C 0.25987 0.64899 0.29773 0.0
N262 N 0.29412 0.7086 0.30778 0.0
C263 C 0.27728 0.68398 0.28681 0.0
H264 H 0.27763 0.68974 0.26136 0.0
C265 C 0.36782 0.76943 0.36158 0.0
N266 N 0.33824 0.75193 0.34633 0.0
C267 C 0.37824 0.75631 0.39209 0.0
C268 C 0.35866 0.72471 0.40701 0.0
H269 H 0.3832 0.79427 0.35066 0.0
H270 H 0.27925 0.62001 0.39156 0.0
H271 H 0.32991 0.89272 0.30258 0.0
H272 H 0.24939 0.60989 0.33835 0.0
H273 H 0.24562 0.63047 0.28094 0.0
H274 H 0.32016 0.6591 0.42621 0.0
H275 H 0.20949 0.79364 0.21513 0.0
H276 H 0.33029 0.98674 0.23725 0.0
H277 H 0.35195 0.95749 0.28753 0.0
H278 H 0.25315 0.94099 0.15159 0.0
H279 H 0.4014 0.77058 0.40403 0.0
H280 H 0.36681 0.71458 0.43071 0.0
H281 H 0.29261 0.98051 0.18734 0.0
H282 H 0.19556 0.8153 0.16067 0.0
N283 N 0.29248 0.88497 0.26385 0.0
C284 C 0.31957 0.95822 0.24442 0.0
C285 C 0.3317 0.94191 0.27287 0.0
C286 C 0.29516 0.93698 0.22471 0.0
C287 C 0.28222 0.89979 0.23491 0.0
C288 C 0.31814 0.90506 0.28202 0.0
N289 N 0.24789 0.84153 0.22505 0.0
C290 C 0.25994 0.87731 0.21473 0.0
C291 C 0.21428 0.83285 0.1753 0.0
C292 C 0.22751 0.86892 0.16409 0.0
C293 C 0.22369 0.82005 0.20624 0.0
C294 C 0.24983 0.89191 0.1841 0.0
H295 H 0.21938 0.87911 0.1404 0.0
O296 O 0.20398 0.81417 0.27241 0.0
O297 O 0.26731 0.77235 0.30323 0.0
O298 O 0.29056 0.75099 0.25012 0.0
O299 O 0.24272 0.77411 0.25714 0.0
O300 O 0.24381 0.80249 0.32998 0.0
O301 O 0.23057 0.86792 0.28589 0.0
O302 O 0.37452 0.7976 0.29254 0.0
O303 O 0.31228 0.82529 0.27042 0.0
O304 O 0.28568 0.84748 0.32585 0.0
O305 O 0.32666 0.8111 0.33196 0.0
O306 O 0.32962 0.79151 0.24192 0.0
O307 O 0.35827 0.73934 0.28598 0.0
C308 C 0.25405 0.77201 0.32987 0.0
C309 C 0.26137 0.92924 0.17468 0.0
C310 C 0.28382 0.95174 0.19499 0.0
C311 C 0.20115 0.84639 0.27932 0.0
C312 C 0.17365 0.84732 0.29949 0.0
C313 C 0.13977 0.83999 0.2869 0.0
C314 C 0.18124 0.8589 0.33017 0.0
C315 C 0.15548 0.86575 0.34756 0.0
C316 C 0.11362 0.84512 0.30483 0.0
C317 C 0.12141 0.85842 0.33493 0.0
C318 C 0.25897 0.75418 0.24248 0.0
C319 C 0.32193 0.82308 0.24265 0.0
C320 C 0.38326 0.76836 0.28435 0.0
C321 C 0.40408 0.77402 0.2563 0.0
C322 C 0.42735 0.80746 0.24976 0.0
C323 C 0.40021 0.74649 0.23534 0.0
C324 C 0.41866 0.7526 0.20787 0.0
C325 C 0.44584 0.81345 0.22222 0.0
C326 C 0.44139 0.78615 0.20115 0.0
C327 C 0.31195 0.83635 0.34141 0.0
H328 H 0.13372 0.83118 0.263 0.0
H329 H 0.20748 0.86431 0.33996 0.0
H330 H 0.08749 0.84 0.29495 0.0
H331 H 0.10106 0.86422 0.34774 0.0
H332 H 0.43104 0.82905 0.26577 0.0
H333 H 0.38277 0.72029 0.24009 0.0
H334 H 0.46368 0.83923 0.21725 0.0
H335 H 0.45615 0.79082 0.18005 0.0
Gd336 Gd 0.27434 0.82917 0.7879 0.0
Gd337 Gd 0.32686 0.76358 0.79149 0.0
C338 C 0.43187 0.81081 0.75305 0.0
C339 C 0.43396 0.76882 0.71333 0.0
C340 C 0.3817 0.76392 0.74087 0.0
C341 C 0.39809 0.79223 0.75918 0.0
C342 C 0.39953 0.75232 0.71748 0.0
C343 C 0.44995 0.79829 0.73076 0.0
C344 C 0.44615 0.84226 0.76864 0.0
C345 C 0.42651 0.85523 0.78891 0.0
N346 N 0.38022 0.80346 0.78107 0.0
C347 C 0.3934 0.8357 0.79464 0.0
H348 H 0.37841 0.84741 0.80925 0.0
C349 C 0.33092 0.72245 0.72567 0.0
N350 N 0.34792 0.74936 0.74446 0.0
C351 C 0.3475 0.71049 0.70212 0.0
C352 C 0.38203 0.72518 0.69821 0.0
H353 H 0.30483 0.70859 0.72949 0.0
H354 H 0.47608 0.81185 0.7262 0.0
H355 H 0.21925 0.74502 0.77721 0.0
H356 H 0.47182 0.85749 0.76423 0.0
H357 H 0.43677 0.88045 0.80003 0.0
H358 H 0.44802 0.76003 0.69566 0.0
H359 H 0.28695 0.88049 0.85029 0.0
H360 H 0.11766 0.75603 0.78637 0.0
H361 H 0.15765 0.72164 0.76829 0.0
H362 H 0.13731 0.85024 0.85782 0.0
H363 H 0.33378 0.68924 0.6875 0.0
H364 H 0.39485 0.7157 0.67997 0.0
H365 H 0.11043 0.80388 0.8211 0.0
H366 H 0.25377 0.90358 0.88713 0.0
N367 N 0.21512 0.79775 0.78824 0.0
C368 C 0.14482 0.76794 0.78707 0.0
C369 C 0.16723 0.74858 0.77663 0.0
C370 C 0.15829 0.79947 0.80279 0.0
C371 C 0.19403 0.81363 0.80322 0.0
C372 C 0.20241 0.76297 0.7794 0.0
N373 N 0.24365 0.84701 0.82765 0.0
C374 C 0.20904 0.83828 0.82479 0.0
C375 C 0.24082 0.8847 0.87009 0.0
C376 C 0.20528 0.87499 0.86794 0.0
C377 C 0.2596 0.87072 0.84955 0.0
C378 C 0.1889 0.85152 0.8451 0.0
H379 H 0.19075 0.88575 0.88397 0.0
O380 O 0.30871 0.88212 0.79384 0.0
O381 O 0.32416 0.8204 0.77038 0.0
O382 O 0.34682 0.79184 0.83501 0.0
O383 O 0.30357 0.82441 0.83596 0.0
O384 O 0.29422 0.84486 0.73731 0.0
O385 O 0.25528 0.87847 0.77704 0.0
O386 O 0.31541 0.70472 0.78986 0.0
O387 O 0.2792 0.77477 0.81122 0.0
O388 O 0.25311 0.80007 0.74421 0.0
O389 O 0.28652 0.75566 0.75211 0.0
O390 O 0.296 0.73256 0.83363 0.0
O391 O 0.36429 0.73247 0.81112 0.0
C392 C 0.32307 0.83418 0.74091 0.0
C393 C 0.15317 0.84024 0.84254 0.0
C394 C 0.13784 0.81422 0.82134 0.0
C395 C 0.28448 0.89989 0.78488 0.0
C396 C 0.29278 0.93424 0.76508 0.0
C397 C 0.29286 0.9668 0.77879 0.0
C398 C 0.28912 0.93323 0.73204 0.0
C399 C 0.27769 0.9615 0.7133 0.0
C400 C 0.28662 0.99739 0.75941 0.0
C401 C 0.2779 0.99446 0.72688 0.0
C402 C 0.3315 0.81367 0.84846 0.0
C403 C 0.27169 0.74961 0.8345 0.0
C404 C 0.34341 0.701 0.80657 0.0
C405 C 0.33768 0.67465 0.83467 0.0
C406 C 0.32817 0.63707 0.8313 0.0
C407 C 0.33844 0.68762 0.86473 0.0
C408 C 0.32941 0.66388 0.89212 0.0
C409 C 0.31916 0.61273 0.85802 0.0
C410 C 0.31944 0.62582 0.88806 0.0
C411 C 0.26222 0.77016 0.73664 0.0
H412 H 0.29504 0.96766 0.80455 0.0
H413 H 0.28869 0.90786 0.72174 0.0
H414 H 0.28534 0.02214 0.77007 0.0
H415 H 0.2685 1.0167 0.71324 0.0
H416 H 0.32723 0.62672 0.80804 0.0
H417 H 0.34645 0.71676 0.86619 0.0
H418 H 0.31208 0.58354 0.85552 0.0
H419 H 0.31314 0.60547 0.9079 0.0
Gd420 Gd 0.3171 0.30853 0.75609 0.0
Gd421 Gd 0.25229 0.28884 0.81512 0.0
C422 C 0.25236 0.21286 0.90683 0.0
C423 C 0.20177 0.16531 0.89765 0.0
C424 C 0.2179 0.21615 0.85725 0.0
C425 C 0.24632 0.23037 0.87633 0.0
C426 C 0.19491 0.18383 0.86799 0.0
C427 C 0.23041 0.17984 0.91707 0.0
C428 C 0.27972 0.22956 0.92654 0.0
C429 C 0.30048 0.26276 0.91567 0.0
N430 N 0.26722 0.26221 0.86573 0.0
C431 C 0.29357 0.27902 0.88523 0.0
H432 H 0.30973 0.30478 0.87733 0.0
C433 C 0.18205 0.22397 0.81095 0.0
N434 N 0.21182 0.23487 0.82887 0.0
C435 C 0.1585 0.19214 0.82064 0.0
C436 C 0.16517 0.17168 0.84907 0.0
H437 H 0.17639 0.23961 0.78903 0.0
H438 H 0.23498 0.16574 0.94023 0.0
H439 H 0.25727 0.2893 0.69547 0.0
H440 H 0.28448 0.21744 0.95046 0.0
H441 H 0.32165 0.276 0.93081 0.0
H442 H 0.18461 0.14023 0.90615 0.0
H443 H 0.39261 0.35786 0.7793 0.0
H444 H 0.2848 0.3679 0.61633 0.0
H445 H 0.24601 0.31299 0.64032 0.0
H446 H 0.38874 0.44458 0.65444 0.0
H447 H 0.13522 0.18343 0.80616 0.0
H448 H 0.14683 0.14707 0.85656 0.0
H449 H 0.33764 0.41731 0.62202 0.0
H450 H 0.43595 0.41039 0.75836 0.0
N451 N 0.30194 0.3309 0.70389 0.0
C452 C 0.28989 0.35774 0.64085 0.0
C453 C 0.26797 0.32673 0.65428 0.0
C454 C 0.31822 0.37516 0.65914 0.0
C455 C 0.32363 0.36094 0.691 0.0
C456 C 0.27457 0.31338 0.68583 0.0
N457 N 0.35733 0.36096 0.73921 0.0
C458 C 0.35197 0.37675 0.7094 0.0
C459 C 0.41231 0.40147 0.74444 0.0
C460 C 0.4064 0.41932 0.71447 0.0
C461 C 0.38762 0.37179 0.75628 0.0
C462 C 0.37626 0.40658 0.69626 0.0
H463 H 0.42574 0.44206 0.70518 0.0
O464 O 0.36298 0.28624 0.7589 0.0
O465 O 0.30072 0.27709 0.80178 0.0
O466 O 0.29673 0.33582 0.82639 0.0
O467 O 0.32171 0.36117 0.77884 0.0
O468 O 0.35162 0.30266 0.80004 0.0
O469 O 0.32279 0.27026 0.72266 0.0
O470 O 0.20973 0.31629 0.8122 0.0
O471 O 0.26846 0.32231 0.76938 0.0
O472 O 0.27337 0.26198 0.7451 0.0
O473 O 0.24804 0.23551 0.79201 0.0
O474 O 0.21908 0.29191 0.77062 0.0
O475 O 0.24463 0.3205 0.85383 0.0
C476 C 0.32924 0.28118 0.8174 0.0
C477 C 0.37049 0.42154 0.66489 0.0
C478 C 0.34148 0.4059 0.64639 0.0
C479 C 0.35325 0.26757 0.73416 0.0
C480 C 0.37886 0.26997 0.71073 0.0
C481 C 0.3952 0.30394 0.69618 0.0
C482 C 0.38718 0.23769 0.70287 0.0
C483 C 0.41129 0.23943 0.68011 0.0
C484 C 0.41924 0.30568 0.67357 0.0
C485 C 0.42718 0.27352 0.66539 0.0
C486 C 0.3166 0.36275 0.80931 0.0
C487 C 0.23962 0.31657 0.7538 0.0
C488 C 0.21654 0.32833 0.84036 0.0
C489 C 0.18723 0.32336 0.86053 0.0
C490 C 0.16175 0.29118 0.8604 0.0
C491 C 0.18342 0.35184 0.87844 0.0
C492 C 0.15389 0.34832 0.89568 0.0
C493 C 0.13251 0.28758 0.87715 0.0
C494 C 0.12836 0.31598 0.89435 0.0
C495 C 0.25576 0.23365 0.76219 0.0
H496 H 0.38965 0.32906 0.7023 0.0
H497 H 0.37482 0.21133 0.7142 0.0
H498 H 0.43178 0.33199 0.66247 0.0
H499 H 0.44608 0.27521 0.64793 0.0
H500 H 0.16394 0.26913 0.84673 0.0
H501 H 0.20326 0.3766 0.87875 0.0
H502 H 0.11269 0.2629 0.87636 0.0
H503 H 0.10474 0.31271 0.90621 0.0
Gd504 Gd 0.76077 0.33092 0.78236 0.0
Gd505 Gd 0.81523 0.26657 0.79205 0.0
C506 C 0.76569 0.16292 0.85352 0.0
C507 C 0.7979 0.17094 0.90433 0.0
C508 C 0.81096 0.21691 0.8592 0.0
C509 C 0.78537 0.19646 0.84032 0.0
C510 C 0.81825 0.20344 0.89104 0.0
C511 C 0.77171 0.15075 0.88561 0.0
C512 C 0.7407 0.14216 0.83404 0.0
C513 C 0.73656 0.15409 0.80195 0.0
N514 N 0.77991 0.20888 0.80916 0.0
C515 C 0.7568 0.18705 0.78974 0.0
H516 H 0.7535 0.19361 0.76457 0.0
C517 C 0.86066 0.26368 0.8615 0.0
N518 N 0.83022 0.24855 0.84602 0.0
C519 C 0.86873 0.25162 0.89301 0.0
C520 C 0.84687 0.22197 0.90821 0.0
H521 H 0.87918 0.28529 0.84972 0.0
H522 H 0.75685 0.12514 0.89595 0.0
H523 H 0.83284 0.39818 0.80034 0.0
H524 H 0.725 0.11651 0.84337 0.0
H525 H 0.71792 0.13769 0.7864 0.0
H526 H 0.80293 0.16057 0.92881 0.0
H527 H 0.69156 0.31004 0.73125 0.0
H528 H 0.84621 0.48 0.72301 0.0
H529 H 0.86468 0.45481 0.77617 0.0
H530 H 0.75222 0.44112 0.64933 0.0
H531 H 0.89219 0.26477 0.9053 0.0
H532 H 0.85336 0.21237 0.93258 0.0
H533 H 0.80437 0.4747 0.67616 0.0
H534 H 0.66963 0.33273 0.67906 0.0
N535 N 0.79467 0.38808 0.76179 0.0
C536 C 0.83147 0.45449 0.7337 0.0
C537 C 0.84192 0.44041 0.76365 0.0
C538 C 0.80218 0.43549 0.71785 0.0
C539 C 0.78416 0.40184 0.73249 0.0
C540 C 0.8231 0.4075 0.77749 0.0
N541 N 0.73848 0.35018 0.73127 0.0
C542 C 0.7554 0.38232 0.71683 0.0
C543 C 0.69411 0.34662 0.68905 0.0
C544 C 0.71247 0.37809 0.67287 0.0
C545 C 0.70713 0.3335 0.71856 0.0
C546 C 0.74313 0.39675 0.68692 0.0
H547 H 0.70218 0.38842 0.65008 0.0
O548 O 0.70646 0.31847 0.78957 0.0
O549 O 0.76477 0.27445 0.80138 0.0
O550 O 0.78209 0.25022 0.74685 0.0
O551 O 0.74006 0.28422 0.74832 0.0
O552 O 0.75361 0.30862 0.83316 0.0
O553 O 0.73921 0.37098 0.80205 0.0
O554 O 0.87082 0.27757 0.78933 0.0
O555 O 0.81153 0.32285 0.77369 0.0
O556 O 0.79591 0.35002 0.82542 0.0
O557 O 0.8361 0.31379 0.82523 0.0
O558 O 0.82577 0.29108 0.74196 0.0
O559 O 0.8388 0.22291 0.78404 0.0
C560 C 0.75758 0.27625 0.82964 0.0
C561 C 0.76117 0.42988 0.67234 0.0
C562 C 0.79071 0.44911 0.6877 0.0
C563 C 0.70888 0.34952 0.80193 0.0
C564 C 0.67964 0.36626 0.80055 0.0
C565 C 0.65675 0.36797 0.77386 0.0
C566 C 0.67506 0.38096 0.82833 0.0
C567 C 0.64795 0.3979 0.83006 0.0
C568 C 0.62941 0.38537 0.7754 0.0
C569 C 0.62507 0.40066 0.80347 0.0
C570 C 0.75232 0.25841 0.73598 0.0
C571 C 0.82101 0.32335 0.74581 0.0
C572 C 0.86966 0.24304 0.78641 0.0
C573 C 0.8964 0.23156 0.77131 0.0
C574 C 0.93059 0.24298 0.78219 0.0
C575 C 0.8875 0.20463 0.74989 0.0
C576 C 0.91231 0.18837 0.73968 0.0
C577 C 0.95571 0.22701 0.77178 0.0
C578 C 0.94664 0.19953 0.75068 0.0
C579 C 0.82462 0.34027 0.83709 0.0
H580 H 0.65993 0.35619 0.75218 0.0
H581 H 0.693 0.37945 0.84893 0.0
H582 H 0.61163 0.387 0.7549 0.0
H583 H 0.6039 0.41407 0.80461 0.0
H584 H 0.93762 0.26334 0.79944 0.0
H585 H 0.86098 0.19533 0.74182 0.0
H586 H 0.98209 0.23564 0.78033 0.0
H587 H 0.96638 0.18753 0.74255 0.0
Gd588 Gd 0.79865 0.83938 0.81613 0.0
Gd589 Gd 0.79038 0.7708 0.75992 0.0
C590 C 0.71828 0.77854 0.67168 0.0
C591 C 0.67536 0.72211 0.6794 0.0
C592 C 0.72337 0.73612 0.7182 0.0
C593 C 0.73534 0.7691 0.70081 0.0
C594 C 0.6939 0.71165 0.70716 0.0
C595 C 0.68759 0.75549 0.66164 0.0
C596 C 0.73331 0.81008 0.65295 0.0
C597 C 0.76481 0.83094 0.66316 0.0
N598 N 0.76512 0.79062 0.71113 0.0
C599 C 0.78063 0.82045 0.69232 0.0
H600 H 0.80509 0.83622 0.69985 0.0
C601 C 0.73554 0.69152 0.75864 0.0
N602 N 0.74236 0.72659 0.74445 0.0
C603 C 0.70631 0.66639 0.74889 0.0
C604 C 0.68497 0.67676 0.72344 0.0
H605 H 0.75219 0.68328 0.7781 0.0
H606 H 0.67374 0.76266 0.63963 0.0
H607 H 0.76946 0.77223 0.87467 0.0
H608 H 0.72144 0.81775 0.63008 0.0
H609 H 0.777 0.85497 0.64855 0.0
H610 H 0.65233 0.70396 0.67079 0.0
H611 H 0.86052 0.91632 0.79642 0.0
H612 H 0.84388 0.78054 0.9524 0.0
H613 H 0.78797 0.75117 0.92821 0.0
H614 H 0.93318 0.87943 0.91726 0.0
H615 H 0.70036 0.63903 0.76091 0.0
H616 H 0.66251 0.65714 0.71572 0.0
H617 H 0.8973 0.82854 0.94829 0.0
H618 H 0.91703 0.94582 0.81672 0.0
N619 N 0.81547 0.81255 0.86618 0.0
C620 C 0.83611 0.78986 0.92832 0.0
C621 C 0.8046 0.7732 0.91475 0.0
C622 C 0.85708 0.81867 0.91088 0.0
C623 C 0.84606 0.82969 0.87938 0.0
C624 C 0.79431 0.78538 0.88388 0.0
N625 N 0.8545 0.87056 0.83226 0.0
C626 C 0.86644 0.85863 0.86172 0.0
C627 C 0.90352 0.92085 0.82926 0.0
C628 C 0.91704 0.90754 0.85831 0.0
C629 C 0.87166 0.90288 0.81717 0.0
C630 C 0.89804 0.87698 0.87545 0.0
H631 H 0.94136 0.92219 0.86807 0.0
O632 O 0.80442 0.8882 0.84064 0.0
O633 O 0.77526 0.82287 0.76847 0.0
O634 O 0.83744 0.8149 0.75113 0.0
O635 O 0.82928 0.8656 0.77436 0.0
O636 O 0.77082 0.87322 0.77978 0.0
O637 O 0.75565 0.8492 0.84004 0.0
O638 O 0.81486 0.72454 0.76093 0.0
O639 O 0.81859 0.78904 0.80686 0.0
O640 O 0.75246 0.79465 0.82507 0.0
O641 O 0.73996 0.75872 0.78173 0.0
O642 O 0.79467 0.73425 0.80505 0.0
O643 O 0.82091 0.76603 0.72079 0.0
C644 C 0.76099 0.85001 0.75862 0.0
C645 C 0.90907 0.86556 0.90647 0.0
C646 C 0.88855 0.83673 0.92421 0.0
C647 C 0.77248 0.88147 0.84744 0.0
C648 C 0.75531 0.91218 0.84012 0.0
C649 C 0.76598 0.93983 0.81559 0.0
C650 C 0.72958 0.91531 0.85952 0.0
C651 C 0.71527 0.94638 0.85509 0.0
C652 C 0.75118 0.97049 0.81087 0.0
C653 C 0.72608 0.974 0.83079 0.0
C654 C 0.84516 0.85007 0.75534 0.0
C655 C 0.81446 0.75721 0.8227 0.0
C656 C 0.82732 0.73476 0.73306 0.0
C657 C 0.82383 0.706 0.7114 0.0
C658 C 0.79188 0.68875 0.6983 0.0
C659 C 0.85334 0.6953 0.7041 0.0
C660 C 0.85096 0.6676 0.68371 0.0
C661 C 0.78947 0.66043 0.67855 0.0
C662 C 0.81899 0.64992 0.6711 0.0
C663 C 0.73251 0.76922 0.80873 0.0
H664 H 0.78621 0.93821 0.80052 0.0
H665 H 0.72154 0.89429 0.87872 0.0
H666 H 0.75958 0.99183 0.79214 0.0
H667 H 0.71517 0.99823 0.82736 0.0
H668 H 0.76892 0.69712 0.70298 0.0
H669 H 0.87818 0.7089 0.7138 0.0
H670 H 0.76476 0.64695 0.66873 0.0
H671 H 0.81702 0.6283 0.65535 0.0
Fe672 Fe 0.05575 0.12572 0.55372 0.0
O673 O 0.04559 0.07215 0.55636 0.0
Fe674 Fe 0.08274 0.04577 0.54489 0.0
Fe675 Fe 1.00547 0.04241 0.53307 0.0
O676 O 0.04862 0.072 0.55765 0.0
O677 O 0.04306 1.01751 0.52023 0.0
O678 O 0.03979 1.01715 0.51971 0.0
Fe679 Fe 0.03186 0.96402 0.52125 0.0
C680 C 0.983 0.09713 0.57215 0.0
O681 O 1.02249 0.13045 0.51568 0.0
O682 O 1.01353 0.07789 0.49313 0.0
O683 O 0.07506 0.97581 0.49583 0.0
O684 O 0.1134 1.01549 0.52697 0.0
O685 O 0.09259 0.08121 0.5048 0.0
O686 O 0.09548 0.13496 0.52383 0.0
O687 O 0.9666 1.00647 0.50704 0.0
O688 O 0.99886 0.97339 0.48445 0.0
C689 C 0.10092 0.11591 0.50225 0.0
O690 O 0.06338 0.95704 0.55936 0.0
O691 O 0.07357 1.00839 0.58398 0.0
O692 O 1.01367 0.11494 0.57955 0.0
O693 O 0.97482 0.07284 0.55132 0.0
C694 C 1.01104 0.11104 0.49273 0.0
C695 C 0.97035 0.98257 0.48777 0.0
C696 C 0.98785 0.97312 0.5748 0.0
O697 O 0.99784 1.00766 0.57321 0.0
O698 O 0.99176 0.95445 0.55206 0.0
C699 C 0.10536 0.99468 0.50352 0.0
O700 O 0.12004 0.07926 0.57381 0.0
O701 O 0.09033 0.11973 0.59015 0.0
C702 C 0.0754 0.97506 0.58298 0.0
C703 C 0.11606 0.10392 0.59227 0.0
Fe704 Fe 0.50671 0.99543 0.04895 0.0
O705 O 0.51291 0.04834 0.04189 0.0
Fe706 Fe 0.47214 0.06992 0.02184 0.0
Fe707 Fe 0.55015 0.07966 0.01709 0.0
O708 O 0.50972 0.04747 0.04166 0.0
O709 O 0.50977 0.10246 0.99657 0.0
O710 O 0.51358 0.10405 0.99759 0.0
Fe711 Fe 0.51981 0.15721 0.99393 0.0
C712 C 0.57949 0.02715 0.0638 0.0
O713 O 0.53571 0.99161 0.01202 0.0
O714 O 0.54116 0.04449 0.98136 0.0
O715 O 0.47534 0.1463 0.96558 0.0
O716 O 0.43903 0.1008 0.9961 0.0
O717 O 0.46067 0.03308 0.98696 0.0
O718 O 0.46405 0.98318 0.01972 0.0
O719 O 0.58475 0.11518 0.98874 0.0
O720 O 0.55377 0.15422 0.96081 0.0
C721 C 0.45337 0.99839 0.99376 0.0
O722 O 0.48934 0.15937 0.02973 0.0
O723 O 0.483 0.10453 0.05679 0.0
O724 O 0.55088 1.00975 0.07491 0.0
O725 O 0.58385 0.05072 0.03933 0.0
C726 C 0.54406 1.01112 0.98613 0.0
C727 C 0.58029 0.13948 0.96562 0.0
C728 C 0.57159 0.14806 0.05169 0.0
O729 O 0.56185 0.11335 0.05416 0.0
O730 O 0.56241 0.16714 0.02695 0.0
C731 C 0.44555 0.12613 0.97222 0.0
O732 O 0.43779 0.03131 0.05353 0.0
O733 O 0.47597 1.00167 0.08271 0.0
C734 C 0.48651 0.13902 0.05572 0.0
C735 C 0.44569 1.00793 0.07708 0.0
Fe736 Fe 1.02863 0.65125 0.04112 0.0
O737 O 1.0167 0.5955 0.04393 0.0
Fe738 Fe 0.06086 0.56797 0.05837 0.0
Fe739 Fe 0.96761 0.56626 0.05123 0.0
O740 O 1.02308 0.59667 0.04129 0.0
O741 O 1.02015 0.53505 0.07712 0.0
O742 O 1.00669 0.53777 0.07583 0.0
Fe743 Fe 1.01215 0.48173 0.07517 0.0
C744 C 0.96645 0.63466 0.09188 0.0
O745 O 0.99261 0.65117 1.00251 0.0
O746 O 0.94824 0.60477 0.01686 0.0
O747 O 0.04524 0.48556 0.03963 0.0
O748 O 0.05468 0.54215 0.01717 0.0
O749 O 0.09916 0.60815 0.03272 0.0
O750 O 0.06978 0.65198 0.01122 0.0
O751 O 0.96598 0.53069 0.01404 0.0
O752 O 0.97132 0.47602 0.04001 0.0
C753 C 0.09606 0.63647 0.0124 0.0
O754 O 0.05527 0.4849 0.10799 0.0
O755 O 0.09484 0.53 0.08367 0.0
O756 O 0.98925 0.65518 0.07376 0.0
O757 O 0.9604 0.59938 0.08961 0.0
C758 C 0.96124 0.63403 0.99879 0.0
C759 C 0.96111 0.49514 0.01546 0.0
C760 C 0.95809 0.4949 0.10775 0.0
O761 O 0.96173 0.52192 0.08633 0.0
O762 O 0.97888 0.47353 0.11013 0.0
C763 C 0.05546 0.50879 0.01673 0.0
O764 O 0.06866 0.59553 0.09797 0.0
O765 O 0.06346 0.65263 0.07932 0.0
C766 C 0.0872 0.50002 0.10429 0.0
C767 C 0.07434 0.62992 0.09995 0.0
Fe768 Fe 0.53855 0.55713 0.99668 0.0
O769 O 0.56268 0.581 0.03438 0.0
Fe770 Fe 0.45533 0.52448 0.01847 0.0
Fe771 Fe 0.61135 0.58548 0.04483 0.0
O772 O 0.50448 0.52945 0.02674 0.0
O773 O 0.50419 0.52934 0.02916 0.0
O774 O 0.56187 0.58211 0.03662 0.0
Fe775 Fe 0.52779 0.55402 0.0668 0.0
C776 C 0.59524 0.5184 1.006 0.0
O777 O 0.57672 0.58838 0.96938 0.0
O778 O 0.6152 0.62158 1.00469 0.0
O779 O 0.50059 0.5938 0.05909 0.0
O780 O 0.44892 0.55884 0.05112 0.0
O781 O 0.46056 0.56782 0.98358 0.0
O782 O 0.51449 0.59903 0.98977 0.0
O783 O 0.60356 0.61983 0.07674 0.0
O784 O 0.55731 0.58468 0.10309 0.0
C785 C 0.48342 0.59738 0.98175 0.0
O786 O 0.48987 0.52 0.09372 0.0
O787 O 0.45333 0.48636 0.05684 0.0
O788 O 0.56324 0.51561 1.00491 0.0
O789 O 0.61632 0.54659 0.01511 0.0
C790 C 0.60157 0.61538 0.97629 0.0
C791 C 0.58302 0.61288 0.10002 0.0
C792 C 0.58392 0.51607 0.08379 0.0
O793 O 0.60582 0.54608 0.08236 0.0
O794 O 0.55324 0.51324 0.07405 0.0
C795 C 0.4685 0.5873 0.06112 0.0
O796 O 0.46295 0.49277 0.98394 0.0
O797 O 0.50866 0.53032 0.95933 0.0
C798 C 0.46661 0.49176 0.0856 0.0
C799 C 0.4818 0.50372 0.95981 0.0
Fe800 Fe 1.02923 0.43378 0.55774 0.0
O801 O 0.03737 0.48717 0.55631 0.0
Fe802 Fe 0.05884 0.51999 0.51698 0.0
Fe803 Fe 0.06478 0.51632 0.59006 0.0
O804 O 0.0364 0.48781 0.55352 0.0
O805 O 0.08858 0.54686 0.55065 0.0
O806 O 0.08923 0.54643 0.55369 0.0
Fe807 Fe 0.09841 0.6002 0.55104 0.0
C808 C 1.00828 0.45474 0.61997 0.0
O809 O 0.06826 0.42908 0.59259 0.0
O810 O 0.1007 0.48513 0.59517 0.0
O811 O 0.12671 0.59773 0.51287 0.0
O812 O 0.08767 0.55836 0.48231 0.0
O813 O 0.09312 0.48886 0.51761 0.0
O814 O 0.06117 0.43198 0.52291 0.0
O815 O 0.09656 0.55095 0.62105 0.0
O816 O 0.1327 0.59054 0.587 0.0
C817 C 0.08806 0.45487 0.51532 0.0
O818 O 0.06048 0.60705 0.51774 0.0
O819 O 1.02497 0.552 0.51727 0.0
O820 O 1.00027 0.4373 0.59447 0.0
O821 O 0.03461 0.4815 0.62403 0.0
C822 C 0.09576 0.45074 0.60164 0.0
C823 C 0.12443 0.57511 0.61501 0.0
C824 C 0.03694 0.5814 0.59256 0.0
O825 O 1.02966 0.54816 0.5864 0.0
O826 O 0.06569 0.60226 0.58636 0.0
C827 C 0.11514 0.58444 0.48591 0.0
O828 O 1.02341 0.48573 0.48615 0.0
O829 O 0.99384 0.43926 0.52045 0.0
C830 C 0.03152 0.58656 0.51205 0.0
C831 C 0.99832 0.45749 0.49261 0.0
Fe832 Fe 0.56535 0.94248 0.52275 0.0
O833 O 0.57474 0.99706 0.52134 0.0
Fe834 Fe 0.55398 0.02648 0.47679 0.0
Fe835 Fe 0.56035 0.02158 0.5575 0.0
O836 O 0.57421 0.99779 0.51528 0.0
O837 O 0.53949 0.04982 0.51371 0.0
O838 O 0.54055 0.04982 0.51916 0.0
Fe839 Fe 0.54436 0.10348 0.51568 0.0
C840 C 0.50919 0.95037 0.57073 0.0
O841 O 0.60353 0.94918 0.55912 0.0
O842 O 0.58574 0.98641 0.59175 0.0
O843 O 0.57879 0.11597 0.48027 0.0
O844 O 0.59852 0.0656 0.47468 0.0
O845 O 0.5791 0.99176 0.44607 0.0
O846 O 0.59706 0.9485 0.48291 0.0
O847 O 0.60627 0.06213 0.56146 0.0
O848 O 0.58481 0.1124 0.55036 0.0
C849 C 0.59691 0.96471 0.45378 0.0
O850 O 0.50541 0.0981 0.47917 0.0
O851 O 0.52377 0.06456 0.4436 0.0
O852 O 0.53001 0.93255 0.56103 0.0
O853 O 0.51291 0.98436 0.56141 0.0
C854 C 0.60426 0.96254 0.58657 0.0
C855 C 0.60734 0.0963 0.5648 0.0
C856 C 0.51975 0.07372 0.58182 0.0
O857 O 0.54045 0.05124 0.5884 0.0
O858 O 0.51356 0.08979 0.55386 0.0
C859 C 0.60138 0.10029 0.47153 0.0
O860 O 0.509 0.98898 0.47793 0.0
O861 O 0.52487 0.93526 0.48929 0.0
C862 C 0.50425 0.08809 0.45038 0.0
C863 C 0.50317 0.95436 0.47886 0.0
C864 C 0.22681 0.20167 0.36693 0.0
C865 C 0.21627 0.22968 0.34684 0.0
C866 C 0.20596 0.18187 0.39057 0.0
C867 C 0.17275 0.18838 0.39235 0.0
C868 C 0.16091 0.21457 0.37022 0.0
C869 C 0.18335 0.23592 0.34828 0.0
C870 C 0.22007 0.15515 0.41437 0.0
C871 C 0.12486 0.22041 0.37009 0.0
C872 C 0.1155 0.11687 0.44542 0.0
C873 C 0.11814 0.13469 0.47358 0.0
C874 C 0.13193 0.13457 0.41811 0.0
C875 C 0.15203 0.17049 0.41943 0.0
C876 C 0.15448 0.18867 0.44767 0.0
C877 C 0.13717 0.17069 0.47429 0.0
C878 C 0.12803 0.11477 0.38807 0.0
C879 C 0.17646 0.22663 0.45021 0.0
H880 H 0.25212 0.19644 0.36512 0.0
H881 H 0.17498 0.25684 0.33183 0.0
H882 H 0.21754 0.16154 0.43916 0.0
H883 H 0.2053 0.12686 0.41174 0.0
H884 H 0.24743 0.15581 0.4112 0.0
H885 H 0.118 0.23709 0.34821 0.0
H886 H 0.10637 0.19364 0.37168 0.0
H887 H 0.12212 0.23472 0.39126 0.0
H888 H 0.10042 0.08917 0.44464 0.0
H889 H 0.1393 0.18453 0.496 0.0
H890 H 0.1527 0.10803 0.38347 0.0
H891 H 0.121 0.13267 0.36712 0.0
H892 H 0.10834 0.08885 0.38982 0.0
H893 H 0.20338 0.22639 0.44601 0.0
H894 H 0.17572 0.23683 0.47399 0.0
H895 H 0.16786 0.24631 0.43159 0.0
C896 C 0.84396 0.10444 0.38883 0.0
C897 C 0.8466 0.1371 0.36907 0.0
C898 C 0.86643 0.10254 0.41556 0.0
C899 C 0.89072 0.13447 0.42273 0.0
C900 C 0.88906 0.16886 0.40656 0.0
C901 C 0.86716 0.16976 0.37939 0.0
C902 C 0.8677 0.06544 0.43272 0.0
C903 C 0.91426 0.20358 0.41441 0.0
C904 C 0.9564 0.12973 0.48993 0.0
C905 C 0.98258 0.12118 0.47384 0.0
C906 C 0.92582 0.13359 0.47371 0.0
C907 C 0.92243 0.13048 0.44055 0.0
C908 C 0.94951 0.12354 0.42388 0.0
C909 C 0.97926 0.11802 0.44109 0.0
C910 C 0.89715 0.14032 0.49206 0.0
C911 C 0.94692 0.12152 0.38805 0.0
H912 H 0.82707 0.07957 0.38148 0.0
H913 H 0.8694 0.19541 0.36451 0.0
H914 H 0.88863 0.05497 0.42351 0.0
H915 H 0.87317 0.06736 0.45879 0.0
H916 H 0.84339 0.0452 0.42873 0.0
H917 H 0.90431 0.22844 0.40558 0.0
H918 H 0.92043 0.20404 0.44052 0.0
H919 H 0.93844 0.20499 0.40269 0.0
H920 H 0.95924 0.13184 0.51551 0.0
H921 H 0.99977 0.11113 0.42917 0.0
H922 H 0.87341 0.1196 0.48739 0.0
H923 H 0.89164 0.16762 0.48389 0.0
H924 H 0.9034 0.13926 0.51829 0.0
H925 H 0.92508 0.09939 0.38128 0.0
H926 H 0.97055 0.11619 0.37905 0.0
H927 H 0.94216 0.14773 0.37579 0.0
C928 C 0.85646 0.8301 0.38418 0.0
C929 C 0.86634 0.84035 0.3528 0.0
C930 C 0.8673 0.85396 0.40827 0.0
C931 C 0.89236 0.88643 0.40196 0.0
C932 C 0.90674 0.89365 0.37164 0.0
C933 C 0.89323 0.87063 0.34746 0.0
C934 C 0.85121 0.84471 0.44016 0.0
C935 C 0.937 0.92456 0.36425 0.0
C936 C 0.91781 0.96947 0.45073 0.0
C937 C 0.94114 0.95733 0.47334 0.0
C938 C 0.89925 0.94541 0.42878 0.0
C939 C 0.90649 0.90991 0.42823 0.0
C940 C 0.92903 0.89748 0.4521 0.0
C941 C 0.94375 0.92035 0.47571 0.0
C942 C 0.87419 0.95903 0.40455 0.0
C943 C 0.94067 0.86166 0.4518 0.0
H944 H 0.83813 0.80477 0.38947 0.0
H945 H 0.90446 0.87603 0.32469 0.0
H946 H 0.86893 0.83347 0.45789 0.0
H947 H 0.84583 0.86961 0.44918 0.0
H948 H 0.82704 0.82372 0.43867 0.0
H949 H 0.93326 0.93805 0.33987 0.0
H950 H 0.94214 0.94577 0.38153 0.0
H951 H 0.96016 0.91285 0.36435 0.0
H952 H 0.91574 0.99798 0.44883 0.0
H953 H 0.9614 0.9107 0.49371 0.0
H954 H 0.85136 0.9369 0.40029 0.0
H955 H 0.88649 0.96766 0.38149 0.0
H956 H 0.86581 0.98295 0.41243 0.0
H957 H 0.92816 0.84164 0.47078 0.0
H958 H 0.96867 0.8659 0.45758 0.0
H959 H 0.93527 0.84941 0.42857 0.0
C960 C 0.19193 0.91532 0.37756 0.0
C961 C 0.16476 0.88452 0.37697 0.0
C962 C 0.19647 0.93805 0.40256 0.0
C963 C 0.17283 0.92996 0.42669 0.0
C964 C 0.14811 0.89653 0.4282 0.0
C965 C 0.14444 0.87409 0.40314 0.0
C966 C 0.22369 0.97293 0.401 0.0
C967 C 0.12242 0.88678 0.45381 0.0
C968 C 0.16018 0.97812 0.49634 0.0
C969 C 0.13207 0.99201 0.48337 0.0
C970 C 0.17806 0.96177 0.47674 0.0
C971 C 0.1669 0.95975 0.44415 0.0
C972 C 0.1423 0.97955 0.43033 0.0
C973 C 0.12512 0.99567 0.45039 0.0
C974 C 0.20521 0.94233 0.49187 0.0
C975 C 0.12984 0.97853 0.39551 0.0
H976 H 0.20794 0.92337 0.35735 0.0
H977 H 0.12415 0.84969 0.40296 0.0
H978 H 0.21245 0.99595 0.38958 0.0
H979 H 0.23404 0.98005 0.42531 0.0
H980 H 0.24504 0.97049 0.3866 0.0
H981 H 0.10894 0.85751 0.45446 0.0
H982 H 0.13501 0.89214 0.47773 0.0
H983 H 0.10301 0.90401 0.44894 0.0
H984 H 0.16571 0.97636 0.522 0.0
H985 H 0.10366 1.00752 0.44075 0.0
H986 H 0.22365 0.93979 0.47432 0.0
H987 H 0.1929 0.91432 0.50158 0.0
H988 H 0.21933 0.95705 0.51209 0.0
H989 H 0.1516 0.98342 0.37981 0.0
H990 H 0.11416 0.99932 0.38802 0.0
H991 H 0.11383 0.95102 0.3916 0.0
C992 C 0.2317 0.91885 0.68477 0.0
C993 C 0.25591 0.95238 0.68421 0.0
C994 C 0.20274 0.91475 0.66398 0.0
C995 C 0.19791 0.9451 0.64304 0.0
C996 C 0.22421 0.9769 0.63921 0.0
C997 C 0.25352 0.9798 0.65963 0.0
C998 C 0.17546 0.87993 0.66738 0.0
C999 C 0.21991 1.00936 0.61604 0.0
C1000 C 0.12412 0.94554 0.58419 0.0
C1001 C 0.10338 0.96216 0.60087 0.0
C1002 C 0.15427 0.93772 0.59832 0.0
C1003 C 0.16358 0.94659 0.62987 0.0
C1004 C 0.14153 0.96077 0.64779 0.0
C1005 C 0.11157 0.96895 0.63271 0.0
C1006 C 0.17683 0.92194 0.57885 0.0
C1007 C 0.14938 0.96771 0.68262 0.0
H1008 H 0.23308 0.89713 0.70356 0.0
H1009 H 0.27283 1.00503 0.65856 0.0
H1010 H 0.1556 0.88408 0.68276 0.0
H1011 H 0.16274 0.87278 0.64382 0.0
H1012 H 0.18619 0.85641 0.6786 0.0
H1013 H 0.24129 0.03346 0.61876 0.0
H1014 H 0.21868 1.00163 0.59117 0.0
H1015 H 0.19565 1.01771 0.61952 0.0
H1016 H 0.11782 0.94039 0.55931 0.0
H1017 H 0.09499 0.98118 0.64546 0.0
H1018 H 0.16267 0.90991 0.55737 0.0
H1019 H 0.18783 0.90049 0.59343 0.0
H1020 H 0.1984 0.94399 0.57066 0.0
H1021 H 0.1395 0.94196 0.69753 0.0
H1022 H 0.13662 0.98914 0.68937 0.0
H1023 H 0.17718 0.97615 0.68865 0.0
C1024 C 0.25403 0.19967 0.71438 0.0
C1025 C 0.24096 0.2013 0.74414 0.0
C1026 C 0.23644 0.17614 0.69226 0.0
C1027 C 0.2053 0.15247 0.70034 0.0
C1028 C 0.194 0.15046 0.73174 0.0
C1029 C 0.21207 0.17507 0.75344 0.0
C1030 C 0.249 0.1804 0.65881 0.0
C1031 C 0.16121 0.12478 0.7413 0.0
C1032 C 0.14153 0.14968 0.63024 0.0
C1033 C 0.14147 0.11589 0.6184 0.0
C1034 C 0.16058 0.16048 0.65794 0.0
C1035 C 0.18146 0.13764 0.67388 0.0
C1036 C 0.18248 0.10388 0.66178 0.0
C1037 C 0.16229 0.09327 0.63402 0.0
C1038 C 0.15871 0.19687 0.66969 0.0
C1039 C 0.20514 0.0793 0.67776 0.0
H1040 H 0.27692 0.21879 0.70707 0.0
H1041 H 0.20246 0.17505 0.77673 0.0
H1042 H 0.24694 0.15328 0.64959 0.0
H1043 H 0.23286 0.19573 0.64252 0.0
H1044 H 0.27594 0.19576 0.65777 0.0
H1045 H 0.15919 0.12147 0.76767 0.0
H1046 H 0.13911 0.13585 0.73026 0.0
H1047 H 0.15934 0.09745 0.73246 0.0
H1048 H 0.12603 0.1678 0.61803 0.0
H1049 H 0.16218 0.06711 0.62508 0.0
H1050 H 0.18407 0.21587 0.66867 0.0
H1051 H 0.15164 0.1929 0.69497 0.0
H1052 H 0.13971 0.2103 0.65531 0.0
H1053 H 0.23166 0.08986 0.67031 0.0
H1054 H 0.19665 0.05072 0.67093 0.0
H1055 H 0.20565 0.07898 0.70419 0.0
C1056 C 0.9141 0.12873 0.71987 0.0
C1057 C 0.9021 0.16126 0.71616 0.0
C1058 C 0.91133 0.10735 0.69411 0.0
C1059 C 0.89708 0.11994 0.66434 0.0
C1060 C 0.8789 0.14838 0.66265 0.0
C1061 C 0.88218 0.1694 0.68864 0.0
C1062 C 0.92984 0.07609 0.69714 0.0
C1063 C 0.86247 0.16158 0.63148 0.0
C1064 C 0.96397 0.1381 0.6048 0.0
C1065 C 0.9562 0.10562 0.58961 0.0
C1066 C 0.94438 0.14332 0.62878 0.0
C1067 C 0.9144 0.11655 0.63578 0.0
C1068 C 0.90368 0.08614 0.61735 0.0
C1069 C 0.92538 0.08043 0.59469 0.0
C1070 C 0.95763 0.17625 0.64791 0.0
C1071 C 0.87057 0.05878 0.62263 0.0
H1072 H 0.92812 0.12172 0.74185 0.0
H1073 H 0.87217 0.19426 0.68607 0.0
H1074 H 0.91746 0.05451 0.68137 0.0
H1075 H 0.95651 0.08664 0.69002 0.0
H1076 H 0.93082 0.0636 0.7222 0.0
H1077 H 0.84162 0.17547 0.63575 0.0
H1078 H 0.88192 0.18174 0.61787 0.0
H1079 H 0.85211 0.13851 0.61649 0.0
H1080 H 0.98707 0.15844 0.59968 0.0
H1081 H 0.91905 0.05563 0.58228 0.0
H1082 H 0.96149 0.16723 0.67358 0.0
H1083 H 0.93908 0.19448 0.64566 0.0
H1084 H 0.98246 0.19289 0.63989 0.0
H1085 H 0.87446 0.03811 0.64255 0.0
H1086 H 0.86145 0.04398 0.60098 0.0
H1087 H 0.85038 0.07243 0.62904 0.0
C1088 C 0.90293 0.86884 0.73442 0.0
C1089 C 0.86924 0.87338 0.73376 0.0
C1090 C 0.92461 0.88666 0.71047 0.0
C1091 C 0.91143 0.90763 0.68455 0.0
C1092 C 0.87745 0.91273 0.68427 0.0
C1093 C 0.85705 0.89636 0.70951 0.0
C1094 C 0.96125 0.88234 0.71246 0.0
C1095 C 0.86204 0.93375 0.65652 0.0
C1096 C 0.96948 0.97555 0.62971 0.0
C1097 C 0.96974 0.95518 0.60345 0.0
C1098 C 0.95133 0.96011 0.65661 0.0
C1099 C 0.93273 0.92347 0.65723 0.0
C1100 C 0.93334 0.90244 0.63118 0.0
C1101 C 0.95208 0.9185 0.60462 0.0
C1102 C 0.95162 0.98319 0.68413 0.0
C1103 C 0.91353 0.86327 0.63104 0.0
H1104 H 0.91208 0.85097 0.75342 0.0
H1105 H 0.83079 0.89947 0.70917 0.0
H1106 H 0.96554 0.86698 0.69249 0.0
H1107 H 0.97875 0.90969 0.70999 0.0
H1108 H 0.96813 0.86754 0.73541 0.0
H1109 H 0.8351 0.9348 0.65995 0.0
H1110 H 0.87719 0.96223 0.65315 0.0
H1111 H 0.86277 0.92061 0.63416 0.0
H1112 H 0.98332 1.00385 0.62926 0.0
H1113 H 0.95225 0.9026 0.58452 0.0
H1114 H 0.95964 0.96882 0.70685 0.0
H1115 H 0.92548 0.98731 0.68682 0.0
H1116 H 0.96903 1.01055 0.6807 0.0
H1117 H 0.92324 0.84612 0.65115 0.0
H1118 H 0.91545 0.85122 0.60836 0.0
H1119 H 0.88615 0.86195 0.63461 0.0
C1120 C 0.3686 0.15673 0.18882 0.0
C1121 C 0.3388 0.1358 0.17477 0.0
C1122 C 0.39869 0.16598 0.1729 0.0
C1123 C 0.39941 0.15173 0.14342 0.0
C1124 C 0.36997 0.12905 0.12964 0.0
C1125 C 0.33958 0.12176 0.14542 0.0
C1126 C 0.42953 0.19103 0.18751 0.0
C1127 C 0.3706 0.11256 0.09837 0.0
C1128 C 0.46128 0.18291 0.08032 0.0
C1129 C 0.47729 0.15304 0.08395 0.0
C1130 C 0.43805 0.18577 0.10234 0.0
C1131 C 0.43157 0.15816 0.12787 0.0
C1132 C 0.45235 0.13212 0.13459 0.0
C1133 C 0.47602 0.13058 0.11269 0.0
C1134 C 0.41695 0.21474 0.09546 0.0
C1135 C 0.44579 0.10217 0.16166 0.0
H1136 H 0.368 0.16705 0.2119 0.0
H1137 H 0.3164 0.106 0.13451 0.0
H1138 H 0.44949 0.17527 0.19556 0.0
H1139 H 0.44077 0.21321 0.1695 0.0
H1140 H 0.42311 0.20375 0.20835 0.0
H1141 H 0.34526 0.096 0.09088 0.0
H1142 H 0.37869 0.13457 0.07912 0.0
H1143 H 0.38949 0.09463 0.1007 0.0
H1144 H 0.46334 0.20107 0.05847 0.0
H1145 H 0.4898 0.10844 0.11586 0.0
H1146 H 0.41137 0.22493 0.11791 0.0
H1147 H 0.39219 0.20264 0.0832 0.0
H1148 H 0.43007 0.23831 0.07962 0.0
H1149 H 0.44242 0.11362 0.18419 0.0
H1150 H 0.46685 0.08699 0.16577 0.0
H1151 H 0.42178 0.08227 0.15581 0.0
C1152 C 0.81189 0.40374 0.22437 0.0
C1153 C 0.80802 0.36651 0.22006 0.0
C1154 C 0.83327 0.43049 0.2055 0.0
C1155 C 0.85259 0.41937 0.18322 0.0
C1156 C 0.84866 0.38169 0.17863 0.0
C1157 C 0.82491 0.35575 0.19616 0.0
C1158 C 0.83576 0.47054 0.20972 0.0
C1159 C 0.87048 0.36873 0.15637 0.0
C1160 C 0.89647 0.47874 0.11486 0.0
C1161 C 0.92982 0.48692 0.12833 0.0
C1162 C 0.87007 0.45873 0.13335 0.0
C1163 C 0.8779 0.44698 0.16556 0.0
C1164 C 0.91099 0.45925 0.17988 0.0
C1165 C 0.9367 0.47898 0.16085 0.0
C1166 C 0.83454 0.448 0.11787 0.0
C1167 C 0.92092 0.44963 0.21441 0.0
H1168 H 0.79835 0.41193 0.24264 0.0
H1169 H 0.82 0.32718 0.19163 0.0
H1170 H 0.86265 0.48429 0.2153 0.0
H1171 H 0.82707 0.48444 0.18702 0.0
H1172 H 0.82018 0.47449 0.22921 0.0
H1173 H 0.86385 0.33851 0.1554 0.0
H1174 H 0.86765 0.38177 0.13179 0.0
H1175 H 0.89781 0.37698 0.16452 0.0
H1176 H 0.89162 0.48507 0.08942 0.0
H1177 H 0.96278 0.48588 0.17093 0.0
H1178 H 0.81503 0.45081 0.13425 0.0
H1179 H 0.82946 0.41886 0.11254 0.0
H1180 H 0.83138 0.46496 0.09506 0.0
H1181 H 0.89889 0.43767 0.22912 0.0
H1182 H 0.93577 0.47453 0.22521 0.0
H1183 H 0.93819 0.43011 0.21541 0.0
C1184 C 0.67254 0.94054 0.19705 0.0
C1185 C 0.70712 0.9541 0.19248 0.0
C1186 C 0.64934 0.93882 0.17064 0.0
C1187 C 0.66199 0.9512 0.14015 0.0
C1188 C 0.69713 0.95853 0.13517 0.0
C1189 C 0.71955 0.96102 0.16179 0.0
C1190 C 0.61156 0.92935 0.17587 0.0
C1191 C 0.711 0.97063 0.10249 0.0
C1192 C 0.60717 0.97678 0.07043 0.0
C1193 C 0.60772 1.01286 0.07632 0.0
C1194 C 0.62389 0.95527 0.09179 0.0
C1195 C 0.64221 0.97151 0.11835 0.0
C1196 C 0.64443 1.00906 0.12306 0.0
C1197 C 0.62689 0.02951 0.10151 0.0
C1198 C 0.6208 0.91539 0.08639 0.0
C1199 C 0.66401 0.0274 0.15135 0.0
H1200 H 0.66374 0.93273 0.22099 0.0
H1201 H 0.74685 0.96919 0.15876 0.0
H1202 H 0.60313 0.95461 0.18043 0.0
H1203 H 0.59648 0.91806 0.15456 0.0
H1204 H 0.60592 0.9092 0.19701 0.0
H1205 H 0.73758 0.96677 0.10174 0.0
H1206 H 0.69477 0.95531 0.08371 0.0
H1207 H 0.71116 1.00025 0.09669 0.0
H1208 H 0.59096 0.96452 0.05089 0.0
H1209 H 0.6258 0.05735 0.10571 0.0
H1210 H 0.61992 0.89783 0.1093 0.0
H1211 H 0.64331 0.91244 0.07397 0.0
H1212 H 0.59759 0.90497 0.07109 0.0
H1213 H 0.65414 1.01273 0.17405 0.0
H1214 H 0.66199 0.05654 0.1512 0.0
H1215 H 0.69148 0.02676 0.15121 0.0
C1216 C 0.23965 0.7397 0.18783 0.0
C1217 C 0.23831 0.73011 0.22066 0.0
C1218 C 0.21355 0.72292 0.16697 0.0
C1219 C 0.18657 0.69571 0.17976 0.0
C1220 C 0.18635 0.68467 0.21283 0.0
C1221 C 0.21215 0.70261 0.23305 0.0
C1222 C 0.21373 0.7358 0.13179 0.0
C1223 C 0.158 0.65537 0.22701 0.0
C1224 C 0.1003 0.67751 0.13611 0.0
C1225 C 0.10106 0.64494 0.123 0.0
C1226 C 0.12842 0.69484 0.1545 0.0
C1227 C 0.15774 0.67929 0.15896 0.0
C1228 C 0.15865 0.64654 0.14556 0.0
C1229 C 0.12996 0.6294 0.12796 0.0
C1230 C 0.12682 0.72963 0.16907 0.0
C1231 C 0.18997 0.62989 0.14958 0.0
H1232 H 0.25962 0.76203 0.17885 0.0
H1233 H 0.21108 0.6963 0.25868 0.0
H1234 H 0.2096 0.71207 0.11712 0.0
H1235 H 0.19243 0.75018 0.12526 0.0
H1236 H 0.23807 0.75492 0.12549 0.0
H1237 H 0.16282 0.64894 0.2531 0.0
H1238 H 0.1334 0.66456 0.22314 0.0
H1239 H 0.15503 0.6298 0.21492 0.0
H1240 H 0.07789 0.68947 0.13168 0.0
H1241 H 0.13073 0.60469 0.11688 0.0
H1242 H 0.14808 0.75216 0.16099 0.0
H1243 H 0.13 0.72549 0.19552 0.0
H1244 H 0.10225 0.73837 0.16264 0.0
H1245 H 0.21238 0.65011 0.14038 0.0
H1246 H 0.18661 0.60469 0.13681 0.0
H1247 H 0.19592 0.62291 0.17534 0.0
C1248 C 0.32886 0.84865 0.89429 0.0
C1249 C 0.34822 0.83204 0.87638 0.0
C1250 C 0.34434 0.87831 0.91153 0.0
C1251 C 0.38038 0.88889 0.91358 0.0
C1252 C 0.40031 0.86853 0.89937 0.0
C1253 C 0.38392 0.84061 0.88029 0.0
C1254 C 0.32175 0.89967 0.92528 0.0
C1255 C 0.43882 0.87671 0.90381 0.0
C1256 C 0.4271 0.98184 0.93939 0.0
C1257 C 0.43117 0.97326 0.97244 0.0
C1258 C 0.40961 0.95478 0.91964 0.0
C1259 C 0.39716 0.91863 0.93345 0.0
C1260 C 0.40035 0.91042 0.96679 0.0
C1261 C 0.4164 0.93802 0.98584 0.0
C1262 C 0.4047 0.96459 0.88417 0.0
C1263 C 0.38721 0.87228 0.98247 0.0
H1264 H 0.30126 0.84023 0.89282 0.0
H1265 H 0.39903 0.82707 0.86711 0.0
H1266 H 0.3328 0.91105 0.94799 0.0
H1267 H 0.31863 0.92313 0.90781 0.0
H1268 H 0.29597 0.88247 0.92955 0.0
H1269 H 0.45028 0.85692 0.89263 0.0
H1270 H 0.44951 0.90476 0.89313 0.0
H1271 H 0.44665 0.8758 0.92971 0.0
H1272 H 0.43823 1.00908 0.929 0.0
H1273 H 0.4184 0.9314 0.01151 0.0
H1274 H 0.37727 0.95624 0.87638 0.0
H1275 H 0.41906 0.94944 0.87075 0.0
H1276 H 0.41351 0.99445 0.87758 0.0
H1277 H 0.35886 0.8656 0.98038 0.0
H1278 H 0.39543 0.86962 1.00826 0.0
H1279 H 0.39634 0.85155 0.9703 0.0
C1280 C 0.1313 0.36902 0.94279 0.0
C1281 C 0.14846 0.37816 0.91432 0.0
C1282 C 0.12035 0.39557 0.95804 0.0
C1283 C 0.12786 0.43263 0.94525 0.0
C1284 C 0.14783 0.44272 0.91817 0.0
C1285 C 0.15762 0.41527 0.90275 0.0
C1286 C 0.09912 0.3835 0.98689 0.0
C1287 C 0.15765 0.48226 0.90486 0.0
C1288 C 0.06114 0.48259 0.96607 0.0
C1289 C 0.07636 0.49781 0.99395 0.0
C1290 C 0.07892 0.46377 0.9483 0.0
C1291 C 0.11241 0.4598 0.95913 0.0
C1292 C 0.12855 0.47724 0.98626 0.0
C1293 C 0.1102 0.49599 1.00343 0.0
C1294 C 0.06083 0.44552 0.91952 0.0
C1295 C 0.164 0.4735 0.99882 0.0
H1296 H 0.12529 0.34067 0.95267 0.0
H1297 H 0.17108 0.42278 0.88091 0.0
H1298 H 0.11063 0.3994 1.0073 0.0
H1299 H 0.0731 0.38893 0.98129 0.0
H1300 H 0.09664 0.35381 0.99449 0.0
H1301 H 0.17498 0.4859 0.88488 0.0
H1302 H 0.13434 0.49245 0.89608 0.0
H1303 H 0.1705 0.49958 0.92399 0.0
H1304 H 0.03471 0.48356 0.95924 0.0
H1305 H 0.12159 0.50732 0.02545 0.0
H1306 H 0.05515 0.41529 0.92506 0.0
H1307 H 0.07746 0.45185 0.89893 0.0
H1308 H 0.03641 0.45431 0.91233 0.0
H1309 H 0.16274 0.44589 0.0116 0.0
H1310 H 0.1753 0.49432 0.01582 0.0
H1311 H 0.18127 0.47618 0.97896 0.0
C1312 C 0.71072 0.22225 0.83518 0.0
C1313 C 0.7386 0.24578 0.84909 0.0
C1314 C 0.68819 0.19724 0.85437 0.0
C1315 C 0.69362 0.1969 0.88798 0.0
C1316 C 0.72341 0.21858 0.90191 0.0
C1317 C 0.74536 0.24353 0.88213 0.0
C1318 C 0.6568 0.17413 0.8388 0.0
C1319 C 0.73023 0.21837 0.93769 0.0
C1320 C 0.61352 0.18925 0.93077 0.0
C1321 C 0.60855 0.1532 0.94478 0.0
C1322 C 0.64152 0.2038 0.91247 0.0
C1323 C 0.66467 0.18143 0.90785 0.0
C1324 C 0.65968 0.14491 0.92162 0.0
C1325 C 0.63158 0.13114 0.94023 0.0
C1326 C 0.6464 0.2432 0.89826 0.0
C1327 C 0.6841 0.12071 0.91694 0.0
H1328 H 0.70547 0.22487 0.80946 0.0
H1329 H 0.76708 0.26222 0.89246 0.0
H1330 H 0.65114 0.14598 0.85093 0.0
H1331 H 0.63444 0.18657 0.8409 0.0
H1332 H 0.65981 0.17233 0.81302 0.0
H1333 H 0.7574 0.23053 0.94417 0.0
H1334 H 0.71395 0.23469 0.94737 0.0
H1335 H 0.72377 0.19008 0.9494 0.0
H1336 H 0.59596 0.20643 0.93477 0.0
H1337 H 0.62758 0.10316 0.95113 0.0
H1338 H 0.64598 0.24425 0.87179 0.0
H1339 H 0.67165 0.25912 0.9066 0.0
H1340 H 0.62629 0.25693 0.9048 0.0
H1341 H 0.6867 0.11929 0.89107 0.0
H1342 H 0.67561 0.09253 0.92824 0.0
H1343 H 0.70977 0.1325 0.92757 0.0
C1344 C 0.82797 0.70447 0.86055 0.0
C1345 C 0.83761 0.74181 0.84906 0.0
C1346 C 0.84866 0.68665 0.88295 0.0
C1347 C 0.87928 0.7068 0.89738 0.0
C1348 C 0.88935 0.74467 0.88602 0.0
C1349 C 0.86957 0.76092 0.86107 0.0
C1350 C 0.83744 0.64566 0.89 0.0
C1351 C 0.92075 0.76844 0.90076 0.0
C1352 C 0.90717 0.65733 0.97829 0.0
C1353 C 0.93914 0.65034 0.97249 0.0
C1354 C 0.88843 0.67667 0.95487 0.0
C1355 C 0.90058 0.68809 0.92359 0.0
C1356 C 0.9324 0.67962 0.91739 0.0
C1357 C 0.95142 0.66223 0.94189 0.0
C1358 C 0.8556 0.68509 0.96423 0.0
C1359 C 0.94706 0.68792 0.88484 0.0
H1360 H 0.80421 0.68825 0.85111 0.0
H1361 H 0.87918 0.78868 0.85115 0.0
H1362 H 0.85866 0.63246 0.8999 0.0
H1363 H 0.81698 0.63977 0.90723 0.0
H1364 H 0.82635 0.63269 0.86787 0.0
H1365 H 0.92541 0.79707 0.88959 0.0
H1366 H 0.91782 0.76857 0.92678 0.0
H1367 H 0.9437 0.75736 0.89819 0.0
H1368 H 0.8973 0.64898 1.00178 0.0
H1369 H 0.97601 0.65729 0.93672 0.0
H1370 H 0.83389 0.66287 0.95749 0.0
H1371 H 0.85112 0.71144 0.95203 0.0
H1372 H 0.85569 0.68644 0.99049 0.0
H1373 H 0.9538 0.66289 0.87737 0.0
H1374 H 0.97123 0.70891 0.8864 0.0
H1375 H 0.92953 0.69772 0.86598 0.0
C1376 C 0.21245 0.3907 0.24144 0.0
C1377 C 0.22594 0.36135 0.23135 0.0
C1378 C 0.19273 0.41367 0.22116 0.0
C1379 C 0.1833 0.4086 0.18802 0.0
C1380 C 0.19647 0.37914 0.17731 0.0
C1381 C 0.21796 0.35793 0.19794 0.0
C1382 C 0.18239 0.44453 0.23562 0.0
C1383 C 0.18827 0.37026 0.14315 0.0
C1384 C 0.10168 0.44576 0.14525 0.0
C1385 C 0.11398 0.47864 0.1252 0.0
C1386 C 0.12298 0.42381 0.16452 0.0
C1387 C 0.15969 0.43296 0.16568 0.0
C1388 C 0.1727 0.4661 0.14557 0.0
C1389 C 0.15057 0.48775 0.12622 0.0
C1390 C 0.10553 0.38976 0.18385 0.0
C1391 C 0.21079 0.4794 0.14471 0.0
H1392 H 0.21806 0.39672 0.26616 0.0
H1393 H 0.23011 0.34024 0.18697 0.0
H1394 H 0.191 0.47074 0.22084 0.0
H1395 H 0.15413 0.43946 0.23573 0.0
H1396 H 0.19329 0.44772 0.26049 0.0
H1397 H 0.19557 0.34447 0.13856 0.0
H1398 H 0.16049 0.36765 0.137 0.0
H1399 H 0.20209 0.39295 0.12699 0.0
H1400 H 0.07425 0.4364 0.14602 0.0
H1401 H 0.16237 0.51216 0.11182 0.0
H1402 H 0.11317 0.39192 0.2096 0.0
H1403 H 0.11381 0.36547 0.17668 0.0
H1404 H 0.07722 0.38509 0.18079 0.0
H1405 H 0.22119 0.48881 0.16836 0.0
H1406 H 0.21795 0.50241 0.12604 0.0
H1407 H 0.22302 0.45664 0.14024 0.0
C1408 C 0.21206 0.74415 0.86092 0.0
C1409 C 0.24597 0.73891 0.86201 0.0
C1410 C 0.18812 0.72808 0.88488 0.0
C1411 C 0.19745 0.70568 0.91226 0.0
C1412 C 0.23189 0.70108 0.91421 0.0
C1413 C 0.25493 0.71706 0.88964 0.0
C1414 C 0.15256 0.73553 0.88017 0.0
C1415 C 0.24454 0.6786 0.94244 0.0
C1416 C 0.14316 0.68922 0.98893 0.0
C1417 C 0.12391 0.65285 0.98824 0.0
C1418 C 0.16702 0.70609 0.96524 0.0
C1419 C 0.1719 0.68729 0.93862 0.0
C1420 C 0.152 0.65073 0.93751 0.0
C1421 C 0.12904 0.63409 0.96206 0.0
C1422 C 0.18692 0.74466 0.96855 0.0
C1423 C 0.154 0.6294 0.90947 0.0
H1424 H 0.20322 0.7597 0.84094 0.0
H1425 H 0.28053 0.71189 0.89208 0.0
H1426 H 0.13368 0.71562 0.89453 0.0
H1427 H 0.1532 0.76349 0.88709 0.0
H1428 H 0.14358 0.73488 0.85458 0.0
H1429 H 0.27233 0.67965 0.94236 0.0
H1430 H 0.23927 0.68861 0.9651 0.0
H1431 H 0.23072 0.64956 0.94221 0.0
H1432 H 0.13957 0.70478 1.00829 0.0
H1433 H 0.11407 0.60653 0.96012 0.0
H1434 H 0.17999 0.76301 0.94789 0.0
H1435 H 0.21473 0.74556 0.96818 0.0
H1436 H 0.18197 0.7554 0.991 0.0
H1437 H 0.14627 0.64458 0.88705 0.0
H1438 H 0.13729 0.60154 0.91153 0.0
H1439 H 0.18072 0.62674 0.90739 0.0
C1440 C 0.37349 0.26383 0.85623 0.0
C1441 C 0.34026 0.2548 0.84228 0.0
C1442 C 0.38689 0.23863 0.87744 0.0
C1443 C 0.3659 0.20405 0.88626 0.0
C1444 C 0.33205 0.1949 0.87273 0.0
C1445 C 0.32004 0.21992 0.84988 0.0
C1446 C 0.4238 0.24878 0.88975 0.0
C1447 C 0.30863 0.15879 0.88241 0.0
C1448 C 0.41589 0.13241 0.91919 0.0
C1449 C 0.4173 0.13633 0.95203 0.0
C1450 C 0.39716 0.15249 0.8975 0.0
C1451 C 0.38009 0.17748 0.9091 0.0
C1452 C 0.38038 0.18018 0.94248 0.0
C1453 C 0.39872 0.15918 0.96363 0.0
C1454 C 0.39829 0.14943 0.8621 0.0
C1455 C 0.36305 0.20683 0.95576 0.0
H1456 H 0.38951 0.29048 0.84982 0.0
H1457 H 0.29489 0.21226 0.83814 0.0
H1458 H 0.42544 0.24782 0.91623 0.0
H1459 H 0.43806 0.22866 0.883 0.0
H1460 H 0.43672 0.27663 0.88007 0.0
H1461 H 0.28279 0.15617 0.87017 0.0
H1462 H 0.31978 0.13568 0.87685 0.0
H1463 H 0.30596 0.15613 0.90866 0.0
H1464 H 0.43131 0.11548 0.91034 0.0
H1465 H 0.40093 0.16297 0.98899 0.0
H1466 H 0.41367 0.17522 0.85087 0.0
H1467 H 0.37222 0.14566 0.85037 0.0
H1468 H 0.40979 0.12624 0.85722 0.0
H1469 H 0.3735 0.23526 0.94574 0.0
H1470 H 0.36594 0.20587 0.98229 0.0
H1471 H 0.33557 0.20002 0.94846 0.0
C1472 C 0.83014 0.36993 0.88979 0.0
C1473 C 0.84571 0.36197 0.86322 0.0
C1474 C 0.84897 0.39115 0.91406 0.0
C1475 C 0.88447 0.40672 0.91162 0.0
C1476 C 0.90026 0.399 0.88458 0.0
C1477 C 0.88105 0.37639 0.86129 0.0
C1478 C 0.83068 0.39678 0.94255 0.0
C1479 C 0.93758 0.41507 0.87998 0.0
C1480 C 0.92552 0.48981 0.96129 0.0
C1481 C 0.94223 0.47359 0.98783 0.0
C1482 C 0.90714 0.46878 0.93649 0.0
C1483 C 0.90499 0.43015 0.93758 0.0
C1484 C 0.92212 0.4138 0.96409 0.0
C1485 C 0.94018 0.43533 0.98844 0.0
C1486 C 0.88975 0.48801 0.90901 0.0
C1487 C 0.92092 0.37307 0.96713 0.0
H1488 H 0.80301 0.35898 0.89188 0.0
H1489 H 0.89356 0.37096 0.84091 0.0
H1490 H 0.84413 0.3879 0.96501 0.0
H1491 H 0.83096 0.42637 0.94312 0.0
H1492 H 0.80372 0.38131 0.94212 0.0
H1493 H 0.94581 0.40867 0.85697 0.0
H1494 H 0.94273 0.44532 0.88061 0.0
H1495 H 0.95343 0.40424 0.89984 0.0
H1496 H 0.92645 0.51904 0.95997 0.0
H1497 H 0.95272 0.42174 1.00832 0.0
H1498 H 0.86178 0.47683 0.90851 0.0
H1499 H 0.89888 0.48279 0.88602 0.0
H1500 H 0.8945 0.51811 0.91066 0.0
H1501 H 0.89408 0.35781 0.96915 0.0
H1502 H 0.93647 0.36442 0.98832 0.0
H1503 H 0.93037 0.36501 0.94539 0.0
C1504 C 0.65642 0.93057 0.87352 0.0
C1505 C 0.68991 0.95081 0.87661 0.0
C1506 C 0.63115 0.93738 0.8918 0.0
C1507 C 0.64011 0.96465 0.91371 0.0
C1508 C 0.67454 0.98335 0.91831 0.0
C1509 C 0.6991 0.97643 0.89932 0.0
C1510 C 0.5947 0.9168 0.88646 0.0
C1511 C 0.68537 1.01064 0.94314 0.0
C1512 C 0.57481 1.01583 0.9357 0.0
C1513 C 0.56488 0.99685 0.96502 0.0
C1514 C 0.59849 1.0047 0.91811 0.0
C1515 C 0.6133 0.97486 0.93082 0.0
C1516 C 0.6033 0.95559 0.96026 0.0
C1517 C 0.57838 0.96605 0.97641 0.0
C1518 C 0.60865 0.02559 0.88652 0.0
C1519 C 0.6196 0.92469 0.97528 0.0
H1520 H 0.64984 0.91047 0.85599 0.0
H1521 H 0.72543 0.99128 0.90189 0.0
H1522 H 0.58306 0.9064 0.90956 0.0
H1523 H 0.57935 0.9358 0.87387 0.0
H1524 H 0.59288 0.89327 0.87187 0.0
H1525 H 0.71237 0.0256 0.94134 0.0
H1526 H 0.66865 0.03078 0.94086 0.0
H1527 H 0.68242 0.99604 0.96737 0.0
H1528 H 0.5646 0.03969 0.92681 0.0
H1529 H 0.57071 0.95089 0.99887 0.0
H1530 H 0.60597 1.00629 0.86767 0.0
H1531 H 0.63592 0.03988 0.8885 0.0
H1532 H 0.59296 0.04631 0.87885 0.0
H1533 H 0.61242 0.90091 0.96062 0.0
H1534 H 0.61167 0.91549 1.00002 0.0
H1535 H 0.64788 0.93339 0.97606 0.0
C1536 C 0.88245 0.74144 0.2333 0.0
C1537 C 0.8473 0.74395 0.22803 0.0
C1538 C 0.90121 0.72433 0.21253 0.0
C1539 C 0.88625 0.70822 0.18349 0.0
C1540 C 0.85074 0.71079 0.17795 0.0
C1541 C 0.83225 0.72645 0.20005 0.0
C1542 C 0.93766 0.72285 0.22285 0.0
C1543 C 0.8311 0.69651 0.14829 0.0
C1544 C 0.94927 0.69182 0.11647 0.0
C1545 C 0.9461 0.65303 0.11593 0.0
C1546 C 0.93061 0.70922 0.13704 0.0
C1547 C 0.90695 0.68894 0.15999 0.0
C1548 C 0.90378 0.64972 0.15977 0.0
C1549 C 0.92234 0.63296 0.13847 0.0
C1550 C 0.936 0.75036 0.13345 0.0
C1551 C 0.88078 0.62469 0.18298 0.0
H1552 H 0.89561 0.75199 0.25495 0.0
H1553 H 0.8051 0.72472 0.19507 0.0
H1554 H 0.94448 0.69763 0.21593 0.0
H1555 H 0.95493 0.74696 0.21117 0.0
H1556 H 0.94235 0.72384 0.24914 0.0
H1557 H 0.81096 0.71215 0.1403 0.0
H1558 H 0.84806 0.69808 0.12833 0.0
H1559 H 0.8182 0.66744 0.15369 0.0
H1560 H 0.96653 0.70937 0.10006 0.0
H1561 H 0.91814 0.60331 0.13983 0.0
H1562 H 0.95055 0.76174 0.15493 0.0
H1563 H 0.91094 0.75859 0.13153 0.0
H1564 H 0.95031 0.76266 0.11206 0.0
H1565 H 0.8888 0.63206 0.20774 0.0
H1566 H 0.88113 0.59533 0.18159 0.0
H1567 H 0.85414 0.62835 0.1781 0.0
C1568 C 0.35591 0.88552 0.22389 0.0
C1569 C 0.3324 0.8533 0.21708 0.0
C1570 C 0.36763 0.91311 0.19948 0.0
C1571 C 0.35789 0.90731 0.16693 0.0
C1572 C 0.33504 0.87407 0.15986 0.0
C1573 C 0.32247 0.84773 0.18493 0.0
C1574 C 0.39163 0.94801 0.20846 0.0
C1575 C 0.32603 0.86492 0.12575 0.0
C1576 C 0.38723 0.98689 0.1021 0.0
C1577 C 0.41998 0.98187 0.09725 0.0
C1578 C 0.36578 0.96206 0.12354 0.0
C1579 C 0.37747 0.9319 0.14089 0.0
C1580 C 0.40966 0.92578 0.13448 0.0
C1581 C 0.43002 0.95032 0.11296 0.0
C1582 C 0.33119 0.96913 0.12821 0.0
C1583 C 0.4237 0.89398 0.15124 0.0
H1584 H 0.36588 0.8888 0.2483 0.0
H1585 H 0.30551 0.82214 0.17934 0.0
H1586 H 0.41743 0.94925 0.20011 0.0
H1587 H 0.38238 0.97214 0.19651 0.0
H1588 H 0.39401 0.95012 0.2347 0.0
H1589 H 0.30445 0.84082 0.12402 0.0
H1590 H 0.31923 0.88866 0.11076 0.0
H1591 H 0.34863 0.85856 0.11567 0.0
H1592 H 0.37868 1.01045 0.08988 0.0
H1593 H 0.45461 0.94457 0.10895 0.0
H1594 H 0.3334 0.98587 0.14882 0.0
H1595 H 0.31246 0.94309 0.13311 0.0
H1596 H 0.32155 0.98465 0.10685 0.0
H1597 H 0.4336 0.90057 0.17578 0.0
H1598 H 0.44507 0.88836 0.13858 0.0
H1599 H 0.40361 0.86849 0.15335 0.0
C1600 C 0.72102 0.24337 0.17748 0.0
C1601 C 0.70807 0.25642 0.2032 0.0
C1602 C 0.69943 0.22464 0.15355 0.0
C1603 C 0.66342 0.21964 0.15418 0.0
C1604 C 0.65006 0.23379 0.17945 0.0
C1605 C 0.67235 0.25204 0.20337 0.0
C1606 C 0.71536 0.21019 0.12751 0.0
C1607 C 0.612 0.22926 0.18142 0.0
C1608 C 0.60838 0.20449 0.07542 0.0
C1609 C 0.59499 0.16642 0.07798 0.0
C1610 C 0.6306 0.22184 0.09976 0.0
C1611 C 0.63989 0.20101 0.12785 0.0
C1612 C 0.62665 0.1625 0.13052 0.0
C1613 C 0.6046 0.14582 0.10575 0.0
C1614 C 0.64429 0.26274 0.09534 0.0
C1615 C 0.63612 0.13865 0.1594 0.0
H1616 H 0.74828 0.24824 0.17562 0.0
H1617 H 0.6616 0.26238 0.22248 0.0
H1618 H 0.7044 0.1805 0.12618 0.0
H1619 H 0.70948 0.2244 0.10401 0.0
H1620 H 0.74357 0.2141 0.13146 0.0
H1621 H 0.60539 0.24109 0.20267 0.0
H1622 H 0.60122 0.2428 0.15955 0.0
H1623 H 0.59956 0.19969 0.18252 0.0
H1624 H 0.60163 0.2209 0.0542 0.0
H1625 H 0.5949 0.11639 0.10823 0.0
H1626 H 0.67264 0.26865 0.09621 0.0
H1627 H 0.6367 0.27616 0.11517 0.0
H1628 H 0.63488 0.27524 0.07226 0.0
H1629 H 0.66365 0.13805 0.15957 0.0
H1630 H 0.6211 0.10998 0.15957 0.0
H1631 H 0.63207 0.15013 0.18175 0.0
C1632 C 0.69603 0.70969 0.8257 0.0
C1633 C 0.70265 0.74796 0.82456 0.0
C1634 C 0.67401 0.68832 0.84754 0.0
C1635 C 0.65879 0.70607 0.86875 0.0
C1636 C 0.66308 0.74465 0.86594 0.0
C1637 C 0.68518 0.76531 0.8437 0.0
C1638 C 0.67027 0.6471 0.85028 0.0
C1639 C 0.64719 0.7642 0.88848 0.0
C1640 C 0.59486 0.64552 0.92197 0.0
C1641 C 0.61569 0.64027 0.94956 0.0
C1642 C 0.60834 0.66791 0.89554 0.0
C1643 C 0.64336 0.68477 0.89696 0.0
C1644 C 0.66443 0.67999 0.92494 0.0
C1645 C 0.65014 0.65789 0.95116 0.0
C1646 C 0.58544 0.67289 0.86597 0.0
C1647 C 0.70223 0.69714 0.92682 0.0
H1648 H 0.71055 0.69635 0.81204 0.0
H1649 H 0.69057 0.79503 0.84277 0.0
H1650 H 0.68534 0.63863 0.87185 0.0
H1651 H 0.64322 0.633 0.85308 0.0
H1652 H 0.67952 0.63752 0.82908 0.0
H1653 H 0.64818 0.79336 0.87969 0.0
H1654 H 0.62018 0.75029 0.89192 0.0
H1655 H 0.66124 0.76347 0.91223 0.0
H1656 H 0.56804 0.63206 0.92104 0.0
H1657 H 0.66616 0.65344 0.97251 0.0
H1658 H 0.59388 0.66065 0.84586 0.0
H1659 H 0.58736 0.70253 0.85869 0.0
H1660 H 0.55823 0.65986 0.86969 0.0
H1661 H 0.71535 0.6859 0.90909 0.0
H1662 H 0.71448 0.69191 0.95093 0.0
H1663 H 0.70639 0.72723 0.92083 0.0
C1664 C 0.3576 0.71379 0.92777 0.0
C1665 C 0.33745 0.67814 0.92467 0.0
C1666 C 0.38713 0.71803 0.94823 0.0
C1667 C 0.39371 0.68671 0.96675 0.0
C1668 C 0.36627 0.65645 0.97276 0.0
C1669 C 0.33736 0.65293 0.95165 0.0
C1670 C 0.41449 0.75256 0.94434 0.0
C1671 C 0.37042 0.62411 0.99599 0.0
C1672 C 0.45657 0.63692 0.94396 0.0
C1673 C 0.47255 0.63134 0.97373 0.0
C1674 C 0.4349 0.66143 0.93937 0.0
C1675 C 0.42782 0.67841 0.96624 0.0
C1676 C 0.44854 0.67724 0.99482 0.0
C1677 C 0.47161 0.65396 0.99795 0.0
C1678 C 0.41596 0.66368 0.90714 0.0
C1679 C 0.44364 0.69646 0.02339 0.0
H1680 H 0.35424 0.73685 0.91118 0.0
H1681 H 0.31816 0.62775 0.95347 0.0
H1682 H 0.43089 0.75681 0.96668 0.0
H1683 H 0.43109 0.75014 0.92507 0.0
H1684 H 0.4031 0.77692 0.93749 0.0
H1685 H 0.34528 0.60632 1.0018 0.0
H1686 H 0.38553 0.60731 0.98524 0.0
H1687 H 0.38422 0.63344 0.01847 0.0
H1688 H 0.45869 0.61977 0.92519 0.0
H1689 H 0.48598 0.65059 0.02044 0.0
H1690 H 0.41119 0.69147 0.90025 0.0
H1691 H 0.39139 0.64341 0.90798 0.0
H1692 H 0.43045 0.65656 0.88805 0.0
H1693 H 0.46877 0.70769 0.03549 0.0
H1694 H 0.42882 0.67638 0.041 0.0
H1695 H 0.42983 0.71899 0.01682 0.0
C1696 C 0.36478 0.41792 0.81183 0.0
C1697 C 0.3391 0.39181 0.82706 0.0
C1698 C 0.39102 0.43972 0.82968 0.0
C1699 C 0.39044 0.43657 0.86341 0.0
C1700 C 0.3628 0.41281 0.8787 0.0
C1701 C 0.33755 0.39067 0.86035 0.0
C1702 C 0.4202 0.46467 0.81263 0.0
C1703 C 0.36047 0.40979 0.91459 0.0
C1704 C 0.46854 0.45734 0.92016 0.0
C1705 C 0.46577 0.49123 0.92949 0.0
C1706 C 0.44567 0.44045 0.8965 0.0
C1707 C 0.41886 0.45742 0.88308 0.0
C1708 C 0.41705 0.49249 0.89157 0.0
C1709 C 0.4409 0.50919 0.91448 0.0
C1710 C 0.44858 0.40323 0.88768 0.0
C1711 C 0.3883 0.51094 0.87858 0.0
H1712 H 0.3651 0.42052 0.78605 0.0
H1713 H 0.31717 0.37157 0.87238 0.0
H1714 H 0.42432 0.49289 0.82016 0.0
H1715 H 0.44411 0.4547 0.81924 0.0
H1716 H 0.41572 0.46582 0.7862 0.0
H1717 H 0.3369 0.39047 0.9226 0.0
H1718 H 0.38292 0.40021 0.92659 0.0
H1719 H 0.3608 0.43715 0.9227 0.0
H1720 H 0.48721 0.44319 0.93263 0.0
H1721 H 0.43843 0.53505 0.92257 0.0
H1722 H 0.44628 0.40236 0.8613 0.0
H1723 H 0.42738 0.38195 0.89776 0.0
H1724 H 0.47321 0.39611 0.89695 0.0
H1725 H 0.38657 0.51279 0.85207 0.0
H1726 H 0.39157 0.53897 0.88648 0.0
H1727 H 0.3636 0.49428 0.88679 0.0
C1728 C 0.64225 0.38926 0.88831 0.0
C1729 C 0.64504 0.41274 0.86011 0.0
C1730 C 0.64222 0.40317 0.91778 0.0
C1731 C 0.64477 0.4412 0.91856 0.0
C1732 C 0.65039 0.4653 0.8904 0.0
C1733 C 0.65021 0.45059 0.86123 0.0
C1734 C 0.63647 0.37696 0.94752 0.0
C1735 C 0.65363 0.50621 0.89064 0.0
C1736 C 0.58471 0.47126 0.96787 0.0
C1737 C 0.6075 0.49186 0.98943 0.0
C1738 C 0.59666 0.45301 0.94559 0.0
C1739 C 0.63211 0.45429 0.94588 0.0
C1740 C 0.65485 0.47154 0.96978 0.0
C1741 C 0.64218 0.49061 0.99139 0.0
C1742 C 0.57166 0.4354 0.91995 0.0
C1743 C 0.6925 0.47141 0.97147 0.0
H1744 H 0.63953 0.35996 0.88716 0.0
H1745 H 0.65397 0.46853 0.83933 0.0
H1746 H 0.65152 0.38901 0.96853 0.0
H1747 H 0.60907 0.37135 0.95281 0.0
H1748 H 0.64334 0.3504 0.94443 0.0
H1749 H 0.66377 0.52138 0.86814 0.0
H1750 H 0.62808 0.512 0.8934 0.0
H1751 H 0.67069 0.5169 0.91109 0.0
H1752 H 0.55772 0.47178 0.96647 0.0
H1753 H 0.65953 0.50585 1.0087 0.0
H1754 H 0.57353 0.40648 0.91881 0.0
H1755 H 0.57783 0.4502 0.89623 0.0
H1756 H 0.54477 0.4358 0.92411 0.0
H1757 H 0.69609 0.44278 0.9761 0.0
H1758 H 0.70688 0.48774 0.99067 0.0
H1759 H 0.70367 0.48255 0.94828 0.0
C1760 C 0.71424 0.42964 0.14888 0.0
C1761 C 0.70529 0.41132 0.17867 0.0
C1762 C 0.68929 0.4288 0.12379 0.0
C1763 C 0.65568 0.40931 0.1296 0.0
C1764 C 0.65009 0.38207 0.15513 0.0
C1765 C 0.67494 0.38383 0.18018 0.0
C1766 C 0.69667 0.45557 0.09467 0.0
C1767 C 0.61498 0.35859 0.16035 0.0
C1768 C 0.60874 0.48446 0.12897 0.0
C1769 C 0.59416 0.48379 0.09817 0.0
C1770 C 0.62565 0.45726 0.14129 0.0
C1771 C 0.62854 0.42962 0.12128 0.0
C1772 C 0.61002 0.42666 0.09143 0.0
C1773 C 0.59263 0.45417 0.0801 0.0
C1774 C 0.64301 0.46098 0.17434 0.0
C1775 C 0.61073 0.3968 0.07016 0.0
H1776 H 0.73881 0.44833 0.14643 0.0
H1777 H 0.66736 0.36762 0.20213 0.0
H1778 H 0.68146 0.44473 0.07328 0.0
H1779 H 0.6896 0.48174 0.09878 0.0
H1780 H 0.72426 0.46162 0.08988 0.0
H1781 H 0.61687 0.33197 0.17383 0.0
H1782 H 0.60074 0.37294 0.17475 0.0
H1783 H 0.60015 0.3534 0.13731 0.0
H1784 H 0.6085 0.50746 0.14268 0.0
H1785 H 0.58021 0.45397 0.05628 0.0
H1786 H 0.671 0.46993 0.17242 0.0
H1787 H 0.6373 0.43463 0.18933 0.0
H1788 H 0.6346 0.48178 0.18711 0.0
H1789 H 0.62825 0.40813 0.05071 0.0
H1790 H 0.58492 0.3872 0.05862 0.0
H1791 H 0.61935 0.37294 0.08331 0.0
C1792 C 0.67612 0.76084 0.22144 0.0
C1793 C 0.7095 0.75558 0.22077 0.0
C1794 C 0.6487 0.73754 0.2059 0.0
C1795 C 0.65512 0.70865 0.18952 0.0
C1796 C 0.6889 0.70323 0.1892 0.0
C1797 C 0.71554 0.72686 0.20461 0.0
C1798 C 0.6129 0.74364 0.20699 0.0
C1799 C 0.69711 0.6728 0.17216 0.0
C1800 C 0.59236 0.62753 0.1574 0.0
C1801 C 0.59173 0.63917 0.12472 0.0
C1802 C 0.61025 0.65133 0.17982 0.0
C1803 C 0.62796 0.68702 0.16894 0.0
C1804 C 0.62452 0.69968 0.13632 0.0
C1805 C 0.60604 0.67578 0.11478 0.0
C1806 C 0.6128 0.63712 0.21455 0.0
C1807 C 0.64364 0.73703 0.12343 0.0
H1808 H 0.67135 0.78214 0.23503 0.0
H1809 H 0.74135 0.72229 0.20478 0.0
H1810 H 0.6033 0.75206 0.18257 0.0
H1811 H 0.59548 0.71769 0.21532 0.0
H1812 H 0.61168 0.7651 0.22299 0.0
H1813 H 0.72442 0.67099 0.17603 0.0
H1814 H 0.68111 0.64598 0.18055 0.0
H1815 H 0.69122 0.67748 0.14607 0.0
H1816 H 0.58132 0.59922 0.16513 0.0
H1817 H 0.60515 0.68495 0.08949 0.0
H1818 H 0.61135 0.65867 0.23034 0.0
H1819 H 0.63783 0.62922 0.22012 0.0
H1820 H 0.59227 0.61263 0.22017 0.0
H1821 H 0.63998 0.7586 0.13822 0.0
H1822 H 0.63539 0.74415 0.09822 0.0
H1823 H 0.67143 0.73734 0.12449 0.0
C1824 C 0.40279 0.72684 0.15566 0.0
C1825 C 0.41575 0.72295 0.18727 0.0
C1826 C 0.40419 0.70068 0.13469 0.0
C1827 C 0.41973 0.67102 0.14583 0.0
C1828 C 0.4305 0.66559 0.1784 0.0
C1829 C 0.42809 0.69175 0.19896 0.0
C1830 C 0.39208 0.70664 0.10007 0.0
C1831 C 0.44767 0.6344 0.19079 0.0
C1832 C 0.4218 0.59762 0.09184 0.0
C1833 C 0.45441 0.61027 0.08009 0.0
C1834 C 0.40982 0.61722 0.11333 0.0
C1835 C 0.43086 0.65028 0.12253 0.0
C1836 C 0.46336 0.66372 0.10998 0.0
C1837 C 0.47487 0.6433 0.08902 0.0
C1838 C 0.37531 0.6021 0.12688 0.0
C1839 C 0.4863 0.69927 0.11912 0.0
H1840 H 0.39279 0.75095 0.14713 0.0
H1841 H 0.43784 0.68906 0.22366 0.0
H1842 H 0.41447 0.71852 0.0856 0.0
H1843 H 0.37916 0.68031 0.09047 0.0
H1844 H 0.37425 0.72578 0.09689 0.0
H1845 H 0.44928 0.63067 0.21735 0.0
H1846 H 0.43383 0.60828 0.18142 0.0
H1847 H 0.47403 0.64026 0.18242 0.0
H1848 H 0.40614 0.57174 0.08523 0.0
H1849 H 0.50012 0.65302 0.07996 0.0
H1850 H 0.35916 0.62286 0.12276 0.0
H1851 H 0.37851 0.59584 0.15313 0.0
H1852 H 0.36163 0.57666 0.11616 0.0
H1853 H 0.47307 0.72231 0.11274 0.0
H1854 H 0.51081 0.70559 0.107 0.0
H1855 H 0.49218 0.69784 0.14535 0.0
C1856 C 0.38728 0.32876 0.21208 0.0
C1857 C 0.36654 0.34478 0.22894 0.0
C1858 C 0.40963 0.35059 0.19039 0.0
C1859 C 0.41165 0.38895 0.18673 0.0
C1860 C 0.39254 0.4054 0.20539 0.0
C1861 C 0.36918 0.38292 0.22509 0.0
C1862 C 0.42911 0.33253 0.16977 0.0
C1863 C 0.39393 0.44632 0.20227 0.0
C1864 C 0.47417 0.45852 0.13874 0.0
C1865 C 0.45374 0.46387 0.11091 0.0
C1866 C 0.4616 0.43215 0.16319 0.0
C1867 C 0.42797 0.41128 0.15943 0.0
C1868 C 0.40754 0.41606 0.13106 0.0
C1869 C 0.42083 0.4423 0.107 0.0
C1870 C 0.48342 0.42807 0.19365 0.0
C1871 C 0.3709 0.39526 0.12691 0.0
H1872 H 0.38496 0.29926 0.21476 0.0
H1873 H 0.3516 0.39549 0.23594 0.0
H1874 H 0.41794 0.33387 0.14483 0.0
H1875 H 0.4562 0.34738 0.16929 0.0
H1876 H 0.42812 0.30329 0.17824 0.0
H1877 H 0.38295 0.45503 0.22295 0.0
H1878 H 0.42057 0.46217 0.20044 0.0
H1879 H 0.37904 0.45372 0.18021 0.0
H1880 H 0.49982 0.47507 0.14148 0.0
H1881 H 0.40498 0.44674 0.08554 0.0
H1882 H 0.48304 0.39868 0.20082 0.0
H1883 H 0.47285 0.43908 0.2133 0.0
H1884 H 0.51035 0.443 0.19117 0.0
H1885 H 0.36909 0.36544 0.13304 0.0
H1886 H 0.35994 0.39949 0.10211 0.0
H1887 H 0.35486 0.40462 0.14337 0.0
C1888 C 0.89229 0.66895 0.64318 0.0
C1889 C 0.88201 0.65835 0.67427 0.0
C1890 C 0.92058 0.65835 0.63278 0.0
C1891 C 0.93838 0.63633 0.65406 0.0
C1892 C 0.9288 0.6268 0.68598 0.0
C1893 C 0.90061 0.63826 0.69585 0.0
C1894 C 0.93031 0.66912 0.59859 0.0
C1895 C 0.94722 0.60311 0.70907 0.0
C1896 C 0.97858 0.57475 0.61113 0.0
C1897 C 1.01229 0.5949 0.60963 0.0
C1898 C 0.95456 0.58718 0.62694 0.0
C1899 C 0.96468 0.62046 0.64162 0.0
C1900 C 0.99897 0.64014 0.64142 0.0
C1901 C 1.02245 0.62719 0.62517 0.0
C1902 C 0.91811 0.56544 0.62685 0.0
C1903 C 1.01056 0.67546 0.65731 0.0
H1904 H 0.87776 0.68495 0.62691 0.0
H1905 H 0.89234 0.63051 0.71999 0.0
H1906 H 0.95805 0.6813 0.59781 0.0
H1907 H 0.9251 0.64434 0.5851 0.0
H1908 H 0.91586 0.68914 0.5862 0.0
H1909 H 0.93852 0.60101 0.73376 0.0
H1910 H 0.94263 0.57508 0.70101 0.0
H1911 H 0.97521 0.61423 0.70955 0.0
H1912 H 0.97071 0.54956 0.59937 0.0
H1913 H 0.0487 0.6424 0.62458 0.0
H1914 H 0.90104 0.5816 0.61279 0.0
H1915 H 0.90931 0.55995 0.65157 0.0
H1916 H 0.91513 0.53879 0.61636 0.0
H1917 H 0.99988 0.69747 0.64324 0.0
H1918 H 0.03887 0.68431 0.65911 0.0
H1919 H 1.00095 0.67244 0.68167 0.0
C1920 C 0.36573 0.88887 0.71311 0.0
C1921 C 0.35263 0.85048 0.71785 0.0
C1922 C 0.38933 0.90556 0.68892 0.0
C1923 C 0.40244 0.88401 0.66858 0.0
C1924 C 0.38863 0.84539 0.67271 0.0
C1925 C 0.36326 0.82982 0.69559 0.0
C1926 C 0.39852 0.94682 0.68379 0.0
C1927 C 0.40078 0.82011 0.65268 0.0
C1928 C 0.44617 0.9244 0.587 0.0
C1929 C 0.48174 0.9323 0.59532 0.0
C1930 C 0.42068 0.90911 0.60988 0.0
C1931 C 0.42979 0.90138 0.64312 0.0
C1932 C 0.46569 0.91009 0.65166 0.0
C1933 C 0.49062 0.92493 0.62821 0.0
C1934 C 0.38354 0.90241 0.59831 0.0
C1935 C 0.47804 0.90388 0.6861 0.0
H1936 H 0.35647 0.90638 0.72781 0.0
H1937 H 0.35107 0.80118 0.69539 0.0
H1938 H 0.42661 0.95674 0.68352 0.0
H1939 H 0.38748 0.95568 0.66006 0.0
H1940 H 0.38861 0.96018 0.70239 0.0
H1941 H 0.38617 0.79141 0.6562 0.0
H1942 H 0.39866 0.82938 0.62691 0.0
H1943 H 0.42828 0.82083 0.65897 0.0
H1944 H 0.43804 0.93022 0.56222 0.0
H1945 H 0.51747 0.93137 0.63591 0.0
H1946 H 0.37106 0.9221 0.60841 0.0
H1947 H 0.3699 0.87447 0.60675 0.0
H1948 H 0.38024 0.9058 0.5718 0.0
H1949 H 0.46848 0.92199 0.7009 0.0
H1950 H 0.50638 0.90953 0.68921 0.0
H1951 H 0.46765 0.87515 0.69538 0.0
C1952 C 0.18898 0.34376 0.73707 0.0
C1953 C 0.224 0.34498 0.73432 0.0
C1954 C 0.17161 0.36697 0.71752 0.0
C1955 C 0.18854 0.38954 0.69225 0.0
C1956 C 0.22428 0.39314 0.69062 0.0
C1957 C 0.24194 0.37249 0.71321 0.0
C1958 C 0.13486 0.36647 0.72349 0.0
C1959 C 0.24345 0.41725 0.66417 0.0
C1960 C 0.12504 0.39979 0.62213 0.0
C1961 C 0.12173 0.43608 0.62284 0.0
C1962 C 0.14833 0.38516 0.64339 0.0
C1963 C 0.16798 0.40697 0.66671 0.0
C1964 C 0.165 0.44388 0.6673 0.0
C1965 C 0.14228 0.4581 0.64505 0.0
C1966 C 0.15119 0.34593 0.64138 0.0
C1967 C 0.18367 0.46807 0.69249 0.0
H1968 H 0.17467 0.32457 0.75466 0.0
H1969 H 0.2693 0.37716 0.71348 0.0
H1970 H 0.13013 0.39476 0.72081 0.0
H1971 H 0.11756 0.3504 0.70579 0.0
H1972 H 0.12806 0.3539 0.74783 0.0
H1973 H 0.27156 0.42146 0.66888 0.0
H1974 H 0.23634 0.40418 0.64138 0.0
H1975 H 0.23642 0.44445 0.66081 0.0
H1976 H 0.10933 0.38277 0.60495 0.0
H1977 H 0.13955 0.48613 0.64607 0.0
H1978 H 0.13887 0.32834 0.66184 0.0
H1979 H 0.17845 0.34386 0.64272 0.0
H1980 H 0.13856 0.33484 0.61895 0.0
H1981 H 0.16588 0.4683 0.71138 0.0
H1982 H 0.19188 0.4968 0.68199 0.0
H1983 H 0.20638 0.45872 0.70408 0.0
C1984 C 0.69524 0.2309 0.70557 0.0
C1985 C 0.7312 0.23593 0.7098 0.0
C1986 C 0.67567 0.20811 0.68241 0.0
C1987 C 0.69192 0.18972 0.66194 0.0
C1988 C 0.72823 0.19543 0.66575 0.0
C1989 C 0.74702 0.21768 0.68946 0.0
C1990 C 0.63728 0.20316 0.68025 0.0
C1991 C 0.74757 0.17812 0.64441 0.0
C1992 C 0.64164 0.10379 0.61928 0.0
C1993 C 0.63276 0.11864 0.58842 0.0
C1994 C 0.66021 0.12626 0.64316 0.0
C1995 C 0.67138 0.16502 0.63653 0.0
C1996 C 0.66309 0.17992 0.60516 0.0
C1997 C 0.64374 0.15705 0.58213 0.0
C1998 C 0.66701 0.10853 0.67608 0.0
C1999 C 0.6742 0.2205 0.59589 0.0
H2000 H 0.68209 0.24404 0.72102 0.0
H2001 H 0.77457 0.22101 0.69189 0.0
H2002 H 0.62826 0.21156 0.65563 0.0
H2003 H 0.62535 0.17371 0.68541 0.0
H2004 H 0.62819 0.21931 0.69725 0.0
H2005 H 0.77564 0.18525 0.64977 0.0
H2006 H 0.73896 0.14783 0.64721 0.0
H2007 H 0.74204 0.18725 0.619 0.0
H2008 H 0.63268 0.07465 0.62536 0.0
H2009 H 0.63683 0.16956 0.55889 0.0
H2010 H 0.6551 0.12083 0.69403 0.0
H2011 H 0.69491 0.11386 0.68231 0.0
H2012 H 0.65681 0.07841 0.67797 0.0
H2013 H 0.66037 0.23591 0.60961 0.0
H2014 H 0.66908 0.22758 0.56996 0.0
H2015 H 0.70193 0.2299 0.60193 0.0
C2016 C 0.8872 0.35574 0.3482 0.0
C2017 C 0.8536 0.33906 0.35578 0.0
C2018 C 0.9092 0.37904 0.36872 0.0
C2019 C 0.89872 0.38357 0.39918 0.0
C2020 C 0.86533 0.36539 0.40779 0.0
C2021 C 0.84303 0.3441 0.3858 0.0
C2022 C 0.94387 0.39882 0.35775 0.0
C2023 C 0.85333 0.36794 0.44044 0.0
C2024 C 0.97123 0.40326 0.46339 0.0
C2025 C 0.97483 0.44089 0.46641 0.0
C2026 C 0.94652 0.38458 0.44196 0.0
C2027 C 0.92419 0.40369 0.42299 0.0
C2028 C 0.92761 0.44187 0.42598 0.0
C2029 C 0.95311 0.46011 0.44746 0.0
C2030 C 0.94415 0.34408 0.43986 0.0
C2031 C 0.90443 0.46352 0.4065 0.0
H2032 H 0.89639 0.35127 0.3259 0.0
H2033 H 0.81752 0.33063 0.39244 0.0
H2034 H 0.94814 0.42844 0.36137 0.0
H2035 H 0.96417 0.38767 0.37224 0.0
H2036 H 0.94668 0.39605 0.33211 0.0
H2037 H 0.82668 0.35241 0.44349 0.0
H2038 H 0.87039 0.35702 0.45918 0.0
H2039 H 0.85475 0.39706 0.44442 0.0
H2040 H 0.98777 0.38821 0.47823 0.0
H2041 H 0.9553 0.48901 0.4502 0.0
H2042 H 0.94942 0.33915 0.41536 0.0
H2043 H 0.91788 0.32859 0.4446 0.0
H2044 H 0.96248 0.33288 0.45709 0.0
H2045 H 0.91098 0.46675 0.38108 0.0
H2046 H 0.90688 0.49122 0.41485 0.0
H2047 H 0.87736 0.44872 0.40753 0.0
C2048 C 0.69371 0.84825 0.32807 0.0
C2049 C 0.73037 0.85549 0.33073 0.0
C2050 C 0.67224 0.86541 0.34625 0.0
C2051 C 0.68582 0.89216 0.36909 0.0
C2052 C 0.72272 0.89921 0.3721 0.0
C2053 C 0.74349 0.88244 0.35306 0.0
C2054 C 0.63411 0.85548 0.33994 0.0
C2055 C 0.74096 0.92535 0.39583 0.0
C2056 C 0.63142 0.96331 0.39928 0.0
C2057 C 0.61863 0.94768 0.42968 0.0
C2058 C 0.6524 0.94642 0.38012 0.0
C2059 C 0.66229 0.91162 0.38972 0.0
C2060 C 0.64931 0.89592 0.42014 0.0
C2061 C 0.62882 0.91333 0.43873 0.0
C2062 C 0.66438 0.96646 0.34892 0.0
C2063 C 0.65711 0.85966 0.43365 0.0
H2064 H 0.68128 0.8297 0.31054 0.0
H2065 H 0.77106 0.89096 0.35578 0.0
H2066 H 0.62139 0.84645 0.36275 0.0
H2067 H 0.62487 0.88012 0.32923 0.0
H2068 H 0.62628 0.83336 0.3235 0.0
H2069 H 0.76909 0.92763 0.39712 0.0
H2070 H 0.73542 0.95297 0.38918 0.0
H2071 H 0.73137 0.91603 0.41998 0.0
H2072 H 0.62555 0.98948 0.39028 0.0
H2073 H 0.62045 0.89908 0.46134 0.0
H2074 H 0.65453 0.94889 0.3291 0.0
H2075 H 0.69271 0.97205 0.34929 0.0
H2076 H 0.65585 0.99285 0.34393 0.0
H2077 H 0.64404 0.83789 0.41822 0.0
H2078 H 0.64865 0.85179 0.45837 0.0
H2079 H 0.68497 0.86071 0.43377 0.0
C2080 C 0.21928 0.70716 0.33953 0.0
C2081 C 0.23861 0.73937 0.35157 0.0
C2082 C 0.19941 0.67919 0.35963 0.0
C2083 C 0.19785 0.68375 0.39258 0.0
C2084 C 0.21759 0.71623 0.4048 0.0
C2085 C 0.23758 0.74338 0.38428 0.0
C2086 C 0.1796 0.64492 0.3455 0.0
C2087 C 0.21697 0.7228 0.43952 0.0
C2088 C 0.11986 0.63074 0.43819 0.0
C2089 C 0.13343 0.60402 0.45763 0.0
C2090 C 0.14026 0.65637 0.4167 0.0
C2091 C 0.17514 0.65519 0.41415 0.0
C2092 C 0.1885 0.62762 0.43347 0.0
C2093 C 0.16768 0.60273 0.45494 0.0
C2094 C 0.12495 0.68605 0.39806 0.0
C2095 C 0.22482 0.62392 0.43162 0.0
H2096 H 0.21879 0.70436 0.31417 0.0
H2097 H 0.25175 0.76853 0.39369 0.0
H2098 H 0.18703 0.62045 0.35881 0.0
H2099 H 0.15184 0.64224 0.34803 0.0
H2100 H 0.18407 0.64489 0.31978 0.0
H2101 H 0.23239 0.7501 0.44506 0.0
H2102 H 0.19026 0.72086 0.44588 0.0
H2103 H 0.22714 0.70132 0.45491 0.0
H2104 H 0.0938 0.63294 0.44115 0.0
H2105 H 0.17856 0.58279 0.4705 0.0
H2106 H 0.12745 0.68542 0.37207 0.0
H2107 H 0.13913 0.71335 0.40482 0.0
H2108 H 0.09751 0.68319 0.40244 0.0
H2109 H 0.22581 0.60848 0.41072 0.0
H2110 H 0.23387 0.60843 0.4533 0.0
H2111 H 0.24244 0.65106 0.42843 0.0
C2112 C 0.38721 0.23838 0.34658 0.0
C2113 C 0.35481 0.2215 0.33212 0.0
C2114 C 0.41096 0.21799 0.36521 0.0
C2115 C 0.4053 0.17823 0.36892 0.0
C2116 C 0.3734 0.16137 0.35347 0.0
C2117 C 0.3497 0.18224 0.33646 0.0
C2118 C 0.44286 0.2395 0.38103 0.0
C2119 C 0.36408 0.12015 0.35431 0.0
C2120 C 0.48156 0.12087 0.39353 0.0
C2121 C 0.47807 0.10748 0.42649 0.0
C2122 C 0.45927 0.14328 0.37527 0.0
C2123 C 0.43124 0.15439 0.38876 0.0
C2124 C 0.42765 0.14071 0.42176 0.0
C2125 C 0.45015 0.11876 0.4393 0.0
C2126 C 0.46628 0.15577 0.34089 0.0
C2127 C 0.39997 0.15021 0.43951 0.0
H2128 H 0.39511 0.26781 0.34243 0.0
H2129 H 0.32644 0.16689 0.3254 0.0
H2130 H 0.44311 0.23194 0.40724 0.0
H2131 H 0.46574 0.23241 0.37219 0.0
H2132 H 0.44488 0.26956 0.37657 0.0
H2133 H 0.34072 0.11031 0.33904 0.0
H2134 H 0.3855 0.10959 0.34617 0.0
H2135 H 0.35968 0.10829 0.37926 0.0
H2136 H 0.50256 0.11483 0.38185 0.0
H2137 H 0.44574 0.11051 0.46431 0.0
H2138 H 0.47284 0.1862 0.33781 0.0
H2139 H 0.44292 0.14669 0.3254 0.0
H2140 H 0.48757 0.14503 0.3327 0.0
H2141 H 0.40569 0.18022 0.44176 0.0
H2142 H 0.39768 0.13566 0.46384 0.0
H2143 H 0.37493 0.14332 0.42597 0.0
C2144 C 0.7067 0.84061 0.72027 0.0
C2145 C 0.73965 0.86049 0.72895 0.0
C2146 C 0.68405 0.85608 0.69757 0.0
C2147 C 0.69346 0.89313 0.68389 0.0
C2148 C 0.72669 0.913 0.69269 0.0
C2149 C 0.74888 0.89669 0.71465 0.0
C2150 C 0.6497 0.83284 0.68851 0.0
C2151 C 0.73869 0.95232 0.67957 0.0
C2152 C 0.65138 0.92768 0.60379 0.0
C2153 C 0.62759 0.94722 0.61276 0.0
C2154 C 0.67197 0.90996 0.62626 0.0
C2155 C 0.6697 0.91103 0.65963 0.0
C2156 C 0.64615 0.93111 0.66918 0.0
C2157 C 0.62551 0.94873 0.64592 0.0
C2158 C 0.6957 0.88905 0.61391 0.0
C2159 C 0.64241 0.9336 0.70419 0.0
H2160 H 0.69811 0.81338 0.73196 0.0
H2161 H 0.77351 0.91317 0.72178 0.0
H2162 H 0.62903 0.84656 0.69355 0.0
H2163 H 0.64774 0.82977 0.66244 0.0
H2164 H 0.64545 0.80508 0.70155 0.0
H2165 H 0.76532 0.96408 0.68812 0.0
H2166 H 0.73737 0.95423 0.65303 0.0
H2167 H 0.7216 0.96934 0.68683 0.0
H2168 H 0.65394 0.92579 0.57861 0.0
H2169 H 0.60735 0.9631 0.65381 0.0
H2170 H 0.68572 0.85933 0.61972 0.0
H2171 H 0.7217 0.89633 0.62561 0.0
H2172 H 0.69768 0.89411 0.58758 0.0
H2173 H 0.63159 0.90591 0.7156 0.0
H2174 H 0.62543 0.95236 0.70811 0.0
H2175 H 0.66781 0.94333 0.71639 0.0
C2176 C 0.75735 0.23437 0.37984 0.0
C2177 C 0.74834 0.2316 0.34729 0.0
C2178 C 0.73618 0.21349 0.40312 0.0
C2179 C 0.70517 0.19003 0.39336 0.0
C2180 C 0.696 0.18766 0.36036 0.0
C2181 C 0.71849 0.20732 0.33783 0.0
C2182 C 0.74688 0.21658 0.43804 0.0
C2183 C 0.66216 0.16501 0.34878 0.0
C2184 C 0.65527 0.10811 0.4424 0.0
C2185 C 0.63055 0.12351 0.45464 0.0
C2186 C 0.68122 0.13006 0.42416 0.0
C2187 C 0.68187 0.168 0.41731 0.0
C2188 C 0.65818 0.18386 0.43122 0.0
C2189 C 0.63303 0.16153 0.44979 0.0
C2190 C 0.7077 0.11259 0.41186 0.0
C2191 C 0.65831 0.22421 0.4267 0.0
H2192 H 0.781 0.25262 0.38703 0.0
H2193 H 0.71292 0.20338 0.31269 0.0
H2194 H 0.72936 0.23028 0.44914 0.0
H2195 H 0.74506 0.18886 0.45078 0.0
H2196 H 0.77339 0.2327 0.44162 0.0
H2197 H 0.65881 0.16666 0.32226 0.0
H2198 H 0.65983 0.13579 0.35771 0.0
H2199 H 0.64096 0.1747 0.35835 0.0
H2200 H 0.65407 0.07885 0.4466 0.0
H2201 H 0.6147 0.17406 0.45981 0.0
H2202 H 0.7337 0.12938 0.4166 0.0
H2203 H 0.70362 0.1114 0.3856 0.0
H2204 H 0.70667 0.08426 0.42306 0.0
H2205 H 0.66635 0.23643 0.44976 0.0
H2206 H 0.63194 0.22816 0.4202 0.0
H2207 H 0.67567 0.23925 0.40838 0.0
C2208 C 0.85851 0.61846 0.44742 0.0
C2209 C 0.85808 0.63909 0.418 0.0
C2210 C 0.88935 0.61715 0.46433 0.0
C2211 C 0.9199 0.63771 0.45148 0.0
C2212 C 0.91954 0.6609 0.42306 0.0
C2213 C 0.88843 0.66081 0.40617 0.0
C2214 C 0.88943 0.5912 0.49426 0.0
C2215 C 0.95209 0.68305 0.40909 0.0
C2216 C 0.99732 0.63347 0.50528 0.0
C2217 C 1.00581 0.60268 0.49477 0.0
C2218 C 0.96998 0.64687 0.49015 0.0
C2219 C 0.9519 0.62886 0.46416 0.0
C2220 C 0.96204 0.59907 0.45234 0.0
C2221 C 0.98903 0.58608 0.46817 0.0
C2222 C 0.95933 0.67873 0.50285 0.0
C2223 C 0.94323 0.57949 0.42437 0.0
H2224 H 0.83485 0.6024 0.45664 0.0
H2225 H 0.88811 0.67656 0.38311 0.0
H2226 H 0.89976 0.56732 0.48913 0.0
H2227 H 0.90615 0.60485 0.51367 0.0
H2228 H 0.86336 0.5808 0.50298 0.0
H2229 H 0.94701 0.70572 0.39155 0.0
H2230 H 0.97072 0.69478 0.42814 0.0
H2231 H 0.96424 0.66493 0.39657 0.0
H2232 H 1.01097 0.64582 0.52608 0.0
H2233 H 0.99663 0.56248 0.46022 0.0
H2234 H 0.93379 0.66938 0.51285 0.0
H2235 H 0.95714 0.70025 0.48314 0.0
H2236 H 0.97768 0.69102 0.52192 0.0
H2237 H 0.91678 0.56615 0.43059 0.0
H2238 H 0.95594 0.55808 0.41747 0.0
H2239 H 0.94143 0.59936 0.40326 0.0
C2240 C 0.34147 0.83337 0.39504 0.0
C2241 C 0.32807 0.85431 0.36986 0.0
C2242 C 0.36676 0.85005 0.41676 0.0
C2243 C 0.37809 0.88857 0.41336 0.0
C2244 C 0.36121 0.91012 0.39072 0.0
C2245 C 0.33574 0.89259 0.36946 0.0
C2246 C 0.38351 0.82631 0.44134 0.0
C2247 C 0.37228 0.95139 0.38684 0.0
C2248 C 0.4403 0.93395 0.47691 0.0
C2249 C 0.47137 0.93625 0.46316 0.0
C2250 C 0.40946 0.91822 0.46105 0.0
C2251 C 0.41014 0.90563 0.43056 0.0
C2252 C 0.44171 0.90839 0.41655 0.0
C2253 C 0.47211 0.92344 0.43328 0.0
C2254 C 0.37626 0.91504 0.47679 0.0
C2255 C 0.4434 0.89556 0.3839 0.0
H2256 H 0.3334 0.80379 0.39666 0.0
H2257 H 0.32394 0.90896 0.35113 0.0
H2258 H 0.40912 0.82537 0.43363 0.0
H2259 H 0.3874 0.83796 0.46486 0.0
H2260 H 0.36817 0.79784 0.44447 0.0
H2261 H 0.35344 0.96428 0.37168 0.0
H2262 H 0.37603 0.96286 0.41046 0.0
H2263 H 0.39716 0.95905 0.3754 0.0
H2264 H 0.44023 0.94432 0.50005 0.0
H2265 H 0.49646 0.92597 0.42277 0.0
H2266 H 0.36262 0.8859 0.47958 0.0
H2267 H 0.35934 0.93024 0.46142 0.0
H2268 H 0.38028 0.92589 0.50072 0.0
H2269 H 0.43273 0.86561 0.38432 0.0
H2270 H 0.46996 0.90116 0.37598 0.0
H2271 H 0.42766 0.90941 0.36591 0.0
C2272 C 0.22953 0.40238 0.44025 0.0
C2273 C 0.25518 0.43138 0.42886 0.0
C2274 C 0.1974 0.40808 0.4445 0.0
C2275 C 0.19224 0.44433 0.44051 0.0
C2276 C 0.21771 0.47386 0.42868 0.0
C2277 C 0.24925 0.46687 0.42261 0.0
C2278 C 0.16995 0.37573 0.45585 0.0
C2279 C 0.21232 0.51275 0.42416 0.0
C2280 C 0.10516 0.44344 0.46456 0.0
C2281 C 0.11223 0.44451 0.49746 0.0
C2282 C 0.13178 0.44718 0.44444 0.0
C2283 C 0.1654 0.45143 0.45828 0.0
C2284 C 0.17242 0.4535 0.49161 0.0
C2285 C 0.14539 0.44955 0.51095 0.0
C2286 C 0.12381 0.44555 0.4089 0.0
C2287 C 0.20824 0.45811 0.50708 0.0
H2288 H 0.23416 0.37472 0.44389 0.0
H2289 H 0.26884 0.48871 0.41233 0.0
H2290 H 0.16725 0.37617 0.48186 0.0
H2291 H 0.14487 0.37717 0.44336 0.0
H2292 H 0.17615 0.3491 0.45183 0.0
H2293 H 0.22963 0.52991 0.40654 0.0
H2294 H 0.18548 0.51354 0.41618 0.0
H2295 H 0.21787 0.5252 0.44734 0.0
H2296 H 0.07915 0.4417 0.45458 0.0
H2297 H 0.15013 0.45221 0.53646 0.0
H2298 H 0.12154 0.41699 0.40275 0.0
H2299 H 0.14439 0.46344 0.39497 0.0
H2300 H 0.09919 0.45379 0.40142 0.0
H2301 H 0.2177 0.43253 0.50619 0.0
H2302 H 0.20926 0.46402 0.53252 0.0
H2303 H 0.22596 0.48074 0.49406 0.0
C2304 C 0.41558 0.19673 0.64029 0.0
C2305 C 0.42071 0.20599 0.67187 0.0
C2306 C 0.4296 0.16885 0.63056 0.0
C2307 C 0.4495 0.15032 0.65305 0.0
C2308 C 0.45287 0.15809 0.68549 0.0
C2309 C 0.43817 0.1859 0.69463 0.0
C2310 C 0.4253 0.16126 0.59574 0.0
C2311 C 0.47412 0.13904 0.70994 0.0
C2312 C 0.47533 0.07044 0.62042 0.0
C2313 C 0.50656 0.08811 0.60801 0.0
C2314 C 0.45732 0.08964 0.63758 0.0
C2315 C 0.47079 0.12726 0.64143 0.0
C2316 C 0.50346 0.14432 0.63059 0.0
C2317 C 0.52107 0.1243 0.6142 0.0
C2318 C 0.42276 0.07061 0.64922 0.0
C2319 C 0.51843 0.18461 0.63349 0.0
H2320 H 0.40179 0.21241 0.62295 0.0
H2321 H 0.44207 0.19344 0.71906 0.0
H2322 H 0.45027 0.1703 0.5846 0.0
H2323 H 0.41663 0.1314 0.59344 0.0
H2324 H 0.40662 0.17575 0.5821 0.0
H2325 H 0.47044 0.14457 0.73474 0.0
H2326 H 0.46766 0.10896 0.70809 0.0
H2327 H 0.50158 0.14876 0.70522 0.0
H2328 H 0.464 0.0426 0.61488 0.0
H2329 H 0.54502 0.13788 0.60387 0.0
H2330 H 0.40243 0.07985 0.63321 0.0
H2331 H 0.4198 0.0778 0.67364 0.0
H2332 H 0.41874 0.04029 0.64948 0.0
H2333 H 0.50312 0.20134 0.6177 0.0
H2334 H 0.54538 0.19261 0.62654 0.0
H2335 H 0.51741 0.19159 0.65833 0.0
C2336 C 0.84034 0.3708 0.70193 0.0
C2337 C 0.84579 0.35447 0.73257 0.0
C2338 C 0.86653 0.39715 0.68784 0.0
C2339 C 0.89937 0.40426 0.7038 0.0
C2340 C 0.90428 0.38905 0.73549 0.0
C2341 C 0.87704 0.36481 0.74978 0.0
C2342 C 0.86001 0.41477 0.65478 0.0
C2343 C 0.93919 0.39441 0.75272 0.0
C2344 C 0.96893 0.40516 0.64898 0.0
C2345 C 0.98472 0.44238 0.64562 0.0
C2346 C 0.94136 0.39265 0.66814 0.0
C2347 C 0.92949 0.41806 0.68471 0.0
C2348 C 0.94631 0.4555 0.68277 0.0
C2349 C 0.97402 0.46737 0.66307 0.0
C2350 C 0.92413 0.35238 0.66949 0.0
C2351 C 0.93392 0.48321 0.69995 0.0
H2352 H 0.81595 0.36254 0.68887 0.0
H2353 H 0.88093 0.35176 0.77357 0.0
H2354 H 0.87203 0.44446 0.65328 0.0
H2355 H 0.87161 0.40197 0.63698 0.0
H2356 H 0.83223 0.4115 0.64823 0.0
H2357 H 0.93767 0.38559 0.77868 0.0
H2358 H 0.95471 0.37785 0.74223 0.0
H2359 H 0.95281 0.42353 0.74974 0.0
H2360 H 0.97742 0.38588 0.63552 0.0
H2361 H 0.98601 0.49627 0.65998 0.0
H2362 H 0.89791 0.34922 0.6581 0.0
H2363 H 0.92185 0.34056 0.69468 0.0
H2364 H 0.93822 0.33605 0.65693 0.0
H2365 H 0.90985 0.48864 0.68762 0.0
H2366 H 0.95295 0.50959 0.70026 0.0
H2367 H 0.92817 0.47253 0.72492 0.0
C2368 C 0.22375 0.75319 0.68811 0.0
C2369 C 0.23842 0.74397 0.71808 0.0
C2370 C 0.20271 0.72547 0.67121 0.0
C2371 C 0.19563 0.68895 0.68573 0.0
C2372 C 0.20911 0.68029 0.71663 0.0
C2373 C 0.2309 0.70769 0.73199 0.0
C2374 C 0.18893 0.73478 0.63776 0.0
C2375 C 0.20182 0.64174 0.73306 0.0
C2376 C 0.12467 0.61395 0.65795 0.0
C2377 C 0.14284 0.59528 0.64065 0.0
C2378 C 0.1414 0.64582 0.67175 0.0
C2379 C 0.17685 0.65841 0.66827 0.0
C2380 C 0.19556 0.6383 0.65245 0.0
C2381 C 0.17823 0.60655 0.63906 0.0
C2382 C 0.12118 0.6665 0.6893 0.0
C2383 C 0.23365 0.65081 0.64899 0.0
H2384 H 0.22973 0.7813 0.6776 0.0
H2385 H 0.24198 0.70059 0.75551 0.0
H2386 H 0.19633 0.71729 0.6209 0.0
H2387 H 0.16059 0.72899 0.63703 0.0
H2388 H 0.19842 0.76405 0.62933 0.0
H2389 H 0.21234 0.64064 0.75826 0.0
H2390 H 0.17388 0.63046 0.73293 0.0
H2391 H 0.21327 0.6235 0.72 0.0
H2392 H 0.09706 0.60554 0.65824 0.0
H2393 H 0.19178 0.59216 0.62499 0.0
H2394 H 0.12439 0.69522 0.67852 0.0
H2395 H 0.13103 0.66764 0.71463 0.0
H2396 H 0.09347 0.65367 0.68872 0.0
H2397 H 0.23954 0.67934 0.63763 0.0
H2398 H 0.24385 0.63293 0.63439 0.0
H2399 H 0.24733 0.65086 0.67292 0.0
loop_
_geom_bond_atom_site_label_1
_geom_bond_atom_site_label_2
_geom_bond_distance
_geom_bond_site_symmetry_2
_ccdc_geom_bond_type
Gd0 N31 2.661 . S
Gd0 N37 2.601 . S
Gd0 O44 2.545 . S
Gd0 O45 2.606 . S
Gd0 O47 2.429 . S
Gd0 O48 2.545 . S
Gd0 O49 2.412 . S
Gd0 O51 2.362 . S
Gd0 O52 2.324 . S
Gd0 C59 2.828 . S
Gd1 N10 2.661 . S
Gd1 N14 2.601 . S
Gd1 O45 2.362 . S
Gd1 O46 2.324 . S
Gd1 O50 2.545 . S
Gd1 O51 2.606 . S
Gd1 O53 2.429 . S
Gd1 O54 2.545 . S
Gd1 O55 2.412 . S
Gd1 C68 2.828 . S
C2 C5 1.417 . S
C2 C7 1.431 . S
C2 C8 1.412 . S
C3 C6 1.437 . S
C3 C7 1.317 . S
C3 H22 0.929 . S
C4 C5 1.426 . S
C4 C6 1.413 . S
C4 N14 1.359 . S
C5 C2 1.417 . S
C5 C4 1.426 . S
C5 N10 1.350 . S
C6 C3 1.437 . S
C6 C4 1.413 . S
C6 C16 1.391 . S
C7 C2 1.431 . S
C7 C3 1.317 . S
C7 H18 0.930 . S
C8 C2 1.412 . S
C8 C9 1.355 . S
C8 H20 0.930 . S
C9 C8 1.355 . S
C9 C11 1.402 . S
C9 H21 0.930 . S
N10 Gd1 2.661 . S
N10 C5 1.350 . S
N10 C11 1.307 . S
C11 C9 1.402 . S
C11 N10 1.307 . S
C11 H12 0.930 . S
H12 C11 0.930 . S
C13 N14 1.334 . S
C13 C15 1.394 . S
C13 H17 0.930 . S
N14 Gd1 2.601 . S
N14 C4 1.359 . S
N14 C13 1.334 . S
C15 C13 1.394 . S
C15 C16 1.359 . S
C15 H27 0.930 . S
C16 C6 1.391 . S
C16 C15 1.359 . S
C16 H28 0.929 . S
H17 C13 0.930 . S
H18 C7 0.930 . S
H19 C36 0.930 . S
H20 C8 0.930 . S
H21 C9 0.930 . S
H22 C3 0.929 . S
H23 C41 0.930 . S
H24 C32 0.930 . S
H25 C33 0.930 . S
H26 C57 0.929 . S
H27 C15 0.930 . S
H28 C16 0.929 . S
H29 C58 0.930 . S
H30 C39 0.930 . S
N31 Gd0 2.661 . S
N31 C35 1.350 . S
N31 C36 1.307 . S
C32 H24 0.930 . S
C32 C33 1.355 . S
C32 C34 1.412 . S
C33 H25 0.930 . S
C33 C32 1.355 . S
C33 C36 1.402 . S
C34 C32 1.412 . S
C34 C35 1.417 . S
C34 C58 1.431 . S
C35 N31 1.350 . S
C35 C34 1.417 . S
C35 C38 1.426 . S
C36 H19 0.930 . S
C36 N31 1.307 . S
C36 C33 1.402 . S
N37 Gd0 2.601 . S
N37 C38 1.359 . S
N37 C41 1.334 . S
C38 C35 1.426 . S
C38 N37 1.359 . S
C38 C42 1.413 . S
C39 H30 0.930 . S
C39 C40 1.359 . S
C39 C41 1.394 . S
C40 C39 1.359 . S
C40 C42 1.391 . S
C40 H43 0.929 . S
C41 H23 0.930 . S
C41 N37 1.334 . S
C41 C39 1.394 . S
C42 C38 1.413 . S
C42 C40 1.391 . S
C42 C57 1.437 . S
H43 C40 0.929 . S
O44 Gd0 2.545 . S
O44 C59 1.258 . S
O45 Gd0 2.606 . S
O45 Gd1 2.362 . S
O45 C56 1.284 . S
O46 Gd1 2.324 . S
O46 C66 1.254 . S
O47 Gd0 2.429 . S
O47 C66 1.268 . S
O48 Gd0 2.545 . S
O48 C56 1.250 . S
O49 Gd0 2.412 . S
O49 C59 1.252 . S
O50 Gd1 2.545 . S
O50 C68 1.258 . S
O51 Gd0 2.362 . S
O51 Gd1 2.606 . S
O51 C67 1.284 . S
O52 Gd0 2.324 . S
O52 C75 1.254 . S
O53 Gd1 2.429 . S
O53 C75 1.268 . S
O54 Gd1 2.545 . S
O54 C67 1.250 . S
O55 Gd1 2.412 . S
O55 C68 1.252 . S
C56 O45 1.284 . S
C56 O48 1.250 . S
C57 H26 0.929 . S
C57 C42 1.437 . S
C57 C58 1.317 . S
C58 H29 0.930 . S
C58 C34 1.431 . S
C58 C57 1.317 . S
C59 Gd0 2.828 . S
C59 O44 1.258 . S
C59 O49 1.252 . S
C59 C60 1.497 . S
C60 C59 1.497 . S
C60 C61 1.395 . S
C60 C62 1.380 . S
C61 C60 1.395 . S
C61 C64 1.398 . S
C61 H76 0.930 . S
C62 C60 1.380 . S
C62 C63 1.391 . S
C62 H77 0.930 . S
C63 C62 1.391 . S
C63 C65 1.387 . S
C64 C61 1.398 . S
C64 C65 1.380 . S
C64 H78 0.930 . S
C65 C63 1.387 . S
C65 C64 1.380 . S
C65 H79 0.930 . S
C66 O46 1.254 . S
C66 O47 1.268 . S
C67 O51 1.284 . S
C67 O54 1.250 . S
C68 Gd1 2.828 . S
C68 O50 1.258 . S
C68 O55 1.252 . S
C68 C69 1.497 . S
C69 C68 1.497 . S
C69 C70 1.395 . S
C69 C71 1.380 . S
C70 C69 1.395 . S
C70 C73 1.398 . S
C70 H80 0.930 . S
C71 C69 1.380 . S
C71 C72 1.391 . S
C71 H81 0.930 . S
C72 C71 1.391 . S
C72 C74 1.387 . S
C73 C70 1.398 . S
C73 C74 1.380 . S
C73 H82 0.930 . S
C74 C72 1.387 . S
C74 C73 1.380 . S
C74 H83 0.930 . S
C75 O52 1.254 . S
C75 O53 1.268 . S
H76 C61 0.930 . S
H77 C62 0.930 . S
H78 C64 0.930 . S
H79 C65 0.930 . S
H80 C70 0.930 . S
H81 C71 0.930 . S
H82 C73 0.930 . S
H83 C74 0.930 . S
Gd84 N115 2.661 . S
Gd84 N121 2.601 . S
Gd84 O128 2.545 . S
Gd84 O129 2.606 . S
Gd84 O131 2.429 . S
Gd84 O132 2.545 . S
Gd84 O133 2.412 . S
Gd84 O135 2.362 . S
Gd84 O136 2.324 . S
Gd84 C143 2.828 . S
Gd85 N94 2.661 . S
Gd85 N98 2.601 . S
Gd85 O129 2.362 . S
Gd85 O130 2.324 . S
Gd85 O134 2.545 . S
Gd85 O135 2.606 . S
Gd85 O137 2.429 . S
Gd85 O138 2.545 . S
Gd85 O139 2.412 . S
Gd85 C152 2.828 . S
C86 C89 1.417 . S
C86 C91 1.431 . S
C86 C92 1.412 . S
C87 C90 1.437 . S
C87 C91 1.317 . S
C87 H106 0.929 . S
C88 C89 1.426 . S
C88 C90 1.413 . S
C88 N98 1.359 . S
C89 C86 1.417 . S
C89 C88 1.426 . S
C89 N94 1.350 . S
C90 C87 1.437 . S
C90 C88 1.413 . S
C90 C100 1.391 . S
C91 C86 1.431 . S
C91 C87 1.317 . S
C91 H102 0.930 . S
C92 C86 1.412 . S
C92 C93 1.355 . S
C92 H104 0.930 . S
C93 C92 1.355 . S
C93 C95 1.402 . S
C93 H105 0.930 . S
N94 Gd85 2.661 . S
N94 C89 1.350 . S
N94 C95 1.307 . S
C95 C93 1.402 . S
C95 N94 1.307 . S
C95 H96 0.930 . S
H96 C95 0.930 . S
C97 N98 1.334 . S
C97 C99 1.394 . S
C97 H101 0.930 . S
N98 Gd85 2.601 . S
N98 C88 1.359 . S
N98 C97 1.334 . S
C99 C97 1.394 . S
C99 C100 1.359 . S
C99 H111 0.930 . S
C100 C90 1.391 . S
C100 C99 1.359 . S
C100 H112 0.929 . S
H101 C97 0.930 . S
H102 C91 0.930 . S
H103 C120 0.930 . S
H104 C92 0.930 . S
H105 C93 0.930 . S
H106 C87 0.929 . S
H107 C125 0.930 . S
H108 C116 0.930 . S
H109 C117 0.930 . S
H110 C141 0.929 . S
H111 C99 0.930 . S
H112 C100 0.929 . S
H113 C142 0.930 . S
H114 C123 0.930 . S
N115 Gd84 2.661 . S
N115 C119 1.350 . S
N115 C120 1.307 . S
C116 H108 0.930 . S
C116 C117 1.355 . S
C116 C118 1.412 . S
C117 H109 0.930 . S
C117 C116 1.355 . S
C117 C120 1.402 . S
C118 C116 1.412 . S
C118 C119 1.417 . S
C118 C142 1.431 . S
C119 N115 1.350 . S
C119 C118 1.417 . S
C119 C122 1.426 . S
C120 H103 0.930 . S
C120 N115 1.307 . S
C120 C117 1.402 . S
N121 Gd84 2.601 . S
N121 C122 1.359 . S
N121 C125 1.334 . S
C122 C119 1.426 . S
C122 N121 1.359 . S
C122 C126 1.413 . S
C123 H114 0.930 . S
C123 C124 1.359 . S
C123 C125 1.394 . S
C124 C123 1.359 . S
C124 C126 1.391 . S
C124 H127 0.929 . S
C125 H107 0.930 . S
C125 N121 1.334 . S
C125 C123 1.394 . S
C126 C122 1.413 . S
C126 C124 1.391 . S
C126 C141 1.437 . S
H127 C124 0.929 . S
O128 Gd84 2.545 . S
O128 C143 1.258 . S
O129 Gd84 2.606 . S
O129 Gd85 2.362 . S
O129 C140 1.284 . S
O130 Gd85 2.324 . S
O130 C150 1.254 . S
O131 Gd84 2.429 . S
O131 C150 1.268 . S
O132 Gd84 2.545 . S
O132 C140 1.250 . S
O133 Gd84 2.412 . S
O133 C143 1.252 . S
O134 Gd85 2.545 . S
O134 C152 1.258 . S
O135 Gd84 2.362 . S
O135 Gd85 2.606 . S
O135 C151 1.284 . S
O136 Gd84 2.324 . S
O136 C159 1.254 . S
O137 Gd85 2.429 . S
O137 C159 1.268 . S
O138 Gd85 2.545 . S
O138 C151 1.250 . S
O139 Gd85 2.412 . S
O139 C152 1.252 . S
C140 O129 1.284 . S
C140 O132 1.250 . S
C141 H110 0.929 . S
C141 C126 1.437 . S
C141 C142 1.317 . S
C142 H113 0.930 . S
C142 C118 1.431 . S
C142 C141 1.317 . S
C143 Gd84 2.828 . S
C143 O128 1.258 . S
C143 O133 1.252 . S
C143 C144 1.497 . S
C144 C143 1.497 . S
C144 C145 1.395 . S
C144 C146 1.380 . S
C145 C144 1.395 . S
C145 C148 1.398 . S
C145 H160 0.930 . S
C146 C144 1.380 . S
C146 C147 1.391 . S
C146 H161 0.930 . S
C147 C146 1.391 . S
C147 C149 1.387 . S
C148 C145 1.398 . S
C148 C149 1.380 . S
C148 H162 0.930 . S
C149 C147 1.387 . S
C149 C148 1.380 . S
C149 H163 0.930 . S
C150 O130 1.254 . S
C150 O131 1.268 . S
C151 O135 1.284 . S
C151 O138 1.250 . S
C152 Gd85 2.828 . S
C152 O134 1.258 . S
C152 O139 1.252 . S
C152 C153 1.497 . S
C153 C152 1.497 . S
C153 C154 1.395 . S
C153 C155 1.380 . S
C154 C153 1.395 . S
C154 C157 1.398 . S
C154 H164 0.930 . S
C155 C153 1.380 . S
C155 C156 1.391 . S
C155 H165 0.930 . S
C156 C155 1.391 . S
C156 C158 1.387 . S
C157 C154 1.398 . S
C157 C158 1.380 . S
C157 H166 0.930 . S
C158 C156 1.387 . S
C158 C157 1.380 . S
C158 H167 0.930 . S
C159 O136 1.254 . S
C159 O137 1.268 . S
H160 C145 0.930 . S
H161 C146 0.930 . S
H162 C148 0.930 . S
H163 C149 0.930 . S
H164 C154 0.930 . S
H165 C155 0.930 . S
H166 C157 0.930 . S
H167 C158 0.930 . S
Gd168 N199 2.661 . S
Gd168 N205 2.601 . S
Gd168 O212 2.545 . S
Gd168 O213 2.606 . S
Gd168 O215 2.429 . S
Gd168 O216 2.545 . S
Gd168 O217 2.412 . S
Gd168 O219 2.362 . S
Gd168 O220 2.324 . S
Gd168 C227 2.828 . S
Gd169 N178 2.661 . S
Gd169 N182 2.601 . S
Gd169 O213 2.362 . S
Gd169 O214 2.324 . S
Gd169 O218 2.545 . S
Gd169 O219 2.606 . S
Gd169 O221 2.429 . S
Gd169 O222 2.545 . S
Gd169 O223 2.412 . S
Gd169 C236 2.828 . S
C170 C173 1.417 . S
C170 C175 1.431 . S
C170 C176 1.412 . S
C171 C174 1.437 . S
C171 C175 1.317 . S
C171 H190 0.929 . S
C172 C173 1.426 . S
C172 C174 1.413 . S
C172 N182 1.359 . S
C173 C170 1.417 . S
C173 C172 1.426 . S
C173 N178 1.350 . S
C174 C171 1.437 . S
C174 C172 1.413 . S
C174 C184 1.391 . S
C175 C170 1.431 . S
C175 C171 1.317 . S
C175 H186 0.930 . S
C176 C170 1.412 . S
C176 C177 1.355 . S
C176 H188 0.930 . S
C177 C176 1.355 . S
C177 C179 1.402 . S
C177 H189 0.930 . S
N178 Gd169 2.661 . S
N178 C173 1.350 . S
N178 C179 1.307 . S
C179 C177 1.402 . S
C179 N178 1.307 . S
C179 H180 0.930 . S
H180 C179 0.930 . S
C181 N182 1.334 . S
C181 C183 1.394 . S
C181 H185 0.930 . S
N182 Gd169 2.601 . S
N182 C172 1.359 . S
N182 C181 1.334 . S
C183 C181 1.394 . S
C183 C184 1.359 . S
C183 H195 0.930 . S
C184 C174 1.391 . S
C184 C183 1.359 . S
C184 H196 0.929 . S
H185 C181 0.930 . S
H186 C175 0.930 . S
H187 C204 0.930 . S
H188 C176 0.930 . S
H189 C177 0.930 . S
H190 C171 0.929 . S
H191 C209 0.930 . S
H192 C200 0.930 . S
H193 C201 0.930 . S
H194 C225 0.929 . S
H195 C183 0.930 . S
H196 C184 0.929 . S
H197 C226 0.930 . S
H198 C207 0.930 . S
N199 Gd168 2.661 . S
N199 C203 1.350 . S
N199 C204 1.307 . S
C200 H192 0.930 . S
C200 C201 1.355 . S
C200 C202 1.412 . S
C201 H193 0.930 . S
C201 C200 1.355 . S
C201 C204 1.402 . S
C202 C200 1.412 . S
C202 C203 1.417 . S
C202 C226 1.431 . S
C203 N199 1.350 . S
C203 C202 1.417 . S
C203 C206 1.426 . S
C204 H187 0.930 . S
C204 N199 1.307 . S
C204 C201 1.402 . S
N205 Gd168 2.601 . S
N205 C206 1.359 . S
N205 C209 1.334 . S
C206 C203 1.426 . S
C206 N205 1.359 . S
C206 C210 1.413 . S
C207 H198 0.930 . S
C207 C208 1.359 . S
C207 C209 1.394 . S
C208 C207 1.359 . S
C208 C210 1.391 . S
C208 H211 0.929 . S
C209 H191 0.930 . S
C209 N205 1.334 . S
C209 C207 1.394 . S
C210 C206 1.413 . S
C210 C208 1.391 . S
C210 C225 1.437 . S
H211 C208 0.929 . S
O212 Gd168 2.545 . S
O212 C227 1.258 . S
O213 Gd168 2.606 . S
O213 Gd169 2.362 . S
O213 C224 1.284 . S
O214 Gd169 2.324 . S
O214 C234 1.254 . S
O215 Gd168 2.429 . S
O215 C234 1.268 . S
O216 Gd168 2.545 . S
O216 C224 1.250 . S
O217 Gd168 2.412 . S
O217 C227 1.252 . S
O218 Gd169 2.545 . S
O218 C236 1.258 . S
O219 Gd168 2.362 . S
O219 Gd169 2.606 . S
O219 C235 1.284 . S
O220 Gd168 2.324 . S
O220 C243 1.254 . S
O221 Gd169 2.429 . S
O221 C243 1.268 . S
O222 Gd169 2.545 . S
O222 C235 1.250 . S
O223 Gd169 2.412 . S
O223 C236 1.252 . S
C224 O213 1.284 . S
C224 O216 1.250 . S
C225 H194 0.929 . S
C225 C210 1.437 . S
C225 C226 1.317 . S
C226 H197 0.930 . S
C226 C202 1.431 . S
C226 C225 1.317 . S
C227 Gd168 2.828 . S
C227 O212 1.258 . S
C227 O217 1.252 . S
C227 C228 1.497 . S
C228 C227 1.497 . S
C228 C229 1.395 . S
C228 C230 1.380 . S
C229 C228 1.395 . S
C229 C232 1.398 . S
C229 H244 0.930 . S
C230 C228 1.380 . S
C230 C231 1.391 . S
C230 H245 0.930 . S
C231 C230 1.391 . S
C231 C233 1.387 . S
C232 C229 1.398 . S
C232 C233 1.380 . S
C232 H246 0.930 . S
C233 C231 1.387 . S
C233 C232 1.380 . S
C233 H247 0.930 . S
C234 O214 1.254 . S
C234 O215 1.268 . S
C235 O219 1.284 . S
C235 O222 1.250 . S
C236 Gd169 2.828 . S
C236 O218 1.258 . S
C236 O223 1.252 . S
C236 C237 1.497 . S
C237 C236 1.497 . S
C237 C238 1.395 . S
C237 C239 1.380 . S
C238 C237 1.395 . S
C238 C241 1.398 . S
C238 H248 0.930 . S
C239 C237 1.380 . S
C239 C240 1.391 . S
C239 H249 0.930 . S
C240 C239 1.391 . S
C240 C242 1.387 . S
C241 C238 1.398 . S
C241 C242 1.380 . S
C241 H250 0.930 . S
C242 C240 1.387 . S
C242 C241 1.380 . S
C242 H251 0.930 . S
C243 O220 1.254 . S
C243 O221 1.268 . S
H244 C229 0.930 . S
H245 C230 0.930 . S
H246 C232 0.930 . S
H247 C233 0.930 . S
H248 C238 0.930 . S
H249 C239 0.930 . S
H250 C241 0.930 . S
H251 C242 0.930 . S
Gd252 N283 2.661 . S
Gd252 N289 2.601 . S
Gd252 O296 2.545 . S
Gd252 O297 2.606 . S
Gd252 O299 2.429 . S
Gd252 O300 2.545 . S
Gd252 O301 2.412 . S
Gd252 O303 2.362 . S
Gd252 O304 2.324 . S
Gd252 C311 2.828 . S
Gd253 N262 2.661 . S
Gd253 N266 2.601 . S
Gd253 O297 2.362 . S
Gd253 O298 2.324 . S
Gd253 O302 2.545 . S
Gd253 O303 2.606 . S
Gd253 O305 2.429 . S
Gd253 O306 2.545 . S
Gd253 O307 2.412 . S
Gd253 C320 2.828 . S
C254 C257 1.417 . S
C254 C259 1.431 . S
C254 C260 1.412 . S
C255 C258 1.437 . S
C255 C259 1.317 . S
C255 H274 0.929 . S
C256 C257 1.426 . S
C256 C258 1.413 . S
C256 N266 1.359 . S
C257 C254 1.417 . S
C257 C256 1.426 . S
C257 N262 1.350 . S
C258 C255 1.437 . S
C258 C256 1.413 . S
C258 C268 1.391 . S
C259 C254 1.431 . S
C259 C255 1.317 . S
C259 H270 0.930 . S
C260 C254 1.412 . S
C260 C261 1.355 . S
C260 H272 0.930 . S
C261 C260 1.355 . S
C261 C263 1.402 . S
C261 H273 0.930 . S
N262 Gd253 2.661 . S
N262 C257 1.350 . S
N262 C263 1.307 . S
C263 C261 1.402 . S
C263 N262 1.307 . S
C263 H264 0.930 . S
H264 C263 0.930 . S
C265 N266 1.334 . S
C265 C267 1.394 . S
C265 H269 0.930 . S
N266 Gd253 2.601 . S
N266 C256 1.359 . S
N266 C265 1.334 . S
C267 C265 1.394 . S
C267 C268 1.359 . S
C267 H279 0.930 . S
C268 C258 1.391 . S
C268 C267 1.359 . S
C268 H280 0.929 . S
H269 C265 0.930 . S
H270 C259 0.930 . S
H271 C288 0.930 . S
H272 C260 0.930 . S
H273 C261 0.930 . S
H274 C255 0.929 . S
H275 C293 0.930 . S
H276 C284 0.930 . S
H277 C285 0.930 . S
H278 C309 0.929 . S
H279 C267 0.930 . S
H280 C268 0.929 . S
H281 C310 0.930 . S
H282 C291 0.930 . S
N283 Gd252 2.661 . S
N283 C287 1.350 . S
N283 C288 1.307 . S
C284 H276 0.930 . S
C284 C285 1.355 . S
C284 C286 1.412 . S
C285 H277 0.930 . S
C285 C284 1.355 . S
C285 C288 1.402 . S
C286 C284 1.412 . S
C286 C287 1.417 . S
C286 C310 1.431 . S
C287 N283 1.350 . S
C287 C286 1.417 . S
C287 C290 1.426 . S
C288 H271 0.930 . S
C288 N283 1.307 . S
C288 C285 1.402 . S
N289 Gd252 2.601 . S
N289 C290 1.359 . S
N289 C293 1.334 . S
C290 C287 1.426 . S
C290 N289 1.359 . S
C290 C294 1.413 . S
C291 H282 0.930 . S
C291 C292 1.359 . S
C291 C293 1.394 . S
C292 C291 1.359 . S
C292 C294 1.391 . S
C292 H295 0.929 . S
C293 H275 0.930 . S
C293 N289 1.334 . S
C293 C291 1.394 . S
C294 C290 1.413 . S
C294 C292 1.391 . S
C294 C309 1.437 . S
H295 C292 0.929 . S
O296 Gd252 2.545 . S
O296 C311 1.258 . S
O297 Gd252 2.606 . S
O297 Gd253 2.362 . S
O297 C308 1.284 . S
O298 Gd253 2.324 . S
O298 C318 1.254 . S
O299 Gd252 2.429 . S
O299 C318 1.268 . S
O300 Gd252 2.545 . S
O300 C308 1.250 . S
O301 Gd252 2.412 . S
O301 C311 1.252 . S
O302 Gd253 2.545 . S
O302 C320 1.258 . S
O303 Gd252 2.362 . S
O303 Gd253 2.606 . S
O303 C319 1.284 . S
O304 Gd252 2.324 . S
O304 C327 1.254 . S
O305 Gd253 2.429 . S
O305 C327 1.268 . S
O306 Gd253 2.545 . S
O306 C319 1.250 . S
O307 Gd253 2.412 . S
O307 C320 1.252 . S
C308 O297 1.284 . S
C308 O300 1.250 . S
C309 H278 0.929 . S
C309 C294 1.437 . S
C309 C310 1.317 . S
C310 H281 0.930 . S
C310 C286 1.431 . S
C310 C309 1.317 . S
C311 Gd252 2.828 . S
C311 O296 1.258 . S
C311 O301 1.252 . S
C311 C312 1.497 . S
C312 C311 1.497 . S
C312 C313 1.395 . S
C312 C314 1.380 . S
C313 C312 1.395 . S
C313 C316 1.398 . S
C313 H328 0.930 . S
C314 C312 1.380 . S
C314 C315 1.391 . S
C314 H329 0.930 . S
C315 C314 1.391 . S
C315 C317 1.387 . S
C316 C313 1.398 . S
C316 C317 1.380 . S
C316 H330 0.930 . S
C317 C315 1.387 . S
C317 C316 1.380 . S
C317 H331 0.930 . S
C318 O298 1.254 . S
C318 O299 1.268 . S
C319 O303 1.284 . S
C319 O306 1.250 . S
C320 Gd253 2.828 . S
C320 O302 1.258 . S
C320 O307 1.252 . S
C320 C321 1.497 . S
C321 C320 1.497 . S
C321 C322 1.395 . S
C321 C323 1.380 . S
C322 C321 1.395 . S
C322 C325 1.398 . S
C322 H332 0.930 . S
C323 C321 1.380 . S
C323 C324 1.391 . S
C323 H333 0.930 . S
C324 C323 1.391 . S
C324 C326 1.387 . S
C325 C322 1.398 . S
C325 C326 1.380 . S
C325 H334 0.930 . S
C326 C324 1.387 . S
C326 C325 1.380 . S
C326 H335 0.930 . S
C327 O304 1.254 . S
C327 O305 1.268 . S
H328 C313 0.930 . S
H329 C314 0.930 . S
H330 C316 0.930 . S
H331 C317 0.930 . S
H332 C322 0.930 . S
H333 C323 0.930 . S
H334 C325 0.930 . S
H335 C326 0.930 . S
Gd336 N367 2.661 . S
Gd336 N373 2.601 . S
Gd336 O380 2.545 . S
Gd336 O381 2.606 . S
Gd336 O383 2.429 . S
Gd336 O384 2.545 . S
Gd336 O385 2.412 . S
Gd336 O387 2.362 . S
Gd336 O388 2.324 . S
Gd336 C395 2.828 . S
Gd337 N346 2.661 . S
Gd337 N350 2.601 . S
Gd337 O381 2.362 . S
Gd337 O382 2.324 . S
Gd337 O386 2.545 . S
Gd337 O387 2.606 . S
Gd337 O389 2.429 . S
Gd337 O390 2.545 . S
Gd337 O391 2.412 . S
Gd337 C404 2.828 . S
C338 C341 1.417 . S
C338 C343 1.431 . S
C338 C344 1.412 . S
C339 C342 1.437 . S
C339 C343 1.317 . S
C339 H358 0.929 . S
C340 C341 1.426 . S
C340 C342 1.413 . S
C340 N350 1.359 . S
C341 C338 1.417 . S
C341 C340 1.426 . S
C341 N346 1.350 . S
C342 C339 1.437 . S
C342 C340 1.413 . S
C342 C352 1.391 . S
C343 C338 1.431 . S
C343 C339 1.317 . S
C343 H354 0.930 . S
C344 C338 1.412 . S
C344 C345 1.355 . S
C344 H356 0.930 . S
C345 C344 1.355 . S
C345 C347 1.402 . S
C345 H357 0.930 . S
N346 Gd337 2.661 . S
N346 C341 1.350 . S
N346 C347 1.307 . S
C347 C345 1.402 . S
C347 N346 1.307 . S
C347 H348 0.930 . S
H348 C347 0.930 . S
C349 N350 1.334 . S
C349 C351 1.394 . S
C349 H353 0.930 . S
N350 Gd337 2.601 . S
N350 C340 1.359 . S
N350 C349 1.334 . S
C351 C349 1.394 . S
C351 C352 1.359 . S
C351 H363 0.930 . S
C352 C342 1.391 . S
C352 C351 1.359 . S
C352 H364 0.929 . S
H353 C349 0.930 . S
H354 C343 0.930 . S
H355 C372 0.930 . S
H356 C344 0.930 . S
H357 C345 0.930 . S
H358 C339 0.929 . S
H359 C377 0.930 . S
H360 C368 0.930 . S
H361 C369 0.930 . S
H362 C393 0.929 . S
H363 C351 0.930 . S
H364 C352 0.929 . S
H365 C394 0.930 . S
H366 C375 0.930 . S
N367 Gd336 2.661 . S
N367 C371 1.350 . S
N367 C372 1.307 . S
C368 H360 0.930 . S
C368 C369 1.355 . S
C368 C370 1.412 . S
C369 H361 0.930 . S
C369 C368 1.355 . S
C369 C372 1.402 . S
C370 C368 1.412 . S
C370 C371 1.417 . S
C370 C394 1.431 . S
C371 N367 1.350 . S
C371 C370 1.417 . S
C371 C374 1.426 . S
C372 H355 0.930 . S
C372 N367 1.307 . S
C372 C369 1.402 . S
N373 Gd336 2.601 . S
N373 C374 1.359 . S
N373 C377 1.334 . S
C374 C371 1.426 . S
C374 N373 1.359 . S
C374 C378 1.413 . S
C375 H366 0.930 . S
C375 C376 1.359 . S
C375 C377 1.394 . S
C376 C375 1.359 . S
C376 C378 1.391 . S
C376 H379 0.929 . S
C377 H359 0.930 . S
C377 N373 1.334 . S
C377 C375 1.394 . S
C378 C374 1.413 . S
C378 C376 1.391 . S
C378 C393 1.437 . S
H379 C376 0.929 . S
O380 Gd336 2.545 . S
O380 C395 1.258 . S
O381 Gd336 2.606 . S
O381 Gd337 2.362 . S
O381 C392 1.284 . S
O382 Gd337 2.324 . S
O382 C402 1.254 . S
O383 Gd336 2.429 . S
O383 C402 1.268 . S
O384 Gd336 2.545 . S
O384 C392 1.250 . S
O385 Gd336 2.412 . S
O385 C395 1.252 . S
O386 Gd337 2.545 . S
O386 C404 1.258 . S
O387 Gd336 2.362 . S
O387 Gd337 2.606 . S
O387 C403 1.284 . S
O388 Gd336 2.324 . S
O388 C411 1.254 . S
O389 Gd337 2.429 . S
O389 C411 1.268 . S
O390 Gd337 2.545 . S
O390 C403 1.250 . S
O391 Gd337 2.412 . S
O391 C404 1.252 . S
C392 O381 1.284 . S
C392 O384 1.250 . S
C393 H362 0.929 . S
C393 C378 1.437 . S
C393 C394 1.317 . S
C394 H365 0.930 . S
C394 C370 1.431 . S
C394 C393 1.317 . S
C395 Gd336 2.828 . S
C395 O380 1.258 . S
C395 O385 1.252 . S
C395 C396 1.497 . S
C396 C395 1.497 . S
C396 C397 1.395 . S
C396 C398 1.380 . S
C397 C396 1.395 . S
C397 C400 1.398 . S
C397 H412 0.930 . S
C398 C396 1.380 . S
C398 C399 1.391 . S
C398 H413 0.930 . S
C399 C398 1.391 . S
C399 C401 1.387 . S
C400 C397 1.398 . S
C400 C401 1.380 . S
C400 H414 0.930 . S
C401 C399 1.387 . S
C401 C400 1.380 . S
C401 H415 0.930 . S
C402 O382 1.254 . S
C402 O383 1.268 . S
C403 O387 1.284 . S
C403 O390 1.250 . S
C404 Gd337 2.828 . S
C404 O386 1.258 . S
C404 O391 1.252 . S
C404 C405 1.497 . S
C405 C404 1.497 . S
C405 C406 1.395 . S
C405 C407 1.380 . S
C406 C405 1.395 . S
C406 C409 1.398 . S
C406 H416 0.930 . S
C407 C405 1.380 . S
C407 C408 1.391 . S
C407 H417 0.930 . S
C408 C407 1.391 . S
C408 C410 1.387 . S
C409 C406 1.398 . S
C409 C410 1.380 . S
C409 H418 0.930 . S
C410 C408 1.387 . S
C410 C409 1.380 . S
C410 H419 0.930 . S
C411 O388 1.254 . S
C411 O389 1.268 . S
H412 C397 0.930 . S
H413 C398 0.930 . S
H414 C400 0.930 . S
H415 C401 0.930 . S
H416 C406 0.930 . S
H417 C407 0.930 . S
H418 C409 0.930 . S
H419 C410 0.930 . S
Gd420 N451 2.661 . S
Gd420 N457 2.601 . S
Gd420 O464 2.545 . S
Gd420 O465 2.606 . S
Gd420 O467 2.429 . S
Gd420 O468 2.545 . S
Gd420 O469 2.412 . S
Gd420 O471 2.362 . S
Gd420 O472 2.324 . S
Gd420 C479 2.828 . S
Gd421 N430 2.661 . S
Gd421 N434 2.601 . S
Gd421 O465 2.362 . S
Gd421 O466 2.324 . S
Gd421 O470 2.545 . S
Gd421 O471 2.606 . S
Gd421 O473 2.429 . S
Gd421 O474 2.545 . S
Gd421 O475 2.412 . S
Gd421 C488 2.828 . S
C422 C425 1.417 . S
C422 C427 1.431 . S
C422 C428 1.412 . S
C423 C426 1.437 . S
C423 C427 1.317 . S
C423 H442 0.929 . S
C424 C425 1.426 . S
C424 C426 1.413 . S
C424 N434 1.359 . S
C425 C422 1.417 . S
C425 C424 1.426 . S
C425 N430 1.350 . S
C426 C423 1.437 . S
C426 C424 1.413 . S
C426 C436 1.391 . S
C427 C422 1.431 . S
C427 C423 1.317 . S
C427 H438 0.930 . S
C428 C422 1.412 . S
C428 C429 1.355 . S
C428 H440 0.930 . S
C429 C428 1.355 . S
C429 C431 1.402 . S
C429 H441 0.930 . S
N430 Gd421 2.661 . S
N430 C425 1.350 . S
N430 C431 1.307 . S
C431 C429 1.402 . S
C431 N430 1.307 . S
C431 H432 0.930 . S
H432 C431 0.930 . S
C433 N434 1.334 . S
C433 C435 1.394 . S
C433 H437 0.930 . S
N434 Gd421 2.601 . S
N434 C424 1.359 . S
N434 C433 1.334 . S
C435 C433 1.394 . S
C435 C436 1.359 . S
C435 H447 0.930 . S
C436 C426 1.391 . S
C436 C435 1.359 . S
C436 H448 0.929 . S
H437 C433 0.930 . S
H438 C427 0.930 . S
H439 C456 0.930 . S
H440 C428 0.930 . S
H441 C429 0.930 . S
H442 C423 0.929 . S
H443 C461 0.930 . S
H444 C452 0.930 . S
H445 C453 0.930 . S
H446 C477 0.929 . S
H447 C435 0.930 . S
H448 C436 0.929 . S
H449 C478 0.930 . S
H450 C459 0.930 . S
N451 Gd420 2.661 . S
N451 C455 1.350 . S
N451 C456 1.307 . S
C452 H444 0.930 . S
C452 C453 1.355 . S
C452 C454 1.412 . S
C453 H445 0.930 . S
C453 C452 1.355 . S
C453 C456 1.402 . S
C454 C452 1.412 . S
C454 C455 1.417 . S
C454 C478 1.431 . S
C455 N451 1.350 . S
C455 C454 1.417 . S
C455 C458 1.426 . S
C456 H439 0.930 . S
C456 N451 1.307 . S
C456 C453 1.402 . S
N457 Gd420 2.601 . S
N457 C458 1.359 . S
N457 C461 1.334 . S
C458 C455 1.426 . S
C458 N457 1.359 . S
C458 C462 1.413 . S
C459 H450 0.930 . S
C459 C460 1.359 . S
C459 C461 1.394 . S
C460 C459 1.359 . S
C460 C462 1.391 . S
C460 H463 0.929 . S
C461 H443 0.930 . S
C461 N457 1.334 . S
C461 C459 1.394 . S
C462 C458 1.413 . S
C462 C460 1.391 . S
C462 C477 1.437 . S
H463 C460 0.929 . S
O464 Gd420 2.545 . S
O464 C479 1.258 . S
O465 Gd420 2.606 . S
O465 Gd421 2.362 . S
O465 C476 1.284 . S
O466 Gd421 2.324 . S
O466 C486 1.254 . S
O467 Gd420 2.429 . S
O467 C486 1.268 . S
O468 Gd420 2.545 . S
O468 C476 1.250 . S
O469 Gd420 2.412 . S
O469 C479 1.252 . S
O470 Gd421 2.545 . S
O470 C488 1.258 . S
O471 Gd420 2.362 . S
O471 Gd421 2.606 . S
O471 C487 1.284 . S
O472 Gd420 2.324 . S
O472 C495 1.254 . S
O473 Gd421 2.429 . S
O473 C495 1.268 . S
O474 Gd421 2.545 . S
O474 C487 1.250 . S
O475 Gd421 2.412 . S
O475 C488 1.252 . S
C476 O465 1.284 . S
C476 O468 1.250 . S
C477 H446 0.929 . S
C477 C462 1.437 . S
C477 C478 1.317 . S
C478 H449 0.930 . S
C478 C454 1.431 . S
C478 C477 1.317 . S
C479 Gd420 2.828 . S
C479 O464 1.258 . S
C479 O469 1.252 . S
C479 C480 1.497 . S
C480 C479 1.497 . S
C480 C481 1.395 . S
C480 C482 1.380 . S
C481 C480 1.395 . S
C481 C484 1.398 . S
C481 H496 0.930 . S
C482 C480 1.380 . S
C482 C483 1.391 . S
C482 H497 0.930 . S
C483 C482 1.391 . S
C483 C485 1.387 . S
C484 C481 1.398 . S
C484 C485 1.380 . S
C484 H498 0.930 . S
C485 C483 1.387 . S
C485 C484 1.380 . S
C485 H499 0.930 . S
C486 O466 1.254 . S
C486 O467 1.268 . S
C487 O471 1.284 . S
C487 O474 1.250 . S
C488 Gd421 2.828 . S
C488 O470 1.258 . S
C488 O475 1.252 . S
C488 C489 1.497 . S
C489 C488 1.497 . S
C489 C490 1.395 . S
C489 C491 1.380 . S
C490 C489 1.395 . S
C490 C493 1.398 . S
C490 H500 0.930 . S
C491 C489 1.380 . S
C491 C492 1.391 . S
C491 H501 0.930 . S
C492 C491 1.391 . S
C492 C494 1.387 . S
C493 C490 1.398 . S
C493 C494 1.380 . S
C493 H502 0.930 . S
C494 C492 1.387 . S
C494 C493 1.380 . S
C494 H503 0.930 . S
C495 O472 1.254 . S
C495 O473 1.268 . S
H496 C481 0.930 . S
H497 C482 0.930 . S
H498 C484 0.930 . S
H499 C485 0.930 . S
H500 C490 0.930 . S
H501 C491 0.930 . S
H502 C493 0.930 . S
H503 C494 0.930 . S
Gd504 N535 2.661 . S
Gd504 N541 2.601 . S
Gd504 O548 2.545 . S
Gd504 O549 2.606 . S
Gd504 O551 2.429 . S
Gd504 O552 2.545 . S
Gd504 O553 2.412 . S
Gd504 O555 2.362 . S
Gd504 O556 2.324 . S
Gd504 C563 2.828 . S
Gd505 N514 2.661 . S
Gd505 N518 2.601 . S
Gd505 O549 2.362 . S
Gd505 O550 2.324 . S
Gd505 O554 2.545 . S
Gd505 O555 2.606 . S
Gd505 O557 2.429 . S
Gd505 O558 2.545 . S
Gd505 O559 2.412 . S
Gd505 C572 2.828 . S
C506 C509 1.417 . S
C506 C511 1.431 . S
C506 C512 1.412 . S
C507 C510 1.437 . S
C507 C511 1.317 . S
C507 H526 0.929 . S
C508 C509 1.426 . S
C508 C510 1.413 . S
C508 N518 1.359 . S
C509 C506 1.417 . S
C509 C508 1.426 . S
C509 N514 1.350 . S
C510 C507 1.437 . S
C510 C508 1.413 . S
C510 C520 1.391 . S
C511 C506 1.431 . S
C511 C507 1.317 . S
C511 H522 0.930 . S
C512 C506 1.412 . S
C512 C513 1.355 . S
C512 H524 0.930 . S
C513 C512 1.355 . S
C513 C515 1.402 . S
C513 H525 0.930 . S
N514 Gd505 2.661 . S
N514 C509 1.350 . S
N514 C515 1.307 . S
C515 C513 1.402 . S
C515 N514 1.307 . S
C515 H516 0.930 . S
H516 C515 0.930 . S
C517 N518 1.334 . S
C517 C519 1.394 . S
C517 H521 0.930 . S
N518 Gd505 2.601 . S
N518 C508 1.359 . S
N518 C517 1.334 . S
C519 C517 1.394 . S
C519 C520 1.359 . S
C519 H531 0.930 . S
C520 C510 1.391 . S
C520 C519 1.359 . S
C520 H532 0.929 . S
H521 C517 0.930 . S
H522 C511 0.930 . S
H523 C540 0.930 . S
H524 C512 0.930 . S
H525 C513 0.930 . S
H526 C507 0.929 . S
H527 C545 0.930 . S
H528 C536 0.930 . S
H529 C537 0.930 . S
H530 C561 0.929 . S
H531 C519 0.930 . S
H532 C520 0.929 . S
H533 C562 0.930 . S
H534 C543 0.930 . S
N535 Gd504 2.661 . S
N535 C539 1.350 . S
N535 C540 1.307 . S
C536 H528 0.930 . S
C536 C537 1.355 . S
C536 C538 1.412 . S
C537 H529 0.930 . S
C537 C536 1.355 . S
C537 C540 1.402 . S
C538 C536 1.412 . S
C538 C539 1.417 . S
C538 C562 1.431 . S
C539 N535 1.350 . S
C539 C538 1.417 . S
C539 C542 1.426 . S
C540 H523 0.930 . S
C540 N535 1.307 . S
C540 C537 1.402 . S
N541 Gd504 2.601 . S
N541 C542 1.359 . S
N541 C545 1.334 . S
C542 C539 1.426 . S
C542 N541 1.359 . S
C542 C546 1.413 . S
C543 H534 0.930 . S
C543 C544 1.359 . S
C543 C545 1.394 . S
C544 C543 1.359 . S
C544 C546 1.391 . S
C544 H547 0.929 . S
C545 H527 0.930 . S
C545 N541 1.334 . S
C545 C543 1.394 . S
C546 C542 1.413 . S
C546 C544 1.391 . S
C546 C561 1.437 . S
H547 C544 0.929 . S
O548 Gd504 2.545 . S
O548 C563 1.258 . S
O549 Gd504 2.606 . S
O549 Gd505 2.362 . S
O549 C560 1.284 . S
O550 Gd505 2.324 . S
O550 C570 1.254 . S
O551 Gd504 2.429 . S
O551 C570 1.268 . S
O552 Gd504 2.545 . S
O552 C560 1.250 . S
O553 Gd504 2.412 . S
O553 C563 1.252 . S
O554 Gd505 2.545 . S
O554 C572 1.258 . S
O555 Gd504 2.362 . S
O555 Gd505 2.606 . S
O555 C571 1.284 . S
O556 Gd504 2.324 . S
O556 C579 1.254 . S
O557 Gd505 2.429 . S
O557 C579 1.268 . S
O558 Gd505 2.545 . S
O558 C571 1.250 . S
O559 Gd505 2.412 . S
O559 C572 1.252 . S
C560 O549 1.284 . S
C560 O552 1.250 . S
C561 H530 0.929 . S
C561 C546 1.437 . S
C561 C562 1.317 . S
C562 H533 0.930 . S
C562 C538 1.431 . S
C562 C561 1.317 . S
C563 Gd504 2.828 . S
C563 O548 1.258 . S
C563 O553 1.252 . S
C563 C564 1.497 . S
C564 C563 1.497 . S
C564 C565 1.395 . S
C564 C566 1.380 . S
C565 C564 1.395 . S
C565 C568 1.398 . S
C565 H580 0.930 . S
C566 C564 1.380 . S
C566 C567 1.391 . S
C566 H581 0.930 . S
C567 C566 1.391 . S
C567 C569 1.387 . S
C568 C565 1.398 . S
C568 C569 1.380 . S
C568 H582 0.930 . S
C569 C567 1.387 . S
C569 C568 1.380 . S
C569 H583 0.930 . S
C570 O550 1.254 . S
C570 O551 1.268 . S
C571 O555 1.284 . S
C571 O558 1.250 . S
C572 Gd505 2.828 . S
C572 O554 1.258 . S
C572 O559 1.252 . S
C572 C573 1.497 . S
C573 C572 1.497 . S
C573 C574 1.395 . S
C573 C575 1.380 . S
C574 C573 1.395 . S
C574 C577 1.398 . S
C574 H584 0.930 . S
C575 C573 1.380 . S
C575 C576 1.391 . S
C575 H585 0.930 . S
C576 C575 1.391 . S
C576 C578 1.387 . S
C577 C574 1.398 . S
C577 C578 1.380 . S
C577 H586 0.930 . S
C578 C576 1.387 . S
C578 C577 1.380 . S
C578 H587 0.930 . S
C579 O556 1.254 . S
C579 O557 1.268 . S
H580 C565 0.930 . S
H581 C566 0.930 . S
H582 C568 0.930 . S
H583 C569 0.930 . S
H584 C574 0.930 . S
H585 C575 0.930 . S
H586 C577 0.930 . S
H587 C578 0.930 . S
Gd588 N619 2.661 . S
Gd588 N625 2.601 . S
Gd588 O632 2.545 . S
Gd588 O633 2.606 . S
Gd588 O635 2.429 . S
Gd588 O636 2.545 . S
Gd588 O637 2.412 . S
Gd588 O639 2.362 . S
Gd588 O640 2.324 . S
Gd588 C647 2.828 . S
Gd589 N598 2.661 . S
Gd589 N602 2.601 . S
Gd589 O633 2.362 . S
Gd589 O634 2.324 . S
Gd589 O638 2.545 . S
Gd589 O639 2.606 . S
Gd589 O641 2.429 . S
Gd589 O642 2.545 . S
Gd589 O643 2.412 . S
Gd589 C656 2.828 . S
C590 C593 1.417 . S
C590 C595 1.431 . S
C590 C596 1.412 . S
C591 C594 1.437 . S
C591 C595 1.317 . S
C591 H610 0.929 . S
C592 C593 1.426 . S
C592 C594 1.413 . S
C592 N602 1.359 . S
C593 C590 1.417 . S
C593 C592 1.426 . S
C593 N598 1.350 . S
C594 C591 1.437 . S
C594 C592 1.413 . S
C594 C604 1.391 . S
C595 C590 1.431 . S
C595 C591 1.317 . S
C595 H606 0.930 . S
C596 C590 1.412 . S
C596 C597 1.355 . S
C596 H608 0.930 . S
C597 C596 1.355 . S
C597 C599 1.402 . S
C597 H609 0.930 . S
N598 Gd589 2.661 . S
N598 C593 1.350 . S
N598 C599 1.307 . S
C599 C597 1.402 . S
C599 N598 1.307 . S
C599 H600 0.930 . S
H600 C599 0.930 . S
C601 N602 1.334 . S
C601 C603 1.394 . S
C601 H605 0.930 . S
N602 Gd589 2.601 . S
N602 C592 1.359 . S
N602 C601 1.334 . S
C603 C601 1.394 . S
C603 C604 1.359 . S
C603 H615 0.930 . S
C604 C594 1.391 . S
C604 C603 1.359 . S
C604 H616 0.929 . S
H605 C601 0.930 . S
H606 C595 0.930 . S
H607 C624 0.930 . S
H608 C596 0.930 . S
H609 C597 0.930 . S
H610 C591 0.929 . S
H611 C629 0.930 . S
H612 C620 0.930 . S
H613 C621 0.930 . S
H614 C645 0.929 . S
H615 C603 0.930 . S
H616 C604 0.929 . S
H617 C646 0.930 . S
H618 C627 0.930 . S
N619 Gd588 2.661 . S
N619 C623 1.350 . S
N619 C624 1.307 . S
C620 H612 0.930 . S
C620 C621 1.355 . S
C620 C622 1.412 . S
C621 H613 0.930 . S
C621 C620 1.355 . S
C621 C624 1.402 . S
C622 C620 1.412 . S
C622 C623 1.417 . S
C622 C646 1.431 . S
C623 N619 1.350 . S
C623 C622 1.417 . S
C623 C626 1.426 . S
C624 H607 0.930 . S
C624 N619 1.307 . S
C624 C621 1.402 . S
N625 Gd588 2.601 . S
N625 C626 1.359 . S
N625 C629 1.334 . S
C626 C623 1.426 . S
C626 N625 1.359 . S
C626 C630 1.413 . S
C627 H618 0.930 . S
C627 C628 1.359 . S
C627 C629 1.394 . S
C628 C627 1.359 . S
C628 C630 1.391 . S
C628 H631 0.929 . S
C629 H611 0.930 . S
C629 N625 1.334 . S
C629 C627 1.394 . S
C630 C626 1.413 . S
C630 C628 1.391 . S
C630 C645 1.437 . S
H631 C628 0.929 . S
O632 Gd588 2.545 . S
O632 C647 1.258 . S
O633 Gd588 2.606 . S
O633 Gd589 2.362 . S
O633 C644 1.284 . S
O634 Gd589 2.324 . S
O634 C654 1.254 . S
O635 Gd588 2.429 . S
O635 C654 1.268 . S
O636 Gd588 2.545 . S
O636 C644 1.250 . S
O637 Gd588 2.412 . S
O637 C647 1.252 . S
O638 Gd589 2.545 . S
O638 C656 1.258 . S
O639 Gd588 2.362 . S
O639 Gd589 2.606 . S
O639 C655 1.284 . S
O640 Gd588 2.324 . S
O640 C663 1.254 . S
O641 Gd589 2.429 . S
O641 C663 1.268 . S
O642 Gd589 2.545 . S
O642 C655 1.250 . S
O643 Gd589 2.412 . S
O643 C656 1.252 . S
C644 O633 1.284 . S
C644 O636 1.250 . S
C645 H614 0.929 . S
C645 C630 1.437 . S
C645 C646 1.317 . S
C646 H617 0.930 . S
C646 C622 1.431 . S
C646 C645 1.317 . S
C647 Gd588 2.828 . S
C647 O632 1.258 . S
C647 O637 1.252 . S
C647 C648 1.497 . S
C648 C647 1.497 . S
C648 C649 1.395 . S
C648 C650 1.380 . S
C649 C648 1.395 . S
C649 C652 1.398 . S
C649 H664 0.930 . S
C650 C648 1.380 . S
C650 C651 1.391 . S
C650 H665 0.930 . S
C651 C650 1.391 . S
C651 C653 1.387 . S
C652 C649 1.398 . S
C652 C653 1.380 . S
C652 H666 0.930 . S
C653 C651 1.387 . S
C653 C652 1.380 . S
C653 H667 0.930 . S
C654 O634 1.254 . S
C654 O635 1.268 . S
C655 O639 1.284 . S
C655 O642 1.250 . S
C656 Gd589 2.828 . S
C656 O638 1.258 . S
C656 O643 1.252 . S
C656 C657 1.497 . S
C657 C656 1.497 . S
C657 C658 1.395 . S
C657 C659 1.380 . S
C658 C657 1.395 . S
C658 C661 1.398 . S
C658 H668 0.930 . S
C659 C657 1.380 . S
C659 C660 1.391 . S
C659 H669 0.930 . S
C660 C659 1.391 . S
C660 C662 1.387 . S
C661 C658 1.398 . S
C661 C662 1.380 . S
C661 H670 0.930 . S
C662 C660 1.387 . S
C662 C661 1.380 . S
C662 H671 0.930 . S
C663 O640 1.254 . S
C663 O641 1.268 . S
H664 C649 0.930 . S
H665 C650 0.930 . S
H666 C652 0.930 . S
H667 C653 0.930 . S
H668 C658 0.930 . S
H669 C659 0.930 . S
H670 C661 0.930 . S
H671 C662 0.930 . S
Fe672 O673 1.886 1_455 S
Fe672 O676 1.715 . S
Fe672 O681 2.077 1_455 S
Fe672 O686 1.935 . S
Fe672 O692 2.077 1_455 S
Fe672 O701 1.935 . S
O673 Fe672 1.886 1_655 S
O673 Fe675 1.715 . S
Fe674 O676 1.886 . S
Fe674 O677 1.715 1_545 S
Fe674 O684 1.935 . S
Fe674 O685 2.077 . S
Fe674 O691 1.935 1_545 S
Fe674 O700 2.077 . S
Fe675 O673 1.715 . S
Fe675 O678 1.886 1_545 S
Fe675 O682 1.935 . S
Fe675 O687 2.077 1_545 S
Fe675 O693 1.935 . S
Fe675 O697 2.077 1_545 S
O676 Fe672 1.715 . S
O676 Fe674 1.886 . S
O677 Fe674 1.715 1_565 S
O677 Fe679 1.886 . S
O678 Fe675 1.886 1_565 S
O678 Fe679 1.715 1_655 S
Fe679 O677 1.886 . S
Fe679 O678 1.715 1_455 S
Fe679 O683 2.077 . S
Fe679 O688 1.935 1_455 S
Fe679 O690 2.077 . S
Fe679 O698 1.935 1_455 S
C680 O692 1.381 . S
C680 O693 1.421 . S
O681 Fe672 2.077 1_655 S
O681 C694 1.381 . S
O682 Fe675 1.935 . S
O682 C694 1.421 . S
O683 Fe679 2.077 . S
O683 C699 1.381 . S
O684 Fe674 1.935 . S
O684 C699 1.422 1_545 S
O685 Fe674 2.077 . S
O685 C689 1.381 . S
O686 Fe672 1.935 . S
O686 C689 1.421 . S
O687 Fe675 2.077 1_565 S
O687 C695 1.381 . S
O688 Fe679 1.935 1_655 S
O688 C695 1.421 . S
C689 O685 1.381 . S
C689 O686 1.421 . S
O690 Fe679 2.077 . S
O690 C702 1.381 . S
O691 Fe674 1.935 1_565 S
O691 C702 1.421 . S
O692 Fe672 2.077 1_655 S
O692 C680 1.381 . S
O693 Fe675 1.935 . S
O693 C680 1.421 . S
C694 O681 1.381 . S
C694 O682 1.421 . S
C695 O687 1.381 . S
C695 O688 1.421 . S
C696 O697 1.381 . S
C696 O698 1.421 . S
O697 Fe675 2.077 1_565 S
O697 C696 1.381 . S
O698 Fe679 1.935 1_655 S
O698 C696 1.421 . S
C699 O683 1.381 . S
C699 O684 1.422 1_565 S
O700 Fe674 2.077 . S
O700 C703 1.381 . S
O701 Fe672 1.935 . S
O701 C703 1.421 . S
C702 O690 1.381 . S
C702 O691 1.421 . S
C703 O700 1.381 . S
C703 O701 1.421 . S
Fe704 O705 1.886 1_565 S
Fe704 O708 1.715 . S
Fe704 O713 2.077 1_554 S
Fe704 O718 1.935 1_554 S
Fe704 O724 2.077 . S
Fe704 O733 1.935 . S
O705 Fe704 1.886 1_545 S
O705 Fe707 1.715 . S
Fe706 O708 1.886 1_546 S
Fe706 O709 1.715 . S
Fe706 O716 1.948 . S
Fe706 O717 2.088 1_545 S
Fe706 O723 1.922 1_556 S
Fe706 O732 2.066 1_546 S
Fe707 O705 1.715 . S
Fe707 O710 1.884 . S
Fe707 O714 1.935 1_554 S
Fe707 O719 2.077 1_554 S
Fe707 O725 1.935 . S
Fe707 O729 2.077 . S
O708 Fe704 1.715 . S
O708 Fe706 1.886 1_564 S
O709 Fe706 1.715 . S
O709 Fe711 1.886 . S
O710 Fe707 1.884 . S
O710 Fe711 1.720 1_554 S
Fe711 O709 1.886 . S
Fe711 O710 1.720 1_556 S
Fe711 O715 2.097 . S
Fe711 O720 1.959 . S
Fe711 O722 2.056 1_556 S
Fe711 O730 1.912 1_556 S
C712 O724 1.381 . S
C712 O725 1.421 1_565 S
O713 Fe704 2.077 1_556 S
O713 C726 1.381 . S
O714 Fe707 1.935 1_556 S
O714 C726 1.421 1_545 S
O715 Fe711 2.097 . S
O715 C731 1.381 . S
O716 Fe706 1.948 . S
O716 C731 1.421 . S
O717 Fe706 2.088 1_565 S
O717 C721 1.381 . S
O718 Fe704 1.935 1_556 S
O718 C721 1.421 . S
O719 Fe707 2.077 1_556 S
O719 C727 1.381 . S
O720 Fe711 1.959 . S
O720 C727 1.421 . S
C721 O717 1.381 . S
C721 O718 1.421 . S
O722 Fe711 2.056 1_554 S
O722 C734 1.381 . S
O723 Fe706 1.922 1_554 S
O723 C734 1.421 . S
O724 Fe704 2.077 . S
O724 C712 1.381 . S
O725 Fe707 1.935 . S
O725 C712 1.421 1_545 S
C726 O713 1.381 . S
C726 O714 1.421 1_565 S
C727 O719 1.381 . S
C727 O720 1.421 . S
C728 O729 1.381 . S
C728 O730 1.421 . S
O729 Fe707 2.077 . S
O729 C728 1.381 . S
O730 Fe711 1.912 1_554 S
O730 C728 1.421 . S
C731 O715 1.381 . S
C731 O716 1.421 . S
O732 Fe706 2.066 1_564 S
O732 C735 1.381 . S
O733 Fe704 1.935 . S
O733 C735 1.421 . S
C734 O722 1.381 . S
C734 O723 1.421 . S
C735 O732 1.381 . S
C735 O733 1.421 . S
Fe736 O737 1.886 1_455 S
Fe736 O740 1.715 . S
Fe736 O745 2.077 1_455 S
Fe736 O750 1.935 . S
Fe736 O756 2.077 1_455 S
Fe736 O765 1.935 . S
O737 Fe736 1.886 1_655 S
O737 Fe739 1.715 . S
Fe738 O740 1.886 . S
Fe738 O741 1.715 . S
Fe738 O748 1.935 . S
Fe738 O749 2.077 . S
Fe738 O755 1.935 . S
Fe738 O764 2.077 . S
Fe739 O737 1.715 . S
Fe739 O742 1.886 . S
Fe739 O746 1.935 . S
Fe739 O751 2.077 . S
Fe739 O757 1.935 . S
Fe739 O761 2.077 . S
O740 Fe736 1.715 . S
O740 Fe738 1.886 . S
O741 Fe738 1.715 . S
O741 Fe743 1.886 1_455 S
O742 Fe739 1.886 . S
O742 Fe743 1.715 . S
Fe743 O741 1.886 1_655 S
Fe743 O742 1.715 . S
Fe743 O747 2.077 1_655 S
Fe743 O752 1.935 . S
Fe743 O754 2.077 1_655 S
Fe743 O762 1.935 . S
C744 O756 1.381 . S
C744 O757 1.421 . S
O745 Fe736 2.077 1_655 S
O745 C758 1.381 1_554 S
O746 Fe739 1.935 . S
O746 C758 1.421 1_554 S
O747 Fe743 2.077 1_455 S
O747 C763 1.381 . S
O748 Fe738 1.935 . S
O748 C763 1.421 . S
O749 Fe738 2.077 . S
O749 C753 1.372 1_554 S
O750 Fe736 1.935 . S
O750 C753 1.412 1_554 S
O751 Fe739 2.077 . S
O751 C759 1.379 1_554 S
O752 Fe743 1.935 . S
O752 C759 1.419 1_554 S
C753 O749 1.372 1_556 S
C753 O750 1.412 1_556 S
O754 Fe743 2.077 1_455 S
O754 C766 1.381 . S
O755 Fe738 1.935 . S
O755 C766 1.421 . S
O756 Fe736 2.077 1_655 S
O756 C744 1.381 . S
O757 Fe739 1.935 . S
O757 C744 1.421 . S
C758 O745 1.381 1_556 S
C758 O746 1.421 1_556 S
C759 O751 1.379 1_556 S
C759 O752 1.419 1_556 S
C760 O761 1.381 . S
C760 O762 1.421 . S
O761 Fe739 2.077 . S
O761 C760 1.381 . S
O762 Fe743 1.935 . S
O762 C760 1.421 . S
C763 O747 1.381 . S
C763 O748 1.421 . S
O764 Fe738 2.077 . S
O764 C767 1.381 . S
O765 Fe736 1.935 . S
O765 C767 1.421 . S
C766 O754 1.381 . S
C766 O755 1.421 . S
C767 O764 1.381 . S
C767 O765 1.421 . S
Fe768 O769 1.886 . S
Fe768 O772 1.715 . S
Fe768 O777 2.077 . S
Fe768 O782 1.935 . S
Fe768 O788 2.077 . S
Fe768 O797 1.935 . S
O769 Fe768 1.886 . S
O769 Fe771 1.715 1_556 S
Fe770 O772 1.886 1_554 S
Fe770 O773 1.715 . S
Fe770 O780 1.935 . S
Fe770 O781 2.077 1_554 S
Fe770 O787 1.935 . S
Fe770 O796 2.077 1_554 S
Fe771 O769 1.715 1_554 S
Fe771 O774 1.886 . S
Fe771 O778 1.928 1_554 S
Fe771 O783 2.077 . S
Fe771 O789 1.935 . S
Fe771 O793 2.077 . S
O772 Fe768 1.715 . S
O772 Fe770 1.886 1_556 S
O773 Fe770 1.715 . S
O773 Fe775 1.886 . S
O774 Fe771 1.886 . S
O774 Fe775 1.715 . S
Fe775 O773 1.886 . S
Fe775 O774 1.715 . S
Fe775 O779 2.077 . S
Fe775 O784 1.935 . S
Fe775 O786 2.077 . S
Fe775 O794 1.935 . S
C776 O788 1.381 . S
C776 O789 1.421 1_556 S
O777 Fe768 2.077 . S
O777 C790 1.381 . S
O778 Fe771 1.928 1_556 S
O778 C790 1.432 . S
O779 Fe775 2.077 . S
O779 C795 1.381 . S
O780 Fe770 1.935 . S
O780 C795 1.421 . S
O781 Fe770 2.077 1_556 S
O781 C785 1.381 . S
O782 Fe768 1.935 . S
O782 C785 1.421 . S
O783 Fe771 2.077 . S
O783 C791 1.381 . S
O784 Fe775 1.935 . S
O784 C791 1.421 . S
C785 O781 1.381 . S
C785 O782 1.421 . S
O786 Fe775 2.077 . S
O786 C798 1.381 . S
O787 Fe770 1.935 . S
O787 C798 1.421 . S
O788 Fe768 2.077 . S
O788 C776 1.381 . S
O789 Fe771 1.935 . S
O789 C776 1.421 1_554 S
C790 O777 1.381 . S
C790 O778 1.432 . S
C791 O783 1.381 . S
C791 O784 1.421 . S
C792 O793 1.381 . S
C792 O794 1.421 . S
O793 Fe771 2.077 . S
O793 C792 1.381 . S
O794 Fe775 1.935 . S
O794 C792 1.421 . S
C795 O779 1.381 . S
C795 O780 1.421 . S
O796 Fe770 2.077 1_556 S
O796 C799 1.381 . S
O797 Fe768 1.935 . S
O797 C799 1.421 . S
C798 O786 1.381 . S
C798 O787 1.421 . S
C799 O796 1.381 . S
C799 O797 1.421 . S
Fe800 O801 1.886 . S
Fe800 O804 1.715 . S
Fe800 O809 2.077 . S
Fe800 O814 1.935 . S
Fe800 O820 2.077 1_455 S
Fe800 O829 1.935 1_455 S
O801 Fe800 1.886 . S
O801 Fe803 1.715 . S
Fe802 O804 1.886 . S
Fe802 O805 1.715 . S
Fe802 O812 1.935 . S
Fe802 O813 2.077 . S
Fe802 O819 1.935 1_455 S
Fe802 O828 2.077 1_455 S
Fe803 O801 1.715 . S
Fe803 O806 1.886 . S
Fe803 O810 1.935 . S
Fe803 O815 2.077 . S
Fe803 O821 1.935 1_455 S
Fe803 O825 2.077 1_455 S
O804 Fe800 1.715 . S
O804 Fe802 1.886 . S
O805 Fe802 1.715 . S
O805 Fe807 1.886 . S
O806 Fe803 1.886 . S
O806 Fe807 1.715 . S
Fe807 O805 1.886 . S
Fe807 O806 1.715 . S
Fe807 O811 2.077 . S
Fe807 O816 1.935 . S
Fe807 O818 2.077 . S
Fe807 O826 1.947 . S
C808 O820 1.381 . S
C808 O821 1.421 . S
O809 Fe800 2.077 . S
O809 C822 1.381 . S
O810 Fe803 1.935 . S
O810 C822 1.421 . S
O811 Fe807 2.077 . S
O811 C827 1.381 . S
O812 Fe802 1.935 . S
O812 C827 1.421 . S
O813 Fe802 2.077 . S
O813 C817 1.381 . S
O814 Fe800 1.935 . S
O814 C817 1.421 . S
O815 Fe803 2.077 . S
O815 C823 1.381 . S
O816 Fe807 1.935 . S
O816 C823 1.421 . S
C817 O813 1.381 . S
C817 O814 1.421 . S
O818 Fe807 2.077 . S
O818 C830 1.381 1_455 S
O819 Fe802 1.935 1_655 S
O819 C830 1.421 . S
O820 Fe800 2.077 1_655 S
O820 C808 1.381 . S
O821 Fe803 1.935 1_655 S
O821 C808 1.421 . S
C822 O809 1.381 . S
C822 O810 1.421 . S
C823 O815 1.381 . S
C823 O816 1.421 . S
C824 O825 1.381 . S
C824 O826 1.417 1_655 S
O825 Fe803 2.077 1_655 S
O825 C824 1.381 . S
O826 Fe807 1.947 . S
O826 C824 1.417 1_455 S
C827 O811 1.381 . S
C827 O812 1.421 . S
O828 Fe802 2.077 1_655 S
O828 C831 1.381 . S
O829 Fe800 1.935 1_655 S
O829 C831 1.421 . S
C830 O818 1.381 1_655 S
C830 O819 1.421 . S
C831 O828 1.381 . S
C831 O829 1.421 . S
Fe832 O833 1.886 . S
Fe832 O836 1.715 . S
Fe832 O841 2.077 . S
Fe832 O846 1.935 . S
Fe832 O852 2.077 . S
Fe832 O861 1.935 . S
O833 Fe832 1.886 . S
O833 Fe835 1.715 1_565 S
Fe834 O836 1.886 1_545 S
Fe834 O837 1.715 . S
Fe834 O844 1.935 . S
Fe834 O845 2.077 1_545 S
Fe834 O851 1.935 . S
Fe834 O860 2.077 1_545 S
Fe835 O833 1.715 1_545 S
Fe835 O838 1.886 . S
Fe835 O842 1.935 1_545 S
Fe835 O847 2.077 . S
Fe835 O853 1.935 1_545 S
Fe835 O857 2.077 . S
O836 Fe832 1.715 . S
O836 Fe834 1.886 1_565 S
O837 Fe834 1.715 . S
O837 Fe839 1.886 . S
O838 Fe835 1.886 . S
O838 Fe839 1.715 . S
Fe839 O837 1.886 . S
Fe839 O838 1.715 . S
Fe839 O843 2.077 . S
Fe839 O848 1.935 . S
Fe839 O850 2.077 . S
Fe839 O858 1.935 . S
C840 O852 1.381 . S
C840 O853 1.421 . S
O841 Fe832 2.077 . S
O841 C854 1.381 . S
O842 Fe835 1.935 1_565 S
O842 C854 1.421 . S
O843 Fe839 2.077 . S
O843 C859 1.381 . S
O844 Fe834 1.935 . S
O844 C859 1.421 . S
O845 Fe834 2.077 1_565 S
O845 C849 1.381 . S
O846 Fe832 1.935 . S
O846 C849 1.421 . S
O847 Fe835 2.077 . S
O847 C855 1.381 . S
O848 Fe839 1.935 . S
O848 C855 1.421 . S
C849 O845 1.381 . S
C849 O846 1.421 . S
O850 Fe839 2.077 . S
O850 C862 1.381 . S
O851 Fe834 1.935 . S
O851 C862 1.421 . S
O852 Fe832 2.077 . S
O852 C840 1.381 . S
O853 Fe835 1.935 1_565 S
O853 C840 1.421 . S
C854 O841 1.381 . S
C854 O842 1.421 . S
C855 O847 1.381 . S
C855 O848 1.421 . S
C856 O857 1.381 . S
C856 O858 1.421 . S
O857 Fe835 2.077 . S
O857 C856 1.381 . S
O858 Fe839 1.935 . S
O858 C856 1.421 . S
C859 O843 1.381 . S
C859 O844 1.421 . S
O860 Fe834 2.077 1_565 S
O860 C863 1.381 . S
O861 Fe832 1.935 . S
O861 C863 1.421 . S
C862 O850 1.381 . S
C862 O851 1.421 . S
C863 O860 1.381 . S
C863 O861 1.421 . S
C864 C865 1.391 . S
C864 C866 1.394 . S
C864 H880 0.931 . S
C865 C864 1.391 . S
C865 C869 1.376 . S
C866 C864 1.394 . S
C866 C867 1.369 . S
C866 C870 1.531 . S
C867 C866 1.369 . S
C867 C868 1.410 . S
C867 C875 1.503 . S
C868 C867 1.410 . S
C868 C869 1.392 . S
C868 C871 1.511 . S
C869 C865 1.376 . S
C869 C868 1.392 . S
C869 H881 0.929 . S
C870 C866 1.531 . S
C870 H882 0.960 . S
C870 H883 0.962 . S
C870 H884 0.960 . S
C871 C868 1.511 . S
C871 H885 0.961 . S
C871 H886 0.961 . S
C871 H887 0.961 . S
C872 C873 1.370 . S
C872 C874 1.363 . S
C872 H888 0.931 . S
C873 C872 1.370 . S
C873 C877 1.408 . S
C874 C872 1.363 . S
C874 C875 1.370 . S
C874 C878 1.524 . S
C875 C867 1.503 . S
C875 C874 1.370 . S
C875 C876 1.403 . S
C876 C875 1.403 . S
C876 C877 1.404 . S
C876 C879 1.539 . S
C877 C873 1.408 . S
C877 C876 1.404 . S
C877 H889 0.930 . S
C878 C874 1.524 . S
C878 H890 0.956 . S
C878 H891 0.961 . S
C878 H892 0.961 . S
C879 C876 1.539 . S
C879 H893 0.958 . S
C879 H894 0.961 . S
C879 H895 0.960 . S
H880 C864 0.931 . S
H881 C869 0.929 . S
H882 C870 0.960 . S
H883 C870 0.962 . S
H884 C870 0.960 . S
H885 C871 0.961 . S
H886 C871 0.961 . S
H887 C871 0.961 . S
H888 C872 0.931 . S
H889 C877 0.930 . S
H890 C878 0.956 . S
H891 C878 0.961 . S
H892 C878 0.961 . S
H893 C879 0.958 . S
H894 C879 0.961 . S
H895 C879 0.960 . S
C896 C897 1.391 . S
C896 C898 1.394 . S
C896 H912 0.931 . S
C897 C896 1.391 . S
C897 C901 1.376 . S
C898 C896 1.394 . S
C898 C899 1.369 . S
C898 C902 1.531 . S
C899 C898 1.369 . S
C899 C900 1.410 . S
C899 C907 1.503 . S
C900 C899 1.410 . S
C900 C901 1.392 . S
C900 C903 1.511 . S
C901 C897 1.376 . S
C901 C900 1.392 . S
C901 H913 0.929 . S
C902 C898 1.531 . S
C902 H914 0.960 . S
C902 H915 0.962 . S
C902 H916 0.960 . S
C903 C900 1.511 . S
C903 H917 0.961 . S
C903 H918 0.961 . S
C903 H919 0.961 . S
C904 C905 1.370 . S
C904 C906 1.363 . S
C904 H920 0.931 . S
C905 C904 1.370 . S
C905 C909 1.408 . S
C906 C904 1.363 . S
C906 C907 1.370 . S
C906 C910 1.524 . S
C907 C899 1.503 . S
C907 C906 1.370 . S
C907 C908 1.403 . S
C908 C907 1.403 . S
C908 C909 1.404 . S
C908 C911 1.539 . S
C909 C905 1.408 . S
C909 C908 1.404 . S
C909 H921 0.930 . S
C910 C906 1.524 . S
C910 H922 0.956 . S
C910 H923 0.961 . S
C910 H924 0.961 . S
C911 C908 1.539 . S
C911 H925 0.958 . S
C911 H926 0.961 . S
C911 H927 0.960 . S
H912 C896 0.931 . S
H913 C901 0.929 . S
H914 C902 0.960 . S
H915 C902 0.962 . S
H916 C902 0.960 . S
H917 C903 0.961 . S
H918 C903 0.961 . S
H919 C903 0.961 . S
H920 C904 0.931 . S
H921 C909 0.930 . S
H922 C910 0.956 . S
H923 C910 0.961 . S
H924 C910 0.961 . S
H925 C911 0.958 . S
H926 C911 0.961 . S
H927 C911 0.960 . S
C928 C929 1.391 . S
C928 C930 1.394 . S
C928 H944 0.931 . S
C929 C928 1.391 . S
C929 C933 1.376 . S
C930 C928 1.394 . S
C930 C931 1.369 . S
C930 C934 1.531 . S
C931 C930 1.369 . S
C931 C932 1.410 . S
C931 C939 1.503 . S
C932 C931 1.410 . S
C932 C933 1.392 . S
C932 C935 1.511 . S
C933 C929 1.376 . S
C933 C932 1.392 . S
C933 H945 0.929 . S
C934 C930 1.531 . S
C934 H946 0.960 . S
C934 H947 0.962 . S
C934 H948 0.960 . S
C935 C932 1.511 . S
C935 H949 0.961 . S
C935 H950 0.961 . S
C935 H951 0.961 . S
C936 C937 1.370 . S
C936 C938 1.363 . S
C936 H952 0.931 . S
C937 C936 1.370 . S
C937 C941 1.408 . S
C938 C936 1.363 . S
C938 C939 1.370 . S
C938 C942 1.524 . S
C939 C931 1.503 . S
C939 C938 1.370 . S
C939 C940 1.403 . S
C940 C939 1.403 . S
C940 C941 1.404 . S
C940 C943 1.539 . S
C941 C937 1.408 . S
C941 C940 1.404 . S
C941 H953 0.930 . S
C942 C938 1.524 . S
C942 H954 0.956 . S
C942 H955 0.961 . S
C942 H956 0.961 . S
C943 C940 1.539 . S
C943 H957 0.958 . S
C943 H958 0.961 . S
C943 H959 0.960 . S
H944 C928 0.931 . S
H945 C933 0.929 . S
H946 C934 0.960 . S
H947 C934 0.962 . S
H948 C934 0.960 . S
H949 C935 0.961 . S
H950 C935 0.961 . S
H951 C935 0.961 . S
H952 C936 0.931 . S
H953 C941 0.930 . S
H954 C942 0.956 . S
H955 C942 0.961 . S
H956 C942 0.961 . S
H957 C943 0.958 . S
H958 C943 0.961 . S
H959 C943 0.960 . S
C960 C961 1.391 . S
C960 C962 1.394 . S
C960 H976 0.931 . S
C961 C960 1.391 . S
C961 C965 1.376 . S
C962 C960 1.394 . S
C962 C963 1.369 . S
C962 C966 1.531 . S
C963 C962 1.369 . S
C963 C964 1.410 . S
C963 C971 1.503 . S
C964 C963 1.410 . S
C964 C965 1.392 . S
C964 C967 1.511 . S
C965 C961 1.376 . S
C965 C964 1.392 . S
C965 H977 0.929 . S
C966 C962 1.531 . S
C966 H978 0.960 . S
C966 H979 0.962 . S
C966 H980 0.960 . S
C967 C964 1.511 . S
C967 H981 0.961 . S
C967 H982 0.961 . S
C967 H983 0.961 . S
C968 C969 1.370 . S
C968 C970 1.363 . S
C968 H984 0.931 . S
C969 C968 1.370 . S
C969 C973 1.408 . S
C970 C968 1.363 . S
C970 C971 1.370 . S
C970 C974 1.524 . S
C971 C963 1.503 . S
C971 C970 1.370 . S
C971 C972 1.403 . S
C972 C971 1.403 . S
C972 C973 1.404 . S
C972 C975 1.539 . S
C973 C969 1.408 . S
C973 C972 1.404 . S
C973 H985 0.930 . S
C974 C970 1.524 . S
C974 H986 0.956 . S
C974 H987 0.961 . S
C974 H988 0.961 . S
C975 C972 1.539 . S
C975 H989 0.958 . S
C975 H990 0.961 . S
C975 H991 0.960 . S
H976 C960 0.931 . S
H977 C965 0.929 . S
H978 C966 0.960 . S
H979 C966 0.962 . S
H980 C966 0.960 . S
H981 C967 0.961 . S
H982 C967 0.961 . S
H983 C967 0.961 . S
H984 C968 0.931 . S
H985 C973 0.930 . S
H986 C974 0.956 . S
H987 C974 0.961 . S
H988 C974 0.961 . S
H989 C975 0.958 . S
H990 C975 0.961 . S
H991 C975 0.960 . S
C992 C993 1.391 . S
C992 C994 1.394 . S
C992 H1008 0.931 . S
C993 C992 1.391 . S
C993 C997 1.376 . S
C994 C992 1.394 . S
C994 C995 1.369 . S
C994 C998 1.531 . S
C995 C994 1.369 . S
C995 C996 1.410 . S
C995 C1003 1.503 . S
C996 C995 1.410 . S
C996 C997 1.392 . S
C996 C999 1.511 . S
C997 C993 1.376 . S
C997 C996 1.392 . S
C997 H1009 0.929 . S
C998 C994 1.531 . S
C998 H1010 0.960 . S
C998 H1011 0.962 . S
C998 H1012 0.960 . S
C999 C996 1.511 . S
C999 H1013 0.961 . S
C999 H1014 0.961 . S
C999 H1015 0.961 . S
C1000 C1001 1.370 . S
C1000 C1002 1.363 . S
C1000 H1016 0.931 . S
C1001 C1000 1.370 . S
C1001 C1005 1.408 . S
C1002 C1000 1.363 . S
C1002 C1003 1.370 . S
C1002 C1006 1.524 . S
C1003 C995 1.503 . S
C1003 C1002 1.370 . S
C1003 C1004 1.403 . S
C1004 C1003 1.403 . S
C1004 C1005 1.404 . S
C1004 C1007 1.539 . S
C1005 C1001 1.408 . S
C1005 C1004 1.404 . S
C1005 H1017 0.930 . S
C1006 C1002 1.524 . S
C1006 H1018 0.956 . S
C1006 H1019 0.961 . S
C1006 H1020 0.961 . S
C1007 C1004 1.539 . S
C1007 H1021 0.958 . S
C1007 H1022 0.961 . S
C1007 H1023 0.960 . S
H1008 C992 0.931 . S
H1009 C997 0.929 . S
H1010 C998 0.960 . S
H1011 C998 0.962 . S
H1012 C998 0.960 . S
H1013 C999 0.961 . S
H1014 C999 0.961 . S
H1015 C999 0.961 . S
H1016 C1000 0.931 . S
H1017 C1005 0.930 . S
H1018 C1006 0.956 . S
H1019 C1006 0.961 . S
H1020 C1006 0.961 . S
H1021 C1007 0.958 . S
H1022 C1007 0.961 . S
H1023 C1007 0.960 . S
C1024 C1025 1.391 . S
C1024 C1026 1.394 . S
C1024 H1040 0.931 . S
C1025 C1024 1.391 . S
C1025 C1029 1.376 . S
C1026 C1024 1.394 . S
C1026 C1027 1.369 . S
C1026 C1030 1.531 . S
C1027 C1026 1.369 . S
C1027 C1028 1.410 . S
C1027 C1035 1.503 . S
C1028 C1027 1.410 . S
C1028 C1029 1.392 . S
C1028 C1031 1.511 . S
C1029 C1025 1.376 . S
C1029 C1028 1.392 . S
C1029 H1041 0.929 . S
C1030 C1026 1.531 . S
C1030 H1042 0.960 . S
C1030 H1043 0.962 . S
C1030 H1044 0.960 . S
C1031 C1028 1.511 . S
C1031 H1045 0.961 . S
C1031 H1046 0.961 . S
C1031 H1047 0.961 . S
C1032 C1033 1.370 . S
C1032 C1034 1.363 . S
C1032 H1048 0.931 . S
C1033 C1032 1.370 . S
C1033 C1037 1.408 . S
C1034 C1032 1.363 . S
C1034 C1035 1.370 . S
C1034 C1038 1.524 . S
C1035 C1027 1.503 . S
C1035 C1034 1.370 . S
C1035 C1036 1.403 . S
C1036 C1035 1.403 . S
C1036 C1037 1.404 . S
C1036 C1039 1.539 . S
C1037 C1033 1.408 . S
C1037 C1036 1.404 . S
C1037 H1049 0.930 . S
C1038 C1034 1.524 . S
C1038 H1050 0.956 . S
C1038 H1051 0.961 . S
C1038 H1052 0.961 . S
C1039 C1036 1.539 . S
C1039 H1053 0.958 . S
C1039 H1054 0.961 . S
C1039 H1055 0.960 . S
H1040 C1024 0.931 . S
H1041 C1029 0.929 . S
H1042 C1030 0.960 . S
H1043 C1030 0.962 . S
H1044 C1030 0.960 . S
H1045 C1031 0.961 . S
H1046 C1031 0.961 . S
H1047 C1031 0.961 . S
H1048 C1032 0.931 . S
H1049 C1037 0.930 . S
H1050 C1038 0.956 . S
H1051 C1038 0.961 . S
H1052 C1038 0.961 . S
H1053 C1039 0.958 . S
H1054 C1039 0.961 . S
H1055 C1039 0.960 . S
C1056 C1057 1.391 . S
C1056 C1058 1.394 . S
C1056 H1072 0.931 . S
C1057 C1056 1.391 . S
C1057 C1061 1.376 . S
C1058 C1056 1.394 . S
C1058 C1059 1.369 . S
C1058 C1062 1.531 . S
C1059 C1058 1.369 . S
C1059 C1060 1.410 . S
C1059 C1067 1.503 . S
C1060 C1059 1.410 . S
C1060 C1061 1.392 . S
C1060 C1063 1.511 . S
C1061 C1057 1.376 . S
C1061 C1060 1.392 . S
C1061 H1073 0.929 . S
C1062 C1058 1.531 . S
C1062 H1074 0.960 . S
C1062 H1075 0.962 . S
C1062 H1076 0.960 . S
C1063 C1060 1.511 . S
C1063 H1077 0.961 . S
C1063 H1078 0.961 . S
C1063 H1079 0.961 . S
C1064 C1065 1.370 . S
C1064 C1066 1.363 . S
C1064 H1080 0.931 . S
C1065 C1064 1.370 . S
C1065 C1069 1.408 . S
C1066 C1064 1.363 . S
C1066 C1067 1.370 . S
C1066 C1070 1.524 . S
C1067 C1059 1.503 . S
C1067 C1066 1.370 . S
C1067 C1068 1.403 . S
C1068 C1067 1.403 . S
C1068 C1069 1.404 . S
C1068 C1071 1.539 . S
C1069 C1065 1.408 . S
C1069 C1068 1.404 . S
C1069 H1081 0.930 . S
C1070 C1066 1.524 . S
C1070 H1082 0.956 . S
C1070 H1083 0.961 . S
C1070 H1084 0.961 . S
C1071 C1068 1.539 . S
C1071 H1085 0.958 . S
C1071 H1086 0.961 . S
C1071 H1087 0.960 . S
H1072 C1056 0.931 . S
H1073 C1061 0.929 . S
H1074 C1062 0.960 . S
H1075 C1062 0.962 . S
H1076 C1062 0.960 . S
H1077 C1063 0.961 . S
H1078 C1063 0.961 . S
H1079 C1063 0.961 . S
H1080 C1064 0.931 . S
H1081 C1069 0.930 . S
H1082 C1070 0.956 . S
H1083 C1070 0.961 . S
H1084 C1070 0.961 . S
H1085 C1071 0.958 . S
H1086 C1071 0.961 . S
H1087 C1071 0.960 . S
C1088 C1089 1.391 . S
C1088 C1090 1.394 . S
C1088 H1104 0.931 . S
C1089 C1088 1.391 . S
C1089 C1093 1.376 . S
C1090 C1088 1.394 . S
C1090 C1091 1.369 . S
C1090 C1094 1.531 . S
C1091 C1090 1.369 . S
C1091 C1092 1.410 . S
C1091 C1099 1.503 . S
C1092 C1091 1.410 . S
C1092 C1093 1.392 . S
C1092 C1095 1.511 . S
C1093 C1089 1.376 . S
C1093 C1092 1.392 . S
C1093 H1105 0.929 . S
C1094 C1090 1.531 . S
C1094 H1106 0.960 . S
C1094 H1107 0.962 . S
C1094 H1108 0.960 . S
C1095 C1092 1.511 . S
C1095 H1109 0.961 . S
C1095 H1110 0.961 . S
C1095 H1111 0.961 . S
C1096 C1097 1.370 . S
C1096 C1098 1.363 . S
C1096 H1112 0.931 . S
C1097 C1096 1.370 . S
C1097 C1101 1.408 . S
C1098 C1096 1.363 . S
C1098 C1099 1.370 . S
C1098 C1102 1.524 . S
C1099 C1091 1.503 . S
C1099 C1098 1.370 . S
C1099 C1100 1.403 . S
C1100 C1099 1.403 . S
C1100 C1101 1.404 . S
C1100 C1103 1.539 . S
C1101 C1097 1.408 . S
C1101 C1100 1.404 . S
C1101 H1113 0.930 . S
C1102 C1098 1.524 . S
C1102 H1114 0.956 . S
C1102 H1115 0.961 . S
C1102 H1116 0.961 . S
C1103 C1100 1.539 . S
C1103 H1117 0.958 . S
C1103 H1118 0.961 . S
C1103 H1119 0.960 . S
H1104 C1088 0.931 . S
H1105 C1093 0.929 . S
H1106 C1094 0.960 . S
H1107 C1094 0.962 . S
H1108 C1094 0.960 . S
H1109 C1095 0.961 . S
H1110 C1095 0.961 . S
H1111 C1095 0.961 . S
H1112 C1096 0.931 . S
H1113 C1101 0.930 . S
H1114 C1102 0.956 . S
H1115 C1102 0.961 . S
H1116 C1102 0.961 . S
H1117 C1103 0.958 . S
H1118 C1103 0.961 . S
H1119 C1103 0.960 . S
C1120 C1121 1.391 . S
C1120 C1122 1.394 . S
C1120 H1136 0.931 . S
C1121 C1120 1.391 . S
C1121 C1125 1.376 . S
C1122 C1120 1.394 . S
C1122 C1123 1.369 . S
C1122 C1126 1.531 . S
C1123 C1122 1.369 . S
C1123 C1124 1.410 . S
C1123 C1131 1.503 . S
C1124 C1123 1.410 . S
C1124 C1125 1.392 . S
C1124 C1127 1.511 . S
C1125 C1121 1.376 . S
C1125 C1124 1.392 . S
C1125 H1137 0.929 . S
C1126 C1122 1.531 . S
C1126 H1138 0.960 . S
C1126 H1139 0.962 . S
C1126 H1140 0.960 . S
C1127 C1124 1.511 . S
C1127 H1141 0.961 . S
C1127 H1142 0.961 . S
C1127 H1143 0.961 . S
C1128 C1129 1.370 . S
C1128 C1130 1.363 . S
C1128 H1144 0.931 . S
C1129 C1128 1.370 . S
C1129 C1133 1.408 . S
C1130 C1128 1.363 . S
C1130 C1131 1.370 . S
C1130 C1134 1.524 . S
C1131 C1123 1.503 . S
C1131 C1130 1.370 . S
C1131 C1132 1.403 . S
C1132 C1131 1.403 . S
C1132 C1133 1.404 . S
C1132 C1135 1.539 . S
C1133 C1129 1.408 . S
C1133 C1132 1.404 . S
C1133 H1145 0.930 . S
C1134 C1130 1.524 . S
C1134 H1146 0.956 . S
C1134 H1147 0.961 . S
C1134 H1148 0.961 . S
C1135 C1132 1.539 . S
C1135 H1149 0.958 . S
C1135 H1150 0.961 . S
C1135 H1151 0.960 . S
H1136 C1120 0.931 . S
H1137 C1125 0.929 . S
H1138 C1126 0.960 . S
H1139 C1126 0.962 . S
H1140 C1126 0.960 . S
H1141 C1127 0.961 . S
H1142 C1127 0.961 . S
H1143 C1127 0.961 . S
H1144 C1128 0.931 . S
H1145 C1133 0.930 . S
H1146 C1134 0.956 . S
H1147 C1134 0.961 . S
H1148 C1134 0.961 . S
H1149 C1135 0.958 . S
H1150 C1135 0.961 . S
H1151 C1135 0.960 . S
C1152 C1153 1.391 . S
C1152 C1154 1.394 . S
C1152 H1168 0.931 . S
C1153 C1152 1.391 . S
C1153 C1157 1.376 . S
C1154 C1152 1.394 . S
C1154 C1155 1.369 . S
C1154 C1158 1.531 . S
C1155 C1154 1.369 . S
C1155 C1156 1.410 . S
C1155 C1163 1.503 . S
C1156 C1155 1.410 . S
C1156 C1157 1.392 . S
C1156 C1159 1.511 . S
C1157 C1153 1.376 . S
C1157 C1156 1.392 . S
C1157 H1169 0.929 . S
C1158 C1154 1.531 . S
C1158 H1170 0.960 . S
C1158 H1171 0.962 . S
C1158 H1172 0.960 . S
C1159 C1156 1.511 . S
C1159 H1173 0.961 . S
C1159 H1174 0.961 . S
C1159 H1175 0.961 . S
C1160 C1161 1.370 . S
C1160 C1162 1.363 . S
C1160 H1176 0.931 . S
C1161 C1160 1.370 . S
C1161 C1165 1.408 . S
C1162 C1160 1.363 . S
C1162 C1163 1.370 . S
C1162 C1166 1.524 . S
C1163 C1155 1.503 . S
C1163 C1162 1.370 . S
C1163 C1164 1.403 . S
C1164 C1163 1.403 . S
C1164 C1165 1.404 . S
C1164 C1167 1.539 . S
C1165 C1161 1.408 . S
C1165 C1164 1.404 . S
C1165 H1177 0.930 . S
C1166 C1162 1.524 . S
C1166 H1178 0.956 . S
C1166 H1179 0.961 . S
C1166 H1180 0.961 . S
C1167 C1164 1.539 . S
C1167 H1181 0.958 . S
C1167 H1182 0.961 . S
C1167 H1183 0.960 . S
H1168 C1152 0.931 . S
H1169 C1157 0.929 . S
H1170 C1158 0.960 . S
H1171 C1158 0.962 . S
H1172 C1158 0.960 . S
H1173 C1159 0.961 . S
H1174 C1159 0.961 . S
H1175 C1159 0.961 . S
H1176 C1160 0.931 . S
H1177 C1165 0.930 . S
H1178 C1166 0.956 . S
H1179 C1166 0.961 . S
H1180 C1166 0.961 . S
H1181 C1167 0.958 . S
H1182 C1167 0.961 . S
H1183 C1167 0.960 . S
C1184 C1185 1.391 . S
C1184 C1186 1.394 . S
C1184 H1200 0.931 . S
C1185 C1184 1.391 . S
C1185 C1189 1.376 . S
C1186 C1184 1.394 . S
C1186 C1187 1.369 . S
C1186 C1190 1.531 . S
C1187 C1186 1.369 . S
C1187 C1188 1.410 . S
C1187 C1195 1.503 . S
C1188 C1187 1.410 . S
C1188 C1189 1.392 . S
C1188 C1191 1.511 . S
C1189 C1185 1.376 . S
C1189 C1188 1.392 . S
C1189 H1201 0.929 . S
C1190 C1186 1.531 . S
C1190 H1202 0.960 . S
C1190 H1203 0.962 . S
C1190 H1204 0.960 . S
C1191 C1188 1.511 . S
C1191 H1205 0.961 . S
C1191 H1206 0.961 . S
C1191 H1207 0.961 . S
C1192 C1193 1.370 . S
C1192 C1194 1.363 . S
C1192 H1208 0.931 . S
C1193 C1192 1.370 . S
C1193 C1197 1.408 . S
C1194 C1192 1.363 . S
C1194 C1195 1.370 . S
C1194 C1198 1.524 . S
C1195 C1187 1.503 . S
C1195 C1194 1.370 . S
C1195 C1196 1.403 . S
C1196 C1195 1.403 . S
C1196 C1197 1.404 . S
C1196 C1199 1.539 1_565 S
C1197 C1193 1.408 . S
C1197 C1196 1.404 . S
C1197 H1209 0.930 1_565 S
C1198 C1194 1.524 . S
C1198 H1210 0.956 . S
C1198 H1211 0.961 . S
C1198 H1212 0.961 . S
C1199 C1196 1.539 1_545 S
C1199 H1213 0.958 1_545 S
C1199 H1214 0.961 . S
C1199 H1215 0.960 1_545 S
H1200 C1184 0.931 . S
H1201 C1189 0.929 . S
H1202 C1190 0.960 . S
H1203 C1190 0.962 . S
H1204 C1190 0.960 . S
H1205 C1191 0.961 . S
H1206 C1191 0.961 . S
H1207 C1191 0.961 . S
H1208 C1192 0.931 . S
H1209 C1197 0.930 1_545 S
H1210 C1198 0.956 . S
H1211 C1198 0.961 . S
H1212 C1198 0.961 . S
H1213 C1199 0.958 1_565 S
H1214 C1199 0.961 . S
H1215 C1199 0.960 1_565 S
C1216 C1217 1.391 . S
C1216 C1218 1.394 . S
C1216 H1232 0.931 . S
C1217 C1216 1.391 . S
C1217 C1221 1.376 . S
C1218 C1216 1.394 . S
C1218 C1219 1.369 . S
C1218 C1222 1.531 . S
C1219 C1218 1.369 . S
C1219 C1220 1.410 . S
C1219 C1227 1.503 . S
C1220 C1219 1.410 . S
C1220 C1221 1.392 . S
C1220 C1223 1.511 . S
C1221 C1217 1.376 . S
C1221 C1220 1.392 . S
C1221 H1233 0.929 . S
C1222 C1218 1.531 . S
C1222 H1234 0.960 . S
C1222 H1235 0.962 . S
C1222 H1236 0.960 . S
C1223 C1220 1.511 . S
C1223 H1237 0.961 . S
C1223 H1238 0.961 . S
C1223 H1239 0.961 . S
C1224 C1225 1.370 . S
C1224 C1226 1.363 . S
C1224 H1240 0.931 . S
C1225 C1224 1.370 . S
C1225 C1229 1.408 . S
C1226 C1224 1.363 . S
C1226 C1227 1.370 . S
C1226 C1230 1.524 . S
C1227 C1219 1.503 . S
C1227 C1226 1.370 . S
C1227 C1228 1.403 . S
C1228 C1227 1.403 . S
C1228 C1229 1.404 . S
C1228 C1231 1.539 . S
C1229 C1225 1.408 . S
C1229 C1228 1.404 . S
C1229 H1241 0.930 . S
C1230 C1226 1.524 . S
C1230 H1242 0.956 . S
C1230 H1243 0.961 . S
C1230 H1244 0.961 . S
C1231 C1228 1.539 . S
C1231 H1245 0.958 . S
C1231 H1246 0.961 . S
C1231 H1247 0.960 . S
H1232 C1216 0.931 . S
H1233 C1221 0.929 . S
H1234 C1222 0.960 . S
H1235 C1222 0.962 . S
H1236 C1222 0.960 . S
H1237 C1223 0.961 . S
H1238 C1223 0.961 . S
H1239 C1223 0.961 . S
H1240 C1224 0.931 . S
H1241 C1229 0.930 . S
H1242 C1230 0.956 . S
H1243 C1230 0.961 . S
H1244 C1230 0.961 . S
H1245 C1231 0.958 . S
H1246 C1231 0.961 . S
H1247 C1231 0.960 . S
C1248 C1249 1.391 . S
C1248 C1250 1.394 . S
C1248 H1264 0.931 . S
C1249 C1248 1.391 . S
C1249 C1253 1.376 . S
C1250 C1248 1.394 . S
C1250 C1251 1.369 . S
C1250 C1254 1.531 . S
C1251 C1250 1.369 . S
C1251 C1252 1.410 . S
C1251 C1259 1.503 . S
C1252 C1251 1.410 . S
C1252 C1253 1.392 . S
C1252 C1255 1.511 . S
C1253 C1249 1.376 . S
C1253 C1252 1.392 . S
C1253 H1265 0.929 . S
C1254 C1250 1.531 . S
C1254 H1266 0.960 . S
C1254 H1267 0.962 . S
C1254 H1268 0.960 . S
C1255 C1252 1.511 . S
C1255 H1269 0.961 . S
C1255 H1270 0.961 . S
C1255 H1271 0.961 . S
C1256 C1257 1.370 . S
C1256 C1258 1.363 . S
C1256 H1272 0.931 . S
C1257 C1256 1.370 . S
C1257 C1261 1.408 . S
C1258 C1256 1.363 . S
C1258 C1259 1.370 . S
C1258 C1262 1.524 . S
C1259 C1251 1.503 . S
C1259 C1258 1.370 . S
C1259 C1260 1.403 . S
C1260 C1259 1.403 . S
C1260 C1261 1.404 . S
C1260 C1263 1.539 . S
C1261 C1257 1.408 . S
C1261 C1260 1.404 . S
C1261 H1273 0.930 . S
C1262 C1258 1.524 . S
C1262 H1274 0.956 . S
C1262 H1275 0.961 . S
C1262 H1276 0.961 . S
C1263 C1260 1.539 . S
C1263 H1277 0.958 . S
C1263 H1278 0.961 . S
C1263 H1279 0.960 . S
H1264 C1248 0.931 . S
H1265 C1253 0.929 . S
H1266 C1254 0.960 . S
H1267 C1254 0.962 . S
H1268 C1254 0.960 . S
H1269 C1255 0.961 . S
H1270 C1255 0.961 . S
H1271 C1255 0.961 . S
H1272 C1256 0.931 . S
H1273 C1261 0.930 . S
H1274 C1262 0.956 . S
H1275 C1262 0.961 . S
H1276 C1262 0.961 . S
H1277 C1263 0.958 . S
H1278 C1263 0.961 . S
H1279 C1263 0.960 . S
C1280 C1281 1.391 . S
C1280 C1282 1.394 . S
C1280 H1296 0.931 . S
C1281 C1280 1.391 . S
C1281 C1285 1.376 . S
C1282 C1280 1.394 . S
C1282 C1283 1.369 . S
C1282 C1286 1.531 . S
C1283 C1282 1.369 . S
C1283 C1284 1.410 . S
C1283 C1291 1.503 . S
C1284 C1283 1.410 . S
C1284 C1285 1.392 . S
C1284 C1287 1.511 . S
C1285 C1281 1.376 . S
C1285 C1284 1.392 . S
C1285 H1297 0.929 . S
C1286 C1282 1.531 . S
C1286 H1298 0.960 . S
C1286 H1299 0.962 . S
C1286 H1300 0.960 . S
C1287 C1284 1.511 . S
C1287 H1301 0.961 . S
C1287 H1302 0.961 . S
C1287 H1303 0.961 . S
C1288 C1289 1.370 . S
C1288 C1290 1.363 . S
C1288 H1304 0.931 . S
C1289 C1288 1.370 . S
C1289 C1293 1.408 . S
C1290 C1288 1.363 . S
C1290 C1291 1.370 . S
C1290 C1294 1.524 . S
C1291 C1283 1.503 . S
C1291 C1290 1.370 . S
C1291 C1292 1.403 . S
C1292 C1291 1.403 . S
C1292 C1293 1.404 . S
C1292 C1295 1.539 . S
C1293 C1289 1.408 . S
C1293 C1292 1.404 . S
C1293 H1305 0.930 1_556 S
C1294 C1290 1.524 . S
C1294 H1306 0.956 . S
C1294 H1307 0.961 . S
C1294 H1308 0.961 . S
C1295 C1292 1.539 . S
C1295 H1309 0.958 1_556 S
C1295 H1310 0.961 1_556 S
C1295 H1311 0.960 . S
H1296 C1280 0.931 . S
H1297 C1285 0.929 . S
H1298 C1286 0.960 . S
H1299 C1286 0.962 . S
H1300 C1286 0.960 . S
H1301 C1287 0.961 . S
H1302 C1287 0.961 . S
H1303 C1287 0.961 . S
H1304 C1288 0.931 . S
H1305 C1293 0.930 1_554 S
H1306 C1294 0.956 . S
H1307 C1294 0.961 . S
H1308 C1294 0.961 . S
H1309 C1295 0.958 1_554 S
H1310 C1295 0.961 1_554 S
H1311 C1295 0.960 . S
C1312 C1313 1.391 . S
C1312 C1314 1.394 . S
C1312 H1328 0.931 . S
C1313 C1312 1.391 . S
C1313 C1317 1.376 . S
C1314 C1312 1.394 . S
C1314 C1315 1.369 . S
C1314 C1318 1.531 . S
C1315 C1314 1.369 . S
C1315 C1316 1.410 . S
C1315 C1323 1.503 . S
C1316 C1315 1.410 . S
C1316 C1317 1.392 . S
C1316 C1319 1.511 . S
C1317 C1313 1.376 . S
C1317 C1316 1.392 . S
C1317 H1329 0.929 . S
C1318 C1314 1.531 . S
C1318 H1330 0.960 . S
C1318 H1331 0.962 . S
C1318 H1332 0.960 . S
C1319 C1316 1.511 . S
C1319 H1333 0.961 . S
C1319 H1334 0.961 . S
C1319 H1335 0.961 . S
C1320 C1321 1.370 . S
C1320 C1322 1.363 . S
C1320 H1336 0.931 . S
C1321 C1320 1.370 . S
C1321 C1325 1.408 . S
C1322 C1320 1.363 . S
C1322 C1323 1.370 . S
C1322 C1326 1.524 . S
C1323 C1315 1.503 . S
C1323 C1322 1.370 . S
C1323 C1324 1.403 . S
C1324 C1323 1.403 . S
C1324 C1325 1.404 . S
C1324 C1327 1.539 . S
C1325 C1321 1.408 . S
C1325 C1324 1.404 . S
C1325 H1337 0.930 . S
C1326 C1322 1.524 . S
C1326 H1338 0.956 . S
C1326 H1339 0.961 . S
C1326 H1340 0.961 . S
C1327 C1324 1.539 . S
C1327 H1341 0.958 . S
C1327 H1342 0.961 . S
C1327 H1343 0.960 . S
H1328 C1312 0.931 . S
H1329 C1317 0.929 . S
H1330 C1318 0.960 . S
H1331 C1318 0.962 . S
H1332 C1318 0.960 . S
H1333 C1319 0.961 . S
H1334 C1319 0.961 . S
H1335 C1319 0.961 . S
H1336 C1320 0.931 . S
H1337 C1325 0.930 . S
H1338 C1326 0.956 . S
H1339 C1326 0.961 . S
H1340 C1326 0.961 . S
H1341 C1327 0.958 . S
H1342 C1327 0.961 . S
H1343 C1327 0.960 . S
C1344 C1345 1.391 . S
C1344 C1346 1.394 . S
C1344 H1360 0.931 . S
C1345 C1344 1.391 . S
C1345 C1349 1.376 . S
C1346 C1344 1.394 . S
C1346 C1347 1.369 . S
C1346 C1350 1.531 . S
C1347 C1346 1.369 . S
C1347 C1348 1.410 . S
C1347 C1355 1.503 . S
C1348 C1347 1.410 . S
C1348 C1349 1.392 . S
C1348 C1351 1.511 . S
C1349 C1345 1.376 . S
C1349 C1348 1.392 . S
C1349 H1361 0.929 . S
C1350 C1346 1.531 . S
C1350 H1362 0.960 . S
C1350 H1363 0.962 . S
C1350 H1364 0.960 . S
C1351 C1348 1.511 . S
C1351 H1365 0.961 . S
C1351 H1366 0.961 . S
C1351 H1367 0.961 . S
C1352 C1353 1.370 . S
C1352 C1354 1.363 . S
C1352 H1368 0.931 . S
C1353 C1352 1.370 . S
C1353 C1357 1.408 . S
C1354 C1352 1.363 . S
C1354 C1355 1.370 . S
C1354 C1358 1.524 . S
C1355 C1347 1.503 . S
C1355 C1354 1.370 . S
C1355 C1356 1.403 . S
C1356 C1355 1.403 . S
C1356 C1357 1.404 . S
C1356 C1359 1.539 . S
C1357 C1353 1.408 . S
C1357 C1356 1.404 . S
C1357 H1369 0.930 . S
C1358 C1354 1.524 . S
C1358 H1370 0.956 . S
C1358 H1371 0.961 . S
C1358 H1372 0.961 . S
C1359 C1356 1.539 . S
C1359 H1373 0.958 . S
C1359 H1374 0.961 . S
C1359 H1375 0.960 . S
H1360 C1344 0.931 . S
H1361 C1349 0.929 . S
H1362 C1350 0.960 . S
H1363 C1350 0.962 . S
H1364 C1350 0.960 . S
H1365 C1351 0.961 . S
H1366 C1351 0.961 . S
H1367 C1351 0.961 . S
H1368 C1352 0.931 . S
H1369 C1357 0.930 . S
H1370 C1358 0.956 . S
H1371 C1358 0.961 . S
H1372 C1358 0.961 . S
H1373 C1359 0.958 . S
H1374 C1359 0.961 . S
H1375 C1359 0.960 . S
C1376 C1377 1.391 . S
C1376 C1378 1.394 . S
C1376 H1392 0.931 . S
C1377 C1376 1.391 . S
C1377 C1381 1.376 . S
C1378 C1376 1.394 . S
C1378 C1379 1.369 . S
C1378 C1382 1.531 . S
C1379 C1378 1.369 . S
C1379 C1380 1.410 . S
C1379 C1387 1.503 . S
C1380 C1379 1.410 . S
C1380 C1381 1.392 . S
C1380 C1383 1.511 . S
C1381 C1377 1.376 . S
C1381 C1380 1.392 . S
C1381 H1393 0.929 . S
C1382 C1378 1.531 . S
C1382 H1394 0.960 . S
C1382 H1395 0.962 . S
C1382 H1396 0.960 . S
C1383 C1380 1.511 . S
C1383 H1397 0.961 . S
C1383 H1398 0.961 . S
C1383 H1399 0.961 . S
C1384 C1385 1.370 . S
C1384 C1386 1.363 . S
C1384 H1400 0.931 . S
C1385 C1384 1.370 . S
C1385 C1389 1.408 . S
C1386 C1384 1.363 . S
C1386 C1387 1.370 . S
C1386 C1390 1.524 . S
C1387 C1379 1.503 . S
C1387 C1386 1.370 . S
C1387 C1388 1.403 . S
C1388 C1387 1.403 . S
C1388 C1389 1.404 . S
C1388 C1391 1.539 . S
C1389 C1385 1.408 . S
C1389 C1388 1.404 . S
C1389 H1401 0.930 . S
C1390 C1386 1.524 . S
C1390 H1402 0.956 . S
C1390 H1403 0.961 . S
C1390 H1404 0.961 . S
C1391 C1388 1.539 . S
C1391 H1405 0.958 . S
C1391 H1406 0.961 . S
C1391 H1407 0.960 . S
H1392 C1376 0.931 . S
H1393 C1381 0.929 . S
H1394 C1382 0.960 . S
H1395 C1382 0.962 . S
H1396 C1382 0.960 . S
H1397 C1383 0.961 . S
H1398 C1383 0.961 . S
H1399 C1383 0.961 . S
H1400 C1384 0.931 . S
H1401 C1389 0.930 . S
H1402 C1390 0.956 . S
H1403 C1390 0.961 . S
H1404 C1390 0.961 . S
H1405 C1391 0.958 . S
H1406 C1391 0.961 . S
H1407 C1391 0.960 . S
C1408 C1409 1.391 . S
C1408 C1410 1.394 . S
C1408 H1424 0.931 . S
C1409 C1408 1.391 . S
C1409 C1413 1.376 . S
C1410 C1408 1.394 . S
C1410 C1411 1.369 . S
C1410 C1414 1.531 . S
C1411 C1410 1.369 . S
C1411 C1412 1.410 . S
C1411 C1419 1.503 . S
C1412 C1411 1.410 . S
C1412 C1413 1.392 . S
C1412 C1415 1.511 . S
C1413 C1409 1.376 . S
C1413 C1412 1.392 . S
C1413 H1425 0.929 . S
C1414 C1410 1.531 . S
C1414 H1426 0.960 . S
C1414 H1427 0.962 . S
C1414 H1428 0.960 . S
C1415 C1412 1.511 . S
C1415 H1429 0.961 . S
C1415 H1430 0.961 . S
C1415 H1431 0.961 . S
C1416 C1417 1.370 . S
C1416 C1418 1.363 . S
C1416 H1432 0.931 . S
C1417 C1416 1.370 . S
C1417 C1421 1.408 . S
C1418 C1416 1.363 . S
C1418 C1419 1.370 . S
C1418 C1422 1.524 . S
C1419 C1411 1.503 . S
C1419 C1418 1.370 . S
C1419 C1420 1.403 . S
C1420 C1419 1.403 . S
C1420 C1421 1.404 . S
C1420 C1423 1.539 . S
C1421 C1417 1.408 . S
C1421 C1420 1.404 . S
C1421 H1433 0.930 . S
C1422 C1418 1.524 . S
C1422 H1434 0.956 . S
C1422 H1435 0.961 . S
C1422 H1436 0.961 . S
C1423 C1420 1.539 . S
C1423 H1437 0.958 . S
C1423 H1438 0.961 . S
C1423 H1439 0.960 . S
H1424 C1408 0.931 . S
H1425 C1413 0.929 . S
H1426 C1414 0.960 . S
H1427 C1414 0.962 . S
H1428 C1414 0.960 . S
H1429 C1415 0.961 . S
H1430 C1415 0.961 . S
H1431 C1415 0.961 . S
H1432 C1416 0.931 . S
H1433 C1421 0.930 . S
H1434 C1422 0.956 . S
H1435 C1422 0.961 . S
H1436 C1422 0.961 . S
H1437 C1423 0.958 . S
H1438 C1423 0.961 . S
H1439 C1423 0.960 . S
C1440 C1441 1.391 . S
C1440 C1442 1.394 . S
C1440 H1456 0.931 . S
C1441 C1440 1.391 . S
C1441 C1445 1.376 . S
C1442 C1440 1.394 . S
C1442 C1443 1.369 . S
C1442 C1446 1.531 . S
C1443 C1442 1.369 . S
C1443 C1444 1.410 . S
C1443 C1451 1.503 . S
C1444 C1443 1.410 . S
C1444 C1445 1.392 . S
C1444 C1447 1.511 . S
C1445 C1441 1.376 . S
C1445 C1444 1.392 . S
C1445 H1457 0.929 . S
C1446 C1442 1.531 . S
C1446 H1458 0.960 . S
C1446 H1459 0.962 . S
C1446 H1460 0.960 . S
C1447 C1444 1.511 . S
C1447 H1461 0.961 . S
C1447 H1462 0.961 . S
C1447 H1463 0.961 . S
C1448 C1449 1.370 . S
C1448 C1450 1.363 . S
C1448 H1464 0.931 . S
C1449 C1448 1.370 . S
C1449 C1453 1.408 . S
C1450 C1448 1.363 . S
C1450 C1451 1.370 . S
C1450 C1454 1.524 . S
C1451 C1443 1.503 . S
C1451 C1450 1.370 . S
C1451 C1452 1.403 . S
C1452 C1451 1.403 . S
C1452 C1453 1.404 . S
C1452 C1455 1.539 . S
C1453 C1449 1.408 . S
C1453 C1452 1.404 . S
C1453 H1465 0.930 . S
C1454 C1450 1.524 . S
C1454 H1466 0.956 . S
C1454 H1467 0.961 . S
C1454 H1468 0.961 . S
C1455 C1452 1.539 . S
C1455 H1469 0.958 . S
C1455 H1470 0.961 . S
C1455 H1471 0.960 . S
H1456 C1440 0.931 . S
H1457 C1445 0.929 . S
H1458 C1446 0.960 . S
H1459 C1446 0.962 . S
H1460 C1446 0.960 . S
H1461 C1447 0.961 . S
H1462 C1447 0.961 . S
H1463 C1447 0.961 . S
H1464 C1448 0.931 . S
H1465 C1453 0.930 . S
H1466 C1454 0.956 . S
H1467 C1454 0.961 . S
H1468 C1454 0.961 . S
H1469 C1455 0.958 . S
H1470 C1455 0.961 . S
H1471 C1455 0.960 . S
C1472 C1473 1.391 . S
C1472 C1474 1.394 . S
C1472 H1488 0.931 . S
C1473 C1472 1.391 . S
C1473 C1477 1.376 . S
C1474 C1472 1.394 . S
C1474 C1475 1.369 . S
C1474 C1478 1.531 . S
C1475 C1474 1.369 . S
C1475 C1476 1.410 . S
C1475 C1483 1.503 . S
C1476 C1475 1.410 . S
C1476 C1477 1.392 . S
C1476 C1479 1.511 . S
C1477 C1473 1.376 . S
C1477 C1476 1.392 . S
C1477 H1489 0.929 . S
C1478 C1474 1.531 . S
C1478 H1490 0.960 . S
C1478 H1491 0.962 . S
C1478 H1492 0.960 . S
C1479 C1476 1.511 . S
C1479 H1493 0.961 . S
C1479 H1494 0.961 . S
C1479 H1495 0.961 . S
C1480 C1481 1.370 . S
C1480 C1482 1.363 . S
C1480 H1496 0.931 . S
C1481 C1480 1.370 . S
C1481 C1485 1.408 . S
C1482 C1480 1.363 . S
C1482 C1483 1.370 . S
C1482 C1486 1.524 . S
C1483 C1475 1.503 . S
C1483 C1482 1.370 . S
C1483 C1484 1.403 . S
C1484 C1483 1.403 . S
C1484 C1485 1.404 . S
C1484 C1487 1.539 . S
C1485 C1481 1.408 . S
C1485 C1484 1.404 . S
C1485 H1497 0.930 . S
C1486 C1482 1.524 . S
C1486 H1498 0.956 . S
C1486 H1499 0.961 . S
C1486 H1500 0.961 . S
C1487 C1484 1.539 . S
C1487 H1501 0.958 . S
C1487 H1502 0.961 . S
C1487 H1503 0.960 . S
H1488 C1472 0.931 . S
H1489 C1477 0.929 . S
H1490 C1478 0.960 . S
H1491 C1478 0.962 . S
H1492 C1478 0.960 . S
H1493 C1479 0.961 . S
H1494 C1479 0.961 . S
H1495 C1479 0.961 . S
H1496 C1480 0.931 . S
H1497 C1485 0.930 . S
H1498 C1486 0.956 . S
H1499 C1486 0.961 . S
H1500 C1486 0.961 . S
H1501 C1487 0.958 . S
H1502 C1487 0.961 . S
H1503 C1487 0.960 . S
C1504 C1505 1.391 . S
C1504 C1506 1.394 . S
C1504 H1520 0.931 . S
C1505 C1504 1.391 . S
C1505 C1509 1.376 . S
C1506 C1504 1.394 . S
C1506 C1507 1.369 . S
C1506 C1510 1.531 . S
C1507 C1506 1.369 . S
C1507 C1508 1.410 . S
C1507 C1515 1.503 . S
C1508 C1507 1.410 . S
C1508 C1509 1.392 . S
C1508 C1511 1.511 . S
C1509 C1505 1.376 . S
C1509 C1508 1.392 . S
C1509 H1521 0.929 . S
C1510 C1506 1.531 . S
C1510 H1522 0.960 . S
C1510 H1523 0.962 . S
C1510 H1524 0.960 . S
C1511 C1508 1.511 . S
C1511 H1525 0.961 . S
C1511 H1526 0.961 . S
C1511 H1527 0.961 . S
C1512 C1513 1.370 . S
C1512 C1514 1.363 . S
C1512 H1528 0.931 . S
C1513 C1512 1.370 . S
C1513 C1517 1.408 . S
C1514 C1512 1.363 . S
C1514 C1515 1.370 . S
C1514 C1518 1.524 . S
C1515 C1507 1.503 . S
C1515 C1514 1.370 . S
C1515 C1516 1.403 . S
C1516 C1515 1.403 . S
C1516 C1517 1.404 . S
C1516 C1519 1.539 . S
C1517 C1513 1.408 . S
C1517 C1516 1.404 . S
C1517 H1529 0.930 . S
C1518 C1514 1.524 . S
C1518 H1530 0.956 . S
C1518 H1531 0.961 . S
C1518 H1532 0.961 . S
C1519 C1516 1.539 . S
C1519 H1533 0.958 . S
C1519 H1534 0.961 . S
C1519 H1535 0.960 . S
H1520 C1504 0.931 . S
H1521 C1509 0.929 . S
H1522 C1510 0.960 . S
H1523 C1510 0.962 . S
H1524 C1510 0.960 . S
H1525 C1511 0.961 . S
H1526 C1511 0.961 . S
H1527 C1511 0.961 . S
H1528 C1512 0.931 . S
H1529 C1517 0.930 . S
H1530 C1518 0.956 . S
H1531 C1518 0.961 . S
H1532 C1518 0.961 . S
H1533 C1519 0.958 . S
H1534 C1519 0.961 . S
H1535 C1519 0.960 . S
C1536 C1537 1.391 . S
C1536 C1538 1.394 . S
C1536 H1552 0.931 . S
C1537 C1536 1.391 . S
C1537 C1541 1.376 . S
C1538 C1536 1.394 . S
C1538 C1539 1.369 . S
C1538 C1542 1.531 . S
C1539 C1538 1.369 . S
C1539 C1540 1.410 . S
C1539 C1547 1.503 . S
C1540 C1539 1.410 . S
C1540 C1541 1.392 . S
C1540 C1543 1.511 . S
C1541 C1537 1.376 . S
C1541 C1540 1.392 . S
C1541 H1553 0.929 . S
C1542 C1538 1.531 . S
C1542 H1554 0.960 . S
C1542 H1555 0.962 . S
C1542 H1556 0.960 . S
C1543 C1540 1.511 . S
C1543 H1557 0.961 . S
C1543 H1558 0.961 . S
C1543 H1559 0.961 . S
C1544 C1545 1.370 . S
C1544 C1546 1.363 . S
C1544 H1560 0.931 . S
C1545 C1544 1.370 . S
C1545 C1549 1.408 . S
C1546 C1544 1.363 . S
C1546 C1547 1.370 . S
C1546 C1550 1.524 . S
C1547 C1539 1.503 . S
C1547 C1546 1.370 . S
C1547 C1548 1.403 . S
C1548 C1547 1.403 . S
C1548 C1549 1.404 . S
C1548 C1551 1.539 . S
C1549 C1545 1.408 . S
C1549 C1548 1.404 . S
C1549 H1561 0.930 . S
C1550 C1546 1.524 . S
C1550 H1562 0.956 . S
C1550 H1563 0.961 . S
C1550 H1564 0.961 . S
C1551 C1548 1.539 . S
C1551 H1565 0.958 . S
C1551 H1566 0.961 . S
C1551 H1567 0.960 . S
H1552 C1536 0.931 . S
H1553 C1541 0.929 . S
H1554 C1542 0.960 . S
H1555 C1542 0.962 . S
H1556 C1542 0.960 . S
H1557 C1543 0.961 . S
H1558 C1543 0.961 . S
H1559 C1543 0.961 . S
H1560 C1544 0.931 . S
H1561 C1549 0.930 . S
H1562 C1550 0.956 . S
H1563 C1550 0.961 . S
H1564 C1550 0.961 . S
H1565 C1551 0.958 . S
H1566 C1551 0.961 . S
H1567 C1551 0.960 . S
C1568 C1569 1.391 . S
C1568 C1570 1.394 . S
C1568 H1584 0.931 . S
C1569 C1568 1.391 . S
C1569 C1573 1.376 . S
C1570 C1568 1.394 . S
C1570 C1571 1.369 . S
C1570 C1574 1.531 . S
C1571 C1570 1.369 . S
C1571 C1572 1.410 . S
C1571 C1579 1.503 . S
C1572 C1571 1.410 . S
C1572 C1573 1.392 . S
C1572 C1575 1.511 . S
C1573 C1569 1.376 . S
C1573 C1572 1.392 . S
C1573 H1585 0.929 . S
C1574 C1570 1.531 . S
C1574 H1586 0.960 . S
C1574 H1587 0.962 . S
C1574 H1588 0.960 . S
C1575 C1572 1.511 . S
C1575 H1589 0.961 . S
C1575 H1590 0.961 . S
C1575 H1591 0.961 . S
C1576 C1577 1.370 . S
C1576 C1578 1.363 . S
C1576 H1592 0.931 . S
C1577 C1576 1.370 . S
C1577 C1581 1.408 . S
C1578 C1576 1.363 . S
C1578 C1579 1.370 . S
C1578 C1582 1.524 . S
C1579 C1571 1.503 . S
C1579 C1578 1.370 . S
C1579 C1580 1.403 . S
C1580 C1579 1.403 . S
C1580 C1581 1.404 . S
C1580 C1583 1.539 . S
C1581 C1577 1.408 . S
C1581 C1580 1.404 . S
C1581 H1593 0.930 . S
C1582 C1578 1.524 . S
C1582 H1594 0.956 . S
C1582 H1595 0.961 . S
C1582 H1596 0.961 . S
C1583 C1580 1.539 . S
C1583 H1597 0.958 . S
C1583 H1598 0.961 . S
C1583 H1599 0.960 . S
H1584 C1568 0.931 . S
H1585 C1573 0.929 . S
H1586 C1574 0.960 . S
H1587 C1574 0.962 . S
H1588 C1574 0.960 . S
H1589 C1575 0.961 . S
H1590 C1575 0.961 . S
H1591 C1575 0.961 . S
H1592 C1576 0.931 . S
H1593 C1581 0.930 . S
H1594 C1582 0.956 . S
H1595 C1582 0.961 . S
H1596 C1582 0.961 . S
H1597 C1583 0.958 . S
H1598 C1583 0.961 . S
H1599 C1583 0.960 . S
C1600 C1601 1.391 . S
C1600 C1602 1.394 . S
C1600 H1616 0.931 . S
C1601 C1600 1.391 . S
C1601 C1605 1.376 . S
C1602 C1600 1.394 . S
C1602 C1603 1.369 . S
C1602 C1606 1.531 . S
C1603 C1602 1.369 . S
C1603 C1604 1.410 . S
C1603 C1611 1.503 . S
C1604 C1603 1.410 . S
C1604 C1605 1.392 . S
C1604 C1607 1.511 . S
C1605 C1601 1.376 . S
C1605 C1604 1.392 . S
C1605 H1617 0.929 . S
C1606 C1602 1.531 . S
C1606 H1618 0.960 . S
C1606 H1619 0.962 . S
C1606 H1620 0.960 . S
C1607 C1604 1.511 . S
C1607 H1621 0.961 . S
C1607 H1622 0.961 . S
C1607 H1623 0.961 . S
C1608 C1609 1.370 . S
C1608 C1610 1.363 . S
C1608 H1624 0.931 . S
C1609 C1608 1.370 . S
C1609 C1613 1.408 . S
C1610 C1608 1.363 . S
C1610 C1611 1.370 . S
C1610 C1614 1.524 . S
C1611 C1603 1.503 . S
C1611 C1610 1.370 . S
C1611 C1612 1.403 . S
C1612 C1611 1.403 . S
C1612 C1613 1.404 . S
C1612 C1615 1.539 . S
C1613 C1609 1.408 . S
C1613 C1612 1.404 . S
C1613 H1625 0.930 . S
C1614 C1610 1.524 . S
C1614 H1626 0.956 . S
C1614 H1627 0.961 . S
C1614 H1628 0.961 . S
C1615 C1612 1.539 . S
C1615 H1629 0.958 . S
C1615 H1630 0.961 . S
C1615 H1631 0.960 . S
H1616 C1600 0.931 . S
H1617 C1605 0.929 . S
H1618 C1606 0.960 . S
H1619 C1606 0.962 . S
H1620 C1606 0.960 . S
H1621 C1607 0.961 . S
H1622 C1607 0.961 . S
H1623 C1607 0.961 . S
H1624 C1608 0.931 . S
H1625 C1613 0.930 . S
H1626 C1614 0.956 . S
H1627 C1614 0.961 . S
H1628 C1614 0.961 . S
H1629 C1615 0.958 . S
H1630 C1615 0.961 . S
H1631 C1615 0.960 . S
C1632 C1633 1.391 . S
C1632 C1634 1.394 . S
C1632 H1648 0.931 . S
C1633 C1632 1.391 . S
C1633 C1637 1.376 . S
C1634 C1632 1.394 . S
C1634 C1635 1.369 . S
C1634 C1638 1.531 . S
C1635 C1634 1.369 . S
C1635 C1636 1.410 . S
C1635 C1643 1.503 . S
C1636 C1635 1.410 . S
C1636 C1637 1.392 . S
C1636 C1639 1.511 . S
C1637 C1633 1.376 . S
C1637 C1636 1.392 . S
C1637 H1649 0.929 . S
C1638 C1634 1.531 . S
C1638 H1650 0.960 . S
C1638 H1651 0.962 . S
C1638 H1652 0.960 . S
C1639 C1636 1.511 . S
C1639 H1653 0.961 . S
C1639 H1654 0.961 . S
C1639 H1655 0.961 . S
C1640 C1641 1.370 . S
C1640 C1642 1.363 . S
C1640 H1656 0.931 . S
C1641 C1640 1.370 . S
C1641 C1645 1.408 . S
C1642 C1640 1.363 . S
C1642 C1643 1.370 . S
C1642 C1646 1.524 . S
C1643 C1635 1.503 . S
C1643 C1642 1.370 . S
C1643 C1644 1.403 . S
C1644 C1643 1.403 . S
C1644 C1645 1.404 . S
C1644 C1647 1.539 . S
C1645 C1641 1.408 . S
C1645 C1644 1.404 . S
C1645 H1657 0.930 . S
C1646 C1642 1.524 . S
C1646 H1658 0.956 . S
C1646 H1659 0.961 . S
C1646 H1660 0.961 . S
C1647 C1644 1.539 . S
C1647 H1661 0.958 . S
C1647 H1662 0.961 . S
C1647 H1663 0.960 . S
H1648 C1632 0.931 . S
H1649 C1637 0.929 . S
H1650 C1638 0.960 . S
H1651 C1638 0.962 . S
H1652 C1638 0.960 . S
H1653 C1639 0.961 . S
H1654 C1639 0.961 . S
H1655 C1639 0.961 . S
H1656 C1640 0.931 . S
H1657 C1645 0.930 . S
H1658 C1646 0.956 . S
H1659 C1646 0.961 . S
H1660 C1646 0.961 . S
H1661 C1647 0.958 . S
H1662 C1647 0.961 . S
H1663 C1647 0.960 . S
C1664 C1665 1.391 . S
C1664 C1666 1.394 . S
C1664 H1680 0.931 . S
C1665 C1664 1.391 . S
C1665 C1669 1.376 . S
C1666 C1664 1.394 . S
C1666 C1667 1.369 . S
C1666 C1670 1.531 . S
C1667 C1666 1.369 . S
C1667 C1668 1.410 . S
C1667 C1675 1.503 . S
C1668 C1667 1.410 . S
C1668 C1669 1.392 . S
C1668 C1671 1.511 . S
C1669 C1665 1.376 . S
C1669 C1668 1.392 . S
C1669 H1681 0.929 . S
C1670 C1666 1.531 . S
C1670 H1682 0.960 . S
C1670 H1683 0.962 . S
C1670 H1684 0.960 . S
C1671 C1668 1.511 . S
C1671 H1685 0.961 . S
C1671 H1686 0.961 . S
C1671 H1687 0.961 . S
C1672 C1673 1.370 . S
C1672 C1674 1.363 . S
C1672 H1688 0.931 . S
C1673 C1672 1.370 . S
C1673 C1677 1.408 . S
C1674 C1672 1.363 . S
C1674 C1675 1.370 . S
C1674 C1678 1.524 . S
C1675 C1667 1.503 . S
C1675 C1674 1.370 . S
C1675 C1676 1.403 . S
C1676 C1675 1.403 . S
C1676 C1677 1.404 . S
C1676 C1679 1.562 . S
C1677 C1673 1.408 . S
C1677 C1676 1.404 . S
C1677 H1689 0.930 1_556 S
C1678 C1674 1.524 . S
C1678 H1690 0.956 . S
C1678 H1691 0.961 . S
C1678 H1692 0.961 . S
C1679 C1676 1.562 . S
C1679 H1693 0.946 1_556 S
C1679 H1694 0.938 1_556 S
C1679 H1695 0.973 . S
H1680 C1664 0.931 . S
H1681 C1669 0.929 . S
H1682 C1670 0.960 . S
H1683 C1670 0.962 . S
H1684 C1670 0.960 . S
H1685 C1671 0.961 . S
H1686 C1671 0.961 . S
H1687 C1671 0.961 . S
H1688 C1672 0.931 . S
H1689 C1677 0.930 1_554 S
H1690 C1678 0.956 . S
H1691 C1678 0.961 . S
H1692 C1678 0.961 . S
H1693 C1679 0.946 1_554 S
H1694 C1679 0.938 1_554 S
H1695 C1679 0.973 . S
C1696 C1697 1.391 . S
C1696 C1698 1.394 . S
C1696 H1712 0.931 . S
C1697 C1696 1.391 . S
C1697 C1701 1.376 . S
C1698 C1696 1.394 . S
C1698 C1699 1.369 . S
C1698 C1702 1.531 . S
C1699 C1698 1.369 . S
C1699 C1700 1.410 . S
C1699 C1707 1.503 . S
C1700 C1699 1.410 . S
C1700 C1701 1.392 . S
C1700 C1703 1.511 . S
C1701 C1697 1.376 . S
C1701 C1700 1.392 . S
C1701 H1713 0.929 . S
C1702 C1698 1.531 . S
C1702 H1714 0.960 . S
C1702 H1715 0.962 . S
C1702 H1716 0.960 . S
C1703 C1700 1.511 . S
C1703 H1717 0.961 . S
C1703 H1718 0.961 . S
C1703 H1719 0.961 . S
C1704 C1705 1.370 . S
C1704 C1706 1.363 . S
C1704 H1720 0.931 . S
C1705 C1704 1.370 . S
C1705 C1709 1.408 . S
C1706 C1704 1.363 . S
C1706 C1707 1.370 . S
C1706 C1710 1.524 . S
C1707 C1699 1.503 . S
C1707 C1706 1.370 . S
C1707 C1708 1.403 . S
C1708 C1707 1.403 . S
C1708 C1709 1.404 . S
C1708 C1711 1.539 . S
C1709 C1705 1.408 . S
C1709 C1708 1.404 . S
C1709 H1721 0.930 . S
C1710 C1706 1.524 . S
C1710 H1722 0.956 . S
C1710 H1723 0.961 . S
C1710 H1724 0.961 . S
C1711 C1708 1.539 . S
C1711 H1725 0.958 . S
C1711 H1726 0.961 . S
C1711 H1727 0.960 . S
H1712 C1696 0.931 . S
H1713 C1701 0.929 . S
H1714 C1702 0.960 . S
H1715 C1702 0.962 . S
H1716 C1702 0.960 . S
H1717 C1703 0.961 . S
H1718 C1703 0.961 . S
H1719 C1703 0.961 . S
H1720 C1704 0.931 . S
H1721 C1709 0.930 . S
H1722 C1710 0.956 . S
H1723 C1710 0.961 . S
H1724 C1710 0.961 . S
H1725 C1711 0.958 . S
H1726 C1711 0.961 . S
H1727 C1711 0.960 . S
C1728 C1729 1.391 . S
C1728 C1730 1.394 . S
C1728 H1744 0.931 . S
C1729 C1728 1.391 . S
C1729 C1733 1.376 . S
C1730 C1728 1.394 . S
C1730 C1731 1.369 . S
C1730 C1734 1.531 . S
C1731 C1730 1.369 . S
C1731 C1732 1.410 . S
C1731 C1739 1.503 . S
C1732 C1731 1.410 . S
C1732 C1733 1.392 . S
C1732 C1735 1.511 . S
C1733 C1729 1.376 . S
C1733 C1732 1.392 . S
C1733 H1745 0.929 . S
C1734 C1730 1.531 . S
C1734 H1746 0.960 . S
C1734 H1747 0.962 . S
C1734 H1748 0.960 . S
C1735 C1732 1.511 . S
C1735 H1749 0.961 . S
C1735 H1750 0.961 . S
C1735 H1751 0.961 . S
C1736 C1737 1.370 . S
C1736 C1738 1.363 . S
C1736 H1752 0.931 . S
C1737 C1736 1.370 . S
C1737 C1741 1.408 . S
C1738 C1736 1.363 . S
C1738 C1739 1.370 . S
C1738 C1742 1.524 . S
C1739 C1731 1.503 . S
C1739 C1738 1.370 . S
C1739 C1740 1.403 . S
C1740 C1739 1.403 . S
C1740 C1741 1.404 . S
C1740 C1743 1.539 . S
C1741 C1737 1.408 . S
C1741 C1740 1.404 . S
C1741 H1753 0.930 . S
C1742 C1738 1.524 . S
C1742 H1754 0.956 . S
C1742 H1755 0.961 . S
C1742 H1756 0.961 . S
C1743 C1740 1.539 . S
C1743 H1757 0.958 . S
C1743 H1758 0.961 . S
C1743 H1759 0.960 . S
H1744 C1728 0.931 . S
H1745 C1733 0.929 . S
H1746 C1734 0.960 . S
H1747 C1734 0.962 . S
H1748 C1734 0.960 . S
H1749 C1735 0.961 . S
H1750 C1735 0.961 . S
H1751 C1735 0.961 . S
H1752 C1736 0.931 . S
H1753 C1741 0.930 . S
H1754 C1742 0.956 . S
H1755 C1742 0.961 . S
H1756 C1742 0.961 . S
H1757 C1743 0.958 . S
H1758 C1743 0.961 . S
H1759 C1743 0.960 . S
C1760 C1761 1.391 . S
C1760 C1762 1.394 . S
C1760 H1776 0.931 . S
C1761 C1760 1.391 . S
C1761 C1765 1.376 . S
C1762 C1760 1.394 . S
C1762 C1763 1.369 . S
C1762 C1766 1.531 . S
C1763 C1762 1.369 . S
C1763 C1764 1.410 . S
C1763 C1771 1.503 . S
C1764 C1763 1.410 . S
C1764 C1765 1.392 . S
C1764 C1767 1.511 . S
C1765 C1761 1.376 . S
C1765 C1764 1.392 . S
C1765 H1777 0.929 . S
C1766 C1762 1.531 . S
C1766 H1778 0.960 . S
C1766 H1779 0.962 . S
C1766 H1780 0.960 . S
C1767 C1764 1.511 . S
C1767 H1781 0.961 . S
C1767 H1782 0.961 . S
C1767 H1783 0.961 . S
C1768 C1769 1.370 . S
C1768 C1770 1.363 . S
C1768 H1784 0.931 . S
C1769 C1768 1.370 . S
C1769 C1773 1.408 . S
C1770 C1768 1.363 . S
C1770 C1771 1.370 . S
C1770 C1774 1.524 . S
C1771 C1763 1.503 . S
C1771 C1770 1.370 . S
C1771 C1772 1.403 . S
C1772 C1771 1.403 . S
C1772 C1773 1.404 . S
C1772 C1775 1.539 . S
C1773 C1769 1.408 . S
C1773 C1772 1.404 . S
C1773 H1785 0.930 . S
C1774 C1770 1.524 . S
C1774 H1786 0.956 . S
C1774 H1787 0.961 . S
C1774 H1788 0.961 . S
C1775 C1772 1.539 . S
C1775 H1789 0.958 . S
C1775 H1790 0.961 . S
C1775 H1791 0.960 . S
H1776 C1760 0.931 . S
H1777 C1765 0.929 . S
H1778 C1766 0.960 . S
H1779 C1766 0.962 . S
H1780 C1766 0.960 . S
H1781 C1767 0.961 . S
H1782 C1767 0.961 . S
H1783 C1767 0.961 . S
H1784 C1768 0.931 . S
H1785 C1773 0.930 . S
H1786 C1774 0.956 . S
H1787 C1774 0.961 . S
H1788 C1774 0.961 . S
H1789 C1775 0.958 . S
H1790 C1775 0.961 . S
H1791 C1775 0.960 . S
C1792 C1793 1.391 . S
C1792 C1794 1.394 . S
C1792 H1808 0.931 . S
C1793 C1792 1.391 . S
C1793 C1797 1.376 . S
C1794 C1792 1.394 . S
C1794 C1795 1.369 . S
C1794 C1798 1.531 . S
C1795 C1794 1.369 . S
C1795 C1796 1.410 . S
C1795 C1803 1.503 . S
C1796 C1795 1.410 . S
C1796 C1797 1.392 . S
C1796 C1799 1.511 . S
C1797 C1793 1.376 . S
C1797 C1796 1.392 . S
C1797 H1809 0.929 . S
C1798 C1794 1.531 . S
C1798 H1810 0.960 . S
C1798 H1811 0.962 . S
C1798 H1812 0.960 . S
C1799 C1796 1.511 . S
C1799 H1813 0.961 . S
C1799 H1814 0.961 . S
C1799 H1815 0.961 . S
C1800 C1801 1.370 . S
C1800 C1802 1.363 . S
C1800 H1816 0.931 . S
C1801 C1800 1.370 . S
C1801 C1805 1.408 . S
C1802 C1800 1.363 . S
C1802 C1803 1.370 . S
C1802 C1806 1.524 . S
C1803 C1795 1.503 . S
C1803 C1802 1.370 . S
C1803 C1804 1.403 . S
C1804 C1803 1.403 . S
C1804 C1805 1.404 . S
C1804 C1807 1.539 . S
C1805 C1801 1.408 . S
C1805 C1804 1.404 . S
C1805 H1817 0.930 . S
C1806 C1802 1.524 . S
C1806 H1818 0.956 . S
C1806 H1819 0.961 . S
C1806 H1820 0.961 . S
C1807 C1804 1.539 . S
C1807 H1821 0.958 . S
C1807 H1822 0.961 . S
C1807 H1823 0.960 . S
H1808 C1792 0.931 . S
H1809 C1797 0.929 . S
H1810 C1798 0.960 . S
H1811 C1798 0.962 . S
H1812 C1798 0.960 . S
H1813 C1799 0.961 . S
H1814 C1799 0.961 . S
H1815 C1799 0.961 . S
H1816 C1800 0.931 . S
H1817 C1805 0.930 . S
H1818 C1806 0.956 . S
H1819 C1806 0.961 . S
H1820 C1806 0.961 . S
H1821 C1807 0.958 . S
H1822 C1807 0.961 . S
H1823 C1807 0.960 . S
C1824 C1825 1.391 . S
C1824 C1826 1.394 . S
C1824 H1840 0.931 . S
C1825 C1824 1.391 . S
C1825 C1829 1.376 . S
C1826 C1824 1.394 . S
C1826 C1827 1.369 . S
C1826 C1830 1.531 . S
C1827 C1826 1.369 . S
C1827 C1828 1.410 . S
C1827 C1835 1.503 . S
C1828 C1827 1.410 . S
C1828 C1829 1.392 . S
C1828 C1831 1.511 . S
C1829 C1825 1.376 . S
C1829 C1828 1.392 . S
C1829 H1841 0.929 . S
C1830 C1826 1.531 . S
C1830 H1842 0.960 . S
C1830 H1843 0.962 . S
C1830 H1844 0.960 . S
C1831 C1828 1.511 . S
C1831 H1845 0.961 . S
C1831 H1846 0.961 . S
C1831 H1847 0.961 . S
C1832 C1833 1.370 . S
C1832 C1834 1.363 . S
C1832 H1848 0.931 . S
C1833 C1832 1.370 . S
C1833 C1837 1.408 . S
C1834 C1832 1.363 . S
C1834 C1835 1.370 . S
C1834 C1838 1.524 . S
C1835 C1827 1.503 . S
C1835 C1834 1.370 . S
C1835 C1836 1.403 . S
C1836 C1835 1.403 . S
C1836 C1837 1.404 . S
C1836 C1839 1.539 . S
C1837 C1833 1.408 . S
C1837 C1836 1.404 . S
C1837 H1849 0.930 . S
C1838 C1834 1.524 . S
C1838 H1850 0.956 . S
C1838 H1851 0.961 . S
C1838 H1852 0.961 . S
C1839 C1836 1.539 . S
C1839 H1853 0.958 . S
C1839 H1854 0.961 . S
C1839 H1855 0.960 . S
H1840 C1824 0.931 . S
H1841 C1829 0.929 . S
H1842 C1830 0.960 . S
H1843 C1830 0.962 . S
H1844 C1830 0.960 . S
H1845 C1831 0.961 . S
H1846 C1831 0.961 . S
H1847 C1831 0.961 . S
H1848 C1832 0.931 . S
H1849 C1837 0.930 . S
H1850 C1838 0.956 . S
H1851 C1838 0.961 . S
H1852 C1838 0.961 . S
H1853 C1839 0.958 . S
H1854 C1839 0.961 . S
H1855 C1839 0.960 . S
C1856 C1857 1.391 . S
C1856 C1858 1.394 . S
C1856 H1872 0.931 . S
C1857 C1856 1.391 . S
C1857 C1861 1.376 . S
C1858 C1856 1.394 . S
C1858 C1859 1.369 . S
C1858 C1862 1.531 . S
C1859 C1858 1.369 . S
C1859 C1860 1.410 . S
C1859 C1867 1.503 . S
C1860 C1859 1.410 . S
C1860 C1861 1.392 . S
C1860 C1863 1.511 . S
C1861 C1857 1.376 . S
C1861 C1860 1.392 . S
C1861 H1873 0.929 . S
C1862 C1858 1.531 . S
C1862 H1874 0.960 . S
C1862 H1875 0.962 . S
C1862 H1876 0.960 . S
C1863 C1860 1.511 . S
C1863 H1877 0.961 . S
C1863 H1878 0.961 . S
C1863 H1879 0.961 . S
C1864 C1865 1.370 . S
C1864 C1866 1.363 . S
C1864 H1880 0.931 . S
C1865 C1864 1.370 . S
C1865 C1869 1.408 . S
C1866 C1864 1.363 . S
C1866 C1867 1.370 . S
C1866 C1870 1.524 . S
C1867 C1859 1.503 . S
C1867 C1866 1.370 . S
C1867 C1868 1.403 . S
C1868 C1867 1.403 . S
C1868 C1869 1.404 . S
C1868 C1871 1.539 . S
C1869 C1865 1.408 . S
C1869 C1868 1.404 . S
C1869 H1881 0.930 . S
C1870 C1866 1.524 . S
C1870 H1882 0.956 . S
C1870 H1883 0.961 . S
C1870 H1884 0.961 . S
C1871 C1868 1.539 . S
C1871 H1885 0.958 . S
C1871 H1886 0.961 . S
C1871 H1887 0.960 . S
H1872 C1856 0.931 . S
H1873 C1861 0.929 . S
H1874 C1862 0.960 . S
H1875 C1862 0.962 . S
H1876 C1862 0.960 . S
H1877 C1863 0.961 . S
H1878 C1863 0.961 . S
H1879 C1863 0.961 . S
H1880 C1864 0.931 . S
H1881 C1869 0.930 . S
H1882 C1870 0.956 . S
H1883 C1870 0.961 . S
H1884 C1870 0.961 . S
H1885 C1871 0.958 . S
H1886 C1871 0.961 . S
H1887 C1871 0.960 . S
C1888 C1889 1.391 . S
C1888 C1890 1.394 . S
C1888 H1904 0.931 . S
C1889 C1888 1.391 . S
C1889 C1893 1.376 . S
C1890 C1888 1.394 . S
C1890 C1891 1.369 . S
C1890 C1894 1.531 . S
C1891 C1890 1.369 . S
C1891 C1892 1.410 . S
C1891 C1899 1.503 . S
C1892 C1891 1.410 . S
C1892 C1893 1.392 . S
C1892 C1895 1.511 . S
C1893 C1889 1.376 . S
C1893 C1892 1.392 . S
C1893 H1905 0.929 . S
C1894 C1890 1.531 . S
C1894 H1906 0.960 . S
C1894 H1907 0.962 . S
C1894 H1908 0.960 . S
C1895 C1892 1.511 . S
C1895 H1909 0.961 . S
C1895 H1910 0.961 . S
C1895 H1911 0.961 . S
C1896 C1897 1.370 . S
C1896 C1898 1.363 . S
C1896 H1912 0.931 . S
C1897 C1896 1.370 . S
C1897 C1901 1.408 . S
C1898 C1896 1.363 . S
C1898 C1899 1.370 . S
C1898 C1902 1.524 . S
C1899 C1891 1.503 . S
C1899 C1898 1.370 . S
C1899 C1900 1.403 . S
C1900 C1899 1.403 . S
C1900 C1901 1.404 . S
C1900 C1903 1.539 . S
C1901 C1897 1.408 . S
C1901 C1900 1.404 . S
C1901 H1913 0.930 1_655 S
C1902 C1898 1.524 . S
C1902 H1914 0.956 . S
C1902 H1915 0.961 . S
C1902 H1916 0.961 . S
C1903 C1900 1.539 . S
C1903 H1917 0.958 . S
C1903 H1918 0.961 1_655 S
C1903 H1919 0.960 . S
H1904 C1888 0.931 . S
H1905 C1893 0.929 . S
H1906 C1894 0.960 . S
H1907 C1894 0.962 . S
H1908 C1894 0.960 . S
H1909 C1895 0.961 . S
H1910 C1895 0.961 . S
H1911 C1895 0.961 . S
H1912 C1896 0.931 . S
H1913 C1901 0.930 1_455 S
H1914 C1902 0.956 . S
H1915 C1902 0.961 . S
H1916 C1902 0.961 . S
H1917 C1903 0.958 . S
H1918 C1903 0.961 1_455 S
H1919 C1903 0.960 . S
C1920 C1921 1.391 . S
C1920 C1922 1.394 . S
C1920 H1936 0.931 . S
C1921 C1920 1.391 . S
C1921 C1925 1.376 . S
C1922 C1920 1.394 . S
C1922 C1923 1.369 . S
C1922 C1926 1.531 . S
C1923 C1922 1.369 . S
C1923 C1924 1.410 . S
C1923 C1931 1.503 . S
C1924 C1923 1.410 . S
C1924 C1925 1.392 . S
C1924 C1927 1.511 . S
C1925 C1921 1.376 . S
C1925 C1924 1.392 . S
C1925 H1937 0.929 . S
C1926 C1922 1.531 . S
C1926 H1938 0.960 . S
C1926 H1939 0.962 . S
C1926 H1940 0.960 . S
C1927 C1924 1.511 . S
C1927 H1941 0.961 . S
C1927 H1942 0.961 . S
C1927 H1943 0.961 . S
C1928 C1929 1.370 . S
C1928 C1930 1.363 . S
C1928 H1944 0.931 . S
C1929 C1928 1.370 . S
C1929 C1933 1.408 . S
C1930 C1928 1.363 . S
C1930 C1931 1.370 . S
C1930 C1934 1.524 . S
C1931 C1923 1.503 . S
C1931 C1930 1.370 . S
C1931 C1932 1.403 . S
C1932 C1931 1.403 . S
C1932 C1933 1.404 . S
C1932 C1935 1.539 . S
C1933 C1929 1.408 . S
C1933 C1932 1.404 . S
C1933 H1945 0.930 . S
C1934 C1930 1.524 . S
C1934 H1946 0.956 . S
C1934 H1947 0.961 . S
C1934 H1948 0.961 . S
C1935 C1932 1.539 . S
C1935 H1949 0.958 . S
C1935 H1950 0.961 . S
C1935 H1951 0.960 . S
H1936 C1920 0.931 . S
H1937 C1925 0.929 . S
H1938 C1926 0.960 . S
H1939 C1926 0.962 . S
H1940 C1926 0.960 . S
H1941 C1927 0.961 . S
H1942 C1927 0.961 . S
H1943 C1927 0.961 . S
H1944 C1928 0.931 . S
H1945 C1933 0.930 . S
H1946 C1934 0.956 . S
H1947 C1934 0.961 . S
H1948 C1934 0.961 . S
H1949 C1935 0.958 . S
H1950 C1935 0.961 . S
H1951 C1935 0.960 . S
C1952 C1953 1.391 . S
C1952 C1954 1.394 . S
C1952 H1968 0.931 . S
C1953 C1952 1.391 . S
C1953 C1957 1.376 . S
C1954 C1952 1.394 . S
C1954 C1955 1.369 . S
C1954 C1958 1.531 . S
C1955 C1954 1.369 . S
C1955 C1956 1.410 . S
C1955 C1963 1.503 . S
C1956 C1955 1.410 . S
C1956 C1957 1.392 . S
C1956 C1959 1.511 . S
C1957 C1953 1.376 . S
C1957 C1956 1.392 . S
C1957 H1969 0.929 . S
C1958 C1954 1.531 . S
C1958 H1970 0.960 . S
C1958 H1971 0.962 . S
C1958 H1972 0.960 . S
C1959 C1956 1.511 . S
C1959 H1973 0.961 . S
C1959 H1974 0.961 . S
C1959 H1975 0.961 . S
C1960 C1961 1.370 . S
C1960 C1962 1.363 . S
C1960 H1976 0.931 . S
C1961 C1960 1.370 . S
C1961 C1965 1.408 . S
C1962 C1960 1.363 . S
C1962 C1963 1.370 . S
C1962 C1966 1.524 . S
C1963 C1955 1.503 . S
C1963 C1962 1.370 . S
C1963 C1964 1.403 . S
C1964 C1963 1.403 . S
C1964 C1965 1.404 . S
C1964 C1967 1.539 . S
C1965 C1961 1.408 . S
C1965 C1964 1.404 . S
C1965 H1977 0.930 . S
C1966 C1962 1.524 . S
C1966 H1978 0.956 . S
C1966 H1979 0.961 . S
C1966 H1980 0.961 . S
C1967 C1964 1.539 . S
C1967 H1981 0.958 . S
C1967 H1982 0.961 . S
C1967 H1983 0.960 . S
H1968 C1952 0.931 . S
H1969 C1957 0.929 . S
H1970 C1958 0.960 . S
H1971 C1958 0.962 . S
H1972 C1958 0.960 . S
H1973 C1959 0.961 . S
H1974 C1959 0.961 . S
H1975 C1959 0.961 . S
H1976 C1960 0.931 . S
H1977 C1965 0.930 . S
H1978 C1966 0.956 . S
H1979 C1966 0.961 . S
H1980 C1966 0.961 . S
H1981 C1967 0.958 . S
H1982 C1967 0.961 . S
H1983 C1967 0.960 . S
C1984 C1985 1.391 . S
C1984 C1986 1.394 . S
C1984 H2000 0.931 . S
C1985 C1984 1.391 . S
C1985 C1989 1.376 . S
C1986 C1984 1.394 . S
C1986 C1987 1.369 . S
C1986 C1990 1.531 . S
C1987 C1986 1.369 . S
C1987 C1988 1.410 . S
C1987 C1995 1.503 . S
C1988 C1987 1.410 . S
C1988 C1989 1.392 . S
C1988 C1991 1.511 . S
C1989 C1985 1.376 . S
C1989 C1988 1.392 . S
C1989 H2001 0.929 . S
C1990 C1986 1.531 . S
C1990 H2002 0.960 . S
C1990 H2003 0.962 . S
C1990 H2004 0.960 . S
C1991 C1988 1.511 . S
C1991 H2005 0.961 . S
C1991 H2006 0.961 . S
C1991 H2007 0.961 . S
C1992 C1993 1.370 . S
C1992 C1994 1.363 . S
C1992 H2008 0.931 . S
C1993 C1992 1.370 . S
C1993 C1997 1.408 . S
C1994 C1992 1.363 . S
C1994 C1995 1.370 . S
C1994 C1998 1.524 . S
C1995 C1987 1.503 . S
C1995 C1994 1.370 . S
C1995 C1996 1.403 . S
C1996 C1995 1.403 . S
C1996 C1997 1.404 . S
C1996 C1999 1.539 . S
C1997 C1993 1.408 . S
C1997 C1996 1.404 . S
C1997 H2009 0.930 . S
C1998 C1994 1.524 . S
C1998 H2010 0.956 . S
C1998 H2011 0.961 . S
C1998 H2012 0.961 . S
C1999 C1996 1.539 . S
C1999 H2013 0.958 . S
C1999 H2014 0.961 . S
C1999 H2015 0.960 . S
H2000 C1984 0.931 . S
H2001 C1989 0.929 . S
H2002 C1990 0.960 . S
H2003 C1990 0.962 . S
H2004 C1990 0.960 . S
H2005 C1991 0.961 . S
H2006 C1991 0.961 . S
H2007 C1991 0.961 . S
H2008 C1992 0.931 . S
H2009 C1997 0.930 . S
H2010 C1998 0.956 . S
H2011 C1998 0.961 . S
H2012 C1998 0.961 . S
H2013 C1999 0.958 . S
H2014 C1999 0.961 . S
H2015 C1999 0.960 . S
C2016 C2017 1.391 . S
C2016 C2018 1.394 . S
C2016 H2032 0.931 . S
C2017 C2016 1.391 . S
C2017 C2021 1.376 . S
C2018 C2016 1.394 . S
C2018 C2019 1.369 . S
C2018 C2022 1.531 . S
C2019 C2018 1.369 . S
C2019 C2020 1.410 . S
C2019 C2027 1.503 . S
C2020 C2019 1.410 . S
C2020 C2021 1.392 . S
C2020 C2023 1.511 . S
C2021 C2017 1.376 . S
C2021 C2020 1.392 . S
C2021 H2033 0.929 . S
C2022 C2018 1.531 . S
C2022 H2034 0.960 . S
C2022 H2035 0.962 . S
C2022 H2036 0.960 . S
C2023 C2020 1.511 . S
C2023 H2037 0.961 . S
C2023 H2038 0.961 . S
C2023 H2039 0.961 . S
C2024 C2025 1.370 . S
C2024 C2026 1.363 . S
C2024 H2040 0.931 . S
C2025 C2024 1.370 . S
C2025 C2029 1.408 . S
C2026 C2024 1.363 . S
C2026 C2027 1.370 . S
C2026 C2030 1.524 . S
C2027 C2019 1.503 . S
C2027 C2026 1.370 . S
C2027 C2028 1.403 . S
C2028 C2027 1.403 . S
C2028 C2029 1.404 . S
C2028 C2031 1.539 . S
C2029 C2025 1.408 . S
C2029 C2028 1.404 . S
C2029 H2041 0.930 . S
C2030 C2026 1.524 . S
C2030 H2042 0.956 . S
C2030 H2043 0.961 . S
C2030 H2044 0.961 . S
C2031 C2028 1.539 . S
C2031 H2045 0.958 . S
C2031 H2046 0.961 . S
C2031 H2047 0.960 . S
H2032 C2016 0.931 . S
H2033 C2021 0.929 . S
H2034 C2022 0.960 . S
H2035 C2022 0.962 . S
H2036 C2022 0.960 . S
H2037 C2023 0.961 . S
H2038 C2023 0.961 . S
H2039 C2023 0.961 . S
H2040 C2024 0.931 . S
H2041 C2029 0.930 . S
H2042 C2030 0.956 . S
H2043 C2030 0.961 . S
H2044 C2030 0.961 . S
H2045 C2031 0.958 . S
H2046 C2031 0.961 . S
H2047 C2031 0.960 . S
C2048 C2049 1.391 . S
C2048 C2050 1.394 . S
C2048 H2064 0.931 . S
C2049 C2048 1.391 . S
C2049 C2053 1.376 . S
C2050 C2048 1.394 . S
C2050 C2051 1.369 . S
C2050 C2054 1.531 . S
C2051 C2050 1.369 . S
C2051 C2052 1.410 . S
C2051 C2059 1.503 . S
C2052 C2051 1.410 . S
C2052 C2053 1.392 . S
C2052 C2055 1.511 . S
C2053 C2049 1.376 . S
C2053 C2052 1.392 . S
C2053 H2065 0.929 . S
C2054 C2050 1.531 . S
C2054 H2066 0.960 . S
C2054 H2067 0.962 . S
C2054 H2068 0.960 . S
C2055 C2052 1.511 . S
C2055 H2069 0.961 . S
C2055 H2070 0.961 . S
C2055 H2071 0.961 . S
C2056 C2057 1.370 . S
C2056 C2058 1.363 . S
C2056 H2072 0.931 . S
C2057 C2056 1.370 . S
C2057 C2061 1.408 . S
C2058 C2056 1.363 . S
C2058 C2059 1.370 . S
C2058 C2062 1.524 . S
C2059 C2051 1.503 . S
C2059 C2058 1.370 . S
C2059 C2060 1.403 . S
C2060 C2059 1.403 . S
C2060 C2061 1.404 . S
C2060 C2063 1.539 . S
C2061 C2057 1.408 . S
C2061 C2060 1.404 . S
C2061 H2073 0.930 . S
C2062 C2058 1.524 . S
C2062 H2074 0.956 . S
C2062 H2075 0.961 . S
C2062 H2076 0.961 . S
C2063 C2060 1.539 . S
C2063 H2077 0.958 . S
C2063 H2078 0.961 . S
C2063 H2079 0.960 . S
H2064 C2048 0.931 . S
H2065 C2053 0.929 . S
H2066 C2054 0.960 . S
H2067 C2054 0.962 . S
H2068 C2054 0.960 . S
H2069 C2055 0.961 . S
H2070 C2055 0.961 . S
H2071 C2055 0.961 . S
H2072 C2056 0.931 . S
H2073 C2061 0.930 . S
H2074 C2062 0.956 . S
H2075 C2062 0.961 . S
H2076 C2062 0.961 . S
H2077 C2063 0.958 . S
H2078 C2063 0.961 . S
H2079 C2063 0.960 . S
C2080 C2081 1.391 . S
C2080 C2082 1.394 . S
C2080 H2096 0.931 . S
C2081 C2080 1.391 . S
C2081 C2085 1.376 . S
C2082 C2080 1.394 . S
C2082 C2083 1.369 . S
C2082 C2086 1.531 . S
C2083 C2082 1.369 . S
C2083 C2084 1.410 . S
C2083 C2091 1.503 . S
C2084 C2083 1.410 . S
C2084 C2085 1.392 . S
C2084 C2087 1.511 . S
C2085 C2081 1.376 . S
C2085 C2084 1.392 . S
C2085 H2097 0.929 . S
C2086 C2082 1.531 . S
C2086 H2098 0.960 . S
C2086 H2099 0.962 . S
C2086 H2100 0.960 . S
C2087 C2084 1.511 . S
C2087 H2101 0.961 . S
C2087 H2102 0.961 . S
C2087 H2103 0.961 . S
C2088 C2089 1.370 . S
C2088 C2090 1.363 . S
C2088 H2104 0.931 . S
C2089 C2088 1.370 . S
C2089 C2093 1.408 . S
C2090 C2088 1.363 . S
C2090 C2091 1.370 . S
C2090 C2094 1.524 . S
C2091 C2083 1.503 . S
C2091 C2090 1.370 . S
C2091 C2092 1.403 . S
C2092 C2091 1.403 . S
C2092 C2093 1.404 . S
C2092 C2095 1.539 . S
C2093 C2089 1.408 . S
C2093 C2092 1.404 . S
C2093 H2105 0.930 . S
C2094 C2090 1.524 . S
C2094 H2106 0.956 . S
C2094 H2107 0.961 . S
C2094 H2108 0.961 . S
C2095 C2092 1.539 . S
C2095 H2109 0.958 . S
C2095 H2110 0.961 . S
C2095 H2111 0.960 . S
H2096 C2080 0.931 . S
H2097 C2085 0.929 . S
H2098 C2086 0.960 . S
H2099 C2086 0.962 . S
H2100 C2086 0.960 . S
H2101 C2087 0.961 . S
H2102 C2087 0.961 . S
H2103 C2087 0.961 . S
H2104 C2088 0.931 . S
H2105 C2093 0.930 . S
H2106 C2094 0.956 . S
H2107 C2094 0.961 . S
H2108 C2094 0.961 . S
H2109 C2095 0.958 . S
H2110 C2095 0.961 . S
H2111 C2095 0.960 . S
C2112 C2113 1.391 . S
C2112 C2114 1.394 . S
C2112 H2128 0.931 . S
C2113 C2112 1.391 . S
C2113 C2117 1.376 . S
C2114 C2112 1.394 . S
C2114 C2115 1.369 . S
C2114 C2118 1.531 . S
C2115 C2114 1.369 . S
C2115 C2116 1.410 . S
C2115 C2123 1.503 . S
C2116 C2115 1.410 . S
C2116 C2117 1.392 . S
C2116 C2119 1.511 . S
C2117 C2113 1.376 . S
C2117 C2116 1.392 . S
C2117 H2129 0.929 . S
C2118 C2114 1.531 . S
C2118 H2130 0.960 . S
C2118 H2131 0.962 . S
C2118 H2132 0.960 . S
C2119 C2116 1.511 . S
C2119 H2133 0.961 . S
C2119 H2134 0.961 . S
C2119 H2135 0.961 . S
C2120 C2121 1.370 . S
C2120 C2122 1.363 . S
C2120 H2136 0.931 . S
C2121 C2120 1.370 . S
C2121 C2125 1.408 . S
C2122 C2120 1.363 . S
C2122 C2123 1.370 . S
C2122 C2126 1.524 . S
C2123 C2115 1.503 . S
C2123 C2122 1.370 . S
C2123 C2124 1.403 . S
C2124 C2123 1.403 . S
C2124 C2125 1.404 . S
C2124 C2127 1.539 . S
C2125 C2121 1.408 . S
C2125 C2124 1.404 . S
C2125 H2137 0.930 . S
C2126 C2122 1.524 . S
C2126 H2138 0.956 . S
C2126 H2139 0.961 . S
C2126 H2140 0.961 . S
C2127 C2124 1.539 . S
C2127 H2141 0.958 . S
C2127 H2142 0.961 . S
C2127 H2143 0.960 . S
H2128 C2112 0.931 . S
H2129 C2117 0.929 . S
H2130 C2118 0.960 . S
H2131 C2118 0.962 . S
H2132 C2118 0.960 . S
H2133 C2119 0.961 . S
H2134 C2119 0.961 . S
H2135 C2119 0.961 . S
H2136 C2120 0.931 . S
H2137 C2125 0.930 . S
H2138 C2126 0.956 . S
H2139 C2126 0.961 . S
H2140 C2126 0.961 . S
H2141 C2127 0.958 . S
H2142 C2127 0.961 . S
H2143 C2127 0.960 . S
C2144 C2145 1.391 . S
C2144 C2146 1.394 . S
C2144 H2160 0.931 . S
C2145 C2144 1.391 . S
C2145 C2149 1.376 . S
C2146 C2144 1.394 . S
C2146 C2147 1.369 . S
C2146 C2150 1.531 . S
C2147 C2146 1.369 . S
C2147 C2148 1.410 . S
C2147 C2155 1.503 . S
C2148 C2147 1.410 . S
C2148 C2149 1.392 . S
C2148 C2151 1.511 . S
C2149 C2145 1.376 . S
C2149 C2148 1.392 . S
C2149 H2161 0.929 . S
C2150 C2146 1.531 . S
C2150 H2162 0.960 . S
C2150 H2163 0.962 . S
C2150 H2164 0.960 . S
C2151 C2148 1.511 . S
C2151 H2165 0.961 . S
C2151 H2166 0.961 . S
C2151 H2167 0.961 . S
C2152 C2153 1.370 . S
C2152 C2154 1.363 . S
C2152 H2168 0.931 . S
C2153 C2152 1.370 . S
C2153 C2157 1.408 . S
C2154 C2152 1.363 . S
C2154 C2155 1.370 . S
C2154 C2158 1.524 . S
C2155 C2147 1.503 . S
C2155 C2154 1.370 . S
C2155 C2156 1.403 . S
C2156 C2155 1.403 . S
C2156 C2157 1.404 . S
C2156 C2159 1.539 . S
C2157 C2153 1.408 . S
C2157 C2156 1.404 . S
C2157 H2169 0.930 . S
C2158 C2154 1.524 . S
C2158 H2170 0.956 . S
C2158 H2171 0.961 . S
C2158 H2172 0.961 . S
C2159 C2156 1.539 . S
C2159 H2173 0.958 . S
C2159 H2174 0.961 . S
C2159 H2175 0.960 . S
H2160 C2144 0.931 . S
H2161 C2149 0.929 . S
H2162 C2150 0.960 . S
H2163 C2150 0.962 . S
H2164 C2150 0.960 . S
H2165 C2151 0.961 . S
H2166 C2151 0.961 . S
H2167 C2151 0.961 . S
H2168 C2152 0.931 . S
H2169 C2157 0.930 . S
H2170 C2158 0.956 . S
H2171 C2158 0.961 . S
H2172 C2158 0.961 . S
H2173 C2159 0.958 . S
H2174 C2159 0.961 . S
H2175 C2159 0.960 . S
C2176 C2177 1.391 . S
C2176 C2178 1.394 . S
C2176 H2192 0.931 . S
C2177 C2176 1.391 . S
C2177 C2181 1.376 . S
C2178 C2176 1.394 . S
C2178 C2179 1.369 . S
C2178 C2182 1.531 . S
C2179 C2178 1.369 . S
C2179 C2180 1.410 . S
C2179 C2187 1.503 . S
C2180 C2179 1.410 . S
C2180 C2181 1.392 . S
C2180 C2183 1.511 . S
C2181 C2177 1.376 . S
C2181 C2180 1.392 . S
C2181 H2193 0.929 . S
C2182 C2178 1.531 . S
C2182 H2194 0.960 . S
C2182 H2195 0.962 . S
C2182 H2196 0.960 . S
C2183 C2180 1.511 . S
C2183 H2197 0.961 . S
C2183 H2198 0.961 . S
C2183 H2199 0.961 . S
C2184 C2185 1.370 . S
C2184 C2186 1.363 . S
C2184 H2200 0.931 . S
C2185 C2184 1.370 . S
C2185 C2189 1.408 . S
C2186 C2184 1.363 . S
C2186 C2187 1.370 . S
C2186 C2190 1.524 . S
C2187 C2179 1.503 . S
C2187 C2186 1.370 . S
C2187 C2188 1.403 . S
C2188 C2187 1.403 . S
C2188 C2189 1.404 . S
C2188 C2191 1.539 . S
C2189 C2185 1.408 . S
C2189 C2188 1.404 . S
C2189 H2201 0.930 . S
C2190 C2186 1.524 . S
C2190 H2202 0.956 . S
C2190 H2203 0.961 . S
C2190 H2204 0.961 . S
C2191 C2188 1.539 . S
C2191 H2205 0.958 . S
C2191 H2206 0.961 . S
C2191 H2207 0.960 . S
H2192 C2176 0.931 . S
H2193 C2181 0.929 . S
H2194 C2182 0.960 . S
H2195 C2182 0.962 . S
H2196 C2182 0.960 . S
H2197 C2183 0.961 . S
H2198 C2183 0.961 . S
H2199 C2183 0.961 . S
H2200 C2184 0.931 . S
H2201 C2189 0.930 . S
H2202 C2190 0.956 . S
H2203 C2190 0.961 . S
H2204 C2190 0.961 . S
H2205 C2191 0.958 . S
H2206 C2191 0.961 . S
H2207 C2191 0.960 . S
C2208 C2209 1.391 . S
C2208 C2210 1.394 . S
C2208 H2224 0.931 . S
C2209 C2208 1.391 . S
C2209 C2213 1.376 . S
C2210 C2208 1.394 . S
C2210 C2211 1.369 . S
C2210 C2214 1.531 . S
C2211 C2210 1.369 . S
C2211 C2212 1.410 . S
C2211 C2219 1.503 . S
C2212 C2211 1.410 . S
C2212 C2213 1.392 . S
C2212 C2215 1.511 . S
C2213 C2209 1.376 . S
C2213 C2212 1.392 . S
C2213 H2225 0.929 . S
C2214 C2210 1.531 . S
C2214 H2226 0.960 . S
C2214 H2227 0.962 . S
C2214 H2228 0.960 . S
C2215 C2212 1.511 . S
C2215 H2229 0.961 . S
C2215 H2230 0.961 . S
C2215 H2231 0.961 . S
C2216 C2217 1.370 . S
C2216 C2218 1.363 . S
C2216 H2232 0.931 . S
C2217 C2216 1.370 . S
C2217 C2221 1.408 . S
C2218 C2216 1.363 . S
C2218 C2219 1.370 . S
C2218 C2222 1.524 . S
C2219 C2211 1.503 . S
C2219 C2218 1.370 . S
C2219 C2220 1.403 . S
C2220 C2219 1.403 . S
C2220 C2221 1.404 . S
C2220 C2223 1.539 . S
C2221 C2217 1.408 . S
C2221 C2220 1.404 . S
C2221 H2233 0.930 . S
C2222 C2218 1.524 . S
C2222 H2234 0.956 . S
C2222 H2235 0.961 . S
C2222 H2236 0.961 . S
C2223 C2220 1.539 . S
C2223 H2237 0.958 . S
C2223 H2238 0.961 . S
C2223 H2239 0.960 . S
H2224 C2208 0.931 . S
H2225 C2213 0.929 . S
H2226 C2214 0.960 . S
H2227 C2214 0.962 . S
H2228 C2214 0.960 . S
H2229 C2215 0.961 . S
H2230 C2215 0.961 . S
H2231 C2215 0.961 . S
H2232 C2216 0.931 . S
H2233 C2221 0.930 . S
H2234 C2222 0.956 . S
H2235 C2222 0.961 . S
H2236 C2222 0.961 . S
H2237 C2223 0.958 . S
H2238 C2223 0.961 . S
H2239 C2223 0.960 . S
C2240 C2241 1.391 . S
C2240 C2242 1.394 . S
C2240 H2256 0.931 . S
C2241 C2240 1.391 . S
C2241 C2245 1.376 . S
C2242 C2240 1.394 . S
C2242 C2243 1.369 . S
C2242 C2246 1.531 . S
C2243 C2242 1.369 . S
C2243 C2244 1.410 . S
C2243 C2251 1.503 . S
C2244 C2243 1.410 . S
C2244 C2245 1.392 . S
C2244 C2247 1.511 . S
C2245 C2241 1.376 . S
C2245 C2244 1.392 . S
C2245 H2257 0.929 . S
C2246 C2242 1.531 . S
C2246 H2258 0.960 . S
C2246 H2259 0.962 . S
C2246 H2260 0.960 . S
C2247 C2244 1.511 . S
C2247 H2261 0.961 . S
C2247 H2262 0.961 . S
C2247 H2263 0.961 . S
C2248 C2249 1.370 . S
C2248 C2250 1.363 . S
C2248 H2264 0.931 . S
C2249 C2248 1.370 . S
C2249 C2253 1.408 . S
C2250 C2248 1.363 . S
C2250 C2251 1.370 . S
C2250 C2254 1.524 . S
C2251 C2243 1.503 . S
C2251 C2250 1.370 . S
C2251 C2252 1.403 . S
C2252 C2251 1.403 . S
C2252 C2253 1.404 . S
C2252 C2255 1.539 . S
C2253 C2249 1.408 . S
C2253 C2252 1.404 . S
C2253 H2265 0.930 . S
C2254 C2250 1.524 . S
C2254 H2266 0.956 . S
C2254 H2267 0.961 . S
C2254 H2268 0.961 . S
C2255 C2252 1.539 . S
C2255 H2269 0.958 . S
C2255 H2270 0.961 . S
C2255 H2271 0.960 . S
H2256 C2240 0.931 . S
H2257 C2245 0.929 . S
H2258 C2246 0.960 . S
H2259 C2246 0.962 . S
H2260 C2246 0.960 . S
H2261 C2247 0.961 . S
H2262 C2247 0.961 . S
H2263 C2247 0.961 . S
H2264 C2248 0.931 . S
H2265 C2253 0.930 . S
H2266 C2254 0.956 . S
H2267 C2254 0.961 . S
H2268 C2254 0.961 . S
H2269 C2255 0.958 . S
H2270 C2255 0.961 . S
H2271 C2255 0.960 . S
C2272 C2273 1.391 . S
C2272 C2274 1.394 . S
C2272 H2288 0.931 . S
C2273 C2272 1.391 . S
C2273 C2277 1.376 . S
C2274 C2272 1.394 . S
C2274 C2275 1.369 . S
C2274 C2278 1.531 . S
C2275 C2274 1.369 . S
C2275 C2276 1.410 . S
C2275 C2283 1.503 . S
C2276 C2275 1.410 . S
C2276 C2277 1.392 . S
C2276 C2279 1.511 . S
C2277 C2273 1.376 . S
C2277 C2276 1.392 . S
C2277 H2289 0.929 . S
C2278 C2274 1.531 . S
C2278 H2290 0.960 . S
C2278 H2291 0.962 . S
C2278 H2292 0.960 . S
C2279 C2276 1.511 . S
C2279 H2293 0.961 . S
C2279 H2294 0.961 . S
C2279 H2295 0.961 . S
C2280 C2281 1.370 . S
C2280 C2282 1.363 . S
C2280 H2296 0.931 . S
C2281 C2280 1.370 . S
C2281 C2285 1.408 . S
C2282 C2280 1.363 . S
C2282 C2283 1.370 . S
C2282 C2286 1.524 . S
C2283 C2275 1.503 . S
C2283 C2282 1.370 . S
C2283 C2284 1.403 . S
C2284 C2283 1.403 . S
C2284 C2285 1.404 . S
C2284 C2287 1.539 . S
C2285 C2281 1.408 . S
C2285 C2284 1.404 . S
C2285 H2297 0.930 . S
C2286 C2282 1.524 . S
C2286 H2298 0.956 . S
C2286 H2299 0.961 . S
C2286 H2300 0.961 . S
C2287 C2284 1.539 . S
C2287 H2301 0.958 . S
C2287 H2302 0.961 . S
C2287 H2303 0.960 . S
H2288 C2272 0.931 . S
H2289 C2277 0.929 . S
H2290 C2278 0.960 . S
H2291 C2278 0.962 . S
H2292 C2278 0.960 . S
H2293 C2279 0.961 . S
H2294 C2279 0.961 . S
H2295 C2279 0.961 . S
H2296 C2280 0.931 . S
H2297 C2285 0.930 . S
H2298 C2286 0.956 . S
H2299 C2286 0.961 . S
H2300 C2286 0.961 . S
H2301 C2287 0.958 . S
H2302 C2287 0.961 . S
H2303 C2287 0.960 . S
C2304 C2305 1.391 . S
C2304 C2306 1.394 . S
C2304 H2320 0.931 . S
C2305 C2304 1.391 . S
C2305 C2309 1.376 . S
C2306 C2304 1.394 . S
C2306 C2307 1.369 . S
C2306 C2310 1.531 . S
C2307 C2306 1.369 . S
C2307 C2308 1.410 . S
C2307 C2315 1.503 . S
C2308 C2307 1.410 . S
C2308 C2309 1.392 . S
C2308 C2311 1.511 . S
C2309 C2305 1.376 . S
C2309 C2308 1.392 . S
C2309 H2321 0.929 . S
C2310 C2306 1.531 . S
C2310 H2322 0.960 . S
C2310 H2323 0.962 . S
C2310 H2324 0.960 . S
C2311 C2308 1.511 . S
C2311 H2325 0.961 . S
C2311 H2326 0.961 . S
C2311 H2327 0.961 . S
C2312 C2313 1.370 . S
C2312 C2314 1.363 . S
C2312 H2328 0.931 . S
C2313 C2312 1.370 . S
C2313 C2317 1.408 . S
C2314 C2312 1.363 . S
C2314 C2315 1.370 . S
C2314 C2318 1.524 . S
C2315 C2307 1.503 . S
C2315 C2314 1.370 . S
C2315 C2316 1.403 . S
C2316 C2315 1.403 . S
C2316 C2317 1.404 . S
C2316 C2319 1.539 . S
C2317 C2313 1.408 . S
C2317 C2316 1.404 . S
C2317 H2329 0.930 . S
C2318 C2314 1.524 . S
C2318 H2330 0.956 . S
C2318 H2331 0.961 . S
C2318 H2332 0.961 . S
C2319 C2316 1.539 . S
C2319 H2333 0.958 . S
C2319 H2334 0.961 . S
C2319 H2335 0.960 . S
H2320 C2304 0.931 . S
H2321 C2309 0.929 . S
H2322 C2310 0.960 . S
H2323 C2310 0.962 . S
H2324 C2310 0.960 . S
H2325 C2311 0.961 . S
H2326 C2311 0.961 . S
H2327 C2311 0.961 . S
H2328 C2312 0.931 . S
H2329 C2317 0.930 . S
H2330 C2318 0.956 . S
H2331 C2318 0.961 . S
H2332 C2318 0.961 . S
H2333 C2319 0.958 . S
H2334 C2319 0.961 . S
H2335 C2319 0.960 . S
C2336 C2337 1.391 . S
C2336 C2338 1.394 . S
C2336 H2352 0.931 . S
C2337 C2336 1.391 . S
C2337 C2341 1.376 . S
C2338 C2336 1.394 . S
C2338 C2339 1.369 . S
C2338 C2342 1.531 . S
C2339 C2338 1.369 . S
C2339 C2340 1.410 . S
C2339 C2347 1.503 . S
C2340 C2339 1.410 . S
C2340 C2341 1.392 . S
C2340 C2343 1.511 . S
C2341 C2337 1.376 . S
C2341 C2340 1.392 . S
C2341 H2353 0.929 . S
C2342 C2338 1.531 . S
C2342 H2354 0.960 . S
C2342 H2355 0.962 . S
C2342 H2356 0.960 . S
C2343 C2340 1.511 . S
C2343 H2357 0.961 . S
C2343 H2358 0.961 . S
C2343 H2359 0.961 . S
C2344 C2345 1.370 . S
C2344 C2346 1.363 . S
C2344 H2360 0.931 . S
C2345 C2344 1.370 . S
C2345 C2349 1.408 . S
C2346 C2344 1.363 . S
C2346 C2347 1.370 . S
C2346 C2350 1.524 . S
C2347 C2339 1.503 . S
C2347 C2346 1.370 . S
C2347 C2348 1.403 . S
C2348 C2347 1.403 . S
C2348 C2349 1.404 . S
C2348 C2351 1.539 . S
C2349 C2345 1.408 . S
C2349 C2348 1.404 . S
C2349 H2361 0.930 . S
C2350 C2346 1.524 . S
C2350 H2362 0.956 . S
C2350 H2363 0.961 . S
C2350 H2364 0.961 . S
C2351 C2348 1.539 . S
C2351 H2365 0.958 . S
C2351 H2366 0.961 . S
C2351 H2367 0.960 . S
H2352 C2336 0.931 . S
H2353 C2341 0.929 . S
H2354 C2342 0.960 . S
H2355 C2342 0.962 . S
H2356 C2342 0.960 . S
H2357 C2343 0.961 . S
H2358 C2343 0.961 . S
H2359 C2343 0.961 . S
H2360 C2344 0.931 . S
H2361 C2349 0.930 . S
H2362 C2350 0.956 . S
H2363 C2350 0.961 . S
H2364 C2350 0.961 . S
H2365 C2351 0.958 . S
H2366 C2351 0.961 . S
H2367 C2351 0.960 . S
C2368 C2369 1.391 . S
C2368 C2370 1.394 . S
C2368 H2384 0.931 . S
C2369 C2368 1.391 . S
C2369 C2373 1.376 . S
C2370 C2368 1.394 . S
C2370 C2371 1.369 . S
C2370 C2374 1.531 . S
C2371 C2370 1.369 . S
C2371 C2372 1.410 . S
C2371 C2379 1.503 . S
C2372 C2371 1.410 . S
C2372 C2373 1.392 . S
C2372 C2375 1.511 . S
C2373 C2369 1.376 . S
C2373 C2372 1.392 . S
C2373 H2385 0.929 . S
C2374 C2370 1.531 . S
C2374 H2386 0.960 . S
C2374 H2387 0.962 . S
C2374 H2388 0.960 . S
C2375 C2372 1.511 . S
C2375 H2389 0.961 . S
C2375 H2390 0.961 . S
C2375 H2391 0.961 . S
C2376 C2377 1.370 . S
C2376 C2378 1.363 . S
C2376 H2392 0.931 . S
C2377 C2376 1.370 . S
C2377 C2381 1.408 . S
C2378 C2376 1.363 . S
C2378 C2379 1.370 . S
C2378 C2382 1.524 . S
C2379 C2371 1.503 . S
C2379 C2378 1.370 . S
C2379 C2380 1.403 . S
C2380 C2379 1.403 . S
C2380 C2381 1.404 . S
C2380 C2383 1.539 . S
C2381 C2377 1.408 . S
C2381 C2380 1.404 . S
C2381 H2393 0.930 . S
C2382 C2378 1.524 . S
C2382 H2394 0.956 . S
C2382 H2395 0.961 . S
C2382 H2396 0.961 . S
C2383 C2380 1.539 . S
C2383 H2397 0.958 . S
C2383 H2398 0.961 . S
C2383 H2399 0.960 . S
H2384 C2368 0.931 . S
H2385 C2373 0.929 . S
H2386 C2374 0.960 . S
H2387 C2374 0.962 . S
H2388 C2374 0.960 . S
H2389 C2375 0.961 . S
H2390 C2375 0.961 . S
H2391 C2375 0.961 . S
H2392 C2376 0.931 . S
H2393 C2381 0.930 . S
H2394 C2382 0.956 . S
H2395 C2382 0.961 . S
H2396 C2382 0.961 . S
H2397 C2383 0.958 . S
H2398 C2383 0.961 . S
H2399 C2383 0.960 . S
C873 C689 1.512 . S
C865 C75 1.415 . S
C905 C694 0.635 . S
C897 C156 0.575 . S
C937 C695 1.535 . S
C929 C243 1.453 . S
C961 C315 0.647 . S
C969 C699 0.772 . S
C993 C399 0.796 . S
C1001 C702 0.602 . S
C1033 C703 1.516 . S
C1025 C495 1.443 . S
C1057 C576 1.172 . S
C1065 C680 1.227 . S
C1089 C654 1.409 . S
C1097 C696 1.498 . S
C1129 C734 0.908 . S
C1121 C72 0.858 . S
C1153 C140 1.274 . S
C1161 C760 1.331 . S
C1193 C712 0.894 . S
C1185 C240 0.833 . S
C1225 C767 1.010 . S
C1217 C318 1.012 . S
C1249 C402 1.034 . S
C1257 C721 0.978 . S
C1289 C763 1.524 1_556 S
C1281 C492 1.470 . S
C1313 C560 1.333 . S
C1321 C727 1.351 . S
C1345 C655 2.640 . S
C1353 C758 2.746 . S
C1377 C56 2.878 . S
C1385 C766 2.966 . S
C1409 C403 1.683 . S
C1417 C753 1.770 . S
C1449 C731 2.161 . S
C1441 C476 2.095 . S
C1481 C759 1.821 . S
C1473 C579 1.784 . S
C1505 C651 1.130 . S
C1513 C726 1.122 . S
C1537 C224 2.947 . S
C1545 C744 3.069 . S
C1577 C735 1.733 . S
C1569 C319 1.639 . S
C1601 C159 1.805 . S
C1609 C728 1.883 . S
C1633 C663 1.335 . S
C1641 C790 1.404 . S
C1665 C408 0.981 . S
C1673 C785 0.378 . S
C1705 C799 1.402 . S
C1697 C486 1.417 . S
C1737 C776 1.202 . S
C1729 C567 1.180 . S
C1761 C147 0.770 . S
C1769 C792 0.590 . S
C1801 C791 1.454 . S
C1793 C234 1.389 . S
C1825 C324 0.733 . S
C1833 C795 0.748 . S
C1857 C66 1.349 . S
C1865 C798 1.455 . S
C1889 C660 1.180 . S
C1897 C824 1.187 . S
C1929 C840 1.707 . S
C1921 C392 1.706 . S
C1953 C487 2.115 . S
C1961 C822 2.231 . S
C1985 C570 1.802 . S
C1993 C855 1.781 . S
C2025 C831 1.847 . S
C2017 C150 1.805 . S
C2049 C235 3.022 . S
C2057 C849 3.099 . S
C2089 C827 1.664 . S
C2081 C308 1.680 . S
C2121 C862 3.048 . S
C2113 C67 2.928 . S
C2153 C854 2.746 . S
C2145 C644 2.664 . S
C2177 C151 1.347 . S
C2185 C859 1.335 . S
C2209 C231 0.861 . S
C2217 C830 0.896 . S
C2249 C863 1.012 . S
C2241 C327 0.949 . S
C2273 C63 0.838 . S
C2281 C817 0.919 . S
C2305 C483 1.430 . S
C2313 C856 1.536 . S
C2345 C808 1.357 . S
C2337 C571 1.280 . S
C2377 C823 0.986 . S
C2369 C411 0.987 . S
