# Generated by pormake.
# Topology zzz, (3,6)-cn, num edge types: 1
# Building blocks:
#     Node 0, Type 0, BuildingBlock: OLANEW_clean_sbu_2, # of connection points: 3
#     Node 1, Type 0, BuildingBlock: OLANEW_clean_sbu_2, # of connection points: 3
#     Node 2, Type 0, BuildingBlock: OLANEW_clean_sbu_2, # of connection points: 3
#     Node 3, Type 0, BuildingBlock: OLANEW_clean_sbu_2, # of connection points: 3
#     Node 4, Type 0, BuildingBlock: OLANEW_clean_sbu_2, # of connection points: 3
#     Node 5, Type 0, BuildingBlock: OLANEW_clean_sbu_2, # of connection points: 3
#     Node 6, Type 0, BuildingBlock: OLANEW_clean_sbu_2, # of connection points: 3
#     Node 7, Type 0, BuildingBlock: OLANEW_clean_sbu_2, # of connection points: 3
#     Node 8, Type 1, BuildingBlock: LEVNOQ01_clean_sbu_1, # of connection points: 6
#     Node 9, Type 1, BuildingBlock: LEVNOQ01_clean_sbu_1, # of connection points: 6
#     Node 10, Type 1, BuildingBlock: LEVNOQ01_clean_sbu_1, # of connection points: 6
#     Node 11, Type 1, BuildingBlock: LEVNOQ01_clean_sbu_1, # of connection points: 6
#     Edge 12, Type (0, 1), BuildingBlock: UVAHIK_clean_linker_0, # of connection points: 2
#     Edge 13, Type (0, 1), BuildingBlock: UVAHIK_clean_linker_0, # of connection points: 2
#     Edge 14, Type (0, 1), BuildingBlock: UVAHIK_clean_linker_0, # of connection points: 2
#     Edge 15, Type (0, 1), BuildingBlock: UVAHIK_clean_linker_0, # of connection points: 2
#     Edge 16, Type (0, 1), BuildingBlock: UVAHIK_clean_linker_0, # of connection points: 2
#     Edge 17, Type (0, 1), BuildingBlock: UVAHIK_clean_linker_0, # of connection points: 2
#     Edge 18, Type (0, 1), BuildingBlock: UVAHIK_clean_linker_0, # of connection points: 2
#     Edge 19, Type (0, 1), BuildingBlock: UVAHIK_clean_linker_0, # of connection points: 2
#     Edge 20, Type (0, 1), BuildingBlock: UVAHIK_clean_linker_0, # of connection points: 2
#     Edge 21, Type (0, 1), BuildingBlock: UVAHIK_clean_linker_0, # of connection points: 2
#     Edge 22, Type (0, 1), BuildingBlock: UVAHIK_clean_linker_0, # of connection points: 2
#     Edge 23, Type (0, 1), BuildingBlock: UVAHIK_clean_linker_0, # of connection points: 2
#     Edge 24, Type (0, 1), BuildingBlock: UVAHIK_clean_linker_0, # of connection points: 2
#     Edge 25, Type (0, 1), BuildingBlock: UVAHIK_clean_linker_0, # of connection points: 2
#     Edge 26, Type (0, 1), BuildingBlock: UVAHIK_clean_linker_0, # of connection points: 2
#     Edge 27, Type (0, 1), BuildingBlock: UVAHIK_clean_linker_0, # of connection points: 2
#     Edge 28, Type (0, 1), BuildingBlock: UVAHIK_clean_linker_0, # of connection points: 2
#     Edge 29, Type (0, 1), BuildingBlock: UVAHIK_clean_linker_0, # of connection points: 2
#     Edge 30, Type (0, 1), BuildingBlock: UVAHIK_clean_linker_0, # of connection points: 2
#     Edge 31, Type (0, 1), BuildingBlock: UVAHIK_clean_linker_0, # of connection points: 2
#     Edge 32, Type (0, 1), BuildingBlock: UVAHIK_clean_linker_0, # of connection points: 2
#     Edge 33, Type (0, 1), BuildingBlock: UVAHIK_clean_linker_0, # of connection points: 2
#     Edge 34, Type (0, 1), BuildingBlock: UVAHIK_clean_linker_0, # of connection points: 2
#     Edge 35, Type (0, 1), BuildingBlock: UVAHIK_clean_linker_0, # of connection points: 2
# Relax obj value: 0.138
# Max RMSD: 0.185
# Mean RMSD: 0.112
data_MOF--net-zzz--node1-OLANEW_clean_sbu_2--node2-LEVNOQ01_clean_sbu_1--edge1-UVAHIK_clean_linker_0
_symmetry_space_group_name_H-M    P1
_symmetry_Int_Tables_number       1
_symmetry_cell_setting            triclinic
loop_
_symmetry_equiv_pos_as_xyz
'x, y, z'
_cell_length_a     66.643983
_cell_length_b     66.668452
_cell_length_c     22.303188
_cell_angle_alpha  89.974791
_cell_angle_beta   89.839252
_cell_angle_gamma 89.980158
loop_
_atom_site_label
_atom_site_type_symbol
_atom_site_fract_x
_atom_site_fract_y
_atom_site_fract_z
_atom_type_partial_charge
O0 O 0.77059 0.57586 0.04832 0.0
Cd1 Cd 0.77513 0.59835 0.9638 0.0
O2 O 0.77452 0.55136 0.1118 0.0
Cd3 Cd 0.79239 0.52958 0.15995 0.0
O4 O 0.82137 0.52856 0.20226 0.0
C5 C 0.82396 0.54244 0.24035 0.0
O6 O 0.80903 0.55467 0.25252 0.0
C7 C 0.7817 0.56224 0.07006 0.0
C8 C 0.73709 0.59655 0.91421 0.0
O9 O 0.74167 0.61074 0.95042 0.0
O10 O 0.75097 0.58437 0.89801 0.0
O11 O 0.92105 0.78638 0.08059 0.0
Cd12 Cd 0.91273 0.75606 0.13667 0.0
O13 O 0.9509 0.78138 0.11807 0.0
Cd14 Cd 0.98172 0.78885 0.14134 0.0
O15 O 0.9939 0.8075 0.21168 0.0
C16 C 0.00137 0.82446 0.19874 0.0
O17 O 0.00491 0.82878 0.1422 0.0
C18 C 0.93904 0.79221 0.0873 0.0
C19 C 0.92682 0.72255 0.07626 0.0
O20 O 0.90821 0.72732 0.07408 0.0
O21 O 0.93865 0.73342 0.10766 0.0
O22 O 0.73462 0.92015 0.10659 0.0
Cd23 Cd 0.76737 0.90938 0.14417 0.0
O24 O 0.74343 0.95191 0.1028 0.0
Cd25 Cd 0.733 0.9829 0.09813 0.0
O26 O 0.70546 0.99159 0.14371 0.0
C27 C 0.7046 0.98411 0.19602 0.0
O28 O 0.72016 0.97404 0.21606 0.0
C29 C 0.73029 0.93831 0.09518 0.0
C30 C 0.79974 0.9243 0.07853 0.0
O31 O 0.79449 0.93259 0.12799 0.0
O32 O 0.7896 0.90921 0.06004 0.0
O33 O 0.60674 0.73718 0.06369 0.0
Cd34 Cd 0.61409 0.76787 0.11971 0.0
O35 O 0.5779 0.74061 0.10915 0.0
Cd36 Cd 0.54819 0.732 0.14136 0.0
O37 O 0.53464 0.71175 0.20589 0.0
C38 C 0.52749 0.69525 0.1874 0.0
O39 O 0.52552 0.69239 0.12944 0.0
C40 C 0.58942 0.73029 0.07549 0.0
C41 C 0.59999 0.80202 0.06221 0.0
O42 O 0.61856 0.79714 0.05926 0.0
O43 O 0.58809 0.7908 0.0925 0.0
O44 O 0.24029 0.46928 0.33882 0.0
Cd45 Cd 0.2727 0.46549 0.28917 0.0
O46 O 0.23618 0.43664 0.33998 0.0
Cd47 Cd 0.21538 0.41136 0.33791 0.0
O48 O 0.18964 0.41353 0.27859 0.0
C49 C 0.19328 0.42585 0.23647 0.0
O50 O 0.2113 0.43378 0.23288 0.0
C51 C 0.22948 0.45414 0.35102 0.0
C52 C 0.30386 0.46535 0.37136 0.0
O53 O 0.29619 0.48181 0.35253 0.0
O54 O 0.29685 0.44881 0.35098 0.0
O55 O 0.07934 0.24388 0.37907 0.0
Cd56 Cd 0.09672 0.27234 0.33366 0.0
O57 O 0.10646 0.22782 0.35221 0.0
Cd58 Cd 0.12197 0.20064 0.32443 0.0
O59 O 0.11466 0.17795 0.25839 0.0
C60 C 0.09658 0.17951 0.24112 0.0
O61 O 0.08531 0.19369 0.26438 0.0
C62 C 0.08906 0.22754 0.37579 0.0
C63 C 0.08785 0.30827 0.39046 0.0
O64 O 0.07821 0.30294 0.34343 0.0
O65 O 0.1016 0.2966 0.41029 0.0
O66 O 0.28032 0.06696 0.35977 0.0
Cd67 Cd 0.24904 0.07381 0.30715 0.0
O68 O 0.29126 0.09563 0.32635 0.0
Cd69 Cd 0.31098 0.11981 0.29601 0.0
O70 O 0.33491 0.11504 0.23124 0.0
C71 C 0.33274 0.09805 0.2063 0.0
O72 O 0.31684 0.0873 0.21986 0.0
C73 C 0.2946 0.07946 0.35531 0.0
C74 C 0.21707 0.0693 0.38566 0.0
O75 O 0.22434 0.05422 0.35733 0.0
O76 O 0.22469 0.08664 0.37584 0.0
O77 O 0.46584 0.27775 0.33201 0.0
Cd78 Cd 0.45429 0.24835 0.27666 0.0
O79 O 0.43436 0.2868 0.3273 0.0
Cd80 Cd 0.41191 0.31039 0.32197 0.0
O81 O 0.41376 0.33365 0.25428 0.0
C82 C 0.42021 0.35102 0.26727 0.0
O83 O 0.4232 0.35568 0.32375 0.0
C84 C 0.45231 0.29068 0.34268 0.0
C85 C 0.45595 0.21356 0.34484 0.0
O86 O 0.47051 0.21853 0.31019 0.0
O87 O 0.44058 0.22509 0.34717 0.0
O88 O 0.00972 0.96361 0.73826 0.0
Mg89 Mg 0.02577 0.98258 0.67881 0.0
O90 O 0.99638 0.98905 0.78751 0.0
Mg91 Mg 0.00075 0.01378 0.71425 0.0
O92 O 0.03579 0.00961 0.70814 0.0
O93 O 0.05569 0.98299 0.69095 0.0
O94 O 0.00526 0.03859 0.64066 0.0
O95 O 0.00832 0.03709 0.78708 0.0
Mg96 Mg 0.96602 0.04984 0.71476 0.0
O97 O 0.96788 0.01988 0.72469 0.0
O98 O 0.97778 0.05703 0.62886 0.0
O99 O 0.98417 0.0604 0.78755 0.0
O100 O 0.93852 0.03477 0.72936 0.0
C101 C 0.99822 0.98473 0.59119 0.0
C102 C -0.00038 0.97029 0.78206 0.0
C103 C 0.05365 0.0018 0.70328 0.0
C104 C 0.99547 0.05224 0.61291 0.0
C105 C 0.00056 0.05322 0.8078 0.0
C106 C 0.94892 0.01861 0.73482 0.0
O107 O 0.01707 0.98379 0.58901 0.0
O108 O 0.98979 0.99155 0.63829 0.0
O109 O 0.46746 0.98923 0.78627 0.0
Mg110 Mg 0.4801 0.97619 0.70737 0.0
O111 O 0.49124 0.01223 0.79791 0.0
Mg112 Mg 0.51435 0.00843 0.72183 0.0
O113 O 0.51037 0.97396 0.71941 0.0
O114 O 0.49056 0.94736 0.70809 0.0
O115 O 0.53767 0.00549 0.64497 0.0
O116 O 0.53969 0.00214 0.79528 0.0
Mg117 Mg 0.54842 0.04413 0.73581 0.0
O118 O 0.51861 0.04201 0.72365 0.0
O119 O 0.56073 0.02939 0.65884 0.0
O120 O 0.55537 0.03053 0.81773 0.0
O121 O 0.53319 0.07159 0.73078 0.0
C122 C 0.47595 0.00713 0.61773 0.0
C123 C 0.47486 0.00402 0.81465 0.0
C124 C 0.5082 0.9546 0.7181 0.0
C125 C 0.55387 0.01444 0.62977 0.0
C126 C 0.55228 0.01203 0.82721 0.0
C127 C 0.5172 0.06128 0.72083 0.0
O128 O 0.47183 0.98878 0.6247 0.0
O129 O 0.48907 0.01566 0.65078 0.0
O130 O 0.53489 0.45985 0.78509 0.0
Mg131 Mg 0.55016 0.47219 0.7079 0.0
O132 O 0.51249 0.48419 0.80275 0.0
Mg133 Mg 0.51495 0.50828 0.72955 0.0
O134 O 0.54734 0.5018 0.7213 0.0
O135 O 0.5774 0.4889 0.71461 0.0
O136 O 0.51756 0.53241 0.65541 0.0
O137 O 0.52431 0.53275 0.80105 0.0
Mg138 Mg 0.48144 0.54375 0.75494 0.0
O139 O 0.48159 0.51394 0.74023 0.0
O140 O 0.49357 0.55517 0.67276 0.0
O141 O 0.49799 0.55017 0.83314 0.0
O142 O 0.45321 0.53006 0.75733 0.0
C143 C 0.5158 0.47158 0.6209 0.0
C144 C 0.5205 0.46733 0.81573 0.0
C145 C 0.56632 0.50435 0.72463 0.0
C146 C 0.50814 0.54844 0.64152 0.0
C147 C 0.51647 0.54578 0.8362 0.0
C148 C 0.46224 0.51369 0.74256 0.0
O149 O 0.53431 0.4675 0.62712 0.0
O150 O 0.50671 0.48388 0.656 0.0
O151 O 0.97226 0.49505 0.84355 0.0
Mg152 Mg 0.97647 0.48177 0.75889 0.0
O153 O 0.98821 0.523 0.81694 0.0
Mg154 Mg 0.01339 0.51562 0.74406 0.0
O155 O 0.00606 0.48295 0.74371 0.0
O156 O 0.99092 0.45377 0.74599 0.0
O157 O 0.03775 0.50744 0.67048 0.0
O158 O 0.03662 0.5097 0.81891 0.0
Mg159 Mg 0.05031 0.54708 0.73066 0.0
O160 O 0.0203 0.54924 0.74351 0.0
O161 O 0.05639 0.53387 0.64703 0.0
O162 O 0.06155 0.53161 0.80742 0.0
O163 O 0.03958 0.57621 0.73543 0.0
C164 C 0.97326 0.51354 0.65576 0.0
C165 C 0.97578 0.51359 0.85091 0.0
C166 C 0.007 0.46391 0.73582 0.0
C167 C 0.05106 0.51592 0.63761 0.0
C168 C 0.05353 0.51692 0.83504 0.0
C169 C 0.02208 0.56857 0.74491 0.0
O170 O 0.96509 0.49917 0.6848 0.0
O171 O 0.99037 0.52073 0.66966 0.0
C172 C 0.18986 0.08317 0.45128 0.0
C173 C 0.20083 0.06661 0.42999 0.0
C174 C 0.17482 0.08056 0.49442 0.0
C175 C 0.1587 0.04737 0.61505 0.0
H176 H 0.10427 0.06291 0.57556 0.0
C177 C 0.09074 0.00549 0.70229 0.0
C178 C 0.07174 0.01459 0.70316 0.0
C179 C 0.10767 0.01642 0.68586 0.0
C180 C 0.11942 0.05898 0.58851 0.0
H181 H 0.20475 0.03439 0.4372 0.0
H182 H 0.17873 0.02993 0.51322 0.0
H183 H 0.13185 0.07324 0.51065 0.0
H184 H 0.05587 0.04283 0.69438 0.0
H185 H 0.08567 0.06217 0.66684 0.0
H186 H 0.14644 0.03289 0.69236 0.0
C187 C 0.18178 0.04489 0.49649 0.0
C188 C 0.13518 0.0648 0.55094 0.0
C189 C 0.19653 0.04743 0.45267 0.0
C190 C 0.07031 0.03537 0.69355 0.0
C191 C 0.08735 0.04639 0.67721 0.0
C192 C 0.14302 0.04185 0.65319 0.0
C193 C 0.17083 0.06142 0.51776 0.0
C194 C 0.15481 0.05835 0.56269 0.0
C195 C 0.10605 0.0368 0.67032 0.0
C196 C 0.12306 0.04681 0.63895 0.0
H197 H 0.19283 0.09812 0.43443 0.0
H198 H 0.16647 0.0935 0.51006 0.0
H199 H 0.17382 0.04251 0.6254 0.0
H200 H 0.09238 0.98953 0.71013 0.0
H201 H 0.12169 0.00839 0.68079 0.0
C202 C 0.44318 0.19191 0.4285 0.0
C203 C 0.45711 0.19529 0.38212 0.0
C204 C 0.44513 0.17526 0.46619 0.0
C205 C 0.48405 0.14148 0.52199 0.0
H206 H 0.43997 0.10889 0.58137 0.0
C207 C 0.49237 0.06579 0.63966 0.0
C208 C 0.49957 0.07152 0.69615 0.0
C209 C 0.48092 0.07914 0.6056 0.0
C210 C 0.45229 0.118 0.56508 0.0
H211 H 0.4834 0.18336 0.33695 0.0
H212 H 0.48664 0.15423 0.40211 0.0
H213 H 0.43336 0.13593 0.50855 0.0
H214 H 0.49946 0.09492 0.76335 0.0
H215 H 0.47953 0.11835 0.70347 0.0
H216 H 0.50293 0.12371 0.57833 0.0
C217 C 0.47445 0.16466 0.41017 0.0
C218 C 0.44858 0.13341 0.52373 0.0
C219 C 0.47257 0.18132 0.37277 0.0
C220 C 0.49373 0.09006 0.72033 0.0
C221 C 0.48233 0.10341 0.68626 0.0
C222 C 0.48769 0.12632 0.56337 0.0
C223 C 0.46101 0.16166 0.45804 0.0
C224 C 0.46449 0.14521 0.50154 0.0
C225 C 0.47671 0.09837 0.62764 0.0
C226 C 0.4719 0.1145 0.58514 0.0
H227 H 0.4311 0.20243 0.4368 0.0
H228 H 0.43466 0.17344 0.50301 0.0
H229 H 0.49658 0.15049 0.50661 0.0
H230 H 0.4974 0.05198 0.61905 0.0
H231 H 0.47711 0.0752 0.55989 0.0
C232 C 0.33343 0.44912 0.42081 0.0
C233 C 0.32038 0.46557 0.41519 0.0
C234 C 0.34966 0.44992 0.46042 0.0
C235 C 0.3816 0.487 0.5362 0.0
H236 H 0.39875 0.44248 0.63602 0.0
C237 C 0.43142 0.49285 0.74363 0.0
C238 C 0.45029 0.49705 0.71845 0.0
C239 C 0.41695 0.48261 0.71033 0.0
C240 C 0.39409 0.45489 0.60795 0.0
H241 H 0.31343 0.49532 0.44844 0.0
H242 H 0.34132 0.49654 0.51848 0.0
H243 H 0.36954 0.43851 0.5696 0.0
H244 H 0.46925 0.493 0.64056 0.0
H245 H 0.44395 0.47511 0.58231 0.0
H246 H 0.40591 0.50341 0.5748 0.0
C247 C 0.33945 0.48325 0.49114 0.0
C248 C 0.3775 0.45267 0.56999 0.0
C249 C 0.32343 0.48254 0.45116 0.0
C250 C 0.45511 0.48931 0.66177 0.0
C251 C 0.44059 0.47925 0.62824 0.0
C252 C 0.39815 0.48913 0.57352 0.0
C253 C 0.35299 0.46713 0.49542 0.0
C254 C 0.37094 0.46883 0.53432 0.0
C255 C 0.42116 0.47669 0.65132 0.0
C256 C 0.40443 0.47319 0.60981 0.0
H257 H 0.33142 0.43586 0.39341 0.0
H258 H 0.35992 0.43733 0.46233 0.0
H259 H 0.37718 0.49962 0.50864 0.0
H260 H 0.42728 0.49899 0.78691 0.0
H261 H 0.40191 0.4811 0.7284 0.0
C262 C 0.08951 0.33025 0.48078 0.0
C263 C 0.08314 0.32723 0.42156 0.0
C264 C 0.08462 0.34788 0.51116 0.0
C265 C 0.04857 0.39022 0.50652 0.0
H266 H 0.08306 0.41134 0.63138 0.0
C267 C 0.02628 0.4594 0.64254 0.0
C268 C 0.02349 0.45443 0.70307 0.0
C269 C 0.03742 0.44681 0.60515 0.0
C270 C 0.07341 0.40564 0.59628 0.0
H271 H 0.06715 0.3405 0.34691 0.0
H272 H 0.05926 0.37165 0.39898 0.0
H273 H 0.09482 0.38358 0.56884 0.0
H274 H 0.03059 0.43317 0.77312 0.0
H275 H 0.05105 0.41155 0.7082 0.0
H276 H 0.02727 0.41244 0.53392 0.0
C277 C 0.06752 0.36018 0.42282 0.0
C278 C 0.08 0.38965 0.5608 0.0
C279 C 0.07212 0.34236 0.39278 0.0
C280 C 0.03303 0.43747 0.72681 0.0
C281 C 0.04463 0.42514 0.68974 0.0
C282 C 0.04218 0.40642 0.54117 0.0
C283 C 0.07352 0.36309 0.48269 0.0
C284 C 0.06747 0.38142 0.51635 0.0
C285 C 0.04622 0.42931 0.62816 0.0
C286 C 0.05437 0.414 0.58704 0.0
H287 H 0.09791 0.31878 0.50426 0.0
H288 H 0.08914 0.34931 0.55755 0.0
H289 H 0.0383 0.38413 0.47369 0.0
H290 H 0.0186 0.47217 0.62315 0.0
H291 H 0.03845 0.45026 0.55776 0.0
C292 C 0.8184 0.92825 0.98211 0.0
C293 C 0.81721 0.93162 0.04408 0.0
C294 C 0.83511 0.93466 0.94941 0.0
C295 C 0.87976 0.96834 0.95904 0.0
H296 H 0.89513 0.93955 0.81485 0.0
C297 C 0.9469 0.9927 0.81452 0.0
C298 C 0.93954 0.00063 0.76056 0.0
C299 C 0.93494 0.97989 0.84912 0.0
C300 C 0.89111 0.94755 0.85543 0.0
H301 H 0.83261 0.94415 0.1208 0.0
H302 H 0.86227 0.95445 0.06459 0.0
H303 H 0.86821 0.92647 0.87819 0.0
H304 H 0.91475 0.00051 0.69816 0.0
H305 H 0.89412 0.97743 0.7575 0.0
H306 H 0.90301 0.98921 0.93618 0.0
C307 C 0.85005 0.94749 0.04045 0.0
C308 C 0.8755 0.94027 0.8914 0.0
C309 C 0.83308 0.9415 0.07289 0.0
C310 C 0.9208 0.99431 0.73924 0.0
C311 C 0.90904 0.98117 0.77313 0.0
C312 C 0.89566 0.97532 0.92383 0.0
C313 C 0.85133 0.94416 0.97814 0.0
C314 C 0.86922 0.95086 0.9429 0.0
C315 C 0.91564 0.97462 0.82955 0.0
C316 C 0.90116 0.96522 0.87113 0.0
H317 H 0.80626 0.92086 0.95866 0.0
H318 H 0.83512 0.93233 0.9014 0.0
H319 H 0.87528 0.97717 0.99752 0.0
H320 H 0.96102 0.99788 0.83272 0.0
H321 H 0.94025 0.97506 0.89267 0.0
C322 C 0.57269 0.81998 0.00822 0.0
C323 C 0.5924 0.81974 0.02995 0.0
C324 C 0.56582 0.83617 0.9743 0.0
C325 C 0.5842 0.87982 0.88505 0.0
H326 H 0.52761 0.89324 0.88687 0.0
C327 C 0.54101 0.94737 0.76923 0.0
C328 C 0.52427 0.94066 0.7367 0.0
C329 C 0.55276 0.93365 0.80146 0.0
C330 C 0.54347 0.88965 0.8861 0.0
H331 H 0.62016 0.83647 0.03585 0.0
H332 H 0.60788 0.86532 0.97936 0.0
H333 H 0.5403 0.86828 0.95657 0.0
H334 H 0.50852 0.9142 0.70513 0.0
H335 H 0.52884 0.89053 0.76137 0.0
H336 H 0.5871 0.90187 0.81504 0.0
C337 C 0.59793 0.85269 0.98617 0.0
C338 C 0.55075 0.87522 0.92565 0.0
C339 C 0.60494 0.83624 0.0189 0.0
C340 C 0.521 0.91992 0.73101 0.0
C341 C 0.53259 0.90633 0.76318 0.0
C342 C 0.57691 0.89461 0.84611 0.0
C343 C 0.57835 0.85276 0.96263 0.0
C344 C 0.57112 0.86967 0.92463 0.0
C345 C 0.54785 0.91317 0.80104 0.0
C346 C 0.5564 0.8992 0.84542 0.0
H347 H 0.56277 0.80734 0.01568 0.0
H348 H 0.55082 0.83537 0.95596 0.0
H349 H 0.59993 0.87589 0.88247 0.0
H350 H 0.54412 0.96322 0.77322 0.0
H351 H 0.56469 0.93914 0.8299 0.0
C352 C 0.70093 0.60708 0.9089 0.0
C353 C 0.71602 0.59282 0.89721 0.0
C354 C 0.68072 0.60238 0.8989 0.0
C355 C 0.64681 0.55985 0.89526 0.0
H356 H 0.61505 0.58827 0.77706 0.0
C357 C 0.57377 0.52608 0.81131 0.0
C358 C 0.5752 0.52257 0.74948 0.0
C359 C 0.58637 0.54008 0.83864 0.0
C360 C 0.62361 0.58044 0.81101 0.0
H361 H 0.72177 0.56258 0.86546 0.0
H362 H 0.68664 0.55439 0.84899 0.0
H363 H 0.64749 0.60204 0.80881 0.0
H364 H 0.58977 0.53132 0.66688 0.0
H365 H 0.61142 0.55632 0.7141 0.0
H366 H 0.62363 0.53774 0.89552 0.0
C367 C 0.69044 0.56917 0.86566 0.0
C368 C 0.64207 0.58831 0.82922 0.0
C369 C 0.71056 0.57395 0.8745 0.0
C370 C 0.58827 0.53413 0.71453 0.0
C371 C 0.60057 0.54844 0.7416 0.0
C372 C 0.62829 0.55213 0.87777 0.0
C373 C 0.67536 0.58324 0.87839 0.0
C374 C 0.65417 0.57757 0.86938 0.0
C375 C 0.60033 0.55093 0.80422 0.0
C376 C 0.61694 0.56189 0.83347 0.0
H377 H 0.70471 0.62171 0.92668 0.0
H378 H 0.66928 0.61346 0.9087 0.0
H379 H 0.65587 0.55142 0.9267 0.0
H380 H 0.56394 0.51701 0.83903 0.0
H381 H 0.58589 0.54173 0.88695 0.0
C382 C 0.92275 0.68835 0.03238 0.0
C383 C 0.9346 0.70544 0.04172 0.0
C384 C 0.93015 0.67229 -0.00139 0.0
C385 C 0.9779 0.65217 0.93411 0.0
H386 H 0.94189 0.62062 0.83542 0.0
C387 C 0.00558 0.60193 0.74482 0.0
C388 C 0.00565 0.58186 0.76402 0.0
C389 C 0.99354 0.61605 0.77377 0.0
C390 C 0.952 0.62937 0.86292 0.0
H391 H 0.96314 0.71955 0.02236 0.0
H392 H 0.97562 0.69226 0.96054 0.0
H393 H 0.92835 0.64765 0.89794 0.0
H394 H 0.99288 0.56074 0.82681 0.0
H395 H 0.97121 0.58544 0.87653 0.0
H396 H 0.00157 0.63437 0.89672 0.0
C397 C 0.96102 0.69061 0.98131 0.0
C398 C 0.94432 0.64472 0.89915 0.0
C399 C 0.95384 0.70637 0.01642 0.0
C400 C 0.99246 0.57588 0.80974 0.0
C401 C 0.98027 0.59002 0.83852 0.0
C402 C 0.98555 0.63717 0.89709 0.0
C403 C 0.94934 0.67326 0.97218 0.0
C404 C 0.95722 0.65643 0.93498 0.0
C405 C 0.98134 0.61028 0.82202 0.0
C406 C 0.97269 0.62578 0.86115 0.0
H407 H 0.90789 0.68728 0.05192 0.0
H408 H 0.92086 0.65908 0.99374 0.0
H409 H 0.98829 0.66036 0.96216 0.0
H410 H 0.01574 0.60693 0.70989 0.0
H411 H 0.99464 0.63169 0.76084 0.0
C412 C 0.09133 0.1926 0.41676 0.0
C413 C 0.07962 0.20842 0.39436 0.0
C414 C 0.08246 0.17437 0.43299 0.0
C415 C 0.03349 0.15239 0.47593 0.0
H416 H 0.06029 0.10174 0.44505 0.0
C417 C 0.99452 0.07867 0.53346 0.0
C418 C 0.00578 0.06527 0.56857 0.0
C419 C 0.00389 0.09437 0.50288 0.0
C420 C 0.05267 0.11577 0.4541 0.0
H421 H 0.04939 0.21768 0.37206 0.0
H422 H 0.03387 0.18583 0.3997 0.0
H423 H 0.07575 0.1331 0.41154 0.0
H424 H 0.03597 0.05685 0.59468 0.0
H425 H 0.05235 0.08437 0.54129 0.0
H426 H 0.01051 0.13519 0.51871 0.0
C427 C 0.04991 0.18751 0.40531 0.0
C428 C 0.06154 0.13376 0.43512 0.0
C429 C 0.05879 0.20576 0.38937 0.0
C430 C 0.02684 0.0669 0.56806 0.0
C431 C 0.03624 0.08271 0.53749 0.0
C432 C 0.02461 0.13446 0.49453 0.0
C433 C 0.06163 0.17156 0.42739 0.0
C434 C 0.05208 0.15231 0.44602 0.0
C435 C 0.02475 0.09712 0.50674 0.0
C436 C 0.03407 0.11594 0.48397 0.0
H437 H 0.10734 0.19442 0.42284 0.0
H438 H 0.09189 0.16263 0.45111 0.0
H439 H 0.02596 0.16636 0.48631 0.0
H440 H 0.9783 0.07769 0.53218 0.0
H441 H 0.99467 0.10491 0.47826 0.0
C442 C 0.31639 0.05712 0.41789 0.0
C443 C 0.31458 0.07415 0.38082 0.0
C444 C 0.335 0.05142 0.44117 0.0
C445 C 0.38911 0.05513 0.41468 0.0
H446 H 0.39363 0.04217 0.58365 0.0
C447 C 0.45529 0.01182 0.5255 0.0
C448 C 0.46216 0.01919 0.58073 0.0
C449 C 0.43891 0.02082 0.49691 0.0
C450 C 0.39262 0.0459 0.53647 0.0
H451 H 0.33155 0.09831 0.34004 0.0
H452 H 0.36378 0.08831 0.37964 0.0
H453 H 0.36127 0.05267 0.54301 0.0
H454 H 0.45733 0.04158 0.64952 0.0
H455 H 0.42886 0.05743 0.59943 0.0
H456 H 0.42045 0.04787 0.40808 0.0
C457 C 0.35067 0.07941 0.39052 0.0
C458 C 0.37408 0.05172 0.51315 0.0
C459 C 0.332 0.08525 0.36791 0.0
C460 C 0.45281 0.03608 0.60592 0.0
C461 C 0.4363 0.04491 0.57779 0.0
C462 C 0.40763 0.04898 0.43787 0.0
C463 C 0.35235 0.06247 0.42747 0.0
C464 C 0.37212 0.0564 0.45204 0.0
C465 C 0.42885 0.03703 0.52386 0.0
C466 C 0.40956 0.04436 0.49905 0.0
H467 H 0.3034 0.04809 0.42903 0.0
H468 H 0.33587 0.03818 0.46922 0.0
H469 H 0.38798 0.05854 0.36732 0.0
H470 H 0.46202 0.99856 0.50583 0.0
H471 H 0.43337 0.01434 0.45562 0.0
C472 C 0.44449 0.32055 0.40653 0.0
C473 C 0.45763 0.31054 0.36738 0.0
C474 C 0.44942 0.33946 0.42936 0.0
C475 C 0.45805 0.38397 0.44553 0.0
H476 H 0.51328 0.39505 0.48813 0.0
C477 C 0.51413 0.45253 0.52516 0.0
C478 C 0.50451 0.45915 0.57767 0.0
C479 C 0.50636 0.4365 0.49235 0.0
C480 C 0.49783 0.39231 0.47566 0.0
H481 H 0.48627 0.3123 0.32166 0.0
H482 H 0.49465 0.34555 0.35974 0.0
H483 H 0.50444 0.36233 0.4483 0.0
H484 H 0.4787 0.4548 0.63528 0.0
H485 H 0.46473 0.42707 0.57691 0.0
H486 H 0.4515 0.41394 0.47529 0.0
C487 C 0.48069 0.33871 0.37396 0.0
C488 C 0.49274 0.37351 0.45271 0.0
C489 C 0.47588 0.31968 0.35188 0.0
C490 C 0.4861 0.45045 0.59405 0.0
C491 C 0.47823 0.4344 0.56097 0.0
C492 C 0.46313 0.40277 0.46922 0.0
C493 C 0.46751 0.34889 0.41299 0.0
C494 C 0.4728 0.36906 0.43719 0.0
C495 C 0.48881 0.42669 0.51141 0.0
C496 C 0.48311 0.40715 0.48426 0.0
H497 H 0.43051 0.31363 0.42023 0.0
H498 H 0.4391 0.34659 0.4603 0.0
H499 H 0.44259 0.3812 0.4333 0.0
H500 H 0.52837 0.45895 0.51151 0.0
H501 H 0.51465 0.43109 0.45374 0.0
C502 C 0.20007 0.44342 0.41331 0.0
C503 C 0.20872 0.45706 0.3729 0.0
C504 C 0.18063 0.4465 0.43517 0.0
C505 C 0.1336 0.47495 0.40804 0.0
H506 H 0.12578 0.46808 0.57912 0.0
C507 C 0.0706 0.51362 0.54249 0.0
C508 C 0.06297 0.50421 0.59407 0.0
C509 C 0.08563 0.50444 0.50837 0.0
C510 C 0.12749 0.46966 0.53105 0.0
H511 H 0.2039 0.48465 0.3236 0.0
H512 H 0.17003 0.49022 0.36229 0.0
H513 H 0.15771 0.45897 0.53396 0.0
H514 H 0.06476 0.4777 0.64975 0.0
H515 H 0.09039 0.46118 0.58881 0.0
H516 H 0.10347 0.48616 0.40558 0.0
C517 C 0.17809 0.47692 0.37634 0.0
C518 C 0.14588 0.46448 0.50514 0.0
C519 C 0.19756 0.47386 0.35465 0.0
C520 C 0.06987 0.48497 0.60909 0.0
C521 C 0.08488 0.47573 0.57485 0.0
C522 C 0.11515 0.48011 0.43399 0.0
C523 C 0.16944 0.46336 0.41725 0.0
C524 C 0.14928 0.46737 0.44352 0.0
C525 C 0.09347 0.48569 0.52538 0.0
C526 C 0.11199 0.47785 0.49602 0.0
H527 H 0.20849 0.43061 0.42925 0.0
H528 H 0.17439 0.43573 0.46643 0.0
H529 H 0.13564 0.47706 0.36026 0.0
H530 H 0.0657 0.52857 0.53036 0.0
H531 H 0.092 0.51267 0.47102 0.0
C532 C 0.95748 0.82488 0.09501 0.0
C533 C 0.94554 0.8116 0.06176 0.0
C534 C 0.96255 0.84376 0.07184 0.0
C535 C 0.94629 0.88041 0.9558 0.0
H536 H 0.99949 0.90294 0.97607 0.0
C537 C 0.98014 0.93924 0.79853 0.0
C538 C 0.99037 0.95566 0.82313 0.0
C539 C 0.97308 0.92385 0.83521 0.0
C540 C 0.98447 0.89698 0.971 0.0
H541 H 0.92959 0.80747 0.97835 0.0
H542 H 0.93885 0.84002 0.9369 0.0
H543 H 0.99102 0.87105 0.02434 0.0
H544 H 0.00102 0.96922 0.90521 0.0
H545 H 0.98909 0.94167 0.97011 0.0
H546 H 0.94007 0.9059 0.90038 0.0
C547 C 0.94401 0.83618 0.98144 0.0
C548 C 0.9796 0.8787 -0.00148 0.0
C549 C 0.93882 0.81745 0.00488 0.0
C550 C 0.99304 0.95672 0.88546 0.0
C551 C 0.98636 0.94097 0.92232 0.0
C552 C 0.95121 0.89852 0.92796 0.0
C553 C 0.95574 0.84972 0.01484 0.0
C554 C 0.96058 0.86995 0.99009 0.0
C555 C 0.97646 0.92431 0.89729 0.0
C556 C 0.97046 0.90679 0.93424 0.0
H557 H 0.96221 0.82098 0.13986 0.0
H558 H 0.97132 0.85386 0.09926 0.0
H559 H 0.93132 0.87447 0.94967 0.0
H560 H 0.97791 0.93814 0.75052 0.0
H561 H 0.96565 0.91116 0.81463 0.0
C562 C 0.69289 0.9341 0.09809 0.0
C563 C 0.70995 0.94359 0.07418 0.0
C564 C 0.6737 0.9389 0.0768 0.0
C565 C 0.6487 0.96001 0.94335 0.0
H566 H 0.6039 0.97123 0.04966 0.0
C567 C 0.5839 0.01173 0.88666 0.0
C568 C 0.56623 0.00171 0.86912 0.0
C569 C 0.59895 0.00169 0.91769 0.0
C570 C 0.6162 0.96768 0.01961 0.0
H571 H 0.72046 0.96506 0.00838 0.0
H572 H 0.68713 0.97367 0.97185 0.0
H573 H 0.636 0.95968 0.09161 0.0
H574 H 0.54995 0.97367 0.87556 0.0
H575 H 0.57673 0.95592 0.93052 0.0
H576 H 0.62926 0.969 0.87184 0.0
C577 C 0.68845 0.96253 0.00698 0.0
C578 C 0.63454 0.96115 0.04345 0.0
C579 C 0.70753 0.95782 0.02844 0.0
C580 C 0.56352 0.98166 0.88717 0.0
C581 C 0.5787 0.97157 0.91891 0.0
C582 C 0.63046 0.96652 0.91972 0.0
C583 C 0.6713 0.95302 0.03046 0.0
C584 C 0.65116 0.95777 0.0056 0.0
C585 C 0.59671 0.98147 0.93285 0.0
C586 C 0.61421 0.97077 0.95767 0.0
H587 H 0.69439 0.92302 0.13335 0.0
H588 H 0.6608 0.93127 0.09565 0.0
H589 H 0.66107 0.95719 0.91288 0.0
H590 H 0.58667 0.02716 0.87388 0.0
H591 H 0.61274 0.00957 0.92801 0.0
C592 C 0.58989 0.70346 0.9967 0.0
C593 C 0.58341 0.71027 0.05317 0.0
C594 C 0.58448 0.68434 0.97618 0.0
C595 C 0.54622 0.64536 0.99635 0.0
H596 H 0.58514 0.60951 0.92362 0.0
C597 C 0.52252 0.56612 0.92807 0.0
C598 C 0.52926 0.55927 0.87206 0.0
C599 C 0.53141 0.58281 0.95506 0.0
C600 C 0.57402 0.61938 0.94332 0.0
H601 H 0.56774 0.70176 0.13429 0.0
H602 H 0.55785 0.66864 0.09807 0.0
H603 H 0.59567 0.6427 0.95813 0.0
H604 H 0.55083 0.5642 0.8009 0.0
H605 H 0.5664 0.59331 0.84761 0.0
H606 H 0.52439 0.62262 0.98005 0.0
C607 C 0.56651 0.67833 0.06886 0.0
C608 C 0.58008 0.63839 0.96308 0.0
C609 C 0.57196 0.69738 0.08935 0.0
C610 C 0.54576 0.56877 0.84502 0.0
C611 C 0.55457 0.58561 0.87171 0.0
C612 C 0.54011 0.62651 0.97603 0.0
C613 C 0.57256 0.67165 0.01189 0.0
C614 C 0.56625 0.65155 0.99 0.0
C615 C 0.54697 0.59335 0.92601 0.0
C616 C 0.55392 0.61317 0.94946 0.0
H617 H 0.59897 0.713 0.96817 0.0
H618 H 0.58937 0.67961 0.93204 0.0
H619 H 0.53515 0.65528 0.0161 0.0
H620 H 0.50969 0.55916 0.94957 0.0
H621 H 0.5255 0.58794 0.99766 0.0
C622 C 0.81414 0.5754 0.02793 0.0
C623 C 0.80249 0.55916 0.04801 0.0
C624 C 0.83413 0.57251 0.01007 0.0
C625 C 0.87018 0.53174 0.96716 0.0
H626 H 0.91037 0.5728 0.99461 0.0
C627 C 0.95333 0.51453 0.94019 0.0
C628 C 0.9617 0.52454 0.89058 0.0
C629 C 0.93556 0.52139 0.96643 0.0
C630 C 0.89924 0.56125 0.98687 0.0
H631 H 0.80222 0.52695 0.06037 0.0
H632 H 0.83716 0.52208 0.03469 0.0
H633 H 0.87546 0.57888 0.02443 0.0
H634 H 0.9584 0.55015 0.83167 0.0
H635 H 0.92788 0.56278 0.87983 0.0
H636 H 0.89414 0.51391 0.93167 0.0
C637 C 0.83105 0.53708 0.03158 0.0
C638 C 0.8792 0.56474 0.00337 0.0
C639 C 0.81103 0.53994 0.04807 0.0
C640 C 0.95287 0.54258 0.87129 0.0
C641 C 0.93519 0.54964 0.89825 0.0
C642 C 0.89019 0.52813 0.95206 0.0
C643 C 0.84297 0.5533 0.0122 0.0
C644 C 0.86435 0.54998 0.99387 0.0
C645 C 0.92591 0.53854 0.9441 0.0
C646 C 0.9049 0.54278 0.96186 0.0
H647 H 0.80791 0.5904 0.02695 0.0
H648 H 0.84257 0.58534 0.99427 0.0
H649 H 0.85928 0.5202 0.95715 0.0
H650 H 0.95968 0.5005 0.95571 0.0
H651 H 0.92868 0.51261 0.00185 0.0
C652 C 0.1008 0.15404 0.15941 0.0
C653 C 0.08824 0.1661 0.195 0.0
C654 C 0.09265 0.14185 0.11464 0.0
C655 C 0.04719 0.13579 0.02223 0.0
H656 H 0.06484 0.08062 0.00589 0.0
C657 C 0.00119 0.07853 0.89008 0.0
C658 C 0.01148 0.06473 0.85378 0.0
C659 C 0.01165 0.09068 0.93012 0.0
C660 C 0.05993 0.09607 0.00931 0.0
H661 H 0.05735 0.17461 0.21255 0.0
H662 H 0.04317 0.15316 0.13548 0.0
H663 H 0.08149 0.10267 0.07754 0.0
H664 H 0.04077 0.05267 0.83109 0.0
H665 H 0.05913 0.07422 0.90041 0.0
H666 H 0.0256 0.12927 0.9544 0.0
C667 C 0.05931 0.15342 0.14105 0.0
C668 C 0.06948 0.10868 0.05032 0.0
C669 C 0.06743 0.16562 0.18546 0.0
C670 C 0.03242 0.06303 0.85907 0.0
C671 C 0.04293 0.07537 0.89873 0.0
C672 C 0.03771 0.12322 0.98121 0.0
C673 C 0.07182 0.14149 0.10492 0.0
C674 C 0.06294 0.12856 0.05797 0.0
C675 C 0.03266 0.08949 0.93421 0.0
C676 C 0.0437 0.10311 0.97508 0.0
H677 H 0.11692 0.15423 0.16556 0.0
H678 H 0.10266 0.13294 0.08711 0.0
H679 H 0.04211 0.15117 0.02621 0.0
H680 H 0.98504 0.08004 0.88731 0.0
H681 H 0.00323 0.10105 0.95784 0.0
C682 C 0.36518 0.10092 0.14938 0.0
C683 C 0.34824 0.08967 0.16619 0.0
C684 C 0.37997 0.09243 0.11264 0.0
C685 C 0.38764 0.05115 0.00492 0.0
H686 H 0.44416 0.05782 0.04092 0.0
C687 C 0.44655 0.00295 0.88817 0.0
C688 C 0.46324 0.01305 0.86425 0.0
C689 C 0.43384 0.01254 0.92877 0.0
C690 C 0.42843 0.05597 0.03014 0.0
H691 H 0.33363 0.06068 0.15834 0.0
H692 H 0.35937 0.04593 0.09533 0.0
H693 H 0.41897 0.07502 0.10229 0.0
H694 H 0.48029 0.04079 0.86663 0.0
H695 H 0.45788 0.05761 0.93721 0.0
H696 H 0.39694 0.0321 0.93316 0.0
C697 C 0.36112 0.06139 0.10936 0.0
C698 C 0.41404 0.06585 0.06507 0.0
C699 C 0.34638 0.06984 0.14573 0.0
C700 C 0.46756 0.03258 0.88431 0.0
C701 C 0.45475 0.04222 0.9248 0.0
C702 C 0.40196 0.04128 0.97026 0.0
C703 C 0.37803 0.07258 0.09221 0.0
C704 C 0.39349 0.06331 0.05321 0.0
C705 C 0.43746 0.03247 0.94607 0.0
C706 C 0.42249 0.04336 0.98293 0.0
H707 H 0.36701 0.11623 0.16457 0.0
H708 H 0.39278 0.10145 0.09974 0.0
H709 H 0.37194 0.04925 0.99384 0.0
H710 H 0.44296 0.98781 0.87423 0.0
H711 H 0.42087 0.00449 0.94556 0.0
C712 C 0.43424 0.38384 0.23222 0.0
C713 C 0.42759 0.36433 0.21908 0.0
C714 C 0.44343 0.3955 0.18789 0.0
C715 C 0.47423 0.39065 0.05555 0.0
H716 H 0.45787 0.44493 0.01723 0.0
C717 C 0.51025 0.43457 0.86016 0.0
C718 C 0.51167 0.4555 0.86492 0.0
C719 C 0.49996 0.42352 0.90367 0.0
C720 C 0.46294 0.42994 0.02808 0.0
H721 H 0.42489 0.34196 0.14876 0.0
H722 H 0.44126 0.36226 0.0719 0.0
H723 H 0.43933 0.42593 0.09255 0.0
H724 H 0.50424 0.48129 0.91961 0.0
H725 H 0.4874 0.46197 0.9976 0.0
H726 H 0.49828 0.39469 0.99334 0.0
C727 C 0.43926 0.36848 0.11641 0.0
C728 C 0.45217 0.41904 0.07089 0.0
C729 C 0.42979 0.35695 0.16035 0.0
C730 C 0.50324 0.46515 0.91486 0.0
C731 C 0.49339 0.45406 0.95916 0.0
C732 C 0.48526 0.40166 0.01364 0.0
C733 C 0.4464 0.38772 0.13005 0.0
C734 C 0.45768 0.39929 0.0847 0.0
C735 C 0.49127 0.43313 0.95365 0.0
C736 C 0.47973 0.42145 -0.00089 0.0
H737 H 0.43281 0.38991 0.27707 0.0
H738 H 0.4489 0.4103 0.19937 0.0
H739 H 0.47888 0.37548 0.06609 0.0
H740 H 0.51636 0.42683 0.82151 0.0
H741 H 0.49836 0.40752 0.89703 0.0
C742 C 0.15855 0.42322 0.19343 0.0
C743 C 0.17751 0.43243 0.19452 0.0
C744 C 0.14368 0.43013 0.15423 0.0
C745 C 0.13734 0.46093 0.01693 0.0
H746 H 0.08268 0.46825 0.07308 0.0
C747 C 0.08385 0.5146 0.90019 0.0
C748 C 0.06504 0.50697 0.88333 0.0
C749 C 0.09605 0.504 0.93968 0.0
C750 C 0.09785 0.46607 0.05674 0.0
H751 H 0.19565 0.45626 0.15612 0.0
H752 H 0.16984 0.46846 0.08933 0.0
H753 H 0.10727 0.45164 0.13785 0.0
H754 H 0.04383 0.48268 0.89752 0.0
H755 H 0.06528 0.46422 0.9675 0.0
H756 H 0.12816 0.47595 0.93689 0.0
C757 C 0.1665 0.45559 0.11727 0.0
C758 C 0.11189 0.45651 0.09359 0.0
C759 C 0.1813 0.44864 0.15594 0.0
C760 C 0.05826 0.48897 0.90949 0.0
C761 C 0.07049 0.47839 0.94951 0.0
C762 C 0.12342 0.47061 0.98057 0.0
C763 C 0.14753 0.4464 0.11568 0.0
C764 C 0.13193 0.45429 0.07456 0.0
C765 C 0.0897 0.48559 0.96357 0.0
C766 C 0.10369 0.47368 0.00064 0.0
H767 H 0.1552 0.4107 0.22275 0.0
H768 H 0.12925 0.42267 0.15379 0.0
H769 H 0.1525 0.45897 0.00024 0.0
H770 H 0.08949 0.5285 0.88149 0.0
H771 H 0.11067 0.51004 0.95076 0.0
C772 C 0.0044 0.86054 0.22735 0.0
C773 C 0.00065 0.84059 0.24406 0.0
C774 C -0.00017 0.87621 0.26655 0.0
C775 C 0.98853 0.88827 0.42472 0.0
H776 H 0.96573 0.93626 0.35358 0.0
C777 C 0.97428 0.95739 0.56804 0.0
C778 C 0.987 0.97275 0.54764 0.0
C779 C 0.96925 0.94156 0.52986 0.0
C780 C 0.97182 0.92284 0.37406 0.0
H781 H 0.99043 0.82133 0.31655 0.0
H782 H 0.98236 0.84867 0.38463 0.0
H783 H 0.97256 0.90704 0.29071 0.0
H784 H 0.00258 0.98501 0.47075 0.0
H785 H 0.99314 0.95785 0.40336 0.0
H786 H 0.98816 0.90428 0.50781 0.0
C787 C 0.98879 0.85224 0.34127 0.0
C788 C 0.97598 0.90622 0.33809 0.0
C789 C 0.99343 0.83656 0.30217 0.0
C790 C 0.99266 0.97334 0.48712 0.0
C791 C 0.98725 0.9578 0.44868 0.0
C792 C 0.98418 0.90483 0.46077 0.0
C793 C 0.99138 0.87226 0.3232 0.0
C794 C 0.98504 0.88902 0.36265 0.0
C795 C 0.97651 0.94122 0.47066 0.0
C796 C 0.9764 0.92248 0.43538 0.0
H797 H 0.01005 0.86415 0.18306 0.0
H798 H 0.00259 0.89146 0.25198 0.0
H799 H 0.99554 0.8753 0.44504 0.0
H800 H 0.96996 0.95655 0.61486 0.0
H801 H 0.96089 0.92894 0.54767 0.0
C802 C 0.68707 0.98075 0.29407 0.0
C803 C 0.6862 0.98542 0.2328 0.0
C804 C 0.66975 0.98092 0.32911 0.0
C805 C 0.61842 0.00123 0.33655 0.0
H806 H 0.61487 0.96379 0.46943 0.0
C807 C 0.55643 0.0018 0.52419 0.0
C808 C 0.56564 0.00695 0.57864 0.0
C809 C 0.56817 0.99618 0.47472 0.0
C810 C 0.61552 0.97412 0.43194 0.0
H811 H 0.66646 0.9938 0.15984 0.0
H812 H 0.63594 0.9939 0.22128 0.0
H813 H 0.64107 0.95951 0.39389 0.0
H814 H 0.59396 0.00952 0.62538 0.0
H815 H 0.61435 0.9989 0.53994 0.0
H816 H 0.59291 0.01594 0.3759 0.0
C817 C 0.65013 0.99037 0.24232 0.0
C818 C 0.63061 0.97184 0.38905 0.0
C819 C 0.66759 0.99035 0.20718 0.0
C820 C 0.58657 0.0057 0.58371 0.0
C821 C 0.59818 -0.00044 0.53508 0.0
C822 C 0.6031 0.00331 0.37914 0.0
C823 C 0.65101 0.98553 0.3037 0.0
C824 C 0.6328 0.98588 0.34233 0.0
C825 C 0.58913 0.99504 0.48004 0.0
C826 C 0.60204 0.9902 0.42827 0.0
H827 H 0.7012 0.97701 0.31522 0.0
H828 H 0.67113 0.97767 0.3765 0.0
H829 H 0.61969 0.01234 0.30132 0.0
H830 H 0.54028 0.00278 0.51938 0.0
H831 H 0.56096 0.9928 0.43244 0.0
C832 C 0.52585 0.68149 0.29149 0.0
C833 C 0.52609 0.6782 0.2293 0.0
C834 C 0.52715 0.66537 0.33127 0.0
C835 C 0.51959 0.61067 0.34012 0.0
H836 H 0.54733 0.61689 0.4917 0.0
C837 C 0.49871 0.56726 0.55022 0.0
C838 C 0.51382 0.55949 0.58707 0.0
C839 C 0.50362 0.57897 0.50066 0.0
C840 C 0.53988 0.6148 0.44905 0.0
H841 H 0.52778 0.65545 0.15996 0.0
H842 H 0.53042 0.62739 0.22921 0.0
H843 H 0.5494 0.64347 0.41636 0.0
H844 H 0.5459 0.55751 0.60136 0.0
H845 H 0.55458 0.57884 0.51487 0.0
H846 H 0.50978 0.5822 0.37337 0.0
C847 C 0.52886 0.64236 0.24741 0.0
C848 C 0.54079 0.63012 0.40628 0.0
C849 C 0.52729 0.65846 0.20766 0.0
C850 C 0.53403 0.5633 0.57311 0.0
C851 C 0.53897 0.5755 0.52404 0.0
C852 C 0.5187 0.59541 0.38278 0.0
C853 C 0.52894 0.64563 0.3097 0.0
C854 C 0.53011 0.62848 0.3521 0.0
C855 C 0.52374 0.58348 0.4876 0.0
C856 C 0.52826 0.59763 0.43836 0.0
H857 H 0.52491 0.69656 0.30943 0.0
H858 H 0.52665 0.6684 0.37895 0.0
H859 H 0.51116 0.60888 0.29906 0.0
H860 H 0.48304 0.56443 0.5601 0.0
H861 H 0.49159 0.58513 0.47376 0.0
C862 C 0.86105 0.53742 0.24434 0.0
C863 C 0.84338 0.54488 0.27049 0.0
C864 C 0.87936 0.53928 0.27408 0.0
C865 C 0.90321 0.56285 0.40905 0.0
H866 H 0.93503 0.51414 0.40814 0.0
C867 C 0.94174 0.52548 0.60887 0.0
C868 C 0.96247 0.52223 0.60476 0.0
C869 C 0.93124 0.53309 0.55996 0.0
C870 C 0.92656 0.52802 0.40777 0.0
H871 H 0.83093 0.56053 0.3471 0.0
H872 H 0.86247 0.56279 0.40055 0.0
H873 H 0.90856 0.51842 0.33441 0.0
H874 H 0.98867 0.52442 0.54734 0.0
H875 H 0.96988 0.53679 0.45991 0.0
H876 H 0.92012 0.5713 0.48674 0.0
C877 C 0.86255 0.55617 0.35625 0.0
C878 C 0.9114 0.53056 0.36545 0.0
C879 C 0.84436 0.55466 0.32598 0.0
C880 C 0.97266 0.52692 0.55132 0.0
C881 C 0.96201 0.53399 0.50166 0.0
C882 C 0.91808 0.56007 0.45217 0.0
C883 C 0.88027 0.54827 0.3311 0.0
C884 C 0.89898 0.54764 0.36716 0.0
C885 C 0.94125 0.53706 0.50586 0.0
C886 C 0.92935 0.54234 0.45287 0.0
H887 H 0.86071 0.53013 0.20094 0.0
H888 H 0.89273 0.53337 0.2528 0.0
H889 H 0.89435 0.57646 0.41057 0.0
H890 H 0.93365 0.52209 0.64986 0.0
H891 H 0.91516 0.53518 0.56362 0.0
loop_
_geom_bond_atom_site_label_1
_geom_bond_atom_site_label_2
_geom_bond_distance
_geom_bond_site_symmetry_2
_ccdc_geom_bond_type
O0 Cd1 2.300 . S
O0 C7 1.275 . S
Cd1 O0 2.300 . S
Cd1 O9 2.381 . S
Cd1 O10 2.378 . S
O2 Cd3 2.385 . S
O2 C7 1.255 . S
Cd3 O2 2.385 . S
Cd3 O4 2.317 . S
O4 Cd3 2.317 . S
O4 C5 1.232 . S
C5 O4 1.232 . S
C5 O6 1.218 . S
O6 C5 1.218 . S
C7 O0 1.275 . S
C7 O2 1.255 . S
C8 O9 1.258 . S
C8 O10 1.256 . S
O9 Cd1 2.381 . S
O9 C8 1.258 . S
O10 Cd1 2.378 . S
O10 C8 1.256 . S
O11 Cd12 2.300 . S
O11 C18 1.275 . S
Cd12 O11 2.300 . S
Cd12 O20 2.381 . S
Cd12 O21 2.378 . S
O13 Cd14 2.385 1_655 S
O13 C18 1.255 . S
Cd14 O13 2.385 1_455 S
Cd14 O15 2.317 1_455 S
O15 Cd14 2.317 1_655 S
O15 C16 1.232 . S
C16 O15 1.232 . S
C16 O17 1.218 . S
O17 C16 1.218 . S
C18 O11 1.275 . S
C18 O13 1.255 . S
C19 O20 1.258 . S
C19 O21 1.256 . S
O20 Cd12 2.381 . S
O20 C19 1.258 . S
O21 Cd12 2.378 . S
O21 C19 1.256 . S
O22 Cd23 2.300 . S
O22 C29 1.275 . S
Cd23 O22 2.300 . S
Cd23 O31 2.381 . S
Cd23 O32 2.378 . S
O24 Cd25 2.385 1_565 S
O24 C29 1.255 . S
Cd25 O24 2.385 1_545 S
Cd25 O26 2.317 1_545 S
O26 Cd25 2.317 1_565 S
O26 C27 1.232 . S
C27 O26 1.232 . S
C27 O28 1.218 . S
O28 C27 1.218 . S
C29 O22 1.275 . S
C29 O24 1.255 . S
C30 O31 1.258 . S
C30 O32 1.256 . S
O31 Cd23 2.381 . S
O31 C30 1.258 . S
O32 Cd23 2.378 . S
O32 C30 1.256 . S
O33 Cd34 2.300 . S
O33 C40 1.275 . S
Cd34 O33 2.300 . S
Cd34 O42 2.381 . S
Cd34 O43 2.378 . S
O35 Cd36 2.385 . S
O35 C40 1.255 . S
Cd36 O35 2.385 . S
Cd36 O37 2.317 . S
O37 Cd36 2.317 . S
O37 C38 1.232 . S
C38 O37 1.232 . S
C38 O39 1.218 . S
O39 C38 1.218 . S
C40 O33 1.275 . S
C40 O35 1.255 . S
C41 O42 1.258 . S
C41 O43 1.256 . S
O42 Cd34 2.381 . S
O42 C41 1.258 . S
O43 Cd34 2.378 . S
O43 C41 1.256 . S
O44 Cd45 2.300 . S
O44 C51 1.275 . S
Cd45 O44 2.300 . S
Cd45 O53 2.381 . S
Cd45 O54 2.378 . S
O46 Cd47 2.385 . S
O46 C51 1.255 . S
Cd47 O46 2.385 . S
Cd47 O48 2.317 . S
O48 Cd47 2.317 . S
O48 C49 1.232 . S
C49 O48 1.232 . S
C49 O50 1.218 . S
O50 C49 1.218 . S
C51 O44 1.275 . S
C51 O46 1.255 . S
C52 O53 1.258 . S
C52 O54 1.256 . S
O53 Cd45 2.381 . S
O53 C52 1.258 . S
O54 Cd45 2.378 . S
O54 C52 1.256 . S
O55 Cd56 2.300 . S
O55 C62 1.275 . S
Cd56 O55 2.300 . S
Cd56 O64 2.381 . S
Cd56 O65 2.378 . S
O57 Cd58 2.385 . S
O57 C62 1.255 . S
Cd58 O57 2.385 . S
Cd58 O59 2.317 . S
O59 Cd58 2.317 . S
O59 C60 1.232 . S
C60 O59 1.232 . S
C60 O61 1.218 . S
O61 C60 1.218 . S
C62 O55 1.275 . S
C62 O57 1.255 . S
C63 O64 1.258 . S
C63 O65 1.256 . S
O64 Cd56 2.381 . S
O64 C63 1.258 . S
O65 Cd56 2.378 . S
O65 C63 1.256 . S
O66 Cd67 2.300 . S
O66 C73 1.275 . S
Cd67 O66 2.300 . S
Cd67 O75 2.381 . S
Cd67 O76 2.378 . S
O68 Cd69 2.385 . S
O68 C73 1.255 . S
Cd69 O68 2.385 . S
Cd69 O70 2.317 . S
O70 Cd69 2.317 . S
O70 C71 1.232 . S
C71 O70 1.232 . S
C71 O72 1.218 . S
O72 C71 1.218 . S
C73 O66 1.275 . S
C73 O68 1.255 . S
C74 O75 1.258 . S
C74 O76 1.256 . S
O75 Cd67 2.381 . S
O75 C74 1.258 . S
O76 Cd67 2.378 . S
O76 C74 1.256 . S
O77 Cd78 2.300 . S
O77 C84 1.275 . S
Cd78 O77 2.300 . S
Cd78 O86 2.381 . S
Cd78 O87 2.378 . S
O79 Cd80 2.385 . S
O79 C84 1.255 . S
Cd80 O79 2.385 . S
Cd80 O81 2.317 . S
O81 Cd80 2.317 . S
O81 C82 1.232 . S
C82 O81 1.232 . S
C82 O83 1.218 . S
O83 C82 1.218 . S
C84 O77 1.275 . S
C84 O79 1.255 . S
C85 O86 1.258 . S
C85 O87 1.256 . S
O86 Cd78 2.381 . S
O86 C85 1.258 . S
O87 Cd78 2.378 . S
O87 C85 1.256 . S
O88 Mg89 1.990 . S
O88 C102 1.253 . S
Mg89 O88 1.990 . S
Mg89 O92 2.180 1_565 S
Mg89 O93 2.117 . S
Mg89 O107 2.030 . S
O90 Mg91 2.072 1_565 S
O90 C102 1.260 . S
Mg91 O90 2.072 1_545 S
Mg91 O92 2.099 . S
Mg91 O94 2.079 . S
Mg91 O95 2.072 . S
Mg91 O97 2.099 1_455 S
Mg91 O108 2.079 1_545 S
O92 Mg89 2.180 1_545 S
O92 Mg91 2.099 . S
O92 C103 1.279 . S
O93 Mg89 2.117 . S
O93 C103 1.250 1_565 S
O94 Mg91 2.079 . S
O94 C104 1.264 . S
O95 Mg91 2.072 . S
O95 C105 1.260 . S
Mg96 O97 2.180 . S
Mg96 O98 2.030 . S
Mg96 O99 1.990 1_655 S
Mg96 O100 2.117 . S
O97 Mg91 2.099 1_655 S
O97 Mg96 2.180 . S
O97 C106 1.279 . S
O98 Mg96 2.030 . S
O98 C104 1.248 1_655 S
O99 Mg96 1.990 1_455 S
O99 C105 1.253 . S
O100 Mg96 2.117 . S
O100 C106 1.250 . S
C101 O107 1.248 . S
C101 O108 1.264 . S
C102 O88 1.253 . S
C102 O90 1.260 . S
C103 O92 1.279 . S
C103 O93 1.250 1_545 S
C104 O94 1.264 . S
C104 O98 1.248 1_455 S
C105 O95 1.260 . S
C105 O99 1.253 . S
C106 O97 1.279 . S
C106 O100 1.250 . S
O107 Mg89 2.030 . S
O107 C101 1.248 . S
O108 Mg91 2.079 1_565 S
O108 C101 1.264 . S
O109 Mg110 1.990 1_545 S
O109 C123 1.253 . S
Mg110 O109 1.990 1_565 S
Mg110 O113 2.180 . S
Mg110 O114 2.117 . S
Mg110 O128 2.030 . S
O111 Mg112 2.072 . S
O111 C123 1.260 . S
Mg112 O111 2.072 . S
Mg112 O113 2.099 1_545 S
Mg112 O115 2.079 . S
Mg112 O116 2.072 . S
Mg112 O118 2.099 . S
Mg112 O129 2.079 . S
O113 Mg110 2.180 . S
O113 Mg112 2.099 1_565 S
O113 C124 1.279 . S
O114 Mg110 2.117 . S
O114 C124 1.250 . S
O115 Mg112 2.079 . S
O115 C125 1.264 . S
O116 Mg112 2.072 . S
O116 C126 1.260 . S
Mg117 O118 2.180 . S
Mg117 O119 2.030 . S
Mg117 O120 1.990 . S
Mg117 O121 2.117 . S
O118 Mg112 2.099 . S
O118 Mg117 2.180 . S
O118 C127 1.279 . S
O119 Mg117 2.030 . S
O119 C125 1.248 . S
O120 Mg117 1.990 . S
O120 C126 1.253 . S
O121 Mg117 2.117 . S
O121 C127 1.250 . S
C122 O128 1.248 1_545 S
C122 O129 1.264 . S
C123 O109 1.253 . S
C123 O111 1.260 . S
C124 O113 1.279 . S
C124 O114 1.250 . S
C125 O115 1.264 . S
C125 O119 1.248 . S
C126 O116 1.260 . S
C126 O120 1.253 . S
C127 O118 1.279 . S
C127 O121 1.250 . S
O128 Mg110 2.030 . S
O128 C122 1.248 1_565 S
O129 Mg112 2.079 . S
O129 C122 1.264 . S
O130 Mg131 1.990 . S
O130 C144 1.253 . S
Mg131 O130 1.990 . S
Mg131 O134 2.180 . S
Mg131 O135 2.117 . S
Mg131 O149 2.030 . S
O132 Mg133 2.072 . S
O132 C144 1.260 . S
Mg133 O132 2.072 . S
Mg133 O134 2.099 . S
Mg133 O136 2.079 . S
Mg133 O137 2.072 . S
Mg133 O139 2.099 . S
Mg133 O150 2.079 . S
O134 Mg131 2.180 . S
O134 Mg133 2.099 . S
O134 C145 1.279 . S
O135 Mg131 2.117 . S
O135 C145 1.250 . S
O136 Mg133 2.079 . S
O136 C146 1.264 . S
O137 Mg133 2.072 . S
O137 C147 1.260 . S
Mg138 O139 2.180 . S
Mg138 O140 2.030 . S
Mg138 O141 1.990 . S
Mg138 O142 2.117 . S
O139 Mg133 2.099 . S
O139 Mg138 2.180 . S
O139 C148 1.279 . S
O140 Mg138 2.030 . S
O140 C146 1.248 . S
O141 Mg138 1.990 . S
O141 C147 1.253 . S
O142 Mg138 2.117 . S
O142 C148 1.250 . S
C143 O149 1.248 . S
C143 O150 1.264 . S
C144 O130 1.253 . S
C144 O132 1.260 . S
C145 O134 1.279 . S
C145 O135 1.250 . S
C146 O136 1.264 . S
C146 O140 1.248 . S
C147 O137 1.260 . S
C147 O141 1.253 . S
C148 O139 1.279 . S
C148 O142 1.250 . S
O149 Mg131 2.030 . S
O149 C143 1.248 . S
O150 Mg133 2.079 . S
O150 C143 1.264 . S
O151 Mg152 1.990 . S
O151 C165 1.253 . S
Mg152 O151 1.990 . S
Mg152 O155 2.180 1_655 S
Mg152 O156 2.117 . S
Mg152 O170 2.030 . S
O153 Mg154 2.072 1_655 S
O153 C165 1.260 . S
Mg154 O153 2.072 1_455 S
Mg154 O155 2.099 . S
Mg154 O157 2.079 . S
Mg154 O158 2.072 . S
Mg154 O160 2.099 . S
Mg154 O171 2.079 1_455 S
O155 Mg152 2.180 1_455 S
O155 Mg154 2.099 . S
O155 C166 1.279 . S
O156 Mg152 2.117 . S
O156 C166 1.250 1_655 S
O157 Mg154 2.079 . S
O157 C167 1.264 . S
O158 Mg154 2.072 . S
O158 C168 1.260 . S
Mg159 O160 2.180 . S
Mg159 O161 2.030 . S
Mg159 O162 1.990 . S
Mg159 O163 2.117 . S
O160 Mg154 2.099 . S
O160 Mg159 2.180 . S
O160 C169 1.279 . S
O161 Mg159 2.030 . S
O161 C167 1.248 . S
O162 Mg159 1.990 . S
O162 C168 1.253 . S
O163 Mg159 2.117 . S
O163 C169 1.250 . S
C164 O170 1.248 . S
C164 O171 1.264 . S
C165 O151 1.253 . S
C165 O153 1.260 . S
C166 O155 1.279 . S
C166 O156 1.250 1_455 S
C167 O157 1.264 . S
C167 O161 1.248 . S
C168 O158 1.260 . S
C168 O162 1.253 . S
C169 O160 1.279 . S
C169 O163 1.250 . S
O170 Mg152 2.030 . S
O170 C164 1.248 . S
O171 Mg154 2.079 1_655 S
O171 C164 1.264 . S
C172 C173 1.349 . S
C172 C174 1.327 . S
C172 H197 0.950 . S
C173 C172 1.349 . S
C173 C189 1.349 . S
C174 C172 1.327 . S
C174 C193 1.429 . S
C174 H198 0.950 . S
C175 C192 1.574 . S
C175 C194 1.368 . S
C175 H199 0.949 . S
H176 C180 0.949 . S
C177 C178 1.349 . S
C177 C179 1.327 . S
C177 H200 0.950 1_545 S
C178 C177 1.349 . S
C178 C190 1.349 . S
C179 C177 1.327 . S
C179 C195 1.429 . S
C179 H201 0.950 1_545 S
C180 H176 0.949 . S
C180 C188 1.574 . S
C180 C196 1.368 . S
H181 C189 0.950 . S
H182 C187 0.950 . S
H183 C188 0.949 . S
H184 C190 0.950 . S
H185 C191 0.950 . S
H186 C192 0.949 . S
C187 H182 0.950 . S
C187 C189 1.327 . S
C187 C193 1.429 . S
C188 C180 1.574 . S
C188 H183 0.949 . S
C188 C194 1.368 . S
C189 C173 1.349 . S
C189 H181 0.950 . S
C189 C187 1.327 . S
C190 C178 1.349 . S
C190 H184 0.950 . S
C190 C191 1.327 . S
C191 H185 0.950 . S
C191 C190 1.327 . S
C191 C195 1.429 . S
C192 C175 1.574 . S
C192 H186 0.949 . S
C192 C196 1.368 . S
C193 C174 1.429 . S
C193 C187 1.429 . S
C193 C194 1.523 . S
C194 C175 1.368 . S
C194 C188 1.368 . S
C194 C193 1.523 . S
C195 C179 1.429 . S
C195 C191 1.429 . S
C195 C196 1.523 . S
C196 C180 1.368 . S
C196 C192 1.368 . S
C196 C195 1.523 . S
H197 C172 0.950 . S
H198 C174 0.950 . S
H199 C175 0.949 . S
H200 C177 0.950 1_565 S
H201 C179 0.950 1_565 S
C202 C203 1.349 . S
C202 C204 1.327 . S
C202 H227 0.950 . S
C203 C202 1.349 . S
C203 C219 1.349 . S
C204 C202 1.327 . S
C204 C223 1.429 . S
C204 H228 0.950 . S
C205 C222 1.574 . S
C205 C224 1.368 . S
C205 H229 0.949 . S
H206 C210 0.949 . S
C207 C208 1.349 . S
C207 C209 1.327 . S
C207 H230 0.950 . S
C208 C207 1.349 . S
C208 C220 1.349 . S
C209 C207 1.327 . S
C209 C225 1.429 . S
C209 H231 0.950 . S
C210 H206 0.949 . S
C210 C218 1.574 . S
C210 C226 1.368 . S
H211 C219 0.950 . S
H212 C217 0.950 . S
H213 C218 0.949 . S
H214 C220 0.950 . S
H215 C221 0.950 . S
H216 C222 0.949 . S
C217 H212 0.950 . S
C217 C219 1.327 . S
C217 C223 1.429 . S
C218 C210 1.574 . S
C218 H213 0.949 . S
C218 C224 1.368 . S
C219 C203 1.349 . S
C219 H211 0.950 . S
C219 C217 1.327 . S
C220 C208 1.349 . S
C220 H214 0.950 . S
C220 C221 1.327 . S
C221 H215 0.950 . S
C221 C220 1.327 . S
C221 C225 1.429 . S
C222 C205 1.574 . S
C222 H216 0.949 . S
C222 C226 1.368 . S
C223 C204 1.429 . S
C223 C217 1.429 . S
C223 C224 1.523 . S
C224 C205 1.368 . S
C224 C218 1.368 . S
C224 C223 1.523 . S
C225 C209 1.429 . S
C225 C221 1.429 . S
C225 C226 1.523 . S
C226 C210 1.368 . S
C226 C222 1.368 . S
C226 C225 1.523 . S
H227 C202 0.950 . S
H228 C204 0.950 . S
H229 C205 0.949 . S
H230 C207 0.950 . S
H231 C209 0.950 . S
C232 C233 1.349 . S
C232 C234 1.327 . S
C232 H257 0.950 . S
C233 C232 1.349 . S
C233 C249 1.349 . S
C234 C232 1.327 . S
C234 C253 1.429 . S
C234 H258 0.950 . S
C235 C252 1.574 . S
C235 C254 1.368 . S
C235 H259 0.949 . S
H236 C240 0.949 . S
C237 C238 1.349 . S
C237 C239 1.327 . S
C237 H260 0.950 . S
C238 C237 1.349 . S
C238 C250 1.349 . S
C239 C237 1.327 . S
C239 C255 1.429 . S
C239 H261 0.950 . S
C240 H236 0.949 . S
C240 C248 1.574 . S
C240 C256 1.368 . S
H241 C249 0.950 . S
H242 C247 0.950 . S
H243 C248 0.949 . S
H244 C250 0.950 . S
H245 C251 0.950 . S
H246 C252 0.949 . S
C247 H242 0.950 . S
C247 C249 1.327 . S
C247 C253 1.429 . S
C248 C240 1.574 . S
C248 H243 0.949 . S
C248 C254 1.368 . S
C249 C233 1.349 . S
C249 H241 0.950 . S
C249 C247 1.327 . S
C250 C238 1.349 . S
C250 H244 0.950 . S
C250 C251 1.327 . S
C251 H245 0.950 . S
C251 C250 1.327 . S
C251 C255 1.429 . S
C252 C235 1.574 . S
C252 H246 0.949 . S
C252 C256 1.368 . S
C253 C234 1.429 . S
C253 C247 1.429 . S
C253 C254 1.523 . S
C254 C235 1.368 . S
C254 C248 1.368 . S
C254 C253 1.523 . S
C255 C239 1.429 . S
C255 C251 1.429 . S
C255 C256 1.523 . S
C256 C240 1.368 . S
C256 C252 1.368 . S
C256 C255 1.523 . S
H257 C232 0.950 . S
H258 C234 0.950 . S
H259 C235 0.949 . S
H260 C237 0.950 . S
H261 C239 0.950 . S
C262 C263 1.349 . S
C262 C264 1.327 . S
C262 H287 0.950 . S
C263 C262 1.349 . S
C263 C279 1.349 . S
C264 C262 1.327 . S
C264 C283 1.429 . S
C264 H288 0.950 . S
C265 C282 1.574 . S
C265 C284 1.368 . S
C265 H289 0.949 . S
H266 C270 0.949 . S
C267 C268 1.349 . S
C267 C269 1.327 . S
C267 H290 0.950 . S
C268 C267 1.349 . S
C268 C280 1.349 . S
C269 C267 1.327 . S
C269 C285 1.429 . S
C269 H291 0.950 . S
C270 H266 0.949 . S
C270 C278 1.574 . S
C270 C286 1.368 . S
H271 C279 0.950 . S
H272 C277 0.950 . S
H273 C278 0.949 . S
H274 C280 0.950 . S
H275 C281 0.950 . S
H276 C282 0.949 . S
C277 H272 0.950 . S
C277 C279 1.327 . S
C277 C283 1.429 . S
C278 C270 1.574 . S
C278 H273 0.949 . S
C278 C284 1.368 . S
C279 C263 1.349 . S
C279 H271 0.950 . S
C279 C277 1.327 . S
C280 C268 1.349 . S
C280 H274 0.950 . S
C280 C281 1.327 . S
C281 H275 0.950 . S
C281 C280 1.327 . S
C281 C285 1.429 . S
C282 C265 1.574 . S
C282 H276 0.949 . S
C282 C286 1.368 . S
C283 C264 1.429 . S
C283 C277 1.429 . S
C283 C284 1.523 . S
C284 C265 1.368 . S
C284 C278 1.368 . S
C284 C283 1.523 . S
C285 C269 1.429 . S
C285 C281 1.429 . S
C285 C286 1.523 . S
C286 C270 1.368 . S
C286 C282 1.368 . S
C286 C285 1.523 . S
H287 C262 0.950 . S
H288 C264 0.950 . S
H289 C265 0.949 . S
H290 C267 0.950 . S
H291 C269 0.950 . S
C292 C293 1.349 1_556 S
C292 C294 1.327 . S
C292 H317 0.950 . S
C293 C292 1.349 1_554 S
C293 C309 1.349 . S
C294 C292 1.327 . S
C294 C313 1.429 . S
C294 H318 0.950 . S
C295 C312 1.574 . S
C295 C314 1.368 . S
C295 H319 0.949 1_556 S
H296 C300 0.949 . S
C297 C298 1.349 . S
C297 C299 1.327 . S
C297 H320 0.950 . S
C298 C297 1.349 . S
C298 C310 1.349 1_545 S
C299 C297 1.327 . S
C299 C315 1.429 1_545 S
C299 H321 0.950 . S
C300 H296 0.949 . S
C300 C308 1.574 . S
C300 C316 1.368 . S
H301 C309 0.950 . S
H302 C307 0.950 . S
H303 C308 0.949 . S
H304 C310 0.950 . S
H305 C311 0.950 . S
H306 C312 0.949 1_545 S
C307 H302 0.950 . S
C307 C309 1.327 . S
C307 C313 1.429 1_554 S
C308 C300 1.574 . S
C308 H303 0.949 . S
C308 C314 1.368 . S
C309 C293 1.349 . S
C309 H301 0.950 . S
C309 C307 1.327 . S
C310 C298 1.349 1_565 S
C310 H304 0.950 . S
C310 C311 1.327 . S
C311 H305 0.950 . S
C311 C310 1.327 . S
C311 C315 1.429 . S
C312 C295 1.574 . S
C312 H306 0.949 1_565 S
C312 C316 1.368 . S
C313 C294 1.429 . S
C313 C307 1.429 1_556 S
C313 C314 1.523 . S
C314 C295 1.368 . S
C314 C308 1.368 . S
C314 C313 1.523 . S
C315 C299 1.429 1_565 S
C315 C311 1.429 . S
C315 C316 1.523 . S
C316 C300 1.368 . S
C316 C312 1.368 . S
C316 C315 1.523 . S
H317 C292 0.950 . S
H318 C294 0.950 . S
H319 C295 0.949 1_554 S
H320 C297 0.950 . S
H321 C299 0.950 . S
C322 C323 1.349 1_556 S
C322 C324 1.327 . S
C322 H347 0.950 . S
C323 C322 1.349 1_554 S
C323 C339 1.349 . S
C324 C322 1.327 . S
C324 C343 1.429 . S
C324 H348 0.950 . S
C325 C342 1.574 . S
C325 C344 1.368 . S
C325 H349 0.949 . S
H326 C330 0.949 . S
C327 C328 1.349 . S
C327 C329 1.327 . S
C327 H350 0.950 . S
C328 C327 1.349 . S
C328 C340 1.349 . S
C329 C327 1.327 . S
C329 C345 1.429 . S
C329 H351 0.950 . S
C330 H326 0.949 . S
C330 C338 1.574 . S
C330 C346 1.368 . S
H331 C339 0.950 . S
H332 C337 0.950 . S
H333 C338 0.949 . S
H334 C340 0.950 . S
H335 C341 0.950 . S
H336 C342 0.949 . S
C337 H332 0.950 . S
C337 C339 1.327 . S
C337 C343 1.429 1_554 S
C338 C330 1.574 . S
C338 H333 0.949 . S
C338 C344 1.368 . S
C339 C323 1.349 . S
C339 H331 0.950 . S
C339 C337 1.327 . S
C340 C328 1.349 . S
C340 H334 0.950 . S
C340 C341 1.327 . S
C341 H335 0.950 . S
C341 C340 1.327 . S
C341 C345 1.429 . S
C342 C325 1.574 . S
C342 H336 0.949 . S
C342 C346 1.368 . S
C343 C324 1.429 . S
C343 C337 1.429 1_556 S
C343 C344 1.523 . S
C344 C325 1.368 . S
C344 C338 1.368 . S
C344 C343 1.523 . S
C345 C329 1.429 . S
C345 C341 1.429 . S
C345 C346 1.523 . S
C346 C330 1.368 . S
C346 C342 1.368 . S
C346 C345 1.523 . S
H347 C322 0.950 . S
H348 C324 0.950 . S
H349 C325 0.949 . S
H350 C327 0.950 . S
H351 C329 0.950 . S
C352 C353 1.349 1_556 S
C352 C354 1.327 . S
C352 H377 0.950 . S
C353 C352 1.349 1_554 S
C353 C369 1.349 . S
C354 C352 1.327 . S
C354 C373 1.429 . S
C354 H378 0.950 . S
C355 C372 1.574 . S
C355 C374 1.368 . S
C355 H379 0.949 . S
H356 C360 0.949 . S
C357 C358 1.349 . S
C357 C359 1.327 . S
C357 H380 0.950 . S
C358 C357 1.349 . S
C358 C370 1.349 . S
C359 C357 1.327 . S
C359 C375 1.429 . S
C359 H381 0.950 . S
C360 H356 0.949 . S
C360 C368 1.574 . S
C360 C376 1.368 . S
H361 C369 0.950 . S
H362 C367 0.950 . S
H363 C368 0.949 . S
H364 C370 0.950 . S
H365 C371 0.950 . S
H366 C372 0.949 . S
C367 H362 0.950 . S
C367 C369 1.327 . S
C367 C373 1.429 1_554 S
C368 C360 1.574 . S
C368 H363 0.949 . S
C368 C374 1.368 . S
C369 C353 1.349 . S
C369 H361 0.950 . S
C369 C367 1.327 . S
C370 C358 1.349 . S
C370 H364 0.950 . S
C370 C371 1.327 . S
C371 H365 0.950 . S
C371 C370 1.327 . S
C371 C375 1.429 . S
C372 C355 1.574 . S
C372 H366 0.949 . S
C372 C376 1.368 . S
C373 C354 1.429 . S
C373 C367 1.429 1_556 S
C373 C374 1.523 . S
C374 C355 1.368 . S
C374 C368 1.368 . S
C374 C373 1.523 . S
C375 C359 1.429 . S
C375 C371 1.429 . S
C375 C376 1.523 . S
C376 C360 1.368 . S
C376 C372 1.368 . S
C376 C375 1.523 . S
H377 C352 0.950 . S
H378 C354 0.950 . S
H379 C355 0.949 . S
H380 C357 0.950 . S
H381 C359 0.950 . S
C382 C383 1.349 . S
C382 C384 1.327 . S
C382 H407 0.950 . S
C383 C382 1.349 . S
C383 C399 1.349 1_554 S
C384 C382 1.327 . S
C384 C403 1.429 1_554 S
C384 H408 0.950 . S
C385 C402 1.575 . S
C385 C404 1.365 1_455 S
C385 H409 0.952 . S
H386 C390 0.949 . S
C387 C388 1.349 . S
C387 C389 1.327 . S
C387 H410 0.950 . S
C388 C387 1.349 . S
C388 C400 1.349 1_455 S
C389 C387 1.327 . S
C389 C405 1.429 1_455 S
C389 H411 0.950 . S
C390 H386 0.949 . S
C390 C398 1.574 . S
C390 C406 1.368 . S
H391 C399 0.950 . S
H392 C397 0.950 1_455 S
H393 C398 0.949 . S
H394 C400 0.950 . S
H395 C401 0.950 . S
H396 C402 0.949 . S
C397 H392 0.950 1_655 S
C397 C399 1.327 . S
C397 C403 1.429 . S
C398 C390 1.574 . S
C398 H393 0.949 . S
C398 C404 1.368 . S
C399 C383 1.349 1_556 S
C399 H391 0.950 . S
C399 C397 1.327 . S
C400 C388 1.349 1_655 S
C400 H394 0.950 . S
C400 C401 1.327 . S
C401 H395 0.950 . S
C401 C400 1.327 . S
C401 C405 1.429 . S
C402 C385 1.575 . S
C402 H396 0.949 . S
C402 C406 1.368 1_455 S
C403 C384 1.429 1_556 S
C403 C397 1.429 . S
C403 C404 1.523 . S
C404 C385 1.365 1_655 S
C404 C398 1.368 . S
C404 C403 1.523 . S
C405 C389 1.429 1_655 S
C405 C401 1.429 . S
C405 C406 1.523 . S
C406 C390 1.368 . S
C406 C402 1.368 1_655 S
C406 C405 1.523 . S
H407 C382 0.950 . S
H408 C384 0.950 . S
H409 C385 0.952 . S
H410 C387 0.950 . S
H411 C389 0.950 . S
C412 C413 1.349 . S
C412 C414 1.327 . S
C412 H437 0.950 . S
C413 C412 1.349 . S
C413 C429 1.349 . S
C414 C412 1.327 . S
C414 C433 1.429 . S
C414 H438 0.950 . S
C415 C432 1.574 . S
C415 C434 1.368 . S
C415 H439 0.949 . S
H416 C420 0.949 . S
C417 C418 1.353 . S
C417 C419 1.330 . S
C417 H440 0.943 1_455 S
C418 C417 1.353 . S
C418 C430 1.349 . S
C419 C417 1.330 . S
C419 C435 1.429 . S
C419 H441 0.947 1_455 S
C420 H416 0.949 . S
C420 C428 1.574 . S
C420 C436 1.368 . S
H421 C429 0.950 . S
H422 C427 0.950 . S
H423 C428 0.949 . S
H424 C430 0.950 . S
H425 C431 0.950 . S
H426 C432 0.949 . S
C427 H422 0.950 . S
C427 C429 1.327 . S
C427 C433 1.429 . S
C428 C420 1.574 . S
C428 H423 0.949 . S
C428 C434 1.368 . S
C429 C413 1.349 . S
C429 H421 0.950 . S
C429 C427 1.327 . S
C430 C418 1.349 . S
C430 H424 0.950 . S
C430 C431 1.327 . S
C431 H425 0.950 . S
C431 C430 1.327 . S
C431 C435 1.429 . S
C432 C415 1.574 . S
C432 H426 0.949 . S
C432 C436 1.368 . S
C433 C414 1.429 . S
C433 C427 1.429 . S
C433 C434 1.523 . S
C434 C415 1.368 . S
C434 C428 1.368 . S
C434 C433 1.523 . S
C435 C419 1.429 . S
C435 C431 1.429 . S
C435 C436 1.523 . S
C436 C420 1.368 . S
C436 C432 1.368 . S
C436 C435 1.523 . S
H437 C412 0.950 . S
H438 C414 0.950 . S
H439 C415 0.949 . S
H440 C417 0.943 1_655 S
H441 C419 0.947 1_655 S
C442 C443 1.349 . S
C442 C444 1.327 . S
C442 H467 0.950 . S
C443 C442 1.349 . S
C443 C459 1.349 . S
C444 C442 1.327 . S
C444 C463 1.429 . S
C444 H468 0.950 . S
C445 C462 1.574 . S
C445 C464 1.368 . S
C445 H469 0.949 . S
H446 C450 0.949 . S
C447 C448 1.349 . S
C447 C449 1.327 . S
C447 H470 0.950 . S
C448 C447 1.349 . S
C448 C460 1.349 . S
C449 C447 1.327 . S
C449 C465 1.429 . S
C449 H471 0.950 . S
C450 H446 0.949 . S
C450 C458 1.574 . S
C450 C466 1.368 . S
H451 C459 0.950 . S
H452 C457 0.950 . S
H453 C458 0.949 . S
H454 C460 0.945 1_565 S
H455 C461 0.950 . S
H456 C462 0.949 . S
C457 H452 0.950 . S
C457 C459 1.327 . S
C457 C463 1.429 . S
C458 C450 1.574 . S
C458 H453 0.949 . S
C458 C464 1.368 . S
C459 C443 1.349 . S
C459 H451 0.950 . S
C459 C457 1.327 . S
C460 C448 1.349 . S
C460 H454 0.945 1_545 S
C460 C461 1.327 . S
C461 H455 0.950 . S
C461 C460 1.327 . S
C461 C465 1.429 . S
C462 C445 1.574 . S
C462 H456 0.949 . S
C462 C466 1.368 . S
C463 C444 1.429 . S
C463 C457 1.429 . S
C463 C464 1.523 . S
C464 C445 1.368 . S
C464 C458 1.368 . S
C464 C463 1.523 . S
C465 C449 1.429 . S
C465 C461 1.429 . S
C465 C466 1.523 . S
C466 C450 1.368 . S
C466 C462 1.368 . S
C466 C465 1.523 . S
H467 C442 0.950 . S
H468 C444 0.950 . S
H469 C445 0.949 . S
H470 C447 0.950 . S
H471 C449 0.950 . S
C472 C473 1.349 . S
C472 C474 1.327 . S
C472 H497 0.950 . S
C473 C472 1.349 . S
C473 C489 1.349 . S
C474 C472 1.327 . S
C474 C493 1.429 . S
C474 H498 0.950 . S
C475 C492 1.574 . S
C475 C494 1.368 . S
C475 H499 0.949 . S
H476 C480 0.949 . S
C477 C478 1.349 . S
C477 C479 1.327 . S
C477 H500 0.950 . S
C478 C477 1.349 . S
C478 C490 1.349 . S
C479 C477 1.327 . S
C479 C495 1.429 . S
C479 H501 0.950 . S
C480 H476 0.949 . S
C480 C488 1.574 . S
C480 C496 1.368 . S
H481 C489 0.950 . S
H482 C487 0.950 . S
H483 C488 0.949 . S
H484 C490 0.950 . S
H485 C491 0.950 . S
H486 C492 0.949 . S
C487 H482 0.950 . S
C487 C489 1.327 . S
C487 C493 1.429 . S
C488 C480 1.574 . S
C488 H483 0.949 . S
C488 C494 1.368 . S
C489 C473 1.349 . S
C489 H481 0.950 . S
C489 C487 1.327 . S
C490 C478 1.349 . S
C490 H484 0.950 . S
C490 C491 1.327 . S
C491 H485 0.950 . S
C491 C490 1.327 . S
C491 C495 1.429 . S
C492 C475 1.574 . S
C492 H486 0.949 . S
C492 C496 1.368 . S
C493 C474 1.429 . S
C493 C487 1.429 . S
C493 C494 1.523 . S
C494 C475 1.368 . S
C494 C488 1.368 . S
C494 C493 1.523 . S
C495 C479 1.429 . S
C495 C491 1.429 . S
C495 C496 1.523 . S
C496 C480 1.368 . S
C496 C492 1.368 . S
C496 C495 1.523 . S
H497 C472 0.950 . S
H498 C474 0.950 . S
H499 C475 0.949 . S
H500 C477 0.950 . S
H501 C479 0.950 . S
C502 C503 1.349 . S
C502 C504 1.327 . S
C502 H527 0.950 . S
C503 C502 1.349 . S
C503 C519 1.349 . S
C504 C502 1.327 . S
C504 C523 1.429 . S
C504 H528 0.950 . S
C505 C522 1.574 . S
C505 C524 1.368 . S
C505 H529 0.949 . S
H506 C510 0.949 . S
C507 C508 1.349 . S
C507 C509 1.327 . S
C507 H530 0.950 . S
C508 C507 1.349 . S
C508 C520 1.349 . S
C509 C507 1.327 . S
C509 C525 1.429 . S
C509 H531 0.950 . S
C510 H506 0.949 . S
C510 C518 1.574 . S
C510 C526 1.368 . S
H511 C519 0.950 . S
H512 C517 0.950 . S
H513 C518 0.949 . S
H514 C520 0.950 . S
H515 C521 0.950 . S
H516 C522 0.949 . S
C517 H512 0.950 . S
C517 C519 1.327 . S
C517 C523 1.429 . S
C518 C510 1.574 . S
C518 H513 0.949 . S
C518 C524 1.368 . S
C519 C503 1.349 . S
C519 H511 0.950 . S
C519 C517 1.327 . S
C520 C508 1.349 . S
C520 H514 0.950 . S
C520 C521 1.327 . S
C521 H515 0.950 . S
C521 C520 1.327 . S
C521 C525 1.429 . S
C522 C505 1.574 . S
C522 H516 0.949 . S
C522 C526 1.368 . S
C523 C504 1.429 . S
C523 C517 1.429 . S
C523 C524 1.523 . S
C524 C505 1.368 . S
C524 C518 1.368 . S
C524 C523 1.523 . S
C525 C509 1.429 . S
C525 C521 1.429 . S
C525 C526 1.523 . S
C526 C510 1.368 . S
C526 C522 1.368 . S
C526 C525 1.523 . S
H527 C502 0.950 . S
H528 C504 0.950 . S
H529 C505 0.949 . S
H530 C507 0.950 . S
H531 C509 0.950 . S
C532 C533 1.349 . S
C532 C534 1.327 . S
C532 H557 0.950 . S
C533 C532 1.349 . S
C533 C549 1.349 1_554 S
C534 C532 1.327 . S
C534 C553 1.429 1_554 S
C534 H558 0.950 . S
C535 C552 1.574 . S
C535 C554 1.368 . S
C535 H559 0.949 . S
H536 C540 0.949 . S
C537 C538 1.364 . S
C537 C539 1.321 1_455 S
C537 H560 0.941 1_455 S
C538 C537 1.364 . S
C538 C550 1.349 . S
C539 C537 1.321 1_655 S
C539 C555 1.429 1_655 S
C539 H561 0.950 . S
C540 H536 0.949 . S
C540 C548 1.579 . S
C540 C556 1.368 1_455 S
H541 C549 0.950 . S
H542 C547 0.950 . S
H543 C548 0.956 1_554 S
H544 C550 0.950 . S
H545 C551 0.950 . S
H546 C552 0.949 . S
C547 H542 0.950 . S
C547 C549 1.327 . S
C547 C553 1.429 . S
C548 C540 1.579 . S
C548 H543 0.956 1_556 S
C548 C554 1.355 1_455 S
C549 C533 1.349 1_556 S
C549 H541 0.950 . S
C549 C547 1.327 . S
C550 C538 1.349 . S
C550 H544 0.950 . S
C550 C551 1.327 . S
C551 H545 0.950 . S
C551 C550 1.327 . S
C551 C555 1.429 . S
C552 C535 1.574 . S
C552 H546 0.949 . S
C552 C556 1.368 . S
C553 C534 1.429 1_556 S
C553 C547 1.429 . S
C553 C554 1.523 . S
C554 C535 1.368 . S
C554 C548 1.355 1_655 S
C554 C553 1.523 . S
C555 C539 1.429 1_455 S
C555 C551 1.429 . S
C555 C556 1.523 1_455 S
C556 C540 1.368 1_655 S
C556 C552 1.368 . S
C556 C555 1.523 1_655 S
H557 C532 0.950 . S
H558 C534 0.950 . S
H559 C535 0.949 . S
H560 C537 0.941 1_655 S
H561 C539 0.950 . S
C562 C563 1.349 . S
C562 C564 1.327 . S
C562 H587 0.950 . S
C563 C562 1.349 . S
C563 C579 1.349 1_554 S
C564 C562 1.327 . S
C564 C583 1.429 1_554 S
C564 H588 0.950 . S
C565 C582 1.574 . S
C565 C584 1.368 . S
C565 H589 0.949 . S
H566 C570 0.949 . S
C567 C568 1.349 . S
C567 C569 1.327 . S
C567 H590 0.950 . S
C568 C567 1.349 . S
C568 C580 1.349 . S
C569 C567 1.327 . S
C569 C585 1.429 . S
C569 H591 0.950 . S
C570 H566 0.949 . S
C570 C578 1.574 . S
C570 C586 1.368 . S
H571 C579 0.950 . S
H572 C577 0.950 . S
H573 C578 0.949 1_554 S
H574 C580 0.950 . S
H575 C581 0.940 1_565 S
H576 C582 0.943 1_545 S
C577 H572 0.950 . S
C577 C579 1.327 . S
C577 C583 1.429 . S
C578 C570 1.574 . S
C578 H573 0.949 1_556 S
C578 C584 1.368 . S
C579 C563 1.349 1_556 S
C579 H571 0.950 . S
C579 C577 1.327 . S
C580 C568 1.349 . S
C580 H574 0.950 . S
C580 C581 1.327 . S
C581 H575 0.940 1_545 S
C581 C580 1.327 . S
C581 C585 1.429 . S
C582 C565 1.574 . S
C582 H576 0.943 1_565 S
C582 C586 1.368 . S
C583 C564 1.429 1_556 S
C583 C577 1.429 . S
C583 C584 1.523 . S
C584 C565 1.368 . S
C584 C578 1.368 . S
C584 C583 1.523 . S
C585 C569 1.429 . S
C585 C581 1.429 . S
C585 C586 1.523 1_545 S
C586 C570 1.368 . S
C586 C582 1.368 . S
C586 C585 1.523 1_565 S
H587 C562 0.950 . S
H588 C564 0.950 . S
H589 C565 0.949 . S
H590 C567 0.950 . S
H591 C569 0.950 . S
C592 C593 1.349 1_556 S
C592 C594 1.327 . S
C592 H617 0.950 . S
C593 C592 1.349 1_554 S
C593 C609 1.349 . S
C594 C592 1.327 . S
C594 C613 1.429 . S
C594 H618 0.950 . S
C595 C612 1.574 . S
C595 C614 1.368 . S
C595 H619 0.949 . S
H596 C600 0.949 . S
C597 C598 1.349 . S
C597 C599 1.327 . S
C597 H620 0.950 . S
C598 C597 1.349 . S
C598 C610 1.349 . S
C599 C597 1.327 . S
C599 C615 1.429 . S
C599 H621 0.950 . S
C600 H596 0.949 . S
C600 C608 1.574 . S
C600 C616 1.368 . S
H601 C609 0.950 . S
H602 C607 0.950 . S
H603 C608 0.949 . S
H604 C610 0.950 . S
H605 C611 0.950 . S
H606 C612 0.949 . S
C607 H602 0.950 . S
C607 C609 1.327 . S
C607 C613 1.429 1_554 S
C608 C600 1.574 . S
C608 H603 0.949 . S
C608 C614 1.368 . S
C609 C593 1.349 . S
C609 H601 0.950 . S
C609 C607 1.327 . S
C610 C598 1.349 . S
C610 H604 0.950 . S
C610 C611 1.327 . S
C611 H605 0.950 . S
C611 C610 1.327 . S
C611 C615 1.429 . S
C612 C595 1.574 . S
C612 H606 0.949 . S
C612 C616 1.368 . S
C613 C594 1.429 . S
C613 C607 1.429 1_556 S
C613 C614 1.523 . S
C614 C595 1.368 . S
C614 C608 1.368 . S
C614 C613 1.523 . S
C615 C599 1.429 . S
C615 C611 1.429 . S
C615 C616 1.523 . S
C616 C600 1.368 . S
C616 C612 1.368 . S
C616 C615 1.523 . S
H617 C592 0.950 . S
H618 C594 0.950 . S
H619 C595 0.949 . S
H620 C597 0.950 . S
H621 C599 0.950 . S
C622 C623 1.349 . S
C622 C624 1.327 1_554 S
C622 H647 0.950 . S
C623 C622 1.349 . S
C623 C639 1.349 . S
C624 C622 1.327 1_556 S
C624 C643 1.429 . S
C624 H648 0.950 . S
C625 C642 1.574 . S
C625 C644 1.368 . S
C625 H649 0.949 . S
H626 C630 0.949 . S
C627 C628 1.349 . S
C627 C629 1.327 . S
C627 H650 0.950 . S
C628 C627 1.349 . S
C628 C640 1.349 . S
C629 C627 1.327 . S
C629 C645 1.429 . S
C629 H651 0.950 . S
C630 H626 0.949 . S
C630 C638 1.574 . S
C630 C646 1.368 . S
H631 C639 0.950 . S
H632 C637 0.950 . S
H633 C638 0.949 . S
H634 C640 0.950 . S
H635 C641 0.950 . S
H636 C642 0.949 . S
C637 H632 0.950 . S
C637 C639 1.327 1_556 S
C637 C643 1.429 . S
C638 C630 1.574 . S
C638 H633 0.949 . S
C638 C644 1.368 . S
C639 C623 1.349 . S
C639 H631 0.950 . S
C639 C637 1.327 1_554 S
C640 C628 1.349 . S
C640 H634 0.950 . S
C640 C641 1.327 . S
C641 H635 0.950 . S
C641 C640 1.327 . S
C641 C645 1.429 . S
C642 C625 1.574 . S
C642 H636 0.949 . S
C642 C646 1.368 . S
C643 C624 1.429 . S
C643 C637 1.429 . S
C643 C644 1.523 . S
C644 C625 1.368 . S
C644 C638 1.368 . S
C644 C643 1.523 . S
C645 C629 1.429 . S
C645 C641 1.429 . S
C645 C646 1.523 . S
C646 C630 1.368 . S
C646 C642 1.368 . S
C646 C645 1.523 . S
H647 C622 0.950 . S
H648 C624 0.950 . S
H649 C625 0.949 . S
H650 C627 0.950 . S
H651 C629 0.950 . S
C652 C653 1.349 . S
C652 C654 1.327 . S
C652 H677 0.950 . S
C653 C652 1.349 . S
C653 C669 1.349 . S
C654 C652 1.327 . S
C654 C673 1.429 . S
C654 H678 0.950 . S
C655 C672 1.574 . S
C655 C674 1.368 . S
C655 H679 0.949 . S
H656 C660 0.949 . S
C657 C658 1.349 . S
C657 C659 1.327 . S
C657 H680 0.950 . S
C658 C657 1.349 . S
C658 C670 1.349 . S
C659 C657 1.327 . S
C659 C675 1.429 . S
C659 H681 0.950 . S
C660 H656 0.949 . S
C660 C668 1.574 1_556 S
C660 C676 1.368 . S
H661 C669 0.950 . S
H662 C667 0.950 . S
H663 C668 0.949 . S
H664 C670 0.950 . S
H665 C671 0.950 . S
H666 C672 0.949 . S
C667 H662 0.950 . S
C667 C669 1.327 . S
C667 C673 1.429 . S
C668 C660 1.574 1_554 S
C668 H663 0.949 . S
C668 C674 1.368 . S
C669 C653 1.349 . S
C669 H661 0.950 . S
C669 C667 1.327 . S
C670 C658 1.349 . S
C670 H664 0.950 . S
C670 C671 1.327 . S
C671 H665 0.950 . S
C671 C670 1.327 . S
C671 C675 1.429 . S
C672 C655 1.574 . S
C672 H666 0.949 . S
C672 C676 1.368 1_554 S
C673 C654 1.429 . S
C673 C667 1.429 . S
C673 C674 1.523 . S
C674 C655 1.368 . S
C674 C668 1.368 . S
C674 C673 1.523 . S
C675 C659 1.429 . S
C675 C671 1.429 . S
C675 C676 1.523 . S
C676 C660 1.368 . S
C676 C672 1.368 1_556 S
C676 C675 1.523 . S
H677 C652 0.950 . S
H678 C654 0.950 . S
H679 C655 0.949 . S
H680 C657 0.950 . S
H681 C659 0.950 . S
C682 C683 1.349 . S
C682 C684 1.327 . S
C682 H707 0.950 . S
C683 C682 1.349 . S
C683 C699 1.349 . S
C684 C682 1.327 . S
C684 C703 1.429 . S
C684 H708 0.950 . S
C685 C702 1.574 1_554 S
C685 C704 1.368 . S
C685 H709 0.949 . S
H686 C690 0.949 . S
C687 C688 1.349 . S
C687 C689 1.327 . S
C687 H710 0.997 . S
C688 C687 1.349 . S
C688 C700 1.349 . S
C689 C687 1.327 . S
C689 C705 1.429 . S
C689 H711 0.950 . S
C690 H686 0.949 . S
C690 C698 1.574 1_556 S
C690 C706 1.368 . S
H691 C699 0.950 . S
H692 C697 0.950 . S
H693 C698 0.949 . S
H694 C700 0.950 . S
H695 C701 0.950 . S
H696 C702 0.949 . S
C697 H692 0.950 . S
C697 C699 1.327 . S
C697 C703 1.429 . S
C698 C690 1.574 1_554 S
C698 H693 0.949 . S
C698 C704 1.368 . S
C699 C683 1.349 . S
C699 H691 0.950 . S
C699 C697 1.327 . S
C700 C688 1.349 . S
C700 H694 0.950 . S
C700 C701 1.327 . S
C701 H695 0.950 . S
C701 C700 1.327 . S
C701 C705 1.429 . S
C702 C685 1.574 1_556 S
C702 H696 0.949 . S
C702 C706 1.368 . S
C703 C684 1.429 . S
C703 C697 1.429 . S
C703 C704 1.523 . S
C704 C685 1.368 . S
C704 C698 1.368 . S
C704 C703 1.523 . S
C705 C689 1.429 . S
C705 C701 1.429 . S
C705 C706 1.523 . S
C706 C690 1.368 . S
C706 C702 1.368 . S
C706 C705 1.523 . S
H707 C682 0.950 . S
H708 C684 0.950 . S
H709 C685 0.949 . S
H710 C687 0.997 . S
H711 C689 0.950 . S
C712 C713 1.349 . S
C712 C714 1.327 . S
C712 H737 0.950 . S
C713 C712 1.349 . S
C713 C729 1.349 . S
C714 C712 1.327 . S
C714 C733 1.429 . S
C714 H738 0.950 . S
C715 C732 1.574 . S
C715 C734 1.368 1_556 S
C715 H739 0.949 . S
H716 C720 0.949 . S
C717 C718 1.349 . S
C717 C719 1.327 . S
C717 H740 0.950 . S
C718 C717 1.349 . S
C718 C730 1.349 . S
C719 C717 1.327 . S
C719 C735 1.429 . S
C719 H741 0.950 . S
C720 H716 0.949 . S
C720 C728 1.574 . S
C720 C736 1.368 1_554 S
H721 C729 0.950 . S
H722 C727 0.950 . S
H723 C728 0.949 . S
H724 C730 0.950 . S
H725 C731 0.950 . S
H726 C732 0.949 . S
C727 H722 0.950 . S
C727 C729 1.327 . S
C727 C733 1.429 . S
C728 C720 1.574 . S
C728 H723 0.949 . S
C728 C734 1.368 . S
C729 C713 1.349 . S
C729 H721 0.950 . S
C729 C727 1.327 . S
C730 C718 1.349 . S
C730 H724 0.950 . S
C730 C731 1.327 . S
C731 H725 0.950 . S
C731 C730 1.327 . S
C731 C735 1.429 . S
C732 C715 1.574 . S
C732 H726 0.949 . S
C732 C736 1.368 . S
C733 C714 1.429 . S
C733 C727 1.429 . S
C733 C734 1.523 . S
C734 C715 1.368 1_554 S
C734 C728 1.368 . S
C734 C733 1.523 . S
C735 C719 1.429 . S
C735 C731 1.429 . S
C735 C736 1.523 . S
C736 C720 1.368 1_556 S
C736 C732 1.368 . S
C736 C735 1.523 . S
H737 C712 0.950 . S
H738 C714 0.950 . S
H739 C715 0.949 . S
H740 C717 0.950 . S
H741 C719 0.950 . S
C742 C743 1.349 . S
C742 C744 1.327 . S
C742 H767 0.950 . S
C743 C742 1.349 . S
C743 C759 1.349 . S
C744 C742 1.327 . S
C744 C763 1.429 . S
C744 H768 0.950 . S
C745 C762 1.574 1_554 S
C745 C764 1.368 . S
C745 H769 0.949 . S
H746 C750 0.949 . S
C747 C748 1.349 . S
C747 C749 1.327 . S
C747 H770 0.950 . S
C748 C747 1.349 . S
C748 C760 1.349 . S
C749 C747 1.327 . S
C749 C765 1.429 . S
C749 H771 0.950 . S
C750 H746 0.949 . S
C750 C758 1.574 . S
C750 C766 1.368 1_554 S
H751 C759 0.950 . S
H752 C757 0.950 . S
H753 C758 0.949 . S
H754 C760 0.950 . S
H755 C761 0.950 . S
H756 C762 0.949 . S
C757 H752 0.950 . S
C757 C759 1.327 . S
C757 C763 1.429 . S
C758 C750 1.574 . S
C758 H753 0.949 . S
C758 C764 1.368 . S
C759 C743 1.349 . S
C759 H751 0.950 . S
C759 C757 1.327 . S
C760 C748 1.349 . S
C760 H754 0.950 . S
C760 C761 1.327 . S
C761 H755 0.950 . S
C761 C760 1.327 . S
C761 C765 1.429 . S
C762 C745 1.574 1_556 S
C762 H756 0.949 . S
C762 C766 1.368 . S
C763 C744 1.429 . S
C763 C757 1.429 . S
C763 C764 1.523 . S
C764 C745 1.368 . S
C764 C758 1.368 . S
C764 C763 1.523 . S
C765 C749 1.429 . S
C765 C761 1.429 . S
C765 C766 1.523 . S
C766 C750 1.368 1_556 S
C766 C762 1.368 . S
C766 C765 1.523 . S
H767 C742 0.950 . S
H768 C744 0.950 . S
H769 C745 0.949 . S
H770 C747 0.950 . S
H771 C749 0.950 . S
C772 C773 1.349 . S
C772 C774 1.327 . S
C772 H797 0.950 . S
C773 C772 1.349 . S
C773 C789 1.349 . S
C774 C772 1.327 . S
C774 C793 1.429 . S
C774 H798 0.950 . S
C775 C792 1.574 . S
C775 C794 1.368 . S
C775 H799 0.952 . S
H776 C780 0.949 . S
C777 C778 1.349 1_455 S
C777 C779 1.327 . S
C777 H800 0.950 . S
C778 C777 1.349 1_655 S
C778 C790 1.349 . S
C779 C777 1.327 . S
C779 C795 1.429 1_455 S
C779 H801 0.950 . S
C780 H776 0.949 . S
C780 C788 1.574 . S
C780 C796 1.368 . S
H781 C789 0.950 . S
H782 C787 0.950 . S
H783 C788 0.949 . S
H784 C790 0.950 . S
H785 C791 0.950 . S
H786 C792 0.949 1_455 S
C787 H782 0.950 . S
C787 C789 1.327 . S
C787 C793 1.429 . S
C788 C780 1.574 . S
C788 H783 0.949 . S
C788 C794 1.368 . S
C789 C773 1.349 . S
C789 H781 0.950 . S
C789 C787 1.327 . S
C790 C778 1.349 . S
C790 H784 0.950 . S
C790 C791 1.327 . S
C791 H785 0.950 . S
C791 C790 1.327 . S
C791 C795 1.429 . S
C792 C775 1.574 . S
C792 H786 0.949 1_655 S
C792 C796 1.368 . S
C793 C774 1.429 . S
C793 C787 1.429 . S
C793 C794 1.523 . S
C794 C775 1.368 . S
C794 C788 1.368 . S
C794 C793 1.523 . S
C795 C779 1.429 1_655 S
C795 C791 1.429 . S
C795 C796 1.523 . S
C796 C780 1.368 . S
C796 C792 1.368 . S
C796 C795 1.523 . S
H797 C772 0.950 . S
H798 C774 0.950 . S
H799 C775 0.952 . S
H800 C777 0.950 . S
H801 C779 0.950 . S
C802 C803 1.349 . S
C802 C804 1.327 . S
C802 H827 0.950 . S
C803 C802 1.349 . S
C803 C819 1.349 . S
C804 C802 1.327 . S
C804 C823 1.429 . S
C804 H828 0.950 . S
C805 C822 1.574 . S
C805 C824 1.368 . S
C805 H829 0.925 1_565 S
H806 C810 0.949 . S
C807 C808 1.349 1_545 S
C807 C809 1.327 . S
C807 H830 0.950 . S
C808 C807 1.349 1_565 S
C808 C820 1.349 . S
C809 C807 1.327 . S
C809 C825 1.429 1_545 S
C809 H831 0.950 . S
C810 H806 0.949 . S
C810 C818 1.574 . S
C810 C826 1.368 . S
H811 C819 0.950 . S
H812 C817 0.950 . S
H813 C818 0.949 . S
H814 C820 0.950 . S
H815 C821 0.950 . S
H816 C822 0.949 1_545 S
C817 H812 0.950 . S
C817 C819 1.327 . S
C817 C823 1.429 . S
C818 C810 1.574 . S
C818 H813 0.949 . S
C818 C824 1.368 . S
C819 C803 1.349 . S
C819 H811 0.950 . S
C819 C817 1.327 . S
C820 C808 1.349 . S
C820 H814 0.950 . S
C820 C821 1.327 . S
C821 H815 0.950 . S
C821 C820 1.327 . S
C821 C825 1.429 . S
C822 C805 1.574 . S
C822 H816 0.949 1_565 S
C822 C826 1.368 . S
C823 C804 1.429 . S
C823 C817 1.429 . S
C823 C824 1.523 . S
C824 C805 1.368 . S
C824 C818 1.368 . S
C824 C823 1.523 . S
C825 C809 1.429 1_565 S
C825 C821 1.429 . S
C825 C826 1.523 . S
C826 C810 1.368 . S
C826 C822 1.368 . S
C826 C825 1.523 . S
H827 C802 0.950 . S
H828 C804 0.950 . S
H829 C805 0.925 1_545 S
H830 C807 0.950 . S
H831 C809 0.950 . S
C832 C833 1.349 . S
C832 C834 1.327 . S
C832 H857 0.950 . S
C833 C832 1.349 . S
C833 C849 1.349 . S
C834 C832 1.327 . S
C834 C853 1.429 . S
C834 H858 0.950 . S
C835 C852 1.574 . S
C835 C854 1.368 . S
C835 H859 0.949 . S
H836 C840 0.949 . S
C837 C838 1.349 . S
C837 C839 1.327 . S
C837 H860 0.950 . S
C838 C837 1.349 . S
C838 C850 1.349 . S
C839 C837 1.327 . S
C839 C855 1.429 . S
C839 H861 0.950 . S
C840 H836 0.949 . S
C840 C848 1.574 . S
C840 C856 1.368 . S
H841 C849 0.950 . S
H842 C847 0.950 . S
H843 C848 0.949 . S
H844 C850 0.950 . S
H845 C851 0.950 . S
H846 C852 0.949 . S
C847 H842 0.950 . S
C847 C849 1.327 . S
C847 C853 1.429 . S
C848 C840 1.574 . S
C848 H843 0.949 . S
C848 C854 1.368 . S
C849 C833 1.349 . S
C849 H841 0.950 . S
C849 C847 1.327 . S
C850 C838 1.349 . S
C850 H844 0.950 . S
C850 C851 1.327 . S
C851 H845 0.950 . S
C851 C850 1.327 . S
C851 C855 1.429 . S
C852 C835 1.574 . S
C852 H846 0.949 . S
C852 C856 1.368 . S
C853 C834 1.429 . S
C853 C847 1.429 . S
C853 C854 1.523 . S
C854 C835 1.368 . S
C854 C848 1.368 . S
C854 C853 1.523 . S
C855 C839 1.429 . S
C855 C851 1.429 . S
C855 C856 1.523 . S
C856 C840 1.368 . S
C856 C852 1.368 . S
C856 C855 1.523 . S
H857 C832 0.950 . S
H858 C834 0.950 . S
H859 C835 0.949 . S
H860 C837 0.950 . S
H861 C839 0.950 . S
C862 C863 1.349 . S
C862 C864 1.327 . S
C862 H887 0.950 . S
C863 C862 1.349 . S
C863 C879 1.349 . S
C864 C862 1.327 . S
C864 C883 1.429 . S
C864 H888 0.950 . S
C865 C882 1.574 . S
C865 C884 1.368 . S
C865 H889 0.949 . S
H866 C870 0.949 . S
C867 C868 1.349 . S
C867 C869 1.327 . S
C867 H890 0.950 . S
C868 C867 1.349 . S
C868 C880 1.349 . S
C869 C867 1.327 . S
C869 C885 1.429 . S
C869 H891 0.950 . S
C870 H866 0.949 . S
C870 C878 1.574 . S
C870 C886 1.368 . S
H871 C879 0.950 . S
H872 C877 0.950 . S
H873 C878 0.949 . S
H874 C880 0.950 . S
H875 C881 0.950 . S
H876 C882 0.949 . S
C877 H872 0.950 . S
C877 C879 1.327 . S
C877 C883 1.429 . S
C878 C870 1.574 . S
C878 H873 0.949 . S
C878 C884 1.368 . S
C879 C863 1.349 . S
C879 H871 0.950 . S
C879 C877 1.327 . S
C880 C868 1.349 . S
C880 H874 0.950 . S
C880 C881 1.327 . S
C881 H875 0.950 . S
C881 C880 1.327 . S
C881 C885 1.429 . S
C882 C865 1.574 . S
C882 H876 0.949 . S
C882 C886 1.368 . S
C883 C864 1.429 . S
C883 C877 1.429 . S
C883 C884 1.523 . S
C884 C865 1.368 . S
C884 C878 1.368 . S
C884 C883 1.523 . S
C885 C869 1.429 . S
C885 C881 1.429 . S
C885 C886 1.523 . S
C886 C870 1.368 . S
C886 C882 1.368 . S
C886 C885 1.523 . S
H887 C862 0.950 . S
H888 C864 0.950 . S
H889 C865 0.949 . S
H890 C867 0.950 . S
H891 C869 0.950 . S
C173 C74 1.545 . S
C178 C103 1.378 . S
C208 C127 1.376 . S
C203 C85 1.543 . S
C238 C148 1.378 . S
C233 C52 1.545 . S
C268 C166 1.376 . S
C263 C63 1.543 . S
C298 C106 1.313 . S
C293 C30 1.444 . S
C323 C41 1.442 . S
C328 C124 1.311 . S
C353 C8 1.443 . S
C358 C145 1.313 . S
C383 C19 1.442 . S
C388 C169 1.311 . S
C418 C104 0.441 . S
C413 C62 0.358 . S
C448 C122 0.442 . S
C443 C73 0.360 . S
C478 C143 0.441 . S
C473 C84 0.359 . S
C503 C51 0.360 . S
C508 C167 0.442 . S
C533 C18 0.565 . S
C538 C102 0.529 . S
C568 C126 0.530 . S
C563 C29 0.566 . S
C598 C147 0.529 . S
C593 C40 0.565 . S
C623 C7 0.566 . S
C628 C165 0.530 . S
C653 C60 1.432 . S
C658 C105 1.565 . S
C683 C71 1.434 . S
C688 C123 1.566 . S
C718 C144 1.564 . S
C713 C82 1.432 . S
C748 C168 1.566 . S
C743 C49 1.434 . S
C773 C16 1.182 . S
C778 C101 1.408 1_655 S
C808 C125 1.410 1_565 S
C803 C27 1.182 . S
C838 C146 1.408 . S
C833 C38 1.182 . S
C863 C5 1.183 . S
C868 C164 1.410 . S
