# Generated by pormake.
# Topology gar, (4,6)-cn, num edge types: 1
# Building blocks:
#     Node 0, Type 0, BuildingBlock: QUQFOY_clean_sbu_3, # of connection points: 4
#     Node 1, Type 0, BuildingBlock: QUQFOY_clean_sbu_3, # of connection points: 4
#     Node 2, Type 0, BuildingBlock: QUQFOY_clean_sbu_3, # of connection points: 4
#     Node 3, Type 0, BuildingBlock: QUQFOY_clean_sbu_3, # of connection points: 4
#     Node 4, Type 0, BuildingBlock: QUQFOY_clean_sbu_3, # of connection points: 4
#     Node 5, Type 0, BuildingBlock: QUQFOY_clean_sbu_3, # of connection points: 4
#     Node 6, Type 0, BuildingBlock: QUQFOY_clean_sbu_3, # of connection points: 4
#     Node 7, Type 0, BuildingBlock: QUQFOY_clean_sbu_3, # of connection points: 4
#     Node 8, Type 0, BuildingBlock: QUQFOY_clean_sbu_3, # of connection points: 4
#     Node 9, Type 0, BuildingBlock: QUQFOY_clean_sbu_3, # of connection points: 4
#     Node 10, Type 0, BuildingBlock: QUQFOY_clean_sbu_3, # of connection points: 4
#     Node 11, Type 0, BuildingBlock: QUQFOY_clean_sbu_3, # of connection points: 4
#     Node 12, Type 0, BuildingBlock: QUQFOY_clean_sbu_3, # of connection points: 4
#     Node 13, Type 0, BuildingBlock: QUQFOY_clean_sbu_3, # of connection points: 4
#     Node 14, Type 0, BuildingBlock: QUQFOY_clean_sbu_3, # of connection points: 4
#     Node 15, Type 0, BuildingBlock: QUQFOY_clean_sbu_3, # of connection points: 4
#     Node 16, Type 0, BuildingBlock: QUQFOY_clean_sbu_3, # of connection points: 4
#     Node 17, Type 0, BuildingBlock: QUQFOY_clean_sbu_3, # of connection points: 4
#     Node 18, Type 0, BuildingBlock: QUQFOY_clean_sbu_3, # of connection points: 4
#     Node 19, Type 0, BuildingBlock: QUQFOY_clean_sbu_3, # of connection points: 4
#     Node 20, Type 0, BuildingBlock: QUQFOY_clean_sbu_3, # of connection points: 4
#     Node 21, Type 0, BuildingBlock: QUQFOY_clean_sbu_3, # of connection points: 4
#     Node 22, Type 0, BuildingBlock: QUQFOY_clean_sbu_3, # of connection points: 4
#     Node 23, Type 0, BuildingBlock: QUQFOY_clean_sbu_3, # of connection points: 4
#     Node 24, Type 1, BuildingBlock: KUMJIN_clean_sbu_0, # of connection points: 6
#     Node 25, Type 1, BuildingBlock: KUMJIN_clean_sbu_0, # of connection points: 6
#     Node 26, Type 1, BuildingBlock: KUMJIN_clean_sbu_0, # of connection points: 6
#     Node 27, Type 1, BuildingBlock: KUMJIN_clean_sbu_0, # of connection points: 6
#     Node 28, Type 1, BuildingBlock: KUMJIN_clean_sbu_0, # of connection points: 6
#     Node 29, Type 1, BuildingBlock: KUMJIN_clean_sbu_0, # of connection points: 6
#     Node 30, Type 1, BuildingBlock: KUMJIN_clean_sbu_0, # of connection points: 6
#     Node 31, Type 1, BuildingBlock: KUMJIN_clean_sbu_0, # of connection points: 6
#     Node 32, Type 1, BuildingBlock: KUMJIN_clean_sbu_0, # of connection points: 6
#     Node 33, Type 1, BuildingBlock: KUMJIN_clean_sbu_0, # of connection points: 6
#     Node 34, Type 1, BuildingBlock: KUMJIN_clean_sbu_0, # of connection points: 6
#     Node 35, Type 1, BuildingBlock: KUMJIN_clean_sbu_0, # of connection points: 6
#     Node 36, Type 1, BuildingBlock: KUMJIN_clean_sbu_0, # of connection points: 6
#     Node 37, Type 1, BuildingBlock: KUMJIN_clean_sbu_0, # of connection points: 6
#     Node 38, Type 1, BuildingBlock: KUMJIN_clean_sbu_0, # of connection points: 6
#     Node 39, Type 1, BuildingBlock: KUMJIN_clean_sbu_0, # of connection points: 6
#     Edge 40, Type (0, 1), BuildingBlock: AJUNOK_clean_linker_0, # of connection points: 2
#     Edge 41, Type (0, 1), BuildingBlock: AJUNOK_clean_linker_0, # of connection points: 2
#     Edge 42, Type (0, 1), BuildingBlock: AJUNOK_clean_linker_0, # of connection points: 2
#     Edge 43, Type (0, 1), BuildingBlock: AJUNOK_clean_linker_0, # of connection points: 2
#     Edge 44, Type (0, 1), BuildingBlock: AJUNOK_clean_linker_0, # of connection points: 2
#     Edge 45, Type (0, 1), BuildingBlock: AJUNOK_clean_linker_0, # of connection points: 2
#     Edge 46, Type (0, 1), BuildingBlock: AJUNOK_clean_linker_0, # of connection points: 2
#     Edge 47, Type (0, 1), BuildingBlock: AJUNOK_clean_linker_0, # of connection points: 2
#     Edge 48, Type (0, 1), BuildingBlock: AJUNOK_clean_linker_0, # of connection points: 2
#     Edge 49, Type (0, 1), BuildingBlock: AJUNOK_clean_linker_0, # of connection points: 2
#     Edge 50, Type (0, 1), BuildingBlock: AJUNOK_clean_linker_0, # of connection points: 2
#     Edge 51, Type (0, 1), BuildingBlock: AJUNOK_clean_linker_0, # of connection points: 2
#     Edge 52, Type (0, 1), BuildingBlock: AJUNOK_clean_linker_0, # of connection points: 2
#     Edge 53, Type (0, 1), BuildingBlock: AJUNOK_clean_linker_0, # of connection points: 2
#     Edge 54, Type (0, 1), BuildingBlock: AJUNOK_clean_linker_0, # of connection points: 2
#     Edge 55, Type (0, 1), BuildingBlock: AJUNOK_clean_linker_0, # of connection points: 2
#     Edge 56, Type (0, 1), BuildingBlock: AJUNOK_clean_linker_0, # of connection points: 2
#     Edge 57, Type (0, 1), BuildingBlock: AJUNOK_clean_linker_0, # of connection points: 2
#     Edge 58, Type (0, 1), BuildingBlock: AJUNOK_clean_linker_0, # of connection points: 2
#     Edge 59, Type (0, 1), BuildingBlock: AJUNOK_clean_linker_0, # of connection points: 2
#     Edge 60, Type (0, 1), BuildingBlock: AJUNOK_clean_linker_0, # of connection points: 2
#     Edge 61, Type (0, 1), BuildingBlock: AJUNOK_clean_linker_0, # of connection points: 2
#     Edge 62, Type (0, 1), BuildingBlock: AJUNOK_clean_linker_0, # of connection points: 2
#     Edge 63, Type (0, 1), BuildingBlock: AJUNOK_clean_linker_0, # of connection points: 2
#     Edge 64, Type (0, 1), BuildingBlock: AJUNOK_clean_linker_0, # of connection points: 2
#     Edge 65, Type (0, 1), BuildingBlock: AJUNOK_clean_linker_0, # of connection points: 2
#     Edge 66, Type (0, 1), BuildingBlock: AJUNOK_clean_linker_0, # of connection points: 2
#     Edge 67, Type (0, 1), BuildingBlock: AJUNOK_clean_linker_0, # of connection points: 2
#     Edge 68, Type (0, 1), BuildingBlock: AJUNOK_clean_linker_0, # of connection points: 2
#     Edge 69, Type (0, 1), BuildingBlock: AJUNOK_clean_linker_0, # of connection points: 2
#     Edge 70, Type (0, 1), BuildingBlock: AJUNOK_clean_linker_0, # of connection points: 2
#     Edge 71, Type (0, 1), BuildingBlock: AJUNOK_clean_linker_0, # of connection points: 2
#     Edge 72, Type (0, 1), BuildingBlock: AJUNOK_clean_linker_0, # of connection points: 2
#     Edge 73, Type (0, 1), BuildingBlock: AJUNOK_clean_linker_0, # of connection points: 2
#     Edge 74, Type (0, 1), BuildingBlock: AJUNOK_clean_linker_0, # of connection points: 2
#     Edge 75, Type (0, 1), BuildingBlock: AJUNOK_clean_linker_0, # of connection points: 2
#     Edge 76, Type (0, 1), BuildingBlock: AJUNOK_clean_linker_0, # of connection points: 2
#     Edge 77, Type (0, 1), BuildingBlock: AJUNOK_clean_linker_0, # of connection points: 2
#     Edge 78, Type (0, 1), BuildingBlock: AJUNOK_clean_linker_0, # of connection points: 2
#     Edge 79, Type (0, 1), BuildingBlock: AJUNOK_clean_linker_0, # of connection points: 2
#     Edge 80, Type (0, 1), BuildingBlock: AJUNOK_clean_linker_0, # of connection points: 2
#     Edge 81, Type (0, 1), BuildingBlock: AJUNOK_clean_linker_0, # of connection points: 2
#     Edge 82, Type (0, 1), BuildingBlock: AJUNOK_clean_linker_0, # of connection points: 2
#     Edge 83, Type (0, 1), BuildingBlock: AJUNOK_clean_linker_0, # of connection points: 2
#     Edge 84, Type (0, 1), BuildingBlock: AJUNOK_clean_linker_0, # of connection points: 2
#     Edge 85, Type (0, 1), BuildingBlock: AJUNOK_clean_linker_0, # of connection points: 2
#     Edge 86, Type (0, 1), BuildingBlock: AJUNOK_clean_linker_0, # of connection points: 2
#     Edge 87, Type (0, 1), BuildingBlock: AJUNOK_clean_linker_0, # of connection points: 2
#     Edge 88, Type (0, 1), BuildingBlock: AJUNOK_clean_linker_0, # of connection points: 2
#     Edge 89, Type (0, 1), BuildingBlock: AJUNOK_clean_linker_0, # of connection points: 2
#     Edge 90, Type (0, 1), BuildingBlock: AJUNOK_clean_linker_0, # of connection points: 2
#     Edge 91, Type (0, 1), BuildingBlock: AJUNOK_clean_linker_0, # of connection points: 2
#     Edge 92, Type (0, 1), BuildingBlock: AJUNOK_clean_linker_0, # of connection points: 2
#     Edge 93, Type (0, 1), BuildingBlock: AJUNOK_clean_linker_0, # of connection points: 2
#     Edge 94, Type (0, 1), BuildingBlock: AJUNOK_clean_linker_0, # of connection points: 2
#     Edge 95, Type (0, 1), BuildingBlock: AJUNOK_clean_linker_0, # of connection points: 2
#     Edge 96, Type (0, 1), BuildingBlock: AJUNOK_clean_linker_0, # of connection points: 2
#     Edge 97, Type (0, 1), BuildingBlock: AJUNOK_clean_linker_0, # of connection points: 2
#     Edge 98, Type (0, 1), BuildingBlock: AJUNOK_clean_linker_0, # of connection points: 2
#     Edge 99, Type (0, 1), BuildingBlock: AJUNOK_clean_linker_0, # of connection points: 2
#     Edge 100, Type (0, 1), BuildingBlock: AJUNOK_clean_linker_0, # of connection points: 2
#     Edge 101, Type (0, 1), BuildingBlock: AJUNOK_clean_linker_0, # of connection points: 2
#     Edge 102, Type (0, 1), BuildingBlock: AJUNOK_clean_linker_0, # of connection points: 2
#     Edge 103, Type (0, 1), BuildingBlock: AJUNOK_clean_linker_0, # of connection points: 2
#     Edge 104, Type (0, 1), BuildingBlock: AJUNOK_clean_linker_0, # of connection points: 2
#     Edge 105, Type (0, 1), BuildingBlock: AJUNOK_clean_linker_0, # of connection points: 2
#     Edge 106, Type (0, 1), BuildingBlock: AJUNOK_clean_linker_0, # of connection points: 2
#     Edge 107, Type (0, 1), BuildingBlock: AJUNOK_clean_linker_0, # of connection points: 2
#     Edge 108, Type (0, 1), BuildingBlock: AJUNOK_clean_linker_0, # of connection points: 2
#     Edge 109, Type (0, 1), BuildingBlock: AJUNOK_clean_linker_0, # of connection points: 2
#     Edge 110, Type (0, 1), BuildingBlock: AJUNOK_clean_linker_0, # of connection points: 2
#     Edge 111, Type (0, 1), BuildingBlock: AJUNOK_clean_linker_0, # of connection points: 2
#     Edge 112, Type (0, 1), BuildingBlock: AJUNOK_clean_linker_0, # of connection points: 2
#     Edge 113, Type (0, 1), BuildingBlock: AJUNOK_clean_linker_0, # of connection points: 2
#     Edge 114, Type (0, 1), BuildingBlock: AJUNOK_clean_linker_0, # of connection points: 2
#     Edge 115, Type (0, 1), BuildingBlock: AJUNOK_clean_linker_0, # of connection points: 2
#     Edge 116, Type (0, 1), BuildingBlock: AJUNOK_clean_linker_0, # of connection points: 2
#     Edge 117, Type (0, 1), BuildingBlock: AJUNOK_clean_linker_0, # of connection points: 2
#     Edge 118, Type (0, 1), BuildingBlock: AJUNOK_clean_linker_0, # of connection points: 2
#     Edge 119, Type (0, 1), BuildingBlock: AJUNOK_clean_linker_0, # of connection points: 2
#     Edge 120, Type (0, 1), BuildingBlock: AJUNOK_clean_linker_0, # of connection points: 2
#     Edge 121, Type (0, 1), BuildingBlock: AJUNOK_clean_linker_0, # of connection points: 2
#     Edge 122, Type (0, 1), BuildingBlock: AJUNOK_clean_linker_0, # of connection points: 2
#     Edge 123, Type (0, 1), BuildingBlock: AJUNOK_clean_linker_0, # of connection points: 2
#     Edge 124, Type (0, 1), BuildingBlock: AJUNOK_clean_linker_0, # of connection points: 2
#     Edge 125, Type (0, 1), BuildingBlock: AJUNOK_clean_linker_0, # of connection points: 2
#     Edge 126, Type (0, 1), BuildingBlock: AJUNOK_clean_linker_0, # of connection points: 2
#     Edge 127, Type (0, 1), BuildingBlock: AJUNOK_clean_linker_0, # of connection points: 2
#     Edge 128, Type (0, 1), BuildingBlock: AJUNOK_clean_linker_0, # of connection points: 2
#     Edge 129, Type (0, 1), BuildingBlock: AJUNOK_clean_linker_0, # of connection points: 2
#     Edge 130, Type (0, 1), BuildingBlock: AJUNOK_clean_linker_0, # of connection points: 2
#     Edge 131, Type (0, 1), BuildingBlock: AJUNOK_clean_linker_0, # of connection points: 2
#     Edge 132, Type (0, 1), BuildingBlock: AJUNOK_clean_linker_0, # of connection points: 2
#     Edge 133, Type (0, 1), BuildingBlock: AJUNOK_clean_linker_0, # of connection points: 2
#     Edge 134, Type (0, 1), BuildingBlock: AJUNOK_clean_linker_0, # of connection points: 2
#     Edge 135, Type (0, 1), BuildingBlock: AJUNOK_clean_linker_0, # of connection points: 2
# Relax obj value: 0.143
# Max RMSD: 0.351
# Mean RMSD: 0.154
data_MOF--net-gar--node1-QUQFOY_clean_sbu_3--node2-KUMJIN_clean_sbu_0--edge1-AJUNOK_clean_linker_0
_symmetry_space_group_name_H-M    P1
_symmetry_Int_Tables_number       1
_symmetry_cell_setting            triclinic
loop_
_symmetry_equiv_pos_as_xyz
'x, y, z'
_cell_length_a     47.900586
_cell_length_b     43.288919
_cell_length_c     42.974773
_cell_angle_alpha  101.89752
_cell_angle_beta   94.234399
_cell_angle_gamma 102.74269
loop_
_atom_site_label
_atom_site_type_symbol
_atom_site_fract_x
_atom_site_fract_y
_atom_site_fract_z
_atom_type_partial_charge
C0 C 0.09244 0.34581 0.35272 0.0
O1 O 0.10781 0.36186 0.33585 0.0
Cd2 Cd 0.15842 0.38194 0.34497 0.0
O3 O 0.10334 0.33697 0.37617 0.0
Cd4 Cd 0.15208 0.34049 0.39843 0.0
C5 C 0.15741 0.41901 0.42275 0.0
O6 O 0.1715 0.33335 0.34943 0.0
O7 O 0.20196 0.3485 0.39272 0.0
O8 O 0.13453 0.28642 0.40347 0.0
C9 C 0.19701 0.33824 0.36252 0.0
O10 O 0.16161 0.42222 0.39459 0.0
C11 C 0.1434 0.29304 0.43322 0.0
O12 O 0.15361 0.3915 0.42959 0.0
O13 O 0.15774 0.32181 0.44611 0.0
C14 C 0.96059 0.75573 0.71502 0.0
O15 O 0.97838 0.74637 0.73197 0.0
Cd16 Cd 0.02151 0.73426 0.71672 0.0
O17 O 0.96554 0.76066 0.68757 0.0
Cd18 Cd 0.00417 0.75796 0.65421 0.0
C19 C 0.99554 0.68189 0.64118 0.0
O20 O 0.04668 0.77521 0.69371 0.0
O21 O 0.05018 0.74377 0.64901 0.0
O22 O 0.00887 0.8099 0.64091 0.0
C23 C 0.06247 0.76165 0.67577 0.0
O24 O 0.0085 0.69055 0.66965 0.0
C25 C 0.0064 0.79802 0.61096 0.0
O26 O 0.9852 0.70188 0.62897 0.0
O27 O 1.00006 0.76729 0.60154 0.0
C28 C 0.59784 0.85223 0.84635 0.0
O29 O 0.61504 0.86627 0.82959 0.0
Cd30 Cd 0.66516 0.88537 0.84192 0.0
O31 O 0.60659 0.84366 0.87114 0.0
Cd32 Cd 0.65294 0.84199 0.89803 0.0
C33 C 0.65804 0.92045 0.91963 0.0
O34 O 0.6727 0.83624 0.85067 0.0
O35 O 0.70343 0.84348 0.89232 0.0
O36 O 0.62496 0.78948 0.89742 0.0
C37 C 0.69817 0.83863 0.86209 0.0
O38 O 0.66198 0.92249 0.89111 0.0
C39 C 0.63445 0.79045 0.92601 0.0
O40 O 0.65573 0.89403 0.92864 0.0
O41 O 0.65368 0.81522 0.94134 0.0
C42 C 0.45959 0.24996 0.21168 0.0
O43 O 0.47468 0.237 0.22814 0.0
Cd44 Cd 0.51721 0.22157 0.21623 0.0
O45 O 0.46651 0.25667 0.18544 0.0
Cd46 Cd 0.50664 0.25327 0.15501 0.0
C47 C 0.49474 0.17368 0.13978 0.0
O48 O 0.54268 0.26665 0.19917 0.0
O49 O 0.55655 0.24617 0.15483 0.0
O50 O 0.51327 0.30777 0.14916 0.0
C51 C 0.56296 0.25915 0.18452 0.0
O52 O 0.50569 0.17782 0.1687 0.0
C53 C 0.51196 0.30036 0.11889 0.0
O54 O 0.48871 0.19721 0.12947 0.0
O55 O 0.50535 0.27036 0.10499 0.0
C56 C 0.06822 0.80896 0.15065 0.0
O57 O 0.08183 0.79921 0.17159 0.0
Cd58 Cd 0.12793 0.78933 0.17067 0.0
O59 O 0.08024 0.81813 0.12734 0.0
Cd60 Cd 0.12977 0.82915 0.1066 0.0
C61 C 0.11823 0.74352 0.09022 0.0
O62 O 0.15767 0.83513 0.15994 0.0
O63 O 0.18509 0.83661 0.12327 0.0
O64 O 0.11389 0.88158 0.10909 0.0
C65 C 0.18278 0.83538 0.15233 0.0
O66 O 0.12164 0.74957 0.12072 0.0
C67 C 0.11911 0.88728 0.08196 0.0
O68 O 0.11834 0.76694 0.07579 0.0
O69 O 0.13091 0.86683 0.06526 0.0
C70 C 0.47409 0.77607 0.38438 0.0
O71 O 0.49516 0.79034 0.37225 0.0
Cd72 Cd 0.54508 0.80578 0.38693 0.0
O73 O 0.47917 0.76547 0.40993 0.0
Cd74 Cd 0.53017 0.76715 0.44624 0.0
C75 C 0.5455 0.8536 0.46375 0.0
O76 O 0.55625 0.76023 0.40023 0.0
O77 O 0.58435 0.78198 0.44366 0.0
O78 O 0.52524 0.70739 0.44481 0.0
C79 C 0.5819 0.77026 0.41372 0.0
O80 O 0.54964 0.84823 0.43446 0.0
C81 C 0.53338 0.70863 0.47397 0.0
O82 O 0.5373 0.82918 0.47666 0.0
O83 O 0.53703 0.73674 0.49247 0.0
C84 C 0.57521 0.31352 0.65977 0.0
O85 O 0.58891 0.29808 0.67497 0.0
Cd86 Cd 0.63302 0.28338 0.66813 0.0
O87 O 0.58524 0.32552 0.63689 0.0
Cd88 Cd 0.63048 0.33249 0.60878 0.0
C89 C 0.6139 0.24482 0.58699 0.0
O90 O 0.65841 0.3322 0.6591 0.0
O91 O 0.68714 0.34515 0.62624 0.0
O92 O 0.61873 0.38707 0.61208 0.0
C93 C 0.68427 0.33823 0.65343 0.0
O94 O 0.62025 0.24572 0.61649 0.0
C95 C 0.61814 0.38909 0.58291 0.0
O96 O 0.61495 0.27115 0.57695 0.0
O97 O 0.62484 0.36542 0.56439 0.0
C98 C 0.97271 0.27875 0.89232 0.0
O99 O 0.99285 0.29549 0.88084 0.0
Cd100 Cd 0.04344 0.30949 0.89473 0.0
O101 O 0.97909 0.26574 0.91569 0.0
Cd102 Cd 0.03107 0.26808 0.94903 0.0
C103 C 0.04582 0.3541 0.97148 0.0
O104 O 0.05857 0.2631 0.90291 0.0
O105 O 0.08465 0.28703 0.94748 0.0
O106 O 0.02857 0.2086 0.94648 0.0
C107 C 0.08369 0.27415 0.91797 0.0
O108 O 0.05056 0.35217 0.94252 0.0
C109 C 0.03532 0.20937 0.97584 0.0
O110 O 0.03689 0.32807 0.98168 0.0
O111 O 0.03737 0.23695 0.99468 0.0
C112 C 0.4859 0.04707 0.36016 0.0
O113 O 0.49542 0.03337 0.33572 0.0
Cd114 Cd 0.46825 1.01503 0.28751 0.0
O115 O 0.46106 0.0528 0.35967 0.0
Cd116 Cd 0.42453 0.04878 0.31902 0.0
C117 C 0.40794 0.97354 0.3145 0.0
O118 O 0.4579 0.06633 0.28574 0.0
O119 O 0.423 0.02631 0.26086 0.0
O120 O 0.41728 0.10199 0.3351 0.0
C121 C 0.44658 0.04637 0.2599 0.0
O122 O 0.42935 0.9745 0.2986 0.0
C123 C 0.39017 0.09186 0.32795 0.0
O124 O 0.40063 0.99899 0.32729 0.0
O125 O 0.37957 0.06155 0.32368 0.0
C126 C 0.35025 0.16504 0.51041 0.0
O127 O 0.33084 0.14083 0.49523 0.0
Cd128 Cd 0.29121 0.15108 0.52279 0.0
O129 O 0.34276 0.19091 0.52261 0.0
Cd130 Cd 0.29748 0.20698 0.50477 0.0
C131 C 0.30703 0.22531 0.58172 0.0
O132 O 0.25741 0.15649 0.48357 0.0
O133 O 0.24552 0.19683 0.51273 0.0
O134 O 0.31252 0.20283 0.45253 0.0
C135 C 0.23754 0.16812 0.49535 0.0
O136 O 0.30297 0.1944 0.57336 0.0
C137 C 0.31248 0.23139 0.44973 0.0
O138 O 0.30613 0.24148 0.56017 0.0
O139 O 0.30564 0.25015 0.47339 0.0
C140 C 0.15004 0.02812 0.83937 0.0
O141 O 0.13841 0.04483 0.82359 0.0
Cd142 Cd 0.15301 0.05738 0.77272 0.0
O143 O 0.16984 1.01496 0.82624 0.0
Cd144 Cd 0.1961 1.01037 0.76612 0.0
C145 C 0.22361 0.10032 0.77925 0.0
O146 O 0.14915 1.01214 0.72678 0.0
O147 O 0.18652 1.01182 0.70372 0.0
O148 O 0.20374 0.94961 0.76839 0.0
C149 C 0.16047 1.01425 0.70096 0.0
O150 O 0.1971 0.10085 0.77875 0.0
C151 C 0.23046 0.95245 0.76494 0.0
O152 O 0.23042 0.07251 0.77661 0.0
O153 O 0.24185 0.98086 0.76114 0.0
C154 C 0.40871 0.99495 0.99049 0.0
O155 O 0.39781 1.01118 0.97358 0.0
Cd156 Cd 0.34804 0.99321 0.95827 0.0
O157 O 0.39306 0.97467 1.00333 0.0
Cd158 Cd 0.3448 0.9514 0.01235 0.0
C159 C 0.35039 0.91172 0.94358 0.0
O160 O 0.33056 0.99826 0.00856 0.0
O161 O 0.29551 0.95569 1.00346 0.0
O162 O 0.36719 0.96238 0.06634 0.0
C163 C 0.30389 0.98632 0.00713 0.0
O164 O 0.35088 0.93839 0.93532 0.0
C165 C 0.3534 0.93543 0.07091 0.0
O166 O 0.34605 0.90835 0.97138 0.0
O167 O 0.33385 0.91754 0.04901 0.0
C168 C 0.40544 0.44846 0.04208 0.0
O169 O 0.39016 0.46411 0.0293 0.0
Cd170 Cd 0.34005 0.44488 0.0098 0.0
O171 O 0.39369 0.42112 0.04824 0.0
Cd172 Cd 0.34113 0.38806 0.04505 0.0
C173 C 0.33578 0.36611 0.96568 0.0
O174 O 0.31555 0.43156 0.05243 0.0
O175 O 0.28996 0.38415 0.02851 0.0
O176 O 0.34786 0.38982 0.10103 0.0
C177 C 0.29081 0.41361 0.04086 0.0
O178 O 0.33322 0.39515 0.96793 0.0
C179 C 0.33573 0.36044 0.10005 0.0
O180 O 0.34157 0.35575 0.99053 0.0
O181 O 0.32739 0.34194 0.0723 0.0
C182 C 0.84559 0.10342 0.05612 0.0
O183 O 0.83265 0.08835 0.07528 0.0
Cd184 Cd 0.78513 0.09221 0.08566 0.0
O185 O 0.8336 0.12072 0.04211 0.0
Cd186 Cd 0.79352 0.14048 0.03807 0.0
C187 C 0.79879 0.17468 0.11044 0.0
O188 O 0.75586 0.09432 0.03945 0.0
O189 O 0.74787 0.14252 0.05456 0.0
O190 O 0.78699 0.13715 0.98133 0.0
C191 C 0.73839 0.11188 0.04779 0.0
O192 O 0.78865 0.14635 0.1147 0.0
C193 C 0.79479 0.1678 0.98481 0.0
O194 O 0.8091 0.17915 0.08505 0.0
O195 O 0.80253 0.1851 0.01303 0.0
C196 C 0.19889 0.57796 0.28744 0.0
O197 O 0.18065 0.5871 0.27066 0.0
Cd198 Cd 0.1681 0.57762 0.21484 0.0
O199 O 0.21508 0.56054 0.275 0.0
Cd200 Cd 0.22411 0.54304 0.22047 0.0
C201 C 0.23567 0.62047 0.21374 0.0
O202 O 0.17651 0.52577 0.20282 0.0
O203 O 0.20436 0.51758 0.16655 0.0
O204 O 0.23012 0.49853 0.23653 0.0
C205 C 0.17899 0.51658 0.1737 0.0
O206 O 0.20879 0.61717 0.20619 0.0
C207 C 0.25452 0.49929 0.22671 0.0
O208 O 0.2455 0.59738 0.22033 0.0
O209 O 0.26537 0.52215 0.21346 0.0
C210 C 0.90712 0.9477 0.54514 0.0
O211 O 0.89253 0.96526 0.53454 0.0
Cd212 Cd 0.84384 0.94644 0.51149 0.0
O213 O 0.89496 0.91897 0.54767 0.0
Cd214 Cd 0.84224 0.8859 0.54255 0.0
C215 C 0.83921 0.86714 0.46456 0.0
O216 O 0.81643 0.92951 0.55032 0.0
O217 O 0.79145 0.8824 0.52473 0.0
O218 O 0.8474 0.88876 0.5987 0.0
C219 C 0.79201 0.91175 0.5372 0.0
O220 O 0.83925 0.89725 0.47029 0.0
C221 C 0.83551 0.85937 0.59786 0.0
O222 O 0.84237 0.85322 0.48755 0.0
O223 O 0.82847 0.84033 0.57021 0.0
C224 C 1.00342 0.06943 0.34735 0.0
O225 O 0.01594 0.05411 0.3265 0.0
Cd226 Cd 0.99513 0.03846 0.2701 0.0
O227 O 0.98219 0.08094 0.33656 0.0
Cd228 Cd 0.95294 0.08372 0.27355 0.0
C229 C 0.92479 0.99466 0.26615 0.0
O230 O 0.99845 0.0806 0.2389 0.0
O231 O 0.9587 0.07207 0.20999 0.0
O232 O 0.94538 0.14605 0.27686 0.0
C233 C 0.98579 0.07485 0.21026 0.0
O234 O 0.95118 0.9943 0.26459 0.0
C235 C 0.91812 0.14228 0.27711 0.0
O236 O 0.91803 0.0225 0.26934 0.0
O237 O 0.90621 0.11263 0.27661 0.0
C238 C 0.33423 0.59271 0.55845 0.0
O239 O 0.31653 0.57838 0.57452 0.0
Cd240 Cd 0.26839 0.58677 0.5789 0.0
O241 O 0.32686 0.61112 0.54189 0.0
Cd242 Cd 0.2882 0.63203 0.52949 0.0
C243 C 0.28621 0.66906 0.60321 0.0
O244 O 0.24486 0.59244 0.53051 0.0
O245 O 0.2449 0.64408 0.53944 0.0
O246 O 0.28349 0.62743 0.47275 0.0
C247 C 0.23134 0.61488 0.53669 0.0
O248 O 0.27511 0.64175 0.6093 0.0
C249 C 0.29568 0.65734 0.47604 0.0
O250 O 0.29626 0.67172 0.57717 0.0
O251 O 0.3059 0.67399 0.50406 0.0
C252 C 0.5012 0.56866 0.84587 0.0
O253 O 0.51018 0.55239 0.82243 0.0
Cd254 Cd 0.4774 0.55388 0.77679 0.0
O255 O 0.48111 0.58297 0.83787 0.0
Cd256 Cd 0.45175 0.583 0.7739 0.0
C257 C 0.4218 0.49575 0.76497 0.0
O258 O 0.49813 0.58431 0.73839 0.0
O259 O 0.45782 0.56464 0.71034 0.0
O260 O 0.44475 0.6459 0.7826 0.0
C261 C 0.485 0.57389 0.70993 0.0
O262 O 0.44777 0.49763 0.75968 0.0
C263 C 0.41743 0.6418 0.77626 0.0
O264 O 0.41471 0.52325 0.77261 0.0
O265 O 0.40507 0.61145 0.76933 0.0
C266 C 0.6747 0.05407 0.76861 0.0
O267 O 0.65786 0.06185 0.7491 0.0
Cd268 Cd 0.66915 0.07101 0.70013 0.0
O269 O 0.69889 0.0491 0.76139 0.0
Cd270 Cd 0.72301 0.0436 0.71219 0.0
C271 C 0.73873 0.12106 0.72215 0.0
O272 O 0.68244 0.02254 0.67804 0.0
O273 O 0.71838 0.0418 0.65481 0.0
O274 O 0.72433 0.99232 0.71845 0.0
C275 C 0.6919 0.02761 0.6526 0.0
O276 O 0.71175 0.11628 0.7142 0.0
C277 C 0.75158 0.99921 0.72189 0.0
O278 O 0.74986 0.09762 0.72443 0.0
O279 O 0.76525 0.02607 0.71697 0.0
C280 C 0.85306 0.66151 0.01291 0.0
O281 O 0.83418 0.63736 0.01648 0.0
Cd282 Cd 0.79112 0.64516 0.03627 0.0
O283 O 0.84695 0.68852 0.01252 0.0
Cd284 Cd 0.80162 0.70558 1.00377 0.0
C285 C 0.81283 0.72502 0.08354 0.0
O286 O 0.76459 0.65319 0.99181 0.0
O287 O 0.74931 0.69624 0.00691 0.0
O288 O 0.81097 0.70306 0.94953 0.0
C289 C 0.74339 0.6654 0.99803 0.0
O290 O 0.80615 0.69423 0.08006 0.0
C291 C 0.81302 0.73281 0.94975 0.0
O292 O 0.81276 0.73789 0.0594 0.0
O293 O 0.80972 0.75118 0.97574 0.0
C294 C 0.97917 0.54336 0.86393 0.0
O295 O 0.98667 0.52636 0.83984 0.0
Cd296 Cd 0.97429 0.51887 0.78521 0.0
O297 O 0.96106 0.5602 0.86169 0.0
Cd298 Cd 0.92967 0.55461 0.81604 0.0
C299 C 0.91019 0.47805 0.79794 0.0
O300 O 0.95996 0.5659 0.77743 0.0
O301 O 0.91972 0.53142 0.75784 0.0
O302 O 0.91672 0.60437 0.82875 0.0
C303 C 0.94386 0.5474 0.75293 0.0
O304 O 0.93046 0.47816 0.78054 0.0
C305 C 0.89006 0.59074 0.82668 0.0
O306 O 0.90926 0.50243 0.8194 0.0
O307 O 0.88312 0.5602 0.82386 0.0
C308 C 0.91677 0.49771 0.48959 0.0
O309 O 0.90894 0.51632 0.47331 0.0
Cd310 Cd 0.85872 0.50265 0.45628 0.0
O311 O 0.89877 0.47845 0.5011 0.0
Cd312 Cd 0.84868 0.46066 0.50615 0.0
C313 C 0.85543 0.42092 0.4373 0.0
O314 O 0.8343 0.50883 0.50365 0.0
O315 O 0.80056 0.46409 0.49194 0.0
O316 O 0.86194 0.45983 0.56091 0.0
C317 C 0.80763 0.49495 0.49953 0.0
O318 O 0.85805 0.44746 0.42818 0.0
C319 C 0.84904 0.42986 0.55573 0.0
O320 O 0.85019 0.41912 0.4651 0.0
O321 O 0.8326 0.41698 0.52966 0.0
C322 C 0.65145 0.52766 0.33918 0.0
O323 O 0.63979 0.54035 0.31927 0.0
Cd324 Cd 0.67182 0.53755 0.27701 0.0
O325 O 0.67308 0.51601 0.32937 0.0
Cd326 Cd 0.69798 0.51137 0.26772 0.0
C327 C 0.725 0.59726 0.27805 0.0
O328 O 0.64939 0.50805 0.22391 0.0
O329 O 0.68978 0.52379 0.2088 0.0
O330 O 0.70721 0.45206 0.27482 0.0
C331 C 0.6625 0.51753 0.20141 0.0
O332 O 0.69773 0.59248 0.27525 0.0
C333 C 0.73215 0.45228 0.26592 0.0
O334 O 0.73496 0.57214 0.2796 0.0
O335 O 0.74177 0.47831 0.25641 0.0
Eu336 Eu 0.04152 0.02391 0.00636 0.0
C337 C 0.12819 0.14644 0.07866 0.0
C338 C 0.14503 0.17187 0.03605 0.0
C339 C 0.15317 0.20391 0.09065 0.0
C340 C 0.13102 0.14415 0.04653 0.0
C341 C 0.1388 0.17663 0.10094 0.0
C342 C 0.15645 0.20147 0.0583 0.0
C343 C 0.12328 0.15037 0.14299 0.0
N344 N 0.1158 0.11923 0.08837 0.0
C345 C 0.11473 0.12079 0.12053 0.0
C346 C 0.13521 0.17851 0.13315 0.0
Eu347 Eu 0.10575 0.06893 0.04899 0.0
N348 N 0.12017 0.11504 0.02553 0.0
C349 C 0.1216 0.11299 0.9934 0.0
C350 C 0.14729 0.16916 1.00347 0.0
C351 C 0.1351 0.1397 0.98202 0.0
H352 H 0.10831 0.09911 0.12955 0.0
H353 H 0.13593 0.13748 0.95657 0.0
H354 H 0.16763 0.22273 0.05067 0.0
H355 H 0.12141 0.15115 0.16805 0.0
H356 H 0.11138 0.09145 0.9757 0.0
H357 H 0.00706 0.95172 0.09373 0.0
H358 H 0.15792 0.18983 0.99457 0.0
H359 H 0.03583 0.99877 0.92521 0.0
H360 H 0.03185 0.9993 0.07668 0.0
H361 H 0.02019 0.94846 0.88376 0.0
H362 H 0.16197 0.22699 0.10758 0.0
H363 H 0.98777 0.89973 0.05414 0.0
H364 H 0.97988 0.86862 0.99737 0.0
H365 H 0.1425 0.20136 0.15078 0.0
H366 H 0.98482 0.86738 0.94073 0.0
N367 N 0.02656 0.97645 0.02701 0.0
C368 C 0.02323 0.97766 0.05856 0.0
C369 C 0.9987 0.92096 0.04629 0.0
C370 C 1.00212 0.91944 0.01408 0.0
C371 C 0.00937 0.95022 0.06863 0.0
C372 C 0.0163 0.94792 1.00496 0.0
H373 H 1.00151 0.89631 0.89866 0.0
N374 N 0.03042 0.97549 0.96453 0.0
C375 C 0.02005 0.94762 0.90874 0.0
C376 C 0.01873 0.94732 0.97297 0.0
C377 C 0.02969 0.97609 0.93262 0.0
C378 C 0.00932 0.91837 0.91722 0.0
C379 C 0.00753 0.91811 0.94945 0.0
O380 O 0.00985 0.0265 0.96855 0.0
O381 O 0.06395 0.07683 0.02854 0.0
O382 O 0.07353 0.0694 0.0877 0.0
O383 O 0.0294 0.0457 0.05763 0.0
O384 O 0.04987 0.06392 0.97971 0.0
O385 O 0.99688 0.01998 0.01539 0.0
O386 O 0.13834 0.07187 0.0881 0.0
O387 O 0.08333 0.01611 0.02736 0.0
O388 O 0.07362 0.02089 0.96823 0.0
O389 O 0.11769 0.04771 0.99731 0.0
O390 O 0.0977 0.02877 0.07593 0.0
O391 O 0.14973 0.06837 0.03911 0.0
C392 C 0.06025 0.08808 1.00364 0.0
C393 C 0.95988 0.02021 0.9746 0.0
C394 C 0.9177 0.04013 0.98343 0.0
C395 C 0.94481 0.03784 0.99468 0.0
C396 C 0.90501 0.02398 0.95215 0.0
C397 C 0.94766 1.00389 0.94325 0.0
C398 C 0.92002 1.00559 0.93215 0.0
C399 C 0.04494 0.0605 0.08614 0.0
C400 C 0.98921 0.02161 0.98613 0.0
C401 C 0.99387 0.8898 0.95855 0.0
C402 C 0.99101 0.89051 0.99076 0.0
C403 C 0.08687 1.00459 0.05215 0.0
C404 C 0.1877 0.07311 0.08139 0.0
C405 C 0.20551 0.06132 0.06021 0.0
C406 C 0.23306 0.0602 0.07171 0.0
C407 C 0.24307 0.07149 0.10447 0.0
C408 C 0.19768 0.08475 0.11415 0.0
C409 C 0.22539 0.08393 0.12563 0.0
C410 C 0.10198 0.03139 0.96921 0.0
C411 C 0.15827 0.07144 0.06934 0.0
H412 H 0.95471 0.05108 0.01869 0.0
H413 H 0.88374 0.02567 0.94336 0.0
H414 H 0.95952 0.9902 0.92747 0.0
H415 H 0.9105 0.9931 0.90801 0.0
H416 H 0.19768 0.05193 0.0349 0.0
H417 H 0.26413 0.06956 0.11349 0.0
H418 H 0.18398 0.09398 0.13087 0.0
H419 H 0.23266 0.09213 0.15099 0.0
Eu420 Eu 0.33567 0.78645 0.23928 0.0
C421 C 0.29494 0.87861 0.34276 0.0
C422 C 0.33828 0.90934 0.37851 0.0
C423 C 0.29604 0.93142 0.37722 0.0
C424 C 0.32315 0.881 0.35554 0.0
C425 C 0.28096 0.90352 0.35443 0.0
C426 C 0.32468 0.93448 0.38894 0.0
C427 C 0.23666 0.87006 0.32361 0.0
N428 N 0.28037 0.85114 0.32099 0.0
C429 C 0.25116 0.84611 0.31277 0.0
C430 C 0.25168 0.89907 0.34423 0.0
Eu431 Eu 0.30374 0.80753 0.31294 0.0
N432 N 0.33547 0.85548 0.34658 0.0
C433 C 0.36305 0.85758 0.35963 0.0
C434 C 0.36649 0.91145 0.39115 0.0
C435 C 0.37892 0.88551 0.38157 0.0
H436 H 0.23837 0.82291 0.29885 0.0
H437 H 0.4008 0.8869 0.39122 0.0
H438 H 0.33594 0.95611 0.40676 0.0
H439 H 0.21366 0.86565 0.31682 0.0
H440 H 0.37394 0.83861 0.35309 0.0
H441 H 0.23712 0.70413 0.16761 0.0
H442 H 0.37875 0.93287 0.40859 0.0
H443 H 0.40192 0.77233 0.25141 0.0
H444 H 0.26416 0.75047 0.20923 0.0
H445 H 0.42894 0.73436 0.22657 0.0
H446 H 0.28555 0.95057 0.38641 0.0
H447 H 0.2619 0.6642 0.13969 0.0
H448 H 0.30753 0.64626 0.13242 0.0
H449 H 0.24019 0.91735 0.35315 0.0
H450 H 0.35937 0.65441 0.14847 0.0
N451 N 0.30472 0.73839 0.20556 0.0
C452 C 0.27579 0.73415 0.19717 0.0
C453 C 0.27409 0.68481 0.15812 0.0
C454 C 0.30357 0.68885 0.16683 0.0
C455 C 0.26009 0.70737 0.17364 0.0
C456 C 0.31841 0.71581 0.19143 0.0
H457 H 0.40447 0.68669 0.18357 0.0
N458 N 0.36091 0.74486 0.22619 0.0
C459 C 0.40588 0.72935 0.21985 0.0
C460 C 0.34736 0.71945 0.20164 0.0
C461 C 0.39008 0.75039 0.2347 0.0
C462 C 0.39205 0.7027 0.19541 0.0
C463 C 0.36253 0.69747 0.18594 0.0
O464 O 0.37824 0.81187 0.23064 0.0
O465 O 0.33798 0.82317 0.28451 0.0
O466 O 0.27568 0.81341 0.26818 0.0
O467 O 0.29678 0.80244 0.22091 0.0
O468 O 0.3375 0.83939 0.24229 0.0
O469 O 0.34387 0.78739 0.19059 0.0
O470 O 0.26118 0.78422 0.32325 0.0
O471 O 0.30186 0.77015 0.26854 0.0
O472 O 0.36381 0.77971 0.28265 0.0
O473 O 0.34276 0.7899 0.33017 0.0
O474 O 0.3005 0.75446 0.31116 0.0
O475 O 0.29498 0.81221 0.3621 0.0
C476 C 0.33867 0.84754 0.27299 0.0
C477 C 0.38752 0.8171 0.17777 0.0
C478 C 0.39344 0.85493 0.14336 0.0
C479 C 0.38042 0.84345 0.16817 0.0
C480 C 0.41375 0.83983 0.12847 0.0
C481 C 0.40825 0.80262 0.16352 0.0
C482 C 0.42143 0.81409 0.13893 0.0
C483 C 0.27615 0.81159 0.23673 0.0
C484 C 0.37111 0.80177 0.19966 0.0
C485 C 0.34801 0.67135 0.16083 0.0
C486 C 0.31853 0.66681 0.15158 0.0
C487 C 0.30082 0.74594 0.28063 0.0
C488 C 0.25481 0.77854 0.37601 0.0
C489 C 0.26734 0.75546 0.38571 0.0
C490 C 0.25591 0.74031 0.40911 0.0
C491 C 0.23191 0.74812 0.4228 0.0
C492 C 0.23091 0.7866 0.38963 0.0
C493 C 0.21946 0.77134 0.41304 0.0
C494 C 0.3637 0.78144 0.31405 0.0
C495 C 0.2679 0.79672 0.35399 0.0
H496 H 0.36413 0.85423 0.17928 0.0
H497 H 0.42309 0.84721 0.10817 0.0
H498 H 0.41347 0.78177 0.17069 0.0
H499 H 0.43694 0.80244 0.12734 0.0
H500 H 0.28616 0.7497 0.37552 0.0
H501 H 0.2232 0.73666 0.44133 0.0
H502 H 0.22149 0.80507 0.38255 0.0
H503 H 0.2012 0.77775 0.42383 0.0
Eu504 Eu 0.6103 0.04891 0.51718 0.0
C505 C 0.50711 0.99204 0.5793 0.0
C506 C 0.48193 0.94683 0.53575 0.0
C507 C 0.47549 0.94451 0.5908 0.0
C508 C 0.50075 0.97801 0.54674 0.0
C509 C 0.49412 0.97559 0.60162 0.0
C510 C 0.46948 0.93013 0.55796 0.0
C511 C 0.51701 0.02285 0.64365 0.0
N512 N 0.52502 0.02224 0.58913 0.0
C513 C 0.52917 0.0383 0.62062 0.0
C514 C 0.49961 0.99124 0.63415 0.0
Eu515 Eu 0.54139 0.04814 0.5484 0.0
N516 N 0.51255 0.995 0.52578 0.0
C517 C 0.50684 0.98193 0.49354 0.0
C518 C 0.47596 0.93343 0.50273 0.0
C519 C 0.4886 0.95105 0.48154 0.0
H520 H 0.54194 0.06314 0.62782 0.0
H521 H 0.48455 0.94075 0.45597 0.0
H522 H 0.45493 0.90624 0.54996 0.0
H523 H 0.52074 0.03548 0.66864 0.0
H524 H 0.51738 0.99447 0.47696 0.0
H525 H 0.70224 0.14062 0.59083 0.0
H526 H 0.46175 0.90952 0.49339 0.0
H527 H 0.60724 0.02449 0.43599 0.0
H528 H 0.66505 0.08906 0.57658 0.0
H529 H 0.62505 0.04674 0.391 0.0
H530 H 0.46533 0.93153 0.60762 0.0
H531 H 0.7103 0.17536 0.55193 0.0
H532 H 0.70115 0.18092 0.49558 0.0
H533 H 0.48996 0.97944 0.65201 0.0
H534 H 0.68051 0.15444 0.43996 0.0
N535 N 0.64918 0.09635 0.53178 0.0
C536 C 0.66705 0.10477 0.56013 0.0
C537 C 0.6933 0.15316 0.54594 0.0
C538 C 0.67765 0.14222 0.51536 0.0
C539 C 0.68873 0.13366 0.56801 0.0
C540 C 0.65576 0.11298 0.50869 0.0
H541 H 0.65398 0.10341 0.40071 0.0
N542 N 0.6255 0.06835 0.47142 0.0
C543 C 0.63009 0.06175 0.41512 0.0
C544 C 0.64373 0.09835 0.47743 0.0
C545 C 0.61995 0.04932 0.4408 0.0
C546 C 0.64628 0.09377 0.42069 0.0
C547 C 0.65385 0.11228 0.45213 0.0
O548 O 0.62264 1.00859 0.48677 0.0
O549 O 0.56624 0.01691 0.51895 0.0
O550 O 0.57298 0.04003 0.58491 0.0
O551 O 0.61391 0.06978 0.56982 0.0
O552 O 0.60096 1.00277 0.53605 0.0
O553 O 0.64856 0.03347 0.53255 0.0
O554 O 0.52305 0.08658 0.57124 0.0
O555 O 0.57924 0.08038 0.5329 0.0
O556 O 0.57725 0.04679 0.47588 0.0
O557 O 0.5364 0.05515 0.49959 0.0
O558 O 0.56511 0.09905 0.57551 0.0
O559 O 0.49659 0.04899 0.53229 0.0
C560 C 0.57356 0.99347 0.52836 0.0
C561 C 0.67146 1.00508 0.49273 0.0
C562 C 0.71161 0.97926 0.4931 0.0
C563 C 0.6886 0.98853 0.50764 0.0
C564 C 0.71787 0.98711 0.46391 0.0
C565 C 0.67822 1.0133 0.46376 0.0
C566 C 0.70136 1.00434 0.44947 0.0
C567 C 0.60015 0.05607 0.59069 0.0
C568 C 0.64537 1.01059 0.50653 0.0
C569 C 0.67313 0.14306 0.45906 0.0
C570 C 0.68491 0.15813 0.49073 0.0
C571 C 0.58238 0.10628 0.55489 0.0
C572 C 0.47344 0.08242 0.56886 0.0
C573 C 0.45414 0.09588 0.55304 0.0
C574 C 0.43716 0.1144 0.57046 0.0
C575 C 0.43911 0.11712 0.60398 0.0
C576 C 0.47316 0.08346 0.60161 0.0
C577 C 0.4559 0.10064 0.61901 0.0
C578 C 0.55111 0.052 0.47525 0.0
C579 C 0.49837 0.07606 0.55322 0.0
H580 H 0.68341 0.98183 0.52989 0.0
H581 H 0.73549 0.97982 0.45232 0.0
H582 H 0.66544 0.02605 0.45186 0.0
H583 H 0.70625 1.01033 0.42692 0.0
H584 H 0.45354 0.09252 0.52739 0.0
H585 H 0.42801 0.13229 0.61914 0.0
H586 H 0.48778 0.07309 0.6142 0.0
H587 H 0.45666 0.10261 0.64459 0.0
Eu588 Eu 0.28872 0.30752 0.77312 0.0
C589 C 0.39797 0.27127 0.8303 0.0
C590 C 0.42356 0.3219 0.8666 0.0
C591 C 0.43192 0.27085 0.87517 0.0
C592 C 0.40356 0.30474 0.83932 0.0
C593 C 0.41227 0.25394 0.84797 0.0
C594 C 0.43769 0.30478 0.88436 0.0
C595 C 0.38832 0.20457 0.80929 0.0
N596 N 0.3787 0.25555 0.80414 0.0
C597 C 0.37511 0.2229 0.7924 0.0
C598 C 0.40667 0.22011 0.83753 0.0
Eu599 Eu 0.35714 0.28759 0.77588 0.0
N600 N 0.38778 0.32032 0.82316 0.0
C601 C 0.39149 0.35335 0.83318 0.0
C602 C 0.4278 0.35563 0.87616 0.0
C603 C 0.41159 0.37136 0.85943 0.0
H604 H 0.36221 0.211 0.76966 0.0
H605 H 0.41417 0.39738 0.86709 0.0
H606 H 0.4528 0.31752 0.90551 0.0
H607 H 0.3847 0.17858 0.80022 0.0
H608 H 0.37852 0.36633 0.8221 0.0
H609 H 0.23487 0.19783 0.67972 0.0
H610 H 0.4429 0.36961 0.89692 0.0
H611 H 0.28395 0.38445 0.77891 0.0
H612 H 0.26747 0.22823 0.72727 0.0
H613 H 0.25999 0.41606 0.74896 0.0
H614 H 0.4429 0.2579 0.88916 0.0
H615 H 0.20833 0.22597 0.64792 0.0
H616 H 0.19714 0.27768 0.64034 0.0
H617 H 0.41705 0.20592 0.85056 0.0
H618 H 0.20456 0.33685 0.65848 0.0
N619 N 0.26071 0.27487 0.72398 0.0
C620 C 0.25629 0.24168 0.71456 0.0
C621 C 0.22287 0.23987 0.66915 0.0
C622 C 0.22687 0.27354 0.67889 0.0
C623 C 0.23774 0.22392 0.68704 0.0
C624 C 0.24614 0.29064 0.70673 0.0
H625 H 0.22834 0.38852 0.69828 0.0
N626 N 0.26887 0.33992 0.74373 0.0
C627 C 0.25742 0.3903 0.73937 0.0
C628 C 0.25051 0.32407 0.71677 0.0
C629 C 0.27141 0.37236 0.75594 0.0
C630 C 0.2395 0.37464 0.71089 0.0
C631 C 0.23544 0.34109 0.69953 0.0
O632 O 0.26487 0.33389 0.80541 0.0
O633 O 0.32299 0.29861 0.80689 0.0
O634 O 0.32562 0.24154 0.78448 0.0
O635 O 0.28121 0.25492 0.78066 0.0
O636 O 0.31133 0.34203 0.81927 0.0
O637 O 0.24671 0.28256 0.78564 0.0
O638 O 0.37572 0.26066 0.73769 0.0
O639 O 0.3224 0.29526 0.74161 0.0
O640 O 0.32073 0.35456 0.76657 0.0
O641 O 0.36449 0.34007 0.76862 0.0
O642 O 0.33154 0.24962 0.73513 0.0
O643 O 0.39807 0.31001 0.75996 0.0
C644 C 0.32552 0.3234 0.82976 0.0
C645 C 0.21503 0.3151 0.80976 0.0
C646 C 0.17367 0.31058 0.84057 0.0
C647 C 0.19812 0.29987 0.83066 0.0
C648 C 0.1662 0.33613 0.82911 0.0
C649 C 0.20662 0.3402 0.79831 0.0
C650 C 0.18241 0.3506 0.80797 0.0
C651 C 0.29696 0.23365 0.78369 0.0
C652 C 0.24377 0.3089 0.80475 0.0
C653 C 0.21633 0.32414 0.67192 0.0
C654 C 0.21205 0.29046 0.66163 0.0
C655 C 0.31914 0.26795 0.72174 0.0
C656 C 0.4255 0.27491 0.73291 0.0
C657 C 0.44623 0.29364 0.71816 0.0
C658 C 0.47059 0.28247 0.70917 0.0
C659 C 0.47409 0.25277 0.71504 0.0
C660 C 0.42975 0.24545 0.7389 0.0
C661 C 0.45387 0.23449 0.72995 0.0
C662 C 0.34926 0.36185 0.76616 0.0
C663 C 0.39804 0.28413 0.73826 0.0
H664 H 0.20461 0.28084 0.84016 0.0
H665 H 0.14764 0.34486 0.83651 0.0
H666 H 0.21933 0.35256 0.78273 0.0
H667 H 0.17643 0.37037 0.79944 0.0
H668 H 0.44325 0.31638 0.71331 0.0
H669 H 0.49278 0.2439 0.70837 0.0
H670 H 0.41409 0.23035 0.74969 0.0
H671 H 0.4568 0.21162 0.73437 0.0
Eu672 Eu 0.07014 0.08335 0.54675 0.0
C673 C 0.09218 0.98208 0.43656 0.0
C674 C 0.04451 0.96078 0.40628 0.0
C675 C 0.08653 0.95108 0.38132 0.0
C676 C 0.06249 0.97815 0.43498 0.0
C677 C 0.1044 0.96823 0.40975 0.0
C678 C 0.0567 0.94745 0.37956 0.0
C679 C 0.15113 0.98722 0.44153 0.0
N680 N 0.10907 0.99818 0.46451 0.0
C681 C 0.13814 1.00023 0.4675 0.0
C682 C 0.1342 0.97121 0.41249 0.0
Eu683 Eu 0.08474 1.01334 0.50917 0.0
N684 N 0.05107 0.99031 0.46154 0.0
C685 C 0.0217 0.98583 0.46053 0.0
C686 C 0.01468 0.95665 0.40531 0.0
C687 C 1.00327 0.96934 0.43253 0.0
H688 H 0.15131 1.01168 0.49025 0.0
H689 H 0.98018 0.96638 0.43205 0.0
H690 H 0.04318 0.93391 0.35751 0.0
H691 H 0.17413 0.98909 0.4441 0.0
H692 H 0.01186 0.99568 0.48074 0.0
H693 H 0.17348 0.13041 0.62637 0.0
H694 H 1.00026 0.94354 0.38373 0.0
H695 H 1.0038 0.08811 0.56311 0.0
H696 H 0.14161 0.09569 0.57989 0.0
H697 H 0.98091 0.11708 0.60567 0.0
H698 H 0.09556 0.94019 0.36062 0.0
H699 H 0.15417 0.16369 0.66933 0.0
H700 H 0.11159 0.17979 0.69177 0.0
H701 H 0.14428 0.96072 0.39251 0.0
H702 H 0.0593 0.17483 0.68704 0.0
N703 N 0.10311 0.10859 0.59474 0.0
C704 C 0.13211 0.10985 0.59779 0.0
C705 C 0.13969 0.1483 0.64867 0.0
C706 C 0.1101 0.14645 0.6462 0.0
C707 C 0.15065 0.12958 0.62453 0.0
C708 C 0.09208 0.12606 0.61871 0.0
H709 H 0.01056 0.15115 0.6555 0.0
N710 N 0.04576 0.10354 0.58952 0.0
C711 C 0.00383 0.11867 0.60916 0.0
C712 C 0.06256 0.12306 0.61622 0.0
C713 C 0.01684 0.10193 0.58534 0.0
C714 C 0.02065 0.13795 0.63717 0.0
C715 C 0.0504 0.14068 0.64085 0.0
O716 O 0.04432 0.11516 0.53419 0.0
O717 O 0.07066 0.05606 0.49528 0.0
O718 O 0.11905 0.05198 0.4949 0.0
O719 O 0.11502 0.09632 0.53259 0.0
O720 O 0.03239 0.06678 0.50587 0.0
O721 O 0.09176 0.13243 0.54295 0.0
O722 O 0.1114 0.98089 0.51871 0.0
O723 O 0.08429 0.04021 0.56121 0.0
O724 O 0.03521 0.04627 0.56145 0.0
O725 O 0.04107 1.00024 0.52727 0.0
O726 O 0.12193 0.02834 0.54991 0.0
O727 O 0.06407 0.96294 0.50855 0.0
C728 C 0.04566 0.05664 0.48223 0.0
C729 C 0.06386 0.16984 0.53111 0.0
C730 C 0.07985 0.21577 0.50806 0.0
C731 C 0.08317 0.18628 0.51394 0.0
C732 C 0.05741 0.22906 0.51975 0.0
C733 C 0.04117 0.18272 0.54251 0.0
C734 C 0.03807 0.21245 0.53691 0.0
C735 C 0.12898 0.08249 0.51075 0.0
C736 C 0.06689 0.13876 0.53618 0.0
C737 C 0.06828 0.16107 0.668 0.0
C738 C 0.09806 0.16401 0.67063 0.0
C739 C 0.10916 0.03849 0.57405 0.0
C740 C 0.09171 0.92479 0.51866 0.0
C741 C 0.07012 0.90556 0.53132 0.0
C742 C 0.07466 0.87756 0.54013 0.0
C743 C 0.10058 0.86822 0.53459 0.0
C744 C 0.11727 0.91517 0.51287 0.0
C745 C 0.12153 0.88672 0.52057 0.0
C746 C 0.02625 1.015 0.54771 0.0
C747 C 0.08898 0.95668 0.51532 0.0
H748 H 0.10057 0.17608 0.50492 0.0
H749 H 0.05473 0.25202 0.51526 0.0
H750 H 0.02604 0.1699 0.5558 0.0
H751 H 0.02065 0.22253 0.54576 0.0
H752 H 0.0502 0.91295 0.53512 0.0
H753 H 0.10484 0.84686 0.54149 0.0
H754 H 0.13411 0.92997 0.50303 0.0
H755 H 0.14139 0.87943 0.51639 0.0
Eu756 Eu 0.35635 0.8205 0.7599 0.0
C757 C 0.2806 0.72543 0.82912 0.0
C758 C 0.27839 0.67132 0.79761 0.0
C759 C 0.26981 0.67872 0.8533 0.0
C760 C 0.28329 0.70525 0.80041 0.0
C761 C 0.27267 0.71207 0.85541 0.0
C762 C 0.27265 0.6584 0.82446 0.0
C763 C 0.26588 0.7643 0.88192 0.0
N764 N 0.28301 0.75752 0.83049 0.0
C765 C 0.27444 0.77666 0.85564 0.0
C766 C 0.26593 0.73216 0.88227 0.0
Eu767 Eu 0.29185 0.77491 0.78305 0.0
N768 N 0.28845 0.71826 0.77461 0.0
C769 C 0.28792 0.6984 0.74511 0.0
C770 C 0.27814 0.65111 0.76758 0.0
C771 C 0.28253 0.66471 0.74114 0.0
H772 H 0.27438 0.80157 0.85531 0.0
H773 H 0.28215 0.64932 0.71772 0.0
H774 H 0.26925 0.6325 0.82281 0.0
H775 H 0.25943 0.77962 0.90195 0.0
H776 H 0.29144 0.70773 0.7241 0.0
H777 H 0.3584 0.9405 0.83198 0.0
H778 H 0.27414 0.62497 0.76446 0.0
H779 H 0.36807 0.79738 0.68315 0.0
H780 H 0.34275 0.88103 0.8171 0.0
H781 H 0.38631 0.82367 0.64038 0.0
H782 H 0.26414 0.66814 0.87341 0.0
H783 H 0.38339 0.97051 0.79486 0.0
H784 H 0.40056 0.96922 0.74097 0.0
H785 H 0.25943 0.72267 0.90276 0.0
H786 H 0.40549 0.93772 0.68795 0.0
N787 N 0.35956 0.87673 0.77215 0.0
C788 C 0.35386 0.89349 0.80063 0.0
C789 C 0.37667 0.9442 0.78816 0.0
C790 C 0.381 0.92695 0.75828 0.0
C791 C 0.36253 0.92739 0.80916 0.0
C792 C 0.37189 0.89271 0.75072 0.0
H793 H 0.39918 0.88368 0.64984 0.0
N794 N 0.36681 0.84184 0.71467 0.0
C795 C 0.38278 0.83833 0.66269 0.0
C796 C 0.37461 0.87485 0.72076 0.0
C797 C 0.37193 0.8235 0.68667 0.0
C798 C 0.39008 0.87221 0.66817 0.0
C799 C 0.38663 0.89092 0.6977 0.0
O800 O 0.3979 0.81383 0.74732 0.0
O801 O 0.33728 0.77063 0.77119 0.0
O802 O 0.32323 0.79316 0.82859 0.0
O803 O 0.35697 0.8317 0.81227 0.0
O804 O 0.37481 0.77585 0.75269 0.0
O805 O 0.39531 0.84693 0.79258 0.0
O806 O 0.25086 0.78509 0.79287 0.0
O807 O 0.31051 0.82393 0.77032 0.0
O808 O 0.32568 0.80282 0.71496 0.0
O809 O 0.29426 0.76168 0.73045 0.0
O810 O 0.27523 0.82107 0.79275 0.0
O811 O 0.25191 0.74584 0.75225 0.0
C812 C 0.35869 0.75614 0.76633 0.0
C813 C 0.44076 0.85182 0.77266 0.0
C814 C 0.49163 0.8599 0.78876 0.0
C815 C 0.4631 0.84718 0.79257 0.0
C816 C 0.49797 0.87858 0.76595 0.0
C817 C 0.44702 0.87016 0.74959 0.0
C818 C 0.47564 0.8839 0.74659 0.0
C819 C 0.34636 0.81753 0.83432 0.0
C820 C 0.41178 0.83335 0.77398 0.0
C821 C 0.39595 0.925 0.70526 0.0
C822 C 0.39334 0.94294 0.73554 0.0
C823 C 0.2907 0.84016 0.77792 0.0
C824 C 0.20642 0.74799 0.77215 0.0
C825 C 0.18513 0.74718 0.74777 0.0
C826 C 0.15607 0.74063 0.75256 0.0
C827 C 0.14815 0.7335 0.78155 0.0
C828 C 0.19848 0.74119 0.80132 0.0
C829 C 0.16933 0.73366 0.8058 0.0
C830 C 0.30529 0.77598 0.70856 0.0
C831 C 0.23619 0.76278 0.76861 0.0
H832 H 0.45833 0.832 0.80964 0.0
H833 H 0.52014 0.88833 0.76269 0.0
H834 H 0.43004 0.87307 0.73339 0.0
H835 H 0.48054 0.89783 0.72862 0.0
H836 H 0.19128 0.75374 0.72574 0.0
H837 H 0.12575 0.72908 0.78584 0.0
H838 H 0.21473 0.74286 0.82088 0.0
H839 H 0.16319 0.72905 0.82847 0.0
Eu840 Eu 0.5838 0.04399 0.06389 0.0
C841 C 0.5023 0.06028 0.94742 0.0
C842 C 0.47746 1.00466 0.92167 0.0
C843 C 0.45717 0.04912 0.91238 0.0
C844 C 0.50134 0.02723 0.94129 0.0
C845 C 0.48048 0.07151 0.93242 0.0
C846 C 0.45553 0.01579 0.90723 0.0
C847 C 0.50691 0.12651 0.95662 0.0
N848 N 0.52455 0.08151 0.96773 0.0
C849 C 0.52765 0.11434 0.9714 0.0
C850 C 0.48299 0.10501 0.93739 0.0
Eu851 Eu 0.56274 0.05962 0.98415 0.0
N852 N 0.52314 0.01707 0.95513 0.0
C853 C 0.52127 0.98447 0.95168 0.0
C854 C 0.47607 0.97147 0.91735 0.0
C855 C 0.49788 0.96136 0.93272 0.0
H856 H 0.54612 0.13148 0.98615 0.0
H857 H 0.49661 0.93566 0.93013 0.0
H858 H 0.43721 0.99878 0.89195 0.0
H859 H 0.50945 0.15252 0.96013 0.0
H860 H 0.53712 0.97564 0.96405 0.0
H861 H 0.64253 0.15816 0.14892 0.0
H862 H 0.45801 0.95345 0.90263 0.0
H863 H 0.5949 0.96986 0.06136 0.0
H864 H 0.60169 0.12232 0.11344 0.0
H865 H 0.63015 0.94495 0.08463 0.0
H866 H 0.44027 0.05737 0.90074 0.0
H867 H 0.68516 0.13846 0.162 0.0
H868 H 0.70996 0.09339 0.15692 0.0
H869 H 0.46686 0.11454 0.92603 0.0
H870 H 0.7066 0.03491 0.13978 0.0
N871 N 0.6219 0.08239 0.10075 0.0
C872 C 0.62054 0.11309 0.11618 0.0
C873 C 0.66798 0.12283 0.14443 0.0
C874 C 0.6687 0.09091 0.13089 0.0
C875 C 0.64375 0.13387 0.13732 0.0
C876 C 0.64504 0.07083 0.10887 0.0
H877 H 0.67616 0.97942 0.11483 0.0
N878 N 0.62018 0.0186 0.07857 0.0
C879 C 0.63458 0.97114 0.08813 0.0
C880 C 0.6439 0.03802 0.09798 0.0
C881 C 0.61457 0.98552 0.07511 0.0
C882 C 0.66055 0.99066 0.10498 0.0
C883 C 0.66533 0.02449 0.11056 0.0
O884 O 0.5598 1.00044 0.07582 0.0
O885 O 0.55194 0.02958 0.01937 0.0
O886 O 0.54454 0.09079 0.02255 0.0
O887 O 0.574 0.09303 0.06849 0.0
O888 O 0.53559 0.03423 0.06335 0.0
O889 O 0.57204 0.04732 0.11248 0.0
O890 O 0.58264 0.10352 0.96991 0.0
O891 O 0.59488 0.07411 0.02857 0.0
O892 O 0.60168 1.01202 0.02505 0.0
O893 O 0.5801 1.01503 0.97497 0.0
O894 O 0.61056 0.07149 0.98456 0.0
O895 O 0.56876 0.0571 0.9341 0.0
C896 C 0.52929 0.02689 0.03282 0.0
C897 C 0.54666 0.99891 0.12806 0.0
C898 C 0.51508 0.99591 0.16879 0.0
C899 C 0.52898 1.01288 0.14792 0.0
C900 C 0.51912 0.96513 0.17032 0.0
C901 C 0.55067 0.96799 0.12913 0.0
C902 C 0.53699 0.95121 0.15044 0.0
C903 C 0.55195 0.10017 0.05382 0.0
C904 C 0.55966 0.01606 0.10522 0.0
C905 C 0.68973 0.04487 0.13051 0.0
C906 C 0.69156 0.07812 0.14039 0.0
C907 C 0.61747 0.0778 0.01496 0.0
C908 C 0.6061 0.09912 0.92394 0.0
C909 C 0.6196 0.07695 0.90627 0.0
C910 C 0.64106 0.08798 0.88809 0.0
C911 C 0.64947 0.1213 0.88838 0.0
C912 C 0.6148 0.13234 0.92424 0.0
C913 C 0.63664 0.14341 0.90673 0.0
C914 C 0.5963 1.0028 0.99325 0.0
C915 C 0.58115 0.08837 0.93995 0.0
H916 H 0.52586 0.0368 0.14704 0.0
H917 H 0.50875 0.95219 0.18704 0.0
H918 H 0.56439 0.95699 0.11365 0.0
H919 H 0.54026 0.9275 0.15155 0.0
H920 H 0.61213 0.05106 0.90468 0.0
H921 H 0.66442 0.12984 0.87252 0.0
H922 H 0.60407 0.14959 0.93727 0.0
H923 H 0.64264 0.16889 0.90618 0.0
Eu924 Eu 0.34559 0.33324 0.29359 0.0
C925 C 0.23139 0.2306 0.22798 0.0
C926 C 0.20503 0.21999 0.27234 0.0
C927 C 0.18178 0.19786 0.21786 0.0
C928 C 0.23081 0.23335 0.2607 0.0
C929 C 0.20697 0.21189 0.20625 0.0
C930 C 0.18062 0.20238 0.25078 0.0
C931 C 0.23488 0.21865 0.16274 0.0
N932 N 0.25653 0.24311 0.21724 0.0
C933 C 0.25844 0.23679 0.18495 0.0
C934 C 0.20912 0.20593 0.17343 0.0
Eu935 Eu 0.29847 0.25426 0.25477 0.0
N936 N 0.25572 0.24703 0.2809 0.0
C937 C 0.25536 0.25002 0.31324 0.0
C938 C 0.2048 0.22344 0.30533 0.0
C939 C 0.22999 0.23903 0.32587 0.0
H940 H 0.27898 0.2423 0.17614 0.0
H941 H 0.23013 0.24181 0.35151 0.0
H942 H 0.16097 0.19129 0.25932 0.0
H943 H 0.23714 0.2129 0.13746 0.0
H944 H 0.2743 0.26096 0.33004 0.0
H945 H 0.41249 0.33881 0.19454 0.0
H946 H 0.1854 0.21378 0.31513 0.0
H947 H 0.36691 0.34702 0.37193 0.0
H948 H 0.36927 0.31888 0.21793 0.0
H949 H 0.40828 0.38018 0.4095 0.0
H950 H 0.16316 0.18306 0.20157 0.0
H951 H 0.45662 0.37241 0.22939 0.0
H952 H 0.48139 0.39966 0.28467 0.0
H953 H 0.19151 0.19036 0.15617 0.0
H954 H 0.48009 0.41092 0.34285 0.0
N955 N 0.38775 0.3403 0.26647 0.0
C956 C 0.38789 0.33348 0.23391 0.0
C957 C 0.43763 0.3631 0.24003 0.0
C958 C 0.43781 0.36932 0.27325 0.0
C959 C 0.41274 0.34441 0.22031 0.0
C960 C 0.41263 0.35622 0.28594 0.0
H961 H 0.45245 0.40483 0.38924 0.0
N962 N 0.38834 0.34698 0.3303 0.0
C963 C 0.41026 0.37387 0.38417 0.0
C964 C 0.41273 0.36035 0.3188 0.0
C965 C 0.38702 0.35367 0.36267 0.0
C966 C 0.43521 0.38774 0.37263 0.0
C967 C 0.43695 0.38071 0.33973 0.0
O968 O 0.33591 0.36586 0.33513 0.0
O969 O 0.30193 0.30027 0.2898 0.0
O970 O 0.30244 0.28786 0.21876 0.0
O971 O 0.33195 0.33871 0.24488 0.0
O972 O 0.30336 0.34604 0.28242 0.0
O973 O 0.36285 0.38524 0.3017 0.0
O974 O 0.30625 0.21984 0.21357 0.0
O975 O 0.34232 0.28687 0.25912 0.0
O976 O 0.3441 0.29983 0.32895 0.0
O977 O 0.31277 0.24946 0.30421 0.0
O978 O 0.34021 0.24018 0.26456 0.0
O979 O 0.28028 0.20265 0.24889 0.0
C980 C 0.2866 0.31938 0.28535 0.0
C981 C 0.34188 0.42097 0.33487 0.0
C982 C 0.31864 0.45737 0.31433 0.0
C983 C 0.32483 0.4272 0.31065 0.0
C984 C 0.32872 0.48144 0.3426 0.0
C985 C 0.35191 0.4445 0.36357 0.0
C986 C 0.34512 0.47475 0.36748 0.0
C987 C 0.31606 0.31842 0.21927 0.0
C988 C 0.35204 0.39161 0.32868 0.0
C989 C 0.46151 0.39498 0.32715 0.0
C990 C 0.46215 0.38877 0.29402 0.0
C991 C 0.35723 0.26753 0.26405 0.0
C992 C 0.2989 0.16489 0.21515 0.0
C993 C 0.31872 0.15951 0.23734 0.0
C994 C 0.32422 0.12887 0.23376 0.0
C995 C 0.31018 0.10364 0.20758 0.0
C996 C 0.28538 0.14016 0.18847 0.0
C997 C 0.29121 0.10953 0.18476 0.0
C998 C 0.32997 0.26977 0.32913 0.0
C999 C 0.28993 0.19498 0.22138 0.0
H1000 H 0.31761 0.40923 0.28818 0.0
H1001 H 0.324 0.50513 0.34525 0.0
H1002 H 0.36554 0.43978 0.38243 0.0
H1003 H 0.35307 0.49316 0.3894 0.0
H1004 H 0.32912 0.17877 0.25794 0.0
H1005 H 0.31346 0.07931 0.20504 0.0
H1006 H 0.26982 0.14433 0.17118 0.0
H1007 H 0.28061 0.08997 0.16486 0.0
Eu1008 Eu 0.57029 0.58319 0.04499 0.0
C1009 C 0.59302 0.47987 0.93688 0.0
C1010 C 0.54496 0.45764 0.90782 0.0
C1011 C 0.58646 0.44769 0.88198 0.0
C1012 C 0.56342 0.47575 0.93598 0.0
C1013 C 0.60477 0.46564 0.90985 0.0
C1014 C 0.55664 0.44369 0.88098 0.0
C1015 C 0.65198 0.48581 0.9403 0.0
N1016 N 0.61029 0.49687 0.96429 0.0
C1017 C 0.63942 0.49903 0.96654 0.0
C1018 C 0.63461 0.46917 0.91175 0.0
Eu1019 Eu 0.58666 0.51312 0.00963 0.0
N1020 N 0.55262 0.48973 0.96224 0.0
C1021 C 0.52333 0.48594 0.96155 0.0
C1022 C 0.51522 0.45403 0.9073 0.0
C1023 C 0.5044 0.46838 0.93425 0.0
H1024 H 0.65303 0.51023 0.98905 0.0
H1025 H 0.4814 0.46593 0.93408 0.0
H1026 H 0.54277 0.42969 0.8593 0.0
H1027 H 0.67501 0.48788 0.94236 0.0
H1028 H 0.51392 0.49705 0.98151 0.0
H1029 H 0.67402 0.64025 0.1204 0.0
H1030 H 0.50044 0.44035 0.88617 0.0
H1031 H 0.50379 0.58763 0.06213 0.0
H1032 H 0.64279 0.60565 0.07331 0.0
H1033 H 0.47996 0.60849 0.10798 0.0
H1034 H 0.59515 0.43656 0.86112 0.0
H1035 H 0.65334 0.66143 0.1688 0.0
H1036 H 0.60985 0.66655 0.19582 0.0
H1037 H 0.64436 0.45851 0.89155 0.0
H1038 H 0.55719 0.65706 0.19283 0.0
N1039 N 0.60328 0.60793 0.0928 0.0
C1040 C 0.63268 0.61506 0.09339 0.0
C1041 C 0.63913 0.64635 0.14779 0.0
C1042 C 0.6092 0.63917 0.1474 0.0
C1043 C 0.65086 0.63453 0.12053 0.0
C1044 C 0.59153 0.61997 0.11913 0.0
H1045 H 0.5088 0.63543 0.16046 0.0
N1046 N 0.54535 0.59895 0.08911 0.0
C1047 C 0.50291 0.61012 0.11113 0.0
C1048 C 0.56178 0.61498 0.11734 0.0
C1049 C 0.51646 0.59786 0.08536 0.0
C1050 C 0.51926 0.62529 0.14065 0.0
C1051 C 0.5491 0.62861 0.14387 0.0
O1052 O 0.54367 0.61557 0.03464 0.0
O1053 O 0.57182 0.5552 0.99368 0.0
O1054 O 0.625 0.55114 1.00103 0.0
O1055 O 0.6128 0.59767 0.02587 0.0
O1056 O 0.53375 0.56731 1.0037 0.0
O1057 O 0.59095 0.63322 0.04443 0.0
O1058 O 0.61196 0.47804 0.01538 0.0
O1059 O 0.58608 0.54153 0.06087 0.0
O1060 O 0.53383 0.5456 0.05636 0.0
O1061 O 0.543 0.49862 0.02777 0.0
O1062 O 0.62401 0.52949 0.05055 0.0
O1063 O 0.56483 0.46484 0.01442 0.0
C1064 C 0.54705 0.55667 0.98029 0.0
C1065 C 0.56368 0.67114 0.03383 0.0
C1066 C 0.57686 0.71595 0.00803 0.0
C1067 C 0.5781 0.68469 0.01096 0.0
C1068 C 0.56084 0.7332 0.02836 0.0
C1069 C 0.54711 0.68792 0.05316 0.0
C1070 C 0.54579 0.71904 0.05046 0.0
C1071 C 0.63084 0.58308 0.01065 0.0
C1072 C 0.56616 0.63953 0.03769 0.0
C1073 C 0.5666 0.64645 0.17231 0.0
C1074 C 0.59657 0.65185 0.17402 0.0
C1075 C 0.61132 0.54124 0.07405 0.0
C1076 C 0.59035 0.42368 0.01976 0.0
C1077 C 0.57083 0.40765 0.03717 0.0
C1078 C 0.57272 0.37724 0.04173 0.0
C1079 C 0.59377 0.36251 0.02848 0.0
C1080 C 0.61146 0.40909 0.00648 0.0
C1081 C 0.61301 0.3784 0.01071 0.0
C1082 C 0.52642 0.51388 0.04515 0.0
C1083 C 0.589 0.45587 0.01613 0.0
H1084 H 0.58956 0.67045 0.99513 0.0
H1085 H 0.5599 0.7577 0.02719 0.0
H1086 H 0.53566 0.67715 0.07065 0.0
H1087 H 0.5333 0.73231 0.06568 0.0
H1088 H 0.55488 0.41919 0.0481 0.0
H1089 H 0.59557 0.33905 0.03239 0.0
H1090 H 0.62663 0.42138 0.99287 0.0
H1091 H 0.62934 0.36713 1.00058 0.0
Eu1092 Eu 0.85596 0.32034 0.26008 0.0
C1093 C 0.77849 0.22476 0.32754 0.0
C1094 C 0.7766 0.17271 0.29199 0.0
C1095 C 0.76099 0.17456 0.34472 0.0
C1096 C 0.78287 0.20699 0.29834 0.0
C1097 C 0.76738 0.20867 0.351 0.0
C1098 C 0.76551 0.15663 0.31526 0.0
C1099 C 0.76692 0.26099 0.38393 0.0
N1100 N 0.78405 0.25764 0.33258 0.0
C1101 C 0.77761 0.27581 0.35983 0.0
C1102 C 0.76203 0.2273 0.37963 0.0
Eu1103 Eu 0.79448 0.27916 0.28758 0.0
N1104 N 0.79355 0.22318 0.27627 0.0
C1105 C 0.79905 0.20657 0.24761 0.0
C1106 C 0.78202 0.15561 0.26259 0.0
C1107 C 0.79359 0.17267 0.24046 0.0
H1108 H 0.7804 0.30177 0.36266 0.0
H1109 H 0.79801 0.15973 0.21771 0.0
H1110 H 0.76048 0.13032 0.31076 0.0
H1111 H 0.76199 0.27548 0.40556 0.0
H1112 H 0.80765 0.21923 0.22999 0.0
H1113 H 0.85245 0.43961 0.33081 0.0
H1114 H 0.7776 0.12929 0.25688 0.0
H1115 H 0.86921 0.29777 0.18388 0.0
H1116 H 0.84649 0.38078 0.32026 0.0
H1117 H 0.88299 0.32396 0.13957 0.0
H1118 H 0.75229 0.16179 0.36238 0.0
H1119 H 0.86631 0.46917 0.28873 0.0
H1120 H 0.87975 0.46778 0.2335 0.0
H1121 H 0.75343 0.21583 0.39819 0.0
H1122 H 0.88735 0.43648 0.18163 0.0
N1123 N 0.85561 0.3759 0.27183 0.0
C1124 C 0.85232 0.39291 0.30137 0.0
C1125 C 0.86343 0.44302 0.28374 0.0
C1126 C 0.86765 0.42572 0.25387 0.0
C1127 C 0.85563 0.42649 0.30755 0.0
C1128 C 0.86332 0.39161 0.24835 0.0
H1129 H 0.88803 0.38311 0.14629 0.0
N1130 N 0.86332 0.34099 0.21392 0.0
C1131 C 0.87822 0.33816 0.16148 0.0
C1132 C 0.8671 0.37374 0.21867 0.0
C1133 C 0.86995 0.32335 0.18636 0.0
C1134 C 0.88111 0.37154 0.16543 0.0
C1135 C 0.87599 0.38984 0.19438 0.0
O1136 O 0.89718 0.31782 0.2436 0.0
O1137 O 0.83923 0.27238 0.27502 0.0
O1138 O 0.82669 0.29665 0.33209 0.0
O1139 O 0.86149 0.33121 0.31285 0.0
O1140 O 0.87406 0.27518 0.2514 0.0
O1141 O 0.89563 0.3512 0.28968 0.0
O1142 O 0.75324 0.28813 0.30092 0.0
O1143 O 0.80862 0.32396 0.26583 0.0
O1144 O 0.82558 0.29793 0.21508 0.0
O1145 O 0.78825 0.26683 0.23445 0.0
O1146 O 0.7896 0.33098 0.30699 0.0
O1147 O 0.75413 0.25136 0.25852 0.0
C1148 C 0.85934 0.25658 0.26726 0.0
C1149 C 0.94214 0.35231 0.27034 0.0
C1150 C 0.99019 0.35577 0.29428 0.0
C1151 C 0.96046 0.34755 0.29483 0.0
C1152 C 1.00167 0.37001 0.26998 0.0
C1153 C 0.95354 0.36615 0.24582 0.0
C1154 C 0.98337 0.37533 0.24593 0.0
C1155 C 0.85096 0.31916 0.33615 0.0
C1156 C 0.91133 0.33931 0.26889 0.0
C1157 C 0.88039 0.42375 0.19998 0.0
C1158 C 0.87618 0.4416 0.22957 0.0
C1159 C 0.79727 0.34485 0.28395 0.0
C1160 C 0.70922 0.2491 0.27886 0.0
C1161 C 0.68683 0.2509 0.25703 0.0
C1162 C 0.65816 0.23806 0.26059 0.0
C1163 C 0.65185 0.22207 0.28542 0.0
C1164 C 0.70294 0.23299 0.30359 0.0
C1165 C 0.67423 0.21924 0.30662 0.0
C1166 C 0.80064 0.27666 0.21093 0.0
C1167 C 0.73833 0.26675 0.27608 0.0
H1168 H 0.9516 0.3357 0.3131 0.0
H1169 H 0.02477 0.37604 0.26916 0.0
H1170 H 0.9394 0.3693 0.22646 0.0
H1171 H 0.9923 0.38574 0.22693 0.0
H1172 H 0.69164 0.26396 0.23828 0.0
H1173 H 0.62966 0.21239 0.28868 0.0
H1174 H 0.71997 0.23162 0.3208 0.0
H1175 H 0.66927 0.20712 0.32589 0.0
Eu1176 Eu 0.08345 0.53608 0.56331 0.0
C1177 C 0.00403 0.57208 0.45599 0.0
C1178 C 0.97833 0.51992 0.42263 0.0
C1179 C 0.95771 0.56663 0.42532 0.0
C1180 C 1.00225 0.53946 0.44453 0.0
C1181 C 0.98223 0.58628 0.44574 0.0
C1182 C 0.95571 0.53344 0.41388 0.0
C1183 C 0.01194 0.63882 0.47372 0.0
N1184 N 0.02815 0.59052 0.47518 0.0
C1185 C 0.03291 0.62358 0.4832 0.0
C1186 C 0.98629 0.62004 0.45525 0.0
Eu1187 Eu 0.0638 0.56441 0.48948 0.0
N1188 N 0.02486 0.52741 0.45288 0.0
C1189 C 0.02552 0.49634 0.43829 0.0
C1190 C 0.97834 0.48775 0.4091 0.0
C1191 C 1.00221 0.47612 0.41658 0.0
H1192 H 0.05283 0.6381 0.49743 0.0
H1193 H 1.0023 0.45134 0.40599 0.0
H1194 H 0.93708 0.51868 0.39739 0.0
H1195 H 0.01562 0.66502 0.48057 0.0
H1196 H 0.04338 0.48621 0.44369 0.0
H1197 H 0.14094 0.64916 0.64996 0.0
H1198 H 0.96034 0.47191 0.39236 0.0
H1199 H 0.09724 0.46365 0.55391 0.0
H1200 H 0.10289 0.61502 0.60894 0.0
H1201 H 0.13613 0.43818 0.56891 0.0
H1202 H 0.94062 0.57705 0.41743 0.0
H1203 H 0.18333 0.62934 0.66509 0.0
H1204 H 0.20834 0.58396 0.65924 0.0
H1205 H 0.97016 0.63191 0.44768 0.0
H1206 H 0.20738 0.52668 0.63674 0.0
N1207 N 0.12166 0.57394 0.60069 0.0
C1208 C 0.12034 0.6048 0.61527 0.0
C1209 C 0.16627 0.61367 0.64704 0.0
C1210 C 0.16756 0.58212 0.63256 0.0
C1211 C 0.14232 0.62483 0.63871 0.0
C1212 C 0.14457 0.56251 0.60939 0.0
H1213 H 0.18055 0.47215 0.60318 0.0
N1214 N 0.12071 0.51158 0.5766 0.0
C1215 C 0.13887 0.4642 0.57661 0.0
C1216 C 0.14411 0.53037 0.59679 0.0
C1217 C 0.11708 0.47866 0.56784 0.0
C1218 C 0.16389 0.48347 0.59592 0.0
C1219 C 0.16648 0.51685 0.60691 0.0
O1220 O 0.05966 0.4957 0.58076 0.0
O1221 O 0.05116 0.53439 0.52372 0.0
O1222 O 0.03973 0.58697 0.52757 0.0
O1223 O 0.06549 0.58105 0.57358 0.0
O1224 O 0.04904 0.4911 0.53613 0.0
O1225 O 0.06345 0.54596 0.60624 0.0
O1226 O 0.08982 0.60275 0.47153 0.0
O1227 O 0.09512 0.56676 0.52992 0.0
O1228 O 0.1077 0.5151 0.52556 0.0
O1229 O 0.08252 0.5197 0.47832 0.0
O1230 O 0.09765 0.60981 0.51725 0.0
O1231 O 0.08351 0.55185 0.44615 0.0
C1232 C 0.03641 0.50571 0.51817 0.0
C1233 C 0.05223 0.50562 0.63482 0.0
C1234 C 0.02641 0.50341 0.68021 0.0
C1235 C 0.02976 0.51207 0.65126 0.0
C1236 C 0.04548 0.48737 0.69274 0.0
C1237 C 0.07196 0.49019 0.64697 0.0
C1238 C 0.06839 0.48086 0.67604 0.0
C1239 C 0.04714 0.594 0.55902 0.0
C1240 C 0.05306 0.51521 0.60486 0.0
C1241 C 0.18999 0.53663 0.62878 0.0
C1242 C 0.19052 0.56922 0.6416 0.0
C1243 C 0.10988 0.59543 0.53588 0.0
C1244 C 0.09858 0.59256 0.41805 0.0
C1245 C 0.12228 0.58699 0.40329 0.0
C1246 C 0.12893 0.59928 0.3768 0.0
C1247 C 0.11162 0.61752 0.36476 0.0
C1248 C 0.08081 0.61038 0.40625 0.0
C1249 C 0.08744 0.62288 0.37945 0.0
C1250 C 0.10084 0.50777 0.49421 0.0
C1251 C 0.0957 0.58232 0.44766 0.0
H1252 H 0.01469 0.5242 0.6415 0.0
H1253 H 0.04299 0.48058 0.71544 0.0
H1254 H 0.0897 0.48529 0.63409 0.0
H1255 H 0.08339 0.46881 0.68566 0.0
H1256 H 0.13632 0.57404 0.41314 0.0
H1257 H 0.11668 0.62726 0.34401 0.0
H1258 H 0.06248 0.61514 0.41805 0.0
H1259 H 0.07407 0.63695 0.37028 0.0
Eu1260 Eu 0.787 0.80813 0.2706 0.0
C1261 C 0.89241 0.77009 0.33222 0.0
C1262 C 0.91504 0.8198 0.37159 0.0
C1263 C 0.92381 0.76849 0.37878 0.0
C1264 C 0.89706 0.80343 0.34262 0.0
C1265 C 0.90607 0.75232 0.34998 0.0
C1266 C 0.92827 0.80216 0.38957 0.0
C1267 C 0.8851 0.70396 0.30866 0.0
N1268 N 0.87498 0.75498 0.30448 0.0
C1269 C 0.87219 0.72258 0.29185 0.0
C1270 C 0.90188 0.71883 0.33805 0.0
Eu1271 Eu 0.85495 0.78772 0.27573 0.0
N1272 N 0.88324 0.81968 0.32516 0.0
C1273 C 0.88745 0.85281 0.33539 0.0
C1274 C 0.919 0.8534 0.38195 0.0
C1275 C 0.90513 0.86994 0.36374 0.0
H1276 H 0.85991 0.71102 0.26863 0.0
H1277 H 0.90783 0.89596 0.37165 0.0
H1278 H 0.94201 0.81434 0.41185 0.0
H1279 H 0.88232 0.67822 0.29876 0.0
H1280 H 0.87658 0.86668 0.32289 0.0
H1281 H 0.72953 0.69649 0.18118 0.0
H1282 H 0.93254 0.86676 0.40406 0.0
H1283 H 0.78232 0.884 0.27454 0.0
H1284 H 0.76857 0.72932 0.22184 0.0
H1285 H 0.75592 0.91488 0.24604 0.0
H1286 H 0.93433 0.7552 0.39279 0.0
H1287 H 0.69462 0.72186 0.1572 0.0
H1288 H 0.68011 0.77266 0.15154 0.0
H1289 H 0.91199 0.70438 0.35101 0.0
H1290 H 0.68928 0.83229 0.16659 0.0
N1291 N 0.7558 0.7741 0.22388 0.0
C1292 C 0.75352 0.74143 0.21282 0.0
C1293 C 0.71163 0.73669 0.17577 0.0
C1294 C 0.71491 0.77025 0.18548 0.0
C1295 C 0.73134 0.72234 0.18915 0.0
C1296 C 0.7373 0.78847 0.21002 0.0
H1297 H 0.71846 0.88556 0.20047 0.0
N1298 N 0.76389 0.83864 0.2421 0.0
C1299 C 0.75216 0.88879 0.23762 0.0
C1300 C 0.74223 0.82191 0.21858 0.0
C1301 C 0.76782 0.87141 0.25302 0.0
C1302 C 0.73089 0.87213 0.21215 0.0
C1303 C 0.72514 0.8382 0.20288 0.0
O1304 O 0.76709 0.83685 0.30479 0.0
O1305 O 0.82061 0.79995 0.30565 0.0
O1306 O 0.82284 0.7417 0.284 0.0
O1307 O 0.77899 0.75506 0.2762 0.0
O1308 O 0.81206 0.84557 0.31299 0.0
O1309 O 0.74731 0.78575 0.29012 0.0
O1310 O 0.87767 0.76082 0.24208 0.0
O1311 O 0.82153 0.79641 0.24071 0.0
O1312 O 0.81928 0.85364 0.26064 0.0
O1313 O 0.86325 0.84079 0.27004 0.0
O1314 O 0.83021 0.75107 0.23247 0.0
O1315 O 0.89492 0.81228 0.25957 0.0
C1316 C 0.82373 0.82662 0.32623 0.0
C1317 C 0.71894 0.82201 0.3158 0.0
C1318 C 0.6758 0.81549 0.34372 0.0
C1319 C 0.69941 0.80376 0.33242 0.0
C1320 C 0.67243 0.84565 0.339 0.0
C1321 C 0.7143 0.85173 0.31084 0.0
C1322 C 0.69144 0.86349 0.3226 0.0
C1323 C 0.79404 0.7337 0.28103 0.0
C1324 C 0.74654 0.8134 0.3086 0.0
C1325 C 0.70266 0.82019 0.17882 0.0
C1326 C 0.69734 0.78625 0.17039 0.0
C1327 C 0.81839 0.77018 0.21955 0.0
C1328 C 0.92709 0.78039 0.23832 0.0
C1329 C 0.94321 0.79129 0.21472 0.0
C1330 C 0.96922 0.78216 0.2092 0.0
C1331 C 0.97905 0.76257 0.22769 0.0
C1332 C 0.93772 0.76137 0.25687 0.0
C1333 C 0.96351 0.75248 0.25148 0.0
C1334 C 0.84822 0.86191 0.26432 0.0
C1335 C 0.8979 0.78582 0.24076 0.0
H1336 H 0.70271 0.78097 0.3368 0.0
H1337 H 0.65476 0.85531 0.34788 0.0
H1338 H 0.72897 0.86668 0.29885 0.0
H1339 H 0.68857 0.88673 0.31919 0.0
H1340 H 0.93521 0.80595 0.2002 0.0
H1341 H 0.99904 0.75535 0.22389 0.0
H1342 H 0.92579 0.75276 0.27505 0.0
H1343 H 0.97138 0.73746 0.26563 0.0
Eu1344 Eu 0.83929 0.29436 0.74313 0.0
C1345 C 0.79502 0.37663 0.85574 0.0
C1346 C 0.83647 0.39989 0.89649 0.0
C1347 C 0.79485 0.42313 0.89887 0.0
C1348 C 0.82213 0.37566 0.86909 0.0
C1349 C 0.78097 0.40005 0.8711 0.0
C1350 C 0.8226 0.42327 0.91132 0.0
C1351 C 0.73902 0.37466 0.83244 0.0
N1352 N 0.78169 0.35378 0.82894 0.0
C1353 C 0.75349 0.35187 0.81818 0.0
C1354 C 0.75286 0.39901 0.85887 0.0
Eu1355 Eu 0.80326 0.30918 0.81422 0.0
N1356 N 0.83515 0.35236 0.85452 0.0
C1357 C 0.8636 0.35454 0.86488 0.0
C1358 C 0.86479 0.40074 0.90773 0.0
C1359 C 0.87857 0.37844 0.89143 0.0
H1360 H 0.74082 0.33148 0.80012 0.0
H1361 H 0.90109 0.38018 0.89874 0.0
H1362 H 0.83326 0.44173 0.93243 0.0
H1363 H 0.71673 0.37261 0.82375 0.0
H1364 H 0.87634 0.34037 0.85168 0.0
H1365 H 0.74429 0.21544 0.66223 0.0
H1366 H 0.87661 0.41939 0.92814 0.0
H1367 H 0.90612 0.28772 0.74077 0.0
H1368 H 0.77207 0.26444 0.69971 0.0
H1369 H 0.93337 0.24826 0.71737 0.0
H1370 H 0.78427 0.44109 0.91091 0.0
H1371 H 0.76538 0.16825 0.64678 0.0
H1372 H 0.80852 0.14487 0.64885 0.0
H1373 H 0.74132 0.41624 0.8703 0.0
H1374 H 0.86049 0.15351 0.66464 0.0
N1375 N 0.80935 0.24628 0.70752 0.0
C1376 C 0.7821 0.24461 0.69396 0.0
C1377 C 0.77787 0.18991 0.66374 0.0
C1378 C 0.80625 0.19218 0.67598 0.0
C1379 C 0.76597 0.21652 0.67229 0.0
C1380 C 0.82168 0.22107 0.69795 0.0
H1381 H 0.90746 0.19246 0.68917 0.0
N1382 N 0.86521 0.25457 0.72626 0.0
C1383 C 0.91008 0.24108 0.71534 0.0
C1384 C 0.85061 0.22543 0.70757 0.0
C1385 C 0.89455 0.26333 0.72851 0.0
C1386 C 0.89538 0.20966 0.69937 0.0
C1387 C 0.86525 0.20174 0.69445 0.0
O1388 O 0.87575 0.32487 0.7283 0.0
O1389 O 0.82705 0.33232 0.78013 0.0
O1390 O 0.77402 0.31365 0.77017 0.0
O1391 O 0.80176 0.31523 0.72808 0.0
O1392 O 0.87027 0.33715 0.77657 0.0
O1393 O 0.83629 0.30399 0.69497 0.0
O1394 O 0.75918 0.28174 0.81733 0.0
O1395 O 0.80458 0.27435 0.76941 0.0
O1396 O 0.8662 0.28047 0.78332 0.0
O1397 O 0.84419 0.2926 0.83014 0.0
O1398 O 0.80421 0.25685 0.81108 0.0
O1399 O 0.78797 0.31041 0.85987 0.0
C1400 C 0.85136 0.3512 0.7893 0.0
C1401 C 0.87984 0.32337 0.6735 0.0
C1402 C 0.89002 0.34999 0.63019 0.0
C1403 C 0.87145 0.33998 0.6515 0.0
C1404 C 0.91645 0.34124 0.62902 0.0
C1405 C 0.90652 0.31491 0.67291 0.0
C1406 C 0.92451 0.32334 0.65022 0.0
C1407 C 0.7778 0.318 0.74081 0.0
C1408 C 0.86266 0.32171 0.69991 0.0
C1409 C 0.84965 0.1721 0.67453 0.0
C1410 C 0.8201 0.16725 0.66543 0.0
C1411 C 0.80428 0.24955 0.78036 0.0
C1412 C 0.74857 0.27376 0.86897 0.0
C1413 C 0.7639 0.25492 0.88249 0.0
C1414 C 0.75476 0.24359 0.90887 0.0
C1415 C 0.73008 0.25052 0.92159 0.0
C1416 C 0.72376 0.2806 0.88135 0.0
C1417 C 0.7145 0.26889 0.90767 0.0
C1418 C 0.86557 0.28324 0.815 0.0
C1419 C 0.76212 0.29321 0.84826 0.0
H1420 H 0.85105 0.34703 0.65228 0.0
H1421 H 0.93099 0.34897 0.61245 0.0
H1422 H 0.91397 0.30301 0.69042 0.0
H1423 H 0.94516 0.31707 0.64989 0.0
H1424 H 0.7834 0.25011 0.87329 0.0
H1425 H 0.72286 0.24149 0.94208 0.0
H1426 H 0.71245 0.29632 0.8717 0.0
H1427 H 0.69564 0.27455 0.91762 0.0
Eu1428 Eu 0.84362 0.83392 0.7918 0.0
C1429 C 0.73015 0.72697 0.72333 0.0
C1430 C 0.70238 0.71927 0.76724 0.0
C1431 C 0.68255 0.68976 0.71313 0.0
C1432 C 0.72831 0.7325 0.7559 0.0
C1433 C 0.70735 0.70493 0.70159 0.0
C1434 C 0.67963 0.69767 0.7457 0.0
C1435 C 0.73611 0.71198 0.65882 0.0
N1436 N 0.75522 0.74056 0.71318 0.0
C1437 C 0.75815 0.73343 0.68117 0.0
C1438 C 0.71079 0.69722 0.66913 0.0
Eu1439 Eu 0.7963 0.75512 0.75262 0.0
N1440 N 0.75221 0.7494 0.77651 0.0
C1441 C 0.75028 0.75679 0.80871 0.0
C1442 C 0.70047 0.72704 0.80006 0.0
C1443 C 0.72438 0.74659 0.8208 0.0
H1444 H 0.77871 0.74083 0.67302 0.0
H1445 H 0.72327 0.75277 0.84633 0.0
H1446 H 0.66007 0.68618 0.75411 0.0
H1447 H 0.73937 0.70541 0.63389 0.0
H1448 H 0.76862 0.77023 0.82567 0.0
H1449 H 0.9141 0.84652 0.69659 0.0
H1450 H 0.68081 0.71781 0.80962 0.0
H1451 H 0.86215 0.84583 0.87057 0.0
H1452 H 0.86975 0.82624 0.71703 0.0
H1453 H 0.90401 0.87358 0.91004 0.0
H1454 H 0.66566 0.67161 0.69714 0.0
H1455 H 0.95822 0.87513 0.73376 0.0
H1456 H 0.98214 0.89658 0.78989 0.0
H1457 H 0.69443 0.67928 0.65197 0.0
H1458 H 0.97943 0.90366 0.84753 0.0
N1459 N 0.88704 0.84199 0.7666 0.0
C1460 C 0.88815 0.83831 0.73428 0.0
C1461 C 0.93859 0.86554 0.74318 0.0
C1462 C 0.93782 0.86888 0.77608 0.0
C1463 C 0.91374 0.84965 0.72219 0.0
C1464 C 0.9117 0.85575 0.78721 0.0
H1465 H 0.95052 0.89517 0.89236 0.0
N1466 N 0.88525 0.84563 0.82992 0.0
C1467 C 0.90648 0.86854 0.88479 0.0
C1468 C 0.91067 0.85809 0.81975 0.0
C1469 C 0.88289 0.85149 0.8621 0.0
C1470 C 0.93269 0.8808 0.87469 0.0
C1471 C 0.93511 0.8758 0.84194 0.0
O1472 O 0.8328 0.86597 0.83297 0.0
O1473 O 0.79938 0.80221 0.7863 0.0
O1474 O 0.80045 0.78775 0.71631 0.0
O1475 O 0.83107 0.83822 0.74209 0.0
O1476 O 0.8028 0.84764 0.77713 0.0
O1477 O 0.86083 0.88604 0.80066 0.0
O1478 O 0.80741 0.72193 0.71262 0.0
O1479 O 0.84058 0.78717 0.75844 0.0
O1480 O 0.83906 0.8002 0.82748 0.0
O1481 O 0.80683 0.75051 0.80273 0.0
O1482 O 0.83749 0.74111 0.76622 0.0
O1483 O 0.7794 0.70319 0.74576 0.0
C1484 C 0.785 0.82192 0.78062 0.0
C1485 C 0.84027 0.92189 0.83441 0.0
C1486 C 0.81406 0.95731 0.81548 0.0
C1487 C 0.81721 0.92602 0.81546 0.0
C1488 C 0.83271 0.98403 0.83763 0.0
C1489 C 0.85792 0.94819 0.857 0.0
C1490 C 0.8537 0.97923 0.85903 0.0
C1491 C 0.81497 0.81781 0.71657 0.0
C1492 C 0.84938 0.89186 0.82726 0.0
C1493 C 0.96072 0.88961 0.83088 0.0
C1494 C 0.96219 0.88578 0.79805 0.0
C1495 C 0.85496 0.76796 0.76501 0.0
C1496 C 0.8023 0.66738 0.715 0.0
C1497 C 0.81654 0.66033 0.74097 0.0
C1498 C 0.8256 0.6316 0.73715 0.0
C1499 C 0.82033 0.60961 0.70711 0.0
C1500 C 0.79697 0.64571 0.68491 0.0
C1501 C 0.80607 0.6168 0.68098 0.0
C1502 C 0.82356 0.7707 0.82793 0.0
C1503 C 0.79137 0.69631 0.7196 0.0
H1504 H 0.80265 0.9049 0.80016 0.0
H1505 H 0.83189 1.00888 0.83804 0.0
H1506 H 0.8757 0.94485 0.87201 0.0
H1507 H 0.86768 0.99985 0.87595 0.0
H1508 H 0.81978 0.67675 0.76442 0.0
H1509 H 0.82723 0.58707 0.70395 0.0
H1510 H 0.78549 0.65095 0.6647 0.0
H1511 H 0.8019 0.59992 0.65783 0.0
Eu1512 Eu 0.54137 0.52346 0.50626 0.0
C1513 C 0.62968 0.64864 0.57856 0.0
C1514 C 0.64581 0.67432 0.53591 0.0
C1515 C 0.65587 0.70565 0.5909 0.0
C1516 C 0.63169 0.64665 0.54634 0.0
C1517 C 0.64122 0.67844 0.60111 0.0
C1518 C 0.65829 0.70353 0.55838 0.0
C1519 C 0.62506 0.65189 0.64282 0.0
N1520 N 0.61699 0.62146 0.58807 0.0
C1521 C 0.61617 0.62255 0.62011 0.0
C1522 C 0.63795 0.68 0.63339 0.0
Eu1523 Eu 0.60562 0.57165 0.54843 0.0
N1524 N 0.61988 0.61785 0.52519 0.0
C1525 C 0.6204 0.61607 0.49298 0.0
C1526 C 0.64707 0.67195 0.50319 0.0
C1527 C 0.63388 0.64281 0.48162 0.0
H1528 H 0.60907 0.6006 0.62856 0.0
H1529 H 0.63404 0.64086 0.45611 0.0
H1530 H 0.6696 0.72476 0.5508 0.0
H1531 H 0.6225 0.65247 0.66769 0.0
H1532 H 0.60971 0.59461 0.4753 0.0
H1533 H 0.51664 0.44982 0.59582 0.0
H1534 H 0.65773 0.6926 0.4943 0.0
H1535 H 0.53528 0.49753 0.42539 0.0
H1536 H 0.53841 0.49791 0.57792 0.0
H1537 H 0.51854 0.44706 0.38427 0.0
H1538 H 0.6654 0.72844 0.60799 0.0
H1539 H 0.49408 0.39843 0.55659 0.0
H1540 H 0.48131 0.36803 0.4996 0.0
H1541 H 0.6459 0.70258 0.65127 0.0
H1542 H 0.48304 0.36688 0.44243 0.0
N1543 N 0.52842 0.4758 0.52766 0.0
C1544 C 0.52839 0.47647 0.55975 0.0
C1545 C 0.50374 0.41984 0.54824 0.0
C1546 C 0.50405 0.41876 0.51559 0.0
C1547 C 0.51631 0.44875 0.5704 0.0
C1548 C 0.51691 0.44737 0.50587 0.0
H1549 H 0.49909 0.39534 0.39966 0.0
N1550 N 0.5293 0.47472 0.46491 0.0
C1551 C 0.51845 0.44646 0.4093 0.0
C1552 C 0.51771 0.44674 0.47367 0.0
C1553 C 0.52872 0.475 0.43297 0.0
C1554 C 0.50729 0.41746 0.41808 0.0
C1555 C 0.50595 0.41748 0.45042 0.0
O1556 O 0.50761 0.52311 0.46923 0.0
O1557 O 0.56324 0.5768 0.52718 0.0
O1558 O 0.572 0.5763 0.5859 0.0
O1559 O 0.53006 0.54132 0.55835 0.0
O1560 O 0.54906 0.56281 0.47855 0.0
O1561 O 0.49844 0.52602 0.51888 0.0
O1562 O 0.63747 0.57117 0.5871 0.0
O1563 O 0.58412 0.51824 0.52749 0.0
O1564 O 0.57352 0.52117 0.46798 0.0
O1565 O 0.61719 0.55113 0.49648 0.0
O1566 O 0.59779 0.53271 0.57629 0.0
O1567 O 0.65008 0.57248 0.53919 0.0
C1568 C 0.55922 0.58749 0.50204 0.0
C1569 C 0.45935 0.52524 0.47943 0.0
C1570 C 0.41635 0.54229 0.49262 0.0
C1571 C 0.44386 0.53952 0.50205 0.0
C1572 C 0.40391 0.53054 0.46057 0.0
C1573 C 0.44704 0.51326 0.44729 0.0
C1574 C 0.41925 0.51584 0.43795 0.0
C1575 C 0.54441 0.5611 0.58564 0.0
C1576 C 0.48886 0.52471 0.48934 0.0
C1577 C 0.49269 0.3893 0.46001 0.0
C1578 C 0.49166 0.38997 0.49252 0.0
C1579 C 0.58833 0.50783 0.55283 0.0
C1580 C 0.68727 0.573 0.58097 0.0
C1581 C 0.70507 0.56125 0.55963 0.0
C1582 C 0.73194 0.55774 0.57112 0.0
C1583 C 0.74159 0.5677 0.60416 0.0
C1584 C 0.69698 0.58303 0.61393 0.0
C1585 C 0.72426 0.58065 0.62541 0.0
C1586 C 0.60167 0.53352 0.46871 0.0
C1587 C 0.6579 0.57237 0.56889 0.0
H1588 H 0.45334 0.54913 0.52687 0.0
H1589 H 0.38241 0.53267 0.45321 0.0
H1590 H 0.45889 0.5021 0.42948 0.0
H1591 H 0.40972 0.50665 0.4132 0.0
H1592 H 0.69772 0.55409 0.53412 0.0
H1593 H 0.76231 0.56499 0.61354 0.0
H1594 H 0.68341 0.59237 0.63076 0.0
H1595 H 0.73174 0.58826 0.65082 0.0
Eu1596 Eu 0.11026 0.55121 0.01102 0.0
C1597 C 0.00886 0.48943 0.0808 0.0
C1598 C 0.97839 0.44567 0.0398 0.0
C1599 C 0.9811 0.44132 0.09524 0.0
C1600 C 0.99857 0.47618 0.04896 0.0
C1601 C 0.99877 0.47304 0.10447 0.0
C1602 C 0.97106 0.42753 0.06283 0.0
C1603 C 0.01906 0.52291 0.14416 0.0
N1604 N 0.02524 0.52037 0.08891 0.0
C1605 C 0.02909 0.53784 0.11984 0.0
C1606 C 0.00475 0.49001 0.13658 0.0
Eu1607 Eu 0.04183 0.54476 0.04716 0.0
N1608 N 0.00477 0.49536 0.02789 0.0
C1609 C 0.98815 0.48724 0.99863 0.0
C1610 C 0.9642 0.43563 0.00851 0.0
C1611 C 0.9683 0.45708 0.98824 0.0
H1612 H 0.04061 0.56318 0.12579 0.0
H1613 H 0.95598 0.45057 0.9647 0.0
H1614 H 0.95601 0.40385 0.05615 0.0
H1615 H 0.02268 0.53669 0.16876 0.0
H1616 H 0.98954 0.5038 0.98293 0.0
H1617 H 0.18847 0.65443 0.09327 0.0
H1618 H 0.94851 0.41247 1.00059 0.0
H1619 H 0.10341 0.532 0.93137 0.0
H1620 H 0.15533 0.60168 0.07859 0.0
H1621 H 0.11969 0.55665 0.88665 0.0
H1622 H 0.97363 0.42809 0.11307 0.0
H1623 H 0.20093 0.68599 0.05251 0.0
H1624 H 0.19764 0.68827 0.99497 0.0
H1625 H 0.99703 0.47848 0.15546 0.0
H1626 H 0.17965 0.66147 0.93871 0.0
N1627 N 0.14559 0.60216 0.02901 0.0
C1628 C 0.15917 0.61439 0.05984 0.0
C1629 C 0.18556 0.66254 0.04564 0.0
C1630 C 0.17359 0.64915 0.01378 0.0
C1631 C 0.17868 0.64478 0.06864 0.0
C1632 C 0.15337 0.61859 1.00604 0.0
H1633 H 0.15108 0.61234 0.89819 0.0
N1634 N 0.12437 0.57392 0.96745 0.0
C1635 C 0.1261 0.57031 0.91119 0.0
C1636 C 0.14276 0.60385 0.97436 0.0
C1637 C 0.11691 0.55648 0.93646 0.0
C1638 C 0.14378 0.60176 0.9178 0.0
C1639 C 0.15268 0.61877 0.94964 0.0
O1640 O 0.1259 0.51102 0.98502 0.0
O1641 O 0.07414 0.51781 0.02788 0.0
O1642 O 0.07366 0.53416 0.08184 0.0
O1643 O 0.11454 0.56215 0.06477 0.0
O1644 O 0.0855 0.50039 0.98349 0.0
O1645 O 0.15074 0.54161 0.02895 0.0
O1646 O 0.02573 0.58331 0.0745 0.0
O1647 O 0.0782 0.57791 0.03072 0.0
O1648 O 0.0781 0.56321 0.97828 0.0
O1649 O 0.03696 0.53333 0.99369 0.0
O1650 O 0.06609 0.5955 0.07482 0.0
O1651 O 0.00513 0.5592 0.02601 0.0
C1652 C 0.06921 0.49296 1.00479 0.0
C1653 C 0.17504 0.51079 0.99255 0.0
C1654 C 0.21386 0.4829 0.99308 0.0
C1655 C 0.1909 0.49287 0.00717 0.0
C1656 C 0.22109 0.49132 0.96432 0.0
C1657 C 0.18263 0.51941 0.964 0.0
C1658 C 0.20567 0.5097 0.95002 0.0
C1659 C 0.10157 0.54757 0.08557 0.0
C1660 C 0.14874 0.51645 1.00557 0.0
C1661 C 0.17197 0.64958 0.95737 0.0
C1662 C 0.18223 0.66483 0.98939 0.0
C1663 C 0.08223 0.60294 0.05342 0.0
C1664 C 0.97798 0.58507 0.06233 0.0
C1665 C 0.96431 0.60482 0.04817 0.0
C1666 C 0.94026 0.61359 0.06011 0.0
C1667 C 0.92985 0.60253 0.0866 0.0
C1668 C 0.96737 0.57342 0.08841 0.0
C1669 C 0.94332 0.58231 0.10056 0.0
C1670 C 0.05081 0.5475 0.97325 0.0
C1671 C 0.00533 0.58117 0.05192 0.0
H1672 H 0.18465 0.4856 0.02885 0.0
H1673 H 0.23876 0.48378 0.95305 0.0
H1674 H 0.17039 0.53292 0.95219 0.0
H1675 H 0.21134 0.51603 0.92783 0.0
H1676 H 0.97289 0.61414 0.02832 0.0
H1677 H 0.91105 0.60904 0.09605 0.0
H1678 H 0.97804 0.55831 0.09979 0.0
H1679 H 0.93524 0.57375 0.12089 0.0
C1680 C 0.05111 0.15659 0.96281 0.0
C1681 C 0.04304 0.18011 0.986 0.0
C1682 C 0.05812 0.12859 0.96989 0.0
C1683 C 0.05757 0.12183 1.00067 0.0
H1684 H 0.05194 0.15966 0.93848 0.0
H1685 H 0.0635 0.11145 0.95048 0.0
S1686 S 0.0384 0.17523 0.07103 0.0
N1687 N 0.0357 0.19477 0.04207 0.0
N1688 N 0.04846 0.14185 0.05511 0.0
C1689 C 0.05029 0.14539 0.02463 0.0
C1690 C 0.04319 0.1744 0.01739 0.0
C1691 C 0.23428 0.85037 0.18139 0.0
C1692 C 0.20641 0.82924 0.17427 0.0
C1693 C 0.25635 0.84505 0.20221 0.0
C1694 C 0.25161 0.81861 0.21734 0.0
H1695 H 0.23909 0.87129 0.17083 0.0
H1696 H 0.27743 0.86179 0.20645 0.0
S1697 S 0.18425 0.75329 0.20338 0.0
N1698 N 0.1771 0.77835 0.18141 0.0
N1699 N 0.21734 0.76978 0.22168 0.0
C1700 C 0.22407 0.79712 0.21014 0.0
C1701 C 0.20188 0.80207 0.18842 0.0
C1702 C 0.55019 0.89982 0.51442 0.0
C1703 C 0.54983 0.88921 0.48093 0.0
C1704 C 0.5564 0.93353 0.5297 0.0
C1705 C 0.56171 0.95809 0.51215 0.0
H1706 H 0.54656 0.88209 0.52907 0.0
H1707 H 0.55765 0.94047 0.55555 0.0
S1708 S 0.56271 0.94443 0.42428 0.0
N1709 N 0.55507 0.90755 0.43103 0.0
N1710 N 0.56588 0.9693 0.45965 0.0
C1711 C 0.5606 0.94786 0.47885 0.0
C1712 C 0.55479 0.914 0.46335 0.0
C1713 C 0.52143 0.30225 0.64954 0.0
C1714 C 0.54723 0.3172 0.67013 0.0
C1715 C 0.49509 0.2944 0.66211 0.0
C1716 C 0.49396 0.30172 0.69543 0.0
H1717 H 0.52204 0.29356 0.62414 0.0
H1718 H 0.47613 0.2799 0.64602 0.0
S1719 S 0.55488 0.34504 0.75844 0.0
N1720 N 0.56942 0.34251 0.72464 0.0
N1721 N 0.52013 0.32794 0.74807 0.0
C1722 C 0.51907 0.31972 0.71566 0.0
C1723 C 0.5457 0.32747 0.703 0.0
C1724 C 0.02915 0.80459 0.56238 0.0
C1725 C 0.01725 0.81849 0.58915 0.0
C1726 C 0.04659 0.82407 0.54586 0.0
C1727 C 0.0528 0.85812 0.55547 0.0
H1728 H 0.02666 0.77852 0.55534 0.0
H1729 H 0.05617 0.81232 0.52608 0.0
S1730 S 0.0229 0.90616 0.62119 0.0
N1731 N 0.00962 0.86787 0.62226 0.0
N1732 N 0.04302 0.90501 0.59157 0.0
C1733 C 0.03919 0.87237 0.58078 0.0
C1734 C 0.02128 0.85236 0.59756 0.0
C1735 C 0.54966 0.8623 0.85364 0.0
C1736 C 0.56722 0.84539 0.83571 0.0
C1737 C 0.52352 0.86503 0.83887 0.0
C1738 C 0.51489 0.85097 0.8061 0.0
H1739 H 0.55729 0.87577 0.8781 0.0
H1740 H 0.5112 0.88011 0.85234 0.0
S1741 S 0.55064 0.79854 0.75163 0.0
N1742 N 0.57226 0.81014 0.78583 0.0
N1743 N 0.52312 0.81526 0.75797 0.0
C1744 C 0.53078 0.83111 0.78924 0.0
C1745 C 0.55709 0.82829 0.80419 0.0
C1746 C 0.51623 0.12652 0.12662 0.0
C1747 C 0.49898 0.14572 0.11618 0.0
C1748 C 0.53297 0.11168 0.10601 0.0
C1749 C 0.53248 0.11471 0.07402 0.0
H1750 H 0.5192 0.1256 0.15162 0.0
H1751 H 0.5471 0.09868 0.1157 0.0
S1752 S 0.48258 0.15201 0.03238 0.0
N1753 N 0.47622 0.15943 0.07005 0.0
N1754 N 0.50784 0.13152 0.03128 0.0
C1755 C 0.51193 0.12951 0.06222 0.0
C1756 C 0.49482 0.14465 0.08324 0.0
C1757 C 0.21544 0.3308 0.30976 0.0
C1758 C 0.21993 0.33343 0.34308 0.0
C1759 C 0.23706 0.32561 0.29069 0.0
C1760 C 0.26334 0.32257 0.30455 0.0
H1761 H 0.19527 0.33309 0.29841 0.0
H1762 H 0.2333 0.32408 0.26518 0.0
S1763 S 0.28548 0.32754 0.39044 0.0
N1764 N 0.2523 0.33239 0.38892 0.0
N1765 N 0.29309 0.32311 0.35323 0.0
C1766 C 0.26811 0.32544 0.3378 0.0
C1767 C 0.24624 0.33063 0.35708 0.0
C1768 C 0.9967 0.08794 0.15407 0.0
C1769 C 1.00152 0.07158 0.17892 0.0
C1770 C 0.01042 0.08461 0.12498 0.0
C1771 C 0.03011 0.06448 0.11803 0.0
H1772 H 0.98218 0.10397 0.15719 0.0
H1773 H 0.00558 0.09832 0.10773 0.0
S1774 S 0.04863 1.01306 0.17239 0.0
N1775 N 0.02679 0.03232 0.19213 0.0
N1776 N 0.05199 0.02643 0.13919 0.0
C1777 C 0.03488 0.04776 0.14249 0.0
C1778 C 0.02094 0.05114 0.17205 0.0
C1779 C 0.26463 0.66354 0.43093 0.0
C1780 C 0.29114 0.67425 0.45084 0.0
C1781 C 0.25386 0.68489 0.41601 0.0
C1782 C 0.26965 0.71706 0.42011 0.0
H1783 H 0.25074 0.63972 0.4295 0.0
H1784 H 0.23243 0.6768 0.4027 0.0
S1785 S 0.34173 0.75546 0.46614 0.0
N1786 N 0.33426 0.71779 0.47106 0.0
N1787 N 0.31405 0.75797 0.44229 0.0
C1788 C 0.29736 0.72718 0.43727 0.0
C1789 C 0.3082 0.70558 0.45274 0.0
C1790 C 0.64606 1.00995 0.61965 0.0
C1791 C 0.67108 0.0348 0.6313 0.0
C1792 C 0.62017 0.01739 0.61147 0.0
C1793 C 0.61891 0.04986 0.61472 0.0
H1794 H 0.64633 0.98472 0.61818 0.0
H1795 H 0.6017 0.99769 0.60033 0.0
S1796 S 0.67697 0.12375 0.64849 0.0
N1797 N 0.69254 0.09315 0.64761 0.0
N1798 N 0.64282 0.10695 0.63419 0.0
C1799 C 0.64303 0.07489 0.62865 0.0
C1800 C 0.66971 0.06744 0.63534 0.0
C1801 C 0.35294 0.33454 0.91832 0.0
C1802 C 0.33047 0.34467 0.93332 0.0
C1803 C 0.34988 0.32305 0.88478 0.0
C1804 C 0.32507 0.32264 0.86485 0.0
H1805 H 0.37358 0.33751 0.93218 0.0
H1806 H 0.36768 0.31615 0.87486 0.0
S1807 S 0.25676 0.33626 0.89505 0.0
N1808 N 0.28022 0.34593 0.92762 0.0
N1809 N 0.27477 0.32491 0.86522 0.0
C1810 C 0.30125 0.32848 0.88074 0.0
C1811 C 0.30404 0.33962 0.91474 0.0
C1812 C 0.99546 0.05709 0.40428 0.0
C1813 C 0.01388 0.07057 0.38345 0.0
C1814 C 0.00598 0.0524 0.43499 0.0
C1815 C 0.03584 0.05996 0.4474 0.0
H1816 H 0.97252 0.04906 0.39642 0.0
H1817 H 0.99021 0.0421 0.44916 0.0
S1818 S 0.09395 0.09826 0.40467 0.0
N1819 N 0.06443 0.09284 0.37966 0.0
N1820 N 0.08341 0.08405 0.43584 0.0
C1821 C 0.05447 0.07385 0.42711 0.0
C1822 C 0.04381 0.07889 0.39594 0.0
C1823 C 0.27352 0.71942 0.63 0.0
C1824 C 0.29161 0.6978 0.62843 0.0
C1825 C 0.27906 0.74709 0.65515 0.0
C1826 C 0.30341 0.75391 0.6779 0.0
H1827 H 0.25469 0.71432 0.61245 0.0
H1828 H 0.26387 0.76239 0.65754 0.0
S1829 S 0.35671 0.70411 0.68297 0.0
N1830 N 0.33372 0.68403 0.65101 0.0
N1831 N 0.34549 0.73712 0.69678 0.0
C1832 C 0.32203 0.73289 0.6753 0.0
C1833 C 0.31575 0.70437 0.65082 0.0
C1834 C 0.63635 0.04904 0.80365 0.0
C1835 C 0.66569 0.05187 0.8001 0.0
C1836 C 0.62751 0.05555 0.83384 0.0
C1837 C 0.64778 0.06517 0.86128 0.0
H1838 H 0.62034 0.04441 0.783 0.0
H1839 H 0.60534 0.057 0.83551 0.0
S1840 S 0.72468 0.06285 0.86527 0.0
N1841 N 0.71362 0.056 0.82657 0.0
N1842 N 0.69624 0.067 0.88388 0.0
C1843 C 0.67613 0.06247 0.85837 0.0
C1844 C 0.68536 0.05615 0.82747 0.0
C1845 C 0.31264 0.31874 0.12985 0.0
C1846 C 0.3304 0.34947 0.13018 0.0
C1847 C 0.30678 0.30916 0.15859 0.0
C1848 C 0.31821 0.32998 0.18878 0.0
H1849 H 0.30322 0.30193 0.10729 0.0
H1850 H 0.29359 0.28515 0.15685 0.0
S1851 S 0.36534 0.41381 0.20244 0.0
N1852 N 0.35918 0.40076 0.16321 0.0
N1853 N 0.3473 0.38384 0.21655 0.0
C1854 C 0.33529 0.36125 0.18912 0.0
C1855 C 0.34166 0.37063 0.16008 0.0
C1856 C 0.25532 0.99409 0.01574 0.0
C1857 C 0.28489 1.00762 0.01674 0.0
C1858 C 0.2381 1.01217 0.03215 0.0
C1859 C 0.25013 0.04408 0.04999 0.0
H1860 H 0.24581 0.96888 1.00392 0.0
H1861 H 0.21572 1.00042 0.03259 0.0
S1862 S 0.32507 0.09235 0.05541 0.0
N1863 N 0.32461 0.05627 0.03315 0.0
N1864 N 0.29185 0.09 0.06428 0.0
C1865 C 0.27895 0.05879 0.04882 0.0
C1866 C 0.29647 0.0406 0.03193 0.0
C1867 C 0.70727 0.61068 0.9877 0.0
C1868 C 0.71441 0.64468 1.00013 0.0
C1869 C 0.68025 0.5909 0.99059 0.0
C1870 C 0.65918 0.60422 1.00613 0.0
H1871 H 0.72274 0.59916 0.97578 0.0
H1872 H 0.67606 0.56499 0.98079 0.0
S1873 S 0.66895 0.69157 0.04653 0.0
N1874 N 0.69911 0.69027 0.03079 0.0
N1875 N 0.64894 0.65402 0.036 0.0
C1876 C 0.66653 0.63826 0.01906 0.0
C1877 C 0.69389 0.65819 0.01614 0.0
C1878 C 0.74514 0.40621 0.29228 0.0
C1879 C 0.74921 0.42465 0.26839 0.0
C1880 C 0.76059 0.38177 0.29628 0.0
C1881 C 0.78119 0.37193 0.2762 0.0
H1882 H 0.72995 0.41115 0.30897 0.0
H1883 H 0.7559 0.37008 0.3159 0.0
S1884 S 0.79818 0.4086 0.20627 0.0
N1885 N 0.77575 0.42927 0.22281 0.0
N1886 N 0.8016 0.38207 0.22813 0.0
C1887 C 0.78449 0.38902 0.25098 0.0
C1888 C 0.76961 0.41523 0.24775 0.0
C1889 C 0.95939 0.47554 0.47988 0.0
C1890 C 0.94694 0.49909 0.49726 0.0
C1891 C 0.98816 0.47548 0.48853 0.0
C1892 C 0.00491 0.49953 0.51398 0.0
H1893 H 0.94694 0.45739 0.45947 0.0
H1894 H 0.9976 0.45752 0.47461 0.0
S1895 S 0.97673 0.55383 0.5758 0.0
N1896 N 0.94979 0.53896 0.5466 0.0
N1897 N 1.00351 0.53799 0.56356 0.0
C1898 C 0.99104 0.51943 0.53435 0.0
C1899 C 0.96206 0.51965 0.52553 0.0
C1900 C 0.35669 0.12456 0.31461 0.0
C1901 C 0.37701 0.10687 0.30588 0.0
C1902 C 0.34023 0.13279 0.29088 0.0
C1903 C 0.34363 0.12305 0.25832 0.0
H1904 H 0.35271 0.13073 0.33936 0.0
H1905 H 0.32379 0.14541 0.29765 0.0
S1906 S 0.39523 0.07752 0.2243 0.0
N1907 N 0.40059 0.08085 0.26334 0.0
N1908 N 0.36988 0.09684 0.21891 0.0
C1909 C 0.3648 0.10662 0.24972 0.0
C1910 C 0.38147 0.09839 0.27362 0.0
C1911 C 0.37281 0.14997 0.55574 0.0
C1912 C 0.37541 0.15776 0.52599 0.0
C1913 C 0.39266 0.13592 0.56928 0.0
C1914 C 0.41713 0.1305 0.5546 0.0
H1915 H 0.35411 0.15282 0.56779 0.0
H1916 H 0.38766 0.12809 0.59095 0.0
S1917 S 0.43451 0.14993 0.47642 0.0
N1918 N 0.40339 0.1596 0.48141 0.0
N1919 N 0.44349 0.13728 0.50862 0.0
C1920 C 0.42067 0.13999 0.52508 0.0
C1921 C 0.39923 0.15274 0.51043 0.0
C1922 C 0.77396 0.6415 0.28626 0.0
C1923 C 0.74346 0.63171 0.27879 0.0
C1924 C 0.79016 0.67397 0.28723 0.0
C1925 C 0.77691 0.69882 0.28104 0.0
H1926 H 0.78554 0.62398 0.29153 0.0
H1927 H 0.81336 0.67958 0.29301 0.0
S1928 S 0.69771 0.68599 0.25832 0.0
N1929 N 0.70125 0.65025 0.26326 0.0
N1930 N 0.73057 0.70973 0.26633 0.0
C1931 C 0.74643 0.68905 0.27337 0.0
C1932 C 0.73017 0.65621 0.27193 0.0
C1933 C 0.87978 0.43965 0.82215 0.0
C1934 C 0.88822 0.44879 0.79452 0.0
C1935 C 0.86422 0.4084 0.82017 0.0
C1936 C 0.85557 0.38593 0.7908 0.0
H1937 H 0.88774 0.45543 0.84566 0.0
H1938 H 0.86216 0.40217 0.84225 0.0
S1939 S 0.86173 0.40443 0.71104 0.0
N1940 N 0.88087 0.43757 0.73647 0.0
N1941 N 0.84828 0.37901 0.73301 0.0
C1942 C 0.85917 0.39726 0.76274 0.0
C1943 C 0.87649 0.42873 0.76456 0.0
C1944 C 0.09043 0.93061 0.08734 0.0
C1945 C 0.11021 0.91564 0.0709 0.0
C1946 C 0.08225 0.95791 0.07974 0.0
C1947 C 0.09207 0.97149 0.05418 0.0
H1948 H 0.08158 0.92169 0.10718 0.0
H1949 H 0.06878 0.96931 0.09518 0.0
S1950 S 0.14741 0.94523 1.00574 0.0
N1951 N 0.14173 0.91919 0.02922 0.0
N1952 N 0.12554 0.96962 0.01445 0.0
C1953 C 0.11212 0.95715 0.03746 0.0
C1954 C 0.12113 0.92949 0.04572 0.0
C1955 C 0.91868 0.2809 0.88832 0.0
C1956 C 0.94274 0.27291 0.87427 0.0
C1957 C 0.89353 0.2829 0.86927 0.0
C1958 C 0.89117 0.27738 0.83521 0.0
H1959 H 0.91981 0.2873 0.91418 0.0
H1960 H 0.87624 0.29007 0.88156 0.0
S1961 S 0.94836 0.25483 0.78723 0.0
N1962 N 0.96186 0.25828 0.82439 0.0
N1963 N 0.91627 0.26246 0.7896 0.0
C1964 C 0.915 0.26844 0.82148 0.0
C1965 C 0.94011 0.26611 0.84061 0.0
C1966 C 0.62638 0.19314 0.56296 0.0
C1967 C 0.60539 0.21144 0.56562 0.0
C1968 C 0.61879 0.15889 0.55677 0.0
C1969 C 0.59001 0.14088 0.55121 0.0
H1970 H 0.64898 0.20548 0.5695 0.0
H1971 H 0.63561 0.14698 0.56024 0.0
S1972 S 0.52626 0.17668 0.55445 0.0
N1973 N 0.55406 0.20867 0.56221 0.0
N1974 N 0.54003 0.1445 0.54771 0.0
C1975 C 0.56867 0.15886 0.5515 0.0
C1976 C 0.5763 0.19391 0.5591 0.0
C1977 C 0.63536 0.78586 0.40909 0.0
C1978 C 0.60645 0.7768 0.39454 0.0
C1979 C 0.65841 0.79567 0.39179 0.0
C1980 C 0.65329 0.79691 0.35943 0.0
H1981 H 0.64015 0.78641 0.43426 0.0
H1982 H 0.68014 0.80412 0.40427 0.0
S1983 S 0.58215 0.77468 0.30975 0.0
N1984 N 0.57459 0.76827 0.34505 0.0
N1985 N 0.61759 0.78735 0.31336 0.0
C1986 C 0.62474 0.78664 0.34438 0.0
C1987 C 0.60142 0.7764 0.36168 0.0
C1988 C 0.13273 0.28271 0.48589 0.0
C1989 C 0.13288 0.27033 0.45298 0.0
C1990 C 0.11622 0.26422 0.50393 0.0
C1991 C 0.09986 0.23278 0.4897 0.0
H1992 H 0.14377 0.30759 0.49736 0.0
H1993 H 0.11536 0.27498 0.52885 0.0
S1994 S 0.09647 0.1874 0.40585 0.0
N1995 N 0.11788 0.22349 0.40775 0.0
N1996 N 0.08705 0.18837 0.44219 0.0
C1997 C 0.10169 0.219 0.45761 0.0
C1998 C 0.11825 0.23795 0.43908 0.0
C1999 C 0.60725 0.23778 0.18877 0.0
C2000 C 0.58939 0.25711 0.20288 0.0
C2001 C 0.6299 0.2319 0.20748 0.0
C2002 C 0.63498 0.24488 0.24073 0.0
H2003 H 0.60316 0.22628 0.16343 0.0
H2004 H 0.64301 0.21648 0.19611 0.0
S2005 S 0.59733 0.30075 0.28822 0.0
N2006 N 0.58062 0.29217 0.25141 0.0
N2007 N 0.62277 0.28042 0.28639 0.0
C2008 C 0.61832 0.26548 0.25473 0.0
C2009 C 0.59562 0.27181 0.2358 0.0
C2010 C 0.62276 0.95356 0.924 0.0
C2011 C 0.64585 0.94461 0.93872 0.0
C2012 C 0.60592 0.97064 0.94221 0.0
C2013 C 0.61211 0.98039 0.97583 0.0
H2014 H 0.61676 0.94597 0.89826 0.0
H2015 H 0.58813 0.97654 0.92951 0.0
S2016 S 0.67318 0.96552 0.02472 0.0
N2017 N 0.67485 0.94641 0.9878 0.0
N2018 N 0.64549 0.98219 0.02228 0.0
C2019 C 0.63586 0.97209 0.99061 0.0
C2020 C 0.65228 0.95346 0.97196 0.0
C2021 C 0.93147 0.7627 0.76028 0.0
C2022 C 0.93373 0.7604 0.72739 0.0
C2023 C 0.90592 0.76593 0.77271 0.0
C2024 C 0.88205 0.76683 0.75256 0.0
H2025 H 0.94952 0.76188 0.77657 0.0
H2026 H 0.90473 0.76747 0.79805 0.0
S2027 S 0.8758 0.7601 0.66484 0.0
N2028 N 0.90938 0.75879 0.67495 0.0
N2029 N 0.86094 0.76342 0.69841 0.0
C2030 C 0.88362 0.76392 0.71968 0.0
C2031 C 0.9097 0.76128 0.70706 0.0
C2032 C 0.11048 0.02887 0.8778 0.0
C2033 C 0.13882 0.02526 0.87266 0.0
C2034 C 0.09924 0.02992 0.908 0.0
C2035 C 0.1154 0.02831 0.93649 0.0
H2036 H 0.09644 0.03126 0.85795 0.0
H2037 H 0.07753 0.03314 0.90911 0.0
S2038 S 0.19083 0.01818 0.93823 0.0
N2039 N 0.18255 0.01913 0.90043 0.0
N2040 N 0.16218 0.0222 0.95646 0.0
C2041 C 0.14382 0.02457 0.93198 0.0
C2042 C 0.15515 0.0227 0.90071 0.0
C2043 C 0.865 0.41978 0.608 0.0
C2044 C 0.85843 0.409 0.57473 0.0
C2045 C 0.8764 0.40091 0.62579 0.0
C2046 C 0.8817 0.37107 0.61067 0.0
H2047 H 0.86132 0.44278 0.62024 0.0
H2048 H 0.88119 0.40967 0.65146 0.0
S2049 S 0.8713 0.33418 0.52386 0.0
N2050 N 0.8603 0.36813 0.52691 0.0
N2051 N 0.88136 0.3325 0.56093 0.0
C2052 C 0.87612 0.36057 0.57743 0.0
C2053 C 0.86443 0.37959 0.55927 0.0
C2054 C 0.4891 0.03849 0.41353 0.0
C2055 C 0.50234 0.05218 0.39019 0.0
C2056 C 0.50548 0.03868 0.44117 0.0
C2057 C 0.53541 0.05236 0.44579 0.0
H2058 H 0.46628 0.0266 0.40993 0.0
H2059 H 0.49441 0.02798 0.45886 0.0
S2060 S 0.57743 0.0986 0.3944 0.0
N2061 N 0.54493 0.0838 0.37414 0.0
N2062 N 0.57603 0.08589 0.4281 0.0
C2063 C 0.54829 0.06836 0.42357 0.0
C2064 C 0.53156 0.06777 0.39505 0.0
C2065 C 0.84036 0.74039 0.13775 0.0
C2066 C 0.81904 0.74521 0.11652 0.0
C2067 C 0.84141 0.75154 0.17085 0.0
C2068 C 0.82119 0.76805 0.18447 0.0
H2069 H 0.85519 0.72601 0.12883 0.0
H2070 H 0.85724 0.74495 0.18569 0.0
S2071 S 0.76561 0.79338 0.13744 0.0
N2072 N 0.77992 0.77122 0.11005 0.0
N2073 N 0.78348 0.79481 0.17234 0.0
C2074 C 0.8022 0.77659 0.16292 0.0
C2075 C 0.80068 0.76443 0.12895 0.0
C2076 C 0.14965 1.00412 0.63831 0.0
C2077 C 0.14479 0.01939 0.66933 0.0
C2078 C 0.13716 1.00975 0.60905 0.0
C2079 C 0.11856 0.03128 0.60764 0.0
H2080 H 0.16357 0.9874 0.63641 0.0
H2081 H 0.14262 0.9969 0.58683 0.0
S2082 S 0.09887 0.07903 0.68198 0.0
N2083 N 0.12007 0.05846 0.6962 0.0
N2084 N 0.0961 0.06776 0.64248 0.0
C2085 C 0.113 0.04633 0.63864 0.0
C2086 C 0.12607 0.0408 0.66867 0.0
C2087 C 0.87898 0.39671 0.39296 0.0
C2088 C 0.86075 0.39243 0.41643 0.0
C2089 C 0.88124 0.37006 0.36998 0.0
C2090 C 0.86309 0.33907 0.36824 0.0
H2091 H 0.89049 0.4208 0.39141 0.0
H2092 H 0.89399 0.37496 0.35099 0.0
S2093 S 0.82538 0.31376 0.4341 0.0
N2094 N 0.83474 0.35389 0.44475 0.0
N2095 N 0.83723 0.30373 0.39916 0.0
C2096 C 0.85001 0.3337 0.39524 0.0
C2097 C 0.84878 0.3607 0.41972 0.0
C2098 C 0.45187 0.0209 0.20421 0.0
C2099 C 0.46473 0.03942 0.23463 0.0
C2100 C 0.46858 1.00772 0.18228 0.0
C2101 C 0.49818 1.01177 0.19075 0.0
H2102 H 0.42874 0.01568 0.19777 0.0
H2103 H 0.45818 0.9937 0.15902 0.0
S2104 S 0.54272 0.05985 0.26621 0.0
N2105 N 0.50967 0.06364 0.27097 0.0
N2106 N 0.54031 0.03684 0.2299 0.0
C2107 C 0.51161 0.03144 0.22027 0.0
C2108 C 0.49501 0.04589 0.24222 0.0
C2109 C 0.83698 0.7707 0.91701 0.0
C2110 C 0.81553 0.74373 0.9196 0.0
C2111 C 0.84028 0.77876 0.88714 0.0
C2112 C 0.822 0.76045 0.85904 0.0
H2113 H 0.8517 0.78507 0.93792 0.0
H2114 H 0.8575 0.79913 0.88619 0.0
S2115 S 0.76184 0.68776 0.85458 0.0
N2116 N 0.77551 0.69927 0.89263 0.0
N2117 N 0.7816 0.71348 0.83679 0.0
C2118 C 0.80055 0.73323 0.86186 0.0
C2119 C 0.79729 0.72525 0.89206 0.0
C2120 C 0.88136 0.07025 0.05353 0.0
C2121 C 0.87113 0.09509 0.04369 0.0
C2122 C 0.89741 0.05304 0.03416 0.0
C2123 C 0.90342 0.06037 1.00469 0.0
H2124 H 0.87496 0.06224 0.0748 0.0
H2125 H 0.90374 0.03274 0.04133 0.0
S2126 S 0.88947 0.12941 0.97307 0.0
N2127 N 0.87428 0.13132 0.00644 0.0
N2128 N 0.90396 0.09783 0.96974 0.0
C2129 C 0.89667 0.08765 0.9966 0.0
C2130 C 0.88081 0.10561 0.01647 0.0
C2131 C 0.44765 0.49611 0.06157 0.0
C2132 C 0.4372 0.46258 0.04843 0.0
C2133 C 0.47678 0.51183 0.06242 0.0
C2134 C 0.49688 0.49511 0.04924 0.0
H2135 H 0.43292 0.51063 0.07047 0.0
H2136 H 0.48308 0.53763 0.07238 0.0
S2137 S 0.48063 0.40604 0.01392 0.0
N2138 N 0.44943 0.41241 0.02408 0.0
N2139 N 0.50394 0.44185 0.02454 0.0
C2140 C 0.48685 0.46107 0.03733 0.0
C2141 C 0.45715 0.4449 0.03718 0.0
C2142 C 0.37082 0.66749 0.77526 0.0
C2143 C 0.40141 0.67069 0.77605 0.0
C2144 C 0.35666 0.69409 0.77445 0.0
C2145 C 0.37144 0.72626 0.7732 0.0
H2146 H 0.35733 0.64392 0.77543 0.0
H2147 H 0.3339 0.68894 0.77467 0.0
S2148 S 0.45227 0.75002 0.77804 0.0
N2149 N 0.44575 0.71103 0.77821 0.0
N2150 N 0.42048 0.75875 0.77593 0.0
C2151 C 0.40219 0.72963 0.77514 0.0
C2152 C 0.41653 0.70299 0.7766 0.0
C2153 C 0.18237 0.58121 0.52111 0.0
C2154 C 0.20118 0.60817 0.54134 0.0
C2155 C 0.15295 0.57821 0.51983 0.0
C2156 C 0.14119 0.60085 0.53955 0.0
H2157 H 0.19034 0.56373 0.50444 0.0
H2158 H 0.13934 0.55911 0.50174 0.0
S2159 S 0.18209 0.67608 0.59666 0.0
N2160 N 0.20696 0.6581 0.58223 0.0
N2161 N 0.15073 0.6523 0.57865 0.0
C2162 C 0.1598 0.62798 0.56004 0.0
C2163 C 0.19007 0.63128 0.56156 0.0
C2164 C 0.76957 1.00266 0.77634 0.0
C2165 C 0.76514 0.98562 0.74439 0.0
C2166 C 0.78265 0.99102 0.79962 0.0
C2167 C 0.79329 0.96302 0.79133 0.0
H2168 H 0.76292 0.02525 0.78334 0.0
H2169 H 0.7854 1.00494 0.82412 0.0
S2170 S 0.77678 0.90502 0.71096 0.0
N2171 N 0.76395 0.93618 0.70589 0.0
N2172 N 0.79168 0.91451 0.74871 0.0
C2173 C 0.78592 0.94395 0.75932 0.0
C2174 C 0.77125 0.95548 0.73593 0.0
C2175 C 0.76926 0.95899 0.54441 0.0
C2176 C 0.76813 0.92654 0.52915 0.0
C2177 C 0.74973 0.97555 0.53379 0.0
C2178 C 0.72865 0.96022 0.50747 0.0
H2179 H 0.78602 0.97212 0.56392 0.0
H2180 H 0.75198 1.0009 0.54521 0.0
S2181 S 0.71409 0.87491 0.46141 0.0
N2182 N 0.74207 0.87896 0.4881 0.0
N2183 N 0.7058 0.91056 0.4681 0.0
C2184 C 0.7261 0.92743 0.49319 0.0
C2185 C 0.74572 0.9104 0.5041 0.0
C2186 C 0.37442 0.45694 0.77519 0.0
C2187 C 0.40163 0.46176 0.76334 0.0
C2188 C 0.3572 0.42515 0.77526 0.0
C2189 C 0.36612 0.39608 0.76368 0.0
H2190 H 0.3665 0.47797 0.78516 0.0
H2191 H 0.33702 0.42349 0.78536 0.0
S2192 S 0.43451 0.39396 0.72817 0.0
N2193 N 0.43544 0.43309 0.73825 0.0
N2194 N 0.40407 0.37518 0.73871 0.0
C2195 C 0.39298 0.40066 0.75134 0.0
C2196 C 0.41029 0.43269 0.75106 0.0
C2197 C 0.24014 0.6786 0.23624 0.0
C2198 C 0.25383 0.65344 0.22552 0.0
C2199 C 0.25574 0.70825 0.25513 0.0
C2200 C 0.2855 0.71387 0.26327 0.0
H2201 H 0.21701 0.67508 0.23129 0.0
H2202 H 0.24455 0.72712 0.26309 0.0
S2203 S 0.33176 0.6568 0.24237 0.0
N2204 N 0.29917 0.63649 0.2247 0.0
N2205 N 0.32837 0.69291 0.26106 0.0
C2206 C 0.29967 0.68942 0.2532 0.0
C2207 C 0.28386 0.65908 0.23372 0.0
C2208 C 0.54701 0.65455 0.46031 0.0
C2209 C 0.54103 0.67923 0.48404 0.0
C2210 C 0.55419 0.62659 0.46732 0.0
C2211 C 0.55582 0.62093 0.49856 0.0
H2212 H 0.54617 0.65674 0.43562 0.0
H2213 H 0.55808 0.60869 0.44753 0.0
S2214 S 0.54286 0.67768 0.5705 0.0
N2215 N 0.53819 0.6962 0.54114 0.0
N2216 N 0.55113 0.64333 0.55406 0.0
C2217 C 0.5506 0.6456 0.52301 0.0
C2218 C 0.54339 0.67462 0.51584 0.0
C2219 C 0.70341 0.30962 0.69386 0.0
C2220 C 0.70857 0.33381 0.6758 0.0
C2221 C 0.72537 0.30525 0.71545 0.0
C2222 C 0.7538 0.32474 0.72011 0.0
H2223 H 0.68225 0.29344 0.69106 0.0
H2224 H 0.72012 0.28598 0.72808 0.0
S2225 S 0.77836 0.39437 0.68272 0.0
N2226 N 0.74429 0.37944 0.66688 0.0
N2227 N 0.7851 0.37103 0.70685 0.0
C2228 C 0.75911 0.34947 0.70295 0.0
C2229 C 0.73676 0.35403 0.68103 0.0
C2230 C 0.02835 0.40453 0.97726 0.0
C2231 C 0.04667 0.38769 0.99015 0.0
C2232 C 0.03444 0.43872 0.98442 0.0
C2233 C 0.05829 0.45808 1.00605 0.0
H2234 H 0.01061 0.39121 0.95889 0.0
H2235 H 0.02154 0.44994 0.97085 0.0
S2236 S 0.11315 0.42676 0.04722 0.0
N2237 N 0.09015 0.39346 0.02589 0.0
N2238 N 0.10034 0.45769 0.04089 0.0
C2239 C 0.07588 0.44166 0.02081 0.0
C2240 C 0.07029 0.40659 0.01267 0.0
C2241 C 0.03099 0.8315 0.17796 0.0
C2242 C 0.03761 0.8077 0.15396 0.0
C2243 C 0.00614 0.82443 0.19325 0.0
C2244 C 0.98737 0.79324 0.18518 0.0
H2245 H 0.04663 0.85446 0.18736 0.0
H2246 H 1.00333 0.84228 0.21374 0.0
S2247 S 0.99254 0.72438 0.12025 0.0
N2248 N 0.02135 0.75341 0.11982 0.0
N2249 N 0.97486 0.74001 0.14868 0.0
C2250 C 0.9921 0.77054 0.15885 0.0
C2251 C 0.01721 0.77782 0.14316 0.0
C2252 C 0.51278 0.32185 0.06963 0.0
C2253 C 0.52395 0.32486 0.10155 0.0
C2254 C 0.52788 0.34061 0.05057 0.0
C2255 C 0.55464 0.36217 0.06296 0.0
H2256 H 0.49297 0.30396 0.05903 0.0
H2257 H 0.51939 0.33707 0.02568 0.0
S2258 S 0.5927 0.37969 0.14498 0.0
N2259 N 0.56281 0.35201 0.14495 0.0
N2260 N 0.59112 0.38702 0.10876 0.0
C2261 C 0.56532 0.36661 0.09512 0.0
C2262 C 0.54993 0.34792 0.1146 0.0
C2263 C 0.04791 0.31743 0.31746 0.0
C2264 C 0.06144 0.33959 0.34584 0.0
C2265 C 0.02198 0.32025 0.30275 0.0
C2266 C 0.00951 0.34565 0.31593 0.0
H2267 H 0.05881 0.30005 0.30498 0.0
H2268 H 0.01331 0.30476 0.2793 0.0
S2269 S 0.03399 0.40497 0.39364 0.0
N2270 N 0.05858 0.38356 0.38971 0.0
N2271 N 0.00971 0.38958 0.36157 0.0
C2272 C 0.02097 0.36526 0.34637 0.0
C2273 C 0.04719 0.36203 0.36153 0.0
C2274 C 0.99842 0.65002 0.58645 0.0
C2275 C 1.00176 0.65349 0.61994 0.0
C2276 C 0.01312 0.63072 0.56678 0.0
C2277 C 0.03215 0.61491 0.57998 0.0
H2278 H 0.98569 0.66365 0.57548 0.0
H2279 H 0.00997 0.62888 0.54124 0.0
S2280 S 0.04595 0.61395 0.66628 0.0
N2281 N 0.02212 0.6359 0.66484 0.0
N2282 N 0.05219 0.60322 0.62898 0.0
C2283 C 0.03466 0.61737 0.61339 0.0
C2284 C 0.01855 0.63538 0.63298 0.0
C2285 C 0.7479 0.83619 0.85374 0.0
C2286 C 0.72064 0.83772 0.84111 0.0
C2287 C 0.76873 0.83163 0.83371 0.0
C2288 C 0.76272 0.82781 0.80043 0.0
H2289 H 0.75295 0.83739 0.87903 0.0
H2290 H 0.78915 0.82928 0.84424 0.0
S2291 S 0.69673 0.83604 0.75633 0.0
N2292 N 0.68998 0.83986 0.79389 0.0
N2293 N 0.72968 0.83028 0.75611 0.0
C2294 C 0.73643 0.83151 0.78767 0.0
C2295 C 0.71513 0.83656 0.8081 0.0
C2296 C 0.52763 0.59091 0.67573 0.0
C2297 C 0.50024 0.57087 0.67825 0.0
C2298 C 0.54132 0.58814 0.64659 0.0
C2299 C 0.52905 0.56487 0.61736 0.0
H2300 H 0.5387 0.60942 0.69657 0.0
H2301 H 0.56193 0.60475 0.64718 0.0
S2302 S 0.4591 0.50367 0.6108 0.0
N2303 N 0.46269 0.52517 0.64799 0.0
N2304 N 0.48757 0.5199 0.595 0.0
C2305 C 0.50196 0.54432 0.61992 0.0
C2306 C 0.488 0.54729 0.64944 0.0
C2307 C 0.80561 0.21549 0.96057 0.0
C2308 C 0.78993 0.1834 0.95857 0.0
C2309 C 0.79546 0.23481 0.94223 0.0
C2310 C 0.76946 0.22224 0.9218 0.0
H2311 H 0.82452 0.22641 0.97809 0.0
H2312 H 0.8067 0.26015 0.94579 0.0
S2313 S 0.72234 0.14003 0.9057 0.0
N2314 N 0.74865 0.13954 0.93243 0.0
N2315 N 0.73005 0.17628 0.89775 0.0
C2316 C 0.75524 0.1897 0.91736 0.0
C2317 C 0.76543 0.17 0.93582 0.0
C2318 C 0.16729 0.5321 0.12414 0.0
C2319 C 0.15772 0.5213 0.1508 0.0
C2320 C 0.14931 0.54283 0.1048 0.0
C2321 C 0.12066 0.54191 0.11038 0.0
H2322 H 0.1892 0.53355 0.11863 0.0
H2323 H 0.15831 0.55126 0.08507 0.0
S2324 S 0.08697 0.52144 0.18051 0.0
N2325 N 0.11927 0.5142 0.18478 0.0
N2326 N 0.08489 0.53405 0.1469 0.0
C2327 C 0.11113 0.53268 0.13776 0.0
C2328 C 0.12973 0.52215 0.15816 0.0
C2329 C 0.84497 0.82631 0.41458 0.0
C2330 C 0.83071 0.84888 0.4307 0.0
C2331 C 0.84035 0.81608 0.38063 0.0
C2332 C 0.82355 0.83028 0.36194 0.0
H2333 H 0.86044 0.81758 0.42796 0.0
H2334 H 0.85078 0.798 0.36917 0.0
S2335 S 0.77442 0.8818 0.39457 0.0
N2336 N 0.7922 0.87631 0.4264 0.0
N2337 N 0.78755 0.86269 0.36402 0.0
C2338 C 0.80703 0.85013 0.37866 0.0
C2339 C 0.8098 0.85808 0.41264 0.0
C2340 C 0.53169 0.54641 0.88549 0.0
C2341 C 0.51387 0.5681 0.88081 0.0
C2342 C 0.54371 0.54397 0.91645 0.0
C2343 C 0.53824 0.56215 0.94586 0.0
H2344 H 0.53655 0.53062 0.86466 0.0
H2345 H 0.55729 0.52733 0.91698 0.0
S2346 S 0.49825 0.62763 0.94899 0.0
N2347 N 0.49553 0.61185 0.91014 0.0
N2348 N 0.51649 0.60662 0.96693 0.0
C2349 C 0.52164 0.58509 0.94153 0.0
C2350 C 0.5099 0.5881 0.90991 0.0
C2351 C 0.80907 0.23409 0.13138 0.0
C2352 C 0.79408 0.20266 0.13257 0.0
C2353 C 0.80645 0.26093 0.15403 0.0
C2354 C 0.78962 0.25659 0.17878 0.0
H2355 H 0.82412 0.23789 0.11413 0.0
H2356 H 0.82004 0.28445 0.15413 0.0
S2357 S 0.73706 0.1813 0.18358 0.0
N2358 N 0.75541 0.16987 0.15417 0.0
N2359 N 0.74957 0.22094 0.19564 0.0
C2360 C 0.76993 0.22644 0.17573 0.0
C2361 C 0.773 0.19897 0.15335 0.0
C2362 C 0.19703 0.61241 0.33886 0.0
C2363 C 0.19504 0.5809 0.32082 0.0
C2364 C 0.17638 0.61817 0.35907 0.0
C2365 C 0.15385 0.5924 0.36174 0.0
H2366 H 0.21186 0.63307 0.33378 0.0
H2367 H 0.17664 0.643 0.37055 0.0
S2368 S 0.14449 0.50469 0.32591 0.0
N2369 N 0.17334 0.52313 0.31214 0.0
N2370 N 0.13396 0.53381 0.34991 0.0
C2371 C 0.15454 0.5603 0.34787 0.0
C2372 C 0.17581 0.55452 0.32774 0.0
C2373 C 0.81605 0.81626 0.62751 0.0
C2374 C 0.82908 0.84885 0.62789 0.0
C2375 C 0.81013 0.80644 0.65604 0.0
C2376 C 0.81678 0.82883 0.686 0.0
H2377 H 0.81086 0.79807 0.60512 0.0
H2378 H 0.80149 0.78095 0.65446 0.0
S2379 S 0.85074 0.91737 0.69989 0.0
N2380 N 0.84776 0.90369 0.66079 0.0
N2381 N 0.83709 0.88536 0.71387 0.0
C2382 C 0.82931 0.86162 0.68644 0.0
C2383 C 0.8353 0.87157 0.65759 0.0
C2384 C 0.79746 0.54357 0.53319 0.0
C2385 C 0.78692 0.51311 0.51184 0.0
C2386 C 0.77919 0.55832 0.55143 0.0
C2387 C 0.74978 0.54325 0.54877 0.0
H2388 H 0.82028 0.55532 0.53736 0.0
H2389 H 0.78832 0.58124 0.56849 0.0
S2390 S 0.71081 0.46572 0.49254 0.0
N2391 N 0.74484 0.47013 0.48598 0.0
N2392 N 0.7102 0.49775 0.52081 0.0
C2393 C 0.7385 0.5139 0.52575 0.0
C2394 C 0.75719 0.49885 0.5071 0.0
C2395 C 0.19823 0.14948 0.52676 0.0
C2396 C 0.20933 0.14636 0.4973 0.0
C2397 C 0.17265 0.12842 0.53057 0.0
C2398 C 0.1569 0.10288 0.50523 0.0
H2399 H 0.20964 0.16815 0.54737 0.0
H2400 H 0.16528 0.13257 0.55382 0.0
S2401 S 0.17572 0.08561 0.42227 0.0
N2402 N 0.20219 0.11661 0.44165 0.0
N2403 N 0.15385 0.0768 0.44889 0.0
C2404 C 0.1677 0.09944 0.47544 0.0
C2405 C 0.19395 0.12116 0.47149 0.0
C2406 C 0.23613 0.89792 0.78012 0.0
C2407 C 0.24725 0.92463 0.76657 0.0
C2408 C 0.25098 0.87288 0.78316 0.0
C2409 C 0.27839 0.87072 0.7723 0.0
H2410 H 0.21546 0.89632 0.78912 0.0
H2411 H 0.23994 0.85422 0.79432 0.0
S2412 S 0.31527 0.93132 0.72869 0.0
N2413 N 0.28741 0.94568 0.73955 0.0
N2414 N 0.31291 0.89763 0.74183 0.0
C2415 C 0.28892 0.89637 0.75663 0.0
C2416 C 0.27423 0.92305 0.75477 0.0
C2417 C 0.45623 0.03311 1.00123 0.0
C2418 C 0.43982 1.00141 0.9979 0.0
C2419 C 0.48541 0.04117 0.01227 0.0
C2420 C 0.49962 0.01743 0.01779 0.0
H2421 H 0.44622 0.05228 0.99706 0.0
H2422 H 0.49619 0.06632 0.017 0.0
S2423 S 0.46571 0.93145 0.0157 0.0
N2424 N 0.43894 0.94639 1.0038 0.0
N2425 N 0.49493 0.96164 0.02238 0.0
C2426 C 0.48347 0.98562 0.01485 0.0
C2427 C 0.45332 0.9775 1.00498 0.0
C2428 C 0.84254 0.58607 0.79834 0.0
C2429 C 0.8687 0.60641 0.81513 0.0
C2430 C 0.82838 0.59476 0.77332 0.0
C2431 C 0.83949 0.62433 0.76518 0.0
H2432 H 0.83462 0.56178 0.80198 0.0
H2433 H 0.80933 0.5777 0.75941 0.0
S2434 S 0.90301 0.6894 0.8071 0.0
N2435 N 0.9019 0.65985 0.82621 0.0
N2436 N 0.87516 0.67629 0.77876 0.0
C2437 C 0.86345 0.64663 0.78435 0.0
C2438 C 0.87786 0.63778 0.80986 0.0
C2439 C 0.89749 0.67409 0.04925 0.0
C2440 C 0.88295 0.6599 0.01829 0.0
C2441 C 0.91821 0.66052 0.06211 0.0
C2442 C 0.92512 0.63297 0.04397 0.0
H2443 H 0.89026 0.69296 0.06496 0.0
H2444 H 0.92713 0.66991 0.08708 0.0
S2445 S 0.89864 0.5931 0.95876 0.0
N2446 N 0.88062 0.62153 0.96778 0.0
N2447 N 0.92035 0.59628 0.99157 0.0
C2448 C 0.91386 0.62181 0.01145 0.0
C2449 C 0.89249 0.63536 0.9986 0.0
C2450 C 0.23823 0.16226 0.79841 0.0
C2451 C 0.24534 0.13329 0.7827 0.0
C2452 C 0.25524 0.19388 0.79925 0.0
C2453 C 0.2808 0.19902 0.78462 0.0
H2454 H 0.21876 0.16058 0.80991 0.0
H2455 H 0.24796 0.21467 0.81134 0.0
S2456 S 0.30809 0.13245 0.73678 0.0
N2457 N 0.27944 0.11276 0.75004 0.0
N2458 N 0.31096 0.17159 0.75142 0.0
C2459 C 0.2882 0.17042 0.76851 0.0
C2460 C 0.27077 0.13797 0.76764 0.0
C2461 C 0.35947 0.93727 0.30411 0.0
C2462 C 0.38916 0.94222 0.31343 0.0
C2463 C 0.34246 0.90589 0.29196 0.0
C2464 C 0.35485 0.87931 0.28994 0.0
H2465 H 0.34996 0.95767 0.30348 0.0
H2466 H 0.31997 0.90242 0.28299 0.0
S2467 S 0.43041 0.87985 0.31609 0.0
N2468 N 0.42935 0.91852 0.32381 0.0
N2469 N 0.3974 0.85919 0.30038 0.0
C2470 C 0.38394 0.8839 0.3014 0.0
C2471 C 0.40111 0.91563 0.31377 0.0
C2472 C 0.60504 0.44348 0.59598 0.0
C2473 C 0.60961 0.41785 0.57231 0.0
C2474 C 0.59718 0.4709 0.58856 0.0
C2475 C 0.5932 0.47505 0.55688 0.0
H2476 H 0.60782 0.44268 0.62101 0.0
H2477 H 0.59454 0.48955 0.60842 0.0
S2478 S 0.60036 0.41455 0.48468 0.0
N2479 N 0.60797 0.39795 0.51468 0.0
N2480 N 0.59336 0.4497 0.50094 0.0
C2481 C 0.59687 0.44934 0.53247 0.0
C2482 C 0.60503 0.42095 0.5401 0.0
C2483 C 0.44345 0.78793 0.33992 0.0
C2484 C 0.44435 0.77446 0.36738 0.0
C2485 C 0.41761 0.78945 0.32319 0.0
C2486 C 0.39053 0.77755 0.33242 0.0
H2487 H 0.46315 0.79816 0.33102 0.0
H2488 H 0.41914 0.80113 0.30322 0.0
S2489 S 0.37888 0.73724 0.40029 0.0
N2490 N 0.4144 0.74718 0.40169 0.0
N2491 N 0.36576 0.75022 0.37008 0.0
C2492 C 0.39053 0.7635 0.35936 0.0
C2493 C 0.41723 0.76178 0.37666 0.0
C2494 C 0.12395 0.68813 0.0924 0.0
C2495 C 0.11414 0.70799 0.07386 0.0
C2496 C 0.11512 0.65415 0.08394 0.0
C2497 C 0.09767 0.63745 0.05524 0.0
H2498 H 0.13718 0.69892 0.11526 0.0
H2499 H 0.12111 0.64073 0.101 0.0
S2500 S 0.06804 0.6764 0.99526 0.0
N2501 N 0.0867 0.7076 0.02369 0.0
N2502 N 0.07193 0.64318 0.00663 0.0
C2503 C 0.08944 0.65647 0.0347 0.0
C2504 C 0.09749 0.69175 0.04406 0.0
C2505 C 0.13361 0.30545 0.91296 0.0
C2506 C 0.10951 0.27924 0.90046 0.0
C2507 C 0.15585 0.31392 0.89431 0.0
C2508 C 0.15518 0.29604 0.86279 0.0
H2509 H 0.13447 0.32079 0.93654 0.0
H2510 H 0.17289 0.33565 0.90395 0.0
S2511 S 0.09928 0.2226 0.82062 0.0
N2512 N 0.08804 0.23353 0.85574 0.0
N2513 N 0.12999 0.24924 0.82115 0.0
C2514 C 0.13243 0.26841 0.85101 0.0
C2515 C 0.10959 0.26004 0.86973 0.0
C2516 C 0.59088 0.76698 0.9472 0.0
C2517 C 0.61954 0.7673 0.9427 0.0
C2518 C 0.57692 0.74883 0.96716 0.0
C2519 C 0.59129 0.73067 0.98347 0.0
H2520 H 0.5796 0.78198 0.93632 0.0
H2521 H 0.55491 0.74979 0.9705 0.0
S2522 S 0.66521 0.71927 0.97355 0.0
N2523 N 0.6609 0.74539 0.95164 0.0
N2524 N 0.6349 0.71065 0.98955 0.0
C2525 C 0.61948 0.72892 0.97692 0.0
C2526 C 0.63366 0.74768 0.95658 0.0
C2527 C 0.08832 0.72444 0.6951 0.0
C2528 C 0.08865 0.75568 0.69032 0.0
C2529 C 0.11082 0.71933 0.71452 0.0
C2530 C 0.13442 0.7452 0.729 0.0
H2531 H 0.06986 0.70429 0.68524 0.0
H2532 H 0.10941 0.69533 0.719 0.0
S2533 S 0.1466 0.83055 0.72064 0.0
N2534 N 0.11494 0.81207 0.69944 0.0
N2535 N 0.15795 0.80237 0.73519 0.0
C2536 C 0.13577 0.77603 0.72264 0.0
C2537 C 0.1126 0.78132 0.70346 0.0
C2538 C 0.13128 0.43577 0.46825 0.0
C2539 C 0.14844 0.44463 0.44475 0.0
C2540 C 0.1154 0.4563 0.48346 0.0
C2541 C 0.11638 0.48642 0.47606 0.0
H2542 H 0.12858 0.41202 0.47369 0.0
H2543 H 0.1015 0.44802 0.5003 0.0
S2544 S 0.16195 0.52338 0.42089 0.0
N2545 N 0.16851 0.48717 0.41804 0.0
N2546 N 0.1379 0.52585 0.44636 0.0
C2547 C 0.13453 0.49646 0.45399 0.0
C2548 C 0.151 0.47561 0.43865 0.0
C2549 C 0.4348 0.2699 0.25701 0.0
C2550 C 0.43398 0.25786 0.22389 0.0
C2551 C 0.40984 0.27433 0.27013 0.0
C2552 C 0.38375 0.26704 0.25026 0.0
H2553 H 0.45473 0.27522 0.27292 0.0
H2554 H 0.41078 0.28278 0.29582 0.0
S2555 S 0.37057 0.23679 0.16201 0.0
N2556 N 0.40531 0.2399 0.17142 0.0
N2557 N 0.35833 0.24911 0.19615 0.0
C2558 C 0.38283 0.25633 0.217 0.0
C2559 C 0.40813 0.25168 0.20368 0.0
C2560 C 0.6534 0.52114 0.40001 0.0
C2561 C 0.63914 0.5276 0.37251 0.0
C2562 C 0.64197 0.52321 0.43061 0.0
C2563 C 0.615 0.53111 0.43599 0.0
H2564 H 0.67396 0.51486 0.39817 0.0
H2565 H 0.65441 0.51817 0.45021 0.0
S2566 S 0.56863 0.55146 0.37357 0.0
N2567 N 0.59593 0.54335 0.35481 0.0
N2568 N 0.57523 0.54637 0.41014 0.0
C2569 C 0.60065 0.53744 0.40877 0.0
C2570 C 0.61235 0.53593 0.37806 0.0
C2571 C 0.34409 0.89823 0.10727 0.0
C2572 C 0.36363 0.9219 0.09666 0.0
C2573 C 0.35399 0.8778 0.12425 0.0
C2574 C 0.38373 0.88046 0.13099 0.0
H2575 H 0.32108 0.89403 0.1005 0.0
H2576 H 0.33823 0.8584 0.1301 0.0
S2577 S 0.44352 0.93926 0.10945 0.0
N2578 N 0.41393 0.94774 0.09497 0.0
N2579 N 0.43252 0.90989 0.12806 0.0
C2580 C 0.40344 0.90552 0.1225 0.0
C2581 C 0.39339 0.92625 0.1051 0.0
C2582 C 0.00875 0.57434 0.91342 0.0
C2583 C 0.99311 0.54432 0.89455 0.0
C2584 C 0.02917 0.57524 0.93835 0.0
C2585 C 0.03374 0.54619 0.94449 0.0
H2586 H 0.00628 0.59695 0.90782 0.0
H2587 H 0.04112 0.59853 0.95303 0.0
S2588 S 0.99466 0.4619 0.90452 0.0
N2589 N 0.98035 0.48532 0.88555 0.0
N2590 N 0.01988 0.48703 0.93214 0.0
C2591 C 0.0171 0.51613 0.92678 0.0
C2592 C 0.99615 0.5152 0.90186 0.0
C2593 C 0.3251 0.22457 0.63701 0.0
C2594 C 0.31293 0.24098 0.61678 0.0
C2595 C 0.32719 0.23437 0.67026 0.0
C2596 C 0.3178 0.26172 0.68573 0.0
H2597 H 0.33244 0.20307 0.62707 0.0
H2598 H 0.33604 0.2195 0.68381 0.0
S2599 S 0.28947 0.31739 0.64377 0.0
N2600 N 0.29402 0.28832 0.61435 0.0
N2601 N 0.30026 0.3084 0.67754 0.0
C2602 C 0.308 0.28036 0.6659 0.0
C2603 C 0.30506 0.26967 0.63139 0.0
C2604 C 0.61819 0.51167 0.1565 0.0
C2605 C 0.64786 0.52445 0.16988 0.0
C2606 C 0.60578 0.51823 0.12723 0.0
C2607 C 0.62197 0.53823 0.10891 0.0
H2608 H 0.60432 0.49572 0.16838 0.0
H2609 H 0.58343 0.50642 0.11831 0.0
S2610 S 0.69983 0.57984 0.1334 0.0
N2611 N 0.69187 0.56053 0.1621 0.0
N2612 N 0.67005 0.57048 0.108 0.0
C2613 C 0.65141 0.55114 0.12233 0.0
C2614 C 0.66375 0.54508 0.15216 0.0
C2615 C 0.37342 0.89235 0.89692 0.0
C2616 C 0.35648 0.88506 0.92077 0.0
C2617 C 0.37469 0.86799 0.87099 0.0
C2618 C 0.35726 0.83623 0.86719 0.0
H2619 H 0.38442 0.91721 0.8973 0.0
H2620 H 0.38657 0.87535 0.85219 0.0
S2621 S 0.324 0.80287 0.93191 0.0
N2622 N 0.33282 0.84266 0.94607 0.0
N2623 N 0.33391 0.79655 0.89554 0.0
C2624 C 0.34557 0.82763 0.89395 0.0
C2625 C 0.34519 0.8524 0.92118 0.0
C2626 C 0.98142 0.55716 0.71872 0.0
C2627 C 0.95816 0.53496 0.72586 0.0
C2628 C 1.00378 0.54651 0.70464 0.0
C2629 C 1.00347 0.51333 0.69705 0.0
H2630 H 0.98349 0.58312 0.7265 0.0
H2631 H 0.02192 0.5644 0.70049 0.0
S2632 S 0.94471 0.44471 0.70384 0.0
N2633 N 0.93359 0.47767 0.71869 0.0
N2634 N 0.97665 0.45791 0.69283 0.0
C2635 C 0.97933 0.49057 0.70128 0.0
C2636 C 0.95615 0.50133 0.71519 0.0
C2637 C 0.3309 0.27355 0.41876 0.0
C2638 C 0.31882 0.24109 0.41938 0.0
C2639 C 0.33641 0.28241 0.38971 0.0
C2640 C 0.32968 0.25932 0.36012 0.0
H2641 H 0.33587 0.29228 0.44077 0.0
H2642 H 0.34449 0.30781 0.39061 0.0
S2643 S 0.29702 0.17105 0.34924 0.0
N2644 N 0.30013 0.18578 0.38818 0.0
N2645 N 0.31055 0.20221 0.33392 0.0
C2646 C 0.31817 0.22664 0.36078 0.0
C2647 C 0.31267 0.21765 0.39025 0.0
C2648 C 0.3812 0.60332 0.53782 0.0
C2649 C 0.36142 0.5837 0.55278 0.0
C2650 C 0.40033 0.59015 0.51947 0.0
C2651 C 0.40057 0.55745 0.51648 0.0
H2652 H 0.37996 0.62798 0.53761 0.0
H2653 H 0.41365 0.60492 0.50604 0.0
S2654 S 0.35927 0.49894 0.5578 0.0
N2655 N 0.34743 0.53216 0.56847 0.0
N2656 N 0.38428 0.50767 0.53437 0.0
C2657 C 0.38401 0.53905 0.53478 0.0
C2658 C 0.3643 0.5523 0.55323 0.0
C2659 C 0.95746 0.94671 0.53382 0.0
C2660 C 0.93875 0.96107 0.55232 0.0
C2661 C 0.98619 0.96366 0.53398 0.0
C2662 C 0.99747 0.99563 0.5528 0.0
H2663 H 0.94931 0.92319 0.51743 0.0
H2664 H 0.99914 0.95207 0.51788 0.0
S2665 S 0.95813 0.04097 0.61024 0.0
N2666 N 0.93395 1.00716 0.5926 0.0
N2667 N 0.98816 0.03816 0.59453 0.0
C2668 C 0.97946 1.00881 0.57358 0.0
C2669 C 0.95007 0.9918 0.57287 0.0
C2670 C 0.90922 0.1934 0.25698 0.0
C2671 C 0.90132 0.17031 0.27587 0.0
C2672 C 0.89451 0.2187 0.25442 0.0
C2673 C 0.87067 0.22496 0.27118 0.0
H2674 H 0.92714 0.19177 0.24328 0.0
H2675 H 0.90282 0.23435 0.23886 0.0
S2676 S 0.84378 0.17566 0.32953 0.0
N2677 N 0.86812 0.15741 0.314 0.0
N2678 N 0.84351 0.20631 0.31213 0.0
C2679 C 0.86344 0.20302 0.29177 0.0
C2680 C 0.87772 0.17589 0.29325 0.0
C2681 C 0.69012 0.11556 0.06244 0.0
C2682 C 0.70755 0.09798 0.04496 0.0
C2683 C 0.66028 0.10758 0.05389 0.0
C2684 C 0.64714 0.08137 0.02839 0.0
H2685 H 0.69978 0.13692 0.08134 0.0
H2686 H 0.64782 0.12358 0.0655 0.0
S2687 S 0.68448 0.03229 0.97179 0.0
N2688 N 0.71019 0.05507 0.99996 0.0
N2689 N 0.65455 0.04166 0.98267 0.0
C2690 C 0.66459 0.06397 0.01068 0.0
C2691 C 0.69472 0.07155 0.01968 0.0
C2692 C 0.30172 0.49303 0.24553 0.0
C2693 C 0.27191 0.47967 0.23816 0.0
C2694 C 0.31705 0.48522 0.27029 0.0
C2695 C 0.30282 0.46361 0.28741 0.0
H2696 H 0.31259 0.5122 0.2348 0.0
H2697 H 0.33972 0.49715 0.27706 0.0
S2698 S 0.22688 0.41612 0.27149 0.0
N2699 N 0.23005 0.43907 0.24505 0.0
N2700 N 0.25918 0.42459 0.29211 0.0
C2701 C 0.27404 0.44692 0.27746 0.0
C2702 C 0.2585 0.45463 0.2522 0.0
C2703 C 0.25116 0.41613 1.00143 0.0
C2704 C 0.26737 0.42836 0.03188 0.0
C2705 C 0.23303 0.43342 0.98949 0.0
C2706 C 0.23009 0.46314 0.00783 0.0
H2707 H 0.25379 0.39409 0.98591 0.0
H2708 H 0.22189 0.42399 0.96536 0.0
S2709 S 0.26432 0.50287 0.09085 0.0
N2710 N 0.27707 0.47011 0.08138 0.0
N2711 N 0.24232 0.5023 0.05914 0.0
C2712 C 0.24442 0.47435 0.03921 0.0
C2713 C 0.26329 0.45703 0.05118 0.0
C2714 C 0.91428 0.93371 0.2654 0.0
C2715 C 0.90342 0.96169 0.26518 0.0
C2716 C 0.89642 0.90255 0.26471 0.0
C2717 C 0.86598 0.89638 0.26346 0.0
H2718 H 0.93728 0.93572 0.26638 0.0
H2719 H 0.90699 0.88296 0.26528 0.0
S2720 S 0.82543 0.96059 0.26309 0.0
N2721 N 0.85931 0.98049 0.26425 0.0
N2722 N 0.82606 0.92248 0.26252 0.0
C2723 C 0.85464 0.92408 0.26326 0.0
C2724 C 0.87305 0.95623 0.26424 0.0
C2725 C 0.78576 0.15998 0.74526 0.0
C2726 C 0.75664 0.1544 0.73239 0.0
C2727 C 0.80169 0.1913 0.76032 0.0
C2728 C 0.78893 0.21758 0.76238 0.0
H2729 H 0.79602 0.13999 0.74486 0.0
H2730 H 0.82379 0.19494 0.7708 0.0
S2731 S 0.7147 0.2167 0.73061 0.0
N2732 N 0.71683 0.17852 0.7205 0.0
N2733 N 0.74648 0.23706 0.75029 0.0
C2734 C 0.76035 0.21266 0.74894 0.0
C2735 C 0.74433 0.18108 0.73319 0.0
loop_
_geom_bond_atom_site_label_1
_geom_bond_atom_site_label_2
_geom_bond_distance
_geom_bond_site_symmetry_2
_ccdc_geom_bond_type
C0 O1 1.306 . S
C0 O3 1.160 . S
O1 C0 1.306 . S
O1 Cd2 2.228 . S
Cd2 O1 2.228 . S
Cd2 O6 2.273 . S
Cd2 O10 2.277 . S
O3 C0 1.160 . S
O3 Cd4 2.203 . S
Cd4 O3 2.203 . S
Cd4 O6 2.411 . S
Cd4 O7 2.333 . S
Cd4 O8 2.352 . S
Cd4 O12 2.277 . S
Cd4 O13 2.356 . S
C5 O10 1.209 . S
C5 O12 1.226 . S
O6 Cd2 2.273 . S
O6 Cd4 2.411 . S
O6 C9 1.320 . S
O7 Cd4 2.333 . S
O7 C9 1.214 . S
O8 Cd4 2.352 . S
O8 C11 1.258 . S
C9 O6 1.320 . S
C9 O7 1.214 . S
O10 Cd2 2.277 . S
O10 C5 1.209 . S
C11 O8 1.258 . S
C11 O13 1.282 . S
O12 Cd4 2.277 . S
O12 C5 1.226 . S
O13 Cd4 2.356 . S
O13 C11 1.282 . S
C14 O15 1.306 . S
C14 O17 1.160 . S
O15 C14 1.306 . S
O15 Cd16 2.228 1_655 S
Cd16 O15 2.228 1_455 S
Cd16 O20 2.273 . S
Cd16 O24 2.277 1_455 S
O17 C14 1.160 . S
O17 Cd18 2.203 1_655 S
Cd18 O17 2.203 1_455 S
Cd18 O20 2.411 . S
Cd18 O21 2.333 . S
Cd18 O22 2.352 . S
Cd18 O26 2.277 1_455 S
Cd18 O27 2.356 . S
C19 O24 1.209 . S
C19 O26 1.226 . S
O20 Cd16 2.273 . S
O20 Cd18 2.411 . S
O20 C23 1.320 . S
O21 Cd18 2.333 . S
O21 C23 1.214 . S
O22 Cd18 2.352 . S
O22 C25 1.258 . S
C23 O20 1.320 . S
C23 O21 1.214 . S
O24 Cd16 2.277 1_655 S
O24 C19 1.209 . S
C25 O22 1.258 . S
C25 O27 1.282 . S
O26 Cd18 2.277 1_655 S
O26 C19 1.226 . S
O27 Cd18 2.356 . S
O27 C25 1.282 . S
C28 O29 1.306 . S
C28 O31 1.160 . S
O29 C28 1.306 . S
O29 Cd30 2.228 . S
Cd30 O29 2.228 . S
Cd30 O34 2.273 . S
Cd30 O38 2.277 . S
O31 C28 1.160 . S
O31 Cd32 2.203 . S
Cd32 O31 2.203 . S
Cd32 O34 2.411 . S
Cd32 O35 2.333 . S
Cd32 O36 2.352 . S
Cd32 O40 2.277 . S
Cd32 O41 2.356 . S
C33 O38 1.209 . S
C33 O40 1.226 . S
O34 Cd30 2.273 . S
O34 Cd32 2.411 . S
O34 C37 1.320 . S
O35 Cd32 2.333 . S
O35 C37 1.214 . S
O36 Cd32 2.352 . S
O36 C39 1.258 . S
C37 O34 1.320 . S
C37 O35 1.214 . S
O38 Cd30 2.277 . S
O38 C33 1.209 . S
C39 O36 1.258 . S
C39 O41 1.282 . S
O40 Cd32 2.277 . S
O40 C33 1.226 . S
O41 Cd32 2.356 . S
O41 C39 1.282 . S
C42 O43 1.306 . S
C42 O45 1.160 . S
O43 C42 1.306 . S
O43 Cd44 2.228 . S
Cd44 O43 2.228 . S
Cd44 O48 2.273 . S
Cd44 O52 2.277 . S
O45 C42 1.160 . S
O45 Cd46 2.203 . S
Cd46 O45 2.203 . S
Cd46 O48 2.411 . S
Cd46 O49 2.333 . S
Cd46 O50 2.352 . S
Cd46 O54 2.277 . S
Cd46 O55 2.356 . S
C47 O52 1.209 . S
C47 O54 1.226 . S
O48 Cd44 2.273 . S
O48 Cd46 2.411 . S
O48 C51 1.320 . S
O49 Cd46 2.333 . S
O49 C51 1.214 . S
O50 Cd46 2.352 . S
O50 C53 1.258 . S
C51 O48 1.320 . S
C51 O49 1.214 . S
O52 Cd44 2.277 . S
O52 C47 1.209 . S
C53 O50 1.258 . S
C53 O55 1.282 . S
O54 Cd46 2.277 . S
O54 C47 1.226 . S
O55 Cd46 2.356 . S
O55 C53 1.282 . S
C56 O57 1.306 . S
C56 O59 1.160 . S
O57 C56 1.306 . S
O57 Cd58 2.228 . S
Cd58 O57 2.228 . S
Cd58 O62 2.273 . S
Cd58 O66 2.277 . S
O59 C56 1.160 . S
O59 Cd60 2.203 . S
Cd60 O59 2.203 . S
Cd60 O62 2.411 . S
Cd60 O63 2.333 . S
Cd60 O64 2.352 . S
Cd60 O68 2.277 . S
Cd60 O69 2.356 . S
C61 O66 1.209 . S
C61 O68 1.226 . S
O62 Cd58 2.273 . S
O62 Cd60 2.411 . S
O62 C65 1.320 . S
O63 Cd60 2.333 . S
O63 C65 1.214 . S
O64 Cd60 2.352 . S
O64 C67 1.258 . S
C65 O62 1.320 . S
C65 O63 1.214 . S
O66 Cd58 2.277 . S
O66 C61 1.209 . S
C67 O64 1.258 . S
C67 O69 1.282 . S
O68 Cd60 2.277 . S
O68 C61 1.226 . S
O69 Cd60 2.356 . S
O69 C67 1.282 . S
C70 O71 1.306 . S
C70 O73 1.160 . S
O71 C70 1.306 . S
O71 Cd72 2.228 . S
Cd72 O71 2.228 . S
Cd72 O76 2.273 . S
Cd72 O80 2.277 . S
O73 C70 1.160 . S
O73 Cd74 2.203 . S
Cd74 O73 2.203 . S
Cd74 O76 2.411 . S
Cd74 O77 2.333 . S
Cd74 O78 2.352 . S
Cd74 O82 2.277 . S
Cd74 O83 2.356 . S
C75 O80 1.209 . S
C75 O82 1.226 . S
O76 Cd72 2.273 . S
O76 Cd74 2.411 . S
O76 C79 1.320 . S
O77 Cd74 2.333 . S
O77 C79 1.214 . S
O78 Cd74 2.352 . S
O78 C81 1.258 . S
C79 O76 1.320 . S
C79 O77 1.214 . S
O80 Cd72 2.277 . S
O80 C75 1.209 . S
C81 O78 1.258 . S
C81 O83 1.282 . S
O82 Cd74 2.277 . S
O82 C75 1.226 . S
O83 Cd74 2.356 . S
O83 C81 1.282 . S
C84 O85 1.306 . S
C84 O87 1.160 . S
O85 C84 1.306 . S
O85 Cd86 2.228 . S
Cd86 O85 2.228 . S
Cd86 O90 2.273 . S
Cd86 O94 2.277 . S
O87 C84 1.160 . S
O87 Cd88 2.203 . S
Cd88 O87 2.203 . S
Cd88 O90 2.411 . S
Cd88 O91 2.333 . S
Cd88 O92 2.352 . S
Cd88 O96 2.277 . S
Cd88 O97 2.356 . S
C89 O94 1.209 . S
C89 O96 1.226 . S
O90 Cd86 2.273 . S
O90 Cd88 2.411 . S
O90 C93 1.320 . S
O91 Cd88 2.333 . S
O91 C93 1.214 . S
O92 Cd88 2.352 . S
O92 C95 1.258 . S
C93 O90 1.320 . S
C93 O91 1.214 . S
O94 Cd86 2.277 . S
O94 C89 1.209 . S
C95 O92 1.258 . S
C95 O97 1.282 . S
O96 Cd88 2.277 . S
O96 C89 1.226 . S
O97 Cd88 2.356 . S
O97 C95 1.282 . S
C98 O99 1.306 . S
C98 O101 1.160 . S
O99 C98 1.306 . S
O99 Cd100 2.228 1_655 S
Cd100 O99 2.228 1_455 S
Cd100 O104 2.273 . S
Cd100 O108 2.277 . S
O101 C98 1.160 . S
O101 Cd102 2.203 1_655 S
Cd102 O101 2.203 1_455 S
Cd102 O104 2.411 . S
Cd102 O105 2.333 . S
Cd102 O106 2.352 . S
Cd102 O110 2.277 . S
Cd102 O111 2.356 . S
C103 O108 1.209 . S
C103 O110 1.226 . S
O104 Cd100 2.273 . S
O104 Cd102 2.411 . S
O104 C107 1.320 . S
O105 Cd102 2.333 . S
O105 C107 1.214 . S
O106 Cd102 2.352 . S
O106 C109 1.258 . S
C107 O104 1.320 . S
C107 O105 1.214 . S
O108 Cd100 2.277 . S
O108 C103 1.209 . S
C109 O106 1.258 . S
C109 O111 1.282 . S
O110 Cd102 2.277 . S
O110 C103 1.226 . S
O111 Cd102 2.356 . S
O111 C109 1.282 . S
C112 O113 1.306 1_545 S
C112 O115 1.160 . S
O113 C112 1.306 1_565 S
O113 Cd114 2.228 . S
Cd114 O113 2.228 . S
Cd114 O118 2.273 1_565 S
Cd114 O122 2.277 . S
O115 C112 1.160 . S
O115 Cd116 2.203 . S
Cd116 O115 2.203 . S
Cd116 O118 2.411 . S
Cd116 O119 2.332 1_545 S
Cd116 O120 2.352 . S
Cd116 O124 2.277 1_545 S
Cd116 O125 2.356 . S
C117 O122 1.209 . S
C117 O124 1.226 . S
O118 Cd114 2.273 1_545 S
O118 Cd116 2.411 . S
O118 C121 1.316 . S
O119 Cd116 2.332 1_565 S
O119 C121 1.217 1_565 S
O120 Cd116 2.352 . S
O120 C123 1.258 . S
C121 O118 1.316 . S
C121 O119 1.217 1_545 S
O122 Cd114 2.277 . S
O122 C117 1.209 . S
C123 O120 1.258 . S
C123 O125 1.282 . S
O124 Cd116 2.277 1_565 S
O124 C117 1.226 . S
O125 Cd116 2.356 . S
O125 C123 1.282 . S
C126 O127 1.306 . S
C126 O129 1.160 . S
O127 C126 1.306 . S
O127 Cd128 2.228 . S
Cd128 O127 2.228 . S
Cd128 O132 2.273 . S
Cd128 O136 2.277 . S
O129 C126 1.160 . S
O129 Cd130 2.203 . S
Cd130 O129 2.203 . S
Cd130 O132 2.411 . S
Cd130 O133 2.333 . S
Cd130 O134 2.352 . S
Cd130 O138 2.277 . S
Cd130 O139 2.356 . S
C131 O136 1.209 . S
C131 O138 1.226 . S
O132 Cd128 2.273 . S
O132 Cd130 2.411 . S
O132 C135 1.320 . S
O133 Cd130 2.333 . S
O133 C135 1.214 . S
O134 Cd130 2.352 . S
O134 C137 1.258 . S
C135 O132 1.320 . S
C135 O133 1.214 . S
O136 Cd128 2.277 . S
O136 C131 1.209 . S
C137 O134 1.258 . S
C137 O139 1.282 . S
O138 Cd130 2.277 . S
O138 C131 1.226 . S
O139 Cd130 2.356 . S
O139 C137 1.282 . S
C140 O141 1.306 . S
C140 O143 1.160 . S
O141 C140 1.306 . S
O141 Cd142 2.228 . S
Cd142 O141 2.228 . S
Cd142 O146 2.273 1_545 S
Cd142 O150 2.277 . S
O143 C140 1.160 . S
O143 Cd144 2.203 1_545 S
Cd144 O143 2.203 1_565 S
Cd144 O146 2.411 . S
Cd144 O147 2.333 . S
Cd144 O148 2.352 . S
Cd144 O152 2.277 1_565 S
Cd144 O153 2.356 . S
C145 O150 1.209 . S
C145 O152 1.226 . S
O146 Cd142 2.273 1_565 S
O146 Cd144 2.411 . S
O146 C149 1.320 . S
O147 Cd144 2.333 . S
O147 C149 1.214 . S
O148 Cd144 2.352 . S
O148 C151 1.258 . S
C149 O146 1.320 . S
C149 O147 1.214 . S
O150 Cd142 2.277 . S
O150 C145 1.209 . S
C151 O148 1.258 . S
C151 O153 1.282 . S
O152 Cd144 2.277 1_545 S
O152 C145 1.226 . S
O153 Cd144 2.356 . S
O153 C151 1.282 . S
C154 O155 1.306 1_554 S
C154 O157 1.160 . S
O155 C154 1.306 1_556 S
O155 Cd156 2.228 . S
Cd156 O155 2.228 . S
Cd156 O160 2.273 1_556 S
Cd156 O164 2.277 . S
O157 C154 1.160 . S
O157 Cd158 2.203 . S
Cd158 O157 2.203 . S
Cd158 O160 2.411 . S
Cd158 O161 2.333 . S
Cd158 O162 2.352 . S
Cd158 O166 2.277 1_554 S
Cd158 O167 2.356 . S
C159 O164 1.209 . S
C159 O166 1.226 . S
O160 Cd156 2.273 1_554 S
O160 Cd158 2.411 . S
O160 C163 1.320 . S
O161 Cd158 2.333 . S
O161 C163 1.214 . S
O162 Cd158 2.352 . S
O162 C165 1.258 . S
C163 O160 1.320 . S
C163 O161 1.214 . S
O164 Cd156 2.277 . S
O164 C159 1.209 . S
C165 O162 1.258 . S
C165 O167 1.282 . S
O166 Cd158 2.277 1_556 S
O166 C159 1.226 . S
O167 Cd158 2.356 . S
O167 C165 1.282 . S
C168 O169 1.306 . S
C168 O171 1.160 . S
O169 C168 1.306 . S
O169 Cd170 2.228 . S
Cd170 O169 2.228 . S
Cd170 O174 2.273 . S
Cd170 O178 2.277 1_554 S
O171 C168 1.160 . S
O171 Cd172 2.203 . S
Cd172 O171 2.203 . S
Cd172 O174 2.411 . S
Cd172 O175 2.333 . S
Cd172 O176 2.352 . S
Cd172 O180 2.277 1_554 S
Cd172 O181 2.356 . S
C173 O178 1.209 . S
C173 O180 1.226 . S
O174 Cd170 2.273 . S
O174 Cd172 2.411 . S
O174 C177 1.320 . S
O175 Cd172 2.333 . S
O175 C177 1.214 . S
O176 Cd172 2.352 . S
O176 C179 1.258 . S
C177 O174 1.320 . S
C177 O175 1.214 . S
O178 Cd170 2.277 1_556 S
O178 C173 1.209 . S
C179 O176 1.258 . S
C179 O181 1.282 . S
O180 Cd172 2.277 1_556 S
O180 C173 1.226 . S
O181 Cd172 2.356 . S
O181 C179 1.282 . S
C182 O183 1.306 . S
C182 O185 1.160 . S
O183 C182 1.306 . S
O183 Cd184 2.228 . S
Cd184 O183 2.228 . S
Cd184 O188 2.273 . S
Cd184 O192 2.277 . S
O185 C182 1.160 . S
O185 Cd186 2.203 . S
Cd186 O185 2.203 . S
Cd186 O188 2.411 . S
Cd186 O189 2.333 . S
Cd186 O190 2.352 1_554 S
Cd186 O194 2.277 . S
Cd186 O195 2.356 . S
C187 O192 1.209 . S
C187 O194 1.226 . S
O188 Cd184 2.273 . S
O188 Cd186 2.411 . S
O188 C191 1.320 . S
O189 Cd186 2.333 . S
O189 C191 1.214 . S
O190 Cd186 2.352 1_556 S
O190 C193 1.258 . S
C191 O188 1.320 . S
C191 O189 1.214 . S
O192 Cd184 2.277 . S
O192 C187 1.209 . S
C193 O190 1.258 . S
C193 O195 1.282 1_556 S
O194 Cd186 2.277 . S
O194 C187 1.226 . S
O195 Cd186 2.356 . S
O195 C193 1.282 1_554 S
C196 O197 1.306 . S
C196 O199 1.160 . S
O197 C196 1.306 . S
O197 Cd198 2.228 . S
Cd198 O197 2.228 . S
Cd198 O202 2.273 . S
Cd198 O206 2.277 . S
O199 C196 1.160 . S
O199 Cd200 2.203 . S
Cd200 O199 2.203 . S
Cd200 O202 2.411 . S
Cd200 O203 2.333 . S
Cd200 O204 2.352 . S
Cd200 O208 2.277 . S
Cd200 O209 2.356 . S
C201 O206 1.209 . S
C201 O208 1.226 . S
O202 Cd198 2.273 . S
O202 Cd200 2.411 . S
O202 C205 1.320 . S
O203 Cd200 2.333 . S
O203 C205 1.214 . S
O204 Cd200 2.352 . S
O204 C207 1.258 . S
C205 O202 1.320 . S
C205 O203 1.214 . S
O206 Cd198 2.277 . S
O206 C201 1.209 . S
C207 O204 1.258 . S
C207 O209 1.282 . S
O208 Cd200 2.277 . S
O208 C201 1.226 . S
O209 Cd200 2.356 . S
O209 C207 1.282 . S
C210 O211 1.306 . S
C210 O213 1.160 . S
O211 C210 1.306 . S
O211 Cd212 2.228 . S
Cd212 O211 2.228 . S
Cd212 O216 2.273 . S
Cd212 O220 2.277 . S
O213 C210 1.160 . S
O213 Cd214 2.203 . S
Cd214 O213 2.203 . S
Cd214 O216 2.411 . S
Cd214 O217 2.333 . S
Cd214 O218 2.352 . S
Cd214 O222 2.277 . S
Cd214 O223 2.356 . S
C215 O220 1.209 . S
C215 O222 1.226 . S
O216 Cd212 2.273 . S
O216 Cd214 2.411 . S
O216 C219 1.320 . S
O217 Cd214 2.333 . S
O217 C219 1.214 . S
O218 Cd214 2.352 . S
O218 C221 1.258 . S
C219 O216 1.320 . S
C219 O217 1.214 . S
O220 Cd212 2.277 . S
O220 C215 1.209 . S
C221 O218 1.258 . S
C221 O223 1.282 . S
O222 Cd214 2.277 . S
O222 C215 1.226 . S
O223 Cd214 2.356 . S
O223 C221 1.282 . S
C224 O225 1.306 1_655 S
C224 O227 1.160 . S
O225 C224 1.306 1_455 S
O225 Cd226 2.228 . S
Cd226 O225 2.228 . S
Cd226 O230 2.273 1_455 S
Cd226 O234 2.277 1_455 S
O227 C224 1.160 . S
O227 Cd228 2.203 . S
Cd228 O227 2.203 . S
Cd228 O230 2.411 . S
Cd228 O231 2.333 . S
Cd228 O232 2.352 . S
Cd228 O236 2.277 . S
Cd228 O237 2.356 . S
C229 O234 1.209 . S
C229 O236 1.237 . S
O230 Cd226 2.273 1_655 S
O230 Cd228 2.411 . S
O230 C233 1.320 . S
O231 Cd228 2.333 . S
O231 C233 1.214 . S
O232 Cd228 2.352 . S
O232 C235 1.258 . S
C233 O230 1.320 . S
C233 O231 1.214 . S
O234 Cd226 2.277 1_655 S
O234 C229 1.209 . S
C235 O232 1.258 . S
C235 O237 1.282 . S
O236 Cd228 2.277 . S
O236 C229 1.237 . S
O237 Cd228 2.356 . S
O237 C235 1.282 . S
C238 O239 1.306 . S
C238 O241 1.160 . S
O239 C238 1.306 . S
O239 Cd240 2.228 . S
Cd240 O239 2.228 . S
Cd240 O244 2.273 . S
Cd240 O248 2.277 . S
O241 C238 1.160 . S
O241 Cd242 2.203 . S
Cd242 O241 2.203 . S
Cd242 O244 2.411 . S
Cd242 O245 2.333 . S
Cd242 O246 2.352 . S
Cd242 O250 2.277 . S
Cd242 O251 2.356 . S
C243 O248 1.209 . S
C243 O250 1.226 . S
O244 Cd240 2.273 . S
O244 Cd242 2.411 . S
O244 C247 1.320 . S
O245 Cd242 2.333 . S
O245 C247 1.214 . S
O246 Cd242 2.352 . S
O246 C249 1.258 . S
C247 O244 1.320 . S
C247 O245 1.214 . S
O248 Cd240 2.277 . S
O248 C243 1.209 . S
C249 O246 1.258 . S
C249 O251 1.282 . S
O250 Cd242 2.277 . S
O250 C243 1.226 . S
O251 Cd242 2.356 . S
O251 C249 1.282 . S
C252 O253 1.306 . S
C252 O255 1.160 . S
O253 C252 1.306 . S
O253 Cd254 2.228 . S
Cd254 O253 2.228 . S
Cd254 O258 2.273 . S
Cd254 O262 2.277 . S
O255 C252 1.160 . S
O255 Cd256 2.203 . S
Cd256 O255 2.203 . S
Cd256 O258 2.411 . S
Cd256 O259 2.333 . S
Cd256 O260 2.352 . S
Cd256 O264 2.277 . S
Cd256 O265 2.356 . S
C257 O262 1.209 . S
C257 O264 1.226 . S
O258 Cd254 2.273 . S
O258 Cd256 2.411 . S
O258 C261 1.320 . S
O259 Cd256 2.333 . S
O259 C261 1.214 . S
O260 Cd256 2.352 . S
O260 C263 1.258 . S
C261 O258 1.320 . S
C261 O259 1.214 . S
O262 Cd254 2.277 . S
O262 C257 1.209 . S
C263 O260 1.258 . S
C263 O265 1.282 . S
O264 Cd256 2.277 . S
O264 C257 1.226 . S
O265 Cd256 2.356 . S
O265 C263 1.282 . S
C266 O267 1.306 . S
C266 O269 1.160 . S
O267 C266 1.306 . S
O267 Cd268 2.228 . S
Cd268 O267 2.228 . S
Cd268 O272 2.273 . S
Cd268 O276 2.277 . S
O269 C266 1.160 . S
O269 Cd270 2.203 . S
Cd270 O269 2.203 . S
Cd270 O272 2.411 . S
Cd270 O273 2.333 . S
Cd270 O274 2.352 . S
Cd270 O278 2.277 . S
Cd270 O279 2.356 . S
C271 O276 1.209 . S
C271 O278 1.226 . S
O272 Cd268 2.273 . S
O272 Cd270 2.411 . S
O272 C275 1.320 . S
O273 Cd270 2.333 . S
O273 C275 1.214 . S
O274 Cd270 2.352 . S
O274 C277 1.258 . S
C275 O272 1.320 . S
C275 O273 1.214 . S
O276 Cd268 2.277 . S
O276 C271 1.209 . S
C277 O274 1.258 . S
C277 O279 1.282 . S
O278 Cd270 2.277 . S
O278 C271 1.226 . S
O279 Cd270 2.356 . S
O279 C277 1.282 . S
C280 O281 1.306 . S
C280 O283 1.160 1_554 S
O281 C280 1.306 . S
O281 Cd282 2.228 . S
Cd282 O281 2.228 . S
Cd282 O286 2.273 1_554 S
Cd282 O290 2.277 . S
O283 C280 1.160 1_556 S
O283 Cd284 2.203 . S
Cd284 O283 2.203 . S
Cd284 O286 2.411 . S
Cd284 O287 2.333 . S
Cd284 O288 2.352 . S
Cd284 O292 2.277 1_556 S
Cd284 O293 2.356 . S
C285 O290 1.209 . S
C285 O292 1.226 . S
O286 Cd282 2.273 1_556 S
O286 Cd284 2.411 . S
O286 C289 1.320 . S
O287 Cd284 2.333 . S
O287 C289 1.214 . S
O288 Cd284 2.352 . S
O288 C291 1.258 . S
C289 O286 1.320 . S
C289 O287 1.214 . S
O290 Cd282 2.277 . S
O290 C285 1.209 . S
C291 O288 1.258 . S
C291 O293 1.282 . S
O292 Cd284 2.277 1_554 S
O292 C285 1.226 . S
O293 Cd284 2.356 . S
O293 C291 1.282 . S
C294 O295 1.306 . S
C294 O297 1.160 . S
O295 C294 1.306 . S
O295 Cd296 2.228 . S
Cd296 O295 2.228 . S
Cd296 O300 2.273 . S
Cd296 O304 2.277 . S
O297 C294 1.160 . S
O297 Cd298 2.203 . S
Cd298 O297 2.203 . S
Cd298 O300 2.411 . S
Cd298 O301 2.333 . S
Cd298 O302 2.352 . S
Cd298 O306 2.277 . S
Cd298 O307 2.356 . S
C299 O304 1.209 . S
C299 O306 1.226 . S
O300 Cd296 2.273 . S
O300 Cd298 2.411 . S
O300 C303 1.320 . S
O301 Cd298 2.333 . S
O301 C303 1.214 . S
O302 Cd298 2.352 . S
O302 C305 1.258 . S
C303 O300 1.320 . S
C303 O301 1.214 . S
O304 Cd296 2.277 . S
O304 C299 1.209 . S
C305 O302 1.258 . S
C305 O307 1.282 . S
O306 Cd298 2.277 . S
O306 C299 1.226 . S
O307 Cd298 2.356 . S
O307 C305 1.282 . S
C308 O309 1.306 . S
C308 O311 1.160 . S
O309 C308 1.306 . S
O309 Cd310 2.228 . S
Cd310 O309 2.228 . S
Cd310 O314 2.273 . S
Cd310 O318 2.277 . S
O311 C308 1.160 . S
O311 Cd312 2.203 . S
Cd312 O311 2.203 . S
Cd312 O314 2.411 . S
Cd312 O315 2.333 . S
Cd312 O316 2.352 . S
Cd312 O320 2.277 . S
Cd312 O321 2.356 . S
C313 O318 1.209 . S
C313 O320 1.226 . S
O314 Cd310 2.273 . S
O314 Cd312 2.411 . S
O314 C317 1.320 . S
O315 Cd312 2.333 . S
O315 C317 1.214 . S
O316 Cd312 2.352 . S
O316 C319 1.258 . S
C317 O314 1.320 . S
C317 O315 1.214 . S
O318 Cd310 2.277 . S
O318 C313 1.209 . S
C319 O316 1.258 . S
C319 O321 1.282 . S
O320 Cd312 2.277 . S
O320 C313 1.226 . S
O321 Cd312 2.356 . S
O321 C319 1.282 . S
C322 O323 1.306 . S
C322 O325 1.160 . S
O323 C322 1.306 . S
O323 Cd324 2.228 . S
Cd324 O323 2.228 . S
Cd324 O328 2.273 . S
Cd324 O332 2.277 . S
O325 C322 1.160 . S
O325 Cd326 2.203 . S
Cd326 O325 2.203 . S
Cd326 O328 2.411 . S
Cd326 O329 2.333 . S
Cd326 O330 2.352 . S
Cd326 O334 2.277 . S
Cd326 O335 2.356 . S
C327 O332 1.209 . S
C327 O334 1.226 . S
O328 Cd324 2.273 . S
O328 Cd326 2.411 . S
O328 C331 1.320 . S
O329 Cd326 2.333 . S
O329 C331 1.214 . S
O330 Cd326 2.352 . S
O330 C333 1.258 . S
C331 O328 1.320 . S
C331 O329 1.214 . S
O332 Cd324 2.277 . S
O332 C327 1.209 . S
C333 O330 1.258 . S
C333 O335 1.282 . S
O334 Cd326 2.277 . S
O334 C327 1.226 . S
O335 Cd326 2.356 . S
O335 C333 1.282 . S
Eu336 N367 2.659 1_545 S
Eu336 N374 2.608 1_544 S
Eu336 O380 2.556 1_454 S
Eu336 O381 2.613 . S
Eu336 O383 2.342 . S
Eu336 O384 2.563 1_554 S
Eu336 O385 2.420 1_455 S
Eu336 O387 2.373 1_545 S
Eu336 O388 2.430 1_554 S
Eu336 C400 2.847 1_454 S
C337 C340 1.429 . S
C337 C341 1.411 . S
C337 N344 1.377 . S
C338 C340 1.420 . S
C338 C342 1.423 . S
C338 C350 1.392 1_554 S
C339 C341 1.420 . S
C339 C342 1.351 . S
C339 H362 0.931 . S
C340 C337 1.429 . S
C340 C338 1.420 . S
C340 N348 1.362 . S
C341 C337 1.411 . S
C341 C339 1.420 . S
C341 C346 1.395 . S
C342 C338 1.423 . S
C342 C339 1.351 . S
C342 H354 0.930 . S
C343 C345 1.400 . S
C343 C346 1.386 . S
C343 H355 0.930 . S
N344 C337 1.377 . S
N344 C345 1.321 . S
N344 Eu347 2.609 . S
C345 C343 1.400 . S
C345 N344 1.321 . S
C345 H352 0.930 . S
C346 C341 1.395 . S
C346 C343 1.386 . S
C346 H365 0.930 . S
Eu347 N344 2.609 . S
Eu347 N348 2.657 . S
Eu347 O381 2.380 . S
Eu347 O382 2.432 . S
Eu347 O386 2.558 . S
Eu347 O387 2.603 1_545 S
Eu347 O389 2.339 1_554 S
Eu347 O390 2.563 1_545 S
Eu347 O391 2.419 . S
Eu347 C411 2.848 . S
N348 C340 1.362 . S
N348 Eu347 2.657 . S
N348 C349 1.334 1_554 S
C349 N348 1.334 1_556 S
C349 C351 1.413 . S
C349 H356 0.929 . S
C350 C338 1.392 1_556 S
C350 C351 1.367 . S
C350 H358 0.930 . S
C351 C349 1.413 . S
C351 C350 1.367 . S
C351 H353 0.930 . S
H352 C345 0.930 . S
H353 C351 0.930 . S
H354 C342 0.930 . S
H355 C343 0.930 . S
H356 C349 0.929 . S
H357 C371 0.930 . S
H358 C350 0.930 . S
H359 C377 0.930 . S
H360 C368 0.929 . S
H361 C375 0.930 . S
H362 C339 0.931 . S
H363 C369 0.930 . S
H364 C402 0.930 . S
H365 C346 0.930 . S
H366 C401 0.931 . S
N367 Eu336 2.659 1_565 S
N367 C368 1.334 . S
N367 C372 1.377 1_455 S
C368 H360 0.929 . S
C368 N367 1.334 . S
C368 C371 1.413 . S
C369 H363 0.930 . S
C369 C370 1.392 . S
C369 C371 1.367 1_655 S
C370 C369 1.392 . S
C370 C372 1.439 . S
C370 C402 1.423 1_554 S
C371 H357 0.930 . S
C371 C368 1.413 . S
C371 C369 1.367 1_455 S
C372 N367 1.377 1_655 S
C372 C370 1.439 . S
C372 C376 1.393 1_554 S
H373 C378 0.930 . S
N374 Eu336 2.608 1_566 S
N374 C376 1.377 1_455 S
N374 C377 1.321 . S
C375 H361 0.930 . S
C375 C377 1.400 1_655 S
C375 C378 1.386 . S
C376 C372 1.393 1_556 S
C376 N374 1.377 1_655 S
C376 C379 1.411 . S
C377 H359 0.930 . S
C377 N374 1.321 . S
C377 C375 1.400 1_455 S
C378 H373 0.930 . S
C378 C375 1.386 . S
C378 C379 1.395 . S
C379 C376 1.411 . S
C379 C378 1.395 . S
C379 C401 1.420 . S
O380 Eu336 2.556 1_656 S
O380 C400 1.257 . S
O381 Eu336 2.613 . S
O381 Eu347 2.380 . S
O381 C392 1.276 . S
O382 Eu347 2.432 . S
O382 C399 1.264 . S
O383 Eu336 2.342 . S
O383 C399 1.254 . S
O384 Eu336 2.563 1_556 S
O384 C392 1.235 1_556 S
O385 Eu336 2.420 1_655 S
O385 C400 1.249 1_554 S
O386 Eu347 2.558 . S
O386 C411 1.257 . S
O387 Eu336 2.373 1_565 S
O387 Eu347 2.603 1_565 S
O387 C403 1.288 . S
O388 Eu336 2.430 1_556 S
O388 C410 1.264 . S
O389 Eu347 2.339 1_556 S
O389 C410 1.254 . S
O390 Eu347 2.563 1_565 S
O390 C403 1.235 . S
O391 Eu347 2.419 . S
O391 C411 1.249 . S
C392 O381 1.276 . S
C392 O384 1.235 1_554 S
C393 C395 1.416 . S
C393 C397 1.395 . S
C393 C400 1.492 . S
C394 C395 1.399 . S
C394 C396 1.386 . S
C395 C393 1.416 . S
C395 C394 1.399 . S
C395 H412 0.900 1_556 S
C396 C394 1.386 . S
C396 C398 1.395 . S
C396 H413 0.930 . S
C397 C393 1.395 . S
C397 C398 1.379 . S
C397 H414 0.930 1_545 S
C398 C396 1.395 . S
C398 C397 1.379 . S
C398 H415 0.928 1_545 S
C399 O382 1.264 . S
C399 O383 1.254 . S
C400 Eu336 2.847 1_656 S
C400 O380 1.257 . S
C400 O385 1.249 1_556 S
C400 C393 1.492 . S
C401 H366 0.931 . S
C401 C379 1.420 . S
C401 C402 1.351 . S
C402 H364 0.930 . S
C402 C370 1.423 1_556 S
C402 C401 1.351 . S
C403 O387 1.288 . S
C403 O390 1.235 . S
C404 C405 1.393 . S
C404 C408 1.395 . S
C404 C411 1.492 . S
C405 C404 1.393 . S
C405 C406 1.392 . S
C405 H416 0.930 . S
C406 C405 1.392 . S
C406 C407 1.386 . S
C407 C406 1.386 . S
C407 C409 1.395 . S
C407 H417 0.930 . S
C408 C404 1.395 . S
C408 C409 1.379 . S
C408 H418 0.930 . S
C409 C407 1.395 . S
C409 C408 1.379 . S
C409 H419 0.930 . S
C410 O388 1.264 . S
C410 O389 1.254 . S
C411 Eu347 2.848 . S
C411 O386 1.257 . S
C411 O391 1.249 . S
C411 C404 1.492 . S
H412 C395 0.900 1_554 S
H413 C396 0.930 . S
H414 C397 0.930 1_565 S
H415 C398 0.928 1_565 S
H416 C405 0.930 . S
H417 C407 0.930 . S
H418 C408 0.930 . S
H419 C409 0.930 . S
Eu420 N451 2.657 . S
Eu420 N458 2.609 . S
Eu420 O464 2.558 . S
Eu420 O465 2.612 . S
Eu420 O467 2.339 . S
Eu420 O468 2.563 . S
Eu420 O469 2.419 . S
Eu420 O471 2.380 . S
Eu420 O472 2.432 . S
Eu420 C484 2.848 . S
C421 C424 1.429 . S
C421 C425 1.411 . S
C421 N428 1.377 . S
C422 C424 1.420 . S
C422 C426 1.423 . S
C422 C434 1.392 . S
C423 C425 1.420 . S
C423 C426 1.351 . S
C423 H446 0.931 . S
C424 C421 1.429 . S
C424 C422 1.420 . S
C424 N432 1.362 . S
C425 C421 1.411 . S
C425 C423 1.420 . S
C425 C430 1.395 . S
C426 C422 1.423 . S
C426 C423 1.351 . S
C426 H438 0.930 . S
C427 C429 1.400 . S
C427 C430 1.386 . S
C427 H439 0.930 . S
N428 C421 1.377 . S
N428 C429 1.321 . S
N428 Eu431 2.609 . S
C429 C427 1.400 . S
C429 N428 1.321 . S
C429 H436 0.930 . S
C430 C425 1.395 . S
C430 C427 1.386 . S
C430 H449 0.930 . S
Eu431 N428 2.609 . S
Eu431 N432 2.657 . S
Eu431 O465 2.380 . S
Eu431 O466 2.432 . S
Eu431 O470 2.558 . S
Eu431 O471 2.612 . S
Eu431 O473 2.339 . S
Eu431 O474 2.563 . S
Eu431 O475 2.419 . S
Eu431 C495 2.848 . S
N432 C424 1.362 . S
N432 Eu431 2.657 . S
N432 C433 1.334 . S
C433 N432 1.334 . S
C433 C435 1.413 . S
C433 H440 0.929 . S
C434 C422 1.392 . S
C434 C435 1.367 . S
C434 H442 0.930 . S
C435 C433 1.413 . S
C435 C434 1.367 . S
C435 H437 0.930 . S
H436 C429 0.930 . S
H437 C435 0.930 . S
H438 C426 0.930 . S
H439 C427 0.930 . S
H440 C433 0.929 . S
H441 C455 0.930 . S
H442 C434 0.930 . S
H443 C461 0.930 . S
H444 C452 0.929 . S
H445 C459 0.930 . S
H446 C423 0.931 . S
H447 C453 0.930 . S
H448 C486 0.930 . S
H449 C430 0.930 . S
H450 C485 0.931 . S
N451 Eu420 2.657 . S
N451 C452 1.334 . S
N451 C456 1.362 . S
C452 H444 0.929 . S
C452 N451 1.334 . S
C452 C455 1.413 . S
C453 H447 0.930 . S
C453 C454 1.392 . S
C453 C455 1.367 . S
C454 C453 1.392 . S
C454 C456 1.420 . S
C454 C486 1.423 . S
C455 H441 0.930 . S
C455 C452 1.413 . S
C455 C453 1.367 . S
C456 N451 1.362 . S
C456 C454 1.420 . S
C456 C460 1.429 . S
H457 C462 0.930 . S
N458 Eu420 2.609 . S
N458 C460 1.377 . S
N458 C461 1.321 . S
C459 H445 0.930 . S
C459 C461 1.400 . S
C459 C462 1.386 . S
C460 C456 1.429 . S
C460 N458 1.377 . S
C460 C463 1.411 . S
C461 H443 0.930 . S
C461 N458 1.321 . S
C461 C459 1.400 . S
C462 H457 0.930 . S
C462 C459 1.386 . S
C462 C463 1.395 . S
C463 C460 1.411 . S
C463 C462 1.395 . S
C463 C485 1.420 . S
O464 Eu420 2.558 . S
O464 C484 1.257 . S
O465 Eu420 2.612 . S
O465 Eu431 2.380 . S
O465 C476 1.276 . S
O466 Eu431 2.432 . S
O466 C483 1.264 . S
O467 Eu420 2.339 . S
O467 C483 1.254 . S
O468 Eu420 2.563 . S
O468 C476 1.235 . S
O469 Eu420 2.419 . S
O469 C484 1.249 . S
O470 Eu431 2.558 . S
O470 C495 1.257 . S
O471 Eu420 2.380 . S
O471 Eu431 2.612 . S
O471 C487 1.276 . S
O472 Eu420 2.432 . S
O472 C494 1.264 . S
O473 Eu431 2.339 . S
O473 C494 1.254 . S
O474 Eu431 2.563 . S
O474 C487 1.235 . S
O475 Eu431 2.419 . S
O475 C495 1.249 . S
C476 O465 1.276 . S
C476 O468 1.235 . S
C477 C479 1.393 . S
C477 C481 1.395 . S
C477 C484 1.492 . S
C478 C479 1.392 . S
C478 C480 1.386 . S
C479 C477 1.393 . S
C479 C478 1.392 . S
C479 H496 0.930 . S
C480 C478 1.386 . S
C480 C482 1.395 . S
C480 H497 0.930 . S
C481 C477 1.395 . S
C481 C482 1.379 . S
C481 H498 0.930 . S
C482 C480 1.395 . S
C482 C481 1.379 . S
C482 H499 0.930 . S
C483 O466 1.264 . S
C483 O467 1.254 . S
C484 Eu420 2.848 . S
C484 O464 1.257 . S
C484 O469 1.249 . S
C484 C477 1.492 . S
C485 H450 0.931 . S
C485 C463 1.420 . S
C485 C486 1.351 . S
C486 H448 0.930 . S
C486 C454 1.423 . S
C486 C485 1.351 . S
C487 O471 1.276 . S
C487 O474 1.235 . S
C488 C489 1.393 . S
C488 C492 1.395 . S
C488 C495 1.492 . S
C489 C488 1.393 . S
C489 C490 1.392 . S
C489 H500 0.930 . S
C490 C489 1.392 . S
C490 C491 1.386 . S
C491 C490 1.386 . S
C491 C493 1.395 . S
C491 H501 0.930 . S
C492 C488 1.395 . S
C492 C493 1.379 . S
C492 H502 0.930 . S
C493 C491 1.395 . S
C493 C492 1.379 . S
C493 H503 0.930 . S
C494 O472 1.264 . S
C494 O473 1.254 . S
C495 Eu431 2.848 . S
C495 O470 1.257 . S
C495 O475 1.249 . S
C495 C488 1.492 . S
H496 C479 0.930 . S
H497 C480 0.930 . S
H498 C481 0.930 . S
H499 C482 0.930 . S
H500 C489 0.930 . S
H501 C491 0.930 . S
H502 C492 0.930 . S
H503 C493 0.930 . S
Eu504 N535 2.657 . S
Eu504 N542 2.609 . S
Eu504 O548 2.558 . S
Eu504 O549 2.612 1_545 S
Eu504 O551 2.339 . S
Eu504 O552 2.563 1_545 S
Eu504 O553 2.419 . S
Eu504 O555 2.380 . S
Eu504 O556 2.432 . S
Eu504 C568 2.848 . S
C505 C508 1.429 . S
C505 C509 1.411 . S
C505 N512 1.377 . S
C506 C508 1.420 . S
C506 C510 1.423 . S
C506 C518 1.392 . S
C507 C509 1.420 . S
C507 C510 1.351 . S
C507 H530 0.931 . S
C508 C505 1.429 . S
C508 C506 1.420 . S
C508 N516 1.362 . S
C509 C505 1.411 . S
C509 C507 1.420 . S
C509 C514 1.395 . S
C510 C506 1.423 . S
C510 C507 1.351 . S
C510 H522 0.930 . S
C511 C513 1.400 1_565 S
C511 C514 1.386 . S
C511 H523 0.930 1_565 S
N512 C505 1.377 . S
N512 C513 1.321 1_565 S
N512 Eu515 2.609 1_565 S
C513 C511 1.400 1_545 S
C513 N512 1.321 1_545 S
C513 H520 0.930 . S
C514 C509 1.395 . S
C514 C511 1.386 . S
C514 H533 0.930 . S
Eu515 N512 2.609 1_545 S
Eu515 N516 2.657 1_545 S
Eu515 O549 2.380 1_545 S
Eu515 O550 2.432 . S
Eu515 O554 2.558 . S
Eu515 O555 2.612 . S
Eu515 O557 2.339 . S
Eu515 O558 2.563 . S
Eu515 O559 2.419 . S
Eu515 C579 2.848 . S
N516 C508 1.362 . S
N516 Eu515 2.657 1_565 S
N516 C517 1.334 . S
C517 N516 1.334 . S
C517 C519 1.413 . S
C517 H524 0.929 . S
C518 C506 1.392 . S
C518 C519 1.367 . S
C518 H526 0.930 . S
C519 C517 1.413 . S
C519 C518 1.367 . S
C519 H521 0.930 . S
H520 C513 0.930 . S
H521 C519 0.930 . S
H522 C510 0.930 . S
H523 C511 0.930 1_545 S
H524 C517 0.929 . S
H525 C539 0.930 . S
H526 C518 0.930 . S
H527 C545 0.930 . S
H528 C536 0.929 . S
H529 C543 0.930 . S
H530 C507 0.931 . S
H531 C537 0.930 . S
H532 C570 0.930 . S
H533 C514 0.930 . S
H534 C569 0.931 . S
N535 Eu504 2.657 . S
N535 C536 1.334 . S
N535 C540 1.362 . S
C536 H528 0.929 . S
C536 N535 1.334 . S
C536 C539 1.413 . S
C537 H531 0.930 . S
C537 C538 1.392 . S
C537 C539 1.367 . S
C538 C537 1.392 . S
C538 C540 1.420 . S
C538 C570 1.423 . S
C539 H525 0.930 . S
C539 C536 1.413 . S
C539 C537 1.367 . S
C540 N535 1.362 . S
C540 C538 1.420 . S
C540 C544 1.429 . S
H541 C546 0.930 . S
N542 Eu504 2.609 . S
N542 C544 1.377 . S
N542 C545 1.321 . S
C543 H529 0.930 . S
C543 C545 1.400 . S
C543 C546 1.386 . S
C544 C540 1.429 . S
C544 N542 1.377 . S
C544 C547 1.411 . S
C545 H527 0.930 . S
C545 N542 1.321 . S
C545 C543 1.400 . S
C546 H541 0.930 . S
C546 C543 1.386 . S
C546 C547 1.395 . S
C547 C544 1.411 . S
C547 C546 1.395 . S
C547 C569 1.420 . S
O548 Eu504 2.558 . S
O548 C568 1.257 . S
O549 Eu504 2.612 1_565 S
O549 Eu515 2.380 1_565 S
O549 C560 1.276 . S
O550 Eu515 2.432 . S
O550 C567 1.264 . S
O551 Eu504 2.339 . S
O551 C567 1.254 . S
O552 Eu504 2.563 1_565 S
O552 C560 1.235 . S
O553 Eu504 2.419 . S
O553 C568 1.249 . S
O554 Eu515 2.558 . S
O554 C579 1.257 . S
O555 Eu504 2.380 . S
O555 Eu515 2.612 . S
O555 C571 1.276 . S
O556 Eu504 2.432 . S
O556 C578 1.264 . S
O557 Eu515 2.339 . S
O557 C578 1.254 . S
O558 Eu515 2.563 . S
O558 C571 1.235 . S
O559 Eu515 2.419 . S
O559 C579 1.249 . S
C560 O549 1.276 . S
C560 O552 1.235 . S
C561 C563 1.393 . S
C561 C565 1.395 . S
C561 C568 1.492 1_565 S
C562 C563 1.392 . S
C562 C564 1.386 . S
C563 C561 1.393 . S
C563 C562 1.392 . S
C563 H580 0.930 . S
C564 C562 1.386 . S
C564 C566 1.395 . S
C564 H581 0.930 . S
C565 C561 1.395 . S
C565 C566 1.379 . S
C565 H582 0.930 . S
C566 C564 1.395 . S
C566 C565 1.379 . S
C566 H583 0.930 . S
C567 O550 1.264 . S
C567 O551 1.254 . S
C568 Eu504 2.848 . S
C568 O548 1.257 . S
C568 O553 1.249 . S
C568 C561 1.492 1_545 S
C569 H534 0.931 . S
C569 C547 1.420 . S
C569 C570 1.351 . S
C570 H532 0.930 . S
C570 C538 1.423 . S
C570 C569 1.351 . S
C571 O555 1.276 . S
C571 O558 1.235 . S
C572 C573 1.393 . S
C572 C576 1.395 . S
C572 C579 1.492 . S
C573 C572 1.393 . S
C573 C574 1.392 . S
C573 H584 0.930 . S
C574 C573 1.392 . S
C574 C575 1.386 . S
C575 C574 1.386 . S
C575 C577 1.395 . S
C575 H585 0.930 . S
C576 C572 1.395 . S
C576 C577 1.379 . S
C576 H586 0.930 . S
C577 C575 1.395 . S
C577 C576 1.379 . S
C577 H587 0.930 . S
C578 O556 1.264 . S
C578 O557 1.254 . S
C579 Eu515 2.848 . S
C579 O554 1.257 . S
C579 O559 1.249 . S
C579 C572 1.492 . S
H580 C563 0.930 . S
H581 C564 0.930 . S
H582 C565 0.930 . S
H583 C566 0.930 . S
H584 C573 0.930 . S
H585 C575 0.930 . S
H586 C576 0.930 . S
H587 C577 0.930 . S
Eu588 N619 2.657 . S
Eu588 N626 2.609 . S
Eu588 O632 2.558 . S
Eu588 O633 2.612 . S
Eu588 O635 2.339 . S
Eu588 O636 2.563 . S
Eu588 O637 2.419 . S
Eu588 O639 2.380 . S
Eu588 O640 2.432 . S
Eu588 C652 2.848 . S
C589 C592 1.429 . S
C589 C593 1.411 . S
C589 N596 1.377 . S
C590 C592 1.420 . S
C590 C594 1.423 . S
C590 C602 1.392 . S
C591 C593 1.420 . S
C591 C594 1.351 . S
C591 H614 0.931 . S
C592 C589 1.429 . S
C592 C590 1.420 . S
C592 N600 1.362 . S
C593 C589 1.411 . S
C593 C591 1.420 . S
C593 C598 1.395 . S
C594 C590 1.423 . S
C594 C591 1.351 . S
C594 H606 0.930 . S
C595 C597 1.400 . S
C595 C598 1.386 . S
C595 H607 0.930 . S
N596 C589 1.377 . S
N596 C597 1.321 . S
N596 Eu599 2.609 . S
C597 C595 1.400 . S
C597 N596 1.321 . S
C597 H604 0.930 . S
C598 C593 1.395 . S
C598 C595 1.386 . S
C598 H617 0.930 . S
Eu599 N596 2.609 . S
Eu599 N600 2.657 . S
Eu599 O633 2.380 . S
Eu599 O634 2.432 . S
Eu599 O638 2.558 . S
Eu599 O639 2.612 . S
Eu599 O641 2.339 . S
Eu599 O642 2.563 . S
Eu599 O643 2.419 . S
Eu599 C663 2.848 . S
N600 C592 1.362 . S
N600 Eu599 2.657 . S
N600 C601 1.334 . S
C601 N600 1.334 . S
C601 C603 1.413 . S
C601 H608 0.929 . S
C602 C590 1.392 . S
C602 C603 1.367 . S
C602 H610 0.930 . S
C603 C601 1.413 . S
C603 C602 1.367 . S
C603 H605 0.930 . S
H604 C597 0.930 . S
H605 C603 0.930 . S
H606 C594 0.930 . S
H607 C595 0.930 . S
H608 C601 0.929 . S
H609 C623 0.930 . S
H610 C602 0.930 . S
H611 C629 0.930 . S
H612 C620 0.929 . S
H613 C627 0.930 . S
H614 C591 0.931 . S
H615 C621 0.930 . S
H616 C654 0.930 . S
H617 C598 0.930 . S
H618 C653 0.931 . S
N619 Eu588 2.657 . S
N619 C620 1.334 . S
N619 C624 1.362 . S
C620 H612 0.929 . S
C620 N619 1.334 . S
C620 C623 1.413 . S
C621 H615 0.930 . S
C621 C622 1.392 . S
C621 C623 1.367 . S
C622 C621 1.392 . S
C622 C624 1.420 . S
C622 C654 1.423 . S
C623 H609 0.930 . S
C623 C620 1.413 . S
C623 C621 1.367 . S
C624 N619 1.362 . S
C624 C622 1.420 . S
C624 C628 1.429 . S
H625 C630 0.930 . S
N626 Eu588 2.609 . S
N626 C628 1.377 . S
N626 C629 1.321 . S
C627 H613 0.930 . S
C627 C629 1.400 . S
C627 C630 1.386 . S
C628 C624 1.429 . S
C628 N626 1.377 . S
C628 C631 1.411 . S
C629 H611 0.930 . S
C629 N626 1.321 . S
C629 C627 1.400 . S
C630 H625 0.930 . S
C630 C627 1.386 . S
C630 C631 1.395 . S
C631 C628 1.411 . S
C631 C630 1.395 . S
C631 C653 1.420 . S
O632 Eu588 2.558 . S
O632 C652 1.257 . S
O633 Eu588 2.612 . S
O633 Eu599 2.380 . S
O633 C644 1.276 . S
O634 Eu599 2.432 . S
O634 C651 1.264 . S
O635 Eu588 2.339 . S
O635 C651 1.254 . S
O636 Eu588 2.563 . S
O636 C644 1.235 . S
O637 Eu588 2.419 . S
O637 C652 1.249 . S
O638 Eu599 2.558 . S
O638 C663 1.257 . S
O639 Eu588 2.380 . S
O639 Eu599 2.612 . S
O639 C655 1.276 . S
O640 Eu588 2.432 . S
O640 C662 1.264 . S
O641 Eu599 2.339 . S
O641 C662 1.254 . S
O642 Eu599 2.563 . S
O642 C655 1.235 . S
O643 Eu599 2.419 . S
O643 C663 1.249 . S
C644 O633 1.276 . S
C644 O636 1.235 . S
C645 C647 1.393 . S
C645 C649 1.395 . S
C645 C652 1.492 . S
C646 C647 1.392 . S
C646 C648 1.386 . S
C647 C645 1.393 . S
C647 C646 1.392 . S
C647 H664 0.930 . S
C648 C646 1.386 . S
C648 C650 1.395 . S
C648 H665 0.930 . S
C649 C645 1.395 . S
C649 C650 1.379 . S
C649 H666 0.930 . S
C650 C648 1.395 . S
C650 C649 1.379 . S
C650 H667 0.930 . S
C651 O634 1.264 . S
C651 O635 1.254 . S
C652 Eu588 2.848 . S
C652 O632 1.257 . S
C652 O637 1.249 . S
C652 C645 1.492 . S
C653 H618 0.931 . S
C653 C631 1.420 . S
C653 C654 1.351 . S
C654 H616 0.930 . S
C654 C622 1.423 . S
C654 C653 1.351 . S
C655 O639 1.276 . S
C655 O642 1.235 . S
C656 C657 1.393 . S
C656 C660 1.395 . S
C656 C663 1.492 . S
C657 C656 1.393 . S
C657 C658 1.392 . S
C657 H668 0.930 . S
C658 C657 1.392 . S
C658 C659 1.386 . S
C659 C658 1.386 . S
C659 C661 1.395 . S
C659 H669 0.930 . S
C660 C656 1.395 . S
C660 C661 1.379 . S
C660 H670 0.930 . S
C661 C659 1.395 . S
C661 C660 1.379 . S
C661 H671 0.930 . S
C662 O640 1.264 . S
C662 O641 1.254 . S
C663 Eu599 2.848 . S
C663 O638 1.257 . S
C663 O643 1.249 . S
C663 C656 1.492 . S
H664 C647 0.930 . S
H665 C648 0.930 . S
H666 C649 0.930 . S
H667 C650 0.930 . S
H668 C657 0.930 . S
H669 C659 0.930 . S
H670 C660 0.930 . S
H671 C661 0.930 . S
Eu672 N703 2.657 . S
Eu672 N710 2.609 . S
Eu672 O716 2.558 . S
Eu672 O717 2.612 . S
Eu672 O719 2.339 . S
Eu672 O720 2.563 . S
Eu672 O721 2.419 . S
Eu672 O723 2.380 . S
Eu672 O724 2.432 . S
Eu672 C736 2.848 . S
C673 C676 1.429 . S
C673 C677 1.411 . S
C673 N680 1.377 . S
C674 C676 1.420 . S
C674 C678 1.423 . S
C674 C686 1.392 . S
C675 C677 1.420 . S
C675 C678 1.351 . S
C675 H698 0.931 . S
C676 C673 1.429 . S
C676 C674 1.420 . S
C676 N684 1.362 . S
C677 C673 1.411 . S
C677 C675 1.420 . S
C677 C682 1.395 . S
C678 C674 1.423 . S
C678 C675 1.351 . S
C678 H690 0.930 . S
C679 C681 1.400 . S
C679 C682 1.386 . S
C679 H691 0.930 . S
N680 C673 1.377 . S
N680 C681 1.321 . S
N680 Eu683 2.609 . S
C681 C679 1.400 . S
C681 N680 1.321 . S
C681 H688 0.930 . S
C682 C677 1.395 . S
C682 C679 1.386 . S
C682 H701 0.930 . S
Eu683 N680 2.609 . S
Eu683 N684 2.657 . S
Eu683 O717 2.380 1_565 S
Eu683 O718 2.432 1_565 S
Eu683 O722 2.558 . S
Eu683 O723 2.612 1_565 S
Eu683 O725 2.339 . S
Eu683 O726 2.563 . S
Eu683 O727 2.419 . S
Eu683 C747 2.848 . S
N684 C676 1.362 . S
N684 Eu683 2.657 . S
N684 C685 1.334 . S
C685 N684 1.334 . S
C685 C687 1.413 1_455 S
C685 H692 0.929 . S
C686 C674 1.392 . S
C686 C687 1.367 1_455 S
C686 H694 0.930 1_455 S
C687 C685 1.413 1_655 S
C687 C686 1.367 1_655 S
C687 H689 0.930 . S
H688 C681 0.930 . S
H689 C687 0.930 . S
H690 C678 0.930 . S
H691 C679 0.930 . S
H692 C685 0.929 . S
H693 C707 0.930 . S
H694 C686 0.930 1_655 S
H695 C713 0.930 . S
H696 C704 0.929 . S
H697 C711 0.930 1_655 S
H698 C675 0.931 . S
H699 C705 0.930 . S
H700 C738 0.930 . S
H701 C682 0.930 . S
H702 C737 0.931 . S
N703 Eu672 2.657 . S
N703 C704 1.334 . S
N703 C708 1.362 . S
C704 H696 0.929 . S
C704 N703 1.334 . S
C704 C707 1.413 . S
C705 H699 0.930 . S
C705 C706 1.392 . S
C705 C707 1.367 . S
C706 C705 1.392 . S
C706 C708 1.420 . S
C706 C738 1.423 . S
C707 H693 0.930 . S
C707 C704 1.413 . S
C707 C705 1.367 . S
C708 N703 1.362 . S
C708 C706 1.420 . S
C708 C712 1.429 . S
H709 C714 0.930 . S
N710 Eu672 2.609 . S
N710 C712 1.377 . S
N710 C713 1.321 . S
C711 H697 0.930 1_455 S
C711 C713 1.400 . S
C711 C714 1.386 . S
C712 C708 1.429 . S
C712 N710 1.377 . S
C712 C715 1.411 . S
C713 H695 0.930 . S
C713 N710 1.321 . S
C713 C711 1.400 . S
C714 H709 0.930 . S
C714 C711 1.386 . S
C714 C715 1.395 . S
C715 C712 1.411 . S
C715 C714 1.395 . S
C715 C737 1.420 . S
O716 Eu672 2.558 . S
O716 C736 1.257 . S
O717 Eu672 2.612 . S
O717 Eu683 2.380 1_545 S
O717 C728 1.276 . S
O718 Eu683 2.432 1_545 S
O718 C735 1.264 . S
O719 Eu672 2.339 . S
O719 C735 1.254 . S
O720 Eu672 2.563 . S
O720 C728 1.235 . S
O721 Eu672 2.419 . S
O721 C736 1.249 . S
O722 Eu683 2.558 . S
O722 C747 1.257 . S
O723 Eu672 2.380 . S
O723 Eu683 2.612 1_545 S
O723 C739 1.276 . S
O724 Eu672 2.432 . S
O724 C746 1.264 . S
O725 Eu683 2.339 . S
O725 C746 1.254 1_565 S
O726 Eu683 2.563 . S
O726 C739 1.235 1_565 S
O727 Eu683 2.419 . S
O727 C747 1.249 . S
C728 O717 1.276 . S
C728 O720 1.235 . S
C729 C731 1.393 . S
C729 C733 1.395 . S
C729 C736 1.492 . S
C730 C731 1.392 . S
C730 C732 1.386 . S
C731 C729 1.393 . S
C731 C730 1.392 . S
C731 H748 0.930 . S
C732 C730 1.386 . S
C732 C734 1.395 . S
C732 H749 0.930 . S
C733 C729 1.395 . S
C733 C734 1.379 . S
C733 H750 0.930 . S
C734 C732 1.395 . S
C734 C733 1.379 . S
C734 H751 0.930 . S
C735 O718 1.264 . S
C735 O719 1.254 . S
C736 Eu672 2.848 . S
C736 O716 1.257 . S
C736 O721 1.249 . S
C736 C729 1.492 . S
C737 H702 0.931 . S
C737 C715 1.420 . S
C737 C738 1.351 . S
C738 H700 0.930 . S
C738 C706 1.423 . S
C738 C737 1.351 . S
C739 O723 1.276 . S
C739 O726 1.235 1_545 S
C740 C741 1.393 . S
C740 C744 1.395 . S
C740 C747 1.492 . S
C741 C740 1.393 . S
C741 C742 1.392 . S
C741 H752 0.930 . S
C742 C741 1.392 . S
C742 C743 1.386 . S
C743 C742 1.386 . S
C743 C745 1.395 . S
C743 H753 0.930 . S
C744 C740 1.395 . S
C744 C745 1.379 . S
C744 H754 0.930 . S
C745 C743 1.395 . S
C745 C744 1.379 . S
C745 H755 0.930 . S
C746 O724 1.264 . S
C746 O725 1.254 1_545 S
C747 Eu683 2.848 . S
C747 O722 1.257 . S
C747 O727 1.249 . S
C747 C740 1.492 . S
H748 C731 0.930 . S
H749 C732 0.930 . S
H750 C733 0.930 . S
H751 C734 0.930 . S
H752 C741 0.930 . S
H753 C743 0.930 . S
H754 C744 0.930 . S
H755 C745 0.930 . S
Eu756 N787 2.657 . S
Eu756 N794 2.609 . S
Eu756 O800 2.558 . S
Eu756 O801 2.612 . S
Eu756 O803 2.339 . S
Eu756 O804 2.563 . S
Eu756 O805 2.419 . S
Eu756 O807 2.380 . S
Eu756 O808 2.432 . S
Eu756 C820 2.848 . S
C757 C760 1.429 . S
C757 C761 1.411 . S
C757 N764 1.377 . S
C758 C760 1.420 . S
C758 C762 1.423 . S
C758 C770 1.392 . S
C759 C761 1.420 . S
C759 C762 1.351 . S
C759 H782 0.931 . S
C760 C757 1.429 . S
C760 C758 1.420 . S
C760 N768 1.362 . S
C761 C757 1.411 . S
C761 C759 1.420 . S
C761 C766 1.395 . S
C762 C758 1.423 . S
C762 C759 1.351 . S
C762 H774 0.930 . S
C763 C765 1.400 . S
C763 C766 1.386 . S
C763 H775 0.930 . S
N764 C757 1.377 . S
N764 C765 1.321 . S
N764 Eu767 2.609 . S
C765 C763 1.400 . S
C765 N764 1.321 . S
C765 H772 0.930 . S
C766 C761 1.395 . S
C766 C763 1.386 . S
C766 H785 0.930 . S
Eu767 N764 2.609 . S
Eu767 N768 2.657 . S
Eu767 O801 2.380 . S
Eu767 O802 2.432 . S
Eu767 O806 2.558 . S
Eu767 O807 2.612 . S
Eu767 O809 2.339 . S
Eu767 O810 2.563 . S
Eu767 O811 2.419 . S
Eu767 C831 2.848 . S
N768 C760 1.362 . S
N768 Eu767 2.657 . S
N768 C769 1.334 . S
C769 N768 1.334 . S
C769 C771 1.413 . S
C769 H776 0.929 . S
C770 C758 1.392 . S
C770 C771 1.367 . S
C770 H778 0.930 . S
C771 C769 1.413 . S
C771 C770 1.367 . S
C771 H773 0.930 . S
H772 C765 0.930 . S
H773 C771 0.930 . S
H774 C762 0.930 . S
H775 C763 0.930 . S
H776 C769 0.929 . S
H777 C791 0.930 . S
H778 C770 0.930 . S
H779 C797 0.930 . S
H780 C788 0.929 . S
H781 C795 0.930 . S
H782 C759 0.931 . S
H783 C789 0.930 . S
H784 C822 0.930 . S
H785 C766 0.930 . S
H786 C821 0.931 . S
N787 Eu756 2.657 . S
N787 C788 1.334 . S
N787 C792 1.362 . S
C788 H780 0.929 . S
C788 N787 1.334 . S
C788 C791 1.413 . S
C789 H783 0.930 . S
C789 C790 1.392 . S
C789 C791 1.367 . S
C790 C789 1.392 . S
C790 C792 1.420 . S
C790 C822 1.423 . S
C791 H777 0.930 . S
C791 C788 1.413 . S
C791 C789 1.367 . S
C792 N787 1.362 . S
C792 C790 1.420 . S
C792 C796 1.429 . S
H793 C798 0.930 . S
N794 Eu756 2.609 . S
N794 C796 1.377 . S
N794 C797 1.321 . S
C795 H781 0.930 . S
C795 C797 1.400 . S
C795 C798 1.386 . S
C796 C792 1.429 . S
C796 N794 1.377 . S
C796 C799 1.411 . S
C797 H779 0.930 . S
C797 N794 1.321 . S
C797 C795 1.400 . S
C798 H793 0.930 . S
C798 C795 1.386 . S
C798 C799 1.395 . S
C799 C796 1.411 . S
C799 C798 1.395 . S
C799 C821 1.420 . S
O800 Eu756 2.558 . S
O800 C820 1.257 . S
O801 Eu756 2.612 . S
O801 Eu767 2.380 . S
O801 C812 1.276 . S
O802 Eu767 2.432 . S
O802 C819 1.264 . S
O803 Eu756 2.339 . S
O803 C819 1.254 . S
O804 Eu756 2.563 . S
O804 C812 1.235 . S
O805 Eu756 2.419 . S
O805 C820 1.249 . S
O806 Eu767 2.558 . S
O806 C831 1.257 . S
O807 Eu756 2.380 . S
O807 Eu767 2.612 . S
O807 C823 1.276 . S
O808 Eu756 2.432 . S
O808 C830 1.264 . S
O809 Eu767 2.339 . S
O809 C830 1.254 . S
O810 Eu767 2.563 . S
O810 C823 1.235 . S
O811 Eu767 2.419 . S
O811 C831 1.249 . S
C812 O801 1.276 . S
C812 O804 1.235 . S
C813 C815 1.393 . S
C813 C817 1.395 . S
C813 C820 1.492 . S
C814 C815 1.392 . S
C814 C816 1.386 . S
C815 C813 1.393 . S
C815 C814 1.392 . S
C815 H832 0.930 . S
C816 C814 1.386 . S
C816 C818 1.395 . S
C816 H833 0.930 . S
C817 C813 1.395 . S
C817 C818 1.379 . S
C817 H834 0.930 . S
C818 C816 1.395 . S
C818 C817 1.379 . S
C818 H835 0.930 . S
C819 O802 1.264 . S
C819 O803 1.254 . S
C820 Eu756 2.848 . S
C820 O800 1.257 . S
C820 O805 1.249 . S
C820 C813 1.492 . S
C821 H786 0.931 . S
C821 C799 1.420 . S
C821 C822 1.351 . S
C822 H784 0.930 . S
C822 C790 1.423 . S
C822 C821 1.351 . S
C823 O807 1.276 . S
C823 O810 1.235 . S
C824 C825 1.393 . S
C824 C828 1.395 . S
C824 C831 1.492 . S
C825 C824 1.393 . S
C825 C826 1.392 . S
C825 H836 0.930 . S
C826 C825 1.392 . S
C826 C827 1.386 . S
C827 C826 1.386 . S
C827 C829 1.395 . S
C827 H837 0.930 . S
C828 C824 1.395 . S
C828 C829 1.379 . S
C828 H838 0.930 . S
C829 C827 1.395 . S
C829 C828 1.379 . S
C829 H839 0.930 . S
C830 O808 1.264 . S
C830 O809 1.254 . S
C831 Eu767 2.848 . S
C831 O806 1.257 . S
C831 O811 1.249 . S
C831 C824 1.492 . S
H832 C815 0.930 . S
H833 C816 0.930 . S
H834 C817 0.930 . S
H835 C818 0.930 . S
H836 C825 0.930 . S
H837 C827 0.930 . S
H838 C828 0.930 . S
H839 C829 0.930 . S
Eu840 N871 2.657 . S
Eu840 N878 2.609 1_545 S
Eu840 O884 2.558 1_545 S
Eu840 O885 2.612 . S
Eu840 O887 2.339 . S
Eu840 O888 2.563 1_545 S
Eu840 O889 2.419 . S
Eu840 O891 2.380 . S
Eu840 O892 2.432 1_545 S
Eu840 C904 2.848 . S
C841 C844 1.429 . S
C841 C845 1.411 . S
C841 N848 1.377 . S
C842 C844 1.420 1_565 S
C842 C846 1.423 1_565 S
C842 C854 1.392 . S
C843 C845 1.420 . S
C843 C846 1.351 . S
C843 H866 0.931 . S
C844 C841 1.429 . S
C844 C842 1.420 1_545 S
C844 N852 1.362 . S
C845 C841 1.411 . S
C845 C843 1.420 . S
C845 C850 1.395 . S
C846 C842 1.423 1_545 S
C846 C843 1.351 . S
C846 H858 0.930 1_545 S
C847 C849 1.400 . S
C847 C850 1.386 . S
C847 H859 0.930 . S
N848 C841 1.377 . S
N848 C849 1.321 . S
N848 Eu851 2.609 . S
C849 C847 1.400 . S
C849 N848 1.321 . S
C849 H856 0.930 . S
C850 C845 1.395 . S
C850 C847 1.386 . S
C850 H869 0.930 . S
Eu851 N848 2.609 . S
Eu851 N852 2.657 . S
Eu851 O885 2.380 1_556 S
Eu851 O886 2.432 1_556 S
Eu851 O890 2.558 . S
Eu851 O891 2.612 1_556 S
Eu851 O893 2.306 1_545 S
Eu851 O894 2.563 . S
Eu851 O895 2.419 . S
Eu851 C915 2.848 . S
N852 C844 1.362 . S
N852 Eu851 2.657 . S
N852 C853 1.334 1_545 S
C853 N852 1.334 1_565 S
C853 C855 1.413 . S
C853 H860 0.929 . S
C854 C842 1.392 . S
C854 C855 1.367 . S
C854 H862 0.930 . S
C855 C853 1.413 . S
C855 C854 1.367 . S
C855 H857 0.930 . S
H856 C849 0.930 . S
H857 C855 0.930 . S
H858 C846 0.930 1_565 S
H859 C847 0.930 . S
H860 C853 0.929 . S
H861 C875 0.930 . S
H862 C854 0.930 . S
H863 C881 0.930 . S
H864 C872 0.929 . S
H865 C879 0.930 . S
H866 C843 0.931 . S
H867 C873 0.930 . S
H868 C906 0.930 . S
H869 C850 0.930 . S
H870 C905 0.931 . S
N871 Eu840 2.657 . S
N871 C872 1.334 . S
N871 C876 1.362 . S
C872 H864 0.929 . S
C872 N871 1.334 . S
C872 C875 1.413 . S
C873 H867 0.930 . S
C873 C874 1.392 . S
C873 C875 1.367 . S
C874 C873 1.392 . S
C874 C876 1.420 . S
C874 C906 1.423 . S
C875 H861 0.930 . S
C875 C872 1.413 . S
C875 C873 1.367 . S
C876 N871 1.362 . S
C876 C874 1.420 . S
C876 C880 1.429 . S
H877 C882 0.930 . S
N878 Eu840 2.609 1_565 S
N878 C880 1.377 1_565 S
N878 C881 1.321 . S
C879 H865 0.930 . S
C879 C881 1.400 . S
C879 C882 1.386 . S
C880 C876 1.429 . S
C880 N878 1.377 1_545 S
C880 C883 1.411 . S
C881 H863 0.930 . S
C881 N878 1.321 . S
C881 C879 1.400 . S
C882 H877 0.930 . S
C882 C879 1.386 . S
C882 C883 1.395 1_565 S
C883 C880 1.411 . S
C883 C882 1.395 1_545 S
C883 C905 1.420 . S
O884 Eu840 2.558 1_565 S
O884 C904 1.256 1_565 S
O885 Eu840 2.612 . S
O885 Eu851 2.380 1_554 S
O885 C896 1.276 . S
O886 Eu851 2.432 1_554 S
O886 C903 1.264 . S
O887 Eu840 2.339 . S
O887 C903 1.254 . S
O888 Eu840 2.563 1_565 S
O888 C896 1.235 1_565 S
O889 Eu840 2.419 . S
O889 C904 1.251 . S
O890 Eu851 2.558 . S
O890 C915 1.257 . S
O891 Eu840 2.380 . S
O891 Eu851 2.612 1_554 S
O891 C907 1.276 . S
O892 Eu840 2.432 1_565 S
O892 C914 1.264 1_554 S
O893 Eu851 2.306 1_565 S
O893 C914 1.281 . S
O894 Eu851 2.563 . S
O894 C907 1.235 1_556 S
O895 Eu851 2.419 . S
O895 C915 1.249 . S
C896 O885 1.276 . S
C896 O888 1.235 1_545 S
C897 C899 1.393 1_565 S
C897 C901 1.395 . S
C897 C904 1.491 1_565 S
C898 C899 1.392 1_565 S
C898 C900 1.386 . S
C899 C897 1.393 1_545 S
C899 C898 1.392 1_545 S
C899 H916 0.930 . S
C900 C898 1.386 . S
C900 C902 1.395 . S
C900 H917 0.930 . S
C901 C897 1.395 . S
C901 C902 1.379 . S
C901 H918 0.930 . S
C902 C900 1.395 . S
C902 C901 1.379 . S
C902 H919 0.930 . S
C903 O886 1.264 . S
C903 O887 1.254 . S
C904 Eu840 2.848 . S
C904 O884 1.256 1_545 S
C904 O889 1.251 . S
C904 C897 1.491 1_545 S
C905 H870 0.931 . S
C905 C883 1.420 . S
C905 C906 1.351 . S
C906 H868 0.930 . S
C906 C874 1.423 . S
C906 C905 1.351 . S
C907 O891 1.276 . S
C907 O894 1.235 1_554 S
C908 C909 1.393 . S
C908 C912 1.395 . S
C908 C915 1.492 . S
C909 C908 1.393 . S
C909 C910 1.392 . S
C909 H920 0.930 . S
C910 C909 1.392 . S
C910 C911 1.386 . S
C911 C910 1.386 . S
C911 C913 1.395 . S
C911 H921 0.930 . S
C912 C908 1.395 . S
C912 C913 1.379 . S
C912 H922 0.930 . S
C913 C911 1.395 . S
C913 C912 1.379 . S
C913 H923 0.930 . S
C914 O892 1.264 1_556 S
C914 O893 1.281 . S
C915 Eu851 2.848 . S
C915 O890 1.257 . S
C915 O895 1.249 . S
C915 C908 1.492 . S
H916 C899 0.930 . S
H917 C900 0.930 . S
H918 C901 0.930 . S
H919 C902 0.930 . S
H920 C909 0.930 . S
H921 C911 0.930 . S
H922 C912 0.930 . S
H923 C913 0.930 . S
Eu924 N955 2.657 . S
Eu924 N962 2.609 . S
Eu924 O968 2.558 . S
Eu924 O969 2.612 . S
Eu924 O971 2.339 . S
Eu924 O972 2.563 . S
Eu924 O973 2.419 . S
Eu924 O975 2.380 . S
Eu924 O976 2.432 . S
Eu924 C988 2.848 . S
C925 C928 1.429 . S
C925 C929 1.411 . S
C925 N932 1.377 . S
C926 C928 1.420 . S
C926 C930 1.423 . S
C926 C938 1.392 . S
C927 C929 1.420 . S
C927 C930 1.351 . S
C927 H950 0.931 . S
C928 C925 1.429 . S
C928 C926 1.420 . S
C928 N936 1.362 . S
C929 C925 1.411 . S
C929 C927 1.420 . S
C929 C934 1.395 . S
C930 C926 1.423 . S
C930 C927 1.351 . S
C930 H942 0.930 . S
C931 C933 1.400 . S
C931 C934 1.386 . S
C931 H943 0.930 . S
N932 C925 1.377 . S
N932 C933 1.321 . S
N932 Eu935 2.609 . S
C933 C931 1.400 . S
C933 N932 1.321 . S
C933 H940 0.930 . S
C934 C929 1.395 . S
C934 C931 1.386 . S
C934 H953 0.930 . S
Eu935 N932 2.609 . S
Eu935 N936 2.657 . S
Eu935 O969 2.380 . S
Eu935 O970 2.432 . S
Eu935 O974 2.558 . S
Eu935 O975 2.612 . S
Eu935 O977 2.339 . S
Eu935 O978 2.563 . S
Eu935 O979 2.419 . S
Eu935 C999 2.848 . S
N936 C928 1.362 . S
N936 Eu935 2.657 . S
N936 C937 1.334 . S
C937 N936 1.334 . S
C937 C939 1.413 . S
C937 H944 0.929 . S
C938 C926 1.392 . S
C938 C939 1.367 . S
C938 H946 0.930 . S
C939 C937 1.413 . S
C939 C938 1.367 . S
C939 H941 0.930 . S
H940 C933 0.930 . S
H941 C939 0.930 . S
H942 C930 0.930 . S
H943 C931 0.930 . S
H944 C937 0.929 . S
H945 C959 0.930 . S
H946 C938 0.930 . S
H947 C965 0.930 . S
H948 C956 0.929 . S
H949 C963 0.930 . S
H950 C927 0.931 . S
H951 C957 0.930 . S
H952 C990 0.930 . S
H953 C934 0.930 . S
H954 C989 0.931 . S
N955 Eu924 2.657 . S
N955 C956 1.334 . S
N955 C960 1.362 . S
C956 H948 0.929 . S
C956 N955 1.334 . S
C956 C959 1.413 . S
C957 H951 0.930 . S
C957 C958 1.392 . S
C957 C959 1.367 . S
C958 C957 1.392 . S
C958 C960 1.420 . S
C958 C990 1.423 . S
C959 H945 0.930 . S
C959 C956 1.413 . S
C959 C957 1.367 . S
C960 N955 1.362 . S
C960 C958 1.420 . S
C960 C964 1.429 . S
H961 C966 0.930 . S
N962 Eu924 2.609 . S
N962 C964 1.377 . S
N962 C965 1.321 . S
C963 H949 0.930 . S
C963 C965 1.400 . S
C963 C966 1.386 . S
C964 C960 1.429 . S
C964 N962 1.377 . S
C964 C967 1.411 . S
C965 H947 0.930 . S
C965 N962 1.321 . S
C965 C963 1.400 . S
C966 H961 0.930 . S
C966 C963 1.386 . S
C966 C967 1.395 . S
C967 C964 1.411 . S
C967 C966 1.395 . S
C967 C989 1.420 . S
O968 Eu924 2.558 . S
O968 C988 1.257 . S
O969 Eu924 2.612 . S
O969 Eu935 2.380 . S
O969 C980 1.276 . S
O970 Eu935 2.432 . S
O970 C987 1.264 . S
O971 Eu924 2.339 . S
O971 C987 1.254 . S
O972 Eu924 2.563 . S
O972 C980 1.235 . S
O973 Eu924 2.419 . S
O973 C988 1.249 . S
O974 Eu935 2.558 . S
O974 C999 1.257 . S
O975 Eu924 2.380 . S
O975 Eu935 2.612 . S
O975 C991 1.276 . S
O976 Eu924 2.432 . S
O976 C998 1.264 . S
O977 Eu935 2.339 . S
O977 C998 1.254 . S
O978 Eu935 2.563 . S
O978 C991 1.235 . S
O979 Eu935 2.419 . S
O979 C999 1.249 . S
C980 O969 1.276 . S
C980 O972 1.235 . S
C981 C983 1.393 . S
C981 C985 1.395 . S
C981 C988 1.492 . S
C982 C983 1.392 . S
C982 C984 1.386 . S
C983 C981 1.393 . S
C983 C982 1.392 . S
C983 H1000 0.930 . S
C984 C982 1.386 . S
C984 C986 1.395 . S
C984 H1001 0.930 . S
C985 C981 1.395 . S
C985 C986 1.379 . S
C985 H1002 0.930 . S
C986 C984 1.395 . S
C986 C985 1.379 . S
C986 H1003 0.930 . S
C987 O970 1.264 . S
C987 O971 1.254 . S
C988 Eu924 2.848 . S
C988 O968 1.257 . S
C988 O973 1.249 . S
C988 C981 1.492 . S
C989 H954 0.931 . S
C989 C967 1.420 . S
C989 C990 1.351 . S
C990 H952 0.930 . S
C990 C958 1.423 . S
C990 C989 1.351 . S
C991 O975 1.276 . S
C991 O978 1.235 . S
C992 C993 1.393 . S
C992 C996 1.395 . S
C992 C999 1.492 . S
C993 C992 1.393 . S
C993 C994 1.392 . S
C993 H1004 0.930 . S
C994 C993 1.392 . S
C994 C995 1.386 . S
C995 C994 1.386 . S
C995 C997 1.395 . S
C995 H1005 0.930 . S
C996 C992 1.395 . S
C996 C997 1.379 . S
C996 H1006 0.930 . S
C997 C995 1.395 . S
C997 C996 1.379 . S
C997 H1007 0.930 . S
C998 O976 1.264 . S
C998 O977 1.254 . S
C999 Eu935 2.848 . S
C999 O974 1.257 . S
C999 O979 1.249 . S
C999 C992 1.492 . S
H1000 C983 0.930 . S
H1001 C984 0.930 . S
H1002 C985 0.930 . S
H1003 C986 0.930 . S
H1004 C993 0.930 . S
H1005 C995 0.930 . S
H1006 C996 0.930 . S
H1007 C997 0.930 . S
Eu1008 N1039 2.657 . S
Eu1008 N1046 2.609 . S
Eu1008 O1052 2.558 . S
Eu1008 O1053 2.612 1_554 S
Eu1008 O1055 2.339 . S
Eu1008 O1056 2.563 1_554 S
Eu1008 O1057 2.419 . S
Eu1008 O1059 2.380 . S
Eu1008 O1060 2.432 . S
Eu1008 C1072 2.848 . S
C1009 C1012 1.429 . S
C1009 C1013 1.411 . S
C1009 N1016 1.377 . S
C1010 C1012 1.420 . S
C1010 C1014 1.423 . S
C1010 C1022 1.392 . S
C1011 C1013 1.420 . S
C1011 C1014 1.351 . S
C1011 H1034 0.931 . S
C1012 C1009 1.429 . S
C1012 C1010 1.420 . S
C1012 N1020 1.362 . S
C1013 C1009 1.411 . S
C1013 C1011 1.420 . S
C1013 C1018 1.395 . S
C1014 C1010 1.423 . S
C1014 C1011 1.351 . S
C1014 H1026 0.930 . S
C1015 C1017 1.400 . S
C1015 C1018 1.386 . S
C1015 H1027 0.930 . S
N1016 C1009 1.377 . S
N1016 C1017 1.321 . S
N1016 Eu1019 2.609 1_556 S
C1017 C1015 1.400 . S
C1017 N1016 1.321 . S
C1017 H1024 0.930 . S
C1018 C1013 1.395 . S
C1018 C1015 1.386 . S
C1018 H1037 0.930 . S
Eu1019 N1016 2.609 1_554 S
Eu1019 N1020 2.657 1_554 S
Eu1019 O1053 2.380 1_554 S
Eu1019 O1054 2.432 . S
Eu1019 O1058 2.558 . S
Eu1019 O1059 2.612 . S
Eu1019 O1061 2.339 . S
Eu1019 O1062 2.563 . S
Eu1019 O1063 2.419 . S
Eu1019 C1083 2.848 . S
N1020 C1012 1.362 . S
N1020 Eu1019 2.657 1_556 S
N1020 C1021 1.334 . S
C1021 N1020 1.334 . S
C1021 C1023 1.413 . S
C1021 H1028 0.929 . S
C1022 C1010 1.392 . S
C1022 C1023 1.367 . S
C1022 H1030 0.930 . S
C1023 C1021 1.413 . S
C1023 C1022 1.367 . S
C1023 H1025 0.930 . S
H1024 C1017 0.930 . S
H1025 C1023 0.930 . S
H1026 C1014 0.930 . S
H1027 C1015 0.930 . S
H1028 C1021 0.929 . S
H1029 C1043 0.930 . S
H1030 C1022 0.930 . S
H1031 C1049 0.930 . S
H1032 C1040 0.929 . S
H1033 C1047 0.930 . S
H1034 C1011 0.931 . S
H1035 C1041 0.930 . S
H1036 C1074 0.930 . S
H1037 C1018 0.930 . S
H1038 C1073 0.931 . S
N1039 Eu1008 2.657 . S
N1039 C1040 1.334 . S
N1039 C1044 1.362 . S
C1040 H1032 0.929 . S
C1040 N1039 1.334 . S
C1040 C1043 1.413 . S
C1041 H1035 0.930 . S
C1041 C1042 1.392 . S
C1041 C1043 1.367 . S
C1042 C1041 1.392 . S
C1042 C1044 1.420 . S
C1042 C1074 1.423 . S
C1043 H1029 0.930 . S
C1043 C1040 1.413 . S
C1043 C1041 1.367 . S
C1044 N1039 1.362 . S
C1044 C1042 1.420 . S
C1044 C1048 1.429 . S
H1045 C1050 0.930 . S
N1046 Eu1008 2.609 . S
N1046 C1048 1.377 . S
N1046 C1049 1.321 . S
C1047 H1033 0.930 . S
C1047 C1049 1.400 . S
C1047 C1050 1.386 . S
C1048 C1044 1.429 . S
C1048 N1046 1.377 . S
C1048 C1051 1.411 . S
C1049 H1031 0.930 . S
C1049 N1046 1.321 . S
C1049 C1047 1.400 . S
C1050 H1045 0.930 . S
C1050 C1047 1.386 . S
C1050 C1051 1.395 . S
C1051 C1048 1.411 . S
C1051 C1050 1.395 . S
C1051 C1073 1.420 . S
O1052 Eu1008 2.558 . S
O1052 C1072 1.257 . S
O1053 Eu1008 2.612 1_556 S
O1053 Eu1019 2.380 1_556 S
O1053 C1064 1.276 . S
O1054 Eu1019 2.432 . S
O1054 C1071 1.264 . S
O1055 Eu1008 2.339 . S
O1055 C1071 1.254 . S
O1056 Eu1008 2.563 1_556 S
O1056 C1064 1.235 . S
O1057 Eu1008 2.419 . S
O1057 C1072 1.249 . S
O1058 Eu1019 2.558 . S
O1058 C1083 1.257 . S
O1059 Eu1008 2.380 . S
O1059 Eu1019 2.612 . S
O1059 C1075 1.276 . S
O1060 Eu1008 2.432 . S
O1060 C1082 1.264 . S
O1061 Eu1019 2.339 . S
O1061 C1082 1.254 . S
O1062 Eu1019 2.563 . S
O1062 C1075 1.235 . S
O1063 Eu1019 2.419 . S
O1063 C1083 1.249 . S
C1064 O1053 1.276 . S
C1064 O1056 1.235 . S
C1065 C1067 1.393 . S
C1065 C1069 1.395 . S
C1065 C1072 1.492 . S
C1066 C1067 1.392 1_556 S
C1066 C1068 1.386 1_556 S
C1067 C1065 1.393 . S
C1067 C1066 1.392 1_554 S
C1067 H1084 0.930 1_554 S
C1068 C1066 1.386 1_554 S
C1068 C1070 1.395 . S
C1068 H1085 0.930 . S
C1069 C1065 1.395 . S
C1069 C1070 1.379 . S
C1069 H1086 0.930 . S
C1070 C1068 1.395 . S
C1070 C1069 1.379 . S
C1070 H1087 0.930 . S
C1071 O1054 1.264 . S
C1071 O1055 1.254 . S
C1072 Eu1008 2.848 . S
C1072 O1052 1.257 . S
C1072 O1057 1.249 . S
C1072 C1065 1.492 . S
C1073 H1038 0.931 . S
C1073 C1051 1.420 . S
C1073 C1074 1.351 . S
C1074 H1036 0.930 . S
C1074 C1042 1.423 . S
C1074 C1073 1.351 . S
C1075 O1059 1.276 . S
C1075 O1062 1.235 . S
C1076 C1077 1.393 . S
C1076 C1080 1.395 . S
C1076 C1083 1.492 . S
C1077 C1076 1.393 . S
C1077 C1078 1.392 . S
C1077 H1088 0.930 . S
C1078 C1077 1.392 . S
C1078 C1079 1.386 . S
C1079 C1078 1.386 . S
C1079 C1081 1.395 . S
C1079 H1089 0.930 . S
C1080 C1076 1.395 . S
C1080 C1081 1.379 . S
C1080 H1090 0.930 1_554 S
C1081 C1079 1.395 . S
C1081 C1080 1.379 . S
C1081 H1091 0.930 . S
C1082 O1060 1.264 . S
C1082 O1061 1.254 . S
C1083 Eu1019 2.848 . S
C1083 O1058 1.257 . S
C1083 O1063 1.249 . S
C1083 C1076 1.492 . S
H1084 C1067 0.930 1_556 S
H1085 C1068 0.930 . S
H1086 C1069 0.930 . S
H1087 C1070 0.930 . S
H1088 C1077 0.930 . S
H1089 C1079 0.930 . S
H1090 C1080 0.930 1_556 S
H1091 C1081 0.930 . S
Eu1092 N1123 2.657 . S
Eu1092 N1130 2.609 . S
Eu1092 O1136 2.558 . S
Eu1092 O1137 2.612 . S
Eu1092 O1139 2.339 . S
Eu1092 O1140 2.563 . S
Eu1092 O1141 2.419 . S
Eu1092 O1143 2.380 . S
Eu1092 O1144 2.432 . S
Eu1092 C1156 2.848 . S
C1093 C1096 1.429 . S
C1093 C1097 1.411 . S
C1093 N1100 1.377 . S
C1094 C1096 1.420 . S
C1094 C1098 1.423 . S
C1094 C1106 1.392 . S
C1095 C1097 1.420 . S
C1095 C1098 1.351 . S
C1095 H1118 0.931 . S
C1096 C1093 1.429 . S
C1096 C1094 1.420 . S
C1096 N1104 1.362 . S
C1097 C1093 1.411 . S
C1097 C1095 1.420 . S
C1097 C1102 1.395 . S
C1098 C1094 1.423 . S
C1098 C1095 1.351 . S
C1098 H1110 0.930 . S
C1099 C1101 1.400 . S
C1099 C1102 1.386 . S
C1099 H1111 0.930 . S
N1100 C1093 1.377 . S
N1100 C1101 1.321 . S
N1100 Eu1103 2.609 . S
C1101 C1099 1.400 . S
C1101 N1100 1.321 . S
C1101 H1108 0.930 . S
C1102 C1097 1.395 . S
C1102 C1099 1.386 . S
C1102 H1121 0.930 . S
Eu1103 N1100 2.609 . S
Eu1103 N1104 2.657 . S
Eu1103 O1137 2.380 . S
Eu1103 O1138 2.432 . S
Eu1103 O1142 2.558 . S
Eu1103 O1143 2.612 . S
Eu1103 O1145 2.339 . S
Eu1103 O1146 2.563 . S
Eu1103 O1147 2.419 . S
Eu1103 C1167 2.848 . S
N1104 C1096 1.362 . S
N1104 Eu1103 2.657 . S
N1104 C1105 1.334 . S
C1105 N1104 1.334 . S
C1105 C1107 1.413 . S
C1105 H1112 0.929 . S
C1106 C1094 1.392 . S
C1106 C1107 1.367 . S
C1106 H1114 0.930 . S
C1107 C1105 1.413 . S
C1107 C1106 1.367 . S
C1107 H1109 0.930 . S
H1108 C1101 0.930 . S
H1109 C1107 0.930 . S
H1110 C1098 0.930 . S
H1111 C1099 0.930 . S
H1112 C1105 0.929 . S
H1113 C1127 0.930 . S
H1114 C1106 0.930 . S
H1115 C1133 0.930 . S
H1116 C1124 0.929 . S
H1117 C1131 0.930 . S
H1118 C1095 0.931 . S
H1119 C1125 0.930 . S
H1120 C1158 0.930 . S
H1121 C1102 0.930 . S
H1122 C1157 0.931 . S
N1123 Eu1092 2.657 . S
N1123 C1124 1.334 . S
N1123 C1128 1.362 . S
C1124 H1116 0.929 . S
C1124 N1123 1.334 . S
C1124 C1127 1.413 . S
C1125 H1119 0.930 . S
C1125 C1126 1.392 . S
C1125 C1127 1.367 . S
C1126 C1125 1.392 . S
C1126 C1128 1.420 . S
C1126 C1158 1.423 . S
C1127 H1113 0.930 . S
C1127 C1124 1.413 . S
C1127 C1125 1.367 . S
C1128 N1123 1.362 . S
C1128 C1126 1.420 . S
C1128 C1132 1.429 . S
H1129 C1134 0.930 . S
N1130 Eu1092 2.609 . S
N1130 C1132 1.377 . S
N1130 C1133 1.321 . S
C1131 H1117 0.930 . S
C1131 C1133 1.400 . S
C1131 C1134 1.386 . S
C1132 C1128 1.429 . S
C1132 N1130 1.377 . S
C1132 C1135 1.411 . S
C1133 H1115 0.930 . S
C1133 N1130 1.321 . S
C1133 C1131 1.400 . S
C1134 H1129 0.930 . S
C1134 C1131 1.386 . S
C1134 C1135 1.395 . S
C1135 C1132 1.411 . S
C1135 C1134 1.395 . S
C1135 C1157 1.420 . S
O1136 Eu1092 2.558 . S
O1136 C1156 1.257 . S
O1137 Eu1092 2.612 . S
O1137 Eu1103 2.380 . S
O1137 C1148 1.276 . S
O1138 Eu1103 2.432 . S
O1138 C1155 1.264 . S
O1139 Eu1092 2.339 . S
O1139 C1155 1.254 . S
O1140 Eu1092 2.563 . S
O1140 C1148 1.235 . S
O1141 Eu1092 2.419 . S
O1141 C1156 1.249 . S
O1142 Eu1103 2.558 . S
O1142 C1167 1.257 . S
O1143 Eu1092 2.380 . S
O1143 Eu1103 2.612 . S
O1143 C1159 1.276 . S
O1144 Eu1092 2.432 . S
O1144 C1166 1.264 . S
O1145 Eu1103 2.339 . S
O1145 C1166 1.254 . S
O1146 Eu1103 2.563 . S
O1146 C1159 1.235 . S
O1147 Eu1103 2.419 . S
O1147 C1167 1.249 . S
C1148 O1137 1.276 . S
C1148 O1140 1.235 . S
C1149 C1151 1.393 . S
C1149 C1153 1.395 . S
C1149 C1156 1.492 . S
C1150 C1151 1.392 . S
C1150 C1152 1.386 1_655 S
C1151 C1149 1.393 . S
C1151 C1150 1.392 . S
C1151 H1168 0.930 . S
C1152 C1150 1.386 1_455 S
C1152 C1154 1.396 1_455 S
C1152 H1169 0.930 . S
C1153 C1149 1.395 . S
C1153 C1154 1.375 . S
C1153 H1170 0.930 . S
C1154 C1152 1.396 1_655 S
C1154 C1153 1.375 . S
C1154 H1171 0.932 1_655 S
C1155 O1138 1.264 . S
C1155 O1139 1.254 . S
C1156 Eu1092 2.848 . S
C1156 O1136 1.257 . S
C1156 O1141 1.249 . S
C1156 C1149 1.492 . S
C1157 H1122 0.931 . S
C1157 C1135 1.420 . S
C1157 C1158 1.351 . S
C1158 H1120 0.930 . S
C1158 C1126 1.423 . S
C1158 C1157 1.351 . S
C1159 O1143 1.276 . S
C1159 O1146 1.235 . S
C1160 C1161 1.393 . S
C1160 C1164 1.395 . S
C1160 C1167 1.492 . S
C1161 C1160 1.393 . S
C1161 C1162 1.392 . S
C1161 H1172 0.930 . S
C1162 C1161 1.392 . S
C1162 C1163 1.386 . S
C1163 C1162 1.386 . S
C1163 C1165 1.395 . S
C1163 H1173 0.930 . S
C1164 C1160 1.395 . S
C1164 C1165 1.379 . S
C1164 H1174 0.930 . S
C1165 C1163 1.395 . S
C1165 C1164 1.379 . S
C1165 H1175 0.930 . S
C1166 O1144 1.264 . S
C1166 O1145 1.254 . S
C1167 Eu1103 2.848 . S
C1167 O1142 1.257 . S
C1167 O1147 1.249 . S
C1167 C1160 1.492 . S
H1168 C1151 0.930 . S
H1169 C1152 0.930 . S
H1170 C1153 0.930 . S
H1171 C1154 0.932 1_455 S
H1172 C1161 0.930 . S
H1173 C1163 0.930 . S
H1174 C1164 0.930 . S
H1175 C1165 0.930 . S
Eu1176 N1207 2.657 . S
Eu1176 N1214 2.609 . S
Eu1176 O1220 2.558 . S
Eu1176 O1221 2.612 . S
Eu1176 O1223 2.339 . S
Eu1176 O1224 2.563 . S
Eu1176 O1225 2.419 . S
Eu1176 O1227 2.380 . S
Eu1176 O1228 2.432 . S
Eu1176 C1240 2.848 . S
C1177 C1180 1.430 1_455 S
C1177 C1181 1.411 1_455 S
C1177 N1184 1.377 . S
C1178 C1180 1.425 . S
C1178 C1182 1.423 . S
C1178 C1190 1.392 . S
C1179 C1181 1.420 . S
C1179 C1182 1.351 . S
C1179 H1202 0.931 . S
C1180 C1177 1.430 1_655 S
C1180 C1178 1.425 . S
C1180 N1188 1.356 1_655 S
C1181 C1177 1.411 1_655 S
C1181 C1179 1.420 . S
C1181 C1186 1.395 . S
C1182 C1178 1.423 . S
C1182 C1179 1.351 . S
C1182 H1194 0.930 . S
C1183 C1185 1.400 . S
C1183 C1186 1.386 1_455 S
C1183 H1195 0.930 . S
N1184 C1177 1.377 . S
N1184 C1185 1.321 . S
N1184 Eu1187 2.609 . S
C1185 C1183 1.400 . S
C1185 N1184 1.321 . S
C1185 H1192 0.930 . S
C1186 C1181 1.395 . S
C1186 C1183 1.386 1_655 S
C1186 H1205 0.930 . S
Eu1187 N1184 2.609 . S
Eu1187 N1188 2.657 . S
Eu1187 O1221 2.380 . S
Eu1187 O1222 2.432 . S
Eu1187 O1226 2.558 . S
Eu1187 O1227 2.612 . S
Eu1187 O1229 2.339 . S
Eu1187 O1230 2.563 . S
Eu1187 O1231 2.419 . S
Eu1187 C1251 2.848 . S
N1188 C1180 1.356 1_455 S
N1188 Eu1187 2.657 . S
N1188 C1189 1.334 . S
C1189 N1188 1.334 . S
C1189 C1191 1.413 1_455 S
C1189 H1196 0.929 . S
C1190 C1178 1.392 . S
C1190 C1191 1.367 . S
C1190 H1198 0.930 . S
C1191 C1189 1.413 1_655 S
C1191 C1190 1.367 . S
C1191 H1193 0.930 . S
H1192 C1185 0.930 . S
H1193 C1191 0.930 . S
H1194 C1182 0.930 . S
H1195 C1183 0.930 . S
H1196 C1189 0.929 . S
H1197 C1211 0.930 . S
H1198 C1190 0.930 . S
H1199 C1217 0.930 . S
H1200 C1208 0.929 . S
H1201 C1215 0.930 . S
H1202 C1179 0.931 . S
H1203 C1209 0.930 . S
H1204 C1242 0.930 . S
H1205 C1186 0.930 . S
H1206 C1241 0.931 . S
N1207 Eu1176 2.657 . S
N1207 C1208 1.334 . S
N1207 C1212 1.362 . S
C1208 H1200 0.929 . S
C1208 N1207 1.334 . S
C1208 C1211 1.413 . S
C1209 H1203 0.930 . S
C1209 C1210 1.392 . S
C1209 C1211 1.367 . S
C1210 C1209 1.392 . S
C1210 C1212 1.420 . S
C1210 C1242 1.423 . S
C1211 H1197 0.930 . S
C1211 C1208 1.413 . S
C1211 C1209 1.367 . S
C1212 N1207 1.362 . S
C1212 C1210 1.420 . S
C1212 C1216 1.429 . S
H1213 C1218 0.930 . S
N1214 Eu1176 2.609 . S
N1214 C1216 1.377 . S
N1214 C1217 1.321 . S
C1215 H1201 0.930 . S
C1215 C1217 1.400 . S
C1215 C1218 1.386 . S
C1216 C1212 1.429 . S
C1216 N1214 1.377 . S
C1216 C1219 1.411 . S
C1217 H1199 0.930 . S
C1217 N1214 1.321 . S
C1217 C1215 1.400 . S
C1218 H1213 0.930 . S
C1218 C1215 1.386 . S
C1218 C1219 1.395 . S
C1219 C1216 1.411 . S
C1219 C1218 1.395 . S
C1219 C1241 1.420 . S
O1220 Eu1176 2.558 . S
O1220 C1240 1.257 . S
O1221 Eu1176 2.612 . S
O1221 Eu1187 2.380 . S
O1221 C1232 1.276 . S
O1222 Eu1187 2.432 . S
O1222 C1239 1.264 . S
O1223 Eu1176 2.339 . S
O1223 C1239 1.254 . S
O1224 Eu1176 2.563 . S
O1224 C1232 1.235 . S
O1225 Eu1176 2.419 . S
O1225 C1240 1.249 . S
O1226 Eu1187 2.558 . S
O1226 C1251 1.257 . S
O1227 Eu1176 2.380 . S
O1227 Eu1187 2.612 . S
O1227 C1243 1.276 . S
O1228 Eu1176 2.432 . S
O1228 C1250 1.264 . S
O1229 Eu1187 2.339 . S
O1229 C1250 1.254 . S
O1230 Eu1187 2.563 . S
O1230 C1243 1.235 . S
O1231 Eu1187 2.419 . S
O1231 C1251 1.249 . S
C1232 O1221 1.276 . S
C1232 O1224 1.235 . S
C1233 C1235 1.393 . S
C1233 C1237 1.395 . S
C1233 C1240 1.492 . S
C1234 C1235 1.392 . S
C1234 C1236 1.386 . S
C1235 C1233 1.393 . S
C1235 C1234 1.392 . S
C1235 H1252 0.930 . S
C1236 C1234 1.386 . S
C1236 C1238 1.395 . S
C1236 H1253 0.945 . S
C1237 C1233 1.395 . S
C1237 C1238 1.379 . S
C1237 H1254 0.930 . S
C1238 C1236 1.395 . S
C1238 C1237 1.379 . S
C1238 H1255 0.930 . S
C1239 O1222 1.264 . S
C1239 O1223 1.254 . S
C1240 Eu1176 2.848 . S
C1240 O1220 1.257 . S
C1240 O1225 1.249 . S
C1240 C1233 1.492 . S
C1241 H1206 0.931 . S
C1241 C1219 1.420 . S
C1241 C1242 1.351 . S
C1242 H1204 0.930 . S
C1242 C1210 1.423 . S
C1242 C1241 1.351 . S
C1243 O1227 1.276 . S
C1243 O1230 1.235 . S
C1244 C1245 1.393 . S
C1244 C1248 1.395 . S
C1244 C1251 1.492 . S
C1245 C1244 1.393 . S
C1245 C1246 1.392 . S
C1245 H1256 0.930 . S
C1246 C1245 1.392 . S
C1246 C1247 1.386 . S
C1247 C1246 1.386 . S
C1247 C1249 1.395 . S
C1247 H1257 0.930 . S
C1248 C1244 1.395 . S
C1248 C1249 1.379 . S
C1248 H1258 0.930 . S
C1249 C1247 1.395 . S
C1249 C1248 1.379 . S
C1249 H1259 0.930 . S
C1250 O1228 1.264 . S
C1250 O1229 1.254 . S
C1251 Eu1187 2.848 . S
C1251 O1226 1.257 . S
C1251 O1231 1.249 . S
C1251 C1244 1.492 . S
H1252 C1235 0.930 . S
H1253 C1236 0.945 . S
H1254 C1237 0.930 . S
H1255 C1238 0.930 . S
H1256 C1245 0.930 . S
H1257 C1247 0.930 . S
H1258 C1248 0.930 . S
H1259 C1249 0.930 . S
Eu1260 N1291 2.657 . S
Eu1260 N1298 2.609 . S
Eu1260 O1304 2.558 . S
Eu1260 O1305 2.612 . S
Eu1260 O1307 2.339 . S
Eu1260 O1308 2.563 . S
Eu1260 O1309 2.419 . S
Eu1260 O1311 2.380 . S
Eu1260 O1312 2.432 . S
Eu1260 C1324 2.848 . S
C1261 C1264 1.429 . S
C1261 C1265 1.411 . S
C1261 N1268 1.377 . S
C1262 C1264 1.420 . S
C1262 C1266 1.423 . S
C1262 C1274 1.392 . S
C1263 C1265 1.420 . S
C1263 C1266 1.351 . S
C1263 H1286 0.931 . S
C1264 C1261 1.429 . S
C1264 C1262 1.420 . S
C1264 N1272 1.362 . S
C1265 C1261 1.411 . S
C1265 C1263 1.420 . S
C1265 C1270 1.395 . S
C1266 C1262 1.423 . S
C1266 C1263 1.351 . S
C1266 H1278 0.930 . S
C1267 C1269 1.400 . S
C1267 C1270 1.386 . S
C1267 H1279 0.930 . S
N1268 C1261 1.377 . S
N1268 C1269 1.321 . S
N1268 Eu1271 2.609 . S
C1269 C1267 1.400 . S
C1269 N1268 1.321 . S
C1269 H1276 0.930 . S
C1270 C1265 1.395 . S
C1270 C1267 1.386 . S
C1270 H1289 0.930 . S
Eu1271 N1268 2.609 . S
Eu1271 N1272 2.657 . S
Eu1271 O1305 2.380 . S
Eu1271 O1306 2.432 . S
Eu1271 O1310 2.558 . S
Eu1271 O1311 2.612 . S
Eu1271 O1313 2.339 . S
Eu1271 O1314 2.563 . S
Eu1271 O1315 2.419 . S
Eu1271 C1335 2.848 . S
N1272 C1264 1.362 . S
N1272 Eu1271 2.657 . S
N1272 C1273 1.334 . S
C1273 N1272 1.334 . S
C1273 C1275 1.413 . S
C1273 H1280 0.929 . S
C1274 C1262 1.392 . S
C1274 C1275 1.367 . S
C1274 H1282 0.930 . S
C1275 C1273 1.413 . S
C1275 C1274 1.367 . S
C1275 H1277 0.930 . S
H1276 C1269 0.930 . S
H1277 C1275 0.930 . S
H1278 C1266 0.930 . S
H1279 C1267 0.930 . S
H1280 C1273 0.929 . S
H1281 C1295 0.930 . S
H1282 C1274 0.930 . S
H1283 C1301 0.930 . S
H1284 C1292 0.929 . S
H1285 C1299 0.930 . S
H1286 C1263 0.931 . S
H1287 C1293 0.930 . S
H1288 C1326 0.930 . S
H1289 C1270 0.930 . S
H1290 C1325 0.931 . S
N1291 Eu1260 2.657 . S
N1291 C1292 1.334 . S
N1291 C1296 1.362 . S
C1292 H1284 0.929 . S
C1292 N1291 1.334 . S
C1292 C1295 1.413 . S
C1293 H1287 0.930 . S
C1293 C1294 1.392 . S
C1293 C1295 1.367 . S
C1294 C1293 1.392 . S
C1294 C1296 1.420 . S
C1294 C1326 1.423 . S
C1295 H1281 0.930 . S
C1295 C1292 1.413 . S
C1295 C1293 1.367 . S
C1296 N1291 1.362 . S
C1296 C1294 1.420 . S
C1296 C1300 1.429 . S
H1297 C1302 0.930 . S
N1298 Eu1260 2.609 . S
N1298 C1300 1.377 . S
N1298 C1301 1.321 . S
C1299 H1285 0.930 . S
C1299 C1301 1.400 . S
C1299 C1302 1.386 . S
C1300 C1296 1.429 . S
C1300 N1298 1.377 . S
C1300 C1303 1.411 . S
C1301 H1283 0.930 . S
C1301 N1298 1.321 . S
C1301 C1299 1.400 . S
C1302 H1297 0.930 . S
C1302 C1299 1.386 . S
C1302 C1303 1.395 . S
C1303 C1300 1.411 . S
C1303 C1302 1.395 . S
C1303 C1325 1.420 . S
O1304 Eu1260 2.558 . S
O1304 C1324 1.257 . S
O1305 Eu1260 2.612 . S
O1305 Eu1271 2.380 . S
O1305 C1316 1.276 . S
O1306 Eu1271 2.432 . S
O1306 C1323 1.264 . S
O1307 Eu1260 2.339 . S
O1307 C1323 1.254 . S
O1308 Eu1260 2.563 . S
O1308 C1316 1.235 . S
O1309 Eu1260 2.419 . S
O1309 C1324 1.249 . S
O1310 Eu1271 2.558 . S
O1310 C1335 1.257 . S
O1311 Eu1260 2.380 . S
O1311 Eu1271 2.612 . S
O1311 C1327 1.276 . S
O1312 Eu1260 2.432 . S
O1312 C1334 1.264 . S
O1313 Eu1271 2.339 . S
O1313 C1334 1.254 . S
O1314 Eu1271 2.563 . S
O1314 C1327 1.235 . S
O1315 Eu1271 2.419 . S
O1315 C1335 1.249 . S
C1316 O1305 1.276 . S
C1316 O1308 1.235 . S
C1317 C1319 1.393 . S
C1317 C1321 1.395 . S
C1317 C1324 1.492 . S
C1318 C1319 1.392 . S
C1318 C1320 1.386 . S
C1319 C1317 1.393 . S
C1319 C1318 1.392 . S
C1319 H1336 0.930 . S
C1320 C1318 1.386 . S
C1320 C1322 1.395 . S
C1320 H1337 0.930 . S
C1321 C1317 1.395 . S
C1321 C1322 1.379 . S
C1321 H1338 0.930 . S
C1322 C1320 1.395 . S
C1322 C1321 1.379 . S
C1322 H1339 0.930 . S
C1323 O1306 1.264 . S
C1323 O1307 1.254 . S
C1324 Eu1260 2.848 . S
C1324 O1304 1.257 . S
C1324 O1309 1.249 . S
C1324 C1317 1.492 . S
C1325 H1290 0.931 . S
C1325 C1303 1.420 . S
C1325 C1326 1.351 . S
C1326 H1288 0.930 . S
C1326 C1294 1.423 . S
C1326 C1325 1.351 . S
C1327 O1311 1.276 . S
C1327 O1314 1.235 . S
C1328 C1329 1.393 . S
C1328 C1332 1.395 . S
C1328 C1335 1.492 . S
C1329 C1328 1.393 . S
C1329 C1330 1.392 . S
C1329 H1340 0.930 . S
C1330 C1329 1.392 . S
C1330 C1331 1.386 . S
C1331 C1330 1.386 . S
C1331 C1333 1.395 . S
C1331 H1341 0.954 . S
C1332 C1328 1.395 . S
C1332 C1333 1.379 . S
C1332 H1342 0.930 . S
C1333 C1331 1.395 . S
C1333 C1332 1.379 . S
C1333 H1343 0.930 . S
C1334 O1312 1.264 . S
C1334 O1313 1.254 . S
C1335 Eu1271 2.848 . S
C1335 O1310 1.257 . S
C1335 O1315 1.249 . S
C1335 C1328 1.492 . S
H1336 C1319 0.930 . S
H1337 C1320 0.930 . S
H1338 C1321 0.930 . S
H1339 C1322 0.930 . S
H1340 C1329 0.930 . S
H1341 C1331 0.954 . S
H1342 C1332 0.930 . S
H1343 C1333 0.930 . S
Eu1344 N1375 2.657 . S
Eu1344 N1382 2.609 . S
Eu1344 O1388 2.558 . S
Eu1344 O1389 2.612 . S
Eu1344 O1391 2.339 . S
Eu1344 O1392 2.563 . S
Eu1344 O1393 2.419 . S
Eu1344 O1395 2.380 . S
Eu1344 O1396 2.432 . S
Eu1344 C1408 2.848 . S
C1345 C1348 1.429 . S
C1345 C1349 1.411 . S
C1345 N1352 1.377 . S
C1346 C1348 1.420 . S
C1346 C1350 1.423 . S
C1346 C1358 1.392 . S
C1347 C1349 1.420 . S
C1347 C1350 1.351 . S
C1347 H1370 0.931 . S
C1348 C1345 1.429 . S
C1348 C1346 1.420 . S
C1348 N1356 1.362 . S
C1349 C1345 1.411 . S
C1349 C1347 1.420 . S
C1349 C1354 1.395 . S
C1350 C1346 1.423 . S
C1350 C1347 1.351 . S
C1350 H1362 0.930 . S
C1351 C1353 1.400 . S
C1351 C1354 1.386 . S
C1351 H1363 0.930 . S
N1352 C1345 1.377 . S
N1352 C1353 1.321 . S
N1352 Eu1355 2.609 . S
C1353 C1351 1.400 . S
C1353 N1352 1.321 . S
C1353 H1360 0.930 . S
C1354 C1349 1.395 . S
C1354 C1351 1.386 . S
C1354 H1373 0.930 . S
Eu1355 N1352 2.609 . S
Eu1355 N1356 2.657 . S
Eu1355 O1389 2.380 . S
Eu1355 O1390 2.432 . S
Eu1355 O1394 2.558 . S
Eu1355 O1395 2.612 . S
Eu1355 O1397 2.339 . S
Eu1355 O1398 2.563 . S
Eu1355 O1399 2.419 . S
Eu1355 C1419 2.848 . S
N1356 C1348 1.362 . S
N1356 Eu1355 2.657 . S
N1356 C1357 1.334 . S
C1357 N1356 1.334 . S
C1357 C1359 1.413 . S
C1357 H1364 0.929 . S
C1358 C1346 1.392 . S
C1358 C1359 1.367 . S
C1358 H1366 0.930 . S
C1359 C1357 1.413 . S
C1359 C1358 1.367 . S
C1359 H1361 0.930 . S
H1360 C1353 0.930 . S
H1361 C1359 0.930 . S
H1362 C1350 0.930 . S
H1363 C1351 0.930 . S
H1364 C1357 0.929 . S
H1365 C1379 0.930 . S
H1366 C1358 0.930 . S
H1367 C1385 0.930 . S
H1368 C1376 0.929 . S
H1369 C1383 0.930 . S
H1370 C1347 0.931 . S
H1371 C1377 0.930 . S
H1372 C1410 0.930 . S
H1373 C1354 0.930 . S
H1374 C1409 0.931 . S
N1375 Eu1344 2.657 . S
N1375 C1376 1.334 . S
N1375 C1380 1.362 . S
C1376 H1368 0.929 . S
C1376 N1375 1.334 . S
C1376 C1379 1.413 . S
C1377 H1371 0.930 . S
C1377 C1378 1.392 . S
C1377 C1379 1.367 . S
C1378 C1377 1.392 . S
C1378 C1380 1.420 . S
C1378 C1410 1.423 . S
C1379 H1365 0.930 . S
C1379 C1376 1.413 . S
C1379 C1377 1.367 . S
C1380 N1375 1.362 . S
C1380 C1378 1.420 . S
C1380 C1384 1.429 . S
H1381 C1386 0.930 . S
N1382 Eu1344 2.609 . S
N1382 C1384 1.377 . S
N1382 C1385 1.321 . S
C1383 H1369 0.930 . S
C1383 C1385 1.400 . S
C1383 C1386 1.386 . S
C1384 C1380 1.429 . S
C1384 N1382 1.377 . S
C1384 C1387 1.411 . S
C1385 H1367 0.930 . S
C1385 N1382 1.321 . S
C1385 C1383 1.400 . S
C1386 H1381 0.930 . S
C1386 C1383 1.386 . S
C1386 C1387 1.395 . S
C1387 C1384 1.411 . S
C1387 C1386 1.395 . S
C1387 C1409 1.420 . S
O1388 Eu1344 2.558 . S
O1388 C1408 1.257 . S
O1389 Eu1344 2.612 . S
O1389 Eu1355 2.380 . S
O1389 C1400 1.276 . S
O1390 Eu1355 2.432 . S
O1390 C1407 1.264 . S
O1391 Eu1344 2.339 . S
O1391 C1407 1.254 . S
O1392 Eu1344 2.563 . S
O1392 C1400 1.235 . S
O1393 Eu1344 2.419 . S
O1393 C1408 1.249 . S
O1394 Eu1355 2.558 . S
O1394 C1419 1.257 . S
O1395 Eu1344 2.380 . S
O1395 Eu1355 2.612 . S
O1395 C1411 1.276 . S
O1396 Eu1344 2.432 . S
O1396 C1418 1.264 . S
O1397 Eu1355 2.339 . S
O1397 C1418 1.254 . S
O1398 Eu1355 2.563 . S
O1398 C1411 1.235 . S
O1399 Eu1355 2.419 . S
O1399 C1419 1.249 . S
C1400 O1389 1.276 . S
C1400 O1392 1.235 . S
C1401 C1403 1.393 . S
C1401 C1405 1.395 . S
C1401 C1408 1.492 . S
C1402 C1403 1.392 . S
C1402 C1404 1.386 . S
C1403 C1401 1.393 . S
C1403 C1402 1.392 . S
C1403 H1420 0.930 . S
C1404 C1402 1.386 . S
C1404 C1406 1.395 . S
C1404 H1421 0.930 . S
C1405 C1401 1.395 . S
C1405 C1406 1.379 . S
C1405 H1422 0.930 . S
C1406 C1404 1.395 . S
C1406 C1405 1.379 . S
C1406 H1423 0.930 . S
C1407 O1390 1.264 . S
C1407 O1391 1.254 . S
C1408 Eu1344 2.848 . S
C1408 O1388 1.257 . S
C1408 O1393 1.249 . S
C1408 C1401 1.492 . S
C1409 H1374 0.931 . S
C1409 C1387 1.420 . S
C1409 C1410 1.351 . S
C1410 H1372 0.930 . S
C1410 C1378 1.423 . S
C1410 C1409 1.351 . S
C1411 O1395 1.276 . S
C1411 O1398 1.235 . S
C1412 C1413 1.393 . S
C1412 C1416 1.395 . S
C1412 C1419 1.492 . S
C1413 C1412 1.393 . S
C1413 C1414 1.392 . S
C1413 H1424 0.930 . S
C1414 C1413 1.392 . S
C1414 C1415 1.386 . S
C1415 C1414 1.386 . S
C1415 C1417 1.395 . S
C1415 H1425 0.930 . S
C1416 C1412 1.395 . S
C1416 C1417 1.379 . S
C1416 H1426 0.930 . S
C1417 C1415 1.395 . S
C1417 C1416 1.379 . S
C1417 H1427 0.930 . S
C1418 O1396 1.264 . S
C1418 O1397 1.254 . S
C1419 Eu1355 2.848 . S
C1419 O1394 1.257 . S
C1419 O1399 1.249 . S
C1419 C1412 1.492 . S
H1420 C1403 0.930 . S
H1421 C1404 0.930 . S
H1422 C1405 0.930 . S
H1423 C1406 0.930 . S
H1424 C1413 0.930 . S
H1425 C1415 0.930 . S
H1426 C1416 0.930 . S
H1427 C1417 0.930 . S
Eu1428 N1459 2.657 . S
Eu1428 N1466 2.609 . S
Eu1428 O1472 2.558 . S
Eu1428 O1473 2.612 . S
Eu1428 O1475 2.339 . S
Eu1428 O1476 2.563 . S
Eu1428 O1477 2.419 . S
Eu1428 O1479 2.380 . S
Eu1428 O1480 2.432 . S
Eu1428 C1492 2.848 . S
C1429 C1432 1.429 . S
C1429 C1433 1.411 . S
C1429 N1436 1.377 . S
C1430 C1432 1.420 . S
C1430 C1434 1.423 . S
C1430 C1442 1.392 . S
C1431 C1433 1.420 . S
C1431 C1434 1.351 . S
C1431 H1454 0.931 . S
C1432 C1429 1.429 . S
C1432 C1430 1.420 . S
C1432 N1440 1.362 . S
C1433 C1429 1.411 . S
C1433 C1431 1.420 . S
C1433 C1438 1.395 . S
C1434 C1430 1.423 . S
C1434 C1431 1.351 . S
C1434 H1446 0.930 . S
C1435 C1437 1.400 . S
C1435 C1438 1.386 . S
C1435 H1447 0.930 . S
N1436 C1429 1.377 . S
N1436 C1437 1.321 . S
N1436 Eu1439 2.609 . S
C1437 C1435 1.400 . S
C1437 N1436 1.321 . S
C1437 H1444 0.930 . S
C1438 C1433 1.395 . S
C1438 C1435 1.386 . S
C1438 H1457 0.930 . S
Eu1439 N1436 2.609 . S
Eu1439 N1440 2.657 . S
Eu1439 O1473 2.380 . S
Eu1439 O1474 2.432 . S
Eu1439 O1478 2.558 . S
Eu1439 O1479 2.612 . S
Eu1439 O1481 2.339 . S
Eu1439 O1482 2.563 . S
Eu1439 O1483 2.419 . S
Eu1439 C1503 2.848 . S
N1440 C1432 1.362 . S
N1440 Eu1439 2.657 . S
N1440 C1441 1.334 . S
C1441 N1440 1.334 . S
C1441 C1443 1.413 . S
C1441 H1448 0.929 . S
C1442 C1430 1.392 . S
C1442 C1443 1.367 . S
C1442 H1450 0.930 . S
C1443 C1441 1.413 . S
C1443 C1442 1.367 . S
C1443 H1445 0.930 . S
H1444 C1437 0.930 . S
H1445 C1443 0.930 . S
H1446 C1434 0.930 . S
H1447 C1435 0.930 . S
H1448 C1441 0.929 . S
H1449 C1463 0.930 . S
H1450 C1442 0.930 . S
H1451 C1469 0.930 . S
H1452 C1460 0.929 . S
H1453 C1467 0.930 . S
H1454 C1431 0.931 . S
H1455 C1461 0.930 . S
H1456 C1494 0.930 . S
H1457 C1438 0.930 . S
H1458 C1493 0.931 . S
N1459 Eu1428 2.657 . S
N1459 C1460 1.334 . S
N1459 C1464 1.362 . S
C1460 H1452 0.929 . S
C1460 N1459 1.334 . S
C1460 C1463 1.413 . S
C1461 H1455 0.930 . S
C1461 C1462 1.392 . S
C1461 C1463 1.367 . S
C1462 C1461 1.392 . S
C1462 C1464 1.420 . S
C1462 C1494 1.423 . S
C1463 H1449 0.930 . S
C1463 C1460 1.413 . S
C1463 C1461 1.367 . S
C1464 N1459 1.362 . S
C1464 C1462 1.420 . S
C1464 C1468 1.429 . S
H1465 C1470 0.930 . S
N1466 Eu1428 2.609 . S
N1466 C1468 1.377 . S
N1466 C1469 1.321 . S
C1467 H1453 0.930 . S
C1467 C1469 1.400 . S
C1467 C1470 1.386 . S
C1468 C1464 1.429 . S
C1468 N1466 1.377 . S
C1468 C1471 1.411 . S
C1469 H1451 0.930 . S
C1469 N1466 1.321 . S
C1469 C1467 1.400 . S
C1470 H1465 0.930 . S
C1470 C1467 1.386 . S
C1470 C1471 1.395 . S
C1471 C1468 1.411 . S
C1471 C1470 1.395 . S
C1471 C1493 1.420 . S
O1472 Eu1428 2.558 . S
O1472 C1492 1.257 . S
O1473 Eu1428 2.612 . S
O1473 Eu1439 2.380 . S
O1473 C1484 1.276 . S
O1474 Eu1439 2.432 . S
O1474 C1491 1.264 . S
O1475 Eu1428 2.339 . S
O1475 C1491 1.254 . S
O1476 Eu1428 2.563 . S
O1476 C1484 1.235 . S
O1477 Eu1428 2.419 . S
O1477 C1492 1.249 . S
O1478 Eu1439 2.558 . S
O1478 C1503 1.257 . S
O1479 Eu1428 2.380 . S
O1479 Eu1439 2.612 . S
O1479 C1495 1.276 . S
O1480 Eu1428 2.432 . S
O1480 C1502 1.264 . S
O1481 Eu1439 2.339 . S
O1481 C1502 1.254 . S
O1482 Eu1439 2.563 . S
O1482 C1495 1.235 . S
O1483 Eu1439 2.419 . S
O1483 C1503 1.249 . S
C1484 O1473 1.276 . S
C1484 O1476 1.235 . S
C1485 C1487 1.393 . S
C1485 C1489 1.395 . S
C1485 C1492 1.492 . S
C1486 C1487 1.392 . S
C1486 C1488 1.386 . S
C1487 C1485 1.393 . S
C1487 C1486 1.392 . S
C1487 H1504 0.930 . S
C1488 C1486 1.386 . S
C1488 C1490 1.395 . S
C1488 H1505 0.930 1_565 S
C1489 C1485 1.395 . S
C1489 C1490 1.379 . S
C1489 H1506 0.930 . S
C1490 C1488 1.395 . S
C1490 C1489 1.379 . S
C1490 H1507 0.930 . S
C1491 O1474 1.264 . S
C1491 O1475 1.254 . S
C1492 Eu1428 2.848 . S
C1492 O1472 1.257 . S
C1492 O1477 1.249 . S
C1492 C1485 1.492 . S
C1493 H1458 0.931 . S
C1493 C1471 1.420 . S
C1493 C1494 1.351 . S
C1494 H1456 0.930 . S
C1494 C1462 1.423 . S
C1494 C1493 1.351 . S
C1495 O1479 1.276 . S
C1495 O1482 1.235 . S
C1496 C1497 1.393 . S
C1496 C1500 1.395 . S
C1496 C1503 1.492 . S
C1497 C1496 1.393 . S
C1497 C1498 1.392 . S
C1497 H1508 0.930 . S
C1498 C1497 1.392 . S
C1498 C1499 1.386 . S
C1499 C1498 1.386 . S
C1499 C1501 1.395 . S
C1499 H1509 0.930 . S
C1500 C1496 1.395 . S
C1500 C1501 1.379 . S
C1500 H1510 0.930 . S
C1501 C1499 1.395 . S
C1501 C1500 1.379 . S
C1501 H1511 0.930 . S
C1502 O1480 1.264 . S
C1502 O1481 1.254 . S
C1503 Eu1439 2.848 . S
C1503 O1478 1.257 . S
C1503 O1483 1.249 . S
C1503 C1496 1.492 . S
H1504 C1487 0.930 . S
H1505 C1488 0.930 1_545 S
H1506 C1489 0.930 . S
H1507 C1490 0.930 . S
H1508 C1497 0.930 . S
H1509 C1499 0.930 . S
H1510 C1500 0.930 . S
H1511 C1501 0.930 . S
Eu1512 N1543 2.657 . S
Eu1512 N1550 2.609 . S
Eu1512 O1556 2.558 . S
Eu1512 O1557 2.612 . S
Eu1512 O1559 2.339 . S
Eu1512 O1560 2.563 . S
Eu1512 O1561 2.419 . S
Eu1512 O1563 2.380 . S
Eu1512 O1564 2.432 . S
Eu1512 C1576 2.848 . S
C1513 C1516 1.429 . S
C1513 C1517 1.411 . S
C1513 N1520 1.377 . S
C1514 C1516 1.420 . S
C1514 C1518 1.423 . S
C1514 C1526 1.392 . S
C1515 C1517 1.420 . S
C1515 C1518 1.351 . S
C1515 H1538 0.931 . S
C1516 C1513 1.429 . S
C1516 C1514 1.420 . S
C1516 N1524 1.362 . S
C1517 C1513 1.411 . S
C1517 C1515 1.420 . S
C1517 C1522 1.395 . S
C1518 C1514 1.423 . S
C1518 C1515 1.351 . S
C1518 H1530 0.930 . S
C1519 C1521 1.400 . S
C1519 C1522 1.386 . S
C1519 H1531 0.930 . S
N1520 C1513 1.377 . S
N1520 C1521 1.321 . S
N1520 Eu1523 2.609 . S
C1521 C1519 1.400 . S
C1521 N1520 1.321 . S
C1521 H1528 0.930 . S
C1522 C1517 1.395 . S
C1522 C1519 1.386 . S
C1522 H1541 0.930 . S
Eu1523 N1520 2.609 . S
Eu1523 N1524 2.657 . S
Eu1523 O1557 2.380 . S
Eu1523 O1558 2.432 . S
Eu1523 O1562 2.558 . S
Eu1523 O1563 2.612 . S
Eu1523 O1565 2.339 . S
Eu1523 O1566 2.563 . S
Eu1523 O1567 2.419 . S
Eu1523 C1587 2.848 . S
N1524 C1516 1.362 . S
N1524 Eu1523 2.657 . S
N1524 C1525 1.334 . S
C1525 N1524 1.334 . S
C1525 C1527 1.413 . S
C1525 H1532 0.929 . S
C1526 C1514 1.392 . S
C1526 C1527 1.367 . S
C1526 H1534 0.930 . S
C1527 C1525 1.413 . S
C1527 C1526 1.367 . S
C1527 H1529 0.930 . S
H1528 C1521 0.930 . S
H1529 C1527 0.930 . S
H1530 C1518 0.930 . S
H1531 C1519 0.930 . S
H1532 C1525 0.929 . S
H1533 C1547 0.930 . S
H1534 C1526 0.930 . S
H1535 C1553 0.930 . S
H1536 C1544 0.929 . S
H1537 C1551 0.930 . S
H1538 C1515 0.931 . S
H1539 C1545 0.930 . S
H1540 C1578 0.930 . S
H1541 C1522 0.930 . S
H1542 C1577 0.931 . S
N1543 Eu1512 2.657 . S
N1543 C1544 1.334 . S
N1543 C1548 1.362 . S
C1544 H1536 0.929 . S
C1544 N1543 1.334 . S
C1544 C1547 1.413 . S
C1545 H1539 0.930 . S
C1545 C1546 1.392 . S
C1545 C1547 1.367 . S
C1546 C1545 1.392 . S
C1546 C1548 1.420 . S
C1546 C1578 1.423 . S
C1547 H1533 0.930 . S
C1547 C1544 1.413 . S
C1547 C1545 1.367 . S
C1548 N1543 1.362 . S
C1548 C1546 1.420 . S
C1548 C1552 1.429 . S
H1549 C1554 0.930 . S
N1550 Eu1512 2.609 . S
N1550 C1552 1.377 . S
N1550 C1553 1.321 . S
C1551 H1537 0.930 . S
C1551 C1553 1.400 . S
C1551 C1554 1.386 . S
C1552 C1548 1.429 . S
C1552 N1550 1.377 . S
C1552 C1555 1.411 . S
C1553 H1535 0.930 . S
C1553 N1550 1.321 . S
C1553 C1551 1.400 . S
C1554 H1549 0.930 . S
C1554 C1551 1.386 . S
C1554 C1555 1.395 . S
C1555 C1552 1.411 . S
C1555 C1554 1.395 . S
C1555 C1577 1.420 . S
O1556 Eu1512 2.558 . S
O1556 C1576 1.257 . S
O1557 Eu1512 2.612 . S
O1557 Eu1523 2.380 . S
O1557 C1568 1.276 . S
O1558 Eu1523 2.432 . S
O1558 C1575 1.264 . S
O1559 Eu1512 2.339 . S
O1559 C1575 1.254 . S
O1560 Eu1512 2.563 . S
O1560 C1568 1.235 . S
O1561 Eu1512 2.419 . S
O1561 C1576 1.249 . S
O1562 Eu1523 2.558 . S
O1562 C1587 1.257 . S
O1563 Eu1512 2.380 . S
O1563 Eu1523 2.612 . S
O1563 C1579 1.276 . S
O1564 Eu1512 2.432 . S
O1564 C1586 1.264 . S
O1565 Eu1523 2.339 . S
O1565 C1586 1.254 . S
O1566 Eu1523 2.563 . S
O1566 C1579 1.235 . S
O1567 Eu1523 2.419 . S
O1567 C1587 1.249 . S
C1568 O1557 1.276 . S
C1568 O1560 1.235 . S
C1569 C1571 1.393 . S
C1569 C1573 1.395 . S
C1569 C1576 1.492 . S
C1570 C1571 1.392 . S
C1570 C1572 1.386 . S
C1571 C1569 1.393 . S
C1571 C1570 1.392 . S
C1571 H1588 0.930 . S
C1572 C1570 1.386 . S
C1572 C1574 1.395 . S
C1572 H1589 0.930 . S
C1573 C1569 1.395 . S
C1573 C1574 1.379 . S
C1573 H1590 0.930 . S
C1574 C1572 1.395 . S
C1574 C1573 1.379 . S
C1574 H1591 0.930 . S
C1575 O1558 1.264 . S
C1575 O1559 1.254 . S
C1576 Eu1512 2.848 . S
C1576 O1556 1.257 . S
C1576 O1561 1.249 . S
C1576 C1569 1.492 . S
C1577 H1542 0.931 . S
C1577 C1555 1.420 . S
C1577 C1578 1.351 . S
C1578 H1540 0.930 . S
C1578 C1546 1.423 . S
C1578 C1577 1.351 . S
C1579 O1563 1.276 . S
C1579 O1566 1.235 . S
C1580 C1581 1.393 . S
C1580 C1584 1.395 . S
C1580 C1587 1.492 . S
C1581 C1580 1.393 . S
C1581 C1582 1.392 . S
C1581 H1592 0.930 . S
C1582 C1581 1.392 . S
C1582 C1583 1.386 . S
C1583 C1582 1.386 . S
C1583 C1585 1.395 . S
C1583 H1593 0.930 . S
C1584 C1580 1.395 . S
C1584 C1585 1.379 . S
C1584 H1594 0.930 . S
C1585 C1583 1.395 . S
C1585 C1584 1.379 . S
C1585 H1595 0.930 . S
C1586 O1564 1.264 . S
C1586 O1565 1.254 . S
C1587 Eu1523 2.848 . S
C1587 O1562 1.257 . S
C1587 O1567 1.249 . S
C1587 C1580 1.492 . S
H1588 C1571 0.930 . S
H1589 C1572 0.930 . S
H1590 C1573 0.930 . S
H1591 C1574 0.930 . S
H1592 C1581 0.930 . S
H1593 C1583 0.930 . S
H1594 C1584 0.930 . S
H1595 C1585 0.930 . S
Eu1596 N1627 2.658 . S
Eu1596 N1634 2.598 1_554 S
Eu1596 O1640 2.550 1_554 S
Eu1596 O1641 2.619 . S
Eu1596 O1643 2.352 . S
Eu1596 O1644 2.566 1_554 S
Eu1596 O1645 2.421 . S
Eu1596 O1647 2.384 . S
Eu1596 O1648 2.424 1_554 S
Eu1596 C1660 2.844 1_554 S
C1597 C1600 1.429 . S
C1597 C1601 1.411 . S
C1597 N1604 1.377 1_655 S
C1598 C1600 1.420 . S
C1598 C1602 1.423 . S
C1598 C1610 1.392 1_554 S
C1599 C1601 1.420 . S
C1599 C1602 1.351 . S
C1599 H1622 0.931 . S
C1600 C1597 1.429 . S
C1600 C1598 1.420 . S
C1600 N1608 1.362 . S
C1601 C1597 1.411 . S
C1601 C1599 1.420 . S
C1601 C1606 1.395 . S
C1602 C1598 1.423 . S
C1602 C1599 1.351 . S
C1602 H1614 0.930 . S
C1603 C1605 1.400 . S
C1603 C1606 1.386 1_455 S
C1603 H1615 0.930 . S
N1604 C1597 1.377 1_455 S
N1604 C1605 1.321 . S
N1604 Eu1607 2.609 . S
C1605 C1603 1.400 . S
C1605 N1604 1.321 . S
C1605 H1612 0.930 . S
C1606 C1601 1.395 . S
C1606 C1603 1.386 1_655 S
C1606 H1625 0.930 . S
Eu1607 N1604 2.609 . S
Eu1607 N1608 2.657 1_455 S
Eu1607 O1641 2.380 . S
Eu1607 O1642 2.432 . S
Eu1607 O1646 2.558 . S
Eu1607 O1647 2.612 . S
Eu1607 O1649 2.339 1_554 S
Eu1607 O1650 2.563 . S
Eu1607 O1651 2.419 1_455 S
Eu1607 C1671 2.848 1_455 S
N1608 C1600 1.362 . S
N1608 Eu1607 2.657 1_655 S
N1608 C1609 1.334 1_554 S
C1609 N1608 1.334 1_556 S
C1609 C1611 1.413 . S
C1609 H1616 0.929 . S
C1610 C1598 1.392 1_556 S
C1610 C1611 1.367 . S
C1610 H1618 0.930 . S
C1611 C1609 1.413 . S
C1611 C1610 1.367 . S
C1611 H1613 0.930 . S
H1612 C1605 0.930 . S
H1613 C1611 0.930 . S
H1614 C1602 0.930 . S
H1615 C1603 0.930 . S
H1616 C1609 0.929 . S
H1617 C1631 0.930 . S
H1618 C1610 0.930 . S
H1619 C1637 0.930 . S
H1620 C1628 0.929 . S
H1621 C1635 0.930 . S
H1622 C1599 0.931 . S
H1623 C1629 0.930 . S
H1624 C1662 0.930 1_554 S
H1625 C1606 0.930 . S
H1626 C1661 0.931 . S
N1627 Eu1596 2.658 . S
N1627 C1628 1.334 . S
N1627 C1632 1.362 . S
C1628 H1620 0.929 . S
C1628 N1627 1.334 . S
C1628 C1631 1.413 . S
C1629 H1623 0.930 . S
C1629 C1630 1.392 . S
C1629 C1631 1.367 . S
C1630 C1629 1.392 . S
C1630 C1632 1.420 . S
C1630 C1662 1.423 1_554 S
C1631 H1617 0.930 . S
C1631 C1628 1.413 . S
C1631 C1629 1.367 . S
C1632 N1627 1.362 . S
C1632 C1630 1.420 . S
C1632 C1636 1.429 1_554 S
H1633 C1638 0.930 . S
N1634 Eu1596 2.598 1_556 S
N1634 C1636 1.377 . S
N1634 C1637 1.321 . S
C1635 H1621 0.930 . S
C1635 C1637 1.400 . S
C1635 C1638 1.386 . S
C1636 C1632 1.429 1_556 S
C1636 N1634 1.377 . S
C1636 C1639 1.411 . S
C1637 H1619 0.930 . S
C1637 N1634 1.321 . S
C1637 C1635 1.400 . S
C1638 H1633 0.930 . S
C1638 C1635 1.386 . S
C1638 C1639 1.395 . S
C1639 C1636 1.411 . S
C1639 C1638 1.395 . S
C1639 C1661 1.420 . S
O1640 Eu1596 2.550 1_556 S
O1640 C1660 1.257 . S
O1641 Eu1596 2.619 . S
O1641 Eu1607 2.380 . S
O1641 C1652 1.276 . S
O1642 Eu1607 2.432 . S
O1642 C1659 1.264 . S
O1643 Eu1596 2.352 . S
O1643 C1659 1.254 . S
O1644 Eu1596 2.566 1_556 S
O1644 C1652 1.235 1_556 S
O1645 Eu1596 2.421 . S
O1645 C1660 1.249 1_554 S
O1646 Eu1607 2.558 . S
O1646 C1671 1.257 1_455 S
O1647 Eu1596 2.384 . S
O1647 Eu1607 2.612 . S
O1647 C1663 1.276 . S
O1648 Eu1596 2.424 1_556 S
O1648 C1670 1.264 . S
O1649 Eu1607 2.339 1_556 S
O1649 C1670 1.254 . S
O1650 Eu1607 2.563 . S
O1650 C1663 1.235 . S
O1651 Eu1607 2.419 1_655 S
O1651 C1671 1.249 . S
C1652 O1641 1.276 . S
C1652 O1644 1.235 1_554 S
C1653 C1655 1.393 . S
C1653 C1657 1.395 . S
C1653 C1660 1.492 . S
C1654 C1655 1.392 . S
C1654 C1656 1.386 . S
C1655 C1653 1.393 . S
C1655 C1654 1.392 . S
C1655 H1672 0.930 1_556 S
C1656 C1654 1.386 . S
C1656 C1658 1.395 . S
C1656 H1673 0.930 . S
C1657 C1653 1.395 . S
C1657 C1658 1.379 . S
C1657 H1674 0.930 . S
C1658 C1656 1.395 . S
C1658 C1657 1.379 . S
C1658 H1675 0.930 . S
C1659 O1642 1.264 . S
C1659 O1643 1.254 . S
C1660 Eu1596 2.844 1_556 S
C1660 O1640 1.257 . S
C1660 O1645 1.249 1_556 S
C1660 C1653 1.492 . S
C1661 H1626 0.931 . S
C1661 C1639 1.420 . S
C1661 C1662 1.351 . S
C1662 H1624 0.930 1_556 S
C1662 C1630 1.423 1_556 S
C1662 C1661 1.351 . S
C1663 O1647 1.276 . S
C1663 O1650 1.235 . S
C1664 C1665 1.393 . S
C1664 C1668 1.395 . S
C1664 C1671 1.492 . S
C1665 C1664 1.393 . S
C1665 C1666 1.392 . S
C1665 H1676 0.930 . S
C1666 C1665 1.392 . S
C1666 C1667 1.386 . S
C1667 C1666 1.386 . S
C1667 C1669 1.395 . S
C1667 H1677 0.930 . S
C1668 C1664 1.395 . S
C1668 C1669 1.379 . S
C1668 H1678 0.930 . S
C1669 C1667 1.395 . S
C1669 C1668 1.379 . S
C1669 H1679 0.930 . S
C1670 O1648 1.264 . S
C1670 O1649 1.254 . S
C1671 Eu1607 2.848 1_655 S
C1671 O1646 1.257 1_655 S
C1671 O1651 1.249 . S
C1671 C1664 1.492 . S
H1672 C1655 0.930 1_554 S
H1673 C1656 0.930 . S
H1674 C1657 0.930 . S
H1675 C1658 0.930 . S
H1676 C1665 0.930 . S
H1677 C1667 0.930 . S
H1678 C1668 0.930 . S
H1679 C1669 0.930 . S
C1680 C1681 1.369 . S
C1680 C1682 1.419 . S
C1680 H1684 0.930 . S
C1681 C1680 1.369 . S
C1681 C1690 1.429 1_556 S
C1682 C1680 1.419 . S
C1682 C1683 1.363 1_556 S
C1682 H1685 0.929 . S
C1683 C1682 1.363 1_554 S
C1683 C1689 1.428 . S
H1684 C1680 0.930 . S
H1685 C1682 0.929 . S
S1686 N1687 1.613 . S
S1686 N1688 1.610 . S
N1687 S1686 1.613 . S
N1687 C1690 1.350 . S
N1688 S1686 1.610 . S
N1688 C1689 1.351 . S
C1689 C1683 1.428 . S
C1689 N1688 1.351 . S
C1689 C1690 1.434 . S
C1690 C1681 1.429 1_554 S
C1690 N1687 1.350 . S
C1690 C1689 1.434 . S
C1691 C1692 1.369 . S
C1691 C1693 1.419 . S
C1691 H1695 0.930 . S
C1692 C1691 1.369 . S
C1692 C1701 1.429 . S
C1693 C1691 1.419 . S
C1693 C1694 1.363 . S
C1693 H1696 0.929 . S
C1694 C1693 1.363 . S
C1694 C1700 1.428 . S
H1695 C1691 0.930 . S
H1696 C1693 0.929 . S
S1697 N1698 1.613 . S
S1697 N1699 1.610 . S
N1698 S1697 1.613 . S
N1698 C1701 1.350 . S
N1699 S1697 1.610 . S
N1699 C1700 1.351 . S
C1700 C1694 1.428 . S
C1700 N1699 1.351 . S
C1700 C1701 1.434 . S
C1701 C1692 1.429 . S
C1701 N1698 1.350 . S
C1701 C1700 1.434 . S
C1702 C1703 1.369 . S
C1702 C1704 1.419 . S
C1702 H1706 0.930 . S
C1703 C1702 1.369 . S
C1703 C1712 1.429 . S
C1704 C1702 1.419 . S
C1704 C1705 1.363 . S
C1704 H1707 0.929 . S
C1705 C1704 1.363 . S
C1705 C1711 1.428 . S
H1706 C1702 0.930 . S
H1707 C1704 0.929 . S
S1708 N1709 1.613 . S
S1708 N1710 1.610 . S
N1709 S1708 1.613 . S
N1709 C1712 1.350 . S
N1710 S1708 1.610 . S
N1710 C1711 1.351 . S
C1711 C1705 1.428 . S
C1711 N1710 1.351 . S
C1711 C1712 1.434 . S
C1712 C1703 1.429 . S
C1712 N1709 1.350 . S
C1712 C1711 1.434 . S
C1713 C1714 1.369 . S
C1713 C1715 1.419 . S
C1713 H1717 0.930 . S
C1714 C1713 1.369 . S
C1714 C1723 1.429 . S
C1715 C1713 1.419 . S
C1715 C1716 1.363 . S
C1715 H1718 0.929 . S
C1716 C1715 1.363 . S
C1716 C1722 1.428 . S
H1717 C1713 0.930 . S
H1718 C1715 0.929 . S
S1719 N1720 1.613 . S
S1719 N1721 1.610 . S
N1720 S1719 1.613 . S
N1720 C1723 1.350 . S
N1721 S1719 1.610 . S
N1721 C1722 1.351 . S
C1722 C1716 1.428 . S
C1722 N1721 1.351 . S
C1722 C1723 1.434 . S
C1723 C1714 1.429 . S
C1723 N1720 1.350 . S
C1723 C1722 1.434 . S
C1724 C1725 1.369 . S
C1724 C1726 1.419 . S
C1724 H1728 0.930 . S
C1725 C1724 1.369 . S
C1725 C1734 1.429 . S
C1726 C1724 1.419 . S
C1726 C1727 1.363 . S
C1726 H1729 0.929 . S
C1727 C1726 1.363 . S
C1727 C1733 1.428 . S
H1728 C1724 0.930 . S
H1729 C1726 0.929 . S
S1730 N1731 1.613 . S
S1730 N1732 1.610 1_655 S
N1731 S1730 1.613 . S
N1731 C1734 1.350 1_655 S
N1732 S1730 1.610 1_455 S
N1732 C1733 1.351 . S
C1733 C1727 1.428 . S
C1733 N1732 1.351 . S
C1733 C1734 1.434 . S
C1734 C1725 1.429 . S
C1734 N1731 1.350 1_455 S
C1734 C1733 1.434 . S
C1735 C1736 1.369 . S
C1735 C1737 1.419 . S
C1735 H1739 0.930 . S
C1736 C1735 1.369 . S
C1736 C1745 1.429 . S
C1737 C1735 1.419 . S
C1737 C1738 1.363 . S
C1737 H1740 0.929 . S
C1738 C1737 1.363 . S
C1738 C1744 1.428 . S
H1739 C1735 0.930 . S
H1740 C1737 0.929 . S
S1741 N1742 1.613 . S
S1741 N1743 1.610 . S
N1742 S1741 1.613 . S
N1742 C1745 1.350 . S
N1743 S1741 1.610 . S
N1743 C1744 1.351 . S
C1744 C1738 1.428 . S
C1744 N1743 1.351 . S
C1744 C1745 1.434 . S
C1745 C1736 1.429 . S
C1745 N1742 1.350 . S
C1745 C1744 1.434 . S
C1746 C1747 1.369 . S
C1746 C1748 1.419 . S
C1746 H1750 0.930 . S
C1747 C1746 1.369 . S
C1747 C1756 1.429 . S
C1748 C1746 1.419 . S
C1748 C1749 1.363 . S
C1748 H1751 0.929 . S
C1749 C1748 1.363 . S
C1749 C1755 1.428 . S
H1750 C1746 0.930 . S
H1751 C1748 0.929 . S
S1752 N1753 1.613 . S
S1752 N1754 1.610 . S
N1753 S1752 1.613 . S
N1753 C1756 1.350 . S
N1754 S1752 1.610 . S
N1754 C1755 1.351 . S
C1755 C1749 1.428 . S
C1755 N1754 1.351 . S
C1755 C1756 1.434 . S
C1756 C1747 1.429 . S
C1756 N1753 1.350 . S
C1756 C1755 1.434 . S
C1757 C1758 1.369 . S
C1757 C1759 1.419 . S
C1757 H1761 0.930 . S
C1758 C1757 1.369 . S
C1758 C1767 1.429 . S
C1759 C1757 1.419 . S
C1759 C1760 1.363 . S
C1759 H1762 0.929 . S
C1760 C1759 1.363 . S
C1760 C1766 1.428 . S
H1761 C1757 0.930 . S
H1762 C1759 0.929 . S
S1763 N1764 1.613 . S
S1763 N1765 1.610 . S
N1764 S1763 1.613 . S
N1764 C1767 1.350 . S
N1765 S1763 1.610 . S
N1765 C1766 1.351 . S
C1766 C1760 1.428 . S
C1766 N1765 1.351 . S
C1766 C1767 1.434 . S
C1767 C1758 1.429 . S
C1767 N1764 1.350 . S
C1767 C1766 1.434 . S
C1768 C1769 1.369 . S
C1768 C1770 1.419 . S
C1768 H1772 0.930 . S
C1769 C1768 1.369 . S
C1769 C1778 1.429 . S
C1770 C1768 1.419 . S
C1770 C1771 1.363 . S
C1770 H1773 0.929 . S
C1771 C1770 1.363 . S
C1771 C1777 1.428 . S
H1772 C1768 0.930 . S
H1773 C1770 0.929 . S
S1774 N1775 1.613 1_565 S
S1774 N1776 1.610 1_565 S
N1775 S1774 1.613 1_545 S
N1775 C1778 1.350 . S
N1776 S1774 1.610 1_545 S
N1776 C1777 1.351 . S
C1777 C1771 1.428 . S
C1777 N1776 1.351 . S
C1777 C1778 1.434 . S
C1778 C1769 1.429 . S
C1778 N1775 1.350 . S
C1778 C1777 1.434 . S
C1779 C1780 1.369 . S
C1779 C1781 1.419 . S
C1779 H1783 0.930 . S
C1780 C1779 1.369 . S
C1780 C1789 1.429 . S
C1781 C1779 1.419 . S
C1781 C1782 1.363 . S
C1781 H1784 0.929 . S
C1782 C1781 1.363 . S
C1782 C1788 1.428 . S
H1783 C1779 0.930 . S
H1784 C1781 0.929 . S
S1785 N1786 1.613 . S
S1785 N1787 1.610 . S
N1786 S1785 1.613 . S
N1786 C1789 1.350 . S
N1787 S1785 1.610 . S
N1787 C1788 1.351 . S
C1788 C1782 1.428 . S
C1788 N1787 1.351 . S
C1788 C1789 1.434 . S
C1789 C1780 1.429 . S
C1789 N1786 1.350 . S
C1789 C1788 1.434 . S
C1790 C1791 1.369 . S
C1790 C1792 1.419 . S
C1790 H1794 0.930 . S
C1791 C1790 1.369 . S
C1791 C1800 1.429 . S
C1792 C1790 1.419 . S
C1792 C1793 1.363 . S
C1792 H1795 0.929 1_545 S
C1793 C1792 1.363 . S
C1793 C1799 1.428 . S
H1794 C1790 0.930 . S
H1795 C1792 0.929 1_565 S
S1796 N1797 1.613 . S
S1796 N1798 1.610 . S
N1797 S1796 1.613 . S
N1797 C1800 1.350 . S
N1798 S1796 1.610 . S
N1798 C1799 1.351 . S
C1799 C1793 1.428 . S
C1799 N1798 1.351 . S
C1799 C1800 1.434 . S
C1800 C1791 1.429 . S
C1800 N1797 1.350 . S
C1800 C1799 1.434 . S
C1801 C1802 1.369 . S
C1801 C1803 1.419 . S
C1801 H1805 0.930 . S
C1802 C1801 1.369 . S
C1802 C1811 1.429 . S
C1803 C1801 1.419 . S
C1803 C1804 1.363 . S
C1803 H1806 0.929 . S
C1804 C1803 1.363 . S
C1804 C1810 1.428 . S
H1805 C1801 0.930 . S
H1806 C1803 0.929 . S
S1807 N1808 1.613 . S
S1807 N1809 1.610 . S
N1808 S1807 1.613 . S
N1808 C1811 1.350 . S
N1809 S1807 1.610 . S
N1809 C1810 1.351 . S
C1810 C1804 1.428 . S
C1810 N1809 1.351 . S
C1810 C1811 1.434 . S
C1811 C1802 1.429 . S
C1811 N1808 1.350 . S
C1811 C1810 1.434 . S
C1812 C1813 1.369 1_655 S
C1812 C1814 1.419 1_655 S
C1812 H1816 0.930 . S
C1813 C1812 1.369 1_455 S
C1813 C1822 1.429 . S
C1814 C1812 1.419 1_455 S
C1814 C1815 1.363 . S
C1814 H1817 0.929 . S
C1815 C1814 1.363 . S
C1815 C1821 1.428 . S
H1816 C1812 0.930 . S
H1817 C1814 0.929 . S
S1818 N1819 1.613 . S
S1818 N1820 1.610 . S
N1819 S1818 1.613 . S
N1819 C1822 1.350 . S
N1820 S1818 1.610 . S
N1820 C1821 1.351 . S
C1821 C1815 1.428 . S
C1821 N1820 1.351 . S
C1821 C1822 1.434 . S
C1822 C1813 1.429 . S
C1822 N1819 1.350 . S
C1822 C1821 1.434 . S
C1823 C1824 1.369 . S
C1823 C1825 1.419 . S
C1823 H1827 0.930 . S
C1824 C1823 1.369 . S
C1824 C1833 1.429 . S
C1825 C1823 1.419 . S
C1825 C1826 1.363 . S
C1825 H1828 0.929 . S
C1826 C1825 1.363 . S
C1826 C1832 1.428 . S
H1827 C1823 0.930 . S
H1828 C1825 0.929 . S
S1829 N1830 1.613 . S
S1829 N1831 1.610 . S
N1830 S1829 1.613 . S
N1830 C1833 1.350 . S
N1831 S1829 1.610 . S
N1831 C1832 1.351 . S
C1832 C1826 1.428 . S
C1832 N1831 1.351 . S
C1832 C1833 1.434 . S
C1833 C1824 1.429 . S
C1833 N1830 1.350 . S
C1833 C1832 1.434 . S
C1834 C1835 1.369 . S
C1834 C1836 1.419 . S
C1834 H1838 0.930 . S
C1835 C1834 1.369 . S
C1835 C1844 1.429 . S
C1836 C1834 1.419 . S
C1836 C1837 1.363 . S
C1836 H1839 0.929 . S
C1837 C1836 1.363 . S
C1837 C1843 1.428 . S
H1838 C1834 0.930 . S
H1839 C1836 0.929 . S
S1840 N1841 1.613 . S
S1840 N1842 1.610 . S
N1841 S1840 1.613 . S
N1841 C1844 1.350 . S
N1842 S1840 1.610 . S
N1842 C1843 1.351 . S
C1843 C1837 1.428 . S
C1843 N1842 1.351 . S
C1843 C1844 1.434 . S
C1844 C1835 1.429 . S
C1844 N1841 1.350 . S
C1844 C1843 1.434 . S
C1845 C1846 1.369 . S
C1845 C1847 1.419 . S
C1845 H1849 0.930 . S
C1846 C1845 1.369 . S
C1846 C1855 1.429 . S
C1847 C1845 1.419 . S
C1847 C1848 1.363 . S
C1847 H1850 0.929 . S
C1848 C1847 1.363 . S
C1848 C1854 1.428 . S
H1849 C1845 0.930 . S
H1850 C1847 0.929 . S
S1851 N1852 1.613 . S
S1851 N1853 1.610 . S
N1852 S1851 1.613 . S
N1852 C1855 1.350 . S
N1853 S1851 1.610 . S
N1853 C1854 1.351 . S
C1854 C1848 1.428 . S
C1854 N1853 1.351 . S
C1854 C1855 1.434 . S
C1855 C1846 1.429 . S
C1855 N1852 1.350 . S
C1855 C1854 1.434 . S
C1856 C1857 1.369 1_556 S
C1856 C1858 1.419 1_556 S
C1856 H1860 0.930 . S
C1857 C1856 1.369 1_554 S
C1857 C1866 1.429 1_565 S
C1858 C1856 1.419 1_554 S
C1858 C1859 1.363 1_565 S
C1858 H1861 0.929 . S
C1859 C1858 1.363 1_545 S
C1859 C1865 1.428 . S
H1860 C1856 0.930 . S
H1861 C1858 0.929 . S
S1862 N1863 1.613 . S
S1862 N1864 1.610 . S
N1863 S1862 1.613 . S
N1863 C1866 1.350 . S
N1864 S1862 1.610 . S
N1864 C1865 1.351 . S
C1865 C1859 1.428 . S
C1865 N1864 1.351 . S
C1865 C1866 1.434 . S
C1866 C1857 1.429 1_545 S
C1866 N1863 1.350 . S
C1866 C1865 1.434 . S
C1867 C1868 1.369 . S
C1867 C1869 1.419 . S
C1867 H1871 0.930 . S
C1868 C1867 1.369 . S
C1868 C1877 1.429 . S
C1869 C1867 1.419 . S
C1869 C1870 1.363 . S
C1869 H1872 0.929 . S
C1870 C1869 1.363 . S
C1870 C1876 1.428 . S
H1871 C1867 0.930 . S
H1872 C1869 0.929 . S
S1873 N1874 1.613 . S
S1873 N1875 1.610 . S
N1874 S1873 1.613 . S
N1874 C1877 1.350 1_554 S
N1875 S1873 1.610 . S
N1875 C1876 1.351 1_554 S
C1876 C1870 1.428 . S
C1876 N1875 1.351 1_556 S
C1876 C1877 1.434 . S
C1877 C1868 1.429 . S
C1877 N1874 1.350 1_556 S
C1877 C1876 1.434 . S
C1878 C1879 1.369 . S
C1878 C1880 1.419 . S
C1878 H1882 0.930 . S
C1879 C1878 1.369 . S
C1879 C1888 1.429 . S
C1880 C1878 1.419 . S
C1880 C1881 1.363 . S
C1880 H1883 0.929 . S
C1881 C1880 1.363 . S
C1881 C1887 1.428 . S
H1882 C1878 0.930 . S
H1883 C1880 0.929 . S
S1884 N1885 1.613 . S
S1884 N1886 1.610 . S
N1885 S1884 1.613 . S
N1885 C1888 1.350 . S
N1886 S1884 1.610 . S
N1886 C1887 1.351 . S
C1887 C1881 1.428 . S
C1887 N1886 1.351 . S
C1887 C1888 1.434 . S
C1888 C1879 1.429 . S
C1888 N1885 1.350 . S
C1888 C1887 1.434 . S
C1889 C1890 1.369 . S
C1889 C1891 1.419 . S
C1889 H1893 0.930 . S
C1890 C1889 1.369 . S
C1890 C1899 1.429 . S
C1891 C1889 1.419 . S
C1891 C1892 1.363 1_655 S
C1891 H1894 0.929 1_655 S
C1892 C1891 1.363 1_455 S
C1892 C1898 1.428 1_455 S
H1893 C1889 0.930 . S
H1894 C1891 0.929 1_455 S
S1895 N1896 1.613 . S
S1895 N1897 1.610 . S
N1896 S1895 1.613 . S
N1896 C1899 1.350 . S
N1897 S1895 1.610 . S
N1897 C1898 1.351 . S
C1898 C1892 1.428 1_655 S
C1898 N1897 1.351 . S
C1898 C1899 1.434 . S
C1899 C1890 1.429 . S
C1899 N1896 1.350 . S
C1899 C1898 1.434 . S
C1900 C1901 1.369 . S
C1900 C1902 1.419 . S
C1900 H1904 0.930 . S
C1901 C1900 1.369 . S
C1901 C1910 1.429 . S
C1902 C1900 1.419 . S
C1902 C1903 1.363 . S
C1902 H1905 0.929 . S
C1903 C1902 1.363 . S
C1903 C1909 1.428 . S
H1904 C1900 0.930 . S
H1905 C1902 0.929 . S
S1906 N1907 1.613 . S
S1906 N1908 1.610 . S
N1907 S1906 1.613 . S
N1907 C1910 1.350 . S
N1908 S1906 1.610 . S
N1908 C1909 1.351 . S
C1909 C1903 1.428 . S
C1909 N1908 1.351 . S
C1909 C1910 1.434 . S
C1910 C1901 1.429 . S
C1910 N1907 1.350 . S
C1910 C1909 1.434 . S
C1911 C1912 1.369 . S
C1911 C1913 1.419 . S
C1911 H1915 0.930 . S
C1912 C1911 1.369 . S
C1912 C1921 1.429 . S
C1913 C1911 1.419 . S
C1913 C1914 1.363 . S
C1913 H1916 0.929 . S
C1914 C1913 1.363 . S
C1914 C1920 1.428 . S
H1915 C1911 0.930 . S
H1916 C1913 0.929 . S
S1917 N1918 1.613 . S
S1917 N1919 1.610 . S
N1918 S1917 1.613 . S
N1918 C1921 1.350 . S
N1919 S1917 1.610 . S
N1919 C1920 1.351 . S
C1920 C1914 1.428 . S
C1920 N1919 1.351 . S
C1920 C1921 1.434 . S
C1921 C1912 1.429 . S
C1921 N1918 1.350 . S
C1921 C1920 1.434 . S
C1922 C1923 1.369 . S
C1922 C1924 1.419 . S
C1922 H1926 0.930 . S
C1923 C1922 1.369 . S
C1923 C1932 1.429 . S
C1924 C1922 1.419 . S
C1924 C1925 1.363 . S
C1924 H1927 0.929 . S
C1925 C1924 1.363 . S
C1925 C1931 1.428 . S
H1926 C1922 0.930 . S
H1927 C1924 0.929 . S
S1928 N1929 1.613 . S
S1928 N1930 1.610 . S
N1929 S1928 1.613 . S
N1929 C1932 1.350 . S
N1930 S1928 1.610 . S
N1930 C1931 1.351 . S
C1931 C1925 1.428 . S
C1931 N1930 1.351 . S
C1931 C1932 1.434 . S
C1932 C1923 1.429 . S
C1932 N1929 1.350 . S
C1932 C1931 1.434 . S
C1933 C1934 1.369 . S
C1933 C1935 1.419 . S
C1933 H1937 0.930 . S
C1934 C1933 1.369 . S
C1934 C1943 1.429 . S
C1935 C1933 1.419 . S
C1935 C1936 1.363 . S
C1935 H1938 0.929 . S
C1936 C1935 1.363 . S
C1936 C1942 1.428 . S
H1937 C1933 0.930 . S
H1938 C1935 0.929 . S
S1939 N1940 1.613 . S
S1939 N1941 1.610 . S
N1940 S1939 1.613 . S
N1940 C1943 1.350 . S
N1941 S1939 1.610 . S
N1941 C1942 1.351 . S
C1942 C1936 1.428 . S
C1942 N1941 1.351 . S
C1942 C1943 1.434 . S
C1943 C1934 1.429 . S
C1943 N1940 1.350 . S
C1943 C1942 1.434 . S
C1944 C1945 1.369 . S
C1944 C1946 1.419 . S
C1944 H1948 0.930 . S
C1945 C1944 1.369 . S
C1945 C1954 1.429 . S
C1946 C1944 1.419 . S
C1946 C1947 1.363 . S
C1946 H1949 0.929 . S
C1947 C1946 1.363 . S
C1947 C1953 1.428 . S
H1948 C1944 0.930 . S
H1949 C1946 0.929 . S
S1950 N1951 1.613 . S
S1950 N1952 1.610 . S
N1951 S1950 1.613 . S
N1951 C1954 1.350 . S
N1952 S1950 1.610 . S
N1952 C1953 1.351 . S
C1953 C1947 1.428 . S
C1953 N1952 1.351 . S
C1953 C1954 1.434 . S
C1954 C1945 1.429 . S
C1954 N1951 1.350 . S
C1954 C1953 1.434 . S
C1955 C1956 1.369 . S
C1955 C1957 1.419 . S
C1955 H1959 0.930 . S
C1956 C1955 1.369 . S
C1956 C1965 1.429 . S
C1957 C1955 1.419 . S
C1957 C1958 1.363 . S
C1957 H1960 0.929 . S
C1958 C1957 1.363 . S
C1958 C1964 1.428 . S
H1959 C1955 0.930 . S
H1960 C1957 0.929 . S
S1961 N1962 1.613 . S
S1961 N1963 1.610 . S
N1962 S1961 1.613 . S
N1962 C1965 1.350 . S
N1963 S1961 1.610 . S
N1963 C1964 1.351 . S
C1964 C1958 1.428 . S
C1964 N1963 1.351 . S
C1964 C1965 1.434 . S
C1965 C1956 1.429 . S
C1965 N1962 1.350 . S
C1965 C1964 1.434 . S
C1966 C1967 1.369 . S
C1966 C1968 1.419 . S
C1966 H1970 0.930 . S
C1967 C1966 1.369 . S
C1967 C1976 1.429 . S
C1968 C1966 1.419 . S
C1968 C1969 1.363 . S
C1968 H1971 0.929 . S
C1969 C1968 1.363 . S
C1969 C1975 1.428 . S
H1970 C1966 0.930 . S
H1971 C1968 0.929 . S
S1972 N1973 1.613 . S
S1972 N1974 1.610 . S
N1973 S1972 1.613 . S
N1973 C1976 1.350 . S
N1974 S1972 1.610 . S
N1974 C1975 1.351 . S
C1975 C1969 1.428 . S
C1975 N1974 1.351 . S
C1975 C1976 1.434 . S
C1976 C1967 1.429 . S
C1976 N1973 1.350 . S
C1976 C1975 1.434 . S
C1977 C1978 1.369 . S
C1977 C1979 1.419 . S
C1977 H1981 0.930 . S
C1978 C1977 1.369 . S
C1978 C1987 1.429 . S
C1979 C1977 1.419 . S
C1979 C1980 1.363 . S
C1979 H1982 0.929 . S
C1980 C1979 1.363 . S
C1980 C1986 1.428 . S
H1981 C1977 0.930 . S
H1982 C1979 0.929 . S
S1983 N1984 1.613 . S
S1983 N1985 1.610 . S
N1984 S1983 1.613 . S
N1984 C1987 1.350 . S
N1985 S1983 1.610 . S
N1985 C1986 1.351 . S
C1986 C1980 1.428 . S
C1986 N1985 1.351 . S
C1986 C1987 1.434 . S
C1987 C1978 1.429 . S
C1987 N1984 1.350 . S
C1987 C1986 1.434 . S
C1988 C1989 1.369 . S
C1988 C1990 1.419 . S
C1988 H1992 0.930 . S
C1989 C1988 1.369 . S
C1989 C1998 1.429 . S
C1990 C1988 1.419 . S
C1990 C1991 1.363 . S
C1990 H1993 0.929 . S
C1991 C1990 1.363 . S
C1991 C1997 1.428 . S
H1992 C1988 0.930 . S
H1993 C1990 0.929 . S
S1994 N1995 1.613 . S
S1994 N1996 1.610 . S
N1995 S1994 1.613 . S
N1995 C1998 1.350 . S
N1996 S1994 1.610 . S
N1996 C1997 1.351 . S
C1997 C1991 1.428 . S
C1997 N1996 1.351 . S
C1997 C1998 1.434 . S
C1998 C1989 1.429 . S
C1998 N1995 1.350 . S
C1998 C1997 1.434 . S
C1999 C2000 1.369 . S
C1999 C2001 1.419 . S
C1999 H2003 0.930 . S
C2000 C1999 1.369 . S
C2000 C2009 1.429 . S
C2001 C1999 1.419 . S
C2001 C2002 1.363 . S
C2001 H2004 0.929 . S
C2002 C2001 1.363 . S
C2002 C2008 1.428 . S
H2003 C1999 0.930 . S
H2004 C2001 0.929 . S
S2005 N2006 1.613 . S
S2005 N2007 1.610 . S
N2006 S2005 1.613 . S
N2006 C2009 1.350 . S
N2007 S2005 1.610 . S
N2007 C2008 1.351 . S
C2008 C2002 1.428 . S
C2008 N2007 1.351 . S
C2008 C2009 1.434 . S
C2009 C2000 1.429 . S
C2009 N2006 1.350 . S
C2009 C2008 1.434 . S
C2010 C2011 1.369 . S
C2010 C2012 1.419 . S
C2010 H2014 0.930 . S
C2011 C2010 1.369 . S
C2011 C2020 1.429 . S
C2012 C2010 1.419 . S
C2012 C2013 1.363 . S
C2012 H2015 0.929 . S
C2013 C2012 1.363 . S
C2013 C2019 1.428 . S
H2014 C2010 0.930 . S
H2015 C2012 0.929 . S
S2016 N2017 1.613 1_554 S
S2016 N2018 1.610 . S
N2017 S2016 1.613 1_556 S
N2017 C2020 1.350 . S
N2018 S2016 1.610 . S
N2018 C2019 1.351 1_554 S
C2019 C2013 1.428 . S
C2019 N2018 1.351 1_556 S
C2019 C2020 1.434 . S
C2020 C2011 1.429 . S
C2020 N2017 1.350 . S
C2020 C2019 1.434 . S
C2021 C2022 1.369 . S
C2021 C2023 1.419 . S
C2021 H2025 0.930 . S
C2022 C2021 1.369 . S
C2022 C2031 1.429 . S
C2023 C2021 1.419 . S
C2023 C2024 1.363 . S
C2023 H2026 0.929 . S
C2024 C2023 1.363 . S
C2024 C2030 1.428 . S
H2025 C2021 0.930 . S
H2026 C2023 0.929 . S
S2027 N2028 1.613 . S
S2027 N2029 1.610 . S
N2028 S2027 1.613 . S
N2028 C2031 1.350 . S
N2029 S2027 1.610 . S
N2029 C2030 1.351 . S
C2030 C2024 1.428 . S
C2030 N2029 1.351 . S
C2030 C2031 1.434 . S
C2031 C2022 1.429 . S
C2031 N2028 1.350 . S
C2031 C2030 1.434 . S
C2032 C2033 1.369 . S
C2032 C2034 1.419 . S
C2032 H2036 0.930 . S
C2033 C2032 1.369 . S
C2033 C2042 1.429 . S
C2034 C2032 1.419 . S
C2034 C2035 1.363 . S
C2034 H2037 0.929 . S
C2035 C2034 1.363 . S
C2035 C2041 1.428 . S
H2036 C2032 0.930 . S
H2037 C2034 0.929 . S
S2038 N2039 1.613 . S
S2038 N2040 1.610 . S
N2039 S2038 1.613 . S
N2039 C2042 1.350 1_565 S
N2040 S2038 1.610 . S
N2040 C2041 1.351 1_565 S
C2041 C2035 1.428 . S
C2041 N2040 1.351 1_545 S
C2041 C2042 1.434 . S
C2042 C2033 1.429 . S
C2042 N2039 1.350 1_545 S
C2042 C2041 1.434 . S
C2043 C2044 1.369 . S
C2043 C2045 1.419 . S
C2043 H2047 0.930 . S
C2044 C2043 1.369 . S
C2044 C2053 1.429 . S
C2045 C2043 1.419 . S
C2045 C2046 1.363 . S
C2045 H2048 0.929 . S
C2046 C2045 1.363 . S
C2046 C2052 1.428 . S
H2047 C2043 0.930 . S
H2048 C2045 0.929 . S
S2049 N2050 1.613 . S
S2049 N2051 1.610 . S
N2050 S2049 1.613 . S
N2050 C2053 1.350 . S
N2051 S2049 1.610 . S
N2051 C2052 1.351 . S
C2052 C2046 1.428 . S
C2052 N2051 1.351 . S
C2052 C2053 1.434 . S
C2053 C2044 1.429 . S
C2053 N2050 1.350 . S
C2053 C2052 1.434 . S
C2054 C2055 1.369 . S
C2054 C2056 1.419 . S
C2054 H2058 0.930 . S
C2055 C2054 1.369 . S
C2055 C2064 1.429 . S
C2056 C2054 1.419 . S
C2056 C2057 1.363 . S
C2056 H2059 0.929 . S
C2057 C2056 1.363 . S
C2057 C2063 1.428 . S
H2058 C2054 0.930 . S
H2059 C2056 0.929 . S
S2060 N2061 1.613 . S
S2060 N2062 1.610 . S
N2061 S2060 1.613 . S
N2061 C2064 1.350 . S
N2062 S2060 1.610 . S
N2062 C2063 1.351 . S
C2063 C2057 1.428 . S
C2063 N2062 1.351 . S
C2063 C2064 1.434 . S
C2064 C2055 1.429 . S
C2064 N2061 1.350 . S
C2064 C2063 1.434 . S
C2065 C2066 1.369 . S
C2065 C2067 1.419 . S
C2065 H2069 0.930 . S
C2066 C2065 1.369 . S
C2066 C2075 1.429 . S
C2067 C2065 1.419 . S
C2067 C2068 1.363 . S
C2067 H2070 0.929 . S
C2068 C2067 1.363 . S
C2068 C2074 1.428 . S
H2069 C2065 0.930 . S
H2070 C2067 0.929 . S
S2071 N2072 1.613 . S
S2071 N2073 1.610 . S
N2072 S2071 1.613 . S
N2072 C2075 1.350 . S
N2073 S2071 1.610 . S
N2073 C2074 1.351 . S
C2074 C2068 1.428 . S
C2074 N2073 1.351 . S
C2074 C2075 1.434 . S
C2075 C2066 1.429 . S
C2075 N2072 1.350 . S
C2075 C2074 1.434 . S
C2076 C2077 1.369 . S
C2076 C2078 1.419 . S
C2076 H2080 0.930 . S
C2077 C2076 1.369 . S
C2077 C2086 1.429 1_565 S
C2078 C2076 1.419 . S
C2078 C2079 1.363 1_565 S
C2078 H2081 0.929 . S
C2079 C2078 1.363 1_545 S
C2079 C2085 1.428 . S
H2080 C2076 0.930 . S
H2081 C2078 0.929 . S
S2082 N2083 1.613 . S
S2082 N2084 1.610 . S
N2083 S2082 1.613 . S
N2083 C2086 1.350 . S
N2084 S2082 1.610 . S
N2084 C2085 1.351 . S
C2085 C2079 1.428 . S
C2085 N2084 1.351 . S
C2085 C2086 1.434 . S
C2086 C2077 1.429 1_545 S
C2086 N2083 1.350 . S
C2086 C2085 1.434 . S
C2087 C2088 1.369 . S
C2087 C2089 1.419 . S
C2087 H2091 0.930 . S
C2088 C2087 1.369 . S
C2088 C2097 1.429 . S
C2089 C2087 1.419 . S
C2089 C2090 1.363 . S
C2089 H2092 0.929 . S
C2090 C2089 1.363 . S
C2090 C2096 1.428 . S
H2091 C2087 0.930 . S
H2092 C2089 0.929 . S
S2093 N2094 1.613 . S
S2093 N2095 1.610 . S
N2094 S2093 1.613 . S
N2094 C2097 1.350 . S
N2095 S2093 1.610 . S
N2095 C2096 1.351 . S
C2096 C2090 1.428 . S
C2096 N2095 1.351 . S
C2096 C2097 1.434 . S
C2097 C2088 1.429 . S
C2097 N2094 1.350 . S
C2097 C2096 1.434 . S
C2098 C2099 1.361 . S
C2098 C2100 1.421 . S
C2098 H2102 0.930 . S
C2099 C2098 1.361 . S
C2099 C2108 1.430 1_565 S
C2100 C2098 1.421 . S
C2100 C2101 1.364 1_565 S
C2100 H2103 0.926 . S
C2101 C2100 1.364 1_545 S
C2101 C2107 1.428 . S
H2102 C2098 0.930 . S
H2103 C2100 0.926 . S
S2104 N2105 1.613 . S
S2104 N2106 1.610 . S
N2105 S2104 1.613 . S
N2105 C2108 1.350 . S
N2106 S2104 1.610 . S
N2106 C2107 1.351 . S
C2107 C2101 1.428 . S
C2107 N2106 1.351 . S
C2107 C2108 1.434 . S
C2108 C2099 1.430 1_545 S
C2108 N2105 1.350 . S
C2108 C2107 1.434 . S
C2109 C2110 1.369 . S
C2109 C2111 1.419 . S
C2109 H2113 0.930 . S
C2110 C2109 1.369 . S
C2110 C2119 1.429 . S
C2111 C2109 1.419 . S
C2111 C2112 1.363 . S
C2111 H2114 0.929 . S
C2112 C2111 1.363 . S
C2112 C2118 1.428 . S
H2113 C2109 0.930 . S
H2114 C2111 0.929 . S
S2115 N2116 1.613 . S
S2115 N2117 1.610 . S
N2116 S2115 1.613 . S
N2116 C2119 1.350 . S
N2117 S2115 1.610 . S
N2117 C2118 1.351 . S
C2118 C2112 1.428 . S
C2118 N2117 1.351 . S
C2118 C2119 1.434 . S
C2119 C2110 1.429 . S
C2119 N2116 1.350 . S
C2119 C2118 1.434 . S
C2120 C2121 1.369 . S
C2120 C2122 1.419 . S
C2120 H2124 0.930 . S
C2121 C2120 1.369 . S
C2121 C2130 1.429 . S
C2122 C2120 1.419 . S
C2122 C2123 1.363 . S
C2122 H2125 0.929 . S
C2123 C2122 1.363 . S
C2123 C2129 1.428 1_554 S
H2124 C2120 0.930 . S
H2125 C2122 0.929 . S
S2126 N2127 1.613 . S
S2126 N2128 1.610 . S
N2127 S2126 1.613 . S
N2127 C2130 1.350 1_556 S
N2128 S2126 1.610 . S
N2128 C2129 1.351 . S
C2129 C2123 1.428 1_556 S
C2129 N2128 1.351 . S
C2129 C2130 1.434 1_556 S
C2130 C2121 1.429 . S
C2130 N2127 1.350 1_554 S
C2130 C2129 1.434 1_554 S
C2131 C2132 1.369 . S
C2131 C2133 1.419 . S
C2131 H2135 0.930 . S
C2132 C2131 1.369 . S
C2132 C2141 1.429 . S
C2133 C2131 1.419 . S
C2133 C2134 1.363 . S
C2133 H2136 0.929 . S
C2134 C2133 1.363 . S
C2134 C2140 1.428 . S
H2135 C2131 0.930 . S
H2136 C2133 0.929 . S
S2137 N2138 1.613 . S
S2137 N2139 1.610 . S
N2138 S2137 1.613 . S
N2138 C2141 1.350 . S
N2139 S2137 1.610 . S
N2139 C2140 1.351 . S
C2140 C2134 1.428 . S
C2140 N2139 1.351 . S
C2140 C2141 1.434 . S
C2141 C2132 1.429 . S
C2141 N2138 1.350 . S
C2141 C2140 1.434 . S
C2142 C2143 1.369 . S
C2142 C2144 1.419 . S
C2142 H2146 0.930 . S
C2143 C2142 1.369 . S
C2143 C2152 1.429 . S
C2144 C2142 1.419 . S
C2144 C2145 1.363 . S
C2144 H2147 0.929 . S
C2145 C2144 1.363 . S
C2145 C2151 1.428 . S
H2146 C2142 0.930 . S
H2147 C2144 0.929 . S
S2148 N2149 1.613 . S
S2148 N2150 1.610 . S
N2149 S2148 1.613 . S
N2149 C2152 1.350 . S
N2150 S2148 1.610 . S
N2150 C2151 1.351 . S
C2151 C2145 1.428 . S
C2151 N2150 1.351 . S
C2151 C2152 1.434 . S
C2152 C2143 1.429 . S
C2152 N2149 1.350 . S
C2152 C2151 1.434 . S
C2153 C2154 1.369 . S
C2153 C2155 1.419 . S
C2153 H2157 0.930 . S
C2154 C2153 1.369 . S
C2154 C2163 1.429 . S
C2155 C2153 1.419 . S
C2155 C2156 1.363 . S
C2155 H2158 0.929 . S
C2156 C2155 1.363 . S
C2156 C2162 1.428 . S
H2157 C2153 0.930 . S
H2158 C2155 0.929 . S
S2159 N2160 1.613 . S
S2159 N2161 1.610 . S
N2160 S2159 1.613 . S
N2160 C2163 1.350 . S
N2161 S2159 1.610 . S
N2161 C2162 1.351 . S
C2162 C2156 1.428 . S
C2162 N2161 1.351 . S
C2162 C2163 1.434 . S
C2163 C2154 1.429 . S
C2163 N2160 1.350 . S
C2163 C2162 1.434 . S
C2164 C2165 1.369 1_545 S
C2164 C2166 1.419 1_545 S
C2164 H2168 0.930 . S
C2165 C2164 1.369 1_565 S
C2165 C2174 1.429 . S
C2166 C2164 1.419 1_565 S
C2166 C2167 1.363 . S
C2166 H2169 0.929 1_565 S
C2167 C2166 1.363 . S
C2167 C2173 1.428 . S
H2168 C2164 0.930 . S
H2169 C2166 0.929 1_545 S
S2170 N2171 1.613 . S
S2170 N2172 1.610 . S
N2171 S2170 1.613 . S
N2171 C2174 1.350 . S
N2172 S2170 1.610 . S
N2172 C2173 1.351 . S
C2173 C2167 1.428 . S
C2173 N2172 1.351 . S
C2173 C2174 1.434 . S
C2174 C2165 1.429 . S
C2174 N2171 1.350 . S
C2174 C2173 1.434 . S
C2175 C2176 1.369 . S
C2175 C2177 1.419 . S
C2175 H2179 0.930 . S
C2176 C2175 1.369 . S
C2176 C2185 1.429 . S
C2177 C2175 1.419 . S
C2177 C2178 1.363 . S
C2177 H2180 0.929 . S
C2178 C2177 1.363 . S
C2178 C2184 1.428 . S
H2179 C2175 0.930 . S
H2180 C2177 0.929 . S
S2181 N2182 1.613 . S
S2181 N2183 1.610 . S
N2182 S2181 1.613 . S
N2182 C2185 1.350 . S
N2183 S2181 1.610 . S
N2183 C2184 1.351 . S
C2184 C2178 1.428 . S
C2184 N2183 1.351 . S
C2184 C2185 1.434 . S
C2185 C2176 1.429 . S
C2185 N2182 1.350 . S
C2185 C2184 1.434 . S
C2186 C2187 1.369 . S
C2186 C2188 1.419 . S
C2186 H2190 0.930 . S
C2187 C2186 1.369 . S
C2187 C2196 1.429 . S
C2188 C2186 1.419 . S
C2188 C2189 1.363 . S
C2188 H2191 0.929 . S
C2189 C2188 1.363 . S
C2189 C2195 1.428 . S
H2190 C2186 0.930 . S
H2191 C2188 0.929 . S
S2192 N2193 1.613 . S
S2192 N2194 1.610 . S
N2193 S2192 1.613 . S
N2193 C2196 1.350 . S
N2194 S2192 1.610 . S
N2194 C2195 1.351 . S
C2195 C2189 1.428 . S
C2195 N2194 1.351 . S
C2195 C2196 1.434 . S
C2196 C2187 1.429 . S
C2196 N2193 1.350 . S
C2196 C2195 1.434 . S
C2197 C2198 1.369 . S
C2197 C2199 1.419 . S
C2197 H2201 0.930 . S
C2198 C2197 1.369 . S
C2198 C2207 1.429 . S
C2199 C2197 1.419 . S
C2199 C2200 1.363 . S
C2199 H2202 0.929 . S
C2200 C2199 1.363 . S
C2200 C2206 1.428 . S
H2201 C2197 0.930 . S
H2202 C2199 0.929 . S
S2203 N2204 1.613 . S
S2203 N2205 1.610 . S
N2204 S2203 1.613 . S
N2204 C2207 1.350 . S
N2205 S2203 1.610 . S
N2205 C2206 1.351 . S
C2206 C2200 1.428 . S
C2206 N2205 1.351 . S
C2206 C2207 1.434 . S
C2207 C2198 1.429 . S
C2207 N2204 1.350 . S
C2207 C2206 1.434 . S
C2208 C2209 1.369 . S
C2208 C2210 1.419 . S
C2208 H2212 0.930 . S
C2209 C2208 1.369 . S
C2209 C2218 1.429 . S
C2210 C2208 1.419 . S
C2210 C2211 1.363 . S
C2210 H2213 0.929 . S
C2211 C2210 1.363 . S
C2211 C2217 1.428 . S
H2212 C2208 0.930 . S
H2213 C2210 0.929 . S
S2214 N2215 1.613 . S
S2214 N2216 1.610 . S
N2215 S2214 1.613 . S
N2215 C2218 1.350 . S
N2216 S2214 1.610 . S
N2216 C2217 1.351 . S
C2217 C2211 1.428 . S
C2217 N2216 1.351 . S
C2217 C2218 1.434 . S
C2218 C2209 1.429 . S
C2218 N2215 1.350 . S
C2218 C2217 1.434 . S
C2219 C2220 1.369 . S
C2219 C2221 1.419 . S
C2219 H2223 0.930 . S
C2220 C2219 1.369 . S
C2220 C2229 1.429 . S
C2221 C2219 1.419 . S
C2221 C2222 1.363 . S
C2221 H2224 0.929 . S
C2222 C2221 1.363 . S
C2222 C2228 1.428 . S
H2223 C2219 0.930 . S
H2224 C2221 0.929 . S
S2225 N2226 1.613 . S
S2225 N2227 1.610 . S
N2226 S2225 1.613 . S
N2226 C2229 1.350 . S
N2227 S2225 1.610 . S
N2227 C2228 1.351 . S
C2228 C2222 1.428 . S
C2228 N2227 1.351 . S
C2228 C2229 1.434 . S
C2229 C2220 1.429 . S
C2229 N2226 1.350 . S
C2229 C2228 1.434 . S
C2230 C2231 1.369 . S
C2230 C2232 1.419 . S
C2230 H2234 0.930 . S
C2231 C2230 1.369 . S
C2231 C2240 1.429 1_556 S
C2232 C2230 1.419 . S
C2232 C2233 1.363 1_556 S
C2232 H2235 0.929 . S
C2233 C2232 1.363 1_554 S
C2233 C2239 1.428 . S
H2234 C2230 0.930 . S
H2235 C2232 0.929 . S
S2236 N2237 1.613 . S
S2236 N2238 1.610 . S
N2237 S2236 1.613 . S
N2237 C2240 1.350 . S
N2238 S2236 1.610 . S
N2238 C2239 1.351 . S
C2239 C2233 1.428 . S
C2239 N2238 1.351 . S
C2239 C2240 1.434 . S
C2240 C2231 1.429 1_554 S
C2240 N2237 1.350 . S
C2240 C2239 1.434 . S
C2241 C2242 1.369 . S
C2241 C2243 1.419 . S
C2241 H2245 0.930 . S
C2242 C2241 1.369 . S
C2242 C2251 1.429 . S
C2243 C2241 1.419 . S
C2243 C2244 1.363 1_455 S
C2243 H2246 0.940 . S
C2244 C2243 1.363 1_655 S
C2244 C2250 1.428 . S
H2245 C2241 0.930 . S
H2246 C2243 0.940 . S
S2247 N2248 1.625 . S
S2247 N2249 1.596 1_455 S
N2248 S2247 1.625 . S
N2248 C2251 1.350 . S
N2249 S2247 1.596 1_655 S
N2249 C2250 1.351 . S
C2250 C2244 1.428 . S
C2250 N2249 1.351 . S
C2250 C2251 1.434 1_655 S
C2251 C2242 1.429 . S
C2251 N2248 1.350 . S
C2251 C2250 1.434 1_455 S
C2252 C2253 1.369 . S
C2252 C2254 1.419 . S
C2252 H2256 0.930 . S
C2253 C2252 1.369 . S
C2253 C2262 1.429 . S
C2254 C2252 1.419 . S
C2254 C2255 1.363 . S
C2254 H2257 0.929 . S
C2255 C2254 1.363 . S
C2255 C2261 1.428 . S
H2256 C2252 0.930 . S
H2257 C2254 0.929 . S
S2258 N2259 1.613 . S
S2258 N2260 1.610 . S
N2259 S2258 1.613 . S
N2259 C2262 1.350 . S
N2260 S2258 1.610 . S
N2260 C2261 1.351 . S
C2261 C2255 1.428 . S
C2261 N2260 1.351 . S
C2261 C2262 1.434 . S
C2262 C2253 1.429 . S
C2262 N2259 1.350 . S
C2262 C2261 1.434 . S
C2263 C2264 1.369 . S
C2263 C2265 1.419 . S
C2263 H2267 0.930 . S
C2264 C2263 1.369 . S
C2264 C2273 1.429 . S
C2265 C2263 1.419 . S
C2265 C2266 1.363 . S
C2265 H2268 0.929 . S
C2266 C2265 1.363 . S
C2266 C2272 1.428 . S
H2267 C2263 0.930 . S
H2268 C2265 0.929 . S
S2269 N2270 1.613 . S
S2269 N2271 1.610 . S
N2270 S2269 1.613 . S
N2270 C2273 1.350 . S
N2271 S2269 1.610 . S
N2271 C2272 1.351 . S
C2272 C2266 1.428 . S
C2272 N2271 1.351 . S
C2272 C2273 1.434 . S
C2273 C2264 1.429 . S
C2273 N2270 1.350 . S
C2273 C2272 1.434 . S
C2274 C2275 1.369 . S
C2274 C2276 1.419 1_655 S
C2274 H2278 0.930 . S
C2275 C2274 1.369 . S
C2275 C2284 1.429 1_655 S
C2276 C2274 1.419 1_455 S
C2276 C2277 1.363 . S
C2276 H2279 0.929 . S
C2277 C2276 1.363 . S
C2277 C2283 1.428 . S
H2278 C2274 0.930 . S
H2279 C2276 0.929 . S
S2280 N2281 1.613 . S
S2280 N2282 1.610 . S
N2281 S2280 1.613 . S
N2281 C2284 1.350 . S
N2282 S2280 1.610 . S
N2282 C2283 1.351 . S
C2283 C2277 1.428 . S
C2283 N2282 1.351 . S
C2283 C2284 1.434 . S
C2284 C2275 1.429 1_455 S
C2284 N2281 1.350 . S
C2284 C2283 1.434 . S
C2285 C2286 1.369 . S
C2285 C2287 1.419 . S
C2285 H2289 0.930 . S
C2286 C2285 1.369 . S
C2286 C2295 1.429 . S
C2287 C2285 1.419 . S
C2287 C2288 1.363 . S
C2287 H2290 0.929 . S
C2288 C2287 1.363 . S
C2288 C2294 1.428 . S
H2289 C2285 0.930 . S
H2290 C2287 0.929 . S
S2291 N2292 1.613 . S
S2291 N2293 1.610 . S
N2292 S2291 1.613 . S
N2292 C2295 1.350 . S
N2293 S2291 1.610 . S
N2293 C2294 1.351 . S
C2294 C2288 1.428 . S
C2294 N2293 1.351 . S
C2294 C2295 1.434 . S
C2295 C2286 1.429 . S
C2295 N2292 1.350 . S
C2295 C2294 1.434 . S
C2296 C2297 1.369 . S
C2296 C2298 1.419 . S
C2296 H2300 0.930 . S
C2297 C2296 1.369 . S
C2297 C2306 1.429 . S
C2298 C2296 1.419 . S
C2298 C2299 1.363 . S
C2298 H2301 0.929 . S
C2299 C2298 1.363 . S
C2299 C2305 1.428 . S
H2300 C2296 0.930 . S
H2301 C2298 0.929 . S
S2302 N2303 1.613 . S
S2302 N2304 1.610 . S
N2303 S2302 1.613 . S
N2303 C2306 1.350 . S
N2304 S2302 1.610 . S
N2304 C2305 1.351 . S
C2305 C2299 1.428 . S
C2305 N2304 1.351 . S
C2305 C2306 1.434 . S
C2306 C2297 1.429 . S
C2306 N2303 1.350 . S
C2306 C2305 1.434 . S
C2307 C2308 1.369 . S
C2307 C2309 1.419 . S
C2307 H2311 0.930 . S
C2308 C2307 1.369 . S
C2308 C2317 1.429 . S
C2309 C2307 1.419 . S
C2309 C2310 1.363 . S
C2309 H2312 0.929 . S
C2310 C2309 1.363 . S
C2310 C2316 1.428 . S
H2311 C2307 0.930 . S
H2312 C2309 0.929 . S
S2313 N2314 1.613 . S
S2313 N2315 1.610 . S
N2314 S2313 1.613 . S
N2314 C2317 1.350 . S
N2315 S2313 1.610 . S
N2315 C2316 1.351 . S
C2316 C2310 1.428 . S
C2316 N2315 1.351 . S
C2316 C2317 1.434 . S
C2317 C2308 1.429 . S
C2317 N2314 1.350 . S
C2317 C2316 1.434 . S
C2318 C2319 1.369 . S
C2318 C2320 1.419 . S
C2318 H2322 0.930 . S
C2319 C2318 1.369 . S
C2319 C2328 1.429 . S
C2320 C2318 1.419 . S
C2320 C2321 1.363 . S
C2320 H2323 0.929 . S
C2321 C2320 1.363 . S
C2321 C2327 1.428 . S
H2322 C2318 0.930 . S
H2323 C2320 0.929 . S
S2324 N2325 1.613 . S
S2324 N2326 1.610 . S
N2325 S2324 1.613 . S
N2325 C2328 1.350 . S
N2326 S2324 1.610 . S
N2326 C2327 1.351 . S
C2327 C2321 1.428 . S
C2327 N2326 1.351 . S
C2327 C2328 1.434 . S
C2328 C2319 1.429 . S
C2328 N2325 1.350 . S
C2328 C2327 1.434 . S
C2329 C2330 1.369 . S
C2329 C2331 1.419 . S
C2329 H2333 0.930 . S
C2330 C2329 1.369 . S
C2330 C2339 1.429 . S
C2331 C2329 1.419 . S
C2331 C2332 1.363 . S
C2331 H2334 0.929 . S
C2332 C2331 1.363 . S
C2332 C2338 1.428 . S
H2333 C2329 0.930 . S
H2334 C2331 0.929 . S
S2335 N2336 1.613 . S
S2335 N2337 1.610 . S
N2336 S2335 1.613 . S
N2336 C2339 1.350 . S
N2337 S2335 1.610 . S
N2337 C2338 1.351 . S
C2338 C2332 1.428 . S
C2338 N2337 1.351 . S
C2338 C2339 1.434 . S
C2339 C2330 1.429 . S
C2339 N2336 1.350 . S
C2339 C2338 1.434 . S
C2340 C2341 1.369 . S
C2340 C2342 1.419 . S
C2340 H2344 0.930 . S
C2341 C2340 1.369 . S
C2341 C2350 1.429 . S
C2342 C2340 1.419 . S
C2342 C2343 1.363 . S
C2342 H2345 0.929 . S
C2343 C2342 1.363 . S
C2343 C2349 1.428 . S
H2344 C2340 0.930 . S
H2345 C2342 0.929 . S
S2346 N2347 1.613 . S
S2346 N2348 1.610 . S
N2347 S2346 1.613 . S
N2347 C2350 1.350 . S
N2348 S2346 1.610 . S
N2348 C2349 1.351 . S
C2349 C2343 1.428 . S
C2349 N2348 1.351 . S
C2349 C2350 1.434 . S
C2350 C2341 1.429 . S
C2350 N2347 1.350 . S
C2350 C2349 1.434 . S
C2351 C2352 1.369 . S
C2351 C2353 1.419 . S
C2351 H2355 0.930 . S
C2352 C2351 1.369 . S
C2352 C2361 1.429 . S
C2353 C2351 1.419 . S
C2353 C2354 1.363 . S
C2353 H2356 0.929 . S
C2354 C2353 1.363 . S
C2354 C2360 1.428 . S
H2355 C2351 0.930 . S
H2356 C2353 0.929 . S
S2357 N2358 1.613 . S
S2357 N2359 1.610 . S
N2358 S2357 1.613 . S
N2358 C2361 1.350 . S
N2359 S2357 1.610 . S
N2359 C2360 1.351 . S
C2360 C2354 1.428 . S
C2360 N2359 1.351 . S
C2360 C2361 1.434 . S
C2361 C2352 1.429 . S
C2361 N2358 1.350 . S
C2361 C2360 1.434 . S
C2362 C2363 1.369 . S
C2362 C2364 1.419 . S
C2362 H2366 0.930 . S
C2363 C2362 1.369 . S
C2363 C2372 1.429 . S
C2364 C2362 1.419 . S
C2364 C2365 1.363 . S
C2364 H2367 0.929 . S
C2365 C2364 1.363 . S
C2365 C2371 1.428 . S
H2366 C2362 0.930 . S
H2367 C2364 0.929 . S
S2368 N2369 1.613 . S
S2368 N2370 1.610 . S
N2369 S2368 1.613 . S
N2369 C2372 1.350 . S
N2370 S2368 1.610 . S
N2370 C2371 1.351 . S
C2371 C2365 1.428 . S
C2371 N2370 1.351 . S
C2371 C2372 1.434 . S
C2372 C2363 1.429 . S
C2372 N2369 1.350 . S
C2372 C2371 1.434 . S
C2373 C2374 1.369 . S
C2373 C2375 1.419 . S
C2373 H2377 0.930 . S
C2374 C2373 1.369 . S
C2374 C2383 1.429 . S
C2375 C2373 1.419 . S
C2375 C2376 1.363 . S
C2375 H2378 0.929 . S
C2376 C2375 1.363 . S
C2376 C2382 1.428 . S
H2377 C2373 0.930 . S
H2378 C2375 0.929 . S
S2379 N2380 1.613 . S
S2379 N2381 1.610 . S
N2380 S2379 1.613 . S
N2380 C2383 1.350 . S
N2381 S2379 1.610 . S
N2381 C2382 1.351 . S
C2382 C2376 1.428 . S
C2382 N2381 1.351 . S
C2382 C2383 1.434 . S
C2383 C2374 1.429 . S
C2383 N2380 1.350 . S
C2383 C2382 1.434 . S
C2384 C2385 1.369 . S
C2384 C2386 1.419 . S
C2384 H2388 0.930 . S
C2385 C2384 1.369 . S
C2385 C2394 1.429 . S
C2386 C2384 1.419 . S
C2386 C2387 1.363 . S
C2386 H2389 0.929 . S
C2387 C2386 1.363 . S
C2387 C2393 1.428 . S
H2388 C2384 0.930 . S
H2389 C2386 0.929 . S
S2390 N2391 1.613 . S
S2390 N2392 1.610 . S
N2391 S2390 1.613 . S
N2391 C2394 1.350 . S
N2392 S2390 1.610 . S
N2392 C2393 1.351 . S
C2393 C2387 1.428 . S
C2393 N2392 1.351 . S
C2393 C2394 1.434 . S
C2394 C2385 1.429 . S
C2394 N2391 1.350 . S
C2394 C2393 1.434 . S
C2395 C2396 1.369 . S
C2395 C2397 1.419 . S
C2395 H2399 0.930 . S
C2396 C2395 1.369 . S
C2396 C2405 1.429 . S
C2397 C2395 1.419 . S
C2397 C2398 1.363 . S
C2397 H2400 0.929 . S
C2398 C2397 1.363 . S
C2398 C2404 1.428 . S
H2399 C2395 0.930 . S
H2400 C2397 0.929 . S
S2401 N2402 1.613 . S
S2401 N2403 1.610 . S
N2402 S2401 1.613 . S
N2402 C2405 1.350 . S
N2403 S2401 1.610 . S
N2403 C2404 1.351 . S
C2404 C2398 1.428 . S
C2404 N2403 1.351 . S
C2404 C2405 1.434 . S
C2405 C2396 1.429 . S
C2405 N2402 1.350 . S
C2405 C2404 1.434 . S
C2406 C2407 1.369 . S
C2406 C2408 1.419 . S
C2406 H2410 0.930 . S
C2407 C2406 1.369 . S
C2407 C2416 1.429 . S
C2408 C2406 1.419 . S
C2408 C2409 1.363 . S
C2408 H2411 0.929 . S
C2409 C2408 1.363 . S
C2409 C2415 1.428 . S
H2410 C2406 0.930 . S
H2411 C2408 0.929 . S
S2412 N2413 1.613 . S
S2412 N2414 1.610 . S
N2413 S2412 1.613 . S
N2413 C2416 1.350 . S
N2414 S2412 1.610 . S
N2414 C2415 1.351 . S
C2415 C2409 1.428 . S
C2415 N2414 1.351 . S
C2415 C2416 1.434 . S
C2416 C2407 1.429 . S
C2416 N2413 1.350 . S
C2416 C2415 1.434 . S
C2417 C2418 1.369 1_546 S
C2417 C2419 1.419 1_556 S
C2417 H2421 0.930 . S
C2418 C2417 1.369 1_564 S
C2418 C2427 1.429 . S
C2419 C2417 1.419 1_554 S
C2419 C2420 1.363 . S
C2419 H2422 0.929 1_554 S
C2420 C2419 1.363 . S
C2420 C2426 1.428 1_545 S
H2421 C2417 0.930 . S
H2422 C2419 0.929 1_556 S
S2423 N2424 1.613 . S
S2423 N2425 1.610 . S
N2424 S2423 1.613 . S
N2424 C2427 1.350 . S
N2425 S2423 1.610 . S
N2425 C2426 1.351 . S
C2426 C2420 1.428 1_565 S
C2426 N2425 1.351 . S
C2426 C2427 1.434 . S
C2427 C2418 1.429 . S
C2427 N2424 1.350 . S
C2427 C2426 1.434 . S
C2428 C2429 1.369 . S
C2428 C2430 1.419 . S
C2428 H2432 0.930 . S
C2429 C2428 1.369 . S
C2429 C2438 1.429 . S
C2430 C2428 1.419 . S
C2430 C2431 1.363 . S
C2430 H2433 0.929 . S
C2431 C2430 1.363 . S
C2431 C2437 1.428 . S
H2432 C2428 0.930 . S
H2433 C2430 0.929 . S
S2434 N2435 1.613 . S
S2434 N2436 1.610 . S
N2435 S2434 1.613 . S
N2435 C2438 1.350 . S
N2436 S2434 1.610 . S
N2436 C2437 1.351 . S
C2437 C2431 1.428 . S
C2437 N2436 1.351 . S
C2437 C2438 1.434 . S
C2438 C2429 1.429 . S
C2438 N2435 1.350 . S
C2438 C2437 1.434 . S
C2439 C2440 1.369 . S
C2439 C2441 1.419 . S
C2439 H2443 0.930 . S
C2440 C2439 1.369 . S
C2440 C2449 1.429 1_554 S
C2441 C2439 1.419 . S
C2441 C2442 1.363 . S
C2441 H2444 0.929 . S
C2442 C2441 1.363 . S
C2442 C2448 1.432 . S
H2443 C2439 0.930 . S
H2444 C2441 0.929 . S
S2445 N2446 1.613 . S
S2445 N2447 1.610 . S
N2446 S2445 1.613 . S
N2446 C2449 1.350 . S
N2447 S2445 1.610 . S
N2447 C2448 1.349 1_556 S
C2448 C2442 1.432 . S
C2448 N2447 1.349 1_554 S
C2448 C2449 1.432 1_554 S
C2449 C2440 1.429 1_556 S
C2449 N2446 1.350 . S
C2449 C2448 1.432 1_556 S
C2450 C2451 1.369 . S
C2450 C2452 1.419 . S
C2450 H2454 0.930 . S
C2451 C2450 1.369 . S
C2451 C2460 1.429 . S
C2452 C2450 1.419 . S
C2452 C2453 1.363 . S
C2452 H2455 0.929 . S
C2453 C2452 1.363 . S
C2453 C2459 1.428 . S
H2454 C2450 0.930 . S
H2455 C2452 0.929 . S
S2456 N2457 1.613 . S
S2456 N2458 1.610 . S
N2457 S2456 1.613 . S
N2457 C2460 1.350 . S
N2458 S2456 1.610 . S
N2458 C2459 1.351 . S
C2459 C2453 1.428 . S
C2459 N2458 1.351 . S
C2459 C2460 1.434 . S
C2460 C2451 1.429 . S
C2460 N2457 1.350 . S
C2460 C2459 1.434 . S
C2461 C2462 1.369 . S
C2461 C2463 1.419 . S
C2461 H2465 0.930 . S
C2462 C2461 1.369 . S
C2462 C2471 1.429 . S
C2463 C2461 1.419 . S
C2463 C2464 1.363 . S
C2463 H2466 0.929 . S
C2464 C2463 1.363 . S
C2464 C2470 1.428 . S
H2465 C2461 0.930 . S
H2466 C2463 0.929 . S
S2467 N2468 1.613 . S
S2467 N2469 1.610 . S
N2468 S2467 1.613 . S
N2468 C2471 1.350 . S
N2469 S2467 1.610 . S
N2469 C2470 1.351 . S
C2470 C2464 1.428 . S
C2470 N2469 1.351 . S
C2470 C2471 1.434 . S
C2471 C2462 1.429 . S
C2471 N2468 1.350 . S
C2471 C2470 1.434 . S
C2472 C2473 1.369 . S
C2472 C2474 1.419 . S
C2472 H2476 0.930 . S
C2473 C2472 1.369 . S
C2473 C2482 1.429 . S
C2474 C2472 1.419 . S
C2474 C2475 1.363 . S
C2474 H2477 0.929 . S
C2475 C2474 1.363 . S
C2475 C2481 1.428 . S
H2476 C2472 0.930 . S
H2477 C2474 0.929 . S
S2478 N2479 1.613 . S
S2478 N2480 1.610 . S
N2479 S2478 1.613 . S
N2479 C2482 1.350 . S
N2480 S2478 1.610 . S
N2480 C2481 1.351 . S
C2481 C2475 1.428 . S
C2481 N2480 1.351 . S
C2481 C2482 1.434 . S
C2482 C2473 1.429 . S
C2482 N2479 1.350 . S
C2482 C2481 1.434 . S
C2483 C2484 1.369 . S
C2483 C2485 1.419 . S
C2483 H2487 0.930 . S
C2484 C2483 1.369 . S
C2484 C2493 1.429 . S
C2485 C2483 1.419 . S
C2485 C2486 1.363 . S
C2485 H2488 0.929 . S
C2486 C2485 1.363 . S
C2486 C2492 1.428 . S
H2487 C2483 0.930 . S
H2488 C2485 0.929 . S
S2489 N2490 1.613 . S
S2489 N2491 1.610 . S
N2490 S2489 1.613 . S
N2490 C2493 1.350 . S
N2491 S2489 1.610 . S
N2491 C2492 1.351 . S
C2492 C2486 1.428 . S
C2492 N2491 1.351 . S
C2492 C2493 1.434 . S
C2493 C2484 1.429 . S
C2493 N2490 1.350 . S
C2493 C2492 1.434 . S
C2494 C2495 1.369 . S
C2494 C2496 1.419 . S
C2494 H2498 0.930 . S
C2495 C2494 1.369 . S
C2495 C2504 1.429 . S
C2496 C2494 1.419 . S
C2496 C2497 1.363 . S
C2496 H2499 0.929 . S
C2497 C2496 1.363 . S
C2497 C2503 1.428 . S
H2498 C2494 0.930 . S
H2499 C2496 0.929 . S
S2500 N2501 1.595 1_556 S
S2500 N2502 1.610 . S
N2501 S2500 1.595 1_554 S
N2501 C2504 1.376 . S
N2502 S2500 1.610 . S
N2502 C2503 1.351 1_556 S
C2503 C2497 1.428 . S
C2503 N2502 1.351 1_554 S
C2503 C2504 1.434 . S
C2504 C2495 1.429 . S
C2504 N2501 1.376 . S
C2504 C2503 1.434 . S
C2505 C2506 1.369 . S
C2505 C2507 1.419 . S
C2505 H2509 0.930 . S
C2506 C2505 1.369 . S
C2506 C2515 1.429 . S
C2507 C2505 1.419 . S
C2507 C2508 1.363 . S
C2507 H2510 0.929 . S
C2508 C2507 1.363 . S
C2508 C2514 1.428 . S
H2509 C2505 0.930 . S
H2510 C2507 0.929 . S
S2511 N2512 1.613 . S
S2511 N2513 1.610 . S
N2512 S2511 1.613 . S
N2512 C2515 1.350 . S
N2513 S2511 1.610 . S
N2513 C2514 1.351 . S
C2514 C2508 1.428 . S
C2514 N2513 1.351 . S
C2514 C2515 1.434 . S
C2515 C2506 1.429 . S
C2515 N2512 1.350 . S
C2515 C2514 1.434 . S
C2516 C2517 1.369 . S
C2516 C2518 1.419 . S
C2516 H2520 0.930 . S
C2517 C2516 1.369 . S
C2517 C2526 1.429 . S
C2518 C2516 1.419 . S
C2518 C2519 1.363 . S
C2518 H2521 0.929 . S
C2519 C2518 1.363 . S
C2519 C2525 1.428 . S
H2520 C2516 0.930 . S
H2521 C2518 0.929 . S
S2522 N2523 1.613 . S
S2522 N2524 1.610 . S
N2523 S2522 1.613 . S
N2523 C2526 1.350 . S
N2524 S2522 1.610 . S
N2524 C2525 1.351 . S
C2525 C2519 1.428 . S
C2525 N2524 1.351 . S
C2525 C2526 1.434 . S
C2526 C2517 1.429 . S
C2526 N2523 1.350 . S
C2526 C2525 1.434 . S
C2527 C2528 1.369 . S
C2527 C2529 1.419 . S
C2527 H2531 0.930 . S
C2528 C2527 1.369 . S
C2528 C2537 1.429 . S
C2529 C2527 1.419 . S
C2529 C2530 1.363 . S
C2529 H2532 0.929 . S
C2530 C2529 1.363 . S
C2530 C2536 1.428 . S
H2531 C2527 0.930 . S
H2532 C2529 0.929 . S
S2533 N2534 1.613 . S
S2533 N2535 1.610 . S
N2534 S2533 1.613 . S
N2534 C2537 1.350 . S
N2535 S2533 1.610 . S
N2535 C2536 1.351 . S
C2536 C2530 1.428 . S
C2536 N2535 1.351 . S
C2536 C2537 1.434 . S
C2537 C2528 1.429 . S
C2537 N2534 1.350 . S
C2537 C2536 1.434 . S
C2538 C2539 1.369 . S
C2538 C2540 1.419 . S
C2538 H2542 0.930 . S
C2539 C2538 1.369 . S
C2539 C2548 1.429 . S
C2540 C2538 1.419 . S
C2540 C2541 1.363 . S
C2540 H2543 0.929 . S
C2541 C2540 1.363 . S
C2541 C2547 1.428 . S
H2542 C2538 0.930 . S
H2543 C2540 0.929 . S
S2544 N2545 1.613 . S
S2544 N2546 1.610 . S
N2545 S2544 1.613 . S
N2545 C2548 1.350 . S
N2546 S2544 1.610 . S
N2546 C2547 1.351 . S
C2547 C2541 1.428 . S
C2547 N2546 1.351 . S
C2547 C2548 1.434 . S
C2548 C2539 1.429 . S
C2548 N2545 1.350 . S
C2548 C2547 1.434 . S
C2549 C2550 1.369 . S
C2549 C2551 1.419 . S
C2549 H2553 0.930 . S
C2550 C2549 1.369 . S
C2550 C2559 1.429 . S
C2551 C2549 1.419 . S
C2551 C2552 1.363 . S
C2551 H2554 0.929 . S
C2552 C2551 1.363 . S
C2552 C2558 1.428 . S
H2553 C2549 0.930 . S
H2554 C2551 0.929 . S
S2555 N2556 1.613 . S
S2555 N2557 1.610 . S
N2556 S2555 1.613 . S
N2556 C2559 1.350 . S
N2557 S2555 1.610 . S
N2557 C2558 1.351 . S
C2558 C2552 1.428 . S
C2558 N2557 1.351 . S
C2558 C2559 1.434 . S
C2559 C2550 1.429 . S
C2559 N2556 1.350 . S
C2559 C2558 1.434 . S
C2560 C2561 1.369 . S
C2560 C2562 1.419 . S
C2560 H2564 0.930 . S
C2561 C2560 1.369 . S
C2561 C2570 1.429 . S
C2562 C2560 1.419 . S
C2562 C2563 1.363 . S
C2562 H2565 0.929 . S
C2563 C2562 1.363 . S
C2563 C2569 1.428 . S
H2564 C2560 0.930 . S
H2565 C2562 0.929 . S
S2566 N2567 1.613 . S
S2566 N2568 1.610 . S
N2567 S2566 1.613 . S
N2567 C2570 1.350 . S
N2568 S2566 1.610 . S
N2568 C2569 1.351 . S
C2569 C2563 1.428 . S
C2569 N2568 1.351 . S
C2569 C2570 1.434 . S
C2570 C2561 1.429 . S
C2570 N2567 1.350 . S
C2570 C2569 1.434 . S
C2571 C2572 1.369 . S
C2571 C2573 1.419 . S
C2571 H2575 0.930 . S
C2572 C2571 1.369 . S
C2572 C2581 1.429 . S
C2573 C2571 1.419 . S
C2573 C2574 1.363 . S
C2573 H2576 0.929 . S
C2574 C2573 1.363 . S
C2574 C2580 1.428 . S
H2575 C2571 0.930 . S
H2576 C2573 0.929 . S
S2577 N2578 1.613 . S
S2577 N2579 1.610 . S
N2578 S2577 1.613 . S
N2578 C2581 1.350 . S
N2579 S2577 1.610 . S
N2579 C2580 1.351 . S
C2580 C2574 1.428 . S
C2580 N2579 1.351 . S
C2580 C2581 1.434 . S
C2581 C2572 1.429 . S
C2581 N2578 1.350 . S
C2581 C2580 1.434 . S
C2582 C2583 1.369 . S
C2582 C2584 1.419 1_655 S
C2582 H2586 0.930 . S
C2583 C2582 1.369 . S
C2583 C2592 1.429 . S
C2584 C2582 1.419 1_455 S
C2584 C2585 1.363 . S
C2584 H2587 0.929 . S
C2585 C2584 1.363 . S
C2585 C2591 1.428 . S
H2586 C2582 0.930 . S
H2587 C2584 0.929 . S
S2588 N2589 1.613 . S
S2588 N2590 1.610 1_655 S
N2589 S2588 1.613 . S
N2589 C2592 1.350 . S
N2590 S2588 1.610 1_455 S
N2590 C2591 1.351 . S
C2591 C2585 1.428 . S
C2591 N2590 1.351 . S
C2591 C2592 1.434 1_455 S
C2592 C2583 1.429 . S
C2592 N2589 1.350 . S
C2592 C2591 1.434 1_655 S
C2593 C2594 1.369 . S
C2593 C2595 1.419 . S
C2593 H2597 0.930 . S
C2594 C2593 1.369 . S
C2594 C2603 1.429 . S
C2595 C2593 1.419 . S
C2595 C2596 1.363 . S
C2595 H2598 0.929 . S
C2596 C2595 1.363 . S
C2596 C2602 1.428 . S
H2597 C2593 0.930 . S
H2598 C2595 0.929 . S
S2599 N2600 1.613 . S
S2599 N2601 1.610 . S
N2600 S2599 1.613 . S
N2600 C2603 1.350 . S
N2601 S2599 1.610 . S
N2601 C2602 1.351 . S
C2602 C2596 1.428 . S
C2602 N2601 1.351 . S
C2602 C2603 1.434 . S
C2603 C2594 1.429 . S
C2603 N2600 1.350 . S
C2603 C2602 1.434 . S
C2604 C2605 1.369 . S
C2604 C2606 1.419 . S
C2604 H2608 0.930 . S
C2605 C2604 1.369 . S
C2605 C2614 1.429 . S
C2606 C2604 1.419 . S
C2606 C2607 1.363 . S
C2606 H2609 0.929 . S
C2607 C2606 1.363 . S
C2607 C2613 1.428 . S
H2608 C2604 0.930 . S
H2609 C2606 0.929 . S
S2610 N2611 1.613 . S
S2610 N2612 1.610 . S
N2611 S2610 1.613 . S
N2611 C2614 1.350 . S
N2612 S2610 1.610 . S
N2612 C2613 1.351 . S
C2613 C2607 1.428 . S
C2613 N2612 1.351 . S
C2613 C2614 1.434 . S
C2614 C2605 1.429 . S
C2614 N2611 1.350 . S
C2614 C2613 1.434 . S
C2615 C2616 1.369 . S
C2615 C2617 1.419 . S
C2615 H2619 0.930 . S
C2616 C2615 1.369 . S
C2616 C2625 1.429 . S
C2617 C2615 1.419 . S
C2617 C2618 1.363 . S
C2617 H2620 0.929 . S
C2618 C2617 1.363 . S
C2618 C2624 1.428 . S
H2619 C2615 0.930 . S
H2620 C2617 0.929 . S
S2621 N2622 1.613 . S
S2621 N2623 1.610 . S
N2622 S2621 1.613 . S
N2622 C2625 1.350 . S
N2623 S2621 1.610 . S
N2623 C2624 1.351 . S
C2624 C2618 1.428 . S
C2624 N2623 1.351 . S
C2624 C2625 1.434 . S
C2625 C2616 1.429 . S
C2625 N2622 1.350 . S
C2625 C2624 1.434 . S
C2626 C2627 1.369 . S
C2626 C2628 1.419 . S
C2626 H2630 0.930 . S
C2627 C2626 1.369 . S
C2627 C2636 1.429 . S
C2628 C2626 1.419 . S
C2628 C2629 1.363 . S
C2628 H2631 0.929 . S
C2629 C2628 1.363 . S
C2629 C2635 1.428 . S
H2630 C2626 0.930 . S
H2631 C2628 0.929 . S
S2632 N2633 1.613 . S
S2632 N2634 1.610 . S
N2633 S2632 1.613 . S
N2633 C2636 1.350 . S
N2634 S2632 1.610 . S
N2634 C2635 1.351 . S
C2635 C2629 1.428 . S
C2635 N2634 1.351 . S
C2635 C2636 1.434 . S
C2636 C2627 1.429 . S
C2636 N2633 1.350 . S
C2636 C2635 1.434 . S
C2637 C2638 1.369 . S
C2637 C2639 1.419 . S
C2637 H2641 0.930 . S
C2638 C2637 1.369 . S
C2638 C2647 1.429 . S
C2639 C2637 1.419 . S
C2639 C2640 1.363 . S
C2639 H2642 0.929 . S
C2640 C2639 1.363 . S
C2640 C2646 1.428 . S
H2641 C2637 0.930 . S
H2642 C2639 0.929 . S
S2643 N2644 1.613 . S
S2643 N2645 1.610 . S
N2644 S2643 1.613 . S
N2644 C2647 1.350 . S
N2645 S2643 1.610 . S
N2645 C2646 1.351 . S
C2646 C2640 1.428 . S
C2646 N2645 1.351 . S
C2646 C2647 1.434 . S
C2647 C2638 1.429 . S
C2647 N2644 1.350 . S
C2647 C2646 1.434 . S
C2648 C2649 1.369 . S
C2648 C2650 1.419 . S
C2648 H2652 0.930 . S
C2649 C2648 1.369 . S
C2649 C2658 1.429 . S
C2650 C2648 1.419 . S
C2650 C2651 1.363 . S
C2650 H2653 0.929 . S
C2651 C2650 1.363 . S
C2651 C2657 1.428 . S
H2652 C2648 0.930 . S
H2653 C2650 0.929 . S
S2654 N2655 1.613 . S
S2654 N2656 1.610 . S
N2655 S2654 1.613 . S
N2655 C2658 1.350 . S
N2656 S2654 1.610 . S
N2656 C2657 1.351 . S
C2657 C2651 1.428 . S
C2657 N2656 1.351 . S
C2657 C2658 1.434 . S
C2658 C2649 1.429 . S
C2658 N2655 1.350 . S
C2658 C2657 1.434 . S
C2659 C2660 1.369 . S
C2659 C2661 1.419 . S
C2659 H2663 0.930 . S
C2660 C2659 1.369 . S
C2660 C2669 1.429 . S
C2661 C2659 1.419 . S
C2661 C2662 1.363 . S
C2661 H2664 0.929 . S
C2662 C2661 1.363 . S
C2662 C2668 1.428 . S
H2663 C2659 0.930 . S
H2664 C2661 0.929 . S
S2665 N2666 1.613 1_545 S
S2665 N2667 1.610 . S
N2666 S2665 1.613 1_565 S
N2666 C2669 1.350 . S
N2667 S2665 1.610 . S
N2667 C2668 1.351 1_545 S
C2668 C2662 1.428 . S
C2668 N2667 1.351 1_565 S
C2668 C2669 1.434 . S
C2669 C2660 1.429 . S
C2669 N2666 1.350 . S
C2669 C2668 1.434 . S
C2670 C2671 1.369 . S
C2670 C2672 1.419 . S
C2670 H2674 0.930 . S
C2671 C2670 1.369 . S
C2671 C2680 1.429 . S
C2672 C2670 1.419 . S
C2672 C2673 1.363 . S
C2672 H2675 0.929 . S
C2673 C2672 1.363 . S
C2673 C2679 1.428 . S
H2674 C2670 0.930 . S
H2675 C2672 0.929 . S
S2676 N2677 1.613 . S
S2676 N2678 1.610 . S
N2677 S2676 1.613 . S
N2677 C2680 1.350 . S
N2678 S2676 1.610 . S
N2678 C2679 1.351 . S
C2679 C2673 1.428 . S
C2679 N2678 1.351 . S
C2679 C2680 1.434 . S
C2680 C2671 1.429 . S
C2680 N2677 1.350 . S
C2680 C2679 1.434 . S
C2681 C2682 1.369 . S
C2681 C2683 1.419 . S
C2681 H2685 0.930 . S
C2682 C2681 1.369 . S
C2682 C2691 1.429 . S
C2683 C2681 1.419 . S
C2683 C2684 1.363 . S
C2683 H2686 0.929 . S
C2684 C2683 1.363 . S
C2684 C2690 1.428 . S
H2685 C2681 0.930 . S
H2686 C2683 0.929 . S
S2687 N2688 1.626 . S
S2687 N2689 1.620 . S
N2688 S2687 1.626 . S
N2688 C2691 1.350 1_556 S
N2689 S2687 1.620 . S
N2689 C2690 1.351 1_556 S
C2690 C2684 1.428 . S
C2690 N2689 1.351 1_554 S
C2690 C2691 1.434 . S
C2691 C2682 1.429 . S
C2691 N2688 1.350 1_554 S
C2691 C2690 1.434 . S
C2692 C2693 1.369 . S
C2692 C2694 1.419 . S
C2692 H2696 0.930 . S
C2693 C2692 1.369 . S
C2693 C2702 1.429 . S
C2694 C2692 1.419 . S
C2694 C2695 1.363 . S
C2694 H2697 0.929 . S
C2695 C2694 1.363 . S
C2695 C2701 1.428 . S
H2696 C2692 0.930 . S
H2697 C2694 0.929 . S
S2698 N2699 1.613 . S
S2698 N2700 1.610 . S
N2699 S2698 1.613 . S
N2699 C2702 1.350 . S
N2700 S2698 1.610 . S
N2700 C2701 1.351 . S
C2701 C2695 1.428 . S
C2701 N2700 1.351 . S
C2701 C2702 1.434 . S
C2702 C2693 1.429 . S
C2702 N2699 1.350 . S
C2702 C2701 1.434 . S
C2703 C2704 1.369 . S
C2703 C2705 1.419 1_554 S
C2703 H2707 0.930 1_554 S
C2704 C2703 1.369 . S
C2704 C2713 1.429 . S
C2705 C2703 1.419 1_556 S
C2705 C2706 1.363 1_556 S
C2705 H2708 0.929 . S
C2706 C2705 1.363 1_554 S
C2706 C2712 1.428 . S
H2707 C2703 0.930 1_556 S
H2708 C2705 0.929 . S
S2709 N2710 1.613 . S
S2709 N2711 1.610 . S
N2710 S2709 1.613 . S
N2710 C2713 1.350 . S
N2711 S2709 1.610 . S
N2711 C2712 1.351 . S
C2712 C2706 1.428 . S
C2712 N2711 1.351 . S
C2712 C2713 1.434 . S
C2713 C2704 1.429 . S
C2713 N2710 1.350 . S
C2713 C2712 1.434 . S
C2714 C2715 1.369 . S
C2714 C2716 1.419 . S
C2714 H2718 0.930 . S
C2715 C2714 1.369 . S
C2715 C2724 1.429 . S
C2716 C2714 1.419 . S
C2716 C2717 1.363 . S
C2716 H2719 0.929 . S
C2717 C2716 1.363 . S
C2717 C2723 1.428 . S
H2718 C2714 0.930 . S
H2719 C2716 0.929 . S
S2720 N2721 1.613 . S
S2720 N2722 1.610 . S
N2721 S2720 1.613 . S
N2721 C2724 1.350 . S
N2722 S2720 1.610 . S
N2722 C2723 1.351 . S
C2723 C2717 1.428 . S
C2723 N2722 1.351 . S
C2723 C2724 1.434 . S
C2724 C2715 1.429 . S
C2724 N2721 1.350 . S
C2724 C2723 1.434 . S
C2725 C2726 1.369 . S
C2725 C2727 1.419 . S
C2725 H2729 0.930 . S
C2726 C2725 1.369 . S
C2726 C2735 1.429 . S
C2727 C2725 1.419 . S
C2727 C2728 1.363 . S
C2727 H2730 0.929 . S
C2728 C2727 1.363 . S
C2728 C2734 1.428 . S
H2729 C2725 0.930 . S
H2730 C2727 0.929 . S
S2731 N2732 1.613 . S
S2731 N2733 1.610 . S
N2732 S2731 1.613 . S
N2732 C2735 1.350 . S
N2733 S2731 1.610 . S
N2733 C2734 1.351 . S
C2734 C2728 1.428 . S
C2734 N2733 1.351 . S
C2734 C2735 1.434 . S
C2735 C2726 1.429 . S
C2735 N2732 1.350 . S
C2735 C2734 1.434 . S
C1681 C109 1.985 . S
C1683 C392 1.840 . S
C1692 C65 2.262 . S
C1694 C483 2.204 . S
C1703 C75 1.694 . S
C1705 C560 1.610 . S
C1716 C658 1.369 . S
C1714 C84 1.467 . S
C1725 C25 1.579 . S
C1727 C742 1.664 . S
C1738 C814 0.993 . S
C1736 C28 1.049 . S
C1749 C903 1.345 . S
C1747 C47 1.217 . S
C1758 C9 1.787 . S
C1760 C980 1.543 . S
C1771 C399 2.151 . S
C1769 C233 2.271 1_455 S
C1780 C249 0.851 . S
C1782 C490 0.859 . S
C1793 C567 1.259 . S
C1791 C275 1.333 . S
C1804 C644 1.604 . S
C1802 C173 1.706 . S
C1813 C224 2.214 1_455 S
C1815 C728 2.074 . S
C1826 C830 1.223 . S
C1824 C243 1.366 . S
C1837 C910 0.835 . S
C1835 C266 0.858 . S
C1848 C987 1.632 . S
C1846 C179 1.814 . S
C1859 C406 1.483 . S
C1857 C163 1.499 . S
C1868 C289 1.917 . S
C1870 C1071 1.839 1_556 S
C1881 C1159 2.260 . S
C1879 C333 2.442 . S
C1892 C1232 0.653 . S
C1890 C308 0.628 . S
C1901 C123 1.352 . S
C1903 C994 1.552 . S
C1912 C126 1.505 . S
C1914 C574 1.554 . S
C1923 C327 2.207 . S
C1925 C1323 2.121 . S
C1936 C1400 0.850 . S
C1934 C299 0.892 . S
C1947 C403 1.853 . S
C1945 C67 2.018 . S
C1958 C1418 2.221 . S
C1956 C98 2.204 . S
C1967 C89 1.719 . S
C1969 C571 1.641 . S
C1978 C79 1.527 . S
C1980 C1318 1.405 . S
C1991 C730 1.658 . S
C1989 C11 1.595 . S
C2000 C51 1.080 . S
C2002 C1162 1.002 . S
C2013 C914 1.409 . S
C2011 C33 1.276 . S
C2024 C1495 1.527 . S
C2022 C14 1.761 . S
C2035 C410 2.142 . S
C2033 C140 2.258 . S
C2046 C1402 0.842 . S
C2044 C319 0.841 . S
C2055 C112 1.296 . S
C2057 C578 1.268 . S
C2066 C285 1.719 . S
C2068 C1327 1.625 . S
C2077 C149 2.292 . S
C2079 C739 2.097 . S
C2090 C1155 1.255 . S
C2088 C313 1.372 . S
C2099 C121 0.899 1_565 S
C2101 C898 0.853 1_545 S
C2110 C291 1.843 . S
C2112 C1502 1.657 . S
C2121 C182 1.512 . S
C2123 C394 1.467 1_554 S
C2132 C168 1.893 . S
C2134 C1082 1.849 . S
C2143 C263 2.486 . S
C2145 C812 2.298 . S
C2154 C247 0.681 . S
C2156 C1243 0.692 . S
C2167 C1486 1.465 . S
C2165 C277 1.328 1_565 S
C2176 C219 1.560 . S
C2178 C562 1.546 . S
C2189 C662 2.157 . S
C2187 C257 2.241 . S
C2200 C487 0.853 . S
C2198 C201 0.877 . S
C2209 C81 1.984 . S
C2211 C1568 1.841 . S
C2222 C1407 2.207 . S
C2220 C93 2.265 . S
C2231 C103 1.697 . S
C2233 C1652 1.615 . S
C2242 C56 1.470 . S
C2244 C1330 1.370 . S
C2253 C53 1.576 . S
C2255 C1078 1.665 . S
C2266 C1150 1.006 1_455 S
C2264 C0 1.051 . S
C2277 C1239 1.343 . S
C2275 C19 1.206 . S
C2288 C1484 1.551 . S
C2286 C37 1.785 . S
C2299 C1575 2.151 . S
C2297 C261 2.270 . S
C2308 C193 0.861 . S
C2310 C1414 0.854 . S
C2321 C1659 1.268 . S
C2319 C205 1.329 . S
C2332 C1316 1.603 . S
C2330 C215 1.705 . S
C2343 C1064 2.069 . S
C2341 C252 2.217 . S
C2352 C187 1.366 . S
C2354 C1166 1.226 . S
C2365 C1246 0.831 . S
C2363 C196 0.854 . S
C2374 C221 1.813 . S
C2376 C1491 1.636 . S
C2387 C1582 1.489 . S
C2385 C317 1.504 . S
C2396 C135 1.917 . S
C2398 C735 1.843 . S
C2409 C823 2.260 . S
C2407 C151 2.441 . S
C2420 C896 0.640 . S
C2418 C154 0.629 . S
C2431 C1498 1.552 . S
C2429 C305 1.366 . S
C2440 C280 1.504 . S
C2442 C1666 1.553 . S
C2453 C651 2.122 . S
C2451 C145 2.206 . S
C2464 C476 0.842 . S
C2462 C117 0.901 . S
C2473 C95 2.016 . S
C2475 C1579 1.858 . S
C2486 C494 2.223 . S
C2484 C70 2.211 . S
C2495 C61 1.721 . S
C2497 C1663 1.644 . S
C2506 C107 1.528 . S
C2508 C646 1.411 . S
C2517 C39 1.597 . S
C2519 C1066 1.659 . S
C2530 C826 1.012 . S
C2528 C23 1.073 . S
C2539 C5 1.286 . S
C2541 C1250 1.408 . S
C2550 C42 1.761 . S
C2552 C991 1.522 . S
C2563 C1586 2.137 . S
C2561 C322 2.256 . S
C2572 C165 0.846 . S
C2574 C478 0.837 . S
C2585 C1670 1.260 . S
C2583 C294 1.304 . S
C2594 C131 1.720 . S
C2596 C655 1.626 . S
C2605 C331 2.292 . S
C2607 C1075 2.095 . S
C2618 C819 1.254 . S
C2616 C159 1.371 . S
C2627 C303 0.902 . S
C2629 C1234 0.846 1_655 S
C2640 C998 1.661 . S
C2638 C137 1.842 . S
C2651 C1570 1.470 . S
C2649 C238 1.514 . S
C2662 C746 1.850 1_665 S
C2660 C210 1.890 . S
C2671 C235 2.483 . S
C2673 C1148 2.303 . S
C2684 C907 0.687 . S
C2682 C191 0.682 . S
C2693 C207 1.321 . S
C2695 C982 1.465 . S
C2704 C177 1.565 . S
C2706 C1654 1.550 1_554 S
C2717 C1334 2.154 . S
C2715 C229 2.229 1_565 S
C2728 C1411 0.842 . S
C2726 C271 0.884 . S
