# Generated by pormake.
# Topology gar, (4,6)-cn, num edge types: 1
# Building blocks:
#     Node 0, Type 0, BuildingBlock: CEKHIL_clean_sbu_0, # of connection points: 4
#     Node 1, Type 0, BuildingBlock: CEKHIL_clean_sbu_0, # of connection points: 4
#     Node 2, Type 0, BuildingBlock: CEKHIL_clean_sbu_0, # of connection points: 4
#     Node 3, Type 0, BuildingBlock: CEKHIL_clean_sbu_0, # of connection points: 4
#     Node 4, Type 0, BuildingBlock: CEKHIL_clean_sbu_0, # of connection points: 4
#     Node 5, Type 0, BuildingBlock: CEKHIL_clean_sbu_0, # of connection points: 4
#     Node 6, Type 0, BuildingBlock: CEKHIL_clean_sbu_0, # of connection points: 4
#     Node 7, Type 0, BuildingBlock: CEKHIL_clean_sbu_0, # of connection points: 4
#     Node 8, Type 0, BuildingBlock: CEKHIL_clean_sbu_0, # of connection points: 4
#     Node 9, Type 0, BuildingBlock: CEKHIL_clean_sbu_0, # of connection points: 4
#     Node 10, Type 0, BuildingBlock: CEKHIL_clean_sbu_0, # of connection points: 4
#     Node 11, Type 0, BuildingBlock: CEKHIL_clean_sbu_0, # of connection points: 4
#     Node 12, Type 0, BuildingBlock: CEKHIL_clean_sbu_0, # of connection points: 4
#     Node 13, Type 0, BuildingBlock: CEKHIL_clean_sbu_0, # of connection points: 4
#     Node 14, Type 0, BuildingBlock: CEKHIL_clean_sbu_0, # of connection points: 4
#     Node 15, Type 0, BuildingBlock: CEKHIL_clean_sbu_0, # of connection points: 4
#     Node 16, Type 0, BuildingBlock: CEKHIL_clean_sbu_0, # of connection points: 4
#     Node 17, Type 0, BuildingBlock: CEKHIL_clean_sbu_0, # of connection points: 4
#     Node 18, Type 0, BuildingBlock: CEKHIL_clean_sbu_0, # of connection points: 4
#     Node 19, Type 0, BuildingBlock: CEKHIL_clean_sbu_0, # of connection points: 4
#     Node 20, Type 0, BuildingBlock: CEKHIL_clean_sbu_0, # of connection points: 4
#     Node 21, Type 0, BuildingBlock: CEKHIL_clean_sbu_0, # of connection points: 4
#     Node 22, Type 0, BuildingBlock: CEKHIL_clean_sbu_0, # of connection points: 4
#     Node 23, Type 0, BuildingBlock: CEKHIL_clean_sbu_0, # of connection points: 4
#     Node 24, Type 1, BuildingBlock: MIFKUJ_clean_sbu_0, # of connection points: 6
#     Node 25, Type 1, BuildingBlock: MIFKUJ_clean_sbu_0, # of connection points: 6
#     Node 26, Type 1, BuildingBlock: MIFKUJ_clean_sbu_0, # of connection points: 6
#     Node 27, Type 1, BuildingBlock: MIFKUJ_clean_sbu_0, # of connection points: 6
#     Node 28, Type 1, BuildingBlock: MIFKUJ_clean_sbu_0, # of connection points: 6
#     Node 29, Type 1, BuildingBlock: MIFKUJ_clean_sbu_0, # of connection points: 6
#     Node 30, Type 1, BuildingBlock: MIFKUJ_clean_sbu_0, # of connection points: 6
#     Node 31, Type 1, BuildingBlock: MIFKUJ_clean_sbu_0, # of connection points: 6
#     Node 32, Type 1, BuildingBlock: MIFKUJ_clean_sbu_0, # of connection points: 6
#     Node 33, Type 1, BuildingBlock: MIFKUJ_clean_sbu_0, # of connection points: 6
#     Node 34, Type 1, BuildingBlock: MIFKUJ_clean_sbu_0, # of connection points: 6
#     Node 35, Type 1, BuildingBlock: MIFKUJ_clean_sbu_0, # of connection points: 6
#     Node 36, Type 1, BuildingBlock: MIFKUJ_clean_sbu_0, # of connection points: 6
#     Node 37, Type 1, BuildingBlock: MIFKUJ_clean_sbu_0, # of connection points: 6
#     Node 38, Type 1, BuildingBlock: MIFKUJ_clean_sbu_0, # of connection points: 6
#     Node 39, Type 1, BuildingBlock: MIFKUJ_clean_sbu_0, # of connection points: 6
#     Edge 40, Type (0, 1), BuildingBlock: XIVTED_clean_linker_0, # of connection points: 2
#     Edge 41, Type (0, 1), BuildingBlock: XIVTED_clean_linker_0, # of connection points: 2
#     Edge 42, Type (0, 1), BuildingBlock: XIVTED_clean_linker_0, # of connection points: 2
#     Edge 43, Type (0, 1), BuildingBlock: XIVTED_clean_linker_0, # of connection points: 2
#     Edge 44, Type (0, 1), BuildingBlock: XIVTED_clean_linker_0, # of connection points: 2
#     Edge 45, Type (0, 1), BuildingBlock: XIVTED_clean_linker_0, # of connection points: 2
#     Edge 46, Type (0, 1), BuildingBlock: XIVTED_clean_linker_0, # of connection points: 2
#     Edge 47, Type (0, 1), BuildingBlock: XIVTED_clean_linker_0, # of connection points: 2
#     Edge 48, Type (0, 1), BuildingBlock: XIVTED_clean_linker_0, # of connection points: 2
#     Edge 49, Type (0, 1), BuildingBlock: XIVTED_clean_linker_0, # of connection points: 2
#     Edge 50, Type (0, 1), BuildingBlock: XIVTED_clean_linker_0, # of connection points: 2
#     Edge 51, Type (0, 1), BuildingBlock: XIVTED_clean_linker_0, # of connection points: 2
#     Edge 52, Type (0, 1), BuildingBlock: XIVTED_clean_linker_0, # of connection points: 2
#     Edge 53, Type (0, 1), BuildingBlock: XIVTED_clean_linker_0, # of connection points: 2
#     Edge 54, Type (0, 1), BuildingBlock: XIVTED_clean_linker_0, # of connection points: 2
#     Edge 55, Type (0, 1), BuildingBlock: XIVTED_clean_linker_0, # of connection points: 2
#     Edge 56, Type (0, 1), BuildingBlock: XIVTED_clean_linker_0, # of connection points: 2
#     Edge 57, Type (0, 1), BuildingBlock: XIVTED_clean_linker_0, # of connection points: 2
#     Edge 58, Type (0, 1), BuildingBlock: XIVTED_clean_linker_0, # of connection points: 2
#     Edge 59, Type (0, 1), BuildingBlock: XIVTED_clean_linker_0, # of connection points: 2
#     Edge 60, Type (0, 1), BuildingBlock: XIVTED_clean_linker_0, # of connection points: 2
#     Edge 61, Type (0, 1), BuildingBlock: XIVTED_clean_linker_0, # of connection points: 2
#     Edge 62, Type (0, 1), BuildingBlock: XIVTED_clean_linker_0, # of connection points: 2
#     Edge 63, Type (0, 1), BuildingBlock: XIVTED_clean_linker_0, # of connection points: 2
#     Edge 64, Type (0, 1), BuildingBlock: XIVTED_clean_linker_0, # of connection points: 2
#     Edge 65, Type (0, 1), BuildingBlock: XIVTED_clean_linker_0, # of connection points: 2
#     Edge 66, Type (0, 1), BuildingBlock: XIVTED_clean_linker_0, # of connection points: 2
#     Edge 67, Type (0, 1), BuildingBlock: XIVTED_clean_linker_0, # of connection points: 2
#     Edge 68, Type (0, 1), BuildingBlock: XIVTED_clean_linker_0, # of connection points: 2
#     Edge 69, Type (0, 1), BuildingBlock: XIVTED_clean_linker_0, # of connection points: 2
#     Edge 70, Type (0, 1), BuildingBlock: XIVTED_clean_linker_0, # of connection points: 2
#     Edge 71, Type (0, 1), BuildingBlock: XIVTED_clean_linker_0, # of connection points: 2
#     Edge 72, Type (0, 1), BuildingBlock: XIVTED_clean_linker_0, # of connection points: 2
#     Edge 73, Type (0, 1), BuildingBlock: XIVTED_clean_linker_0, # of connection points: 2
#     Edge 74, Type (0, 1), BuildingBlock: XIVTED_clean_linker_0, # of connection points: 2
#     Edge 75, Type (0, 1), BuildingBlock: XIVTED_clean_linker_0, # of connection points: 2
#     Edge 76, Type (0, 1), BuildingBlock: XIVTED_clean_linker_0, # of connection points: 2
#     Edge 77, Type (0, 1), BuildingBlock: XIVTED_clean_linker_0, # of connection points: 2
#     Edge 78, Type (0, 1), BuildingBlock: XIVTED_clean_linker_0, # of connection points: 2
#     Edge 79, Type (0, 1), BuildingBlock: XIVTED_clean_linker_0, # of connection points: 2
#     Edge 80, Type (0, 1), BuildingBlock: XIVTED_clean_linker_0, # of connection points: 2
#     Edge 81, Type (0, 1), BuildingBlock: XIVTED_clean_linker_0, # of connection points: 2
#     Edge 82, Type (0, 1), BuildingBlock: XIVTED_clean_linker_0, # of connection points: 2
#     Edge 83, Type (0, 1), BuildingBlock: XIVTED_clean_linker_0, # of connection points: 2
#     Edge 84, Type (0, 1), BuildingBlock: XIVTED_clean_linker_0, # of connection points: 2
#     Edge 85, Type (0, 1), BuildingBlock: XIVTED_clean_linker_0, # of connection points: 2
#     Edge 86, Type (0, 1), BuildingBlock: XIVTED_clean_linker_0, # of connection points: 2
#     Edge 87, Type (0, 1), BuildingBlock: XIVTED_clean_linker_0, # of connection points: 2
#     Edge 88, Type (0, 1), BuildingBlock: XIVTED_clean_linker_0, # of connection points: 2
#     Edge 89, Type (0, 1), BuildingBlock: XIVTED_clean_linker_0, # of connection points: 2
#     Edge 90, Type (0, 1), BuildingBlock: XIVTED_clean_linker_0, # of connection points: 2
#     Edge 91, Type (0, 1), BuildingBlock: XIVTED_clean_linker_0, # of connection points: 2
#     Edge 92, Type (0, 1), BuildingBlock: XIVTED_clean_linker_0, # of connection points: 2
#     Edge 93, Type (0, 1), BuildingBlock: XIVTED_clean_linker_0, # of connection points: 2
#     Edge 94, Type (0, 1), BuildingBlock: XIVTED_clean_linker_0, # of connection points: 2
#     Edge 95, Type (0, 1), BuildingBlock: XIVTED_clean_linker_0, # of connection points: 2
#     Edge 96, Type (0, 1), BuildingBlock: XIVTED_clean_linker_0, # of connection points: 2
#     Edge 97, Type (0, 1), BuildingBlock: XIVTED_clean_linker_0, # of connection points: 2
#     Edge 98, Type (0, 1), BuildingBlock: XIVTED_clean_linker_0, # of connection points: 2
#     Edge 99, Type (0, 1), BuildingBlock: XIVTED_clean_linker_0, # of connection points: 2
#     Edge 100, Type (0, 1), BuildingBlock: XIVTED_clean_linker_0, # of connection points: 2
#     Edge 101, Type (0, 1), BuildingBlock: XIVTED_clean_linker_0, # of connection points: 2
#     Edge 102, Type (0, 1), BuildingBlock: XIVTED_clean_linker_0, # of connection points: 2
#     Edge 103, Type (0, 1), BuildingBlock: XIVTED_clean_linker_0, # of connection points: 2
#     Edge 104, Type (0, 1), BuildingBlock: XIVTED_clean_linker_0, # of connection points: 2
#     Edge 105, Type (0, 1), BuildingBlock: XIVTED_clean_linker_0, # of connection points: 2
#     Edge 106, Type (0, 1), BuildingBlock: XIVTED_clean_linker_0, # of connection points: 2
#     Edge 107, Type (0, 1), BuildingBlock: XIVTED_clean_linker_0, # of connection points: 2
#     Edge 108, Type (0, 1), BuildingBlock: XIVTED_clean_linker_0, # of connection points: 2
#     Edge 109, Type (0, 1), BuildingBlock: XIVTED_clean_linker_0, # of connection points: 2
#     Edge 110, Type (0, 1), BuildingBlock: XIVTED_clean_linker_0, # of connection points: 2
#     Edge 111, Type (0, 1), BuildingBlock: XIVTED_clean_linker_0, # of connection points: 2
#     Edge 112, Type (0, 1), BuildingBlock: XIVTED_clean_linker_0, # of connection points: 2
#     Edge 113, Type (0, 1), BuildingBlock: XIVTED_clean_linker_0, # of connection points: 2
#     Edge 114, Type (0, 1), BuildingBlock: XIVTED_clean_linker_0, # of connection points: 2
#     Edge 115, Type (0, 1), BuildingBlock: XIVTED_clean_linker_0, # of connection points: 2
#     Edge 116, Type (0, 1), BuildingBlock: XIVTED_clean_linker_0, # of connection points: 2
#     Edge 117, Type (0, 1), BuildingBlock: XIVTED_clean_linker_0, # of connection points: 2
#     Edge 118, Type (0, 1), BuildingBlock: XIVTED_clean_linker_0, # of connection points: 2
#     Edge 119, Type (0, 1), BuildingBlock: XIVTED_clean_linker_0, # of connection points: 2
#     Edge 120, Type (0, 1), BuildingBlock: XIVTED_clean_linker_0, # of connection points: 2
#     Edge 121, Type (0, 1), BuildingBlock: XIVTED_clean_linker_0, # of connection points: 2
#     Edge 122, Type (0, 1), BuildingBlock: XIVTED_clean_linker_0, # of connection points: 2
#     Edge 123, Type (0, 1), BuildingBlock: XIVTED_clean_linker_0, # of connection points: 2
#     Edge 124, Type (0, 1), BuildingBlock: XIVTED_clean_linker_0, # of connection points: 2
#     Edge 125, Type (0, 1), BuildingBlock: XIVTED_clean_linker_0, # of connection points: 2
#     Edge 126, Type (0, 1), BuildingBlock: XIVTED_clean_linker_0, # of connection points: 2
#     Edge 127, Type (0, 1), BuildingBlock: XIVTED_clean_linker_0, # of connection points: 2
#     Edge 128, Type (0, 1), BuildingBlock: XIVTED_clean_linker_0, # of connection points: 2
#     Edge 129, Type (0, 1), BuildingBlock: XIVTED_clean_linker_0, # of connection points: 2
#     Edge 130, Type (0, 1), BuildingBlock: XIVTED_clean_linker_0, # of connection points: 2
#     Edge 131, Type (0, 1), BuildingBlock: XIVTED_clean_linker_0, # of connection points: 2
#     Edge 132, Type (0, 1), BuildingBlock: XIVTED_clean_linker_0, # of connection points: 2
#     Edge 133, Type (0, 1), BuildingBlock: XIVTED_clean_linker_0, # of connection points: 2
#     Edge 134, Type (0, 1), BuildingBlock: XIVTED_clean_linker_0, # of connection points: 2
#     Edge 135, Type (0, 1), BuildingBlock: XIVTED_clean_linker_0, # of connection points: 2
# Relax obj value: 0.097
# Max RMSD: 0.280
# Mean RMSD: 0.129
data_MOF--net-gar--node1-CEKHIL_clean_sbu_0--node2-MIFKUJ_clean_sbu_0--edge1-XIVTED_clean_linker_0
_symmetry_space_group_name_H-M    P1
_symmetry_Int_Tables_number       1
_symmetry_cell_setting            triclinic
loop_
_symmetry_equiv_pos_as_xyz
'x, y, z'
_cell_length_a     56.972389
_cell_length_b     56.399393
_cell_length_c     53.573611
_cell_angle_alpha  94.465912
_cell_angle_beta   94.671409
_cell_angle_gamma 98.950928
loop_
_atom_site_label
_atom_site_type_symbol
_atom_site_fract_x
_atom_site_fract_y
_atom_site_fract_z
_atom_type_partial_charge
Co0 Co 0.03498 0.27913 0.41095 0.0
O1 O 0.06808 0.27566 0.41424 0.0
O2 O 0.04322 0.26369 0.38003 0.0
C3 C 0.04031 0.31769 0.42763 0.0
O4 O 1.00004 0.28038 0.40021 0.0
Co5 Co 0.00848 0.28978 0.4581 0.0
O6 O 0.98293 0.29545 0.43294 0.0
C7 C 0.01944 0.24098 0.44601 0.0
C8 C 0.06466 0.26575 0.39127 0.0
C9 C 0.98236 0.28827 0.40971 0.0
O10 O 0.02625 0.247 0.42472 0.0
O11 O 0.01349 0.25591 0.46265 0.0
O12 O 0.04338 0.31282 0.40411 0.0
O13 O 0.03622 0.29934 0.44049 0.0
Co14 Co 0.00209 0.75687 0.64022 0.0
O15 O 0.96978 0.76266 0.6377 0.0
O16 O 0.98689 0.74771 0.67013 0.0
C17 C 0.01766 0.79277 0.62781 0.0
O18 O 0.03566 0.74963 0.64932 0.0
Co19 Co 0.02859 0.75606 0.59134 0.0
O20 O 0.05625 0.75332 0.6152 0.0
C21 C 0.99114 0.71585 0.599 0.0
C22 C 0.96815 0.75512 0.65981 0.0
C23 C 0.05496 0.74959 0.63827 0.0
O24 O 0.99159 0.72348 0.62239 0.0
O25 O 0.00226 0.72796 0.58309 0.0
O26 O 0.0134 0.79101 0.65112 0.0
O27 O 0.01053 0.77359 0.61284 0.0
Co28 Co 0.53324 0.77641 0.90462 0.0
O29 O 0.56598 0.7719 0.91124 0.0
O30 O 0.5445 0.76304 0.87441 0.0
C31 C 0.53802 0.81387 0.92431 0.0
O32 O 0.49979 0.77914 0.8897 0.0
Co33 Co 0.50003 0.78555 0.9464 0.0
O34 O 0.47885 0.79469 0.91881 0.0
C35 C 0.51137 0.7366 0.93454 0.0
C36 C 0.56485 0.76406 0.88763 0.0
C37 C 0.48134 0.78787 0.89609 0.0
O38 O 0.52169 0.74331 0.91512 0.0
O39 O 0.50333 0.75111 0.95001 0.0
O40 O 0.54385 0.81073 0.90146 0.0
O41 O 0.53116 0.79452 0.93481 0.0
Co42 Co 0.49974 0.25539 0.13676 0.0
O43 O 0.46669 0.25848 0.13226 0.0
O44 O 0.48358 0.24412 0.16526 0.0
C45 C 0.51343 0.29254 0.12634 0.0
O46 O 0.53371 0.2509 0.1482 0.0
Co47 Co 0.53034 0.2589 0.09104 0.0
O48 O 0.55711 0.26159 0.1177 0.0
C49 C 0.49532 0.21524 0.09479 0.0
C50 C 0.46463 0.25043 0.15411 0.0
C51 C 0.55439 0.2557 0.13992 0.0
O52 O 0.49272 0.22227 0.11776 0.0
O53 O 0.5075 0.22841 0.08044 0.0
O54 O 0.50788 0.28948 0.14905 0.0
O55 O 0.50866 0.27365 0.11053 0.0
Co56 Co 0.01991 0.77303 0.15316 0.0
O57 O 0.98597 0.76385 0.14703 0.0
O58 O 0.00722 0.75919 0.18226 0.0
C59 C 0.02081 0.80983 0.13905 0.0
O60 O 0.05491 0.78103 0.16666 0.0
Co61 Co 0.05095 0.78364 0.10927 0.0
O62 O 0.07715 0.79461 0.13641 0.0
C63 C 0.0311 0.73354 0.11657 0.0
C64 C 0.98638 0.75714 0.16965 0.0
C65 C 0.07499 0.79 0.15911 0.0
O66 O 0.02478 0.74048 0.1381 0.0
O67 O 0.03953 0.74807 0.10108 0.0
O68 O 0.01611 0.80631 0.16191 0.0
O69 O 0.02317 0.79082 0.125 0.0
Co70 Co 0.51127 0.76082 0.39007 0.0
O71 O 0.54546 0.766 0.39392 0.0
O72 O 0.52329 0.74727 0.3601 0.0
C73 C 0.50747 0.79861 0.40367 0.0
O74 O 0.4754 0.75331 0.37935 0.0
Co75 Co 0.48374 0.76689 0.43758 0.0
O76 O 0.45605 0.76467 0.41217 0.0
C77 C 0.50837 0.72514 0.4296 0.0
C78 C 0.54444 0.75526 0.37148 0.0
C79 C 0.45621 0.75716 0.38911 0.0
O80 O 0.51079 0.72974 0.40665 0.0
O81 O 0.50021 0.73914 0.44549 0.0
O82 O 0.51143 0.79356 0.38046 0.0
O83 O 0.50817 0.78143 0.41807 0.0
Co84 Co 0.52464 0.28593 0.66865 0.0
O85 O 0.49094 0.27578 0.66224 0.0
O86 O 0.5121 0.27281 0.69816 0.0
C87 C 0.52489 0.32169 0.65266 0.0
O88 O 0.55965 0.29483 0.68206 0.0
Co89 Co 0.55551 0.29488 0.62423 0.0
O90 O 0.58117 0.30811 0.65113 0.0
C91 C 0.53781 0.2451 0.63504 0.0
C92 C 0.49146 0.2692 0.6849 0.0
C93 C 0.57944 0.30402 0.67404 0.0
O94 O 0.52997 0.25321 0.65527 0.0
O95 O 0.54707 0.25875 0.61918 0.0
O96 O 0.52014 0.31924 0.67573 0.0
O97 O 0.52763 0.30225 0.63962 0.0
Co98 Co 0.01213 0.25797 0.88666 0.0
O99 O 0.0464 0.26597 0.89212 0.0
O100 O 0.02613 0.24629 0.85759 0.0
C101 C 0.00489 0.29449 0.90083 0.0
O102 O 0.97746 0.24817 0.87263 0.0
Co103 Co 0.97897 0.25898 0.92947 0.0
O104 O 0.95273 0.25493 0.90201 0.0
C105 C 0.00846 0.22065 0.92442 0.0
C106 C 0.04658 0.25591 0.86948 0.0
C107 C 0.95651 0.2493 0.87937 0.0
O108 O 0.01299 0.22656 0.90233 0.0
O109 O 0.99712 0.2328 0.93905 0.0
O110 O 0.01044 0.29062 0.87797 0.0
O111 O 0.0055 0.27687 0.91475 0.0
Co112 Co 0.39778 0.02539 0.29575 0.0
O113 O 0.40164 0.05697 0.28377 0.0
O114 O 0.36737 0.03191 0.28163 0.0
C115 C 0.4201 0.03673 0.33272 0.0
O116 O 0.38614 0.99205 0.30656 0.0
Co117 Co 0.44032 0.99846 0.30853 0.0
O118 O 0.41654 0.97595 0.32377 0.0
C119 C 0.42303 0.0019 0.25539 0.0
C120 C 0.37881 0.05272 0.27719 0.0
C121 C 0.3943 0.97552 0.31828 0.0
O122 O 0.40491 0.01107 0.2621 0.0
O123 O 0.4396 0.99729 0.27101 0.0
O124 O 0.39783 0.03963 0.3304 0.0
O125 O 0.42821 0.02854 0.31263 0.0
Co126 Co 0.2689 0.13203 0.49246 0.0
O127 O 0.30317 0.14 0.49933 0.0
O128 O 0.2819 0.10457 0.50385 0.0
C129 C 0.26765 0.14863 0.45523 0.0
O130 O 0.23402 0.11596 0.48676 0.0
Co131 Co 0.235 0.16927 0.48545 0.0
O132 O 0.20997 0.14124 0.47346 0.0
C133 C 0.25575 0.16252 0.53666 0.0
C134 C 0.30276 0.11798 0.50506 0.0
C135 C 0.21344 0.12028 0.4784 0.0
O136 O 0.26445 0.14408 0.52802 0.0
O137 O 0.24516 0.17568 0.52249 0.0
O138 O 0.27243 0.12691 0.4564 0.0
O139 O 0.26462 0.15974 0.47638 0.0
Co140 Co 0.13951 0.00618 0.79304 0.0
O141 O 0.13436 0.97163 0.7851 0.0
O142 O 0.16839 0.99577 0.78256 0.0
C143 C 0.12152 0.00472 0.82936 0.0
O144 O 0.15261 0.04219 0.80024 0.0
Co145 Co 0.09831 0.03578 0.79896 0.0
O146 O 0.12393 0.06335 0.81031 0.0
C147 C 0.10889 0.01793 0.74814 0.0
C148 C 0.15655 0.97395 0.7803 0.0
C149 C 0.14567 0.06214 0.80725 0.0
O150 O 0.12811 0.01102 0.75727 0.0
O151 O 0.09406 0.02618 0.76188 0.0
O152 O 0.14368 0.0017 0.82911 0.0
O153 O 0.11092 0.00743 0.80788 0.0
Co154 Co 0.24403 0.87841 0.0012 0.0
O155 O 0.21251 0.87655 0.01212 0.0
O156 O 0.24002 0.90939 0.01696 0.0
C157 C 0.23264 0.85897 0.96271 0.0
O158 O 0.278 0.88781 0.992 0.0
Co159 Co 0.26616 0.83269 0.98641 0.0
O160 O 0.29173 0.85582 0.97444 0.0
C161 C 0.26366 0.8485 0.0401 0.0
C162 C 0.2185 0.89921 0.02009 0.0
C163 C 0.29401 0.87834 0.98095 0.0
O164 O 0.25624 0.86801 0.03434 0.0
O165 O 0.26682 0.83178 0.02374 0.0
O166 O 0.2317 0.88185 0.96665 0.0
O167 O 0.23861 0.84854 0.98223 0.0
Co168 Co 0.26426 0.38777 0.03049 0.0
O169 O 0.23005 0.3841 0.02328 0.0
O170 O 0.25216 0.41537 0.04576 0.0
C171 C 0.27113 0.37683 0.99057 0.0
O172 O 0.30025 0.39906 0.04 0.0
Co173 Co 0.29154 0.34445 0.02206 0.0
O174 O 0.32017 0.36972 0.02667 0.0
C175 C 0.2613 0.34682 0.06412 0.0
C176 C 0.23123 0.40518 0.03529 0.0
C177 C 0.31983 0.3912 0.0358 0.0
O178 O 0.26026 0.36929 0.06161 0.0
O179 O 0.27075 0.33359 0.04862 0.0
O180 O 0.26818 0.39881 0.99694 0.0
O181 O 0.2683 0.36225 0.00779 0.0
Co182 Co 0.77865 0.13398 0.02681 0.0
O183 O 0.81214 0.13592 0.02422 0.0
O184 O 0.78923 0.10445 0.03661 0.0
C185 C 0.77072 0.14721 0.98902 0.0
O186 O 0.74282 0.126 0.03058 0.0
Co187 Co 0.75719 0.18179 0.02593 0.0
O188 O 0.72669 0.15907 0.02287 0.0
C189 C 0.78813 0.17287 0.06978 0.0
C190 C 0.81026 0.11435 0.03132 0.0
C191 C 0.72466 0.13692 0.0271 0.0
O192 O 0.78547 0.15025 0.06225 0.0
O193 O 0.78075 0.18857 0.05642 0.0
O194 O 0.77217 0.12461 0.99061 0.0
O195 O 0.77603 0.16093 0.00965 0.0
Co196 Co 0.13733 0.49464 0.27553 0.0
O197 O 0.13514 0.46297 0.28677 0.0
O198 O 0.16446 0.48013 0.26621 0.0
C199 C 0.12864 0.51307 0.31155 0.0
O200 O 0.14586 0.5274 0.26207 0.0
Co201 Co 0.09195 0.51952 0.27288 0.0
O202 O 0.11464 0.54739 0.26423 0.0
C203 C 0.09536 0.4791 0.2363 0.0
C204 C 0.15525 0.4617 0.27741 0.0
C205 C 0.13604 0.54628 0.25944 0.0
O206 O 0.11793 0.48112 0.2428 0.0
O207 O 0.08145 0.49033 0.24856 0.0
O208 O 0.15026 0.50904 0.30934 0.0
O209 O 0.11303 0.50375 0.29331 0.0
Co210 Co 0.76783 0.88708 0.5351 0.0
O211 O 0.7335 0.88303 0.5309 0.0
O212 O 0.75687 0.91506 0.55079 0.0
C213 C 0.77221 0.87529 0.49472 0.0
O214 O 0.80391 0.8985 0.54193 0.0
Co215 Co 0.79451 0.84351 0.52561 0.0
O216 O 0.82322 0.8687 0.52854 0.0
C217 C 0.76704 0.84719 0.56968 0.0
C218 C 0.73542 0.90435 0.54263 0.0
C219 C 0.8232 0.89042 0.53714 0.0
O220 O 0.76623 0.86963 0.56693 0.0
O221 O 0.77524 0.83336 0.55366 0.0
O222 O 0.76932 0.89731 0.50101 0.0
O223 O 0.77054 0.86106 0.51237 0.0
Co224 Co 0.88926 0.01159 0.25565 0.0
O225 O 0.89273 0.04607 0.26245 0.0
O226 O 0.86158 0.02325 0.24054 0.0
C227 C 0.90079 0.00487 0.29548 0.0
O228 O 0.87819 0.97537 0.24659 0.0
Co229 Co 0.93243 0.9844 0.26332 0.0
O230 O 0.90743 0.95541 0.25982 0.0
C231 C 0.92869 0.01421 0.22074 0.0
C232 C 0.87166 0.04449 0.25063 0.0
C233 C 0.88601 0.95569 0.25101 0.0
O234 O 0.90668 0.0154 0.2241 0.0
O235 O 0.94236 0.00483 0.23591 0.0
O236 O 0.87893 0.00776 0.28937 0.0
O237 O 0.91499 0.00778 0.27806 0.0
Co238 Co 0.27414 0.63179 0.52032 0.0
O239 O 0.30579 0.63135 0.51051 0.0
O240 O 0.28645 0.60407 0.53227 0.0
C241 C 0.25823 0.63958 0.4826 0.0
O242 O 0.24078 0.62574 0.53236 0.0
Co243 Co 0.25198 0.67901 0.51831 0.0
O244 O 0.22272 0.65787 0.52587 0.0
C245 C 0.28949 0.67548 0.55816 0.0
C246 C 0.30535 0.61138 0.52107 0.0
C247 C 0.22245 0.63659 0.5325 0.0
O248 O 0.28724 0.65251 0.55257 0.0
O249 O 0.27936 0.6894 0.54462 0.0
O250 O 0.26066 0.61762 0.48659 0.0
O251 O 0.26741 0.65586 0.50035 0.0
Co252 Co 0.38681 0.51186 0.7562 0.0
O253 O 0.39145 0.54647 0.76226 0.0
O254 O 0.35901 0.52422 0.74223 0.0
C255 C 0.39932 0.50512 0.7957 0.0
O256 O 0.375 0.4756 0.74783 0.0
Co257 Co 0.42996 0.48425 0.76257 0.0
O258 O 0.4047 0.45551 0.75946 0.0
C259 C 0.42526 0.51419 0.72034 0.0
C260 C 0.37015 0.54547 0.75121 0.0
C261 C 0.38302 0.45586 0.75163 0.0
O262 O 0.4032 0.51488 0.72394 0.0
O263 O 0.43935 0.50517 0.73537 0.0
O264 O 0.37754 0.5087 0.79042 0.0
O265 O 0.41296 0.50773 0.77777 0.0
Co266 Co 0.63915 0.99175 0.76441 0.0
O267 O 0.63911 0.9588 0.77107 0.0
O268 O 0.66897 0.98189 0.75632 0.0
C269 C 0.62545 0.00293 0.80099 0.0
O270 O 0.64611 0.02697 0.75699 0.0
Co271 Co 0.59158 0.01281 0.76139 0.0
O272 O 0.6135 0.04395 0.76281 0.0
C273 C 0.60147 0.979 0.7203 0.0
C274 C 0.6607 0.96137 0.76448 0.0
C275 C 0.63546 0.04549 0.7589 0.0
O276 O 0.62358 0.98145 0.72904 0.0
O277 O 0.58561 0.98768 0.73211 0.0
O278 O 0.64799 0.00187 0.80016 0.0
O279 O 0.612 0.99531 0.78056 0.0
Co280 Co 0.76965 0.62681 0.99615 0.0
O281 O 0.80387 0.63245 0.00394 0.0
O282 O 0.78046 0.59798 0.00729 0.0
C283 C 0.77065 0.64437 0.9594 0.0
O284 O 0.73396 0.61332 0.98922 0.0
Co285 Co 0.74007 0.66818 0.98934 0.0
O286 O 0.71317 0.64201 0.97761 0.0
C287 C 0.75851 0.65861 0.04042 0.0
C288 C 0.80195 0.61021 0.0093 0.0
C289 C 0.7143 0.62017 0.98141 0.0
O290 O 0.76514 0.63894 0.03176 0.0
O291 O 0.75019 0.67325 0.02629 0.0
O292 O 0.77381 0.62206 0.96004 0.0
O293 O 0.76808 0.65531 0.98073 0.0
Co294 Co 0.89881 0.52831 0.79011 0.0
O295 O 0.90329 0.56048 0.77967 0.0
O296 O 0.86923 0.53483 0.77411 0.0
C297 C 0.91821 0.5382 0.8287 0.0
O298 O 0.88654 0.4944 0.79852 0.0
Co299 Co 0.94049 0.5011 0.80517 0.0
O300 O 0.91548 0.47678 0.81644 0.0
C301 C 0.92672 0.50604 0.75144 0.0
C302 C 0.88081 0.55607 0.77139 0.0
C303 C 0.89361 0.47685 0.80931 0.0
O304 O 0.90837 0.51534 0.7571 0.0
O305 O 0.94228 0.50089 0.76791 0.0
O306 O 0.89599 0.54091 0.82463 0.0
O307 O 0.92813 0.53109 0.80933 0.0
Co308 Co 0.74255 0.38692 0.49194 0.0
O309 O 0.71104 0.38655 0.50265 0.0
O310 O 0.73993 0.41819 0.50809 0.0
C311 C 0.73036 0.36801 0.45335 0.0
O312 O 0.77687 0.39497 0.48313 0.0
Co313 Co 0.76285 0.34039 0.47624 0.0
O314 O 0.78954 0.36265 0.46498 0.0
C315 C 0.75947 0.355 0.53011 0.0
C316 C 0.71807 0.40898 0.51106 0.0
C317 C 0.79259 0.3851 0.47201 0.0
O318 O 0.75353 0.37535 0.52496 0.0
O319 O 0.76214 0.33846 0.51331 0.0
O320 O 0.73086 0.39115 0.4573 0.0
O321 O 0.73589 0.35722 0.47273 0.0
Co322 Co 0.64186 0.5103 0.29644 0.0
O323 O 0.63712 0.47577 0.28878 0.0
O324 O 0.67088 0.50035 0.28603 0.0
C325 C 0.62407 0.50869 0.3328 0.0
O326 O 0.65478 0.54623 0.30359 0.0
Co327 Co 0.60086 0.53995 0.30284 0.0
O328 O 0.62646 0.56746 0.31455 0.0
C329 C 0.61075 0.52172 0.25183 0.0
C330 C 0.6594 0.47841 0.28424 0.0
C331 C 0.64811 0.56613 0.31116 0.0
O332 O 0.63017 0.51494 0.26068 0.0
O333 O 0.59615 0.53 0.26583 0.0
O334 O 0.6463 0.50594 0.33247 0.0
O335 O 0.61331 0.51137 0.31138 0.0
Zn336 Zn 0.04442 0.00659 0.04184 0.0
Zn337 Zn 0.99815 0.02222 0.00917 0.0
C338 C 0.02741 0.97107 0.07192 0.0
O339 O 0.03766 0.98902 0.08826 0.0
C340 C 0.01656 0.06011 0.98279 0.0
O341 O 0.00603 0.04345 0.9652 0.0
O342 O 0.07825 0.003 0.05435 0.0
O343 O 0.047 0.00918 0.00482 0.0
O344 O 0.011 0.9996 0.98434 0.0
C345 C 0.08257 0.98319 0.04408 0.0
O346 O 0.06626 0.97011 0.02777 0.0
O347 O 0.02589 0.97441 0.04867 0.0
C348 C 0.96046 0.04529 0.01493 0.0
O349 O 0.9783 0.05641 0.03076 0.0
O350 O 0.96379 0.02724 0.00054 0.0
O351 O 0.9966 0.01377 0.04494 0.0
O352 O 0.03131 0.0321 0.06283 0.0
O353 O 0.01714 0.05519 0.00562 0.0
C354 C 0.03366 0.00212 0.98458 0.0
C355 C 0.00888 0.02653 0.06346 0.0
Zn356 Zn 0.24688 0.74565 0.29106 0.0
Zn357 Zn 0.277 0.77676 0.25446 0.0
C358 C 0.21769 0.71088 0.25699 0.0
O359 O 0.20222 0.72399 0.26506 0.0
C360 C 0.30665 0.81235 0.28745 0.0
O361 O 0.3222 0.79966 0.27879 0.0
O362 O 0.23355 0.73056 0.32077 0.0
O363 O 0.28197 0.75386 0.30212 0.0
O364 O 0.29613 0.75133 0.26525 0.0
C365 C 0.23944 0.71 0.32355 0.0
O366 O 0.25305 0.70132 0.30767 0.0
O367 O 0.23976 0.71795 0.26367 0.0
C368 C 0.28024 0.80855 0.21784 0.0
O369 O 0.26738 0.81825 0.23385 0.0
O370 O 0.28837 0.78954 0.22297 0.0
O371 O 0.24175 0.76834 0.24456 0.0
O372 O 0.22858 0.77209 0.28177 0.0
O373 O 0.28459 0.80556 0.28049 0.0
C374 C 0.29863 0.74981 0.28882 0.0
C375 C 0.22626 0.7745 0.25839 0.0
Zn376 Zn 0.49552 0.03153 0.54556 0.0
Zn377 Zn 0.54855 0.00207 0.51757 0.0
C378 C 0.50523 0.06841 0.5866 0.0
O379 O 0.48797 0.05464 0.59597 0.0
C380 C 0.52984 0.96524 0.48034 0.0
O381 O 0.54303 0.98052 0.46785 0.0
O382 O 0.46053 0.03566 0.54011 0.0
O383 O 0.51083 0.03165 0.5126 0.0
O384 O 0.54045 0.02386 0.49102 0.0
C385 C 0.45844 0.05642 0.53318 0.0
O386 O 0.47792 0.07111 0.52962 0.0
O387 O 0.51204 0.06155 0.56566 0.0
C388 C 0.58452 0.97539 0.53087 0.0
O389 O 0.56475 0.96158 0.53515 0.0
O390 O 0.58308 0.99591 0.52292 0.0
O391 O 0.53639 0.01455 0.54915 0.0
O392 O 0.50317 0.00411 0.56552 0.0
O393 O 0.52871 0.97037 0.5037 0.0
C394 C 0.52065 0.03163 0.4921 0.0
C395 C 0.52444 0.00084 0.56284 0.0
Zn396 Zn 0.28963 0.24376 0.76552 0.0
Zn397 Zn 0.24438 0.2665 0.77614 0.0
C398 C 0.27543 0.21097 0.7225 0.0
O399 O 0.28505 0.19747 0.73804 0.0
C400 C 0.26018 0.30077 0.816 0.0
O401 O 0.25096 0.31279 0.79867 0.0
O402 O 0.32315 0.23677 0.76367 0.0
O403 O 0.29484 0.28014 0.77134 0.0
O404 O 0.26153 0.28788 0.75232 0.0
C405 C 0.33163 0.24534 0.74442 0.0
O406 O 0.3186 0.25721 0.73015 0.0
O407 O 0.2737 0.23245 0.73042 0.0
C408 C 0.20091 0.25949 0.79476 0.0
O409 O 0.21335 0.24532 0.80656 0.0
O410 O 0.21067 0.2727 0.77903 0.0
O411 O 0.23972 0.23007 0.76892 0.0
O412 O 0.27236 0.22297 0.78958 0.0
O413 O 0.26042 0.27837 0.81091 0.0
C414 C 0.28378 0.29392 0.75878 0.0
C415 C 0.25035 0.21657 0.78226 0.0
Zn416 Zn 0.03179 0.98308 0.52109 0.0
Zn417 Zn 0.01155 0.02766 0.50942 0.0
C418 C 0.06473 0.00192 0.56214 0.0
O419 O 0.07763 0.99058 0.54749 0.0
C420 C 0.97602 0.01234 0.47012 0.0
O421 O 0.96452 0.02202 0.48751 0.0
O422 O 0.03929 0.9507 0.52958 0.0
O423 O 0.99612 0.97719 0.51487 0.0
O424 O 0.9904 0.01131 0.53416 0.0
C425 C 0.03083 0.94573 0.55018 0.0
O426 O 0.01802 0.9604 0.56084 0.0
O427 O 0.04341 0.00339 0.55402 0.0
C428 C 0.01618 0.07053 0.48834 0.0
O429 O 0.02742 0.05674 0.47425 0.0
O430 O 0.00645 0.06194 0.50697 0.0
O431 O 0.04787 0.03118 0.51382 0.0
O432 O 0.0512 0.99645 0.49404 0.0
O433 O 0.99811 0.01151 0.47507 0.0
C434 C 0.98335 0.98896 0.52781 0.0
C435 C 0.05935 0.01857 0.50012 0.0
Zn436 Zn 0.25849 0.78819 0.75052 0.0
Zn437 Zn 0.27971 0.73922 0.7719 0.0
C438 C 0.21911 0.76371 0.71851 0.0
O439 O 0.23337 0.77264 0.70228 0.0
C440 C 0.32287 0.75212 0.80145 0.0
O441 O 0.31183 0.73419 0.81249 0.0
O442 O 0.25017 0.8221 0.74793 0.0
O443 O 0.27074 0.78727 0.78653 0.0
O444 O 0.25775 0.75071 0.79654 0.0
C445 C 0.23206 0.82474 0.75979 0.0
O446 O 0.22246 0.80674 0.77175 0.0
O447 O 0.22649 0.76649 0.74175 0.0
C448 C 0.30306 0.70034 0.76109 0.0
O449 O 0.31466 0.71836 0.75059 0.0
O450 O 0.28507 0.70401 0.7727 0.0
O451 O 0.2687 0.74173 0.73585 0.0
O452 O 0.2816 0.77829 0.72634 0.0
O453 O 0.31233 0.75928 0.78229 0.0
C454 C 0.25972 0.77351 0.80094 0.0
C455 C 0.28076 0.75561 0.72234 0.0
Zn456 Zn 0.51688 0.02095 0.99433 0.0
Zn457 Zn 0.49627 0.00055 0.04026 0.0
C458 C 0.555 0.05495 0.01599 0.0
O459 O 0.54122 0.06769 0.00376 0.0
C460 C 0.45753 0.96683 0.01989 0.0
O461 O 0.46923 0.95488 0.03539 0.0
O462 O 0.52776 0.028 0.96049 0.0
O463 O 0.50852 0.9849 0.99093 0.0
O464 O 0.5209 0.98043 0.02992 0.0
C465 C 0.54671 0.01918 0.95758 0.0
O466 O 0.55491 0.00683 0.97518 0.0
O467 O 0.54743 0.03267 0.01718 0.0
C468 C 0.46889 0.00243 0.0803 0.0
O469 O 0.45869 0.01492 0.0641 0.0
O470 O 0.4871 0.99347 0.07454 0.0
O471 O 0.50384 0.03654 0.04311 0.0
O472 O 0.49201 0.041 0.004 0.0
O473 O 0.46584 0.98874 0.01769 0.0
C474 C 0.51817 0.97294 0.00674 0.0
C475 C 0.49404 0.04838 0.02722 0.0
Zn476 Zn 0.26851 0.22573 0.24256 0.0
Zn477 Zn 0.24571 0.27026 0.27681 0.0
C478 C 0.30676 0.2499 0.22087 0.0
O479 O 0.29084 0.24228 0.20166 0.0
C480 C 0.21206 0.25369 0.3088 0.0
O481 O 0.23064 0.26395 0.32416 0.0
O482 O 0.27675 0.19292 0.23156 0.0
O483 O 0.25767 0.22067 0.27685 0.0
O484 O 0.27106 0.25617 0.2972 0.0
C485 C 0.29492 0.18957 0.24556 0.0
O486 O 0.30401 0.20606 0.26392 0.0
O487 O 0.30087 0.247 0.24298 0.0
C488 C 0.22451 0.31028 0.27968 0.0
O489 O 0.20979 0.29391 0.26484 0.0
O490 O 0.24415 0.30497 0.28893 0.0
O491 O 0.24608 0.2723 0.23938 0.0
O492 O 0.24621 0.23777 0.21683 0.0
O493 O 0.21397 0.25244 0.28526 0.0
C494 C 0.26699 0.2333 0.29687 0.0
C495 C 0.24399 0.25994 0.21823 0.0
Zn496 Zn 0.53081 0.48633 0.02641 0.0
Zn497 Zn 0.50608 0.52797 0.0075 0.0
C498 C 0.56386 0.50751 0.06626 0.0
O499 O 0.57719 0.4974 0.05108 0.0
C500 C 0.47108 0.50693 0.96992 0.0
O501 O 0.45904 0.51659 0.9868 0.0
O502 O 0.53937 0.45463 0.03536 0.0
O503 O 0.49475 0.47875 0.02053 0.0
O504 O 0.48617 0.51382 0.0342 0.0
C505 C 0.53118 0.44932 0.05598 0.0
O506 O 0.51833 0.46372 0.06703 0.0
O507 O 0.54205 0.50749 0.05876 0.0
C508 C 0.5077 0.56759 0.98089 0.0
O509 O 0.51936 0.5531 0.9682 0.0
O510 O 0.4987 0.56071 0.00063 0.0
O511 O 0.54225 0.53471 0.0123 0.0
O512 O 0.55079 0.49935 -0.00042 0.0
O513 O 0.4935 0.50806 0.97478 0.0
C514 C 0.48058 0.491 0.03077 0.0
C515 C 0.55619 0.52218 0.00208 0.0
Zn516 Zn 0.75819 0.29182 0.25484 0.0
Zn517 Zn 0.78224 0.23588 0.27906 0.0
C518 C 0.70734 0.26288 0.24885 0.0
O519 O 0.70821 0.25799 0.27245 0.0
C520 C 0.82197 0.25021 0.31339 0.0
O521 O 0.80602 0.2392 0.32678 0.0
O522 O 0.75509 0.3276 0.25955 0.0
O523 O 0.7715 0.27903 0.28619 0.0
O524 O 0.76204 0.2474 0.30608 0.0
C525 C 0.73664 0.33028 0.27075 0.0
O526 O 0.72414 0.31115 0.27852 0.0
O527 O 0.72536 0.27498 0.24062 0.0
C528 C 0.7986 0.19393 0.26105 0.0
O529 O 0.81174 0.21082 0.25043 0.0
O530 O 0.78312 0.19984 0.2752 0.0
O531 O 0.76908 0.24803 0.24672 0.0
O532 O 0.77919 0.28114 0.22885 0.0
O533 O 0.81622 0.25179 0.29021 0.0
C534 C 0.76012 0.26921 0.30304 0.0
C535 C 0.78105 0.25907 0.23088 0.0
Zn536 Zn 0.021 0.53135 0.49732 0.0
Zn537 Zn 0.99418 0.50224 0.5355 0.0
C538 C 0.05507 0.56197 0.53135 0.0
O539 O 0.04233 0.57745 0.52236 0.0
C540 C 0.95904 0.46879 0.50516 0.0
O541 O 0.97285 0.45424 0.51416 0.0
O542 O 0.03631 0.54525 0.468 0.0
O543 O 0.01448 0.49595 0.48672 0.0
O544 O 0.02108 0.48553 0.5249 0.0
C545 C 0.05726 0.54038 0.4665 0.0
O546 O 0.06594 0.52729 0.48309 0.0
O547 O 0.04778 0.53958 0.52558 0.0
C548 C 0.96441 0.49658 0.57331 0.0
O549 O 0.95298 0.50851 0.55755 0.0
O550 O 0.98398 0.49035 0.56771 0.0
O551 O 0.99912 0.53811 0.54377 0.0
O552 O 0.99334 0.54798 0.50526 0.0
O553 O 0.96512 0.49139 0.51055 0.0
C554 C 0.02141 0.48126 0.50132 0.0
C555 C 0.99144 0.55195 0.5286 0.0
Zn556 Zn 0.79001 0.74671 0.26601 0.0
Zn557 Zn 0.744 0.76944 0.2786 0.0
C558 C 0.77484 0.71301 0.22457 0.0
O559 O 0.78522 0.70032 0.24041 0.0
C560 C 0.76097 0.8044 0.31794 0.0
O561 O 0.75114 0.81637 0.30095 0.0
O562 O 0.82369 0.74068 0.26147 0.0
O563 O 0.79395 0.78302 0.27189 0.0
O564 O 0.76008 0.79087 0.25409 0.0
C565 C 0.83055 0.75051 0.24211 0.0
O566 O 0.81627 0.76291 0.23011 0.0
O567 O 0.77282 0.73458 0.23181 0.0
C568 C 0.70321 0.76293 0.30214 0.0
O569 O 0.71895 0.75286 0.31507 0.0
O570 O 0.70957 0.77342 0.28295 0.0
O571 O 0.74084 0.7333 0.27171 0.0
O572 O 0.7741 0.72609 0.29109 0.0
O573 O 0.76133 0.78206 0.31268 0.0
C574 C 0.78252 0.79673 0.25962 0.0
C575 C 0.75175 0.72023 0.28534 0.0
Zn576 Zn 0.76026 0.25231 0.79037 0.0
Zn577 Zn 0.7771 0.27155 0.74218 0.0
C578 C 0.72394 0.2141 0.77529 0.0
O579 O 0.71369 0.2293 0.78879 0.0
C580 C 0.80632 0.31419 0.76207 0.0
O581 O 0.81886 0.30642 0.74458 0.0
O582 O 0.75594 0.24536 0.8261 0.0
O583 O 0.79617 0.25825 0.79016 0.0
O584 O 0.8005 0.24939 0.75016 0.0
C585 C 0.76505 0.22663 0.83009 0.0
O586 O 0.77546 0.21662 0.81201 0.0
O587 O 0.74563 0.22027 0.77122 0.0
C588 C 0.77033 0.30025 0.70301 0.0
O589 O 0.75911 0.31009 0.72054 0.0
O590 O 0.78051 0.28235 0.70773 0.0
O591 O 0.74214 0.25976 0.7417 0.0
O592 O 0.74009 0.27689 0.77937 0.0
O593 O 0.7865 0.30182 0.76563 0.0
C594 C 0.80835 0.25096 0.77317 0.0
C595 C 0.73129 0.27177 0.75667 0.0
Zn596 Zn 0.77208 0.7308 0.75127 0.0
Zn597 Zn 0.75559 0.77664 0.78428 0.0
C598 C 0.8103 0.75241 0.72782 0.0
O599 O 0.79412 0.74353 0.70919 0.0
C600 C 0.71828 0.76281 0.81196 0.0
O601 O 0.73642 0.77207 0.82836 0.0
O602 O 0.77876 0.69809 0.73798 0.0
O603 O 0.76334 0.72498 0.78613 0.0
O604 O 0.77685 0.76016 0.80744 0.0
C605 C 0.79728 0.69393 0.75079 0.0
O606 O 0.80709 0.70944 0.76973 0.0
O607 O 0.80474 0.75127 0.75028 0.0
C608 C 0.74181 0.82043 0.78031 0.0
O609 O 0.72995 0.80622 0.76136 0.0
O610 O 0.75556 0.81181 0.79593 0.0
O611 O 0.76286 0.77932 0.74806 0.0
O612 O 0.74861 0.74394 0.72787 0.0
O613 O 0.72154 0.76154 0.78867 0.0
C614 C 0.77189 0.73727 0.80662 0.0
C615 C 0.7529 0.76677 0.72821 0.0
Zn616 Zn 0.54395 0.5118 0.54297 0.0
Zn617 Zn 0.49516 0.52275 0.50962 0.0
C618 C 0.52983 0.47732 0.57474 0.0
O619 O 0.53974 0.49628 0.58994 0.0
C620 C 0.51042 0.56147 0.4836 0.0
O621 O 0.50107 0.54426 0.46604 0.0
O622 O 0.57853 0.51089 0.55547 0.0
O623 O 0.54597 0.51336 0.50576 0.0
O624 O 0.51024 0.50191 0.48508 0.0
C625 C 0.58409 0.49151 0.54546 0.0
O626 O 0.56826 0.4772 0.52965 0.0
O627 O 0.52769 0.47925 0.55119 0.0
C628 C 0.45232 0.53779 0.51607 0.0
O629 O 0.46719 0.54917 0.53473 0.0
O630 O 0.46008 0.52399 0.49979 0.0
O631 O 0.49507 0.51405 0.54541 0.0
O632 O 0.52829 0.53607 0.56299 0.0
O633 O 0.511 0.55681 0.5065 0.0
C634 C 0.53292 0.50564 0.4855 0.0
C635 C 0.5062 0.52812 0.56369 0.0
Zn636 Zn 0.99052 0.51436 0.04157 0.0
Zn637 Zn 0.03981 0.49707 0.01951 0.0
C638 C 0.01579 0.55617 0.07211 0.0
O639 O 0.01038 0.54268 0.09038 0.0
C640 C 0.02204 0.45948 0.98367 0.0
O641 O 0.03305 0.47602 0.9708 0.0
O642 O 0.95649 0.52149 0.04493 0.0
O643 O 0.99092 0.50317 0.00537 0.0
O644 O 0.02652 0.5203 0.99717 0.0
C645 C 0.95295 0.53962 0.03313 0.0
O646 O 0.97026 0.55 0.02095 0.0
O647 O 0.01097 0.54713 0.04945 0.0
C648 C 0.08193 0.47846 0.02992 0.0
O649 O 0.06697 0.46747 0.04431 0.0
O650 O 0.07466 0.49338 0.01554 0.0
O651 O 0.03862 0.50477 0.05669 0.0
O652 O 0.00196 0.49147 0.06527 0.0
O653 O 0.02159 0.46419 0.00722 0.0
C654 C 0.00396 0.51605 0.9918 0.0
C655 C 0.02443 0.49307 0.07018 0.0
H656 H 0.02333 0.18323 0.89708 0.0
H657 H 0.02387 0.10238 0.01357 0.0
H658 H 0.01055 0.20755 0.97247 0.0
H659 H 0.02448 0.07434 0.93638 0.0
H660 H 0.0276 0.14318 2e-05 0.0
H661 H 0.0318 0.1453 0.91236 0.0
C662 C 0.02253 0.18072 0.91685 0.0
C663 C 0.01582 0.19847 0.93341 0.0
C664 C 0.02726 0.12811 0.9861 0.0
C665 C 0.02559 0.15522 0.95102 0.0
C666 C 0.02531 0.10485 0.99386 0.0
C667 C 0.02354 0.08495 0.97603 0.0
C668 C 0.0275 0.13144 0.96036 0.0
C669 C 0.02544 0.08918 0.95072 0.0
C670 C 0.02734 0.15906 0.92556 0.0
C671 C 0.01523 0.19425 0.95889 0.0
N672 N 0.02705 0.11192 0.9436 0.0
N673 N 0.01987 0.17304 0.96685 0.0
H674 H 0.07933 0.77839 0.20807 0.0
H675 H 0.22064 0.7914 0.21257 0.0
H676 H 0.12077 0.80823 0.15054 0.0
H677 H 0.18226 0.77354 0.27657 0.0
H678 H 0.18406 0.79958 0.19074 0.0
H679 H 0.11638 0.77861 0.23467 0.0
C680 C 0.09615 0.78528 0.20112 0.0
C681 C 0.09688 0.79302 0.17683 0.0
C682 C 0.18358 0.79409 0.20964 0.0
C683 C 0.13934 0.79314 0.20717 0.0
C684 C 0.20449 0.78935 0.22212 0.0
C685 C 0.20445 0.78158 0.24636 0.0
C686 C 0.16225 0.79075 0.22128 0.0
C687 C 0.18304 0.77947 0.25788 0.0
C688 C 0.11731 0.78538 0.21635 0.0
C689 C 0.11924 0.80184 0.16896 0.0
N690 N 0.16268 0.78373 0.24509 0.0
N691 N 0.13953 0.80141 0.18396 0.0
H692 H 0.49665 0.81236 0.45068 0.0
H693 H 0.52379 0.9516 0.43007 0.0
H694 H 0.50958 0.83947 0.37906 0.0
H695 H 0.51143 0.92475 0.50195 0.0
H696 H 0.51174 0.91084 0.4098 0.0
H697 H 0.49526 0.85324 0.46834 0.0
C698 C 0.49894 0.82691 0.43859 0.0
C699 C 0.50363 0.82265 0.41348 0.0
C700 C 0.51137 0.91386 0.42996 0.0
C701 C 0.50219 0.86945 0.4336 0.0
C702 C 0.51827 0.93714 0.44157 0.0
C703 C 0.51902 0.94145 0.46778 0.0
C704 C 0.5054 0.89472 0.44472 0.0
C705 C 0.51132 0.92215 0.4817 0.0
C706 C 0.49812 0.85025 0.44869 0.0
C707 C 0.50618 0.84206 0.39859 0.0
N708 N 0.50516 0.89951 0.47002 0.0
N709 N 0.50573 0.86471 0.40897 0.0
H710 H 0.45036 0.24831 0.6578 0.0
H711 H 0.37207 0.24197 0.77504 0.0
H712 H 0.48185 0.26619 0.73427 0.0
H713 H 0.34492 0.24137 0.69741 0.0
H714 H 0.41246 0.24196 0.76153 0.0
H715 H 0.41185 0.23601 0.67326 0.0
C716 C 0.44917 0.24948 0.67793 0.0
C717 C 0.46918 0.25871 0.69479 0.0
C718 C 0.39754 0.2415 0.74753 0.0
C719 C 0.42494 0.24494 0.7127 0.0
C720 C 0.37458 0.24141 0.75519 0.0
C721 C 0.35535 0.242 0.73728 0.0
C722 C 0.40093 0.2418 0.72184 0.0
C723 C 0.35938 0.2413 0.71183 0.0
C724 C 0.42715 0.24244 0.68677 0.0
C725 C 0.46673 0.25937 0.72068 0.0
N726 N 0.38169 0.24135 0.70491 0.0
N727 N 0.44482 0.25293 0.72892 0.0
H728 H 0.03132 0.79952 0.58098 0.0
H729 H 0.02887 0.93962 0.5996 0.0
H730 H 0.02592 0.83796 0.65261 0.0
H731 H 0.04365 0.90384 0.52983 0.0
H732 H 0.03253 0.90336 0.62031 0.0
H733 H 0.04097 0.83791 0.56307 0.0
C734 C 0.03252 0.81608 0.59305 0.0
C735 C 0.02744 0.81563 0.61821 0.0
C736 C 0.03523 0.90341 0.60054 0.0
C737 C 0.03822 0.85956 0.59777 0.0
C738 C 0.033 0.92408 0.58864 0.0
C739 C 0.03553 0.92451 0.56286 0.0
C740 C 0.03966 0.88281 0.58648 0.0
C741 C 0.04137 0.90411 0.5497 0.0
C742 C 0.03805 0.83799 0.58279 0.0
C743 C 0.0295 0.83754 0.63305 0.0
N744 N 0.04287 0.88387 0.5616 0.0
N745 N 0.03438 0.85866 0.62249 0.0
H746 H 0.47128 0.75975 0.85144 0.0
H747 H 0.34421 0.79841 0.8171 0.0
H748 H 0.44481 0.81432 0.89726 0.0
H749 H 0.35843 0.72582 0.80445 0.0
H750 H 0.38563 0.81106 0.8363 0.0
H751 H 0.43437 0.75426 0.82341 0.0
C752 C 0.45794 0.77094 0.85534 0.0
C753 C 0.46098 0.78729 0.87693 0.0
C754 C 0.3797 0.79248 0.82889 0.0
C755 C 0.41889 0.78117 0.84482 0.0
C756 C 0.35625 0.78534 0.81789 0.0
C757 C 0.34815 0.7611 0.80941 0.0
C758 C 0.39501 0.77528 0.83074 0.0
C759 C 0.36415 0.74466 0.81096 0.0
C760 C 0.43687 0.7677 0.83939 0.0
C761 C 0.44304 0.80128 0.88101 0.0
N762 N 0.38686 0.75205 0.82145 0.0
N763 N 0.42265 0.7978 0.86517 0.0
H764 H 0.48342 0.17582 0.12103 0.0
H765 H 0.4827 0.08447 -0.00094 0.0
H766 H 0.48658 0.19727 0.0456 0.0
H767 H 0.48948 0.06501 0.07537 0.0
H768 H 0.47541 0.1243 0.01506 0.0
H769 H 0.47633 0.13357 0.10377 0.0
C770 C 0.48212 0.17167 0.10083 0.0
C771 C 0.48609 0.19007 0.08477 0.0
C772 C 0.47824 0.11119 0.02826 0.0
C773 C 0.47826 0.1419 0.06495 0.0
C774 C 0.48239 0.08847 0.01913 0.0
C775 C 0.48714 0.07159 0.03594 0.0
C776 C 0.47879 0.11696 0.05435 0.0
C777 C 0.48635 0.07765 0.06175 0.0
C778 C 0.47822 0.14755 0.09099 0.0
C779 C 0.48412 0.18364 0.05872 0.0
N780 N 0.4825 0.0999 0.07018 0.0
N781 N 0.48066 0.1601 0.04965 0.0
H782 H 0.10775 0.2594 0.413 0.0
H783 H 0.16707 0.24803 0.28381 0.0
H784 H 0.06716 0.25474 0.3407 0.0
H785 H 0.204 0.24656 0.35712 0.0
H786 H 0.12929 0.24583 0.30322 0.0
H787 H 0.14211 0.25047 0.39209 0.0
C788 C 0.10603 0.25634 0.39267 0.0
C789 C 0.08465 0.25806 0.37855 0.0
C790 C 0.14563 0.2456 0.31496 0.0
C791 C 0.12414 0.248 0.35431 0.0
C792 C 0.16716 0.24672 0.30388 0.0
C793 C 0.18872 0.24777 0.31894 0.0
C794 C 0.14577 0.24556 0.34123 0.0
C795 C 0.18785 0.24613 0.34484 0.0
C796 C 0.12568 0.25117 0.3807 0.0
C797 C 0.08338 0.25367 0.35228 0.0
N798 N 0.16681 0.24536 0.35516 0.0
N799 N 0.10298 0.24913 0.34094 0.0
H800 H 0.90599 0.0178 0.17392 0.0
H801 H 0.02996 0.04154 0.11146 0.0
H802 H 0.97549 0.02982 0.21562 0.0
H803 H 0.9612 0.02122 0.06873 0.0
H804 H 0.00977 0.04403 0.15003 0.0
H805 H 0.92534 0.0259 0.13539 0.0
C806 C 0.92523 0.02255 0.17506 0.0
C807 C 0.93914 0.02277 0.19794 0.0
C808 C 0.99909 0.03923 0.13217 0.0
C809 C 0.9614 0.03191 0.15409 0.0
C810 C 0.01064 0.03788 0.11014 0.0
C811 C 0.99731 0.03083 0.08686 0.0
C812 C 0.97403 0.03358 0.1309 0.0
C813 C 0.97226 0.02637 0.08631 0.0
C814 C 0.9363 0.02703 0.15307 0.0
C815 C 0.96406 0.02902 0.19831 0.0
N816 N 0.96147 0.02763 0.10797 0.0
N817 N 0.97435 0.03313 0.17675 0.0
H818 H 0.24811 0.61249 0.43715 0.0
H819 H 0.22236 0.72683 0.36679 0.0
H820 H 0.24276 0.68176 0.47453 0.0
H821 H 0.24291 0.66329 0.33023 0.0
H822 H 0.21895 0.7064 0.40531 0.0
H823 H 0.23549 0.62687 0.39693 0.0
C824 C 0.24384 0.63053 0.43694 0.0
C825 C 0.2469 0.64614 0.45903 0.0
C826 C 0.22387 0.69682 0.38872 0.0
C827 C 0.23256 0.66265 0.41341 0.0
C828 C 0.22576 0.70846 0.36675 0.0
C829 C 0.23344 0.69691 0.34552 0.0
C830 C 0.22965 0.67352 0.38936 0.0
C831 C 0.23743 0.67303 0.34639 0.0
C832 C 0.23672 0.63875 0.41403 0.0
C833 C 0.24104 0.6693 0.45783 0.0
N834 N 0.23577 0.66222 0.36806 0.0
N835 N 0.2344 0.67695 0.43535 0.0
H836 H 0.627 0.98267 0.67917 0.0
H837 H 0.50499 0.96662 0.59239 0.0
H838 H 0.55825 0.95357 0.70182 0.0
H839 H 0.57243 0.004 0.57388 0.0
H840 H 0.52617 0.95036 0.62712 0.0
H841 H 0.60954 0.97824 0.63538 0.0
C842 C 0.60846 0.97452 0.67482 0.0
C843 C 0.59389 0.96898 0.69411 0.0
C844 C 0.53638 0.96164 0.61503 0.0
C845 C 0.5737 0.96438 0.64437 0.0
C846 C 0.52428 0.97092 0.59522 0.0
C847 C 0.53692 0.98679 0.58028 0.0
C848 C 0.56124 0.96853 0.62008 0.0
C849 C 0.56192 0.99174 0.58479 0.0
C850 C 0.59842 0.9722 0.64986 0.0
C851 C 0.56996 0.95853 0.68747 0.0
N852 N 0.57321 0.98294 0.60447 0.0
N853 N 0.56049 0.95703 0.66322 0.0
H854 H 0.2711 0.4008 0.94783 0.0
H855 H 0.27427 0.28081 0.85884 0.0
H856 H 0.2812 0.33275 0.97513 0.0
H857 H 0.26329 0.34852 0.8312 0.0
H858 H 0.28218 0.30097 0.90151 0.0
H859 H 0.27353 0.38351 0.90487 0.0
C860 C 0.27416 0.38236 0.94482 0.0
C861 C 0.27567 0.36811 0.965 0.0
C862 C 0.27826 0.31146 0.88606 0.0
C863 C 0.27829 0.34816 0.91606 0.0
C864 C 0.27379 0.29995 0.8617 0.0
C865 C 0.2678 0.31291 0.84148 0.0
C866 C 0.27667 0.33608 0.89021 0.0
C867 C 0.26754 0.33772 0.84627 0.0
C868 C 0.27548 0.37246 0.92031 0.0
C869 C 0.27967 0.34432 0.96007 0.0
N870 N 0.27166 0.34843 0.87014 0.0
N871 N 0.28062 0.33503 0.93611 0.0
H872 H 0.87707 0.00386 0.33808 0.0
H873 H 0.99551 0.99825 0.42725 0.0
H874 H 0.94479 0.99534 0.3109 0.0
H875 H 0.92885 0.01041 0.4548 0.0
H876 H 0.97566 0.99139 0.38447 0.0
H877 H 0.89413 0.00063 0.38095 0.0
C878 C 0.89542 0.00101 0.3411 0.0
C879 C 0.90962 0.00014 0.32099 0.0
C880 C 0.96533 0.99533 0.39991 0.0
C881 C 0.92928 0.99656 0.36983 0.0
C882 C 0.97665 0.99918 0.42435 0.0
C883 C 0.9639 0.0052 0.44458 0.0
C884 C 0.9411 0.99754 0.3957 0.0
C885 C 0.93946 0.00609 0.43972 0.0
C886 C 0.90518 0.99923 0.36555 0.0
C887 C 0.93327 0.99636 0.32591 0.0
N888 N 0.92892 0.00254 0.41577 0.0
N889 N 0.94241 0.99491 0.34984 0.0
H890 H 0.29519 0.6532 0.60147 0.0
H891 H 0.30228 0.77826 0.68421 0.0
H892 H 0.30819 0.72266 0.57206 0.0
H893 H 0.28056 0.70796 0.70943 0.0
H894 H 0.31425 0.75864 0.64583 0.0
H895 H 0.30118 0.67342 0.64408 0.0
C896 C 0.30005 0.67264 0.60397 0.0
C897 C 0.30056 0.6863 0.5832 0.0
C898 C 0.30718 0.74759 0.66 0.0
C899 C 0.30685 0.70957 0.63177 0.0
C900 C 0.30028 0.75878 0.68184 0.0
C901 C 0.29008 0.74477 0.69991 0.0
C902 C 0.3039 0.72226 0.65632 0.0
C903 C 0.28812 0.71957 0.69596 0.0
C904 C 0.30323 0.68423 0.62831 0.0
C905 C 0.30704 0.71146 0.58759 0.0
N906 N 0.29475 0.70917 0.67456 0.0
N907 N 0.30943 0.72234 0.61137 0.0
H908 H 0.58069 0.01326 0.80489 0.0
H909 H 0.59262 0.01387 0.95297 0.0
H910 H 0.64727 0.01179 0.8489 0.0
H911 H 0.53062 0.03175 0.91141 0.0
H912 H 0.61348 0.01535 0.91518 0.0
H913 H 0.56265 0.02262 0.84347 0.0
C914 C 0.59159 0.01517 0.82269 0.0
C915 C 0.61542 0.01145 0.82381 0.0
C916 C 0.59542 0.01922 0.91431 0.0
C917 C 0.59484 0.02194 0.86796 0.0
C918 C 0.58343 0.01826 0.93586 0.0
C919 C 0.55975 0.02238 0.93518 0.0
C920 C 0.58356 0.02403 0.89175 0.0
C921 C 0.54883 0.02833 0.91264 0.0
C922 C 0.58128 0.02057 0.84469 0.0
C923 C 0.62879 0.01436 0.84727 0.0
N924 N 0.56075 0.02865 0.89164 0.0
N925 N 0.6182 0.01911 0.86849 0.0
H926 H 0.24488 0.29928 0.06599 0.0
H927 H 0.24077 0.30763 0.21506 0.0
H928 H 0.25743 0.36696 0.11227 0.0
H929 H 0.24076 0.24152 0.16861 0.0
H930 H 0.24045 0.32937 0.17742 0.0
H931 H 0.23641 0.27813 0.10286 0.0
C932 C 0.24564 0.30978 0.08395 0.0
C933 C 0.25224 0.33499 0.08606 0.0
C934 C 0.2403 0.31009 0.17544 0.0
C935 C 0.24265 0.31059 0.12869 0.0
C936 C 0.24043 0.29756 0.19694 0.0
C937 C 0.24096 0.27259 0.19511 0.0
C938 C 0.24058 0.29764 0.15181 0.0
C939 C 0.24042 0.26069 0.17103 0.0
C940 C 0.24082 0.29761 0.10504 0.0
C941 C 0.25248 0.34755 0.10977 0.0
N942 N 0.2404 0.27333 0.15039 0.0
N943 N 0.24806 0.33518 0.13027 0.0
H944 H 0.17644 0.88095 0.03727 0.0
H945 H 0.12897 0.00706 0.04822 0.0
H946 H 0.22077 0.94836 0.02778 0.0
H947 H 0.08636 0.9376 0.05259 0.0
H948 H 0.16495 0.98769 0.0487 0.0
H949 H 0.14557 0.90301 0.05081 0.0
C950 C 0.17974 0.90046 0.03822 0.0
C951 C 0.20105 0.91282 0.03105 0.0
C952 C 0.14776 0.97682 0.05008 0.0
C953 C 0.16554 0.93835 0.04628 0.0
C954 C 0.12734 0.98789 0.05001 0.0
C955 C 0.10481 0.97379 0.05017 0.0
C956 C 0.1454 0.95162 0.05045 0.0
C957 C 0.10345 0.94902 0.05218 0.0
C958 C 0.16209 0.9131 0.04599 0.0
C959 C 0.20449 0.93814 0.03299 0.0
N960 N 0.12339 0.93872 0.05203 0.0
N961 N 0.18674 0.9501 0.04008 0.0
H962 H 0.70676 0.57259 0.99235 0.0
H963 H 0.56665 0.56872 0.99147 0.0
H964 H 0.6695 0.62824 0.96583 0.0
H965 H 0.59817 0.50427 0.99652 0.0
H966 H 0.60487 0.59048 0.98249 0.0
H967 H 0.6681 0.54673 0.99391 0.0
C968 C 0.69055 0.57929 0.98653 0.0
C969 C 0.69151 0.60282 0.9792 0.0
C970 C 0.60349 0.57153 0.98532 0.0
C971 C 0.64725 0.57339 0.98125 0.0
C972 C 0.58162 0.55907 0.99054 0.0
C973 C 0.57918 0.53462 0.99481 0.0
C974 C 0.6234 0.55967 0.98476 0.0
C975 C 0.59926 0.5231 0.99326 0.0
C976 C 0.66849 0.5645 0.98746 0.0
C977 C 0.66982 0.61041 0.97186 0.0
N978 N 0.62065 0.53581 0.98866 0.0
N979 N 0.6487 0.59589 0.97334 0.0
H980 H 0.70493 0.47748 0.27068 0.0
H981 H 0.70004 0.33993 0.29706 0.0
H982 H 0.64179 0.43122 0.2881 0.0
H983 H 0.75264 0.37377 0.25173 0.0
H984 H 0.6821 0.37619 0.29916 0.0
H985 H 0.72551 0.44223 0.26737 0.0
C986 C 0.69534 0.45992 0.27359 0.0
C987 C 0.67158 0.4573 0.2797 0.0
C988 C 0.69755 0.37578 0.28871 0.0
C989 C 0.69512 0.4172 0.27643 0.0
C990 C 0.70794 0.35505 0.28756 0.0
C991 C 0.72775 0.35361 0.27389 0.0
C992 C 0.70703 0.39555 0.27628 0.0
C993 C 0.7373 0.37405 0.26236 0.0
C994 C 0.70711 0.43988 0.27172 0.0
C995 C 0.66006 0.43416 0.28332 0.0
N996 N 0.72679 0.39424 0.26376 0.0
N997 N 0.67198 0.41512 0.28186 0.0
H998 H 0.807 0.43368 0.48486 0.0
H999 H 0.94404 0.42334 0.48267 0.0
H1000 H 0.83223 0.37015 0.45429 0.0
H1001 H 0.91947 0.49084 0.49979 0.0
H1002 H 0.9031 0.40463 0.46849 0.0
H1003 H 0.84756 0.45602 0.48686 0.0
C1004 C 0.82095 0.42448 0.47824 0.0
C1005 C 0.81617 0.39984 0.46974 0.0
C1006 C 0.90665 0.42363 0.47499 0.0
C1007 C 0.86274 0.42535 0.47219 0.0
C1008 C 0.93005 0.43432 0.4831 0.0
C1009 C 0.93512 0.45861 0.49264 0.0
C1010 C 0.88807 0.43721 0.47681 0.0
C1011 C 0.91633 0.47203 0.4926 0.0
C1012 C 0.84414 0.43728 0.47938 0.0
C1013 C 0.83502 0.38901 0.46124 0.0
N1014 N 0.89355 0.46105 0.48521 0.0
N1015 N 0.85749 0.40173 0.46301 0.0
H1016 H 0.39876 0.09682 0.26469 0.0
H1017 H 0.27407 0.14217 0.23309 0.0
H1018 H 0.33072 0.05079 0.26461 0.0
H1019 H 0.34208 0.18841 0.25072 0.0
H1020 H 0.29451 0.10679 0.23539 0.0
H1021 H 0.37816 0.12873 0.25035 0.0
C1022 C 0.37946 0.09335 0.26148 0.0
C1023 C 0.36643 0.07122 0.26621 0.0
C1024 C 0.30492 0.12471 0.23834 0.0
C1025 C 0.34262 0.10783 0.24983 0.0
C1026 C 0.29331 0.14482 0.23683 0.0
C1027 C 0.30646 0.1681 0.24194 0.0
C1028 C 0.32977 0.12815 0.24467 0.0
C1029 C 0.3313 0.1707 0.24694 0.0
C1030 C 0.36769 0.1116 0.25328 0.0
C1031 C 0.34145 0.06769 0.26143 0.0
N1032 N 0.3421 0.15101 0.24831 0.0
N1033 N 0.3303 0.08591 0.25373 0.0
H1034 H 0.30794 0.07227 0.51675 0.0
H1035 H 0.45037 0.10031 0.52037 0.0
H1036 H 0.34855 0.14167 0.50721 0.0
H1037 H 0.41312 0.03178 0.53775 0.0
H1038 H 0.41261 0.11487 0.51488 0.0
H1039 H 0.34546 0.05648 0.52435 0.0
C1040 C 0.32472 0.08423 0.5164 0.0
C1041 C 0.32509 0.10835 0.51129 0.0
C1042 C 0.41256 0.09664 0.51992 0.0
C1043 C 0.368 0.09035 0.51978 0.0
C1044 C 0.43421 0.08823 0.52303 0.0
C1045 C 0.43502 0.06472 0.52955 0.0
C1046 C 0.39126 0.08151 0.52325 0.0
C1047 C 0.41335 0.05003 0.53272 0.0
C1048 C 0.34611 0.07518 0.52071 0.0
C1049 C 0.34734 0.12298 0.51104 0.0
N1050 N 0.39232 0.05866 0.5295 0.0
N1051 N 0.36781 0.11374 0.51512 0.0
H1052 H 0.69646 0.57187 0.30625 0.0
H1053 H 0.70376 0.70991 0.2865 0.0
H1054 H 0.63977 0.61236 0.32055 0.0
H1055 H 0.76802 0.67971 0.30163 0.0
H1056 H 0.68029 0.67322 0.29749 0.0
H1057 H 0.7234 0.60989 0.30383 0.0
C1058 C 0.68972 0.5887 0.30922 0.0
C1059 C 0.66565 0.58882 0.31332 0.0
C1060 C 0.69953 0.6746 0.29868 0.0
C1061 C 0.69634 0.63226 0.31027 0.0
C1062 C 0.71302 0.6956 0.29233 0.0
C1063 C 0.73797 0.69799 0.29321 0.0
C1064 C 0.71089 0.65539 0.30548 0.0
C1065 C 0.74884 0.67866 0.30079 0.0
C1066 C 0.70515 0.61037 0.30786 0.0
C1067 C 0.65805 0.61123 0.31715 0.0
N1068 N 0.73518 0.65798 0.30635 0.0
N1069 N 0.67322 0.63194 0.31519 0.0
H1070 H 0.89964 0.43639 0.83303 0.0
H1071 H 0.79835 0.35523 0.74278 0.0
H1072 H 0.84798 0.46613 0.78658 0.0
H1073 H 0.83107 0.3283 0.80775 0.0
H1074 H 0.81526 0.39645 0.75986 0.0
H1075 H 0.8737 0.39716 0.82635 0.0
C1076 C 0.88268 0.43481 0.82181 0.0
C1077 C 0.87623 0.45452 0.80997 0.0
C1078 C 0.81835 0.38162 0.77071 0.0
C1079 C 0.84669 0.40964 0.80198 0.0
C1080 C 0.80873 0.35819 0.76095 0.0
C1081 C 0.81337 0.3387 0.77407 0.0
C1082 C 0.83312 0.38541 0.79346 0.0
C1083 C 0.82714 0.34311 0.79728 0.0
C1084 C 0.86787 0.41241 0.81803 0.0
C1085 C 0.85389 0.45143 0.79585 0.0
N1086 N 0.83686 0.36608 0.80616 0.0
N1087 N 0.84016 0.4293 0.79184 0.0
H1088 H 0.01705 0.8525 0.16489 0.0
H1089 H 0.0213 0.92737 0.04369 0.0
H1090 H 0.0252 0.82116 0.09065 0.0
H1091 H 0.02213 0.95934 0.11968 0.0
H1092 H 0.01863 0.88756 0.05967 0.0
H1093 H 0.01582 0.89128 0.14794 0.0
C1094 C 0.01867 0.85381 0.14502 0.0
C1095 C 0.02129 0.83361 0.12917 0.0
C1096 C 0.01919 0.90329 0.07279 0.0
C1097 C 0.01967 0.87792 0.10953 0.0
C1098 C 0.02048 0.92597 0.06366 0.0
C1099 C 0.02201 0.94668 0.0804 0.0
C1100 C 0.01931 0.90135 0.09881 0.0
C1101 C 0.02113 0.94386 0.10612 0.0
C1102 C 0.0179 0.87595 0.13532 0.0
C1103 C 0.02324 0.83632 0.10355 0.0
N1104 N 0.01995 0.92166 0.11453 0.0
N1105 N 0.02236 0.85807 0.09451 0.0
H1106 H 0.9564 0.26 0.83051 0.0
H1107 H 0.81676 0.21375 0.79951 0.0
H1108 H 0.91038 0.22946 0.88391 0.0
H1109 H 0.85262 0.27453 0.76593 0.0
H1110 H 0.85453 0.20955 0.82242 0.0
H1111 H 0.92151 0.25639 0.79943 0.0
C1112 C 0.93902 0.25217 0.83553 0.0
C1113 C 0.93616 0.2451 0.85982 0.0
C1114 C 0.85423 0.22355 0.80972 0.0
C1115 C 0.89657 0.24061 0.82441 0.0
C1116 C 0.83273 0.22592 0.79663 0.0
C1117 C 0.83167 0.24461 0.78108 0.0
C1118 C 0.87481 0.24006 0.80724 0.0
C1119 C 0.85288 0.25977 0.77766 0.0
C1120 C 0.91921 0.25023 0.81786 0.0
C1121 C 0.91329 0.23528 0.86547 0.0
N1122 N 0.87368 0.25735 0.79093 0.0
N1123 N 0.89437 0.23328 0.84787 0.0
H1124 H 0.55663 0.22013 0.59767 0.0
H1125 H 0.49093 0.09165 0.62818 0.0
H1126 H 0.51464 0.20982 0.66076 0.0
H1127 H 0.53911 0.10187 0.5703 0.0
H1128 H 0.50153 0.13452 0.64243 0.0
H1129 H 0.55204 0.17651 0.58884 0.0
C1130 C 0.54649 0.20873 0.60971 0.0
C1131 C 0.53587 0.2187 0.62989 0.0
C1132 C 0.50997 0.1273 0.62678 0.0
C1133 C 0.53056 0.1687 0.61988 0.0
C1134 C 0.50397 0.10283 0.61869 0.0
C1135 C 0.51393 0.09325 0.59783 0.0
C1136 C 0.52592 0.14225 0.61382 0.0
C1137 C 0.5308 0.10853 0.5863 0.0
C1138 C 0.54396 0.1838 0.60472 0.0
C1139 C 0.52309 0.20297 0.64495 0.0
N1140 N 0.53606 0.13232 0.59429 0.0
N1141 N 0.52066 0.17876 0.63953 0.0
H1142 H 0.58773 0.75394 0.39541 0.0
H1143 H 0.66213 0.77369 0.27703 0.0
H1144 H 0.55191 0.7529 0.32114 0.0
H1145 H 0.68875 0.74823 0.34609 0.0
H1146 H 0.62208 0.76967 0.29232 0.0
H1147 H 0.62556 0.75508 0.37724 0.0
C1148 C 0.58784 0.75376 0.37517 0.0
C1149 C 0.5667 0.75328 0.35974 0.0
C1150 C 0.63678 0.76491 0.30395 0.0
C1151 C 0.61018 0.75501 0.3387 0.0
C1152 C 0.6596 0.76735 0.29534 0.0
C1153 C 0.67886 0.76141 0.31034 0.0
C1154 C 0.63345 0.7568 0.32779 0.0
C1155 C 0.67455 0.75309 0.33383 0.0
C1156 C 0.60947 0.75441 0.36478 0.0
C1157 C 0.56787 0.75307 0.33363 0.0
N1158 N 0.65245 0.75118 0.34181 0.0
N1159 N 0.58937 0.7542 0.32387 0.0
H1160 H 0.03351 0.20381 0.4179 0.0
H1161 H 0.99729 0.10584 0.51454 0.0
H1162 H 0.00277 0.22013 0.48708 0.0
H1163 H 0.03334 0.09209 0.44835 0.0
H1164 H 0.99731 0.14737 0.504 0.0
H1165 H 0.03179 0.16218 0.42797 0.0
C1166 C 0.02635 0.19867 0.43518 0.0
C1167 C 0.01832 0.21557 0.45167 0.0
C1168 C 0.00518 0.13521 0.4918 0.0
C1169 C 0.01631 0.16786 0.46333 0.0
C1170 C 0.00514 0.11153 0.4978 0.0
C1171 C 0.01538 0.09551 0.48235 0.0
C1172 C 0.01546 0.14283 0.47019 0.0
C1173 C 0.02531 0.10381 0.46087 0.0
C1174 C 0.02541 0.17488 0.44094 0.0
C1175 C 0.00925 0.20779 0.47381 0.0
N1176 N 0.02511 0.12686 0.45545 0.0
N1177 N 0.0085 0.18451 0.47899 0.0
H1178 H 0.55815 0.24163 0.18825 0.0
H1179 H 0.70092 0.26927 0.19914 0.0
H1180 H 0.60065 0.26704 0.12954 0.0
H1181 H 0.66197 0.2455 0.26095 0.0
H1182 H 0.6636 0.26569 0.173 0.0
H1183 H 0.59513 0.2406 0.21491 0.0
C1184 C 0.57517 0.24694 0.18093 0.0
C1185 C 0.57621 0.25444 0.15656 0.0
C1186 C 0.66307 0.26106 0.19221 0.0
C1187 C 0.61843 0.25326 0.18689 0.0
C1188 C 0.68448 0.26306 0.20721 0.0
C1189 C 0.68463 0.25783 0.23239 0.0
C1190 C 0.64141 0.2538 0.20232 0.0
C1191 C 0.66268 0.24976 0.24165 0.0
C1192 C 0.59624 0.24631 0.19615 0.0
C1193 C 0.59879 0.26107 0.14811 0.0
N1194 N 0.64188 0.24814 0.22663 0.0
N1195 N 0.61887 0.26036 0.16322 0.0
H1196 H 0.55985 0.8584 0.91339 0.0
H1197 H 0.48759 0.93078 0.00266 0.0
H1198 H 0.5138 0.82353 0.96445 0.0
H1199 H 0.559 0.96161 0.98939 0.0
H1200 H 0.49386 0.89195 0.98324 0.0
H1201 H 0.55708 0.89768 0.93564 0.0
C1202 C 0.54914 0.85901 0.92915 0.0
C1203 C 0.5369 0.83774 0.93699 0.0
C1204 C 0.50831 0.90711 0.98497 0.0
C1205 C 0.53351 0.88214 0.96206 0.0
C1206 C 0.5048 0.92917 0.99625 0.0
C1207 C 0.52305 0.94907 -0.00178 0.0
C1208 C 0.53003 0.90518 0.97501 0.0
C1209 C 0.54469 0.94641 0.98851 0.0
C1210 C 0.54772 0.88131 0.94188 0.0
C1211 C 0.52343 0.83944 0.95766 0.0
N1212 N 0.5476 0.92479 0.97708 0.0
N1213 N 0.52188 0.86126 0.96929 0.0
H1214 H 0.95766 0.74179 0.7069 0.0
H1215 H 0.82545 0.77329 0.68705 0.0
H1216 H 0.92847 0.77152 0.64164 0.0
H1217 H 0.85145 0.74529 0.75474 0.0
H1218 H 0.8651 0.77629 0.67258 0.0
H1219 H 0.92057 0.74506 0.72669 0.0
C1220 C 0.94351 0.74896 0.69675 0.0
C1221 C 0.94613 0.75622 0.6725 0.0
C1222 C 0.86237 0.76975 0.69077 0.0
C1223 C 0.90398 0.76027 0.69502 0.0
C1224 C 0.83972 0.76821 0.69909 0.0
C1225 C 0.83523 0.75908 0.72209 0.0
C1226 C 0.8807 0.76167 0.70531 0.0
C1227 C 0.85431 0.75266 0.73696 0.0
C1228 C 0.92243 0.75093 0.70809 0.0
C1229 C 0.9273 0.76553 0.66028 0.0
N1230 N 0.87621 0.75374 0.72814 0.0
N1231 N 0.90714 0.76722 0.67162 0.0
H1232 H 0.07496 0.00937 0.83291 0.0
H1233 H 0.07978 0.9963 0.98064 0.0
H1234 H 0.13805 0.99813 0.87769 0.0
H1235 H 0.01495 0.00134 0.93513 0.0
H1236 H 0.101 0.99614 0.94303 0.0
H1237 H 0.05276 0.00652 0.86992 0.0
C1238 C 0.08421 0.00639 0.85058 0.0
C1239 C 0.10847 0.00405 0.8522 0.0
C1240 C 0.08212 0.99714 0.94116 0.0
C1241 C 0.08297 0.00062 0.89476 0.0
C1242 C 0.06991 0.99721 0.96267 0.0
C1243 C 0.0455 0.99902 0.96113 0.0
C1244 C 0.06998 0.99907 0.91776 0.0
C1245 C 0.03373 -7e-05 0.93725 0.0
C1246 C 0.07144 0.00466 0.8717 0.0
C1247 C 0.11942 0.00012 0.87558 0.0
N1248 N 0.04613 0.00015 0.91652 0.0
N1249 N 0.10659 0.99856 0.89594 0.0
H1250 H 0.74447 0.37726 0.57221 0.0
H1251 H 0.79214 0.28477 0.66258 0.0
H1252 H 0.78309 0.3207 0.54832 0.0
H1253 H 0.74904 0.33724 0.6868 0.0
H1254 H 0.79144 0.3001 0.62126 0.0
H1255 H 0.74863 0.36544 0.61528 0.0
C1256 C 0.75399 0.36254 0.57604 0.0
C1257 C 0.76324 0.34981 0.55661 0.0
C1258 C 0.78218 0.30833 0.63562 0.0
C1259 C 0.768 0.33621 0.60558 0.0
C1260 C 0.78258 0.29956 0.65922 0.0
C1261 C 0.77059 0.3097 0.67812 0.0
C1262 C 0.76967 0.32736 0.63085 0.0
C1263 C 0.75852 0.32888 0.67274 0.0
C1264 C 0.75627 0.35574 0.60057 0.0
C1265 C 0.77538 0.33085 0.56262 0.0
N1266 N 0.75831 0.33705 0.64955 0.0
N1267 N 0.77732 0.32461 0.5865 0.0
H1268 H 0.40732 0.04704 0.38041 0.0
H1269 H 0.53636 0.03544 0.44524 0.0
H1270 H 0.46748 0.03526 0.33977 0.0
H1271 H 0.47561 0.04267 0.48667 0.0
H1272 H 0.51263 0.04094 0.40666 0.0
H1273 H 0.43319 0.05071 0.41998 0.0
C1274 C 0.42596 0.0454 0.37982 0.0
C1275 C 0.43522 0.04059 0.35685 0.0
C1276 C 0.50459 0.04168 0.42428 0.0
C1277 C 0.46484 0.0448 0.40176 0.0
C1278 C 0.51819 0.03864 0.44633 0.0
C1279 C 0.50801 0.03866 0.46929 0.0
C1280 C 0.48059 0.0446 0.42516 0.0
C1281 C 0.48431 0.04278 0.46951 0.0
C1282 C 0.44072 0.04749 0.40235 0.0
C1283 C 0.45952 0.03872 0.35708 0.0
N1284 N 0.47135 0.04535 0.44777 0.0
N1285 N 0.47342 0.0407 0.37915 0.0
H1286 H 0.77411 0.63346 0.07917 0.0
H1287 H 0.75594 0.73522 0.18577 0.0
H1288 H 0.74622 0.69859 0.06468 0.0
H1289 H 0.78128 0.66939 0.20246 0.0
H1290 H 0.7508 0.72089 0.1412 0.0
H1291 H 0.77604 0.64536 0.12445 0.0
C1292 C 0.76839 0.65019 0.08543 0.0
C1293 C 0.76005 0.66502 0.06798 0.0
C1294 C 0.75734 0.70948 0.15461 0.0
C1295 C 0.76214 0.67868 0.11966 0.0
C1296 C 0.76019 0.71764 0.1801 0.0
C1297 C 0.76912 0.70354 0.19788 0.0
C1298 C 0.76356 0.68707 0.14677 0.0
C1299 C 0.77438 0.6809 0.1894 0.0
C1300 C 0.76945 0.65695 0.11127 0.0
C1301 C 0.75284 0.68651 0.07727 0.0
N1302 N 0.77167 0.67344 0.16443 0.0
N1303 N 0.75409 0.69265 0.10236 0.0
H1304 H 0.06955 0.03002 0.72274 0.0
H1305 H 0.1083 0.99836 0.58568 0.0
H1306 H 0.13546 0.00398 0.71026 0.0
H1307 H 0.04072 0.01979 0.59983 0.0
H1308 H 0.12027 0.0037 0.63085 0.0
H1309 H 0.06035 0.02906 0.67767 0.0
C1310 C 0.08217 0.02406 0.71056 0.0
C1311 C 0.10336 0.01698 0.72048 0.0
C1312 C 0.10291 0.00742 0.62406 0.0
C1313 C 0.09276 0.01593 0.66838 0.0
C1314 C 0.09607 0.00449 0.59825 0.0
C1315 C 0.07338 0.0085 0.58894 0.0
C1316 C 0.08696 0.01443 0.64072 0.0
C1317 C 0.05835 0.01645 0.60613 0.0
C1318 C 0.07685 0.02357 0.68471 0.0
C1319 C 0.1189 0.00952 0.70353 0.0
N1320 N 0.06535 0.01899 0.63118 0.0
N1321 N 0.11326 0.00916 0.67828 0.0
H1322 H 0.71396 0.32056 0.44192 0.0
H1323 H 0.76901 0.31809 0.31146 0.0
H1324 H 0.74048 0.3851 0.40805 0.0
H1325 H 0.72944 0.25497 0.33815 0.0
H1326 H 0.7555 0.34319 0.34454 0.0
H1327 H 0.71578 0.29672 0.40239 0.0
C1328 C 0.71981 0.32974 0.42594 0.0
C1329 C 0.7273 0.35477 0.42822 0.0
C1330 C 0.74942 0.32391 0.343 0.0
C1331 C 0.72988 0.32755 0.38303 0.0
C1332 C 0.75706 0.30951 0.32402 0.0
C1333 C 0.75007 0.28437 0.32182 0.0
C1334 C 0.73521 0.31309 0.36048 0.0
C1335 C 0.73516 0.27427 0.3391 0.0
C1336 C 0.72083 0.31612 0.40337 0.0
C1337 C 0.73455 0.36582 0.40699 0.0
N1338 N 0.7284 0.28866 0.35788 0.0
N1339 N 0.73607 0.35206 0.38533 0.0
H1340 H 0.45232 0.97404 0.23378 0.0
H1341 H 0.43126 0.02068 0.09825 0.0
H1342 H 0.40049 0.01985 0.21542 0.0
H1343 H 0.48481 0.97725 0.1182 0.0
H1344 H 0.41676 0.01704 0.1396 0.0
H1345 H 0.46094 0.97108 0.19003 0.0
C1346 C 0.44259 0.98335 0.22049 0.0
C1347 C 0.42588 0.99752 0.22836 0.0
C1348 C 0.43159 0.00819 0.13488 0.0
C1349 C 0.43585 0.9943 0.17815 0.0
C1350 C 0.43992 0.01027 0.11129 0.0
C1351 C 0.45943 0.99941 0.10486 0.0
C1352 C 0.44286 0.99517 0.1522 0.0
C1353 C 0.46984 0.98606 0.12244 0.0
C1354 C 0.44755 0.98164 0.19548 0.0
C1355 C 0.41359 0.00883 0.21021 0.0
N1356 N 0.4615 0.98443 0.14538 0.0
N1357 N 0.41903 0.0072 0.18596 0.0
H1358 H 0.77438 0.62668 0.91065 0.0
H1359 H 0.7771 0.75591 0.85631 0.0
H1360 H 0.76779 0.69171 0.95575 0.0
H1361 H 0.77116 0.6891 0.80933 0.0
H1362 H 0.77727 0.73312 0.89349 0.0
H1363 H 0.77613 0.64959 0.87349 0.0
C1364 C 0.77323 0.64571 0.91272 0.0
C1365 C 0.77087 0.65725 0.93631 0.0
C1366 C 0.776 0.72348 0.87502 0.0
C1367 C 0.77312 0.68363 0.89405 0.0
C1368 C 0.77603 0.73652 0.85381 0.0
C1369 C 0.77396 0.72443 0.82965 0.0
C1370 C 0.77409 0.6982 0.87205 0.0
C1371 C 0.77257 0.69921 0.82757 0.0
C1372 C 0.77426 0.6588 0.89154 0.0
C1373 C 0.76955 0.68201 0.93793 0.0
N1374 N 0.77264 0.68697 0.84843 0.0
N1375 N 0.77075 0.69434 0.91716 0.0
H1376 H 0.81204 0.06543 0.02498 0.0
H1377 H 0.95456 0.09088 0.02751 0.0
H1378 H 0.85638 0.13537 0.0375 0.0
H1379 H 0.91427 0.0205 0.00306 0.0
H1380 H 0.91778 0.10616 0.03292 0.0
H1381 H 0.8482 0.04707 0.01962 0.0
C1382 C 0.82936 0.07683 0.02702 0.0
C1383 C 0.83128 0.10195 0.03168 0.0
C1384 C 0.91673 0.08738 0.02623 0.0
C1385 C 0.87231 0.0813 0.0253 0.0
C1386 C 0.93784 0.07862 0.02308 0.0
C1387 C 0.93749 0.05437 0.01484 0.0
C1388 C 0.8948 0.07182 0.02131 0.0
C1389 C 0.91525 0.03938 0.00928 0.0
C1390 C 0.84989 0.0664 0.0237 0.0
C1391 C 0.85404 0.11595 0.03382 0.0
N1392 N 0.89467 0.04833 0.01279 0.0
N1393 N 0.87352 0.10547 0.03058 0.0
H1394 H 0.36359 0.37822 0.04427 0.0
H1395 H 0.43917 0.50973 0.03803 0.0
H1396 H 0.32974 0.44115 0.03846 0.0
H1397 H 0.46791 0.44328 0.03581 0.0
H1398 H 0.39963 0.48681 0.04327 0.0
H1399 H 0.40237 0.40361 0.04689 0.0
C1400 C 0.36429 0.39748 0.04372 0.0
C1401 C 0.34325 0.40748 0.04087 0.0
C1402 C 0.41468 0.47735 0.04183 0.0
C1403 C 0.38811 0.43695 0.04359 0.0
C1404 C 0.43726 0.49042 0.03893 0.0
C1405 C 0.45689 0.4784 0.03627 0.0
C1406 C 0.41184 0.45216 0.04232 0.0
C1407 C 0.45332 0.45334 0.0375 0.0
C1408 C 0.38655 0.41203 0.04519 0.0
C1409 C 0.34547 0.43266 0.04063 0.0
N1410 N 0.43135 0.44116 0.04035 0.0
N1411 N 0.36751 0.44653 0.04167 0.0
H1412 H 0.32239 0.54916 0.74378 0.0
H1413 H 0.34752 0.69295 0.75196 0.0
H1414 H 0.39253 0.59205 0.75777 0.0
H1415 H 0.27932 0.65459 0.76718 0.0
H1416 H 0.36284 0.65509 0.74833 0.0
H1417 H 0.30486 0.58649 0.74645 0.0
C1418 C 0.33409 0.56639 0.74713 0.0
C1419 C 0.35898 0.56751 0.75051 0.0
C1420 C 0.34452 0.65485 0.75252 0.0
C1421 C 0.33911 0.61006 0.75357 0.0
C1422 C 0.3357 0.67651 0.75454 0.0
C1423 C 0.31206 0.67699 0.75991 0.0
C1424 C 0.32962 0.63321 0.75555 0.0
C1425 C 0.29769 0.65503 0.76316 0.0
C1426 C 0.32407 0.58762 0.74886 0.0
C1427 C 0.37328 0.59029 0.75507 0.0
N1428 N 0.30666 0.63394 0.76078 0.0
N1429 N 0.36317 0.61057 0.75636 0.0
H1430 H 0.20753 0.58774 0.53333 0.0
H1431 H 0.07409 0.60699 0.55252 0.0
H1432 H 0.18522 0.65672 0.54855 0.0
H1433 H 0.0931 0.53729 0.53274 0.0
H1434 H 0.11633 0.62407 0.55973 0.0
H1435 H 0.16752 0.56779 0.54068 0.0
C1436 C 0.19438 0.59868 0.53858 0.0
C1437 C 0.19963 0.62394 0.53992 0.0
C1438 C 0.11135 0.60495 0.55418 0.0
C1439 C 0.15395 0.60131 0.54839 0.0
C1440 C 0.08718 0.59517 0.55018 0.0
C1441 C 0.08005 0.57077 0.54168 0.0
C1442 C 0.1286 0.59032 0.54928 0.0
C1443 C 0.09781 0.55625 0.53916 0.0
C1444 C 0.17153 0.58729 0.54273 0.0
C1445 C 0.18189 0.63721 0.54684 0.0
N1446 N 0.1213 0.56634 0.54247 0.0
N1447 N 0.15988 0.62575 0.55061 0.0
H1448 H 0.65285 0.92479 0.7944 0.0
H1449 H 0.75011 0.85314 0.74658 0.0
H1450 H 0.70275 0.9555 0.74461 0.0
H1451 H 0.72295 0.84369 0.81847 0.0
H1452 H 0.73368 0.89068 0.74495 0.0
H1453 H 0.67769 0.89415 0.80232 0.0
C1454 C 0.66901 0.92502 0.78502 0.0
C1455 C 0.67562 0.94256 0.76858 0.0
C1456 C 0.73185 0.88077 0.7614 0.0
C1457 C 0.70421 0.90751 0.77769 0.0
C1458 C 0.74132 0.85947 0.7624 0.0
C1459 C 0.73806 0.84562 0.78284 0.0
C1460 C 0.71833 0.88777 0.78059 0.0
C1461 C 0.72612 0.85416 0.80262 0.0
C1462 C 0.68332 0.90768 0.7898 0.0
C1463 C 0.69694 0.94219 0.75727 0.0
N1464 N 0.71624 0.87451 0.80079 0.0
N1465 N 0.71036 0.92471 0.76178 0.0
H1466 H 0.73335 0.9528 0.55071 0.0
H1467 H 0.59083 0.93093 0.54341 0.0
H1468 H 0.68896 0.88285 0.53867 0.0
H1469 H 0.63066 0.99897 0.528 0.0
H1470 H 0.62783 0.9149 0.54902 0.0
H1471 H 0.69709 0.97164 0.54956 0.0
C1472 C 0.71601 0.94142 0.54818 0.0
C1473 C 0.71413 0.91621 0.54476 0.0
C1474 C 0.62857 0.93335 0.54443 0.0
C1475 C 0.67283 0.93757 0.54346 0.0
C1476 C 0.60739 0.94261 0.54125 0.0
C1477 C 0.60753 0.96635 0.535 0.0
C1478 C 0.65032 0.94787 0.54156 0.0
C1479 C 0.62969 0.98053 0.53263 0.0
C1480 C 0.69539 0.95218 0.54733 0.0
C1481 C 0.69126 0.90233 0.54131 0.0
N1482 N 0.65026 0.97105 0.5359 0.0
N1483 N 0.67158 0.91317 0.5408 0.0
H1484 H 0.3335 0.44671 0.74695 0.0
H1485 H 0.3316 0.30578 0.75765 0.0
H1486 H 0.3953 0.41103 0.74757 0.0
H1487 H 0.26658 0.33573 0.74799 0.0
H1488 H 0.35445 0.34472 0.7522 0.0
H1489 H 0.30794 0.40703 0.74525 0.0
C1490 C 0.34169 0.43061 0.74641 0.0
C1491 C 0.36666 0.43231 0.74769 0.0
C1492 C 0.33518 0.34293 0.75109 0.0
C1493 C 0.33759 0.387 0.74589 0.0
C1494 C 0.32207 0.32059 0.75427 0.0
C1495 C 0.29711 0.31746 0.75342 0.0
C1496 C 0.32342 0.36266 0.74731 0.0
C1497 C 0.28581 0.33736 0.74875 0.0
C1498 C 0.32709 0.40798 0.74552 0.0
C1499 C 0.37622 0.41079 0.74697 0.0
N1500 N 0.29908 0.35923 0.74612 0.0
N1501 N 0.36175 0.38922 0.74628 0.0
H1502 H 0.18492 0.55859 0.26112 0.0
H1503 H 0.17442 0.69306 0.23184 0.0
H1504 H 0.11923 0.58381 0.23895 0.0
H1505 H 0.24048 0.67152 0.25932 0.0
H1506 H 0.15607 0.65079 0.22488 0.0
H1507 H 0.20725 0.59736 0.25219 0.0
C1508 C 0.17521 0.57211 0.25403 0.0
C1509 C 0.15015 0.56812 0.25123 0.0
C1510 C 0.17471 0.6552 0.23204 0.0
C1511 C 0.17552 0.61234 0.24091 0.0
C1512 C 0.18522 0.67936 0.23588 0.0
C1513 C 0.20887 0.68579 0.24652 0.0
C1514 C 0.18781 0.63732 0.23931 0.0
C1515 C 0.22212 0.66732 0.25121 0.0
C1516 C 0.18796 0.59422 0.24896 0.0
C1517 C 0.13851 0.58623 0.24188 0.0
N1518 N 0.21126 0.64388 0.24807 0.0
N1519 N 0.15126 0.60756 0.23729 0.0
H1520 H 0.51325 0.71292 0.47788 0.0
H1521 H 0.51769 0.57523 0.4369 0.0
H1522 H 0.51719 0.68523 0.40112 0.0
H1523 H 0.51792 0.60399 0.51398 0.0
H1524 H 0.52233 0.61609 0.42402 0.0
H1525 H 0.51942 0.67415 0.49182 0.0
C1526 C 0.51553 0.69872 0.46391 0.0
C1527 C 0.51432 0.70227 0.43819 0.0
C1528 C 0.52167 0.61353 0.44379 0.0
C1529 C 0.5214 0.65765 0.45417 0.0
C1530 C 0.51901 0.5902 0.45118 0.0
C1531 C 0.51708 0.58621 0.47653 0.0
C1532 C 0.52219 0.63306 0.46184 0.0
C1533 C 0.5192 0.60626 0.49423 0.0
C1534 C 0.51914 0.67656 0.47194 0.0
C1535 C 0.51779 0.68327 0.42109 0.0
N1536 N 0.52132 0.62882 0.4865 0.0
N1537 N 0.5209 0.66167 0.42937 0.0
H1538 H 0.58561 0.29204 0.72287 0.0
H1539 H 0.7172 0.27625 0.708 0.0
H1540 H 0.62467 0.3214 0.66339 0.0
H1541 H 0.69548 0.28637 0.78292 0.0
H1542 H 0.68114 0.28963 0.69118 0.0
H1543 H 0.62365 0.28823 0.74602 0.0
C1544 C 0.60211 0.29817 0.7149 0.0
C1545 C 0.60185 0.3066 0.69086 0.0
C1546 C 0.68432 0.28918 0.71134 0.0
C1547 C 0.64511 0.3019 0.71703 0.0
C1548 C 0.70486 0.28139 0.72097 0.0
C1549 C 0.7094 0.2803 0.74694 0.0
C1550 C 0.66776 0.29539 0.72763 0.0
C1551 C 0.69266 0.28711 0.76279 0.0
C1552 C 0.62377 0.29596 0.72814 0.0
C1553 C 0.62384 0.31439 0.6816 0.0
N1554 N 0.6723 0.2941 0.75284 0.0
N1555 N 0.6445 0.31139 0.69446 0.0
H1556 H 0.00508 0.33562 0.87691 0.0
H1557 H 0.0059 0.41806 0.00517 0.0
H1558 H 0.99515 0.30737 0.94858 0.0
H1559 H 0.01708 0.44572 0.93341 0.0
H1560 H 0.99572 0.3773 0.98384 0.0
H1561 H 0.00327 0.37592 0.89624 0.0
C1562 C 0.00223 0.33786 0.89664 0.0
C1563 C 1.00062 0.31823 0.91126 0.0
C1564 C 1.00014 0.39234 0.97275 0.0
C1565 C 0.99873 0.36424 0.93357 0.0
C1566 C 0.0059 0.4156 0.98491 0.0
C1567 C 0.01271 0.43524 0.97109 0.0
C1568 C 1.00124 0.38877 0.94662 0.0
C1569 C 0.01229 0.43105 0.94487 0.0
C1570 C 1.00122 0.36087 0.90769 0.0
C1571 C 0.99675 0.32209 0.93669 0.0
N1572 N 0.00691 0.40827 0.93354 0.0
N1573 N 0.99622 0.34471 0.94712 0.0
H1574 H 0.97962 0.75039 0.21919 0.0
H1575 H 0.84167 0.75658 0.19476 0.0
H1576 H 0.94165 0.74802 0.14573 0.0
H1577 H 0.87107 0.73748 0.26585 0.0
H1578 H 0.87916 0.75374 0.17743 0.0
H1579 H 0.94114 0.74493 0.23757 0.0
C1580 C 0.96323 0.74829 0.20691 0.0
C1581 C 0.96383 0.74995 0.18093 0.0
C1582 C 0.87751 0.74995 0.19678 0.0
C1583 C 0.92006 0.74401 0.20175 0.0
C1584 C 0.85607 0.75172 0.20677 0.0
C1585 C 0.85328 0.74741 0.23186 0.0
C1586 C 0.89665 0.74413 0.21198 0.0
C1587 C 0.87254 0.74095 0.2464 0.0
C1588 C 0.94133 0.74524 0.2174 0.0
C1589 C 0.9421 0.74715 0.16587 0.0
N1590 N 0.89361 0.73975 0.23631 0.0
N1591 N 0.9212 0.7446 0.17653 0.0
H1592 H 0.52063 0.33627 0.15405 0.0
H1593 H 0.54593 0.40908 0.03425 0.0
H1594 H 0.52817 0.30255 0.08064 0.0
H1595 H 0.52597 0.43978 0.10421 0.0
H1596 H 0.54812 0.37127 0.05342 0.0
H1597 H 0.53149 0.37575 0.13852 0.0
C1598 C 0.52488 0.33719 0.13477 0.0
C1599 C 0.52311 0.31621 0.11846 0.0
C1600 C 0.54352 0.38641 0.0646 0.0
C1601 C 0.53537 0.36113 0.10055 0.0
C1602 C 0.54231 0.40794 0.05369 0.0
C1603 C 0.53532 0.42734 0.06754 0.0
C1604 C 0.53785 0.38448 0.0895 0.0
C1605 C 0.53097 0.42506 0.09271 0.0
C1606 C 0.53103 0.35969 0.12589 0.0
C1607 C 0.529 0.31835 0.09372 0.0
N1608 N 0.53212 0.40395 0.10282 0.0
N1609 N 0.53461 0.34045 0.08541 0.0
H1610 H 0.94065 0.30116 0.42367 0.0
H1611 H 0.86414 0.25913 0.29138 0.0
H1612 H 0.97207 0.27316 0.35918 0.0
H1613 H 0.8347 0.26303 0.363 0.0
H1614 H 0.90438 0.27197 0.31334 0.0
H1615 H 0.90231 0.29554 0.39868 0.0
C1616 C 0.93961 0.29401 0.40418 0.0
C1617 C 0.95967 0.28732 0.39367 0.0
C1618 C 0.88902 0.27016 0.32412 0.0
C1619 C 0.91552 0.28081 0.36487 0.0
C1620 C 0.86613 0.26297 0.31164 0.0
C1621 C 0.84614 0.25989 0.32545 0.0
C1622 C 0.89173 0.27466 0.35046 0.0
C1623 C 0.84964 0.26497 0.35165 0.0
C1624 C 0.91762 0.29075 0.38993 0.0
C1625 C 0.95706 0.27836 0.36817 0.0
N1626 N 0.87195 0.27209 0.36326 0.0
N1627 N 0.93532 0.2752 0.35465 0.0
H1628 H 0.98391 0.67673 0.62654 0.0
H1629 H 0.97735 0.5881 0.50246 0.0
H1630 H 0.97435 0.69789 0.55116 0.0
H1631 H 0.98685 0.56628 0.57762 0.0
H1632 H 0.9683 0.6265 0.52013 0.0
H1633 H 0.97631 0.63443 0.60937 0.0
C1634 C 0.97954 0.67246 0.60647 0.0
C1635 C 0.98028 0.69081 0.59018 0.0
C1636 C 0.97209 0.6132 0.53276 0.0
C1637 C 0.97202 0.64266 0.57041 0.0
C1638 C 0.97732 0.59128 0.52265 0.0
C1639 C 0.98335 0.57416 0.5386 0.0
C1640 C 0.97308 0.6181 0.559 0.0
C1641 C 0.98272 0.57914 0.56463 0.0
C1642 C 0.97539 0.64833 0.59664 0.0
C1643 C 0.97447 0.68428 0.56434 0.0
N1644 N 0.97802 0.60078 0.57404 0.0
N1645 N 0.971 0.66077 0.55522 0.0
H1646 H 0.60808 0.7599 0.91134 0.0
H1647 H 0.67388 0.75658 0.78519 0.0
H1648 H 0.57038 0.75542 0.8375 0.0
H1649 H 0.70847 0.7552 0.85966 0.0
H1650 H 0.63512 0.75228 0.80293 0.0
H1651 H 0.64437 0.75454 0.89194 0.0
C1652 C 0.60739 0.75757 0.89102 0.0
C1653 C 0.58622 0.75828 0.87603 0.0
C1654 C 0.65121 0.75262 0.81529 0.0
C1655 C 0.62788 0.75238 0.85355 0.0
C1656 C 0.67329 0.75497 0.80515 0.0
C1657 C 0.69444 0.75655 0.82102 0.0
C1658 C 0.65038 0.75186 0.84141 0.0
C1659 C 0.69267 0.75442 0.84675 0.0
C1660 C 0.62814 0.7545 0.8799 0.0
C1661 C 0.58636 0.75504 0.84976 0.0
N1662 N 0.67112 0.75241 0.85613 0.0
N1663 N 0.60694 0.7525 0.83933 0.0
H1664 H 0.40229 0.5149 0.6731 0.0
H1665 H 0.52545 0.5486 0.61094 0.0
H1666 H 0.47134 0.53299 0.71549 0.0
H1667 H 0.45894 0.51513 0.56927 0.0
H1668 H 0.50459 0.55059 0.64919 0.0
H1669 H 0.42146 0.52309 0.63448 0.0
C1670 C 0.42136 0.52104 0.67434 0.0
C1671 C 0.43528 0.52293 0.69744 0.0
C1672 C 0.49456 0.54305 0.63157 0.0
C1673 C 0.45732 0.53219 0.65355 0.0
C1674 C 0.50647 0.54194 0.60975 0.0
C1675 C 0.49402 0.53155 0.58686 0.0
C1676 C 0.47002 0.53385 0.63044 0.0
C1677 C 0.46937 0.52321 0.58647 0.0
C1678 C 0.43234 0.52554 0.65232 0.0
C1679 C 0.45998 0.53091 0.69799 0.0
N1680 N 0.45824 0.52445 0.60789 0.0
N1681 N 0.47021 0.53506 0.6764 0.0
H1682 H 0.76857 0.12525 0.94147 0.0
H1683 H 0.74851 0.24324 0.87401 0.0
H1684 H 0.76043 0.192 0.98248 0.0
H1685 H 0.77733 0.18352 0.83971 0.0
H1686 H 0.74609 0.22267 0.91275 0.0
H1687 H 0.76417 0.14416 0.90218 0.0
C1688 C 0.76552 0.14377 0.94215 0.0
C1689 C 0.76509 0.15718 0.96516 0.0
C1690 C 0.75286 0.21414 0.89663 0.0
C1691 C 0.76019 0.17892 0.92054 0.0
C1692 C 0.75424 0.22584 0.87461 0.0
C1693 C 0.76319 0.2151 0.8537 0.0
C1694 C 0.76024 0.19154 0.89746 0.0
C1695 C 0.77038 0.19254 0.8554 0.0
C1696 C 0.76315 0.1546 0.91979 0.0
C1697 C 0.7611 0.18112 0.96508 0.0
N1698 N 0.76873 0.18152 0.87687 0.0
N1699 N 0.75892 0.19131 0.94307 0.0
H1700 H 0.04897 0.45982 0.22098 0.0
H1701 H 0.07149 0.49628 0.08626 0.0
H1702 H 0.11882 0.47315 0.19428 0.0
H1703 H 1.00109 0.4685 0.10605 0.0
H1704 H 0.08885 0.48187 0.12368 0.0
H1705 H 0.03102 0.45516 0.17761 0.0
C1706 C 0.06057 0.46101 0.20592 0.0
C1707 C 0.0854 0.46757 0.21122 0.0
C1708 C 0.06961 0.47857 0.11979 0.0
C1709 C 0.06496 0.46285 0.16167 0.0
C1710 C 0.05959 0.48688 0.09833 0.0
C1711 C 0.03469 0.48367 0.09293 0.0
C1712 C 0.05472 0.4675 0.13656 0.0
C1713 C 0.02035 0.47156 0.10956 0.0
C1714 C 0.05028 0.45846 0.18115 0.0
C1715 C 0.09959 0.46847 0.19105 0.0
N1716 N 0.03057 0.46422 0.13087 0.0
N1717 N 0.08912 0.46681 0.16715 0.0
H1718 H 0.78198 0.83113 0.4789 0.0
H1719 H 0.76499 0.8522 0.33348 0.0
H1720 H 0.77118 0.89914 0.45199 0.0
H1721 H 0.77409 0.78382 0.36065 0.0
H1722 H 0.77245 0.87099 0.37653 0.0
H1723 H 0.7843 0.81498 0.43579 0.0
C1724 C 0.78031 0.84276 0.46391 0.0
C1725 C 0.77613 0.86645 0.46898 0.0
C1726 C 0.77305 0.85193 0.37309 0.0
C1727 C 0.77862 0.84798 0.41949 0.0
C1728 C 0.76881 0.84116 0.34849 0.0
C1729 C 0.76863 0.81631 0.34349 0.0
C1730 C 0.77706 0.83776 0.39292 0.0
C1731 C 0.77392 0.80299 0.36365 0.0
C1732 C 0.78163 0.8335 0.43928 0.0
C1733 C 0.77428 0.88074 0.44886 0.0
N1734 N 0.77767 0.81384 0.38753 0.0
N1735 N 0.7753 0.87119 0.42494 0.0
H1736 H 0.44338 0.49471 0.80953 0.0
H1737 H 0.42337 0.4992 0.95523 0.0
H1738 H 0.37609 0.50188 0.83851 0.0
H1739 H 0.49169 0.49681 0.92656 0.0
H1740 H 0.40438 0.49313 0.91226 0.0
H1741 H 0.45979 0.48878 0.85162 0.0
C1742 C 0.43197 0.49482 0.82474 0.0
C1743 C 0.40841 0.4991 0.8206 0.0
C1744 C 0.42348 0.49363 0.91534 0.0
C1745 C 0.42716 0.4924 0.86891 0.0
C1746 C 0.43435 0.49705 0.9399 0.0
C1747 C 0.45921 0.49888 0.94446 0.0
C1748 C 0.43756 0.49215 0.89516 0.0
C1749 C 0.47249 0.49568 0.92389 0.0
C1750 C 0.44137 0.49142 0.84878 0.0
C1751 C 0.3944 0.49884 0.84093 0.0
N1752 N 0.46153 0.49279 0.90009 0.0
N1753 N 0.40407 0.4958 0.86429 0.0
H1754 H 0.78254 0.14945 0.11241 0.0
H1755 H 0.81243 0.27496 0.19714 0.0
H1756 H 0.81444 0.21637 0.08633 0.0
H1757 H 0.76975 0.21072 0.21805 0.0
H1758 H 0.82291 0.25122 0.16057 0.0
H1759 H 0.78844 0.16882 0.15555 0.0
C1760 C 0.79147 0.16797 0.11588 0.0
C1761 C 0.79757 0.18152 0.09585 0.0
C1762 C 0.81162 0.24227 0.17348 0.0
C1763 C 0.80397 0.20384 0.14477 0.0
C1764 C 0.80561 0.25583 0.19427 0.0
C1765 C 0.79023 0.24483 0.21064 0.0
C1766 C 0.80198 0.21762 0.16897 0.0
C1767 C 0.78183 0.21995 0.20604 0.0
C1768 C 0.79464 0.1791 0.14043 0.0
C1769 C 0.80904 0.20547 0.10129 0.0
N1770 N 0.78765 0.20726 0.18556 0.0
N1771 N 0.81151 0.216 0.12519 0.0
H1772 H 0.08771 0.53164 0.31539 0.0
H1773 H 0.10479 0.54151 0.4635 0.0
H1774 H 0.1536 0.52487 0.35791 0.0
H1775 H 0.0407 0.55309 0.42074 0.0
H1776 H 0.12569 0.5437 0.42563 0.0
H1777 H 0.07316 0.54763 0.35361 0.0
C1778 C 0.09926 0.53383 0.33277 0.0
C1779 C 0.12169 0.52646 0.33366 0.0
C1780 C 0.10718 0.54618 0.42455 0.0
C1781 C 0.10502 0.54449 0.37758 0.0
C1782 C 0.09521 0.54488 0.44616 0.0
C1783 C 0.07084 0.54654 0.44504 0.0
C1784 C 0.09457 0.54881 0.4016 0.0
C1785 C 0.05942 0.5514 0.4223 0.0
C1786 C 0.09096 0.54304 0.3546 0.0
C1787 C 0.13607 0.53008 0.35653 0.0
N1788 N 0.07128 0.55188 0.40131 0.0
N1789 N 0.12729 0.53844 0.37775 0.0
H1790 H 0.75047 0.8 0.57398 0.0
H1791 H 0.76024 0.81515 0.72358 0.0
H1792 H 0.76582 0.86925 0.61739 0.0
H1793 H 0.73983 0.74656 0.67945 0.0
H1794 H 0.75898 0.83547 0.68519 0.0
H1795 H 0.74286 0.78068 0.61221 0.0
C1796 C 0.75206 0.81121 0.59159 0.0
C1797 C 0.75913 0.8363 0.59252 0.0
C1798 C 0.75455 0.816 0.68385 0.0
C1799 C 0.75059 0.8141 0.63663 0.0
C1800 C 0.75525 0.8043 0.70582 0.0
C1801 C 0.75023 0.779 0.70482 0.0
C1802 C 0.749 0.80237 0.66052 0.0
C1803 C 0.7439 0.76605 0.68118 0.0
C1804 C 0.74767 0.80011 0.61345 0.0
C1805 C 0.7605 0.84987 0.61582 0.0
N1806 N 0.74369 0.77787 0.65997 0.0
N1807 N 0.75659 0.83855 0.63704 0.0
H1808 H 0.72266 0.45828 0.51969 0.0
H1809 H 0.59089 0.44961 0.56304 0.0
H1810 H 0.67591 0.39233 0.5291 0.0
H1811 H 0.62902 0.51484 0.53938 0.0
H1812 H 0.62667 0.43104 0.5611 0.0
H1813 H 0.6929 0.48132 0.5357 0.0
C1814 C 0.70629 0.44867 0.52541 0.0
C1815 C 0.70159 0.42335 0.52278 0.0
C1816 C 0.62749 0.44958 0.55679 0.0
C1817 C 0.66774 0.44951 0.54127 0.0
C1818 C 0.60713 0.46024 0.55816 0.0
C1819 C 0.60717 0.48374 0.55145 0.0
C1820 C 0.64794 0.46232 0.54809 0.0
C1821 C 0.62849 0.49673 0.54496 0.0
C1822 C 0.68934 0.46182 0.53451 0.0
C1823 C 0.68015 0.41181 0.5305 0.0
N1824 N 0.64801 0.48569 0.54299 0.0
N1825 N 0.66403 0.42495 0.53927 0.0
H1826 H 0.20794 0.0825 0.50739 0.0
H1827 H 0.07517 0.02524 0.45399 0.0
H1828 H 0.17103 0.11445 0.44843 0.0
H1829 H 0.0975 0.03654 0.5334 0.0
H1830 H 0.11428 0.04737 0.44562 0.0
H1831 H 0.17127 0.05423 0.51061 0.0
C1832 C 0.19229 0.08324 0.49473 0.0
C1833 C 0.19248 0.10097 0.47771 0.0
C1834 C 0.11063 0.04461 0.4648 0.0
C1835 C 0.1507 0.0685 0.48116 0.0
C1836 C 0.08852 0.03194 0.46955 0.0
C1837 C 0.08337 0.02904 0.49438 0.0
C1838 C 0.12772 0.05372 0.48502 0.0
C1839 C 0.10095 0.03832 0.51401 0.0
C1840 C 0.17139 0.06721 0.49671 0.0
C1841 C 0.17157 0.10118 0.46194 0.0
N1842 N 0.12244 0.05013 0.50892 0.0
N1843 N 0.15146 0.08517 0.46403 0.0
H1844 H 0.20263 0.9725 0.76866 0.0
H1845 H 0.18839 0.82994 0.77388 0.0
H1846 H 0.13656 0.92653 0.778 0.0
H1847 H 0.25054 0.8703 0.74699 0.0
H1848 H 0.17025 0.86606 0.7766 0.0
H1849 H 0.2214 0.93644 0.76141 0.0
C1850 C 0.19203 0.95486 0.76901 0.0
C1851 C 0.16797 0.95257 0.77405 0.0
C1852 C 0.1878 0.86715 0.76998 0.0
C1853 C 0.18939 0.91134 0.76598 0.0
C1854 C 0.19829 0.84645 0.76849 0.0
C1855 C 0.22112 0.84702 0.76025 0.0
C1856 C 0.20021 0.88893 0.76345 0.0
C1857 C 0.23289 0.86902 0.7534 0.0
C1858 C 0.20276 0.93431 0.76485 0.0
C1859 C 0.15512 0.92926 0.77425 0.0
N1860 N 0.22237 0.8892 0.75533 0.0
N1861 N 0.16601 0.90966 0.77047 0.0
H1862 H 0.30669 0.92742 0.99175 0.0
H1863 H 0.44321 0.91911 0.00636 0.0
H1864 H 0.33463 0.86406 0.96525 0.0
H1865 H 0.41905 0.98781 0.00467 0.0
H1866 H 0.40331 0.89898 0.99009 0.0
H1867 H 0.34705 0.95058 0.99503 0.0
C1868 C 0.32119 0.91844 0.98621 0.0
C1869 C 0.31725 0.8936 0.97862 0.0
C1870 C 0.40676 0.91848 0.99287 0.0
C1871 C 0.36345 0.91998 0.98262 0.0
C1872 C 0.42952 0.92997 0.00224 0.0
C1873 C 0.43434 0.95512 0.00695 0.0
C1874 C 0.38846 0.93217 0.98877 0.0
C1875 C 0.416 0.96835 0.00122 0.0
C1876 C 0.34422 0.93171 0.98806 0.0
C1877 C 0.33675 0.88305 0.9715 0.0
N1878 N 0.39367 0.95667 0.99284 0.0
N1879 N 0.35903 0.89619 0.97409 0.0
H1880 H 0.90105 0.60093 0.76126 0.0
H1881 H 0.77618 0.64714 0.73538 0.0
H1882 H 0.83304 0.55411 0.75747 0.0
H1883 H 0.84443 0.69291 0.75335 0.0
H1884 H 0.7967 0.61172 0.73378 0.0
H1885 H 0.88053 0.63351 0.74862 0.0
C1886 C 0.88179 0.59744 0.75754 0.0
C1887 C 0.86871 0.5749 0.76082 0.0
C1888 C 0.80715 0.62958 0.73764 0.0
C1889 C 0.845 0.61223 0.74651 0.0
C1890 C 0.79547 0.64971 0.73838 0.0
C1891 C 0.80869 0.67279 0.74482 0.0
C1892 C 0.8321 0.63281 0.7431 0.0
C1893 C 0.8336 0.67531 0.7487 0.0
C1894 C 0.87005 0.61606 0.75032 0.0
C1895 C 0.84379 0.57132 0.75542 0.0
N1896 N 0.84446 0.65558 0.74796 0.0
N1897 N 0.83268 0.58991 0.74883 0.0
H1898 H 0.80458 0.56367 0.02074 0.0
H1899 H 0.94663 0.58409 0.02126 0.0
H1900 H 0.8485 0.6318 0.01309 0.0
H1901 H 0.90782 0.51855 0.04391 0.0
H1902 H 0.91 0.60089 0.01781 0.0
H1903 H 0.84101 0.54599 0.0291 0.0
C1904 C 0.82183 0.57495 0.02099 0.0
C1905 C 0.82345 0.59927 0.01609 0.0
C1906 C 0.90933 0.58287 0.02368 0.0
C1907 C 0.8651 0.57913 0.02547 0.0
C1908 C 0.93034 0.57317 0.0256 0.0
C1909 C 0.93037 0.54977 0.03281 0.0
C1910 C 0.88781 0.56912 0.02873 0.0
C1911 C 0.90863 0.53667 0.03835 0.0
C1912 C 0.8426 0.56484 0.02577 0.0
C1913 C 0.84628 0.61299 0.01666 0.0
N1914 N 0.88813 0.54645 0.03599 0.0
N1915 N 0.86607 0.60272 0.02109 0.0
H1916 H 0.13626 0.10813 0.81491 0.0
H1917 H 0.26721 0.17768 0.80176 0.0
H1918 H 0.19432 0.06879 0.80319 0.0
H1919 H 0.20213 0.20284 0.7771 0.0
H1920 H 0.24312 0.1398 0.81143 0.0
H1921 H 0.16303 0.14559 0.81162 0.0
C1922 C 0.15471 0.1073 0.81199 0.0
C1923 C 0.16289 0.08509 0.80903 0.0
C1924 C 0.23427 0.15377 0.80402 0.0
C1925 C 0.19373 0.12826 0.80521 0.0
C1926 C 0.24794 0.17536 0.79856 0.0
C1927 C 0.2367 0.19356 0.78871 0.0
C1928 C 0.20924 0.15071 0.80011 0.0
C1929 C 0.21166 0.18949 0.78479 0.0
C1930 C 0.16996 0.12877 0.80998 0.0
C1931 C 0.18714 0.08542 0.80539 0.0
N1932 N 0.19885 0.16865 0.79064 0.0
N1933 N 0.20172 0.10668 0.80345 0.0
H1934 H 0.34617 0.96398 0.3036 0.0
H1935 H 0.34823 0.82599 0.31716 0.0
H1936 H 0.40431 0.93683 0.34272 0.0
H1937 H 0.28532 0.85273 0.28869 0.0
H1938 H 0.36654 0.86703 0.33268 0.0
H1939 H 0.32123 0.92463 0.30382 0.0
C1940 C 0.3536 0.94993 0.31265 0.0
C1941 C 0.37761 0.95362 0.32264 0.0
C1942 C 0.34856 0.86398 0.32345 0.0
C1943 C 0.34915 0.90845 0.32276 0.0
C1944 C 0.33811 0.84052 0.3146 0.0
C1945 C 0.31539 0.83607 0.30137 0.0
C1946 C 0.33641 0.88322 0.31853 0.0
C1947 C 0.30293 0.85546 0.29875 0.0
C1948 C 0.33931 0.92743 0.31275 0.0
C1949 C 0.38609 0.93476 0.33433 0.0
N1950 N 0.31382 0.87831 0.30678 0.0
N1951 N 0.37201 0.91292 0.33369 0.0
H1952 H 0.5202 0.36533 0.67587 0.0
H1953 H 0.52397 0.43229 0.54938 0.0
H1954 H 0.52956 0.33026 0.60367 0.0
H1955 H 0.52519 0.46877 0.62347 0.0
H1956 H 0.52159 0.39382 0.56814 0.0
H1957 H 0.51858 0.40282 0.65631 0.0
C1958 C 0.522 0.36556 0.65591 0.0
C1959 C 0.52508 0.34472 0.64137 0.0
C1960 C 0.52219 0.41024 0.58024 0.0
C1961 C 0.52301 0.38744 0.6188 0.0
C1962 C 0.52334 0.43215 0.56952 0.0
C1963 C 0.52489 0.45372 0.58493 0.0
C1964 C 0.52247 0.40998 0.60648 0.0
C1965 C 0.5242 0.45256 0.61093 0.0
C1966 C 0.52101 0.38693 0.64473 0.0
C1967 C 0.52724 0.34597 0.61558 0.0
N1968 N 0.52315 0.43108 0.62089 0.0
N1969 N 0.52613 0.36699 0.60509 0.0
H1970 H 0.41182 0.75488 0.40505 0.0
H1971 H 0.34187 0.74942 0.26886 0.0
H1972 H 0.44759 0.75002 0.33723 0.0
H1973 H 0.30858 0.74382 0.33821 0.0
H1974 H 0.38067 0.7487 0.2923 0.0
H1975 H 0.37394 0.75034 0.37979 0.0
C1976 C 0.41175 0.75277 0.38478 0.0
C1977 C 0.43306 0.75295 0.3733 0.0
C1978 C 0.36479 0.74742 0.30226 0.0
C1979 C 0.38924 0.74772 0.34396 0.0
C1980 C 0.34265 0.74778 0.28891 0.0
C1981 C 0.32194 0.7469 0.30162 0.0
C1982 C 0.36613 0.74622 0.32843 0.0
C1983 C 0.32403 0.74479 0.3276 0.0
C1984 C 0.38998 0.75009 0.37029 0.0
C1985 C 0.43162 0.74997 0.34688 0.0
N1986 N 0.34567 0.74469 0.34008 0.0
N1987 N 0.41006 0.74765 0.33305 0.0
H1988 H 0.01156 0.70815 0.07259 0.0
H1989 H 0.03679 0.58115 0.11613 0.0
H1990 H 0.04732 0.70029 0.14477 0.0
H1991 H 0.00897 0.59114 0.04101 0.0
H1992 H 0.04192 0.62478 0.12682 0.0
H1993 H 0.01009 0.66503 0.06088 0.0
C1994 C 0.0192 0.69727 0.08587 0.0
C1995 C 0.02947 0.70756 0.10965 0.0
C1996 C 0.03487 0.61744 0.10795 0.0
C1997 C 0.02839 0.65851 0.09634 0.0
C1998 C 0.03202 0.59257 0.10183 0.0
C1999 C 0.02242 0.58253 0.07769 0.0
C2000 C 0.02767 0.63231 0.0899 0.0
C2001 C 0.01659 0.59812 0.05982 0.0
C2002 C 0.01845 0.67272 0.07921 0.0
C2003 C 0.03897 0.69281 0.12636 0.0
N2004 N 0.01905 0.6222 0.06637 0.0
N2005 N 0.0383 0.66901 0.11935 0.0
H2006 H 0.08754 0.28848 0.88013 0.0
H2007 H 0.16701 0.22075 0.79676 0.0
H2008 H 0.0559 0.22574 0.83047 0.0
H2009 H 0.17945 0.2984 0.80693 0.0
H2010 H 0.12791 0.22038 0.81279 0.0
H2011 H 0.12383 0.29073 0.8581 0.0
C2012 C 0.08832 0.27509 0.86471 0.0
C2013 C 0.06883 0.2568 0.85715 0.0
C2014 C 0.13903 0.23749 0.81113 0.0
C2015 C 0.11006 0.25927 0.8321 0.0
C2016 C 0.16124 0.23772 0.80199 0.0
C2017 C 0.17619 0.25965 0.80041 0.0
C2018 C 0.13215 0.25932 0.81953 0.0
C2019 C 0.16817 0.28118 0.80764 0.0
C2020 C 0.10886 0.27657 0.85202 0.0
C2021 C 0.07059 0.24008 0.83687 0.0
N2022 N 0.14677 0.28049 0.81738 0.0
N2023 N 0.09101 0.24153 0.82521 0.0
H2024 H 0.48741 0.71517 0.97121 0.0
H2025 H 0.526 0.58677 0.94008 0.0
H2026 H 0.52939 0.69955 0.91016 0.0
H2027 H 0.48635 0.6034 0.00272 0.0
H2028 H 0.52533 0.62718 0.92733 0.0
H2029 H 0.4848 0.67364 0.98132 0.0
C2030 C 0.49606 0.70302 0.95983 0.0
C2031 C 0.5088 0.711 0.93984 0.0
C2032 C 0.51669 0.622 0.94381 0.0
C2033 C 0.50582 0.6632 0.95148 0.0
C2034 C 0.51704 0.59889 0.95113 0.0
C2035 C 0.50628 0.59172 0.97259 0.0
C2036 C 0.50552 0.63813 0.95805 0.0
C2037 C 0.49492 0.6082 0.9861 0.0
C2038 C 0.49453 0.67924 0.96567 0.0
C2039 C 0.51944 0.69426 0.92575 0.0
N2040 N 0.49491 0.63069 0.97864 0.0
N2041 N 0.51779 0.67117 0.93192 0.0
H2042 H 0.09155 0.73081 0.6194 0.0
H2043 H 0.17985 0.76298 0.74529 0.0
H2044 H 0.06877 0.75833 0.68927 0.0
H2045 H 0.20096 0.74384 0.67185 0.0
H2046 H 0.13783 0.75424 0.72781 0.0
H2047 H 0.13004 0.72814 0.64104 0.0
C2048 C 0.09462 0.73619 0.6394 0.0
C2049 C 0.07704 0.74521 0.65246 0.0
C2050 C 0.15167 0.75158 0.71566 0.0
C2051 C 0.12146 0.74242 0.67748 0.0
C2052 C 0.17561 0.75639 0.72565 0.0
C2053 C 0.19386 0.7543 0.70989 0.0
C2054 C 0.14609 0.74447 0.68986 0.0
C2055 C 0.18745 0.74593 0.68458 0.0
C2056 C 0.11665 0.73462 0.65179 0.0
C2057 C 0.0819 0.75142 0.67847 0.0
N2058 N 0.16416 0.74149 0.67535 0.0
N2059 N 0.10384 0.75026 0.69012 0.0
H2060 H 0.03676 0.33191 0.47668 0.0
H2061 H 0.02678 0.46796 0.45225 0.0
H2062 H 0.04258 0.35937 0.40407 0.0
H2063 H 0.02901 0.44188 0.52594 0.0
H2064 H 0.0334 0.4287 0.4343 0.0
H2065 H 0.03452 0.37231 0.49503 0.0
C2066 C 0.03763 0.34649 0.46459 0.0
C2067 C 0.03977 0.34229 0.43879 0.0
C2068 C 0.03259 0.4316 0.45441 0.0
C2069 C 0.03716 0.38864 0.4597 0.0
C2070 C 0.02879 0.45401 0.46469 0.0
C2071 C 0.02718 0.45816 0.49063 0.0
C2072 C 0.03467 0.41314 0.47015 0.0
C2073 C 0.03008 0.43948 0.50584 0.0
C2074 C 0.0364 0.36958 0.47511 0.0
C2075 C 0.0409 0.36185 0.42405 0.0
N2076 N 0.03351 0.41772 0.49534 0.0
N2077 N 0.03946 0.3842 0.43471 0.0
H2078 H 0.45428 0.23832 0.20154 0.0
H2079 H 0.32315 0.27268 0.1817 0.0
H2080 H 0.42397 0.26395 0.13426 0.0
H2081 H 0.34707 0.24055 0.24761 0.0
H2082 H 0.36278 0.27465 0.16734 0.0
H2083 H 0.41726 0.24212 0.22118 0.0
C2084 C 0.43984 0.24458 0.19087 0.0
C2085 C 0.44219 0.25071 0.16617 0.0
C2086 C 0.35958 0.26741 0.18512 0.0
C2087 C 0.4002 0.25552 0.18858 0.0
C2088 C 0.33698 0.2665 0.19342 0.0
C2089 C 0.33187 0.25642 0.21581 0.0
C2090 C 0.37723 0.25781 0.1991 0.0
C2091 C 0.3504 0.24863 0.23029 0.0
C2092 C 0.41882 0.24689 0.20213 0.0
C2093 C 0.42302 0.25892 0.15329 0.0
N2094 N 0.37226 0.24915 0.22149 0.0
N2095 N 0.40296 0.26109 0.16463 0.0
H2096 H 0.64122 0.50309 0.38115 0.0
H2097 H 0.51395 0.50268 0.43602 0.0
H2098 H 0.5772 0.5118 0.33634 0.0
H2099 H 0.57977 0.5025 0.482 0.0
H2100 H 0.5361 0.50252 0.39859 0.0
H2101 H 0.61842 0.50014 0.41801 0.0
C2102 C 0.62242 0.50447 0.37909 0.0
C2103 C 0.61114 0.50779 0.35567 0.0
C2104 C 0.54563 0.50239 0.41689 0.0
C2105 C 0.58486 0.50418 0.39762 0.0
C2106 C 0.53295 0.50232 0.43823 0.0
C2107 C 0.545 0.50278 0.46221 0.0
C2108 C 0.57049 0.50275 0.41957 0.0
C2109 C 0.56972 0.50239 0.46393 0.0
C2110 C 0.60938 0.50272 0.40009 0.0
C2111 C 0.58668 0.50933 0.35405 0.0
N2112 N 0.5816 0.50248 0.44298 0.0
N2113 N 0.57438 0.50749 0.37468 0.0
H2114 H 0.28658 0.81387 0.05911 0.0
H2115 H 0.26415 0.84825 0.20128 0.0
H2116 H 0.25335 0.87482 0.08216 0.0
H2117 H 0.3003 0.7897 0.17759 0.0
H2118 H 0.26284 0.86037 0.15853 0.0
H2119 H 0.29412 0.80671 0.10289 0.0
C2120 C 0.28086 0.82582 0.07338 0.0
C2121 C 0.26907 0.84487 0.06686 0.0
C2122 C 0.27127 0.84502 0.16273 0.0
C2123 C 0.27777 0.83669 0.1173 0.0
C2124 C 0.27207 0.83809 0.18715 0.0
C2125 C 0.28217 0.81778 0.19295 0.0
C2126 C 0.28054 0.83148 0.14395 0.0
C2127 C 0.29224 0.80539 0.17393 0.0
C2128 C 0.28529 0.82173 0.09845 0.0
C2129 C 0.2624 0.85987 0.08629 0.0
N2130 N 0.29097 0.81232 0.15021 0.0
N2131 N 0.26669 0.85533 0.11067 0.0
H2132 H 0.89965 0.53992 0.87439 0.0
H2133 H 0.02516 0.53539 0.95185 0.0
H2134 H 0.96586 0.54113 0.84033 0.0
H2135 H 0.95652 0.51476 0.97959 0.0
H2136 H 0.00464 0.54563 0.91301 0.0
H2137 H 0.92142 0.53904 0.91566 0.0
C2138 C 0.91878 0.54031 0.87566 0.0
C2139 C 0.93096 0.54029 0.85399 0.0
C2140 C 0.99416 0.53904 0.92776 0.0
C2141 C 0.95589 0.53931 0.90083 0.0
C2142 C 0.00586 0.53324 0.94989 0.0
C2143 C 0.99255 0.52401 0.96887 0.0
C2144 C 0.96907 0.53578 0.92482 0.0
C2145 C 0.96754 0.52163 0.96538 0.0
C2146 C 0.93118 0.53972 0.89913 0.0
C2147 C 0.95576 0.54083 0.8566 0.0
N2148 N 0.95663 0.52739 0.94379 0.0
N2149 N 0.96741 0.54018 0.87958 0.0
H2150 H 0.2421 0.20166 0.56145 0.0
H2151 H 0.28119 0.16763 0.69919 0.0
H2152 H 0.27366 0.13842 0.57496 0.0
H2153 H 0.25747 0.23464 0.68424 0.0
H2154 H 0.27554 0.15501 0.65417 0.0
H2155 H 0.24503 0.21241 0.60654 0.0
C2156 C 0.24966 0.18996 0.57386 0.0
C2157 C 0.2577 0.16906 0.56424 0.0
C2158 C 0.27146 0.17242 0.66074 0.0
C2159 C 0.26103 0.18141 0.61627 0.0
C2160 C 0.27458 0.17963 0.68648 0.0
C2161 C 0.26986 0.2023 0.69554 0.0
C2162 C 0.26349 0.18794 0.64387 0.0
C2163 C 0.26136 0.21704 0.67813 0.0
C2164 C 0.25132 0.19617 0.5997 0.0
C2165 C 0.2673 0.15472 0.58144 0.0
N2166 N 0.25853 0.20963 0.65314 0.0
N2167 N 0.26869 0.16116 0.60662 0.0
H2168 H 0.5699 0.53134 0.22729 0.0
H2169 H 0.60833 0.50584 0.08888 0.0
H2170 H 0.63754 0.50985 0.21323 0.0
H2171 H 0.53947 0.52289 0.10487 0.0
H2172 H 0.62084 0.51043 0.13395 0.0
H2173 H 0.5599 0.53073 0.18241 0.0
C2174 C 0.58274 0.52646 0.2148 0.0
C2175 C 0.60468 0.52061 0.22423 0.0
C2176 C 0.60307 0.51336 0.12759 0.0
C2177 C 0.59314 0.51996 0.1723 0.0
C2178 C 0.59592 0.51088 0.10183 0.0
C2179 C 0.57273 0.51387 0.09305 0.0
C2180 C 0.58693 0.5189 0.14472 0.0
C2181 C 0.55749 0.52039 0.11074 0.0
C2182 C 0.57696 0.52616 0.18904 0.0
C2183 C 0.62042 0.51442 0.20688 0.0
N2184 N 0.56481 0.52252 0.13571 0.0
N2185 N 0.61433 0.51425 0.18172 0.0
H2186 H 0.23336 0.87811 0.91713 0.0
H2187 H 0.2416 0.75172 0.84129 0.0
H2188 H 0.22849 0.81073 0.95093 0.0
H2189 H 0.25888 0.82114 0.81254 0.0
H2190 H 0.23022 0.77205 0.87961 0.0
H2191 H 0.23577 0.85635 0.87623 0.0
C2192 C 0.23246 0.85872 0.91586 0.0
C2193 C 0.23101 0.84622 0.93741 0.0
C2194 C 0.23636 0.78274 0.86477 0.0
C2195 C 0.23388 0.82127 0.89094 0.0
C2196 C 0.24285 0.77114 0.84294 0.0
C2197 C 0.25143 0.78472 0.82379 0.0
C2198 C 0.23836 0.80802 0.8673 0.0
C2199 C 0.25257 0.80988 0.82687 0.0
C2200 C 0.23394 0.84631 0.89259 0.0
C2201 C 0.2299 0.82109 0.93477 0.0
N2202 N 0.24621 0.82068 0.8482 0.0
N2203 N 0.23153 0.80945 0.912 0.0
H2204 H 0.96142 0.48386 0.73176 0.0
H2205 H 0.92348 0.50802 0.59057 0.0
H2206 H 0.90018 0.51681 0.70995 0.0
H2207 H 0.98624 0.47777 0.61295 0.0
H2208 H 0.91209 0.50701 0.63339 0.0
H2209 H 0.9683 0.47755 0.6877 0.0
C2210 C 0.94935 0.48973 0.71773 0.0
C2211 C 0.93031 0.50114 0.72465 0.0
C2212 C 0.92825 0.5004 0.62891 0.0
C2213 C 0.93815 0.49387 0.67404 0.0
C2214 C 0.93476 0.50094 0.60444 0.0
C2215 C 0.956 0.49322 0.59828 0.0
C2216 C 0.94312 0.49217 0.64736 0.0
C2217 C 0.9698 0.48405 0.61694 0.0
C2218 C 0.95329 0.48605 0.69253 0.0
C2219 C 0.91517 0.50809 0.70554 0.0
N2220 N 0.96322 0.48398 0.64073 0.0
N2221 N 0.91952 0.50449 0.6811 0.0
H2222 H 0.26298 0.19542 0.45008 0.0
H2223 H 0.2659 0.18528 0.30097 0.0
H2224 H 0.27205 0.13009 0.40705 0.0
H2225 H 0.2737 0.25329 0.34621 0.0
H2226 H 0.2665 0.16452 0.33922 0.0
H2227 H 0.26448 0.21639 0.41193 0.0
C2228 C 0.26518 0.18542 0.43256 0.0
C2229 C 0.26736 0.16091 0.43176 0.0
C2230 C 0.26818 0.18398 0.34083 0.0
C2231 C 0.26917 0.18496 0.38791 0.0
C2232 C 0.26781 0.1959 0.31897 0.0
C2233 C 0.2695 0.22112 0.32031 0.0
C2234 C 0.27002 0.19727 0.36434 0.0
C2235 C 0.27221 0.23386 0.34422 0.0
C2236 C 0.26617 0.19748 0.41079 0.0
C2237 C 0.27026 0.14896 0.40853 0.0
N2238 N 0.27215 0.22178 0.36528 0.0
N2239 N 0.27101 0.16109 0.3875 0.0
H2240 H 0.33764 0.6139 0.48631 0.0
H2241 H 0.42474 0.53987 0.55461 0.0
H2242 H 0.31751 0.57643 0.55046 0.0
H2243 H 0.42384 0.54618 0.47489 0.0
H2244 H 0.38627 0.55402 0.55446 0.0
H2245 H 0.37048 0.59103 0.48274 0.0
C2246 C 0.34016 0.60086 0.49969 0.0
C2247 C 0.32497 0.59721 0.51888 0.0
C2248 C 0.39423 0.55189 0.53691 0.0
C2249 C 0.36259 0.57103 0.51489 0.0
C2250 C 0.41615 0.54382 0.53696 0.0
C2251 C 0.42735 0.54185 0.5147 0.0
C2252 C 0.38379 0.55876 0.51456 0.0
C2253 C 0.41562 0.54729 0.49238 0.0
C2254 C 0.35876 0.58765 0.49746 0.0
C2255 C 0.32888 0.57986 0.53547 0.0
N2256 N 0.39463 0.55599 0.49295 0.0
N2257 N 0.34755 0.56763 0.53332 0.0
H2258 H 0.83246 0.94036 0.54186 0.0
H2259 H 0.97197 0.94132 0.53257 0.0
H2260 H 0.86742 0.87772 0.54113 0.0
H2261 H 0.94217 0.00712 0.53771 0.0
H2262 H 0.93353 0.91876 0.5391 0.0
H2263 H 0.87183 0.96603 0.54367 0.0
C2264 C 0.84836 0.93202 0.5424 0.0
C2265 C 0.84656 0.90678 0.54104 0.0
C2266 C 0.93523 0.93814 0.53899 0.0
C2267 C 0.89149 0.93597 0.54306 0.0
C2268 C 0.95728 0.95108 0.53523 0.0
C2269 C 0.96028 0.97614 0.53441 0.0
C2270 C 0.91563 0.95015 0.54162 0.0
C2271 C 0.9406 0.98779 0.53824 0.0
C2272 C 0.8708 0.94668 0.54337 0.0
C2273 C 0.86778 0.897 0.54178 0.0
N2274 N 0.91896 0.97465 0.54138 0.0
N2275 N 0.88919 0.91155 0.54259 0.0
H2276 H 0.87691 0.08139 0.28727 0.0
H2277 H 0.8079 0.16927 0.2183 0.0
H2278 H 0.83721 0.05498 0.21592 0.0
H2279 H 0.80223 0.16283 0.29731 0.0
H2280 H 0.82289 0.13065 0.2149 0.0
H2281 H 0.85499 0.11543 0.28962 0.0
C2282 C 0.8637 0.08288 0.27199 0.0
C2283 C 0.85894 0.06545 0.25128 0.0
C2284 C 0.81796 0.13753 0.23285 0.0
C2285 C 0.83402 0.10443 0.25383 0.0
C2286 C 0.80946 0.15948 0.23482 0.0
C2287 C 0.80376 0.16908 0.25811 0.0
C2288 C 0.82162 0.12564 0.25451 0.0
C2289 C 0.80622 0.15587 0.279 0.0
C2290 C 0.85106 0.10214 0.2735 0.0
C2291 C 0.84141 0.06809 0.23217 0.0
N2292 N 0.81548 0.13503 0.27683 0.0
N2293 N 0.82978 0.08747 0.23369 0.0
H2294 H 0.68346 0.15576 0.02408 0.0
H2295 H 0.59395 0.03196 0.02419 0.0
H2296 H 0.7093 0.0885 0.03269 0.0
H2297 H 0.5734 0.10243 0.0243 0.0
H2298 H 0.63615 0.05114 0.02945 0.0
H2299 H 0.64316 0.13541 0.02524 0.0
C2300 C 0.68075 0.13663 0.02629 0.0
C2301 C 0.70003 0.12389 0.02826 0.0
C2302 C 0.62235 0.06235 0.02867 0.0
C2303 C 0.65314 0.10017 0.02965 0.0
C2304 C 0.59829 0.05144 0.02587 0.0
C2305 C 0.58016 0.06566 0.02371 0.0
C2306 C 0.62814 0.08756 0.02929 0.0
C2307 C 0.58676 0.09076 0.0257 0.0
C2308 C 0.65753 0.12497 0.02703 0.0
C2309 C 0.69503 0.09907 0.0311 0.0
N2310 N 0.61012 0.10083 0.02819 0.0
N2311 N 0.67201 0.08795 0.03159 0.0
H2312 H 0.13749 0.42024 0.29672 0.0
H2313 H 0.25169 0.35544 0.28166 0.0
H2314 H 0.19987 0.45456 0.26494 0.0
H2315 H 0.18074 0.3186 0.28899 0.0
H2316 H 0.2363 0.39409 0.28344 0.0
H2317 H 0.15645 0.38493 0.30165 0.0
C2318 C 0.15522 0.42037 0.29075 0.0
C2319 C 0.16701 0.44032 0.28015 0.0
C2320 C 0.22425 0.37752 0.28497 0.0
C2321 C 0.18897 0.39977 0.28592 0.0
C2322 C 0.23305 0.3556 0.28423 0.0
C2323 C 0.21737 0.33396 0.28515 0.0
C2324 C 0.1998 0.37758 0.28706 0.0
C2325 C 0.19334 0.33494 0.2881 0.0
C2326 C 0.16606 0.40016 0.29361 0.0
C2327 C 0.19006 0.43945 0.27296 0.0
N2328 N 0.1853 0.35633 0.28891 0.0
N2329 N 0.20033 0.41943 0.27593 0.0
H2330 H 0.19324 0.39807 -0.00019 0.0
H2331 H 0.11079 0.47337 0.07129 0.0
H2332 H 0.22137 0.44108 0.06896 0.0
H2333 H 0.10808 0.4691 0.99042 0.0
H2334 H 0.14881 0.45794 0.07271 0.0
H2335 H 0.15893 0.4194 0.99773 0.0
C2336 C 0.19212 0.4119 0.01468 0.0
C2337 C 0.21014 0.41771 0.0347 0.0
C2338 C 0.14008 0.46072 0.0547 0.0
C2339 C 0.17076 0.44205 0.03245 0.0
C2340 C 0.11843 0.4695 0.05385 0.0
C2341 C 0.10642 0.47265 0.0307 0.0
C2342 C 0.14939 0.45421 0.03219 0.0
C2343 C 0.11694 0.46718 0.00864 0.0
C2344 C 0.17264 0.42421 0.01331 0.0
C2345 C 0.20786 0.43601 0.05324 0.0
N2346 N 0.13763 0.45778 0.00989 0.0
N2347 N 0.18834 0.44732 0.05187 0.0
H2348 H 0.89804 0.91078 0.24665 0.0
H2349 H 0.76533 0.83832 0.24762 0.0
H2350 H 0.83658 0.94694 0.24597 0.0
H2351 H 0.83033 0.80845 0.25842 0.0
H2352 H 0.78946 0.87737 0.24147 0.0
H2353 H 0.87185 0.87231 0.24478 0.0
C2354 C 0.87896 0.91066 0.24595 0.0
C2355 C 0.86958 0.93225 0.24676 0.0
C2356 C 0.79831 0.86214 0.245 0.0
C2357 C 0.83918 0.88781 0.24487 0.0
C2358 C 0.78457 0.83987 0.24841 0.0
C2359 C 0.79581 0.82009 0.2537 0.0
C2360 C 0.82337 0.86444 0.24663 0.0
C2361 C 0.82081 0.82315 0.25461 0.0
C2362 C 0.86394 0.88858 0.24491 0.0
C2363 C 0.84461 0.93075 0.24545 0.0
N2364 N 0.83362 0.84479 0.25119 0.0
N2365 N 0.83024 0.9089 0.24484 0.0
H2366 H 0.68377 0.05868 0.75534 0.0
H2367 H 0.67617 0.19914 0.77269 0.0
H2368 H 0.61835 0.08809 0.75877 0.0
H2369 H 0.74219 0.17304 0.76161 0.0
H2370 H 0.6549 0.15805 0.76551 0.0
H2371 H 0.70575 0.09977 0.75565 0.0
C2372 C 0.67399 0.07368 0.75594 0.0
C2373 C 0.64915 0.06985 0.7572 0.0
C2374 C 0.67401 0.1612 0.76438 0.0
C2375 C 0.67418 0.1168 0.75761 0.0
C2376 C 0.68617 0.18473 0.76847 0.0
C2377 C 0.71098 0.1895 0.7678 0.0
C2378 C 0.6867 0.14211 0.75981 0.0
C2379 C 0.72301 0.17011 0.76218 0.0
C2380 C 0.68656 0.09712 0.75612 0.0
C2381 C 0.63747 0.09003 0.75795 0.0
N2382 N 0.71077 0.14716 0.75864 0.0
N2383 N 0.65008 0.11252 0.75828 0.0
loop_
_geom_bond_atom_site_label_1
_geom_bond_atom_site_label_2
_geom_bond_distance
_geom_bond_site_symmetry_2
_ccdc_geom_bond_type
Co0 O1 2.216 . S
Co0 O2 2.091 . S
Co0 O4 2.004 1_455 S
Co0 O10 2.021 . S
Co0 O12 2.137 . S
Co0 O13 2.244 . S
O1 Co0 2.216 . S
O1 C8 1.247 . S
O2 Co0 2.091 . S
O2 C8 1.261 . S
C3 O12 1.247 . S
C3 O13 1.272 . S
O4 Co0 2.004 1_655 S
O4 C9 1.259 . S
Co5 O6 2.061 . S
Co5 O11 2.052 1_655 S
Co5 O13 2.135 1_655 S
O6 Co5 2.061 . S
O6 C9 1.235 . S
C7 O10 1.238 . S
C7 O11 1.241 . S
C8 O1 1.247 . S
C8 O2 1.261 . S
C9 O4 1.259 . S
C9 O6 1.235 . S
O10 Co0 2.021 . S
O10 C7 1.238 . S
O11 Co5 2.052 1_455 S
O11 C7 1.241 . S
O12 Co0 2.137 . S
O12 C3 1.247 . S
O13 Co0 2.244 . S
O13 C3 1.272 . S
O13 Co5 2.135 1_455 S
Co14 O15 2.216 1_455 S
Co14 O16 2.091 1_455 S
Co14 O18 2.004 . S
Co14 O24 2.021 . S
Co14 O26 2.137 . S
Co14 O27 2.244 . S
O15 Co14 2.216 1_655 S
O15 C22 1.247 . S
O16 Co14 2.091 1_655 S
O16 C22 1.261 . S
C17 O26 1.247 . S
C17 O27 1.272 . S
O18 Co14 2.004 . S
O18 C23 1.259 . S
Co19 O20 2.061 . S
Co19 O25 2.052 . S
Co19 O27 2.135 . S
O20 Co19 2.061 . S
O20 C23 1.235 . S
C21 O24 1.238 . S
C21 O25 1.241 . S
C22 O15 1.247 . S
C22 O16 1.261 . S
C23 O18 1.259 . S
C23 O20 1.235 . S
O24 Co14 2.021 . S
O24 C21 1.238 . S
O25 Co19 2.052 . S
O25 C21 1.241 . S
O26 Co14 2.137 . S
O26 C17 1.247 . S
O27 Co14 2.244 . S
O27 C17 1.272 . S
O27 Co19 2.135 . S
Co28 O29 2.216 . S
Co28 O30 2.091 . S
Co28 O32 2.004 . S
Co28 O38 2.021 . S
Co28 O40 2.137 . S
Co28 O41 2.244 . S
O29 Co28 2.216 . S
O29 C36 1.247 . S
O30 Co28 2.091 . S
O30 C36 1.261 . S
C31 O40 1.247 . S
C31 O41 1.272 . S
O32 Co28 2.004 . S
O32 C37 1.259 . S
Co33 O34 2.061 . S
Co33 O39 2.052 . S
Co33 O41 2.135 . S
O34 Co33 2.061 . S
O34 C37 1.235 . S
C35 O38 1.238 . S
C35 O39 1.241 . S
C36 O29 1.247 . S
C36 O30 1.261 . S
C37 O32 1.259 . S
C37 O34 1.235 . S
O38 Co28 2.021 . S
O38 C35 1.238 . S
O39 Co33 2.052 . S
O39 C35 1.241 . S
O40 Co28 2.137 . S
O40 C31 1.247 . S
O41 Co28 2.244 . S
O41 C31 1.272 . S
O41 Co33 2.135 . S
Co42 O43 2.216 . S
Co42 O44 2.091 . S
Co42 O46 2.004 . S
Co42 O52 2.021 . S
Co42 O54 2.137 . S
Co42 O55 2.244 . S
O43 Co42 2.216 . S
O43 C50 1.247 . S
O44 Co42 2.091 . S
O44 C50 1.261 . S
C45 O54 1.247 . S
C45 O55 1.272 . S
O46 Co42 2.004 . S
O46 C51 1.259 . S
Co47 O48 2.061 . S
Co47 O53 2.052 . S
Co47 O55 2.135 . S
O48 Co47 2.061 . S
O48 C51 1.235 . S
C49 O52 1.238 . S
C49 O53 1.241 . S
C50 O43 1.247 . S
C50 O44 1.261 . S
C51 O46 1.259 . S
C51 O48 1.235 . S
O52 Co42 2.021 . S
O52 C49 1.238 . S
O53 Co47 2.052 . S
O53 C49 1.241 . S
O54 Co42 2.137 . S
O54 C45 1.247 . S
O55 Co42 2.244 . S
O55 C45 1.272 . S
O55 Co47 2.135 . S
Co56 O57 2.216 1_455 S
Co56 O58 2.091 . S
Co56 O60 2.004 . S
Co56 O66 2.021 . S
Co56 O68 2.137 . S
Co56 O69 2.244 . S
O57 Co56 2.216 1_655 S
O57 C64 1.247 . S
O58 Co56 2.091 . S
O58 C64 1.261 1_455 S
C59 O68 1.247 . S
C59 O69 1.272 . S
O60 Co56 2.004 . S
O60 C65 1.259 . S
Co61 O62 2.061 . S
Co61 O67 2.052 . S
Co61 O69 2.135 . S
O62 Co61 2.061 . S
O62 C65 1.235 . S
C63 O66 1.238 . S
C63 O67 1.241 . S
C64 O57 1.247 . S
C64 O58 1.261 1_655 S
C65 O60 1.259 . S
C65 O62 1.235 . S
O66 Co56 2.021 . S
O66 C63 1.238 . S
O67 Co61 2.052 . S
O67 C63 1.241 . S
O68 Co56 2.137 . S
O68 C59 1.247 . S
O69 Co56 2.244 . S
O69 C59 1.272 . S
O69 Co61 2.135 . S
Co70 O71 2.216 . S
Co70 O72 2.091 . S
Co70 O74 2.004 . S
Co70 O80 2.021 . S
Co70 O82 2.137 . S
Co70 O83 2.244 . S
O71 Co70 2.216 . S
O71 C78 1.247 . S
O72 Co70 2.091 . S
O72 C78 1.261 . S
C73 O82 1.247 . S
C73 O83 1.272 . S
O74 Co70 2.004 . S
O74 C79 1.259 . S
Co75 O76 2.061 . S
Co75 O81 2.052 . S
Co75 O83 2.135 . S
O76 Co75 2.061 . S
O76 C79 1.235 . S
C77 O80 1.238 . S
C77 O81 1.241 . S
C78 O71 1.247 . S
C78 O72 1.261 . S
C79 O74 1.259 . S
C79 O76 1.235 . S
O80 Co70 2.021 . S
O80 C77 1.238 . S
O81 Co75 2.052 . S
O81 C77 1.241 . S
O82 Co70 2.137 . S
O82 C73 1.247 . S
O83 Co70 2.244 . S
O83 C73 1.272 . S
O83 Co75 2.135 . S
Co84 O85 2.216 . S
Co84 O86 2.091 . S
Co84 O88 2.004 . S
Co84 O94 2.021 . S
Co84 O96 2.137 . S
Co84 O97 2.244 . S
O85 Co84 2.216 . S
O85 C92 1.247 . S
O86 Co84 2.091 . S
O86 C92 1.261 . S
C87 O96 1.247 . S
C87 O97 1.272 . S
O88 Co84 2.004 . S
O88 C93 1.259 . S
Co89 O90 2.061 . S
Co89 O95 2.052 . S
Co89 O97 2.135 . S
O90 Co89 2.061 . S
O90 C93 1.235 . S
C91 O94 1.238 . S
C91 O95 1.241 . S
C92 O85 1.247 . S
C92 O86 1.261 . S
C93 O88 1.259 . S
C93 O90 1.235 . S
O94 Co84 2.021 . S
O94 C91 1.238 . S
O95 Co89 2.052 . S
O95 C91 1.241 . S
O96 Co84 2.137 . S
O96 C87 1.247 . S
O97 Co84 2.244 . S
O97 C87 1.272 . S
O97 Co89 2.135 . S
Co98 O99 2.216 . S
Co98 O100 2.091 . S
Co98 O102 2.004 1_455 S
Co98 O108 2.021 . S
Co98 O110 2.137 . S
Co98 O111 2.244 1_455 S
O99 Co98 2.216 . S
O99 C106 1.247 . S
O100 Co98 2.091 . S
O100 C106 1.261 . S
C101 O110 1.247 . S
C101 O111 1.272 1_455 S
O102 Co98 2.004 1_655 S
O102 C107 1.259 . S
Co103 O104 2.061 . S
Co103 O109 2.052 . S
Co103 O111 2.135 . S
O104 Co103 2.061 . S
O104 C107 1.235 . S
C105 O108 1.236 1_655 S
C105 O109 1.241 . S
C106 O99 1.247 . S
C106 O100 1.261 . S
C107 O102 1.259 . S
C107 O104 1.235 . S
O108 Co98 2.021 . S
O108 C105 1.236 1_455 S
O109 Co103 2.052 . S
O109 C105 1.241 . S
O110 Co98 2.137 . S
O110 C101 1.247 . S
O111 Co98 2.244 1_655 S
O111 C101 1.272 1_655 S
O111 Co103 2.135 . S
Co112 O113 2.216 . S
Co112 O114 2.091 . S
Co112 O116 2.004 1_545 S
Co112 O122 2.021 . S
Co112 O124 2.137 . S
Co112 O125 2.244 . S
O113 Co112 2.216 . S
O113 C120 1.247 . S
O114 Co112 2.091 . S
O114 C120 1.261 . S
C115 O124 1.247 . S
C115 O125 1.272 . S
O116 Co112 2.004 1_565 S
O116 C121 1.259 . S
Co117 O118 2.061 . S
Co117 O123 2.052 1_565 S
Co117 O125 2.135 1_565 S
O118 Co117 2.061 . S
O118 C121 1.235 . S
C119 O122 1.238 . S
C119 O123 1.241 . S
C120 O113 1.247 . S
C120 O114 1.261 . S
C121 O116 1.259 . S
C121 O118 1.235 . S
O122 Co112 2.021 . S
O122 C119 1.238 . S
O123 Co117 2.052 1_545 S
O123 C119 1.241 . S
O124 Co112 2.137 . S
O124 C115 1.247 . S
O125 Co112 2.244 . S
O125 C115 1.272 . S
O125 Co117 2.135 1_545 S
Co126 O127 2.216 . S
Co126 O128 2.091 . S
Co126 O130 2.004 . S
Co126 O136 2.021 . S
Co126 O138 2.137 . S
Co126 O139 2.244 . S
O127 Co126 2.216 . S
O127 C134 1.247 . S
O128 Co126 2.091 . S
O128 C134 1.261 . S
C129 O138 1.247 . S
C129 O139 1.272 . S
O130 Co126 2.004 . S
O130 C135 1.259 . S
Co131 O132 2.061 . S
Co131 O137 2.052 . S
Co131 O139 2.135 . S
O132 Co131 2.061 . S
O132 C135 1.235 . S
C133 O136 1.238 . S
C133 O137 1.241 . S
C134 O127 1.247 . S
C134 O128 1.261 . S
C135 O130 1.259 . S
C135 O132 1.235 . S
O136 Co126 2.021 . S
O136 C133 1.238 . S
O137 Co131 2.052 . S
O137 C133 1.241 . S
O138 Co126 2.137 . S
O138 C129 1.247 . S
O139 Co126 2.244 . S
O139 C129 1.272 . S
O139 Co131 2.135 . S
Co140 O141 2.216 1_545 S
Co140 O142 2.091 1_545 S
Co140 O144 2.004 . S
Co140 O150 2.021 . S
Co140 O152 2.137 . S
Co140 O153 2.244 . S
O141 Co140 2.216 1_565 S
O141 C148 1.247 . S
O142 Co140 2.091 1_565 S
O142 C148 1.261 . S
C143 O152 1.247 . S
C143 O153 1.272 . S
O144 Co140 2.004 . S
O144 C149 1.259 . S
Co145 O146 2.061 . S
Co145 O151 2.052 . S
Co145 O153 2.135 . S
O146 Co145 2.061 . S
O146 C149 1.235 . S
C147 O150 1.238 . S
C147 O151 1.241 . S
C148 O141 1.247 . S
C148 O142 1.261 . S
C149 O144 1.259 . S
C149 O146 1.235 . S
O150 Co140 2.021 . S
O150 C147 1.238 . S
O151 Co145 2.052 . S
O151 C147 1.241 . S
O152 Co140 2.137 . S
O152 C143 1.247 . S
O153 Co140 2.244 . S
O153 C143 1.272 . S
O153 Co145 2.135 . S
Co154 O155 2.216 . S
Co154 O156 2.091 . S
Co154 O158 2.004 . S
Co154 O164 2.021 . S
Co154 O166 2.137 1_554 S
Co154 O167 2.244 1_554 S
O155 Co154 2.216 . S
O155 C162 1.247 . S
O156 Co154 2.091 . S
O156 C162 1.261 . S
C157 O166 1.247 . S
C157 O167 1.272 . S
O158 Co154 2.004 . S
O158 C163 1.259 . S
Co159 O160 2.061 . S
Co159 O165 2.052 . S
Co159 O167 2.135 1_554 S
O160 Co159 2.061 . S
O160 C163 1.235 . S
C161 O164 1.238 . S
C161 O165 1.241 . S
C162 O155 1.247 . S
C162 O156 1.261 . S
C163 O158 1.259 . S
C163 O160 1.235 . S
O164 Co154 2.021 . S
O164 C161 1.238 . S
O165 Co159 2.052 . S
O165 C161 1.241 . S
O166 Co154 2.137 1_556 S
O166 C157 1.247 . S
O167 Co154 2.244 1_556 S
O167 C157 1.272 . S
O167 Co159 2.135 1_556 S
Co168 O169 2.216 . S
Co168 O170 2.091 . S
Co168 O172 2.004 . S
Co168 O178 2.021 . S
Co168 O180 2.137 . S
Co168 O181 2.244 . S
O169 Co168 2.216 . S
O169 C176 1.247 . S
O170 Co168 2.091 . S
O170 C176 1.261 . S
C171 O180 1.246 . S
C171 O181 1.309 . S
O172 Co168 2.004 . S
O172 C177 1.259 . S
Co173 O174 2.061 . S
Co173 O179 2.052 . S
Co173 O181 2.135 . S
O174 Co173 2.061 . S
O174 C177 1.235 . S
C175 O178 1.238 . S
C175 O179 1.241 . S
C176 O169 1.247 . S
C176 O170 1.261 . S
C177 O172 1.259 . S
C177 O174 1.235 . S
O178 Co168 2.021 . S
O178 C175 1.238 . S
O179 Co173 2.052 . S
O179 C175 1.241 . S
O180 Co168 2.137 . S
O180 C171 1.246 . S
O181 Co168 2.244 . S
O181 C171 1.309 . S
O181 Co173 2.135 . S
Co182 O183 2.216 . S
Co182 O184 2.091 . S
Co182 O186 2.004 . S
Co182 O192 2.021 . S
Co182 O194 2.137 1_554 S
Co182 O195 2.244 . S
O183 Co182 2.216 . S
O183 C190 1.247 . S
O184 Co182 2.091 . S
O184 C190 1.261 . S
C185 O194 1.247 . S
C185 O195 1.272 1_556 S
O186 Co182 2.004 . S
O186 C191 1.259 . S
Co187 O188 2.061 . S
Co187 O193 2.052 . S
Co187 O195 2.135 . S
O188 Co187 2.061 . S
O188 C191 1.235 . S
C189 O192 1.238 . S
C189 O193 1.241 . S
C190 O183 1.247 . S
C190 O184 1.261 . S
C191 O186 1.259 . S
C191 O188 1.235 . S
O192 Co182 2.021 . S
O192 C189 1.238 . S
O193 Co187 2.052 . S
O193 C189 1.241 . S
O194 Co182 2.137 1_556 S
O194 C185 1.247 . S
O195 Co182 2.244 . S
O195 C185 1.272 1_554 S
O195 Co187 2.135 . S
Co196 O197 2.216 . S
Co196 O198 2.091 . S
Co196 O200 2.004 . S
Co196 O206 2.021 . S
Co196 O208 2.137 . S
Co196 O209 2.244 . S
O197 Co196 2.216 . S
O197 C204 1.247 . S
O198 Co196 2.091 . S
O198 C204 1.261 . S
C199 O208 1.247 . S
C199 O209 1.272 . S
O200 Co196 2.004 . S
O200 C205 1.259 . S
Co201 O202 2.061 . S
Co201 O207 2.052 . S
Co201 O209 2.135 . S
O202 Co201 2.061 . S
O202 C205 1.235 . S
C203 O206 1.238 . S
C203 O207 1.241 . S
C204 O197 1.247 . S
C204 O198 1.261 . S
C205 O200 1.259 . S
C205 O202 1.235 . S
O206 Co196 2.021 . S
O206 C203 1.238 . S
O207 Co201 2.052 . S
O207 C203 1.241 . S
O208 Co196 2.137 . S
O208 C199 1.247 . S
O209 Co196 2.244 . S
O209 C199 1.272 . S
O209 Co201 2.135 . S
Co210 O211 2.216 . S
Co210 O212 2.091 . S
Co210 O214 2.004 . S
Co210 O220 2.021 . S
Co210 O222 2.137 . S
Co210 O223 2.244 . S
O211 Co210 2.216 . S
O211 C218 1.247 . S
O212 Co210 2.091 . S
O212 C218 1.261 . S
C213 O222 1.247 . S
C213 O223 1.272 . S
O214 Co210 2.004 . S
O214 C219 1.259 . S
Co215 O216 2.061 . S
Co215 O221 2.052 . S
Co215 O223 2.135 . S
O216 Co215 2.061 . S
O216 C219 1.235 . S
C217 O220 1.238 . S
C217 O221 1.241 . S
C218 O211 1.247 . S
C218 O212 1.261 . S
C219 O214 1.259 . S
C219 O216 1.235 . S
O220 Co210 2.021 . S
O220 C217 1.238 . S
O221 Co215 2.052 . S
O221 C217 1.241 . S
O222 Co210 2.137 . S
O222 C213 1.247 . S
O223 Co210 2.244 . S
O223 C213 1.272 . S
O223 Co215 2.135 . S
Co224 O225 2.216 . S
Co224 O226 2.091 . S
Co224 O228 2.004 1_545 S
Co224 O234 2.021 . S
Co224 O236 2.137 . S
Co224 O237 2.244 . S
O225 Co224 2.216 . S
O225 C232 1.247 . S
O226 Co224 2.091 . S
O226 C232 1.261 . S
C227 O236 1.247 . S
C227 O237 1.272 . S
O228 Co224 2.004 1_565 S
O228 C233 1.259 . S
Co229 O230 2.061 . S
Co229 O235 2.052 . S
Co229 O237 2.135 1_565 S
O230 Co229 2.061 . S
O230 C233 1.235 . S
C231 O234 1.238 . S
C231 O235 1.241 1_545 S
C232 O225 1.247 . S
C232 O226 1.261 . S
C233 O228 1.259 . S
C233 O230 1.235 . S
O234 Co224 2.021 . S
O234 C231 1.238 . S
O235 Co229 2.052 . S
O235 C231 1.241 1_565 S
O236 Co224 2.137 . S
O236 C227 1.247 . S
O237 Co224 2.244 . S
O237 C227 1.272 . S
O237 Co229 2.135 1_545 S
Co238 O239 2.216 . S
Co238 O240 2.091 . S
Co238 O242 2.004 . S
Co238 O248 2.021 . S
Co238 O250 2.137 . S
Co238 O251 2.244 . S
O239 Co238 2.216 . S
O239 C246 1.247 . S
O240 Co238 2.091 . S
O240 C246 1.261 . S
C241 O250 1.247 . S
C241 O251 1.272 . S
O242 Co238 2.004 . S
O242 C247 1.259 . S
Co243 O244 2.061 . S
Co243 O249 2.052 . S
Co243 O251 2.135 . S
O244 Co243 2.061 . S
O244 C247 1.235 . S
C245 O248 1.238 . S
C245 O249 1.241 . S
C246 O239 1.247 . S
C246 O240 1.261 . S
C247 O242 1.259 . S
C247 O244 1.235 . S
O248 Co238 2.021 . S
O248 C245 1.238 . S
O249 Co243 2.052 . S
O249 C245 1.241 . S
O250 Co238 2.137 . S
O250 C241 1.247 . S
O251 Co238 2.244 . S
O251 C241 1.272 . S
O251 Co243 2.135 . S
Co252 O253 2.216 . S
Co252 O254 2.091 . S
Co252 O256 2.004 . S
Co252 O262 2.021 . S
Co252 O264 2.137 . S
Co252 O265 2.244 . S
O253 Co252 2.216 . S
O253 C260 1.247 . S
O254 Co252 2.091 . S
O254 C260 1.261 . S
C255 O264 1.247 . S
C255 O265 1.272 . S
O256 Co252 2.004 . S
O256 C261 1.259 . S
Co257 O258 2.061 . S
Co257 O263 2.052 . S
Co257 O265 2.135 . S
O258 Co257 2.061 . S
O258 C261 1.235 . S
C259 O262 1.238 . S
C259 O263 1.241 . S
C260 O253 1.247 . S
C260 O254 1.261 . S
C261 O256 1.259 . S
C261 O258 1.235 . S
O262 Co252 2.021 . S
O262 C259 1.238 . S
O263 Co257 2.052 . S
O263 C259 1.241 . S
O264 Co252 2.137 . S
O264 C255 1.247 . S
O265 Co252 2.244 . S
O265 C255 1.272 . S
O265 Co257 2.135 . S
Co266 O267 2.216 . S
Co266 O268 2.091 . S
Co266 O270 2.004 1_565 S
Co266 O276 2.021 . S
Co266 O278 2.137 . S
Co266 O279 2.244 1_565 S
O267 Co266 2.216 . S
O267 C274 1.247 . S
O268 Co266 2.091 . S
O268 C274 1.261 . S
C269 O278 1.234 1_545 S
C269 O279 1.283 . S
O270 Co266 2.004 1_545 S
O270 C275 1.259 . S
Co271 O272 2.061 . S
Co271 O277 2.052 . S
Co271 O279 2.135 . S
O272 Co271 2.061 . S
O272 C275 1.235 . S
C273 O276 1.237 . S
C273 O277 1.242 1_565 S
C274 O267 1.247 . S
C274 O268 1.261 . S
C275 O270 1.259 . S
C275 O272 1.235 . S
O276 Co266 2.021 . S
O276 C273 1.237 . S
O277 Co271 2.052 . S
O277 C273 1.242 1_545 S
O278 Co266 2.137 . S
O278 C269 1.234 1_565 S
O279 Co266 2.244 1_545 S
O279 C269 1.283 . S
O279 Co271 2.135 . S
Co280 O281 2.216 . S
Co280 O282 2.093 . S
Co280 O284 2.004 . S
Co280 O290 2.021 1_556 S
Co280 O292 2.137 . S
Co280 O293 2.244 . S
O281 Co280 2.216 . S
O281 C288 1.242 1_556 S
O282 Co280 2.093 . S
O282 C288 1.267 1_556 S
C283 O292 1.247 . S
C283 O293 1.272 . S
O284 Co280 2.004 . S
O284 C289 1.259 . S
Co285 O286 2.065 1_554 S
Co285 O291 2.060 . S
Co285 O293 2.129 1_554 S
O286 Co285 2.065 1_556 S
O286 C289 1.237 . S
C287 O290 1.238 . S
C287 O291 1.241 . S
C288 O281 1.242 1_554 S
C288 O282 1.267 1_554 S
C289 O284 1.259 . S
C289 O286 1.237 . S
O290 Co280 2.021 1_554 S
O290 C287 1.238 . S
O291 Co285 2.060 . S
O291 C287 1.241 . S
O292 Co280 2.137 . S
O292 C283 1.247 . S
O293 Co280 2.244 . S
O293 C283 1.272 . S
O293 Co285 2.129 1_556 S
Co294 O295 2.216 . S
Co294 O296 2.091 . S
Co294 O298 2.004 . S
Co294 O304 2.021 . S
Co294 O306 2.137 . S
Co294 O307 2.244 . S
O295 Co294 2.216 . S
O295 C302 1.247 . S
O296 Co294 2.091 . S
O296 C302 1.261 . S
C297 O306 1.247 . S
C297 O307 1.272 . S
O298 Co294 2.004 . S
O298 C303 1.259 . S
Co299 O300 2.061 . S
Co299 O305 2.052 . S
Co299 O307 2.135 . S
O300 Co299 2.061 . S
O300 C303 1.235 . S
C301 O304 1.238 . S
C301 O305 1.241 . S
C302 O295 1.247 . S
C302 O296 1.261 . S
C303 O298 1.259 . S
C303 O300 1.235 . S
O304 Co294 2.021 . S
O304 C301 1.238 . S
O305 Co299 2.052 . S
O305 C301 1.241 . S
O306 Co294 2.137 . S
O306 C297 1.247 . S
O307 Co294 2.244 . S
O307 C297 1.272 . S
O307 Co299 2.135 . S
Co308 O309 2.216 . S
Co308 O310 2.091 . S
Co308 O312 2.004 . S
Co308 O318 2.021 . S
Co308 O320 2.137 . S
Co308 O321 2.244 . S
O309 Co308 2.216 . S
O309 C316 1.247 . S
O310 Co308 2.091 . S
O310 C316 1.261 . S
C311 O320 1.247 . S
C311 O321 1.272 . S
O312 Co308 2.004 . S
O312 C317 1.259 . S
Co313 O314 2.061 . S
Co313 O319 2.052 . S
Co313 O321 2.135 . S
O314 Co313 2.061 . S
O314 C317 1.235 . S
C315 O318 1.238 . S
C315 O319 1.241 . S
C316 O309 1.247 . S
C316 O310 1.261 . S
C317 O312 1.259 . S
C317 O314 1.235 . S
O318 Co308 2.021 . S
O318 C315 1.238 . S
O319 Co313 2.052 . S
O319 C315 1.241 . S
O320 Co308 2.137 . S
O320 C311 1.247 . S
O321 Co308 2.244 . S
O321 C311 1.272 . S
O321 Co313 2.135 . S
Co322 O323 2.216 . S
Co322 O324 2.091 . S
Co322 O326 2.004 . S
Co322 O332 2.021 . S
Co322 O334 2.137 . S
Co322 O335 2.244 . S
O323 Co322 2.216 . S
O323 C330 1.247 . S
O324 Co322 2.091 . S
O324 C330 1.261 . S
C325 O334 1.247 . S
C325 O335 1.272 . S
O326 Co322 2.004 . S
O326 C331 1.259 . S
Co327 O328 2.061 . S
Co327 O333 2.052 . S
Co327 O335 2.135 . S
O328 Co327 2.061 . S
O328 C331 1.235 . S
C329 O332 1.238 . S
C329 O333 1.241 . S
C330 O323 1.247 . S
C330 O324 1.261 . S
C331 O326 1.259 . S
C331 O328 1.235 . S
O332 Co322 2.021 . S
O332 C329 1.238 . S
O333 Co327 2.052 . S
O333 C329 1.241 . S
O334 Co322 2.137 . S
O334 C325 1.247 . S
O335 Co322 2.244 . S
O335 C325 1.272 . S
O335 Co327 2.135 . S
Zn336 O342 1.969 . S
Zn336 O343 1.965 1_565 S
Zn336 O347 2.024 . S
Zn336 O352 1.969 1_565 S
Zn337 O344 1.969 1_654 S
Zn337 O350 1.969 1_554 S
Zn337 O351 1.965 . S
Zn337 O353 2.024 1_655 S
C338 O339 1.229 . S
C338 O347 1.058 . S
O339 C338 1.229 . S
C340 O341 1.229 1_454 S
C340 O353 1.058 . S
O341 C340 1.229 1_656 S
O342 Zn336 1.969 . S
O342 C345 1.267 . S
O343 Zn336 1.965 1_545 S
O343 C354 1.260 1_554 S
O344 Zn337 1.969 1_456 S
O344 C354 1.258 . S
C345 O342 1.267 . S
C345 O346 1.228 . S
O346 C345 1.228 . S
O347 Zn336 2.024 . S
O347 C338 1.058 . S
C348 O349 1.228 . S
C348 O350 1.267 1_554 S
O349 C348 1.228 . S
O350 Zn337 1.969 1_556 S
O350 C348 1.267 1_556 S
O351 Zn337 1.965 . S
O351 C355 1.260 1_655 S
O352 Zn336 1.969 1_545 S
O352 C355 1.258 . S
O353 Zn337 2.024 1_455 S
O353 C340 1.058 . S
C354 O343 1.260 1_556 S
C354 O344 1.258 . S
C355 O351 1.260 1_455 S
C355 O352 1.258 . S
Zn356 O362 1.969 . S
Zn356 O363 1.965 . S
Zn356 O367 2.024 . S
Zn356 O372 1.969 . S
Zn357 O364 1.969 . S
Zn357 O370 1.969 . S
Zn357 O371 1.965 . S
Zn357 O373 2.024 . S
C358 O359 1.229 . S
C358 O367 1.058 . S
O359 C358 1.229 . S
C360 O361 1.229 . S
C360 O373 1.058 . S
O361 C360 1.229 . S
O362 Zn356 1.969 . S
O362 C365 1.267 . S
O363 Zn356 1.965 . S
O363 C374 1.260 . S
O364 Zn357 1.969 . S
O364 C374 1.258 . S
C365 O362 1.267 . S
C365 O366 1.228 . S
O366 C365 1.228 . S
O367 Zn356 2.024 . S
O367 C358 1.058 . S
C368 O369 1.228 . S
C368 O370 1.267 . S
O369 C368 1.228 . S
O370 Zn357 1.969 . S
O370 C368 1.267 . S
O371 Zn357 1.965 . S
O371 C375 1.260 . S
O372 Zn356 1.969 . S
O372 C375 1.258 . S
O373 Zn357 2.024 . S
O373 C360 1.058 . S
C374 O363 1.260 . S
C374 O364 1.258 . S
C375 O371 1.260 . S
C375 O372 1.258 . S
Zn376 O382 1.969 . S
Zn376 O383 1.965 . S
Zn376 O387 2.024 . S
Zn376 O392 1.969 . S
Zn377 O384 1.969 . S
Zn377 O390 1.969 . S
Zn377 O391 1.965 1_565 S
Zn377 O393 2.024 . S
C378 O379 1.229 . S
C378 O387 1.058 . S
O379 C378 1.229 . S
C380 O381 1.229 . S
C380 O393 1.058 . S
O381 C380 1.229 . S
O382 Zn376 1.969 . S
O382 C385 1.267 . S
O383 Zn376 1.965 . S
O383 C394 1.260 . S
O384 Zn377 1.969 . S
O384 C394 1.258 1_565 S
C385 O382 1.267 . S
C385 O386 1.228 . S
O386 C385 1.228 . S
O387 Zn376 2.024 . S
O387 C378 1.058 . S
C388 O389 1.228 . S
C388 O390 1.267 . S
O389 C388 1.228 . S
O390 Zn377 1.969 . S
O390 C388 1.267 . S
O391 Zn377 1.965 1_545 S
O391 C395 1.260 . S
O392 Zn376 1.969 . S
O392 C395 1.258 . S
O393 Zn377 2.024 . S
O393 C380 1.058 . S
C394 O383 1.260 . S
C394 O384 1.258 1_545 S
C395 O391 1.260 . S
C395 O392 1.258 . S
Zn396 O402 1.969 . S
Zn396 O403 1.965 . S
Zn396 O407 2.024 . S
Zn396 O412 1.969 . S
Zn397 O404 1.969 . S
Zn397 O410 1.969 . S
Zn397 O411 1.965 . S
Zn397 O413 2.024 . S
C398 O399 1.229 . S
C398 O407 1.058 . S
O399 C398 1.229 . S
C400 O401 1.229 . S
C400 O413 1.058 . S
O401 C400 1.229 . S
O402 Zn396 1.969 . S
O402 C405 1.267 . S
O403 Zn396 1.965 . S
O403 C414 1.260 . S
O404 Zn397 1.969 . S
O404 C414 1.258 . S
C405 O402 1.267 . S
C405 O406 1.228 . S
O406 C405 1.228 . S
O407 Zn396 2.024 . S
O407 C398 1.058 . S
C408 O409 1.228 . S
C408 O410 1.267 . S
O409 C408 1.228 . S
O410 Zn397 1.969 . S
O410 C408 1.267 . S
O411 Zn397 1.965 . S
O411 C415 1.260 . S
O412 Zn396 1.969 . S
O412 C415 1.258 . S
O413 Zn397 2.024 . S
O413 C400 1.058 . S
C414 O403 1.260 . S
C414 O404 1.258 . S
C415 O411 1.260 . S
C415 O412 1.258 . S
Zn416 O422 1.969 . S
Zn416 O423 1.965 1_455 S
Zn416 O427 2.024 1_565 S
Zn416 O432 1.969 1_565 S
Zn417 O424 1.969 1_455 S
Zn417 O430 1.969 1_455 S
Zn417 O431 1.965 . S
Zn417 O433 2.024 . S
C418 O419 1.229 1_545 S
C418 O427 1.058 . S
O419 C418 1.229 1_565 S
C420 O421 1.229 . S
C420 O433 1.058 1_655 S
O421 C420 1.229 . S
O422 Zn416 1.969 . S
O422 C425 1.267 . S
O423 Zn416 1.965 1_655 S
O423 C434 1.260 . S
O424 Zn417 1.969 1_655 S
O424 C434 1.258 1_545 S
C425 O422 1.267 . S
C425 O426 1.228 . S
O426 C425 1.228 . S
O427 Zn416 2.024 1_545 S
O427 C418 1.058 . S
C428 O429 1.228 . S
C428 O430 1.267 1_455 S
O429 C428 1.228 . S
O430 Zn417 1.969 1_655 S
O430 C428 1.267 1_655 S
O431 Zn417 1.965 . S
O431 C435 1.260 . S
O432 Zn416 1.969 1_545 S
O432 C435 1.258 . S
O433 Zn417 2.024 . S
O433 C420 1.058 1_455 S
C434 O423 1.260 . S
C434 O424 1.258 1_565 S
C435 O431 1.260 . S
C435 O432 1.258 . S
Zn436 O442 1.969 . S
Zn436 O443 1.965 . S
Zn436 O447 2.024 . S
Zn436 O452 1.969 . S
Zn437 O444 1.969 . S
Zn437 O450 1.969 . S
Zn437 O451 1.965 . S
Zn437 O453 2.024 . S
C438 O439 1.229 . S
C438 O447 1.058 . S
O439 C438 1.229 . S
C440 O441 1.229 . S
C440 O453 1.058 . S
O441 C440 1.229 . S
O442 Zn436 1.969 . S
O442 C445 1.267 . S
O443 Zn436 1.965 . S
O443 C454 1.260 . S
O444 Zn437 1.969 . S
O444 C454 1.258 . S
C445 O442 1.267 . S
C445 O446 1.228 . S
O446 C445 1.228 . S
O447 Zn436 2.024 . S
O447 C438 1.058 . S
C448 O449 1.228 . S
C448 O450 1.267 . S
O449 C448 1.228 . S
O450 Zn437 1.969 . S
O450 C448 1.267 . S
O451 Zn437 1.965 . S
O451 C455 1.260 . S
O452 Zn436 1.969 . S
O452 C455 1.258 . S
O453 Zn437 2.024 . S
O453 C440 1.058 . S
C454 O443 1.260 . S
C454 O444 1.258 . S
C455 O451 1.260 . S
C455 O452 1.258 . S
Zn456 O462 1.969 . S
Zn456 O463 1.965 1_545 S
Zn456 O467 2.024 1_556 S
Zn456 O472 1.969 1_556 S
Zn457 O464 2.000 . S
Zn457 O470 1.984 . S
Zn457 O471 1.934 1_565 S
Zn457 O473 2.013 1_565 S
C458 O459 1.229 . S
C458 O467 1.058 . S
O459 C458 1.229 . S
C460 O461 1.229 . S
C460 O473 1.058 1_565 S
O461 C460 1.229 . S
O462 Zn456 1.969 . S
O462 C465 1.267 . S
O463 Zn456 1.965 1_565 S
O463 C474 1.260 1_556 S
O464 Zn457 2.000 . S
O464 C474 1.258 . S
C465 O462 1.267 . S
C465 O466 1.228 . S
O466 C465 1.228 . S
O467 Zn456 2.024 1_554 S
O467 C458 1.058 . S
C468 O469 1.228 . S
C468 O470 1.267 1_545 S
O469 C468 1.228 . S
O470 Zn457 1.984 . S
O470 C468 1.267 1_565 S
O471 Zn457 1.934 1_545 S
O471 C475 1.260 . S
O472 Zn456 1.969 1_554 S
O472 C475 1.258 . S
O473 Zn457 2.013 1_545 S
O473 C460 1.058 1_545 S
C474 O463 1.260 1_554 S
C474 O464 1.258 . S
C475 O471 1.260 . S
C475 O472 1.258 . S
Zn476 O482 1.969 . S
Zn476 O483 1.965 . S
Zn476 O487 2.024 . S
Zn476 O492 1.969 . S
Zn477 O484 1.969 . S
Zn477 O490 1.969 . S
Zn477 O491 1.965 . S
Zn477 O493 2.024 . S
C478 O479 1.229 . S
C478 O487 1.058 . S
O479 C478 1.229 . S
C480 O481 1.229 . S
C480 O493 1.058 . S
O481 C480 1.229 . S
O482 Zn476 1.969 . S
O482 C485 1.267 . S
O483 Zn476 1.965 . S
O483 C494 1.260 . S
O484 Zn477 1.969 . S
O484 C494 1.258 . S
C485 O482 1.267 . S
C485 O486 1.228 . S
O486 C485 1.228 . S
O487 Zn476 2.024 . S
O487 C478 1.058 . S
C488 O489 1.228 . S
C488 O490 1.267 . S
O489 C488 1.228 . S
O490 Zn477 1.969 . S
O490 C488 1.267 . S
O491 Zn477 1.965 . S
O491 C495 1.260 . S
O492 Zn476 1.969 . S
O492 C495 1.258 . S
O493 Zn477 2.024 . S
O493 C480 1.058 . S
C494 O483 1.260 . S
C494 O484 1.258 . S
C495 O491 1.260 . S
C495 O492 1.258 . S
Zn496 O502 1.969 . S
Zn496 O503 1.965 . S
Zn496 O507 2.024 . S
Zn496 O512 1.969 . S
Zn497 O504 1.969 1_556 S
Zn497 O510 1.969 1_556 S
Zn497 O511 1.965 1_556 S
Zn497 O513 2.024 . S
C498 O499 1.229 . S
C498 O507 1.058 . S
O499 C498 1.229 . S
C500 O501 1.229 . S
C500 O513 1.058 . S
O501 C500 1.229 . S
O502 Zn496 1.969 . S
O502 C505 1.267 . S
O503 Zn496 1.965 . S
O503 C514 1.260 . S
O504 Zn497 1.969 1_554 S
O504 C514 1.258 . S
C505 O502 1.267 . S
C505 O506 1.228 . S
O506 C505 1.228 . S
O507 Zn496 2.024 . S
O507 C498 1.058 . S
C508 O509 1.228 . S
C508 O510 1.267 1_556 S
O509 C508 1.228 . S
O510 Zn497 1.969 1_554 S
O510 C508 1.267 1_554 S
O511 Zn497 1.965 1_554 S
O511 C515 1.260 . S
O512 Zn496 1.969 . S
O512 C515 1.258 . S
O513 Zn497 2.024 . S
O513 C500 1.058 . S
C514 O503 1.260 . S
C514 O504 1.258 . S
C515 O511 1.260 . S
C515 O512 1.258 . S
Zn516 O522 1.969 . S
Zn516 O523 1.965 . S
Zn516 O527 2.024 . S
Zn516 O532 1.969 . S
Zn517 O524 1.969 . S
Zn517 O530 1.969 . S
Zn517 O531 1.965 . S
Zn517 O533 2.024 . S
C518 O519 1.229 . S
C518 O527 1.058 . S
O519 C518 1.229 . S
C520 O521 1.229 . S
C520 O533 1.058 . S
O521 C520 1.229 . S
O522 Zn516 1.969 . S
O522 C525 1.267 . S
O523 Zn516 1.965 . S
O523 C534 1.260 . S
O524 Zn517 1.969 . S
O524 C534 1.258 . S
C525 O522 1.267 . S
C525 O526 1.228 . S
O526 C525 1.228 . S
O527 Zn516 2.024 . S
O527 C518 1.058 . S
C528 O529 1.228 . S
C528 O530 1.267 . S
O529 C528 1.228 . S
O530 Zn517 1.969 . S
O530 C528 1.267 . S
O531 Zn517 1.965 . S
O531 C535 1.260 . S
O532 Zn516 1.969 . S
O532 C535 1.258 . S
O533 Zn517 2.024 . S
O533 C520 1.058 . S
C534 O523 1.260 . S
C534 O524 1.258 . S
C535 O531 1.260 . S
C535 O532 1.258 . S
Zn536 O542 1.969 . S
Zn536 O543 1.965 . S
Zn536 O547 2.024 . S
Zn536 O552 1.969 . S
Zn537 O544 1.999 . S
Zn537 O550 1.969 . S
Zn537 O551 1.965 1_655 S
Zn537 O553 2.024 . S
C538 O539 1.229 . S
C538 O547 1.058 . S
O539 C538 1.229 . S
C540 O541 1.229 . S
C540 O553 1.058 . S
O541 C540 1.229 . S
O542 Zn536 1.969 . S
O542 C545 1.267 . S
O543 Zn536 1.965 . S
O543 C554 1.260 . S
O544 Zn537 1.999 . S
O544 C554 1.223 1_655 S
C545 O542 1.267 . S
C545 O546 1.228 . S
O546 C545 1.228 . S
O547 Zn536 2.024 . S
O547 C538 1.058 . S
C548 O549 1.228 . S
C548 O550 1.267 . S
O549 C548 1.228 . S
O550 Zn537 1.969 . S
O550 C548 1.267 . S
O551 Zn537 1.965 1_455 S
O551 C555 1.260 . S
O552 Zn536 1.969 . S
O552 C555 1.258 . S
O553 Zn537 2.024 . S
O553 C540 1.058 . S
C554 O543 1.260 . S
C554 O544 1.223 1_455 S
C555 O551 1.260 . S
C555 O552 1.258 . S
Zn556 O562 1.969 . S
Zn556 O563 1.965 . S
Zn556 O567 2.024 . S
Zn556 O572 1.969 . S
Zn557 O564 1.969 . S
Zn557 O570 1.969 . S
Zn557 O571 1.965 . S
Zn557 O573 2.024 . S
C558 O559 1.229 . S
C558 O567 1.058 . S
O559 C558 1.229 . S
C560 O561 1.229 . S
C560 O573 1.058 . S
O561 C560 1.229 . S
O562 Zn556 1.969 . S
O562 C565 1.267 . S
O563 Zn556 1.965 . S
O563 C574 1.260 . S
O564 Zn557 1.969 . S
O564 C574 1.258 . S
C565 O562 1.267 . S
C565 O566 1.228 . S
O566 C565 1.228 . S
O567 Zn556 2.024 . S
O567 C558 1.058 . S
C568 O569 1.228 . S
C568 O570 1.267 . S
O569 C568 1.228 . S
O570 Zn557 1.969 . S
O570 C568 1.267 . S
O571 Zn557 1.965 . S
O571 C575 1.260 . S
O572 Zn556 1.969 . S
O572 C575 1.258 . S
O573 Zn557 2.024 . S
O573 C560 1.058 . S
C574 O563 1.260 . S
C574 O564 1.258 . S
C575 O571 1.260 . S
C575 O572 1.258 . S
Zn576 O582 1.969 . S
Zn576 O583 1.965 . S
Zn576 O587 2.024 . S
Zn576 O592 1.969 . S
Zn577 O584 1.969 . S
Zn577 O590 1.969 . S
Zn577 O591 1.965 . S
Zn577 O593 2.024 . S
C578 O579 1.229 . S
C578 O587 1.058 . S
O579 C578 1.229 . S
C580 O581 1.229 . S
C580 O593 1.058 . S
O581 C580 1.229 . S
O582 Zn576 1.969 . S
O582 C585 1.267 . S
O583 Zn576 1.965 . S
O583 C594 1.260 . S
O584 Zn577 1.969 . S
O584 C594 1.258 . S
C585 O582 1.267 . S
C585 O586 1.228 . S
O586 C585 1.228 . S
O587 Zn576 2.024 . S
O587 C578 1.058 . S
C588 O589 1.228 . S
C588 O590 1.267 . S
O589 C588 1.228 . S
O590 Zn577 1.969 . S
O590 C588 1.267 . S
O591 Zn577 1.965 . S
O591 C595 1.260 . S
O592 Zn576 1.969 . S
O592 C595 1.258 . S
O593 Zn577 2.024 . S
O593 C580 1.058 . S
C594 O583 1.260 . S
C594 O584 1.258 . S
C595 O591 1.260 . S
C595 O592 1.258 . S
Zn596 O602 1.969 . S
Zn596 O603 1.965 . S
Zn596 O607 2.024 . S
Zn596 O612 1.969 . S
Zn597 O604 1.969 . S
Zn597 O610 1.969 . S
Zn597 O611 1.965 . S
Zn597 O613 2.024 . S
C598 O599 1.229 . S
C598 O607 1.058 . S
O599 C598 1.229 . S
C600 O601 1.229 . S
C600 O613 1.058 . S
O601 C600 1.229 . S
O602 Zn596 1.969 . S
O602 C605 1.267 . S
O603 Zn596 1.965 . S
O603 C614 1.260 . S
O604 Zn597 1.969 . S
O604 C614 1.258 . S
C605 O602 1.267 . S
C605 O606 1.228 . S
O606 C605 1.228 . S
O607 Zn596 2.024 . S
O607 C598 1.058 . S
C608 O609 1.228 . S
C608 O610 1.267 . S
O609 C608 1.228 . S
O610 Zn597 1.969 . S
O610 C608 1.267 . S
O611 Zn597 1.965 . S
O611 C615 1.260 . S
O612 Zn596 1.969 . S
O612 C615 1.258 . S
O613 Zn597 2.024 . S
O613 C600 1.058 . S
C614 O603 1.260 . S
C614 O604 1.258 . S
C615 O611 1.260 . S
C615 O612 1.258 . S
Zn616 O622 1.969 . S
Zn616 O623 1.965 . S
Zn616 O627 2.024 . S
Zn616 O632 1.969 . S
Zn617 O624 1.969 . S
Zn617 O630 1.969 . S
Zn617 O631 1.965 . S
Zn617 O633 2.024 . S
C618 O619 1.229 . S
C618 O627 1.058 . S
O619 C618 1.229 . S
C620 O621 1.229 . S
C620 O633 1.058 . S
O621 C620 1.229 . S
O622 Zn616 1.969 . S
O622 C625 1.267 . S
O623 Zn616 1.965 . S
O623 C634 1.260 . S
O624 Zn617 1.969 . S
O624 C634 1.258 . S
C625 O622 1.267 . S
C625 O626 1.228 . S
O626 C625 1.228 . S
O627 Zn616 2.024 . S
O627 C618 1.058 . S
C628 O629 1.228 . S
C628 O630 1.267 . S
O629 C628 1.228 . S
O630 Zn617 1.969 . S
O630 C628 1.267 . S
O631 Zn617 1.965 . S
O631 C635 1.260 . S
O632 Zn616 1.969 . S
O632 C635 1.258 . S
O633 Zn617 2.024 . S
O633 C620 1.058 . S
C634 O623 1.260 . S
C634 O624 1.258 . S
C635 O631 1.260 . S
C635 O632 1.258 . S
Zn636 O642 1.969 . S
Zn636 O643 1.965 . S
Zn636 O647 2.024 1_655 S
Zn636 O652 1.969 1_655 S
Zn637 O644 1.969 1_554 S
Zn637 O650 1.969 . S
Zn637 O651 1.965 . S
Zn637 O653 2.024 . S
C638 O639 1.229 1_455 S
C638 O647 1.058 . S
O639 C638 1.229 1_655 S
C640 O641 1.229 1_554 S
C640 O653 1.058 . S
O641 C640 1.229 1_556 S
O642 Zn636 1.969 . S
O642 C645 1.267 . S
O643 Zn636 1.965 . S
O643 C654 1.260 1_654 S
O644 Zn637 1.969 1_556 S
O644 C654 1.258 . S
C645 O642 1.267 . S
C645 O646 1.228 . S
O646 C645 1.228 . S
O647 Zn636 2.024 1_455 S
O647 C638 1.058 . S
C648 O649 1.228 . S
C648 O650 1.267 . S
O649 C648 1.228 . S
O650 Zn637 1.969 . S
O650 C648 1.267 . S
O651 Zn637 1.965 . S
O651 C655 1.260 . S
O652 Zn636 1.969 1_455 S
O652 C655 1.258 . S
O653 Zn637 2.024 . S
O653 C640 1.058 . S
C654 O643 1.260 1_456 S
C654 O644 1.258 . S
C655 O651 1.260 . S
C655 O652 1.258 . S
H656 C662 0.930 . S
H657 C666 0.930 . S
H658 C671 0.929 . S
H659 C669 0.929 . S
H660 C664 0.929 1_654 S
H661 C670 0.929 . S
C662 H656 0.930 . S
C662 C663 1.359 1_455 S
C662 C670 1.378 . S
C663 C662 1.359 1_655 S
C663 C671 1.438 . S
C664 H660 0.929 1_456 S
C664 C666 1.378 1_556 S
C664 C668 1.350 . S
C665 C668 1.463 . S
C665 C670 1.350 . S
C665 N673 1.427 1_455 S
C666 H657 0.930 . S
C666 C664 1.378 1_554 S
C666 C667 1.367 . S
C667 C666 1.367 . S
C667 C669 1.433 1_554 S
C668 C664 1.350 . S
C668 C665 1.463 . S
C668 N672 1.427 . S
C669 H659 0.929 . S
C669 C667 1.433 1_556 S
C669 N672 1.384 . S
C670 H661 0.929 . S
C670 C662 1.378 . S
C670 C665 1.350 . S
C671 H658 0.929 . S
C671 C663 1.438 . S
C671 N673 1.384 . S
N672 C668 1.427 . S
N672 C669 1.384 . S
N673 C665 1.427 1_655 S
N673 C671 1.384 . S
H674 C680 0.930 . S
H675 C684 0.930 . S
H676 C689 0.929 . S
H677 C687 0.929 . S
H678 C682 0.929 . S
H679 C688 0.929 . S
C680 H674 0.930 . S
C680 C681 1.367 . S
C680 C688 1.378 . S
C681 C680 1.367 . S
C681 C689 1.433 . S
C682 H678 0.929 . S
C682 C684 1.378 . S
C682 C686 1.350 . S
C683 C686 1.463 . S
C683 C688 1.350 . S
C683 N691 1.427 . S
C684 H675 0.930 . S
C684 C682 1.378 . S
C684 C685 1.367 . S
C685 C684 1.367 . S
C685 C687 1.433 . S
C686 C682 1.350 . S
C686 C683 1.463 . S
C686 N690 1.427 . S
C687 H677 0.929 . S
C687 C685 1.433 . S
C687 N690 1.384 . S
C688 H679 0.929 . S
C688 C680 1.378 . S
C688 C683 1.350 . S
C689 H676 0.929 . S
C689 C681 1.433 . S
C689 N691 1.384 . S
N690 C686 1.427 . S
N690 C687 1.384 . S
N691 C683 1.427 . S
N691 C689 1.384 . S
H692 C698 0.930 . S
H693 C702 0.930 . S
H694 C707 0.929 . S
H695 C705 0.929 . S
H696 C700 0.929 . S
H697 C706 0.929 . S
C698 H692 0.930 . S
C698 C699 1.367 . S
C698 C706 1.378 . S
C699 C698 1.367 . S
C699 C707 1.433 . S
C700 H696 0.929 . S
C700 C702 1.378 . S
C700 C704 1.350 . S
C701 C704 1.463 . S
C701 C706 1.350 . S
C701 N709 1.427 . S
C702 H693 0.930 . S
C702 C700 1.378 . S
C702 C703 1.367 . S
C703 C702 1.367 . S
C703 C705 1.433 . S
C704 C700 1.350 . S
C704 C701 1.463 . S
C704 N708 1.427 . S
C705 H695 0.929 . S
C705 C703 1.433 . S
C705 N708 1.384 . S
C706 H697 0.929 . S
C706 C698 1.378 . S
C706 C701 1.350 . S
C707 H694 0.929 . S
C707 C699 1.433 . S
C707 N709 1.384 . S
N708 C704 1.427 . S
N708 C705 1.384 . S
N709 C701 1.427 . S
N709 C707 1.384 . S
H710 C716 0.930 . S
H711 C720 0.930 . S
H712 C725 0.929 . S
H713 C723 0.929 . S
H714 C718 0.929 . S
H715 C724 0.929 . S
C716 H710 0.930 . S
C716 C717 1.367 . S
C716 C724 1.378 . S
C717 C716 1.367 . S
C717 C725 1.433 . S
C718 H714 0.929 . S
C718 C720 1.378 . S
C718 C722 1.350 . S
C719 C722 1.463 . S
C719 C724 1.350 . S
C719 N727 1.427 . S
C720 H711 0.930 . S
C720 C718 1.378 . S
C720 C721 1.367 . S
C721 C720 1.367 . S
C721 C723 1.433 . S
C722 C718 1.350 . S
C722 C719 1.463 . S
C722 N726 1.427 . S
C723 H713 0.929 . S
C723 C721 1.433 . S
C723 N726 1.384 . S
C724 H715 0.929 . S
C724 C716 1.378 . S
C724 C719 1.350 . S
C725 H712 0.929 . S
C725 C717 1.433 . S
C725 N727 1.384 . S
N726 C722 1.427 . S
N726 C723 1.384 . S
N727 C719 1.427 . S
N727 C725 1.384 . S
H728 C734 0.930 . S
H729 C738 0.930 . S
H730 C743 0.929 . S
H731 C741 0.929 . S
H732 C736 0.929 . S
H733 C742 0.929 . S
C734 H728 0.930 . S
C734 C735 1.367 . S
C734 C742 1.378 . S
C735 C734 1.367 . S
C735 C743 1.433 . S
C736 H732 0.929 . S
C736 C738 1.378 . S
C736 C740 1.350 . S
C737 C740 1.463 . S
C737 C742 1.350 . S
C737 N745 1.427 . S
C738 H729 0.930 . S
C738 C736 1.378 . S
C738 C739 1.367 . S
C739 C738 1.367 . S
C739 C741 1.433 . S
C740 C736 1.350 . S
C740 C737 1.463 . S
C740 N744 1.427 . S
C741 H731 0.929 . S
C741 C739 1.433 . S
C741 N744 1.384 . S
C742 H733 0.929 . S
C742 C734 1.378 . S
C742 C737 1.350 . S
C743 H730 0.929 . S
C743 C735 1.433 . S
C743 N745 1.384 . S
N744 C740 1.427 . S
N744 C741 1.384 . S
N745 C737 1.427 . S
N745 C743 1.384 . S
H746 C752 0.930 . S
H747 C756 0.930 . S
H748 C761 0.929 . S
H749 C759 0.929 . S
H750 C754 0.929 . S
H751 C760 0.929 . S
C752 H746 0.930 . S
C752 C753 1.367 . S
C752 C760 1.378 . S
C753 C752 1.367 . S
C753 C761 1.433 . S
C754 H750 0.929 . S
C754 C756 1.378 . S
C754 C758 1.350 . S
C755 C758 1.463 . S
C755 C760 1.350 . S
C755 N763 1.427 . S
C756 H747 0.930 . S
C756 C754 1.378 . S
C756 C757 1.367 . S
C757 C756 1.367 . S
C757 C759 1.433 . S
C758 C754 1.350 . S
C758 C755 1.463 . S
C758 N762 1.427 . S
C759 H749 0.929 . S
C759 C757 1.433 . S
C759 N762 1.384 . S
C760 H751 0.929 . S
C760 C752 1.378 . S
C760 C755 1.350 . S
C761 H748 0.929 . S
C761 C753 1.433 . S
C761 N763 1.384 . S
N762 C758 1.427 . S
N762 C759 1.384 . S
N763 C755 1.427 . S
N763 C761 1.384 . S
H764 C770 0.930 . S
H765 C774 0.930 . S
H766 C779 0.929 . S
H767 C777 0.929 . S
H768 C772 0.929 . S
H769 C778 0.929 . S
C770 H764 0.930 . S
C770 C771 1.367 . S
C770 C778 1.378 . S
C771 C770 1.367 . S
C771 C779 1.433 . S
C772 H768 0.929 . S
C772 C774 1.378 . S
C772 C776 1.350 . S
C773 C776 1.463 . S
C773 C778 1.350 . S
C773 N781 1.427 . S
C774 H765 0.930 . S
C774 C772 1.378 . S
C774 C775 1.367 . S
C775 C774 1.367 . S
C775 C777 1.433 . S
C776 C772 1.350 . S
C776 C773 1.463 . S
C776 N780 1.427 . S
C777 H767 0.929 . S
C777 C775 1.433 . S
C777 N780 1.384 . S
C778 H769 0.929 . S
C778 C770 1.378 . S
C778 C773 1.350 . S
C779 H766 0.929 . S
C779 C771 1.433 . S
C779 N781 1.384 . S
N780 C776 1.427 . S
N780 C777 1.384 . S
N781 C773 1.427 . S
N781 C779 1.384 . S
H782 C788 0.930 . S
H783 C792 0.930 . S
H784 C797 0.929 . S
H785 C795 0.929 . S
H786 C790 0.929 . S
H787 C796 0.929 . S
C788 H782 0.930 . S
C788 C789 1.367 . S
C788 C796 1.378 . S
C789 C788 1.367 . S
C789 C797 1.433 . S
C790 H786 0.929 . S
C790 C792 1.378 . S
C790 C794 1.350 . S
C791 C794 1.463 . S
C791 C796 1.350 . S
C791 N799 1.427 . S
C792 H783 0.930 . S
C792 C790 1.378 . S
C792 C793 1.367 . S
C793 C792 1.367 . S
C793 C795 1.433 . S
C794 C790 1.350 . S
C794 C791 1.463 . S
C794 N798 1.427 . S
C795 H785 0.929 . S
C795 C793 1.433 . S
C795 N798 1.384 . S
C796 H787 0.929 . S
C796 C788 1.378 . S
C796 C791 1.350 . S
C797 H784 0.929 . S
C797 C789 1.433 . S
C797 N799 1.384 . S
N798 C794 1.427 . S
N798 C795 1.384 . S
N799 C791 1.427 . S
N799 C797 1.384 . S
H800 C806 0.930 . S
H801 C810 0.930 1_455 S
H802 C815 0.929 . S
H803 C813 0.943 . S
H804 C808 0.929 . S
H805 C814 0.929 . S
C806 H800 0.930 . S
C806 C807 1.367 1_565 S
C806 C814 1.378 . S
C807 C806 1.367 1_545 S
C807 C815 1.433 . S
C808 H804 0.929 . S
C808 C810 1.378 . S
C808 C812 1.350 . S
C809 C812 1.463 . S
C809 C814 1.350 1_545 S
C809 N817 1.427 . S
C810 H801 0.930 1_655 S
C810 C808 1.378 . S
C810 C811 1.367 . S
C811 C810 1.367 . S
C811 C813 1.419 1_545 S
C812 C808 1.350 . S
C812 C809 1.463 . S
C812 N816 1.427 1_545 S
C813 H803 0.943 . S
C813 C811 1.419 1_565 S
C813 N816 1.384 . S
C814 H805 0.929 . S
C814 C806 1.378 . S
C814 C809 1.350 1_565 S
C815 H802 0.929 . S
C815 C807 1.433 . S
C815 N817 1.384 . S
N816 C812 1.427 1_565 S
N816 C813 1.384 . S
N817 C809 1.427 . S
N817 C815 1.384 . S
H818 C824 0.930 . S
H819 C828 0.930 . S
H820 C833 0.929 . S
H821 C831 0.929 . S
H822 C826 0.929 . S
H823 C832 0.929 . S
C824 H818 0.930 . S
C824 C825 1.367 . S
C824 C832 1.378 . S
C825 C824 1.367 . S
C825 C833 1.433 . S
C826 H822 0.929 . S
C826 C828 1.378 . S
C826 C830 1.350 . S
C827 C830 1.463 . S
C827 C832 1.350 . S
C827 N835 1.427 . S
C828 H819 0.930 . S
C828 C826 1.378 . S
C828 C829 1.367 . S
C829 C828 1.367 . S
C829 C831 1.433 . S
C830 C826 1.350 . S
C830 C827 1.463 . S
C830 N834 1.427 . S
C831 H821 0.929 . S
C831 C829 1.433 . S
C831 N834 1.384 . S
C832 H823 0.929 . S
C832 C824 1.378 . S
C832 C827 1.350 . S
C833 H820 0.929 . S
C833 C825 1.433 . S
C833 N835 1.384 . S
N834 C830 1.427 . S
N834 C831 1.384 . S
N835 C827 1.427 . S
N835 C833 1.384 . S
H836 C842 0.930 . S
H837 C846 0.930 . S
H838 C851 0.929 . S
H839 C849 0.929 . S
H840 C844 0.929 . S
H841 C850 0.929 . S
C842 H836 0.930 . S
C842 C843 1.367 1_545 S
C842 C850 1.378 . S
C843 C842 1.367 1_565 S
C843 C851 1.433 . S
C844 H840 0.929 . S
C844 C846 1.378 . S
C844 C848 1.350 . S
C845 C848 1.463 . S
C845 C850 1.350 1_565 S
C845 N853 1.427 . S
C846 H837 0.930 . S
C846 C844 1.378 . S
C846 C847 1.342 1_565 S
C847 C846 1.342 1_545 S
C847 C849 1.453 . S
C848 C844 1.350 . S
C848 C845 1.463 . S
C848 N852 1.427 1_565 S
C849 H839 0.929 . S
C849 C847 1.453 . S
C849 N852 1.384 . S
C850 H841 0.929 . S
C850 C842 1.378 . S
C850 C845 1.350 1_545 S
C851 H838 0.929 . S
C851 C843 1.433 . S
C851 N853 1.384 . S
N852 C848 1.427 1_545 S
N852 C849 1.384 . S
N853 C845 1.427 . S
N853 C851 1.384 . S
H854 C860 0.930 . S
H855 C864 0.930 . S
H856 C869 0.929 . S
H857 C867 0.929 . S
H858 C862 0.929 . S
H859 C868 0.929 . S
C860 H854 0.930 . S
C860 C861 1.367 . S
C860 C868 1.378 . S
C861 C860 1.367 . S
C861 C869 1.433 . S
C862 H858 0.929 . S
C862 C864 1.378 . S
C862 C866 1.350 . S
C863 C866 1.463 . S
C863 C868 1.350 . S
C863 N871 1.427 . S
C864 H855 0.930 . S
C864 C862 1.378 . S
C864 C865 1.367 . S
C865 C864 1.367 . S
C865 C867 1.433 . S
C866 C862 1.350 . S
C866 C863 1.463 . S
C866 N870 1.427 . S
C867 H857 0.929 . S
C867 C865 1.433 . S
C867 N870 1.384 . S
C868 H859 0.929 . S
C868 C860 1.378 . S
C868 C863 1.350 . S
C869 H856 0.929 . S
C869 C861 1.433 . S
C869 N871 1.384 . S
N870 C866 1.427 . S
N870 C867 1.384 . S
N871 C863 1.427 . S
N871 C869 1.384 . S
H872 C878 0.930 . S
H873 C882 0.930 . S
H874 C887 0.929 . S
H875 C885 0.929 . S
H876 C880 0.929 . S
H877 C886 0.929 . S
C878 H872 0.930 . S
C878 C879 1.367 . S
C878 C886 1.378 . S
C879 C878 1.367 . S
C879 C887 1.433 1_545 S
C880 H876 0.929 . S
C880 C882 1.378 . S
C880 C884 1.350 1_565 S
C881 C884 1.463 . S
C881 C886 1.350 . S
C881 N889 1.427 1_545 S
C882 H873 0.930 . S
C882 C880 1.378 . S
C882 C883 1.367 1_565 S
C883 C882 1.367 1_545 S
C883 C885 1.433 . S
C884 C880 1.350 1_545 S
C884 C881 1.463 . S
C884 N888 1.427 . S
C885 H875 0.929 . S
C885 C883 1.433 . S
C885 N888 1.384 . S
C886 H877 0.929 . S
C886 C878 1.378 . S
C886 C881 1.350 . S
C887 H874 0.929 . S
C887 C879 1.433 1_565 S
C887 N889 1.384 . S
N888 C884 1.427 . S
N888 C885 1.384 . S
N889 C881 1.427 1_565 S
N889 C887 1.384 . S
H890 C896 0.930 . S
H891 C900 0.930 . S
H892 C905 0.929 . S
H893 C903 0.929 . S
H894 C898 0.929 . S
H895 C904 0.929 . S
C896 H890 0.930 . S
C896 C897 1.367 . S
C896 C904 1.378 . S
C897 C896 1.367 . S
C897 C905 1.433 . S
C898 H894 0.929 . S
C898 C900 1.378 . S
C898 C902 1.350 . S
C899 C902 1.463 . S
C899 C904 1.350 . S
C899 N907 1.427 . S
C900 H891 0.930 . S
C900 C898 1.378 . S
C900 C901 1.367 . S
C901 C900 1.367 . S
C901 C903 1.433 . S
C902 C898 1.350 . S
C902 C899 1.463 . S
C902 N906 1.427 . S
C903 H893 0.929 . S
C903 C901 1.433 . S
C903 N906 1.384 . S
C904 H895 0.929 . S
C904 C896 1.378 . S
C904 C899 1.350 . S
C905 H892 0.929 . S
C905 C897 1.433 . S
C905 N907 1.384 . S
N906 C902 1.427 . S
N906 C903 1.384 . S
N907 C899 1.427 . S
N907 C905 1.384 . S
H908 C914 0.930 . S
H909 C918 0.932 1_565 S
H910 C923 0.929 . S
H911 C921 0.929 . S
H912 C916 0.929 . S
H913 C922 0.929 . S
C914 H908 0.930 . S
C914 C915 1.367 . S
C914 C922 1.378 . S
C915 C914 1.367 . S
C915 C923 1.433 1_545 S
C916 H912 0.929 . S
C916 C918 1.378 1_565 S
C916 C920 1.350 1_565 S
C917 C920 1.463 . S
C917 C922 1.350 . S
C917 N925 1.427 1_545 S
C918 H909 0.932 1_545 S
C918 C916 1.378 1_545 S
C918 C919 1.365 . S
C919 C918 1.365 . S
C919 C921 1.433 . S
C920 C916 1.350 1_545 S
C920 C917 1.463 . S
C920 N924 1.427 . S
C921 H911 0.929 . S
C921 C919 1.433 . S
C921 N924 1.384 . S
C922 H913 0.929 . S
C922 C914 1.378 . S
C922 C917 1.350 . S
C923 H910 0.929 . S
C923 C915 1.433 1_565 S
C923 N925 1.384 . S
N924 C920 1.427 . S
N924 C921 1.384 . S
N925 C917 1.427 1_565 S
N925 C923 1.384 . S
H926 C932 0.930 . S
H927 C936 0.930 . S
H928 C941 0.929 . S
H929 C939 0.929 . S
H930 C934 0.929 . S
H931 C940 0.929 . S
C932 H926 0.930 . S
C932 C933 1.367 . S
C932 C940 1.378 . S
C933 C932 1.367 . S
C933 C941 1.433 . S
C934 H930 0.929 . S
C934 C936 1.378 . S
C934 C938 1.350 . S
C935 C938 1.463 . S
C935 C940 1.350 . S
C935 N943 1.427 . S
C936 H927 0.930 . S
C936 C934 1.378 . S
C936 C937 1.367 . S
C937 C936 1.367 . S
C937 C939 1.433 . S
C938 C934 1.350 . S
C938 C935 1.463 . S
C938 N942 1.427 . S
C939 H929 0.929 . S
C939 C937 1.433 . S
C939 N942 1.384 . S
C940 H931 0.929 . S
C940 C932 1.378 . S
C940 C935 1.350 . S
C941 H928 0.929 . S
C941 C933 1.433 . S
C941 N943 1.384 . S
N942 C938 1.427 . S
N942 C939 1.384 . S
N943 C935 1.427 . S
N943 C941 1.384 . S
H944 C950 0.930 . S
H945 C954 0.930 1_545 S
H946 C959 0.929 . S
H947 C957 0.929 . S
H948 C952 0.929 . S
H949 C958 0.929 . S
C950 H944 0.930 . S
C950 C951 1.367 . S
C950 C958 1.378 . S
C951 C950 1.367 . S
C951 C959 1.433 . S
C952 H948 0.929 . S
C952 C954 1.378 . S
C952 C956 1.350 . S
C953 C956 1.463 . S
C953 C958 1.350 . S
C953 N961 1.427 . S
C954 H945 0.930 1_565 S
C954 C952 1.378 . S
C954 C955 1.367 . S
C955 C954 1.367 . S
C955 C957 1.433 . S
C956 C952 1.350 . S
C956 C953 1.463 . S
C956 N960 1.427 . S
C957 H947 0.929 . S
C957 C955 1.433 . S
C957 N960 1.384 . S
C958 H949 0.929 . S
C958 C950 1.378 . S
C958 C953 1.350 . S
C959 H946 0.929 . S
C959 C951 1.433 . S
C959 N961 1.384 . S
N960 C956 1.427 . S
N960 C957 1.384 . S
N961 C953 1.427 . S
N961 C959 1.384 . S
H962 C968 0.930 . S
H963 C972 0.930 . S
H964 C977 0.929 . S
H965 C975 0.929 . S
H966 C970 0.929 . S
H967 C976 0.929 . S
C968 H962 0.930 . S
C968 C969 1.367 . S
C968 C976 1.378 . S
C969 C968 1.367 . S
C969 C977 1.433 1_556 S
C970 H966 0.929 . S
C970 C972 1.378 . S
C970 C974 1.350 . S
C971 C974 1.463 . S
C971 C976 1.350 1_554 S
C971 N979 1.427 . S
C972 H963 0.930 . S
C972 C970 1.378 . S
C972 C973 1.367 . S
C973 C972 1.367 . S
C973 C975 1.433 1_554 S
C974 C970 1.350 . S
C974 C971 1.463 . S
C974 N978 1.427 1_554 S
C975 H965 0.929 . S
C975 C973 1.433 1_556 S
C975 N978 1.384 . S
C976 H967 0.929 . S
C976 C968 1.378 . S
C976 C971 1.350 1_556 S
C977 H964 0.929 . S
C977 C969 1.433 1_554 S
C977 N979 1.384 . S
N978 C974 1.427 1_556 S
N978 C975 1.384 . S
N979 C971 1.427 . S
N979 C977 1.384 . S
H980 C986 0.930 . S
H981 C990 0.930 . S
H982 C995 0.929 . S
H983 C993 0.929 . S
H984 C988 0.929 . S
H985 C994 0.929 . S
C986 H980 0.930 . S
C986 C987 1.367 . S
C986 C994 1.378 . S
C987 C986 1.367 . S
C987 C995 1.433 . S
C988 H984 0.929 . S
C988 C990 1.378 . S
C988 C992 1.350 . S
C989 C992 1.463 . S
C989 C994 1.350 . S
C989 N997 1.427 . S
C990 H981 0.930 . S
C990 C988 1.378 . S
C990 C991 1.367 . S
C991 C990 1.367 . S
C991 C993 1.433 . S
C992 C988 1.350 . S
C992 C989 1.463 . S
C992 N996 1.427 . S
C993 H983 0.929 . S
C993 C991 1.433 . S
C993 N996 1.384 . S
C994 H985 0.929 . S
C994 C986 1.378 . S
C994 C989 1.350 . S
C995 H982 0.929 . S
C995 C987 1.433 . S
C995 N997 1.384 . S
N996 C992 1.427 . S
N996 C993 1.384 . S
N997 C989 1.427 . S
N997 C995 1.384 . S
H998 C1004 0.930 . S
H999 C1008 0.930 . S
H1000 C1013 0.929 . S
H1001 C1011 0.929 . S
H1002 C1006 0.929 . S
H1003 C1012 0.929 . S
C1004 H998 0.930 . S
C1004 C1005 1.367 . S
C1004 C1012 1.378 . S
C1005 C1004 1.367 . S
C1005 C1013 1.433 . S
C1006 H1002 0.929 . S
C1006 C1008 1.378 . S
C1006 C1010 1.350 . S
C1007 C1010 1.463 . S
C1007 C1012 1.350 . S
C1007 N1015 1.427 . S
C1008 H999 0.930 . S
C1008 C1006 1.378 . S
C1008 C1009 1.367 . S
C1009 C1008 1.367 . S
C1009 C1011 1.433 . S
C1010 C1006 1.350 . S
C1010 C1007 1.463 . S
C1010 N1014 1.427 . S
C1011 H1001 0.929 . S
C1011 C1009 1.433 . S
C1011 N1014 1.384 . S
C1012 H1003 0.929 . S
C1012 C1004 1.378 . S
C1012 C1007 1.350 . S
C1013 H1000 0.929 . S
C1013 C1005 1.433 . S
C1013 N1015 1.384 . S
N1014 C1010 1.427 . S
N1014 C1011 1.384 . S
N1015 C1007 1.427 . S
N1015 C1013 1.384 . S
H1016 C1022 0.930 . S
H1017 C1026 0.930 . S
H1018 C1031 0.929 . S
H1019 C1029 0.929 . S
H1020 C1024 0.929 . S
H1021 C1030 0.929 . S
C1022 H1016 0.930 . S
C1022 C1023 1.367 . S
C1022 C1030 1.378 . S
C1023 C1022 1.367 . S
C1023 C1031 1.433 . S
C1024 H1020 0.929 . S
C1024 C1026 1.378 . S
C1024 C1028 1.350 . S
C1025 C1028 1.463 . S
C1025 C1030 1.350 . S
C1025 N1033 1.427 . S
C1026 H1017 0.930 . S
C1026 C1024 1.378 . S
C1026 C1027 1.367 . S
C1027 C1026 1.367 . S
C1027 C1029 1.433 . S
C1028 C1024 1.350 . S
C1028 C1025 1.463 . S
C1028 N1032 1.427 . S
C1029 H1019 0.929 . S
C1029 C1027 1.433 . S
C1029 N1032 1.384 . S
C1030 H1021 0.929 . S
C1030 C1022 1.378 . S
C1030 C1025 1.350 . S
C1031 H1018 0.929 . S
C1031 C1023 1.433 . S
C1031 N1033 1.384 . S
N1032 C1028 1.427 . S
N1032 C1029 1.384 . S
N1033 C1025 1.427 . S
N1033 C1031 1.384 . S
H1034 C1040 0.930 . S
H1035 C1044 0.930 . S
H1036 C1049 0.929 . S
H1037 C1047 0.929 . S
H1038 C1042 0.929 . S
H1039 C1048 0.929 . S
C1040 H1034 0.930 . S
C1040 C1041 1.367 . S
C1040 C1048 1.378 . S
C1041 C1040 1.367 . S
C1041 C1049 1.433 . S
C1042 H1038 0.929 . S
C1042 C1044 1.378 . S
C1042 C1046 1.350 . S
C1043 C1046 1.463 . S
C1043 C1048 1.350 . S
C1043 N1051 1.427 . S
C1044 H1035 0.930 . S
C1044 C1042 1.378 . S
C1044 C1045 1.367 . S
C1045 C1044 1.367 . S
C1045 C1047 1.433 . S
C1046 C1042 1.350 . S
C1046 C1043 1.463 . S
C1046 N1050 1.427 . S
C1047 H1037 0.929 . S
C1047 C1045 1.433 . S
C1047 N1050 1.384 . S
C1048 H1039 0.929 . S
C1048 C1040 1.378 . S
C1048 C1043 1.350 . S
C1049 H1036 0.929 . S
C1049 C1041 1.433 . S
C1049 N1051 1.384 . S
N1050 C1046 1.427 . S
N1050 C1047 1.384 . S
N1051 C1043 1.427 . S
N1051 C1049 1.384 . S
H1052 C1058 0.930 . S
H1053 C1062 0.930 . S
H1054 C1067 0.929 . S
H1055 C1065 0.929 . S
H1056 C1060 0.929 . S
H1057 C1066 0.929 . S
C1058 H1052 0.930 . S
C1058 C1059 1.367 . S
C1058 C1066 1.378 . S
C1059 C1058 1.367 . S
C1059 C1067 1.433 . S
C1060 H1056 0.929 . S
C1060 C1062 1.378 . S
C1060 C1064 1.350 . S
C1061 C1064 1.463 . S
C1061 C1066 1.350 . S
C1061 N1069 1.427 . S
C1062 H1053 0.930 . S
C1062 C1060 1.378 . S
C1062 C1063 1.367 . S
C1063 C1062 1.367 . S
C1063 C1065 1.433 . S
C1064 C1060 1.350 . S
C1064 C1061 1.463 . S
C1064 N1068 1.427 . S
C1065 H1055 0.929 . S
C1065 C1063 1.433 . S
C1065 N1068 1.384 . S
C1066 H1057 0.929 . S
C1066 C1058 1.378 . S
C1066 C1061 1.350 . S
C1067 H1054 0.929 . S
C1067 C1059 1.433 . S
C1067 N1069 1.384 . S
N1068 C1064 1.427 . S
N1068 C1065 1.384 . S
N1069 C1061 1.427 . S
N1069 C1067 1.384 . S
H1070 C1076 0.930 . S
H1071 C1080 0.930 . S
H1072 C1085 0.929 . S
H1073 C1083 0.929 . S
H1074 C1078 0.929 . S
H1075 C1084 0.929 . S
C1076 H1070 0.930 . S
C1076 C1077 1.367 . S
C1076 C1084 1.378 . S
C1077 C1076 1.367 . S
C1077 C1085 1.433 . S
C1078 H1074 0.929 . S
C1078 C1080 1.378 . S
C1078 C1082 1.350 . S
C1079 C1082 1.463 . S
C1079 C1084 1.350 . S
C1079 N1087 1.427 . S
C1080 H1071 0.930 . S
C1080 C1078 1.378 . S
C1080 C1081 1.367 . S
C1081 C1080 1.367 . S
C1081 C1083 1.433 . S
C1082 C1078 1.350 . S
C1082 C1079 1.463 . S
C1082 N1086 1.427 . S
C1083 H1073 0.929 . S
C1083 C1081 1.433 . S
C1083 N1086 1.384 . S
C1084 H1075 0.929 . S
C1084 C1076 1.378 . S
C1084 C1079 1.350 . S
C1085 H1072 0.929 . S
C1085 C1077 1.433 . S
C1085 N1087 1.384 . S
N1086 C1082 1.427 . S
N1086 C1083 1.384 . S
N1087 C1079 1.427 . S
N1087 C1085 1.384 . S
H1088 C1094 0.930 . S
H1089 C1098 0.930 . S
H1090 C1103 0.929 . S
H1091 C1101 0.929 . S
H1092 C1096 0.929 . S
H1093 C1102 0.929 . S
C1094 H1088 0.930 . S
C1094 C1095 1.367 . S
C1094 C1102 1.378 . S
C1095 C1094 1.367 . S
C1095 C1103 1.433 . S
C1096 H1092 0.929 . S
C1096 C1098 1.378 . S
C1096 C1100 1.350 . S
C1097 C1100 1.463 . S
C1097 C1102 1.350 . S
C1097 N1105 1.427 . S
C1098 H1089 0.930 . S
C1098 C1096 1.378 . S
C1098 C1099 1.367 . S
C1099 C1098 1.367 . S
C1099 C1101 1.433 . S
C1100 C1096 1.350 . S
C1100 C1097 1.463 . S
C1100 N1104 1.427 . S
C1101 H1091 0.929 . S
C1101 C1099 1.433 . S
C1101 N1104 1.384 . S
C1102 H1093 0.929 . S
C1102 C1094 1.378 . S
C1102 C1097 1.350 . S
C1103 H1090 0.929 . S
C1103 C1095 1.433 . S
C1103 N1105 1.384 . S
N1104 C1100 1.427 . S
N1104 C1101 1.384 . S
N1105 C1097 1.427 . S
N1105 C1103 1.384 . S
H1106 C1112 0.930 . S
H1107 C1116 0.930 . S
H1108 C1121 0.929 . S
H1109 C1119 0.929 . S
H1110 C1114 0.929 . S
H1111 C1120 0.929 . S
C1112 H1106 0.930 . S
C1112 C1113 1.367 . S
C1112 C1120 1.378 . S
C1113 C1112 1.367 . S
C1113 C1121 1.433 . S
C1114 H1110 0.929 . S
C1114 C1116 1.378 . S
C1114 C1118 1.350 . S
C1115 C1118 1.463 . S
C1115 C1120 1.350 . S
C1115 N1123 1.427 . S
C1116 H1107 0.930 . S
C1116 C1114 1.378 . S
C1116 C1117 1.367 . S
C1117 C1116 1.367 . S
C1117 C1119 1.433 . S
C1118 C1114 1.350 . S
C1118 C1115 1.463 . S
C1118 N1122 1.427 . S
C1119 H1109 0.929 . S
C1119 C1117 1.433 . S
C1119 N1122 1.384 . S
C1120 H1111 0.929 . S
C1120 C1112 1.378 . S
C1120 C1115 1.350 . S
C1121 H1108 0.929 . S
C1121 C1113 1.433 . S
C1121 N1123 1.384 . S
N1122 C1118 1.427 . S
N1122 C1119 1.384 . S
N1123 C1115 1.427 . S
N1123 C1121 1.384 . S
H1124 C1130 0.930 . S
H1125 C1134 0.930 . S
H1126 C1139 0.929 . S
H1127 C1137 0.929 . S
H1128 C1132 0.929 . S
H1129 C1138 0.929 . S
C1130 H1124 0.930 . S
C1130 C1131 1.367 . S
C1130 C1138 1.378 . S
C1131 C1130 1.367 . S
C1131 C1139 1.433 . S
C1132 H1128 0.929 . S
C1132 C1134 1.378 . S
C1132 C1136 1.350 . S
C1133 C1136 1.463 . S
C1133 C1138 1.350 . S
C1133 N1141 1.427 . S
C1134 H1125 0.930 . S
C1134 C1132 1.378 . S
C1134 C1135 1.367 . S
C1135 C1134 1.367 . S
C1135 C1137 1.433 . S
C1136 C1132 1.350 . S
C1136 C1133 1.463 . S
C1136 N1140 1.427 . S
C1137 H1127 0.929 . S
C1137 C1135 1.433 . S
C1137 N1140 1.384 . S
C1138 H1129 0.929 . S
C1138 C1130 1.378 . S
C1138 C1133 1.350 . S
C1139 H1126 0.929 . S
C1139 C1131 1.433 . S
C1139 N1141 1.384 . S
N1140 C1136 1.427 . S
N1140 C1137 1.384 . S
N1141 C1133 1.427 . S
N1141 C1139 1.384 . S
H1142 C1148 0.930 . S
H1143 C1152 0.930 . S
H1144 C1157 0.929 . S
H1145 C1155 0.929 . S
H1146 C1150 0.929 . S
H1147 C1156 0.929 . S
C1148 H1142 0.930 . S
C1148 C1149 1.367 . S
C1148 C1156 1.378 . S
C1149 C1148 1.367 . S
C1149 C1157 1.433 . S
C1150 H1146 0.929 . S
C1150 C1152 1.378 . S
C1150 C1154 1.350 . S
C1151 C1154 1.463 . S
C1151 C1156 1.350 . S
C1151 N1159 1.427 . S
C1152 H1143 0.930 . S
C1152 C1150 1.378 . S
C1152 C1153 1.367 . S
C1153 C1152 1.367 . S
C1153 C1155 1.433 . S
C1154 C1150 1.350 . S
C1154 C1151 1.463 . S
C1154 N1158 1.427 . S
C1155 H1145 0.929 . S
C1155 C1153 1.433 . S
C1155 N1158 1.384 . S
C1156 H1147 0.929 . S
C1156 C1148 1.378 . S
C1156 C1151 1.350 . S
C1157 H1144 0.929 . S
C1157 C1149 1.433 . S
C1157 N1159 1.384 . S
N1158 C1154 1.427 . S
N1158 C1155 1.384 . S
N1159 C1151 1.427 . S
N1159 C1157 1.384 . S
H1160 C1166 0.930 . S
H1161 C1170 0.930 . S
H1162 C1175 0.929 . S
H1163 C1173 0.929 . S
H1164 C1168 0.929 . S
H1165 C1174 0.929 1_655 S
C1166 H1160 0.930 . S
C1166 C1167 1.367 . S
C1166 C1174 1.378 . S
C1167 C1166 1.367 . S
C1167 C1175 1.433 . S
C1168 H1164 0.929 . S
C1168 C1170 1.378 . S
C1168 C1172 1.350 . S
C1169 C1172 1.463 . S
C1169 C1174 1.350 . S
C1169 N1177 1.427 . S
C1170 H1161 0.930 . S
C1170 C1168 1.378 . S
C1170 C1171 1.367 . S
C1171 C1170 1.367 . S
C1171 C1173 1.433 1_455 S
C1172 C1168 1.350 . S
C1172 C1169 1.463 . S
C1172 N1176 1.434 . S
C1173 H1163 0.929 . S
C1173 C1171 1.433 1_655 S
C1173 N1176 1.384 1_655 S
C1174 H1165 0.929 1_455 S
C1174 C1166 1.378 . S
C1174 C1169 1.350 . S
C1175 H1162 0.929 . S
C1175 C1167 1.433 . S
C1175 N1177 1.384 . S
N1176 C1172 1.434 . S
N1176 C1173 1.384 1_455 S
N1177 C1169 1.427 . S
N1177 C1175 1.384 . S
H1178 C1184 0.930 . S
H1179 C1188 0.930 . S
H1180 C1193 0.929 . S
H1181 C1191 0.929 . S
H1182 C1186 0.929 . S
H1183 C1192 0.929 . S
C1184 H1178 0.930 . S
C1184 C1185 1.367 . S
C1184 C1192 1.378 . S
C1185 C1184 1.367 . S
C1185 C1193 1.433 . S
C1186 H1182 0.929 . S
C1186 C1188 1.378 . S
C1186 C1190 1.350 . S
C1187 C1190 1.463 . S
C1187 C1192 1.350 . S
C1187 N1195 1.427 . S
C1188 H1179 0.930 . S
C1188 C1186 1.378 . S
C1188 C1189 1.367 . S
C1189 C1188 1.367 . S
C1189 C1191 1.433 . S
C1190 C1186 1.350 . S
C1190 C1187 1.463 . S
C1190 N1194 1.427 . S
C1191 H1181 0.929 . S
C1191 C1189 1.433 . S
C1191 N1194 1.384 . S
C1192 H1183 0.929 . S
C1192 C1184 1.378 . S
C1192 C1187 1.350 . S
C1193 H1180 0.929 . S
C1193 C1185 1.433 . S
C1193 N1195 1.384 . S
N1194 C1190 1.427 . S
N1194 C1191 1.384 . S
N1195 C1187 1.427 . S
N1195 C1193 1.384 . S
H1196 C1202 0.930 . S
H1197 C1206 0.930 . S
H1198 C1211 0.929 . S
H1199 C1209 0.929 . S
H1200 C1204 0.929 . S
H1201 C1210 0.929 . S
C1202 H1196 0.930 . S
C1202 C1203 1.367 . S
C1202 C1210 1.378 . S
C1203 C1202 1.367 . S
C1203 C1211 1.433 . S
C1204 H1200 0.929 . S
C1204 C1206 1.378 1_556 S
C1204 C1208 1.350 . S
C1205 C1208 1.463 . S
C1205 C1210 1.350 . S
C1205 N1213 1.427 . S
C1206 H1197 0.930 . S
C1206 C1204 1.378 1_554 S
C1206 C1207 1.359 1_554 S
C1207 C1206 1.359 1_556 S
C1207 C1209 1.458 . S
C1208 C1204 1.350 . S
C1208 C1205 1.463 . S
C1208 N1212 1.427 . S
C1209 H1199 0.929 . S
C1209 C1207 1.458 . S
C1209 N1212 1.384 . S
C1210 H1201 0.929 . S
C1210 C1202 1.378 . S
C1210 C1205 1.350 . S
C1211 H1198 0.929 . S
C1211 C1203 1.433 . S
C1211 N1213 1.384 . S
N1212 C1208 1.427 . S
N1212 C1209 1.384 . S
N1213 C1205 1.427 . S
N1213 C1211 1.384 . S
H1214 C1220 0.930 . S
H1215 C1224 0.930 . S
H1216 C1229 0.929 . S
H1217 C1227 0.929 . S
H1218 C1222 0.929 . S
H1219 C1228 0.929 . S
C1220 H1214 0.930 . S
C1220 C1221 1.367 . S
C1220 C1228 1.378 . S
C1221 C1220 1.367 . S
C1221 C1229 1.433 . S
C1222 H1218 0.929 . S
C1222 C1224 1.378 . S
C1222 C1226 1.350 . S
C1223 C1226 1.463 . S
C1223 C1228 1.350 . S
C1223 N1231 1.427 . S
C1224 H1215 0.930 . S
C1224 C1222 1.378 . S
C1224 C1225 1.367 . S
C1225 C1224 1.367 . S
C1225 C1227 1.433 . S
C1226 C1222 1.350 . S
C1226 C1223 1.463 . S
C1226 N1230 1.427 . S
C1227 H1217 0.929 . S
C1227 C1225 1.433 . S
C1227 N1230 1.384 . S
C1228 H1219 0.929 . S
C1228 C1220 1.378 . S
C1228 C1223 1.350 . S
C1229 H1216 0.929 . S
C1229 C1221 1.433 . S
C1229 N1231 1.384 . S
N1230 C1226 1.427 . S
N1230 C1227 1.384 . S
N1231 C1223 1.427 . S
N1231 C1229 1.384 . S
H1232 C1238 0.930 . S
H1233 C1242 0.930 . S
H1234 C1247 0.929 . S
H1235 C1245 0.929 . S
H1236 C1240 0.929 . S
H1237 C1246 0.929 . S
C1238 H1232 0.930 . S
C1238 C1239 1.367 . S
C1238 C1246 1.378 . S
C1239 C1238 1.367 . S
C1239 C1247 1.433 1_545 S
C1240 H1236 0.929 . S
C1240 C1242 1.378 . S
C1240 C1244 1.350 1_565 S
C1241 C1244 1.463 . S
C1241 C1246 1.350 . S
C1241 N1249 1.427 1_545 S
C1242 H1233 0.930 . S
C1242 C1240 1.378 . S
C1242 C1243 1.367 1_565 S
C1243 C1242 1.367 1_545 S
C1243 C1245 1.433 . S
C1244 C1240 1.350 1_545 S
C1244 C1241 1.463 . S
C1244 N1248 1.427 . S
C1245 H1235 0.929 . S
C1245 C1243 1.433 . S
C1245 N1248 1.384 . S
C1246 H1237 0.929 . S
C1246 C1238 1.378 . S
C1246 C1241 1.350 . S
C1247 H1234 0.929 . S
C1247 C1239 1.433 1_565 S
C1247 N1249 1.384 . S
N1248 C1244 1.427 . S
N1248 C1245 1.384 . S
N1249 C1241 1.427 1_565 S
N1249 C1247 1.384 . S
H1250 C1256 0.930 . S
H1251 C1260 0.930 . S
H1252 C1265 0.929 . S
H1253 C1263 0.929 . S
H1254 C1258 0.929 . S
H1255 C1264 0.929 . S
C1256 H1250 0.930 . S
C1256 C1257 1.367 . S
C1256 C1264 1.378 . S
C1257 C1256 1.367 . S
C1257 C1265 1.433 . S
C1258 H1254 0.929 . S
C1258 C1260 1.378 . S
C1258 C1262 1.350 . S
C1259 C1262 1.463 . S
C1259 C1264 1.350 . S
C1259 N1267 1.427 . S
C1260 H1251 0.930 . S
C1260 C1258 1.378 . S
C1260 C1261 1.367 . S
C1261 C1260 1.367 . S
C1261 C1263 1.433 . S
C1262 C1258 1.350 . S
C1262 C1259 1.463 . S
C1262 N1266 1.427 . S
C1263 H1253 0.929 . S
C1263 C1261 1.433 . S
C1263 N1266 1.384 . S
C1264 H1255 0.929 . S
C1264 C1256 1.378 . S
C1264 C1259 1.350 . S
C1265 H1252 0.929 . S
C1265 C1257 1.433 . S
C1265 N1267 1.384 . S
N1266 C1262 1.427 . S
N1266 C1263 1.384 . S
N1267 C1259 1.427 . S
N1267 C1265 1.384 . S
H1268 C1274 0.930 . S
H1269 C1278 0.930 . S
H1270 C1283 0.929 1_565 S
H1271 C1281 0.929 . S
H1272 C1276 0.960 . S
H1273 C1282 0.929 . S
C1274 H1268 0.930 . S
C1274 C1275 1.367 . S
C1274 C1282 1.378 . S
C1275 C1274 1.367 . S
C1275 C1283 1.433 . S
C1276 H1272 0.960 . S
C1276 C1278 1.387 . S
C1276 C1280 1.310 1_565 S
C1277 C1280 1.463 . S
C1277 C1282 1.350 . S
C1277 N1285 1.427 . S
C1278 H1269 0.930 . S
C1278 C1276 1.387 . S
C1278 C1279 1.367 1_565 S
C1279 C1278 1.367 1_545 S
C1279 C1281 1.433 . S
C1280 C1276 1.310 1_545 S
C1280 C1277 1.463 . S
C1280 N1284 1.427 . S
C1281 H1271 0.929 . S
C1281 C1279 1.433 . S
C1281 N1284 1.384 . S
C1282 H1273 0.929 . S
C1282 C1274 1.378 . S
C1282 C1277 1.350 . S
C1283 H1270 0.929 1_545 S
C1283 C1275 1.433 . S
C1283 N1285 1.384 . S
N1284 C1280 1.427 . S
N1284 C1281 1.384 . S
N1285 C1277 1.427 . S
N1285 C1283 1.384 . S
H1286 C1292 0.930 . S
H1287 C1296 0.930 . S
H1288 C1301 0.929 . S
H1289 C1299 0.929 . S
H1290 C1294 0.929 . S
H1291 C1300 0.929 . S
C1292 H1286 0.930 . S
C1292 C1293 1.367 . S
C1292 C1300 1.378 . S
C1293 C1292 1.367 . S
C1293 C1301 1.433 . S
C1294 H1290 0.929 . S
C1294 C1296 1.378 . S
C1294 C1298 1.350 . S
C1295 C1298 1.463 . S
C1295 C1300 1.350 . S
C1295 N1303 1.427 . S
C1296 H1287 0.930 . S
C1296 C1294 1.378 . S
C1296 C1297 1.367 . S
C1297 C1296 1.367 . S
C1297 C1299 1.433 . S
C1298 C1294 1.350 . S
C1298 C1295 1.463 . S
C1298 N1302 1.427 . S
C1299 H1289 0.929 . S
C1299 C1297 1.433 . S
C1299 N1302 1.384 . S
C1300 H1291 0.929 . S
C1300 C1292 1.378 . S
C1300 C1295 1.350 . S
C1301 H1288 0.929 . S
C1301 C1293 1.433 . S
C1301 N1303 1.384 . S
N1302 C1298 1.427 . S
N1302 C1299 1.384 . S
N1303 C1295 1.427 . S
N1303 C1301 1.384 . S
H1304 C1310 0.930 . S
H1305 C1314 0.930 . S
H1306 C1319 0.929 . S
H1307 C1317 0.929 . S
H1308 C1312 0.929 . S
H1309 C1318 0.929 . S
C1310 H1304 0.930 . S
C1310 C1311 1.367 1_565 S
C1310 C1318 1.378 . S
C1311 C1310 1.367 1_545 S
C1311 C1319 1.433 . S
C1312 H1308 0.929 . S
C1312 C1314 1.378 . S
C1312 C1316 1.350 . S
C1313 C1316 1.463 . S
C1313 C1318 1.350 1_545 S
C1313 N1321 1.427 . S
C1314 H1305 0.930 . S
C1314 C1312 1.378 . S
C1314 C1315 1.367 . S
C1315 C1314 1.367 . S
C1315 C1317 1.433 1_545 S
C1316 C1312 1.350 . S
C1316 C1313 1.463 . S
C1316 N1320 1.427 1_545 S
C1317 H1307 0.929 . S
C1317 C1315 1.433 1_565 S
C1317 N1320 1.384 . S
C1318 H1309 0.929 . S
C1318 C1310 1.378 . S
C1318 C1313 1.350 1_565 S
C1319 H1306 0.929 . S
C1319 C1311 1.433 . S
C1319 N1321 1.384 . S
N1320 C1316 1.427 1_565 S
N1320 C1317 1.384 . S
N1321 C1313 1.427 . S
N1321 C1319 1.384 . S
H1322 C1328 0.930 . S
H1323 C1332 0.930 . S
H1324 C1337 0.929 . S
H1325 C1335 0.929 . S
H1326 C1330 0.929 . S
H1327 C1336 0.929 . S
C1328 H1322 0.930 . S
C1328 C1329 1.367 . S
C1328 C1336 1.378 . S
C1329 C1328 1.367 . S
C1329 C1337 1.433 . S
C1330 H1326 0.929 . S
C1330 C1332 1.378 . S
C1330 C1334 1.350 . S
C1331 C1334 1.463 . S
C1331 C1336 1.350 . S
C1331 N1339 1.427 . S
C1332 H1323 0.930 . S
C1332 C1330 1.378 . S
C1332 C1333 1.367 . S
C1333 C1332 1.367 . S
C1333 C1335 1.433 . S
C1334 C1330 1.350 . S
C1334 C1331 1.463 . S
C1334 N1338 1.427 . S
C1335 H1325 0.929 . S
C1335 C1333 1.433 . S
C1335 N1338 1.384 . S
C1336 H1327 0.929 . S
C1336 C1328 1.378 . S
C1336 C1331 1.350 . S
C1337 H1324 0.929 . S
C1337 C1329 1.433 . S
C1337 N1339 1.384 . S
N1338 C1334 1.427 . S
N1338 C1335 1.384 . S
N1339 C1331 1.427 . S
N1339 C1337 1.384 . S
H1340 C1346 0.930 1_565 S
H1341 C1350 0.930 . S
H1342 C1355 0.929 . S
H1343 C1353 0.929 . S
H1344 C1348 0.929 . S
H1345 C1354 0.929 . S
C1346 H1340 0.930 1_545 S
C1346 C1347 1.367 . S
C1346 C1354 1.378 1_545 S
C1347 C1346 1.367 . S
C1347 C1355 1.433 . S
C1348 H1344 0.929 . S
C1348 C1350 1.378 . S
C1348 C1352 1.350 . S
C1349 C1352 1.463 . S
C1349 C1354 1.350 1_545 S
C1349 N1357 1.427 . S
C1350 H1341 0.930 . S
C1350 C1348 1.378 . S
C1350 C1351 1.389 . S
C1351 C1350 1.389 . S
C1351 C1353 1.416 1_545 S
C1352 C1348 1.350 . S
C1352 C1349 1.463 . S
C1352 N1356 1.427 1_545 S
C1353 H1343 0.929 . S
C1353 C1351 1.416 1_565 S
C1353 N1356 1.384 . S
C1354 H1345 0.929 . S
C1354 C1346 1.378 1_565 S
C1354 C1349 1.350 1_565 S
C1355 H1342 0.929 . S
C1355 C1347 1.433 . S
C1355 N1357 1.384 . S
N1356 C1352 1.427 1_565 S
N1356 C1353 1.384 . S
N1357 C1349 1.427 . S
N1357 C1355 1.384 . S
H1358 C1364 0.930 . S
H1359 C1368 0.930 . S
H1360 C1373 0.929 . S
H1361 C1371 0.929 . S
H1362 C1366 0.929 . S
H1363 C1372 0.929 . S
C1364 H1358 0.930 . S
C1364 C1365 1.367 . S
C1364 C1372 1.378 . S
C1365 C1364 1.367 . S
C1365 C1373 1.433 . S
C1366 H1362 0.929 . S
C1366 C1368 1.378 . S
C1366 C1370 1.350 . S
C1367 C1370 1.463 . S
C1367 C1372 1.350 . S
C1367 N1375 1.427 . S
C1368 H1359 0.930 . S
C1368 C1366 1.378 . S
C1368 C1369 1.367 . S
C1369 C1368 1.367 . S
C1369 C1371 1.433 . S
C1370 C1366 1.350 . S
C1370 C1367 1.463 . S
C1370 N1374 1.427 . S
C1371 H1361 0.929 . S
C1371 C1369 1.433 . S
C1371 N1374 1.384 . S
C1372 H1363 0.929 . S
C1372 C1364 1.378 . S
C1372 C1367 1.350 . S
C1373 H1360 0.929 . S
C1373 C1365 1.433 . S
C1373 N1375 1.384 . S
N1374 C1370 1.427 . S
N1374 C1371 1.384 . S
N1375 C1367 1.427 . S
N1375 C1373 1.384 . S
H1376 C1382 0.930 . S
H1377 C1386 0.930 . S
H1378 C1391 0.929 . S
H1379 C1389 0.929 . S
H1380 C1384 0.929 . S
H1381 C1390 0.929 . S
C1382 H1376 0.930 . S
C1382 C1383 1.367 . S
C1382 C1390 1.378 . S
C1383 C1382 1.367 . S
C1383 C1391 1.433 . S
C1384 H1380 0.929 . S
C1384 C1386 1.378 . S
C1384 C1388 1.350 . S
C1385 C1388 1.463 . S
C1385 C1390 1.350 . S
C1385 N1393 1.427 . S
C1386 H1377 0.930 . S
C1386 C1384 1.378 . S
C1386 C1387 1.367 . S
C1387 C1386 1.367 . S
C1387 C1389 1.433 . S
C1388 C1384 1.350 . S
C1388 C1385 1.463 . S
C1388 N1392 1.427 . S
C1389 H1379 0.929 . S
C1389 C1387 1.433 . S
C1389 N1392 1.384 . S
C1390 H1381 0.929 . S
C1390 C1382 1.378 . S
C1390 C1385 1.350 . S
C1391 H1378 0.929 . S
C1391 C1383 1.433 . S
C1391 N1393 1.384 . S
N1392 C1388 1.427 . S
N1392 C1389 1.384 . S
N1393 C1385 1.427 . S
N1393 C1391 1.384 . S
H1394 C1400 0.930 . S
H1395 C1404 0.930 . S
H1396 C1409 0.929 . S
H1397 C1407 0.929 . S
H1398 C1402 0.929 . S
H1399 C1408 0.929 . S
C1400 H1394 0.930 . S
C1400 C1401 1.367 . S
C1400 C1408 1.378 . S
C1401 C1400 1.367 . S
C1401 C1409 1.433 . S
C1402 H1398 0.929 . S
C1402 C1404 1.378 . S
C1402 C1406 1.350 . S
C1403 C1406 1.463 . S
C1403 C1408 1.350 . S
C1403 N1411 1.427 . S
C1404 H1395 0.930 . S
C1404 C1402 1.378 . S
C1404 C1405 1.367 . S
C1405 C1404 1.367 . S
C1405 C1407 1.433 . S
C1406 C1402 1.350 . S
C1406 C1403 1.463 . S
C1406 N1410 1.427 . S
C1407 H1397 0.929 . S
C1407 C1405 1.433 . S
C1407 N1410 1.384 . S
C1408 H1399 0.929 . S
C1408 C1400 1.378 . S
C1408 C1403 1.350 . S
C1409 H1396 0.929 . S
C1409 C1401 1.433 . S
C1409 N1411 1.384 . S
N1410 C1406 1.427 . S
N1410 C1407 1.384 . S
N1411 C1403 1.427 . S
N1411 C1409 1.384 . S
H1412 C1418 0.930 . S
H1413 C1422 0.930 . S
H1414 C1427 0.929 . S
H1415 C1425 0.929 . S
H1416 C1420 0.929 . S
H1417 C1426 0.929 . S
C1418 H1412 0.930 . S
C1418 C1419 1.367 . S
C1418 C1426 1.378 . S
C1419 C1418 1.367 . S
C1419 C1427 1.433 . S
C1420 H1416 0.929 . S
C1420 C1422 1.378 . S
C1420 C1424 1.350 . S
C1421 C1424 1.463 . S
C1421 C1426 1.350 . S
C1421 N1429 1.427 . S
C1422 H1413 0.930 . S
C1422 C1420 1.378 . S
C1422 C1423 1.367 . S
C1423 C1422 1.367 . S
C1423 C1425 1.433 . S
C1424 C1420 1.350 . S
C1424 C1421 1.463 . S
C1424 N1428 1.427 . S
C1425 H1415 0.929 . S
C1425 C1423 1.433 . S
C1425 N1428 1.384 . S
C1426 H1417 0.929 . S
C1426 C1418 1.378 . S
C1426 C1421 1.350 . S
C1427 H1414 0.929 . S
C1427 C1419 1.433 . S
C1427 N1429 1.384 . S
N1428 C1424 1.427 . S
N1428 C1425 1.384 . S
N1429 C1421 1.427 . S
N1429 C1427 1.384 . S
H1430 C1436 0.930 . S
H1431 C1440 0.930 . S
H1432 C1445 0.929 . S
H1433 C1443 0.929 . S
H1434 C1438 0.929 . S
H1435 C1444 0.929 . S
C1436 H1430 0.930 . S
C1436 C1437 1.367 . S
C1436 C1444 1.378 . S
C1437 C1436 1.367 . S
C1437 C1445 1.433 . S
C1438 H1434 0.929 . S
C1438 C1440 1.378 . S
C1438 C1442 1.350 . S
C1439 C1442 1.463 . S
C1439 C1444 1.350 . S
C1439 N1447 1.427 . S
C1440 H1431 0.930 . S
C1440 C1438 1.378 . S
C1440 C1441 1.367 . S
C1441 C1440 1.367 . S
C1441 C1443 1.433 . S
C1442 C1438 1.350 . S
C1442 C1439 1.463 . S
C1442 N1446 1.427 . S
C1443 H1433 0.929 . S
C1443 C1441 1.433 . S
C1443 N1446 1.384 . S
C1444 H1435 0.929 . S
C1444 C1436 1.378 . S
C1444 C1439 1.350 . S
C1445 H1432 0.929 . S
C1445 C1437 1.433 . S
C1445 N1447 1.384 . S
N1446 C1442 1.427 . S
N1446 C1443 1.384 . S
N1447 C1439 1.427 . S
N1447 C1445 1.384 . S
H1448 C1454 0.930 . S
H1449 C1458 0.930 . S
H1450 C1463 0.929 . S
H1451 C1461 0.929 . S
H1452 C1456 0.929 . S
H1453 C1462 0.929 . S
C1454 H1448 0.930 . S
C1454 C1455 1.367 . S
C1454 C1462 1.378 . S
C1455 C1454 1.367 . S
C1455 C1463 1.433 . S
C1456 H1452 0.929 . S
C1456 C1458 1.378 . S
C1456 C1460 1.350 . S
C1457 C1460 1.463 . S
C1457 C1462 1.350 . S
C1457 N1465 1.427 . S
C1458 H1449 0.930 . S
C1458 C1456 1.378 . S
C1458 C1459 1.367 . S
C1459 C1458 1.367 . S
C1459 C1461 1.433 . S
C1460 C1456 1.350 . S
C1460 C1457 1.463 . S
C1460 N1464 1.427 . S
C1461 H1451 0.929 . S
C1461 C1459 1.433 . S
C1461 N1464 1.384 . S
C1462 H1453 0.929 . S
C1462 C1454 1.378 . S
C1462 C1457 1.350 . S
C1463 H1450 0.929 . S
C1463 C1455 1.433 . S
C1463 N1465 1.384 . S
N1464 C1460 1.427 . S
N1464 C1461 1.384 . S
N1465 C1457 1.427 . S
N1465 C1463 1.384 . S
H1466 C1472 0.930 . S
H1467 C1476 0.930 . S
H1468 C1481 0.929 . S
H1469 C1479 0.929 1_545 S
H1470 C1474 0.929 . S
H1471 C1480 0.929 . S
C1472 H1466 0.930 . S
C1472 C1473 1.367 . S
C1472 C1480 1.378 . S
C1473 C1472 1.367 . S
C1473 C1481 1.433 . S
C1474 H1470 0.929 . S
C1474 C1476 1.378 . S
C1474 C1478 1.350 . S
C1475 C1478 1.463 . S
C1475 C1480 1.350 . S
C1475 N1483 1.427 . S
C1476 H1467 0.930 . S
C1476 C1474 1.378 . S
C1476 C1477 1.367 . S
C1477 C1476 1.367 . S
C1477 C1479 1.433 . S
C1478 C1474 1.350 . S
C1478 C1475 1.463 . S
C1478 N1482 1.427 . S
C1479 H1469 0.929 1_565 S
C1479 C1477 1.433 . S
C1479 N1482 1.384 . S
C1480 H1471 0.929 . S
C1480 C1472 1.378 . S
C1480 C1475 1.350 . S
C1481 H1468 0.929 . S
C1481 C1473 1.433 . S
C1481 N1483 1.384 . S
N1482 C1478 1.427 . S
N1482 C1479 1.384 . S
N1483 C1475 1.427 . S
N1483 C1481 1.384 . S
H1484 C1490 0.930 . S
H1485 C1494 0.930 . S
H1486 C1499 0.929 . S
H1487 C1497 0.929 . S
H1488 C1492 0.929 . S
H1489 C1498 0.929 . S
C1490 H1484 0.930 . S
C1490 C1491 1.367 . S
C1490 C1498 1.378 . S
C1491 C1490 1.367 . S
C1491 C1499 1.433 . S
C1492 H1488 0.929 . S
C1492 C1494 1.378 . S
C1492 C1496 1.350 . S
C1493 C1496 1.463 . S
C1493 C1498 1.350 . S
C1493 N1501 1.427 . S
C1494 H1485 0.930 . S
C1494 C1492 1.378 . S
C1494 C1495 1.367 . S
C1495 C1494 1.367 . S
C1495 C1497 1.433 . S
C1496 C1492 1.350 . S
C1496 C1493 1.463 . S
C1496 N1500 1.427 . S
C1497 H1487 0.929 . S
C1497 C1495 1.433 . S
C1497 N1500 1.384 . S
C1498 H1489 0.929 . S
C1498 C1490 1.378 . S
C1498 C1493 1.350 . S
C1499 H1486 0.929 . S
C1499 C1491 1.433 . S
C1499 N1501 1.384 . S
N1500 C1496 1.427 . S
N1500 C1497 1.384 . S
N1501 C1493 1.427 . S
N1501 C1499 1.384 . S
H1502 C1508 0.930 . S
H1503 C1512 0.930 . S
H1504 C1517 0.929 . S
H1505 C1515 0.929 . S
H1506 C1510 0.929 . S
H1507 C1516 0.929 . S
C1508 H1502 0.930 . S
C1508 C1509 1.367 . S
C1508 C1516 1.378 . S
C1509 C1508 1.367 . S
C1509 C1517 1.433 . S
C1510 H1506 0.929 . S
C1510 C1512 1.378 . S
C1510 C1514 1.350 . S
C1511 C1514 1.463 . S
C1511 C1516 1.350 . S
C1511 N1519 1.427 . S
C1512 H1503 0.930 . S
C1512 C1510 1.378 . S
C1512 C1513 1.367 . S
C1513 C1512 1.367 . S
C1513 C1515 1.433 . S
C1514 C1510 1.350 . S
C1514 C1511 1.463 . S
C1514 N1518 1.427 . S
C1515 H1505 0.929 . S
C1515 C1513 1.433 . S
C1515 N1518 1.384 . S
C1516 H1507 0.929 . S
C1516 C1508 1.378 . S
C1516 C1511 1.350 . S
C1517 H1504 0.929 . S
C1517 C1509 1.433 . S
C1517 N1519 1.384 . S
N1518 C1514 1.427 . S
N1518 C1515 1.384 . S
N1519 C1511 1.427 . S
N1519 C1517 1.384 . S
H1520 C1526 0.930 . S
H1521 C1530 0.930 . S
H1522 C1535 0.929 . S
H1523 C1533 0.929 . S
H1524 C1528 0.929 . S
H1525 C1534 0.929 . S
C1526 H1520 0.930 . S
C1526 C1527 1.367 . S
C1526 C1534 1.378 . S
C1527 C1526 1.367 . S
C1527 C1535 1.433 . S
C1528 H1524 0.929 . S
C1528 C1530 1.378 . S
C1528 C1532 1.350 . S
C1529 C1532 1.463 . S
C1529 C1534 1.350 . S
C1529 N1537 1.427 . S
C1530 H1521 0.930 . S
C1530 C1528 1.378 . S
C1530 C1531 1.367 . S
C1531 C1530 1.367 . S
C1531 C1533 1.433 . S
C1532 C1528 1.350 . S
C1532 C1529 1.463 . S
C1532 N1536 1.427 . S
C1533 H1523 0.929 . S
C1533 C1531 1.433 . S
C1533 N1536 1.384 . S
C1534 H1525 0.929 . S
C1534 C1526 1.378 . S
C1534 C1529 1.350 . S
C1535 H1522 0.929 . S
C1535 C1527 1.433 . S
C1535 N1537 1.384 . S
N1536 C1532 1.427 . S
N1536 C1533 1.384 . S
N1537 C1529 1.427 . S
N1537 C1535 1.384 . S
H1538 C1544 0.930 . S
H1539 C1548 0.930 . S
H1540 C1553 0.929 . S
H1541 C1551 0.929 . S
H1542 C1546 0.929 . S
H1543 C1552 0.929 . S
C1544 H1538 0.930 . S
C1544 C1545 1.367 . S
C1544 C1552 1.378 . S
C1545 C1544 1.367 . S
C1545 C1553 1.433 . S
C1546 H1542 0.929 . S
C1546 C1548 1.378 . S
C1546 C1550 1.350 . S
C1547 C1550 1.463 . S
C1547 C1552 1.350 . S
C1547 N1555 1.427 . S
C1548 H1539 0.930 . S
C1548 C1546 1.378 . S
C1548 C1549 1.367 . S
C1549 C1548 1.367 . S
C1549 C1551 1.433 . S
C1550 C1546 1.350 . S
C1550 C1547 1.463 . S
C1550 N1554 1.427 . S
C1551 H1541 0.929 . S
C1551 C1549 1.433 . S
C1551 N1554 1.384 . S
C1552 H1543 0.929 . S
C1552 C1544 1.378 . S
C1552 C1547 1.350 . S
C1553 H1540 0.929 . S
C1553 C1545 1.433 . S
C1553 N1555 1.384 . S
N1554 C1550 1.427 . S
N1554 C1551 1.384 . S
N1555 C1547 1.427 . S
N1555 C1553 1.384 . S
H1556 C1562 0.930 . S
H1557 C1566 0.930 . S
H1558 C1571 0.929 . S
H1559 C1569 0.929 . S
H1560 C1564 0.929 . S
H1561 C1570 0.929 . S
C1562 H1556 0.930 . S
C1562 C1563 1.367 . S
C1562 C1570 1.378 . S
C1563 C1562 1.367 . S
C1563 C1571 1.433 1_455 S
C1564 H1560 0.929 . S
C1564 C1566 1.378 1_556 S
C1564 C1568 1.350 1_655 S
C1565 C1568 1.463 . S
C1565 C1570 1.350 . S
C1565 N1573 1.427 1_455 S
C1566 H1557 0.930 . S
C1566 C1564 1.378 1_554 S
C1566 C1567 1.367 1_654 S
C1567 C1566 1.367 1_456 S
C1567 C1569 1.433 . S
C1568 C1564 1.350 1_455 S
C1568 C1565 1.463 . S
C1568 N1572 1.427 . S
C1569 H1559 0.929 . S
C1569 C1567 1.433 . S
C1569 N1572 1.384 . S
C1570 H1561 0.929 . S
C1570 C1562 1.378 . S
C1570 C1565 1.350 . S
C1571 H1558 0.929 . S
C1571 C1563 1.433 1_655 S
C1571 N1573 1.384 . S
N1572 C1568 1.427 . S
N1572 C1569 1.384 . S
N1573 C1565 1.427 1_655 S
N1573 C1571 1.384 . S
H1574 C1580 0.930 . S
H1575 C1584 0.930 . S
H1576 C1589 0.929 . S
H1577 C1587 0.929 . S
H1578 C1582 0.929 . S
H1579 C1588 0.929 . S
C1580 H1574 0.930 . S
C1580 C1581 1.367 . S
C1580 C1588 1.378 . S
C1581 C1580 1.367 . S
C1581 C1589 1.433 . S
C1582 H1578 0.929 . S
C1582 C1584 1.378 . S
C1582 C1586 1.350 . S
C1583 C1586 1.463 . S
C1583 C1588 1.350 . S
C1583 N1591 1.427 . S
C1584 H1575 0.930 . S
C1584 C1582 1.378 . S
C1584 C1585 1.367 . S
C1585 C1584 1.367 . S
C1585 C1587 1.433 . S
C1586 C1582 1.350 . S
C1586 C1583 1.463 . S
C1586 N1590 1.427 . S
C1587 H1577 0.929 . S
C1587 C1585 1.433 . S
C1587 N1590 1.384 . S
C1588 H1579 0.929 . S
C1588 C1580 1.378 . S
C1588 C1583 1.350 . S
C1589 H1576 0.929 . S
C1589 C1581 1.433 . S
C1589 N1591 1.384 . S
N1590 C1586 1.427 . S
N1590 C1587 1.384 . S
N1591 C1583 1.427 . S
N1591 C1589 1.384 . S
H1592 C1598 0.930 . S
H1593 C1602 0.930 . S
H1594 C1607 0.929 . S
H1595 C1605 0.929 . S
H1596 C1600 0.929 . S
H1597 C1606 0.929 . S
C1598 H1592 0.930 . S
C1598 C1599 1.367 . S
C1598 C1606 1.378 . S
C1599 C1598 1.367 . S
C1599 C1607 1.433 . S
C1600 H1596 0.929 . S
C1600 C1602 1.378 . S
C1600 C1604 1.350 . S
C1601 C1604 1.463 . S
C1601 C1606 1.350 . S
C1601 N1609 1.427 . S
C1602 H1593 0.930 . S
C1602 C1600 1.378 . S
C1602 C1603 1.367 . S
C1603 C1602 1.367 . S
C1603 C1605 1.433 . S
C1604 C1600 1.350 . S
C1604 C1601 1.463 . S
C1604 N1608 1.427 . S
C1605 H1595 0.929 . S
C1605 C1603 1.433 . S
C1605 N1608 1.384 . S
C1606 H1597 0.929 . S
C1606 C1598 1.378 . S
C1606 C1601 1.350 . S
C1607 H1594 0.929 . S
C1607 C1599 1.433 . S
C1607 N1609 1.384 . S
N1608 C1604 1.427 . S
N1608 C1605 1.384 . S
N1609 C1601 1.427 . S
N1609 C1607 1.384 . S
H1610 C1616 0.930 . S
H1611 C1620 0.930 . S
H1612 C1625 0.929 . S
H1613 C1623 0.929 . S
H1614 C1618 0.929 . S
H1615 C1624 0.929 . S
C1616 H1610 0.930 . S
C1616 C1617 1.367 . S
C1616 C1624 1.378 . S
C1617 C1616 1.367 . S
C1617 C1625 1.433 . S
C1618 H1614 0.929 . S
C1618 C1620 1.378 . S
C1618 C1622 1.350 . S
C1619 C1622 1.463 . S
C1619 C1624 1.350 . S
C1619 N1627 1.427 . S
C1620 H1611 0.930 . S
C1620 C1618 1.378 . S
C1620 C1621 1.367 . S
C1621 C1620 1.367 . S
C1621 C1623 1.433 . S
C1622 C1618 1.350 . S
C1622 C1619 1.463 . S
C1622 N1626 1.427 . S
C1623 H1613 0.929 . S
C1623 C1621 1.433 . S
C1623 N1626 1.384 . S
C1624 H1615 0.929 . S
C1624 C1616 1.378 . S
C1624 C1619 1.350 . S
C1625 H1612 0.929 . S
C1625 C1617 1.433 . S
C1625 N1627 1.384 . S
N1626 C1622 1.427 . S
N1626 C1623 1.384 . S
N1627 C1619 1.427 . S
N1627 C1625 1.384 . S
H1628 C1634 0.930 . S
H1629 C1638 0.930 . S
H1630 C1643 0.929 . S
H1631 C1641 0.929 . S
H1632 C1636 0.929 . S
H1633 C1642 0.929 . S
C1634 H1628 0.930 . S
C1634 C1635 1.367 . S
C1634 C1642 1.378 . S
C1635 C1634 1.367 . S
C1635 C1643 1.433 1_455 S
C1636 H1632 0.929 . S
C1636 C1638 1.378 . S
C1636 C1640 1.350 1_655 S
C1637 C1640 1.463 . S
C1637 C1642 1.350 . S
C1637 N1645 1.427 1_455 S
C1638 H1629 0.930 . S
C1638 C1636 1.378 . S
C1638 C1639 1.367 1_655 S
C1639 C1638 1.367 1_455 S
C1639 C1641 1.433 . S
C1640 C1636 1.350 1_455 S
C1640 C1637 1.463 . S
C1640 N1644 1.427 . S
C1641 H1631 0.929 . S
C1641 C1639 1.433 . S
C1641 N1644 1.384 . S
C1642 H1633 0.929 . S
C1642 C1634 1.378 . S
C1642 C1637 1.350 . S
C1643 H1630 0.929 . S
C1643 C1635 1.433 1_655 S
C1643 N1645 1.384 . S
N1644 C1640 1.427 . S
N1644 C1641 1.384 . S
N1645 C1637 1.427 1_655 S
N1645 C1643 1.384 . S
H1646 C1652 0.930 . S
H1647 C1656 0.930 . S
H1648 C1661 0.929 . S
H1649 C1659 0.929 . S
H1650 C1654 0.929 . S
H1651 C1660 0.929 . S
C1652 H1646 0.930 . S
C1652 C1653 1.367 . S
C1652 C1660 1.378 . S
C1653 C1652 1.367 . S
C1653 C1661 1.433 . S
C1654 H1650 0.929 . S
C1654 C1656 1.378 . S
C1654 C1658 1.350 . S
C1655 C1658 1.463 . S
C1655 C1660 1.350 . S
C1655 N1663 1.427 . S
C1656 H1647 0.930 . S
C1656 C1654 1.378 . S
C1656 C1657 1.367 . S
C1657 C1656 1.367 . S
C1657 C1659 1.433 . S
C1658 C1654 1.350 . S
C1658 C1655 1.463 . S
C1658 N1662 1.427 . S
C1659 H1649 0.929 . S
C1659 C1657 1.433 . S
C1659 N1662 1.384 . S
C1660 H1651 0.929 . S
C1660 C1652 1.378 . S
C1660 C1655 1.350 . S
C1661 H1648 0.929 . S
C1661 C1653 1.433 . S
C1661 N1663 1.384 . S
N1662 C1658 1.427 . S
N1662 C1659 1.384 . S
N1663 C1655 1.427 . S
N1663 C1661 1.384 . S
H1664 C1670 0.930 . S
H1665 C1674 0.930 . S
H1666 C1679 0.929 . S
H1667 C1677 0.929 . S
H1668 C1672 0.929 . S
H1669 C1678 0.929 . S
C1670 H1664 0.930 . S
C1670 C1671 1.367 . S
C1670 C1678 1.378 . S
C1671 C1670 1.367 . S
C1671 C1679 1.433 . S
C1672 H1668 0.929 . S
C1672 C1674 1.378 . S
C1672 C1676 1.350 . S
C1673 C1676 1.463 . S
C1673 C1678 1.350 . S
C1673 N1681 1.427 . S
C1674 H1665 0.930 . S
C1674 C1672 1.378 . S
C1674 C1675 1.367 . S
C1675 C1674 1.367 . S
C1675 C1677 1.433 . S
C1676 C1672 1.350 . S
C1676 C1673 1.463 . S
C1676 N1680 1.427 . S
C1677 H1667 0.929 . S
C1677 C1675 1.433 . S
C1677 N1680 1.384 . S
C1678 H1669 0.929 . S
C1678 C1670 1.378 . S
C1678 C1673 1.350 . S
C1679 H1666 0.929 . S
C1679 C1671 1.433 . S
C1679 N1681 1.384 . S
N1680 C1676 1.427 . S
N1680 C1677 1.384 . S
N1681 C1673 1.427 . S
N1681 C1679 1.384 . S
H1682 C1688 0.930 . S
H1683 C1692 0.930 . S
H1684 C1697 0.929 . S
H1685 C1695 0.929 . S
H1686 C1690 0.929 . S
H1687 C1696 0.929 . S
C1688 H1682 0.930 . S
C1688 C1689 1.367 . S
C1688 C1696 1.378 . S
C1689 C1688 1.367 . S
C1689 C1697 1.433 . S
C1690 H1686 0.929 . S
C1690 C1692 1.378 . S
C1690 C1694 1.350 . S
C1691 C1694 1.463 . S
C1691 C1696 1.350 . S
C1691 N1699 1.427 . S
C1692 H1683 0.930 . S
C1692 C1690 1.378 . S
C1692 C1693 1.367 . S
C1693 C1692 1.367 . S
C1693 C1695 1.433 . S
C1694 C1690 1.350 . S
C1694 C1691 1.463 . S
C1694 N1698 1.427 . S
C1695 H1685 0.929 . S
C1695 C1693 1.433 . S
C1695 N1698 1.384 . S
C1696 H1687 0.929 . S
C1696 C1688 1.378 . S
C1696 C1691 1.350 . S
C1697 H1684 0.929 . S
C1697 C1689 1.433 . S
C1697 N1699 1.384 . S
N1698 C1694 1.427 . S
N1698 C1695 1.384 . S
N1699 C1691 1.427 . S
N1699 C1697 1.384 . S
H1700 C1706 0.930 . S
H1701 C1710 0.930 . S
H1702 C1715 0.929 . S
H1703 C1713 0.929 . S
H1704 C1708 0.929 . S
H1705 C1714 0.929 . S
C1706 H1700 0.930 . S
C1706 C1707 1.367 . S
C1706 C1714 1.378 . S
C1707 C1706 1.367 . S
C1707 C1715 1.433 . S
C1708 H1704 0.929 . S
C1708 C1710 1.378 . S
C1708 C1712 1.350 . S
C1709 C1712 1.463 . S
C1709 C1714 1.350 . S
C1709 N1717 1.427 . S
C1710 H1701 0.930 . S
C1710 C1708 1.378 . S
C1710 C1711 1.367 . S
C1711 C1710 1.367 . S
C1711 C1713 1.433 . S
C1712 C1708 1.350 . S
C1712 C1709 1.463 . S
C1712 N1716 1.427 . S
C1713 H1703 0.929 . S
C1713 C1711 1.433 . S
C1713 N1716 1.384 . S
C1714 H1705 0.929 . S
C1714 C1706 1.378 . S
C1714 C1709 1.350 . S
C1715 H1702 0.929 . S
C1715 C1707 1.433 . S
C1715 N1717 1.384 . S
N1716 C1712 1.427 . S
N1716 C1713 1.384 . S
N1717 C1709 1.427 . S
N1717 C1715 1.384 . S
H1718 C1724 0.930 . S
H1719 C1728 0.930 . S
H1720 C1733 0.929 . S
H1721 C1731 0.929 . S
H1722 C1726 0.929 . S
H1723 C1732 0.929 . S
C1724 H1718 0.930 . S
C1724 C1725 1.367 . S
C1724 C1732 1.378 . S
C1725 C1724 1.367 . S
C1725 C1733 1.433 . S
C1726 H1722 0.929 . S
C1726 C1728 1.378 . S
C1726 C1730 1.350 . S
C1727 C1730 1.463 . S
C1727 C1732 1.350 . S
C1727 N1735 1.427 . S
C1728 H1719 0.930 . S
C1728 C1726 1.378 . S
C1728 C1729 1.367 . S
C1729 C1728 1.367 . S
C1729 C1731 1.433 . S
C1730 C1726 1.350 . S
C1730 C1727 1.463 . S
C1730 N1734 1.427 . S
C1731 H1721 0.929 . S
C1731 C1729 1.433 . S
C1731 N1734 1.384 . S
C1732 H1723 0.929 . S
C1732 C1724 1.378 . S
C1732 C1727 1.350 . S
C1733 H1720 0.929 . S
C1733 C1725 1.433 . S
C1733 N1735 1.384 . S
N1734 C1730 1.427 . S
N1734 C1731 1.384 . S
N1735 C1727 1.427 . S
N1735 C1733 1.384 . S
H1736 C1742 0.930 . S
H1737 C1746 0.930 . S
H1738 C1751 0.929 . S
H1739 C1749 0.929 . S
H1740 C1744 0.929 . S
H1741 C1750 0.929 . S
C1742 H1736 0.930 . S
C1742 C1743 1.367 . S
C1742 C1750 1.378 . S
C1743 C1742 1.367 . S
C1743 C1751 1.433 . S
C1744 H1740 0.929 . S
C1744 C1746 1.378 . S
C1744 C1748 1.350 . S
C1745 C1748 1.463 . S
C1745 C1750 1.350 . S
C1745 N1753 1.427 . S
C1746 H1737 0.930 . S
C1746 C1744 1.378 . S
C1746 C1747 1.367 . S
C1747 C1746 1.367 . S
C1747 C1749 1.433 . S
C1748 C1744 1.350 . S
C1748 C1745 1.463 . S
C1748 N1752 1.427 . S
C1749 H1739 0.929 . S
C1749 C1747 1.433 . S
C1749 N1752 1.384 . S
C1750 H1741 0.929 . S
C1750 C1742 1.378 . S
C1750 C1745 1.350 . S
C1751 H1738 0.929 . S
C1751 C1743 1.433 . S
C1751 N1753 1.384 . S
N1752 C1748 1.427 . S
N1752 C1749 1.384 . S
N1753 C1745 1.427 . S
N1753 C1751 1.384 . S
H1754 C1760 0.930 . S
H1755 C1764 0.930 . S
H1756 C1769 0.929 . S
H1757 C1767 0.929 . S
H1758 C1762 0.929 . S
H1759 C1768 0.929 . S
C1760 H1754 0.930 . S
C1760 C1761 1.367 . S
C1760 C1768 1.378 . S
C1761 C1760 1.367 . S
C1761 C1769 1.433 . S
C1762 H1758 0.929 . S
C1762 C1764 1.378 . S
C1762 C1766 1.350 . S
C1763 C1766 1.463 . S
C1763 C1768 1.350 . S
C1763 N1771 1.427 . S
C1764 H1755 0.930 . S
C1764 C1762 1.378 . S
C1764 C1765 1.367 . S
C1765 C1764 1.367 . S
C1765 C1767 1.433 . S
C1766 C1762 1.350 . S
C1766 C1763 1.463 . S
C1766 N1770 1.427 . S
C1767 H1757 0.929 . S
C1767 C1765 1.433 . S
C1767 N1770 1.384 . S
C1768 H1759 0.929 . S
C1768 C1760 1.378 . S
C1768 C1763 1.350 . S
C1769 H1756 0.929 . S
C1769 C1761 1.433 . S
C1769 N1771 1.384 . S
N1770 C1766 1.427 . S
N1770 C1767 1.384 . S
N1771 C1763 1.427 . S
N1771 C1769 1.384 . S
H1772 C1778 0.930 . S
H1773 C1782 0.930 . S
H1774 C1787 0.929 . S
H1775 C1785 0.929 . S
H1776 C1780 0.929 . S
H1777 C1786 0.929 . S
C1778 H1772 0.930 . S
C1778 C1779 1.367 . S
C1778 C1786 1.378 . S
C1779 C1778 1.367 . S
C1779 C1787 1.433 . S
C1780 H1776 0.929 . S
C1780 C1782 1.378 . S
C1780 C1784 1.350 . S
C1781 C1784 1.463 . S
C1781 C1786 1.350 . S
C1781 N1789 1.427 . S
C1782 H1773 0.930 . S
C1782 C1780 1.378 . S
C1782 C1783 1.367 . S
C1783 C1782 1.367 . S
C1783 C1785 1.433 . S
C1784 C1780 1.350 . S
C1784 C1781 1.463 . S
C1784 N1788 1.427 . S
C1785 H1775 0.929 . S
C1785 C1783 1.433 . S
C1785 N1788 1.384 . S
C1786 H1777 0.929 . S
C1786 C1778 1.378 . S
C1786 C1781 1.350 . S
C1787 H1774 0.929 . S
C1787 C1779 1.433 . S
C1787 N1789 1.384 . S
N1788 C1784 1.427 . S
N1788 C1785 1.384 . S
N1789 C1781 1.427 . S
N1789 C1787 1.384 . S
H1790 C1796 0.930 . S
H1791 C1800 0.930 . S
H1792 C1805 0.929 . S
H1793 C1803 0.929 . S
H1794 C1798 0.929 . S
H1795 C1804 0.929 . S
C1796 H1790 0.930 . S
C1796 C1797 1.367 . S
C1796 C1804 1.378 . S
C1797 C1796 1.367 . S
C1797 C1805 1.433 . S
C1798 H1794 0.929 . S
C1798 C1800 1.378 . S
C1798 C1802 1.350 . S
C1799 C1802 1.463 . S
C1799 C1804 1.350 . S
C1799 N1807 1.427 . S
C1800 H1791 0.930 . S
C1800 C1798 1.378 . S
C1800 C1801 1.367 . S
C1801 C1800 1.367 . S
C1801 C1803 1.433 . S
C1802 C1798 1.350 . S
C1802 C1799 1.463 . S
C1802 N1806 1.427 . S
C1803 H1793 0.929 . S
C1803 C1801 1.433 . S
C1803 N1806 1.384 . S
C1804 H1795 0.929 . S
C1804 C1796 1.378 . S
C1804 C1799 1.350 . S
C1805 H1792 0.929 . S
C1805 C1797 1.433 . S
C1805 N1807 1.384 . S
N1806 C1802 1.427 . S
N1806 C1803 1.384 . S
N1807 C1799 1.427 . S
N1807 C1805 1.384 . S
H1808 C1814 0.930 . S
H1809 C1818 0.930 . S
H1810 C1823 0.929 . S
H1811 C1821 0.929 . S
H1812 C1816 0.929 . S
H1813 C1822 0.929 . S
C1814 H1808 0.930 . S
C1814 C1815 1.367 . S
C1814 C1822 1.378 . S
C1815 C1814 1.367 . S
C1815 C1823 1.433 . S
C1816 H1812 0.929 . S
C1816 C1818 1.378 . S
C1816 C1820 1.350 . S
C1817 C1820 1.463 . S
C1817 C1822 1.350 . S
C1817 N1825 1.427 . S
C1818 H1809 0.930 . S
C1818 C1816 1.378 . S
C1818 C1819 1.367 . S
C1819 C1818 1.367 . S
C1819 C1821 1.433 . S
C1820 C1816 1.350 . S
C1820 C1817 1.463 . S
C1820 N1824 1.427 . S
C1821 H1811 0.929 . S
C1821 C1819 1.433 . S
C1821 N1824 1.384 . S
C1822 H1813 0.929 . S
C1822 C1814 1.378 . S
C1822 C1817 1.350 . S
C1823 H1810 0.929 . S
C1823 C1815 1.433 . S
C1823 N1825 1.384 . S
N1824 C1820 1.427 . S
N1824 C1821 1.384 . S
N1825 C1817 1.427 . S
N1825 C1823 1.384 . S
H1826 C1832 0.930 . S
H1827 C1836 0.930 . S
H1828 C1841 0.929 . S
H1829 C1839 0.929 . S
H1830 C1834 0.929 . S
H1831 C1840 0.929 . S
C1832 H1826 0.930 . S
C1832 C1833 1.367 . S
C1832 C1840 1.378 . S
C1833 C1832 1.367 . S
C1833 C1841 1.433 . S
C1834 H1830 0.929 . S
C1834 C1836 1.378 . S
C1834 C1838 1.350 . S
C1835 C1838 1.463 . S
C1835 C1840 1.350 . S
C1835 N1843 1.427 . S
C1836 H1827 0.930 . S
C1836 C1834 1.378 . S
C1836 C1837 1.367 . S
C1837 C1836 1.367 . S
C1837 C1839 1.433 . S
C1838 C1834 1.350 . S
C1838 C1835 1.463 . S
C1838 N1842 1.427 . S
C1839 H1829 0.929 . S
C1839 C1837 1.433 . S
C1839 N1842 1.384 . S
C1840 H1831 0.929 . S
C1840 C1832 1.378 . S
C1840 C1835 1.350 . S
C1841 H1828 0.929 . S
C1841 C1833 1.433 . S
C1841 N1843 1.384 . S
N1842 C1838 1.427 . S
N1842 C1839 1.384 . S
N1843 C1835 1.427 . S
N1843 C1841 1.384 . S
H1844 C1850 0.930 . S
H1845 C1854 0.930 . S
H1846 C1859 0.929 . S
H1847 C1857 0.929 . S
H1848 C1852 0.929 . S
H1849 C1858 0.929 . S
C1850 H1844 0.930 . S
C1850 C1851 1.367 . S
C1850 C1858 1.378 . S
C1851 C1850 1.367 . S
C1851 C1859 1.433 . S
C1852 H1848 0.929 . S
C1852 C1854 1.378 . S
C1852 C1856 1.350 . S
C1853 C1856 1.463 . S
C1853 C1858 1.350 . S
C1853 N1861 1.427 . S
C1854 H1845 0.930 . S
C1854 C1852 1.378 . S
C1854 C1855 1.367 . S
C1855 C1854 1.367 . S
C1855 C1857 1.433 . S
C1856 C1852 1.350 . S
C1856 C1853 1.463 . S
C1856 N1860 1.427 . S
C1857 H1847 0.929 . S
C1857 C1855 1.433 . S
C1857 N1860 1.384 . S
C1858 H1849 0.929 . S
C1858 C1850 1.378 . S
C1858 C1853 1.350 . S
C1859 H1846 0.929 . S
C1859 C1851 1.433 . S
C1859 N1861 1.384 . S
N1860 C1856 1.427 . S
N1860 C1857 1.384 . S
N1861 C1853 1.427 . S
N1861 C1859 1.384 . S
H1862 C1868 0.934 . S
H1863 C1872 0.930 . S
H1864 C1877 0.929 . S
H1865 C1875 0.929 . S
H1866 C1870 0.929 . S
H1867 C1876 0.952 . S
C1868 H1862 0.934 . S
C1868 C1869 1.363 1_556 S
C1868 C1876 1.375 . S
C1869 C1868 1.363 1_554 S
C1869 C1877 1.433 . S
C1870 H1866 0.929 . S
C1870 C1872 1.378 . S
C1870 C1874 1.350 . S
C1871 C1874 1.463 . S
C1871 C1876 1.330 1_554 S
C1871 N1879 1.427 . S
C1872 H1863 0.930 . S
C1872 C1870 1.378 . S
C1872 C1873 1.367 . S
C1873 C1872 1.367 . S
C1873 C1875 1.433 1_554 S
C1874 C1870 1.350 . S
C1874 C1871 1.463 . S
C1874 N1878 1.427 1_554 S
C1875 H1865 0.929 . S
C1875 C1873 1.433 1_556 S
C1875 N1878 1.384 . S
C1876 H1867 0.952 . S
C1876 C1868 1.375 . S
C1876 C1871 1.330 1_556 S
C1877 H1864 0.929 . S
C1877 C1869 1.433 . S
C1877 N1879 1.384 . S
N1878 C1874 1.427 1_556 S
N1878 C1875 1.384 . S
N1879 C1871 1.427 . S
N1879 C1877 1.384 . S
H1880 C1886 0.930 . S
H1881 C1890 0.930 . S
H1882 C1895 0.929 . S
H1883 C1893 0.929 . S
H1884 C1888 0.929 . S
H1885 C1894 0.929 . S
C1886 H1880 0.930 . S
C1886 C1887 1.367 . S
C1886 C1894 1.378 . S
C1887 C1886 1.367 . S
C1887 C1895 1.433 . S
C1888 H1884 0.929 . S
C1888 C1890 1.378 . S
C1888 C1892 1.350 . S
C1889 C1892 1.463 . S
C1889 C1894 1.350 . S
C1889 N1897 1.427 . S
C1890 H1881 0.930 . S
C1890 C1888 1.378 . S
C1890 C1891 1.367 . S
C1891 C1890 1.367 . S
C1891 C1893 1.433 . S
C1892 C1888 1.350 . S
C1892 C1889 1.463 . S
C1892 N1896 1.427 . S
C1893 H1883 0.929 . S
C1893 C1891 1.433 . S
C1893 N1896 1.384 . S
C1894 H1885 0.929 . S
C1894 C1886 1.378 . S
C1894 C1889 1.350 . S
C1895 H1882 0.929 . S
C1895 C1887 1.433 . S
C1895 N1897 1.384 . S
N1896 C1892 1.427 . S
N1896 C1893 1.384 . S
N1897 C1889 1.427 . S
N1897 C1895 1.384 . S
H1898 C1904 0.930 . S
H1899 C1908 0.930 1_556 S
H1900 C1913 0.929 . S
H1901 C1911 0.929 . S
H1902 C1906 0.929 1_556 S
H1903 C1912 0.929 . S
C1904 H1898 0.930 . S
C1904 C1905 1.367 . S
C1904 C1912 1.378 . S
C1905 C1904 1.367 . S
C1905 C1913 1.433 1_554 S
C1906 H1902 0.929 1_554 S
C1906 C1908 1.378 . S
C1906 C1910 1.350 . S
C1907 C1910 1.463 . S
C1907 C1912 1.350 . S
C1907 N1915 1.427 1_554 S
C1908 H1899 0.930 1_554 S
C1908 C1906 1.378 . S
C1908 C1909 1.367 . S
C1909 C1908 1.367 . S
C1909 C1911 1.433 . S
C1910 C1906 1.350 . S
C1910 C1907 1.463 . S
C1910 N1914 1.427 . S
C1911 H1901 0.929 . S
C1911 C1909 1.433 . S
C1911 N1914 1.384 . S
C1912 H1903 0.929 . S
C1912 C1904 1.378 . S
C1912 C1907 1.350 . S
C1913 H1900 0.929 . S
C1913 C1905 1.433 1_556 S
C1913 N1915 1.384 . S
N1914 C1910 1.427 . S
N1914 C1911 1.384 . S
N1915 C1907 1.427 1_556 S
N1915 C1913 1.384 . S
H1916 C1922 0.930 . S
H1917 C1926 0.930 . S
H1918 C1931 0.929 . S
H1919 C1929 0.929 . S
H1920 C1924 0.929 . S
H1921 C1930 0.929 . S
C1922 H1916 0.930 . S
C1922 C1923 1.367 . S
C1922 C1930 1.378 . S
C1923 C1922 1.367 . S
C1923 C1931 1.433 . S
C1924 H1920 0.929 . S
C1924 C1926 1.378 . S
C1924 C1928 1.350 . S
C1925 C1928 1.463 . S
C1925 C1930 1.350 . S
C1925 N1933 1.427 . S
C1926 H1917 0.930 . S
C1926 C1924 1.378 . S
C1926 C1927 1.367 . S
C1927 C1926 1.367 . S
C1927 C1929 1.433 . S
C1928 C1924 1.350 . S
C1928 C1925 1.463 . S
C1928 N1932 1.427 . S
C1929 H1919 0.929 . S
C1929 C1927 1.433 . S
C1929 N1932 1.384 . S
C1930 H1921 0.929 . S
C1930 C1922 1.378 . S
C1930 C1925 1.350 . S
C1931 H1918 0.929 . S
C1931 C1923 1.433 . S
C1931 N1933 1.384 . S
N1932 C1928 1.427 . S
N1932 C1929 1.384 . S
N1933 C1925 1.427 . S
N1933 C1931 1.384 . S
H1934 C1940 0.930 . S
H1935 C1944 0.930 . S
H1936 C1949 0.929 . S
H1937 C1947 0.929 . S
H1938 C1942 0.929 . S
H1939 C1948 0.929 . S
C1940 H1934 0.930 . S
C1940 C1941 1.367 . S
C1940 C1948 1.378 . S
C1941 C1940 1.367 . S
C1941 C1949 1.433 . S
C1942 H1938 0.929 . S
C1942 C1944 1.378 . S
C1942 C1946 1.350 . S
C1943 C1946 1.463 . S
C1943 C1948 1.350 . S
C1943 N1951 1.427 . S
C1944 H1935 0.930 . S
C1944 C1942 1.378 . S
C1944 C1945 1.367 . S
C1945 C1944 1.367 . S
C1945 C1947 1.433 . S
C1946 C1942 1.350 . S
C1946 C1943 1.463 . S
C1946 N1950 1.427 . S
C1947 H1937 0.929 . S
C1947 C1945 1.433 . S
C1947 N1950 1.384 . S
C1948 H1939 0.929 . S
C1948 C1940 1.378 . S
C1948 C1943 1.350 . S
C1949 H1936 0.929 . S
C1949 C1941 1.433 . S
C1949 N1951 1.384 . S
N1950 C1946 1.427 . S
N1950 C1947 1.384 . S
N1951 C1943 1.427 . S
N1951 C1949 1.384 . S
H1952 C1958 0.930 . S
H1953 C1962 0.930 . S
H1954 C1967 0.929 . S
H1955 C1965 0.929 . S
H1956 C1960 0.929 . S
H1957 C1966 0.929 . S
C1958 H1952 0.930 . S
C1958 C1959 1.367 . S
C1958 C1966 1.378 . S
C1959 C1958 1.367 . S
C1959 C1967 1.433 . S
C1960 H1956 0.929 . S
C1960 C1962 1.378 . S
C1960 C1964 1.350 . S
C1961 C1964 1.463 . S
C1961 C1966 1.350 . S
C1961 N1969 1.427 . S
C1962 H1953 0.930 . S
C1962 C1960 1.378 . S
C1962 C1963 1.367 . S
C1963 C1962 1.367 . S
C1963 C1965 1.433 . S
C1964 C1960 1.350 . S
C1964 C1961 1.463 . S
C1964 N1968 1.427 . S
C1965 H1955 0.929 . S
C1965 C1963 1.433 . S
C1965 N1968 1.384 . S
C1966 H1957 0.929 . S
C1966 C1958 1.378 . S
C1966 C1961 1.350 . S
C1967 H1954 0.929 . S
C1967 C1959 1.433 . S
C1967 N1969 1.384 . S
N1968 C1964 1.427 . S
N1968 C1965 1.384 . S
N1969 C1961 1.427 . S
N1969 C1967 1.384 . S
H1970 C1976 0.930 . S
H1971 C1980 0.930 . S
H1972 C1985 0.929 . S
H1973 C1983 0.929 . S
H1974 C1978 0.929 . S
H1975 C1984 0.929 . S
C1976 H1970 0.930 . S
C1976 C1977 1.367 . S
C1976 C1984 1.378 . S
C1977 C1976 1.367 . S
C1977 C1985 1.433 . S
C1978 H1974 0.929 . S
C1978 C1980 1.378 . S
C1978 C1982 1.350 . S
C1979 C1982 1.463 . S
C1979 C1984 1.350 . S
C1979 N1987 1.427 . S
C1980 H1971 0.930 . S
C1980 C1978 1.378 . S
C1980 C1981 1.367 . S
C1981 C1980 1.367 . S
C1981 C1983 1.433 . S
C1982 C1978 1.350 . S
C1982 C1979 1.463 . S
C1982 N1986 1.427 . S
C1983 H1973 0.929 . S
C1983 C1981 1.433 . S
C1983 N1986 1.384 . S
C1984 H1975 0.929 . S
C1984 C1976 1.378 . S
C1984 C1979 1.350 . S
C1985 H1972 0.929 . S
C1985 C1977 1.433 . S
C1985 N1987 1.384 . S
N1986 C1982 1.427 . S
N1986 C1983 1.384 . S
N1987 C1979 1.427 . S
N1987 C1985 1.384 . S
H1988 C1994 0.895 1_655 S
H1989 C1998 0.930 . S
H1990 C2003 0.929 . S
H1991 C2001 0.929 . S
H1992 C1996 0.929 . S
H1993 C2002 0.920 1_655 S
C1994 H1988 0.895 1_455 S
C1994 C1995 1.396 . S
C1994 C2002 1.383 . S
C1995 C1994 1.396 . S
C1995 C2003 1.433 . S
C1996 H1992 0.929 . S
C1996 C1998 1.378 . S
C1996 C2000 1.350 . S
C1997 C2000 1.463 . S
C1997 C2002 1.361 . S
C1997 N2005 1.427 . S
C1998 H1989 0.930 . S
C1998 C1996 1.378 . S
C1998 C1999 1.367 . S
C1999 C1998 1.367 . S
C1999 C2001 1.433 1_455 S
C2000 C1996 1.350 . S
C2000 C1997 1.463 . S
C2000 N2004 1.401 1_455 S
C2001 H1991 0.929 . S
C2001 C1999 1.433 1_655 S
C2001 N2004 1.379 . S
C2002 H1993 0.920 1_455 S
C2002 C1994 1.383 . S
C2002 C1997 1.361 . S
C2003 H1990 0.929 . S
C2003 C1995 1.433 . S
C2003 N2005 1.384 . S
N2004 C2000 1.401 1_655 S
N2004 C2001 1.379 . S
N2005 C1997 1.427 . S
N2005 C2003 1.384 . S
H2006 C2012 0.930 . S
H2007 C2016 0.930 . S
H2008 C2021 0.929 . S
H2009 C2019 0.929 . S
H2010 C2014 0.929 . S
H2011 C2020 0.929 . S
C2012 H2006 0.930 . S
C2012 C2013 1.367 . S
C2012 C2020 1.378 . S
C2013 C2012 1.367 . S
C2013 C2021 1.433 . S
C2014 H2010 0.929 . S
C2014 C2016 1.378 . S
C2014 C2018 1.350 . S
C2015 C2018 1.463 . S
C2015 C2020 1.350 . S
C2015 N2023 1.427 . S
C2016 H2007 0.930 . S
C2016 C2014 1.378 . S
C2016 C2017 1.367 . S
C2017 C2016 1.367 . S
C2017 C2019 1.433 . S
C2018 C2014 1.350 . S
C2018 C2015 1.463 . S
C2018 N2022 1.427 . S
C2019 H2009 0.929 . S
C2019 C2017 1.433 . S
C2019 N2022 1.384 . S
C2020 H2011 0.929 . S
C2020 C2012 1.378 . S
C2020 C2015 1.350 . S
C2021 H2008 0.929 . S
C2021 C2013 1.433 . S
C2021 N2023 1.384 . S
N2022 C2018 1.427 . S
N2022 C2019 1.384 . S
N2023 C2015 1.427 . S
N2023 C2021 1.384 . S
H2024 C2030 0.930 . S
H2025 C2034 0.930 . S
H2026 C2039 0.929 . S
H2027 C2037 0.929 . S
H2028 C2032 0.929 . S
H2029 C2038 0.929 . S
C2030 H2024 0.930 . S
C2030 C2031 1.367 . S
C2030 C2038 1.378 . S
C2031 C2030 1.367 . S
C2031 C2039 1.433 . S
C2032 H2028 0.929 . S
C2032 C2034 1.378 . S
C2032 C2036 1.350 . S
C2033 C2036 1.463 . S
C2033 C2038 1.350 . S
C2033 N2041 1.427 . S
C2034 H2025 0.930 . S
C2034 C2032 1.378 . S
C2034 C2035 1.367 . S
C2035 C2034 1.367 . S
C2035 C2037 1.433 . S
C2036 C2032 1.350 . S
C2036 C2033 1.463 . S
C2036 N2040 1.427 . S
C2037 H2027 0.929 . S
C2037 C2035 1.433 . S
C2037 N2040 1.384 . S
C2038 H2029 0.929 . S
C2038 C2030 1.378 . S
C2038 C2033 1.350 . S
C2039 H2026 0.929 . S
C2039 C2031 1.433 . S
C2039 N2041 1.384 . S
N2040 C2036 1.427 . S
N2040 C2037 1.384 . S
N2041 C2033 1.427 . S
N2041 C2039 1.384 . S
H2042 C2048 0.930 . S
H2043 C2052 0.930 . S
H2044 C2057 0.929 . S
H2045 C2055 0.929 . S
H2046 C2050 0.929 . S
H2047 C2056 0.929 . S
C2048 H2042 0.930 . S
C2048 C2049 1.367 . S
C2048 C2056 1.378 . S
C2049 C2048 1.367 . S
C2049 C2057 1.433 . S
C2050 H2046 0.929 . S
C2050 C2052 1.378 . S
C2050 C2054 1.350 . S
C2051 C2054 1.463 . S
C2051 C2056 1.350 . S
C2051 N2059 1.427 . S
C2052 H2043 0.930 . S
C2052 C2050 1.378 . S
C2052 C2053 1.367 . S
C2053 C2052 1.367 . S
C2053 C2055 1.433 . S
C2054 C2050 1.350 . S
C2054 C2051 1.463 . S
C2054 N2058 1.427 . S
C2055 H2045 0.929 . S
C2055 C2053 1.433 . S
C2055 N2058 1.384 . S
C2056 H2047 0.929 . S
C2056 C2048 1.378 . S
C2056 C2051 1.350 . S
C2057 H2044 0.929 . S
C2057 C2049 1.433 . S
C2057 N2059 1.384 . S
N2058 C2054 1.427 . S
N2058 C2055 1.384 . S
N2059 C2051 1.427 . S
N2059 C2057 1.384 . S
H2060 C2066 0.930 . S
H2061 C2070 0.930 . S
H2062 C2075 0.929 1_655 S
H2063 C2073 0.929 . S
H2064 C2068 0.927 . S
H2065 C2074 0.929 . S
C2066 H2060 0.930 . S
C2066 C2067 1.367 . S
C2066 C2074 1.378 . S
C2067 C2066 1.367 . S
C2067 C2075 1.433 . S
C2068 H2064 0.927 . S
C2068 C2070 1.377 . S
C2068 C2072 1.351 1_655 S
C2069 C2072 1.463 . S
C2069 C2074 1.350 . S
C2069 N2077 1.427 . S
C2070 H2061 0.930 . S
C2070 C2068 1.377 . S
C2070 C2071 1.367 1_655 S
C2071 C2070 1.367 1_455 S
C2071 C2073 1.433 . S
C2072 C2068 1.351 1_455 S
C2072 C2069 1.463 . S
C2072 N2076 1.427 . S
C2073 H2063 0.929 . S
C2073 C2071 1.433 . S
C2073 N2076 1.384 . S
C2074 H2065 0.929 . S
C2074 C2066 1.378 . S
C2074 C2069 1.350 . S
C2075 H2062 0.929 1_455 S
C2075 C2067 1.433 . S
C2075 N2077 1.384 . S
N2076 C2072 1.427 . S
N2076 C2073 1.384 . S
N2077 C2069 1.427 . S
N2077 C2075 1.384 . S
H2078 C2084 0.930 . S
H2079 C2088 0.930 . S
H2080 C2093 0.929 . S
H2081 C2091 0.929 . S
H2082 C2086 0.929 . S
H2083 C2092 0.929 . S
C2084 H2078 0.930 . S
C2084 C2085 1.367 . S
C2084 C2092 1.378 . S
C2085 C2084 1.367 . S
C2085 C2093 1.433 . S
C2086 H2082 0.929 . S
C2086 C2088 1.378 . S
C2086 C2090 1.350 . S
C2087 C2090 1.463 . S
C2087 C2092 1.350 . S
C2087 N2095 1.427 . S
C2088 H2079 0.930 . S
C2088 C2086 1.378 . S
C2088 C2089 1.367 . S
C2089 C2088 1.367 . S
C2089 C2091 1.433 . S
C2090 C2086 1.350 . S
C2090 C2087 1.463 . S
C2090 N2094 1.427 . S
C2091 H2081 0.929 . S
C2091 C2089 1.433 . S
C2091 N2094 1.384 . S
C2092 H2083 0.929 . S
C2092 C2084 1.378 . S
C2092 C2087 1.350 . S
C2093 H2080 0.929 . S
C2093 C2085 1.433 . S
C2093 N2095 1.384 . S
N2094 C2090 1.427 . S
N2094 C2091 1.384 . S
N2095 C2087 1.427 . S
N2095 C2093 1.384 . S
H2096 C2102 0.930 . S
H2097 C2106 0.930 . S
H2098 C2111 0.929 . S
H2099 C2109 0.929 . S
H2100 C2104 0.929 . S
H2101 C2110 0.929 . S
C2102 H2096 0.930 . S
C2102 C2103 1.367 . S
C2102 C2110 1.378 . S
C2103 C2102 1.367 . S
C2103 C2111 1.433 . S
C2104 H2100 0.929 . S
C2104 C2106 1.378 . S
C2104 C2108 1.350 . S
C2105 C2108 1.463 . S
C2105 C2110 1.350 . S
C2105 N2113 1.427 . S
C2106 H2097 0.930 . S
C2106 C2104 1.378 . S
C2106 C2107 1.367 . S
C2107 C2106 1.367 . S
C2107 C2109 1.433 . S
C2108 C2104 1.350 . S
C2108 C2105 1.463 . S
C2108 N2112 1.427 . S
C2109 H2099 0.929 . S
C2109 C2107 1.433 . S
C2109 N2112 1.384 . S
C2110 H2101 0.929 . S
C2110 C2102 1.378 . S
C2110 C2105 1.350 . S
C2111 H2098 0.929 . S
C2111 C2103 1.433 . S
C2111 N2113 1.384 . S
N2112 C2108 1.427 . S
N2112 C2109 1.384 . S
N2113 C2105 1.427 . S
N2113 C2111 1.384 . S
H2114 C2120 0.930 . S
H2115 C2124 0.930 . S
H2116 C2129 0.929 . S
H2117 C2127 0.929 . S
H2118 C2122 0.929 . S
H2119 C2128 0.929 . S
C2120 H2114 0.930 . S
C2120 C2121 1.367 . S
C2120 C2128 1.378 . S
C2121 C2120 1.367 . S
C2121 C2129 1.433 . S
C2122 H2118 0.929 . S
C2122 C2124 1.378 . S
C2122 C2126 1.350 . S
C2123 C2126 1.463 . S
C2123 C2128 1.350 . S
C2123 N2131 1.427 . S
C2124 H2115 0.930 . S
C2124 C2122 1.378 . S
C2124 C2125 1.367 . S
C2125 C2124 1.367 . S
C2125 C2127 1.433 . S
C2126 C2122 1.350 . S
C2126 C2123 1.463 . S
C2126 N2130 1.427 . S
C2127 H2117 0.929 . S
C2127 C2125 1.433 . S
C2127 N2130 1.384 . S
C2128 H2119 0.929 . S
C2128 C2120 1.378 . S
C2128 C2123 1.350 . S
C2129 H2116 0.929 . S
C2129 C2121 1.433 . S
C2129 N2131 1.384 . S
N2130 C2126 1.427 . S
N2130 C2127 1.384 . S
N2131 C2123 1.427 . S
N2131 C2129 1.384 . S
H2132 C2138 0.930 . S
H2133 C2142 0.930 1_455 S
H2134 C2147 0.929 . S
H2135 C2145 0.929 . S
H2136 C2140 0.929 . S
H2137 C2146 0.929 . S
C2138 H2132 0.930 . S
C2138 C2139 1.367 . S
C2138 C2146 1.378 . S
C2139 C2138 1.367 . S
C2139 C2147 1.433 . S
C2140 H2136 0.929 . S
C2140 C2142 1.378 . S
C2140 C2144 1.350 . S
C2141 C2144 1.463 . S
C2141 C2146 1.350 . S
C2141 N2149 1.427 . S
C2142 H2133 0.930 1_655 S
C2142 C2140 1.378 . S
C2142 C2143 1.367 . S
C2143 C2142 1.367 . S
C2143 C2145 1.433 . S
C2144 C2140 1.350 . S
C2144 C2141 1.463 . S
C2144 N2148 1.427 . S
C2145 H2135 0.929 . S
C2145 C2143 1.433 . S
C2145 N2148 1.384 . S
C2146 H2137 0.929 . S
C2146 C2138 1.378 . S
C2146 C2141 1.350 . S
C2147 H2134 0.929 . S
C2147 C2139 1.433 . S
C2147 N2149 1.384 . S
N2148 C2144 1.427 . S
N2148 C2145 1.384 . S
N2149 C2141 1.427 . S
N2149 C2147 1.384 . S
H2150 C2156 0.930 . S
H2151 C2160 0.930 . S
H2152 C2165 0.929 . S
H2153 C2163 0.929 . S
H2154 C2158 0.929 . S
H2155 C2164 0.929 . S
C2156 H2150 0.930 . S
C2156 C2157 1.367 . S
C2156 C2164 1.378 . S
C2157 C2156 1.367 . S
C2157 C2165 1.433 . S
C2158 H2154 0.929 . S
C2158 C2160 1.378 . S
C2158 C2162 1.350 . S
C2159 C2162 1.463 . S
C2159 C2164 1.350 . S
C2159 N2167 1.427 . S
C2160 H2151 0.930 . S
C2160 C2158 1.378 . S
C2160 C2161 1.367 . S
C2161 C2160 1.367 . S
C2161 C2163 1.433 . S
C2162 C2158 1.350 . S
C2162 C2159 1.463 . S
C2162 N2166 1.427 . S
C2163 H2153 0.929 . S
C2163 C2161 1.433 . S
C2163 N2166 1.384 . S
C2164 H2155 0.929 . S
C2164 C2156 1.378 . S
C2164 C2159 1.350 . S
C2165 H2152 0.929 . S
C2165 C2157 1.433 . S
C2165 N2167 1.384 . S
N2166 C2162 1.427 . S
N2166 C2163 1.384 . S
N2167 C2159 1.427 . S
N2167 C2165 1.384 . S
H2168 C2174 0.930 . S
H2169 C2178 0.930 . S
H2170 C2183 0.929 . S
H2171 C2181 0.929 . S
H2172 C2176 0.929 . S
H2173 C2182 0.929 . S
C2174 H2168 0.930 . S
C2174 C2175 1.367 . S
C2174 C2182 1.378 . S
C2175 C2174 1.367 . S
C2175 C2183 1.433 . S
C2176 H2172 0.929 . S
C2176 C2178 1.378 . S
C2176 C2180 1.350 . S
C2177 C2180 1.463 . S
C2177 C2182 1.350 . S
C2177 N2185 1.427 . S
C2178 H2169 0.930 . S
C2178 C2176 1.378 . S
C2178 C2179 1.367 . S
C2179 C2178 1.367 . S
C2179 C2181 1.433 . S
C2180 C2176 1.350 . S
C2180 C2177 1.463 . S
C2180 N2184 1.427 . S
C2181 H2171 0.929 . S
C2181 C2179 1.433 . S
C2181 N2184 1.384 . S
C2182 H2173 0.929 . S
C2182 C2174 1.378 . S
C2182 C2177 1.350 . S
C2183 H2170 0.929 . S
C2183 C2175 1.433 . S
C2183 N2185 1.384 . S
N2184 C2180 1.427 . S
N2184 C2181 1.384 . S
N2185 C2177 1.427 . S
N2185 C2183 1.384 . S
H2186 C2192 0.930 . S
H2187 C2196 0.930 . S
H2188 C2201 0.929 . S
H2189 C2199 0.929 . S
H2190 C2194 0.929 . S
H2191 C2200 0.929 . S
C2192 H2186 0.930 . S
C2192 C2193 1.367 . S
C2192 C2200 1.378 . S
C2193 C2192 1.367 . S
C2193 C2201 1.433 . S
C2194 H2190 0.929 . S
C2194 C2196 1.378 . S
C2194 C2198 1.350 . S
C2195 C2198 1.463 . S
C2195 C2200 1.350 . S
C2195 N2203 1.427 . S
C2196 H2187 0.930 . S
C2196 C2194 1.378 . S
C2196 C2197 1.367 . S
C2197 C2196 1.367 . S
C2197 C2199 1.433 . S
C2198 C2194 1.350 . S
C2198 C2195 1.463 . S
C2198 N2202 1.427 . S
C2199 H2189 0.929 . S
C2199 C2197 1.433 . S
C2199 N2202 1.384 . S
C2200 H2191 0.929 . S
C2200 C2192 1.378 . S
C2200 C2195 1.350 . S
C2201 H2188 0.929 . S
C2201 C2193 1.433 . S
C2201 N2203 1.384 . S
N2202 C2198 1.427 . S
N2202 C2199 1.384 . S
N2203 C2195 1.427 . S
N2203 C2201 1.384 . S
H2204 C2210 0.930 . S
H2205 C2214 0.930 . S
H2206 C2219 0.929 . S
H2207 C2217 0.929 1_455 S
H2208 C2212 0.929 . S
H2209 C2218 0.929 . S
C2210 H2204 0.930 . S
C2210 C2211 1.367 . S
C2210 C2218 1.378 . S
C2211 C2210 1.367 . S
C2211 C2219 1.433 . S
C2212 H2208 0.929 . S
C2212 C2214 1.378 . S
C2212 C2216 1.350 . S
C2213 C2216 1.463 . S
C2213 C2218 1.350 . S
C2213 N2221 1.427 . S
C2214 H2205 0.930 . S
C2214 C2212 1.378 . S
C2214 C2215 1.367 . S
C2215 C2214 1.367 . S
C2215 C2217 1.433 . S
C2216 C2212 1.350 . S
C2216 C2213 1.463 . S
C2216 N2220 1.427 . S
C2217 H2207 0.929 1_655 S
C2217 C2215 1.433 . S
C2217 N2220 1.384 . S
C2218 H2209 0.929 . S
C2218 C2210 1.378 . S
C2218 C2213 1.350 . S
C2219 H2206 0.929 . S
C2219 C2211 1.433 . S
C2219 N2221 1.384 . S
N2220 C2216 1.427 . S
N2220 C2217 1.384 . S
N2221 C2213 1.427 . S
N2221 C2219 1.384 . S
H2222 C2228 0.930 . S
H2223 C2232 0.930 . S
H2224 C2237 0.929 . S
H2225 C2235 0.929 . S
H2226 C2230 0.929 . S
H2227 C2236 0.929 . S
C2228 H2222 0.930 . S
C2228 C2229 1.367 . S
C2228 C2236 1.378 . S
C2229 C2228 1.367 . S
C2229 C2237 1.433 . S
C2230 H2226 0.929 . S
C2230 C2232 1.378 . S
C2230 C2234 1.350 . S
C2231 C2234 1.463 . S
C2231 C2236 1.350 . S
C2231 N2239 1.427 . S
C2232 H2223 0.930 . S
C2232 C2230 1.378 . S
C2232 C2233 1.367 . S
C2233 C2232 1.367 . S
C2233 C2235 1.433 . S
C2234 C2230 1.350 . S
C2234 C2231 1.463 . S
C2234 N2238 1.427 . S
C2235 H2225 0.929 . S
C2235 C2233 1.433 . S
C2235 N2238 1.384 . S
C2236 H2227 0.929 . S
C2236 C2228 1.378 . S
C2236 C2231 1.350 . S
C2237 H2224 0.929 . S
C2237 C2229 1.433 . S
C2237 N2239 1.384 . S
N2238 C2234 1.427 . S
N2238 C2235 1.384 . S
N2239 C2231 1.427 . S
N2239 C2237 1.384 . S
H2240 C2246 0.930 . S
H2241 C2250 0.930 . S
H2242 C2255 0.929 . S
H2243 C2253 0.929 . S
H2244 C2248 0.929 . S
H2245 C2254 0.929 . S
C2246 H2240 0.930 . S
C2246 C2247 1.367 . S
C2246 C2254 1.378 . S
C2247 C2246 1.367 . S
C2247 C2255 1.433 . S
C2248 H2244 0.929 . S
C2248 C2250 1.378 . S
C2248 C2252 1.350 . S
C2249 C2252 1.463 . S
C2249 C2254 1.350 . S
C2249 N2257 1.427 . S
C2250 H2241 0.930 . S
C2250 C2248 1.378 . S
C2250 C2251 1.367 . S
C2251 C2250 1.367 . S
C2251 C2253 1.433 . S
C2252 C2248 1.350 . S
C2252 C2249 1.463 . S
C2252 N2256 1.427 . S
C2253 H2243 0.929 . S
C2253 C2251 1.433 . S
C2253 N2256 1.384 . S
C2254 H2245 0.929 . S
C2254 C2246 1.378 . S
C2254 C2249 1.350 . S
C2255 H2242 0.929 . S
C2255 C2247 1.433 . S
C2255 N2257 1.384 . S
N2256 C2252 1.427 . S
N2256 C2253 1.384 . S
N2257 C2249 1.427 . S
N2257 C2255 1.384 . S
H2258 C2264 0.930 . S
H2259 C2268 0.930 . S
H2260 C2273 0.929 . S
H2261 C2271 0.929 1_545 S
H2262 C2266 0.929 . S
H2263 C2272 0.929 . S
C2264 H2258 0.930 . S
C2264 C2265 1.367 . S
C2264 C2272 1.378 . S
C2265 C2264 1.367 . S
C2265 C2273 1.433 . S
C2266 H2262 0.929 . S
C2266 C2268 1.378 . S
C2266 C2270 1.350 . S
C2267 C2270 1.463 . S
C2267 C2272 1.350 . S
C2267 N2275 1.427 . S
C2268 H2259 0.930 . S
C2268 C2266 1.378 . S
C2268 C2269 1.367 . S
C2269 C2268 1.367 . S
C2269 C2271 1.433 . S
C2270 C2266 1.350 . S
C2270 C2267 1.463 . S
C2270 N2274 1.427 . S
C2271 H2261 0.929 1_565 S
C2271 C2269 1.433 . S
C2271 N2274 1.384 . S
C2272 H2263 0.929 . S
C2272 C2264 1.378 . S
C2272 C2267 1.350 . S
C2273 H2260 0.929 . S
C2273 C2265 1.433 . S
C2273 N2275 1.384 . S
N2274 C2270 1.427 . S
N2274 C2271 1.384 . S
N2275 C2267 1.427 . S
N2275 C2273 1.384 . S
H2276 C2282 0.930 . S
H2277 C2286 0.930 . S
H2278 C2291 0.929 . S
H2279 C2289 0.929 . S
H2280 C2284 0.929 . S
H2281 C2290 0.929 . S
C2282 H2276 0.930 . S
C2282 C2283 1.367 . S
C2282 C2290 1.378 . S
C2283 C2282 1.367 . S
C2283 C2291 1.433 . S
C2284 H2280 0.929 . S
C2284 C2286 1.378 . S
C2284 C2288 1.350 . S
C2285 C2288 1.463 . S
C2285 C2290 1.350 . S
C2285 N2293 1.427 . S
C2286 H2277 0.930 . S
C2286 C2284 1.378 . S
C2286 C2287 1.367 . S
C2287 C2286 1.367 . S
C2287 C2289 1.433 . S
C2288 C2284 1.350 . S
C2288 C2285 1.463 . S
C2288 N2292 1.427 . S
C2289 H2279 0.929 . S
C2289 C2287 1.433 . S
C2289 N2292 1.384 . S
C2290 H2281 0.929 . S
C2290 C2282 1.378 . S
C2290 C2285 1.350 . S
C2291 H2278 0.929 . S
C2291 C2283 1.433 . S
C2291 N2293 1.384 . S
N2292 C2288 1.427 . S
N2292 C2289 1.384 . S
N2293 C2285 1.427 . S
N2293 C2291 1.384 . S
H2294 C2300 0.935 . S
H2295 C2304 0.930 . S
H2296 C2309 0.929 . S
H2297 C2307 0.929 . S
H2298 C2302 0.929 . S
H2299 C2308 0.942 . S
C2300 H2294 0.935 . S
C2300 C2301 1.367 . S
C2300 C2308 1.378 . S
C2301 C2300 1.367 . S
C2301 C2309 1.433 . S
C2302 H2298 0.929 . S
C2302 C2304 1.378 . S
C2302 C2306 1.350 . S
C2303 C2306 1.463 . S
C2303 C2308 1.350 . S
C2303 N2311 1.427 . S
C2304 H2295 0.930 . S
C2304 C2302 1.378 . S
C2304 C2305 1.367 . S
C2305 C2304 1.367 . S
C2305 C2307 1.433 . S
C2306 C2302 1.350 . S
C2306 C2303 1.463 . S
C2306 N2310 1.427 . S
C2307 H2297 0.929 . S
C2307 C2305 1.433 . S
C2307 N2310 1.384 . S
C2308 H2299 0.942 . S
C2308 C2300 1.378 . S
C2308 C2303 1.350 . S
C2309 H2296 0.929 . S
C2309 C2301 1.433 . S
C2309 N2311 1.384 . S
N2310 C2306 1.427 . S
N2310 C2307 1.384 . S
N2311 C2303 1.427 . S
N2311 C2309 1.384 . S
H2312 C2318 0.930 . S
H2313 C2322 0.930 . S
H2314 C2327 0.929 . S
H2315 C2325 0.929 . S
H2316 C2320 0.929 . S
H2317 C2326 0.929 . S
C2318 H2312 0.930 . S
C2318 C2319 1.367 . S
C2318 C2326 1.378 . S
C2319 C2318 1.367 . S
C2319 C2327 1.433 . S
C2320 H2316 0.929 . S
C2320 C2322 1.378 . S
C2320 C2324 1.350 . S
C2321 C2324 1.463 . S
C2321 C2326 1.350 . S
C2321 N2329 1.427 . S
C2322 H2313 0.930 . S
C2322 C2320 1.378 . S
C2322 C2323 1.367 . S
C2323 C2322 1.367 . S
C2323 C2325 1.433 . S
C2324 C2320 1.350 . S
C2324 C2321 1.463 . S
C2324 N2328 1.427 . S
C2325 H2315 0.929 . S
C2325 C2323 1.433 . S
C2325 N2328 1.384 . S
C2326 H2317 0.929 . S
C2326 C2318 1.378 . S
C2326 C2321 1.350 . S
C2327 H2314 0.929 . S
C2327 C2319 1.433 . S
C2327 N2329 1.384 . S
N2328 C2324 1.427 . S
N2328 C2325 1.384 . S
N2329 C2321 1.427 . S
N2329 C2327 1.384 . S
H2330 C2336 0.930 . S
H2331 C2340 0.930 . S
H2332 C2345 0.929 . S
H2333 C2343 0.929 . S
H2334 C2338 0.929 . S
H2335 C2344 0.929 1_556 S
C2336 H2330 0.930 . S
C2336 C2337 1.367 . S
C2336 C2344 1.378 . S
C2337 C2336 1.367 . S
C2337 C2345 1.433 . S
C2338 H2334 0.929 . S
C2338 C2340 1.378 . S
C2338 C2342 1.350 . S
C2339 C2342 1.463 . S
C2339 C2344 1.350 . S
C2339 N2347 1.427 . S
C2340 H2331 0.930 . S
C2340 C2338 1.378 . S
C2340 C2341 1.367 . S
C2341 C2340 1.367 . S
C2341 C2343 1.433 1_554 S
C2342 C2338 1.350 . S
C2342 C2339 1.463 . S
C2342 N2346 1.427 . S
C2343 H2333 0.929 . S
C2343 C2341 1.433 1_556 S
C2343 N2346 1.384 1_556 S
C2344 H2335 0.929 1_554 S
C2344 C2336 1.378 . S
C2344 C2339 1.350 . S
C2345 H2332 0.929 . S
C2345 C2337 1.433 . S
C2345 N2347 1.384 . S
N2346 C2342 1.427 . S
N2346 C2343 1.384 1_554 S
N2347 C2339 1.427 . S
N2347 C2345 1.384 . S
H2348 C2354 0.930 . S
H2349 C2358 0.930 . S
H2350 C2363 0.929 . S
H2351 C2361 0.929 . S
H2352 C2356 0.929 . S
H2353 C2362 0.929 . S
C2354 H2348 0.930 . S
C2354 C2355 1.367 . S
C2354 C2362 1.378 . S
C2355 C2354 1.367 . S
C2355 C2363 1.433 . S
C2356 H2352 0.929 . S
C2356 C2358 1.378 . S
C2356 C2360 1.350 . S
C2357 C2360 1.463 . S
C2357 C2362 1.350 . S
C2357 N2365 1.427 . S
C2358 H2349 0.930 . S
C2358 C2356 1.378 . S
C2358 C2359 1.367 . S
C2359 C2358 1.367 . S
C2359 C2361 1.433 . S
C2360 C2356 1.350 . S
C2360 C2357 1.463 . S
C2360 N2364 1.427 . S
C2361 H2351 0.929 . S
C2361 C2359 1.433 . S
C2361 N2364 1.384 . S
C2362 H2353 0.929 . S
C2362 C2354 1.378 . S
C2362 C2357 1.350 . S
C2363 H2350 0.929 . S
C2363 C2355 1.433 . S
C2363 N2365 1.384 . S
N2364 C2360 1.427 . S
N2364 C2361 1.384 . S
N2365 C2357 1.427 . S
N2365 C2363 1.384 . S
H2366 C2372 0.930 . S
H2367 C2376 0.930 . S
H2368 C2381 0.929 . S
H2369 C2379 0.929 . S
H2370 C2374 0.929 . S
H2371 C2380 0.929 . S
C2372 H2366 0.930 . S
C2372 C2373 1.367 . S
C2372 C2380 1.378 . S
C2373 C2372 1.367 . S
C2373 C2381 1.433 . S
C2374 H2370 0.929 . S
C2374 C2376 1.378 . S
C2374 C2378 1.350 . S
C2375 C2378 1.463 . S
C2375 C2380 1.350 . S
C2375 N2383 1.427 . S
C2376 H2367 0.930 . S
C2376 C2374 1.378 . S
C2376 C2377 1.367 . S
C2377 C2376 1.367 . S
C2377 C2379 1.433 . S
C2378 C2374 1.350 . S
C2378 C2375 1.463 . S
C2378 N2382 1.427 . S
C2379 H2369 0.929 . S
C2379 C2377 1.433 . S
C2379 N2382 1.384 . S
C2380 H2371 0.929 . S
C2380 C2372 1.378 . S
C2380 C2375 1.350 . S
C2381 H2368 0.929 . S
C2381 C2373 1.433 . S
C2381 N2383 1.384 . S
N2382 C2378 1.427 . S
N2382 C2379 1.384 . S
N2383 C2375 1.427 . S
N2383 C2381 1.384 . S
C663 C105 1.449 . S
C667 C340 1.281 . S
C681 C65 1.531 . S
C685 C375 1.483 . S
C699 C73 1.125 . S
C703 C380 1.025 . S
C721 C405 1.386 . S
C717 C92 1.463 . S
C735 C17 1.516 . S
C739 C425 1.423 . S
C757 C440 1.032 . S
C753 C37 1.111 . S
C775 C475 1.514 . S
C771 C49 1.492 . S
C789 C8 1.415 . S
C793 C480 1.244 . S
C811 C355 1.543 1_655 S
C807 C231 1.568 . S
C825 C241 1.034 . S
C829 C365 0.988 . S
C847 C395 1.449 . S
C843 C273 1.416 . S
C865 C400 1.121 . S
C861 C171 1.188 1_556 S
C879 C227 1.211 . S
C883 C420 1.122 . S
C901 C455 1.428 . S
C897 C245 1.427 . S
C919 C465 0.978 . S
C915 C269 1.046 . S
C937 C495 1.530 . S
C933 C175 1.557 . S
C955 C345 1.330 . S
C951 C162 1.461 . S
C969 C289 1.773 . S
C973 C515 1.734 . S
C991 C525 1.423 . S
C987 C330 1.540 . S
C1009 C540 0.988 . S
C1005 C317 1.082 . S
C1023 C120 1.423 . S
C1027 C485 1.294 . S
C1041 C134 1.563 . S
C1045 C385 1.449 . S
C1059 C331 1.733 . S
C1063 C575 1.693 . S
C1081 C580 0.955 . S
C1077 C303 1.047 . S
C1099 C338 1.297 . S
C1095 C59 1.466 . S
C1117 C594 1.530 . S
C1113 C107 1.556 . S
C1131 C91 1.118 . S
C1135 C378 1.049 . S
C1149 C78 1.493 . S
C1153 C568 1.420 . S
C1171 C428 1.477 . S
C1167 C7 1.521 . S
C1185 C51 1.135 . S
C1189 C518 1.025 . S
C1207 C474 1.526 1_556 S
C1203 C31 1.581 . S
C1225 C598 1.236 . S
C1221 C22 1.405 . S
C1243 C354 1.564 . S
C1239 C143 1.634 . S
C1261 C588 1.025 . S
C1257 C315 1.048 . S
C1275 C115 1.498 . S
C1279 C394 1.452 . S
C1293 C287 1.226 . S
C1297 C558 1.159 . S
C1311 C147 1.214 . S
C1315 C418 1.153 . S
C1333 C534 1.455 . S
C1329 C311 1.500 . S
C1347 C119 1.033 . S
C1351 C468 1.011 . S
C1365 C283 1.626 . S
C1369 C614 1.562 . S
C1383 C190 1.450 . S
C1387 C348 1.322 . S
C1401 C177 1.794 . S
C1405 C514 1.777 . S
C1419 C260 1.552 . S
C1423 C448 1.452 . S
C1437 C247 1.112 . S
C1441 C538 1.027 . S
C1459 C608 1.295 . S
C1455 C274 1.418 . S
C1473 C218 1.575 . S
C1477 C388 1.474 . S
C1495 C414 1.732 . S
C1491 C261 1.759 . S
C1513 C358 1.003 . S
C1509 C205 1.080 . S
C1527 C77 1.434 . S
C1531 C620 1.280 . S
C1549 C595 1.483 . S
C1545 C93 1.531 . S
C1563 C101 1.125 . S
C1567 C640 1.044 1_556 S
C1581 C64 1.462 . S
C1585 C565 1.372 . S
C1599 C45 1.514 . S
C1603 C505 1.438 . S
C1621 C520 1.032 . S
C1617 C9 1.110 . S
C1639 C555 1.512 . S
C1635 C21 1.490 . S
C1657 C600 1.240 . S
C1653 C36 1.415 . S
C1675 C635 1.541 . S
C1671 C259 1.572 . S
C1689 C185 1.036 . S
C1693 C585 0.992 . S
C1711 C655 1.423 . S
C1707 C203 1.417 . S
C1729 C560 1.122 . S
C1725 C213 1.226 . S
C1747 C500 1.107 . S
C1743 C255 1.211 . S
C1761 C189 1.412 . S
C1765 C535 1.434 . S
C1783 C545 0.974 . S
C1779 C199 1.045 . S
C1797 C217 1.557 . S
C1801 C615 1.528 . S
C1819 C625 1.316 . S
C1815 C316 1.455 . S
C1833 C135 1.769 . S
C1837 C435 1.745 . S
C1855 C445 1.420 . S
C1851 C148 1.539 . S
C1873 C460 0.980 . S
C1869 C163 1.078 . S
C1891 C605 1.294 . S
C1887 C302 1.423 . S
C1905 C288 1.568 . S
C1909 C645 1.445 . S
C1927 C415 1.700 . S
C1923 C149 1.728 . S
C1945 C360 0.983 . S
C1941 C121 1.052 . S
C1959 C87 1.469 . S
C1963 C618 1.303 . S
C1981 C374 1.532 . S
C1977 C79 1.554 . S
C1995 C63 1.131 . S
C1999 C638 1.072 . S
C2013 C106 1.490 . S
C2017 C408 1.410 . S
C2031 C35 1.514 . S
C2035 C508 1.465 . S
C2053 C438 1.029 . S
C2049 C23 1.134 . S
C2067 C3 1.582 . S
C2071 C554 1.536 . S
C2085 C50 1.407 . S
C2089 C478 1.241 . S
C2107 C634 1.554 . S
C2103 C325 1.632 . S
C2121 C161 1.036 . S
C2125 C368 1.007 . S
C2143 C654 1.455 1_655 S
C2139 C297 1.497 . S
C2157 C133 1.212 . S
C2161 C398 1.141 . S
C2175 C329 1.211 . S
C2179 C498 1.148 . S
C2197 C454 1.465 . S
C2193 C157 1.497 . S
C2211 C301 1.040 . S
C2215 C548 1.011 . S
C2233 C494 1.545 . S
C2229 C129 1.624 . S
C2251 C628 1.330 . S
C2247 C246 1.452 . S
C2269 C434 1.772 . S
C2265 C219 1.799 . S
C2283 C232 1.549 . S
C2287 C528 1.450 . S
C2305 C458 1.039 . S
C2301 C191 1.107 . S
C2319 C204 1.421 . S
C2323 C488 1.309 . S
C2337 C176 1.575 . S
C2341 C648 1.479 . S
C2359 C574 1.738 . S
C2355 C233 1.754 . S
C2377 C578 0.981 . S
C2373 C275 1.075 . S
