# Generated by pormake.
# Topology sit, (3,6)-cn, num edge types: 1
# Building blocks:
#     Node 0, Type 0, BuildingBlock: WUSLED_clean_sbu_0, # of connection points: 3
#     Node 1, Type 0, BuildingBlock: WUSLED_clean_sbu_0, # of connection points: 3
#     Node 2, Type 0, BuildingBlock: WUSLED_clean_sbu_0, # of connection points: 3
#     Node 3, Type 0, BuildingBlock: WUSLED_clean_sbu_0, # of connection points: 3
#     Node 4, Type 1, BuildingBlock: MIDCAF_clean_sbu_0, # of connection points: 6
#     Node 5, Type 1, BuildingBlock: MIDCAF_clean_sbu_0, # of connection points: 6
#     Edge 6, Type (0, 1), BuildingBlock: ZUJKAS_clean_linker_0, # of connection points: 2
#     Edge 7, Type (0, 1), BuildingBlock: ZUJKAS_clean_linker_0, # of connection points: 2
#     Edge 8, Type (0, 1), BuildingBlock: ZUJKAS_clean_linker_0, # of connection points: 2
#     Edge 9, Type (0, 1), BuildingBlock: ZUJKAS_clean_linker_0, # of connection points: 2
#     Edge 10, Type (0, 1), BuildingBlock: ZUJKAS_clean_linker_0, # of connection points: 2
#     Edge 11, Type (0, 1), BuildingBlock: ZUJKAS_clean_linker_0, # of connection points: 2
#     Edge 12, Type (0, 1), BuildingBlock: ZUJKAS_clean_linker_0, # of connection points: 2
#     Edge 13, Type (0, 1), BuildingBlock: ZUJKAS_clean_linker_0, # of connection points: 2
#     Edge 14, Type (0, 1), BuildingBlock: ZUJKAS_clean_linker_0, # of connection points: 2
#     Edge 15, Type (0, 1), BuildingBlock: ZUJKAS_clean_linker_0, # of connection points: 2
#     Edge 16, Type (0, 1), BuildingBlock: ZUJKAS_clean_linker_0, # of connection points: 2
#     Edge 17, Type (0, 1), BuildingBlock: ZUJKAS_clean_linker_0, # of connection points: 2
# Relax obj value: 0.107
# Max RMSD: 0.192
# Mean RMSD: 0.103
data_MOF--net-sit--node1-WUSLED_clean_sbu_0--node2-MIDCAF_clean_sbu_0--edge1-ZUJKAS_clean_linker_0
_symmetry_space_group_name_H-M    P1
_symmetry_Int_Tables_number       1
_symmetry_cell_setting            triclinic
loop_
_symmetry_equiv_pos_as_xyz
'x, y, z'
_cell_length_a     36.879629
_cell_length_b     50.433895
_cell_length_c     56.428527
_cell_angle_alpha  90.095473
_cell_angle_beta   88.961399
_cell_angle_gamma 84.466142
loop_
_atom_site_label
_atom_site_type_symbol
_atom_site_fract_x
_atom_site_fract_y
_atom_site_fract_z
_atom_type_partial_charge
C0 C 0.98033 0.34401 0.03493 0.0
C1 C 0.98851 0.36624 0.02165 0.0
C2 C 0.92383 0.3787 0.01569 0.0
C3 C 0.96051 0.38347 0.01215 0.0
C4 C 0.91585 0.35655 0.02932 0.0
C5 C 0.94389 0.33937 0.03885 0.0
U6 U 0.08087 0.32161 0.03902 0.0
O7 O 0.11404 0.30601 0.06889 0.0
O8 O 0.11046 0.28166 0.03691 0.0
C9 C 0.12201 0.28263 0.05877 0.0
C10 C 0.0097 0.32521 0.04406 0.0
C11 C 0.11604 0.25941 0.0736 0.0
C12 C 0.07589 0.22934 0.09162 0.0
C13 C 0.08099 0.25146 0.0774 0.0
C14 C 0.14082 0.22293 0.09836 0.0
C15 C 0.10576 0.2148 0.10233 0.0
C16 C 0.14587 0.245 0.08412 0.0
C17 C 0.14628 0.36432 0.00484 0.0
C18 C 0.20684 0.37775 0.01198 0.0
C19 C 0.18515 0.37565 0.97184 0.0
C20 C 0.15231 0.36743 0.98043 0.0
C21 C 0.21269 0.38115 0.98751 0.0
C22 C 0.17398 0.36935 0.02058 0.0
C23 C 0.11012 0.35759 0.01327 0.0
O24 O 0.02768 0.3102 0.02787 0.0
O25 O 0.03109 0.33523 0.05941 0.0
O26 O 0.10252 0.3606 0.03604 0.0
O27 O 0.09863 0.33593 0.00424 0.0
H28 H 0.01658 0.37003 0.01835 0.0
H29 H 0.96765 0.40011 0.0015 0.0
H30 H 0.88791 0.35249 0.03262 0.0
H31 H 0.93711 0.32231 0.04908 0.0
H32 H 0.04857 0.22351 0.09407 0.0
H33 H 0.05761 0.26236 0.06937 0.0
H34 H 0.16437 0.21255 0.10661 0.0
H35 H 0.17312 0.25092 0.08143 0.0
H36 H 0.22768 0.38159 0.02448 0.0
H37 H 0.18857 0.37841 0.95293 0.0
H38 H 0.13124 0.36395 0.96796 0.0
H39 H 0.17015 0.36715 0.03952 0.0
C40 C 0.93756 0.70792 0.02752 0.0
C41 C 0.95195 0.68422 0.01638 0.0
C42 C 0.89133 0.67501 0.00453 0.0
C43 C 0.92911 0.66792 0.00504 0.0
C44 C 0.87692 0.69871 0.01594 0.0
C45 C 0.89991 0.71505 0.02735 0.0
U46 U 0.03358 0.72227 0.03435 0.0
O47 O 0.06103 0.75907 0.03287 0.0
O48 O 0.06565 0.73383 0.06457 0.0
C49 C 0.07282 0.75637 0.05467 0.0
C50 C 0.96247 0.72549 0.03813 0.0
C51 C 0.06702 0.7802 0.06989 0.0
C52 C 0.02809 0.81716 0.08723 0.0
C53 C 0.03261 0.79449 0.07265 0.0
C54 C 0.09225 0.8113 0.09645 0.0
C55 C 0.05791 0.82587 0.09932 0.0
C56 C 0.09671 0.78876 0.08187 0.0
C57 C 0.09979 0.67035 0.99954 0.0
C58 C 0.16025 0.64794 0.00581 0.0
C59 C 0.13522 0.65004 0.96639 0.0
C60 C 0.10362 0.66434 0.9753 0.0
C61 C 0.16369 0.64128 0.98157 0.0
C62 C 0.12855 0.66233 0.01473 0.0
C63 C 0.06427 0.68268 0.00848 0.0
O64 O 0.98404 0.71415 0.05427 0.0
O65 O 0.97973 0.73943 0.02268 0.0
O66 O 0.05272 0.70598 0.99959 0.0
O67 O 0.05717 0.68069 0.03129 0.0
H68 H 0.98104 0.67852 0.01611 0.0
H69 H 0.94121 0.6501 0.99612 0.0
H70 H 0.8479 0.70462 0.01604 0.0
H71 H 0.88837 0.73334 0.03578 0.0
H72 H 0.00133 0.82796 0.08888 0.0
H73 H 0.00932 0.78814 0.06352 0.0
H74 H 0.11567 0.81699 0.10583 0.0
H75 H 0.12344 0.7779 0.08004 0.0
H76 H 0.18159 0.64137 0.018 0.0
H77 H 0.13725 0.64575 0.94758 0.0
H78 H 0.08172 0.67022 0.96328 0.0
H79 H 0.12624 0.6666 0.03355 0.0
C80 C 0.47553 0.85424 0.54335 0.0
C81 C 0.48479 0.8777 0.53242 0.0
C82 C 0.42107 0.89029 0.5236 0.0
C83 C 0.45782 0.89559 0.5227 0.0
C84 C 0.41187 0.867 0.53508 0.0
C85 C 0.43891 0.84912 0.54485 0.0
U86 U 0.57473 0.82978 0.54308 0.0
O87 O 0.61149 0.81345 0.57091 0.0
O88 O 0.60329 0.78962 0.53922 0.0
C89 C 0.61752 0.79011 0.5604 0.0
C90 C 0.50433 0.83441 0.55165 0.0
C91 C 0.61238 0.76691 0.57545 0.0
C92 C 0.57293 0.73859 0.5965 0.0
C93 C 0.57736 0.76058 0.58199 0.0
C94 C 0.63848 0.72898 0.59803 0.0
C95 C 0.60345 0.72254 0.60479 0.0
C96 C 0.64285 0.75095 0.5835 0.0
C97 C 0.63355 0.87422 0.50486 0.0
C98 C 0.6992 0.87587 0.50378 0.0
C99 C 0.66183 0.89918 0.47405 0.0
C100 C 0.63076 0.89029 0.48464 0.0
C101 C 0.69644 0.89215 0.48348 0.0
C102 C 0.66796 0.86691 0.51437 0.0
C103 C 0.59981 0.86631 0.51583 0.0
O104 O 0.51995 0.81897 0.53487 0.0
O105 O 0.52783 0.84358 0.56608 0.0
O106 O 0.59665 0.86856 0.53901 0.0
O107 O 0.58779 0.8445 0.50752 0.0
H108 H 0.513 0.88192 0.53099 0.0
H109 H 0.46582 0.91345 0.51425 0.0
H110 H 0.38392 0.8621 0.53579 0.0
H111 H 0.43134 0.83098 0.55303 0.0
H112 H 0.54557 0.73407 0.6011 0.0
H113 H 0.55349 0.77268 0.57588 0.0
H114 H 0.66259 0.71736 0.60434 0.0
H115 H 0.67009 0.75559 0.57868 0.0
H116 H 0.72551 0.86989 0.51132 0.0
H117 H 0.65862 0.91198 0.45869 0.0
H118 H 0.60437 0.89624 0.47715 0.0
H119 H 0.67061 0.85446 0.52999 0.0
C120 C 0.43791 0.20431 0.52997 0.0
C121 C 0.45035 0.17946 0.52009 0.0
C122 C 0.38959 0.17411 0.50577 0.0
C123 C 0.4264 0.16445 0.50818 0.0
C124 C 0.37722 0.199 0.51585 0.0
C125 C 0.40122 0.21396 0.52786 0.0
U126 U 0.53498 0.21527 0.5423 0.0
O127 O 0.56405 0.25135 0.54234 0.0
O128 O 0.56246 0.22696 0.57451 0.0
C129 C 0.57183 0.24913 0.56496 0.0
C130 C 0.46361 0.2205 0.54158 0.0
C131 C 0.56543 0.27347 0.57978 0.0
C132 C 0.54374 0.32035 0.5852 0.0
C133 C 0.54651 0.29707 0.5714 0.0
C134 C 0.57788 0.29666 0.61614 0.0
C135 C 0.55986 0.32053 0.60763 0.0
C136 C 0.58074 0.27349 0.60234 0.0
C137 C 0.60644 0.16259 0.5133 0.0
C138 C 0.65714 0.1291 0.52072 0.0
C139 C 0.65686 0.15535 0.48485 0.0
C140 C 0.6235 0.16882 0.49182 0.0
C141 C 0.67393 0.13513 0.49908 0.0
C142 C 0.62372 0.14263 0.52772 0.0
C143 C 0.5691 0.1747 0.51916 0.0
O144 O 0.48219 0.2086 0.55888 0.0
O145 O 0.48396 0.2332 0.52694 0.0
O146 O 0.5588 0.1977 0.50921 0.0
O147 O 0.5578 0.17329 0.54132 0.0
H148 H 0.47873 0.1718 0.52135 0.0
H149 H 0.43693 0.14558 0.50035 0.0
H150 H 0.34896 0.20687 0.51452 0.0
H151 H 0.3912 0.23314 0.53532 0.0
H152 H 0.52986 0.33838 0.57801 0.0
H153 H 0.53446 0.29773 0.55403 0.0
H154 H 0.58997 0.29584 0.6335 0.0
H155 H 0.59551 0.25561 0.60921 0.0
H156 H 0.66971 0.11379 0.53218 0.0
H157 H 0.66868 0.16019 0.46787 0.0
H158 H 0.61062 0.18365 0.48001 0.0
H159 H 0.61109 0.13702 0.54421 0.0
Zn160 Zn 0.04889 0.07256 0.35051 0.0
Zn161 Zn 0.08675 0.96776 0.3481 0.0
Zn162 Zn 0.06802 0.02019 0.34833 0.0
C163 C 0.08081 0.98423 0.30069 0.0
C164 C 0.0181 0.97642 0.37039 0.0
O165 O 0.1114 0.0386 0.36727 0.0
O166 O 0.09134 0.08139 0.3694 0.0
C167 C 0.05861 0.0586 0.30235 0.0
O168 O 0.07187 1.0071 0.31052 0.0
O169 O 0.08938 0.96398 0.31324 0.0
O170 O 0.0425 0.95777 0.36556 0.0
O171 O 0.02304 1.00071 0.36517 0.0
O172 O 0.04944 0.0782 0.31584 0.0
O173 O 0.06673 0.03523 0.31117 0.0
O174 O 0.01517 0.02841 0.36812 0.0
O175 O 0.00124 0.07208 0.3669 0.0
C176 C 0.99362 0.04934 0.37344 0.0
O177 O 0.1193 1.01077 0.3685 0.0
O178 O 0.13279 0.96716 0.36524 0.0
C179 C 0.11539 0.06261 0.37394 0.0
C180 C 0.14018 0.98942 0.37302 0.0
Zn181 Zn 0.55821 0.57294 0.85205 0.0
Zn182 Zn 0.58829 0.46766 0.84417 0.0
Zn183 Zn 0.57168 0.52053 0.84739 0.0
C184 C 0.58427 0.48695 0.79794 0.0
C185 C 0.52018 0.47737 0.86814 0.0
O186 O 0.61704 0.53654 0.86676 0.0
O187 O 0.60231 0.58006 0.86948 0.0
C188 C 0.56287 0.56102 0.80313 0.0
O189 O 0.57517 0.50906 0.80905 0.0
O190 O 0.5929 0.46583 0.80931 0.0
O191 O 0.54191 0.4586 0.8598 0.0
O192 O 0.52691 0.5018 0.86533 0.0
O193 O 0.55567 0.58012 0.81751 0.0
O194 O 0.57025 0.5371 0.81088 0.0
O195 O 0.51794 0.52965 0.86576 0.0
O196 O 0.51235 0.57348 0.87048 0.0
C197 C 0.49995 0.55126 0.87345 0.0
O198 O 0.62199 0.50864 0.8675 0.0
O199 O 0.63346 0.46499 0.86288 0.0
C200 C 0.62417 0.55986 0.87364 0.0
C201 C 0.64161 0.48661 0.87167 0.0
H202 H 0.14879 0.16735 0.10573 0.0
H203 H 0.14169 0.13079 0.13342 0.0
H204 H 0.04378 0.17339 0.16229 0.0
H205 H 0.05086 0.21008 0.13499 0.0
H206 H 0.14103 0.13406 0.18225 0.0
H207 H 0.01209 0.09897 0.15206 0.0
H208 H 0.03861 0.11983 0.13402 0.0
H209 H 0.00823 0.13431 0.1569 0.0
C210 C 0.12568 0.16894 0.11794 0.0
C211 C 0.10038 0.19173 0.11809 0.0
C212 C 0.12155 0.14792 0.13364 0.0
C213 C 0.09187 0.14912 0.14964 0.0
C214 C 0.06636 0.17167 0.14966 0.0
H215 H 0.01673 0.09556 0.27797 0.0
H216 H 0.02663 0.11087 0.23771 0.0
C217 C 0.07049 0.19269 0.13403 0.0
C218 C 0.08893 0.12797 0.1677 0.0
H219 H 0.02898 0.08786 0.19225 0.0
C220 C 0.11693 0.12345 0.18416 0.0
C221 C 0.05759 0.11402 0.17006 0.0
C222 C 0.02759 0.1168 0.15216 0.0
C223 C 0.11318 0.10697 0.20394 0.0
C224 C 0.0808 0.09431 0.2071 0.0
C225 C 0.0538 0.09754 0.18982 0.0
C226 C 0.072 0.08151 0.22991 0.0
C227 C 0.14278 0.10476 0.22217 0.0
C228 C 0.0933 0.05911 0.23865 0.0
C229 C 0.08765 0.05025 0.2619 0.0
C230 C 0.06066 0.0637 0.27658 0.0
C231 C 0.03795 0.08492 0.26714 0.0
C232 C 0.04349 0.09365 0.24407 0.0
H233 H 0.16375 0.11873 0.21863 0.0
H234 H 0.13098 0.10889 0.24019 0.0
H235 H 0.15648 0.08419 0.22203 0.0
H236 H 0.11513 0.04919 0.22787 0.0
H237 H 0.1057 0.03397 0.26878 0.0
H238 H 0.00096 0.84091 0.13006 0.0
H239 H 0.99655 0.87715 0.15908 0.0
H240 H 0.10105 0.89957 0.13521 0.0
H241 H 0.10482 0.86431 0.10541 0.0
H242 H 0.04052 0.87979 0.19488 0.0
H243 H 0.04653 0.9719 0.1428 0.0
H244 H 0.03743 0.94072 0.12943 0.0
H245 H 0.08357 0.94764 0.13492 0.0
C246 C 0.02252 0.85403 0.13047 0.0
C247 C 0.05337 0.84951 0.11543 0.0
C248 C 0.02004 0.8747 0.14719 0.0
C249 C 0.04824 0.89139 0.14921 0.0
C250 C 0.0785 0.88745 0.13371 0.0
H251 H 0.1294 0.9541 0.27337 0.0
H252 H 0.11897 0.93624 0.23411 0.0
C253 C 0.08091 0.86691 0.11691 0.0
C254 C 0.0483 0.91053 0.16932 0.0
H255 H 0.06441 0.97422 0.18394 0.0
C256 C 0.04501 0.90056 0.19239 0.0
C257 C 0.05391 0.93775 0.16622 0.0
C258 C 0.05516 0.95019 0.14198 0.0
C259 C 0.04903 0.91655 0.21232 0.0
C260 C 0.05719 0.94317 0.20919 0.0
C261 C 0.05863 0.95369 0.18625 0.0
C262 C 0.06692 0.95917 0.22976 0.0
C263 C 0.04562 0.90458 0.23667 0.0
C264 C 0.0421 0.97927 0.23963 0.0
C265 C 0.04828 0.98982 0.2621 0.0
C266 C 0.07915 0.98014 0.27485 0.0
C267 C 0.10534 0.96182 0.26392 0.0
C268 C 0.09939 0.95157 0.24153 0.0
H269 H 0.03093 0.88637 0.23626 0.0
H270 H 0.07325 0.89902 0.24364 0.0
H271 H 0.03105 0.91916 0.24915 0.0
H272 H 0.01688 0.98538 0.23077 0.0
H273 H 0.02758 1.00379 0.27025 0.0
H274 H 0.55421 0.71995 0.64149 0.0
H275 H 0.54833 0.68316 0.66897 0.0
H276 H 0.63652 0.63656 0.6326 0.0
H277 H 0.64236 0.67319 0.60476 0.0
H278 H 0.53572 0.62855 0.6602 0.0
H279 H 0.66942 0.63807 0.70225 0.0
H280 H 0.64765 0.66391 0.68381 0.0
H281 H 0.66966 0.63406 0.67058 0.0
C282 C 0.57206 0.70177 0.63907 0.0
C283 C 0.59889 0.69964 0.62093 0.0
C284 C 0.56874 0.68078 0.65487 0.0
C285 C 0.59225 0.65724 0.653 0.0
C286 C 0.6185 0.65472 0.63462 0.0
H287 H 0.60883 0.53853 0.76807 0.0
H288 H 0.61571 0.55543 0.72748 0.0
C289 C 0.62184 0.67572 0.61876 0.0
C290 C 0.58966 0.63585 0.67084 0.0
H291 H 0.63288 0.60707 0.71871 0.0
C292 C 0.55716 0.62357 0.6728 0.0
C293 C 0.61781 0.62913 0.68711 0.0
C294 C 0.65308 0.64202 0.68606 0.0
C295 C 0.55149 0.60558 0.69117 0.0
C296 C 0.57873 0.60013 0.7083 0.0
C297 C 0.61205 0.6112 0.70554 0.0
C298 C 0.57125 0.5866 0.731 0.0
C299 C 0.51599 0.59304 0.6924 0.0
C300 C 0.5437 0.59817 0.74625 0.0
C301 C 0.53982 0.58863 0.76922 0.0
C302 C 0.56338 0.56725 0.77754 0.0
C303 C 0.58991 0.55473 0.76198 0.0
C304 C 0.594 0.56449 0.73888 0.0
H305 H 0.50448 0.59122 0.67447 0.0
H306 H 0.51949 0.57299 0.70063 0.0
H307 H 0.49593 0.60589 0.70324 0.0
H308 H 0.52635 0.61559 0.74084 0.0
H309 H 0.5192 0.59872 0.78086 0.0
H310 H 0.6144 0.33801 0.634 0.0
H311 H 0.61192 0.37722 0.6595 0.0
H312 H 0.50148 0.39992 0.63846 0.0
H313 H 0.50316 0.35992 0.61356 0.0
H314 H 0.59937 0.43123 0.65031 0.0
H315 H 0.49132 0.3976 0.71029 0.0
H316 H 0.51507 0.37574 0.68859 0.0
H317 H 0.48027 0.40085 0.67949 0.0
C318 C 0.58938 0.35113 0.63494 0.0
C319 C 0.55876 0.34548 0.622 0.0
C320 C 0.58816 0.37376 0.64935 0.0
C321 C 0.55636 0.39135 0.65118 0.0
C322 C 0.52612 0.38639 0.63766 0.0
H323 H 0.52946 0.50676 0.76897 0.0
H324 H 0.51949 0.49123 0.72841 0.0
C325 C 0.52725 0.36362 0.62325 0.0
C326 C 0.555 0.41411 0.66809 0.0
H327 H 0.51773 0.43596 0.7213 0.0
C328 C 0.58108 0.43254 0.66564 0.0
C329 C 0.53095 0.41601 0.688 0.0
C330 C 0.50295 0.39645 0.69197 0.0
C331 C 0.58502 0.45185 0.68316 0.0
C332 C 0.56257 0.45259 0.70376 0.0
C333 C 0.53483 0.43543 0.70543 0.0
C334 C 0.57134 0.46728 0.72542 0.0
C335 C 0.61407 0.47068 0.67988 0.0
C336 C 0.60418 0.45968 0.73683 0.0
C337 C 0.60966 0.46826 0.75988 0.0
C338 C 0.58257 0.4848 0.77194 0.0
C339 C 0.55092 0.49427 0.7599 0.0
C340 C 0.54516 0.4853 0.73683 0.0
H341 H 0.6198 0.47406 0.66078 0.0
H342 H 0.60601 0.49017 0.6886 0.0
H343 H 0.63967 0.46183 0.68792 0.0
H344 H 0.62448 0.44543 0.72864 0.0
H345 H 0.63415 0.46054 0.76887 0.0
H346 H 0.25363 0.36321 0.94882 0.0
H347 H 0.30752 0.38141 0.93204 0.0
H348 H 0.30317 0.43962 0.98832 0.0
H349 H 0.24866 0.42183 0.00501 0.0
H350 H 0.31063 0.46099 0.94227 0.0
H351 H 0.41213 0.37442 0.95682 0.0
H352 H 0.37187 0.36595 0.94231 0.0
H353 H 0.36857 0.37844 0.97222 0.0
C354 C 0.26417 0.37985 0.95767 0.0
C355 C 0.24688 0.39106 0.97826 0.0
C356 C 0.29517 0.39006 0.94818 0.0
C357 C 0.30961 0.41164 0.95911 0.0
C358 C 0.2926 0.42282 0.97974 0.0
H359 H 0.48993 0.50096 0.90849 0.0
H360 H 0.4383 0.48723 0.93199 0.0
C361 C 0.26163 0.41252 0.98932 0.0
C362 C 0.34141 0.4232 0.94824 0.0
H363 H 0.42936 0.40733 0.92953 0.0
C364 C 0.3368 0.44944 0.93976 0.0
C365 C 0.37546 0.40806 0.94503 0.0
C366 C 0.38252 0.38024 0.95477 0.0
C367 C 0.36486 0.46052 0.92715 0.0
C368 C 0.39851 0.44505 0.92324 0.0
C369 C 0.40346 0.41912 0.93242 0.0
C370 C 0.42837 0.45472 0.9086 0.0
C371 C 0.35772 0.48812 0.91704 0.0
C372 C 0.44018 0.44088 0.88784 0.0
C373 C 0.4695 0.44872 0.87447 0.0
C374 C 0.48752 0.47064 0.88151 0.0
C375 C 0.47573 0.48454 0.90228 0.0
C376 C 0.44634 0.47666 0.91573 0.0
H377 H 0.32867 0.49612 0.91896 0.0
H378 H 0.3745 0.50178 0.92639 0.0
H379 H 0.36565 0.48797 0.89797 0.0
H380 H 0.42685 0.42382 0.88209 0.0
H381 H 0.47827 0.4375 0.85865 0.0
H382 H 0.89427 0.62046 0.00343 0.0
H383 H 0.85711 0.5928 0.98003 0.0
H384 H 0.79671 0.66352 0.95316 0.0
H385 H 0.83442 0.6913 0.97585 0.0
H386 H 0.78323 0.58954 0.98152 0.0
H387 H 0.82614 0.62203 0.89265 0.0
H388 H 0.85065 0.62856 0.91912 0.0
H389 H 0.81052 0.64973 0.91137 0.0
C390 C 0.87331 0.63013 0.99235 0.0
C391 C 0.86747 0.65812 0.99141 0.0
C392 C 0.85202 0.61428 0.97907 0.0
C393 C 0.82468 0.6261 0.96446 0.0
C394 C 0.81825 0.65399 0.96387 0.0
H395 H 0.6265 0.5905 0.91258 0.0
H396 H 0.67988 0.59992 0.93491 0.0
C397 C 0.83948 0.66984 0.97714 0.0
C398 C 0.80183 0.60942 0.95046 0.0
H399 H 0.76951 0.60171 0.89479 0.0
C400 C 0.78071 0.59184 0.9625 0.0
C401 C 0.7992 0.61187 0.92554 0.0
C402 C 0.82315 0.62885 0.91138 0.0
C403 C 0.75503 0.57824 0.95052 0.0
C404 C 0.75011 0.58262 0.92601 0.0
C405 C 0.7731 0.59859 0.91365 0.0
C406 C 0.71803 0.57415 0.91371 0.0
C407 C 0.73256 0.55986 0.96423 0.0
C408 C 0.72184 0.55663 0.89424 0.0
C409 C 0.69116 0.55114 0.88143 0.0
C410 C 0.65654 0.56343 0.8878 0.0
C411 C 0.65292 0.58073 0.90738 0.0
C412 C 0.68331 0.58594 0.92026 0.0
H413 H 0.74587 0.55314 0.98098 0.0
H414 H 0.7056 0.57051 0.9688 0.0
H415 H 0.72805 0.54213 0.95341 0.0
H416 H 0.74852 0.54759 0.88876 0.0
H417 H 0.69458 0.53795 0.86621 0.0
H418 H 0.91693 0.43329 0.0119 0.0
H419 H 0.8688 0.4615 0.99209 0.0
H420 H 0.81609 0.39171 0.97391 0.0
H421 H 0.86384 0.36352 0.99357 0.0
H422 H 0.84937 0.46189 0.94595 0.0
H423 H 0.73177 0.43961 0.00179 0.0
H424 H 0.77826 0.43134 0.01072 0.0
H425 H 0.75673 0.40951 0.99124 0.0
C426 C 0.89501 0.42398 0.00373 0.0
C427 C 0.8941 0.39614 0.00448 0.0
C428 C 0.86745 0.44014 0.99252 0.0
C429 C 0.83841 0.42879 0.98195 0.0
C430 C 0.83759 0.40102 0.98258 0.0
H431 H 0.70757 0.459 0.86499 0.0
H432 H 0.7567 0.45217 0.89347 0.0
C433 C 0.86498 0.3849 0.99381 0.0
C434 C 0.80996 0.44552 0.96898 0.0
H435 H 0.71789 0.45512 0.96202 0.0
C436 C 0.82061 0.46084 0.94975 0.0
C437 C 0.7724 0.44482 0.97426 0.0
C438 C 0.75913 0.43067 0.99581 0.0
C439 C 0.79471 0.47364 0.93459 0.0
C440 C 0.75736 0.47058 0.9385 0.0
C441 C 0.74659 0.45712 0.9588 0.0
C442 C 0.72967 0.47809 0.92035 0.0
C443 C 0.80756 0.48978 0.91415 0.0
C444 C 0.69802 0.49486 0.92599 0.0
C445 C 0.66995 0.49889 0.90961 0.0
C446 C 0.67297 0.48586 0.88754 0.0
C447 C 0.70485 0.46949 0.8818 0.0
C448 C 0.73301 0.46575 0.89799 0.0
H449 H 0.83395 0.49762 0.91805 0.0
H450 H 0.81169 0.47686 0.89821 0.0
H451 H 0.7872 0.50675 0.91001 0.0
H452 H 0.69456 0.50413 0.9433 0.0
H453 H 0.64528 0.51121 0.91457 0.0
H454 H 0.16661 0.60091 0.94886 0.0
H455 H 0.22081 0.57586 0.93156 0.0
H456 H 0.28911 0.61945 0.97548 0.0
H457 H 0.23512 0.64483 0.99266 0.0
H458 H 0.27597 0.59763 0.90655 0.0
H459 H 0.33146 0.542 0.98437 0.0
H460 H 0.28512 0.55725 0.98356 0.0
H461 H 0.3218 0.57699 0.9902 0.0
C462 C 0.19317 0.60519 0.95485 0.0
C463 C 0.19654 0.625 0.97207 0.0
C464 C 0.22407 0.59069 0.94507 0.0
C465 C 0.25892 0.59551 0.95249 0.0
C466 C 0.26241 0.61495 0.96992 0.0
H467 H 0.47925 0.57802 0.91351 0.0
H468 H 0.41878 0.583 0.93225 0.0
C469 C 0.23152 0.6295 0.97969 0.0
C470 C 0.29179 0.5819 0.94066 0.0
H471 H 0.37343 0.5468 0.95183 0.0
C472 C 0.29702 0.58603 0.9163 0.0
C473 C 0.31902 0.56664 0.95343 0.0
C474 C 0.31396 0.5602 0.97929 0.0
C475 C 0.32986 0.57691 0.90469 0.0
C476 C 0.35791 0.56292 0.91777 0.0
C477 C 0.35189 0.55756 0.94185 0.0
C478 C 0.39513 0.55691 0.90763 0.0
C479 C 0.33511 0.58382 0.87891 0.0
C480 C 0.40215 0.53999 0.8879 0.0
C481 C 0.43694 0.53692 0.87727 0.0
C482 C 0.46489 0.55088 0.8862 0.0
C483 C 0.45806 0.56703 0.90636 0.0
C484 C 0.4236 0.56983 0.91709 0.0
H485 H 0.31306 0.5985 0.87252 0.0
H486 H 0.36164 0.59212 0.876 0.0
H487 H 0.3352 0.5655 0.86799 0.0
H488 H 0.38056 0.52978 0.88037 0.0
H489 H 0.44162 0.52453 0.86161 0.0
H490 H 0.75483 0.91129 0.50502 0.0
H491 H 0.80826 0.92804 0.48591 0.0
H492 H 0.76523 0.91263 0.41723 0.0
H493 H 0.71242 0.89514 0.43612 0.0
H494 H 0.83743 0.8935 0.42177 0.0
H495 H 0.815 0.99907 0.45132 0.0
H496 H 0.81358 0.97486 0.47452 0.0
H497 H 0.77934 0.97691 0.45218 0.0
C498 C 0.75687 0.91132 0.48585 0.0
C499 C 0.72928 0.90197 0.4721 0.0
C500 C 0.78715 0.92125 0.47497 0.0
C501 C 0.79034 0.92208 0.45015 0.0
C502 C 0.76309 0.91247 0.43641 0.0
H503 H 0.94848 0.99802 0.36261 0.0
H504 H 0.89232 0.98607 0.38229 0.0
C505 C 0.73286 0.90257 0.44724 0.0
C506 C 0.82293 0.9316 0.43839 0.0
H507 H 0.87134 0.9857 0.43174 0.0
C508 C 0.84478 0.91368 0.42391 0.0
C509 C 0.83217 0.95804 0.44096 0.0
C510 C 0.80868 0.97847 0.4554 0.0
C511 C 0.87601 0.92128 0.41226 0.0
C512 C 0.88601 0.94741 0.41548 0.0
C513 C 0.86377 0.96559 0.42953 0.0
C514 C 0.91984 0.9559 0.4046 0.0
C515 C 0.89788 0.90132 0.3964 0.0
C516 C 0.9538 0.94324 0.41095 0.0
C517 C 0.98569 0.95007 0.39984 0.0
C518 C 0.98424 0.96998 0.38244 0.0
C519 C 0.9503 0.9829 0.37626 0.0
C520 C 0.9183 0.97606 0.38741 0.0
H521 H 0.88167 0.88494 0.39096 0.0
H522 H 0.90783 0.91105 0.38022 0.0
H523 H 0.9219 0.89236 0.40612 0.0
H524 H 0.95559 0.92789 0.4244 0.0
H525 H 0.01156 0.93985 0.40493 0.0
H526 H 0.38408 0.12027 0.50717 0.0
H527 H 0.34356 0.0947 0.48421 0.0
H528 H 0.29746 0.16713 0.45144 0.0
H529 H 0.33831 0.19271 0.47387 0.0
H530 H 0.26707 0.10012 0.48397 0.0
H531 H 0.32469 0.11747 0.39466 0.0
H532 H 0.34862 0.12334 0.42153 0.0
H533 H 0.31362 0.14769 0.41121 0.0
C534 C 0.36556 0.13071 0.49489 0.0
C535 C 0.3645 0.15854 0.4923 0.0
C536 C 0.34236 0.11608 0.48187 0.0
C537 C 0.31796 0.12896 0.46584 0.0
C538 C 0.31658 0.15673 0.46338 0.0
H539 H 0.11572 0.09776 0.41014 0.0
H540 H 0.16772 0.10917 0.43293 0.0
C541 C 0.33963 0.17137 0.47644 0.0
C542 C 0.29285 0.11367 0.45227 0.0
H543 H 0.26488 0.10242 0.3961 0.0
C544 C 0.26691 0.10028 0.46475 0.0
C545 C 0.29313 0.11341 0.42719 0.0
C546 C 0.32175 0.12601 0.41283 0.0
C547 C 0.23977 0.08811 0.45284 0.0
C548 C 0.23839 0.08963 0.42782 0.0
C549 C 0.26574 0.10151 0.41529 0.0
C550 C 0.20698 0.08138 0.41455 0.0
C551 C 0.21237 0.07426 0.46722 0.0
C552 C 0.21192 0.06243 0.39621 0.0
C553 C 0.18213 0.05605 0.38296 0.0
C554 C 0.1471 0.06854 0.38791 0.0
C555 C 0.1424 0.08767 0.40609 0.0
C556 C 0.17202 0.094 0.41928 0.0
H557 H 0.22432 0.06633 0.48401 0.0
H558 H 0.18882 0.08883 0.4719 0.0
H559 H 0.20219 0.05762 0.4572 0.0
H560 H 0.23877 0.05269 0.3921 0.0
H561 H 0.18654 0.04166 0.36869 0.0
H562 H 0.3513 0.9064 0.53897 0.0
H563 H 0.30328 0.93201 0.51687 0.0
H564 H 0.37869 0.94008 0.45866 0.0
H565 H 0.42668 0.91435 0.48042 0.0
H566 H 0.32949 0.98776 0.4692 0.0
H567 H 0.25975 0.89528 0.45945 0.0
H568 H 0.26914 0.90475 0.48928 0.0
H569 H 0.30618 0.89471 0.46911 0.0
C570 C 0.35771 0.91373 0.52151 0.0
C571 C 0.39278 0.9081 0.51139 0.0
C572 C 0.33031 0.92848 0.50897 0.0
C573 C 0.33741 0.93774 0.48607 0.0
C574 C 0.37273 0.93323 0.47637 0.0
H575 H 0.20677 0.96341 0.3655 0.0
H576 H 0.25571 0.956 0.39409 0.0
C577 C 0.40014 0.91852 0.48887 0.0
C578 C 0.30743 0.94977 0.47125 0.0
H579 H 0.23261 0.93398 0.44155 0.0
C580 C 0.30801 0.97617 0.46336 0.0
C581 C 0.27977 0.93443 0.46344 0.0
C582 C 0.27861 0.90566 0.47054 0.0
C583 C 0.28169 0.9875 0.44762 0.0
C584 C 0.25449 0.97195 0.43964 0.0
C585 C 0.25353 0.94582 0.44788 0.0
C586 C 0.22831 0.98126 0.42122 0.0
C587 C 0.28375 0.01553 0.43883 0.0
C588 C 0.19715 0.99851 0.42686 0.0
C589 C 0.16908 1.0028 0.41047 0.0
C590 C 0.17202 0.98986 0.38834 0.0
C591 C 0.20404 0.97374 0.38239 0.0
C592 C 0.23197 0.96953 0.39866 0.0
H593 H 0.30652 0.02514 0.4468 0.0
H594 H 0.28731 0.01535 0.41924 0.0
H595 H 0.25781 0.02773 0.44306 0.0
H596 H 0.19369 1.00743 0.44433 0.0
H597 H 0.14433 0.01495 0.41557 0.0
H598 H 0.73271 0.15454 0.47738 0.0
H599 H 0.7872 0.12931 0.46089 0.0
H600 H 0.74871 0.0562 0.48614 0.0
H601 H 0.69332 0.08128 0.50208 0.0
H602 H 0.84095 0.09488 0.48298 0.0
H603 H 0.76693 0.04207 0.41488 0.0
H604 H 0.74558 0.07048 0.43106 0.0
H605 H 0.75298 0.03868 0.44533 0.0
C606 C 0.73569 0.13308 0.47936 0.0
C607 C 0.70845 0.11992 0.49085 0.0
C608 C 0.76699 0.11871 0.47008 0.0
C609 C 0.77177 0.09086 0.47202 0.0
C610 C 0.74529 0.07765 0.48414 0.0
H611 H 0.98494 0.02071 0.41398 0.0
H612 H 0.93059 0.02334 0.44025 0.0
C613 C 0.71385 0.09205 0.49345 0.0
C614 C 0.80423 0.07604 0.46068 0.0
H615 H 0.83077 0.0371 0.41265 0.0
C616 C 0.83883 0.08179 0.4679 0.0
C617 C 0.80127 0.05896 0.44102 0.0
C618 C 0.76476 0.0522 0.43242 0.0
C619 C 0.87045 0.0722 0.45517 0.0
C620 C 0.86732 0.05629 0.43479 0.0
C621 C 0.83295 0.04925 0.42835 0.0
C622 C 0.89827 0.05087 0.41786 0.0
C623 C 0.90672 0.08067 0.4626 0.0
C624 C 0.89751 0.06471 0.39632 0.0
C625 C 0.92822 0.06323 0.38145 0.0
C626 C 0.9601 0.04756 0.38768 0.0
C627 C 0.96046 0.03271 0.40874 0.0
C628 C 0.92961 0.0343 0.42375 0.0
H629 H 0.90396 0.09508 0.4776 0.0
H630 H 0.92466 0.06292 0.46814 0.0
H631 H 0.92037 0.08995 0.44746 0.0
H632 H 0.87363 0.07768 0.39153 0.0
H633 H 0.9274 0.07493 0.36535 0.0
loop_
_geom_bond_atom_site_label_1
_geom_bond_atom_site_label_2
_geom_bond_distance
_geom_bond_site_symmetry_2
_ccdc_geom_bond_type
C0 C1 1.264 . S
C0 C5 1.468 1_456 S
C0 C10 1.465 1_556 S
C1 C0 1.264 . S
C1 C3 1.339 1_455 S
C1 H28 0.931 . S
C2 C3 1.395 . S
C2 C4 1.320 . S
C3 C1 1.339 1_655 S
C3 C2 1.395 . S
C3 H29 0.929 . S
C4 C2 1.320 . S
C4 C5 1.376 1_556 S
C4 H30 0.930 . S
C5 C0 1.468 1_654 S
C5 C4 1.376 1_554 S
C5 H31 0.970 . S
U6 O7 2.454 . S
U6 O8 2.458 . S
U6 C9 2.984 . S
U6 C10 2.847 . S
U6 C23 2.882 . S
U6 O24 2.441 . S
U6 O25 2.420 . S
U6 O26 2.455 . S
U6 O27 2.449 . S
O7 U6 2.454 . S
O7 C9 1.353 . S
O8 U6 2.458 . S
O8 C9 1.286 . S
C9 U6 2.984 . S
C9 O7 1.353 . S
C9 O8 1.286 . S
C9 C11 1.363 . S
C10 C0 1.465 1_554 S
C10 U6 2.847 . S
C10 O24 1.249 . S
C10 O25 1.202 . S
C11 C9 1.363 . S
C11 C13 1.408 . S
C11 C16 1.342 . S
C12 C13 1.310 . S
C12 C15 1.461 . S
C12 H32 0.932 . S
C13 C11 1.408 . S
C13 C12 1.310 . S
C13 H33 0.930 . S
C14 C15 1.474 . S
C14 C16 1.285 . S
C14 H34 0.929 . S
C15 C12 1.461 . S
C15 C14 1.474 . S
C16 C11 1.342 . S
C16 C14 1.285 . S
C16 H35 0.930 . S
C17 C20 1.417 1_554 S
C17 C22 1.247 . S
C17 C23 1.431 . S
C18 C21 1.260 . S
C18 C22 1.477 1_556 S
C18 H36 0.925 1_556 S
C19 C20 1.384 . S
C19 C21 1.479 . S
C19 H37 0.929 . S
C20 C17 1.417 1_556 S
C20 C19 1.384 . S
C20 H38 0.928 . S
C21 C18 1.260 . S
C21 C19 1.479 . S
C22 C17 1.247 . S
C22 C18 1.477 1_554 S
C22 H39 0.932 . S
C23 U6 2.882 . S
C23 C17 1.431 . S
C23 O26 1.301 . S
C23 O27 1.282 . S
O24 U6 2.441 . S
O24 C10 1.249 . S
O25 U6 2.420 . S
O25 C10 1.202 . S
O26 U6 2.455 . S
O26 C23 1.301 . S
O27 U6 2.449 . S
O27 C23 1.282 . S
H28 C1 0.931 . S
H29 C3 0.929 . S
H30 C4 0.930 . S
H31 C5 0.970 . S
H32 C12 0.932 . S
H33 C13 0.930 . S
H34 C14 0.929 . S
H35 C16 0.930 . S
H36 C18 0.925 1_554 S
H37 C19 0.929 . S
H38 C20 0.928 . S
H39 C22 0.932 . S
C40 C41 1.264 . S
C40 C45 1.479 . S
C40 C50 1.465 . S
C41 C40 1.264 . S
C41 C43 1.339 . S
C41 H68 0.931 . S
C42 C43 1.395 . S
C42 C44 1.320 . S
C43 C41 1.339 . S
C43 C42 1.395 . S
C43 H69 0.929 . S
C44 C42 1.320 . S
C44 C45 1.405 . S
C44 H70 0.937 . S
C45 C40 1.479 . S
C45 C44 1.405 . S
C45 H71 0.931 1_556 S
U46 O47 2.454 1_455 S
U46 O48 2.457 . S
U46 C49 2.984 . S
U46 C50 2.848 1_454 S
U46 C63 2.882 1_554 S
U46 O64 2.442 1_455 S
U46 O65 2.421 1_454 S
U46 O66 2.454 . S
U46 O67 2.449 1_554 S
O47 U46 2.454 1_655 S
O47 C49 1.352 1_655 S
O48 U46 2.457 . S
O48 C49 1.287 . S
C49 U46 2.984 . S
C49 O47 1.352 1_455 S
C49 O48 1.287 . S
C49 C51 1.363 . S
C50 C40 1.465 . S
C50 U46 2.848 1_656 S
C50 O64 1.249 1_556 S
C50 O65 1.202 . S
C51 C49 1.363 . S
C51 C53 1.405 1_455 S
C51 C56 1.345 . S
C52 C53 1.310 . S
C52 C55 1.436 1_655 S
C52 H72 0.932 . S
C53 C51 1.405 1_655 S
C53 C52 1.310 . S
C53 H73 0.930 . S
C54 C55 1.495 . S
C54 C56 1.285 . S
C54 H74 0.929 . S
C55 C52 1.436 1_455 S
C55 C54 1.495 . S
C56 C51 1.345 . S
C56 C54 1.285 . S
C56 H75 0.930 . S
C57 C60 1.424 . S
C57 C62 1.245 . S
C57 C63 1.428 . S
C58 C61 1.260 . S
C58 C62 1.477 . S
C58 H76 0.932 . S
C59 C60 1.384 . S
C59 C61 1.479 . S
C59 H77 0.929 . S
C60 C57 1.424 . S
C60 C59 1.384 . S
C60 H78 0.928 . S
C61 C58 1.260 . S
C61 C59 1.479 . S
C62 C57 1.245 . S
C62 C58 1.477 . S
C62 H79 0.932 1_556 S
C63 U46 2.882 1_556 S
C63 C57 1.428 . S
C63 O66 1.301 1_556 S
C63 O67 1.282 . S
O64 U46 2.442 1_655 S
O64 C50 1.249 1_554 S
O65 U46 2.421 1_656 S
O65 C50 1.202 . S
O66 U46 2.454 . S
O66 C63 1.301 1_554 S
O67 U46 2.449 1_556 S
O67 C63 1.282 . S
H68 C41 0.931 . S
H69 C43 0.929 . S
H70 C44 0.937 . S
H71 C45 0.931 1_554 S
H72 C52 0.932 . S
H73 C53 0.930 . S
H74 C54 0.929 . S
H75 C56 0.930 . S
H76 C58 0.932 . S
H77 C59 0.929 . S
H78 C60 0.928 . S
H79 C62 0.932 1_554 S
C80 C81 1.264 . S
C80 C85 1.479 . S
C80 C90 1.465 . S
C81 C80 1.264 . S
C81 C83 1.339 . S
C81 H108 0.931 . S
C82 C83 1.395 . S
C82 C84 1.320 . S
C83 C81 1.339 . S
C83 C82 1.395 . S
C83 H109 0.929 . S
C84 C82 1.320 . S
C84 C85 1.405 . S
C84 H110 0.930 . S
C85 C80 1.479 . S
C85 C84 1.405 . S
C85 H111 0.931 . S
U86 O87 2.454 . S
U86 O88 2.458 . S
U86 C89 2.984 . S
U86 C90 2.847 . S
U86 C103 2.882 . S
U86 O104 2.441 . S
U86 O105 2.420 . S
U86 O106 2.455 . S
U86 O107 2.449 . S
O87 U86 2.454 . S
O87 C89 1.353 . S
O88 U86 2.458 . S
O88 C89 1.286 . S
C89 U86 2.984 . S
C89 O87 1.353 . S
C89 O88 1.286 . S
C89 C91 1.363 . S
C90 C80 1.465 . S
C90 U86 2.847 . S
C90 O104 1.249 . S
C90 O105 1.202 . S
C91 C89 1.363 . S
C91 C93 1.408 . S
C91 C96 1.342 . S
C92 C93 1.310 . S
C92 C95 1.461 . S
C92 H112 0.932 . S
C93 C91 1.408 . S
C93 C92 1.310 . S
C93 H113 0.930 . S
C94 C95 1.474 . S
C94 C96 1.285 . S
C94 H114 0.929 . S
C95 C92 1.461 . S
C95 C94 1.474 . S
C96 C91 1.342 . S
C96 C94 1.285 . S
C96 H115 0.930 . S
C97 C100 1.424 . S
C97 C102 1.245 . S
C97 C103 1.428 . S
C98 C101 1.260 . S
C98 C102 1.477 . S
C98 H116 0.932 . S
C99 C100 1.384 . S
C99 C101 1.479 . S
C99 H117 0.929 . S
C100 C97 1.424 . S
C100 C99 1.384 . S
C100 H118 0.928 . S
C101 C98 1.260 . S
C101 C99 1.479 . S
C102 C97 1.245 . S
C102 C98 1.477 . S
C102 H119 0.932 . S
C103 U86 2.882 . S
C103 C97 1.428 . S
C103 O106 1.301 . S
C103 O107 1.282 . S
O104 U86 2.441 . S
O104 C90 1.249 . S
O105 U86 2.420 . S
O105 C90 1.202 . S
O106 U86 2.455 . S
O106 C103 1.301 . S
O107 U86 2.449 . S
O107 C103 1.282 . S
H108 C81 0.931 . S
H109 C83 0.929 . S
H110 C84 0.930 . S
H111 C85 0.931 . S
H112 C92 0.932 . S
H113 C93 0.930 . S
H114 C94 0.929 . S
H115 C96 0.930 . S
H116 C98 0.932 . S
H117 C99 0.929 . S
H118 C100 0.928 . S
H119 C102 0.932 . S
C120 C121 1.264 . S
C120 C125 1.479 . S
C120 C130 1.465 . S
C121 C120 1.264 . S
C121 C123 1.339 . S
C121 H148 0.931 . S
C122 C123 1.395 . S
C122 C124 1.320 . S
C123 C121 1.339 . S
C123 C122 1.395 . S
C123 H149 0.929 . S
C124 C122 1.320 . S
C124 C125 1.405 . S
C124 H150 0.930 . S
C125 C120 1.479 . S
C125 C124 1.405 . S
C125 H151 0.931 . S
U126 O127 2.454 . S
U126 O128 2.458 . S
U126 C129 2.984 . S
U126 C130 2.847 . S
U126 C143 2.882 . S
U126 O144 2.441 . S
U126 O145 2.420 . S
U126 O146 2.455 . S
U126 O147 2.449 . S
O127 U126 2.454 . S
O127 C129 1.353 . S
O128 U126 2.458 . S
O128 C129 1.286 . S
C129 U126 2.984 . S
C129 O127 1.353 . S
C129 O128 1.286 . S
C129 C131 1.363 . S
C130 C120 1.465 . S
C130 U126 2.847 . S
C130 O144 1.249 . S
C130 O145 1.202 . S
C131 C129 1.363 . S
C131 C133 1.408 . S
C131 C136 1.342 . S
C132 C133 1.310 . S
C132 C135 1.461 . S
C132 H152 0.932 . S
C133 C131 1.408 . S
C133 C132 1.310 . S
C133 H153 0.930 . S
C134 C135 1.474 . S
C134 C136 1.285 . S
C134 H154 0.929 . S
C135 C132 1.461 . S
C135 C134 1.474 . S
C136 C131 1.342 . S
C136 C134 1.285 . S
C136 H155 0.930 . S
C137 C140 1.424 . S
C137 C142 1.245 . S
C137 C143 1.428 . S
C138 C141 1.260 . S
C138 C142 1.477 . S
C138 H156 0.932 . S
C139 C140 1.384 . S
C139 C141 1.479 . S
C139 H157 0.929 . S
C140 C137 1.424 . S
C140 C139 1.384 . S
C140 H158 0.928 . S
C141 C138 1.260 . S
C141 C139 1.479 . S
C142 C137 1.245 . S
C142 C138 1.477 . S
C142 H159 0.932 . S
C143 U126 2.882 . S
C143 C137 1.428 . S
C143 O146 1.301 . S
C143 O147 1.282 . S
O144 U126 2.441 . S
O144 C130 1.249 . S
O145 U126 2.420 . S
O145 C130 1.202 . S
O146 U126 2.455 . S
O146 C143 1.301 . S
O147 U126 2.449 . S
O147 C143 1.282 . S
H148 C121 0.931 . S
H149 C123 0.929 . S
H150 C124 0.930 . S
H151 C125 0.931 . S
H152 C132 0.932 . S
H153 C133 0.930 . S
H154 C134 0.929 . S
H155 C136 0.930 . S
H156 C138 0.932 . S
H157 C139 0.929 . S
H158 C140 0.928 . S
H159 C142 0.932 . S
Zn160 O166 1.920 . S
Zn160 O172 1.898 . S
Zn160 O175 1.905 . S
Zn161 O169 1.905 . S
Zn161 O170 1.898 . S
Zn161 O178 1.920 . S
Zn162 O165 2.080 . S
Zn162 O168 2.114 1_545 S
Zn162 O171 2.120 1_545 S
Zn162 O173 2.120 . S
Zn162 O174 2.114 . S
Zn162 O177 2.080 1_545 S
C163 O168 1.166 . S
C163 O169 1.182 . S
C164 O170 1.167 . S
C164 O171 1.299 . S
O165 Zn162 2.080 . S
O165 C179 1.305 . S
O166 Zn160 1.920 . S
O166 C179 1.234 . S
C167 O172 1.167 . S
C167 O173 1.299 . S
O168 Zn162 2.114 1_565 S
O168 C163 1.166 . S
O169 Zn161 1.905 . S
O169 C163 1.182 . S
O170 Zn161 1.898 . S
O170 C164 1.167 . S
O171 Zn162 2.120 1_565 S
O171 C164 1.299 . S
O172 Zn160 1.898 . S
O172 C167 1.167 . S
O173 Zn162 2.120 . S
O173 C167 1.299 . S
O174 Zn162 2.114 . S
O174 C176 1.166 . S
O175 Zn160 1.905 . S
O175 C176 1.182 . S
C176 O174 1.166 . S
C176 O175 1.182 . S
O177 Zn162 2.080 1_565 S
O177 C180 1.305 . S
O178 Zn161 1.920 . S
O178 C180 1.234 . S
C179 O165 1.305 . S
C179 O166 1.234 . S
C180 O177 1.305 . S
C180 O178 1.234 . S
Zn181 O187 1.920 . S
Zn181 O193 1.898 . S
Zn181 O196 1.905 . S
Zn182 O190 1.905 . S
Zn182 O191 1.898 . S
Zn182 O199 1.920 . S
Zn183 O186 2.080 . S
Zn183 O189 2.114 . S
Zn183 O192 2.120 . S
Zn183 O194 2.120 . S
Zn183 O195 2.114 . S
Zn183 O198 2.080 . S
C184 O189 1.166 . S
C184 O190 1.182 . S
C185 O191 1.167 . S
C185 O192 1.299 . S
O186 Zn183 2.080 . S
O186 C200 1.305 . S
O187 Zn181 1.920 . S
O187 C200 1.234 . S
C188 O193 1.167 . S
C188 O194 1.299 . S
O189 Zn183 2.114 . S
O189 C184 1.166 . S
O190 Zn182 1.905 . S
O190 C184 1.182 . S
O191 Zn182 1.898 . S
O191 C185 1.167 . S
O192 Zn183 2.120 . S
O192 C185 1.299 . S
O193 Zn181 1.898 . S
O193 C188 1.167 . S
O194 Zn183 2.120 . S
O194 C188 1.299 . S
O195 Zn183 2.114 . S
O195 C197 1.166 . S
O196 Zn181 1.905 . S
O196 C197 1.182 . S
C197 O195 1.166 . S
C197 O196 1.182 . S
O198 Zn183 2.080 . S
O198 C201 1.305 . S
O199 Zn182 1.920 . S
O199 C201 1.234 . S
C200 O186 1.305 . S
C200 O187 1.234 . S
C201 O198 1.305 . S
C201 O199 1.234 . S
H202 C210 0.929 . S
H203 C212 0.930 . S
H204 C214 0.930 . S
H205 C217 0.929 . S
H206 C220 0.930 . S
H207 C222 0.960 . S
H208 C222 0.960 . S
H209 C222 0.960 . S
C210 H202 0.929 . S
C210 C211 1.377 . S
C210 C212 1.384 . S
C211 C210 1.377 . S
C211 C217 1.390 . S
C212 H203 0.930 . S
C212 C210 1.384 . S
C212 C213 1.372 . S
C213 C212 1.372 . S
C213 C214 1.400 . S
C213 C218 1.490 . S
C214 H204 0.930 . S
C214 C213 1.400 . S
C214 C217 1.386 . S
H215 C231 0.930 . S
H216 C232 0.931 . S
C217 H205 0.929 . S
C217 C211 1.390 . S
C217 C214 1.386 . S
C218 C213 1.490 . S
C218 C220 1.395 . S
C218 C221 1.403 . S
H219 C225 0.930 . S
C220 H206 0.930 . S
C220 C218 1.395 . S
C220 C223 1.403 . S
C221 C218 1.403 . S
C221 C222 1.524 . S
C221 C225 1.400 . S
C222 H207 0.960 . S
C222 H208 0.960 . S
C222 H209 0.960 . S
C222 C221 1.524 . S
C223 C220 1.403 . S
C223 C224 1.392 . S
C223 C227 1.495 . S
C224 C223 1.392 . S
C224 C225 1.385 . S
C224 C226 1.478 . S
C225 H219 0.930 . S
C225 C221 1.400 . S
C225 C224 1.385 . S
C226 C224 1.478 . S
C226 C228 1.381 . S
C226 C232 1.383 . S
C227 C223 1.495 . S
C227 H233 0.959 . S
C227 H234 0.961 . S
C227 H235 0.960 . S
C228 C226 1.381 . S
C228 C229 1.394 . S
C228 H236 0.930 . S
C229 C228 1.394 . S
C229 C230 1.383 . S
C229 H237 0.929 . S
C230 C229 1.383 . S
C230 C231 1.377 . S
C231 H215 0.930 . S
C231 C230 1.377 . S
C231 C232 1.379 . S
C232 H216 0.931 . S
C232 C226 1.383 . S
C232 C231 1.379 . S
H233 C227 0.959 . S
H234 C227 0.961 . S
H235 C227 0.960 . S
H236 C228 0.930 . S
H237 C229 0.929 . S
H238 C246 0.929 . S
H239 C248 0.930 . S
H240 C250 0.930 . S
H241 C253 0.929 . S
H242 C256 0.930 . S
H243 C258 0.960 . S
H244 C258 0.960 1_655 S
H245 C258 0.960 . S
C246 H238 0.929 . S
C246 C247 1.377 1_655 S
C246 C248 1.384 . S
C247 C246 1.377 1_455 S
C247 C253 1.390 . S
C248 H239 0.930 . S
C248 C246 1.384 . S
C248 C249 1.372 1_655 S
C249 C248 1.372 1_455 S
C249 C250 1.400 . S
C249 C254 1.490 . S
C250 H240 0.930 . S
C250 C249 1.400 . S
C250 C253 1.386 . S
H251 C267 0.930 . S
H252 C268 0.931 . S
C253 H241 0.929 . S
C253 C247 1.390 . S
C253 C250 1.386 . S
C254 C249 1.490 . S
C254 C256 1.395 . S
C254 C257 1.403 . S
H255 C261 0.930 . S
C256 H242 0.930 . S
C256 C254 1.395 . S
C256 C259 1.403 . S
C257 C254 1.403 . S
C257 C258 1.524 . S
C257 C261 1.400 . S
C258 H243 0.960 . S
C258 H244 0.960 1_455 S
C258 H245 0.960 . S
C258 C257 1.524 . S
C259 C256 1.403 . S
C259 C260 1.392 . S
C259 C263 1.495 . S
C260 C259 1.392 . S
C260 C261 1.385 . S
C260 C262 1.478 . S
C261 H255 0.930 . S
C261 C257 1.400 . S
C261 C260 1.385 . S
C262 C260 1.478 . S
C262 C264 1.381 . S
C262 C268 1.383 . S
C263 C259 1.495 . S
C263 H269 0.959 . S
C263 H270 0.961 . S
C263 H271 0.960 . S
C264 C262 1.381 . S
C264 C265 1.394 . S
C264 H272 0.930 1_455 S
C265 C264 1.394 . S
C265 C266 1.383 . S
C265 H273 0.931 1_455 S
C266 C265 1.383 . S
C266 C267 1.377 . S
C267 H251 0.930 . S
C267 C266 1.377 . S
C267 C268 1.379 . S
C268 H252 0.931 . S
C268 C262 1.383 . S
C268 C267 1.379 . S
H269 C263 0.959 . S
H270 C263 0.961 . S
H271 C263 0.960 . S
H272 C264 0.930 1_655 S
H273 C265 0.931 1_655 S
H274 C282 0.929 . S
H275 C284 0.930 . S
H276 C286 0.930 . S
H277 C289 0.929 . S
H278 C292 0.930 . S
H279 C294 0.960 . S
H280 C294 0.960 . S
H281 C294 0.960 . S
C282 H274 0.929 . S
C282 C283 1.377 . S
C282 C284 1.384 . S
C283 C282 1.377 . S
C283 C289 1.390 . S
C284 H275 0.930 . S
C284 C282 1.384 . S
C284 C285 1.372 . S
C285 C284 1.372 . S
C285 C286 1.400 . S
C285 C290 1.490 . S
C286 H276 0.930 . S
C286 C285 1.400 . S
C286 C289 1.386 . S
H287 C303 0.930 . S
H288 C304 0.931 . S
C289 H277 0.929 . S
C289 C283 1.390 . S
C289 C286 1.386 . S
C290 C285 1.490 . S
C290 C292 1.395 . S
C290 C293 1.403 . S
H291 C297 0.930 . S
C292 H278 0.930 . S
C292 C290 1.395 . S
C292 C295 1.403 . S
C293 C290 1.403 . S
C293 C294 1.524 . S
C293 C297 1.400 . S
C294 H279 0.960 . S
C294 H280 0.960 . S
C294 H281 0.960 . S
C294 C293 1.524 . S
C295 C292 1.403 . S
C295 C296 1.392 . S
C295 C299 1.495 . S
C296 C295 1.392 . S
C296 C297 1.385 . S
C296 C298 1.478 . S
C297 H291 0.930 . S
C297 C293 1.400 . S
C297 C296 1.385 . S
C298 C296 1.478 . S
C298 C300 1.381 . S
C298 C304 1.383 . S
C299 C295 1.495 . S
C299 H305 0.959 . S
C299 H306 0.961 . S
C299 H307 0.960 . S
C300 C298 1.381 . S
C300 C301 1.394 . S
C300 H308 0.930 . S
C301 C300 1.394 . S
C301 C302 1.383 . S
C301 H309 0.929 . S
C302 C301 1.383 . S
C302 C303 1.377 . S
C303 H287 0.930 . S
C303 C302 1.377 . S
C303 C304 1.379 . S
C304 H288 0.931 . S
C304 C298 1.383 . S
C304 C303 1.379 . S
H305 C299 0.959 . S
H306 C299 0.961 . S
H307 C299 0.960 . S
H308 C300 0.930 . S
H309 C301 0.929 . S
H310 C318 0.929 . S
H311 C320 0.930 . S
H312 C322 0.930 . S
H313 C325 0.929 . S
H314 C328 0.930 . S
H315 C330 0.960 . S
H316 C330 0.960 . S
H317 C330 0.960 . S
C318 H310 0.929 . S
C318 C319 1.377 . S
C318 C320 1.384 . S
C319 C318 1.377 . S
C319 C325 1.390 . S
C320 H311 0.930 . S
C320 C318 1.384 . S
C320 C321 1.372 . S
C321 C320 1.372 . S
C321 C322 1.400 . S
C321 C326 1.490 . S
C322 H312 0.930 . S
C322 C321 1.400 . S
C322 C325 1.386 . S
H323 C339 0.930 . S
H324 C340 0.931 . S
C325 H313 0.929 . S
C325 C319 1.390 . S
C325 C322 1.386 . S
C326 C321 1.490 . S
C326 C328 1.395 . S
C326 C329 1.403 . S
H327 C333 0.930 . S
C328 H314 0.930 . S
C328 C326 1.395 . S
C328 C331 1.403 . S
C329 C326 1.403 . S
C329 C330 1.524 . S
C329 C333 1.400 . S
C330 H315 0.960 . S
C330 H316 0.960 . S
C330 H317 0.960 . S
C330 C329 1.524 . S
C331 C328 1.403 . S
C331 C332 1.392 . S
C331 C335 1.495 . S
C332 C331 1.392 . S
C332 C333 1.385 . S
C332 C334 1.478 . S
C333 H327 0.930 . S
C333 C329 1.400 . S
C333 C332 1.385 . S
C334 C332 1.478 . S
C334 C336 1.381 . S
C334 C340 1.383 . S
C335 C331 1.495 . S
C335 H341 0.959 . S
C335 H342 0.961 . S
C335 H343 0.960 . S
C336 C334 1.381 . S
C336 C337 1.394 . S
C336 H344 0.930 . S
C337 C336 1.394 . S
C337 C338 1.383 . S
C337 H345 0.929 . S
C338 C337 1.383 . S
C338 C339 1.377 . S
C339 H323 0.930 . S
C339 C338 1.377 . S
C339 C340 1.379 . S
C340 H324 0.931 . S
C340 C334 1.383 . S
C340 C339 1.379 . S
H341 C335 0.959 . S
H342 C335 0.961 . S
H343 C335 0.960 . S
H344 C336 0.930 . S
H345 C337 0.929 . S
H346 C354 0.929 . S
H347 C356 0.930 . S
H348 C358 0.930 . S
H349 C361 0.929 . S
H350 C364 0.930 . S
H351 C366 0.960 . S
H352 C366 0.960 . S
H353 C366 0.960 . S
C354 H346 0.929 . S
C354 C355 1.377 . S
C354 C356 1.384 . S
C355 C354 1.377 . S
C355 C361 1.390 . S
C356 H347 0.930 . S
C356 C354 1.384 . S
C356 C357 1.372 . S
C357 C356 1.372 . S
C357 C358 1.400 . S
C357 C362 1.490 . S
C358 H348 0.930 . S
C358 C357 1.400 . S
C358 C361 1.386 . S
H359 C375 0.930 . S
H360 C376 0.931 . S
C361 H349 0.929 . S
C361 C355 1.390 . S
C361 C358 1.386 . S
C362 C357 1.490 . S
C362 C364 1.395 . S
C362 C365 1.403 . S
H363 C369 0.930 . S
C364 H350 0.930 . S
C364 C362 1.395 . S
C364 C367 1.403 . S
C365 C362 1.403 . S
C365 C366 1.524 . S
C365 C369 1.400 . S
C366 H351 0.960 . S
C366 H352 0.960 . S
C366 H353 0.960 . S
C366 C365 1.524 . S
C367 C364 1.403 . S
C367 C368 1.392 . S
C367 C371 1.495 . S
C368 C367 1.392 . S
C368 C369 1.385 . S
C368 C370 1.478 . S
C369 H363 0.930 . S
C369 C365 1.400 . S
C369 C368 1.385 . S
C370 C368 1.478 . S
C370 C372 1.381 . S
C370 C376 1.383 . S
C371 C367 1.495 . S
C371 H377 0.959 . S
C371 H378 0.961 . S
C371 H379 0.960 . S
C372 C370 1.381 . S
C372 C373 1.394 . S
C372 H380 0.930 . S
C373 C372 1.394 . S
C373 C374 1.383 . S
C373 H381 0.929 . S
C374 C373 1.383 . S
C374 C375 1.377 . S
C375 H359 0.930 . S
C375 C374 1.377 . S
C375 C376 1.379 . S
C376 H360 0.931 . S
C376 C370 1.383 . S
C376 C375 1.379 . S
H377 C371 0.959 . S
H378 C371 0.961 . S
H379 C371 0.960 . S
H380 C372 0.930 . S
H381 C373 0.929 . S
H382 C390 0.929 . S
H383 C392 0.930 . S
H384 C394 0.930 . S
H385 C397 0.929 . S
H386 C400 0.930 . S
H387 C402 0.960 . S
H388 C402 0.960 . S
H389 C402 0.960 . S
C390 H382 0.929 . S
C390 C391 1.377 . S
C390 C392 1.384 . S
C391 C390 1.377 . S
C391 C397 1.390 . S
C392 H383 0.930 . S
C392 C390 1.384 . S
C392 C393 1.372 . S
C393 C392 1.372 . S
C393 C394 1.400 . S
C393 C398 1.490 . S
C394 H384 0.930 . S
C394 C393 1.400 . S
C394 C397 1.386 . S
H395 C411 0.930 . S
H396 C412 0.931 . S
C397 H385 0.929 . S
C397 C391 1.390 . S
C397 C394 1.386 . S
C398 C393 1.490 . S
C398 C400 1.395 . S
C398 C401 1.403 . S
H399 C405 0.930 . S
C400 H386 0.930 . S
C400 C398 1.395 . S
C400 C403 1.403 . S
C401 C398 1.403 . S
C401 C402 1.524 . S
C401 C405 1.400 . S
C402 H387 0.960 . S
C402 H388 0.960 . S
C402 H389 0.960 . S
C402 C401 1.524 . S
C403 C400 1.403 . S
C403 C404 1.392 . S
C403 C407 1.495 . S
C404 C403 1.392 . S
C404 C405 1.385 . S
C404 C406 1.478 . S
C405 H399 0.930 . S
C405 C401 1.400 . S
C405 C404 1.385 . S
C406 C404 1.478 . S
C406 C408 1.381 . S
C406 C412 1.383 . S
C407 C403 1.495 . S
C407 H413 0.959 . S
C407 H414 0.961 . S
C407 H415 0.960 . S
C408 C406 1.381 . S
C408 C409 1.394 . S
C408 H416 0.930 . S
C409 C408 1.394 . S
C409 C410 1.383 . S
C409 H417 0.929 . S
C410 C409 1.383 . S
C410 C411 1.377 . S
C411 H395 0.930 . S
C411 C410 1.377 . S
C411 C412 1.379 . S
C412 H396 0.931 . S
C412 C406 1.383 . S
C412 C411 1.379 . S
H413 C407 0.959 . S
H414 C407 0.961 . S
H415 C407 0.960 . S
H416 C408 0.930 . S
H417 C409 0.929 . S
H418 C426 0.929 . S
H419 C428 0.930 . S
H420 C430 0.930 . S
H421 C433 0.929 . S
H422 C436 0.930 . S
H423 C438 0.960 . S
H424 C438 0.960 . S
H425 C438 0.960 . S
C426 H418 0.929 . S
C426 C427 1.377 . S
C426 C428 1.384 . S
C427 C426 1.377 . S
C427 C433 1.390 . S
C428 H419 0.930 . S
C428 C426 1.384 . S
C428 C429 1.372 . S
C429 C428 1.372 . S
C429 C430 1.400 . S
C429 C434 1.490 . S
C430 H420 0.930 . S
C430 C429 1.400 . S
C430 C433 1.386 . S
H431 C447 0.930 . S
H432 C448 0.931 . S
C433 H421 0.929 . S
C433 C427 1.390 . S
C433 C430 1.386 . S
C434 C429 1.490 . S
C434 C436 1.395 . S
C434 C437 1.403 . S
H435 C441 0.930 . S
C436 H422 0.930 . S
C436 C434 1.395 . S
C436 C439 1.403 . S
C437 C434 1.403 . S
C437 C438 1.524 . S
C437 C441 1.400 . S
C438 H423 0.960 . S
C438 H424 0.960 . S
C438 H425 0.960 . S
C438 C437 1.524 . S
C439 C436 1.403 . S
C439 C440 1.392 . S
C439 C443 1.495 . S
C440 C439 1.392 . S
C440 C441 1.385 . S
C440 C442 1.478 . S
C441 H435 0.930 . S
C441 C437 1.400 . S
C441 C440 1.385 . S
C442 C440 1.478 . S
C442 C444 1.381 . S
C442 C448 1.383 . S
C443 C439 1.495 . S
C443 H449 0.959 . S
C443 H450 0.961 . S
C443 H451 0.960 . S
C444 C442 1.381 . S
C444 C445 1.394 . S
C444 H452 0.930 . S
C445 C444 1.394 . S
C445 C446 1.383 . S
C445 H453 0.929 . S
C446 C445 1.383 . S
C446 C447 1.377 . S
C447 H431 0.930 . S
C447 C446 1.377 . S
C447 C448 1.379 . S
C448 H432 0.931 . S
C448 C442 1.383 . S
C448 C447 1.379 . S
H449 C443 0.959 . S
H450 C443 0.961 . S
H451 C443 0.960 . S
H452 C444 0.930 . S
H453 C445 0.929 . S
H454 C462 0.929 . S
H455 C464 0.930 . S
H456 C466 0.930 . S
H457 C469 0.929 . S
H458 C472 0.930 . S
H459 C474 0.960 . S
H460 C474 0.960 . S
H461 C474 0.960 . S
C462 H454 0.929 . S
C462 C463 1.377 . S
C462 C464 1.384 . S
C463 C462 1.377 . S
C463 C469 1.390 . S
C464 H455 0.930 . S
C464 C462 1.384 . S
C464 C465 1.372 . S
C465 C464 1.372 . S
C465 C466 1.400 . S
C465 C470 1.490 . S
C466 H456 0.930 . S
C466 C465 1.400 . S
C466 C469 1.386 . S
H467 C483 0.930 . S
H468 C484 0.931 . S
C469 H457 0.929 . S
C469 C463 1.390 . S
C469 C466 1.386 . S
C470 C465 1.490 . S
C470 C472 1.395 . S
C470 C473 1.403 . S
H471 C477 0.930 . S
C472 H458 0.930 . S
C472 C470 1.395 . S
C472 C475 1.403 . S
C473 C470 1.403 . S
C473 C474 1.524 . S
C473 C477 1.400 . S
C474 H459 0.960 . S
C474 H460 0.960 . S
C474 H461 0.960 . S
C474 C473 1.524 . S
C475 C472 1.403 . S
C475 C476 1.392 . S
C475 C479 1.495 . S
C476 C475 1.392 . S
C476 C477 1.385 . S
C476 C478 1.478 . S
C477 H471 0.930 . S
C477 C473 1.400 . S
C477 C476 1.385 . S
C478 C476 1.478 . S
C478 C480 1.381 . S
C478 C484 1.383 . S
C479 C475 1.495 . S
C479 H485 0.959 . S
C479 H486 0.961 . S
C479 H487 0.960 . S
C480 C478 1.381 . S
C480 C481 1.394 . S
C480 H488 0.930 . S
C481 C480 1.394 . S
C481 C482 1.383 . S
C481 H489 0.929 . S
C482 C481 1.383 . S
C482 C483 1.377 . S
C483 H467 0.930 . S
C483 C482 1.377 . S
C483 C484 1.379 . S
C484 H468 0.931 . S
C484 C478 1.383 . S
C484 C483 1.379 . S
H485 C479 0.959 . S
H486 C479 0.961 . S
H487 C479 0.960 . S
H488 C480 0.930 . S
H489 C481 0.929 . S
H490 C498 0.929 . S
H491 C500 0.930 . S
H492 C502 0.930 . S
H493 C505 0.929 . S
H494 C508 0.930 . S
H495 C510 0.960 . S
H496 C510 0.960 . S
H497 C510 0.960 . S
C498 H490 0.929 . S
C498 C499 1.377 . S
C498 C500 1.384 . S
C499 C498 1.377 . S
C499 C505 1.390 . S
C500 H491 0.930 . S
C500 C498 1.384 . S
C500 C501 1.372 . S
C501 C500 1.372 . S
C501 C502 1.400 . S
C501 C506 1.490 . S
C502 H492 0.930 . S
C502 C501 1.400 . S
C502 C505 1.386 . S
H503 C519 0.930 1_455 S
H504 C520 0.931 . S
C505 H493 0.929 . S
C505 C499 1.390 . S
C505 C502 1.386 . S
C506 C501 1.490 . S
C506 C508 1.395 . S
C506 C509 1.403 . S
H507 C513 0.930 . S
C508 H494 0.930 . S
C508 C506 1.395 . S
C508 C511 1.403 . S
C509 C506 1.403 . S
C509 C510 1.524 . S
C509 C513 1.400 . S
C510 H495 0.960 . S
C510 H496 0.960 . S
C510 H497 0.960 . S
C510 C509 1.524 . S
C511 C508 1.403 . S
C511 C512 1.392 . S
C511 C515 1.495 . S
C512 C511 1.392 . S
C512 C513 1.385 . S
C512 C514 1.478 . S
C513 H507 0.930 . S
C513 C509 1.400 . S
C513 C512 1.385 . S
C514 C512 1.478 . S
C514 C516 1.381 . S
C514 C520 1.383 . S
C515 C511 1.495 . S
C515 H521 0.959 . S
C515 H522 0.961 1_655 S
C515 H523 0.960 . S
C516 C514 1.381 . S
C516 C517 1.395 . S
C516 H524 0.930 . S
C517 C516 1.395 . S
C517 C518 1.383 1_655 S
C517 H525 0.928 1_655 S
C518 C517 1.383 1_455 S
C518 C519 1.377 1_455 S
C519 H503 0.930 1_655 S
C519 C518 1.377 1_655 S
C519 C520 1.379 . S
C520 H504 0.931 . S
C520 C514 1.383 . S
C520 C519 1.379 . S
H521 C515 0.959 . S
H522 C515 0.961 1_455 S
H523 C515 0.960 . S
H524 C516 0.930 . S
H525 C517 0.928 1_455 S
H526 C534 0.929 . S
H527 C536 0.930 . S
H528 C538 0.930 . S
H529 C541 0.929 . S
H530 C544 0.930 . S
H531 C546 0.960 . S
H532 C546 0.960 . S
H533 C546 0.960 . S
C534 H526 0.929 . S
C534 C535 1.377 . S
C534 C536 1.384 . S
C535 C534 1.377 . S
C535 C541 1.390 . S
C536 H527 0.930 . S
C536 C534 1.384 . S
C536 C537 1.372 . S
C537 C536 1.372 . S
C537 C538 1.400 . S
C537 C542 1.490 . S
C538 H528 0.930 . S
C538 C537 1.400 . S
C538 C541 1.386 . S
H539 C555 0.930 . S
H540 C556 0.931 . S
C541 H529 0.929 . S
C541 C535 1.390 . S
C541 C538 1.386 . S
C542 C537 1.490 . S
C542 C544 1.395 . S
C542 C545 1.403 . S
H543 C549 0.930 . S
C544 H530 0.930 . S
C544 C542 1.395 . S
C544 C547 1.403 . S
C545 C542 1.403 . S
C545 C546 1.524 . S
C545 C549 1.400 . S
C546 H531 0.960 . S
C546 H532 0.960 . S
C546 H533 0.960 . S
C546 C545 1.524 . S
C547 C544 1.403 . S
C547 C548 1.392 . S
C547 C551 1.495 . S
C548 C547 1.392 . S
C548 C549 1.385 . S
C548 C550 1.478 . S
C549 H543 0.930 . S
C549 C545 1.400 . S
C549 C548 1.385 . S
C550 C548 1.478 . S
C550 C552 1.381 . S
C550 C556 1.383 . S
C551 C547 1.495 . S
C551 H557 0.959 . S
C551 H558 0.961 . S
C551 H559 0.960 . S
C552 C550 1.381 . S
C552 C553 1.394 . S
C552 H560 0.930 . S
C553 C552 1.394 . S
C553 C554 1.383 . S
C553 H561 0.929 . S
C554 C553 1.383 . S
C554 C555 1.377 . S
C555 H539 0.930 . S
C555 C554 1.377 . S
C555 C556 1.379 . S
C556 H540 0.931 . S
C556 C550 1.383 . S
C556 C555 1.379 . S
H557 C551 0.959 . S
H558 C551 0.961 . S
H559 C551 0.960 . S
H560 C552 0.930 . S
H561 C553 0.929 . S
H562 C570 0.929 . S
H563 C572 0.930 . S
H564 C574 0.930 . S
H565 C577 0.929 . S
H566 C580 0.930 . S
H567 C582 0.960 . S
H568 C582 0.960 . S
H569 C582 0.960 . S
C570 H562 0.929 . S
C570 C571 1.377 . S
C570 C572 1.384 . S
C571 C570 1.377 . S
C571 C577 1.390 . S
C572 H563 0.930 . S
C572 C570 1.384 . S
C572 C573 1.372 . S
C573 C572 1.372 . S
C573 C574 1.400 . S
C573 C578 1.490 . S
C574 H564 0.930 . S
C574 C573 1.400 . S
C574 C577 1.386 . S
H575 C591 0.930 . S
H576 C592 0.931 . S
C577 H565 0.929 . S
C577 C571 1.390 . S
C577 C574 1.386 . S
C578 C573 1.490 . S
C578 C580 1.395 . S
C578 C581 1.403 . S
H579 C585 0.930 . S
C580 H566 0.930 . S
C580 C578 1.395 . S
C580 C583 1.403 . S
C581 C578 1.403 . S
C581 C582 1.524 . S
C581 C585 1.400 . S
C582 H567 0.960 . S
C582 H568 0.960 . S
C582 H569 0.960 . S
C582 C581 1.524 . S
C583 C580 1.403 . S
C583 C584 1.392 . S
C583 C587 1.495 . S
C584 C583 1.392 . S
C584 C585 1.385 . S
C584 C586 1.478 . S
C585 H579 0.930 . S
C585 C581 1.400 . S
C585 C584 1.385 . S
C586 C584 1.478 . S
C586 C588 1.381 . S
C586 C592 1.383 . S
C587 C583 1.495 . S
C587 H593 0.959 . S
C587 H594 0.961 . S
C587 H595 0.960 . S
C588 C586 1.381 . S
C588 C589 1.394 . S
C588 H596 0.930 . S
C589 C588 1.394 . S
C589 C590 1.383 . S
C589 H597 0.929 . S
C590 C589 1.383 . S
C590 C591 1.377 . S
C591 H575 0.930 . S
C591 C590 1.377 . S
C591 C592 1.379 . S
C592 H576 0.931 . S
C592 C586 1.383 . S
C592 C591 1.379 . S
H593 C587 0.959 . S
H594 C587 0.961 . S
H595 C587 0.960 . S
H596 C588 0.930 . S
H597 C589 0.929 . S
H598 C606 0.929 . S
H599 C608 0.930 . S
H600 C610 0.930 . S
H601 C613 0.929 . S
H602 C616 0.930 . S
H603 C618 0.960 . S
H604 C618 0.960 . S
H605 C618 0.960 . S
C606 H598 0.929 . S
C606 C607 1.377 . S
C606 C608 1.384 . S
C607 C606 1.377 . S
C607 C613 1.390 . S
C608 H599 0.930 . S
C608 C606 1.384 . S
C608 C609 1.372 . S
C609 C608 1.372 . S
C609 C610 1.400 . S
C609 C614 1.490 . S
C610 H600 0.930 . S
C610 C609 1.400 . S
C610 C613 1.386 . S
H611 C627 0.930 . S
H612 C628 0.931 . S
C613 H601 0.929 . S
C613 C607 1.390 . S
C613 C610 1.386 . S
C614 C609 1.490 . S
C614 C616 1.395 . S
C614 C617 1.403 . S
H615 C621 0.930 . S
C616 H602 0.930 . S
C616 C614 1.395 . S
C616 C619 1.403 . S
C617 C614 1.403 . S
C617 C618 1.524 . S
C617 C621 1.400 . S
C618 H603 0.960 . S
C618 H604 0.960 . S
C618 H605 0.960 . S
C618 C617 1.524 . S
C619 C616 1.403 . S
C619 C620 1.392 . S
C619 C623 1.495 . S
C620 C619 1.392 . S
C620 C621 1.385 . S
C620 C622 1.478 . S
C621 H615 0.930 . S
C621 C617 1.400 . S
C621 C620 1.385 . S
C622 C620 1.478 . S
C622 C624 1.381 . S
C622 C628 1.383 . S
C623 C619 1.495 . S
C623 H629 0.959 . S
C623 H630 0.961 . S
C623 H631 0.960 . S
C624 C622 1.381 . S
C624 C625 1.394 . S
C624 H632 0.930 . S
C625 C624 1.394 . S
C625 C626 1.383 . S
C625 H633 0.929 . S
C626 C625 1.383 . S
C626 C627 1.377 . S
C627 H611 0.930 . S
C627 C626 1.377 . S
C627 C628 1.379 . S
C628 H612 0.931 . S
C628 C622 1.383 . S
C628 C627 1.379 . S
H629 C623 0.959 . S
H630 C623 0.961 . S
H631 C623 0.960 . S
H632 C624 0.930 . S
H633 C625 0.929 . S
C230 C167 1.417 . S
C211 C15 1.536 . S
C266 C163 1.397 . S
C247 C55 1.534 . S
C302 C188 1.450 . S
C283 C95 1.531 . S
C319 C135 1.526 . S
C338 C184 1.467 . S
C355 C21 1.071 . S
C374 C185 1.036 . S
C410 C200 1.058 . S
C391 C42 1.117 . S
C427 C2 1.724 . S
C446 C201 1.638 . S
C482 C197 1.646 . S
C463 C61 1.780 . S
C518 C164 0.955 . S
C499 C101 1.056 . S
C535 C122 1.117 . S
C554 C179 1.056 . S
C590 C180 1.621 . S
C571 C82 1.729 . S
C626 C176 1.605 1_655 S
C607 C141 1.778 . S
