# Generated by pormake.
# Topology rtl, (3,6)-cn, num edge types: 1
# Building blocks:
#     Node 0, Type 0, BuildingBlock: OLANEW_clean_sbu_2, # of connection points: 3
#     Node 1, Type 0, BuildingBlock: OLANEW_clean_sbu_2, # of connection points: 3
#     Node 2, Type 0, BuildingBlock: OLANEW_clean_sbu_2, # of connection points: 3
#     Node 3, Type 0, BuildingBlock: OLANEW_clean_sbu_2, # of connection points: 3
#     Node 4, Type 1, BuildingBlock: FUNLAD_clean_sbu_0, # of connection points: 6
#     Node 5, Type 1, BuildingBlock: FUNLAD_clean_sbu_0, # of connection points: 6
#     Edge 6, Type (0, 1), BuildingBlock: KIFKEQ_clean_linker_1, # of connection points: 2
#     Edge 7, Type (0, 1), BuildingBlock: KIFKEQ_clean_linker_1, # of connection points: 2
#     Edge 8, Type (0, 1), BuildingBlock: KIFKEQ_clean_linker_1, # of connection points: 2
#     Edge 9, Type (0, 1), BuildingBlock: KIFKEQ_clean_linker_1, # of connection points: 2
#     Edge 10, Type (0, 1), BuildingBlock: KIFKEQ_clean_linker_1, # of connection points: 2
#     Edge 11, Type (0, 1), BuildingBlock: KIFKEQ_clean_linker_1, # of connection points: 2
#     Edge 12, Type (0, 1), BuildingBlock: KIFKEQ_clean_linker_1, # of connection points: 2
#     Edge 13, Type (0, 1), BuildingBlock: KIFKEQ_clean_linker_1, # of connection points: 2
#     Edge 14, Type (0, 1), BuildingBlock: KIFKEQ_clean_linker_1, # of connection points: 2
#     Edge 15, Type (0, 1), BuildingBlock: KIFKEQ_clean_linker_1, # of connection points: 2
#     Edge 16, Type (0, 1), BuildingBlock: KIFKEQ_clean_linker_1, # of connection points: 2
#     Edge 17, Type (0, 1), BuildingBlock: KIFKEQ_clean_linker_1, # of connection points: 2
# Relax obj value: 0.013
# Max RMSD: 0.078
# Mean RMSD: 0.051
data_MOF--net-rtl--node1-OLANEW_clean_sbu_2--node2-FUNLAD_clean_sbu_0--edge1-KIFKEQ_clean_linker_1
_symmetry_space_group_name_H-M    P1
_symmetry_Int_Tables_number       1
_symmetry_cell_setting            triclinic
loop_
_symmetry_equiv_pos_as_xyz
'x, y, z'
_cell_length_a     44.168574
_cell_length_b     41.572241
_cell_length_c     22.950598
_cell_angle_alpha  87.07592
_cell_angle_beta   93.776011
_cell_angle_gamma 90.123912
loop_
_atom_site_label
_atom_site_type_symbol
_atom_site_fract_x
_atom_site_fract_y
_atom_site_fract_z
_atom_type_partial_charge
O0 O 0.13854 0.79468 0.96008 0.0
Cd1 Cd 0.15398 0.76137 0.04782 0.0
O2 O 0.15879 0.83806 0.99738 0.0
Cd3 Cd 0.16405 0.81768 0.08681 0.0
O4 O 0.14508 0.8342 0.16548 0.0
C5 C 0.13622 0.86332 0.15896 0.0
O6 O 0.1402 0.87918 0.10903 0.0
C7 C 0.14558 0.82431 0.95453 0.0
C8 C 0.20525 0.72451 0.03172 0.0
O9 O 0.17849 0.7133 0.02136 0.0
O10 O 0.20775 0.75314 0.04972 0.0
O11 O 0.63601 0.74326 0.70376 0.0
Cd12 Cd 0.64792 0.79113 0.64298 0.0
O13 O 0.6295 0.71544 0.62557 0.0
Cd14 Cd 0.61403 0.67613 0.57104 0.0
O15 O 0.59982 0.64623 0.49848 0.0
C16 C 0.59056 0.66063 0.45043 0.0
O17 O 0.58973 0.69227 0.44719 0.0
C18 C 0.62839 0.71706 0.6806 0.0
C19 C 0.70894 0.80631 0.63276 0.0
O20 O 0.69492 0.81484 0.67665 0.0
O21 O 0.69439 0.7896 0.5947 0.0
O22 O 0.83241 0.17258 0.1498 0.0
Cd23 Cd 0.80282 0.18615 0.05807 0.0
O24 O 0.87464 0.1946 0.12154 0.0
Cd25 Cd 0.85718 0.20231 0.031 0.0
O26 O 0.87024 0.18122 0.95132 0.0
C27 C 0.89713 0.17014 0.95661 0.0
O28 O 0.9133 0.17367 0.00604 0.0
C29 C 0.86007 0.17998 0.16079 0.0
C30 C 0.76529 0.23961 0.06374 0.0
O31 O 0.75755 0.21173 0.08406 0.0
O32 O 0.79098 0.24241 0.04106 0.0
O33 O 0.36424 0.31799 0.59285 0.0
Cd34 Cd 0.3452 0.28533 0.51245 0.0
O35 O 0.41051 0.29962 0.58601 0.0
Cd36 Cd 0.39952 0.27694 0.50391 0.0
O37 O 0.40036 0.29311 0.4124 0.0
C38 C 0.3902 0.32147 0.40104 0.0
O39 O 0.37815 0.33657 0.44284 0.0
C40 C 0.39205 0.31681 0.61131 0.0
C41 C 0.29294 0.24977 0.53196 0.0
O42 O 0.31906 0.23969 0.5527 0.0
O43 O 0.29143 0.27701 0.5031 0.0
C44 C 0.03376 0.97761 0.46998 0.0
N45 N 0.06549 0.05825 0.55875 0.0
C46 C 0.09341 0.04719 0.54753 0.0
C47 C 0.11805 0.06824 0.54563 0.0
C48 C 0.11404 0.10076 0.55667 0.0
C49 C 0.0852 0.11149 0.56904 0.0
C50 C 0.06102 0.08978 0.56923 0.0
Zn51 Zn 0.02952 0.02698 0.55928 0.0
C52 C 0.97787 0.05032 0.47861 0.0
N53 N 0.95451 0.96171 0.55987 0.0
C54 C 0.95904 0.92928 0.56581 0.0
C55 C 0.92604 0.97442 0.55708 0.0
C56 C 0.90079 0.95436 0.5605 0.0
C57 C 0.90484 0.92091 0.56784 0.0
C58 C 0.93439 0.90834 0.5704 0.0
Zn59 Zn 0.99073 0.99261 0.55864 0.0
O60 O 0.0462 0.00286 0.48934 0.0
C61 C 0.04246 0.96933 0.63922 0.0
O62 O 0.00959 0.96711 0.4915 0.0
H63 H 0.92289 1.00024 0.55315 0.0
H64 H 0.0966 0.02202 0.53986 0.0
H65 H 0.98182 0.91963 0.56777 0.0
O66 O 0.05452 0.9951 0.61949 0.0
O67 O 0.0153 0.9627 0.62224 0.0
H68 H 0.03864 0.09821 0.57747 0.0
O69 O 0.97241 0.01857 0.62582 0.0
O70 O 0.01206 0.05042 0.62907 0.0
O71 O 0.96698 0.02325 0.49486 0.0
O72 O 0.00405 0.05844 0.49912 0.0
C73 C 0.98661 0.04218 0.64778 0.0
H74 H 0.14009 0.05916 0.53626 0.0
H75 H 0.08131 0.13652 0.57732 0.0
H76 H 0.87836 0.96498 0.55908 0.0
H77 H 0.93835 0.88262 0.57575 0.0
C78 C 0.47669 0.46853 0.91117 0.0
N79 N 0.5575 0.45784 0.01735 0.0
C80 C 0.55236 0.42607 0.0091 0.0
C81 C 0.57608 0.40392 0.01604 0.0
C82 C 0.60554 0.41417 0.03316 0.0
C83 C 0.61028 0.4472 0.04113 0.0
C84 C 0.58585 0.46874 0.03264 0.0
Zn85 Zn 0.52066 0.48809 0.00883 0.0
C86 C 0.52873 0.54506 0.92841 0.0
N87 N 0.44137 0.54756 0.99149 0.0
C88 C 0.41314 0.53462 0.98405 0.0
C89 C 0.44528 0.57973 0.99748 0.0
C90 C 0.42021 0.60011 0.99763 0.0
C91 C 0.39078 0.58733 0.99132 0.0
C92 C 0.38742 0.55417 0.98364 0.0
Zn93 Zn 0.47867 0.51811 -0.00155 0.0
O94 O 0.50244 0.46248 0.93733 0.0
C95 C 0.47068 0.46124 0.07866 0.0
O96 O 0.46113 0.49194 0.92663 0.0
H97 H 0.46791 0.58956 0.0032 0.0
H98 H 0.52967 0.4177 0.99758 0.0
H99 H 0.41053 0.50897 0.97967 0.0
O100 O 0.49793 0.45653 0.06662 0.0
O101 O 0.45656 0.48589 0.05603 0.0
H102 H 0.58948 0.49408 0.03914 0.0
O103 O 0.49656 0.54351 0.07105 0.0
O104 O 0.53788 0.51402 0.08089 0.0
O105 O 0.50152 0.54982 0.94098 0.0
O106 O 0.54291 0.52028 0.95065 0.0
C107 C 0.52204 0.53679 0.09791 0.0
H108 H 0.57123 0.37895 0.00789 0.0
H109 H 0.63243 0.45632 0.05493 0.0
H110 H 0.42382 0.6256 0.00291 0.0
H111 H 0.36515 0.54326 0.9792 0.0
H112 H 0.28421 0.20202 0.61535 0.0
H113 H 0.24005 0.25226 0.46367 0.0
H114 H 0.23978 0.167 0.62314 0.0
H115 H 0.19609 0.21662 0.47073 0.0
H116 H 0.14992 0.11301 0.46639 0.0
H117 H 0.19241 0.15097 0.46217 0.0
H118 H 0.17893 0.17693 0.63828 0.0
H119 H 0.13584 0.13955 0.64194 0.0
C120 C 0.265 0.20563 0.58387 0.0
C121 C 0.26555 0.22984 0.53891 0.0
C122 C 0.23962 0.1857 0.58848 0.0
C123 C 0.21472 0.18917 0.5474 0.0
C124 C 0.21514 0.21349 0.50274 0.0
C125 C 0.24019 0.23391 0.49893 0.0
C126 C 0.15607 0.1269 0.50407 0.0
C127 C 0.13975 0.12349 0.55447 0.0
C128 C 0.18018 0.14863 0.50156 0.0
C129 C 0.18877 0.16676 0.5499 0.0
C130 C 0.17267 0.16312 0.60057 0.0
C131 C 0.14809 0.14191 0.60258 0.0
H132 H 0.26466 0.74322 0.04124 0.0
H133 H 0.20743 0.66145 0.00362 0.0
H134 H 0.30947 0.7109 0.02857 0.0
H135 H 0.25227 0.62883 0.9926 0.0
H136 H 0.33763 0.58774 0.92264 0.0
H137 H 0.293 0.62144 0.93014 0.0
H138 H 0.33823 0.66731 0.07661 0.0
H139 H 0.38286 0.63399 0.06847 0.0
C140 C 0.26164 0.7183 0.03049 0.0
C141 C 0.23247 0.70491 0.02353 0.0
C142 C 0.28736 0.6997 0.02353 0.0
C143 C 0.28454 0.66719 0.00973 0.0
C144 C 0.25531 0.65388 0.00241 0.0
C145 C 0.22958 0.67254 0.00911 0.0
C146 C 0.33796 0.60499 0.95648 0.0
C147 C 0.3638 0.60825 0.99485 0.0
C148 C 0.31237 0.62427 0.9609 0.0
C149 C 0.31197 0.64713 0.004 0.0
C150 C 0.3379 0.6504 0.04222 0.0
C151 C 0.3635 0.63126 0.0376 0.0
H152 H 0.74902 0.83256 0.71282 0.0
H153 H 0.7395 0.80564 0.53316 0.0
H154 H 0.79852 0.85623 0.69564 0.0
H155 H 0.78891 0.82962 0.51602 0.0
H156 H 0.85206 0.92072 0.49928 0.0
H157 H 0.80665 0.88849 0.51483 0.0
H158 H 0.85207 0.8411 0.66796 0.0
H159 H 0.89764 0.87331 0.6522 0.0
C160 C 0.75765 0.83134 0.66989 0.0
C161 C 0.74029 0.81737 0.62428 0.0
C162 C 0.78604 0.84476 0.66016 0.0
C163 C 0.79744 0.84487 0.60443 0.0
C164 C 0.78052 0.83005 0.55928 0.0
C165 C 0.75233 0.8162 0.56922 0.0
C166 C 0.85238 0.90321 0.53594 0.0
C167 C 0.87828 0.89953 0.57462 0.0
C168 C 0.82652 0.88463 0.5446 0.0
C169 C 0.82588 0.86233 0.59262 0.0
C170 C 0.85196 0.85822 0.63075 0.0
C171 C 0.87803 0.87646 0.62153 0.0
H172 H 0.76267 0.29361 0.99082 0.0
H173 H 0.72126 0.24824 0.13901 0.0
H174 H 0.72546 0.33695 0.98686 0.0
H175 H 0.68528 0.29249 0.13795 0.0
H176 H 0.6027 0.35181 0.07751 0.0
H177 H 0.64226 0.31158 0.0863 0.0
H178 H 0.70647 0.38253 0.0262 0.0
H179 H 0.66592 0.4222 0.01194 0.0
C180 C 0.74593 0.29329 0.02328 0.0
C181 C 0.74462 0.26742 0.06482 0.0
C182 C 0.72466 0.31827 0.02135 0.0
C183 C 0.70198 0.31829 0.06175 0.0
C184 C 0.70172 0.29299 0.10497 0.0
C185 C 0.72252 0.26768 0.10598 0.0
C186 C 0.62509 0.35885 0.06513 0.0
C187 C 0.6308 0.39031 0.04302 0.0
C188 C 0.64811 0.33578 0.0714 0.0
C189 C 0.67783 0.34358 0.05713 0.0
C190 C 0.68383 0.37534 0.03676 0.0
C191 C 0.66058 0.39834 0.02943 0.0
H192 H 0.11974 0.92628 0.15968 0.0
H193 H 0.11827 0.83647 0.26302 0.0
H194 H 0.09422 0.953 0.23449 0.0
H195 H 0.09277 0.86354 0.33855 0.0
H196 H 0.01799 0.919 0.42719 0.0
H197 H 0.04274 0.89042 0.35264 0.0
H198 H 0.10678 0.96846 0.33569 0.0
H199 H 0.08212 0.99703 0.4094 0.0
C200 C 0.11405 0.91222 0.19847 0.0
C201 C 0.12113 0.87925 0.20547 0.0
C202 C 0.09952 0.9276 0.24146 0.0
C203 C 0.09158 0.9104 0.29245 0.0
C204 C 0.09842 0.87734 0.29944 0.0
C205 C 0.11319 0.86192 0.25644 0.0
C206 C 0.03728 0.93007 0.40734 0.0
C207 C 0.04799 0.96035 0.42402 0.0
C208 C 0.05157 0.9136 0.36503 0.0
C209 C 0.07665 0.92724 0.33829 0.0
C210 C 0.08728 0.9575 0.355 0.0
C211 C 0.07318 0.97382 0.39742 0.0
H212 H 0.63007 0.65179 0.66527 0.0
H213 H 0.59891 0.72233 0.77951 0.0
H214 H 0.60608 0.60904 0.72349 0.0
H215 H 0.57572 0.67977 0.83821 0.0
H216 H 0.50653 0.60295 0.88372 0.0
H217 H 0.53169 0.64317 0.82319 0.0
H218 H 0.61041 0.58165 0.82476 0.0
H219 H 0.58512 0.54103 0.88544 0.0
C220 C 0.6179 0.6582 0.70238 0.0
C221 C 0.61578 0.6905 0.71699 0.0
C222 C 0.60454 0.63369 0.73619 0.0
C223 C 0.58869 0.64112 0.78498 0.0
C224 C 0.5873 0.67334 0.80028 0.0
C225 C 0.60081 0.69769 0.76689 0.0
C226 C 0.52915 0.59784 0.87105 0.0
C227 C 0.54384 0.56879 0.88965 0.0
C228 C 0.54363 0.621 0.8366 0.0
C229 C 0.57311 0.61567 0.81958 0.0
C230 C 0.58762 0.58634 0.83697 0.0
C231 C 0.57319 0.56318 0.87192 0.0
H232 H 0.92094 0.18256 0.19022 0.0
H233 H 0.83626 0.1491 0.2556 0.0
H234 H 0.94871 0.15385 0.27168 0.0
H235 H 0.86408 0.12116 0.33836 0.0
H236 H 0.92374 0.03805 0.41966 0.0
H237 H 0.89469 0.07353 0.34953 0.0
H238 H 0.96175 0.14831 0.3745 0.0
H239 H 0.99137 0.11234 0.44352 0.0
C240 C 0.90818 0.16973 0.22277 0.0
C241 C 0.87637 0.16781 0.21595 0.0
C242 C 0.92415 0.15332 0.26971 0.0
C243 C 0.90867 0.13478 0.31119 0.0
C244 C 0.87675 0.13459 0.30643 0.0
C245 C 0.86077 0.15085 0.25925 0.0
C246 C 0.93229 0.06207 0.4103 0.0
C247 C 0.95999 0.07227 0.43685 0.0
C248 C 0.91545 0.08258 0.37048 0.0
C249 C 0.92579 0.11388 0.35648 0.0
C250 C 0.95329 0.12424 0.38375 0.0
C251 C 0.97024 0.10364 0.4234 0.0
H252 H 0.45112 0.32819 0.64552 0.0
H253 H 0.3596 0.35273 0.68285 0.0
H254 H 0.47099 0.36542 0.71625 0.0
H255 H 0.37963 0.38928 0.756 0.0
H256 H 0.42582 0.47713 0.83666 0.0
H257 H 0.40483 0.43992 0.76553 0.0
H258 H 0.47763 0.37288 0.81676 0.0
H259 H 0.49913 0.41043 0.88549 0.0
C260 C 0.43519 0.34113 0.66961 0.0
C261 C 0.40373 0.3374 0.65856 0.0
C262 C 0.44663 0.36248 0.71048 0.0
C263 C 0.42697 0.38041 0.74208 0.0
C264 C 0.39545 0.37626 0.73183 0.0
C265 C 0.38396 0.35507 0.69032 0.0
C266 C 0.43742 0.45454 0.83223 0.0
C267 C 0.46428 0.44688 0.86631 0.0
C268 C 0.42524 0.43305 0.79191 0.0
C269 C 0.43952 0.40333 0.78526 0.0
C270 C 0.4663 0.39575 0.81971 0.0
C271 C 0.47862 0.41731 0.85938 0.0
H272 H 0.59178 0.59524 0.44015 0.0
H273 H 0.56777 0.6845 0.34352 0.0
H274 H 0.57565 0.56529 0.35469 0.0
H275 H 0.55209 0.65462 0.25814 0.0
H276 H 0.49473 0.58833 0.14187 0.0
H277 H 0.51156 0.61777 0.22713 0.0
H278 H 0.59051 0.55638 0.2549 0.0
H279 H 0.57347 0.52653 0.16987 0.0
C280 C 0.58314 0.60848 0.4007 0.0
C281 C 0.58099 0.64226 0.39873 0.0
C282 C 0.57408 0.59133 0.35163 0.0
C283 C 0.56256 0.60758 0.29966 0.0
C284 C 0.5605 0.64135 0.29773 0.0
C285 C 0.56964 0.65849 0.34664 0.0
C286 C 0.51571 0.58109 0.16606 0.0
C287 C 0.53275 0.55506 0.14903 0.0
C288 C 0.52543 0.5981 0.21478 0.0
C289 C 0.55239 0.58944 0.24776 0.0
C290 C 0.56947 0.56342 0.23076 0.0
C291 C 0.5598 0.54645 0.18183 0.0
H292 H 0.95465 0.14717 0.9542 0.0
H293 H 0.8685 0.15253 0.85327 0.0
H294 H 0.97568 0.11611 0.87954 0.0
H295 H 0.88984 0.12159 0.77784 0.0
H296 H 0.93074 0.03445 0.69183 0.0
H297 H 0.90863 0.06606 0.76528 0.0
H298 H 0.98996 0.12384 0.77836 0.0
H299 H 0.0122 0.09216 0.70575 0.0
C300 C 0.94022 0.14189 0.91589 0.0
C301 C 0.90989 0.15235 0.90966 0.0
C302 C 0.95235 0.12419 0.87295 0.0
C303 C 0.93444 0.11643 0.82279 0.0
C304 C 0.9041 0.12695 0.81634 0.0
C305 C 0.89196 0.14484 0.8593 0.0
C306 C 0.94393 0.05382 0.71058 0.0
C307 C 0.97329 0.06068 0.69318 0.0
C308 C 0.93116 0.07208 0.75226 0.0
C309 C 0.94756 0.09742 0.77758 0.0
C310 C 0.9769 0.10422 0.76016 0.0
C311 C 0.9896 0.0861 0.7184 0.0
H312 H 0.41873 0.29941 0.30834 0.0
H313 H 0.37551 0.38372 0.3682 0.0
H314 H 0.43473 0.33109 0.22333 0.0
H315 H 0.39215 0.41543 0.28443 0.0
H316 H 0.41198 0.4623 0.11005 0.0
H317 H 0.38824 0.42576 0.18004 0.0
H318 H 0.47229 0.37258 0.20974 0.0
H319 H 0.49571 0.40847 0.13887 0.0
C320 C 0.41233 0.32458 0.30303 0.0
C321 C 0.39613 0.33913 0.34536 0.0
C322 C 0.42168 0.34278 0.25454 0.0
C323 C 0.41506 0.37589 0.24745 0.0
C324 C 0.39745 0.38996 0.2882 0.0
C325 C 0.38805 0.37177 0.33652 0.0
C326 C 0.4253 0.44266 0.13124 0.0
C327 C 0.45579 0.43844 0.11924 0.0
C328 C 0.41172 0.42178 0.17144 0.0
C329 C 0.42837 0.39628 0.2006 0.0
C330 C 0.45864 0.39165 0.18745 0.0
C331 C 0.47218 0.41244 0.14717 0.0
H332 H 0.11331 0.80454 0.85656 0.0
H333 H 0.15477 0.88854 0.93164 0.0
H334 H 0.09106 0.83845 0.77495 0.0
H335 H 0.13197 0.92235 0.85121 0.0
H336 H 0.10204 0.97382 0.67901 0.0
H337 H 0.13053 0.93699 0.74825 0.0
H338 H 0.05061 0.87779 0.76355 0.0
H339 H 0.0224 0.91406 0.69337 0.0
C340 C 0.11799 0.83014 0.85536 0.0
C341 C 0.13562 0.84383 0.90092 0.0
C342 C 0.10503 0.84961 0.80883 0.0
C343 C 0.10943 0.88317 0.80689 0.0
C344 C 0.1283 0.89659 0.85099 0.0
C345 C 0.14128 0.87716 0.89736 0.0
C346 C 0.09059 0.95288 0.69703 0.0
C347 C 0.0599 0.94698 0.68095 0.0
C348 C 0.1069 0.9318 0.7368 0.0
C349 C 0.09287 0.90441 0.76145 0.0
C350 C 0.06228 0.89834 0.74471 0.0
C351 C 0.04601 0.91934 0.70486 0.0
loop_
_geom_bond_atom_site_label_1
_geom_bond_atom_site_label_2
_geom_bond_distance
_geom_bond_site_symmetry_2
_ccdc_geom_bond_type
O0 Cd1 2.300 1_556 S
O0 C7 1.275 . S
Cd1 O0 2.300 1_554 S
Cd1 O9 2.381 . S
Cd1 O10 2.378 . S
O2 Cd3 2.385 . S
O2 C7 1.255 1_554 S
Cd3 O2 2.385 . S
Cd3 O4 2.317 . S
O4 Cd3 2.317 . S
O4 C5 1.232 . S
C5 O4 1.232 . S
C5 O6 1.218 . S
O6 C5 1.218 . S
C7 O0 1.275 . S
C7 O2 1.255 1_556 S
C8 O9 1.258 . S
C8 O10 1.256 . S
O9 Cd1 2.381 . S
O9 C8 1.258 . S
O10 Cd1 2.378 . S
O10 C8 1.256 . S
O11 Cd12 2.300 . S
O11 C18 1.275 . S
Cd12 O11 2.300 . S
Cd12 O20 2.381 . S
Cd12 O21 2.378 . S
O13 Cd14 2.385 . S
O13 C18 1.255 . S
Cd14 O13 2.385 . S
Cd14 O15 2.317 . S
O15 Cd14 2.317 . S
O15 C16 1.232 . S
C16 O15 1.232 . S
C16 O17 1.218 . S
O17 C16 1.218 . S
C18 O11 1.275 . S
C18 O13 1.255 . S
C19 O20 1.258 . S
C19 O21 1.256 . S
O20 Cd12 2.381 . S
O20 C19 1.258 . S
O21 Cd12 2.378 . S
O21 C19 1.256 . S
O22 Cd23 2.300 . S
O22 C29 1.275 . S
Cd23 O22 2.300 . S
Cd23 O31 2.381 . S
Cd23 O32 2.378 . S
O24 Cd25 2.385 . S
O24 C29 1.255 . S
Cd25 O24 2.385 . S
Cd25 O26 2.317 1_554 S
O26 Cd25 2.317 1_556 S
O26 C27 1.232 . S
C27 O26 1.232 . S
C27 O28 1.218 . S
O28 C27 1.218 . S
C29 O22 1.275 . S
C29 O24 1.255 . S
C30 O31 1.258 . S
C30 O32 1.256 . S
O31 Cd23 2.381 . S
O31 C30 1.258 . S
O32 Cd23 2.378 . S
O32 C30 1.256 . S
O33 Cd34 2.300 . S
O33 C40 1.275 . S
Cd34 O33 2.300 . S
Cd34 O42 2.381 . S
Cd34 O43 2.378 . S
O35 Cd36 2.385 . S
O35 C40 1.255 . S
Cd36 O35 2.385 . S
Cd36 O37 2.317 . S
O37 Cd36 2.317 . S
O37 C38 1.232 . S
C38 O37 1.232 . S
C38 O39 1.218 . S
O39 C38 1.218 . S
C40 O33 1.275 . S
C40 O35 1.255 . S
C41 O42 1.258 . S
C41 O43 1.256 . S
O42 Cd34 2.381 . S
O42 C41 1.258 . S
O43 Cd34 2.378 . S
O43 C41 1.256 . S
C44 O60 1.251 . S
C44 O62 1.254 . S
N45 C46 1.333 . S
N45 C50 1.307 . S
N45 Zn51 2.020 . S
C46 N45 1.333 . S
C46 C47 1.379 . S
C46 H64 0.952 . S
C47 C46 1.379 . S
C47 C48 1.390 . S
C47 H74 0.949 . S
C48 C47 1.390 . S
C48 C49 1.357 . S
C49 C48 1.357 . S
C49 C50 1.370 . S
C49 H75 0.950 . S
C50 N45 1.307 . S
C50 C49 1.370 . S
C50 H68 0.948 . S
Zn51 N45 2.020 . S
Zn51 O60 2.039 1_545 S
Zn51 O66 2.034 1_545 S
Zn51 O70 2.039 . S
Zn51 O72 2.014 1_455 S
C52 O71 1.246 . S
C52 O72 1.266 . S
N53 C54 1.307 . S
N53 C55 1.333 . S
N53 Zn59 2.020 . S
C54 N53 1.307 . S
C54 C58 1.370 . S
C54 H65 0.948 . S
C55 N53 1.333 . S
C55 C56 1.379 . S
C55 H63 0.952 . S
C56 C55 1.379 . S
C56 C57 1.390 . S
C56 H76 0.949 . S
C57 C56 1.390 . S
C57 C58 1.357 . S
C58 C54 1.370 . S
C58 C57 1.357 . S
C58 H77 0.950 . S
Zn59 N53 2.020 . S
Zn59 O62 2.025 1_655 S
Zn59 O67 2.024 1_655 S
Zn59 O69 2.039 1_565 S
Zn59 O71 2.034 1_565 S
O60 C44 1.251 . S
O60 Zn51 2.039 1_565 S
C61 O66 1.246 . S
C61 O67 1.249 . S
O62 C44 1.254 . S
O62 Zn59 2.025 1_455 S
H63 C55 0.952 . S
H64 C46 0.952 . S
H65 C54 0.948 . S
O66 Zn51 2.034 1_565 S
O66 C61 1.246 . S
O67 Zn59 2.024 1_455 S
O67 C61 1.249 . S
H68 C50 0.948 . S
O69 Zn59 2.039 1_545 S
O69 C73 1.251 . S
O70 Zn51 2.039 . S
O70 C73 1.235 1_455 S
O71 C52 1.246 . S
O71 Zn59 2.034 1_545 S
O72 Zn51 2.014 1_655 S
O72 C52 1.266 . S
C73 O69 1.251 . S
C73 O70 1.235 1_655 S
H74 C47 0.949 . S
H75 C49 0.950 . S
H76 C56 0.949 . S
H77 C58 0.950 . S
C78 O94 1.251 . S
C78 O96 1.254 . S
N79 C80 1.333 . S
N79 C84 1.307 . S
N79 Zn85 2.020 . S
C80 N79 1.333 . S
C80 C81 1.379 . S
C80 H98 0.952 1_554 S
C81 C80 1.379 . S
C81 C82 1.390 . S
C81 H108 0.949 1_554 S
C82 C81 1.390 . S
C82 C83 1.357 . S
C83 C82 1.357 . S
C83 C84 1.370 . S
C83 H109 0.950 . S
C84 N79 1.307 . S
C84 C83 1.370 . S
C84 H102 0.948 . S
Zn85 N79 2.020 . S
Zn85 O94 2.039 1_554 S
Zn85 O100 2.034 . S
Zn85 O104 2.025 . S
Zn85 O106 2.024 1_554 S
C86 O105 1.246 . S
C86 O106 1.249 . S
N87 C88 1.305 1_554 S
N87 C89 1.333 . S
N87 Zn93 2.020 . S
C88 N87 1.305 1_556 S
C88 C92 1.369 . S
C88 H99 0.952 . S
C89 N87 1.333 . S
C89 C90 1.379 . S
C89 H97 0.952 . S
C90 C89 1.379 . S
C90 C91 1.390 . S
C90 H110 0.949 . S
C91 C90 1.390 . S
C91 C92 1.357 1_554 S
C92 C88 1.369 . S
C92 C91 1.357 1_556 S
C92 H111 0.950 . S
Zn93 N87 2.020 . S
Zn93 O96 2.025 1_554 S
Zn93 O101 2.024 . S
Zn93 O103 2.039 . S
Zn93 O105 2.034 1_554 S
O94 C78 1.251 . S
O94 Zn85 2.039 1_556 S
C95 O100 1.246 . S
C95 O101 1.249 . S
O96 C78 1.254 . S
O96 Zn93 2.025 1_556 S
H97 C89 0.952 . S
H98 C80 0.952 1_556 S
H99 C88 0.952 . S
O100 Zn85 2.034 . S
O100 C95 1.246 . S
O101 Zn93 2.024 . S
O101 C95 1.249 . S
H102 C84 0.948 . S
O103 Zn93 2.039 . S
O103 C107 1.251 . S
O104 Zn85 2.025 . S
O104 C107 1.254 . S
O105 C86 1.246 . S
O105 Zn93 2.034 1_556 S
O106 Zn85 2.024 1_556 S
O106 C86 1.249 . S
C107 O103 1.251 . S
C107 O104 1.254 . S
H108 C81 0.949 1_556 S
H109 C83 0.950 . S
H110 C90 0.949 . S
H111 C92 0.950 . S
H112 C120 0.950 . S
H113 C125 0.950 . S
H114 C122 0.950 . S
H115 C124 0.950 . S
H116 C126 0.950 . S
H117 C128 0.950 . S
H118 C130 0.950 . S
H119 C131 0.950 . S
C120 H112 0.950 . S
C120 C121 1.386 . S
C120 C122 1.391 . S
C121 C120 1.386 . S
C121 C125 1.393 . S
C122 H114 0.950 . S
C122 C120 1.391 . S
C122 C123 1.400 . S
C123 C122 1.400 . S
C123 C124 1.398 . S
C123 C129 1.491 . S
C124 H115 0.950 . S
C124 C123 1.398 . S
C124 C125 1.391 . S
C125 H113 0.950 . S
C125 C121 1.393 . S
C125 C124 1.391 . S
C126 H116 0.950 . S
C126 C127 1.386 . S
C126 C128 1.391 . S
C127 C126 1.386 . S
C127 C131 1.393 . S
C128 H117 0.950 . S
C128 C126 1.391 . S
C128 C129 1.400 . S
C129 C123 1.491 . S
C129 C128 1.400 . S
C129 C130 1.398 . S
C130 H118 0.950 . S
C130 C129 1.398 . S
C130 C131 1.391 . S
C131 H119 0.950 . S
C131 C127 1.393 . S
C131 C130 1.391 . S
H132 C140 0.950 . S
H133 C145 0.950 1_556 S
H134 C142 0.950 . S
H135 C144 0.950 1_556 S
H136 C146 0.950 . S
H137 C148 0.950 . S
H138 C150 0.950 . S
H139 C151 0.950 . S
C140 H132 0.950 . S
C140 C141 1.386 . S
C140 C142 1.391 . S
C141 C140 1.386 . S
C141 C145 1.393 . S
C142 H134 0.950 . S
C142 C140 1.391 . S
C142 C143 1.400 . S
C143 C142 1.400 . S
C143 C144 1.398 . S
C143 C149 1.491 . S
C144 H135 0.950 1_554 S
C144 C143 1.398 . S
C144 C145 1.391 . S
C145 H133 0.950 1_554 S
C145 C141 1.393 . S
C145 C144 1.391 . S
C146 H136 0.950 . S
C146 C147 1.386 1_556 S
C146 C148 1.391 . S
C147 C146 1.386 1_554 S
C147 C151 1.393 . S
C148 H137 0.950 . S
C148 C146 1.391 . S
C148 C149 1.400 1_556 S
C149 C143 1.491 . S
C149 C148 1.400 1_554 S
C149 C150 1.398 . S
C150 H138 0.950 . S
C150 C149 1.398 . S
C150 C151 1.391 . S
C151 H139 0.950 . S
C151 C147 1.393 . S
C151 C150 1.391 . S
H152 C160 0.950 . S
H153 C165 0.950 . S
H154 C162 0.950 . S
H155 C164 0.950 . S
H156 C166 0.950 . S
H157 C168 0.950 . S
H158 C170 0.950 . S
H159 C171 0.950 . S
C160 H152 0.950 . S
C160 C161 1.386 . S
C160 C162 1.391 . S
C161 C160 1.386 . S
C161 C165 1.393 . S
C162 H154 0.950 . S
C162 C160 1.391 . S
C162 C163 1.400 . S
C163 C162 1.400 . S
C163 C164 1.398 . S
C163 C169 1.491 . S
C164 H155 0.950 . S
C164 C163 1.398 . S
C164 C165 1.391 . S
C165 H153 0.950 . S
C165 C161 1.393 . S
C165 C164 1.391 . S
C166 H156 0.950 . S
C166 C167 1.386 . S
C166 C168 1.391 . S
C167 C166 1.386 . S
C167 C171 1.393 . S
C168 H157 0.950 . S
C168 C166 1.391 . S
C168 C169 1.400 . S
C169 C163 1.491 . S
C169 C168 1.400 . S
C169 C170 1.398 . S
C170 H158 0.950 . S
C170 C169 1.398 . S
C170 C171 1.391 . S
C171 H159 0.950 . S
C171 C167 1.393 . S
C171 C170 1.391 . S
H172 C180 0.950 . S
H173 C185 0.950 . S
H174 C182 0.950 1_556 S
H175 C184 0.950 . S
H176 C186 0.950 . S
H177 C188 0.950 . S
H178 C190 0.950 1_556 S
H179 C191 0.950 1_556 S
C180 H172 0.950 . S
C180 C181 1.386 . S
C180 C182 1.391 . S
C181 C180 1.386 . S
C181 C185 1.393 . S
C182 H174 0.950 1_554 S
C182 C180 1.391 . S
C182 C183 1.400 . S
C183 C182 1.400 . S
C183 C184 1.398 . S
C183 C189 1.491 . S
C184 H175 0.950 . S
C184 C183 1.398 . S
C184 C185 1.391 . S
C185 H173 0.950 . S
C185 C181 1.393 . S
C185 C184 1.391 . S
C186 H176 0.950 . S
C186 C187 1.386 . S
C186 C188 1.391 . S
C187 C186 1.386 . S
C187 C191 1.393 . S
C188 H177 0.950 . S
C188 C186 1.391 . S
C188 C189 1.400 . S
C189 C183 1.491 . S
C189 C188 1.400 . S
C189 C190 1.398 . S
C190 H178 0.950 1_554 S
C190 C189 1.398 . S
C190 C191 1.391 . S
C191 H179 0.950 1_554 S
C191 C187 1.393 . S
C191 C190 1.391 . S
H192 C200 0.950 . S
H193 C205 0.950 . S
H194 C202 0.950 . S
H195 C204 0.950 . S
H196 C206 0.950 . S
H197 C208 0.950 . S
H198 C210 0.950 . S
H199 C211 0.950 . S
C200 H192 0.950 . S
C200 C201 1.386 . S
C200 C202 1.391 . S
C201 C200 1.386 . S
C201 C205 1.393 . S
C202 H194 0.950 . S
C202 C200 1.391 . S
C202 C203 1.400 . S
C203 C202 1.400 . S
C203 C204 1.398 . S
C203 C209 1.491 . S
C204 H195 0.950 . S
C204 C203 1.398 . S
C204 C205 1.391 . S
C205 H193 0.950 . S
C205 C201 1.393 . S
C205 C204 1.391 . S
C206 H196 0.950 . S
C206 C207 1.386 . S
C206 C208 1.391 . S
C207 C206 1.386 . S
C207 C211 1.393 . S
C208 H197 0.950 . S
C208 C206 1.391 . S
C208 C209 1.400 . S
C209 C203 1.491 . S
C209 C208 1.400 . S
C209 C210 1.398 . S
C210 H198 0.950 . S
C210 C209 1.398 . S
C210 C211 1.391 . S
C211 H199 0.950 . S
C211 C207 1.393 . S
C211 C210 1.391 . S
H212 C220 0.950 . S
H213 C225 0.950 . S
H214 C222 0.950 . S
H215 C224 0.950 . S
H216 C226 0.950 . S
H217 C228 0.950 . S
H218 C230 0.950 . S
H219 C231 0.950 . S
C220 H212 0.950 . S
C220 C221 1.386 . S
C220 C222 1.391 . S
C221 C220 1.386 . S
C221 C225 1.393 . S
C222 H214 0.950 . S
C222 C220 1.391 . S
C222 C223 1.400 . S
C223 C222 1.400 . S
C223 C224 1.398 . S
C223 C229 1.491 . S
C224 H215 0.950 . S
C224 C223 1.398 . S
C224 C225 1.391 . S
C225 H213 0.950 . S
C225 C221 1.393 . S
C225 C224 1.391 . S
C226 H216 0.950 . S
C226 C227 1.386 . S
C226 C228 1.391 . S
C227 C226 1.386 . S
C227 C231 1.393 . S
C228 H217 0.950 . S
C228 C226 1.391 . S
C228 C229 1.400 . S
C229 C223 1.491 . S
C229 C228 1.400 . S
C229 C230 1.398 . S
C230 H218 0.950 . S
C230 C229 1.398 . S
C230 C231 1.391 . S
C231 H219 0.950 . S
C231 C227 1.393 . S
C231 C230 1.391 . S
H232 C240 0.950 . S
H233 C245 0.950 . S
H234 C242 0.950 . S
H235 C244 0.950 . S
H236 C246 0.950 . S
H237 C248 0.950 . S
H238 C250 0.950 . S
H239 C251 0.950 . S
C240 H232 0.950 . S
C240 C241 1.386 . S
C240 C242 1.391 . S
C241 C240 1.386 . S
C241 C245 1.393 . S
C242 H234 0.950 . S
C242 C240 1.391 . S
C242 C243 1.400 . S
C243 C242 1.400 . S
C243 C244 1.398 . S
C243 C249 1.491 . S
C244 H235 0.950 . S
C244 C243 1.398 . S
C244 C245 1.391 . S
C245 H233 0.950 . S
C245 C241 1.393 . S
C245 C244 1.391 . S
C246 H236 0.950 . S
C246 C247 1.386 . S
C246 C248 1.391 . S
C247 C246 1.386 . S
C247 C251 1.393 . S
C248 H237 0.950 . S
C248 C246 1.391 . S
C248 C249 1.400 . S
C249 C243 1.491 . S
C249 C248 1.400 . S
C249 C250 1.398 . S
C250 H238 0.950 . S
C250 C249 1.398 . S
C250 C251 1.391 . S
C251 H239 0.950 . S
C251 C247 1.393 . S
C251 C250 1.391 . S
H252 C260 0.950 . S
H253 C265 0.950 . S
H254 C262 0.950 . S
H255 C264 0.950 . S
H256 C266 0.950 . S
H257 C268 0.950 . S
H258 C270 0.950 . S
H259 C271 0.950 . S
C260 H252 0.950 . S
C260 C261 1.386 . S
C260 C262 1.391 . S
C261 C260 1.386 . S
C261 C265 1.393 . S
C262 H254 0.950 . S
C262 C260 1.391 . S
C262 C263 1.400 . S
C263 C262 1.400 . S
C263 C264 1.398 . S
C263 C269 1.491 . S
C264 H255 0.950 . S
C264 C263 1.398 . S
C264 C265 1.391 . S
C265 H253 0.950 . S
C265 C261 1.393 . S
C265 C264 1.391 . S
C266 H256 0.950 . S
C266 C267 1.386 . S
C266 C268 1.391 . S
C267 C266 1.386 . S
C267 C271 1.393 . S
C268 H257 0.950 . S
C268 C266 1.391 . S
C268 C269 1.400 . S
C269 C263 1.491 . S
C269 C268 1.400 . S
C269 C270 1.398 . S
C270 H258 0.950 . S
C270 C269 1.398 . S
C270 C271 1.391 . S
C271 H259 0.950 . S
C271 C267 1.393 . S
C271 C270 1.391 . S
H272 C280 0.950 . S
H273 C285 0.950 . S
H274 C282 0.950 . S
H275 C284 0.950 . S
H276 C286 0.950 . S
H277 C288 0.950 . S
H278 C290 0.950 . S
H279 C291 0.950 . S
C280 H272 0.950 . S
C280 C281 1.386 . S
C280 C282 1.391 . S
C281 C280 1.386 . S
C281 C285 1.393 . S
C282 H274 0.950 . S
C282 C280 1.391 . S
C282 C283 1.400 . S
C283 C282 1.400 . S
C283 C284 1.398 . S
C283 C289 1.491 . S
C284 H275 0.950 . S
C284 C283 1.398 . S
C284 C285 1.391 . S
C285 H273 0.950 . S
C285 C281 1.393 . S
C285 C284 1.391 . S
C286 H276 0.950 . S
C286 C287 1.386 . S
C286 C288 1.391 . S
C287 C286 1.386 . S
C287 C291 1.393 . S
C288 H277 0.950 . S
C288 C286 1.391 . S
C288 C289 1.400 . S
C289 C283 1.491 . S
C289 C288 1.400 . S
C289 C290 1.398 . S
C290 H278 0.950 . S
C290 C289 1.398 . S
C290 C291 1.391 . S
C291 H279 0.950 . S
C291 C287 1.393 . S
C291 C290 1.391 . S
H292 C300 0.950 . S
H293 C305 0.950 . S
H294 C302 0.950 . S
H295 C304 0.950 . S
H296 C306 0.950 . S
H297 C308 0.950 . S
H298 C310 0.950 . S
H299 C311 0.950 . S
C300 H292 0.950 . S
C300 C301 1.386 . S
C300 C302 1.391 . S
C301 C300 1.386 . S
C301 C305 1.393 . S
C302 H294 0.950 . S
C302 C300 1.391 . S
C302 C303 1.400 . S
C303 C302 1.400 . S
C303 C304 1.398 . S
C303 C309 1.491 . S
C304 H295 0.950 . S
C304 C303 1.398 . S
C304 C305 1.391 . S
C305 H293 0.950 . S
C305 C301 1.393 . S
C305 C304 1.391 . S
C306 H296 0.950 . S
C306 C307 1.386 . S
C306 C308 1.391 . S
C307 C306 1.386 . S
C307 C311 1.393 . S
C308 H297 0.950 . S
C308 C306 1.391 . S
C308 C309 1.400 . S
C309 C303 1.491 . S
C309 C308 1.400 . S
C309 C310 1.398 . S
C310 H298 0.950 . S
C310 C309 1.398 . S
C310 C311 1.391 . S
C311 H299 0.950 . S
C311 C307 1.393 . S
C311 C310 1.391 . S
H312 C320 0.950 . S
H313 C325 0.950 . S
H314 C322 0.950 . S
H315 C324 0.950 . S
H316 C326 0.950 . S
H317 C328 0.950 . S
H318 C330 0.950 . S
H319 C331 0.950 . S
C320 H312 0.950 . S
C320 C321 1.386 . S
C320 C322 1.391 . S
C321 C320 1.386 . S
C321 C325 1.393 . S
C322 H314 0.950 . S
C322 C320 1.391 . S
C322 C323 1.400 . S
C323 C322 1.400 . S
C323 C324 1.398 . S
C323 C329 1.491 . S
C324 H315 0.950 . S
C324 C323 1.398 . S
C324 C325 1.391 . S
C325 H313 0.950 . S
C325 C321 1.393 . S
C325 C324 1.391 . S
C326 H316 0.950 . S
C326 C327 1.386 . S
C326 C328 1.391 . S
C327 C326 1.386 . S
C327 C331 1.393 . S
C328 H317 0.950 . S
C328 C326 1.391 . S
C328 C329 1.400 . S
C329 C323 1.491 . S
C329 C328 1.400 . S
C329 C330 1.398 . S
C330 H318 0.950 . S
C330 C329 1.398 . S
C330 C331 1.391 . S
C331 H319 0.950 . S
C331 C327 1.393 . S
C331 C330 1.391 . S
H332 C340 0.950 . S
H333 C345 0.950 . S
H334 C342 0.950 . S
H335 C344 0.950 . S
H336 C346 0.950 . S
H337 C348 0.950 . S
H338 C350 0.950 . S
H339 C351 0.950 . S
C340 H332 0.950 . S
C340 C341 1.386 . S
C340 C342 1.391 . S
C341 C340 1.386 . S
C341 C345 1.393 . S
C342 H334 0.950 . S
C342 C340 1.391 . S
C342 C343 1.400 . S
C343 C342 1.400 . S
C343 C344 1.398 . S
C343 C349 1.491 . S
C344 H335 0.950 . S
C344 C343 1.398 . S
C344 C345 1.391 . S
C345 H333 0.950 . S
C345 C341 1.393 . S
C345 C344 1.391 . S
C346 H336 0.950 . S
C346 C347 1.386 . S
C346 C348 1.391 . S
C347 C346 1.386 . S
C347 C351 1.393 . S
C348 H337 0.950 . S
C348 C346 1.391 . S
C348 C349 1.400 . S
C349 C343 1.491 . S
C349 C348 1.400 . S
C349 C350 1.398 . S
C350 H338 0.950 . S
C350 C349 1.398 . S
C350 C351 1.391 . S
C351 H339 0.950 . S
C351 C347 1.393 . S
C351 C350 1.391 . S
C127 C48 1.527 . S
C121 C41 1.499 . S
C141 C8 1.504 . S
C147 C91 1.513 . S
C161 C19 1.506 . S
C167 C57 1.537 . S
C181 C30 1.512 . S
C187 C82 1.507 . S
C207 C44 1.577 . S
C201 C5 1.363 . S
C227 C86 1.657 . S
C221 C18 1.598 . S
C241 C29 1.546 . S
C247 C52 1.581 . S
C261 C40 1.589 . S
C267 C78 1.655 . S
C287 C107 1.395 . S
C281 C16 1.135 . S
C307 C73 1.412 . S
C301 C27 1.278 . S
C327 C95 1.392 . S
C321 C38 1.141 . S
C341 C7 1.373 . S
C347 C61 1.400 . S
