# Generated by pormake.
# Topology zzz, (3,6)-cn, num edge types: 1
# Building blocks:
#     Node 0, Type 0, BuildingBlock: OLANEW_clean_sbu_2, # of connection points: 3
#     Node 1, Type 0, BuildingBlock: OLANEW_clean_sbu_2, # of connection points: 3
#     Node 2, Type 0, BuildingBlock: OLANEW_clean_sbu_2, # of connection points: 3
#     Node 3, Type 0, BuildingBlock: OLANEW_clean_sbu_2, # of connection points: 3
#     Node 4, Type 0, BuildingBlock: OLANEW_clean_sbu_2, # of connection points: 3
#     Node 5, Type 0, BuildingBlock: OLANEW_clean_sbu_2, # of connection points: 3
#     Node 6, Type 0, BuildingBlock: OLANEW_clean_sbu_2, # of connection points: 3
#     Node 7, Type 0, BuildingBlock: OLANEW_clean_sbu_2, # of connection points: 3
#     Node 8, Type 1, BuildingBlock: BETDIP_clean_sbu_0, # of connection points: 6
#     Node 9, Type 1, BuildingBlock: BETDIP_clean_sbu_0, # of connection points: 6
#     Node 10, Type 1, BuildingBlock: BETDIP_clean_sbu_0, # of connection points: 6
#     Node 11, Type 1, BuildingBlock: BETDIP_clean_sbu_0, # of connection points: 6
#     Edge 12, Type (0, 1), BuildingBlock: TEMPAE_clean_linker_10, # of connection points: 2
#     Edge 13, Type (0, 1), BuildingBlock: TEMPAE_clean_linker_10, # of connection points: 2
#     Edge 14, Type (0, 1), BuildingBlock: TEMPAE_clean_linker_10, # of connection points: 2
#     Edge 15, Type (0, 1), BuildingBlock: TEMPAE_clean_linker_10, # of connection points: 2
#     Edge 16, Type (0, 1), BuildingBlock: TEMPAE_clean_linker_10, # of connection points: 2
#     Edge 17, Type (0, 1), BuildingBlock: TEMPAE_clean_linker_10, # of connection points: 2
#     Edge 18, Type (0, 1), BuildingBlock: TEMPAE_clean_linker_10, # of connection points: 2
#     Edge 19, Type (0, 1), BuildingBlock: TEMPAE_clean_linker_10, # of connection points: 2
#     Edge 20, Type (0, 1), BuildingBlock: TEMPAE_clean_linker_10, # of connection points: 2
#     Edge 21, Type (0, 1), BuildingBlock: TEMPAE_clean_linker_10, # of connection points: 2
#     Edge 22, Type (0, 1), BuildingBlock: TEMPAE_clean_linker_10, # of connection points: 2
#     Edge 23, Type (0, 1), BuildingBlock: TEMPAE_clean_linker_10, # of connection points: 2
#     Edge 24, Type (0, 1), BuildingBlock: TEMPAE_clean_linker_10, # of connection points: 2
#     Edge 25, Type (0, 1), BuildingBlock: TEMPAE_clean_linker_10, # of connection points: 2
#     Edge 26, Type (0, 1), BuildingBlock: TEMPAE_clean_linker_10, # of connection points: 2
#     Edge 27, Type (0, 1), BuildingBlock: TEMPAE_clean_linker_10, # of connection points: 2
#     Edge 28, Type (0, 1), BuildingBlock: TEMPAE_clean_linker_10, # of connection points: 2
#     Edge 29, Type (0, 1), BuildingBlock: TEMPAE_clean_linker_10, # of connection points: 2
#     Edge 30, Type (0, 1), BuildingBlock: TEMPAE_clean_linker_10, # of connection points: 2
#     Edge 31, Type (0, 1), BuildingBlock: TEMPAE_clean_linker_10, # of connection points: 2
#     Edge 32, Type (0, 1), BuildingBlock: TEMPAE_clean_linker_10, # of connection points: 2
#     Edge 33, Type (0, 1), BuildingBlock: TEMPAE_clean_linker_10, # of connection points: 2
#     Edge 34, Type (0, 1), BuildingBlock: TEMPAE_clean_linker_10, # of connection points: 2
#     Edge 35, Type (0, 1), BuildingBlock: TEMPAE_clean_linker_10, # of connection points: 2
# Relax obj value: 0.240
# Max RMSD: 0.169
# Mean RMSD: 0.158
data_MOF--net-zzz--node1-OLANEW_clean_sbu_2--node2-BETDIP_clean_sbu_0--edge1-TEMPAE_clean_linker_10
_symmetry_space_group_name_H-M    P1
_symmetry_Int_Tables_number       1
_symmetry_cell_setting            triclinic
loop_
_symmetry_equiv_pos_as_xyz
'x, y, z'
_cell_length_a     56.754247
_cell_length_b     56.671702
_cell_length_c     15.520509
_cell_angle_alpha  89.839334
_cell_angle_beta   89.903088
_cell_angle_gamma 89.979268
loop_
_atom_site_label
_atom_site_type_symbol
_atom_site_fract_x
_atom_site_fract_y
_atom_site_fract_z
_atom_type_partial_charge
O0 O 0.72979 0.51797 0.30878 0.0
Cd1 Cd 0.6919 0.51866 0.38258 0.0
O2 O 0.73258 0.48166 0.35647 0.0
Cd3 Cd 0.75529 0.45224 0.39197 0.0
O4 O 0.79035 0.45602 0.44577 0.0
C5 C 0.79373 0.47649 0.47667 0.0
O6 O 0.77616 0.49158 0.47694 0.0
C7 C 0.74133 0.49883 0.31418 0.0
C8 C 0.65637 0.5134 0.2619 0.0
O9 O 0.66211 0.53392 0.28928 0.0
O10 O 0.66711 0.49541 0.29306 0.0
O11 O 0.9698 0.74125 0.27948 0.0
Cd12 Cd 0.96349 0.7023 0.34383 0.0
O13 O 0.99014 0.74698 0.3965 0.0
Cd14 Cd 0.00945 0.76525 0.49766 0.0
O15 O 0.01539 0.76224 0.64245 0.0
C16 C 0.00919 0.77812 0.69633 0.0
O17 O 0.01586 0.76137 0.64421 0.0
C18 C 0.98261 0.75474 0.32477 0.0
C19 C 0.97371 0.66595 0.2295 0.0
O20 O 0.95244 0.67283 0.24146 0.0
O21 O 0.99014 0.67623 0.27171 0.0
O22 O 0.77132 0.99522 0.2463 0.0
Cd23 Cd 0.80797 0.98656 0.32234 0.0
O24 O 0.76641 0.01851 0.35568 0.0
Cd25 Cd 0.75141 0.04084 0.45608 0.0
O26 O 0.71944 0.03731 0.53111 0.0
C27 C 0.71224 0.0161 0.53357 0.0
O28 O 0.7257 0.9995 0.50081 0.0
C29 C 0.7582 0.00963 0.28644 0.0
C30 C 0.84633 0.98497 0.21177 0.0
O31 O 0.83486 0.96616 0.23065 0.0
O32 O 0.83963 0.00446 0.24566 0.0
O33 O 0.51827 0.76586 0.23794 0.0
Cd34 Cd 0.53212 0.80223 0.30414 0.0
O35 O 0.49272 0.76267 0.34289 0.0
Cd36 Cd 0.46634 0.74518 0.42286 0.0
O37 O 0.46329 0.7145 0.50584 0.0
C38 C 0.48224 0.70966 0.54562 0.0
O39 O 0.4999 0.7246 0.54044 0.0
C40 C 0.50214 0.75416 0.27521 0.0
C41 C 0.52047 0.84077 0.20266 0.0
O42 O 0.53889 0.82841 0.18706 0.0
O43 O 0.50758 0.83507 0.26733 0.0
O44 O 0.27904 0.5389 0.16018 0.0
Cd45 Cd 0.31752 0.53671 0.09127 0.0
O46 O 0.27625 0.50277 0.11331 0.0
Cd47 Cd 0.25802 0.47101 0.07148 0.0
O48 O 0.22462 0.46347 0.01064 0.0
C49 C 0.2149 0.48233 0.98429 0.0
O50 O 0.22612 0.50242 0.99445 0.0
C51 C 0.26704 0.52009 0.15336 0.0
C52 C 0.34994 0.5221 0.21332 0.0
O53 O 0.34798 0.54397 0.19325 0.0
O54 O 0.33697 0.5071 0.17408 0.0
O55 O 0.95935 0.27351 0.16657 0.0
Cd56 Cd 0.95554 0.31267 0.10343 0.0
O57 O 0.99525 0.2727 0.11504 0.0
Cd58 Cd 0.02599 0.25316 0.07127 0.0
O59 O 0.03217 0.22087 0.00027 0.0
C60 C 0.01311 0.21127 0.97581 0.0
O61 O 0.99304 0.22168 0.99424 0.0
C62 C 0.97869 0.26261 0.1564 0.0
C63 C 0.96832 0.34627 0.22424 0.0
O64 O 0.94708 0.33872 0.21911 0.0
O65 O 0.98354 0.33816 0.17089 0.0
O66 O 0.22845 0.9493 0.13538 0.0
Cd67 Cd 0.19137 0.95193 0.05664 0.0
O68 O 0.23104 0.98664 0.10208 0.0
Cd69 Cd 0.24922 0.02003 0.08093 0.0
O70 O 0.28335 0.03569 0.05615 0.0
C71 C 0.28804 0.04529 0.98419 0.0
O72 O 0.27111 0.04786 0.92727 0.0
C73 C 0.23993 0.96851 0.13838 0.0
C74 C 0.15689 0.97042 0.16409 0.0
O75 O 0.15901 0.94809 0.15359 0.0
O76 O 0.17084 0.98408 0.12231 0.0
O77 O 0.5343 0.22603 0.10466 0.0
Cd78 Cd 0.52889 0.18835 0.03132 0.0
O79 O 0.49589 0.22473 0.11718 0.0
Cd80 Cd 0.46271 0.2437 0.13035 0.0
O81 O 0.45717 0.27768 0.06894 0.0
C82 C 0.47105 0.28075 0.00554 0.0
O83 O 0.48512 0.2634 0.98307 0.0
C84 C 0.51523 0.23553 0.12989 0.0
C85 C 0.52015 0.15345 0.15279 0.0
O86 O 0.54056 0.15542 0.11805 0.0
O87 O 0.50382 0.16761 0.12883 0.0
Tb88 Tb 0.02329 0.99334 0.7794 0.0
Tb89 Tb 0.99534 0.00503 0.61849 0.0
C90 C 0.03818 0.97522 0.91743 0.0
C91 C 0.03247 0.95357 0.96557 0.0
C92 C 0.01582 0.93755 0.93351 0.0
C93 C 0.01142 0.91638 0.97665 0.0
C94 C 0.02314 0.91117 0.0539 0.0
C95 C 0.03922 0.92755 0.08772 0.0
C96 C 0.04401 0.94855 0.04331 0.0
C97 C 0.04847 0.00845 0.64734 0.0
C98 C 0.00551 0.95256 0.65425 0.0
C99 C 0.98102 0.02422 0.48205 0.0
C100 C 0.98234 0.0486 0.44688 0.0
C101 C -0.00032 0.05475 0.38609 0.0
C102 C 0.00131 0.07788 0.35462 0.0
C103 C 0.98543 0.09538 0.38253 0.0
C104 C 0.96782 0.08904 0.44213 0.0
C105 C 0.96629 0.066 0.47389 0.0
C106 C 0.96986 0.98999 0.74915 0.0
C107 C 0.01184 0.04564 0.74927 0.0
O108 O 0.02157 0.99116 0.91426 0.0
O109 O 0.04819 0.97208 0.84235 0.0
O110 O 0.03071 0.99522 0.64465 0.0
O111 O 0.0542 0.0115 0.72727 0.0
O112 O 0.01066 0.95948 0.73314 0.0
O113 O 0.00081 0.96774 0.59166 0.0
O114 O 0.00081 0.0124 0.48718 0.0
O115 O 0.96787 0.02122 0.55056 0.0
O116 O 0.98773 0.00317 0.75339 0.0
O117 O 0.96464 0.98647 0.66893 0.0
O118 O 0.00575 0.03975 0.6697 0.0
O119 O 0.017 0.02972 0.80826 0.0
H120 H 0.00622 0.94128 0.87512 0.0
H121 H 0.9987 0.90415 0.95008 0.0
H122 H 0.0484 0.92386 0.1474 0.0
H123 H 0.05681 0.96078 0.06931 0.0
H124 H 0.01209 0.04168 0.36315 0.0
H125 H 0.0152 0.08211 0.30922 0.0
H126 H 0.95493 0.10184 0.46367 0.0
H127 H 0.95248 0.06189 0.51973 0.0
Tb128 Tb 0.50767 0.02096 0.80828 0.0
Tb129 Tb 0.4866 0.99869 0.64773 0.0
C130 C 0.52219 0.03131 0.95623 0.0
C131 C 0.54518 0.02853 0.99935 0.0
C132 C 0.55945 0.00871 0.98395 0.0
C133 C 0.58181 0.00701 0.02121 0.0
C134 C 0.59051 0.02533 0.07299 0.0
C135 C 0.57624 0.04518 0.08813 0.0
C136 C 0.55372 0.0467 0.05191 0.0
C137 C 0.50845 0.04745 0.66955 0.0
C138 C 0.54203 0.9979 0.67936 0.0
C139 C 0.4729 0.98649 0.5001 0.0
C140 C 0.44936 0.98403 0.46121 0.0
C141 C 0.42982 0.99541 0.49786 0.0
C142 C 0.4074 0.99263 0.46228 0.0
C143 C 0.40402 0.97837 0.3893 0.0
C144 C 0.42371 0.96714 0.35225 0.0
C145 C 0.44619 0.96992 0.38809 0.0
C146 C 0.48672 0.97227 0.78746 0.0
C147 C 0.45215 0.02305 0.77646 0.0
O148 O 0.5105 0.01193 0.93909 0.0
O149 O 0.52194 0.04622 0.8918 0.0
O150 O 0.49204 0.03377 0.69183 0.0
O151 O 0.52456 0.04777 0.72848 0.0
O152 O 0.53813 0.00219 0.76167 0.0
O153 O 0.52478 0.99826 0.62177 0.0
O154 O 0.47921 0.00799 0.51984 0.0
O155 O 0.4779 0.97149 0.56158 0.0
O156 O 0.50271 0.98606 0.76296 0.0
O157 O 0.47032 0.9717 0.72961 0.0
O158 O 0.45486 0.01491 0.69736 0.0
O159 O 0.46987 0.02554 0.83115 0.0
H160 H 0.55358 0.99476 0.94174 0.0
H161 H 0.59259 0.9917 0.0074 0.0
H162 H 0.58256 0.05954 0.12782 0.0
H163 H 0.54313 0.06228 0.06354 0.0
H164 H 0.43185 0.00646 0.5541 0.0
H165 H 0.39272 0.00183 0.49162 0.0
H166 H 0.42168 0.95587 0.2965 0.0
H167 H 0.46105 0.96092 0.35907 0.0
Tb168 Tb 0.48902 0.49801 0.82696 0.0
Tb169 Tb 0.51075 0.48555 0.6528 0.0
C170 C 0.48231 0.51607 0.97264 0.0
C171 C 0.48093 0.54049 0.00453 0.0
C172 C 0.49291 0.54649 0.08025 0.0
C173 C 0.49347 0.56988 0.10832 0.0
C174 C 0.48196 0.5877 0.06128 0.0
C175 C 0.46956 0.58159 0.98626 0.0
C176 C 0.46918 0.5582 0.95773 0.0
C177 C 0.45885 0.48894 0.70356 0.0
C178 C 0.50461 0.5388 0.69503 0.0
C179 C 0.52066 0.46778 0.50855 0.0
C180 C 0.5192 0.44418 0.46762 0.0
C181 C 0.49759 0.43462 0.44061 0.0
C182 C 0.49664 0.41225 0.40266 0.0
C183 C 0.51731 0.39895 0.3905 0.0
C184 C 0.53896 0.40873 0.41619 0.0
C185 C 0.53989 0.43107 0.45403 0.0
C186 C 0.54035 0.49443 0.7783 0.0
C187 C 0.49371 0.44537 0.78435 0.0
O188 O 0.50303 0.50967 0.94418 0.0
O189 O 0.46522 0.50886 0.9226 0.0
O190 O 0.47816 0.49962 0.69567 0.0
O191 O 0.45449 0.4855 0.78468 0.0
O192 O 0.49977 0.53218 0.77497 0.0
O193 O 0.50731 0.52336 0.63176 0.0
O194 O 0.50089 0.47889 0.52473 0.0
O195 O 0.53577 0.46985 0.57163 0.0
O196 O 0.52127 0.48336 0.78375 0.0
O197 O 0.54425 0.50013 0.69862 0.0
O198 O 0.4969 0.45174 0.70272 0.0
O199 O 0.49355 0.46078 0.84795 0.0
H200 H 0.50221 0.53312 0.1169 0.0
H201 H 0.50297 0.57405 0.16681 0.0
H202 H 0.46074 0.595 0.94829 0.0
H203 H 0.46013 0.55408 0.89826 0.0
H204 H 0.48138 0.44431 0.44901 0.0
H205 H 0.47965 0.40522 0.38415 0.0
H206 H 0.55528 0.39919 0.40634 0.0
H207 H 0.55686 0.43811 0.47281 0.0
Tb208 Tb 0.99458 0.49591 0.81166 0.0
Tb209 Tb 0.01161 0.51608 0.64012 0.0
C210 C 0.97531 0.49092 0.95674 0.0
C211 C 0.95123 0.48983 0.99156 0.0
C212 C 0.9471 0.49758 0.07584 0.0
C213 C 0.92431 0.49744 0.10997 0.0
C214 C 0.90517 0.48948 0.06037 0.0
C215 C 0.90943 0.48169 0.97563 0.0
C216 C 0.93227 0.48193 0.94143 0.0
C217 C 0.00048 0.46525 0.68657 0.0
C218 C 0.95731 0.51496 0.67213 0.0
C219 C 0.03092 0.52231 0.49555 0.0
C220 C 0.05479 0.5205 0.45864 0.0
C221 C 0.07111 0.50392 0.48968 0.0
C222 C 0.09387 0.50293 0.45518 0.0
C223 C 0.10063 0.51832 0.38828 0.0
C224 C 0.08409 0.53463 0.35645 0.0
C225 C 0.06141 0.53576 0.39161 0.0
C226 C 0.00484 0.54675 0.76395 0.0
C227 C 0.04817 0.49471 0.77754 0.0
O228 O 0.98162 0.51133 0.92477 0.0
O229 O 0.98216 0.47324 0.90863 0.0
O230 O 0.99268 0.48586 0.68027 0.0
O231 O 0.00351 0.46019 0.7674 0.0
O232 O 0.96199 0.50947 0.75353 0.0
O233 O 0.97411 0.51628 0.61291 0.0
O234 O 0.02093 0.50251 0.51937 0.0
O235 O 0.02766 0.53918 0.55169 0.0
O236 O 0.01342 0.5264 0.77177 0.0
O237 O 0.00098 0.55122 0.68319 0.0
O238 O 0.04346 0.49994 0.69592 0.0
O239 O 0.03182 0.4954 0.83811 0.0
H240 H 0.96151 0.50397 0.1151 0.0
H241 H 0.92165 0.50397 0.17477 0.0
H242 H 0.89516 0.47524 0.93594 0.0
H243 H 0.9351 0.47601 0.8759 0.0
H244 H 0.06623 0.49172 0.54041 0.0
H245 H 0.10614 0.48998 0.48023 0.0
H246 H 0.08884 0.54683 0.30548 0.0
H247 H 0.04905 0.54865 0.36671 0.0
C248 C 0.14237 0.00283 0.25936 0.0
C249 C 0.13964 0.98 0.22611 0.0
C250 C 0.12757 0.01112 0.3252 0.0
C251 C 0.10954 0.99631 0.35752 0.0
C252 C 0.10582 0.97382 0.32048 0.0
C253 C 0.12108 0.96583 0.25577 0.0
C254 C 0.13158 0.03543 0.36186 0.0
C255 C 0.08611 0.95794 0.35089 0.0
C256 C 0.08798 0.9996 0.58776 0.0
C257 C 0.06562 0.00949 0.57666 0.0
C258 C 0.10305 0.99642 0.51713 0.0
C259 C 0.09551 0.00344 0.43391 0.0
C260 C 0.07363 0.01514 0.42384 0.0
C261 C 0.05889 0.01794 0.49568 0.0
C262 C 0.12641 0.98422 0.53078 0.0
C263 C 0.06489 0.02351 0.33721 0.0
H264 H 0.15662 0.0139 0.23622 0.0
H265 H 0.11866 0.94833 0.2292 0.0
H266 H 0.115 0.0458 0.35925 0.0
H267 H 0.13673 0.03397 0.43062 0.0
H268 H 0.14555 0.04524 0.32665 0.0
H269 H 0.08471 0.9416 0.31185 0.0
H270 H 0.08905 0.95289 0.41918 0.0
H271 H 0.06905 0.9675 0.34766 0.0
H272 H 0.09315 0.99314 0.6508 0.0
H273 H 0.04196 0.02641 0.48811 0.0
H274 H 0.14081 0.99442 0.49975 0.0
H275 H 0.126 0.96655 0.50017 0.0
H276 H 0.13062 0.98194 0.60019 0.0
H277 H 0.07929 0.02609 0.28978 0.0
H278 H 0.05518 0.04042 0.34399 0.0
H279 H 0.05241 0.01026 0.31112 0.0
C280 C 0.52677 0.11415 0.22117 0.0
C281 C 0.51599 0.13637 0.22262 0.0
C282 C 0.52401 0.09839 0.29037 0.0
C283 C 0.51094 0.1055 0.36367 0.0
C284 C 0.49985 0.12788 0.36484 0.0
C285 C 0.50214 0.14288 0.29339 0.0
C286 C 0.53525 0.07427 0.2856 0.0
C287 C 0.48658 0.13647 0.44316 0.0
C288 C 0.49008 0.06169 0.53276 0.0
C289 C 0.50878 0.06224 0.59146 0.0
C290 C 0.49093 0.07496 0.45637 0.0
C291 C 0.51023 0.09026 0.44152 0.0
C292 C 0.52873 0.09155 0.50244 0.0
C293 C 0.52798 0.07716 0.57589 0.0
C294 C 0.47125 0.07253 0.39167 0.0
C295 C 0.54917 0.10832 0.49061 0.0
H296 H 0.53729 0.1091 0.16582 0.0
H297 H 0.49402 0.16019 0.29459 0.0
H298 H 0.54819 0.07202 0.33844 0.0
H299 H 0.52158 0.06046 0.29407 0.0
H300 H 0.54442 0.07133 0.22337 0.0
H301 H 0.47867 0.15419 0.43301 0.0
H302 H 0.47234 0.12393 0.46037 0.0
H303 H 0.49872 0.13738 0.49905 0.0
H304 H 0.47478 0.05093 0.54646 0.0
H305 H 0.54234 0.07782 0.6218 0.0
H306 H 0.4786 0.0692 0.32651 0.0
H307 H 0.46105 0.08919 0.38818 0.0
H308 H 0.45897 0.05795 0.40852 0.0
H309 H 0.55913 0.10375 0.43144 0.0
H310 H 0.56151 0.10794 0.54609 0.0
H311 H 0.54254 0.12662 0.48241 0.0
C312 C 0.36089 0.49439 0.33149 0.0
C313 C 0.36601 0.51456 0.28249 0.0
C314 C 0.37505 0.48801 0.40176 0.0
C315 C 0.39502 0.50184 0.42189 0.0
C316 C 0.40083 0.52163 0.37021 0.0
C317 C 0.386 0.52799 0.30185 0.0
C318 C 0.36862 0.4666 0.45485 0.0
C319 C 0.42269 0.53606 0.38722 0.0
C320 C 0.42089 0.50377 0.64646 0.0
C321 C 0.44073 0.48942 0.63667 0.0
C322 C 0.40525 0.50718 0.57769 0.0
C323 C 0.40973 0.49595 0.49783 0.0
C324 C 0.42908 0.4803 0.48978 0.0
C325 C 0.44436 0.47727 0.55971 0.0
C326 C 0.3845 0.52354 0.58934 0.0
C327 C 0.43463 0.46744 0.40711 0.0
H328 H 0.3454 0.484 0.31652 0.0
H329 H 0.39013 0.54342 0.26318 0.0
H330 H 0.38327 0.45364 0.4531 0.0
H331 H 0.366 0.47176 0.52315 0.0
H332 H 0.35232 0.45788 0.43141 0.0
H333 H 0.42523 0.5503 0.33875 0.0
H334 H 0.4216 0.54418 0.45208 0.0
H335 H 0.43844 0.52443 0.38659 0.0
H336 H 0.41819 0.5131 0.70658 0.0
H337 H 0.45933 0.46557 0.55397 0.0
H338 H 0.36803 0.51473 0.56833 0.0
H339 H 0.38687 0.53945 0.54841 0.0
H340 H 0.38237 0.52927 0.65731 0.0
H341 H 0.42 0.46769 0.35992 0.0
H342 H 0.43911 0.44876 0.42134 0.0
H343 H 0.45036 0.47564 0.37672 0.0
C344 C 0.95899 0.36961 0.3559 0.0
C345 C 0.97504 0.3636 0.2908 0.0
C346 C 0.96501 0.38584 0.42006 0.0
C347 C 0.98756 0.39648 0.41869 0.0
C348 C 0.00389 0.39051 0.35326 0.0
C349 C 0.99746 0.37403 0.29016 0.0
C350 C 0.94713 0.39175 0.48897 0.0
C351 C 0.02797 0.40178 0.34929 0.0
C352 C 0.99026 0.45477 0.53601 0.0
C353 C -0.00047 0.44798 0.61597 0.0
C354 C 0.98731 0.43835 0.46974 0.0
C355 C 0.99353 0.41451 0.48425 0.0
C356 C 0.00362 0.40767 0.56396 0.0
C357 C 0.00653 0.42457 0.62911 0.0
C358 C 0.97658 0.44637 0.38555 0.0
C359 C 0.01042 0.38237 0.58162 0.0
H360 H 0.94168 0.36154 0.35705 0.0
H361 H 0.00993 0.36948 0.23991 0.0
H362 H 0.95471 0.38842 0.55372 0.0
H363 H 0.94254 0.41076 0.4855 0.0
H364 H 0.93068 0.38129 0.48256 0.0
H365 H 0.03882 0.3948 0.29543 0.0
H366 H 0.02615 0.42115 0.34107 0.0
H367 H 0.03751 0.39874 0.41065 0.0
H368 H 0.98457 0.47281 0.52592 0.0
H369 H 0.01372 0.41935 0.69095 0.0
H370 H 0.95882 0.43847 0.37821 0.0
H371 H 0.98746 0.44028 0.33048 0.0
H372 H 0.97484 0.46588 0.38175 0.0
H373 H 0.99436 0.3712 0.58273 0.0
H374 H 0.0197 0.3803 0.64414 0.0
H375 H 0.02195 0.37562 0.52944 0.0
C376 C 0.87626 0.00542 0.12037 0.0
C377 C 0.86631 0.98433 0.15065 0.0
C378 C 0.89421 0.00521 0.05826 0.0
C379 C 0.90253 0.98336 0.02638 0.0
C380 C 0.89317 0.96198 0.05894 0.0
C381 C 0.87503 0.96272 0.1204 0.0
C382 C 0.90371 0.02838 0.02472 0.0
C383 C 0.90195 0.93837 0.02747 0.0
C384 C 0.92889 0.98442 0.80206 0.0
C385 C 0.95297 0.98643 0.82009 0.0
C386 C 0.91228 0.98306 0.8688 0.0
C387 C 0.92006 0.98304 0.95541 0.0
C388 C 0.94446 0.98395 0.97378 0.0
C389 C 0.96059 0.98601 0.90568 0.0
C390 C 0.88638 0.98253 0.84666 0.0
C391 C 0.95349 0.98328 0.06522 0.0
H392 H 0.86964 0.02218 0.14362 0.0
H393 H 0.86754 0.94635 0.14411 0.0
H394 H 0.92311 0.02903 0.03261 0.0
H395 H 0.89996 0.02999 0.95479 0.0
H396 H 0.89587 0.04381 0.05826 0.0
H397 H 0.8942 0.92342 0.06431 0.0
H398 H 0.89742 0.93617 0.95846 0.0
H399 H 0.92143 0.93745 0.03263 0.0
H400 H 0.92293 0.9848 0.73574 0.0
H401 H 0.97913 0.98733 0.91952 0.0
H402 H 0.87756 0.9984 0.87332 0.0
H403 H 0.87787 0.96688 0.87639 0.0
H404 H 0.88329 0.98205 0.77603 0.0
H405 H 0.94841 0.99975 0.09892 0.0
H406 H 0.97297 0.98147 0.06793 0.0
H407 H 0.94542 0.96835 0.10107 0.0
C408 C 0.5 0.87922 0.17719 0.0
C409 C 0.51415 0.86078 0.14642 0.0
C410 C 0.49429 0.89848 0.12408 0.0
C411 C 0.50244 0.89887 0.03783 0.0
C412 C 0.51636 0.88006 0.00616 0.0
C413 C 0.52229 0.86138 0.06123 0.0
C414 C 0.47992 0.91855 0.16053 0.0
C415 C 0.525 0.87963 0.91403 0.0
C416 C 0.47273 0.93691 0.86852 0.0
C417 C 0.48946 0.95481 0.85714 0.0
C418 C 0.47636 0.91887 0.92915 0.0
C419 C 0.49695 0.91912 0.98054 0.0
C420 C 0.51334 0.93779 0.97192 0.0
C421 C 0.50957 0.9552 0.90923 0.0
C422 C 0.45874 0.89898 0.93535 0.0
C423 C 0.5353 0.93891 0.0266 0.0
H424 H 0.4938 0.87882 0.24329 0.0
H425 H 0.53305 0.84703 0.03712 0.0
H426 H 0.49009 0.93523 0.15598 0.0
H427 H 0.4636 0.92101 0.12232 0.0
H428 H 0.47497 0.91555 0.22898 0.0
H429 H 0.53471 0.86315 0.89854 0.0
H430 H 0.50988 0.88133 0.86917 0.0
H431 H 0.53685 0.89485 0.902 0.0
H432 H 0.4572 0.93655 0.82797 0.0
H433 H 0.5227 0.96878 0.89952 0.0
H434 H 0.4529 0.89655 0.00301 0.0
H435 H 0.46719 0.88224 0.91481 0.0
H436 H 0.443 0.9021 0.89444 0.0
H437 H 0.53083 0.93628 0.09559 0.0
H438 H 0.54468 0.956 0.01945 0.0
H439 H 0.54752 0.92453 0.00777 0.0
C440 C 0.6387 0.49046 0.14167 0.0
C441 C 0.63848 0.51058 0.19395 0.0
C442 C 0.62265 0.48801 0.07379 0.0
C443 C 0.60565 0.50585 0.05937 0.0
C444 C 0.60497 0.52595 0.11329 0.0
C445 C 0.62164 0.52822 0.17939 0.0
C446 C 0.62416 0.46653 0.01661 0.0
C447 C 0.58664 0.545 0.10114 0.0
C448 C 0.57786 0.51031 0.83775 0.0
C449 C 0.55691 0.49772 0.85006 0.0
C450 C 0.59394 0.51312 0.9055 0.0
C451 C 0.58863 0.50346 0.98754 0.0
C452 C 0.56734 0.49095 0.00037 0.0
C453 C 0.55194 0.48786 0.93092 0.0
C454 C 0.61675 0.5261 0.88905 0.0
C455 C 0.56086 0.48076 0.08726 0.0
H456 H 0.65184 0.47688 0.15242 0.0
H457 H 0.62136 0.54372 0.22016 0.0
H458 H 0.60732 0.45662 0.0188 0.0
H459 H 0.62704 0.47207 0.94877 0.0
H460 H 0.63865 0.45444 0.03585 0.0
H461 H 0.58796 0.55905 0.15066 0.0
H462 H 0.58865 0.5532 0.03657 0.0
H463 H 0.56872 0.53721 0.10412 0.0
H464 H 0.58178 0.51777 0.77495 0.0
H465 H 0.536 0.47762 0.94001 0.0
H466 H 0.6319 0.51436 0.90334 0.0
H467 H 0.6181 0.54153 0.93257 0.0
H468 H 0.61827 0.53238 0.8214 0.0
H469 H 0.57381 0.46704 0.10606 0.0
H470 H 0.54299 0.47275 0.08752 0.0
H471 H 0.56145 0.49475 0.13711 0.0
C472 C 0.96193 0.63054 0.14448 0.0
C473 C 0.97919 0.64706 0.16727 0.0
C474 C 0.96664 0.61303 0.08306 0.0
C475 C 0.98891 0.6125 0.04185 0.0
C476 C 0.0065 0.62894 0.06553 0.0
C477 C 0.00152 0.64586 0.12883 0.0
C478 C 0.94767 0.59536 0.06126 0.0
C479 C 0.03031 0.62919 0.02188 0.0
C480 C 0.00806 0.55783 0.91912 0.0
C481 C 0.00118 0.56358 0.83498 0.0
C482 C 0.00384 0.5734 0.98759 0.0
C483 C 0.99333 0.59559 0.97064 0.0
C484 C 0.987 0.60173 0.88524 0.0
C485 C 0.9908 0.58553 0.81852 0.0
C486 C 0.0104 0.56602 0.07798 0.0
C487 C 0.97623 0.62544 0.86432 0.0
H488 H 0.94473 0.63128 0.17486 0.0
H489 H 0.01487 0.65866 0.14617 0.0
H490 H 0.94189 0.59794 0.99365 0.0
H491 H 0.9547 0.57713 0.06655 0.0
H492 H 0.93204 0.59698 0.10405 0.0
H493 H 0.0423 0.64266 0.04964 0.0
H494 H 0.03882 0.61164 0.0275 0.0
H495 H 0.02808 0.63294 0.95215 0.0
H496 H 0.01662 0.54107 0.93162 0.0
H497 H 0.98566 0.59009 0.75332 0.0
H498 H 0.99468 0.56689 0.12047 0.0
H499 H 0.02369 0.57834 0.10462 0.0
H500 H 0.01767 0.54783 0.08052 0.0
H501 H 0.95919 0.62742 0.89865 0.0
H502 H 0.9731 0.62779 0.79418 0.0
H503 H 0.98798 0.6398 0.88682 0.0
C504 C 0.00282 0.22959 0.21782 0.0
C505 C 0.98112 0.23804 0.18766 0.0
C506 C 0.00511 0.20638 0.24877 0.0
C507 C 0.98518 0.19138 0.25037 0.0
C508 C 0.9633 0.19976 0.21905 0.0
C509 C 0.96148 0.22305 0.18879 0.0
C510 C 0.02887 0.1978 0.27913 0.0
C511 C 0.94187 0.18401 0.21673 0.0
C512 C 0.99222 0.12464 0.26241 0.0
C513 C 0.98693 0.12008 0.34932 0.0
C514 C 0.99251 0.14779 0.22975 0.0
C515 C 0.98706 0.1669 0.28499 0.0
C516 C 0.98234 0.16249 0.37318 0.0
C517 C 0.98244 0.13921 0.40427 0.0
C518 C 0.99815 0.15126 0.13546 0.0
C519 C 0.97672 0.18237 0.43449 0.0
H520 H 0.01792 0.24127 0.21888 0.0
H521 H 0.94471 0.22948 0.16498 0.0
H522 H 0.02769 0.19179 0.3471 0.0
H523 H 0.03443 0.18241 0.2399 0.0
H524 H 0.04263 0.21168 0.27423 0.0
H525 H 0.92612 0.19322 0.19076 0.0
H526 H 0.94558 0.16837 0.17599 0.0
H527 H 0.93776 0.1775 0.28256 0.0
H528 H 0.99557 0.11008 0.2189 0.0
H529 H 0.97887 0.136 0.47191 0.0
H530 H 0.00099 0.16993 0.11692 0.0
H531 H 0.9835 0.14407 0.09615 0.0
H532 H 0.0143 0.1412 0.11884 0.0
H533 H 0.99097 0.19576 0.43283 0.0
H534 H 0.97449 0.17611 0.50192 0.0
H535 H 0.96023 0.19128 0.41401 0.0
C536 C 0.27687 0.94824 0.18695 0.0
C537 C 0.26371 0.9691 0.1783 0.0
C538 C 0.29959 0.94848 0.22285 0.0
C539 C 0.30965 0.97018 0.24882 0.0
C540 C 0.29636 0.99123 0.24125 0.0
C541 C 0.27333 0.99029 0.20864 0.0
C542 C 0.31284 0.92553 0.23281 0.0
C543 C 0.30649 0.01479 0.26739 0.0
C544 C 0.36056 0.97192 0.40752 0.0
C545 C 0.37999 0.97523 0.35269 0.0
C546 C 0.33765 0.96974 0.37454 0.0
C547 C 0.334 0.97097 0.28444 0.0
C548 C 0.35356 0.97378 0.22855 0.0
C549 C 0.37631 0.97589 0.2633 0.0
C550 C 0.31733 0.96626 0.43623 0.0
C551 C 0.35035 0.97502 0.1321 0.0
H552 H 0.26945 0.93168 0.16517 0.0
H553 H 0.26279 0.00615 0.20855 0.0
H554 H 0.32913 0.92594 0.19326 0.0
H555 H 0.3183 0.9231 0.30088 0.0
H556 H 0.30213 0.91006 0.21308 0.0
H557 H 0.29459 0.0297 0.25095 0.0
H558 H 0.30971 0.01497 0.33783 0.0
H559 H 0.3237 0.0177 0.235 0.0
H560 H 0.36329 0.97093 0.47654 0.0
H561 H 0.39118 0.97863 0.22051 0.0
H562 H 0.30711 0.95035 0.41815 0.0
H563 H 0.30518 0.98156 0.43238 0.0
H564 H 0.32328 0.96431 0.50403 0.0
H565 H 0.34113 0.95902 0.1088 0.0
H566 H 0.3674 0.97653 0.09734 0.0
H567 H 0.33912 0.99038 0.11528 0.0
C568 C 0.49939 0.26527 0.23342 0.0
C569 C 0.5153 0.25948 0.16766 0.0
C570 C 0.49901 0.28795 0.26952 0.0
C571 C 0.51501 0.30526 0.23927 0.0
C572 C 0.53113 0.29951 0.17272 0.0
C573 C 0.53121 0.27661 0.13815 0.0
C574 C 0.4816 0.29333 0.34051 0.0
C575 C 0.54826 0.31757 0.13799 0.0
C576 C 0.5017 0.37007 0.28146 0.0
C577 C 0.51638 0.37488 0.35204 0.0
C578 C 0.50089 0.34744 0.24464 0.0
C579 C 0.51526 0.32923 0.2786 0.0
C580 C 0.52993 0.33391 0.35021 0.0
C581 C 0.53028 0.35662 0.38608 0.0
C582 C 0.48479 0.343 0.16907 0.0
C583 C 0.54528 0.31489 0.38905 0.0
H584 H 0.48744 0.25189 0.25769 0.0
H585 H 0.54347 0.27219 0.08707 0.0
H586 H 0.49117 0.29829 0.40004 0.0
H587 H 0.47044 0.30859 0.32206 0.0
H588 H 0.46996 0.27808 0.35524 0.0
H589 H 0.55964 0.3103 0.08613 0.0
H590 H 0.53848 0.33297 0.11197 0.0
H591 H 0.55968 0.32411 0.19074 0.0
H592 H 0.49106 0.3841 0.25414 0.0
H593 H 0.54132 0.36002 0.44158 0.0
H594 H 0.47307 0.32778 0.18261 0.0
H595 H 0.49544 0.33837 0.11157 0.0
H596 H 0.47366 0.35856 0.15355 0.0
H597 H 0.53425 0.29979 0.41019 0.0
H598 H 0.55553 0.32133 0.44518 0.0
H599 H 0.55777 0.30816 0.33984 0.0
C600 C 0.23149 0.49771 0.20603 0.0
C601 C 0.24251 0.51925 0.18686 0.0
C602 C 0.20808 0.4969 0.23544 0.0
C603 C 0.19577 0.5182 0.25063 0.0
C604 C 0.20698 0.54005 0.23376 0.0
C605 C 0.2301 0.5403 0.20146 0.0
C606 C 0.19649 0.47325 0.24998 0.0
C607 C 0.19444 0.56315 0.24925 0.0
C608 C 0.12877 0.51823 0.26345 0.0
C609 C 0.12495 0.51767 0.35275 0.0
C610 C 0.1517 0.51828 0.22916 0.0
C611 C 0.17129 0.51772 0.28558 0.0
C612 C 0.16751 0.51708 0.37582 0.0
C613 C 0.1444 0.51694 0.40828 0.0
C614 C 0.15474 0.5184 0.13252 0.0
C615 C 0.1879 0.51696 0.43821 0.0
H616 H 0.24122 0.48142 0.19975 0.0
H617 H 0.23848 0.55707 0.18747 0.0
H618 H 0.19128 0.47137 0.31857 0.0
H619 H 0.18018 0.47207 0.21083 0.0
H620 H 0.20822 0.45831 0.23254 0.0
H621 H 0.20583 0.57864 0.23525 0.0
H622 H 0.17853 0.56422 0.20795 0.0
H623 H 0.18846 0.56416 0.31726 0.0
H624 H 0.11379 0.5184 0.22019 0.0
H625 H 0.14153 0.51677 0.47736 0.0
H626 H 0.15731 0.49999 0.11022 0.0
H627 H 0.17031 0.52882 0.11207 0.0
H628 H 0.13897 0.52572 0.09971 0.0
H629 H 0.19933 0.50142 0.42619 0.0
H630 H 0.18198 0.51648 0.50646 0.0
H631 H 0.19886 0.53295 0.42819 0.0
C632 C 0.9721 0.79139 0.24462 0.0
C633 C 0.98845 0.7787 0.29393 0.0
C634 C 0.97783 0.81353 0.20975 0.0
C635 C 0.00072 0.82281 0.22213 0.0
C636 C 0.01724 0.81014 0.2726 0.0
C637 C 0.0108 0.78833 0.30889 0.0
C638 C 0.95947 0.82688 0.15892 0.0
C639 C 0.04197 0.81925 0.28567 0.0
C640 C 0.02128 0.86722 0.05451 0.0
C641 C 0.0185 0.88858 0.09854 0.0
C642 C 0.01615 0.84564 0.09481 0.0
C643 C 0.0075 0.84551 0.1805 0.0
C644 C 0.00478 0.86711 0.22526 0.0
C645 C 0.01051 0.8884 0.18389 0.0
C646 C 0.01974 0.823 0.04538 0.0
C647 C 0.99483 0.86798 0.31535 0.0
H648 H 0.95476 0.78398 0.23343 0.0
H649 H 0.02358 0.77836 0.3459 0.0
H650 H 0.95707 0.84478 0.18642 0.0
H651 H 0.96544 0.82913 0.0913 0.0
H652 H 0.94215 0.81774 0.15871 0.0
H653 H 0.0519 0.80861 0.33366 0.0
H654 H 0.05161 0.81875 0.22345 0.0
H655 H 0.0416 0.8379 0.30716 0.0
H656 H 0.02757 0.86745 0.98847 0.0
H657 H 0.00807 0.90499 0.21739 0.0
H658 H 0.00261 0.81391 0.0367 0.0
H659 H 0.03136 0.81091 0.08229 0.0
H660 H 0.02768 0.82611 0.98084 0.0
H661 H 0.97531 0.86754 0.3117 0.0
H662 H 5e-05 0.88442 0.34913 0.0
H663 H 0.00054 0.8526 0.35434 0.0
C664 C 0.71687 0.02556 0.30587 0.0
C665 C 0.73375 0.01414 0.25482 0.0
C666 C 0.69333 0.02782 0.27928 0.0
C667 C 0.68653 0.01909 0.19778 0.0
C668 C 0.7036 0.00835 0.144 0.0
C669 C 0.72688 0.00581 0.17343 0.0
C670 C 0.67563 0.0389 0.33978 0.0
C671 C 0.69719 0.99928 0.0557 0.0
C672 C 0.62236 0.00404 0.15327 0.0
C673 C 0.61476 0.0241 0.10819 0.0
C674 C 0.64553 0.0024 0.18459 0.0
C675 C 0.66158 0.02106 0.16872 0.0
C676 C 0.6539 0.04144 0.12378 0.0
C677 C 0.63052 0.04279 0.09465 0.0
C678 C 0.65283 0.98069 0.23448 0.0
C679 C 0.67047 0.06169 0.10556 0.0
H680 H 0.72174 0.03238 0.36745 0.0
H681 H 0.7397 0.99714 0.1325 0.0
H682 H 0.66464 0.0521 0.30552 0.0
H683 H 0.66363 0.02504 0.36499 0.0
H684 H 0.68423 0.04766 0.39541 0.0
H685 H 0.7127 0.99224 0.02034 0.0
H686 H 0.68387 0.98504 0.0617 0.0
H687 H 0.68917 0.01363 0.0168 0.0
H688 H 0.6101 0.98969 0.16451 0.0
H689 H 0.62469 0.05824 0.0593 0.0
H690 H 0.6592 0.98583 0.29934 0.0
H691 H 0.66763 0.97175 0.20107 0.0
H692 H 0.63814 0.96791 0.24232 0.0
H693 H 0.67756 0.06873 0.16688 0.0
H694 H 0.66173 0.0763 0.07 0.0
H695 H 0.68568 0.05538 0.06696 0.0
C696 C 0.49666 0.72608 0.15331 0.0
C697 C 0.49579 0.73054 0.24207 0.0
C698 C 0.4929 0.70327 0.12087 0.0
C699 C 0.48827 0.68447 0.17871 0.0
C700 C 0.48686 0.68897 0.26826 0.0
C701 C 0.4909 0.71191 0.29879 0.0
C702 C 0.4947 0.69916 0.025 0.0
C703 C 0.48217 0.66938 0.33225 0.0
C704 C 0.46325 0.62686 0.09291 0.0
C705 C 0.48347 0.61265 0.08946 0.0
C706 C 0.46452 0.65032 0.12157 0.0
C707 C 0.48656 0.65983 0.14629 0.0
C708 C 0.50706 0.64565 0.14164 0.0
C709 C 0.50525 0.62222 0.11358 0.0
C710 C 0.44223 0.66479 0.12707 0.0
C711 C 0.53092 0.65518 0.1667 0.0
H712 H 0.50067 0.74041 0.10922 0.0
H713 H 0.49141 0.71499 0.3673 0.0
H714 H 0.5099 0.68743 0.01116 0.0
H715 H 0.47865 0.69012 0.00126 0.0
H716 H 0.49703 0.71586 0.98831 0.0
H717 H 0.47741 0.67633 0.39668 0.0
H718 H 0.4677 0.65779 0.30972 0.0
H719 H 0.49819 0.65832 0.33912 0.0
H720 H 0.44636 0.61944 0.07493 0.0
H721 H 0.52096 0.61138 0.1098 0.0
H722 H 0.44412 0.68119 0.08844 0.0
H723 H 0.4391 0.67016 0.19485 0.0
H724 H 0.42657 0.65496 0.10378 0.0
H725 H 0.53503 0.67121 0.1283 0.0
H726 H 0.54523 0.64207 0.15682 0.0
H727 H 0.53078 0.66041 0.23551 0.0
C728 C 0.78049 0.51652 0.27847 0.0
C729 C 0.76524 0.4971 0.27678 0.0
C730 C 0.80338 0.51494 0.24433 0.0
C731 C 0.81098 0.49356 0.20616 0.0
C732 C 0.79555 0.47395 0.20385 0.0
C733 C 0.77285 0.47597 0.23917 0.0
C734 C 0.81949 0.53607 0.24967 0.0
C735 C 0.80303 0.45084 0.16414 0.0
C736 C 0.86169 0.49685 0.04608 0.0
C737 C 0.88088 0.4897 0.09679 0.0
C738 C 0.83882 0.49791 0.08058 0.0
C739 C 0.83502 0.49178 0.16802 0.0
C740 C 0.85422 0.48419 0.21914 0.0
C741 C 0.87689 0.48328 0.18303 0.0
C742 C 0.81877 0.50592 0.02374 0.0
C743 C 0.85097 0.4775 0.31254 0.0
H744 H 0.77465 0.53283 0.30794 0.0
H745 H 0.7609 0.46108 0.23628 0.0
H746 H 0.83534 0.53151 0.28803 0.0
H747 H 0.8256 0.54117 0.18426 0.0
H748 H 0.81074 0.55153 0.27983 0.0
H749 H 0.78894 0.43726 0.16762 0.0
H750 H 0.80789 0.4536 0.09557 0.0
H751 H 0.81888 0.44396 0.19762 0.0
H752 H 0.86461 0.50213 0.97975 0.0
H753 H 0.89153 0.47743 0.22248 0.0
H754 H 0.81093 0.52233 0.05007 0.0
H755 H 0.80469 0.49235 0.02298 0.0
H756 H 0.82453 0.50934 0.9564 0.0
H757 H 0.84768 0.49369 0.35063 0.0
H758 H 0.8667 0.46845 0.33939 0.0
H759 H 0.83548 0.46577 0.32089 0.0
C760 C 0.03426 0.17853 0.90043 0.0
C761 C 0.01319 0.18832 0.93106 0.0
C762 C 0.03452 0.15617 0.86188 0.0
C763 C 0.01326 0.14326 0.855 0.0
C764 C 0.99186 0.15332 0.88394 0.0
C765 C 0.99207 0.1758 0.92114 0.0
C766 C 0.05767 0.14593 0.83188 0.0
C767 C 0.9689 0.13992 0.87919 0.0
C768 C 0.00942 0.0888 0.71333 0.0
C769 C 0.01272 0.07076 0.77422 0.0
C770 C 0.00996 0.11261 0.73818 0.0
C771 C 0.01372 0.11837 0.82586 0.0
C772 C 0.01727 0.10021 0.88715 0.0
C773 C 0.01672 0.07669 0.86061 0.0
C774 C 0.00624 0.13156 0.67101 0.0
C775 C 0.02083 0.10543 0.98161 0.0
H776 H 0.05062 0.1882 0.90753 0.0
H777 H 0.97572 0.18322 0.94505 0.0
H778 H 0.06247 0.1307 0.87343 0.0
H779 H 0.05605 0.13926 0.765 0.0
H780 H 0.07221 0.15904 0.83418 0.0
H781 H 0.95355 0.15102 0.89749 0.0
H782 H 0.96607 0.13308 0.81313 0.0
H783 H 0.96959 0.1245 0.92331 0.0
H784 H 0.00635 0.08434 0.6464 0.0
H785 H 0.01912 0.06291 0.90837 0.0
H786 H 0.02084 0.14456 0.67316 0.0
H787 H 0.98969 0.14128 0.6849 0.0
H788 H 0.00514 0.12421 0.60484 0.0
H789 H 0.03358 0.12004 0.99069 0.0
H790 H 0.02723 0.08978 0.01792 0.0
H791 H 0.00376 0.11095 0.00996 0.0
C792 C 0.31863 0.05796 0.87746 0.0
C793 C 0.31291 0.04895 0.9591 0.0
C794 C 0.34194 0.0575 0.84724 0.0
C795 C 0.35975 0.04749 0.89953 0.0
C796 C 0.35437 0.03997 0.98428 0.0
C797 C 0.33102 0.04095 0.01329 0.0
C798 C 0.34723 0.06646 0.75758 0.0
C799 C 0.37293 0.02928 0.0421 0.0
C800 C 0.40944 0.01504 0.78825 0.0
C801 C 0.42849 0.02998 0.80432 0.0
C802 C 0.38689 0.02067 0.81855 0.0
C803 C 0.38328 0.04223 0.8627 0.0
C804 C 0.40236 0.05789 0.87554 0.0
C805 C 0.42495 0.0513 0.84778 0.0
C806 C 0.36713 0.00316 0.80588 0.0
C807 C 0.39895 0.08145 0.91894 0.0
H808 H 0.30478 0.06447 0.83567 0.0
H809 H 0.32681 0.03418 0.07685 0.0
H810 H 0.36358 0.07719 0.75724 0.0
H811 H 0.35012 0.05128 0.71382 0.0
H812 H 0.33257 0.07729 0.73137 0.0
H813 H 0.37891 0.01225 0.01449 0.0
H814 H 0.38857 0.04092 0.04589 0.0
H815 H 0.36632 0.02611 0.10853 0.0
H816 H 0.41238 0.99852 0.75473 0.0
H817 H 0.4398 0.06292 0.85895 0.0
H818 H 0.35247 0.0115 0.76972 0.0
H819 H 0.36004 0.99759 0.86947 0.0
H820 H 0.37295 0.98719 0.77034 0.0
H821 H 0.38433 0.09127 0.88778 0.0
H822 H 0.41512 0.09248 0.91644 0.0
H823 H 0.394 0.07879 0.9874 0.0
C824 C 0.45735 0.32223 0.98212 0.0
C825 C 0.47302 0.30392 0.96235 0.0
C826 C 0.46031 0.34477 0.94617 0.0
C827 C 0.47942 0.34903 0.88945 0.0
C828 C 0.49492 0.33045 0.86752 0.0
C829 C 0.49148 0.30809 0.90403 0.0
C830 C 0.4435 0.36424 0.9712 0.0
C831 C 0.51584 0.3345 0.80904 0.0
C832 C 0.4787 0.4049 0.75377 0.0
C833 C 0.49132 0.42032 0.80664 0.0
C834 C 0.47475 0.38146 0.77957 0.0
C835 C 0.48428 0.37332 0.85863 0.0
C836 C 0.49805 0.38865 0.90983 0.0
C837 C 0.50102 0.41209 0.88389 0.0
C838 C 0.45982 0.36564 0.7238 0.0
C839 C 0.50904 0.38076 0.99368 0.0
H840 H 0.44306 0.31911 0.02713 0.0
H841 H 0.50376 0.29405 0.88873 0.0
H842 H 0.45303 0.37778 0.00906 0.0
H843 H 0.43646 0.37305 0.91273 0.0
H844 H 0.4285 0.35762 0.01046 0.0
H845 H 0.52523 0.31785 0.79342 0.0
H846 H 0.51018 0.34301 0.74804 0.0
H847 H 0.52842 0.34668 0.84082 0.0
H848 H 0.47117 0.41141 0.69409 0.0
H849 H 0.51101 0.42404 0.92428 0.0
H850 H 0.44377 0.36027 0.75977 0.0
H851 H 0.46962 0.3493 0.70766 0.0
H852 H 0.45437 0.37444 0.66294 0.0
H853 H 0.49561 0.38185 0.04543 0.0
H854 H 0.52404 0.39226 0.01225 0.0
H855 H 0.51543 0.36229 0.99023 0.0
C856 C 0.17921 0.50353 0.93299 0.0
C857 C 0.19102 0.48214 0.94702 0.0
C858 C 0.15607 0.50389 0.90215 0.0
C859 C 0.14465 0.48236 0.88318 0.0
C860 C 0.15667 0.46071 0.89488 0.0
C861 C 0.17972 0.46083 0.92742 0.0
C862 C 0.14366 0.52733 0.89189 0.0
C863 C 0.14498 0.43745 0.87477 0.0
C864 C 0.07816 0.48546 0.88998 0.0
C865 C 0.07269 0.48939 0.80302 0.0
C866 C 0.10147 0.48208 0.91655 0.0
C867 C 0.11977 0.48268 0.85457 0.0
C868 C 0.11433 0.4856 0.76625 0.0
C869 C 0.09082 0.48902 0.74154 0.0
C870 C 0.10647 0.47928 0.01161 0.0
C871 C 0.13339 0.48597 0.69822 0.0
H872 H 0.18782 0.52006 0.94829 0.0
H873 H 0.18883 0.44426 0.93783 0.0
H874 H 0.13809 0.52978 0.82399 0.0
H875 H 0.12751 0.52763 0.93228 0.0
H876 H 0.15499 0.54245 0.91057 0.0
H877 H 0.1572 0.42227 0.88245 0.0
H878 H 0.12966 0.43477 0.91822 0.0
H879 H 0.13818 0.43758 0.80777 0.0
H880 H 0.0643 0.48562 0.9381 0.0
H881 H 0.08678 0.4919 0.67424 0.0
H882 H 0.11256 0.49642 0.03757 0.0
H883 H 0.12056 0.46611 0.02344 0.0
H884 H 0.0905 0.4739 0.04816 0.0
H885 H 0.14439 0.50199 0.70603 0.0
H886 H 0.12605 0.48596 0.63191 0.0
H887 H 0.14515 0.47046 0.70574 0.0
C888 C 0.01668 0.8127 0.59882 0.0
C889 C 0.00419 0.80235 0.66718 0.0
C890 C 0.01501 0.83702 0.58263 0.0
C891 C 0.00018 0.85111 0.63496 0.0
C892 C 0.98621 0.84033 0.69969 0.0
C893 C 0.98874 0.81612 0.71604 0.0
C894 C 0.03088 0.84783 0.51525 0.0
C895 C 0.96989 0.85466 0.75593 0.0
C896 C 0.02005 0.91275 0.69083 0.0
C897 C 0.00532 0.92685 0.63973 0.0
C898 C 0.01886 0.88817 0.68794 0.0
C899 C 0.00237 0.87725 0.63268 0.0
C900 C 0.98787 0.89132 0.57869 0.0
C901 C 0.9896 0.91611 0.5825 0.0
C902 C 0.03477 0.87394 0.74642 0.0
C903 C 0.96968 0.88037 0.52049 0.0
H904 H 0.02905 0.80218 0.56201 0.0
H905 H 0.97917 0.80805 0.76902 0.0
H906 H 0.02236 0.86306 0.48293 0.0
H907 H 0.04715 0.85435 0.5468 0.0
H908 H 0.03609 0.83466 0.46602 0.0
H909 H 0.95774 0.8433 0.79389 0.0
H910 H 0.98043 0.86539 0.80151 0.0
H911 H 0.95931 0.86701 0.71613 0.0
H912 H 0.0324 0.92101 0.73467 0.0
H913 H 0.97801 0.92699 0.54368 0.0
H914 H 0.04478 0.86074 0.70844 0.0
H915 H 0.02401 0.86415 0.79438 0.0
H916 H 0.04751 0.88518 0.78184 0.0
H917 H 0.97616 0.86362 0.49218 0.0
H918 H 0.96453 0.89257 0.46763 0.0
H919 H 0.9537 0.87623 0.55889 0.0
C920 C 0.67302 0.02851 0.5903 0.0
C921 C 0.68774 0.0107 0.55849 0.0
C922 C 0.64917 0.02408 0.60698 0.0
C923 C 0.6399 0.0013 0.59137 0.0
C924 C 0.65471 0.98317 0.56024 0.0
C925 C 0.67851 0.98808 0.54428 0.0
C926 C 0.63384 0.04384 0.64053 0.0
C927 C 0.64535 0.9587 0.5428 0.0
C928 C 0.58375 0.9888 0.71349 0.0
C929 C 0.56663 0.99453 0.65184 0.0
C930 C 0.60775 0.98968 0.69321 0.0
C931 C 0.61473 0.99654 0.60933 0.0
C932 C 0.59753 0.00089 0.54519 0.0
C933 C 0.57357 0.99976 0.56724 0.0
C934 C 0.62559 0.98467 0.76306 0.0
C935 C 0.60444 0.00822 0.45494 0.0
H936 H 0.68004 0.04604 0.60105 0.0
H937 H 0.68976 0.97426 0.51902 0.0
H938 H 0.61907 0.04712 0.59532 0.0
H939 H 0.62603 0.03875 0.70345 0.0
H940 H 0.6438 0.06054 0.64901 0.0
H941 H 0.65937 0.9464 0.52092 0.0
H942 H 0.63706 0.95136 0.60183 0.0
H943 H 0.63151 0.95955 0.49251 0.0
H944 H 0.57844 0.98449 0.77881 0.0
H945 H 0.56037 0.00428 0.51955 0.0
H946 H 0.63482 0.00124 0.78047 0.0
H947 H 0.63912 0.97207 0.7397 0.0
H948 H 0.6173 0.97729 0.82218 0.0
H949 H 0.61228 0.02615 0.45644 0.0
H950 H 0.58912 0.0085 0.41048 0.0
H951 H 0.618 0.99612 0.42857 0.0
C952 C 0.50903 0.6781 0.59967 0.0
C953 C 0.48609 0.68576 0.581 0.0
C954 C 0.51355 0.65451 0.6212 0.0
C955 C 0.49464 0.63831 0.62515 0.0
C956 C 0.47131 0.64615 0.61024 0.0
C957 C 0.46731 0.6698 0.58791 0.0
C958 C 0.53864 0.64676 0.63708 0.0
C959 C 0.45066 0.62941 0.61561 0.0
C960 C 0.50549 0.57291 0.59172 0.0
C961 C 0.50462 0.56442 0.67656 0.0
C962 C 0.50288 0.59709 0.57417 0.0
C963 C 0.49926 0.61303 0.64314 0.0
C964 C 0.49926 0.60469 0.72902 0.0
C965 C 0.50199 0.58052 0.74465 0.0
C966 C 0.50334 0.60552 0.48175 0.0
C967 C 0.49536 0.62107 0.80444 0.0
H968 H 0.52365 0.69031 0.59426 0.0
H969 H 0.44954 0.67565 0.57378 0.0
H970 H 0.54009 0.63813 0.70112 0.0
H971 H 0.54389 0.63353 0.58809 0.0
H972 H 0.55126 0.66172 0.63436 0.0
H973 H 0.43353 0.63854 0.6062 0.0
H974 H 0.45245 0.61553 0.56574 0.0
H975 H 0.45044 0.62044 0.67924 0.0
H976 H 0.50756 0.56063 0.53883 0.0
H977 H 0.50147 0.57422 0.81062 0.0
H978 H 0.51648 0.61985 0.47385 0.0
H979 H 0.48589 0.61295 0.4642 0.0
H980 H 0.50766 0.59111 0.43598 0.0
H981 H 0.50603 0.63736 0.79759 0.0
H982 H 0.49983 0.61255 0.86688 0.0
H983 H 0.47656 0.62641 0.80647 0.0
C984 C 0.83521 0.46728 0.51919 0.0
C985 C 0.81719 0.48387 0.50739 0.0
C986 C 0.85774 0.47437 0.54561 0.0
C987 C 0.86224 0.49858 0.56076 0.0
C988 C 0.84411 0.51539 0.54906 0.0
C989 C 0.82177 0.50782 0.52261 0.0
C990 C 0.87677 0.45598 0.55659 0.0
C991 C 0.84839 0.54136 0.5637 0.0
C992 C 0.91441 0.51119 0.70501 0.0
C993 C 0.93239 0.51504 0.64441 0.0
C994 C 0.89125 0.5067 0.67869 0.0
C995 C 0.88593 0.50622 0.58968 0.0
C996 C 0.90363 0.51165 0.5284 0.0
C997 C 0.9267 0.51594 0.55654 0.0
C998 C 0.87281 0.50115 0.74609 0.0
C999 C 0.89867 0.51152 0.43281 0.0
H1000 H 0.83177 0.44877 0.50715 0.0
H1001 H 0.80798 0.52077 0.51276 0.0
H1002 H 0.89168 0.4599 0.51251 0.0
H1003 H 0.88372 0.45648 0.62335 0.0
H1004 H 0.87032 0.43787 0.54305 0.0
H1005 H 0.83235 0.55216 0.55218 0.0
H1006 H 0.85441 0.54433 0.63077 0.0
H1007 H 0.86259 0.54769 0.52018 0.0
H1008 H 0.91856 0.51066 0.77311 0.0
H1009 H 0.94044 0.51894 0.50917 0.0
H1010 H 0.86792 0.48223 0.74197 0.0
H1011 H 0.8566 0.51162 0.73449 0.0
H1012 H 0.87914 0.50478 0.81243 0.0
H1013 H 0.89797 0.493 0.41004 0.0
H1014 H 0.91261 0.52084 0.39568 0.0
H1015 H 0.88144 0.51984 0.41824 0.0
loop_
_geom_bond_atom_site_label_1
_geom_bond_atom_site_label_2
_geom_bond_distance
_geom_bond_site_symmetry_2
_ccdc_geom_bond_type
O0 Cd1 2.300 . S
O0 C7 1.275 . S
Cd1 O0 2.300 . S
Cd1 O9 2.381 . S
Cd1 O10 2.378 . S
O2 Cd3 2.385 . S
O2 C7 1.255 . S
Cd3 O2 2.385 . S
Cd3 O4 2.317 . S
O4 Cd3 2.317 . S
O4 C5 1.232 . S
C5 O4 1.232 . S
C5 O6 1.218 . S
O6 C5 1.218 . S
C7 O0 1.275 . S
C7 O2 1.255 . S
C8 O9 1.258 . S
C8 O10 1.256 . S
O9 Cd1 2.381 . S
O9 C8 1.258 . S
O10 Cd1 2.378 . S
O10 C8 1.256 . S
O11 Cd12 2.300 1_655 S
O11 C18 1.275 1_655 S
Cd12 O11 2.300 1_455 S
Cd12 O20 2.381 1_455 S
Cd12 O21 2.378 . S
O13 Cd14 2.385 . S
O13 C18 1.255 . S
Cd14 O13 2.385 . S
Cd14 O15 2.317 . S
O15 Cd14 2.317 . S
O15 C16 1.232 . S
C16 O15 1.232 . S
C16 O17 1.218 . S
O17 C16 1.218 . S
C18 O11 1.275 1_455 S
C18 O13 1.255 . S
C19 O20 1.258 1_455 S
C19 O21 1.256 . S
O20 Cd12 2.381 1_655 S
O20 C19 1.258 1_655 S
O21 Cd12 2.378 . S
O21 C19 1.256 . S
O22 Cd23 2.300 1_565 S
O22 C29 1.275 1_565 S
Cd23 O22 2.300 1_545 S
Cd23 O31 2.381 1_545 S
Cd23 O32 2.378 . S
O24 Cd25 2.385 . S
O24 C29 1.255 . S
Cd25 O24 2.385 . S
Cd25 O26 2.317 . S
O26 Cd25 2.317 . S
O26 C27 1.232 . S
C27 O26 1.232 . S
C27 O28 1.218 . S
O28 C27 1.218 . S
C29 O22 1.275 1_545 S
C29 O24 1.255 . S
C30 O31 1.258 1_545 S
C30 O32 1.256 . S
O31 Cd23 2.381 1_565 S
O31 C30 1.258 1_565 S
O32 Cd23 2.378 . S
O32 C30 1.256 . S
O33 Cd34 2.300 . S
O33 C40 1.275 . S
Cd34 O33 2.300 . S
Cd34 O42 2.381 . S
Cd34 O43 2.378 . S
O35 Cd36 2.385 . S
O35 C40 1.255 . S
Cd36 O35 2.385 . S
Cd36 O37 2.317 . S
O37 Cd36 2.317 . S
O37 C38 1.232 . S
C38 O37 1.232 . S
C38 O39 1.218 . S
O39 C38 1.218 . S
C40 O33 1.275 . S
C40 O35 1.255 . S
C41 O42 1.258 . S
C41 O43 1.256 . S
O42 Cd34 2.381 . S
O42 C41 1.258 . S
O43 Cd34 2.378 . S
O43 C41 1.256 . S
O44 Cd45 2.300 . S
O44 C51 1.275 . S
Cd45 O44 2.300 . S
Cd45 O53 2.381 . S
Cd45 O54 2.378 . S
O46 Cd47 2.385 1_554 S
O46 C51 1.255 . S
Cd47 O46 2.385 1_556 S
Cd47 O48 2.317 . S
O48 Cd47 2.317 . S
O48 C49 1.232 . S
C49 O48 1.232 . S
C49 O50 1.218 . S
O50 C49 1.218 . S
C51 O44 1.275 . S
C51 O46 1.255 . S
C52 O53 1.258 . S
C52 O54 1.256 . S
O53 Cd45 2.381 . S
O53 C52 1.258 . S
O54 Cd45 2.378 . S
O54 C52 1.256 . S
O55 Cd56 2.300 1_655 S
O55 C62 1.275 1_655 S
Cd56 O55 2.300 1_455 S
Cd56 O64 2.381 1_455 S
Cd56 O65 2.378 . S
O57 Cd58 2.391 . S
O57 C62 1.255 . S
Cd58 O57 2.391 . S
Cd58 O59 2.312 1_554 S
O59 Cd58 2.312 1_556 S
O59 C60 1.232 . S
C60 O59 1.232 . S
C60 O61 1.218 . S
O61 C60 1.218 . S
C62 O55 1.275 1_455 S
C62 O57 1.255 . S
C63 O64 1.258 1_455 S
C63 O65 1.256 . S
O64 Cd56 2.381 1_655 S
O64 C63 1.258 1_655 S
O65 Cd56 2.378 . S
O65 C63 1.256 . S
O66 Cd67 2.300 1_565 S
O66 C73 1.275 1_565 S
Cd67 O66 2.300 1_545 S
Cd67 O75 2.381 1_545 S
Cd67 O76 2.378 . S
O68 Cd69 2.385 1_554 S
O68 C73 1.255 . S
Cd69 O68 2.385 1_556 S
Cd69 O70 2.317 . S
O70 Cd69 2.317 . S
O70 C71 1.232 . S
C71 O70 1.232 . S
C71 O72 1.218 . S
O72 C71 1.218 . S
C73 O66 1.275 1_545 S
C73 O68 1.255 . S
C74 O75 1.258 1_545 S
C74 O76 1.256 . S
O75 Cd67 2.381 1_565 S
O75 C74 1.258 1_565 S
O76 Cd67 2.378 . S
O76 C74 1.256 . S
O77 Cd78 2.300 . S
O77 C84 1.275 . S
Cd78 O77 2.300 . S
Cd78 O86 2.381 . S
Cd78 O87 2.378 . S
O79 Cd80 2.385 1_554 S
O79 C84 1.255 . S
Cd80 O79 2.385 1_556 S
Cd80 O81 2.317 . S
O81 Cd80 2.317 . S
O81 C82 1.232 . S
C82 O81 1.232 . S
C82 O83 1.218 . S
O83 C82 1.218 . S
C84 O77 1.275 . S
C84 O79 1.255 . S
C85 O86 1.258 . S
C85 O87 1.256 . S
O86 Cd78 2.381 . S
O86 C85 1.258 . S
O87 Cd78 2.378 . S
O87 C85 1.256 . S
Tb88 C90 2.809 . S
Tb88 O108 2.504 . S
Tb88 O109 2.440 . S
Tb88 O110 2.658 1_565 S
Tb88 O111 2.409 . S
Tb88 O112 2.378 . S
Tb88 O116 2.325 1_455 S
Tb88 O119 2.341 1_565 S
Tb89 C99 2.809 . S
Tb89 O110 2.325 1_655 S
Tb89 O113 2.341 1_545 S
Tb89 O114 2.500 . S
Tb89 O115 2.440 . S
Tb89 O116 2.658 1_545 S
Tb89 O117 2.409 . S
Tb89 O118 2.378 . S
C90 Tb88 2.809 . S
C90 C91 1.514 . S
C90 O108 1.294 . S
C90 O109 1.266 . S
C91 C90 1.514 . S
C91 C92 1.359 . S
C91 C96 1.348 . S
C92 C91 1.359 . S
C92 C93 1.380 1_556 S
C92 H120 0.929 1_455 S
C93 C92 1.380 1_554 S
C93 C94 1.347 . S
C93 H121 0.931 1_455 S
C94 C93 1.347 . S
C94 C95 1.369 1_554 S
C95 C94 1.369 1_556 S
C95 C96 1.408 . S
C95 H122 0.930 . S
C96 C91 1.348 . S
C96 C95 1.408 . S
C96 H123 0.930 . S
C97 O110 1.281 1_565 S
C97 O111 1.254 . S
C98 O112 1.236 1_655 S
C98 O113 1.266 . S
C99 Tb89 2.809 . S
C99 C100 1.514 . S
C99 O114 1.283 . S
C99 O115 1.266 . S
C100 C99 1.514 . S
C100 C101 1.359 . S
C100 C105 1.348 . S
C101 C100 1.359 . S
C101 C102 1.380 . S
C101 H124 0.929 1_655 S
C102 C101 1.380 . S
C102 C103 1.347 . S
C102 H125 0.931 1_655 S
C103 C102 1.347 . S
C103 C104 1.369 . S
C104 C103 1.369 . S
C104 C105 1.408 . S
C104 H126 0.930 . S
C105 C100 1.348 . S
C105 C104 1.408 . S
C105 H127 0.930 . S
C106 O116 1.281 1_545 S
C106 O117 1.254 . S
C107 O118 1.236 1_455 S
C107 O119 1.266 . S
O108 Tb88 2.504 . S
O108 C90 1.294 . S
O109 Tb88 2.440 . S
O109 C90 1.266 . S
O110 Tb88 2.658 1_545 S
O110 Tb89 2.325 1_455 S
O110 C97 1.281 1_545 S
O111 Tb88 2.409 . S
O111 C97 1.254 . S
O112 Tb88 2.378 . S
O112 C98 1.236 1_455 S
O113 Tb89 2.341 1_565 S
O113 C98 1.266 . S
O114 Tb89 2.500 . S
O114 C99 1.283 . S
O115 Tb89 2.440 . S
O115 C99 1.266 . S
O116 Tb88 2.325 1_655 S
O116 Tb89 2.658 1_565 S
O116 C106 1.281 1_565 S
O117 Tb89 2.409 . S
O117 C106 1.254 . S
O118 Tb89 2.378 . S
O118 C107 1.236 1_655 S
O119 Tb88 2.341 1_545 S
O119 C107 1.266 . S
H120 C92 0.929 1_655 S
H121 C93 0.931 1_655 S
H122 C95 0.930 . S
H123 C96 0.930 . S
H124 C101 0.929 1_455 S
H125 C102 0.931 1_455 S
H126 C104 0.930 . S
H127 C105 0.930 . S
Tb128 C130 2.809 . S
Tb128 O148 2.498 . S
Tb128 O149 2.440 . S
Tb128 O150 2.658 . S
Tb128 O151 2.409 . S
Tb128 O152 2.378 . S
Tb128 O156 2.325 1_545 S
Tb128 O159 2.341 . S
Tb129 C139 2.809 . S
Tb129 O150 2.325 1_565 S
Tb129 O153 2.341 . S
Tb129 O154 2.493 . S
Tb129 O155 2.440 . S
Tb129 O156 2.658 . S
Tb129 O157 2.409 . S
Tb129 O158 2.378 . S
C130 Tb128 2.809 . S
C130 C131 1.514 . S
C130 O148 1.279 . S
C130 O149 1.266 . S
C131 C130 1.514 . S
C131 C132 1.359 . S
C131 C136 1.348 . S
C132 C131 1.359 . S
C132 C133 1.380 1_556 S
C132 H160 0.929 1_545 S
C133 C132 1.380 1_554 S
C133 C134 1.347 . S
C133 H161 0.931 1_545 S
C134 C133 1.347 . S
C134 C135 1.369 1_554 S
C135 C134 1.369 1_556 S
C135 C136 1.408 . S
C135 H162 0.930 . S
C136 C131 1.348 . S
C136 C135 1.408 . S
C136 H163 0.930 . S
C137 O150 1.281 . S
C137 O151 1.254 . S
C138 O152 1.236 1_565 S
C138 O153 1.266 . S
C139 Tb129 2.809 . S
C139 C140 1.514 . S
C139 O154 1.269 . S
C139 O155 1.266 . S
C140 C139 1.514 . S
C140 C141 1.359 . S
C140 C145 1.348 . S
C141 C140 1.359 . S
C141 C142 1.380 . S
C141 H164 0.929 1_565 S
C142 C141 1.380 . S
C142 C143 1.347 . S
C142 H165 0.931 1_565 S
C143 C142 1.347 . S
C143 C144 1.369 . S
C144 C143 1.369 . S
C144 C145 1.408 . S
C144 H166 0.930 . S
C145 C140 1.348 . S
C145 C144 1.408 . S
C145 H167 0.930 . S
C146 O156 1.281 . S
C146 O157 1.254 . S
C147 O158 1.236 1_545 S
C147 O159 1.266 . S
O148 Tb128 2.498 . S
O148 C130 1.279 . S
O149 Tb128 2.440 . S
O149 C130 1.266 . S
O150 Tb128 2.658 . S
O150 Tb129 2.325 1_545 S
O150 C137 1.281 . S
O151 Tb128 2.409 . S
O151 C137 1.254 . S
O152 Tb128 2.378 . S
O152 C138 1.236 1_545 S
O153 Tb129 2.341 . S
O153 C138 1.266 . S
O154 Tb129 2.493 . S
O154 C139 1.269 . S
O155 Tb129 2.440 . S
O155 C139 1.266 . S
O156 Tb128 2.325 1_565 S
O156 Tb129 2.658 . S
O156 C146 1.281 . S
O157 Tb129 2.409 . S
O157 C146 1.254 . S
O158 Tb129 2.378 . S
O158 C147 1.236 1_565 S
O159 Tb128 2.341 . S
O159 C147 1.266 . S
H160 C132 0.929 1_565 S
H161 C133 0.931 1_565 S
H162 C135 0.930 . S
H163 C136 0.930 . S
H164 C141 0.929 1_545 S
H165 C142 0.931 1_545 S
H166 C144 0.930 . S
H167 C145 0.930 . S
Tb168 C170 2.809 . S
Tb168 O188 2.484 . S
Tb168 O189 2.440 . S
Tb168 O190 2.658 . S
Tb168 O191 2.409 . S
Tb168 O192 2.378 . S
Tb168 O196 2.325 . S
Tb168 O199 2.341 . S
Tb169 C179 2.809 . S
Tb169 O190 2.325 . S
Tb169 O193 2.341 . S
Tb169 O194 2.484 . S
Tb169 O195 2.440 . S
Tb169 O196 2.658 . S
Tb169 O197 2.409 . S
Tb169 O198 2.378 . S
C170 Tb168 2.809 . S
C170 C171 1.514 . S
C170 O188 1.248 . S
C170 O189 1.266 . S
C171 C170 1.514 . S
C171 C172 1.359 . S
C171 C176 1.348 . S
C172 C171 1.359 . S
C172 C173 1.380 1_556 S
C172 H200 0.929 . S
C173 C172 1.380 1_554 S
C173 C174 1.347 . S
C173 H201 0.931 . S
C174 C173 1.347 . S
C174 C175 1.369 1_554 S
C175 C174 1.369 1_556 S
C175 C176 1.408 . S
C175 H202 0.930 . S
C176 C171 1.348 . S
C176 C175 1.408 . S
C176 H203 0.930 . S
C177 O190 1.281 . S
C177 O191 1.254 . S
C178 O192 1.236 . S
C178 O193 1.266 . S
C179 Tb169 2.809 . S
C179 C180 1.514 . S
C179 O194 1.248 . S
C179 O195 1.266 . S
C180 C179 1.514 . S
C180 C181 1.359 . S
C180 C185 1.348 . S
C181 C180 1.359 . S
C181 C182 1.380 . S
C181 H204 0.929 . S
C182 C181 1.380 . S
C182 C183 1.347 . S
C182 H205 0.931 . S
C183 C182 1.347 . S
C183 C184 1.369 . S
C184 C183 1.369 . S
C184 C185 1.408 . S
C184 H206 0.930 . S
C185 C180 1.348 . S
C185 C184 1.408 . S
C185 H207 0.930 . S
C186 O196 1.281 . S
C186 O197 1.254 . S
C187 O198 1.236 . S
C187 O199 1.266 . S
O188 Tb168 2.484 . S
O188 C170 1.248 . S
O189 Tb168 2.440 . S
O189 C170 1.266 . S
O190 Tb168 2.658 . S
O190 Tb169 2.325 . S
O190 C177 1.281 . S
O191 Tb168 2.409 . S
O191 C177 1.254 . S
O192 Tb168 2.378 . S
O192 C178 1.236 . S
O193 Tb169 2.341 . S
O193 C178 1.266 . S
O194 Tb169 2.484 . S
O194 C179 1.248 . S
O195 Tb169 2.440 . S
O195 C179 1.266 . S
O196 Tb168 2.325 . S
O196 Tb169 2.658 . S
O196 C186 1.281 . S
O197 Tb169 2.409 . S
O197 C186 1.254 . S
O198 Tb169 2.378 . S
O198 C187 1.236 . S
O199 Tb168 2.341 . S
O199 C187 1.266 . S
H200 C172 0.929 . S
H201 C173 0.931 . S
H202 C175 0.930 . S
H203 C176 0.930 . S
H204 C181 0.929 . S
H205 C182 0.931 . S
H206 C184 0.930 . S
H207 C185 0.930 . S
Tb208 C210 2.809 . S
Tb208 O228 2.484 . S
Tb208 O229 2.440 . S
Tb208 O230 2.658 1_655 S
Tb208 O231 2.409 . S
Tb208 O232 2.378 . S
Tb208 O236 2.325 . S
Tb208 O239 2.341 1_655 S
Tb209 C219 2.809 . S
Tb209 O230 2.325 . S
Tb209 O233 2.341 1_455 S
Tb209 O234 2.484 . S
Tb209 O235 2.440 . S
Tb209 O236 2.658 1_455 S
Tb209 O237 2.409 . S
Tb209 O238 2.378 . S
C210 Tb208 2.809 . S
C210 C211 1.514 . S
C210 O228 1.248 . S
C210 O229 1.266 . S
C211 C210 1.514 . S
C211 C212 1.359 . S
C211 C216 1.348 . S
C212 C211 1.359 . S
C212 C213 1.380 1_556 S
C212 H240 0.929 . S
C213 C212 1.380 1_554 S
C213 C214 1.347 . S
C213 H241 0.931 . S
C214 C213 1.347 . S
C214 C215 1.369 1_554 S
C215 C214 1.369 1_556 S
C215 C216 1.408 . S
C215 H242 0.930 . S
C216 C211 1.348 . S
C216 C215 1.408 . S
C216 H243 0.930 . S
C217 O230 1.272 1_655 S
C217 O231 1.267 . S
C218 O232 1.236 . S
C218 O233 1.266 . S
C219 Tb209 2.809 . S
C219 C220 1.514 . S
C219 O234 1.248 . S
C219 O235 1.266 . S
C220 C219 1.514 . S
C220 C221 1.359 . S
C220 C225 1.348 . S
C221 C220 1.359 . S
C221 C222 1.380 . S
C221 H244 0.929 . S
C222 C221 1.380 . S
C222 C223 1.347 . S
C222 H245 0.931 . S
C223 C222 1.347 . S
C223 C224 1.369 . S
C224 C223 1.369 . S
C224 C225 1.408 . S
C224 H246 0.930 . S
C225 C220 1.348 . S
C225 C224 1.408 . S
C225 H247 0.930 . S
C226 O236 1.268 1_455 S
C226 O237 1.272 . S
C227 O238 1.236 . S
C227 O239 1.266 . S
O228 Tb208 2.484 . S
O228 C210 1.248 . S
O229 Tb208 2.440 . S
O229 C210 1.266 . S
O230 Tb208 2.658 1_455 S
O230 Tb209 2.325 . S
O230 C217 1.272 1_455 S
O231 Tb208 2.409 . S
O231 C217 1.267 . S
O232 Tb208 2.378 . S
O232 C218 1.236 . S
O233 Tb209 2.341 1_655 S
O233 C218 1.266 . S
O234 Tb209 2.484 . S
O234 C219 1.248 . S
O235 Tb209 2.440 . S
O235 C219 1.266 . S
O236 Tb208 2.325 . S
O236 Tb209 2.658 1_655 S
O236 C226 1.268 1_655 S
O237 Tb209 2.409 . S
O237 C226 1.272 . S
O238 Tb209 2.378 . S
O238 C227 1.236 . S
O239 Tb208 2.341 1_455 S
O239 C227 1.266 . S
H240 C212 0.929 . S
H241 C213 0.931 . S
H242 C215 0.930 . S
H243 C216 0.930 . S
H244 C221 0.929 . S
H245 C222 0.931 . S
H246 C224 0.930 . S
H247 C225 0.930 . S
C248 C249 1.391 . S
C248 C250 1.394 . S
C248 H264 0.931 . S
C249 C248 1.391 . S
C249 C253 1.376 1_545 S
C250 C248 1.394 . S
C250 C251 1.369 . S
C250 C254 1.531 . S
C251 C250 1.369 . S
C251 C252 1.410 1_545 S
C251 C259 1.503 . S
C252 C251 1.410 1_565 S
C252 C253 1.392 . S
C252 C255 1.511 . S
C253 C249 1.376 1_565 S
C253 C252 1.392 . S
C253 H265 0.929 . S
C254 C250 1.531 . S
C254 H266 0.960 . S
C254 H267 0.962 . S
C254 H268 0.960 . S
C255 C252 1.511 . S
C255 H269 0.961 . S
C255 H270 0.961 . S
C255 H271 0.961 . S
C256 C257 1.339 1_565 S
C256 C258 1.363 . S
C256 H272 0.931 . S
C257 C256 1.339 1_545 S
C257 C261 1.445 . S
C258 C256 1.363 . S
C258 C259 1.370 1_565 S
C258 C262 1.524 . S
C259 C251 1.503 . S
C259 C258 1.370 1_545 S
C259 C260 1.403 . S
C260 C259 1.403 . S
C260 C261 1.404 . S
C260 C263 1.539 . S
C261 C257 1.445 . S
C261 C260 1.404 . S
C261 H273 0.930 . S
C262 C258 1.524 . S
C262 H274 0.956 . S
C262 H275 0.961 . S
C262 H276 0.961 . S
C263 C260 1.539 . S
C263 H277 0.958 . S
C263 H278 0.961 . S
C263 H279 0.960 . S
H264 C248 0.931 . S
H265 C253 0.929 . S
H266 C254 0.960 . S
H267 C254 0.962 . S
H268 C254 0.960 . S
H269 C255 0.961 . S
H270 C255 0.961 . S
H271 C255 0.961 . S
H272 C256 0.931 . S
H273 C261 0.930 . S
H274 C262 0.956 . S
H275 C262 0.961 . S
H276 C262 0.961 . S
H277 C263 0.958 . S
H278 C263 0.961 . S
H279 C263 0.960 . S
C280 C281 1.391 . S
C280 C282 1.394 . S
C280 H296 0.931 . S
C281 C280 1.391 . S
C281 C285 1.376 . S
C282 C280 1.394 . S
C282 C283 1.369 . S
C282 C286 1.531 . S
C283 C282 1.369 . S
C283 C284 1.410 . S
C283 C291 1.503 . S
C284 C283 1.410 . S
C284 C285 1.392 . S
C284 C287 1.511 . S
C285 C281 1.376 . S
C285 C284 1.392 . S
C285 H297 0.929 . S
C286 C282 1.531 . S
C286 H298 0.960 . S
C286 H299 0.962 . S
C286 H300 0.960 . S
C287 C284 1.511 . S
C287 H301 0.961 . S
C287 H302 0.961 . S
C287 H303 0.961 . S
C288 C289 1.370 . S
C288 C290 1.363 . S
C288 H304 0.931 . S
C289 C288 1.370 . S
C289 C293 1.408 . S
C290 C288 1.363 . S
C290 C291 1.370 . S
C290 C294 1.524 . S
C291 C283 1.503 . S
C291 C290 1.370 . S
C291 C292 1.403 . S
C292 C291 1.403 . S
C292 C293 1.404 . S
C292 C295 1.539 . S
C293 C289 1.408 . S
C293 C292 1.404 . S
C293 H305 0.930 . S
C294 C290 1.524 . S
C294 H306 0.956 . S
C294 H307 0.961 . S
C294 H308 0.961 . S
C295 C292 1.539 . S
C295 H309 0.958 . S
C295 H310 0.961 . S
C295 H311 0.960 . S
H296 C280 0.931 . S
H297 C285 0.929 . S
H298 C286 0.960 . S
H299 C286 0.962 . S
H300 C286 0.960 . S
H301 C287 0.961 . S
H302 C287 0.961 . S
H303 C287 0.961 . S
H304 C288 0.931 . S
H305 C293 0.930 . S
H306 C294 0.956 . S
H307 C294 0.961 . S
H308 C294 0.961 . S
H309 C295 0.958 . S
H310 C295 0.961 . S
H311 C295 0.960 . S
C312 C313 1.391 . S
C312 C314 1.394 . S
C312 H328 0.931 . S
C313 C312 1.391 . S
C313 C317 1.376 . S
C314 C312 1.394 . S
C314 C315 1.369 . S
C314 C318 1.531 . S
C315 C314 1.369 . S
C315 C316 1.410 . S
C315 C323 1.503 . S
C316 C315 1.410 . S
C316 C317 1.392 . S
C316 C319 1.511 . S
C317 C313 1.376 . S
C317 C316 1.392 . S
C317 H329 0.929 . S
C318 C314 1.531 . S
C318 H330 0.960 . S
C318 H331 0.962 . S
C318 H332 0.960 . S
C319 C316 1.511 . S
C319 H333 0.961 . S
C319 H334 0.961 . S
C319 H335 0.961 . S
C320 C321 1.370 . S
C320 C322 1.363 . S
C320 H336 0.931 . S
C321 C320 1.370 . S
C321 C325 1.408 . S
C322 C320 1.363 . S
C322 C323 1.370 . S
C322 C326 1.524 . S
C323 C315 1.503 . S
C323 C322 1.370 . S
C323 C324 1.403 . S
C324 C323 1.403 . S
C324 C325 1.404 . S
C324 C327 1.539 . S
C325 C321 1.408 . S
C325 C324 1.404 . S
C325 H337 0.930 . S
C326 C322 1.524 . S
C326 H338 0.956 . S
C326 H339 0.961 . S
C326 H340 0.961 . S
C327 C324 1.539 . S
C327 H341 0.958 . S
C327 H342 0.961 . S
C327 H343 0.960 . S
H328 C312 0.931 . S
H329 C317 0.929 . S
H330 C318 0.960 . S
H331 C318 0.962 . S
H332 C318 0.960 . S
H333 C319 0.961 . S
H334 C319 0.961 . S
H335 C319 0.961 . S
H336 C320 0.931 . S
H337 C325 0.930 . S
H338 C326 0.956 . S
H339 C326 0.961 . S
H340 C326 0.961 . S
H341 C327 0.958 . S
H342 C327 0.961 . S
H343 C327 0.960 . S
C344 C345 1.391 1_655 S
C344 C346 1.394 . S
C344 H360 0.931 . S
C345 C344 1.391 1_455 S
C345 C349 1.376 . S
C346 C344 1.394 . S
C346 C347 1.369 1_655 S
C346 C350 1.531 . S
C347 C346 1.369 1_455 S
C347 C348 1.410 . S
C347 C355 1.503 . S
C348 C347 1.410 . S
C348 C349 1.392 . S
C348 C351 1.511 . S
C349 C345 1.376 . S
C349 C348 1.392 . S
C349 H361 0.929 . S
C350 C346 1.531 . S
C350 H362 0.960 . S
C350 H363 0.962 . S
C350 H364 0.960 . S
C351 C348 1.511 . S
C351 H365 0.961 . S
C351 H366 0.961 . S
C351 H367 0.961 . S
C352 C353 1.370 1_655 S
C352 C354 1.363 . S
C352 H368 0.931 . S
C353 C352 1.370 1_455 S
C353 C357 1.408 . S
C354 C352 1.363 . S
C354 C355 1.370 1_655 S
C354 C358 1.524 . S
C355 C347 1.503 . S
C355 C354 1.370 1_455 S
C355 C356 1.403 . S
C356 C355 1.403 . S
C356 C357 1.404 . S
C356 C359 1.539 . S
C357 C353 1.408 . S
C357 C356 1.404 . S
C357 H369 0.930 . S
C358 C354 1.524 . S
C358 H370 0.956 . S
C358 H371 0.961 . S
C358 H372 0.961 . S
C359 C356 1.539 . S
C359 H373 0.958 . S
C359 H374 0.961 . S
C359 H375 0.960 . S
H360 C344 0.931 . S
H361 C349 0.929 . S
H362 C350 0.960 . S
H363 C350 0.962 . S
H364 C350 0.960 . S
H365 C351 0.961 . S
H366 C351 0.961 . S
H367 C351 0.961 . S
H368 C352 0.931 . S
H369 C357 0.930 . S
H370 C358 0.956 . S
H371 C358 0.961 . S
H372 C358 0.961 . S
H373 C359 0.958 . S
H374 C359 0.961 . S
H375 C359 0.960 . S
C376 C377 1.391 1_545 S
C376 C378 1.394 . S
C376 H392 0.931 . S
C377 C376 1.391 1_565 S
C377 C381 1.376 . S
C378 C376 1.394 . S
C378 C379 1.369 1_545 S
C378 C382 1.531 . S
C379 C378 1.369 1_565 S
C379 C380 1.410 . S
C379 C387 1.503 . S
C380 C379 1.410 . S
C380 C381 1.392 . S
C380 C383 1.511 . S
C381 C377 1.376 . S
C381 C380 1.392 . S
C381 H393 0.929 . S
C382 C378 1.531 . S
C382 H394 0.960 . S
C382 H395 0.962 . S
C382 H396 0.960 . S
C383 C380 1.511 . S
C383 H397 0.961 . S
C383 H398 0.961 1_554 S
C383 H399 0.961 . S
C384 C385 1.351 1_545 S
C384 C386 1.363 . S
C384 H400 0.931 . S
C385 C384 1.351 1_565 S
C385 C389 1.429 . S
C386 C384 1.363 . S
C386 C387 1.370 1_546 S
C386 C390 1.524 . S
C387 C379 1.503 . S
C387 C386 1.370 1_564 S
C387 C388 1.403 . S
C388 C387 1.403 . S
C388 C389 1.404 1_554 S
C388 C391 1.539 . S
C389 C385 1.429 . S
C389 C388 1.404 1_556 S
C389 H401 0.930 . S
C390 C386 1.524 . S
C390 H402 0.956 . S
C390 H403 0.961 . S
C390 H404 0.961 . S
C391 C388 1.539 . S
C391 H405 0.958 . S
C391 H406 0.961 . S
C391 H407 0.960 . S
H392 C376 0.931 . S
H393 C381 0.929 . S
H394 C382 0.960 . S
H395 C382 0.962 . S
H396 C382 0.960 . S
H397 C383 0.961 . S
H398 C383 0.961 1_556 S
H399 C383 0.961 . S
H400 C384 0.931 . S
H401 C389 0.930 . S
H402 C390 0.956 . S
H403 C390 0.961 . S
H404 C390 0.961 . S
H405 C391 0.958 . S
H406 C391 0.961 . S
H407 C391 0.960 . S
C408 C409 1.391 . S
C408 C410 1.394 . S
C408 H424 0.931 . S
C409 C408 1.391 . S
C409 C413 1.376 . S
C410 C408 1.394 . S
C410 C411 1.369 . S
C410 C414 1.531 . S
C411 C410 1.369 . S
C411 C412 1.410 . S
C411 C419 1.503 . S
C412 C411 1.410 . S
C412 C413 1.392 . S
C412 C415 1.511 . S
C413 C409 1.376 . S
C413 C412 1.392 . S
C413 H425 0.929 . S
C414 C410 1.531 . S
C414 H426 0.960 . S
C414 H427 0.962 . S
C414 H428 0.960 . S
C415 C412 1.511 . S
C415 H429 0.961 . S
C415 H430 0.961 1_554 S
C415 H431 0.961 . S
C416 C417 1.370 . S
C416 C418 1.363 . S
C416 H432 0.931 . S
C417 C416 1.370 . S
C417 C421 1.408 . S
C418 C416 1.363 . S
C418 C419 1.370 1_556 S
C418 C422 1.524 . S
C419 C411 1.503 . S
C419 C418 1.370 1_554 S
C419 C420 1.403 . S
C420 C419 1.403 . S
C420 C421 1.404 1_554 S
C420 C423 1.539 . S
C421 C417 1.408 . S
C421 C420 1.404 1_556 S
C421 H433 0.930 . S
C422 C418 1.524 . S
C422 H434 0.956 1_556 S
C422 H435 0.961 . S
C422 H436 0.961 . S
C423 C420 1.539 . S
C423 H437 0.958 . S
C423 H438 0.961 . S
C423 H439 0.960 . S
H424 C408 0.931 . S
H425 C413 0.929 . S
H426 C414 0.960 . S
H427 C414 0.962 . S
H428 C414 0.960 . S
H429 C415 0.961 . S
H430 C415 0.961 1_556 S
H431 C415 0.961 . S
H432 C416 0.931 . S
H433 C421 0.930 . S
H434 C422 0.956 1_554 S
H435 C422 0.961 . S
H436 C422 0.961 . S
H437 C423 0.958 . S
H438 C423 0.961 . S
H439 C423 0.960 . S
C440 C441 1.391 . S
C440 C442 1.394 . S
C440 H456 0.931 . S
C441 C440 1.391 . S
C441 C445 1.376 . S
C442 C440 1.394 . S
C442 C443 1.369 . S
C442 C446 1.531 . S
C443 C442 1.369 . S
C443 C444 1.410 . S
C443 C451 1.503 . S
C444 C443 1.410 . S
C444 C445 1.392 . S
C444 C447 1.511 . S
C445 C441 1.376 . S
C445 C444 1.392 . S
C445 H457 0.929 . S
C446 C442 1.531 . S
C446 H458 0.960 . S
C446 H459 0.962 1_554 S
C446 H460 0.960 . S
C447 C444 1.511 . S
C447 H461 0.961 . S
C447 H462 0.961 . S
C447 H463 0.961 . S
C448 C449 1.370 . S
C448 C450 1.363 . S
C448 H464 0.931 . S
C449 C448 1.370 . S
C449 C453 1.408 . S
C450 C448 1.363 . S
C450 C451 1.370 1_556 S
C450 C454 1.524 . S
C451 C443 1.503 . S
C451 C450 1.370 1_554 S
C451 C452 1.403 . S
C452 C451 1.403 . S
C452 C453 1.404 1_554 S
C452 C455 1.539 . S
C453 C449 1.408 . S
C453 C452 1.404 1_556 S
C453 H465 0.930 . S
C454 C450 1.524 . S
C454 H466 0.956 . S
C454 H467 0.961 1_556 S
C454 H468 0.961 . S
C455 C452 1.539 . S
C455 H469 0.958 . S
C455 H470 0.961 . S
C455 H471 0.960 . S
H456 C440 0.931 . S
H457 C445 0.929 . S
H458 C446 0.960 . S
H459 C446 0.962 1_556 S
H460 C446 0.960 . S
H461 C447 0.961 . S
H462 C447 0.961 . S
H463 C447 0.961 . S
H464 C448 0.931 . S
H465 C453 0.930 . S
H466 C454 0.956 . S
H467 C454 0.961 1_554 S
H468 C454 0.961 . S
H469 C455 0.958 . S
H470 C455 0.961 . S
H471 C455 0.960 . S
C472 C473 1.367 1_655 S
C472 C474 1.394 . S
C472 H488 0.931 . S
C473 C472 1.367 1_455 S
C473 C477 1.401 . S
C474 C472 1.394 . S
C474 C475 1.369 1_655 S
C474 C478 1.531 . S
C475 C474 1.369 1_455 S
C475 C476 1.410 . S
C475 C483 1.505 . S
C476 C475 1.410 . S
C476 C477 1.392 . S
C476 C479 1.511 . S
C477 C473 1.401 . S
C477 C476 1.392 . S
C477 H489 0.929 . S
C478 C474 1.531 . S
C478 H490 0.960 1_554 S
C478 H491 0.962 . S
C478 H492 0.960 . S
C479 C476 1.511 . S
C479 H493 0.961 . S
C479 H494 0.961 . S
C479 H495 0.961 . S
C480 C481 1.378 . S
C480 C482 1.363 1_556 S
C480 H496 0.931 . S
C481 C480 1.378 . S
C481 C485 1.401 1_655 S
C482 C480 1.363 1_554 S
C482 C483 1.357 1_655 S
C482 C486 1.524 . S
C483 C475 1.505 . S
C483 C482 1.357 1_455 S
C483 C484 1.416 1_554 S
C484 C483 1.416 1_556 S
C484 C485 1.404 . S
C484 C487 1.539 . S
C485 C481 1.401 1_455 S
C485 C484 1.404 . S
C485 H497 0.930 . S
C486 C482 1.524 . S
C486 H498 0.956 . S
C486 H499 0.961 . S
C486 H500 0.961 . S
C487 C484 1.539 . S
C487 H501 0.958 . S
C487 H502 0.961 . S
C487 H503 0.960 . S
H488 C472 0.931 . S
H489 C477 0.929 . S
H490 C478 0.960 1_556 S
H491 C478 0.962 . S
H492 C478 0.960 . S
H493 C479 0.961 . S
H494 C479 0.961 . S
H495 C479 0.961 . S
H496 C480 0.931 . S
H497 C485 0.930 . S
H498 C486 0.956 . S
H499 C486 0.961 . S
H500 C486 0.961 . S
H501 C487 0.958 . S
H502 C487 0.961 . S
H503 C487 0.960 . S
C504 C505 1.386 1_455 S
C504 C506 1.394 . S
C504 H520 0.931 . S
C505 C504 1.386 1_655 S
C505 C509 1.384 . S
C506 C504 1.394 . S
C506 C507 1.369 1_455 S
C506 C510 1.531 . S
C507 C506 1.369 1_655 S
C507 C508 1.410 . S
C507 C515 1.503 . S
C508 C507 1.410 . S
C508 C509 1.392 . S
C508 C511 1.511 . S
C509 C505 1.384 . S
C509 C508 1.392 . S
C509 H521 0.929 . S
C510 C506 1.531 . S
C510 H522 0.960 . S
C510 H523 0.962 . S
C510 H524 0.960 . S
C511 C508 1.511 . S
C511 H525 0.961 . S
C511 H526 0.961 . S
C511 H527 0.961 . S
C512 C513 1.370 . S
C512 C514 1.363 . S
C512 H528 0.931 . S
C513 C512 1.370 . S
C513 C517 1.408 . S
C514 C512 1.363 . S
C514 C515 1.370 . S
C514 C518 1.524 1_655 S
C515 C507 1.503 . S
C515 C514 1.370 . S
C515 C516 1.403 . S
C516 C515 1.403 . S
C516 C517 1.404 . S
C516 C519 1.539 . S
C517 C513 1.408 . S
C517 C516 1.404 . S
C517 H529 0.930 . S
C518 C514 1.524 1_455 S
C518 H530 0.956 . S
C518 H531 0.941 1_455 S
C518 H532 0.961 . S
C519 C516 1.539 . S
C519 H533 0.958 . S
C519 H534 0.961 . S
C519 H535 0.960 . S
H520 C504 0.931 . S
H521 C509 0.929 . S
H522 C510 0.960 . S
H523 C510 0.962 . S
H524 C510 0.960 . S
H525 C511 0.961 . S
H526 C511 0.961 . S
H527 C511 0.961 . S
H528 C512 0.931 . S
H529 C517 0.930 . S
H530 C518 0.956 . S
H531 C518 0.941 1_655 S
H532 C518 0.961 . S
H533 C519 0.958 . S
H534 C519 0.961 . S
H535 C519 0.960 . S
C536 C537 1.390 1_565 S
C536 C538 1.394 . S
C536 H552 0.931 . S
C537 C536 1.390 1_545 S
C537 C541 1.377 . S
C538 C536 1.394 . S
C538 C539 1.369 . S
C538 C542 1.531 . S
C539 C538 1.369 . S
C539 C540 1.410 1_565 S
C539 C547 1.503 . S
C540 C539 1.410 1_545 S
C540 C541 1.392 . S
C540 C543 1.511 . S
C541 C537 1.377 . S
C541 C540 1.392 . S
C541 H553 0.929 . S
C542 C538 1.531 . S
C542 H554 0.960 . S
C542 H555 0.962 . S
C542 H556 0.960 . S
C543 C540 1.511 . S
C543 H557 0.961 . S
C543 H558 0.961 . S
C543 H559 0.961 . S
C544 C545 1.370 . S
C544 C546 1.363 . S
C544 H560 0.931 . S
C545 C544 1.370 . S
C545 C549 1.408 . S
C546 C544 1.363 . S
C546 C547 1.370 . S
C546 C550 1.524 . S
C547 C539 1.503 . S
C547 C546 1.370 . S
C547 C548 1.403 . S
C548 C547 1.403 . S
C548 C549 1.404 . S
C548 C551 1.539 . S
C549 C545 1.408 . S
C549 C548 1.404 . S
C549 H561 0.930 . S
C550 C546 1.524 . S
C550 H562 0.956 . S
C550 H563 0.961 1_565 S
C550 H564 0.961 1_565 S
C551 C548 1.539 . S
C551 H565 0.958 . S
C551 H566 0.961 . S
C551 H567 0.960 . S
H552 C536 0.931 . S
H553 C541 0.929 . S
H554 C542 0.960 . S
H555 C542 0.962 . S
H556 C542 0.960 . S
H557 C543 0.961 . S
H558 C543 0.961 . S
H559 C543 0.961 . S
H560 C544 0.931 . S
H561 C549 0.930 . S
H562 C550 0.956 . S
H563 C550 0.961 1_545 S
H564 C550 0.961 1_545 S
H565 C551 0.958 . S
H566 C551 0.961 . S
H567 C551 0.960 . S
C568 C569 1.391 . S
C568 C570 1.394 . S
C568 H584 0.931 . S
C569 C568 1.391 . S
C569 C573 1.376 . S
C570 C568 1.394 . S
C570 C571 1.369 . S
C570 C574 1.531 . S
C571 C570 1.369 . S
C571 C572 1.410 . S
C571 C579 1.503 . S
C572 C571 1.410 . S
C572 C573 1.392 . S
C572 C575 1.511 . S
C573 C569 1.376 . S
C573 C572 1.392 . S
C573 H585 0.929 . S
C574 C570 1.531 . S
C574 H586 0.960 . S
C574 H587 0.962 . S
C574 H588 0.960 . S
C575 C572 1.511 . S
C575 H589 0.961 . S
C575 H590 0.961 . S
C575 H591 0.961 . S
C576 C577 1.370 . S
C576 C578 1.363 . S
C576 H592 0.931 . S
C577 C576 1.370 . S
C577 C581 1.408 . S
C578 C576 1.363 . S
C578 C579 1.370 . S
C578 C582 1.524 . S
C579 C571 1.503 . S
C579 C578 1.370 . S
C579 C580 1.403 . S
C580 C579 1.403 . S
C580 C581 1.404 . S
C580 C583 1.539 . S
C581 C577 1.408 . S
C581 C580 1.404 . S
C581 H593 0.930 . S
C582 C578 1.524 . S
C582 H594 0.956 . S
C582 H595 0.961 . S
C582 H596 0.961 . S
C583 C580 1.539 . S
C583 H597 0.958 . S
C583 H598 0.961 . S
C583 H599 0.960 . S
H584 C568 0.931 . S
H585 C573 0.929 . S
H586 C574 0.960 . S
H587 C574 0.962 . S
H588 C574 0.960 . S
H589 C575 0.961 . S
H590 C575 0.961 . S
H591 C575 0.961 . S
H592 C576 0.931 . S
H593 C581 0.930 . S
H594 C582 0.956 . S
H595 C582 0.961 . S
H596 C582 0.961 . S
H597 C583 0.958 . S
H598 C583 0.961 . S
H599 C583 0.960 . S
C600 C601 1.391 . S
C600 C602 1.394 . S
C600 H616 0.931 . S
C601 C600 1.391 . S
C601 C605 1.376 . S
C602 C600 1.394 . S
C602 C603 1.369 . S
C602 C606 1.531 . S
C603 C602 1.369 . S
C603 C604 1.410 . S
C603 C611 1.503 . S
C604 C603 1.410 . S
C604 C605 1.392 . S
C604 C607 1.511 . S
C605 C601 1.376 . S
C605 C604 1.392 . S
C605 H617 0.929 . S
C606 C602 1.531 . S
C606 H618 0.960 . S
C606 H619 0.962 . S
C606 H620 0.960 . S
C607 C604 1.511 . S
C607 H621 0.961 . S
C607 H622 0.961 . S
C607 H623 0.961 . S
C608 C609 1.370 . S
C608 C610 1.363 . S
C608 H624 0.931 . S
C609 C608 1.370 . S
C609 C613 1.408 . S
C610 C608 1.363 . S
C610 C611 1.370 . S
C610 C614 1.524 . S
C611 C603 1.503 . S
C611 C610 1.370 . S
C611 C612 1.403 . S
C612 C611 1.403 . S
C612 C613 1.404 . S
C612 C615 1.539 . S
C613 C609 1.408 . S
C613 C612 1.404 . S
C613 H625 0.930 . S
C614 C610 1.524 . S
C614 H626 0.956 . S
C614 H627 0.961 . S
C614 H628 0.961 . S
C615 C612 1.539 . S
C615 H629 0.958 . S
C615 H630 0.961 . S
C615 H631 0.960 . S
H616 C600 0.931 . S
H617 C605 0.929 . S
H618 C606 0.960 . S
H619 C606 0.962 . S
H620 C606 0.960 . S
H621 C607 0.961 . S
H622 C607 0.961 . S
H623 C607 0.961 . S
H624 C608 0.931 . S
H625 C613 0.930 . S
H626 C614 0.956 . S
H627 C614 0.961 . S
H628 C614 0.961 . S
H629 C615 0.958 . S
H630 C615 0.961 . S
H631 C615 0.960 . S
C632 C633 1.407 . S
C632 C634 1.394 . S
C632 H648 0.931 . S
C633 C632 1.407 . S
C633 C637 1.354 1_655 S
C634 C632 1.394 . S
C634 C635 1.369 1_655 S
C634 C638 1.531 . S
C635 C634 1.369 1_455 S
C635 C636 1.410 . S
C635 C643 1.503 . S
C636 C635 1.410 . S
C636 C637 1.392 . S
C636 C639 1.511 . S
C637 C633 1.354 1_455 S
C637 C636 1.392 . S
C637 H649 0.929 . S
C638 C634 1.531 . S
C638 H650 0.960 . S
C638 H651 0.962 . S
C638 H652 0.960 . S
C639 C636 1.511 . S
C639 H653 0.961 . S
C639 H654 0.961 . S
C639 H655 0.961 . S
C640 C641 1.370 . S
C640 C642 1.363 . S
C640 H656 0.931 1_554 S
C641 C640 1.370 . S
C641 C645 1.408 . S
C642 C640 1.363 . S
C642 C643 1.370 . S
C642 C646 1.524 . S
C643 C635 1.503 . S
C643 C642 1.370 . S
C643 C644 1.403 . S
C644 C643 1.403 . S
C644 C645 1.404 . S
C644 C647 1.539 . S
C645 C641 1.408 . S
C645 C644 1.404 . S
C645 H657 0.930 . S
C646 C642 1.524 . S
C646 H658 0.956 1_455 S
C646 H659 0.961 . S
C646 H660 0.961 1_554 S
C647 C644 1.539 . S
C647 H661 0.958 . S
C647 H662 0.961 . S
C647 H663 0.960 . S
H648 C632 0.931 . S
H649 C637 0.929 . S
H650 C638 0.960 . S
H651 C638 0.962 . S
H652 C638 0.960 . S
H653 C639 0.961 . S
H654 C639 0.961 . S
H655 C639 0.961 . S
H656 C640 0.931 1_556 S
H657 C645 0.930 . S
H658 C646 0.956 1_655 S
H659 C646 0.961 . S
H660 C646 0.961 1_556 S
H661 C647 0.958 . S
H662 C647 0.961 . S
H663 C647 0.960 . S
C664 C665 1.391 . S
C664 C666 1.394 . S
C664 H680 0.931 . S
C665 C664 1.391 . S
C665 C669 1.376 . S
C666 C664 1.394 . S
C666 C667 1.369 . S
C666 C670 1.531 . S
C667 C666 1.369 . S
C667 C668 1.410 . S
C667 C675 1.503 . S
C668 C667 1.410 . S
C668 C669 1.392 . S
C668 C671 1.511 . S
C669 C665 1.376 . S
C669 C668 1.392 . S
C669 H681 0.929 1_545 S
C670 C666 1.531 . S
C670 H682 0.960 . S
C670 H683 0.962 . S
C670 H684 0.960 . S
C671 C668 1.511 . S
C671 H685 0.961 1_545 S
C671 H686 0.961 . S
C671 H687 0.961 . S
C672 C673 1.370 . S
C672 C674 1.363 . S
C672 H688 0.931 1_545 S
C673 C672 1.370 . S
C673 C677 1.408 . S
C674 C672 1.363 . S
C674 C675 1.370 . S
C674 C678 1.524 1_545 S
C675 C667 1.503 . S
C675 C674 1.370 . S
C675 C676 1.403 . S
C676 C675 1.403 . S
C676 C677 1.404 . S
C676 C679 1.539 . S
C677 C673 1.408 . S
C677 C676 1.404 . S
C677 H689 0.930 . S
C678 C674 1.524 1_565 S
C678 H690 0.956 . S
C678 H691 0.961 . S
C678 H692 0.961 . S
C679 C676 1.539 . S
C679 H693 0.958 . S
C679 H694 0.961 . S
C679 H695 0.960 . S
H680 C664 0.931 . S
H681 C669 0.929 1_565 S
H682 C670 0.960 . S
H683 C670 0.962 . S
H684 C670 0.960 . S
H685 C671 0.961 1_565 S
H686 C671 0.961 . S
H687 C671 0.961 . S
H688 C672 0.931 1_565 S
H689 C677 0.930 . S
H690 C678 0.956 . S
H691 C678 0.961 . S
H692 C678 0.961 . S
H693 C679 0.958 . S
H694 C679 0.961 . S
H695 C679 0.960 . S
C696 C697 1.391 . S
C696 C698 1.394 . S
C696 H712 0.931 . S
C697 C696 1.391 . S
C697 C701 1.376 . S
C698 C696 1.394 . S
C698 C699 1.369 . S
C698 C702 1.531 . S
C699 C698 1.369 . S
C699 C700 1.410 . S
C699 C707 1.503 . S
C700 C699 1.410 . S
C700 C701 1.392 . S
C700 C703 1.511 . S
C701 C697 1.376 . S
C701 C700 1.392 . S
C701 H713 0.929 . S
C702 C698 1.531 . S
C702 H714 0.960 . S
C702 H715 0.962 . S
C702 H716 0.960 . S
C703 C700 1.511 . S
C703 H717 0.961 . S
C703 H718 0.961 . S
C703 H719 0.961 . S
C704 C705 1.370 . S
C704 C706 1.363 . S
C704 H720 0.931 . S
C705 C704 1.370 . S
C705 C709 1.408 . S
C706 C704 1.363 . S
C706 C707 1.370 . S
C706 C710 1.524 . S
C707 C699 1.503 . S
C707 C706 1.370 . S
C707 C708 1.403 . S
C708 C707 1.403 . S
C708 C709 1.404 . S
C708 C711 1.539 . S
C709 C705 1.408 . S
C709 C708 1.404 . S
C709 H721 0.930 1_554 S
C710 C706 1.524 . S
C710 H722 0.956 . S
C710 H723 0.961 . S
C710 H724 0.961 . S
C711 C708 1.539 . S
C711 H725 0.958 . S
C711 H726 0.961 . S
C711 H727 0.960 . S
H712 C696 0.931 . S
H713 C701 0.929 . S
H714 C702 0.960 . S
H715 C702 0.962 . S
H716 C702 0.960 . S
H717 C703 0.961 . S
H718 C703 0.961 . S
H719 C703 0.961 . S
H720 C704 0.931 . S
H721 C709 0.930 1_556 S
H722 C710 0.956 . S
H723 C710 0.961 . S
H724 C710 0.961 . S
H725 C711 0.958 . S
H726 C711 0.961 . S
H727 C711 0.960 . S
C728 C729 1.391 . S
C728 C730 1.394 . S
C728 H744 0.931 . S
C729 C728 1.391 . S
C729 C733 1.376 . S
C730 C728 1.394 . S
C730 C731 1.369 . S
C730 C734 1.531 . S
C731 C730 1.369 . S
C731 C732 1.410 . S
C731 C739 1.503 . S
C732 C731 1.410 . S
C732 C733 1.392 . S
C732 C735 1.511 . S
C733 C729 1.376 . S
C733 C732 1.392 . S
C733 H745 0.929 . S
C734 C730 1.531 . S
C734 H746 0.960 . S
C734 H747 0.962 . S
C734 H748 0.960 . S
C735 C732 1.511 . S
C735 H749 0.961 . S
C735 H750 0.961 . S
C735 H751 0.961 . S
C736 C737 1.370 . S
C736 C738 1.363 . S
C736 H752 0.931 1_554 S
C737 C736 1.370 . S
C737 C741 1.408 . S
C738 C736 1.363 . S
C738 C739 1.370 . S
C738 C742 1.524 . S
C739 C731 1.503 . S
C739 C738 1.370 . S
C739 C740 1.403 . S
C740 C739 1.403 . S
C740 C741 1.404 . S
C740 C743 1.539 . S
C741 C737 1.408 . S
C741 C740 1.404 . S
C741 H753 0.930 . S
C742 C738 1.524 . S
C742 H754 0.956 . S
C742 H755 0.961 . S
C742 H756 0.961 1_554 S
C743 C740 1.539 . S
C743 H757 0.958 . S
C743 H758 0.961 . S
C743 H759 0.960 . S
H744 C728 0.931 . S
H745 C733 0.929 . S
H746 C734 0.960 . S
H747 C734 0.962 . S
H748 C734 0.960 . S
H749 C735 0.961 . S
H750 C735 0.961 . S
H751 C735 0.961 . S
H752 C736 0.931 1_556 S
H753 C741 0.930 . S
H754 C742 0.956 . S
H755 C742 0.961 . S
H756 C742 0.961 1_556 S
H757 C743 0.958 . S
H758 C743 0.961 . S
H759 C743 0.960 . S
C760 C761 1.391 . S
C760 C762 1.394 . S
C760 H776 0.931 . S
C761 C760 1.391 . S
C761 C765 1.376 1_455 S
C762 C760 1.394 . S
C762 C763 1.369 . S
C762 C766 1.531 . S
C763 C762 1.369 . S
C763 C764 1.410 1_455 S
C763 C771 1.503 . S
C764 C763 1.410 1_655 S
C764 C765 1.392 . S
C764 C767 1.511 . S
C765 C761 1.376 1_655 S
C765 C764 1.392 . S
C765 H777 0.929 . S
C766 C762 1.531 . S
C766 H778 0.960 . S
C766 H779 0.962 . S
C766 H780 0.960 . S
C767 C764 1.511 . S
C767 H781 0.961 . S
C767 H782 0.961 . S
C767 H783 0.961 . S
C768 C769 1.375 . S
C768 C770 1.362 1_455 S
C768 H784 0.927 1_455 S
C769 C768 1.375 . S
C769 C773 1.408 . S
C770 C768 1.362 1_655 S
C770 C771 1.359 1_655 S
C770 C774 1.538 . S
C771 C763 1.503 . S
C771 C770 1.359 1_455 S
C771 C772 1.403 . S
C772 C771 1.403 . S
C772 C773 1.404 . S
C772 C775 1.539 . S
C773 C769 1.408 . S
C773 C772 1.404 . S
C773 H785 0.930 . S
C774 C770 1.538 . S
C774 H786 0.956 1_655 S
C774 H787 0.961 . S
C774 H788 0.961 . S
C775 C772 1.539 . S
C775 H789 0.958 . S
C775 H790 0.961 1_556 S
C775 H791 0.960 . S
H776 C760 0.931 . S
H777 C765 0.929 . S
H778 C766 0.960 . S
H779 C766 0.962 . S
H780 C766 0.960 . S
H781 C767 0.961 . S
H782 C767 0.961 . S
H783 C767 0.961 . S
H784 C768 0.927 1_655 S
H785 C773 0.930 . S
H786 C774 0.956 1_455 S
H787 C774 0.961 . S
H788 C774 0.961 . S
H789 C775 0.958 . S
H790 C775 0.961 1_554 S
H791 C775 0.960 . S
C792 C793 1.391 . S
C792 C794 1.394 . S
C792 H808 0.931 . S
C793 C792 1.391 . S
C793 C797 1.373 1_545 S
C794 C792 1.394 . S
C794 C795 1.369 . S
C794 C798 1.531 . S
C795 C794 1.369 . S
C795 C796 1.410 . S
C795 C803 1.503 . S
C796 C795 1.410 . S
C796 C797 1.390 1_545 S
C796 C799 1.511 1_545 S
C797 C793 1.373 1_565 S
C797 C796 1.390 1_565 S
C797 H809 0.935 . S
C798 C794 1.531 . S
C798 H810 0.960 . S
C798 H811 0.962 . S
C798 H812 0.960 . S
C799 C796 1.511 1_565 S
C799 H813 0.961 1_556 S
C799 H814 0.961 . S
C799 H815 0.961 1_566 S
C800 C801 1.370 1_565 S
C800 C802 1.363 . S
C800 H816 0.931 . S
C801 C800 1.370 1_545 S
C801 C805 1.408 . S
C802 C800 1.363 . S
C802 C803 1.370 1_565 S
C802 C806 1.524 . S
C803 C795 1.503 . S
C803 C802 1.370 1_545 S
C803 C804 1.403 . S
C804 C803 1.403 . S
C804 C805 1.404 . S
C804 C807 1.539 . S
C805 C801 1.408 . S
C805 C804 1.404 . S
C805 H817 0.930 . S
C806 C802 1.524 . S
C806 H818 0.956 . S
C806 H819 0.961 . S
C806 H820 0.961 . S
C807 C804 1.539 . S
C807 H821 0.958 . S
C807 H822 0.961 . S
C807 H823 0.960 . S
H808 C792 0.931 . S
H809 C797 0.935 . S
H810 C798 0.960 . S
H811 C798 0.962 . S
H812 C798 0.960 . S
H813 C799 0.961 1_554 S
H814 C799 0.961 . S
H815 C799 0.961 1_544 S
H816 C800 0.931 . S
H817 C805 0.930 . S
H818 C806 0.956 . S
H819 C806 0.961 . S
H820 C806 0.961 . S
H821 C807 0.958 . S
H822 C807 0.961 . S
H823 C807 0.960 . S
C824 C825 1.391 . S
C824 C826 1.394 . S
C824 H840 0.931 . S
C825 C824 1.391 . S
C825 C829 1.376 . S
C826 C824 1.394 . S
C826 C827 1.369 . S
C826 C830 1.531 . S
C827 C826 1.369 . S
C827 C828 1.410 . S
C827 C835 1.503 . S
C828 C827 1.410 . S
C828 C829 1.392 . S
C828 C831 1.511 . S
C829 C825 1.376 . S
C829 C828 1.392 . S
C829 H841 0.929 . S
C830 C826 1.531 . S
C830 H842 0.960 . S
C830 H843 0.962 . S
C830 H844 0.960 1_556 S
C831 C828 1.511 . S
C831 H845 0.961 . S
C831 H846 0.961 . S
C831 H847 0.961 . S
C832 C833 1.370 . S
C832 C834 1.363 . S
C832 H848 0.931 . S
C833 C832 1.370 . S
C833 C837 1.408 . S
C834 C832 1.363 . S
C834 C835 1.370 . S
C834 C838 1.524 . S
C835 C827 1.503 . S
C835 C834 1.370 . S
C835 C836 1.403 . S
C836 C835 1.403 . S
C836 C837 1.404 . S
C836 C839 1.539 . S
C837 C833 1.408 . S
C837 C836 1.404 . S
C837 H849 0.930 . S
C838 C834 1.524 . S
C838 H850 0.956 . S
C838 H851 0.961 . S
C838 H852 0.961 . S
C839 C836 1.539 . S
C839 H853 0.958 . S
C839 H854 0.961 . S
C839 H855 0.960 . S
H840 C824 0.931 . S
H841 C829 0.929 . S
H842 C830 0.960 . S
H843 C830 0.962 . S
H844 C830 0.960 1_554 S
H845 C831 0.961 . S
H846 C831 0.961 . S
H847 C831 0.961 . S
H848 C832 0.931 . S
H849 C837 0.930 . S
H850 C838 0.956 . S
H851 C838 0.961 . S
H852 C838 0.961 . S
H853 C839 0.958 . S
H854 C839 0.961 . S
H855 C839 0.960 . S
C856 C857 1.391 . S
C856 C858 1.394 . S
C856 H872 0.931 . S
C857 C856 1.391 . S
C857 C861 1.376 . S
C858 C856 1.394 . S
C858 C859 1.369 . S
C858 C862 1.531 . S
C859 C858 1.369 . S
C859 C860 1.410 . S
C859 C867 1.503 . S
C860 C859 1.410 . S
C860 C861 1.392 . S
C860 C863 1.511 . S
C861 C857 1.376 . S
C861 C860 1.392 . S
C861 H873 0.929 . S
C862 C858 1.531 . S
C862 H874 0.960 . S
C862 H875 0.962 . S
C862 H876 0.960 . S
C863 C860 1.511 . S
C863 H877 0.961 . S
C863 H878 0.961 . S
C863 H879 0.961 . S
C864 C865 1.370 . S
C864 C866 1.363 . S
C864 H880 0.931 . S
C865 C864 1.370 . S
C865 C869 1.408 . S
C866 C864 1.363 . S
C866 C867 1.370 . S
C866 C870 1.524 . S
C867 C859 1.503 . S
C867 C866 1.370 . S
C867 C868 1.403 . S
C868 C867 1.403 . S
C868 C869 1.404 . S
C868 C871 1.539 . S
C869 C865 1.408 . S
C869 C868 1.404 . S
C869 H881 0.930 . S
C870 C866 1.524 . S
C870 H882 0.956 . S
C870 H883 0.961 . S
C870 H884 0.961 . S
C871 C868 1.539 . S
C871 H885 0.958 . S
C871 H886 0.961 . S
C871 H887 0.960 . S
H872 C856 0.931 . S
H873 C861 0.929 . S
H874 C862 0.960 . S
H875 C862 0.962 . S
H876 C862 0.960 . S
H877 C863 0.961 . S
H878 C863 0.961 . S
H879 C863 0.961 . S
H880 C864 0.931 . S
H881 C869 0.930 . S
H882 C870 0.956 . S
H883 C870 0.961 . S
H884 C870 0.961 . S
H885 C871 0.958 . S
H886 C871 0.961 . S
H887 C871 0.960 . S
C888 C889 1.391 1_455 S
C888 C890 1.394 . S
C888 H904 0.931 . S
C889 C888 1.391 1_655 S
C889 C893 1.376 . S
C890 C888 1.394 . S
C890 C891 1.369 1_455 S
C890 C894 1.531 . S
C891 C890 1.369 1_655 S
C891 C892 1.410 . S
C891 C899 1.503 . S
C892 C891 1.410 . S
C892 C893 1.392 . S
C892 C895 1.511 . S
C893 C889 1.376 . S
C893 C892 1.392 . S
C893 H905 0.929 . S
C894 C890 1.531 . S
C894 H906 0.960 . S
C894 H907 0.962 . S
C894 H908 0.960 . S
C895 C892 1.511 . S
C895 H909 0.961 . S
C895 H910 0.961 . S
C895 H911 0.961 . S
C896 C897 1.370 1_455 S
C896 C898 1.363 . S
C896 H912 0.931 . S
C897 C896 1.370 1_655 S
C897 C901 1.408 . S
C898 C896 1.363 . S
C898 C899 1.370 1_455 S
C898 C902 1.524 . S
C899 C891 1.503 . S
C899 C898 1.370 1_655 S
C899 C900 1.403 . S
C900 C899 1.403 . S
C900 C901 1.404 . S
C900 C903 1.539 . S
C901 C897 1.408 . S
C901 C900 1.404 . S
C901 H913 0.930 . S
C902 C898 1.524 . S
C902 H914 0.956 . S
C902 H915 0.961 . S
C902 H916 0.961 . S
C903 C900 1.539 . S
C903 H917 0.958 . S
C903 H918 0.961 . S
C903 H919 0.960 . S
H904 C888 0.931 . S
H905 C893 0.929 . S
H906 C894 0.960 . S
H907 C894 0.962 . S
H908 C894 0.960 . S
H909 C895 0.961 . S
H910 C895 0.961 . S
H911 C895 0.961 . S
H912 C896 0.931 . S
H913 C901 0.930 . S
H914 C902 0.956 . S
H915 C902 0.961 . S
H916 C902 0.961 . S
H917 C903 0.958 . S
H918 C903 0.961 . S
H919 C903 0.960 . S
C920 C921 1.396 . S
C920 C922 1.394 . S
C920 H936 0.931 . S
C921 C920 1.396 . S
C921 C925 1.373 1_545 S
C922 C920 1.394 . S
C922 C923 1.369 . S
C922 C926 1.531 . S
C923 C922 1.369 . S
C923 C924 1.410 1_545 S
C923 C931 1.503 1_545 S
C924 C923 1.410 1_565 S
C924 C925 1.392 . S
C924 C927 1.511 . S
C925 C921 1.373 1_565 S
C925 C924 1.392 . S
C925 H937 0.929 . S
C926 C922 1.531 . S
C926 H938 0.960 . S
C926 H939 0.962 1_545 S
C926 H940 0.960 . S
C927 C924 1.511 . S
C927 H941 0.961 . S
C927 H942 0.961 . S
C927 H943 0.961 1_565 S
C928 C929 1.370 . S
C928 C930 1.363 . S
C928 H944 0.931 . S
C929 C928 1.370 . S
C929 C933 1.408 1_565 S
C930 C928 1.363 . S
C930 C931 1.370 . S
C930 C934 1.524 . S
C931 C923 1.503 1_565 S
C931 C930 1.370 . S
C931 C932 1.403 1_565 S
C932 C931 1.403 1_545 S
C932 C933 1.404 . S
C932 C935 1.539 . S
C933 C929 1.408 1_545 S
C933 C932 1.404 . S
C933 H945 0.930 . S
C934 C930 1.524 . S
C934 H946 0.956 . S
C934 H947 0.961 . S
C934 H948 0.961 . S
C935 C932 1.539 . S
C935 H949 0.958 . S
C935 H950 0.961 . S
C935 H951 0.960 . S
H936 C920 0.931 . S
H937 C925 0.929 . S
H938 C926 0.960 . S
H939 C926 0.962 1_565 S
H940 C926 0.960 . S
H941 C927 0.961 . S
H942 C927 0.961 . S
H943 C927 0.961 1_545 S
H944 C928 0.931 . S
H945 C933 0.930 . S
H946 C934 0.956 . S
H947 C934 0.961 . S
H948 C934 0.961 . S
H949 C935 0.958 . S
H950 C935 0.961 . S
H951 C935 0.960 . S
C952 C953 1.391 . S
C952 C954 1.394 . S
C952 H968 0.931 . S
C953 C952 1.391 . S
C953 C957 1.376 . S
C954 C952 1.394 . S
C954 C955 1.369 . S
C954 C958 1.531 . S
C955 C954 1.369 . S
C955 C956 1.410 . S
C955 C963 1.503 . S
C956 C955 1.410 . S
C956 C957 1.392 . S
C956 C959 1.511 . S
C957 C953 1.376 . S
C957 C956 1.392 . S
C957 H969 0.929 . S
C958 C954 1.531 . S
C958 H970 0.960 . S
C958 H971 0.962 . S
C958 H972 0.960 . S
C959 C956 1.511 . S
C959 H973 0.961 . S
C959 H974 0.961 . S
C959 H975 0.961 . S
C960 C961 1.370 . S
C960 C962 1.363 . S
C960 H976 0.931 . S
C961 C960 1.370 . S
C961 C965 1.408 . S
C962 C960 1.363 . S
C962 C963 1.370 . S
C962 C966 1.524 . S
C963 C955 1.503 . S
C963 C962 1.370 . S
C963 C964 1.403 . S
C964 C963 1.403 . S
C964 C965 1.404 . S
C964 C967 1.539 . S
C965 C961 1.408 . S
C965 C964 1.404 . S
C965 H977 0.930 . S
C966 C962 1.524 . S
C966 H978 0.956 . S
C966 H979 0.961 . S
C966 H980 0.961 . S
C967 C964 1.539 . S
C967 H981 0.958 . S
C967 H982 0.961 . S
C967 H983 0.960 . S
H968 C952 0.931 . S
H969 C957 0.929 . S
H970 C958 0.960 . S
H971 C958 0.962 . S
H972 C958 0.960 . S
H973 C959 0.961 . S
H974 C959 0.961 . S
H975 C959 0.961 . S
H976 C960 0.931 . S
H977 C965 0.930 . S
H978 C966 0.956 . S
H979 C966 0.961 . S
H980 C966 0.961 . S
H981 C967 0.958 . S
H982 C967 0.961 . S
H983 C967 0.960 . S
C984 C985 1.391 . S
C984 C986 1.394 . S
C984 H1000 0.931 . S
C985 C984 1.391 . S
C985 C989 1.376 . S
C986 C984 1.394 . S
C986 C987 1.369 . S
C986 C990 1.531 . S
C987 C986 1.369 . S
C987 C988 1.410 . S
C987 C995 1.503 . S
C988 C987 1.410 . S
C988 C989 1.392 . S
C988 C991 1.511 . S
C989 C985 1.376 . S
C989 C988 1.392 . S
C989 H1001 0.929 . S
C990 C986 1.531 . S
C990 H1002 0.960 . S
C990 H1003 0.962 . S
C990 H1004 0.960 . S
C991 C988 1.511 . S
C991 H1005 0.961 . S
C991 H1006 0.961 . S
C991 H1007 0.961 . S
C992 C993 1.370 . S
C992 C994 1.363 . S
C992 H1008 0.931 . S
C993 C992 1.370 . S
C993 C997 1.408 . S
C994 C992 1.363 . S
C994 C995 1.370 . S
C994 C998 1.524 . S
C995 C987 1.503 . S
C995 C994 1.370 . S
C995 C996 1.403 . S
C996 C995 1.403 . S
C996 C997 1.404 . S
C996 C999 1.539 . S
C997 C993 1.408 . S
C997 C996 1.404 . S
C997 H1009 0.930 . S
C998 C994 1.524 . S
C998 H1010 0.956 . S
C998 H1011 0.961 . S
C998 H1012 0.961 . S
C999 C996 1.539 . S
C999 H1013 0.958 . S
C999 H1014 0.961 . S
C999 H1015 0.960 . S
H1000 C984 0.931 . S
H1001 C989 0.929 . S
H1002 C990 0.960 . S
H1003 C990 0.962 . S
H1004 C990 0.960 . S
H1005 C991 0.961 . S
H1006 C991 0.961 . S
H1007 C991 0.961 . S
H1008 C992 0.931 . S
H1009 C997 0.930 . S
H1010 C998 0.956 . S
H1011 C998 0.961 . S
H1012 C998 0.961 . S
H1013 C999 0.958 . S
H1014 C999 0.961 . S
H1015 C999 0.960 . S
C249 C74 1.778 . S
C257 C97 1.869 1_545 S
C289 C137 1.879 . S
C281 C85 1.767 . S
C321 C177 1.891 . S
C313 C52 1.773 . S
C353 C217 1.876 1_455 S
C345 C63 1.747 . S
C385 C106 1.874 1_565 S
C377 C30 1.802 1_565 S
C409 C41 1.809 . S
C417 C146 1.889 . S
C441 C8 1.801 . S
C449 C186 1.887 . S
C473 C19 1.744 . S
C481 C226 1.872 1_655 S
C513 C103 0.601 . S
C505 C62 0.547 1_655 S
C545 C143 0.595 . S
C537 C73 0.613 . S
C577 C183 0.611 . S
C569 C84 0.572 . S
C601 C51 0.547 . S
C609 C223 0.582 . S
C633 C18 0.607 1_655 S
C641 C94 0.589 . S
C673 C134 0.615 . S
C665 C29 0.529 . S
C705 C174 0.578 . S
C697 C40 0.681 . S
C729 C7 0.660 . S
C737 C214 0.585 . S
C761 C60 1.689 . S
C769 C107 2.254 . S
C793 C71 1.657 . S
C801 C147 2.236 . S
C833 C187 2.210 . S
C825 C82 1.710 . S
C865 C227 2.247 . S
C857 C49 1.712 . S
C889 C16 1.791 1_655 S
C897 C98 2.269 . S
C929 C138 2.225 . S
C921 C27 1.731 . S
C961 C178 2.213 . S
C953 C38 1.791 . S
C985 C5 1.808 . S
C993 C218 2.254 . S
