# Generated by pormake.
# Topology zzz, (3,6)-cn, num edge types: 1
# Building blocks:
#     Node 0, Type 0, BuildingBlock: OLANEW_clean_sbu_2, # of connection points: 3
#     Node 1, Type 0, BuildingBlock: OLANEW_clean_sbu_2, # of connection points: 3
#     Node 2, Type 0, BuildingBlock: OLANEW_clean_sbu_2, # of connection points: 3
#     Node 3, Type 0, BuildingBlock: OLANEW_clean_sbu_2, # of connection points: 3
#     Node 4, Type 0, BuildingBlock: OLANEW_clean_sbu_2, # of connection points: 3
#     Node 5, Type 0, BuildingBlock: OLANEW_clean_sbu_2, # of connection points: 3
#     Node 6, Type 0, BuildingBlock: OLANEW_clean_sbu_2, # of connection points: 3
#     Node 7, Type 0, BuildingBlock: OLANEW_clean_sbu_2, # of connection points: 3
#     Node 8, Type 1, BuildingBlock: CUKXOW_clean_sbu_0, # of connection points: 6
#     Node 9, Type 1, BuildingBlock: CUKXOW_clean_sbu_0, # of connection points: 6
#     Node 10, Type 1, BuildingBlock: CUKXOW_clean_sbu_0, # of connection points: 6
#     Node 11, Type 1, BuildingBlock: CUKXOW_clean_sbu_0, # of connection points: 6
#     Edge 12, Type (0, 1), BuildingBlock: UVAHIK_clean_linker_0, # of connection points: 2
#     Edge 13, Type (0, 1), BuildingBlock: UVAHIK_clean_linker_0, # of connection points: 2
#     Edge 14, Type (0, 1), BuildingBlock: UVAHIK_clean_linker_0, # of connection points: 2
#     Edge 15, Type (0, 1), BuildingBlock: UVAHIK_clean_linker_0, # of connection points: 2
#     Edge 16, Type (0, 1), BuildingBlock: UVAHIK_clean_linker_0, # of connection points: 2
#     Edge 17, Type (0, 1), BuildingBlock: UVAHIK_clean_linker_0, # of connection points: 2
#     Edge 18, Type (0, 1), BuildingBlock: UVAHIK_clean_linker_0, # of connection points: 2
#     Edge 19, Type (0, 1), BuildingBlock: UVAHIK_clean_linker_0, # of connection points: 2
#     Edge 20, Type (0, 1), BuildingBlock: UVAHIK_clean_linker_0, # of connection points: 2
#     Edge 21, Type (0, 1), BuildingBlock: UVAHIK_clean_linker_0, # of connection points: 2
#     Edge 22, Type (0, 1), BuildingBlock: UVAHIK_clean_linker_0, # of connection points: 2
#     Edge 23, Type (0, 1), BuildingBlock: UVAHIK_clean_linker_0, # of connection points: 2
#     Edge 24, Type (0, 1), BuildingBlock: UVAHIK_clean_linker_0, # of connection points: 2
#     Edge 25, Type (0, 1), BuildingBlock: UVAHIK_clean_linker_0, # of connection points: 2
#     Edge 26, Type (0, 1), BuildingBlock: UVAHIK_clean_linker_0, # of connection points: 2
#     Edge 27, Type (0, 1), BuildingBlock: UVAHIK_clean_linker_0, # of connection points: 2
#     Edge 28, Type (0, 1), BuildingBlock: UVAHIK_clean_linker_0, # of connection points: 2
#     Edge 29, Type (0, 1), BuildingBlock: UVAHIK_clean_linker_0, # of connection points: 2
#     Edge 30, Type (0, 1), BuildingBlock: UVAHIK_clean_linker_0, # of connection points: 2
#     Edge 31, Type (0, 1), BuildingBlock: UVAHIK_clean_linker_0, # of connection points: 2
#     Edge 32, Type (0, 1), BuildingBlock: UVAHIK_clean_linker_0, # of connection points: 2
#     Edge 33, Type (0, 1), BuildingBlock: UVAHIK_clean_linker_0, # of connection points: 2
#     Edge 34, Type (0, 1), BuildingBlock: UVAHIK_clean_linker_0, # of connection points: 2
#     Edge 35, Type (0, 1), BuildingBlock: UVAHIK_clean_linker_0, # of connection points: 2
# Relax obj value: 0.080
# Max RMSD: 0.133
# Mean RMSD: 0.096
data_MOF--net-zzz--node1-OLANEW_clean_sbu_2--node2-CUKXOW_clean_sbu_0--edge1-UVAHIK_clean_linker_0
_symmetry_space_group_name_H-M    P1
_symmetry_Int_Tables_number       1
_symmetry_cell_setting            triclinic
loop_
_symmetry_equiv_pos_as_xyz
'x, y, z'
_cell_length_a     68.05052
_cell_length_b     69.637368
_cell_length_c     21.915949
_cell_angle_alpha  92.675069
_cell_angle_beta   87.320618
_cell_angle_gamma 94.153462
loop_
_atom_site_label
_atom_site_type_symbol
_atom_site_fract_x
_atom_site_fract_y
_atom_site_fract_z
_atom_type_partial_charge
O0 O 0.78904 0.56613 0.05311 0.0
Cd1 Cd 0.76047 0.57871 0.10835 0.0
O2 O 0.77815 0.53713 0.07943 0.0
Cd3 Cd 0.7848 0.50763 0.09508 0.0
O4 O 0.80585 0.49159 0.13986 0.0
C5 C 0.80314 0.48945 0.19693 0.0
O6 O 0.78691 0.49526 0.22449 0.0
C7 C 0.7912 0.54817 0.05269 0.0
C8 C 0.72537 0.56477 0.05695 0.0
O9 O 0.73469 0.58034 0.03933 0.0
O10 O 0.7327 0.55572 0.09911 0.0
O11 O 0.90984 0.7711 0.85389 0.0
Cd12 Cd 0.89363 0.73943 0.87211 0.0
O13 O 0.90885 0.77663 0.95323 0.0
Cd14 Cd 0.91647 0.7944 0.03462 0.0
O15 O 0.92618 0.81633 0.10291 0.0
C16 C 0.93259 0.81176 0.15337 0.0
O17 O 0.93314 0.79344 0.16462 0.0
C18 C 0.91352 0.78233 0.89985 0.0
C19 C 0.92033 0.71095 0.85821 0.0
O20 O 0.91087 0.71587 0.81286 0.0
O21 O 0.91712 0.71951 0.9104 0.0
O22 O 0.70492 0.90549 0.84033 0.0
Cd23 Cd 0.7333 0.88767 0.85943 0.0
O24 O 0.70459 0.91535 0.93672 0.0
Cd25 Cd 0.69167 0.92989 0.01786 0.0
O26 O 0.67516 0.94066 0.09841 0.0
C27 C 0.66374 0.95415 0.09437 0.0
O28 O 0.66234 0.96183 0.04126 0.0
C29 C 0.69755 0.91562 0.88404 0.0
C30 C 0.76719 0.91231 0.84695 0.0
O31 O 0.76006 0.90265 0.80088 0.0
O32 O 0.75847 0.91006 0.89951 0.0
O33 O 0.61488 0.72803 0.85484 0.0
Cd34 Cd 0.63767 0.75676 0.85963 0.0
O35 O 0.6202 0.7221 0.9499 0.0
Cd36 Cd 0.61372 0.70583 0.03216 0.0
O37 O 0.60349 0.68811 0.10831 0.0
C38 C 0.61092 0.6722 0.11556 0.0
O39 O 0.62501 0.66671 0.07702 0.0
C40 C 0.61166 0.71746 0.90042 0.0
C41 C 0.61794 0.79026 0.85371 0.0
O42 O 0.62321 0.78068 0.80507 0.0
O43 O 0.62208 0.78404 0.90541 0.0
O44 O 0.22861 0.51797 0.40307 0.0
Cd45 Cd 0.25179 0.5126 0.31668 0.0
O46 O 0.22851 0.48791 0.42966 0.0
Cd47 Cd 0.23806 0.47935 0.33653 0.0
O48 O 0.22067 0.47927 0.25503 0.0
C49 C 0.20545 0.48868 0.26538 0.0
O50 O 0.2026 0.4969 0.31989 0.0
C51 C 0.22359 0.50504 0.44107 0.0
C52 C 0.28886 0.50997 0.36258 0.0
O53 O 0.28347 0.52607 0.34549 0.0
O54 O 0.27689 0.49501 0.35642 0.0
O55 O 0.03554 0.21344 0.41545 0.0
Cd56 Cd 0.04309 0.23784 0.33991 0.0
O57 O 0.06421 0.21823 0.45802 0.0
Cd58 Cd 0.07578 0.23077 0.37337 0.0
O59 O 0.07347 0.21367 0.28769 0.0
C60 C 0.07588 0.19596 0.29423 0.0
O61 O 0.08086 0.19064 0.34782 0.0
C62 C 0.04674 0.21037 0.45838 0.0
C63 C 0.03745 0.27348 0.39829 0.0
O64 O 0.02355 0.26418 0.36942 0.0
O65 O 0.0542 0.26615 0.39795 0.0
O66 O 0.29045 0.08129 0.51646 0.0
Cd67 Cd 0.25993 0.09459 0.49079 0.0
O68 O 0.30664 0.09897 0.44783 0.0
Cd69 Cd 0.33331 0.10532 0.39112 0.0
O70 O 0.3574 0.10115 0.32394 0.0
C71 C 0.36706 0.0863 0.32698 0.0
O72 O 0.36267 0.07459 0.37169 0.0
C73 C 0.30657 0.08658 0.48863 0.0
C74 C 0.22755 0.07095 0.53033 0.0
O75 O 0.23546 0.06847 0.47657 0.0
O76 O 0.23491 0.08469 0.56505 0.0
O77 O 0.43312 0.29743 0.41203 0.0
Cd78 Cd 0.42326 0.27316 0.33321 0.0
O79 O 0.40355 0.30809 0.42527 0.0
Cd80 Cd 0.39607 0.29624 0.3346 0.0
O81 O 0.40371 0.30915 0.24672 0.0
C82 C 0.42031 0.3188 0.24671 0.0
O83 O 0.43091 0.3186 0.29525 0.0
C84 C 0.42119 0.30797 0.44191 0.0
C85 C 0.43245 0.23728 0.37036 0.0
O86 O 0.44454 0.24734 0.33601 0.0
O87 O 0.41582 0.24401 0.38592 0.0
Tb88 Tb 0.99385 0.99053 0.68021 0.0
C89 C 0.03783 0.99828 0.72367 0.0
Tb90 Tb 0.00126 0.01228 0.8036 0.0
O91 O 0.98736 0.01722 0.63882 0.0
O92 O 0.00665 0.0176 0.71029 0.0
O93 O 0.02561 0.98802 0.68706 0.0
C94 C 0.00613 0.04099 0.88757 0.0
O95 O 0.0315 0.01042 0.76768 0.0
C96 C 0.99649 0.97464 0.80687 0.0
C97 C 0.95716 0.00453 0.75897 0.0
O98 O 0.01003 0.02324 0.89433 0.0
O99 O -0.00093 0.04243 0.83414 0.0
O100 O 0.00643 0.98529 0.84674 0.0
O101 O 0.98824 0.98547 0.77345 0.0
O102 O 0.96913 0.01399 0.79843 0.0
O103 O 0.96358 0.993 0.71344 0.0
C104 C 0.98975 0.96249 0.59375 0.0
O105 O 0.98871 0.98073 0.58551 0.0
O106 O 0.99327 0.96009 0.65044 0.0
C107 C 0.99754 0.02803 0.67766 0.0
Tb108 Tb 0.50973 0.03698 0.67774 0.0
C109 C 0.53447 0.00733 0.60362 0.0
Tb110 Tb 0.51109 0.9964 0.72887 0.0
O111 O 0.54147 0.04291 0.69063 0.0
O112 O 0.52426 0.02431 0.74658 0.0
O113 O 0.52446 0.02287 0.6001 0.0
C114 C 0.52212 0.96312 0.7668 0.0
O115 O 0.53303 0.99645 0.65217 0.0
C116 C 0.4792 0.00286 0.67347 0.0
C117 C 0.48827 0.02686 0.80697 0.0
O118 O 0.51193 0.96507 0.71917 0.0
O119 O 0.52582 0.97989 0.79378 0.0
O120 O 0.47929 0.99103 0.7176 0.0
O121 O 0.49658 0.00904 0.65983 0.0
O122 O 0.49756 0.01075 0.80836 0.0
O123 O 0.48944 0.03793 0.75871 0.0
C124 C 0.49726 0.06817 0.62972 0.0
O125 O 0.50929 0.06838 0.67415 0.0
O126 O 0.49242 0.05048 0.6124 0.0
C127 C 0.54161 0.0308 0.73408 0.0
Tb128 Tb 0.51594 0.5221 0.66462 0.0
C129 C 0.47029 0.51149 0.67352 0.0
Tb130 Tb 0.49854 0.49839 0.77393 0.0
O131 O 0.51004 0.49726 0.60185 0.0
O132 O 0.51555 0.49324 0.69259 0.0
O133 O 0.48472 0.52331 0.65083 0.0
C134 C 0.48346 0.46958 0.8421 0.0
O135 O 0.47268 0.49978 0.71853 0.0
C136 C 0.50226 0.53575 0.7979 0.0
C137 C 0.54323 0.51194 0.76832 0.0
O138 O 0.47932 0.47198 0.78594 0.0
O139 O 0.49587 0.48347 0.85994 0.0
O140 O 0.4996 0.5232 0.84 0.0
O141 O 0.49939 0.52708 0.74709 0.0
O142 O 0.53032 0.49741 0.78274 0.0
O143 O 0.5393 0.52496 0.72923 0.0
C144 C 0.53274 0.54725 0.58633 0.0
O145 O 0.54021 0.53159 0.60137 0.0
O146 O 0.51583 0.54877 0.61541 0.0
C147 C 0.51023 0.4847 0.64365 0.0
Tb148 Tb 0.99083 0.49489 0.67702 0.0
C149 C 0.0032 0.45388 0.71223 0.0
Tb150 Tb 0.01476 0.49151 0.79043 0.0
O151 O 0.01679 0.5087 0.62926 0.0
O152 O 0.01974 0.48855 0.69534 0.0
O153 O 0.99021 0.46361 0.68529 0.0
C154 C 0.04427 0.49329 0.86671 0.0
O155 O 0.0164 0.46257 0.74894 0.0
C156 C 0.97628 0.48739 0.80928 0.0
C157 C 0.00274 0.53296 0.75257 0.0
O158 O 0.02748 0.48344 0.8746 0.0
O159 O 0.04431 0.50241 0.81645 0.0
O160 O 0.98871 0.47986 0.84278 0.0
O161 O 0.98588 0.49825 0.77271 0.0
O162 O 0.01383 0.52304 0.78665 0.0
O163 O 0.99095 0.52462 0.71087 0.0
C164 C 0.96241 0.49162 0.59661 0.0
O165 O 0.95967 0.49166 0.65555 0.0
O166 O 0.98118 0.49359 0.58282 0.0
C167 C 0.02906 0.50045 0.66153 0.0
C168 C 0.20184 0.04386 0.51262 0.0
C169 C 0.21026 0.05852 0.55149 0.0
C170 C 0.18501 0.03267 0.53196 0.0
C171 C 0.14208 0.02227 0.56901 0.0
H172 H 0.13354 0.00723 0.73689 0.0
C173 C 0.06668 0.98926 0.65546 0.0
C174 C 0.05932 0.99844 0.70941 0.0
C175 C 0.08663 0.99198 0.63746 0.0
C176 C 0.13572 0.01131 0.68984 0.0
H177 H 0.20791 0.07261 0.64168 0.0
H178 H 0.17847 0.05331 0.67504 0.0
H179 H 0.16594 0.02093 0.70201 0.0
H180 H 0.06745 0.01655 0.7889 0.0
H181 H 0.10205 0.02138 0.7573 0.0
H182 H 0.11174 0.0133 0.55729 0.0
C183 C 0.18499 0.05026 0.62991 0.0
C184 C 0.15425 0.01918 0.6699 0.0
C185 C 0.20178 0.06145 0.61057 0.0
C186 C 0.07257 0.00936 0.74684 0.0
C187 C 0.09249 0.01203 0.72894 0.0
C188 C 0.12356 0.0144 0.58894 0.0
C189 C 0.17628 0.03588 0.59062 0.0
C190 C 0.15748 0.02521 0.6097 0.0
C191 C 0.09964 0.00384 0.67318 0.0
C192 C 0.12003 0.0093 0.65 0.0
H193 H 0.20809 0.04116 0.46693 0.0
H194 H 0.17875 0.02158 0.50085 0.0
H195 H 0.14401 0.02695 0.52255 0.0
H196 H 0.05691 0.98064 0.62572 0.0
H197 H 0.09178 0.98525 0.59467 0.0
C198 C 0.45533 0.21071 0.37186 0.0
C199 C 0.43784 0.21881 0.39333 0.0
C200 C 0.46096 0.19381 0.39597 0.0
C201 C 0.45493 0.16588 0.53391 0.0
H202 H 0.47548 0.12478 0.42962 0.0
C203 C 0.49528 0.1038 0.62693 0.0
C204 C 0.49004 0.0852 0.603 0.0
C205 C 0.48833 0.1199 0.60128 0.0
C206 C 0.46967 0.1361 0.45928 0.0
H207 H 0.41239 0.21536 0.4563 0.0
H208 H 0.4223 0.18589 0.49855 0.0
H209 H 0.46394 0.153 0.3837 0.0
H210 H 0.47338 0.06868 0.53406 0.0
H211 H 0.46135 0.0968 0.48896 0.0
H212 H 0.4607 0.14901 0.60949 0.0
C213 C 0.43168 0.19269 0.46326 0.0
C214 C 0.46322 0.1523 0.43303 0.0
C215 C 0.42596 0.20949 0.43878 0.0
C216 C 0.47773 0.08291 0.55314 0.0
C217 C 0.47091 0.09899 0.52721 0.0
C218 C 0.46155 0.14976 0.56018 0.0
C219 C 0.44931 0.18475 0.44242 0.0
C220 C 0.45579 0.16736 0.47008 0.0
C221 C 0.47615 0.11765 0.55098 0.0
C222 C 0.469 0.13471 0.52313 0.0
H223 H 0.46481 0.21754 0.33688 0.0
H224 H 0.4747 0.18811 0.37936 0.0
H225 H 0.44944 0.17735 0.56362 0.0
H226 H 0.50475 0.10592 0.66541 0.0
H227 H 0.49274 0.13412 0.6202 0.0
C228 C 0.31229 0.49208 0.41949 0.0
C229 C 0.30801 0.50885 0.39087 0.0
C230 C 0.32989 0.49145 0.4495 0.0
C231 C 0.38009 0.51433 0.45769 0.0
H232 H 0.37794 0.49563 0.62201 0.0
C233 C 0.44645 0.52628 0.60989 0.0
C234 C 0.45086 0.51116 0.64603 0.0
C235 C 0.42879 0.52543 0.57979 0.0
C236 C 0.37885 0.50065 0.57587 0.0
H237 H 0.31898 0.53795 0.37016 0.0
H238 H 0.34977 0.53678 0.4221 0.0
H239 H 0.34784 0.49466 0.56518 0.0
H240 H 0.44009 0.48336 0.67966 0.0
H241 H 0.40929 0.48172 0.62616 0.0
H242 H 0.41103 0.52019 0.46779 0.0
C243 C 0.33952 0.52413 0.42125 0.0
C244 C 0.3616 0.50011 0.54338 0.0
C245 C 0.32186 0.52482 0.39175 0.0
C246 C 0.43703 0.49532 0.65252 0.0
C247 C 0.41937 0.49439 0.62191 0.0
C248 C 0.39732 0.51475 0.48992 0.0
C249 C 0.34363 0.50751 0.45092 0.0
C250 C 0.36203 0.50714 0.48423 0.0
C251 C 0.41518 0.50934 0.58455 0.0
C252 C 0.39688 0.50814 0.54969 0.0
H253 H 0.3019 0.47954 0.41967 0.0
H254 H 0.33278 0.4784 0.47151 0.0
H255 H 0.38089 0.51957 0.41179 0.0
H256 H 0.45671 0.53878 0.60441 0.0
H257 H 0.42583 0.53741 0.55262 0.0
C258 C 0.04848 0.30047 0.47103 0.0
C259 C 0.03404 0.29175 0.43292 0.0
C260 C 0.04489 0.31723 0.50609 0.0
C261 C 0.00418 0.34587 0.56903 0.0
H262 H 0.04583 0.38654 0.58633 0.0
C263 C 0.9909 0.4237 0.65542 0.0
C264 C 0.00493 0.4334 0.69306 0.0
C265 C 0.99391 0.40529 0.63029 0.0
C266 C 0.03413 0.37519 0.58271 0.0
H267 H 0.00464 0.29396 0.40088 0.0
H268 H 0.99856 0.32343 0.46089 0.0
H269 H 0.05242 0.35706 0.52713 0.0
H270 H 0.03266 0.43094 0.73628 0.0
H271 H 0.03783 0.39878 0.69239 0.0
H272 H 0.98578 0.3643 0.62354 0.0
C273 C 0.01249 0.3171 0.46478 0.0
C274 C 0.0379 0.35829 0.54873 0.0
C275 C 0.01605 0.30029 0.42997 0.0
C276 C 0.02157 0.42391 0.70735 0.0
C277 C 0.02463 0.40554 0.68187 0.0
C278 C 0.00039 0.36283 0.60276 0.0
C279 C 0.02682 0.3257 0.50359 0.0
C280 C 0.02294 0.34348 0.54111 0.0
C281 C 0.01104 0.39623 0.64202 0.0
C282 C 0.01529 0.37771 0.60964 0.0
H283 H 0.06246 0.29419 0.47462 0.0
H284 H 0.05616 0.32334 0.53602 0.0
H285 H 0.99242 0.33461 0.56506 0.0
H286 H 0.97789 0.43056 0.64366 0.0
H287 H 0.98323 0.39852 0.59947 0.0
C288 C 0.79246 0.9301 0.78054 0.0
C289 C 0.78496 0.92565 0.83936 0.0
C290 C 0.80952 0.94226 0.77284 0.0
C291 C 0.84378 0.97792 0.85297 0.0
H292 H 0.8807 0.96131 0.72457 0.0
C293 C 0.92726 0.00327 0.82996 0.0
C294 C 0.93564 0.0041 0.77028 0.0
C295 C 0.90721 0.9976 0.83943 0.0
C296 C 0.87044 0.96639 0.75995 0.0
H297 H 0.78921 0.93083 0.93637 0.0
H298 H 0.81939 0.95169 0.92288 0.0
H299 H 0.8492 0.94327 0.73931 0.0
H300 H 0.92947 0.00186 0.67405 0.0
H301 H 0.89451 0.99258 0.69045 0.0
H302 H 0.8656 0.00081 0.87441 0.0
C303 C 0.81187 0.94603 0.8827 0.0
C304 C 0.85233 0.95601 0.76844 0.0
C305 C 0.79466 0.93396 0.89043 0.0
C306 C 0.92338 0.00108 0.72052 0.0
C307 C 0.90341 0.99565 0.72992 0.0
C308 C 0.86206 0.98832 0.84459 0.0
C309 C 0.81964 0.95011 0.82375 0.0
C310 C 0.83874 0.96163 0.81489 0.0
C311 C 0.89533 0.99285 0.78928 0.0
C312 C 0.87553 0.98267 0.79776 0.0
H313 H 0.78519 0.92415 0.74026 0.0
H314 H 0.81485 0.94542 0.7268 0.0
H315 H 0.83358 0.98271 0.88893 0.0
H316 H 0.93646 0.00544 0.86907 0.0
H317 H 0.90139 0.99558 0.88571 0.0
C318 C 0.5984 0.8118 0.79593 0.0
C319 C 0.60732 0.80792 0.85012 0.0
C320 C 0.5882 0.82838 0.79242 0.0
C321 C 0.58544 0.87739 0.85452 0.0
H322 H 0.53296 0.87331 0.79128 0.0
C323 C 0.54096 0.94441 0.83594 0.0
C324 C 0.52999 0.94503 0.78352 0.0
C325 C 0.54941 0.92747 0.84945 0.0
C326 C 0.54769 0.87477 0.80835 0.0
H327 H 0.61277 0.81846 0.94293 0.0
H328 H 0.59527 0.84776 0.93615 0.0
H329 H 0.54999 0.84421 0.80344 0.0
H330 H 0.51918 0.92861 0.70412 0.0
H331 H 0.5343 0.89929 0.7264 0.0
H332 H 0.5836 0.90794 0.85718 0.0
C333 C 0.59607 0.83783 0.89672 0.0
C334 C 0.55738 0.85807 0.81556 0.0
C335 C 0.60599 0.82105 0.90061 0.0
C336 C 0.52743 0.92845 0.74516 0.0
C337 C 0.53602 0.91159 0.75824 0.0
C338 C 0.57587 0.89414 0.84648 0.0
C339 C 0.587 0.84157 0.84267 0.0
C340 C 0.5764 0.85924 0.83819 0.0
C341 C 0.5472 0.91088 0.81042 0.0
C342 C 0.55694 0.89305 0.82268 0.0
H343 H 0.59913 0.80194 0.75631 0.0
H344 H 0.58147 0.83103 0.75005 0.0
H345 H 0.60019 0.87866 0.87162 0.0
H346 H 0.54317 0.95706 0.8662 0.0
H347 H 0.55768 0.92739 0.89045 0.0
C348 C 0.69884 0.56785 0.98374 0.0
C349 C 0.70658 0.55765 0.02979 0.0
C350 C 0.6809 0.56151 0.95887 0.0
C351 C 0.64591 0.51908 0.93795 0.0
H352 H 0.61005 0.55791 0.90622 0.0
C353 C 0.56696 0.5026 0.84489 0.0
C354 C 0.56234 0.51454 0.7983 0.0
C355 C 0.58442 0.50645 0.87612 0.0
C356 C 0.61995 0.5469 0.91454 0.0
H357 H 0.7017 0.5326 0.08529 0.0
H358 H 0.67017 0.52158 0.04192 0.0
H359 H 0.6407 0.56741 0.95584 0.0
H360 H 0.57286 0.53941 0.7465 0.0
H361 H 0.60302 0.54593 0.80044 0.0
H362 H 0.62501 0.49859 0.896 0.0
C363 C 0.6781 0.53443 0.02488 0.0
C364 C 0.63752 0.55235 0.94285 0.0
C365 C 0.6961 0.54079 0.04988 0.0
C366 C 0.57579 0.52997 0.78242 0.0
C367 C 0.59308 0.53382 0.81359 0.0
C368 C 0.62822 0.5136 0.90961 0.0
C369 C 0.67024 0.54483 0.97949 0.0
C370 C 0.6509 0.53859 0.95372 0.0
C371 C 0.59743 0.52235 0.86148 0.0
C372 C 0.6153 0.52755 0.89648 0.0
H373 H 0.7066 0.58082 0.96694 0.0
H374 H 0.67542 0.56965 0.92313 0.0
H375 H 0.65597 0.50816 0.94557 0.0
H376 H 0.5569 0.4906 0.85821 0.0
H377 H 0.58745 0.49738 0.9129 0.0
C378 C 0.94415 0.68974 0.90078 0.0
C379 C 0.93425 0.69556 0.85062 0.0
C380 C 0.95658 0.67457 0.89386 0.0
C381 C 0.98322 0.64468 0.77676 0.0
H382 H 0.97536 0.60513 0.89609 0.0
C383 C 0.99455 0.5652 0.72074 0.0
C384 C 0.00187 0.55392 0.76485 0.0
C385 C 0.99135 0.58451 0.73411 0.0
C386 C 0.97809 0.61621 0.86304 0.0
H387 H 0.93001 0.69035 0.75359 0.0
H388 H 0.95139 0.66382 0.74174 0.0
H389 H 0.95994 0.63548 0.91464 0.0
H390 H 0.01246 0.55426 0.85672 0.0
H391 H 0.00663 0.58817 0.88044 0.0
H392 H 0.00065 0.625 0.72393 0.0
C393 C 0.94981 0.6711 0.78626 0.0
C394 C 0.96923 0.63361 0.87362 0.0
C395 C 0.9374 0.68623 0.79317 0.0
C396 C 0.00679 0.5626 0.82181 0.0
C397 C 0.00337 0.58195 0.8355 0.0
C398 C 0.99202 0.62726 0.76612 0.0
C399 C 0.95939 0.66496 0.83662 0.0
C400 C 0.9712 0.6478 0.82971 0.0
C401 C 0.99526 0.59298 0.7921 0.0
C402 C 0.98905 0.61263 0.80828 0.0
H403 H 0.9421 0.69672 0.94561 0.0
H404 H 0.96388 0.6703 0.9334 0.0
H405 H 0.98537 0.65549 0.74267 0.0
H406 H 0.99075 0.55897 0.67624 0.0
H407 H 0.98489 0.59255 0.69992 0.0
C408 C 0.02128 0.18646 0.50133 0.0
C409 C 0.04002 0.19624 0.50464 0.0
C410 C 0.01586 0.17112 0.5387 0.0
C411 C 0.03904 0.13393 0.61703 0.0
H412 H 0.9848 0.11888 0.66596 0.0
C413 C 0.01638 0.05886 0.70746 0.0
C414 C 0.00085 0.04911 0.67606 0.0
C415 C 0.02042 0.07868 0.70215 0.0
C416 C 2e-05 0.12295 0.65281 0.0
H417 H 0.06725 0.19848 0.55296 0.0
H418 H 0.05765 0.17183 0.61908 0.0
H419 H 0.99338 0.15134 0.63105 0.0
H420 H 0.9769 0.05235 0.61655 0.0
H421 H 0.98396 0.087 0.60701 0.0
H422 H 0.04557 0.10539 0.63728 0.0
C423 C 0.0473 0.17579 0.58656 0.0
C424 C 0.00494 0.14151 0.63272 0.0
C425 C 0.05276 0.19113 0.5489 0.0
C426 C 0.98899 0.05956 0.64106 0.0
C427 C 0.99293 0.0794 0.63607 0.0
C428 C 0.03414 0.11545 0.63758 0.0
C429 C 0.02901 0.16524 0.58059 0.0
C430 C 0.02439 0.147 0.6126 0.0
C431 C 0.00891 0.08909 0.66566 0.0
C432 C 0.01448 0.10958 0.65378 0.0
H433 H 0.01105 0.19006 0.46791 0.0
H434 H 0.00176 0.16322 0.5322 0.0
H435 H 0.05411 0.13754 0.60119 0.0
H436 H 0.02577 0.05109 0.73474 0.0
H437 H 0.03275 0.08582 0.72571 0.0
C438 C 0.34244 0.0896 0.50896 0.0
C439 C 0.32488 0.07797 0.5025 0.0
C440 C 0.35963 0.08153 0.52466 0.0
C441 C 0.38506 0.03756 0.5174 0.0
H442 H 0.41048 0.05764 0.66432 0.0
C443 C 0.46155 0.01708 0.59138 0.0
C444 C 0.4615 0.01058 0.65103 0.0
C445 C 0.445 0.02519 0.57086 0.0
C446 C 0.40352 0.05195 0.62318 0.0
H447 H 0.31137 0.0489 0.5066 0.0
H448 H 0.34169 0.03464 0.53226 0.0
H449 H 0.38141 0.07246 0.63105 0.0
H450 H 0.44436 0.0073 0.73614 0.0
H451 H 0.41547 0.0219 0.70063 0.0
H452 H 0.40736 0.0172 0.50914 0.0
C453 C 0.34208 0.04998 0.52556 0.0
C454 C 0.38702 0.06046 0.60404 0.0
C455 C 0.32479 0.05812 0.51123 0.0
C456 C 0.44465 0.01214 0.68982 0.0
C457 C 0.42825 0.02059 0.66973 0.0
C458 C 0.40182 0.0293 0.53586 0.0
C459 C 0.35958 0.06166 0.53297 0.0
C460 C 0.37756 0.0532 0.55138 0.0
C461 C 0.42831 0.02718 0.61012 0.0
C462 C 0.41102 0.0363 0.58927 0.0
H463 H 0.34277 0.10499 0.50329 0.0
H464 H 0.37298 0.09079 0.53019 0.0
H465 H 0.378 0.0318 0.4765 0.0
H466 H 0.47441 0.01592 0.56072 0.0
H467 H 0.44537 0.03026 0.5248 0.0
C468 C 0.41558 0.3336 0.52386 0.0
C469 C 0.42855 0.32195 0.49002 0.0
C470 C 0.4229 0.34921 0.56061 0.0
C471 C 0.46945 0.37415 0.6197 0.0
H472 H 0.44315 0.42003 0.5886 0.0
C473 C 0.502 0.4518 0.68377 0.0
C474 C 0.5007 0.46507 0.63807 0.0
C475 C 0.49182 0.43359 0.67913 0.0
C476 C 0.45067 0.40736 0.59781 0.0
H477 H 0.45936 0.31661 0.47211 0.0
H478 H 0.47208 0.34401 0.53425 0.0
H479 H 0.42779 0.38862 0.55998 0.0
H480 H 0.48834 0.46965 0.55101 0.0
H481 H 0.47113 0.43794 0.54199 0.0
H482 H 0.49299 0.3932 0.65373 0.0
C483 C 0.45625 0.34105 0.53351 0.0
C484 C 0.44171 0.38926 0.58227 0.0
C485 C 0.44893 0.32534 0.49735 0.0
C486 C 0.48952 0.45973 0.58708 0.0
C487 C 0.47945 0.44163 0.58233 0.0
C488 C 0.4785 0.39233 0.63492 0.0
C489 C 0.44336 0.35362 0.56375 0.0
C490 C 0.45126 0.37243 0.59113 0.0
C491 C 0.48029 0.4284 0.62851 0.0
C492 C 0.4695 0.40914 0.62205 0.0
H493 H 0.39977 0.33121 0.51987 0.0
H494 H 0.41252 0.3583 0.58447 0.0
H495 H 0.47706 0.36148 0.62824 0.0
H496 H 0.51068 0.45557 0.72331 0.0
H497 H 0.49276 0.42372 0.71546 0.0
C498 C 0.19776 0.52503 0.4903 0.0
C499 C 0.20897 0.50889 0.4914 0.0
C500 C 0.18067 0.52628 0.52767 0.0
C501 C 0.14315 0.49277 0.59817 0.0
H502 H 0.11822 0.53982 0.64622 0.0
C503 C 0.06232 0.4911 0.68617 0.0
C504 C 0.0507 0.50342 0.65685 0.0
C505 C 0.08285 0.4933 0.6801 0.0
C506 C 0.12504 0.52658 0.63311 0.0
H507 H 0.21244 0.48258 0.53767 0.0
H508 H 0.18304 0.48512 0.60466 0.0
H509 H 0.15329 0.54136 0.61556 0.0
H510 H 0.05128 0.528 0.59964 0.0
H511 H 0.08731 0.53175 0.58825 0.0
H512 H 0.11489 0.47804 0.61453 0.0
C513 C 0.18697 0.49643 0.57314 0.0
C514 C 0.14511 0.52744 0.61553 0.0
C515 C 0.20392 0.49505 0.53511 0.0
C516 C 0.05995 0.51829 0.62252 0.0
C517 C 0.08053 0.52053 0.61654 0.0
C518 C 0.1232 0.49191 0.61626 0.0
C519 C 0.17458 0.51153 0.56757 0.0
C520 C 0.15429 0.51058 0.59628 0.0
C521 C 0.09217 0.50786 0.64452 0.0
C522 C 0.11382 0.50883 0.63249 0.0
H523 H 0.20126 0.53599 0.45723 0.0
H524 H 0.17153 0.53808 0.52174 0.0
H525 H 0.1495 0.47951 0.58249 0.0
H526 H 0.05555 0.47952 0.71297 0.0
H527 H 0.09144 0.48344 0.70258 0.0
C528 C 0.9382 0.8045 0.84538 0.0
C529 C 0.92325 0.80168 0.89108 0.0
C530 C 0.94733 0.82288 0.83678 0.0
C531 C 0.97102 0.86183 0.85425 0.0
H532 H 0.93719 0.90415 0.84858 0.0
C533 C -0.00068 0.94281 0.85333 0.0
C534 C 0.99032 0.95406 0.81263 0.0
C535 C 0.99226 0.92367 0.86158 0.0
C536 C 0.94683 0.89246 0.8498 0.0
H537 H 0.90542 0.81588 0.96156 0.0
H538 H 0.92149 0.84793 0.94719 0.0
H539 H 0.92259 0.87177 0.86605 0.0
H540 H 0.96717 0.95411 0.74787 0.0
H541 H 0.95499 0.92083 0.76195 0.0
H542 H 0.99527 0.88265 0.83766 0.0
C543 C 0.92634 0.83594 0.91848 0.0
C544 C 0.93848 0.87396 0.86037 0.0
C545 C 0.91734 0.81756 0.92732 0.0
C546 C 0.97447 0.94577 0.77936 0.0
C547 C 0.96738 0.92675 0.78779 0.0
C548 C 0.97941 0.88042 0.84419 0.0
C549 C 0.94142 0.8388 0.8731 0.0
C550 C 0.95047 0.85844 0.86253 0.0
C551 C 0.97598 0.91559 0.82964 0.0
C552 C 0.96736 0.89589 0.84147 0.0
H553 H 0.94291 0.79247 0.81656 0.0
H554 H 0.95873 0.82472 0.80094 0.0
H555 H 0.98061 0.85013 0.85612 0.0
H556 H 0.01155 0.94891 0.87953 0.0
H557 H -0.00089 0.9154 0.89435 0.0
C558 C 0.66721 0.92154 0.82998 0.0
C559 C 0.68124 0.92769 0.87297 0.0
C560 C 0.65238 0.9334 0.81693 0.0
C561 C 0.63072 0.96591 0.77004 0.0
H562 H 0.60538 0.99653 0.89912 0.0
C563 C 0.57655 0.0223 0.71732 0.0
C564 C 0.55916 0.02216 0.75428 0.0
C565 C 0.59225 0.01193 0.73337 0.0
C566 C 0.61226 0.98801 0.86257 0.0
H567 H 0.69137 0.95138 0.93384 0.0
H568 H 0.66553 0.97211 0.91121 0.0
H569 H 0.63036 0.97516 0.9243 0.0
H570 H 0.54478 0.01221 0.8383 0.0
H571 H 0.57195 0.99381 0.86594 0.0
H572 H 0.61222 0.97834 0.70856 0.0
C573 C 0.66555 0.95788 0.88901 0.0
C574 C 0.62671 0.9759 0.87693 0.0
C575 C 0.6803 0.94597 0.90229 0.0
C576 C 0.55801 0.01229 0.80876 0.0
C577 C 0.57363 0.00192 0.82481 0.0
C578 C 0.61625 0.978 0.7557 0.0
C579 C 0.65145 0.95177 0.84604 0.0
C580 C 0.63607 0.96466 0.83085 0.0
C581 C 0.59082 0.00135 0.78681 0.0
C582 C 0.60681 0.98915 0.80182 0.0
H583 H 0.6677 0.90753 0.80651 0.0
H584 H 0.6416 0.92815 0.78416 0.0
H585 H 0.63782 0.95764 0.73333 0.0
H586 H 0.57774 0.02981 0.67496 0.0
H587 H 0.60541 0.01201 0.70359 0.0
C588 C 0.60262 0.68289 0.9214 0.0
C589 C 0.59812 0.69998 0.89539 0.0
C590 C 0.59032 0.66608 0.91386 0.0
C591 C 0.55174 0.64373 0.81345 0.0
H592 H 0.54576 0.60614 0.93915 0.0
C593 C 0.52106 0.56572 0.7629 0.0
C594 C 0.51012 0.55586 0.80881 0.0
C595 C 0.52999 0.5841 0.77499 0.0
C596 C 0.54698 0.61657 0.90381 0.0
H597 H 0.57725 0.71305 0.8415 0.0
H598 H 0.55535 0.68389 0.82981 0.0
H599 H 0.56406 0.63687 0.9595 0.0
H600 H 0.49958 0.55754 0.90351 0.0
H601 H 0.51454 0.58999 0.92457 0.0
H602 H 0.53417 0.6237 0.75843 0.0
C603 C 0.56857 0.68327 0.85505 0.0
C604 C 0.55778 0.63412 0.91517 0.0
C605 C 0.58103 0.70002 0.86201 0.0
C606 C 0.50794 0.56487 0.86711 0.0
C607 C 0.51665 0.58339 0.87924 0.0
C608 C 0.54075 0.62629 0.80236 0.0
C609 C 0.57315 0.666 0.88033 0.0
C610 C 0.56056 0.64783 0.86982 0.0
C611 C 0.52802 0.59316 0.83348 0.0
C612 C 0.53848 0.61234 0.84702 0.0
H613 H 0.61605 0.68231 0.94571 0.0
H614 H 0.59462 0.653 0.93279 0.0
H615 H 0.55371 0.65378 0.77706 0.0
H616 H 0.52353 0.55889 0.7185 0.0
H617 H 0.53901 0.59088 0.73892 0.0
C618 C 0.8086 0.52264 0.99248 0.0
C619 C 0.80938 0.54043 0.02551 0.0
C620 C 0.82589 0.51518 0.96756 0.0
C621 C 0.87888 0.51654 0.98705 0.0
H622 H 0.88279 0.49947 0.8161 0.0
C623 C 0.94439 0.50223 0.79824 0.0
C624 C 0.95549 0.48968 0.8286 0.0
C625 C 0.92542 0.50608 0.82028 0.0
C626 C 0.88184 0.5041 0.86396 0.0
H627 H 0.82862 0.56454 0.05776 0.0
H628 H 0.85896 0.55132 0.01497 0.0
H629 H 0.85184 0.51129 0.85941 0.0
H630 H 0.95535 0.471 0.905 0.0
H631 H 0.92224 0.47808 0.9444 0.0
H632 H 0.90887 0.50947 0.99162 0.0
C633 C 0.84499 0.54315 0.00855 0.0
C634 C 0.86415 0.51077 0.88874 0.0
C635 C 0.82767 0.55075 0.03263 0.0
C636 C 0.94709 0.4807 0.88064 0.0
C637 C 0.92822 0.48479 0.90328 0.0
C638 C 0.89644 0.50958 0.96255 0.0
C639 C 0.84425 0.52528 0.97586 0.0
C640 C 0.86262 0.5173 0.95029 0.0
C641 C 0.91733 0.49772 0.87373 0.0
C642 C 0.89817 0.50353 0.90059 0.0
H643 H 0.79461 0.5146 0.98543 0.0
H644 H 0.82493 0.50138 0.9425 0.0
H645 H 0.878 0.52136 0.03476 0.0
H646 H 0.9506 0.50966 0.75878 0.0
H647 H 0.91744 0.51627 0.79705 0.0
C648 C 0.06239 0.18603 0.19177 0.0
C649 C 0.07106 0.18119 0.24544 0.0
C650 C 0.0561 0.17161 0.14891 0.0
C651 C 0.06136 0.12031 0.10143 0.0
H652 H 0.00945 0.12285 0.03761 0.0
C653 C 0.02101 0.05436 0.98377 0.0
C654 C 0.01167 0.05739 0.92969 0.0
C655 C 0.02812 0.07001 0.02059 0.0
C656 C 0.02406 0.12203 0.05452 0.0
H657 H 0.08051 0.1575 0.2952 0.0
H658 H 0.06949 0.13251 0.22106 0.0
H659 H 0.02323 0.14953 0.10219 0.0
H660 H 0.00199 0.07903 0.87209 0.0
H661 H 0.0144 0.10644 0.93652 0.0
H662 H 0.0621 0.09273 0.05448 0.0
C663 C 0.06766 0.14739 0.2116 0.0
C664 C 0.03199 0.13734 0.09134 0.0
C665 C 0.0739 0.16175 0.25435 0.0
C666 C 0.00904 0.07631 0.91385 0.0
C667 C 0.01612 0.09199 0.95075 0.0
C668 C 0.05343 0.10501 0.06479 0.0
C669 C 0.05844 0.1521 0.15878 0.0
C670 C 0.05064 0.13656 0.1158 0.0
C671 C 0.02603 0.08901 0.00403 0.0
C672 C 0.03459 0.10559 0.0415 0.0
H673 H 0.06001 0.20088 0.18355 0.0
H674 H 0.04926 0.17572 0.10827 0.0
H675 H 0.07591 0.1194 0.11863 0.0
H676 H 0.02321 0.0399 0.99699 0.0
H677 H 0.03539 0.06724 0.06191 0.0
C678 C 0.39212 0.06468 0.28073 0.0
C679 C 0.38183 0.08139 0.27811 0.0
C680 C 0.40493 0.05922 0.23239 0.0
C681 C 0.43273 0.07716 0.09458 0.0
H682 H 0.42942 0.02318 0.04123 0.0
C683 C 0.46662 0.05014 0.86282 0.0
C684 C 0.47647 0.03305 0.86194 0.0
C685 C 0.45579 0.05616 0.91508 0.0
C686 C 0.4307 0.03826 0.05599 0.0
H687 H 0.37738 0.10577 0.22345 0.0
H688 H 0.39956 0.09613 0.13891 0.0
H689 H 0.40982 0.03373 0.1308 0.0
H690 H 0.48254 0.00885 0.91544 0.0
H691 H 0.46372 0.01943 0.00655 0.0
H692 H 0.45346 0.0817 0.01922 0.0
C693 C 0.39788 0.08734 0.17856 0.0
C694 C 0.41949 0.04431 0.1074 0.0
C695 C 0.38508 0.09282 0.22692 0.0
C696 C 0.47512 0.02207 0.91441 0.0
C697 C 0.46426 0.02808 0.96661 0.0
C698 C 0.44392 0.07111 0.04308 0.0
C699 C 0.40774 0.07033 0.18035 0.0
C700 C 0.4203 0.06385 0.12714 0.0
C701 C 0.45452 0.04522 0.96759 0.0
C702 C 0.44295 0.05161 0.02304 0.0
H703 H 0.39005 0.05562 0.31971 0.0
H704 H 0.41257 0.04621 0.23564 0.0
H705 H 0.43391 0.09227 0.1091 0.0
H706 H 0.46726 0.05892 0.82319 0.0
H707 H 0.44822 0.06929 0.9141 0.0
C708 C 0.44377 0.34433 0.2034 0.0
C709 C 0.42669 0.33191 0.19713 0.0
C710 C 0.44892 0.35827 0.16077 0.0
C711 C 0.44361 0.37266 0.00516 0.0
H712 H 0.45419 0.42425 0.07599 0.0
C713 C 0.46152 0.43957 0.8575 0.0
C714 C 0.47585 0.45339 0.87943 0.0
C715 C 0.45438 0.4243 0.89367 0.0
C716 C 0.45155 0.40992 0.05533 0.0
H717 H 0.40216 0.32376 0.13934 0.0
H718 H 0.41147 0.34813 0.06382 0.0
H719 H 0.44436 0.39787 0.14224 0.0
H720 H 0.49433 0.46192 0.95522 0.0
H721 H 0.48239 0.43516 0.01749 0.0
H722 H 0.4514 0.38462 0.91823 0.0
C723 C 0.42069 0.34705 0.1023 0.0
C724 C 0.44582 0.39483 0.09336 0.0
C725 C 0.41537 0.33316 0.14553 0.0
C726 C 0.48312 0.45157 0.93751 0.0
C727 C 0.47614 0.43628 0.97335 0.0
C728 C 0.4496 0.38778 0.96693 0.0
C729 C 0.43726 0.36002 0.11047 0.0
C730 C 0.44207 0.37601 0.06882 0.0
C731 C 0.46154 0.42254 0.95225 0.0
C732 C 0.45394 0.40655 0.99173 0.0
H733 H 0.45292 0.34372 0.2423 0.0
H734 H 0.46194 0.3679 0.16762 0.0
H735 H 0.44083 0.35825 0.98518 0.0
H736 H 0.45574 0.44064 0.81265 0.0
H737 H 0.44304 0.41408 0.87611 0.0
C738 C 0.19096 0.47848 0.16433 0.0
C739 C 0.1905 0.4898 0.2191 0.0
C740 C 0.17579 0.4788 0.12338 0.0
C741 C 0.12374 0.49027 0.12083 0.0
H742 H 0.13304 0.49013 0.94496 0.0
C743 C 0.05983 0.48138 0.95697 0.0
C744 C 0.06114 0.49297 0.90613 0.0
C745 C 0.07602 0.48052 0.99333 0.0
C746 C 0.13023 0.4903 0.99402 0.0
H747 H 0.17426 0.51094 0.27259 0.0
H748 H 0.1482 0.5117 0.20122 0.0
H749 H 0.16097 0.48997 0.01114 0.0
H750 H 0.08028 0.51272 0.85292 0.0
H751 H 0.10852 0.51159 0.9173 0.0
H752 H 0.09315 0.49111 0.10425 0.0
C753 C 0.15993 0.50223 0.19037 0.0
C754 C 0.1462 0.48998 0.03184 0.0
C755 C 0.17497 0.50186 0.23115 0.0
C756 C 0.0789 0.50372 0.89211 0.0
C757 C 0.0951 0.50292 0.92861 0.0
C758 C 0.10783 0.49061 0.08317 0.0
C759 C 0.15995 0.49046 0.13657 0.0
C760 C 0.14312 0.49012 0.0957 0.0
C761 C 0.09383 0.49131 0.97969 0.0
C762 C 0.11087 0.4907 0.01934 0.0
H763 H 0.20274 0.46904 0.15383 0.0
H764 H 0.17616 0.46952 0.08236 0.0
H765 H 0.12083 0.49009 0.16982 0.0
H766 H 0.04634 0.47282 0.96838 0.0
H767 H 0.07464 0.47122 0.03177 0.0
C768 C 0.9398 0.84648 0.18501 0.0
C769 C 0.9395 0.82692 0.19854 0.0
C770 C 0.94635 0.86083 0.22747 0.0
C771 C 0.95345 0.87004 0.39188 0.0
H772 H 0.98683 0.9141 0.338 0.0
C773 C 0.98667 0.92755 0.56263 0.0
C774 C 0.98608 0.94684 0.54733 0.0
C775 C 0.98215 0.91263 0.51964 0.0
C776 C 0.97737 0.90197 0.35368 0.0
H777 H 0.9459 0.8071 0.26726 0.0
H778 H 0.9574 0.83218 0.34134 0.0
H779 H 0.97656 0.88853 0.26389 0.0
H780 H 0.9806 0.96577 0.4753 0.0
H781 H 0.97249 0.93973 0.40021 0.0
H782 H 0.95405 0.88355 0.48151 0.0
C783 C 0.9524 0.83639 0.29804 0.0
C784 C 0.97149 0.88733 0.31124 0.0
C785 C 0.9459 0.82203 0.25547 0.0
C786 C 0.98122 0.951 0.4881 0.0
C787 C 0.97668 0.93608 0.44508 0.0
C788 C 0.95929 0.88469 0.4343 0.0
C789 C 0.9527 0.85595 0.28448 0.0
C790 C 0.95939 0.87125 0.32982 0.0
C791 C 0.97692 0.91672 0.46053 0.0
C792 C 0.97125 0.90087 0.41565 0.0
H793 H 0.93495 0.85076 0.14159 0.0
H794 H 0.94615 0.87577 0.21597 0.0
H795 H 0.94389 0.85797 0.40748 0.0
H796 H 0.99041 0.92398 0.60807 0.0
H797 H 0.98275 0.89789 0.53273 0.0
C798 C 0.6524 0.95169 0.20431 0.0
C799 C 0.65158 0.96055 0.14823 0.0
C800 C 0.64037 0.9572 0.25453 0.0
C801 C 0.61086 0.99654 0.31735 0.0
H802 H 0.58397 0.95638 0.41332 0.0
C803 C 0.5486 0.01188 0.49718 0.0
C804 C 0.54818 0.00215 0.55206 0.0
C805 C 0.56164 0.00706 0.44867 0.0
C806 C 0.59156 0.96778 0.38751 0.0
H807 H 0.63769 0.98236 0.10122 0.0
H808 H 0.61663 0.99192 0.18888 0.0
H809 H 0.60617 0.94769 0.32764 0.0
H810 H 0.56138 0.97992 0.59929 0.0
H811 H 0.58423 0.97167 0.51491 0.0
H812 H 0.59623 0.01664 0.37723 0.0
C813 C 0.6267 0.98081 0.19409 0.0
C814 C 0.60428 0.9628 0.33838 0.0
C815 C 0.6387 0.97526 0.14378 0.0
C816 C 0.56116 0.98757 0.55745 0.0
C817 C 0.57423 0.98279 0.50899 0.0
C818 C 0.59816 0.00153 0.36659 0.0
C819 C 0.62729 0.97173 0.24987 0.0
C820 C 0.61403 0.97711 0.30267 0.0
C821 C 0.5746 0.99245 0.45398 0.0
C822 C 0.58832 0.9872 0.40215 0.0
H823 H 0.66222 0.94036 0.20938 0.0
H824 H 0.64137 0.95012 0.29713 0.0
H825 H 0.61837 0.00791 0.29119 0.0
H826 H 0.53878 0.02315 0.4914 0.0
H827 H 0.56136 0.01461 0.40665 0.0
C828 C 0.61239 0.64277 0.17641 0.0
C829 C 0.60354 0.65989 0.16617 0.0
C830 C 0.60522 0.63103 0.22371 0.0
C831 C 0.56063 0.61958 0.32011 0.0
H832 H 0.59655 0.59706 0.42408 0.0
C833 C 0.53253 0.57772 0.53116 0.0
C834 C 0.54164 0.56082 0.54167 0.0
C835 C 0.54054 0.59029 0.48721 0.0
C836 C 0.58633 0.60306 0.39504 0.0
H837 H 0.58029 0.67817 0.19786 0.0
H838 H 0.56784 0.65769 0.28032 0.0
H839 H 0.60967 0.61796 0.34327 0.0
H840 H 0.56632 0.54381 0.51539 0.0
H841 H 0.58019 0.56556 0.43776 0.0
H842 H 0.53729 0.60454 0.3711 0.0
C843 C 0.58022 0.65327 0.25147 0.0
C844 C 0.59385 0.61505 0.3488 0.0
C845 C 0.58743 0.66505 0.20441 0.0
C846 C 0.55905 0.55679 0.50817 0.0
C847 C 0.56703 0.56931 0.46399 0.0
C848 C 0.55311 0.60754 0.36612 0.0
C849 C 0.589 0.63611 0.26155 0.0
C850 C 0.58107 0.62344 0.31087 0.0
C851 C 0.55779 0.58615 0.45267 0.0
C852 C 0.56586 0.59914 0.40418 0.0
H853 H 0.62481 0.63836 0.14776 0.0
H854 H 0.61217 0.61779 0.22997 0.0
H855 H 0.55042 0.62559 0.29101 0.0
H856 H 0.51915 0.58121 0.55672 0.0
H857 H 0.53324 0.60329 0.48043 0.0
C858 C 0.83814 0.48134 0.20581 0.0
C859 C 0.81932 0.48364 0.23329 0.0
C860 C 0.85413 0.47878 0.24163 0.0
C861 C 0.86798 0.46719 0.39663 0.0
H862 H 0.91418 0.50145 0.36112 0.0
C863 C 0.92686 0.48719 0.57332 0.0
C864 C 0.94669 0.48899 0.55251 0.0
C865 C 0.91188 0.48444 0.53171 0.0
C866 C 0.90155 0.49155 0.37115 0.0
H867 H 0.80229 0.48386 0.31949 0.0
H868 H 0.83016 0.47945 0.38185 0.0
H869 H 0.88698 0.49913 0.29228 0.0
H870 H 0.96655 0.4892 0.47234 0.0
H871 H 0.94037 0.48421 0.39938 0.0
H872 H 0.88244 0.45985 0.4761 0.0
C873 C 0.83257 0.47958 0.33267 0.0
C874 C 0.88596 0.4902 0.33162 0.0
C875 C 0.8166 0.48221 0.29691 0.0
C876 C 0.95134 0.48795 0.48946 0.0
C877 C 0.93635 0.48515 0.44777 0.0
C878 C 0.8836 0.4685 0.43612 0.0
C879 C 0.8516 0.47837 0.30558 0.0
C880 C 0.86888 0.47822 0.3444 0.0
C881 C 0.91645 0.48338 0.46843 0.0
C882 C 0.90044 0.48093 0.42433 0.0
H883 H 0.84072 0.48229 0.15686 0.0
H884 H 0.86857 0.4776 0.2194 0.0
H885 H 0.85511 0.45765 0.40726 0.0
H886 H 0.9229 0.48799 0.62179 0.0
H887 H 0.8967 0.48346 0.54914 0.0
loop_
_geom_bond_atom_site_label_1
_geom_bond_atom_site_label_2
_geom_bond_distance
_geom_bond_site_symmetry_2
_ccdc_geom_bond_type
O0 Cd1 2.300 1_556 S
O0 C7 1.275 1_556 S
Cd1 O0 2.300 1_554 S
Cd1 O9 2.381 1_554 S
Cd1 O10 2.378 . S
O2 Cd3 2.385 . S
O2 C7 1.255 . S
Cd3 O2 2.385 . S
Cd3 O4 2.317 . S
O4 Cd3 2.317 . S
O4 C5 1.232 . S
C5 O4 1.232 . S
C5 O6 1.218 . S
O6 C5 1.218 . S
C7 O0 1.275 1_554 S
C7 O2 1.255 . S
C8 O9 1.258 1_554 S
C8 O10 1.256 . S
O9 Cd1 2.381 1_556 S
O9 C8 1.258 1_556 S
O10 Cd1 2.378 . S
O10 C8 1.256 . S
O11 Cd12 2.300 1_556 S
O11 C18 1.275 . S
Cd12 O11 2.300 1_554 S
Cd12 O20 2.381 1_554 S
Cd12 O21 2.378 . S
O13 Cd14 2.385 . S
O13 C18 1.255 1_554 S
Cd14 O13 2.385 . S
Cd14 O15 2.317 . S
O15 Cd14 2.317 . S
O15 C16 1.232 . S
C16 O15 1.232 . S
C16 O17 1.218 . S
O17 C16 1.218 . S
C18 O11 1.275 . S
C18 O13 1.255 1_556 S
C19 O20 1.258 . S
C19 O21 1.256 1_556 S
O20 Cd12 2.381 1_556 S
O20 C19 1.258 . S
O21 Cd12 2.378 . S
O21 C19 1.256 1_554 S
O22 Cd23 2.300 1_556 S
O22 C29 1.275 1_556 S
Cd23 O22 2.300 1_554 S
Cd23 O31 2.381 1_554 S
Cd23 O32 2.378 . S
O24 Cd25 2.385 1_565 S
O24 C29 1.255 . S
Cd25 O24 2.385 1_545 S
Cd25 O26 2.317 1_545 S
O26 Cd25 2.317 1_565 S
O26 C27 1.232 . S
C27 O26 1.232 . S
C27 O28 1.218 . S
O28 C27 1.218 . S
C29 O22 1.275 1_554 S
C29 O24 1.255 . S
C30 O31 1.258 1_554 S
C30 O32 1.256 . S
O31 Cd23 2.381 1_556 S
O31 C30 1.258 1_556 S
O32 Cd23 2.378 . S
O32 C30 1.256 . S
O33 Cd34 2.300 . S
O33 C40 1.275 . S
Cd34 O33 2.300 . S
Cd34 O42 2.381 . S
Cd34 O43 2.378 . S
O35 Cd36 2.385 . S
O35 C40 1.255 . S
Cd36 O35 2.385 . S
Cd36 O37 2.317 . S
O37 Cd36 2.317 . S
O37 C38 1.232 . S
C38 O37 1.232 . S
C38 O39 1.218 . S
O39 C38 1.218 . S
C40 O33 1.275 . S
C40 O35 1.255 . S
C41 O42 1.258 . S
C41 O43 1.256 . S
O42 Cd34 2.381 . S
O42 C41 1.258 . S
O43 Cd34 2.378 . S
O43 C41 1.256 . S
O44 Cd45 2.300 . S
O44 C51 1.275 . S
Cd45 O44 2.300 . S
Cd45 O53 2.381 . S
Cd45 O54 2.378 . S
O46 Cd47 2.385 . S
O46 C51 1.255 . S
Cd47 O46 2.385 . S
Cd47 O48 2.317 . S
O48 Cd47 2.317 . S
O48 C49 1.232 . S
C49 O48 1.232 . S
C49 O50 1.218 . S
O50 C49 1.218 . S
C51 O44 1.275 . S
C51 O46 1.255 . S
C52 O53 1.258 . S
C52 O54 1.256 . S
O53 Cd45 2.381 . S
O53 C52 1.258 . S
O54 Cd45 2.378 . S
O54 C52 1.256 . S
O55 Cd56 2.300 . S
O55 C62 1.275 . S
Cd56 O55 2.300 . S
Cd56 O64 2.381 . S
Cd56 O65 2.378 . S
O57 Cd58 2.385 . S
O57 C62 1.255 . S
Cd58 O57 2.385 . S
Cd58 O59 2.317 . S
O59 Cd58 2.317 . S
O59 C60 1.232 . S
C60 O59 1.232 . S
C60 O61 1.218 . S
O61 C60 1.218 . S
C62 O55 1.275 . S
C62 O57 1.255 . S
C63 O64 1.258 . S
C63 O65 1.256 . S
O64 Cd56 2.381 . S
O64 C63 1.258 . S
O65 Cd56 2.378 . S
O65 C63 1.256 . S
O66 Cd67 2.300 . S
O66 C73 1.275 . S
Cd67 O66 2.300 . S
Cd67 O75 2.381 . S
Cd67 O76 2.378 . S
O68 Cd69 2.385 . S
O68 C73 1.255 . S
Cd69 O68 2.385 . S
Cd69 O70 2.317 . S
O70 Cd69 2.317 . S
O70 C71 1.232 . S
C71 O70 1.232 . S
C71 O72 1.218 . S
O72 C71 1.218 . S
C73 O66 1.275 . S
C73 O68 1.255 . S
C74 O75 1.258 . S
C74 O76 1.256 . S
O75 Cd67 2.381 . S
O75 C74 1.258 . S
O76 Cd67 2.378 . S
O76 C74 1.256 . S
O77 Cd78 2.300 . S
O77 C84 1.275 . S
Cd78 O77 2.300 . S
Cd78 O86 2.381 . S
Cd78 O87 2.378 . S
O79 Cd80 2.385 . S
O79 C84 1.255 . S
Cd80 O79 2.385 . S
Cd80 O81 2.317 . S
O81 Cd80 2.317 . S
O81 C82 1.232 . S
C82 O81 1.232 . S
C82 O83 1.218 . S
O83 C82 1.218 . S
C84 O77 1.275 . S
C84 O79 1.255 . S
C85 O86 1.258 . S
C85 O87 1.256 . S
O86 Cd78 2.381 . S
O86 C85 1.258 . S
O87 Cd78 2.378 . S
O87 C85 1.256 . S
Tb88 O91 2.447 1_565 S
Tb88 O92 2.592 1_665 S
Tb88 O93 2.374 1_665 S
Tb88 O101 2.346 1_655 S
Tb88 O103 2.352 1_565 S
Tb88 O105 2.431 . S
Tb88 O106 2.518 1_655 S
C89 O93 1.251 . S
C89 O95 1.263 . S
Tb90 O92 2.343 . S
Tb90 O95 2.353 . S
Tb90 O98 2.427 . S
Tb90 O99 2.513 . S
Tb90 O100 2.453 1_545 S
Tb90 O101 2.596 1_545 S
Tb90 O102 2.374 1_455 S
O91 Tb88 2.447 1_545 S
O91 C107 1.222 1_655 S
O92 Tb88 2.592 1_445 S
O92 Tb90 2.343 . S
O92 C107 1.259 . S
O93 Tb88 2.374 1_445 S
O93 C89 1.251 . S
C94 O98 1.275 . S
C94 O99 1.246 . S
O95 C89 1.263 . S
O95 Tb90 2.353 . S
C96 O100 1.245 . S
C96 O101 1.259 . S
C97 O102 1.250 . S
C97 O103 1.263 . S
O98 Tb90 2.427 . S
O98 C94 1.275 . S
O99 Tb90 2.513 . S
O99 C94 1.246 . S
O100 Tb90 2.453 1_565 S
O100 C96 1.245 . S
O101 Tb88 2.346 1_455 S
O101 Tb90 2.596 1_565 S
O101 C96 1.259 . S
O102 Tb90 2.374 1_655 S
O102 C97 1.250 . S
O103 Tb88 2.352 1_545 S
O103 C97 1.263 . S
C104 O105 1.275 . S
C104 O106 1.246 1_655 S
O105 Tb88 2.431 . S
O105 C104 1.275 . S
O106 Tb88 2.518 1_455 S
O106 C104 1.246 1_455 S
C107 O91 1.222 1_455 S
C107 O92 1.259 . S
Tb108 O111 2.453 . S
Tb108 O112 2.588 1_545 S
Tb108 O113 2.374 . S
Tb108 O121 2.343 . S
Tb108 O123 2.353 . S
Tb108 O125 2.427 . S
Tb108 O126 2.513 . S
C109 O113 1.260 . S
C109 O115 1.255 1_545 S
Tb110 O112 2.347 . S
Tb110 O115 2.353 . S
Tb110 O118 2.427 . S
Tb110 O119 2.513 . S
Tb110 O120 2.453 . S
Tb110 O121 2.596 1_565 S
Tb110 O122 2.374 . S
O111 Tb108 2.453 . S
O111 C127 1.245 . S
O112 Tb108 2.588 1_565 S
O112 Tb110 2.347 . S
O112 C127 1.257 1_565 S
O113 Tb108 2.374 . S
O113 C109 1.260 . S
C114 O118 1.275 . S
C114 O119 1.246 . S
O115 C109 1.255 1_565 S
O115 Tb110 2.353 . S
C116 O120 1.245 1_545 S
C116 O121 1.259 . S
C117 O122 1.250 1_545 S
C117 O123 1.263 . S
O118 Tb110 2.427 . S
O118 C114 1.275 . S
O119 Tb110 2.513 . S
O119 C114 1.246 . S
O120 Tb110 2.453 . S
O120 C116 1.245 1_565 S
O121 Tb108 2.343 . S
O121 Tb110 2.596 1_545 S
O121 C116 1.259 . S
O122 Tb110 2.374 . S
O122 C117 1.250 1_565 S
O123 Tb108 2.353 . S
O123 C117 1.263 . S
C124 O125 1.275 . S
C124 O126 1.246 . S
O125 Tb108 2.427 . S
O125 C124 1.275 . S
O126 Tb108 2.513 . S
O126 C124 1.246 . S
C127 O111 1.245 . S
C127 O112 1.257 1_545 S
Tb128 O131 2.453 . S
Tb128 O132 2.596 . S
Tb128 O133 2.374 . S
Tb128 O141 2.343 . S
Tb128 O143 2.353 . S
Tb128 O145 2.427 . S
Tb128 O146 2.513 . S
C129 O133 1.251 . S
C129 O135 1.263 . S
Tb130 O132 2.343 . S
Tb130 O135 2.353 . S
Tb130 O138 2.427 . S
Tb130 O139 2.513 . S
Tb130 O140 2.453 . S
Tb130 O141 2.596 . S
Tb130 O142 2.374 . S
O131 Tb128 2.453 . S
O131 C147 1.245 . S
O132 Tb128 2.596 . S
O132 Tb130 2.343 . S
O132 C147 1.259 . S
O133 Tb128 2.374 . S
O133 C129 1.251 . S
C134 O138 1.275 . S
C134 O139 1.246 . S
O135 C129 1.263 . S
O135 Tb130 2.353 . S
C136 O140 1.245 . S
C136 O141 1.259 . S
C137 O142 1.250 . S
C137 O143 1.263 . S
O138 Tb130 2.427 . S
O138 C134 1.275 . S
O139 Tb130 2.513 . S
O139 C134 1.246 . S
O140 Tb130 2.453 . S
O140 C136 1.245 . S
O141 Tb128 2.343 . S
O141 Tb130 2.596 . S
O141 C136 1.259 . S
O142 Tb130 2.374 . S
O142 C137 1.250 . S
O143 Tb128 2.353 . S
O143 C137 1.263 . S
C144 O145 1.275 . S
C144 O146 1.246 . S
O145 Tb128 2.427 . S
O145 C144 1.275 . S
O146 Tb128 2.513 . S
O146 C144 1.246 . S
C147 O131 1.245 . S
C147 O132 1.259 . S
Tb148 O151 2.435 1_655 S
Tb148 O152 2.581 1_655 S
Tb148 O153 2.371 1_655 S
Tb148 O161 2.350 . S
Tb148 O163 2.352 1_655 S
Tb148 O165 2.444 . S
Tb148 O166 2.529 . S
C149 O153 1.251 . S
C149 O155 1.263 . S
Tb150 O152 2.343 . S
Tb150 O155 2.353 . S
Tb150 O158 2.427 . S
Tb150 O159 2.513 . S
Tb150 O160 2.453 1_455 S
Tb150 O161 2.596 1_455 S
Tb150 O162 2.374 . S
O151 Tb148 2.435 1_455 S
O151 C167 1.245 . S
O152 Tb148 2.581 1_455 S
O152 Tb150 2.343 . S
O152 C167 1.259 . S
O153 Tb148 2.371 1_455 S
O153 C149 1.251 . S
C154 O158 1.275 . S
C154 O159 1.246 . S
O155 C149 1.263 . S
O155 Tb150 2.353 . S
C156 O160 1.245 . S
C156 O161 1.259 . S
C157 O162 1.250 . S
C157 O163 1.263 . S
O158 Tb150 2.427 . S
O158 C154 1.275 . S
O159 Tb150 2.513 . S
O159 C154 1.246 . S
O160 Tb150 2.453 1_655 S
O160 C156 1.245 . S
O161 Tb148 2.350 . S
O161 Tb150 2.596 1_655 S
O161 C156 1.259 . S
O162 Tb150 2.374 . S
O162 C157 1.250 . S
O163 Tb148 2.352 1_455 S
O163 C157 1.263 . S
C164 O165 1.275 . S
C164 O166 1.246 . S
O165 Tb148 2.444 . S
O165 C164 1.275 . S
O166 Tb148 2.529 . S
O166 C164 1.246 . S
C167 O151 1.245 . S
C167 O152 1.259 . S
C168 C169 1.349 . S
C168 C170 1.327 . S
C168 H193 0.950 . S
C169 C168 1.349 . S
C169 C185 1.349 . S
C170 C168 1.327 . S
C170 C189 1.429 . S
C170 H194 0.950 . S
C171 C188 1.574 . S
C171 C190 1.368 . S
C171 H195 0.949 . S
H172 C176 0.949 . S
C173 C174 1.349 . S
C173 C175 1.327 . S
C173 H196 0.950 . S
C174 C173 1.349 . S
C174 C186 1.349 . S
C175 C173 1.327 . S
C175 C191 1.429 . S
C175 H197 0.950 . S
C176 H172 0.949 . S
C176 C184 1.574 . S
C176 C192 1.368 . S
H177 C185 0.950 . S
H178 C183 0.950 . S
H179 C184 0.949 . S
H180 C186 0.950 . S
H181 C187 0.950 . S
H182 C188 0.949 . S
C183 H178 0.950 . S
C183 C185 1.327 . S
C183 C189 1.429 . S
C184 C176 1.574 . S
C184 H179 0.949 . S
C184 C190 1.368 . S
C185 C169 1.349 . S
C185 H177 0.950 . S
C185 C183 1.327 . S
C186 C174 1.349 . S
C186 H180 0.950 . S
C186 C187 1.327 . S
C187 H181 0.950 . S
C187 C186 1.327 . S
C187 C191 1.429 . S
C188 C171 1.574 . S
C188 H182 0.949 . S
C188 C192 1.368 . S
C189 C170 1.429 . S
C189 C183 1.429 . S
C189 C190 1.523 . S
C190 C171 1.368 . S
C190 C184 1.368 . S
C190 C189 1.523 . S
C191 C175 1.429 . S
C191 C187 1.429 . S
C191 C192 1.523 . S
C192 C176 1.368 . S
C192 C188 1.368 . S
C192 C191 1.523 . S
H193 C168 0.950 . S
H194 C170 0.950 . S
H195 C171 0.949 . S
H196 C173 0.950 . S
H197 C175 0.950 . S
C198 C199 1.349 . S
C198 C200 1.327 . S
C198 H223 0.950 . S
C199 C198 1.349 . S
C199 C215 1.349 . S
C200 C198 1.327 . S
C200 C219 1.429 . S
C200 H224 0.950 . S
C201 C218 1.574 . S
C201 C220 1.368 . S
C201 H225 0.949 . S
H202 C206 0.949 . S
C203 C204 1.349 . S
C203 C205 1.327 . S
C203 H226 0.950 . S
C204 C203 1.349 . S
C204 C216 1.349 . S
C205 C203 1.327 . S
C205 C221 1.429 . S
C205 H227 0.950 . S
C206 H202 0.949 . S
C206 C214 1.574 . S
C206 C222 1.368 . S
H207 C215 0.950 . S
H208 C213 0.950 . S
H209 C214 0.949 . S
H210 C216 0.950 . S
H211 C217 0.950 . S
H212 C218 0.949 . S
C213 H208 0.950 . S
C213 C215 1.327 . S
C213 C219 1.429 . S
C214 C206 1.574 . S
C214 H209 0.949 . S
C214 C220 1.368 . S
C215 C199 1.349 . S
C215 H207 0.950 . S
C215 C213 1.327 . S
C216 C204 1.349 . S
C216 H210 0.950 . S
C216 C217 1.327 . S
C217 H211 0.950 . S
C217 C216 1.327 . S
C217 C221 1.429 . S
C218 C201 1.574 . S
C218 H212 0.949 . S
C218 C222 1.368 . S
C219 C200 1.429 . S
C219 C213 1.429 . S
C219 C220 1.523 . S
C220 C201 1.368 . S
C220 C214 1.368 . S
C220 C219 1.523 . S
C221 C205 1.429 . S
C221 C217 1.429 . S
C221 C222 1.523 . S
C222 C206 1.368 . S
C222 C218 1.368 . S
C222 C221 1.523 . S
H223 C198 0.950 . S
H224 C200 0.950 . S
H225 C201 0.949 . S
H226 C203 0.950 . S
H227 C205 0.950 . S
C228 C229 1.349 . S
C228 C230 1.327 . S
C228 H253 0.950 . S
C229 C228 1.349 . S
C229 C245 1.349 . S
C230 C228 1.327 . S
C230 C249 1.429 . S
C230 H254 0.950 . S
C231 C248 1.574 . S
C231 C250 1.368 . S
C231 H255 0.949 . S
H232 C236 0.949 . S
C233 C234 1.349 . S
C233 C235 1.327 . S
C233 H256 0.950 . S
C234 C233 1.349 . S
C234 C246 1.349 . S
C235 C233 1.327 . S
C235 C251 1.429 . S
C235 H257 0.950 . S
C236 H232 0.949 . S
C236 C244 1.574 . S
C236 C252 1.368 . S
H237 C245 0.950 . S
H238 C243 0.950 . S
H239 C244 0.949 . S
H240 C246 0.950 . S
H241 C247 0.950 . S
H242 C248 0.949 . S
C243 H238 0.950 . S
C243 C245 1.327 . S
C243 C249 1.429 . S
C244 C236 1.574 . S
C244 H239 0.949 . S
C244 C250 1.368 . S
C245 C229 1.349 . S
C245 H237 0.950 . S
C245 C243 1.327 . S
C246 C234 1.349 . S
C246 H240 0.950 . S
C246 C247 1.327 . S
C247 H241 0.950 . S
C247 C246 1.327 . S
C247 C251 1.429 . S
C248 C231 1.574 . S
C248 H242 0.949 . S
C248 C252 1.368 . S
C249 C230 1.429 . S
C249 C243 1.429 . S
C249 C250 1.523 . S
C250 C231 1.368 . S
C250 C244 1.368 . S
C250 C249 1.523 . S
C251 C235 1.429 . S
C251 C247 1.429 . S
C251 C252 1.523 . S
C252 C236 1.368 . S
C252 C248 1.368 . S
C252 C251 1.523 . S
H253 C228 0.950 . S
H254 C230 0.950 . S
H255 C231 0.949 . S
H256 C233 0.950 . S
H257 C235 0.950 . S
C258 C259 1.349 . S
C258 C260 1.327 . S
C258 H283 0.950 . S
C259 C258 1.349 . S
C259 C275 1.349 . S
C260 C258 1.327 . S
C260 C279 1.429 . S
C260 H284 0.950 . S
C261 C278 1.574 . S
C261 C280 1.368 . S
C261 H285 0.949 . S
H262 C266 0.949 . S
C263 C264 1.349 . S
C263 C265 1.327 . S
C263 H286 0.950 1_455 S
C264 C263 1.349 . S
C264 C276 1.349 . S
C265 C263 1.327 . S
C265 C281 1.429 . S
C265 H287 0.950 1_455 S
C266 H262 0.949 . S
C266 C274 1.574 . S
C266 C282 1.368 . S
H267 C275 0.950 . S
H268 C273 0.950 . S
H269 C274 0.949 . S
H270 C276 0.950 . S
H271 C277 0.950 . S
H272 C278 0.949 . S
C273 H268 0.950 . S
C273 C275 1.327 . S
C273 C279 1.429 . S
C274 C266 1.574 . S
C274 H269 0.949 . S
C274 C280 1.368 . S
C275 C259 1.349 . S
C275 H267 0.950 . S
C275 C273 1.327 . S
C276 C264 1.349 . S
C276 H270 0.950 . S
C276 C277 1.327 . S
C277 H271 0.950 . S
C277 C276 1.327 . S
C277 C281 1.429 . S
C278 C261 1.574 . S
C278 H272 0.949 . S
C278 C282 1.368 . S
C279 C260 1.429 . S
C279 C273 1.429 . S
C279 C280 1.523 . S
C280 C261 1.368 . S
C280 C274 1.368 . S
C280 C279 1.523 . S
C281 C265 1.429 . S
C281 C277 1.429 . S
C281 C282 1.523 . S
C282 C266 1.368 . S
C282 C278 1.368 . S
C282 C281 1.523 . S
H283 C258 0.950 . S
H284 C260 0.950 . S
H285 C261 0.949 . S
H286 C263 0.950 1_655 S
H287 C265 0.950 1_655 S
C288 C289 1.349 . S
C288 C290 1.327 . S
C288 H313 0.950 . S
C289 C288 1.349 . S
C289 C305 1.349 1_556 S
C290 C288 1.327 . S
C290 C309 1.429 . S
C290 H314 0.950 . S
C291 C308 1.574 . S
C291 C310 1.368 . S
C291 H315 0.949 . S
H292 C296 0.949 . S
C293 C294 1.349 1_545 S
C293 C295 1.337 . S
C293 H316 0.950 . S
C294 C293 1.349 1_565 S
C294 C306 1.349 . S
C295 C293 1.337 . S
C295 C311 1.406 1_545 S
C295 H317 0.966 . S
C296 H292 0.949 . S
C296 C304 1.574 . S
C296 C312 1.368 . S
H297 C305 0.950 . S
H298 C303 0.960 . S
H299 C304 0.949 . S
H300 C306 0.950 . S
H301 C307 0.950 . S
H302 C308 0.954 . S
C303 H298 0.960 . S
C303 C305 1.334 . S
C303 C309 1.412 1_554 S
C304 C296 1.574 . S
C304 H299 0.949 . S
C304 C310 1.368 . S
C305 C289 1.349 1_554 S
C305 H297 0.950 . S
C305 C303 1.334 . S
C306 C294 1.349 . S
C306 H300 0.950 . S
C306 C307 1.327 . S
C307 H301 0.950 . S
C307 C306 1.327 . S
C307 C311 1.429 . S
C308 C291 1.574 . S
C308 H302 0.954 . S
C308 C312 1.368 . S
C309 C290 1.429 . S
C309 C303 1.412 1_556 S
C309 C310 1.523 . S
C310 C291 1.368 . S
C310 C304 1.368 . S
C310 C309 1.523 . S
C311 C295 1.406 1_565 S
C311 C307 1.429 . S
C311 C312 1.523 . S
C312 C296 1.368 . S
C312 C308 1.368 . S
C312 C311 1.523 . S
H313 C288 0.950 . S
H314 C290 0.950 . S
H315 C291 0.949 . S
H316 C293 0.950 . S
H317 C295 0.966 . S
C318 C319 1.349 1_556 S
C318 C320 1.327 . S
C318 H343 0.950 . S
C319 C318 1.349 1_554 S
C319 C335 1.349 . S
C320 C318 1.327 . S
C320 C339 1.429 . S
C320 H344 0.950 . S
C321 C338 1.574 . S
C321 C340 1.368 . S
C321 H345 0.949 1_556 S
H322 C326 0.949 . S
C323 C324 1.349 . S
C323 C325 1.327 . S
C323 H346 0.950 . S
C324 C323 1.349 . S
C324 C336 1.349 . S
C325 C323 1.327 . S
C325 C341 1.429 . S
C325 H347 0.950 . S
C326 H322 0.949 . S
C326 C334 1.574 . S
C326 C342 1.368 . S
H327 C335 0.950 . S
H328 C333 0.950 . S
H329 C334 0.949 . S
H330 C336 0.950 . S
H331 C337 0.950 . S
H332 C338 0.949 . S
C333 H328 0.950 . S
C333 C335 1.327 . S
C333 C339 1.429 1_554 S
C334 C326 1.574 . S
C334 H329 0.949 . S
C334 C340 1.368 . S
C335 C319 1.349 . S
C335 H327 0.950 . S
C335 C333 1.327 . S
C336 C324 1.349 . S
C336 H330 0.950 . S
C336 C337 1.327 . S
C337 H331 0.950 . S
C337 C336 1.327 . S
C337 C341 1.429 . S
C338 C321 1.574 . S
C338 H332 0.949 . S
C338 C342 1.368 . S
C339 C320 1.429 . S
C339 C333 1.429 1_556 S
C339 C340 1.523 . S
C340 C321 1.368 . S
C340 C334 1.368 . S
C340 C339 1.523 . S
C341 C325 1.429 . S
C341 C337 1.429 . S
C341 C342 1.523 . S
C342 C326 1.368 . S
C342 C338 1.368 . S
C342 C341 1.523 . S
H343 C318 0.950 . S
H344 C320 0.950 . S
H345 C321 0.949 1_554 S
H346 C323 0.950 . S
H347 C325 0.950 . S
C348 C349 1.349 1_556 S
C348 C350 1.327 . S
C348 H373 0.950 . S
C349 C348 1.349 1_554 S
C349 C365 1.349 . S
C350 C348 1.327 . S
C350 C369 1.429 . S
C350 H374 0.950 . S
C351 C368 1.574 . S
C351 C370 1.368 . S
C351 H375 0.949 . S
H352 C356 0.949 . S
C353 C354 1.349 . S
C353 C355 1.327 . S
C353 H376 0.950 . S
C354 C353 1.349 . S
C354 C366 1.349 . S
C355 C353 1.327 . S
C355 C371 1.429 . S
C355 H377 0.950 . S
C356 H352 0.949 . S
C356 C364 1.574 . S
C356 C372 1.368 . S
H357 C365 0.950 . S
H358 C363 0.950 . S
H359 C364 0.949 . S
H360 C366 0.950 . S
H361 C367 0.950 . S
H362 C368 0.949 . S
C363 H358 0.950 . S
C363 C365 1.327 1_556 S
C363 C369 1.429 . S
C364 C356 1.574 . S
C364 H359 0.949 . S
C364 C370 1.368 . S
C365 C349 1.349 . S
C365 H357 0.950 . S
C365 C363 1.327 1_554 S
C366 C354 1.349 . S
C366 H360 0.950 . S
C366 C367 1.327 . S
C367 H361 0.950 . S
C367 C366 1.327 . S
C367 C371 1.429 . S
C368 C351 1.574 . S
C368 H362 0.949 . S
C368 C372 1.368 . S
C369 C350 1.429 . S
C369 C363 1.429 . S
C369 C370 1.523 . S
C370 C351 1.368 . S
C370 C364 1.368 . S
C370 C369 1.523 . S
C371 C355 1.429 . S
C371 C367 1.429 . S
C371 C372 1.523 . S
C372 C356 1.368 . S
C372 C368 1.368 . S
C372 C371 1.523 . S
H373 C348 0.950 . S
H374 C350 0.950 . S
H375 C351 0.949 . S
H376 C353 0.950 . S
H377 C355 0.950 . S
C378 C379 1.349 . S
C378 C380 1.327 . S
C378 H403 0.950 1_556 S
C379 C378 1.349 . S
C379 C395 1.349 . S
C380 C378 1.327 . S
C380 C399 1.429 . S
C380 H404 0.950 . S
C381 C398 1.574 . S
C381 C400 1.368 . S
C381 H405 0.949 . S
H382 C386 0.949 . S
C383 C384 1.349 1_455 S
C383 C385 1.327 1_455 S
C383 H406 0.950 . S
C384 C383 1.349 1_655 S
C384 C396 1.349 . S
C385 C383 1.327 1_655 S
C385 C401 1.429 . S
C385 H407 0.944 1_655 S
C386 H382 0.949 . S
C386 C394 1.574 . S
C386 C402 1.368 . S
H387 C395 0.950 . S
H388 C393 0.950 . S
H389 C394 0.949 . S
H390 C396 0.950 . S
H391 C397 0.950 . S
H392 C398 0.949 . S
C393 H388 0.950 . S
C393 C395 1.327 . S
C393 C399 1.429 . S
C394 C386 1.574 . S
C394 H389 0.949 . S
C394 C400 1.368 . S
C395 C379 1.349 . S
C395 H387 0.950 . S
C395 C393 1.327 . S
C396 C384 1.349 . S
C396 H390 0.950 . S
C396 C397 1.327 . S
C397 H391 0.950 . S
C397 C396 1.327 . S
C397 C401 1.429 . S
C398 C381 1.574 . S
C398 H392 0.949 . S
C398 C402 1.368 . S
C399 C380 1.429 . S
C399 C393 1.429 . S
C399 C400 1.523 . S
C400 C381 1.368 . S
C400 C394 1.368 . S
C400 C399 1.523 . S
C401 C385 1.429 . S
C401 C397 1.429 . S
C401 C402 1.523 . S
C402 C386 1.368 . S
C402 C398 1.368 . S
C402 C401 1.523 . S
H403 C378 0.950 1_554 S
H404 C380 0.950 . S
H405 C381 0.949 . S
H406 C383 0.950 . S
H407 C385 0.944 1_455 S
C408 C409 1.349 . S
C408 C410 1.327 . S
C408 H433 0.950 . S
C409 C408 1.349 . S
C409 C425 1.349 . S
C410 C408 1.327 . S
C410 C429 1.429 . S
C410 H434 0.950 . S
C411 C428 1.574 . S
C411 C430 1.368 . S
C411 H435 0.949 . S
H412 C416 0.949 . S
C413 C414 1.349 . S
C413 C415 1.327 . S
C413 H436 0.950 . S
C414 C413 1.349 . S
C414 C426 1.349 . S
C415 C413 1.327 . S
C415 C431 1.429 . S
C415 H437 0.950 . S
C416 H412 0.949 . S
C416 C424 1.574 . S
C416 C432 1.368 . S
H417 C425 0.950 . S
H418 C423 0.950 . S
H419 C424 0.949 . S
H420 C426 0.950 . S
H421 C427 0.950 . S
H422 C428 0.949 . S
C423 H418 0.950 . S
C423 C425 1.327 . S
C423 C429 1.429 . S
C424 C416 1.574 . S
C424 H419 0.949 . S
C424 C430 1.368 . S
C425 C409 1.349 . S
C425 H417 0.950 . S
C425 C423 1.327 . S
C426 C414 1.349 . S
C426 H420 0.950 . S
C426 C427 1.327 . S
C427 H421 0.950 . S
C427 C426 1.327 . S
C427 C431 1.429 . S
C428 C411 1.574 . S
C428 H422 0.949 . S
C428 C432 1.368 . S
C429 C410 1.429 . S
C429 C423 1.429 . S
C429 C430 1.523 . S
C430 C411 1.368 . S
C430 C424 1.368 . S
C430 C429 1.523 . S
C431 C415 1.429 . S
C431 C427 1.429 . S
C431 C432 1.523 . S
C432 C416 1.368 . S
C432 C428 1.368 . S
C432 C431 1.523 . S
H433 C408 0.950 . S
H434 C410 0.950 . S
H435 C411 0.949 . S
H436 C413 0.950 . S
H437 C415 0.950 . S
C438 C439 1.349 . S
C438 C440 1.327 . S
C438 H463 0.950 . S
C439 C438 1.349 . S
C439 C455 1.349 . S
C440 C438 1.327 . S
C440 C459 1.429 . S
C440 H464 0.950 . S
C441 C458 1.574 . S
C441 C460 1.368 . S
C441 H465 0.949 . S
H442 C446 0.949 . S
C443 C444 1.349 . S
C443 C445 1.327 . S
C443 H466 0.950 . S
C444 C443 1.349 . S
C444 C456 1.349 . S
C445 C443 1.327 . S
C445 C461 1.429 . S
C445 H467 0.950 . S
C446 H442 0.949 . S
C446 C454 1.574 . S
C446 C462 1.368 . S
H447 C455 0.950 . S
H448 C453 0.950 . S
H449 C454 0.949 . S
H450 C456 0.950 . S
H451 C457 0.950 . S
H452 C458 0.949 . S
C453 H448 0.950 . S
C453 C455 1.327 . S
C453 C459 1.429 . S
C454 C446 1.574 . S
C454 H449 0.949 . S
C454 C460 1.368 . S
C455 C439 1.349 . S
C455 H447 0.950 . S
C455 C453 1.327 . S
C456 C444 1.349 . S
C456 H450 0.950 . S
C456 C457 1.327 . S
C457 H451 0.950 . S
C457 C456 1.327 . S
C457 C461 1.429 . S
C458 C441 1.574 . S
C458 H452 0.949 . S
C458 C462 1.368 . S
C459 C440 1.429 . S
C459 C453 1.429 . S
C459 C460 1.523 . S
C460 C441 1.368 . S
C460 C454 1.368 . S
C460 C459 1.523 . S
C461 C445 1.429 . S
C461 C457 1.429 . S
C461 C462 1.523 . S
C462 C446 1.368 . S
C462 C458 1.368 . S
C462 C461 1.523 . S
H463 C438 0.950 . S
H464 C440 0.950 . S
H465 C441 0.949 . S
H466 C443 0.950 . S
H467 C445 0.950 . S
C468 C469 1.349 . S
C468 C470 1.327 . S
C468 H493 0.950 . S
C469 C468 1.349 . S
C469 C485 1.349 . S
C470 C468 1.327 . S
C470 C489 1.429 . S
C470 H494 0.950 . S
C471 C488 1.574 . S
C471 C490 1.368 . S
C471 H495 0.949 . S
H472 C476 0.949 . S
C473 C474 1.349 . S
C473 C475 1.327 . S
C473 H496 0.950 . S
C474 C473 1.349 . S
C474 C486 1.349 . S
C475 C473 1.327 . S
C475 C491 1.429 . S
C475 H497 0.950 . S
C476 H472 0.949 . S
C476 C484 1.574 . S
C476 C492 1.368 . S
H477 C485 0.950 . S
H478 C483 0.950 . S
H479 C484 0.949 . S
H480 C486 0.950 . S
H481 C487 0.950 . S
H482 C488 0.949 . S
C483 H478 0.950 . S
C483 C485 1.327 . S
C483 C489 1.429 . S
C484 C476 1.574 . S
C484 H479 0.949 . S
C484 C490 1.368 . S
C485 C469 1.349 . S
C485 H477 0.950 . S
C485 C483 1.327 . S
C486 C474 1.349 . S
C486 H480 0.950 . S
C486 C487 1.327 . S
C487 H481 0.950 . S
C487 C486 1.327 . S
C487 C491 1.429 . S
C488 C471 1.574 . S
C488 H482 0.949 . S
C488 C492 1.368 . S
C489 C470 1.429 . S
C489 C483 1.429 . S
C489 C490 1.523 . S
C490 C471 1.368 . S
C490 C484 1.368 . S
C490 C489 1.523 . S
C491 C475 1.429 . S
C491 C487 1.429 . S
C491 C492 1.523 . S
C492 C476 1.368 . S
C492 C488 1.368 . S
C492 C491 1.523 . S
H493 C468 0.950 . S
H494 C470 0.950 . S
H495 C471 0.949 . S
H496 C473 0.950 . S
H497 C475 0.950 . S
C498 C499 1.349 . S
C498 C500 1.327 . S
C498 H523 0.950 . S
C499 C498 1.349 . S
C499 C515 1.349 . S
C500 C498 1.327 . S
C500 C519 1.429 . S
C500 H524 0.950 . S
C501 C518 1.574 . S
C501 C520 1.368 . S
C501 H525 0.949 . S
H502 C506 0.949 . S
C503 C504 1.349 . S
C503 C505 1.327 . S
C503 H526 0.950 . S
C504 C503 1.349 . S
C504 C516 1.349 . S
C505 C503 1.327 . S
C505 C521 1.429 . S
C505 H527 0.950 . S
C506 H502 0.949 . S
C506 C514 1.574 . S
C506 C522 1.368 . S
H507 C515 0.950 . S
H508 C513 0.950 . S
H509 C514 0.949 . S
H510 C516 0.950 . S
H511 C517 0.950 . S
H512 C518 0.949 . S
C513 H508 0.950 . S
C513 C515 1.327 . S
C513 C519 1.429 . S
C514 C506 1.574 . S
C514 H509 0.949 . S
C514 C520 1.368 . S
C515 C499 1.349 . S
C515 H507 0.950 . S
C515 C513 1.327 . S
C516 C504 1.349 . S
C516 H510 0.950 . S
C516 C517 1.327 . S
C517 H511 0.950 . S
C517 C516 1.327 . S
C517 C521 1.429 . S
C518 C501 1.574 . S
C518 H512 0.949 . S
C518 C522 1.368 . S
C519 C500 1.429 . S
C519 C513 1.429 . S
C519 C520 1.523 . S
C520 C501 1.368 . S
C520 C514 1.368 . S
C520 C519 1.523 . S
C521 C505 1.429 . S
C521 C517 1.429 . S
C521 C522 1.523 . S
C522 C506 1.368 . S
C522 C518 1.368 . S
C522 C521 1.523 . S
H523 C498 0.950 . S
H524 C500 0.950 . S
H525 C501 0.949 . S
H526 C503 0.950 . S
H527 C505 0.950 . S
C528 C529 1.349 . S
C528 C530 1.327 . S
C528 H553 0.950 . S
C529 C528 1.349 . S
C529 C545 1.349 . S
C530 C528 1.327 . S
C530 C549 1.429 . S
C530 H554 0.950 . S
C531 C548 1.574 . S
C531 C550 1.368 . S
C531 H555 0.949 . S
H532 C536 0.949 . S
C533 C534 1.355 . S
C533 C535 1.334 . S
C533 H556 0.937 1_655 S
C534 C533 1.355 . S
C534 C546 1.349 . S
C535 C533 1.334 . S
C535 C551 1.429 . S
C535 H557 0.950 . S
C536 H532 0.949 . S
C536 C544 1.574 . S
C536 C552 1.368 . S
H537 C545 0.950 1_554 S
H538 C543 0.950 . S
H539 C544 0.949 . S
H540 C546 0.950 . S
H541 C547 0.950 . S
H542 C548 0.949 . S
C543 H538 0.950 . S
C543 C545 1.327 . S
C543 C549 1.429 . S
C544 C536 1.574 . S
C544 H539 0.949 . S
C544 C550 1.368 . S
C545 C529 1.349 . S
C545 H537 0.950 1_556 S
C545 C543 1.327 . S
C546 C534 1.349 . S
C546 H540 0.950 . S
C546 C547 1.327 . S
C547 H541 0.950 . S
C547 C546 1.327 . S
C547 C551 1.429 . S
C548 C531 1.574 . S
C548 H542 0.949 . S
C548 C552 1.368 . S
C549 C530 1.429 . S
C549 C543 1.429 . S
C549 C550 1.523 . S
C550 C531 1.368 . S
C550 C544 1.368 . S
C550 C549 1.523 . S
C551 C535 1.429 . S
C551 C547 1.429 . S
C551 C552 1.523 . S
C552 C536 1.368 . S
C552 C548 1.368 . S
C552 C551 1.523 . S
H553 C528 0.950 . S
H554 C530 0.950 . S
H555 C531 0.949 . S
H556 C533 0.937 1_455 S
H557 C535 0.950 . S
C558 C559 1.349 . S
C558 C560 1.327 . S
C558 H583 0.950 . S
C559 C558 1.349 . S
C559 C575 1.349 1_556 S
C560 C558 1.327 . S
C560 C579 1.429 . S
C560 H584 0.950 . S
C561 C578 1.573 1_565 S
C561 C580 1.368 . S
C561 H585 0.949 1_565 S
H562 C566 0.949 . S
C563 C564 1.346 . S
C563 C565 1.327 . S
C563 H586 0.950 . S
C564 C563 1.346 . S
C564 C576 1.354 1_545 S
C565 C563 1.327 . S
C565 C581 1.429 1_545 S
C565 H587 0.950 . S
C566 H562 0.949 . S
C566 C574 1.574 . S
C566 C582 1.368 . S
H567 C575 0.950 . S
H568 C573 0.950 . S
H569 C574 0.949 . S
H570 C576 0.950 . S
H571 C577 0.950 . S
H572 C578 0.950 . S
C573 H568 0.950 . S
C573 C575 1.327 1_556 S
C573 C579 1.429 . S
C574 C566 1.574 . S
C574 H569 0.949 . S
C574 C580 1.368 . S
C575 C559 1.349 1_554 S
C575 H567 0.950 . S
C575 C573 1.327 1_554 S
C576 C564 1.354 1_565 S
C576 H570 0.950 . S
C576 C577 1.327 . S
C577 H571 0.950 . S
C577 C576 1.327 . S
C577 C581 1.429 . S
C578 C561 1.573 1_545 S
C578 H572 0.950 . S
C578 C582 1.368 1_545 S
C579 C560 1.429 . S
C579 C573 1.429 . S
C579 C580 1.523 . S
C580 C561 1.368 . S
C580 C574 1.368 . S
C580 C579 1.523 . S
C581 C565 1.429 1_565 S
C581 C577 1.429 . S
C581 C582 1.523 . S
C582 C566 1.368 . S
C582 C578 1.368 1_565 S
C582 C581 1.523 . S
H583 C558 0.950 . S
H584 C560 0.950 . S
H585 C561 0.949 1_545 S
H586 C563 0.950 . S
H587 C565 0.950 . S
C588 C589 1.348 1_554 S
C588 C590 1.332 . S
C588 H613 0.950 . S
C589 C588 1.348 1_556 S
C589 C605 1.351 . S
C590 C588 1.332 . S
C590 C609 1.419 1_554 S
C590 H614 0.954 . S
C591 C608 1.574 . S
C591 C610 1.368 . S
C591 H615 0.949 . S
H592 C596 0.949 . S
C593 C594 1.349 . S
C593 C595 1.327 . S
C593 H616 0.950 . S
C594 C593 1.349 . S
C594 C606 1.349 . S
C595 C593 1.327 . S
C595 C611 1.429 . S
C595 H617 0.950 . S
C596 H592 0.949 . S
C596 C604 1.574 . S
C596 C612 1.368 . S
H597 C605 0.950 . S
H598 C603 0.950 . S
H599 C604 0.949 . S
H600 C606 0.950 . S
H601 C607 0.950 . S
H602 C608 0.949 . S
C603 H598 0.950 . S
C603 C605 1.327 . S
C603 C609 1.429 . S
C604 C596 1.574 . S
C604 H599 0.949 . S
C604 C610 1.368 . S
C605 C589 1.351 . S
C605 H597 0.950 . S
C605 C603 1.327 . S
C606 C594 1.349 . S
C606 H600 0.950 . S
C606 C607 1.327 . S
C607 H601 0.950 . S
C607 C606 1.327 . S
C607 C611 1.429 . S
C608 C591 1.574 . S
C608 H602 0.949 . S
C608 C612 1.368 . S
C609 C590 1.419 1_556 S
C609 C603 1.429 . S
C609 C610 1.523 . S
C610 C591 1.368 . S
C610 C604 1.368 . S
C610 C609 1.523 . S
C611 C595 1.429 . S
C611 C607 1.429 . S
C611 C612 1.523 . S
C612 C596 1.368 . S
C612 C608 1.368 . S
C612 C611 1.523 . S
H613 C588 0.950 . S
H614 C590 0.954 . S
H615 C591 0.949 . S
H616 C593 0.950 . S
H617 C595 0.950 . S
C618 C619 1.349 . S
C618 C620 1.327 . S
C618 H643 0.950 . S
C619 C618 1.349 . S
C619 C635 1.349 1_556 S
C620 C618 1.327 . S
C620 C639 1.429 . S
C620 H644 0.950 . S
C621 C638 1.574 . S
C621 C640 1.368 . S
C621 H645 0.949 . S
H622 C626 0.949 . S
C623 C624 1.349 . S
C623 C625 1.327 . S
C623 H646 0.950 . S
C624 C623 1.349 . S
C624 C636 1.349 . S
C625 C623 1.327 . S
C625 C641 1.429 . S
C625 H647 0.950 . S
C626 H622 0.949 . S
C626 C634 1.574 . S
C626 C642 1.368 . S
H627 C635 0.950 . S
H628 C633 0.950 1_554 S
H629 C634 0.949 . S
H630 C636 0.950 . S
H631 C637 0.950 . S
H632 C638 0.949 . S
C633 H628 0.950 1_556 S
C633 C635 1.327 1_556 S
C633 C639 1.429 . S
C634 C626 1.574 . S
C634 H629 0.949 . S
C634 C640 1.368 . S
C635 C619 1.349 1_554 S
C635 H627 0.950 . S
C635 C633 1.327 1_554 S
C636 C624 1.349 . S
C636 H630 0.950 . S
C636 C637 1.327 . S
C637 H631 0.950 . S
C637 C636 1.327 . S
C637 C641 1.429 . S
C638 C621 1.574 . S
C638 H632 0.949 . S
C638 C642 1.368 . S
C639 C620 1.429 . S
C639 C633 1.429 . S
C639 C640 1.523 . S
C640 C621 1.368 . S
C640 C634 1.368 . S
C640 C639 1.523 . S
C641 C625 1.429 . S
C641 C637 1.429 . S
C641 C642 1.523 . S
C642 C626 1.368 . S
C642 C638 1.368 . S
C642 C641 1.523 . S
H643 C618 0.950 . S
H644 C620 0.950 . S
H645 C621 0.949 . S
H646 C623 0.950 . S
H647 C625 0.950 . S
C648 C649 1.349 . S
C648 C650 1.327 . S
C648 H673 0.950 . S
C649 C648 1.349 . S
C649 C665 1.349 . S
C650 C648 1.327 . S
C650 C669 1.429 . S
C650 H674 0.950 . S
C651 C668 1.574 . S
C651 C670 1.368 . S
C651 H675 0.949 . S
H652 C656 0.949 . S
C653 C654 1.349 . S
C653 C655 1.327 . S
C653 H676 0.950 . S
C654 C653 1.349 . S
C654 C666 1.349 . S
C655 C653 1.327 . S
C655 C671 1.429 . S
C655 H677 0.950 1_556 S
C656 H652 0.949 . S
C656 C664 1.574 1_556 S
C656 C672 1.368 . S
H657 C665 0.950 . S
H658 C663 0.950 . S
H659 C664 0.949 . S
H660 C666 0.950 . S
H661 C667 0.950 . S
H662 C668 0.949 . S
C663 H658 0.950 . S
C663 C665 1.327 . S
C663 C669 1.429 . S
C664 C656 1.574 1_554 S
C664 H659 0.949 . S
C664 C670 1.368 . S
C665 C649 1.349 . S
C665 H657 0.950 . S
C665 C663 1.327 . S
C666 C654 1.349 . S
C666 H660 0.950 . S
C666 C667 1.327 . S
C667 H661 0.950 . S
C667 C666 1.327 . S
C667 C671 1.429 . S
C668 C651 1.574 . S
C668 H662 0.949 . S
C668 C672 1.368 1_554 S
C669 C650 1.429 . S
C669 C663 1.429 . S
C669 C670 1.523 . S
C670 C651 1.368 . S
C670 C664 1.368 . S
C670 C669 1.523 . S
C671 C655 1.429 . S
C671 C667 1.429 . S
C671 C672 1.523 . S
C672 C656 1.368 . S
C672 C668 1.368 1_556 S
C672 C671 1.523 . S
H673 C648 0.950 . S
H674 C650 0.950 . S
H675 C651 0.949 . S
H676 C653 0.950 . S
H677 C655 0.950 1_554 S
C678 C679 1.349 . S
C678 C680 1.327 . S
C678 H703 0.950 . S
C679 C678 1.349 . S
C679 C695 1.349 . S
C680 C678 1.327 . S
C680 C699 1.429 . S
C680 H704 0.950 . S
C681 C698 1.574 . S
C681 C700 1.368 . S
C681 H705 0.949 . S
H682 C686 0.949 . S
C683 C684 1.349 . S
C683 C685 1.327 . S
C683 H706 0.950 . S
C684 C683 1.349 . S
C684 C696 1.349 . S
C685 C683 1.327 . S
C685 C701 1.429 . S
C685 H707 0.950 . S
C686 H682 0.949 . S
C686 C694 1.574 1_556 S
C686 C702 1.368 . S
H687 C695 0.950 . S
H688 C693 0.950 . S
H689 C694 0.949 . S
H690 C696 0.950 1_565 S
H691 C697 0.924 1_565 S
H692 C698 0.949 . S
C693 H688 0.950 . S
C693 C695 1.327 . S
C693 C699 1.429 . S
C694 C686 1.574 1_554 S
C694 H689 0.949 . S
C694 C700 1.368 . S
C695 C679 1.349 . S
C695 H687 0.950 . S
C695 C693 1.327 . S
C696 C684 1.349 . S
C696 H690 0.950 1_545 S
C696 C697 1.327 . S
C697 H691 0.924 1_545 S
C697 C696 1.327 . S
C697 C701 1.429 . S
C698 C681 1.574 . S
C698 H692 0.949 . S
C698 C702 1.368 1_554 S
C699 C680 1.429 . S
C699 C693 1.429 . S
C699 C700 1.523 . S
C700 C681 1.368 . S
C700 C694 1.368 . S
C700 C699 1.523 . S
C701 C685 1.429 . S
C701 C697 1.429 . S
C701 C702 1.523 . S
C702 C686 1.368 . S
C702 C698 1.368 1_556 S
C702 C701 1.523 . S
H703 C678 0.950 . S
H704 C680 0.950 . S
H705 C681 0.949 . S
H706 C683 0.950 . S
H707 C685 0.950 . S
C708 C709 1.349 . S
C708 C710 1.327 . S
C708 H733 0.950 . S
C709 C708 1.349 . S
C709 C725 1.349 . S
C710 C708 1.327 . S
C710 C729 1.429 . S
C710 H734 0.950 . S
C711 C728 1.574 . S
C711 C730 1.368 1_556 S
C711 H735 0.949 . S
H712 C716 0.949 . S
C713 C714 1.349 . S
C713 C715 1.327 . S
C713 H736 0.950 . S
C714 C713 1.349 . S
C714 C726 1.349 . S
C715 C713 1.327 . S
C715 C731 1.429 . S
C715 H737 0.950 . S
C716 H712 0.949 . S
C716 C724 1.574 . S
C716 C732 1.368 1_554 S
H717 C725 0.950 . S
H718 C723 0.950 . S
H719 C724 0.949 . S
H720 C726 0.950 . S
H721 C727 0.950 . S
H722 C728 0.949 . S
C723 H718 0.950 . S
C723 C725 1.327 . S
C723 C729 1.429 . S
C724 C716 1.574 . S
C724 H719 0.949 . S
C724 C730 1.368 . S
C725 C709 1.349 . S
C725 H717 0.950 . S
C725 C723 1.327 . S
C726 C714 1.349 . S
C726 H720 0.950 . S
C726 C727 1.327 . S
C727 H721 0.950 . S
C727 C726 1.327 . S
C727 C731 1.429 . S
C728 C711 1.574 . S
C728 H722 0.949 . S
C728 C732 1.368 . S
C729 C710 1.429 . S
C729 C723 1.429 . S
C729 C730 1.523 . S
C730 C711 1.368 1_554 S
C730 C724 1.368 . S
C730 C729 1.523 . S
C731 C715 1.429 . S
C731 C727 1.429 . S
C731 C732 1.523 . S
C732 C716 1.368 1_556 S
C732 C728 1.368 . S
C732 C731 1.523 . S
H733 C708 0.950 . S
H734 C710 0.950 . S
H735 C711 0.949 . S
H736 C713 0.950 . S
H737 C715 0.950 . S
C738 C739 1.349 . S
C738 C740 1.327 . S
C738 H763 0.950 . S
C739 C738 1.349 . S
C739 C755 1.349 . S
C740 C738 1.327 . S
C740 C759 1.429 . S
C740 H764 0.950 . S
C741 C758 1.574 . S
C741 C760 1.368 . S
C741 H765 0.949 . S
H742 C746 0.949 . S
C743 C744 1.349 . S
C743 C745 1.327 . S
C743 H766 0.950 . S
C744 C743 1.349 . S
C744 C756 1.349 . S
C745 C743 1.327 . S
C745 C761 1.429 . S
C745 H767 0.950 . S
C746 H742 0.949 . S
C746 C754 1.574 . S
C746 C762 1.368 . S
H747 C755 0.950 . S
H748 C753 0.950 . S
H749 C754 0.949 . S
H750 C756 0.950 . S
H751 C757 0.950 . S
H752 C758 0.949 . S
C753 H748 0.950 . S
C753 C755 1.327 . S
C753 C759 1.429 . S
C754 C746 1.574 . S
C754 H749 0.949 . S
C754 C760 1.368 1_556 S
C755 C739 1.349 . S
C755 H747 0.950 . S
C755 C753 1.327 . S
C756 C744 1.349 . S
C756 H750 0.950 . S
C756 C757 1.327 . S
C757 H751 0.950 . S
C757 C756 1.327 . S
C757 C761 1.429 . S
C758 C741 1.574 . S
C758 H752 0.949 . S
C758 C762 1.368 1_554 S
C759 C740 1.429 . S
C759 C753 1.429 . S
C759 C760 1.523 . S
C760 C741 1.368 . S
C760 C754 1.368 1_554 S
C760 C759 1.523 . S
C761 C745 1.429 . S
C761 C757 1.429 . S
C761 C762 1.523 . S
C762 C746 1.368 . S
C762 C758 1.368 1_556 S
C762 C761 1.523 . S
H763 C738 0.950 . S
H764 C740 0.950 . S
H765 C741 0.949 . S
H766 C743 0.950 . S
H767 C745 0.950 . S
C768 C769 1.349 . S
C768 C770 1.327 . S
C768 H793 0.950 . S
C769 C768 1.349 . S
C769 C785 1.349 . S
C770 C768 1.327 . S
C770 C789 1.429 . S
C770 H794 0.950 . S
C771 C788 1.574 . S
C771 C790 1.368 . S
C771 H795 0.949 . S
H772 C776 0.949 . S
C773 C774 1.349 . S
C773 C775 1.327 . S
C773 H796 0.950 1_655 S
C774 C773 1.349 . S
C774 C786 1.349 . S
C775 C773 1.327 . S
C775 C791 1.429 . S
C775 H797 0.950 . S
C776 H772 0.949 . S
C776 C784 1.574 . S
C776 C792 1.368 . S
H777 C785 0.950 . S
H778 C783 0.950 . S
H779 C784 0.949 . S
H780 C786 0.950 . S
H781 C787 0.950 . S
H782 C788 0.949 . S
C783 H778 0.950 . S
C783 C785 1.327 . S
C783 C789 1.429 . S
C784 C776 1.574 . S
C784 H779 0.949 . S
C784 C790 1.368 . S
C785 C769 1.349 . S
C785 H777 0.950 . S
C785 C783 1.327 . S
C786 C774 1.349 . S
C786 H780 0.950 . S
C786 C787 1.327 . S
C787 H781 0.950 . S
C787 C786 1.327 . S
C787 C791 1.429 . S
C788 C771 1.574 . S
C788 H782 0.949 . S
C788 C792 1.368 . S
C789 C770 1.429 . S
C789 C783 1.429 . S
C789 C790 1.523 . S
C790 C771 1.368 . S
C790 C784 1.368 . S
C790 C789 1.523 . S
C791 C775 1.429 . S
C791 C787 1.429 . S
C791 C792 1.523 . S
C792 C776 1.368 . S
C792 C788 1.368 . S
C792 C791 1.523 . S
H793 C768 0.950 . S
H794 C770 0.950 . S
H795 C771 0.949 . S
H796 C773 0.950 1_455 S
H797 C775 0.950 . S
C798 C799 1.349 . S
C798 C800 1.327 . S
C798 H823 0.950 . S
C799 C798 1.349 . S
C799 C815 1.349 . S
C800 C798 1.327 . S
C800 C819 1.429 . S
C800 H824 0.950 . S
C801 C818 1.574 . S
C801 C820 1.368 . S
C801 H825 0.949 . S
H802 C806 0.949 . S
C803 C804 1.349 . S
C803 C805 1.327 . S
C803 H826 0.950 . S
C804 C803 1.349 . S
C804 C816 1.349 . S
C805 C803 1.327 . S
C805 C821 1.429 . S
C805 H827 0.950 . S
C806 H802 0.949 . S
C806 C814 1.574 . S
C806 C822 1.368 . S
H807 C815 0.950 . S
H808 C813 0.950 . S
H809 C814 0.949 . S
H810 C816 0.950 . S
H811 C817 0.950 . S
H812 C818 0.949 . S
C813 H808 0.950 . S
C813 C815 1.327 . S
C813 C819 1.429 . S
C814 C806 1.574 . S
C814 H809 0.949 . S
C814 C820 1.368 . S
C815 C799 1.349 . S
C815 H807 0.950 . S
C815 C813 1.327 . S
C816 C804 1.349 . S
C816 H810 0.950 . S
C816 C817 1.327 . S
C817 H811 0.950 . S
C817 C816 1.327 . S
C817 C821 1.429 . S
C818 C801 1.574 . S
C818 H812 0.949 . S
C818 C822 1.368 . S
C819 C800 1.429 . S
C819 C813 1.429 . S
C819 C820 1.523 . S
C820 C801 1.368 . S
C820 C814 1.368 . S
C820 C819 1.523 . S
C821 C805 1.429 . S
C821 C817 1.429 . S
C821 C822 1.523 . S
C822 C806 1.368 . S
C822 C818 1.368 . S
C822 C821 1.523 . S
H823 C798 0.950 . S
H824 C800 0.950 . S
H825 C801 0.949 . S
H826 C803 0.950 . S
H827 C805 0.950 . S
C828 C829 1.349 . S
C828 C830 1.327 . S
C828 H853 0.950 . S
C829 C828 1.349 . S
C829 C845 1.349 . S
C830 C828 1.327 . S
C830 C849 1.429 . S
C830 H854 0.950 . S
C831 C848 1.574 . S
C831 C850 1.368 . S
C831 H855 0.949 . S
H832 C836 0.949 . S
C833 C834 1.349 . S
C833 C835 1.327 . S
C833 H856 0.950 . S
C834 C833 1.349 . S
C834 C846 1.349 . S
C835 C833 1.327 . S
C835 C851 1.429 . S
C835 H857 0.950 . S
C836 H832 0.949 . S
C836 C844 1.574 . S
C836 C852 1.368 . S
H837 C845 0.950 . S
H838 C843 0.950 . S
H839 C844 0.949 . S
H840 C846 0.950 . S
H841 C847 0.950 . S
H842 C848 0.949 . S
C843 H838 0.950 . S
C843 C845 1.327 . S
C843 C849 1.429 . S
C844 C836 1.574 . S
C844 H839 0.949 . S
C844 C850 1.368 . S
C845 C829 1.349 . S
C845 H837 0.950 . S
C845 C843 1.327 . S
C846 C834 1.349 . S
C846 H840 0.950 . S
C846 C847 1.327 . S
C847 H841 0.950 . S
C847 C846 1.327 . S
C847 C851 1.429 . S
C848 C831 1.574 . S
C848 H842 0.949 . S
C848 C852 1.368 . S
C849 C830 1.429 . S
C849 C843 1.429 . S
C849 C850 1.523 . S
C850 C831 1.368 . S
C850 C844 1.368 . S
C850 C849 1.523 . S
C851 C835 1.429 . S
C851 C847 1.429 . S
C851 C852 1.523 . S
C852 C836 1.368 . S
C852 C848 1.368 . S
C852 C851 1.523 . S
H853 C828 0.950 . S
H854 C830 0.950 . S
H855 C831 0.949 . S
H856 C833 0.950 . S
H857 C835 0.950 . S
C858 C859 1.349 . S
C858 C860 1.327 . S
C858 H883 0.950 . S
C859 C858 1.349 . S
C859 C875 1.349 . S
C860 C858 1.327 . S
C860 C879 1.429 . S
C860 H884 0.950 . S
C861 C878 1.574 . S
C861 C880 1.368 . S
C861 H885 0.949 . S
H862 C866 0.949 . S
C863 C864 1.349 . S
C863 C865 1.327 . S
C863 H886 0.950 . S
C864 C863 1.349 . S
C864 C876 1.349 . S
C865 C863 1.327 . S
C865 C881 1.429 . S
C865 H887 0.950 . S
C866 H862 0.949 . S
C866 C874 1.574 . S
C866 C882 1.368 . S
H867 C875 0.950 . S
H868 C873 0.950 . S
H869 C874 0.949 . S
H870 C876 0.950 . S
H871 C877 0.950 . S
H872 C878 0.949 . S
C873 H868 0.950 . S
C873 C875 1.327 . S
C873 C879 1.429 . S
C874 C866 1.574 . S
C874 H869 0.949 . S
C874 C880 1.368 . S
C875 C859 1.349 . S
C875 H867 0.950 . S
C875 C873 1.327 . S
C876 C864 1.349 . S
C876 H870 0.950 . S
C876 C877 1.327 . S
C877 H871 0.950 . S
C877 C876 1.327 . S
C877 C881 1.429 . S
C878 C861 1.574 . S
C878 H872 0.949 . S
C878 C882 1.368 . S
C879 C860 1.429 . S
C879 C873 1.429 . S
C879 C880 1.523 . S
C880 C861 1.368 . S
C880 C874 1.368 . S
C880 C879 1.523 . S
C881 C865 1.429 . S
C881 C877 1.429 . S
C881 C882 1.523 . S
C882 C866 1.368 . S
C882 C878 1.368 . S
C882 C881 1.523 . S
H883 C858 0.950 . S
H884 C860 0.950 . S
H885 C861 0.949 . S
H886 C863 0.950 . S
H887 C865 0.950 . S
C169 C74 1.575 . S
C174 C89 1.576 . S
C204 C124 1.666 . S
C199 C85 1.661 . S
C234 C129 1.220 . S
C229 C52 1.216 . S
C264 C149 1.411 . S
C259 C63 1.410 . S
C294 C97 1.576 1_565 S
C289 C30 1.540 1_556 S
C319 C41 1.600 . S
C324 C114 1.667 . S
C349 C8 1.205 . S
C354 C137 1.220 . S
C379 C19 1.368 . S
C384 C157 1.411 1_655 S
C414 C107 1.176 . S
C409 C62 1.217 . S
C444 C116 0.840 . S
C439 C73 0.847 . S
C474 C147 1.329 . S
C469 C84 1.371 . S
C499 C51 0.907 . S
C504 C167 0.890 . S
C529 C18 1.162 . S
C534 C96 1.176 1_655 S
C564 C127 0.837 . S
C559 C29 0.834 1_556 S
C594 C136 1.329 . S
C589 C40 1.278 1_556 S
C619 C7 0.898 1_556 S
C624 C156 0.890 . S
C649 C60 1.371 . S
C654 C94 1.518 . S
C679 C71 1.266 . S
C684 C117 1.448 . S
C714 C134 1.651 . S
C709 C82 1.499 . S
C744 C154 1.604 . S
C739 C49 1.377 . S
C769 C16 1.205 . S
C774 C104 1.518 . S
C804 C109 1.446 1_565 S
C799 C27 1.129 . S
C834 C144 1.651 . S
C829 C38 1.253 . S
C859 C5 1.332 . S
C864 C164 1.603 . S
