# Generated by pormake.
# Topology zzz, (3,6)-cn, num edge types: 1
# Building blocks:
#     Node 0, Type 0, BuildingBlock: OLANEW_clean_sbu_2, # of connection points: 3
#     Node 1, Type 0, BuildingBlock: OLANEW_clean_sbu_2, # of connection points: 3
#     Node 2, Type 0, BuildingBlock: OLANEW_clean_sbu_2, # of connection points: 3
#     Node 3, Type 0, BuildingBlock: OLANEW_clean_sbu_2, # of connection points: 3
#     Node 4, Type 0, BuildingBlock: OLANEW_clean_sbu_2, # of connection points: 3
#     Node 5, Type 0, BuildingBlock: OLANEW_clean_sbu_2, # of connection points: 3
#     Node 6, Type 0, BuildingBlock: OLANEW_clean_sbu_2, # of connection points: 3
#     Node 7, Type 0, BuildingBlock: OLANEW_clean_sbu_2, # of connection points: 3
#     Node 8, Type 1, BuildingBlock: MIFKUJ_clean_sbu_0, # of connection points: 6
#     Node 9, Type 1, BuildingBlock: MIFKUJ_clean_sbu_0, # of connection points: 6
#     Node 10, Type 1, BuildingBlock: MIFKUJ_clean_sbu_0, # of connection points: 6
#     Node 11, Type 1, BuildingBlock: MIFKUJ_clean_sbu_0, # of connection points: 6
#     Edge 12, Type (0, 1), BuildingBlock: KIFKEQ_clean_linker_1, # of connection points: 2
#     Edge 13, Type (0, 1), BuildingBlock: KIFKEQ_clean_linker_1, # of connection points: 2
#     Edge 14, Type (0, 1), BuildingBlock: KIFKEQ_clean_linker_1, # of connection points: 2
#     Edge 15, Type (0, 1), BuildingBlock: KIFKEQ_clean_linker_1, # of connection points: 2
#     Edge 16, Type (0, 1), BuildingBlock: KIFKEQ_clean_linker_1, # of connection points: 2
#     Edge 17, Type (0, 1), BuildingBlock: KIFKEQ_clean_linker_1, # of connection points: 2
#     Edge 18, Type (0, 1), BuildingBlock: KIFKEQ_clean_linker_1, # of connection points: 2
#     Edge 19, Type (0, 1), BuildingBlock: KIFKEQ_clean_linker_1, # of connection points: 2
#     Edge 20, Type (0, 1), BuildingBlock: KIFKEQ_clean_linker_1, # of connection points: 2
#     Edge 21, Type (0, 1), BuildingBlock: KIFKEQ_clean_linker_1, # of connection points: 2
#     Edge 22, Type (0, 1), BuildingBlock: KIFKEQ_clean_linker_1, # of connection points: 2
#     Edge 23, Type (0, 1), BuildingBlock: KIFKEQ_clean_linker_1, # of connection points: 2
#     Edge 24, Type (0, 1), BuildingBlock: KIFKEQ_clean_linker_1, # of connection points: 2
#     Edge 25, Type (0, 1), BuildingBlock: KIFKEQ_clean_linker_1, # of connection points: 2
#     Edge 26, Type (0, 1), BuildingBlock: KIFKEQ_clean_linker_1, # of connection points: 2
#     Edge 27, Type (0, 1), BuildingBlock: KIFKEQ_clean_linker_1, # of connection points: 2
#     Edge 28, Type (0, 1), BuildingBlock: KIFKEQ_clean_linker_1, # of connection points: 2
#     Edge 29, Type (0, 1), BuildingBlock: KIFKEQ_clean_linker_1, # of connection points: 2
#     Edge 30, Type (0, 1), BuildingBlock: KIFKEQ_clean_linker_1, # of connection points: 2
#     Edge 31, Type (0, 1), BuildingBlock: KIFKEQ_clean_linker_1, # of connection points: 2
#     Edge 32, Type (0, 1), BuildingBlock: KIFKEQ_clean_linker_1, # of connection points: 2
#     Edge 33, Type (0, 1), BuildingBlock: KIFKEQ_clean_linker_1, # of connection points: 2
#     Edge 34, Type (0, 1), BuildingBlock: KIFKEQ_clean_linker_1, # of connection points: 2
#     Edge 35, Type (0, 1), BuildingBlock: KIFKEQ_clean_linker_1, # of connection points: 2
# Relax obj value: 0.118
# Max RMSD: 0.126
# Mean RMSD: 0.092
data_MOF--net-zzz--node1-OLANEW_clean_sbu_2--node2-MIFKUJ_clean_sbu_0--edge1-KIFKEQ_clean_linker_1
_symmetry_space_group_name_H-M    P1
_symmetry_Int_Tables_number       1
_symmetry_cell_setting            triclinic
loop_
_symmetry_equiv_pos_as_xyz
'x, y, z'
_cell_length_a     53.85754
_cell_length_b     54.561462
_cell_length_c     18.023065
_cell_angle_alpha  89.898495
_cell_angle_beta   89.974172
_cell_angle_gamma 89.985647
loop_
_atom_site_label
_atom_site_type_symbol
_atom_site_fract_x
_atom_site_fract_y
_atom_site_fract_z
_atom_type_partial_charge
O0 O 0.76222 0.59741 0.91937 0.0
Cd1 Cd 0.72225 0.61541 0.95262 0.0
O2 O 0.77057 0.59278 0.03757 0.0
Cd3 Cd 0.79544 0.58436 0.12988 0.0
O4 O 0.8208 0.5722 0.21658 0.0
C5 C 0.84417 0.57202 0.20672 0.0
O6 O 0.85327 0.57963 0.14306 0.0
C7 C 0.77697 0.59032 0.97006 0.0
C8 C 0.6826 0.59175 0.88396 0.0
O9 O 0.69363 0.60979 0.85242 0.0
O10 O 0.69042 0.58486 0.94785 0.0
O11 O 0.94643 0.7873 0.86953 0.0
Cd12 Cd 0.92487 0.74877 0.8919 0.0
O13 O 0.97147 0.77884 0.96211 0.0
Cd14 Cd 0.99793 0.79208 0.04414 0.0
O15 O 0.01146 0.81884 0.12373 0.0
C16 C 0.00157 0.83998 0.12083 0.0
O17 O 0.98457 0.84432 0.07024 0.0
C18 C 0.96449 0.79333 0.91093 0.0
C19 C 0.95334 0.70803 0.85498 0.0
O20 O 0.93895 0.71816 0.80729 0.0
O21 O 0.95444 0.71737 0.92012 0.0
O22 O 0.7386 0.90639 0.93032 0.0
Cd23 Cd 0.77831 0.88921 0.96946 0.0
O24 O 0.73628 0.92768 0.03331 0.0
Cd25 Cd 0.71485 0.95047 0.10936 0.0
O26 O 0.68825 0.96762 0.18406 0.0
C27 C 0.66508 0.96441 0.17476 0.0
O28 O 0.6574 0.95107 0.11864 0.0
C29 C 0.7271 0.9216 0.97108 0.0
C30 C 0.81784 0.91351 0.90193 0.0
O31 O 0.80757 0.89498 0.87093 0.0
O32 O 0.80943 0.92049 0.96501 0.0
O33 O 0.52516 0.72751 0.9159 0.0
Cd34 Cd 0.53805 0.76639 0.96906 0.0
O35 O 0.49037 0.73305 0.97659 0.0
Cd36 Cd 0.45812 0.71705 0.03084 0.0
O37 O 0.45051 0.68595 0.10241 0.0
C38 C 0.47013 0.67568 0.12628 0.0
O39 O 0.49177 0.68454 0.10589 0.0
C40 C 0.504 0.71962 0.93584 0.0
C41 C 0.5253 0.80736 0.88588 0.0
O42 O 0.54676 0.79741 0.87936 0.0
O43 O 0.50966 0.79754 0.93056 0.0
O44 O 0.22524 0.46543 0.20399 0.0
Cd45 Cd 0.26313 0.45905 0.13291 0.0
O46 O 0.22899 0.42929 0.25687 0.0
Cd47 Cd 0.24826 0.41731 0.15722 0.0
O48 O 0.22423 0.42417 0.06188 0.0
C49 C 0.20143 0.41962 0.07426 0.0
O50 O 0.19527 0.40932 0.13761 0.0
C51 C 0.21863 0.45023 0.25383 0.0
C52 C 0.303 0.46601 0.22913 0.0
O53 O 0.29497 0.48353 0.18818 0.0
O54 O 0.29254 0.44501 0.22331 0.0
O55 O 0.89749 0.24161 0.37161 0.0
Cd56 Cd 0.88098 0.28188 0.34029 0.0
O57 O 0.91796 0.24158 0.26628 0.0
Cd58 Cd 0.94059 0.22307 0.18237 0.0
O59 O 0.95724 0.19629 0.1075 0.0
C60 C 0.95355 0.17375 0.12158 0.0
O61 O 0.94044 0.16782 0.18044 0.0
C62 C 0.91245 0.23115 0.32731 0.0
C63 C 0.90646 0.31802 0.41819 0.0
O64 O 0.88612 0.30911 0.44346 0.0
O65 O 0.91455 0.30998 0.35593 0.0
O66 O 0.27329 0.04572 0.22984 0.0
Cd67 Cd 0.23646 0.04914 0.15242 0.0
O68 O 0.27328 0.08533 0.25177 0.0
Cd69 Cd 0.25449 0.09101 0.14642 0.0
O70 O 0.27977 0.08223 0.05565 0.0
C71 C 0.30226 0.08766 0.06956 0.0
O72 O 0.30734 0.09939 0.13132 0.0
C73 C 0.28152 0.06399 0.26598 0.0
C74 C 0.19551 0.04211 0.24432 0.0
O75 O 0.20469 0.02431 0.20691 0.0
O76 O 0.20531 0.06336 0.23676 0.0
O77 O 0.61237 0.27478 0.35153 0.0
Cd78 Cd 0.62971 0.23491 0.32082 0.0
O79 O 0.58977 0.27251 0.25049 0.0
Cd80 Cd 0.5644 0.28897 0.16964 0.0
O81 O 0.54597 0.3151 0.09622 0.0
C82 C 0.54909 0.33774 0.10994 0.0
O83 O 0.56257 0.34401 0.16759 0.0
C84 C 0.59587 0.28386 0.30933 0.0
C85 C 0.60347 0.19929 0.39878 0.0
O86 O 0.62389 0.20789 0.42433 0.0
O87 O 0.5958 0.20721 0.33585 0.0
Zn88 Zn 0.99172 0.02873 0.58183 0.0
Zn89 Zn 0.01927 0.98811 0.66179 0.0
C90 C 0.9771 0.05464 0.70732 0.0
O91 O 0.95595 0.04988 0.674 0.0
C92 C 0.03075 0.95867 0.53809 0.0
O93 O 0.05266 0.96035 0.56971 0.0
O94 O 0.97552 0.054 0.51667 0.0
O95 O 0.024 0.02032 0.53283 0.0
O96 O 0.04518 0.01357 0.63523 0.0
C97 C 0.98818 0.0735 0.50884 0.0
O98 O 0.01036 0.0746 0.53902 0.0
O99 O 0.99715 0.0469 0.67833 0.0
C100 C 0.02573 0.96083 0.79662 0.0
O101 O 0.01443 0.97988 0.82562 0.0
O102 O 0.03282 0.96192 0.72941 0.0
O103 O 0.98643 0.99722 0.70785 0.0
O104 O 0.96752 0.00124 0.60103 0.0
O105 O 0.0124 0.96964 0.56749 0.0
C106 C 0.04464 0.01938 0.56681 0.0
C107 C 0.9671 0.99445 0.66845 0.0
Zn108 Zn 0.47634 0.02099 0.64373 0.0
Zn109 Zn 0.52759 0.0181 0.72015 0.0
C110 C 0.44023 0.01819 0.75549 0.0
O111 O 0.43514 0.99855 0.71623 0.0
C112 C 0.55543 0.02132 0.5899 0.0
O113 O 0.56503 0.03861 0.63167 0.0
O114 O 0.44861 0.02256 0.56966 0.0
O115 O 0.5003 0.04753 0.61258 0.0
O116 O 0.51991 0.05408 0.71791 0.0
C117 C 0.4362 0.04237 0.57225 0.0
O118 O 0.44338 0.05979 0.61768 0.0
O119 O 0.45934 0.03073 0.7388 0.0
C120 C 0.56762 0.98978 0.76346 0.0
O121 O 0.55609 0.9761 0.71447 0.0
O122 O 0.55862 0.01071 0.77936 0.0
O123 O 0.50198 0.99547 0.76192 0.0
O124 O 0.48794 0.98584 0.65212 0.0
O125 O 0.53721 0.00897 0.61492 0.0
C126 C 0.51309 0.0615 0.65416 0.0
C127 C 0.49449 0.97929 0.71681 0.0
Zn128 Zn 0.50615 0.48107 0.56858 0.0
Zn129 Zn 0.47721 0.51981 0.65093 0.0
C130 C 0.52164 0.4557 0.69454 0.0
O131 O 0.54265 0.46091 0.66092 0.0
C132 C 0.46222 0.55024 0.53458 0.0
O133 O 0.44152 0.54773 0.57248 0.0
O134 O 0.52313 0.45645 0.50339 0.0
O135 O 0.47367 0.48852 0.52012 0.0
O136 O 0.45264 0.49308 0.62377 0.0
C137 C 0.51166 0.43621 0.49708 0.0
O138 O 0.48985 0.43382 0.52902 0.0
O139 O 0.50139 0.46289 0.66552 0.0
C140 C 0.46964 0.54678 0.7869 0.0
O141 O 0.48369 0.52949 0.81549 0.0
O142 O 0.46215 0.54459 0.72039 0.0
O143 O 0.5111 0.5129 0.69429 0.0
O144 O 0.52948 0.50925 0.58644 0.0
O145 O 0.48167 0.53932 0.55717 0.0
C146 C 0.45312 0.4882 0.55471 0.0
C147 C 0.53018 0.51593 0.65384 0.0
Zn148 Zn 0.02991 0.49937 0.65184 0.0
Zn149 Zn 0.98201 0.50312 0.74342 0.0
C150 C 0.0688 0.49657 0.75485 0.0
O151 O 0.07479 0.51643 0.71753 0.0
C152 C 0.94989 0.50579 0.62228 0.0
O153 O 0.94026 0.48805 0.66243 0.0
O154 O 0.05581 0.49878 0.57224 0.0
O155 O 0.00372 0.47529 0.61984 0.0
O156 O 0.98792 0.46694 0.72967 0.0
C157 C 0.06423 0.47761 0.55723 0.0
O158 O 0.05434 0.45842 0.59003 0.0
O159 O 0.04837 0.48597 0.74021 0.0
C160 C 0.9456 0.53132 0.81005 0.0
O161 O 0.95856 0.54724 0.77142 0.0
O162 O 0.95249 0.50901 0.81033 0.0
O163 O 0.0096 0.52436 0.78264 0.0
O164 O 0.02031 0.53451 0.66988 0.0
O165 O 0.96978 0.51596 0.64455 0.0
C166 C 0.99218 0.46072 0.66288 0.0
C167 C 0.01639 0.54069 0.73672 0.0
H168 H 0.17842 0.07289 0.35242 0.0
H169 H 0.16501 0.00226 0.25192 0.0
H170 H 0.1431 0.06642 0.43565 0.0
H171 H 0.12964 0.996 0.33464 0.0
H172 H 0.05016 0.0136 0.41847 0.0
H173 H 0.08766 0.01829 0.34469 0.0
H174 H 0.12915 0.0362 0.54214 0.0
H175 H 0.09132 0.0312 0.61714 0.0
C176 C 0.16796 0.056 0.34814 0.0
C177 C 0.17437 0.03815 0.29527 0.0
C178 C 0.14791 0.05224 0.39618 0.0
C179 C 0.13371 0.03073 0.39143 0.0
C180 C 0.14025 0.0128 0.33911 0.0
C181 C 0.16049 0.01639 0.29186 0.0
C182 C 0.06723 0.01857 0.44642 0.0
C183 C 0.06779 0.02218 0.52363 0.0
C184 C 0.08873 0.02106 0.40412 0.0
C185 C 0.11125 0.02754 0.43778 0.0
C186 C 0.11193 0.03126 0.51496 0.0
C187 C 0.09039 0.02833 0.55776 0.0
H188 H 0.61882 0.17163 0.51674 0.0
H189 H 0.55544 0.18558 0.3761 0.0
H190 H 0.59542 0.14013 0.58262 0.0
H191 H 0.53166 0.15494 0.44383 0.0
H192 H 0.54172 0.09634 0.72335 0.0
H193 H 0.5621 0.13161 0.66602 0.0
H194 H 0.52997 0.11205 0.45446 0.0
H195 H 0.50897 0.07774 0.5119 0.0
C196 C 0.59979 0.16814 0.50047 0.0
C197 C 0.58905 0.18087 0.44075 0.0
C198 C 0.58628 0.15024 0.53866 0.0
C199 C 0.56164 0.14488 0.51846 0.0
C200 C 0.55074 0.15819 0.45998 0.0
C201 C 0.56434 0.17583 0.42125 0.0
C202 C 0.53876 0.09984 0.66485 0.0
C203 C 0.52372 0.08421 0.62229 0.0
C204 C 0.5506 0.11993 0.63181 0.0
C205 C 0.54779 0.12467 0.55546 0.0
C206 C 0.53227 0.1093 0.51357 0.0
C207 C 0.5203 0.08945 0.54659 0.0
H208 H 0.31897 0.4354 0.33972 0.0
H209 H 0.3337 0.50567 0.23775 0.0
H210 H 0.35396 0.44165 0.42422 0.0
H211 H 0.36864 0.51175 0.32187 0.0
H212 H 0.44753 0.49406 0.40638 0.0
H213 H 0.41009 0.48948 0.3328 0.0
H214 H 0.36858 0.47117 0.5302 0.0
H215 H 0.40643 0.47599 0.60513 0.0
C216 C 0.32961 0.45219 0.33547 0.0
C217 C 0.32372 0.46995 0.28163 0.0
C218 C 0.34948 0.45582 0.38424 0.0
C219 C 0.36398 0.47714 0.37938 0.0
C220 C 0.35783 0.49507 0.32641 0.0
C221 C 0.33783 0.49158 0.27833 0.0
C222 C 0.43048 0.48901 0.43445 0.0
C223 C 0.42996 0.48525 0.51165 0.0
C224 C 0.40899 0.48659 0.39221 0.0
C225 C 0.38646 0.48008 0.42584 0.0
C226 C 0.3858 0.47615 0.503 0.0
C227 C 0.40736 0.47897 0.54577 0.0
H228 H 0.89044 0.34483 0.53707 0.0
H229 H 0.95349 0.33438 0.39227 0.0
H230 H 0.91233 0.37791 0.60015 0.0
H231 H 0.97573 0.36672 0.45694 0.0
H232 H 0.99401 0.44533 0.51952 0.0
H233 H 0.97406 0.40995 0.46497 0.0
H234 H 0.94618 0.38865 0.68061 0.0
H235 H 0.96558 0.42489 0.73526 0.0
C236 C 0.90909 0.34941 0.51929 0.0
C237 C 0.92014 0.33718 0.45919 0.0
C238 C 0.92172 0.36826 0.55582 0.0
C239 C 0.94576 0.37512 0.5334 0.0
C240 C 0.95705 0.3623 0.47472 0.0
C241 C 0.94434 0.34366 0.43779 0.0
C242 C 0.98376 0.43308 0.55565 0.0
C243 C 0.98135 0.438 0.63185 0.0
C244 C 0.97243 0.41262 0.5243 0.0
C245 C 0.95855 0.39634 0.56832 0.0
C246 C 0.95649 0.40098 0.64491 0.0
C247 C 0.96774 0.42164 0.67635 0.0
H248 H 0.83819 0.90462 0.76557 0.0
H249 H 0.84512 0.95148 0.95754 0.0
H250 H 0.8736 0.92513 0.70823 0.0
H251 H 0.88035 0.97213 0.89976 0.0
H252 H 0.92287 0.98404 0.60015 0.0
H253 H 0.886 0.9654 0.6557 0.0
H254 H 0.92351 0.96171 0.8672 0.0
H255 H 0.96013 0.9805 0.81233 0.0
C256 C 0.84719 0.91936 0.79539 0.0
C257 C 0.8389 0.92635 0.86625 0.0
C258 C 0.86737 0.93121 0.7623 0.0
C259 C 0.87978 0.95022 0.79952 0.0
C260 C 0.87134 0.95736 0.87007 0.0
C261 C 0.85109 0.94559 0.90301 0.0
C262 C 0.92319 0.97935 0.65856 0.0
C263 C 0.94443 0.98378 0.70178 0.0
C264 C 0.90213 0.96856 0.69025 0.0
C265 C 0.90186 0.96212 0.76583 0.0
C266 C 0.92302 0.96676 0.80907 0.0
C267 C 0.94407 0.97742 0.77742 0.0
H268 H 0.47962 0.82813 0.86449 0.0
H269 H 0.5578 0.83913 0.82148 0.0
H270 H 0.47077 0.86906 0.81462 0.0
H271 H 0.54886 0.88009 0.77343 0.0
H272 H 0.52114 0.96009 0.83084 0.0
H273 H 0.52781 0.91706 0.86036 0.0
H274 H 0.4799 0.89598 0.67971 0.0
H275 H 0.47366 0.93943 0.64791 0.0
C276 C 0.49483 0.83912 0.84347 0.0
C277 C 0.51942 0.83053 0.84733 0.0
C278 C 0.48972 0.86241 0.81472 0.0
C279 C 0.50918 0.87754 0.7907 0.0
C280 C 0.53361 0.86863 0.79182 0.0
C281 C 0.53867 0.84523 0.8192 0.0
C282 C 0.51193 0.94638 0.79727 0.0
C283 C 0.49694 0.95314 0.73675 0.0
C284 C 0.51588 0.92178 0.81406 0.0
C285 C 0.5045 0.90341 0.77184 0.0
C286 C 0.4889 0.90997 0.7127 0.0
C287 C 0.48536 0.93472 0.69467 0.0
H288 H 0.65426 0.55447 0.93959 0.0
H289 H 0.66251 0.60135 0.74761 0.0
H290 H 0.61824 0.53513 0.88245 0.0
H291 H 0.62626 0.58219 0.69097 0.0
H292 H 0.5381 0.52933 0.79765 0.0
H293 H 0.5755 0.54682 0.85146 0.0
H294 H 0.61196 0.54292 0.63827 0.0
H295 H 0.5743 0.52565 0.58383 0.0
C296 C 0.64842 0.56063 0.88517 0.0
C297 C 0.6612 0.57951 0.84826 0.0
C298 C 0.6277 0.54963 0.8526 0.0
C299 C 0.61935 0.5572 0.78232 0.0
C300 C 0.63239 0.57579 0.74485 0.0
C301 C 0.65307 0.58686 0.77753 0.0
C302 C 0.55408 0.53213 0.76213 0.0
C303 C 0.55319 0.52611 0.68636 0.0
C304 C 0.57558 0.54202 0.79317 0.0
C305 C 0.59671 0.5462 0.74918 0.0
C306 C 0.59589 0.54013 0.67343 0.0
C307 C 0.57436 0.53013 0.64235 0.0
H308 H 0.98598 0.68276 0.94278 0.0
H309 H 0.95251 0.68255 0.72489 0.0
H310 H 0.00673 0.6441 0.91477 0.0
H311 H 0.9727 0.64373 0.69766 0.0
H312 H 0.00492 0.5599 0.87237 0.0
H313 H 0.99369 0.60203 0.9002 0.0
H314 H 0.01172 0.62313 0.67532 0.0
H315 H 0.02227 0.58072 0.64673 0.0
C316 C 0.98317 0.67455 0.88877 0.0
C317 C 0.96746 0.68563 0.83624 0.0
C318 C 0.99499 0.65236 0.87284 0.0
C319 C 0.99132 0.64077 0.80409 0.0
C320 C 0.97624 0.6523 0.75076 0.0
C321 C 0.96449 0.67449 0.7666 0.0
C322 C 0.0069 0.57358 0.82913 0.0
C323 C 0.01411 0.56687 0.75699 0.0
C324 C 0.00057 0.5978 0.84523 0.0
C325 C 0.00151 0.61591 0.78973 0.0
C326 C 0.01032 0.6095 0.7189 0.0
C327 C 0.01655 0.58523 0.70269 0.0
H328 H 0.89015 0.19386 0.40244 0.0
H329 H 0.95941 0.21489 0.30009 0.0
H330 H 0.9085 0.15479 0.43987 0.0
H331 H 0.9774 0.17548 0.33378 0.0
H332 H 0.0097 0.11834 0.49314 0.0
H333 H 0.99113 0.15559 0.44463 0.0
H334 H 0.92388 0.11585 0.39365 0.0
H335 H 0.94231 0.07849 0.44442 0.0
C336 C 0.90917 0.18992 0.38696 0.0
C337 C 0.92318 0.20712 0.34686 0.0
C338 C 0.91962 0.16748 0.40773 0.0
C339 C 0.94438 0.16191 0.38935 0.0
C340 C 0.95833 0.1792 0.34914 0.0
C341 C 0.94788 0.20162 0.32856 0.0
C342 C 0.99102 0.11744 0.47108 0.0
C343 C 0.97744 0.09546 0.47296 0.0
C344 C 0.98041 0.13882 0.4428 0.0
C345 C 0.95599 0.13874 0.41532 0.0
C346 C 0.94261 0.1166 0.41538 0.0
C347 C 0.95322 0.09516 0.44397 0.0
H348 H 0.31051 0.09951 0.32756 0.0
H349 H 0.29975 0.02104 0.3219 0.0
H350 H 0.34756 0.09394 0.40264 0.0
H351 H 0.33641 0.01548 0.39936 0.0
H352 H 0.41906 0.01363 0.459 0.0
H353 H 0.38063 0.01874 0.38903 0.0
H354 H 0.36223 0.08215 0.52169 0.0
H355 H 0.40094 0.07757 0.58944 0.0
C356 C 0.31579 0.08109 0.34357 0.0
C357 C 0.30224 0.06071 0.31866 0.0
C358 C 0.33703 0.07788 0.38681 0.0
C359 C 0.34506 0.05424 0.40673 0.0
C360 C 0.33102 0.03391 0.38379 0.0
C361 C 0.30988 0.03711 0.33997 0.0
C362 C 0.4068 0.02868 0.47293 0.0
C363 C 0.41309 0.0453 0.52924 0.0
C364 C 0.38469 0.03151 0.43332 0.0
C365 C 0.36832 0.05087 0.44977 0.0
C366 C 0.37458 0.0673 0.50668 0.0
C367 C 0.39676 0.06462 0.54569 0.0
H368 H 0.54737 0.29641 0.29024 0.0
H369 H 0.61681 0.32324 0.37755 0.0
H370 H 0.52706 0.33449 0.32557 0.0
H371 H 0.59623 0.36099 0.41684 0.0
H372 H 0.5565 0.4344 0.42521 0.0
H373 H 0.57684 0.39835 0.37279 0.0
H374 H 0.5141 0.35379 0.43762 0.0
H375 H 0.49357 0.38974 0.48769 0.0
C376 C 0.5584 0.31069 0.31567 0.0
C377 C 0.58381 0.3072 0.32923 0.0
C378 C 0.54666 0.33233 0.33727 0.0
C379 C 0.56002 0.35084 0.37391 0.0
C380 C 0.5855 0.34731 0.38749 0.0
C381 C 0.59724 0.32564 0.36564 0.0
C382 C 0.54697 0.41694 0.4275 0.0
C383 C 0.52345 0.41492 0.4607 0.0
C384 C 0.55869 0.39626 0.39795 0.0
C385 C 0.54714 0.37316 0.40121 0.0
C386 C 0.52339 0.37133 0.43311 0.0
C387 C 0.51166 0.39196 0.46227 0.0
H388 H 0.20217 0.42408 0.37355 0.0
H389 H 0.18702 0.4892 0.24431 0.0
H390 H 0.16511 0.43173 0.44752 0.0
H391 H 0.14958 0.49639 0.31662 0.0
H392 H 0.09558 0.51329 0.50623 0.0
H393 H 0.13402 0.50769 0.43672 0.0
H394 H 0.12099 0.42954 0.43097 0.0
H395 H 0.08305 0.43507 0.50223 0.0
C396 C 0.19098 0.44007 0.36111 0.0
C397 C 0.19749 0.45599 0.30299 0.0
C398 C 0.16963 0.44434 0.40307 0.0
C399 C 0.15422 0.46452 0.38742 0.0
C400 C 0.16114 0.48081 0.3306 0.0
C401 C 0.18258 0.47664 0.289 0.0
C402 C 0.10087 0.49495 0.48964 0.0
C403 C 0.08635 0.47461 0.50982 0.0
C404 C 0.12287 0.49173 0.44974 0.0
C405 C 0.1307 0.46814 0.42887 0.0
C406 C 0.1158 0.4479 0.44762 0.0
C407 C 0.09393 0.4511 0.48789 0.0
H408 H 0.94106 0.83652 0.88565 0.0
H409 H 0.01374 0.80486 0.91715 0.0
H410 H 0.9598 0.87712 0.87277 0.0
H411 H 0.0326 0.84558 0.90386 0.0
H412 H 0.04774 0.9177 0.75554 0.0
H413 H 0.03525 0.87654 0.79387 0.0
H414 H 0.9847 0.90756 0.95405 0.0
H415 H 0.99717 0.94871 0.91641 0.0
C416 C 0.96105 0.83832 0.89 0.0
C417 C 0.97597 0.8177 0.90304 0.0
C418 C 0.97174 0.86152 0.8834 0.0
C419 C 0.99762 0.86447 0.88824 0.0
C420 C 0.01261 0.84379 0.90037 0.0
C421 C 0.00184 0.82059 0.90824 0.0
C422 C 0.03449 0.91575 0.80042 0.0
C423 C 0.02322 0.93649 0.83223 0.0
C424 C 0.02738 0.89218 0.82236 0.0
C425 C 0.00872 0.88896 0.87594 0.0
C426 C 0.99888 0.90962 0.91181 0.0
C427 C 0.00619 0.93317 0.89057 0.0
H428 H 0.68972 0.89715 0.90295 0.0
H429 H 0.71069 0.96869 0.98275 0.0
H430 H 0.65037 0.9137 0.85884 0.0
H431 H 0.67177 0.98568 0.93617 0.0
H432 H 0.59022 0.00487 0.89226 0.0
H433 H 0.62797 0.988 0.94823 0.0
H434 H 0.63561 0.93832 0.76283 0.0
H435 H 0.59762 0.95424 0.70966 0.0
C436 C 0.68584 0.91646 0.91084 0.0
C437 C 0.70304 0.93161 0.94672 0.0
C438 C 0.66339 0.92603 0.88522 0.0
C439 C 0.65789 0.95114 0.89323 0.0
C440 C 0.67512 0.96623 0.92998 0.0
C441 C 0.69744 0.95652 0.95664 0.0
C442 C 0.60005 0.99033 0.86383 0.0
C443 C 0.59091 0.98076 0.79695 0.0
C444 C 0.62172 0.98071 0.89563 0.0
C445 C 0.63479 0.96158 0.8605 0.0
C446 C 0.62576 0.95251 0.79274 0.0
C447 C 0.60402 0.96181 0.7618 0.0
H448 H 0.45764 0.70258 0.90245 0.0
H449 H 0.53376 0.67951 0.92939 0.0
H450 H 0.4453 0.66013 0.87948 0.0
H451 H 0.52165 0.63723 0.90426 0.0
H452 H 0.49191 0.56118 0.91604 0.0
H453 H 0.49773 0.60309 0.9593 0.0
H454 H 0.45149 0.62963 0.78066 0.0
H455 H 0.44534 0.58777 0.7379 0.0
C456 C 0.47167 0.68837 0.90416 0.0
C457 C 0.49658 0.69422 0.91875 0.0
C458 C 0.46465 0.66413 0.89042 0.0
C459 C 0.48245 0.64529 0.89091 0.0
C460 C 0.50741 0.65125 0.90502 0.0
C461 C 0.51441 0.67548 0.9184 0.0
C462 C 0.48247 0.57587 0.88702 0.0
C463 C 0.46843 0.57113 0.82289 0.0
C464 C 0.486 0.59991 0.91145 0.0
C465 C 0.47547 0.61968 0.87251 0.0
C466 C 0.45984 0.6148 0.81191 0.0
C467 C 0.45636 0.59077 0.78733 0.0
H468 H 0.80595 0.60434 0.85457 0.0
H469 H 0.80321 0.55363 0.03848 0.0
H470 H 0.84718 0.58933 0.8221 0.0
H471 H 0.84498 0.53923 0.00793 0.0
H472 H 0.9083 0.50257 0.86733 0.0
H473 H 0.8674 0.51623 0.90989 0.0
H474 H 0.88914 0.59152 0.87386 0.0
H475 H 0.92962 0.57799 0.8307 0.0
C476 C 0.81427 0.59009 0.88835 0.0
C477 C 0.80168 0.58063 0.95024 0.0
C478 C 0.83796 0.58164 0.87021 0.0
C479 C 0.84952 0.56338 0.91323 0.0
C480 C 0.83662 0.55339 0.97395 0.0
C481 C 0.81289 0.56192 0.9922 0.0
C482 C 0.90441 0.52204 0.8695 0.0
C483 C 0.92207 0.53918 0.84488 0.0
C484 C 0.88102 0.52986 0.89393 0.0
C485 C 0.87493 0.55494 0.89409 0.0
C486 C 0.89306 0.57205 0.87275 0.0
C487 C 0.91632 0.56428 0.8484 0.0
H488 H 0.94456 0.1246 0.12957 0.0
H489 H 0.98113 0.1794 0.99484 0.0
H490 H 0.9539 0.09361 0.03643 0.0
H491 H 0.99037 0.14827 0.90153 0.0
H492 H 0.0155 0.08095 0.76779 0.0
H493 H 0.01355 0.10829 0.87569 0.0
H494 H 0.93661 0.08871 0.90826 0.0
H495 H 0.9385 0.06169 0.80129 0.0
C496 C 0.95485 0.13 0.08054 0.0
C497 C 0.96179 0.15455 0.06911 0.0
C498 C 0.96015 0.11223 0.02719 0.0
C499 C 0.97266 0.11858 0.96151 0.0
C500 C 0.98083 0.14283 0.95185 0.0
C501 C 0.97538 0.16068 0.00506 0.0
C502 C 0.99832 0.0823 0.79877 0.0
C503 C 0.97711 0.06934 0.77599 0.0
C504 C 0.99717 0.098 0.86012 0.0
C505 C 0.97494 0.10059 0.90032 0.0
C506 C 0.95408 0.08689 0.87893 0.0
C507 C 0.95512 0.07155 0.81728 0.0
H508 H 0.35194 0.09403 0.09088 0.0
H509 H 0.29903 0.061 0.94111 0.0
H510 H 0.38594 0.07686 0.01893 0.0
H511 H 0.33319 0.04426 0.86792 0.0
H512 H 0.39804 0.99558 0.80367 0.0
H513 H 0.36501 0.01294 0.87941 0.0
H514 H 0.40678 0.08018 0.90045 0.0
H515 H 0.4401 0.06261 0.82591 0.0
C516 C 0.34755 0.08334 0.04205 0.0
C517 C 0.32275 0.07884 0.02181 0.0
C518 C 0.36709 0.07356 0.00066 0.0
C519 C 0.36231 0.05906 0.93794 0.0
C520 C 0.3375 0.05499 0.91674 0.0
C521 C 0.31792 0.06476 0.95826 0.0
C522 C 0.40033 0.01397 0.82515 0.0
C523 C 0.42169 0.02773 0.80867 0.0
C524 C 0.38126 0.02401 0.86794 0.0
C525 C 0.3831 0.04806 0.89519 0.0
C526 C 0.40483 0.06155 0.8807 0.0
C527 C 0.42395 0.05147 0.83798 0.0
H528 H 0.55638 0.38714 0.11778 0.0
H529 H 0.52114 0.33132 0.98438 0.0
H530 H 0.54591 0.41787 0.02463 0.0
H531 H 0.51076 0.3622 0.89105 0.0
H532 H 0.48391 0.42864 0.756 0.0
H533 H 0.48656 0.40156 0.86467 0.0
H534 H 0.56301 0.42303 0.89622 0.0
H535 H 0.56043 0.44979 0.78849 0.0
C536 C 0.54613 0.38145 0.06907 0.0
C537 C 0.53994 0.35671 0.05793 0.0
C538 C 0.54017 0.39907 0.01572 0.0
C539 C 0.52774 0.39237 0.95034 0.0
C540 C 0.52023 0.3679 0.94113 0.0
C541 C 0.52634 0.35021 0.99435 0.0
C542 C 0.50113 0.42776 0.78692 0.0
C543 C 0.52202 0.44116 0.76363 0.0
C544 C 0.50267 0.41222 0.84872 0.0
C545 C 0.52498 0.41023 0.88884 0.0
C546 C 0.54549 0.42438 0.86695 0.0
C547 C 0.54407 0.43957 0.80486 0.0
H548 H 0.15131 0.41559 0.09193 0.0
H549 H 0.20705 0.44419 0.94251 0.0
H550 H 0.11886 0.4339 0.01618 0.0
H551 H 0.17443 0.46204 0.86552 0.0
H552 H 0.11324 0.51537 0.79937 0.0
H553 H 0.14501 0.4955 0.87422 0.0
H554 H 0.09811 0.4317 0.89744 0.0
H555 H 0.06601 0.45184 0.82372 0.0
C556 C 0.15665 0.42549 0.04228 0.0
C557 C 0.18181 0.42852 0.02344 0.0
C558 C 0.13799 0.43592 0.99868 0.0
C559 C 0.14403 0.4496 0.93509 0.0
C560 C 0.16917 0.45199 0.91495 0.0
C561 C 0.18786 0.44158 0.95868 0.0
C562 C 0.10959 0.49717 0.82088 0.0
C563 C 0.08708 0.48519 0.80558 0.0
C564 C 0.12793 0.48568 0.8632 0.0
C565 C 0.12424 0.46189 0.89113 0.0
C566 C 0.10149 0.45009 0.87717 0.0
C567 C 0.08309 0.46163 0.8349 0.0
H568 H 0.03353 0.83607 0.2381 0.0
H569 H 0.98362 0.8867 0.12926 0.0
H570 H 0.04139 0.8663 0.33457 0.0
H571 H 0.9918 0.91707 0.22528 0.0
H572 H 0.98771 0.94937 0.46266 0.0
H573 H 0.982 0.92195 0.35736 0.0
H574 H 0.06063 0.90624 0.35648 0.0
H575 H 0.06632 0.93333 0.46244 0.0
C576 C 0.02444 0.85373 0.23432 0.0
C577 C 0.0078 0.85891 0.17636 0.0
C578 C 0.02905 0.87112 0.28941 0.0
C579 C 0.01713 0.89404 0.2877 0.0
C580 C 0.00098 0.89943 0.22869 0.0
C581 C 0.99639 0.88207 0.17353 0.0
C582 C 0.0038 0.94019 0.43971 0.0
C583 C 0.02743 0.94337 0.47127 0.0
C584 C 0.00056 0.92458 0.3791 0.0
C585 C 0.02086 0.91184 0.34882 0.0
C586 C 0.04458 0.91552 0.37927 0.0
C587 C 0.04783 0.93113 0.43979 0.0
H588 H 0.67507 0.99278 0.29552 0.0
H589 H 0.61447 0.95895 0.17653 0.0
H590 H 0.6461 0.00778 0.3882 0.0
H591 H 0.58527 0.97441 0.26922 0.0
H592 H 0.55012 0.97939 0.50775 0.0
H593 H 0.57497 0.96703 0.40055 0.0
H594 H 0.61263 0.03693 0.40452 0.0
H595 H 0.58826 0.04902 0.51209 0.0
C596 C 0.65552 0.98874 0.2887 0.0
C597 C 0.64711 0.9746 0.2287 0.0
C598 C 0.63885 0.99749 0.34165 0.0
C599 C 0.61334 0.99238 0.33595 0.0
C600 C 0.60484 0.97849 0.27545 0.0
C601 C 0.62156 0.96974 0.22222 0.0
C602 C 0.56343 0.99223 0.48489 0.0
C603 C 0.56751 0.01502 0.5189 0.0
C604 C 0.57762 0.98518 0.42339 0.0
C605 C 0.59604 0.00087 0.39476 0.0
C606 C 0.599 0.02421 0.42632 0.0
C607 C 0.58496 0.03117 0.48778 0.0
H608 H 0.42952 0.64825 0.1641 0.0
H609 H 0.50795 0.65645 0.2078 0.0
H610 H 0.42739 0.61535 0.25565 0.0
H611 H 0.50568 0.62442 0.30124 0.0
H612 H 0.49905 0.55419 0.43062 0.0
H613 H 0.50047 0.58202 0.32458 0.0
H614 H 0.42862 0.61098 0.38615 0.0
H615 H 0.42681 0.58256 0.48977 0.0
C616 C 0.44628 0.64305 0.19336 0.0
C617 C 0.46886 0.65503 0.17913 0.0
C618 C 0.44506 0.62428 0.24609 0.0
C619 C 0.46633 0.6173 0.28628 0.0
C620 C 0.489 0.629 0.27068 0.0
C621 C 0.49027 0.64754 0.21742 0.0
C622 C 0.48351 0.56641 0.42102 0.0
C623 C 0.46289 0.56629 0.46867 0.0
C624 C 0.48436 0.58243 0.36049 0.0
C625 C 0.4647 0.59886 0.34689 0.0
C626 C 0.4439 0.59835 0.39402 0.0
C627 C 0.44295 0.58216 0.45391 0.0
H628 H 0.83091 0.55373 0.34192 0.0
H629 H 0.89504 0.56945 0.20561 0.0
H630 H 0.85788 0.53771 0.43861 0.0
H631 H 0.92211 0.55305 0.30269 0.0
H632 H 0.96072 0.54579 0.53531 0.0
H633 H 0.93606 0.56203 0.43222 0.0
H634 H 0.88462 0.5018 0.45596 0.0
H635 H 0.90888 0.48581 0.55882 0.0
C636 C 0.85077 0.55375 0.33248 0.0
C637 C 0.8608 0.56279 0.26588 0.0
C638 C 0.86623 0.54443 0.3878 0.0
C639 C 0.89211 0.54392 0.37799 0.0
C640 C 0.90224 0.55332 0.31194 0.0
C641 C 0.88672 0.5626 0.25628 0.0
C642 C 0.94426 0.53594 0.51798 0.0
C643 C 0.93661 0.51466 0.55569 0.0
C644 C 0.9302 0.54519 0.45887 0.0
C645 C 0.90824 0.53335 0.43666 0.0
C646 C 0.90116 0.51162 0.47277 0.0
C647 C 0.91516 0.50239 0.53154 0.0
loop_
_geom_bond_atom_site_label_1
_geom_bond_atom_site_label_2
_geom_bond_distance
_geom_bond_site_symmetry_2
_ccdc_geom_bond_type
O0 Cd1 2.300 . S
O0 C7 1.275 . S
Cd1 O0 2.300 . S
Cd1 O9 2.381 . S
Cd1 O10 2.378 1_556 S
O2 Cd3 2.385 . S
O2 C7 1.255 1_554 S
Cd3 O2 2.385 . S
Cd3 O4 2.317 . S
O4 Cd3 2.317 . S
O4 C5 1.232 . S
C5 O4 1.232 . S
C5 O6 1.218 . S
O6 C5 1.218 . S
C7 O0 1.275 . S
C7 O2 1.255 1_556 S
C8 O9 1.258 . S
C8 O10 1.256 1_556 S
O9 Cd1 2.381 . S
O9 C8 1.258 . S
O10 Cd1 2.378 1_554 S
O10 C8 1.256 1_554 S
O11 Cd12 2.300 1_656 S
O11 C18 1.275 1_655 S
Cd12 O11 2.300 1_454 S
Cd12 O20 2.381 1_454 S
Cd12 O21 2.378 . S
O13 Cd14 2.385 . S
O13 C18 1.255 1_554 S
Cd14 O13 2.385 . S
Cd14 O15 2.317 . S
O15 Cd14 2.317 . S
O15 C16 1.232 . S
C16 O15 1.232 . S
C16 O17 1.218 . S
O17 C16 1.218 . S
C18 O11 1.275 1_455 S
C18 O13 1.255 1_556 S
C19 O20 1.258 1_455 S
C19 O21 1.256 1_556 S
O20 Cd12 2.381 1_656 S
O20 C19 1.258 1_655 S
O21 Cd12 2.378 . S
O21 C19 1.256 1_554 S
O22 Cd23 2.300 1_556 S
O22 C29 1.275 . S
Cd23 O22 2.300 1_554 S
Cd23 O31 2.381 1_554 S
Cd23 O32 2.378 . S
O24 Cd25 2.385 1_565 S
O24 C29 1.255 1_554 S
Cd25 O24 2.385 1_545 S
Cd25 O26 2.317 1_545 S
O26 Cd25 2.317 1_565 S
O26 C27 1.232 . S
C27 O26 1.232 . S
C27 O28 1.218 . S
O28 C27 1.218 . S
C29 O22 1.275 . S
C29 O24 1.255 1_556 S
C30 O31 1.258 . S
C30 O32 1.256 1_556 S
O31 Cd23 2.381 1_556 S
O31 C30 1.258 . S
O32 Cd23 2.378 . S
O32 C30 1.256 1_554 S
O33 Cd34 2.300 1_556 S
O33 C40 1.275 . S
Cd34 O33 2.300 1_554 S
Cd34 O42 2.381 1_554 S
Cd34 O43 2.378 . S
O35 Cd36 2.385 . S
O35 C40 1.255 1_554 S
Cd36 O35 2.385 . S
Cd36 O37 2.317 . S
O37 Cd36 2.317 . S
O37 C38 1.232 . S
C38 O37 1.232 . S
C38 O39 1.218 . S
O39 C38 1.218 . S
C40 O33 1.275 . S
C40 O35 1.255 1_556 S
C41 O42 1.258 . S
C41 O43 1.256 1_556 S
O42 Cd34 2.381 1_556 S
O42 C41 1.258 . S
O43 Cd34 2.378 . S
O43 C41 1.256 1_554 S
O44 Cd45 2.300 . S
O44 C51 1.275 . S
Cd45 O44 2.300 . S
Cd45 O53 2.381 . S
Cd45 O54 2.378 . S
O46 Cd47 2.385 . S
O46 C51 1.255 . S
Cd47 O46 2.385 . S
Cd47 O48 2.317 . S
O48 Cd47 2.317 . S
O48 C49 1.232 . S
C49 O48 1.232 . S
C49 O50 1.218 . S
O50 C49 1.218 . S
C51 O44 1.275 . S
C51 O46 1.255 . S
C52 O53 1.258 . S
C52 O54 1.256 . S
O53 Cd45 2.381 . S
O53 C52 1.258 . S
O54 Cd45 2.378 . S
O54 C52 1.256 . S
O55 Cd56 2.300 1_655 S
O55 C62 1.275 1_655 S
Cd56 O55 2.300 1_455 S
Cd56 O64 2.381 1_455 S
Cd56 O65 2.378 . S
O57 Cd58 2.385 . S
O57 C62 1.255 . S
Cd58 O57 2.385 . S
Cd58 O59 2.317 . S
O59 Cd58 2.317 . S
O59 C60 1.232 . S
C60 O59 1.232 . S
C60 O61 1.218 . S
O61 C60 1.218 . S
C62 O55 1.275 1_455 S
C62 O57 1.255 . S
C63 O64 1.258 1_455 S
C63 O65 1.256 . S
O64 Cd56 2.381 1_655 S
O64 C63 1.258 1_655 S
O65 Cd56 2.378 . S
O65 C63 1.256 . S
O66 Cd67 2.300 . S
O66 C73 1.275 . S
Cd67 O66 2.300 . S
Cd67 O75 2.381 . S
Cd67 O76 2.378 . S
O68 Cd69 2.385 . S
O68 C73 1.255 . S
Cd69 O68 2.385 . S
Cd69 O70 2.317 . S
O70 Cd69 2.317 . S
O70 C71 1.232 . S
C71 O70 1.232 . S
C71 O72 1.218 . S
O72 C71 1.218 . S
C73 O66 1.275 . S
C73 O68 1.255 . S
C74 O75 1.258 . S
C74 O76 1.256 . S
O75 Cd67 2.381 . S
O75 C74 1.258 . S
O76 Cd67 2.378 . S
O76 C74 1.256 . S
O77 Cd78 2.300 . S
O77 C84 1.275 . S
Cd78 O77 2.300 . S
Cd78 O86 2.381 . S
Cd78 O87 2.378 . S
O79 Cd80 2.385 . S
O79 C84 1.255 . S
Cd80 O79 2.385 . S
Cd80 O81 2.317 . S
O81 Cd80 2.317 . S
O81 C82 1.232 . S
C82 O81 1.232 . S
C82 O83 1.218 . S
O83 C82 1.218 . S
C84 O77 1.275 . S
C84 O79 1.255 . S
C85 O86 1.258 . S
C85 O87 1.256 . S
O86 Cd78 2.381 . S
O86 C85 1.258 . S
O87 Cd78 2.378 . S
O87 C85 1.256 . S
Zn88 O94 1.969 . S
Zn88 O95 1.965 1_655 S
Zn88 O99 2.024 1_655 S
Zn88 O104 1.969 . S
Zn89 O96 1.969 . S
Zn89 O102 1.969 . S
Zn89 O103 1.965 1_455 S
Zn89 O105 2.024 1_455 S
C90 O91 1.229 1_455 S
C90 O99 1.058 . S
O91 C90 1.229 1_655 S
C92 O93 1.229 1_655 S
C92 O105 1.058 . S
O93 C92 1.229 1_455 S
O94 Zn88 1.969 . S
O94 C97 1.267 . S
O95 Zn88 1.965 1_455 S
O95 C106 1.260 . S
O96 Zn89 1.969 . S
O96 C106 1.258 1_565 S
C97 O94 1.267 . S
C97 O98 1.228 1_655 S
O98 C97 1.228 1_455 S
O99 Zn88 2.024 1_455 S
O99 C90 1.058 . S
C100 O101 1.228 1_455 S
C100 O102 1.267 . S
O101 C100 1.228 1_655 S
O102 Zn89 1.969 . S
O102 C100 1.267 . S
O103 Zn89 1.965 1_655 S
O103 C107 1.260 1_565 S
O104 Zn88 1.969 . S
O104 C107 1.258 . S
O105 Zn89 2.024 1_655 S
O105 C92 1.058 . S
C106 O95 1.260 . S
C106 O96 1.258 1_545 S
C107 O103 1.260 1_545 S
C107 O104 1.258 . S
Zn108 O114 1.978 . S
Zn108 O115 1.965 . S
Zn108 O119 2.024 . S
Zn108 O124 1.969 1_545 S
Zn109 O116 1.969 . S
Zn109 O122 1.969 . S
Zn109 O123 1.965 1_545 S
Zn109 O125 2.024 1_545 S
C110 O111 1.229 . S
C110 O119 1.058 . S
O111 C110 1.229 . S
C112 O113 1.229 1_565 S
C112 O125 1.058 . S
O113 C112 1.229 1_545 S
O114 Zn108 1.978 . S
O114 C117 1.286 . S
O115 Zn108 1.965 . S
O115 C126 1.260 . S
O116 Zn109 1.969 . S
O116 C126 1.258 . S
C117 O114 1.286 . S
C117 O118 1.228 . S
O118 C117 1.228 . S
O119 Zn108 2.024 . S
O119 C110 1.058 . S
C120 O121 1.228 . S
C120 O122 1.267 1_565 S
O121 C120 1.228 . S
O122 Zn109 1.969 . S
O122 C120 1.267 1_545 S
O123 Zn109 1.965 1_565 S
O123 C127 1.260 . S
O124 Zn108 1.969 1_565 S
O124 C127 1.258 . S
O125 Zn109 2.024 1_565 S
O125 C112 1.058 . S
C126 O115 1.260 . S
C126 O116 1.258 . S
C127 O123 1.260 . S
C127 O124 1.258 . S
Zn128 O134 1.969 . S
Zn128 O135 1.965 . S
Zn128 O139 2.024 . S
Zn128 O144 1.969 . S
Zn129 O136 1.969 . S
Zn129 O142 1.969 . S
Zn129 O143 1.965 . S
Zn129 O145 2.024 . S
C130 O131 1.229 . S
C130 O139 1.058 . S
O131 C130 1.229 . S
C132 O133 1.229 . S
C132 O145 1.058 . S
O133 C132 1.229 . S
O134 Zn128 1.969 . S
O134 C137 1.267 . S
O135 Zn128 1.965 . S
O135 C146 1.260 . S
O136 Zn129 1.969 . S
O136 C146 1.258 . S
C137 O134 1.267 . S
C137 O138 1.228 . S
O138 C137 1.228 . S
O139 Zn128 2.024 . S
O139 C130 1.058 . S
C140 O141 1.228 . S
C140 O142 1.267 . S
O141 C140 1.228 . S
O142 Zn129 1.969 . S
O142 C140 1.267 . S
O143 Zn129 1.965 . S
O143 C147 1.260 . S
O144 Zn128 1.969 . S
O144 C147 1.258 . S
O145 Zn129 2.024 . S
O145 C132 1.058 . S
C146 O135 1.260 . S
C146 O136 1.258 . S
C147 O143 1.260 . S
C147 O144 1.258 . S
Zn148 O154 1.969 . S
Zn148 O155 1.965 . S
Zn148 O159 2.024 . S
Zn148 O164 1.969 . S
Zn149 O156 1.969 . S
Zn149 O162 1.969 . S
Zn149 O163 1.965 . S
Zn149 O165 2.024 . S
C150 O151 1.229 . S
C150 O159 1.058 . S
O151 C150 1.229 . S
C152 O153 1.229 . S
C152 O165 1.058 . S
O153 C152 1.229 . S
O154 Zn148 1.969 . S
O154 C157 1.267 . S
O155 Zn148 1.965 . S
O155 C166 1.260 1_455 S
O156 Zn149 1.969 . S
O156 C166 1.258 . S
C157 O154 1.267 . S
C157 O158 1.228 . S
O158 C157 1.228 . S
O159 Zn148 2.024 . S
O159 C150 1.058 . S
C160 O161 1.228 . S
C160 O162 1.267 . S
O161 C160 1.228 . S
O162 Zn149 1.969 . S
O162 C160 1.267 . S
O163 Zn149 1.965 . S
O163 C167 1.260 1_655 S
O164 Zn148 1.969 . S
O164 C167 1.258 . S
O165 Zn149 2.024 . S
O165 C152 1.058 . S
C166 O155 1.260 1_655 S
C166 O156 1.258 . S
C167 O163 1.260 1_455 S
C167 O164 1.258 . S
H168 C176 0.950 . S
H169 C181 0.950 . S
H170 C178 0.950 . S
H171 C180 0.950 . S
H172 C182 0.950 . S
H173 C184 0.950 . S
H174 C186 0.950 . S
H175 C187 0.950 . S
C176 H168 0.950 . S
C176 C177 1.386 . S
C176 C178 1.391 . S
C177 C176 1.386 . S
C177 C181 1.393 . S
C178 H170 0.950 . S
C178 C176 1.391 . S
C178 C179 1.400 . S
C179 C178 1.400 . S
C179 C180 1.398 . S
C179 C185 1.491 . S
C180 H171 0.950 . S
C180 C179 1.398 . S
C180 C181 1.391 . S
C181 H169 0.950 . S
C181 C177 1.393 . S
C181 C180 1.391 . S
C182 H172 0.950 . S
C182 C183 1.386 . S
C182 C184 1.391 . S
C183 C182 1.386 . S
C183 C187 1.393 . S
C184 H173 0.950 . S
C184 C182 1.391 . S
C184 C185 1.400 . S
C185 C179 1.491 . S
C185 C184 1.400 . S
C185 C186 1.398 . S
C186 H174 0.950 . S
C186 C185 1.398 . S
C186 C187 1.391 . S
C187 H175 0.950 . S
C187 C183 1.393 . S
C187 C186 1.391 . S
H188 C196 0.950 . S
H189 C201 0.950 . S
H190 C198 0.950 . S
H191 C200 0.950 . S
H192 C202 0.950 . S
H193 C204 0.950 . S
H194 C206 0.950 . S
H195 C207 0.950 . S
C196 H188 0.950 . S
C196 C197 1.386 . S
C196 C198 1.391 . S
C197 C196 1.386 . S
C197 C201 1.393 . S
C198 H190 0.950 . S
C198 C196 1.391 . S
C198 C199 1.400 . S
C199 C198 1.400 . S
C199 C200 1.398 . S
C199 C205 1.491 . S
C200 H191 0.950 . S
C200 C199 1.398 . S
C200 C201 1.391 . S
C201 H189 0.950 . S
C201 C197 1.393 . S
C201 C200 1.391 . S
C202 H192 0.950 . S
C202 C203 1.386 . S
C202 C204 1.391 . S
C203 C202 1.386 . S
C203 C207 1.393 . S
C204 H193 0.950 . S
C204 C202 1.391 . S
C204 C205 1.400 . S
C205 C199 1.491 . S
C205 C204 1.400 . S
C205 C206 1.398 . S
C206 H194 0.950 . S
C206 C205 1.398 . S
C206 C207 1.391 . S
C207 H195 0.950 . S
C207 C203 1.393 . S
C207 C206 1.391 . S
H208 C216 0.950 . S
H209 C221 0.950 . S
H210 C218 0.950 . S
H211 C220 0.950 . S
H212 C222 0.950 . S
H213 C224 0.950 . S
H214 C226 0.950 . S
H215 C227 0.950 . S
C216 H208 0.950 . S
C216 C217 1.386 . S
C216 C218 1.391 . S
C217 C216 1.386 . S
C217 C221 1.393 . S
C218 H210 0.950 . S
C218 C216 1.391 . S
C218 C219 1.400 . S
C219 C218 1.400 . S
C219 C220 1.398 . S
C219 C225 1.491 . S
C220 H211 0.950 . S
C220 C219 1.398 . S
C220 C221 1.391 . S
C221 H209 0.950 . S
C221 C217 1.393 . S
C221 C220 1.391 . S
C222 H212 0.950 . S
C222 C223 1.386 . S
C222 C224 1.391 . S
C223 C222 1.386 . S
C223 C227 1.393 . S
C224 H213 0.950 . S
C224 C222 1.391 . S
C224 C225 1.400 . S
C225 C219 1.491 . S
C225 C224 1.400 . S
C225 C226 1.398 . S
C226 H214 0.950 . S
C226 C225 1.398 . S
C226 C227 1.391 . S
C227 H215 0.950 . S
C227 C223 1.393 . S
C227 C226 1.391 . S
H228 C236 0.950 . S
H229 C241 0.950 . S
H230 C238 0.950 . S
H231 C240 0.950 . S
H232 C242 0.950 . S
H233 C244 0.950 . S
H234 C246 0.950 . S
H235 C247 0.950 . S
C236 H228 0.950 . S
C236 C237 1.385 . S
C236 C238 1.391 . S
C237 C236 1.385 . S
C237 C241 1.394 1_655 S
C238 H230 0.950 . S
C238 C236 1.391 . S
C238 C239 1.437 . S
C239 C238 1.437 . S
C239 C240 1.361 1_655 S
C239 C245 1.492 . S
C240 H231 0.950 . S
C240 C239 1.361 1_455 S
C240 C241 1.391 . S
C241 H229 0.950 . S
C241 C237 1.394 1_455 S
C241 C240 1.391 . S
C242 H232 0.950 . S
C242 C243 1.386 1_455 S
C242 C244 1.391 . S
C243 C242 1.386 1_655 S
C243 C247 1.393 . S
C244 H233 0.950 . S
C244 C242 1.391 . S
C244 C245 1.400 1_455 S
C245 C239 1.492 . S
C245 C244 1.400 1_655 S
C245 C246 1.398 . S
C246 H234 0.950 . S
C246 C245 1.398 . S
C246 C247 1.391 . S
C247 H235 0.950 . S
C247 C243 1.393 . S
C247 C246 1.391 . S
H248 C256 0.950 . S
H249 C261 0.950 . S
H250 C258 0.950 . S
H251 C260 0.950 1_545 S
H252 C262 0.950 . S
H253 C264 0.950 . S
H254 C266 0.950 . S
H255 C267 0.950 . S
C256 H248 0.950 . S
C256 C257 1.386 . S
C256 C258 1.391 . S
C257 C256 1.386 . S
C257 C261 1.393 . S
C258 H250 0.950 . S
C258 C256 1.391 . S
C258 C259 1.400 . S
C259 C258 1.400 . S
C259 C260 1.398 . S
C259 C265 1.491 . S
C260 H251 0.950 1_565 S
C260 C259 1.398 . S
C260 C261 1.391 . S
C261 H249 0.950 . S
C261 C257 1.393 . S
C261 C260 1.391 . S
C262 H252 0.950 . S
C262 C263 1.386 1_545 S
C262 C264 1.391 . S
C263 C262 1.386 1_565 S
C263 C267 1.393 . S
C264 H253 0.950 . S
C264 C262 1.391 . S
C264 C265 1.400 1_545 S
C265 C259 1.491 . S
C265 C264 1.400 1_565 S
C265 C266 1.398 . S
C266 H254 0.950 . S
C266 C265 1.398 . S
C266 C267 1.391 . S
C267 H255 0.950 . S
C267 C263 1.393 . S
C267 C266 1.391 . S
H268 C276 0.950 . S
H269 C281 0.950 . S
H270 C278 0.950 . S
H271 C280 0.950 . S
H272 C282 0.950 . S
H273 C284 0.950 . S
H274 C286 0.950 . S
H275 C287 0.950 . S
C276 H268 0.950 . S
C276 C277 1.386 . S
C276 C278 1.391 . S
C277 C276 1.386 . S
C277 C281 1.393 . S
C278 H270 0.950 . S
C278 C276 1.391 . S
C278 C279 1.400 . S
C279 C278 1.400 . S
C279 C280 1.398 . S
C279 C285 1.491 . S
C280 H271 0.950 . S
C280 C279 1.398 . S
C280 C281 1.391 . S
C281 H269 0.950 . S
C281 C277 1.393 . S
C281 C280 1.391 . S
C282 H272 0.950 . S
C282 C283 1.386 . S
C282 C284 1.391 . S
C283 C282 1.386 . S
C283 C287 1.393 . S
C284 H273 0.950 . S
C284 C282 1.391 . S
C284 C285 1.400 . S
C285 C279 1.491 . S
C285 C284 1.400 . S
C285 C286 1.398 . S
C286 H274 0.950 . S
C286 C285 1.398 . S
C286 C287 1.391 . S
C287 H275 0.950 . S
C287 C283 1.393 . S
C287 C286 1.391 . S
H288 C296 0.950 . S
H289 C301 0.950 . S
H290 C298 0.950 . S
H291 C300 0.950 . S
H292 C302 0.950 . S
H293 C304 0.950 . S
H294 C306 0.950 . S
H295 C307 0.950 . S
C296 H288 0.950 . S
C296 C297 1.386 . S
C296 C298 1.391 . S
C297 C296 1.386 . S
C297 C301 1.393 . S
C298 H290 0.950 . S
C298 C296 1.391 . S
C298 C299 1.400 . S
C299 C298 1.400 . S
C299 C300 1.398 . S
C299 C305 1.491 . S
C300 H291 0.950 . S
C300 C299 1.398 . S
C300 C301 1.391 . S
C301 H289 0.950 . S
C301 C297 1.393 . S
C301 C300 1.391 . S
C302 H292 0.950 . S
C302 C303 1.386 . S
C302 C304 1.391 . S
C303 C302 1.386 . S
C303 C307 1.393 . S
C304 H293 0.950 . S
C304 C302 1.391 . S
C304 C305 1.400 . S
C305 C299 1.491 . S
C305 C304 1.400 . S
C305 C306 1.398 . S
C306 H294 0.950 . S
C306 C305 1.398 . S
C306 C307 1.391 . S
C307 H295 0.950 . S
C307 C303 1.393 . S
C307 C306 1.391 . S
H308 C316 0.950 . S
H309 C321 0.950 . S
H310 C318 0.950 . S
H311 C320 0.950 . S
H312 C322 0.950 . S
H313 C324 0.950 . S
H314 C326 0.950 . S
H315 C327 0.950 . S
C316 H308 0.950 . S
C316 C317 1.393 . S
C316 C318 1.391 . S
C317 C316 1.393 . S
C317 C321 1.385 1_455 S
C318 H310 0.950 . S
C318 C316 1.391 . S
C318 C319 1.400 . S
C319 C318 1.400 . S
C319 C320 1.398 1_455 S
C319 C325 1.491 . S
C320 H311 0.950 . S
C320 C319 1.398 1_655 S
C320 C321 1.391 . S
C321 H309 0.950 . S
C321 C317 1.385 1_655 S
C321 C320 1.391 . S
C322 H312 0.950 . S
C322 C323 1.386 1_655 S
C322 C324 1.391 . S
C323 C322 1.386 1_455 S
C323 C327 1.393 . S
C324 H313 0.950 . S
C324 C322 1.391 . S
C324 C325 1.400 1_655 S
C325 C319 1.491 . S
C325 C324 1.400 1_455 S
C325 C326 1.398 . S
C326 H314 0.950 . S
C326 C325 1.398 . S
C326 C327 1.391 . S
C327 H315 0.950 . S
C327 C323 1.393 . S
C327 C326 1.391 . S
H328 C336 0.950 . S
H329 C341 0.950 . S
H330 C338 0.950 . S
H331 C340 0.950 . S
H332 C342 0.950 . S
H333 C344 0.950 . S
H334 C346 0.950 . S
H335 C347 0.950 . S
C336 H328 0.950 . S
C336 C337 1.383 1_655 S
C336 C338 1.391 . S
C337 C336 1.383 1_455 S
C337 C341 1.394 . S
C338 H330 0.950 . S
C338 C336 1.391 . S
C338 C339 1.400 . S
C339 C338 1.400 . S
C339 C340 1.398 . S
C339 C345 1.491 . S
C340 H331 0.950 . S
C340 C339 1.398 . S
C340 C341 1.391 1_655 S
C341 H329 0.950 . S
C341 C337 1.394 . S
C341 C340 1.391 1_455 S
C342 H332 0.950 . S
C342 C343 1.386 . S
C342 C344 1.391 . S
C343 C342 1.386 . S
C343 C347 1.393 . S
C344 H333 0.950 . S
C344 C342 1.391 . S
C344 C345 1.400 . S
C345 C339 1.491 . S
C345 C344 1.400 . S
C345 C346 1.398 . S
C346 H334 0.950 . S
C346 C345 1.398 . S
C346 C347 1.391 . S
C347 H335 0.950 . S
C347 C343 1.393 . S
C347 C346 1.391 . S
H348 C356 0.950 . S
H349 C361 0.950 . S
H350 C358 0.950 . S
H351 C360 0.950 . S
H352 C362 0.950 1_565 S
H353 C364 0.950 . S
H354 C366 0.950 . S
H355 C367 0.950 . S
C356 H348 0.950 . S
C356 C357 1.386 . S
C356 C358 1.391 . S
C357 C356 1.386 . S
C357 C361 1.393 . S
C358 H350 0.950 . S
C358 C356 1.391 . S
C358 C359 1.400 . S
C359 C358 1.400 . S
C359 C360 1.398 . S
C359 C365 1.491 . S
C360 H351 0.950 . S
C360 C359 1.398 . S
C360 C361 1.391 . S
C361 H349 0.950 . S
C361 C357 1.393 . S
C361 C360 1.391 . S
C362 H352 0.950 1_545 S
C362 C363 1.386 . S
C362 C364 1.391 . S
C363 C362 1.386 . S
C363 C367 1.393 . S
C364 H353 0.950 . S
C364 C362 1.391 . S
C364 C365 1.400 . S
C365 C359 1.491 . S
C365 C364 1.400 . S
C365 C366 1.398 . S
C366 H354 0.950 . S
C366 C365 1.398 . S
C366 C367 1.391 . S
C367 H355 0.950 . S
C367 C363 1.393 . S
C367 C366 1.391 . S
H368 C376 0.950 . S
H369 C381 0.950 . S
H370 C378 0.950 . S
H371 C380 0.950 . S
H372 C382 0.950 . S
H373 C384 0.950 . S
H374 C386 0.950 . S
H375 C387 0.950 . S
C376 H368 0.950 . S
C376 C377 1.386 . S
C376 C378 1.391 . S
C377 C376 1.386 . S
C377 C381 1.393 . S
C378 H370 0.950 . S
C378 C376 1.391 . S
C378 C379 1.400 . S
C379 C378 1.400 . S
C379 C380 1.398 . S
C379 C385 1.491 . S
C380 H371 0.950 . S
C380 C379 1.398 . S
C380 C381 1.391 . S
C381 H369 0.950 . S
C381 C377 1.393 . S
C381 C380 1.391 . S
C382 H372 0.950 . S
C382 C383 1.386 . S
C382 C384 1.391 . S
C383 C382 1.386 . S
C383 C387 1.393 . S
C384 H373 0.950 . S
C384 C382 1.391 . S
C384 C385 1.400 . S
C385 C379 1.491 . S
C385 C384 1.400 . S
C385 C386 1.398 . S
C386 H374 0.950 . S
C386 C385 1.398 . S
C386 C387 1.391 . S
C387 H375 0.950 . S
C387 C383 1.393 . S
C387 C386 1.391 . S
H388 C396 0.950 . S
H389 C401 0.950 . S
H390 C398 0.950 . S
H391 C400 0.950 . S
H392 C402 0.950 . S
H393 C404 0.950 . S
H394 C406 0.950 . S
H395 C407 0.950 . S
C396 H388 0.950 . S
C396 C397 1.386 . S
C396 C398 1.391 . S
C397 C396 1.386 . S
C397 C401 1.393 . S
C398 H390 0.950 . S
C398 C396 1.391 . S
C398 C399 1.400 . S
C399 C398 1.400 . S
C399 C400 1.398 . S
C399 C405 1.491 . S
C400 H391 0.950 . S
C400 C399 1.398 . S
C400 C401 1.391 . S
C401 H389 0.950 . S
C401 C397 1.393 . S
C401 C400 1.391 . S
C402 H392 0.950 . S
C402 C403 1.386 . S
C402 C404 1.391 . S
C403 C402 1.386 . S
C403 C407 1.393 . S
C404 H393 0.950 . S
C404 C402 1.391 . S
C404 C405 1.400 . S
C405 C399 1.491 . S
C405 C404 1.400 . S
C405 C406 1.398 . S
C406 H394 0.950 . S
C406 C405 1.398 . S
C406 C407 1.391 . S
C407 H395 0.950 . S
C407 C403 1.393 . S
C407 C406 1.391 . S
H408 C416 0.950 1_554 S
H409 C421 0.950 . S
H410 C418 0.950 . S
H411 C420 0.950 . S
H412 C422 0.950 . S
H413 C424 0.950 . S
H414 C426 0.950 . S
H415 C427 0.950 . S
C416 H408 0.950 1_556 S
C416 C417 1.363 1_655 S
C416 C418 1.391 . S
C417 C416 1.363 1_455 S
C417 C421 1.420 . S
C418 H410 0.950 . S
C418 C416 1.391 . S
C418 C419 1.400 1_655 S
C419 C418 1.400 1_455 S
C419 C420 1.398 . S
C419 C425 1.491 . S
C420 H411 0.950 . S
C420 C419 1.398 . S
C420 C421 1.391 . S
C421 H409 0.950 . S
C421 C417 1.420 . S
C421 C420 1.391 . S
C422 H412 0.950 . S
C422 C423 1.386 . S
C422 C424 1.391 . S
C423 C422 1.386 . S
C423 C427 1.393 1_455 S
C424 H413 0.950 . S
C424 C422 1.391 . S
C424 C425 1.400 . S
C425 C419 1.491 . S
C425 C424 1.400 . S
C425 C426 1.398 1_455 S
C426 H414 0.950 . S
C426 C425 1.398 1_655 S
C426 C427 1.391 . S
C427 H415 0.950 . S
C427 C423 1.393 1_655 S
C427 C426 1.391 . S
H428 C436 0.950 . S
H429 C441 0.950 1_554 S
H430 C438 0.950 . S
H431 C440 0.950 . S
H432 C442 0.950 . S
H433 C444 0.943 1_545 S
H434 C446 0.950 . S
H435 C447 0.950 . S
C436 H428 0.950 . S
C436 C437 1.386 . S
C436 C438 1.391 . S
C437 C436 1.386 . S
C437 C441 1.393 . S
C438 H430 0.950 . S
C438 C436 1.391 . S
C438 C439 1.400 . S
C439 C438 1.400 . S
C439 C440 1.398 . S
C439 C445 1.491 . S
C440 H431 0.950 . S
C440 C439 1.398 . S
C440 C441 1.391 . S
C441 H429 0.950 1_556 S
C441 C437 1.393 . S
C441 C440 1.391 . S
C442 H432 0.950 . S
C442 C443 1.386 . S
C442 C444 1.391 1_545 S
C443 C442 1.386 . S
C443 C447 1.393 1_545 S
C444 H433 0.943 1_565 S
C444 C442 1.391 1_565 S
C444 C445 1.400 . S
C445 C439 1.491 . S
C445 C444 1.400 . S
C445 C446 1.398 . S
C446 H434 0.950 . S
C446 C445 1.398 . S
C446 C447 1.391 . S
C447 H435 0.950 . S
C447 C443 1.393 1_565 S
C447 C446 1.391 . S
H448 C456 0.950 . S
H449 C461 0.950 . S
H450 C458 0.950 . S
H451 C460 0.950 . S
H452 C462 0.950 . S
H453 C464 0.950 . S
H454 C466 0.950 . S
H455 C467 0.950 . S
C456 H448 0.950 . S
C456 C457 1.386 . S
C456 C458 1.391 . S
C457 C456 1.386 . S
C457 C461 1.393 . S
C458 H450 0.950 . S
C458 C456 1.391 . S
C458 C459 1.400 . S
C459 C458 1.400 . S
C459 C460 1.398 . S
C459 C465 1.491 . S
C460 H451 0.950 . S
C460 C459 1.398 . S
C460 C461 1.391 . S
C461 H449 0.950 . S
C461 C457 1.393 . S
C461 C460 1.391 . S
C462 H452 0.950 . S
C462 C463 1.386 . S
C462 C464 1.391 . S
C463 C462 1.386 . S
C463 C467 1.393 . S
C464 H453 0.950 . S
C464 C462 1.391 . S
C464 C465 1.400 . S
C465 C459 1.491 . S
C465 C464 1.400 . S
C465 C466 1.398 . S
C466 H454 0.950 . S
C466 C465 1.398 . S
C466 C467 1.391 . S
C467 H455 0.950 . S
C467 C463 1.393 . S
C467 C466 1.391 . S
H468 C476 0.950 . S
H469 C481 0.950 . S
H470 C478 0.950 . S
H471 C480 0.950 . S
H472 C482 0.950 . S
H473 C484 0.950 . S
H474 C486 0.950 . S
H475 C487 0.950 . S
C476 H468 0.950 . S
C476 C477 1.386 . S
C476 C478 1.391 . S
C477 C476 1.386 . S
C477 C481 1.393 . S
C478 H470 0.950 . S
C478 C476 1.391 . S
C478 C479 1.400 . S
C479 C478 1.400 . S
C479 C480 1.398 . S
C479 C485 1.491 . S
C480 H471 0.950 . S
C480 C479 1.398 . S
C480 C481 1.391 . S
C481 H469 0.950 . S
C481 C477 1.393 . S
C481 C480 1.391 . S
C482 H472 0.950 . S
C482 C483 1.386 . S
C482 C484 1.391 . S
C483 C482 1.386 . S
C483 C487 1.393 . S
C484 H473 0.950 . S
C484 C482 1.391 . S
C484 C485 1.400 . S
C485 C479 1.491 . S
C485 C484 1.400 . S
C485 C486 1.398 . S
C486 H474 0.950 . S
C486 C485 1.398 . S
C486 C487 1.391 . S
C487 H475 0.950 . S
C487 C483 1.393 . S
C487 C486 1.391 . S
H488 C496 0.950 . S
H489 C501 0.950 . S
H490 C498 0.950 . S
H491 C500 0.950 . S
H492 C502 0.950 . S
H493 C504 0.950 . S
H494 C506 0.950 . S
H495 C507 0.950 . S
C496 H488 0.950 . S
C496 C497 1.356 1_655 S
C496 C498 1.391 1_554 S
C497 C496 1.356 1_455 S
C497 C501 1.424 1_554 S
C498 H490 0.950 . S
C498 C496 1.391 1_556 S
C498 C499 1.400 1_655 S
C499 C498 1.400 1_455 S
C499 C500 1.398 . S
C499 C505 1.491 . S
C500 H491 0.950 . S
C500 C499 1.398 . S
C500 C501 1.391 . S
C501 H489 0.950 . S
C501 C497 1.424 1_556 S
C501 C500 1.391 . S
C502 H492 0.950 . S
C502 C503 1.386 . S
C502 C504 1.391 . S
C503 C502 1.386 . S
C503 C507 1.393 1_455 S
C504 H493 0.950 . S
C504 C502 1.391 . S
C504 C505 1.400 . S
C505 C499 1.491 . S
C505 C504 1.400 . S
C505 C506 1.398 1_455 S
C506 H494 0.950 . S
C506 C505 1.398 1_655 S
C506 C507 1.391 . S
C507 H495 0.950 . S
C507 C503 1.393 1_655 S
C507 C506 1.391 . S
H508 C516 0.950 . S
H509 C521 0.950 . S
H510 C518 0.950 . S
H511 C520 0.950 . S
H512 C522 0.950 . S
H513 C524 0.950 . S
H514 C526 0.950 . S
H515 C527 0.950 . S
C516 H508 0.950 . S
C516 C517 1.386 . S
C516 C518 1.391 . S
C517 C516 1.386 . S
C517 C521 1.393 1_554 S
C518 H510 0.950 . S
C518 C516 1.391 . S
C518 C519 1.400 1_554 S
C519 C518 1.400 1_556 S
C519 C520 1.398 . S
C519 C525 1.491 . S
C520 H511 0.950 . S
C520 C519 1.398 . S
C520 C521 1.391 . S
C521 H509 0.950 . S
C521 C517 1.393 1_556 S
C521 C520 1.391 . S
C522 H512 0.950 . S
C522 C523 1.386 . S
C522 C524 1.391 . S
C523 C522 1.386 . S
C523 C527 1.393 . S
C524 H513 0.950 . S
C524 C522 1.391 . S
C524 C525 1.400 . S
C525 C519 1.491 . S
C525 C524 1.400 . S
C525 C526 1.398 . S
C526 H514 0.950 . S
C526 C525 1.398 . S
C526 C527 1.391 . S
C527 H515 0.950 . S
C527 C523 1.393 . S
C527 C526 1.391 . S
H528 C536 0.950 1_554 S
H529 C541 0.950 . S
H530 C538 0.950 . S
H531 C540 0.950 . S
H532 C542 0.950 . S
H533 C544 0.950 . S
H534 C546 0.950 . S
H535 C547 0.950 . S
C536 H528 0.950 1_556 S
C536 C537 1.386 1_556 S
C536 C538 1.391 . S
C537 C536 1.386 1_554 S
C537 C541 1.393 1_554 S
C538 H530 0.950 . S
C538 C536 1.391 . S
C538 C539 1.400 . S
C539 C538 1.400 . S
C539 C540 1.398 . S
C539 C545 1.491 . S
C540 H531 0.950 . S
C540 C539 1.398 . S
C540 C541 1.391 . S
C541 H529 0.950 . S
C541 C537 1.393 1_556 S
C541 C540 1.391 . S
C542 H532 0.950 . S
C542 C543 1.386 . S
C542 C544 1.391 . S
C543 C542 1.386 . S
C543 C547 1.393 . S
C544 H533 0.950 . S
C544 C542 1.391 . S
C544 C545 1.400 . S
C545 C539 1.491 . S
C545 C544 1.400 . S
C545 C546 1.398 . S
C546 H534 0.950 . S
C546 C545 1.398 . S
C546 C547 1.391 . S
C547 H535 0.950 . S
C547 C543 1.393 . S
C547 C546 1.391 . S
H548 C556 0.950 . S
H549 C561 0.950 . S
H550 C558 0.950 . S
H551 C560 0.950 . S
H552 C562 0.950 . S
H553 C564 0.950 . S
H554 C566 0.950 . S
H555 C567 0.950 . S
C556 H548 0.950 . S
C556 C557 1.386 . S
C556 C558 1.391 . S
C557 C556 1.386 . S
C557 C561 1.393 1_554 S
C558 H550 0.950 . S
C558 C556 1.391 . S
C558 C559 1.400 1_554 S
C559 C558 1.400 1_556 S
C559 C560 1.398 . S
C559 C565 1.491 . S
C560 H551 0.950 . S
C560 C559 1.398 . S
C560 C561 1.391 . S
C561 H549 0.950 . S
C561 C557 1.393 1_556 S
C561 C560 1.391 . S
C562 H552 0.950 . S
C562 C563 1.386 . S
C562 C564 1.391 . S
C563 C562 1.386 . S
C563 C567 1.393 . S
C564 H553 0.950 . S
C564 C562 1.391 . S
C564 C565 1.400 . S
C565 C559 1.491 . S
C565 C564 1.400 . S
C565 C566 1.398 . S
C566 H554 0.950 . S
C566 C565 1.398 . S
C566 C567 1.391 . S
C567 H555 0.950 . S
C567 C563 1.393 . S
C567 C566 1.391 . S
H568 C576 0.950 . S
H569 C581 0.950 . S
H570 C578 0.950 . S
H571 C580 0.950 . S
H572 C582 0.950 . S
H573 C584 0.950 . S
H574 C586 0.950 . S
H575 C587 0.950 . S
C576 H568 0.950 . S
C576 C577 1.350 1_455 S
C576 C578 1.391 . S
C577 C576 1.350 1_655 S
C577 C581 1.431 . S
C578 H570 0.950 . S
C578 C576 1.391 . S
C578 C579 1.400 1_455 S
C579 C578 1.400 1_655 S
C579 C580 1.398 . S
C579 C585 1.491 . S
C580 H571 0.950 . S
C580 C579 1.398 . S
C580 C581 1.391 . S
C581 H569 0.950 . S
C581 C577 1.431 . S
C581 C580 1.391 . S
C582 H572 0.950 . S
C582 C583 1.386 . S
C582 C584 1.391 . S
C583 C582 1.386 . S
C583 C587 1.393 1_655 S
C584 H573 0.950 . S
C584 C582 1.391 . S
C584 C585 1.400 . S
C585 C579 1.491 . S
C585 C584 1.400 . S
C585 C586 1.398 1_655 S
C586 H574 0.950 . S
C586 C585 1.398 1_455 S
C586 C587 1.391 . S
C587 H575 0.950 . S
C587 C583 1.393 1_455 S
C587 C586 1.391 . S
H588 C596 0.950 . S
H589 C601 0.950 . S
H590 C598 0.950 . S
H591 C600 0.950 . S
H592 C602 0.950 . S
H593 C604 0.950 . S
H594 C606 0.950 1_545 S
H595 C607 0.950 1_545 S
C596 H588 0.950 . S
C596 C597 1.386 . S
C596 C598 1.391 . S
C597 C596 1.386 . S
C597 C601 1.393 . S
C598 H590 0.950 . S
C598 C596 1.391 . S
C598 C599 1.400 . S
C599 C598 1.400 . S
C599 C600 1.398 . S
C599 C605 1.491 . S
C600 H591 0.950 . S
C600 C599 1.398 . S
C600 C601 1.391 . S
C601 H589 0.950 . S
C601 C597 1.393 . S
C601 C600 1.391 . S
C602 H592 0.950 . S
C602 C603 1.386 . S
C602 C604 1.391 . S
C603 C602 1.386 . S
C603 C607 1.393 . S
C604 H593 0.950 . S
C604 C602 1.391 . S
C604 C605 1.400 . S
C605 C599 1.491 . S
C605 C604 1.400 . S
C605 C606 1.398 . S
C606 H594 0.950 1_565 S
C606 C605 1.398 . S
C606 C607 1.391 . S
C607 H595 0.950 1_565 S
C607 C603 1.393 . S
C607 C606 1.391 . S
H608 C616 0.950 . S
H609 C621 0.950 . S
H610 C618 0.950 . S
H611 C620 0.950 . S
H612 C622 0.950 . S
H613 C624 0.950 . S
H614 C626 0.950 . S
H615 C627 0.950 . S
C616 H608 0.950 . S
C616 C617 1.386 . S
C616 C618 1.391 . S
C617 C616 1.386 . S
C617 C621 1.393 . S
C618 H610 0.950 . S
C618 C616 1.391 . S
C618 C619 1.400 . S
C619 C618 1.400 . S
C619 C620 1.398 . S
C619 C625 1.491 . S
C620 H611 0.950 . S
C620 C619 1.398 . S
C620 C621 1.391 . S
C621 H609 0.950 . S
C621 C617 1.393 . S
C621 C620 1.391 . S
C622 H612 0.950 . S
C622 C623 1.386 . S
C622 C624 1.391 . S
C623 C622 1.386 . S
C623 C627 1.393 . S
C624 H613 0.950 . S
C624 C622 1.391 . S
C624 C625 1.400 . S
C625 C619 1.491 . S
C625 C624 1.400 . S
C625 C626 1.398 . S
C626 H614 0.950 . S
C626 C625 1.398 . S
C626 C627 1.391 . S
C627 H615 0.950 . S
C627 C623 1.393 . S
C627 C626 1.391 . S
H628 C636 0.950 . S
H629 C641 0.950 . S
H630 C638 0.950 . S
H631 C640 0.950 . S
H632 C642 0.950 . S
H633 C644 0.950 . S
H634 C646 0.950 . S
H635 C647 0.950 . S
C636 H628 0.950 . S
C636 C637 1.386 . S
C636 C638 1.391 . S
C637 C636 1.386 . S
C637 C641 1.393 . S
C638 H630 0.950 . S
C638 C636 1.391 . S
C638 C639 1.400 . S
C639 C638 1.400 . S
C639 C640 1.398 . S
C639 C645 1.491 . S
C640 H631 0.950 . S
C640 C639 1.398 . S
C640 C641 1.391 . S
C641 H629 0.950 . S
C641 C637 1.393 . S
C641 C640 1.391 . S
C642 H632 0.950 . S
C642 C643 1.386 . S
C642 C644 1.391 . S
C643 C642 1.386 . S
C643 C647 1.393 . S
C644 H633 0.950 . S
C644 C642 1.391 . S
C644 C645 1.400 . S
C645 C639 1.491 . S
C645 C644 1.400 . S
C645 C646 1.398 . S
C646 H634 0.950 . S
C646 C645 1.398 . S
C646 C647 1.391 . S
C647 H635 0.950 . S
C647 C643 1.393 . S
C647 C646 1.391 . S
C177 C74 1.560 . S
C183 C106 1.536 . S
C203 C126 1.387 . S
C197 C85 1.404 . S
C223 C146 1.540 . S
C217 C52 1.557 . S
C243 C166 1.390 . S
C237 C63 1.408 1_655 S
C263 C107 1.530 1_565 S
C257 C30 1.507 . S
C277 C41 1.423 . S
C283 C127 1.400 . S
C297 C8 1.511 . S
C303 C147 1.541 . S
C317 C19 1.423 . S
C323 C167 1.416 . S
C343 C97 0.892 . S
C337 C62 0.891 . S
C363 C117 0.908 . S
C357 C73 0.953 . S
C383 C137 0.866 . S
C377 C84 0.915 . S
C397 C51 0.934 . S
C403 C157 0.919 . S
C417 C18 0.884 . S
C423 C100 0.844 . S
C443 C120 0.929 1_545 S
C437 C29 0.942 . S
C463 C140 0.907 . S
C457 C40 0.901 . S
C477 C7 0.901 . S
C483 C160 0.887 . S
C497 C60 1.306 . S
C503 C90 1.480 . S
C517 C71 1.434 . S
C523 C110 1.530 . S
C543 C130 1.461 . S
C537 C82 1.258 . S
C563 C150 1.553 . S
C557 C49 1.452 . S
C577 C16 1.278 1_655 S
C583 C92 1.449 . S
C603 C112 1.511 . S
C597 C27 1.238 . S
C623 C132 1.441 . S
C617 C38 1.286 . S
C637 C5 1.257 . S
C643 C152 1.529 . S
