# Generated by pormake.
# Topology iac, (4,6)-cn, num edge types: 1
# Building blocks:
#     Node 0, Type 0, BuildingBlock: GALJAG_clean_sbu_0, # of connection points: 4
#     Node 1, Type 0, BuildingBlock: GALJAG_clean_sbu_0, # of connection points: 4
#     Node 2, Type 0, BuildingBlock: GALJAG_clean_sbu_0, # of connection points: 4
#     Node 3, Type 0, BuildingBlock: GALJAG_clean_sbu_0, # of connection points: 4
#     Node 4, Type 0, BuildingBlock: GALJAG_clean_sbu_0, # of connection points: 4
#     Node 5, Type 0, BuildingBlock: GALJAG_clean_sbu_0, # of connection points: 4
#     Node 6, Type 0, BuildingBlock: GALJAG_clean_sbu_0, # of connection points: 4
#     Node 7, Type 0, BuildingBlock: GALJAG_clean_sbu_0, # of connection points: 4
#     Node 8, Type 0, BuildingBlock: GALJAG_clean_sbu_0, # of connection points: 4
#     Node 9, Type 0, BuildingBlock: GALJAG_clean_sbu_0, # of connection points: 4
#     Node 10, Type 0, BuildingBlock: GALJAG_clean_sbu_0, # of connection points: 4
#     Node 11, Type 0, BuildingBlock: GALJAG_clean_sbu_0, # of connection points: 4
#     Node 12, Type 0, BuildingBlock: GALJAG_clean_sbu_0, # of connection points: 4
#     Node 13, Type 0, BuildingBlock: GALJAG_clean_sbu_0, # of connection points: 4
#     Node 14, Type 0, BuildingBlock: GALJAG_clean_sbu_0, # of connection points: 4
#     Node 15, Type 0, BuildingBlock: GALJAG_clean_sbu_0, # of connection points: 4
#     Node 16, Type 0, BuildingBlock: GALJAG_clean_sbu_0, # of connection points: 4
#     Node 17, Type 0, BuildingBlock: GALJAG_clean_sbu_0, # of connection points: 4
#     Node 18, Type 0, BuildingBlock: GALJAG_clean_sbu_0, # of connection points: 4
#     Node 19, Type 0, BuildingBlock: GALJAG_clean_sbu_0, # of connection points: 4
#     Node 20, Type 0, BuildingBlock: GALJAG_clean_sbu_0, # of connection points: 4
#     Node 21, Type 0, BuildingBlock: GALJAG_clean_sbu_0, # of connection points: 4
#     Node 22, Type 0, BuildingBlock: GALJAG_clean_sbu_0, # of connection points: 4
#     Node 23, Type 0, BuildingBlock: GALJAG_clean_sbu_0, # of connection points: 4
#     Node 24, Type 1, BuildingBlock: CIFDUS_clean_sbu_1, # of connection points: 6
#     Node 25, Type 1, BuildingBlock: CIFDUS_clean_sbu_1, # of connection points: 6
#     Node 26, Type 1, BuildingBlock: CIFDUS_clean_sbu_1, # of connection points: 6
#     Node 27, Type 1, BuildingBlock: CIFDUS_clean_sbu_1, # of connection points: 6
#     Node 28, Type 1, BuildingBlock: CIFDUS_clean_sbu_1, # of connection points: 6
#     Node 29, Type 1, BuildingBlock: CIFDUS_clean_sbu_1, # of connection points: 6
#     Node 30, Type 1, BuildingBlock: CIFDUS_clean_sbu_1, # of connection points: 6
#     Node 31, Type 1, BuildingBlock: CIFDUS_clean_sbu_1, # of connection points: 6
#     Node 32, Type 1, BuildingBlock: CIFDUS_clean_sbu_1, # of connection points: 6
#     Node 33, Type 1, BuildingBlock: CIFDUS_clean_sbu_1, # of connection points: 6
#     Node 34, Type 1, BuildingBlock: CIFDUS_clean_sbu_1, # of connection points: 6
#     Node 35, Type 1, BuildingBlock: CIFDUS_clean_sbu_1, # of connection points: 6
#     Node 36, Type 1, BuildingBlock: CIFDUS_clean_sbu_1, # of connection points: 6
#     Node 37, Type 1, BuildingBlock: CIFDUS_clean_sbu_1, # of connection points: 6
#     Node 38, Type 1, BuildingBlock: CIFDUS_clean_sbu_1, # of connection points: 6
#     Node 39, Type 1, BuildingBlock: CIFDUS_clean_sbu_1, # of connection points: 6
#     Edge 40, Type (0, 1), BuildingBlock: AJUNOK_clean_linker_0, # of connection points: 2
#     Edge 41, Type (0, 1), BuildingBlock: AJUNOK_clean_linker_0, # of connection points: 2
#     Edge 42, Type (0, 1), BuildingBlock: AJUNOK_clean_linker_0, # of connection points: 2
#     Edge 43, Type (0, 1), BuildingBlock: AJUNOK_clean_linker_0, # of connection points: 2
#     Edge 44, Type (0, 1), BuildingBlock: AJUNOK_clean_linker_0, # of connection points: 2
#     Edge 45, Type (0, 1), BuildingBlock: AJUNOK_clean_linker_0, # of connection points: 2
#     Edge 46, Type (0, 1), BuildingBlock: AJUNOK_clean_linker_0, # of connection points: 2
#     Edge 47, Type (0, 1), BuildingBlock: AJUNOK_clean_linker_0, # of connection points: 2
#     Edge 48, Type (0, 1), BuildingBlock: AJUNOK_clean_linker_0, # of connection points: 2
#     Edge 49, Type (0, 1), BuildingBlock: AJUNOK_clean_linker_0, # of connection points: 2
#     Edge 50, Type (0, 1), BuildingBlock: AJUNOK_clean_linker_0, # of connection points: 2
#     Edge 51, Type (0, 1), BuildingBlock: AJUNOK_clean_linker_0, # of connection points: 2
#     Edge 52, Type (0, 1), BuildingBlock: AJUNOK_clean_linker_0, # of connection points: 2
#     Edge 53, Type (0, 1), BuildingBlock: AJUNOK_clean_linker_0, # of connection points: 2
#     Edge 54, Type (0, 1), BuildingBlock: AJUNOK_clean_linker_0, # of connection points: 2
#     Edge 55, Type (0, 1), BuildingBlock: AJUNOK_clean_linker_0, # of connection points: 2
#     Edge 56, Type (0, 1), BuildingBlock: AJUNOK_clean_linker_0, # of connection points: 2
#     Edge 57, Type (0, 1), BuildingBlock: AJUNOK_clean_linker_0, # of connection points: 2
#     Edge 58, Type (0, 1), BuildingBlock: AJUNOK_clean_linker_0, # of connection points: 2
#     Edge 59, Type (0, 1), BuildingBlock: AJUNOK_clean_linker_0, # of connection points: 2
#     Edge 60, Type (0, 1), BuildingBlock: AJUNOK_clean_linker_0, # of connection points: 2
#     Edge 61, Type (0, 1), BuildingBlock: AJUNOK_clean_linker_0, # of connection points: 2
#     Edge 62, Type (0, 1), BuildingBlock: AJUNOK_clean_linker_0, # of connection points: 2
#     Edge 63, Type (0, 1), BuildingBlock: AJUNOK_clean_linker_0, # of connection points: 2
#     Edge 64, Type (0, 1), BuildingBlock: AJUNOK_clean_linker_0, # of connection points: 2
#     Edge 65, Type (0, 1), BuildingBlock: AJUNOK_clean_linker_0, # of connection points: 2
#     Edge 66, Type (0, 1), BuildingBlock: AJUNOK_clean_linker_0, # of connection points: 2
#     Edge 67, Type (0, 1), BuildingBlock: AJUNOK_clean_linker_0, # of connection points: 2
#     Edge 68, Type (0, 1), BuildingBlock: AJUNOK_clean_linker_0, # of connection points: 2
#     Edge 69, Type (0, 1), BuildingBlock: AJUNOK_clean_linker_0, # of connection points: 2
#     Edge 70, Type (0, 1), BuildingBlock: AJUNOK_clean_linker_0, # of connection points: 2
#     Edge 71, Type (0, 1), BuildingBlock: AJUNOK_clean_linker_0, # of connection points: 2
#     Edge 72, Type (0, 1), BuildingBlock: AJUNOK_clean_linker_0, # of connection points: 2
#     Edge 73, Type (0, 1), BuildingBlock: AJUNOK_clean_linker_0, # of connection points: 2
#     Edge 74, Type (0, 1), BuildingBlock: AJUNOK_clean_linker_0, # of connection points: 2
#     Edge 75, Type (0, 1), BuildingBlock: AJUNOK_clean_linker_0, # of connection points: 2
#     Edge 76, Type (0, 1), BuildingBlock: AJUNOK_clean_linker_0, # of connection points: 2
#     Edge 77, Type (0, 1), BuildingBlock: AJUNOK_clean_linker_0, # of connection points: 2
#     Edge 78, Type (0, 1), BuildingBlock: AJUNOK_clean_linker_0, # of connection points: 2
#     Edge 79, Type (0, 1), BuildingBlock: AJUNOK_clean_linker_0, # of connection points: 2
#     Edge 80, Type (0, 1), BuildingBlock: AJUNOK_clean_linker_0, # of connection points: 2
#     Edge 81, Type (0, 1), BuildingBlock: AJUNOK_clean_linker_0, # of connection points: 2
#     Edge 82, Type (0, 1), BuildingBlock: AJUNOK_clean_linker_0, # of connection points: 2
#     Edge 83, Type (0, 1), BuildingBlock: AJUNOK_clean_linker_0, # of connection points: 2
#     Edge 84, Type (0, 1), BuildingBlock: AJUNOK_clean_linker_0, # of connection points: 2
#     Edge 85, Type (0, 1), BuildingBlock: AJUNOK_clean_linker_0, # of connection points: 2
#     Edge 86, Type (0, 1), BuildingBlock: AJUNOK_clean_linker_0, # of connection points: 2
#     Edge 87, Type (0, 1), BuildingBlock: AJUNOK_clean_linker_0, # of connection points: 2
#     Edge 88, Type (0, 1), BuildingBlock: AJUNOK_clean_linker_0, # of connection points: 2
#     Edge 89, Type (0, 1), BuildingBlock: AJUNOK_clean_linker_0, # of connection points: 2
#     Edge 90, Type (0, 1), BuildingBlock: AJUNOK_clean_linker_0, # of connection points: 2
#     Edge 91, Type (0, 1), BuildingBlock: AJUNOK_clean_linker_0, # of connection points: 2
#     Edge 92, Type (0, 1), BuildingBlock: AJUNOK_clean_linker_0, # of connection points: 2
#     Edge 93, Type (0, 1), BuildingBlock: AJUNOK_clean_linker_0, # of connection points: 2
#     Edge 94, Type (0, 1), BuildingBlock: AJUNOK_clean_linker_0, # of connection points: 2
#     Edge 95, Type (0, 1), BuildingBlock: AJUNOK_clean_linker_0, # of connection points: 2
#     Edge 96, Type (0, 1), BuildingBlock: AJUNOK_clean_linker_0, # of connection points: 2
#     Edge 97, Type (0, 1), BuildingBlock: AJUNOK_clean_linker_0, # of connection points: 2
#     Edge 98, Type (0, 1), BuildingBlock: AJUNOK_clean_linker_0, # of connection points: 2
#     Edge 99, Type (0, 1), BuildingBlock: AJUNOK_clean_linker_0, # of connection points: 2
#     Edge 100, Type (0, 1), BuildingBlock: AJUNOK_clean_linker_0, # of connection points: 2
#     Edge 101, Type (0, 1), BuildingBlock: AJUNOK_clean_linker_0, # of connection points: 2
#     Edge 102, Type (0, 1), BuildingBlock: AJUNOK_clean_linker_0, # of connection points: 2
#     Edge 103, Type (0, 1), BuildingBlock: AJUNOK_clean_linker_0, # of connection points: 2
#     Edge 104, Type (0, 1), BuildingBlock: AJUNOK_clean_linker_0, # of connection points: 2
#     Edge 105, Type (0, 1), BuildingBlock: AJUNOK_clean_linker_0, # of connection points: 2
#     Edge 106, Type (0, 1), BuildingBlock: AJUNOK_clean_linker_0, # of connection points: 2
#     Edge 107, Type (0, 1), BuildingBlock: AJUNOK_clean_linker_0, # of connection points: 2
#     Edge 108, Type (0, 1), BuildingBlock: AJUNOK_clean_linker_0, # of connection points: 2
#     Edge 109, Type (0, 1), BuildingBlock: AJUNOK_clean_linker_0, # of connection points: 2
#     Edge 110, Type (0, 1), BuildingBlock: AJUNOK_clean_linker_0, # of connection points: 2
#     Edge 111, Type (0, 1), BuildingBlock: AJUNOK_clean_linker_0, # of connection points: 2
#     Edge 112, Type (0, 1), BuildingBlock: AJUNOK_clean_linker_0, # of connection points: 2
#     Edge 113, Type (0, 1), BuildingBlock: AJUNOK_clean_linker_0, # of connection points: 2
#     Edge 114, Type (0, 1), BuildingBlock: AJUNOK_clean_linker_0, # of connection points: 2
#     Edge 115, Type (0, 1), BuildingBlock: AJUNOK_clean_linker_0, # of connection points: 2
#     Edge 116, Type (0, 1), BuildingBlock: AJUNOK_clean_linker_0, # of connection points: 2
#     Edge 117, Type (0, 1), BuildingBlock: AJUNOK_clean_linker_0, # of connection points: 2
#     Edge 118, Type (0, 1), BuildingBlock: AJUNOK_clean_linker_0, # of connection points: 2
#     Edge 119, Type (0, 1), BuildingBlock: AJUNOK_clean_linker_0, # of connection points: 2
#     Edge 120, Type (0, 1), BuildingBlock: AJUNOK_clean_linker_0, # of connection points: 2
#     Edge 121, Type (0, 1), BuildingBlock: AJUNOK_clean_linker_0, # of connection points: 2
#     Edge 122, Type (0, 1), BuildingBlock: AJUNOK_clean_linker_0, # of connection points: 2
#     Edge 123, Type (0, 1), BuildingBlock: AJUNOK_clean_linker_0, # of connection points: 2
#     Edge 124, Type (0, 1), BuildingBlock: AJUNOK_clean_linker_0, # of connection points: 2
#     Edge 125, Type (0, 1), BuildingBlock: AJUNOK_clean_linker_0, # of connection points: 2
#     Edge 126, Type (0, 1), BuildingBlock: AJUNOK_clean_linker_0, # of connection points: 2
#     Edge 127, Type (0, 1), BuildingBlock: AJUNOK_clean_linker_0, # of connection points: 2
#     Edge 128, Type (0, 1), BuildingBlock: AJUNOK_clean_linker_0, # of connection points: 2
#     Edge 129, Type (0, 1), BuildingBlock: AJUNOK_clean_linker_0, # of connection points: 2
#     Edge 130, Type (0, 1), BuildingBlock: AJUNOK_clean_linker_0, # of connection points: 2
#     Edge 131, Type (0, 1), BuildingBlock: AJUNOK_clean_linker_0, # of connection points: 2
#     Edge 132, Type (0, 1), BuildingBlock: AJUNOK_clean_linker_0, # of connection points: 2
#     Edge 133, Type (0, 1), BuildingBlock: AJUNOK_clean_linker_0, # of connection points: 2
#     Edge 134, Type (0, 1), BuildingBlock: AJUNOK_clean_linker_0, # of connection points: 2
#     Edge 135, Type (0, 1), BuildingBlock: AJUNOK_clean_linker_0, # of connection points: 2
# Relax obj value: 0.123
# Max RMSD: 0.166
# Mean RMSD: 0.133
data_MOF--net-iac--node1-GALJAG_clean_sbu_0--node2-CIFDUS_clean_sbu_1--edge1-AJUNOK_clean_linker_0
_symmetry_space_group_name_H-M    P1
_symmetry_Int_Tables_number       1
_symmetry_cell_setting            triclinic
loop_
_symmetry_equiv_pos_as_xyz
'x, y, z'
_cell_length_a     40.539707
_cell_length_b     40.369574
_cell_length_c     40.560589
_cell_angle_alpha  89.711826
_cell_angle_beta   89.447697
_cell_angle_gamma 89.48145
loop_
_atom_site_label
_atom_site_type_symbol
_atom_site_fract_x
_atom_site_fract_y
_atom_site_fract_z
_atom_type_partial_charge
In0 In 0.00515 0.25793 0.12641 0.0
O1 O 0.00551 0.22795 0.0784 0.0
O2 O 0.01068 0.20078 0.12268 0.0
C3 C 0.00161 0.31974 0.09945 0.0
C4 C 0.94735 0.25719 0.16088 0.0
C5 C 0.06408 0.25888 0.1581 0.0
O6 O 0.99555 0.29402 0.08311 0.0
O7 O 0.00989 0.31416 0.12881 0.0
O8 O 0.03743 0.25123 0.17241 0.0
O9 O 0.06107 0.26523 0.12767 0.0
C10 C 0.00906 0.19986 0.0917 0.0
O11 O 0.97536 0.25896 0.17377 0.0
O12 O 0.94794 0.25583 0.12988 0.0
In13 In 0.0037 0.7538 0.37583 0.0
O14 O 0.03538 0.73546 0.33257 0.0
O15 O 0.05789 0.76667 0.36767 0.0
C16 C 0.9436 0.75923 0.34948 0.0
C17 C 0.00646 0.69601 0.40887 0.0
C18 C 0.00445 0.81241 0.40571 0.0
O19 O 0.9696 0.76681 0.33393 0.0
O20 O 0.94799 0.74752 0.37799 0.0
O21 O 0.01214 0.78564 0.42015 0.0
O22 O 0.99637 0.80971 0.37592 0.0
C23 C 0.06121 0.74964 0.34191 0.0
O24 O 0.00428 0.72329 0.42388 0.0
O25 O 0.00589 0.69819 0.37787 0.0
In26 In 0.50491 0.75788 0.62452 0.0
O27 O 0.49705 0.7929 0.57989 0.0
O28 O 0.50992 0.81373 0.62568 0.0
C29 C 0.5074 0.69647 0.59597 0.0
C30 C 0.56169 0.75915 0.66005 0.0
C31 C 0.4462 0.75605 0.65642 0.0
O32 O 0.51598 0.72243 0.58062 0.0
O33 O 0.49786 0.70172 0.62518 0.0
O34 O 0.47386 0.75515 0.67031 0.0
O35 O 0.44757 0.75871 0.62542 0.0
C36 C 0.50274 0.8189 0.59604 0.0
O37 O 0.53365 0.76567 0.67211 0.0
O38 O 0.56138 0.75151 0.62986 0.0
In39 In 0.503 0.25318 0.88005 0.0
O40 O 0.53394 0.24745 0.83272 0.0
O41 O 0.55897 0.25516 0.87771 0.0
C42 C 0.44565 0.25804 0.84781 0.0
C43 C 0.506 0.1948 0.91217 0.0
C44 C 0.49805 0.31233 0.90932 0.0
O45 O 0.4735 0.25632 0.83389 0.0
O46 O 0.44624 0.2554 0.87877 0.0
O47 O 0.49098 0.28546 0.92352 0.0
O48 O 0.50964 0.30944 0.88051 0.0
C49 C 0.56123 0.25029 0.84701 0.0
O50 O 0.51191 0.22166 0.92653 0.0
O51 O 0.49782 0.19769 0.88239 0.0
In52 In 0.13259 0.00277 0.2563 0.0
O53 O 0.18044 0.97198 0.25493 0.0
O54 O 0.13575 0.94618 0.26277 0.0
C55 C 0.16426 0.06274 0.25199 0.0
C56 C 0.09874 -0.00114 0.19828 0.0
C57 C 0.10298 -0.00023 0.31682 0.0
O58 O 0.1791 0.03513 0.25071 0.0
O59 O 0.1334 0.06018 0.25525 0.0
O60 O 0.08825 0.99307 0.29047 0.0
O61 O 0.13246 0.00868 0.31263 0.0
C62 C 0.16671 0.94434 0.25967 0.0
O63 O 0.08779 0.0148 0.22277 0.0
O64 O 0.12659 0.98562 0.20287 0.0
In65 In 0.26001 0.88221 0.5018 0.0
O66 O 0.22836 0.92642 0.51771 0.0
O67 O 0.20532 0.88828 0.49067 0.0
C68 C 0.31819 0.91248 0.49625 0.0
C69 C 0.25805 0.84829 0.55896 0.0
C70 C 0.25958 0.85369 0.44256 0.0
O71 O 0.29093 0.92676 0.49109 0.0
O72 O 0.31624 0.88293 0.50637 0.0
O73 O 0.25044 0.83889 0.46858 0.0
O74 O 0.26853 0.8832 0.44633 0.0
C75 C 0.20219 0.91561 0.50533 0.0
O76 O 0.26434 0.83384 0.53208 0.0
O77 O 0.25428 0.87923 0.55677 0.0
In78 In 0.3794 0.00412 0.75607 0.0
O79 O 0.33222 0.03502 0.7499 0.0
O80 O 0.3776 0.0601 0.75669 0.0
C81 C 0.35186 0.94435 0.76084 0.0
C82 C 0.41173 0.00545 0.69779 0.0
C83 C 0.40941 0.0034 0.8146 0.0
O84 O 0.33722 0.97066 0.76926 0.0
O85 O 0.38004 0.94809 0.74803 0.0
O86 O 0.42474 0.00486 0.78746 0.0
O87 O 0.37849 0.00317 0.81238 0.0
C88 C 0.34692 0.06223 0.75244 0.0
O89 O 0.42676 0.00567 0.7249 0.0
O90 O 0.38066 0.00385 0.70033 0.0
In91 In 0.25898 0.13097 0.00555 0.0
O92 O 0.28678 0.08234 -0.00133 0.0
O93 O 0.31541 0.12553 0.00408 0.0
C94 C 0.19775 0.1045 0.00262 0.0
C95 C 0.26329 0.15563 0.06744 0.0
C96 C 0.26094 0.1654 0.94869 0.0
O97 O 0.22372 0.08809 0.00843 0.0
O98 O 0.20225 0.13515 -0.0017 0.0
O99 O 0.25727 0.17905 0.97648 0.0
O100 O 0.26309 0.13425 0.94964 0.0
C101 C 0.31521 0.09467 -0.00038 0.0
O102 O 0.27213 0.17173 0.04221 0.0
O103 O 0.25144 0.12757 0.06166 0.0
In104 In 0.75994 0.37989 0.00101 0.0
O105 O 0.75071 0.33212 0.0307 0.0
O106 O 0.76455 0.3755 0.05624 0.0
C107 C 0.76257 0.35251 0.94161 0.0
C108 C 0.70335 0.41564 0.00475 0.0
C109 C 0.82023 0.40574 -0.0021 0.0
O110 O 0.75818 0.33564 0.96757 0.0
O111 O 0.76468 0.38342 0.94532 0.0
O112 O 0.79442 0.42334 0.99664 0.0
O113 O 0.81592 0.37507 0.00144 0.0
C114 C 0.75672 0.34542 0.05804 0.0
O115 O 0.72954 0.42428 0.01859 0.0
O116 O 0.70566 0.38923 0.98843 0.0
In117 In 0.88391 0.50472 0.25467 0.0
O118 O 0.93005 0.51524 0.22245 0.0
O119 O 0.88527 0.50167 0.19938 0.0
C120 C 0.91162 0.49959 0.31403 0.0
C121 C 0.8484 0.56106 0.25088 0.0
C122 C 0.85449 0.44574 0.25974 0.0
O123 O 0.9272 0.49301 0.28768 0.0
O124 O 0.88285 0.51093 0.31022 0.0
O125 O 0.84035 0.47264 0.2672 0.0
O126 O 0.8834 0.44857 0.24847 0.0
C127 C 0.91493 0.51014 0.19584 0.0
O128 O 0.83823 0.53372 0.24027 0.0
O129 O 0.87665 0.56018 0.26379 0.0
In130 In 0.75534 0.63268 0.50361 0.0
O131 O 0.78429 0.58429 0.50274 0.0
O132 O 0.8115 0.62882 0.50008 0.0
C133 C 0.69398 0.6061 0.50347 0.0
C134 C 0.76183 0.66399 0.56236 0.0
C135 C 0.75912 0.66154 0.44361 0.0
O136 O 0.72004 0.58979 0.50899 0.0
O137 O 0.69849 0.63665 0.4986 0.0
O138 O 0.75944 0.67777 0.47013 0.0
O139 O 0.75621 0.63066 0.44733 0.0
C140 C 0.81225 0.59764 0.50076 0.0
O141 O 0.76055 0.67879 0.53495 0.0
O142 O 0.75813 0.63308 0.56059 0.0
In143 In 0.63283 0.50283 0.75601 0.0
O144 O 0.6784 0.46849 0.76323 0.0
O145 O 0.63211 0.44634 0.7541 0.0
C146 C 0.66093 0.56435 0.75275 0.0
C147 C 0.60086 0.49966 0.69706 0.0
C148 C 0.60663 0.50194 0.81771 0.0
O149 O 0.67678 0.53809 0.74578 0.0
O150 O 0.63107 0.55953 0.76025 0.0
O151 O 0.58977 0.49514 0.7926 0.0
O152 O 0.63628 0.50896 0.81161 0.0
C153 C 0.66234 0.44202 0.75975 0.0
O154 O 0.58631 0.50904 0.72317 0.0
O155 O 0.63116 0.49328 0.70065 0.0
In156 In 0.00882 0.75762 0.87947 0.0
O157 O 0.04408 0.74785 0.83665 0.0
O158 O 0.06488 0.76459 0.8813 0.0
C159 C 0.95062 0.75837 0.84693 0.0
C160 C 0.01271 0.69797 0.91064 0.0
C161 C 0.00203 0.81732 0.90979 0.0
O162 O 0.97779 0.76289 0.83217 0.0
O163 O 0.95316 0.75276 0.87741 0.0
O164 O 0.00089 0.7899 0.92488 0.0
O165 O 0.00769 0.81481 0.8792 0.0
C166 C 0.06993 0.75451 0.85227 0.0
O167 O 0.01132 0.72507 0.92603 0.0
O168 O 0.01099 0.70098 0.87977 0.0
In169 In 0.00695 0.25204 0.62815 0.0
O170 O 0.0056 0.28525 0.58197 0.0
O171 O 0.00482 0.30745 0.62935 0.0
C172 C 0.0103 0.19336 0.5989 0.0
C173 C 0.0644 0.25399 0.66039 0.0
C174 C 0.94894 0.24818 0.66073 0.0
O175 O 0.0137 0.22022 0.5832 0.0
O176 O 0.00414 0.1961 0.62927 0.0
O177 O 0.97628 0.24414 0.67469 0.0
O178 O 0.95052 0.25402 0.63014 0.0
C179 C 0.00421 0.31155 0.5986 0.0
O180 O 0.03699 0.26278 0.67237 0.0
O181 O 0.06347 0.24502 0.63071 0.0
In182 In 0.51024 0.2551 0.37808 0.0
O183 O 0.54966 0.24698 0.33754 0.0
O184 O 0.56527 0.26348 0.38442 0.0
C185 C 0.45282 0.25414 0.34437 0.0
C186 C 0.51206 0.19333 0.4045 0.0
C187 C 0.50221 0.31421 0.40985 0.0
O188 O 0.47933 0.26408 0.33103 0.0
O189 O 0.4554 0.24554 0.3742 0.0
O190 O 0.50058 0.28652 0.42455 0.0
O191 O 0.5076 0.31196 0.37921 0.0
C192 C 0.57348 0.25456 0.35581 0.0
O193 O 0.51573 0.2191 0.42166 0.0
O194 O 0.50709 0.19881 0.37434 0.0
In195 In 0.50737 0.75091 0.12803 0.0
O196 O 0.50924 0.71875 0.08315 0.0
O197 O 0.50108 0.69525 0.13 0.0
C198 C 0.5084 0.81002 0.09677 0.0
C199 C 0.45116 0.75141 0.16337 0.0
C200 C 0.56726 0.74964 0.1554 0.0
O201 O 0.50542 0.7834 0.08097 0.0
O202 O 0.51061 0.80633 0.12748 0.0
O203 O 0.54225 0.7626 0.16887 0.0
O204 O 0.5623 0.7364 0.12788 0.0
C205 C 0.50485 0.69227 0.09924 0.0
O206 O 0.47899 0.74863 0.17665 0.0
O207 O 0.45144 0.75373 0.13234 0.0
In208 In 0.88249 0.00337 0.75053 0.0
O209 O 0.92693 0.00796 0.71676 0.0
O210 O 0.88015 0.00322 0.69412 0.0
C211 C 0.91643 0.00071 0.80762 0.0
C212 C 0.85533 0.06527 0.75081 0.0
C213 C 0.85363 0.94265 0.75555 0.0
O214 O 0.93083 0.00212 0.77988 0.0
O215 O 0.88532 0.00052 0.8063 0.0
O216 O 0.839 0.96921 0.76374 0.0
O217 O 0.88227 0.94687 0.74385 0.0
C218 C 0.9108 0.0073 0.69032 0.0
O219 O 0.83928 0.04031 0.74157 0.0
O220 O 0.88406 0.05862 0.76035 0.0
In221 In 0.75561 0.13022 0.50304 0.0
O222 O 0.7851 0.08139 0.50048 0.0
O223 O 0.81095 0.12637 0.50613 0.0
C224 C 0.6949 0.1058 0.50345 0.0
C225 C 0.75708 0.15509 0.56397 0.0
C226 C 0.75522 0.16583 0.44676 0.0
O227 O 0.71978 0.08866 0.49504 0.0
O228 O 0.70046 0.1354 0.51144 0.0
O229 O 0.75981 0.17894 0.4744 0.0
O230 O 0.75075 0.13503 0.44741 0.0
C231 C 0.81251 0.09536 0.50396 0.0
O232 O 0.76693 0.17092 0.5389 0.0
O233 O 0.74607 0.12655 0.55844 0.0
In234 In 0.63022 0.00782 0.25191 0.0
O235 O 0.67598 0.9742 0.24687 0.0
O236 O 0.62936 0.95287 0.25773 0.0
C237 C 0.6576 0.06744 0.25126 0.0
C238 C 0.59902 0.00367 0.1946 0.0
C239 C 0.60174 0.01094 0.31181 0.0
O240 O 0.67371 0.04118 0.25713 0.0
O241 O 0.62746 0.06356 0.24521 0.0
O242 O 0.58513 0.01343 0.28576 0.0
O243 O 0.63234 0.0072 0.30729 0.0
C244 C 0.65982 0.94829 0.25315 0.0
O245 O 0.58485 0.00053 0.22224 0.0
O246 O 0.62963 0.00901 0.19572 0.0
In247 In 0.7509 0.88017 0.00998 0.0
O248 O 0.71672 0.92551 0.01251 0.0
O249 O 0.69491 0.87785 0.01278 0.0
C250 C 0.81192 0.90801 0.01069 0.0
C251 C 0.75001 0.85376 0.07126 0.0
C252 C 0.74691 0.84886 0.95085 0.0
O253 O 0.78541 0.92472 0.01105 0.0
O254 O 0.80793 0.87711 0.00872 0.0
O255 O 0.7471 0.83397 0.97831 0.0
O256 O 0.74972 0.87997 0.95284 0.0
C257 C 0.69061 0.90872 0.01473 0.0
O258 O 0.75181 0.83615 0.04564 0.0
O259 O 0.74977 0.88448 0.06598 0.0
In260 In 0.25449 0.63006 0.00355 0.0
O261 O 0.26576 0.67073 0.03977 0.0
O262 O 0.23933 0.62891 0.05767 0.0
C263 C 0.25267 0.66316 0.94583 0.0
C264 C 0.31377 0.59922 0.00506 0.0
C265 C 0.19633 0.60043 0.00247 0.0
O266 O 0.24869 0.67746 0.97318 0.0
O267 O 0.25759 0.63228 0.94778 0.0
O268 O 0.22314 0.58455 0.00571 0.0
O269 O 0.19892 0.63135 -0.00142 0.0
C270 C 0.25219 0.65634 0.06393 0.0
O271 O 0.28718 0.58336 0.00319 0.0
O272 O 0.31019 0.63022 0.00583 0.0
In273 In 0.13148 0.50743 0.75062 0.0
O274 O 0.17742 0.47483 0.74447 0.0
O275 O 0.13112 0.45151 0.7515 0.0
C276 C 0.16273 0.56473 0.75183 0.0
C277 C 0.10381 0.5084 0.69144 0.0
C278 C 0.10111 0.50599 0.80976 0.0
O279 O 0.1771 0.53718 0.75586 0.0
O280 O 0.13176 0.5636 0.74912 0.0
O281 O 0.08535 0.51192 0.78368 0.0
O282 O 0.1318 0.50239 0.80577 0.0
C283 C 0.16182 0.44811 0.74748 0.0
O284 O 0.08848 0.49997 0.71732 0.0
O285 O 0.13326 0.51702 0.69529 0.0
In286 In 0.24943 0.38153 0.5125 0.0
O287 O 0.24271 0.33614 0.54448 0.0
O288 O 0.24923 0.38248 0.56845 0.0
C289 C 0.24743 0.35216 0.45229 0.0
C290 C 0.18988 0.41092 0.51771 0.0
C291 C 0.30995 0.40941 0.51146 0.0
O292 O 0.253 0.33679 0.47891 0.0
O293 O 0.24352 0.38296 0.45569 0.0
O294 O 0.2839 0.42476 0.50353 0.0
O295 O 0.30559 0.37984 0.52062 0.0
C296 C 0.24362 0.35187 0.57131 0.0
O297 O 0.21644 0.42708 0.51763 0.0
O298 O 0.19361 0.38011 0.51478 0.0
In299 In 0.38356 0.50505 0.25315 0.0
O300 O 0.42469 0.51689 0.21547 0.0
O301 O 0.38179 0.49333 0.19812 0.0
C302 C 0.41557 0.5076 0.31099 0.0
C303 C 0.3507 0.56344 0.24862 0.0
C304 C 0.3533 0.44586 0.26141 0.0
O305 O 0.42973 0.49768 0.28493 0.0
O306 O 0.38582 0.51619 0.30783 0.0
O307 O 0.33801 0.47326 0.2612 0.0
O308 O 0.3841 0.44825 0.25724 0.0
C309 C 0.40931 0.50585 0.19099 0.0
O310 O 0.3365 0.53577 0.24757 0.0
O311 O 0.3815 0.56161 0.25245 0.0
O312 O 0.05006 0.03263 0.99552 0.0
Mn313 Mn 0.00569 0.00581 0.00311 0.0
O314 O 0.08949 0.99496 0.98521 0.0
Mn315 Mn 0.06685 0.96144 0.00574 0.0
O316 O 0.96183 0.97728 0.01143 0.0
O317 O 0.98549 0.05285 0.01518 0.0
Mn318 Mn 0.94635 0.0434 -0.0026 0.0
O319 O 0.99393 0.00953 0.95265 0.0
O320 O 0.92246 0.01393 0.02155 0.0
O321 O 0.02 -3e-05 0.05329 0.0
O322 O 0.06378 0.96513 0.05099 0.0
O323 O 0.93982 0.08462 0.00927 0.0
O324 O 0.94561 0.03591 0.95279 0.0
C325 C 0.03349 0.9318 0.97996 0.0
C326 C 0.08017 0.02487 0.98839 0.0
C327 C 0.93198 0.98423 0.0203 0.0
C328 C 0.9695 0.08126 0.02059 0.0
C329 C 0.96824 0.0203 0.93771 0.0
C330 C 0.04359 0.9833 0.06726 0.0
O331 O 0.02647 0.96147 0.99057 0.0
O332 O 0.06306 0.92122 0.98613 0.0
O333 O 0.30709 0.75613 0.24096 0.0
Mn334 Mn 0.25761 0.75221 0.25499 0.0
O335 O 0.30843 0.78991 0.19679 0.0
Mn336 Mn 0.26319 0.79433 0.19339 0.0
O337 O 0.20816 0.74733 0.26988 0.0
O338 O 0.26993 0.70812 0.27646 0.0
Mn339 Mn 0.25338 0.70811 0.31656 0.0
O340 O 0.2657 0.77923 0.29811 0.0
O341 O 0.20816 0.71124 0.31258 0.0
O342 O 0.2494 0.72486 0.21198 0.0
O343 O 0.24269 0.76123 0.17084 0.0
O344 O 0.27385 0.66807 0.31335 0.0
O345 O 0.27286 0.74206 0.33872 0.0
C346 C 0.23676 0.82683 0.22364 0.0
C347 C 0.32266 0.77154 0.21797 0.0
C348 C 0.19327 0.73013 0.29227 0.0
C349 C 0.28061 0.67852 0.28383 0.0
C350 C 0.27192 0.77172 0.3282 0.0
C351 C 0.24263 0.73185 0.1819 0.0
O352 O 0.24582 0.79715 0.23346 0.0
O353 O 0.24484 0.83514 0.19374 0.0
O354 O 0.46375 0.98355 0.49226 0.0
Mn355 Mn 0.5066 0.00886 0.5042 0.0
O356 O 0.42264 0.0214 0.4954 0.0
Mn357 Mn 0.44733 0.05597 0.51111 0.0
O358 O 0.54944 0.03424 0.51551 0.0
O359 O 0.52741 0.96444 0.51661 0.0
Mn360 Mn 0.56525 0.96206 0.49528 0.0
O361 O 0.52377 0.00674 0.45518 0.0
O362 O 0.59092 -0.00252 0.50757 0.0
O363 O 0.4894 0.01167 0.55346 0.0
O364 O 0.45477 0.05527 0.55561 0.0
O365 O 0.56413 0.92374 0.51868 0.0
O366 O 0.55483 0.96098 0.45153 0.0
C367 C 0.47894 0.08181 0.47894 0.0
C368 C 0.4333 0.99218 0.4897 0.0
C369 C 0.58017 0.0264 0.51442 0.0
C370 C 0.53549 0.93518 0.52769 0.0
C371 C 0.54131 0.98613 0.43844 0.0
C372 C 0.47023 0.03161 0.56949 0.0
O373 O 0.48595 0.05301 0.49155 0.0
O374 O 0.45071 0.09439 0.48765 0.0
O375 O 0.30061 0.2671 0.77912 0.0
Mn376 Mn 0.25534 0.2563 0.75611 0.0
O377 O 0.33473 0.28206 0.73866 0.0
Mn378 Mn 0.31353 0.25712 0.70826 0.0
O379 O 0.2098 0.24537 0.7336 0.0
O380 O 0.23895 0.24334 0.80297 0.0
Mn381 Mn 0.20315 0.26832 0.80486 0.0
O382 O 0.23995 0.30601 0.75899 0.0
O383 O 0.17352 0.25792 0.77332 0.0
O384 O 0.27208 0.20715 0.74991 0.0
O385 O 0.31513 0.21218 0.71478 0.0
O386 O 0.19982 0.2469 0.84282 0.0
O387 O 0.21369 0.312 0.80658 0.0
C388 C 0.27638 0.27956 0.68091 0.0
C389 C 0.32858 0.27827 0.76905 0.0
C390 C 0.17991 0.24888 0.74415 0.0
C391 C 0.22812 0.23533 0.83263 0.0
C392 C 0.22528 0.32424 0.78033 0.0
C393 C 0.29615 0.19467 0.73279 0.0
O394 O 0.27208 0.2687 0.71072 0.0
O395 O 0.30532 0.27469 0.66789 0.0
O396 O -0.00244 0.95825 0.47821 0.0
Mn397 Mn 0.00579 0.00227 0.5039 0.0
O398 O 0.99351 0.91812 0.51661 0.0
Mn399 Mn 0.01221 0.94189 0.54987 0.0
O400 O 0.01471 0.04595 0.52968 0.0
O401 O 0.01772 0.02346 0.45961 0.0
Mn402 Mn -0.0015 0.06272 0.45877 0.0
O403 O 0.95634 0.01656 0.50039 0.0
O404 O 0.01643 0.08704 0.49215 0.0
O405 O 0.05517 0.98791 0.508 0.0
O406 O 0.05732 0.94739 0.54634 0.0
O407 O 0.01968 0.06019 0.41923 0.0
O408 O 0.95361 0.05698 0.46219 0.0
C409 C 0.98258 0.97467 0.57733 0.0
C410 C 0.99323 0.92792 0.48679 0.0
C411 C 0.01917 0.07637 0.52153 0.0
C412 C 0.02881 0.03146 0.43041 0.0
C413 C 0.94015 0.03773 0.48312 0.0
C414 C 0.07111 0.96699 0.52588 0.0
O415 O 0.99393 0.98135 0.54802 0.0
O416 O 0.99084 0.94602 0.58932 0.0
O417 O 0.28139 0.79851 0.76498 0.0
Mn418 Mn 0.25594 0.75592 0.75267 0.0
O419 O 0.24479 0.84036 0.76798 0.0
Mn420 Mn 0.21088 0.81659 0.74988 0.0
O421 O 0.23121 0.71277 0.73972 0.0
O422 O 0.30311 0.73727 0.73811 0.0
Mn423 Mn 0.29833 0.70606 0.76921 0.0
O424 O 0.25564 0.74021 0.80245 0.0
O425 O 0.26501 0.6766 0.76359 0.0
O426 O 0.25221 0.77338 0.70365 0.0
O427 O 0.21232 0.81225 0.705 0.0
O428 O 0.33409 0.69172 0.75018 0.0
O429 O 0.30476 0.72053 0.81103 0.0
C430 C 0.18268 0.7841 0.77848 0.0
C431 C 0.2739 0.82881 0.77066 0.0
C432 C 0.23891 0.68312 0.74811 0.0
C433 C 0.33034 0.7191 0.7338 0.0
C434 C 0.27764 0.73027 0.82251 0.0
C435 C 0.23321 0.79464 0.68922 0.0
O436 O 0.21163 0.77627 0.76643 0.0
O437 O 0.17172 0.81352 0.77151 0.0
O438 O 0.4782 0.99625 0.96087 0.0
Mn439 Mn 0.5031 0.00337 0.00559 0.0
O440 O 0.51677 0.97893 0.92502 0.0
Mn441 Mn 0.55032 -0.00106 0.94683 0.0
O442 O 0.52782 0.01089 0.05067 0.0
O443 O 0.45969 0.0212 0.02537 0.0
Mn444 Mn 0.46007 0.00497 0.06615 0.0
O445 O 0.49459 0.9546 0.01961 0.0
O446 O 0.49011 0.03181 0.08544 0.0
O447 O 0.51303 0.05189 0.98917 0.0
O448 O 0.54896 0.04442 0.94717 0.0
O449 O 0.41691 0.01017 0.05679 0.0
O450 O 0.47218 0.96089 0.06947 0.0
C451 C 0.57583 0.97304 0.98308 0.0
C452 C 0.48699 0.98574 0.93221 0.0
C453 C 0.51973 0.02357 0.07876 0.0
C454 C 0.42783 0.01745 0.02755 0.0
C455 C 0.48573 0.94294 0.04758 0.0
C456 C 0.53066 0.06304 0.96493 0.0
O457 O 0.54692 0.9864 0.98778 0.0
O458 O 0.58865 0.97666 0.95392 0.0
O459 O 0.30626 0.25111 0.27317 0.0
Mn460 Mn 0.25671 0.2559 0.25744 0.0
O461 O 0.30721 0.2108 0.31099 0.0
Mn462 Mn 0.26196 0.20949 0.3152 0.0
O463 O 0.20645 0.25993 0.24078 0.0
O464 O 0.27323 0.30172 0.2377 0.0
Mn465 Mn 0.2495 0.29684 0.20105 0.0
O466 O 0.26835 0.22794 0.21528 0.0
O467 O 0.20594 0.3041 0.20853 0.0
O468 O 0.24552 0.28206 0.3022 0.0
O469 O 0.24406 0.24217 0.34072 0.0
O470 O 0.27082 0.33283 0.19114 0.0
O471 O 0.2586 0.26201 0.17347 0.0
C472 C 0.23276 0.18057 0.28502 0.0
C473 C 0.32201 0.23207 0.29323 0.0
C474 C 0.19074 0.28077 0.22231 0.0
C475 C 0.28145 0.32896 0.22101 0.0
C476 C 0.26596 0.23366 0.18439 0.0
C477 C 0.24166 0.27245 0.33252 0.0
O478 O 0.24298 0.2102 0.27627 0.0
O479 O 0.24146 0.17009 0.31394 0.0
O480 O 0.4954 0.45964 0.97886 0.0
Mn481 Mn 0.5066 0.50287 0.00396 0.0
O482 O 0.5005 0.41841 0.01615 0.0
Mn483 Mn 0.51596 0.44391 0.05022 0.0
O484 O 0.51715 0.54605 0.02878 0.0
O485 O 0.5196 0.52386 0.95933 0.0
Mn486 Mn 0.49493 0.55991 0.9573 0.0
O487 O 0.45706 0.51918 0.00259 0.0
O488 O 0.50572 0.58674 0.99226 0.0
O489 O 0.55614 0.48721 0.00648 0.0
O490 O 0.56047 0.45236 0.04938 0.0
O491 O 0.51829 0.56181 0.91945 0.0
O492 O 0.45182 0.54723 0.95569 0.0
C493 C 0.48293 0.47361 0.07745 0.0
C494 C 0.49385 0.42903 0.98733 0.0
C495 C 0.51422 0.57664 0.02074 0.0
C496 C 0.53051 0.53422 0.93061 0.0
C497 C 0.43936 0.53505 0.98166 0.0
C498 C 0.57337 0.46945 0.02641 0.0
O499 O 0.49445 0.48205 0.0485 0.0
O500 O 0.49328 0.44543 0.08896 0.0
O501 O 0.78173 0.29991 0.26196 0.0
Mn502 Mn 0.75578 0.25677 0.25324 0.0
O503 O 0.74516 0.34128 0.25356 0.0
Mn504 Mn 0.71004 0.31494 0.24258 0.0
O505 O 0.72761 0.2139 0.24545 0.0
O506 O 0.80192 0.23611 0.24106 0.0
Mn507 Mn 0.79349 0.19551 0.25559 0.0
O508 O 0.76001 0.24342 0.30256 0.0
O509 O 0.7635 0.17615 0.22909 0.0
O510 O 0.75195 0.27067 0.20313 0.0
O511 O 0.70717 0.30281 0.19935 0.0
O512 O 0.83461 0.19064 0.2419 0.0
O513 O 0.78562 0.19415 0.3006 0.0
C514 C 0.68407 0.29003 0.27945 0.0
C515 C 0.77384 0.33071 0.26095 0.0
C516 C 0.73414 0.18507 0.23412 0.0
C517 C 0.83049 0.22159 0.23403 0.0
C518 C 0.77143 0.21732 0.31649 0.0
C519 C 0.73096 0.28726 0.18602 0.0
O520 O 0.7121 0.279 0.26735 0.0
O521 O 0.67282 0.31747 0.26695 0.0
O522 O 0.97516 0.48991 0.46461 0.0
Mn523 Mn 0.00291 0.50372 0.50503 0.0
O524 O 0.00823 0.50645 0.42408 0.0
Mn525 Mn 0.04385 0.51131 0.45099 0.0
O526 O 0.03031 0.51611 0.54653 0.0
O527 O 0.95859 0.5209 0.52463 0.0
Mn528 Mn 0.95861 0.49927 0.56228 0.0
O529 O -0.00132 0.45538 0.5243 0.0
O530 O 0.99435 0.50778 0.58791 0.0
O531 O 0.00705 0.55312 0.48608 0.0
O532 O 0.0554 0.55295 0.46197 0.0
O533 O 0.92285 0.52426 0.56744 0.0
O534 O 0.95219 0.45567 0.55316 0.0
C535 C 0.07316 0.47513 0.46741 0.0
C536 C 0.98111 0.49494 0.43411 0.0
C537 C 0.02326 0.51337 0.57729 0.0
C538 C 0.93046 0.53179 0.53714 0.0
C539 C 0.97655 0.44019 0.5411 0.0
C540 C 0.0308 0.56889 0.47212 0.0
O541 O 0.04737 0.48437 0.4856 0.0
O542 O 0.07697 0.48716 0.43796 0.0
O543 O 0.79529 0.76921 0.28096 0.0
Mn544 Mn 0.75399 0.75536 0.25481 0.0
O545 O 0.83599 0.7509 0.24882 0.0
Mn546 Mn 0.81029 0.74376 0.21245 0.0
O547 O 0.71098 0.74283 0.23026 0.0
O548 O 0.73397 0.74161 0.29929 0.0
Mn549 Mn 0.69723 0.76451 0.30264 0.0
O550 O 0.73601 0.80448 0.25719 0.0
O551 O 0.67079 0.75523 0.26705 0.0
O552 O 0.77129 0.70559 0.25236 0.0
O553 O 0.80011 0.70059 0.2057 0.0
O554 O 0.69682 0.73974 0.33977 0.0
O555 O 0.71059 0.80744 0.30584 0.0
C556 C 0.7916 0.78541 0.18857 0.0
C557 C 0.82576 0.76363 0.27536 0.0
C558 C 0.6805 0.74684 0.23828 0.0
C559 C 0.72534 0.73034 0.3283 0.0
C560 C 0.72121 0.82119 0.27984 0.0
C561 C 0.78582 0.6876 0.23035 0.0
O562 O 0.7729 0.76738 0.20825 0.0
O563 O 0.82073 0.77347 0.18197 0.0
O564 O 0.80554 0.25565 0.74088 0.0
Mn565 Mn 0.75573 0.25185 0.75397 0.0
O566 O 0.80879 0.28975 0.69752 0.0
Mn567 Mn 0.76416 0.2963 0.69324 0.0
O568 O 0.70575 0.2464 0.7688 0.0
O569 O 0.7699 0.20821 0.77567 0.0
Mn570 Mn 0.74969 0.20645 0.81409 0.0
O571 O 0.76368 0.27866 0.7969 0.0
O572 O 0.70537 0.20497 0.80604 0.0
O573 O 0.7483 0.22564 0.71011 0.0
O574 O 0.74381 0.2638 0.66947 0.0
O575 O 0.77389 0.16853 0.81303 0.0
O576 O 0.76314 0.24199 0.83883 0.0
C577 C 0.73991 0.32771 0.72831 0.0
C578 C 0.82205 0.27076 0.71849 0.0
C579 C 0.69049 0.22666 0.78879 0.0
C580 C 0.78271 0.17973 0.78431 0.0
C581 C 0.76643 0.27123 0.82753 0.0
C582 C 0.74339 0.23389 0.67981 0.0
O583 O 0.74186 0.29545 0.73097 0.0
O584 O 0.75161 0.33886 0.70062 0.0
O585 O 0.8052 0.75519 0.77072 0.0
Mn586 Mn 0.75528 0.75562 0.75611 0.0
O587 O 0.81269 0.71116 0.80334 0.0
Mn588 Mn 0.76827 0.70787 0.81209 0.0
O589 O 0.70523 0.75689 0.7409 0.0
O590 O 0.76529 0.80149 0.737 0.0
Mn591 Mn 0.74286 0.8048 0.70008 0.0
O592 O 0.76725 0.73271 0.71082 0.0
O593 O 0.69852 0.80233 0.70964 0.0
O594 O 0.74364 0.77897 0.80156 0.0
O595 O 0.75216 0.73996 0.84038 0.0
O596 O 0.76447 0.84398 0.70281 0.0
O597 O 0.75847 0.77208 0.67227 0.0
C598 C 0.7366 0.67896 0.7839 0.0
C599 C 0.82386 0.73619 0.78809 0.0
C600 C 0.68691 0.77713 0.72431 0.0
C601 C 0.7759 0.83111 0.72973 0.0
C602 C 0.76692 0.74274 0.68057 0.0
C603 C 0.74425 0.76937 0.83197 0.0
O604 O 0.74539 0.70899 0.77506 0.0
O605 O 0.74882 0.66776 0.81122 0.0
O606 O 0.5468 0.53407 0.49763 0.0
Mn607 Mn 0.50358 0.50551 0.50472 0.0
O608 O 0.58429 0.49959 0.47723 0.0
Mn609 Mn 0.56583 0.46547 0.5008 0.0
O610 O 0.45936 0.47845 0.51241 0.0
O611 O 0.48262 0.55003 0.51687 0.0
Mn612 Mn 0.44168 0.54959 0.50224 0.0
O613 O 0.48887 0.51227 0.4558 0.0
O614 O 0.42006 0.51601 0.52417 0.0
O615 O 0.51961 0.49748 0.55404 0.0
O616 O 0.5674 0.46958 0.54623 0.0
O617 O 0.44615 0.59045 0.52036 0.0
O618 O 0.44324 0.54454 0.45709 0.0
C619 C 0.53399 0.43223 0.47834 0.0
C620 C 0.57555 0.52859 0.48524 0.0
C621 C 0.42941 0.48612 0.5205 0.0
C622 C 0.47565 0.57992 0.52688 0.0
C623 C 0.46459 0.52712 0.44167 0.0
C624 C 0.54619 0.48345 0.56522 0.0
O625 O 0.52423 0.46125 0.48932 0.0
O626 O 0.56484 0.42481 0.48235 0.0
O627 O 0.96382 0.48108 0.99004 0.0
Mn628 Mn 0.0054 0.5082 0.0014 0.0
O629 O 0.92076 0.51617 0.99189 0.0
Mn630 Mn 0.94374 0.55364 0.00242 0.0
O631 O 0.04821 0.53343 0.01261 0.0
O632 O 0.02521 0.46389 0.01709 0.0
Mn633 Mn 0.06151 0.45973 0.99364 0.0
O634 O 0.02348 0.50388 0.95242 0.0
O635 O 0.08816 0.49535 0.00271 0.0
O636 O 0.98629 0.51439 0.04987 0.0
O637 O 0.95085 0.55769 0.04699 0.0
O638 O 0.0625 0.42332 0.0194 0.0
O639 O 0.04834 0.45486 0.95101 0.0
C640 C 0.97755 0.57607 0.96755 0.0
C641 C 0.93296 0.48738 0.98847 0.0
C642 C 0.07864 0.5245 0.0104 0.0
C643 C 0.03442 0.43532 0.02942 0.0
C644 C 0.03811 0.48056 0.93641 0.0
C645 C 0.96593 0.53524 0.06344 0.0
O646 O 0.98469 0.55222 0.9879 0.0
O647 O 0.94718 0.58577 0.97051 0.0
C648 C 0.97072 0.16656 0.05941 0.0
C649 C 0.00182 0.16901 0.07362 0.0
C650 C 0.96133 0.13811 0.04276 0.0
C651 C 0.98272 0.11045 0.03883 0.0
H652 H 0.95306 0.18679 0.06164 0.0
H653 H 0.9366 0.13818 0.03291 0.0
S654 S 0.0687 0.10578 0.06927 0.0
N655 N 0.05508 0.14233 0.08207 0.0
N656 N 0.0378 0.08863 0.04941 0.0
C657 C 0.01449 0.11279 0.05241 0.0
C658 C 0.02392 0.14204 0.07015 0.0
C659 C 0.11565 0.77139 0.32331 0.0
C660 C 0.09343 0.74493 0.32547 0.0
C661 C 0.14739 0.7668 0.31 0.0
C662 C 0.15799 0.73559 0.29881 0.0
H663 H 0.10867 0.79562 0.33255 0.0
H664 H 0.16441 0.78733 0.31029 0.0
S665 S 0.11046 0.65768 0.30242 0.0
N666 N 0.08472 0.68613 0.31697 0.0
N667 N 0.14481 0.67739 0.29281 0.0
C668 C 0.13619 0.70886 0.30126 0.0
C669 C 0.1037 0.7136 0.31427 0.0
C670 C 0.49256 0.85778 0.54873 0.0
C671 C 0.5033 0.85258 0.58125 0.0
C672 C 0.49816 0.88801 0.53247 0.0
C673 C 0.51462 0.91395 0.54819 0.0
H674 H 0.48165 0.83774 0.53505 0.0
H675 H 0.49261 0.88987 0.50643 0.0
S676 S 0.54436 0.91458 0.63407 0.0
N677 N 0.52812 0.87752 0.62961 0.0
N678 N 0.53897 0.93383 0.59849 0.0
C679 C 0.52279 0.91017 0.58142 0.0
C680 C 0.51712 0.87954 0.5981 0.0
C681 C 0.38374 0.2615 0.84296 0.0
C682 C 0.41543 0.26557 0.82905 0.0
C683 C 0.35521 0.26778 0.82428 0.0
C684 C 0.35754 0.27901 0.79136 0.0
H685 H 0.38098 0.2524 0.868 0.0
H686 H 0.33135 0.26256 0.83529 0.0
S687 S 0.43539 0.29702 0.74514 0.0
N688 N 0.44751 0.28332 0.78137 0.0
N689 N 0.39481 0.29685 0.74708 0.0
C690 C 0.38936 0.28519 0.77819 0.0
C691 C 0.41804 0.2779 0.79676 0.0
C692 C 0.98132 0.86939 0.41511 0.0
C693 C 0.00443 0.84427 0.42291 0.0
C694 C 0.97826 0.89788 0.43481 0.0
C695 C -0.00162 0.90163 0.46247 0.0
H696 H 0.96452 0.86624 0.39478 0.0
H697 H 0.95927 0.91609 0.42935 0.0
S698 S 0.06696 0.84634 0.48884 0.0
N699 N 0.05056 0.8274 0.45706 0.0
N700 N 0.04525 0.88075 0.49358 0.0
C701 C 0.02326 0.87797 0.46862 0.0
C702 C 0.02615 0.84922 0.44897 0.0
C703 C 0.38497 0.76259 0.66917 0.0
C704 C 0.41594 0.74759 0.67505 0.0
C705 C 0.357 0.75411 0.6885 0.0
C706 C 0.35924 0.72986 0.71355 0.0
H707 H 0.3825 0.78121 0.65002 0.0
H708 H 0.33363 0.76628 0.68365 0.0
S709 S 0.43539 0.6831 0.73739 0.0
N710 N 0.44706 0.70727 0.70676 0.0
N711 N 0.39594 0.69154 0.74293 0.0
C712 C 0.39044 0.71489 0.7192 0.0
C713 C 0.41837 0.72363 0.69992 0.0
C714 C 0.50417 0.15409 0.95937 0.0
C715 C 0.51338 0.16224 0.92681 0.0
C716 C 0.51038 0.12215 0.97224 0.0
C717 C 0.52686 0.09788 0.95319 0.0
H718 H 0.49128 0.17212 0.97455 0.0
H719 H 0.5019 0.11635 0.99699 0.0
S720 S 0.55823 0.10905 0.86698 0.0
N721 N 0.54086 0.14483 0.87647 0.0
N722 N 0.55348 0.08568 0.90006 0.0
C723 C 0.53722 0.10671 0.92086 0.0
C724 C 0.53023 0.13866 0.90783 0.0
C725 C 0.12268 0.2768 0.15889 0.0
C726 C 0.09602 0.26236 0.17568 0.0
C727 C 0.15266 0.2823 0.17457 0.0
C728 C 0.15784 0.27346 0.20793 0.0
H729 H 0.12037 0.28443 0.13335 0.0
H730 H 0.17216 0.29352 0.16001 0.0
S731 S 0.09639 0.23372 0.26296 0.0
N732 N 0.07678 0.2386 0.22768 0.0
N733 N 0.13385 0.24855 0.25696 0.0
C734 C 0.13175 0.25824 0.22496 0.0
C735 C 0.10071 0.25293 0.20897 0.0
C736 C 0.08514 0.96537 0.14887 0.0
C737 C 0.08038 0.99458 0.16698 0.0
C738 C 0.07054 0.96112 0.11803 0.0
C739 C 0.05097 0.98617 0.10327 0.0
H740 H 0.1008 0.9457 0.15836 0.0
H741 H 0.07595 0.93833 0.10497 0.0
S742 S 0.02923 0.0668 0.14166 0.0
N743 N 0.05297 0.04827 0.16918 0.0
N744 N 0.02615 0.04071 0.11058 0.0
C745 C 0.04468 0.01496 0.12187 0.0
C746 C 0.0593 0.01909 0.15376 0.0
C747 C 0.24042 0.80936 0.40632 0.0
C748 C 0.26056 0.83695 0.41056 0.0
C749 C 0.24357 0.78976 0.37843 0.0
C750 C 0.26721 0.79673 0.35385 0.0
H751 H 0.22266 0.80225 0.42514 0.0
H752 H 0.22799 0.76816 0.37659 0.0
S753 S 0.32346 0.86837 0.35139 0.0
N754 N 0.30296 0.8724 0.3866 0.0
N755 N 0.30903 0.83471 0.3337 0.0
C756 C 0.2861 0.82547 0.35648 0.0
C757 C 0.28275 0.8458 0.38509 0.0
C758 C 0.409 0.0171 0.63799 0.0
C759 C 0.42845 0.0095 0.66545 0.0
C760 C 0.42329 0.02357 0.60734 0.0
C761 C 0.4577 0.02253 0.60253 0.0
H762 H 0.38239 0.01886 0.6402 0.0
H763 H 0.40702 0.02966 0.58709 0.0
S764 S 0.51988 0.00207 0.66586 0.0
N765 N 0.48418 0.00013 0.68581 0.0
N766 N 0.51107 0.01186 0.62728 0.0
C767 C 0.47766 0.01384 0.62932 0.0
C768 C 0.46302 0.00758 0.66104 0.0
C769 C 0.25842 0.16728 0.88701 0.0
C770 C 0.2604 0.18415 0.91733 0.0
C771 C 0.25214 0.1845 0.85752 0.0
C772 C 0.2483 0.21902 0.85761 0.0
H773 H 0.25949 0.14047 0.88633 0.0
H774 H 0.24744 0.1706 0.83529 0.0
S775 S 0.25472 0.27508 0.92929 0.0
N776 N 0.26076 0.23764 0.94474 0.0
N777 N 0.24961 0.26976 0.88936 0.0
C778 C 0.25308 0.23628 0.88712 0.0
C779 C 0.25891 0.21891 0.91706 0.0
C780 C 0.10114 0.01585 0.3764 0.0
C781 C 0.08637 -0.00025 0.34965 0.0
C782 C 0.08349 0.02169 0.40577 0.0
C783 C 0.05072 0.01118 0.40965 0.0
H784 H 0.12559 0.02622 0.37381 0.0
H785 H 0.09447 0.03728 0.4243 0.0
S786 S 0.00257 0.96339 0.34951 0.0
N787 N 0.03834 0.96971 0.33077 0.0
N788 N 0.00545 0.98088 0.38608 0.0
C789 C 0.03684 0.99235 0.38448 0.0
C790 C 0.05459 0.98662 0.35441 0.0
C791 C 0.2267 0.84466 0.61083 0.0
C792 C 0.25093 0.83088 0.59014 0.0
C793 C 0.21992 0.83109 0.64164 0.0
C794 C 0.23767 0.80345 0.65381 0.0
H795 H 0.21294 0.86653 0.60331 0.0
H796 H 0.20133 0.8436 0.65648 0.0
S797 S 0.30144 0.75592 0.60732 0.0
N798 N 0.29076 0.78627 0.58195 0.0
N799 N 0.27874 0.76091 0.64104 0.0
C800 C 0.26096 0.78827 0.63262 0.0
C801 C 0.26743 0.80195 0.60053 0.0
C802 C 0.46107 0.00551 0.84568 0.0
C803 C 0.42696 0.00057 0.84605 0.0
C804 C 0.47963 0.00044 0.87381 0.0
C805 C 0.46502 0.99017 0.90376 0.0
H806 H 0.47382 0.01309 0.82331 0.0
H807 H 0.5059 0.00494 0.87191 0.0
S808 S 0.37601 0.9756 0.91837 0.0
N809 N 0.37857 0.98608 0.879 0.0
N810 N 0.41402 0.9769 0.93271 0.0
C811 C 0.43066 0.98629 0.90504 0.0
C812 C 0.41151 0.99133 0.87596 0.0
C813 C 0.23509 0.18047 0.11604 0.0
C814 C 0.26445 0.16972 0.1008 0.0
C815 C 0.23585 0.19885 0.14525 0.0
C816 C 0.26593 0.2065 0.16039 0.0
H817 H 0.21159 0.1764 0.10429 0.0
H818 H 0.21287 0.20883 0.15503 0.0
S819 S 0.3491 0.17986 0.13262 0.0
N820 N 0.32408 0.16508 0.1044 0.0
N821 N 0.32534 0.19919 0.15987 0.0
C822 C 0.2952 0.19376 0.14673 0.0
C823 C 0.2945 0.17546 0.11667 0.0
C824 C 0.16245 0.05662 0.01594 0.0
C825 C 0.16518 0.08799 0.00121 0.0
C826 C 0.13425 0.0376 0.01229 0.0
C827 C 0.10724 0.04878 0.99358 0.0
H828 H 0.18267 0.04616 0.02996 0.0
H829 H 0.13394 0.01335 0.0239 0.0
S830 S 0.09985 0.1309 0.95311 0.0
N831 N 0.13706 0.13103 0.96952 0.0
N832 N 0.0835 0.09468 0.96272 0.0
C833 C 0.10844 0.081 0.9804 0.0
C834 C 0.13756 0.10071 0.98414 0.0
C835 C 0.64857 0.43455 0.98377 0.0
C836 C 0.67189 0.43372 0.00921 0.0
C837 C 0.61745 0.44933 0.98859 0.0
C838 C 0.60842 0.46287 0.01928 0.0
H839 H 0.65416 0.4231 0.96024 0.0
H840 H 0.5996 0.44819 0.9689 0.0
S841 S 0.66045 0.46665 0.09376 0.0
N842 N 0.68416 0.44836 0.06582 0.0
N843 N 0.62515 0.47483 0.07526 0.0
C844 C 0.63173 0.46274 0.04465 0.0
C845 C 0.66363 0.44848 0.03951 0.0
C846 C 0.80916 0.41247 0.2835 0.0
C847 C 0.83787 0.41375 0.26388 0.0
C848 C 0.78994 0.38405 0.28467 0.0
C849 C 0.79888 0.35588 0.26645 0.0
H850 H 0.80066 0.43403 0.29705 0.0
H851 H 0.76698 0.38471 0.29858 0.0
S852 S 0.87346 0.34513 0.21404 0.0
N853 N 0.87592 0.3834 0.22804 0.0
N854 N 0.83941 0.32964 0.2304 0.0
C855 C 0.82875 0.35578 0.24872 0.0
C856 C 0.84839 0.3849 0.24736 0.0
C857 C 0.87404 0.59475 0.49938 0.0
C858 C 0.84344 0.57852 0.50245 0.0
C859 C 0.90376 0.5783 0.50681 0.0
C860 C 0.90357 0.54518 0.51722 0.0
H861 H 0.87489 0.62084 0.49311 0.0
H862 H 0.92649 0.59223 0.50701 0.0
S863 S 0.83084 0.49073 0.52664 0.0
N864 N 0.81544 0.52667 0.51442 0.0
N865 N 0.87113 0.49592 0.52793 0.0
C866 C 0.87354 0.52804 0.51788 0.0
C867 C 0.84344 0.54468 0.51063 0.0
C868 C 0.1643 0.12492 0.25952 0.0
C869 C 0.18174 0.09534 0.25231 0.0
C870 C 0.18089 0.1549 0.26547 0.0
C871 C 0.21552 0.15664 0.26382 0.0
H872 H 0.13776 0.1245 0.26279 0.0
H873 H 0.16671 0.17603 0.2742 0.0
S874 S 0.27266 0.08774 0.24233 0.0
N875 N 0.23573 0.0709 0.24104 0.0
N876 N 0.26641 0.12702 0.25187 0.0
C877 C 0.23293 0.12803 0.254 0.0
C878 C 0.21623 0.09747 0.24837 0.0
C879 C 0.37871 0.91914 0.50589 0.0
C880 C 0.34971 0.92918 0.48973 0.0
C881 C 0.40758 0.93796 0.50309 0.0
C882 C 0.40807 0.96709 0.48392 0.0
H883 H 0.37854 0.89787 0.52228 0.0
H884 H 0.42866 0.93113 0.51797 0.0
S885 S 0.34085 -0.00033 0.43135 0.0
N886 N 0.32494 0.96693 0.44987 0.0
N887 N 0.37904 0.00216 0.4448 0.0
C888 C 0.38023 0.97541 0.46528 0.0
C889 C 0.35101 0.95649 0.46818 0.0
C890 C 0.82927 0.61622 0.2716 0.0
C891 C 0.82922 0.59192 0.24691 0.0
C892 C 0.81215 0.64629 0.26735 0.0
C893 C 0.79524 0.6532 0.23792 0.0
H894 H 0.84297 0.61216 0.29409 0.0
H895 H 0.81391 0.66502 0.2863 0.0
S896 S 0.78861 0.5981 0.16559 0.0
N897 N 0.81067 0.57655 0.19233 0.0
N898 N 0.77975 0.63363 0.18381 0.0
C899 C 0.79478 0.62895 0.2133 0.0
C900 C 0.81148 0.59812 0.21793 0.0
C901 C 0.67297 0.39129 0.72718 0.0
C902 C 0.6782 0.40902 0.75626 0.0
C903 C 0.69018 0.3618 0.72075 0.0
C904 C 0.71354 0.34873 0.743 0.0
H905 H 0.65686 0.40128 0.70833 0.0
H906 H 0.68725 0.35059 0.69672 0.0
S907 S 0.73106 0.3824 0.82574 0.0
N908 N 0.70422 0.40903 0.80994 0.0
N909 N 0.73757 0.35376 0.79732 0.0
C910 C 0.71703 0.36483 0.77338 0.0
C911 C 0.69922 0.39502 0.78007 0.0
C912 C 1e-05 0.84948 0.96217 0.0
C913 C -4e-05 0.84953 0.92748 0.0
C914 C 0.00537 0.87859 0.97989 0.0
C915 C 0.01074 0.90895 0.96373 0.0
H916 H -0.00151 0.82639 0.97581 0.0
H917 H 0.00885 0.87663 0.00629 0.0
S918 S 0.00402 0.92434 0.87395 0.0
N919 N -0.00117 0.88393 0.87796 0.0
N920 N 0.00951 0.93862 0.91161 0.0
C921 C 0.00654 0.91022 0.92943 0.0
C922 C 0.00106 0.88047 0.91119 0.0
C923 C 0.90969 0.28314 0.69209 0.0
C924 C 0.91823 0.25181 0.67972 0.0
C925 C 0.87931 0.2885 0.70793 0.0
C926 C 0.85687 0.26251 0.71242 0.0
H927 H 0.92601 0.30396 0.68823 0.0
H928 H 0.87255 0.31349 0.71512 0.0
S929 S 0.86845 0.17551 0.68554 0.0
N930 N 0.90273 0.19421 0.67367 0.0
N931 N 0.84565 0.20409 0.70416 0.0
C932 C 0.86592 0.23063 0.70165 0.0
C933 C 0.89666 0.22532 0.68498 0.0
C934 C 0.52667 0.15326 0.44939 0.0
C935 C 0.51116 0.15962 0.41908 0.0
C936 C 0.52081 0.12381 0.46697 0.0
C937 C 0.49903 0.10001 0.4549 0.0
H938 H 0.54176 0.17205 0.4606 0.0
H939 H 0.53044 0.12138 0.49171 0.0
S940 S 0.45569 0.10249 0.375 0.0
N941 N 0.47625 0.13762 0.37598 0.0
N942 N 0.46487 0.08277 0.40952 0.0
C943 C 0.4861 0.10453 0.42322 0.0
C944 C 0.49215 0.13433 0.40518 0.0
C945 C 0.62045 0.72247 0.17175 0.0
C946 C 0.59954 0.75051 0.17122 0.0
C947 C 0.64825 0.72153 0.19228 0.0
C948 C 0.65542 0.74862 0.21252 0.0
H949 H 0.61423 0.70062 0.15781 0.0
H950 H 0.66301 0.69908 0.19367 0.0
S951 S 0.61231 0.83004 0.21401 0.0
N952 N 0.59086 0.80748 0.18823 0.0
N953 N 0.64251 0.80568 0.22693 0.0
C954 C 0.63607 0.77752 0.20999 0.0
C955 C 0.60824 0.77852 0.1892 0.0
C956 C 0.03845 0.15878 0.55721 0.0
C957 C 0.01542 0.16126 0.58309 0.0
C958 C 0.04213 0.12945 0.53955 0.0
C959 C 0.0226 0.10177 0.54693 0.0
H960 H 0.05311 0.17996 0.54994 0.0
H961 H 0.05895 0.12907 0.51861 0.0
S962 S 0.95906 0.09583 0.61303 0.0
N963 N 0.97382 0.13362 0.6165 0.0
N964 N 0.97995 0.07841 0.5824 0.0
C965 C 0.00063 0.10338 0.57392 0.0
C966 C 0.99714 0.13328 0.5922 0.0
C967 C 0.6217 0.29031 0.34669 0.0
C968 C 0.60724 0.2592 0.34304 0.0
C969 C 0.65032 0.29844 0.32915 0.0
C970 C 0.66554 0.27571 0.30745 0.0
H971 H 0.60937 0.30943 0.36101 0.0
H972 H 0.65877 0.32382 0.33018 0.0
S973 S 0.64366 0.18744 0.29887 0.0
N974 N 0.61427 0.20299 0.32289 0.0
N975 N 0.66878 0.21834 0.28996 0.0
C976 C 0.65407 0.24305 0.30739 0.0
C977 C 0.62447 0.23482 0.32502 0.0
C978 C 0.50396 0.87052 0.10326 0.0
C979 C 0.50641 0.8434 0.08187 0.0
C980 C 0.49798 0.90228 0.09139 0.0
C981 C 0.49435 0.90866 0.05748 0.0
H982 H 0.50563 0.86724 0.12972 0.0
H983 H 0.49584 0.92202 0.10931 0.0
S984 S 0.50474 0.84715 0.99046 0.0
N985 N 0.50896 0.82524 0.02473 0.0
N986 N 0.498 0.88584 0.0021 0.0
C987 C 0.49919 0.88226 0.03537 0.0
C988 C 0.50507 0.8494 0.04766 0.0
C989 C 0.91586 0.75129 0.79618 0.0
C990 C 0.91825 0.75836 0.83013 0.0
C991 C 0.88495 0.74619 0.78138 0.0
C992 C 0.85569 0.74858 0.8001 0.0
H993 H 0.93801 0.74788 0.7814 0.0
H994 H 0.88405 0.73873 0.7558 0.0
S995 S 0.84815 0.77236 0.88808 0.0
N996 N 0.88826 0.77161 0.88067 0.0
N997 N 0.83068 0.76245 0.85293 0.0
C998 C 0.85773 0.75826 0.83324 0.0
C999 C 0.88889 0.76308 0.84827 0.0
C1000 C 0.91723 0.98921 0.86781 0.0
C1001 C 0.9339 0.0008 0.83958 0.0
C1002 C 0.93027 0.99348 0.89925 0.0
C1003 C 0.96046 0.00964 0.90389 0.0
H1004 H 0.89323 0.97783 0.86576 0.0
H1005 H 0.91577 0.98544 0.92037 0.0
S1006 S 0.01563 0.04155 0.83806 0.0
N1007 N 0.98377 0.02656 0.81802 0.0
N1008 N 0.00811 0.03484 0.87766 0.0
C1009 C 0.9786 0.01935 0.87591 0.0
C1010 C 0.96533 0.01487 0.84359 0.0
C1011 C 0.72889 0.16605 0.61779 0.0
C1012 C 0.75643 0.17017 0.59676 0.0
C1013 C 0.72505 0.18547 0.64628 0.0
C1014 C 0.74892 0.20894 0.6543 0.0
H1015 H 0.70932 0.14933 0.61112 0.0
H1016 H 0.70272 0.18335 0.661 0.0
S1017 S 0.82806 0.22457 0.61059 0.0
N1018 N 0.80964 0.19627 0.58817 0.0
N1019 N 0.80269 0.23224 0.64176 0.0
C1020 C 0.77769 0.21118 0.6349 0.0
C1021 C 0.78141 0.19188 0.606 0.0
C1022 C 0.55199 0.0122 0.34906 0.0
C1023 C 0.58651 0.00933 0.34494 0.0
C1024 C 0.53687 0.00619 0.37983 0.0
C1025 C 0.55599 0.99673 0.40697 0.0
H1026 H 0.53647 0.01805 0.32819 0.0
H1027 H 0.51024 0.00751 0.38203 0.0
S1028 S 0.64737 0.99117 0.41066 0.0
N1029 N 0.63937 0.00042 0.37188 0.0
N1030 N 0.61109 0.98914 0.42921 0.0
C1031 C 0.59056 0.99613 0.40367 0.0
C1032 C 0.60584 0.00239 0.37273 0.0
C1033 C 0.79158 0.83685 0.11116 0.0
C1034 C 0.75823 0.84032 0.10375 0.0
C1035 C 0.80149 0.82196 0.14045 0.0
C1036 C 0.77847 0.80871 0.16324 0.0
H1037 H 0.81028 0.84499 0.0937 0.0
H1038 H 0.8278 0.81923 0.14422 0.0
S1039 S 0.68763 0.8184 0.15774 0.0
N1040 N 0.7017 0.83505 0.12313 0.0
N1041 N 0.72027 0.80517 0.17832 0.0
C1042 C 0.74472 0.81446 0.15725 0.0
C1043 C 0.73461 0.83054 0.12732 0.0
C1044 C 0.91095 0.99656 0.62955 0.0
C1045 C 0.92711 0.00858 0.65758 0.0
C1046 C 0.92851 0.99056 0.60014 0.0
C1047 C 0.96251 0.99676 0.59787 0.0
H1048 H 0.88538 0.9891 0.63113 0.0
H1049 H 0.91622 0.97773 0.58038 0.0
S1050 S 0.01443 0.03478 0.6617 0.0
N1051 N 0.97762 0.03181 0.67921 0.0
N1052 N 0.01052 0.01969 0.62419 0.0
C1053 C 0.97792 0.01206 0.62443 0.0
C1054 C 0.96021 0.01821 0.65429 0.0
C1055 C 0.73243 0.18067 0.39207 0.0
C1056 C 0.75721 0.18435 0.41568 0.0
C1057 C 0.73605 0.19431 0.36046 0.0
C1058 C 0.76482 0.21139 0.35149 0.0
H1059 H 0.71065 0.16627 0.39776 0.0
H1060 H 0.71716 0.18978 0.34233 0.0
S1061 S 0.83681 0.2274 0.40434 0.0
N1062 N 0.81094 0.20685 0.42843 0.0
N1063 N 0.81825 0.23151 0.36841 0.0
C1064 C 0.78933 0.21602 0.37511 0.0
C1065 C 0.78536 0.20272 0.40749 0.0
C1066 C 0.59437 0.0168 0.13438 0.0
C1067 C 0.58022 0.00437 0.16375 0.0
C1068 C 0.57496 0.02261 0.10638 0.0
C1069 C 0.54093 0.01652 0.10729 0.0
H1070 H 0.62023 0.02326 0.13337 0.0
H1071 H 0.58631 0.033 0.08444 0.0
S1072 S 0.49384 0.9769 0.17583 0.0
N1073 N 0.53148 0.98109 0.19016 0.0
N1074 N 0.4951 0.99222 0.13807 0.0
C1075 C 0.52719 0.00165 0.13573 0.0
C1076 C 0.54685 0.9955 0.16386 0.0
C1077 C 0.75683 0.84248 0.88944 0.0
C1078 C 0.74264 0.8309 0.91918 0.0
C1079 C 0.7553 0.82365 0.86022 0.0
C1080 C 0.73885 0.79305 0.85956 0.0
H1081 H 0.77063 0.86534 0.88914 0.0
H1082 H 0.76887 0.832 0.8387 0.0
S1083 S 0.69447 0.75378 0.92972 0.0
N1084 N 0.70963 0.78806 0.9453 0.0
N1085 N 0.70602 0.75353 0.8906 0.0
C1086 C 0.7231 0.78232 0.88869 0.0
C1087 C 0.72514 0.80101 0.91838 0.0
C1088 C 0.84694 0.9505 0.03703 0.0
C1089 C 0.84464 0.92358 0.01546 0.0
C1090 C 0.8766 0.9675 0.04094 0.0
C1091 C 0.90532 0.959 0.02284 0.0
H1092 H 0.82538 0.95895 0.05069 0.0
H1093 H 0.87648 0.98885 0.05704 0.0
S1094 S 0.91261 0.88932 0.96372 0.0
N1095 N 0.874 0.88761 0.97709 0.0
N1096 N 0.9296 0.92068 0.98314 0.0
C1097 C 0.90381 0.93109 0.00215 0.0
C1098 C 0.8735 0.9132 -0.00129 0.0
C1099 C 0.34989 0.54836 0.00693 0.0
C1100 C 0.34664 0.58308 0.00387 0.0
C1101 C 0.38046 0.53237 0.00161 0.0
C1102 C 0.40832 0.55076 0.99263 0.0
H1103 H 0.3285 0.53337 0.01249 0.0
H1104 H 0.38193 0.5056 0.00295 0.0
S1105 S 0.41429 0.64235 0.98658 0.0
N1106 N 0.37511 0.63537 0.99526 0.0
N1107 N 0.43202 0.60546 0.98508 0.0
C1108 C 0.40587 0.58555 0.99188 0.0
C1109 C 0.37513 0.60173 -0.00247 0.0
C1110 C 0.16592 0.62646 0.75212 0.0
C1111 C 0.1813 0.59544 0.74749 0.0
C1112 C 0.18412 0.65573 0.74946 0.0
C1113 C 0.2178 0.65471 0.74146 0.0
H1114 H 0.14014 0.62804 0.75928 0.0
H1115 H 0.17247 0.67889 0.75597 0.0
S1116 S 0.26842 0.57997 0.72279 0.0
N1117 N 0.2315 0.56559 0.732 0.0
N1118 N 0.2651 0.62061 0.72572 0.0
C1119 C 0.23276 0.62395 0.73453 0.0
C1120 C 0.21466 0.59427 0.73798 0.0
C1121 C 0.13124 0.43042 0.52662 0.0
C1122 C 0.15939 0.4264 0.50646 0.0
C1123 C 0.10228 0.445 0.51381 0.0
C1124 C 0.10082 0.45483 0.48041 0.0
H1125 H 0.13186 0.42296 0.5523 0.0
H1126 H 0.08141 0.44924 0.53018 0.0
S1127 S 0.16784 0.44437 0.41741 0.0
N1128 N 0.18385 0.43074 0.4521 0.0
N1129 N 0.12979 0.45554 0.42707 0.0
C1130 C 0.12863 0.44852 0.45993 0.0
C1131 C 0.15789 0.43501 0.47325 0.0
C1132 C 0.85004 0.88338 0.73736 0.0
C1133 C 0.83767 0.90949 0.75696 0.0
C1134 C 0.83177 0.85432 0.73277 0.0
C1135 C 0.8007 0.85007 0.74794 0.0
H1136 H 0.87268 0.88644 0.72331 0.0
H1137 H 0.84046 0.83661 0.71459 0.0
S1138 S 0.76083 0.90741 0.80734 0.0
N1139 N 0.79518 0.92639 0.79628 0.0
N1140 N 0.76074 0.87212 0.7869 0.0
C1141 C 0.78995 0.87422 0.77041 0.0
C1142 C 0.80843 0.90387 0.77508 0.0
C1143 C 0.64454 0.08231 0.47926 0.0
C1144 C 0.66243 0.091 0.50723 0.0
C1145 C 0.6158 0.06361 0.4824 0.0
C1146 C 0.60464 0.0527 0.51352 0.0
H1147 H 0.65346 0.08894 0.45485 0.0
H1148 H 0.60328 0.05599 0.46023 0.0
S1149 S 0.64309 0.06938 0.59398 0.0
N1150 N 0.66694 0.08852 0.56681 0.0
N1151 N 0.61325 0.05223 0.57262 0.0
C1152 C 0.62181 0.06209 0.54167 0.0
C1153 C 0.65076 0.0816 0.53852 0.0
C1154 C 0.16098 0.39031 0.7673 0.0
C1155 C 0.17831 0.41575 0.75135 0.0
C1156 C 0.17684 0.36107 0.77645 0.0
C1157 C 0.21059 0.35585 0.76967 0.0
H1158 H 0.1352 0.3934 0.77403 0.0
H1159 H 0.1624 0.34234 0.7891 0.0
S1160 S 0.26561 0.4123 0.7232 0.0
N1161 N 0.23007 0.43258 0.72564 0.0
N1162 N 0.25987 0.37655 0.74238 0.0
C1163 C 0.22772 0.37992 0.75155 0.0
C1164 C 0.21159 0.41022 0.74258 0.0
C1165 C 0.34936 0.62513 0.25472 0.0
C1166 C 0.33251 0.59546 0.2485 0.0
C1167 C 0.33206 0.65465 0.26144 0.0
C1168 C 0.29745 0.65562 0.26134 0.0
H1169 H 0.37598 0.6251 0.25685 0.0
H1170 H 0.34572 0.67596 0.26973 0.0
S1171 S 0.24175 0.58603 0.24313 0.0
N1172 N 0.27918 0.56984 0.23987 0.0
N1173 N 0.24702 0.62547 0.25205 0.0
C1174 C 0.28051 0.627 0.25223 0.0
C1175 C 0.29795 0.59684 0.24591 0.0
C1176 C 0.52006 0.65699 0.54897 0.0
C1177 C 0.50657 0.66278 0.58069 0.0
C1178 C 0.5148 0.6268 0.5324 0.0
C1179 C 0.49651 0.60114 0.5473 0.0
H1180 H 0.53293 0.67662 0.53603 0.0
H1181 H 0.5224 0.62477 0.50681 0.0
S1182 S 0.4571 0.60264 0.62967 0.0
N1183 N 0.47489 0.63914 0.62624 0.0
N1184 N 0.4667 0.58263 0.59554 0.0
C1185 C 0.48558 0.60556 0.57977 0.0
C1186 C 0.48998 0.63634 0.59631 0.0
C1187 C 0.62198 0.24441 0.84929 0.0
C1188 C 0.59351 0.24619 0.83 0.0
C1189 C 0.6528 0.23838 0.83507 0.0
C1190 C 0.65694 0.2348 0.80079 0.0
H1191 H 0.6205 0.24683 0.87586 0.0
H1192 H 0.67375 0.23608 0.85134 0.0
S1193 S 0.59042 0.23628 0.73899 0.0
N1194 N 0.57113 0.24285 0.77451 0.0
N1195 N 0.63006 0.23263 0.74768 0.0
C1196 C 0.62896 0.23689 0.78086 0.0
C1197 C 0.59702 0.24234 0.79551 0.0
C1198 C 0.02336 0.3772 0.09878 0.0
C1199 C 0.00258 0.35345 0.08481 0.0
C1200 C 0.02969 0.40725 0.08266 0.0
C1201 C 0.01503 0.41498 0.05233 0.0
H1202 H 0.03689 0.37153 0.12104 0.0
H1203 H 0.04866 0.42312 0.09242 0.0
S1204 S 0.95414 0.36416 0.00822 0.0
N1205 N 0.9639 0.34164 0.04093 0.0
N1206 N 0.97575 0.39855 0.01087 0.0
C1207 C 0.99171 0.39303 0.03972 0.0
C1208 C 0.98558 0.36206 0.05584 0.0
C1209 C 0.90694 0.7873 0.30935 0.0
C1210 C 0.91071 0.76438 0.33526 0.0
C1211 C 0.87732 0.78978 0.2922 0.0
C1212 C 0.85053 0.76952 0.30049 0.0
H1213 H 0.92747 0.80242 0.30129 0.0
H1214 H 0.87611 0.80598 0.27084 0.0
S1215 S 0.84704 0.70696 0.36736 0.0
N1216 N 0.88444 0.72262 0.36983 0.0
N1217 N 0.82881 0.72698 0.33684 0.0
C1218 C 0.85313 0.74812 0.32764 0.0
C1219 C 0.88331 0.7456 0.34528 0.0
C1220 C 0.51097 0.37241 0.91617 0.0
C1221 C 0.49243 0.3445 0.92537 0.0
C1222 C 0.50883 0.40171 0.93457 0.0
C1223 C 0.48798 0.40373 0.96239 0.0
H1224 H 0.52861 0.37097 0.89598 0.0
H1225 H 0.52544 0.4218 0.92862 0.0
S1226 S 0.42967 0.34003 0.99233 0.0
N1227 N 0.44901 0.32256 0.96083 0.0
N1228 N 0.44531 0.37749 0.99541 0.0
C1229 C 0.46729 0.3771 0.96989 0.0
C1230 C 0.46946 0.34743 0.95135 0.0
C1231 C 0.88576 0.26331 0.17064 0.0
C1232 C 0.9172 0.25255 0.18115 0.0
C1233 C 0.85715 0.25638 0.18956 0.0
C1234 C 0.85938 0.2383 0.21922 0.0
H1235 H 0.88321 0.2764 0.14742 0.0
H1236 H 0.8332 0.26333 0.17995 0.0
S1237 S 0.93583 0.20432 0.25681 0.0
N1238 N 0.94849 0.22291 0.22278 0.0
N1239 N 0.89561 0.21069 0.25836 0.0
C1240 C 0.89088 0.22871 0.23031 0.0
C1241 C 0.91956 0.23552 0.21122 0.0
C1242 C -5e-05 0.65719 0.45723 0.0
C1243 C 0.01285 0.66414 0.4256 0.0
C1244 C 0.00576 0.62633 0.47258 0.0
C1245 C 0.02554 0.60206 0.45716 0.0
H1246 H 0.98473 0.67543 0.46983 0.0
H1247 H 0.99487 0.62147 0.49659 0.0
S1248 S 0.06585 0.60907 0.37436 0.0
N1249 N 0.04644 0.64472 0.37962 0.0
N1250 N 0.05813 0.58752 0.40814 0.0
C1251 C 0.03904 0.60924 0.42563 0.0
C1252 C 0.03251 0.6401 0.40995 0.0
C1253 C 0.61994 0.74126 0.67196 0.0
C1254 C 0.59243 0.76139 0.67962 0.0
C1255 C 0.64971 0.7442 0.68924 0.0
C1256 C 0.65327 0.76777 0.71442 0.0
H1257 H 0.61864 0.7235 0.65208 0.0
H1258 H 0.67075 0.72933 0.68146 0.0
S1259 S 0.58931 0.82719 0.74324 0.0
N1260 N 0.57079 0.80561 0.7144 0.0
N1261 N 0.62717 0.81195 0.74564 0.0
C1262 C 0.62596 0.7878 0.72249 0.0
C1263 C 0.59543 0.78436 0.70546 0.0
C1264 C 0.55873 0.5151 0.65341 0.0
C1265 C 0.58383 0.4938 0.66518 0.0
C1266 C 0.54492 0.51077 0.62176 0.0
C1267 C 0.55533 0.48464 0.60102 0.0
H1268 H 0.55076 0.53606 0.66811 0.0
H1269 H 0.52713 0.52885 0.61296 0.0
S1270 S 0.6164 0.41881 0.62314 0.0
N1271 N 0.61591 0.44382 0.65517 0.0
N1272 N 0.58958 0.43476 0.597 0.0
C1273 C 0.57882 0.46193 0.61382 0.0
C1274 C 0.59317 0.46676 0.64547 0.0
C1275 C 0.79322 0.33127 0.89264 0.0
C1276 C 0.76314 0.33705 0.90925 0.0
C1277 C 0.79438 0.31145 0.86426 0.0
C1278 C 0.76536 0.29769 0.85189 0.0
H1279 H 0.81603 0.34059 0.9026 0.0
H1280 H 0.81803 0.30559 0.85298 0.0
S1281 S 0.68051 0.30872 0.88486 0.0
N1282 N 0.70391 0.32953 0.91047 0.0
N1283 N 0.70586 0.29331 0.85661 0.0
C1284 C 0.73513 0.30507 0.86733 0.0
C1285 C 0.73404 0.3246 0.89625 0.0
C1286 C 0.96186 0.50936 0.15441 0.0
C1287 C 0.9289 0.51714 0.16279 0.0
C1288 C 0.97417 0.51516 0.12222 0.0
C1289 C 0.95413 0.52987 0.09789 0.0
H1290 H 0.97791 0.49806 0.17255 0.0
H1291 H -0.00056 0.50826 0.11642 0.0
S1292 S 0.8659 0.55472 0.10809 0.0
N1293 N 0.8766 0.53999 0.14446 0.0
N1294 N 0.89927 0.55131 0.08479 0.0
C1295 C 0.92116 0.53787 0.10643 0.0
C1296 C 0.90868 0.53144 0.13866 0.0
C1297 C 0.74782 0.66045 0.38312 0.0
C1298 C 0.7592 0.67772 0.41082 0.0
C1299 C 0.74131 0.67708 0.35338 0.0
C1300 C 0.74662 0.71126 0.35031 0.0
H1301 H 0.74141 0.63452 0.38514 0.0
H1302 H 0.72916 0.6638 0.33384 0.0
S1303 S 0.78098 0.76671 0.41356 0.0
N1304 N 0.77937 0.73008 0.43179 0.0
N1305 N 0.76694 0.76113 0.37593 0.0
C1306 C 0.76078 0.72808 0.37675 0.0
C1307 C 0.76716 0.71135 0.40704 0.0
C1308 C 0.56598 0.4847 0.86152 0.0
C1309 C 0.59206 0.50519 0.85113 0.0
C1310 C 0.54859 0.49105 0.89106 0.0
C1311 C 0.55659 0.51828 0.9108 0.0
H1312 H 0.55793 0.46468 0.84593 0.0
H1313 H 0.52683 0.47664 0.89672 0.0
S1314 S 0.62308 0.57892 0.89491 0.0
N1315 N 0.62585 0.55284 0.86375 0.0
N1316 N 0.59284 0.56502 0.91862 0.0
C1317 C 0.58389 0.53759 0.90166 0.0
C1318 C 0.60169 0.53104 0.87191 0.0
C1319 C 0.74966 0.34813 0.11855 0.0
C1320 C 0.75253 0.32854 0.09015 0.0
C1321 C 0.74355 0.33389 0.14928 0.0
C1322 C 0.74032 0.29944 0.15309 0.0
H1323 H 0.75128 0.37488 0.11702 0.0
H1324 H 0.74086 0.35016 0.17036 0.0
S1325 S 0.74788 0.23683 0.08714 0.0
N1326 N 0.75312 0.27263 0.06788 0.0
N1327 N 0.74191 0.24575 0.12651 0.0
C1328 C 0.74424 0.27926 0.12532 0.0
C1329 C 0.75016 0.29388 0.0936 0.0
C1330 C 0.91378 0.51143 0.37442 0.0
C1331 C 0.92558 0.49359 0.34689 0.0
C1332 C 0.92951 0.50874 0.405 0.0
C1333 C 0.95701 0.48777 0.40875 0.0
H1334 H 0.89366 0.52907 0.37182 0.0
H1335 H 0.92192 0.5251 0.42483 0.0
S1336 S 0.99326 0.43123 0.34638 0.0
N1337 N 0.96331 0.45087 0.32684 0.0
N1338 N 0.99259 0.4458 0.38434 0.0
C1339 C 0.96687 0.46755 0.38241 0.0
C1340 C 0.95126 0.47052 0.35135 0.0
C1341 C 0.75856 0.66828 0.62447 0.0
C1342 C 0.76795 0.68177 0.59366 0.0
C1343 C 0.76099 0.68696 0.65367 0.0
C1344 C 0.77323 0.71951 0.65289 0.0
H1345 H 0.74769 0.64389 0.62581 0.0
H1346 H 0.75122 0.67671 0.67645 0.0
S1347 S 0.80719 0.76338 0.5796 0.0
N1348 N 0.79412 0.72776 0.56511 0.0
N1349 N 0.79932 0.76226 0.61956 0.0
C1350 C 0.78541 0.73185 0.62268 0.0
C1351 C 0.78255 0.71319 0.59317 0.0
C1352 C 0.65928 0.55663 0.5125 0.0
C1353 C 0.66145 0.58955 0.5015 0.0
C1354 C 0.63081 0.53819 0.50792 0.0
C1355 C 0.60301 0.55158 0.49195 0.0
H1356 H 0.6801 0.54451 0.52418 0.0
H1357 H 0.63086 0.51272 0.51652 0.0
S1358 S 0.59435 0.63781 0.46137 0.0
N1359 N 0.63225 0.63593 0.47606 0.0
N1360 N 0.57821 0.60078 0.46753 0.0
C1361 C 0.60382 0.58509 0.48245 0.0
C1362 C 0.63321 0.60414 0.48712 0.0
C1363 C 0.14422 0.92461 0.48745 0.0
C1364 C 0.16999 0.93261 0.50889 0.0
C1365 C 0.11265 0.93825 0.49178 0.0
C1366 C 0.10569 0.95986 0.51798 0.0
H1367 H 0.14826 0.90715 0.46758 0.0
H1368 H 0.09314 0.93057 0.47548 0.0
S1369 S 0.16411 0.98889 0.58085 0.0
N1370 N 0.18649 0.96436 0.55681 0.0
N1371 N 0.12652 0.98899 0.56546 0.0
C1372 C 0.13112 0.96858 0.53925 0.0
C1373 C 0.16351 0.95523 0.53453 0.0
C1374 C 0.34053 0.88644 0.74348 0.0
C1375 C 0.33721 0.91182 0.76684 0.0
C1376 C 0.32217 0.85733 0.74677 0.0
C1377 C 0.30028 0.85301 0.77355 0.0
H1378 H 0.35562 0.88998 0.72157 0.0
H1379 H 0.3231 0.83937 0.72699 0.0
S1380 S 0.28875 0.90901 0.84469 0.0
N1381 N 0.31495 0.92852 0.82013 0.0
N1382 N 0.28008 0.87393 0.82598 0.0
C1383 C 0.29913 0.87689 0.7984 0.0
C1384 C 0.31776 0.90636 0.79512 0.0
C1385 C 0.37699 0.08911 0.00032 0.0
C1386 C 0.34576 0.07423 -0.00205 0.0
C1387 C 0.40571 0.06981 0.00452 0.0
C1388 C 0.40401 0.03509 0.00667 0.0
H1389 H 0.37905 0.11583 0.00108 0.0
H1390 H 0.42866 0.08226 0.00966 0.0
S1391 S 0.3291 0.98401 -0.00152 0.0
N1392 N 0.31565 0.02251 0.99461 0.0
N1393 N 0.36937 0.98664 0.00339 0.0
C1394 C 0.37346 0.01999 0.00149 0.0
C1395 C 0.34435 0.03946 0.99705 0.0
C1396 C 0.70667 0.60439 0.73857 0.0
C1397 C 0.67671 0.59766 0.75513 0.0
C1398 C 0.72422 0.63385 0.74434 0.0
C1399 C 0.71254 0.65771 0.7669 0.0
H1400 H 0.71746 0.58607 0.7222 0.0
H1401 H 0.74842 0.63664 0.73314 0.0
S1402 S 0.63544 0.65249 0.81647 0.0
N1403 N 0.63577 0.61823 0.79439 0.0
N1404 N 0.66895 0.67284 0.8054 0.0
C1405 C 0.68188 0.65202 0.78231 0.0
C1406 C 0.66393 0.62225 0.77639 0.0
C1407 C 0.86416 0.4377 0.0238 0.0
C1408 C 0.85287 0.42046 0.99635 0.0
C1409 C 0.89229 0.45721 0.02138 0.0
C1410 C 0.90961 0.46026 0.99135 0.0
H1411 H 0.8503 0.43733 0.04679 0.0
H1412 H 0.89943 0.47161 0.04261 0.0
S1413 S 0.89094 0.41815 0.91308 0.0
N1414 N 0.8618 0.40564 0.93897 0.0
N1415 N 0.91489 0.44305 0.93429 0.0
C1416 C 0.89966 0.4417 0.96422 0.0
C1417 C 0.87104 0.42157 0.96676 0.0
C1418 C 0.30575 0.10678 0.76611 0.0
C1419 C 0.33089 0.09408 0.74558 0.0
C1420 C 0.29308 0.13896 0.76106 0.0
C1421 C 0.30493 0.15894 0.73501 0.0
H1422 H 0.29691 0.09236 0.78693 0.0
H1423 H 0.27498 0.14865 0.77839 0.0
S1424 S 0.36756 0.13383 0.67171 0.0
N1425 N 0.36527 0.1019 0.69712 0.0
N1426 N 0.34079 0.16128 0.68612 0.0
C1427 C 0.32861 0.14508 0.71305 0.0
C1428 C 0.34184 0.11293 0.71878 0.0
C1429 C 0.21953 0.91257 0.25277 0.0
C1430 C 0.18527 0.9123 0.25854 0.0
C1431 C 0.23702 0.88332 0.24575 0.0
C1432 C 0.22112 0.85253 0.24435 0.0
H1433 H 0.23271 0.93578 0.25167 0.0
H1434 H 0.26281 0.8852 0.23871 0.0
S1435 S 0.13259 0.83746 0.26076 0.0
N1436 N 0.13664 0.87783 0.26558 0.0
N1437 N 0.16977 0.82303 0.25139 0.0
C1438 C 0.18747 0.85139 0.25241 0.0
C1439 C 0.16949 0.88125 0.25974 0.0
C1440 C 0.50348 0.34714 0.46225 0.0
C1441 C 0.50141 0.3466 0.42763 0.0
C1442 C 0.50928 0.37673 0.47929 0.0
C1443 C 0.51304 0.40711 0.46258 0.0
H1444 H 0.50294 0.32421 0.47622 0.0
H1445 H 0.51382 0.37532 0.50555 0.0
S1446 S 0.50533 0.42014 0.37242 0.0
N1447 N 0.49948 0.38 0.37756 0.0
N1448 N 0.51161 0.43525 0.40962 0.0
C1449 C 0.50841 0.40741 0.42827 0.0
C1450 C 0.50228 0.37727 0.41082 0.0
C1451 C 0.41109 0.78593 0.19438 0.0
C1452 C 0.42073 0.75464 0.18269 0.0
C1453 C 0.37981 0.79085 0.20855 0.0
C1454 C 0.35775 0.76442 0.21211 0.0
H1455 H 0.42712 0.80703 0.19094 0.0
H1456 H 0.37221 0.81573 0.2153 0.0
S1457 S 0.37257 0.67735 0.18689 0.0
N1458 N 0.40685 0.69673 0.1764 0.0
N1459 N 0.34831 0.70561 0.20416 0.0
C1460 C 0.36801 0.7326 0.20225 0.0
C1461 C 0.39954 0.72779 0.18714 0.0
C1462 C 0.0041 0.66288 0.96083 0.0
C1463 C 0.0133 0.66522 0.92745 0.0
C1464 C -0.00185 0.63204 0.9756 0.0
C1465 C 0.00057 0.60239 0.95747 0.0
H1466 H -0.00092 0.68505 0.97504 0.0
H1467 H 0.98785 0.63172 0.00037 0.0
S1468 S 0.03275 0.59461 0.8722 0.0
N1469 N 0.03182 0.63494 0.87888 0.0
N1470 N 0.01873 0.577 0.90639 0.0
C1471 C 0.01324 0.60415 0.92528 0.0
C1472 C 0.01999 0.6356 0.91031 0.0
C1473 C 0.12592 0.24711 0.66734 0.0
C1474 C 0.0941 0.25147 0.68104 0.0
C1475 C 0.15388 0.2447 0.68768 0.0
C1476 C 0.15074 0.24599 0.72228 0.0
H1477 H 0.12931 0.24622 0.64083 0.0
H1478 H 0.17802 0.24265 0.67629 0.0
S1479 S 0.07186 0.25439 0.76998 0.0
N1480 N 0.06092 0.25578 0.73106 0.0
N1481 N 0.11219 0.24939 0.769 0.0
C1482 C 0.11857 0.24884 0.73597 0.0
C1483 C 0.09062 0.25219 0.71544 0.0
C1484 C 0.53745 0.653 0.066 0.0
C1485 C 0.50824 0.66013 0.08351 0.0
C1486 C 0.54056 0.624 0.04759 0.0
C1487 C 0.5145 0.60155 0.04639 0.0
H1488 H 0.5576 0.67047 0.06575 0.0
H1489 H 0.56271 0.61991 0.03296 0.0
S1490 S 0.43249 0.6097 0.08674 0.0
N1491 N 0.4528 0.64288 0.09855 0.0
N1492 N 0.45839 0.58841 0.06314 0.0
C1493 C 0.48542 0.60805 0.06436 0.0
C1494 C 0.48234 0.63743 0.0833 0.0
C1495 C 0.12967 0.76969 0.85122 0.0
C1496 C 0.10317 0.75296 0.83683 0.0
C1497 C 0.15905 0.77495 0.83347 0.0
C1498 C 0.16284 0.76368 0.80088 0.0
H1499 H 0.12679 0.78115 0.87518 0.0
H1500 H 0.17742 0.79105 0.84398 0.0
S1501 S 0.10344 0.71311 0.75465 0.0
N1502 N 0.08507 0.71987 0.79052 0.0
N1503 N 0.13933 0.73205 0.75647 0.0
C1504 C 0.13797 0.74406 0.78766 0.0
C1505 C 0.10831 0.73814 0.80586 0.0
C1506 C 0.00933 0.35217 0.55177 0.0
C1507 C -0.00159 0.34442 0.58393 0.0
C1508 C 0.00249 0.38336 0.53765 0.0
C1509 C 0.98361 0.40706 0.55499 0.0
H1510 H 0.02338 0.33415 0.53761 0.0
H1511 H 0.01156 0.38876 0.51301 0.0
S1512 S 0.95092 0.39904 0.64072 0.0
N1513 N 0.96939 0.36333 0.63315 0.0
N1514 N 0.9559 0.42113 0.60682 0.0
C1515 C 0.97312 0.39952 0.5874 0.0
C1516 C 0.98069 0.36839 0.60184 0.0
C1517 C 0.40461 0.27357 0.30989 0.0
C1518 C 0.42211 0.248 0.32597 0.0
C1519 C 0.37299 0.26789 0.29673 0.0
C1520 C 0.35798 0.23653 0.29935 0.0
H1521 H 0.41463 0.29835 0.30893 0.0
H1522 H 0.35961 0.2885 0.28603 0.0
S1523 S 0.39684 0.1604 0.33375 0.0
N1524 N 0.42419 0.18967 0.34005 0.0
N1525 N 0.36566 0.17877 0.31502 0.0
C1526 C 0.3767 0.21042 0.31306 0.0
C1527 C 0.40844 0.21626 0.32656 0.0
C1528 C 0.43936 0.48493 0.36312 0.0
C1529 C 0.43288 0.51207 0.34227 0.0
C1530 C 0.45182 0.48981 0.39495 0.0
C1531 C 0.45854 0.52184 0.40645 0.0
H1532 H 0.43325 0.46008 0.35542 0.0
H1533 H 0.45418 0.46869 0.41135 0.0
S1534 S 0.44553 0.60061 0.3612 0.0
N1535 N 0.43386 0.57172 0.33518 0.0
N1536 N 0.45769 0.58078 0.39473 0.0
C1537 C 0.45266 0.54892 0.38554 0.0
C1538 C 0.43978 0.54403 0.35343 0.0
C1539 C 0.22228 0.66982 0.11621 0.0
C1540 C 0.25132 0.67079 0.09692 0.0
C1541 C 0.21977 0.68781 0.14572 0.0
C1542 C 0.24661 0.70628 0.15678 0.0
H1543 H 0.20083 0.65681 0.10745 0.0
H1544 H 0.19642 0.68871 0.15889 0.0
S1545 S 0.32884 0.71372 0.11679 0.0
N1546 N 0.30793 0.68943 0.0921 0.0
N1547 N 0.30343 0.72278 0.14756 0.0
C1548 C 0.2763 0.70553 0.13868 0.0
C1549 C 0.27864 0.68784 0.10866 0.0
C1550 C 0.05223 0.5109 0.84824 0.0
C1551 C 0.085 0.50047 0.8421 0.0
C1552 C 0.03668 0.50459 0.87881 0.0
C1553 C 0.05334 0.48724 0.90382 0.0
H1554 H 0.03858 0.52406 0.82937 0.0
H1555 H 0.01147 0.51286 0.88272 0.0
S1556 S 0.13935 0.45428 0.89979 0.0
N1557 N 0.13326 0.47162 0.86347 0.0
N1558 N 0.10464 0.46019 0.92047 0.0
C1559 C 0.08614 0.47675 0.89779 0.0
C1560 C 0.10182 0.48327 0.86705 0.0
C1561 C 0.25266 0.35124 0.63195 0.0
C1562 C 0.24112 0.33524 0.60363 0.0
C1563 C 0.25834 0.33334 0.66099 0.0
C1564 C 0.25261 0.29913 0.66245 0.0
H1565 H 0.26026 0.37689 0.63084 0.0
H1566 H 0.27135 0.34537 0.68076 0.0
S1567 S 0.21511 0.24765 0.59794 0.0
N1568 N 0.21794 0.28485 0.58107 0.0
N1569 N 0.22992 0.25116 0.63553 0.0
C1570 C 0.23711 0.28396 0.63591 0.0
C1571 C 0.23115 0.30207 0.60637 0.0
C1572 C 0.41209 0.48093 0.13488 0.0
C1573 C 0.42345 0.50476 0.15714 0.0
C1574 C 0.42918 0.47452 0.10538 0.0
C1575 C 0.458 0.49186 0.09688 0.0
H1576 H 0.39147 0.46524 0.14142 0.0
H1577 H 0.42169 0.45352 0.09075 0.0
S1578 S 0.49338 0.56186 0.14291 0.0
N1579 N 0.46166 0.54993 0.1658 0.0
N1580 N 0.49418 0.53721 0.11048 0.0
C1581 C 0.46738 0.51824 0.117 0.0
C1582 C 0.45001 0.52481 0.14719 0.0
C1583 C 0.26309 0.66348 0.88547 0.0
C1584 C 0.2543 0.68114 0.91404 0.0
C1585 C 0.26948 0.67994 0.85584 0.0
C1586 C 0.2671 0.71463 0.85352 0.0
H1587 H 0.2663 0.63682 0.88618 0.0
H1588 H 0.27718 0.6654 0.83467 0.0
S1589 S 0.23969 0.77194 0.91924 0.0
N1590 N 0.23979 0.73504 0.93711 0.0
N1591 N 0.25157 0.76586 0.88063 0.0
C1592 C 0.25595 0.73248 0.88094 0.0
C1593 C 0.24965 0.71573 0.91146 0.0
C1594 C 0.09255 0.53254 0.63575 0.0
C1595 C 0.08828 0.50702 0.65917 0.0
C1596 C 0.073 0.53384 0.60729 0.0
C1597 C 0.04929 0.5094 0.60184 0.0
H1598 H 0.10948 0.55255 0.64046 0.0
H1599 H 0.07498 0.55489 0.59075 0.0
S1600 S 0.03451 0.4339 0.65235 0.0
N1601 N 0.06262 0.45458 0.6727 0.0
N1602 N 0.02666 0.45633 0.61917 0.0
C1603 C 0.04742 0.4822 0.62359 0.0
C1604 C 0.06674 0.4812 0.65241 0.0
C1605 C 0.23993 0.30007 0.42167 0.0
C1606 C 0.24388 0.33443 0.42044 0.0
C1607 C 0.23697 0.28143 0.39311 0.0
C1608 C 0.23872 0.29576 0.36121 0.0
H1609 H 0.23918 0.28708 0.44511 0.0
H1610 H 0.23435 0.25497 0.39657 0.0
S1611 S 0.24641 0.38584 0.3442 0.0
N1612 N 0.247 0.38313 0.38489 0.0
N1613 N 0.24275 0.34754 0.33049 0.0
C1614 C 0.24164 0.33052 0.35942 0.0
C1615 C 0.24399 0.3499 0.38909 0.0
C1616 C 0.36819 0.41552 0.53212 0.0
C1617 C 0.34275 0.42542 0.51054 0.0
C1618 C 0.39763 0.43386 0.53441 0.0
C1619 C 0.40239 0.46233 0.51489 0.0
H1620 H 0.36465 0.39453 0.54848 0.0
H1621 H 0.41584 0.42673 0.55253 0.0
S1622 S 0.34655 0.49419 0.44973 0.0
N1623 N 0.32663 0.46257 0.46614 0.0
N1624 N 0.38162 0.49634 0.4699 0.0
C1625 C 0.37834 0.47052 0.49132 0.0
C1626 C 0.34857 0.45228 0.48928 0.0
C1627 C 0.84759 0.04664 0.48797 0.0
C1628 C 0.8443 0.07751 0.50379 0.0
C1629 C 0.87882 0.03204 0.48297 0.0
C1630 C 0.90722 0.04779 0.49422 0.0
H1631 H 0.8262 0.03468 0.47775 0.0
H1632 H 0.8809 0.00939 0.46887 0.0
S1633 S 0.91162 0.12658 0.54042 0.0
N1634 N 0.87196 0.12161 0.53325 0.0
N1635 N 0.93031 0.09404 0.52397 0.0
C1636 C 0.90402 0.07741 0.51193 0.0
C1637 C 0.87257 0.09234 0.51674 0.0
C1638 C 0.70514 0.10241 0.26377 0.0
C1639 C 0.67369 0.09979 0.25012 0.0
C1640 C 0.72352 0.13091 0.25928 0.0
C1641 C 0.71137 0.15782 0.24068 0.0
H1642 H 0.71611 0.08194 0.27729 0.0
H1643 H 0.74798 0.1315 0.26984 0.0
S1644 S 0.62817 0.16558 0.2048 0.0
N1645 N 0.62909 0.12799 0.22114 0.0
N1646 N 0.66459 0.18197 0.21213 0.0
C1647 C 0.67909 0.15667 0.22892 0.0
C1648 C 0.65998 0.12747 0.2338 0.0
C1649 C 0.62961 0.90558 0.00782 0.0
C1650 C 0.65734 0.92384 0.01732 0.0
C1651 C 0.59902 0.92124 0.00312 0.0
C1652 C 0.59531 0.95552 0.00777 0.0
H1653 H 0.63216 0.87973 0.00112 0.0
H1654 H 0.57949 0.90733 0.99166 0.0
S1655 S 0.65761 0.01232 0.04133 0.0
N1656 N 0.6772 0.9764 0.03804 0.0
N1657 N 0.61962 0.00574 0.02869 0.0
C1658 C 0.6214 0.97285 0.02186 0.0
C1659 C 0.65264 0.95708 0.02647 0.0
C1660 C 0.32262 0.41262 0.2225 0.0
C1661 C 0.33595 0.41498 0.25392 0.0
C1662 C 0.30601 0.38443 0.21276 0.0
C1663 C 0.30123 0.35701 0.23411 0.0
H1664 H 0.32523 0.43285 0.20499 0.0
H1665 H 0.29656 0.38473 0.18788 0.0
S1666 S 0.33135 0.3515 0.32013 0.0
N1667 N 0.34406 0.38816 0.30704 0.0
N1668 N 0.31133 0.33477 0.28907 0.0
C1669 C 0.31444 0.35907 0.26606 0.0
C1670 C 0.33215 0.38812 0.27589 0.0
C1671 C 0.1619 0.55767 0.02882 0.0
C1672 C 0.1644 0.58429 0.00661 0.0
C1673 C 0.13253 0.54026 0.03228 0.0
C1674 C 0.10477 0.54891 0.01361 0.0
H1675 H 0.18301 0.54975 0.04313 0.0
H1676 H 0.13201 0.5188 0.04843 0.0
S1677 S 0.09878 0.61666 0.95197 0.0
N1678 N 0.13675 0.61914 0.96617 0.0
N1679 N 0.08133 0.58574 0.97227 0.0
C1680 C 0.10649 0.57629 0.99222 0.0
C1681 C 0.13647 0.5942 0.98879 0.0
C1682 C 0.70836 0.9093 0.24869 0.0
C1683 C 0.67524 0.91544 0.25792 0.0
C1684 C 0.72349 0.87847 0.25519 0.0
C1685 C 0.7061 0.85349 0.2719 0.0
H1686 H 0.72267 0.92842 0.23658 0.0
H1687 H 0.74897 0.87446 0.24784 0.0
S1688 S 0.61834 0.85656 0.29956 0.0
N1689 N 0.62521 0.89319 0.28292 0.0
N1690 N 0.65355 0.83618 0.29582 0.0
C1691 C 0.67281 0.85923 0.28059 0.0
C1692 C 0.65738 0.89001 0.27342 0.0
C1693 C 0.81288 0.10837 0.73496 0.0
C1694 C 0.84115 0.09927 0.75296 0.0
C1695 C 0.79618 0.13852 0.74112 0.0
C1696 C 0.8072 0.16029 0.76553 0.0
H1697 H 0.80253 0.0913 0.71741 0.0
H1698 H 0.77277 0.14313 0.72918 0.0
S1699 S 0.88165 0.14982 0.81693 0.0
N1700 N 0.88107 0.11628 0.79386 0.0
N1701 N 0.84952 0.1723 0.80541 0.0
C1702 C 0.83706 0.15287 0.7813 0.0
C1703 C 0.85403 0.12243 0.77512 0.0
loop_
_geom_bond_atom_site_label_1
_geom_bond_atom_site_label_2
_geom_bond_distance
_geom_bond_site_symmetry_2
_ccdc_geom_bond_type
In0 O1 2.294 1_455 S
In0 O2 2.328 . S
In0 O6 2.266 . S
In0 O7 2.326 . S
In0 O8 2.266 . S
In0 O9 2.326 . S
In0 O11 2.294 1_455 S
In0 O12 2.326 1_455 S
O1 In0 2.294 1_655 S
O1 C10 1.240 . S
O2 In0 2.328 . S
O2 C10 1.251 1_455 S
C3 O6 1.252 . S
C3 O7 1.260 . S
C4 O11 1.240 . S
C4 O12 1.252 . S
C5 O8 1.252 . S
C5 O9 1.260 . S
O6 In0 2.266 . S
O6 C3 1.252 . S
O7 In0 2.326 . S
O7 C3 1.260 . S
O8 In0 2.266 . S
O8 C5 1.252 . S
O9 In0 2.326 . S
O9 C5 1.260 . S
C10 O1 1.240 . S
C10 O2 1.251 1_655 S
O11 In0 2.294 1_655 S
O11 C4 1.240 . S
O12 In0 2.326 1_655 S
O12 C4 1.252 . S
In13 O14 2.294 . S
In13 O15 2.326 . S
In13 O19 2.266 1_455 S
In13 O20 2.326 1_455 S
In13 O21 2.266 . S
In13 O22 2.326 . S
In13 O24 2.294 . S
In13 O25 2.326 . S
O14 In13 2.294 . S
O14 C23 1.240 . S
O15 In13 2.326 . S
O15 C23 1.252 . S
C16 O19 1.252 . S
C16 O20 1.260 . S
C17 O24 1.240 . S
C17 O25 1.252 . S
C18 O21 1.252 . S
C18 O22 1.260 . S
O19 In13 2.266 1_655 S
O19 C16 1.252 . S
O20 In13 2.326 1_655 S
O20 C16 1.260 . S
O21 In13 2.266 . S
O21 C18 1.252 . S
O22 In13 2.326 . S
O22 C18 1.260 . S
C23 O14 1.240 . S
C23 O15 1.252 . S
O24 In13 2.294 . S
O24 C17 1.240 . S
O25 In13 2.326 . S
O25 C17 1.252 . S
In26 O27 2.294 . S
In26 O28 2.326 . S
In26 O32 2.266 . S
In26 O33 2.326 . S
In26 O34 2.266 . S
In26 O35 2.326 . S
In26 O37 2.294 . S
In26 O38 2.326 . S
O27 In26 2.294 . S
O27 C36 1.240 . S
O28 In26 2.326 . S
O28 C36 1.252 . S
C29 O32 1.252 . S
C29 O33 1.260 . S
C30 O37 1.240 . S
C30 O38 1.252 . S
C31 O34 1.252 . S
C31 O35 1.260 . S
O32 In26 2.266 . S
O32 C29 1.252 . S
O33 In26 2.326 . S
O33 C29 1.260 . S
O34 In26 2.266 . S
O34 C31 1.252 . S
O35 In26 2.326 . S
O35 C31 1.260 . S
C36 O27 1.240 . S
C36 O28 1.252 . S
O37 In26 2.294 . S
O37 C30 1.240 . S
O38 In26 2.326 . S
O38 C30 1.252 . S
In39 O40 2.294 . S
In39 O41 2.326 . S
In39 O45 2.266 . S
In39 O46 2.326 . S
In39 O47 2.266 . S
In39 O48 2.326 . S
In39 O50 2.294 . S
In39 O51 2.326 . S
O40 In39 2.294 . S
O40 C49 1.240 . S
O41 In39 2.326 . S
O41 C49 1.252 . S
C42 O45 1.252 . S
C42 O46 1.260 . S
C43 O50 1.240 . S
C43 O51 1.252 . S
C44 O47 1.252 . S
C44 O48 1.260 . S
O45 In39 2.266 . S
O45 C42 1.252 . S
O46 In39 2.326 . S
O46 C42 1.260 . S
O47 In39 2.266 . S
O47 C44 1.252 . S
O48 In39 2.326 . S
O48 C44 1.260 . S
C49 O40 1.240 . S
C49 O41 1.252 . S
O50 In39 2.294 . S
O50 C43 1.240 . S
O51 In39 2.326 . S
O51 C43 1.252 . S
In52 O53 2.294 1_545 S
In52 O54 2.326 1_545 S
In52 O58 2.266 . S
In52 O59 2.326 . S
In52 O60 2.266 . S
In52 O61 2.326 . S
In52 O63 2.294 1_545 S
In52 O64 2.328 . S
O53 In52 2.294 1_565 S
O53 C62 1.240 . S
O54 In52 2.326 1_565 S
O54 C62 1.252 . S
C55 O58 1.252 . S
C55 O59 1.260 . S
C56 O63 1.240 . S
C56 O64 1.251 1_565 S
C57 O60 1.252 . S
C57 O61 1.260 . S
O58 In52 2.266 . S
O58 C55 1.252 . S
O59 In52 2.326 . S
O59 C55 1.260 . S
O60 In52 2.266 . S
O60 C57 1.252 . S
O61 In52 2.326 . S
O61 C57 1.260 . S
C62 O53 1.240 . S
C62 O54 1.252 . S
O63 In52 2.294 1_565 S
O63 C56 1.240 . S
O64 In52 2.328 . S
O64 C56 1.251 1_545 S
In65 O66 2.294 . S
In65 O67 2.326 . S
In65 O71 2.266 . S
In65 O72 2.326 . S
In65 O73 2.266 . S
In65 O74 2.326 . S
In65 O76 2.294 . S
In65 O77 2.326 . S
O66 In65 2.294 . S
O66 C75 1.240 . S
O67 In65 2.326 . S
O67 C75 1.252 . S
C68 O71 1.252 . S
C68 O72 1.260 . S
C69 O76 1.240 . S
C69 O77 1.252 . S
C70 O73 1.252 . S
C70 O74 1.260 . S
O71 In65 2.266 . S
O71 C68 1.252 . S
O72 In65 2.326 . S
O72 C68 1.260 . S
O73 In65 2.266 . S
O73 C70 1.252 . S
O74 In65 2.326 . S
O74 C70 1.260 . S
C75 O66 1.240 . S
C75 O67 1.252 . S
O76 In65 2.294 . S
O76 C69 1.240 . S
O77 In65 2.326 . S
O77 C69 1.252 . S
In78 O79 2.294 . S
In78 O80 2.326 . S
In78 O84 2.266 1_545 S
In78 O85 2.326 1_545 S
In78 O86 2.266 . S
In78 O87 2.326 . S
In78 O89 2.294 . S
In78 O90 2.326 . S
O79 In78 2.294 . S
O79 C88 1.240 . S
O80 In78 2.326 . S
O80 C88 1.252 . S
C81 O84 1.252 . S
C81 O85 1.260 . S
C82 O89 1.240 . S
C82 O90 1.252 . S
C83 O86 1.252 . S
C83 O87 1.260 . S
O84 In78 2.266 1_565 S
O84 C81 1.252 . S
O85 In78 2.326 1_565 S
O85 C81 1.260 . S
O86 In78 2.266 . S
O86 C83 1.252 . S
O87 In78 2.326 . S
O87 C83 1.260 . S
C88 O79 1.240 . S
C88 O80 1.252 . S
O89 In78 2.294 . S
O89 C82 1.240 . S
O90 In78 2.326 . S
O90 C82 1.252 . S
In91 O92 2.294 . S
In91 O93 2.326 . S
In91 O97 2.269 . S
In91 O98 2.326 . S
In91 O99 2.266 1_554 S
In91 O100 2.326 1_554 S
In91 O102 2.294 . S
In91 O103 2.326 . S
O92 In91 2.294 . S
O92 C101 1.240 . S
O93 In91 2.326 . S
O93 C101 1.252 . S
C94 O97 1.253 . S
C94 O98 1.260 . S
C95 O102 1.240 . S
C95 O103 1.252 . S
C96 O99 1.252 . S
C96 O100 1.260 . S
O97 In91 2.269 . S
O97 C94 1.253 . S
O98 In91 2.326 . S
O98 C94 1.260 . S
O99 In91 2.266 1_556 S
O99 C96 1.252 . S
O100 In91 2.326 1_556 S
O100 C96 1.260 . S
C101 O92 1.240 . S
C101 O93 1.252 . S
O102 In91 2.294 . S
O102 C95 1.240 . S
O103 In91 2.326 . S
O103 C95 1.252 . S
In104 O105 2.294 . S
In104 O106 2.326 . S
In104 O110 2.266 1_554 S
In104 O111 2.326 1_554 S
In104 O112 2.262 1_554 S
In104 O113 2.326 . S
In104 O115 2.294 . S
In104 O116 2.326 . S
O105 In104 2.294 . S
O105 C114 1.240 . S
O106 In104 2.326 . S
O106 C114 1.252 . S
C107 O110 1.252 . S
C107 O111 1.260 . S
C108 O115 1.240 . S
C108 O116 1.252 . S
C109 O112 1.252 . S
C109 O113 1.259 1_556 S
O110 In104 2.266 1_556 S
O110 C107 1.252 . S
O111 In104 2.326 1_556 S
O111 C107 1.260 . S
O112 In104 2.262 1_556 S
O112 C109 1.252 . S
O113 In104 2.326 . S
O113 C109 1.259 1_554 S
C114 O105 1.240 . S
C114 O106 1.252 . S
O115 In104 2.294 . S
O115 C108 1.240 . S
O116 In104 2.326 . S
O116 C108 1.252 . S
In117 O118 2.294 . S
In117 O119 2.326 . S
In117 O123 2.266 . S
In117 O124 2.326 . S
In117 O125 2.266 . S
In117 O126 2.326 . S
In117 O128 2.294 . S
In117 O129 2.326 . S
O118 In117 2.294 . S
O118 C127 1.240 . S
O119 In117 2.326 . S
O119 C127 1.252 . S
C120 O123 1.252 . S
C120 O124 1.260 . S
C121 O128 1.240 . S
C121 O129 1.252 . S
C122 O125 1.252 . S
C122 O126 1.260 . S
O123 In117 2.266 . S
O123 C120 1.252 . S
O124 In117 2.326 . S
O124 C120 1.260 . S
O125 In117 2.266 . S
O125 C122 1.252 . S
O126 In117 2.326 . S
O126 C122 1.260 . S
C127 O118 1.240 . S
C127 O119 1.252 . S
O128 In117 2.294 . S
O128 C121 1.240 . S
O129 In117 2.326 . S
O129 C121 1.252 . S
In130 O131 2.294 . S
In130 O132 2.326 . S
In130 O136 2.266 . S
In130 O137 2.326 . S
In130 O138 2.266 . S
In130 O139 2.326 . S
In130 O141 2.294 . S
In130 O142 2.326 . S
O131 In130 2.294 . S
O131 C140 1.240 . S
O132 In130 2.326 . S
O132 C140 1.252 . S
C133 O136 1.252 . S
C133 O137 1.260 . S
C134 O141 1.240 . S
C134 O142 1.252 . S
C135 O138 1.252 . S
C135 O139 1.260 . S
O136 In130 2.266 . S
O136 C133 1.252 . S
O137 In130 2.326 . S
O137 C133 1.260 . S
O138 In130 2.266 . S
O138 C135 1.252 . S
O139 In130 2.326 . S
O139 C135 1.260 . S
C140 O131 1.240 . S
C140 O132 1.252 . S
O141 In130 2.294 . S
O141 C134 1.240 . S
O142 In130 2.326 . S
O142 C134 1.252 . S
In143 O144 2.294 . S
In143 O145 2.326 . S
In143 O149 2.266 . S
In143 O150 2.326 . S
In143 O151 2.266 . S
In143 O152 2.326 . S
In143 O154 2.294 . S
In143 O155 2.326 . S
O144 In143 2.294 . S
O144 C153 1.240 . S
O145 In143 2.326 . S
O145 C153 1.252 . S
C146 O149 1.252 . S
C146 O150 1.260 . S
C147 O154 1.240 . S
C147 O155 1.252 . S
C148 O151 1.252 . S
C148 O152 1.260 . S
O149 In143 2.266 . S
O149 C146 1.252 . S
O150 In143 2.326 . S
O150 C146 1.260 . S
O151 In143 2.266 . S
O151 C148 1.252 . S
O152 In143 2.326 . S
O152 C148 1.260 . S
C153 O144 1.240 . S
C153 O145 1.252 . S
O154 In143 2.294 . S
O154 C147 1.240 . S
O155 In143 2.326 . S
O155 C147 1.252 . S
In156 O157 2.294 . S
In156 O158 2.326 . S
In156 O162 2.266 1_455 S
In156 O163 2.326 1_455 S
In156 O164 2.266 . S
In156 O165 2.326 . S
In156 O167 2.294 . S
In156 O168 2.326 . S
O157 In156 2.294 . S
O157 C166 1.240 . S
O158 In156 2.326 . S
O158 C166 1.252 . S
C159 O162 1.252 . S
C159 O163 1.260 . S
C160 O167 1.240 . S
C160 O168 1.252 . S
C161 O164 1.252 . S
C161 O165 1.260 . S
O162 In156 2.266 1_655 S
O162 C159 1.252 . S
O163 In156 2.326 1_655 S
O163 C159 1.260 . S
O164 In156 2.266 . S
O164 C161 1.252 . S
O165 In156 2.326 . S
O165 C161 1.260 . S
C166 O157 1.240 . S
C166 O158 1.252 . S
O167 In156 2.294 . S
O167 C160 1.240 . S
O168 In156 2.326 . S
O168 C160 1.252 . S
In169 O170 2.294 . S
In169 O171 2.326 . S
In169 O175 2.269 . S
In169 O176 2.326 . S
In169 O177 2.266 1_455 S
In169 O178 2.326 1_455 S
In169 O180 2.294 . S
In169 O181 2.326 . S
O170 In169 2.294 . S
O170 C179 1.240 . S
O171 In169 2.326 . S
O171 C179 1.252 . S
C172 O175 1.253 . S
C172 O176 1.260 . S
C173 O180 1.240 . S
C173 O181 1.252 . S
C174 O177 1.252 . S
C174 O178 1.260 . S
O175 In169 2.269 . S
O175 C172 1.253 . S
O176 In169 2.326 . S
O176 C172 1.260 . S
O177 In169 2.266 1_655 S
O177 C174 1.252 . S
O178 In169 2.326 1_655 S
O178 C174 1.260 . S
C179 O170 1.240 . S
C179 O171 1.252 . S
O180 In169 2.294 . S
O180 C173 1.240 . S
O181 In169 2.326 . S
O181 C173 1.252 . S
In182 O183 2.294 . S
In182 O184 2.326 . S
In182 O188 2.266 . S
In182 O189 2.326 . S
In182 O190 2.266 . S
In182 O191 2.326 . S
In182 O193 2.294 . S
In182 O194 2.326 . S
O183 In182 2.294 . S
O183 C192 1.240 . S
O184 In182 2.326 . S
O184 C192 1.252 . S
C185 O188 1.252 . S
C185 O189 1.260 . S
C186 O193 1.240 . S
C186 O194 1.252 . S
C187 O190 1.252 . S
C187 O191 1.260 . S
O188 In182 2.266 . S
O188 C185 1.252 . S
O189 In182 2.326 . S
O189 C185 1.260 . S
O190 In182 2.266 . S
O190 C187 1.252 . S
O191 In182 2.326 . S
O191 C187 1.260 . S
C192 O183 1.240 . S
C192 O184 1.252 . S
O193 In182 2.294 . S
O193 C186 1.240 . S
O194 In182 2.326 . S
O194 C186 1.252 . S
In195 O196 2.294 . S
In195 O197 2.326 . S
In195 O201 2.266 . S
In195 O202 2.326 . S
In195 O203 2.266 . S
In195 O204 2.326 . S
In195 O206 2.294 . S
In195 O207 2.326 . S
O196 In195 2.294 . S
O196 C205 1.240 . S
O197 In195 2.326 . S
O197 C205 1.252 . S
C198 O201 1.252 . S
C198 O202 1.260 . S
C199 O206 1.240 . S
C199 O207 1.252 . S
C200 O203 1.252 . S
C200 O204 1.260 . S
O201 In195 2.266 . S
O201 C198 1.252 . S
O202 In195 2.326 . S
O202 C198 1.260 . S
O203 In195 2.266 . S
O203 C200 1.252 . S
O204 In195 2.326 . S
O204 C200 1.260 . S
C205 O196 1.240 . S
C205 O197 1.252 . S
O206 In195 2.294 . S
O206 C199 1.240 . S
O207 In195 2.326 . S
O207 C199 1.252 . S
In208 O209 2.294 . S
In208 O210 2.326 . S
In208 O214 2.266 1_545 S
In208 O215 2.326 . S
In208 O216 2.266 1_545 S
In208 O217 2.326 1_545 S
In208 O219 2.294 . S
In208 O220 2.326 . S
O209 In208 2.294 . S
O209 C218 1.240 . S
O210 In208 2.326 . S
O210 C218 1.252 . S
C211 O214 1.252 . S
C211 O215 1.260 1_565 S
C212 O219 1.240 . S
C212 O220 1.252 . S
C213 O216 1.252 . S
C213 O217 1.260 . S
O214 In208 2.266 1_565 S
O214 C211 1.252 . S
O215 In208 2.326 . S
O215 C211 1.260 1_545 S
O216 In208 2.266 1_565 S
O216 C213 1.252 . S
O217 In208 2.326 1_565 S
O217 C213 1.260 . S
C218 O209 1.240 . S
C218 O210 1.252 . S
O219 In208 2.294 . S
O219 C212 1.240 . S
O220 In208 2.326 . S
O220 C212 1.252 . S
In221 O222 2.294 . S
In221 O223 2.326 . S
In221 O227 2.266 . S
In221 O228 2.326 . S
In221 O229 2.266 . S
In221 O230 2.326 . S
In221 O232 2.294 . S
In221 O233 2.326 . S
O222 In221 2.294 . S
O222 C231 1.240 . S
O223 In221 2.326 . S
O223 C231 1.252 . S
C224 O227 1.252 . S
C224 O228 1.260 . S
C225 O232 1.240 . S
C225 O233 1.252 . S
C226 O229 1.252 . S
C226 O230 1.260 . S
O227 In221 2.266 . S
O227 C224 1.252 . S
O228 In221 2.326 . S
O228 C224 1.260 . S
O229 In221 2.266 . S
O229 C226 1.252 . S
O230 In221 2.326 . S
O230 C226 1.260 . S
C231 O222 1.240 . S
C231 O223 1.252 . S
O232 In221 2.294 . S
O232 C225 1.240 . S
O233 In221 2.326 . S
O233 C225 1.252 . S
In234 O235 2.294 1_545 S
In234 O236 2.326 1_545 S
In234 O240 2.266 . S
In234 O241 2.326 . S
In234 O242 2.266 . S
In234 O243 2.326 . S
In234 O245 2.294 . S
In234 O246 2.326 . S
O235 In234 2.294 1_565 S
O235 C244 1.240 . S
O236 In234 2.326 1_565 S
O236 C244 1.252 . S
C237 O240 1.252 . S
C237 O241 1.260 . S
C238 O245 1.240 1_565 S
C238 O246 1.252 1_565 S
C239 O242 1.252 . S
C239 O243 1.260 . S
O240 In234 2.266 . S
O240 C237 1.252 . S
O241 In234 2.326 . S
O241 C237 1.260 . S
O242 In234 2.266 . S
O242 C239 1.252 . S
O243 In234 2.326 . S
O243 C239 1.260 . S
C244 O235 1.240 . S
C244 O236 1.252 . S
O245 In234 2.294 . S
O245 C238 1.240 1_545 S
O246 In234 2.326 . S
O246 C238 1.252 1_545 S
In247 O248 2.294 . S
In247 O249 2.326 . S
In247 O253 2.266 . S
In247 O254 2.326 . S
In247 O255 2.266 1_554 S
In247 O256 2.326 1_554 S
In247 O258 2.294 . S
In247 O259 2.326 . S
O248 In247 2.294 . S
O248 C257 1.240 . S
O249 In247 2.326 . S
O249 C257 1.252 . S
C250 O253 1.252 . S
C250 O254 1.260 . S
C251 O258 1.240 . S
C251 O259 1.252 . S
C252 O255 1.252 . S
C252 O256 1.260 . S
O253 In247 2.266 . S
O253 C250 1.252 . S
O254 In247 2.326 . S
O254 C250 1.260 . S
O255 In247 2.266 1_556 S
O255 C252 1.252 . S
O256 In247 2.326 1_556 S
O256 C252 1.260 . S
C257 O248 1.240 . S
C257 O249 1.252 . S
O258 In247 2.294 . S
O258 C251 1.240 . S
O259 In247 2.326 . S
O259 C251 1.252 . S
In260 O261 2.294 . S
In260 O262 2.326 . S
In260 O266 2.266 1_554 S
In260 O267 2.326 1_554 S
In260 O268 2.266 1_554 S
In260 O269 2.326 . S
In260 O271 2.294 . S
In260 O272 2.326 . S
O261 In260 2.294 . S
O261 C270 1.240 . S
O262 In260 2.326 . S
O262 C270 1.252 . S
C263 O266 1.252 . S
C263 O267 1.260 . S
C264 O271 1.240 . S
C264 O272 1.252 . S
C265 O268 1.252 . S
C265 O269 1.260 1_556 S
O266 In260 2.266 1_556 S
O266 C263 1.252 . S
O267 In260 2.326 1_556 S
O267 C263 1.260 . S
O268 In260 2.266 1_556 S
O268 C265 1.252 . S
O269 In260 2.326 . S
O269 C265 1.260 1_554 S
C270 O261 1.240 . S
C270 O262 1.252 . S
O271 In260 2.294 . S
O271 C264 1.240 . S
O272 In260 2.326 . S
O272 C264 1.252 . S
In273 O274 2.294 . S
In273 O275 2.326 . S
In273 O279 2.266 . S
In273 O280 2.326 . S
In273 O281 2.266 . S
In273 O282 2.326 . S
In273 O284 2.294 . S
In273 O285 2.326 . S
O274 In273 2.294 . S
O274 C283 1.240 . S
O275 In273 2.326 . S
O275 C283 1.252 . S
C276 O279 1.252 . S
C276 O280 1.260 . S
C277 O284 1.240 . S
C277 O285 1.252 . S
C278 O281 1.252 . S
C278 O282 1.260 . S
O279 In273 2.266 . S
O279 C276 1.252 . S
O280 In273 2.326 . S
O280 C276 1.260 . S
O281 In273 2.266 . S
O281 C278 1.252 . S
O282 In273 2.326 . S
O282 C278 1.260 . S
C283 O274 1.240 . S
C283 O275 1.252 . S
O284 In273 2.294 . S
O284 C277 1.240 . S
O285 In273 2.326 . S
O285 C277 1.252 . S
In286 O287 2.294 . S
In286 O288 2.326 . S
In286 O292 2.266 . S
In286 O293 2.326 . S
In286 O294 2.266 . S
In286 O295 2.326 . S
In286 O297 2.294 . S
In286 O298 2.326 . S
O287 In286 2.294 . S
O287 C296 1.240 . S
O288 In286 2.326 . S
O288 C296 1.252 . S
C289 O292 1.252 . S
C289 O293 1.260 . S
C290 O297 1.240 . S
C290 O298 1.252 . S
C291 O294 1.252 . S
C291 O295 1.260 . S
O292 In286 2.266 . S
O292 C289 1.252 . S
O293 In286 2.326 . S
O293 C289 1.260 . S
O294 In286 2.266 . S
O294 C291 1.252 . S
O295 In286 2.326 . S
O295 C291 1.260 . S
C296 O287 1.240 . S
C296 O288 1.252 . S
O297 In286 2.294 . S
O297 C290 1.240 . S
O298 In286 2.326 . S
O298 C290 1.252 . S
In299 O300 2.294 . S
In299 O301 2.326 . S
In299 O305 2.266 . S
In299 O306 2.326 . S
In299 O307 2.266 . S
In299 O308 2.326 . S
In299 O310 2.294 . S
In299 O311 2.326 . S
O300 In299 2.294 . S
O300 C309 1.240 . S
O301 In299 2.326 . S
O301 C309 1.252 . S
C302 O305 1.252 . S
C302 O306 1.260 . S
C303 O310 1.240 . S
C303 O311 1.252 . S
C304 O307 1.252 . S
C304 O308 1.260 . S
O305 In299 2.266 . S
O305 C302 1.252 . S
O306 In299 2.326 . S
O306 C302 1.260 . S
O307 In299 2.266 . S
O307 C304 1.252 . S
O308 In299 2.326 . S
O308 C304 1.260 . S
C309 O300 1.240 . S
C309 O301 1.252 . S
O310 In299 2.294 . S
O310 C303 1.240 . S
O311 In299 2.326 . S
O311 C303 1.252 . S
O312 Mn313 2.163 1_556 S
O312 C326 1.244 . S
Mn313 O312 2.163 1_554 S
Mn313 O316 2.160 1_445 S
Mn313 O317 2.221 1_455 S
Mn313 O319 2.163 1_454 S
Mn313 O321 2.160 1_545 S
Mn313 O331 2.221 1_544 S
O314 Mn315 2.087 1_556 S
O314 C326 1.256 1_565 S
Mn315 O314 2.087 1_554 S
Mn315 O322 2.089 . S
Mn315 O331 2.290 1_554 S
Mn315 O332 2.251 1_554 S
O316 Mn313 2.160 1_665 S
O316 C327 1.239 . S
O317 Mn313 2.221 1_655 S
O317 Mn318 2.290 1_554 S
O317 C328 1.278 . S
Mn318 O317 2.290 1_556 S
Mn318 O320 2.085 1_556 S
Mn318 O323 2.251 1_556 S
Mn318 O324 2.087 . S
O319 Mn313 2.163 1_656 S
O319 C329 1.244 . S
O320 Mn318 2.085 1_554 S
O320 C327 1.270 1_545 S
O321 Mn313 2.160 1_565 S
O321 C330 1.239 . S
O322 Mn315 2.089 . S
O322 C330 1.256 . S
O323 Mn318 2.251 1_554 S
O323 C328 1.241 . S
O324 Mn318 2.087 . S
O324 C329 1.256 . S
C325 O331 1.278 . S
C325 O332 1.241 . S
C326 O312 1.244 . S
C326 O314 1.256 1_545 S
C327 O316 1.239 . S
C327 O320 1.270 1_565 S
C328 O317 1.278 . S
C328 O323 1.241 . S
C329 O319 1.244 . S
C329 O324 1.256 . S
C330 O321 1.239 . S
C330 O322 1.256 . S
O331 Mn313 2.221 1_566 S
O331 Mn315 2.290 1_556 S
O331 C325 1.278 . S
O332 Mn315 2.251 1_556 S
O332 C325 1.241 . S
O333 Mn334 2.163 . S
O333 C347 1.244 . S
Mn334 O333 2.163 . S
Mn334 O337 2.160 . S
Mn334 O338 2.221 . S
Mn334 O340 2.163 . S
Mn334 O342 2.160 . S
Mn334 O352 2.221 . S
O335 Mn336 2.087 . S
O335 C347 1.256 . S
Mn336 O335 2.087 . S
Mn336 O343 2.089 . S
Mn336 O352 2.290 . S
Mn336 O353 2.251 . S
O337 Mn334 2.160 . S
O337 C348 1.239 . S
O338 Mn334 2.221 . S
O338 Mn339 2.290 . S
O338 C349 1.278 . S
Mn339 O338 2.290 . S
Mn339 O341 2.089 . S
Mn339 O344 2.251 . S
Mn339 O345 2.087 . S
O340 Mn334 2.163 . S
O340 C350 1.244 . S
O341 Mn339 2.089 . S
O341 C348 1.256 . S
O342 Mn334 2.160 . S
O342 C351 1.239 . S
O343 Mn336 2.089 . S
O343 C351 1.256 . S
O344 Mn339 2.251 . S
O344 C349 1.241 . S
O345 Mn339 2.087 . S
O345 C350 1.256 . S
C346 O352 1.278 . S
C346 O353 1.241 . S
C347 O333 1.244 . S
C347 O335 1.256 . S
C348 O337 1.239 . S
C348 O341 1.256 . S
C349 O338 1.278 . S
C349 O344 1.241 . S
C350 O340 1.244 . S
C350 O345 1.256 . S
C351 O342 1.239 . S
C351 O343 1.256 . S
O352 Mn334 2.221 . S
O352 Mn336 2.290 . S
O352 C346 1.278 . S
O353 Mn336 2.251 . S
O353 C346 1.241 . S
O354 Mn355 2.163 1_565 S
O354 C368 1.244 . S
Mn355 O354 2.163 1_545 S
Mn355 O358 2.160 . S
Mn355 O359 2.221 1_545 S
Mn355 O361 2.163 . S
Mn355 O363 2.160 . S
Mn355 O373 2.221 . S
O356 Mn357 2.087 . S
O356 C368 1.256 1_545 S
Mn357 O356 2.087 . S
Mn357 O364 2.089 . S
Mn357 O373 2.290 . S
Mn357 O374 2.251 . S
O358 Mn355 2.160 . S
O358 C369 1.239 . S
O359 Mn355 2.221 1_565 S
O359 Mn360 2.290 . S
O359 C370 1.278 . S
Mn360 O359 2.290 . S
Mn360 O362 2.089 1_565 S
Mn360 O365 2.251 . S
Mn360 O366 2.087 . S
O361 Mn355 2.163 . S
O361 C371 1.244 1_545 S
O362 Mn360 2.089 1_545 S
O362 C369 1.256 . S
O363 Mn355 2.160 . S
O363 C372 1.239 . S
O364 Mn357 2.089 . S
O364 C372 1.256 . S
O365 Mn360 2.251 . S
O365 C370 1.241 . S
O366 Mn360 2.087 . S
O366 C371 1.256 . S
C367 O373 1.278 . S
C367 O374 1.241 . S
C368 O354 1.244 . S
C368 O356 1.256 1_565 S
C369 O358 1.239 . S
C369 O362 1.256 . S
C370 O359 1.278 . S
C370 O365 1.241 . S
C371 O361 1.244 1_565 S
C371 O366 1.256 . S
C372 O363 1.239 . S
C372 O364 1.256 . S
O373 Mn355 2.221 . S
O373 Mn357 2.290 . S
O373 C367 1.278 . S
O374 Mn357 2.251 . S
O374 C367 1.241 . S
O375 Mn376 2.163 . S
O375 C389 1.244 . S
Mn376 O375 2.163 . S
Mn376 O379 2.160 . S
Mn376 O380 2.221 . S
Mn376 O382 2.163 . S
Mn376 O384 2.160 . S
Mn376 O394 2.221 . S
O377 Mn378 2.087 . S
O377 C389 1.256 . S
Mn378 O377 2.087 . S
Mn378 O385 2.089 . S
Mn378 O394 2.290 . S
Mn378 O395 2.251 . S
O379 Mn376 2.160 . S
O379 C390 1.239 . S
O380 Mn376 2.221 . S
O380 Mn381 2.290 . S
O380 C391 1.278 . S
Mn381 O380 2.290 . S
Mn381 O383 2.089 . S
Mn381 O386 2.251 . S
Mn381 O387 2.087 . S
O382 Mn376 2.163 . S
O382 C392 1.244 . S
O383 Mn381 2.089 . S
O383 C390 1.256 . S
O384 Mn376 2.160 . S
O384 C393 1.239 . S
O385 Mn378 2.089 . S
O385 C393 1.256 . S
O386 Mn381 2.251 . S
O386 C391 1.241 . S
O387 Mn381 2.087 . S
O387 C392 1.256 . S
C388 O394 1.278 . S
C388 O395 1.241 . S
C389 O375 1.244 . S
C389 O377 1.256 . S
C390 O379 1.239 . S
C390 O383 1.256 . S
C391 O380 1.278 . S
C391 O386 1.241 . S
C392 O382 1.244 . S
C392 O387 1.256 . S
C393 O384 1.239 . S
C393 O385 1.256 . S
O394 Mn376 2.221 . S
O394 Mn378 2.290 . S
O394 C388 1.278 . S
O395 Mn378 2.251 . S
O395 C388 1.241 . S
O396 Mn397 2.163 1_565 S
O396 C410 1.244 1_455 S
Mn397 O396 2.163 1_545 S
Mn397 O400 2.160 . S
Mn397 O401 2.221 . S
Mn397 O403 2.163 1_455 S
Mn397 O405 2.160 1_545 S
Mn397 O415 2.221 1_445 S
O398 Mn399 2.087 1_655 S
O398 C410 1.256 . S
Mn399 O398 2.087 1_455 S
Mn399 O406 2.089 . S
Mn399 O415 2.290 1_455 S
Mn399 O416 2.251 1_455 S
O400 Mn397 2.160 . S
O400 C411 1.239 . S
O401 Mn397 2.221 . S
O401 Mn402 2.290 1_455 S
O401 C412 1.278 . S
Mn402 O401 2.290 1_655 S
Mn402 O404 2.089 1_655 S
Mn402 O407 2.251 1_655 S
Mn402 O408 2.087 . S
O403 Mn397 2.163 1_655 S
O403 C413 1.244 . S
O404 Mn402 2.089 1_455 S
O404 C411 1.256 . S
O405 Mn397 2.160 1_565 S
O405 C414 1.239 . S
O406 Mn399 2.089 . S
O406 C414 1.256 . S
O407 Mn402 2.251 1_455 S
O407 C412 1.241 . S
O408 Mn402 2.087 . S
O408 C413 1.256 . S
C409 O415 1.278 . S
C409 O416 1.241 . S
C410 O396 1.244 1_655 S
C410 O398 1.256 . S
C411 O400 1.239 . S
C411 O404 1.256 . S
C412 O401 1.278 . S
C412 O407 1.241 . S
C413 O403 1.244 . S
C413 O408 1.256 . S
C414 O405 1.239 . S
C414 O406 1.256 . S
O415 Mn397 2.221 1_665 S
O415 Mn399 2.290 1_655 S
O415 C409 1.278 . S
O416 Mn399 2.251 1_655 S
O416 C409 1.241 . S
O417 Mn418 2.163 . S
O417 C431 1.244 . S
Mn418 O417 2.163 . S
Mn418 O421 2.160 . S
Mn418 O422 2.221 . S
Mn418 O424 2.163 . S
Mn418 O426 2.160 . S
Mn418 O436 2.221 . S
O419 Mn420 2.087 . S
O419 C431 1.256 . S
Mn420 O419 2.087 . S
Mn420 O427 2.089 . S
Mn420 O436 2.290 . S
Mn420 O437 2.251 . S
O421 Mn418 2.160 . S
O421 C432 1.239 . S
O422 Mn418 2.221 . S
O422 Mn423 2.290 . S
O422 C433 1.278 . S
Mn423 O422 2.290 . S
Mn423 O425 2.089 . S
Mn423 O428 2.251 . S
Mn423 O429 2.087 . S
O424 Mn418 2.163 . S
O424 C434 1.244 . S
O425 Mn423 2.089 . S
O425 C432 1.256 . S
O426 Mn418 2.160 . S
O426 C435 1.239 . S
O427 Mn420 2.089 . S
O427 C435 1.256 . S
O428 Mn423 2.251 . S
O428 C433 1.241 . S
O429 Mn423 2.087 . S
O429 C434 1.256 . S
C430 O436 1.278 . S
C430 O437 1.241 . S
C431 O417 1.244 . S
C431 O419 1.256 . S
C432 O421 1.239 . S
C432 O425 1.256 . S
C433 O422 1.278 . S
C433 O428 1.241 . S
C434 O424 1.244 . S
C434 O429 1.256 . S
C435 O426 1.239 . S
C435 O427 1.256 . S
O436 Mn418 2.221 . S
O436 Mn420 2.290 . S
O436 C430 1.278 . S
O437 Mn420 2.251 . S
O437 C430 1.241 . S
O438 Mn439 2.163 1_566 S
O438 C452 1.244 . S
Mn439 O438 2.163 1_544 S
Mn439 O442 2.160 . S
Mn439 O443 2.221 . S
Mn439 O445 2.163 1_545 S
Mn439 O447 2.153 1_554 S
Mn439 O457 2.221 1_544 S
O440 Mn441 2.087 1_565 S
O440 C452 1.256 . S
Mn441 O440 2.087 1_545 S
Mn441 O448 2.089 . S
Mn441 O457 2.290 1_545 S
Mn441 O458 2.251 1_545 S
O442 Mn439 2.160 . S
O442 C453 1.239 . S
O443 Mn439 2.221 . S
O443 Mn444 2.290 1_545 S
O443 C454 1.278 . S
Mn444 O443 2.290 1_565 S
Mn444 O446 2.088 1_565 S
Mn444 O449 2.251 1_565 S
Mn444 O450 2.087 . S
O445 Mn439 2.163 1_565 S
O445 C455 1.244 . S
O446 Mn444 2.088 1_545 S
O446 C453 1.257 . S
O447 Mn439 2.153 1_556 S
O447 C456 1.259 . S
O448 Mn441 2.089 . S
O448 C456 1.256 . S
O449 Mn444 2.251 1_545 S
O449 C454 1.241 . S
O450 Mn444 2.087 . S
O450 C455 1.256 . S
C451 O457 1.278 . S
C451 O458 1.241 . S
C452 O438 1.244 . S
C452 O440 1.256 . S
C453 O442 1.239 . S
C453 O446 1.257 . S
C454 O443 1.278 . S
C454 O449 1.241 . S
C455 O445 1.244 . S
C455 O450 1.256 . S
C456 O447 1.259 . S
C456 O448 1.256 . S
O457 Mn439 2.221 1_566 S
O457 Mn441 2.290 1_565 S
O457 C451 1.278 . S
O458 Mn441 2.251 1_565 S
O458 C451 1.241 . S
O459 Mn460 2.163 . S
O459 C473 1.244 . S
Mn460 O459 2.163 . S
Mn460 O463 2.160 . S
Mn460 O464 2.221 . S
Mn460 O466 2.163 . S
Mn460 O468 2.160 . S
Mn460 O478 2.221 . S
O461 Mn462 2.087 . S
O461 C473 1.256 . S
Mn462 O461 2.087 . S
Mn462 O469 2.089 . S
Mn462 O478 2.290 . S
Mn462 O479 2.251 . S
O463 Mn460 2.160 . S
O463 C474 1.239 . S
O464 Mn460 2.221 . S
O464 Mn465 2.290 . S
O464 C475 1.278 . S
Mn465 O464 2.290 . S
Mn465 O467 2.089 . S
Mn465 O470 2.251 . S
Mn465 O471 2.087 . S
O466 Mn460 2.163 . S
O466 C476 1.244 . S
O467 Mn465 2.089 . S
O467 C474 1.256 . S
O468 Mn460 2.160 . S
O468 C477 1.239 . S
O469 Mn462 2.089 . S
O469 C477 1.256 . S
O470 Mn465 2.251 . S
O470 C475 1.241 . S
O471 Mn465 2.087 . S
O471 C476 1.256 . S
C472 O478 1.278 . S
C472 O479 1.241 . S
C473 O459 1.244 . S
C473 O461 1.256 . S
C474 O463 1.239 . S
C474 O467 1.256 . S
C475 O464 1.278 . S
C475 O470 1.241 . S
C476 O466 1.244 . S
C476 O471 1.256 . S
C477 O468 1.239 . S
C477 O469 1.256 . S
O478 Mn460 2.221 . S
O478 Mn462 2.290 . S
O478 C472 1.278 . S
O479 Mn462 2.251 . S
O479 C472 1.241 . S
O480 Mn481 2.163 1_556 S
O480 C494 1.244 . S
Mn481 O480 2.163 1_554 S
Mn481 O484 2.160 . S
Mn481 O485 2.221 1_554 S
Mn481 O487 2.163 . S
Mn481 O489 2.160 . S
Mn481 O499 2.221 . S
O482 Mn483 2.087 . S
O482 C494 1.256 1_554 S
Mn483 O482 2.087 . S
Mn483 O490 2.089 . S
Mn483 O499 2.290 . S
Mn483 O500 2.251 . S
O484 Mn481 2.160 . S
O484 C495 1.239 . S
O485 Mn481 2.221 1_556 S
O485 Mn486 2.290 . S
O485 C496 1.278 . S
Mn486 O485 2.290 . S
Mn486 O488 2.089 1_556 S
Mn486 O491 2.251 . S
Mn486 O492 2.087 . S
O487 Mn481 2.163 . S
O487 C497 1.244 1_554 S
O488 Mn486 2.089 1_554 S
O488 C495 1.256 . S
O489 Mn481 2.160 . S
O489 C498 1.239 . S
O490 Mn483 2.089 . S
O490 C498 1.256 . S
O491 Mn486 2.251 . S
O491 C496 1.241 . S
O492 Mn486 2.087 . S
O492 C497 1.256 . S
C493 O499 1.278 . S
C493 O500 1.241 . S
C494 O480 1.244 . S
C494 O482 1.256 1_556 S
C495 O484 1.239 . S
C495 O488 1.256 . S
C496 O485 1.278 . S
C496 O491 1.241 . S
C497 O487 1.244 1_556 S
C497 O492 1.256 . S
C498 O489 1.239 . S
C498 O490 1.256 . S
O499 Mn481 2.221 . S
O499 Mn483 2.290 . S
O499 C493 1.278 . S
O500 Mn483 2.251 . S
O500 C493 1.241 . S
O501 Mn502 2.163 . S
O501 C515 1.244 . S
Mn502 O501 2.163 . S
Mn502 O505 2.160 . S
Mn502 O506 2.221 . S
Mn502 O508 2.163 . S
Mn502 O510 2.160 . S
Mn502 O520 2.221 . S
O503 Mn504 2.087 . S
O503 C515 1.256 . S
Mn504 O503 2.087 . S
Mn504 O511 2.089 . S
Mn504 O520 2.290 . S
Mn504 O521 2.251 . S
O505 Mn502 2.160 . S
O505 C516 1.239 . S
O506 Mn502 2.221 . S
O506 Mn507 2.290 . S
O506 C517 1.278 . S
Mn507 O506 2.290 . S
Mn507 O509 2.089 . S
Mn507 O512 2.251 . S
Mn507 O513 2.087 . S
O508 Mn502 2.163 . S
O508 C518 1.244 . S
O509 Mn507 2.089 . S
O509 C516 1.256 . S
O510 Mn502 2.160 . S
O510 C519 1.239 . S
O511 Mn504 2.089 . S
O511 C519 1.256 . S
O512 Mn507 2.251 . S
O512 C517 1.241 . S
O513 Mn507 2.087 . S
O513 C518 1.256 . S
C514 O520 1.278 . S
C514 O521 1.241 . S
C515 O501 1.244 . S
C515 O503 1.256 . S
C516 O505 1.239 . S
C516 O509 1.256 . S
C517 O506 1.278 . S
C517 O512 1.241 . S
C518 O508 1.244 . S
C518 O513 1.256 . S
C519 O510 1.239 . S
C519 O511 1.256 . S
O520 Mn502 2.221 . S
O520 Mn504 2.290 . S
O520 C514 1.278 . S
O521 Mn504 2.251 . S
O521 C514 1.241 . S
O522 Mn523 2.163 1_655 S
O522 C536 1.244 . S
Mn523 O522 2.163 1_455 S
Mn523 O526 2.160 . S
Mn523 O527 2.221 1_455 S
Mn523 O529 2.163 . S
Mn523 O531 2.160 . S
Mn523 O541 2.221 . S
O524 Mn525 2.087 . S
O524 C536 1.256 1_455 S
Mn525 O524 2.087 . S
Mn525 O532 2.089 . S
Mn525 O541 2.290 . S
Mn525 O542 2.251 . S
O526 Mn523 2.160 . S
O526 C537 1.239 . S
O527 Mn523 2.221 1_655 S
O527 Mn528 2.290 . S
O527 C538 1.278 . S
Mn528 O527 2.290 . S
Mn528 O530 2.089 1_655 S
Mn528 O533 2.251 . S
Mn528 O534 2.087 . S
O529 Mn523 2.163 . S
O529 C539 1.244 1_455 S
O530 Mn528 2.089 1_455 S
O530 C537 1.256 . S
O531 Mn523 2.160 . S
O531 C540 1.239 . S
O532 Mn525 2.089 . S
O532 C540 1.256 . S
O533 Mn528 2.251 . S
O533 C538 1.241 . S
O534 Mn528 2.087 . S
O534 C539 1.256 . S
C535 O541 1.278 . S
C535 O542 1.241 . S
C536 O522 1.244 . S
C536 O524 1.256 1_655 S
C537 O526 1.239 . S
C537 O530 1.256 . S
C538 O527 1.278 . S
C538 O533 1.241 . S
C539 O529 1.244 1_655 S
C539 O534 1.256 . S
C540 O531 1.239 . S
C540 O532 1.256 . S
O541 Mn523 2.221 . S
O541 Mn525 2.290 . S
O541 C535 1.278 . S
O542 Mn525 2.251 . S
O542 C535 1.241 . S
O543 Mn544 2.163 . S
O543 C557 1.244 . S
Mn544 O543 2.163 . S
Mn544 O547 2.160 . S
Mn544 O548 2.221 . S
Mn544 O550 2.163 . S
Mn544 O552 2.160 . S
Mn544 O562 2.221 . S
O545 Mn546 2.087 . S
O545 C557 1.256 . S
Mn546 O545 2.087 . S
Mn546 O553 2.089 . S
Mn546 O562 2.290 . S
Mn546 O563 2.251 . S
O547 Mn544 2.160 . S
O547 C558 1.239 . S
O548 Mn544 2.221 . S
O548 Mn549 2.290 . S
O548 C559 1.278 . S
Mn549 O548 2.290 . S
Mn549 O551 2.089 . S
Mn549 O554 2.251 . S
Mn549 O555 2.087 . S
O550 Mn544 2.163 . S
O550 C560 1.244 . S
O551 Mn549 2.089 . S
O551 C558 1.256 . S
O552 Mn544 2.160 . S
O552 C561 1.239 . S
O553 Mn546 2.089 . S
O553 C561 1.256 . S
O554 Mn549 2.251 . S
O554 C559 1.241 . S
O555 Mn549 2.087 . S
O555 C560 1.256 . S
C556 O562 1.278 . S
C556 O563 1.241 . S
C557 O543 1.244 . S
C557 O545 1.256 . S
C558 O547 1.239 . S
C558 O551 1.256 . S
C559 O548 1.278 . S
C559 O554 1.241 . S
C560 O550 1.244 . S
C560 O555 1.256 . S
C561 O552 1.239 . S
C561 O553 1.256 . S
O562 Mn544 2.221 . S
O562 Mn546 2.290 . S
O562 C556 1.278 . S
O563 Mn546 2.251 . S
O563 C556 1.241 . S
O564 Mn565 2.163 . S
O564 C578 1.244 . S
Mn565 O564 2.163 . S
Mn565 O568 2.160 . S
Mn565 O569 2.221 . S
Mn565 O571 2.163 . S
Mn565 O573 2.160 . S
Mn565 O583 2.221 . S
O566 Mn567 2.087 . S
O566 C578 1.256 . S
Mn567 O566 2.087 . S
Mn567 O574 2.089 . S
Mn567 O583 2.290 . S
Mn567 O584 2.251 . S
O568 Mn565 2.160 . S
O568 C579 1.239 . S
O569 Mn565 2.221 . S
O569 Mn570 2.290 . S
O569 C580 1.278 . S
Mn570 O569 2.290 . S
Mn570 O572 2.089 . S
Mn570 O575 2.251 . S
Mn570 O576 2.087 . S
O571 Mn565 2.163 . S
O571 C581 1.244 . S
O572 Mn570 2.089 . S
O572 C579 1.256 . S
O573 Mn565 2.160 . S
O573 C582 1.239 . S
O574 Mn567 2.089 . S
O574 C582 1.256 . S
O575 Mn570 2.251 . S
O575 C580 1.241 . S
O576 Mn570 2.087 . S
O576 C581 1.256 . S
C577 O583 1.278 . S
C577 O584 1.241 . S
C578 O564 1.244 . S
C578 O566 1.256 . S
C579 O568 1.239 . S
C579 O572 1.256 . S
C580 O569 1.278 . S
C580 O575 1.241 . S
C581 O571 1.244 . S
C581 O576 1.256 . S
C582 O573 1.239 . S
C582 O574 1.256 . S
O583 Mn565 2.221 . S
O583 Mn567 2.290 . S
O583 C577 1.278 . S
O584 Mn567 2.251 . S
O584 C577 1.241 . S
O585 Mn586 2.163 . S
O585 C599 1.244 . S
Mn586 O585 2.163 . S
Mn586 O589 2.160 . S
Mn586 O590 2.221 . S
Mn586 O592 2.163 . S
Mn586 O594 2.160 . S
Mn586 O604 2.221 . S
O587 Mn588 2.087 . S
O587 C599 1.256 . S
Mn588 O587 2.087 . S
Mn588 O595 2.089 . S
Mn588 O604 2.290 . S
Mn588 O605 2.251 . S
O589 Mn586 2.160 . S
O589 C600 1.239 . S
O590 Mn586 2.221 . S
O590 Mn591 2.290 . S
O590 C601 1.278 . S
Mn591 O590 2.290 . S
Mn591 O593 2.089 . S
Mn591 O596 2.251 . S
Mn591 O597 2.087 . S
O592 Mn586 2.163 . S
O592 C602 1.244 . S
O593 Mn591 2.089 . S
O593 C600 1.256 . S
O594 Mn586 2.160 . S
O594 C603 1.239 . S
O595 Mn588 2.089 . S
O595 C603 1.256 . S
O596 Mn591 2.251 . S
O596 C601 1.241 . S
O597 Mn591 2.087 . S
O597 C602 1.256 . S
C598 O604 1.278 . S
C598 O605 1.241 . S
C599 O585 1.244 . S
C599 O587 1.256 . S
C600 O589 1.239 . S
C600 O593 1.256 . S
C601 O590 1.278 . S
C601 O596 1.241 . S
C602 O592 1.244 . S
C602 O597 1.256 . S
C603 O594 1.239 . S
C603 O595 1.256 . S
O604 Mn586 2.221 . S
O604 Mn588 2.290 . S
O604 C598 1.278 . S
O605 Mn588 2.251 . S
O605 C598 1.241 . S
O606 Mn607 2.163 . S
O606 C620 1.244 . S
Mn607 O606 2.163 . S
Mn607 O610 2.160 . S
Mn607 O611 2.221 . S
Mn607 O613 2.163 . S
Mn607 O615 2.160 . S
Mn607 O625 2.221 . S
O608 Mn609 2.087 . S
O608 C620 1.256 . S
Mn609 O608 2.087 . S
Mn609 O616 2.089 . S
Mn609 O625 2.290 . S
Mn609 O626 2.251 . S
O610 Mn607 2.160 . S
O610 C621 1.239 . S
O611 Mn607 2.221 . S
O611 Mn612 2.290 . S
O611 C622 1.278 . S
Mn612 O611 2.290 . S
Mn612 O614 2.089 . S
Mn612 O617 2.251 . S
Mn612 O618 2.087 . S
O613 Mn607 2.163 . S
O613 C623 1.244 . S
O614 Mn612 2.089 . S
O614 C621 1.256 . S
O615 Mn607 2.160 . S
O615 C624 1.239 . S
O616 Mn609 2.089 . S
O616 C624 1.256 . S
O617 Mn612 2.251 . S
O617 C622 1.241 . S
O618 Mn612 2.087 . S
O618 C623 1.256 . S
C619 O625 1.278 . S
C619 O626 1.241 . S
C620 O606 1.244 . S
C620 O608 1.256 . S
C621 O610 1.239 . S
C621 O614 1.256 . S
C622 O611 1.278 . S
C622 O617 1.241 . S
C623 O613 1.244 . S
C623 O618 1.256 . S
C624 O615 1.239 . S
C624 O616 1.256 . S
O625 Mn607 2.221 . S
O625 Mn609 2.290 . S
O625 C619 1.278 . S
O626 Mn609 2.251 . S
O626 C619 1.241 . S
O627 Mn628 2.163 1_656 S
O627 C641 1.244 . S
Mn628 O627 2.163 1_454 S
Mn628 O631 2.160 . S
Mn628 O632 2.221 . S
Mn628 O634 2.163 1_554 S
Mn628 O636 2.164 . S
Mn628 O646 2.221 1_454 S
O629 Mn630 2.087 1_556 S
O629 C641 1.256 . S
Mn630 O629 2.087 1_554 S
Mn630 O637 2.089 . S
Mn630 O646 2.290 1_554 S
Mn630 O647 2.251 1_554 S
O631 Mn628 2.160 . S
O631 C642 1.239 . S
O632 Mn628 2.221 . S
O632 Mn633 2.290 1_554 S
O632 C643 1.278 . S
Mn633 O632 2.290 1_556 S
Mn633 O635 2.089 . S
Mn633 O638 2.251 1_556 S
Mn633 O639 2.087 . S
O634 Mn628 2.163 1_556 S
O634 C644 1.244 . S
O635 Mn633 2.089 . S
O635 C642 1.256 1_556 S
O636 Mn628 2.164 . S
O636 C645 1.225 1_455 S
O637 Mn630 2.089 . S
O637 C645 1.256 . S
O638 Mn633 2.251 1_554 S
O638 C643 1.241 . S
O639 Mn633 2.087 . S
O639 C644 1.256 . S
C640 O646 1.278 . S
C640 O647 1.241 . S
C641 O627 1.244 . S
C641 O629 1.256 . S
C642 O631 1.239 . S
C642 O635 1.256 1_554 S
C643 O632 1.278 . S
C643 O638 1.241 . S
C644 O634 1.244 . S
C644 O639 1.256 . S
C645 O636 1.225 1_655 S
C645 O637 1.256 . S
O646 Mn628 2.221 1_656 S
O646 Mn630 2.290 1_556 S
O646 C640 1.278 . S
O647 Mn630 2.251 1_556 S
O647 C640 1.241 . S
C648 C649 1.369 . S
C648 C650 1.419 . S
C648 H652 0.930 . S
C649 C648 1.369 . S
C649 C658 1.429 1_655 S
C650 C648 1.419 . S
C650 C651 1.363 . S
C650 H653 0.929 . S
C651 C650 1.363 . S
C651 C657 1.428 1_655 S
H652 C648 0.930 . S
H653 C650 0.929 . S
S654 N655 1.613 . S
S654 N656 1.610 . S
N655 S654 1.613 . S
N655 C658 1.350 . S
N656 S654 1.610 . S
N656 C657 1.351 . S
C657 C651 1.428 1_455 S
C657 N656 1.351 . S
C657 C658 1.434 . S
C658 C649 1.429 1_455 S
C658 N655 1.350 . S
C658 C657 1.434 . S
C659 C660 1.369 . S
C659 C661 1.419 . S
C659 H663 0.930 . S
C660 C659 1.369 . S
C660 C669 1.429 . S
C661 C659 1.419 . S
C661 C662 1.363 . S
C661 H664 0.929 . S
C662 C661 1.363 . S
C662 C668 1.428 . S
H663 C659 0.930 . S
H664 C661 0.929 . S
S665 N666 1.613 . S
S665 N667 1.610 . S
N666 S665 1.613 . S
N666 C669 1.350 . S
N667 S665 1.610 . S
N667 C668 1.351 . S
C668 C662 1.428 . S
C668 N667 1.351 . S
C668 C669 1.434 . S
C669 C660 1.429 . S
C669 N666 1.350 . S
C669 C668 1.434 . S
C670 C671 1.369 . S
C670 C672 1.419 . S
C670 H674 0.930 . S
C671 C670 1.369 . S
C671 C680 1.429 . S
C672 C670 1.419 . S
C672 C673 1.363 . S
C672 H675 0.929 . S
C673 C672 1.363 . S
C673 C679 1.428 . S
H674 C670 0.930 . S
H675 C672 0.929 . S
S676 N677 1.613 . S
S676 N678 1.610 . S
N677 S676 1.613 . S
N677 C680 1.350 . S
N678 S676 1.610 . S
N678 C679 1.351 . S
C679 C673 1.428 . S
C679 N678 1.351 . S
C679 C680 1.434 . S
C680 C671 1.429 . S
C680 N677 1.350 . S
C680 C679 1.434 . S
C681 C682 1.369 . S
C681 C683 1.419 . S
C681 H685 0.930 . S
C682 C681 1.369 . S
C682 C691 1.429 . S
C683 C681 1.419 . S
C683 C684 1.363 . S
C683 H686 0.929 . S
C684 C683 1.363 . S
C684 C690 1.428 . S
H685 C681 0.930 . S
H686 C683 0.929 . S
S687 N688 1.613 . S
S687 N689 1.610 . S
N688 S687 1.613 . S
N688 C691 1.350 . S
N689 S687 1.610 . S
N689 C690 1.351 . S
C690 C684 1.428 . S
C690 N689 1.351 . S
C690 C691 1.434 . S
C691 C682 1.429 . S
C691 N688 1.350 . S
C691 C690 1.434 . S
C692 C693 1.366 1_655 S
C692 C694 1.419 . S
C692 H696 0.930 . S
C693 C692 1.366 1_455 S
C693 C702 1.432 . S
C694 C692 1.419 . S
C694 C695 1.363 . S
C694 H697 0.929 . S
C695 C694 1.363 . S
C695 C701 1.428 1_655 S
H696 C692 0.930 . S
H697 C694 0.929 . S
S698 N699 1.613 . S
S698 N700 1.610 . S
N699 S698 1.613 . S
N699 C702 1.350 . S
N700 S698 1.610 . S
N700 C701 1.351 . S
C701 C695 1.428 1_455 S
C701 N700 1.351 . S
C701 C702 1.434 . S
C702 C693 1.432 . S
C702 N699 1.350 . S
C702 C701 1.434 . S
C703 C704 1.369 . S
C703 C705 1.419 . S
C703 H707 0.930 . S
C704 C703 1.369 . S
C704 C713 1.429 . S
C705 C703 1.419 . S
C705 C706 1.363 . S
C705 H708 0.929 . S
C706 C705 1.363 . S
C706 C712 1.428 . S
H707 C703 0.930 . S
H708 C705 0.929 . S
S709 N710 1.613 . S
S709 N711 1.610 . S
N710 S709 1.613 . S
N710 C713 1.350 . S
N711 S709 1.610 . S
N711 C712 1.351 . S
C712 C706 1.428 . S
C712 N711 1.351 . S
C712 C713 1.434 . S
C713 C704 1.429 . S
C713 N710 1.350 . S
C713 C712 1.434 . S
C714 C715 1.369 . S
C714 C716 1.419 . S
C714 H718 0.930 . S
C715 C714 1.369 . S
C715 C724 1.429 . S
C716 C714 1.419 . S
C716 C717 1.363 . S
C716 H719 0.929 . S
C717 C716 1.363 . S
C717 C723 1.428 . S
H718 C714 0.930 . S
H719 C716 0.929 . S
S720 N721 1.613 . S
S720 N722 1.610 . S
N721 S720 1.613 . S
N721 C724 1.350 . S
N722 S720 1.610 . S
N722 C723 1.351 . S
C723 C717 1.428 . S
C723 N722 1.351 . S
C723 C724 1.434 . S
C724 C715 1.429 . S
C724 N721 1.350 . S
C724 C723 1.434 . S
C725 C726 1.369 . S
C725 C727 1.419 . S
C725 H729 0.930 . S
C726 C725 1.369 . S
C726 C735 1.429 . S
C727 C725 1.419 . S
C727 C728 1.363 . S
C727 H730 0.929 . S
C728 C727 1.363 . S
C728 C734 1.428 . S
H729 C725 0.930 . S
H730 C727 0.929 . S
S731 N732 1.613 . S
S731 N733 1.610 . S
N732 S731 1.613 . S
N732 C735 1.350 . S
N733 S731 1.610 . S
N733 C734 1.351 . S
C734 C728 1.428 . S
C734 N733 1.351 . S
C734 C735 1.434 . S
C735 C726 1.429 . S
C735 N732 1.350 . S
C735 C734 1.434 . S
C736 C737 1.369 . S
C736 C738 1.419 . S
C736 H740 0.930 . S
C737 C736 1.369 . S
C737 C746 1.429 1_565 S
C738 C736 1.419 . S
C738 C739 1.363 . S
C738 H741 0.929 . S
C739 C738 1.363 . S
C739 C745 1.428 1_565 S
H740 C736 0.930 . S
H741 C738 0.929 . S
S742 N743 1.613 . S
S742 N744 1.610 . S
N743 S742 1.613 . S
N743 C746 1.350 . S
N744 S742 1.610 . S
N744 C745 1.351 . S
C745 C739 1.428 1_545 S
C745 N744 1.351 . S
C745 C746 1.434 . S
C746 C737 1.429 1_545 S
C746 N743 1.350 . S
C746 C745 1.434 . S
C747 C748 1.369 . S
C747 C749 1.419 . S
C747 H751 0.930 . S
C748 C747 1.369 . S
C748 C757 1.429 . S
C749 C747 1.419 . S
C749 C750 1.363 . S
C749 H752 0.929 . S
C750 C749 1.363 . S
C750 C756 1.428 . S
H751 C747 0.930 . S
H752 C749 0.929 . S
S753 N754 1.613 . S
S753 N755 1.610 . S
N754 S753 1.613 . S
N754 C757 1.350 . S
N755 S753 1.610 . S
N755 C756 1.351 . S
C756 C750 1.428 . S
C756 N755 1.351 . S
C756 C757 1.434 . S
C757 C748 1.429 . S
C757 N754 1.350 . S
C757 C756 1.434 . S
C758 C759 1.369 . S
C758 C760 1.419 . S
C758 H762 0.930 . S
C759 C758 1.369 . S
C759 C768 1.429 . S
C760 C758 1.419 . S
C760 C761 1.363 . S
C760 H763 0.929 . S
C761 C760 1.363 . S
C761 C767 1.428 . S
H762 C758 0.930 . S
H763 C760 0.929 . S
S764 N765 1.613 . S
S764 N766 1.610 . S
N765 S764 1.613 . S
N765 C768 1.350 . S
N766 S764 1.610 . S
N766 C767 1.351 . S
C767 C761 1.428 . S
C767 N766 1.351 . S
C767 C768 1.434 . S
C768 C759 1.429 . S
C768 N765 1.350 . S
C768 C767 1.434 . S
C769 C770 1.369 . S
C769 C771 1.419 . S
C769 H773 0.930 . S
C770 C769 1.369 . S
C770 C779 1.429 . S
C771 C769 1.419 . S
C771 C772 1.363 . S
C771 H774 0.929 . S
C772 C771 1.363 . S
C772 C778 1.428 . S
H773 C769 0.930 . S
H774 C771 0.929 . S
S775 N776 1.613 . S
S775 N777 1.610 . S
N776 S775 1.613 . S
N776 C779 1.350 . S
N777 S775 1.610 . S
N777 C778 1.351 . S
C778 C772 1.428 . S
C778 N777 1.351 . S
C778 C779 1.434 . S
C779 C770 1.429 . S
C779 N776 1.350 . S
C779 C778 1.434 . S
C780 C781 1.369 . S
C780 C782 1.419 . S
C780 H784 0.930 . S
C781 C780 1.369 . S
C781 C790 1.429 1_545 S
C782 C780 1.419 . S
C782 C783 1.363 . S
C782 H785 0.929 . S
C783 C782 1.363 . S
C783 C789 1.427 1_545 S
H784 C780 0.930 . S
H785 C782 0.929 . S
S786 N787 1.613 . S
S786 N788 1.610 . S
N787 S786 1.613 . S
N787 C790 1.350 . S
N788 S786 1.610 . S
N788 C789 1.352 . S
C789 C783 1.427 1_565 S
C789 N788 1.352 . S
C789 C790 1.434 . S
C790 C781 1.429 1_565 S
C790 N787 1.350 . S
C790 C789 1.434 . S
C791 C792 1.369 . S
C791 C793 1.419 . S
C791 H795 0.930 . S
C792 C791 1.369 . S
C792 C801 1.429 . S
C793 C791 1.419 . S
C793 C794 1.363 . S
C793 H796 0.929 . S
C794 C793 1.363 . S
C794 C800 1.428 . S
H795 C791 0.930 . S
H796 C793 0.929 . S
S797 N798 1.613 . S
S797 N799 1.610 . S
N798 S797 1.613 . S
N798 C801 1.350 . S
N799 S797 1.610 . S
N799 C800 1.351 . S
C800 C794 1.428 . S
C800 N799 1.351 . S
C800 C801 1.434 . S
C801 C792 1.429 . S
C801 N798 1.350 . S
C801 C800 1.434 . S
C802 C803 1.369 1_545 S
C802 C804 1.419 . S
C802 H806 0.930 . S
C803 C802 1.369 1_565 S
C803 C812 1.429 . S
C804 C802 1.419 . S
C804 C805 1.363 1_545 S
C804 H807 0.929 . S
C805 C804 1.363 1_565 S
C805 C811 1.428 . S
H806 C802 0.930 . S
H807 C804 0.929 . S
S808 N809 1.613 . S
S808 N810 1.610 . S
N809 S808 1.613 . S
N809 C812 1.350 . S
N810 S808 1.610 . S
N810 C811 1.351 . S
C811 C805 1.428 . S
C811 N810 1.351 . S
C811 C812 1.434 . S
C812 C803 1.429 . S
C812 N809 1.350 . S
C812 C811 1.434 . S
C813 C814 1.369 . S
C813 C815 1.419 . S
C813 H817 0.930 . S
C814 C813 1.369 . S
C814 C823 1.429 . S
C815 C813 1.419 . S
C815 C816 1.363 . S
C815 H818 0.929 . S
C816 C815 1.363 . S
C816 C822 1.428 . S
H817 C813 0.930 . S
H818 C815 0.929 . S
S819 N820 1.613 . S
S819 N821 1.610 . S
N820 S819 1.613 . S
N820 C823 1.350 . S
N821 S819 1.610 . S
N821 C822 1.351 . S
C822 C816 1.428 . S
C822 N821 1.351 . S
C822 C823 1.434 . S
C823 C814 1.429 . S
C823 N820 1.350 . S
C823 C822 1.434 . S
C824 C825 1.369 1_554 S
C824 C826 1.419 . S
C824 H828 0.930 . S
C825 C824 1.369 1_556 S
C825 C834 1.429 . S
C826 C824 1.419 . S
C826 C827 1.363 1_554 S
C826 H829 0.929 . S
C827 C826 1.363 1_556 S
C827 C833 1.428 . S
H828 C824 0.930 . S
H829 C826 0.929 . S
S830 N831 1.613 . S
S830 N832 1.610 . S
N831 S830 1.613 . S
N831 C834 1.350 . S
N832 S830 1.610 . S
N832 C833 1.351 . S
C833 C827 1.428 . S
C833 N832 1.351 . S
C833 C834 1.434 . S
C834 C825 1.429 . S
C834 N831 1.350 . S
C834 C833 1.434 . S
C835 C836 1.369 1_556 S
C835 C837 1.419 . S
C835 H839 0.930 . S
C836 C835 1.369 1_554 S
C836 C845 1.429 . S
C837 C835 1.419 . S
C837 C838 1.363 1_556 S
C837 H840 0.929 . S
C838 C837 1.363 1_554 S
C838 C844 1.428 . S
H839 C835 0.930 . S
H840 C837 0.929 . S
S841 N842 1.613 . S
S841 N843 1.610 . S
N842 S841 1.613 . S
N842 C845 1.350 . S
N843 S841 1.610 . S
N843 C844 1.351 . S
C844 C838 1.428 . S
C844 N843 1.351 . S
C844 C845 1.434 . S
C845 C836 1.429 . S
C845 N842 1.350 . S
C845 C844 1.434 . S
C846 C847 1.369 . S
C846 C848 1.419 . S
C846 H850 0.930 . S
C847 C846 1.369 . S
C847 C856 1.429 . S
C848 C846 1.419 . S
C848 C849 1.363 . S
C848 H851 0.929 . S
C849 C848 1.363 . S
C849 C855 1.428 . S
H850 C846 0.930 . S
H851 C848 0.929 . S
S852 N853 1.613 . S
S852 N854 1.610 . S
N853 S852 1.613 . S
N853 C856 1.350 . S
N854 S852 1.610 . S
N854 C855 1.351 . S
C855 C849 1.428 . S
C855 N854 1.351 . S
C855 C856 1.434 . S
C856 C847 1.429 . S
C856 N853 1.350 . S
C856 C855 1.434 . S
C857 C858 1.369 . S
C857 C859 1.419 . S
C857 H861 0.930 . S
C858 C857 1.369 . S
C858 C867 1.429 . S
C859 C857 1.419 . S
C859 C860 1.363 . S
C859 H862 0.929 . S
C860 C859 1.363 . S
C860 C866 1.428 . S
H861 C857 0.930 . S
H862 C859 0.929 . S
S863 N864 1.613 . S
S863 N865 1.610 . S
N864 S863 1.613 . S
N864 C867 1.350 . S
N865 S863 1.610 . S
N865 C866 1.351 . S
C866 C860 1.428 . S
C866 N865 1.351 . S
C866 C867 1.434 . S
C867 C858 1.429 . S
C867 N864 1.350 . S
C867 C866 1.434 . S
C868 C869 1.369 . S
C868 C870 1.419 . S
C868 H872 0.930 . S
C869 C868 1.369 . S
C869 C878 1.429 . S
C870 C868 1.419 . S
C870 C871 1.363 . S
C870 H873 0.929 . S
C871 C870 1.363 . S
C871 C877 1.428 . S
H872 C868 0.930 . S
H873 C870 0.929 . S
S874 N875 1.613 . S
S874 N876 1.610 . S
N875 S874 1.613 . S
N875 C878 1.350 . S
N876 S874 1.610 . S
N876 C877 1.351 . S
C877 C871 1.428 . S
C877 N876 1.351 . S
C877 C878 1.434 . S
C878 C869 1.429 . S
C878 N875 1.350 . S
C878 C877 1.434 . S
C879 C880 1.369 . S
C879 C881 1.419 . S
C879 H883 0.930 . S
C880 C879 1.369 . S
C880 C889 1.429 . S
C881 C879 1.419 . S
C881 C882 1.363 . S
C881 H884 0.929 . S
C882 C881 1.363 . S
C882 C888 1.428 . S
H883 C879 0.930 . S
H884 C881 0.929 . S
S885 N886 1.602 1_545 S
S885 N887 1.611 . S
N886 S885 1.602 1_565 S
N886 C889 1.350 . S
N887 S885 1.611 . S
N887 C888 1.351 1_545 S
C888 C882 1.428 . S
C888 N887 1.351 1_565 S
C888 C889 1.434 . S
C889 C880 1.429 . S
C889 N886 1.350 . S
C889 C888 1.434 . S
C890 C891 1.369 . S
C890 C892 1.419 . S
C890 H894 0.930 . S
C891 C890 1.369 . S
C891 C900 1.429 . S
C892 C890 1.419 . S
C892 C893 1.363 . S
C892 H895 0.929 . S
C893 C892 1.363 . S
C893 C899 1.428 . S
H894 C890 0.930 . S
H895 C892 0.929 . S
S896 N897 1.613 . S
S896 N898 1.610 . S
N897 S896 1.613 . S
N897 C900 1.350 . S
N898 S896 1.610 . S
N898 C899 1.351 . S
C899 C893 1.428 . S
C899 N898 1.351 . S
C899 C900 1.434 . S
C900 C891 1.429 . S
C900 N897 1.350 . S
C900 C899 1.434 . S
C901 C902 1.369 . S
C901 C903 1.419 . S
C901 H905 0.930 . S
C902 C901 1.369 . S
C902 C911 1.429 . S
C903 C901 1.419 . S
C903 C904 1.363 . S
C903 H906 0.929 . S
C904 C903 1.363 . S
C904 C910 1.428 . S
H905 C901 0.930 . S
H906 C903 0.929 . S
S907 N908 1.613 . S
S907 N909 1.610 . S
N908 S907 1.613 . S
N908 C911 1.350 . S
N909 S907 1.610 . S
N909 C910 1.351 . S
C910 C904 1.428 . S
C910 N909 1.351 . S
C910 C911 1.434 . S
C911 C902 1.429 . S
C911 N908 1.350 . S
C911 C910 1.434 . S
C912 C913 1.369 . S
C912 C914 1.419 . S
C912 H916 0.930 . S
C913 C912 1.369 . S
C913 C922 1.429 . S
C914 C912 1.419 . S
C914 C915 1.363 . S
C914 H917 0.929 . S
C915 C914 1.363 . S
C915 C921 1.428 . S
H916 C912 0.930 . S
H917 C914 0.929 . S
S918 N919 1.613 . S
S918 N920 1.610 1_655 S
N919 S918 1.613 . S
N919 C922 1.350 1_655 S
N920 S918 1.610 1_455 S
N920 C921 1.351 . S
C921 C915 1.428 . S
C921 N920 1.351 . S
C921 C922 1.434 . S
C922 C913 1.429 . S
C922 N919 1.350 1_455 S
C922 C921 1.434 . S
C923 C924 1.369 . S
C923 C925 1.419 . S
C923 H927 0.930 . S
C924 C923 1.369 . S
C924 C933 1.429 . S
C925 C923 1.419 . S
C925 C926 1.363 . S
C925 H928 0.929 . S
C926 C925 1.363 . S
C926 C932 1.428 . S
H927 C923 0.930 . S
H928 C925 0.929 . S
S929 N930 1.613 . S
S929 N931 1.610 . S
N930 S929 1.613 . S
N930 C933 1.350 . S
N931 S929 1.610 . S
N931 C932 1.351 . S
C932 C926 1.428 . S
C932 N931 1.351 . S
C932 C933 1.434 . S
C933 C924 1.429 . S
C933 N930 1.350 . S
C933 C932 1.434 . S
C934 C935 1.369 . S
C934 C936 1.419 . S
C934 H938 0.930 . S
C935 C934 1.369 . S
C935 C944 1.429 . S
C936 C934 1.419 . S
C936 C937 1.363 . S
C936 H939 0.929 . S
C937 C936 1.363 . S
C937 C943 1.428 . S
H938 C934 0.930 . S
H939 C936 0.929 . S
S940 N941 1.613 . S
S940 N942 1.610 . S
N941 S940 1.613 . S
N941 C944 1.350 . S
N942 S940 1.610 . S
N942 C943 1.351 . S
C943 C937 1.428 . S
C943 N942 1.351 . S
C943 C944 1.434 . S
C944 C935 1.429 . S
C944 N941 1.350 . S
C944 C943 1.434 . S
C945 C946 1.369 . S
C945 C947 1.419 . S
C945 H949 0.930 . S
C946 C945 1.369 . S
C946 C955 1.429 . S
C947 C945 1.419 . S
C947 C948 1.363 . S
C947 H950 0.929 . S
C948 C947 1.363 . S
C948 C954 1.428 . S
H949 C945 0.930 . S
H950 C947 0.929 . S
S951 N952 1.613 . S
S951 N953 1.610 . S
N952 S951 1.613 . S
N952 C955 1.350 . S
N953 S951 1.610 . S
N953 C954 1.351 . S
C954 C948 1.428 . S
C954 N953 1.351 . S
C954 C955 1.434 . S
C955 C946 1.429 . S
C955 N952 1.350 . S
C955 C954 1.434 . S
C956 C957 1.369 . S
C956 C958 1.419 . S
C956 H960 0.930 . S
C957 C956 1.369 . S
C957 C966 1.429 1_455 S
C958 C956 1.419 . S
C958 C959 1.363 . S
C958 H961 0.929 . S
C959 C958 1.363 . S
C959 C965 1.428 1_455 S
H960 C956 0.930 . S
H961 C958 0.929 . S
S962 N963 1.613 . S
S962 N964 1.610 . S
N963 S962 1.613 . S
N963 C966 1.350 . S
N964 S962 1.610 . S
N964 C965 1.351 . S
C965 C959 1.428 1_655 S
C965 N964 1.351 . S
C965 C966 1.434 . S
C966 C957 1.429 1_655 S
C966 N963 1.350 . S
C966 C965 1.434 . S
C967 C968 1.369 . S
C967 C969 1.419 . S
C967 H971 0.930 . S
C968 C967 1.369 . S
C968 C977 1.429 . S
C969 C967 1.419 . S
C969 C970 1.363 . S
C969 H972 0.929 . S
C970 C969 1.363 . S
C970 C976 1.428 . S
H971 C967 0.930 . S
H972 C969 0.929 . S
S973 N974 1.613 . S
S973 N975 1.610 . S
N974 S973 1.613 . S
N974 C977 1.350 . S
N975 S973 1.610 . S
N975 C976 1.351 . S
C976 C970 1.428 . S
C976 N975 1.351 . S
C976 C977 1.434 . S
C977 C968 1.429 . S
C977 N974 1.350 . S
C977 C976 1.434 . S
C978 C979 1.369 . S
C978 C980 1.419 . S
C978 H982 0.930 . S
C979 C978 1.369 . S
C979 C988 1.429 . S
C980 C978 1.419 . S
C980 C981 1.363 . S
C980 H983 0.929 . S
C981 C980 1.363 . S
C981 C987 1.428 . S
H982 C978 0.930 . S
H983 C980 0.929 . S
S984 N985 1.613 . S
S984 N986 1.610 . S
N985 S984 1.613 . S
N985 C988 1.350 . S
N986 S984 1.610 . S
N986 C987 1.351 . S
C987 C981 1.428 . S
C987 N986 1.351 . S
C987 C988 1.434 . S
C988 C979 1.429 . S
C988 N985 1.350 . S
C988 C987 1.434 . S
C989 C990 1.369 . S
C989 C991 1.419 . S
C989 H993 0.930 . S
C990 C989 1.369 . S
C990 C999 1.429 . S
C991 C989 1.419 . S
C991 C992 1.363 . S
C991 H994 0.929 . S
C992 C991 1.363 . S
C992 C998 1.428 . S
H993 C989 0.930 . S
H994 C991 0.929 . S
S995 N996 1.613 . S
S995 N997 1.610 . S
N996 S995 1.613 . S
N996 C999 1.350 . S
N997 S995 1.610 . S
N997 C998 1.351 . S
C998 C992 1.428 . S
C998 N997 1.351 . S
C998 C999 1.434 . S
C999 C990 1.429 . S
C999 N996 1.350 . S
C999 C998 1.434 . S
C1000 C1001 1.374 . S
C1000 C1002 1.419 . S
C1000 H1004 0.930 . S
C1001 C1000 1.374 . S
C1001 C1010 1.421 1_565 S
C1002 C1000 1.419 . S
C1002 C1003 1.363 1_565 S
C1002 H1005 0.929 . S
C1003 C1002 1.363 1_545 S
C1003 C1009 1.428 . S
H1004 C1000 0.930 . S
H1005 C1002 0.929 . S
S1006 N1007 1.613 1_455 S
S1006 N1008 1.610 . S
N1007 S1006 1.613 1_655 S
N1007 C1010 1.350 . S
N1008 S1006 1.610 . S
N1008 C1009 1.351 1_455 S
C1009 C1003 1.428 . S
C1009 N1008 1.351 1_655 S
C1009 C1010 1.434 . S
C1010 C1001 1.421 1_545 S
C1010 N1007 1.350 . S
C1010 C1009 1.434 . S
C1011 C1012 1.369 . S
C1011 C1013 1.419 . S
C1011 H1015 0.930 . S
C1012 C1011 1.369 . S
C1012 C1021 1.429 . S
C1013 C1011 1.419 . S
C1013 C1014 1.363 . S
C1013 H1016 0.929 . S
C1014 C1013 1.363 . S
C1014 C1020 1.428 . S
H1015 C1011 0.930 . S
H1016 C1013 0.929 . S
S1017 N1018 1.613 . S
S1017 N1019 1.610 . S
N1018 S1017 1.613 . S
N1018 C1021 1.350 . S
N1019 S1017 1.610 . S
N1019 C1020 1.351 . S
C1020 C1014 1.428 . S
C1020 N1019 1.351 . S
C1020 C1021 1.434 . S
C1021 C1012 1.429 . S
C1021 N1018 1.350 . S
C1021 C1020 1.434 . S
C1022 C1023 1.369 . S
C1022 C1024 1.419 . S
C1022 H1026 0.930 . S
C1023 C1022 1.369 . S
C1023 C1032 1.429 . S
C1024 C1022 1.419 . S
C1024 C1025 1.363 . S
C1024 H1027 0.929 . S
C1025 C1024 1.363 . S
C1025 C1031 1.428 1_545 S
H1026 C1022 0.930 . S
H1027 C1024 0.929 . S
S1028 N1029 1.613 . S
S1028 N1030 1.610 . S
N1029 S1028 1.613 . S
N1029 C1032 1.350 1_565 S
N1030 S1028 1.610 . S
N1030 C1031 1.351 . S
C1031 C1025 1.428 1_565 S
C1031 N1030 1.351 . S
C1031 C1032 1.434 1_565 S
C1032 C1023 1.429 . S
C1032 N1029 1.350 1_545 S
C1032 C1031 1.434 1_545 S
C1033 C1034 1.369 . S
C1033 C1035 1.419 . S
C1033 H1037 0.930 . S
C1034 C1033 1.369 . S
C1034 C1043 1.429 . S
C1035 C1033 1.419 . S
C1035 C1036 1.363 . S
C1035 H1038 0.929 . S
C1036 C1035 1.363 . S
C1036 C1042 1.428 . S
H1037 C1033 0.930 . S
H1038 C1035 0.929 . S
S1039 N1040 1.613 . S
S1039 N1041 1.610 . S
N1040 S1039 1.613 . S
N1040 C1043 1.350 . S
N1041 S1039 1.610 . S
N1041 C1042 1.351 . S
C1042 C1036 1.428 . S
C1042 N1041 1.351 . S
C1042 C1043 1.434 . S
C1043 C1034 1.429 . S
C1043 N1040 1.350 . S
C1043 C1042 1.434 . S
C1044 C1045 1.369 1_565 S
C1044 C1046 1.419 . S
C1044 H1048 0.930 . S
C1045 C1044 1.369 1_545 S
C1045 C1054 1.429 . S
C1046 C1044 1.419 . S
C1046 C1047 1.363 . S
C1046 H1049 0.929 . S
C1047 C1046 1.363 . S
C1047 C1053 1.428 1_565 S
H1048 C1044 0.930 . S
H1049 C1046 0.929 . S
S1050 N1051 1.613 1_455 S
S1050 N1052 1.610 . S
N1051 S1050 1.613 1_655 S
N1051 C1054 1.350 . S
N1052 S1050 1.610 . S
N1052 C1053 1.351 1_455 S
C1053 C1047 1.428 1_545 S
C1053 N1052 1.351 1_655 S
C1053 C1054 1.434 . S
C1054 C1045 1.429 . S
C1054 N1051 1.350 . S
C1054 C1053 1.434 . S
C1055 C1056 1.369 . S
C1055 C1057 1.419 . S
C1055 H1059 0.930 . S
C1056 C1055 1.369 . S
C1056 C1065 1.429 . S
C1057 C1055 1.419 . S
C1057 C1058 1.363 . S
C1057 H1060 0.929 . S
C1058 C1057 1.363 . S
C1058 C1064 1.428 . S
H1059 C1055 0.930 . S
H1060 C1057 0.929 . S
S1061 N1062 1.613 . S
S1061 N1063 1.610 . S
N1062 S1061 1.613 . S
N1062 C1065 1.350 . S
N1063 S1061 1.610 . S
N1063 C1064 1.351 . S
C1064 C1058 1.428 . S
C1064 N1063 1.351 . S
C1064 C1065 1.434 . S
C1065 C1056 1.429 . S
C1065 N1062 1.350 . S
C1065 C1064 1.434 . S
C1066 C1067 1.369 . S
C1066 C1068 1.419 . S
C1066 H1070 0.930 . S
C1067 C1066 1.369 . S
C1067 C1076 1.429 1_545 S
C1068 C1066 1.419 . S
C1068 C1069 1.363 . S
C1068 H1071 0.929 . S
C1069 C1068 1.363 . S
C1069 C1075 1.428 . S
H1070 C1066 0.930 . S
H1071 C1068 0.929 . S
S1072 N1073 1.613 . S
S1072 N1074 1.620 . S
N1073 S1072 1.613 . S
N1073 C1076 1.350 . S
N1074 S1072 1.620 . S
N1074 C1075 1.346 1_565 S
C1075 C1069 1.428 . S
C1075 N1074 1.346 1_545 S
C1075 C1076 1.434 1_545 S
C1076 C1067 1.429 1_565 S
C1076 N1073 1.350 . S
C1076 C1075 1.434 1_565 S
C1077 C1078 1.369 . S
C1077 C1079 1.419 . S
C1077 H1081 0.930 . S
C1078 C1077 1.369 . S
C1078 C1087 1.429 . S
C1079 C1077 1.419 . S
C1079 C1080 1.363 . S
C1079 H1082 0.929 . S
C1080 C1079 1.363 . S
C1080 C1086 1.428 . S
H1081 C1077 0.930 . S
H1082 C1079 0.929 . S
S1083 N1084 1.613 . S
S1083 N1085 1.610 . S
N1084 S1083 1.613 . S
N1084 C1087 1.350 . S
N1085 S1083 1.610 . S
N1085 C1086 1.351 . S
C1086 C1080 1.428 . S
C1086 N1085 1.351 . S
C1086 C1087 1.434 . S
C1087 C1078 1.429 . S
C1087 N1084 1.350 . S
C1087 C1086 1.434 . S
C1088 C1089 1.369 . S
C1088 C1090 1.419 . S
C1088 H1092 0.930 . S
C1089 C1088 1.369 . S
C1089 C1098 1.429 1_554 S
C1090 C1088 1.419 . S
C1090 C1091 1.363 . S
C1090 H1093 0.929 . S
C1091 C1090 1.363 . S
C1091 C1097 1.428 1_554 S
H1092 C1088 0.930 . S
H1093 C1090 0.929 . S
S1094 N1095 1.613 . S
S1094 N1096 1.610 . S
N1095 S1094 1.613 . S
N1095 C1098 1.350 . S
N1096 S1094 1.610 . S
N1096 C1097 1.351 . S
C1097 C1091 1.428 1_556 S
C1097 N1096 1.351 . S
C1097 C1098 1.434 . S
C1098 C1089 1.429 1_556 S
C1098 N1095 1.350 . S
C1098 C1097 1.434 . S
C1099 C1100 1.369 . S
C1099 C1101 1.419 . S
C1099 H1103 0.930 . S
C1100 C1099 1.369 . S
C1100 C1109 1.429 1_554 S
C1101 C1099 1.419 . S
C1101 C1102 1.366 . S
C1101 H1104 0.929 . S
C1102 C1101 1.366 . S
C1102 C1108 1.427 1_554 S
H1103 C1099 0.930 . S
H1104 C1101 0.929 . S
S1105 N1106 1.613 . S
S1105 N1107 1.610 . S
N1106 S1105 1.613 . S
N1106 C1109 1.350 . S
N1107 S1105 1.610 . S
N1107 C1108 1.351 . S
C1108 C1102 1.427 1_556 S
C1108 N1107 1.351 . S
C1108 C1109 1.434 . S
C1109 C1100 1.429 1_556 S
C1109 N1106 1.350 . S
C1109 C1108 1.434 . S
C1110 C1111 1.369 . S
C1110 C1112 1.419 . S
C1110 H1114 0.930 . S
C1111 C1110 1.369 . S
C1111 C1120 1.429 . S
C1112 C1110 1.419 . S
C1112 C1113 1.363 . S
C1112 H1115 0.929 . S
C1113 C1112 1.363 . S
C1113 C1119 1.428 . S
H1114 C1110 0.930 . S
H1115 C1112 0.929 . S
S1116 N1117 1.613 . S
S1116 N1118 1.610 . S
N1117 S1116 1.613 . S
N1117 C1120 1.350 . S
N1118 S1116 1.610 . S
N1118 C1119 1.351 . S
C1119 C1113 1.428 . S
C1119 N1118 1.351 . S
C1119 C1120 1.434 . S
C1120 C1111 1.429 . S
C1120 N1117 1.350 . S
C1120 C1119 1.434 . S
C1121 C1122 1.369 . S
C1121 C1123 1.419 . S
C1121 H1125 0.930 . S
C1122 C1121 1.369 . S
C1122 C1131 1.429 . S
C1123 C1121 1.419 . S
C1123 C1124 1.363 . S
C1123 H1126 0.929 . S
C1124 C1123 1.363 . S
C1124 C1130 1.428 . S
H1125 C1121 0.930 . S
H1126 C1123 0.929 . S
S1127 N1128 1.613 . S
S1127 N1129 1.610 . S
N1128 S1127 1.613 . S
N1128 C1131 1.350 . S
N1129 S1127 1.610 . S
N1129 C1130 1.351 . S
C1130 C1124 1.428 . S
C1130 N1129 1.351 . S
C1130 C1131 1.434 . S
C1131 C1122 1.429 . S
C1131 N1128 1.350 . S
C1131 C1130 1.434 . S
C1132 C1133 1.369 . S
C1132 C1134 1.419 . S
C1132 H1136 0.930 . S
C1133 C1132 1.369 . S
C1133 C1142 1.429 . S
C1134 C1132 1.419 . S
C1134 C1135 1.363 . S
C1134 H1137 0.929 . S
C1135 C1134 1.363 . S
C1135 C1141 1.428 . S
H1136 C1132 0.930 . S
H1137 C1134 0.929 . S
S1138 N1139 1.613 . S
S1138 N1140 1.610 . S
N1139 S1138 1.613 . S
N1139 C1142 1.350 . S
N1140 S1138 1.610 . S
N1140 C1141 1.351 . S
C1141 C1135 1.428 . S
C1141 N1140 1.351 . S
C1141 C1142 1.434 . S
C1142 C1133 1.429 . S
C1142 N1139 1.350 . S
C1142 C1141 1.434 . S
C1143 C1144 1.369 . S
C1143 C1145 1.419 . S
C1143 H1147 0.930 . S
C1144 C1143 1.369 . S
C1144 C1153 1.429 . S
C1145 C1143 1.419 . S
C1145 C1146 1.363 . S
C1145 H1148 0.929 . S
C1146 C1145 1.363 . S
C1146 C1152 1.428 . S
H1147 C1143 0.930 . S
H1148 C1145 0.929 . S
S1149 N1150 1.613 . S
S1149 N1151 1.610 . S
N1150 S1149 1.613 . S
N1150 C1153 1.350 . S
N1151 S1149 1.610 . S
N1151 C1152 1.351 . S
C1152 C1146 1.428 . S
C1152 N1151 1.351 . S
C1152 C1153 1.434 . S
C1153 C1144 1.429 . S
C1153 N1150 1.350 . S
C1153 C1152 1.434 . S
C1154 C1155 1.369 . S
C1154 C1156 1.419 . S
C1154 H1158 0.930 . S
C1155 C1154 1.369 . S
C1155 C1164 1.429 . S
C1156 C1154 1.419 . S
C1156 C1157 1.363 . S
C1156 H1159 0.929 . S
C1157 C1156 1.363 . S
C1157 C1163 1.428 . S
H1158 C1154 0.930 . S
H1159 C1156 0.929 . S
S1160 N1161 1.613 . S
S1160 N1162 1.610 . S
N1161 S1160 1.613 . S
N1161 C1164 1.350 . S
N1162 S1160 1.610 . S
N1162 C1163 1.351 . S
C1163 C1157 1.428 . S
C1163 N1162 1.351 . S
C1163 C1164 1.434 . S
C1164 C1155 1.429 . S
C1164 N1161 1.350 . S
C1164 C1163 1.434 . S
C1165 C1166 1.369 . S
C1165 C1167 1.419 . S
C1165 H1169 0.930 . S
C1166 C1165 1.369 . S
C1166 C1175 1.429 . S
C1167 C1165 1.419 . S
C1167 C1168 1.363 . S
C1167 H1170 0.929 . S
C1168 C1167 1.363 . S
C1168 C1174 1.428 . S
H1169 C1165 0.930 . S
H1170 C1167 0.929 . S
S1171 N1172 1.613 . S
S1171 N1173 1.610 . S
N1172 S1171 1.613 . S
N1172 C1175 1.350 . S
N1173 S1171 1.610 . S
N1173 C1174 1.351 . S
C1174 C1168 1.428 . S
C1174 N1173 1.351 . S
C1174 C1175 1.434 . S
C1175 C1166 1.429 . S
C1175 N1172 1.350 . S
C1175 C1174 1.434 . S
C1176 C1177 1.369 . S
C1176 C1178 1.419 . S
C1176 H1180 0.930 . S
C1177 C1176 1.369 . S
C1177 C1186 1.429 . S
C1178 C1176 1.419 . S
C1178 C1179 1.363 . S
C1178 H1181 0.929 . S
C1179 C1178 1.363 . S
C1179 C1185 1.428 . S
H1180 C1176 0.930 . S
H1181 C1178 0.929 . S
S1182 N1183 1.613 . S
S1182 N1184 1.610 . S
N1183 S1182 1.613 . S
N1183 C1186 1.350 . S
N1184 S1182 1.610 . S
N1184 C1185 1.351 . S
C1185 C1179 1.428 . S
C1185 N1184 1.351 . S
C1185 C1186 1.434 . S
C1186 C1177 1.429 . S
C1186 N1183 1.350 . S
C1186 C1185 1.434 . S
C1187 C1188 1.369 . S
C1187 C1189 1.419 . S
C1187 H1191 0.930 . S
C1188 C1187 1.369 . S
C1188 C1197 1.429 . S
C1189 C1187 1.419 . S
C1189 C1190 1.363 . S
C1189 H1192 0.929 . S
C1190 C1189 1.363 . S
C1190 C1196 1.428 . S
H1191 C1187 0.930 . S
H1192 C1189 0.929 . S
S1193 N1194 1.613 . S
S1193 N1195 1.610 . S
N1194 S1193 1.613 . S
N1194 C1197 1.350 . S
N1195 S1193 1.610 . S
N1195 C1196 1.351 . S
C1196 C1190 1.428 . S
C1196 N1195 1.351 . S
C1196 C1197 1.434 . S
C1197 C1188 1.429 . S
C1197 N1194 1.350 . S
C1197 C1196 1.434 . S
C1198 C1199 1.369 . S
C1198 C1200 1.419 . S
C1198 H1202 0.930 . S
C1199 C1198 1.369 . S
C1199 C1208 1.429 1_455 S
C1200 C1198 1.419 . S
C1200 C1201 1.363 . S
C1200 H1203 0.929 . S
C1201 C1200 1.363 . S
C1201 C1207 1.428 1_455 S
H1202 C1198 0.930 . S
H1203 C1200 0.929 . S
S1204 N1205 1.613 . S
S1204 N1206 1.610 . S
N1205 S1204 1.613 . S
N1205 C1208 1.350 . S
N1206 S1204 1.610 . S
N1206 C1207 1.351 . S
C1207 C1201 1.428 1_655 S
C1207 N1206 1.351 . S
C1207 C1208 1.434 . S
C1208 C1199 1.429 1_655 S
C1208 N1205 1.350 . S
C1208 C1207 1.434 . S
C1209 C1210 1.369 . S
C1209 C1211 1.419 . S
C1209 H1213 0.930 . S
C1210 C1209 1.369 . S
C1210 C1219 1.429 . S
C1211 C1209 1.419 . S
C1211 C1212 1.363 . S
C1211 H1214 0.929 . S
C1212 C1211 1.363 . S
C1212 C1218 1.428 . S
H1213 C1209 0.930 . S
H1214 C1211 0.929 . S
S1215 N1216 1.613 . S
S1215 N1217 1.610 . S
N1216 S1215 1.613 . S
N1216 C1219 1.350 . S
N1217 S1215 1.610 . S
N1217 C1218 1.351 . S
C1218 C1212 1.428 . S
C1218 N1217 1.351 . S
C1218 C1219 1.434 . S
C1219 C1210 1.429 . S
C1219 N1216 1.350 . S
C1219 C1218 1.434 . S
C1220 C1221 1.369 . S
C1220 C1222 1.419 . S
C1220 H1224 0.930 . S
C1221 C1220 1.369 . S
C1221 C1230 1.429 . S
C1222 C1220 1.419 . S
C1222 C1223 1.363 . S
C1222 H1225 0.929 . S
C1223 C1222 1.363 . S
C1223 C1229 1.428 . S
H1224 C1220 0.930 . S
H1225 C1222 0.929 . S
S1226 N1227 1.613 . S
S1226 N1228 1.610 . S
N1227 S1226 1.613 . S
N1227 C1230 1.350 . S
N1228 S1226 1.610 . S
N1228 C1229 1.351 . S
C1229 C1223 1.428 . S
C1229 N1228 1.351 . S
C1229 C1230 1.434 . S
C1230 C1221 1.429 . S
C1230 N1227 1.350 . S
C1230 C1229 1.434 . S
C1231 C1232 1.369 . S
C1231 C1233 1.419 . S
C1231 H1235 0.930 . S
C1232 C1231 1.369 . S
C1232 C1241 1.429 . S
C1233 C1231 1.419 . S
C1233 C1234 1.363 . S
C1233 H1236 0.929 . S
C1234 C1233 1.363 . S
C1234 C1240 1.428 . S
H1235 C1231 0.930 . S
H1236 C1233 0.929 . S
S1237 N1238 1.613 . S
S1237 N1239 1.610 . S
N1238 S1237 1.613 . S
N1238 C1241 1.350 . S
N1239 S1237 1.610 . S
N1239 C1240 1.351 . S
C1240 C1234 1.428 . S
C1240 N1239 1.351 . S
C1240 C1241 1.434 . S
C1241 C1232 1.429 . S
C1241 N1238 1.350 . S
C1241 C1240 1.434 . S
C1242 C1243 1.369 . S
C1242 C1244 1.419 . S
C1242 H1246 0.930 1_455 S
C1243 C1242 1.369 . S
C1243 C1252 1.429 . S
C1244 C1242 1.419 . S
C1244 C1245 1.363 . S
C1244 H1247 0.929 1_455 S
C1245 C1244 1.363 . S
C1245 C1251 1.428 . S
H1246 C1242 0.930 1_655 S
H1247 C1244 0.929 1_655 S
S1248 N1249 1.613 . S
S1248 N1250 1.610 . S
N1249 S1248 1.613 . S
N1249 C1252 1.350 . S
N1250 S1248 1.610 . S
N1250 C1251 1.351 . S
C1251 C1245 1.428 . S
C1251 N1250 1.351 . S
C1251 C1252 1.434 . S
C1252 C1243 1.429 . S
C1252 N1249 1.350 . S
C1252 C1251 1.434 . S
C1253 C1254 1.369 . S
C1253 C1255 1.419 . S
C1253 H1257 0.930 . S
C1254 C1253 1.369 . S
C1254 C1263 1.429 . S
C1255 C1253 1.419 . S
C1255 C1256 1.363 . S
C1255 H1258 0.929 . S
C1256 C1255 1.363 . S
C1256 C1262 1.428 . S
H1257 C1253 0.930 . S
H1258 C1255 0.929 . S
S1259 N1260 1.613 . S
S1259 N1261 1.610 . S
N1260 S1259 1.613 . S
N1260 C1263 1.350 . S
N1261 S1259 1.610 . S
N1261 C1262 1.351 . S
C1262 C1256 1.428 . S
C1262 N1261 1.351 . S
C1262 C1263 1.434 . S
C1263 C1254 1.429 . S
C1263 N1260 1.350 . S
C1263 C1262 1.434 . S
C1264 C1265 1.369 . S
C1264 C1266 1.419 . S
C1264 H1268 0.930 . S
C1265 C1264 1.369 . S
C1265 C1274 1.429 . S
C1266 C1264 1.419 . S
C1266 C1267 1.363 . S
C1266 H1269 0.929 . S
C1267 C1266 1.363 . S
C1267 C1273 1.428 . S
H1268 C1264 0.930 . S
H1269 C1266 0.929 . S
S1270 N1271 1.613 . S
S1270 N1272 1.610 . S
N1271 S1270 1.613 . S
N1271 C1274 1.350 . S
N1272 S1270 1.610 . S
N1272 C1273 1.351 . S
C1273 C1267 1.428 . S
C1273 N1272 1.351 . S
C1273 C1274 1.434 . S
C1274 C1265 1.429 . S
C1274 N1271 1.350 . S
C1274 C1273 1.434 . S
C1275 C1276 1.369 . S
C1275 C1277 1.419 . S
C1275 H1279 0.930 . S
C1276 C1275 1.369 . S
C1276 C1285 1.429 . S
C1277 C1275 1.419 . S
C1277 C1278 1.363 . S
C1277 H1280 0.929 . S
C1278 C1277 1.363 . S
C1278 C1284 1.428 . S
H1279 C1275 0.930 . S
H1280 C1277 0.929 . S
S1281 N1282 1.613 . S
S1281 N1283 1.610 . S
N1282 S1281 1.613 . S
N1282 C1285 1.350 . S
N1283 S1281 1.610 . S
N1283 C1284 1.351 . S
C1284 C1278 1.428 . S
C1284 N1283 1.351 . S
C1284 C1285 1.434 . S
C1285 C1276 1.429 . S
C1285 N1282 1.350 . S
C1285 C1284 1.434 . S
C1286 C1287 1.369 . S
C1286 C1288 1.419 . S
C1286 H1290 0.930 . S
C1287 C1286 1.369 . S
C1287 C1296 1.429 . S
C1288 C1286 1.419 . S
C1288 C1289 1.363 . S
C1288 H1291 0.929 . S
C1289 C1288 1.363 . S
C1289 C1295 1.428 . S
H1290 C1286 0.930 . S
H1291 C1288 0.929 . S
S1292 N1293 1.613 . S
S1292 N1294 1.610 . S
N1293 S1292 1.613 . S
N1293 C1296 1.350 . S
N1294 S1292 1.610 . S
N1294 C1295 1.351 . S
C1295 C1289 1.428 . S
C1295 N1294 1.351 . S
C1295 C1296 1.434 . S
C1296 C1287 1.429 . S
C1296 N1293 1.350 . S
C1296 C1295 1.434 . S
C1297 C1298 1.369 . S
C1297 C1299 1.419 . S
C1297 H1301 0.930 . S
C1298 C1297 1.369 . S
C1298 C1307 1.429 . S
C1299 C1297 1.419 . S
C1299 C1300 1.363 . S
C1299 H1302 0.929 . S
C1300 C1299 1.363 . S
C1300 C1306 1.428 . S
H1301 C1297 0.930 . S
H1302 C1299 0.929 . S
S1303 N1304 1.613 . S
S1303 N1305 1.610 . S
N1304 S1303 1.613 . S
N1304 C1307 1.350 . S
N1305 S1303 1.610 . S
N1305 C1306 1.351 . S
C1306 C1300 1.428 . S
C1306 N1305 1.351 . S
C1306 C1307 1.434 . S
C1307 C1298 1.429 . S
C1307 N1304 1.350 . S
C1307 C1306 1.434 . S
C1308 C1309 1.369 . S
C1308 C1310 1.419 . S
C1308 H1312 0.930 . S
C1309 C1308 1.369 . S
C1309 C1318 1.429 . S
C1310 C1308 1.419 . S
C1310 C1311 1.363 . S
C1310 H1313 0.929 . S
C1311 C1310 1.363 . S
C1311 C1317 1.428 . S
H1312 C1308 0.930 . S
H1313 C1310 0.929 . S
S1314 N1315 1.613 . S
S1314 N1316 1.610 . S
N1315 S1314 1.613 . S
N1315 C1318 1.350 . S
N1316 S1314 1.610 . S
N1316 C1317 1.351 . S
C1317 C1311 1.428 . S
C1317 N1316 1.351 . S
C1317 C1318 1.434 . S
C1318 C1309 1.429 . S
C1318 N1315 1.350 . S
C1318 C1317 1.434 . S
C1319 C1320 1.369 . S
C1319 C1321 1.419 . S
C1319 H1323 0.930 . S
C1320 C1319 1.369 . S
C1320 C1329 1.429 . S
C1321 C1319 1.419 . S
C1321 C1322 1.363 . S
C1321 H1324 0.929 . S
C1322 C1321 1.363 . S
C1322 C1328 1.428 . S
H1323 C1319 0.930 . S
H1324 C1321 0.929 . S
S1325 N1326 1.613 . S
S1325 N1327 1.610 . S
N1326 S1325 1.613 . S
N1326 C1329 1.350 . S
N1327 S1325 1.610 . S
N1327 C1328 1.351 . S
C1328 C1322 1.428 . S
C1328 N1327 1.351 . S
C1328 C1329 1.434 . S
C1329 C1320 1.429 . S
C1329 N1326 1.350 . S
C1329 C1328 1.434 . S
C1330 C1331 1.369 . S
C1330 C1332 1.419 . S
C1330 H1334 0.930 . S
C1331 C1330 1.369 . S
C1331 C1340 1.429 . S
C1332 C1330 1.419 . S
C1332 C1333 1.363 . S
C1332 H1335 0.929 . S
C1333 C1332 1.363 . S
C1333 C1339 1.428 . S
H1334 C1330 0.930 . S
H1335 C1332 0.929 . S
S1336 N1337 1.613 . S
S1336 N1338 1.610 . S
N1337 S1336 1.613 . S
N1337 C1340 1.350 . S
N1338 S1336 1.610 . S
N1338 C1339 1.351 . S
C1339 C1333 1.428 . S
C1339 N1338 1.351 . S
C1339 C1340 1.434 . S
C1340 C1331 1.429 . S
C1340 N1337 1.350 . S
C1340 C1339 1.434 . S
C1341 C1342 1.369 . S
C1341 C1343 1.419 . S
C1341 H1345 0.930 . S
C1342 C1341 1.369 . S
C1342 C1351 1.429 . S
C1343 C1341 1.419 . S
C1343 C1344 1.363 . S
C1343 H1346 0.929 . S
C1344 C1343 1.363 . S
C1344 C1350 1.428 . S
H1345 C1341 0.930 . S
H1346 C1343 0.929 . S
S1347 N1348 1.613 . S
S1347 N1349 1.610 . S
N1348 S1347 1.613 . S
N1348 C1351 1.350 . S
N1349 S1347 1.610 . S
N1349 C1350 1.351 . S
C1350 C1344 1.428 . S
C1350 N1349 1.351 . S
C1350 C1351 1.434 . S
C1351 C1342 1.429 . S
C1351 N1348 1.350 . S
C1351 C1350 1.434 . S
C1352 C1353 1.369 . S
C1352 C1354 1.419 . S
C1352 H1356 0.930 . S
C1353 C1352 1.369 . S
C1353 C1362 1.429 . S
C1354 C1352 1.419 . S
C1354 C1355 1.363 . S
C1354 H1357 0.929 . S
C1355 C1354 1.363 . S
C1355 C1361 1.428 . S
H1356 C1352 0.930 . S
H1357 C1354 0.929 . S
S1358 N1359 1.613 . S
S1358 N1360 1.610 . S
N1359 S1358 1.613 . S
N1359 C1362 1.350 . S
N1360 S1358 1.610 . S
N1360 C1361 1.351 . S
C1361 C1355 1.428 . S
C1361 N1360 1.351 . S
C1361 C1362 1.434 . S
C1362 C1353 1.429 . S
C1362 N1359 1.350 . S
C1362 C1361 1.434 . S
C1363 C1364 1.369 . S
C1363 C1365 1.419 . S
C1363 H1367 0.930 . S
C1364 C1363 1.369 . S
C1364 C1373 1.429 . S
C1365 C1363 1.419 . S
C1365 C1366 1.363 . S
C1365 H1368 0.929 . S
C1366 C1365 1.363 . S
C1366 C1372 1.428 . S
H1367 C1363 0.930 . S
H1368 C1365 0.929 . S
S1369 N1370 1.613 . S
S1369 N1371 1.610 . S
N1370 S1369 1.613 . S
N1370 C1373 1.350 . S
N1371 S1369 1.610 . S
N1371 C1372 1.351 . S
C1372 C1366 1.428 . S
C1372 N1371 1.351 . S
C1372 C1373 1.434 . S
C1373 C1364 1.429 . S
C1373 N1370 1.350 . S
C1373 C1372 1.434 . S
C1374 C1375 1.369 . S
C1374 C1376 1.419 . S
C1374 H1378 0.930 . S
C1375 C1374 1.369 . S
C1375 C1384 1.429 . S
C1376 C1374 1.419 . S
C1376 C1377 1.363 . S
C1376 H1379 0.929 . S
C1377 C1376 1.363 . S
C1377 C1383 1.428 . S
H1378 C1374 0.930 . S
H1379 C1376 0.929 . S
S1380 N1381 1.613 . S
S1380 N1382 1.610 . S
N1381 S1380 1.613 . S
N1381 C1384 1.350 . S
N1382 S1380 1.610 . S
N1382 C1383 1.351 . S
C1383 C1377 1.428 . S
C1383 N1382 1.351 . S
C1383 C1384 1.434 . S
C1384 C1375 1.429 . S
C1384 N1381 1.350 . S
C1384 C1383 1.434 . S
C1385 C1386 1.369 . S
C1385 C1387 1.419 . S
C1385 H1389 0.930 . S
C1386 C1385 1.369 . S
C1386 C1395 1.429 . S
C1387 C1385 1.419 . S
C1387 C1388 1.363 . S
C1387 H1390 0.929 . S
C1388 C1387 1.363 . S
C1388 C1394 1.428 . S
H1389 C1385 0.930 . S
H1390 C1387 0.929 . S
S1391 N1392 1.613 1_565 S
S1391 N1393 1.610 . S
N1392 S1391 1.613 1_545 S
N1392 C1395 1.350 . S
N1393 S1391 1.610 . S
N1393 C1394 1.351 1_565 S
C1394 C1388 1.428 . S
C1394 N1393 1.351 1_545 S
C1394 C1395 1.434 . S
C1395 C1386 1.429 . S
C1395 N1392 1.350 . S
C1395 C1394 1.434 . S
C1396 C1397 1.369 . S
C1396 C1398 1.419 . S
C1396 H1400 0.930 . S
C1397 C1396 1.369 . S
C1397 C1406 1.429 . S
C1398 C1396 1.419 . S
C1398 C1399 1.363 . S
C1398 H1401 0.929 . S
C1399 C1398 1.363 . S
C1399 C1405 1.428 . S
H1400 C1396 0.930 . S
H1401 C1398 0.929 . S
S1402 N1403 1.613 . S
S1402 N1404 1.610 . S
N1403 S1402 1.613 . S
N1403 C1406 1.350 . S
N1404 S1402 1.610 . S
N1404 C1405 1.351 . S
C1405 C1399 1.428 . S
C1405 N1404 1.351 . S
C1405 C1406 1.434 . S
C1406 C1397 1.429 . S
C1406 N1403 1.350 . S
C1406 C1405 1.434 . S
C1407 C1408 1.369 1_554 S
C1407 C1409 1.419 . S
C1407 H1411 0.930 . S
C1408 C1407 1.369 1_556 S
C1408 C1417 1.429 . S
C1409 C1407 1.419 . S
C1409 C1410 1.363 1_554 S
C1409 H1412 0.929 . S
C1410 C1409 1.363 1_556 S
C1410 C1416 1.428 . S
H1411 C1407 0.930 . S
H1412 C1409 0.929 . S
S1413 N1414 1.613 . S
S1413 N1415 1.610 . S
N1414 S1413 1.613 . S
N1414 C1417 1.350 . S
N1415 S1413 1.610 . S
N1415 C1416 1.351 . S
C1416 C1410 1.428 . S
C1416 N1415 1.351 . S
C1416 C1417 1.434 . S
C1417 C1408 1.429 . S
C1417 N1414 1.350 . S
C1417 C1416 1.434 . S
C1418 C1419 1.369 . S
C1418 C1420 1.419 . S
C1418 H1422 0.930 . S
C1419 C1418 1.369 . S
C1419 C1428 1.429 . S
C1420 C1418 1.419 . S
C1420 C1421 1.363 . S
C1420 H1423 0.929 . S
C1421 C1420 1.363 . S
C1421 C1427 1.428 . S
H1422 C1418 0.930 . S
H1423 C1420 0.929 . S
S1424 N1425 1.613 . S
S1424 N1426 1.610 . S
N1425 S1424 1.613 . S
N1425 C1428 1.350 . S
N1426 S1424 1.610 . S
N1426 C1427 1.351 . S
C1427 C1421 1.428 . S
C1427 N1426 1.351 . S
C1427 C1428 1.434 . S
C1428 C1419 1.429 . S
C1428 N1425 1.350 . S
C1428 C1427 1.434 . S
C1429 C1430 1.369 . S
C1429 C1431 1.419 . S
C1429 H1433 0.930 . S
C1430 C1429 1.369 . S
C1430 C1439 1.429 . S
C1431 C1429 1.419 . S
C1431 C1432 1.363 . S
C1431 H1434 0.929 . S
C1432 C1431 1.363 . S
C1432 C1438 1.428 . S
H1433 C1429 0.930 . S
H1434 C1431 0.929 . S
S1435 N1436 1.613 . S
S1435 N1437 1.610 . S
N1436 S1435 1.613 . S
N1436 C1439 1.350 . S
N1437 S1435 1.610 . S
N1437 C1438 1.351 . S
C1438 C1432 1.428 . S
C1438 N1437 1.351 . S
C1438 C1439 1.434 . S
C1439 C1430 1.429 . S
C1439 N1436 1.350 . S
C1439 C1438 1.434 . S
C1440 C1441 1.369 . S
C1440 C1442 1.419 . S
C1440 H1444 0.930 . S
C1441 C1440 1.369 . S
C1441 C1450 1.429 . S
C1442 C1440 1.419 . S
C1442 C1443 1.363 . S
C1442 H1445 0.929 . S
C1443 C1442 1.363 . S
C1443 C1449 1.428 . S
H1444 C1440 0.930 . S
H1445 C1442 0.929 . S
S1446 N1447 1.613 . S
S1446 N1448 1.610 . S
N1447 S1446 1.613 . S
N1447 C1450 1.350 . S
N1448 S1446 1.610 . S
N1448 C1449 1.351 . S
C1449 C1443 1.428 . S
C1449 N1448 1.351 . S
C1449 C1450 1.434 . S
C1450 C1441 1.429 . S
C1450 N1447 1.350 . S
C1450 C1449 1.434 . S
C1451 C1452 1.369 . S
C1451 C1453 1.419 . S
C1451 H1455 0.930 . S
C1452 C1451 1.369 . S
C1452 C1461 1.429 . S
C1453 C1451 1.419 . S
C1453 C1454 1.363 . S
C1453 H1456 0.929 . S
C1454 C1453 1.363 . S
C1454 C1460 1.428 . S
H1455 C1451 0.930 . S
H1456 C1453 0.929 . S
S1457 N1458 1.613 . S
S1457 N1459 1.610 . S
N1458 S1457 1.613 . S
N1458 C1461 1.350 . S
N1459 S1457 1.610 . S
N1459 C1460 1.351 . S
C1460 C1454 1.428 . S
C1460 N1459 1.351 . S
C1460 C1461 1.434 . S
C1461 C1452 1.429 . S
C1461 N1458 1.350 . S
C1461 C1460 1.434 . S
C1462 C1463 1.369 1_655 S
C1462 C1464 1.419 . S
C1462 H1466 0.930 . S
C1463 C1462 1.369 1_455 S
C1463 C1472 1.429 . S
C1464 C1462 1.419 . S
C1464 C1465 1.364 . S
C1464 H1467 0.929 . S
C1465 C1464 1.364 . S
C1465 C1471 1.427 1_655 S
H1466 C1462 0.930 . S
H1467 C1464 0.929 . S
S1468 N1469 1.613 . S
S1468 N1470 1.610 . S
N1469 S1468 1.613 . S
N1469 C1472 1.350 . S
N1470 S1468 1.610 . S
N1470 C1471 1.351 . S
C1471 C1465 1.427 1_455 S
C1471 N1470 1.351 . S
C1471 C1472 1.434 . S
C1472 C1463 1.429 . S
C1472 N1469 1.350 . S
C1472 C1471 1.434 . S
C1473 C1474 1.369 . S
C1473 C1475 1.419 . S
C1473 H1477 0.930 . S
C1474 C1473 1.369 . S
C1474 C1483 1.429 . S
C1475 C1473 1.419 . S
C1475 C1476 1.363 . S
C1475 H1478 0.929 . S
C1476 C1475 1.363 . S
C1476 C1482 1.428 . S
H1477 C1473 0.930 . S
H1478 C1475 0.929 . S
S1479 N1480 1.613 . S
S1479 N1481 1.610 . S
N1480 S1479 1.613 . S
N1480 C1483 1.350 . S
N1481 S1479 1.610 . S
N1481 C1482 1.351 . S
C1482 C1476 1.428 . S
C1482 N1481 1.351 . S
C1482 C1483 1.434 . S
C1483 C1474 1.429 . S
C1483 N1480 1.350 . S
C1483 C1482 1.434 . S
C1484 C1485 1.369 . S
C1484 C1486 1.419 . S
C1484 H1488 0.930 . S
C1485 C1484 1.369 . S
C1485 C1494 1.429 . S
C1486 C1484 1.419 . S
C1486 C1487 1.363 . S
C1486 H1489 0.929 . S
C1487 C1486 1.363 . S
C1487 C1493 1.428 . S
H1488 C1484 0.930 . S
H1489 C1486 0.929 . S
S1490 N1491 1.613 . S
S1490 N1492 1.610 . S
N1491 S1490 1.613 . S
N1491 C1494 1.350 . S
N1492 S1490 1.610 . S
N1492 C1493 1.351 . S
C1493 C1487 1.428 . S
C1493 N1492 1.351 . S
C1493 C1494 1.434 . S
C1494 C1485 1.429 . S
C1494 N1491 1.350 . S
C1494 C1493 1.434 . S
C1495 C1496 1.369 . S
C1495 C1497 1.419 . S
C1495 H1499 0.930 . S
C1496 C1495 1.369 . S
C1496 C1505 1.429 . S
C1497 C1495 1.419 . S
C1497 C1498 1.363 . S
C1497 H1500 0.929 . S
C1498 C1497 1.363 . S
C1498 C1504 1.428 . S
H1499 C1495 0.930 . S
H1500 C1497 0.929 . S
S1501 N1502 1.613 . S
S1501 N1503 1.610 . S
N1502 S1501 1.613 . S
N1502 C1505 1.350 . S
N1503 S1501 1.610 . S
N1503 C1504 1.351 . S
C1504 C1498 1.428 . S
C1504 N1503 1.351 . S
C1504 C1505 1.434 . S
C1505 C1496 1.429 . S
C1505 N1502 1.350 . S
C1505 C1504 1.434 . S
C1506 C1507 1.369 . S
C1506 C1508 1.419 . S
C1506 H1510 0.930 . S
C1507 C1506 1.369 . S
C1507 C1516 1.429 . S
C1508 C1506 1.419 . S
C1508 C1509 1.370 . S
C1508 H1511 0.929 . S
C1509 C1508 1.370 . S
C1509 C1515 1.426 1_455 S
H1510 C1506 0.930 . S
H1511 C1508 0.929 . S
S1512 N1513 1.613 . S
S1512 N1514 1.610 . S
N1513 S1512 1.613 . S
N1513 C1516 1.350 1_655 S
N1514 S1512 1.610 . S
N1514 C1515 1.351 . S
C1515 C1509 1.426 1_655 S
C1515 N1514 1.351 . S
C1515 C1516 1.434 1_655 S
C1516 C1507 1.429 . S
C1516 N1513 1.350 1_455 S
C1516 C1515 1.434 1_455 S
C1517 C1518 1.369 . S
C1517 C1519 1.419 . S
C1517 H1521 0.930 . S
C1518 C1517 1.369 . S
C1518 C1527 1.429 . S
C1519 C1517 1.419 . S
C1519 C1520 1.363 . S
C1519 H1522 0.929 . S
C1520 C1519 1.363 . S
C1520 C1526 1.428 . S
H1521 C1517 0.930 . S
H1522 C1519 0.929 . S
S1523 N1524 1.613 . S
S1523 N1525 1.610 . S
N1524 S1523 1.613 . S
N1524 C1527 1.350 . S
N1525 S1523 1.610 . S
N1525 C1526 1.351 . S
C1526 C1520 1.428 . S
C1526 N1525 1.351 . S
C1526 C1527 1.434 . S
C1527 C1518 1.429 . S
C1527 N1524 1.350 . S
C1527 C1526 1.434 . S
C1528 C1529 1.369 . S
C1528 C1530 1.419 . S
C1528 H1532 0.930 . S
C1529 C1528 1.369 . S
C1529 C1538 1.429 . S
C1530 C1528 1.419 . S
C1530 C1531 1.363 . S
C1530 H1533 0.929 . S
C1531 C1530 1.363 . S
C1531 C1537 1.428 . S
H1532 C1528 0.930 . S
H1533 C1530 0.929 . S
S1534 N1535 1.613 . S
S1534 N1536 1.610 . S
N1535 S1534 1.613 . S
N1535 C1538 1.350 . S
N1536 S1534 1.610 . S
N1536 C1537 1.351 . S
C1537 C1531 1.428 . S
C1537 N1536 1.351 . S
C1537 C1538 1.434 . S
C1538 C1529 1.429 . S
C1538 N1535 1.350 . S
C1538 C1537 1.434 . S
C1539 C1540 1.369 . S
C1539 C1541 1.419 . S
C1539 H1543 0.930 . S
C1540 C1539 1.369 . S
C1540 C1549 1.429 . S
C1541 C1539 1.419 . S
C1541 C1542 1.363 . S
C1541 H1544 0.929 . S
C1542 C1541 1.363 . S
C1542 C1548 1.428 . S
H1543 C1539 0.930 . S
H1544 C1541 0.929 . S
S1545 N1546 1.613 . S
S1545 N1547 1.610 . S
N1546 S1545 1.613 . S
N1546 C1549 1.350 . S
N1547 S1545 1.610 . S
N1547 C1548 1.351 . S
C1548 C1542 1.428 . S
C1548 N1547 1.351 . S
C1548 C1549 1.434 . S
C1549 C1540 1.429 . S
C1549 N1546 1.350 . S
C1549 C1548 1.434 . S
C1550 C1551 1.369 . S
C1550 C1552 1.419 . S
C1550 H1554 0.930 . S
C1551 C1550 1.369 . S
C1551 C1560 1.429 . S
C1552 C1550 1.419 . S
C1552 C1553 1.363 . S
C1552 H1555 0.929 . S
C1553 C1552 1.363 . S
C1553 C1559 1.428 . S
H1554 C1550 0.930 . S
H1555 C1552 0.929 . S
S1556 N1557 1.613 . S
S1556 N1558 1.610 . S
N1557 S1556 1.613 . S
N1557 C1560 1.350 . S
N1558 S1556 1.610 . S
N1558 C1559 1.351 . S
C1559 C1553 1.428 . S
C1559 N1558 1.351 . S
C1559 C1560 1.434 . S
C1560 C1551 1.429 . S
C1560 N1557 1.350 . S
C1560 C1559 1.434 . S
C1561 C1562 1.369 . S
C1561 C1563 1.419 . S
C1561 H1565 0.930 . S
C1562 C1561 1.369 . S
C1562 C1571 1.429 . S
C1563 C1561 1.419 . S
C1563 C1564 1.363 . S
C1563 H1566 0.929 . S
C1564 C1563 1.363 . S
C1564 C1570 1.428 . S
H1565 C1561 0.930 . S
H1566 C1563 0.929 . S
S1567 N1568 1.613 . S
S1567 N1569 1.610 . S
N1568 S1567 1.613 . S
N1568 C1571 1.350 . S
N1569 S1567 1.610 . S
N1569 C1570 1.351 . S
C1570 C1564 1.428 . S
C1570 N1569 1.351 . S
C1570 C1571 1.434 . S
C1571 C1562 1.429 . S
C1571 N1568 1.350 . S
C1571 C1570 1.434 . S
C1572 C1573 1.369 . S
C1572 C1574 1.419 . S
C1572 H1576 0.930 . S
C1573 C1572 1.369 . S
C1573 C1582 1.429 . S
C1574 C1572 1.419 . S
C1574 C1575 1.363 . S
C1574 H1577 0.929 . S
C1575 C1574 1.363 . S
C1575 C1581 1.428 . S
H1576 C1572 0.930 . S
H1577 C1574 0.929 . S
S1578 N1579 1.613 . S
S1578 N1580 1.610 . S
N1579 S1578 1.613 . S
N1579 C1582 1.350 . S
N1580 S1578 1.610 . S
N1580 C1581 1.351 . S
C1581 C1575 1.428 . S
C1581 N1580 1.351 . S
C1581 C1582 1.434 . S
C1582 C1573 1.429 . S
C1582 N1579 1.350 . S
C1582 C1581 1.434 . S
C1583 C1584 1.369 . S
C1583 C1585 1.419 . S
C1583 H1587 0.930 . S
C1584 C1583 1.369 . S
C1584 C1593 1.429 . S
C1585 C1583 1.419 . S
C1585 C1586 1.363 . S
C1585 H1588 0.929 . S
C1586 C1585 1.363 . S
C1586 C1592 1.428 . S
H1587 C1583 0.930 . S
H1588 C1585 0.929 . S
S1589 N1590 1.613 . S
S1589 N1591 1.610 . S
N1590 S1589 1.613 . S
N1590 C1593 1.350 . S
N1591 S1589 1.610 . S
N1591 C1592 1.351 . S
C1592 C1586 1.428 . S
C1592 N1591 1.351 . S
C1592 C1593 1.434 . S
C1593 C1584 1.429 . S
C1593 N1590 1.350 . S
C1593 C1592 1.434 . S
C1594 C1595 1.369 . S
C1594 C1596 1.419 . S
C1594 H1598 0.930 . S
C1595 C1594 1.369 . S
C1595 C1604 1.429 . S
C1596 C1594 1.419 . S
C1596 C1597 1.363 . S
C1596 H1599 0.929 . S
C1597 C1596 1.363 . S
C1597 C1603 1.428 . S
H1598 C1594 0.930 . S
H1599 C1596 0.929 . S
S1600 N1601 1.613 . S
S1600 N1602 1.610 . S
N1601 S1600 1.613 . S
N1601 C1604 1.350 . S
N1602 S1600 1.610 . S
N1602 C1603 1.351 . S
C1603 C1597 1.428 . S
C1603 N1602 1.351 . S
C1603 C1604 1.434 . S
C1604 C1595 1.429 . S
C1604 N1601 1.350 . S
C1604 C1603 1.434 . S
C1605 C1606 1.369 . S
C1605 C1607 1.419 . S
C1605 H1609 0.930 . S
C1606 C1605 1.369 . S
C1606 C1615 1.429 . S
C1607 C1605 1.419 . S
C1607 C1608 1.363 . S
C1607 H1610 0.929 . S
C1608 C1607 1.363 . S
C1608 C1614 1.428 . S
H1609 C1605 0.930 . S
H1610 C1607 0.929 . S
S1611 N1612 1.613 . S
S1611 N1613 1.610 . S
N1612 S1611 1.613 . S
N1612 C1615 1.350 . S
N1613 S1611 1.610 . S
N1613 C1614 1.351 . S
C1614 C1608 1.428 . S
C1614 N1613 1.351 . S
C1614 C1615 1.434 . S
C1615 C1606 1.429 . S
C1615 N1612 1.350 . S
C1615 C1614 1.434 . S
C1616 C1617 1.369 . S
C1616 C1618 1.419 . S
C1616 H1620 0.930 . S
C1617 C1616 1.369 . S
C1617 C1626 1.429 . S
C1618 C1616 1.419 . S
C1618 C1619 1.363 . S
C1618 H1621 0.929 . S
C1619 C1618 1.363 . S
C1619 C1625 1.428 . S
H1620 C1616 0.930 . S
H1621 C1618 0.929 . S
S1622 N1623 1.613 . S
S1622 N1624 1.610 . S
N1623 S1622 1.613 . S
N1623 C1626 1.350 . S
N1624 S1622 1.610 . S
N1624 C1625 1.351 . S
C1625 C1619 1.428 . S
C1625 N1624 1.351 . S
C1625 C1626 1.434 . S
C1626 C1617 1.429 . S
C1626 N1623 1.350 . S
C1626 C1625 1.434 . S
C1627 C1628 1.369 . S
C1627 C1629 1.419 . S
C1627 H1631 0.930 . S
C1628 C1627 1.369 . S
C1628 C1637 1.429 . S
C1629 C1627 1.419 . S
C1629 C1630 1.363 . S
C1629 H1632 0.929 . S
C1630 C1629 1.363 . S
C1630 C1636 1.428 . S
H1631 C1627 0.930 . S
H1632 C1629 0.929 . S
S1633 N1634 1.613 . S
S1633 N1635 1.610 . S
N1634 S1633 1.613 . S
N1634 C1637 1.350 . S
N1635 S1633 1.610 . S
N1635 C1636 1.351 . S
C1636 C1630 1.428 . S
C1636 N1635 1.351 . S
C1636 C1637 1.434 . S
C1637 C1628 1.429 . S
C1637 N1634 1.350 . S
C1637 C1636 1.434 . S
C1638 C1639 1.369 . S
C1638 C1640 1.419 . S
C1638 H1642 0.930 . S
C1639 C1638 1.369 . S
C1639 C1648 1.429 . S
C1640 C1638 1.419 . S
C1640 C1641 1.363 . S
C1640 H1643 0.929 . S
C1641 C1640 1.363 . S
C1641 C1647 1.428 . S
H1642 C1638 0.930 . S
H1643 C1640 0.929 . S
S1644 N1645 1.613 . S
S1644 N1646 1.610 . S
N1645 S1644 1.613 . S
N1645 C1648 1.350 . S
N1646 S1644 1.610 . S
N1646 C1647 1.351 . S
C1647 C1641 1.428 . S
C1647 N1646 1.351 . S
C1647 C1648 1.434 . S
C1648 C1639 1.429 . S
C1648 N1645 1.350 . S
C1648 C1647 1.434 . S
C1649 C1650 1.369 . S
C1649 C1651 1.419 1_554 S
C1649 H1653 0.930 1_554 S
C1650 C1649 1.369 . S
C1650 C1659 1.429 . S
C1651 C1649 1.419 1_556 S
C1651 C1652 1.367 . S
C1651 H1654 0.929 . S
C1652 C1651 1.367 . S
C1652 C1658 1.417 1_556 S
H1653 C1649 0.930 1_556 S
H1654 C1651 0.929 . S
S1655 N1656 1.613 1_545 S
S1655 N1657 1.610 . S
N1656 S1655 1.613 1_565 S
N1656 C1659 1.350 . S
N1657 S1655 1.610 . S
N1657 C1658 1.351 1_545 S
C1658 C1652 1.417 1_554 S
C1658 N1657 1.351 1_565 S
C1658 C1659 1.434 . S
C1659 C1650 1.429 . S
C1659 N1656 1.350 . S
C1659 C1658 1.434 . S
C1660 C1661 1.369 . S
C1660 C1662 1.419 . S
C1660 H1664 0.930 . S
C1661 C1660 1.369 . S
C1661 C1670 1.429 . S
C1662 C1660 1.419 . S
C1662 C1663 1.363 . S
C1662 H1665 0.929 . S
C1663 C1662 1.363 . S
C1663 C1669 1.428 . S
H1664 C1660 0.930 . S
H1665 C1662 0.929 . S
S1666 N1667 1.613 . S
S1666 N1668 1.610 . S
N1667 S1666 1.613 . S
N1667 C1670 1.350 . S
N1668 S1666 1.610 . S
N1668 C1669 1.351 . S
C1669 C1663 1.428 . S
C1669 N1668 1.351 . S
C1669 C1670 1.434 . S
C1670 C1661 1.429 . S
C1670 N1667 1.350 . S
C1670 C1669 1.434 . S
C1671 C1672 1.369 1_554 S
C1671 C1673 1.419 . S
C1671 H1675 0.930 . S
C1672 C1671 1.369 1_556 S
C1672 C1681 1.429 . S
C1673 C1671 1.419 . S
C1673 C1674 1.363 . S
C1673 H1676 0.929 . S
C1674 C1673 1.363 . S
C1674 C1680 1.428 1_554 S
H1675 C1671 0.930 . S
H1676 C1673 0.929 . S
S1677 N1678 1.613 . S
S1677 N1679 1.610 . S
N1678 S1677 1.613 . S
N1678 C1681 1.350 . S
N1679 S1677 1.610 . S
N1679 C1680 1.351 . S
C1680 C1674 1.428 1_556 S
C1680 N1679 1.351 . S
C1680 C1681 1.434 . S
C1681 C1672 1.429 . S
C1681 N1678 1.350 . S
C1681 C1680 1.434 . S
C1682 C1683 1.369 . S
C1682 C1684 1.419 . S
C1682 H1686 0.930 . S
C1683 C1682 1.369 . S
C1683 C1692 1.429 . S
C1684 C1682 1.419 . S
C1684 C1685 1.363 . S
C1684 H1687 0.929 . S
C1685 C1684 1.363 . S
C1685 C1691 1.428 . S
H1686 C1682 0.930 . S
H1687 C1684 0.929 . S
S1688 N1689 1.613 . S
S1688 N1690 1.610 . S
N1689 S1688 1.613 . S
N1689 C1692 1.350 . S
N1690 S1688 1.610 . S
N1690 C1691 1.351 . S
C1691 C1685 1.428 . S
C1691 N1690 1.351 . S
C1691 C1692 1.434 . S
C1692 C1683 1.429 . S
C1692 N1689 1.350 . S
C1692 C1691 1.434 . S
C1693 C1694 1.369 . S
C1693 C1695 1.419 . S
C1693 H1697 0.930 . S
C1694 C1693 1.369 . S
C1694 C1703 1.429 . S
C1695 C1693 1.419 . S
C1695 C1696 1.363 . S
C1695 H1698 0.929 . S
C1696 C1695 1.363 . S
C1696 C1702 1.428 . S
H1697 C1693 0.930 . S
H1698 C1695 0.929 . S
S1699 N1700 1.613 . S
S1699 N1701 1.610 . S
N1700 S1699 1.613 . S
N1700 C1703 1.350 . S
N1701 S1699 1.610 . S
N1701 C1702 1.351 . S
C1702 C1696 1.428 . S
C1702 N1701 1.351 . S
C1702 C1703 1.434 . S
C1703 C1694 1.429 . S
C1703 N1700 1.350 . S
C1703 C1702 1.434 . S
C651 C328 1.439 . S
C649 C10 1.544 . S
C660 C23 1.424 . S
C662 C348 1.367 . S
C671 C36 1.534 . S
C673 C370 1.436 . S
C684 C389 1.498 . S
C682 C42 1.518 . S
C693 C18 1.503 . S
C695 C410 1.489 . S
C706 C433 1.498 . S
C704 C31 1.596 . S
C717 C456 1.347 . S
C715 C43 1.412 . S
C726 C5 1.516 . S
C728 C474 1.453 . S
C737 C56 1.509 . S
C739 C330 1.446 . S
C748 C70 1.528 . S
C750 C350 1.516 . S
C761 C372 1.372 . S
C759 C82 1.423 . S
C772 C391 1.475 . S
C770 C96 1.580 . S
C781 C57 1.594 . S
C783 C412 1.503 . S
C794 C435 1.348 . S
C792 C69 1.397 . S
C805 C452 1.502 . S
C803 C83 1.521 1_565 S
C816 C476 1.498 . S
C814 C95 1.511 . S
C827 C326 1.501 . S
C825 C94 1.516 1_556 S
C838 C498 1.343 . S
C836 C108 1.396 . S
C847 C122 1.504 . S
C849 C515 1.491 . S
C860 C538 1.471 . S
C858 C140 1.574 . S
C869 C55 1.547 . S
C871 C472 1.436 . S
C882 C368 1.514 . S
C880 C68 1.526 . S
C891 C121 1.412 . S
C893 C561 1.353 . S
C904 C577 1.439 . S
C902 C153 1.532 . S
C913 C161 1.331 . S
C915 C325 1.271 . S
C926 C578 1.267 . S
C924 C174 1.292 . S
C935 C186 1.387 . S
C937 C367 1.323 . S
C946 C200 1.266 . S
C948 C558 1.234 . S
C959 C411 1.232 . S
C957 C172 1.261 . S
C970 C514 1.295 . S
C968 C192 1.363 . S
C981 C455 1.292 . S
C979 C198 1.307 . S
C992 C599 1.352 . S
C990 C159 1.372 . S
C1003 C329 1.355 . S
C1001 C211 1.369 . S
C1012 C225 1.259 . S
C1014 C582 1.221 . S
C1025 C371 1.261 1_545 S
C1023 C239 1.286 . S
C1034 C251 1.346 . S
C1036 C556 1.296 . S
C1045 C218 1.364 . S
C1047 C409 1.295 . S
C1056 C226 1.310 . S
C1058 C518 1.290 . S
C1069 C453 1.223 . S
C1067 C238 1.254 1_545 S
C1078 C252 1.293 . S
C1080 C603 1.261 . S
C1089 C250 1.298 . S
C1091 C327 1.266 . S
C1100 C264 1.310 . S
C1102 C497 1.280 1_554 S
C1111 C276 1.254 . S
C1113 C432 1.225 . S
C1122 C290 1.343 . S
C1124 C535 1.289 . S
C1135 C601 1.271 . S
C1133 C213 1.332 . S
C1146 C369 1.234 . S
C1144 C224 1.259 . S
C1157 C392 1.285 . S
C1155 C283 1.303 . S
C1168 C349 1.329 . S
C1166 C303 1.393 . S
C1177 C29 1.551 . S
C1179 C622 1.439 . S
C1190 C579 1.371 . S
C1188 C49 1.422 . S
C1201 C643 1.441 . S
C1199 C3 1.537 . S
C1210 C16 1.519 . S
C1212 C557 1.499 . S
C1221 C44 1.505 . S
C1223 C494 1.491 . S
C1234 C517 1.494 . S
C1232 C4 1.588 . S
C1245 C540 1.347 . S
C1243 C17 1.412 . S
C1256 C600 1.446 . S
C1254 C30 1.510 . S
C1267 C624 1.441 . S
C1265 C147 1.513 . S
C1276 C107 1.528 . S
C1278 C581 1.515 . S
C1287 C127 1.427 . S
C1289 C645 1.365 . S
C1300 C559 1.479 . S
C1298 C135 1.582 . S
C1311 C496 1.497 . S
C1309 C148 1.596 . S
C1320 C114 1.395 . S
C1322 C519 1.348 . S
C1333 C536 1.498 . S
C1331 C120 1.517 . S
C1342 C134 1.508 . S
C1344 C602 1.493 . S
C1355 C620 1.502 . S
C1353 C133 1.517 . S
C1366 C414 1.346 . S
C1364 C75 1.397 . S
C1377 C431 1.492 . S
C1375 C81 1.505 . S
C1386 C101 1.575 . S
C1388 C454 1.473 . S
C1399 C598 1.437 . S
C1397 C146 1.550 . S
C1408 C109 1.530 . S
C1410 C641 1.517 . S
C1421 C393 1.348 . S
C1419 C88 1.412 . S
C1432 C346 1.438 . S
C1430 C62 1.532 . S
C1441 C187 1.332 . S
C1443 C619 1.272 . S
C1454 C347 1.258 . S
C1452 C199 1.285 . S
C1465 C640 1.329 . S
C1463 C160 1.390 . S
C1474 C173 1.256 . S
C1476 C390 1.226 . S
C1485 C205 1.256 . S
C1487 C495 1.222 . S
C1496 C166 1.362 . S
C1498 C430 1.294 . S
C1507 C179 1.301 . S
C1509 C539 1.273 1_455 S
C1518 C185 1.369 . S
C1520 C473 1.354 . S
C1531 C623 1.354 . S
C1529 C302 1.368 . S
C1540 C270 1.263 . S
C1542 C351 1.225 . S
C1553 C644 1.264 . S
C1551 C278 1.286 . S
C1562 C296 1.348 . S
C1564 C388 1.295 . S
C1573 C309 1.368 . S
C1575 C493 1.302 . S
C1586 C434 1.294 . S
C1584 C263 1.314 . S
C1595 C277 1.259 . S
C1597 C537 1.226 . S
C1608 C477 1.267 . S
C1606 C289 1.296 . S
C1619 C621 1.260 . S
C1617 C291 1.297 . S
C1630 C413 1.280 . S
C1628 C231 1.310 . S
C1639 C237 1.254 . S
C1641 C516 1.232 . S
C1652 C451 1.307 . S
C1650 C257 1.344 . S
C1663 C475 1.273 . S
C1661 C304 1.332 . S
C1672 C265 1.265 . S
C1674 C642 1.232 . S
C1685 C560 1.277 . S
C1683 C244 1.301 . S
C1696 C580 1.325 . S
C1694 C212 1.389 . S
