# Generated by pormake.
# Topology fgl, (4,4)-cn, num edge types: 1
# Building blocks:
#     Node 0, Type 0, BuildingBlock: ESEHIV_clean_sbu_0, # of connection points: 4
#     Node 1, Type 0, BuildingBlock: ESEHIV_clean_sbu_0, # of connection points: 4
#     Node 2, Type 0, BuildingBlock: ESEHIV_clean_sbu_0, # of connection points: 4
#     Node 3, Type 0, BuildingBlock: ESEHIV_clean_sbu_0, # of connection points: 4
#     Node 4, Type 0, BuildingBlock: ESEHIV_clean_sbu_0, # of connection points: 4
#     Node 5, Type 0, BuildingBlock: ESEHIV_clean_sbu_0, # of connection points: 4
#     Node 6, Type 0, BuildingBlock: ESEHIV_clean_sbu_0, # of connection points: 4
#     Node 7, Type 0, BuildingBlock: ESEHIV_clean_sbu_0, # of connection points: 4
#     Node 8, Type 0, BuildingBlock: ESEHIV_clean_sbu_0, # of connection points: 4
#     Node 9, Type 0, BuildingBlock: ESEHIV_clean_sbu_0, # of connection points: 4
#     Node 10, Type 0, BuildingBlock: ESEHIV_clean_sbu_0, # of connection points: 4
#     Node 11, Type 0, BuildingBlock: ESEHIV_clean_sbu_0, # of connection points: 4
#     Node 12, Type 0, BuildingBlock: ESEHIV_clean_sbu_0, # of connection points: 4
#     Node 13, Type 0, BuildingBlock: ESEHIV_clean_sbu_0, # of connection points: 4
#     Node 14, Type 0, BuildingBlock: ESEHIV_clean_sbu_0, # of connection points: 4
#     Node 15, Type 0, BuildingBlock: ESEHIV_clean_sbu_0, # of connection points: 4
#     Node 16, Type 0, BuildingBlock: ESEHIV_clean_sbu_0, # of connection points: 4
#     Node 17, Type 0, BuildingBlock: ESEHIV_clean_sbu_0, # of connection points: 4
#     Node 18, Type 1, BuildingBlock: KUFVIS_clean_sbu_0, # of connection points: 4
#     Node 19, Type 1, BuildingBlock: KUFVIS_clean_sbu_0, # of connection points: 4
#     Node 20, Type 1, BuildingBlock: KUFVIS_clean_sbu_0, # of connection points: 4
#     Node 21, Type 1, BuildingBlock: KUFVIS_clean_sbu_0, # of connection points: 4
#     Node 22, Type 1, BuildingBlock: KUFVIS_clean_sbu_0, # of connection points: 4
#     Node 23, Type 1, BuildingBlock: KUFVIS_clean_sbu_0, # of connection points: 4
#     Node 24, Type 1, BuildingBlock: KUFVIS_clean_sbu_0, # of connection points: 4
#     Node 25, Type 1, BuildingBlock: KUFVIS_clean_sbu_0, # of connection points: 4
#     Node 26, Type 1, BuildingBlock: KUFVIS_clean_sbu_0, # of connection points: 4
#     Node 27, Type 1, BuildingBlock: KUFVIS_clean_sbu_0, # of connection points: 4
#     Node 28, Type 1, BuildingBlock: KUFVIS_clean_sbu_0, # of connection points: 4
#     Node 29, Type 1, BuildingBlock: KUFVIS_clean_sbu_0, # of connection points: 4
#     Node 30, Type 1, BuildingBlock: KUFVIS_clean_sbu_0, # of connection points: 4
#     Node 31, Type 1, BuildingBlock: KUFVIS_clean_sbu_0, # of connection points: 4
#     Node 32, Type 1, BuildingBlock: KUFVIS_clean_sbu_0, # of connection points: 4
#     Node 33, Type 1, BuildingBlock: KUFVIS_clean_sbu_0, # of connection points: 4
#     Node 34, Type 1, BuildingBlock: KUFVIS_clean_sbu_0, # of connection points: 4
#     Node 35, Type 1, BuildingBlock: KUFVIS_clean_sbu_0, # of connection points: 4
#     Edge 36, Type (0, 1), BuildingBlock: TEMPAE_clean_linker_10, # of connection points: 2
#     Edge 37, Type (0, 1), BuildingBlock: TEMPAE_clean_linker_10, # of connection points: 2
#     Edge 38, Type (0, 1), BuildingBlock: TEMPAE_clean_linker_10, # of connection points: 2
#     Edge 39, Type (0, 1), BuildingBlock: TEMPAE_clean_linker_10, # of connection points: 2
#     Edge 40, Type (0, 1), BuildingBlock: TEMPAE_clean_linker_10, # of connection points: 2
#     Edge 41, Type (0, 1), BuildingBlock: TEMPAE_clean_linker_10, # of connection points: 2
#     Edge 42, Type (0, 1), BuildingBlock: TEMPAE_clean_linker_10, # of connection points: 2
#     Edge 43, Type (0, 1), BuildingBlock: TEMPAE_clean_linker_10, # of connection points: 2
#     Edge 44, Type (0, 1), BuildingBlock: TEMPAE_clean_linker_10, # of connection points: 2
#     Edge 45, Type (0, 1), BuildingBlock: TEMPAE_clean_linker_10, # of connection points: 2
#     Edge 46, Type (0, 1), BuildingBlock: TEMPAE_clean_linker_10, # of connection points: 2
#     Edge 47, Type (0, 1), BuildingBlock: TEMPAE_clean_linker_10, # of connection points: 2
#     Edge 48, Type (0, 1), BuildingBlock: TEMPAE_clean_linker_10, # of connection points: 2
#     Edge 49, Type (0, 1), BuildingBlock: TEMPAE_clean_linker_10, # of connection points: 2
#     Edge 50, Type (0, 1), BuildingBlock: TEMPAE_clean_linker_10, # of connection points: 2
#     Edge 51, Type (0, 1), BuildingBlock: TEMPAE_clean_linker_10, # of connection points: 2
#     Edge 52, Type (0, 1), BuildingBlock: TEMPAE_clean_linker_10, # of connection points: 2
#     Edge 53, Type (0, 1), BuildingBlock: TEMPAE_clean_linker_10, # of connection points: 2
#     Edge 54, Type (0, 1), BuildingBlock: TEMPAE_clean_linker_10, # of connection points: 2
#     Edge 55, Type (0, 1), BuildingBlock: TEMPAE_clean_linker_10, # of connection points: 2
#     Edge 56, Type (0, 1), BuildingBlock: TEMPAE_clean_linker_10, # of connection points: 2
#     Edge 57, Type (0, 1), BuildingBlock: TEMPAE_clean_linker_10, # of connection points: 2
#     Edge 58, Type (0, 1), BuildingBlock: TEMPAE_clean_linker_10, # of connection points: 2
#     Edge 59, Type (0, 1), BuildingBlock: TEMPAE_clean_linker_10, # of connection points: 2
#     Edge 60, Type (0, 1), BuildingBlock: TEMPAE_clean_linker_10, # of connection points: 2
#     Edge 61, Type (0, 1), BuildingBlock: TEMPAE_clean_linker_10, # of connection points: 2
#     Edge 62, Type (0, 1), BuildingBlock: TEMPAE_clean_linker_10, # of connection points: 2
#     Edge 63, Type (0, 1), BuildingBlock: TEMPAE_clean_linker_10, # of connection points: 2
#     Edge 64, Type (0, 1), BuildingBlock: TEMPAE_clean_linker_10, # of connection points: 2
#     Edge 65, Type (0, 1), BuildingBlock: TEMPAE_clean_linker_10, # of connection points: 2
#     Edge 66, Type (0, 1), BuildingBlock: TEMPAE_clean_linker_10, # of connection points: 2
#     Edge 67, Type (0, 1), BuildingBlock: TEMPAE_clean_linker_10, # of connection points: 2
#     Edge 68, Type (0, 1), BuildingBlock: TEMPAE_clean_linker_10, # of connection points: 2
#     Edge 69, Type (0, 1), BuildingBlock: TEMPAE_clean_linker_10, # of connection points: 2
#     Edge 70, Type (0, 1), BuildingBlock: TEMPAE_clean_linker_10, # of connection points: 2
#     Edge 71, Type (0, 1), BuildingBlock: TEMPAE_clean_linker_10, # of connection points: 2
#     Edge 72, Type (0, 1), BuildingBlock: TEMPAE_clean_linker_10, # of connection points: 2
#     Edge 73, Type (0, 1), BuildingBlock: TEMPAE_clean_linker_10, # of connection points: 2
#     Edge 74, Type (0, 1), BuildingBlock: TEMPAE_clean_linker_10, # of connection points: 2
#     Edge 75, Type (0, 1), BuildingBlock: TEMPAE_clean_linker_10, # of connection points: 2
#     Edge 76, Type (0, 1), BuildingBlock: TEMPAE_clean_linker_10, # of connection points: 2
#     Edge 77, Type (0, 1), BuildingBlock: TEMPAE_clean_linker_10, # of connection points: 2
#     Edge 78, Type (0, 1), BuildingBlock: TEMPAE_clean_linker_10, # of connection points: 2
#     Edge 79, Type (0, 1), BuildingBlock: TEMPAE_clean_linker_10, # of connection points: 2
#     Edge 80, Type (0, 1), BuildingBlock: TEMPAE_clean_linker_10, # of connection points: 2
#     Edge 81, Type (0, 1), BuildingBlock: TEMPAE_clean_linker_10, # of connection points: 2
#     Edge 82, Type (0, 1), BuildingBlock: TEMPAE_clean_linker_10, # of connection points: 2
#     Edge 83, Type (0, 1), BuildingBlock: TEMPAE_clean_linker_10, # of connection points: 2
#     Edge 84, Type (0, 1), BuildingBlock: TEMPAE_clean_linker_10, # of connection points: 2
#     Edge 85, Type (0, 1), BuildingBlock: TEMPAE_clean_linker_10, # of connection points: 2
#     Edge 86, Type (0, 1), BuildingBlock: TEMPAE_clean_linker_10, # of connection points: 2
#     Edge 87, Type (0, 1), BuildingBlock: TEMPAE_clean_linker_10, # of connection points: 2
#     Edge 88, Type (0, 1), BuildingBlock: TEMPAE_clean_linker_10, # of connection points: 2
#     Edge 89, Type (0, 1), BuildingBlock: TEMPAE_clean_linker_10, # of connection points: 2
#     Edge 90, Type (0, 1), BuildingBlock: TEMPAE_clean_linker_10, # of connection points: 2
#     Edge 91, Type (0, 1), BuildingBlock: TEMPAE_clean_linker_10, # of connection points: 2
#     Edge 92, Type (0, 1), BuildingBlock: TEMPAE_clean_linker_10, # of connection points: 2
#     Edge 93, Type (0, 1), BuildingBlock: TEMPAE_clean_linker_10, # of connection points: 2
#     Edge 94, Type (0, 1), BuildingBlock: TEMPAE_clean_linker_10, # of connection points: 2
#     Edge 95, Type (0, 1), BuildingBlock: TEMPAE_clean_linker_10, # of connection points: 2
#     Edge 96, Type (0, 1), BuildingBlock: TEMPAE_clean_linker_10, # of connection points: 2
#     Edge 97, Type (0, 1), BuildingBlock: TEMPAE_clean_linker_10, # of connection points: 2
#     Edge 98, Type (0, 1), BuildingBlock: TEMPAE_clean_linker_10, # of connection points: 2
#     Edge 99, Type (0, 1), BuildingBlock: TEMPAE_clean_linker_10, # of connection points: 2
#     Edge 100, Type (0, 1), BuildingBlock: TEMPAE_clean_linker_10, # of connection points: 2
#     Edge 101, Type (0, 1), BuildingBlock: TEMPAE_clean_linker_10, # of connection points: 2
#     Edge 102, Type (0, 1), BuildingBlock: TEMPAE_clean_linker_10, # of connection points: 2
#     Edge 103, Type (0, 1), BuildingBlock: TEMPAE_clean_linker_10, # of connection points: 2
#     Edge 104, Type (0, 1), BuildingBlock: TEMPAE_clean_linker_10, # of connection points: 2
#     Edge 105, Type (0, 1), BuildingBlock: TEMPAE_clean_linker_10, # of connection points: 2
#     Edge 106, Type (0, 1), BuildingBlock: TEMPAE_clean_linker_10, # of connection points: 2
#     Edge 107, Type (0, 1), BuildingBlock: TEMPAE_clean_linker_10, # of connection points: 2
# Relax obj value: 0.017
# Max RMSD: 0.137
# Mean RMSD: 0.072
data_MOF--net-fgl--node1-ESEHIV_clean_sbu_0--node2-KUFVIS_clean_sbu_0--edge1-TEMPAE_clean_linker_10
_symmetry_space_group_name_H-M    P1
_symmetry_Int_Tables_number       1
_symmetry_cell_setting            triclinic
loop_
_symmetry_equiv_pos_as_xyz
'x, y, z'
_cell_length_a     75.231378
_cell_length_b     77.762189
_cell_length_c     51.756295
_cell_angle_alpha  89.494077
_cell_angle_beta   89.538057
_cell_angle_gamma 119.95723
loop_
_atom_site_label
_atom_site_type_symbol
_atom_site_fract_x
_atom_site_fract_y
_atom_site_fract_z
_atom_type_partial_charge
Cu0 Cu 1.0055 0.53579 1.00563 0.0
N1 N 0.98965 0.5365 0.0339 0.0
N2 N 0.98294 0.54894 0.06943 0.0
C3 C 0.9976 0.54951 0.0535 0.0
C4 C 0.96503 0.53488 0.05948 0.0
C5 C 0.96919 0.52723 0.03767 0.0
O6 O 0.01783 0.56263 0.99133 0.0
C7 C 0.01478 0.51167 0.03266 0.0
O8 O 0.99483 0.50346 0.03599 0.0
H9 H 0.01384 0.55989 0.0553 0.0
H10 H 0.95805 0.51619 0.02502 0.0
N11 N 0.99154 0.51746 0.97889 0.0
N12 N 0.98756 0.49874 0.94402 0.0
C13 C 1.00008 0.50947 0.96341 0.0
C14 C 0.97283 0.51132 0.96904 0.0
C15 C 0.97039 0.49991 0.94756 0.0
C16 C 1.0041 0.56708 0.98584 0.0
O17 O 0.98474 0.55317 0.98758 0.0
H18 H 0.01555 0.51215 0.96572 0.0
H19 H 0.96188 0.51526 0.97645 0.0
O20 O 0.02418 0.52779 0.01953 0.0
H21 H 0.94994 0.53055 0.06723 0.0
H22 H 0.95705 0.49312 0.93536 0.0
Cu23 Cu 0.50846 0.53806 0.019 0.0
N24 N 0.50863 0.54757 0.98371 0.0
N25 N 0.51995 0.56119 0.94441 0.0
C26 C 0.52426 0.55449 0.96638 0.0
C27 C 0.50083 0.55828 0.94821 0.0
C28 C 0.49389 0.54986 0.97245 0.0
O29 O 0.52908 0.56723 0.02958 0.0
C30 C 0.4858 0.49306 0.01343 0.0
O31 O 0.50151 0.49378 0.02533 0.0
H32 H 0.53875 0.55523 0.97018 0.0
H33 H 0.4793 0.54601 0.9814 0.0
N34 N 0.50918 0.52872 0.05419 0.0
N35 N 0.50092 0.51603 0.09437 0.0
C36 C 0.49441 0.5211 0.07276 0.0
C37 C 0.5254 0.52833 0.06425 0.0
C38 C 0.52039 0.52057 0.08893 0.0
C39 C 0.54869 0.57545 0.02952 0.0
O40 O 0.55713 0.56492 0.02258 0.0
H41 H 0.47933 0.51942 0.07053 0.0
H42 H 0.53976 0.53305 0.05415 0.0
O43 O 0.48597 0.50936 1.00857 0.0
H44 H 0.49246 0.56202 0.9345 0.0
H45 H 0.53024 0.51807 0.10168 0.0
Cu46 Cu 0.53449 0.06262 0.03364 0.0
N47 N 0.53134 0.07549 1.00454 0.0
N48 N 0.51644 0.07961 0.96946 0.0
C49 C 0.51361 0.0722 0.99388 0.0
C50 C 0.53686 0.08848 0.96505 0.0
C51 C 0.5459 0.08589 0.98649 0.0
O52 O 0.50769 0.04118 0.04527 0.0
C53 C 0.57398 0.07116 0.02417 0.0
O54 O 0.57607 0.08854 0.02961 0.0
H55 H 0.49882 0.0636 1.00332 0.0
H56 H 0.5618 0.08987 0.98761 0.0
N57 N 0.54393 0.07926 0.06228 0.0
N58 N 0.56056 0.09182 0.09905 0.0
C59 C 0.5563 0.07846 0.08031 0.0
C60 C 0.53982 0.09338 0.07016 0.0
C61 C 0.55007 0.10117 0.09298 0.0
C62 C 0.492 0.02989 0.03198 0.0
O63 O 0.49412 0.02842 1.007 0.0
H64 H 0.56211 0.06823 0.07967 0.0
H65 H 0.53009 0.09769 0.06004 0.0
O66 O 0.55593 0.05601 0.02494 0.0
H67 H 0.54463 0.09486 0.94683 0.0
H68 H 0.55016 0.113 0.10395 0.0
Cu69 Cu 0.52707 0.06562 0.527 0.0
N70 N 0.54398 0.08189 0.50011 0.0
N71 N 0.56387 0.09112 0.46462 0.0
C72 C 0.55445 0.07709 0.48322 0.0
C73 C 0.55908 0.1053 0.46993 0.0
C74 C 0.54681 0.09957 0.49189 0.0
O75 O 0.53497 0.04477 0.53215 0.0
C76 C 0.49332 0.07224 0.52248 0.0
O77 O 0.50668 0.08864 0.53382 0.0
H78 H 0.55461 0.06325 0.48405 0.0
H79 H 0.54012 0.10754 0.50092 0.0
N80 N 0.53331 0.07949 0.55805 0.0
N81 N 0.52928 0.08613 0.59891 0.0
C82 C 0.5222 0.07252 0.58002 0.0
C83 C 0.54809 0.09815 0.56313 0.0
C84 C 0.54559 0.10233 0.58835 0.0
C85 C 0.55379 0.05184 0.53864 0.0
O86 O 0.56497 0.07116 0.54128 0.0
H87 H 0.50853 0.05806 0.58162 0.0
H88 H 0.55952 0.10817 0.5493 0.0
O89 O 0.49846 0.05905 0.51781 0.0
H90 H 0.56409 0.11882 0.45875 0.0
H91 H 0.55481 0.1163 0.59798 0.0
Cu92 Cu 0.02542 0.54954 0.52063 0.0
N93 N 0.04012 0.54253 0.54413 0.0
N94 N 0.04354 0.52467 0.57646 0.0
C95 C 0.03045 0.52804 0.56234 0.0
C96 C 0.06232 0.53772 0.56661 0.0
C97 C 0.06017 0.5486 0.5467 0.0
O98 O 1.00319 0.52286 0.51202 0.0
C99 C 0.03744 0.5858 0.53963 0.0
O100 O 0.05451 0.58594 0.53359 0.0
H101 H 0.01397 0.52008 0.56508 0.0
H102 H 0.07234 0.5599 0.53477 0.0
N103 N 0.03772 0.56258 0.48859 0.0
N104 N 0.04042 0.57858 0.45085 0.0
C105 C 0.02889 0.56983 0.47237 0.0
C106 C 0.05566 0.56711 0.47701 0.0
C107 C 0.05728 0.5768 0.45374 0.0
C108 C 0.01027 0.51391 0.49836 0.0
O109 O 0.02943 0.52401 0.49028 0.0
H110 H 0.01408 0.56847 0.47625 0.0
H111 H 0.06677 0.56359 0.48487 0.0
O112 O 0.02049 0.56944 0.5375 0.0
H113 H 0.07664 0.53905 0.57285 0.0
H114 H 0.07005 0.58236 0.44019 0.0
Cu115 Cu 0.53335 0.56797 0.51325 0.0
N116 N 0.5467 0.59354 0.49903 0.0
N117 N 0.57086 0.62424 0.48763 0.0
C118 C 0.56686 0.60694 0.49891 0.0
C119 C 0.55249 0.62161 0.48037 0.0
C120 C 0.53762 0.60269 0.48753 0.0
O121 O 0.54575 0.56779 0.54628 0.0
C122 C 0.52994 0.55079 0.46383 0.0
O123 O 0.53876 0.56924 0.45537 0.0
H124 H 0.57844 0.60398 0.50636 0.0
H125 H 0.5213 0.59601 0.48448 0.0
N126 N 0.50693 0.56213 0.52109 0.0
N127 N 0.47288 0.54438 0.52367 0.0
C128 C 0.49019 0.54479 0.51585 0.0
C129 C 0.50016 0.57326 0.53258 0.0
C130 C 0.47904 0.56229 0.53421 0.0
C131 C 0.56421 0.57198 0.54985 0.0
O132 O 0.57605 0.57437 0.52977 0.0
H133 H 0.49076 0.53265 0.50672 0.0
H134 H 0.50991 0.58814 0.53954 0.0
O135 O 0.52908 0.54746 0.48814 0.0
H136 H 0.54997 0.63255 0.47058 0.0
H137 H 0.46909 0.56686 0.54332 0.0
Cu138 Cu 0.68755 0.88816 0.3312 0.0
N139 N 0.69536 0.91238 0.31469 0.0
N140 N 0.69611 0.94075 0.30443 0.0
C141 C 0.68695 0.92387 0.31887 0.0
C142 C 0.71086 0.9397 0.2906 0.0
C143 C 0.71032 0.92219 0.29694 0.0
O144 O 0.6731 0.88873 0.36406 0.0
C145 C 0.68599 0.86487 0.28747 0.0
O146 O 0.70587 0.87693 0.28864 0.0
H147 H 0.67422 0.91976 0.33214 0.0
H148 H 0.7203 0.9171 0.28935 0.0
N149 N 0.71091 0.8874 0.34131 0.0
N150 N 0.73011 0.87418 0.35268 0.0
C151 C 0.71093 0.87086 0.34892 0.0
C152 C 0.73076 0.90179 0.34035 0.0
C153 C 0.74268 0.89364 0.3473 0.0
C154 C 0.68431 0.90043 0.38204 0.0
O155 O 0.70427 0.91041 0.37833 0.0
H156 H 0.69717 0.85645 0.35037 0.0
H157 H 0.73621 0.91701 0.33446 0.0
O158 O 0.67428 0.86666 0.30435 0.0
H159 H 0.72158 0.95092 0.2772 0.0
H160 H 0.75926 0.90134 0.34801 0.0
Cu161 Cu 0.18316 0.88355 0.35052 0.0
N162 N 0.15713 0.8681 0.33546 0.0
N163 N 0.12966 0.84053 0.3209 0.0
C164 C 0.1483 0.84832 0.33195 0.0
C165 C 0.12669 0.85615 0.31727 0.0
C166 C 0.14358 0.87307 0.3263 0.0
O167 O 0.18245 0.86684 0.37993 0.0
C168 C 0.20155 0.90205 0.30515 0.0
O169 O 0.18668 0.90606 0.30857 0.0
H170 H 0.15561 0.83986 0.33724 0.0
H171 H 0.14577 0.88791 0.32614 0.0
N172 N 0.18867 0.90821 0.36412 0.0
N173 N 0.20761 0.93965 0.3777 0.0
C174 C 0.20763 0.92305 0.37005 0.0
C175 C 0.17614 0.91564 0.36832 0.0
C176 C 0.18776 0.93499 0.3766 0.0
C177 C 0.16685 0.86205 0.39467 0.0
O178 O 0.15524 0.86982 0.38954 0.0
H179 H 0.2213 0.92186 0.36795 0.0
H180 H 0.15977 0.90768 0.36528 0.0
O181 O 0.20342 0.89094 0.32206 0.0
H182 H 0.11316 0.85541 0.30903 0.0
H183 H 0.182 0.94484 0.38146 0.0
Cu184 Cu 0.18882 0.39396 0.36482 0.0
N185 N 0.18696 0.41058 0.33997 0.0
N186 N 0.17709 0.41895 0.30371 0.0
C187 C 0.18236 0.40642 0.31487 0.0
C188 C 0.17919 0.43191 0.32222 0.0
C189 C 0.18538 0.42677 0.34452 0.0
O190 O 0.16124 0.37181 0.37268 0.0
C191 C 0.22849 0.40454 0.35344 0.0
O192 O 0.22903 0.42162 0.35561 0.0
H193 H 0.18072 0.39322 0.3058 0.0
H194 H 0.18711 0.4335 0.36319 0.0
N195 N 0.19578 0.40664 0.39651 0.0
N196 N 0.20722 0.41203 0.4369 0.0
C197 C 0.20946 0.40655 0.41302 0.0
C198 C 0.18447 0.41231 0.4105 0.0
C199 C 0.19153 0.41569 0.43547 0.0
C200 C 0.14523 0.36739 0.3596 0.0
O201 O 0.14712 0.37196 0.33491 0.0
H202 H 0.21959 0.40087 0.40827 0.0
H203 H 0.17101 0.41244 0.40354 0.0
O204 O 0.21106 0.38868 0.35552 0.0
H205 H 0.17519 0.44344 0.32025 0.0
H206 H 0.18503 0.41958 0.45159 0.0
Cu207 Cu 0.18405 0.37799 0.86752 0.0
N208 N 0.20085 0.3931 0.84045 0.0
N209 N 0.22115 0.40072 0.80577 0.0
C210 C 0.21068 0.3871 0.8244 0.0
C211 C 0.21774 0.41592 0.81027 0.0
C212 C 0.20516 0.41115 0.83184 0.0
O213 O 0.19331 0.35845 0.87302 0.0
C214 C 0.13987 0.36701 0.86703 0.0
O215 O 0.13925 0.3656 0.89235 0.0
H216 H 0.20969 0.37276 0.82594 0.0
H217 H 0.19938 0.42006 0.84047 0.0
N218 N 0.19206 0.39464 0.89607 0.0
N219 N 0.19168 0.41055 0.93158 0.0
C220 C 0.18147 0.40104 0.9102 0.0
C221 C 0.2099 0.40101 0.90845 0.0
C222 C 0.20962 0.41062 0.93053 0.0
C223 C 0.19589 0.35235 0.89492 0.0
O224 O 0.18741 0.35496 0.91568 0.0
H225 H 0.16616 0.39791 0.90583 0.0
H226 H 0.2218 0.39786 0.90254 0.0
O227 O 0.156 0.3699 0.85476 0.0
H228 H 0.22392 0.42949 0.79888 0.0
H229 H 0.2212 0.41628 0.94531 0.0
Cu230 Cu 0.68517 0.872 0.8331 0.0
N231 N 0.69467 0.85643 0.81725 0.0
N232 N 0.69571 0.82928 0.80514 0.0
C233 C 0.68793 0.83704 0.82214 0.0
C234 C 0.70781 0.84451 0.78893 0.0
C235 C 0.70702 0.86112 0.79633 0.0
O236 O 0.67198 0.85744 0.86655 0.0
C237 C 0.67235 0.89486 0.7998 0.0
O238 O 0.67962 0.90823 0.81796 0.0
H239 H 0.67711 0.82872 0.83752 0.0
H240 H 0.71418 0.87535 0.7864 0.0
N241 N 0.70713 0.89661 0.8428 0.0
N242 N 0.72313 0.92686 0.86015 0.0
C243 C 0.70565 0.90911 0.85938 0.0
C244 C 0.72639 0.90656 0.83318 0.0
C245 C 0.73629 0.92523 0.84381 0.0
C246 C 0.68474 0.85623 0.88188 0.0
O247 O 0.70399 0.86475 0.87407 0.0
H248 H 0.69148 0.90566 0.86923 0.0
H249 H 0.7326 0.90098 0.81874 0.0
O250 O 0.67093 0.87789 0.80422 0.0
H251 H 0.71591 0.84356 0.77213 0.0
H252 H 0.75179 0.93685 0.83926 0.0
Cu253 Cu 0.19772 0.88303 0.85328 0.0
N254 N 0.18709 0.88516 0.82121 0.0
N255 N 0.17292 0.87514 0.78225 0.0
C256 C 0.17648 0.86956 0.80554 0.0
C257 C 0.18158 0.89507 0.78329 0.0
C258 C 0.19022 0.90121 0.80737 0.0
O259 O 0.17661 0.8576 0.86782 0.0
C260 C 0.23705 0.90505 0.83854 0.0
O261 O 0.23025 0.91765 0.83861 0.0
H262 H 0.17221 0.85446 0.81075 0.0
H263 H 0.1987 0.91634 0.81395 0.0
N264 N 0.20218 0.90228 0.87836 0.0
N265 N 0.21444 0.91958 0.9147 0.0
C266 C 0.21511 0.9065 0.89831 0.0
C267 C 0.19317 0.91332 0.88212 0.0
C268 C 0.20058 0.92387 0.90467 0.0
C269 C 0.15989 0.85793 0.87024 0.0
O270 O 0.15997 0.87426 0.86337 0.0
H271 H 0.22447 0.89968 0.90113 0.0
H272 H 0.18178 0.91346 0.86964 0.0
O273 O 0.22485 0.88698 0.84501 0.0
H274 H 0.18181 0.90454 0.76768 0.0
H275 H 0.19619 0.93395 0.913 0.0
Cu276 Cu 0.35841 0.22366 0.69412 0.0
N277 N 0.37137 0.24954 0.68055 0.0
N278 N 0.37384 0.27782 0.66603 0.0
C279 C 0.36164 0.25994 0.67731 0.0
C280 C 0.39205 0.27874 0.66203 0.0
C281 C 0.39052 0.26128 0.67114 0.0
O282 O 0.34368 0.22499 0.72587 0.0
C283 C 0.3553 0.20759 0.6449 0.0
O284 O 0.37428 0.22236 0.64445 0.0
H285 H 0.34567 0.25419 0.68249 0.0
H286 H 0.40237 0.2573 0.67035 0.0
N287 N 0.37655 0.21531 0.7047 0.0
N288 N 0.386 0.19302 0.71469 0.0
C289 C 0.37042 0.19598 0.70812 0.0
C290 C 0.39683 0.22511 0.70921 0.0
C291 C 0.40272 0.21135 0.71537 0.0
C292 C 0.35528 0.235 0.74461 0.0
O293 O 0.37517 0.2425 0.7417 0.0
H294 H 0.35479 0.18426 0.70513 0.0
H295 H 0.40664 0.24105 0.70811 0.0
O296 O 0.34406 0.20522 0.66499 0.0
H297 H 0.40549 0.2911 0.65316 0.0
H298 H 0.41806 0.2146 0.72018 0.0
Cu299 Cu 0.8482 0.1867 0.67758 0.0
N300 N 0.86537 0.19144 0.64894 0.0
N301 N 0.88364 0.20818 0.61382 0.0
C302 C 0.87079 0.20705 0.63294 0.0
C303 C 0.88642 0.19249 0.61806 0.0
C304 C 0.87508 0.18216 0.63976 0.0
O305 O 0.85708 0.2142 0.68954 0.0
C306 C 0.81651 0.14962 0.66344 0.0
O307 O 0.83212 0.14667 0.66627 0.0
H308 H 0.86578 0.21774 0.63591 0.0
H309 H 0.87416 0.16899 0.64831 0.0
N310 N 0.8526 0.1738 0.70548 0.0
N311 N 0.84517 0.15724 0.7432 0.0
C312 C 0.83884 0.16535 0.72492 0.0
C313 C 0.86828 0.17086 0.71152 0.0
C314 C 0.86379 0.16077 0.73501 0.0
C315 C 0.87581 0.22343 0.69706 0.0
O316 O 0.88602 0.21382 0.69675 0.0
H317 H 0.82454 0.16552 0.72584 0.0
H318 H 0.88204 0.17586 0.69988 0.0
O319 O 0.81961 0.16729 0.6667 0.0
H320 H 0.89593 0.1887 0.6064 0.0
H321 H 0.87339 0.15631 0.74518 0.0
Cu322 Cu 0.86431 0.71873 0.67911 0.0
N323 N 0.85888 0.7332 0.65439 0.0
N324 N 0.84494 0.73842 0.6194 0.0
C325 C 0.84687 0.72493 0.6338 0.0
C326 C 0.85623 0.75591 0.63126 0.0
C327 C 0.86495 0.75268 0.65276 0.0
O328 O 0.83761 0.69595 0.68842 0.0
C329 C 0.90237 0.73098 0.66103 0.0
O330 O 0.90168 0.74724 0.66553 0.0
H331 H 0.83943 0.70924 0.6297 0.0
H332 H 0.87522 0.76386 0.6659 0.0
N333 N 0.87515 0.73231 0.70995 0.0
N334 N 0.89106 0.73868 0.74782 0.0
C335 C 0.88327 0.72591 0.72814 0.0
C336 C 0.87764 0.74965 0.71867 0.0
C337 C 0.88766 0.75371 0.74198 0.0
C338 C 0.82585 0.70164 0.69833 0.0
O339 O 0.8328 0.72075 0.70072 0.0
H340 H 0.88394 0.71237 0.7266 0.0
H341 H 0.87252 0.75872 0.70901 0.0
O342 O 0.88597 0.71436 0.6649 0.0
H343 H 0.85832 0.77004 0.62459 0.0
H344 H 0.89196 0.76658 0.75382 0.0
Cu345 Cu 0.83077 0.6936 0.15842 0.0
N346 N 0.83076 0.68111 0.12755 0.0
N347 N 0.84506 0.6746 0.09373 0.0
C348 C 0.84828 0.68587 0.11469 0.0
C349 C 0.82457 0.66231 0.09303 0.0
C350 C 0.81576 0.66624 0.11412 0.0
O351 O 0.85775 0.70037 0.17379 0.0
C352 C 0.80334 0.70555 0.1426 0.0
O353 O 0.79309 0.68626 0.13952 0.0
H354 H 0.86321 0.6975 0.12068 0.0
H355 H 0.79966 0.65861 0.11936 0.0
N356 N 0.81219 0.67673 0.18345 0.0
N357 N 0.79936 0.6688 0.22358 0.0
C358 C 0.81423 0.6825 0.20808 0.0
C359 C 0.79537 0.65856 0.18306 0.0
C360 C 0.78727 0.65369 0.20793 0.0
C361 C 0.8585 0.6844 0.17777 0.0
O362 O 0.84225 0.66753 0.17166 0.0
H363 H 0.82608 0.69696 0.21426 0.0
H364 H 0.78925 0.6497 0.16599 0.0
O365 O 0.82178 0.71339 0.15093 0.0
H366 H 0.81661 0.65108 0.07866 0.0
H367 H 0.77346 0.64026 0.21393 0.0
Cu368 Cu 0.36318 0.21756 0.19655 0.0
N369 N 0.37514 0.20248 0.18581 0.0
N370 N 0.37709 0.17572 0.17408 0.0
C371 C 0.3651 0.18409 0.17577 0.0
C372 C 0.39554 0.18959 0.18291 0.0
C373 C 0.39426 0.20598 0.19026 0.0
O374 O 0.3499 0.20573 0.23087 0.0
C375 C 0.34618 0.23538 0.16174 0.0
O376 O 0.348 0.24673 0.18133 0.0
H377 H 0.34903 0.17666 0.17081 0.0
H378 H 0.4061 0.21905 0.19953 0.0
N379 N 0.38331 0.2437 0.20395 0.0
N380 N 0.3956 0.27523 0.21618 0.0
C381 C 0.38031 0.25617 0.21894 0.0
C382 C 0.40129 0.25517 0.19158 0.0
C383 C 0.40896 0.27456 0.19916 0.0
C384 C 0.34108 0.18721 0.23687 0.0
O385 O 0.33548 0.1743 0.2182 0.0
H386 H 0.36627 0.25153 0.22985 0.0
H387 H 0.40773 0.25002 0.17684 0.0
O388 O 0.34899 0.22058 0.16559 0.0
H389 H 0.40864 0.18755 0.18543 0.0
H390 H 0.42289 0.28724 0.19182 0.0
Cu391 Cu 0.86501 0.21701 0.19546 0.0
N392 N 0.84563 0.21235 0.17008 0.0
N393 N 0.82597 0.19871 0.13562 0.0
C394 C 0.84192 0.20057 0.14955 0.0
C395 C 0.81942 0.20982 0.14792 0.0
C396 C 0.83158 0.21822 0.16916 0.0
O397 O 0.85904 0.19078 0.20676 0.0
C398 C 0.8955 0.2486 0.16772 0.0
O399 O 0.87977 0.25083 0.16211 0.0
H400 H 0.85037 0.19298 0.14544 0.0
H401 H 0.8301 0.22772 0.18312 0.0
N402 N 0.86202 0.23007 0.22386 0.0
N403 N 0.87075 0.24674 0.26091 0.0
C404 C 0.87755 0.24257 0.23894 0.0
C405 C 0.84474 0.22632 0.23652 0.0
C406 C 0.85007 0.2366 0.2594 0.0
C407 C 0.85637 0.18643 0.23072 0.0
O408 O 0.86858 0.19989 0.24711 0.0
H409 H 0.89347 0.24723 0.23478 0.0
H410 H 0.82937 0.21587 0.23037 0.0
O411 O 0.8926 0.23386 0.18173 0.0
H412 H 0.80676 0.21176 0.14199 0.0
H413 H 0.83953 0.23604 0.27418 0.0
Mn414 Mn 1.00495 0.6664 0.25925 0.0
Mn415 Mn 0.95953 0.62449 0.26871 0.0
C416 C 0.97511 0.66475 0.2429 0.0
C417 C 0.03044 0.69778 0.274 0.0
C418 C 0.99035 0.62843 0.22724 0.0
O419 O 0.01131 0.65169 0.28797 0.0
O420 O 0.97982 0.6254 0.29419 0.0
C421 C 0.94931 0.63396 0.32006 0.0
N422 N 0.94419 0.62858 0.29507 0.0
C423 C 0.91074 0.62482 0.30164 0.0
C424 C 0.9156 0.63025 0.3275 0.0
C425 C 0.93502 0.63496 0.3367 0.0
C426 C 0.92573 0.62443 0.28588 0.0
H427 H 0.96415 0.63739 0.32723 0.0
C428 C 0.99884 0.63557 0.29996 0.0
O429 O 0.03457 0.68802 0.25701 0.0
O430 O 0.01176 0.68907 0.28287 0.0
N431 N 0.93808 0.62094 0.24606 0.0
C432 C 0.93607 0.61652 0.22045 0.0
C433 C 0.91734 0.61086 0.20839 0.0
C434 C 0.90084 0.6096 0.22283 0.0
C435 C 0.90341 0.61468 0.249 0.0
C436 C 0.92236 0.62003 0.26003 0.0
H437 H 0.94851 0.6169 0.20943 0.0
O438 O 0.99317 0.67756 0.23404 0.0
O439 O 0.97499 0.65335 0.26173 0.0
O440 O 1.00369 0.64661 0.23147 0.0
O441 O 0.97389 0.61882 0.24075 0.0
C442 C 0.88786 0.61442 0.26467 0.0
C443 C 0.89161 0.61974 0.29088 0.0
H444 H 0.90456 0.63088 0.34045 0.0
H445 H 0.9389 0.63921 0.35662 0.0
H446 H 0.9155 0.60713 0.18812 0.0
H447 H 0.88627 0.60475 0.21357 0.0
H448 H 0.87302 0.61032 0.25669 0.0
H449 H 0.87965 0.61978 0.30262 0.0
Mn450 Mn 0.40026 0.42674 0.30176 0.0
Mn451 Mn 0.39456 0.46715 0.29801 0.0
C452 C 0.37071 0.42539 0.31941 0.0
C453 C 0.39771 0.39757 0.28507 0.0
C454 C 0.42377 0.46371 0.33518 0.0
O455 O 0.42046 0.44342 0.27272 0.0
O456 O 0.41359 0.46841 0.27035 0.0
C457 C 0.3739 0.4603 0.2476 0.0
N458 N 0.37439 0.46384 0.27338 0.0
C459 C 0.34534 0.46875 0.27047 0.0
C460 C 0.34448 0.46514 0.24387 0.0
C461 C 0.35872 0.46073 0.23244 0.0
C462 C 0.36048 0.46764 0.28467 0.0
H463 H 0.38511 0.45734 0.23868 0.0
C464 C 0.42278 0.45936 0.26217 0.0
O465 O 0.41117 0.40815 0.30212 0.0
O466 O 0.38547 0.40388 0.27757 0.0
N467 N 0.37646 0.46821 0.32321 0.0
C468 C 0.37894 0.47052 0.34923 0.0
C469 C 0.36613 0.47529 0.36361 0.0
C470 C 0.35112 0.47786 0.35105 0.0
C471 C 0.34848 0.47484 0.32435 0.0
C472 C 0.36172 0.47016 0.31105 0.0
H473 H 0.39088 0.46918 0.35883 0.0
O474 O 0.37693 0.41343 0.32746 0.0
O475 O 0.38211 0.43802 0.3014 0.0
O476 O 0.41913 0.44612 0.32919 0.0
O477 O 0.41571 0.4729 0.32432 0.0
C478 C 0.33347 0.47662 0.31034 0.0
C479 C 0.33177 0.47339 0.28346 0.0
H480 H 0.33294 0.46568 0.23207 0.0
H481 H 0.35817 0.45794 0.21193 0.0
H482 H 0.36809 0.47737 0.38426 0.0
H483 H 0.34158 0.48195 0.36216 0.0
H484 H 0.32309 0.4804 0.32004 0.0
H485 H 0.31998 0.47451 0.27297 0.0
Mn486 Mn 0.67242 0.08479 0.27564 0.0
Mn487 Mn 0.68783 0.13332 0.28151 0.0
C488 C 0.7038 0.10881 0.25795 0.0
C489 C 0.67124 0.05581 0.29057 0.0
C490 C 0.65482 0.10625 0.24433 0.0
O491 O 0.654 0.08468 0.30493 0.0
O492 O 0.66721 0.1177 0.30895 0.0
C493 C 0.70909 0.1405 0.3315 0.0
N494 N 0.70949 0.14493 0.30592 0.0
C495 C 0.74414 0.17204 0.30853 0.0
C496 C 0.74408 0.16788 0.33496 0.0
C497 C 0.72653 0.15192 0.34644 0.0
C498 C 0.7265 0.15984 0.29451 0.0
H499 H 0.69557 0.12838 0.34045 0.0
C500 C 0.65493 0.0997 0.31612 0.0
O501 O 0.65766 0.0552 0.27471 0.0
O502 O 0.68487 0.07316 0.29864 0.0
N503 N 0.70799 0.15025 0.25643 0.0
C504 C 0.7055 0.15243 0.23078 0.0
C505 C 0.72177 0.16757 0.21633 0.0
C506 C 0.74026 0.18052 0.22849 0.0
C507 C 0.74233 0.17822 0.255 0.0
C508 C 0.72567 0.16274 0.26834 0.0
H509 H 0.69125 0.1427 0.22139 0.0
O510 O 0.69452 0.09085 0.24927 0.0
O511 O 0.69422 0.1121 0.27648 0.0
O512 O 0.65592 0.09075 0.24947 0.0
O513 O 0.66583 0.12284 0.25542 0.0
C514 C 0.76011 0.19092 0.26881 0.0
C515 C 0.76096 0.18792 0.29559 0.0
H516 H 0.75742 0.17681 0.3466 0.0
H517 H 0.72638 0.14856 0.3668 0.0
H518 H 0.72001 0.16932 0.19591 0.0
H519 H 0.75273 0.19225 0.21732 0.0
H520 H 0.77321 0.20307 0.25903 0.0
H521 H 0.77472 0.19776 0.306 0.0
Mn522 Mn 0.00961 0.40104 0.76792 0.0
Mn523 Mn 0.0336 0.38995 0.72097 0.0
C524 C 0.03061 0.38736 0.77868 0.0
C525 C 0.00731 0.42243 0.79868 0.0
C526 C 0.98785 0.36413 0.733 0.0
O527 O 0.00922 0.4178 0.73647 0.0
O528 O 0.02662 0.40996 0.70783 0.0
C529 C 0.07172 0.42898 0.7163 0.0
N530 N 0.06225 0.40898 0.72032 0.0
C531 C 0.09464 0.40985 0.72172 0.0
C532 C 0.10475 0.43046 0.71753 0.0
C533 C 0.09324 0.44008 0.71498 0.0
C534 C 0.07319 0.39965 0.72334 0.0
H535 H 0.06291 0.4364 0.71404 0.0
C536 C 0.01768 0.41971 0.71412 0.0
O537 O 0.99126 0.40724 0.78944 0.0
O538 O 0.02488 0.42578 0.78939 0.0
N539 N 0.04166 0.37107 0.73069 0.0
C540 C 0.02959 0.35129 0.7359 0.0
C541 C 0.03871 0.33949 0.73914 0.0
C542 C 0.06008 0.34808 0.73651 0.0
C543 C 0.0722 0.36849 0.7313 0.0
C544 C 0.06226 0.37953 0.72851 0.0
H545 H 0.01311 0.34453 0.73734 0.0
O546 O 0.01623 0.38571 0.79429 0.0
O547 O 0.03222 0.39685 0.75715 0.0
O548 O 0.98752 0.3747 0.75159 0.0
O549 O 1.00422 0.3689 0.72 0.0
C550 C 0.09372 0.3783 0.7285 0.0
C551 C 0.10497 0.39902 0.72418 0.0
H552 H 0.12134 0.43903 0.71625 0.0
H553 H 0.10093 0.45597 0.71178 0.0
H554 H 0.02928 0.32377 0.74328 0.0
H555 H 0.06703 0.33885 0.73863 0.0
H556 H 0.10178 0.37006 0.72973 0.0
H557 H 0.12154 0.40644 0.7226 0.0
Mn558 Mn 0.64852 0.65012 0.75527 0.0
Mn559 Mn 0.67536 0.65709 0.81001 0.0
C560 C 0.68328 0.6598 0.75294 0.0
C561 C 0.6278 0.6305 0.7215 0.0
C562 C 0.6655 0.68768 0.78862 0.0
O563 O 0.62558 0.63592 0.78261 0.0
O564 O 0.64545 0.6419 0.81738 0.0
C565 C 0.66323 0.61494 0.81897 0.0
N566 N 0.67815 0.6343 0.81605 0.0
C567 C 0.70463 0.62635 0.82456 0.0
C568 C 0.68956 0.60632 0.82773 0.0
C569 C 0.66878 0.60058 0.82475 0.0
C570 C 0.69819 0.6399 0.81824 0.0
H571 H 0.64724 0.61052 0.81697 0.0
C572 C 0.62787 0.63459 0.80687 0.0
O573 O 0.62843 0.64684 0.72811 0.0
O574 O 0.63855 0.62504 0.73525 0.0
N575 N 0.70458 0.67153 0.80684 0.0
C576 C 0.71714 0.69144 0.80318 0.0
C577 C 0.73832 0.69981 0.80676 0.0
C578 C 0.74629 0.68767 0.81444 0.0
C579 C 0.73314 0.66716 0.81754 0.0
C580 C 0.71215 0.65971 0.81396 0.0
H581 H 0.71101 0.70094 0.79813 0.0
O582 O 0.67422 0.6629 0.73374 0.0
O583 O 0.67168 0.65076 0.77303 0.0
O584 O 0.65531 0.67744 0.76935 0.0
O585 O 0.67367 0.68145 0.80502 0.0
C586 C 0.73996 0.65388 0.82453 0.0
C587 C 0.72575 0.63344 0.82763 0.0
H588 H 0.69377 0.59524 0.83249 0.0
H589 H 0.65706 0.58515 0.82715 0.0
H590 H 0.74842 0.71563 0.80416 0.0
H591 H 0.76256 0.69428 0.81797 0.0
H592 H 0.75613 0.65921 0.82741 0.0
H593 H 0.7312 0.62334 0.83269 0.0
Mn594 Mn 0.40088 0.04541 0.78496 0.0
Mn595 Mn 0.37769 0.02554 0.72864 0.0
C596 C 0.36803 0.018 0.78497 0.0
C597 C 0.4216 0.04925 0.82009 0.0
C598 C 0.38197 0.06359 0.74932 0.0
O599 O 0.42512 0.05683 0.75934 0.0
O600 O 0.40768 0.04232 0.72328 0.0
C601 C 0.39519 0.9993 0.72051 0.0
N602 N 0.37855 1.00175 0.72285 0.0
C603 C 0.35555 0.96746 0.71322 0.0
C604 C 0.37243 0.96454 0.71066 0.0
C605 C 0.39233 0.98051 0.71449 0.0
C606 C 0.35933 0.98641 0.71976 0.0
H607 H 0.41052 0.0116 0.72311 0.0
C608 C 0.42434 0.05364 0.73507 0.0
O609 O 0.41804 0.06315 0.81256 0.0
O610 O 0.41367 0.03309 0.80663 0.0
N611 N 0.34858 0.00878 0.73066 0.0
C612 C 0.33396 0.01394 0.73477 0.0
C613 C 0.31319 0.99967 0.73176 0.0
C614 C 0.30775 0.9804 0.72403 0.0
C615 C 0.32308 0.97542 0.71998 0.0
C616 C 0.34347 0.9902 0.72355 0.0
H617 H 0.33814 0.02889 0.74005 0.0
O618 O 0.37448 0.02976 0.8046 0.0
O619 O 0.38097 0.02257 0.76581 0.0
O620 O 0.39116 0.06342 0.76972 0.0
O621 O 0.37579 0.04993 0.73254 0.0
C622 C 0.31896 0.95645 0.71228 0.0
C623 C 0.33515 0.95237 0.70935 0.0
H624 H 0.3703 0.95013 0.70574 0.0
H625 H 0.40544 0.97839 0.71256 0.0
H626 H 0.30144 1.0036 0.73497 0.0
H627 H 0.29175 0.96957 0.72118 0.0
H628 H 0.30336 0.94479 0.7089 0.0
H629 H 0.33174 0.93762 0.70395 0.0
Mn630 Mn 0.67027 0.98725 0.58874 0.0
Mn631 Mn 0.62276 0.94683 0.58955 0.0
C632 C 0.64226 0.98923 0.57176 0.0
C633 C 0.6968 0.01722 0.60699 0.0
C634 C 0.65595 0.95214 0.55052 0.0
O635 O 0.67246 0.96895 0.61696 0.0
O636 O 0.63977 0.94378 0.61678 0.0
C637 C 0.6085 0.95157 0.64115 0.0
N638 N 0.6059 0.94961 0.6151 0.0
C639 C 0.57411 0.94987 0.61827 0.0
C640 C 0.57637 0.95174 0.64513 0.0
C641 C 0.59368 0.95268 0.6566 0.0
C642 C 0.58939 0.94888 0.60385 0.0
H643 H 0.62177 0.9523 0.65008 0.0
C644 C 0.65789 0.95238 0.62622 0.0
O645 O 0.70054 0.00743 0.58968 0.0
O646 O 0.67782 0.00913 0.61469 0.0
N647 N 0.60454 0.94798 0.56488 0.0
C648 C 0.60539 0.94763 0.53858 0.0
C649 C 0.58958 0.9474 0.5241 0.0
C650 C 0.57296 0.94731 0.53678 0.0
C651 C 0.57241 0.94767 0.56384 0.0
C652 C 0.58863 0.94793 0.57726 0.0
H653 H 0.61805 0.94758 0.5287 0.0
O654 O 0.66097 1.00161 0.56443 0.0
O655 O 0.64046 0.97589 0.58858 0.0
O656 O 0.66966 0.96923 0.55849 0.0
O657 O 0.63839 0.9423 0.5617 0.0
C658 C 0.5565 0.94793 0.57803 0.0
C659 C 0.55741 0.94918 0.6052 0.0
H660 H 0.56499 0.95263 0.65711 0.0
H661 H 0.5956 0.95424 0.6773 0.0
H662 H 0.59016 0.94722 0.50321 0.0
H663 H 0.56077 0.94708 0.52553 0.0
H664 H 0.54354 0.94731 0.56822 0.0
H665 H 0.54527 0.94975 0.61585 0.0
Mn666 Mn 0.07338 0.7563 0.59537 0.0
Mn667 Mn 0.06838 0.79668 0.58592 0.0
C668 C 0.04422 0.7565 0.61104 0.0
C669 C 0.06754 0.72485 0.58236 0.0
C670 C 0.09485 0.79432 0.62817 0.0
O671 O 0.09469 0.77124 0.56625 0.0
O672 O 0.08989 0.79744 0.56271 0.0
C673 C 0.05197 0.7872 0.5329 0.0
N674 N 0.05042 0.79209 0.55769 0.0
C675 C 0.02103 0.79527 0.54766 0.0
C676 C 0.02229 0.79029 0.52199 0.0
C677 C 0.03774 0.7861 0.51463 0.0
C678 C 0.03534 0.79568 0.5651 0.0
H679 H 0.06401 0.78426 0.52712 0.0
C680 C 0.09898 0.78795 0.55604 0.0
O681 O 0.08175 0.73551 0.59872 0.0
O682 O 0.05754 0.73288 0.57267 0.0
N683 N 0.04833 0.79867 0.60649 0.0
C684 C 0.04887 0.80259 0.63216 0.0
C685 C 0.03525 0.80823 0.64242 0.0
C686 C 0.02127 0.8098 0.62616 0.0
C687 C 0.02034 0.8048 0.60005 0.0
C688 C 0.03455 0.79965 0.59084 0.0
H689 H 0.05986 0.80179 0.64461 0.0
O690 O 0.05001 0.74472 0.62081 0.0
O691 O 0.05564 0.76794 0.59208 0.0
O692 O 0.09204 0.77712 0.62247 0.0
O693 O 0.08665 0.80271 0.61563 0.0
C694 C 1.0061 0.80502 0.58271 0.0
C695 C 1.00624 0.79997 0.55662 0.0
H696 H 0.01149 0.78966 0.50778 0.0
H697 H 0.03881 0.78224 0.49487 0.0
H698 H 0.03576 0.81168 0.6627 0.0
H699 H 0.01112 0.81461 0.63404 0.0
H700 H 0.99485 0.80888 0.5893 0.0
H701 H 0.99504 0.79991 0.54355 0.0
Mn702 Mn 0.32111 0.40052 0.60575 0.0
Mn703 Mn 0.32423 0.44447 0.61871 0.0
C704 C 0.34434 0.42884 0.58308 0.0
C705 C 0.33064 0.377 0.61639 0.0
C706 C 0.29085 0.41266 0.58591 0.0
O707 O 0.30506 0.39497 0.63963 0.0
O708 O 0.31192 0.42598 0.64835 0.0
C709 C 0.35469 0.45738 0.66056 0.0
N710 N 0.34838 0.46109 0.63767 0.0
C711 C 0.37612 0.49487 0.63675 0.0
C712 C 0.3828 0.49152 0.66051 0.0
C713 C 0.37215 0.47262 0.67233 0.0
C714 C 0.35888 0.479 0.62574 0.0
H715 H 0.34644 0.4429 0.66971 0.0
C716 C 0.30449 0.40769 0.65443 0.0
O717 O 0.31392 0.37211 0.60382 0.0
O718 O 0.34167 0.39546 0.62274 0.0
N719 N 0.33598 0.46439 0.59211 0.0
C720 C 0.32826 0.46477 0.56852 0.0
C721 C 0.3372 0.48252 0.554 0.0
C722 C 0.35374 0.49975 0.56406 0.0
C723 C 0.36169 0.49893 0.58815 0.0
C724 C 0.35212 0.48083 0.60175 0.0
H725 H 0.3152 0.45172 0.56101 0.0
O726 O 0.33917 0.41139 0.57438 0.0
O727 O 0.3366 0.42929 0.60542 0.0
O728 O 0.29748 0.40039 0.58606 0.0
O729 O 0.29916 0.42878 0.59861 0.0
C730 C 0.37857 0.51537 0.59936 0.0
C731 C 0.38594 0.51328 0.62349 0.0
H732 H 0.39616 0.50329 0.66975 0.0
H733 H 0.3773 0.46987 0.69056 0.0
H734 H 0.33111 0.48302 0.53531 0.0
H735 H 0.36025 0.51352 0.55304 0.0
H736 H 0.38612 0.52966 0.58952 0.0
H737 H 0.39919 0.52592 0.63165 0.0
Mn738 Mn 0.67473 0.75994 0.096 0.0
Mn739 Mn 0.69482 0.75027 0.0427 0.0
C740 C 0.69926 0.74918 0.10045 0.0
C741 C 0.67423 0.78135 0.12933 0.0
C742 C 0.65211 0.72127 0.06374 0.0
O743 O 0.66795 0.77426 0.06613 0.0
O744 O 0.68293 0.76711 0.03347 0.0
C745 C 0.72886 0.79122 0.03276 0.0
N746 N 0.72207 0.77152 0.03632 0.0
C747 C 0.75533 0.77604 0.02576 0.0
C748 C 0.76275 0.79641 0.02201 0.0
C749 C 0.74949 0.80405 0.02573 0.0
C750 C 0.73482 0.76412 0.03353 0.0
H751 H 0.71857 0.79703 0.0351 0.0
C752 C 0.67305 0.77531 0.04209 0.0
O753 O 0.65803 0.76508 0.1227 0.0
O754 O 0.69066 0.78578 0.11585 0.0
N755 N 0.70696 0.73401 0.04714 0.0
C756 C 0.69731 0.71403 0.05154 0.0
C757 C 0.70791 0.70377 0.0469 0.0
C758 C 0.72821 0.71411 0.03752 0.0
C759 C 0.73809 0.73476 0.03402 0.0
C760 C 0.72665 0.74413 0.03859 0.0
H761 H 0.68141 0.70587 0.05767 0.0
O762 O 0.68673 0.74724 0.11909 0.0
O763 O 0.69735 0.7576 0.07956 0.0
O764 O 0.65264 0.73179 0.08303 0.0
O765 O 0.6669 0.7272 0.04744 0.0
C766 C 0.75865 0.74635 0.02552 0.0
C767 C 0.76737 0.76703 0.02183 0.0
H768 H 0.77856 0.80629 0.01618 0.0
H769 H 0.75508 0.81974 0.02283 0.0
H770 H 0.70029 0.68785 0.04992 0.0
H771 H 0.73612 0.70602 0.03321 0.0
H772 H 0.76792 0.73952 0.0219 0.0
H773 H 0.78326 0.77582 0.01562 0.0
Mn774 Mn 0.32063 0.99654 0.10829 0.0
Mn775 Mn 0.35145 1.00244 0.15872 0.0
C776 C 0.35501 1.00565 0.10101 0.0
C777 C 0.29712 0.97823 0.07583 0.0
C778 C 0.34053 0.03358 0.14278 0.0
O779 O 0.29976 0.98173 0.13793 0.0
O780 O 0.32223 0.98694 0.1695 0.0
C781 C 0.34003 0.96024 0.1651 0.0
N782 N 0.35468 0.97966 0.1618 0.0
C783 C 0.38173 0.97193 0.16604 0.0
C784 C 0.36696 0.95183 0.16953 0.0
C785 C 0.34601 0.94595 0.16886 0.0
C786 C 0.37483 0.9854 0.16174 0.0
H787 H 0.32393 0.95571 0.16495 0.0
C788 C 0.30391 0.97965 0.16132 0.0
O789 O 0.2989 0.99454 0.08468 0.0
O790 O 0.30836 0.97189 0.08666 0.0
N791 N 0.38033 0.01699 0.15204 0.0
C792 C 0.39257 0.03688 0.1478 0.0
C793 C 0.41395 0.04533 0.14869 0.0
C794 C 0.42249 0.0333 0.15438 0.0
C795 C 0.40961 0.01281 0.15817 0.0
C796 C 0.38843 1.00525 0.15711 0.0
H797 H 0.38605 0.04629 0.14431 0.0
O798 O 0.34481 0.00942 0.08398 0.0
O799 O 0.34481 0.99644 0.12192 0.0
O800 O 0.32903 0.02372 0.12417 0.0
O801 O 0.34955 0.02692 0.1571 0.0
C802 C 0.41693 0.99962 0.16337 0.0
C803 C 0.40302 0.97915 0.16685 0.0
H804 H 0.37153 0.94081 0.17276 0.0
H805 H 0.33452 0.93047 0.17152 0.0
H806 H 0.42383 0.06113 0.14556 0.0
H807 H 0.43898 0.03998 0.15575 0.0
H808 H 0.43326 1.00505 0.16447 0.0
H809 H 0.40884 0.96913 0.17039 0.0
Mn810 Mn 0.0681 0.38945 0.11413 0.0
Mn811 Mn 0.04151 0.36682 0.0607 0.0
C812 C 0.03385 0.36479 0.11817 0.0
C813 C 0.09085 0.39324 0.14678 0.0
C814 C 0.05218 0.40847 0.07593 0.0
O815 O 0.09048 0.39679 0.08684 0.0
O816 O 0.07128 0.37835 0.05388 0.0
C817 C 0.05074 0.33407 0.0575 0.0
N818 N 0.03684 0.34041 0.05837 0.0
C819 C 0.00896 0.30758 0.05021 0.0
C820 C 0.02297 0.30067 0.04909 0.0
C821 C 0.04393 0.31395 0.05298 0.0
C822 C 0.01661 0.32769 0.0553 0.0
H823 H 0.06689 0.34432 0.06011 0.0
C824 C 0.08858 0.38997 0.0641 0.0
O825 O 0.08877 0.40793 0.13859 0.0
O826 O 0.07957 0.37612 0.1361 0.0
N827 N 0.0124 0.35476 0.06396 0.0
C828 C 1.00086 0.36364 0.06714 0.0
C829 C 0.97953 0.35243 0.06413 0.0
C830 C 0.97036 0.33234 0.05744 0.0
C831 C 0.98252 0.32345 0.05466 0.0
C832 C 1.00367 0.33535 0.058 0.0
H833 H 0.00793 0.37923 0.07148 0.0
O834 O 0.04276 0.37769 0.13627 0.0
O835 O 0.04536 0.36643 0.0983 0.0
O836 O 0.06044 0.40859 0.09731 0.0
O837 O 0.04505 0.39379 0.06065 0.0
C838 C 0.97454 0.30331 0.0485 0.0
C839 C 0.98772 0.29533 0.04657 0.0
H840 H 0.01779 0.2852 0.04537 0.0
H841 H 0.05483 0.30873 0.05221 0.0
H842 H 0.97021 0.35934 0.06647 0.0
H843 H 0.95395 0.32386 0.0546 0.0
H844 H 0.95826 0.29375 0.04551 0.0
H845 H 0.98135 0.27974 0.04235 0.0
Mn846 Mn 0.34176 0.3242 0.94797 0.0
Mn847 Mn 0.29551 0.28196 0.9524 0.0
C848 C 0.31189 0.32334 0.93172 0.0
C849 C 0.36847 0.3553 0.9637 0.0
C850 C 0.32785 0.28801 0.91185 0.0
O851 O 0.34642 0.30771 0.97667 0.0
O852 O 0.31443 0.28152 0.97856 0.0
C853 C 0.28284 0.28808 1.00426 0.0
N854 N 0.27903 0.28461 0.97859 0.0
C855 C 0.24495 0.27947 0.98409 0.0
C856 C 0.24848 0.28298 0.01059 0.0
C857 C 0.26759 0.2875 0.02067 0.0
C858 C 0.261 0.281 0.96854 0.0
H859 H 0.29734 0.2911 0.01219 0.0
C860 C 0.3328 0.29108 0.98692 0.0
O861 O 0.37172 0.34517 0.94646 0.0
O862 O 0.34976 0.34708 0.97267 0.0
N863 N 0.27508 0.27984 0.92881 0.0
C864 C 0.27381 0.27606 0.90301 0.0
C865 C 0.25565 0.27124 0.88997 0.0
C866 C 0.23873 0.26966 0.90371 0.0
C867 C 0.24012 0.27293 0.93039 0.0
C868 C 0.2588 0.27823 0.94224 0.0
H869 H 0.28651 0.27662 0.89243 0.0
O870 O 0.3301 0.33656 0.92366 0.0
O871 O 0.31163 0.31114 0.94926 0.0
O872 O 0.34104 0.30566 0.91857 0.0
O873 O 0.3109 0.27764 0.92416 0.0
C874 C 0.22348 0.27044 0.94583 0.0
C875 C 0.22598 0.27402 0.9726 0.0
H876 H 0.23659 0.28211 0.0234 0.0
H877 H 0.27043 0.29019 0.04111 0.0
H878 H 0.2546 0.26844 0.86944 0.0
H879 H 0.22464 0.26564 0.89364 0.0
H880 H 0.20875 0.26598 0.93726 0.0
H881 H 0.21316 0.2724 0.98419 0.0
Mn882 Mn 0.73594 0.08038 0.9483 0.0
Mn883 Mn 0.732 0.12089 0.93509 0.0
C884 C 0.70714 0.08126 0.96328 0.0
C885 C 0.73254 0.05026 0.93482 0.0
C886 C 0.75916 0.11943 0.97718 0.0
O887 O 0.75768 0.09495 0.92011 0.0
O888 O 0.75081 0.11906 0.90958 0.0
C889 C 0.71085 0.10866 0.88497 0.0
N890 N 0.71186 0.11537 0.90942 0.0
C891 C 0.68312 0.12025 0.90236 0.0
C892 C 0.68172 0.11338 0.87708 0.0
C893 C 0.69555 0.10741 0.86841 0.0
C894 C 0.69832 0.12065 0.91816 0.0
H895 H 0.72171 0.10442 0.87816 0.0
C896 C 0.76044 0.1096 0.90595 0.0
O897 O 0.74556 0.06084 0.95238 0.0
O898 O 0.72127 0.05706 0.92536 0.0
N899 N 0.71459 0.12539 0.95766 0.0
C900 C 0.71792 0.13143 0.98267 0.0
C901 C 0.70622 0.13894 0.99391 0.0
C902 C 0.69137 0.14035 0.97925 0.0
C903 C 0.68771 0.13343 0.95384 0.0
C904 C 0.70007 0.12638 0.94356 0.0
H905 H 0.72986 0.13111 0.99373 0.0
O906 O 0.71223 0.06892 0.97303 0.0
O907 O 0.71867 0.09235 0.94408 0.0
O908 O 0.75368 0.1011 0.97512 0.0
O909 O 0.75286 0.1283 0.96213 0.0
C910 C 0.67263 0.13368 0.93811 0.0
C911 C 0.67013 0.12682 0.9125 0.0
H912 H 0.67012 0.11265 0.86415 0.0
H913 H 0.69458 0.1021 0.84893 0.0
H914 H 0.70895 0.14405 0.01363 0.0
H915 H 0.68276 0.14666 0.98781 0.0
H916 H 0.66277 0.13899 0.94557 0.0
H917 H 0.65831 0.12682 0.90071 0.0
Mn918 Mn 0.99094 0.71435 0.93078 0.0
Mn919 Mn 0.99319 0.75766 0.94465 0.0
C920 C 0.01968 0.74393 0.91828 0.0
C921 C 0.9962 0.68821 0.94253 0.0
C922 C 0.9685 0.73154 0.90051 0.0
O923 O 0.9678 0.70606 0.95755 0.0
O924 O 0.97241 0.73611 0.96715 0.0
C925 C 0.01011 0.76265 0.99724 0.0
N926 N 0.0112 0.76986 0.97286 0.0
C927 C 0.0401 0.80145 0.9836 0.0
C928 C 0.03931 0.79441 0.00887 0.0
C929 C 0.02432 0.77487 0.01566 0.0
C930 C 0.02582 0.78845 0.96597 0.0
H931 H 0.99842 0.74773 1.00256 0.0
C932 C 0.96312 0.71725 0.97031 0.0
O933 O 0.98303 0.68615 0.92501 0.0
O934 O 1.00578 0.70525 0.9538 0.0
N935 N 0.0124 0.78019 0.92466 0.0
C936 C 0.01133 0.78446 0.89933 0.0
C937 C 0.02478 0.80359 0.88956 0.0
C938 C 0.03894 0.81818 0.90601 0.0
C939 C 0.04006 0.81332 0.93188 0.0
C940 C 0.02619 0.79405 0.94054 0.0
H941 H 1.00001 0.77347 0.88682 0.0
O942 O 0.0154 0.72736 0.90745 0.0
O943 O 0.00723 0.74269 0.93683 0.0
O944 O 0.9737 0.71833 0.90335 0.0
O945 O 0.97451 0.74648 0.9152 0.0
C946 C 0.05419 0.82689 0.9495 0.0
C947 C 0.05442 0.82088 0.97523 0.0
H948 H 0.05011 0.80386 0.0232 0.0
H949 H 0.02361 0.76932 0.03511 0.0
H950 H 0.02396 0.80721 0.86952 0.0
H951 H 0.04897 0.83305 0.89852 0.0
H952 H 0.06509 0.84195 0.94338 0.0
H953 H 0.06557 0.83134 0.98848 0.0
Mn954 Mn 0.35554 0.108 0.45525 0.0
Mn955 Mn 0.37804 0.09846 0.40452 0.0
C956 C 0.37789 0.09506 0.46241 0.0
C957 C 0.35376 0.12862 0.48813 0.0
C958 C 0.33339 0.07133 0.4203 0.0
O959 O 0.35194 0.12392 0.42483 0.0
O960 O 0.36883 0.11735 0.39396 0.0
C961 C 0.41459 0.13847 0.39821 0.0
N962 N 0.40625 0.1185 0.40141 0.0
C963 C 0.43927 0.12097 0.39665 0.0
C964 C 0.44824 0.14157 0.39318 0.0
C965 C 0.43586 0.15037 0.39415 0.0
C966 C 0.41806 0.10994 0.40106 0.0
H967 H 0.40506 0.14523 0.39866 0.0
C968 C 0.35905 0.12596 0.4016 0.0
O969 O 0.33762 0.1133 0.4793 0.0
O970 O 0.37102 0.13262 0.4771 0.0
N971 N 0.38796 0.08053 0.41103 0.0
C972 C 0.377 0.06062 0.41593 0.0
C973 C 0.38707 0.04953 0.41572 0.0
C974 C 0.40818 0.05896 0.41002 0.0
C975 C 0.41918 0.07951 0.40536 0.0
C976 C 0.40832 0.08977 0.40581 0.0
H977 H 0.36067 0.05322 0.41961 0.0
O978 O 0.36435 0.09317 0.47959 0.0
O979 O 0.37822 0.10468 0.44148 0.0
O980 O 0.33351 0.08148 0.43965 0.0
O981 O 0.34914 0.0766 0.4058 0.0
C982 C 0.44045 0.0902 0.40005 0.0
C983 C 0.45053 0.11094 0.39597 0.0
H984 H 0.46462 0.15077 0.38984 0.0
H985 H 0.44267 0.16626 0.39156 0.0
H986 H 0.37851 0.03369 0.41946 0.0
H987 H 0.41576 0.05024 0.4092 0.0
H988 H 0.44926 0.08266 0.39929 0.0
H989 H 0.46694 0.11904 0.39237 0.0
Mn990 Mn 0.98096 0.3439 0.44256 0.0
Mn991 Mn 0.01209 0.35399 0.49363 0.0
C992 C 0.01623 0.3571 0.4363 0.0
C993 C 0.95917 0.3234 0.41037 0.0
C994 C 0.99349 0.37935 0.47852 0.0
O995 O 0.96108 0.32656 0.47131 0.0
O996 O 0.98349 0.33399 0.50382 0.0
C997 C 0.00925 0.31482 0.50046 0.0
N998 N 0.0208 0.33482 0.49655 0.0
C999 C 0.05211 0.3337 0.49915 0.0
C1000 C 0.04057 0.3131 0.50327 0.0
C1001 C 0.01904 0.30361 0.50375 0.0
C1002 C 0.0415 0.34404 0.4956 0.0
H1003 H 0.9927 0.30749 0.50113 0.0
C1004 C 0.9654 0.32432 0.49452 0.0
O1005 O 0.95815 0.33848 0.41898 0.0
O1006 O 0.97276 0.31992 0.42078 0.0
N1007 N 0.04026 0.37273 0.4862 0.0
C1008 C 0.04904 0.39237 0.47985 0.0
C1009 C 0.07049 0.40391 0.47761 0.0
C1010 C 0.08266 0.39522 0.48232 0.0
C1011 C 0.07324 0.37496 0.48874 0.0
C1012 C 0.05181 0.36414 0.49026 0.0
H1013 H 0.03975 0.39915 0.47654 0.0
O1014 O 1.00537 0.35978 0.41902 0.0
O1015 O 1.00625 0.34738 0.45696 0.0
O1016 O 0.98402 0.36912 0.45902 0.0
O1017 O 1.00457 0.37511 0.49276 0.0
C1018 C 0.08426 0.36505 0.49365 0.0
C1019 C 0.07372 0.34439 0.49844 0.0
H1020 H 0.04808 0.30443 0.50599 0.0
H1021 H 0.01002 0.28772 0.50686 0.0
H1022 H 0.07763 0.41951 0.4725 0.0
H1023 H 0.09921 0.4042 0.48077 0.0
H1024 H 0.10088 0.37316 0.49345 0.0
H1025 H 0.08239 0.33686 0.50151 0.0
Mn1026 Mn 0.74929 0.72865 0.42356 0.0
Mn1027 Mn 0.71636 0.71082 0.37373 0.0
C1028 C 0.71452 0.71626 0.43059 0.0
C1029 C 0.7683 0.72589 0.45697 0.0
C1030 C 0.74287 0.75456 0.38387 0.0
O1031 O 0.76598 0.72379 0.39639 0.0
O1032 O 0.74281 0.71272 0.36449 0.0
C1033 C 0.7106 0.67026 0.37294 0.0
N1034 N 0.70253 0.68249 0.37413 0.0
C1035 C 0.66815 0.6549 0.37133 0.0
C1036 C 0.67607 0.64198 0.37006 0.0
C1037 C 0.69738 0.64969 0.37105 0.0
C1038 C 0.68205 0.6752 0.37371 0.0
H1039 H 0.72699 0.67617 0.37328 0.0
C1040 C 0.76034 0.71737 0.37364 0.0
O1041 O 0.77372 0.74272 0.44556 0.0
O1042 O 0.75193 0.71038 0.44867 0.0
N1043 N 0.68985 0.70789 0.37932 0.0
C1044 C 0.68473 0.72233 0.38163 0.0
C1045 C 0.66402 0.71717 0.38069 0.0
C1046 C 0.64886 0.69731 0.37697 0.0
C1047 C 0.65447 0.68266 0.37511 0.0
C1048 C 0.67535 0.6887 0.37611 0.0
H1049 H 0.69639 0.7377 0.38371 0.0
O1050 O 0.72793 0.72884 0.44641 0.0
O1051 O 0.72176 0.71115 0.41102 0.0
O1052 O 0.75204 0.75259 0.40326 0.0
O1053 O 0.72924 0.73988 0.37145 0.0
C1054 C 0.64021 0.66235 0.37195 0.0
C1055 C 0.64702 0.64846 0.37033 0.0
H1056 H 0.66593 0.62613 0.36836 0.0
H1057 H 0.70362 0.63982 0.37008 0.0
H1058 H 0.65977 0.72852 0.38232 0.0
H1059 H 0.63296 0.6935 0.3756 0.0
H1060 H 0.62394 0.65722 0.37092 0.0
H1061 H 0.63589 0.63285 0.3683 0.0
C1062 C 0.04296 0.50332 0.02967 0.0
C1063 C 0.02494 0.50066 0.04156 0.0
C1064 C 0.05039 0.49031 0.03527 0.0
C1065 C 0.03951 0.47441 0.05314 0.0
C1066 C 0.02203 0.47248 0.06627 0.0
C1067 C 0.015 0.48562 0.06034 0.0
C1068 C 0.0692 0.49292 0.02108 0.0
C1069 C 0.01003 0.45584 0.08559 0.0
C1070 C 0.03849 0.42539 0.04763 0.0
C1071 C 0.05045 0.42608 0.06869 0.0
C1072 C 0.03568 0.44148 0.04155 0.0
C1073 C 0.04513 0.45875 0.05681 0.0
C1074 C 0.05797 0.45992 0.07734 0.0
C1075 C 0.06041 0.44355 0.08311 0.0
C1076 C 0.0218 0.43962 0.01953 0.0
C1077 C 0.06843 0.47814 0.09389 0.0
H1078 H 0.05066 0.51489 0.0151 0.0
H1079 H 1.00118 0.48364 0.06981 0.0
H1080 H 0.0799 0.4918 0.03471 0.0
H1081 H 0.06461 0.4809 1.00684 0.0
H1082 H 0.07746 0.50742 0.01062 0.0
H1083 H 0.99761 0.45723 0.09536 0.0
H1084 H 1.00303 0.44138 0.07562 0.0
H1085 H 0.02037 0.45556 0.10054 0.0
H1086 H 0.0308 0.41204 0.03628 0.0
H1087 H 0.0699 0.44437 0.09923 0.0
H1088 H 0.02962 0.45267 1.00628 0.0
H1089 H 0.00783 0.43929 0.02728 0.0
H1090 H 0.017 0.42595 1.00822 0.0
H1091 H 0.07628 0.49175 0.08161 0.0
H1092 H 0.07986 0.47771 0.10696 0.0
H1093 H 0.05679 0.4793 0.10588 0.0
C1094 C 0.55475 0.61028 0.03751 0.0
C1095 C 0.56218 0.59689 0.0368 0.0
C1096 C 0.56782 0.63065 0.04297 0.0
C1097 C 0.58888 0.63799 0.04834 0.0
C1098 C 0.59628 0.62439 0.04835 0.0
C1099 C 0.583 0.60423 0.04242 0.0
C1100 C 0.55918 0.64447 0.04226 0.0
C1101 C 0.61842 0.63121 0.05425 0.0
C1102 C 0.63003 0.69234 0.03521 0.0
C1103 C 0.63413 0.70069 0.05999 0.0
C1104 C 0.61489 0.67238 0.03113 0.0
C1105 C 0.60355 0.65995 0.05236 0.0
C1106 C 0.60722 0.66838 0.0774 0.0
C1107 C 0.62227 0.68861 0.08088 0.0
C1108 C 0.61148 0.66443 1.00402 0.0
C1109 C 0.59582 0.65581 0.10072 0.0
H1110 H 0.53878 0.60494 0.03314 0.0
H1111 H 0.58903 0.59416 0.04216 0.0
H1112 H 0.56231 0.65263 0.06066 0.0
H1113 H 0.56685 0.65569 0.02656 0.0
H1114 H 0.54238 0.63647 0.03898 0.0
H1115 H 0.62153 0.61868 0.05528 0.0
H1116 H 0.62853 0.64185 0.03908 0.0
H1117 H 0.62266 0.6391 0.07292 0.0
H1118 H 0.63893 0.70141 0.01881 0.0
H1119 H 0.62534 0.69469 0.10014 0.0
H1120 H 0.59494 0.65707 0.99934 0.0
H1121 H 0.61626 0.65309 1.00255 0.0
H1122 H 0.62024 0.67628 0.98933 0.0
H1123 H 0.57903 0.64815 0.09756 0.0
H1124 H 0.59932 0.6647 0.11857 0.0
H1125 H 0.60004 0.64416 0.10372 0.0
C1126 C 0.45341 0.01336 0.02883 0.0
C1127 C 0.47125 0.02261 0.04374 0.0
C1128 C 0.43424 0.00936 0.03906 0.0
C1129 C 0.43285 0.01496 0.06469 0.0
C1130 C 0.45073 0.02376 0.0799 0.0
C1131 C 0.46951 0.02721 0.06945 0.0
C1132 C 0.41563 0.99987 0.02208 0.0
C1133 C 0.45023 0.03019 0.10704 0.0
C1134 C 0.38982 0.02592 0.08073 0.0
C1135 C 0.37559 0.00865 0.09409 0.0
C1136 C 0.40854 0.02822 0.07139 0.0
C1137 C 0.41309 0.01275 0.07513 0.0
C1138 C 0.39877 0.99529 0.08879 0.0
C1139 C 0.38013 0.99339 0.09785 0.0
C1140 C 0.42335 0.04718 0.05723 0.0
C1141 C 0.40294 0.97845 0.09339 0.0
H1142 H 0.45452 0.00981 0.00889 0.0
H1143 H 0.4831 0.03435 0.08125 0.0
H1144 H 0.4029 0.98679 0.03211 0.0
H1145 H 0.41026 0.01057 0.01816 0.0
H1146 H 0.41888 0.99508 1.00332 0.0
H1147 H 0.46549 0.0372 0.1163 0.0
H1148 H 0.44457 0.04091 0.10705 0.0
H1149 H 0.43945 0.01705 0.11871 0.0
H1150 H 0.3862 0.03761 0.07741 0.0
H1151 H 0.36883 0.9797 0.10729 0.0
H1152 H 0.42591 0.04381 0.03722 0.0
H1153 H 0.43842 0.05433 0.06691 0.0
H1154 H 0.41772 0.05794 0.05634 0.0
H1155 H 0.4046 0.9726 0.07461 0.0
H1156 H 0.3905 0.96611 0.10488 0.0
H1157 H 0.41759 0.98388 0.10377 0.0
C1158 C 0.46358 0.0616 0.49151 0.0
C1159 C 0.47341 0.07068 0.51449 0.0
C1160 C 0.44698 0.06354 0.48206 0.0
C1161 C 0.43983 0.07473 0.49587 0.0
C1162 C 0.44899 0.08286 0.51988 0.0
C1163 C 0.46563 0.08092 0.52865 0.0
C1164 C 0.43799 0.05451 0.4565 0.0
C1165 C 0.44163 0.0942 0.53608 0.0
C1166 C 0.41451 0.10188 0.46377 0.0
C1167 C 0.39353 0.08902 0.46874 0.0
C1168 C 0.4295 0.09693 0.47123 0.0
C1169 C 0.42364 0.07894 0.48502 0.0
C1170 C 0.40243 0.066 0.49035 0.0
C1171 C 0.38774 0.07118 0.48223 0.0
C1172 C 0.45176 0.11124 0.46484 0.0
C1173 C 0.39527 0.04694 0.50548 0.0
H1174 H 0.46952 0.05386 0.48021 0.0
H1175 H 0.47295 0.08792 0.54656 0.0
H1176 H 0.44436 0.06642 0.44153 0.0
H1177 H 0.44185 0.04299 0.45092 0.0
H1178 H 0.42107 0.0478 0.4569 0.0
H1179 H 0.4489 0.0979 0.55536 0.0
H1180 H 0.44521 0.10823 0.52597 0.0
H1181 H 0.42473 0.08542 0.53886 0.0
H1182 H 0.41929 0.11608 0.45444 0.0
H1183 H 0.37163 0.06131 0.48672 0.0
H1184 H 0.45859 0.10339 0.45461 0.0
H1185 H 0.46044 0.11718 0.4829 0.0
H1186 H 0.45378 0.12392 0.45261 0.0
H1187 H 0.40108 0.03785 0.49625 0.0
H1188 H 0.37828 0.03799 0.50701 0.0
H1189 H 0.40161 0.05037 0.52526 0.0
C1190 C 0.98927 0.47883 0.51539 0.0
C1191 C 0.99962 0.49211 0.49485 0.0
C1192 C 0.98491 0.45893 0.51441 0.0
C1193 C 0.99129 0.45234 0.49254 0.0
C1194 C 1.00046 0.46543 0.47114 0.0
C1195 C 1.00435 0.48501 0.47253 0.0
C1196 C 0.97476 0.44546 0.5375 0.0
C1197 C 0.00772 0.4593 0.44749 0.0
C1198 C 0.00748 0.41317 0.49794 0.0
C1199 C 0.9919 0.39727 0.48448 0.0
C1200 C 0.007 0.43084 0.50176 0.0
C1201 C 0.99025 0.43257 0.49247 0.0
C1202 C 0.97387 0.41612 0.48026 0.0
C1203 C 0.97502 0.39882 0.47608 0.0
C1204 C 0.02496 0.44805 0.51456 0.0
C1205 C 0.95541 0.41703 0.47087 0.0
H1206 H 0.98593 0.48431 0.5329 0.0
H1207 H 0.01246 0.49526 0.45666 0.0
H1208 H 0.9638 0.43011 0.5314 0.0
H1209 H 0.98662 0.44487 0.54946 0.0
H1210 H 0.96648 0.45091 0.54979 0.0
H1211 H 0.0136 0.47088 0.432 0.0
H1212 H 0.0202 0.45632 0.45289 0.0
H1213 H 0.99507 0.44539 0.43958 0.0
H1214 H 0.02054 0.41213 0.50462 0.0
H1215 H 0.96271 0.38651 0.46605 0.0
H1216 H 0.01954 0.4534 0.53096 0.0
H1217 H 0.03284 0.46057 0.50052 0.0
H1218 H 0.03629 0.44405 0.52185 0.0
H1219 H 0.94957 0.4229 0.4862 0.0
H1220 H 0.94281 0.40224 0.46503 0.0
H1221 H 0.95986 0.42731 0.454 0.0
C1222 C 0.59406 0.65276 0.45999 0.0
C1223 C 0.59077 0.64115 0.48226 0.0
C1224 C 0.61383 0.6676 0.45259 0.0
C1225 C 0.63078 0.67083 0.46774 0.0
C1226 C 0.62734 0.66032 0.49144 0.0
C1227 C 0.60737 0.64547 0.49832 0.0
C1228 C 0.6163 0.67849 0.42747 0.0
C1229 C 0.64485 0.66406 0.50892 0.0
C1230 C 0.68157 0.68458 0.43532 0.0
C1231 C 0.6927 0.70516 0.43836 0.0
C1232 C 0.66118 0.67342 0.44398 0.0
C1233 C 0.65204 0.68295 0.45728 0.0
C1234 C 0.66342 0.70371 0.46107 0.0
C1235 C 0.68365 0.71462 0.45141 0.0
C1236 C 0.64948 0.65137 0.43914 0.0
C1237 C 0.65434 0.71428 0.47567 0.0
H1238 H 0.58134 0.64955 0.44746 0.0
H1239 H 0.60481 0.63693 0.51599 0.0
H1240 H 0.61634 0.66908 0.41155 0.0
H1241 H 0.60314 0.68096 0.42438 0.0
H1242 H 0.63067 0.69302 0.42644 0.0
H1243 H 0.63935 0.65712 0.52835 0.0
H1244 H 0.6539 0.65783 0.50018 0.0
H1245 H 0.65534 0.68024 0.51118 0.0
H1246 H 0.68895 0.67713 0.42652 0.0
H1247 H 0.6925 0.7305 0.45433 0.0
H1248 H 0.63508 0.64739 0.42882 0.0
H1249 H 0.64514 0.64302 0.45776 0.0
H1250 H 0.65855 0.64642 0.42755 0.0
H1251 H 0.64047 0.71236 0.46571 0.0
H1252 H 0.66537 0.73041 0.47744 0.0
H1253 H 0.64945 0.70765 0.49533 0.0
C1254 C 0.99654 0.59361 0.99608 0.0
C1255 C 0.00869 0.5877 0.98241 0.0
C1256 C 0.99734 0.61159 0.9904 0.0
C1257 C 0.01046 0.62391 0.97026 0.0
C1258 C 0.02374 0.6186 0.95741 0.0
C1259 C 0.02277 0.60048 0.96376 0.0
C1260 C 0.98312 0.61673 1.00487 0.0
C1261 C 0.03802 0.63143 0.93594 0.0
C1262 C 0.98972 0.65367 0.93675 0.0
C1263 C 1.00057 0.67208 0.94883 0.0
C1264 C 0.9935 0.63816 0.94273 0.0
C1265 C 0.00853 0.64112 0.96122 0.0
C1266 C 0.01997 0.65987 0.97292 0.0
C1267 C 0.01581 0.67512 0.96663 0.0
C1268 C 0.98088 0.61836 0.9299 0.0
C1269 C 0.03611 0.66361 0.99268 0.0
H1270 H 0.98579 0.58374 0.01072 0.0
H1271 H 0.03206 0.5958 0.95314 0.0
H1272 H 0.99171 0.63215 0.01201 0.0
H1273 H 0.97118 0.61585 0.99163 0.0
H1274 H 0.97538 0.60655 0.0216 0.0
H1275 H 0.04926 0.62676 0.93042 0.0
H1276 H 0.02892 0.63047 0.91869 0.0
H1277 H 0.04648 0.64722 0.94171 0.0
H1278 H 0.97803 0.65125 0.92284 0.0
H1279 H 0.02441 0.68938 0.97588 0.0
H1280 H 0.97101 0.60702 0.94458 0.0
H1281 H 0.99106 0.61339 0.92121 0.0
H1282 H 0.97091 0.6189 0.91458 0.0
H1283 H 0.02868 0.65473 0.01046 0.0
H1284 H 0.04513 0.67951 0.99794 0.0
H1285 H 0.04679 0.6588 0.98526 0.0
C1286 C 0.45253 0.47139 0.98947 0.0
C1287 C 0.46784 0.47315 1.00644 0.0
C1288 C 0.43597 0.45258 0.98261 0.0
C1289 C 0.43429 0.43488 0.9932 0.0
C1290 C 0.44952 0.43662 0.01068 0.0
C1291 C 0.46603 0.45554 0.01688 0.0
C1292 C 0.42038 0.45164 0.96368 0.0
C1293 C 0.44846 0.41841 0.02284 0.0
C1294 C 0.38243 0.38576 0.99222 0.0
C1295 C 0.3852 0.37559 0.97164 0.0
C1296 C 0.39811 0.40495 0.99937 0.0
C1297 C 0.41709 0.41455 0.98549 0.0
C1298 C 0.41985 0.40438 0.96457 0.0
C1299 C 0.40406 0.38515 0.95808 0.0
C1300 C 0.39441 0.4149 0.02201 0.0
C1301 C 0.43958 0.41385 0.94893 0.0
H1302 H 0.45364 0.48475 0.98118 0.0
H1303 H 0.47755 0.45651 0.03016 0.0
H1304 H 0.42029 0.44326 0.94639 0.0
H1305 H 0.40478 0.44354 0.97251 0.0
H1306 H 0.42356 0.46661 0.95737 0.0
H1307 H 0.46094 0.42219 0.03687 0.0
H1308 H 0.43348 0.40937 0.03296 0.0
H1309 H 0.44955 0.40901 1.00761 0.0
H1310 H 0.36801 0.37867 1.0029 0.0
H1311 H 0.40648 0.37764 0.94205 0.0
H1312 H 0.3961 0.42933 0.01575 0.0
H1313 H 0.40606 0.41808 0.03702 0.0
H1314 H 0.3789 0.40564 0.03083 0.0
H1315 H 0.44265 0.42839 0.94093 0.0
H1316 H 0.43916 0.4044 0.93272 0.0
H1317 H 0.45261 0.41674 0.96154 0.0
C1318 C 0.61152 0.0882 0.0162 0.0
C1319 C 0.59265 0.07043 0.01626 0.0
C1320 C 0.62963 0.08908 1.00778 0.0
C1321 C 0.62924 0.07176 0.99894 0.0
C1322 C 0.61035 0.05349 0.99961 0.0
C1323 C 0.59219 0.05303 1.00815 0.0
C1324 C 0.64887 0.10905 1.00705 0.0
C1325 C 0.60938 0.03449 0.99139 0.0
C1326 C 0.67363 0.07986 0.9544 0.0
C1327 C 0.68771 0.08003 0.97207 0.0
C1328 C 0.65443 0.07696 0.96275 0.0
C1329 C 0.64872 0.07308 0.98927 0.0
C1330 C 0.66261 0.0724 1.00701 0.0
C1331 C 0.68193 0.07602 0.99823 0.0
C1332 C 0.64038 0.07836 0.94326 0.0
C1333 C 0.65726 0.06836 0.03542 0.0
H1334 H 0.61226 0.10183 0.02237 0.0
H1335 H 0.57771 0.03919 1.00827 0.0
H1336 H 0.65028 0.11544 0.98743 0.0
H1337 H 0.64816 0.11941 0.02111 0.0
H1338 H 0.66275 0.10801 0.01102 0.0
H1339 H 0.59377 0.02141 0.99403 0.0
H1340 H 0.61398 0.03564 0.97075 0.0
H1341 H 0.62038 0.03201 1.00272 0.0
H1342 H 0.67749 0.08166 0.93399 0.0
H1343 H 0.69255 0.07558 0.0119 0.0
H1344 H 0.63775 0.09076 0.94834 0.0
H1345 H 0.62523 0.06455 0.94374 0.0
H1346 H 0.64677 0.08088 0.92328 0.0
H1347 H 0.6565 0.08103 0.04393 0.0
H1348 H 0.66872 0.0662 0.04622 0.0
H1349 H 0.64193 0.05494 0.03814 0.0
C1350 C 0.5539 0.0189 0.54014 0.0
C1351 C 0.56405 0.03962 0.54273 0.0
C1352 C 0.56434 0.0081 0.54398 0.0
C1353 C 0.58543 0.01813 0.55084 0.0
C1354 C 0.59563 0.03902 0.55342 0.0
C1355 C 0.58494 0.04935 0.54937 0.0
C1356 C 0.55247 0.98589 0.5413 0.0
C1357 C 0.61801 0.05061 0.56054 0.0
C1358 C 0.61337 0.99487 0.58566 0.0
C1359 C 0.62543 0.99358 0.56574 0.0
C1360 C 0.5992 1.0014 0.58079 0.0
C1361 C 0.59725 0.00733 0.55543 0.0
C1362 C 0.60894 1.00542 0.53512 0.0
C1363 C 0.623 0.99884 0.54055 0.0
C1364 C 0.58692 1.00275 0.60303 0.0
C1365 C 0.60718 0.0111 0.50773 0.0
H1366 H 0.53781 0.01109 0.53514 0.0
H1367 H 0.59319 0.06533 0.55149 0.0
H1368 H 0.56232 0.98005 0.53413 0.0
H1369 H 0.54619 0.97914 0.56058 0.0
H1370 H 0.53934 0.9812 0.52805 0.0
H1371 H 0.62379 0.0668 0.56177 0.0
H1372 H 0.62033 0.04526 0.57947 0.0
H1373 H 0.62744 0.04821 0.54598 0.0
H1374 H 0.61553 0.9914 0.6053 0.0
H1375 H 0.63238 0.99811 0.52508 0.0
H1376 H 0.5704 0.9951 0.59816 0.0
H1377 H 0.59182 0.01854 0.60659 0.0
H1378 H 0.58881 0.99605 0.62111 0.0
H1379 H 0.59081 1.00374 0.50215 0.0
H1380 H 0.61566 0.00699 0.49375 0.0
H1381 H 0.61338 0.02737 0.50631 0.0
C1382 C 0.02531 0.60707 0.56229 0.0
C1383 C 0.03883 0.6052 0.54528 0.0
C1384 C 0.02855 0.62604 0.56901 0.0
C1385 C 0.04545 0.64344 0.55808 0.0
C1386 C 0.05857 0.64144 0.54015 0.0
C1387 C 0.05519 0.62249 0.53418 0.0
C1388 C 0.01428 0.6275 0.58833 0.0
C1389 C 0.0765 0.6594 0.52753 0.0
C1390 C 0.04777 0.69368 0.55674 0.0
C1391 C 0.06194 0.70402 0.57622 0.0
C1392 C 0.04179 0.67383 0.55116 0.0
C1393 C 0.04996 0.66385 0.56555 0.0
C1394 C 0.06401 0.67411 0.58554 0.0
C1395 C 0.0699 0.69405 0.59053 0.0
C1396 C 0.02707 0.66367 0.52941 0.0
C1397 C 0.07308 0.66409 0.60145 0.0
H1398 H 0.0127 0.59382 0.57101 0.0
H1399 H 0.06558 0.62123 0.52071 0.0
H1400 H 0.02296 0.63528 0.60577 0.0
H1401 H 0.00785 0.63642 0.58008 0.0
H1402 H 1.00142 0.61269 0.5943 0.0
H1403 H 0.08468 0.65528 0.51307 0.0
H1404 H 0.07115 0.66872 0.51777 0.0
H1405 H 0.0876 0.66864 0.54245 0.0
H1406 H 0.04143 0.70118 0.54563 0.0
H1407 H 0.08066 0.70178 0.6058 0.0
H1408 H 0.01386 0.64945 0.53637 0.0
H1409 H 0.03488 0.66009 0.51385 0.0
H1410 H 0.02118 0.67303 0.52102 0.0
H1411 H 0.06068 0.64983 0.60964 0.0
H1412 H 0.08251 0.6735 0.61754 0.0
H1413 H 0.08288 0.66061 0.58896 0.0
C1414 C 0.44957 0.50817 0.52489 0.0
C1415 C 0.45251 0.52746 0.52372 0.0
C1416 C 0.43001 0.49174 0.52898 0.0
C1417 C 0.41307 0.49472 0.5323 0.0
C1418 C 0.41565 0.51385 0.52815 0.0
C1419 C 0.43541 0.53005 0.52415 0.0
C1420 C 0.42783 0.47143 0.53201 0.0
C1421 C 0.39805 0.5178 0.52977 0.0
C1422 C 0.36094 0.44869 0.54315 0.0
C1423 C 0.36068 0.44661 0.57008 0.0
C1424 C 0.37758 0.46473 0.53039 0.0
C1425 C 0.39418 0.47886 0.54506 0.0
C1426 C 0.39371 0.47688 0.57233 0.0
C1427 C 0.37717 0.46049 0.58442 0.0
C1428 C 0.37778 0.46614 0.50129 0.0
C1429 C 0.41103 0.49173 0.58873 0.0
H1430 H 0.46264 0.50592 0.52429 0.0
H1431 H 0.43751 0.54485 0.52223 0.0
H1432 H 0.42652 0.46743 0.55285 0.0
H1433 H 0.41374 0.46 0.5225 0.0
H1434 H 0.44127 0.47099 0.52372 0.0
H1435 H 0.40001 0.52923 0.51523 0.0
H1436 H 0.38305 0.50426 0.52674 0.0
H1437 H 0.39807 0.52381 0.54908 0.0
H1438 H 0.34828 0.43759 0.5321 0.0
H1439 H 0.37733 0.45829 0.6051 0.0
H1440 H 0.39016 0.46384 0.4933 0.0
H1441 H 0.38115 0.48114 0.49495 0.0
H1442 H 0.36296 0.45493 0.49292 0.0
H1443 H 0.42526 0.4913 0.58432 0.0
H1444 H 0.40762 0.48873 0.60973 0.0
H1445 H 0.41412 0.50696 0.58421 0.0
C1446 C 0.7536 0.86076 0.34828 0.0
C1447 C 0.73567 0.85939 0.35874 0.0
C1448 C 0.758 0.84536 0.35198 0.0
C1449 C 0.74416 0.82829 0.36655 0.0
C1450 C 0.72649 0.82724 0.37803 0.0
C1451 C 0.72247 0.84279 0.37396 0.0
C1452 C 0.77697 0.84698 0.33943 0.0
C1453 C 0.71144 0.80937 0.39392 0.0
C1454 C 0.73739 0.77743 0.35503 0.0
C1455 C 0.74649 0.77463 0.37704 0.0
C1456 C 0.73764 0.79535 0.35054 0.0
C1457 C 0.74719 0.81086 0.36853 0.0
C1458 C 0.75758 0.80866 0.38985 0.0
C1459 C 0.75715 0.79057 0.39384 0.0
C1460 C 0.72655 0.79719 0.32742 0.0
C1461 C 0.76801 0.82491 0.40938 0.0
H1462 H 0.76376 0.8735 0.33633 0.0
H1463 H 0.7088 0.84187 0.38243 0.0
H1464 H 0.78575 0.84356 0.35369 0.0
H1465 H 0.77243 0.83593 0.32383 0.0
H1466 H 0.78719 0.86198 0.33097 0.0
H1467 H 0.69909 0.81138 0.40271 0.0
H1468 H 0.70425 0.79607 0.38154 0.0
H1469 H 0.71952 0.80634 0.40959 0.0
H1470 H 0.72929 0.76531 0.34176 0.0
H1471 H 0.7643 0.78863 0.41086 0.0
H1472 H 0.73638 0.81135 0.31682 0.0
H1473 H 0.71256 0.79735 0.33403 0.0
H1474 H 0.72189 0.78472 0.31382 0.0
H1475 H 0.77769 0.83945 0.39954 0.0
H1476 H 0.77772 0.822 0.42275 0.0
H1477 H 0.75621 0.82609 0.42099 0.0
C1478 C 0.22538 0.97646 0.3798 0.0
C1479 C 0.22518 0.95855 0.38461 0.0
C1480 C 0.24251 0.99494 0.38587 0.0
C1481 C 0.25992 0.99568 0.39739 0.0
C1482 C 0.25969 0.97763 0.40263 0.0
C1483 C 0.24246 0.95937 0.39604 0.0
C1484 C 0.24213 0.01373 0.37952 0.0
C1485 C 0.27772 0.9776 0.41518 0.0
C1486 C 0.31228 0.04295 0.39054 0.0
C1487 C 0.31425 0.05225 0.41438 0.0
C1488 C 0.29469 0.02477 0.38472 0.0
C1489 C 0.27857 0.01531 0.40325 0.0
C1490 C 0.28041 0.02458 0.42735 0.0
C1491 C 0.2981 0.04294 0.43255 0.0
C1492 C 0.29337 0.01566 0.35865 0.0
C1493 C 0.26378 0.01497 0.44782 0.0
H1494 H 0.21227 0.97606 0.37071 0.0
H1495 H 0.2424 0.94566 0.40014 0.0
H1496 H 0.24469 0.02256 0.39723 0.0
H1497 H 0.25476 0.02302 0.3657 0.0
H1498 H 0.22736 0.01068 0.37093 0.0
H1499 H 0.27491 0.96234 0.41885 0.0
H1500 H 0.29157 0.98566 0.40262 0.0
H1501 H 0.28115 0.98553 0.4338 0.0
H1502 H 0.32453 0.04993 0.37623 0.0
H1503 H 0.2994 0.04983 0.45108 0.0
H1504 H 0.27934 0.01326 0.34863 0.0
H1505 H 0.29217 1.00094 0.36116 0.0
H1506 H 0.30691 0.0251 0.34608 0.0
H1507 H 0.24904 0.0127 0.44019 0.0
H1508 H 0.26747 0.024 0.46557 0.0
H1509 H 0.26146 1.00012 0.45311 0.0
C1510 C 0.12634 0.36818 0.39923 0.0
C1511 C 0.12587 0.36283 0.37333 0.0
C1512 C 0.10924 0.36768 0.41119 0.0
C1513 C 0.09077 0.36084 0.39738 0.0
C1514 C 0.08989 0.35447 0.37158 0.0
C1515 C 0.10749 0.3558 0.35978 0.0
C1516 C 0.11127 0.37463 0.4386 0.0
C1517 C 0.07046 0.34668 0.35621 0.0
C1518 C 0.03982 0.34328 0.43306 0.0
C1519 C 0.03635 0.35921 0.42893 0.0
C1520 C 0.05772 0.34385 0.42369 0.0
C1521 C 0.07248 0.36069 0.40949 0.0
C1522 C 0.0693 0.37707 0.4059 0.0
C1523 C 0.05114 0.37602 0.41534 0.0
C1524 C 0.06056 0.32621 0.42842 0.0
C1525 C 0.08502 0.39564 0.39185 0.0
H1526 H 0.14045 0.37374 0.40991 0.0
H1527 H 0.10697 0.35167 0.33973 0.0
H1528 H 0.10196 0.38179 0.44238 0.0
H1529 H 0.10593 0.36156 0.45166 0.0
H1530 H 0.12749 0.38531 0.44333 0.0
H1531 H 0.07189 0.34126 0.33694 0.0
H1532 H 0.05748 0.33433 0.36698 0.0
H1533 H 0.06659 0.35858 0.3534 0.0
H1534 H 0.02815 0.33002 0.44294 0.0
H1535 H 0.04844 0.3883 0.41197 0.0
H1536 H 0.07503 0.33093 0.43894 0.0
H1537 H 0.06184 0.32004 0.40969 0.0
H1538 H 0.04768 0.31428 0.43988 0.0
H1539 H 0.10022 0.40142 0.401 0.0
H1540 H 0.08085 0.40748 0.39188 0.0
H1541 H 0.08664 0.39215 0.37152 0.0
C1542 C 0.11943 0.36327 0.82673 0.0
C1543 C 0.12289 0.36785 0.85302 0.0
C1544 C 0.10411 0.36496 0.81316 0.0
C1545 C 0.09235 0.37225 0.82568 0.0
C1546 C 0.09589 0.37696 0.85228 0.0
C1547 C 0.11078 0.37442 0.86563 0.0
C1548 C 0.10119 0.3594 0.78517 0.0
C1549 C 0.0843 0.38523 0.86658 0.0
C1550 C 0.06745 0.39689 0.78656 0.0
C1551 C 0.04651 0.38256 0.78795 0.0
C1552 C 0.08251 0.39351 0.79792 0.0
C1553 C 0.07665 0.37535 0.81123 0.0
C1554 C 0.05554 0.36057 0.81183 0.0
C1555 C 0.04077 0.36448 0.80069 0.0
C1556 C 0.1047 0.40964 0.79624 0.0
C1557 C 0.04854 0.3406 0.82442 0.0
H1558 H 0.12867 0.35826 0.81667 0.0
H1559 H 0.11343 0.37828 0.88585 0.0
H1560 H 0.0853 0.35434 0.77903 0.0
H1561 H 0.11195 0.37261 0.77349 0.0
H1562 H 0.10483 0.34746 0.78122 0.0
H1563 H 0.08902 0.38851 0.88705 0.0
H1564 H 0.08691 0.3991 0.85686 0.0
H1565 H 0.06759 0.37452 0.86615 0.0
H1566 H 0.07202 0.41106 0.77726 0.0
H1567 H 0.02464 0.35335 0.80196 0.0
H1568 H 0.11391 0.4039 0.78669 0.0
H1569 H 0.11082 0.41425 0.81597 0.0
H1570 H 0.10684 0.42288 0.7852 0.0
H1571 H 0.05737 0.33393 0.81625 0.0
H1572 H 0.03191 0.33017 0.82166 0.0
H1573 H 0.05158 0.3424 0.84544 0.0
C1574 C 0.70435 0.80408 0.79015 0.0
C1575 C 0.69103 0.80883 0.80342 0.0
C1576 C 0.69981 0.78429 0.78775 0.0
C1577 C 0.68156 0.76874 0.79904 0.0
C1578 C 0.66811 0.77338 0.81264 0.0
C1579 C 0.67296 0.79329 0.81459 0.0
C1580 C 0.71461 0.78003 0.77312 0.0
C1581 C 0.64854 0.75727 0.82506 0.0
C1582 C 0.66141 0.71642 0.77346 0.0
C1583 C 0.66873 0.70811 0.79179 0.0
C1584 C 0.66526 0.73602 0.77572 0.0
C1585 C 0.67669 0.74766 0.79684 0.0
C1586 C 0.68386 0.73929 0.81559 0.0
C1587 C 0.67983 0.7197 0.81284 0.0
C1588 C 0.65736 0.74438 0.75528 0.0
C1589 C 0.69603 0.75113 0.83846 0.0
H1590 H 0.71849 0.81585 0.78176 0.0
H1591 H 0.66235 0.79659 0.82458 0.0
H1592 H 0.7203 0.77243 0.78604 0.0
H1593 H 0.70663 0.76988 0.75694 0.0
H1594 H 0.72799 0.79374 0.76514 0.0
H1595 H 0.6398 0.76331 0.83518 0.0
H1596 H 0.63859 0.74676 0.81018 0.0
H1597 H 0.6521 0.74865 0.83921 0.0
H1598 H 0.65285 0.7077 0.7571 0.0
H1599 H 0.68561 0.71355 0.82718 0.0
H1600 H 0.67044 0.75736 0.74555 0.0
H1601 H 0.64759 0.74968 0.76431 0.0
H1602 H 0.6483 0.73328 0.74041 0.0
H1603 H 0.71042 0.76437 0.83163 0.0
H1604 H 0.70004 0.74232 0.85172 0.0
H1605 H 0.68715 0.75657 0.8495 0.0
C1606 C 0.27453 0.92135 0.84433 0.0
C1607 C 0.25772 0.91229 0.82789 0.0
C1608 C 0.29385 0.93609 0.83485 0.0
C1609 C 0.2961 0.94216 0.80852 0.0
C1610 C 0.27956 0.93158 0.79155 0.0
C1611 C 0.26061 0.9167 0.80143 0.0
C1612 C 0.31117 0.94659 0.85356 0.0
C1613 C 0.281 0.93748 0.76356 0.0
C1614 C 0.33124 0.99767 0.79778 0.0
C1615 C 0.34896 0.99862 0.78755 0.0
C1616 C 0.31373 0.97934 0.80368 0.0
C1617 C 0.31415 0.96149 0.79998 0.0
C1618 C 0.33195 0.96238 0.78911 0.0
C1619 C 0.34919 0.98097 0.78311 0.0
C1620 C 0.29492 0.97914 0.81451 0.0
C1621 C 0.33311 0.9438 0.78482 0.0
H1622 H 0.27214 0.91829 0.86493 0.0
H1623 H 0.24742 0.91003 0.78887 0.0
H1624 H 0.31302 0.96132 0.85807 0.0
H1625 H 0.30823 0.93804 0.87194 0.0
H1626 H 0.32584 0.94912 0.84491 0.0
H1627 H 0.26867 0.92563 0.75197 0.0
H1628 H 0.27964 0.951 0.76204 0.0
H1629 H 0.29604 0.94092 0.75537 0.0
H1630 H 0.33118 0.01136 0.80144 0.0
H1631 H 0.36313 0.98175 0.77585 0.0
H1632 H 0.29188 0.97312 0.83459 0.0
H1633 H 0.28129 0.9693 0.80292 0.0
H1634 H 0.29665 0.99419 0.8147 0.0
H1635 H 0.33331 0.93714 0.80378 0.0
H1636 H 0.34707 0.94686 0.7736 0.0
H1637 H 0.31941 0.93263 0.77443 0.0
C1638 C 0.68092 0.95926 0.32494 0.0
C1639 C 0.6913 0.95659 0.30402 0.0
C1640 C 0.67625 0.97464 0.32478 0.0
C1641 C 0.68227 0.98785 0.3033 0.0
C1642 C 0.6927 0.98526 0.28214 0.0
C1643 C 0.69698 0.96964 0.2827 0.0
C1644 C 0.66501 0.97686 0.34766 0.0
C1645 C 0.69948 0.99909 0.2589 0.0
C1646 C 0.65761 0.01914 0.28835 0.0
C1647 C 0.67257 0.03787 0.29692 0.0
C1648 C 0.6601 1.00249 0.29137 0.0
C1649 C 0.67809 1.00468 0.30299 0.0
C1650 C 0.69284 0.02338 0.31263 0.0
C1651 C 0.68985 0.03971 0.30959 0.0
C1652 C 0.64389 0.98273 0.28118 0.0
C1653 C 0.71228 0.02638 0.32501 0.0
H1654 H 0.67668 0.94951 0.3417 0.0
H1655 H 0.70467 0.9676 0.26625 0.0
H1656 H 0.67476 0.99141 0.35685 0.0
H1657 H 0.65086 0.9766 0.34117 0.0
H1658 H 0.66073 0.96493 0.36244 0.0
H1659 H 0.70751 0.9951 0.24406 0.0
H1660 H 0.686 0.9988 0.2499 0.0
H1661 H 0.70996 0.01456 0.265 0.0
H1662 H 0.64418 0.01758 0.27863 0.0
H1663 H 0.70151 0.05414 0.31624 0.0
H1664 H 0.63937 0.97095 0.29619 0.0
H1665 H 0.65018 0.97859 0.26443 0.0
H1666 H 0.62996 0.98306 0.27493 0.0
H1667 H 0.7086 0.01523 0.34068 0.0
H1668 H 0.72148 0.04145 0.33316 0.0
H1669 H 0.72184 0.02421 0.31041 0.0
C1670 C 0.10175 0.81495 0.29436 0.0
C1671 C 0.1159 0.81992 0.31442 0.0
C1672 C 0.08831 0.79502 0.28786 0.0
C1673 C 0.08884 0.7795 0.30178 0.0
C1674 C 0.10307 0.78439 0.32206 0.0
C1675 C 0.11639 0.80446 0.32808 0.0
C1676 C 0.07348 0.79057 0.26606 0.0
C1677 C 0.10411 0.76839 0.33757 0.0
C1678 C 0.04073 0.72813 0.30069 0.0
C1679 C 0.04589 0.71828 0.28202 0.0
C1680 C 0.05462 0.74785 0.30754 0.0
C1681 C 0.07424 0.75818 0.29542 0.0
C1682 C 0.07967 0.74822 0.27684 0.0
C1683 C 0.06548 0.72844 0.2704 0.0
C1684 C 0.04816 0.75776 0.32753 0.0
C1685 C 0.10038 0.7586 0.26342 0.0
H1686 H 0.10135 0.82669 0.28344 0.0
H1687 H 0.12698 0.80801 0.34385 0.0
H1688 H 0.07598 0.78186 0.25105 0.0
H1689 H 0.05749 0.78138 0.27337 0.0
H1690 H 0.07512 0.80427 0.25689 0.0
H1691 H 0.11621 0.7746 0.35246 0.0
H1692 H 0.08911 0.75867 0.34732 0.0
H1693 H 0.10721 0.7589 0.32457 0.0
H1694 H 0.02568 0.72047 0.30984 0.0
H1695 H 0.06964 0.72103 0.25593 0.0
H1696 H 0.04805 0.77076 0.31871 0.0
H1697 H 0.05934 0.76334 0.34348 0.0
H1698 H 0.03266 0.74754 0.3358 0.0
H1699 H 0.10219 0.77168 0.25236 0.0
H1700 H 0.1025 0.74871 0.24994 0.0
H1701 H 0.11275 0.76415 0.2779 0.0
C1702 C 0.24984 0.38859 0.3416 0.0
C1703 C 0.2483 0.4046 0.35129 0.0
C1704 C 0.26923 0.38997 0.33825 0.0
C1705 C 0.28744 0.40778 0.34463 0.0
C1706 C 0.28561 0.4233 0.35614 0.0
C1707 C 0.26627 0.42159 0.35899 0.0
C1708 C 0.27023 0.37241 0.32787 0.0
C1709 C 0.30377 0.44215 0.36536 0.0
C1710 C 0.34097 0.41372 0.35065 0.0
C1711 C 0.34958 0.42121 0.3261 0.0
C1712 C 0.32049 0.40839 0.35665 0.0
C1713 C 0.30833 0.41086 0.33779 0.0
C1714 C 0.31686 0.41798 0.31279 0.0
C1715 C 0.33711 0.42252 0.30712 0.0
C1716 C 0.31204 0.40061 0.3834 0.0
C1717 C 0.30475 0.42123 0.29214 0.0
H1718 H 0.23602 0.37522 0.33609 0.0
H1719 H 0.26534 0.43387 0.36735 0.0
H1720 H 0.28052 0.36934 0.33988 0.0
H1721 H 0.25485 0.35884 0.32742 0.0
H1722 H 0.27672 0.37575 0.30795 0.0
H1723 H 0.30107 0.4448 0.3857 0.0
H1724 H 0.3184 0.44206 0.36438 0.0
H1725 H 0.30515 0.4548 0.3537 0.0
H1726 H 0.35029 0.41206 0.36523 0.0
H1727 H 0.34314 0.42695 0.28764 0.0
H1728 H 0.29655 0.38726 0.3823 0.0
H1729 H 0.31044 0.41207 0.39412 0.0
H1730 H 0.32217 0.39676 0.39455 0.0
H1731 H 0.29032 0.40722 0.28844 0.0
H1732 H 0.31346 0.42665 0.27362 0.0
H1733 H 0.30042 0.43217 0.29887 0.0
C1734 C 0.20902 0.33182 0.91643 0.0
C1735 C 0.21172 0.34621 0.89798 0.0
C1736 C 0.22465 0.32729 0.9216 0.0
C1737 C 0.24409 0.33794 0.90871 0.0
C1738 C 0.24696 0.35294 0.89037 0.0
C1739 C 0.23064 0.35643 0.88477 0.0
C1740 C 0.21973 0.3111 0.94125 0.0
C1741 C 0.26736 0.36626 0.87713 0.0
C1742 C 0.28688 0.33426 0.94461 0.0
C1743 C 0.29381 0.32582 0.9261 0.0
C1744 C 0.27144 0.33898 0.93895 0.0
C1745 C 0.26134 0.33374 0.91473 0.0
C1746 C 0.26802 0.32463 0.89624 0.0
C1747 C 0.28478 0.32178 0.90169 0.0
C1748 C 0.26622 0.34972 0.95913 0.0
C1749 C 0.25762 0.31789 0.87053 0.0
H1750 H 0.19456 0.32398 0.927 0.0
H1751 H 0.23315 0.36804 0.87097 0.0
H1752 H 0.23252 0.30827 0.94443 0.0
H1753 H 0.21553 0.31508 0.95998 0.0
H1754 H 0.20611 0.29718 0.93492 0.0
H1755 H 0.27105 0.38197 0.87811 0.0
H1756 H 0.28027 0.3652 0.88558 0.0
H1757 H 0.26621 0.36254 0.85633 0.0
H1758 H 0.29418 0.33797 0.9633 0.0
H1759 H 0.29053 0.31592 0.88694 0.0
H1760 H 0.2539 0.33867 0.97207 0.0
H1761 H 0.26086 0.35937 0.95034 0.0
H1762 H 0.27969 0.35903 0.97132 0.0
H1763 H 0.24085 0.31203 0.87236 0.0
H1764 H 0.2602 0.30622 0.8621 0.0
H1765 H 0.26412 0.33062 0.85673 0.0
C1766 C 0.71414 0.94299 0.89486 0.0
C1767 C 0.72588 0.94451 0.87282 0.0
C1768 C 0.7154 0.95993 0.90616 0.0
C1769 C 0.72877 0.97891 0.89522 0.0
C1770 C 0.74107 0.98063 0.87342 0.0
C1771 C 0.73948 0.96344 0.86249 0.0
C1772 C 0.7021 0.95746 0.92948 0.0
C1773 C 0.75553 1.0006 0.86118 0.0
C1774 C 0.71708 0.02063 0.90614 0.0
C1775 C 0.7311 0.03165 0.92537 0.0
C1776 C 0.71604 1.00336 0.89635 0.0
C1777 C 0.72937 0.99693 0.906 0.0
C1778 C 0.74342 0.00788 0.9256 0.0
C1779 C 0.74411 0.0251 0.93506 0.0
C1780 C 0.70082 0.99208 0.87549 0.0
C1781 C 0.75788 1.00154 0.93637 0.0
H1782 H 0.70384 0.92849 0.90322 0.0
H1783 H 0.74842 0.96483 0.84532 0.0
H1784 H 0.71172 0.96664 0.94557 0.0
H1785 H 0.69127 0.96275 0.92471 0.0
H1786 H 0.69312 0.94177 0.93627 0.0
H1787 H 0.76478 0.99951 0.8451 0.0
H1788 H 0.74666 0.00737 0.85355 0.0
H1789 H 0.76613 0.0108 0.87585 0.0
H1790 H 0.70698 0.02558 0.89853 0.0
H1791 H 0.75501 0.03353 0.9499 0.0
H1792 H 0.6905 0.97649 0.88189 0.0
H1793 H 0.70905 0.99167 0.85783 0.0
H1794 H 0.69129 0.99883 0.87039 0.0
H1795 H 0.74907 0.98614 0.94418 0.0
H1796 H 0.76758 0.01142 0.95196 0.0
H1797 H 0.76806 1.00157 0.92071 0.0
C1798 C 0.12297 0.84314 0.88101 0.0
C1799 C 0.1402 0.84071 0.87924 0.0
C1800 C 0.10368 0.82744 0.88804 0.0
C1801 C 0.10128 0.80866 0.89409 0.0
C1802 C 0.11862 0.80601 0.89279 0.0
C1803 C 0.13796 0.8221 0.8853 0.0
C1804 C 0.08589 0.83114 0.88917 0.0
C1805 C 0.11663 0.78611 0.89883 0.0
C1806 C 0.05285 0.77289 0.93214 0.0
C1807 C 0.03968 0.76173 0.91232 0.0
C1808 C 0.073 0.78816 0.92659 0.0
C1809 C 0.08037 0.79183 0.90067 0.0
C1810 C 0.06715 0.78034 0.88065 0.0
C1811 C 0.04699 0.76547 0.88674 0.0
C1812 C 0.08642 0.80031 0.94845 0.0
C1813 C 0.07425 0.78382 0.85275 0.0
H1814 H 0.12441 0.85744 0.87659 0.0
H1815 H 0.15119 0.82008 0.88394 0.0
H1816 H 0.07273 0.8197 0.87824 0.0
H1817 H 0.08106 0.83018 0.9096 0.0
H1818 H 0.08982 0.846 0.88136 0.0
H1819 H 0.13163 0.78659 0.89778 0.0
H1820 H 0.1099 0.78098 0.91847 0.0
H1821 H 0.10603 0.77494 0.885 0.0
H1822 H 0.04757 0.76931 0.95204 0.0
H1823 H 0.03694 0.7565 0.87146 0.0
H1824 H 0.09104 0.81615 0.94543 0.0
H1825 H 0.10066 0.79939 0.94876 0.0
H1826 H 0.07853 0.79532 0.96756 0.0
H1827 H 0.07795 0.79894 0.84645 0.0
H1828 H 0.06247 0.77289 0.83967 0.0
H1829 H 0.08848 0.78297 0.8506 0.0
C1830 C 0.40165 0.1716 0.71475 0.0
C1831 C 0.38471 0.17411 0.71945 0.0
C1832 C 0.40036 0.15311 0.71887 0.0
C1833 C 0.38168 0.13675 0.72797 0.0
C1834 C 0.36452 0.13917 0.73268 0.0
C1835 C 0.36625 0.15779 0.72841 0.0
C1836 C 0.41901 0.15111 0.71362 0.0
C1837 C 0.34439 0.12215 0.74258 0.0
C1838 C 0.37413 0.08487 0.71996 0.0
C1839 C 0.37985 0.08133 0.74432 0.0
C1840 C 0.37436 0.10272 0.71442 0.0
C1841 C 0.38039 0.11735 0.73371 0.0
C1842 C 0.38552 0.1136 0.75854 0.0
C1843 C 0.38518 0.09569 0.76354 0.0
C1844 C 0.36866 0.10617 0.68775 0.0
C1845 C 0.39189 0.12873 0.77971 0.0
H1846 H 0.41587 0.18403 0.70752 0.0
H1847 H 0.35318 0.15964 0.7325 0.0
H1848 H 0.42373 0.14681 0.73169 0.0
H1849 H 0.41526 0.13916 0.69949 0.0
H1850 H 0.4322 0.1651 0.70594 0.0
H1851 H 0.33227 0.12628 0.74432 0.0
H1852 H 0.33895 0.10934 0.72944 0.0
H1853 H 0.34655 0.11713 0.76183 0.0
H1854 H 0.37003 0.07393 0.70495 0.0
H1855 H 0.38951 0.09313 0.78249 0.0
H1856 H 0.38207 0.11901 0.67832 0.0
H1857 H 0.35623 0.10987 0.68907 0.0
H1858 H 0.3635 0.09302 0.67525 0.0
H1859 H 0.40609 0.14253 0.77376 0.0
H1860 H 0.39476 0.12327 0.79823 0.0
H1861 H 0.37982 0.13272 0.78307 0.0
C1862 C 0.8859 0.25987 0.6921 0.0
C1863 C 0.8873 0.2447 0.70519 0.0
C1864 C 0.90029 0.28019 0.69648 0.0
C1865 C 0.91643 0.2855 0.71439 0.0
C1866 C 0.91709 0.27016 0.72857 0.0
C1867 C 0.90268 0.25017 0.72376 0.0
C1868 C 0.89884 0.29591 0.68094 0.0
C1869 C 0.93375 0.27479 0.74794 0.0
C1870 C 0.96898 0.33275 0.70689 0.0
C1871 C 0.96872 0.34487 0.72679 0.0
C1872 C 0.95183 0.31396 0.70193 0.0
C1873 C 0.93364 0.30675 0.71714 0.0
C1874 C 0.93296 0.31915 0.73663 0.0
C1875 C 0.9504 0.33794 0.74124 0.0
C1876 C 0.95349 0.30145 0.68094 0.0
C1877 C 0.914 0.31229 0.75329 0.0
H1878 H 0.87435 0.2559 0.67741 0.0
H1879 H 0.90397 0.23861 0.734 0.0
H1880 H 0.90048 0.30804 0.69362 0.0
H1881 H 0.91156 0.30255 0.66647 0.0
H1882 H 0.88407 0.28978 0.67058 0.0
H1883 H 0.93132 0.26135 0.75871 0.0
H1884 H 0.94885 0.28148 0.7378 0.0
H1885 H 0.9345 0.28579 0.76204 0.0
H1886 H 0.98286 0.33774 0.69542 0.0
H1887 H 0.94979 0.347 0.75661 0.0
H1888 H 0.94037 0.29626 0.66763 0.0
H1889 H 0.95286 0.28807 0.68971 0.0
H1890 H 0.96798 0.30966 0.6695 0.0
H1891 H 0.9002 0.30673 0.74107 0.0
H1892 H 0.91496 0.32433 0.76566 0.0
H1893 H 0.91185 0.29979 0.76596 0.0
C1894 C 0.80144 0.69016 0.73488 0.0
C1895 C 0.80525 0.68795 0.709 0.0
C1896 C 0.78141 0.68288 0.7443 0.0
C1897 C 0.76461 0.6732 0.72744 0.0
C1898 C 0.76831 0.66947 0.7017 0.0
C1899 C 0.78867 0.67699 0.69271 0.0
C1900 C 0.77846 0.68719 0.77172 0.0
C1901 C 0.75093 0.65902 0.68306 0.0
C1902 C 0.70957 0.64894 0.75431 0.0
C1903 C 0.70459 0.66379 0.74944 0.0
C1904 C 0.72911 0.65179 0.74771 0.0
C1905 C 0.74388 0.66981 0.73554 0.0
C1906 C 0.73889 0.68492 0.73096 0.0
C1907 C 0.71929 0.68163 0.73772 0.0
C1908 C 0.7337 0.63532 0.75308 0.0
C1909 C 0.75417 0.70451 0.71848 0.0
H1910 H 0.81432 0.6989 0.74735 0.0
H1911 H 0.79164 0.67565 0.6725 0.0
H1912 H 0.7662 0.67356 0.78119 0.0
H1913 H 0.79266 0.69278 0.78319 0.0
H1914 H 0.77368 0.69858 0.7717 0.0
H1915 H 0.75588 0.65464 0.66522 0.0
H1916 H 0.73806 0.64558 0.69229 0.0
H1917 H 0.74503 0.66905 0.67752 0.0
H1918 H 0.69797 0.63486 0.76257 0.0
H1919 H 0.71534 0.693 0.73359 0.0
H1920 H 0.74814 0.64102 0.76402 0.0
H1921 H 0.73595 0.62956 0.73455 0.0
H1922 H 0.72115 0.62285 0.76428 0.0
H1923 H 0.76842 0.71175 0.72994 0.0
H1924 H 0.74807 0.71485 0.71677 0.0
H1925 H 0.75841 0.70197 0.69887 0.0
C1926 C 0.78124 0.71112 0.11227 0.0
C1927 C 0.79286 0.71688 0.13484 0.0
C1928 C 0.76737 0.71768 0.10627 0.0
C1929 C 0.7647 0.73054 0.12307 0.0
C1930 C 0.77702 0.73708 0.14558 0.0
C1931 C 0.79097 0.73023 0.15119 0.0
C1932 C 0.75543 0.71057 0.08181 0.0
C1933 C 0.77471 0.75052 0.16443 0.0
C1934 C 0.73638 0.75704 0.09696 0.0
C1935 C 0.71599 0.74421 0.105 0.0
C1936 C 0.75233 0.75294 0.10267 0.0
C1937 C 0.74814 0.73588 0.1177 0.0
C1938 C 0.72762 0.72318 0.12644 0.0
C1939 C 0.71196 0.72749 0.12008 0.0
C1940 C 0.77372 0.76688 0.09256 0.0
C1941 C 0.7221 0.70481 0.14238 0.0
H1942 H 0.78253 0.7008 0.0995 0.0
H1943 H 0.79949 0.73444 0.16901 0.0
H1944 H 0.76126 0.72336 0.06821 0.0
H1945 H 0.75716 0.69867 0.07247 0.0
H1946 H 0.73889 0.70494 0.08562 0.0
H1947 H 0.78639 0.75561 0.17983 0.0
H1948 H 0.77598 0.76369 0.15418 0.0
H1949 H 0.75923 0.74248 0.17362 0.0
H1950 H 0.73995 0.77053 0.08647 0.0
H1951 H 0.6964 0.71767 0.12694 0.0
H1952 H 0.77888 0.75872 0.07992 0.0
H1953 H 0.78455 0.77276 0.10885 0.0
H1954 H 0.77462 0.77955 0.08136 0.0
H1955 H 0.72485 0.69439 0.13082 0.0
H1956 H 0.7058 0.69702 0.14896 0.0
H1957 H 0.73204 0.70877 0.15958 0.0
C1958 C 0.35111 0.13988 0.17463 0.0
C1959 C 0.37085 0.15536 0.16796 0.0
C1960 C 0.34531 0.1199 0.17039 0.0
C1961 C 0.35948 0.11518 0.15887 0.0
C1962 C 0.37928 0.13078 0.15157 0.0
C1963 C 0.38476 0.15062 0.15639 0.0
C1964 C 0.32418 0.10379 0.17885 0.0
C1965 C 0.39478 0.12651 0.13889 0.0
C1966 C 0.35369 0.06402 0.17026 0.0
C1967 C 0.34439 0.0541 0.1474 0.0
C1968 C 0.35832 0.08369 0.1744 0.0
C1969 C 0.35384 0.09396 0.1551 0.0
C1970 C 0.34431 0.08402 0.13206 0.0
C1971 C 0.33959 0.06423 0.12857 0.0
C1972 C 0.36819 0.09357 0.19941 0.0
C1973 C 0.33946 0.09442 0.11085 0.0
H1974 H 0.34038 0.14337 0.18396 0.0
H1975 H 0.39996 0.16249 0.15104 0.0
H1976 H 0.31595 0.09426 0.16227 0.0
H1977 H 0.32549 0.09413 0.19372 0.0
H1978 H 0.3148 0.10989 0.187 0.0
H1979 H 0.40917 0.14029 0.13335 0.0
H1980 H 0.39862 0.11765 0.15227 0.0
H1981 H 0.38818 0.11754 0.12134 0.0
H1982 H 0.35743 0.05641 0.18502 0.0
H1983 H 0.33254 0.05684 0.11075 0.0
H1984 H 0.35886 0.09911 0.20912 0.0
H1985 H 0.38357 0.1066 0.19537 0.0
H1986 H 0.36994 0.08335 0.21292 0.0
H1987 H 0.32936 0.09986 0.11846 0.0
H1988 H 0.3318 0.08459 0.09425 0.0
H1989 H 0.35382 0.10758 0.10376 0.0
C1990 C 0.91855 0.27469 0.13633 0.0
C1991 C 0.91624 0.26403 0.1592 0.0
C1992 C 0.93762 0.29073 0.1288 0.0
C1993 C 0.95489 0.29647 0.14466 0.0
C1994 C 0.95265 0.28567 0.16786 0.0
C1995 C 0.93337 0.26936 0.17469 0.0
C1996 C 0.93922 0.30125 0.10361 0.0
C1997 C 0.97039 0.29183 0.18596 0.0
C1998 C 0.00904 0.32829 0.11713 0.0
C1999 C 0.0132 0.34748 0.12304 0.0
C2000 C 0.98996 0.31159 0.12343 0.0
C2001 C 0.97509 0.31406 0.13727 0.0
C2002 C 0.97951 0.33341 0.14403 0.0
C2003 C 0.99844 0.34988 0.13666 0.0
C2004 C 0.98573 0.2913 0.11537 0.0
C2005 C 0.96432 0.33671 0.15935 0.0
H2006 H 0.90532 0.2705 0.12426 0.0
H2007 H 0.93151 0.26133 0.19266 0.0
H2008 H 0.94751 0.29708 0.08955 0.0
H2009 H 0.92396 0.29707 0.09559 0.0
H2010 H 0.94802 0.31758 0.10582 0.0
H2011 H 0.96615 0.28187 0.2032 0.0
H2012 H 0.98344 0.29187 0.17577 0.0
H2013 H 0.97585 0.3072 0.19254 0.0
H2014 H 0.02089 0.3263 0.10801 0.0
H2015 H 1.00186 0.36469 0.14188 0.0
H2016 H 0.97198 0.28436 0.10298 0.0
H2017 H 0.98232 0.28149 0.13258 0.0
H2018 H 0.99887 0.29189 0.10461 0.0
H2019 H 0.95009 0.33164 0.14815 0.0
H2020 H 0.97052 0.35256 0.16422 0.0
H2021 H 0.96002 0.32779 0.17755 0.0
C2022 C 0.35343 0.29421 0.6737 0.0
C2023 C 0.36811 0.29237 0.65895 0.0
C2024 C 0.34723 0.30789 0.66675 0.0
C2025 C 0.3558 0.31996 0.64436 0.0
C2026 C 0.37065 0.31822 0.62939 0.0
C2027 C 0.3767 0.30451 0.63694 0.0
C2028 C 0.33156 0.30947 0.68344 0.0
C2029 C 0.38003 0.33072 0.60528 0.0
C2030 C 0.32626 0.34286 0.61416 0.0
C2031 C 0.33698 0.36232 0.62335 0.0
C2032 C 0.33232 0.32896 0.62063 0.0
C2033 C 0.3494 0.33461 0.63685 0.0
C2034 C 0.36023 0.35422 0.64621 0.0
C2035 C 0.35395 0.36784 0.63928 0.0
C2036 C 0.32045 0.30821 0.61014 0.0
C2037 C 0.37841 0.3608 0.66372 0.0
H2038 H 0.34695 0.28506 0.69092 0.0
H2039 H 0.38785 0.30298 0.6253 0.0
H2040 H 0.33812 0.32482 0.69068 0.0
H2041 H 0.31796 0.30631 0.67183 0.0
H2042 H 0.32642 0.29904 0.70026 0.0
H2043 H 0.39125 0.32746 0.59566 0.0
H2044 H 0.3678 0.32808 0.59137 0.0
H2045 H 0.38793 0.3467 0.61013 0.0
H2046 H 0.31317 0.3385 0.60179 0.0
H2047 H 0.3623 0.38284 0.64652 0.0
H2048 H 0.31384 0.29728 0.62632 0.0
H2049 H 0.3309 0.30472 0.59903 0.0
H2050 H 0.3078 0.30627 0.59737 0.0
H2051 H 0.37368 0.35143 0.68152 0.0
H2052 H 0.38519 0.37658 0.66934 0.0
H2053 H 0.39045 0.35886 0.65395 0.0
C2054 C 0.79139 0.11349 0.66948 0.0
C2055 C 0.79604 0.13178 0.65807 0.0
C2056 C 0.77422 0.09546 0.66217 0.0
C2057 C 0.76119 0.09535 0.64246 0.0
C2058 C 0.7653 0.11387 0.63148 0.0
C2059 C 0.78257 0.13186 0.6395 0.0
C2060 C 0.77053 0.07639 0.6749 0.0
C2061 C 0.75199 0.11459 0.61037 0.0
C2062 C 0.73296 0.04659 0.60501 0.0
C2063 C 0.71318 0.03719 0.61623 0.0
C2064 C 0.74838 0.06562 0.61279 0.0
C2065 C 0.74421 0.07574 0.63254 0.0
C2066 C 0.72424 0.06637 0.64389 0.0
C2067 C 0.70903 0.04736 0.63558 0.0
C2068 C 0.76929 0.07484 0.59997 0.0
C2069 C 0.719 0.07631 0.66514 0.0
H2070 H 0.80162 0.1132 0.68391 0.0
H2071 H 0.78611 0.1458 0.63029 0.0
H2072 H 0.75446 0.06768 0.68213 0.0
H2073 H 0.77285 0.06717 0.66053 0.0
H2074 H 0.78099 0.07907 0.69131 0.0
H2075 H 0.756 0.13004 0.60532 0.0
H2076 H 0.7538 0.10749 0.59281 0.0
H2077 H 0.73559 0.1061 0.61633 0.0
H2078 H 0.73643 0.03909 0.58993 0.0
H2079 H 0.69386 0.04041 0.64438 0.0
H2080 H 0.78092 0.07674 0.61444 0.0
H2081 H 0.7737 0.0898 0.59217 0.0
H2082 H 0.76985 0.06567 0.58398 0.0
H2083 H 0.72871 0.07835 0.68216 0.0
H2084 H 0.70263 0.06757 0.67129 0.0
H2085 H 0.72233 0.09127 0.65864 0.0
C2086 C 0.93986 0.75197 0.65343 0.0
C2087 C 0.92243 0.73297 0.65329 0.0
C2088 C 0.95929 0.75516 0.64665 0.0
C2089 C 0.96173 0.73907 0.6389 0.0
C2090 C 0.94424 0.7197 0.63876 0.0
C2091 C 0.92475 0.71684 0.64606 0.0
C2092 C 0.97705 0.77605 0.64698 0.0
C2093 C 0.94618 0.70206 0.631 0.0
C2094 C 0.01016 0.75269 0.59908 0.0
C2095 C 0.02365 0.7534 0.61811 0.0
C2096 C 0.98991 0.74784 0.60545 0.0
C2097 C 0.98268 0.74281 0.63135 0.0
C2098 C 0.99615 0.74305 0.65052 0.0
C2099 C 0.01641 0.74834 0.64367 0.0
C2100 C 0.97631 0.74822 0.58446 0.0
C2101 C 0.98928 0.73808 0.6784 0.0
H2102 H 0.93845 0.76465 0.65897 0.0
H2103 H 0.91141 0.70208 0.64597 0.0
H2104 H 0.99096 0.77659 0.65489 0.0
H2105 H 0.98029 0.78172 0.6268 0.0
H2106 H 0.97362 0.78607 0.65848 0.0
H2107 H 0.93123 0.68799 0.63195 0.0
H2108 H 0.95247 0.70429 0.61101 0.0
H2109 H 0.95714 0.70064 0.64384 0.0
H2110 H 0.01533 0.75555 0.5791 0.0
H2111 H 0.02665 0.74842 0.65836 0.0
H2112 H 0.97181 0.75946 0.58897 0.0
H2113 H 0.96201 0.73362 0.58357 0.0
H2114 H 0.984 0.75183 0.56517 0.0
H2115 H 0.98593 0.74941 0.68627 0.0
H2116 H 1.00107 0.73754 0.69063 0.0
H2117 H 0.9749 0.72352 0.67987 0.0
C2118 C 0.8751 0.66467 0.1899 0.0
C2119 C 0.87659 0.68342 0.18819 0.0
C2120 C 0.89108 0.66214 0.19928 0.0
C2121 C 0.90942 0.67866 0.20772 0.0
C2122 C 0.91126 0.69779 0.20612 0.0
C2123 C 0.89484 0.69998 0.19636 0.0
C2124 C 0.88798 0.64148 0.2006 0.0
C2125 C 0.93062 0.71593 0.21453 0.0
C2126 C 0.94315 0.66695 0.25186 0.0
C2127 C 0.95706 0.66635 0.23416 0.0
C2128 C 0.92777 0.67114 0.2437 0.0
C2129 C 0.92663 0.67561 0.21727 0.0
C2130 C 0.94094 0.67538 0.19946 0.0
C2131 C 0.95586 0.67078 0.20809 0.0
C2132 C 0.91273 0.67081 0.26342 0.0
C2133 C 0.94039 0.67982 0.17112 0.0
H2134 H 0.86123 0.6516 0.1838 0.0
H2135 H 0.89631 0.71455 0.19516 0.0
H2136 H 0.90132 0.6411 0.19197 0.0
H2137 H 0.88659 0.63695 0.22117 0.0
H2138 H 0.8739 0.63047 0.19059 0.0
H2139 H 0.9297 0.7297 0.21246 0.0
H2140 H 0.93373 0.71416 0.23501 0.0
H2141 H 0.94385 0.71762 0.20284 0.0
H2142 H 0.94462 0.66464 0.27221 0.0
H2143 H 0.96686 0.67088 0.19434 0.0
H2144 H 0.89691 0.65933 0.25831 0.0
H2145 H 0.91323 0.68531 0.26332 0.0
H2146 H 0.91591 0.66758 0.28326 0.0
H2147 H 0.92579 0.66825 0.16274 0.0
H2148 H 0.95334 0.68033 0.16 0.0
H2149 H 0.94092 0.69425 0.16863 0.0
C2150 C 0.38471 0.2915 0.24874 0.0
C2151 C 0.3959 0.29273 0.22625 0.0
C2152 C 0.38426 0.3082 0.25821 0.0
C2153 C 0.39535 0.32671 0.24502 0.0
C2154 C 0.40671 0.32809 0.22237 0.0
C2155 C 0.40682 0.31114 0.21327 0.0
C2156 C 0.372 0.30606 0.28247 0.0
C2157 C 0.41881 0.34752 0.20772 0.0
C2158 C 0.38171 0.36723 0.25709 0.0
C2159 C 0.39676 0.37933 0.27473 0.0
C2160 C 0.38096 0.35 0.24736 0.0
C2161 C 0.39565 0.34477 0.25536 0.0
C2162 C 0.41086 0.35695 0.27315 0.0
C2163 C 0.4112 0.37399 0.28262 0.0
C2164 C 0.36445 0.33739 0.22849 0.0
C2165 C 0.42689 0.35204 0.28212 0.0
H2166 H 0.37639 0.27748 0.25912 0.0
H2167 H 0.41524 0.31232 0.19567 0.0
H2168 H 0.38232 0.31582 0.29768 0.0
H2169 H 0.36064 0.31087 0.27858 0.0
H2170 H 0.36372 0.29055 0.29006 0.0
H2171 H 0.42671 0.34612 0.19032 0.0
H2172 H 0.40847 0.35308 0.2016 0.0
H2173 H 0.43049 0.35885 0.22048 0.0
H2174 H 0.37048 0.37121 0.2509 0.0
H2175 H 0.42293 0.38322 0.2962 0.0
H2176 H 0.35518 0.32202 0.23627 0.0
H2177 H 0.37155 0.33653 0.21003 0.0
H2178 H 0.35403 0.34333 0.22439 0.0
H2179 H 0.41937 0.33709 0.29139 0.0
H2180 H 0.43763 0.36297 0.29612 0.0
H2181 H 0.43591 0.35165 0.2653 0.0
C2182 C 0.82312 0.15478 0.22548 0.0
C2183 C 0.83515 0.17217 0.23925 0.0
C2184 C 0.80191 0.14311 0.23044 0.0
C2185 C 0.79232 0.14974 0.24836 0.0
C2186 C 0.80469 0.16684 0.26315 0.0
C2187 C 0.82594 0.17752 0.25879 0.0
C2188 C 0.78996 0.12399 0.21591 0.0
C2189 C 0.79601 0.17496 0.28278 0.0
C2190 C 0.7362 0.13196 0.23378 0.0
C2191 C 0.72632 0.12034 0.25569 0.0
C2192 C 0.75775 0.14232 0.23169 0.0
C2193 C 0.76947 0.13937 0.25076 0.0
C2194 C 0.7593 0.12664 0.2722 0.0
C2195 C 0.73792 0.11782 0.2748 0.0
C2196 C 0.76793 0.15673 0.2094 0.0
C2197 C 0.77095 0.12231 0.2924 0.0
H2198 H 0.83023 0.15047 0.2105 0.0
H2199 H 0.83511 0.19095 0.26959 0.0
H2200 H 0.7758 0.11313 0.22646 0.0
H2201 H 0.78564 0.12719 0.19677 0.0
H2202 H 0.79953 0.11703 0.21235 0.0
H2203 H 0.79956 0.19004 0.27645 0.0
H2204 H 0.77926 0.16564 0.2859 0.0
H2205 H 0.80369 0.17663 0.30158 0.0
H2206 H 0.72712 0.13317 0.21852 0.0
H2207 H 0.73012 0.1083 0.2914 0.0
H2208 H 0.75676 0.15878 0.19778 0.0
H2209 H 0.77583 0.15134 0.19644 0.0
H2210 H 0.77971 0.17139 0.21677 0.0
H2211 H 0.78258 0.11946 0.28316 0.0
H2212 H 0.76059 0.10928 0.30477 0.0
H2213 H 0.77913 0.13535 0.30504 0.0
C2214 C 1.00246 0.47862 0.92758 0.0
C2215 C 0.99184 0.48892 0.92312 0.0
C2216 C 1.00581 0.46823 0.9076 0.0
C2217 C 0.99891 0.46854 0.88221 0.0
C2218 C 0.98873 0.47945 0.8775 0.0
C2219 C 0.98509 0.48922 0.89798 0.0
C2220 C 0.01624 0.45645 0.91384 0.0
C2221 C 0.98154 0.48072 0.85078 0.0
C2222 C 0.0214 0.45374 0.82517 0.0
C2223 C 1.00544 0.43451 0.81983 0.0
C2224 C 0.01949 0.46503 0.84519 0.0
C2225 C 1.00142 0.45675 0.86087 0.0
C2226 C 0.98545 0.4372 0.85579 0.0
C2227 C 0.98753 0.4265 0.83525 0.0
C2228 C 0.03672 0.48594 0.84936 0.0
C2229 C 0.96611 0.42748 0.8722 0.0
H2230 H 0.00759 0.4782 0.94696 0.0
H2231 H 0.97712 0.49735 0.89426 0.0
H2232 H 1.0057 0.44052 0.90988 0.0
H2233 H 0.03001 0.46142 0.90128 0.0
H2234 H 0.02098 0.45791 0.93435 0.0
H2235 H 0.9752 0.49091 0.84986 0.0
H2236 H 0.99445 0.48596 0.83666 0.0
H2237 H 0.96949 0.46578 0.84468 0.0
H2238 H 0.03528 0.46011 0.8134 0.0
H2239 H 0.97517 0.4116 0.83154 0.0
H2240 H 0.04266 0.48736 0.86923 0.0
H2241 H 0.03089 0.49648 0.84742 0.0
H2242 H 0.04962 0.49037 0.83538 0.0
H2243 H 0.97003 0.42763 0.89285 0.0
H2244 H 0.95553 0.41188 0.86659 0.0
H2245 H 0.95789 0.43595 0.87043 0.0
C2246 C 0.54827 0.5655 0.91539 0.0
C2247 C 0.53336 0.57051 0.92224 0.0
C2248 C 0.56202 0.57508 0.89459 0.0
C2249 C 0.56104 0.59024 0.88037 0.0
C2250 C 0.5457 0.59503 0.88677 0.0
C2251 C 0.53202 0.58508 0.90752 0.0
C2252 C 0.57801 0.56936 0.88834 0.0
C2253 C 0.54425 0.61126 0.87241 0.0
C2254 C 0.61167 0.62965 0.85056 0.0
C2255 C 0.60972 0.62415 0.8245 0.0
C2256 C 0.59575 0.6191 0.8686 0.0
C2257 C 0.57733 0.60236 0.86062 0.0
C2258 C 0.57497 0.59698 0.8342 0.0
C2259 C 0.59115 0.60805 0.81637 0.0
C2260 C 0.59889 0.62563 0.8964 0.0
C2261 C 0.55563 0.57916 0.82495 0.0
H2262 H 0.54922 0.55407 0.92636 0.0
H2263 H 0.52072 0.58922 0.91277 0.0
H2264 H 0.57776 0.56615 0.86746 0.0
H2265 H 0.5935 0.58193 0.89255 0.0
H2266 H 0.57564 0.55616 0.89968 0.0
H2267 H 0.53042 0.61204 0.87821 0.0
H2268 H 0.55805 0.6258 0.87629 0.0
H2269 H 0.54387 0.60891 0.85127 0.0
H2270 H 0.62587 0.64221 0.85699 0.0
H2271 H 0.58957 0.60364 0.79633 0.0
H2272 H 0.59872 0.61389 0.9089 0.0
H2273 H 0.58618 0.62791 0.90311 0.0
H2274 H 0.61364 0.63961 0.89918 0.0
H2275 H 0.55397 0.5655 0.83421 0.0
H2276 H 0.55566 0.57759 0.80364 0.0
H2277 H 0.542 0.58026 0.83073 0.0
C2278 C 0.50636 0.08678 0.92716 0.0
C2279 C 0.50106 0.07542 0.95012 0.0
C2280 C 0.49259 0.08149 0.9067 0.0
C2281 C 0.47271 0.06474 0.90941 0.0
C2282 C 0.46684 0.05369 0.93289 0.0
C2283 C 0.48113 0.05904 0.95287 0.0
C2284 C 0.49949 0.09367 0.88194 0.0
C2285 C 0.44559 0.03603 0.93676 0.0
C2286 C 0.43417 0.06475 0.86277 0.0
C2287 C 0.43359 0.05183 0.84363 0.0
C2288 C 0.44605 0.0683 0.8849 0.0
C2289 C 0.4581 0.05911 0.88766 0.0
C2290 C 0.45727 0.04571 0.86863 0.0
C2291 C 0.44477 0.04202 0.84694 0.0
C2292 C 0.44609 0.08228 0.90502 0.0
C2293 C 0.47019 0.03591 0.87069 0.0
H2294 H 0.52146 0.09971 0.92495 0.0
H2295 H 0.47676 0.04998 0.97029 0.0
H2296 H 0.49797 0.08401 0.86546 0.0
H2297 H 0.48956 0.10014 0.87797 0.0
H2298 H 0.51566 0.10593 0.88268 0.0
H2299 H 0.44304 0.0297 0.95668 0.0
H2300 H 0.43386 0.04035 0.93281 0.0
H2301 H 0.44313 0.02426 0.9229 0.0
H2302 H 0.42529 0.07215 0.86044 0.0
H2303 H 0.44433 0.03204 0.83214 0.0
H2304 H 0.4614 0.09589 0.90538 0.0
H2305 H 0.44311 0.07524 0.92451 0.0
H2306 H 0.4344 0.08669 0.90119 0.0
H2307 H 0.48669 0.04741 0.86983 0.0
H2308 H 0.46707 0.02518 0.85495 0.0
H2309 H 0.46733 0.02801 0.88954 0.0
C2310 C 0.52006 0.10072 0.63535 0.0
C2311 C 0.51956 0.08424 0.62374 0.0
C2312 C 0.50784 0.09839 0.65726 0.0
C2313 C 0.49479 0.07914 0.66768 0.0
C2314 C 0.49552 0.06271 0.6573 0.0
C2315 C 0.50791 0.06548 0.63551 0.0
C2316 C 0.50771 0.11632 0.66793 0.0
C2317 C 0.48197 0.04193 0.66787 0.0
C2318 C 0.46256 0.06824 0.72934 0.0
C2319 C 0.44335 0.06295 0.719 0.0
C2320 C 0.47988 0.07451 0.71303 0.0
C2321 C 0.47782 0.07551 0.68593 0.0
C2322 C 0.4587 0.07129 0.67569 0.0
C2323 C 0.44179 0.06511 0.6923 0.0
C2324 C 0.50008 0.07912 0.72467 0.0
C2325 C 0.45577 0.07229 0.64695 0.0
H2326 H 0.52903 0.11528 0.62644 0.0
H2327 H 0.50788 0.05278 0.62704 0.0
H2328 H 0.4937 0.11635 0.66146 0.0
H2329 H 0.50734 0.11586 0.68937 0.0
H2330 H 0.5213 0.13039 0.66122 0.0
H2331 H 0.48626 0.03125 0.65993 0.0
H2332 H 0.48279 0.04168 0.68925 0.0
H2333 H 0.46578 0.0368 0.66283 0.0
H2334 H 0.46388 0.06664 0.74995 0.0
H2335 H 0.42708 0.06142 0.68418 0.0
H2336 H 0.51286 0.0929 0.71596 0.0
H2337 H 0.50316 0.06687 0.72052 0.0
H2338 H 0.50006 0.08085 0.74596 0.0
H2339 H 0.46734 0.087 0.63892 0.0
H2340 H 0.44025 0.06972 0.6423 0.0
H2341 H 0.45802 0.06092 0.63702 0.0
C2342 C 0.05294 0.5124 0.61591 0.0
C2343 C 0.03846 0.50993 0.59711 0.0
C2344 C 0.04839 0.49807 0.6357 0.0
C2345 C 0.02882 0.4806 0.63703 0.0
C2346 C 0.01404 0.47811 0.61833 0.0
C2347 C 0.01899 0.49269 0.59875 0.0
C2348 C 0.06475 0.50147 0.65496 0.0
C2349 C 0.99306 0.45976 0.6186 0.0
C2350 C 0.02623 0.43478 0.66917 0.0
C2351 C 0.01861 0.43452 0.69426 0.0
C2352 C 0.02922 0.44935 0.65053 0.0
C2353 C 0.02448 0.46434 0.65666 0.0
C2354 C 0.01627 0.46396 0.68166 0.0
C2355 C 0.01345 0.44913 0.70011 0.0
C2356 C 0.03796 0.44892 0.62432 0.0
C2357 C 0.01084 0.4795 0.68911 0.0
H2358 H 0.06792 0.52564 0.61524 0.0
H2359 H 0.00768 0.49029 0.58431 0.0
H2360 H 0.0588 0.50044 0.67493 0.0
H2361 H 0.06897 0.48976 0.65307 0.0
H2362 H 0.07882 0.51618 0.65219 0.0
H2363 H 0.9828 0.46059 0.60393 0.0
H2364 H 0.99453 0.44652 0.61469 0.0
H2365 H 0.98573 0.45753 0.63797 0.0
H2366 H 0.03027 0.42367 0.66404 0.0
H2367 H 0.00764 0.44929 0.71928 0.0
H2368 H 0.05296 0.46266 0.6212 0.0
H2369 H 0.02761 0.44846 0.60886 0.0
H2370 H 0.04024 0.43594 0.62219 0.0
H2371 H 0.02488 0.49436 0.68874 0.0
H2372 H 1.00368 0.47671 0.70868 0.0
H2373 H 1.00011 0.47994 0.67489 0.0
C2374 C 0.56014 0.57224 0.59811 0.0
C2375 C 0.573 0.57712 0.57622 0.0
C2376 C 0.56821 0.579 0.6228 0.0
C2377 C 0.58968 0.59124 0.6257 0.0
C2378 C 0.60279 0.59569 0.6038 0.0
C2379 C 0.59432 0.58846 0.57943 0.0
C2380 C 0.5537 0.5736 0.64564 0.0
C2381 C 0.62573 0.60886 0.60589 0.0
C2382 C 0.60917 0.62829 0.68065 0.0
C2383 C 0.61668 0.61958 0.69806 0.0
C2384 C 0.6002 0.61913 0.65725 0.0
C2385 C 0.59835 0.60058 0.65114 0.0
C2386 C 0.60533 0.59139 0.66899 0.0
C2387 C 0.61455 0.60107 0.69212 0.0
C2388 C 0.59318 0.62959 0.63874 0.0
C2389 C 0.60334 0.57149 0.66347 0.0
H2390 H 0.54366 0.56343 0.59589 0.0
H2391 H 0.60441 0.59243 0.56267 0.0
H2392 H 0.55877 0.56765 0.66177 0.0
H2393 H 0.55381 0.58708 0.65271 0.0
H2394 H 0.5377 0.56241 0.6407 0.0
H2395 H 0.6339 0.61003 0.58741 0.0
H2396 H 0.62934 0.62399 0.61158 0.0
H2397 H 0.63176 0.60311 0.62114 0.0
H2398 H 0.61081 0.64263 0.68495 0.0
H2399 H 0.62027 0.5942 0.70546 0.0
H2400 H 0.57669 0.61991 0.63446 0.0
H2401 H 0.6018 0.63271 0.62017 0.0
H2402 H 0.59545 0.64382 0.64647 0.0
H2403 H 0.58718 0.5605 0.65904 0.0
H2404 H 0.60835 0.56576 0.67995 0.0
H2405 H 0.61277 0.57274 0.6462 0.0
C2406 C 1.00304 0.56805 0.10731 0.0
C2407 C 0.98577 0.56143 0.09154 0.0
C2408 C 1.00565 0.57972 0.12927 0.0
C2409 C 0.99082 0.58528 0.13554 0.0
C2410 C 0.97363 0.57904 0.1193 0.0
C2411 C 0.97124 0.56711 0.09774 0.0
C2412 C 0.02403 0.58567 0.14615 0.0
C2413 C 0.95758 0.58481 0.12483 0.0
C2414 C 0.98294 0.59699 0.20492 0.0
C2415 C 0.99291 0.61785 0.2047 0.0
C2416 C 0.98284 0.58636 0.18297 0.0
C2417 C 0.99262 0.59668 0.15974 0.0
C2418 C 1.00318 0.61777 0.15953 0.0
C2419 C 1.00335 0.62808 0.18201 0.0
C2420 C 0.97171 0.56396 0.18446 0.0
C2421 C 0.01361 0.62944 0.13521 0.0
H2422 H 0.01429 0.56365 0.10284 0.0
H2423 H 0.95803 0.56239 0.08551 0.0
H2424 H 0.0327 0.60202 0.14834 0.0
H2425 H 0.01884 0.57903 0.16575 0.0
H2426 H 0.03456 0.58082 0.13822 0.0
H2427 H 0.94577 0.57978 0.10959 0.0
H2428 H 0.94982 0.57822 0.1436 0.0
H2429 H 0.96492 0.60117 0.12645 0.0
H2430 H 0.97487 0.58887 0.22231 0.0
H2431 H 0.0109 0.64415 0.18145 0.0
H2432 H 0.98193 0.5584 0.17771 0.0
H2433 H 0.95828 0.55779 0.17153 0.0
H2434 H 0.96622 0.5582 0.20437 0.0
H2435 H 0.02442 0.62491 0.12748 0.0
H2436 H 0.02216 0.6457 0.13848 0.0
H2437 H 1.00195 0.62621 0.12018 0.0
C2438 C 0.46837 0.49543 0.11882 0.0
C2439 C 0.48981 0.50748 0.11836 0.0
C2440 C 0.45759 0.48677 0.14208 0.0
C2441 C 0.46848 0.4903 0.1655 0.0
C2442 C 0.4901 0.50239 0.16511 0.0
C2443 C 0.50046 0.51081 0.14164 0.0
C2444 C 0.43453 0.47395 0.14164 0.0
C2445 C 0.50231 0.50673 0.18961 0.0
C2446 C 0.4401 0.48619 0.22844 0.0
C2447 C 0.43568 0.46753 0.23828 0.0
C2448 C 0.45074 0.4937 0.20491 0.0
C2449 C 0.45722 0.48234 0.19062 0.0
C2450 C 0.45315 0.46363 0.20053 0.0
C2451 C 0.44247 0.45646 0.22426 0.0
C2452 C 0.45488 0.51378 0.19524 0.0
C2453 C 0.45984 0.45109 0.18588 0.0
H2454 H 0.46004 0.49256 0.10094 0.0
H2455 H 0.51696 0.52033 0.14162 0.0
H2456 H 0.42978 0.45911 0.15015 0.0
H2457 H 0.4274 0.48071 0.15364 0.0
H2458 H 0.42841 0.47202 0.12177 0.0
H2459 H 0.51911 0.51573 0.18589 0.0
H2460 H 0.49778 0.51491 0.20315 0.0
H2461 H 0.49894 0.49266 0.19943 0.0
H2462 H 0.43504 0.49498 0.23902 0.0
H2463 H 0.43906 0.442 0.23152 0.0
H2464 H 0.4476 0.51226 0.1762 0.0
H2465 H 0.47162 0.52385 0.19242 0.0
H2466 H 0.44896 0.52083 0.20876 0.0
H2467 H 0.45264 0.44756 0.16659 0.0
H2468 H 0.45566 0.43697 0.19624 0.0
H2469 H 0.4767 0.45947 0.18267 0.0
C2470 C 0.59227 0.09484 0.11655 0.0
C2471 C 0.57419 0.09557 0.12032 0.0
C2472 C 0.60539 0.09754 0.13714 0.0
C2473 C 0.60011 0.10069 0.16228 0.0
C2474 C 0.58196 0.10167 0.16617 0.0
C2475 C 0.56931 0.0993 0.14504 0.0
C2476 C 0.62478 0.09678 0.132 0.0
C2477 C 0.57563 0.10465 0.19274 0.0
C2478 C 0.62397 0.08646 0.21694 0.0
C2479 C 0.64024 0.10498 0.22422 0.0
C2480 C 0.61039 0.08493 0.19745 0.0
C2481 C 0.61334 0.10231 0.18451 0.0
C2482 C 0.62957 0.12107 0.19194 0.0
C2483 C 0.64268 0.1222 0.21188 0.0
C2484 C 0.59307 0.06467 0.19042 0.0
C2485 C 0.63345 0.13991 0.17832 0.0
H2486 H 0.59619 0.09223 0.09735 0.0
H2487 H 0.55525 0.09972 0.14795 0.0
H2488 H 0.63827 0.11045 0.13914 0.0
H2489 H 0.6241 0.08402 0.14264 0.0
H2490 H 0.6272 0.09529 0.11113 0.0
H2491 H 0.56137 0.10559 0.19242 0.0
H2492 H 0.57306 0.09214 0.20569 0.0
H2493 H 0.58805 0.11843 0.20124 0.0
H2494 H 0.62179 0.07308 0.22654 0.0
H2495 H 0.65517 0.13658 0.21734 0.0
H2496 H 0.59533 0.06119 0.17034 0.0
H2497 H 0.57824 0.0645 0.19116 0.0
H2498 H 0.592 0.05278 0.2035 0.0
H2499 H 0.63715 0.13942 0.15764 0.0
H2500 H 0.6463 0.15338 0.18694 0.0
H2501 H 0.61945 0.14124 0.17906 0.0
C2502 C 0.58872 0.08241 0.44646 0.0
C2503 C 0.57605 0.09071 0.44327 0.0
C2504 C 0.60111 0.08238 0.42604 0.0
C2505 C 0.60057 0.09057 0.4017 0.0
C2506 C 0.58735 0.09846 0.39818 0.0
C2507 C 0.57541 0.0986 0.41908 0.0
C2508 C 0.61527 0.07418 0.43074 0.0
C2509 C 0.58608 0.10704 0.37244 0.0
C2510 C 0.64701 0.11175 0.35675 0.0
C2511 C 0.64132 0.09657 0.3387 0.0
C2512 C 0.63412 0.1097 0.37768 0.0
C2513 C 0.61482 0.09219 0.38044 0.0
C2514 C 0.60904 0.07667 0.3625 0.0
C2515 C 0.62247 0.07896 0.34195 0.0
C2516 C 0.64108 0.12644 0.39664 0.0
C2517 C 0.58845 0.0579 0.36461 0.0
H2518 H 0.58936 0.07644 0.46521 0.0
H2519 H 0.56539 0.10474 0.41647 0.0
H2520 H 0.61268 0.06278 0.41622 0.0
H2521 H 0.63145 0.08625 0.42851 0.0
H2522 H 0.6131 0.06744 0.45035 0.0
H2523 H 0.57397 0.11125 0.37237 0.0
H2524 H 0.60101 0.12043 0.36766 0.0
H2525 H 0.58286 0.09615 0.35692 0.0
H2526 H 0.66162 0.12534 0.35454 0.0
H2527 H 0.61793 0.06722 0.32801 0.0
H2528 H 0.64026 0.12078 0.41663 0.0
H2529 H 0.63073 0.13275 0.39588 0.0
H2530 H 0.65703 0.13857 0.3926 0.0
H2531 H 0.58654 0.05084 0.38392 0.0
H2532 H 0.5865 0.047 0.34959 0.0
H2533 H 0.57602 0.06155 0.36262 0.0
C2534 C 0.04274 0.58766 0.40413 0.0
C2535 C 0.03564 0.58775 0.42933 0.0
C2536 C 0.03774 0.596 0.38296 0.0
C2537 C 0.02554 0.60501 0.38687 0.0
C2538 C 0.0187 0.60552 0.41236 0.0
C2539 C 0.02367 0.5968 0.43311 0.0
C2540 C 0.04515 0.59475 0.35624 0.0
C2541 C 1.00595 0.61516 0.41772 0.0
C2542 C 0.02496 0.64008 0.33414 0.0
C2543 C 1.00627 0.62793 0.32177 0.0
C2544 C 0.03141 0.63293 0.35529 0.0
C2545 C 0.0191 0.613 0.36423 0.0
C2546 C 1.0004 0.60062 0.35154 0.0
C2547 C 0.9942 0.60821 0.33079 0.0
C2548 C 0.05131 0.64681 0.36831 0.0
C2549 C 0.98683 0.57924 0.35993 0.0
H2550 H 0.05181 0.58059 0.40082 0.0
H2551 H 0.01833 0.59726 0.45245 0.0
H2552 H 0.03179 0.5859 0.3437 0.0
H2553 H 0.05401 0.60979 0.34737 0.0
H2554 H 0.05496 0.58781 0.3564 0.0
H2555 H 1.00276 0.61534 0.43868 0.0
H2556 H 0.01395 0.63065 0.41013 0.0
H2557 H 0.99111 0.60707 0.40758 0.0
H2558 H 0.03443 0.65534 0.3276 0.0
H2559 H 0.97979 0.59852 0.32147 0.0
H2560 H 0.06181 0.64067 0.36752 0.0
H2561 H 0.04834 0.64819 0.38901 0.0
H2562 H 0.05915 0.66185 0.35921 0.0
H2563 H 0.9956 0.57126 0.35912 0.0
H2564 H 0.97306 0.57134 0.34768 0.0
H2565 H 0.98169 0.57851 0.38026 0.0
C2566 C 0.51973 0.53796 0.41896 0.0
C2567 C 0.51687 0.53459 0.44576 0.0
C2568 C 0.50525 0.52472 0.40145 0.0
C2569 C 0.48716 0.50782 0.41086 0.0
C2570 C 0.48469 0.50377 0.43784 0.0
C2571 C 0.49971 0.51703 0.4549 0.0
C2572 C 0.50883 0.52944 0.37287 0.0
C2573 C 0.46556 0.48613 0.44884 0.0
C2574 C 0.44056 0.49079 0.3678 0.0
C2575 C 0.43938 0.47422 0.35553 0.0
C2576 C 0.45557 0.50137 0.38637 0.0
C2577 C 0.47015 0.49556 0.39265 0.0
C2578 C 0.46892 0.47871 0.38059 0.0
C2579 C 0.45348 0.46815 0.36238 0.0
C2580 C 0.456 0.519 0.39902 0.0
C2581 C 0.48429 0.47215 0.3864 0.0
H2582 H 0.53299 0.55139 0.41165 0.0
H2583 H 0.49734 0.51418 0.47552 0.0
H2584 H 0.50621 0.51614 0.36204 0.0
H2585 H 0.49776 0.53379 0.3657 0.0
H2586 H 0.52461 0.54174 0.36848 0.0
H2587 H 0.46674 0.48402 0.46989 0.0
H2588 H 0.45221 0.48828 0.44573 0.0
H2589 H 0.46239 0.47238 0.43875 0.0
H2590 H 0.4297 0.49556 0.36289 0.0
H2591 H 0.4528 0.45544 0.35299 0.0
H2592 H 0.47043 0.53275 0.3936 0.0
H2593 H 0.45574 0.51737 0.42036 0.0
H2594 H 0.44284 0.52084 0.39329 0.0
H2595 H 0.49987 0.484 0.38034 0.0
H2596 H 0.48075 0.45827 0.37633 0.0
H2597 H 0.48468 0.46975 0.40749 0.0
C2598 C 0.66968 0.85164 0.24401 0.0
C2599 C 0.67858 0.84945 0.26668 0.0
C2600 C 0.66774 0.84042 0.22156 0.0
C2601 C 0.67478 0.82647 0.22149 0.0
C2602 C 0.68305 0.82373 0.24474 0.0
C2603 C 0.6851 0.83535 0.26668 0.0
C2604 C 0.65908 0.84425 0.19743 0.0
C2605 C 0.69052 0.809 0.24622 0.0
C2606 C 0.65697 0.78616 0.16899 0.0
C2607 C 0.6741 0.79346 0.15213 0.0
C2608 C 0.6569 0.79669 0.19124 0.0
C2609 C 0.67427 0.81532 0.19706 0.0
C2610 C 0.69147 0.82294 0.17982 0.0
C2611 C 0.69124 0.81196 0.15788 0.0
C2612 C 0.63828 0.78762 0.20889 0.0
C2613 C 0.71031 0.84273 0.18469 0.0
H2614 H 0.66528 0.86295 0.24333 0.0
H2615 H 0.69255 0.8339 0.28373 0.0
H2616 H 0.67123 0.8508 0.1822 0.0
H2617 H 0.64652 0.83011 0.18989 0.0
H2618 H 0.65309 0.85453 0.20084 0.0
H2619 H 0.69497 0.80736 0.26612 0.0
H2620 H 0.67841 0.79424 0.23961 0.0
H2621 H 0.70402 0.81388 0.23318 0.0
H2622 H 0.64362 0.7719 0.16509 0.0
H2623 H 0.70461 0.8179 0.14523 0.0
H2624 H 0.63228 0.79798 0.21112 0.0
H2625 H 0.64261 0.78505 0.22839 0.0
H2626 H 0.6258 0.77328 0.2016 0.0
H2627 H 0.706 0.8544 0.18658 0.0
H2628 H 0.722 0.84718 0.16898 0.0
H2629 H 0.71733 0.84208 0.20317 0.0
C2630 C 0.23109 0.90693 0.27584 0.0
C2631 C 0.21588 0.91156 0.28264 0.0
C2632 C 0.24461 0.91661 0.25467 0.0
C2633 C 0.24305 0.93142 0.24019 0.0
C2634 C 0.22756 0.93589 0.24684 0.0
C2635 C 0.21421 0.9259 0.26773 0.0
C2636 C 0.26078 0.91124 0.24804 0.0
C2637 C 0.22548 0.95177 0.23244 0.0
C2638 C 0.29074 0.97294 0.20683 0.0
C2639 C 0.28728 0.96788 0.18063 0.0
C2640 C 0.27662 0.96114 0.22623 0.0
C2641 C 0.25854 0.94351 0.21952 0.0
C2642 C 0.25482 0.93831 0.19306 0.0
C2643 C 0.26915 0.95065 0.17389 0.0
C2644 C 0.28105 0.96765 0.25398 0.0
C2645 C 0.23585 0.91956 0.18508 0.0
H2646 H 0.23249 0.89585 0.28708 0.0
H2647 H 0.2026 0.92973 0.27265 0.0
H2648 H 0.26013 0.90772 0.22722 0.0
H2649 H 0.27623 0.9241 0.25159 0.0
H2650 H 0.25894 0.89834 0.25962 0.0
H2651 H 0.21205 0.95288 0.23926 0.0
H2652 H 0.23953 0.96638 0.23496 0.0
H2653 H 0.22389 0.9487 0.21145 0.0
H2654 H 0.30469 0.98624 0.21225 0.0
H2655 H 0.26651 0.94646 0.15377 0.0
H2656 H 0.2815 0.95596 0.26592 0.0
H2657 H 0.26859 0.96983 0.26197 0.0
H2658 H 0.29586 0.9817 0.25602 0.0
H2659 H 0.23513 0.90656 0.19512 0.0
H2660 H 0.23545 0.91725 0.16389 0.0
H2661 H 0.22193 0.92011 0.19094 0.0
C2662 C 0.17238 0.4096 0.25782 0.0
C2663 C 0.16622 0.41569 0.27987 0.0
C2664 C 0.16124 0.40548 0.23481 0.0
C2665 C 0.14327 0.40703 0.23417 0.0
C2666 C 0.1369 0.41298 0.25653 0.0
C2667 C 0.14857 0.41741 0.27901 0.0
C2668 C 0.16873 0.39958 0.21121 0.0
C2669 C 0.11764 0.41448 0.25682 0.0
C2670 C 0.12182 0.4152 0.17222 0.0
C2671 C 0.10533 0.39615 0.16764 0.0
C2672 C 0.13495 0.41872 0.19304 0.0
C2673 C 0.13121 0.40289 0.21007 0.0
C2674 C 0.11491 0.38349 0.20513 0.0
C2675 C 0.10227 0.3803 0.18374 0.0
C2676 C 0.15242 0.43953 0.1973 0.0
C2677 C 0.11022 0.3663 0.22311 0.0
H2678 H 0.18601 0.40823 0.2586 0.0
H2679 H 0.14353 0.42168 0.29624 0.0
H2680 H 0.15681 0.38467 0.20481 0.0
H2681 H 0.17153 0.41015 0.19506 0.0
H2682 H 0.1831 0.39927 0.21483 0.0
H2683 H 0.11446 0.41867 0.27606 0.0
H2684 H 0.11904 0.42572 0.24235 0.0
H2685 H 0.10427 0.40006 0.25139 0.0
H2686 H 0.12436 0.42745 0.1596 0.0
H2687 H 0.0895 0.36557 0.18026 0.0
H2688 H 0.16696 0.4394 0.20009 0.0
H2689 H 0.14942 0.44556 0.21511 0.0
H2690 H 0.15452 0.4497 0.18088 0.0
H2691 H 0.12417 0.36516 0.22613 0.0
H2692 H 0.09789 0.35194 0.21566 0.0
H2693 H 0.10529 0.36886 0.24227 0.0
C2694 C 0.16869 0.42124 0.95016 0.0
C2695 C 0.1827 0.41457 0.95365 0.0
C2696 C 0.15631 0.42094 0.97073 0.0
C2697 C 0.15778 0.41346 0.99517 0.0
C2698 C 0.17319 0.40839 0.99934 0.0
C2699 C 0.18557 0.40912 0.97849 0.0
C2700 C 0.14037 0.4269 0.96564 0.0
C2701 C 0.17518 0.40022 0.02503 0.0
C2702 C 0.12494 0.41419 0.051 0.0
C2703 C 0.10713 0.39569 0.04821 0.0
C2704 C 0.14182 0.42023 0.0341 0.0
C2705 C 0.14086 0.40729 0.01439 0.0
C2706 C 0.1232 0.3883 0.01224 0.0
C2707 C 0.10652 0.38283 0.02901 0.0
C2708 C 0.16031 0.44067 0.0367 0.0
C2709 C 0.12169 0.37386 0.99181 0.0
H2710 H 0.16671 0.4257 0.931 0.0
H2711 H 0.19631 0.40384 0.98122 0.0
H2712 H 0.12507 0.41336 0.96411 0.0
H2713 H 0.13955 0.43575 0.98182 0.0
H2714 H 0.14363 0.43566 0.94739 0.0
H2715 H 0.19002 0.40044 0.02652 0.0
H2716 H 0.17385 0.40876 0.04124 0.0
H2717 H 0.16256 0.38463 0.02733 0.0
H2718 H 0.12538 0.42421 0.06574 0.0
H2719 H 0.09286 0.36844 0.02694 0.0
H2720 H 0.16143 0.44996 0.01969 0.0
H2721 H 0.17459 0.43982 0.03704 0.0
H2722 H 0.15947 0.44817 0.05446 0.0
H2723 H 0.12211 0.38013 0.97232 0.0
H2724 H 0.10735 0.35928 0.99375 0.0
H2725 H 0.13496 0.37139 0.993 0.0
C2726 C 0.69504 0.84501 0.92198 0.0
C2727 C 0.67923 0.8451 0.90758 0.0
C2728 C 0.69123 0.83415 0.94531 0.0
C2729 C 0.67098 0.8229 0.95537 0.0
C2730 C 0.65489 0.82335 0.94152 0.0
C2731 C 0.65915 0.8343 0.91782 0.0
C2732 C 0.70902 0.83418 0.95873 0.0
C2733 C 0.63308 0.81188 0.95149 0.0
C2734 C 0.66416 0.77876 0.99646 0.0
C2735 C 0.66785 0.78614 0.0218 0.0
C2736 C 0.66369 0.78997 0.97516 0.0
C2737 C 0.66691 0.80936 0.97878 0.0
C2738 C 0.66921 0.81645 1.00456 0.0
C2739 C 0.66969 0.80483 0.02571 0.0
C2740 C 0.66128 0.7815 0.94843 0.0
C2741 C 0.6724 0.83684 0.00967 0.0
H2742 H 0.71071 0.85324 0.91475 0.0
H2743 H 0.64673 0.83419 0.90721 0.0
H2744 H 0.70967 0.83867 0.97913 0.0
H2745 H 0.70684 0.81897 0.95888 0.0
H2746 H 0.724 0.84436 0.94918 0.0
H2747 H 0.62274 0.81557 0.94059 0.0
H2748 H 0.62731 0.79574 0.94985 0.0
H2749 H 0.63238 0.81497 0.97226 0.0
H2750 H 0.66256 0.76432 0.99301 0.0
H2751 H 0.67271 0.81088 0.04499 0.0
H2752 H 0.67605 0.78978 0.93761 0.0
H2753 H 0.64963 0.78323 0.93752 0.0
H2754 H 0.6567 0.76553 0.94896 0.0
H2755 H 0.68823 0.84819 1.00374 0.0
H2756 H 0.67022 0.83887 0.03045 0.0
H2757 H 0.66166 0.83957 0.99813 0.0
C2758 C 0.21613 0.92814 0.96086 0.0
C2759 C 0.22584 0.92701 0.93823 0.0
C2760 C 0.22704 0.93517 0.98399 0.0
C2761 C 0.24838 0.94189 0.98435 0.0
C2762 C 0.25826 0.94085 0.96142 0.0
C2763 C 0.2468 0.93313 0.93881 0.0
C2764 C 0.21573 0.93544 1.00807 0.0
C2765 C 0.28104 0.94841 0.96057 0.0
C2766 C 0.27987 0.97977 0.03548 0.0
C2767 C 0.2841 0.96846 0.05304 0.0
C2768 C 0.26852 0.97137 0.01304 0.0
C2769 C 0.26054 0.95091 1.00827 0.0
C2770 C 0.26437 0.93928 0.02624 0.0
C2771 C 0.2764 0.94826 0.04817 0.0
C2772 C 0.2654 0.98452 0.99415 0.0
C2773 C 0.25566 0.91732 0.02235 0.0
H2774 H 0.19988 0.92318 0.9605 0.0
H2775 H 0.25434 0.93237 0.92127 0.0
H2776 H 0.21853 0.92759 0.02415 0.0
H2777 H 0.22154 0.95096 0.01414 0.0
H2778 H 0.19892 0.92834 1.00511 0.0
H2779 H 0.2864 0.94653 0.94129 0.0
H2780 H 0.28952 0.9644 0.96542 0.0
H2781 H 0.28506 0.94046 0.97522 0.0
H2782 H 0.28595 0.99545 0.03893 0.0
H2783 H 0.27954 0.93942 0.06169 0.0
H2784 H 0.24879 0.97917 0.9921 0.0
H2785 H 0.27145 0.98384 0.97479 0.0
H2786 H 0.27313 1.00025 1.00027 0.0
H2787 H 0.23876 0.90992 0.02029 0.0
H2788 H 0.25918 0.91016 0.03865 0.0
H2789 H 0.26197 0.9148 1.00425 0.0
C2790 C 0.68609 0.90432 0.43022 0.0
C2791 C 0.67618 0.90382 0.40705 0.0
C2792 C 0.68207 0.9112 0.45355 0.0
C2793 C 0.66813 0.91849 0.45404 0.0
C2794 C 0.65774 0.9177 0.43077 0.0
C2795 C 0.66175 0.91028 0.40772 0.0
C2796 C 0.69328 0.91119 0.47759 0.0
C2797 C 0.64304 0.92555 0.42993 0.0
C2798 C 0.64677 0.92341 0.52007 0.0
C2799 C 0.65977 0.94351 0.52628 0.0
C2800 C 0.64924 0.9152 0.49689 0.0
C2801 C 0.66492 0.92727 0.47872 0.0
C2802 C 0.67804 0.94759 0.48477 0.0
C2803 C 0.67544 0.95537 0.50835 0.0
C2804 C 0.63507 0.89343 0.49192 0.0
C2805 C 0.69483 0.96126 0.46614 0.0
H2806 H 0.69751 0.89969 0.42995 0.0
H2807 H 0.65444 0.91057 0.38989 0.0
H2808 H 0.70374 0.92668 0.48359 0.0
H2809 H 0.68219 0.90355 0.49373 0.0
H2810 H 0.70246 0.90375 0.47462 0.0
H2811 H 0.63552 0.92321 0.41088 0.0
H2812 H 0.63101 0.91823 0.44516 0.0
H2813 H 0.65141 0.94169 0.43394 0.0
H2814 H 0.63455 0.91394 0.53348 0.0
H2815 H 0.68549 0.97092 0.51247 0.0
H2816 H 0.64415 0.88584 0.48961 0.0
H2817 H 0.62675 0.89159 0.47364 0.0
H2818 H 0.62365 0.88595 0.50781 0.0
H2819 H 0.70595 0.95599 0.46336 0.0
H2820 H 0.70324 0.9768 0.47298 0.0
H2821 H 0.68821 0.96106 0.44698 0.0
C2822 C 0.174 0.84576 0.4329 0.0
C2823 C 0.16018 0.84717 0.4162 0.0
C2824 C 0.16693 0.83411 0.45589 0.0
C2825 C 0.14561 0.82364 0.46215 0.0
C2826 C 0.13164 0.82393 0.44423 0.0
C2827 C 0.13907 0.83564 0.42168 0.0
C2828 C 0.18236 0.83399 0.47418 0.0
C2829 C 0.1088 0.81301 0.44971 0.0
C2830 C 0.1179 0.78554 0.51665 0.0
C2831 C 0.11442 0.79706 0.53453 0.0
C2832 C 0.1295 0.79421 0.49373 0.0
C2833 C 0.13779 0.81482 0.48861 0.0
C2834 C 0.13562 0.82664 0.50764 0.0
C2835 C 0.12403 0.81766 0.53019 0.0
C2836 C 0.13169 0.78106 0.47425 0.0
C2837 C 0.14415 0.84864 0.50334 0.0
H2838 H 0.19032 0.8546 0.42882 0.0
H2839 H 0.12824 0.83637 0.40865 0.0
H2840 H 0.18446 0.84385 0.49063 0.0
H2841 H 0.17684 0.81885 0.48221 0.0
H2842 H 0.19752 0.83934 0.46456 0.0
H2843 H 0.09989 0.81317 0.43279 0.0
H2844 H 0.10341 0.79735 0.45531 0.0
H2845 H 0.10539 0.82002 0.46615 0.0
H2846 H 0.1106 0.76963 0.51977 0.0
H2847 H 0.12176 0.82679 0.54405 0.0
H2848 H 0.14741 0.78848 0.46575 0.0
H2849 H 0.12084 0.77809 0.45825 0.0
H2850 H 0.12827 0.76661 0.48298 0.0
H2851 H 0.16043 0.85589 0.49689 0.0
H2852 H 0.14315 0.8561 0.52106 0.0
H2853 H 0.13544 0.85101 0.48786 0.0
C2854 C 0.20649 0.40319 0.48289 0.0
C2855 C 0.21747 0.41107 0.4597 0.0
C2856 C 0.21622 0.40137 0.50493 0.0
C2857 C 0.23749 0.40801 0.50381 0.0
C2858 C 0.24864 0.41607 0.48041 0.0
C2859 C 0.23842 0.41729 0.45856 0.0
C2860 C 0.20376 0.39233 0.52937 0.0
C2861 C 0.27143 0.4237 0.47856 0.0
C2862 C 0.26954 0.42473 0.56407 0.0
C2863 C 0.27434 0.40958 0.56779 0.0
C2864 C 0.25694 0.42403 0.54388 0.0
C2865 C 0.24845 0.40754 0.52732 0.0
C2866 C 0.25192 0.3915 0.53206 0.0
C2867 C 0.26499 0.39277 0.55213 0.0
C2868 C 0.25383 0.44157 0.5393 0.0
C2869 C 0.24266 0.37343 0.51516 0.0
H2870 H 0.19019 0.39804 0.48358 0.0
H2871 H 0.24684 0.42341 0.44059 0.0
H2872 H 0.20552 0.37964 0.53596 0.0
H2873 H 0.20949 0.4034 0.54501 0.0
H2874 H 0.18719 0.38703 0.52668 0.0
H2875 H 0.2778 0.42947 0.45891 0.0
H2876 H 0.27961 0.43578 0.49261 0.0
H2877 H 0.27469 0.41167 0.48363 0.0
H2878 H 0.27651 0.43776 0.57609 0.0
H2879 H 0.26841 0.38091 0.55494 0.0
H2880 H 0.23727 0.43657 0.53771 0.0
H2881 H 0.26133 0.44904 0.52075 0.0
H2882 H 0.26034 0.45262 0.55496 0.0
H2883 H 0.22607 0.36792 0.51243 0.0
H2884 H 0.24456 0.36121 0.52341 0.0
H2885 H 0.25017 0.37747 0.49579 0.0
C2886 C 0.23425 0.40777 0.76099 0.0
C2887 C 0.23289 0.39886 0.78507 0.0
C2888 C 0.2456 0.40602 0.74065 0.0
C2889 C 0.25593 0.3952 0.74462 0.0
C2890 C 0.25431 0.38584 0.76874 0.0
C2891 C 0.24279 0.38779 0.78872 0.0
C2892 C 0.24695 0.41619 0.7151 0.0
C2893 C 0.26524 0.37432 0.7737 0.0
C2894 C 0.27465 0.38439 0.68209 0.0
C2895 C 0.29398 0.40144 0.67966 0.0
C2896 C 0.2624 0.38126 0.70421 0.0
C2897 C 0.26993 0.39544 0.72416 0.0
C2898 C 0.29023 0.41161 0.72274 0.0
C2899 C 0.30196 0.41447 0.7004 0.0
C2900 C 0.24084 0.36378 0.70519 0.0
C2901 C 0.29896 0.4269 0.74376 0.0
H2902 H 0.22631 0.41601 0.758 0.0
H2903 H 0.24194 0.38104 0.80743 0.0
H2904 H 0.26302 0.42807 0.71128 0.0
H2905 H 0.24248 0.40543 0.69915 0.0
H2906 H 0.23697 0.42294 0.7147 0.0
H2907 H 0.26085 0.36639 0.79268 0.0
H2908 H 0.26183 0.36334 0.75825 0.0
H2909 H 0.28207 0.3846 0.77334 0.0
H2910 H 0.26849 0.37436 0.66596 0.0
H2911 H 0.31702 0.42757 0.69857 0.0
H2912 H 0.22983 0.36901 0.70127 0.0
H2913 H 0.2371 0.35666 0.72466 0.0
H2914 H 0.23857 0.35247 0.69063 0.0
H2915 H 0.29142 0.43604 0.7434 0.0
H2916 H 0.31577 0.43695 0.7413 0.0
H2917 H 0.29592 0.4196 0.76307 0.0
C2918 C 0.67019 0.89247 0.75052 0.0
C2919 C 0.66849 0.90104 0.77357 0.0
C2920 C 0.66932 0.90028 0.72589 0.0
C2921 C 0.66637 0.91697 0.72392 0.0
C2922 C 0.66416 0.92531 0.74717 0.0
C2923 C 0.66542 0.91744 0.77141 0.0
C2924 C 0.67199 0.8909 0.70189 0.0
C2925 C 0.66054 0.94273 0.7465 0.0
C2926 C 0.68012 0.9501 0.66215 0.0
C2927 C 0.66097 0.9428 0.65024 0.0
C2928 C 0.68226 0.94152 0.68551 0.0
C2929 C 0.66484 0.92534 0.6978 0.0
C2930 C 0.64558 0.91783 0.68569 0.0
C2931 C 0.64393 0.92644 0.66231 0.0
C2932 C 0.7032 0.95 0.69728 0.0
C2933 C 0.62642 0.90095 0.69789 0.0
H2934 H 0.67293 0.88006 0.75169 0.0
H2935 H 0.66414 0.92435 0.78889 0.0
H2936 H 0.65831 0.8856 0.68953 0.0
H2937 H 0.68538 0.90213 0.69043 0.0
H2938 H 0.67435 0.8782 0.70644 0.0
H2939 H 0.65875 0.94736 0.76615 0.0
H2940 H 0.67356 0.95556 0.73649 0.0
H2941 H 0.64651 0.9389 0.73539 0.0
H2942 H 0.69347 0.96265 0.65337 0.0
H2943 H 0.62892 0.9205 0.65378 0.0
H2944 H 0.70679 0.938 0.70107 0.0
H2945 H 0.70336 0.95675 0.71614 0.0
H2946 H 0.71546 0.9615 0.68465 0.0
H2947 H 0.62846 0.88793 0.70116 0.0
H2948 H 0.61266 0.89632 0.68581 0.0
H2949 H 0.62354 0.90547 0.71704 0.0
C2950 C 0.14529 0.84382 0.7643 0.0
C2951 C 0.16286 0.8625 0.76051 0.0
C2952 C 0.13484 0.83168 0.74323 0.0
C2953 C 0.14244 0.83809 0.7177 0.0
C2954 C 0.16066 0.85663 0.7139 0.0
C2955 C 0.17045 0.8687 0.73527 0.0
C2956 C 0.11519 0.81237 0.74825 0.0
C2957 C 0.16963 0.86392 0.68718 0.0
C2958 C 0.12113 0.80036 0.66276 0.0
C2959 C 0.10733 0.80515 0.65113 0.0
C2960 C 0.13285 0.81101 0.68426 0.0
C2961 C 0.1303 0.82644 0.69488 0.0
C2962 C 0.11614 0.83106 0.68345 0.0
C2963 C 0.1052 0.82068 0.66164 0.0
C2964 C 0.14816 0.80595 0.69542 0.0
C2965 C 0.11244 0.847 0.69431 0.0
H2966 H 0.13932 0.83902 0.78376 0.0
H2967 H 0.18419 0.88298 0.73228 0.0
H2968 H 0.10217 0.81313 0.73949 0.0
H2969 H 0.11596 0.79994 0.73904 0.0
H2970 H 0.11189 0.80898 0.76922 0.0
H2971 H 0.18497 0.87753 0.68769 0.0
H2972 H 0.17104 0.85222 0.67682 0.0
H2973 H 0.15924 0.86726 0.67584 0.0
H2974 H 0.12306 0.78853 0.65481 0.0
H2975 H 0.09472 0.82472 0.65298 0.0
H2976 H 0.14434 0.80141 0.716 0.0
H2977 H 0.16372 0.81927 0.69475 0.0
H2978 H 0.14859 0.79379 0.68482 0.0
H2979 H 0.1082 0.84398 0.71512 0.0
H2980 H 0.10005 0.84802 0.68411 0.0
H2981 H 0.12669 0.86163 0.69278 0.0
C2982 C 0.35134 0.20159 0.59737 0.0
C2983 C 0.34875 0.19373 0.62256 0.0
C2984 C 0.35057 0.19054 0.57546 0.0
C2985 C 0.34781 0.17119 0.57854 0.0
C2986 C 0.34458 0.16294 0.60397 0.0
C2987 C 0.34498 0.17422 0.62558 0.0
C2988 C 0.35366 0.19999 0.54899 0.0
C2989 C 0.3419 0.14258 0.60849 0.0
C2990 C 0.33331 0.13711 0.51948 0.0
C2991 C 0.35242 0.14007 0.51071 0.0
C2992 C 0.33158 0.14705 0.54131 0.0
C2993 C 0.34931 0.16015 0.55533 0.0
C2994 C 0.36864 0.16314 0.54662 0.0
C2995 C 0.36997 0.15325 0.52445 0.0
C2996 C 0.3107 0.14358 0.54932 0.0
C2997 C 0.388 0.17671 0.5609 0.0
H2998 H 0.35477 0.2168 0.59485 0.0
H2999 H 0.34369 0.16825 0.64496 0.0
H3000 H 0.36855 0.20289 0.54063 0.0
H3001 H 0.34144 0.18978 0.53581 0.0
H3002 H 0.35361 0.21424 0.54955 0.0
H3003 H 0.33821 0.13767 0.62902 0.0
H3004 H 0.3295 0.13154 0.59622 0.0
H3005 H 0.35624 0.14272 0.6029 0.0
H3006 H 0.31959 0.12699 0.50917 0.0
H3007 H 0.3848 0.15559 0.51814 0.0
H3008 H 0.31074 0.15787 0.54913 0.0
H3009 H 0.307 0.13758 0.56938 0.0
H3010 H 0.29839 0.13308 0.53642 0.0
H3011 H 0.39055 0.19205 0.56064 0.0
H3012 H 0.40173 0.17699 0.55234 0.0
H3013 H 0.38641 0.17187 0.58143 0.0
C3014 C 0.91168 0.228 0.58217 0.0
C3015 C 0.8931 0.22369 0.59421 0.0
C3016 C 0.92172 0.24401 0.56458 0.0
C3017 C 0.91309 0.25616 0.55898 0.0
C3018 C 0.89405 0.25156 0.57042 0.0
C3019 C 0.88425 0.23534 0.58769 0.0
C3020 C 0.94193 0.24832 0.5526 0.0
C3021 C 0.88435 0.26415 0.56508 0.0
C3022 C 0.95155 0.30899 0.53797 0.0
C3023 C 0.94956 0.3081 0.511 0.0
C3024 C 0.93919 0.29243 0.55383 0.0
C3025 C 0.92463 0.27438 0.54247 0.0
C3026 C 0.92188 0.27362 0.51536 0.0
C3027 C 0.93429 0.29054 0.49995 0.0
C3028 C 0.94235 0.29404 0.58269 0.0
C3029 C 0.90661 0.25464 0.50248 0.0
H3030 H 0.91876 0.21925 0.58705 0.0
H3031 H 0.86968 0.23195 0.59628 0.0
H3032 H 0.94145 0.24954 0.53127 0.0
H3033 H 0.95439 0.26278 0.55953 0.0
H3034 H 0.94585 0.23667 0.55742 0.0
H3035 H 0.86895 0.25795 0.57435 0.0
H3036 H 0.89435 0.27935 0.57239 0.0
H3037 H 0.88283 0.26551 0.54396 0.0
H3038 H 0.96327 0.32252 0.54667 0.0
H3039 H 0.93282 0.28965 0.47911 0.0
H3040 H 0.94852 0.2844 0.58904 0.0
H3041 H 0.92749 0.28879 0.59299 0.0
H3042 H 0.95316 0.30948 0.58864 0.0
H3043 H 0.91161 0.24348 0.50455 0.0
H3044 H 0.90505 0.25691 0.48158 0.0
H3045 H 0.89131 0.24835 0.512 0.0
C3046 C 0.83308 0.72167 0.5777 0.0
C3047 C 0.83335 0.73488 0.59614 0.0
C3048 C 0.82239 0.71858 0.55451 0.0
C3049 C 0.81134 0.72863 0.55 0.0
C3050 C 0.81113 0.74159 0.56893 0.0
C3051 C 0.82235 0.74473 0.59164 0.0
C3052 C 0.82338 0.70502 0.53457 0.0
C3053 C 0.7992 0.75228 0.56509 0.0
C3054 C 0.80042 0.73953 0.48226 0.0
C3055 C 0.7798 0.72495 0.47941 0.0
C3056 C 0.81112 0.74029 0.50467 0.0
C3057 C 0.80079 0.72644 0.52501 0.0
C3058 C 0.78011 0.71132 0.52195 0.0
C3059 C 0.76991 0.71061 0.49899 0.0
C3060 C 0.83331 0.75633 0.50689 0.0
C3061 C 0.76848 0.6965 0.54338 0.0
H3062 H 0.84176 0.71419 0.58113 0.0
H3063 H 0.82237 0.75474 0.60608 0.0
H3064 H 0.80768 0.69328 0.52948 0.0
H3065 H 0.83082 0.71363 0.51661 0.0
H3066 H 0.83211 0.69785 0.54139 0.0
H3067 H 0.79954 0.76081 0.58237 0.0
H3068 H 0.80568 0.76271 0.54837 0.0
H3069 H 0.78298 0.74147 0.56067 0.0
H3070 H 0.80814 0.75055 0.46704 0.0
H3071 H 0.75391 0.69942 0.49689 0.0
H3072 H 0.84283 0.74976 0.51272 0.0
H3073 H 0.83476 0.76691 0.52208 0.0
H3074 H 0.83961 0.76475 0.48846 0.0
H3075 H 0.77704 0.68909 0.54983 0.0
H3076 H 0.7529 0.68497 0.53739 0.0
H3077 H 0.76691 0.70436 0.56029 0.0
C3078 C 0.81294 0.68428 0.2655 0.0
C3079 C 0.79611 0.67176 0.25024 0.0
C3080 C 0.81016 0.69119 0.28925 0.0
C3081 C 0.79005 0.68525 0.29804 0.0
C3082 C 0.77299 0.671 0.28403 0.0
C3083 C 0.77623 0.66444 0.2602 0.0
C3084 C 0.82875 0.70617 0.30372 0.0
C3085 C 0.75127 0.66397 0.29308 0.0
C3086 C 0.77736 0.69788 0.36385 0.0
C3087 C 0.77348 0.71315 0.357 0.0
C3088 C 0.78392 0.6892 0.34512 0.0
C3089 C 0.78677 0.69619 0.31921 0.0
C3090 C 0.78454 0.71276 0.31284 0.0
C3091 C 0.77768 0.72088 0.3318 0.0
C3092 C 0.78607 0.67155 0.35266 0.0
C3093 C 0.78786 0.72098 0.28556 0.0
H3094 H 0.82836 0.68953 0.25819 0.0
H3095 H 0.76318 0.65471 0.24858 0.0
H3096 H 0.83065 0.72116 0.3008 0.0
H3097 H 0.82681 0.70285 0.32477 0.0
H3098 H 0.843 0.70658 0.29689 0.0
H3099 H 0.73989 0.65091 0.28215 0.0
H3100 H 0.74944 0.66001 0.31396 0.0
H3101 H 0.74775 0.67614 0.29046 0.0
H3102 H 0.77363 0.69165 0.38329 0.0
H3103 H 0.7744 0.73255 0.32659 0.0
H3104 H 0.79965 0.67224 0.34306 0.0
H3105 H 0.77232 0.65776 0.34632 0.0
H3106 H 0.78742 0.67051 0.37391 0.0
H3107 H 0.80283 0.72368 0.27772 0.0
H3108 H 0.78752 0.73508 0.28444 0.0
H3109 H 0.77569 0.71 0.27296 0.0
C3110 C 0.35114 0.19322 0.28434 0.0
C3111 C 0.34029 0.18008 0.26434 0.0
C3112 C 0.35302 0.18617 0.30899 0.0
C3113 C 0.34391 0.16543 0.31402 0.0
C3114 C 0.33207 0.15217 0.29431 0.0
C3115 C 0.33041 0.15958 0.26997 0.0
C3116 C 0.36568 0.20098 0.32923 0.0
C3117 C 0.32204 0.12999 0.29838 0.0
C3118 C 0.36924 0.14509 0.35946 0.0
C3119 C 0.35609 0.1384 0.38134 0.0
C3120 C 0.36584 0.15448 0.3382 0.0
C3121 C 0.34877 0.15752 0.33828 0.0
C3122 C 0.33587 0.15164 0.36072 0.0
C3123 C 0.33967 0.1422 0.38195 0.0
C3124 C 0.3802 0.16044 0.31508 0.0
C3125 C 0.31758 0.15464 0.36193 0.0
H3126 H 0.35893 0.20906 0.28044 0.0
H3127 H 0.32191 0.14915 0.25493 0.0
H3128 H 0.35752 0.19678 0.3482 0.0
H3129 H 0.38033 0.20099 0.33161 0.0
H3130 H 0.36927 0.21627 0.32395 0.0
H3131 H 0.31174 0.12161 0.2823 0.0
H3132 H 0.33404 0.12572 0.29994 0.0
H3133 H 0.31302 0.12543 0.31672 0.0
H3134 H 0.38215 0.14257 0.35859 0.0
H3135 H 0.32932 0.13713 0.39852 0.0
H3136 H 0.38613 0.17628 0.30997 0.0
H3137 H 0.37174 0.15155 0.29814 0.0
H3138 H 0.39345 0.15818 0.31855 0.0
H3139 H 0.32212 0.17009 0.3562 0.0
H3140 H 0.31044 0.15148 0.38154 0.0
H3141 H 0.3059 0.14465 0.34804 0.0
C3142 C 0.90328 0.27313 0.27871 0.0
C3143 C 0.88306 0.2576 0.28262 0.0
C3144 C 0.91573 0.28343 0.29963 0.0
C3145 C 0.90784 0.27803 0.32519 0.0
C3146 C 0.88746 0.26235 0.3293 0.0
C3147 C 0.8753 0.25238 0.30798 0.0
C3148 C 0.93729 0.3002 0.29437 0.0
C3149 C 0.8785 0.25606 0.35623 0.0
C3150 C 0.94613 0.29449 0.38023 0.0
C3151 C 0.94572 0.31127 0.38913 0.0
C3152 C 0.93371 0.28336 0.35962 0.0
C3153 C 0.9207 0.28925 0.34754 0.0
C3154 C 0.92017 0.30611 0.35658 0.0
C3155 C 0.9326 0.31685 0.37725 0.0
C3156 C 0.93462 0.2654 0.35064 0.0
C3157 C 0.90661 0.31297 0.34419 0.0
H3158 H 0.90931 0.27736 0.25918 0.0
H3159 H 0.85984 0.2402 0.31122 0.0
H3160 H 0.93907 0.31424 0.30205 0.0
H3161 H 0.94848 0.29726 0.30447 0.0
H3162 H 0.94124 0.30233 0.27341 0.0
H3163 H 0.86254 0.24333 0.35618 0.0
H3164 H 0.88812 0.25183 0.36779 0.0
H3165 H 0.87849 0.26866 0.3661 0.0
H3166 H 0.95619 0.29007 0.3893 0.0
H3167 H 0.93218 0.32981 0.38394 0.0
H3168 H 0.93991 0.26755 0.33019 0.0
H3169 H 0.91907 0.25209 0.35154 0.0
H3170 H 0.94511 0.26247 0.36247 0.0
H3171 H 0.91084 0.31654 0.32346 0.0
H3172 H 0.90784 0.32628 0.35364 0.0
H3173 H 0.89036 0.3009 0.34516 0.0
C3174 C 0.35834 0.24076 0.79233 0.0
C3175 C 0.34774 0.23924 0.76942 0.0
C3176 C 0.35431 0.24777 0.81545 0.0
C3177 C 0.33953 0.254 0.81598 0.0
C3178 C 0.32838 0.2521 0.79304 0.0
C3179 C 0.33247 0.24461 0.77016 0.0
C3180 C 0.36635 0.24898 0.83924 0.0
C3181 C 0.31267 0.25873 0.79239 0.0
C3182 C 0.31913 0.25896 0.88242 0.0
C3183 C 0.33149 0.27931 0.88771 0.0
C3184 C 0.32143 0.25064 0.85929 0.0
C3185 C 0.33626 0.26286 0.84037 0.0
C3186 C 0.34871 0.28344 0.84549 0.0
C3187 C 0.3463 0.29133 0.86899 0.0
C3188 C 0.30804 0.22862 0.85521 0.0
C3189 C 0.3646 0.2972 0.82599 0.0
H3190 H 0.37022 0.23674 0.79206 0.0
H3191 H 0.32445 0.24391 0.75255 0.0
H3192 H 0.37614 0.26472 0.84472 0.0
H3193 H 0.35575 0.24117 0.85576 0.0
H3194 H 0.37633 0.24239 0.83623 0.0
H3195 H 0.30464 0.25556 0.77362 0.0
H3196 H 0.30111 0.25126 0.80809 0.0
H3197 H 0.32031 0.27494 0.79579 0.0
H3198 H 0.30757 0.24938 0.89649 0.0
H3199 H 0.35581 0.30708 0.87246 0.0
H3200 H 0.31776 0.2217 0.85294 0.0
H3201 H 0.29924 0.22594 0.83717 0.0
H3202 H 0.29707 0.2211 0.87153 0.0
H3203 H 0.37634 0.29274 0.82301 0.0
H3204 H 0.37242 0.31293 0.83215 0.0
H3205 H 0.35729 0.29611 0.80707 0.0
C3206 C 0.81281 0.1364 0.76713 0.0
C3207 C 0.8343 0.14768 0.76684 0.0
C3208 C 0.80171 0.12875 0.79033 0.0
C3209 C 0.81233 0.13264 0.81396 0.0
C3210 C 0.83408 0.1433 0.81369 0.0
C3211 C 0.84483 0.15061 0.79008 0.0
C3212 C 0.77856 0.11723 0.78964 0.0
C3213 C 0.84598 0.14789 0.83844 0.0
C3214 C 0.78217 0.13456 0.87195 0.0
C3215 C 0.77505 0.11585 0.88365 0.0
C3216 C 0.7949 0.14041 0.84987 0.0
C3217 C 0.80055 0.12718 0.8389 0.0
C3218 C 0.79387 0.10846 0.85093 0.0
C3219 C 0.78129 0.10305 0.87326 0.0
C3220 C 0.80183 0.1606 0.83786 0.0
C3221 C 0.79942 0.09387 0.83971 0.0
H3222 H 0.80466 0.13383 0.74913 0.0
H3223 H 0.86142 0.15941 0.78992 0.0
H3224 H 0.77253 0.10306 0.80065 0.0
H3225 H 0.77232 0.12593 0.79898 0.0
H3226 H 0.77273 0.11388 0.76959 0.0
H3227 H 0.86273 0.15452 0.8348 0.0
H3228 H 0.8434 0.15848 0.84986 0.0
H3229 H 0.84051 0.13422 0.85042 0.0
H3230 H 0.77764 0.14466 0.87993 0.0
H3231 H 0.77582 0.08854 0.88209 0.0
H3232 H 0.7951 0.15884 0.81839 0.0
H3233 H 0.81876 0.16889 0.83534 0.0
H3234 H 0.79723 0.16963 0.84969 0.0
H3235 H 0.79225 0.08905 0.82052 0.0
H3236 H 0.79423 0.08052 0.8523 0.0
H3237 H 0.81626 0.10104 0.83671 0.0
C3238 C 0.91964 0.75314 0.77832 0.0
C3239 C 0.90142 0.73682 0.76994 0.0
C3240 C 0.9303 0.75134 0.79936 0.0
C3241 C 0.92218 0.73292 0.81277 0.0
C3242 C 0.90359 0.71646 0.80457 0.0
C3243 C 0.89359 0.71855 0.78298 0.0
C3244 C 0.95033 0.76911 0.80709 0.0
C3245 C 0.89414 0.69675 0.81878 0.0
C3246 C 0.95837 0.72396 0.85433 0.0
C3247 C 0.95544 0.73012 0.87856 0.0
C3248 C 0.94752 0.72463 0.83272 0.0
C3249 C 0.933 0.73106 0.83566 0.0
C3250 C 0.92939 0.73646 0.86037 0.0
C3251 C 0.94089 0.73623 0.88143 0.0
C3252 C 0.95217 0.71921 0.80658 0.0
C3253 C 0.91363 0.74283 0.86448 0.0
H3254 H 0.92576 0.76717 0.76797 0.0
H3255 H 0.87941 0.706 0.77652 0.0
H3256 H 0.94899 0.77349 0.82703 0.0
H3257 H 0.96268 0.76525 0.80706 0.0
H3258 H 0.95499 0.78208 0.79395 0.0
H3259 H 0.87945 0.68552 0.81015 0.0
H3260 H 0.90491 0.69092 0.81865 0.0
H3261 H 0.89122 0.69873 0.8393 0.0
H3262 H 0.96978 0.71944 0.85205 0.0
H3263 H 0.93854 0.74089 0.90023 0.0
H3264 H 0.95833 0.73231 0.79335 0.0
H3265 H 0.93792 0.70735 0.7979 0.0
H3266 H 0.96352 0.71406 0.80766 0.0
H3267 H 0.91843 0.75698 0.8539 0.0
H3268 H 0.9115 0.74499 0.88523 0.0
H3269 H 0.89863 0.73157 0.85665 0.0
C3270 C 0.88001 0.68068 0.08525 0.0
C3271 C 0.86063 0.67595 0.07605 0.0
C3272 C 0.89623 0.68454 0.06821 0.0
C3273 C 0.89308 0.68392 0.04122 0.0
C3274 C 0.87322 0.67805 0.03183 0.0
C3275 C 0.85717 0.67401 0.0494 0.0
C3276 C 0.91703 0.69044 0.07912 0.0
C3277 C 0.86923 0.67732 1.00323 0.0
C3278 C 0.93885 0.72049 1.00049 0.0
C3279 C 0.9455 0.70834 0.98899 0.0
C3280 C 0.9218 0.71264 0.01726 0.0
C3281 C 0.91107 0.69206 0.02307 0.0
C3282 C 0.91774 0.67964 0.01187 0.0
C3283 C 0.93484 0.68791 0.99485 0.0
C3284 C 0.91522 0.72645 0.02869 0.0
C3285 C 0.90682 0.65767 0.01786 0.0
H3286 H 0.8826 0.68179 0.10589 0.0
H3287 H 0.84222 0.67039 0.04225 0.0
H3288 H 0.92374 0.68227 0.06946 0.0
H3289 H 0.9276 0.70651 0.07544 0.0
H3290 H 0.91628 0.68758 0.10028 0.0
H3291 H 0.85259 0.67021 0.99906 0.0
H3292 H 0.877 0.69265 0.99507 0.0
H3293 H 0.87566 0.66909 0.99311 0.0
H3294 H 0.94682 0.73628 0.99616 0.0
H3295 H 0.93981 0.67837 0.98613 0.0
H3296 H 0.91592 0.72612 0.05008 0.0
H3297 H 0.89908 0.72146 0.02357 0.0
H3298 H 0.92499 0.74204 0.02183 0.0
H3299 H 0.90688 0.65514 0.03898 0.0
H3300 H 0.91402 0.65006 1.00781 0.0
H3301 H 0.89055 0.65073 0.01203 0.0
C3302 C 0.34979 0.23589 0.11261 0.0
C3303 C 0.34378 0.24188 0.13503 0.0
C3304 C 0.34973 0.24393 0.08788 0.0
C3305 C 0.34326 0.25819 0.08515 0.0
C3306 C 0.33689 0.26401 0.1077 0.0
C3307 C 0.33737 0.25598 0.13213 0.0
C3308 C 0.35682 0.2373 0.06462 0.0
C3309 C 0.32944 0.27877 0.10607 0.0
C3310 C 0.35544 0.29216 0.0246 0.0
C3311 C 0.33704 0.28231 0.01079 0.0
C3312 C 0.35802 0.28424 0.04826 0.0
C3313 C 0.3418 0.2661 0.05876 0.0
C3314 C 0.32346 0.25595 0.04458 0.0
C3315 C 0.32139 0.26401 0.02103 0.0
C3316 C 0.37798 0.29555 0.06239 0.0
C3317 C 0.30556 0.23677 0.05474 0.0
H3318 H 0.3551 0.2253 0.11445 0.0
H3319 H 0.33275 0.26088 0.14914 0.0
H3320 H 0.34417 0.23014 0.05062 0.0
H3321 H 0.36963 0.25037 0.05466 0.0
H3322 H 0.36204 0.22666 0.06987 0.0
H3323 H 0.32517 0.28196 0.1253 0.0
H3324 H 0.34153 0.29291 0.09725 0.0
H3325 H 0.31586 0.27298 0.09342 0.0
H3326 H 0.36769 0.30625 0.01723 0.0
H3327 H 0.30702 0.25598 0.01092 0.0
H3328 H 0.38412 0.2856 0.06721 0.0
H3329 H 0.3753 0.30107 0.08088 0.0
H3330 H 0.38971 0.30842 0.05088 0.0
H3331 H 0.31049 0.22574 0.0587 0.0
H3332 H 0.29261 0.23023 0.04104 0.0
H3333 H 0.29992 0.23947 0.07329 0.0
C3334 C 0.82987 0.18353 0.09573 0.0
C3335 C 0.81739 0.18686 0.11289 0.0
C3336 C 0.82176 0.1722 0.07338 0.0
C3337 C 0.80062 0.16388 0.06812 0.0
C3338 C 0.78789 0.16696 0.08555 0.0
C3339 C 0.79643 0.17845 0.10763 0.0
C3340 C 0.83589 0.16944 0.05518 0.0
C3341 C 0.76523 0.15824 0.08076 0.0
C3342 C 0.781 0.15162 0.99951 0.0
C3343 C 0.772 0.13086 0.99931 0.0
C3344 C 0.79095 0.16257 0.02146 0.0
C3345 C 0.79187 0.15257 0.04394 0.0
C3346 C 0.78351 0.13171 0.04361 0.0
C3347 C 0.77375 0.12111 0.02127 0.0
C3348 C 0.79983 0.1848 0.02086 0.0
C3349 C 0.78413 0.12049 0.06722 0.0
H3350 H 0.8461 0.19014 0.0995 0.0
H3351 H 0.78663 0.18068 0.12098 0.0
H3352 H 0.83007 0.1534 0.0522 0.0
H3353 H 0.83625 0.17614 0.03603 0.0
H3354 H 0.85181 0.17632 0.06246 0.0
H3355 H 0.75732 0.16147 0.09659 0.0
H3356 H 0.76296 0.1643 0.06239 0.0
H3357 H 0.75783 0.14191 0.07872 0.0
H3358 H 0.77986 0.15935 0.98263 0.0
H3359 H 0.76677 0.10508 0.02141 0.0
H3360 H 0.81606 0.19238 0.02705 0.0
H3361 H 0.79124 0.18891 0.03465 0.0
H3362 H 0.79915 0.19049 1.00134 0.0
H3363 H 0.80006 0.12708 0.07429 0.0
H3364 H 0.77819 0.10452 0.06334 0.0
H3365 H 0.77474 0.12169 0.08298 0.0
loop_
_geom_bond_atom_site_label_1
_geom_bond_atom_site_label_2
_geom_bond_distance
_geom_bond_site_symmetry_2
_ccdc_geom_bond_type
Cu0 N1 1.999 . S
Cu0 O6 1.974 1_554 S
Cu0 N11 1.985 1_554 S
Cu0 O20 1.959 . S
N1 Cu0 1.999 . S
N1 C3 1.263 . S
N1 C5 1.389 . S
N2 C3 1.358 . S
N2 C4 1.400 . S
C3 N1 1.263 . S
C3 N2 1.358 . S
C3 H9 0.930 . S
C4 N2 1.400 . S
C4 C5 1.351 . S
C4 H21 0.930 . S
C5 N1 1.389 . S
C5 C4 1.351 . S
C5 H10 0.930 . S
O6 Cu0 1.974 1_556 S
O6 C16 1.282 . S
C7 O8 1.261 . S
C7 O20 1.251 . S
O8 C7 1.261 . S
H9 C3 0.930 . S
H10 C5 0.930 . S
N11 Cu0 1.985 1_556 S
N11 C13 1.335 . S
N11 C14 1.390 . S
N12 C13 1.345 . S
N12 C15 1.336 . S
C13 N11 1.335 . S
C13 N12 1.345 . S
C13 H18 0.930 . S
C14 N11 1.390 . S
C14 C15 1.346 . S
C14 H19 0.930 . S
C15 N12 1.336 . S
C15 C14 1.346 . S
C15 H22 0.929 . S
C16 O6 1.282 . S
C16 O17 1.216 . S
O17 C16 1.216 . S
H18 C13 0.930 . S
H19 C14 0.930 . S
O20 Cu0 1.959 . S
O20 C7 1.251 . S
H21 C4 0.930 . S
H22 C15 0.929 . S
Cu23 N24 1.999 1_554 S
Cu23 O29 1.974 . S
Cu23 N34 1.985 . S
Cu23 O43 1.959 1_554 S
N24 Cu23 1.999 1_556 S
N24 C26 1.263 . S
N24 C28 1.389 . S
N25 C26 1.358 . S
N25 C27 1.400 . S
C26 N24 1.263 . S
C26 N25 1.358 . S
C26 H32 0.930 . S
C27 N25 1.400 . S
C27 C28 1.351 . S
C27 H44 0.930 . S
C28 N24 1.389 . S
C28 C27 1.351 . S
C28 H33 0.930 . S
O29 Cu23 1.974 . S
O29 C39 1.282 . S
C30 O31 1.261 1_556 S
C30 O43 1.251 . S
O31 C30 1.261 1_554 S
H32 C26 0.930 . S
H33 C28 0.930 . S
N34 Cu23 1.985 . S
N34 C36 1.335 . S
N34 C37 1.390 . S
N35 C36 1.345 . S
N35 C38 1.336 . S
C36 N34 1.335 . S
C36 N35 1.345 . S
C36 H41 0.930 . S
C37 N34 1.390 . S
C37 C38 1.346 . S
C37 H42 0.930 . S
C38 N35 1.336 . S
C38 C37 1.346 . S
C38 H45 0.929 . S
C39 O29 1.282 . S
C39 O40 1.216 . S
O40 C39 1.216 . S
H41 C36 0.930 . S
H42 C37 0.930 . S
O43 Cu23 1.959 1_556 S
O43 C30 1.251 . S
H44 C27 0.930 . S
H45 C38 0.929 . S
Cu46 N47 1.999 1_554 S
Cu46 O52 1.974 . S
Cu46 N57 1.985 1_565 S
Cu46 O66 1.976 1_565 S
N47 Cu46 1.999 1_556 S
N47 C49 1.263 . S
N47 C51 1.389 . S
N48 C49 1.358 . S
N48 C50 1.400 . S
C49 N47 1.263 . S
C49 N48 1.358 . S
C49 H55 0.930 1_565 S
C50 N48 1.400 . S
C50 C51 1.351 . S
C50 H67 0.930 . S
C51 N47 1.389 . S
C51 C50 1.351 . S
C51 H56 0.930 . S
O52 Cu46 1.974 . S
O52 C62 1.282 1_565 S
C53 O54 1.261 . S
C53 O66 1.290 . S
O54 C53 1.261 . S
H55 C49 0.930 1_545 S
H56 C51 0.930 . S
N57 Cu46 1.985 1_545 S
N57 C59 1.277 1_545 S
N57 C60 1.410 . S
N58 C59 1.335 1_545 S
N58 C61 1.336 . S
C59 N57 1.277 1_565 S
C59 N58 1.335 1_565 S
C59 H64 0.974 . S
C60 N57 1.410 . S
C60 C61 1.346 . S
C60 H65 0.930 . S
C61 N58 1.336 . S
C61 C60 1.346 . S
C61 H68 0.929 . S
C62 O52 1.282 1_545 S
C62 O63 1.216 . S
O63 C62 1.216 . S
H64 C59 0.974 . S
H65 C60 0.930 . S
O66 Cu46 1.976 1_545 S
O66 C53 1.290 . S
H67 C50 0.930 . S
H68 C61 0.929 . S
Cu69 N70 1.999 . S
Cu69 O75 1.974 . S
Cu69 N80 1.985 . S
Cu69 O89 1.959 . S
N70 Cu69 1.999 . S
N70 C72 1.263 . S
N70 C74 1.389 . S
N71 C72 1.358 . S
N71 C73 1.400 . S
C72 N70 1.263 . S
C72 N71 1.358 . S
C72 H78 0.930 . S
C73 N71 1.400 . S
C73 C74 1.351 . S
C73 H90 0.930 . S
C74 N70 1.389 . S
C74 C73 1.351 . S
C74 H79 0.930 . S
O75 Cu69 1.974 . S
O75 C85 1.282 . S
C76 O77 1.261 . S
C76 O89 1.251 . S
O77 C76 1.261 . S
H78 C72 0.930 . S
H79 C74 0.930 . S
N80 Cu69 1.985 . S
N80 C82 1.335 . S
N80 C83 1.390 . S
N81 C82 1.345 . S
N81 C84 1.336 . S
C82 N80 1.335 . S
C82 N81 1.345 . S
C82 H87 0.930 . S
C83 N80 1.390 . S
C83 C84 1.346 . S
C83 H88 0.930 . S
C84 N81 1.336 . S
C84 C83 1.346 . S
C84 H91 0.929 . S
C85 O75 1.282 . S
C85 O86 1.216 1_545 S
O86 C85 1.216 1_565 S
H87 C82 0.930 . S
H88 C83 0.930 . S
O89 Cu69 1.959 . S
O89 C76 1.251 . S
H90 C73 0.930 . S
H91 C84 0.929 . S
Cu92 N93 1.999 . S
Cu92 O98 1.974 . S
Cu92 N103 1.985 . S
Cu92 O112 1.959 . S
N93 Cu92 1.999 . S
N93 C95 1.263 . S
N93 C97 1.389 . S
N94 C95 1.358 . S
N94 C96 1.400 . S
C95 N93 1.263 . S
C95 N94 1.358 . S
C95 H101 0.930 . S
C96 N94 1.400 . S
C96 C97 1.351 . S
C96 H113 0.930 . S
C97 N93 1.389 . S
C97 C96 1.351 . S
C97 H102 0.930 . S
O98 Cu92 1.974 . S
O98 C108 1.282 . S
C99 O100 1.261 . S
C99 O112 1.251 . S
O100 C99 1.261 . S
H101 C95 0.930 . S
H102 C97 0.930 . S
N103 Cu92 1.985 . S
N103 C105 1.335 . S
N103 C106 1.390 . S
N104 C105 1.345 . S
N104 C107 1.336 . S
C105 N103 1.335 . S
C105 N104 1.345 . S
C105 H110 0.930 . S
C106 N103 1.390 . S
C106 C107 1.346 . S
C106 H111 0.930 . S
C107 N104 1.336 . S
C107 C106 1.346 . S
C107 H114 0.929 . S
C108 O98 1.282 . S
C108 O109 1.216 . S
O109 C108 1.216 . S
H110 C105 0.930 . S
H111 C106 0.930 . S
O112 Cu92 1.959 . S
O112 C99 1.251 . S
H113 C96 0.930 . S
H114 C107 0.929 . S
Cu115 N116 1.999 . S
Cu115 O121 1.974 . S
Cu115 N126 1.985 . S
Cu115 O135 1.959 . S
N116 Cu115 1.999 . S
N116 C118 1.263 . S
N116 C120 1.389 . S
N117 C118 1.358 . S
N117 C119 1.400 . S
C118 N116 1.263 . S
C118 N117 1.358 . S
C118 H124 0.930 . S
C119 N117 1.400 . S
C119 C120 1.351 . S
C119 H136 0.930 . S
C120 N116 1.389 . S
C120 C119 1.351 . S
C120 H125 0.930 . S
O121 Cu115 1.974 . S
O121 C131 1.282 . S
C122 O123 1.261 . S
C122 O135 1.251 . S
O123 C122 1.261 . S
H124 C118 0.930 . S
H125 C120 0.930 . S
N126 Cu115 1.985 . S
N126 C128 1.335 . S
N126 C129 1.390 . S
N127 C128 1.345 . S
N127 C130 1.336 . S
C128 N126 1.335 . S
C128 N127 1.345 . S
C128 H133 0.930 . S
C129 N126 1.390 . S
C129 C130 1.346 . S
C129 H134 0.930 . S
C130 N127 1.336 . S
C130 C129 1.346 . S
C130 H137 0.929 . S
C131 O121 1.282 . S
C131 O132 1.216 . S
O132 C131 1.216 . S
H133 C128 0.930 . S
H134 C129 0.930 . S
O135 Cu115 1.959 . S
O135 C122 1.251 . S
H136 C119 0.930 . S
H137 C130 0.929 . S
Cu138 N139 1.999 . S
Cu138 O144 1.974 . S
Cu138 N149 1.985 . S
Cu138 O158 1.959 . S
N139 Cu138 1.999 . S
N139 C141 1.263 . S
N139 C143 1.389 . S
N140 C141 1.358 . S
N140 C142 1.400 . S
C141 N139 1.263 . S
C141 N140 1.358 . S
C141 H147 0.930 . S
C142 N140 1.400 . S
C142 C143 1.351 . S
C142 H159 0.930 . S
C143 N139 1.389 . S
C143 C142 1.351 . S
C143 H148 0.930 . S
O144 Cu138 1.974 . S
O144 C154 1.282 . S
C145 O146 1.261 . S
C145 O158 1.251 . S
O146 C145 1.261 . S
H147 C141 0.930 . S
H148 C143 0.930 . S
N149 Cu138 1.985 . S
N149 C151 1.335 . S
N149 C152 1.390 . S
N150 C151 1.345 . S
N150 C153 1.336 . S
C151 N149 1.335 . S
C151 N150 1.345 . S
C151 H156 0.930 . S
C152 N149 1.390 . S
C152 C153 1.346 . S
C152 H157 0.930 . S
C153 N150 1.336 . S
C153 C152 1.346 . S
C153 H160 0.929 . S
C154 O144 1.282 . S
C154 O155 1.216 . S
O155 C154 1.216 . S
H156 C151 0.930 . S
H157 C152 0.930 . S
O158 Cu138 1.959 . S
O158 C145 1.251 . S
H159 C142 0.930 . S
H160 C153 0.929 . S
Cu161 N162 1.999 . S
Cu161 O167 1.974 . S
Cu161 N172 1.985 . S
Cu161 O181 1.959 . S
N162 Cu161 1.999 . S
N162 C164 1.263 . S
N162 C166 1.389 . S
N163 C164 1.358 . S
N163 C165 1.400 . S
C164 N162 1.263 . S
C164 N163 1.358 . S
C164 H170 0.930 . S
C165 N163 1.400 . S
C165 C166 1.351 . S
C165 H182 0.930 . S
C166 N162 1.389 . S
C166 C165 1.351 . S
C166 H171 0.930 . S
O167 Cu161 1.974 . S
O167 C177 1.282 . S
C168 O169 1.261 . S
C168 O181 1.251 . S
O169 C168 1.261 . S
H170 C164 0.930 . S
H171 C166 0.930 . S
N172 Cu161 1.985 . S
N172 C174 1.335 . S
N172 C175 1.390 . S
N173 C174 1.345 . S
N173 C176 1.336 . S
C174 N172 1.335 . S
C174 N173 1.345 . S
C174 H179 0.930 . S
C175 N172 1.390 . S
C175 C176 1.346 . S
C175 H180 0.930 . S
C176 N173 1.336 . S
C176 C175 1.346 . S
C176 H183 0.929 . S
C177 O167 1.282 . S
C177 O178 1.216 . S
O178 C177 1.216 . S
H179 C174 0.930 . S
H180 C175 0.930 . S
O181 Cu161 1.959 . S
O181 C168 1.251 . S
H182 C165 0.930 . S
H183 C176 0.929 . S
Cu184 N185 1.999 . S
Cu184 O190 1.974 . S
Cu184 N195 1.985 . S
Cu184 O204 1.959 . S
N185 Cu184 1.999 . S
N185 C187 1.263 . S
N185 C189 1.389 . S
N186 C187 1.358 . S
N186 C188 1.400 . S
C187 N185 1.263 . S
C187 N186 1.358 . S
C187 H193 0.930 . S
C188 N186 1.400 . S
C188 C189 1.351 . S
C188 H205 0.930 . S
C189 N185 1.389 . S
C189 C188 1.351 . S
C189 H194 0.930 . S
O190 Cu184 1.974 . S
O190 C200 1.282 . S
C191 O192 1.261 . S
C191 O204 1.251 . S
O192 C191 1.261 . S
H193 C187 0.930 . S
H194 C189 0.930 . S
N195 Cu184 1.985 . S
N195 C197 1.335 . S
N195 C198 1.390 . S
N196 C197 1.345 . S
N196 C199 1.336 . S
C197 N195 1.335 . S
C197 N196 1.345 . S
C197 H202 0.930 . S
C198 N195 1.390 . S
C198 C199 1.346 . S
C198 H203 0.930 . S
C199 N196 1.336 . S
C199 C198 1.346 . S
C199 H206 0.929 . S
C200 O190 1.282 . S
C200 O201 1.216 . S
O201 C200 1.216 . S
H202 C197 0.930 . S
H203 C198 0.930 . S
O204 Cu184 1.959 . S
O204 C191 1.251 . S
H205 C188 0.930 . S
H206 C199 0.929 . S
Cu207 N208 1.999 . S
Cu207 O213 1.974 . S
Cu207 N218 1.985 . S
Cu207 O227 1.959 . S
N208 Cu207 1.999 . S
N208 C210 1.263 . S
N208 C212 1.389 . S
N209 C210 1.358 . S
N209 C211 1.400 . S
C210 N208 1.263 . S
C210 N209 1.358 . S
C210 H216 0.930 . S
C211 N209 1.400 . S
C211 C212 1.351 . S
C211 H228 0.930 . S
C212 N208 1.389 . S
C212 C211 1.351 . S
C212 H217 0.930 . S
O213 Cu207 1.974 . S
O213 C223 1.282 . S
C214 O215 1.261 . S
C214 O227 1.251 . S
O215 C214 1.261 . S
H216 C210 0.930 . S
H217 C212 0.930 . S
N218 Cu207 1.985 . S
N218 C220 1.335 . S
N218 C221 1.390 . S
N219 C220 1.345 . S
N219 C222 1.336 . S
C220 N218 1.335 . S
C220 N219 1.345 . S
C220 H225 0.930 . S
C221 N218 1.390 . S
C221 C222 1.346 . S
C221 H226 0.930 . S
C222 N219 1.336 . S
C222 C221 1.346 . S
C222 H229 0.929 . S
C223 O213 1.282 . S
C223 O224 1.216 . S
O224 C223 1.216 . S
H225 C220 0.930 . S
H226 C221 0.930 . S
O227 Cu207 1.959 . S
O227 C214 1.251 . S
H228 C211 0.930 . S
H229 C222 0.929 . S
Cu230 N231 1.999 . S
Cu230 O236 1.974 . S
Cu230 N241 1.985 . S
Cu230 O250 1.959 . S
N231 Cu230 1.999 . S
N231 C233 1.263 . S
N231 C235 1.389 . S
N232 C233 1.358 . S
N232 C234 1.400 . S
C233 N231 1.263 . S
C233 N232 1.358 . S
C233 H239 0.930 . S
C234 N232 1.400 . S
C234 C235 1.351 . S
C234 H251 0.930 . S
C235 N231 1.389 . S
C235 C234 1.351 . S
C235 H240 0.930 . S
O236 Cu230 1.974 . S
O236 C246 1.282 . S
C237 O238 1.261 . S
C237 O250 1.251 . S
O238 C237 1.261 . S
H239 C233 0.930 . S
H240 C235 0.930 . S
N241 Cu230 1.985 . S
N241 C243 1.335 . S
N241 C244 1.390 . S
N242 C243 1.345 . S
N242 C245 1.336 . S
C243 N241 1.335 . S
C243 N242 1.345 . S
C243 H248 0.930 . S
C244 N241 1.390 . S
C244 C245 1.346 . S
C244 H249 0.930 . S
C245 N242 1.336 . S
C245 C244 1.346 . S
C245 H252 0.929 . S
C246 O236 1.282 . S
C246 O247 1.216 . S
O247 C246 1.216 . S
H248 C243 0.930 . S
H249 C244 0.930 . S
O250 Cu230 1.959 . S
O250 C237 1.251 . S
H251 C234 0.930 . S
H252 C245 0.929 . S
Cu253 N254 1.999 . S
Cu253 O259 1.974 . S
Cu253 N264 1.985 . S
Cu253 O273 1.959 . S
N254 Cu253 1.999 . S
N254 C256 1.263 . S
N254 C258 1.389 . S
N255 C256 1.358 . S
N255 C257 1.400 . S
C256 N254 1.263 . S
C256 N255 1.358 . S
C256 H262 0.930 . S
C257 N255 1.400 . S
C257 C258 1.351 . S
C257 H274 0.930 . S
C258 N254 1.389 . S
C258 C257 1.351 . S
C258 H263 0.930 . S
O259 Cu253 1.974 . S
O259 C269 1.282 . S
C260 O261 1.261 . S
C260 O273 1.251 . S
O261 C260 1.261 . S
H262 C256 0.930 . S
H263 C258 0.930 . S
N264 Cu253 1.985 . S
N264 C266 1.335 . S
N264 C267 1.390 . S
N265 C266 1.345 . S
N265 C268 1.336 . S
C266 N264 1.335 . S
C266 N265 1.345 . S
C266 H271 0.930 . S
C267 N264 1.390 . S
C267 C268 1.346 . S
C267 H272 0.930 . S
C268 N265 1.336 . S
C268 C267 1.346 . S
C268 H275 0.929 . S
C269 O259 1.282 . S
C269 O270 1.216 . S
O270 C269 1.216 . S
H271 C266 0.930 . S
H272 C267 0.930 . S
O273 Cu253 1.959 . S
O273 C260 1.251 . S
H274 C257 0.930 . S
H275 C268 0.929 . S
Cu276 N277 1.999 . S
Cu276 O282 1.974 . S
Cu276 N287 1.985 . S
Cu276 O296 1.959 . S
N277 Cu276 1.999 . S
N277 C279 1.263 . S
N277 C281 1.389 . S
N278 C279 1.358 . S
N278 C280 1.400 . S
C279 N277 1.263 . S
C279 N278 1.358 . S
C279 H285 0.930 . S
C280 N278 1.400 . S
C280 C281 1.351 . S
C280 H297 0.930 . S
C281 N277 1.389 . S
C281 C280 1.351 . S
C281 H286 0.930 . S
O282 Cu276 1.974 . S
O282 C292 1.282 . S
C283 O284 1.261 . S
C283 O296 1.251 . S
O284 C283 1.261 . S
H285 C279 0.930 . S
H286 C281 0.930 . S
N287 Cu276 1.985 . S
N287 C289 1.335 . S
N287 C290 1.390 . S
N288 C289 1.345 . S
N288 C291 1.336 . S
C289 N287 1.335 . S
C289 N288 1.345 . S
C289 H294 0.930 . S
C290 N287 1.390 . S
C290 C291 1.346 . S
C290 H295 0.930 . S
C291 N288 1.336 . S
C291 C290 1.346 . S
C291 H298 0.929 . S
C292 O282 1.282 . S
C292 O293 1.216 . S
O293 C292 1.216 . S
H294 C289 0.930 . S
H295 C290 0.930 . S
O296 Cu276 1.959 . S
O296 C283 1.251 . S
H297 C280 0.930 . S
H298 C291 0.929 . S
Cu299 N300 1.999 . S
Cu299 O305 1.974 . S
Cu299 N310 1.985 . S
Cu299 O319 1.959 . S
N300 Cu299 1.999 . S
N300 C302 1.263 . S
N300 C304 1.389 . S
N301 C302 1.358 . S
N301 C303 1.400 . S
C302 N300 1.263 . S
C302 N301 1.358 . S
C302 H308 0.930 . S
C303 N301 1.400 . S
C303 C304 1.351 . S
C303 H320 0.930 . S
C304 N300 1.389 . S
C304 C303 1.351 . S
C304 H309 0.930 . S
O305 Cu299 1.974 . S
O305 C315 1.282 . S
C306 O307 1.261 . S
C306 O319 1.251 . S
O307 C306 1.261 . S
H308 C302 0.930 . S
H309 C304 0.930 . S
N310 Cu299 1.985 . S
N310 C312 1.335 . S
N310 C313 1.390 . S
N311 C312 1.345 . S
N311 C314 1.336 . S
C312 N310 1.335 . S
C312 N311 1.345 . S
C312 H317 0.930 . S
C313 N310 1.390 . S
C313 C314 1.346 . S
C313 H318 0.930 . S
C314 N311 1.336 . S
C314 C313 1.346 . S
C314 H321 0.929 . S
C315 O305 1.282 . S
C315 O316 1.216 . S
O316 C315 1.216 . S
H317 C312 0.930 . S
H318 C313 0.930 . S
O319 Cu299 1.959 . S
O319 C306 1.251 . S
H320 C303 0.930 . S
H321 C314 0.929 . S
Cu322 N323 1.999 . S
Cu322 O328 1.974 . S
Cu322 N333 1.985 . S
Cu322 O342 1.959 . S
N323 Cu322 1.999 . S
N323 C325 1.263 . S
N323 C327 1.389 . S
N324 C325 1.358 . S
N324 C326 1.400 . S
C325 N323 1.263 . S
C325 N324 1.358 . S
C325 H331 0.930 . S
C326 N324 1.400 . S
C326 C327 1.351 . S
C326 H343 0.930 . S
C327 N323 1.389 . S
C327 C326 1.351 . S
C327 H332 0.930 . S
O328 Cu322 1.974 . S
O328 C338 1.282 . S
C329 O330 1.261 . S
C329 O342 1.251 . S
O330 C329 1.261 . S
H331 C325 0.930 . S
H332 C327 0.930 . S
N333 Cu322 1.985 . S
N333 C335 1.335 . S
N333 C336 1.390 . S
N334 C335 1.345 . S
N334 C337 1.336 . S
C335 N333 1.335 . S
C335 N334 1.345 . S
C335 H340 0.930 . S
C336 N333 1.390 . S
C336 C337 1.346 . S
C336 H341 0.930 . S
C337 N334 1.336 . S
C337 C336 1.346 . S
C337 H344 0.929 . S
C338 O328 1.282 . S
C338 O339 1.216 . S
O339 C338 1.216 . S
H340 C335 0.930 . S
H341 C336 0.930 . S
O342 Cu322 1.959 . S
O342 C329 1.251 . S
H343 C326 0.930 . S
H344 C337 0.929 . S
Cu345 N346 1.999 . S
Cu345 O351 1.974 . S
Cu345 N356 1.985 . S
Cu345 O365 1.959 . S
N346 Cu345 1.999 . S
N346 C348 1.263 . S
N346 C350 1.389 . S
N347 C348 1.358 . S
N347 C349 1.400 . S
C348 N346 1.263 . S
C348 N347 1.358 . S
C348 H354 0.930 . S
C349 N347 1.400 . S
C349 C350 1.351 . S
C349 H366 0.930 . S
C350 N346 1.389 . S
C350 C349 1.351 . S
C350 H355 0.930 . S
O351 Cu345 1.974 . S
O351 C361 1.282 . S
C352 O353 1.261 . S
C352 O365 1.251 . S
O353 C352 1.261 . S
H354 C348 0.930 . S
H355 C350 0.930 . S
N356 Cu345 1.985 . S
N356 C358 1.335 . S
N356 C359 1.390 . S
N357 C358 1.345 . S
N357 C360 1.336 . S
C358 N356 1.335 . S
C358 N357 1.345 . S
C358 H363 0.930 . S
C359 N356 1.390 . S
C359 C360 1.346 . S
C359 H364 0.930 . S
C360 N357 1.336 . S
C360 C359 1.346 . S
C360 H367 0.929 . S
C361 O351 1.282 . S
C361 O362 1.216 . S
O362 C361 1.216 . S
H363 C358 0.930 . S
H364 C359 0.930 . S
O365 Cu345 1.959 . S
O365 C352 1.251 . S
H366 C349 0.930 . S
H367 C360 0.929 . S
Cu368 N369 1.999 . S
Cu368 O374 1.974 . S
Cu368 N379 1.985 . S
Cu368 O388 1.959 . S
N369 Cu368 1.999 . S
N369 C371 1.263 . S
N369 C373 1.389 . S
N370 C371 1.358 . S
N370 C372 1.400 . S
C371 N369 1.263 . S
C371 N370 1.358 . S
C371 H377 0.930 . S
C372 N370 1.400 . S
C372 C373 1.351 . S
C372 H389 0.930 . S
C373 N369 1.389 . S
C373 C372 1.351 . S
C373 H378 0.930 . S
O374 Cu368 1.974 . S
O374 C384 1.282 . S
C375 O376 1.261 . S
C375 O388 1.251 . S
O376 C375 1.261 . S
H377 C371 0.930 . S
H378 C373 0.930 . S
N379 Cu368 1.985 . S
N379 C381 1.335 . S
N379 C382 1.390 . S
N380 C381 1.345 . S
N380 C383 1.336 . S
C381 N379 1.335 . S
C381 N380 1.345 . S
C381 H386 0.930 . S
C382 N379 1.390 . S
C382 C383 1.346 . S
C382 H387 0.930 . S
C383 N380 1.336 . S
C383 C382 1.346 . S
C383 H390 0.929 . S
C384 O374 1.282 . S
C384 O385 1.216 . S
O385 C384 1.216 . S
H386 C381 0.930 . S
H387 C382 0.930 . S
O388 Cu368 1.959 . S
O388 C375 1.251 . S
H389 C372 0.930 . S
H390 C383 0.929 . S
Cu391 N392 1.999 . S
Cu391 O397 1.974 . S
Cu391 N402 1.985 . S
Cu391 O411 1.959 . S
N392 Cu391 1.999 . S
N392 C394 1.263 . S
N392 C396 1.389 . S
N393 C394 1.358 . S
N393 C395 1.400 . S
C394 N392 1.263 . S
C394 N393 1.358 . S
C394 H400 0.930 . S
C395 N393 1.400 . S
C395 C396 1.351 . S
C395 H412 0.930 . S
C396 N392 1.389 . S
C396 C395 1.351 . S
C396 H401 0.930 . S
O397 Cu391 1.974 . S
O397 C407 1.282 . S
C398 O399 1.261 . S
C398 O411 1.251 . S
O399 C398 1.261 . S
H400 C394 0.930 . S
H401 C396 0.930 . S
N402 Cu391 1.985 . S
N402 C404 1.335 . S
N402 C405 1.390 . S
N403 C404 1.345 . S
N403 C406 1.336 . S
C404 N402 1.335 . S
C404 N403 1.345 . S
C404 H409 0.930 . S
C405 N402 1.390 . S
C405 C406 1.346 . S
C405 H410 0.930 . S
C406 N403 1.336 . S
C406 C405 1.346 . S
C406 H413 0.929 . S
C407 O397 1.282 . S
C407 O408 1.216 . S
O408 C407 1.216 . S
H409 C404 0.930 . S
H410 C405 0.930 . S
O411 Cu391 1.959 . S
O411 C398 1.251 . S
H412 C395 0.930 . S
H413 C406 0.929 . S
Mn414 O419 2.095 . S
Mn414 O429 2.162 . S
Mn414 O430 2.297 . S
Mn414 O438 2.412 . S
Mn414 O439 2.209 1_455 S
Mn414 O440 2.094 . S
Mn415 O420 2.121 . S
Mn415 N422 2.257 . S
Mn415 N431 2.282 . S
Mn415 O439 2.215 . S
Mn415 O441 2.117 1_655 S
C416 O438 1.218 1_655 S
C416 O439 1.283 . S
C417 O429 1.281 . S
C417 O430 1.236 . S
C418 O440 1.240 . S
C418 O441 1.264 . S
O419 Mn414 2.095 . S
O419 C428 1.250 . S
O420 Mn415 2.121 . S
O420 C428 1.258 1_655 S
C421 N422 1.326 . S
C421 C425 1.460 . S
C421 H427 0.929 . S
N422 Mn415 2.257 . S
N422 C421 1.326 . S
N422 C426 1.362 . S
C423 C424 1.258 . S
C423 C426 1.431 . S
C423 C443 1.449 . S
C424 C423 1.258 . S
C424 C425 1.477 . S
C424 H444 0.931 . S
C425 C421 1.460 . S
C425 C424 1.477 . S
C425 H445 0.930 . S
C426 N422 1.362 . S
C426 C423 1.431 . S
C426 C436 1.476 . S
H427 C421 0.929 . S
C428 O419 1.250 . S
C428 O420 1.258 1_455 S
O429 Mn414 2.162 . S
O429 C417 1.281 . S
O430 Mn414 2.297 . S
O430 C417 1.236 . S
N431 Mn415 2.282 . S
N431 C432 1.328 . S
N431 C436 1.318 . S
C432 N431 1.328 . S
C432 C433 1.457 . S
C432 H437 0.929 . S
C433 C432 1.457 . S
C433 C434 1.291 . S
C433 H446 0.931 . S
C434 C433 1.291 . S
C434 C435 1.373 . S
C434 H447 0.929 . S
C435 C434 1.373 . S
C435 C436 1.396 . S
C435 C442 1.403 . S
C436 C426 1.476 . S
C436 N431 1.318 . S
C436 C435 1.396 . S
H437 C432 0.929 . S
O438 Mn414 2.412 . S
O438 C416 1.218 1_455 S
O439 Mn414 2.209 1_655 S
O439 Mn415 2.215 . S
O439 C416 1.283 . S
O440 Mn414 2.094 . S
O440 C418 1.240 . S
O441 Mn415 2.117 1_455 S
O441 C418 1.264 . S
C442 C435 1.403 . S
C442 C443 1.399 . S
C442 H448 0.929 . S
C443 C423 1.449 . S
C443 C442 1.399 . S
C443 H449 0.930 . S
H444 C424 0.931 . S
H445 C425 0.930 . S
H446 C433 0.931 . S
H447 C434 0.929 . S
H448 C442 0.929 . S
H449 C443 0.930 . S
Mn450 O455 2.095 . S
Mn450 O465 2.162 . S
Mn450 O466 2.297 . S
Mn450 O474 2.385 . S
Mn450 O475 2.209 . S
Mn450 O476 2.094 . S
Mn451 O456 2.121 . S
Mn451 N458 2.257 . S
Mn451 N467 2.282 . S
Mn451 O475 2.215 . S
Mn451 O477 2.117 . S
C452 O474 1.234 . S
C452 O475 1.283 . S
C453 O465 1.281 . S
C453 O466 1.236 . S
C454 O476 1.240 . S
C454 O477 1.264 . S
O455 Mn450 2.095 . S
O455 C464 1.250 . S
O456 Mn451 2.121 . S
O456 C464 1.258 . S
C457 N458 1.326 . S
C457 C461 1.460 . S
C457 H463 0.929 . S
N458 Mn451 2.257 . S
N458 C457 1.326 . S
N458 C462 1.362 . S
C459 C460 1.258 . S
C459 C462 1.431 . S
C459 C479 1.449 . S
C460 C459 1.258 . S
C460 C461 1.477 . S
C460 H480 0.931 . S
C461 C457 1.460 . S
C461 C460 1.477 . S
C461 H481 0.930 . S
C462 N458 1.362 . S
C462 C459 1.431 . S
C462 C472 1.476 . S
H463 C457 0.929 . S
C464 O455 1.250 . S
C464 O456 1.258 . S
O465 Mn450 2.162 . S
O465 C453 1.281 . S
O466 Mn450 2.297 . S
O466 C453 1.236 . S
N467 Mn451 2.282 . S
N467 C468 1.328 . S
N467 C472 1.318 . S
C468 N467 1.328 . S
C468 C469 1.457 . S
C468 H473 0.929 . S
C469 C468 1.457 . S
C469 C470 1.291 . S
C469 H482 0.931 . S
C470 C469 1.291 . S
C470 C471 1.373 . S
C470 H483 0.929 . S
C471 C470 1.373 . S
C471 C472 1.396 . S
C471 C478 1.403 . S
C472 C462 1.476 . S
C472 N467 1.318 . S
C472 C471 1.396 . S
H473 C468 0.929 . S
O474 Mn450 2.385 . S
O474 C452 1.234 . S
O475 Mn450 2.209 . S
O475 Mn451 2.215 . S
O475 C452 1.283 . S
O476 Mn450 2.094 . S
O476 C454 1.240 . S
O477 Mn451 2.117 . S
O477 C454 1.264 . S
C478 C471 1.403 . S
C478 C479 1.399 . S
C478 H484 0.929 . S
C479 C459 1.449 . S
C479 C478 1.399 . S
C479 H485 0.930 . S
H480 C460 0.931 . S
H481 C461 0.930 . S
H482 C469 0.931 . S
H483 C470 0.929 . S
H484 C478 0.929 . S
H485 C479 0.930 . S
Mn486 O491 2.095 . S
Mn486 O501 2.162 . S
Mn486 O502 2.297 . S
Mn486 O510 2.385 . S
Mn486 O511 2.209 . S
Mn486 O512 2.094 . S
Mn487 O492 2.121 . S
Mn487 N494 2.257 . S
Mn487 N503 2.282 . S
Mn487 O511 2.215 . S
Mn487 O513 2.117 . S
C488 O510 1.234 . S
C488 O511 1.283 . S
C489 O501 1.281 . S
C489 O502 1.236 . S
C490 O512 1.240 . S
C490 O513 1.264 . S
O491 Mn486 2.095 . S
O491 C500 1.250 . S
O492 Mn487 2.121 . S
O492 C500 1.258 . S
C493 N494 1.326 . S
C493 C497 1.460 . S
C493 H499 0.929 . S
N494 Mn487 2.257 . S
N494 C493 1.326 . S
N494 C498 1.362 . S
C495 C496 1.258 . S
C495 C498 1.431 . S
C495 C515 1.449 . S
C496 C495 1.258 . S
C496 C497 1.477 . S
C496 H516 0.931 . S
C497 C493 1.460 . S
C497 C496 1.477 . S
C497 H517 0.930 . S
C498 N494 1.362 . S
C498 C495 1.431 . S
C498 C508 1.476 . S
H499 C493 0.929 . S
C500 O491 1.250 . S
C500 O492 1.258 . S
O501 Mn486 2.162 . S
O501 C489 1.281 . S
O502 Mn486 2.297 . S
O502 C489 1.236 . S
N503 Mn487 2.282 . S
N503 C504 1.328 . S
N503 C508 1.318 . S
C504 N503 1.328 . S
C504 C505 1.457 . S
C504 H509 0.929 . S
C505 C504 1.457 . S
C505 C506 1.291 . S
C505 H518 0.931 . S
C506 C505 1.291 . S
C506 C507 1.373 . S
C506 H519 0.929 . S
C507 C506 1.373 . S
C507 C508 1.396 . S
C507 C514 1.403 . S
C508 C498 1.476 . S
C508 N503 1.318 . S
C508 C507 1.396 . S
H509 C504 0.929 . S
O510 Mn486 2.385 . S
O510 C488 1.234 . S
O511 Mn486 2.209 . S
O511 Mn487 2.215 . S
O511 C488 1.283 . S
O512 Mn486 2.094 . S
O512 C490 1.240 . S
O513 Mn487 2.117 . S
O513 C490 1.264 . S
C514 C507 1.403 . S
C514 C515 1.399 . S
C514 H520 0.929 . S
C515 C495 1.449 . S
C515 C514 1.399 . S
C515 H521 0.930 . S
H516 C496 0.931 . S
H517 C497 0.930 . S
H518 C505 0.931 . S
H519 C506 0.929 . S
H520 C514 0.929 . S
H521 C515 0.930 . S
Mn522 O527 2.095 . S
Mn522 O537 2.162 . S
Mn522 O538 2.297 . S
Mn522 O546 2.385 . S
Mn522 O547 2.209 . S
Mn522 O548 2.094 1_455 S
Mn523 O528 2.121 . S
Mn523 N530 2.257 . S
Mn523 N539 2.282 . S
Mn523 O547 2.215 . S
Mn523 O549 2.117 . S
C524 O546 1.234 . S
C524 O547 1.283 . S
C525 O537 1.281 . S
C525 O538 1.236 . S
C526 O548 1.240 . S
C526 O549 1.264 1_655 S
O527 Mn522 2.095 . S
O527 C536 1.250 . S
O528 Mn523 2.121 . S
O528 C536 1.258 . S
C529 N530 1.326 . S
C529 C533 1.460 . S
C529 H535 0.929 . S
N530 Mn523 2.257 . S
N530 C529 1.326 . S
N530 C534 1.362 . S
C531 C532 1.258 . S
C531 C534 1.431 . S
C531 C551 1.449 . S
C532 C531 1.258 . S
C532 C533 1.477 . S
C532 H552 0.931 . S
C533 C529 1.460 . S
C533 C532 1.477 . S
C533 H553 0.930 . S
C534 N530 1.362 . S
C534 C531 1.431 . S
C534 C544 1.476 . S
H535 C529 0.929 . S
C536 O527 1.250 . S
C536 O528 1.258 . S
O537 Mn522 2.162 . S
O537 C525 1.281 . S
O538 Mn522 2.297 . S
O538 C525 1.236 . S
N539 Mn523 2.282 . S
N539 C540 1.328 . S
N539 C544 1.318 . S
C540 N539 1.328 . S
C540 C541 1.457 . S
C540 H545 0.929 . S
C541 C540 1.457 . S
C541 C542 1.291 . S
C541 H554 0.931 . S
C542 C541 1.291 . S
C542 C543 1.373 . S
C542 H555 0.929 . S
C543 C542 1.373 . S
C543 C544 1.396 . S
C543 C550 1.403 . S
C544 C534 1.476 . S
C544 N539 1.318 . S
C544 C543 1.396 . S
H545 C540 0.929 . S
O546 Mn522 2.385 . S
O546 C524 1.234 . S
O547 Mn522 2.209 . S
O547 Mn523 2.215 . S
O547 C524 1.283 . S
O548 Mn522 2.094 1_655 S
O548 C526 1.240 . S
O549 Mn523 2.117 . S
O549 C526 1.264 1_455 S
C550 C543 1.403 . S
C550 C551 1.399 . S
C550 H556 0.929 . S
C551 C531 1.449 . S
C551 C550 1.399 . S
C551 H557 0.930 . S
H552 C532 0.931 . S
H553 C533 0.930 . S
H554 C541 0.931 . S
H555 C542 0.929 . S
H556 C550 0.929 . S
H557 C551 0.930 . S
Mn558 O563 2.095 . S
Mn558 O573 2.162 . S
Mn558 O574 2.297 . S
Mn558 O582 2.385 . S
Mn558 O583 2.209 . S
Mn558 O584 2.094 . S
Mn559 O564 2.121 . S
Mn559 N566 2.257 . S
Mn559 N575 2.282 . S
Mn559 O583 2.215 . S
Mn559 O585 2.117 . S
C560 O582 1.234 . S
C560 O583 1.283 . S
C561 O573 1.281 . S
C561 O574 1.236 . S
C562 O584 1.240 . S
C562 O585 1.264 . S
O563 Mn558 2.095 . S
O563 C572 1.250 . S
O564 Mn559 2.121 . S
O564 C572 1.258 . S
C565 N566 1.326 . S
C565 C569 1.460 . S
C565 H571 0.929 . S
N566 Mn559 2.257 . S
N566 C565 1.326 . S
N566 C570 1.362 . S
C567 C568 1.258 . S
C567 C570 1.431 . S
C567 C587 1.449 . S
C568 C567 1.258 . S
C568 C569 1.477 . S
C568 H588 0.931 . S
C569 C565 1.460 . S
C569 C568 1.477 . S
C569 H589 0.930 . S
C570 N566 1.362 . S
C570 C567 1.431 . S
C570 C580 1.476 . S
H571 C565 0.929 . S
C572 O563 1.250 . S
C572 O564 1.258 . S
O573 Mn558 2.162 . S
O573 C561 1.281 . S
O574 Mn558 2.297 . S
O574 C561 1.236 . S
N575 Mn559 2.282 . S
N575 C576 1.328 . S
N575 C580 1.318 . S
C576 N575 1.328 . S
C576 C577 1.457 . S
C576 H581 0.929 . S
C577 C576 1.457 . S
C577 C578 1.291 . S
C577 H590 0.931 . S
C578 C577 1.291 . S
C578 C579 1.373 . S
C578 H591 0.929 . S
C579 C578 1.373 . S
C579 C580 1.396 . S
C579 C586 1.403 . S
C580 C570 1.476 . S
C580 N575 1.318 . S
C580 C579 1.396 . S
H581 C576 0.929 . S
O582 Mn558 2.385 . S
O582 C560 1.234 . S
O583 Mn558 2.209 . S
O583 Mn559 2.215 . S
O583 C560 1.283 . S
O584 Mn558 2.094 . S
O584 C562 1.240 . S
O585 Mn559 2.117 . S
O585 C562 1.264 . S
C586 C579 1.403 . S
C586 C587 1.399 . S
C586 H592 0.929 . S
C587 C567 1.449 . S
C587 C586 1.399 . S
C587 H593 0.930 . S
H588 C568 0.931 . S
H589 C569 0.930 . S
H590 C577 0.931 . S
H591 C578 0.929 . S
H592 C586 0.929 . S
H593 C587 0.930 . S
Mn594 O599 2.095 . S
Mn594 O609 2.162 . S
Mn594 O610 2.297 . S
Mn594 O618 2.385 . S
Mn594 O619 2.209 . S
Mn594 O620 2.094 . S
Mn595 O600 2.121 . S
Mn595 N602 2.257 1_545 S
Mn595 N611 2.282 . S
Mn595 O619 2.215 . S
Mn595 O621 2.117 . S
C596 O618 1.234 . S
C596 O619 1.283 . S
C597 O609 1.281 . S
C597 O610 1.236 . S
C598 O620 1.240 . S
C598 O621 1.264 . S
O599 Mn594 2.095 . S
O599 C608 1.250 . S
O600 Mn595 2.121 . S
O600 C608 1.258 . S
C601 N602 1.326 . S
C601 C605 1.460 . S
C601 H607 0.929 . S
N602 Mn595 2.257 1_565 S
N602 C601 1.326 . S
N602 C606 1.362 . S
C603 C604 1.258 . S
C603 C606 1.431 . S
C603 C623 1.449 . S
C604 C603 1.258 . S
C604 C605 1.477 . S
C604 H624 0.931 . S
C605 C601 1.460 . S
C605 C604 1.477 . S
C605 H625 0.930 . S
C606 N602 1.362 . S
C606 C603 1.431 . S
C606 C616 1.476 . S
H607 C601 0.929 . S
C608 O599 1.250 . S
C608 O600 1.258 . S
O609 Mn594 2.162 . S
O609 C597 1.281 . S
O610 Mn594 2.297 . S
O610 C597 1.236 . S
N611 Mn595 2.282 . S
N611 C612 1.328 . S
N611 C616 1.318 1_545 S
C612 N611 1.328 . S
C612 C613 1.457 . S
C612 H617 0.929 . S
C613 C612 1.457 . S
C613 C614 1.259 1_545 S
C613 H626 0.931 . S
C614 C613 1.259 1_565 S
C614 C615 1.419 . S
C614 H627 0.918 . S
C615 C614 1.419 . S
C615 C616 1.396 . S
C615 C622 1.403 . S
C616 C606 1.476 . S
C616 N611 1.318 1_565 S
C616 C615 1.396 . S
H617 C612 0.929 . S
O618 Mn594 2.385 . S
O618 C596 1.234 . S
O619 Mn594 2.209 . S
O619 Mn595 2.215 . S
O619 C596 1.283 . S
O620 Mn594 2.094 . S
O620 C598 1.240 . S
O621 Mn595 2.117 . S
O621 C598 1.264 . S
C622 C615 1.403 . S
C622 C623 1.399 . S
C622 H628 0.929 . S
C623 C603 1.449 . S
C623 C622 1.399 . S
C623 H629 0.930 . S
H624 C604 0.931 . S
H625 C605 0.930 . S
H626 C613 0.931 . S
H627 C614 0.918 . S
H628 C622 0.929 . S
H629 C623 0.930 . S
Mn630 O635 2.095 1_545 S
Mn630 O645 2.162 . S
Mn630 O646 2.297 . S
Mn630 O654 2.385 . S
Mn630 O655 2.209 1_545 S
Mn630 O656 2.094 1_545 S
Mn631 O636 2.121 . S
Mn631 N638 2.257 . S
Mn631 N647 2.282 . S
Mn631 O655 2.215 . S
Mn631 O657 2.117 . S
C632 O654 1.255 . S
C632 O655 1.240 1_545 S
C633 O645 1.281 . S
C633 O646 1.236 . S
C634 O656 1.240 . S
C634 O657 1.264 . S
O635 Mn630 2.095 1_565 S
O635 C644 1.250 . S
O636 Mn631 2.121 . S
O636 C644 1.258 . S
C637 N638 1.326 . S
C637 C641 1.460 . S
C637 H643 0.929 . S
N638 Mn631 2.257 . S
N638 C637 1.326 . S
N638 C642 1.362 . S
C639 C640 1.258 . S
C639 C642 1.431 . S
C639 C659 1.449 . S
C640 C639 1.258 . S
C640 C641 1.477 . S
C640 H660 0.931 . S
C641 C637 1.460 . S
C641 C640 1.477 . S
C641 H661 0.930 . S
C642 N638 1.362 . S
C642 C639 1.431 . S
C642 C652 1.476 . S
H643 C637 0.929 . S
C644 O635 1.250 . S
C644 O636 1.258 . S
O645 Mn630 2.162 . S
O645 C633 1.281 . S
O646 Mn630 2.297 . S
O646 C633 1.236 . S
N647 Mn631 2.282 . S
N647 C648 1.328 . S
N647 C652 1.318 . S
C648 N647 1.328 . S
C648 C649 1.457 . S
C648 H653 0.929 . S
C649 C648 1.457 . S
C649 C650 1.291 . S
C649 H662 0.931 . S
C650 C649 1.291 . S
C650 C651 1.373 . S
C650 H663 0.929 . S
C651 C650 1.373 . S
C651 C652 1.396 . S
C651 C658 1.403 . S
C652 C642 1.476 . S
C652 N647 1.318 . S
C652 C651 1.396 . S
H653 C648 0.929 . S
O654 Mn630 2.385 . S
O654 C632 1.255 . S
O655 Mn630 2.209 1_565 S
O655 Mn631 2.215 . S
O655 C632 1.240 1_565 S
O656 Mn630 2.094 1_565 S
O656 C634 1.240 . S
O657 Mn631 2.117 . S
O657 C634 1.264 . S
C658 C651 1.403 . S
C658 C659 1.399 . S
C658 H664 0.929 . S
C659 C639 1.449 . S
C659 C658 1.399 . S
C659 H665 0.930 . S
H660 C640 0.931 . S
H661 C641 0.930 . S
H662 C649 0.931 . S
H663 C650 0.929 . S
H664 C658 0.929 . S
H665 C659 0.930 . S
Mn666 O671 2.095 . S
Mn666 O681 2.162 . S
Mn666 O682 2.297 . S
Mn666 O690 2.385 . S
Mn666 O691 2.209 . S
Mn666 O692 2.094 . S
Mn667 O672 2.121 . S
Mn667 N674 2.257 . S
Mn667 N683 2.282 . S
Mn667 O691 2.215 . S
Mn667 O693 2.117 . S
C668 O690 1.234 . S
C668 O691 1.283 . S
C669 O681 1.281 . S
C669 O682 1.236 . S
C670 O692 1.240 . S
C670 O693 1.264 . S
O671 Mn666 2.095 . S
O671 C680 1.250 . S
O672 Mn667 2.121 . S
O672 C680 1.258 . S
C673 N674 1.326 . S
C673 C677 1.460 . S
C673 H679 0.929 . S
N674 Mn667 2.257 . S
N674 C673 1.326 . S
N674 C678 1.362 . S
C675 C676 1.258 . S
C675 C678 1.431 1_655 S
C675 C695 1.449 . S
C676 C675 1.258 . S
C676 C677 1.477 1_655 S
C676 H696 0.931 . S
C677 C673 1.460 . S
C677 C676 1.477 1_455 S
C677 H697 0.930 . S
C678 N674 1.362 . S
C678 C675 1.431 1_455 S
C678 C688 1.476 . S
H679 C673 0.929 . S
C680 O671 1.250 . S
C680 O672 1.258 . S
O681 Mn666 2.162 . S
O681 C669 1.281 . S
O682 Mn666 2.297 . S
O682 C669 1.236 . S
N683 Mn667 2.282 . S
N683 C684 1.328 . S
N683 C688 1.318 . S
C684 N683 1.328 . S
C684 C685 1.457 . S
C684 H689 0.929 . S
C685 C684 1.457 . S
C685 C686 1.291 1_455 S
C685 H698 0.931 . S
C686 C685 1.291 1_655 S
C686 C687 1.373 . S
C686 H699 0.929 . S
C687 C686 1.373 . S
C687 C688 1.396 1_655 S
C687 C694 1.403 . S
C688 C678 1.476 . S
C688 N683 1.318 . S
C688 C687 1.396 1_455 S
H689 C684 0.929 . S
O690 Mn666 2.385 . S
O690 C668 1.234 . S
O691 Mn666 2.209 . S
O691 Mn667 2.215 . S
O691 C668 1.283 . S
O692 Mn666 2.094 . S
O692 C670 1.240 . S
O693 Mn667 2.117 . S
O693 C670 1.264 . S
C694 C687 1.403 . S
C694 C695 1.399 . S
C694 H700 0.929 . S
C695 C675 1.449 . S
C695 C694 1.399 . S
C695 H701 0.930 . S
H696 C676 0.931 . S
H697 C677 0.930 . S
H698 C685 0.931 . S
H699 C686 0.929 . S
H700 C694 0.929 . S
H701 C695 0.930 . S
Mn702 O707 2.095 . S
Mn702 O717 2.162 . S
Mn702 O718 2.297 . S
Mn702 O726 2.385 . S
Mn702 O727 2.209 . S
Mn702 O728 2.094 . S
Mn703 O708 2.121 . S
Mn703 N710 2.257 . S
Mn703 N719 2.282 . S
Mn703 O727 2.215 . S
Mn703 O729 2.117 . S
C704 O726 1.234 . S
C704 O727 1.283 . S
C705 O717 1.281 . S
C705 O718 1.236 . S
C706 O728 1.240 . S
C706 O729 1.264 . S
O707 Mn702 2.095 . S
O707 C716 1.250 . S
O708 Mn703 2.121 . S
O708 C716 1.258 . S
C709 N710 1.326 . S
C709 C713 1.460 . S
C709 H715 0.929 . S
N710 Mn703 2.257 . S
N710 C709 1.326 . S
N710 C714 1.362 . S
C711 C712 1.258 . S
C711 C714 1.431 . S
C711 C731 1.449 . S
C712 C711 1.258 . S
C712 C713 1.477 . S
C712 H732 0.931 . S
C713 C709 1.460 . S
C713 C712 1.477 . S
C713 H733 0.930 . S
C714 N710 1.362 . S
C714 C711 1.431 . S
C714 C724 1.476 . S
H715 C709 0.929 . S
C716 O707 1.250 . S
C716 O708 1.258 . S
O717 Mn702 2.162 . S
O717 C705 1.281 . S
O718 Mn702 2.297 . S
O718 C705 1.236 . S
N719 Mn703 2.282 . S
N719 C720 1.328 . S
N719 C724 1.318 . S
C720 N719 1.328 . S
C720 C721 1.457 . S
C720 H725 0.929 . S
C721 C720 1.457 . S
C721 C722 1.291 . S
C721 H734 0.931 . S
C722 C721 1.291 . S
C722 C723 1.373 . S
C722 H735 0.929 . S
C723 C722 1.373 . S
C723 C724 1.396 . S
C723 C730 1.403 . S
C724 C714 1.476 . S
C724 N719 1.318 . S
C724 C723 1.396 . S
H725 C720 0.929 . S
O726 Mn702 2.385 . S
O726 C704 1.234 . S
O727 Mn702 2.209 . S
O727 Mn703 2.215 . S
O727 C704 1.283 . S
O728 Mn702 2.094 . S
O728 C706 1.240 . S
O729 Mn703 2.117 . S
O729 C706 1.264 . S
C730 C723 1.403 . S
C730 C731 1.399 . S
C730 H736 0.929 . S
C731 C711 1.449 . S
C731 C730 1.399 . S
C731 H737 0.930 . S
H732 C712 0.931 . S
H733 C713 0.930 . S
H734 C721 0.931 . S
H735 C722 0.929 . S
H736 C730 0.929 . S
H737 C731 0.930 . S
Mn738 O743 2.095 . S
Mn738 O753 2.162 . S
Mn738 O754 2.297 . S
Mn738 O762 2.385 . S
Mn738 O763 2.209 . S
Mn738 O764 2.094 . S
Mn739 O744 2.121 . S
Mn739 N746 2.257 . S
Mn739 N755 2.282 . S
Mn739 O763 2.215 . S
Mn739 O765 2.117 . S
C740 O762 1.234 . S
C740 O763 1.283 . S
C741 O753 1.281 . S
C741 O754 1.236 . S
C742 O764 1.240 . S
C742 O765 1.264 . S
O743 Mn738 2.095 . S
O743 C752 1.250 . S
O744 Mn739 2.121 . S
O744 C752 1.258 . S
C745 N746 1.326 . S
C745 C749 1.460 . S
C745 H751 0.929 . S
N746 Mn739 2.257 . S
N746 C745 1.326 . S
N746 C750 1.362 . S
C747 C748 1.258 . S
C747 C750 1.431 . S
C747 C767 1.449 . S
C748 C747 1.258 . S
C748 C749 1.477 . S
C748 H768 0.931 . S
C749 C745 1.460 . S
C749 C748 1.477 . S
C749 H769 0.930 1_554 S
C750 N746 1.362 . S
C750 C747 1.431 . S
C750 C760 1.476 . S
H751 C745 0.929 . S
C752 O743 1.250 . S
C752 O744 1.258 . S
O753 Mn738 2.162 . S
O753 C741 1.281 . S
O754 Mn738 2.297 . S
O754 C741 1.236 . S
N755 Mn739 2.282 . S
N755 C756 1.328 . S
N755 C760 1.318 . S
C756 N755 1.328 . S
C756 C757 1.457 . S
C756 H761 0.929 . S
C757 C756 1.457 . S
C757 C758 1.291 . S
C757 H770 0.931 . S
C758 C757 1.291 . S
C758 C759 1.373 . S
C758 H771 0.929 . S
C759 C758 1.373 . S
C759 C760 1.396 . S
C759 C766 1.403 . S
C760 C750 1.476 . S
C760 N755 1.318 . S
C760 C759 1.396 . S
H761 C756 0.929 . S
O762 Mn738 2.385 . S
O762 C740 1.234 . S
O763 Mn738 2.209 . S
O763 Mn739 2.215 . S
O763 C740 1.283 . S
O764 Mn738 2.094 . S
O764 C742 1.240 . S
O765 Mn739 2.117 . S
O765 C742 1.264 . S
C766 C759 1.403 . S
C766 C767 1.399 . S
C766 H772 0.929 . S
C767 C747 1.449 . S
C767 C766 1.399 . S
C767 H773 0.930 . S
H768 C748 0.931 . S
H769 C749 0.930 1_556 S
H770 C757 0.931 . S
H771 C758 0.929 . S
H772 C766 0.929 . S
H773 C767 0.930 . S
Mn774 O779 2.095 . S
Mn774 O789 2.162 . S
Mn774 O790 2.297 . S
Mn774 O798 2.385 1_565 S
Mn774 O799 2.209 . S
Mn774 O800 2.094 1_565 S
Mn775 O780 2.121 1_545 S
Mn775 N782 2.257 1_545 S
Mn775 N791 2.282 . S
Mn775 O799 2.215 1_545 S
Mn775 O801 2.117 . S
C776 O798 1.234 1_565 S
C776 O799 1.283 . S
C777 O789 1.281 . S
C777 O790 1.236 . S
C778 O800 1.240 . S
C778 O801 1.264 . S
O779 Mn774 2.095 . S
O779 C788 1.250 . S
O780 Mn775 2.121 1_565 S
O780 C788 1.258 . S
C781 N782 1.326 . S
C781 C785 1.460 . S
C781 H787 0.929 . S
N782 Mn775 2.257 1_565 S
N782 C781 1.326 . S
N782 C786 1.362 . S
C783 C784 1.258 . S
C783 C786 1.431 . S
C783 C803 1.449 . S
C784 C783 1.258 . S
C784 C785 1.477 . S
C784 H804 0.931 . S
C785 C781 1.460 . S
C785 C784 1.477 . S
C785 H805 0.930 . S
C786 N782 1.362 . S
C786 C783 1.431 . S
C786 C796 1.476 1_565 S
H787 C781 0.929 . S
C788 O779 1.250 . S
C788 O780 1.258 . S
O789 Mn774 2.162 . S
O789 C777 1.281 . S
O790 Mn774 2.297 . S
O790 C777 1.236 . S
N791 Mn775 2.282 . S
N791 C792 1.328 . S
N791 C796 1.318 . S
C792 N791 1.328 . S
C792 C793 1.457 . S
C792 H797 0.929 . S
C793 C792 1.457 . S
C793 C794 1.291 . S
C793 H806 0.931 . S
C794 C793 1.291 . S
C794 C795 1.373 . S
C794 H807 0.929 . S
C795 C794 1.373 . S
C795 C796 1.396 . S
C795 C802 1.403 . S
C796 C786 1.476 1_545 S
C796 N791 1.318 . S
C796 C795 1.396 . S
H797 C792 0.929 . S
O798 Mn774 2.385 1_545 S
O798 C776 1.234 1_545 S
O799 Mn774 2.209 . S
O799 Mn775 2.215 1_565 S
O799 C776 1.283 . S
O800 Mn774 2.094 1_545 S
O800 C778 1.240 . S
O801 Mn775 2.117 . S
O801 C778 1.264 . S
C802 C795 1.403 . S
C802 C803 1.399 1_545 S
C802 H808 0.929 . S
C803 C783 1.449 . S
C803 C802 1.399 1_565 S
C803 H809 0.930 . S
H804 C784 0.931 . S
H805 C785 0.930 . S
H806 C793 0.931 . S
H807 C794 0.929 . S
H808 C802 0.929 . S
H809 C803 0.930 . S
Mn810 O815 2.095 . S
Mn810 O825 2.162 . S
Mn810 O826 2.297 . S
Mn810 O834 2.385 . S
Mn810 O835 2.209 . S
Mn810 O836 2.094 . S
Mn811 O816 2.121 . S
Mn811 N818 2.257 . S
Mn811 N827 2.282 1_455 S
Mn811 O835 2.215 . S
Mn811 O837 2.117 . S
C812 O834 1.234 . S
C812 O835 1.283 . S
C813 O825 1.281 . S
C813 O826 1.236 . S
C814 O836 1.240 . S
C814 O837 1.264 . S
O815 Mn810 2.095 . S
O815 C824 1.250 . S
O816 Mn811 2.121 . S
O816 C824 1.258 . S
C817 N818 1.326 . S
C817 C821 1.460 1_455 S
C817 H823 0.929 . S
N818 Mn811 2.257 . S
N818 C817 1.326 . S
N818 C822 1.362 1_455 S
C819 C820 1.258 . S
C819 C822 1.431 . S
C819 C839 1.449 . S
C820 C819 1.258 . S
C820 C821 1.477 . S
C820 H840 0.931 . S
C821 C817 1.460 1_655 S
C821 C820 1.477 . S
C821 H841 0.930 . S
C822 N818 1.362 1_655 S
C822 C819 1.431 . S
C822 C832 1.476 . S
H823 C817 0.929 . S
C824 O815 1.250 . S
C824 O816 1.258 . S
O825 Mn810 2.162 . S
O825 C813 1.281 . S
O826 Mn810 2.297 . S
O826 C813 1.236 . S
N827 Mn811 2.282 1_655 S
N827 C828 1.328 . S
N827 C832 1.318 . S
C828 N827 1.328 . S
C828 C829 1.457 . S
C828 H833 0.929 . S
C829 C828 1.457 . S
C829 C830 1.291 . S
C829 H842 0.931 . S
C830 C829 1.291 . S
C830 C831 1.373 . S
C830 H843 0.929 . S
C831 C830 1.373 . S
C831 C832 1.396 . S
C831 C838 1.403 . S
C832 C822 1.476 . S
C832 N827 1.318 . S
C832 C831 1.396 . S
H833 C828 0.929 . S
O834 Mn810 2.385 . S
O834 C812 1.234 . S
O835 Mn810 2.209 . S
O835 Mn811 2.215 . S
O835 C812 1.283 . S
O836 Mn810 2.094 . S
O836 C814 1.240 . S
O837 Mn811 2.117 . S
O837 C814 1.264 . S
C838 C831 1.403 . S
C838 C839 1.399 . S
C838 H844 0.929 . S
C839 C819 1.449 . S
C839 C838 1.399 . S
C839 H845 0.930 . S
H840 C820 0.931 . S
H841 C821 0.930 . S
H842 C829 0.931 . S
H843 C830 0.929 . S
H844 C838 0.929 . S
H845 C839 0.930 . S
Mn846 O851 2.095 . S
Mn846 O861 2.162 . S
Mn846 O862 2.297 . S
Mn846 O870 2.385 . S
Mn846 O871 2.209 . S
Mn846 O872 2.094 . S
Mn847 O852 2.121 . S
Mn847 N854 2.257 . S
Mn847 N863 2.282 . S
Mn847 O871 2.215 . S
Mn847 O873 2.117 . S
C848 O870 1.234 . S
C848 O871 1.283 . S
C849 O861 1.281 . S
C849 O862 1.236 . S
C850 O872 1.240 . S
C850 O873 1.264 . S
O851 Mn846 2.095 . S
O851 C860 1.250 . S
O852 Mn847 2.121 . S
O852 C860 1.258 . S
C853 N854 1.326 . S
C853 C857 1.460 . S
C853 H859 0.929 . S
N854 Mn847 2.257 . S
N854 C853 1.326 . S
N854 C858 1.362 . S
C855 C856 1.258 . S
C855 C858 1.431 . S
C855 C875 1.449 . S
C856 C855 1.258 . S
C856 C857 1.477 . S
C856 H876 0.931 . S
C857 C853 1.460 . S
C857 C856 1.477 . S
C857 H877 0.930 1_556 S
C858 N854 1.362 . S
C858 C855 1.431 . S
C858 C868 1.476 . S
H859 C853 0.929 . S
C860 O851 1.250 . S
C860 O852 1.258 . S
O861 Mn846 2.162 . S
O861 C849 1.281 . S
O862 Mn846 2.297 . S
O862 C849 1.236 . S
N863 Mn847 2.282 . S
N863 C864 1.328 . S
N863 C868 1.318 . S
C864 N863 1.328 . S
C864 C865 1.457 . S
C864 H869 0.929 . S
C865 C864 1.457 . S
C865 C866 1.291 . S
C865 H878 0.931 . S
C866 C865 1.291 . S
C866 C867 1.373 . S
C866 H879 0.929 . S
C867 C866 1.373 . S
C867 C868 1.396 . S
C867 C874 1.403 . S
C868 C858 1.476 . S
C868 N863 1.318 . S
C868 C867 1.396 . S
H869 C864 0.929 . S
O870 Mn846 2.385 . S
O870 C848 1.234 . S
O871 Mn846 2.209 . S
O871 Mn847 2.215 . S
O871 C848 1.283 . S
O872 Mn846 2.094 . S
O872 C850 1.240 . S
O873 Mn847 2.117 . S
O873 C850 1.264 . S
C874 C867 1.403 . S
C874 C875 1.399 . S
C874 H880 0.929 . S
C875 C855 1.449 . S
C875 C874 1.399 . S
C875 H881 0.930 . S
H876 C856 0.931 . S
H877 C857 0.930 1_554 S
H878 C865 0.931 . S
H879 C866 0.929 . S
H880 C874 0.929 . S
H881 C875 0.930 . S
Mn882 O887 2.095 . S
Mn882 O897 2.162 . S
Mn882 O898 2.297 . S
Mn882 O906 2.385 . S
Mn882 O907 2.209 . S
Mn882 O908 2.094 . S
Mn883 O888 2.121 . S
Mn883 N890 2.257 . S
Mn883 N899 2.282 . S
Mn883 O907 2.215 . S
Mn883 O909 2.117 . S
C884 O906 1.234 . S
C884 O907 1.283 . S
C885 O897 1.281 . S
C885 O898 1.236 . S
C886 O908 1.240 . S
C886 O909 1.264 . S
O887 Mn882 2.095 . S
O887 C896 1.250 . S
O888 Mn883 2.121 . S
O888 C896 1.258 . S
C889 N890 1.326 . S
C889 C893 1.460 . S
C889 H895 0.929 . S
N890 Mn883 2.257 . S
N890 C889 1.326 . S
N890 C894 1.362 . S
C891 C892 1.258 . S
C891 C894 1.431 . S
C891 C911 1.449 . S
C892 C891 1.258 . S
C892 C893 1.477 . S
C892 H912 0.931 . S
C893 C889 1.460 . S
C893 C892 1.477 . S
C893 H913 0.930 . S
C894 N890 1.362 . S
C894 C891 1.431 . S
C894 C904 1.476 . S
H895 C889 0.929 . S
C896 O887 1.250 . S
C896 O888 1.258 . S
O897 Mn882 2.162 . S
O897 C885 1.281 . S
O898 Mn882 2.297 . S
O898 C885 1.236 . S
N899 Mn883 2.282 . S
N899 C900 1.328 . S
N899 C904 1.318 . S
C900 N899 1.328 . S
C900 C901 1.457 1_556 S
C900 H905 0.929 . S
C901 C900 1.457 1_554 S
C901 C902 1.291 1_554 S
C901 H914 0.931 . S
C902 C901 1.291 1_556 S
C902 C903 1.373 . S
C902 H915 0.929 1_556 S
C903 C902 1.373 . S
C903 C904 1.396 . S
C903 C910 1.403 . S
C904 C894 1.476 . S
C904 N899 1.318 . S
C904 C903 1.396 . S
H905 C900 0.929 . S
O906 Mn882 2.385 . S
O906 C884 1.234 . S
O907 Mn882 2.209 . S
O907 Mn883 2.215 . S
O907 C884 1.283 . S
O908 Mn882 2.094 . S
O908 C886 1.240 . S
O909 Mn883 2.117 . S
O909 C886 1.264 . S
C910 C903 1.403 . S
C910 C911 1.399 . S
C910 H916 0.929 . S
C911 C891 1.449 . S
C911 C910 1.399 . S
C911 H917 0.930 . S
H912 C892 0.931 . S
H913 C893 0.930 . S
H914 C901 0.931 . S
H915 C902 0.929 1_554 S
H916 C910 0.929 . S
H917 C911 0.930 . S
Mn918 O923 2.095 . S
Mn918 O933 2.162 . S
Mn918 O934 2.297 . S
Mn918 O942 2.385 1_655 S
Mn918 O943 2.209 . S
Mn918 O944 2.094 . S
Mn919 O924 2.121 . S
Mn919 N926 2.257 . S
Mn919 N935 2.282 . S
Mn919 O943 2.215 . S
Mn919 O945 2.117 . S
C920 O942 1.234 . S
C920 O943 1.283 1_455 S
C921 O933 1.281 . S
C921 O934 1.236 . S
C922 O944 1.240 . S
C922 O945 1.264 . S
O923 Mn918 2.095 . S
O923 C932 1.250 . S
O924 Mn919 2.121 . S
O924 C932 1.258 . S
C925 N926 1.326 . S
C925 C929 1.458 1_655 S
C925 H931 0.929 . S
N926 Mn919 2.257 . S
N926 C925 1.326 . S
N926 C930 1.362 1_655 S
C927 C928 1.258 . S
C927 C930 1.431 . S
C927 C947 1.449 . S
C928 C927 1.258 . S
C928 C929 1.485 . S
C928 H948 0.931 . S
C929 C925 1.458 1_455 S
C929 C928 1.485 . S
C929 H949 0.925 . S
C930 N926 1.362 1_455 S
C930 C927 1.431 . S
C930 C940 1.476 . S
H931 C925 0.929 . S
C932 O923 1.250 . S
C932 O924 1.258 . S
O933 Mn918 2.162 . S
O933 C921 1.281 . S
O934 Mn918 2.297 . S
O934 C921 1.236 . S
N935 Mn919 2.282 . S
N935 C936 1.328 . S
N935 C940 1.318 1_655 S
C936 N935 1.328 . S
C936 C937 1.457 1_655 S
C936 H941 0.929 . S
C937 C936 1.457 1_455 S
C937 C938 1.291 . S
C937 H950 0.931 . S
C938 C937 1.291 . S
C938 C939 1.373 . S
C938 H951 0.929 . S
C939 C938 1.373 . S
C939 C940 1.396 . S
C939 C946 1.403 . S
C940 C930 1.476 . S
C940 N935 1.318 1_455 S
C940 C939 1.396 . S
H941 C936 0.929 . S
O942 Mn918 2.385 1_455 S
O942 C920 1.234 . S
O943 Mn918 2.209 . S
O943 Mn919 2.215 . S
O943 C920 1.283 1_655 S
O944 Mn918 2.094 . S
O944 C922 1.240 . S
O945 Mn919 2.117 . S
O945 C922 1.264 . S
C946 C939 1.403 . S
C946 C947 1.399 . S
C946 H952 0.929 . S
C947 C927 1.449 . S
C947 C946 1.399 . S
C947 H953 0.930 . S
H948 C928 0.931 . S
H949 C929 0.925 . S
H950 C937 0.931 . S
H951 C938 0.929 . S
H952 C946 0.929 . S
H953 C947 0.930 . S
Mn954 O959 2.095 . S
Mn954 O969 2.162 . S
Mn954 O970 2.297 . S
Mn954 O978 2.385 . S
Mn954 O979 2.209 . S
Mn954 O980 2.094 . S
Mn955 O960 2.121 . S
Mn955 N962 2.257 . S
Mn955 N971 2.282 . S
Mn955 O979 2.215 . S
Mn955 O981 2.117 . S
C956 O978 1.234 . S
C956 O979 1.283 . S
C957 O969 1.281 . S
C957 O970 1.236 . S
C958 O980 1.240 . S
C958 O981 1.264 . S
O959 Mn954 2.095 . S
O959 C968 1.250 . S
O960 Mn955 2.121 . S
O960 C968 1.258 . S
C961 N962 1.326 . S
C961 C965 1.460 . S
C961 H967 0.929 . S
N962 Mn955 2.257 . S
N962 C961 1.326 . S
N962 C966 1.362 . S
C963 C964 1.258 . S
C963 C966 1.431 . S
C963 C983 1.449 . S
C964 C963 1.258 . S
C964 C965 1.477 . S
C964 H984 0.931 . S
C965 C961 1.460 . S
C965 C964 1.477 . S
C965 H985 0.930 . S
C966 N962 1.362 . S
C966 C963 1.431 . S
C966 C976 1.476 . S
H967 C961 0.929 . S
C968 O959 1.250 . S
C968 O960 1.258 . S
O969 Mn954 2.162 . S
O969 C957 1.281 . S
O970 Mn954 2.297 . S
O970 C957 1.236 . S
N971 Mn955 2.282 . S
N971 C972 1.328 . S
N971 C976 1.318 . S
C972 N971 1.328 . S
C972 C973 1.457 . S
C972 H977 0.929 . S
C973 C972 1.457 . S
C973 C974 1.291 . S
C973 H986 0.931 . S
C974 C973 1.291 . S
C974 C975 1.373 . S
C974 H987 0.929 . S
C975 C974 1.373 . S
C975 C976 1.396 . S
C975 C982 1.403 . S
C976 C966 1.476 . S
C976 N971 1.318 . S
C976 C975 1.396 . S
H977 C972 0.929 . S
O978 Mn954 2.385 . S
O978 C956 1.234 . S
O979 Mn954 2.209 . S
O979 Mn955 2.215 . S
O979 C956 1.283 . S
O980 Mn954 2.094 . S
O980 C958 1.240 . S
O981 Mn955 2.117 . S
O981 C958 1.264 . S
C982 C975 1.403 . S
C982 C983 1.399 . S
C982 H988 0.929 . S
C983 C963 1.449 . S
C983 C982 1.399 . S
C983 H989 0.930 . S
H984 C964 0.931 . S
H985 C965 0.930 . S
H986 C973 0.931 . S
H987 C974 0.929 . S
H988 C982 0.929 . S
H989 C983 0.930 . S
Mn990 O995 2.095 . S
Mn990 O1005 2.162 . S
Mn990 O1006 2.297 . S
Mn990 O1014 2.385 . S
Mn990 O1015 2.209 . S
Mn990 O1016 2.094 . S
Mn991 O996 2.121 . S
Mn991 N998 2.257 1_655 S
Mn991 N1007 2.282 1_655 S
Mn991 O1015 2.215 . S
Mn991 O1017 2.117 . S
C992 O1014 1.234 1_455 S
C992 O1015 1.283 1_455 S
C993 O1005 1.281 . S
C993 O1006 1.236 . S
C994 O1016 1.240 . S
C994 O1017 1.264 . S
O995 Mn990 2.095 . S
O995 C1004 1.250 . S
O996 Mn991 2.121 . S
O996 C1004 1.258 . S
C997 N998 1.326 . S
C997 C1001 1.460 . S
C997 H1003 0.929 1_455 S
N998 Mn991 2.257 1_455 S
N998 C997 1.326 . S
N998 C1002 1.362 . S
C999 C1000 1.258 . S
C999 C1002 1.431 . S
C999 C1019 1.449 . S
C1000 C999 1.258 . S
C1000 C1001 1.477 . S
C1000 H1020 0.931 . S
C1001 C997 1.460 . S
C1001 C1000 1.477 . S
C1001 H1021 0.930 . S
C1002 N998 1.362 . S
C1002 C999 1.431 . S
C1002 C1012 1.476 . S
H1003 C997 0.929 1_655 S
C1004 O995 1.250 . S
C1004 O996 1.258 . S
O1005 Mn990 2.162 . S
O1005 C993 1.281 . S
O1006 Mn990 2.297 . S
O1006 C993 1.236 . S
N1007 Mn991 2.282 1_455 S
N1007 C1008 1.328 . S
N1007 C1012 1.318 . S
C1008 N1007 1.328 . S
C1008 C1009 1.457 . S
C1008 H1013 0.929 . S
C1009 C1008 1.457 . S
C1009 C1010 1.291 . S
C1009 H1022 0.931 . S
C1010 C1009 1.291 . S
C1010 C1011 1.373 . S
C1010 H1023 0.929 . S
C1011 C1010 1.373 . S
C1011 C1012 1.396 . S
C1011 C1018 1.403 . S
C1012 C1002 1.476 . S
C1012 N1007 1.318 . S
C1012 C1011 1.396 . S
H1013 C1008 0.929 . S
O1014 Mn990 2.385 . S
O1014 C992 1.234 1_655 S
O1015 Mn990 2.209 . S
O1015 Mn991 2.215 . S
O1015 C992 1.283 1_655 S
O1016 Mn990 2.094 . S
O1016 C994 1.240 . S
O1017 Mn991 2.117 . S
O1017 C994 1.264 . S
C1018 C1011 1.403 . S
C1018 C1019 1.399 . S
C1018 H1024 0.929 . S
C1019 C999 1.449 . S
C1019 C1018 1.399 . S
C1019 H1025 0.930 . S
H1020 C1000 0.931 . S
H1021 C1001 0.930 . S
H1022 C1009 0.931 . S
H1023 C1010 0.929 . S
H1024 C1018 0.929 . S
H1025 C1019 0.930 . S
Mn1026 O1031 2.095 . S
Mn1026 O1041 2.162 . S
Mn1026 O1042 2.297 . S
Mn1026 O1050 2.385 . S
Mn1026 O1051 2.209 . S
Mn1026 O1052 2.094 . S
Mn1027 O1032 2.121 . S
Mn1027 N1034 2.257 . S
Mn1027 N1043 2.282 . S
Mn1027 O1051 2.215 . S
Mn1027 O1053 2.117 . S
C1028 O1050 1.234 . S
C1028 O1051 1.283 . S
C1029 O1041 1.281 . S
C1029 O1042 1.236 . S
C1030 O1052 1.240 . S
C1030 O1053 1.264 . S
O1031 Mn1026 2.095 . S
O1031 C1040 1.250 . S
O1032 Mn1027 2.121 . S
O1032 C1040 1.258 . S
C1033 N1034 1.326 . S
C1033 C1037 1.460 . S
C1033 H1039 0.929 . S
N1034 Mn1027 2.257 . S
N1034 C1033 1.326 . S
N1034 C1038 1.362 . S
C1035 C1036 1.258 . S
C1035 C1038 1.431 . S
C1035 C1055 1.449 . S
C1036 C1035 1.258 . S
C1036 C1037 1.477 . S
C1036 H1056 0.931 . S
C1037 C1033 1.460 . S
C1037 C1036 1.477 . S
C1037 H1057 0.930 . S
C1038 N1034 1.362 . S
C1038 C1035 1.431 . S
C1038 C1048 1.476 . S
H1039 C1033 0.929 . S
C1040 O1031 1.250 . S
C1040 O1032 1.258 . S
O1041 Mn1026 2.162 . S
O1041 C1029 1.281 . S
O1042 Mn1026 2.297 . S
O1042 C1029 1.236 . S
N1043 Mn1027 2.282 . S
N1043 C1044 1.328 . S
N1043 C1048 1.318 . S
C1044 N1043 1.328 . S
C1044 C1045 1.457 . S
C1044 H1049 0.929 . S
C1045 C1044 1.457 . S
C1045 C1046 1.291 . S
C1045 H1058 0.931 . S
C1046 C1045 1.291 . S
C1046 C1047 1.373 . S
C1046 H1059 0.929 . S
C1047 C1046 1.373 . S
C1047 C1048 1.396 . S
C1047 C1054 1.403 . S
C1048 C1038 1.476 . S
C1048 N1043 1.318 . S
C1048 C1047 1.396 . S
H1049 C1044 0.929 . S
O1050 Mn1026 2.385 . S
O1050 C1028 1.234 . S
O1051 Mn1026 2.209 . S
O1051 Mn1027 2.215 . S
O1051 C1028 1.283 . S
O1052 Mn1026 2.094 . S
O1052 C1030 1.240 . S
O1053 Mn1027 2.117 . S
O1053 C1030 1.264 . S
C1054 C1047 1.403 . S
C1054 C1055 1.399 . S
C1054 H1060 0.929 . S
C1055 C1035 1.449 . S
C1055 C1054 1.399 . S
C1055 H1061 0.930 . S
H1056 C1036 0.931 . S
H1057 C1037 0.930 . S
H1058 C1045 0.931 . S
H1059 C1046 0.929 . S
H1060 C1054 0.929 . S
H1061 C1055 0.930 . S
C1062 C1063 1.391 . S
C1062 C1064 1.394 . S
C1062 H1078 0.931 . S
C1063 C1062 1.391 . S
C1063 C1067 1.376 . S
C1064 C1062 1.394 . S
C1064 C1065 1.369 . S
C1064 C1068 1.531 . S
C1065 C1064 1.369 . S
C1065 C1066 1.410 . S
C1065 C1073 1.503 . S
C1066 C1065 1.410 . S
C1066 C1067 1.392 . S
C1066 C1069 1.511 . S
C1067 C1063 1.376 . S
C1067 C1066 1.392 . S
C1067 H1079 0.929 . S
C1068 C1064 1.531 . S
C1068 H1080 0.960 . S
C1068 H1081 0.962 . S
C1068 H1082 0.960 . S
C1069 C1066 1.511 . S
C1069 H1083 0.961 . S
C1069 H1084 0.961 . S
C1069 H1085 0.961 . S
C1070 C1071 1.370 . S
C1070 C1072 1.363 . S
C1070 H1086 0.931 . S
C1071 C1070 1.370 . S
C1071 C1075 1.408 . S
C1072 C1070 1.363 . S
C1072 C1073 1.370 . S
C1072 C1076 1.524 . S
C1073 C1065 1.503 . S
C1073 C1072 1.370 . S
C1073 C1074 1.403 . S
C1074 C1073 1.403 . S
C1074 C1075 1.404 . S
C1074 C1077 1.539 . S
C1075 C1071 1.408 . S
C1075 C1074 1.404 . S
C1075 H1087 0.930 . S
C1076 C1072 1.524 . S
C1076 H1088 0.956 . S
C1076 H1089 0.961 . S
C1076 H1090 0.961 . S
C1077 C1074 1.539 . S
C1077 H1091 0.958 . S
C1077 H1092 0.961 . S
C1077 H1093 0.960 . S
H1078 C1062 0.931 . S
H1079 C1067 0.929 . S
H1080 C1068 0.960 . S
H1081 C1068 0.962 . S
H1082 C1068 0.960 . S
H1083 C1069 0.961 . S
H1084 C1069 0.961 . S
H1085 C1069 0.961 . S
H1086 C1070 0.931 . S
H1087 C1075 0.930 . S
H1088 C1076 0.956 . S
H1089 C1076 0.961 . S
H1090 C1076 0.961 . S
H1091 C1077 0.958 . S
H1092 C1077 0.961 . S
H1093 C1077 0.960 . S
C1094 C1095 1.391 . S
C1094 C1096 1.394 . S
C1094 H1110 0.931 . S
C1095 C1094 1.391 . S
C1095 C1099 1.376 . S
C1096 C1094 1.394 . S
C1096 C1097 1.369 . S
C1096 C1100 1.531 . S
C1097 C1096 1.369 . S
C1097 C1098 1.410 . S
C1097 C1105 1.503 . S
C1098 C1097 1.410 . S
C1098 C1099 1.392 . S
C1098 C1101 1.511 . S
C1099 C1095 1.376 . S
C1099 C1098 1.392 . S
C1099 H1111 0.929 . S
C1100 C1096 1.531 . S
C1100 H1112 0.960 . S
C1100 H1113 0.962 . S
C1100 H1114 0.960 . S
C1101 C1098 1.511 . S
C1101 H1115 0.961 1_554 S
C1101 H1116 0.961 . S
C1101 H1117 0.961 . S
C1102 C1103 1.370 . S
C1102 C1104 1.363 . S
C1102 H1118 0.931 . S
C1103 C1102 1.370 . S
C1103 C1107 1.408 . S
C1104 C1102 1.363 . S
C1104 C1105 1.370 . S
C1104 C1108 1.524 . S
C1105 C1097 1.503 . S
C1105 C1104 1.370 . S
C1105 C1106 1.403 . S
C1106 C1105 1.403 . S
C1106 C1107 1.404 . S
C1106 C1109 1.539 . S
C1107 C1103 1.408 . S
C1107 C1106 1.404 . S
C1107 H1119 0.930 . S
C1108 C1104 1.524 . S
C1108 H1120 0.956 . S
C1108 H1121 0.961 . S
C1108 H1122 0.961 . S
C1109 C1106 1.539 . S
C1109 H1123 0.958 . S
C1109 H1124 0.961 . S
C1109 H1125 0.960 . S
H1110 C1094 0.931 . S
H1111 C1099 0.929 . S
H1112 C1100 0.960 . S
H1113 C1100 0.962 . S
H1114 C1100 0.960 . S
H1115 C1101 0.961 1_556 S
H1116 C1101 0.961 . S
H1117 C1101 0.961 . S
H1118 C1102 0.931 . S
H1119 C1107 0.930 . S
H1120 C1108 0.956 . S
H1121 C1108 0.961 . S
H1122 C1108 0.961 . S
H1123 C1109 0.958 . S
H1124 C1109 0.961 . S
H1125 C1109 0.960 . S
C1126 C1127 1.391 . S
C1126 C1128 1.394 . S
C1126 H1142 0.931 . S
C1127 C1126 1.391 . S
C1127 C1131 1.376 1_565 S
C1128 C1126 1.394 . S
C1128 C1129 1.369 . S
C1128 C1132 1.531 . S
C1129 C1128 1.369 . S
C1129 C1130 1.410 1_565 S
C1129 C1137 1.503 . S
C1130 C1129 1.410 1_545 S
C1130 C1131 1.392 . S
C1130 C1133 1.511 . S
C1131 C1127 1.376 1_545 S
C1131 C1130 1.392 . S
C1131 H1143 0.929 . S
C1132 C1128 1.531 . S
C1132 H1144 0.960 . S
C1132 H1145 0.962 . S
C1132 H1146 0.960 . S
C1133 C1130 1.511 . S
C1133 H1147 0.961 . S
C1133 H1148 0.961 . S
C1133 H1149 0.961 . S
C1134 C1135 1.370 1_545 S
C1134 C1136 1.363 . S
C1134 H1150 0.931 . S
C1135 C1134 1.370 1_565 S
C1135 C1139 1.408 . S
C1136 C1134 1.363 . S
C1136 C1137 1.370 1_545 S
C1136 C1140 1.524 . S
C1137 C1129 1.503 . S
C1137 C1136 1.370 1_565 S
C1137 C1138 1.403 . S
C1138 C1137 1.403 . S
C1138 C1139 1.404 . S
C1138 C1141 1.539 . S
C1139 C1135 1.408 . S
C1139 C1138 1.404 . S
C1139 H1151 0.930 . S
C1140 C1136 1.524 . S
C1140 H1152 0.956 . S
C1140 H1153 0.961 . S
C1140 H1154 0.961 . S
C1141 C1138 1.539 . S
C1141 H1155 0.958 . S
C1141 H1156 0.961 . S
C1141 H1157 0.960 . S
H1142 C1126 0.931 . S
H1143 C1131 0.929 . S
H1144 C1132 0.960 . S
H1145 C1132 0.962 . S
H1146 C1132 0.960 . S
H1147 C1133 0.961 . S
H1148 C1133 0.961 . S
H1149 C1133 0.961 . S
H1150 C1134 0.931 . S
H1151 C1139 0.930 . S
H1152 C1140 0.956 . S
H1153 C1140 0.961 . S
H1154 C1140 0.961 . S
H1155 C1141 0.958 . S
H1156 C1141 0.961 . S
H1157 C1141 0.960 . S
C1158 C1159 1.391 . S
C1158 C1160 1.394 . S
C1158 H1174 0.931 . S
C1159 C1158 1.391 . S
C1159 C1163 1.376 . S
C1160 C1158 1.394 . S
C1160 C1161 1.369 . S
C1160 C1164 1.531 . S
C1161 C1160 1.369 . S
C1161 C1162 1.410 . S
C1161 C1169 1.503 . S
C1162 C1161 1.410 . S
C1162 C1163 1.392 . S
C1162 C1165 1.511 . S
C1163 C1159 1.376 . S
C1163 C1162 1.392 . S
C1163 H1175 0.929 . S
C1164 C1160 1.531 . S
C1164 H1176 0.960 . S
C1164 H1177 0.962 . S
C1164 H1178 0.960 . S
C1165 C1162 1.511 . S
C1165 H1179 0.961 . S
C1165 H1180 0.961 . S
C1165 H1181 0.961 . S
C1166 C1167 1.370 . S
C1166 C1168 1.363 . S
C1166 H1182 0.931 . S
C1167 C1166 1.370 . S
C1167 C1171 1.408 . S
C1168 C1166 1.363 . S
C1168 C1169 1.370 . S
C1168 C1172 1.524 . S
C1169 C1161 1.503 . S
C1169 C1168 1.370 . S
C1169 C1170 1.403 . S
C1170 C1169 1.403 . S
C1170 C1171 1.404 . S
C1170 C1173 1.539 . S
C1171 C1167 1.408 . S
C1171 C1170 1.404 . S
C1171 H1183 0.930 . S
C1172 C1168 1.524 . S
C1172 H1184 0.956 . S
C1172 H1185 0.961 . S
C1172 H1186 0.961 . S
C1173 C1170 1.539 . S
C1173 H1187 0.958 . S
C1173 H1188 0.961 . S
C1173 H1189 0.960 . S
H1174 C1158 0.931 . S
H1175 C1163 0.929 . S
H1176 C1164 0.960 . S
H1177 C1164 0.962 . S
H1178 C1164 0.960 . S
H1179 C1165 0.961 . S
H1180 C1165 0.961 . S
H1181 C1165 0.961 . S
H1182 C1166 0.931 . S
H1183 C1171 0.930 . S
H1184 C1172 0.956 . S
H1185 C1172 0.961 . S
H1186 C1172 0.961 . S
H1187 C1173 0.958 . S
H1188 C1173 0.961 . S
H1189 C1173 0.960 . S
C1190 C1191 1.391 . S
C1190 C1192 1.394 . S
C1190 H1206 0.931 . S
C1191 C1190 1.391 . S
C1191 C1195 1.376 . S
C1192 C1190 1.394 . S
C1192 C1193 1.369 . S
C1192 C1196 1.531 1_455 S
C1193 C1192 1.369 . S
C1193 C1194 1.410 . S
C1193 C1201 1.503 . S
C1194 C1193 1.410 . S
C1194 C1195 1.392 . S
C1194 C1197 1.511 . S
C1195 C1191 1.376 . S
C1195 C1194 1.392 . S
C1195 H1207 0.929 . S
C1196 C1192 1.531 1_655 S
C1196 H1208 0.960 . S
C1196 H1209 0.962 . S
C1196 H1210 0.960 . S
C1197 C1194 1.511 . S
C1197 H1211 0.961 . S
C1197 H1212 0.961 . S
C1197 H1213 0.961 . S
C1198 C1199 1.370 . S
C1198 C1200 1.362 . S
C1198 H1214 0.931 . S
C1199 C1198 1.370 . S
C1199 C1203 1.408 1_655 S
C1200 C1198 1.362 . S
C1200 C1201 1.363 1_655 S
C1200 C1204 1.535 . S
C1201 C1193 1.503 . S
C1201 C1200 1.363 1_455 S
C1201 C1202 1.403 . S
C1202 C1201 1.403 . S
C1202 C1203 1.404 . S
C1202 C1205 1.539 . S
C1203 C1199 1.408 1_455 S
C1203 C1202 1.404 . S
C1203 H1215 0.930 . S
C1204 C1200 1.535 . S
C1204 H1216 0.956 . S
C1204 H1217 0.961 1_655 S
C1204 H1218 0.961 . S
C1205 C1202 1.539 . S
C1205 H1219 0.958 . S
C1205 H1220 0.961 . S
C1205 H1221 0.960 . S
H1206 C1190 0.931 . S
H1207 C1195 0.929 . S
H1208 C1196 0.960 . S
H1209 C1196 0.962 . S
H1210 C1196 0.960 . S
H1211 C1197 0.961 . S
H1212 C1197 0.961 . S
H1213 C1197 0.961 . S
H1214 C1198 0.931 . S
H1215 C1203 0.930 . S
H1216 C1204 0.956 . S
H1217 C1204 0.961 1_455 S
H1218 C1204 0.961 . S
H1219 C1205 0.958 . S
H1220 C1205 0.961 . S
H1221 C1205 0.960 . S
C1222 C1223 1.391 . S
C1222 C1224 1.394 . S
C1222 H1238 0.931 . S
C1223 C1222 1.391 . S
C1223 C1227 1.376 . S
C1224 C1222 1.394 . S
C1224 C1225 1.369 . S
C1224 C1228 1.531 . S
C1225 C1224 1.369 . S
C1225 C1226 1.410 . S
C1225 C1233 1.503 . S
C1226 C1225 1.410 . S
C1226 C1227 1.392 . S
C1226 C1229 1.511 . S
C1227 C1223 1.376 . S
C1227 C1226 1.392 . S
C1227 H1239 0.929 . S
C1228 C1224 1.531 . S
C1228 H1240 0.960 . S
C1228 H1241 0.962 . S
C1228 H1242 0.960 . S
C1229 C1226 1.511 . S
C1229 H1243 0.961 . S
C1229 H1244 0.961 . S
C1229 H1245 0.961 . S
C1230 C1231 1.370 . S
C1230 C1232 1.363 . S
C1230 H1246 0.931 . S
C1231 C1230 1.370 . S
C1231 C1235 1.408 . S
C1232 C1230 1.363 . S
C1232 C1233 1.370 . S
C1232 C1236 1.524 . S
C1233 C1225 1.503 . S
C1233 C1232 1.370 . S
C1233 C1234 1.403 . S
C1234 C1233 1.403 . S
C1234 C1235 1.404 . S
C1234 C1237 1.539 . S
C1235 C1231 1.408 . S
C1235 C1234 1.404 . S
C1235 H1247 0.930 . S
C1236 C1232 1.524 . S
C1236 H1248 0.956 . S
C1236 H1249 0.961 . S
C1236 H1250 0.961 . S
C1237 C1234 1.539 . S
C1237 H1251 0.958 . S
C1237 H1252 0.961 . S
C1237 H1253 0.960 . S
H1238 C1222 0.931 . S
H1239 C1227 0.929 . S
H1240 C1228 0.960 . S
H1241 C1228 0.962 . S
H1242 C1228 0.960 . S
H1243 C1229 0.961 . S
H1244 C1229 0.961 . S
H1245 C1229 0.961 . S
H1246 C1230 0.931 . S
H1247 C1235 0.930 . S
H1248 C1236 0.956 . S
H1249 C1236 0.961 . S
H1250 C1236 0.961 . S
H1251 C1237 0.958 . S
H1252 C1237 0.961 . S
H1253 C1237 0.960 . S
C1254 C1255 1.391 . S
C1254 C1256 1.394 . S
C1254 H1270 0.953 . S
C1255 C1254 1.391 . S
C1255 C1259 1.376 . S
C1256 C1254 1.394 . S
C1256 C1257 1.369 . S
C1256 C1260 1.531 1_455 S
C1257 C1256 1.369 . S
C1257 C1258 1.410 . S
C1257 C1265 1.503 . S
C1258 C1257 1.410 . S
C1258 C1259 1.392 . S
C1258 C1261 1.511 . S
C1259 C1255 1.376 . S
C1259 C1258 1.392 . S
C1259 H1271 0.929 . S
C1260 C1256 1.531 1_655 S
C1260 H1272 0.960 . S
C1260 H1273 0.962 . S
C1260 H1274 0.960 1_556 S
C1261 C1258 1.511 . S
C1261 H1275 0.961 . S
C1261 H1276 0.961 . S
C1261 H1277 0.961 . S
C1262 C1263 1.392 1_655 S
C1262 C1264 1.363 1_655 S
C1262 H1278 0.931 . S
C1263 C1262 1.392 1_455 S
C1263 C1267 1.436 . S
C1264 C1262 1.363 1_455 S
C1264 C1265 1.370 . S
C1264 C1268 1.524 . S
C1265 C1257 1.503 . S
C1265 C1264 1.370 . S
C1265 C1266 1.403 . S
C1266 C1265 1.403 . S
C1266 C1267 1.404 . S
C1266 C1269 1.539 1_556 S
C1267 C1263 1.436 . S
C1267 C1266 1.404 . S
C1267 H1279 0.930 . S
C1268 C1264 1.524 . S
C1268 H1280 0.956 1_455 S
C1268 H1281 0.961 . S
C1268 H1282 0.961 1_455 S
C1269 C1266 1.539 1_554 S
C1269 H1283 0.958 . S
C1269 H1284 0.961 . S
C1269 H1285 0.960 . S
H1270 C1254 0.953 . S
H1271 C1259 0.929 . S
H1272 C1260 0.960 . S
H1273 C1260 0.962 . S
H1274 C1260 0.960 1_554 S
H1275 C1261 0.961 . S
H1276 C1261 0.961 . S
H1277 C1261 0.961 . S
H1278 C1262 0.931 . S
H1279 C1267 0.930 . S
H1280 C1268 0.956 1_655 S
H1281 C1268 0.961 . S
H1282 C1268 0.961 1_655 S
H1283 C1269 0.958 . S
H1284 C1269 0.961 . S
H1285 C1269 0.960 . S
C1286 C1287 1.391 . S
C1286 C1288 1.394 . S
C1286 H1302 0.931 . S
C1287 C1286 1.391 . S
C1287 C1291 1.376 . S
C1288 C1286 1.394 . S
C1288 C1289 1.369 . S
C1288 C1292 1.531 . S
C1289 C1288 1.369 . S
C1289 C1290 1.410 . S
C1289 C1297 1.503 . S
C1290 C1289 1.410 . S
C1290 C1291 1.392 . S
C1290 C1293 1.511 . S
C1291 C1287 1.376 . S
C1291 C1290 1.392 . S
C1291 H1303 0.922 1_556 S
C1292 C1288 1.531 . S
C1292 H1304 0.960 . S
C1292 H1305 0.962 . S
C1292 H1306 0.960 . S
C1293 C1290 1.511 . S
C1293 H1307 0.961 1_556 S
C1293 H1308 0.961 . S
C1293 H1309 0.961 . S
C1294 C1295 1.370 . S
C1294 C1296 1.363 . S
C1294 H1310 0.931 . S
C1295 C1294 1.370 . S
C1295 C1299 1.408 . S
C1296 C1294 1.363 . S
C1296 C1297 1.370 . S
C1296 C1300 1.524 1_556 S
C1297 C1289 1.503 . S
C1297 C1296 1.370 . S
C1297 C1298 1.403 . S
C1298 C1297 1.403 . S
C1298 C1299 1.404 . S
C1298 C1301 1.539 . S
C1299 C1295 1.408 . S
C1299 C1298 1.404 . S
C1299 H1311 0.930 . S
C1300 C1296 1.524 1_554 S
C1300 H1312 0.956 . S
C1300 H1313 0.961 . S
C1300 H1314 0.961 . S
C1301 C1298 1.539 . S
C1301 H1315 0.958 . S
C1301 H1316 0.961 . S
C1301 H1317 0.960 . S
H1302 C1286 0.931 . S
H1303 C1291 0.922 1_554 S
H1304 C1292 0.960 . S
H1305 C1292 0.962 . S
H1306 C1292 0.960 . S
H1307 C1293 0.961 1_554 S
H1308 C1293 0.961 . S
H1309 C1293 0.961 . S
H1310 C1294 0.931 . S
H1311 C1299 0.930 . S
H1312 C1300 0.956 . S
H1313 C1300 0.961 . S
H1314 C1300 0.961 . S
H1315 C1301 0.958 . S
H1316 C1301 0.961 . S
H1317 C1301 0.960 . S
C1318 C1319 1.391 . S
C1318 C1320 1.394 . S
C1318 H1334 0.931 . S
C1319 C1318 1.391 . S
C1319 C1323 1.376 1_556 S
C1320 C1318 1.394 . S
C1320 C1321 1.369 . S
C1320 C1324 1.531 . S
C1321 C1320 1.369 . S
C1321 C1322 1.410 . S
C1321 C1329 1.503 . S
C1322 C1321 1.410 . S
C1322 C1323 1.392 1_556 S
C1322 C1325 1.511 1_556 S
C1323 C1319 1.376 1_554 S
C1323 C1322 1.392 1_554 S
C1323 H1335 0.929 . S
C1324 C1320 1.531 . S
C1324 H1336 0.960 . S
C1324 H1337 0.962 . S
C1324 H1338 0.960 . S
C1325 C1322 1.511 1_554 S
C1325 H1339 0.961 . S
C1325 H1340 0.961 1_554 S
C1325 H1341 0.961 . S
C1326 C1327 1.370 . S
C1326 C1328 1.363 . S
C1326 H1342 0.931 . S
C1327 C1326 1.370 . S
C1327 C1331 1.408 . S
C1328 C1326 1.363 . S
C1328 C1329 1.370 . S
C1328 C1332 1.524 . S
C1329 C1321 1.503 . S
C1329 C1328 1.370 . S
C1329 C1330 1.403 . S
C1330 C1329 1.403 . S
C1330 C1331 1.404 . S
C1330 C1333 1.539 1_556 S
C1331 C1327 1.408 . S
C1331 C1330 1.404 . S
C1331 H1343 0.930 . S
C1332 C1328 1.524 . S
C1332 H1344 0.956 . S
C1332 H1345 0.961 . S
C1332 H1346 0.961 . S
C1333 C1330 1.539 1_554 S
C1333 H1347 0.958 . S
C1333 H1348 0.961 . S
C1333 H1349 0.960 . S
H1334 C1318 0.931 . S
H1335 C1323 0.929 . S
H1336 C1324 0.960 . S
H1337 C1324 0.962 . S
H1338 C1324 0.960 . S
H1339 C1325 0.961 . S
H1340 C1325 0.961 1_556 S
H1341 C1325 0.961 . S
H1342 C1326 0.931 . S
H1343 C1331 0.930 . S
H1344 C1332 0.956 . S
H1345 C1332 0.961 . S
H1346 C1332 0.961 . S
H1347 C1333 0.958 . S
H1348 C1333 0.961 . S
H1349 C1333 0.960 . S
C1350 C1351 1.391 1_565 S
C1350 C1352 1.394 . S
C1350 H1366 0.931 . S
C1351 C1350 1.391 1_545 S
C1351 C1355 1.376 . S
C1352 C1350 1.394 . S
C1352 C1353 1.369 . S
C1352 C1356 1.531 . S
C1353 C1352 1.369 . S
C1353 C1354 1.410 1_565 S
C1353 C1361 1.475 . S
C1354 C1353 1.410 1_545 S
C1354 C1355 1.392 . S
C1354 C1357 1.511 . S
C1355 C1351 1.376 . S
C1355 C1354 1.392 . S
C1355 H1367 0.929 . S
C1356 C1352 1.531 . S
C1356 H1368 0.960 . S
C1356 H1369 0.962 . S
C1356 H1370 0.960 . S
C1357 C1354 1.511 . S
C1357 H1371 0.961 . S
C1357 H1372 0.961 . S
C1357 H1373 0.961 1_545 S
C1358 C1359 1.358 1_545 S
C1358 C1360 1.363 . S
C1358 H1374 0.931 . S
C1359 C1358 1.358 1_565 S
C1359 C1363 1.415 . S
C1360 C1358 1.363 . S
C1360 C1361 1.339 1_545 S
C1360 C1364 1.524 . S
C1361 C1353 1.475 . S
C1361 C1360 1.339 1_565 S
C1361 C1362 1.465 . S
C1362 C1361 1.465 . S
C1362 C1363 1.404 . S
C1362 C1365 1.539 . S
C1363 C1359 1.415 . S
C1363 C1362 1.404 . S
C1363 H1375 0.930 . S
C1364 C1360 1.524 . S
C1364 H1376 0.956 . S
C1364 H1377 0.961 . S
C1364 H1378 0.961 . S
C1365 C1362 1.539 . S
C1365 H1379 0.958 . S
C1365 H1380 0.961 . S
C1365 H1381 0.960 . S
H1366 C1350 0.931 . S
H1367 C1355 0.929 . S
H1368 C1356 0.960 . S
H1369 C1356 0.962 . S
H1370 C1356 0.960 . S
H1371 C1357 0.961 . S
H1372 C1357 0.961 . S
H1373 C1357 0.961 1_565 S
H1374 C1358 0.931 . S
H1375 C1363 0.930 . S
H1376 C1364 0.956 . S
H1377 C1364 0.961 . S
H1378 C1364 0.961 . S
H1379 C1365 0.958 . S
H1380 C1365 0.961 . S
H1381 C1365 0.960 . S
C1382 C1383 1.391 . S
C1382 C1384 1.394 . S
C1382 H1398 0.931 . S
C1383 C1382 1.391 . S
C1383 C1387 1.376 . S
C1384 C1382 1.394 . S
C1384 C1385 1.369 . S
C1384 C1388 1.531 . S
C1385 C1384 1.369 . S
C1385 C1386 1.410 . S
C1385 C1393 1.503 . S
C1386 C1385 1.410 . S
C1386 C1387 1.392 . S
C1386 C1389 1.511 . S
C1387 C1383 1.376 . S
C1387 C1386 1.392 . S
C1387 H1399 0.929 . S
C1388 C1384 1.531 . S
C1388 H1400 0.960 . S
C1388 H1401 0.962 . S
C1388 H1402 0.960 . S
C1389 C1386 1.511 . S
C1389 H1403 0.961 . S
C1389 H1404 0.961 . S
C1389 H1405 0.961 . S
C1390 C1391 1.370 . S
C1390 C1392 1.363 . S
C1390 H1406 0.931 . S
C1391 C1390 1.370 . S
C1391 C1395 1.408 . S
C1392 C1390 1.363 . S
C1392 C1393 1.370 . S
C1392 C1396 1.524 . S
C1393 C1385 1.503 . S
C1393 C1392 1.370 . S
C1393 C1394 1.403 . S
C1394 C1393 1.403 . S
C1394 C1395 1.404 . S
C1394 C1397 1.539 . S
C1395 C1391 1.408 . S
C1395 C1394 1.404 . S
C1395 H1407 0.930 . S
C1396 C1392 1.524 . S
C1396 H1408 0.956 . S
C1396 H1409 0.961 . S
C1396 H1410 0.961 . S
C1397 C1394 1.539 . S
C1397 H1411 0.958 . S
C1397 H1412 0.961 . S
C1397 H1413 0.960 . S
H1398 C1382 0.931 . S
H1399 C1387 0.929 . S
H1400 C1388 0.960 . S
H1401 C1388 0.962 . S
H1402 C1388 0.960 . S
H1403 C1389 0.961 . S
H1404 C1389 0.961 . S
H1405 C1389 0.961 . S
H1406 C1390 0.931 . S
H1407 C1395 0.930 . S
H1408 C1396 0.956 . S
H1409 C1396 0.961 . S
H1410 C1396 0.961 . S
H1411 C1397 0.958 . S
H1412 C1397 0.961 . S
H1413 C1397 0.960 . S
C1414 C1415 1.391 . S
C1414 C1416 1.394 . S
C1414 H1430 0.931 . S
C1415 C1414 1.391 . S
C1415 C1419 1.376 . S
C1416 C1414 1.394 . S
C1416 C1417 1.369 . S
C1416 C1420 1.531 . S
C1417 C1416 1.369 . S
C1417 C1418 1.410 . S
C1417 C1425 1.503 . S
C1418 C1417 1.410 . S
C1418 C1419 1.392 . S
C1418 C1421 1.511 . S
C1419 C1415 1.376 . S
C1419 C1418 1.392 . S
C1419 H1431 0.929 . S
C1420 C1416 1.531 . S
C1420 H1432 0.960 . S
C1420 H1433 0.962 . S
C1420 H1434 0.960 . S
C1421 C1418 1.511 . S
C1421 H1435 0.961 . S
C1421 H1436 0.961 . S
C1421 H1437 0.961 . S
C1422 C1423 1.370 . S
C1422 C1424 1.363 . S
C1422 H1438 0.931 . S
C1423 C1422 1.370 . S
C1423 C1427 1.408 . S
C1424 C1422 1.363 . S
C1424 C1425 1.370 . S
C1424 C1428 1.524 . S
C1425 C1417 1.503 . S
C1425 C1424 1.370 . S
C1425 C1426 1.403 . S
C1426 C1425 1.403 . S
C1426 C1427 1.404 . S
C1426 C1429 1.539 . S
C1427 C1423 1.408 . S
C1427 C1426 1.404 . S
C1427 H1439 0.930 . S
C1428 C1424 1.524 . S
C1428 H1440 0.956 . S
C1428 H1441 0.961 . S
C1428 H1442 0.961 . S
C1429 C1426 1.539 . S
C1429 H1443 0.958 . S
C1429 H1444 0.961 . S
C1429 H1445 0.960 . S
H1430 C1414 0.931 . S
H1431 C1419 0.929 . S
H1432 C1420 0.960 . S
H1433 C1420 0.962 . S
H1434 C1420 0.960 . S
H1435 C1421 0.961 . S
H1436 C1421 0.961 . S
H1437 C1421 0.961 . S
H1438 C1422 0.931 . S
H1439 C1427 0.930 . S
H1440 C1428 0.956 . S
H1441 C1428 0.961 . S
H1442 C1428 0.961 . S
H1443 C1429 0.958 . S
H1444 C1429 0.961 . S
H1445 C1429 0.960 . S
C1446 C1447 1.391 . S
C1446 C1448 1.394 . S
C1446 H1462 0.931 . S
C1447 C1446 1.391 . S
C1447 C1451 1.376 . S
C1448 C1446 1.394 . S
C1448 C1449 1.369 . S
C1448 C1452 1.531 . S
C1449 C1448 1.369 . S
C1449 C1450 1.410 . S
C1449 C1457 1.503 . S
C1450 C1449 1.410 . S
C1450 C1451 1.392 . S
C1450 C1453 1.511 . S
C1451 C1447 1.376 . S
C1451 C1450 1.392 . S
C1451 H1463 0.929 . S
C1452 C1448 1.531 . S
C1452 H1464 0.960 . S
C1452 H1465 0.962 . S
C1452 H1466 0.960 . S
C1453 C1450 1.511 . S
C1453 H1467 0.961 . S
C1453 H1468 0.961 . S
C1453 H1469 0.961 . S
C1454 C1455 1.370 . S
C1454 C1456 1.363 . S
C1454 H1470 0.931 . S
C1455 C1454 1.370 . S
C1455 C1459 1.408 . S
C1456 C1454 1.363 . S
C1456 C1457 1.370 . S
C1456 C1460 1.524 . S
C1457 C1449 1.503 . S
C1457 C1456 1.370 . S
C1457 C1458 1.403 . S
C1458 C1457 1.403 . S
C1458 C1459 1.404 . S
C1458 C1461 1.539 . S
C1459 C1455 1.408 . S
C1459 C1458 1.404 . S
C1459 H1471 0.930 . S
C1460 C1456 1.524 . S
C1460 H1472 0.956 . S
C1460 H1473 0.961 . S
C1460 H1474 0.961 . S
C1461 C1458 1.539 . S
C1461 H1475 0.958 . S
C1461 H1476 0.961 . S
C1461 H1477 0.960 . S
H1462 C1446 0.931 . S
H1463 C1451 0.929 . S
H1464 C1452 0.960 . S
H1465 C1452 0.962 . S
H1466 C1452 0.960 . S
H1467 C1453 0.961 . S
H1468 C1453 0.961 . S
H1469 C1453 0.961 . S
H1470 C1454 0.931 . S
H1471 C1459 0.930 . S
H1472 C1460 0.956 . S
H1473 C1460 0.961 . S
H1474 C1460 0.961 . S
H1475 C1461 0.958 . S
H1476 C1461 0.961 . S
H1477 C1461 0.960 . S
C1478 C1479 1.391 . S
C1478 C1480 1.415 . S
C1478 H1494 0.931 . S
C1479 C1478 1.391 . S
C1479 C1483 1.376 . S
C1480 C1478 1.415 . S
C1480 C1481 1.364 . S
C1480 C1484 1.492 1_565 S
C1481 C1480 1.364 . S
C1481 C1482 1.460 . S
C1481 C1489 1.478 1_565 S
C1482 C1481 1.460 . S
C1482 C1483 1.392 . S
C1482 C1485 1.511 . S
C1483 C1479 1.376 . S
C1483 C1482 1.392 . S
C1483 H1495 0.929 . S
C1484 C1480 1.492 1_545 S
C1484 H1496 0.960 . S
C1484 H1497 0.962 . S
C1484 H1498 0.960 . S
C1485 C1482 1.511 . S
C1485 H1499 0.961 . S
C1485 H1500 0.961 . S
C1485 H1501 0.961 . S
C1486 C1487 1.370 . S
C1486 C1488 1.363 . S
C1486 H1502 0.931 . S
C1487 C1486 1.370 . S
C1487 C1491 1.408 . S
C1488 C1486 1.363 . S
C1488 C1489 1.370 . S
C1488 C1492 1.524 . S
C1489 C1481 1.478 1_545 S
C1489 C1488 1.370 . S
C1489 C1490 1.403 . S
C1490 C1489 1.403 . S
C1490 C1491 1.404 . S
C1490 C1493 1.539 . S
C1491 C1487 1.408 . S
C1491 C1490 1.404 . S
C1491 H1503 0.930 . S
C1492 C1488 1.524 . S
C1492 H1504 0.956 . S
C1492 H1505 0.961 . S
C1492 H1506 0.961 . S
C1493 C1490 1.539 . S
C1493 H1507 0.958 . S
C1493 H1508 0.961 . S
C1493 H1509 0.960 . S
H1494 C1478 0.931 . S
H1495 C1483 0.929 . S
H1496 C1484 0.960 . S
H1497 C1484 0.962 . S
H1498 C1484 0.960 . S
H1499 C1485 0.961 . S
H1500 C1485 0.961 . S
H1501 C1485 0.961 . S
H1502 C1486 0.931 . S
H1503 C1491 0.930 . S
H1504 C1492 0.956 . S
H1505 C1492 0.961 . S
H1506 C1492 0.961 . S
H1507 C1493 0.958 . S
H1508 C1493 0.961 . S
H1509 C1493 0.960 . S
C1510 C1511 1.391 . S
C1510 C1512 1.394 . S
C1510 H1526 0.931 . S
C1511 C1510 1.391 . S
C1511 C1515 1.376 . S
C1512 C1510 1.394 . S
C1512 C1513 1.369 . S
C1512 C1516 1.531 . S
C1513 C1512 1.369 . S
C1513 C1514 1.410 . S
C1513 C1521 1.503 . S
C1514 C1513 1.410 . S
C1514 C1515 1.392 . S
C1514 C1517 1.511 . S
C1515 C1511 1.376 . S
C1515 C1514 1.392 . S
C1515 H1527 0.929 . S
C1516 C1512 1.531 . S
C1516 H1528 0.960 . S
C1516 H1529 0.962 . S
C1516 H1530 0.960 . S
C1517 C1514 1.511 . S
C1517 H1531 0.961 . S
C1517 H1532 0.961 . S
C1517 H1533 0.961 . S
C1518 C1519 1.370 . S
C1518 C1520 1.363 . S
C1518 H1534 0.931 . S
C1519 C1518 1.370 . S
C1519 C1523 1.408 . S
C1520 C1518 1.363 . S
C1520 C1521 1.370 . S
C1520 C1524 1.524 . S
C1521 C1513 1.503 . S
C1521 C1520 1.370 . S
C1521 C1522 1.403 . S
C1522 C1521 1.403 . S
C1522 C1523 1.404 . S
C1522 C1525 1.539 . S
C1523 C1519 1.408 . S
C1523 C1522 1.404 . S
C1523 H1535 0.930 . S
C1524 C1520 1.524 . S
C1524 H1536 0.956 . S
C1524 H1537 0.961 . S
C1524 H1538 0.961 . S
C1525 C1522 1.539 . S
C1525 H1539 0.958 . S
C1525 H1540 0.961 . S
C1525 H1541 0.960 . S
H1526 C1510 0.931 . S
H1527 C1515 0.929 . S
H1528 C1516 0.960 . S
H1529 C1516 0.962 . S
H1530 C1516 0.960 . S
H1531 C1517 0.961 . S
H1532 C1517 0.961 . S
H1533 C1517 0.961 . S
H1534 C1518 0.931 . S
H1535 C1523 0.930 . S
H1536 C1524 0.956 . S
H1537 C1524 0.961 . S
H1538 C1524 0.961 . S
H1539 C1525 0.958 . S
H1540 C1525 0.961 . S
H1541 C1525 0.960 . S
C1542 C1543 1.391 . S
C1542 C1544 1.394 . S
C1542 H1558 0.931 . S
C1543 C1542 1.391 . S
C1543 C1547 1.376 . S
C1544 C1542 1.394 . S
C1544 C1545 1.369 . S
C1544 C1548 1.531 . S
C1545 C1544 1.369 . S
C1545 C1546 1.410 . S
C1545 C1553 1.503 . S
C1546 C1545 1.410 . S
C1546 C1547 1.392 . S
C1546 C1549 1.511 . S
C1547 C1543 1.376 . S
C1547 C1546 1.392 . S
C1547 H1559 0.929 . S
C1548 C1544 1.531 . S
C1548 H1560 0.960 . S
C1548 H1561 0.962 . S
C1548 H1562 0.960 . S
C1549 C1546 1.511 . S
C1549 H1563 0.961 . S
C1549 H1564 0.961 . S
C1549 H1565 0.961 . S
C1550 C1551 1.370 . S
C1550 C1552 1.363 . S
C1550 H1566 0.931 . S
C1551 C1550 1.370 . S
C1551 C1555 1.408 . S
C1552 C1550 1.363 . S
C1552 C1553 1.370 . S
C1552 C1556 1.524 . S
C1553 C1545 1.503 . S
C1553 C1552 1.370 . S
C1553 C1554 1.403 . S
C1554 C1553 1.403 . S
C1554 C1555 1.404 . S
C1554 C1557 1.539 . S
C1555 C1551 1.408 . S
C1555 C1554 1.404 . S
C1555 H1567 0.930 . S
C1556 C1552 1.524 . S
C1556 H1568 0.956 . S
C1556 H1569 0.961 . S
C1556 H1570 0.961 . S
C1557 C1554 1.539 . S
C1557 H1571 0.958 . S
C1557 H1572 0.961 . S
C1557 H1573 0.960 . S
H1558 C1542 0.931 . S
H1559 C1547 0.929 . S
H1560 C1548 0.960 . S
H1561 C1548 0.962 . S
H1562 C1548 0.960 . S
H1563 C1549 0.961 . S
H1564 C1549 0.961 . S
H1565 C1549 0.961 . S
H1566 C1550 0.931 . S
H1567 C1555 0.930 . S
H1568 C1556 0.956 . S
H1569 C1556 0.961 . S
H1570 C1556 0.961 . S
H1571 C1557 0.958 . S
H1572 C1557 0.961 . S
H1573 C1557 0.960 . S
C1574 C1575 1.391 . S
C1574 C1576 1.394 . S
C1574 H1590 0.931 . S
C1575 C1574 1.391 . S
C1575 C1579 1.376 . S
C1576 C1574 1.394 . S
C1576 C1577 1.369 . S
C1576 C1580 1.531 . S
C1577 C1576 1.369 . S
C1577 C1578 1.410 . S
C1577 C1585 1.503 . S
C1578 C1577 1.410 . S
C1578 C1579 1.392 . S
C1578 C1581 1.511 . S
C1579 C1575 1.376 . S
C1579 C1578 1.392 . S
C1579 H1591 0.929 . S
C1580 C1576 1.531 . S
C1580 H1592 0.960 . S
C1580 H1593 0.962 . S
C1580 H1594 0.960 . S
C1581 C1578 1.511 . S
C1581 H1595 0.961 . S
C1581 H1596 0.961 . S
C1581 H1597 0.961 . S
C1582 C1583 1.370 . S
C1582 C1584 1.363 . S
C1582 H1598 0.931 . S
C1583 C1582 1.370 . S
C1583 C1587 1.408 . S
C1584 C1582 1.363 . S
C1584 C1585 1.370 . S
C1584 C1588 1.524 . S
C1585 C1577 1.503 . S
C1585 C1584 1.370 . S
C1585 C1586 1.403 . S
C1586 C1585 1.403 . S
C1586 C1587 1.404 . S
C1586 C1589 1.539 . S
C1587 C1583 1.408 . S
C1587 C1586 1.404 . S
C1587 H1599 0.930 . S
C1588 C1584 1.524 . S
C1588 H1600 0.956 . S
C1588 H1601 0.961 . S
C1588 H1602 0.961 . S
C1589 C1586 1.539 . S
C1589 H1603 0.958 . S
C1589 H1604 0.961 . S
C1589 H1605 0.960 . S
H1590 C1574 0.931 . S
H1591 C1579 0.929 . S
H1592 C1580 0.960 . S
H1593 C1580 0.962 . S
H1594 C1580 0.960 . S
H1595 C1581 0.961 . S
H1596 C1581 0.961 . S
H1597 C1581 0.961 . S
H1598 C1582 0.931 . S
H1599 C1587 0.930 . S
H1600 C1588 0.956 . S
H1601 C1588 0.961 . S
H1602 C1588 0.961 . S
H1603 C1589 0.958 . S
H1604 C1589 0.961 . S
H1605 C1589 0.960 . S
C1606 C1607 1.391 . S
C1606 C1608 1.394 . S
C1606 H1622 0.931 . S
C1607 C1606 1.391 . S
C1607 C1611 1.376 . S
C1608 C1606 1.394 . S
C1608 C1609 1.369 . S
C1608 C1612 1.531 . S
C1609 C1608 1.369 . S
C1609 C1610 1.410 . S
C1609 C1617 1.503 . S
C1610 C1609 1.410 . S
C1610 C1611 1.392 . S
C1610 C1613 1.511 . S
C1611 C1607 1.376 . S
C1611 C1610 1.392 . S
C1611 H1623 0.929 . S
C1612 C1608 1.531 . S
C1612 H1624 0.960 . S
C1612 H1625 0.962 . S
C1612 H1626 0.960 . S
C1613 C1610 1.511 . S
C1613 H1627 0.961 . S
C1613 H1628 0.961 . S
C1613 H1629 0.961 . S
C1614 C1615 1.370 . S
C1614 C1616 1.363 . S
C1614 H1630 0.931 . S
C1615 C1614 1.370 . S
C1615 C1619 1.408 . S
C1616 C1614 1.363 . S
C1616 C1617 1.370 . S
C1616 C1620 1.524 . S
C1617 C1609 1.503 . S
C1617 C1616 1.370 . S
C1617 C1618 1.403 . S
C1618 C1617 1.403 . S
C1618 C1619 1.404 . S
C1618 C1621 1.539 . S
C1619 C1615 1.408 . S
C1619 C1618 1.404 . S
C1619 H1631 0.930 . S
C1620 C1616 1.524 . S
C1620 H1632 0.956 . S
C1620 H1633 0.961 . S
C1620 H1634 0.961 . S
C1621 C1618 1.539 . S
C1621 H1635 0.958 . S
C1621 H1636 0.961 . S
C1621 H1637 0.960 . S
H1622 C1606 0.931 . S
H1623 C1611 0.929 . S
H1624 C1612 0.960 . S
H1625 C1612 0.962 . S
H1626 C1612 0.960 . S
H1627 C1613 0.961 . S
H1628 C1613 0.961 . S
H1629 C1613 0.961 . S
H1630 C1614 0.931 . S
H1631 C1619 0.930 . S
H1632 C1620 0.956 . S
H1633 C1620 0.961 . S
H1634 C1620 0.961 . S
H1635 C1621 0.958 . S
H1636 C1621 0.961 . S
H1637 C1621 0.960 . S
C1638 C1639 1.391 . S
C1638 C1640 1.394 . S
C1638 H1654 0.931 . S
C1639 C1638 1.391 . S
C1639 C1643 1.376 . S
C1640 C1638 1.394 . S
C1640 C1641 1.369 . S
C1640 C1644 1.531 . S
C1641 C1640 1.369 . S
C1641 C1642 1.410 . S
C1641 C1649 1.503 . S
C1642 C1641 1.410 . S
C1642 C1643 1.392 . S
C1642 C1645 1.511 1_565 S
C1643 C1639 1.376 . S
C1643 C1642 1.392 . S
C1643 H1655 0.929 . S
C1644 C1640 1.531 . S
C1644 H1656 0.960 . S
C1644 H1657 0.962 . S
C1644 H1658 0.960 . S
C1645 C1642 1.511 1_545 S
C1645 H1659 0.961 . S
C1645 H1660 0.961 . S
C1645 H1661 0.961 . S
C1646 C1647 1.370 . S
C1646 C1648 1.363 1_545 S
C1646 H1662 0.935 1_545 S
C1647 C1646 1.370 . S
C1647 C1651 1.408 . S
C1648 C1646 1.363 1_565 S
C1648 C1649 1.370 . S
C1648 C1652 1.524 . S
C1649 C1641 1.503 . S
C1649 C1648 1.370 . S
C1649 C1650 1.403 1_565 S
C1650 C1649 1.403 1_545 S
C1650 C1651 1.404 . S
C1650 C1653 1.539 . S
C1651 C1647 1.408 . S
C1651 C1650 1.404 . S
C1651 H1663 0.930 . S
C1652 C1648 1.524 . S
C1652 H1664 0.956 . S
C1652 H1665 0.961 . S
C1652 H1666 0.961 . S
C1653 C1650 1.539 . S
C1653 H1667 0.958 . S
C1653 H1668 0.961 . S
C1653 H1669 0.960 . S
H1654 C1638 0.931 . S
H1655 C1643 0.929 . S
H1656 C1644 0.960 . S
H1657 C1644 0.962 . S
H1658 C1644 0.960 . S
H1659 C1645 0.961 . S
H1660 C1645 0.961 . S
H1661 C1645 0.961 . S
H1662 C1646 0.935 1_565 S
H1663 C1651 0.930 . S
H1664 C1652 0.956 . S
H1665 C1652 0.961 . S
H1666 C1652 0.961 . S
H1667 C1653 0.958 . S
H1668 C1653 0.961 . S
H1669 C1653 0.960 . S
C1670 C1671 1.391 . S
C1670 C1672 1.394 . S
C1670 H1686 0.931 . S
C1671 C1670 1.391 . S
C1671 C1675 1.376 . S
C1672 C1670 1.394 . S
C1672 C1673 1.369 . S
C1672 C1676 1.531 . S
C1673 C1672 1.369 . S
C1673 C1674 1.410 . S
C1673 C1681 1.503 . S
C1674 C1673 1.410 . S
C1674 C1675 1.392 . S
C1674 C1677 1.511 . S
C1675 C1671 1.376 . S
C1675 C1674 1.392 . S
C1675 H1687 0.929 . S
C1676 C1672 1.531 . S
C1676 H1688 0.960 . S
C1676 H1689 0.962 . S
C1676 H1690 0.960 . S
C1677 C1674 1.511 . S
C1677 H1691 0.961 . S
C1677 H1692 0.961 . S
C1677 H1693 0.961 . S
C1678 C1679 1.370 . S
C1678 C1680 1.363 . S
C1678 H1694 0.931 . S
C1679 C1678 1.370 . S
C1679 C1683 1.408 . S
C1680 C1678 1.363 . S
C1680 C1681 1.370 . S
C1680 C1684 1.524 . S
C1681 C1673 1.503 . S
C1681 C1680 1.370 . S
C1681 C1682 1.403 . S
C1682 C1681 1.403 . S
C1682 C1683 1.404 . S
C1682 C1685 1.539 . S
C1683 C1679 1.408 . S
C1683 C1682 1.404 . S
C1683 H1695 0.930 . S
C1684 C1680 1.524 . S
C1684 H1696 0.956 . S
C1684 H1697 0.961 . S
C1684 H1698 0.961 . S
C1685 C1682 1.539 . S
C1685 H1699 0.958 . S
C1685 H1700 0.961 . S
C1685 H1701 0.960 . S
H1686 C1670 0.931 . S
H1687 C1675 0.929 . S
H1688 C1676 0.960 . S
H1689 C1676 0.962 . S
H1690 C1676 0.960 . S
H1691 C1677 0.961 . S
H1692 C1677 0.961 . S
H1693 C1677 0.961 . S
H1694 C1678 0.931 . S
H1695 C1683 0.930 . S
H1696 C1684 0.956 . S
H1697 C1684 0.961 . S
H1698 C1684 0.961 . S
H1699 C1685 0.958 . S
H1700 C1685 0.961 . S
H1701 C1685 0.960 . S
C1702 C1703 1.391 . S
C1702 C1704 1.394 . S
C1702 H1718 0.931 . S
C1703 C1702 1.391 . S
C1703 C1707 1.376 . S
C1704 C1702 1.394 . S
C1704 C1705 1.369 . S
C1704 C1708 1.531 . S
C1705 C1704 1.369 . S
C1705 C1706 1.410 . S
C1705 C1713 1.503 . S
C1706 C1705 1.410 . S
C1706 C1707 1.392 . S
C1706 C1709 1.511 . S
C1707 C1703 1.376 . S
C1707 C1706 1.392 . S
C1707 H1719 0.929 . S
C1708 C1704 1.531 . S
C1708 H1720 0.960 . S
C1708 H1721 0.962 . S
C1708 H1722 0.960 . S
C1709 C1706 1.511 . S
C1709 H1723 0.961 . S
C1709 H1724 0.961 . S
C1709 H1725 0.961 . S
C1710 C1711 1.370 . S
C1710 C1712 1.363 . S
C1710 H1726 0.931 . S
C1711 C1710 1.370 . S
C1711 C1715 1.408 . S
C1712 C1710 1.363 . S
C1712 C1713 1.370 . S
C1712 C1716 1.524 . S
C1713 C1705 1.503 . S
C1713 C1712 1.370 . S
C1713 C1714 1.403 . S
C1714 C1713 1.403 . S
C1714 C1715 1.404 . S
C1714 C1717 1.539 . S
C1715 C1711 1.408 . S
C1715 C1714 1.404 . S
C1715 H1727 0.930 . S
C1716 C1712 1.524 . S
C1716 H1728 0.956 . S
C1716 H1729 0.961 . S
C1716 H1730 0.961 . S
C1717 C1714 1.539 . S
C1717 H1731 0.958 . S
C1717 H1732 0.961 . S
C1717 H1733 0.960 . S
H1718 C1702 0.931 . S
H1719 C1707 0.929 . S
H1720 C1708 0.960 . S
H1721 C1708 0.962 . S
H1722 C1708 0.960 . S
H1723 C1709 0.961 . S
H1724 C1709 0.961 . S
H1725 C1709 0.961 . S
H1726 C1710 0.931 . S
H1727 C1715 0.930 . S
H1728 C1716 0.956 . S
H1729 C1716 0.961 . S
H1730 C1716 0.961 . S
H1731 C1717 0.958 . S
H1732 C1717 0.961 . S
H1733 C1717 0.960 . S
C1734 C1735 1.391 . S
C1734 C1736 1.394 . S
C1734 H1750 0.931 . S
C1735 C1734 1.391 . S
C1735 C1739 1.376 . S
C1736 C1734 1.394 . S
C1736 C1737 1.369 . S
C1736 C1740 1.531 . S
C1737 C1736 1.369 . S
C1737 C1738 1.410 . S
C1737 C1745 1.503 . S
C1738 C1737 1.410 . S
C1738 C1739 1.392 . S
C1738 C1741 1.511 . S
C1739 C1735 1.376 . S
C1739 C1738 1.392 . S
C1739 H1751 0.929 . S
C1740 C1736 1.531 . S
C1740 H1752 0.960 . S
C1740 H1753 0.962 . S
C1740 H1754 0.960 . S
C1741 C1738 1.511 . S
C1741 H1755 0.961 . S
C1741 H1756 0.961 . S
C1741 H1757 0.961 . S
C1742 C1743 1.370 . S
C1742 C1744 1.363 . S
C1742 H1758 0.931 . S
C1743 C1742 1.370 . S
C1743 C1747 1.408 . S
C1744 C1742 1.363 . S
C1744 C1745 1.370 . S
C1744 C1748 1.524 . S
C1745 C1737 1.503 . S
C1745 C1744 1.370 . S
C1745 C1746 1.403 . S
C1746 C1745 1.403 . S
C1746 C1747 1.404 . S
C1746 C1749 1.539 . S
C1747 C1743 1.408 . S
C1747 C1746 1.404 . S
C1747 H1759 0.930 . S
C1748 C1744 1.524 . S
C1748 H1760 0.956 . S
C1748 H1761 0.961 . S
C1748 H1762 0.961 . S
C1749 C1746 1.539 . S
C1749 H1763 0.958 . S
C1749 H1764 0.961 . S
C1749 H1765 0.960 . S
H1750 C1734 0.931 . S
H1751 C1739 0.929 . S
H1752 C1740 0.960 . S
H1753 C1740 0.962 . S
H1754 C1740 0.960 . S
H1755 C1741 0.961 . S
H1756 C1741 0.961 . S
H1757 C1741 0.961 . S
H1758 C1742 0.931 . S
H1759 C1747 0.930 . S
H1760 C1748 0.956 . S
H1761 C1748 0.961 . S
H1762 C1748 0.961 . S
H1763 C1749 0.958 . S
H1764 C1749 0.961 . S
H1765 C1749 0.960 . S
C1766 C1767 1.391 . S
C1766 C1768 1.394 . S
C1766 H1782 0.931 . S
C1767 C1766 1.391 . S
C1767 C1771 1.376 . S
C1768 C1766 1.394 . S
C1768 C1769 1.369 . S
C1768 C1772 1.531 . S
C1769 C1768 1.369 . S
C1769 C1770 1.410 . S
C1769 C1777 1.503 1_565 S
C1770 C1769 1.410 . S
C1770 C1771 1.392 . S
C1770 C1773 1.511 1_565 S
C1771 C1767 1.376 . S
C1771 C1770 1.392 . S
C1771 H1783 0.929 . S
C1772 C1768 1.531 . S
C1772 H1784 0.960 . S
C1772 H1785 0.962 . S
C1772 H1786 0.960 . S
C1773 C1770 1.511 1_545 S
C1773 H1787 0.961 . S
C1773 H1788 0.961 . S
C1773 H1789 0.961 . S
C1774 C1775 1.370 . S
C1774 C1776 1.363 . S
C1774 H1790 0.931 . S
C1775 C1774 1.370 . S
C1775 C1779 1.408 . S
C1776 C1774 1.363 . S
C1776 C1777 1.370 . S
C1776 C1780 1.524 . S
C1777 C1769 1.503 1_545 S
C1777 C1776 1.370 . S
C1777 C1778 1.403 . S
C1778 C1777 1.403 . S
C1778 C1779 1.404 . S
C1778 C1781 1.539 . S
C1779 C1775 1.408 . S
C1779 C1778 1.404 . S
C1779 H1791 0.930 . S
C1780 C1776 1.524 . S
C1780 H1792 0.956 1_545 S
C1780 H1793 0.961 . S
C1780 H1794 0.961 . S
C1781 C1778 1.539 . S
C1781 H1795 0.958 . S
C1781 H1796 0.961 . S
C1781 H1797 0.960 . S
H1782 C1766 0.931 . S
H1783 C1771 0.929 . S
H1784 C1772 0.960 . S
H1785 C1772 0.962 . S
H1786 C1772 0.960 . S
H1787 C1773 0.961 . S
H1788 C1773 0.961 . S
H1789 C1773 0.961 . S
H1790 C1774 0.931 . S
H1791 C1779 0.930 . S
H1792 C1780 0.956 1_565 S
H1793 C1780 0.961 . S
H1794 C1780 0.961 . S
H1795 C1781 0.958 . S
H1796 C1781 0.961 . S
H1797 C1781 0.960 . S
C1798 C1799 1.391 . S
C1798 C1800 1.394 . S
C1798 H1814 0.931 . S
C1799 C1798 1.391 . S
C1799 C1803 1.376 . S
C1800 C1798 1.394 . S
C1800 C1801 1.369 . S
C1800 C1804 1.531 . S
C1801 C1800 1.369 . S
C1801 C1802 1.410 . S
C1801 C1809 1.503 . S
C1802 C1801 1.410 . S
C1802 C1803 1.392 . S
C1802 C1805 1.511 . S
C1803 C1799 1.376 . S
C1803 C1802 1.392 . S
C1803 H1815 0.929 . S
C1804 C1800 1.531 . S
C1804 H1816 0.960 . S
C1804 H1817 0.962 . S
C1804 H1818 0.960 . S
C1805 C1802 1.511 . S
C1805 H1819 0.961 . S
C1805 H1820 0.961 . S
C1805 H1821 0.961 . S
C1806 C1807 1.370 . S
C1806 C1808 1.363 . S
C1806 H1822 0.931 . S
C1807 C1806 1.370 . S
C1807 C1811 1.408 . S
C1808 C1806 1.363 . S
C1808 C1809 1.370 . S
C1808 C1812 1.524 . S
C1809 C1801 1.503 . S
C1809 C1808 1.370 . S
C1809 C1810 1.403 . S
C1810 C1809 1.403 . S
C1810 C1811 1.404 . S
C1810 C1813 1.539 . S
C1811 C1807 1.408 . S
C1811 C1810 1.404 . S
C1811 H1823 0.930 . S
C1812 C1808 1.524 . S
C1812 H1824 0.956 . S
C1812 H1825 0.961 . S
C1812 H1826 0.961 . S
C1813 C1810 1.539 . S
C1813 H1827 0.958 . S
C1813 H1828 0.961 . S
C1813 H1829 0.960 . S
H1814 C1798 0.931 . S
H1815 C1803 0.929 . S
H1816 C1804 0.960 . S
H1817 C1804 0.962 . S
H1818 C1804 0.960 . S
H1819 C1805 0.961 . S
H1820 C1805 0.961 . S
H1821 C1805 0.961 . S
H1822 C1806 0.931 . S
H1823 C1811 0.930 . S
H1824 C1812 0.956 . S
H1825 C1812 0.961 . S
H1826 C1812 0.961 . S
H1827 C1813 0.958 . S
H1828 C1813 0.961 . S
H1829 C1813 0.960 . S
C1830 C1831 1.391 . S
C1830 C1832 1.394 . S
C1830 H1846 0.931 . S
C1831 C1830 1.391 . S
C1831 C1835 1.376 . S
C1832 C1830 1.394 . S
C1832 C1833 1.369 . S
C1832 C1836 1.531 . S
C1833 C1832 1.369 . S
C1833 C1834 1.410 . S
C1833 C1841 1.503 . S
C1834 C1833 1.410 . S
C1834 C1835 1.392 . S
C1834 C1837 1.511 . S
C1835 C1831 1.376 . S
C1835 C1834 1.392 . S
C1835 H1847 0.929 . S
C1836 C1832 1.531 . S
C1836 H1848 0.960 . S
C1836 H1849 0.962 . S
C1836 H1850 0.960 . S
C1837 C1834 1.511 . S
C1837 H1851 0.961 . S
C1837 H1852 0.961 . S
C1837 H1853 0.961 . S
C1838 C1839 1.370 . S
C1838 C1840 1.363 . S
C1838 H1854 0.931 . S
C1839 C1838 1.370 . S
C1839 C1843 1.408 . S
C1840 C1838 1.363 . S
C1840 C1841 1.370 . S
C1840 C1844 1.524 . S
C1841 C1833 1.503 . S
C1841 C1840 1.370 . S
C1841 C1842 1.403 . S
C1842 C1841 1.403 . S
C1842 C1843 1.404 . S
C1842 C1845 1.539 . S
C1843 C1839 1.408 . S
C1843 C1842 1.404 . S
C1843 H1855 0.930 . S
C1844 C1840 1.524 . S
C1844 H1856 0.956 . S
C1844 H1857 0.961 . S
C1844 H1858 0.961 . S
C1845 C1842 1.539 . S
C1845 H1859 0.958 . S
C1845 H1860 0.961 . S
C1845 H1861 0.960 . S
H1846 C1830 0.931 . S
H1847 C1835 0.929 . S
H1848 C1836 0.960 . S
H1849 C1836 0.962 . S
H1850 C1836 0.960 . S
H1851 C1837 0.961 . S
H1852 C1837 0.961 . S
H1853 C1837 0.961 . S
H1854 C1838 0.931 . S
H1855 C1843 0.930 . S
H1856 C1844 0.956 . S
H1857 C1844 0.961 . S
H1858 C1844 0.961 . S
H1859 C1845 0.958 . S
H1860 C1845 0.961 . S
H1861 C1845 0.960 . S
C1862 C1863 1.391 . S
C1862 C1864 1.394 . S
C1862 H1878 0.931 . S
C1863 C1862 1.391 . S
C1863 C1867 1.376 . S
C1864 C1862 1.394 . S
C1864 C1865 1.369 . S
C1864 C1868 1.531 . S
C1865 C1864 1.369 . S
C1865 C1866 1.410 . S
C1865 C1873 1.503 . S
C1866 C1865 1.410 . S
C1866 C1867 1.392 . S
C1866 C1869 1.511 . S
C1867 C1863 1.376 . S
C1867 C1866 1.392 . S
C1867 H1879 0.929 . S
C1868 C1864 1.531 . S
C1868 H1880 0.960 . S
C1868 H1881 0.962 . S
C1868 H1882 0.960 . S
C1869 C1866 1.511 . S
C1869 H1883 0.961 . S
C1869 H1884 0.961 . S
C1869 H1885 0.961 . S
C1870 C1871 1.370 . S
C1870 C1872 1.363 . S
C1870 H1886 0.931 . S
C1871 C1870 1.370 . S
C1871 C1875 1.408 . S
C1872 C1870 1.363 . S
C1872 C1873 1.370 . S
C1872 C1876 1.524 . S
C1873 C1865 1.503 . S
C1873 C1872 1.370 . S
C1873 C1874 1.403 . S
C1874 C1873 1.403 . S
C1874 C1875 1.404 . S
C1874 C1877 1.539 . S
C1875 C1871 1.408 . S
C1875 C1874 1.404 . S
C1875 H1887 0.930 . S
C1876 C1872 1.524 . S
C1876 H1888 0.956 . S
C1876 H1889 0.961 . S
C1876 H1890 0.961 . S
C1877 C1874 1.539 . S
C1877 H1891 0.958 . S
C1877 H1892 0.961 . S
C1877 H1893 0.960 . S
H1878 C1862 0.931 . S
H1879 C1867 0.929 . S
H1880 C1868 0.960 . S
H1881 C1868 0.962 . S
H1882 C1868 0.960 . S
H1883 C1869 0.961 . S
H1884 C1869 0.961 . S
H1885 C1869 0.961 . S
H1886 C1870 0.931 . S
H1887 C1875 0.930 . S
H1888 C1876 0.956 . S
H1889 C1876 0.961 . S
H1890 C1876 0.961 . S
H1891 C1877 0.958 . S
H1892 C1877 0.961 . S
H1893 C1877 0.960 . S
C1894 C1895 1.391 . S
C1894 C1896 1.394 . S
C1894 H1910 0.931 . S
C1895 C1894 1.391 . S
C1895 C1899 1.376 . S
C1896 C1894 1.394 . S
C1896 C1897 1.369 . S
C1896 C1900 1.531 . S
C1897 C1896 1.369 . S
C1897 C1898 1.410 . S
C1897 C1905 1.503 . S
C1898 C1897 1.410 . S
C1898 C1899 1.392 . S
C1898 C1901 1.511 . S
C1899 C1895 1.376 . S
C1899 C1898 1.392 . S
C1899 H1911 0.929 . S
C1900 C1896 1.531 . S
C1900 H1912 0.960 . S
C1900 H1913 0.962 . S
C1900 H1914 0.960 . S
C1901 C1898 1.511 . S
C1901 H1915 0.961 . S
C1901 H1916 0.961 . S
C1901 H1917 0.961 . S
C1902 C1903 1.370 . S
C1902 C1904 1.363 . S
C1902 H1918 0.931 . S
C1903 C1902 1.370 . S
C1903 C1907 1.408 . S
C1904 C1902 1.363 . S
C1904 C1905 1.370 . S
C1904 C1908 1.524 . S
C1905 C1897 1.503 . S
C1905 C1904 1.370 . S
C1905 C1906 1.403 . S
C1906 C1905 1.403 . S
C1906 C1907 1.404 . S
C1906 C1909 1.539 . S
C1907 C1903 1.408 . S
C1907 C1906 1.404 . S
C1907 H1919 0.930 . S
C1908 C1904 1.524 . S
C1908 H1920 0.956 . S
C1908 H1921 0.961 . S
C1908 H1922 0.961 . S
C1909 C1906 1.539 . S
C1909 H1923 0.958 . S
C1909 H1924 0.961 . S
C1909 H1925 0.960 . S
H1910 C1894 0.931 . S
H1911 C1899 0.929 . S
H1912 C1900 0.960 . S
H1913 C1900 0.962 . S
H1914 C1900 0.960 . S
H1915 C1901 0.961 . S
H1916 C1901 0.961 . S
H1917 C1901 0.961 . S
H1918 C1902 0.931 . S
H1919 C1907 0.930 . S
H1920 C1908 0.956 . S
H1921 C1908 0.961 . S
H1922 C1908 0.961 . S
H1923 C1909 0.958 . S
H1924 C1909 0.961 . S
H1925 C1909 0.960 . S
C1926 C1927 1.391 . S
C1926 C1928 1.394 . S
C1926 H1942 0.931 . S
C1927 C1926 1.391 . S
C1927 C1931 1.376 . S
C1928 C1926 1.394 . S
C1928 C1929 1.369 . S
C1928 C1932 1.531 . S
C1929 C1928 1.369 . S
C1929 C1930 1.410 . S
C1929 C1937 1.503 . S
C1930 C1929 1.410 . S
C1930 C1931 1.392 . S
C1930 C1933 1.511 . S
C1931 C1927 1.376 . S
C1931 C1930 1.392 . S
C1931 H1943 0.929 . S
C1932 C1928 1.531 . S
C1932 H1944 0.960 . S
C1932 H1945 0.962 . S
C1932 H1946 0.960 . S
C1933 C1930 1.511 . S
C1933 H1947 0.961 . S
C1933 H1948 0.961 . S
C1933 H1949 0.961 . S
C1934 C1935 1.370 . S
C1934 C1936 1.363 . S
C1934 H1950 0.931 . S
C1935 C1934 1.370 . S
C1935 C1939 1.408 . S
C1936 C1934 1.363 . S
C1936 C1937 1.370 . S
C1936 C1940 1.524 . S
C1937 C1929 1.503 . S
C1937 C1936 1.370 . S
C1937 C1938 1.403 . S
C1938 C1937 1.403 . S
C1938 C1939 1.404 . S
C1938 C1941 1.539 . S
C1939 C1935 1.408 . S
C1939 C1938 1.404 . S
C1939 H1951 0.930 . S
C1940 C1936 1.524 . S
C1940 H1952 0.956 . S
C1940 H1953 0.961 . S
C1940 H1954 0.961 . S
C1941 C1938 1.539 . S
C1941 H1955 0.958 . S
C1941 H1956 0.961 . S
C1941 H1957 0.960 . S
H1942 C1926 0.931 . S
H1943 C1931 0.929 . S
H1944 C1932 0.960 . S
H1945 C1932 0.962 . S
H1946 C1932 0.960 . S
H1947 C1933 0.961 . S
H1948 C1933 0.961 . S
H1949 C1933 0.961 . S
H1950 C1934 0.931 . S
H1951 C1939 0.930 . S
H1952 C1940 0.956 . S
H1953 C1940 0.961 . S
H1954 C1940 0.961 . S
H1955 C1941 0.958 . S
H1956 C1941 0.961 . S
H1957 C1941 0.960 . S
C1958 C1959 1.391 . S
C1958 C1960 1.394 . S
C1958 H1974 0.931 . S
C1959 C1958 1.391 . S
C1959 C1963 1.376 . S
C1960 C1958 1.394 . S
C1960 C1961 1.369 . S
C1960 C1964 1.531 . S
C1961 C1960 1.369 . S
C1961 C1962 1.410 . S
C1961 C1969 1.503 . S
C1962 C1961 1.410 . S
C1962 C1963 1.392 . S
C1962 C1965 1.511 . S
C1963 C1959 1.376 . S
C1963 C1962 1.392 . S
C1963 H1975 0.929 . S
C1964 C1960 1.531 . S
C1964 H1976 0.960 . S
C1964 H1977 0.962 . S
C1964 H1978 0.960 . S
C1965 C1962 1.511 . S
C1965 H1979 0.961 . S
C1965 H1980 0.961 . S
C1965 H1981 0.961 . S
C1966 C1967 1.370 . S
C1966 C1968 1.363 . S
C1966 H1982 0.931 . S
C1967 C1966 1.370 . S
C1967 C1971 1.408 . S
C1968 C1966 1.363 . S
C1968 C1969 1.370 . S
C1968 C1972 1.524 . S
C1969 C1961 1.503 . S
C1969 C1968 1.370 . S
C1969 C1970 1.403 . S
C1970 C1969 1.403 . S
C1970 C1971 1.404 . S
C1970 C1973 1.539 . S
C1971 C1967 1.408 . S
C1971 C1970 1.404 . S
C1971 H1983 0.930 . S
C1972 C1968 1.524 . S
C1972 H1984 0.956 . S
C1972 H1985 0.961 . S
C1972 H1986 0.961 . S
C1973 C1970 1.539 . S
C1973 H1987 0.958 . S
C1973 H1988 0.961 . S
C1973 H1989 0.960 . S
H1974 C1958 0.931 . S
H1975 C1963 0.929 . S
H1976 C1964 0.960 . S
H1977 C1964 0.962 . S
H1978 C1964 0.960 . S
H1979 C1965 0.961 . S
H1980 C1965 0.961 . S
H1981 C1965 0.961 . S
H1982 C1966 0.931 . S
H1983 C1971 0.930 . S
H1984 C1972 0.956 . S
H1985 C1972 0.961 . S
H1986 C1972 0.961 . S
H1987 C1973 0.958 . S
H1988 C1973 0.961 . S
H1989 C1973 0.960 . S
C1990 C1991 1.391 . S
C1990 C1992 1.394 . S
C1990 H2006 0.931 . S
C1991 C1990 1.391 . S
C1991 C1995 1.376 . S
C1992 C1990 1.394 . S
C1992 C1993 1.369 . S
C1992 C1996 1.531 . S
C1993 C1992 1.369 . S
C1993 C1994 1.410 . S
C1993 C2001 1.503 . S
C1994 C1993 1.410 . S
C1994 C1995 1.392 . S
C1994 C1997 1.511 . S
C1995 C1991 1.376 . S
C1995 C1994 1.392 . S
C1995 H2007 0.929 . S
C1996 C1992 1.531 . S
C1996 H2008 0.960 . S
C1996 H2009 0.962 . S
C1996 H2010 0.960 . S
C1997 C1994 1.511 . S
C1997 H2011 0.961 . S
C1997 H2012 0.961 . S
C1997 H2013 0.961 . S
C1998 C1999 1.370 . S
C1998 C2000 1.363 . S
C1998 H2014 0.931 . S
C1999 C1998 1.370 . S
C1999 C2003 1.408 . S
C2000 C1998 1.363 . S
C2000 C2001 1.370 . S
C2000 C2004 1.524 . S
C2001 C1993 1.503 . S
C2001 C2000 1.370 . S
C2001 C2002 1.403 . S
C2002 C2001 1.403 . S
C2002 C2003 1.404 . S
C2002 C2005 1.539 . S
C2003 C1999 1.408 . S
C2003 C2002 1.404 . S
C2003 H2015 0.930 . S
C2004 C2000 1.524 . S
C2004 H2016 0.956 . S
C2004 H2017 0.961 . S
C2004 H2018 0.961 . S
C2005 C2002 1.539 . S
C2005 H2019 0.958 . S
C2005 H2020 0.961 . S
C2005 H2021 0.960 . S
H2006 C1990 0.931 . S
H2007 C1995 0.929 . S
H2008 C1996 0.960 . S
H2009 C1996 0.962 . S
H2010 C1996 0.960 . S
H2011 C1997 0.961 . S
H2012 C1997 0.961 . S
H2013 C1997 0.961 . S
H2014 C1998 0.931 . S
H2015 C2003 0.930 . S
H2016 C2004 0.956 . S
H2017 C2004 0.961 . S
H2018 C2004 0.961 . S
H2019 C2005 0.958 . S
H2020 C2005 0.961 . S
H2021 C2005 0.960 . S
C2022 C2023 1.391 . S
C2022 C2024 1.394 . S
C2022 H2038 0.931 . S
C2023 C2022 1.391 . S
C2023 C2027 1.376 . S
C2024 C2022 1.394 . S
C2024 C2025 1.369 . S
C2024 C2028 1.531 . S
C2025 C2024 1.369 . S
C2025 C2026 1.410 . S
C2025 C2033 1.503 . S
C2026 C2025 1.410 . S
C2026 C2027 1.392 . S
C2026 C2029 1.511 . S
C2027 C2023 1.376 . S
C2027 C2026 1.392 . S
C2027 H2039 0.929 . S
C2028 C2024 1.531 . S
C2028 H2040 0.960 . S
C2028 H2041 0.962 . S
C2028 H2042 0.960 . S
C2029 C2026 1.511 . S
C2029 H2043 0.961 . S
C2029 H2044 0.961 . S
C2029 H2045 0.961 . S
C2030 C2031 1.370 . S
C2030 C2032 1.363 . S
C2030 H2046 0.931 . S
C2031 C2030 1.370 . S
C2031 C2035 1.408 . S
C2032 C2030 1.363 . S
C2032 C2033 1.370 . S
C2032 C2036 1.524 . S
C2033 C2025 1.503 . S
C2033 C2032 1.370 . S
C2033 C2034 1.403 . S
C2034 C2033 1.403 . S
C2034 C2035 1.404 . S
C2034 C2037 1.539 . S
C2035 C2031 1.408 . S
C2035 C2034 1.404 . S
C2035 H2047 0.930 . S
C2036 C2032 1.524 . S
C2036 H2048 0.956 . S
C2036 H2049 0.961 . S
C2036 H2050 0.961 . S
C2037 C2034 1.539 . S
C2037 H2051 0.958 . S
C2037 H2052 0.961 . S
C2037 H2053 0.960 . S
H2038 C2022 0.931 . S
H2039 C2027 0.929 . S
H2040 C2028 0.960 . S
H2041 C2028 0.962 . S
H2042 C2028 0.960 . S
H2043 C2029 0.961 . S
H2044 C2029 0.961 . S
H2045 C2029 0.961 . S
H2046 C2030 0.931 . S
H2047 C2035 0.930 . S
H2048 C2036 0.956 . S
H2049 C2036 0.961 . S
H2050 C2036 0.961 . S
H2051 C2037 0.958 . S
H2052 C2037 0.961 . S
H2053 C2037 0.960 . S
C2054 C2055 1.391 . S
C2054 C2056 1.394 . S
C2054 H2070 0.931 . S
C2055 C2054 1.391 . S
C2055 C2059 1.376 . S
C2056 C2054 1.394 . S
C2056 C2057 1.369 . S
C2056 C2060 1.531 . S
C2057 C2056 1.369 . S
C2057 C2058 1.410 . S
C2057 C2065 1.503 . S
C2058 C2057 1.410 . S
C2058 C2059 1.392 . S
C2058 C2061 1.511 . S
C2059 C2055 1.376 . S
C2059 C2058 1.392 . S
C2059 H2071 0.929 . S
C2060 C2056 1.531 . S
C2060 H2072 0.960 . S
C2060 H2073 0.962 . S
C2060 H2074 0.960 . S
C2061 C2058 1.511 . S
C2061 H2075 0.961 . S
C2061 H2076 0.961 . S
C2061 H2077 0.961 . S
C2062 C2063 1.370 . S
C2062 C2064 1.363 . S
C2062 H2078 0.931 . S
C2063 C2062 1.370 . S
C2063 C2067 1.408 . S
C2064 C2062 1.363 . S
C2064 C2065 1.370 . S
C2064 C2068 1.524 . S
C2065 C2057 1.503 . S
C2065 C2064 1.370 . S
C2065 C2066 1.403 . S
C2066 C2065 1.403 . S
C2066 C2067 1.404 . S
C2066 C2069 1.539 . S
C2067 C2063 1.408 . S
C2067 C2066 1.404 . S
C2067 H2079 0.930 . S
C2068 C2064 1.524 . S
C2068 H2080 0.956 . S
C2068 H2081 0.961 . S
C2068 H2082 0.961 . S
C2069 C2066 1.539 . S
C2069 H2083 0.958 . S
C2069 H2084 0.961 . S
C2069 H2085 0.960 . S
H2070 C2054 0.931 . S
H2071 C2059 0.929 . S
H2072 C2060 0.960 . S
H2073 C2060 0.962 . S
H2074 C2060 0.960 . S
H2075 C2061 0.961 . S
H2076 C2061 0.961 . S
H2077 C2061 0.961 . S
H2078 C2062 0.931 . S
H2079 C2067 0.930 . S
H2080 C2068 0.956 . S
H2081 C2068 0.961 . S
H2082 C2068 0.961 . S
H2083 C2069 0.958 . S
H2084 C2069 0.961 . S
H2085 C2069 0.960 . S
C2086 C2087 1.391 . S
C2086 C2088 1.394 . S
C2086 H2102 0.931 . S
C2087 C2086 1.391 . S
C2087 C2091 1.376 . S
C2088 C2086 1.394 . S
C2088 C2089 1.369 . S
C2088 C2092 1.531 . S
C2089 C2088 1.369 . S
C2089 C2090 1.410 . S
C2089 C2097 1.503 . S
C2090 C2089 1.410 . S
C2090 C2091 1.392 . S
C2090 C2093 1.511 . S
C2091 C2087 1.376 . S
C2091 C2090 1.392 . S
C2091 H2103 0.929 . S
C2092 C2088 1.531 . S
C2092 H2104 0.960 . S
C2092 H2105 0.962 . S
C2092 H2106 0.960 . S
C2093 C2090 1.511 . S
C2093 H2107 0.961 . S
C2093 H2108 0.961 . S
C2093 H2109 0.961 . S
C2094 C2095 1.370 1_655 S
C2094 C2096 1.363 . S
C2094 H2110 0.931 . S
C2095 C2094 1.370 1_455 S
C2095 C2099 1.408 1_455 S
C2096 C2094 1.363 . S
C2096 C2097 1.370 . S
C2096 C2100 1.524 . S
C2097 C2089 1.503 . S
C2097 C2096 1.370 . S
C2097 C2098 1.403 . S
C2098 C2097 1.403 . S
C2098 C2099 1.404 . S
C2098 C2101 1.539 . S
C2099 C2095 1.408 1_655 S
C2099 C2098 1.404 . S
C2099 H2111 0.930 1_655 S
C2100 C2096 1.524 . S
C2100 H2112 0.956 . S
C2100 H2113 0.961 . S
C2100 H2114 0.961 . S
C2101 C2098 1.539 . S
C2101 H2115 0.958 . S
C2101 H2116 0.961 . S
C2101 H2117 0.960 . S
H2102 C2086 0.931 . S
H2103 C2091 0.929 . S
H2104 C2092 0.960 . S
H2105 C2092 0.962 . S
H2106 C2092 0.960 . S
H2107 C2093 0.961 . S
H2108 C2093 0.961 . S
H2109 C2093 0.961 . S
H2110 C2094 0.931 . S
H2111 C2099 0.930 1_455 S
H2112 C2100 0.956 . S
H2113 C2100 0.961 . S
H2114 C2100 0.961 . S
H2115 C2101 0.958 . S
H2116 C2101 0.961 . S
H2117 C2101 0.960 . S
C2118 C2119 1.391 . S
C2118 C2120 1.394 . S
C2118 H2134 0.931 . S
C2119 C2118 1.391 . S
C2119 C2123 1.376 . S
C2120 C2118 1.394 . S
C2120 C2121 1.369 . S
C2120 C2124 1.531 . S
C2121 C2120 1.369 . S
C2121 C2122 1.410 . S
C2121 C2129 1.503 . S
C2122 C2121 1.410 . S
C2122 C2123 1.392 . S
C2122 C2125 1.511 . S
C2123 C2119 1.376 . S
C2123 C2122 1.392 . S
C2123 H2135 0.929 . S
C2124 C2120 1.531 . S
C2124 H2136 0.960 . S
C2124 H2137 0.962 . S
C2124 H2138 0.960 . S
C2125 C2122 1.511 . S
C2125 H2139 0.961 . S
C2125 H2140 0.961 . S
C2125 H2141 0.961 . S
C2126 C2127 1.370 . S
C2126 C2128 1.363 . S
C2126 H2142 0.931 . S
C2127 C2126 1.370 . S
C2127 C2131 1.408 . S
C2128 C2126 1.363 . S
C2128 C2129 1.370 . S
C2128 C2132 1.524 . S
C2129 C2121 1.503 . S
C2129 C2128 1.370 . S
C2129 C2130 1.403 . S
C2130 C2129 1.403 . S
C2130 C2131 1.404 . S
C2130 C2133 1.539 . S
C2131 C2127 1.408 . S
C2131 C2130 1.404 . S
C2131 H2143 0.930 . S
C2132 C2128 1.524 . S
C2132 H2144 0.956 . S
C2132 H2145 0.961 . S
C2132 H2146 0.961 . S
C2133 C2130 1.539 . S
C2133 H2147 0.958 . S
C2133 H2148 0.961 . S
C2133 H2149 0.960 . S
H2134 C2118 0.931 . S
H2135 C2123 0.929 . S
H2136 C2124 0.960 . S
H2137 C2124 0.962 . S
H2138 C2124 0.960 . S
H2139 C2125 0.961 . S
H2140 C2125 0.961 . S
H2141 C2125 0.961 . S
H2142 C2126 0.931 . S
H2143 C2131 0.930 . S
H2144 C2132 0.956 . S
H2145 C2132 0.961 . S
H2146 C2132 0.961 . S
H2147 C2133 0.958 . S
H2148 C2133 0.961 . S
H2149 C2133 0.960 . S
C2150 C2151 1.391 . S
C2150 C2152 1.394 . S
C2150 H2166 0.931 . S
C2151 C2150 1.391 . S
C2151 C2155 1.376 . S
C2152 C2150 1.394 . S
C2152 C2153 1.369 . S
C2152 C2156 1.531 . S
C2153 C2152 1.369 . S
C2153 C2154 1.410 . S
C2153 C2161 1.503 . S
C2154 C2153 1.410 . S
C2154 C2155 1.392 . S
C2154 C2157 1.511 . S
C2155 C2151 1.376 . S
C2155 C2154 1.392 . S
C2155 H2167 0.929 . S
C2156 C2152 1.531 . S
C2156 H2168 0.960 . S
C2156 H2169 0.962 . S
C2156 H2170 0.960 . S
C2157 C2154 1.511 . S
C2157 H2171 0.961 . S
C2157 H2172 0.961 . S
C2157 H2173 0.961 . S
C2158 C2159 1.370 . S
C2158 C2160 1.363 . S
C2158 H2174 0.931 . S
C2159 C2158 1.370 . S
C2159 C2163 1.408 . S
C2160 C2158 1.363 . S
C2160 C2161 1.370 . S
C2160 C2164 1.524 . S
C2161 C2153 1.503 . S
C2161 C2160 1.370 . S
C2161 C2162 1.403 . S
C2162 C2161 1.403 . S
C2162 C2163 1.404 . S
C2162 C2165 1.539 . S
C2163 C2159 1.408 . S
C2163 C2162 1.404 . S
C2163 H2175 0.930 . S
C2164 C2160 1.524 . S
C2164 H2176 0.956 . S
C2164 H2177 0.961 . S
C2164 H2178 0.961 . S
C2165 C2162 1.539 . S
C2165 H2179 0.958 . S
C2165 H2180 0.961 . S
C2165 H2181 0.960 . S
H2166 C2150 0.931 . S
H2167 C2155 0.929 . S
H2168 C2156 0.960 . S
H2169 C2156 0.962 . S
H2170 C2156 0.960 . S
H2171 C2157 0.961 . S
H2172 C2157 0.961 . S
H2173 C2157 0.961 . S
H2174 C2158 0.931 . S
H2175 C2163 0.930 . S
H2176 C2164 0.956 . S
H2177 C2164 0.961 . S
H2178 C2164 0.961 . S
H2179 C2165 0.958 . S
H2180 C2165 0.961 . S
H2181 C2165 0.960 . S
C2182 C2183 1.391 . S
C2182 C2184 1.394 . S
C2182 H2198 0.931 . S
C2183 C2182 1.391 . S
C2183 C2187 1.376 . S
C2184 C2182 1.394 . S
C2184 C2185 1.369 . S
C2184 C2188 1.531 . S
C2185 C2184 1.369 . S
C2185 C2186 1.410 . S
C2185 C2193 1.503 . S
C2186 C2185 1.410 . S
C2186 C2187 1.392 . S
C2186 C2189 1.511 . S
C2187 C2183 1.376 . S
C2187 C2186 1.392 . S
C2187 H2199 0.929 . S
C2188 C2184 1.531 . S
C2188 H2200 0.960 . S
C2188 H2201 0.962 . S
C2188 H2202 0.960 . S
C2189 C2186 1.511 . S
C2189 H2203 0.961 . S
C2189 H2204 0.961 . S
C2189 H2205 0.961 . S
C2190 C2191 1.370 . S
C2190 C2192 1.363 . S
C2190 H2206 0.931 . S
C2191 C2190 1.370 . S
C2191 C2195 1.408 . S
C2192 C2190 1.363 . S
C2192 C2193 1.370 . S
C2192 C2196 1.524 . S
C2193 C2185 1.503 . S
C2193 C2192 1.370 . S
C2193 C2194 1.403 . S
C2194 C2193 1.403 . S
C2194 C2195 1.404 . S
C2194 C2197 1.539 . S
C2195 C2191 1.408 . S
C2195 C2194 1.404 . S
C2195 H2207 0.930 . S
C2196 C2192 1.524 . S
C2196 H2208 0.956 . S
C2196 H2209 0.961 . S
C2196 H2210 0.961 . S
C2197 C2194 1.539 . S
C2197 H2211 0.958 . S
C2197 H2212 0.961 . S
C2197 H2213 0.960 . S
H2198 C2182 0.931 . S
H2199 C2187 0.929 . S
H2200 C2188 0.960 . S
H2201 C2188 0.962 . S
H2202 C2188 0.960 . S
H2203 C2189 0.961 . S
H2204 C2189 0.961 . S
H2205 C2189 0.961 . S
H2206 C2190 0.931 . S
H2207 C2195 0.930 . S
H2208 C2196 0.956 . S
H2209 C2196 0.961 . S
H2210 C2196 0.961 . S
H2211 C2197 0.958 . S
H2212 C2197 0.961 . S
H2213 C2197 0.960 . S
C2214 C2215 1.391 . S
C2214 C2216 1.394 . S
C2214 H2230 0.931 . S
C2215 C2214 1.391 . S
C2215 C2219 1.376 . S
C2216 C2214 1.394 . S
C2216 C2217 1.369 . S
C2216 C2220 1.531 . S
C2217 C2216 1.369 . S
C2217 C2218 1.410 . S
C2217 C2225 1.503 . S
C2218 C2217 1.410 . S
C2218 C2219 1.392 . S
C2218 C2221 1.511 . S
C2219 C2215 1.376 . S
C2219 C2218 1.392 . S
C2219 H2231 0.929 . S
C2220 C2216 1.531 . S
C2220 H2232 0.960 . S
C2220 H2233 0.962 . S
C2220 H2234 0.960 . S
C2221 C2218 1.511 . S
C2221 H2235 0.961 . S
C2221 H2236 0.961 . S
C2221 H2237 0.961 . S
C2222 C2223 1.370 . S
C2222 C2224 1.363 . S
C2222 H2238 0.931 . S
C2223 C2222 1.370 . S
C2223 C2227 1.408 . S
C2224 C2222 1.363 . S
C2224 C2225 1.370 . S
C2224 C2228 1.524 . S
C2225 C2217 1.503 . S
C2225 C2224 1.370 . S
C2225 C2226 1.403 . S
C2226 C2225 1.403 . S
C2226 C2227 1.404 . S
C2226 C2229 1.539 . S
C2227 C2223 1.408 . S
C2227 C2226 1.404 . S
C2227 H2239 0.930 . S
C2228 C2224 1.524 . S
C2228 H2240 0.956 . S
C2228 H2241 0.961 . S
C2228 H2242 0.961 . S
C2229 C2226 1.539 . S
C2229 H2243 0.958 . S
C2229 H2244 0.961 1_455 S
C2229 H2245 0.960 . S
H2230 C2214 0.931 . S
H2231 C2219 0.929 . S
H2232 C2220 0.960 . S
H2233 C2220 0.962 . S
H2234 C2220 0.960 . S
H2235 C2221 0.961 . S
H2236 C2221 0.961 . S
H2237 C2221 0.961 . S
H2238 C2222 0.931 . S
H2239 C2227 0.930 . S
H2240 C2228 0.956 . S
H2241 C2228 0.961 . S
H2242 C2228 0.961 . S
H2243 C2229 0.958 . S
H2244 C2229 0.961 1_655 S
H2245 C2229 0.960 . S
C2246 C2247 1.391 . S
C2246 C2248 1.394 . S
C2246 H2262 0.931 . S
C2247 C2246 1.391 . S
C2247 C2251 1.376 . S
C2248 C2246 1.394 . S
C2248 C2249 1.369 . S
C2248 C2252 1.531 . S
C2249 C2248 1.369 . S
C2249 C2250 1.410 . S
C2249 C2257 1.503 . S
C2250 C2249 1.410 . S
C2250 C2251 1.392 . S
C2250 C2253 1.511 . S
C2251 C2247 1.376 . S
C2251 C2250 1.392 . S
C2251 H2263 0.929 . S
C2252 C2248 1.531 . S
C2252 H2264 0.960 . S
C2252 H2265 0.962 . S
C2252 H2266 0.960 . S
C2253 C2250 1.511 . S
C2253 H2267 0.961 . S
C2253 H2268 0.961 . S
C2253 H2269 0.961 . S
C2254 C2255 1.370 . S
C2254 C2256 1.363 . S
C2254 H2270 0.931 . S
C2255 C2254 1.370 . S
C2255 C2259 1.408 . S
C2256 C2254 1.363 . S
C2256 C2257 1.370 . S
C2256 C2260 1.524 . S
C2257 C2249 1.503 . S
C2257 C2256 1.370 . S
C2257 C2258 1.403 . S
C2258 C2257 1.403 . S
C2258 C2259 1.404 . S
C2258 C2261 1.539 . S
C2259 C2255 1.408 . S
C2259 C2258 1.404 . S
C2259 H2271 0.930 . S
C2260 C2256 1.524 . S
C2260 H2272 0.956 . S
C2260 H2273 0.961 . S
C2260 H2274 0.961 . S
C2261 C2258 1.539 . S
C2261 H2275 0.958 . S
C2261 H2276 0.961 . S
C2261 H2277 0.960 . S
H2262 C2246 0.931 . S
H2263 C2251 0.929 . S
H2264 C2252 0.960 . S
H2265 C2252 0.962 . S
H2266 C2252 0.960 . S
H2267 C2253 0.961 . S
H2268 C2253 0.961 . S
H2269 C2253 0.961 . S
H2270 C2254 0.931 . S
H2271 C2259 0.930 . S
H2272 C2260 0.956 . S
H2273 C2260 0.961 . S
H2274 C2260 0.961 . S
H2275 C2261 0.958 . S
H2276 C2261 0.961 . S
H2277 C2261 0.960 . S
C2278 C2279 1.391 1_545 S
C2278 C2280 1.394 . S
C2278 H2294 0.931 . S
C2279 C2278 1.391 1_565 S
C2279 C2283 1.376 . S
C2280 C2278 1.394 . S
C2280 C2281 1.369 . S
C2280 C2284 1.531 . S
C2281 C2280 1.369 . S
C2281 C2282 1.410 1_545 S
C2281 C2289 1.503 . S
C2282 C2281 1.410 1_565 S
C2282 C2283 1.392 . S
C2282 C2285 1.511 . S
C2283 C2279 1.376 . S
C2283 C2282 1.392 . S
C2283 H2295 0.929 . S
C2284 C2280 1.531 . S
C2284 H2296 0.960 . S
C2284 H2297 0.962 . S
C2284 H2298 0.960 . S
C2285 C2282 1.511 . S
C2285 H2299 0.961 . S
C2285 H2300 0.961 . S
C2285 H2301 0.961 . S
C2286 C2287 1.370 . S
C2286 C2288 1.363 . S
C2286 H2302 0.931 . S
C2287 C2286 1.370 . S
C2287 C2291 1.408 . S
C2288 C2286 1.363 . S
C2288 C2289 1.370 . S
C2288 C2292 1.524 . S
C2289 C2281 1.503 . S
C2289 C2288 1.370 . S
C2289 C2290 1.403 . S
C2290 C2289 1.403 . S
C2290 C2291 1.405 . S
C2290 C2293 1.538 1_545 S
C2291 C2287 1.408 . S
C2291 C2290 1.405 . S
C2291 H2303 0.917 1_545 S
C2292 C2288 1.524 . S
C2292 H2304 0.956 . S
C2292 H2305 0.961 . S
C2292 H2306 0.961 . S
C2293 C2290 1.538 1_565 S
C2293 H2307 0.958 . S
C2293 H2308 0.961 . S
C2293 H2309 0.960 . S
H2294 C2278 0.931 . S
H2295 C2283 0.929 . S
H2296 C2284 0.960 . S
H2297 C2284 0.962 . S
H2298 C2284 0.960 . S
H2299 C2285 0.961 . S
H2300 C2285 0.961 . S
H2301 C2285 0.961 . S
H2302 C2286 0.931 . S
H2303 C2291 0.917 1_565 S
H2304 C2292 0.956 . S
H2305 C2292 0.961 . S
H2306 C2292 0.961 . S
H2307 C2293 0.958 . S
H2308 C2293 0.961 . S
H2309 C2293 0.960 . S
C2310 C2311 1.391 . S
C2310 C2312 1.394 . S
C2310 H2326 0.931 . S
C2311 C2310 1.391 . S
C2311 C2315 1.376 . S
C2312 C2310 1.394 . S
C2312 C2313 1.369 . S
C2312 C2316 1.531 . S
C2313 C2312 1.369 . S
C2313 C2314 1.410 . S
C2313 C2321 1.503 . S
C2314 C2313 1.410 . S
C2314 C2315 1.392 . S
C2314 C2317 1.511 . S
C2315 C2311 1.376 . S
C2315 C2314 1.392 . S
C2315 H2327 0.929 . S
C2316 C2312 1.531 . S
C2316 H2328 0.960 . S
C2316 H2329 0.962 . S
C2316 H2330 0.960 . S
C2317 C2314 1.511 . S
C2317 H2331 0.961 . S
C2317 H2332 0.961 . S
C2317 H2333 0.961 . S
C2318 C2319 1.370 . S
C2318 C2320 1.363 . S
C2318 H2334 0.931 1_545 S
C2319 C2318 1.370 . S
C2319 C2323 1.408 . S
C2320 C2318 1.363 . S
C2320 C2321 1.370 . S
C2320 C2324 1.524 1_545 S
C2321 C2313 1.503 . S
C2321 C2320 1.370 . S
C2321 C2322 1.403 . S
C2322 C2321 1.403 . S
C2322 C2323 1.404 . S
C2322 C2325 1.539 . S
C2323 C2319 1.408 . S
C2323 C2322 1.404 . S
C2323 H2335 0.930 . S
C2324 C2320 1.524 1_565 S
C2324 H2336 0.956 . S
C2324 H2337 0.961 . S
C2324 H2338 0.961 . S
C2325 C2322 1.539 . S
C2325 H2339 0.958 . S
C2325 H2340 0.961 . S
C2325 H2341 0.960 . S
H2326 C2310 0.931 . S
H2327 C2315 0.929 . S
H2328 C2316 0.960 . S
H2329 C2316 0.962 . S
H2330 C2316 0.960 . S
H2331 C2317 0.961 . S
H2332 C2317 0.961 . S
H2333 C2317 0.961 . S
H2334 C2318 0.931 1_565 S
H2335 C2323 0.930 . S
H2336 C2324 0.956 . S
H2337 C2324 0.961 . S
H2338 C2324 0.961 . S
H2339 C2325 0.958 . S
H2340 C2325 0.961 . S
H2341 C2325 0.960 . S
C2342 C2343 1.391 . S
C2342 C2344 1.394 . S
C2342 H2358 0.931 . S
C2343 C2342 1.391 . S
C2343 C2347 1.376 . S
C2344 C2342 1.394 . S
C2344 C2345 1.369 . S
C2344 C2348 1.531 . S
C2345 C2344 1.369 . S
C2345 C2346 1.410 . S
C2345 C2353 1.503 . S
C2346 C2345 1.410 . S
C2346 C2347 1.392 . S
C2346 C2349 1.511 . S
C2347 C2343 1.376 . S
C2347 C2346 1.392 . S
C2347 H2359 0.929 . S
C2348 C2344 1.531 . S
C2348 H2360 0.960 . S
C2348 H2361 0.962 . S
C2348 H2362 0.960 . S
C2349 C2346 1.511 . S
C2349 H2363 0.961 . S
C2349 H2364 0.961 . S
C2349 H2365 0.961 . S
C2350 C2351 1.370 . S
C2350 C2352 1.363 . S
C2350 H2366 0.931 . S
C2351 C2350 1.370 . S
C2351 C2355 1.408 . S
C2352 C2350 1.363 . S
C2352 C2353 1.370 . S
C2352 C2356 1.524 . S
C2353 C2345 1.503 . S
C2353 C2352 1.370 . S
C2353 C2354 1.403 . S
C2354 C2353 1.403 . S
C2354 C2355 1.404 . S
C2354 C2357 1.539 1_455 S
C2355 C2351 1.408 . S
C2355 C2354 1.404 . S
C2355 H2367 0.969 . S
C2356 C2352 1.524 . S
C2356 H2368 0.956 . S
C2356 H2369 0.961 . S
C2356 H2370 0.961 . S
C2357 C2354 1.539 1_655 S
C2357 H2371 0.958 . S
C2357 H2372 0.961 . S
C2357 H2373 0.960 . S
H2358 C2342 0.931 . S
H2359 C2347 0.929 . S
H2360 C2348 0.960 . S
H2361 C2348 0.962 . S
H2362 C2348 0.960 . S
H2363 C2349 0.961 . S
H2364 C2349 0.961 . S
H2365 C2349 0.961 . S
H2366 C2350 0.931 . S
H2367 C2355 0.969 . S
H2368 C2356 0.956 . S
H2369 C2356 0.961 . S
H2370 C2356 0.961 . S
H2371 C2357 0.958 . S
H2372 C2357 0.961 . S
H2373 C2357 0.960 . S
C2374 C2375 1.391 . S
C2374 C2376 1.394 . S
C2374 H2390 0.931 . S
C2375 C2374 1.391 . S
C2375 C2379 1.376 . S
C2376 C2374 1.394 . S
C2376 C2377 1.369 . S
C2376 C2380 1.531 . S
C2377 C2376 1.369 . S
C2377 C2378 1.410 . S
C2377 C2385 1.503 . S
C2378 C2377 1.410 . S
C2378 C2379 1.392 . S
C2378 C2381 1.511 . S
C2379 C2375 1.376 . S
C2379 C2378 1.392 . S
C2379 H2391 0.929 . S
C2380 C2376 1.531 . S
C2380 H2392 0.960 . S
C2380 H2393 0.962 . S
C2380 H2394 0.960 . S
C2381 C2378 1.511 . S
C2381 H2395 0.961 . S
C2381 H2396 0.961 . S
C2381 H2397 0.961 . S
C2382 C2383 1.370 . S
C2382 C2384 1.363 . S
C2382 H2398 0.931 . S
C2383 C2382 1.370 . S
C2383 C2387 1.408 . S
C2384 C2382 1.363 . S
C2384 C2385 1.370 . S
C2384 C2388 1.524 . S
C2385 C2377 1.503 . S
C2385 C2384 1.370 . S
C2385 C2386 1.403 . S
C2386 C2385 1.403 . S
C2386 C2387 1.404 . S
C2386 C2389 1.539 . S
C2387 C2383 1.408 . S
C2387 C2386 1.404 . S
C2387 H2399 0.930 . S
C2388 C2384 1.524 . S
C2388 H2400 0.956 . S
C2388 H2401 0.961 . S
C2388 H2402 0.961 . S
C2389 C2386 1.539 . S
C2389 H2403 0.958 . S
C2389 H2404 0.961 . S
C2389 H2405 0.960 . S
H2390 C2374 0.931 . S
H2391 C2379 0.929 . S
H2392 C2380 0.960 . S
H2393 C2380 0.962 . S
H2394 C2380 0.960 . S
H2395 C2381 0.961 . S
H2396 C2381 0.961 . S
H2397 C2381 0.961 . S
H2398 C2382 0.931 . S
H2399 C2387 0.930 . S
H2400 C2388 0.956 . S
H2401 C2388 0.961 . S
H2402 C2388 0.961 . S
H2403 C2389 0.958 . S
H2404 C2389 0.961 . S
H2405 C2389 0.960 . S
C2406 C2407 1.391 . S
C2406 C2408 1.394 . S
C2406 H2422 0.931 . S
C2407 C2406 1.391 . S
C2407 C2411 1.376 . S
C2408 C2406 1.394 . S
C2408 C2409 1.369 . S
C2408 C2412 1.531 . S
C2409 C2408 1.369 . S
C2409 C2410 1.410 . S
C2409 C2417 1.503 . S
C2410 C2409 1.410 . S
C2410 C2411 1.392 . S
C2410 C2413 1.511 . S
C2411 C2407 1.376 . S
C2411 C2410 1.392 . S
C2411 H2423 0.929 . S
C2412 C2408 1.531 . S
C2412 H2424 0.960 . S
C2412 H2425 0.962 . S
C2412 H2426 0.960 . S
C2413 C2410 1.511 . S
C2413 H2427 0.961 1_455 S
C2413 H2428 0.961 . S
C2413 H2429 0.961 1_455 S
C2414 C2415 1.370 . S
C2414 C2416 1.363 . S
C2414 H2430 0.931 . S
C2415 C2414 1.370 . S
C2415 C2419 1.408 . S
C2416 C2414 1.363 . S
C2416 C2417 1.370 . S
C2416 C2420 1.524 . S
C2417 C2409 1.503 . S
C2417 C2416 1.370 . S
C2417 C2418 1.403 . S
C2418 C2417 1.403 . S
C2418 C2419 1.404 . S
C2418 C2421 1.539 . S
C2419 C2415 1.408 . S
C2419 C2418 1.404 . S
C2419 H2431 0.930 . S
C2420 C2416 1.524 . S
C2420 H2432 0.956 . S
C2420 H2433 0.961 . S
C2420 H2434 0.961 . S
C2421 C2418 1.539 . S
C2421 H2435 0.958 . S
C2421 H2436 0.961 . S
C2421 H2437 0.960 . S
H2422 C2406 0.931 . S
H2423 C2411 0.929 . S
H2424 C2412 0.960 . S
H2425 C2412 0.962 . S
H2426 C2412 0.960 . S
H2427 C2413 0.961 1_655 S
H2428 C2413 0.961 . S
H2429 C2413 0.961 1_655 S
H2430 C2414 0.931 . S
H2431 C2419 0.930 . S
H2432 C2420 0.956 . S
H2433 C2420 0.961 . S
H2434 C2420 0.961 . S
H2435 C2421 0.958 . S
H2436 C2421 0.961 . S
H2437 C2421 0.960 . S
C2438 C2439 1.391 . S
C2438 C2440 1.394 . S
C2438 H2454 0.931 . S
C2439 C2438 1.391 . S
C2439 C2443 1.376 . S
C2440 C2438 1.394 . S
C2440 C2441 1.369 . S
C2440 C2444 1.531 . S
C2441 C2440 1.369 . S
C2441 C2442 1.410 . S
C2441 C2449 1.503 . S
C2442 C2441 1.410 . S
C2442 C2443 1.392 . S
C2442 C2445 1.511 . S
C2443 C2439 1.376 . S
C2443 C2442 1.392 . S
C2443 H2455 0.929 . S
C2444 C2440 1.531 . S
C2444 H2456 0.960 . S
C2444 H2457 0.962 . S
C2444 H2458 0.960 . S
C2445 C2442 1.511 . S
C2445 H2459 0.961 . S
C2445 H2460 0.961 . S
C2445 H2461 0.961 . S
C2446 C2447 1.370 . S
C2446 C2448 1.363 . S
C2446 H2462 0.931 . S
C2447 C2446 1.370 . S
C2447 C2451 1.408 . S
C2448 C2446 1.363 . S
C2448 C2449 1.370 . S
C2448 C2452 1.524 . S
C2449 C2441 1.503 . S
C2449 C2448 1.370 . S
C2449 C2450 1.403 . S
C2450 C2449 1.403 . S
C2450 C2451 1.404 . S
C2450 C2453 1.539 . S
C2451 C2447 1.408 . S
C2451 C2450 1.404 . S
C2451 H2463 0.930 . S
C2452 C2448 1.524 . S
C2452 H2464 0.956 . S
C2452 H2465 0.961 . S
C2452 H2466 0.961 . S
C2453 C2450 1.539 . S
C2453 H2467 0.958 . S
C2453 H2468 0.961 . S
C2453 H2469 0.960 . S
H2454 C2438 0.931 . S
H2455 C2443 0.929 . S
H2456 C2444 0.960 . S
H2457 C2444 0.962 . S
H2458 C2444 0.960 . S
H2459 C2445 0.961 . S
H2460 C2445 0.961 . S
H2461 C2445 0.961 . S
H2462 C2446 0.931 . S
H2463 C2451 0.930 . S
H2464 C2452 0.956 . S
H2465 C2452 0.961 . S
H2466 C2452 0.961 . S
H2467 C2453 0.958 . S
H2468 C2453 0.961 . S
H2469 C2453 0.960 . S
C2470 C2471 1.391 . S
C2470 C2472 1.394 . S
C2470 H2486 0.931 . S
C2471 C2470 1.391 . S
C2471 C2475 1.376 . S
C2472 C2470 1.394 . S
C2472 C2473 1.369 . S
C2472 C2476 1.531 . S
C2473 C2472 1.369 . S
C2473 C2474 1.410 . S
C2473 C2481 1.503 . S
C2474 C2473 1.410 . S
C2474 C2475 1.392 . S
C2474 C2477 1.511 . S
C2475 C2471 1.376 . S
C2475 C2474 1.392 . S
C2475 H2487 0.929 . S
C2476 C2472 1.531 . S
C2476 H2488 0.960 . S
C2476 H2489 0.962 . S
C2476 H2490 0.960 . S
C2477 C2474 1.511 . S
C2477 H2491 0.961 . S
C2477 H2492 0.961 . S
C2477 H2493 0.961 . S
C2478 C2479 1.370 . S
C2478 C2480 1.363 . S
C2478 H2494 0.931 . S
C2479 C2478 1.370 . S
C2479 C2483 1.408 . S
C2480 C2478 1.363 . S
C2480 C2481 1.370 . S
C2480 C2484 1.524 1_545 S
C2481 C2473 1.503 . S
C2481 C2480 1.370 . S
C2481 C2482 1.403 . S
C2482 C2481 1.403 . S
C2482 C2483 1.404 . S
C2482 C2485 1.539 . S
C2483 C2479 1.408 . S
C2483 C2482 1.404 . S
C2483 H2495 0.930 . S
C2484 C2480 1.524 1_565 S
C2484 H2496 0.956 . S
C2484 H2497 0.961 . S
C2484 H2498 0.961 . S
C2485 C2482 1.539 . S
C2485 H2499 0.958 . S
C2485 H2500 0.961 . S
C2485 H2501 0.960 . S
H2486 C2470 0.931 . S
H2487 C2475 0.929 . S
H2488 C2476 0.960 . S
H2489 C2476 0.962 . S
H2490 C2476 0.960 . S
H2491 C2477 0.961 . S
H2492 C2477 0.961 . S
H2493 C2477 0.961 . S
H2494 C2478 0.931 . S
H2495 C2483 0.930 . S
H2496 C2484 0.956 . S
H2497 C2484 0.961 . S
H2498 C2484 0.961 . S
H2499 C2485 0.958 . S
H2500 C2485 0.961 . S
H2501 C2485 0.960 . S
C2502 C2503 1.391 . S
C2502 C2504 1.394 . S
C2502 H2518 0.931 . S
C2503 C2502 1.391 . S
C2503 C2507 1.376 . S
C2504 C2502 1.394 . S
C2504 C2505 1.369 . S
C2504 C2508 1.531 . S
C2505 C2504 1.369 . S
C2505 C2506 1.410 . S
C2505 C2513 1.503 . S
C2506 C2505 1.410 . S
C2506 C2507 1.392 . S
C2506 C2509 1.511 . S
C2507 C2503 1.376 . S
C2507 C2506 1.392 . S
C2507 H2519 0.929 . S
C2508 C2504 1.531 . S
C2508 H2520 0.960 . S
C2508 H2521 0.962 . S
C2508 H2522 0.960 . S
C2509 C2506 1.511 . S
C2509 H2523 0.961 . S
C2509 H2524 0.961 . S
C2509 H2525 0.961 . S
C2510 C2511 1.370 . S
C2510 C2512 1.363 . S
C2510 H2526 0.931 . S
C2511 C2510 1.370 . S
C2511 C2515 1.408 . S
C2512 C2510 1.363 . S
C2512 C2513 1.370 . S
C2512 C2516 1.524 . S
C2513 C2505 1.503 . S
C2513 C2512 1.370 . S
C2513 C2514 1.403 . S
C2514 C2513 1.403 . S
C2514 C2515 1.404 . S
C2514 C2517 1.539 . S
C2515 C2511 1.408 . S
C2515 C2514 1.404 . S
C2515 H2527 0.930 . S
C2516 C2512 1.524 . S
C2516 H2528 0.956 . S
C2516 H2529 0.961 . S
C2516 H2530 0.961 . S
C2517 C2514 1.539 . S
C2517 H2531 0.958 1_545 S
C2517 H2532 0.961 . S
C2517 H2533 0.960 . S
H2518 C2502 0.931 . S
H2519 C2507 0.929 . S
H2520 C2508 0.960 . S
H2521 C2508 0.962 . S
H2522 C2508 0.960 . S
H2523 C2509 0.961 . S
H2524 C2509 0.961 . S
H2525 C2509 0.961 . S
H2526 C2510 0.931 . S
H2527 C2515 0.930 . S
H2528 C2516 0.956 . S
H2529 C2516 0.961 . S
H2530 C2516 0.961 . S
H2531 C2517 0.958 1_565 S
H2532 C2517 0.961 . S
H2533 C2517 0.960 . S
C2534 C2535 1.391 . S
C2534 C2536 1.394 . S
C2534 H2550 0.931 . S
C2535 C2534 1.391 . S
C2535 C2539 1.376 . S
C2536 C2534 1.394 . S
C2536 C2537 1.369 . S
C2536 C2540 1.531 . S
C2537 C2536 1.369 . S
C2537 C2538 1.410 . S
C2537 C2545 1.503 . S
C2538 C2537 1.410 . S
C2538 C2539 1.392 . S
C2538 C2541 1.511 1_455 S
C2539 C2535 1.376 . S
C2539 C2538 1.392 . S
C2539 H2551 0.929 . S
C2540 C2536 1.531 . S
C2540 H2552 0.960 . S
C2540 H2553 0.962 . S
C2540 H2554 0.960 . S
C2541 C2538 1.511 1_655 S
C2541 H2555 0.961 . S
C2541 H2556 0.961 . S
C2541 H2557 0.961 . S
C2542 C2543 1.370 . S
C2542 C2544 1.363 . S
C2542 H2558 0.931 . S
C2543 C2542 1.370 . S
C2543 C2547 1.408 . S
C2544 C2542 1.363 . S
C2544 C2545 1.370 . S
C2544 C2548 1.524 . S
C2545 C2537 1.503 . S
C2545 C2544 1.370 . S
C2545 C2546 1.403 . S
C2546 C2545 1.403 . S
C2546 C2547 1.404 . S
C2546 C2549 1.539 . S
C2547 C2543 1.408 . S
C2547 C2546 1.404 . S
C2547 H2559 0.930 . S
C2548 C2544 1.524 . S
C2548 H2560 0.956 . S
C2548 H2561 0.961 . S
C2548 H2562 0.961 . S
C2549 C2546 1.539 . S
C2549 H2563 0.958 . S
C2549 H2564 0.961 . S
C2549 H2565 0.960 . S
H2550 C2534 0.931 . S
H2551 C2539 0.929 . S
H2552 C2540 0.960 . S
H2553 C2540 0.962 . S
H2554 C2540 0.960 . S
H2555 C2541 0.961 . S
H2556 C2541 0.961 . S
H2557 C2541 0.961 . S
H2558 C2542 0.931 . S
H2559 C2547 0.930 . S
H2560 C2548 0.956 . S
H2561 C2548 0.961 . S
H2562 C2548 0.961 . S
H2563 C2549 0.958 . S
H2564 C2549 0.961 . S
H2565 C2549 0.960 . S
C2566 C2567 1.391 . S
C2566 C2568 1.394 . S
C2566 H2582 0.931 . S
C2567 C2566 1.391 . S
C2567 C2571 1.376 . S
C2568 C2566 1.394 . S
C2568 C2569 1.369 . S
C2568 C2572 1.531 . S
C2569 C2568 1.369 . S
C2569 C2570 1.410 . S
C2569 C2577 1.503 . S
C2570 C2569 1.410 . S
C2570 C2571 1.392 . S
C2570 C2573 1.511 . S
C2571 C2567 1.376 . S
C2571 C2570 1.392 . S
C2571 H2583 0.929 . S
C2572 C2568 1.531 . S
C2572 H2584 0.960 . S
C2572 H2585 0.962 . S
C2572 H2586 0.960 . S
C2573 C2570 1.511 . S
C2573 H2587 0.961 . S
C2573 H2588 0.961 . S
C2573 H2589 0.961 . S
C2574 C2575 1.370 . S
C2574 C2576 1.363 . S
C2574 H2590 0.931 . S
C2575 C2574 1.370 . S
C2575 C2579 1.408 . S
C2576 C2574 1.363 . S
C2576 C2577 1.370 . S
C2576 C2580 1.524 . S
C2577 C2569 1.503 . S
C2577 C2576 1.370 . S
C2577 C2578 1.403 . S
C2578 C2577 1.403 . S
C2578 C2579 1.404 . S
C2578 C2581 1.539 . S
C2579 C2575 1.408 . S
C2579 C2578 1.404 . S
C2579 H2591 0.930 . S
C2580 C2576 1.524 . S
C2580 H2592 0.956 . S
C2580 H2593 0.961 . S
C2580 H2594 0.961 . S
C2581 C2578 1.539 . S
C2581 H2595 0.958 . S
C2581 H2596 0.961 . S
C2581 H2597 0.960 . S
H2582 C2566 0.931 . S
H2583 C2571 0.929 . S
H2584 C2572 0.960 . S
H2585 C2572 0.962 . S
H2586 C2572 0.960 . S
H2587 C2573 0.961 . S
H2588 C2573 0.961 . S
H2589 C2573 0.961 . S
H2590 C2574 0.931 . S
H2591 C2579 0.930 . S
H2592 C2580 0.956 . S
H2593 C2580 0.961 . S
H2594 C2580 0.961 . S
H2595 C2581 0.958 . S
H2596 C2581 0.961 . S
H2597 C2581 0.960 . S
C2598 C2599 1.391 . S
C2598 C2600 1.394 . S
C2598 H2614 0.931 . S
C2599 C2598 1.391 . S
C2599 C2603 1.376 . S
C2600 C2598 1.394 . S
C2600 C2601 1.369 . S
C2600 C2604 1.531 . S
C2601 C2600 1.369 . S
C2601 C2602 1.410 . S
C2601 C2609 1.503 . S
C2602 C2601 1.410 . S
C2602 C2603 1.392 . S
C2602 C2605 1.511 . S
C2603 C2599 1.376 . S
C2603 C2602 1.392 . S
C2603 H2615 0.929 . S
C2604 C2600 1.531 . S
C2604 H2616 0.960 . S
C2604 H2617 0.962 . S
C2604 H2618 0.960 . S
C2605 C2602 1.511 . S
C2605 H2619 0.961 . S
C2605 H2620 0.961 . S
C2605 H2621 0.961 . S
C2606 C2607 1.370 . S
C2606 C2608 1.363 . S
C2606 H2622 0.931 . S
C2607 C2606 1.370 . S
C2607 C2611 1.408 . S
C2608 C2606 1.363 . S
C2608 C2609 1.370 . S
C2608 C2612 1.524 . S
C2609 C2601 1.503 . S
C2609 C2608 1.370 . S
C2609 C2610 1.403 . S
C2610 C2609 1.403 . S
C2610 C2611 1.404 . S
C2610 C2613 1.539 . S
C2611 C2607 1.408 . S
C2611 C2610 1.404 . S
C2611 H2623 0.930 . S
C2612 C2608 1.524 . S
C2612 H2624 0.956 . S
C2612 H2625 0.961 . S
C2612 H2626 0.961 . S
C2613 C2610 1.539 . S
C2613 H2627 0.958 . S
C2613 H2628 0.961 . S
C2613 H2629 0.960 . S
H2614 C2598 0.931 . S
H2615 C2603 0.929 . S
H2616 C2604 0.960 . S
H2617 C2604 0.962 . S
H2618 C2604 0.960 . S
H2619 C2605 0.961 . S
H2620 C2605 0.961 . S
H2621 C2605 0.961 . S
H2622 C2606 0.931 . S
H2623 C2611 0.930 . S
H2624 C2612 0.956 . S
H2625 C2612 0.961 . S
H2626 C2612 0.961 . S
H2627 C2613 0.958 . S
H2628 C2613 0.961 . S
H2629 C2613 0.960 . S
C2630 C2631 1.391 . S
C2630 C2632 1.394 . S
C2630 H2646 0.931 . S
C2631 C2630 1.391 . S
C2631 C2635 1.376 . S
C2632 C2630 1.394 . S
C2632 C2633 1.369 . S
C2632 C2636 1.531 . S
C2633 C2632 1.369 . S
C2633 C2634 1.410 . S
C2633 C2641 1.503 . S
C2634 C2633 1.410 . S
C2634 C2635 1.392 . S
C2634 C2637 1.511 . S
C2635 C2631 1.376 . S
C2635 C2634 1.392 . S
C2635 H2647 0.929 . S
C2636 C2632 1.531 . S
C2636 H2648 0.960 . S
C2636 H2649 0.962 . S
C2636 H2650 0.960 . S
C2637 C2634 1.511 . S
C2637 H2651 0.961 . S
C2637 H2652 0.961 . S
C2637 H2653 0.961 . S
C2638 C2639 1.370 . S
C2638 C2640 1.363 . S
C2638 H2654 0.931 . S
C2639 C2638 1.370 . S
C2639 C2643 1.408 . S
C2640 C2638 1.363 . S
C2640 C2641 1.370 . S
C2640 C2644 1.524 . S
C2641 C2633 1.503 . S
C2641 C2640 1.370 . S
C2641 C2642 1.403 . S
C2642 C2641 1.403 . S
C2642 C2643 1.404 . S
C2642 C2645 1.539 . S
C2643 C2639 1.408 . S
C2643 C2642 1.404 . S
C2643 H2655 0.930 . S
C2644 C2640 1.524 . S
C2644 H2656 0.956 . S
C2644 H2657 0.961 . S
C2644 H2658 0.961 . S
C2645 C2642 1.539 . S
C2645 H2659 0.958 . S
C2645 H2660 0.961 . S
C2645 H2661 0.960 . S
H2646 C2630 0.931 . S
H2647 C2635 0.929 . S
H2648 C2636 0.960 . S
H2649 C2636 0.962 . S
H2650 C2636 0.960 . S
H2651 C2637 0.961 . S
H2652 C2637 0.961 . S
H2653 C2637 0.961 . S
H2654 C2638 0.931 . S
H2655 C2643 0.930 . S
H2656 C2644 0.956 . S
H2657 C2644 0.961 . S
H2658 C2644 0.961 . S
H2659 C2645 0.958 . S
H2660 C2645 0.961 . S
H2661 C2645 0.960 . S
C2662 C2663 1.391 . S
C2662 C2664 1.394 . S
C2662 H2678 0.931 . S
C2663 C2662 1.391 . S
C2663 C2667 1.376 . S
C2664 C2662 1.394 . S
C2664 C2665 1.369 . S
C2664 C2668 1.531 . S
C2665 C2664 1.369 . S
C2665 C2666 1.410 . S
C2665 C2673 1.503 . S
C2666 C2665 1.410 . S
C2666 C2667 1.392 . S
C2666 C2669 1.511 . S
C2667 C2663 1.376 . S
C2667 C2666 1.392 . S
C2667 H2679 0.929 . S
C2668 C2664 1.531 . S
C2668 H2680 0.960 . S
C2668 H2681 0.962 . S
C2668 H2682 0.960 . S
C2669 C2666 1.511 . S
C2669 H2683 0.961 . S
C2669 H2684 0.961 . S
C2669 H2685 0.961 . S
C2670 C2671 1.370 . S
C2670 C2672 1.363 . S
C2670 H2686 0.931 . S
C2671 C2670 1.370 . S
C2671 C2675 1.408 . S
C2672 C2670 1.363 . S
C2672 C2673 1.370 . S
C2672 C2676 1.524 . S
C2673 C2665 1.503 . S
C2673 C2672 1.370 . S
C2673 C2674 1.403 . S
C2674 C2673 1.403 . S
C2674 C2675 1.404 . S
C2674 C2677 1.539 . S
C2675 C2671 1.408 . S
C2675 C2674 1.404 . S
C2675 H2687 0.930 . S
C2676 C2672 1.524 . S
C2676 H2688 0.956 . S
C2676 H2689 0.961 . S
C2676 H2690 0.961 . S
C2677 C2674 1.539 . S
C2677 H2691 0.958 . S
C2677 H2692 0.961 . S
C2677 H2693 0.960 . S
H2678 C2662 0.931 . S
H2679 C2667 0.929 . S
H2680 C2668 0.960 . S
H2681 C2668 0.962 . S
H2682 C2668 0.960 . S
H2683 C2669 0.961 . S
H2684 C2669 0.961 . S
H2685 C2669 0.961 . S
H2686 C2670 0.931 . S
H2687 C2675 0.930 . S
H2688 C2676 0.956 . S
H2689 C2676 0.961 . S
H2690 C2676 0.961 . S
H2691 C2677 0.958 . S
H2692 C2677 0.961 . S
H2693 C2677 0.960 . S
C2694 C2695 1.391 . S
C2694 C2696 1.394 . S
C2694 H2710 0.931 . S
C2695 C2694 1.391 . S
C2695 C2699 1.376 . S
C2696 C2694 1.394 . S
C2696 C2697 1.369 . S
C2696 C2700 1.531 . S
C2697 C2696 1.369 . S
C2697 C2698 1.410 . S
C2697 C2705 1.503 . S
C2698 C2697 1.410 . S
C2698 C2699 1.392 . S
C2698 C2701 1.511 . S
C2699 C2695 1.376 . S
C2699 C2698 1.392 . S
C2699 H2711 0.929 . S
C2700 C2696 1.531 . S
C2700 H2712 0.960 . S
C2700 H2713 0.962 . S
C2700 H2714 0.960 . S
C2701 C2698 1.511 . S
C2701 H2715 0.961 . S
C2701 H2716 0.961 1_556 S
C2701 H2717 0.961 . S
C2702 C2703 1.370 . S
C2702 C2704 1.363 . S
C2702 H2718 0.931 . S
C2703 C2702 1.370 . S
C2703 C2707 1.408 . S
C2704 C2702 1.363 . S
C2704 C2705 1.370 1_554 S
C2704 C2708 1.524 . S
C2705 C2697 1.503 . S
C2705 C2704 1.370 1_556 S
C2705 C2706 1.403 . S
C2706 C2705 1.403 . S
C2706 C2707 1.404 1_556 S
C2706 C2709 1.539 . S
C2707 C2703 1.408 . S
C2707 C2706 1.404 1_554 S
C2707 H2719 0.930 . S
C2708 C2704 1.524 . S
C2708 H2720 0.956 . S
C2708 H2721 0.961 . S
C2708 H2722 0.961 . S
C2709 C2706 1.539 . S
C2709 H2723 0.958 . S
C2709 H2724 0.961 . S
C2709 H2725 0.960 . S
H2710 C2694 0.931 . S
H2711 C2699 0.929 . S
H2712 C2700 0.960 . S
H2713 C2700 0.962 . S
H2714 C2700 0.960 . S
H2715 C2701 0.961 . S
H2716 C2701 0.961 1_554 S
H2717 C2701 0.961 . S
H2718 C2702 0.931 . S
H2719 C2707 0.930 . S
H2720 C2708 0.956 . S
H2721 C2708 0.961 . S
H2722 C2708 0.961 . S
H2723 C2709 0.958 . S
H2724 C2709 0.961 . S
H2725 C2709 0.960 . S
C2726 C2727 1.391 . S
C2726 C2728 1.394 . S
C2726 H2742 0.931 . S
C2727 C2726 1.391 . S
C2727 C2731 1.376 . S
C2728 C2726 1.394 . S
C2728 C2729 1.369 . S
C2728 C2732 1.531 . S
C2729 C2728 1.369 . S
C2729 C2730 1.410 . S
C2729 C2737 1.503 . S
C2730 C2729 1.410 . S
C2730 C2731 1.392 . S
C2730 C2733 1.511 . S
C2731 C2727 1.376 . S
C2731 C2730 1.392 . S
C2731 H2743 0.929 . S
C2732 C2728 1.531 . S
C2732 H2744 0.960 . S
C2732 H2745 0.962 . S
C2732 H2746 0.960 . S
C2733 C2730 1.511 . S
C2733 H2747 0.961 . S
C2733 H2748 0.961 . S
C2733 H2749 0.961 . S
C2734 C2735 1.370 . S
C2734 C2736 1.363 1_554 S
C2734 H2750 0.931 . S
C2735 C2734 1.370 . S
C2735 C2739 1.408 . S
C2736 C2734 1.363 1_556 S
C2736 C2737 1.370 . S
C2736 C2740 1.524 . S
C2737 C2729 1.503 . S
C2737 C2736 1.370 . S
C2737 C2738 1.403 . S
C2738 C2737 1.403 . S
C2738 C2739 1.404 1_556 S
C2738 C2741 1.539 . S
C2739 C2735 1.408 . S
C2739 C2738 1.404 1_554 S
C2739 H2751 0.930 . S
C2740 C2736 1.524 . S
C2740 H2752 0.956 . S
C2740 H2753 0.961 . S
C2740 H2754 0.961 . S
C2741 C2738 1.539 . S
C2741 H2755 0.958 . S
C2741 H2756 0.961 1_556 S
C2741 H2757 0.960 . S
H2742 C2726 0.931 . S
H2743 C2731 0.929 . S
H2744 C2732 0.960 . S
H2745 C2732 0.962 . S
H2746 C2732 0.960 . S
H2747 C2733 0.961 . S
H2748 C2733 0.961 . S
H2749 C2733 0.961 . S
H2750 C2734 0.931 . S
H2751 C2739 0.930 . S
H2752 C2740 0.956 . S
H2753 C2740 0.961 . S
H2754 C2740 0.961 . S
H2755 C2741 0.958 . S
H2756 C2741 0.961 1_554 S
H2757 C2741 0.960 . S
C2758 C2759 1.391 . S
C2758 C2760 1.394 . S
C2758 H2774 0.931 . S
C2759 C2758 1.391 . S
C2759 C2763 1.376 . S
C2760 C2758 1.394 . S
C2760 C2761 1.369 . S
C2760 C2764 1.531 . S
C2761 C2760 1.369 . S
C2761 C2762 1.410 . S
C2761 C2769 1.503 1_556 S
C2762 C2761 1.410 . S
C2762 C2763 1.392 . S
C2762 C2765 1.511 . S
C2763 C2759 1.376 . S
C2763 C2762 1.392 . S
C2763 H2775 0.929 . S
C2764 C2760 1.531 . S
C2764 H2776 0.960 1_556 S
C2764 H2777 0.962 . S
C2764 H2778 0.960 . S
C2765 C2762 1.511 . S
C2765 H2779 0.961 . S
C2765 H2780 0.961 . S
C2765 H2781 0.961 . S
C2766 C2767 1.370 . S
C2766 C2768 1.364 1_554 S
C2766 H2782 0.931 . S
C2767 C2766 1.370 . S
C2767 C2771 1.408 . S
C2768 C2766 1.364 1_556 S
C2768 C2769 1.371 1_556 S
C2768 C2772 1.523 . S
C2769 C2761 1.503 1_554 S
C2769 C2768 1.371 1_554 S
C2769 C2770 1.403 . S
C2770 C2769 1.403 . S
C2770 C2771 1.404 . S
C2770 C2773 1.539 . S
C2771 C2767 1.408 . S
C2771 C2770 1.404 . S
C2771 H2783 0.930 . S
C2772 C2768 1.523 . S
C2772 H2784 0.956 . S
C2772 H2785 0.961 . S
C2772 H2786 0.961 . S
C2773 C2770 1.539 . S
C2773 H2787 0.958 . S
C2773 H2788 0.961 . S
C2773 H2789 0.960 . S
H2774 C2758 0.931 . S
H2775 C2763 0.929 . S
H2776 C2764 0.960 1_554 S
H2777 C2764 0.962 . S
H2778 C2764 0.960 . S
H2779 C2765 0.961 . S
H2780 C2765 0.961 . S
H2781 C2765 0.961 . S
H2782 C2766 0.931 . S
H2783 C2771 0.930 . S
H2784 C2772 0.956 . S
H2785 C2772 0.961 . S
H2786 C2772 0.961 . S
H2787 C2773 0.958 . S
H2788 C2773 0.961 . S
H2789 C2773 0.960 . S
C2790 C2791 1.391 . S
C2790 C2792 1.394 . S
C2790 H2806 0.931 . S
C2791 C2790 1.391 . S
C2791 C2795 1.376 . S
C2792 C2790 1.394 . S
C2792 C2793 1.369 . S
C2792 C2796 1.531 . S
C2793 C2792 1.369 . S
C2793 C2794 1.410 . S
C2793 C2801 1.503 . S
C2794 C2793 1.410 . S
C2794 C2795 1.392 . S
C2794 C2797 1.511 . S
C2795 C2791 1.376 . S
C2795 C2794 1.392 . S
C2795 H2807 0.929 . S
C2796 C2792 1.531 . S
C2796 H2808 0.960 . S
C2796 H2809 0.962 . S
C2796 H2810 0.960 . S
C2797 C2794 1.511 . S
C2797 H2811 0.961 . S
C2797 H2812 0.961 . S
C2797 H2813 0.961 . S
C2798 C2799 1.370 . S
C2798 C2800 1.363 . S
C2798 H2814 0.931 . S
C2799 C2798 1.370 . S
C2799 C2803 1.408 . S
C2800 C2798 1.363 . S
C2800 C2801 1.370 . S
C2800 C2804 1.524 . S
C2801 C2793 1.503 . S
C2801 C2800 1.370 . S
C2801 C2802 1.403 . S
C2802 C2801 1.403 . S
C2802 C2803 1.404 . S
C2802 C2805 1.539 . S
C2803 C2799 1.408 . S
C2803 C2802 1.404 . S
C2803 H2815 0.930 . S
C2804 C2800 1.524 . S
C2804 H2816 0.956 . S
C2804 H2817 0.961 . S
C2804 H2818 0.961 . S
C2805 C2802 1.539 . S
C2805 H2819 0.958 . S
C2805 H2820 0.961 . S
C2805 H2821 0.960 . S
H2806 C2790 0.931 . S
H2807 C2795 0.929 . S
H2808 C2796 0.960 . S
H2809 C2796 0.962 . S
H2810 C2796 0.960 . S
H2811 C2797 0.961 . S
H2812 C2797 0.961 . S
H2813 C2797 0.961 . S
H2814 C2798 0.931 . S
H2815 C2803 0.930 . S
H2816 C2804 0.956 . S
H2817 C2804 0.961 . S
H2818 C2804 0.961 . S
H2819 C2805 0.958 . S
H2820 C2805 0.961 . S
H2821 C2805 0.960 . S
C2822 C2823 1.391 . S
C2822 C2824 1.394 . S
C2822 H2838 0.931 . S
C2823 C2822 1.391 . S
C2823 C2827 1.376 . S
C2824 C2822 1.394 . S
C2824 C2825 1.369 . S
C2824 C2828 1.531 . S
C2825 C2824 1.369 . S
C2825 C2826 1.410 . S
C2825 C2833 1.503 . S
C2826 C2825 1.410 . S
C2826 C2827 1.392 . S
C2826 C2829 1.511 . S
C2827 C2823 1.376 . S
C2827 C2826 1.392 . S
C2827 H2839 0.929 . S
C2828 C2824 1.531 . S
C2828 H2840 0.960 . S
C2828 H2841 0.962 . S
C2828 H2842 0.960 . S
C2829 C2826 1.511 . S
C2829 H2843 0.961 . S
C2829 H2844 0.961 . S
C2829 H2845 0.961 . S
C2830 C2831 1.370 . S
C2830 C2832 1.363 . S
C2830 H2846 0.931 . S
C2831 C2830 1.370 . S
C2831 C2835 1.408 . S
C2832 C2830 1.363 . S
C2832 C2833 1.370 . S
C2832 C2836 1.524 . S
C2833 C2825 1.503 . S
C2833 C2832 1.370 . S
C2833 C2834 1.403 . S
C2834 C2833 1.403 . S
C2834 C2835 1.404 . S
C2834 C2837 1.539 . S
C2835 C2831 1.408 . S
C2835 C2834 1.404 . S
C2835 H2847 0.930 . S
C2836 C2832 1.524 . S
C2836 H2848 0.956 . S
C2836 H2849 0.961 . S
C2836 H2850 0.961 . S
C2837 C2834 1.539 . S
C2837 H2851 0.958 . S
C2837 H2852 0.961 . S
C2837 H2853 0.960 . S
H2838 C2822 0.931 . S
H2839 C2827 0.929 . S
H2840 C2828 0.960 . S
H2841 C2828 0.962 . S
H2842 C2828 0.960 . S
H2843 C2829 0.961 . S
H2844 C2829 0.961 . S
H2845 C2829 0.961 . S
H2846 C2830 0.931 . S
H2847 C2835 0.930 . S
H2848 C2836 0.956 . S
H2849 C2836 0.961 . S
H2850 C2836 0.961 . S
H2851 C2837 0.958 . S
H2852 C2837 0.961 . S
H2853 C2837 0.960 . S
C2854 C2855 1.391 . S
C2854 C2856 1.394 . S
C2854 H2870 0.931 . S
C2855 C2854 1.391 . S
C2855 C2859 1.376 . S
C2856 C2854 1.394 . S
C2856 C2857 1.369 . S
C2856 C2860 1.531 . S
C2857 C2856 1.369 . S
C2857 C2858 1.410 . S
C2857 C2865 1.503 . S
C2858 C2857 1.410 . S
C2858 C2859 1.392 . S
C2858 C2861 1.511 . S
C2859 C2855 1.376 . S
C2859 C2858 1.392 . S
C2859 H2871 0.929 . S
C2860 C2856 1.531 . S
C2860 H2872 0.960 . S
C2860 H2873 0.962 . S
C2860 H2874 0.960 . S
C2861 C2858 1.511 . S
C2861 H2875 0.961 . S
C2861 H2876 0.961 . S
C2861 H2877 0.961 . S
C2862 C2863 1.370 . S
C2862 C2864 1.363 . S
C2862 H2878 0.931 . S
C2863 C2862 1.370 . S
C2863 C2867 1.408 . S
C2864 C2862 1.363 . S
C2864 C2865 1.370 . S
C2864 C2868 1.524 . S
C2865 C2857 1.503 . S
C2865 C2864 1.370 . S
C2865 C2866 1.403 . S
C2866 C2865 1.403 . S
C2866 C2867 1.404 . S
C2866 C2869 1.539 . S
C2867 C2863 1.408 . S
C2867 C2866 1.404 . S
C2867 H2879 0.930 . S
C2868 C2864 1.524 . S
C2868 H2880 0.956 . S
C2868 H2881 0.961 . S
C2868 H2882 0.961 . S
C2869 C2866 1.539 . S
C2869 H2883 0.958 . S
C2869 H2884 0.961 . S
C2869 H2885 0.960 . S
H2870 C2854 0.931 . S
H2871 C2859 0.929 . S
H2872 C2860 0.960 . S
H2873 C2860 0.962 . S
H2874 C2860 0.960 . S
H2875 C2861 0.961 . S
H2876 C2861 0.961 . S
H2877 C2861 0.961 . S
H2878 C2862 0.931 . S
H2879 C2867 0.930 . S
H2880 C2868 0.956 . S
H2881 C2868 0.961 . S
H2882 C2868 0.961 . S
H2883 C2869 0.958 . S
H2884 C2869 0.961 . S
H2885 C2869 0.960 . S
C2886 C2887 1.391 . S
C2886 C2888 1.394 . S
C2886 H2902 0.931 . S
C2887 C2886 1.391 . S
C2887 C2891 1.376 . S
C2888 C2886 1.394 . S
C2888 C2889 1.369 . S
C2888 C2892 1.531 . S
C2889 C2888 1.369 . S
C2889 C2890 1.410 . S
C2889 C2897 1.503 . S
C2890 C2889 1.410 . S
C2890 C2891 1.392 . S
C2890 C2893 1.511 . S
C2891 C2887 1.376 . S
C2891 C2890 1.392 . S
C2891 H2903 0.929 . S
C2892 C2888 1.531 . S
C2892 H2904 0.960 . S
C2892 H2905 0.962 . S
C2892 H2906 0.960 . S
C2893 C2890 1.511 . S
C2893 H2907 0.961 . S
C2893 H2908 0.961 . S
C2893 H2909 0.961 . S
C2894 C2895 1.370 . S
C2894 C2896 1.363 . S
C2894 H2910 0.931 . S
C2895 C2894 1.370 . S
C2895 C2899 1.408 . S
C2896 C2894 1.363 . S
C2896 C2897 1.370 . S
C2896 C2900 1.524 . S
C2897 C2889 1.503 . S
C2897 C2896 1.370 . S
C2897 C2898 1.403 . S
C2898 C2897 1.403 . S
C2898 C2899 1.404 . S
C2898 C2901 1.539 . S
C2899 C2895 1.408 . S
C2899 C2898 1.404 . S
C2899 H2911 0.930 . S
C2900 C2896 1.524 . S
C2900 H2912 0.956 . S
C2900 H2913 0.961 . S
C2900 H2914 0.961 . S
C2901 C2898 1.539 . S
C2901 H2915 0.958 . S
C2901 H2916 0.961 . S
C2901 H2917 0.960 . S
H2902 C2886 0.931 . S
H2903 C2891 0.929 . S
H2904 C2892 0.960 . S
H2905 C2892 0.962 . S
H2906 C2892 0.960 . S
H2907 C2893 0.961 . S
H2908 C2893 0.961 . S
H2909 C2893 0.961 . S
H2910 C2894 0.931 . S
H2911 C2899 0.930 . S
H2912 C2900 0.956 . S
H2913 C2900 0.961 . S
H2914 C2900 0.961 . S
H2915 C2901 0.958 . S
H2916 C2901 0.961 . S
H2917 C2901 0.960 . S
C2918 C2919 1.391 . S
C2918 C2920 1.394 . S
C2918 H2934 0.931 . S
C2919 C2918 1.391 . S
C2919 C2923 1.376 . S
C2920 C2918 1.394 . S
C2920 C2921 1.369 . S
C2920 C2924 1.531 . S
C2921 C2920 1.369 . S
C2921 C2922 1.410 . S
C2921 C2929 1.503 . S
C2922 C2921 1.410 . S
C2922 C2923 1.392 . S
C2922 C2925 1.511 . S
C2923 C2919 1.376 . S
C2923 C2922 1.392 . S
C2923 H2935 0.929 . S
C2924 C2920 1.531 . S
C2924 H2936 0.960 . S
C2924 H2937 0.962 . S
C2924 H2938 0.960 . S
C2925 C2922 1.511 . S
C2925 H2939 0.961 . S
C2925 H2940 0.961 . S
C2925 H2941 0.961 . S
C2926 C2927 1.370 . S
C2926 C2928 1.363 . S
C2926 H2942 0.931 . S
C2927 C2926 1.370 . S
C2927 C2931 1.408 . S
C2928 C2926 1.363 . S
C2928 C2929 1.370 . S
C2928 C2932 1.524 . S
C2929 C2921 1.503 . S
C2929 C2928 1.370 . S
C2929 C2930 1.403 . S
C2930 C2929 1.403 . S
C2930 C2931 1.404 . S
C2930 C2933 1.539 . S
C2931 C2927 1.408 . S
C2931 C2930 1.404 . S
C2931 H2943 0.930 . S
C2932 C2928 1.524 . S
C2932 H2944 0.956 . S
C2932 H2945 0.961 . S
C2932 H2946 0.961 . S
C2933 C2930 1.539 . S
C2933 H2947 0.958 . S
C2933 H2948 0.961 . S
C2933 H2949 0.960 . S
H2934 C2918 0.931 . S
H2935 C2923 0.929 . S
H2936 C2924 0.960 . S
H2937 C2924 0.962 . S
H2938 C2924 0.960 . S
H2939 C2925 0.961 . S
H2940 C2925 0.961 . S
H2941 C2925 0.961 . S
H2942 C2926 0.931 . S
H2943 C2931 0.930 . S
H2944 C2932 0.956 . S
H2945 C2932 0.961 . S
H2946 C2932 0.961 . S
H2947 C2933 0.958 . S
H2948 C2933 0.961 . S
H2949 C2933 0.960 . S
C2950 C2951 1.391 . S
C2950 C2952 1.394 . S
C2950 H2966 0.931 . S
C2951 C2950 1.391 . S
C2951 C2955 1.376 . S
C2952 C2950 1.394 . S
C2952 C2953 1.369 . S
C2952 C2956 1.531 . S
C2953 C2952 1.369 . S
C2953 C2954 1.410 . S
C2953 C2961 1.503 . S
C2954 C2953 1.410 . S
C2954 C2955 1.392 . S
C2954 C2957 1.511 . S
C2955 C2951 1.376 . S
C2955 C2954 1.392 . S
C2955 H2967 0.929 . S
C2956 C2952 1.531 . S
C2956 H2968 0.960 . S
C2956 H2969 0.962 . S
C2956 H2970 0.960 . S
C2957 C2954 1.511 . S
C2957 H2971 0.961 . S
C2957 H2972 0.961 . S
C2957 H2973 0.961 . S
C2958 C2959 1.370 . S
C2958 C2960 1.363 . S
C2958 H2974 0.931 . S
C2959 C2958 1.370 . S
C2959 C2963 1.408 . S
C2960 C2958 1.363 . S
C2960 C2961 1.370 . S
C2960 C2964 1.524 . S
C2961 C2953 1.503 . S
C2961 C2960 1.370 . S
C2961 C2962 1.403 . S
C2962 C2961 1.403 . S
C2962 C2963 1.404 . S
C2962 C2965 1.539 . S
C2963 C2959 1.408 . S
C2963 C2962 1.404 . S
C2963 H2975 0.930 . S
C2964 C2960 1.524 . S
C2964 H2976 0.956 . S
C2964 H2977 0.961 . S
C2964 H2978 0.961 . S
C2965 C2962 1.539 . S
C2965 H2979 0.958 . S
C2965 H2980 0.961 . S
C2965 H2981 0.960 . S
H2966 C2950 0.931 . S
H2967 C2955 0.929 . S
H2968 C2956 0.960 . S
H2969 C2956 0.962 . S
H2970 C2956 0.960 . S
H2971 C2957 0.961 . S
H2972 C2957 0.961 . S
H2973 C2957 0.961 . S
H2974 C2958 0.931 . S
H2975 C2963 0.930 . S
H2976 C2964 0.956 . S
H2977 C2964 0.961 . S
H2978 C2964 0.961 . S
H2979 C2965 0.958 . S
H2980 C2965 0.961 . S
H2981 C2965 0.960 . S
C2982 C2983 1.391 . S
C2982 C2984 1.394 . S
C2982 H2998 0.931 . S
C2983 C2982 1.391 . S
C2983 C2987 1.376 . S
C2984 C2982 1.394 . S
C2984 C2985 1.369 . S
C2984 C2988 1.531 . S
C2985 C2984 1.369 . S
C2985 C2986 1.410 . S
C2985 C2993 1.503 . S
C2986 C2985 1.410 . S
C2986 C2987 1.392 . S
C2986 C2989 1.511 . S
C2987 C2983 1.376 . S
C2987 C2986 1.392 . S
C2987 H2999 0.929 . S
C2988 C2984 1.531 . S
C2988 H3000 0.960 . S
C2988 H3001 0.962 . S
C2988 H3002 0.960 . S
C2989 C2986 1.511 . S
C2989 H3003 0.961 . S
C2989 H3004 0.961 . S
C2989 H3005 0.961 . S
C2990 C2991 1.370 . S
C2990 C2992 1.363 . S
C2990 H3006 0.931 . S
C2991 C2990 1.370 . S
C2991 C2995 1.408 . S
C2992 C2990 1.363 . S
C2992 C2993 1.370 . S
C2992 C2996 1.524 . S
C2993 C2985 1.503 . S
C2993 C2992 1.370 . S
C2993 C2994 1.403 . S
C2994 C2993 1.403 . S
C2994 C2995 1.404 . S
C2994 C2997 1.539 . S
C2995 C2991 1.408 . S
C2995 C2994 1.404 . S
C2995 H3007 0.930 . S
C2996 C2992 1.524 . S
C2996 H3008 0.956 . S
C2996 H3009 0.961 . S
C2996 H3010 0.961 . S
C2997 C2994 1.539 . S
C2997 H3011 0.958 . S
C2997 H3012 0.961 . S
C2997 H3013 0.960 . S
H2998 C2982 0.931 . S
H2999 C2987 0.929 . S
H3000 C2988 0.960 . S
H3001 C2988 0.962 . S
H3002 C2988 0.960 . S
H3003 C2989 0.961 . S
H3004 C2989 0.961 . S
H3005 C2989 0.961 . S
H3006 C2990 0.931 . S
H3007 C2995 0.930 . S
H3008 C2996 0.956 . S
H3009 C2996 0.961 . S
H3010 C2996 0.961 . S
H3011 C2997 0.958 . S
H3012 C2997 0.961 . S
H3013 C2997 0.960 . S
C3014 C3015 1.391 . S
C3014 C3016 1.394 . S
C3014 H3030 0.931 . S
C3015 C3014 1.391 . S
C3015 C3019 1.376 . S
C3016 C3014 1.394 . S
C3016 C3017 1.369 . S
C3016 C3020 1.531 . S
C3017 C3016 1.369 . S
C3017 C3018 1.410 . S
C3017 C3025 1.503 . S
C3018 C3017 1.410 . S
C3018 C3019 1.392 . S
C3018 C3021 1.511 . S
C3019 C3015 1.376 . S
C3019 C3018 1.392 . S
C3019 H3031 0.929 . S
C3020 C3016 1.531 . S
C3020 H3032 0.960 . S
C3020 H3033 0.962 . S
C3020 H3034 0.960 . S
C3021 C3018 1.511 . S
C3021 H3035 0.961 . S
C3021 H3036 0.961 . S
C3021 H3037 0.961 . S
C3022 C3023 1.370 . S
C3022 C3024 1.363 . S
C3022 H3038 0.931 . S
C3023 C3022 1.370 . S
C3023 C3027 1.408 . S
C3024 C3022 1.363 . S
C3024 C3025 1.370 . S
C3024 C3028 1.524 . S
C3025 C3017 1.503 . S
C3025 C3024 1.370 . S
C3025 C3026 1.403 . S
C3026 C3025 1.403 . S
C3026 C3027 1.404 . S
C3026 C3029 1.539 . S
C3027 C3023 1.408 . S
C3027 C3026 1.404 . S
C3027 H3039 0.930 . S
C3028 C3024 1.524 . S
C3028 H3040 0.956 . S
C3028 H3041 0.961 . S
C3028 H3042 0.961 . S
C3029 C3026 1.539 . S
C3029 H3043 0.958 . S
C3029 H3044 0.961 . S
C3029 H3045 0.960 . S
H3030 C3014 0.931 . S
H3031 C3019 0.929 . S
H3032 C3020 0.960 . S
H3033 C3020 0.962 . S
H3034 C3020 0.960 . S
H3035 C3021 0.961 . S
H3036 C3021 0.961 . S
H3037 C3021 0.961 . S
H3038 C3022 0.931 . S
H3039 C3027 0.930 . S
H3040 C3028 0.956 . S
H3041 C3028 0.961 . S
H3042 C3028 0.961 . S
H3043 C3029 0.958 . S
H3044 C3029 0.961 . S
H3045 C3029 0.960 . S
C3046 C3047 1.391 . S
C3046 C3048 1.394 . S
C3046 H3062 0.931 . S
C3047 C3046 1.391 . S
C3047 C3051 1.376 . S
C3048 C3046 1.394 . S
C3048 C3049 1.369 . S
C3048 C3052 1.531 . S
C3049 C3048 1.369 . S
C3049 C3050 1.410 . S
C3049 C3057 1.503 . S
C3050 C3049 1.410 . S
C3050 C3051 1.392 . S
C3050 C3053 1.511 . S
C3051 C3047 1.376 . S
C3051 C3050 1.392 . S
C3051 H3063 0.929 . S
C3052 C3048 1.531 . S
C3052 H3064 0.960 . S
C3052 H3065 0.962 . S
C3052 H3066 0.960 . S
C3053 C3050 1.511 . S
C3053 H3067 0.961 . S
C3053 H3068 0.961 . S
C3053 H3069 0.961 . S
C3054 C3055 1.370 . S
C3054 C3056 1.363 . S
C3054 H3070 0.931 . S
C3055 C3054 1.370 . S
C3055 C3059 1.408 . S
C3056 C3054 1.363 . S
C3056 C3057 1.370 . S
C3056 C3060 1.524 . S
C3057 C3049 1.503 . S
C3057 C3056 1.370 . S
C3057 C3058 1.403 . S
C3058 C3057 1.403 . S
C3058 C3059 1.404 . S
C3058 C3061 1.539 . S
C3059 C3055 1.408 . S
C3059 C3058 1.404 . S
C3059 H3071 0.930 . S
C3060 C3056 1.524 . S
C3060 H3072 0.956 . S
C3060 H3073 0.961 . S
C3060 H3074 0.961 . S
C3061 C3058 1.539 . S
C3061 H3075 0.958 . S
C3061 H3076 0.961 . S
C3061 H3077 0.960 . S
H3062 C3046 0.931 . S
H3063 C3051 0.929 . S
H3064 C3052 0.960 . S
H3065 C3052 0.962 . S
H3066 C3052 0.960 . S
H3067 C3053 0.961 . S
H3068 C3053 0.961 . S
H3069 C3053 0.961 . S
H3070 C3054 0.931 . S
H3071 C3059 0.930 . S
H3072 C3060 0.956 . S
H3073 C3060 0.961 . S
H3074 C3060 0.961 . S
H3075 C3061 0.958 . S
H3076 C3061 0.961 . S
H3077 C3061 0.960 . S
C3078 C3079 1.391 . S
C3078 C3080 1.394 . S
C3078 H3094 0.931 . S
C3079 C3078 1.391 . S
C3079 C3083 1.376 . S
C3080 C3078 1.394 . S
C3080 C3081 1.369 . S
C3080 C3084 1.531 . S
C3081 C3080 1.369 . S
C3081 C3082 1.410 . S
C3081 C3089 1.503 . S
C3082 C3081 1.410 . S
C3082 C3083 1.392 . S
C3082 C3085 1.511 . S
C3083 C3079 1.376 . S
C3083 C3082 1.392 . S
C3083 H3095 0.929 . S
C3084 C3080 1.531 . S
C3084 H3096 0.960 . S
C3084 H3097 0.962 . S
C3084 H3098 0.960 . S
C3085 C3082 1.511 . S
C3085 H3099 0.961 . S
C3085 H3100 0.961 . S
C3085 H3101 0.961 . S
C3086 C3087 1.370 . S
C3086 C3088 1.363 . S
C3086 H3102 0.931 . S
C3087 C3086 1.370 . S
C3087 C3091 1.408 . S
C3088 C3086 1.363 . S
C3088 C3089 1.370 . S
C3088 C3092 1.524 . S
C3089 C3081 1.503 . S
C3089 C3088 1.370 . S
C3089 C3090 1.403 . S
C3090 C3089 1.403 . S
C3090 C3091 1.404 . S
C3090 C3093 1.539 . S
C3091 C3087 1.408 . S
C3091 C3090 1.404 . S
C3091 H3103 0.930 . S
C3092 C3088 1.524 . S
C3092 H3104 0.956 . S
C3092 H3105 0.961 . S
C3092 H3106 0.961 . S
C3093 C3090 1.539 . S
C3093 H3107 0.958 . S
C3093 H3108 0.961 . S
C3093 H3109 0.960 . S
H3094 C3078 0.931 . S
H3095 C3083 0.929 . S
H3096 C3084 0.960 . S
H3097 C3084 0.962 . S
H3098 C3084 0.960 . S
H3099 C3085 0.961 . S
H3100 C3085 0.961 . S
H3101 C3085 0.961 . S
H3102 C3086 0.931 . S
H3103 C3091 0.930 . S
H3104 C3092 0.956 . S
H3105 C3092 0.961 . S
H3106 C3092 0.961 . S
H3107 C3093 0.958 . S
H3108 C3093 0.961 . S
H3109 C3093 0.960 . S
C3110 C3111 1.391 . S
C3110 C3112 1.394 . S
C3110 H3126 0.931 . S
C3111 C3110 1.391 . S
C3111 C3115 1.376 . S
C3112 C3110 1.394 . S
C3112 C3113 1.369 . S
C3112 C3116 1.531 . S
C3113 C3112 1.369 . S
C3113 C3114 1.410 . S
C3113 C3121 1.503 . S
C3114 C3113 1.410 . S
C3114 C3115 1.392 . S
C3114 C3117 1.511 . S
C3115 C3111 1.376 . S
C3115 C3114 1.392 . S
C3115 H3127 0.929 . S
C3116 C3112 1.531 . S
C3116 H3128 0.960 . S
C3116 H3129 0.962 . S
C3116 H3130 0.960 . S
C3117 C3114 1.511 . S
C3117 H3131 0.961 . S
C3117 H3132 0.961 . S
C3117 H3133 0.961 . S
C3118 C3119 1.370 . S
C3118 C3120 1.363 . S
C3118 H3134 0.931 . S
C3119 C3118 1.370 . S
C3119 C3123 1.408 . S
C3120 C3118 1.363 . S
C3120 C3121 1.370 . S
C3120 C3124 1.524 . S
C3121 C3113 1.503 . S
C3121 C3120 1.370 . S
C3121 C3122 1.403 . S
C3122 C3121 1.403 . S
C3122 C3123 1.404 . S
C3122 C3125 1.539 . S
C3123 C3119 1.408 . S
C3123 C3122 1.404 . S
C3123 H3135 0.930 . S
C3124 C3120 1.524 . S
C3124 H3136 0.956 . S
C3124 H3137 0.961 . S
C3124 H3138 0.961 . S
C3125 C3122 1.539 . S
C3125 H3139 0.958 . S
C3125 H3140 0.961 . S
C3125 H3141 0.960 . S
H3126 C3110 0.931 . S
H3127 C3115 0.929 . S
H3128 C3116 0.960 . S
H3129 C3116 0.962 . S
H3130 C3116 0.960 . S
H3131 C3117 0.961 . S
H3132 C3117 0.961 . S
H3133 C3117 0.961 . S
H3134 C3118 0.931 . S
H3135 C3123 0.930 . S
H3136 C3124 0.956 . S
H3137 C3124 0.961 . S
H3138 C3124 0.961 . S
H3139 C3125 0.958 . S
H3140 C3125 0.961 . S
H3141 C3125 0.960 . S
C3142 C3143 1.391 . S
C3142 C3144 1.394 . S
C3142 H3158 0.931 . S
C3143 C3142 1.391 . S
C3143 C3147 1.376 . S
C3144 C3142 1.394 . S
C3144 C3145 1.369 . S
C3144 C3148 1.531 . S
C3145 C3144 1.369 . S
C3145 C3146 1.410 . S
C3145 C3153 1.503 . S
C3146 C3145 1.410 . S
C3146 C3147 1.392 . S
C3146 C3149 1.511 . S
C3147 C3143 1.376 . S
C3147 C3146 1.392 . S
C3147 H3159 0.929 . S
C3148 C3144 1.531 . S
C3148 H3160 0.960 . S
C3148 H3161 0.962 . S
C3148 H3162 0.960 . S
C3149 C3146 1.511 . S
C3149 H3163 0.961 . S
C3149 H3164 0.961 . S
C3149 H3165 0.961 . S
C3150 C3151 1.370 . S
C3150 C3152 1.363 . S
C3150 H3166 0.931 . S
C3151 C3150 1.370 . S
C3151 C3155 1.408 . S
C3152 C3150 1.363 . S
C3152 C3153 1.370 . S
C3152 C3156 1.524 . S
C3153 C3145 1.503 . S
C3153 C3152 1.370 . S
C3153 C3154 1.403 . S
C3154 C3153 1.403 . S
C3154 C3155 1.404 . S
C3154 C3157 1.539 . S
C3155 C3151 1.408 . S
C3155 C3154 1.404 . S
C3155 H3167 0.930 . S
C3156 C3152 1.524 . S
C3156 H3168 0.956 . S
C3156 H3169 0.961 . S
C3156 H3170 0.961 . S
C3157 C3154 1.539 . S
C3157 H3171 0.958 . S
C3157 H3172 0.961 . S
C3157 H3173 0.960 . S
H3158 C3142 0.931 . S
H3159 C3147 0.929 . S
H3160 C3148 0.960 . S
H3161 C3148 0.962 . S
H3162 C3148 0.960 . S
H3163 C3149 0.961 . S
H3164 C3149 0.961 . S
H3165 C3149 0.961 . S
H3166 C3150 0.931 . S
H3167 C3155 0.930 . S
H3168 C3156 0.956 . S
H3169 C3156 0.961 . S
H3170 C3156 0.961 . S
H3171 C3157 0.958 . S
H3172 C3157 0.961 . S
H3173 C3157 0.960 . S
C3174 C3175 1.391 . S
C3174 C3176 1.394 . S
C3174 H3190 0.931 . S
C3175 C3174 1.391 . S
C3175 C3179 1.376 . S
C3176 C3174 1.394 . S
C3176 C3177 1.369 . S
C3176 C3180 1.531 . S
C3177 C3176 1.369 . S
C3177 C3178 1.410 . S
C3177 C3185 1.503 . S
C3178 C3177 1.410 . S
C3178 C3179 1.392 . S
C3178 C3181 1.511 . S
C3179 C3175 1.376 . S
C3179 C3178 1.392 . S
C3179 H3191 0.929 . S
C3180 C3176 1.531 . S
C3180 H3192 0.960 . S
C3180 H3193 0.962 . S
C3180 H3194 0.960 . S
C3181 C3178 1.511 . S
C3181 H3195 0.961 . S
C3181 H3196 0.961 . S
C3181 H3197 0.961 . S
C3182 C3183 1.370 . S
C3182 C3184 1.363 . S
C3182 H3198 0.931 . S
C3183 C3182 1.370 . S
C3183 C3187 1.408 . S
C3184 C3182 1.363 . S
C3184 C3185 1.370 . S
C3184 C3188 1.524 . S
C3185 C3177 1.503 . S
C3185 C3184 1.370 . S
C3185 C3186 1.403 . S
C3186 C3185 1.403 . S
C3186 C3187 1.404 . S
C3186 C3189 1.539 . S
C3187 C3183 1.408 . S
C3187 C3186 1.404 . S
C3187 H3199 0.930 . S
C3188 C3184 1.524 . S
C3188 H3200 0.956 . S
C3188 H3201 0.961 . S
C3188 H3202 0.961 . S
C3189 C3186 1.539 . S
C3189 H3203 0.958 . S
C3189 H3204 0.961 . S
C3189 H3205 0.960 . S
H3190 C3174 0.931 . S
H3191 C3179 0.929 . S
H3192 C3180 0.960 . S
H3193 C3180 0.962 . S
H3194 C3180 0.960 . S
H3195 C3181 0.961 . S
H3196 C3181 0.961 . S
H3197 C3181 0.961 . S
H3198 C3182 0.931 . S
H3199 C3187 0.930 . S
H3200 C3188 0.956 . S
H3201 C3188 0.961 . S
H3202 C3188 0.961 . S
H3203 C3189 0.958 . S
H3204 C3189 0.961 . S
H3205 C3189 0.960 . S
C3206 C3207 1.391 . S
C3206 C3208 1.394 . S
C3206 H3222 0.931 . S
C3207 C3206 1.391 . S
C3207 C3211 1.376 . S
C3208 C3206 1.394 . S
C3208 C3209 1.369 . S
C3208 C3212 1.531 . S
C3209 C3208 1.369 . S
C3209 C3210 1.410 . S
C3209 C3217 1.503 . S
C3210 C3209 1.410 . S
C3210 C3211 1.392 . S
C3210 C3213 1.511 . S
C3211 C3207 1.376 . S
C3211 C3210 1.392 . S
C3211 H3223 0.929 . S
C3212 C3208 1.531 . S
C3212 H3224 0.960 . S
C3212 H3225 0.962 . S
C3212 H3226 0.960 . S
C3213 C3210 1.511 . S
C3213 H3227 0.961 . S
C3213 H3228 0.961 . S
C3213 H3229 0.961 . S
C3214 C3215 1.370 . S
C3214 C3216 1.363 . S
C3214 H3230 0.931 . S
C3215 C3214 1.370 . S
C3215 C3219 1.408 . S
C3216 C3214 1.363 . S
C3216 C3217 1.370 . S
C3216 C3220 1.524 . S
C3217 C3209 1.503 . S
C3217 C3216 1.370 . S
C3217 C3218 1.403 . S
C3218 C3217 1.403 . S
C3218 C3219 1.404 . S
C3218 C3221 1.539 . S
C3219 C3215 1.408 . S
C3219 C3218 1.404 . S
C3219 H3231 0.930 . S
C3220 C3216 1.524 . S
C3220 H3232 0.956 . S
C3220 H3233 0.961 . S
C3220 H3234 0.961 . S
C3221 C3218 1.539 . S
C3221 H3235 0.958 . S
C3221 H3236 0.961 . S
C3221 H3237 0.960 . S
H3222 C3206 0.931 . S
H3223 C3211 0.929 . S
H3224 C3212 0.960 . S
H3225 C3212 0.962 . S
H3226 C3212 0.960 . S
H3227 C3213 0.961 . S
H3228 C3213 0.961 . S
H3229 C3213 0.961 . S
H3230 C3214 0.931 . S
H3231 C3219 0.930 . S
H3232 C3220 0.956 . S
H3233 C3220 0.961 . S
H3234 C3220 0.961 . S
H3235 C3221 0.958 . S
H3236 C3221 0.961 . S
H3237 C3221 0.960 . S
C3238 C3239 1.391 . S
C3238 C3240 1.394 . S
C3238 H3254 0.931 . S
C3239 C3238 1.391 . S
C3239 C3243 1.376 . S
C3240 C3238 1.394 . S
C3240 C3241 1.369 . S
C3240 C3244 1.531 . S
C3241 C3240 1.369 . S
C3241 C3242 1.410 . S
C3241 C3249 1.503 . S
C3242 C3241 1.410 . S
C3242 C3243 1.392 . S
C3242 C3245 1.511 . S
C3243 C3239 1.376 . S
C3243 C3242 1.392 . S
C3243 H3255 0.929 . S
C3244 C3240 1.531 . S
C3244 H3256 0.960 . S
C3244 H3257 0.962 . S
C3244 H3258 0.960 . S
C3245 C3242 1.511 . S
C3245 H3259 0.961 . S
C3245 H3260 0.961 . S
C3245 H3261 0.961 . S
C3246 C3247 1.370 . S
C3246 C3248 1.363 . S
C3246 H3262 0.931 . S
C3247 C3246 1.370 . S
C3247 C3251 1.408 . S
C3248 C3246 1.363 . S
C3248 C3249 1.370 . S
C3248 C3252 1.524 . S
C3249 C3241 1.503 . S
C3249 C3248 1.370 . S
C3249 C3250 1.403 . S
C3250 C3249 1.403 . S
C3250 C3251 1.404 . S
C3250 C3253 1.539 . S
C3251 C3247 1.408 . S
C3251 C3250 1.404 . S
C3251 H3263 0.930 . S
C3252 C3248 1.524 . S
C3252 H3264 0.956 . S
C3252 H3265 0.961 . S
C3252 H3266 0.961 . S
C3253 C3250 1.539 . S
C3253 H3267 0.958 . S
C3253 H3268 0.961 . S
C3253 H3269 0.960 . S
H3254 C3238 0.931 . S
H3255 C3243 0.929 . S
H3256 C3244 0.960 . S
H3257 C3244 0.962 . S
H3258 C3244 0.960 . S
H3259 C3245 0.961 . S
H3260 C3245 0.961 . S
H3261 C3245 0.961 . S
H3262 C3246 0.931 . S
H3263 C3251 0.930 . S
H3264 C3252 0.956 . S
H3265 C3252 0.961 . S
H3266 C3252 0.961 . S
H3267 C3253 0.958 . S
H3268 C3253 0.961 . S
H3269 C3253 0.960 . S
C3270 C3271 1.391 . S
C3270 C3272 1.394 . S
C3270 H3286 0.931 . S
C3271 C3270 1.391 . S
C3271 C3275 1.376 . S
C3272 C3270 1.394 . S
C3272 C3273 1.369 . S
C3272 C3276 1.531 . S
C3273 C3272 1.369 . S
C3273 C3274 1.410 . S
C3273 C3281 1.503 . S
C3274 C3273 1.410 . S
C3274 C3275 1.392 . S
C3274 C3277 1.511 . S
C3275 C3271 1.376 . S
C3275 C3274 1.392 . S
C3275 H3287 0.929 . S
C3276 C3272 1.531 . S
C3276 H3288 0.960 . S
C3276 H3289 0.962 . S
C3276 H3290 0.960 . S
C3277 C3274 1.511 . S
C3277 H3291 0.961 . S
C3277 H3292 0.961 . S
C3277 H3293 0.961 . S
C3278 C3279 1.370 . S
C3278 C3280 1.363 1_556 S
C3278 H3294 0.931 . S
C3279 C3278 1.370 . S
C3279 C3283 1.408 . S
C3280 C3278 1.363 1_554 S
C3280 C3281 1.370 . S
C3280 C3284 1.524 . S
C3281 C3273 1.503 . S
C3281 C3280 1.370 . S
C3281 C3282 1.403 . S
C3282 C3281 1.403 . S
C3282 C3283 1.404 1_554 S
C3282 C3285 1.539 . S
C3283 C3279 1.408 . S
C3283 C3282 1.404 1_556 S
C3283 H3295 0.930 . S
C3284 C3280 1.524 . S
C3284 H3296 0.956 . S
C3284 H3297 0.961 . S
C3284 H3298 0.961 1_554 S
C3285 C3282 1.539 . S
C3285 H3299 0.958 . S
C3285 H3300 0.961 . S
C3285 H3301 0.960 . S
H3286 C3270 0.931 . S
H3287 C3275 0.929 . S
H3288 C3276 0.960 . S
H3289 C3276 0.962 . S
H3290 C3276 0.960 . S
H3291 C3277 0.961 . S
H3292 C3277 0.961 . S
H3293 C3277 0.961 . S
H3294 C3278 0.931 . S
H3295 C3283 0.930 . S
H3296 C3284 0.956 . S
H3297 C3284 0.961 . S
H3298 C3284 0.961 1_556 S
H3299 C3285 0.958 . S
H3300 C3285 0.961 . S
H3301 C3285 0.960 . S
C3302 C3303 1.391 . S
C3302 C3304 1.394 . S
C3302 H3318 0.931 . S
C3303 C3302 1.391 . S
C3303 C3307 1.376 . S
C3304 C3302 1.394 . S
C3304 C3305 1.369 . S
C3304 C3308 1.531 . S
C3305 C3304 1.369 . S
C3305 C3306 1.410 . S
C3305 C3313 1.503 . S
C3306 C3305 1.410 . S
C3306 C3307 1.392 . S
C3306 C3309 1.511 . S
C3307 C3303 1.376 . S
C3307 C3306 1.392 . S
C3307 H3319 0.929 . S
C3308 C3304 1.531 . S
C3308 H3320 0.960 . S
C3308 H3321 0.962 . S
C3308 H3322 0.960 . S
C3309 C3306 1.511 . S
C3309 H3323 0.961 . S
C3309 H3324 0.961 . S
C3309 H3325 0.961 . S
C3310 C3311 1.370 . S
C3310 C3312 1.363 . S
C3310 H3326 0.931 . S
C3311 C3310 1.370 . S
C3311 C3315 1.408 . S
C3312 C3310 1.363 . S
C3312 C3313 1.370 . S
C3312 C3316 1.524 . S
C3313 C3305 1.503 . S
C3313 C3312 1.370 . S
C3313 C3314 1.403 . S
C3314 C3313 1.403 . S
C3314 C3315 1.404 . S
C3314 C3317 1.539 . S
C3315 C3311 1.408 . S
C3315 C3314 1.404 . S
C3315 H3327 0.930 . S
C3316 C3312 1.524 . S
C3316 H3328 0.956 . S
C3316 H3329 0.961 . S
C3316 H3330 0.961 . S
C3317 C3314 1.539 . S
C3317 H3331 0.958 . S
C3317 H3332 0.961 . S
C3317 H3333 0.960 . S
H3318 C3302 0.931 . S
H3319 C3307 0.929 . S
H3320 C3308 0.960 . S
H3321 C3308 0.962 . S
H3322 C3308 0.960 . S
H3323 C3309 0.961 . S
H3324 C3309 0.961 . S
H3325 C3309 0.961 . S
H3326 C3310 0.931 . S
H3327 C3315 0.930 . S
H3328 C3316 0.956 . S
H3329 C3316 0.961 . S
H3330 C3316 0.961 . S
H3331 C3317 0.958 . S
H3332 C3317 0.961 . S
H3333 C3317 0.960 . S
C3334 C3335 1.391 . S
C3334 C3336 1.394 . S
C3334 H3350 0.931 . S
C3335 C3334 1.391 . S
C3335 C3339 1.376 . S
C3336 C3334 1.394 . S
C3336 C3337 1.369 . S
C3336 C3340 1.531 . S
C3337 C3336 1.369 . S
C3337 C3338 1.410 . S
C3337 C3345 1.503 . S
C3338 C3337 1.410 . S
C3338 C3339 1.392 . S
C3338 C3341 1.511 . S
C3339 C3335 1.376 . S
C3339 C3338 1.392 . S
C3339 H3351 0.929 . S
C3340 C3336 1.531 . S
C3340 H3352 0.960 . S
C3340 H3353 0.962 . S
C3340 H3354 0.960 . S
C3341 C3338 1.511 . S
C3341 H3355 0.961 . S
C3341 H3356 0.961 . S
C3341 H3357 0.961 . S
C3342 C3343 1.370 . S
C3342 C3344 1.363 1_556 S
C3342 H3358 0.931 . S
C3343 C3342 1.370 . S
C3343 C3347 1.408 1_556 S
C3344 C3342 1.363 1_554 S
C3344 C3345 1.370 . S
C3344 C3348 1.524 . S
C3345 C3337 1.503 . S
C3345 C3344 1.370 . S
C3345 C3346 1.403 . S
C3346 C3345 1.403 . S
C3346 C3347 1.404 . S
C3346 C3349 1.539 . S
C3347 C3343 1.408 1_554 S
C3347 C3346 1.404 . S
C3347 H3359 0.930 . S
C3348 C3344 1.524 . S
C3348 H3360 0.956 . S
C3348 H3361 0.961 . S
C3348 H3362 0.961 1_554 S
C3349 C3346 1.539 . S
C3349 H3363 0.958 . S
C3349 H3364 0.961 . S
C3349 H3365 0.960 . S
H3350 C3334 0.931 . S
H3351 C3339 0.929 . S
H3352 C3340 0.960 . S
H3353 C3340 0.962 . S
H3354 C3340 0.960 . S
H3355 C3341 0.961 . S
H3356 C3341 0.961 . S
H3357 C3341 0.961 . S
H3358 C3342 0.931 . S
H3359 C3347 0.930 . S
H3360 C3348 0.956 . S
H3361 C3348 0.961 . S
H3362 C3348 0.961 1_556 S
H3363 C3349 0.958 . S
H3364 C3349 0.961 . S
H3365 C3349 0.960 . S
C1063 C7 1.382 . S
C1071 C814 1.390 . S
C1103 C742 1.768 . S
C1095 C39 1.739 . S
C1135 C776 1.560 . S
C1127 C62 1.551 1_565 S
C1159 C76 1.874 . S
C1167 C956 1.847 . S
C1191 C108 1.412 . S
C1199 C994 1.405 . S
C1223 N117 1.314 . S
C1231 C1028 1.311 . S
C1263 C921 1.336 1_455 S
C1255 C16 1.372 . S
C1287 C30 1.817 . S
C1295 C849 1.829 . S
C1327 C884 1.535 . S
C1319 C53 1.540 1_556 S
C1351 C85 1.855 . S
C1359 C632 1.877 1_565 S
C1391 C669 1.639 . S
C1383 C99 1.637 . S
C1415 N127 1.257 . S
C1423 C704 1.310 . S
C1447 N150 1.110 . S
C1455 C1030 1.145 . S
C1487 C958 1.549 . S
C1479 N173 1.508 . S
C1519 C992 1.406 . S
C1511 C200 1.364 . S
C1543 C214 1.690 . S
C1551 C524 1.676 . S
C1575 N232 1.455 . S
C1583 C562 1.472 . S
C1607 C260 1.460 . S
C1615 C596 1.464 1_565 S
C1647 C489 1.238 . S
C1639 N140 1.222 . S
C1671 N163 1.262 . S
C1679 C417 1.323 . S
C1711 C452 1.630 . S
C1703 C191 1.615 . S
C1743 C848 1.936 . S
C1735 C223 1.953 . S
C1775 C885 1.430 . S
C1767 N242 1.371 . S
C1807 C920 1.486 . S
C1799 C269 1.491 . S
C1831 N288 1.284 . S
C1839 C598 1.298 . S
C1863 C315 1.496 . S
C1871 C526 1.538 . S
C1895 C338 1.588 . S
C1903 C560 1.619 . S
C1927 C352 1.876 . S
C1935 C740 1.853 . S
C1967 C778 1.529 . S
C1959 N370 1.511 . S
C1999 C812 1.531 1_655 S
C1991 C398 1.538 . S
C2031 C705 1.196 . S
C2023 N278 1.178 . S
C2055 C306 1.741 . S
C2063 C633 1.749 . S
C2087 C329 1.634 . S
C2095 C668 1.622 . S
C2127 C416 1.586 . S
C2119 C361 1.600 . S
C2151 N380 1.405 . S
C2159 C453 1.476 . S
C2191 C488 1.451 . S
C2183 C407 1.449 . S
C2223 C525 1.441 . S
C2215 N12 1.375 . S
C2247 N25 1.511 . S
C2255 C572 1.504 . S
C2287 C597 1.274 . S
C2279 N48 1.231 . S
C2319 C608 1.272 . S
C2311 N81 1.326 . S
C2351 C536 1.518 . S
C2343 N94 1.488 . S
C2383 C561 1.553 . S
C2375 C131 1.514 . S
C2415 C418 1.451 . S
C2407 N2 1.451 . S
C2439 N35 1.467 . S
C2447 C464 1.466 . S
C2471 N58 1.241 . S
C2479 C490 1.319 . S
C2511 C500 1.264 . S
C2503 N71 1.269 . S
C2543 C428 1.398 . S
C2535 N104 1.378 . S
C2575 C454 1.566 . S
C2567 C122 1.560 . S
C2599 C145 2.021 . S
C2607 C741 2.034 . S
C2631 C168 1.703 . S
C2639 C788 1.648 . S
C2663 N186 1.356 . S
C2671 C813 1.363 . S
C2703 C824 1.267 . S
C2695 N219 1.320 . S
C2735 C752 1.757 . S
C2727 C246 1.809 . S
C2767 C777 1.471 . S
C2759 N265 1.419 . S
C2799 C634 1.942 . S
C2791 C154 1.941 . S
C2823 C177 1.803 . S
C2831 C680 1.723 . S
C2855 N196 1.244 . S
C2863 C706 1.266 . S
C2887 N209 1.099 . S
C2895 C716 1.161 . S
C2919 C237 1.869 . S
C2927 C644 1.835 . S
C2959 C670 1.418 . S
C2951 N255 1.412 . S
C2983 C283 1.778 . S
C2991 C957 1.784 . S
C3015 N301 1.404 . S
C3023 C1004 1.396 . S
C3047 N324 1.263 . S
C3055 C1029 1.264 . S
C3087 C1040 1.104 . S
C3079 N357 1.167 . S
C3119 C968 1.722 . S
C3111 C384 1.776 . S
C3143 N403 1.302 . S
C3151 C993 1.313 . S
C3175 C292 1.892 . S
C3183 C850 1.891 . S
C3215 C896 1.335 . S
C3207 N311 1.313 . S
C3239 N334 1.324 . S
C3247 C922 1.408 . S
C3271 N347 1.327 . S
C3279 C932 1.312 . S
C3311 C860 1.877 1_554 S
C3303 C375 1.915 . S
C3335 N393 1.313 . S
C3343 C886 1.362 . S
