# Generated by pormake.
# Topology tsx, (6,3)-cn, num edge types: 1
# Building blocks:
#     Node 0, Type 0, BuildingBlock: MIDCAF_clean_sbu_0, # of connection points: 6
#     Node 1, Type 0, BuildingBlock: MIDCAF_clean_sbu_0, # of connection points: 6
#     Node 2, Type 1, BuildingBlock: WUSLED_clean_sbu_0, # of connection points: 3
#     Node 3, Type 1, BuildingBlock: WUSLED_clean_sbu_0, # of connection points: 3
#     Node 4, Type 1, BuildingBlock: WUSLED_clean_sbu_0, # of connection points: 3
#     Node 5, Type 1, BuildingBlock: WUSLED_clean_sbu_0, # of connection points: 3
#     Edge 6, Type (0, 1), BuildingBlock: FUNLAD_clean_linker_0, # of connection points: 2
#     Edge 7, Type (0, 1), BuildingBlock: FUNLAD_clean_linker_0, # of connection points: 2
#     Edge 8, Type (0, 1), BuildingBlock: FUNLAD_clean_linker_0, # of connection points: 2
#     Edge 9, Type (0, 1), BuildingBlock: FUNLAD_clean_linker_0, # of connection points: 2
#     Edge 10, Type (0, 1), BuildingBlock: FUNLAD_clean_linker_0, # of connection points: 2
#     Edge 11, Type (0, 1), BuildingBlock: FUNLAD_clean_linker_0, # of connection points: 2
#     Edge 12, Type (0, 1), BuildingBlock: FUNLAD_clean_linker_0, # of connection points: 2
#     Edge 13, Type (0, 1), BuildingBlock: FUNLAD_clean_linker_0, # of connection points: 2
#     Edge 14, Type (0, 1), BuildingBlock: FUNLAD_clean_linker_0, # of connection points: 2
#     Edge 15, Type (0, 1), BuildingBlock: FUNLAD_clean_linker_0, # of connection points: 2
#     Edge 16, Type (0, 1), BuildingBlock: FUNLAD_clean_linker_0, # of connection points: 2
#     Edge 17, Type (0, 1), BuildingBlock: FUNLAD_clean_linker_0, # of connection points: 2
# Relax obj value: 0.113
# Max RMSD: 0.180
# Mean RMSD: 0.108
data_MOF--net-tsx--node1-MIDCAF_clean_sbu_0--node2-WUSLED_clean_sbu_0--edge1-FUNLAD_clean_linker_0
_symmetry_space_group_name_H-M    P1
_symmetry_Int_Tables_number       1
_symmetry_cell_setting            triclinic
loop_
_symmetry_equiv_pos_as_xyz
'x, y, z'
_cell_length_a     28.265522
_cell_length_b     29.685683
_cell_length_c     55.810161
_cell_angle_alpha  90.989243
_cell_angle_beta   94.588392
_cell_angle_gamma 90.220483
loop_
_atom_site_label
_atom_site_type_symbol
_atom_site_fract_x
_atom_site_fract_y
_atom_site_fract_z
_atom_type_partial_charge
Zn0 Zn 0.97562 0.01492 0.98429 0.0
Zn1 Zn 0.13803 0.02515 0.03671 0.0
Zn2 Zn 0.05654 0.02325 0.00988 0.0
C3 C 0.11315 0.11484 0.02668 0.0
C4 C 0.1552 0.97449 0.99625 0.0
O5 O 1.00545 0.98145 0.02941 0.0
O6 O 0.9414 0.97405 0.00417 0.0
C7 C 0.98981 0.10731 0.99454 0.0
O8 O 0.07621 0.09583 0.01569 0.0
O9 O 0.14556 0.09143 0.03707 0.0
O10 O 0.17646 0.98862 0.01569 0.0
O11 O 0.11127 0.9848 0.99101 0.0
O12 O 0.9589 0.07937 0.98598 0.0
O13 O 0.03074 0.09344 0.00327 0.0
O14 O 0.07073 0.99052 0.97515 0.0
O15 O 1.00036 0.98967 0.95468 0.0
C16 C 0.04428 0.98156 0.95572 0.0
O17 O 0.04489 0.99373 0.0452 0.0
O18 O 0.11508 0.99755 0.06578 0.0
C19 C 0.96346 0.96496 0.02401 0.0
C20 C 0.07147 0.98765 0.06477 0.0
Zn21 Zn 0.64085 0.52143 0.53529 0.0
Zn22 Zn 0.47325 0.50457 0.48654 0.0
Zn23 Zn 0.55717 0.51701 0.5102 0.0
C24 C 0.54051 0.47168 0.45684 0.0
C25 C 0.4873 0.59838 0.49507 0.0
O26 O 0.55061 0.4873 0.54604 0.0
O27 O 0.62277 0.4909 0.56458 0.0
C28 C 0.65558 0.47165 0.49407 0.0
O29 O 0.56838 0.48314 0.47539 0.0
O30 O 0.4963 0.4776 0.45687 0.0
O31 O 0.45662 0.56932 0.48754 0.0
O32 O 0.5291 0.58596 0.50326 0.0
O33 O 0.67843 0.48764 0.51266 0.0
O34 O 0.61073 0.47946 0.49021 0.0
O35 O 0.57545 0.5901 0.51475 0.0
O36 O 0.64495 0.58803 0.53614 0.0
C37 C 0.61179 0.61032 0.52559 0.0
O38 O 0.5088 0.4765 0.53179 0.0
O39 O 0.44237 0.46502 0.5086 0.0
C40 C 0.57948 0.48034 0.5647 0.0
C41 C 0.46693 0.45887 0.5281 0.0
C42 C 1.00492 0.11293 0.43283 0.0
C43 C 0.97829 0.13261 0.41346 0.0
C44 C 0.93688 0.17981 0.44115 0.0
C45 C 0.94464 0.16578 0.41757 0.0
C46 C 0.96296 0.15906 0.4605 0.0
C47 C 0.9967 0.12602 0.45635 0.0
U48 U 0.06257 0.03388 0.39015 0.0
O49 O 0.13782 0.02088 0.3849 0.0
O50 O 0.09134 0.96553 0.3943 0.0
C51 C 0.1346 0.97808 0.39021 0.0
C52 C 0.04179 0.07945 0.42857 0.0
C53 C 0.17344 0.95969 0.40625 0.0
C54 C 0.2086 0.94016 0.44589 0.0
C55 C 0.17281 0.96137 0.43137 0.0
C56 C 0.24648 0.91662 0.41036 0.0
C57 C 0.24556 0.9169 0.43553 0.0
C58 C 0.21083 0.9378 0.39593 0.0
C59 C 1.00921 0.02685 0.32522 0.0
C60 C 0.04834 0.98806 0.29368 0.0
C61 C 0.96914 0.01785 0.28531 0.0
C62 C 0.96942 0.03349 0.30908 0.0
C63 C 1.00878 0.99533 0.27724 0.0
C64 C 0.04851 1.00364 0.31749 0.0
C65 C 1.00947 0.04481 0.34991 0.0
O66 O 0.02631 0.03824 0.42363 0.0
O67 O 0.07398 0.09267 0.41442 0.0
O68 O 0.04555 0.07123 0.35694 0.0
O69 O 0.99955 0.01552 0.36617 0.0
H70 H 0.98407 0.12281 0.39513 0.0
H71 H 0.92567 0.18125 0.40224 0.0
H72 H 0.95738 0.16838 0.4789 0.0
H73 H 0.01667 0.11096 0.47152 0.0
H74 H 0.20703 0.94154 0.46521 0.0
H75 H 0.14425 0.97828 0.43968 0.0
H76 H 0.27376 0.89853 0.40166 0.0
H77 H 0.21181 0.93602 0.37656 0.0
H78 H 0.07969 0.97139 0.28802 0.0
H79 H 0.93787 0.02345 0.27323 0.0
H80 H 0.93867 0.05111 0.31483 0.0
H81 H 0.07953 0.99815 0.32977 0.0
C82 C 0.95216 0.98078 0.58687 0.0
C83 C 0.93911 0.9478 0.60282 0.0
C84 C 0.87178 0.92517 0.57503 0.0
C85 C 0.89949 0.92023 0.59695 0.0
C86 C 0.88521 0.95823 0.55903 0.0
C87 C 0.92501 0.98581 0.56493 0.0
U88 U 0.04676 0.02182 0.63382 0.0
O89 O 0.12264 0.03717 0.63254 0.0
O90 O 0.0742 0.08984 0.6438 0.0
C91 C 0.1178 0.0795 0.63923 0.0
C92 C 0.99339 0.01038 0.59342 0.0
C93 C 0.14499 0.11376 0.62712 0.0
C94 C 0.19031 0.13804 0.5943 0.0
C95 C 0.15956 0.10706 0.60385 0.0
C96 C 0.19112 0.18323 0.63086 0.0
C97 C 0.20704 0.17621 0.60785 0.0
C98 C 0.16051 0.15236 0.64034 0.0
C99 C 0.04738 0.97102 0.69616 0.0
C100 C 0.09948 0.99916 0.72991 0.0
C101 C 0.04598 0.93681 0.73528 0.0
C102 C 0.02938 0.93873 0.71104 0.0
C103 C 0.08092 0.96727 0.74508 0.0
C104 C 0.08287 1.00098 0.70563 0.0
C105 C 0.02777 0.97397 0.67105 0.0
O106 O 0.98608 0.04236 0.60927 0.0
O107 O 0.03399 0.98954 0.59805 0.0
O108 O 0.05564 0.95981 0.65477 0.0
O109 O 1.00647 0.01205 0.66543 0.0
H110 H 0.95961 0.94339 0.61986 0.0
H111 H 0.8909 0.89468 0.60955 0.0
H112 H 0.86453 0.9633 0.54212 0.0
H113 H 0.93441 0.01126 0.55244 0.0
H114 H 0.20129 0.13189 0.57639 0.0
H115 H 0.14809 0.07749 0.59327 0.0
H116 H 0.20367 0.21177 0.64197 0.0
H117 H 0.15014 0.15796 0.65843 0.0
H118 H 0.12673 0.02279 0.73681 0.0
H119 H 0.03038 0.9123 0.74649 0.0
H120 H 1.00185 0.91545 0.70401 0.0
H121 H 0.09726 0.02608 0.69432 0.0
C122 C 0.50849 0.6252 0.92861 0.0
C123 C 0.49013 0.6491 0.90847 0.0
C124 C 0.43875 0.69211 0.93329 0.0
C125 C 0.45584 0.68236 0.91081 0.0
C126 C 0.45656 0.66748 0.95337 0.0
C127 C 0.49125 0.63438 0.95104 0.0
U128 U 0.56627 0.54438 0.88783 0.0
O129 O 0.6409 0.52796 0.88326 0.0
O130 O 0.59123 0.47447 0.89165 0.0
C131 C 0.63517 0.48508 0.88783 0.0
C132 C 0.5448 0.59026 0.92596 0.0
C133 C 0.67302 0.46384 0.90335 0.0
C134 C 0.72005 0.45551 0.94148 0.0
C135 C 0.68346 0.47689 0.92749 0.0
C136 C 0.73594 0.40831 0.90724 0.0
C137 C 0.7468 0.42092 0.93148 0.0
C138 C 0.69955 0.42956 0.89338 0.0
C139 C 0.5133 0.54426 0.82217 0.0
C140 C 0.52813 0.48799 0.79156 0.0
C141 C 0.48905 0.55785 0.78024 0.0
C142 C 0.49221 0.57192 0.80432 0.0
C143 C 0.5068 0.51564 0.77353 0.0
C144 C 0.53144 0.50223 0.81569 0.0
C145 C 0.51555 0.55997 0.84735 0.0
O146 O 0.52808 0.54958 0.9207 0.0
O147 O 0.5795 0.60179 0.91291 0.0
O148 O 0.55339 0.58365 0.85484 0.0
O149 O 0.50341 0.53038 0.86302 0.0
H150 H 0.50242 0.6421 0.8909 0.0
H151 H 0.44242 0.70025 0.89495 0.0
H152 H 0.44436 0.67443 0.97096 0.0
H153 H 0.50474 0.6161 0.96676 0.0
H154 H 0.72757 0.46622 0.96004 0.0
H155 H 0.66337 0.50343 0.93547 0.0
H156 H 0.75491 0.38125 0.89903 0.0
H157 H 0.69191 0.41896 0.87479 0.0
H158 H 0.54186 0.45517 0.78706 0.0
H159 H 0.47333 0.58044 0.76684 0.0
H160 H 0.47826 0.60458 0.809 0.0
H161 H 0.54795 0.48043 0.82927 0.0
C162 C 0.46001 0.48269 0.08204 0.0
C163 C 0.41865 0.48087 0.09443 0.0
C164 C 0.38218 0.42728 0.06471 0.0
C165 C 0.38017 0.45368 0.08582 0.0
C166 C 0.4237 0.42927 0.05236 0.0
C167 C 0.46202 0.45676 0.06089 0.0
U168 U 0.55112 0.52104 0.13247 0.0
O169 O 0.62738 0.53619 0.13283 0.0
O170 O 0.57824 0.58861 0.14358 0.0
C171 C 0.62218 0.57843 0.13959 0.0
C172 C 0.50134 0.51096 0.09094 0.0
C173 C 0.64934 0.61278 0.12758 0.0
C174 C 0.68997 0.63949 0.09365 0.0
C175 C 0.66097 0.60759 0.10369 0.0
C176 C 0.69531 0.68235 0.13109 0.0
C177 C 0.70791 0.67707 0.10733 0.0
C178 C 0.66643 0.65055 0.14106 0.0
C179 C 0.54624 0.46833 0.19429 0.0
C180 C 0.57716 0.50173 0.2325 0.0
C181 C 0.55811 0.4221 0.22974 0.0
C182 C 0.54425 0.42636 0.20528 0.0
C183 C 0.57399 0.45988 0.24379 0.0
C184 C 0.56359 0.50588 0.20797 0.0
C185 C 0.52895 0.47239 0.1688 0.0
O186 O 0.49323 0.54293 0.10669 0.0
O187 O 0.54111 0.48921 0.09638 0.0
O188 O 0.55814 0.45842 0.15311 0.0
O189 O 0.50783 0.51045 0.16288 0.0
H190 H 0.41594 0.50037 0.11084 0.0
H191 H 0.3487 0.45366 0.09567 0.0
H192 H 0.4271 0.40894 0.03631 0.0
H193 H 0.49353 0.45744 0.05104 0.0
H194 H 0.69918 0.63418 0.07535 0.0
H195 H 0.64831 0.57862 0.09294 0.0
H196 H 0.70761 0.71123 0.142 0.0
H197 H 0.65791 0.65518 0.15953 0.0
H198 H 0.5887 0.53166 0.24274 0.0
H199 H 0.55602 0.3892 0.23769 0.0
H200 H 0.53136 0.39692 0.19497 0.0
H201 H 0.56576 0.53861 0.19982 0.0
C202 C 0.13966 0.18581 0.00878 0.0
C203 C 0.11979 0.16401 0.02772 0.0
C204 C 0.1615 0.22814 0.01259 0.0
C205 C 0.16419 0.24906 0.03556 0.0
C206 C 0.14042 0.22874 0.05377 0.0
C207 C 0.11894 0.18644 0.04998 0.0
C208 C 0.19435 0.28959 0.04209 0.0
C209 C 0.23158 0.30239 0.03001 0.0
C210 C 0.26713 0.33705 0.0393 0.0
C211 C 0.2934 0.36003 0.02298 0.0
C212 C 0.32988 0.38994 0.03114 0.0
C213 C 0.34165 0.39712 0.05591 0.0
H214 H 0.2602 0.32645 0.0773 0.0
C215 C 0.31509 0.37422 0.07225 0.0
C216 C 0.27834 0.34464 0.06408 0.0
H217 H 0.32363 0.37793 0.09144 0.0
H218 H 0.14134 0.16874 0.99156 0.0
H219 H 0.1778 0.24321 0.99777 0.0
H220 H 0.14135 0.2441 0.07156 0.0
H221 H 0.10461 0.16984 0.06498 0.0
H222 H 0.18813 0.30709 0.05879 0.0
H223 H 0.23797 0.28583 0.01311 0.0
H224 H 0.28587 0.35462 0.0038 0.0
H225 H 0.3489 0.40736 0.01796 0.0
C226 C 0.23068 0.94676 0.98133 0.0
C227 C 0.18102 0.94349 0.98088 0.0
C228 C 0.25702 0.91314 0.97085 0.0
C229 C 0.23431 0.87516 0.95963 0.0
C230 C 0.18443 0.87283 0.95827 0.0
C231 C 0.15795 0.90683 0.96867 0.0
C232 C 0.26198 0.83563 0.95172 0.0
C233 C 0.30717 0.83885 0.94572 0.0
C234 C 0.3379 0.79938 0.94132 0.0
C235 C 0.37685 0.80522 0.92755 0.0
C236 C 0.40898 0.77022 0.92465 0.0
C237 C 0.40339 0.72862 0.93578 0.0
H238 H 0.30304 0.75206 0.96353 0.0
C239 C 0.36435 0.72261 0.94955 0.0
C240 C 0.33185 0.75754 0.95225 0.0
H241 H 0.35897 0.6909 0.95828 0.0
H242 H 0.24947 0.97452 0.99075 0.0
H243 H 0.2953 0.91595 0.97289 0.0
H244 H 0.16597 0.84386 0.9499 0.0
H245 H 0.1198 0.90299 0.9684 0.0
H246 H 0.24468 0.80286 0.95128 0.0
H247 H 0.32279 0.87197 0.9439 0.0
H248 H 0.3828 0.83722 0.9192 0.0
H249 H 0.43898 0.77616 0.91418 0.0
C250 C 0.89036 0.93398 0.03968 0.0
C251 C 0.94013 0.93432 0.04016 0.0
C252 C 0.86666 0.90135 0.05193 0.0
C253 C 0.89212 0.86765 0.06473 0.0
C254 C 0.94205 0.86944 0.06636 0.0
C255 C 0.96591 0.90232 0.05403 0.0
C256 C 0.86723 0.83033 0.07626 0.0
C257 C 0.82444 0.8144 0.06724 0.0
C258 C 0.79718 0.77756 0.07783 0.0
C259 C 0.75867 0.75802 0.0638 0.0
C260 C 0.73027 0.72503 0.07318 0.0
C261 C 0.73943 0.71082 0.09697 0.0
H262 H 0.8354 0.77758 0.11325 0.0
C263 C 0.77827 0.73001 0.111 0.0
C264 C 0.80675 0.76303 0.1016 0.0
H265 H 0.78669 0.71954 0.12933 0.0
H266 H 0.86954 0.95859 0.02939 0.0
H267 H 0.8283 0.90247 0.0511 0.0
H268 H 0.96261 0.84433 0.07641 0.0
H269 H 1.00427 0.9015 0.05453 0.0
H270 H 0.88583 0.81437 0.09159 0.0
H271 H 0.80864 0.82827 0.0506 0.0
H272 H 0.75011 0.76866 0.04549 0.0
H273 H 0.70037 0.7115 0.06194 0.0
C274 C 0.92938 0.16631 0.99892 0.0
C275 C 0.97633 0.15539 0.99473 0.0
C276 C 0.9119 0.20953 0.99477 0.0
C277 C 0.94099 0.24331 0.98626 0.0
C278 C 0.98881 0.23297 0.98318 0.0
C279 C 1.00651 0.18941 0.98758 0.0
C280 C 0.9205 0.28691 0.97745 0.0
C281 C 0.87944 0.30381 0.98462 0.0
C282 C 0.8506 0.33969 0.972 0.0
C283 C 0.81016 0.35574 0.98251 0.0
C284 C 0.77758 0.38375 0.96985 0.0
C285 C 0.78453 0.39641 0.94623 0.0
H286 H 0.889 0.34269 0.93974 0.0
C287 C 0.82627 0.38237 0.93616 0.0
C288 C 0.8588 0.35427 0.94879 0.0
H289 H 0.83323 0.39212 0.91816 0.0
H290 H 0.90528 0.14065 0.00439 0.0
H291 H 0.87465 0.21513 0.9968 0.0
H292 H 1.01198 0.25811 0.97643 0.0
H293 H 0.04263 0.18166 0.98388 0.0
H294 H 0.93861 0.30376 0.96369 0.0
H295 H 0.86426 0.28883 0.99989 0.0
H296 H 0.80261 0.34506 1.00028 0.0
H297 H 0.74577 0.39357 0.97815 0.0
C298 C 0.61816 0.68371 0.54733 0.0
C299 C 0.61775 0.65956 0.5255 0.0
C300 C 0.63945 0.72633 0.54985 0.0
C301 C 0.66202 0.74512 0.53068 0.0
C302 C 0.65766 0.72252 0.50824 0.0
C303 C 0.63599 0.67996 0.5057 0.0
C304 C 0.69343 0.78584 0.53384 0.0
C305 C 0.71493 0.79912 0.55533 0.0
C306 C 0.75213 0.83499 0.55887 0.0
C307 C 0.76206 0.85349 0.58207 0.0
C308 C 0.79985 0.88358 0.58708 0.0
C309 C 0.82929 0.89574 0.56906 0.0
H310 H 0.7751 0.83391 0.52259 0.0
C311 C 0.81869 0.8782 0.54563 0.0
C312 C 0.78063 0.84811 0.54057 0.0
H313 H 0.84089 0.88635 0.53136 0.0
H314 H 0.60469 0.66835 0.56291 0.0
H315 H 0.63981 0.74331 0.56715 0.0
H316 H 0.67401 0.73632 0.49304 0.0
H317 H 0.63689 0.66154 0.48882 0.0
H318 H 0.70192 0.80297 0.51769 0.0
H319 H 0.70662 0.7818 0.57143 0.0
H320 H 0.74088 0.84405 0.59655 0.0
H321 H 0.80623 0.89702 0.60522 0.0
C322 C 0.72972 0.44749 0.47648 0.0
C323 C 0.68087 0.44115 0.47825 0.0
C324 C 0.75668 0.41435 0.46602 0.0
C325 C 0.73558 0.37352 0.45749 0.0
C326 C 0.68603 0.36874 0.45745 0.0
C327 C 0.65885 0.40224 0.46782 0.0
C328 C 0.76474 0.33488 0.44972 0.0
C329 C 0.80952 0.32808 0.45936 0.0
C330 C 0.84042 0.28909 0.45397 0.0
C331 C 0.8838 0.28482 0.46789 0.0
C332 C 0.91468 0.24942 0.4638 0.0
C333 C 0.90314 0.21703 0.44559 0.0
H334 H 0.79612 0.2588 0.42421 0.0
C335 C 0.8598 0.2212 0.43151 0.0
C336 C 0.82877 0.25681 0.4356 0.0
H337 H 0.84961 0.19671 0.41742 0.0
H338 H 0.7475 0.47751 0.48404 0.0
H339 H 0.7943 0.42043 0.46527 0.0
H340 H 0.66866 0.33801 0.4506 0.0
H341 H 0.62129 0.39636 0.46903 0.0
H342 H 0.74755 0.31021 0.43736 0.0
H343 H 0.8243 0.35172 0.47306 0.0
H344 H 0.8941 0.30916 0.48206 0.0
H345 H 0.94808 0.24796 0.4747 0.0
C346 C 0.45986 0.38556 0.54863 0.0
C347 C 0.44639 0.43076 0.54611 0.0
C348 C 0.43249 0.35583 0.56114 0.0
C349 C 0.3914 0.37111 0.57143 0.0
C350 C 0.38022 0.41712 0.57031 0.0
C351 C 0.40696 0.44651 0.55741 0.0
C352 C 0.35822 0.34011 0.58256 0.0
C353 C 0.34966 0.2974 0.57459 0.0
C354 C 0.31249 0.26733 0.58343 0.0
C355 C 0.31461 0.2208 0.57855 0.0
C356 C 0.28015 0.19136 0.58609 0.0
C357 C 0.24236 0.20775 0.59863 0.0
H358 H 0.26971 0.31949 0.59894 0.0
C359 C 0.23963 0.25443 0.60307 0.0
C360 C 0.27409 0.28386 0.59554 0.0
H361 H 0.2105 0.2684 0.61222 0.0
H362 H 0.48991 0.3727 0.53978 0.0
H363 H 0.44294 0.32084 0.56224 0.0
H364 H 0.34912 0.42991 0.57828 0.0
H365 H 0.39574 0.4812 0.55545 0.0
H366 H 0.33791 0.35438 0.59649 0.0
H367 H 0.37009 0.28382 0.56048 0.0
H368 H 0.34336 0.20702 0.56903 0.0
H369 H 0.28375 0.15561 0.58254 0.0
C370 C 0.42549 0.65634 0.49895 0.0
C371 C 0.47262 0.64614 0.49476 0.0
C372 C 0.40745 0.69941 0.49503 0.0
C373 C 0.43613 0.73376 0.48677 0.0
C374 C 0.48397 0.72405 0.48345 0.0
C375 C 0.50225 0.68065 0.48763 0.0
C376 C 0.41514 0.77753 0.47862 0.0
C377 C 0.37519 0.79444 0.48704 0.0
C378 C 0.34537 0.83063 0.47536 0.0
C379 C 0.29874 0.8357 0.48205 0.0
C380 C 0.267 0.86493 0.46979 0.0
C381 C 0.28112 0.89028 0.45054 0.0
H382 H 0.39617 0.85611 0.4515 0.0
C383 C 0.32857 0.8872 0.44468 0.0
C384 C 0.36035 0.85776 0.45691 0.0
H385 H 0.34103 0.90703 0.43032 0.0
H386 H 0.40178 0.63033 0.5044 0.0
H387 H 0.37015 0.70458 0.49713 0.0
H388 H 0.50677 0.74965 0.47682 0.0
H389 H 0.53846 0.67345 0.48389 0.0
H390 H 0.43137 0.79391 0.4641 0.0
H391 H 0.36102 0.77837 0.50229 0.0
H392 H 0.28603 0.81548 0.49622 0.0
H393 H 0.23075 0.86598 0.47473 0.0
C394 C 0.08053 0.95463 0.10565 0.0
C395 C 0.05105 0.97354 0.08706 0.0
C396 C 0.06448 0.94913 0.12843 0.0
C397 C 0.01825 0.96232 0.13317 0.0
C398 C 0.98793 0.97881 0.11413 0.0
C399 C 1.00415 0.98448 0.09133 0.0
C400 C 1.00256 0.96504 0.15804 0.0
C401 C 0.02612 0.94631 0.17733 0.0
C402 C 0.01664 0.95738 0.20263 0.0
C403 C 0.034 0.92857 0.22096 0.0
C404 C 0.03044 0.94021 0.24514 0.0
C405 C 1.00968 0.9812 0.25156 0.0
H406 H 0.98271 0.0221 0.19566 0.0
C407 C 0.99154 0.00968 0.23321 0.0
C408 C 0.99508 0.99806 0.20906 0.0
H409 H 0.97622 0.04193 0.2375 0.0
H410 H 0.11694 0.946 0.1029 0.0
H411 H 0.08961 0.93699 0.14242 0.0
H412 H 0.95226 0.98946 0.11718 0.0
H413 H 0.98083 0.99989 0.0775 0.0
H414 H 0.97137 0.98525 0.16058 0.0
H415 H 0.05458 0.92273 0.17482 0.0
H416 H 0.05115 0.89723 0.21659 0.0
H417 H 0.04434 0.91726 0.25882 0.0
C418 C 0.10734 0.98059 0.92657 0.0
C419 C 0.06439 0.96376 0.93391 0.0
C420 C 0.12099 0.97024 0.9035 0.0
C421 C 0.09207 0.94244 0.88765 0.0
C422 C 0.05132 0.9228 0.89589 0.0
C423 C 0.03728 0.93381 0.91864 0.0
C424 C 0.1008 0.93561 0.86195 0.0
C425 C 0.11819 0.96841 0.84866 0.0
C426 C 0.11445 0.96682 0.82188 0.0
C427 C 0.1111 0.00757 0.80946 0.0
C428 C 0.10177 0.00775 0.78447 0.0
C429 C 0.09593 0.96706 0.77127 0.0
H430 H 0.11548 0.89394 0.81732 0.0
C431 C 0.10199 0.92624 0.78355 0.0
C432 C 0.11132 0.92607 0.80855 0.0
H433 H 0.09894 0.89431 0.77384 0.0
H434 H 0.12887 1.00372 0.93808 0.0
H435 H 0.15333 0.98496 0.89789 0.0
H436 H 0.02869 0.90091 0.88416 0.0
H437 H 1.00418 0.92013 0.92397 0.0
H438 H 0.08538 0.90559 0.85304 0.0
H439 H 0.12944 1.00009 0.85741 0.0
H440 H 0.11366 0.03949 0.81921 0.0
H441 H 0.09712 0.03982 0.77565 0.0
C442 C 0.51695 0.4758 0.59392 0.0
C443 C 0.56216 0.4639 0.58727 0.0
C444 C 0.50429 0.46788 0.61723 0.0
C445 C 0.53695 0.44822 0.63434 0.0
C446 C 0.58064 0.43323 0.62701 0.0
C447 C 0.5933 0.44132 0.6038 0.0
C448 C 0.52887 0.44597 0.66031 0.0
C449 C 0.50157 0.47567 0.67138 0.0
C450 C 0.50163 0.48055 0.69796 0.0
C451 C 0.46292 0.50157 0.70767 0.0
C452 C 0.46391 0.51157 0.73227 0.0
C453 C 0.50402 0.50132 0.74775 0.0
H454 H 0.57256 0.45425 0.70676 0.0
C455 C 0.54237 0.4793 0.73814 0.0
C456 C 0.54129 0.4691 0.71354 0.0
H457 H 0.57416 0.47161 0.74943 0.0
H458 H 0.49247 0.49377 0.58165 0.0
H459 H 0.4696 0.47851 0.62191 0.0
H460 H 0.60625 0.41751 0.63969 0.0
H461 H 0.62832 0.43155 0.5991 0.0
H462 H 0.55003 0.42204 0.67099 0.0
H463 H 0.48013 0.49951 0.66079 0.0
H464 H 0.43206 0.51103 0.6961 0.0
H465 H 0.43341 0.5279 0.7391 0.0
C466 C 0.60041 0.47209 0.42605 0.0
C467 C 0.55928 0.45379 0.43469 0.0
C468 C 0.61238 0.46129 0.40273 0.0
C469 C 0.5836 0.43158 0.38792 0.0
C470 C 0.54486 0.41063 0.39743 0.0
C471 C 0.53243 0.42205 0.42044 0.0
C472 C 0.59012 0.42384 0.36202 0.0
C473 C 0.60577 0.45604 0.3478 0.0
C474 C 0.6003 0.45298 0.32104 0.0
C475 C 0.62924 0.47975 0.30765 0.0
C476 C 0.62174 0.48113 0.28256 0.0
C477 C 0.58465 0.45612 0.27028 0.0
H478 H 0.53924 0.40773 0.31826 0.0
C479 C 0.55605 0.42895 0.2837 0.0
C480 C 0.56367 0.42742 0.3087 0.0
H481 H 0.52641 0.41012 0.27499 0.0
H482 H 0.62172 0.49662 0.43675 0.0
H483 H 0.64331 0.47707 0.39618 0.0
H484 H 0.52239 0.38728 0.38652 0.0
H485 H 0.50073 0.40723 0.42677 0.0
H486 H 0.57608 0.39251 0.35397 0.0
H487 H 0.62019 0.48728 0.35581 0.0
H488 H 0.65738 0.50015 0.31666 0.0
H489 H 0.64477 0.5021 0.27282 0.0
loop_
_geom_bond_atom_site_label_1
_geom_bond_atom_site_label_2
_geom_bond_distance
_geom_bond_site_symmetry_2
_ccdc_geom_bond_type
Zn0 O6 1.920 1_545 S
Zn0 O12 1.898 . S
Zn0 O15 1.905 1_545 S
Zn1 O9 1.905 . S
Zn1 O10 1.898 1_545 S
Zn1 O18 1.920 1_545 S
Zn2 O5 2.080 1_445 S
Zn2 O8 2.114 . S
Zn2 O11 2.120 1_545 S
Zn2 O13 2.120 1_455 S
Zn2 O14 2.114 1_554 S
Zn2 O17 2.080 . S
C3 O8 1.166 . S
C3 O9 1.182 . S
C4 O10 1.167 . S
C4 O11 1.299 . S
O5 Zn2 2.080 1_665 S
O5 C19 1.305 . S
O6 Zn0 1.920 1_565 S
O6 C19 1.234 1_556 S
C7 O12 1.167 . S
C7 O13 1.299 1_556 S
O8 Zn2 2.114 . S
O8 C3 1.166 . S
O9 Zn1 1.905 . S
O9 C3 1.182 . S
O10 Zn1 1.898 1_565 S
O10 C4 1.167 . S
O11 Zn2 2.120 1_565 S
O11 C4 1.299 . S
O12 Zn0 1.898 . S
O12 C7 1.167 . S
O13 Zn2 2.120 1_655 S
O13 C7 1.299 1_554 S
O14 Zn2 2.114 1_556 S
O14 C16 1.166 1_545 S
O15 Zn0 1.905 1_565 S
O15 C16 1.182 1_655 S
C16 O14 1.166 1_565 S
C16 O15 1.182 1_455 S
O17 Zn2 2.080 . S
O17 C20 1.305 1_545 S
O18 Zn1 1.920 1_565 S
O18 C20 1.234 . S
C19 O5 1.305 . S
C19 O6 1.234 1_554 S
C20 O17 1.305 1_565 S
C20 O18 1.234 . S
Zn21 O27 1.920 . S
Zn21 O33 1.898 . S
Zn21 O36 1.905 . S
Zn22 O30 1.905 . S
Zn22 O31 1.898 . S
Zn22 O39 1.920 . S
Zn23 O26 2.080 . S
Zn23 O29 2.114 . S
Zn23 O32 2.120 . S
Zn23 O34 2.120 . S
Zn23 O35 2.114 . S
Zn23 O38 2.080 . S
C24 O29 1.166 . S
C24 O30 1.182 . S
C25 O31 1.167 . S
C25 O32 1.299 . S
O26 Zn23 2.080 . S
O26 C40 1.305 . S
O27 Zn21 1.920 . S
O27 C40 1.234 . S
C28 O33 1.167 . S
C28 O34 1.299 . S
O29 Zn23 2.114 . S
O29 C24 1.166 . S
O30 Zn22 1.905 . S
O30 C24 1.182 . S
O31 Zn22 1.898 . S
O31 C25 1.167 . S
O32 Zn23 2.120 . S
O32 C25 1.299 . S
O33 Zn21 1.898 . S
O33 C28 1.167 . S
O34 Zn23 2.120 . S
O34 C28 1.299 . S
O35 Zn23 2.114 . S
O35 C37 1.166 . S
O36 Zn21 1.905 . S
O36 C37 1.182 . S
C37 O35 1.166 . S
C37 O36 1.182 . S
O38 Zn23 2.080 . S
O38 C41 1.305 . S
O39 Zn22 1.920 . S
O39 C41 1.234 . S
C40 O26 1.305 . S
C40 O27 1.234 . S
C41 O38 1.305 . S
C41 O39 1.234 . S
C42 C43 1.276 . S
C42 C47 1.482 . S
C42 C52 1.448 1_655 S
C43 C42 1.276 . S
C43 C45 1.339 . S
C43 H70 0.931 . S
C44 C45 1.395 . S
C44 C46 1.320 . S
C45 C43 1.339 . S
C45 C44 1.395 . S
C45 H71 0.929 . S
C46 C44 1.320 . S
C46 C47 1.405 . S
C46 H72 0.930 . S
C47 C42 1.482 . S
C47 C46 1.405 . S
C47 H73 0.931 1_655 S
U48 O49 2.454 . S
U48 O50 2.458 1_545 S
U48 C51 2.984 1_545 S
U48 C52 2.847 . S
U48 C65 2.882 . S
U48 O66 2.441 . S
U48 O67 2.420 . S
U48 O68 2.455 . S
U48 O69 2.449 . S
O49 U48 2.454 . S
O49 C51 1.353 1_545 S
O50 U48 2.458 1_565 S
O50 C51 1.286 . S
C51 U48 2.984 1_565 S
C51 O49 1.353 1_565 S
C51 O50 1.286 . S
C51 C53 1.363 . S
C52 C42 1.448 1_455 S
C52 U48 2.847 . S
C52 O66 1.249 . S
C52 O67 1.202 . S
C53 C51 1.363 . S
C53 C55 1.408 . S
C53 C58 1.342 . S
C54 C55 1.310 . S
C54 C57 1.461 . S
C54 H74 0.932 . S
C55 C53 1.408 . S
C55 C54 1.310 . S
C55 H75 0.930 . S
C56 C57 1.474 . S
C56 C58 1.285 . S
C56 H76 0.929 . S
C57 C54 1.461 . S
C57 C56 1.474 . S
C58 C53 1.342 . S
C58 C56 1.285 . S
C58 H77 0.930 . S
C59 C62 1.424 . S
C59 C64 1.245 . S
C59 C65 1.428 . S
C60 C63 1.260 . S
C60 C64 1.477 . S
C60 H78 0.932 . S
C61 C62 1.384 . S
C61 C63 1.479 . S
C61 H79 0.929 . S
C62 C59 1.424 . S
C62 C61 1.384 . S
C62 H80 0.928 . S
C63 C60 1.260 . S
C63 C61 1.479 . S
C64 C59 1.245 . S
C64 C60 1.477 . S
C64 H81 0.932 . S
C65 U48 2.882 . S
C65 C59 1.428 . S
C65 O68 1.301 . S
C65 O69 1.282 . S
O66 U48 2.441 . S
O66 C52 1.249 . S
O67 U48 2.420 . S
O67 C52 1.202 . S
O68 U48 2.455 . S
O68 C65 1.301 . S
O69 U48 2.449 . S
O69 C65 1.282 . S
H70 C43 0.931 . S
H71 C45 0.929 . S
H72 C46 0.930 . S
H73 C47 0.931 1_455 S
H74 C54 0.932 . S
H75 C55 0.930 . S
H76 C56 0.929 . S
H77 C58 0.930 . S
H78 C60 0.932 . S
H79 C61 0.929 . S
H80 C62 0.928 . S
H81 C64 0.932 . S
C82 C83 1.264 . S
C82 C87 1.479 . S
C82 C92 1.465 . S
C83 C82 1.264 . S
C83 C85 1.339 . S
C83 H110 0.931 . S
C84 C85 1.395 . S
C84 C86 1.320 . S
C85 C83 1.339 . S
C85 C84 1.395 . S
C85 H111 0.929 . S
C86 C84 1.320 . S
C86 C87 1.405 . S
C86 H112 0.930 . S
C87 C82 1.479 . S
C87 C86 1.405 . S
C87 H113 0.931 . S
U88 O89 2.454 . S
U88 O90 2.458 . S
U88 C91 2.984 . S
U88 C92 2.847 1_445 S
U88 C105 2.882 . S
U88 O106 2.441 1_445 S
U88 O107 2.420 1_445 S
U88 O108 2.455 . S
U88 O109 2.449 1_545 S
O89 U88 2.454 . S
O89 C91 1.353 . S
O90 U88 2.458 . S
O90 C91 1.286 . S
C91 U88 2.984 . S
C91 O89 1.353 . S
C91 O90 1.286 . S
C91 C93 1.363 . S
C92 C82 1.465 . S
C92 U88 2.847 1_665 S
C92 O106 1.249 . S
C92 O107 1.202 . S
C93 C91 1.363 . S
C93 C95 1.408 . S
C93 C98 1.342 . S
C94 C95 1.310 . S
C94 C97 1.461 . S
C94 H114 0.932 . S
C95 C93 1.408 . S
C95 C94 1.310 . S
C95 H115 0.930 . S
C96 C97 1.474 . S
C96 C98 1.285 . S
C96 H116 0.929 . S
C97 C94 1.461 . S
C97 C96 1.474 . S
C98 C93 1.342 . S
C98 C96 1.285 . S
C98 H117 0.930 . S
C99 C102 1.424 1_445 S
C99 C104 1.245 . S
C99 C105 1.428 . S
C100 C103 1.260 . S
C100 C104 1.477 . S
C100 H118 0.932 . S
C101 C102 1.384 . S
C101 C103 1.479 1_665 S
C101 H119 0.929 . S
C102 C99 1.424 1_665 S
C102 C101 1.384 . S
C102 H120 0.928 . S
C103 C100 1.260 . S
C103 C101 1.479 1_445 S
C104 C99 1.245 . S
C104 C100 1.477 . S
C104 H121 0.932 . S
C105 U88 2.882 . S
C105 C99 1.428 . S
C105 O108 1.301 . S
C105 O109 1.282 1_545 S
O106 U88 2.441 1_665 S
O106 C92 1.249 . S
O107 U88 2.420 1_665 S
O107 C92 1.202 . S
O108 U88 2.455 . S
O108 C105 1.301 . S
O109 U88 2.449 1_565 S
O109 C105 1.282 1_565 S
H110 C83 0.931 . S
H111 C85 0.929 . S
H112 C86 0.930 . S
H113 C87 0.931 . S
H114 C94 0.932 . S
H115 C95 0.930 . S
H116 C96 0.929 . S
H117 C98 0.930 . S
H118 C100 0.932 . S
H119 C101 0.929 . S
H120 C102 0.928 . S
H121 C104 0.932 . S
C122 C123 1.264 . S
C122 C127 1.479 . S
C122 C132 1.465 . S
C123 C122 1.264 . S
C123 C125 1.339 . S
C123 H150 0.931 . S
C124 C125 1.395 . S
C124 C126 1.320 . S
C125 C123 1.339 . S
C125 C124 1.395 . S
C125 H151 0.929 . S
C126 C124 1.320 . S
C126 C127 1.405 . S
C126 H152 0.930 . S
C127 C122 1.479 . S
C127 C126 1.405 . S
C127 H153 0.931 . S
U128 O129 2.454 . S
U128 O130 2.458 . S
U128 C131 2.984 . S
U128 C132 2.847 . S
U128 C145 2.882 . S
U128 O146 2.441 . S
U128 O147 2.420 . S
U128 O148 2.455 . S
U128 O149 2.449 . S
O129 U128 2.454 . S
O129 C131 1.353 . S
O130 U128 2.458 . S
O130 C131 1.286 . S
C131 U128 2.984 . S
C131 O129 1.353 . S
C131 O130 1.286 . S
C131 C133 1.363 . S
C132 C122 1.465 . S
C132 U128 2.847 . S
C132 O146 1.249 . S
C132 O147 1.202 . S
C133 C131 1.363 . S
C133 C135 1.408 . S
C133 C138 1.342 . S
C134 C135 1.310 . S
C134 C137 1.461 . S
C134 H154 0.932 . S
C135 C133 1.408 . S
C135 C134 1.310 . S
C135 H155 0.930 . S
C136 C137 1.474 . S
C136 C138 1.285 . S
C136 H156 0.929 . S
C137 C134 1.461 . S
C137 C136 1.474 . S
C138 C133 1.342 . S
C138 C136 1.285 . S
C138 H157 0.930 . S
C139 C142 1.424 . S
C139 C144 1.245 . S
C139 C145 1.428 . S
C140 C143 1.260 . S
C140 C144 1.477 . S
C140 H158 0.932 . S
C141 C142 1.384 . S
C141 C143 1.479 . S
C141 H159 0.929 . S
C142 C139 1.424 . S
C142 C141 1.384 . S
C142 H160 0.928 . S
C143 C140 1.260 . S
C143 C141 1.479 . S
C144 C139 1.245 . S
C144 C140 1.477 . S
C144 H161 0.932 . S
C145 U128 2.882 . S
C145 C139 1.428 . S
C145 O148 1.301 . S
C145 O149 1.282 . S
O146 U128 2.441 . S
O146 C132 1.249 . S
O147 U128 2.420 . S
O147 C132 1.202 . S
O148 U128 2.455 . S
O148 C145 1.301 . S
O149 U128 2.449 . S
O149 C145 1.282 . S
H150 C123 0.931 . S
H151 C125 0.929 . S
H152 C126 0.930 . S
H153 C127 0.931 . S
H154 C134 0.932 . S
H155 C135 0.930 . S
H156 C136 0.929 . S
H157 C138 0.930 . S
H158 C140 0.932 . S
H159 C141 0.929 . S
H160 C142 0.928 . S
H161 C144 0.932 . S
C162 C163 1.264 . S
C162 C167 1.479 . S
C162 C172 1.465 . S
C163 C162 1.264 . S
C163 C165 1.339 . S
C163 H190 0.931 . S
C164 C165 1.395 . S
C164 C166 1.320 . S
C165 C163 1.339 . S
C165 C164 1.395 . S
C165 H191 0.929 . S
C166 C164 1.320 . S
C166 C167 1.405 . S
C166 H192 0.930 . S
C167 C162 1.479 . S
C167 C166 1.405 . S
C167 H193 0.931 . S
U168 O169 2.454 . S
U168 O170 2.458 . S
U168 C171 2.984 . S
U168 C172 2.847 . S
U168 C185 2.882 . S
U168 O186 2.441 . S
U168 O187 2.420 . S
U168 O188 2.455 . S
U168 O189 2.449 . S
O169 U168 2.454 . S
O169 C171 1.353 . S
O170 U168 2.458 . S
O170 C171 1.286 . S
C171 U168 2.984 . S
C171 O169 1.353 . S
C171 O170 1.286 . S
C171 C173 1.363 . S
C172 C162 1.465 . S
C172 U168 2.847 . S
C172 O186 1.249 . S
C172 O187 1.202 . S
C173 C171 1.363 . S
C173 C175 1.408 . S
C173 C178 1.342 . S
C174 C175 1.310 . S
C174 C177 1.461 . S
C174 H194 0.932 . S
C175 C173 1.408 . S
C175 C174 1.310 . S
C175 H195 0.930 . S
C176 C177 1.474 . S
C176 C178 1.285 . S
C176 H196 0.929 . S
C177 C174 1.461 . S
C177 C176 1.474 . S
C178 C173 1.342 . S
C178 C176 1.285 . S
C178 H197 0.930 . S
C179 C182 1.424 . S
C179 C184 1.245 . S
C179 C185 1.428 . S
C180 C183 1.260 . S
C180 C184 1.477 . S
C180 H198 0.932 . S
C181 C182 1.384 . S
C181 C183 1.479 . S
C181 H199 0.929 . S
C182 C179 1.424 . S
C182 C181 1.384 . S
C182 H200 0.928 . S
C183 C180 1.260 . S
C183 C181 1.479 . S
C184 C179 1.245 . S
C184 C180 1.477 . S
C184 H201 0.932 . S
C185 U168 2.882 . S
C185 C179 1.428 . S
C185 O188 1.301 . S
C185 O189 1.282 . S
O186 U168 2.441 . S
O186 C172 1.249 . S
O187 U168 2.420 . S
O187 C172 1.202 . S
O188 U168 2.455 . S
O188 C185 1.301 . S
O189 U168 2.449 . S
O189 C185 1.282 . S
H190 C163 0.931 . S
H191 C165 0.929 . S
H192 C166 0.930 . S
H193 C167 0.931 . S
H194 C174 0.932 . S
H195 C175 0.930 . S
H196 C176 0.929 . S
H197 C178 0.930 . S
H198 C180 0.932 . S
H199 C181 0.929 . S
H200 C182 0.928 . S
H201 C184 0.932 . S
C202 C203 1.386 . S
C202 C204 1.383 . S
C202 H218 0.951 1_554 S
C203 C202 1.386 . S
C203 C207 1.383 . S
C204 C202 1.383 . S
C204 C205 1.402 . S
C204 H219 0.951 . S
C205 C204 1.402 . S
C205 C206 1.375 . S
C205 C208 1.481 . S
C206 C205 1.375 . S
C206 C207 1.367 . S
C206 H220 0.951 . S
C207 C203 1.383 . S
C207 C206 1.367 . S
C207 H221 0.950 . S
C208 C205 1.481 . S
C208 C209 1.297 . S
C208 H222 0.950 . S
C209 C208 1.297 . S
C209 C210 1.479 . S
C209 H223 0.950 . S
C210 C209 1.479 . S
C210 C211 1.375 . S
C210 C216 1.404 . S
C211 C210 1.375 . S
C211 C212 1.369 . S
C211 H224 0.950 . S
C212 C211 1.369 . S
C212 C213 1.392 . S
C212 H225 0.951 . S
C213 C212 1.392 . S
C213 C215 1.384 . S
H214 C216 0.949 . S
C215 C213 1.384 . S
C215 C216 1.385 . S
C215 H217 0.950 . S
C216 C210 1.404 . S
C216 H214 0.949 . S
C216 C215 1.385 . S
H217 C215 0.950 . S
H218 C202 0.951 1_556 S
H219 C204 0.951 . S
H220 C206 0.951 . S
H221 C207 0.950 . S
H222 C208 0.950 . S
H223 C209 0.950 . S
H224 C211 0.950 . S
H225 C212 0.951 . S
C226 C227 1.386 . S
C226 C228 1.383 . S
C226 H242 0.951 . S
C227 C226 1.386 . S
C227 C231 1.383 1_556 S
C228 C226 1.383 . S
C228 C229 1.402 . S
C228 H243 0.951 . S
C229 C228 1.402 . S
C229 C230 1.375 1_556 S
C229 C232 1.481 . S
C230 C229 1.375 1_554 S
C230 C231 1.367 . S
C230 H244 0.951 . S
C231 C227 1.383 1_554 S
C231 C230 1.367 . S
C231 H245 0.950 . S
C232 C229 1.481 . S
C232 C233 1.297 . S
C232 H246 0.950 1_556 S
C233 C232 1.297 . S
C233 C234 1.479 . S
C233 H247 0.950 . S
C234 C233 1.479 . S
C234 C235 1.375 . S
C234 C240 1.404 . S
C235 C234 1.375 . S
C235 C236 1.369 . S
C235 H248 0.950 . S
C236 C235 1.369 . S
C236 C237 1.392 . S
C236 H249 0.951 . S
C237 C236 1.392 . S
C237 C239 1.384 . S
H238 C240 0.949 1_554 S
C239 C237 1.384 . S
C239 C240 1.385 . S
C239 H241 0.950 1_556 S
C240 C234 1.404 . S
C240 H238 0.949 1_556 S
C240 C239 1.385 . S
H241 C239 0.950 1_554 S
H242 C226 0.951 . S
H243 C228 0.951 . S
H244 C230 0.951 . S
H245 C231 0.950 . S
H246 C232 0.950 1_554 S
H247 C233 0.950 . S
H248 C235 0.950 . S
H249 C236 0.951 . S
C250 C251 1.386 . S
C250 C252 1.383 . S
C250 H266 0.951 1_554 S
C251 C250 1.386 . S
C251 C255 1.383 . S
C252 C250 1.383 . S
C252 C253 1.402 . S
C252 H267 0.981 . S
C253 C252 1.402 . S
C253 C254 1.375 . S
C253 C256 1.481 . S
C254 C253 1.375 . S
C254 C255 1.367 . S
C254 H268 0.951 . S
C255 C251 1.383 . S
C255 C254 1.367 . S
C255 H269 0.950 . S
C256 C253 1.481 . S
C256 C257 1.297 . S
C256 H270 0.950 . S
C257 C256 1.297 . S
C257 C258 1.479 . S
C257 H271 0.950 . S
C258 C257 1.479 . S
C258 C259 1.375 . S
C258 C264 1.404 . S
C259 C258 1.375 . S
C259 C260 1.369 . S
C259 H272 0.950 . S
C260 C259 1.369 . S
C260 C261 1.392 . S
C260 H273 0.951 . S
C261 C260 1.392 . S
C261 C263 1.384 . S
H262 C264 0.949 . S
C263 C261 1.384 . S
C263 C264 1.385 . S
C263 H265 0.950 . S
C264 C258 1.404 . S
C264 H262 0.949 . S
C264 C263 1.385 . S
H265 C263 0.950 . S
H266 C250 0.951 1_556 S
H267 C252 0.981 . S
H268 C254 0.951 . S
H269 C255 0.950 . S
H270 C256 0.950 . S
H271 C257 0.950 . S
H272 C259 0.950 . S
H273 C260 0.951 . S
C274 C275 1.386 1_554 S
C274 C276 1.383 . S
C274 H290 0.951 . S
C275 C274 1.386 1_556 S
C275 C279 1.383 . S
C276 C274 1.383 . S
C276 C277 1.402 1_554 S
C276 H291 0.951 . S
C277 C276 1.402 1_556 S
C277 C278 1.375 . S
C277 C280 1.481 . S
C278 C277 1.375 . S
C278 C279 1.367 . S
C278 H292 0.951 . S
C279 C275 1.383 . S
C279 C278 1.367 . S
C279 H293 0.950 . S
C280 C277 1.481 . S
C280 C281 1.297 . S
C280 H294 0.950 . S
C281 C280 1.297 . S
C281 C282 1.479 . S
C281 H295 0.950 1_556 S
C282 C281 1.479 . S
C282 C283 1.351 1_556 S
C282 C288 1.404 . S
C283 C282 1.351 1_554 S
C283 C284 1.362 1_554 S
C283 H296 0.982 . S
C284 C283 1.362 1_556 S
C284 C285 1.392 . S
C284 H297 0.951 1_556 S
C285 C284 1.392 . S
C285 C287 1.384 . S
H286 C288 0.949 . S
C287 C285 1.384 . S
C287 C288 1.385 . S
C287 H289 0.950 . S
C288 C282 1.404 . S
C288 H286 0.949 . S
C288 C287 1.385 . S
H289 C287 0.950 . S
H290 C274 0.951 . S
H291 C276 0.951 . S
H292 C278 0.951 . S
H293 C279 0.950 . S
H294 C280 0.950 . S
H295 C281 0.950 1_554 S
H296 C283 0.982 . S
H297 C284 0.951 1_554 S
C298 C299 1.386 . S
C298 C300 1.383 . S
C298 H314 0.951 . S
C299 C298 1.386 . S
C299 C303 1.383 . S
C300 C298 1.383 . S
C300 C301 1.402 . S
C300 H315 0.951 . S
C301 C300 1.402 . S
C301 C302 1.375 . S
C301 C304 1.481 . S
C302 C301 1.375 . S
C302 C303 1.367 . S
C302 H316 0.951 . S
C303 C299 1.383 . S
C303 C302 1.367 . S
C303 H317 0.950 . S
C304 C301 1.481 . S
C304 C305 1.297 . S
C304 H318 0.950 . S
C305 C304 1.297 . S
C305 C306 1.479 . S
C305 H319 0.950 . S
C306 C305 1.479 . S
C306 C307 1.375 . S
C306 C312 1.404 . S
C307 C306 1.375 . S
C307 C308 1.369 . S
C307 H320 0.950 . S
C308 C307 1.369 . S
C308 C309 1.392 . S
C308 H321 0.951 . S
C309 C308 1.392 . S
C309 C311 1.384 . S
H310 C312 0.949 . S
C311 C309 1.384 . S
C311 C312 1.385 . S
C311 H313 0.950 . S
C312 C306 1.404 . S
C312 H310 0.949 . S
C312 C311 1.385 . S
H313 C311 0.950 . S
H314 C298 0.951 . S
H315 C300 0.951 . S
H316 C302 0.951 . S
H317 C303 0.950 . S
H318 C304 0.950 . S
H319 C305 0.950 . S
H320 C307 0.950 . S
H321 C308 0.951 . S
C322 C323 1.386 . S
C322 C324 1.383 . S
C322 H338 0.951 . S
C323 C322 1.386 . S
C323 C327 1.383 . S
C324 C322 1.383 . S
C324 C325 1.402 . S
C324 H339 0.951 . S
C325 C324 1.402 . S
C325 C326 1.375 . S
C325 C328 1.481 . S
C326 C325 1.375 . S
C326 C327 1.367 . S
C326 H340 0.951 . S
C327 C323 1.383 . S
C327 C326 1.367 . S
C327 H341 0.950 . S
C328 C325 1.481 . S
C328 C329 1.297 . S
C328 H342 0.950 . S
C329 C328 1.297 . S
C329 C330 1.479 . S
C329 H343 0.950 . S
C330 C329 1.479 . S
C330 C331 1.375 . S
C330 C336 1.404 . S
C331 C330 1.375 . S
C331 C332 1.369 . S
C331 H344 0.950 . S
C332 C331 1.369 . S
C332 C333 1.392 . S
C332 H345 0.951 . S
C333 C332 1.392 . S
C333 C335 1.384 . S
H334 C336 0.949 . S
C335 C333 1.384 . S
C335 C336 1.385 . S
C335 H337 0.950 . S
C336 C330 1.404 . S
C336 H334 0.949 . S
C336 C335 1.385 . S
H337 C335 0.950 . S
H338 C322 0.951 . S
H339 C324 0.951 . S
H340 C326 0.951 . S
H341 C327 0.950 . S
H342 C328 0.950 . S
H343 C329 0.950 . S
H344 C331 0.950 . S
H345 C332 0.951 . S
C346 C347 1.386 . S
C346 C348 1.383 . S
C346 H362 0.951 . S
C347 C346 1.386 . S
C347 C351 1.383 . S
C348 C346 1.383 . S
C348 C349 1.402 . S
C348 H363 0.951 . S
C349 C348 1.402 . S
C349 C350 1.375 . S
C349 C352 1.481 . S
C350 C349 1.375 . S
C350 C351 1.367 . S
C350 H364 0.951 . S
C351 C347 1.383 . S
C351 C350 1.367 . S
C351 H365 0.950 . S
C352 C349 1.481 . S
C352 C353 1.297 . S
C352 H366 0.950 . S
C353 C352 1.297 . S
C353 C354 1.479 . S
C353 H367 0.950 . S
C354 C353 1.479 . S
C354 C355 1.375 . S
C354 C360 1.404 . S
C355 C354 1.375 . S
C355 C356 1.369 . S
C355 H368 0.950 . S
C356 C355 1.369 . S
C356 C357 1.392 . S
C356 H369 0.951 . S
C357 C356 1.392 . S
C357 C359 1.384 . S
H358 C360 0.949 . S
C359 C357 1.384 . S
C359 C360 1.385 . S
C359 H361 0.950 . S
C360 C354 1.404 . S
C360 H358 0.949 . S
C360 C359 1.385 . S
H361 C359 0.950 . S
H362 C346 0.951 . S
H363 C348 0.951 . S
H364 C350 0.951 . S
H365 C351 0.950 . S
H366 C352 0.950 . S
H367 C353 0.950 . S
H368 C355 0.950 . S
H369 C356 0.951 . S
C370 C371 1.386 . S
C370 C372 1.383 . S
C370 H386 0.951 . S
C371 C370 1.386 . S
C371 C375 1.383 . S
C372 C370 1.383 . S
C372 C373 1.402 . S
C372 H387 0.951 . S
C373 C372 1.402 . S
C373 C374 1.375 . S
C373 C376 1.481 . S
C374 C373 1.375 . S
C374 C375 1.367 . S
C374 H388 0.951 . S
C375 C371 1.383 . S
C375 C374 1.367 . S
C375 H389 0.950 . S
C376 C373 1.481 . S
C376 C377 1.297 . S
C376 H390 0.950 . S
C377 C376 1.297 . S
C377 C378 1.479 . S
C377 H391 0.950 . S
C378 C377 1.479 . S
C378 C379 1.375 . S
C378 C384 1.404 . S
C379 C378 1.375 . S
C379 C380 1.369 . S
C379 H392 0.950 . S
C380 C379 1.369 . S
C380 C381 1.392 . S
C380 H393 0.951 . S
C381 C380 1.392 . S
C381 C383 1.384 . S
H382 C384 0.949 . S
C383 C381 1.384 . S
C383 C384 1.385 . S
C383 H385 0.950 . S
C384 C378 1.404 . S
C384 H382 0.949 . S
C384 C383 1.385 . S
H385 C383 0.950 . S
H386 C370 0.951 . S
H387 C372 0.951 . S
H388 C374 0.951 . S
H389 C375 0.950 . S
H390 C376 0.950 . S
H391 C377 0.950 . S
H392 C379 0.950 . S
H393 C380 0.951 . S
C394 C395 1.386 . S
C394 C396 1.383 . S
C394 H410 0.951 . S
C395 C394 1.386 . S
C395 C399 1.383 1_565 S
C396 C394 1.383 . S
C396 C397 1.402 1_565 S
C396 H411 0.951 . S
C397 C396 1.402 1_545 S
C397 C398 1.375 . S
C397 C400 1.481 . S
C398 C397 1.375 . S
C398 C399 1.367 . S
C398 H412 0.951 . S
C399 C395 1.383 1_545 S
C399 C398 1.367 . S
C399 H413 0.950 . S
C400 C397 1.481 . S
C400 C401 1.297 . S
C400 H414 0.950 . S
C401 C400 1.297 . S
C401 C402 1.479 . S
C401 H415 0.950 1_545 S
C402 C401 1.479 . S
C402 C403 1.375 1_545 S
C402 C408 1.404 . S
C403 C402 1.375 1_565 S
C403 C404 1.369 1_565 S
C403 H416 0.950 . S
C404 C403 1.369 1_545 S
C404 C405 1.392 . S
C404 H417 0.951 1_545 S
C405 C404 1.392 . S
C405 C407 1.384 . S
H406 C408 0.949 . S
C407 C405 1.384 . S
C407 C408 1.385 . S
C407 H409 0.950 . S
C408 C402 1.404 . S
C408 H406 0.949 . S
C408 C407 1.385 . S
H409 C407 0.950 . S
H410 C394 0.951 . S
H411 C396 0.951 . S
H412 C398 0.951 . S
H413 C399 0.950 . S
H414 C400 0.950 . S
H415 C401 0.950 1_565 S
H416 C403 0.950 . S
H417 C404 0.951 1_565 S
C418 C419 1.386 1_545 S
C418 C420 1.383 . S
C418 H434 0.951 . S
C419 C418 1.386 1_565 S
C419 C423 1.383 . S
C420 C418 1.383 . S
C420 C421 1.402 1_545 S
C420 H435 0.951 . S
C421 C420 1.402 1_565 S
C421 C422 1.383 . S
C421 C424 1.481 . S
C422 C421 1.383 . S
C422 C423 1.367 . S
C422 H436 0.943 1_455 S
C423 C419 1.383 . S
C423 C422 1.367 . S
C423 H437 0.950 1_455 S
C424 C421 1.481 . S
C424 C425 1.297 1_565 S
C424 H438 0.950 1_455 S
C425 C424 1.297 1_545 S
C425 C426 1.479 . S
C425 H439 0.950 . S
C426 C425 1.479 . S
C426 C427 1.375 . S
C426 C432 1.404 1_545 S
C427 C426 1.375 . S
C427 C428 1.369 . S
C427 H440 0.950 . S
C428 C427 1.369 . S
C428 C429 1.392 . S
C428 H441 0.951 . S
C429 C428 1.392 . S
C429 C431 1.384 1_445 S
H430 C432 0.949 1_655 S
C431 C429 1.384 1_665 S
C431 C432 1.385 1_655 S
C431 H433 0.950 . S
C432 C426 1.404 1_565 S
C432 H430 0.949 1_455 S
C432 C431 1.385 1_455 S
H433 C431 0.950 . S
H434 C418 0.951 . S
H435 C420 0.951 . S
H436 C422 0.943 1_655 S
H437 C423 0.950 1_655 S
H438 C424 0.950 1_655 S
H439 C425 0.950 . S
H440 C427 0.950 . S
H441 C428 0.951 . S
C442 C443 1.386 . S
C442 C444 1.383 . S
C442 H458 0.951 . S
C443 C442 1.386 . S
C443 C447 1.383 . S
C444 C442 1.383 . S
C444 C445 1.402 . S
C444 H459 0.951 . S
C445 C444 1.402 . S
C445 C446 1.375 . S
C445 C448 1.481 . S
C446 C445 1.375 . S
C446 C447 1.367 . S
C446 H460 0.951 . S
C447 C443 1.383 . S
C447 C446 1.367 . S
C447 H461 0.950 . S
C448 C445 1.481 . S
C448 C449 1.297 . S
C448 H462 0.950 . S
C449 C448 1.297 . S
C449 C450 1.479 . S
C449 H463 0.950 . S
C450 C449 1.479 . S
C450 C451 1.375 . S
C450 C456 1.404 . S
C451 C450 1.375 . S
C451 C452 1.369 . S
C451 H464 0.950 . S
C452 C451 1.369 . S
C452 C453 1.392 . S
C452 H465 0.951 . S
C453 C452 1.392 . S
C453 C455 1.384 . S
H454 C456 0.949 . S
C455 C453 1.384 . S
C455 C456 1.385 . S
C455 H457 0.950 . S
C456 C450 1.404 . S
C456 H454 0.949 . S
C456 C455 1.385 . S
H457 C455 0.950 . S
H458 C442 0.951 . S
H459 C444 0.951 . S
H460 C446 0.951 . S
H461 C447 0.950 . S
H462 C448 0.950 . S
H463 C449 0.950 . S
H464 C451 0.950 . S
H465 C452 0.951 . S
C466 C467 1.386 . S
C466 C468 1.383 . S
C466 H482 0.951 . S
C467 C466 1.386 . S
C467 C471 1.383 . S
C468 C466 1.383 . S
C468 C469 1.402 . S
C468 H483 0.951 . S
C469 C468 1.402 . S
C469 C470 1.375 . S
C469 C472 1.481 . S
C470 C469 1.375 . S
C470 C471 1.367 . S
C470 H484 0.951 . S
C471 C467 1.383 . S
C471 C470 1.367 . S
C471 H485 0.950 . S
C472 C469 1.481 . S
C472 C473 1.297 . S
C472 H486 0.950 . S
C473 C472 1.297 . S
C473 C474 1.479 . S
C473 H487 0.950 . S
C474 C473 1.479 . S
C474 C475 1.375 . S
C474 C480 1.404 . S
C475 C474 1.375 . S
C475 C476 1.369 . S
C475 H488 0.950 . S
C476 C475 1.369 . S
C476 C477 1.392 . S
C476 H489 0.951 . S
C477 C476 1.392 . S
C477 C479 1.384 . S
H478 C480 0.949 . S
C479 C477 1.384 . S
C479 C480 1.385 . S
C479 H481 0.950 . S
C480 C474 1.404 . S
C480 H478 0.949 . S
C480 C479 1.385 . S
H481 C479 0.950 . S
H482 C466 0.951 . S
H483 C468 0.951 . S
H484 C470 0.951 . S
H485 C471 0.950 . S
H486 C472 0.950 . S
H487 C473 0.950 . S
H488 C475 0.950 . S
H489 C476 0.951 . S
C213 C164 1.195 . S
C203 C3 1.062 . S
C227 C4 1.485 1_556 S
C237 C124 1.626 . S
C251 C19 1.585 . S
C261 C177 1.654 . S
C275 C7 1.112 . S
C285 C137 1.204 . S
C299 C37 1.089 . S
C309 C84 1.146 . S
C323 C28 1.544 . S
C333 C44 1.657 . S
C357 C97 1.630 . S
C347 C41 1.585 . S
C381 C57 1.227 . S
C371 C25 1.150 . S
C395 C20 1.251 . S
C405 C63 1.421 . S
C419 C16 1.355 . S
C429 C103 1.423 . S
C453 C143 1.438 . S
C443 C40 1.279 . S
C467 C24 1.337 . S
C477 C183 1.418 . S
