# Generated by pormake.
# Topology pth, (4,4)-cn, num edge types: 1
# Building blocks:
#     Node 0, Type 0, BuildingBlock: KUFVIS_clean_sbu_0, # of connection points: 4
#     Node 1, Type 0, BuildingBlock: KUFVIS_clean_sbu_0, # of connection points: 4
#     Node 2, Type 0, BuildingBlock: KUFVIS_clean_sbu_0, # of connection points: 4
#     Node 3, Type 1, BuildingBlock: MUDLON_clean_sbu_0, # of connection points: 4
#     Node 4, Type 1, BuildingBlock: MUDLON_clean_sbu_0, # of connection points: 4
#     Node 5, Type 1, BuildingBlock: MUDLON_clean_sbu_0, # of connection points: 4
#     Edge 6, Type (0, 1), BuildingBlock: CIFDUS_clean_linker_0, # of connection points: 2
#     Edge 7, Type (0, 1), BuildingBlock: CIFDUS_clean_linker_0, # of connection points: 2
#     Edge 8, Type (0, 1), BuildingBlock: CIFDUS_clean_linker_0, # of connection points: 2
#     Edge 9, Type (0, 1), BuildingBlock: CIFDUS_clean_linker_0, # of connection points: 2
#     Edge 10, Type (0, 1), BuildingBlock: CIFDUS_clean_linker_0, # of connection points: 2
#     Edge 11, Type (0, 1), BuildingBlock: CIFDUS_clean_linker_0, # of connection points: 2
#     Edge 12, Type (0, 1), BuildingBlock: CIFDUS_clean_linker_0, # of connection points: 2
#     Edge 13, Type (0, 1), BuildingBlock: CIFDUS_clean_linker_0, # of connection points: 2
#     Edge 14, Type (0, 1), BuildingBlock: CIFDUS_clean_linker_0, # of connection points: 2
#     Edge 15, Type (0, 1), BuildingBlock: CIFDUS_clean_linker_0, # of connection points: 2
#     Edge 16, Type (0, 1), BuildingBlock: CIFDUS_clean_linker_0, # of connection points: 2
#     Edge 17, Type (0, 1), BuildingBlock: CIFDUS_clean_linker_0, # of connection points: 2
# Relax obj value: 0.022
# Max RMSD: 0.096
# Mean RMSD: 0.069
data_MOF--net-pth--node1-KUFVIS_clean_sbu_0--node2-MUDLON_clean_sbu_0--edge1-CIFDUS_clean_linker_0
_symmetry_space_group_name_H-M    P1
_symmetry_Int_Tables_number       1
_symmetry_cell_setting            triclinic
loop_
_symmetry_equiv_pos_as_xyz
'x, y, z'
_cell_length_a     19.449778
_cell_length_b     19.506164
_cell_length_c     53.048282
_cell_angle_alpha  90.550595
_cell_angle_beta   91.567663
_cell_angle_gamma 119.7303
loop_
_atom_site_label
_atom_site_type_symbol
_atom_site_fract_x
_atom_site_fract_y
_atom_site_fract_z
_atom_type_partial_charge
Mn0 Mn 0.07636 0.14053 0.08808 0.0
Mn1 Mn 1.00034 0.22336 0.04861 0.0
C2 C 0.99848 0.07038 0.05302 0.0
C3 C 0.06831 0.06669 0.12345 0.0
C4 C 0.17277 0.26384 0.04919 0.0
O5 O 0.08376 0.23135 0.10951 0.0
O6 O 0.02817 0.27941 0.08222 0.0
C7 C 0.85274 0.18102 0.07506 0.0
N8 N 0.88943 0.17869 0.05382 0.0
C9 C 0.76435 0.10411 0.031 0.0
C10 C 0.72534 0.10623 0.05258 0.0
C11 C 0.76975 0.14473 0.07471 0.0
C12 C 0.84723 0.14171 0.03242 0.0
H13 H 0.88646 0.21015 0.09217 0.0
C14 C 0.05815 0.27862 0.10401 0.0
O15 O 0.13609 0.11538 0.11418 0.0
O16 O 1.00578 0.06283 0.11263 0.0
N17 N 0.96867 0.17349 0.01578 0.0
C18 C 1.01485 0.17332 0.99696 0.0
C19 C 0.97933 0.13532 0.97374 0.0
C20 C 0.89672 0.09831 0.97003 0.0
C21 C 0.85041 0.10001 0.98956 0.0
C22 C 0.88922 0.13935 0.01223 0.0
H23 H 0.07818 0.20141 0.9997 0.0
O24 O 0.04841 0.05192 0.06319 0.0
O25 O 0.99649 0.12985 0.0634 0.0
O26 O 0.16797 0.21783 0.06678 0.0
O27 O 0.11444 0.27146 0.04114 0.0
C28 C 0.76714 0.0629 0.98757 0.0
C29 C 0.72414 0.06487 1.00829 0.0
H30 H 0.66131 0.07791 0.05243 0.0
H31 H 0.74005 0.14625 0.09149 0.0
H32 H 1.01552 0.13422 0.95877 0.0
H33 H 0.86944 0.06829 0.9522 0.0
H34 H 0.73551 0.03175 0.97032 0.0
H35 H 0.66006 0.03522 1.00664 0.0
Mn36 Mn 0.04963 0.12546 0.4251 0.0
Mn37 Mn 0.14542 0.29701 0.45889 0.0
C38 C 0.14151 0.14127 0.45658 0.0
C39 C 0.04333 0.05336 0.38882 0.0
C40 C 0.97385 0.17057 0.46705 0.0
O41 O 0.02968 0.20131 0.40434 0.0
O42 O 0.10759 0.316 0.42569 0.0
C43 C 0.28301 0.38363 0.42661 0.0
N44 N 0.25355 0.35529 0.44958 0.0
C45 C 0.38482 0.4084 0.46824 0.0
C46 C 0.41654 0.4391 0.44487 0.0
C47 C 0.36538 0.4264 0.42395 0.0
C48 C 0.30223 0.36663 0.46979 0.0
H49 H 0.24398 0.37335 0.41041 0.0
C50 C 0.06249 0.27631 0.40672 0.0
O51 O 0.98022 0.03464 0.40138 0.0
O52 O 0.10891 0.11348 0.39729 0.0
N53 N 0.18696 0.28843 0.49115 0.0
C54 C 0.14712 0.25053 0.51194 0.0
C55 C 0.18974 0.25546 0.53433 0.0
C56 C 0.27287 0.29935 0.53515 0.0
C57 C 0.31263 0.3381 0.51357 0.0
C58 C 0.26696 0.33184 0.49187 0.0
H59 H 0.08342 0.21565 0.51135 0.0
O60 O 0.08895 0.07122 0.4483 0.0
O61 O 0.13956 0.19997 0.44588 0.0
O62 O 0.97041 0.11934 0.4511 0.0
O63 O 0.03488 0.23927 0.47042 0.0
C64 C 0.39584 0.38126 0.51259 0.0
C65 C 0.43191 0.41625 0.48993 0.0
H66 H 0.48005 0.47171 0.44271 0.0
H67 H 0.3894 0.44927 0.40579 0.0
H68 H 0.15861 0.22484 0.55084 0.0
H69 H 0.30557 0.30209 0.55235 0.0
H70 H 0.43266 0.38686 0.52905 0.0
H71 H 0.49594 0.44826 0.4893 0.0
Mn72 Mn 0.09339 0.12255 0.76029 0.0
Mn73 Mn 1.00744 0.22245 0.78334 0.0
C74 C 0.1581 0.21947 0.79189 0.0
C75 C 0.16968 0.10578 0.73005 0.0
C76 C 0.95469 0.0511 0.79526 0.0
O77 O 1.00646 0.10272 0.73371 0.0
O78 O 0.96732 0.18675 0.74815 0.0
C79 C 0.07689 0.36138 0.75063 0.0
N80 N 0.06426 0.33069 0.77411 0.0
C81 C 0.13634 0.46039 0.79364 0.0
C82 C 0.14946 0.4934 0.76967 0.0
C83 C 0.11983 0.44364 0.74808 0.0
C84 C 0.09312 0.37799 0.795 0.0
H85 H 0.05467 0.32335 0.73398 0.0
C86 C 0.96733 0.13935 0.73126 0.0
O87 O 0.11825 0.04692 0.74271 0.0
O88 O 0.17641 0.17434 0.73484 0.0
N89 N 0.04261 0.26154 0.81723 0.0
C90 C 0.02803 0.22029 0.83889 0.0
C91 C 0.0549 0.26134 0.86219 0.0
C92 C 0.09595 0.34429 0.86301 0.0
C93 C 0.10982 0.38548 0.84049 0.0
C94 C 0.08103 0.34139 0.81785 0.0
H95 H 0.99614 0.15656 0.83845 0.0
O96 O 0.17818 0.1659 0.78816 0.0
O97 O 0.10178 0.2144 0.77703 0.0
O98 O 1.01093 0.04813 0.78452 0.0
O99 O 0.94543 0.11164 0.79458 0.0
C100 C 0.15227 0.46852 0.83961 0.0
C101 C 0.16577 0.50595 0.81619 0.0
H102 H 0.18283 0.55681 0.76762 0.0
H103 H 0.1302 0.46865 0.72952 0.0
H104 H 0.0441 0.22913 0.87949 0.0
H105 H 0.11723 0.37573 0.881 0.0
H106 H 0.1758 0.50414 0.8568 0.0
H107 H 0.19954 0.56979 0.81572 0.0
Mg108 Mg 0.06815 0.65085 0.2563 0.0
C109 C 0.06671 0.55462 0.29634 0.0
O110 O 0.99564 0.52241 0.28543 0.0
C111 C 0.07573 0.76178 0.22112 0.0
O112 O 1.00163 0.7071 0.22397 0.0
C113 C 0.0732 0.52515 0.22743 0.0
O114 O 0.13562 0.55433 0.24292 0.0
O115 O 0.0258 0.55243 0.22877 0.0
O116 O 0.12109 0.61893 0.28765 0.0
O117 O 0.99326 0.68399 0.2774 0.0
C118 C 0.04177 0.75042 0.28795 0.0
O119 O 0.11779 0.77936 0.28447 0.0
O120 O 0.12972 0.75502 0.2331 0.0
Mg121 Mg 0.54949 0.10168 0.58718 0.0
C122 C 0.42193 0.10149 0.55993 0.0
O123 O 0.39563 0.0343 0.57153 0.0
C124 C 0.68046 0.12041 0.61802 0.0
O125 O 0.63538 0.04502 0.61216 0.0
C126 C 0.47551 0.13181 0.6271 0.0
O127 O 0.52885 0.19769 0.61712 0.0
O128 O 0.46762 0.06693 0.61839 0.0
O129 O 0.49577 0.15162 0.56193 0.0
O130 O 0.57902 0.02811 0.56346 0.0
C131 C 0.57214 0.02661 0.53949 0.0
O132 O 0.52409 0.04788 0.52889 0.0
O133 O 0.66123 0.16907 0.60882 0.0
Mg134 Mg 0.57798 0.63132 0.92136 0.0
C135 C 0.44727 0.58489 0.88214 0.0
O136 O 0.50702 0.631 0.86827 0.0
C137 C 0.71185 0.74832 0.94991 0.0
O138 O 0.73263 0.70257 0.93794 0.0
C139 C 0.5405 0.5297 0.96586 0.0
O140 O 0.57021 0.60001 0.97666 0.0
O141 O 0.55039 0.52527 0.94234 0.0
O142 O 0.45819 0.58883 0.906 0.0
O143 O 0.65376 0.67668 0.88892 0.0
C144 C 0.71197 0.6731 0.88004 0.0
O145 O 0.73503 0.62632 0.89018 0.0
O146 O 0.63993 0.73235 0.94768 0.0
H147 H 0.10314 0.28739 0.15372 0.0
H148 H 1.00724 0.38666 0.10031 0.0
H149 H 0.99599 0.46598 0.13402 0.0
H150 H 1.01586 0.50985 0.17886 0.0
H151 H 0.11591 0.41336 0.23158 0.0
H152 H 0.12144 0.32955 0.19817 0.0
C153 C 0.08022 0.32666 0.14934 0.0
C154 C 0.05669 0.33105 0.12435 0.0
C155 C 0.07352 0.3721 0.16885 0.0
C156 C 0.0265 0.38213 0.11926 0.0
C157 C 1.01953 0.42738 0.1386 0.0
C158 C 0.03742 0.46934 0.18304 0.0
C159 C 0.0648 0.46725 0.20767 0.0
C160 C 0.04271 0.42282 0.1635 0.0
C161 C 0.09422 0.41576 0.21276 0.0
C162 C 0.09785 0.36814 0.19364 0.0
H163 H 0.81853 0.05398 0.45919 0.0
H164 H 0.9752 0.23936 0.51216 0.0
H165 H 0.86703 0.20295 0.54045 0.0
H166 H 0.72702 0.12302 0.54974 0.0
H167 H 0.5645 0.95002 0.49502 0.0
H168 H 0.6753 0.97603 0.46802 0.0
C169 C 0.82899 0.08619 0.47696 0.0
C170 C 0.90562 0.14876 0.48356 0.0
C171 C 0.76532 0.06675 0.49294 0.0
C172 C 0.91749 0.19059 0.50653 0.0
C173 C 0.85549 0.1698 0.52282 0.0
C174 C 0.71616 0.08983 0.53214 0.0
C175 C 0.63824 0.03316 0.52463 0.0
C176 C 0.77923 0.10828 0.51622 0.0
C177 C 0.62435 0.99276 0.50135 0.0
C178 C 0.68759 1.00814 0.48588 0.0
H179 H 0.96616 0.92112 0.80801 0.0
H180 H 0.81608 0.02483 0.81544 0.0
H181 H 0.72572 0.91433 0.84053 0.0
H182 H 0.69177 0.79183 0.86182 0.0
H183 H 0.84322 0.68932 0.85635 0.0
H184 H 0.92988 0.79539 0.82874 0.0
C185 C 0.91344 0.91943 0.81496 0.0
C186 C 0.89835 0.98176 0.80977 0.0
C187 C 0.86181 0.85585 0.82972 0.0
C188 C 0.82972 0.97826 0.81912 0.0
C189 C 0.77778 0.9149 0.83348 0.0
C190 C 0.74329 0.79191 0.85446 0.0
C191 C 0.76078 0.73233 0.86124 0.0
C192 C 0.7936 0.85383 0.83908 0.0
C193 C 0.82811 0.73414 0.85148 0.0
C194 C 0.87789 0.79503 0.83575 0.0
H195 H 0.18426 0.04274 0.14503 0.0
H196 H 0.93593 0.97071 0.1485 0.0
H197 H 0.91857 0.87351 0.17977 0.0
H198 H 0.97077 0.80378 0.20415 0.0
H199 H 0.21782 0.8714 0.2014 0.0
H200 H 0.23904 0.97609 0.17193 0.0
C201 C 0.1266 1.00632 0.15286 0.0
C202 C 0.06133 0.01375 0.14428 0.0
C203 C 0.11668 0.9495 0.17079 0.0
C204 C 0.98704 0.96607 0.1546 0.0
C205 C 0.97697 0.9103 0.17249 0.0
C206 C 0.02952 0.84133 0.19719 0.0
C207 C 0.09246 0.82909 0.20472 0.0
C208 C 0.04092 0.9006 0.18035 0.0
C209 C 0.16831 0.87936 0.19581 0.0
C210 C 0.18032 0.93905 0.17893 0.0
H211 H 0.12448 0.07702 0.502 0.0
H212 H 0.30029 0.22235 0.44963 0.0
H213 H 0.40589 0.23003 0.47805 0.0
H214 H 0.4468 0.18864 0.51725 0.0
H215 H 0.26743 0.04151 0.56879 0.0
H216 H 0.16522 0.04307 0.54177 0.0
C217 C 0.18611 0.11099 0.49704 0.0
C218 C 0.20531 0.1508 0.47428 0.0
C219 C 0.24589 0.11507 0.51342 0.0
C220 C 0.28484 0.19315 0.46754 0.0
C221 C 0.34498 0.19715 0.48369 0.0
C222 C 0.38553 0.1582 0.52268 0.0
C223 C 0.3646 0.11449 0.54486 0.0
C224 C 0.32621 0.15795 0.5067 0.0
C225 C 0.28491 0.07485 0.55165 0.0
C226 C 0.22626 0.07544 0.53619 0.0
H227 H 0.19633 0.24119 0.8424 0.0
H228 H 0.24082 0.36293 0.77223 0.0
H229 H 0.33007 0.48846 0.79409 0.0
H230 H 0.39736 0.56328 0.83299 0.0
H231 H 0.34772 0.44415 0.90389 0.0
H232 H 0.25647 0.31896 0.88219 0.0
C233 C 0.22575 0.29543 0.83205 0.0
C234 C 0.21194 0.29349 0.80587 0.0
C235 C 0.27515 0.36799 0.84491 0.0
C236 C 0.25037 0.36362 0.79247 0.0
C237 C 0.30118 0.43529 0.80495 0.0
C238 C 0.36569 0.51018 0.84377 0.0
C239 C 0.37978 0.51331 0.87001 0.0
C240 C 0.31381 0.43828 0.83117 0.0
C241 C 0.33778 0.44384 0.88368 0.0
C242 C 0.28635 0.37185 0.87125 0.0
H243 H 0.91551 0.23632 0.71294 0.0
H244 H 0.91371 0.01835 0.69609 0.0
H245 H 0.83034 0.9976 0.65826 0.0
H246 H 0.7516 0.03702 0.63161 0.0
H247 H 0.75355 0.25505 0.64806 0.0
H248 H 0.845 0.28106 0.68428 0.0
C249 C 0.89709 0.18424 0.701 0.0
C250 C 0.92004 0.12831 0.70759 0.0
C251 C 0.84966 0.17302 0.67919 0.0
C252 C 0.89668 0.06205 0.69159 0.0
C253 C 0.84897 0.05017 0.66995 0.0
C254 C 0.77263 0.09074 0.64296 0.0
C255 C 0.74527 0.14377 0.63729 0.0
C256 C 0.82428 0.10469 0.6638 0.0
C257 C 0.77385 0.21347 0.65197 0.0
C258 C 0.82559 0.22795 0.67279 0.0
H259 H 1.01603 1.00901 1.00949 0.0
H260 H 0.84015 1.00352 0.05821 0.0
H261 H 0.73394 0.90702 0.02976 0.0
H262 H 0.69138 0.82084 0.99129 0.0
H263 H 0.86949 0.82536 0.94349 0.0
H264 H 0.974 0.92638 0.97079 0.0
C265 C 0.95434 0.98682 0.01367 0.0
C266 C 0.93543 0.01449 0.03535 0.0
C267 C 0.89393 0.93143 0.99729 0.0
C268 C 0.85562 0.98435 0.0411 0.0
C269 C 0.79502 0.929 0.02493 0.0
C270 C 0.75303 0.84475 0.98677 0.0
C271 C 0.77263 0.81536 0.96551 0.0
C272 C 0.81341 0.90204 1.00291 0.0
C273 C 0.85283 0.84647 0.95991 0.0
C274 C 0.91279 0.90419 0.97552 0.0
H275 H 0.93488 0.90062 0.37385 0.0
H276 H 0.15189 0.1057 0.35286 0.0
H277 H 0.16401 0.03127 0.31797 0.0
H278 H 0.12147 0.90658 0.29603 0.0
H279 H 0.90883 0.69715 0.31668 0.0
H280 H 0.88538 0.7747 0.34874 0.0
C281 C 0.98403 0.92902 0.36137 0.0
C282 C 0.04293 1.00841 0.36613 0.0
C283 C 0.99161 0.88509 0.34139 0.0
C284 C 0.10635 0.04453 0.34984 0.0
C285 C 0.11335 1.00205 0.32983 0.0
C286 C 0.06942 0.87776 0.30737 0.0
C287 C 1.01753 0.79614 0.30426 0.0
C288 C 0.05764 0.92203 0.32588 0.0
C289 C 0.94966 0.76001 0.31875 0.0
C290 C 0.93669 0.80428 0.33719 0.0
H291 H 0.29146 0.22042 0.70519 0.0
H292 H 0.15939 0.96776 0.71276 0.0
H293 H 0.24207 0.9519 0.68181 0.0
H294 H 0.35278 1.01089 0.65212 0.0
H295 H 0.48391 0.26481 0.64623 0.0
H296 H 0.4012 0.2785 0.67681 0.0
C297 C 0.28054 0.16179 0.70007 0.0
C298 C 0.21918 0.09551 0.71123 0.0
C299 C 0.32853 0.15315 0.68248 0.0
C300 C 0.20629 0.01997 0.70444 0.0
C301 C 0.2536 1.01081 0.68673 0.0
C302 C 0.36332 0.06907 0.65764 0.0
C303 C 0.42475 0.13649 0.64674 0.0
C304 C 0.31512 0.0771 0.67557 0.0
C305 C 0.43734 0.21153 0.65416 0.0
C306 C 0.38989 0.21975 0.67172 0.0
H307 H 0.21439 0.25513 1.00121 0.0
H308 H 0.30579 0.38046 0.07241 0.0
H309 H 0.43277 0.46864 0.05356 0.0
H310 H 0.51295 0.51677 0.01596 0.0
H311 H 0.42186 0.3907 0.94465 0.0
H312 H 0.30039 0.29494 0.96449 0.0
C313 C 0.26214 0.30178 0.01252 0.0
C314 C 0.25059 0.31265 0.03799 0.0
C315 C 0.33514 0.35157 1.00158 0.0
C316 C 0.3135 0.37171 0.05271 0.0
C317 C 0.38594 0.42196 0.04193 0.0
C318 C 0.46723 0.46744 1.00483 0.0
C319 C 0.47653 0.46147 0.97878 0.0
C320 C 0.39692 0.41333 0.01628 0.0
C321 C 0.41674 0.39677 0.96473 0.0
C322 C 0.34672 0.34238 0.97602 0.0
H323 H 0.15942 0.42987 0.39408 0.0
H324 H 0.94021 0.21991 0.37186 0.0
H325 H 0.92342 0.28793 0.33594 0.0
H326 H 0.97105 0.40526 0.31057 0.0
H327 H 0.19254 0.61463 0.33092 0.0
H328 H 0.20898 0.5481 0.36775 0.0
C329 C 0.1077 0.39918 0.38148 0.0
C330 C 0.0509 0.31985 0.38578 0.0
C331 C 0.09924 0.43822 0.36044 0.0
C332 C 0.98479 0.28079 0.36905 0.0
C333 C 0.97518 0.31963 0.34846 0.0
C334 C 0.02306 0.43667 0.32304 0.0
C335 C 0.08037 0.51501 0.31806 0.0
C336 C 0.03216 0.39804 0.34392 0.0
C337 C 0.14768 0.55427 0.33429 0.0
C338 C 0.15685 0.51633 0.35539 0.0
loop_
_geom_bond_atom_site_label_1
_geom_bond_atom_site_label_2
_geom_bond_distance
_geom_bond_site_symmetry_2
_ccdc_geom_bond_type
Mn0 O5 2.095 . S
Mn0 O15 2.162 . S
Mn0 O16 2.297 . S
Mn0 O24 2.385 . S
Mn0 O25 2.209 1_455 S
Mn0 O26 2.094 . S
Mn1 O6 2.121 . S
Mn1 N8 2.257 1_455 S
Mn1 N17 2.282 1_455 S
Mn1 O25 2.215 1_455 S
Mn1 O27 2.117 . S
C2 O24 1.234 1_655 S
C2 O25 1.283 . S
C3 O15 1.281 . S
C3 O16 1.236 . S
C4 O26 1.240 . S
C4 O27 1.264 . S
O5 Mn0 2.095 . S
O5 C14 1.250 . S
O6 Mn1 2.121 . S
O6 C14 1.258 . S
C7 N8 1.326 . S
C7 C11 1.460 . S
C7 H13 0.929 . S
N8 Mn1 2.257 1_655 S
N8 C7 1.326 . S
N8 C12 1.362 . S
C9 C10 1.258 . S
C9 C12 1.431 . S
C9 C29 1.449 1_554 S
C10 C9 1.258 . S
C10 C11 1.477 . S
C10 H30 0.931 . S
C11 C7 1.460 . S
C11 C10 1.477 . S
C11 H31 0.930 . S
C12 N8 1.362 . S
C12 C9 1.431 . S
C12 C22 1.497 . S
H13 C7 0.929 . S
C14 O5 1.250 . S
C14 O6 1.258 . S
O15 Mn0 2.162 . S
O15 C3 1.281 . S
O16 Mn0 2.297 . S
O16 C3 1.236 . S
N17 Mn1 2.282 1_655 S
N17 C18 1.328 1_654 S
N17 C22 1.325 . S
C18 N17 1.328 1_456 S
C18 C19 1.457 1_455 S
C18 H23 0.929 . S
C19 C18 1.457 1_655 S
C19 C20 1.291 . S
C19 H32 0.931 1_655 S
C20 C19 1.291 . S
C20 C21 1.373 . S
C20 H33 0.929 . S
C21 C20 1.373 . S
C21 C22 1.370 1_556 S
C21 C28 1.403 . S
C22 C12 1.497 . S
C22 N17 1.325 . S
C22 C21 1.370 1_554 S
H23 C18 0.929 . S
O24 Mn0 2.385 . S
O24 C2 1.234 1_455 S
O25 Mn0 2.209 1_655 S
O25 Mn1 2.215 1_655 S
O25 C2 1.283 . S
O26 Mn0 2.094 . S
O26 C4 1.240 . S
O27 Mn1 2.117 . S
O27 C4 1.264 . S
C28 C21 1.403 . S
C28 C29 1.399 . S
C28 H34 0.929 . S
C29 C9 1.449 1_556 S
C29 C28 1.399 . S
C29 H35 0.930 . S
H30 C10 0.931 . S
H31 C11 0.930 . S
H32 C19 0.931 1_455 S
H33 C20 0.929 . S
H34 C28 0.929 . S
H35 C29 0.930 . S
Mn36 O41 2.095 1_455 S
Mn36 O51 2.162 1_445 S
Mn36 O52 2.297 . S
Mn36 O60 2.385 . S
Mn36 O61 2.209 . S
Mn36 O62 2.094 1_455 S
Mn37 O42 2.121 . S
Mn37 N44 2.257 . S
Mn37 N53 2.282 . S
Mn37 O61 2.215 . S
Mn37 O63 2.117 1_455 S
C38 O60 1.234 . S
C38 O61 1.283 . S
C39 O51 1.281 1_455 S
C39 O52 1.236 1_565 S
C40 O62 1.240 . S
C40 O63 1.264 . S
O41 Mn36 2.095 1_655 S
O41 C50 1.250 1_655 S
O42 Mn37 2.121 . S
O42 C50 1.258 . S
C43 N44 1.326 . S
C43 C47 1.460 . S
C43 H49 0.929 . S
N44 Mn37 2.257 . S
N44 C43 1.326 . S
N44 C48 1.362 . S
C45 C46 1.258 . S
C45 C48 1.431 . S
C45 C65 1.449 . S
C46 C45 1.258 . S
C46 C47 1.477 . S
C46 H66 0.931 . S
C47 C43 1.460 . S
C47 C46 1.477 . S
C47 H67 0.930 . S
C48 N44 1.362 . S
C48 C45 1.431 . S
C48 C58 1.476 . S
H49 C43 0.929 . S
C50 O41 1.250 1_455 S
C50 O42 1.258 . S
O51 Mn36 2.162 1_665 S
O51 C39 1.281 1_655 S
O52 Mn36 2.297 . S
O52 C39 1.236 1_545 S
N53 Mn37 2.282 . S
N53 C54 1.328 . S
N53 C58 1.318 . S
C54 N53 1.328 . S
C54 C55 1.457 . S
C54 H59 0.929 . S
C55 C54 1.457 . S
C55 C56 1.291 . S
C55 H68 0.931 . S
C56 C55 1.291 . S
C56 C57 1.373 . S
C56 H69 0.929 . S
C57 C56 1.373 . S
C57 C58 1.396 . S
C57 C64 1.403 . S
C58 C48 1.476 . S
C58 N53 1.318 . S
C58 C57 1.396 . S
H59 C54 0.929 . S
O60 Mn36 2.385 . S
O60 C38 1.234 . S
O61 Mn36 2.209 . S
O61 Mn37 2.215 . S
O61 C38 1.283 . S
O62 Mn36 2.094 1_655 S
O62 C40 1.240 . S
O63 Mn37 2.117 1_655 S
O63 C40 1.264 . S
C64 C57 1.403 . S
C64 C65 1.399 . S
C64 H70 0.929 . S
C65 C45 1.449 . S
C65 C64 1.399 . S
C65 H71 0.930 . S
H66 C46 0.931 . S
H67 C47 0.930 . S
H68 C55 0.931 . S
H69 C56 0.929 . S
H70 C64 0.929 . S
H71 C65 0.930 . S
Mn72 O77 2.095 1_455 S
Mn72 O87 2.162 . S
Mn72 O88 2.297 . S
Mn72 O96 2.385 . S
Mn72 O97 2.209 . S
Mn72 O98 2.094 1_455 S
Mn73 O78 2.121 . S
Mn73 N80 2.257 1_655 S
Mn73 N89 2.282 1_655 S
Mn73 O97 2.215 1_655 S
Mn73 O99 2.117 . S
C74 O96 1.234 . S
C74 O97 1.283 . S
C75 O87 1.281 . S
C75 O88 1.236 . S
C76 O98 1.240 . S
C76 O99 1.264 . S
O77 Mn72 2.095 1_655 S
O77 C86 1.250 . S
O78 Mn73 2.121 . S
O78 C86 1.258 . S
C79 N80 1.326 1_655 S
C79 C83 1.460 1_655 S
C79 H85 0.929 . S
N80 Mn73 2.257 1_455 S
N80 C79 1.326 1_455 S
N80 C84 1.362 . S
C81 C82 1.258 . S
C81 C84 1.431 . S
C81 C101 1.449 . S
C82 C81 1.258 . S
C82 C83 1.477 . S
C82 H102 0.931 . S
C83 C79 1.460 1_455 S
C83 C82 1.477 . S
C83 H103 0.930 . S
C84 N80 1.362 . S
C84 C81 1.431 . S
C84 C94 1.476 . S
H85 C79 0.929 . S
C86 O77 1.250 . S
C86 O78 1.258 . S
O87 Mn72 2.162 . S
O87 C75 1.281 . S
O88 Mn72 2.297 . S
O88 C75 1.236 . S
N89 Mn73 2.282 1_455 S
N89 C90 1.328 . S
N89 C94 1.318 . S
C90 N89 1.328 . S
C90 C91 1.457 . S
C90 H95 0.929 . S
C91 C90 1.457 . S
C91 C92 1.291 . S
C91 H104 0.931 . S
C92 C91 1.291 . S
C92 C93 1.373 . S
C92 H105 0.929 . S
C93 C92 1.373 . S
C93 C94 1.396 . S
C93 C100 1.403 . S
C94 C84 1.476 . S
C94 N89 1.318 . S
C94 C93 1.396 . S
H95 C90 0.929 . S
O96 Mn72 2.385 . S
O96 C74 1.234 . S
O97 Mn72 2.209 . S
O97 Mn73 2.215 1_455 S
O97 C74 1.283 . S
O98 Mn72 2.094 1_655 S
O98 C76 1.240 . S
O99 Mn73 2.117 . S
O99 C76 1.264 . S
C100 C93 1.403 . S
C100 C101 1.399 . S
C100 H106 0.929 . S
C101 C81 1.449 . S
C101 C100 1.399 . S
C101 H107 0.930 . S
H102 C82 0.931 . S
H103 C83 0.930 . S
H104 C91 0.931 . S
H105 C92 0.929 . S
H106 C100 0.929 . S
H107 C101 0.930 . S
Mg108 O115 2.141 . S
Mg108 O116 2.048 . S
Mg108 O117 2.048 . S
Mg108 O120 2.141 . S
C109 O110 1.313 1_455 S
C109 O116 1.195 . S
O110 C109 1.313 1_655 S
C111 O112 1.245 1_455 S
C111 O120 1.289 . S
O112 C111 1.245 1_655 S
C113 O114 1.245 1_455 S
C113 O115 1.289 . S
O114 C113 1.245 1_655 S
O115 Mg108 2.141 . S
O115 C113 1.289 . S
O116 Mg108 2.048 . S
O116 C109 1.195 . S
O117 Mg108 2.048 . S
O117 C118 1.195 . S
C118 O117 1.195 . S
C118 O119 1.313 1_455 S
O119 C118 1.313 1_655 S
O120 Mg108 2.141 . S
O120 C111 1.289 . S
Mg121 O128 2.141 . S
Mg121 O129 2.048 . S
Mg121 O130 2.048 . S
Mg121 O133 2.141 . S
C122 O123 1.313 . S
C122 O129 1.195 . S
O123 C122 1.313 . S
C124 O125 1.245 . S
C124 O133 1.289 . S
O125 C124 1.245 . S
C126 O127 1.245 . S
C126 O128 1.289 . S
O127 C126 1.245 . S
O128 Mg121 2.141 . S
O128 C126 1.289 . S
O129 Mg121 2.048 . S
O129 C122 1.195 . S
O130 Mg121 2.048 . S
O130 C131 1.195 . S
C131 O130 1.195 . S
C131 O132 1.313 . S
O132 C131 1.313 . S
O133 Mg121 2.141 . S
O133 C124 1.289 . S
Mg134 O141 2.141 . S
Mg134 O142 2.048 . S
Mg134 O143 2.048 . S
Mg134 O146 2.141 . S
C135 O136 1.313 . S
C135 O142 1.195 . S
O136 C135 1.313 . S
C137 O138 1.245 . S
C137 O146 1.289 . S
O138 C137 1.245 . S
C139 O140 1.245 . S
C139 O141 1.289 . S
O140 C139 1.245 . S
O141 Mg134 2.141 . S
O141 C139 1.289 . S
O142 Mg134 2.048 . S
O142 C135 1.195 . S
O143 Mg134 2.048 . S
O143 C144 1.195 . S
C144 O143 1.195 . S
C144 O145 1.313 . S
O145 C144 1.313 . S
O146 Mg134 2.141 . S
O146 C137 1.289 . S
H147 C153 0.930 . S
H148 C156 0.930 . S
H149 C157 0.930 . S
H150 C158 0.930 . S
H151 C161 0.930 . S
H152 C162 0.930 . S
C153 H147 0.930 . S
C153 C154 1.355 . S
C153 C155 1.415 . S
C154 C153 1.355 . S
C154 C156 1.419 . S
C155 C153 1.415 . S
C155 C160 1.425 . S
C155 C162 1.409 . S
C156 H148 0.930 . S
C156 C154 1.419 . S
C156 C157 1.362 . S
C157 H149 0.930 . S
C157 C156 1.362 . S
C157 C160 1.409 . S
C158 H150 0.930 . S
C158 C159 1.355 . S
C158 C160 1.415 . S
C159 C158 1.355 . S
C159 C161 1.419 . S
C160 C155 1.425 . S
C160 C157 1.409 . S
C160 C158 1.415 . S
C161 H151 0.930 . S
C161 C159 1.419 . S
C161 C162 1.362 . S
C162 H152 0.930 . S
C162 C155 1.409 . S
C162 C161 1.362 . S
H163 C169 0.930 . S
H164 C172 0.930 . S
H165 C173 0.930 . S
H166 C174 0.930 . S
H167 C177 0.930 . S
H168 C178 0.930 . S
C169 H163 0.930 . S
C169 C170 1.355 . S
C169 C171 1.415 . S
C170 C169 1.355 . S
C170 C172 1.419 . S
C171 C169 1.415 . S
C171 C176 1.425 . S
C171 C178 1.409 . S
C172 H164 0.930 . S
C172 C170 1.419 . S
C172 C173 1.362 . S
C173 H165 0.930 . S
C173 C172 1.362 . S
C173 C176 1.409 . S
C174 H166 0.930 . S
C174 C175 1.355 . S
C174 C176 1.415 . S
C175 C174 1.355 . S
C175 C177 1.419 . S
C176 C171 1.425 . S
C176 C173 1.409 . S
C176 C174 1.415 . S
C177 H167 0.930 . S
C177 C175 1.419 . S
C177 C178 1.362 . S
C178 H168 0.930 . S
C178 C171 1.409 . S
C178 C177 1.362 . S
H179 C185 0.930 . S
H180 C188 0.930 1_545 S
H181 C189 0.930 . S
H182 C190 0.930 . S
H183 C193 0.930 . S
H184 C194 0.930 . S
C185 H179 0.930 . S
C185 C186 1.355 . S
C185 C187 1.415 . S
C186 C185 1.355 . S
C186 C188 1.419 . S
C187 C185 1.415 . S
C187 C192 1.425 . S
C187 C194 1.409 . S
C188 H180 0.930 1_565 S
C188 C186 1.419 . S
C188 C189 1.362 . S
C189 H181 0.930 . S
C189 C188 1.362 . S
C189 C192 1.409 . S
C190 H182 0.930 . S
C190 C191 1.355 . S
C190 C192 1.415 . S
C191 C190 1.355 . S
C191 C193 1.419 . S
C192 C187 1.425 . S
C192 C189 1.409 . S
C192 C190 1.415 . S
C193 H183 0.930 . S
C193 C191 1.419 . S
C193 C194 1.362 . S
C194 H184 0.930 . S
C194 C187 1.409 . S
C194 C193 1.362 . S
H195 C201 0.930 . S
H196 C204 0.930 . S
H197 C205 0.930 . S
H198 C206 0.930 1_655 S
H199 C209 0.930 . S
H200 C210 0.930 . S
C201 H195 0.930 . S
C201 C202 1.355 . S
C201 C203 1.415 . S
C202 C201 1.355 . S
C202 C204 1.419 1_455 S
C203 C201 1.415 . S
C203 C208 1.425 . S
C203 C210 1.409 . S
C204 H196 0.930 . S
C204 C202 1.419 1_655 S
C204 C205 1.362 . S
C205 H197 0.930 . S
C205 C204 1.362 . S
C205 C208 1.409 1_655 S
C206 H198 0.930 1_455 S
C206 C207 1.355 . S
C206 C208 1.415 . S
C207 C206 1.355 . S
C207 C209 1.419 . S
C208 C203 1.425 . S
C208 C205 1.409 1_455 S
C208 C206 1.415 . S
C209 H199 0.930 . S
C209 C207 1.419 . S
C209 C210 1.362 . S
C210 H200 0.930 . S
C210 C203 1.409 . S
C210 C209 1.362 . S
H211 C217 0.930 . S
H212 C220 0.930 . S
H213 C221 0.930 . S
H214 C222 0.930 . S
H215 C225 0.930 . S
H216 C226 0.930 . S
C217 H211 0.930 . S
C217 C218 1.355 . S
C217 C219 1.415 . S
C218 C217 1.355 . S
C218 C220 1.419 . S
C219 C217 1.415 . S
C219 C224 1.425 . S
C219 C226 1.409 . S
C220 H212 0.930 . S
C220 C218 1.419 . S
C220 C221 1.362 . S
C221 H213 0.930 . S
C221 C220 1.362 . S
C221 C224 1.409 . S
C222 H214 0.930 . S
C222 C223 1.355 . S
C222 C224 1.415 . S
C223 C222 1.355 . S
C223 C225 1.419 . S
C224 C219 1.425 . S
C224 C221 1.409 . S
C224 C222 1.415 . S
C225 H215 0.930 . S
C225 C223 1.419 . S
C225 C226 1.362 . S
C226 H216 0.930 . S
C226 C219 1.409 . S
C226 C225 1.362 . S
H227 C233 0.930 . S
H228 C236 0.930 . S
H229 C237 0.930 . S
H230 C238 0.930 . S
H231 C241 0.930 . S
H232 C242 0.930 . S
C233 H227 0.930 . S
C233 C234 1.355 . S
C233 C235 1.415 . S
C234 C233 1.355 . S
C234 C236 1.419 . S
C235 C233 1.415 . S
C235 C240 1.425 . S
C235 C242 1.409 . S
C236 H228 0.930 . S
C236 C234 1.419 . S
C236 C237 1.362 . S
C237 H229 0.930 . S
C237 C236 1.362 . S
C237 C240 1.409 . S
C238 H230 0.930 . S
C238 C239 1.355 . S
C238 C240 1.415 . S
C239 C238 1.355 . S
C239 C241 1.419 . S
C240 C235 1.425 . S
C240 C237 1.409 . S
C240 C238 1.415 . S
C241 H231 0.930 . S
C241 C239 1.419 . S
C241 C242 1.362 . S
C242 H232 0.930 . S
C242 C235 1.409 . S
C242 C241 1.362 . S
H243 C249 0.930 . S
H244 C252 0.930 . S
H245 C253 0.930 . S
H246 C254 0.930 . S
H247 C257 0.930 . S
H248 C258 0.930 . S
C249 H243 0.930 . S
C249 C250 1.355 . S
C249 C251 1.415 . S
C250 C249 1.355 . S
C250 C252 1.419 . S
C251 C249 1.415 . S
C251 C256 1.425 . S
C251 C258 1.409 . S
C252 H244 0.930 . S
C252 C250 1.419 . S
C252 C253 1.362 . S
C253 H245 0.930 . S
C253 C252 1.362 . S
C253 C256 1.409 . S
C254 H246 0.930 . S
C254 C255 1.355 . S
C254 C256 1.415 . S
C255 C254 1.355 . S
C255 C257 1.419 . S
C256 C251 1.425 . S
C256 C253 1.409 . S
C256 C254 1.415 . S
C257 H247 0.930 . S
C257 C255 1.419 . S
C257 C258 1.362 . S
C258 H248 0.930 . S
C258 C251 1.409 . S
C258 C257 1.362 . S
H259 C265 0.921 1_546 S
H260 C268 0.930 . S
H261 C269 0.930 . S
H262 C270 0.930 . S
H263 C273 0.930 . S
H264 C274 0.930 . S
C265 H259 0.921 1_564 S
C265 C266 1.355 . S
C265 C267 1.415 1_554 S
C266 C265 1.355 . S
C266 C268 1.419 . S
C267 C265 1.415 1_556 S
C267 C272 1.425 1_556 S
C267 C274 1.409 . S
C268 H260 0.930 . S
C268 C266 1.419 . S
C268 C269 1.362 . S
C269 H261 0.930 . S
C269 C268 1.362 . S
C269 C272 1.409 . S
C270 H262 0.930 . S
C270 C271 1.355 . S
C270 C272 1.415 1_556 S
C271 C270 1.355 . S
C271 C273 1.419 . S
C272 C267 1.425 1_554 S
C272 C269 1.409 . S
C272 C270 1.415 1_554 S
C273 H263 0.930 . S
C273 C271 1.419 . S
C273 C274 1.362 . S
C274 H264 0.930 . S
C274 C267 1.409 . S
C274 C273 1.362 . S
H275 C281 0.930 . S
H276 C284 0.930 1_545 S
H277 C285 0.930 . S
H278 C286 0.930 . S
H279 C289 0.930 . S
H280 C290 0.930 . S
C281 H275 0.930 . S
C281 C282 1.355 . S
C281 C283 1.415 . S
C282 C281 1.355 . S
C282 C284 1.419 . S
C283 C281 1.415 . S
C283 C288 1.425 . S
C283 C290 1.409 . S
C284 H276 0.930 1_565 S
C284 C282 1.419 . S
C284 C285 1.362 . S
C285 H277 0.930 . S
C285 C284 1.362 . S
C285 C288 1.409 . S
C286 H278 0.930 . S
C286 C287 1.355 . S
C286 C288 1.415 . S
C287 C286 1.355 . S
C287 C289 1.419 . S
C288 C283 1.425 . S
C288 C285 1.409 . S
C288 C286 1.415 . S
C289 H279 0.930 . S
C289 C287 1.419 . S
C289 C290 1.362 . S
C290 H280 0.930 . S
C290 C283 1.409 . S
C290 C289 1.362 . S
H291 C297 0.930 . S
H292 C300 0.930 . S
H293 C301 0.930 . S
H294 C302 0.930 . S
H295 C305 0.930 . S
H296 C306 0.930 . S
C297 H291 0.930 . S
C297 C298 1.355 . S
C297 C299 1.415 . S
C298 C297 1.355 . S
C298 C300 1.419 . S
C299 C297 1.415 . S
C299 C304 1.425 . S
C299 C306 1.409 . S
C300 H292 0.930 . S
C300 C298 1.419 . S
C300 C301 1.362 . S
C301 H293 0.930 . S
C301 C300 1.362 . S
C301 C304 1.409 . S
C302 H294 0.930 . S
C302 C303 1.355 . S
C302 C304 1.415 . S
C303 C302 1.355 . S
C303 C305 1.419 . S
C304 C299 1.425 . S
C304 C301 1.409 . S
C304 C302 1.415 . S
C305 H295 0.930 . S
C305 C303 1.419 . S
C305 C306 1.362 . S
C306 H296 0.930 . S
C306 C299 1.409 . S
C306 C305 1.362 . S
H307 C313 0.930 1_556 S
H308 C316 0.930 . S
H309 C317 0.930 . S
H310 C318 0.930 . S
H311 C321 0.930 . S
H312 C322 0.930 . S
C313 H307 0.930 1_554 S
C313 C314 1.355 . S
C313 C315 1.415 1_554 S
C314 C313 1.355 . S
C314 C316 1.419 . S
C315 C313 1.415 1_556 S
C315 C320 1.425 1_556 S
C315 C322 1.409 . S
C316 H308 0.930 . S
C316 C314 1.419 . S
C316 C317 1.362 . S
C317 H309 0.930 . S
C317 C316 1.362 . S
C317 C320 1.409 . S
C318 H310 0.930 . S
C318 C319 1.355 . S
C318 C320 1.415 1_556 S
C319 C318 1.355 . S
C319 C321 1.419 . S
C320 C315 1.425 1_554 S
C320 C317 1.409 . S
C320 C318 1.415 1_554 S
C321 H311 0.930 . S
C321 C319 1.419 . S
C321 C322 1.362 . S
C322 H312 0.930 . S
C322 C315 1.409 . S
C322 C321 1.362 . S
H323 C329 0.930 . S
H324 C332 0.930 . S
H325 C333 0.930 . S
H326 C334 0.930 1_655 S
H327 C337 0.930 . S
H328 C338 0.930 . S
C329 H323 0.930 . S
C329 C330 1.355 . S
C329 C331 1.415 . S
C330 C329 1.355 . S
C330 C332 1.419 1_455 S
C331 C329 1.415 . S
C331 C336 1.425 . S
C331 C338 1.409 . S
C332 H324 0.930 . S
C332 C330 1.419 1_655 S
C332 C333 1.362 . S
C333 H325 0.930 . S
C333 C332 1.362 . S
C333 C336 1.409 1_655 S
C334 H326 0.930 1_455 S
C334 C335 1.355 . S
C334 C336 1.415 . S
C335 C334 1.355 . S
C335 C337 1.419 . S
C336 C331 1.425 . S
C336 C333 1.409 1_455 S
C336 C334 1.415 . S
C337 H327 0.930 . S
C337 C335 1.419 . S
C337 C338 1.362 . S
C338 H328 0.930 . S
C338 C331 1.409 . S
C338 C337 1.362 . S
C159 C113 1.434 . S
C154 C14 1.379 . S
C170 C40 1.448 . S
C175 C131 1.464 . S
C186 C76 1.446 1_565 S
C191 C144 1.453 . S
C202 C3 1.391 1_565 S
C207 C111 1.404 . S
C223 C122 1.486 . S
C218 C38 1.495 . S
C234 C74 1.465 . S
C239 C135 1.468 . S
C255 C124 1.382 . S
C250 C86 1.334 . S
C266 C2 1.421 1_565 S
C271 C137 1.404 . S
C287 C118 1.442 . S
C282 C39 1.445 . S
C303 C126 1.408 . S
C298 C75 1.417 . S
C319 C139 1.416 . S
C314 C4 1.423 . S
C330 C50 1.431 . S
C335 C109 1.496 . S
