# Generated by pormake.
# Topology pts, (4,4)-cn, num edge types: 1
# Building blocks:
#     Node 0, Type 0, BuildingBlock: KOZSID_clean_sbu_0, # of connection points: 4
#     Node 1, Type 0, BuildingBlock: KOZSID_clean_sbu_0, # of connection points: 4
#     Node 2, Type 1, BuildingBlock: QUQFOY_clean_sbu_1, # of connection points: 4
#     Node 3, Type 1, BuildingBlock: QUQFOY_clean_sbu_1, # of connection points: 4
#     Edge 4, Type (0, 1), BuildingBlock: XIVTED_clean_linker_0, # of connection points: 2
#     Edge 5, Type (0, 1), BuildingBlock: XIVTED_clean_linker_0, # of connection points: 2
#     Edge 6, Type (0, 1), BuildingBlock: XIVTED_clean_linker_0, # of connection points: 2
#     Edge 7, Type (0, 1), BuildingBlock: XIVTED_clean_linker_0, # of connection points: 2
#     Edge 8, Type (0, 1), BuildingBlock: XIVTED_clean_linker_0, # of connection points: 2
#     Edge 9, Type (0, 1), BuildingBlock: XIVTED_clean_linker_0, # of connection points: 2
#     Edge 10, Type (0, 1), BuildingBlock: XIVTED_clean_linker_0, # of connection points: 2
#     Edge 11, Type (0, 1), BuildingBlock: XIVTED_clean_linker_0, # of connection points: 2
# Relax obj value: 0.094
# Max RMSD: 0.254
# Mean RMSD: 0.145
data_MOF--net-pts--node1-KOZSID_clean_sbu_0--node2-QUQFOY_clean_sbu_1--edge1-XIVTED_clean_linker_0
_symmetry_space_group_name_H-M    P1
_symmetry_Int_Tables_number       1
_symmetry_cell_setting            triclinic
loop_
_symmetry_equiv_pos_as_xyz
'x, y, z'
_cell_length_a     25.546515
_cell_length_b     28.566774
_cell_length_c     42.386102
_cell_angle_alpha  86.05142
_cell_angle_beta   94.222735
_cell_angle_gamma 90.149926
loop_
_atom_site_label
_atom_site_type_symbol
_atom_site_fract_x
_atom_site_fract_y
_atom_site_fract_z
_atom_type_partial_charge
C0 C 0.63344 0.11374 0.04633 0.0
C1 C 0.65347 0.1576 0.0528 0.0
C2 C 0.62414 0.18981 0.03399 0.0
C3 C 0.58846 0.16394 0.01689 0.0
N4 N 0.59304 0.1171 0.02368 0.0
Co5 Co 0.55189 0.06672 0.00229 0.0
N6 N 0.50737 0.11428 0.97561 0.0
C7 C 0.50871 0.16139 0.97729 0.0
C8 C 0.47121 0.18492 0.9576 0.0
C9 C 0.44407 0.15083 0.94245 0.0
C10 C 0.46715 0.10827 0.95356 0.0
N11 N 0.51285 0.01634 0.9797 0.0
C12 C 0.47504 0.01971 0.9555 0.0
C13 C 0.46198 0.97596 0.94479 0.0
C14 C 0.49176 0.94378 0.9633 0.0
C15 C 0.52169 0.96957 0.98386 0.0
N16 N 0.5943 0.01909 0.03019 0.0
C17 C 0.58866 0.97192 0.03114 0.0
C18 C 0.61996 0.94829 0.05455 0.0
C19 C 0.64726 0.98236 0.06957 0.0
C20 C 0.63149 0.02502 0.05405 0.0
N21 N 0.49967 0.06588 0.03468 0.0
C22 C 0.42638 0.06474 0.08128 0.0
C23 C 0.43879 0.02376 0.0672 0.0
C24 C 0.47532 0.02507 0.04423 0.0
C25 C 0.4513 0.10628 0.07154 0.0
C26 C 0.48721 0.10612 0.04832 0.0
N27 N 0.60411 0.0676 0.96988 0.0
C28 C 0.66718 0.02753 0.94146 0.0
C29 C 0.67705 0.06869 0.92309 0.0
C30 C 0.64989 0.10931 0.92869 0.0
C31 C 0.6141 0.10804 0.95204 0.0
C32 C 0.63084 0.02774 0.96449 0.0
H33 H 0.5949 0.14027 0.95511 0.0
H34 H 0.62514 0.99522 0.97764 0.0
H35 H 0.48308 0.9926 0.03451 0.0
H36 H 0.50445 0.13905 0.04191 0.0
C37 C 0.54788 0.18264 0.99601 0.0
C38 C 0.6538 0.07001 0.06245 0.0
C39 C 0.44972 0.0632 0.94233 0.0
C40 C 0.55586 0.95075 0.00859 0.0
H41 H 0.68576 0.16567 0.0695 0.0
H42 H 0.62794 0.22762 0.03316 0.0
H43 H 0.46474 0.22243 0.95438 0.0
H44 H 0.41115 0.15679 0.92509 0.0
H45 H 0.43359 0.96797 0.92571 0.0
H46 H 0.49124 0.90605 0.96215 0.0
H47 H 0.62289 0.91074 0.05989 0.0
H48 H 0.67577 0.97633 0.0896 0.0
H49 H 0.41995 0.99076 0.07349 0.0
H50 H 0.44367 0.13891 0.08198 0.0
H51 H 0.68787 0.99528 0.93845 0.0
H52 H 0.65562 0.142 0.91487 0.0
C53 C 0.11261 0.49232 0.55402 0.0
C54 C 0.16215 0.47802 0.56665 0.0
C55 C 0.19744 0.50473 0.55084 0.0
C56 C 0.16763 0.53358 0.52949 0.0
N57 N 0.1153 0.52747 0.53102 0.0
Co58 Co 0.05771 0.55997 0.50309 0.0
N59 N 0.10983 0.59629 0.47798 0.0
C60 C 0.16282 0.59366 0.48205 0.0
C61 C 0.18806 0.62409 0.4619 0.0
C62 C 0.14892 0.6482 0.44419 0.0
C63 C 0.1019 0.63101 0.45471 0.0
N64 N 0.00011 0.59231 0.47507 0.0
C65 C 0.00279 0.62719 0.45188 0.0
C66 C 0.9533 0.64097 0.4389 0.0
C67 C 0.918 0.61425 0.45471 0.0
C68 C 0.94779 0.58585 0.47637 0.0
N69 N 0.00557 0.52385 0.52829 0.0
C70 C 0.95258 0.52684 0.52442 0.0
C71 C 0.92732 0.49676 0.54479 0.0
C72 C 0.96645 0.47252 0.56243 0.0
C73 C 0.01346 0.48921 0.55162 0.0
N74 N 0.05689 0.61148 0.53225 0.0
C75 C 0.05521 0.68763 0.57103 0.0
C76 C 0.00881 0.66564 0.56078 0.0
C77 C 0.01051 0.62814 0.54144 0.0
C78 C 0.10255 0.67058 0.56191 0.0
C79 C 0.10253 0.6325 0.54292 0.0
N80 N 0.05851 0.50841 0.47397 0.0
C81 C 0.01297 0.44761 0.44593 0.0
C82 C 0.06013 0.43106 0.43628 0.0
C83 C 0.10637 0.45437 0.4452 0.0
C84 C 0.10472 0.49249 0.46404 0.0
C85 C 0.01299 0.48631 0.46432 0.0
H86 H 0.14142 0.50808 0.47059 0.0
H87 H 0.9757 0.49742 0.47062 0.0
H88 H 0.9737 0.61359 0.53398 0.0
H89 H 0.1399 0.6209 0.53704 0.0
C90 C 0.18763 0.56432 0.50632 0.0
C91 C 0.06438 0.46966 0.56331 0.0
C92 C 0.05092 0.6501 0.44273 0.0
C93 C 0.92775 0.55561 0.49982 0.0
H94 H 0.17185 0.45027 0.5848 0.0
H95 H 0.23982 0.50229 0.5538 0.0
H96 H 0.22993 0.62908 0.46083 0.0
H97 H 0.15431 0.67603 0.42607 0.0
H98 H 0.94366 0.66841 0.42052 0.0
H99 H 0.87562 0.61643 0.45157 0.0
H100 H 0.88545 0.49197 0.54598 0.0
H101 H 0.96101 0.44486 0.58066 0.0
H102 H 0.97114 0.6779 0.56713 0.0
H103 H 0.13956 0.68617 0.56971 0.0
H104 H 0.97605 0.43107 0.43905 0.0
H105 H 0.14388 0.44264 0.43824 0.0
O106 O 0.9849 0.01909 0.23063 0.0
Cd107 Cd 0.05255 0.0057 0.25929 0.0
Cd108 Cd 0.04932 0.10513 0.25885 0.0
O109 O 0.97835 0.09568 0.23377 0.0
O110 O 0.05208 0.93607 0.2654 0.0
O111 O 0.05016 0.98189 0.30518 0.0
C112 C 0.05039 0.9401 0.29535 0.0
C113 C 0.05303 0.16401 0.29459 0.0
C114 C 0.96051 0.05753 0.22364 0.0
C115 C 0.14065 0.0591 0.23083 0.0
O116 O 0.11671 0.0965 0.23584 0.0
O117 O 0.12261 0.01924 0.23961 0.0
O118 O 0.05097 0.17366 0.26442 0.0
O119 O 0.05239 0.12038 0.30481 0.0
O120 O 0.98874 0.104 0.76711 0.0
Cd121 Cd 0.05674 0.11131 0.74371 0.0
Cd122 Cd 0.04939 0.01197 0.74928 0.0
O123 O 0.97977 0.02709 0.76777 0.0
O124 O 0.06238 0.18064 0.7371 0.0
O125 O 0.05436 0.13443 0.69741 0.0
C126 C 0.0593 0.17623 0.70704 0.0
C127 C 0.04811 0.95307 0.71373 0.0
C128 C 0.96321 0.06697 0.77416 0.0
C129 C 0.14357 0.05598 0.78171 0.0
O130 O 0.11731 0.01872 0.77793 0.0
O131 O 0.1272 0.09515 0.76878 0.0
O132 O 0.04402 0.9436 0.74359 0.0
O133 O 0.05299 0.99652 0.70377 0.0
H134 H 0.41026 0.99631 0.12843 0.0
H135 H 0.18082 0.13657 0.19957 0.0
H136 H 0.35346 0.13225 0.08988 0.0
H137 H 0.20749 0.98796 0.21997 0.0
H138 H 0.25353 0.13903 0.16523 0.0
H139 H 0.34427 0.9958 0.16735 0.0
C140 C 0.38387 0.02598 0.12802 0.0
C141 C 0.38741 0.06431 0.10567 0.0
C142 C 0.24361 0.10595 0.17736 0.0
C143 C 0.31251 0.06426 0.15062 0.0
C144 C 0.20227 0.10452 0.19711 0.0
C145 C 0.18776 0.0619 0.21252 0.0
C146 C 0.27093 0.06454 0.17314 0.0
C147 C 0.21706 0.02153 0.20839 0.0
C148 C 0.34644 0.02575 0.1504 0.0
C149 C 0.35282 0.10221 0.10684 0.0
N150 N 0.25717 0.02381 0.189 0.0
N151 N 0.31684 0.10119 0.1289 0.0
H152 H 0.08833 0.46079 0.62705 0.0
H153 H 0.04776 0.18164 0.64179 0.0
H154 H 0.04493 0.38044 0.54692 0.0
H155 H 0.07626 0.26661 0.72165 0.0
H156 H 0.05107 0.25275 0.60606 0.0
H157 H 0.08903 0.38853 0.66181 0.0
C158 C 0.07924 0.42767 0.61691 0.0
C159 C 0.0668 0.42602 0.58434 0.0
C160 C 0.05662 0.25572 0.63142 0.0
C161 C 0.06702 0.34354 0.62358 0.0
C162 C 0.05477 0.21517 0.65179 0.0
C163 C 0.06159 0.2182 0.68474 0.0
C164 C 0.06556 0.29946 0.64415 0.0
C165 C 0.0706 0.26255 0.69642 0.0
C166 C 0.07947 0.38652 0.63663 0.0
C167 C 0.05487 0.38266 0.57205 0.0
N168 N 0.07232 0.30132 0.67618 0.0
N169 N 0.05525 0.34297 0.59172 0.0
H170 H 0.65725 0.10825 0.12 0.0
H171 H 0.93069 0.99273 0.18165 0.0
H172 H 0.75124 0.03295 0.05987 0.0
H173 H 0.88247 0.12403 0.21533 0.0
H174 H 0.85526 0.99684 0.14261 0.0
H175 H 0.73132 0.10581 0.16071 0.0
C176 C 0.69366 0.09148 0.11542 0.0
C177 C 0.69861 0.07081 0.08674 0.0
C178 C 0.8612 0.02464 0.15864 0.0
C179 C 0.78206 0.06679 0.13302 0.0
C180 C 0.90394 0.02219 0.18106 0.0
C181 C 0.9129 0.0582 0.20168 0.0
C182 C 0.82663 0.06288 0.15721 0.0
C183 C 0.87709 0.09569 0.19972 0.0
C184 C 0.73562 0.09004 0.13853 0.0
C185 C 0.74614 0.04912 0.08181 0.0
N186 N 0.83524 0.09699 0.1779 0.0
N187 N 0.78597 0.04724 0.10488 0.0
H188 H 0.10751 0.77122 0.56462 0.0
H189 H 0.01714 0.8627 0.72554 0.0
H190 H 0.00038 0.69542 0.62336 0.0
H191 H 0.07774 0.95609 0.65256 0.0
H192 H 0.01817 0.79879 0.69032 0.0
H193 H 0.10482 0.83724 0.59858 0.0
C194 C 0.0836 0.76847 0.58473 0.0
C195 C 0.05412 0.72787 0.59124 0.0
C196 C 0.03106 0.83328 0.68193 0.0
C197 C 0.05093 0.80293 0.63006 0.0
C198 C 0.03065 0.86979 0.70206 0.0
C199 C 0.04741 0.9148 0.69196 0.0
C200 C 0.04903 0.84155 0.65156 0.0
C201 C 0.06434 0.92193 0.66123 0.0
C202 C 0.0818 0.8062 0.60393 0.0
C203 C 0.02335 0.72623 0.61737 0.0
N204 N 0.06507 0.88555 0.64214 0.0
N205 N 0.02281 0.7631 0.63593 0.0
H206 H 0.35439 0.02239 0.94901 0.0
H207 H 0.22456 0.11865 0.78205 0.0
H208 H 0.44453 0.09924 0.88077 0.0
H209 H 0.17225 0.99065 0.82998 0.0
H210 H 0.30114 0.11913 0.82037 0.0
H211 H 0.28157 0.01767 0.90822 0.0
C212 C 0.35859 0.03827 0.92537 0.0
C213 C 0.40509 0.06123 0.91801 0.0
C214 C 0.27306 0.09078 0.82227 0.0
C215 C 0.32244 0.05655 0.87166 0.0
C216 C 0.22938 0.09052 0.80052 0.0
C217 C 0.19205 0.05457 0.80292 0.0
C218 C 0.27873 0.05544 0.84695 0.0
C219 C 0.20023 0.01889 0.82722 0.0
C220 C 0.31735 0.03544 0.90217 0.0
C221 C 0.40898 0.08146 0.88721 0.0
N222 N 0.24242 0.02054 0.84858 0.0
N223 N 0.36791 0.07899 0.86512 0.0
H224 H 0.01116 0.34647 0.44586 0.0
H225 H 0.07971 0.25496 0.28082 0.0
H226 H 0.11087 0.42249 0.38244 0.0
H227 H 0.03408 0.16034 0.35776 0.0
H228 H 0.08363 0.31884 0.31621 0.0
H229 H 0.01143 0.2797 0.4124 0.0
C230 C 0.03303 0.34905 0.42486 0.0
C231 C 0.06094 0.39001 0.4168 0.0
C232 C 0.07297 0.28409 0.32542 0.0
C233 C 0.06123 0.31416 0.37852 0.0
C234 C 0.07049 0.24761 0.30521 0.0
C235 C 0.05644 0.20227 0.31638 0.0
C236 C 0.06054 0.27547 0.35697 0.0
C237 C 0.04518 0.19478 0.34824 0.0
C238 C 0.03344 0.31092 0.40595 0.0
C239 C 0.08911 0.39144 0.38958 0.0
N240 N 0.04705 0.23116 0.36742 0.0
N241 N 0.08817 0.35421 0.37127 0.0
H242 H 0.69527 0.00075 0.88238 0.0
H243 H 0.92417 0.14383 0.79995 0.0
H244 H 0.74693 0.13824 0.90761 0.0
H245 H 0.89465 0.99655 0.78952 0.0
H246 H 0.85102 0.1458 0.83383 0.0
H247 H 0.76097 0.00173 0.84331 0.0
C248 C 0.7205 0.03109 0.87982 0.0
C249 C 0.71568 0.06936 0.89851 0.0
C250 C 0.8604 0.11313 0.82397 0.0
C251 C 0.79042 0.07098 0.85339 0.0
C252 C 0.90202 0.112 0.8045 0.0
C253 C 0.91587 0.06985 0.79205 0.0
C254 C 0.83222 0.0719 0.83093 0.0
C255 C 0.88565 0.02975 0.79877 0.0
C256 C 0.75778 0.03173 0.85734 0.0
C257 C 0.74874 0.10815 0.89355 0.0
N258 N 0.8454 0.03172 0.81786 0.0
N259 N 0.78475 0.1079 0.87154 0.0
H260 H 0.06343 0.73982 0.45961 0.0
H261 H 0.04242 0.84913 0.2801 0.0
H262 H 0.03332 0.65838 0.37848 0.0
H263 H 0.05453 0.93431 0.36058 0.0
H264 H 0.04067 0.77907 0.31607 0.0
H265 H 0.0618 0.81174 0.42417 0.0
C266 C 0.05624 0.7374 0.43426 0.0
C267 C 0.04827 0.69369 0.42168 0.0
C268 C 0.0436 0.81302 0.32595 0.0
C269 C 0.0467 0.77495 0.38117 0.0
C270 C 0.0447 0.85314 0.30539 0.0
C271 C 0.04872 0.89772 0.31735 0.0
C272 C 0.04679 0.81727 0.35882 0.0
C273 C 0.05139 0.90064 0.35035 0.0
C274 C 0.05531 0.77821 0.41409 0.0
C275 C 0.03939 0.69174 0.38886 0.0
N276 N 0.05054 0.8609 0.36997 0.0
N277 N 0.03895 0.73185 0.36968 0.0
loop_
_geom_bond_atom_site_label_1
_geom_bond_atom_site_label_2
_geom_bond_distance
_geom_bond_site_symmetry_2
_ccdc_geom_bond_type
C0 C1 1.443 . S
C0 N4 1.376 . S
C0 C38 1.389 . S
C1 C0 1.443 . S
C1 C2 1.340 . S
C1 H41 0.951 . S
C2 C1 1.340 . S
C2 C3 1.439 . S
C2 H42 0.950 . S
C3 C2 1.439 . S
C3 N4 1.374 . S
C3 C37 1.395 1_554 S
N4 C0 1.376 . S
N4 C3 1.374 . S
N4 Co5 2.008 . S
Co5 N4 2.008 . S
Co5 N6 1.995 1_554 S
Co5 N11 2.008 1_554 S
Co5 N16 1.995 . S
Co5 N21 2.282 . S
Co5 N27 2.282 1_554 S
N6 Co5 1.995 1_556 S
N6 C7 1.376 . S
N6 C10 1.383 . S
C7 N6 1.376 . S
C7 C8 1.446 . S
C7 C37 1.391 . S
C8 C7 1.446 . S
C8 C9 1.339 . S
C8 H43 0.949 . S
C9 C8 1.339 . S
C9 C10 1.439 . S
C9 H44 0.950 . S
C10 N6 1.383 . S
C10 C9 1.439 . S
C10 C39 1.392 . S
N11 Co5 2.008 1_556 S
N11 C12 1.376 . S
N11 C15 1.374 1_545 S
C12 N11 1.376 . S
C12 C13 1.443 1_545 S
C12 C39 1.389 . S
C13 C12 1.443 1_565 S
C13 C14 1.340 . S
C13 H45 0.951 . S
C14 C13 1.340 . S
C14 C15 1.439 . S
C14 H46 0.950 . S
C15 N11 1.374 1_565 S
C15 C14 1.439 . S
C15 C40 1.395 1_556 S
N16 Co5 1.995 . S
N16 C17 1.376 1_545 S
N16 C20 1.383 . S
C17 N16 1.376 1_565 S
C17 C18 1.446 . S
C17 C40 1.391 . S
C18 C17 1.446 . S
C18 C19 1.339 . S
C18 H47 0.949 . S
C19 C18 1.339 . S
C19 C20 1.439 1_565 S
C19 H48 0.950 . S
C20 N16 1.383 . S
C20 C19 1.439 1_545 S
C20 C38 1.392 . S
N21 Co5 2.282 . S
N21 C24 1.332 . S
N21 C26 1.332 . S
C22 C23 1.386 . S
C22 C25 1.388 . S
C23 C22 1.386 . S
C23 C24 1.382 . S
C23 H49 0.952 . S
C24 N21 1.332 . S
C24 C23 1.382 . S
C24 H35 0.952 . S
C25 C22 1.388 . S
C25 C26 1.382 . S
C25 H50 0.950 . S
C26 N21 1.332 . S
C26 C25 1.382 . S
C26 H36 0.948 . S
N27 Co5 2.282 1_556 S
N27 C31 1.332 . S
N27 C32 1.332 . S
C28 C29 1.388 . S
C28 C32 1.382 . S
C28 H51 0.950 . S
C29 C28 1.388 . S
C29 C30 1.386 . S
C30 C29 1.386 . S
C30 C31 1.382 . S
C30 H52 0.950 . S
C31 N27 1.332 . S
C31 C30 1.382 . S
C31 H33 0.952 . S
C32 N27 1.332 . S
C32 C28 1.382 . S
C32 H34 0.948 . S
H33 C31 0.952 . S
H34 C32 0.948 . S
H35 C24 0.952 . S
H36 C26 0.948 . S
C37 C3 1.395 1_556 S
C37 C7 1.391 . S
C38 C0 1.389 . S
C38 C20 1.392 . S
C39 C10 1.392 . S
C39 C12 1.389 . S
C40 C15 1.395 1_554 S
C40 C17 1.391 . S
H41 C1 0.951 . S
H42 C2 0.950 . S
H43 C8 0.949 . S
H44 C9 0.950 . S
H45 C13 0.951 . S
H46 C14 0.950 . S
H47 C18 0.949 . S
H48 C19 0.950 . S
H49 C23 0.952 . S
H50 C25 0.950 . S
H51 C28 0.950 . S
H52 C30 0.950 . S
C53 C54 1.443 . S
C53 N57 1.376 . S
C53 C91 1.389 . S
C54 C53 1.443 . S
C54 C55 1.340 . S
C54 H94 0.951 . S
C55 C54 1.340 . S
C55 C56 1.439 . S
C55 H95 0.950 . S
C56 C55 1.439 . S
C56 N57 1.374 . S
C56 C90 1.395 . S
N57 C53 1.376 . S
N57 C56 1.374 . S
N57 Co58 2.008 . S
Co58 N57 2.008 . S
Co58 N59 1.995 . S
Co58 N64 2.008 . S
Co58 N69 1.995 . S
Co58 N74 2.282 . S
Co58 N80 2.282 . S
N59 Co58 1.995 . S
N59 C60 1.376 . S
N59 C63 1.383 . S
C60 N59 1.376 . S
C60 C61 1.446 . S
C60 C90 1.391 . S
C61 C60 1.446 . S
C61 C62 1.339 . S
C61 H96 0.949 . S
C62 C61 1.339 . S
C62 C63 1.439 . S
C62 H97 0.950 . S
C63 N59 1.383 . S
C63 C62 1.439 . S
C63 C92 1.392 . S
N64 Co58 2.008 . S
N64 C65 1.376 . S
N64 C68 1.374 1_455 S
C65 N64 1.376 . S
C65 C66 1.443 1_455 S
C65 C92 1.389 . S
C66 C65 1.443 1_655 S
C66 C67 1.340 . S
C66 H98 0.951 . S
C67 C66 1.340 . S
C67 C68 1.439 . S
C67 H99 0.950 . S
C68 N64 1.374 1_655 S
C68 C67 1.439 . S
C68 C93 1.395 . S
N69 Co58 1.995 . S
N69 C70 1.376 1_455 S
N69 C73 1.383 . S
C70 N69 1.376 1_655 S
C70 C71 1.446 . S
C70 C93 1.391 . S
C71 C70 1.446 . S
C71 C72 1.339 . S
C71 H100 0.949 . S
C72 C71 1.339 . S
C72 C73 1.439 1_655 S
C72 H101 0.950 . S
C73 N69 1.383 . S
C73 C72 1.439 1_455 S
C73 C91 1.392 . S
N74 Co58 2.282 . S
N74 C77 1.332 . S
N74 C79 1.332 . S
C75 C76 1.386 . S
C75 C78 1.388 . S
C76 C75 1.386 . S
C76 C77 1.382 . S
C76 H102 0.950 1_455 S
C77 N74 1.332 . S
C77 C76 1.382 . S
C77 H88 0.952 1_455 S
C78 C75 1.388 . S
C78 C79 1.382 . S
C78 H103 0.950 . S
C79 N74 1.332 . S
C79 C78 1.382 . S
C79 H89 0.948 . S
N80 Co58 2.282 . S
N80 C84 1.332 . S
N80 C85 1.332 . S
C81 C82 1.388 . S
C81 C85 1.382 . S
C81 H104 0.950 1_455 S
C82 C81 1.388 . S
C82 C83 1.386 . S
C83 C82 1.386 . S
C83 C84 1.382 . S
C83 H105 0.950 . S
C84 N80 1.332 . S
C84 C83 1.382 . S
C84 H86 0.952 . S
C85 N80 1.332 . S
C85 C81 1.382 . S
C85 H87 0.948 1_455 S
H86 C84 0.952 . S
H87 C85 0.948 1_655 S
H88 C77 0.952 1_655 S
H89 C79 0.948 . S
C90 C56 1.395 . S
C90 C60 1.391 . S
C91 C53 1.389 . S
C91 C73 1.392 . S
C92 C63 1.392 . S
C92 C65 1.389 . S
C93 C68 1.395 . S
C93 C70 1.391 . S
H94 C54 0.951 . S
H95 C55 0.950 . S
H96 C61 0.949 . S
H97 C62 0.950 . S
H98 C66 0.951 . S
H99 C67 0.950 . S
H100 C71 0.949 . S
H101 C72 0.950 . S
H102 C76 0.950 1_655 S
H103 C78 0.950 . S
H104 C81 0.950 1_655 S
H105 C83 0.950 . S
O106 Cd107 2.223 . S
O106 C114 1.315 1_465 S
Cd107 O106 2.223 . S
Cd107 O110 2.297 . S
Cd107 O111 2.439 . S
Cd107 O117 2.240 1_565 S
Cd108 O109 2.240 1_455 S
Cd108 O116 2.223 . S
Cd108 O118 2.297 . S
Cd108 O119 2.439 . S
O109 Cd108 2.240 1_655 S
O109 C114 1.279 . S
O110 Cd107 2.297 . S
O110 C112 1.247 . S
O111 Cd107 2.439 . S
O111 C112 1.208 . S
C112 O110 1.247 . S
C112 O111 1.208 . S
C113 O118 1.247 . S
C113 O119 1.208 . S
C114 O106 1.315 1_645 S
C114 O109 1.279 . S
C115 O116 1.315 . S
C115 O117 1.279 . S
O116 Cd108 2.223 . S
O116 C115 1.315 . S
O117 Cd107 2.240 1_545 S
O117 C115 1.279 . S
O118 Cd108 2.297 . S
O118 C113 1.247 . S
O119 Cd108 2.439 . S
O119 C113 1.208 . S
O120 Cd121 2.223 . S
O120 C128 1.315 . S
Cd121 O120 2.223 . S
Cd121 O124 2.297 . S
Cd121 O125 2.439 . S
Cd121 O131 2.240 . S
Cd122 O123 2.240 . S
Cd122 O130 2.223 . S
Cd122 O132 2.297 1_545 S
Cd122 O133 2.439 . S
O123 Cd122 2.240 . S
O123 C128 1.279 . S
O124 Cd121 2.297 . S
O124 C126 1.247 . S
O125 Cd121 2.439 . S
O125 C126 1.208 . S
C126 O124 1.247 . S
C126 O125 1.208 . S
C127 O132 1.247 . S
C127 O133 1.208 1_565 S
C128 O120 1.315 . S
C128 O123 1.279 . S
C129 O130 1.315 . S
C129 O131 1.279 . S
O130 Cd122 2.223 . S
O130 C129 1.315 . S
O131 Cd121 2.240 . S
O131 C129 1.279 . S
O132 Cd122 2.297 1_565 S
O132 C127 1.247 . S
O133 Cd122 2.439 . S
O133 C127 1.208 1_545 S
H134 C140 0.930 . S
H135 C144 0.930 . S
H136 C149 0.929 . S
H137 C147 0.929 . S
H138 C142 0.929 . S
H139 C148 0.929 . S
C140 H134 0.930 . S
C140 C141 1.367 . S
C140 C148 1.378 . S
C141 C140 1.367 . S
C141 C149 1.433 . S
C142 H138 0.929 . S
C142 C144 1.378 . S
C142 C146 1.350 . S
C143 C146 1.463 . S
C143 C148 1.350 . S
C143 N151 1.427 . S
C144 H135 0.930 . S
C144 C142 1.378 . S
C144 C145 1.367 . S
C145 C144 1.367 . S
C145 C147 1.433 . S
C146 C142 1.350 . S
C146 C143 1.463 . S
C146 N150 1.427 . S
C147 H137 0.929 . S
C147 C145 1.433 . S
C147 N150 1.384 . S
C148 H139 0.929 . S
C148 C140 1.378 . S
C148 C143 1.350 . S
C149 H136 0.929 . S
C149 C141 1.433 . S
C149 N151 1.384 . S
N150 C146 1.427 . S
N150 C147 1.384 . S
N151 C143 1.427 . S
N151 C149 1.384 . S
H152 C158 0.930 . S
H153 C162 0.930 . S
H154 C167 0.929 . S
H155 C165 0.929 . S
H156 C160 0.929 . S
H157 C166 0.929 . S
C158 H152 0.930 . S
C158 C159 1.367 . S
C158 C166 1.378 . S
C159 C158 1.367 . S
C159 C167 1.433 . S
C160 H156 0.929 . S
C160 C162 1.378 . S
C160 C164 1.350 . S
C161 C164 1.463 . S
C161 C166 1.350 . S
C161 N169 1.427 . S
C162 H153 0.930 . S
C162 C160 1.378 . S
C162 C163 1.367 . S
C163 C162 1.367 . S
C163 C165 1.433 . S
C164 C160 1.350 . S
C164 C161 1.463 . S
C164 N168 1.427 . S
C165 H155 0.929 . S
C165 C163 1.433 . S
C165 N168 1.384 . S
C166 H157 0.929 . S
C166 C158 1.378 . S
C166 C161 1.350 . S
C167 H154 0.929 . S
C167 C159 1.433 . S
C167 N169 1.384 . S
N168 C164 1.427 . S
N168 C165 1.384 . S
N169 C161 1.427 . S
N169 C167 1.384 . S
H170 C176 0.930 . S
H171 C180 0.930 1_565 S
H172 C185 0.929 . S
H173 C183 0.929 . S
H174 C178 0.929 . S
H175 C184 0.929 . S
C176 H170 0.930 . S
C176 C177 1.367 . S
C176 C184 1.378 . S
C177 C176 1.367 . S
C177 C185 1.433 . S
C178 H174 0.929 . S
C178 C180 1.378 . S
C178 C182 1.350 . S
C179 C182 1.463 . S
C179 C184 1.350 . S
C179 N187 1.427 . S
C180 H171 0.930 1_545 S
C180 C178 1.378 . S
C180 C181 1.367 . S
C181 C180 1.367 . S
C181 C183 1.433 . S
C182 C178 1.350 . S
C182 C179 1.463 . S
C182 N186 1.427 . S
C183 H173 0.929 . S
C183 C181 1.433 . S
C183 N186 1.384 . S
C184 H175 0.929 . S
C184 C176 1.378 . S
C184 C179 1.350 . S
C185 H172 0.929 . S
C185 C177 1.433 . S
C185 N187 1.384 . S
N186 C182 1.427 . S
N186 C183 1.384 . S
N187 C179 1.427 . S
N187 C185 1.384 . S
H188 C194 0.930 . S
H189 C198 0.930 . S
H190 C203 0.929 . S
H191 C201 0.929 . S
H192 C196 0.929 . S
H193 C202 0.929 . S
C194 H188 0.930 . S
C194 C195 1.367 . S
C194 C202 1.378 . S
C195 C194 1.367 . S
C195 C203 1.433 . S
C196 H192 0.929 . S
C196 C198 1.378 . S
C196 C200 1.350 . S
C197 C200 1.463 . S
C197 C202 1.350 . S
C197 N205 1.427 . S
C198 H189 0.930 . S
C198 C196 1.378 . S
C198 C199 1.367 . S
C199 C198 1.367 . S
C199 C201 1.433 . S
C200 C196 1.350 . S
C200 C197 1.463 . S
C200 N204 1.427 . S
C201 H191 0.929 . S
C201 C199 1.433 . S
C201 N204 1.384 . S
C202 H193 0.929 . S
C202 C194 1.378 . S
C202 C197 1.350 . S
C203 H190 0.929 . S
C203 C195 1.433 . S
C203 N205 1.384 . S
N204 C200 1.427 . S
N204 C201 1.384 . S
N205 C197 1.427 . S
N205 C203 1.384 . S
H206 C212 0.930 . S
H207 C216 0.930 . S
H208 C221 0.929 . S
H209 C219 0.929 1_565 S
H210 C214 0.929 . S
H211 C220 0.929 . S
C212 H206 0.930 . S
C212 C213 1.367 . S
C212 C220 1.378 . S
C213 C212 1.367 . S
C213 C221 1.433 . S
C214 H210 0.929 . S
C214 C216 1.378 . S
C214 C218 1.350 . S
C215 C218 1.463 . S
C215 C220 1.350 . S
C215 N223 1.427 . S
C216 H207 0.930 . S
C216 C214 1.378 . S
C216 C217 1.367 . S
C217 C216 1.367 . S
C217 C219 1.433 . S
C218 C214 1.350 . S
C218 C215 1.463 . S
C218 N222 1.427 . S
C219 H209 0.929 1_545 S
C219 C217 1.433 . S
C219 N222 1.384 . S
C220 H211 0.929 . S
C220 C212 1.378 . S
C220 C215 1.350 . S
C221 H208 0.929 . S
C221 C213 1.433 . S
C221 N223 1.384 . S
N222 C218 1.427 . S
N222 C219 1.384 . S
N223 C215 1.427 . S
N223 C221 1.384 . S
H224 C230 0.930 . S
H225 C234 0.930 . S
H226 C239 0.929 . S
H227 C237 0.929 . S
H228 C232 0.929 . S
H229 C238 0.929 . S
C230 H224 0.930 . S
C230 C231 1.367 . S
C230 C238 1.378 . S
C231 C230 1.367 . S
C231 C239 1.433 . S
C232 H228 0.929 . S
C232 C234 1.378 . S
C232 C236 1.350 . S
C233 C236 1.463 . S
C233 C238 1.350 . S
C233 N241 1.427 . S
C234 H225 0.930 . S
C234 C232 1.378 . S
C234 C235 1.367 . S
C235 C234 1.367 . S
C235 C237 1.433 . S
C236 C232 1.350 . S
C236 C233 1.463 . S
C236 N240 1.427 . S
C237 H227 0.929 . S
C237 C235 1.433 . S
C237 N240 1.384 . S
C238 H229 0.929 . S
C238 C230 1.378 . S
C238 C233 1.350 . S
C239 H226 0.929 . S
C239 C231 1.433 . S
C239 N241 1.384 . S
N240 C236 1.427 . S
N240 C237 1.384 . S
N241 C233 1.427 . S
N241 C239 1.384 . S
H242 C248 0.930 . S
H243 C252 0.930 . S
H244 C257 0.929 . S
H245 C255 0.929 . S
H246 C250 0.929 . S
H247 C256 0.929 . S
C248 H242 0.930 . S
C248 C249 1.367 . S
C248 C256 1.378 . S
C249 C248 1.367 . S
C249 C257 1.433 . S
C250 H246 0.929 . S
C250 C252 1.378 . S
C250 C254 1.350 . S
C251 C254 1.463 . S
C251 C256 1.350 . S
C251 N259 1.427 . S
C252 H243 0.930 . S
C252 C250 1.378 . S
C252 C253 1.367 . S
C253 C252 1.367 . S
C253 C255 1.433 . S
C254 C250 1.350 . S
C254 C251 1.463 . S
C254 N258 1.427 . S
C255 H245 0.929 . S
C255 C253 1.433 . S
C255 N258 1.384 . S
C256 H247 0.929 . S
C256 C248 1.378 . S
C256 C251 1.350 . S
C257 H244 0.929 . S
C257 C249 1.433 . S
C257 N259 1.384 . S
N258 C254 1.427 . S
N258 C255 1.384 . S
N259 C251 1.427 . S
N259 C257 1.384 . S
H260 C266 0.930 . S
H261 C270 0.930 . S
H262 C275 0.929 1_655 S
H263 C273 0.929 . S
H264 C268 0.929 . S
H265 C274 0.929 . S
C266 H260 0.930 . S
C266 C267 1.367 . S
C266 C274 1.378 . S
C267 C266 1.367 . S
C267 C275 1.433 . S
C268 H264 0.929 . S
C268 C270 1.378 . S
C268 C272 1.350 1_655 S
C269 C272 1.463 . S
C269 C274 1.350 . S
C269 N277 1.427 . S
C270 H261 0.930 . S
C270 C268 1.378 . S
C270 C271 1.367 1_655 S
C271 C270 1.367 1_455 S
C271 C273 1.433 . S
C272 C268 1.350 1_455 S
C272 C269 1.463 . S
C272 N276 1.427 . S
C273 H263 0.929 . S
C273 C271 1.433 . S
C273 N276 1.384 . S
C274 H265 0.929 . S
C274 C266 1.378 . S
C274 C269 1.350 . S
C275 H262 0.929 1_455 S
C275 C267 1.433 . S
C275 N277 1.384 . S
N276 C272 1.427 . S
N276 C273 1.384 . S
N277 C269 1.427 . S
N277 C275 1.384 . S
C145 C115 1.587 . S
C141 C22 1.587 . S
C163 C126 1.542 . S
C159 C91 1.615 . S
C181 C114 1.620 . S
C177 C38 1.616 . S
C199 C127 1.513 . S
C195 C75 1.579 . S
C217 C129 1.617 . S
C213 C39 1.613 . S
C235 C113 1.515 . S
C231 C82 1.583 . S
C253 C128 1.585 1_655 S
C249 C29 1.584 . S
C267 C92 1.613 . S
C271 C112 1.545 . S
