# Generated by pormake.
# Topology zzz, (3,6)-cn, num edge types: 1
# Building blocks:
#     Node 0, Type 0, BuildingBlock: OLANEW_clean_sbu_2, # of connection points: 3
#     Node 1, Type 0, BuildingBlock: OLANEW_clean_sbu_2, # of connection points: 3
#     Node 2, Type 0, BuildingBlock: OLANEW_clean_sbu_2, # of connection points: 3
#     Node 3, Type 0, BuildingBlock: OLANEW_clean_sbu_2, # of connection points: 3
#     Node 4, Type 0, BuildingBlock: OLANEW_clean_sbu_2, # of connection points: 3
#     Node 5, Type 0, BuildingBlock: OLANEW_clean_sbu_2, # of connection points: 3
#     Node 6, Type 0, BuildingBlock: OLANEW_clean_sbu_2, # of connection points: 3
#     Node 7, Type 0, BuildingBlock: OLANEW_clean_sbu_2, # of connection points: 3
#     Node 8, Type 1, BuildingBlock: BETFAJ_clean_sbu_0, # of connection points: 6
#     Node 9, Type 1, BuildingBlock: BETFAJ_clean_sbu_0, # of connection points: 6
#     Node 10, Type 1, BuildingBlock: BETFAJ_clean_sbu_0, # of connection points: 6
#     Node 11, Type 1, BuildingBlock: BETFAJ_clean_sbu_0, # of connection points: 6
#     Edge 12, Type (0, 1), BuildingBlock: UVAHIK_clean_linker_0, # of connection points: 2
#     Edge 13, Type (0, 1), BuildingBlock: UVAHIK_clean_linker_0, # of connection points: 2
#     Edge 14, Type (0, 1), BuildingBlock: UVAHIK_clean_linker_0, # of connection points: 2
#     Edge 15, Type (0, 1), BuildingBlock: UVAHIK_clean_linker_0, # of connection points: 2
#     Edge 16, Type (0, 1), BuildingBlock: UVAHIK_clean_linker_0, # of connection points: 2
#     Edge 17, Type (0, 1), BuildingBlock: UVAHIK_clean_linker_0, # of connection points: 2
#     Edge 18, Type (0, 1), BuildingBlock: UVAHIK_clean_linker_0, # of connection points: 2
#     Edge 19, Type (0, 1), BuildingBlock: UVAHIK_clean_linker_0, # of connection points: 2
#     Edge 20, Type (0, 1), BuildingBlock: UVAHIK_clean_linker_0, # of connection points: 2
#     Edge 21, Type (0, 1), BuildingBlock: UVAHIK_clean_linker_0, # of connection points: 2
#     Edge 22, Type (0, 1), BuildingBlock: UVAHIK_clean_linker_0, # of connection points: 2
#     Edge 23, Type (0, 1), BuildingBlock: UVAHIK_clean_linker_0, # of connection points: 2
#     Edge 24, Type (0, 1), BuildingBlock: UVAHIK_clean_linker_0, # of connection points: 2
#     Edge 25, Type (0, 1), BuildingBlock: UVAHIK_clean_linker_0, # of connection points: 2
#     Edge 26, Type (0, 1), BuildingBlock: UVAHIK_clean_linker_0, # of connection points: 2
#     Edge 27, Type (0, 1), BuildingBlock: UVAHIK_clean_linker_0, # of connection points: 2
#     Edge 28, Type (0, 1), BuildingBlock: UVAHIK_clean_linker_0, # of connection points: 2
#     Edge 29, Type (0, 1), BuildingBlock: UVAHIK_clean_linker_0, # of connection points: 2
#     Edge 30, Type (0, 1), BuildingBlock: UVAHIK_clean_linker_0, # of connection points: 2
#     Edge 31, Type (0, 1), BuildingBlock: UVAHIK_clean_linker_0, # of connection points: 2
#     Edge 32, Type (0, 1), BuildingBlock: UVAHIK_clean_linker_0, # of connection points: 2
#     Edge 33, Type (0, 1), BuildingBlock: UVAHIK_clean_linker_0, # of connection points: 2
#     Edge 34, Type (0, 1), BuildingBlock: UVAHIK_clean_linker_0, # of connection points: 2
#     Edge 35, Type (0, 1), BuildingBlock: UVAHIK_clean_linker_0, # of connection points: 2
# Relax obj value: 0.222
# Max RMSD: 0.179
# Mean RMSD: 0.169
data_MOF--net-zzz--node1-OLANEW_clean_sbu_2--node2-BETFAJ_clean_sbu_0--edge1-UVAHIK_clean_linker_0
_symmetry_space_group_name_H-M    P1
_symmetry_Int_Tables_number       1
_symmetry_cell_setting            triclinic
loop_
_symmetry_equiv_pos_as_xyz
'x, y, z'
_cell_length_a     71.702764
_cell_length_b     71.821338
_cell_length_c     19.09903
_cell_angle_alpha  89.985579
_cell_angle_beta   90.19169
_cell_angle_gamma 90.005128
loop_
_atom_site_label
_atom_site_type_symbol
_atom_site_fract_x
_atom_site_fract_y
_atom_site_fract_z
_atom_type_partial_charge
O0 O 0.74238 0.53011 0.26651 0.0
Cd1 Cd 0.71214 0.54072 0.31053 0.0
O2 O 0.74671 0.51257 0.35904 0.0
Cd3 Cd 0.76001 0.49079 0.42237 0.0
O4 O 0.76132 0.46467 0.49063 0.0
C5 C 0.77352 0.46042 0.53719 0.0
O6 O 0.76083 0.46421 0.49034 0.0
C7 C 0.75252 0.51875 0.30063 0.0
C8 C 0.68275 0.53343 0.21796 0.0
O9 O 0.69277 0.54812 0.21178 0.0
O10 O 0.68669 0.5221 0.26772 0.0
O11 O 0.96836 0.72861 0.20918 0.0
Cd12 Cd 0.96369 0.70101 0.28139 0.0
O13 O 0.9944 0.7316 0.26796 0.0
Cd14 Cd 0.01654 0.74886 0.31155 0.0
O15 O 0.0204 0.77535 0.36442 0.0
C16 C 0.00674 0.7863 0.35458 0.0
O17 O 0.99268 0.78069 0.31578 0.0
C18 C 0.98316 0.73774 0.22173 0.0
C19 C 0.97412 0.66925 0.20899 0.0
O20 O 0.95717 0.67494 0.20848 0.0
O21 O 0.98612 0.67851 0.24461 0.0
O22 O 0.76815 0.96751 0.23717 0.0
Cd23 Cd 0.79704 0.96076 0.30009 0.0
O24 O 0.76743 0.99517 0.28538 0.0
Cd25 Cd 0.75171 0.01936 0.32039 0.0
O26 O 0.7237 0.02263 0.361 0.0
C27 C 0.7168 0.00714 0.37998 0.0
O28 O 0.7271 0.99208 0.37486 0.0
C29 C 0.75992 0.98298 0.24592 0.0
C30 C 0.82818 0.96835 0.21893 0.0
O31 O 0.81974 0.95266 0.21462 0.0
O32 O 0.82192 0.98049 0.26205 0.0
O33 O 0.54387 0.76732 0.23609 0.0
Cd34 Cd 0.55313 0.79621 0.29379 0.0
O35 O 0.52038 0.76505 0.30868 0.0
Cd36 Cd 0.49622 0.75084 0.35256 0.0
O37 O 0.48473 0.72626 0.40254 0.0
C38 C 0.4772 0.71352 0.36599 0.0
O39 O 0.47454 0.71638 0.29873 0.0
C40 C 0.52985 0.75835 0.2584 0.0
C41 C 0.54447 0.82672 0.21045 0.0
O42 O 0.55985 0.81788 0.20288 0.0
O43 O 0.5332 0.82124 0.25817 0.0
O44 O 0.26479 0.51995 0.07579 0.0
Cd45 Cd 0.29698 0.51995 0.03387 0.0
O46 O 0.25834 0.49718 0.00379 0.0
Cd47 Cd 0.24338 0.47393 0.95491 0.0
O48 O 0.24193 0.44627 0.8961 0.0
C49 C 0.22994 0.44133 0.84981 0.0
O50 O 0.24242 0.44579 0.8966 0.0
C51 C 0.25301 0.50845 0.05103 0.0
C52 C 0.32282 0.51375 0.1413 0.0
O53 O 0.31738 0.53025 0.12575 0.0
O54 O 0.31598 0.50014 0.10623 0.0
O55 O 0.96908 0.27022 0.05715 0.0
Cd56 Cd 0.97235 0.29968 0.99503 0.0
O57 O -0.00057 0.26898 0.04566 0.0
Cd58 Cd 0.02633 0.25513 0.05756 0.0
O59 O 0.04165 0.22998 0.0319 0.0
C60 C 0.04499 0.22738 0.9674 0.0
O61 O 0.04106 0.24076 0.92279 0.0
C62 C 0.98431 0.26154 0.06643 0.0
C63 C 0.98054 0.32787 0.08959 0.0
O64 O 0.9638 0.32517 0.06812 0.0
O65 O 0.99348 0.31739 0.06552 0.0
O66 O 0.22813 0.97184 0.04721 0.0
Cd67 Cd 0.19611 0.96956 0.00494 0.0
O68 O 0.22351 0.00144 0.07089 0.0
Cd69 Cd 0.23665 0.02809 0.09532 0.0
O70 O 0.26498 0.03579 0.06675 0.0
C71 C 0.26886 0.03152 0.00393 0.0
O72 O 0.25555 0.02479 0.96377 0.0
C73 C 0.23416 0.98727 0.07059 0.0
C74 C 0.17141 0.97711 0.11336 0.0
O75 O 0.1774 0.96056 0.10245 0.0
O76 O 0.17695 0.9901 0.07236 0.0
O77 O 0.5338 0.22856 0.06889 0.0
Cd78 Cd 0.53763 0.19687 0.02596 0.0
O79 O 0.5035 0.22477 0.06003 0.0
Cd80 Cd 0.47604 0.23779 0.0568 0.0
O81 O 0.46582 0.26388 0.01367 0.0
C82 C 0.4614 0.27749 0.05265 0.0
O83 O 0.46068 0.27504 0.12072 0.0
C84 C 0.5174 0.2349 0.07634 0.0
C85 C 0.5263 0.17201 0.12917 0.0
O86 O 0.54319 0.17779 0.1262 0.0
O87 O 0.51479 0.17777 0.08246 0.0
Sm88 Sm 0.01234 0.99813 0.76943 0.0
Sm89 Sm -0.0008 0.01241 0.62427 0.0
C90 C 0.01406 0.98121 0.89244 0.0
C91 C 0.01298 0.96185 0.91772 0.0
C92 C 0.00326 0.95795 0.97956 0.0
C93 C 0.00136 0.9396 0.00295 0.0
C94 C 0.00923 0.92479 0.96501 0.0
C95 C 0.01909 0.92875 0.9032 0.0
C96 C 0.02085 0.94711 0.87953 0.0
C97 C 0.03951 7e-05 0.66908 0.0
C98 C 0.99643 0.96833 0.65085 0.0
C99 C 0.99544 0.02816 0.49944 0.0
C100 C 0.99466 0.04685 0.4685 0.0
C101 C 0.99488 0.06283 0.51071 0.0
C102 C 0.99411 0.08053 0.48011 0.0
C103 C 0.99315 0.08249 0.40681 0.0
C104 C 0.99292 0.06636 0.36499 0.0
C105 C 0.99367 0.04871 0.39563 0.0
C106 C 0.97205 0.0094 0.72399 0.0
C107 C 0.01716 0.04178 0.74103 0.0
O108 O 0.99861 0.98807 0.86646 0.0
O109 O 0.02886 0.98584 0.85639 0.0
O110 O 0.02303 0.99461 0.65964 0.0
O111 O 0.04271 0.00365 0.73479 0.0
O112 O -0.0008 0.97208 0.71788 0.0
O113 O 0.99803 0.98122 0.60193 0.0
O114 O 0.01153 0.02303 0.52553 0.0
O115 O 0.98131 0.02335 0.53863 0.0
O116 O 0.98824 0.01569 0.73389 0.0
O117 O 0.96931 0.00525 0.65861 0.0
O118 O 0.0136 0.03803 0.67442 0.0
O119 O 0.0152 0.02918 0.79078 0.0
H120 H 0.997 0.96911 0.00953 0.0
H121 H 0.99382 0.937 0.05103 0.0
H122 H 0.02509 0.91761 0.87239 0.0
H123 H 0.02819 0.94975 0.83104 0.0
H124 H 0.99567 0.06161 0.56718 0.0
H125 H 0.99451 0.09266 0.51373 0.0
H126 H 0.99192 0.06736 0.30852 0.0
H127 H 0.99343 0.03649 0.36237 0.0
Sm128 Sm 0.50065 0.01125 0.76434 0.0
Sm129 Sm 0.48479 0.99661 0.62389 0.0
C130 C 0.51905 0.01581 0.88371 0.0
C131 C 0.53825 0.01336 0.90976 0.0
C132 C 0.54995 -0.0005 0.88237 0.0
C133 C 0.5681 0.9973 0.90822 0.0
C134 C 0.57491 0.00899 0.96164 0.0
C135 C 0.56317 0.02298 0.98831 0.0
C136 C 0.54501 0.02511 0.96263 0.0
C137 C 0.49333 0.03795 0.66512 0.0
C138 C 0.52937 0.99734 0.63981 0.0
C139 C 0.46777 0.99072 0.50252 0.0
C140 C 0.44927 0.99135 0.46869 0.0
C141 C 0.43762 0.007 0.47422 0.0
C142 C 0.42064 0.0076 0.43797 0.0
C143 C 0.41495 0.99254 0.39576 0.0
C144 C 0.42653 0.97677 0.39171 0.0
C145 C 0.44352 0.97622 0.4276 0.0
C146 C 0.49376 0.96995 0.72056 0.0
C147 C 0.45612 0.01171 0.74779 0.0
O148 O 0.50986 0.00063 0.8678 0.0
O149 O 0.5164 0.02926 0.83862 0.0
O150 O 0.50053 0.02226 0.65414 0.0
O151 O 0.4905 0.0406 0.73161 0.0
O152 O 0.52656 -0.00059 0.70781 0.0
O153 O 0.51553 0.99814 0.5942 0.0
O154 O 0.47547 0.00661 0.5198 0.0
O155 O 0.4706 0.97758 0.54878 0.0
O156 O 0.48561 0.98509 0.73358 0.0
O157 O 0.49679 0.96799 0.65396 0.0
O158 O 0.45881 0.00856 0.6802 0.0
O159 O 0.46993 0.01136 0.79361 0.0
H160 H 0.54506 0.99036 0.8411 0.0
H161 H 0.57686 0.98656 0.88592 0.0
H162 H 0.56792 0.03208 0.02991 0.0
H163 H 0.53618 0.0359 0.98434 0.0
H164 H 0.44172 0.01887 0.5057 0.0
H165 H 0.41217 0.02004 0.44184 0.0
H166 H 0.42245 0.96477 0.36091 0.0
H167 H 0.45229 0.96401 0.42273 0.0
Sm168 Sm 0.49259 0.5027 0.76373 0.0
Sm169 Sm 0.50842 0.48552 0.62912 0.0
C170 C 0.4868 0.52185 0.88028 0.0
C171 C 0.48918 0.54102 0.90587 0.0
C172 C 0.5027 0.55288 0.87711 0.0
C173 C 0.50507 0.57091 0.9034 0.0
C174 C 0.49393 0.57742 0.95884 0.0
C175 C 0.48021 0.56552 0.98659 0.0
C176 C 0.47788 0.5475 0.96034 0.0
C177 C 0.46636 0.49351 0.66403 0.0
C178 C 0.50613 0.5302 0.63571 0.0
C179 C 0.51593 0.46715 0.51209 0.0
C180 C 0.514 0.44869 0.47901 0.0
C181 C 0.49701 0.43894 0.47931 0.0
C182 C 0.49534 0.42196 0.44384 0.0
C183 C 0.51063 0.41437 0.40762 0.0
C184 C 0.52769 0.42406 0.40874 0.0
C185 C 0.52932 0.44105 0.44385 0.0
C186 C 0.53443 0.49623 0.72688 0.0
C187 C 0.49226 0.45827 0.75491 0.0
O188 O 0.50208 0.51247 0.86796 0.0
O189 O 0.47392 0.51926 0.83265 0.0
O190 O 0.482 0.50084 0.65279 0.0
O191 O 0.46356 0.49148 0.73085 0.0
O192 O 0.5042 0.52817 0.70412 0.0
O193 O 0.50607 0.51575 0.59302 0.0
O194 O 0.5007 0.47685 0.52158 0.0
O195 O 0.52779 0.46863 0.56396 0.0
O196 O 0.51938 0.48787 0.73963 0.0
O197 O 0.53658 0.49876 0.66006 0.0
O198 O 0.49535 0.46026 0.68695 0.0
O199 O 0.49286 0.4725 0.79834 0.0
H200 H 0.51156 0.54813 0.83488 0.0
H201 H 0.5159 0.57959 0.88125 0.0
H202 H 0.47117 0.57016 0.02842 0.0
H203 H 0.4673 0.53857 0.98286 0.0
H204 H 0.48496 0.44454 0.50612 0.0
H205 H 0.48195 0.41499 0.44365 0.0
H206 H 0.53987 0.41848 0.38273 0.0
H207 H 0.54256 0.44833 0.44305 0.0
Sm208 Sm 0.9971 0.48437 0.75458 0.0
Sm209 Sm 0.00734 0.50135 0.60006 0.0
C210 C 0.98324 0.47673 0.87962 0.0
C211 C 0.96554 0.47981 0.9163 0.0
C212 C 0.95305 0.49362 0.89378 0.0
C213 C 0.93593 0.49592 0.92741 0.0
C214 C 0.93101 0.48446 0.98421 0.0
C215 C 0.94367 0.47073 0.00681 0.0
C216 C 0.96078 0.46842 0.97301 0.0
C217 C 0.00189 0.46002 0.64591 0.0
C218 C 0.96377 0.50117 0.6489 0.0
C219 C 0.01832 0.50201 0.46834 0.0
C220 C 0.03594 0.5059 0.43223 0.0
C221 C 0.0528 0.50595 0.46968 0.0
C222 C 0.06973 0.50795 0.43461 0.0
C223 C 0.07013 0.51011 0.36136 0.0
C224 C 0.05311 0.51061 0.32435 0.0
C225 C 0.03616 0.50847 0.35956 0.0
C226 C 0.00946 0.52813 0.70348 0.0
C227 C 0.04063 0.48911 0.71375 0.0
O228 O 0.99328 0.49155 0.86656 0.0
O229 O 0.98259 0.46506 0.82704 0.0
O230 O 0.99387 0.47556 0.64295 0.0
O231 O 0.0074 0.45627 0.70939 0.0
O232 O 0.96923 0.49653 0.71314 0.0
O233 O 0.97542 0.50246 0.59533 0.0
O234 O 0.01837 0.48692 0.50702 0.0
O235 O 0.01003 0.51621 0.49833 0.0
O236 O 0.00565 0.51119 0.70877 0.0
O237 O 0.01234 0.532 0.6378 0.0
O238 O 0.03549 0.49144 0.64738 0.0
O239 O 0.02859 0.48812 0.76605 0.0
H240 H 0.95652 0.50257 0.85006 0.0
H241 H 0.9266 0.50677 0.90924 0.0
H242 H 0.94021 0.46152 0.04977 0.0
H243 H 0.97022 0.45761 0.99073 0.0
H244 H 0.05289 0.50396 0.52589 0.0
H245 H 0.08251 0.50721 0.46482 0.0
H246 H 0.05288 0.51254 0.26812 0.0
H247 H 0.02325 0.50849 0.3299 0.0
C248 C 0.15415 0.96714 0.22065 0.0
C249 C 0.15857 0.9811 0.1719 0.0
C250 C 0.14211 0.97088 0.27622 0.0
C251 C 0.10422 0.0019 0.32954 0.0
H252 H 0.11519 0.98302 0.51552 0.0
C253 C 0.04869 0.99521 0.54484 0.0
C254 C 0.0537 0.00018 0.61347 0.0
C255 C 0.06206 0.99476 0.492 0.0
C256 C 0.11203 0.98856 0.46407 0.0
H257 H 0.15384 0.00996 0.14327 0.0
H258 H 0.1327 0.01644 0.24029 0.0
H259 H 0.13778 0.97866 0.4215 0.0
H260 H 0.07652 0.00872 0.68082 0.0
H261 H 0.10006 0.00776 0.58815 0.0
H262 H 0.07839 0.01164 0.37194 0.0
C263 C 0.13853 0.00259 0.23526 0.0
C264 C 0.12486 0.98589 0.41012 0.0
C265 C 0.15069 -0.00111 0.1799 0.0
C266 C 0.07231 0.00481 0.6283 0.0
C267 C 0.08576 0.00421 0.57542 0.0
C268 C 0.09133 0.00445 0.38337 0.0
C269 C 0.13414 0.98862 0.28403 0.0
C270 C 0.121 0.99236 0.34214 0.0
C271 C 0.08076 -0.00089 0.50678 0.0
C272 C 0.09501 0.99763 0.451 0.0
H273 H 0.15999 0.95329 0.21598 0.0
H274 H 0.13879 0.95976 0.31247 0.0
H275 H 0.10081 0.00695 0.2776 0.0
H276 H 0.03446 0.99145 0.53201 0.0
H277 H 0.05783 0.99052 0.43988 0.0
C278 C 0.50201 0.15207 0.18635 0.0
C279 C 0.52025 0.15924 0.18546 0.0
C280 C 0.49634 0.14006 0.23987 0.0
C281 C 0.50818 0.12525 0.4198 0.0
H282 H 0.482 0.07985 0.37029 0.0
C283 C 0.48692 0.07079 0.62777 0.0
C284 C 0.49212 0.0525 0.61088 0.0
C285 C 0.48736 0.08476 0.57662 0.0
C286 C 0.48924 0.09252 0.38493 0.0
H287 H 0.54681 0.15953 0.24023 0.0
H288 H 0.53695 0.13855 0.33322 0.0
H289 H 0.48912 0.10271 0.27959 0.0
H290 H 0.50142 0.03433 0.52731 0.0
H291 H 0.50203 0.05853 0.43839 0.0
H292 H 0.50889 0.11476 0.52467 0.0
C293 C 0.52697 0.14235 0.29299 0.0
C294 C 0.49318 0.10566 0.33313 0.0
C295 C 0.53266 0.15425 0.23936 0.0
C296 C 0.49718 0.04828 0.54173 0.0
C297 C 0.49747 0.06214 0.49067 0.0
C298 C 0.50415 0.11215 0.47166 0.0
C299 C 0.50877 0.1351 0.2938 0.0
C300 C 0.50304 0.12199 0.34978 0.0
C301 C 0.49284 0.08058 0.50771 0.0
C302 C 0.49498 0.09547 0.45449 0.0
H303 H 0.4921 0.15569 0.14564 0.0
H304 H 0.48219 0.13479 0.23937 0.0
H305 H 0.51558 0.13783 0.43433 0.0
H306 H 0.48295 0.0744 0.68072 0.0
H307 H 0.48359 0.09884 0.59108 0.0
C308 C 0.34394 0.52562 0.2361 0.0
C309 C 0.33681 0.51057 0.19734 0.0
C310 C 0.35752 0.52274 0.28761 0.0
C311 C 0.37892 0.48655 0.40049 0.0
H312 H 0.41956 0.52204 0.41158 0.0
C313 C 0.45582 0.49708 0.54037 0.0
C314 C 0.45164 0.49241 0.60996 0.0
C315 C 0.44176 0.49787 0.4898 0.0
C316 C 0.40841 0.51188 0.40885 0.0
H317 H 0.33822 0.48064 0.18296 0.0
H318 H 0.3621 0.47566 0.27238 0.0
H319 H 0.39519 0.52628 0.32428 0.0
H320 H 0.42959 0.48423 0.68084 0.0
H321 H 0.40483 0.48582 0.59239 0.0
H322 H 0.39243 0.47198 0.48454 0.0
C323 C 0.35702 0.48966 0.26348 0.0
C324 C 0.39428 0.51447 0.35934 0.0
C325 C 0.34341 0.49254 0.21193 0.0
C326 C 0.43319 0.48788 0.62754 0.0
C327 C 0.41905 0.48872 0.57682 0.0
C328 C 0.39309 0.48396 0.45021 0.0
C329 C 0.36434 0.50475 0.30158 0.0
C330 C 0.37934 0.50186 0.35456 0.0
C331 C 0.42313 0.49409 0.50764 0.0
C332 C 0.40803 0.49659 0.45484 0.0
H333 H 0.3391 0.53967 0.22649 0.0
H334 H 0.36263 0.53464 0.31674 0.0
H335 H 0.36752 0.47666 0.39859 0.0
H336 H 0.46993 0.50059 0.52518 0.0
H337 H 0.44546 0.50168 0.43676 0.0
C338 C 0.00089 0.34126 0.18353 0.0
C339 C 0.98466 0.34231 0.14232 0.0
C340 C 0.0041 0.35422 0.23682 0.0
C341 C 0.97863 0.38858 0.34596 0.0
H342 H 0.02836 0.40522 0.39655 0.0
C343 C 0.99155 0.45072 0.52685 0.0
C344 C 0.00244 0.44701 0.58647 0.0
C345 C 0.99076 0.43799 0.47199 0.0
C346 C 0.01444 0.40055 0.38303 0.0
H347 H 0.95953 0.35819 0.12206 0.0
H348 H 0.96547 0.38126 0.21256 0.0
H349 H 0.02425 0.38337 0.29938 0.0
H350 H 0.02162 0.42751 0.63466 0.0
H351 H 0.02051 0.40518 0.53707 0.0
H352 H 0.96884 0.40628 0.4281 0.0
C353 C 0.9754 0.37005 0.20597 0.0
C354 C 0.01204 0.38801 0.32766 0.0
C355 C 0.97204 0.35691 0.15365 0.0
C356 C 0.01308 0.43062 0.58926 0.0
C357 C 0.01251 0.41794 0.53358 0.0
C358 C 0.98101 0.40131 0.40029 0.0
C359 C 0.99128 0.36867 0.24924 0.0
C360 C 0.99407 0.38194 0.30822 0.0
C361 C 0.00104 0.4214 0.47523 0.0
C362 C 0.9989 0.40745 0.41909 0.0
H363 H 0.01082 0.33007 0.1761 0.0
H364 H 0.01636 0.35255 0.26947 0.0
H365 H 0.96463 0.38386 0.33404 0.0
H366 H 0.98323 0.46329 0.52326 0.0
H367 H 0.98195 0.441 0.4272 0.0
C368 C 0.85621 0.98758 0.18931 0.0
C369 C 0.84453 0.97237 0.17462 0.0
C370 C 0.87153 0.99143 0.1466 0.0
C371 C 0.90124 0.97034 0.00761 0.0
H372 H 0.91302 0.02182 0.96508 0.0
C373 C 0.94373 0.99322 0.76761 0.0
C374 C 0.95862 0.00545 0.78008 0.0
C375 C 0.93115 0.98902 0.8209 0.0
C376 C 0.90998 0.0074 0.9772 0.0
H377 H 0.83961 0.94934 0.10354 0.0
H378 H 0.86579 0.95641 0.02771 0.0
H379 H 0.88832 0.01475 0.04861 0.0
H380 H 0.97209 0.02306 0.85726 0.0
H381 H 0.94963 0.0161 0.95043 0.0
H382 H 0.92238 0.9631 0.93339 0.0
C383 C 0.86358 0.96508 0.07332 0.0
C384 C 0.8959 0.00331 0.02523 0.0
C385 C 0.84845 0.96108 0.11653 0.0
C386 C 0.96067 0.01359 0.84651 0.0
C387 C 0.94787 0.00965 0.89957 0.0
C388 C 0.91509 0.97444 0.95883 0.0
C389 C 0.87535 0.98029 0.08775 0.0
C390 C 0.89118 0.98471 0.04037 0.0
C391 C 0.93308 0.99724 0.8872 0.0
C392 C 0.91942 0.99299 0.94266 0.0
H393 H 0.8536 0.99645 0.23407 0.0
H394 H 0.88043 0.00309 0.16002 0.0
H395 H 0.89835 0.95587 0.01919 0.0
H396 H 0.9419 0.98671 0.71687 0.0
H397 H 0.91975 0.97954 0.81004 0.0
C398 C 0.54979 0.84548 0.10226 0.0
C399 C 0.53968 0.84248 0.16412 0.0
C400 C 0.5448 0.85982 0.0566 0.0
C401 C 0.52139 0.90471 0.04505 0.0
H402 H 0.51444 0.89187 0.84951 0.0
C403 C 0.49212 0.9571 0.84199 0.0
C404 C 0.49926 0.95618 0.77377 0.0
C405 C 0.49701 0.94361 0.89154 0.0
C406 C 0.51661 0.8958 0.90365 0.0
H407 H 0.51672 0.85244 0.22765 0.0
H408 H 0.50821 0.8778 0.14802 0.0
H409 H 0.52343 0.86785 0.93291 0.0
H410 H 0.51754 0.94099 0.70415 0.0
H411 H 0.52661 0.91785 0.79084 0.0
H412 H 0.51507 0.93277 0.01575 0.0
C413 C 0.51991 0.86893 0.13496 0.0
C414 C 0.52166 0.882 0.95141 0.0
C415 C 0.52473 0.85439 0.18023 0.0
C416 C 0.51167 0.94186 0.75624 0.0
C417 C 0.51675 0.92853 0.80588 0.0
C418 C 0.51658 0.91862 0.99704 0.0
C419 C 0.52977 0.87161 0.07236 0.0
C420 C 0.52415 0.88632 0.02243 0.0
C421 C 0.50931 0.92907 0.87393 0.0
C422 C 0.51419 0.91434 0.92563 0.0
H423 H 0.56136 0.83654 0.08838 0.0
H424 H 0.5527 0.86172 0.00888 0.0
H425 H 0.52335 0.90839 0.09958 0.0
H426 H 0.4825 0.96804 0.85667 0.0
H427 H 0.49084 0.94436 0.94312 0.0
C428 C 0.65373 0.51602 0.18467 0.0
C429 C 0.66705 0.52976 0.16932 0.0
C430 C 0.63875 0.51277 0.13917 0.0
C431 C 0.61272 0.5342 0.98998 0.0
H432 H 0.59462 0.48381 0.96324 0.0
C433 C 0.5638 0.51233 0.76279 0.0
C434 C 0.54859 0.50095 0.78022 0.0
C435 C 0.57754 0.51641 0.81262 0.0
C436 C 0.59943 0.49798 0.97072 0.0
H437 H 0.67525 0.5507 0.09366 0.0
H438 H 0.64959 0.54464 0.0132 0.0
H439 H 0.62026 0.48958 0.04454 0.0
H440 H 0.53564 0.48503 0.86333 0.0
H441 H 0.55988 0.49189 0.95024 0.0
H442 H 0.59219 0.5424 0.91418 0.0
C443 C 0.65032 0.53669 0.06131 0.0
C444 C 0.61409 0.50132 0.01752 0.0
C445 C 0.66515 0.54009 0.10724 0.0
C446 C 0.54725 0.49383 0.84852 0.0
C447 C 0.56114 0.49768 0.89809 0.0
C448 C 0.59823 0.5308 0.94252 0.0
C449 C 0.63685 0.52304 0.07673 0.0
C450 C 0.62099 0.51949 0.0277 0.0
C451 C 0.57644 0.50896 0.88054 0.0
C452 C 0.59146 0.51265 0.93232 0.0
H453 H 0.65473 0.50791 0.23236 0.0
H454 H 0.62853 0.50237 0.15355 0.0
H455 H 0.61734 0.54842 0.99739 0.0
H456 H 0.56513 0.51804 0.71054 0.0
H457 H 0.58924 0.52504 0.79755 0.0
C458 C 0.96617 0.64176 0.13457 0.0
C459 C 0.97973 0.65283 0.16765 0.0
C460 C 0.97144 0.6269 0.09198 0.0
C461 C 0.00962 0.61142 0.98095 0.0
H462 H 0.98274 0.56455 0.98096 0.0
C463 C 0.0088 0.56084 0.74671 0.0
C464 C 0.00932 0.5417 0.76108 0.0
C465 C 0.00752 0.57369 0.80135 0.0
C466 C 0.99054 0.57747 0.98084 0.0
H467 H 0.00946 0.65674 0.18346 0.0
H468 H 0.01867 0.63078 0.10846 0.0
H469 H 0.97599 0.58781 0.07047 0.0
H470 H 0.01039 0.521 0.84306 0.0
H471 H 0.00774 0.54336 0.93891 0.0
H472 H 0.02395 0.60119 0.89059 0.0
C473 C 0.00397 0.63369 0.11543 0.0
C474 C 0.98655 0.59083 0.03167 0.0
C475 C 0.99868 0.64848 0.15854 0.0
C476 C 0.0093 0.53563 0.83082 0.0
C477 C 0.00794 0.54844 0.8855 0.0
C478 C 0.01352 0.5981 0.92981 0.0
C479 C 0.99039 0.62288 0.08122 0.0
C480 C 0.99585 0.60804 0.03158 0.0
C481 C 0.00676 0.56759 0.87125 0.0
C482 C 0.00382 0.58111 0.92867 0.0
H483 H 0.95145 0.64473 0.14067 0.0
H484 H 0.96068 0.61893 0.06567 0.0
H485 H 0.01691 0.62462 0.97934 0.0
H486 H 0.0089 0.56586 0.69322 0.0
H487 H 0.00649 0.58836 0.78876 0.0
C488 C 0.99568 0.22874 0.07412 0.0
C489 C 0.98443 0.24309 0.10038 0.0
C490 C 0.99637 0.21147 0.10768 0.0
C491 C 0.97078 0.18143 0.23248 0.0
H492 H 0.01878 0.15706 0.25228 0.0
C493 C 0.98117 0.1154 0.40215 0.0
C494 C 0.99238 0.10124 0.37379 0.0
C495 C 0.98014 0.13286 0.36991 0.0
C496 C 0.00524 0.16359 0.24661 0.0
H497 H 0.96441 0.25051 0.18021 0.0
H498 H 0.96566 0.22034 0.23963 0.0
H499 H 0.0168 0.18705 0.1931 0.0
H500 H 0.01161 0.09448 0.29011 0.0
H501 H 0.0096 0.12481 0.23341 0.0
H502 H 0.95925 0.15793 0.28611 0.0
C503 C 0.97399 0.22239 0.19305 0.0
C504 C 0.0041 0.18078 0.2126 0.0
C505 C 0.9733 0.23967 0.15928 0.0
C506 C 0.00268 0.10501 0.31289 0.0
C507 C 0.00169 0.12247 0.28081 0.0
C508 C 0.97193 0.16423 0.26662 0.0
C509 C 0.98568 0.20813 0.16805 0.0
C510 C 0.98685 0.18989 0.20486 0.0
C511 C 0.99037 0.13659 0.30876 0.0
C512 C 0.98917 0.15507 0.27385 0.0
H513 H 0.00373 0.23079 0.02691 0.0
H514 H 0.00513 0.20067 0.08583 0.0
H515 H 0.95724 0.18792 0.22661 0.0
H516 H 0.97295 0.11289 0.44866 0.0
H517 H 0.97143 0.1435 0.39317 0.0
C518 C 0.2573 -0.00138 0.15819 0.0
C519 C 0.25351 0.98884 0.09623 0.0
C520 C 0.27554 0.00016 0.18326 0.0
C521 C 0.32145 0.97728 0.17473 0.0
H522 H 0.33808 0.02262 0.26589 0.0
C523 C 0.39594 0.98574 0.28774 0.0
C524 C 0.39712 0.9933 0.35562 0.0
C525 C 0.37913 0.9861 0.2505 0.0
C526 C 0.3336 0.00984 0.24087 0.0
H527 H 0.26565 0.97277 0.01206 0.0
H528 H 0.29774 0.97561 0.05538 0.0
H529 H 0.30759 0.02178 0.20891 0.0
H530 H 0.3814 0.00716 0.43733 0.0
H531 H 0.35215 0.00797 0.37194 0.0
H532 H 0.34744 0.96533 0.20718 0.0
C533 C 0.28659 0.98202 0.08491 0.0
C534 C 0.31613 0.00934 0.20824 0.0
C535 C 0.26827 0.9804 0.06002 0.0
C536 C 0.3811 0.00145 0.38486 0.0
C537 C 0.36432 0.00191 0.3474 0.0
C538 C 0.33897 0.97782 0.20705 0.0
C539 C 0.29043 0.99188 0.147 0.0
C540 C 0.30969 0.99295 0.17587 0.0
C541 C 0.36313 0.99414 0.27998 0.0
C542 C 0.34509 0.99401 0.24148 0.0
H543 H 0.24609 0.00486 0.18795 0.0
H544 H 0.2779 0.00748 0.23205 0.0
H545 H 0.31686 0.96436 0.15109 0.0
H546 H 0.40807 0.97968 0.26297 0.0
H547 H 0.3787 0.98021 0.19831 0.0
C548 C 0.52542 0.2688 0.08008 0.0
C549 C 0.51454 0.25385 0.10387 0.0
C550 C 0.52306 0.2866 0.10857 0.0
C551 C 0.50856 0.30957 0.2698 0.0
H552 H 0.50523 0.3542 0.15619 0.0
C553 C 0.49836 0.38164 0.39625 0.0
C554 C 0.50889 0.39644 0.3688 0.0
C555 C 0.4973 0.36461 0.36091 0.0
C556 C 0.50634 0.34189 0.18869 0.0
H557 H 0.49303 0.24552 0.1767 0.0
H558 H 0.48933 0.27647 0.2282 0.0
H559 H 0.50696 0.32371 0.09952 0.0
H560 H 0.52598 0.40507 0.28099 0.0
H561 H 0.52467 0.37525 0.22082 0.0
H562 H 0.50848 0.32753 0.35887 0.0
C563 C 0.4994 0.27456 0.18663 0.0
C564 C 0.50729 0.32445 0.15617 0.0
C565 C 0.50141 0.25691 0.15693 0.0
C566 C 0.51801 0.39389 0.30438 0.0
C567 C 0.51702 0.37684 0.26923 0.0
C568 C 0.50778 0.32696 0.30227 0.0
C569 C 0.51015 0.2896 0.16269 0.0
C570 C 0.50851 0.30813 0.19647 0.0
C571 C 0.50681 0.36191 0.29738 0.0
C572 C 0.50676 0.34338 0.26223 0.0
H573 H 0.53571 0.26671 0.03945 0.0
H574 H 0.53171 0.2979 0.08974 0.0
H575 H 0.50973 0.29723 0.30218 0.0
H576 H 0.49125 0.38303 0.44591 0.0
H577 H 0.48907 0.35353 0.38369 0.0
C578 C 0.23041 0.51528 0.14658 0.0
C579 C 0.23384 0.50801 0.07959 0.0
C580 C 0.21244 0.51525 0.17431 0.0
C581 C 0.16258 0.51187 0.12426 0.0
H582 H 0.15638 0.50244 0.32279 0.0
C583 C 0.09073 0.50191 0.25942 0.0
C584 C 0.08829 0.51107 0.3239 0.0
C585 C 0.10815 0.50174 0.22666 0.0
C586 C 0.15791 0.50525 0.26738 0.0
H587 H 0.2208 0.49594 0.98769 0.0
H588 H 0.18953 0.49502 0.0373 0.0
H589 H 0.18736 0.5009 0.27143 0.0
H590 H 0.10214 0.52795 0.40268 0.0
H591 H 0.13255 0.52733 0.34614 0.0
H592 H 0.13296 0.51593 0.12056 0.0
C593 C 0.20078 0.50079 0.06841 0.0
C594 C 0.17567 0.50441 0.23788 0.0
C595 C 0.2188 0.50094 0.04045 0.0
C596 C 0.10359 0.52043 0.35387 0.0
C597 C 0.12101 0.52011 0.32145 0.0
C598 C 0.14476 0.51256 0.15377 0.0
C599 C 0.19739 0.50791 0.13584 0.0
C600 C 0.17829 0.50792 0.16612 0.0
C601 C 0.12353 0.51059 0.25795 0.0
C602 C 0.14229 0.50946 0.22579 0.0
H603 H 0.24166 0.521 0.17789 0.0
H604 H 0.21033 0.52124 0.2257 0.0
H605 H 0.16408 0.51487 0.069 0.0
H606 H 0.07936 0.49433 0.23525 0.0
H607 H 0.10973 0.49417 0.17799 0.0
C608 C 0.00424 0.7624 0.1733 0.0
C609 C 0.98616 0.75611 0.18868 0.0
C610 C 0.00708 0.78034 0.14673 0.0
C611 C 0.98541 0.8266 0.14261 0.0
H612 H 0.01882 0.8362 0.98757 0.0
C613 C 0.9895 0.8989 0.01269 0.0
C614 C 0.00694 0.90528 0.98948 0.0
C615 C 0.98728 0.88059 0.03604 0.0
C616 C 0.00965 0.83383 0.0316 0.0
H617 H 0.95682 0.76328 0.1856 0.0
H618 H 0.96176 0.79464 0.13945 0.0
H619 H 0.0145 0.80437 0.02932 0.0
H620 H 0.03579 0.89748 0.97315 0.0
H621 H 0.03206 0.86561 0.01529 0.0
H622 H 0.98078 0.85597 0.14622 0.0
C623 C 0.97376 0.78581 0.14873 0.0
C624 C 0.00714 0.81556 0.05532 0.0
C625 C 0.97091 0.76781 0.17455 0.0
C626 C 0.02213 0.89291 0.99004 0.0
C627 C 0.01996 0.87462 0.01403 0.0
C628 C 0.98806 0.84486 0.11946 0.0
C629 C 0.99188 0.79235 0.1353 0.0
C630 C 0.99487 0.81174 0.1107 0.0
C631 C 0.0025 0.86821 0.03743 0.0
C632 C 0.0001 0.84874 0.06323 0.0
H633 H 0.0162 0.75351 0.1823 0.0
H634 H 0.0212 0.78499 0.13686 0.0
H635 H 0.97609 0.82412 0.18613 0.0
H636 H 0.97747 0.90802 0.01184 0.0
H637 H 0.97354 0.8761 0.05215 0.0
C638 C 0.7351 0.00377 0.19548 0.0
C639 C 0.74113 0.98593 0.21554 0.0
C640 C 0.71712 0.00647 0.16861 0.0
C641 C 0.67879 0.98181 0.07986 0.0
H642 H 0.64835 0.02286 0.14516 0.0
C643 C 0.60109 0.9886 0.00394 0.0
C644 C 0.5941 0.0065 0.99 0.0
C645 C 0.61903 0.98624 0.03154 0.0
C646 C 0.65674 0.01147 0.12564 0.0
H647 H 0.73325 0.95684 0.2212 0.0
H648 H 0.70196 0.96149 0.17349 0.0
H649 H 0.67968 0.01853 0.19287 0.0
H650 H 0.60061 0.03597 0.99306 0.0
H651 H 0.63198 0.03187 0.04043 0.0
H652 H 0.65603 0.9748 0.01218 0.0
C653 C 0.71108 0.97342 0.17894 0.0
C654 C 0.67469 0.00898 0.15312 0.0
C655 C 0.729 0.97076 0.20628 0.0
C656 C 0.60549 0.022 0.00408 0.0
C657 C 0.62347 0.01964 0.03139 0.0
C658 C 0.6609 0.98435 0.05214 0.0
C659 C 0.70491 0.99132 0.16005 0.0
C660 C 0.68589 0.99409 0.13064 0.0
C661 C 0.63047 0.00173 0.04559 0.0
C662 C 0.64961 -0.00083 0.07479 0.0
H663 H 0.74438 0.01562 0.19932 0.0
H664 H 0.71291 0.02036 0.15322 0.0
H665 H 0.68719 0.97037 0.06071 0.0
H666 H 0.59257 0.97639 0.99471 0.0
H667 H 0.6238 0.97226 0.04292 0.0
C668 C 0.51967 0.72513 0.26895 0.0
C669 C 0.52504 0.7402 0.22682 0.0
C670 C 0.51578 0.70778 0.23901 0.0
C671 C 0.52439 0.67975 0.07956 0.0
H672 H 0.48348 0.64987 0.14992 0.0
C673 C 0.50079 0.6116 0.94453 0.0
C674 C 0.49679 0.5964 0.98843 0.0
C675 C 0.50375 0.62935 0.97264 0.0
C676 C 0.49505 0.65798 0.13006 0.0
H677 H 0.53088 0.74897 0.12071 0.0
H678 H 0.52371 0.71881 0.06793 0.0
H679 H 0.48952 0.68049 0.20029 0.0
H680 H 0.493 0.58799 0.09661 0.0
H681 H 0.49802 0.61893 0.14541 0.0
H682 H 0.5299 0.65726 0.00904 0.0
C683 C 0.52265 0.72027 0.1242 0.0
C684 C 0.49853 0.67551 0.15906 0.0
C685 C 0.52666 0.73758 0.15428 0.0
C686 C 0.49572 0.59942 0.06109 0.0
C687 C 0.49862 0.61717 0.08914 0.0
C688 C 0.52087 0.66225 0.05034 0.0
C689 C 0.51719 0.70513 0.16621 0.0
C690 C 0.51329 0.6866 0.13441 0.0
C691 C 0.50274 0.63233 0.0453 0.0
C692 C 0.50621 0.65112 0.07541 0.0
H693 H 0.51904 0.72657 0.3253 0.0
H694 H 0.51204 0.69634 0.27315 0.0
H695 H 0.53606 0.68776 0.06001 0.0
H696 H 0.50143 0.60985 0.88827 0.0
H697 H 0.50664 0.64079 0.93734 0.0
C698 C 0.78575 0.50857 0.31539 0.0
C699 C 0.7706 0.51277 0.27138 0.0
C700 C 0.80309 0.50386 0.28706 0.0
C701 C 0.82582 0.48825 0.12307 0.0
H702 H 0.87005 0.51056 0.20494 0.0
C703 C 0.89642 0.48986 0.97966 0.0
C704 C 0.91267 0.48668 0.01929 0.0
C705 C 0.87916 0.4919 0.01253 0.0
C706 C 0.85787 0.50401 0.182 0.0
H707 H 0.76172 0.51555 0.16333 0.0
H708 H 0.79197 0.50758 0.1138 0.0
H709 H 0.83975 0.51576 0.25907 0.0
H710 H 0.92351 0.4833 0.12468 0.0
H711 H 0.89333 0.48659 0.182 0.0
H712 H 0.84392 0.47669 0.04553 0.0
C713 C 0.79041 0.50751 0.17019 0.0
C714 C 0.8405 0.50697 0.21308 0.0
C715 C 0.77312 0.51222 0.19853 0.0
C716 C 0.91124 0.48557 0.09259 0.0
C717 C 0.89398 0.48764 0.12549 0.0
C718 C 0.84318 0.4853 0.09199 0.0
C719 C 0.80564 0.50338 0.21409 0.0
C720 C 0.82424 0.49929 0.18356 0.0
C721 C 0.87773 0.49084 0.08583 0.0
C722 C 0.85939 0.4933 0.12067 0.0
H723 H 0.78442 0.50955 0.37166 0.0
H724 H 0.81452 0.50072 0.32229 0.0
H725 H 0.81361 0.48187 0.0997 0.0
H726 H 0.897 0.49059 0.92306 0.0
H727 H 0.86696 0.49457 0.98048 0.0
C728 C 0.05154 0.2053 0.86942 0.0
C729 C 0.04948 0.20852 0.94155 0.0
C730 C 0.05233 0.18715 0.84348 0.0
C731 C 0.05752 0.13749 0.89341 0.0
H732 H 0.02232 0.12939 0.74176 0.0
C733 C 0.02652 0.06544 0.8307 0.0
C734 C 0.02349 0.06069 0.76021 0.0
C735 C 0.03241 0.08333 0.84887 0.0
C736 C 0.03247 0.13141 0.78323 0.0
H737 H 0.04798 0.19526 0.04351 0.0
H738 H 0.04924 0.16362 0.99818 0.0
H739 H 0.0291 0.16095 0.78013 0.0
H740 H 0.0246 0.07095 0.65332 0.0
H741 H 0.03502 0.1021 0.6851 0.0
H742 H 0.06053 0.10786 0.89739 0.0
C743 C 0.05033 0.1751 0.96166 0.0
C744 C 0.03638 0.14952 0.80518 0.0
C745 C 0.04954 0.19325 0.98763 0.0
C746 C 0.02667 0.07417 0.7082 0.0
C747 C 0.0326 0.09205 0.72639 0.0
C748 C 0.05363 0.11935 0.87131 0.0
C749 C 0.0511 0.17186 0.88915 0.0
C750 C 0.04872 0.15275 0.86122 0.0
C751 C 0.03545 0.09686 0.79695 0.0
C752 C 0.04082 0.11611 0.81675 0.0
H753 H 0.0517 0.21677 0.83258 0.0
H754 H 0.05325 0.18507 0.78742 0.0
H755 H 0.06724 0.13958 0.93623 0.0
H756 H 0.02419 0.05541 0.87212 0.0
H757 H 0.03419 0.08667 0.90378 0.0
C758 C 0.30336 0.0339 0.02441 0.0
C759 C 0.28822 0.03219 0.97793 0.0
C760 C 0.32168 0.03283 -0.00037 0.0
C761 C 0.34856 0.01446 0.85038 0.0
H762 H 0.38799 0.04635 0.92086 0.0
C763 C 0.42175 0.0153 0.7268 0.0
C764 C 0.437 0.0154 0.77325 0.0
C765 C 0.40366 0.01823 0.75148 0.0
C766 C 0.37715 0.03724 0.9011 0.0
H767 H 0.28037 0.02861 0.86899 0.0
H768 H 0.31219 0.02715 0.82575 0.0
H769 H 0.3563 0.04996 0.96545 0.0
H770 H 0.44517 0.01894 0.88206 0.0
H771 H 0.41364 0.02389 0.92492 0.0
H772 H 0.36934 0.00169 0.7863 0.0
C773 C 0.30999 0.02891 0.88143 0.0
C774 C 0.35901 0.0393 0.92669 0.0
C775 C 0.29174 0.02988 0.90618 0.0
C776 C 0.43377 0.01877 0.84473 0.0
C777 C 0.41569 0.02173 0.86935 0.0
C778 C 0.36665 0.01242 0.8248 0.0
C779 C 0.32517 0.03009 0.92791 0.0
C780 C 0.34451 0.02795 0.90145 0.0
C781 C 0.40042 0.02137 0.8231 0.0
C782 C 0.38115 0.0238 0.84978 0.0
H783 H 0.30107 0.03552 0.0801 0.0
H784 H 0.33307 0.03359 0.0369 0.0
H785 H 0.33778 0.00524 0.83083 0.0
H786 H 0.42374 0.01283 0.67137 0.0
H787 H 0.39221 0.01812 0.71438 0.0
C788 C 0.46138 0.31216 0.0659 0.0
C789 C 0.46045 0.29641 0.02241 0.0
C790 C 0.46315 0.32993 0.03691 0.0
C791 C 0.45845 0.35667 0.87146 0.0
H792 H 0.49524 0.38889 0.95825 0.0
C793 C 0.48605 0.42403 0.74013 0.0
C794 C 0.48793 0.43966 0.78388 0.0
C795 C 0.48194 0.40654 0.76857 0.0
C796 C 0.48479 0.38013 0.93378 0.0
H797 H 0.45986 0.287 0.91448 0.0
H798 H 0.46301 0.31794 0.86405 0.0
H799 H 0.48843 0.35873 0.01039 0.0
H800 H 0.48685 0.44915 0.89184 0.0
H801 H 0.47964 0.41884 0.94085 0.0
H802 H 0.45501 0.37809 0.79437 0.0
C803 C 0.46225 0.31662 0.92046 0.0
C804 C 0.48083 0.36288 0.96382 0.0
C805 C 0.46053 0.29886 0.94941 0.0
C806 C 0.48557 0.43743 0.85647 0.0
C807 C 0.48154 0.42001 0.88477 0.0
C808 C 0.46245 0.37394 0.84129 0.0
C809 C 0.46397 0.33232 0.96387 0.0
C810 C 0.4676 0.35094 0.93306 0.0
C811 C 0.47973 0.40436 0.84127 0.0
C812 C 0.47565 0.38586 0.87223 0.0
H813 H 0.46146 0.31073 0.12237 0.0
H814 H 0.4642 0.34178 0.07178 0.0
H815 H 0.44806 0.34787 0.84688 0.0
H816 H 0.48778 0.42527 0.684 0.0
H817 H 0.48078 0.39468 0.73381 0.0
C818 C 0.20379 0.46195 0.89251 0.0
C819 C 0.21256 0.4519 0.83869 0.0
C820 C 0.18606 0.46966 0.88164 0.0
C821 C 0.15211 0.48322 0.74496 0.0
H822 H 0.1146 0.46822 0.8793 0.0
C823 C 0.07378 0.4839 0.67702 0.0
C824 C 0.06079 0.4876 0.73013 0.0
C825 C 0.09275 0.48216 0.69279 0.0
C826 C 0.12488 0.47291 0.84183 0.0
H827 H 0.21004 0.44228 0.73183 0.0
H828 H 0.17933 0.45604 0.71229 0.0
H829 H 0.14735 0.46175 0.90302 0.0
H830 H 0.05765 0.493 0.84123 0.0
H831 H 0.09073 0.49048 0.86843 0.0
H832 H 0.12976 0.49437 0.68356 0.0
C833 C 0.1861 0.45809 0.7625 0.0
C834 C 0.14368 0.46916 0.85553 0.0
C835 C 0.20362 0.45016 0.77371 0.0
C836 C 0.06725 0.48989 0.79916 0.0
C837 C 0.08626 0.48838 0.81482 0.0
C838 C 0.13335 0.48718 0.7316 0.0
C839 C 0.17696 0.4676 0.81671 0.0
C840 C 0.15743 0.47391 0.80653 0.0
C841 C 0.09926 0.48432 0.76197 0.0
C842 C 0.11941 0.48169 0.77909 0.0
H843 H 0.21015 0.46309 0.94378 0.0
H844 H 0.17929 0.47688 0.92434 0.0
H845 H 0.16247 0.48721 0.7066 0.0
H846 H 0.06927 0.48198 0.62331 0.0
H847 H 0.10224 0.47869 0.6508 0.0
C848 C 0.01601 0.80842 0.44961 0.0
C849 C 0.006 0.80473 0.38793 0.0
C850 C 0.01398 0.82551 0.48366 0.0
C851 C 0.98219 0.86646 0.49143 0.0
H852 H 0.02441 0.89001 0.58273 0.0
C853 C 0.9872 0.94448 0.56225 0.0
C854 C 0.99385 0.9488 0.62955 0.0
C855 C 0.98686 0.92605 0.53918 0.0
C856 C 0.01247 0.88345 0.55811 0.0
H857 H 0.98671 0.81614 0.31159 0.0
H858 H 0.98384 0.8462 0.36873 0.0
H859 H 0.02838 0.85968 0.52749 0.0
H860 H 0.00474 0.9372 0.72645 0.0
H861 H 0.00451 0.90501 0.68521 0.0
H862 H 0.9666 0.89079 0.51946 0.0
C863 C 0.99265 0.83574 0.39279 0.0
C864 C 0.0147 0.86606 0.52662 0.0
C865 C 0.99442 0.81857 0.35959 0.0
C866 C -0.00049 0.9343 0.67431 0.0
C867 C -0.00052 0.91591 0.65076 0.0
C868 C 0.98007 0.88398 0.5219 0.0
C869 C 0.00214 0.83933 0.4559 0.0
C870 C -0.00037 0.85743 0.49225 0.0
C871 C 0.99345 0.91171 0.58265 0.0
C872 C 0.99522 0.89264 0.555 0.0
H873 H 0.02493 0.79789 0.47272 0.0
H874 H 0.02135 0.82771 0.53252 0.0
H875 H 0.97016 0.86004 0.46702 0.0
H876 H 0.98269 0.95537 0.5268 0.0
H877 H 0.98223 0.92309 0.48629 0.0
C878 C 0.68611 0.02166 0.41084 0.0
C879 C 0.69755 0.00583 0.40664 0.0
C880 C 0.66789 0.02019 0.43607 0.0
C881 C 0.62677 0.01059 0.45162 0.0
H882 H 0.61709 0.97953 0.61371 0.0
C883 C 0.55214 0.99421 0.54162 0.0
C884 C 0.54868 0.99569 0.61379 0.0
C885 C 0.57038 0.99445 0.51636 0.0
C886 C 0.61959 0.98832 0.56863 0.0
H887 H 0.69882 0.97601 0.4249 0.0
H888 H 0.66709 0.97346 0.46833 0.0
H889 H 0.6489 0.98278 0.57049 0.0
H890 H 0.56171 0.99793 0.71626 0.0
H891 H 0.5935 -0.00154 0.67201 0.0
H892 H 0.59753 0.01645 0.45058 0.0
C893 C 0.67225 0.98705 0.45312 0.0
C894 C 0.63776 0.99004 0.54348 0.0
C895 C 0.69041 0.98851 0.42786 0.0
C896 C 0.56387 0.99676 0.66034 0.0
C897 C 0.58211 0.997 0.63502 0.0
C898 C 0.60859 0.00885 0.47671 0.0
C899 C 0.66081 0.00286 0.45765 0.0
C900 C 0.64154 0.0012 0.48471 0.0
C901 C 0.58554 0.99616 0.56268 0.0
C902 C 0.60481 0.99769 0.53547 0.0
H903 H 0.69122 0.03519 0.39479 0.0
H904 H 0.65944 0.03265 0.43955 0.0
H905 H 0.62922 0.01914 0.40583 0.0
H906 H 0.54077 0.99325 0.50433 0.0
H907 H 0.5726 0.99343 0.46042 0.0
C908 C 0.47161 0.67933 0.35207 0.0
C909 C 0.47528 0.69464 0.3958 0.0
C910 C 0.47337 0.66118 0.37765 0.0
C911 C 0.47661 0.63299 0.53873 0.0
H912 H 0.50838 0.60106 0.42687 0.0
C913 C 0.50613 0.56481 0.65012 0.0
C914 C 0.50561 0.54918 0.60595 0.0
C915 C 0.50273 0.58258 0.62333 0.0
C916 C 0.49931 0.60969 0.45838 0.0
H917 H 0.4821 0.70296 0.5021 0.0
H918 H 0.48491 0.67135 0.5468 0.0
H919 H 0.49934 0.63156 0.38225 0.0
H920 H 0.50192 0.54003 0.49847 0.0
H921 H 0.49576 0.57094 0.45204 0.0
H922 H 0.47647 0.61115 0.61475 0.0
C923 C 0.48088 0.67335 0.4926 0.0
C924 C 0.49409 0.62714 0.43272 0.0
C925 C 0.47932 0.69146 0.46688 0.0
C926 C 0.50251 0.55179 0.53392 0.0
C927 C 0.49899 0.56954 0.50722 0.0
C928 C 0.48172 0.6155 0.56422 0.0
C929 C 0.47853 0.65804 0.4477 0.0
C930 C 0.4828 0.63901 0.47286 0.0
C931 C 0.49863 0.58509 0.55189 0.0
C932 C 0.49326 0.6037 0.52461 0.0
H933 H 0.46818 0.68131 0.29736 0.0
H934 H 0.47117 0.64961 0.34222 0.0
H935 H 0.46777 0.64181 0.57049 0.0
H936 H 0.50862 0.5633 0.7058 0.0
H937 H 0.503 0.59433 0.65888 0.0
C938 C 0.79958 0.48006 0.48748 0.0
C939 C 0.79112 0.47088 0.54413 0.0
C940 C 0.81732 0.48801 0.49525 0.0
C941 C 0.85205 0.50312 0.62811 0.0
H942 H 0.88864 0.48866 0.48947 0.0
C943 C 0.93052 0.49992 0.68896 0.0
C944 C 0.94349 0.5035 0.63558 0.0
C945 C 0.91139 0.50002 0.67477 0.0
C946 C 0.87859 0.49321 0.52803 0.0
H947 H 0.79433 0.46281 0.65254 0.0
H948 H 0.82513 0.47679 0.66646 0.0
H949 H 0.8558 0.48181 0.46931 0.0
H950 H 0.94638 0.51095 0.52599 0.0
H951 H 0.91299 0.51139 0.50158 0.0
H952 H 0.87484 0.51418 0.68756 0.0
C953 C 0.81806 0.47814 0.6165 0.0
C954 C 0.85973 0.48925 0.51643 0.0
C955 C 0.80049 0.47006 0.60849 0.0
C956 C 0.93681 0.50799 0.56832 0.0
C957 C 0.91765 0.50814 0.55417 0.0
C958 C 0.87088 0.50718 0.63954 0.0
C959 C 0.82681 0.48698 0.55975 0.0
C960 C 0.84632 0.4937 0.56721 0.0
C961 C 0.90471 0.50377 0.60689 0.0
C962 C 0.88446 0.50181 0.59055 0.0
H963 H 0.79293 0.48036 0.4366 0.0
H964 H 0.82375 0.49468 0.45057 0.0
H965 H 0.84199 0.50699 0.66771 0.0
H966 H 0.93509 0.49637 0.74138 0.0
H967 H 0.9019 0.49634 0.71655 0.0
loop_
_geom_bond_atom_site_label_1
_geom_bond_atom_site_label_2
_geom_bond_distance
_geom_bond_site_symmetry_2
_ccdc_geom_bond_type
O0 Cd1 2.300 . S
O0 C7 1.275 . S
Cd1 O0 2.300 . S
Cd1 O9 2.381 . S
Cd1 O10 2.378 . S
O2 Cd3 2.385 . S
O2 C7 1.255 . S
Cd3 O2 2.385 . S
Cd3 O4 2.317 . S
O4 Cd3 2.317 . S
O4 C5 1.232 . S
C5 O4 1.232 . S
C5 O6 1.218 . S
O6 C5 1.218 . S
C7 O0 1.275 . S
C7 O2 1.255 . S
C8 O9 1.258 . S
C8 O10 1.256 . S
O9 Cd1 2.381 . S
O9 C8 1.258 . S
O10 Cd1 2.378 . S
O10 C8 1.256 . S
O11 Cd12 2.300 1_655 S
O11 C18 1.275 1_655 S
Cd12 O11 2.300 1_455 S
Cd12 O20 2.381 1_455 S
Cd12 O21 2.378 . S
O13 Cd14 2.385 . S
O13 C18 1.255 . S
Cd14 O13 2.385 . S
Cd14 O15 2.317 . S
O15 Cd14 2.317 . S
O15 C16 1.232 . S
C16 O15 1.232 . S
C16 O17 1.218 . S
O17 C16 1.218 . S
C18 O11 1.275 1_455 S
C18 O13 1.255 . S
C19 O20 1.228 1_455 S
C19 O21 1.298 . S
O20 Cd12 2.381 1_655 S
O20 C19 1.228 1_655 S
O21 Cd12 2.378 . S
O21 C19 1.298 . S
O22 Cd23 2.300 1_565 S
O22 C29 1.275 1_565 S
Cd23 O22 2.300 1_545 S
Cd23 O31 2.381 1_545 S
Cd23 O32 2.378 . S
O24 Cd25 2.385 . S
O24 C29 1.255 . S
Cd25 O24 2.385 . S
Cd25 O26 2.317 . S
O26 Cd25 2.317 . S
O26 C27 1.232 . S
C27 O26 1.232 . S
C27 O28 1.218 . S
O28 C27 1.218 . S
C29 O22 1.275 1_545 S
C29 O24 1.255 . S
C30 O31 1.251 1_545 S
C30 O32 1.265 . S
O31 Cd23 2.381 1_565 S
O31 C30 1.251 1_565 S
O32 Cd23 2.378 . S
O32 C30 1.265 . S
O33 Cd34 2.300 . S
O33 C40 1.275 . S
Cd34 O33 2.300 . S
Cd34 O42 2.381 . S
Cd34 O43 2.378 . S
O35 Cd36 2.385 . S
O35 C40 1.255 . S
Cd36 O35 2.385 . S
Cd36 O37 2.317 . S
O37 Cd36 2.317 . S
O37 C38 1.232 . S
C38 O37 1.232 . S
C38 O39 1.218 . S
O39 C38 1.218 . S
C40 O33 1.275 . S
C40 O35 1.255 . S
C41 O42 1.258 . S
C41 O43 1.256 . S
O42 Cd34 2.381 . S
O42 C41 1.258 . S
O43 Cd34 2.378 . S
O43 C41 1.256 . S
O44 Cd45 2.300 . S
O44 C51 1.275 . S
Cd45 O44 2.300 . S
Cd45 O53 2.381 . S
Cd45 O54 2.378 . S
O46 Cd47 2.385 1_554 S
O46 C51 1.255 . S
Cd47 O46 2.385 1_556 S
Cd47 O48 2.317 . S
O48 Cd47 2.317 . S
O48 C49 1.232 . S
C49 O48 1.232 . S
C49 O50 1.218 . S
O50 C49 1.218 . S
C51 O44 1.275 . S
C51 O46 1.255 . S
C52 O53 1.258 . S
C52 O54 1.256 . S
O53 Cd45 2.381 . S
O53 C52 1.258 . S
O54 Cd45 2.378 . S
O54 C52 1.256 . S
O55 Cd56 2.324 . S
O55 C62 1.295 . S
Cd56 O55 2.324 . S
Cd56 O64 2.381 1_455 S
Cd56 O65 2.378 . S
O57 Cd58 2.385 1_554 S
O57 C62 1.255 . S
Cd58 O57 2.385 1_556 S
Cd58 O59 2.317 . S
O59 Cd58 2.317 . S
O59 C60 1.232 . S
C60 O59 1.232 . S
C60 O61 1.218 . S
O61 C60 1.218 . S
C62 O55 1.295 . S
C62 O57 1.255 . S
C63 O64 1.258 1_455 S
C63 O65 1.256 . S
O64 Cd56 2.381 1_655 S
O64 C63 1.258 1_655 S
O65 Cd56 2.378 . S
O65 C63 1.256 . S
O66 Cd67 2.288 1_565 S
O66 C73 1.265 1_565 S
Cd67 O66 2.288 1_545 S
Cd67 O75 2.381 1_545 S
Cd67 O76 2.378 . S
O68 Cd69 2.385 1_554 S
O68 C73 1.255 . S
Cd69 O68 2.385 1_556 S
Cd69 O70 2.317 . S
O70 Cd69 2.317 . S
O70 C71 1.232 . S
C71 O70 1.232 . S
C71 O72 1.218 . S
O72 C71 1.218 . S
C73 O66 1.265 1_545 S
C73 O68 1.255 . S
C74 O75 1.258 1_545 S
C74 O76 1.256 . S
O75 Cd67 2.381 1_565 S
O75 C74 1.258 1_565 S
O76 Cd67 2.378 . S
O76 C74 1.256 . S
O77 Cd78 2.300 . S
O77 C84 1.275 . S
Cd78 O77 2.300 . S
Cd78 O86 2.381 . S
Cd78 O87 2.378 . S
O79 Cd80 2.385 1_554 S
O79 C84 1.255 . S
Cd80 O79 2.385 1_556 S
Cd80 O81 2.317 . S
O81 Cd80 2.317 . S
O81 C82 1.232 . S
C82 O81 1.232 . S
C82 O83 1.218 . S
O83 C82 1.218 . S
C84 O77 1.275 . S
C84 O79 1.255 . S
C85 O86 1.258 . S
C85 O87 1.256 . S
O86 Cd78 2.381 . S
O86 C85 1.258 . S
O87 Cd78 2.378 . S
O87 C85 1.256 . S
Sm88 C90 2.846 . S
Sm88 O108 2.543 . S
Sm88 O109 2.450 . S
Sm88 O110 2.681 1_565 S
Sm88 O111 2.464 . S
Sm88 O112 2.396 . S
Sm88 O116 2.386 1_455 S
Sm88 O119 2.408 1_565 S
Sm89 C99 2.846 . S
Sm89 O110 2.386 1_655 S
Sm89 O113 2.408 1_545 S
Sm89 O114 2.543 1_655 S
Sm89 O115 2.450 . S
Sm89 O116 2.681 1_545 S
Sm89 O117 2.464 . S
Sm89 O118 2.396 . S
C90 Sm88 2.846 . S
C90 C91 1.506 . S
C90 O108 1.261 . S
C90 O109 1.242 . S
C91 C90 1.506 . S
C91 C92 1.358 . S
C91 C96 1.382 . S
C92 C91 1.358 . S
C92 C93 1.385 . S
C92 H120 0.930 1_455 S
C93 C92 1.385 . S
C93 C94 1.395 . S
C93 H121 0.929 1_455 S
C94 C93 1.395 . S
C94 C95 1.335 . S
C95 C94 1.335 . S
C95 C96 1.398 . S
C95 H122 0.930 . S
C96 C91 1.382 . S
C96 C95 1.398 . S
C96 H123 0.929 . S
C97 O110 1.271 1_565 S
C97 O111 1.251 . S
C98 O112 1.252 1_655 S
C98 O113 1.272 . S
C99 Sm89 2.846 . S
C99 C100 1.506 . S
C99 O114 1.261 1_655 S
C99 O115 1.242 . S
C100 C99 1.506 . S
C100 C101 1.376 . S
C100 C105 1.382 . S
C101 C100 1.376 . S
C101 C102 1.388 . S
C101 H124 0.910 1_655 S
C102 C101 1.388 . S
C102 C103 1.395 . S
C102 H125 0.929 1_655 S
C103 C102 1.395 . S
C103 C104 1.335 . S
C104 C103 1.335 . S
C104 C105 1.398 . S
C104 H126 0.930 . S
C105 C100 1.382 . S
C105 C104 1.398 . S
C105 H127 0.929 . S
C106 O116 1.271 1_545 S
C106 O117 1.251 . S
C107 O118 1.252 1_455 S
C107 O119 1.272 . S
O108 Sm88 2.543 . S
O108 C90 1.261 . S
O109 Sm88 2.450 . S
O109 C90 1.242 . S
O110 Sm88 2.681 1_545 S
O110 Sm89 2.386 1_455 S
O110 C97 1.271 1_545 S
O111 Sm88 2.464 . S
O111 C97 1.251 . S
O112 Sm88 2.396 . S
O112 C98 1.252 1_455 S
O113 Sm89 2.408 1_565 S
O113 C98 1.272 . S
O114 Sm89 2.543 1_455 S
O114 C99 1.261 1_455 S
O115 Sm89 2.450 . S
O115 C99 1.242 . S
O116 Sm88 2.386 1_655 S
O116 Sm89 2.681 1_565 S
O116 C106 1.271 1_565 S
O117 Sm89 2.464 . S
O117 C106 1.251 . S
O118 Sm89 2.396 . S
O118 C107 1.252 1_655 S
O119 Sm88 2.408 1_545 S
O119 C107 1.272 . S
H120 C92 0.930 1_655 S
H121 C93 0.929 1_655 S
H122 C95 0.930 . S
H123 C96 0.929 . S
H124 C101 0.910 1_455 S
H125 C102 0.929 1_455 S
H126 C104 0.930 . S
H127 C105 0.929 . S
Sm128 C130 2.846 . S
Sm128 O148 2.545 . S
Sm128 O149 2.450 . S
Sm128 O150 2.681 . S
Sm128 O151 2.464 . S
Sm128 O152 2.396 . S
Sm128 O156 2.386 1_545 S
Sm128 O159 2.408 . S
Sm129 C139 2.846 . S
Sm129 O150 2.386 1_565 S
Sm129 O153 2.408 . S
Sm129 O154 2.543 1_565 S
Sm129 O155 2.450 . S
Sm129 O156 2.681 . S
Sm129 O157 2.464 . S
Sm129 O158 2.396 . S
C130 Sm128 2.846 . S
C130 C131 1.506 . S
C130 O148 1.266 . S
C130 O149 1.242 . S
C131 C130 1.506 . S
C131 C132 1.358 . S
C131 C136 1.382 . S
C132 C131 1.358 . S
C132 C133 1.385 . S
C132 H160 0.930 1_545 S
C133 C132 1.385 . S
C133 C134 1.395 . S
C133 H161 0.929 1_545 S
C134 C133 1.395 . S
C134 C135 1.335 . S
C135 C134 1.335 . S
C135 C136 1.398 . S
C135 H162 0.930 . S
C136 C131 1.382 . S
C136 C135 1.398 . S
C136 H163 0.929 . S
C137 O150 1.271 . S
C137 O151 1.251 . S
C138 O152 1.252 1_565 S
C138 O153 1.272 . S
C139 Sm129 2.846 . S
C139 C140 1.506 . S
C139 O154 1.261 1_565 S
C139 O155 1.242 . S
C140 C139 1.506 . S
C140 C141 1.358 . S
C140 C145 1.382 . S
C141 C140 1.358 . S
C141 C142 1.385 . S
C141 H164 0.930 1_565 S
C142 C141 1.385 . S
C142 C143 1.395 . S
C142 H165 0.929 1_565 S
C143 C142 1.395 . S
C143 C144 1.335 . S
C144 C143 1.335 . S
C144 C145 1.398 . S
C144 H166 0.930 . S
C145 C140 1.382 . S
C145 C144 1.398 . S
C145 H167 0.929 . S
C146 O156 1.271 . S
C146 O157 1.251 . S
C147 O158 1.252 1_545 S
C147 O159 1.272 . S
O148 Sm128 2.545 . S
O148 C130 1.266 . S
O149 Sm128 2.450 . S
O149 C130 1.242 . S
O150 Sm128 2.681 . S
O150 Sm129 2.386 1_545 S
O150 C137 1.271 . S
O151 Sm128 2.464 . S
O151 C137 1.251 . S
O152 Sm128 2.396 . S
O152 C138 1.252 1_545 S
O153 Sm129 2.408 . S
O153 C138 1.272 . S
O154 Sm129 2.543 1_545 S
O154 C139 1.261 1_545 S
O155 Sm129 2.450 . S
O155 C139 1.242 . S
O156 Sm128 2.386 1_565 S
O156 Sm129 2.681 . S
O156 C146 1.271 . S
O157 Sm129 2.464 . S
O157 C146 1.251 . S
O158 Sm129 2.396 . S
O158 C147 1.252 1_565 S
O159 Sm128 2.408 . S
O159 C147 1.272 . S
H160 C132 0.930 1_565 S
H161 C133 0.929 1_565 S
H162 C135 0.930 . S
H163 C136 0.929 . S
H164 C141 0.930 1_545 S
H165 C142 0.929 1_545 S
H166 C144 0.930 . S
H167 C145 0.929 . S
Sm168 C170 2.846 . S
Sm168 O188 2.543 . S
Sm168 O189 2.450 . S
Sm168 O190 2.681 . S
Sm168 O191 2.464 . S
Sm168 O192 2.396 . S
Sm168 O196 2.386 . S
Sm168 O199 2.408 . S
Sm169 C179 2.846 . S
Sm169 O190 2.386 . S
Sm169 O193 2.408 . S
Sm169 O194 2.543 . S
Sm169 O195 2.450 . S
Sm169 O196 2.681 . S
Sm169 O197 2.464 . S
Sm169 O198 2.396 . S
C170 Sm168 2.846 . S
C170 C171 1.506 . S
C170 O188 1.261 . S
C170 O189 1.242 . S
C171 C170 1.506 . S
C171 C172 1.358 . S
C171 C176 1.382 . S
C172 C171 1.358 . S
C172 C173 1.385 . S
C172 H200 0.930 . S
C173 C172 1.385 . S
C173 C174 1.395 . S
C173 H201 0.929 . S
C174 C173 1.395 . S
C174 C175 1.335 . S
C175 C174 1.335 . S
C175 C176 1.398 . S
C175 H202 0.930 . S
C176 C171 1.382 . S
C176 C175 1.398 . S
C176 H203 0.929 . S
C177 O190 1.271 . S
C177 O191 1.251 . S
C178 O192 1.252 . S
C178 O193 1.272 . S
C179 Sm169 2.846 . S
C179 C180 1.506 . S
C179 O194 1.261 . S
C179 O195 1.242 . S
C180 C179 1.506 . S
C180 C181 1.358 . S
C180 C185 1.382 . S
C181 C180 1.358 . S
C181 C182 1.385 . S
C181 H204 0.930 . S
C182 C181 1.385 . S
C182 C183 1.395 . S
C182 H205 0.929 . S
C183 C182 1.395 . S
C183 C184 1.335 . S
C184 C183 1.335 . S
C184 C185 1.398 . S
C184 H206 0.930 . S
C185 C180 1.382 . S
C185 C184 1.398 . S
C185 H207 0.929 . S
C186 O196 1.271 . S
C186 O197 1.251 . S
C187 O198 1.252 . S
C187 O199 1.272 . S
O188 Sm168 2.543 . S
O188 C170 1.261 . S
O189 Sm168 2.450 . S
O189 C170 1.242 . S
O190 Sm168 2.681 . S
O190 Sm169 2.386 . S
O190 C177 1.271 . S
O191 Sm168 2.464 . S
O191 C177 1.251 . S
O192 Sm168 2.396 . S
O192 C178 1.252 . S
O193 Sm169 2.408 . S
O193 C178 1.272 . S
O194 Sm169 2.543 . S
O194 C179 1.261 . S
O195 Sm169 2.450 . S
O195 C179 1.242 . S
O196 Sm168 2.386 . S
O196 Sm169 2.681 . S
O196 C186 1.271 . S
O197 Sm169 2.464 . S
O197 C186 1.251 . S
O198 Sm169 2.396 . S
O198 C187 1.252 . S
O199 Sm168 2.408 . S
O199 C187 1.272 . S
H200 C172 0.930 . S
H201 C173 0.929 . S
H202 C175 0.930 . S
H203 C176 0.929 . S
H204 C181 0.930 . S
H205 C182 0.929 . S
H206 C184 0.930 . S
H207 C185 0.929 . S
Sm208 C210 2.846 . S
Sm208 O228 2.543 . S
Sm208 O229 2.450 . S
Sm208 O230 2.681 1_655 S
Sm208 O231 2.464 . S
Sm208 O232 2.396 . S
Sm208 O236 2.386 . S
Sm208 O239 2.408 1_655 S
Sm209 C219 2.846 . S
Sm209 O230 2.386 . S
Sm209 O233 2.408 1_455 S
Sm209 O234 2.543 . S
Sm209 O235 2.450 . S
Sm209 O236 2.681 1_455 S
Sm209 O237 2.464 . S
Sm209 O238 2.396 . S
C210 Sm208 2.846 . S
C210 C211 1.506 . S
C210 O228 1.261 . S
C210 O229 1.242 . S
C211 C210 1.506 . S
C211 C212 1.358 . S
C211 C216 1.382 . S
C212 C211 1.358 . S
C212 C213 1.385 . S
C212 H240 0.930 . S
C213 C212 1.385 . S
C213 C214 1.395 . S
C213 H241 0.929 . S
C214 C213 1.395 . S
C214 C215 1.335 . S
C215 C214 1.335 . S
C215 C216 1.398 . S
C215 H242 0.930 . S
C216 C211 1.382 . S
C216 C215 1.398 . S
C216 H243 0.929 . S
C217 O230 1.290 . S
C217 O231 1.224 1_455 S
C218 O232 1.252 . S
C218 O233 1.272 . S
C219 Sm209 2.846 . S
C219 C220 1.506 . S
C219 O234 1.261 . S
C219 O235 1.242 . S
C220 C219 1.506 . S
C220 C221 1.358 . S
C220 C225 1.382 . S
C221 C220 1.358 . S
C221 C222 1.385 . S
C221 H244 0.930 . S
C222 C221 1.385 . S
C222 C223 1.395 . S
C222 H245 0.929 . S
C223 C222 1.395 . S
C223 C224 1.335 . S
C224 C223 1.335 . S
C224 C225 1.398 . S
C224 H246 0.930 . S
C225 C220 1.382 . S
C225 C224 1.398 . S
C225 H247 0.929 . S
C226 O236 1.271 1_455 S
C226 O237 1.251 . S
C227 O238 1.252 . S
C227 O239 1.272 . S
O228 Sm208 2.543 . S
O228 C210 1.261 . S
O229 Sm208 2.450 . S
O229 C210 1.242 . S
O230 Sm208 2.681 1_455 S
O230 Sm209 2.386 . S
O230 C217 1.290 . S
O231 Sm208 2.464 . S
O231 C217 1.224 1_655 S
O232 Sm208 2.396 . S
O232 C218 1.252 . S
O233 Sm209 2.408 1_655 S
O233 C218 1.272 . S
O234 Sm209 2.543 . S
O234 C219 1.261 . S
O235 Sm209 2.450 . S
O235 C219 1.242 . S
O236 Sm208 2.386 . S
O236 Sm209 2.681 1_655 S
O236 C226 1.271 1_655 S
O237 Sm209 2.464 . S
O237 C226 1.251 . S
O238 Sm209 2.396 . S
O238 C227 1.252 . S
O239 Sm208 2.408 1_455 S
O239 C227 1.272 . S
H240 C212 0.930 . S
H241 C213 0.929 . S
H242 C215 0.930 . S
H243 C216 0.929 . S
H244 C221 0.930 . S
H245 C222 0.929 . S
H246 C224 0.930 . S
H247 C225 0.929 . S
C248 C249 1.349 1_565 S
C248 C250 1.327 . S
C248 H273 0.950 . S
C249 C248 1.349 1_545 S
C249 C265 1.349 . S
C250 C248 1.327 . S
C250 C269 1.429 1_565 S
C250 H274 0.950 . S
C251 C268 1.574 . S
C251 C270 1.368 . S
C251 H275 0.949 . S
H252 C256 0.949 . S
C253 C254 1.349 . S
C253 C255 1.327 . S
C253 H276 0.950 . S
C254 C253 1.349 . S
C254 C266 1.349 1_545 S
C255 C253 1.327 . S
C255 C271 1.429 . S
C255 H277 0.950 . S
C256 H252 0.949 . S
C256 C264 1.574 . S
C256 C272 1.368 1_565 S
H257 C265 0.950 . S
H258 C263 0.950 . S
H259 C264 0.949 . S
H260 C266 0.950 . S
H261 C267 0.950 . S
H262 C268 0.949 . S
C263 H258 0.950 . S
C263 C265 1.327 . S
C263 C269 1.429 . S
C264 C256 1.574 . S
C264 H259 0.949 . S
C264 C270 1.368 1_565 S
C265 C249 1.349 . S
C265 H257 0.950 . S
C265 C263 1.327 . S
C266 C254 1.349 1_565 S
C266 H260 0.950 . S
C266 C267 1.327 . S
C267 H261 0.950 . S
C267 C266 1.327 . S
C267 C271 1.429 1_565 S
C268 C251 1.574 . S
C268 H262 0.949 . S
C268 C272 1.368 . S
C269 C250 1.429 1_545 S
C269 C263 1.429 . S
C269 C270 1.523 . S
C270 C251 1.368 . S
C270 C264 1.368 1_545 S
C270 C269 1.523 . S
C271 C255 1.429 . S
C271 C267 1.429 1_545 S
C271 C272 1.523 . S
C272 C256 1.368 1_545 S
C272 C268 1.368 . S
C272 C271 1.523 . S
H273 C248 0.950 . S
H274 C250 0.950 . S
H275 C251 0.949 . S
H276 C253 0.950 . S
H277 C255 0.950 . S
C278 C279 1.349 . S
C278 C280 1.327 . S
C278 H303 0.950 . S
C279 C278 1.349 . S
C279 C295 1.349 . S
C280 C278 1.327 . S
C280 C299 1.429 . S
C280 H304 0.950 . S
C281 C298 1.574 . S
C281 C300 1.368 . S
C281 H305 0.949 . S
H282 C286 0.949 . S
C283 C284 1.349 . S
C283 C285 1.327 . S
C283 H306 0.950 . S
C284 C283 1.349 . S
C284 C296 1.349 . S
C285 C283 1.327 . S
C285 C301 1.429 . S
C285 H307 0.950 . S
C286 H282 0.949 . S
C286 C294 1.574 . S
C286 C302 1.368 . S
H287 C295 0.950 . S
H288 C293 0.950 . S
H289 C294 0.949 . S
H290 C296 0.950 . S
H291 C297 0.950 . S
H292 C298 0.949 . S
C293 H288 0.950 . S
C293 C295 1.327 . S
C293 C299 1.429 . S
C294 C286 1.574 . S
C294 H289 0.949 . S
C294 C300 1.368 . S
C295 C279 1.349 . S
C295 H287 0.950 . S
C295 C293 1.327 . S
C296 C284 1.349 . S
C296 H290 0.950 . S
C296 C297 1.327 . S
C297 H291 0.950 . S
C297 C296 1.327 . S
C297 C301 1.429 . S
C298 C281 1.574 . S
C298 H292 0.949 . S
C298 C302 1.368 . S
C299 C280 1.429 . S
C299 C293 1.429 . S
C299 C300 1.523 . S
C300 C281 1.368 . S
C300 C294 1.368 . S
C300 C299 1.523 . S
C301 C285 1.429 . S
C301 C297 1.429 . S
C301 C302 1.523 . S
C302 C286 1.368 . S
C302 C298 1.368 . S
C302 C301 1.523 . S
H303 C278 0.950 . S
H304 C280 0.950 . S
H305 C281 0.949 . S
H306 C283 0.950 . S
H307 C285 0.950 . S
C308 C309 1.349 . S
C308 C310 1.327 . S
C308 H333 0.950 . S
C309 C308 1.349 . S
C309 C325 1.349 . S
C310 C308 1.327 . S
C310 C329 1.429 . S
C310 H334 0.950 . S
C311 C328 1.574 . S
C311 C330 1.368 . S
C311 H335 0.949 . S
H312 C316 0.949 . S
C313 C314 1.349 . S
C313 C315 1.327 . S
C313 H336 0.950 . S
C314 C313 1.349 . S
C314 C326 1.349 . S
C315 C313 1.327 . S
C315 C331 1.429 . S
C315 H337 0.950 . S
C316 H312 0.949 . S
C316 C324 1.574 . S
C316 C332 1.368 . S
H317 C325 0.950 . S
H318 C323 0.950 . S
H319 C324 0.949 . S
H320 C326 0.950 . S
H321 C327 0.950 . S
H322 C328 0.949 . S
C323 H318 0.950 . S
C323 C325 1.327 . S
C323 C329 1.429 . S
C324 C316 1.574 . S
C324 H319 0.949 . S
C324 C330 1.368 . S
C325 C309 1.349 . S
C325 H317 0.950 . S
C325 C323 1.327 . S
C326 C314 1.349 . S
C326 H320 0.950 . S
C326 C327 1.327 . S
C327 H321 0.950 . S
C327 C326 1.327 . S
C327 C331 1.429 . S
C328 C311 1.574 . S
C328 H322 0.949 . S
C328 C332 1.368 . S
C329 C310 1.429 . S
C329 C323 1.429 . S
C329 C330 1.523 . S
C330 C311 1.368 . S
C330 C324 1.368 . S
C330 C329 1.523 . S
C331 C315 1.429 . S
C331 C327 1.429 . S
C331 C332 1.523 . S
C332 C316 1.368 . S
C332 C328 1.368 . S
C332 C331 1.523 . S
H333 C308 0.950 . S
H334 C310 0.950 . S
H335 C311 0.949 . S
H336 C313 0.950 . S
H337 C315 0.950 . S
C338 C339 1.349 . S
C338 C340 1.327 . S
C338 H363 0.950 . S
C339 C338 1.349 . S
C339 C355 1.349 . S
C340 C338 1.327 . S
C340 C359 1.429 . S
C340 H364 0.950 . S
C341 C358 1.574 . S
C341 C360 1.368 . S
C341 H365 0.955 . S
H342 C346 0.949 . S
C343 C344 1.349 . S
C343 C345 1.327 . S
C343 H366 0.950 . S
C344 C343 1.349 . S
C344 C356 1.349 . S
C345 C343 1.327 . S
C345 C361 1.429 . S
C345 H367 0.951 . S
C346 H342 0.949 . S
C346 C354 1.574 . S
C346 C362 1.368 . S
H347 C355 0.950 . S
H348 C353 0.950 . S
H349 C354 0.949 . S
H350 C356 0.950 . S
H351 C357 0.950 . S
H352 C358 0.952 . S
C353 H348 0.950 . S
C353 C355 1.327 . S
C353 C359 1.429 . S
C354 C346 1.574 . S
C354 H349 0.949 . S
C354 C360 1.368 . S
C355 C339 1.349 . S
C355 H347 0.950 . S
C355 C353 1.327 . S
C356 C344 1.349 . S
C356 H350 0.950 . S
C356 C357 1.327 . S
C357 H351 0.950 . S
C357 C356 1.327 . S
C357 C361 1.429 . S
C358 C341 1.574 . S
C358 H352 0.952 . S
C358 C362 1.368 . S
C359 C340 1.429 . S
C359 C353 1.429 . S
C359 C360 1.523 . S
C360 C341 1.368 . S
C360 C354 1.368 . S
C360 C359 1.523 . S
C361 C345 1.429 . S
C361 C357 1.429 . S
C361 C362 1.523 . S
C362 C346 1.368 . S
C362 C358 1.368 . S
C362 C361 1.523 . S
H363 C338 0.950 . S
H364 C340 0.950 . S
H365 C341 0.955 . S
H366 C343 0.950 . S
H367 C345 0.951 . S
C368 C369 1.349 1_545 S
C368 C370 1.327 . S
C368 H393 0.950 . S
C369 C368 1.349 1_565 S
C369 C385 1.349 . S
C370 C368 1.327 . S
C370 C389 1.429 1_545 S
C370 H394 0.950 . S
C371 C388 1.574 . S
C371 C390 1.368 1_556 S
C371 H395 0.949 . S
H372 C376 0.949 . S
C373 C374 1.377 . S
C373 C375 1.327 . S
C373 H396 0.950 . S
C374 C373 1.377 . S
C374 C386 1.322 1_565 S
C375 C373 1.327 . S
C375 C391 1.470 . S
C375 H397 0.950 . S
C376 H372 0.949 . S
C376 C384 1.574 1_556 S
C376 C392 1.368 1_545 S
H377 C385 0.950 . S
H378 C383 0.950 . S
H379 C384 0.949 . S
H380 C386 0.950 . S
H381 C387 0.950 . S
H382 C388 0.949 . S
C383 H378 0.950 . S
C383 C385 1.327 . S
C383 C389 1.429 . S
C384 C376 1.574 1_554 S
C384 H379 0.949 . S
C384 C390 1.368 1_545 S
C385 C369 1.349 . S
C385 H377 0.950 . S
C385 C383 1.327 . S
C386 C374 1.322 1_545 S
C386 H380 0.950 . S
C386 C387 1.327 . S
C387 H381 0.950 . S
C387 C386 1.327 . S
C387 C391 1.388 1_545 S
C388 C371 1.574 . S
C388 H382 0.949 . S
C388 C392 1.368 . S
C389 C370 1.429 1_565 S
C389 C383 1.429 . S
C389 C390 1.523 . S
C390 C371 1.368 1_554 S
C390 C384 1.368 1_565 S
C390 C389 1.523 . S
C391 C375 1.470 . S
C391 C387 1.388 1_565 S
C391 C392 1.525 . S
C392 C376 1.368 1_565 S
C392 C388 1.368 . S
C392 C391 1.525 . S
H393 C368 0.950 . S
H394 C370 0.950 . S
H395 C371 0.949 . S
H396 C373 0.950 . S
H397 C375 0.950 . S
C398 C399 1.349 . S
C398 C400 1.327 . S
C398 H423 0.950 . S
C399 C398 1.349 . S
C399 C415 1.349 . S
C400 C398 1.327 . S
C400 C419 1.429 . S
C400 H424 0.950 . S
C401 C418 1.574 . S
C401 C420 1.368 . S
C401 H425 0.949 . S
H402 C406 0.949 . S
C403 C404 1.349 . S
C403 C405 1.327 . S
C403 H426 0.950 . S
C404 C403 1.349 . S
C404 C416 1.349 . S
C405 C403 1.327 . S
C405 C421 1.429 . S
C405 H427 0.950 . S
C406 H402 0.949 . S
C406 C414 1.574 . S
C406 C422 1.368 . S
H407 C415 0.950 . S
H408 C413 0.950 . S
H409 C414 0.949 . S
H410 C416 0.950 . S
H411 C417 0.950 . S
H412 C418 0.949 . S
C413 H408 0.950 . S
C413 C415 1.327 . S
C413 C419 1.429 . S
C414 C406 1.574 . S
C414 H409 0.949 . S
C414 C420 1.368 1_556 S
C415 C399 1.349 . S
C415 H407 0.950 . S
C415 C413 1.327 . S
C416 C404 1.349 . S
C416 H410 0.950 . S
C416 C417 1.327 . S
C417 H411 0.950 . S
C417 C416 1.327 . S
C417 C421 1.429 . S
C418 C401 1.574 . S
C418 H412 0.949 . S
C418 C422 1.368 1_554 S
C419 C400 1.429 . S
C419 C413 1.429 . S
C419 C420 1.523 . S
C420 C401 1.368 . S
C420 C414 1.368 1_554 S
C420 C419 1.523 . S
C421 C405 1.429 . S
C421 C417 1.429 . S
C421 C422 1.523 . S
C422 C406 1.368 . S
C422 C418 1.368 1_556 S
C422 C421 1.523 . S
H423 C398 0.950 . S
H424 C400 0.950 . S
H425 C401 0.949 . S
H426 C403 0.950 . S
H427 C405 0.950 . S
C428 C429 1.349 . S
C428 C430 1.327 . S
C428 H453 0.950 . S
C429 C428 1.349 . S
C429 C445 1.349 . S
C430 C428 1.327 . S
C430 C449 1.429 . S
C430 H454 0.950 . S
C431 C448 1.574 . S
C431 C450 1.368 1_556 S
C431 H455 0.950 . S
H432 C436 0.949 . S
C433 C434 1.349 . S
C433 C435 1.327 . S
C433 H456 0.950 . S
C434 C433 1.349 . S
C434 C446 1.349 . S
C435 C433 1.327 . S
C435 C451 1.429 . S
C435 H457 0.950 . S
C436 H432 0.949 . S
C436 C444 1.574 1_556 S
C436 C452 1.368 . S
H437 C445 0.950 . S
H438 C443 0.950 . S
H439 C444 0.949 . S
H440 C446 0.950 . S
H441 C447 0.950 . S
H442 C448 0.949 . S
C443 H438 0.950 . S
C443 C445 1.327 . S
C443 C449 1.429 . S
C444 C436 1.574 1_554 S
C444 H439 0.949 . S
C444 C450 1.368 . S
C445 C429 1.349 . S
C445 H437 0.950 . S
C445 C443 1.327 . S
C446 C434 1.349 . S
C446 H440 0.950 . S
C446 C447 1.327 . S
C447 H441 0.950 . S
C447 C446 1.327 . S
C447 C451 1.429 . S
C448 C431 1.574 . S
C448 H442 0.949 . S
C448 C452 1.368 . S
C449 C430 1.429 . S
C449 C443 1.429 . S
C449 C450 1.523 . S
C450 C431 1.368 1_554 S
C450 C444 1.368 . S
C450 C449 1.523 . S
C451 C435 1.429 . S
C451 C447 1.429 . S
C451 C452 1.523 . S
C452 C436 1.368 . S
C452 C448 1.368 . S
C452 C451 1.523 . S
H453 C428 0.950 . S
H454 C430 0.950 . S
H455 C431 0.950 . S
H456 C433 0.950 . S
H457 C435 0.950 . S
C458 C459 1.349 . S
C458 C460 1.327 . S
C458 H483 0.950 . S
C459 C458 1.349 . S
C459 C475 1.349 1_655 S
C460 C458 1.327 . S
C460 C479 1.456 . S
C460 H484 0.950 . S
C461 C478 1.574 . S
C461 C480 1.347 1_456 S
C461 H485 0.949 . S
H462 C466 0.949 . S
C463 C464 1.353 . S
C463 C465 1.327 . S
C463 H486 0.950 . S
C464 C463 1.353 . S
C464 C476 1.345 1_455 S
C465 C463 1.327 . S
C465 C481 1.427 1_455 S
C465 H487 0.950 . S
C466 H462 0.949 . S
C466 C474 1.574 . S
C466 C482 1.377 1_554 S
H467 C475 0.950 . S
H468 C473 0.950 . S
H469 C474 0.949 . S
H470 C476 0.950 . S
H471 C477 0.950 . S
H472 C478 0.949 . S
C473 H468 0.950 . S
C473 C475 1.327 . S
C473 C479 1.403 1_455 S
C474 C466 1.574 . S
C474 H469 0.949 . S
C474 C480 1.390 . S
C475 C459 1.349 1_455 S
C475 H467 0.950 . S
C475 C473 1.327 . S
C476 C464 1.345 1_655 S
C476 H470 0.950 . S
C476 C477 1.327 . S
C477 H471 0.950 . S
C477 C476 1.327 . S
C477 C481 1.430 . S
C478 C461 1.574 . S
C478 H472 0.949 . S
C478 C482 1.360 1_455 S
C479 C460 1.456 . S
C479 C473 1.403 1_655 S
C479 C480 1.523 . S
C480 C461 1.347 1_654 S
C480 C474 1.390 . S
C480 C479 1.523 . S
C481 C465 1.427 1_655 S
C481 C477 1.430 . S
C481 C482 1.523 . S
C482 C466 1.377 1_556 S
C482 C478 1.360 1_655 S
C482 C481 1.523 . S
H483 C458 0.950 . S
H484 C460 0.950 . S
H485 C461 0.949 . S
H486 C463 0.950 . S
H487 C465 0.950 . S
C488 C489 1.349 . S
C488 C490 1.327 . S
C488 H513 0.950 . S
C489 C488 1.349 . S
C489 C505 1.349 1_455 S
C490 C488 1.327 . S
C490 C509 1.429 1_455 S
C490 H514 0.950 . S
C491 C508 1.574 . S
C491 C510 1.368 . S
C491 H515 0.949 . S
H492 C496 0.949 1_455 S
C493 C494 1.349 . S
C493 C495 1.327 . S
C493 H516 0.950 . S
C494 C493 1.349 . S
C494 C506 1.349 . S
C495 C493 1.327 . S
C495 C511 1.429 . S
C495 H517 0.950 . S
C496 H492 0.949 1_655 S
C496 C504 1.574 1_655 S
C496 C512 1.368 . S
H497 C505 0.950 . S
H498 C503 0.950 . S
H499 C504 0.949 . S
H500 C506 0.950 . S
H501 C507 0.950 . S
H502 C508 0.949 . S
C503 H498 0.950 . S
C503 C505 1.327 . S
C503 C509 1.429 . S
C504 C496 1.574 1_455 S
C504 H499 0.949 . S
C504 C510 1.368 1_455 S
C505 C489 1.349 1_655 S
C505 H497 0.950 . S
C505 C503 1.327 . S
C506 C494 1.349 . S
C506 H500 0.950 . S
C506 C507 1.327 . S
C507 H501 0.950 . S
C507 C506 1.327 . S
C507 C511 1.429 . S
C508 C491 1.574 . S
C508 H502 0.949 . S
C508 C512 1.368 . S
C509 C490 1.429 1_655 S
C509 C503 1.429 . S
C509 C510 1.523 . S
C510 C491 1.368 . S
C510 C504 1.368 1_655 S
C510 C509 1.523 . S
C511 C495 1.429 . S
C511 C507 1.429 . S
C511 C512 1.523 . S
C512 C496 1.368 . S
C512 C508 1.368 . S
C512 C511 1.523 . S
H513 C488 0.950 . S
H514 C490 0.950 . S
H515 C491 0.949 . S
H516 C493 0.950 . S
H517 C495 0.950 . S
C518 C519 1.349 . S
C518 C520 1.327 . S
C518 H543 0.950 . S
C519 C518 1.349 . S
C519 C535 1.349 1_545 S
C520 C518 1.327 . S
C520 C539 1.429 1_545 S
C520 H544 0.950 . S
C521 C538 1.574 . S
C521 C540 1.368 . S
C521 H545 0.949 . S
H522 C526 0.949 . S
C523 C524 1.349 . S
C523 C525 1.327 . S
C523 H546 0.950 . S
C524 C523 1.349 . S
C524 C536 1.349 . S
C525 C523 1.327 . S
C525 C541 1.429 . S
C525 H547 0.950 . S
C526 H522 0.949 . S
C526 C534 1.574 . S
C526 C542 1.368 . S
H527 C535 0.950 . S
H528 C533 0.950 . S
H529 C534 0.949 1_545 S
H530 C536 0.950 . S
H531 C537 0.950 . S
H532 C538 0.949 . S
C533 H528 0.950 . S
C533 C535 1.327 . S
C533 C539 1.429 . S
C534 C526 1.574 . S
C534 H529 0.949 1_565 S
C534 C540 1.368 . S
C535 C519 1.349 1_565 S
C535 H527 0.950 . S
C535 C533 1.327 . S
C536 C524 1.349 . S
C536 H530 0.950 . S
C536 C537 1.327 . S
C537 H531 0.950 . S
C537 C536 1.327 . S
C537 C541 1.429 . S
C538 C521 1.574 . S
C538 H532 0.949 . S
C538 C542 1.368 . S
C539 C520 1.429 1_565 S
C539 C533 1.429 . S
C539 C540 1.523 . S
C540 C521 1.368 . S
C540 C534 1.368 . S
C540 C539 1.523 . S
C541 C525 1.429 . S
C541 C537 1.429 . S
C541 C542 1.523 . S
C542 C526 1.368 . S
C542 C538 1.368 . S
C542 C541 1.523 . S
H543 C518 0.950 . S
H544 C520 0.950 . S
H545 C521 0.949 . S
H546 C523 0.950 . S
H547 C525 0.950 . S
C548 C549 1.349 . S
C548 C550 1.327 . S
C548 H573 0.950 . S
C549 C548 1.349 . S
C549 C565 1.349 . S
C550 C548 1.327 . S
C550 C569 1.429 . S
C550 H574 0.950 . S
C551 C568 1.574 . S
C551 C570 1.368 . S
C551 H575 0.949 . S
H552 C556 0.949 . S
C553 C554 1.349 . S
C553 C555 1.327 . S
C553 H576 0.950 . S
C554 C553 1.349 . S
C554 C566 1.349 . S
C555 C553 1.327 . S
C555 C571 1.429 . S
C555 H577 0.950 . S
C556 H552 0.949 . S
C556 C564 1.574 . S
C556 C572 1.368 . S
H557 C565 0.950 . S
H558 C563 0.950 . S
H559 C564 0.949 . S
H560 C566 0.950 . S
H561 C567 0.950 . S
H562 C568 0.949 . S
C563 H558 0.950 . S
C563 C565 1.327 . S
C563 C569 1.429 . S
C564 C556 1.574 . S
C564 H559 0.949 . S
C564 C570 1.368 . S
C565 C549 1.349 . S
C565 H557 0.950 . S
C565 C563 1.327 . S
C566 C554 1.349 . S
C566 H560 0.950 . S
C566 C567 1.327 . S
C567 H561 0.950 . S
C567 C566 1.327 . S
C567 C571 1.429 . S
C568 C551 1.574 . S
C568 H562 0.949 . S
C568 C572 1.368 . S
C569 C550 1.429 . S
C569 C563 1.429 . S
C569 C570 1.523 . S
C570 C551 1.368 . S
C570 C564 1.368 . S
C570 C569 1.523 . S
C571 C555 1.429 . S
C571 C567 1.429 . S
C571 C572 1.523 . S
C572 C556 1.368 . S
C572 C568 1.368 . S
C572 C571 1.523 . S
H573 C548 0.950 . S
H574 C550 0.950 . S
H575 C551 0.949 . S
H576 C553 0.950 . S
H577 C555 0.950 . S
C578 C579 1.349 . S
C578 C580 1.327 . S
C578 H603 0.950 . S
C579 C578 1.349 . S
C579 C595 1.349 . S
C580 C578 1.327 . S
C580 C599 1.429 . S
C580 H604 0.950 . S
C581 C598 1.574 . S
C581 C600 1.368 . S
C581 H605 0.949 . S
H582 C586 0.949 . S
C583 C584 1.349 . S
C583 C585 1.327 . S
C583 H606 0.950 . S
C584 C583 1.349 . S
C584 C596 1.349 . S
C585 C583 1.327 . S
C585 C601 1.429 . S
C585 H607 0.950 . S
C586 H582 0.949 . S
C586 C594 1.574 . S
C586 C602 1.368 . S
H587 C595 0.950 . S
H588 C593 0.950 . S
H589 C594 0.949 . S
H590 C596 0.950 . S
H591 C597 0.950 . S
H592 C598 0.949 . S
C593 H588 0.950 . S
C593 C595 1.327 . S
C593 C599 1.429 . S
C594 C586 1.574 . S
C594 H589 0.949 . S
C594 C600 1.368 . S
C595 C579 1.349 . S
C595 H587 0.950 . S
C595 C593 1.327 . S
C596 C584 1.349 . S
C596 H590 0.950 . S
C596 C597 1.327 . S
C597 H591 0.950 . S
C597 C596 1.327 . S
C597 C601 1.429 . S
C598 C581 1.574 . S
C598 H592 0.949 . S
C598 C602 1.368 . S
C599 C580 1.429 . S
C599 C593 1.429 . S
C599 C600 1.523 . S
C600 C581 1.368 . S
C600 C594 1.368 . S
C600 C599 1.523 . S
C601 C585 1.429 . S
C601 C597 1.429 . S
C601 C602 1.523 . S
C602 C586 1.368 . S
C602 C598 1.368 . S
C602 C601 1.523 . S
H603 C578 0.950 . S
H604 C580 0.950 . S
H605 C581 0.949 . S
H606 C583 0.950 . S
H607 C585 0.950 . S
C608 C609 1.349 1_455 S
C608 C610 1.327 . S
C608 H633 0.950 . S
C609 C608 1.349 1_655 S
C609 C625 1.349 . S
C610 C608 1.327 . S
C610 C629 1.429 . S
C610 H634 0.950 . S
C611 C628 1.566 1_655 S
C611 C630 1.368 1_655 S
C611 H635 0.949 . S
H612 C616 0.949 . S
C613 C614 1.349 . S
C613 C615 1.327 . S
C613 H636 0.950 . S
C614 C613 1.349 . S
C614 C626 1.349 . S
C615 C613 1.327 . S
C615 C631 1.429 . S
C615 H637 0.950 1_455 S
C616 H612 0.949 . S
C616 C624 1.574 . S
C616 C632 1.368 . S
H617 C625 0.950 . S
H618 C623 0.950 . S
H619 C624 0.949 . S
H620 C626 0.950 . S
H621 C627 0.950 . S
H622 C628 0.926 1_656 S
C623 H618 0.950 . S
C623 C625 1.327 . S
C623 C629 1.429 1_655 S
C624 C616 1.574 . S
C624 H619 0.949 . S
C624 C630 1.368 . S
C625 C609 1.349 . S
C625 H617 0.950 . S
C625 C623 1.327 . S
C626 C614 1.349 . S
C626 H620 0.950 . S
C626 C627 1.327 1_556 S
C627 H621 0.950 . S
C627 C626 1.327 1_554 S
C627 C631 1.429 1_554 S
C628 C611 1.566 1_455 S
C628 H622 0.926 1_454 S
C628 C632 1.403 . S
C629 C610 1.429 . S
C629 C623 1.429 1_455 S
C629 C630 1.523 . S
C630 C611 1.368 1_455 S
C630 C624 1.368 . S
C630 C629 1.523 . S
C631 C615 1.429 . S
C631 C627 1.429 1_556 S
C631 C632 1.523 1_556 S
C632 C616 1.368 . S
C632 C628 1.403 . S
C632 C631 1.523 1_554 S
H633 C608 0.950 . S
H634 C610 0.950 . S
H635 C611 0.949 . S
H636 C613 0.950 . S
H637 C615 0.950 1_655 S
C638 C639 1.349 1_545 S
C638 C640 1.327 . S
C638 H663 0.950 . S
C639 C638 1.349 1_565 S
C639 C655 1.349 . S
C640 C638 1.327 . S
C640 C659 1.429 . S
C640 H664 0.950 . S
C641 C658 1.574 . S
C641 C660 1.368 1_565 S
C641 H665 0.949 . S
H642 C646 0.949 1_556 S
C643 C644 1.349 . S
C643 C645 1.321 1_556 S
C643 H666 0.950 . S
C644 C643 1.349 . S
C644 C656 1.349 . S
C645 C643 1.321 1_554 S
C645 C661 1.428 1_554 S
C645 H667 0.956 1_545 S
C646 H642 0.949 1_554 S
C646 C654 1.574 . S
C646 C662 1.368 . S
H647 C655 0.950 . S
H648 C653 0.950 . S
H649 C654 0.949 . S
H650 C656 0.950 . S
H651 C657 0.950 . S
H652 C658 0.949 . S
C653 H648 0.950 . S
C653 C655 1.327 . S
C653 C659 1.429 1_565 S
C654 C646 1.574 . S
C654 H649 0.949 . S
C654 C660 1.368 . S
C655 C639 1.349 . S
C655 H647 0.950 . S
C655 C653 1.327 . S
C656 C644 1.349 . S
C656 H650 0.950 . S
C656 C657 1.327 . S
C657 H651 0.950 . S
C657 C656 1.327 . S
C657 C661 1.429 . S
C658 C641 1.574 . S
C658 H652 0.949 . S
C658 C662 1.368 1_565 S
C659 C640 1.429 . S
C659 C653 1.429 1_545 S
C659 C660 1.523 . S
C660 C641 1.368 1_545 S
C660 C654 1.368 . S
C660 C659 1.523 . S
C661 C645 1.428 1_556 S
C661 C657 1.429 . S
C661 C662 1.523 1_556 S
C662 C646 1.368 . S
C662 C658 1.368 1_545 S
C662 C661 1.523 1_554 S
H663 C638 0.950 . S
H664 C640 0.950 . S
H665 C641 0.949 . S
H666 C643 0.950 . S
H667 C645 0.956 1_565 S
C668 C669 1.349 . S
C668 C670 1.327 . S
C668 H693 0.950 . S
C669 C668 1.349 . S
C669 C685 1.349 . S
C670 C668 1.327 . S
C670 C689 1.429 . S
C670 H694 0.950 . S
C671 C688 1.574 1_554 S
C671 C690 1.368 . S
C671 H695 0.949 . S
H672 C676 0.949 . S
C673 C674 1.349 . S
C673 C675 1.327 . S
C673 H696 0.950 . S
C674 C673 1.349 . S
C674 C686 1.349 . S
C675 C673 1.327 . S
C675 C691 1.429 . S
C675 H697 0.950 . S
C676 H672 0.949 . S
C676 C684 1.574 . S
C676 C692 1.368 . S
H677 C685 0.950 . S
H678 C683 0.950 . S
H679 C684 0.949 . S
H680 C686 0.950 1_554 S
H681 C687 0.950 . S
H682 C688 0.949 . S
C683 H678 0.950 . S
C683 C685 1.327 . S
C683 C689 1.429 . S
C684 C676 1.574 . S
C684 H679 0.949 . S
C684 C690 1.368 . S
C685 C669 1.349 . S
C685 H677 0.950 . S
C685 C683 1.327 . S
C686 C674 1.349 . S
C686 H680 0.950 1_556 S
C686 C687 1.327 1_556 S
C687 H681 0.950 . S
C687 C686 1.327 1_554 S
C687 C691 1.429 1_554 S
C688 C671 1.574 1_556 S
C688 H682 0.949 . S
C688 C692 1.368 1_556 S
C689 C670 1.429 . S
C689 C683 1.429 . S
C689 C690 1.523 . S
C690 C671 1.368 . S
C690 C684 1.368 . S
C690 C689 1.523 . S
C691 C675 1.429 . S
C691 C687 1.429 1_556 S
C691 C692 1.523 1_556 S
C692 C676 1.368 . S
C692 C688 1.368 1_554 S
C692 C691 1.523 1_554 S
H693 C668 0.950 . S
H694 C670 0.950 . S
H695 C671 0.949 . S
H696 C673 0.950 . S
H697 C675 0.950 . S
C698 C699 1.349 . S
C698 C700 1.327 . S
C698 H723 0.950 . S
C699 C698 1.349 . S
C699 C715 1.349 . S
C700 C698 1.327 . S
C700 C719 1.429 . S
C700 H724 0.950 . S
C701 C718 1.574 . S
C701 C720 1.368 . S
C701 H725 0.949 . S
H702 C706 0.949 . S
C703 C704 1.349 . S
C703 C705 1.327 . S
C703 H726 0.950 . S
C704 C703 1.349 . S
C704 C716 1.349 . S
C705 C703 1.327 . S
C705 C721 1.429 . S
C705 H727 0.950 . S
C706 H702 0.949 . S
C706 C714 1.574 . S
C706 C722 1.368 . S
H707 C715 0.950 . S
H708 C713 0.950 . S
H709 C714 0.949 . S
H710 C716 0.950 . S
H711 C717 0.950 . S
H712 C718 0.949 1_556 S
C713 H708 0.950 . S
C713 C715 1.327 . S
C713 C719 1.429 . S
C714 C706 1.574 . S
C714 H709 0.949 . S
C714 C720 1.368 . S
C715 C699 1.349 . S
C715 H707 0.950 . S
C715 C713 1.327 . S
C716 C704 1.349 . S
C716 H710 0.950 . S
C716 C717 1.327 1_556 S
C717 H711 0.950 . S
C717 C716 1.327 1_554 S
C717 C721 1.429 1_554 S
C718 C701 1.574 . S
C718 H712 0.949 1_554 S
C718 C722 1.368 . S
C719 C700 1.429 . S
C719 C713 1.429 . S
C719 C720 1.523 . S
C720 C701 1.368 . S
C720 C714 1.368 . S
C720 C719 1.523 . S
C721 C705 1.429 . S
C721 C717 1.429 1_556 S
C721 C722 1.523 1_556 S
C722 C706 1.368 . S
C722 C718 1.368 . S
C722 C721 1.523 1_554 S
H723 C698 0.950 . S
H724 C700 0.950 . S
H725 C701 0.949 . S
H726 C703 0.950 . S
H727 C705 0.950 . S
C728 C729 1.349 . S
C728 C730 1.327 . S
C728 H753 0.950 . S
C729 C728 1.349 . S
C729 C745 1.349 . S
C730 C728 1.327 . S
C730 C749 1.429 . S
C730 H754 0.950 . S
C731 C748 1.574 . S
C731 C750 1.368 . S
C731 H755 0.946 1_455 S
H732 C736 0.949 . S
C733 C734 1.349 . S
C733 C735 1.327 . S
C733 H756 0.950 . S
C734 C733 1.349 . S
C734 C746 1.349 . S
C735 C733 1.327 . S
C735 C751 1.429 . S
C735 H757 0.950 . S
C736 H732 0.949 . S
C736 C744 1.574 . S
C736 C752 1.368 . S
H737 C745 0.950 1_655 S
H738 C743 0.950 1_655 S
H739 C744 0.949 . S
H740 C746 0.950 . S
H741 C747 0.950 . S
H742 C748 0.963 . S
C743 H738 0.950 1_455 S
C743 C745 1.327 . S
C743 C749 1.429 . S
C744 C736 1.574 . S
C744 H739 0.949 . S
C744 C750 1.368 . S
C745 C729 1.349 . S
C745 H737 0.950 1_455 S
C745 C743 1.327 . S
C746 C734 1.349 . S
C746 H740 0.950 . S
C746 C747 1.327 . S
C747 H741 0.950 . S
C747 C746 1.327 . S
C747 C751 1.429 . S
C748 C731 1.574 . S
C748 H742 0.963 . S
C748 C752 1.368 . S
C749 C730 1.429 . S
C749 C743 1.429 . S
C749 C750 1.523 . S
C750 C731 1.368 . S
C750 C744 1.368 . S
C750 C749 1.523 . S
C751 C735 1.429 . S
C751 C747 1.429 . S
C751 C752 1.523 . S
C752 C736 1.368 . S
C752 C748 1.368 . S
C752 C751 1.523 . S
H753 C728 0.950 . S
H754 C730 0.950 . S
H755 C731 0.946 1_655 S
H756 C733 0.950 . S
H757 C735 0.950 . S
C758 C759 1.349 . S
C758 C760 1.327 . S
C758 H783 0.950 . S
C759 C758 1.349 . S
C759 C775 1.349 1_545 S
C760 C758 1.327 . S
C760 C779 1.429 . S
C760 H784 0.950 . S
C761 C778 1.574 . S
C761 C780 1.368 1_565 S
C761 H785 0.949 . S
H762 C766 0.949 . S
C763 C764 1.349 . S
C763 C765 1.328 . S
C763 H786 0.950 1_545 S
C764 C763 1.349 . S
C764 C776 1.349 . S
C765 C763 1.328 . S
C765 C781 1.433 . S
C765 H787 0.944 1_545 S
C766 H762 0.949 . S
C766 C774 1.574 . S
C766 C782 1.368 . S
H767 C775 0.950 . S
H768 C773 0.950 . S
H769 C774 0.949 . S
H770 C776 0.950 . S
H771 C777 0.950 . S
H772 C778 0.949 . S
C773 H768 0.950 . S
C773 C775 1.327 . S
C773 C779 1.429 1_565 S
C774 C766 1.574 . S
C774 H769 0.949 . S
C774 C780 1.368 . S
C775 C759 1.349 1_565 S
C775 H767 0.950 . S
C775 C773 1.327 . S
C776 C764 1.349 . S
C776 H770 0.950 . S
C776 C777 1.327 . S
C777 H771 0.950 . S
C777 C776 1.327 . S
C777 C781 1.429 . S
C778 C761 1.574 . S
C778 H772 0.949 . S
C778 C782 1.368 1_565 S
C779 C760 1.429 . S
C779 C773 1.429 1_545 S
C779 C780 1.523 . S
C780 C761 1.368 1_545 S
C780 C774 1.368 . S
C780 C779 1.523 . S
C781 C765 1.433 . S
C781 C777 1.429 . S
C781 C782 1.523 . S
C782 C766 1.368 . S
C782 C778 1.368 1_545 S
C782 C781 1.523 . S
H783 C758 0.950 . S
H784 C760 0.950 . S
H785 C761 0.949 . S
H786 C763 0.950 1_565 S
H787 C765 0.944 1_565 S
C788 C789 1.349 . S
C788 C790 1.327 . S
C788 H813 0.950 . S
C789 C788 1.349 . S
C789 C805 1.349 . S
C790 C788 1.327 . S
C790 C809 1.429 . S
C790 H814 0.950 . S
C791 C808 1.574 . S
C791 C810 1.368 . S
C791 H815 0.949 . S
H792 C796 0.949 . S
C793 C794 1.349 . S
C793 C795 1.327 . S
C793 H816 0.950 . S
C794 C793 1.349 . S
C794 C806 1.349 . S
C795 C793 1.327 . S
C795 C811 1.429 . S
C795 H817 0.950 . S
C796 H792 0.949 . S
C796 C804 1.574 . S
C796 C812 1.368 . S
H797 C805 0.950 . S
H798 C803 0.950 . S
H799 C804 0.949 . S
H800 C806 0.950 . S
H801 C807 0.950 . S
H802 C808 0.949 . S
C803 H798 0.950 . S
C803 C805 1.327 . S
C803 C809 1.429 . S
C804 C796 1.574 . S
C804 H799 0.949 . S
C804 C810 1.368 . S
C805 C789 1.349 . S
C805 H797 0.950 . S
C805 C803 1.327 . S
C806 C794 1.349 . S
C806 H800 0.950 . S
C806 C807 1.327 . S
C807 H801 0.950 . S
C807 C806 1.327 . S
C807 C811 1.429 . S
C808 C791 1.574 . S
C808 H802 0.949 . S
C808 C812 1.368 . S
C809 C790 1.429 . S
C809 C803 1.429 . S
C809 C810 1.523 . S
C810 C791 1.368 . S
C810 C804 1.368 . S
C810 C809 1.523 . S
C811 C795 1.429 . S
C811 C807 1.429 . S
C811 C812 1.523 . S
C812 C796 1.368 . S
C812 C808 1.368 . S
C812 C811 1.523 . S
H813 C788 0.950 . S
H814 C790 0.950 . S
H815 C791 0.949 . S
H816 C793 0.950 . S
H817 C795 0.950 . S
C818 C819 1.349 . S
C818 C820 1.327 . S
C818 H843 0.950 . S
C819 C818 1.349 . S
C819 C835 1.349 . S
C820 C818 1.327 . S
C820 C839 1.429 . S
C820 H844 0.950 . S
C821 C838 1.574 . S
C821 C840 1.368 . S
C821 H845 0.949 . S
H822 C826 0.949 . S
C823 C824 1.349 . S
C823 C825 1.327 . S
C823 H846 0.950 . S
C824 C823 1.349 . S
C824 C836 1.349 . S
C825 C823 1.327 . S
C825 C841 1.429 . S
C825 H847 0.950 . S
C826 H822 0.949 . S
C826 C834 1.574 . S
C826 C842 1.368 . S
H827 C835 0.950 . S
H828 C833 0.950 . S
H829 C834 0.949 . S
H830 C836 0.950 . S
H831 C837 0.950 . S
H832 C838 0.949 . S
C833 H828 0.950 . S
C833 C835 1.327 . S
C833 C839 1.429 . S
C834 C826 1.574 . S
C834 H829 0.949 . S
C834 C840 1.368 . S
C835 C819 1.349 . S
C835 H827 0.950 . S
C835 C833 1.327 . S
C836 C824 1.349 . S
C836 H830 0.950 . S
C836 C837 1.327 . S
C837 H831 0.950 . S
C837 C836 1.327 . S
C837 C841 1.429 . S
C838 C821 1.574 . S
C838 H832 0.949 . S
C838 C842 1.368 . S
C839 C820 1.429 . S
C839 C833 1.429 . S
C839 C840 1.523 . S
C840 C821 1.368 . S
C840 C834 1.368 . S
C840 C839 1.523 . S
C841 C825 1.429 . S
C841 C837 1.429 . S
C841 C842 1.523 . S
C842 C826 1.368 . S
C842 C838 1.368 . S
C842 C841 1.523 . S
H843 C818 0.950 . S
H844 C820 0.950 . S
H845 C821 0.949 . S
H846 C823 0.950 . S
H847 C825 0.950 . S
C848 C849 1.349 1_455 S
C848 C850 1.327 . S
C848 H873 0.950 . S
C849 C848 1.349 1_655 S
C849 C865 1.349 . S
C850 C848 1.327 . S
C850 C869 1.429 1_455 S
C850 H874 0.950 . S
C851 C868 1.574 . S
C851 C870 1.368 . S
C851 H875 0.949 . S
H852 C856 0.949 . S
C853 C854 1.349 . S
C853 C855 1.327 . S
C853 H876 0.950 . S
C854 C853 1.349 . S
C854 C866 1.349 1_655 S
C855 C853 1.327 . S
C855 C871 1.429 . S
C855 H877 0.950 . S
C856 H852 0.949 . S
C856 C864 1.574 . S
C856 C872 1.368 1_455 S
H857 C865 0.950 . S
H858 C863 0.950 . S
H859 C864 0.949 . S
H860 C866 0.950 . S
H861 C867 0.950 . S
H862 C868 0.949 . S
C863 H858 0.950 . S
C863 C865 1.327 . S
C863 C869 1.429 . S
C864 C856 1.574 . S
C864 H859 0.949 . S
C864 C870 1.368 1_455 S
C865 C849 1.349 . S
C865 H857 0.950 . S
C865 C863 1.327 . S
C866 C854 1.349 1_455 S
C866 H860 0.950 . S
C866 C867 1.327 . S
C867 H861 0.950 . S
C867 C866 1.327 . S
C867 C871 1.429 1_455 S
C868 C851 1.574 . S
C868 H862 0.949 . S
C868 C872 1.368 . S
C869 C850 1.429 1_655 S
C869 C863 1.429 . S
C869 C870 1.523 . S
C870 C851 1.368 . S
C870 C864 1.368 1_655 S
C870 C869 1.523 . S
C871 C855 1.429 . S
C871 C867 1.429 1_655 S
C871 C872 1.523 . S
C872 C856 1.368 1_655 S
C872 C868 1.368 . S
C872 C871 1.523 . S
H873 C848 0.950 . S
H874 C850 0.950 . S
H875 C851 0.949 . S
H876 C853 0.950 . S
H877 C855 0.950 . S
C878 C879 1.349 1_545 S
C878 C880 1.327 . S
C878 H903 0.950 . S
C879 C878 1.349 1_565 S
C879 C895 1.349 . S
C880 C878 1.327 . S
C880 C899 1.429 1_545 S
C880 H904 0.950 . S
C881 C898 1.574 . S
C881 C900 1.368 . S
C881 H905 0.949 . S
H882 C886 0.949 . S
C883 C884 1.349 . S
C883 C885 1.327 . S
C883 H906 0.950 . S
C884 C883 1.349 . S
C884 C896 1.349 1_565 S
C885 C883 1.327 . S
C885 C901 1.429 . S
C885 H907 0.950 . S
C886 H882 0.949 . S
C886 C894 1.574 . S
C886 C902 1.368 1_545 S
H887 C895 0.950 . S
H888 C893 0.950 . S
H889 C894 0.949 . S
H890 C896 0.950 . S
H891 C897 0.950 . S
H892 C898 0.949 . S
C893 H888 0.950 . S
C893 C895 1.327 . S
C893 C899 1.429 . S
C894 C886 1.574 . S
C894 H889 0.949 . S
C894 C900 1.368 1_545 S
C895 C879 1.349 . S
C895 H887 0.950 . S
C895 C893 1.327 . S
C896 C884 1.349 1_545 S
C896 H890 0.950 . S
C896 C897 1.327 . S
C897 H891 0.950 . S
C897 C896 1.327 . S
C897 C901 1.429 1_545 S
C898 C881 1.574 . S
C898 H892 0.949 . S
C898 C902 1.368 . S
C899 C880 1.429 1_565 S
C899 C893 1.429 . S
C899 C900 1.523 . S
C900 C881 1.368 . S
C900 C894 1.368 1_565 S
C900 C899 1.523 . S
C901 C885 1.429 . S
C901 C897 1.429 1_565 S
C901 C902 1.523 . S
C902 C886 1.368 1_565 S
C902 C898 1.368 . S
C902 C901 1.523 . S
H903 C878 0.950 . S
H904 C880 0.950 . S
H905 C881 0.949 . S
H906 C883 0.950 . S
H907 C885 0.950 . S
C908 C909 1.349 . S
C908 C910 1.327 . S
C908 H933 0.950 . S
C909 C908 1.349 . S
C909 C925 1.349 . S
C910 C908 1.327 . S
C910 C929 1.429 . S
C910 H934 0.950 . S
C911 C928 1.574 . S
C911 C930 1.368 . S
C911 H935 0.949 . S
H912 C916 0.949 . S
C913 C914 1.349 . S
C913 C915 1.327 . S
C913 H936 0.950 . S
C914 C913 1.349 . S
C914 C926 1.349 . S
C915 C913 1.327 . S
C915 C931 1.429 . S
C915 H937 0.950 . S
C916 H912 0.949 . S
C916 C924 1.574 . S
C916 C932 1.368 . S
H917 C925 0.950 . S
H918 C923 0.950 . S
H919 C924 0.949 . S
H920 C926 0.950 . S
H921 C927 0.950 . S
H922 C928 0.949 . S
C923 H918 0.950 . S
C923 C925 1.327 . S
C923 C929 1.429 . S
C924 C916 1.574 . S
C924 H919 0.949 . S
C924 C930 1.368 . S
C925 C909 1.349 . S
C925 H917 0.950 . S
C925 C923 1.327 . S
C926 C914 1.349 . S
C926 H920 0.950 . S
C926 C927 1.327 . S
C927 H921 0.950 . S
C927 C926 1.327 . S
C927 C931 1.429 . S
C928 C911 1.574 . S
C928 H922 0.949 . S
C928 C932 1.368 . S
C929 C910 1.429 . S
C929 C923 1.429 . S
C929 C930 1.523 . S
C930 C911 1.368 . S
C930 C924 1.368 . S
C930 C929 1.523 . S
C931 C915 1.429 . S
C931 C927 1.429 . S
C931 C932 1.523 . S
C932 C916 1.368 . S
C932 C928 1.368 . S
C932 C931 1.523 . S
H933 C908 0.950 . S
H934 C910 0.950 . S
H935 C911 0.949 . S
H936 C913 0.950 . S
H937 C915 0.950 . S
C938 C939 1.349 . S
C938 C940 1.327 . S
C938 H963 0.950 . S
C939 C938 1.349 . S
C939 C955 1.349 . S
C940 C938 1.327 . S
C940 C959 1.429 . S
C940 H964 0.950 . S
C941 C958 1.574 . S
C941 C960 1.368 . S
C941 H965 0.949 . S
H942 C946 0.949 . S
C943 C944 1.349 . S
C943 C945 1.327 . S
C943 H966 0.950 . S
C944 C943 1.349 . S
C944 C956 1.349 . S
C945 C943 1.327 . S
C945 C961 1.429 . S
C945 H967 0.950 . S
C946 H942 0.949 . S
C946 C954 1.574 . S
C946 C962 1.368 . S
H947 C955 0.950 . S
H948 C953 0.950 . S
H949 C954 0.949 . S
H950 C956 0.950 . S
H951 C957 0.950 . S
H952 C958 0.949 . S
C953 H948 0.950 . S
C953 C955 1.327 . S
C953 C959 1.429 . S
C954 C946 1.574 . S
C954 H949 0.949 . S
C954 C960 1.368 . S
C955 C939 1.349 . S
C955 H947 0.950 . S
C955 C953 1.327 . S
C956 C944 1.349 . S
C956 H950 0.950 . S
C956 C957 1.327 . S
C957 H951 0.950 . S
C957 C956 1.327 . S
C957 C961 1.429 . S
C958 C941 1.574 . S
C958 H952 0.949 . S
C958 C962 1.368 . S
C959 C940 1.429 . S
C959 C953 1.429 . S
C959 C960 1.523 . S
C960 C941 1.368 . S
C960 C954 1.368 . S
C960 C959 1.523 . S
C961 C945 1.429 . S
C961 C957 1.429 . S
C961 C962 1.523 . S
C962 C946 1.368 . S
C962 C958 1.368 . S
C962 C961 1.523 . S
H963 C938 0.950 . S
H964 C940 0.950 . S
H965 C941 0.949 . S
H966 C943 0.950 . S
H967 C945 0.950 . S
C249 C74 1.666 . S
C254 C97 1.721 1_545 S
C284 C137 1.722 . S
C279 C85 1.666 . S
C314 C177 1.722 . S
C309 C52 1.666 . S
C344 C217 1.728 . S
C339 C63 1.666 . S
C374 C106 1.718 1_565 S
C369 C30 1.664 1_565 S
C399 C41 1.664 . S
C404 C146 1.721 . S
C429 C8 1.664 . S
C434 C186 1.721 . S
C459 C19 1.660 1_655 S
C464 C226 1.722 . S
C494 C103 0.428 . S
C489 C62 0.415 . S
C524 C143 0.427 . S
C519 C73 0.414 . S
C554 C183 0.427 . S
C549 C84 0.414 . S
C579 C51 0.414 . S
C584 C223 0.427 . S
C609 C18 0.482 1_655 S
C614 C94 0.427 . S
C644 C134 0.427 . S
C639 C29 0.481 1_565 S
C674 C174 0.427 . S
C669 C40 0.482 . S
C699 C7 0.481 . S
C704 C214 0.427 . S
C729 C60 1.574 . S
C734 C107 2.023 . S
C759 C71 1.574 . S
C764 C147 2.023 . S
C794 C187 2.023 . S
C789 C82 1.575 . S
C824 C227 2.023 . S
C819 C49 1.574 . S
C849 C16 1.608 1_655 S
C854 C98 2.023 . S
C884 C138 2.023 . S
C879 C27 1.608 1_565 S
C914 C178 2.023 . S
C909 C38 1.608 . S
C939 C5 1.608 . S
C944 C218 2.023 . S
