# Generated by pormake.
# Topology nia, (6,6)-cn, num edge types: 1
# Building blocks:
#     Node 0, Type 0, BuildingBlock: JUFBIX_clean_sbu_0, # of connection points: 6
#     Node 1, Type 0, BuildingBlock: JUFBIX_clean_sbu_0, # of connection points: 6
#     Node 2, Type 1, BuildingBlock: MIDCAF_clean_sbu_0, # of connection points: 6
#     Node 3, Type 1, BuildingBlock: MIDCAF_clean_sbu_0, # of connection points: 6
#     Edge 4, Type (0, 1), BuildingBlock: MIFKUJ_clean_linker_0, # of connection points: 2
#     Edge 5, Type (0, 1), BuildingBlock: MIFKUJ_clean_linker_0, # of connection points: 2
#     Edge 6, Type (0, 1), BuildingBlock: MIFKUJ_clean_linker_0, # of connection points: 2
#     Edge 7, Type (0, 1), BuildingBlock: MIFKUJ_clean_linker_0, # of connection points: 2
#     Edge 8, Type (0, 1), BuildingBlock: MIFKUJ_clean_linker_0, # of connection points: 2
#     Edge 9, Type (0, 1), BuildingBlock: MIFKUJ_clean_linker_0, # of connection points: 2
#     Edge 10, Type (0, 1), BuildingBlock: MIFKUJ_clean_linker_0, # of connection points: 2
#     Edge 11, Type (0, 1), BuildingBlock: MIFKUJ_clean_linker_0, # of connection points: 2
#     Edge 12, Type (0, 1), BuildingBlock: MIFKUJ_clean_linker_0, # of connection points: 2
#     Edge 13, Type (0, 1), BuildingBlock: MIFKUJ_clean_linker_0, # of connection points: 2
#     Edge 14, Type (0, 1), BuildingBlock: MIFKUJ_clean_linker_0, # of connection points: 2
#     Edge 15, Type (0, 1), BuildingBlock: MIFKUJ_clean_linker_0, # of connection points: 2
# Relax obj value: 0.139
# Max RMSD: 0.237
# Mean RMSD: 0.150
data_MOF--net-nia--node1-JUFBIX_clean_sbu_0--node2-MIDCAF_clean_sbu_0--edge1-MIFKUJ_clean_linker_0
_symmetry_space_group_name_H-M    P1
_symmetry_Int_Tables_number       1
_symmetry_cell_setting            triclinic
loop_
_symmetry_equiv_pos_as_xyz
'x, y, z'
_cell_length_a     29.762151
_cell_length_b     29.753967
_cell_length_c     45.228195
_cell_angle_alpha  86.059091
_cell_angle_beta   86.446565
_cell_angle_gamma 120.64747
loop_
_atom_site_label
_atom_site_type_symbol
_atom_site_fract_x
_atom_site_fract_y
_atom_site_fract_z
_atom_type_partial_charge
Co0 Co 0.99055 0.96994 1.00285 0.0
C1 C 0.93832 0.98308 0.05298 0.0
Co2 Co 0.03542 0.04572 0.02144 0.0
C3 C 0.95775 0.88378 0.96572 0.0
C4 C 0.89344 0.88553 0.98833 0.0
N5 N 0.94627 0.90842 0.98636 0.0
N6 N 0.91426 0.84739 0.95462 0.0
C7 C 0.87381 0.84814 0.96903 0.0
H8 H 0.99732 0.89478 0.95738 0.0
H9 H 0.87055 0.89759 1.00131 0.0
C10 C 0.08769 0.03285 0.97122 0.0
N11 N 0.07985 0.1074 0.03742 0.0
C12 C 0.06891 0.13405 0.05687 0.0
C13 C 0.13272 0.131 0.03463 0.0
N14 N 0.11297 0.17325 0.06613 0.0
C15 C 0.15303 0.17132 0.052 0.0
C16 C 0.0465 0.96254 0.04628 0.0
O17 O 0.04679 0.98745 0.97271 0.0
O18 O 0.08968 0.06337 0.99005 0.0
O19 O 0.06056 0.01076 0.04567 0.0
O20 O 0.01451 0.93466 0.02847 0.0
O21 O 0.98041 0.02729 0.05251 0.0
H22 H 0.15532 0.1181 0.02208 0.0
H23 H 0.02945 0.12396 0.06475 0.0
O24 O 0.93521 0.95341 0.03331 0.0
O25 O 0.96709 0.00586 0.97765 0.0
O26 O 0.00969 0.08025 0.99703 0.0
C27 C 0.97931 0.05341 0.97835 0.0
H28 H 0.83309 0.82485 0.96494 0.0
H29 H 0.19407 0.19538 0.05526 0.0
Co30 Co 0.04951 0.02795 0.52139 0.0
C31 C 0.04075 0.08572 0.47209 0.0
Co32 Co 0.97538 0.98637 0.50071 0.0
C33 C 0.13183 0.05538 0.5609 0.0
C34 C 0.13223 0.12213 0.53963 0.0
N35 N 0.10941 0.06947 0.53988 0.0
N36 N 0.16669 0.09707 0.5739 0.0
C37 C 0.16727 0.13906 0.5604 0.0
H38 H 0.12008 0.01511 0.5682 0.0
H39 H 0.12145 0.14654 0.52683 0.0
C40 C 0.98383 0.92853 0.55005 0.0
N41 N 0.91518 0.94525 0.48264 0.0
C42 C 0.88937 0.95935 0.46406 0.0
C43 C 0.89183 0.89268 0.48274 0.0
N44 N 0.85091 0.91751 0.45272 0.0
C45 C 0.85246 0.87562 0.4646 0.0
C46 C 0.05956 0.97606 0.47681 0.0
O47 O 0.02895 0.96912 0.55031 0.0
O48 O 0.95516 0.9286 0.53041 0.0
O49 O 0.01189 0.9633 0.47583 0.0
O50 O 0.08562 0.00546 0.49607 0.0
O51 O 0.99614 0.04465 0.47149 0.0
H52 H 0.90428 0.86834 0.49403 0.0
H53 H 0.89953 -0.00041 0.45833 0.0
O54 O 0.06921 0.08608 0.49198 0.0
O55 O 0.01283 0.04978 0.54657 0.0
O56 O 0.93953 0.00994 0.52582 0.0
C57 C 0.96553 0.03794 0.54556 0.0
H58 H 0.18969 0.17883 0.56617 0.0
H59 H 0.8288 0.8357 0.4593 0.0
Zn60 Zn 0.33938 0.70508 0.20317 0.0
Zn61 Zn 0.32931 0.68654 0.31673 0.0
Zn62 Zn 0.33149 0.69618 0.26016 0.0
C63 C 0.43306 0.73392 0.29629 0.0
C64 C 0.26391 0.58582 0.30454 0.0
O65 O 0.28788 0.73512 0.24637 0.0
O66 O 0.28496 0.7235 0.19859 0.0
C67 C 0.44041 0.76391 0.21445 0.0
O68 O 0.41318 0.73618 0.2721 0.0
O69 O 0.40341 0.70751 0.31983 0.0
O70 O 0.27368 0.61169 0.32664 0.0
O71 O 0.28457 0.60997 0.27807 0.0
O72 O 0.4143 0.75985 0.19281 0.0
O73 O 0.41628 0.74082 0.24063 0.0
O74 O 0.29222 0.61605 0.24696 0.0
O75 O 0.31881 0.63165 0.19861 0.0
C76 C 0.29467 0.59946 0.22169 0.0
O77 O 0.29387 0.73931 0.27648 0.0
O78 O 0.31118 0.74078 0.32335 0.0
C79 C 0.27102 0.73801 0.22115 0.0
C80 C 0.29392 0.75531 0.30224 0.0
Zn81 Zn 0.6927 0.31563 0.81707 0.0
Zn82 Zn 0.69376 0.32529 0.70585 0.0
Zn83 Zn 0.69574 0.31938 0.76126 0.0
C84 C 0.7338 0.42646 0.71692 0.0
C85 C 0.59209 0.255 0.72777 0.0
O86 O 0.73625 0.27719 0.77502 0.0
O87 O 0.70967 0.25986 0.82334 0.0
C88 C 0.75895 0.41963 0.79692 0.0
O89 O 0.73493 0.40424 0.7422 0.0
O90 O 0.71113 0.39868 0.69666 0.0
O91 O 0.62107 0.26804 0.70343 0.0
O92 O 0.61241 0.27345 0.75171 0.0
O93 O 0.74928 0.38865 0.82009 0.0
O94 O 0.73888 0.40134 0.77291 0.0
O95 O 0.61203 0.27584 0.78241 0.0
O96 O 0.61918 0.29586 0.82872 0.0
C97 C 0.59067 0.27408 0.80854 0.0
O98 O 0.74053 0.2837 0.74355 0.0
O99 O 0.74983 0.31042 0.69563 0.0
C100 C 0.73297 0.25417 0.80095 0.0
C101 C 0.76022 0.28809 0.71655 0.0
H102 H 0.11328 0.01368 0.08698 0.0
H103 H 0.14386 0.97748 0.12521 0.0
H104 H 0.05495 0.82419 0.09543 0.0
H105 H 0.02308 0.86013 0.05708 0.0
H106 H 0.04609 0.81956 0.15689 0.0
H107 H 0.18607 0.90027 0.07556 0.0
H108 H 0.25128 0.97287 0.03838 0.0
H109 H 0.32418 0.06652 0.10852 0.0
H110 H 0.2589 0.99468 0.14612 0.0
H111 H 0.18121 0.69181 0.19577 0.0
H112 H 0.13451 0.73328 0.17688 0.0
H113 H 0.23681 0.87333 0.21652 0.0
H114 H 0.28346 0.83108 0.23598 0.0
H115 H 0.23773 0.89328 0.1573 0.0
H116 H 0.10809 0.80303 0.23887 0.0
H117 H 0.04345 0.72999 0.27574 0.0
H118 H 0.95125 0.65183 0.20608 0.0
H119 H 0.01568 0.72425 0.16866 0.0
C120 C 0.10014 0.97221 0.0884 0.0
C121 C 0.06596 0.93984 0.06873 0.0
C122 C 0.11775 0.95161 0.11035 0.0
C123 C 0.10211 0.89826 0.11304 0.0
C124 C 0.06749 0.86553 0.09374 0.0
C125 C 0.04963 0.88616 0.0717 0.0
C126 C 0.12317 0.8772 0.13548 0.0
C127 C 0.08792 0.83516 0.15687 0.0
C128 C 0.17789 0.89922 0.1362 0.0
C129 C 0.21725 0.94236 0.11362 0.0
C130 C 0.21574 0.93651 0.08304 0.0
C131 C 0.25276 0.97749 0.06189 0.0
C132 C 0.29175 0.02434 0.07108 0.0
C133 C 0.29389 0.03025 0.10144 0.0
C134 C 0.25692 0.98941 0.12267 0.0
C135 C 0.19242 0.73073 0.2014 0.0
C136 C 0.23566 0.75833 0.21733 0.0
C137 C 0.16566 0.75439 0.19066 0.0
C138 C 0.18196 0.80638 0.19538 0.0
C139 C 0.2233 0.83302 0.21287 0.0
C140 C 0.24972 0.80888 0.22409 0.0
C141 C 0.16063 0.83438 0.17831 0.0
C142 C 0.19585 0.87795 0.15781 0.0
C143 C 0.10589 0.81349 0.17842 0.0
C144 C 0.06693 0.76941 0.20086 0.0
C145 C 0.07417 0.77032 0.23132 0.0
C146 C 0.03752 0.72893 0.25236 0.0
C147 C 0.99323 0.68628 0.24327 0.0
C148 C 0.98554 0.68496 0.21311 0.0
C149 C 0.0221 0.72628 0.19197 0.0
H150 H 0.96488 0.65425 0.25959 0.0
H151 H 0.32038 0.05601 0.05467 0.0
H152 H 0.21863 0.04601 0.58396 0.0
H153 H 0.2738 0.0571 0.62428 0.0
H154 H 0.22645 0.15775 0.66246 0.0
H155 H 0.17322 0.14812 0.62166 0.0
H156 H 0.32615 0.20533 0.65577 0.0
H157 H 0.19334 0.03418 0.69892 0.0
H158 H 0.12903 0.93931 0.70081 0.0
H159 H 0.25366 0.9108 0.67752 0.0
H160 H 0.31871 0.00561 0.67506 0.0
H161 H 0.51402 0.26596 0.75468 0.0
H162 H 0.42201 0.22097 0.74428 0.0
H163 H 0.45138 0.12588 0.68743 0.0
H164 H 0.54243 0.16937 0.69861 0.0
H165 H 0.34899 0.07215 0.71386 0.0
H166 H 0.47519 0.24476 0.65922 0.0
H167 H 0.54005 0.33974 0.65658 0.0
H168 H 0.42425 0.36376 0.70201 0.0
H169 H 0.35892 0.26873 0.70524 0.0
C170 C 0.21943 0.06957 0.60137 0.0
C171 C 0.19259 0.09689 0.59961 0.0
C172 C 0.25058 0.07567 0.6245 0.0
C173 C 0.25425 0.10822 0.64655 0.0
C174 C 0.22459 0.13274 0.64568 0.0
C175 C 0.19436 0.12739 0.62236 0.0
C176 C 0.29395 0.12233 0.66804 0.0
C177 C 0.33 0.17597 0.6691 0.0
C178 C 0.29986 0.0843 0.68511 0.0
C179 C 0.26091 0.02714 0.68662 0.0
C180 C 0.20703 0.00775 0.69398 0.0
C181 C 0.17043 0.95396 0.69519 0.0
C182 C 0.18724 0.91906 0.68924 0.0
C183 C 0.2407 0.93788 0.68212 0.0
C184 C 0.27747 0.99165 0.68086 0.0
C185 C 0.50005 0.23379 0.7411 0.0
C186 C 0.535 0.2209 0.72748 0.0
C187 C 0.44766 0.20836 0.735 0.0
C188 C 0.43011 0.17063 0.7147 0.0
C189 C 0.46397 0.15474 0.70318 0.0
C190 C 0.51607 0.17989 0.70938 0.0
C191 C 0.38086 0.15474 0.70109 0.0
C192 C 0.34358 0.10106 0.70125 0.0
C193 C 0.37347 0.19259 0.68509 0.0
C194 C 0.41245 0.24972 0.68276 0.0
C195 C 0.4637 0.27031 0.66877 0.0
C196 C 0.50051 0.32411 0.66717 0.0
C197 C 0.48632 0.35774 0.6792 0.0
C198 C 0.43522 0.33765 0.69276 0.0
C199 C 0.39829 0.28385 0.69448 0.0
H200 H 0.51487 0.39938 0.67795 0.0
H201 H 0.15884 0.87743 0.69018 0.0
H202 H 0.04061 0.15387 0.11296 0.0
H203 H 0.05365 0.209 0.1535 0.0
H204 H 0.20925 0.32263 0.11118 0.0
H205 H 0.1961 0.26934 0.07053 0.0
H206 H 0.2023 0.28813 0.17418 0.0
H207 H 0.11479 0.34595 0.10359 0.0
H208 H 0.03761 0.3285 0.07795 0.0
H209 H 0.94225 0.28066 0.16235 0.0
H210 H 0.01886 0.2973 0.18845 0.0
H211 H 0.33133 0.55185 0.18757 0.0
H212 H 0.28366 0.46136 0.17602 0.0
H213 H 0.14994 0.42976 0.23627 0.0
H214 H 0.19786 0.52129 0.24766 0.0
H215 H 0.12155 0.39768 0.18279 0.0
H216 H 0.21925 0.37494 0.25229 0.0
H217 H 0.29409 0.39048 0.27936 0.0
H218 H 0.36837 0.36858 0.20186 0.0
H219 H 0.29423 0.35332 0.17408 0.0
C220 C 0.07722 0.19099 0.1121 0.0
C221 C 0.11761 0.20694 0.08865 0.0
C222 C 0.08473 0.22211 0.13539 0.0
C223 C 0.13274 0.2693 0.13549 0.0
C224 C 0.17229 0.2858 0.11175 0.0
C225 C 0.1647 0.25524 0.08852 0.0
C226 C 0.14313 0.30299 0.15977 0.0
C227 C 0.18466 0.31205 0.17637 0.0
C228 C 0.1179 0.33182 0.16367 0.0
C229 C 0.07224 0.32216 0.1479 0.0
C230 C 0.07725 0.33128 0.11664 0.0
C231 C 0.03365 0.32164 0.10203 0.0
C232 C 0.98501 0.30329 0.1185 0.0
C233 C 0.97991 0.29473 0.14962 0.0
C234 C 0.02338 0.30426 0.16432 0.0
C235 C 0.29216 0.52525 0.19882 0.0
C236 C 0.26835 0.54306 0.21873 0.0
C237 C 0.26503 0.47351 0.19236 0.0
C238 C 0.21349 0.43854 0.20563 0.0
C239 C 0.18988 0.45591 0.22609 0.0
C240 C 0.21732 0.50793 0.23273 0.0
C241 C 0.18375 0.3858 0.19554 0.0
C242 C 0.13844 0.37293 0.18164 0.0
C243 C 0.20529 0.35303 0.19446 0.0
C244 C 0.25046 0.3623 0.21109 0.0
C245 C 0.25134 0.37324 0.24093 0.0
C246 C 0.2938 0.38215 0.25643 0.0
C247 C 0.33588 0.38036 0.24237 0.0
C248 C 0.3356 0.36971 0.21277 0.0
C249 C 0.2932 0.36072 0.19716 0.0
H250 H 0.36877 0.38734 0.2544 0.0
H251 H 0.9513 0.29586 0.10716 0.0
H252 H 0.8778 0.04625 0.54334 0.0
H253 H 0.84453 0.08359 0.57936 0.0
H254 H 0.9655 0.1055 0.63475 0.0
H255 H -0.00027 0.07018 0.59868 0.0
H256 H 0.8064 0.06212 0.63706 0.0
H257 H 0.01264 0.22067 0.66383 0.0
H258 H 0.10431 0.26955 0.64003 0.0
H259 H 0.04983 0.25037 0.55348 0.0
H260 H 0.95798 0.20246 0.5767 0.0
H261 H 0.75549 0.19977 0.74383 0.0
H262 H 0.79574 0.1527 0.72287 0.0
H263 H 0.8729 0.27489 0.64854 0.0
H264 H 0.83516 0.32253 0.66992 0.0
H265 H 0.93413 0.24158 0.66023 0.0
H266 H 0.7487 0.15915 0.64767 0.0
H267 H 0.65428 0.11477 0.66566 0.0
H268 H 0.66264 0.99009 0.7137 0.0
H269 H 0.75731 0.03414 0.69625 0.0
C270 C 0.897 0.05881 0.56329 0.0
C271 C 0.9419 0.05619 0.56791 0.0
C272 C 0.87786 0.07987 0.58392 0.0
C273 C 0.9031 0.09819 0.60952 0.0
C274 C 0.94607 0.09273 0.61488 0.0
C275 C 0.96561 0.07254 0.59418 0.0
C276 C 0.8869 0.12608 0.62966 0.0
C277 C 0.83436 0.10125 0.64226 0.0
C278 C 0.92325 0.17737 0.63627 0.0
C279 C 0.97844 0.20741 0.62205 0.0
C280 C 0.02026 0.22716 0.63972 0.0
C281 C 0.07225 0.25472 0.62632 0.0
C282 C 0.08289 0.26297 0.59525 0.0
C283 C 0.04157 0.24394 0.57752 0.0
C284 C 0.98954 0.21657 0.59079 0.0
C285 C 0.78265 0.21736 0.72366 0.0
C286 C 0.79204 0.26467 0.70845 0.0
C287 C 0.80503 0.19013 0.71144 0.0
C288 C 0.83648 0.20965 0.68373 0.0
C289 C 0.84873 0.25877 0.66984 0.0
C290 C 0.82688 0.28595 0.68206 0.0
C291 C 0.85339 0.17799 0.66745 0.0
C292 C 0.90626 0.20207 0.65553 0.0
C293 C 0.81697 0.12682 0.66066 0.0
C294 C 0.76009 0.10019 0.67096 0.0
C295 C 0.73042 0.12242 0.66221 0.0
C296 C 0.67689 0.09733 0.6723 0.0
C297 C 0.65251 0.04972 0.69089 0.0
C298 C 0.68159 0.02703 0.69936 0.0
C299 C 0.73517 0.05202 0.68938 0.0
H300 H 0.61106 0.03035 0.69868 0.0
H301 H 0.12315 0.28417 0.58491 0.0
H302 H 0.93707 0.02132 0.10656 0.0
H303 H 0.86217 0.98785 0.14526 0.0
H304 H 0.76268 0.87344 0.0892 0.0
H305 H 0.83712 0.90493 0.05143 0.0
H306 H 0.77322 0.98227 0.14999 0.0
H307 H 0.6712 0.76208 0.12555 0.0
H308 H 0.6978 0.69969 0.11144 0.0
H309 H 0.84554 0.7914 0.14603 0.0
H310 H 0.81956 0.85392 0.16078 0.0
H311 H 0.50137 0.85142 0.17554 0.0
H312 H 0.5953 0.89378 0.16019 0.0
H313 H 0.60482 0.78541 0.22431 0.0
H314 H 0.50966 0.74114 0.2387 0.0
H315 H 0.65289 0.78964 0.17471 0.0
H316 H 0.66819 0.91995 0.23194 0.0
H317 H 0.6478 0.9824 0.2533 0.0
H318 H 0.68428 0.06981 0.16683 0.0
H319 H 0.70434 0.00759 0.14484 0.0
C320 C 0.89917 0.98891 0.10262 0.0
C321 C 0.89319 0.96539 0.07605 0.0
C322 C 0.85638 0.96983 0.12473 0.0
C323 C 0.80686 0.92716 0.12057 0.0
C324 C 0.8007 0.90514 0.09353 0.0
C325 C 0.84337 0.92351 0.07176 0.0
C326 C 0.76089 0.90575 0.14386 0.0
C327 C 0.74714 0.94019 0.15559 0.0
C328 C 0.72797 0.85092 0.15256 0.0
C329 C 0.74348 0.81288 0.14414 0.0
C330 C 0.70921 0.76876 0.13035 0.0
C331 C 0.72423 0.73341 0.12219 0.0
C332 C 0.77336 0.74163 0.12778 0.0
C333 C 0.80754 0.78515 0.14164 0.0
C334 C 0.79271 0.82059 0.14987 0.0
C335 C 0.52366 0.83718 0.18673 0.0
C336 C 0.49841 0.79357 0.20868 0.0
C337 C 0.57756 0.86176 0.17813 0.0
C338 C 0.60766 0.84351 0.19138 0.0
C339 C 0.58266 0.80056 0.21388 0.0
C340 C 0.52842 0.77563 0.22234 0.0
C341 C 0.6636 0.86601 0.17922 0.0
C342 C 0.67938 0.83177 0.16963 0.0
C343 C 0.69935 0.921 0.17367 0.0
C344 C 0.6876 0.9589 0.1867 0.0
C345 C 0.67157 0.9523 0.21742 0.0
C346 C 0.66011 0.98768 0.22966 0.0
C347 C 0.66465 0.02997 0.21142 0.0
C348 C 0.68081 0.03704 0.18093 0.0
C349 C 0.69237 0.00179 0.16857 0.0
H350 H 0.65572 0.0573 0.22093 0.0
H351 H 0.78493 0.71424 0.12141 0.0
H352 H 0.88618 0.84043 0.5576 0.0
H353 H 0.85164 0.7641 0.59483 0.0
H354 H 0.00045 0.83374 0.63102 0.0
H355 H 0.03573 0.91095 0.59352 0.0
H356 H 0.95925 0.72794 0.62401 0.0
H357 H 0.90113 0.8316 0.6695 0.0
H358 H 0.86134 0.8866 0.67193 0.0
H359 H 0.7139 0.75733 0.65346 0.0
H360 H 0.75301 0.70175 0.65045 0.0
H361 H 0.8289 0.50139 0.73268 0.0
H362 H 0.8784 0.5957 0.71431 0.0
H363 H 0.75003 0.57451 0.66562 0.0
H364 H 0.70039 0.48123 0.68447 0.0
H365 H 0.79273 0.66637 0.68844 0.0
H366 H 0.85538 0.57069 0.63289 0.0
H367 H 0.89424 0.51515 0.62799 0.0
H368 H 0.03225 0.62939 0.66405 0.0
H369 H 0.99383 0.6853 0.66951 0.0
C370 C 0.91175 0.83975 0.57343 0.0
C371 C 0.96374 0.88197 0.5726 0.0
C372 C 0.89178 0.7961 0.59485 0.0
C373 C 0.92318 0.79351 0.616 0.0
C374 C 0.97544 0.83509 0.61501 0.0
C375 C 0.99548 0.87916 0.5936 0.0
C376 C 0.90099 0.74656 0.63859 0.0
C377 C 0.92357 0.7151 0.63866 0.0
C378 C 0.85409 0.72949 0.65747 0.0
C379 C 0.83013 0.76256 0.65961 0.0
C380 C 0.86031 0.81497 0.66578 0.0
C381 C 0.83786 0.84625 0.66728 0.0
C382 C 0.78514 0.82549 0.66282 0.0
C383 C 0.75473 0.77335 0.65692 0.0
C384 C 0.77701 0.74191 0.65536 0.0
C385 C 0.8108 0.51738 0.71881 0.0
C386 C 0.76069 0.48423 0.71019 0.0
C387 C 0.83926 0.57108 0.70807 0.0
C388 C 0.81819 0.59214 0.68828 0.0
C389 C 0.76713 0.55935 0.68088 0.0
C390 C 0.73884 0.50597 0.69158 0.0
C391 C 0.85001 0.64693 0.67312 0.0
C392 C 0.82918 0.67987 0.6744 0.0
C393 C 0.89835 0.66524 0.65537 0.0
C394 C 0.92149 0.6318 0.65196 0.0
C395 C 0.89384 0.58375 0.63998 0.0
C396 C 0.9158 0.55224 0.63707 0.0
C397 C 0.96561 0.56864 0.6458 0.0
C398 C 0.99362 0.61667 0.65737 0.0
C399 C 0.97178 0.64828 0.66038 0.0
H400 H 0.98255 0.5442 0.64352 0.0
H401 H 0.76784 0.84978 0.66398 0.0
H402 H 0.01305 0.91154 0.43409 0.0
H403 H 0.05261 0.87967 0.39867 0.0
H404 H 0.20101 0.96732 0.43421 0.0
H405 H 0.16153 0.99879 0.4701 0.0
H406 H 0.13287 0.92622 0.3541 0.0
H407 H 0.26022 0.89659 0.43615 0.0
H408 H 0.25835 0.8764 0.49021 0.0
H409 H 0.08991 0.79854 0.50066 0.0
H410 H 0.09073 0.81759 0.44663 0.0
H411 H 0.34172 0.84153 0.33051 0.0
H412 H 0.30195 0.88714 0.35279 0.0
H413 H 0.16027 0.79194 0.31239 0.0
H414 H 0.20097 0.74666 0.28934 0.0
H415 H 0.21902 0.83313 0.3937 0.0
H416 H 0.09006 0.86084 0.31276 0.0
H417 H 0.08907 0.87856 0.25879 0.0
H418 H 0.25732 0.95545 0.24546 0.0
H419 H 0.25945 0.93916 0.29938 0.0
C420 C 0.05415 0.9241 0.43442 0.0
C421 C 0.08403 0.95735 0.45517 0.0
C422 C 0.07675 0.90607 0.41398 0.0
C423 C 0.12961 0.92072 0.41391 0.0
C424 C 0.15991 0.95493 0.43411 0.0
C425 C 0.1373 0.97288 0.45464 0.0
C426 C 0.15251 0.89844 0.39367 0.0
C427 C 0.15129 0.90538 0.36271 0.0
C428 C 0.17662 0.87139 0.4049 0.0
C429 C 0.17563 0.85903 0.43738 0.0
C430 C 0.22279 0.87498 0.44997 0.0
C431 C 0.22191 0.86376 0.48061 0.0
C432 C 0.17406 0.83637 0.49887 0.0
C433 C 0.12696 0.81994 0.48651 0.0
C434 C 0.12762 0.83099 0.45589 0.0
C435 C 0.3027 0.83151 0.3256 0.0
C436 C 0.27421 0.79053 0.30841 0.0
C437 C 0.27992 0.85742 0.33843 0.0
C438 C 0.2279 0.84253 0.33464 0.0
C439 C 0.20057 0.80426 0.31553 0.0
C440 C 0.22379 0.77851 0.30232 0.0
C441 C 0.20105 0.86226 0.35394 0.0
C442 C 0.2009 0.85419 0.38493 0.0
C443 C 0.17544 0.88775 0.34262 0.0
C444 C 0.1748 0.89811 0.31012 0.0
C445 C 0.12687 0.8817 0.29834 0.0
C446 C 0.12612 0.89161 0.26775 0.0
C447 C 0.17308 0.91789 0.24868 0.0
C448 C 0.22094 0.9348 0.26022 0.0
C449 C 0.22193 0.92519 0.2908 0.0
H450 H 0.17237 0.92513 0.22498 0.0
H451 H 0.17347 0.82778 0.52258 0.0
H452 H 0.17031 0.13269 0.95625 0.0
H453 H 0.24619 0.16337 0.91944 0.0
H454 H 0.18438 0.00548 0.89673 0.0
H455 H 0.10737 0.97417 0.93372 0.0
H456 H 0.28988 0.05428 0.90575 0.0
H457 H 0.18731 0.0917 0.84423 0.0
H458 H 0.12954 0.12367 0.82904 0.0
H459 H 0.24491 0.28024 0.8448 0.0
H460 H 0.30372 0.24915 0.8598 0.0
H461 H 0.5178 0.17584 0.79601 0.0
H462 H 0.42366 0.12506 0.81479 0.0
H463 H 0.44114 0.25745 0.85756 0.0
H464 H 0.53468 0.30778 0.83905 0.0
H465 H 0.3489 0.20718 0.82945 0.0
H466 H 0.44624 0.16311 0.8968 0.0
H467 H 0.50424 0.12937 0.90868 0.0
H468 H 0.39556 0.98101 0.87962 0.0
H469 H 0.33726 0.01421 0.86718 0.0
C470 C 0.17249 0.10435 0.94336 0.0
C471 C 0.13273 0.05091 0.94799 0.0
C472 C 0.21585 0.12208 0.92214 0.0
C473 C 0.22078 0.08687 0.90507 0.0
C474 C 0.18124 0.03338 0.90955 0.0
C475 C 0.13728 0.01559 0.93065 0.0
C476 C 0.26884 0.10644 0.88381 0.0
C477 C 0.30218 0.08681 0.88854 0.0
C478 C 0.28523 0.14913 0.86147 0.0
C479 C 0.24969 0.16801 0.85333 0.0
C480 C 0.20016 0.13286 0.8447 0.0
C481 C 0.1673 0.15088 0.83603 0.0
C482 C 0.18337 0.20395 0.83611 0.0
C483 C 0.23248 0.23914 0.84477 0.0
C484 C 0.26571 0.22139 0.85322 0.0
C485 C 0.50108 0.19423 0.80891 0.0
C486 C 0.53312 0.24574 0.81594 0.0
C487 C 0.44754 0.1652 0.81975 0.0
C488 C 0.42551 0.18744 0.8377 0.0
C489 C 0.45725 0.2396 0.84368 0.0
C490 C 0.51063 0.26826 0.83317 0.0
C491 C 0.37044 0.15609 0.85206 0.0
C492 C 0.33596 0.17374 0.84613 0.0
C493 C 0.35291 0.11132 0.87306 0.0
C494 C 0.38777 0.09134 0.88071 0.0
C495 C 0.43495 0.12345 0.89271 0.0
C496 C 0.46783 0.1044 0.89959 0.0
C497 C 0.45368 0.05313 0.89481 0.0
C498 C 0.40653 0.02075 0.88324 0.0
C499 C 0.37356 0.03965 0.87628 0.0
H500 H 0.47918 0.03845 0.90016 0.0
H501 H 0.15788 0.21786 0.82937 0.0
H502 H 0.13768 0.17513 0.46462 0.0
H503 H 0.16866 0.25412 0.4299 0.0
H504 H 0.0182 0.18321 0.3955 0.0
H505 H 0.98711 0.10315 0.42987 0.0
H506 H 0.09495 0.23668 0.35107 0.0
H507 H 0.04828 0.27285 0.44521 0.0
H508 H 0.04733 0.27786 0.49939 0.0
H509 H 0.21406 0.38659 0.4881 0.0
H510 H 0.21604 0.38184 0.4338 0.0
H511 H 0.17003 0.5334 0.33794 0.0
H512 H 0.12127 0.44081 0.35822 0.0
H513 H 0.23096 0.41512 0.30629 0.0
H514 H 0.27992 0.50857 0.28555 0.0
H515 H 0.16847 0.40694 0.39289 0.0
H516 H 0.15785 0.26917 0.30306 0.0
H517 H 0.13421 0.25124 0.25211 0.0
H518 H 0.05802 0.34069 0.25542 0.0
H519 H 0.08026 0.35843 0.30658 0.0
C520 C 0.11111 0.17612 0.44962 0.0
C521 C 0.0597 0.13291 0.45022 0.0
C522 C 0.12891 0.22144 0.42979 0.0
C523 C 0.09556 0.22501 0.41036 0.0
C524 C 0.04465 0.18143 0.41031 0.0
C525 C 0.02685 0.13578 0.43006 0.0
C526 C 0.11346 0.27493 0.39094 0.0
C527 C 0.1114 0.27413 0.36004 0.0
C528 C 0.13331 0.32342 0.40286 0.0
C529 C 0.13237 0.32659 0.43549 0.0
C530 C 0.0848 0.29754 0.45431 0.0
C531 C 0.08407 0.30038 0.48504 0.0
C532 C 0.13065 0.33238 0.49721 0.0
C533 C 0.17803 0.36175 0.47865 0.0
C534 C 0.17896 0.35907 0.44788 0.0
C535 C 0.18281 0.50766 0.33011 0.0
C536 C 0.22872 0.52807 0.31026 0.0
C537 C 0.15494 0.45472 0.34172 0.0
C538 C 0.17263 0.42096 0.33405 0.0
C539 C 0.21631 0.44026 0.3124 0.0
C540 C 0.24426 0.49361 0.30057 0.0
C541 C 0.15089 0.36935 0.35255 0.0
C542 C 0.15257 0.36984 0.38355 0.0
C543 C 0.12937 0.3206 0.34062 0.0
C544 C 0.12136 0.31569 0.30865 0.0
C545 C 0.13636 0.28537 0.29288 0.0
C546 C 0.12285 0.27488 0.26403 0.0
C547 C 0.09437 0.29456 0.25066 0.0
C548 C 0.08012 0.32551 0.26586 0.0
C549 C 0.09344 0.33606 0.29475 0.0
H550 H 0.08317 0.28561 0.22854 0.0
H551 H 0.13003 0.33454 0.52102 0.0
H552 H 0.91494 0.00535 0.93596 0.0
H553 H 0.88174 0.04295 0.90013 0.0
H554 H 0.96415 0.19172 0.93575 0.0
H555 H 0.99735 0.15406 0.97214 0.0
H556 H 0.86628 0.16631 0.92768 0.0
H557 H 0.00895 0.17557 0.86965 0.0
H558 H 0.06399 0.14271 0.84964 0.0
H559 H 0.93723 0.03261 0.80436 0.0
H560 H 0.8806 0.06379 0.82496 0.0
H561 H 0.83406 0.28336 0.78163 0.0
H562 H 0.88485 0.24967 0.80554 0.0
H563 H 0.74285 0.12671 0.85756 0.0
H564 H 0.69263 0.16071 0.83431 0.0
H565 H 0.88395 0.15315 0.81914 0.0
H566 H 0.76438 0.13488 0.9297 0.0
H567 H 0.71298 0.172 0.94998 0.0
H568 H 0.80564 0.31264 0.88895 0.0
H569 H 0.85817 0.27677 0.86871 0.0
C570 C 0.92618 0.04614 0.93624 0.0
C571 C 0.95893 0.07675 0.95694 0.0
C572 C 0.90735 0.06766 0.91556 0.0
C573 C 0.92106 0.12037 0.91493 0.0
C574 C 0.95328 0.151 0.93575 0.0
C575 C 0.97223 0.12945 0.95652 0.0
C576 C 0.90015 0.14265 0.8931 0.0
C577 C 0.87048 0.16367 0.90396 0.0
C578 C 0.90636 0.14014 0.86201 0.0
C579 C 0.94039 0.12178 0.84906 0.0
C580 C 0.99262 0.14408 0.85561 0.0
C581 C 0.02416 0.12575 0.84412 0.0
C582 C 0.00425 0.08561 0.82566 0.0
C583 C 0.95263 0.06371 0.81866 0.0
C584 C 0.92075 0.08167 0.83027 0.0
C585 C 0.81358 0.24784 0.79723 0.0
C586 C 0.75968 0.22475 0.80639 0.0
C587 C 0.84257 0.22877 0.81095 0.0
C588 C 0.81769 0.18651 0.83382 0.0
C589 C 0.76287 0.15987 0.84031 0.0
C590 C 0.73419 0.17913 0.82692 0.0
C591 C 0.84876 0.17485 0.85401 0.0
C592 C 0.88025 0.15601 0.84285 0.0
C593 C 0.84515 0.18025 0.88481 0.0
C594 C 0.8149 0.20291 0.89754 0.0
C595 C 0.77401 0.17387 0.92077 0.0
C596 C 0.74465 0.19467 0.93223 0.0
C597 C 0.75595 0.24459 0.92071 0.0
C598 C 0.79683 0.27393 0.89781 0.0
C599 C 0.8264 0.25337 0.88633 0.0
H600 H 0.73308 0.26056 0.92956 0.0
H601 H 0.0288 0.0715 0.81677 0.0
H602 H 0.75567 0.83649 0.44451 0.0
H603 H 0.70558 0.83002 0.40286 0.0
H604 H 0.82009 0.99039 0.36815 0.0
H605 H 0.8721 0.99681 0.40963 0.0
H606 H 0.6989 0.94955 0.37099 0.0
H607 H 0.83273 0.92369 0.32862 0.0
H608 H 0.89388 0.89087 0.32795 0.0
H609 H 0.76354 0.73166 0.34102 0.0
H610 H 0.70156 0.76349 0.34229 0.0
H611 H 0.5039 0.8342 0.27096 0.0
H612 H 0.59585 0.88853 0.28089 0.0
H613 H 0.58088 0.75633 0.33609 0.0
H614 H 0.48996 0.70226 0.32588 0.0
H615 H 0.67856 0.815 0.30517 0.0
H616 H 0.55366 0.84574 0.36656 0.0
H617 H 0.48939 0.8748 0.3701 0.0
H618 H 0.60301 0.0236 0.32082 0.0
H619 H 0.66774 0.99512 0.31685 0.0
C620 C 0.77052 0.87046 0.42806 0.0
C621 C 0.8184 0.91684 0.43018 0.0
C622 C 0.74168 0.86675 0.40434 0.0
C623 C 0.75964 0.90945 0.3823 0.0
C624 C 0.80588 0.95696 0.38496 0.0
C625 C 0.8353 0.96059 0.40873 0.0
C626 C 0.72965 0.90213 0.35639 0.0
C627 C 0.69571 0.92171 0.35573 0.0
C628 C 0.72551 0.86569 0.33664 0.0
C629 C 0.76248 0.84606 0.3356 0.0
C630 C 0.81709 0.88168 0.33155 0.0
C631 C 0.85191 0.86324 0.33104 0.0
C632 C 0.83261 0.80921 0.33445 0.0
C633 C 0.77843 0.7735 0.33834 0.0
C634 C 0.74343 0.79174 0.3389 0.0
C635 C 0.52098 0.81657 0.28447 0.0
C636 C 0.49018 0.76415 0.29767 0.0
C637 C 0.57331 0.84761 0.2902 0.0
C638 C 0.5951 0.82658 0.3094 0.0
C639 C 0.56506 0.77334 0.32107 0.0
C640 C 0.51302 0.74253 0.31542 0.0
C641 C 0.64605 0.86025 0.32094 0.0
C642 C 0.68367 0.84518 0.3191 0.0
C643 C 0.65363 0.90087 0.33833 0.0
C644 C 0.61525 0.91828 0.34128 0.0
C645 C 0.5648 0.88462 0.35649 0.0
C646 C 0.52833 0.90095 0.35854 0.0
C647 C 0.54209 0.951 0.34566 0.0
C648 C 0.59241 0.98486 0.33077 0.0
C649 C 0.629 0.96868 0.32863 0.0
H650 H 0.51378 0.96355 0.34724 0.0
H651 H 0.85964 0.79501 0.33406 0.0
H652 H 0.96965 0.80036 0.94243 0.0
H653 H 0.95578 0.74211 0.9036 0.0
H654 H 0.83899 0.77264 0.87176 0.0
H655 H 0.85195 0.82942 0.91081 0.0
H656 H 0.80004 0.67281 0.88105 0.0
H657 H 0.95913 0.81563 0.82978 0.0
H658 H 0.05216 0.8869 0.82305 0.0
H659 H 0.09947 0.77436 0.8411 0.0
H660 H 0.00665 0.70243 0.84838 0.0
H661 H 0.73982 0.49561 0.77563 0.0
H662 H 0.78068 0.58554 0.78932 0.0
H663 H 0.88705 0.55991 0.83831 0.0
H664 H 0.84697 0.47066 0.82427 0.0
H665 H 0.93278 0.66523 0.81305 0.0
H666 H 0.7731 0.52727 0.87323 0.0
H667 H 0.68008 0.45575 0.87991 0.0
H668 H 0.63494 0.56267 0.84426 0.0
H669 H 0.7279 0.63465 0.83697 0.0
C670 C 0.94176 0.79515 0.92676 0.0
C671 C 0.91122 0.8185 0.92986 0.0
C672 C 0.93399 0.76216 0.9045 0.0
C673 C 0.89631 0.75298 0.88468 0.0
C674 C 0.86797 0.77874 0.88688 0.0
C675 C 0.87521 0.81097 0.90927 0.0
C676 C 0.88206 0.71229 0.86392 0.0
C677 C 0.82908 0.67209 0.86568 0.0
C678 C 0.91989 0.71052 0.84422 0.0
C679 C 0.97583 0.75364 0.83987 0.0
C680 C 0.98932 0.80609 0.83256 0.0
C681 C 0.04204 0.84661 0.8286 0.0
C682 C 0.0817 0.83518 0.83171 0.0
C683 C 0.06871 0.78317 0.83872 0.0
C684 C 0.01604 0.74249 0.84273 0.0
C685 C 0.77332 0.51006 0.78827 0.0
C686 C 0.79041 0.47651 0.79891 0.0
C687 C 0.79648 0.56125 0.79617 0.0
C688 C 0.83649 0.57909 0.81511 0.0
C689 C 0.8564 0.54702 0.82362 0.0
C690 C 0.83326 0.49597 0.81577 0.0
C691 C 0.85113 0.6264 0.8304 0.0
C692 C 0.90394 0.66721 0.8279 0.0
C693 C 0.81327 0.62911 0.84943 0.0
C694 C 0.75739 0.58611 0.85425 0.0
C695 C 0.74334 0.5354 0.86666 0.0
C696 C 0.69066 0.49481 0.87056 0.0
C697 C 0.65164 0.50462 0.86243 0.0
C698 C 0.66522 0.5551 0.85048 0.0
C699 C 0.71788 0.59581 0.84646 0.0
H700 H 0.61086 0.47315 0.86546 0.0
H701 H 0.12249 0.86661 0.82864 0.0
loop_
_geom_bond_atom_site_label_1
_geom_bond_atom_site_label_2
_geom_bond_distance
_geom_bond_site_symmetry_2
_ccdc_geom_bond_type
Co0 N5 2.057 . S
Co0 O17 2.021 1_665 S
Co0 O20 2.062 1_656 S
Co0 O24 2.117 1_556 S
Co0 O25 2.020 1_565 S
C1 O21 1.259 1_565 S
C1 O24 1.258 . S
Co2 N11 2.057 . S
Co2 O18 2.117 1_554 S
Co2 O19 2.020 . S
Co2 O21 2.021 1_455 S
Co2 O26 2.062 1_554 S
C3 N5 1.316 . S
C3 N6 1.347 . S
C3 H8 0.931 1_655 S
C4 N5 1.375 . S
C4 C7 1.350 . S
C4 H9 0.930 . S
N5 Co0 2.057 . S
N5 C3 1.316 . S
N5 C4 1.375 . S
N6 C3 1.347 . S
N6 C7 1.373 . S
C7 C4 1.350 . S
C7 N6 1.373 . S
C7 H28 0.931 . S
H8 C3 0.931 1_455 S
H9 C4 0.930 . S
C10 O17 1.259 . S
C10 O18 1.258 . S
N11 Co2 2.057 . S
N11 C12 1.316 . S
N11 C13 1.375 . S
C12 N11 1.316 . S
C12 N14 1.347 . S
C12 H23 0.931 . S
C13 N11 1.375 . S
C13 C15 1.350 . S
C13 H22 0.930 . S
N14 C12 1.347 . S
N14 C15 1.373 . S
C15 C13 1.350 . S
C15 N14 1.373 . S
C15 H29 0.931 . S
C16 O19 1.256 1_565 S
C16 O20 1.255 . S
O17 Co0 2.021 1_445 S
O17 C10 1.259 . S
O18 Co2 2.117 1_556 S
O18 C10 1.258 . S
O19 Co2 2.020 . S
O19 C16 1.256 1_545 S
O20 Co0 2.062 1_454 S
O20 C16 1.255 . S
O21 C1 1.259 1_545 S
O21 Co2 2.021 1_655 S
H22 C13 0.930 . S
H23 C12 0.931 . S
O24 Co0 2.117 1_554 S
O24 C1 1.258 . S
O25 Co0 2.020 1_545 S
O25 C27 1.256 . S
O26 Co2 2.062 1_556 S
O26 C27 1.255 1_455 S
C27 O25 1.256 . S
C27 O26 1.255 1_655 S
H28 C7 0.931 . S
H29 C15 0.931 . S
Co30 N35 2.057 . S
Co30 O47 2.021 1_545 S
Co30 O50 2.062 1_545 S
Co30 O54 2.117 . S
Co30 O55 2.020 . S
C31 O51 1.259 . S
C31 O54 1.258 . S
Co32 N41 2.057 . S
Co32 O48 2.117 . S
Co32 O49 2.020 1_655 S
Co32 O51 2.021 1_665 S
Co32 O56 2.062 1_565 S
C33 N35 1.316 . S
C33 N36 1.347 . S
C33 H38 0.931 . S
C34 N35 1.375 . S
C34 C37 1.350 . S
C34 H39 0.930 . S
N35 Co30 2.057 . S
N35 C33 1.316 . S
N35 C34 1.375 . S
N36 C33 1.347 . S
N36 C37 1.373 . S
C37 C34 1.350 . S
C37 N36 1.373 . S
C37 H58 0.931 . S
H38 C33 0.931 . S
H39 C34 0.930 . S
C40 O47 1.259 1_655 S
C40 O48 1.258 . S
N41 Co32 2.057 . S
N41 C42 1.316 . S
N41 C43 1.375 . S
C42 N41 1.316 . S
C42 N44 1.347 . S
C42 H53 0.931 . S
C43 N41 1.375 . S
C43 C45 1.350 . S
C43 H52 0.930 . S
N44 C42 1.347 . S
N44 C45 1.373 . S
C45 C43 1.350 . S
C45 N44 1.373 . S
C45 H59 0.931 . S
C46 O49 1.256 . S
C46 O50 1.255 . S
O47 Co30 2.021 1_565 S
O47 C40 1.259 1_455 S
O48 Co32 2.117 . S
O48 C40 1.258 . S
O49 Co32 2.020 1_455 S
O49 C46 1.256 . S
O50 Co30 2.062 1_565 S
O50 C46 1.255 . S
O51 C31 1.259 . S
O51 Co32 2.021 1_445 S
H52 C43 0.930 . S
H53 C42 0.931 . S
O54 Co30 2.117 . S
O54 C31 1.258 . S
O55 Co30 2.020 . S
O55 C57 1.256 1_455 S
O56 Co32 2.062 1_545 S
O56 C57 1.255 . S
C57 O55 1.256 1_655 S
C57 O56 1.255 . S
H58 C37 0.931 . S
H59 C45 0.931 . S
Zn60 O66 1.920 . S
Zn60 O72 1.898 . S
Zn60 O75 1.905 . S
Zn61 O69 1.905 . S
Zn61 O70 1.898 . S
Zn61 O78 1.920 . S
Zn62 O65 2.080 . S
Zn62 O68 2.114 . S
Zn62 O71 2.120 . S
Zn62 O73 2.120 . S
Zn62 O74 2.114 . S
Zn62 O77 2.080 . S
C63 O68 1.166 . S
C63 O69 1.182 . S
C64 O70 1.167 . S
C64 O71 1.299 . S
O65 Zn62 2.080 . S
O65 C79 1.305 . S
O66 Zn60 1.920 . S
O66 C79 1.234 . S
C67 O72 1.167 . S
C67 O73 1.299 . S
O68 Zn62 2.114 . S
O68 C63 1.166 . S
O69 Zn61 1.905 . S
O69 C63 1.182 . S
O70 Zn61 1.898 . S
O70 C64 1.167 . S
O71 Zn62 2.120 . S
O71 C64 1.299 . S
O72 Zn60 1.898 . S
O72 C67 1.167 . S
O73 Zn62 2.120 . S
O73 C67 1.299 . S
O74 Zn62 2.114 . S
O74 C76 1.166 . S
O75 Zn60 1.905 . S
O75 C76 1.182 . S
C76 O74 1.166 . S
C76 O75 1.182 . S
O77 Zn62 2.080 . S
O77 C80 1.305 . S
O78 Zn61 1.920 . S
O78 C80 1.234 . S
C79 O65 1.305 . S
C79 O66 1.234 . S
C80 O77 1.305 . S
C80 O78 1.234 . S
Zn81 O87 1.920 . S
Zn81 O93 1.898 . S
Zn81 O96 1.905 . S
Zn82 O90 1.905 . S
Zn82 O91 1.898 . S
Zn82 O99 1.920 . S
Zn83 O86 2.080 . S
Zn83 O89 2.114 . S
Zn83 O92 2.120 . S
Zn83 O94 2.120 . S
Zn83 O95 2.114 . S
Zn83 O98 2.080 . S
C84 O89 1.166 . S
C84 O90 1.182 . S
C85 O91 1.167 . S
C85 O92 1.299 . S
O86 Zn83 2.080 . S
O86 C100 1.305 . S
O87 Zn81 1.920 . S
O87 C100 1.234 . S
C88 O93 1.167 . S
C88 O94 1.299 . S
O89 Zn83 2.114 . S
O89 C84 1.166 . S
O90 Zn82 1.905 . S
O90 C84 1.182 . S
O91 Zn82 1.898 . S
O91 C85 1.167 . S
O92 Zn83 2.120 . S
O92 C85 1.299 . S
O93 Zn81 1.898 . S
O93 C88 1.167 . S
O94 Zn83 2.120 . S
O94 C88 1.299 . S
O95 Zn83 2.114 . S
O95 C97 1.166 . S
O96 Zn81 1.905 . S
O96 C97 1.182 . S
C97 O95 1.166 . S
C97 O96 1.182 . S
O98 Zn83 2.080 . S
O98 C101 1.305 . S
O99 Zn82 1.920 . S
O99 C101 1.234 . S
C100 O86 1.305 . S
C100 O87 1.234 . S
C101 O98 1.305 . S
C101 O99 1.234 . S
H102 C120 0.951 . S
H103 C122 0.951 . S
H104 C124 0.950 . S
H105 C125 0.950 . S
H106 C127 0.950 . S
H107 C130 0.950 . S
H108 C131 0.950 . S
H109 C133 0.950 . S
H110 C134 0.950 . S
H111 C135 0.951 . S
H112 C137 0.951 . S
H113 C139 0.950 . S
H114 C140 0.950 . S
H115 C142 0.950 . S
H116 C145 0.950 . S
H117 C146 0.950 . S
H118 C148 0.950 1_655 S
H119 C149 0.950 . S
C120 H102 0.951 . S
C120 C121 1.366 . S
C120 C122 1.388 . S
C121 C120 1.366 . S
C121 C125 1.385 . S
C122 H103 0.951 . S
C122 C120 1.388 . S
C122 C123 1.366 . S
C123 C122 1.366 . S
C123 C124 1.414 . S
C123 C126 1.499 . S
C124 H104 0.950 . S
C124 C123 1.414 . S
C124 C125 1.374 . S
C125 H105 0.950 . S
C125 C121 1.385 . S
C125 C124 1.374 . S
C126 C123 1.499 . S
C126 C127 1.373 . S
C126 C128 1.389 . S
C127 H106 0.950 . S
C127 C126 1.373 . S
C127 C143 1.377 . S
C128 C126 1.389 . S
C128 C129 1.524 . S
C128 C142 1.377 . S
C129 C128 1.524 . S
C129 C130 1.397 . S
C129 C134 1.363 . S
C130 H107 0.950 . S
C130 C129 1.397 . S
C130 C131 1.334 . S
C131 H108 0.950 . S
C131 C130 1.334 . S
C131 C132 1.287 . S
C132 C131 1.287 . S
C132 C133 1.524 . S
C132 H151 0.913 1_554 S
C133 H109 0.950 . S
C133 C132 1.524 . S
C133 C134 1.415 . S
C134 H110 0.950 . S
C134 C129 1.363 . S
C134 C133 1.415 . S
C135 H111 0.951 . S
C135 C136 1.366 . S
C135 C137 1.388 . S
C136 C135 1.366 . S
C136 C140 1.385 . S
C137 H112 0.951 . S
C137 C135 1.388 . S
C137 C138 1.366 . S
C138 C137 1.366 . S
C138 C139 1.414 . S
C138 C141 1.499 . S
C139 H113 0.950 . S
C139 C138 1.414 . S
C139 C140 1.374 . S
C140 H114 0.950 . S
C140 C136 1.385 . S
C140 C139 1.374 . S
C141 C138 1.499 . S
C141 C142 1.373 . S
C141 C143 1.389 . S
C142 H115 0.950 . S
C142 C128 1.377 . S
C142 C141 1.373 . S
C143 C127 1.377 . S
C143 C141 1.389 . S
C143 C144 1.524 . S
C144 C143 1.524 . S
C144 C145 1.397 . S
C144 C149 1.363 . S
C145 H116 0.950 . S
C145 C144 1.397 . S
C145 C146 1.334 . S
C146 H117 0.950 . S
C146 C145 1.334 . S
C146 C147 1.287 . S
C147 C146 1.287 . S
C147 C148 1.524 . S
C147 H150 0.999 . S
C148 H118 0.950 1_455 S
C148 C147 1.524 . S
C148 C149 1.415 . S
C149 H119 0.950 . S
C149 C144 1.363 . S
C149 C148 1.415 . S
H150 C147 0.999 . S
H151 C132 0.913 1_556 S
H152 C170 0.951 . S
H153 C172 0.951 . S
H154 C174 0.950 . S
H155 C175 0.950 . S
H156 C177 0.950 . S
H157 C180 0.950 . S
H158 C181 0.950 . S
H159 C183 0.941 1_565 S
H160 C184 0.950 . S
H161 C185 0.951 . S
H162 C187 0.951 . S
H163 C189 0.950 . S
H164 C190 0.950 . S
H165 C192 0.950 . S
H166 C195 0.950 . S
H167 C196 0.950 . S
H168 C198 0.950 . S
H169 C199 0.950 . S
C170 H152 0.951 . S
C170 C171 1.366 . S
C170 C172 1.388 . S
C171 C170 1.366 . S
C171 C175 1.385 . S
C172 H153 0.951 . S
C172 C170 1.388 . S
C172 C173 1.366 . S
C173 C172 1.366 . S
C173 C174 1.414 . S
C173 C176 1.499 . S
C174 H154 0.950 . S
C174 C173 1.414 . S
C174 C175 1.374 . S
C175 H155 0.950 . S
C175 C171 1.385 . S
C175 C174 1.374 . S
C176 C173 1.499 . S
C176 C177 1.373 . S
C176 C178 1.389 . S
C177 H156 0.950 . S
C177 C176 1.373 . S
C177 C193 1.377 . S
C178 C176 1.389 . S
C178 C179 1.524 . S
C178 C192 1.377 . S
C179 C178 1.524 . S
C179 C180 1.397 . S
C179 C184 1.363 . S
C180 H157 0.950 . S
C180 C179 1.397 . S
C180 C181 1.334 1_545 S
C181 H158 0.950 . S
C181 C180 1.334 1_565 S
C181 C182 1.287 . S
C182 C181 1.287 . S
C182 C183 1.522 1_565 S
C182 H201 0.913 . S
C183 H159 0.941 1_545 S
C183 C182 1.522 1_545 S
C183 C184 1.427 . S
C184 H160 0.950 . S
C184 C179 1.363 . S
C184 C183 1.427 . S
C185 H161 0.951 . S
C185 C186 1.366 . S
C185 C187 1.388 . S
C186 C185 1.366 . S
C186 C190 1.385 . S
C187 H162 0.951 . S
C187 C185 1.388 . S
C187 C188 1.366 . S
C188 C187 1.366 . S
C188 C189 1.414 . S
C188 C191 1.499 . S
C189 H163 0.950 . S
C189 C188 1.414 . S
C189 C190 1.374 . S
C190 H164 0.950 . S
C190 C186 1.385 . S
C190 C189 1.374 . S
C191 C188 1.499 . S
C191 C192 1.373 . S
C191 C193 1.389 . S
C192 H165 0.950 . S
C192 C178 1.377 . S
C192 C191 1.373 . S
C193 C177 1.377 . S
C193 C191 1.389 . S
C193 C194 1.524 . S
C194 C193 1.524 . S
C194 C195 1.397 . S
C194 C199 1.363 . S
C195 H166 0.950 . S
C195 C194 1.397 . S
C195 C196 1.334 . S
C196 H167 0.950 . S
C196 C195 1.334 . S
C196 C197 1.287 . S
C197 C196 1.287 . S
C197 C198 1.524 . S
C197 H200 0.999 . S
C198 H168 0.950 . S
C198 C197 1.524 . S
C198 C199 1.415 . S
C199 H169 0.950 . S
C199 C194 1.363 . S
C199 C198 1.415 . S
H200 C197 0.999 . S
H201 C182 0.913 . S
H202 C220 0.951 . S
H203 C222 0.951 . S
H204 C224 0.950 . S
H205 C225 0.950 . S
H206 C227 0.950 . S
H207 C230 0.950 . S
H208 C231 0.950 . S
H209 C233 0.934 1_655 S
H210 C234 0.950 . S
H211 C235 0.951 . S
H212 C237 0.951 . S
H213 C239 0.950 . S
H214 C240 0.950 . S
H215 C242 0.950 . S
H216 C245 0.950 . S
H217 C246 0.950 . S
H218 C248 0.950 . S
H219 C249 0.950 . S
C220 H202 0.951 . S
C220 C221 1.366 . S
C220 C222 1.388 . S
C221 C220 1.366 . S
C221 C225 1.385 . S
C222 H203 0.951 . S
C222 C220 1.388 . S
C222 C223 1.366 . S
C223 C222 1.366 . S
C223 C224 1.414 . S
C223 C226 1.499 . S
C224 H204 0.950 . S
C224 C223 1.414 . S
C224 C225 1.374 . S
C225 H205 0.950 . S
C225 C221 1.385 . S
C225 C224 1.374 . S
C226 C223 1.499 . S
C226 C227 1.373 . S
C226 C228 1.389 . S
C227 H206 0.950 . S
C227 C226 1.373 . S
C227 C243 1.377 . S
C228 C226 1.389 . S
C228 C229 1.524 . S
C228 C242 1.377 . S
C229 C228 1.524 . S
C229 C230 1.397 . S
C229 C234 1.363 . S
C230 H207 0.950 . S
C230 C229 1.397 . S
C230 C231 1.334 . S
C231 H208 0.950 . S
C231 C230 1.334 . S
C231 C232 1.287 1_455 S
C232 C231 1.287 1_655 S
C232 C233 1.517 1_655 S
C232 H251 0.913 . S
C233 H209 0.934 1_455 S
C233 C232 1.517 1_455 S
C233 C234 1.440 . S
C234 H210 0.950 . S
C234 C229 1.363 . S
C234 C233 1.440 . S
C235 H211 0.951 . S
C235 C236 1.366 . S
C235 C237 1.388 . S
C236 C235 1.366 . S
C236 C240 1.385 . S
C237 H212 0.951 . S
C237 C235 1.388 . S
C237 C238 1.366 . S
C238 C237 1.366 . S
C238 C239 1.414 . S
C238 C241 1.499 . S
C239 H213 0.950 . S
C239 C238 1.414 . S
C239 C240 1.374 . S
C240 H214 0.950 . S
C240 C236 1.385 . S
C240 C239 1.374 . S
C241 C238 1.499 . S
C241 C242 1.373 . S
C241 C243 1.389 . S
C242 H215 0.950 . S
C242 C228 1.377 . S
C242 C241 1.373 . S
C243 C227 1.377 . S
C243 C241 1.389 . S
C243 C244 1.524 . S
C244 C243 1.524 . S
C244 C245 1.397 . S
C244 C249 1.363 . S
C245 H216 0.950 . S
C245 C244 1.397 . S
C245 C246 1.334 . S
C246 H217 0.950 . S
C246 C245 1.334 . S
C246 C247 1.287 . S
C247 C246 1.287 . S
C247 C248 1.524 . S
C247 H250 0.999 . S
C248 H218 0.950 . S
C248 C247 1.524 . S
C248 C249 1.415 . S
C249 H219 0.950 . S
C249 C244 1.363 . S
C249 C248 1.415 . S
H250 C247 0.999 . S
H251 C232 0.913 . S
H252 C270 0.951 . S
H253 C272 0.951 . S
H254 C274 0.950 . S
H255 C275 0.950 . S
H256 C277 0.950 . S
H257 C280 0.949 . S
H258 C281 0.950 . S
H259 C283 0.950 . S
H260 C284 0.950 . S
H261 C285 0.951 . S
H262 C287 0.951 . S
H263 C289 0.950 . S
H264 C290 0.950 . S
H265 C292 0.950 . S
H266 C295 0.950 . S
H267 C296 0.950 . S
H268 C298 0.950 . S
H269 C299 0.950 . S
C270 H252 0.951 . S
C270 C271 1.366 . S
C270 C272 1.388 . S
C271 C270 1.366 . S
C271 C275 1.385 . S
C272 H253 0.951 . S
C272 C270 1.388 . S
C272 C273 1.366 . S
C273 C272 1.366 . S
C273 C274 1.414 . S
C273 C276 1.499 . S
C274 H254 0.950 . S
C274 C273 1.414 . S
C274 C275 1.374 . S
C275 H255 0.950 . S
C275 C271 1.385 . S
C275 C274 1.374 . S
C276 C273 1.499 . S
C276 C277 1.373 . S
C276 C278 1.389 . S
C277 H256 0.950 . S
C277 C276 1.373 . S
C277 C293 1.377 . S
C278 C276 1.389 . S
C278 C279 1.524 . S
C278 C292 1.377 . S
C279 C278 1.524 . S
C279 C280 1.397 . S
C279 C284 1.363 . S
C280 H257 0.949 . S
C280 C279 1.397 . S
C280 C281 1.334 1_655 S
C281 H258 0.950 . S
C281 C280 1.334 1_455 S
C281 C282 1.287 . S
C282 C281 1.287 . S
C282 C283 1.524 1_455 S
C282 H301 0.913 . S
C283 H259 0.950 . S
C283 C282 1.524 1_655 S
C283 C284 1.415 . S
C284 H260 0.950 . S
C284 C279 1.363 . S
C284 C283 1.415 . S
C285 H261 0.951 . S
C285 C286 1.366 . S
C285 C287 1.388 . S
C286 C285 1.366 . S
C286 C290 1.385 . S
C287 H262 0.951 . S
C287 C285 1.388 . S
C287 C288 1.366 . S
C288 C287 1.366 . S
C288 C289 1.414 . S
C288 C291 1.499 . S
C289 H263 0.950 . S
C289 C288 1.414 . S
C289 C290 1.374 . S
C290 H264 0.950 . S
C290 C286 1.385 . S
C290 C289 1.374 . S
C291 C288 1.499 . S
C291 C292 1.373 . S
C291 C293 1.389 . S
C292 H265 0.950 . S
C292 C278 1.377 . S
C292 C291 1.373 . S
C293 C277 1.377 . S
C293 C291 1.389 . S
C293 C294 1.524 . S
C294 C293 1.524 . S
C294 C295 1.397 . S
C294 C299 1.363 . S
C295 H266 0.950 . S
C295 C294 1.397 . S
C295 C296 1.334 . S
C296 H267 0.950 . S
C296 C295 1.334 . S
C296 C297 1.287 . S
C297 C296 1.287 . S
C297 C298 1.524 . S
C297 H300 0.999 . S
C298 H268 0.950 . S
C298 C297 1.524 . S
C298 C299 1.415 . S
C299 H269 0.950 . S
C299 C294 1.363 . S
C299 C298 1.415 . S
H300 C297 0.999 . S
H301 C282 0.913 . S
H302 C320 0.951 . S
H303 C322 0.951 . S
H304 C324 0.950 . S
H305 C325 0.950 . S
H306 C327 0.950 . S
H307 C330 0.950 . S
H308 C331 0.950 . S
H309 C333 0.950 . S
H310 C334 0.950 . S
H311 C335 0.951 . S
H312 C337 0.951 . S
H313 C339 0.950 . S
H314 C340 0.950 . S
H315 C342 0.950 . S
H316 C345 0.950 . S
H317 C346 0.950 . S
H318 C348 0.950 . S
H319 C349 0.950 . S
C320 H302 0.951 . S
C320 C321 1.366 . S
C320 C322 1.388 . S
C321 C320 1.366 . S
C321 C325 1.385 . S
C322 H303 0.951 . S
C322 C320 1.388 . S
C322 C323 1.366 . S
C323 C322 1.366 . S
C323 C324 1.414 . S
C323 C326 1.499 . S
C324 H304 0.950 . S
C324 C323 1.414 . S
C324 C325 1.374 . S
C325 H305 0.950 . S
C325 C321 1.385 . S
C325 C324 1.374 . S
C326 C323 1.499 . S
C326 C327 1.373 . S
C326 C328 1.389 . S
C327 H306 0.950 . S
C327 C326 1.373 . S
C327 C343 1.377 . S
C328 C326 1.389 . S
C328 C329 1.524 . S
C328 C342 1.377 . S
C329 C328 1.524 . S
C329 C330 1.397 . S
C329 C334 1.363 . S
C330 H307 0.950 . S
C330 C329 1.397 . S
C330 C331 1.334 . S
C331 H308 0.950 . S
C331 C330 1.334 . S
C331 C332 1.287 . S
C332 C331 1.287 . S
C332 C333 1.524 . S
C332 H351 0.913 . S
C333 H309 0.950 . S
C333 C332 1.524 . S
C333 C334 1.415 . S
C334 H310 0.950 . S
C334 C329 1.363 . S
C334 C333 1.415 . S
C335 H311 0.951 . S
C335 C336 1.366 . S
C335 C337 1.388 . S
C336 C335 1.366 . S
C336 C340 1.385 . S
C337 H312 0.951 . S
C337 C335 1.388 . S
C337 C338 1.366 . S
C338 C337 1.366 . S
C338 C339 1.414 . S
C338 C341 1.499 . S
C339 H313 0.950 . S
C339 C338 1.414 . S
C339 C340 1.374 . S
C340 H314 0.950 . S
C340 C336 1.385 . S
C340 C339 1.374 . S
C341 C338 1.499 . S
C341 C342 1.373 . S
C341 C343 1.389 . S
C342 H315 0.950 . S
C342 C328 1.377 . S
C342 C341 1.373 . S
C343 C327 1.377 . S
C343 C341 1.389 . S
C343 C344 1.524 . S
C344 C343 1.524 . S
C344 C345 1.397 . S
C344 C349 1.363 . S
C345 H316 0.950 . S
C345 C344 1.397 . S
C345 C346 1.334 . S
C346 H317 0.950 . S
C346 C345 1.334 . S
C346 C347 1.287 . S
C347 C346 1.287 . S
C347 C348 1.524 . S
C347 H350 0.998 . S
C348 H318 0.950 . S
C348 C347 1.524 . S
C348 C349 1.415 . S
C349 H319 0.950 . S
C349 C344 1.363 . S
C349 C348 1.415 . S
H350 C347 0.998 . S
H351 C332 0.913 . S
H352 C370 0.951 . S
H353 C372 0.951 . S
H354 C374 0.950 . S
H355 C375 0.950 1_455 S
H356 C377 0.950 . S
H357 C380 0.950 . S
H358 C381 0.950 . S
H359 C383 0.950 . S
H360 C384 0.950 . S
H361 C385 0.951 . S
H362 C387 0.951 . S
H363 C389 0.950 . S
H364 C390 0.950 . S
H365 C392 0.950 . S
H366 C395 0.950 . S
H367 C396 0.950 . S
H368 C398 0.950 . S
H369 C399 0.950 . S
C370 H352 0.951 . S
C370 C371 1.366 . S
C370 C372 1.388 . S
C371 C370 1.366 . S
C371 C375 1.385 . S
C372 H353 0.951 . S
C372 C370 1.388 . S
C372 C373 1.366 . S
C373 C372 1.366 . S
C373 C374 1.414 . S
C373 C376 1.499 . S
C374 H354 0.950 . S
C374 C373 1.414 . S
C374 C375 1.374 . S
C375 H355 0.950 1_655 S
C375 C371 1.385 . S
C375 C374 1.374 . S
C376 C373 1.499 . S
C376 C377 1.373 . S
C376 C378 1.389 . S
C377 H356 0.950 . S
C377 C376 1.373 . S
C377 C393 1.377 . S
C378 C376 1.389 . S
C378 C379 1.524 . S
C378 C392 1.377 . S
C379 C378 1.524 . S
C379 C380 1.397 . S
C379 C384 1.363 . S
C380 H357 0.950 . S
C380 C379 1.397 . S
C380 C381 1.334 . S
C381 H358 0.950 . S
C381 C380 1.334 . S
C381 C382 1.287 . S
C382 C381 1.287 . S
C382 C383 1.524 . S
C382 H401 0.913 . S
C383 H359 0.950 . S
C383 C382 1.524 . S
C383 C384 1.415 . S
C384 H360 0.950 . S
C384 C379 1.363 . S
C384 C383 1.415 . S
C385 H361 0.951 . S
C385 C386 1.366 . S
C385 C387 1.388 . S
C386 C385 1.366 . S
C386 C390 1.385 . S
C387 H362 0.951 . S
C387 C385 1.388 . S
C387 C388 1.366 . S
C388 C387 1.366 . S
C388 C389 1.414 . S
C388 C391 1.499 . S
C389 H363 0.950 . S
C389 C388 1.414 . S
C389 C390 1.374 . S
C390 H364 0.950 . S
C390 C386 1.385 . S
C390 C389 1.374 . S
C391 C388 1.499 . S
C391 C392 1.373 . S
C391 C393 1.389 . S
C392 H365 0.950 . S
C392 C378 1.377 . S
C392 C391 1.373 . S
C393 C377 1.377 . S
C393 C391 1.389 . S
C393 C394 1.524 . S
C394 C393 1.524 . S
C394 C395 1.397 . S
C394 C399 1.363 . S
C395 H366 0.950 . S
C395 C394 1.397 . S
C395 C396 1.334 . S
C396 H367 0.950 . S
C396 C395 1.334 . S
C396 C397 1.287 . S
C397 C396 1.287 . S
C397 C398 1.524 . S
C397 H400 0.999 . S
C398 H368 0.950 . S
C398 C397 1.524 . S
C398 C399 1.415 . S
C399 H369 0.950 . S
C399 C394 1.363 . S
C399 C398 1.415 . S
H400 C397 0.999 . S
H401 C382 0.913 . S
H402 C420 0.951 . S
H403 C422 0.951 . S
H404 C424 0.950 . S
H405 C425 0.950 1_545 S
H406 C427 0.950 . S
H407 C430 0.950 . S
H408 C431 0.950 . S
H409 C433 0.950 . S
H410 C434 0.950 . S
H411 C435 0.951 . S
H412 C437 0.951 . S
H413 C439 0.950 . S
H414 C440 0.950 . S
H415 C442 0.950 . S
H416 C445 0.950 . S
H417 C446 0.950 . S
H418 C448 0.950 . S
H419 C449 0.950 . S
C420 H402 0.951 . S
C420 C421 1.366 . S
C420 C422 1.388 . S
C421 C420 1.366 . S
C421 C425 1.385 . S
C422 H403 0.951 . S
C422 C420 1.388 . S
C422 C423 1.366 . S
C423 C422 1.366 . S
C423 C424 1.414 . S
C423 C426 1.499 . S
C424 H404 0.950 . S
C424 C423 1.414 . S
C424 C425 1.374 . S
C425 H405 0.950 1_565 S
C425 C421 1.385 . S
C425 C424 1.374 . S
C426 C423 1.499 . S
C426 C427 1.373 . S
C426 C428 1.389 . S
C427 H406 0.950 . S
C427 C426 1.373 . S
C427 C443 1.377 . S
C428 C426 1.389 . S
C428 C429 1.524 . S
C428 C442 1.377 . S
C429 C428 1.524 . S
C429 C430 1.397 . S
C429 C434 1.363 . S
C430 H407 0.950 . S
C430 C429 1.397 . S
C430 C431 1.334 . S
C431 H408 0.950 . S
C431 C430 1.334 . S
C431 C432 1.287 . S
C432 C431 1.287 . S
C432 C433 1.524 . S
C432 H451 0.913 . S
C433 H409 0.950 . S
C433 C432 1.524 . S
C433 C434 1.415 . S
C434 H410 0.950 . S
C434 C429 1.363 . S
C434 C433 1.415 . S
C435 H411 0.951 . S
C435 C436 1.366 . S
C435 C437 1.388 . S
C436 C435 1.366 . S
C436 C440 1.385 . S
C437 H412 0.951 . S
C437 C435 1.388 . S
C437 C438 1.366 . S
C438 C437 1.366 . S
C438 C439 1.414 . S
C438 C441 1.499 . S
C439 H413 0.950 . S
C439 C438 1.414 . S
C439 C440 1.374 . S
C440 H414 0.950 . S
C440 C436 1.385 . S
C440 C439 1.374 . S
C441 C438 1.499 . S
C441 C442 1.373 . S
C441 C443 1.389 . S
C442 H415 0.950 . S
C442 C428 1.377 . S
C442 C441 1.373 . S
C443 C427 1.377 . S
C443 C441 1.389 . S
C443 C444 1.524 . S
C444 C443 1.524 . S
C444 C445 1.397 . S
C444 C449 1.363 . S
C445 H416 0.950 . S
C445 C444 1.397 . S
C445 C446 1.334 . S
C446 H417 0.950 . S
C446 C445 1.334 . S
C446 C447 1.287 . S
C447 C446 1.287 . S
C447 C448 1.524 . S
C447 H450 0.999 . S
C448 H418 0.950 . S
C448 C447 1.524 . S
C448 C449 1.415 . S
C449 H419 0.950 . S
C449 C444 1.363 . S
C449 C448 1.415 . S
H450 C447 0.999 . S
H451 C432 0.913 . S
H452 C470 0.951 . S
H453 C472 0.951 . S
H454 C474 0.950 . S
H455 C475 0.950 . S
H456 C477 0.950 . S
H457 C480 0.950 . S
H458 C481 0.950 . S
H459 C483 0.950 . S
H460 C484 0.950 . S
H461 C485 0.951 . S
H462 C487 0.951 . S
H463 C489 0.950 . S
H464 C490 0.950 . S
H465 C492 0.950 . S
H466 C495 0.950 . S
H467 C496 0.950 . S
H468 C498 0.950 . S
H469 C499 0.950 . S
C470 H452 0.951 . S
C470 C471 1.366 . S
C470 C472 1.388 . S
C471 C470 1.366 . S
C471 C475 1.385 . S
C472 H453 0.951 . S
C472 C470 1.388 . S
C472 C473 1.366 . S
C473 C472 1.366 . S
C473 C474 1.414 . S
C473 C476 1.499 . S
C474 H454 0.950 . S
C474 C473 1.414 . S
C474 C475 1.374 . S
C475 H455 0.950 . S
C475 C471 1.385 . S
C475 C474 1.374 . S
C476 C473 1.499 . S
C476 C477 1.373 . S
C476 C478 1.389 . S
C477 H456 0.950 . S
C477 C476 1.373 . S
C477 C493 1.377 . S
C478 C476 1.389 . S
C478 C479 1.524 . S
C478 C492 1.377 . S
C479 C478 1.524 . S
C479 C480 1.397 . S
C479 C484 1.363 . S
C480 H457 0.950 . S
C480 C479 1.397 . S
C480 C481 1.334 . S
C481 H458 0.950 . S
C481 C480 1.334 . S
C481 C482 1.287 . S
C482 C481 1.287 . S
C482 C483 1.524 . S
C482 H501 0.913 . S
C483 H459 0.950 . S
C483 C482 1.524 . S
C483 C484 1.415 . S
C484 H460 0.950 . S
C484 C479 1.363 . S
C484 C483 1.415 . S
C485 H461 0.951 . S
C485 C486 1.366 . S
C485 C487 1.388 . S
C486 C485 1.366 . S
C486 C490 1.385 . S
C487 H462 0.951 . S
C487 C485 1.388 . S
C487 C488 1.366 . S
C488 C487 1.366 . S
C488 C489 1.414 . S
C488 C491 1.499 . S
C489 H463 0.950 . S
C489 C488 1.414 . S
C489 C490 1.374 . S
C490 H464 0.950 . S
C490 C486 1.385 . S
C490 C489 1.374 . S
C491 C488 1.499 . S
C491 C492 1.373 . S
C491 C493 1.389 . S
C492 H465 0.950 . S
C492 C478 1.377 . S
C492 C491 1.373 . S
C493 C477 1.377 . S
C493 C491 1.389 . S
C493 C494 1.524 . S
C494 C493 1.524 . S
C494 C495 1.397 . S
C494 C499 1.363 . S
C495 H466 0.950 . S
C495 C494 1.397 . S
C495 C496 1.334 . S
C496 H467 0.950 . S
C496 C495 1.334 . S
C496 C497 1.287 . S
C497 C496 1.287 . S
C497 C498 1.524 . S
C497 H500 0.999 . S
C498 H468 0.950 . S
C498 C497 1.524 . S
C498 C499 1.415 . S
C499 H469 0.950 . S
C499 C494 1.363 . S
C499 C498 1.415 . S
H500 C497 0.999 . S
H501 C482 0.913 . S
H502 C520 0.951 . S
H503 C522 0.951 . S
H504 C524 0.950 . S
H505 C525 0.950 . S
H506 C527 0.950 . S
H507 C530 0.950 . S
H508 C531 0.950 1_655 S
H509 C533 0.950 . S
H510 C534 0.950 . S
H511 C535 0.951 . S
H512 C537 0.951 . S
H513 C539 0.950 . S
H514 C540 0.950 . S
H515 C542 0.950 . S
H516 C545 0.950 . S
H517 C546 0.950 . S
H518 C548 0.950 . S
H519 C549 0.950 . S
C520 H502 0.951 . S
C520 C521 1.366 . S
C520 C522 1.388 . S
C521 C520 1.366 . S
C521 C525 1.385 . S
C522 H503 0.951 . S
C522 C520 1.388 . S
C522 C523 1.366 . S
C523 C522 1.366 . S
C523 C524 1.414 . S
C523 C526 1.499 . S
C524 H504 0.950 . S
C524 C523 1.414 . S
C524 C525 1.374 . S
C525 H505 0.950 . S
C525 C521 1.385 . S
C525 C524 1.374 . S
C526 C523 1.499 . S
C526 C527 1.373 . S
C526 C528 1.389 . S
C527 H506 0.950 . S
C527 C526 1.373 . S
C527 C543 1.377 . S
C528 C526 1.389 . S
C528 C529 1.524 . S
C528 C542 1.377 . S
C529 C528 1.524 . S
C529 C530 1.397 . S
C529 C534 1.363 . S
C530 H507 0.950 . S
C530 C529 1.397 . S
C530 C531 1.334 . S
C531 H508 0.950 1_455 S
C531 C530 1.334 . S
C531 C532 1.287 . S
C532 C531 1.287 . S
C532 C533 1.524 . S
C532 H551 0.913 . S
C533 H509 0.950 . S
C533 C532 1.524 . S
C533 C534 1.415 . S
C534 H510 0.950 . S
C534 C529 1.363 . S
C534 C533 1.415 . S
C535 H511 0.951 . S
C535 C536 1.366 . S
C535 C537 1.388 . S
C536 C535 1.366 . S
C536 C540 1.385 . S
C537 H512 0.951 . S
C537 C535 1.388 . S
C537 C538 1.366 . S
C538 C537 1.366 . S
C538 C539 1.414 . S
C538 C541 1.499 . S
C539 H513 0.950 . S
C539 C538 1.414 . S
C539 C540 1.374 . S
C540 H514 0.950 . S
C540 C536 1.385 . S
C540 C539 1.374 . S
C541 C538 1.499 . S
C541 C542 1.373 . S
C541 C543 1.389 . S
C542 H515 0.950 . S
C542 C528 1.377 . S
C542 C541 1.373 . S
C543 C527 1.377 . S
C543 C541 1.389 . S
C543 C544 1.524 . S
C544 C543 1.524 . S
C544 C545 1.397 . S
C544 C549 1.363 . S
C545 H516 0.950 . S
C545 C544 1.397 . S
C545 C546 1.334 . S
C546 H517 0.950 . S
C546 C545 1.334 . S
C546 C547 1.287 . S
C547 C546 1.287 . S
C547 C548 1.524 . S
C547 H550 0.999 . S
C548 H518 0.950 . S
C548 C547 1.524 . S
C548 C549 1.415 . S
C549 H519 0.950 . S
C549 C544 1.363 . S
C549 C548 1.415 . S
H550 C547 0.999 . S
H551 C532 0.913 . S
H552 C570 0.951 . S
H553 C572 0.951 . S
H554 C574 0.950 . S
H555 C575 0.950 . S
H556 C577 0.950 . S
H557 C580 0.950 . S
H558 C581 0.950 . S
H559 C583 0.950 . S
H560 C584 0.950 . S
H561 C585 0.951 . S
H562 C587 0.951 . S
H563 C589 0.950 . S
H564 C590 0.950 . S
H565 C592 0.950 . S
H566 C595 0.950 . S
H567 C596 0.950 . S
H568 C598 0.950 . S
H569 C599 0.950 . S
C570 H552 0.951 . S
C570 C571 1.366 . S
C570 C572 1.388 . S
C571 C570 1.366 . S
C571 C575 1.385 . S
C572 H553 0.951 . S
C572 C570 1.388 . S
C572 C573 1.366 . S
C573 C572 1.366 . S
C573 C574 1.414 . S
C573 C576 1.499 . S
C574 H554 0.950 . S
C574 C573 1.414 . S
C574 C575 1.374 . S
C575 H555 0.950 . S
C575 C571 1.385 . S
C575 C574 1.374 . S
C576 C573 1.499 . S
C576 C577 1.373 . S
C576 C578 1.389 . S
C577 H556 0.950 . S
C577 C576 1.373 . S
C577 C593 1.377 . S
C578 C576 1.389 . S
C578 C579 1.524 . S
C578 C592 1.377 . S
C579 C578 1.524 . S
C579 C580 1.397 . S
C579 C584 1.363 . S
C580 H557 0.950 . S
C580 C579 1.397 . S
C580 C581 1.334 1_655 S
C581 H558 0.950 . S
C581 C580 1.334 1_455 S
C581 C582 1.287 . S
C582 C581 1.287 . S
C582 C583 1.524 1_455 S
C582 H601 0.913 . S
C583 H559 0.950 . S
C583 C582 1.524 1_655 S
C583 C584 1.415 . S
C584 H560 0.950 . S
C584 C579 1.363 . S
C584 C583 1.415 . S
C585 H561 0.951 . S
C585 C586 1.366 . S
C585 C587 1.388 . S
C586 C585 1.366 . S
C586 C590 1.385 . S
C587 H562 0.951 . S
C587 C585 1.388 . S
C587 C588 1.366 . S
C588 C587 1.366 . S
C588 C589 1.414 . S
C588 C591 1.499 . S
C589 H563 0.950 . S
C589 C588 1.414 . S
C589 C590 1.374 . S
C590 H564 0.950 . S
C590 C586 1.385 . S
C590 C589 1.374 . S
C591 C588 1.499 . S
C591 C592 1.373 . S
C591 C593 1.389 . S
C592 H565 0.950 . S
C592 C578 1.377 . S
C592 C591 1.373 . S
C593 C577 1.377 . S
C593 C591 1.389 . S
C593 C594 1.524 . S
C594 C593 1.524 . S
C594 C595 1.397 . S
C594 C599 1.363 . S
C595 H566 0.950 . S
C595 C594 1.397 . S
C595 C596 1.334 . S
C596 H567 0.950 . S
C596 C595 1.334 . S
C596 C597 1.287 . S
C597 C596 1.287 . S
C597 C598 1.524 . S
C597 H600 0.999 . S
C598 H568 0.950 . S
C598 C597 1.524 . S
C598 C599 1.415 . S
C599 H569 0.950 . S
C599 C594 1.363 . S
C599 C598 1.415 . S
H600 C597 0.999 . S
H601 C582 0.913 . S
H602 C620 0.951 . S
H603 C622 0.951 . S
H604 C624 0.950 . S
H605 C625 0.950 . S
H606 C627 0.950 . S
H607 C630 0.950 . S
H608 C631 0.950 . S
H609 C633 0.950 . S
H610 C634 0.950 . S
H611 C635 0.951 . S
H612 C637 0.951 . S
H613 C639 0.950 . S
H614 C640 0.950 . S
H615 C642 0.950 . S
H616 C645 0.950 . S
H617 C646 0.950 . S
H618 C648 0.950 . S
H619 C649 0.950 . S
C620 H602 0.951 . S
C620 C621 1.366 . S
C620 C622 1.388 . S
C621 C620 1.366 . S
C621 C625 1.385 . S
C622 H603 0.951 . S
C622 C620 1.388 . S
C622 C623 1.366 . S
C623 C622 1.366 . S
C623 C624 1.414 . S
C623 C626 1.499 . S
C624 H604 0.950 . S
C624 C623 1.414 . S
C624 C625 1.374 . S
C625 H605 0.950 . S
C625 C621 1.385 . S
C625 C624 1.374 . S
C626 C623 1.499 . S
C626 C627 1.373 . S
C626 C628 1.389 . S
C627 H606 0.950 . S
C627 C626 1.373 . S
C627 C643 1.377 . S
C628 C626 1.389 . S
C628 C629 1.524 . S
C628 C642 1.377 . S
C629 C628 1.524 . S
C629 C630 1.397 . S
C629 C634 1.363 . S
C630 H607 0.950 . S
C630 C629 1.397 . S
C630 C631 1.334 . S
C631 H608 0.950 . S
C631 C630 1.334 . S
C631 C632 1.287 . S
C632 C631 1.287 . S
C632 C633 1.524 . S
C632 H651 0.913 . S
C633 H609 0.950 . S
C633 C632 1.524 . S
C633 C634 1.415 . S
C634 H610 0.950 . S
C634 C629 1.363 . S
C634 C633 1.415 . S
C635 H611 0.951 . S
C635 C636 1.366 . S
C635 C637 1.388 . S
C636 C635 1.366 . S
C636 C640 1.385 . S
C637 H612 0.951 . S
C637 C635 1.388 . S
C637 C638 1.366 . S
C638 C637 1.366 . S
C638 C639 1.414 . S
C638 C641 1.499 . S
C639 H613 0.950 . S
C639 C638 1.414 . S
C639 C640 1.374 . S
C640 H614 0.950 . S
C640 C636 1.385 . S
C640 C639 1.374 . S
C641 C638 1.499 . S
C641 C642 1.373 . S
C641 C643 1.389 . S
C642 H615 0.950 . S
C642 C628 1.377 . S
C642 C641 1.373 . S
C643 C627 1.377 . S
C643 C641 1.389 . S
C643 C644 1.524 . S
C644 C643 1.524 . S
C644 C645 1.397 . S
C644 C649 1.363 . S
C645 H616 0.950 . S
C645 C644 1.397 . S
C645 C646 1.334 . S
C646 H617 0.950 . S
C646 C645 1.334 . S
C646 C647 1.287 . S
C647 C646 1.287 . S
C647 C648 1.524 . S
C647 H650 0.999 . S
C648 H618 0.950 . S
C648 C647 1.524 . S
C648 C649 1.415 . S
C649 H619 0.950 . S
C649 C644 1.363 . S
C649 C648 1.415 . S
H650 C647 0.999 . S
H651 C632 0.913 . S
H652 C670 0.963 . S
H653 C672 0.951 . S
H654 C674 0.950 . S
H655 C675 0.950 . S
H656 C677 0.950 . S
H657 C680 0.950 . S
H658 C681 0.950 . S
H659 C683 0.950 . S
H660 C684 0.946 . S
H661 C685 0.951 . S
H662 C687 0.951 . S
H663 C689 0.950 . S
H664 C690 0.950 . S
H665 C692 0.950 . S
H666 C695 0.950 . S
H667 C696 0.950 . S
H668 C698 0.950 . S
H669 C699 0.950 . S
C670 H652 0.963 . S
C670 C671 1.366 . S
C670 C672 1.388 . S
C671 C670 1.366 . S
C671 C675 1.385 . S
C672 H653 0.951 . S
C672 C670 1.388 . S
C672 C673 1.366 . S
C673 C672 1.366 . S
C673 C674 1.414 . S
C673 C676 1.499 . S
C674 H654 0.950 . S
C674 C673 1.414 . S
C674 C675 1.374 . S
C675 H655 0.950 . S
C675 C671 1.385 . S
C675 C674 1.374 . S
C676 C673 1.499 . S
C676 C677 1.373 . S
C676 C678 1.389 . S
C677 H656 0.950 . S
C677 C676 1.373 . S
C677 C693 1.377 . S
C678 C676 1.389 . S
C678 C679 1.524 . S
C678 C692 1.377 . S
C679 C678 1.524 . S
C679 C680 1.397 . S
C679 C684 1.369 . S
C680 H657 0.950 . S
C680 C679 1.397 . S
C680 C681 1.334 . S
C681 H658 0.950 . S
C681 C680 1.334 . S
C681 C682 1.287 1_655 S
C682 C681 1.287 1_455 S
C682 C683 1.524 . S
C682 H701 0.913 . S
C683 H659 0.950 . S
C683 C682 1.524 . S
C683 C684 1.412 1_455 S
C684 H660 0.946 . S
C684 C679 1.369 . S
C684 C683 1.412 1_655 S
C685 H661 0.951 . S
C685 C686 1.366 . S
C685 C687 1.388 . S
C686 C685 1.366 . S
C686 C690 1.385 . S
C687 H662 0.951 . S
C687 C685 1.388 . S
C687 C688 1.366 . S
C688 C687 1.366 . S
C688 C689 1.414 . S
C688 C691 1.499 . S
C689 H663 0.950 . S
C689 C688 1.414 . S
C689 C690 1.374 . S
C690 H664 0.950 . S
C690 C686 1.385 . S
C690 C689 1.374 . S
C691 C688 1.499 . S
C691 C692 1.373 . S
C691 C693 1.389 . S
C692 H665 0.950 . S
C692 C678 1.377 . S
C692 C691 1.373 . S
C693 C677 1.377 . S
C693 C691 1.389 . S
C693 C694 1.524 . S
C694 C693 1.524 . S
C694 C695 1.397 . S
C694 C699 1.363 . S
C695 H666 0.950 . S
C695 C694 1.397 . S
C695 C696 1.334 . S
C696 H667 0.950 . S
C696 C695 1.334 . S
C696 C697 1.287 . S
C697 C696 1.287 . S
C697 C698 1.524 . S
C697 H700 0.999 . S
C698 H668 0.950 . S
C698 C697 1.524 . S
C698 C699 1.415 . S
C699 H669 0.950 . S
C699 C694 1.363 . S
C699 C698 1.415 . S
H700 C697 0.999 . S
H701 C682 0.913 . S
C121 C16 1.488 . S
C136 C79 1.334 . S
C171 N36 1.162 . S
C186 C85 1.076 . S
C221 N14 1.162 . S
C236 C76 1.099 . S
C271 C57 1.598 . S
C286 C101 1.427 . S
C321 C1 1.775 . S
C336 C67 1.616 . S
C386 C84 1.544 . S
C371 C40 1.672 . S
C421 C46 1.487 . S
C436 C80 1.334 . S
C486 C97 1.544 . S
C471 C10 1.672 . S
C536 C64 1.616 . S
C521 C31 1.776 . S
C586 C100 1.428 . S
C571 C27 1.598 . S
C636 C63 1.100 . S
C621 N44 1.164 . S
C686 C88 1.076 . S
C671 N6 1.162 . S
