# Generated by pormake.
# Topology ftw, (4,12)-cn, num edge types: 1
# Building blocks:
#     Node 0, Type 0, BuildingBlock: ESEHIV_clean_sbu_0, # of connection points: 4
#     Node 1, Type 0, BuildingBlock: ESEHIV_clean_sbu_0, # of connection points: 4
#     Node 2, Type 0, BuildingBlock: ESEHIV_clean_sbu_0, # of connection points: 4
#     Node 3, Type 1, BuildingBlock: QEWDON_clean_sbu_0, # of connection points: 12
#     Edge 4, Type (0, 1), BuildingBlock: EZIPEK_clean_linker_0, # of connection points: 2
#     Edge 5, Type (0, 1), BuildingBlock: EZIPEK_clean_linker_0, # of connection points: 2
#     Edge 6, Type (0, 1), BuildingBlock: EZIPEK_clean_linker_0, # of connection points: 2
#     Edge 7, Type (0, 1), BuildingBlock: EZIPEK_clean_linker_0, # of connection points: 2
#     Edge 8, Type (0, 1), BuildingBlock: EZIPEK_clean_linker_0, # of connection points: 2
#     Edge 9, Type (0, 1), BuildingBlock: EZIPEK_clean_linker_0, # of connection points: 2
#     Edge 10, Type (0, 1), BuildingBlock: EZIPEK_clean_linker_0, # of connection points: 2
#     Edge 11, Type (0, 1), BuildingBlock: EZIPEK_clean_linker_0, # of connection points: 2
#     Edge 12, Type (0, 1), BuildingBlock: EZIPEK_clean_linker_0, # of connection points: 2
#     Edge 13, Type (0, 1), BuildingBlock: EZIPEK_clean_linker_0, # of connection points: 2
#     Edge 14, Type (0, 1), BuildingBlock: EZIPEK_clean_linker_0, # of connection points: 2
#     Edge 15, Type (0, 1), BuildingBlock: EZIPEK_clean_linker_0, # of connection points: 2
# Relax obj value: 0.061
# Max RMSD: 0.163
# Mean RMSD: 0.144
data_MOF--net-ftw--node1-ESEHIV_clean_sbu_0--node2-QEWDON_clean_sbu_0--edge1-EZIPEK_clean_linker_0
_symmetry_space_group_name_H-M    P1
_symmetry_Int_Tables_number       1
_symmetry_cell_setting            triclinic
loop_
_symmetry_equiv_pos_as_xyz
'x, y, z'
_cell_length_a     20.799863
_cell_length_b     19.617005
_cell_length_c     18.083084
_cell_angle_alpha  85.40421
_cell_angle_beta   86.052947
_cell_angle_gamma 94.466259
loop_
_atom_site_label
_atom_site_type_symbol
_atom_site_fract_x
_atom_site_fract_y
_atom_site_fract_z
_atom_type_partial_charge
Cu0 Cu 0.02599 0.48524 0.48613 0.0
N1 N 0.06538 0.42905 0.42044 0.0
N2 N 0.07567 0.34873 0.34059 0.0
C3 C 0.03529 0.37647 0.38916 0.0
C4 C 0.13342 0.38487 0.34098 0.0
C5 C 0.12685 0.43472 0.3902 0.0
O6 O 0.96878 0.42523 0.55817 0.0
C7 C 0.93542 0.58505 0.44317 0.0
O8 O 0.90255 0.56998 0.50781 0.0
H9 H -0.01562 0.36008 0.40014 0.0
H10 H 0.16383 0.47356 0.40147 0.0
N11 N 0.08797 0.53261 0.53774 0.0
N12 N 0.12865 0.60512 0.61502 0.0
C13 C 0.07938 0.58962 0.57297 0.0
C14 C 0.14517 0.51212 0.55752 0.0
C15 C 0.17055 0.55702 0.60511 0.0
C16 C 0.95375 0.44067 0.62388 0.0
O17 O 0.9703 0.50237 0.64283 0.0
H18 H 0.03579 0.61634 0.57216 0.0
H19 H 0.16503 0.46541 0.54234 0.0
O20 O -0.01573 0.55288 0.42568 0.0
H21 H 0.17643 0.37702 0.30655 0.0
H22 H 0.21383 0.55199 0.63441 0.0
Cu23 Cu 0.47455 -0.00967 0.51288 0.0
N24 N 0.50724 0.05449 0.57435 0.0
N25 N 0.5616 0.06968 0.6753 0.0
C26 C 0.56205 0.04473 0.60783 0.0
C27 C 0.50468 0.09767 0.68416 0.0
C28 C 0.47133 0.08841 0.62173 0.0
O29 O 0.5471 0.96332 0.45101 0.0
C30 C 0.3727 0.90467 0.59865 0.0
O31 O 0.33865 0.89684 0.54103 0.0
H32 H 0.59653 0.01008 0.58901 0.0
H33 H 0.42103 0.09673 0.61647 0.0
N34 N 0.4146 0.0244 0.44966 0.0
N35 N 0.33554 0.02637 0.37223 0.0
C36 C 0.37692 -0.01254 0.40687 0.0
C37 C 0.39769 0.08922 0.43961 0.0
C38 C 0.34853 0.09047 0.39204 0.0
C39 C 0.58356 0.01133 0.4139 0.0
O40 O 0.57104 0.07545 0.41904 0.0
H41 H 0.37867 0.93293 0.40247 0.0
H42 H 0.41839 0.13207 0.46664 0.0
O43 O 0.43341 0.92055 0.58845 0.0
H44 H 0.48568 0.11644 0.73525 0.0
H45 H 0.32333 0.13453 0.37451 0.0
Cu46 Cu 0.47092 0.46413 0.07677 0.0
N47 N 0.42671 0.54125 0.08893 0.0
N48 N 0.39058 0.63842 0.12284 0.0
C49 C 0.42578 0.58571 0.14203 0.0
C50 C 0.36968 0.62722 0.05573 0.0
C51 C 0.39237 0.56759 1.03481 0.0
O52 O 0.42047 0.4076 1.0156 0.0
C53 C 0.59278 0.52603 0.07792 0.0
O54 O 0.57356 0.52296 0.14887 0.0
H55 H 0.45115 0.58054 0.1922 0.0
H56 H 0.38598 0.54562 0.9826 0.0
N57 N 0.47946 0.40943 0.16351 0.0
N58 N 0.51671 0.32244 0.22918 0.0
C59 C 0.52219 0.36185 0.16464 0.0
C60 C 0.44511 0.39985 0.23007 0.0
C61 C 0.46847 0.34563 0.27135 0.0
C62 C 0.36153 0.39421 0.04002 0.0
O63 O 0.34004 0.42085 0.10036 0.0
H64 H 0.55588 0.35505 0.11792 0.0
H65 H 0.405 0.42868 0.24644 0.0
O66 O 0.55624 0.49782 1.03344 0.0
H67 H 0.34099 0.6608 1.0237 0.0
H68 H 0.45094 0.32425 0.32676 0.0
Zn69 Zn 0.12585 0.04772 0.92788 0.0
Zn70 Zn 0.07099 0.09239 0.08755 0.0
O71 O 0.06663 0.01498 1.02015 0.0
H72 H 0.03396 0.97678 1.02429 0.0
C73 C 0.86194 0.23702 0.86547 0.0
O74 O 0.89306 0.18192 0.87729 0.0
Zn75 Zn 0.86193 0.84932 0.13454 0.0
Zn76 Zn 0.82417 0.89277 0.96464 0.0
O77 O 0.87445 0.92429 0.05024 0.0
H78 H 0.90804 0.96159 0.04604 0.0
Zn79 Zn 0.78767 0.17601 1.00261 0.0
O80 O 0.84831 0.10523 1.03463 0.0
Zn81 Zn 0.8314 0.08933 0.14505 0.0
H82 H 0.87864 0.08327 1.00346 0.0
Zn83 Zn 0.16297 0.83739 0.99146 0.0
O84 O 0.07673 0.83863 0.05085 0.0
H85 H 0.03406 0.832 1.03322 0.0
Zn86 Zn 0.09869 0.85897 0.15291 0.0
C87 C 0.13229 0.79412 0.84229 0.0
O88 O 0.09868 0.84811 0.84005 0.0
O89 O 0.17438 0.14119 0.93526 0.0
O90 O 0.12834 0.17509 0.03978 0.0
O91 O 0.79453 0.79062 0.98156 0.0
O92 O 0.81275 0.76401 0.10034 0.0
O93 O 0.71869 0.19212 0.08663 0.0
O94 O 0.74577 0.12233 0.18124 0.0
C95 C 0.1267 0.00337 0.19153 0.0
O96 O 0.23816 0.829 0.06099 0.0
O97 O 0.18872 0.83536 0.17276 0.0
O98 O 0.7492 0.94586 0.92147 0.0
C99 C 0.16957 0.18464 0.98345 0.0
O100 O 0.17449 0.9841 0.85994 0.0
C101 C 0.7974 0.94598 0.21719 0.0
O102 O 0.81463 0.24746 0.91048 0.0
C103 C 0.78971 0.74857 0.03943 0.0
O104 O 0.16289 0.77926 0.89919 0.0
C105 C 0.96074 0.14667 0.17258 0.0
O106 O 0.11963 0.0661 0.17552 0.0
O107 O 0.09384 0.95915 0.15896 0.0
C108 C 0.70872 0.1647 0.15334 0.0
O109 O 0.80436 0.88224 0.21672 0.0
O110 O 0.83322 -0.01219 0.1717 0.0
C111 C 0.97441 0.79869 0.22161 0.0
O112 O 0.90074 0.14532 0.19192 0.0
O113 O 0.97977 0.1091 0.12268 0.0
C114 C 0.23935 0.82766 0.13164 0.0
O115 O 0.03517 0.80337 0.22698 0.0
O116 O 0.9513 0.8336 0.1687 0.0
C117 C 0.75624 -0.00775 0.86758 0.0
O118 O 0.81469 0.01569 0.8405 0.0
C119 C 0.23224 0.96953 0.86895 0.0
O120 O 0.25988 -0.01254 0.9284 0.0
C121 C 0.04539 0.31271 0.21885 0.0
C122 C 0.05842 0.29526 0.29357 0.0
C123 C 0.02167 0.17483 0.28249 0.0
C124 C 0.00635 0.19292 0.20863 0.0
N125 N 0.01735 0.27352 0.10008 0.0
N126 N 0.07231 0.21004 0.39243 0.0
C127 C 0.02327 0.26013 0.17455 0.0
C128 C 0.05096 0.22607 0.32395 0.0
N129 N 0.05071 0.38016 0.19194 0.0
N130 N 0.00632 0.10913 0.31325 0.0
H131 H 0.09349 0.24726 0.42338 0.0
H132 H 0.07333 0.16016 0.41639 0.0
H133 H -0.01176 0.07002 0.28255 0.0
H134 H 0.00975 0.09348 0.36907 0.0
H135 H 0.03559 0.39769 0.14067 0.0
H136 H 0.06668 0.41963 0.22329 0.0
H137 H 0.03379 0.31983 0.07014 0.0
H138 H 0.00081 0.23594 0.06661 0.0
C139 C 0.70292 0.01515 0.37876 0.0
C140 C 0.63838 -0.00389 0.36254 0.0
C141 C 0.67829 0.94908 0.24795 0.0
C142 C 0.74286 0.96871 0.2638 0.0
N143 N 0.817 0.03048 0.33617 0.0
N144 N 0.56349 0.95854 0.27527 0.0
C145 C 0.75524 0.00522 0.3266 0.0
C146 C 0.62571 0.9667 0.29535 0.0
N147 N 0.71426 0.04007 0.44559 0.0
N148 N 0.66729 0.91325 0.18752 0.0
H149 H 0.52377 0.97087 0.3085 0.0
H150 H 0.55128 0.94484 0.2233 0.0
H151 H 0.70384 0.90456 0.14777 0.0
H152 H 0.62244 0.88947 0.17816 0.0
H153 H 0.76005 0.04785 0.4648 0.0
H154 H 0.67729 0.04864 0.48479 0.0
H155 H 0.82865 0.06406 0.37586 0.0
H156 H 0.8567 0.02183 0.30075 0.0
C157 C 0.90731 0.62868 0.31694 0.0
C158 C 0.91964 0.64261 0.39064 0.0
C159 C 0.93114 0.76592 0.35146 0.0
C160 C 0.93427 0.75033 0.27643 0.0
N161 N 0.92169 0.66816 0.18574 0.0
N162 N 0.9412 0.72525 0.47994 0.0
C163 C 0.91934 0.68221 0.25856 0.0
C164 C 0.92905 0.71165 0.40905 0.0
N165 N 0.88485 0.56398 0.30316 0.0
N166 N 0.93225 0.83303 0.36678 0.0
H167 H 0.93958 0.68729 0.52387 0.0
H168 H 0.95628 0.77385 0.49466 0.0
H169 H 0.93398 0.87287 0.32453 0.0
H170 H 0.92526 0.84859 0.42025 0.0
H171 H 0.86988 0.55137 0.25183 0.0
H172 H 0.87547 0.52428 0.34549 0.0
H173 H 0.92001 0.61864 0.16873 0.0
H174 H 0.92822 0.70676 0.14208 0.0
C175 C 0.29774 0.00687 0.24894 0.0
C176 C 0.28486 0.00407 0.32693 0.0
C177 C 0.1697 0.97257 0.3142 0.0
C178 C 0.18115 0.9862 0.23626 0.0
N179 N 0.25474 0.01012 0.12711 0.0
N180 N 0.21148 0.98045 0.43592 0.0
C181 C 0.24515 0.00024 0.20288 0.0
C182 C 0.22166 0.98453 0.36026 0.0
N183 N 0.36043 0.01677 0.21968 0.0
N184 N 0.10891 0.94918 0.3435 0.0
H185 H 0.24925 0.98723 0.47026 0.0
H186 H 0.16616 0.97263 0.46476 0.0
H187 H 0.07074 0.94001 0.31004 0.0
H188 H 0.09707 0.93413 0.39954 0.0
H189 H 0.37477 0.01517 0.16367 0.0
H190 H 0.39918 0.02284 0.25295 0.0
H191 H 0.29875 0.02766 0.09859 0.0
H192 H 0.21752 0.00153 0.09222 0.0
C193 C 0.14987 0.72282 0.65172 0.0
C194 C 0.12881 0.65303 0.6714 0.0
C195 C 0.10246 0.67793 0.8003 0.0
C196 C 0.12918 0.74659 0.7824 0.0
N197 N 0.18096 0.8349 0.69244 0.0
N198 N 0.0892 0.56174 0.7637 0.0
C199 C 0.1532 0.76942 0.70823 0.0
C200 C 0.10639 0.62995 0.74563 0.0
N201 N 0.16596 0.74417 0.57854 0.0
N202 N 0.07011 0.65959 0.86834 0.0
H203 H 0.08801 0.5261 0.7241 0.0
H204 H 0.07994 0.53969 0.81807 0.0
H205 H 0.06437 0.69375 0.90916 0.0
H206 H 0.04372 0.6125 0.88229 0.0
H207 H 0.17572 0.79533 0.55819 0.0
H208 H 0.16592 0.71026 0.53692 0.0
H209 H 0.20547 0.85297 0.64173 0.0
H210 H 0.18249 0.87088 0.73173 0.0
C211 C 0.30634 0.98224 0.67101 0.0
C212 C 0.33908 0.9212 0.66968 0.0
C213 C 0.30542 0.89256 0.80254 0.0
C214 C 0.27326 0.95382 0.80298 0.0
N215 N 0.2621 0.06695 0.7453 0.0
N216 N 0.37921 0.82395 0.73619 0.0
C217 C 0.27905 0.00143 0.73935 0.0
C218 C 0.34176 0.87819 0.73632 0.0
N219 N 0.301 0.02245 0.60693 0.0
N220 N 0.29963 0.84744 0.86467 0.0
H221 H 0.40428 0.81073 0.68816 0.0
H222 H 0.38874 0.7945 0.78402 0.0
H223 H 0.27558 0.85799 0.91441 0.0
H224 H 0.3155 0.79838 0.86622 0.0
H225 H 0.26955 0.06117 0.60282 0.0
H226 H 0.32531 0.01504 0.55669 0.0
H227 H 0.27219 0.10637 0.70299 0.0
H228 H 0.24468 0.08439 0.79525 0.0
C229 C 0.867 0.35345 0.68497 0.0
C230 C 0.93042 0.38589 0.68302 0.0
C231 C 0.94674 0.32467 0.80306 0.0
C232 C 0.88499 0.28861 0.80275 0.0
N233 N 0.79258 0.25728 0.73556 0.0
N234 N 0.03642 0.38889 0.72962 0.0
C235 C 0.84669 0.29989 0.74152 0.0
C236 C 0.97199 0.3677 0.73912 0.0
N237 N 0.82572 0.37482 0.63395 0.0
N238 N -0.0194 0.31946 0.86518 0.0
H239 H 0.05725 0.41754 0.68166 0.0
H240 H 0.07022 0.37197 0.76531 0.0
H241 H 0.96373 0.28863 0.91337 0.0
H242 H 0.02255 0.35046 0.87134 0.0
H243 H 0.7767 0.35832 0.63746 0.0
H244 H 0.83948 0.41303 0.59104 0.0
H245 H 0.76625 0.25832 0.68859 0.0
H246 H 0.77787 0.21626 0.77469 0.0
C247 C 0.63888 0.10093 0.76868 0.0
C248 C 0.60297 0.05033 0.73321 0.0
C249 C 0.66322 0.96071 0.79137 0.0
C250 C 0.69939 0.01115 0.8272 0.0
N251 N 0.7079 0.1249 0.86821 0.0
N252 N 0.5639 0.93155 0.73439 0.0
C253 C 0.6829 0.08011 0.82157 0.0
C254 C 0.60983 0.97992 0.75204 0.0
N255 N 0.63269 0.16872 0.74974 0.0
N256 N 0.68143 0.89523 0.79151 0.0
H257 H 0.52217 0.94459 0.70964 0.0
H258 H 0.5633 0.87967 0.75235 0.0
H259 H 0.72095 0.87871 0.81824 0.0
H260 H 0.66061 0.85886 0.75942 0.0
H261 H 0.66049 0.20845 0.77011 0.0
H262 H 0.60212 0.18528 0.70991 0.0
H263 H 0.69224 0.17365 0.8728 0.0
H264 H 0.74009 0.11068 0.9073 0.0
C265 C 0.33145 0.27195 1.01982 0.0
C266 C 0.31895 0.34187 1.00904 0.0
C267 C 0.20974 0.30924 0.97348 0.0
C268 C 0.22244 0.23937 0.98375 0.0
N269 N 0.29919 0.15377 1.0027 0.0
N270 N 0.25309 0.42856 0.96175 0.0
C271 C 0.28478 0.22071 1.00146 0.0
C272 C 0.26011 0.36094 0.98132 0.0
N273 N 0.38539 0.25395 0.05351 0.0
N274 N 0.14923 0.32588 0.95782 0.0
H275 H 0.28965 0.4672 0.96627 0.0
H276 H 0.21382 0.44592 0.9353 0.0
H277 H 0.11244 0.28918 0.94794 0.0
H278 H 0.13435 0.3753 0.95805 0.0
H279 H 0.39249 0.20382 0.07264 0.0
H280 H 0.42137 0.28938 0.06785 0.0
H281 H 0.34609 0.13891 1.00465 0.0
H282 H 0.26551 0.11284 0.99707 0.0
C283 C 0.40007 0.76226 0.1241 0.0
C284 C 0.37764 0.69775 0.16084 0.0
C285 C 0.28911 0.75016 0.22318 0.0
C286 C 0.2977 0.80413 0.16572 0.0
N287 N 0.37162 0.87562 0.07957 0.0
N288 N 0.30791 0.63149 0.25602 0.0
C289 C 0.35794 0.81578 0.12356 0.0
C290 C 0.32564 0.6927 0.21599 0.0
N291 N 0.45898 0.76893 0.08513 0.0
N292 N 0.2459 0.75354 0.28268 0.0
H293 H 0.33516 0.58933 0.25209 0.0
H294 H 0.26551 0.62226 0.29075 0.0
H295 H 0.22263 0.79788 0.29084 0.0
H296 H 0.2398 0.71652 0.32779 0.0
H297 H 0.47989 0.81459 0.05725 0.0
H298 H 0.48852 0.72822 0.08555 0.0
H299 H 0.41248 0.88623 0.04271 0.0
H300 H 0.34066 0.91497 0.08084 0.0
C301 C 0.61863 0.28282 0.26683 0.0
C302 C 0.55594 0.26679 0.24445 0.0
C303 C 0.59077 0.16418 0.19038 0.0
C304 C 0.65536 0.18746 0.2009 0.0
N305 N 0.72991 0.25331 0.26902 0.0
N306 N 0.47692 0.18672 0.20249 0.0
C307 C 0.66887 0.24121 0.24684 0.0
C308 C 0.5401 0.20426 0.21357 0.0
N309 N 0.6304 0.34149 0.30123 0.0
N310 N 0.57898 0.10517 0.15643 0.0
H311 H 0.44016 0.21641 0.22004 0.0
H312 H 0.46041 0.14285 0.17855 0.0
H313 H 0.61596 0.07479 0.14128 0.0
H314 H 0.53333 0.08483 0.14543 0.0
H315 H 0.67611 0.36151 0.31252 0.0
H316 H 0.59316 0.37118 0.31731 0.0
H317 H 0.74248 0.2891 0.3061 0.0
H318 H 0.7675 0.22364 0.25433 0.0
C319 C 0.6313 0.64336 1.02396 0.0
C320 C 0.64666 0.5771 0.05022 0.0
C321 C 0.76003 0.62075 0.05518 0.0
C322 C 0.74198 0.68843 0.04069 0.0
N323 N 0.65685 0.76505 1.0265 0.0
N324 N 0.72436 0.50157 0.09408 0.0
C325 C 0.6768 0.70007 1.02831 0.0
C326 C 0.71088 0.56532 0.06642 0.0
N327 N 0.57273 0.65268 0.99644 0.0
N328 N 0.82392 0.60952 0.05655 0.0
H329 H 0.69006 0.45935 0.09902 0.0
H330 H 0.7683 0.49132 0.1151 0.0
H331 H 0.86062 0.64929 0.04713 0.0
H332 H 0.84069 0.56082 0.06064 0.0
H333 H 0.56209 0.69889 0.96932 0.0
H334 H 0.53705 0.61291 0.99373 0.0
H335 H 0.60848 0.77528 1.02592 0.0
H336 H 0.68715 0.80845 1.03394 0.0
loop_
_geom_bond_atom_site_label_1
_geom_bond_atom_site_label_2
_geom_bond_distance
_geom_bond_site_symmetry_2
_ccdc_geom_bond_type
Cu0 N1 1.999 . S
Cu0 O6 1.974 . S
Cu0 N11 1.985 . S
Cu0 O20 1.959 . S
N1 Cu0 1.999 . S
N1 C3 1.263 . S
N1 C5 1.389 . S
N2 C3 1.358 . S
N2 C4 1.400 . S
C3 N1 1.263 . S
C3 N2 1.358 . S
C3 H9 0.930 1_455 S
C4 N2 1.400 . S
C4 C5 1.351 . S
C4 H21 0.930 . S
C5 N1 1.389 . S
C5 C4 1.351 . S
C5 H10 0.930 . S
O6 Cu0 1.974 . S
O6 C16 1.282 1_455 S
C7 O8 1.261 . S
C7 O20 1.251 1_655 S
O8 C7 1.261 . S
H9 C3 0.930 1_655 S
H10 C5 0.930 . S
N11 Cu0 1.985 . S
N11 C13 1.335 . S
N11 C14 1.390 1_455 S
N12 C13 1.345 . S
N12 C15 1.336 1_455 S
C13 N11 1.335 . S
C13 N12 1.345 . S
C13 H18 0.930 . S
C14 N11 1.390 1_655 S
C14 C15 1.346 . S
C14 H19 0.930 . S
C15 N12 1.336 1_655 S
C15 C14 1.346 . S
C15 H22 0.929 . S
C16 O6 1.282 1_655 S
C16 O17 1.216 . S
O17 C16 1.216 . S
H18 C13 0.930 . S
H19 C14 0.930 . S
O20 Cu0 1.959 . S
O20 C7 1.251 1_455 S
H21 C4 0.930 . S
H22 C15 0.929 . S
Cu23 N24 1.999 . S
Cu23 O29 1.974 . S
Cu23 N34 1.985 . S
Cu23 O43 1.959 . S
N24 Cu23 1.999 . S
N24 C26 1.263 . S
N24 C28 1.389 . S
N25 C26 1.358 . S
N25 C27 1.400 . S
C26 N24 1.263 . S
C26 N25 1.358 . S
C26 H32 0.930 1_565 S
C27 N25 1.400 . S
C27 C28 1.351 . S
C27 H44 0.930 . S
C28 N24 1.389 . S
C28 C27 1.351 . S
C28 H33 0.930 . S
O29 Cu23 1.974 . S
O29 C39 1.282 1_565 S
C30 O31 1.261 . S
C30 O43 1.251 1_545 S
O31 C30 1.261 . S
H32 C26 0.930 1_545 S
H33 C28 0.930 . S
N34 Cu23 1.985 . S
N34 C36 1.335 . S
N34 C37 1.390 1_565 S
N35 C36 1.345 . S
N35 C38 1.336 1_565 S
C36 N34 1.335 . S
C36 N35 1.345 . S
C36 H41 0.930 . S
C37 N34 1.390 1_545 S
C37 C38 1.346 . S
C37 H42 0.930 . S
C38 N35 1.336 1_545 S
C38 C37 1.346 . S
C38 H45 0.929 . S
C39 O29 1.282 1_545 S
C39 O40 1.216 . S
O40 C39 1.216 . S
H41 C36 0.930 . S
H42 C37 0.930 . S
O43 Cu23 1.959 . S
O43 C30 1.251 1_565 S
H44 C27 0.930 . S
H45 C38 0.929 . S
Cu46 N47 1.999 . S
Cu46 O52 1.974 . S
Cu46 N57 1.985 . S
Cu46 O66 1.959 . S
N47 Cu46 1.999 . S
N47 C49 1.258 1_556 S
N47 C51 1.389 . S
N48 C49 1.355 1_556 S
N48 C50 1.400 . S
C49 N47 1.258 1_554 S
C49 N48 1.355 1_554 S
C49 H55 0.937 . S
C50 N48 1.400 . S
C50 C51 1.351 . S
C50 H67 0.930 . S
C51 N47 1.389 . S
C51 C50 1.351 . S
C51 H56 0.930 . S
O52 Cu46 1.974 . S
O52 C62 1.282 1_556 S
C53 O54 1.261 . S
C53 O66 1.251 1_554 S
O54 C53 1.261 . S
H55 C49 0.937 . S
H56 C51 0.930 . S
N57 Cu46 1.985 . S
N57 C59 1.335 . S
N57 C60 1.390 1_556 S
N58 C59 1.342 1_554 S
N58 C61 1.339 . S
C59 N57 1.335 . S
C59 N58 1.342 1_556 S
C59 H64 0.930 . S
C60 N57 1.390 1_554 S
C60 C61 1.346 . S
C60 H65 0.930 . S
C61 N58 1.339 . S
C61 C60 1.346 . S
C61 H68 0.929 . S
C62 O52 1.282 1_554 S
C62 O63 1.216 . S
O63 C62 1.216 . S
H64 C59 0.930 . S
H65 C60 0.930 . S
O66 Cu46 1.959 . S
O66 C53 1.251 1_556 S
H67 C50 0.930 . S
H68 C61 0.929 . S
Zn69 O71 1.933 1_556 S
Zn69 O89 1.985 . S
Zn69 O100 1.955 . S
Zn70 O71 1.911 . S
Zn70 O90 1.970 . S
Zn70 O106 1.945 . S
Zn70 O113 1.981 . S
O71 Zn69 1.933 1_554 S
O71 Zn70 1.911 . S
O71 H72 0.841 . S
H72 O71 0.841 . S
C73 O74 1.246 . S
C73 O102 1.276 1_455 S
O74 C73 1.246 . S
Zn75 O77 1.911 . S
Zn75 O92 1.970 . S
Zn75 O109 1.945 . S
Zn75 O116 1.981 . S
Zn76 O77 1.933 1_556 S
Zn76 O91 1.985 . S
Zn76 O98 1.955 . S
O77 Zn75 1.911 . S
O77 Zn76 1.933 1_554 S
O77 H78 0.841 . S
H78 O77 0.841 . S
Zn79 O80 1.933 1_556 S
Zn79 O93 1.985 . S
Zn79 O102 1.955 . S
O80 Zn79 1.933 1_554 S
O80 Zn81 1.911 . S
O80 H82 0.841 . S
Zn81 O80 1.911 . S
Zn81 O94 1.970 . S
Zn81 O110 1.981 . S
Zn81 O112 1.945 . S
H82 O80 0.841 . S
Zn83 O84 1.933 1_556 S
Zn83 O96 1.985 . S
Zn83 O104 1.955 . S
O84 Zn83 1.933 1_554 S
O84 H85 0.841 . S
O84 Zn86 1.911 . S
H85 O84 0.841 . S
Zn86 O84 1.911 . S
Zn86 O97 1.970 . S
Zn86 O107 1.981 . S
Zn86 O115 1.945 . S
C87 O88 1.246 . S
C87 O104 1.276 1_655 S
O88 C87 1.246 . S
O89 Zn69 1.985 . S
O89 C99 1.245 . S
O90 Zn70 1.970 . S
O90 C99 1.263 1_554 S
O91 Zn76 1.985 . S
O91 C103 1.245 1_556 S
O92 Zn75 1.970 . S
O92 C103 1.263 . S
O93 Zn79 1.985 . S
O93 C108 1.245 1_556 S
O94 Zn81 1.970 . S
O94 C108 1.263 . S
C95 O106 1.262 . S
C95 O107 1.245 1_545 S
O96 Zn83 1.985 . S
O96 C114 1.245 1_556 S
O97 Zn86 1.970 . S
O97 C114 1.263 . S
O98 Zn76 1.955 . S
O98 C117 1.276 1_565 S
C99 O89 1.245 . S
C99 O90 1.263 1_556 S
O100 Zn69 1.955 . S
O100 C119 1.276 . S
C101 O109 1.262 . S
C101 O110 1.245 1_565 S
O102 C73 1.276 1_655 S
O102 Zn79 1.955 . S
C103 O91 1.245 1_554 S
C103 O92 1.263 . S
O104 Zn83 1.955 . S
O104 C87 1.276 1_455 S
C105 O112 1.262 1_455 S
C105 O113 1.245 . S
O106 Zn70 1.945 . S
O106 C95 1.262 . S
O107 Zn86 1.981 . S
O107 C95 1.245 1_565 S
C108 O93 1.245 1_554 S
C108 O94 1.263 . S
O109 Zn75 1.945 . S
O109 C101 1.262 . S
O110 Zn81 1.981 . S
O110 C101 1.245 1_545 S
C111 O115 1.262 1_655 S
C111 O116 1.245 . S
O112 Zn81 1.945 . S
O112 C105 1.262 1_655 S
O113 Zn70 1.981 . S
O113 C105 1.245 . S
C114 O96 1.245 1_554 S
C114 O97 1.263 . S
O115 Zn86 1.945 . S
O115 C111 1.262 1_455 S
O116 Zn75 1.981 . S
O116 C111 1.245 . S
C117 O98 1.276 1_545 S
C117 O118 1.246 . S
O118 C117 1.246 . S
C119 O100 1.276 . S
C119 O120 1.246 1_545 S
O120 C119 1.246 1_565 S
C121 C122 1.363 1_655 S
C121 C127 1.379 . S
C121 N129 1.356 . S
C122 C121 1.363 1_455 S
C122 C128 1.363 . S
C123 C124 1.363 . S
C123 C128 1.379 . S
C123 N130 1.356 . S
C124 C123 1.363 . S
C124 C127 1.363 1_455 S
N125 C127 1.356 . S
N125 H137 0.984 . S
N125 H138 0.985 . S
N126 C128 1.356 . S
N126 H131 0.984 . S
N126 H132 0.985 . S
C127 C121 1.379 . S
C127 C124 1.363 1_655 S
C127 N125 1.356 . S
C128 C122 1.363 . S
C128 C123 1.379 . S
C128 N126 1.356 . S
N129 C121 1.356 . S
N129 H135 0.984 . S
N129 H136 0.984 . S
N130 C123 1.356 . S
N130 H133 0.984 . S
N130 H134 0.985 . S
H131 N126 0.984 . S
H132 N126 0.985 . S
H133 N130 0.984 . S
H134 N130 0.985 . S
H135 N129 0.984 . S
H136 N129 0.984 . S
H137 N125 0.984 . S
H138 N125 0.985 . S
C139 C140 1.363 . S
C139 C145 1.379 . S
C139 N147 1.356 . S
C140 C139 1.363 . S
C140 C146 1.363 . S
C141 C142 1.363 . S
C141 C146 1.379 . S
C141 N148 1.356 . S
C142 C141 1.363 . S
C142 C145 1.363 . S
N143 C145 1.356 . S
N143 H155 0.984 . S
N143 H156 0.984 1_545 S
N144 C146 1.356 . S
N144 H149 0.984 . S
N144 H150 0.985 . S
C145 C139 1.379 . S
C145 C142 1.363 . S
C145 N143 1.356 . S
C146 C140 1.363 . S
C146 C141 1.379 . S
C146 N144 1.356 . S
N147 C139 1.356 . S
N147 H153 0.984 . S
N147 H154 0.984 . S
N148 C141 1.356 . S
N148 H151 0.984 . S
N148 H152 0.985 . S
H149 N144 0.984 . S
H150 N144 0.985 . S
H151 N148 0.984 . S
H152 N148 0.985 . S
H153 N147 0.984 . S
H154 N147 0.984 . S
H155 N143 0.984 . S
H156 N143 0.984 1_565 S
C157 C158 1.363 1_455 S
C157 C163 1.379 . S
C157 N165 1.356 . S
C158 C157 1.363 1_655 S
C158 C164 1.363 . S
C159 C160 1.363 . S
C159 C164 1.379 . S
C159 N166 1.356 . S
C160 C159 1.363 . S
C160 C163 1.363 1_655 S
N161 C163 1.356 . S
N161 H173 0.984 . S
N161 H174 0.985 . S
N162 C164 1.356 . S
N162 H167 0.984 . S
N162 H168 0.985 . S
C163 C157 1.379 . S
C163 C160 1.363 1_455 S
C163 N161 1.356 . S
C164 C158 1.363 . S
C164 C159 1.379 . S
C164 N162 1.356 . S
N165 C157 1.356 . S
N165 H171 0.984 . S
N165 H172 0.984 . S
N166 C159 1.356 . S
N166 H169 0.984 . S
N166 H170 0.985 . S
H167 N162 0.984 . S
H168 N162 0.985 . S
H169 N166 0.984 . S
H170 N166 0.985 . S
H171 N165 0.984 . S
H172 N165 0.984 . S
H173 N161 0.984 . S
H174 N161 0.985 . S
C175 C176 1.363 . S
C175 C181 1.379 . S
C175 N183 1.356 . S
C176 C175 1.363 . S
C176 C182 1.363 1_565 S
C177 C178 1.363 1_545 S
C177 C182 1.379 . S
C177 N184 1.356 . S
C178 C177 1.363 1_565 S
C178 C181 1.363 . S
N179 C181 1.356 . S
N179 H191 0.984 . S
N179 H192 0.985 . S
N180 C182 1.356 . S
N180 H185 0.984 . S
N180 H186 0.985 . S
C181 C175 1.379 . S
C181 C178 1.363 . S
C181 N179 1.356 . S
C182 C176 1.363 1_545 S
C182 C177 1.379 . S
C182 N180 1.356 . S
N183 C175 1.356 . S
N183 H189 0.984 . S
N183 H190 0.984 . S
N184 C177 1.356 . S
N184 H187 0.984 . S
N184 H188 0.985 . S
H185 N180 0.984 . S
H186 N180 0.985 . S
H187 N184 0.984 . S
H188 N184 0.985 . S
H189 N183 0.984 . S
H190 N183 0.984 . S
H191 N179 0.984 . S
H192 N179 0.985 . S
C193 C194 1.363 . S
C193 C199 1.379 . S
C193 N201 1.356 . S
C194 C193 1.363 . S
C194 C200 1.363 1_455 S
C195 C196 1.363 . S
C195 C200 1.379 . S
C195 N202 1.356 . S
C196 C195 1.363 . S
C196 C199 1.363 1_655 S
N197 C199 1.356 . S
N197 H209 0.984 . S
N197 H210 0.985 . S
N198 C200 1.356 . S
N198 H203 0.984 . S
N198 H204 0.985 . S
C199 C193 1.379 . S
C199 C196 1.363 1_455 S
C199 N197 1.356 . S
C200 C194 1.363 1_655 S
C200 C195 1.379 . S
C200 N198 1.356 . S
N201 C193 1.356 . S
N201 H207 0.984 . S
N201 H208 0.984 . S
N202 C195 1.356 . S
N202 H205 0.984 . S
N202 H206 0.985 . S
H203 N198 0.984 . S
H204 N198 0.985 . S
H205 N202 0.984 . S
H206 N202 0.985 . S
H207 N201 0.984 . S
H208 N201 0.984 . S
H209 N197 0.984 . S
H210 N197 0.985 . S
C211 C212 1.363 . S
C211 C217 1.379 . S
C211 N219 1.356 . S
C212 C211 1.363 . S
C212 C218 1.363 1_545 S
C213 C214 1.363 . S
C213 C218 1.379 . S
C213 N220 1.356 . S
C214 C213 1.363 . S
C214 C217 1.363 1_565 S
N215 C217 1.356 . S
N215 H227 0.984 . S
N215 H228 0.985 . S
N216 C218 1.356 . S
N216 H221 0.984 . S
N216 H222 0.985 . S
C217 C211 1.379 . S
C217 C214 1.363 1_545 S
C217 N215 1.356 . S
C218 C212 1.363 1_565 S
C218 C213 1.379 . S
C218 N216 1.356 . S
N219 C211 1.356 . S
N219 H225 0.984 . S
N219 H226 0.984 . S
N220 C213 1.356 . S
N220 H223 0.984 . S
N220 H224 0.985 . S
H221 N216 0.984 . S
H222 N216 0.985 . S
H223 N220 0.984 . S
H224 N220 0.985 . S
H225 N219 0.984 . S
H226 N219 0.984 . S
H227 N215 0.984 . S
H228 N215 0.985 . S
C229 C230 1.363 . S
C229 C235 1.379 . S
C229 N237 1.356 . S
C230 C229 1.363 . S
C230 C236 1.363 1_655 S
C231 C232 1.363 . S
C231 C236 1.379 . S
C231 N238 1.356 . S
C232 C231 1.363 . S
C232 C235 1.363 1_455 S
N233 C235 1.356 . S
N233 H245 0.984 . S
N233 H246 0.985 . S
N234 C236 1.356 . S
N234 H239 0.984 . S
N234 H240 0.985 . S
C235 C229 1.379 . S
C235 C232 1.363 1_655 S
C235 N233 1.356 . S
C236 C230 1.363 1_455 S
C236 C231 1.379 . S
C236 N234 1.356 . S
N237 C229 1.356 . S
N237 H243 0.984 . S
N237 H244 0.984 . S
N238 C231 1.356 . S
N238 H241 0.984 . S
N238 H242 0.985 . S
H239 N234 0.984 . S
H240 N234 0.985 . S
H241 N238 0.984 . S
H242 N238 0.985 . S
H243 N237 0.984 . S
H244 N237 0.984 . S
H245 N233 0.984 . S
H246 N233 0.985 . S
C247 C248 1.363 1_545 S
C247 C253 1.379 . S
C247 N255 1.356 . S
C248 C247 1.363 1_565 S
C248 C254 1.363 . S
C249 C250 1.363 1_565 S
C249 C254 1.379 . S
C249 N256 1.356 . S
C250 C249 1.363 1_545 S
C250 C253 1.363 . S
N251 C253 1.356 . S
N251 H263 0.984 . S
N251 H264 0.985 . S
N252 C254 1.356 . S
N252 H257 0.984 . S
N252 H258 0.985 . S
C253 C247 1.379 . S
C253 C250 1.363 . S
C253 N251 1.356 . S
C254 C248 1.363 . S
C254 C249 1.379 . S
C254 N252 1.356 . S
N255 C247 1.356 . S
N255 H261 0.984 . S
N255 H262 0.984 . S
N256 C249 1.356 . S
N256 H259 0.984 . S
N256 H260 0.985 . S
H257 N252 0.984 . S
H258 N252 0.985 . S
H259 N256 0.984 . S
H260 N256 0.985 . S
H261 N255 0.984 . S
H262 N255 0.984 . S
H263 N251 0.984 . S
H264 N251 0.985 . S
C265 C266 1.363 . S
C265 C271 1.379 . S
C265 N273 1.356 . S
C266 C265 1.363 . S
C266 C272 1.363 1_554 S
C267 C268 1.363 1_556 S
C267 C272 1.379 . S
C267 N274 1.356 . S
C268 C267 1.363 1_554 S
C268 C271 1.363 . S
N269 C271 1.356 . S
N269 H281 0.984 . S
N269 H282 0.985 . S
N270 C272 1.356 . S
N270 H275 0.984 . S
N270 H276 0.985 . S
C271 C265 1.379 . S
C271 C268 1.363 . S
C271 N269 1.356 . S
C272 C266 1.363 1_556 S
C272 C267 1.379 . S
C272 N270 1.356 . S
N273 C265 1.356 . S
N273 H279 0.984 . S
N273 H280 0.984 . S
N274 C267 1.356 . S
N274 H277 0.984 . S
N274 H278 0.985 . S
H275 N270 0.984 . S
H276 N270 0.985 . S
H277 N274 0.984 . S
H278 N274 0.985 . S
H279 N273 0.984 . S
H280 N273 0.984 . S
H281 N269 0.984 . S
H282 N269 0.985 . S
C283 C284 1.363 1_554 S
C283 C289 1.379 . S
C283 N291 1.356 . S
C284 C283 1.363 1_556 S
C284 C290 1.363 . S
C285 C286 1.363 1_556 S
C285 C290 1.379 . S
C285 N292 1.356 . S
C286 C285 1.363 1_554 S
C286 C289 1.363 . S
N287 C289 1.356 . S
N287 H299 0.984 . S
N287 H300 0.985 . S
N288 C290 1.356 . S
N288 H293 0.984 . S
N288 H294 0.985 . S
C289 C283 1.379 . S
C289 C286 1.363 . S
C289 N287 1.356 . S
C290 C284 1.363 . S
C290 C285 1.379 . S
C290 N288 1.356 . S
N291 C283 1.356 . S
N291 H297 0.984 . S
N291 H298 0.984 . S
N292 C285 1.356 . S
N292 H295 0.984 . S
N292 H296 0.985 . S
H293 N288 0.984 . S
H294 N288 0.985 . S
H295 N292 0.984 . S
H296 N292 0.985 . S
H297 N291 0.984 . S
H298 N291 0.984 . S
H299 N287 0.984 . S
H300 N287 0.985 . S
C301 C302 1.363 1_554 S
C301 C307 1.379 . S
C301 N309 1.356 . S
C302 C301 1.363 1_556 S
C302 C308 1.363 . S
C303 C304 1.363 1_556 S
C303 C308 1.379 . S
C303 N310 1.356 . S
C304 C303 1.363 1_554 S
C304 C307 1.363 . S
N305 C307 1.356 . S
N305 H317 0.984 . S
N305 H318 0.985 . S
N306 C308 1.356 . S
N306 H311 0.984 . S
N306 H312 0.985 . S
C307 C301 1.379 . S
C307 C304 1.363 . S
C307 N305 1.356 . S
C308 C302 1.363 . S
C308 C303 1.379 . S
C308 N306 1.356 . S
N309 C301 1.356 . S
N309 H315 0.984 . S
N309 H316 0.984 . S
N310 C303 1.356 . S
N310 H313 0.984 . S
N310 H314 0.985 . S
H311 N306 0.984 . S
H312 N306 0.985 . S
H313 N310 0.984 . S
H314 N310 0.985 . S
H315 N309 0.984 . S
H316 N309 0.984 . S
H317 N305 0.984 . S
H318 N305 0.985 . S
C319 C320 1.363 . S
C319 C325 1.379 . S
C319 N327 1.356 . S
C320 C319 1.363 . S
C320 C326 1.363 1_554 S
C321 C322 1.363 1_556 S
C321 C326 1.379 . S
C321 N328 1.356 . S
C322 C321 1.363 1_554 S
C322 C325 1.363 . S
N323 C325 1.356 . S
N323 H335 0.984 . S
N323 H336 0.985 . S
N324 C326 1.356 . S
N324 H329 0.984 . S
N324 H330 0.985 . S
C325 C319 1.379 . S
C325 C322 1.363 . S
C325 N323 1.356 . S
C326 C320 1.363 1_556 S
C326 C321 1.379 . S
C326 N324 1.356 . S
N327 C319 1.356 . S
N327 H333 0.984 . S
N327 H334 0.984 . S
N328 C321 1.356 . S
N328 H331 0.984 . S
N328 H332 0.985 . S
H329 N324 0.984 . S
H330 N324 0.985 . S
H331 N328 0.984 . S
H332 N328 0.985 . S
H333 N327 0.984 . S
H334 N327 0.984 . S
H335 N323 0.984 . S
H336 N323 0.985 . S
C124 C105 1.372 . S
C122 N2 1.376 . S
C142 C101 1.721 1_545 S
C140 C39 1.784 . S
C160 C111 1.587 . S
C158 C7 1.677 . S
C178 C95 1.499 1_565 S
C176 N35 1.512 . S
C194 N12 1.456 . S
C196 C87 1.421 . S
C214 C119 1.802 1_565 S
C212 C30 1.933 . S
C230 C16 1.805 . S
C232 C73 1.645 . S
C248 N25 1.689 . S
C250 C117 1.577 . S
C266 C62 1.377 . S
C268 C99 1.329 1_554 S
C284 N48 1.112 . S
C286 C114 1.128 . S
C304 C108 1.118 . S
C302 N58 1.082 1_556 S
C322 C103 1.341 . S
C320 C53 1.387 . S
