# Generated by pormake.
# Topology csq, (4,8)-cn, num edge types: 1
# Building blocks:
#     Node 0, Type 0, BuildingBlock: NAWXER_clean_sbu_0, # of connection points: 4
#     Node 1, Type 0, BuildingBlock: NAWXER_clean_sbu_0, # of connection points: 4
#     Node 2, Type 0, BuildingBlock: NAWXER_clean_sbu_0, # of connection points: 4
#     Node 3, Type 0, BuildingBlock: NAWXER_clean_sbu_0, # of connection points: 4
#     Node 4, Type 0, BuildingBlock: NAWXER_clean_sbu_0, # of connection points: 4
#     Node 5, Type 0, BuildingBlock: NAWXER_clean_sbu_0, # of connection points: 4
#     Node 6, Type 1, BuildingBlock: TAGTUT_clean_sbu_1, # of connection points: 8
#     Node 7, Type 1, BuildingBlock: TAGTUT_clean_sbu_1, # of connection points: 8
#     Node 8, Type 1, BuildingBlock: TAGTUT_clean_sbu_1, # of connection points: 8
#     Edge 9, Type (0, 1), BuildingBlock: UVAHIK_clean_linker_0, # of connection points: 2
#     Edge 10, Type (0, 1), BuildingBlock: UVAHIK_clean_linker_0, # of connection points: 2
#     Edge 11, Type (0, 1), BuildingBlock: UVAHIK_clean_linker_0, # of connection points: 2
#     Edge 12, Type (0, 1), BuildingBlock: UVAHIK_clean_linker_0, # of connection points: 2
#     Edge 13, Type (0, 1), BuildingBlock: UVAHIK_clean_linker_0, # of connection points: 2
#     Edge 14, Type (0, 1), BuildingBlock: UVAHIK_clean_linker_0, # of connection points: 2
#     Edge 15, Type (0, 1), BuildingBlock: UVAHIK_clean_linker_0, # of connection points: 2
#     Edge 16, Type (0, 1), BuildingBlock: UVAHIK_clean_linker_0, # of connection points: 2
#     Edge 17, Type (0, 1), BuildingBlock: UVAHIK_clean_linker_0, # of connection points: 2
#     Edge 18, Type (0, 1), BuildingBlock: UVAHIK_clean_linker_0, # of connection points: 2
#     Edge 19, Type (0, 1), BuildingBlock: UVAHIK_clean_linker_0, # of connection points: 2
#     Edge 20, Type (0, 1), BuildingBlock: UVAHIK_clean_linker_0, # of connection points: 2
#     Edge 21, Type (0, 1), BuildingBlock: UVAHIK_clean_linker_0, # of connection points: 2
#     Edge 22, Type (0, 1), BuildingBlock: UVAHIK_clean_linker_0, # of connection points: 2
#     Edge 23, Type (0, 1), BuildingBlock: UVAHIK_clean_linker_0, # of connection points: 2
#     Edge 24, Type (0, 1), BuildingBlock: UVAHIK_clean_linker_0, # of connection points: 2
#     Edge 25, Type (0, 1), BuildingBlock: UVAHIK_clean_linker_0, # of connection points: 2
#     Edge 26, Type (0, 1), BuildingBlock: UVAHIK_clean_linker_0, # of connection points: 2
#     Edge 27, Type (0, 1), BuildingBlock: UVAHIK_clean_linker_0, # of connection points: 2
#     Edge 28, Type (0, 1), BuildingBlock: UVAHIK_clean_linker_0, # of connection points: 2
#     Edge 29, Type (0, 1), BuildingBlock: UVAHIK_clean_linker_0, # of connection points: 2
#     Edge 30, Type (0, 1), BuildingBlock: UVAHIK_clean_linker_0, # of connection points: 2
#     Edge 31, Type (0, 1), BuildingBlock: UVAHIK_clean_linker_0, # of connection points: 2
#     Edge 32, Type (0, 1), BuildingBlock: UVAHIK_clean_linker_0, # of connection points: 2
# Relax obj value: 0.042
# Max RMSD: 0.131
# Mean RMSD: 0.074
data_MOF--net-csq--node1-NAWXER_clean_sbu_0--node2-TAGTUT_clean_sbu_1--edge1-UVAHIK_clean_linker_0
_symmetry_space_group_name_H-M    P1
_symmetry_Int_Tables_number       1
_symmetry_cell_setting            triclinic
loop_
_symmetry_equiv_pos_as_xyz
'x, y, z'
_cell_length_a     63.535344
_cell_length_b     62.947036
_cell_length_c     25.018394
_cell_angle_alpha  92.643287
_cell_angle_beta   91.883628
_cell_angle_gamma 119.86521
loop_
_atom_site_label
_atom_site_type_symbol
_atom_site_fract_x
_atom_site_fract_y
_atom_site_fract_z
_atom_type_partial_charge
C0 C 0.29608 0.51159 0.10135 0.0
C1 C 0.23678 0.5091 0.22706 0.0
O2 O 0.29692 0.53007 0.1266 0.0
Zn3 Zn 0.26754 0.51188 0.16575 0.0
O4 O 0.27911 0.48993 0.10973 0.0
Zn5 Zn 0.24803 0.47224 0.15596 0.0
O6 O 0.22244 0.45541 0.099 0.0
O7 O 0.23977 0.49585 0.10204 0.0
O8 O 0.23253 0.48798 0.20795 0.0
O9 O 0.25542 0.52837 0.21351 0.0
O10 O 0.27833 0.49428 0.22161 0.0
O11 O 0.25669 0.4541 0.20514 0.0
C12 C 0.22412 0.47464 0.08026 0.0
C13 C 0.27314 0.4727 0.23342 0.0
C14 C 0.73922 0.22444 0.04907 0.0
C15 C 0.78865 0.28537 0.19379 0.0
O16 O 0.7548 0.21993 0.0719 0.0
Zn17 Zn 0.78178 0.23517 0.13728 0.0
O18 O 0.73728 0.24257 0.06693 0.0
Zn19 Zn 0.76272 0.25469 0.12343 0.0
O20 O 0.79484 0.26592 0.0806 0.0
O21 O 0.81167 0.24387 0.10243 0.0
O22 O 0.77181 0.28529 0.16463 0.0
O23 O 0.79338 0.26791 0.18717 0.0
O24 O 0.77029 0.21041 0.18903 0.0
O25 O 0.74801 0.22819 0.18233 0.0
C26 C 0.81197 0.26089 0.07632 0.0
C27 C 0.75258 0.21273 0.20402 0.0
C28 C 0.56877 0.81336 0.11096 0.0
C29 C 0.56774 0.75003 0.99131 0.0
O30 O 0.58679 0.81214 0.09407 0.0
Zn31 Zn 0.56845 0.78176 0.0507 0.0
O32 O 0.5471 0.79581 0.09806 0.0
Zn33 Zn 0.52985 0.7616 0.05058 0.0
O34 O 0.51393 0.73713 0.10178 0.0
O35 O 0.55391 0.75421 0.10727 0.0
O36 O 0.54632 0.74509 0.00306 0.0
O37 O 0.58609 0.77034 0.0088 0.0
O38 O 0.54954 0.79054 0.99113 0.0
O39 O 0.51008 0.76694 -0.00121 0.0
C40 C 0.53308 0.73827 0.12222 0.0
C41 C 0.52752 0.78384 0.97577 0.0
C42 C 0.78414 0.49618 0.00098 0.0
C43 C 0.72459 0.49374 0.1256 0.0
O44 O 0.78817 0.51725 0.01976 0.0
Zn45 Zn 0.77249 0.53306 0.07061 0.0
O46 O 0.76537 0.47683 0.01382 0.0
Zn47 Zn 0.75298 0.49328 0.0611 0.0
O48 O 0.74218 0.51067 0.00491 0.0
O49 O 0.76365 0.55088 0.02075 0.0
O50 O 0.72357 0.47518 0.10038 0.0
O51 O 0.74157 0.51536 0.11706 0.0
O52 O 0.79828 0.55005 0.1272 0.0
O53 O 0.78085 0.5096 0.12458 0.0
C54 C 0.74725 0.53216 0.99269 0.0
C55 C 0.79662 0.53084 0.14604 0.0
C56 C 0.23033 0.73283 0.14564 0.0
C57 C 0.27448 0.78046 0.99818 0.0
O58 O 0.22749 0.75128 0.13856 0.0
Zn59 Zn 0.23894 0.78062 0.08687 0.0
O60 O 0.24421 0.72892 0.11634 0.0
Zn61 Zn 0.2537 0.75699 0.07366 0.0
O62 O 0.27445 0.78767 0.13034 0.0
O63 O 0.25578 0.80923 0.13675 0.0
O64 O 0.27546 0.76259 0.01726 0.0
O65 O 0.26171 0.78866 0.02026 0.0
O66 O 0.20772 0.77258 0.05352 0.0
O67 O 0.21981 0.74614 0.03057 0.0
C68 C 0.27333 0.80606 0.15108 0.0
C69 C 0.20413 0.75323 0.02696 0.0
C70 C 0.45289 0.25409 0.22 0.0
C71 C 0.45323 0.19045 0.1033 0.0
O72 O 0.47446 0.25853 0.21146 0.0
Zn73 Zn 0.49142 0.24155 0.16811 0.0
O74 O 0.43467 0.23415 0.20042 0.0
Zn75 Zn 0.45277 0.22202 0.1619 0.0
O76 O 0.46929 0.21158 0.22371 0.0
O77 O 0.50912 0.23508 0.22281 0.0
O78 O 0.43493 0.19191 0.11739 0.0
O79 O 0.47475 0.20766 0.11885 0.0
O80 O 0.50962 0.26621 0.11932 0.0
O81 O 0.46981 0.24918 0.10507 0.0
C82 C 0.49076 0.21768 0.24236 0.0
C83 C 0.4914 0.26488 0.09343 0.0
C84 C 0.99157 0.44143 0.77044 0.0
C85 C 0.06083 0.48235 0.70319 0.0
C86 C 0.03867 0.55593 0.69834 0.0
Mg87 Mg 0.00824 0.45309 0.6548 0.0
O88 O 0.00395 0.47992 0.67257 0.0
Mg89 Mg 0.02117 0.50119 0.73945 0.0
Mg90 Mg 0.01398 0.50585 0.62119 0.0
O91 O 0.02384 0.53132 0.56811 0.0
Mg92 Mg 0.02081 0.55926 0.57836 0.0
Mg93 Mg 0.00823 0.50975 0.50044 0.0
C94 C 0.98408 0.45487 0.54264 0.0
C95 C 0.05203 0.50107 0.54285 0.0
O96 O 0.00159 0.46463 0.78375 0.0
O97 O 0.99143 0.43307 0.72264 0.0
O98 O 0.05429 0.49541 0.73115 0.0
O99 O 0.04643 0.46585 0.66739 0.0
O100 O 0.9894 0.44249 0.57447 0.0
O101 O 0.99017 0.4773 0.55476 0.0
C102 C 0.97611 0.50904 0.70215 0.0
O103 O 0.98169 0.50944 0.65301 0.0
O104 O 0.98828 0.5064 0.74061 0.0
O105 O 0.03081 0.54502 0.45541 0.0
O106 O 0.04246 0.57798 0.51331 0.0
O107 O 0.97594 0.51695 0.50064 0.0
C108 C 0.04291 0.56834 0.46734 0.0
O109 O 0.98367 0.54886 0.55694 0.0
O110 O 0.03356 0.56715 0.66288 0.0
C111 C 0.96953 0.53137 0.52283 0.0
O112 O 0.03725 0.53501 0.68764 0.0
O113 O 0.04647 0.50197 0.59148 0.0
O114 O 0.04001 0.50301 0.50328 0.0
C115 C 0.46227 0.00966 0.76802 0.0
C116 C 0.44095 0.94481 0.66623 0.0
C117 C 0.53402 0.97124 0.66872 0.0
Mg118 Mg 0.46097 -0.00119 0.64503 0.0
O119 O 0.49292 0.00676 0.66563 0.0
Mg120 Mg 0.4969 0.98686 0.72146 0.0
Mg121 Mg 0.51174 0.00185 0.60922 0.0
O122 O 0.53051 0.99672 0.55297 0.0
Mg123 Mg 0.56222 0.00385 0.57309 0.0
Mg124 Mg 0.52673 0.01635 0.49667 0.0
C125 C 0.48896 0.03128 0.54849 0.0
C126 C 0.47402 0.96817 0.50931 0.0
O127 O 0.47729 0.00182 0.77611 0.0
O128 O 0.45405 0.01041 0.72105 0.0
O129 O 0.46 0.95239 0.69746 0.0
O130 O 0.43797 0.95939 0.63726 0.0
O131 O 0.46991 0.02143 0.57577 0.0
O132 O 0.50723 0.02824 0.5583 0.0
C133 C 0.54941 0.03551 0.70923 0.0
O134 O 0.54561 0.03234 0.65801 0.0
O135 O 0.53373 0.02105 0.74041 0.0
O136 O 0.54604 0.00112 0.44213 0.0
O137 O 0.56899 0.99213 0.49705 0.0
O138 O 0.56419 0.05054 0.5201 0.0
C139 C 0.56088 0.99307 0.45013 0.0
O140 O 0.58579 0.0431 0.58077 0.0
O141 O 0.55304 0.98073 0.64133 0.0
C142 C 0.58334 0.05775 0.55093 0.0
O143 O 0.51636 0.97531 0.65974 0.0
O144 O 0.47764 0.97174 0.56049 0.0
O145 O 0.48982 0.98204 0.47765 0.0
C146 C 0.53059 0.55428 0.44756 0.0
C147 C 0.56117 0.50814 0.48851 0.0
C148 C 0.47238 0.44708 0.55299 0.0
Mg149 Mg 0.55169 0.54512 0.55214 0.0
O150 O 0.51847 0.52242 0.55462 0.0
Mg151 Mg 0.5031 0.49728 0.49224 0.0
Mg152 Mg 0.50886 0.50053 0.61463 0.0
O153 O 0.49921 0.47858 0.67478 0.0
Mg154 Mg 0.46597 0.45557 0.67779 0.0
Mg155 Mg 0.51459 0.50418 0.73642 0.0
C156 C 0.54581 0.55364 0.67633 0.0
C157 C 0.55778 0.50446 0.66991 0.0
O158 O 0.51468 0.53122 0.44047 0.0
O159 O 0.54621 0.56328 0.48785 0.0
O160 O 0.53852 0.49688 0.47364 0.0
O161 O 0.57031 0.52662 0.5228 0.0
O162 O 0.55844 0.56073 0.63496 0.0
O163 O 0.52516 0.53368 0.67485 0.0
C164 C 0.45998 0.4968 0.55957 0.0
O165 O 0.47127 0.49778 0.60392 0.0
O166 O 0.46863 0.49706 0.51396 0.0
O167 O 0.5031 0.47101 0.7891 0.0
O168 O 0.47129 0.43811 0.74459 0.0
O169 O 0.47916 0.5046 0.75371 0.0
C170 C 0.48709 0.44798 0.78451 0.0
O171 O 0.44722 0.47431 0.70588 0.0
O172 O 0.45987 0.43978 0.5946 0.0
C173 C 0.45648 0.49318 0.73918 0.0
O174 O 0.49262 0.4675 0.55412 0.0
O175 O 0.54647 0.50333 0.62546 0.0
O176 O 0.54911 0.50432 0.71545 0.0
C177 C 0.19686 0.48956 0.26883 0.0
C178 C 0.22003 0.51023 0.26563 0.0
C179 C 0.18129 0.48931 0.30712 0.0
C180 C 0.16955 0.52922 0.40083 0.0
H181 H 0.12707 0.46679 0.45883 0.0
C182 C 0.09682 0.5167 0.55098 0.0
C183 C 0.07341 0.49888 0.53032 0.0
C184 C 0.11742 0.51821 0.52831 0.0
C185 C 0.13893 0.48438 0.44328 0.0
H186 H 0.24483 0.54711 0.29989 0.0
H187 H 0.21768 0.54658 0.36793 0.0
H188 H 0.15818 0.47022 0.39975 0.0
H189 H 0.053 0.46794 0.47233 0.0
H190 H 0.08878 0.4698 0.43456 0.0
H191 H 0.15 0.54321 0.4447 0.0
C192 C 0.21146 0.53061 0.34014 0.0
C193 C 0.15664 0.48635 0.40895 0.0
C194 C 0.22706 0.53094 0.30118 0.0
C195 C 0.07089 0.48164 0.48932 0.0
C196 C 0.09136 0.48277 0.46766 0.0
C197 C 0.15198 0.52731 0.43584 0.0
C198 C 0.18846 0.50962 0.34406 0.0
C199 C 0.1717 0.50858 0.38579 0.0
C200 C 0.11483 0.50155 0.48561 0.0
C201 C 0.13605 0.50468 0.45622 0.0
H202 H 0.19069 0.47338 0.24166 0.0
H203 H 0.16349 0.4731 0.3075 0.0
H204 H 0.18066 0.5466 0.3837 0.0
H205 H 0.09917 0.53043 0.58197 0.0
H206 H 0.13531 0.53283 0.54297 0.0
C207 C 0.74542 0.18603 0.28099 0.0
C208 C 0.73787 0.19883 0.2481 0.0
C209 C 0.73209 0.17425 0.32454 0.0
C210 C 0.68456 0.17223 0.41154 0.0
H211 H 0.67405 0.10775 0.43964 0.0
C212 C 0.60202 0.0987 0.51232 0.0
C213 C 0.60482 0.08185 0.54244 0.0
C214 C 0.62195 0.11753 0.48942 0.0
C215 C 0.67721 0.12598 0.43316 0.0
H216 H 0.7101 0.20882 0.23454 0.0
H217 H 0.68661 0.18779 0.30898 0.0
H218 H 0.70126 0.13052 0.37131 0.0
H219 H 0.63125 0.07333 0.57724 0.0
H220 H 0.66602 0.10623 0.53717 0.0
H221 H 0.6595 0.16703 0.4718 0.0
C222 C 0.70317 0.18739 0.30238 0.0
C223 C 0.69281 0.13905 0.39382 0.0
C224 C 0.71654 0.19926 0.25922 0.0
C225 C 0.6284 0.08588 0.554 0.0
C226 C 0.64832 0.10459 0.53063 0.0
C227 C 0.6688 0.15906 0.45059 0.0
C228 C 0.71085 0.1749 0.33595 0.0
C229 C 0.69626 0.16211 0.38161 0.0
C230 C 0.64507 0.11983 0.49599 0.0
C231 C 0.66457 0.13557 0.46107 0.0
H232 H 0.76187 0.1855 0.27374 0.0
H233 H 0.73867 0.16498 0.34974 0.0
H234 H 0.68722 0.1902 0.40416 0.0
H235 H 0.58413 0.09624 0.503 0.0
H236 H 0.61882 0.12898 0.46302 0.0
C237 C 0.51012 0.70358 0.18129 0.0
C238 C 0.5317 0.71954 0.15768 0.0
C239 C 0.50898 0.6849 0.21167 0.0
C240 C 0.5494 0.66663 0.28188 0.0
H241 H 0.49098 0.6028 0.27916 0.0
C242 C 0.51693 0.56407 0.36077 0.0
C243 C 0.52994 0.57182 0.41105 0.0
C244 C 0.51626 0.58124 0.32797 0.0
C245 C 0.50752 0.62043 0.27976 0.0
H246 H 0.56876 0.72801 0.14621 0.0
H247 H 0.56654 0.69537 0.19699 0.0
H248 H 0.4914 0.63451 0.22559 0.0
H249 H 0.55166 0.60357 0.46699 0.0
H250 H 0.54984 0.6329 0.41134 0.0
H251 H 0.56597 0.65251 0.33374 0.0
C252 C 0.55072 0.69761 0.19411 0.0
C253 C 0.50764 0.63875 0.24976 0.0
C254 C 0.55197 0.71639 0.16473 0.0
C255 C 0.54186 0.59691 0.42808 0.0
C256 C 0.54091 0.61386 0.39592 0.0
C257 C 0.54939 0.64833 0.31103 0.0
C258 C 0.5293 0.68169 0.21832 0.0
C259 C 0.52861 0.66211 0.25061 0.0
C260 C 0.52837 0.60638 0.3452 0.0
C261 C 0.5284 0.6251 0.31098 0.0
H262 H 0.49417 0.7055 0.17625 0.0
H263 H 0.49227 0.67314 0.23022 0.0
H264 H 0.56577 0.68446 0.28435 0.0
H265 H 0.50747 0.54484 0.34666 0.0
H266 H 0.50655 0.57488 0.28895 0.0
C267 C 0.82991 0.55473 0.21899 0.0
C268 C 0.81271 0.53223 0.19196 0.0
C269 C 0.8453 0.55531 0.26133 0.0
C270 C 0.87237 0.51963 0.30847 0.0
H271 H 0.88397 0.55534 0.44677 0.0
C272 C 0.92867 0.50819 0.4738 0.0
C273 C 0.94678 0.52986 0.50179 0.0
C274 C 0.9099 0.50821 0.44327 0.0
C275 C 0.88105 0.54541 0.40822 0.0
H276 H 0.79779 0.49269 0.18935 0.0
H277 H 0.82447 0.49384 0.26212 0.0
H278 H 0.85707 0.55746 0.37724 0.0
H279 H 0.95839 0.56808 0.52309 0.0
H280 H 0.92598 0.56829 0.46866 0.0
H281 H 0.89654 0.50798 0.33796 0.0
C282 C 0.82626 0.51101 0.25053 0.0
C283 C 0.8657 0.54669 0.36848 0.0
C284 C 0.81091 0.51041 0.20882 0.0
C285 C 0.94466 0.55106 0.50202 0.0
C286 C 0.92604 0.55117 0.47077 0.0
C287 C 0.88775 0.5185 0.34776 0.0
C288 C 0.84382 0.53342 0.2768 0.0
C289 C 0.86104 0.53356 0.31844 0.0
C290 C 0.90904 0.53 0.43924 0.0
C291 C 0.89211 0.53112 0.39839 0.0
H292 H 0.83166 0.57184 0.20714 0.0
H293 H 0.85876 0.57285 0.28092 0.0
H294 H 0.86947 0.50969 0.26991 0.0
H295 H 0.92964 0.49148 0.47342 0.0
H296 H 0.89664 0.49134 0.4209 0.0
C297 C 0.28798 0.83813 0.22818 0.0
C298 C 0.29203 0.82266 0.19297 0.0
C299 C 0.3052 0.85238 0.2701 0.0
C300 C 0.35872 0.85711 0.34735 0.0
H301 H 0.37451 0.92421 0.38344 0.0
C302 C 0.45077 0.93298 0.44213 0.0
C303 C 0.4508 0.948 0.4853 0.0
C304 C 0.42892 0.91546 0.41517 0.0
C305 C 0.36997 0.90535 0.37435 0.0
H306 H 0.3176 0.81066 0.1728 0.0
H307 H 0.3478 0.836 0.2441 0.0
H308 H 0.34099 0.89847 0.31744 0.0
H309 H 0.42835 0.95693 0.534 0.0
H310 H 0.38986 0.92636 0.48595 0.0
H311 H 0.38865 0.86458 0.40206 0.0
C312 C 0.33106 0.83657 0.24093 0.0
C313 C 0.35078 0.89059 0.33662 0.0
C314 C 0.31381 0.8222 0.1996 0.0
C315 C 0.42864 0.94508 0.50166 0.0
C316 C 0.40674 0.92785 0.47391 0.0
C317 C 0.37807 0.87197 0.38438 0.0
C318 C 0.32685 0.85158 0.27725 0.0
C319 C 0.34533 0.86647 0.32164 0.0
C320 C 0.40678 0.91307 0.43014 0.0
C321 C 0.38418 0.89636 0.39731 0.0
H322 H 0.27127 0.83875 0.22421 0.0
H323 H 0.30131 0.86363 0.29748 0.0
H324 H 0.3546 0.83841 0.33799 0.0
H325 H 0.46771 0.9351 0.42868 0.0
H326 H 0.42941 0.90445 0.38116 0.0
C327 C 0.46959 0.29716 0.25753 0.0
C328 C 0.44962 0.27325 0.24832 0.0
C329 C 0.46669 0.31594 0.28105 0.0
C330 C 0.4304 0.32786 0.3723 0.0
H331 H 0.46319 0.39258 0.31758 0.0
C332 C 0.43988 0.41052 0.49801 0.0
C333 C 0.46381 0.43046 0.50373 0.0
C334 C 0.43299 0.39217 0.45677 0.0
C335 C 0.45391 0.37463 0.33335 0.0
H336 H 0.41094 0.25023 0.25702 0.0
H337 H 0.40601 0.28322 0.29981 0.0
H338 H 0.46086 0.35767 0.26529 0.0
H339 H 0.49871 0.4478 0.46834 0.0
H340 H 0.48695 0.41561 0.39729 0.0
H341 H 0.42468 0.34486 0.44175 0.0
C342 C 0.42383 0.28729 0.28808 0.0
C343 C 0.45253 0.35467 0.30337 0.0
C344 C 0.42667 0.26846 0.26378 0.0
C345 C 0.48015 0.43266 0.46503 0.0
C346 C 0.47333 0.4142 0.42407 0.0
C347 C 0.43195 0.34785 0.40252 0.0
C348 C 0.44381 0.31124 0.29641 0.0
C349 C 0.44146 0.33128 0.32341 0.0
C350 C 0.44994 0.39328 0.42068 0.0
C351 C 0.44442 0.37161 0.38417 0.0
H352 H 0.48751 0.30155 0.24587 0.0
H353 H 0.48249 0.33413 0.28794 0.0
H354 H 0.42191 0.31004 0.3888 0.0
H355 H 0.42672 0.40854 0.52671 0.0
H356 H 0.41467 0.3766 0.4545 0.0
C357 C 0.50083 0.79745 0.93053 0.0
C358 C 0.52303 0.79763 0.93511 0.0
C359 C 0.49826 0.81363 0.89797 0.0
C360 C 0.52696 0.85525 0.7896 0.0
H361 H 0.50195 0.8943 0.85657 0.0
C362 C 0.55081 0.94861 0.71733 0.0
C363 C 0.53153 0.95309 0.70726 0.0
C364 C 0.54735 0.92866 0.74554 0.0
C365 C 0.50872 0.88335 0.83716 0.0
H366 H 0.55942 0.81382 0.90692 0.0
H367 H 0.55497 0.84182 0.8505 0.0
H368 H 0.49877 0.85895 0.90046 0.0
H369 H 0.49388 0.94094 0.72217 0.0
H370 H 0.48791 0.90611 0.77204 0.0
H371 H 0.53756 0.88 0.7272 0.0
C372 C 0.53949 0.82925 0.87173 0.0
C373 C 0.50679 0.86305 0.86206 0.0
C374 C 0.5421 0.81328 0.90438 0.0
C375 C 0.50911 0.93804 0.72916 0.0
C376 C 0.50566 0.91806 0.75766 0.0
C377 C 0.52899 0.87554 0.76495 0.0
C378 C 0.51777 0.83003 0.86907 0.0
C379 C 0.51644 0.84917 0.83913 0.0
C380 C 0.52455 0.91275 0.76454 0.0
C381 C 0.52045 0.89014 0.78911 0.0
H382 H 0.48584 0.78562 0.95388 0.0
H383 H 0.48123 0.81367 0.89626 0.0
H384 H 0.53414 0.84463 0.77043 0.0
H385 H 0.56842 0.95995 0.70159 0.0
H386 H 0.56239 0.92532 0.75142 0.0
C387 C 0.73815 0.55712 0.92909 0.0
C388 C 0.73394 0.53431 0.94533 0.0
C389 C 0.72493 0.55823 0.8842 0.0
C390 C 0.68442 0.51952 0.7651 0.0
H391 H 0.65405 0.55944 0.78282 0.0
C392 C 0.58767 0.49117 0.68976 0.0
C393 C 0.5827 0.50888 0.6707 0.0
C394 C 0.61142 0.49759 0.70638 0.0
C395 C 0.66282 0.5486 0.77656 0.0
H396 H 0.71272 0.49483 0.92661 0.0
H397 H 0.68975 0.49676 0.85035 0.0
H398 H 0.68664 0.56553 0.84708 0.0
H399 H 0.59828 0.54683 0.65208 0.0
H400 H 0.63999 0.55831 0.68241 0.0
H401 H 0.65918 0.5013 0.69702 0.0
C402 C 0.7035 0.51388 0.87101 0.0
C403 C 0.68152 0.55211 0.8134 0.0
C404 C 0.71655 0.51278 0.91545 0.0
C405 C 0.60191 0.53278 0.66558 0.0
C406 C 0.62564 0.53938 0.68333 0.0
C407 C 0.66553 0.51582 0.72877 0.0
C408 C 0.70742 0.53654 0.85469 0.0
C409 C 0.69178 0.53685 0.80943 0.0
C410 C 0.63044 0.52201 0.70557 0.0
C411 C 0.65395 0.52969 0.73537 0.0
H412 H 0.75148 0.57404 0.95115 0.0
H413 H 0.72839 0.576 0.87265 0.0
H414 H 0.69239 0.5079 0.76004 0.0
H415 H 0.57297 0.4728 0.69511 0.0
H416 H 0.61454 0.48391 0.72398 0.0
C417 C 0.15931 0.72626 0.02287 0.0
C418 C 0.18104 0.73694 0.99648 0.0
C419 C 0.1385 0.70579 0.99852 0.0
C420 C 0.10696 0.67239 0.8747 0.0
H421 H 0.09236 0.61144 0.93685 0.0
C422 C 0.06666 0.57051 0.78114 0.0
C423 C 0.04619 0.56825 0.75256 0.0
C424 C 0.07818 0.58859 0.82356 0.0
C425 C 0.09605 0.62834 0.91961 0.0
H426 H 0.19808 0.73583 0.92376 0.0
H427 H 0.16126 0.70091 0.87984 0.0
H428 H 0.12186 0.65106 0.98408 0.0
H429 H 0.01971 0.5804 0.74986 0.0
H430 H 0.03973 0.61176 0.82368 0.0
H431 H 0.08181 0.64999 0.80967 0.0
C432 C 0.16042 0.70809 0.91943 0.0
C433 C 0.11271 0.65088 0.94661 0.0
C434 C 0.18135 0.72805 0.94428 0.0
C435 C 0.03574 0.58212 0.77085 0.0
C436 C 0.04716 0.60005 0.81298 0.0
C437 C 0.08999 0.64997 0.84834 0.0
C438 C 0.13915 0.69632 0.94711 0.0
C439 C 0.11864 0.67299 0.92363 0.0
C440 C 0.06922 0.60439 0.83759 0.0
C441 C 0.08476 0.62774 0.86995 0.0
H442 H 0.15894 0.73255 0.06369 0.0
H443 H 0.12221 0.69684 0.02041 0.0
H444 H 0.11153 0.68926 0.85616 0.0
H445 H 0.07502 0.56001 0.76762 0.0
H446 H 0.09521 0.59163 0.84205 0.0
C447 C 0.42739 0.15092 0.04741 0.0
C448 C 0.45003 0.16832 0.07265 0.0
C449 C 0.42454 0.12965 0.0201 0.0
C450 C 0.45098 0.08941 0.01096 0.0
H451 H 0.42572 0.07538 0.8627 0.0
C452 C 0.47187 0.03242 0.85807 0.0
C453 C 0.45538 0.02 0.81371 0.0
C454 C 0.46712 0.04615 0.89627 0.0
C455 C 0.43226 0.07854 0.90443 0.0
H456 H 0.4873 0.17695 0.08974 0.0
H457 H 0.48223 0.1399 0.04245 0.0
H458 H 0.42476 0.10795 0.91673 0.0
H459 H 0.42004 0.01018 0.77697 0.0
H460 H 0.41126 0.03322 0.84468 0.0
H461 H 0.45873 0.0602 -0.00129 0.0
C462 C 0.46671 0.14264 0.04385 0.0
C463 C 0.43178 0.09732 0.93526 0.0
C464 C 0.46965 0.16398 0.0704 0.0
C465 C 0.43324 0.01993 0.81041 0.0
C466 C 0.4283 0.03327 0.84902 0.0
C467 C 0.45121 0.07042 0.98032 0.0
C468 C 0.44417 0.12529 0.01844 0.0
C469 C 0.4417 0.10333 0.98833 0.0
C470 C 0.44561 0.04737 0.89119 0.0
C471 C 0.44241 0.06516 0.92624 0.0
H472 H 0.41193 0.15374 0.04863 0.0
H473 H 0.40697 0.11651 0.00071 0.0
H474 H 0.45848 0.09354 0.05211 0.0
H475 H 0.48912 0.03284 0.86142 0.0
H476 H 0.48099 0.05692 0.9279 0.0
C477 C 0.30772 0.49458 0.02297 0.0
C478 C 0.31359 0.51437 0.06054 0.0
C479 C 0.32375 0.49641 0.98428 0.0
C480 C 0.38787 0.52712 0.95734 0.0
H481 H 0.36313 0.50145 0.81092 0.0
C482 C 0.45032 0.52225 0.80019 0.0
C483 C 0.44036 0.50059 0.76616 0.0
C484 C 0.43543 0.52757 0.83149 0.0
C485 C 0.37036 0.50851 0.85168 0.0
H486 H 0.34106 0.5517 0.08669 0.0
H487 H 0.36957 0.55472 0.01921 0.0
H488 H 0.33634 0.50408 0.87518 0.0
H489 H 0.40666 0.46809 0.73689 0.0
H490 H 0.38083 0.47702 0.79204 0.0
H491 H 0.42156 0.53056 0.9348 0.0
C492 C 0.35232 0.53784 0.01986 0.0
C493 C 0.355 0.51013 0.88845 0.0
C494 C 0.336 0.53615 0.05832 0.0
C495 C 0.41499 0.48497 0.76246 0.0
C496 C 0.40012 0.49019 0.7941 0.0
C497 C 0.4032 0.52527 0.92069 0.0
C498 C 0.34628 0.51797 0.9823 0.0
C499 C 0.36344 0.51903 0.94195 0.0
C500 C 0.41017 0.51131 0.82994 0.0
C501 C 0.39454 0.51551 0.86753 0.0
H502 H 0.29058 0.47755 0.02322 0.0
H503 H 0.31867 0.48066 0.95645 0.0
H504 H 0.39485 0.53383 0.9984 0.0
H505 H 0.46977 0.53485 0.80375 0.0
H506 H 0.44382 0.54428 0.85759 0.0
C507 C 0.83031 0.2922 0.00946 0.0
C508 C 0.83268 0.2766 0.04449 0.0
C509 C 0.85037 0.30972 0.98475 0.0
C510 C 0.91219 0.32808 0.94689 0.0
H511 H 0.9166 0.39169 0.94189 0.0
C512 C 0.96805 0.39807 0.79636 0.0
C513 C 0.97869 0.42338 0.8106 0.0
C514 C 0.954 0.38075 0.83184 0.0
C515 C 0.91598 0.37423 0.94368 0.0
H516 H 0.85782 0.26639 0.07916 0.0
H517 H 0.89319 0.29726 0.03555 0.0
H518 H 0.88456 0.35982 0.9895 0.0
H519 H 0.98386 0.45025 0.87473 0.0
H520 H 0.95942 0.41991 0.93704 0.0
H521 H 0.94365 0.34258 0.90078 0.0
C522 C 0.87565 0.29581 0.0274 0.0
C523 C 0.89736 0.35581 0.97034 0.0
C524 C 0.85542 0.27812 0.05224 0.0
C525 C 0.97579 0.43093 0.86226 0.0
C526 C 0.9617 0.41353 0.89789 0.0
C527 C 0.93089 0.34657 0.92016 0.0
C528 C 0.87341 0.31222 0.99452 0.0
C529 C 0.89484 0.33233 0.97102 0.0
C530 C 0.95022 0.38823 0.88264 0.0
C531 C 0.93264 0.36969 0.91716 0.0
H532 H 0.81298 0.29133 0.00203 0.0
H533 H 0.84787 0.32159 0.95842 0.0
H534 H 0.91076 0.3102 0.94684 0.0
H535 H 0.96996 0.39149 0.75706 0.0
H536 H 0.94521 0.36147 0.81838 0.0
C537 C 0.82537 0.5155 0.96587 0.0
C538 C 0.80166 0.49527 0.96454 0.0
C539 C 0.84187 0.51622 0.92963 0.0
C540 C 0.8547 0.47801 0.83348 0.0
H541 H 0.9009 0.5421 0.78768 0.0
C542 C 0.93155 0.49449 0.69082 0.0
C543 C 0.95456 0.51062 0.71623 0.0
C544 C 0.91053 0.49251 0.71221 0.0
C545 C 0.888 0.52407 0.7998 0.0
H546 H 0.77683 0.45961 0.9246 0.0
H547 H 0.80567 0.46104 0.85991 0.0
H548 H 0.86816 0.53777 0.84241 0.0
H549 H 0.97392 0.53816 0.78171 0.0
H550 H 0.93746 0.53558 0.81745 0.0
H551 H 0.87484 0.4645 0.79029 0.0
C552 C 0.81155 0.47627 0.88969 0.0
C553 C 0.86935 0.52156 0.83164 0.0
C554 C 0.795 0.47541 0.92669 0.0
C555 C 0.95637 0.52573 0.76123 0.0
C556 C 0.93552 0.52422 0.78167 0.0
C557 C 0.87322 0.48049 0.80081 0.0
C558 C 0.83513 0.49691 0.89021 0.0
C559 C 0.85292 0.49866 0.85053 0.0
C560 C 0.91236 0.50712 0.75836 0.0
C561 C 0.89044 0.50368 0.78498 0.0
H562 H 0.83126 0.53096 0.99504 0.0
H563 H 0.86004 0.53205 0.93276 0.0
H564 H 0.84252 0.46012 0.84731 0.0
H565 H 0.92972 0.48241 0.65652 0.0
H566 H 0.89286 0.47922 0.69349 0.0
C567 C 0.30814 0.79011 0.93698 0.0
C568 C 0.28778 0.79187 0.95063 0.0
C569 C 0.32142 0.8022 0.8937 0.0
C570 C 0.33239 0.85385 0.81109 0.0
H571 H 0.3687 0.83078 0.72879 0.0
C572 C 0.39638 0.91421 0.65922 0.0
C573 C 0.42039 0.91978 0.67184 0.0
C574 C 0.37688 0.89373 0.67921 0.0
C575 C 0.35848 0.83732 0.75119 0.0
H576 H 0.2645 0.80645 0.92795 0.0
H577 H 0.28692 0.82664 0.85146 0.0
H578 H 0.34052 0.80444 0.79264 0.0
H579 H 0.44258 0.90656 0.70927 0.0
H580 H 0.40859 0.87081 0.74355 0.0
H581 H 0.35051 0.88677 0.77023 0.0
C582 C 0.29333 0.81679 0.87516 0.0
C583 C 0.3425 0.82236 0.78813 0.0
C584 C 0.28037 0.80511 0.91894 0.0
C585 C 0.4243 0.90293 0.69938 0.0
C586 C 0.4048 0.88235 0.71887 0.0
C587 C 0.34807 0.8686 0.77378 0.0
C588 C 0.31436 0.81597 0.86257 0.0
C589 C 0.32962 0.83065 0.81942 0.0
C590 C 0.38104 0.87831 0.71147 0.0
C591 C 0.36166 0.86074 0.74419 0.0
H592 H 0.31428 0.78005 0.96078 0.0
H593 H 0.33767 0.80138 0.88588 0.0
H594 H 0.32329 0.8612 0.83502 0.0
H595 H 0.39272 0.92672 0.63782 0.0
H596 H 0.35867 0.8908 0.67221 0.0
C597 C 0.47456 0.27922 0.02145 0.0
C598 C 0.49451 0.2832 0.05509 0.0
C599 C 0.47558 0.29811 0.99276 0.0
C600 C 0.51609 0.35936 0.94573 0.0
H601 H 0.4581 0.36499 0.95226 0.0
C602 C 0.50907 0.43929 0.85779 0.0
C603 C 0.488 0.43173 0.8242 0.0
C604 C 0.5109 0.42274 0.89038 0.0
C605 C 0.47438 0.36362 0.94994 0.0
H606 H 0.53175 0.30965 0.08247 0.0
H607 H 0.53349 0.34288 0.0323 0.0
H608 H 0.4601 0.3324 0.99667 0.0
H609 H 0.45196 0.40124 0.80033 0.0
H610 H 0.45513 0.37256 0.8572 0.0
H611 H 0.53023 0.39061 0.89852 0.0
C612 C 0.51709 0.32506 0.02809 0.0
C613 C 0.4755 0.34489 0.97513 0.0
C614 C 0.51611 0.30603 0.05672 0.0
C615 C 0.46846 0.40764 0.82559 0.0
C616 C 0.47023 0.39123 0.8584 0.0
C617 C 0.51498 0.37819 0.92051 0.0
C618 C 0.49652 0.32149 0.9973 0.0
C619 C 0.49616 0.34224 0.97243 0.0
C620 C 0.49161 0.39845 0.8904 0.0
C621 C 0.49392 0.38021 0.92162 0.0
H622 H 0.45776 0.26173 0.01887 0.0
H623 H 0.45967 0.29461 0.96816 0.0
H624 H 0.53222 0.35776 0.94292 0.0
H625 H 0.52447 0.45771 0.85753 0.0
H626 H 0.5275 0.42885 0.91508 0.0
C627 C 0.19541 0.45157 -0.00052 0.0
C628 C 0.20891 0.4733 0.03266 0.0
C629 C 0.18229 0.45135 0.95301 0.0
C630 C 0.17754 0.49386 0.86047 0.0
H631 H 0.11171 0.44027 0.82781 0.0
C632 C 0.10149 0.50318 0.75384 0.0
C633 C 0.08401 0.48351 0.71949 0.0
C634 C 0.12043 0.50162 0.77978 0.0
C635 C 0.13026 0.45516 0.83569 0.0
H636 H 0.21869 0.51162 0.04377 0.0
H637 H 0.19557 0.51105 0.96447 0.0
H638 H 0.13697 0.43713 0.899 0.0
H639 H 0.07389 0.44761 0.68205 0.0
H640 H 0.10686 0.44485 0.72799 0.0
H641 H 0.17026 0.51241 0.79908 0.0
C642 C 0.19559 0.49434 0.97296 0.0
C643 C 0.14474 0.45337 0.87653 0.0
C644 C 0.2087 0.49459 0.01892 0.0
C645 C 0.08702 0.46309 0.70833 0.0
C646 C 0.10578 0.46139 0.7349 0.0
C647 C 0.16298 0.49575 0.82007 0.0
C648 C 0.18242 0.47284 0.93903 0.0
C649 C 0.1683 0.47303 0.89054 0.0
C650 C 0.12213 0.48027 0.77232 0.0
C651 C 0.13898 0.47669 0.80825 0.0
H652 H 0.19531 0.4349 0.00888 0.0
H653 H 0.17236 0.43447 0.92768 0.0
H654 H 0.19584 0.5091 0.86924 0.0
H655 H 0.09976 0.51921 0.76307 0.0
H656 H 0.13274 0.51644 0.80853 0.0
C657 C 0.70271 0.20867 0.98441 0.0
C658 C 0.72375 0.2084 0.0023 0.0
C659 C 0.68732 0.19212 0.94252 0.0
C660 C 0.66123 0.16017 0.84007 0.0
H661 H 0.64885 0.09373 0.85133 0.0
C662 C 0.58785 0.07613 0.70458 0.0
C663 C 0.57246 0.05616 0.73383 0.0
C664 C 0.6092 0.09584 0.72947 0.0
C665 C 0.6522 0.11221 0.84745 0.0
H666 H 0.74604 0.19173 0.98809 0.0
H667 H 0.71956 0.16333 0.91459 0.0
H668 H 0.68077 0.12701 0.90912 0.0
H669 H 0.56765 0.04104 0.81172 0.0
H670 H 0.60448 0.07517 0.85468 0.0
H671 H 0.63157 0.14483 0.78013 0.0
C672 C 0.71452 0.17578 0.93375 0.0
C673 C 0.67068 0.13137 0.8802 0.0
C674 C 0.72972 0.1921 0.97587 0.0
C675 C 0.57901 0.05613 0.78798 0.0
C676 C 0.60028 0.07562 0.81257 0.0
C677 C 0.64265 0.14091 0.80721 0.0
C678 C 0.69283 0.17515 0.91743 0.0
C679 C 0.67507 0.15551 0.87785 0.0
C680 C 0.61557 0.09572 0.78376 0.0
C681 C 0.63754 0.11665 0.81176 0.0
H682 H 0.69768 0.22107 0.00393 0.0
H683 H 0.67063 0.19196 0.93135 0.0
H684 H 0.6644 0.17862 0.83677 0.0
H685 H 0.5832 0.07675 0.66288 0.0
H686 H 0.62071 0.11112 0.70633 0.0
C687 C 0.55088 0.70688 0.95434 0.0
C688 C 0.57091 0.73077 0.96329 0.0
C689 C 0.55391 0.68778 0.93347 0.0
C690 C 0.59105 0.67387 0.8495 0.0
H691 H 0.55695 0.61056 0.91033 0.0
C692 C 0.57935 0.58882 0.73224 0.0
C693 C 0.55492 0.56995 0.72592 0.0
C694 C 0.58694 0.6074 0.77317 0.0
C695 C 0.56666 0.62813 0.89301 0.0
H696 H 0.60977 0.75346 0.95609 0.0
H697 H 0.61491 0.71986 0.91788 0.0
H698 H 0.5595 0.64667 0.95758 0.0
H699 H 0.51983 0.55442 0.76032 0.0
H700 H 0.53284 0.58706 0.83083 0.0
H701 H 0.59691 0.65527 0.78331 0.0
C702 C 0.59696 0.71608 0.92789 0.0
C703 C 0.56814 0.64876 0.92005 0.0
C704 C 0.59399 0.73526 0.94948 0.0
C705 C 0.53875 0.56877 0.76408 0.0
C706 C 0.54628 0.58748 0.80474 0.0
C707 C 0.58942 0.65322 0.82224 0.0
C708 C 0.57697 0.69212 0.92059 0.0
C709 C 0.57955 0.67159 0.89748 0.0
C710 C 0.5702 0.60755 0.80824 0.0
C711 C 0.57641 0.62994 0.84273 0.0
H712 H 0.53286 0.70273 0.9646 0.0
H713 H 0.5381 0.66957 0.92706 0.0
H714 H 0.59984 0.69126 0.83119 0.0
H715 H 0.59236 0.5899 0.704 0.0
H716 H 0.60562 0.6223 0.77565 0.0
C717 C 0.51616 0.20318 0.28996 0.0
C718 C 0.49369 0.20214 0.281 0.0
C719 C 0.51763 0.18526 0.31829 0.0
C720 C 0.47863 0.12106 0.34757 0.0
H721 H 0.52948 0.1332 0.45498 0.0
C722 C 0.4697 0.0494 0.49188 0.0
C723 C 0.49041 0.04803 0.50744 0.0
C724 C 0.47155 0.06752 0.45917 0.0
C725 C 0.5154 0.1295 0.42434 0.0
H726 H 0.45559 0.1827 0.29831 0.0
H727 H 0.45827 0.15179 0.34812 0.0
H728 H 0.53042 0.16773 0.41185 0.0
H729 H 0.52917 0.06396 0.49878 0.0
H730 H 0.53233 0.09555 0.44109 0.0
H731 H 0.46345 0.08296 0.36014 0.0
C732 C 0.4746 0.16603 0.33213 0.0
C733 C 0.5159 0.14927 0.39989 0.0
C734 C 0.47312 0.18386 0.30394 0.0
C735 C 0.51285 0.06448 0.48748 0.0
C736 C 0.51472 0.08273 0.45486 0.0
C737 C 0.47817 0.10136 0.37182 0.0
C738 C 0.49666 0.16604 0.33803 0.0
C739 C 0.49722 0.14525 0.36209 0.0
C740 C 0.49417 0.08471 0.44126 0.0
C741 C 0.49627 0.10538 0.41122 0.0
H742 H 0.53232 0.21703 0.27271 0.0
H743 H 0.53489 0.18573 0.32239 0.0
H744 H 0.46432 0.11736 0.31753 0.0
H745 H 0.45212 0.03698 0.50639 0.0
H746 H 0.4554 0.06868 0.44984 0.0
C747 C 0.30385 0.49164 0.31076 0.0
C748 C 0.28627 0.47027 0.28073 0.0
C749 C 0.31659 0.49023 0.35543 0.0
C750 C 0.33728 0.45114 0.41383 0.0
H751 H 0.35949 0.5016 0.53093 0.0
C752 C 0.41575 0.46872 0.56281 0.0
C753 C 0.43515 0.49263 0.55891 0.0
C754 C 0.39216 0.46249 0.54472 0.0
C755 C 0.35318 0.48718 0.49895 0.0
H756 H 0.2681 0.43049 0.2748 0.0
H757 H 0.29064 0.42799 0.35365 0.0
H758 H 0.32696 0.49579 0.46677 0.0
H759 H 0.44535 0.52912 0.5365 0.0
H760 H 0.40405 0.51862 0.50692 0.0
H761 H 0.36414 0.44315 0.44522 0.0
C762 C 0.29449 0.44588 0.34206 0.0
C763 C 0.33467 0.48393 0.46199 0.0
C764 C 0.28159 0.4473 0.29696 0.0
C765 C 0.4305 0.51071 0.54089 0.0
C766 C 0.40689 0.50464 0.52386 0.0
C767 C 0.35561 0.45422 0.45124 0.0
C768 C 0.31215 0.4674 0.3718 0.0
C769 C 0.32737 0.46671 0.41747 0.0
C770 C 0.3877 0.48023 0.52328 0.0
C771 C 0.36446 0.473 0.49273 0.0
H772 H 0.30805 0.5097 0.29959 0.0
H773 H 0.33047 0.50722 0.37631 0.0
H774 H 0.33219 0.43779 0.38 0.0
H775 H 0.41915 0.45441 0.57552 0.0
H776 H 0.37769 0.44356 0.54464 0.0
C777 C 0.81819 0.30262 0.27238 0.0
C778 C 0.80492 0.30633 0.23156 0.0
C779 C 0.83799 0.32251 0.3002 0.0
C780 C 0.86913 0.38652 0.34268 0.0
H781 H 0.92665 0.38007 0.33423 0.0
C782 C 0.95882 0.45395 0.46263 0.0
C783 C 0.96862 0.4423 0.49301 0.0
C784 C 0.94099 0.44084 0.42128 0.0
C785 C 0.91079 0.38217 0.33691 0.0
H786 H 0.80055 0.3337 0.19088 0.0
H787 H 0.8354 0.36893 0.24099 0.0
H788 H 0.88904 0.35043 0.2835 0.0
H789 H 0.9685 0.40807 0.50133 0.0
H790 H 0.93736 0.38519 0.42961 0.0
H791 H 0.8905 0.41752 0.39842 0.0
C792 C 0.83042 0.35047 0.25059 0.0
C793 C 0.88934 0.36529 0.30782 0.0
C794 C 0.81047 0.33039 0.22232 0.0
C795 C 0.96131 0.41763 0.4789 0.0
C796 C 0.94352 0.40453 0.4375 0.0
C797 C 0.89062 0.40339 0.37224 0.0
C798 C 0.84487 0.34652 0.28799 0.0
C799 C 0.86816 0.36685 0.3119 0.0
C800 C 0.93269 0.41582 0.40926 0.0
C801 C 0.91142 0.40085 0.37099 0.0
H802 H 0.8141 0.28427 0.28084 0.0
H803 H 0.8486 0.3191 0.3298 0.0
H804 H 0.85295 0.388 0.34629 0.0
H805 H 0.96403 0.47288 0.47224 0.0
H806 H 0.93321 0.45012 0.39976 0.0
C807 C 0.59535 0.85314 0.16534 0.0
C808 C 0.57239 0.83561 0.14174 0.0
C809 C 0.59856 0.87451 0.19283 0.0
C810 C 0.57247 0.91486 0.20466 0.0
H811 H 0.59819 0.92841 0.35254 0.0
C812 C 0.55141 0.97071 0.35972 0.0
C813 C 0.56783 0.98291 0.40427 0.0
C814 C 0.5563 0.95733 0.32097 0.0
C815 C 0.59155 0.9254 0.31091 0.0
H816 H 0.53491 0.82685 0.12765 0.0
H817 H 0.54063 0.86414 0.17517 0.0
H818 H 0.59902 0.89604 0.29744 0.0
H819 H 0.60318 0.99273 0.44091 0.0
H820 H 0.61224 0.97031 0.37221 0.0
H821 H 0.56474 0.94402 0.21803 0.0
C822 C 0.5561 0.86138 0.17239 0.0
C823 C 0.59195 0.90674 0.27948 0.0
C824 C 0.5528 0.83992 0.14574 0.0
C825 C 0.59003 0.98312 0.40731 0.0
C826 C 0.59513 0.97015 0.36813 0.0
C827 C 0.57235 0.93377 0.23586 0.0
C828 C 0.57897 0.87884 0.19621 0.0
C829 C 0.5818 0.90087 0.22662 0.0
C830 C 0.57791 0.95626 0.32565 0.0
C831 C 0.58126 0.93881 0.28986 0.0
H832 H 0.61078 0.85031 0.16274 0.0
H833 H 0.61636 0.88775 0.21105 0.0
H834 H 0.56479 0.91081 0.16367 0.0
H835 H 0.53411 0.9702 0.35658 0.0
H836 H 0.54248 0.9467 0.28916 0.0
C837 C 0.71416 0.5104 0.20619 0.0
C838 C 0.70719 0.49122 0.16636 0.0
C839 C 0.69797 0.50944 0.24354 0.0
C840 C 0.63918 0.46844 0.30227 0.0
H841 H 0.6433 0.53078 0.34176 0.0
C842 C 0.5681 0.48139 0.42176 0.0
C843 C 0.57757 0.50143 0.4605 0.0
C844 C 0.58359 0.47751 0.38921 0.0
C845 C 0.64208 0.51326 0.33166 0.0
H846 H 0.67784 0.45556 0.1355 0.0
H847 H 0.64898 0.45416 0.20018 0.0
H848 H 0.66996 0.52898 0.27678 0.0
H849 H 0.61095 0.5321 0.49753 0.0
H850 H 0.6378 0.52538 0.44066 0.0
H851 H 0.61053 0.45278 0.35654 0.0
C852 C 0.66724 0.46983 0.20291 0.0
C853 C 0.65744 0.5122 0.29438 0.0
C854 C 0.68371 0.47063 0.16569 0.0
C855 C 0.60295 0.5166 0.46795 0.0
C856 C 0.61837 0.51284 0.43514 0.0
C857 C 0.62352 0.46949 0.33932 0.0
C858 C 0.67408 0.48947 0.2418 0.0
C859 C 0.65654 0.48988 0.2797 0.0
C860 C 0.60884 0.49369 0.3944 0.0
C861 C 0.62507 0.49201 0.35493 0.0
H862 H 0.73227 0.52632 0.2086 0.0
H863 H 0.70428 0.52455 0.27381 0.0
H864 H 0.63801 0.45096 0.29224 0.0
H865 H 0.54865 0.46924 0.41506 0.0
H866 H 0.57571 0.4626 0.35817 0.0
C867 C 0.20697 0.69009 0.17576 0.0
C868 C 0.21537 0.71533 0.18443 0.0
C869 C 0.18879 0.67325 0.20651 0.0
C870 C 0.13882 0.66896 0.28526 0.0
H871 H 0.13483 0.60944 0.33305 0.0
C872 C 0.07154 0.61011 0.43771 0.0
C873 C 0.05993 0.58443 0.42876 0.0
C874 C 0.08971 0.6253 0.40505 0.0
C875 C 0.13558 0.62586 0.31935 0.0
H876 H 0.21295 0.74294 0.23464 0.0
H877 H 0.18204 0.71381 0.28921 0.0
H878 H 0.16973 0.63754 0.28463 0.0
H879 H 0.05788 0.55461 0.37735 0.0
H880 H 0.08962 0.58124 0.32033 0.0
H881 H 0.10491 0.6575 0.32049 0.0
C882 C 0.1887 0.70683 0.25759 0.0
C883 C 0.15557 0.64196 0.29171 0.0
C884 C 0.20659 0.72355 0.22667 0.0
C885 C 0.06639 0.57431 0.38532 0.0
C886 C 0.08472 0.58953 0.35293 0.0
C887 C 0.11897 0.65298 0.31303 0.0
C888 C 0.1789 0.68145 0.2466 0.0
C889 C 0.15755 0.66384 0.27491 0.0
C890 C 0.09679 0.61517 0.36293 0.0
C891 C 0.11723 0.63138 0.33079 0.0
H892 H 0.21333 0.68328 0.14318 0.0
H893 H 0.18162 0.65381 0.19702 0.0
H894 H 0.13942 0.68533 0.27163 0.0
H895 H 0.06702 0.61852 0.47078 0.0
H896 H 0.09879 0.645 0.41395 0.0
loop_
_geom_bond_atom_site_label_1
_geom_bond_atom_site_label_2
_geom_bond_distance
_geom_bond_site_symmetry_2
_ccdc_geom_bond_type
C0 O2 1.247 . S
C0 O4 1.258 . S
C1 O8 1.247 . S
C1 O9 1.258 . S
O2 C0 1.247 . S
O2 Zn3 2.028 . S
Zn3 O2 2.028 . S
Zn3 O7 2.035 . S
Zn3 O9 2.035 . S
Zn3 O10 2.028 . S
O4 C0 1.258 . S
O4 Zn5 2.035 . S
Zn5 O4 2.035 . S
Zn5 O6 2.028 . S
Zn5 O8 2.028 . S
Zn5 O11 2.035 . S
O6 Zn5 2.028 . S
O6 C12 1.247 . S
O7 Zn3 2.035 . S
O7 C12 1.258 . S
O8 C1 1.247 . S
O8 Zn5 2.028 . S
O9 C1 1.258 . S
O9 Zn3 2.035 . S
O10 Zn3 2.028 . S
O10 C13 1.247 . S
O11 Zn5 2.035 . S
O11 C13 1.258 . S
C12 O6 1.247 . S
C12 O7 1.258 . S
C13 O10 1.247 . S
C13 O11 1.258 . S
C14 O16 1.247 . S
C14 O18 1.258 . S
C15 O22 1.247 . S
C15 O23 1.258 . S
O16 C14 1.247 . S
O16 Zn17 2.028 . S
Zn17 O16 2.028 . S
Zn17 O21 2.035 . S
Zn17 O23 2.035 . S
Zn17 O24 2.028 . S
O18 C14 1.258 . S
O18 Zn19 2.035 . S
Zn19 O18 2.035 . S
Zn19 O20 2.028 . S
Zn19 O22 2.028 . S
Zn19 O25 2.035 . S
O20 Zn19 2.028 . S
O20 C26 1.247 . S
O21 Zn17 2.035 . S
O21 C26 1.258 . S
O22 C15 1.247 . S
O22 Zn19 2.028 . S
O23 C15 1.258 . S
O23 Zn17 2.035 . S
O24 Zn17 2.028 . S
O24 C27 1.247 . S
O25 Zn19 2.035 . S
O25 C27 1.258 . S
C26 O20 1.247 . S
C26 O21 1.258 . S
C27 O24 1.247 . S
C27 O25 1.258 . S
C28 O30 1.247 . S
C28 O32 1.258 . S
C29 O36 1.247 . S
C29 O37 1.258 . S
O30 C28 1.247 . S
O30 Zn31 2.028 . S
Zn31 O30 2.028 . S
Zn31 O35 2.035 . S
Zn31 O37 2.035 1_554 S
Zn31 O38 2.028 1_554 S
O32 C28 1.258 . S
O32 Zn33 2.035 . S
Zn33 O32 2.035 . S
Zn33 O34 2.028 . S
Zn33 O36 2.028 1_554 S
Zn33 O39 2.035 1_554 S
O34 Zn33 2.028 . S
O34 C40 1.247 . S
O35 Zn31 2.035 . S
O35 C40 1.258 . S
O36 C29 1.247 . S
O36 Zn33 2.028 1_556 S
O37 C29 1.258 . S
O37 Zn31 2.035 1_556 S
O38 Zn31 2.028 1_556 S
O38 C41 1.247 . S
O39 Zn33 2.035 1_556 S
O39 C41 1.258 . S
C40 O34 1.247 . S
C40 O35 1.258 . S
C41 O38 1.247 . S
C41 O39 1.258 . S
C42 O44 1.247 1_556 S
C42 O46 1.258 1_556 S
C43 O50 1.247 . S
C43 O51 1.258 . S
O44 C42 1.247 1_554 S
O44 Zn45 2.028 . S
Zn45 O44 2.028 . S
Zn45 O49 2.035 . S
Zn45 O51 2.035 . S
Zn45 O52 2.028 . S
O46 C42 1.258 1_554 S
O46 Zn47 2.035 . S
Zn47 O46 2.035 . S
Zn47 O48 2.028 . S
Zn47 O50 2.028 . S
Zn47 O53 2.035 . S
O48 Zn47 2.028 . S
O48 C54 1.247 1_554 S
O49 Zn45 2.035 . S
O49 C54 1.258 1_554 S
O50 C43 1.247 . S
O50 Zn47 2.028 . S
O51 C43 1.258 . S
O51 Zn45 2.035 . S
O52 Zn45 2.028 . S
O52 C55 1.247 . S
O53 Zn47 2.035 . S
O53 C55 1.258 . S
C54 O48 1.247 1_556 S
C54 O49 1.258 1_556 S
C55 O52 1.247 . S
C55 O53 1.258 . S
C56 O58 1.247 . S
C56 O60 1.258 . S
C57 O64 1.247 . S
C57 O65 1.258 . S
O58 C56 1.247 . S
O58 Zn59 2.028 . S
Zn59 O58 2.028 . S
Zn59 O63 2.035 . S
Zn59 O65 2.035 . S
Zn59 O66 2.028 . S
O60 C56 1.258 . S
O60 Zn61 2.035 . S
Zn61 O60 2.035 . S
Zn61 O62 2.028 . S
Zn61 O64 2.028 . S
Zn61 O67 2.035 . S
O62 Zn61 2.028 . S
O62 C68 1.247 . S
O63 Zn59 2.035 . S
O63 C68 1.258 . S
O64 C57 1.247 . S
O64 Zn61 2.028 . S
O65 C57 1.258 . S
O65 Zn59 2.035 . S
O66 Zn59 2.028 . S
O66 C69 1.247 . S
O67 Zn61 2.035 . S
O67 C69 1.258 . S
C68 O62 1.247 . S
C68 O63 1.258 . S
C69 O66 1.247 . S
C69 O67 1.258 . S
C70 O72 1.247 . S
C70 O74 1.258 . S
C71 O78 1.247 . S
C71 O79 1.258 . S
O72 C70 1.247 . S
O72 Zn73 2.028 . S
Zn73 O72 2.028 . S
Zn73 O77 2.035 . S
Zn73 O79 2.035 . S
Zn73 O80 2.028 . S
O74 C70 1.258 . S
O74 Zn75 2.035 . S
Zn75 O74 2.035 . S
Zn75 O76 2.028 . S
Zn75 O78 2.028 . S
Zn75 O81 2.035 . S
O76 Zn75 2.028 . S
O76 C82 1.247 . S
O77 Zn73 2.035 . S
O77 C82 1.258 . S
O78 C71 1.247 . S
O78 Zn75 2.028 . S
O79 C71 1.258 . S
O79 Zn73 2.035 . S
O80 Zn73 2.028 . S
O80 C83 1.247 . S
O81 Zn75 2.035 . S
O81 C83 1.258 . S
C82 O76 1.247 . S
C82 O77 1.258 . S
C83 O80 1.247 . S
C83 O81 1.258 . S
C84 O96 1.241 . S
C84 O97 1.280 . S
C85 O98 1.277 . S
C85 O99 1.245 . S
C86 O110 1.247 . S
C86 O112 1.289 . S
Mg87 O88 1.909 . S
Mg87 O97 1.963 1_455 S
Mg87 O99 2.021 . S
Mg87 O100 2.044 1_455 S
O88 Mg87 1.909 . S
O88 Mg89 1.986 . S
O88 Mg90 1.917 . S
Mg89 O88 1.986 . S
Mg89 O96 2.042 1_455 S
Mg89 O98 2.041 . S
Mg89 O104 2.038 1_455 S
Mg89 O112 2.238 . S
Mg90 O88 1.917 . S
Mg90 O91 1.917 . S
Mg90 O101 2.106 1_455 S
Mg90 O103 2.079 1_455 S
Mg90 O112 2.106 . S
Mg90 O113 2.079 . S
O91 Mg90 1.917 . S
O91 Mg92 1.926 . S
O91 Mg93 1.986 . S
Mg92 O91 1.926 . S
Mg92 O106 1.984 . S
Mg92 O109 1.988 1_455 S
Mg92 O110 2.061 . S
Mg93 O91 1.986 . S
Mg93 O101 2.238 1_455 S
Mg93 O105 2.042 . S
Mg93 O107 2.041 1_455 S
Mg93 O114 2.038 . S
C94 O100 1.247 . S
C94 O101 1.289 . S
C95 O113 1.245 . S
C95 O114 1.274 . S
O96 C84 1.241 . S
O96 Mg89 2.042 1_655 S
O97 C84 1.280 . S
O97 Mg87 1.963 1_655 S
O98 C85 1.277 . S
O98 Mg89 2.041 . S
O99 C85 1.245 . S
O99 Mg87 2.021 . S
O100 Mg87 2.044 1_655 S
O100 C94 1.247 . S
O101 Mg90 2.106 1_655 S
O101 Mg93 2.238 1_655 S
O101 C94 1.289 . S
C102 O103 1.245 . S
C102 O104 1.274 . S
O103 Mg90 2.079 1_655 S
O103 C102 1.245 . S
O104 Mg89 2.038 1_655 S
O104 C102 1.274 . S
O105 Mg93 2.042 . S
O105 C108 1.241 . S
O106 Mg92 1.984 . S
O106 C108 1.280 . S
O107 Mg93 2.041 1_655 S
O107 C111 1.277 . S
C108 O105 1.241 . S
C108 O106 1.280 . S
O109 Mg92 1.988 1_655 S
O109 C111 1.245 . S
O110 C86 1.247 . S
O110 Mg92 2.061 . S
C111 O107 1.277 . S
C111 O109 1.245 . S
O112 C86 1.289 . S
O112 Mg89 2.238 . S
O112 Mg90 2.106 . S
O113 Mg90 2.079 . S
O113 C95 1.245 . S
O114 Mg93 2.038 . S
O114 C95 1.274 . S
C115 O127 1.241 . S
C115 O128 1.280 . S
C116 O129 1.277 . S
C116 O130 1.245 . S
C117 O141 1.247 . S
C117 O143 1.289 . S
Mg118 O119 1.926 . S
Mg118 O128 1.984 . S
Mg118 O130 1.988 1_545 S
Mg118 O131 2.061 . S
O119 Mg118 1.926 . S
O119 Mg120 1.986 . S
O119 Mg121 1.917 . S
Mg120 O119 1.986 . S
Mg120 O127 2.042 . S
Mg120 O129 2.041 1_545 S
Mg120 O135 2.038 . S
Mg120 O143 2.238 1_545 S
Mg121 O119 1.917 . S
Mg121 O122 1.917 1_545 S
Mg121 O132 2.106 . S
Mg121 O134 2.079 . S
Mg121 O143 2.106 1_545 S
Mg121 O144 2.079 1_545 S
O122 Mg121 1.917 1_565 S
O122 Mg123 1.926 . S
O122 Mg124 1.986 1_565 S
Mg123 O122 1.926 . S
Mg123 O137 1.984 . S
Mg123 O140 1.988 1_565 S
Mg123 O141 2.061 . S
Mg124 O122 1.986 1_545 S
Mg124 O132 2.238 . S
Mg124 O136 2.042 1_545 S
Mg124 O138 2.041 . S
Mg124 O145 2.038 1_545 S
C125 O131 1.247 . S
C125 O132 1.289 . S
C126 O144 1.245 . S
C126 O145 1.274 . S
O127 C115 1.241 . S
O127 Mg120 2.042 . S
O128 C115 1.280 . S
O128 Mg118 1.984 . S
O129 C116 1.277 . S
O129 Mg120 2.041 1_565 S
O130 C116 1.245 . S
O130 Mg118 1.988 1_565 S
O131 Mg118 2.061 . S
O131 C125 1.247 . S
O132 Mg121 2.106 . S
O132 Mg124 2.238 . S
O132 C125 1.289 . S
C133 O134 1.245 . S
C133 O135 1.274 . S
O134 Mg121 2.079 . S
O134 C133 1.245 . S
O135 Mg120 2.038 . S
O135 C133 1.274 . S
O136 Mg124 2.042 1_565 S
O136 C139 1.241 . S
O137 Mg123 1.984 . S
O137 C139 1.280 . S
O138 Mg124 2.041 . S
O138 C142 1.277 . S
C139 O136 1.241 . S
C139 O137 1.280 . S
O140 Mg123 1.988 1_545 S
O140 C142 1.245 . S
O141 C117 1.247 . S
O141 Mg123 2.061 . S
C142 O138 1.277 . S
C142 O140 1.245 . S
O143 C117 1.289 . S
O143 Mg120 2.238 1_565 S
O143 Mg121 2.106 1_565 S
O144 Mg121 2.079 1_565 S
O144 C126 1.245 . S
O145 Mg124 2.038 1_565 S
O145 C126 1.274 . S
C146 O158 1.241 . S
C146 O159 1.280 . S
C147 O160 1.277 . S
C147 O161 1.245 . S
C148 O172 1.247 . S
C148 O174 1.289 . S
Mg149 O150 1.926 . S
Mg149 O159 1.984 . S
Mg149 O161 1.988 . S
Mg149 O162 2.061 . S
O150 Mg149 1.926 . S
O150 Mg151 1.986 . S
O150 Mg152 1.917 . S
Mg151 O150 1.986 . S
Mg151 O158 2.042 . S
Mg151 O160 2.041 . S
Mg151 O166 2.038 . S
Mg151 O174 2.238 . S
Mg152 O150 1.917 . S
Mg152 O153 1.917 . S
Mg152 O163 2.106 . S
Mg152 O165 2.079 . S
Mg152 O174 2.106 . S
Mg152 O175 2.079 . S
O153 Mg152 1.917 . S
O153 Mg154 1.926 . S
O153 Mg155 1.986 . S
Mg154 O153 1.926 . S
Mg154 O168 1.984 . S
Mg154 O171 1.988 . S
Mg154 O172 2.061 . S
Mg155 O153 1.986 . S
Mg155 O163 2.238 . S
Mg155 O167 2.042 . S
Mg155 O169 2.041 . S
Mg155 O176 2.038 . S
C156 O162 1.247 . S
C156 O163 1.289 . S
C157 O175 1.245 . S
C157 O176 1.274 . S
O158 C146 1.241 . S
O158 Mg151 2.042 . S
O159 C146 1.280 . S
O159 Mg149 1.984 . S
O160 C147 1.277 . S
O160 Mg151 2.041 . S
O161 C147 1.245 . S
O161 Mg149 1.988 . S
O162 Mg149 2.061 . S
O162 C156 1.247 . S
O163 Mg152 2.106 . S
O163 Mg155 2.238 . S
O163 C156 1.289 . S
C164 O165 1.245 . S
C164 O166 1.274 . S
O165 Mg152 2.079 . S
O165 C164 1.245 . S
O166 Mg151 2.038 . S
O166 C164 1.274 . S
O167 Mg155 2.042 . S
O167 C170 1.241 . S
O168 Mg154 1.984 . S
O168 C170 1.280 . S
O169 Mg155 2.041 . S
O169 C173 1.277 . S
C170 O167 1.241 . S
C170 O168 1.280 . S
O171 Mg154 1.988 . S
O171 C173 1.245 . S
O172 C148 1.247 . S
O172 Mg154 2.061 . S
C173 O169 1.277 . S
C173 O171 1.245 . S
O174 C148 1.289 . S
O174 Mg151 2.238 . S
O174 Mg152 2.106 . S
O175 Mg152 2.079 . S
O175 C157 1.245 . S
O176 Mg155 2.038 . S
O176 C157 1.274 . S
C177 C178 1.349 . S
C177 C179 1.327 . S
C177 H202 0.950 . S
C178 C177 1.349 . S
C178 C194 1.349 . S
C179 C177 1.327 . S
C179 C198 1.429 . S
C179 H203 0.950 . S
C180 C197 1.574 . S
C180 C199 1.368 . S
C180 H204 0.949 . S
H181 C185 0.949 . S
C182 C183 1.349 . S
C182 C184 1.327 . S
C182 H205 0.950 . S
C183 C182 1.349 . S
C183 C195 1.349 . S
C184 C182 1.327 . S
C184 C200 1.429 . S
C184 H206 0.950 . S
C185 H181 0.949 . S
C185 C193 1.574 . S
C185 C201 1.368 . S
H186 C194 0.950 . S
H187 C192 0.950 . S
H188 C193 0.949 . S
H189 C195 0.950 . S
H190 C196 0.950 . S
H191 C197 0.949 . S
C192 H187 0.950 . S
C192 C194 1.327 . S
C192 C198 1.429 . S
C193 C185 1.574 . S
C193 H188 0.949 . S
C193 C199 1.368 . S
C194 C178 1.349 . S
C194 H186 0.950 . S
C194 C192 1.327 . S
C195 C183 1.349 . S
C195 H189 0.950 . S
C195 C196 1.327 . S
C196 H190 0.950 . S
C196 C195 1.327 . S
C196 C200 1.429 . S
C197 C180 1.574 . S
C197 H191 0.949 . S
C197 C201 1.368 . S
C198 C179 1.429 . S
C198 C192 1.429 . S
C198 C199 1.523 . S
C199 C180 1.368 . S
C199 C193 1.368 . S
C199 C198 1.523 . S
C200 C184 1.429 . S
C200 C196 1.429 . S
C200 C201 1.523 . S
C201 C185 1.368 . S
C201 C197 1.368 . S
C201 C200 1.523 . S
H202 C177 0.950 . S
H203 C179 0.950 . S
H204 C180 0.949 . S
H205 C182 0.950 . S
H206 C184 0.950 . S
C207 C208 1.349 . S
C207 C209 1.327 . S
C207 H232 0.950 . S
C208 C207 1.349 . S
C208 C224 1.349 . S
C209 C207 1.327 . S
C209 C228 1.429 . S
C209 H233 0.950 . S
C210 C227 1.574 . S
C210 C229 1.368 . S
C210 H234 0.949 . S
H211 C215 0.949 . S
C212 C213 1.349 . S
C212 C214 1.327 . S
C212 H235 0.950 . S
C213 C212 1.349 . S
C213 C225 1.349 . S
C214 C212 1.327 . S
C214 C230 1.429 . S
C214 H236 0.950 . S
C215 H211 0.949 . S
C215 C223 1.574 . S
C215 C231 1.368 . S
H216 C224 0.950 . S
H217 C222 0.950 . S
H218 C223 0.949 . S
H219 C225 0.950 . S
H220 C226 0.950 . S
H221 C227 0.949 . S
C222 H217 0.950 . S
C222 C224 1.327 . S
C222 C228 1.429 . S
C223 C215 1.574 . S
C223 H218 0.949 . S
C223 C229 1.368 . S
C224 C208 1.349 . S
C224 H216 0.950 . S
C224 C222 1.327 . S
C225 C213 1.349 . S
C225 H219 0.950 . S
C225 C226 1.327 . S
C226 H220 0.950 . S
C226 C225 1.327 . S
C226 C230 1.429 . S
C227 C210 1.574 . S
C227 H221 0.949 . S
C227 C231 1.368 . S
C228 C209 1.429 . S
C228 C222 1.429 . S
C228 C229 1.523 . S
C229 C210 1.368 . S
C229 C223 1.368 . S
C229 C228 1.523 . S
C230 C214 1.429 . S
C230 C226 1.429 . S
C230 C231 1.523 . S
C231 C215 1.368 . S
C231 C227 1.368 . S
C231 C230 1.523 . S
H232 C207 0.950 . S
H233 C209 0.950 . S
H234 C210 0.949 . S
H235 C212 0.950 . S
H236 C214 0.950 . S
C237 C238 1.349 . S
C237 C239 1.327 . S
C237 H262 0.950 . S
C238 C237 1.349 . S
C238 C254 1.349 . S
C239 C237 1.327 . S
C239 C258 1.429 . S
C239 H263 0.950 . S
C240 C257 1.574 . S
C240 C259 1.368 . S
C240 H264 0.949 . S
H241 C245 0.949 . S
C242 C243 1.349 . S
C242 C244 1.327 . S
C242 H265 0.950 . S
C243 C242 1.349 . S
C243 C255 1.349 . S
C244 C242 1.327 . S
C244 C260 1.429 . S
C244 H266 0.950 . S
C245 H241 0.949 . S
C245 C253 1.574 . S
C245 C261 1.368 . S
H246 C254 0.950 . S
H247 C252 0.950 . S
H248 C253 0.949 . S
H249 C255 0.950 . S
H250 C256 0.950 . S
H251 C257 0.949 . S
C252 H247 0.950 . S
C252 C254 1.327 . S
C252 C258 1.429 . S
C253 C245 1.574 . S
C253 H248 0.949 . S
C253 C259 1.368 . S
C254 C238 1.349 . S
C254 H246 0.950 . S
C254 C252 1.327 . S
C255 C243 1.349 . S
C255 H249 0.950 . S
C255 C256 1.327 . S
C256 H250 0.950 . S
C256 C255 1.327 . S
C256 C260 1.429 . S
C257 C240 1.574 . S
C257 H251 0.949 . S
C257 C261 1.368 . S
C258 C239 1.429 . S
C258 C252 1.429 . S
C258 C259 1.523 . S
C259 C240 1.368 . S
C259 C253 1.368 . S
C259 C258 1.523 . S
C260 C244 1.429 . S
C260 C256 1.429 . S
C260 C261 1.523 . S
C261 C245 1.368 . S
C261 C257 1.368 . S
C261 C260 1.523 . S
H262 C237 0.950 . S
H263 C239 0.950 . S
H264 C240 0.949 . S
H265 C242 0.950 . S
H266 C244 0.950 . S
C267 C268 1.349 . S
C267 C269 1.327 . S
C267 H292 0.950 . S
C268 C267 1.349 . S
C268 C284 1.349 . S
C269 C267 1.327 . S
C269 C288 1.429 . S
C269 H293 0.950 . S
C270 C287 1.574 . S
C270 C289 1.368 . S
C270 H294 0.949 . S
H271 C275 0.949 . S
C272 C273 1.349 . S
C272 C274 1.327 . S
C272 H295 0.950 . S
C273 C272 1.349 . S
C273 C285 1.349 . S
C274 C272 1.327 . S
C274 C290 1.429 . S
C274 H296 0.950 . S
C275 H271 0.949 . S
C275 C283 1.574 . S
C275 C291 1.368 . S
H276 C284 0.950 . S
H277 C282 0.950 . S
H278 C283 0.949 . S
H279 C285 0.950 . S
H280 C286 0.950 . S
H281 C287 0.949 . S
C282 H277 0.950 . S
C282 C284 1.327 . S
C282 C288 1.429 . S
C283 C275 1.574 . S
C283 H278 0.949 . S
C283 C289 1.368 . S
C284 C268 1.349 . S
C284 H276 0.950 . S
C284 C282 1.327 . S
C285 C273 1.349 . S
C285 H279 0.950 . S
C285 C286 1.327 . S
C286 H280 0.950 . S
C286 C285 1.327 . S
C286 C290 1.429 . S
C287 C270 1.574 . S
C287 H281 0.949 . S
C287 C291 1.368 . S
C288 C269 1.429 . S
C288 C282 1.429 . S
C288 C289 1.523 . S
C289 C270 1.368 . S
C289 C283 1.368 . S
C289 C288 1.523 . S
C290 C274 1.429 . S
C290 C286 1.429 . S
C290 C291 1.523 . S
C291 C275 1.368 . S
C291 C287 1.368 . S
C291 C290 1.523 . S
H292 C267 0.950 . S
H293 C269 0.950 . S
H294 C270 0.949 . S
H295 C272 0.950 . S
H296 C274 0.950 . S
C297 C298 1.349 . S
C297 C299 1.327 . S
C297 H322 0.950 . S
C298 C297 1.349 . S
C298 C314 1.349 . S
C299 C297 1.327 . S
C299 C318 1.429 . S
C299 H323 0.950 . S
C300 C317 1.574 . S
C300 C319 1.368 . S
C300 H324 0.949 . S
H301 C305 0.949 . S
C302 C303 1.349 . S
C302 C304 1.327 . S
C302 H325 0.950 . S
C303 C302 1.349 . S
C303 C315 1.349 . S
C304 C302 1.327 . S
C304 C320 1.429 . S
C304 H326 0.950 . S
C305 H301 0.949 . S
C305 C313 1.574 . S
C305 C321 1.368 . S
H306 C314 0.950 . S
H307 C312 0.950 . S
H308 C313 0.949 . S
H309 C315 0.950 . S
H310 C316 0.950 . S
H311 C317 0.949 . S
C312 H307 0.950 . S
C312 C314 1.327 . S
C312 C318 1.429 . S
C313 C305 1.574 . S
C313 H308 0.949 . S
C313 C319 1.368 . S
C314 C298 1.349 . S
C314 H306 0.950 . S
C314 C312 1.327 . S
C315 C303 1.349 . S
C315 H309 0.950 . S
C315 C316 1.327 . S
C316 H310 0.950 . S
C316 C315 1.327 . S
C316 C320 1.429 . S
C317 C300 1.574 . S
C317 H311 0.949 . S
C317 C321 1.368 . S
C318 C299 1.429 . S
C318 C312 1.429 . S
C318 C319 1.523 . S
C319 C300 1.368 . S
C319 C313 1.368 . S
C319 C318 1.523 . S
C320 C304 1.429 . S
C320 C316 1.429 . S
C320 C321 1.523 . S
C321 C305 1.368 . S
C321 C317 1.368 . S
C321 C320 1.523 . S
H322 C297 0.950 . S
H323 C299 0.950 . S
H324 C300 0.949 . S
H325 C302 0.950 . S
H326 C304 0.950 . S
C327 C328 1.349 . S
C327 C329 1.327 . S
C327 H352 0.950 . S
C328 C327 1.349 . S
C328 C344 1.349 . S
C329 C327 1.327 . S
C329 C348 1.429 . S
C329 H353 0.950 . S
C330 C347 1.574 . S
C330 C349 1.368 . S
C330 H354 0.949 . S
H331 C335 0.949 . S
C332 C333 1.349 . S
C332 C334 1.327 . S
C332 H355 0.950 . S
C333 C332 1.349 . S
C333 C345 1.349 . S
C334 C332 1.327 . S
C334 C350 1.429 . S
C334 H356 0.950 . S
C335 H331 0.949 . S
C335 C343 1.574 . S
C335 C351 1.368 . S
H336 C344 0.950 . S
H337 C342 0.950 . S
H338 C343 0.949 . S
H339 C345 0.950 . S
H340 C346 0.950 . S
H341 C347 0.949 . S
C342 H337 0.950 . S
C342 C344 1.327 . S
C342 C348 1.429 . S
C343 C335 1.574 . S
C343 H338 0.949 . S
C343 C349 1.368 . S
C344 C328 1.349 . S
C344 H336 0.950 . S
C344 C342 1.327 . S
C345 C333 1.349 . S
C345 H339 0.950 . S
C345 C346 1.327 . S
C346 H340 0.950 . S
C346 C345 1.327 . S
C346 C350 1.429 . S
C347 C330 1.574 . S
C347 H341 0.949 . S
C347 C351 1.368 . S
C348 C329 1.429 . S
C348 C342 1.429 . S
C348 C349 1.523 . S
C349 C330 1.368 . S
C349 C343 1.368 . S
C349 C348 1.523 . S
C350 C334 1.429 . S
C350 C346 1.429 . S
C350 C351 1.523 . S
C351 C335 1.368 . S
C351 C347 1.368 . S
C351 C350 1.523 . S
H352 C327 0.950 . S
H353 C329 0.950 . S
H354 C330 0.949 . S
H355 C332 0.950 . S
H356 C334 0.950 . S
C357 C358 1.349 . S
C357 C359 1.327 . S
C357 H382 0.950 . S
C358 C357 1.349 . S
C358 C374 1.349 . S
C359 C357 1.327 . S
C359 C378 1.429 . S
C359 H383 0.950 . S
C360 C377 1.574 . S
C360 C379 1.368 . S
C360 H384 0.949 . S
H361 C365 0.949 . S
C362 C363 1.349 . S
C362 C364 1.327 . S
C362 H385 0.950 . S
C363 C362 1.349 . S
C363 C375 1.349 . S
C364 C362 1.327 . S
C364 C380 1.429 . S
C364 H386 0.950 . S
C365 H361 0.949 . S
C365 C373 1.574 . S
C365 C381 1.368 . S
H366 C374 0.950 . S
H367 C372 0.950 . S
H368 C373 0.949 . S
H369 C375 0.950 . S
H370 C376 0.950 . S
H371 C377 0.949 . S
C372 H367 0.950 . S
C372 C374 1.327 . S
C372 C378 1.429 . S
C373 C365 1.574 . S
C373 H368 0.949 . S
C373 C379 1.368 . S
C374 C358 1.349 . S
C374 H366 0.950 . S
C374 C372 1.327 . S
C375 C363 1.349 . S
C375 H369 0.950 . S
C375 C376 1.327 . S
C376 H370 0.950 . S
C376 C375 1.327 . S
C376 C380 1.429 . S
C377 C360 1.574 . S
C377 H371 0.949 . S
C377 C381 1.368 . S
C378 C359 1.429 . S
C378 C372 1.429 . S
C378 C379 1.523 . S
C379 C360 1.368 . S
C379 C373 1.368 . S
C379 C378 1.523 . S
C380 C364 1.429 . S
C380 C376 1.429 . S
C380 C381 1.523 . S
C381 C365 1.368 . S
C381 C377 1.368 . S
C381 C380 1.523 . S
H382 C357 0.950 . S
H383 C359 0.950 . S
H384 C360 0.949 . S
H385 C362 0.950 . S
H386 C364 0.950 . S
C387 C388 1.349 . S
C387 C389 1.327 . S
C387 H412 0.950 . S
C388 C387 1.349 . S
C388 C404 1.349 . S
C389 C387 1.327 . S
C389 C408 1.429 . S
C389 H413 0.950 . S
C390 C407 1.574 . S
C390 C409 1.368 . S
C390 H414 0.949 . S
H391 C395 0.949 . S
C392 C393 1.349 . S
C392 C394 1.327 . S
C392 H415 0.950 . S
C393 C392 1.349 . S
C393 C405 1.349 . S
C394 C392 1.327 . S
C394 C410 1.429 . S
C394 H416 0.950 . S
C395 H391 0.949 . S
C395 C403 1.574 . S
C395 C411 1.368 . S
H396 C404 0.950 . S
H397 C402 0.950 . S
H398 C403 0.949 . S
H399 C405 0.950 . S
H400 C406 0.950 . S
H401 C407 0.949 . S
C402 H397 0.950 . S
C402 C404 1.327 . S
C402 C408 1.429 . S
C403 C395 1.574 . S
C403 H398 0.949 . S
C403 C409 1.368 . S
C404 C388 1.349 . S
C404 H396 0.950 . S
C404 C402 1.327 . S
C405 C393 1.349 . S
C405 H399 0.950 . S
C405 C406 1.327 . S
C406 H400 0.950 . S
C406 C405 1.327 . S
C406 C410 1.429 . S
C407 C390 1.574 . S
C407 H401 0.949 . S
C407 C411 1.368 . S
C408 C389 1.429 . S
C408 C402 1.429 . S
C408 C409 1.523 . S
C409 C390 1.368 . S
C409 C403 1.368 . S
C409 C408 1.523 . S
C410 C394 1.429 . S
C410 C406 1.429 . S
C410 C411 1.523 . S
C411 C395 1.368 . S
C411 C407 1.368 . S
C411 C410 1.523 . S
H412 C387 0.950 . S
H413 C389 0.950 . S
H414 C390 0.949 . S
H415 C392 0.950 . S
H416 C394 0.950 . S
C417 C418 1.349 1_554 S
C417 C419 1.327 1_554 S
C417 H442 0.950 . S
C418 C417 1.349 1_556 S
C418 C434 1.349 . S
C419 C417 1.327 1_556 S
C419 C438 1.429 . S
C419 H443 0.950 . S
C420 C437 1.574 . S
C420 C439 1.368 . S
C420 H444 0.949 . S
H421 C425 0.949 . S
C422 C423 1.349 . S
C422 C424 1.327 . S
C422 H445 0.950 . S
C423 C422 1.349 . S
C423 C435 1.349 . S
C424 C422 1.327 . S
C424 C440 1.429 . S
C424 H446 0.950 . S
C425 H421 0.949 . S
C425 C433 1.574 . S
C425 C441 1.368 . S
H426 C434 0.950 . S
H427 C432 0.950 . S
H428 C433 0.949 . S
H429 C435 0.950 . S
H430 C436 0.950 . S
H431 C437 0.949 . S
C432 H427 0.950 . S
C432 C434 1.327 . S
C432 C438 1.429 . S
C433 C425 1.574 . S
C433 H428 0.949 . S
C433 C439 1.368 . S
C434 C418 1.349 . S
C434 H426 0.950 . S
C434 C432 1.327 . S
C435 C423 1.349 . S
C435 H429 0.950 . S
C435 C436 1.327 . S
C436 H430 0.950 . S
C436 C435 1.327 . S
C436 C440 1.429 . S
C437 C420 1.574 . S
C437 H431 0.949 . S
C437 C441 1.368 . S
C438 C419 1.429 . S
C438 C432 1.429 . S
C438 C439 1.523 . S
C439 C420 1.368 . S
C439 C433 1.368 . S
C439 C438 1.523 . S
C440 C424 1.429 . S
C440 C436 1.429 . S
C440 C441 1.523 . S
C441 C425 1.368 . S
C441 C437 1.368 . S
C441 C440 1.523 . S
H442 C417 0.950 . S
H443 C419 0.950 . S
H444 C420 0.949 . S
H445 C422 0.950 . S
H446 C424 0.950 . S
C447 C448 1.349 . S
C447 C449 1.327 . S
C447 H472 0.950 . S
C448 C447 1.349 . S
C448 C464 1.349 . S
C449 C447 1.327 . S
C449 C468 1.429 . S
C449 H473 0.950 . S
C450 C467 1.574 . S
C450 C469 1.368 . S
C450 H474 0.949 . S
H451 C455 0.949 . S
C452 C453 1.349 . S
C452 C454 1.327 . S
C452 H475 0.950 . S
C453 C452 1.349 . S
C453 C465 1.349 . S
C454 C452 1.327 . S
C454 C470 1.429 . S
C454 H476 0.950 . S
C455 H451 0.949 . S
C455 C463 1.574 . S
C455 C471 1.368 . S
H456 C464 0.950 . S
H457 C462 0.950 1_556 S
H458 C463 0.949 1_554 S
H459 C465 0.950 . S
H460 C466 0.950 . S
H461 C467 0.949 . S
C462 H457 0.950 1_554 S
C462 C464 1.327 . S
C462 C468 1.429 . S
C463 C455 1.574 . S
C463 H458 0.949 1_556 S
C463 C469 1.368 . S
C464 C448 1.349 . S
C464 H456 0.950 . S
C464 C462 1.327 . S
C465 C453 1.349 . S
C465 H459 0.950 . S
C465 C466 1.327 . S
C466 H460 0.950 . S
C466 C465 1.327 . S
C466 C470 1.429 . S
C467 C450 1.574 . S
C467 H461 0.949 . S
C467 C471 1.368 . S
C468 C449 1.429 . S
C468 C462 1.429 . S
C468 C469 1.523 1_554 S
C469 C450 1.368 . S
C469 C463 1.368 . S
C469 C468 1.523 1_556 S
C470 C454 1.429 . S
C470 C466 1.429 . S
C470 C471 1.523 . S
C471 C455 1.368 . S
C471 C467 1.368 . S
C471 C470 1.523 . S
H472 C447 0.950 . S
H473 C449 0.950 . S
H474 C450 0.949 . S
H475 C452 0.950 . S
H476 C454 0.950 . S
C477 C478 1.349 1_556 S
C477 C479 1.327 . S
C477 H502 0.950 . S
C478 C477 1.349 1_554 S
C478 C494 1.349 . S
C479 C477 1.327 . S
C479 C498 1.429 . S
C479 H503 0.950 . S
C480 C497 1.574 . S
C480 C499 1.368 . S
C480 H504 0.949 . S
H481 C485 0.949 . S
C482 C483 1.349 . S
C482 C484 1.327 . S
C482 H505 0.950 . S
C483 C482 1.349 . S
C483 C495 1.349 . S
C484 C482 1.327 . S
C484 C500 1.429 . S
C484 H506 0.950 . S
C485 H481 0.949 . S
C485 C493 1.574 . S
C485 C501 1.368 . S
H486 C494 0.950 . S
H487 C492 0.950 . S
H488 C493 0.949 . S
H489 C495 0.950 . S
H490 C496 0.950 . S
H491 C497 0.949 . S
C492 H487 0.950 . S
C492 C494 1.327 . S
C492 C498 1.429 1_554 S
C493 C485 1.574 . S
C493 H488 0.949 . S
C493 C499 1.368 . S
C494 C478 1.349 . S
C494 H486 0.950 . S
C494 C492 1.327 . S
C495 C483 1.349 . S
C495 H489 0.950 . S
C495 C496 1.327 . S
C496 H490 0.950 . S
C496 C495 1.327 . S
C496 C500 1.429 . S
C497 C480 1.574 . S
C497 H491 0.949 . S
C497 C501 1.368 . S
C498 C479 1.429 . S
C498 C492 1.429 1_556 S
C498 C499 1.523 . S
C499 C480 1.368 . S
C499 C493 1.368 . S
C499 C498 1.523 . S
C500 C484 1.429 . S
C500 C496 1.429 . S
C500 C501 1.523 . S
C501 C485 1.368 . S
C501 C497 1.368 . S
C501 C500 1.523 . S
H502 C477 0.950 . S
H503 C479 0.950 . S
H504 C480 0.949 . S
H505 C482 0.950 . S
H506 C484 0.950 . S
C507 C508 1.349 . S
C507 C509 1.327 . S
C507 H532 0.950 . S
C508 C507 1.349 . S
C508 C524 1.349 1_554 S
C509 C507 1.327 . S
C509 C528 1.429 1_554 S
C509 H533 0.950 . S
C510 C527 1.574 . S
C510 C529 1.368 . S
C510 H534 0.949 . S
H511 C515 0.949 . S
C512 C513 1.349 . S
C512 C514 1.327 . S
C512 H535 0.950 . S
C513 C512 1.349 . S
C513 C525 1.349 . S
C514 C512 1.327 . S
C514 C530 1.429 . S
C514 H536 0.950 . S
C515 H511 0.949 . S
C515 C523 1.574 . S
C515 C531 1.368 . S
H516 C524 0.950 . S
H517 C522 0.950 . S
H518 C523 0.949 . S
H519 C525 0.950 . S
H520 C526 0.950 . S
H521 C527 0.949 . S
C522 H517 0.950 . S
C522 C524 1.327 . S
C522 C528 1.429 . S
C523 C515 1.574 . S
C523 H518 0.949 . S
C523 C529 1.368 . S
C524 C508 1.349 1_556 S
C524 H516 0.950 . S
C524 C522 1.327 . S
C525 C513 1.349 . S
C525 H519 0.950 . S
C525 C526 1.327 . S
C526 H520 0.950 . S
C526 C525 1.327 . S
C526 C530 1.429 . S
C527 C510 1.574 . S
C527 H521 0.949 . S
C527 C531 1.368 . S
C528 C509 1.429 1_556 S
C528 C522 1.429 . S
C528 C529 1.523 . S
C529 C510 1.368 . S
C529 C523 1.368 . S
C529 C528 1.523 . S
C530 C514 1.429 . S
C530 C526 1.429 . S
C530 C531 1.523 . S
C531 C515 1.368 . S
C531 C527 1.368 . S
C531 C530 1.523 . S
H532 C507 0.950 . S
H533 C509 0.950 . S
H534 C510 0.949 . S
H535 C512 0.950 . S
H536 C514 0.950 . S
C537 C538 1.349 . S
C537 C539 1.327 . S
C537 H562 0.950 . S
C538 C537 1.349 . S
C538 C554 1.349 . S
C539 C537 1.327 . S
C539 C558 1.429 . S
C539 H563 0.950 . S
C540 C557 1.574 . S
C540 C559 1.368 . S
C540 H564 0.949 . S
H541 C545 0.949 . S
C542 C543 1.349 . S
C542 C544 1.327 . S
C542 H565 0.950 . S
C543 C542 1.349 . S
C543 C555 1.349 . S
C544 C542 1.327 . S
C544 C560 1.429 . S
C544 H566 0.950 . S
C545 H541 0.949 . S
C545 C553 1.574 . S
C545 C561 1.368 . S
H546 C554 0.950 . S
H547 C552 0.950 . S
H548 C553 0.949 . S
H549 C555 0.950 . S
H550 C556 0.950 . S
H551 C557 0.949 . S
C552 H547 0.950 . S
C552 C554 1.327 . S
C552 C558 1.429 . S
C553 C545 1.574 . S
C553 H548 0.949 . S
C553 C559 1.368 . S
C554 C538 1.349 . S
C554 H546 0.950 . S
C554 C552 1.327 . S
C555 C543 1.349 . S
C555 H549 0.950 . S
C555 C556 1.327 . S
C556 H550 0.950 . S
C556 C555 1.327 . S
C556 C560 1.429 . S
C557 C540 1.574 . S
C557 H551 0.949 . S
C557 C561 1.368 . S
C558 C539 1.429 . S
C558 C552 1.429 . S
C558 C559 1.523 . S
C559 C540 1.368 . S
C559 C553 1.368 . S
C559 C558 1.523 . S
C560 C544 1.429 . S
C560 C556 1.429 . S
C560 C561 1.523 . S
C561 C545 1.368 . S
C561 C557 1.368 . S
C561 C560 1.523 . S
H562 C537 0.950 . S
H563 C539 0.950 . S
H564 C540 0.949 . S
H565 C542 0.950 . S
H566 C544 0.950 . S
C567 C568 1.349 . S
C567 C569 1.327 . S
C567 H592 0.950 . S
C568 C567 1.349 . S
C568 C584 1.349 1_556 S
C569 C567 1.327 . S
C569 C588 1.429 . S
C569 H593 0.950 . S
C570 C587 1.574 . S
C570 C589 1.368 . S
C570 H594 0.949 . S
H571 C575 0.949 . S
C572 C573 1.349 . S
C572 C574 1.327 . S
C572 H595 0.950 . S
C573 C572 1.349 . S
C573 C585 1.349 . S
C574 C572 1.327 . S
C574 C590 1.429 . S
C574 H596 0.950 . S
C575 H571 0.949 . S
C575 C583 1.574 . S
C575 C591 1.368 . S
H576 C584 0.950 . S
H577 C582 0.950 . S
H578 C583 0.949 . S
H579 C585 0.950 . S
H580 C586 0.950 . S
H581 C587 0.949 . S
C582 H577 0.950 . S
C582 C584 1.327 1_556 S
C582 C588 1.429 . S
C583 C575 1.574 . S
C583 H578 0.949 . S
C583 C589 1.368 . S
C584 C568 1.349 1_554 S
C584 H576 0.950 . S
C584 C582 1.327 1_554 S
C585 C573 1.349 . S
C585 H579 0.950 . S
C585 C586 1.327 . S
C586 H580 0.950 . S
C586 C585 1.327 . S
C586 C590 1.429 . S
C587 C570 1.574 . S
C587 H581 0.949 . S
C587 C591 1.368 . S
C588 C569 1.429 . S
C588 C582 1.429 . S
C588 C589 1.523 . S
C589 C570 1.368 . S
C589 C583 1.368 . S
C589 C588 1.523 . S
C590 C574 1.429 . S
C590 C586 1.429 . S
C590 C591 1.523 . S
C591 C575 1.368 . S
C591 C587 1.368 . S
C591 C590 1.523 . S
H592 C567 0.950 . S
H593 C569 0.950 . S
H594 C570 0.949 . S
H595 C572 0.950 . S
H596 C574 0.950 . S
C597 C598 1.349 . S
C597 C599 1.327 . S
C597 H622 0.950 . S
C598 C597 1.349 . S
C598 C614 1.349 . S
C599 C597 1.327 . S
C599 C618 1.429 . S
C599 H623 0.950 1_554 S
C600 C617 1.574 . S
C600 C619 1.368 . S
C600 H624 0.949 1_556 S
H601 C605 0.949 . S
C602 C603 1.349 . S
C602 C604 1.327 . S
C602 H625 0.950 . S
C603 C602 1.349 . S
C603 C615 1.349 . S
C604 C602 1.327 . S
C604 C620 1.429 . S
C604 H626 0.950 . S
C605 H601 0.949 . S
C605 C613 1.574 . S
C605 C621 1.368 . S
H606 C614 0.950 . S
H607 C612 0.950 . S
H608 C613 0.949 . S
H609 C615 0.950 . S
H610 C616 0.950 . S
H611 C617 0.949 . S
C612 H607 0.950 . S
C612 C614 1.327 . S
C612 C618 1.429 . S
C613 C605 1.574 . S
C613 H608 0.949 . S
C613 C619 1.368 . S
C614 C598 1.349 . S
C614 H606 0.950 . S
C614 C612 1.327 . S
C615 C603 1.349 . S
C615 H609 0.950 . S
C615 C616 1.327 . S
C616 H610 0.950 . S
C616 C615 1.327 . S
C616 C620 1.429 . S
C617 C600 1.574 . S
C617 H611 0.949 . S
C617 C621 1.368 . S
C618 C599 1.429 . S
C618 C612 1.429 . S
C618 C619 1.523 1_554 S
C619 C600 1.368 . S
C619 C613 1.368 . S
C619 C618 1.523 1_556 S
C620 C604 1.429 . S
C620 C616 1.429 . S
C620 C621 1.523 . S
C621 C605 1.368 . S
C621 C617 1.368 . S
C621 C620 1.523 . S
H622 C597 0.950 . S
H623 C599 0.950 1_556 S
H624 C600 0.949 1_554 S
H625 C602 0.950 . S
H626 C604 0.950 . S
C627 C628 1.349 . S
C627 C629 1.327 1_554 S
C627 H652 0.950 . S
C628 C627 1.349 . S
C628 C644 1.349 . S
C629 C627 1.327 1_556 S
C629 C648 1.429 . S
C629 H653 0.950 . S
C630 C647 1.574 . S
C630 C649 1.368 . S
C630 H654 0.949 . S
H631 C635 0.949 . S
C632 C633 1.349 . S
C632 C634 1.327 . S
C632 H655 0.950 . S
C633 C632 1.349 . S
C633 C645 1.349 . S
C634 C632 1.327 . S
C634 C650 1.429 . S
C634 H656 0.950 . S
C635 H631 0.949 . S
C635 C643 1.574 . S
C635 C651 1.368 . S
H636 C644 0.950 . S
H637 C642 0.950 . S
H638 C643 0.949 . S
H639 C645 0.950 . S
H640 C646 0.950 . S
H641 C647 0.949 . S
C642 H637 0.950 . S
C642 C644 1.327 . S
C642 C648 1.429 1_554 S
C643 C635 1.574 . S
C643 H638 0.949 . S
C643 C649 1.368 . S
C644 C628 1.349 . S
C644 H636 0.950 . S
C644 C642 1.327 . S
C645 C633 1.349 . S
C645 H639 0.950 . S
C645 C646 1.327 . S
C646 H640 0.950 . S
C646 C645 1.327 . S
C646 C650 1.429 . S
C647 C630 1.574 . S
C647 H641 0.949 . S
C647 C651 1.368 . S
C648 C629 1.429 . S
C648 C642 1.429 1_556 S
C648 C649 1.523 . S
C649 C630 1.368 . S
C649 C643 1.368 . S
C649 C648 1.523 . S
C650 C634 1.429 . S
C650 C646 1.429 . S
C650 C651 1.523 . S
C651 C635 1.368 . S
C651 C647 1.368 . S
C651 C650 1.523 . S
H652 C627 0.950 . S
H653 C629 0.950 . S
H654 C630 0.949 . S
H655 C632 0.950 . S
H656 C634 0.950 . S
C657 C658 1.349 . S
C657 C659 1.315 1_554 S
C657 H682 0.950 . S
C658 C657 1.349 . S
C658 C674 1.349 1_554 S
C659 C657 1.315 1_556 S
C659 C678 1.449 . S
C659 H683 0.941 1_556 S
C660 C677 1.574 . S
C660 C679 1.368 . S
C660 H684 0.949 . S
H661 C665 0.949 . S
C662 C663 1.349 . S
C662 C664 1.327 . S
C662 H685 0.950 . S
C663 C662 1.349 . S
C663 C675 1.349 . S
C664 C662 1.327 . S
C664 C680 1.429 . S
C664 H686 0.950 . S
C665 H661 0.949 . S
C665 C673 1.574 . S
C665 C681 1.368 . S
H666 C674 0.950 . S
H667 C672 0.950 . S
H668 C673 0.949 . S
H669 C675 0.950 . S
H670 C676 0.950 . S
H671 C677 0.949 . S
C672 H667 0.950 . S
C672 C674 1.327 . S
C672 C678 1.429 . S
C673 C665 1.574 . S
C673 H668 0.949 . S
C673 C679 1.368 . S
C674 C658 1.349 1_556 S
C674 H666 0.950 . S
C674 C672 1.327 . S
C675 C663 1.349 . S
C675 H669 0.950 . S
C675 C676 1.327 . S
C676 H670 0.950 . S
C676 C675 1.327 . S
C676 C680 1.429 . S
C677 C660 1.574 . S
C677 H671 0.949 . S
C677 C681 1.368 . S
C678 C659 1.449 . S
C678 C672 1.429 . S
C678 C679 1.523 . S
C679 C660 1.368 . S
C679 C673 1.368 . S
C679 C678 1.523 . S
C680 C664 1.429 . S
C680 C676 1.429 . S
C680 C681 1.523 . S
C681 C665 1.368 . S
C681 C677 1.368 . S
C681 C680 1.523 . S
H682 C657 0.950 . S
H683 C659 0.941 1_554 S
H684 C660 0.949 . S
H685 C662 0.950 . S
H686 C664 0.950 . S
C687 C688 1.349 . S
C687 C689 1.327 . S
C687 H712 0.950 . S
C688 C687 1.349 . S
C688 C704 1.349 . S
C689 C687 1.327 . S
C689 C708 1.429 . S
C689 H713 0.950 . S
C690 C707 1.574 . S
C690 C709 1.368 . S
C690 H714 0.949 . S
H691 C695 0.949 . S
C692 C693 1.349 . S
C692 C694 1.327 . S
C692 H715 0.950 . S
C693 C692 1.349 . S
C693 C705 1.349 . S
C694 C692 1.327 . S
C694 C710 1.429 . S
C694 H716 0.950 . S
C695 H691 0.949 . S
C695 C703 1.574 . S
C695 C711 1.368 . S
H696 C704 0.950 . S
H697 C702 0.950 . S
H698 C703 0.949 . S
H699 C705 0.950 . S
H700 C706 0.950 . S
H701 C707 0.949 . S
C702 H697 0.950 . S
C702 C704 1.327 . S
C702 C708 1.429 . S
C703 C695 1.574 . S
C703 H698 0.949 . S
C703 C709 1.368 . S
C704 C688 1.349 . S
C704 H696 0.950 . S
C704 C702 1.327 . S
C705 C693 1.349 . S
C705 H699 0.950 . S
C705 C706 1.327 . S
C706 H700 0.950 . S
C706 C705 1.327 . S
C706 C710 1.429 . S
C707 C690 1.574 . S
C707 H701 0.949 . S
C707 C711 1.368 . S
C708 C689 1.429 . S
C708 C702 1.429 . S
C708 C709 1.523 . S
C709 C690 1.368 . S
C709 C703 1.368 . S
C709 C708 1.523 . S
C710 C694 1.429 . S
C710 C706 1.429 . S
C710 C711 1.523 . S
C711 C695 1.368 . S
C711 C707 1.368 . S
C711 C710 1.523 . S
H712 C687 0.950 . S
H713 C689 0.950 . S
H714 C690 0.949 . S
H715 C692 0.950 . S
H716 C694 0.950 . S
C717 C718 1.349 . S
C717 C719 1.327 . S
C717 H742 0.950 . S
C718 C717 1.349 . S
C718 C734 1.349 . S
C719 C717 1.327 . S
C719 C738 1.429 . S
C719 H743 0.950 . S
C720 C737 1.574 . S
C720 C739 1.368 . S
C720 H744 0.949 . S
H721 C725 0.949 . S
C722 C723 1.349 . S
C722 C724 1.327 . S
C722 H745 0.950 . S
C723 C722 1.349 . S
C723 C735 1.349 . S
C724 C722 1.327 . S
C724 C740 1.429 . S
C724 H746 0.950 . S
C725 H721 0.949 . S
C725 C733 1.574 . S
C725 C741 1.368 . S
H726 C734 0.950 . S
H727 C732 0.950 . S
H728 C733 0.949 . S
H729 C735 0.950 . S
H730 C736 0.950 . S
H731 C737 0.949 . S
C732 H727 0.950 . S
C732 C734 1.327 . S
C732 C738 1.429 . S
C733 C725 1.574 . S
C733 H728 0.949 . S
C733 C739 1.368 . S
C734 C718 1.349 . S
C734 H726 0.950 . S
C734 C732 1.327 . S
C735 C723 1.349 . S
C735 H729 0.950 . S
C735 C736 1.327 . S
C736 H730 0.950 . S
C736 C735 1.327 . S
C736 C740 1.429 . S
C737 C720 1.574 . S
C737 H731 0.949 . S
C737 C741 1.368 . S
C738 C719 1.429 . S
C738 C732 1.429 . S
C738 C739 1.523 . S
C739 C720 1.368 . S
C739 C733 1.368 . S
C739 C738 1.523 . S
C740 C724 1.429 . S
C740 C736 1.429 . S
C740 C741 1.523 . S
C741 C725 1.368 . S
C741 C737 1.368 . S
C741 C740 1.523 . S
H742 C717 0.950 . S
H743 C719 0.950 . S
H744 C720 0.949 . S
H745 C722 0.950 . S
H746 C724 0.950 . S
C747 C748 1.349 . S
C747 C749 1.327 . S
C747 H772 0.950 . S
C748 C747 1.349 . S
C748 C764 1.349 . S
C749 C747 1.327 . S
C749 C768 1.429 . S
C749 H773 0.950 . S
C750 C767 1.574 . S
C750 C769 1.368 . S
C750 H774 0.949 . S
H751 C755 0.949 . S
C752 C753 1.349 . S
C752 C754 1.327 . S
C752 H775 0.950 . S
C753 C752 1.349 . S
C753 C765 1.349 . S
C754 C752 1.327 . S
C754 C770 1.429 . S
C754 H776 0.950 . S
C755 H751 0.949 . S
C755 C763 1.574 . S
C755 C771 1.368 . S
H756 C764 0.950 . S
H757 C762 0.950 . S
H758 C763 0.949 . S
H759 C765 0.950 . S
H760 C766 0.950 . S
H761 C767 0.949 . S
C762 H757 0.950 . S
C762 C764 1.327 . S
C762 C768 1.429 . S
C763 C755 1.574 . S
C763 H758 0.949 . S
C763 C769 1.368 . S
C764 C748 1.349 . S
C764 H756 0.950 . S
C764 C762 1.327 . S
C765 C753 1.349 . S
C765 H759 0.950 . S
C765 C766 1.327 . S
C766 H760 0.950 . S
C766 C765 1.327 . S
C766 C770 1.429 . S
C767 C750 1.574 . S
C767 H761 0.949 . S
C767 C771 1.368 . S
C768 C749 1.429 . S
C768 C762 1.429 . S
C768 C769 1.523 . S
C769 C750 1.368 . S
C769 C763 1.368 . S
C769 C768 1.523 . S
C770 C754 1.429 . S
C770 C766 1.429 . S
C770 C771 1.523 . S
C771 C755 1.368 . S
C771 C767 1.368 . S
C771 C770 1.523 . S
H772 C747 0.950 . S
H773 C749 0.950 . S
H774 C750 0.949 . S
H775 C752 0.950 . S
H776 C754 0.950 . S
C777 C778 1.349 . S
C777 C779 1.327 . S
C777 H802 0.950 . S
C778 C777 1.349 . S
C778 C794 1.349 . S
C779 C777 1.327 . S
C779 C798 1.429 . S
C779 H803 0.950 . S
C780 C797 1.574 . S
C780 C799 1.368 . S
C780 H804 0.949 . S
H781 C785 0.949 . S
C782 C783 1.349 . S
C782 C784 1.327 . S
C782 H805 0.950 . S
C783 C782 1.349 . S
C783 C795 1.349 . S
C784 C782 1.327 . S
C784 C800 1.429 . S
C784 H806 0.950 . S
C785 H781 0.949 . S
C785 C793 1.574 . S
C785 C801 1.368 . S
H786 C794 0.950 . S
H787 C792 0.950 . S
H788 C793 0.949 . S
H789 C795 0.950 . S
H790 C796 0.950 . S
H791 C797 0.949 . S
C792 H787 0.950 . S
C792 C794 1.327 . S
C792 C798 1.429 . S
C793 C785 1.574 . S
C793 H788 0.949 . S
C793 C799 1.368 . S
C794 C778 1.349 . S
C794 H786 0.950 . S
C794 C792 1.327 . S
C795 C783 1.349 . S
C795 H789 0.950 . S
C795 C796 1.327 . S
C796 H790 0.950 . S
C796 C795 1.327 . S
C796 C800 1.429 . S
C797 C780 1.574 . S
C797 H791 0.949 . S
C797 C801 1.368 . S
C798 C779 1.429 . S
C798 C792 1.429 . S
C798 C799 1.523 . S
C799 C780 1.368 . S
C799 C793 1.368 . S
C799 C798 1.523 . S
C800 C784 1.429 . S
C800 C796 1.429 . S
C800 C801 1.523 . S
C801 C785 1.368 . S
C801 C797 1.368 . S
C801 C800 1.523 . S
H802 C777 0.950 . S
H803 C779 0.950 . S
H804 C780 0.949 . S
H805 C782 0.950 . S
H806 C784 0.950 . S
C807 C808 1.349 . S
C807 C809 1.327 . S
C807 H832 0.950 . S
C808 C807 1.349 . S
C808 C824 1.349 . S
C809 C807 1.327 . S
C809 C828 1.429 . S
C809 H833 0.950 . S
C810 C827 1.574 . S
C810 C829 1.368 . S
C810 H834 0.949 . S
H811 C815 0.949 . S
C812 C813 1.349 . S
C812 C814 1.327 . S
C812 H835 0.950 . S
C813 C812 1.349 . S
C813 C825 1.349 . S
C814 C812 1.327 . S
C814 C830 1.429 . S
C814 H836 0.950 . S
C815 H811 0.949 . S
C815 C823 1.574 . S
C815 C831 1.368 . S
H816 C824 0.950 . S
H817 C822 0.950 . S
H818 C823 0.949 . S
H819 C825 0.950 . S
H820 C826 0.950 . S
H821 C827 0.949 . S
C822 H817 0.950 . S
C822 C824 1.327 . S
C822 C828 1.429 . S
C823 C815 1.574 . S
C823 H818 0.949 . S
C823 C829 1.368 . S
C824 C808 1.349 . S
C824 H816 0.950 . S
C824 C822 1.327 . S
C825 C813 1.349 . S
C825 H819 0.950 . S
C825 C826 1.327 . S
C826 H820 0.950 . S
C826 C825 1.327 . S
C826 C830 1.429 . S
C827 C810 1.574 . S
C827 H821 0.949 . S
C827 C831 1.368 . S
C828 C809 1.429 . S
C828 C822 1.429 . S
C828 C829 1.523 . S
C829 C810 1.368 . S
C829 C823 1.368 . S
C829 C828 1.523 . S
C830 C814 1.429 . S
C830 C826 1.429 . S
C830 C831 1.523 . S
C831 C815 1.368 . S
C831 C827 1.368 . S
C831 C830 1.523 . S
H832 C807 0.950 . S
H833 C809 0.950 . S
H834 C810 0.949 . S
H835 C812 0.950 . S
H836 C814 0.950 . S
C837 C838 1.349 . S
C837 C839 1.327 . S
C837 H862 0.950 . S
C838 C837 1.349 . S
C838 C854 1.349 . S
C839 C837 1.327 . S
C839 C858 1.429 . S
C839 H863 0.950 . S
C840 C857 1.574 . S
C840 C859 1.368 . S
C840 H864 0.949 . S
H841 C845 0.949 . S
C842 C843 1.349 . S
C842 C844 1.327 . S
C842 H865 0.950 . S
C843 C842 1.349 . S
C843 C855 1.349 . S
C844 C842 1.327 . S
C844 C860 1.429 . S
C844 H866 0.950 . S
C845 H841 0.949 . S
C845 C853 1.574 . S
C845 C861 1.368 . S
H846 C854 0.950 . S
H847 C852 0.950 . S
H848 C853 0.949 . S
H849 C855 0.950 . S
H850 C856 0.950 . S
H851 C857 0.949 . S
C852 H847 0.950 . S
C852 C854 1.327 . S
C852 C858 1.429 . S
C853 C845 1.574 . S
C853 H848 0.949 . S
C853 C859 1.368 . S
C854 C838 1.349 . S
C854 H846 0.950 . S
C854 C852 1.327 . S
C855 C843 1.349 . S
C855 H849 0.950 . S
C855 C856 1.327 . S
C856 H850 0.950 . S
C856 C855 1.327 . S
C856 C860 1.429 . S
C857 C840 1.574 . S
C857 H851 0.949 . S
C857 C861 1.368 . S
C858 C839 1.429 . S
C858 C852 1.429 . S
C858 C859 1.523 . S
C859 C840 1.368 . S
C859 C853 1.368 . S
C859 C858 1.523 . S
C860 C844 1.429 . S
C860 C856 1.429 . S
C860 C861 1.523 . S
C861 C845 1.368 . S
C861 C857 1.368 . S
C861 C860 1.523 . S
H862 C837 0.950 . S
H863 C839 0.950 . S
H864 C840 0.949 . S
H865 C842 0.950 . S
H866 C844 0.950 . S
C867 C868 1.349 . S
C867 C869 1.327 . S
C867 H892 0.950 . S
C868 C867 1.349 . S
C868 C884 1.349 . S
C869 C867 1.327 . S
C869 C888 1.429 . S
C869 H893 0.950 . S
C870 C887 1.574 . S
C870 C889 1.368 . S
C870 H894 0.949 . S
H871 C875 0.949 . S
C872 C873 1.349 . S
C872 C874 1.327 . S
C872 H895 0.950 . S
C873 C872 1.349 . S
C873 C885 1.349 . S
C874 C872 1.327 . S
C874 C890 1.429 . S
C874 H896 0.950 . S
C875 H871 0.949 . S
C875 C883 1.574 . S
C875 C891 1.368 . S
H876 C884 0.950 . S
H877 C882 0.950 . S
H878 C883 0.949 . S
H879 C885 0.950 . S
H880 C886 0.950 . S
H881 C887 0.949 . S
C882 H877 0.950 . S
C882 C884 1.327 . S
C882 C888 1.429 . S
C883 C875 1.574 . S
C883 H878 0.949 . S
C883 C889 1.368 . S
C884 C868 1.349 . S
C884 H876 0.950 . S
C884 C882 1.327 . S
C885 C873 1.349 . S
C885 H879 0.950 . S
C885 C886 1.327 . S
C886 H880 0.950 . S
C886 C885 1.327 . S
C886 C890 1.429 . S
C887 C870 1.574 . S
C887 H881 0.949 . S
C887 C891 1.368 . S
C888 C869 1.429 . S
C888 C882 1.429 . S
C888 C889 1.523 . S
C889 C870 1.368 . S
C889 C883 1.368 . S
C889 C888 1.523 . S
C890 C874 1.429 . S
C890 C886 1.429 . S
C890 C891 1.523 . S
C891 C875 1.368 . S
C891 C887 1.368 . S
C891 C890 1.523 . S
H892 C867 0.950 . S
H893 C869 0.950 . S
H894 C870 0.949 . S
H895 C872 0.950 . S
H896 C874 0.950 . S
C178 C1 1.781 . S
C183 C95 1.705 . S
C208 C27 1.591 . S
C213 C142 1.554 . S
C243 C146 1.779 . S
C238 C40 1.832 . S
C273 C111 1.490 . S
C268 C55 1.528 . S
C298 C68 1.714 . S
C303 C126 1.639 . S
C333 C148 0.856 . S
C328 C70 0.869 . S
C363 C117 1.282 . S
C358 C41 1.328 . S
C388 C54 1.321 . S
C393 C157 1.273 . S
C423 C86 1.209 . S
C418 C69 1.253 1_556 S
C448 C71 1.436 . S
C453 C115 1.397 . S
C478 C0 1.929 . S
C483 C173 1.879 . S
C513 C84 1.458 . S
C508 C26 1.498 . S
C543 C102 1.705 . S
C538 C42 1.781 . S
C573 C116 1.554 . S
C568 C57 1.590 1_556 S
C603 C170 1.779 . S
C598 C83 1.832 . S
C633 C85 1.490 . S
C628 C12 1.528 . S
C663 C133 1.639 . S
C658 C14 1.715 . S
C688 C29 0.868 . S
C693 C156 0.856 . S
C723 C125 1.282 . S
C718 C82 1.328 . S
C753 C164 1.273 . S
C748 C13 1.321 . S
C783 C94 1.209 . S
C778 C15 1.252 . S
C813 C139 1.397 . S
C808 C28 1.436 . S
C838 C43 1.929 . S
C843 C147 1.879 . S
C868 C56 1.498 . S
C873 C108 1.457 . S
