# Generated by pormake.
# Topology gar, (4,6)-cn, num edge types: 1
# Building blocks:
#     Node 0, Type 0, BuildingBlock: TATPOV_clean_sbu_0, # of connection points: 4
#     Node 1, Type 0, BuildingBlock: TATPOV_clean_sbu_0, # of connection points: 4
#     Node 2, Type 0, BuildingBlock: TATPOV_clean_sbu_0, # of connection points: 4
#     Node 3, Type 0, BuildingBlock: TATPOV_clean_sbu_0, # of connection points: 4
#     Node 4, Type 0, BuildingBlock: TATPOV_clean_sbu_0, # of connection points: 4
#     Node 5, Type 0, BuildingBlock: TATPOV_clean_sbu_0, # of connection points: 4
#     Node 6, Type 0, BuildingBlock: TATPOV_clean_sbu_0, # of connection points: 4
#     Node 7, Type 0, BuildingBlock: TATPOV_clean_sbu_0, # of connection points: 4
#     Node 8, Type 0, BuildingBlock: TATPOV_clean_sbu_0, # of connection points: 4
#     Node 9, Type 0, BuildingBlock: TATPOV_clean_sbu_0, # of connection points: 4
#     Node 10, Type 0, BuildingBlock: TATPOV_clean_sbu_0, # of connection points: 4
#     Node 11, Type 0, BuildingBlock: TATPOV_clean_sbu_0, # of connection points: 4
#     Node 12, Type 0, BuildingBlock: TATPOV_clean_sbu_0, # of connection points: 4
#     Node 13, Type 0, BuildingBlock: TATPOV_clean_sbu_0, # of connection points: 4
#     Node 14, Type 0, BuildingBlock: TATPOV_clean_sbu_0, # of connection points: 4
#     Node 15, Type 0, BuildingBlock: TATPOV_clean_sbu_0, # of connection points: 4
#     Node 16, Type 0, BuildingBlock: TATPOV_clean_sbu_0, # of connection points: 4
#     Node 17, Type 0, BuildingBlock: TATPOV_clean_sbu_0, # of connection points: 4
#     Node 18, Type 0, BuildingBlock: TATPOV_clean_sbu_0, # of connection points: 4
#     Node 19, Type 0, BuildingBlock: TATPOV_clean_sbu_0, # of connection points: 4
#     Node 20, Type 0, BuildingBlock: TATPOV_clean_sbu_0, # of connection points: 4
#     Node 21, Type 0, BuildingBlock: TATPOV_clean_sbu_0, # of connection points: 4
#     Node 22, Type 0, BuildingBlock: TATPOV_clean_sbu_0, # of connection points: 4
#     Node 23, Type 0, BuildingBlock: TATPOV_clean_sbu_0, # of connection points: 4
#     Node 24, Type 1, BuildingBlock: BETDEL_clean_sbu_0, # of connection points: 6
#     Node 25, Type 1, BuildingBlock: BETDEL_clean_sbu_0, # of connection points: 6
#     Node 26, Type 1, BuildingBlock: BETDEL_clean_sbu_0, # of connection points: 6
#     Node 27, Type 1, BuildingBlock: BETDEL_clean_sbu_0, # of connection points: 6
#     Node 28, Type 1, BuildingBlock: BETDEL_clean_sbu_0, # of connection points: 6
#     Node 29, Type 1, BuildingBlock: BETDEL_clean_sbu_0, # of connection points: 6
#     Node 30, Type 1, BuildingBlock: BETDEL_clean_sbu_0, # of connection points: 6
#     Node 31, Type 1, BuildingBlock: BETDEL_clean_sbu_0, # of connection points: 6
#     Node 32, Type 1, BuildingBlock: BETDEL_clean_sbu_0, # of connection points: 6
#     Node 33, Type 1, BuildingBlock: BETDEL_clean_sbu_0, # of connection points: 6
#     Node 34, Type 1, BuildingBlock: BETDEL_clean_sbu_0, # of connection points: 6
#     Node 35, Type 1, BuildingBlock: BETDEL_clean_sbu_0, # of connection points: 6
#     Node 36, Type 1, BuildingBlock: BETDEL_clean_sbu_0, # of connection points: 6
#     Node 37, Type 1, BuildingBlock: BETDEL_clean_sbu_0, # of connection points: 6
#     Node 38, Type 1, BuildingBlock: BETDEL_clean_sbu_0, # of connection points: 6
#     Node 39, Type 1, BuildingBlock: BETDEL_clean_sbu_0, # of connection points: 6
#     Edge 40, Type (0, 1), BuildingBlock: AJUNOK_clean_linker_0, # of connection points: 2
#     Edge 41, Type (0, 1), BuildingBlock: AJUNOK_clean_linker_0, # of connection points: 2
#     Edge 42, Type (0, 1), BuildingBlock: AJUNOK_clean_linker_0, # of connection points: 2
#     Edge 43, Type (0, 1), BuildingBlock: AJUNOK_clean_linker_0, # of connection points: 2
#     Edge 44, Type (0, 1), BuildingBlock: AJUNOK_clean_linker_0, # of connection points: 2
#     Edge 45, Type (0, 1), BuildingBlock: AJUNOK_clean_linker_0, # of connection points: 2
#     Edge 46, Type (0, 1), BuildingBlock: AJUNOK_clean_linker_0, # of connection points: 2
#     Edge 47, Type (0, 1), BuildingBlock: AJUNOK_clean_linker_0, # of connection points: 2
#     Edge 48, Type (0, 1), BuildingBlock: AJUNOK_clean_linker_0, # of connection points: 2
#     Edge 49, Type (0, 1), BuildingBlock: AJUNOK_clean_linker_0, # of connection points: 2
#     Edge 50, Type (0, 1), BuildingBlock: AJUNOK_clean_linker_0, # of connection points: 2
#     Edge 51, Type (0, 1), BuildingBlock: AJUNOK_clean_linker_0, # of connection points: 2
#     Edge 52, Type (0, 1), BuildingBlock: AJUNOK_clean_linker_0, # of connection points: 2
#     Edge 53, Type (0, 1), BuildingBlock: AJUNOK_clean_linker_0, # of connection points: 2
#     Edge 54, Type (0, 1), BuildingBlock: AJUNOK_clean_linker_0, # of connection points: 2
#     Edge 55, Type (0, 1), BuildingBlock: AJUNOK_clean_linker_0, # of connection points: 2
#     Edge 56, Type (0, 1), BuildingBlock: AJUNOK_clean_linker_0, # of connection points: 2
#     Edge 57, Type (0, 1), BuildingBlock: AJUNOK_clean_linker_0, # of connection points: 2
#     Edge 58, Type (0, 1), BuildingBlock: AJUNOK_clean_linker_0, # of connection points: 2
#     Edge 59, Type (0, 1), BuildingBlock: AJUNOK_clean_linker_0, # of connection points: 2
#     Edge 60, Type (0, 1), BuildingBlock: AJUNOK_clean_linker_0, # of connection points: 2
#     Edge 61, Type (0, 1), BuildingBlock: AJUNOK_clean_linker_0, # of connection points: 2
#     Edge 62, Type (0, 1), BuildingBlock: AJUNOK_clean_linker_0, # of connection points: 2
#     Edge 63, Type (0, 1), BuildingBlock: AJUNOK_clean_linker_0, # of connection points: 2
#     Edge 64, Type (0, 1), BuildingBlock: AJUNOK_clean_linker_0, # of connection points: 2
#     Edge 65, Type (0, 1), BuildingBlock: AJUNOK_clean_linker_0, # of connection points: 2
#     Edge 66, Type (0, 1), BuildingBlock: AJUNOK_clean_linker_0, # of connection points: 2
#     Edge 67, Type (0, 1), BuildingBlock: AJUNOK_clean_linker_0, # of connection points: 2
#     Edge 68, Type (0, 1), BuildingBlock: AJUNOK_clean_linker_0, # of connection points: 2
#     Edge 69, Type (0, 1), BuildingBlock: AJUNOK_clean_linker_0, # of connection points: 2
#     Edge 70, Type (0, 1), BuildingBlock: AJUNOK_clean_linker_0, # of connection points: 2
#     Edge 71, Type (0, 1), BuildingBlock: AJUNOK_clean_linker_0, # of connection points: 2
#     Edge 72, Type (0, 1), BuildingBlock: AJUNOK_clean_linker_0, # of connection points: 2
#     Edge 73, Type (0, 1), BuildingBlock: AJUNOK_clean_linker_0, # of connection points: 2
#     Edge 74, Type (0, 1), BuildingBlock: AJUNOK_clean_linker_0, # of connection points: 2
#     Edge 75, Type (0, 1), BuildingBlock: AJUNOK_clean_linker_0, # of connection points: 2
#     Edge 76, Type (0, 1), BuildingBlock: AJUNOK_clean_linker_0, # of connection points: 2
#     Edge 77, Type (0, 1), BuildingBlock: AJUNOK_clean_linker_0, # of connection points: 2
#     Edge 78, Type (0, 1), BuildingBlock: AJUNOK_clean_linker_0, # of connection points: 2
#     Edge 79, Type (0, 1), BuildingBlock: AJUNOK_clean_linker_0, # of connection points: 2
#     Edge 80, Type (0, 1), BuildingBlock: AJUNOK_clean_linker_0, # of connection points: 2
#     Edge 81, Type (0, 1), BuildingBlock: AJUNOK_clean_linker_0, # of connection points: 2
#     Edge 82, Type (0, 1), BuildingBlock: AJUNOK_clean_linker_0, # of connection points: 2
#     Edge 83, Type (0, 1), BuildingBlock: AJUNOK_clean_linker_0, # of connection points: 2
#     Edge 84, Type (0, 1), BuildingBlock: AJUNOK_clean_linker_0, # of connection points: 2
#     Edge 85, Type (0, 1), BuildingBlock: AJUNOK_clean_linker_0, # of connection points: 2
#     Edge 86, Type (0, 1), BuildingBlock: AJUNOK_clean_linker_0, # of connection points: 2
#     Edge 87, Type (0, 1), BuildingBlock: AJUNOK_clean_linker_0, # of connection points: 2
#     Edge 88, Type (0, 1), BuildingBlock: AJUNOK_clean_linker_0, # of connection points: 2
#     Edge 89, Type (0, 1), BuildingBlock: AJUNOK_clean_linker_0, # of connection points: 2
#     Edge 90, Type (0, 1), BuildingBlock: AJUNOK_clean_linker_0, # of connection points: 2
#     Edge 91, Type (0, 1), BuildingBlock: AJUNOK_clean_linker_0, # of connection points: 2
#     Edge 92, Type (0, 1), BuildingBlock: AJUNOK_clean_linker_0, # of connection points: 2
#     Edge 93, Type (0, 1), BuildingBlock: AJUNOK_clean_linker_0, # of connection points: 2
#     Edge 94, Type (0, 1), BuildingBlock: AJUNOK_clean_linker_0, # of connection points: 2
#     Edge 95, Type (0, 1), BuildingBlock: AJUNOK_clean_linker_0, # of connection points: 2
#     Edge 96, Type (0, 1), BuildingBlock: AJUNOK_clean_linker_0, # of connection points: 2
#     Edge 97, Type (0, 1), BuildingBlock: AJUNOK_clean_linker_0, # of connection points: 2
#     Edge 98, Type (0, 1), BuildingBlock: AJUNOK_clean_linker_0, # of connection points: 2
#     Edge 99, Type (0, 1), BuildingBlock: AJUNOK_clean_linker_0, # of connection points: 2
#     Edge 100, Type (0, 1), BuildingBlock: AJUNOK_clean_linker_0, # of connection points: 2
#     Edge 101, Type (0, 1), BuildingBlock: AJUNOK_clean_linker_0, # of connection points: 2
#     Edge 102, Type (0, 1), BuildingBlock: AJUNOK_clean_linker_0, # of connection points: 2
#     Edge 103, Type (0, 1), BuildingBlock: AJUNOK_clean_linker_0, # of connection points: 2
#     Edge 104, Type (0, 1), BuildingBlock: AJUNOK_clean_linker_0, # of connection points: 2
#     Edge 105, Type (0, 1), BuildingBlock: AJUNOK_clean_linker_0, # of connection points: 2
#     Edge 106, Type (0, 1), BuildingBlock: AJUNOK_clean_linker_0, # of connection points: 2
#     Edge 107, Type (0, 1), BuildingBlock: AJUNOK_clean_linker_0, # of connection points: 2
#     Edge 108, Type (0, 1), BuildingBlock: AJUNOK_clean_linker_0, # of connection points: 2
#     Edge 109, Type (0, 1), BuildingBlock: AJUNOK_clean_linker_0, # of connection points: 2
#     Edge 110, Type (0, 1), BuildingBlock: AJUNOK_clean_linker_0, # of connection points: 2
#     Edge 111, Type (0, 1), BuildingBlock: AJUNOK_clean_linker_0, # of connection points: 2
#     Edge 112, Type (0, 1), BuildingBlock: AJUNOK_clean_linker_0, # of connection points: 2
#     Edge 113, Type (0, 1), BuildingBlock: AJUNOK_clean_linker_0, # of connection points: 2
#     Edge 114, Type (0, 1), BuildingBlock: AJUNOK_clean_linker_0, # of connection points: 2
#     Edge 115, Type (0, 1), BuildingBlock: AJUNOK_clean_linker_0, # of connection points: 2
#     Edge 116, Type (0, 1), BuildingBlock: AJUNOK_clean_linker_0, # of connection points: 2
#     Edge 117, Type (0, 1), BuildingBlock: AJUNOK_clean_linker_0, # of connection points: 2
#     Edge 118, Type (0, 1), BuildingBlock: AJUNOK_clean_linker_0, # of connection points: 2
#     Edge 119, Type (0, 1), BuildingBlock: AJUNOK_clean_linker_0, # of connection points: 2
#     Edge 120, Type (0, 1), BuildingBlock: AJUNOK_clean_linker_0, # of connection points: 2
#     Edge 121, Type (0, 1), BuildingBlock: AJUNOK_clean_linker_0, # of connection points: 2
#     Edge 122, Type (0, 1), BuildingBlock: AJUNOK_clean_linker_0, # of connection points: 2
#     Edge 123, Type (0, 1), BuildingBlock: AJUNOK_clean_linker_0, # of connection points: 2
#     Edge 124, Type (0, 1), BuildingBlock: AJUNOK_clean_linker_0, # of connection points: 2
#     Edge 125, Type (0, 1), BuildingBlock: AJUNOK_clean_linker_0, # of connection points: 2
#     Edge 126, Type (0, 1), BuildingBlock: AJUNOK_clean_linker_0, # of connection points: 2
#     Edge 127, Type (0, 1), BuildingBlock: AJUNOK_clean_linker_0, # of connection points: 2
#     Edge 128, Type (0, 1), BuildingBlock: AJUNOK_clean_linker_0, # of connection points: 2
#     Edge 129, Type (0, 1), BuildingBlock: AJUNOK_clean_linker_0, # of connection points: 2
#     Edge 130, Type (0, 1), BuildingBlock: AJUNOK_clean_linker_0, # of connection points: 2
#     Edge 131, Type (0, 1), BuildingBlock: AJUNOK_clean_linker_0, # of connection points: 2
#     Edge 132, Type (0, 1), BuildingBlock: AJUNOK_clean_linker_0, # of connection points: 2
#     Edge 133, Type (0, 1), BuildingBlock: AJUNOK_clean_linker_0, # of connection points: 2
#     Edge 134, Type (0, 1), BuildingBlock: AJUNOK_clean_linker_0, # of connection points: 2
#     Edge 135, Type (0, 1), BuildingBlock: AJUNOK_clean_linker_0, # of connection points: 2
# Relax obj value: 0.160
# Max RMSD: 0.285
# Mean RMSD: 0.172
data_MOF--net-gar--node1-TATPOV_clean_sbu_0--node2-BETDEL_clean_sbu_0--edge1-AJUNOK_clean_linker_0
_symmetry_space_group_name_H-M    P1
_symmetry_Int_Tables_number       1
_symmetry_cell_setting            triclinic
loop_
_symmetry_equiv_pos_as_xyz
'x, y, z'
_cell_length_a     41.682085
_cell_length_b     39.52909
_cell_length_c     41.931582
_cell_angle_alpha  95.27391
_cell_angle_beta   91.65982
_cell_angle_gamma 101.0147
loop_
_atom_site_label
_atom_site_type_symbol
_atom_site_fract_x
_atom_site_fract_y
_atom_site_fract_z
_atom_type_partial_charge
Zn0 Zn 0.98423 0.2497 0.3985 0.0
Zn1 Zn 0.04084 0.26371 0.37924 0.0
O2 O 0.0442 0.31124 0.40602 0.0
O3 O 0.99157 0.30004 0.41427 0.0
O4 O 0.08222 0.26158 0.35452 0.0
O5 O 0.98931 0.21594 0.42904 0.0
O6 O 0.03688 0.22103 0.40677 0.0
C7 C 0.01863 0.32123 0.4164 0.0
C8 C 0.97714 0.25152 0.336 0.0
O9 O 0.00695 0.26488 0.34308 0.0
O10 O 0.96022 0.235 0.35608 0.0
C11 C 0.08576 0.27242 0.32686 0.0
O12 O 0.06381 0.28844 0.31535 0.0
C13 C 0.01634 0.20644 0.42584 0.0
Zn14 Zn 0.99173 0.71508 0.65192 0.0
Zn15 Zn 0.00455 0.76374 0.61444 0.0
O16 O 0.9643 0.773 0.64037 0.0
O17 O 0.95355 0.72945 0.67021 0.0
O18 O 0.01435 0.80576 0.589 0.0
O19 O 0.03382 0.72798 0.67636 0.0
O20 O 0.04794 0.76449 0.64018 0.0
C21 C 0.94728 0.75713 0.66125 0.0
C22 C 0.99026 0.68871 0.58585 0.0
O23 O 0.99617 0.72072 0.58117 0.0
O24 O 0.98727 0.67995 0.61404 0.0
C25 C 0.00239 0.80861 0.56127 0.0
O26 O 0.98247 0.78187 0.546 0.0
C27 C 0.05528 0.74935 0.6642 0.0
Zn28 Zn 0.48307 0.75288 0.91248 0.0
Zn29 Zn 0.53867 0.76256 0.88395 0.0
O30 O 0.54366 0.8099 0.91169 0.0
O31 O 0.49619 0.80067 0.93481 0.0
O32 O 0.57995 0.76148 0.85899 0.0
O33 O 0.49046 0.71367 0.93562 0.0
O34 O 0.53633 0.7193 0.91009 0.0
C35 C 0.52314 0.82027 0.93054 0.0
C36 C 0.47296 0.75459 0.8462 0.0
O37 O 0.50402 0.76209 0.848 0.0
O38 O 0.45731 0.74606 0.87055 0.0
C39 C 0.58416 0.77415 0.83222 0.0
O40 O 0.56239 0.79071 0.82118 0.0
C41 C 0.517 0.704 0.92973 0.0
Zn42 Zn 0.49103 0.209 0.1487 0.0
Zn43 Zn 0.50279 0.2635 0.11891 0.0
O44 O 0.46357 0.26908 0.1486 0.0
O45 O 0.45337 0.21974 0.17031 0.0
O46 O 0.50964 0.30628 0.0936 0.0
O47 O 0.53374 0.22192 0.17282 0.0
O48 O 0.54661 0.26674 0.14478 0.0
C49 C 0.44739 0.24943 0.16764 0.0
C50 C 0.49056 0.18892 0.08411 0.0
O51 O 0.49734 0.22176 0.08374 0.0
O52 O 0.48558 0.17554 0.11012 0.0
C53 C 0.49736 0.30681 0.06542 0.0
O54 O 0.47876 0.27848 0.05136 0.0
C55 C 0.55404 0.24796 0.16598 0.0
Zn56 Zn 0.09458 0.79018 0.08391 0.0
Zn57 Zn 0.04187 0.77496 0.12092 0.0
O58 O 0.0328 0.81494 0.09568 0.0
O59 O 0.0759 0.82793 0.06657 0.0
O60 O 0.00116 0.76458 0.1466 0.0
O61 O 0.08176 0.74321 0.05967 0.0
O62 O 0.04136 0.72979 0.09213 0.0
C63 C 0.04796 0.83244 0.07477 0.0
C64 C 0.11144 0.79127 0.15172 0.0
O65 O 0.08057 0.78405 0.15439 0.0
O66 O 0.1233 0.79554 0.12458 0.0
C67 C 0.99779 0.78223 0.17282 0.0
O68 O 0.02184 0.80744 0.18408 0.0
C69 C 0.05808 0.72169 0.06862 0.0
Zn70 Zn 0.44056 0.72809 0.39946 0.0
Zn71 Zn 0.49022 0.7382 0.36697 0.0
O72 O 0.49694 0.78566 0.393 0.0
O73 O 0.44902 0.77793 0.41523 0.0
O74 O 0.52719 0.73975 0.3352 0.0
O75 O 0.45447 0.69636 0.42735 0.0
O76 O 0.49753 0.70091 0.39797 0.0
C77 C 0.47592 0.79711 0.41027 0.0
C78 C 0.41711 0.72294 0.33955 0.0
O79 O 0.44782 0.73361 0.33729 0.0
O80 O 0.40622 0.71259 0.36543 0.0
C81 C 0.55461 0.76058 0.34004 0.0
O82 O 0.5597 0.7822 0.36622 0.0
C83 C 0.48176 0.68857 0.42143 0.0
Zn84 Zn 0.5955 0.2854 0.58601 0.0
Zn85 Zn 0.54304 0.27301 0.62181 0.0
O86 O 0.53579 0.31395 0.59589 0.0
O87 O 0.57909 0.32255 0.56653 0.0
O88 O 0.50401 0.26538 0.65104 0.0
O89 O 0.58363 0.23709 0.56514 0.0
O90 O 0.53959 0.22711 0.59332 0.0
C91 C 0.55229 0.33017 0.57493 0.0
C92 C 0.61468 0.29058 0.65113 0.0
O93 O 0.58386 0.28093 0.65346 0.0
O94 O 0.62653 0.29626 0.62431 0.0
C95 C 0.49012 0.29048 0.65995 0.0
O96 O 0.50114 0.321 0.65018 0.0
C97 C 0.55811 0.21684 0.57231 0.0
Zn98 Zn 0.94423 0.22912 0.90591 0.0
Zn99 Zn 0.99425 0.24128 0.86959 0.0
O100 O 0.99861 0.28896 0.8957 0.0
O101 O 0.95495 0.27854 0.92438 0.0
O102 O 0.03279 0.24231 0.84028 0.0
O103 O 0.96135 0.1945 0.92943 0.0
O104 O 0.00323 0.20388 0.89863 0.0
C105 C 0.9798 0.29929 0.91645 0.0
C106 C 0.92213 0.22352 0.84151 0.0
O107 O 0.95286 0.23302 0.8383 0.0
O108 O 0.91179 0.21682 0.86873 0.0
C109 C 0.05271 0.26851 0.83248 0.0
O110 O 0.04867 0.29967 0.84307 0.0
C111 C 0.98906 0.189 0.92159 0.0
Zn112 Zn 0.44289 0.97111 0.25873 0.0
Zn113 Zn 0.41396 0.02752 0.26206 0.0
O114 O 0.44228 0.03746 0.30465 0.0
O115 O 0.467 -0.0074 0.2993 0.0
O116 O 0.38912 0.06586 0.25691 0.0
O117 O 0.4629 0.98221 0.21758 0.0
O118 O 0.44004 0.02825 0.22143 0.0
C119 C 0.4628 0.02024 0.31487 0.0
C120 C 0.37365 0.95465 0.2626 0.0
O121 O 0.37587 0.98707 0.26284 0.0
O122 O 0.39874 0.94109 0.26079 0.0
C123 C 0.36279 0.06609 0.27141 0.0
O124 O 0.35513 0.0449 0.29357 0.0
C125 C 0.45784 0.00963 0.2068 0.0
Zn126 Zn 0.22926 0.19415 0.47965 0.0
Zn127 Zn 0.27059 0.15387 0.48197 0.0
O128 O 0.281 0.17948 0.43941 0.0
O129 O 0.24452 0.21305 0.43877 0.0
O130 O 0.30716 0.12623 0.48691 0.0
O131 O 0.24081 0.21981 0.52334 0.0
O132 O 0.27323 0.18254 0.52755 0.0
C133 C 0.2679 0.20167 0.42588 0.0
C134 C 0.19788 0.12166 0.47731 0.0
O135 O 0.22719 0.11637 0.47764 0.0
O136 O 0.19296 0.15234 0.47762 0.0
C137 C 0.31314 0.1036 0.46544 0.0
O138 O 0.29543 0.09798 0.43837 0.0
C139 C 0.26006 0.20692 0.54034 0.0
Zn140 Zn 0.11367 0.044 0.77954 0.0
Zn141 Zn 0.14705 -0.00339 0.77049 0.0
O142 O 0.11776 0.98507 0.81119 0.0
O143 O 0.09157 0.02854 0.81743 0.0
O144 O 0.17214 0.95588 0.76226 0.0
O145 O 0.08908 0.03256 0.73783 0.0
O146 O 0.1208 -0.0051 0.72663 0.0
C147 C 0.09725 0.00047 0.8261 0.0
C148 C 0.17991 0.07473 0.77951 0.0
O149 O 0.18268 0.04293 0.77505 0.0
O150 O 0.15215 0.08252 0.783 0.0
C151 C 0.20204 0.95684 0.77071 0.0
O152 O 0.2185 0.98519 0.78685 0.0
C153 C 0.09837 0.01069 0.71816 0.0
Zn154 Zn 0.30942 0.85172 0.98085 0.0
Zn155 Zn 0.26063 0.88133 0.98351 0.0
O156 O 0.25215 0.8505 0.94024 0.0
O157 O 0.29709 0.82869 0.93809 0.0
O158 O 0.22231 0.90493 -0.01174 0.0
O159 O 0.29919 0.82571 0.01714 0.0
O160 O 0.26025 0.85572 0.02414 0.0
C161 C 0.26983 0.83144 0.9259 0.0
C162 C 0.32919 0.92369 -0.01377 0.0
O163 O 0.29865 0.92273 0.98299 0.0
O164 O 0.3403 0.89628 -0.01259 0.0
C165 C 0.22447 0.93146 0.00843 0.0
O166 O 0.25169 0.94259 0.02601 0.0
C167 C 0.27658 0.83405 0.03358 0.0
Zn168 Zn 0.31631 0.33228 0.0128 0.0
Zn169 Zn 0.27194 0.36768 0.01304 0.0
O170 O 0.26847 0.34058 0.96602 0.0
O171 O 0.30327 0.30588 0.97042 0.0
O172 O 0.23414 0.39552 0.01348 0.0
O173 O 0.30471 0.31083 0.05318 0.0
O174 O 0.26347 0.33791 0.05389 0.0
C175 C 0.28298 0.31716 0.95335 0.0
C176 C 0.34525 0.40327 0.01537 0.0
O177 O 0.3153 0.40624 0.01771 0.0
O178 O 0.35256 0.37359 0.01259 0.0
C179 C 0.22246 0.40559 -0.01172 0.0
O180 O 0.23493 0.39802 0.96073 0.0
C181 C 0.27937 0.31717 0.06641 0.0
Zn182 Zn 0.73345 0.1617 0.01542 0.0
Zn183 Zn 0.78285 0.14198 0.00784 0.0
O184 O 0.78566 0.17345 0.97199 0.0
O185 O 0.7323 0.17003 0.96929 0.0
O186 O 0.82093 0.11806 0.00521 0.0
O187 O 0.74966 0.20065 0.04764 0.0
O188 O 0.78798 0.17001 0.05296 0.0
C189 C 0.75995 0.17829 0.95752 0.0
C190 C 0.71772 0.09406 0.01152 0.0
O191 O 0.74428 0.10052 -0.00281 0.0
O192 O 0.70958 0.1177 0.02991 0.0
C193 C 0.82262 0.09624 0.98138 0.0
O194 O 0.80112 0.0925 0.95715 0.0
C195 C 0.77407 0.19479 0.06305 0.0
Zn196 Zn 0.102 0.53056 0.2069 0.0
Zn197 Zn 0.13142 0.48848 0.21614 0.0
O198 O 0.10095 0.48799 0.25355 0.0
O199 O 0.09787 0.54263 0.25297 0.0
O200 O 0.15971 0.45497 0.22366 0.0
O201 O 0.06549 0.49572 0.18415 0.0
O202 O 0.10812 0.47376 0.17173 0.0
C203 C 0.09315 0.5153 0.26695 0.0
C204 C 0.16426 0.55847 0.20149 0.0
O205 O 0.16457 0.53401 0.21901 0.0
O206 O 0.13863 0.55859 0.18466 0.0
C207 C 0.17371 0.45655 0.2512 0.0
O208 O 0.16715 0.47835 0.27453 0.0
C209 C 0.07868 0.47633 0.16538 0.0
Zn210 Zn 0.81059 0.82536 0.50932 0.0
Zn211 Zn 0.76628 0.86256 0.50895 0.0
O212 O 0.76397 0.83523 0.46271 0.0
O213 O 0.79686 0.79841 0.46659 0.0
O214 O 0.72711 0.8874 0.50701 0.0
O215 O 0.79794 0.80674 0.55127 0.0
O216 O 0.75774 0.83541 0.55098 0.0
C217 C 0.77717 0.81091 0.4498 0.0
C218 C 0.83847 0.89811 0.51117 0.0
O219 O 0.80868 0.90149 0.51344 0.0
O220 O 0.84559 0.8683 0.50875 0.0
C221 C 0.72723 0.91681 0.49672 0.0
O222 O 0.75456 0.93395 0.48652 0.0
C223 C 0.77337 0.81523 0.56457 0.0
Zn224 Zn 0.92638 0.98283 0.20542 0.0
Zn225 Zn 0.89353 0.02726 0.21792 0.0
O226 O 0.92204 0.02907 0.26104 0.0
O227 O 0.95017 0.98887 0.24706 0.0
O228 O 0.86651 0.06653 0.2239 0.0
O229 O 0.94966 -0.0007 0.16879 0.0
O230 O 0.9195 0.03923 0.17528 0.0
C231 C 0.94287 0.01059 0.2682 0.0
C232 C 0.86174 0.94898 0.20625 0.0
O233 O 0.85858 0.9802 0.21442 0.0
O234 O 0.8894 0.94315 0.19869 0.0
C235 C 0.85748 0.07958 0.25037 0.0
O236 O 0.86517 0.06731 0.27702 0.0
C237 C 0.9409 0.02583 0.15982 0.0
Zn238 Zn 0.24343 0.66571 0.51815 0.0
Zn239 Zn 0.28437 0.63426 0.51135 0.0
O240 O 0.28809 0.66215 0.47224 0.0
O241 O 0.23675 0.66843 0.47176 0.0
O242 O 0.31732 0.60278 0.5076 0.0
O243 O 0.26917 0.70692 0.54257 0.0
O244 O 0.29513 0.6662 0.55451 0.0
C245 C 0.26362 0.67055 0.45833 0.0
C246 C 0.21581 0.6019 0.52458 0.0
O247 O 0.24025 0.59992 0.50759 0.0
O248 O 0.21521 0.62999 0.54119 0.0
C249 C 0.32399 0.58893 0.48061 0.0
O250 O 0.31095 0.59713 0.45419 0.0
C251 C 0.28884 0.69648 0.56092 0.0
Zn252 Zn 0.42629 0.48144 0.71299 0.0
Zn253 Zn 0.38966 0.52458 0.71931 0.0
O254 O 0.41507 0.52925 0.76439 0.0
O255 O 0.44793 0.49229 0.7557 0.0
O256 O 0.36062 0.56228 0.72242 0.0
O257 O 0.45067 0.49694 0.67673 0.0
O258 O 0.41727 0.53392 0.67697 0.0
C259 C 0.43722 0.51389 0.77447 0.0
C260 C 0.36123 0.44604 0.70996 0.0
O261 O 0.35651 0.47702 0.71576 0.0
O262 O 0.3898 0.44061 0.70595 0.0
C263 C 0.35691 0.58051 0.74835 0.0
O264 O 0.37199 0.57543 0.77491 0.0
C265 C 0.44043 0.52087 0.66424 0.0
Zn266 Zn 0.57462 0.04798 0.71213 0.0
Zn267 Zn 0.62111 0.98808 0.72023 0.0
O268 O 0.59903 0.97787 0.76194 0.0
O269 O 0.57915 0.01933 0.74516 0.0
O270 O 0.65555 0.95899 0.7186 0.0
O271 O 0.56175 0.0173 0.67246 0.0
O272 O 0.5913 0.97629 0.67836 0.0
C273 C 0.58196 0.00072 0.76698 0.0
C274 C 0.64554 0.06881 0.72177 0.0
O275 O 0.64794 0.03752 0.7245 0.0
O276 O 0.61862 0.07765 0.71485 0.0
C277 C 0.67476 0.96314 0.74341 0.0
O278 O 0.67074 0.98548 0.76744 0.0
C279 C 0.57014 0.989 0.66295 0.0
Zn280 Zn 0.72608 0.69534 0.97746 0.0
Zn281 Zn 0.76946 0.65479 0.9808 0.0
O282 O 0.77897 0.68181 0.93853 0.0
O283 O 0.74372 0.71693 0.93851 0.0
O284 O 0.80781 0.62804 0.98502 0.0
O285 O 0.73805 0.71943 0.02194 0.0
O286 O 0.7719 0.6835 0.0263 0.0
C287 C 0.76697 0.70527 0.92568 0.0
C288 C 0.69618 0.62201 0.97336 0.0
O289 O 0.7257 0.61767 0.97675 0.0
O290 O 0.69033 0.65215 0.97193 0.0
C291 C 0.80751 0.59668 0.97418 0.0
O292 O 0.78108 0.57907 0.95823 0.0
C293 C 0.75829 0.70769 0.03876 0.0
Zn294 Zn 0.93975 0.4874 0.75905 0.0
Zn295 Zn 0.91533 0.53537 0.77004 0.0
O296 O 0.94666 0.54226 0.81024 0.0
O297 O 0.95076 0.4876 0.80469 0.0
O298 O 0.88754 0.57172 0.77195 0.0
O299 O 0.97487 0.50742 0.73249 0.0
O300 O 0.9376 0.53888 0.72622 0.0
C301 C 0.95573 0.51646 0.82144 0.0
C302 C 0.87555 0.46426 0.75502 0.0
O303 O 0.87939 0.49261 0.77278 0.0
O304 O 0.89897 0.45689 0.73914 0.0
C305 C 0.8642 0.56662 0.75067 0.0
O306 O 0.86192 0.54064 0.72827 0.0
C307 C 0.96322 0.52838 0.71693 0.0
Zn308 Zn 0.80583 0.36061 0.48742 0.0
Zn309 Zn 0.75674 0.38105 0.48052 0.0
O310 O 0.75247 0.34673 0.43974 0.0
O311 O 0.80494 0.3456 0.44099 0.0
O312 O 0.71885 0.40597 0.48148 0.0
O313 O 0.79117 0.32464 0.51522 0.0
O314 O 0.75365 0.35633 0.5224 0.0
C315 C 0.77716 0.3378 0.42642 0.0
C316 C 0.82284 0.42833 0.49067 0.0
O317 O 0.79514 0.42112 0.47569 0.0
O318 O 0.83215 0.40582 0.50615 0.0
C319 C 0.72125 0.43265 0.50158 0.0
O320 O 0.74742 0.44159 0.52101 0.0
C321 C 0.76759 0.33216 0.53062 0.0
Zn322 Zn 0.6127 0.5311 0.2691 0.0
Zn323 Zn 0.65288 0.49651 0.27113 0.0
O324 O 0.62512 0.48695 0.31319 0.0
O325 O 0.59899 0.53014 0.31254 0.0
O326 O 0.68389 0.46159 0.26537 0.0
O327 O 0.58162 0.50534 0.23517 0.0
O328 O 0.62885 0.49118 0.22544 0.0
C329 C 0.60638 0.50572 0.32665 0.0
C330 C 0.67537 0.57192 0.26542 0.0
O331 O 0.68356 0.54512 0.27556 0.0
O332 O 0.64569 0.57148 0.25794 0.0
C333 C 0.68881 0.4408 0.28562 0.0
O334 O 0.67395 0.4418 0.31278 0.0
C335 C 0.60045 0.49447 0.21543 0.0
Dy336 Dy 0.98444 0.00118 0.98391 0.0
C337 C 0.1216 0.01108 0.01009 0.0
C338 C 0.92169 0.01152 0.98094 0.0
Dy339 Dy 0.05806 0.01895 0.00507 0.0
O340 O 0.93935 0.00823 0.95621 0.0
O341 O 0.93767 0.00662 0.00648 0.0
O342 O 0.99398 0.96621 0.9416 0.0
O343 O 0.03014 0.00903 0.9591 0.0
C344 C 0.02429 0.98192 0.93955 0.0
C345 C 0.01668 0.036 0.04898 0.0
O346 O 0.05641 0.06777 0.98327 0.0
O347 O -0.00039 0.05874 0.98395 0.0
O348 O 0.10366 0.01617 0.0342 0.0
O349 O 0.10505 0.01185 0.98365 0.0
O350 O 0.04656 0.05338 0.04809 0.0
O351 O 0.01271 0.00986 0.02876 0.0
O352 O 0.98563 0.95309 0.00696 0.0
O353 O 0.0426 0.96144 0.00803 0.0
C354 C 0.02844 0.07851 0.98021 0.0
C355 C 0.01334 0.94228 0.0117 0.0
Dy356 Dy 0.26888 0.76665 0.21789 0.0
C357 C 0.26198 0.73991 0.34534 0.0
C358 C 0.26693 0.78364 0.15754 0.0
Dy359 Dy 0.25463 0.76244 0.28766 0.0
O360 O 0.29173 0.77429 0.17121 0.0
O361 O 0.24302 0.78314 0.17659 0.0
O362 O 0.31426 0.74508 0.22435 0.0
O363 O 0.29905 0.77643 0.26209 0.0
C364 C 0.31932 0.75752 0.25422 0.0
C365 C 0.20382 0.76951 0.25015 0.0
O366 O 0.2771 0.81829 0.29068 0.0
O367 O 0.27082 0.82204 0.23626 0.0
O368 O 0.24357 0.76212 0.3398 0.0
O369 O 0.27608 0.73061 0.31988 0.0
O370 O 0.2074 0.78201 0.28019 0.0
O371 O 0.22524 0.75192 0.24368 0.0
O372 O 0.2491 0.71033 0.21329 0.0
O373 O 0.24608 0.70618 0.26803 0.0
C374 C 0.27708 0.83681 0.26597 0.0
C375 C 0.24425 0.69187 0.23798 0.0
Dy376 Dy 0.5544 0.00507 0.48941 0.0
C377 C 0.42076 0.03125 0.48741 0.0
C378 C 0.61095 0.97985 0.49655 0.0
Dy379 Dy 0.47935 0.00969 0.49357 0.0
O380 O 0.60912 0.00899 0.48503 0.0
O381 O 0.58226 0.96554 0.50509 0.0
O382 O 0.55909 0.03301 0.44499 0.0
O383 O 0.51362 0.00523 0.45583 0.0
C384 C 0.52775 0.0268 0.43802 0.0
C385 C 0.50713 0.9869 0.54357 0.0
O386 O 0.47323 0.9558 0.47017 0.0
O387 O 0.52778 0.9505 0.47738 0.0
O388 O 0.44067 0.03819 0.51259 0.0
O389 O 0.43241 0.01146 0.46605 0.0
O390 O 0.47579 0.97851 0.5364 0.0
O391 O 0.52016 0.00972 0.52653 0.0
O392 O 0.55798 0.05639 0.5175 0.0
O393 O 0.5072 0.06444 0.49824 0.0
C394 C 0.49671 0.93734 0.46891 0.0
C395 C 0.53634 0.0763 0.51283 0.0
Dy396 Dy 0.23348 0.26251 0.74573 0.0
C397 C 0.37074 0.27433 0.7309 0.0
C398 C 0.16931 0.25774 0.76128 0.0
Dy399 Dy 0.30688 0.26084 0.74817 0.0
O400 O 0.18819 0.28499 0.75246 0.0
O401 O 0.18512 0.23229 0.76013 0.0
O402 O 0.24319 0.30841 0.71739 0.0
O403 O 0.27839 0.30163 0.75233 0.0
C404 C 0.27243 0.3196 0.73028 0.0
C405 C 0.2681 0.20273 0.76263 0.0
O406 O 0.30425 0.28362 0.79868 0.0
O407 O 0.24743 0.27089 0.79891 0.0
O408 O 0.35743 0.24764 0.74526 0.0
O409 O 0.34953 0.294 0.72744 0.0
O410 O 0.2977 0.21359 0.77501 0.0
O411 O 0.26207 0.22158 0.74132 0.0
O412 O 0.23574 0.24042 0.6946 0.0
O413 O 0.29263 0.24918 0.69537 0.0
C414 C 0.27659 0.28114 0.81406 0.0
C415 C 0.2636 0.24059 0.67978 0.0
Dy416 Dy 0.01295 -0.0038 0.45848 0.0
C417 C 0.0576 0.03156 0.59015 0.0
C418 C 0.98545 -0.00563 0.3984 0.0
Dy419 Dy 0.0262 0.02423 0.53162 0.0
O420 O 0.00859 0.97791 0.40558 0.0
O421 O 0.97617 0.0095 0.42424 0.0
O422 O 0.06718 -0.00486 0.45457 0.0
O423 O 0.05191 0.03003 0.48763 0.0
C424 C 0.07676 0.01921 0.47815 0.0
C425 C 0.96217 -0.00537 0.52061 0.0
O426 O 0.02681 0.07571 0.51254 0.0
O427 O 0.012 0.05303 0.45943 0.0
O428 O 0.03196 0.04454 0.58355 0.0
O429 O 0.06761 0.01726 0.56414 0.0
O430 O 0.97472 0.00976 0.54816 0.0
O431 O 0.98459 -0.00215 0.50086 0.0
O432 O 0.00451 0.94577 0.48062 0.0
O433 O 0.03554 0.97012 0.52657 0.0
C434 C 0.01926 0.07943 0.48214 0.0
C435 C 0.01966 0.94266 0.50823 0.0
Dy436 Dy 0.31426 0.78601 0.7487 0.0
C437 C 0.18345 0.73386 0.70632 0.0
C438 C 0.37746 0.80115 0.77338 0.0
Dy439 Dy 0.24416 0.7492 0.73495 0.0
O440 O 0.36871 0.79913 0.74325 0.0
O441 O 0.3513 0.79673 0.78977 0.0
O442 O 0.31749 0.7971 0.69745 0.0
O443 O 0.289 0.75062 0.70956 0.0
C444 C 0.29793 0.76834 0.68682 0.0
C445 C 0.26049 0.76671 0.79713 0.0
O446 O 0.26541 0.70114 0.73332 0.0
O447 O 0.31382 0.73039 0.75947 0.0
O448 O 0.19039 0.72867 0.73567 0.0
O449 O 0.21001 0.74537 0.69209 0.0
O450 O 0.23903 0.73915 0.7867 0.0
O451 O 0.26972 0.7837 0.7741 0.0
O452 O 0.29227 0.83402 0.75171 0.0
O453 O 0.24143 0.80556 0.73015 0.0
C454 C 0.2939 0.70093 0.74814 0.0
C455 C 0.26204 0.83469 0.74102 0.0
Dy456 Dy 0.52226 0.02067 0.02244 0.0
C457 C 0.52834 0.02928 0.88763 0.0
C458 C 0.51246 0.03514 0.08517 0.0
Dy459 Dy 0.51855 0.02776 0.95027 0.0
O460 O 0.53509 0.01904 0.0745 0.0
O461 O 0.49658 0.0445 0.06155 0.0
O462 O 0.5213 0.96351 0.02208 0.0
O463 O 0.51955 0.98542 0.97908 0.0
C464 C 0.52051 0.95748 -0.00893 0.0
C465 C 0.50992 0.08267 -0.01183 0.0
O466 O 0.4665 0.00395 0.95582 0.0
O467 O 0.46918 0.01658 0.01099 0.0
O468 O 0.53992 0.05462 0.90916 0.0
O469 O 0.51111 0.0034 0.90025 0.0
O470 O 0.49394 0.0729 0.96087 0.0
O471 O 0.53044 0.06387 -0.00688 0.0
O472 O 0.57479 0.03773 0.01556 0.0
O473 O 0.57124 0.02508 0.96013 0.0
C474 C 0.45234 0.00665 0.9835 0.0
C475 C 0.58834 0.03249 -0.01212 0.0
Dy476 Dy 0.27273 0.29793 0.25603 0.0
C477 C 0.27452 0.15608 0.23958 0.0
C478 C 0.26329 0.36421 0.26092 0.0
Dy479 Dy 0.26119 0.22084 0.23682 0.0
O480 O 0.26565 0.34628 0.28498 0.0
O481 O 0.26803 0.34643 0.23454 0.0
O482 O 0.30153 0.29027 0.30069 0.0
O483 O 0.26188 0.25239 0.28192 0.0
C484 C 0.28464 0.25938 0.30335 0.0
C485 C 0.24932 0.25828 0.18836 0.0
O486 O 0.21146 0.22255 0.25491 0.0
O487 O 0.21806 0.2818 0.25264 0.0
O488 O 0.27439 0.17182 0.2137 0.0
O489 O 0.26485 0.17474 0.26305 0.0
O490 O 0.23416 0.22649 0.19077 0.0
O491 O 0.27158 0.26621 0.21041 0.0
O492 O 0.32095 0.29864 0.23564 0.0
O493 O 0.31609 0.23966 0.2386 0.0
C494 C 0.19969 0.25152 0.25707 0.0
C495 C 0.33347 0.27042 0.23363 0.0
Dy496 Dy 0.51026 0.49349 0.9579 0.0
C497 C 0.56826 0.52978 0.08987 0.0
C498 C 0.47445 0.48825 0.90192 0.0
Dy499 Dy 0.5345 0.52286 0.0326 0.0
O500 O 0.49901 0.47283 0.90643 0.0
O501 O 0.4679 0.50412 0.92877 0.0
O502 O 0.5611 0.50565 0.93849 0.0
O503 O 0.55482 0.51206 -0.01325 0.0
C504 C 0.57611 0.51737 0.96608 0.0
C505 C 0.46839 0.5011 0.02399 0.0
O506 O 0.54044 0.57304 0.01077 0.0
O507 O 0.51301 0.55099 0.96111 0.0
O508 O 0.54217 0.54242 0.08461 0.0
O509 O 0.57707 0.51555 0.06325 0.0
O510 O 0.48307 0.51422 0.05135 0.0
O511 O 0.49028 0.50287 0.00386 0.0
O512 O 0.50464 0.44324 0.98045 0.0
O513 O 0.53297 0.46554 0.02946 0.0
C514 C 0.52802 0.57689 0.98203 0.0
C515 C 0.51768 0.43921 0.00902 0.0
Dy516 Dy 0.81445 0.28336 0.24972 0.0
C517 C 0.68187 0.23699 0.21282 0.0
C518 C 0.88038 0.29574 0.26249 0.0
Dy519 Dy 0.74287 0.2468 0.24043 0.0
O520 O 0.86481 0.27638 0.23827 0.0
O521 O 0.8598 0.30981 0.27941 0.0
O522 O 0.81304 0.29608 0.19862 0.0
O523 O 0.78521 0.25 0.21176 0.0
C524 C 0.79189 0.2681 0.18893 0.0
C525 C 0.76375 0.25988 0.30186 0.0
O526 O 0.76638 0.20013 0.23472 0.0
O527 O 0.81291 0.22921 0.26442 0.0
O528 O 0.68885 0.22574 0.23994 0.0
O529 O 0.70838 0.25117 0.20001 0.0
O530 O 0.73958 0.23476 0.29161 0.0
O531 O 0.77224 0.27834 0.27946 0.0
O532 O 0.79296 0.33158 0.25759 0.0
O533 O 0.74052 0.30329 0.23998 0.0
C534 C 0.79434 0.20001 0.25075 0.0
C535 C 0.76183 0.33197 0.25 0.0
Dy536 Dy 0.01346 0.51002 0.52464 0.0
C537 C 0.03049 0.52204 0.38669 0.0
C538 C 0.00333 0.5171 0.5877 0.0
Dy539 Dy 0.01813 0.52626 0.44907 0.0
O540 O 0.02336 0.53954 0.57326 0.0
O541 O 0.98957 0.49085 0.56778 0.0
O542 O 0.01955 0.45425 0.51594 0.0
O543 O 0.02277 0.48591 0.47917 0.0
C544 C 0.02389 0.45571 0.48542 0.0
C545 C 0.00609 0.57965 0.48907 0.0
O546 O 0.96538 0.50332 0.45012 0.0
O547 O 0.96181 0.50633 0.50614 0.0
O548 O 0.01385 0.49668 0.40066 0.0
O549 O 0.03948 0.54962 0.40664 0.0
O550 O 0.00938 0.58176 0.45849 0.0
O551 O 0.00972 0.55006 0.49465 0.0
O552 O 0.06652 0.53118 0.52266 0.0
O553 O 0.07003 0.53073 0.46663 0.0
C554 C 0.94852 0.50127 0.47645 0.0
C555 C 0.08319 0.53478 0.49632 0.0
Dy556 Dy 0.73007 0.76597 0.24328 0.0
C557 C 0.87017 0.76391 0.2289 0.0
C558 C 0.66766 0.7511 0.26353 0.0
Dy559 Dy 0.80627 0.75946 0.244 0.0
O560 O 0.67599 0.76747 0.23841 0.0
O561 O 0.69303 0.74163 0.27599 0.0
O562 O 0.73824 0.82351 0.23622 0.0
O563 O 0.777 0.79846 0.24131 0.0
C564 C 0.76999 0.82716 0.23651 0.0
C565 C 0.76322 0.70355 0.25736 0.0
O566 O 0.80325 0.77923 0.29565 0.0
O567 O 0.74643 0.77536 0.29552 0.0
O568 O 0.84664 0.73768 0.22057 0.0
O569 O 0.85897 0.78787 0.24613 0.0
O570 O 0.79351 0.71064 0.26857 0.0
O571 O 0.75881 0.72504 0.23804 0.0
O572 O 0.73351 0.74587 0.19163 0.0
O573 O 0.79091 0.75445 0.19142 0.0
C574 C 0.77572 0.78104 0.31048 0.0
C575 C 0.76141 0.74667 0.17656 0.0
Dy576 Dy 0.77673 0.26205 0.71127 0.0
C577 C 0.75635 0.25135 0.84649 0.0
C578 C 0.76354 0.2767 0.65161 0.0
Dy579 Dy 0.75945 0.26496 0.78491 0.0
O580 O 0.77966 0.25265 0.65801 0.0
O581 O 0.75544 0.29256 0.67766 0.0
O582 O 0.82918 0.2534 0.71806 0.0
O583 O 0.79984 0.25948 0.75628 0.0
C584 C 0.82723 0.25321 0.7491 0.0
C585 C 0.71576 0.28062 0.7443 0.0
O586 O 0.78513 0.31987 0.78314 0.0
O587 O 0.78811 0.31784 0.72757 0.0
O588 O 0.78279 0.26627 0.8338 0.0
O589 O 0.73157 0.24552 0.82592 0.0
O590 O 0.71968 0.29404 0.77406 0.0
O591 O 0.73307 0.25802 0.73919 0.0
O592 O 0.75142 0.20842 0.71214 0.0
O593 O 0.74694 0.20764 0.76755 0.0
C594 C 0.79102 0.33501 0.75634 0.0
C595 C 0.74312 0.19215 0.73766 0.0
Dy596 Dy 0.77411 0.80329 0.75507 0.0
C597 C 0.77588 0.6627 0.74803 0.0
C598 C 0.76264 0.86778 0.74913 0.0
Dy599 Dy 0.75944 0.72475 0.73924 0.0
O600 O 0.77611 0.85864 0.77458 0.0
O601 O 0.75705 0.84213 0.72689 0.0
O602 O 0.80114 0.79843 0.8015 0.0
O603 O 0.76214 0.75932 0.78309 0.0
C604 C 0.78459 0.76751 0.80494 0.0
C605 C 0.74887 0.76098 0.68945 0.0
O606 O 0.71115 0.72864 0.75993 0.0
O607 O 0.71967 0.78841 0.75957 0.0
O608 O 0.75828 0.66809 0.72337 0.0
O609 O 0.78291 0.69058 0.76762 0.0
O610 O 0.73263 0.72972 0.69237 0.0
O611 O 0.77104 0.76849 0.71149 0.0
O612 O 0.82218 0.80083 0.73406 0.0
O613 O 0.81325 0.74073 0.73044 0.0
C614 C 0.70053 0.75832 0.76355 0.0
C615 C 0.8321 0.77126 0.7272 0.0
Dy616 Dy 0.48622 0.49873 0.48447 0.0
C617 C 0.62342 0.51971 0.50537 0.0
C618 C 0.42172 0.50279 0.47727 0.0
Dy619 Dy 0.55949 0.52607 0.50651 0.0
O620 O 0.44171 0.502 0.45415 0.0
O621 O 0.43652 0.49861 0.50389 0.0
O622 O 0.50265 0.47037 0.44028 0.0
O623 O 0.53086 0.51713 0.46157 0.0
C624 C 0.53015 0.49262 0.43996 0.0
C625 C 0.51609 0.53293 0.5516 0.0
O626 O 0.5518 0.57511 0.48911 0.0
O627 O 0.49519 0.55724 0.48896 0.0
O628 O 0.60792 0.52481 0.53137 0.0
O629 O 0.60468 0.52147 0.48059 0.0
O630 O 0.54468 0.5536 0.55205 0.0
O631 O 0.51465 0.50866 0.52959 0.0
O632 O 0.49394 0.45089 0.50564 0.0
O633 O 0.55015 0.46798 0.50428 0.0
C634 C 0.52184 0.58141 0.48679 0.0
C635 C 0.52395 0.44521 0.51049 0.0
Dy636 Dy 0.05862 0.50883 -0.00642 0.0
C637 C 0.9236 0.53505 -0.0062 0.0
C638 C 0.11653 0.4848 -0.00491 0.0
Dy639 Dy 0.98243 0.513 -0.00065 0.0
O640 O 0.10539 0.49938 0.97169 0.0
O641 O 0.09674 0.48493 0.01847 0.0
O642 O 0.05903 0.53549 0.94808 0.0
O643 O 0.016 0.5055 0.96217 0.0
C644 C 0.02756 0.52596 0.94247 0.0
C645 C 0.01267 0.4952 0.05029 0.0
O646 O 0.97758 0.45829 0.97699 0.0
O647 O 0.03194 0.45374 -0.01243 0.0
O648 O 0.94715 0.54759 0.01507 0.0
O649 O 0.93191 0.50975 0.9758 0.0
O650 O 0.98107 0.48615 0.04477 0.0
O651 O 0.02469 0.51586 0.03089 0.0
O652 O 0.06328 0.56254 0.01645 0.0
O653 O 0.01085 0.56769 -0.00139 0.0
C654 C 0.00139 0.44013 0.97744 0.0
C655 C 0.04064 0.5812 0.01143 0.0
C656 C 0.02747 0.14753 0.92499 0.0
C657 C 0.00477 0.16553 0.93953 0.0
C658 C 0.03856 0.12132 0.9401 0.0
C659 C 0.02744 0.1128 0.97019 0.0
H660 H 0.03503 0.15209 0.901 0.0
H661 H 0.05363 0.10582 0.92706 0.0
S662 S 0.97371 0.15678 0.02116 0.0
N663 N 0.97586 0.17648 -0.012 0.0
N664 N 0.99667 0.1272 0.01594 0.0
C665 C 0.00742 0.13279 -0.01381 0.0
C666 C 0.99604 0.1592 0.97095 0.0
C667 C 0.13995 0.80789 0.20635 0.0
C668 C 0.13336 0.78543 0.17794 0.0
C669 C 0.16222 0.80222 0.23033 0.0
C670 C 0.17821 0.77386 0.22652 0.0
H671 H 0.12847 0.83025 0.20969 0.0
H672 H 0.16757 0.82057 0.25152 0.0
S673 S 0.16587 0.7056 0.15779 0.0
N674 N 0.14245 0.73277 0.14826 0.0
N675 N 0.1835 0.72165 0.19312 0.0
C676 C 0.1706 0.75063 0.19864 0.0
C677 C 0.14836 0.75656 0.17438 0.0
C678 C 0.50761 0.84571 0.44649 0.0
C679 C 0.48166 0.83302 0.42403 0.0
C680 C 0.51136 0.87917 0.46193 0.0
C681 C 0.48946 0.90099 0.45506 0.0
H682 H 0.52467 0.8295 0.45256 0.0
H683 H 0.53176 0.88806 0.4792 0.0
S684 S 0.41793 0.87901 0.397 0.0
N685 N 0.43384 0.84374 0.39532 0.0
N686 N 0.44111 0.90719 0.42376 0.0
C687 C 0.46324 0.88823 0.43266 0.0
C688 C 0.45936 0.85406 0.41719 0.0
C689 C 0.4368 0.30591 0.67445 0.0
C690 C 0.46044 0.28555 0.67914 0.0
C691 C 0.40845 0.30253 0.69196 0.0
C692 C 0.40245 0.2787 0.71503 0.0
H693 H 0.43994 0.32437 0.65667 0.0
H694 H 0.39081 0.31842 0.68691 0.0
S695 S 0.45794 0.22139 0.73875 0.0
N696 N 0.4769 0.24203 0.71 0.0
N697 N 0.42339 0.23568 0.74302 0.0
C698 C 0.42612 0.25858 0.72054 0.0
C699 C 0.45512 0.26196 0.70254 0.0
C700 C 0.99654 0.84548 0.51619 0.0
C701 C 0.00911 0.84251 0.54722 0.0
C702 C 0.00076 0.87761 0.50326 0.0
C703 C 0.0178 0.90816 0.52078 0.0
H704 H 0.98282 0.82288 0.50185 0.0
H705 H 0.99003 0.87853 0.4796 0.0
S706 S 0.05631 0.91451 0.6031 0.0
N707 N 0.03994 0.87311 0.59488 0.0
N708 N 0.04805 0.93294 0.57096 0.0
C709 C 0.03117 0.90535 0.55164 0.0
C710 C 0.0268 0.87274 0.56474 0.0
C711 C 0.42447 0.74133 0.80889 0.0
C712 C 0.45447 0.763 0.81868 0.0
C713 C 0.40078 0.75369 0.79169 0.0
C714 C 0.40606 0.78812 0.78418 0.0
H715 H 0.41832 0.71557 0.81668 0.0
H716 H 0.37724 0.73693 0.7861 0.0
S717 S 0.48237 0.85355 0.7998 0.0
N718 N 0.49005 0.81912 0.8159 0.0
N719 N 0.44465 0.84242 0.78381 0.0
C720 C 0.43695 0.8091 0.79097 0.0
C721 C 0.46148 0.79639 0.80818 0.0
C722 C 0.52622 0.16159 0.04844 0.0
C723 C 0.49449 0.16593 0.05577 0.0
C724 C 0.53109 0.13445 0.02637 0.0
C725 C 0.50435 0.11147 0.01052 0.0
H726 H 0.54734 0.17823 0.06104 0.0
H727 H 0.55586 0.13126 0.02186 0.0
S728 S 0.41657 0.11154 0.02187 0.0
N729 N 0.4361 0.14469 0.04638 0.0
N730 N 0.4452 0.09459 0.0035 0.0
C731 C 0.47254 0.11609 0.01701 0.0
C732 C 0.4676 0.14314 0.04011 0.0
C733 C 0.12961 0.23846 0.31297 0.0
C734 C 0.11325 0.26549 0.30698 0.0
C735 C 0.15601 0.23193 0.29477 0.0
C736 C 0.16722 0.25248 0.27017 0.0
H737 H 0.12229 0.22247 0.33215 0.0
H738 H 0.16881 0.21195 0.30124 0.0
S739 S 0.13192 0.3251 0.24351 0.0
N740 N 0.10941 0.31175 0.27336 0.0
N741 N 0.15892 0.29962 0.23956 0.0
C742 C 0.1503 0.27863 0.26311 0.0
C743 C 0.12338 0.28513 0.28141 0.0
C744 C 0.94627 0.0116 0.1025 0.0
C745 C 0.95311 0.03671 0.12896 0.0
C746 C 0.96628 0.01274 0.07634 0.0
C747 C 0.9937 0.03948 0.07501 0.0
H748 H 0.92699 0.98904 0.10333 0.0
H749 H 0.96133 -0.00901 0.05809 0.0
S750 S 0.01968 0.11431 0.13638 0.0
N751 N 0.98754 0.09078 0.15138 0.0
N752 N 0.0246 0.09393 0.10116 0.0
C753 C -0.00068 0.06645 0.10012 0.0
C754 C 0.97906 0.06492 0.12728 0.0
C755 C 0.27297 0.72387 0.43141 0.0
C756 C 0.26694 0.6875 0.42913 0.0
C757 C 0.2707 0.74121 0.4041 0.0
C758 C 0.26255 0.72235 0.37413 0.0
H759 H 0.27863 0.73886 0.45454 0.0
H760 H 0.27557 0.76927 0.40635 0.0
S761 S 0.24202 0.62697 0.35627 0.0
N762 N 0.25063 0.63333 0.39533 0.0
N763 N 0.24714 0.6659 0.34358 0.0
C764 C 0.25637 0.68604 0.37163 0.0
C765 C 0.25833 0.6685 0.39938 0.0
C766 C 0.5747 0.98809 0.60528 0.0
C767 C 0.55761 0.97428 0.63089 0.0
C768 C 0.55829 -0.01009 0.57618 0.0
C769 C 0.52434 0.97753 0.57163 0.0
H770 H 0.60009 0.0011 0.60891 0.0
H771 H 0.57194 0.00351 0.55808 0.0
S772 S 0.46973 0.93422 0.6301 0.0
N773 N 0.50598 0.94492 0.64926 0.0
N774 N 0.47507 0.9469 0.59383 0.0
C775 C 0.50765 0.96042 0.59598 0.0
C776 C 0.52437 0.9591 0.62586 0.0
C777 C 0.25496 0.31343 0.89816 0.0
C778 C 0.28007 0.30604 0.91802 0.0
C779 C 0.25369 0.30493 0.86462 0.0
C780 C 0.27796 0.28959 0.84952 0.0
H781 H 0.23622 0.32598 0.90852 0.0
H782 H 0.23391 0.3111 0.85033 0.0
S783 S 0.34831 0.26371 0.89023 0.0
N784 N 0.32926 0.28104 0.91954 0.0
N785 N 0.32702 0.26621 0.85705 0.0
C786 C 0.30294 0.28183 0.86901 0.0
C787 C 0.30394 0.28972 0.90305 0.0
C788 C 0.97326 0.98384 0.30808 0.0
C789 C 0.95568 0.00992 0.30161 0.0
C790 C 0.98263 0.97895 0.33936 0.0
C791 C 0.97485 -0.00015 0.36563 0.0
H792 H 0.97932 0.96623 0.28887 0.0
H793 H 0.99571 0.9583 0.34296 0.0
S794 S 0.93325 0.07473 0.36222 0.0
N795 N 0.93349 0.05888 0.32439 0.0
N796 N 0.95135 0.04985 0.38337 0.0
C797 C 0.95851 0.02696 0.35972 0.0
C798 C 0.94891 0.03199 0.3277 0.0
C799 C 0.29111 0.7505 0.59708 0.0
C800 C 0.29826 0.71693 0.59212 0.0
C801 C 0.29218 0.7677 0.62785 0.0
C802 C 0.30025 0.75179 0.65457 0.0
H803 H 0.28308 0.76301 0.5772 0.0
H804 H 0.28524 0.79282 0.63087 0.0
S805 S 0.3275 0.66779 0.65439 0.0
N806 N 0.31825 0.67086 0.61637 0.0
N807 N 0.32027 0.70335 0.67433 0.0
C808 C 0.30991 0.71958 0.64993 0.0
C809 C 0.30907 0.70215 0.61859 0.0
C810 C 0.57331 -0.00997 0.8235 0.0
C811 C 0.56903 0.00934 0.79796 0.0
C812 C 0.56107 -0.00181 0.85305 0.0
C813 C 0.54321 0.02468 0.85743 0.0
H814 H 0.58635 0.96878 0.8208 0.0
H815 H 0.56611 0.98421 0.8729 0.0
S816 S 0.53195 0.08821 0.80101 0.0
N817 N 0.55099 0.06071 0.78088 0.0
N818 N 0.52661 0.07423 0.83676 0.0
C819 C 0.54084 0.04598 0.83324 0.0
C820 C 0.55388 0.03844 0.8032 0.0
C821 C 0.24594 0.31144 0.11655 0.0
C822 C 0.26956 0.30056 0.09658 0.0
C823 C 0.23871 0.2973 0.146 0.0
C824 C 0.25459 0.27156 0.15641 0.0
H825 H 0.2335 0.33157 0.10979 0.0
H826 H 0.22101 0.30698 0.16093 0.0
S827 S 0.31729 0.23289 0.11345 0.0
N828 N 0.30794 0.26113 0.08986 0.0
N829 N 0.29427 0.23538 0.14459 0.0
C830 C 0.27759 0.26002 0.1366 0.0
C831 C 0.28505 0.27423 0.10689 0.0
C832 C 0.20358 0.98575 0.0241 0.0
C833 C 0.19751 0.95094 0.01061 0.0
C834 C 0.17883 0.0054 0.02452 0.0
C835 C 0.14746 -0.00923 0.01133 0.0
H836 H 0.22778 -0.00182 0.03375 0.0
H837 H 0.18442 0.03223 0.03453 0.0
S838 S 0.11759 0.9 0.97706 0.0
N839 N 0.15669 0.9021 -0.01347 0.0
N840 N 0.1105 0.93916 -0.01288 0.0
C841 C 0.14069 0.95583 -0.00107 0.0
C842 C 0.16566 0.93584 -0.0014 0.0
C843 C 0.64388 0.58992 0.94611 0.0
C844 C 0.66785 0.59255 0.97096 0.0
C845 C 0.61474 0.5652 0.94491 0.0
C846 C 0.6077 0.54272 0.96905 0.0
H847 H 0.64759 0.60739 0.92751 0.0
H848 H 0.59717 0.56427 0.92514 0.0
S849 S 0.66267 0.53856 0.03904 0.0
N850 N 0.68311 0.57002 0.01994 0.0
N851 N 0.62779 0.52392 0.01804 0.0
C852 C 0.63151 0.54483 -0.00602 0.0
C853 C 0.66172 0.56961 -0.0052 0.0
C854 C 0.73321 0.41853 0.25448 0.0
C855 C 0.70945 0.41428 0.27797 0.0
C856 C 0.75184 0.39285 0.24637 0.0
C857 C 0.74703 0.36195 0.26126 0.0
H858 H 0.73723 0.44171 0.24206 0.0
H859 H 0.76916 0.39665 0.22765 0.0
S860 S 0.68786 0.33744 0.32352 0.0
N861 N 0.68257 0.37622 0.31572 0.0
N862 N 0.71698 0.32844 0.30026 0.0
C863 C 0.72372 0.35761 0.28486 0.0
C864 C 0.70511 0.38361 0.2933 0.0
C865 C 0.86214 0.48353 0.50173 0.0
C866 C 0.84841 0.45484 0.48031 0.0
C867 C 0.89396 0.5013 0.4981 0.0
C868 C 0.91291 0.49019 0.47341 0.0
H869 H 0.84939 0.49035 0.52281 0.0
H870 H 0.90473 0.52195 0.51627 0.0
S871 S 0.88625 0.41776 0.40993 0.0
N872 N 0.85423 0.41786 0.43218 0.0
N873 N 0.91453 0.45063 0.42573 0.0
C874 C 0.89821 0.4635 0.45018 0.0
C875 C 0.8657 0.44582 0.45365 0.0
C876 C 0.31684 0.09665 0.28363 0.0
C877 C 0.33949 0.0877 0.26177 0.0
C878 C 0.29447 0.11707 0.27542 0.0
C879 C 0.29354 0.12897 0.24487 0.0
H880 H 0.31691 0.08857 0.30763 0.0
H881 H 0.27848 0.12453 0.29358 0.0
S882 S 0.34535 0.1098 0.17764 0.0
N883 N 0.3581 0.09024 0.20735 0.0
N884 N 0.31577 0.12844 0.19187 0.0
C885 C 0.31503 0.11894 0.22222 0.0
C886 C 0.33815 0.09844 0.23071 0.0
C887 C 0.35914 0.09055 0.49979 0.0
C888 C 0.33972 0.08382 0.47094 0.0
C889 C 0.38467 0.07278 0.50527 0.0
C890 C 0.3919 0.04749 0.48217 0.0
H891 H 0.35487 0.11 0.51826 0.0
H892 H 0.39921 0.07938 0.52759 0.0
S893 S 0.34815 0.01907 0.40306 0.0
N894 N 0.32936 0.04912 0.41927 0.0
N895 N 0.37717 0.01601 0.42967 0.0
C896 C 0.37246 0.04005 0.45349 0.0
C897 C 0.34647 0.05811 0.44786 0.0
C898 C 0.72515 0.61643 0.28506 0.0
C899 C 0.69953 0.60383 0.26195 0.0
C900 C 0.74564 0.6489 0.28352 0.0
C901 C 0.74115 0.66968 0.25883 0.0
H902 H 0.72872 0.60166 0.30494 0.0
H903 H 0.76482 0.65802 0.30202 0.0
S904 S 0.68033 0.64587 0.19007 0.0
N905 N 0.67277 0.61294 0.21204 0.0
N906 N 0.71097 0.67366 0.2092 0.0
C907 C 0.71634 0.65665 0.23497 0.0
C908 C 0.69565 0.62375 0.23651 0.0
C909 C 0.83957 0.42341 0.78578 0.0
C910 C 0.8465 0.43754 0.75664 0.0
C911 C 0.8189 0.39107 0.78622 0.0
C912 C 0.80453 0.37246 0.75751 0.0
H913 H 0.85249 0.43584 0.80785 0.0
H914 H 0.81636 0.37953 0.80869 0.0
S915 S 0.80895 0.40363 0.67629 0.0
N916 N 0.83386 0.43406 0.69956 0.0
N917 N 0.79317 0.37451 0.70018 0.0
C918 C 0.80801 0.38889 0.72889 0.0
C919 C 0.82967 0.42117 0.72847 0.0
C920 C 0.02042 0.88324 0.07526 0.0
C921 C 0.03244 0.85656 0.058 0.0
C922 C 0.01105 0.90983 0.05941 0.0
C923 C 0.01308 0.90996 0.026 0.0
H924 H 0.02034 0.88481 0.10119 0.0
H925 H 0.00437 0.93158 0.07354 0.0
S926 S 0.03675 0.84245 0.96968 0.0
N927 N 0.04149 0.82928 0.00549 0.0
N928 N 0.02383 0.8794 0.97591 0.0
C929 C 0.02249 0.88205 0.00836 0.0
C930 C 0.03216 0.85519 0.02437 0.0
C931 C 0.90794 0.24441 0.78891 0.0
C932 C 0.89798 0.22599 0.81534 0.0
C933 C 0.8849 0.25246 0.76709 0.0
C934 C 0.85115 0.24283 0.77115 0.0
H935 H 0.93367 0.25392 0.78572 0.0
H936 H 0.89358 0.26741 0.74757 0.0
S937 S 0.81211 0.18908 0.83271 0.0
N938 N 0.85169 0.19461 0.84164 0.0
N939 N 0.80887 0.21011 0.80091 0.0
C940 C 0.84085 0.22282 0.79629 0.0
C941 C 0.86415 0.21426 0.81826 0.0
C942 C 0.57047 0.17147 0.53165 0.0
C943 C 0.55123 0.18084 0.55696 0.0
C944 C 0.5661 0.13728 0.51769 0.0
C945 C 0.54216 0.11156 0.52837 0.0
H946 H 0.58921 0.19061 0.52254 0.0
H947 H 0.58117 0.13104 0.49821 0.0
S948 S 0.48572 0.12139 0.5936 0.0
N949 N 0.50754 0.16073 0.59216 0.0
N950 N 0.49918 0.09657 0.56526 0.0
C951 C 0.52263 0.12024 0.55327 0.0
C952 C 0.52716 0.15492 0.56774 0.0
C953 C 0.61355 0.75966 0.33351 0.0
C954 C 0.58227 0.75747 0.31912 0.0
C955 C 0.64049 0.75652 0.31508 0.0
C956 C 0.63761 0.75214 0.28136 0.0
H957 H 0.61722 0.7634 0.35938 0.0
H958 H 0.66404 0.75838 0.32747 0.0
S959 S 0.56142 0.74606 0.23162 0.0
N960 N 0.54985 0.75063 0.26892 0.0
N961 N 0.60116 0.74648 0.23413 0.0
C962 C 0.60665 0.7505 0.26646 0.0
C963 C 0.5788 0.75264 0.28537 0.0
C964 C 0.00725 0.17028 0.47184 0.0
C965 C 0.02233 0.17684 0.44272 0.0
C966 C 0.00805 0.13957 0.48594 0.0
C967 C 0.02337 0.11418 0.47096 0.0
H968 H 0.99381 0.18857 0.48331 0.0
H969 H 0.9951 0.13485 0.50762 0.0
S970 S 0.0688 0.11981 0.39614 0.0
N971 N 0.05511 0.1564 0.40086 0.0
N972 N 0.05621 0.09849 0.42696 0.0
C973 C 0.03992 0.12113 0.44275 0.0
C974 C 0.03956 0.15256 0.42872 0.0
C975 C 0.61339 0.25286 0.15872 0.0
C976 C 0.58753 0.25226 0.17947 0.0
C977 C 0.64386 0.24744 0.16974 0.0
C978 C 0.64924 0.24112 0.20174 0.0
H979 H 0.60952 0.25556 0.13349 0.0
H980 H 0.6631 0.2474 0.15291 0.0
S981 S 0.59091 0.24327 0.26664 0.0
N982 N 0.57014 0.24905 0.23408 0.0
N983 N 0.62761 0.23922 0.25494 0.0
C984 C 0.62413 0.24255 0.22312 0.0
C985 C 0.59319 0.2481 0.21192 0.0
C986 C 0.52256 0.8618 0.97846 0.0
C987 C 0.52834 0.85609 0.94581 0.0
C988 C 0.52054 0.89482 -0.00752 0.0
C989 C 0.5234 0.92341 0.97431 0.0
H990 H 0.51867 0.84032 -0.00688 0.0
H991 H 0.51583 0.89768 0.01776 0.0
S992 S 0.53676 0.92081 0.88709 0.0
N993 N 0.53624 0.88078 0.89534 0.0
N994 N 0.532 0.94322 0.92136 0.0
C995 C 0.52942 0.918 0.9415 0.0
C996 C 0.53204 0.88425 0.92737 0.0
C997 C 0.91859 0.79267 0.69855 0.0
C998 C 0.91738 0.76729 0.67251 0.0
C999 C 0.89054 0.7949 0.71587 0.0
C1000 C 0.86115 0.77096 0.70816 0.0
H1001 H 0.94163 0.80947 0.7066 0.0
H1002 H 0.89227 0.81415 0.7363 0.0
S1003 S 0.8453 0.70225 0.63976 0.0
N1004 N 0.88421 0.72036 0.63791 0.0
N1005 N 0.83199 0.72323 0.67093 0.0
C1006 C 0.85956 0.74659 0.68119 0.0
C1007 C 0.88762 0.7451 0.66322 0.0
C1008 C 0.09319 0.98139 0.88173 0.0
C1009 C 0.07793 0.98616 0.85259 0.0
C1010 C 0.0753 0.97806 0.90973 0.0
C1011 C 0.04173 0.97932 0.90936 0.0
H1012 H 0.11936 0.98256 0.88342 0.0
H1013 H 0.08801 0.97542 0.93189 0.0
S1014 S 0.98999 0.98787 0.83829 0.0
N1015 N 0.02687 0.98911 0.82454 0.0
N1016 N 0.99359 0.98285 0.87681 0.0
C1017 C 0.0259 0.98165 0.87989 0.0
C1018 C 0.04396 0.98512 0.85161 0.0
C1019 C 0.76996 0.28375 0.56343 0.0
C1020 C 0.75951 0.31508 0.55977 0.0
C1021 C 0.76953 0.27032 0.59302 0.0
C1022 C 0.75845 0.2877 0.61982 0.0
H1023 H 0.7801 0.27032 0.54363 0.0
H1024 H 0.77931 0.24709 0.59519 0.0
S1025 S 0.7244 0.36806 0.62206 0.0
N1026 N 0.73487 0.36133 0.58468 0.0
N1027 N 0.73339 0.33566 0.64045 0.0
C1028 C 0.74546 0.31753 0.61602 0.0
C1029 C 0.74608 0.33133 0.58586 0.0
C1030 C 0.46539 0.03698 0.37392 0.0
C1031 C 0.48145 0.03047 0.34568 0.0
C1032 C 0.48117 0.03743 0.40407 0.0
C1033 C 0.5134 0.03177 0.40674 0.0
H1034 H 0.43993 0.03942 0.37275 0.0
H1035 H 0.46785 0.04135 0.42538 0.0
S1036 S 0.56659 0.01637 0.33979 0.0
N1037 N 0.53183 0.02052 0.32216 0.0
N1038 N 0.56139 0.02163 0.37868 0.0
C1039 C 0.53027 0.02743 0.37868 0.0
C1040 C 0.51424 0.02667 0.34815 0.0
C1041 C 0.76598 0.69539 0.09605 0.0
C1042 C 0.76238 0.71921 0.07381 0.0
C1043 C 0.765 0.70429 0.12929 0.0
C1044 C 0.76036 0.73729 0.14149 0.0
H1045 H 0.7685 0.66931 0.08771 0.0
H1046 H 0.76765 0.68514 0.14557 0.0
S1047 S 0.75425 0.81056 0.0942 0.0
N1048 N 0.75689 0.77835 0.06696 0.0
N1049 N 0.75543 0.79484 0.1293 0.0
C1050 C 0.75811 0.76175 0.11979 0.0
C1051 C 0.75899 0.75276 0.08599 0.0
C1052 C 0.10838 0.01062 0.6597 0.0
C1053 C 0.08628 0.00861 0.68449 0.0
C1054 C 0.09902 0.0182 0.62908 0.0
C1055 C 0.06747 0.02444 0.62254 0.0
H1056 H 0.1335 0.00825 0.66445 0.0
H1057 H 0.11683 0.02017 0.6107 0.0
S1058 S 0.99889 0.01532 0.67755 0.0
N1059 N 0.03034 0.00852 0.6992 0.0
N1060 N 0.01285 0.023 0.64195 0.0
C1061 C 0.04463 0.02022 0.64655 0.0
C1062 C 0.05402 0.01217 0.67744 0.0
C1063 C 0.74303 0.29968 0.38193 0.0
C1064 C 0.77396 0.31688 0.395 0.0
C1065 C 0.73995 0.279 0.35256 0.0
C1066 C 0.76763 0.27531 0.33521 0.0
H1067 H 0.72108 0.30228 0.39435 0.0
H1068 H 0.71567 0.26712 0.34271 0.0
S1069 S 0.85407 0.31284 0.3595 0.0
N1070 N 0.83297 0.32738 0.38861 0.0
N1071 N 0.82666 0.28849 0.33362 0.0
C1072 C 0.79857 0.29149 0.34829 0.0
C1073 C 0.80188 0.31234 0.37812 0.0
C1074 C 0.50409 0.0139 0.1705 0.0
C1075 C 0.47261 0.01978 0.17699 0.0
C1076 C 0.51784 0.02106 0.14127 0.0
C1077 C 0.50039 0.03404 0.11762 0.0
H1078 H 0.51796 0.00319 0.18793 0.0
H1079 H 0.54176 0.01522 0.13675 0.0
S1080 S 0.41663 0.05284 0.12281 0.0
N1081 N 0.42429 0.03906 0.1577 0.0
N1082 N 0.44992 0.05239 0.10254 0.0
C1083 C 0.46915 0.04078 0.12416 0.0
C1084 C 0.45526 0.03363 0.15397 0.0
C1085 C 0.76035 0.70178 0.86593 0.0
C1086 C 0.77753 0.71774 0.89444 0.0
C1087 C 0.76356 0.71757 0.83707 0.0
C1088 C 0.78438 0.74994 0.83526 0.0
H1089 H 0.74288 0.67772 0.86631 0.0
H1090 H 0.74855 0.70482 0.8163 0.0
S1091 S 0.83466 0.80265 0.90352 0.0
N1092 N 0.81576 0.76789 0.91931 0.0
N1093 N 0.82283 0.79709 0.86512 0.0
C1094 C 0.80246 0.76568 0.86352 0.0
C1095 C 0.79875 0.74976 0.89304 0.0
C1096 C 0.85467 0.05603 0.95321 0.0
C1097 C 0.84696 0.07351 0.98191 0.0
C1098 C 0.87795 0.03466 0.9531 0.0
C1099 C 0.89377 0.02948 0.98177 0.0
H1100 H 0.84323 0.0595 0.93053 0.0
H1101 H 0.88408 0.02272 0.93038 0.0
S1102 S 0.8812 0.06784 0.06363 0.0
N1103 N 0.85638 0.08326 0.03991 0.0
N1104 N 0.89947 0.04268 0.03978 0.0
C1105 C 0.88552 0.04589 0.01076 0.0
C1106 C 0.86232 0.06808 0.01081 0.0
C1107 C 0.39244 0.43707 -0.01067 0.0
C1108 C 0.37236 0.43365 0.01579 0.0
C1109 C 0.42266 0.46049 -0.00865 0.0
C1110 C 0.43417 0.48096 0.02012 0.0
H1111 H 0.38537 0.42037 0.96729 0.0
H1112 H 0.43781 0.46115 0.9708 0.0
S1113 S 0.39063 0.48165 0.09626 0.0
N1114 N 0.36575 0.45299 0.07126 0.0
N1115 N 0.42236 0.49676 0.07545 0.0
C1116 C 0.41366 0.47859 0.04638 0.0
C1117 C 0.38282 0.45498 0.04415 0.0
C1118 C 0.34692 0.63797 0.77195 0.0
C1119 C 0.33822 0.60931 0.74872 0.0
C1120 C 0.33129 0.66647 0.7724 0.0
C1121 C 0.30608 0.6678 0.74975 0.0
H1122 H 0.36665 0.6389 0.78961 0.0
H1123 H 0.33928 0.68782 0.79066 0.0
S1124 S 0.27002 0.5968 0.68721 0.0
N1125 N 0.30011 0.5823 0.70459 0.0
N1126 N 0.27029 0.6356 0.70576 0.0
C1127 C 0.29554 0.63829 0.72766 0.0
C1128 C 0.31184 0.60929 0.72693 0.0
C1129 C 0.17134 0.55013 0.52692 0.0
C1130 C 0.18412 0.58095 0.51376 0.0
C1131 C 0.13845 0.53409 0.52033 0.0
C1132 C 0.11819 0.54849 0.50023 0.0
H1133 H 0.18629 0.53935 0.54331 0.0
H1134 H 0.12862 0.51093 0.53154 0.0
S1135 S 0.1406 0.62905 0.4606 0.0
N1136 N 0.17447 0.62515 0.48006 0.0
N1137 N 0.11304 0.5949 0.46745 0.0
C1138 C 0.13119 0.57858 0.4862 0.0
C1139 C 0.16421 0.59489 0.49306 0.0
C1140 C 0.71111 0.92659 0.71742 0.0
C1141 C 0.70059 0.94242 0.74557 0.0
C1142 C 0.73351 0.9045 0.71881 0.0
C1143 C 0.74618 0.89744 0.74837 0.0
H1144 H 0.70135 0.93056 0.69413 0.0
H1145 H 0.73979 0.89163 0.69657 0.0
S1146 S 0.72724 0.93286 0.82903 0.0
N1147 N 0.70536 0.95023 0.80395 0.0
N1148 N 0.74754 0.90864 0.80638 0.0
C1149 C 0.73708 0.91422 0.77665 0.0
C1150 C 0.71419 0.9367 0.7753 0.0
C1151 C 0.69939 0.96767 0.49308 0.0
C1152 C 0.69708 0.93214 0.4967 0.0
C1153 C 0.67156 0.983 0.49319 0.0
C1154 C 0.64024 0.96348 0.49704 0.0
H1155 H 0.72298 0.98397 0.49034 0.0
H1156 H 0.67465 0.01039 0.49039 0.0
S1157 S 0.61997 0.86894 0.50434 0.0
N1158 N 0.66016 0.87752 0.50219 0.0
N1159 N 0.60816 0.9063 0.50258 0.0
C1160 C 0.6374 0.92786 0.50014 0.0
C1161 C 0.66568 0.91221 0.49992 0.0
C1162 C 0.31546 0.41374 0.73889 0.0
C1163 C 0.33485 0.41563 0.71195 0.0
C1164 C 0.29524 0.38239 0.74481 0.0
C1165 C 0.29335 0.35231 0.72364 0.0
H1166 H 0.31723 0.43608 0.75633 0.0
H1167 H 0.28128 0.38156 0.76623 0.0
S1168 S 0.33735 0.34412 0.6488 0.0
N1169 N 0.35006 0.38489 0.66355 0.0
N1170 N 0.31093 0.32656 0.67408 0.0
C1171 C 0.31149 0.35418 0.69606 0.0
C1172 C 0.33257 0.38574 0.69037 0.0
C1173 C 0.21933 0.59785 0.20525 0.0
C1174 C 0.1858 0.5917 0.21112 0.0
C1175 C 0.23909 0.63042 0.21478 0.0
C1176 C 0.22581 0.65661 0.23146 0.0
H1177 H 0.22998 0.57783 0.19265 0.0
H1178 H 0.26461 0.63527 0.20893 0.0
S1179 S 0.13997 0.65217 0.25382 0.0
N1180 N 0.14054 0.61374 0.23503 0.0
N1181 N 0.17784 0.67417 0.25397 0.0
C1182 C 0.1927 0.65011 0.23836 0.0
C1183 C 0.17261 0.61771 0.22796 0.0
C1184 C 0.52539 0.65631 0.437 0.0
C1185 C 0.49472 0.6653 0.44215 0.0
C1186 C 0.53624 0.63172 0.45456 0.0
C1187 C 0.51638 0.61475 0.47705 0.0
H1188 H 0.54062 0.66739 0.41862 0.0
H1189 H 0.5593 0.62448 0.44912 0.0
S1190 S 0.43807 0.63468 0.50522 0.0
N1191 N 0.44768 0.65975 0.47619 0.0
N1192 N 0.46797 0.61304 0.50801 0.0
C1193 C 0.48745 0.62603 0.48476 0.0
C1194 C 0.47655 0.65129 0.46744 0.0
C1195 C 0.64163 0.25707 0.68695 0.0
C1196 C 0.63751 0.28947 0.67814 0.0
C1197 C 0.66717 0.25442 0.70847 0.0
C1198 C 0.68875 0.28417 0.72243 0.0
H1199 H 0.62588 0.23355 0.67607 0.0
H1200 H 0.67013 0.22895 0.71414 0.0
S1201 S 0.68866 0.37475 0.70687 0.0
N1202 N 0.65759 0.35168 0.68415 0.0
N1203 N 0.70464 0.34675 0.72607 0.0
C1204 C 0.68451 0.31669 0.71437 0.0
C1205 C 0.6591 0.31933 0.69174 0.0
C1206 C 0.96208 0.34703 0.95067 0.0
C1207 C 0.98594 0.33553 0.93141 0.0
C1208 C 0.96681 0.38105 0.96527 0.0
C1209 C 0.99584 0.40455 0.96167 0.0
H1210 H 0.93936 0.32968 0.95448 0.0
H1211 H 0.94792 0.38879 0.97987 0.0
S1212 S 0.06527 0.38869 0.91255 0.0
N1213 N 0.03911 0.35134 0.90857 0.0
N1214 N 0.04825 0.415 0.93644 0.0
C1215 C 0.0198 0.39367 0.94232 0.0
C1216 C 0.0148 0.35925 0.92707 0.0
C1217 C 0.93845 0.75444 0.17312 0.0
C1218 C 0.96613 0.77619 0.18899 0.0
C1219 C 0.90777 0.75002 0.18673 0.0
C1220 C 0.90342 0.76742 0.21659 0.0
H1221 H 0.94022 0.7412 0.14963 0.0
H1222 H 0.88709 0.73361 0.17326 0.0
S1223 S 0.96829 0.82396 0.26988 0.0
N1224 N 0.98747 0.81285 0.2378 0.0
N1225 N 0.92953 0.80499 0.26286 0.0
C1226 C 0.93087 0.78836 0.23324 0.0
C1227 C 0.96229 0.79259 0.21959 0.0
C1228 C 0.52414 0.36915 0.06419 0.0
C1229 C 0.50348 0.33936 0.04904 0.0
C1230 C 0.52933 0.40058 0.05038 0.0
C1231 C 0.51402 0.40404 0.02066 0.0
H1232 H 0.53622 0.36846 0.08729 0.0
H1233 H 0.54515 0.42257 0.0637 0.0
S1234 S 0.459 0.33328 0.96984 0.0
N1235 N 0.46876 0.31483 0.00156 0.0
N1236 N 0.47831 0.37405 0.97578 0.0
C1237 C 0.49404 0.37418 0.00464 0.0
C1238 C 0.4888 0.34193 0.01876 0.0
C1239 C 0.94438 0.24629 0.28477 0.0
C1240 C 0.95975 0.26661 0.31202 0.0
C1241 C 0.92112 0.25817 0.26631 0.0
C1242 C 0.91175 0.29001 0.27548 0.0
H1243 H 0.94894 0.22042 0.2788 0.0
H1244 H 0.90833 0.24081 0.24651 0.0
S1245 S 0.94788 0.35394 0.34326 0.0
N1246 N 0.96713 0.32133 0.34549 0.0
N1247 N 0.9221 0.34296 0.31166 0.0
C1248 C 0.92874 0.31151 0.30139 0.0
C1249 C 0.95306 0.29986 0.31957 0.0
C1250 C 0.00691 0.66887 0.53131 0.0
C1251 C 0.99025 0.66132 0.55931 0.0
C1252 C 0.01133 0.64224 0.50826 0.0
C1253 C -0.00043 0.60727 0.51266 0.0
H1254 H 0.01768 0.69536 0.52773 0.0
H1255 H 0.02499 0.649 0.48741 0.0
S1256 S 0.94949 0.57422 0.57894 0.0
N1257 N 0.95848 0.61654 0.58802 0.0
N1258 N 0.9673 0.56687 0.54506 0.0
C1259 C 0.98156 0.59956 0.5397 0.0
C1260 C 0.97673 0.62651 0.56291 0.0
C1261 C 0.62735 0.74033 0.81573 0.0
C1262 C 0.61265 0.7693 0.81302 0.0
C1263 C 0.65455 0.73554 0.79799 0.0
C1264 C 0.66832 0.75983 0.77723 0.0
H1265 H 0.61789 0.72129 0.83184 0.0
H1266 H 0.66568 0.71349 0.80166 0.0
S1267 S 0.63855 0.83961 0.76082 0.0
N1268 N 0.61344 0.82201 0.78713 0.0
N1269 N 0.66441 0.81324 0.75411 0.0
C1270 C 0.65328 0.78838 0.77368 0.0
C1271 C 0.62552 0.79307 0.79148 0.0
C1272 C 0.47434 0.55893 0.62767 0.0
C1273 C 0.45257 0.52807 0.63229 0.0
C1274 C 0.49403 0.56098 0.60075 0.0
C1275 C 0.49264 0.5322 0.57782 0.0
H1276 H 0.47775 0.58072 0.64591 0.0
H1277 H 0.51136 0.58475 0.59857 0.0
S1278 S 0.43874 0.44581 0.57918 0.0
N1279 N 0.42985 0.46884 0.61137 0.0
N1280 N 0.46665 0.47231 0.56162 0.0
C1281 C 0.46977 0.50185 0.5817 0.0
C1282 C 0.4498 0.49991 0.60872 0.0
C1283 C 0.78139 0.22803 0.92729 0.0
C1284 C 0.76158 0.19518 0.92813 0.0
C1285 C 0.77916 0.24678 0.90086 0.0
C1286 C 0.75682 0.23315 0.87507 0.0
H1287 H 0.79784 0.23964 0.94751 0.0
H1288 H 0.79466 0.27211 0.90071 0.0
S1289 S 0.70338 0.14596 0.86431 0.0
N1290 N 0.72162 0.14835 0.90016 0.0
N1291 N 0.71722 0.18349 0.85043 0.0
C1292 C 0.73775 0.1998 0.87532 0.0
C1293 C 0.74023 0.18077 0.90196 0.0
C1294 C 0.03347 0.45489 0.12468 0.0
C1295 C 0.06593 0.47191 0.13226 0.0
C1296 C 0.01667 0.46131 0.09712 0.0
C1297 C 0.03154 0.4859 0.0772 0.0
H1298 H 0.02046 0.43818 0.14112 0.0
H1299 H 0.99143 0.44829 0.0923 0.0
S1300 S 0.11556 0.53912 0.08869 0.0
N1301 N 0.11242 0.5138 0.11802 0.0
N1302 N 0.08017 0.5284 0.06813 0.0
C1303 C 0.06418 0.50271 0.08454 0.0
C1304 C 0.08162 0.49496 0.1116 0.0
C1305 C 0.76217 0.8223 0.39351 0.0
C1306 C 0.77391 0.80087 0.41434 0.0
C1307 C 0.76324 0.81597 0.35997 0.0
C1308 C 0.77667 0.78842 0.34589 0.0
H1309 H 0.75278 0.84465 0.40315 0.0
H1310 H 0.75391 0.8331 0.3449 0.0
S1311 S 0.80641 0.72176 0.38881 0.0
N1312 N 0.79622 0.74854 0.41764 0.0
N1313 N 0.79885 0.73757 0.35488 0.0
C1314 C 0.78744 0.76615 0.36616 0.0
C1315 C 0.78589 0.77213 0.40025 0.0
C1316 C 0.47905 0.51029 0.81632 0.0
C1317 C 0.44748 0.5158 0.8087 0.0
C1318 C 0.48717 0.50093 0.84641 0.0
C1319 C 0.46418 0.49711 0.87028 0.0
H1320 H 0.49721 0.51148 0.79825 0.0
H1321 H 0.51168 0.49646 0.85091 0.0
S1322 S 0.37906 0.51146 0.8637 0.0
N1323 N 0.39357 0.51861 0.82815 0.0
N1324 N 0.40937 0.50216 0.88542 0.0
C1325 C 0.43319 0.50472 0.86386 0.0
C1326 C 0.42473 0.51392 0.83291 0.0
C1327 C 0.75703 0.20636 0.11762 0.0
C1328 C 0.78124 0.21242 0.09524 0.0
C1329 C 0.76061 0.22527 0.1476 0.0
C1330 C 0.78797 0.25174 0.15586 0.0
H1331 H 0.73509 0.18678 0.11184 0.0
H1332 H 0.74189 0.21875 0.16454 0.0
S1333 S 0.859 0.27644 0.10579 0.0
N1334 N 0.83409 0.2453 0.08317 0.0
N1335 N 0.84062 0.28197 0.13975 0.0
C1336 C 0.81258 0.25799 0.13367 0.0
C1337 C 0.80924 0.23799 0.10323 0.0
C1338 C 0.07522 0.54749 0.31412 0.0
C1339 C 0.07673 0.51541 0.29734 0.0
C1340 C 0.05874 0.5492 0.34234 0.0
C1341 C 0.04313 0.51893 0.35476 0.0
H1342 H 0.08713 0.57161 0.30561 0.0
H1343 H 0.0588 0.57448 0.35481 0.0
S1344 S 0.03889 0.42854 0.3197 0.0
N1345 N 0.06058 0.45261 0.29473 0.0
N1346 N 0.02931 0.45597 0.34829 0.0
C1347 C 0.04378 0.48664 0.33809 0.0
C1348 C 0.06084 0.48484 0.30929 0.0
C1349 C 0.79047 0.79454 0.61588 0.0
C1350 C 0.76524 0.80292 0.59679 0.0
C1351 C 0.78474 0.78187 0.64577 0.0
C1352 C 0.75331 0.77563 0.65787 0.0
H1353 H 0.81525 0.79809 0.60783 0.0
H1354 H 0.80527 0.77654 0.6594 0.0
S1355 S 0.67884 0.79561 0.61932 0.0
N1356 N 0.70761 0.80645 0.59372 0.0
N1357 N 0.69668 0.78087 0.64946 0.0
C1358 C 0.72775 0.78434 0.63956 0.0
C1359 C 0.73376 0.79841 0.60924 0.0
C1360 C 0.70054 0.4856 0.52289 0.0
C1361 C 0.69588 0.45447 0.50234 0.0
C1362 C 0.67727 0.50708 0.5237 0.0
C1363 C 0.64894 0.49856 0.5035 0.0
H1364 H 0.72232 0.4935 0.53855 0.0
H1365 H 0.68153 0.53052 0.54006 0.0
S1366 S 0.62314 0.41867 0.44776 0.0
N1367 N 0.65917 0.41528 0.46309 0.0
N1368 N 0.61603 0.45592 0.46417 0.0
C1369 C 0.64365 0.46738 0.48325 0.0
C1370 C 0.66697 0.44528 0.48277 0.0
C1371 C 0.13991 0.10242 0.49053 0.0
C1372 C 0.16881 0.09333 0.47897 0.0
C1373 C 0.11116 0.07785 0.49152 0.0
C1374 C 0.10938 0.04284 0.48038 0.0
H1375 H 0.13924 0.12903 0.49886 0.0
H1376 H 0.08984 0.08692 0.50024 0.0
S1377 S 0.17861 0.00433 0.45054 0.0
N1378 N 0.1946 0.04598 0.45856 0.0
N1379 N 0.13972 -0.00034 0.45942 0.0
C1380 C 0.13824 0.03287 0.46971 0.0
C1381 C 0.1681 0.05808 0.4693 0.0
C1382 C 0.20096 0.8961 0.7447 0.0
C1383 C 0.21837 0.92659 0.76215 0.0
C1384 C 0.21565 0.86727 0.73695 0.0
C1385 C 0.24858 0.86741 0.74616 0.0
H1386 H 0.17555 0.89422 0.7372 0.0
H1387 H 0.20068 0.84439 0.7241 0.0
S1388 S 0.30556 0.94126 0.79134 0.0
N1389 N 0.27091 0.95524 0.78779 0.0
N1390 N 0.29837 0.90158 0.77306 0.0
C1391 C 0.26651 0.89803 0.76301 0.0
C1392 C 0.25149 0.92735 0.77104 0.0
C1393 C 0.37333 0.96465 0.01579 0.0
C1394 C 0.35282 0.95603 -0.01194 0.0
C1395 C 0.40478 0.98402 0.01453 0.0
C1396 C 0.41684 -0.00528 -0.01471 0.0
H1397 H 0.36626 0.95341 0.03778 0.0
H1398 H 0.42054 0.98771 0.03608 0.0
S1399 S 0.369 0.98589 0.90804 0.0
N1400 N 0.34361 0.96488 0.93235 0.0
N1401 N 0.40339 0.00136 0.92958 0.0
C1402 C 0.39504 -0.01012 0.95833 0.0
C1403 C 0.3627 0.9705 0.95986 0.0
C1404 C 0.82069 0.59066 0.72304 0.0
C1405 C 0.83938 0.58889 0.75121 0.0
C1406 C 0.79817 0.6129 0.7225 0.0
C1407 C 0.7934 0.63383 0.75018 0.0
H1408 H 0.82431 0.57571 0.70093 0.0
H1409 H 0.78569 0.61493 0.69993 0.0
S1410 S 0.83242 0.63497 0.83113 0.0
N1411 N 0.84895 0.60733 0.8082 0.0
N1412 N 0.80652 0.64874 0.80728 0.0
C1413 C 0.8104 0.63068 0.77892 0.0
C1414 C 0.83348 0.60836 0.77941 0.0
C1415 C 0.86541 0.59912 -0.00412 0.0
C1416 C 0.83663 0.58009 0.97945 0.0
C1417 C 0.89305 0.58416 0.00085 0.0
C1418 C 0.89339 0.5496 -0.01069 0.0
H1419 H 0.86675 0.62594 0.00493 0.0
H1420 H 0.91459 0.60007 0.01338 0.0
S1421 S 0.82412 0.48752 0.94661 0.0
N1422 N 0.81008 0.52376 0.95306 0.0
N1423 N 0.86208 0.49628 0.96192 0.0
C1424 C 0.86483 0.53011 0.97321 0.0
C1425 C 0.83651 0.54514 0.96843 0.0
C1426 C 0.20886 0.11687 0.74502 0.0
C1427 C 0.20721 0.10329 0.77491 0.0
C1428 C 0.22874 0.149 0.74118 0.0
C1429 C 0.24795 0.16854 0.76707 0.0
H1430 H 0.19347 0.10324 0.72477 0.0
H1431 H 0.2288 0.15876 0.71786 0.0
S1432 S 0.25152 0.145 0.85048 0.0
N1433 N 0.22562 0.11221 0.83099 0.0
N1434 N 0.26399 0.17215 0.82363 0.0
C1435 C 0.24709 0.15491 0.79692 0.0
C1436 C 0.2264 0.1224 0.80092 0.0
C1437 C 0.33948 0.9147 0.29488 0.0
C1438 C 0.34238 0.93253 0.26741 0.0
C1439 C 0.31457 0.88591 0.2964 0.0
C1440 C 0.2925 0.87375 0.27001 0.0
H1441 H 0.35811 0.92138 0.31421 0.0
H1442 H 0.31506 0.87106 0.31681 0.0
S1443 S 0.28532 0.91721 0.19605 0.0
N1444 N 0.31799 0.94074 0.21611 0.0
N1445 N 0.27079 0.88624 0.21867 0.0
C1446 C 0.29253 0.89437 0.24432 0.0
C1447 C 0.31784 0.92389 0.24296 0.0
C1448 C 0.5118 0.35893 0.54728 0.0
C1449 C 0.54286 0.36038 0.56202 0.0
C1450 C 0.50539 0.38644 0.53049 0.0
C1451 C 0.52998 0.41586 0.52792 0.0
H1452 H 0.49289 0.33601 0.5477 0.0
H1453 H 0.48141 0.38435 0.51897 0.0
S1454 S 0.61387 0.4334 0.56695 0.0
N1455 N 0.59702 0.39447 0.57601 0.0
N1456 N 0.58555 0.44584 0.54514 0.0
C1457 C 0.56059 0.41792 0.54419 0.0
C1458 C 0.56687 0.39024 0.56108 0.0
C1459 C 0.38943 0.71864 0.285 0.0
C1460 C 0.3938 0.73291 0.31702 0.0
C1461 C 0.36547 0.72723 0.26464 0.0
C1462 C 0.34564 0.75069 0.27563 0.0
H1463 H 0.40392 0.70016 0.27595 0.0
H1464 H 0.36214 0.71499 0.24027 0.0
S1465 S 0.35097 0.79812 0.35682 0.0
N1466 N 0.37852 0.77329 0.35836 0.0
N1467 N 0.33431 0.79021 0.32003 0.0
C1468 C 0.35106 0.76629 0.3073 0.0
C1469 C 0.37498 0.75717 0.32802 0.0
C1470 C 0.05854 0.65969 0.07163 0.0
C1471 C 0.05231 0.68609 0.05356 0.0
C1472 C 0.05615 0.62589 0.05726 0.0
C1473 C 0.04668 0.61748 0.02464 0.0
H1474 H 0.06589 0.66538 0.09686 0.0
H1475 H 0.06087 0.60602 0.07193 0.0
S1476 S 0.02761 0.67734 0.96716 0.0
N1477 N 0.03708 0.70204 0.00141 0.0
N1478 N 0.03087 0.63779 0.97471 0.0
C1479 C 0.04009 0.64355 0.0064 0.0
C1480 C 0.04341 0.67816 0.02081 0.0
C1481 C 0.09918 0.29279 0.79927 0.0
C1482 C 0.08093 0.26405 0.81242 0.0
C1483 C 0.1268 0.28997 0.7816 0.0
C1484 C 0.13762 0.25836 0.77649 0.0
H1485 H 0.09235 0.31791 0.80292 0.0
H1486 H 0.14031 0.3131 0.77264 0.0
S1487 S 0.09842 0.17494 0.80508 0.0
N1488 N 0.07545 0.20248 0.8183 0.0
N1489 N 0.12755 0.19745 0.78539 0.0
C1490 C 0.11934 0.2292 0.78888 0.0
C1491 C 0.091 0.23197 0.80675 0.0
C1492 C 0.53844 0.64908 0.92796 0.0
C1493 C 0.52461 0.67432 0.94535 0.0
C1494 C 0.54085 0.61808 0.94078 0.0
C1495 C 0.53043 0.61182 0.97172 0.0
H1496 H 0.5457 0.65241 0.90367 0.0
H1497 H 0.54997 0.59837 0.926 0.0
S1498 S 0.49549 0.67113 0.02808 0.0
N1499 N 0.50223 0.69201 -0.00419 0.0
N1500 N 0.50783 0.63408 0.02013 0.0
C1501 C 0.51848 0.63769 -0.00992 0.0
C1502 C 0.51527 0.66888 0.9768 0.0
C1503 C 0.09716 0.74933 0.70709 0.0
C1504 C 0.0894 0.75077 0.6745 0.0
C1505 C 0.12744 0.74278 0.71705 0.0
C1506 C 0.15085 0.73727 0.6947 0.0
H1507 H 0.07935 0.75242 0.72491 0.0
H1508 H 0.13259 0.74229 0.74247 0.0
S1509 S 0.14176 0.73677 0.6065 0.0
N1510 N 0.10696 0.7453 0.61982 0.0
N1511 N 0.16425 0.73316 0.63865 0.0
C1512 C 0.14354 0.73896 0.66209 0.0
C1513 C 0.11271 0.74578 0.65194 0.0
C1514 C 0.04734 0.38347 0.43107 0.0
C1515 C 0.01925 0.35713 0.43118 0.0
C1516 C 0.04817 0.41684 0.44659 0.0
C1517 C 0.02095 0.42472 0.46259 0.0
H1518 H 0.06904 0.37808 0.41964 0.0
H1519 H 0.07065 0.43596 0.44744 0.0
S1520 S 0.94065 0.36691 0.4678 0.0
N1521 N 0.96264 0.34289 0.44712 0.0
N1522 N 0.96485 0.40511 0.47606 0.0
C1523 C 0.99241 0.39943 0.46161 0.0
C1524 C 0.99137 0.36575 0.44593 0.0
C1525 C 0.40267 0.28317 0.17727 0.0
C1526 C 0.42195 0.2604 0.18767 0.0
C1527 C 0.37502 0.28865 0.1939 0.0
C1528 C 0.3661 0.27147 0.22123 0.0
H1529 H 0.40778 0.29512 0.15526 0.0
H1530 H 0.35938 0.30448 0.18407 0.0
S1531 S 0.41156 0.21431 0.26129 0.0
N1532 N 0.43266 0.2246 0.22969 0.0
N1533 N 0.3804 0.23443 0.26005 0.0
C1534 C 0.38645 0.25082 0.23309 0.0
C1535 C 0.41454 0.24544 0.21653 0.0
C1536 C 0.57809 0.46822 0.36753 0.0
C1537 C 0.59259 0.50094 0.35855 0.0
C1538 C 0.55817 0.46532 0.3943 0.0
C1539 C 0.5525 0.49501 0.41292 0.0
H1540 H 0.58064 0.44494 0.35287 0.0
H1541 H 0.54667 0.4398 0.40008 0.0
S1542 S 0.58596 0.58636 0.3996 0.0
N1543 N 0.60114 0.56327 0.3713 0.0
N1544 N 0.56359 0.55794 0.42039 0.0
C1545 C 0.56796 0.52763 0.40469 0.0
C1546 C 0.58808 0.53053 0.37788 0.0
C1547 C 0.29402 0.80085 0.07566 0.0
C1548 C 0.27158 0.82019 0.06469 0.0
C1549 C 0.2919 0.78879 0.10568 0.0
C1550 C 0.26709 0.79527 0.1257 0.0
H1551 H 0.31395 0.79539 0.06128 0.0
H1552 H 0.31002 0.77447 0.11328 0.0
S1553 S 0.20228 0.84455 0.10901 0.0
N1554 N 0.22374 0.84541 0.07648 0.0
N1555 N 0.2196 0.82205 0.13339 0.0
C1556 C 0.24416 0.81412 0.11525 0.0
C1557 C 0.24646 0.8268 0.08458 0.0
C1558 C 0.98748 0.55189 0.86903 0.0
C1559 C 0.97357 0.51935 0.85277 0.0
C1560 C 0.00623 0.55433 0.89784 0.0
C1561 C 0.01136 0.5243 0.91094 0.0
H1562 H 0.98408 0.57551 0.85937 0.0
H1563 H 0.01616 0.57962 0.91019 0.0
S1564 S 0.98094 0.43315 0.87805 0.0
N1565 N 0.96639 0.45648 0.85258 0.0
N1566 N 0.0022 0.46154 0.90576 0.0
C1567 C 0.99792 0.49183 0.89491 0.0
C1568 C 0.9788 0.48922 0.86605 0.0
C1569 C 0.23881 0.23262 0.59068 0.0
C1570 C 0.26301 0.21689 0.57579 0.0
C1571 C 0.23867 0.23941 0.62421 0.0
C1572 C 0.26308 0.23142 0.6444 0.0
H1573 H 0.21921 0.23911 0.57638 0.0
H1574 H 0.21952 0.25148 0.63433 0.0
S1575 S 0.33258 0.19088 0.618 0.0
N1576 N 0.31227 0.19385 0.58428 0.0
N1577 N 0.3125 0.20731 0.64705 0.0
C1578 C 0.28777 0.21625 0.62991 0.0
C1579 C 0.28762 0.20881 0.59576 0.0
C1580 C 0.5603 0.4965 0.17112 0.0
C1581 C 0.59288 0.49663 0.1811 0.0
C1582 C 0.55283 0.50827 0.1419 0.0
C1583 C 0.57757 0.5201 0.1213 0.0
H1584 H 0.54048 0.48873 0.1867 0.0
H1585 H 0.52742 0.50795 0.13535 0.0
S1586 S 0.66638 0.52425 0.13486 0.0
N1587 N 0.65003 0.50874 0.16722 0.0
N1588 N 0.63548 0.52979 0.11168 0.0
C1589 C 0.60996 0.5188 0.13001 0.0
C1590 C 0.61775 0.50718 0.16002 0.0
C1591 C 0.24236 0.78534 0.88439 0.0
C1592 C 0.2628 0.81771 0.89259 0.0
C1593 C 0.24195 0.76849 0.85338 0.0
C1594 C 0.26226 0.78351 0.83012 0.0
H1595 H 0.22764 0.77252 0.90228 0.0
H1596 H 0.2259 0.74353 0.84772 0.0
S1597 S 0.32096 0.86775 0.84134 0.0
N1598 N 0.3038 0.86405 0.8761 0.0
N1599 N 0.30371 0.8326 0.81816 0.0
C1600 C 0.28269 0.81604 0.83844 0.0
C1601 C 0.28274 0.83314 0.86965 0.0
C1602 C 0.96095 0.49846 0.66341 0.0
C1603 C 0.97175 0.52899 0.68366 0.0
C1604 C 0.97185 0.49494 0.63253 0.0
C1605 C 0.99399 0.52186 0.62091 0.0
H1606 H 0.94444 0.47678 0.67182 0.0
H1607 H 0.96291 0.47081 0.61777 0.0
S1608 S 0.02904 0.60738 0.66482 0.0
N1609 N 0.00532 0.58671 0.69064 0.0
N1610 N 0.02593 0.58048 0.63177 0.0
C1611 C 0.00479 0.55282 0.64086 0.0
C1612 C 0.99356 0.55634 0.67254 0.0
C1613 C 0.25104 0.20409 0.36894 0.0
C1614 C 0.2761 0.21144 0.39321 0.0
C1615 C 0.25487 0.21827 0.33947 0.0
C1616 C 0.28369 0.24126 0.33317 0.0
H1617 H 0.22769 0.18811 0.37322 0.0
H1618 H 0.23433 0.21239 0.32211 0.0
S1619 S 0.35791 0.26661 0.38765 0.0
N1620 N 0.33178 0.24107 0.40811 0.0
N1621 N 0.33885 0.26853 0.35291 0.0
C1622 C 0.30959 0.24767 0.35667 0.0
C1623 C 0.30583 0.23259 0.38663 0.0
C1624 C 0.36495 0.56039 0.45173 0.0
C1625 C 0.34635 0.56392 0.47887 0.0
C1626 C 0.38781 0.53851 0.45039 0.0
C1627 C 0.39272 0.51919 0.47607 0.0
H1628 H 0.36278 0.57565 0.43187 0.0
H1629 H 0.40283 0.53808 0.42976 0.0
S1630 S 0.34682 0.51534 0.55048 0.0
N1631 N 0.33194 0.5435 0.53053 0.0
N1632 N 0.37491 0.50242 0.52796 0.0
C1633 C 0.37299 0.521 0.50251 0.0
C1634 C 0.34984 0.5434 0.50396 0.0
C1635 C 0.87889 0.94578 0.5411 0.0
C1636 C 0.86568 0.92825 0.51166 0.0
C1637 C 0.90947 0.96837 0.54317 0.0
C1638 C 0.9282 0.97405 0.51595 0.0
H1639 H 0.86639 0.94054 0.56293 0.0
H1640 H 0.91913 0.98024 0.56668 0.0
S1641 S 0.90248 0.93686 0.43266 0.0
N1642 N 0.87208 0.9199 0.45431 0.0
N1643 N 0.92963 0.96226 0.45818 0.0
C1644 C 0.9144 0.95796 0.48611 0.0
C1645 C 0.88315 0.93503 0.484 0.0
C1646 C 0.82552 0.11807 0.22288 0.0
C1647 C 0.83932 0.10903 0.2513 0.0
C1648 C 0.80944 0.14644 0.22309 0.0
C1649 C 0.80704 0.16736 0.25161 0.0
H1650 H 0.8274 0.10333 0.20016 0.0
H1651 H 0.79996 0.15285 0.20055 0.0
S1652 S 0.8371 0.15443 0.33276 0.0
N1653 N 0.84758 0.12292 0.30917 0.0
N1654 N 0.81847 0.17651 0.30907 0.0
C1655 C 0.82009 0.15841 0.28019 0.0
C1656 C 0.83586 0.1292 0.28017 0.0
C1657 C 0.6742 0.04599 0.02201 0.0
C1658 C 0.69153 0.06533 -0.00053 0.0
C1659 C 0.64094 0.032 0.01645 0.0
C1660 C 0.62415 0.03729 -0.01166 0.0
H1661 H 0.68543 0.04502 0.04545 0.0
H1662 H 0.62774 0.01967 0.03552 0.0
S1663 S 0.66037 0.08047 0.91942 0.0
N1664 N 0.69123 0.0844 0.94601 0.0
N1665 N 0.62834 0.05824 0.93556 0.0
C1666 C 0.64218 0.05258 0.96384 0.0
C1667 C 0.67618 0.06659 0.96944 0.0
C1668 C 0.21699 0.42729 0.22942 0.0
C1669 C 0.19917 0.43617 0.25578 0.0
C1670 C 0.24008 0.40633 0.2322 0.0
C1671 C 0.24587 0.39315 0.26134 0.0
H1672 H 0.21268 0.4361 0.20624 0.0
H1673 H 0.25223 0.39898 0.21089 0.0
S1674 S 0.2066 0.41006 0.33793 0.0
N1675 N 0.18983 0.43175 0.31235 0.0
N1676 N 0.23312 0.39167 0.31755 0.0
C1677 C 0.22932 0.40308 0.28833 0.0
C1678 C 0.2059 0.42473 0.28553 0.0
C1679 C 0.18412 0.43758 0.01941 0.0
C1680 C 0.19547 0.42598 -0.01027 0.0
C1681 C 0.15892 0.45692 0.02109 0.0
C1682 C 0.14426 0.46587 -0.0068 0.0
H1683 H 0.19475 0.43166 0.04161 0.0
H1684 H 0.15089 0.46498 0.04444 0.0
S1685 S 0.1629 0.44017 0.90945 0.0
N1686 N 0.18834 0.42379 0.93162 0.0
N1687 N 0.14179 0.4603 0.935 0.0
C1688 C 0.1551 0.45432 0.96343 0.0
C1689 C 0.18043 0.43437 0.96164 0.0
C1690 C 0.81016 0.92125 0.23122 0.0
C1691 C 0.83534 0.91856 0.21 0.0
C1692 C 0.78888 0.89149 0.23951 0.0
C1693 C 0.79252 0.85807 0.22746 0.0
H1694 H 0.80761 0.94633 0.24245 0.0
H1695 H 0.77008 0.8946 0.25623 0.0
S1696 S 0.85106 0.83685 0.16757 0.0
N1697 N 0.85977 0.8795 0.17412 0.0
N1698 N 0.82083 0.82415 0.19094 0.0
C1699 C 0.8166 0.85508 0.20534 0.0
C1700 C 0.83767 0.88518 0.19625 0.0
C1701 C 0.69533 0.10366 0.75156 0.0
C1702 C 0.67484 0.09569 0.72362 0.0
C1703 C 0.719 0.13437 0.75559 0.0
C1704 C 0.72284 0.15724 0.73153 0.0
H1705 H 0.69165 0.08735 0.77106 0.0
H1706 H 0.73337 0.14089 0.77803 0.0
S1707 S 0.67563 0.1454 0.65312 0.0
N1708 N 0.66063 0.11094 0.6712 0.0
N1709 N 0.70475 0.16828 0.67806 0.0
C1710 C 0.7035 0.14798 0.7027 0.0
C1711 C 0.67952 0.1172 0.69894 0.0
loop_
_geom_bond_atom_site_label_1
_geom_bond_atom_site_label_2
_geom_bond_distance
_geom_bond_site_symmetry_2
_ccdc_geom_bond_type
Zn0 O3 2.031 1_655 S
Zn0 O5 2.049 . S
Zn0 O10 2.067 . S
Zn1 O2 1.962 . S
Zn1 O4 1.986 . S
Zn1 O6 1.996 . S
Zn1 O9 1.943 . S
O2 Zn1 1.962 . S
O2 C7 1.254 . S
O3 Zn0 2.031 1_455 S
O3 C7 1.269 . S
O4 Zn1 1.986 . S
O4 C11 1.262 . S
O5 Zn0 2.049 . S
O5 C13 1.260 1_655 S
O6 Zn1 1.996 . S
O6 C13 1.257 . S
C7 O2 1.254 . S
C7 O3 1.269 . S
C8 O9 1.249 1_655 S
C8 O10 1.270 . S
O9 Zn1 1.943 . S
O9 C8 1.249 1_455 S
O10 Zn0 2.067 . S
O10 C8 1.270 . S
C11 O4 1.262 . S
C11 O12 1.232 . S
O12 C11 1.232 . S
C13 O5 1.260 1_455 S
C13 O6 1.257 . S
Zn14 O17 2.031 1_455 S
Zn14 O19 2.049 . S
Zn14 O24 2.067 . S
Zn15 O16 1.962 1_455 S
Zn15 O18 1.986 . S
Zn15 O20 1.996 . S
Zn15 O23 1.943 . S
O16 Zn15 1.962 1_655 S
O16 C21 1.254 . S
O17 Zn14 2.031 1_655 S
O17 C21 1.269 . S
O18 Zn15 1.986 . S
O18 C25 1.262 . S
O19 Zn14 2.049 . S
O19 C27 1.260 . S
O20 Zn15 1.996 . S
O20 C27 1.257 . S
C21 O16 1.254 . S
C21 O17 1.269 . S
C22 O23 1.249 . S
C22 O24 1.270 . S
O23 Zn15 1.943 . S
O23 C22 1.249 . S
O24 Zn14 2.067 . S
O24 C22 1.270 . S
C25 O18 1.262 . S
C25 O26 1.232 1_455 S
O26 C25 1.232 1_655 S
C27 O19 1.260 . S
C27 O20 1.257 . S
Zn28 O31 2.031 . S
Zn28 O33 2.049 . S
Zn28 O38 2.067 . S
Zn29 O30 1.962 . S
Zn29 O32 1.986 . S
Zn29 O34 1.996 . S
Zn29 O37 1.943 . S
O30 Zn29 1.962 . S
O30 C35 1.254 . S
O31 Zn28 2.031 . S
O31 C35 1.269 . S
O32 Zn29 1.986 . S
O32 C39 1.262 . S
O33 Zn28 2.049 . S
O33 C41 1.260 . S
O34 Zn29 1.996 . S
O34 C41 1.257 . S
C35 O30 1.254 . S
C35 O31 1.269 . S
C36 O37 1.249 . S
C36 O38 1.270 . S
O37 Zn29 1.943 . S
O37 C36 1.249 . S
O38 Zn28 2.067 . S
O38 C36 1.270 . S
C39 O32 1.262 . S
C39 O40 1.232 . S
O40 C39 1.232 . S
C41 O33 1.260 . S
C41 O34 1.257 . S
Zn42 O45 2.031 . S
Zn42 O47 2.049 . S
Zn42 O52 2.067 . S
Zn43 O44 1.962 . S
Zn43 O46 1.986 . S
Zn43 O48 1.996 . S
Zn43 O51 1.943 . S
O44 Zn43 1.962 . S
O44 C49 1.254 . S
O45 Zn42 2.031 . S
O45 C49 1.269 . S
O46 Zn43 1.986 . S
O46 C53 1.262 . S
O47 Zn42 2.049 . S
O47 C55 1.260 . S
O48 Zn43 1.996 . S
O48 C55 1.257 . S
C49 O44 1.254 . S
C49 O45 1.269 . S
C50 O51 1.249 . S
C50 O52 1.270 . S
O51 Zn43 1.943 . S
O51 C50 1.249 . S
O52 Zn42 2.067 . S
O52 C50 1.270 . S
C53 O46 1.262 . S
C53 O54 1.232 . S
O54 C53 1.232 . S
C55 O47 1.260 . S
C55 O48 1.257 . S
Zn56 O59 2.031 . S
Zn56 O61 2.049 . S
Zn56 O66 2.067 . S
Zn57 O58 1.962 . S
Zn57 O60 1.986 1_455 S
Zn57 O62 1.996 . S
Zn57 O65 1.943 . S
O58 Zn57 1.962 . S
O58 C63 1.254 . S
O59 Zn56 2.031 . S
O59 C63 1.269 . S
O60 Zn57 1.986 1_655 S
O60 C67 1.262 . S
O61 Zn56 2.049 . S
O61 C69 1.260 . S
O62 Zn57 1.996 . S
O62 C69 1.257 . S
C63 O58 1.254 . S
C63 O59 1.269 . S
C64 O65 1.249 . S
C64 O66 1.270 . S
O65 Zn57 1.943 . S
O65 C64 1.249 . S
O66 Zn56 2.067 . S
O66 C64 1.270 . S
C67 O60 1.262 . S
C67 O68 1.237 . S
O68 C67 1.237 . S
C69 O61 1.260 . S
C69 O62 1.257 . S
Zn70 O73 2.031 . S
Zn70 O75 2.049 . S
Zn70 O80 2.067 . S
Zn71 O72 1.962 . S
Zn71 O74 1.986 . S
Zn71 O76 1.996 . S
Zn71 O79 1.943 . S
O72 Zn71 1.962 . S
O72 C77 1.254 . S
O73 Zn70 2.031 . S
O73 C77 1.269 . S
O74 Zn71 1.986 . S
O74 C81 1.262 . S
O75 Zn70 2.049 . S
O75 C83 1.260 . S
O76 Zn71 1.996 . S
O76 C83 1.257 . S
C77 O72 1.254 . S
C77 O73 1.269 . S
C78 O79 1.249 . S
C78 O80 1.270 . S
O79 Zn71 1.943 . S
O79 C78 1.249 . S
O80 Zn70 2.067 . S
O80 C78 1.270 . S
C81 O74 1.262 . S
C81 O82 1.232 . S
O82 C81 1.232 . S
C83 O75 1.260 . S
C83 O76 1.257 . S
Zn84 O87 2.031 . S
Zn84 O89 2.049 . S
Zn84 O94 2.067 . S
Zn85 O86 1.962 . S
Zn85 O88 1.986 . S
Zn85 O90 1.996 . S
Zn85 O93 1.943 . S
O86 Zn85 1.962 . S
O86 C91 1.254 . S
O87 Zn84 2.031 . S
O87 C91 1.269 . S
O88 Zn85 1.986 . S
O88 C95 1.262 . S
O89 Zn84 2.049 . S
O89 C97 1.260 . S
O90 Zn85 1.996 . S
O90 C97 1.257 . S
C91 O86 1.254 . S
C91 O87 1.269 . S
C92 O93 1.249 . S
C92 O94 1.270 . S
O93 Zn85 1.943 . S
O93 C92 1.249 . S
O94 Zn84 2.067 . S
O94 C92 1.270 . S
C95 O88 1.262 . S
C95 O96 1.232 . S
O96 C95 1.232 . S
C97 O89 1.260 . S
C97 O90 1.257 . S
Zn98 O101 2.031 . S
Zn98 O103 2.049 . S
Zn98 O108 2.067 . S
Zn99 O100 1.962 . S
Zn99 O102 1.986 . S
Zn99 O104 2.002 . S
Zn99 O107 1.943 1_455 S
O100 Zn99 1.962 . S
O100 C105 1.255 . S
O101 Zn98 2.031 . S
O101 C105 1.268 1_655 S
O102 Zn99 1.986 . S
O102 C109 1.262 . S
O103 Zn98 2.049 . S
O103 C111 1.260 . S
O104 Zn99 2.002 . S
O104 C111 1.244 1_455 S
C105 O100 1.255 . S
C105 O101 1.268 1_455 S
C106 O107 1.249 . S
C106 O108 1.270 . S
O107 Zn99 1.943 1_655 S
O107 C106 1.249 . S
O108 Zn98 2.067 . S
O108 C106 1.270 . S
C109 O102 1.262 . S
C109 O110 1.232 . S
O110 C109 1.232 . S
C111 O103 1.260 . S
C111 O104 1.244 1_655 S
Zn112 O115 2.031 . S
Zn112 O117 2.049 . S
Zn112 O122 2.067 . S
Zn113 O114 1.962 . S
Zn113 O116 1.986 . S
Zn113 O118 1.996 . S
Zn113 O121 1.943 1_545 S
O114 Zn113 1.962 . S
O114 C119 1.254 . S
O115 Zn112 2.031 . S
O115 C119 1.269 1_565 S
O116 Zn113 1.986 . S
O116 C123 1.262 . S
O117 Zn112 2.049 . S
O117 C125 1.260 1_565 S
O118 Zn113 1.996 . S
O118 C125 1.257 . S
C119 O114 1.254 . S
C119 O115 1.269 1_545 S
C120 O121 1.249 . S
C120 O122 1.270 . S
O121 Zn113 1.943 1_565 S
O121 C120 1.249 . S
O122 Zn112 2.067 . S
O122 C120 1.270 . S
C123 O116 1.262 . S
C123 O124 1.232 . S
O124 C123 1.232 . S
C125 O117 1.260 1_545 S
C125 O118 1.257 . S
Zn126 O129 2.031 . S
Zn126 O131 2.049 . S
Zn126 O136 2.067 . S
Zn127 O128 1.962 . S
Zn127 O130 1.986 . S
Zn127 O132 1.996 . S
Zn127 O135 1.943 . S
O128 Zn127 1.962 . S
O128 C133 1.254 . S
O129 Zn126 2.031 . S
O129 C133 1.269 . S
O130 Zn127 1.986 . S
O130 C137 1.262 . S
O131 Zn126 2.049 . S
O131 C139 1.260 . S
O132 Zn127 1.996 . S
O132 C139 1.257 . S
C133 O128 1.254 . S
C133 O129 1.269 . S
C134 O135 1.249 . S
C134 O136 1.270 . S
O135 Zn127 1.943 . S
O135 C134 1.249 . S
O136 Zn126 2.067 . S
O136 C134 1.270 . S
C137 O130 1.262 . S
C137 O138 1.232 . S
O138 C137 1.232 . S
C139 O131 1.260 . S
C139 O132 1.257 . S
Zn140 O143 2.031 . S
Zn140 O145 2.049 . S
Zn140 O150 2.067 . S
Zn141 O142 1.962 . S
Zn141 O144 1.986 . S
Zn141 O146 1.996 . S
Zn141 O149 1.943 1_565 S
O142 Zn141 1.962 . S
O142 C147 1.254 1_565 S
O143 Zn140 2.031 . S
O143 C147 1.269 . S
O144 Zn141 1.986 . S
O144 C151 1.262 . S
O145 Zn140 2.049 . S
O145 C153 1.286 . S
O146 Zn141 1.996 . S
O146 C153 1.242 1_565 S
C147 O142 1.254 1_545 S
C147 O143 1.269 . S
C148 O149 1.249 . S
C148 O150 1.270 . S
O149 Zn141 1.943 1_545 S
O149 C148 1.249 . S
O150 Zn140 2.067 . S
O150 C148 1.270 . S
C151 O144 1.262 . S
C151 O152 1.232 . S
O152 C151 1.232 . S
C153 O145 1.286 . S
C153 O146 1.242 1_545 S
Zn154 O157 2.031 1_554 S
Zn154 O159 2.049 . S
Zn154 O164 2.067 . S
Zn155 O156 1.962 1_554 S
Zn155 O158 1.986 . S
Zn155 O160 1.996 . S
Zn155 O163 1.943 . S
O156 Zn155 1.962 1_556 S
O156 C161 1.254 . S
O157 Zn154 2.031 1_556 S
O157 C161 1.269 . S
O158 Zn155 1.986 . S
O158 C165 1.262 . S
O159 Zn154 2.049 . S
O159 C167 1.260 . S
O160 Zn155 1.996 . S
O160 C167 1.257 . S
C161 O156 1.254 . S
C161 O157 1.269 . S
C162 O163 1.249 . S
C162 O164 1.270 . S
O163 Zn155 1.943 . S
O163 C162 1.249 . S
O164 Zn154 2.067 . S
O164 C162 1.270 . S
C165 O158 1.262 . S
C165 O166 1.232 1_554 S
O166 C165 1.232 1_556 S
C167 O159 1.260 . S
C167 O160 1.257 . S
Zn168 O171 2.031 1_554 S
Zn168 O173 2.049 . S
Zn168 O178 2.067 . S
Zn169 O170 1.962 1_554 S
Zn169 O172 1.986 . S
Zn169 O174 1.996 . S
Zn169 O177 1.943 . S
O170 Zn169 1.962 1_556 S
O170 C175 1.254 . S
O171 Zn168 2.031 1_556 S
O171 C175 1.269 . S
O172 Zn169 1.986 . S
O172 C179 1.262 . S
O173 Zn168 2.049 . S
O173 C181 1.260 . S
O174 Zn169 1.996 . S
O174 C181 1.257 . S
C175 O170 1.254 . S
C175 O171 1.269 . S
C176 O177 1.249 . S
C176 O178 1.270 . S
O177 Zn169 1.943 . S
O177 C176 1.249 . S
O178 Zn168 2.067 . S
O178 C176 1.270 . S
C179 O172 1.262 . S
C179 O180 1.232 1_554 S
O180 C179 1.232 1_556 S
C181 O173 1.260 . S
C181 O174 1.257 . S
Zn182 O185 2.031 1_554 S
Zn182 O187 2.049 . S
Zn182 O192 2.067 . S
Zn183 O184 1.962 1_554 S
Zn183 O186 1.986 . S
Zn183 O188 1.996 . S
Zn183 O191 1.943 . S
O184 Zn183 1.962 1_556 S
O184 C189 1.254 . S
O185 Zn182 2.031 1_556 S
O185 C189 1.269 . S
O186 Zn183 1.986 . S
O186 C193 1.262 . S
O187 Zn182 2.049 . S
O187 C195 1.260 . S
O188 Zn183 1.996 . S
O188 C195 1.257 . S
C189 O184 1.254 . S
C189 O185 1.269 . S
C190 O191 1.249 . S
C190 O192 1.270 . S
O191 Zn183 1.943 . S
O191 C190 1.249 . S
O192 Zn182 2.067 . S
O192 C190 1.270 . S
C193 O186 1.262 . S
C193 O194 1.232 1_554 S
O194 C193 1.232 1_556 S
C195 O187 1.260 . S
C195 O188 1.257 . S
Zn196 O199 2.031 . S
Zn196 O201 2.049 . S
Zn196 O206 2.067 . S
Zn197 O198 1.962 . S
Zn197 O200 1.986 . S
Zn197 O202 1.996 . S
Zn197 O205 1.943 . S
O198 Zn197 1.962 . S
O198 C203 1.254 . S
O199 Zn196 2.031 . S
O199 C203 1.269 . S
O200 Zn197 1.986 . S
O200 C207 1.262 . S
O201 Zn196 2.049 . S
O201 C209 1.260 . S
O202 Zn197 1.996 . S
O202 C209 1.257 . S
C203 O198 1.254 . S
C203 O199 1.269 . S
C204 O205 1.249 . S
C204 O206 1.270 . S
O205 Zn197 1.943 . S
O205 C204 1.249 . S
O206 Zn196 2.067 . S
O206 C204 1.270 . S
C207 O200 1.262 . S
C207 O208 1.232 . S
O208 C207 1.232 . S
C209 O201 1.260 . S
C209 O202 1.257 . S
Zn210 O213 2.031 . S
Zn210 O215 2.049 . S
Zn210 O220 2.067 . S
Zn211 O212 1.962 . S
Zn211 O214 1.986 . S
Zn211 O216 1.996 . S
Zn211 O219 1.943 . S
O212 Zn211 1.962 . S
O212 C217 1.254 . S
O213 Zn210 2.031 . S
O213 C217 1.269 . S
O214 Zn211 1.986 . S
O214 C221 1.262 . S
O215 Zn210 2.049 . S
O215 C223 1.260 . S
O216 Zn211 1.996 . S
O216 C223 1.257 . S
C217 O212 1.254 . S
C217 O213 1.269 . S
C218 O219 1.249 . S
C218 O220 1.270 . S
O219 Zn211 1.943 . S
O219 C218 1.249 . S
O220 Zn210 2.067 . S
O220 C218 1.270 . S
C221 O214 1.262 . S
C221 O222 1.232 . S
O222 C221 1.232 . S
C223 O215 1.260 . S
C223 O216 1.257 . S
Zn224 O227 2.031 1_565 S
Zn224 O229 2.049 1_565 S
Zn224 O234 2.067 . S
Zn225 O226 1.962 . S
Zn225 O228 1.986 . S
Zn225 O230 1.996 . S
Zn225 O233 1.943 . S
O226 Zn225 1.962 . S
O226 C231 1.254 . S
O227 Zn224 2.031 1_545 S
O227 C231 1.269 . S
O228 Zn225 1.986 . S
O228 C235 1.262 . S
O229 Zn224 2.049 1_545 S
O229 C237 1.260 . S
O230 Zn225 1.996 . S
O230 C237 1.257 . S
C231 O226 1.254 . S
C231 O227 1.269 . S
C232 O233 1.249 1_565 S
C232 O234 1.270 . S
O233 Zn225 1.943 . S
O233 C232 1.249 1_545 S
O234 Zn224 2.067 . S
O234 C232 1.270 . S
C235 O228 1.262 . S
C235 O236 1.232 . S
O236 C235 1.232 . S
C237 O229 1.260 . S
C237 O230 1.257 . S
Zn238 O241 2.031 . S
Zn238 O243 2.049 . S
Zn238 O248 2.067 . S
Zn239 O240 1.962 . S
Zn239 O242 1.986 . S
Zn239 O244 1.996 . S
Zn239 O247 1.943 . S
O240 Zn239 1.962 . S
O240 C245 1.254 . S
O241 Zn238 2.031 . S
O241 C245 1.269 . S
O242 Zn239 1.986 . S
O242 C249 1.262 . S
O243 Zn238 2.049 . S
O243 C251 1.260 . S
O244 Zn239 1.996 . S
O244 C251 1.257 . S
C245 O240 1.254 . S
C245 O241 1.269 . S
C246 O247 1.249 . S
C246 O248 1.270 . S
O247 Zn239 1.943 . S
O247 C246 1.249 . S
O248 Zn238 2.067 . S
O248 C246 1.270 . S
C249 O242 1.262 . S
C249 O250 1.232 . S
O250 C249 1.232 . S
C251 O243 1.260 . S
C251 O244 1.257 . S
Zn252 O255 2.031 . S
Zn252 O257 2.049 . S
Zn252 O262 2.067 . S
Zn253 O254 1.962 . S
Zn253 O256 1.986 . S
Zn253 O258 1.996 . S
Zn253 O261 1.943 . S
O254 Zn253 1.962 . S
O254 C259 1.254 . S
O255 Zn252 2.031 . S
O255 C259 1.269 . S
O256 Zn253 1.986 . S
O256 C263 1.262 . S
O257 Zn252 2.049 . S
O257 C265 1.260 . S
O258 Zn253 1.996 . S
O258 C265 1.257 . S
C259 O254 1.254 . S
C259 O255 1.269 . S
C260 O261 1.249 . S
C260 O262 1.270 . S
O261 Zn253 1.943 . S
O261 C260 1.249 . S
O262 Zn252 2.067 . S
O262 C260 1.270 . S
C263 O256 1.262 . S
C263 O264 1.232 . S
O264 C263 1.232 . S
C265 O257 1.260 . S
C265 O258 1.257 . S
Zn266 O269 2.031 . S
Zn266 O271 2.049 . S
Zn266 O276 2.067 . S
Zn267 O268 1.962 . S
Zn267 O270 1.986 1_545 S
Zn267 O272 1.996 . S
Zn267 O275 1.943 . S
O268 Zn267 1.962 . S
O268 C273 1.254 . S
O269 Zn266 2.031 . S
O269 C273 1.269 . S
O270 Zn267 1.986 1_565 S
O270 C277 1.262 . S
O271 Zn266 2.049 . S
O271 C279 1.260 . S
O272 Zn267 1.996 . S
O272 C279 1.257 . S
C273 O268 1.254 . S
C273 O269 1.269 . S
C274 O275 1.249 . S
C274 O276 1.270 . S
O275 Zn267 1.943 . S
O275 C274 1.249 . S
O276 Zn266 2.067 . S
O276 C274 1.270 . S
C277 O270 1.262 . S
C277 O278 1.232 . S
O278 C277 1.232 . S
C279 O271 1.260 . S
C279 O272 1.257 . S
Zn280 O283 2.031 1_554 S
Zn280 O285 2.049 . S
Zn280 O290 2.067 . S
Zn281 O282 1.962 1_554 S
Zn281 O284 1.986 . S
Zn281 O286 1.996 . S
Zn281 O289 1.943 . S
O282 Zn281 1.962 1_556 S
O282 C287 1.254 . S
O283 Zn280 2.031 1_556 S
O283 C287 1.269 . S
O284 Zn281 1.986 . S
O284 C291 1.262 . S
O285 Zn280 2.049 . S
O285 C293 1.260 . S
O286 Zn281 1.996 . S
O286 C293 1.257 . S
C287 O282 1.254 . S
C287 O283 1.269 . S
C288 O289 1.249 . S
C288 O290 1.270 . S
O289 Zn281 1.943 . S
O289 C288 1.249 . S
O290 Zn280 2.067 . S
O290 C288 1.270 . S
C291 O284 1.262 . S
C291 O292 1.232 1_554 S
O292 C291 1.232 1_556 S
C293 O285 1.260 . S
C293 O286 1.257 . S
Zn294 O297 2.031 . S
Zn294 O299 2.049 . S
Zn294 O304 2.067 . S
Zn295 O296 1.962 . S
Zn295 O298 1.986 . S
Zn295 O300 1.996 . S
Zn295 O303 1.943 . S
O296 Zn295 1.962 . S
O296 C301 1.254 . S
O297 Zn294 2.031 . S
O297 C301 1.269 . S
O298 Zn295 1.986 . S
O298 C305 1.262 . S
O299 Zn294 2.049 . S
O299 C307 1.260 . S
O300 Zn295 1.996 . S
O300 C307 1.257 . S
C301 O296 1.254 . S
C301 O297 1.269 . S
C302 O303 1.249 . S
C302 O304 1.270 . S
O303 Zn295 1.943 . S
O303 C302 1.249 . S
O304 Zn294 2.067 . S
O304 C302 1.270 . S
C305 O298 1.262 . S
C305 O306 1.232 . S
O306 C305 1.232 . S
C307 O299 1.260 . S
C307 O300 1.257 . S
Zn308 O311 2.031 . S
Zn308 O313 2.049 . S
Zn308 O318 2.067 . S
Zn309 O310 1.962 . S
Zn309 O312 1.986 . S
Zn309 O314 1.996 . S
Zn309 O317 1.943 . S
O310 Zn309 1.962 . S
O310 C315 1.254 . S
O311 Zn308 2.031 . S
O311 C315 1.269 . S
O312 Zn309 1.986 . S
O312 C319 1.262 . S
O313 Zn308 2.049 . S
O313 C321 1.260 . S
O314 Zn309 1.996 . S
O314 C321 1.257 . S
C315 O310 1.254 . S
C315 O311 1.269 . S
C316 O317 1.249 . S
C316 O318 1.270 . S
O317 Zn309 1.943 . S
O317 C316 1.249 . S
O318 Zn308 2.067 . S
O318 C316 1.270 . S
C319 O312 1.262 . S
C319 O320 1.232 . S
O320 C319 1.232 . S
C321 O313 1.260 . S
C321 O314 1.257 . S
Zn322 O325 2.031 . S
Zn322 O327 2.049 . S
Zn322 O332 2.067 . S
Zn323 O324 1.962 . S
Zn323 O326 1.986 . S
Zn323 O328 1.996 . S
Zn323 O331 1.943 . S
O324 Zn323 1.962 . S
O324 C329 1.254 . S
O325 Zn322 2.031 . S
O325 C329 1.269 . S
O326 Zn323 1.986 . S
O326 C333 1.262 . S
O327 Zn322 2.049 . S
O327 C335 1.260 . S
O328 Zn323 1.996 . S
O328 C335 1.257 . S
C329 O324 1.254 . S
C329 O325 1.269 . S
C330 O331 1.249 . S
C330 O332 1.270 . S
O331 Zn323 1.943 . S
O331 C330 1.249 . S
O332 Zn322 2.067 . S
O332 C330 1.270 . S
C333 O326 1.262 . S
C333 O334 1.232 . S
O334 C333 1.232 . S
C335 O327 1.260 . S
C335 O328 1.257 . S
Dy336 O340 2.398 . S
Dy336 O341 2.491 1_556 S
Dy336 O342 2.403 1_545 S
Dy336 O343 2.664 1_655 S
Dy336 O347 2.326 1_655 S
Dy336 O351 2.310 1_656 S
Dy336 O352 2.351 1_546 S
C337 O348 1.185 . S
C337 O349 1.355 . S
C338 O340 1.185 . S
C338 O341 1.355 1_556 S
Dy339 O343 2.310 1_554 S
Dy339 O346 2.351 . S
Dy339 O348 2.398 . S
Dy339 O349 2.512 . S
Dy339 O350 2.403 . S
Dy339 O351 2.664 . S
Dy339 O353 2.326 1_545 S
O340 Dy336 2.398 . S
O340 C338 1.185 . S
O341 Dy336 2.491 1_554 S
O341 C338 1.355 1_554 S
O342 Dy336 2.403 1_565 S
O342 C344 1.254 1_665 S
O343 Dy336 2.664 1_455 S
O343 Dy339 2.310 1_556 S
O343 C344 1.268 . S
C344 O342 1.254 1_445 S
C344 O343 1.268 . S
C345 O350 1.254 . S
C345 O351 1.268 . S
O346 Dy339 2.351 . S
O346 C354 1.249 1_554 S
O347 Dy336 2.326 1_455 S
O347 C354 1.267 . S
O348 C337 1.185 . S
O348 Dy339 2.398 . S
O349 C337 1.355 . S
O349 Dy339 2.512 . S
O350 Dy339 2.403 . S
O350 C345 1.254 . S
O351 Dy336 2.310 1_454 S
O351 Dy339 2.664 . S
O351 C345 1.268 . S
O352 Dy336 2.351 1_564 S
O352 C355 1.249 1_655 S
O353 Dy339 2.326 1_565 S
O353 C355 1.267 . S
C354 O346 1.249 1_556 S
C354 O347 1.267 . S
C355 O352 1.249 1_455 S
C355 O353 1.267 . S
Dy356 O360 2.398 . S
Dy356 O361 2.491 . S
Dy356 O362 2.403 . S
Dy356 O363 2.664 . S
Dy356 O367 2.326 . S
Dy356 O371 2.310 . S
Dy356 O372 2.351 . S
C357 O368 1.185 . S
C357 O369 1.355 . S
C358 O360 1.185 . S
C358 O361 1.355 . S
Dy359 O363 2.310 . S
Dy359 O366 2.351 . S
Dy359 O368 2.398 . S
Dy359 O369 2.491 . S
Dy359 O370 2.403 . S
Dy359 O371 2.664 . S
Dy359 O373 2.326 . S
O360 Dy356 2.398 . S
O360 C358 1.185 . S
O361 Dy356 2.491 . S
O361 C358 1.355 . S
O362 Dy356 2.403 . S
O362 C364 1.254 . S
O363 Dy356 2.664 . S
O363 Dy359 2.310 . S
O363 C364 1.268 . S
C364 O362 1.254 . S
C364 O363 1.268 . S
C365 O370 1.254 . S
C365 O371 1.268 . S
O366 Dy359 2.351 . S
O366 C374 1.249 . S
O367 Dy356 2.326 . S
O367 C374 1.267 . S
O368 C357 1.185 . S
O368 Dy359 2.398 . S
O369 C357 1.355 . S
O369 Dy359 2.491 . S
O370 Dy359 2.403 . S
O370 C365 1.254 . S
O371 Dy356 2.310 . S
O371 Dy359 2.664 . S
O371 C365 1.268 . S
O372 Dy356 2.351 . S
O372 C375 1.249 . S
O373 Dy359 2.326 . S
O373 C375 1.267 . S
C374 O366 1.249 . S
C374 O367 1.267 . S
C375 O372 1.249 . S
C375 O373 1.267 . S
Dy376 O380 2.398 1_545 S
Dy376 O381 2.491 1_545 S
Dy376 O382 2.403 . S
Dy376 O383 2.664 . S
Dy376 O387 2.326 1_545 S
Dy376 O391 2.310 . S
Dy376 O392 2.351 . S
C377 O388 1.185 . S
C377 O389 1.355 . S
C378 O380 1.185 . S
C378 O381 1.355 . S
Dy379 O383 2.310 . S
Dy379 O386 2.351 1_545 S
Dy379 O388 2.398 . S
Dy379 O389 2.491 . S
Dy379 O390 2.403 . S
Dy379 O391 2.664 . S
Dy379 O393 2.326 . S
O380 Dy376 2.398 1_565 S
O380 C378 1.185 . S
O381 Dy376 2.491 1_565 S
O381 C378 1.355 . S
O382 Dy376 2.403 . S
O382 C384 1.254 . S
O383 Dy376 2.664 . S
O383 Dy379 2.310 . S
O383 C384 1.268 . S
C384 O382 1.254 . S
C384 O383 1.268 . S
C385 O390 1.254 . S
C385 O391 1.268 . S
O386 Dy379 2.351 1_565 S
O386 C394 1.249 . S
O387 Dy376 2.326 1_565 S
O387 C394 1.267 . S
O388 C377 1.185 . S
O388 Dy379 2.398 . S
O389 C377 1.355 . S
O389 Dy379 2.491 . S
O390 Dy379 2.403 . S
O390 C385 1.254 . S
O391 Dy376 2.310 . S
O391 Dy379 2.664 . S
O391 C385 1.268 . S
O392 Dy376 2.351 . S
O392 C395 1.249 . S
O393 Dy379 2.326 . S
O393 C395 1.267 . S
C394 O386 1.249 . S
C394 O387 1.267 . S
C395 O392 1.249 . S
C395 O393 1.267 . S
Dy396 O400 2.398 . S
Dy396 O401 2.491 . S
Dy396 O402 2.403 . S
Dy396 O403 2.664 . S
Dy396 O407 2.326 . S
Dy396 O411 2.310 . S
Dy396 O412 2.351 . S
C397 O408 1.185 . S
C397 O409 1.355 . S
C398 O400 1.185 . S
C398 O401 1.355 . S
Dy399 O403 2.310 . S
Dy399 O406 2.351 . S
Dy399 O408 2.398 . S
Dy399 O409 2.491 . S
Dy399 O410 2.403 . S
Dy399 O411 2.664 . S
Dy399 O413 2.326 . S
O400 Dy396 2.398 . S
O400 C398 1.185 . S
O401 Dy396 2.491 . S
O401 C398 1.355 . S
O402 Dy396 2.403 . S
O402 C404 1.254 . S
O403 Dy396 2.664 . S
O403 Dy399 2.310 . S
O403 C404 1.268 . S
C404 O402 1.254 . S
C404 O403 1.268 . S
C405 O410 1.254 . S
C405 O411 1.268 . S
O406 Dy399 2.351 . S
O406 C414 1.249 . S
O407 Dy396 2.326 . S
O407 C414 1.267 . S
O408 C397 1.185 . S
O408 Dy399 2.398 . S
O409 C397 1.355 . S
O409 Dy399 2.491 . S
O410 Dy399 2.403 . S
O410 C405 1.254 . S
O411 Dy396 2.310 . S
O411 Dy399 2.664 . S
O411 C405 1.268 . S
O412 Dy396 2.351 . S
O412 C415 1.249 . S
O413 Dy399 2.326 . S
O413 C415 1.267 . S
C414 O406 1.249 . S
C414 O407 1.267 . S
C415 O412 1.249 . S
C415 O413 1.267 . S
Dy416 O420 2.393 1_565 S
Dy416 O421 2.485 1_465 S
Dy416 O422 2.400 1_565 S
Dy416 O423 2.660 1_565 S
Dy416 O427 2.311 1_565 S
Dy416 O431 2.306 1_465 S
Dy416 O432 2.363 . S
C417 O428 1.185 . S
C417 O429 1.355 . S
C418 O420 1.185 1_655 S
C418 O421 1.355 . S
Dy419 O423 2.310 . S
Dy419 O426 2.351 . S
Dy419 O428 2.398 . S
Dy419 O429 2.491 . S
Dy419 O430 2.403 1_455 S
Dy419 O431 2.664 1_455 S
Dy419 O433 2.326 1_545 S
O420 Dy416 2.393 1_545 S
O420 C418 1.185 1_455 S
O421 Dy416 2.485 1_645 S
O421 C418 1.355 . S
O422 Dy416 2.400 1_545 S
O422 C424 1.254 . S
O423 Dy416 2.660 1_545 S
O423 Dy419 2.310 . S
O423 C424 1.268 . S
C424 O422 1.254 . S
C424 O423 1.268 . S
C425 O430 1.254 . S
C425 O431 1.268 . S
O426 Dy419 2.351 . S
O426 C434 1.249 . S
O427 Dy416 2.311 1_545 S
O427 C434 1.267 . S
O428 C417 1.185 . S
O428 Dy419 2.398 . S
O429 C417 1.355 . S
O429 Dy419 2.491 . S
O430 Dy419 2.403 1_655 S
O430 C425 1.254 . S
O431 Dy416 2.306 1_645 S
O431 Dy419 2.664 1_655 S
O431 C425 1.268 . S
O432 Dy416 2.363 . S
O432 C435 1.249 . S
O433 Dy419 2.326 1_565 S
O433 C435 1.267 . S
C434 O426 1.249 . S
C434 O427 1.267 . S
C435 O432 1.249 . S
C435 O433 1.267 . S
Dy436 O440 2.398 . S
Dy436 O441 2.491 . S
Dy436 O442 2.403 . S
Dy436 O443 2.664 . S
Dy436 O447 2.326 . S
Dy436 O451 2.310 . S
Dy436 O452 2.351 . S
C437 O448 1.185 . S
C437 O449 1.355 . S
C438 O440 1.185 . S
C438 O441 1.355 . S
Dy439 O443 2.310 . S
Dy439 O446 2.351 . S
Dy439 O448 2.398 . S
Dy439 O449 2.491 . S
Dy439 O450 2.403 . S
Dy439 O451 2.664 . S
Dy439 O453 2.326 . S
O440 Dy436 2.398 . S
O440 C438 1.185 . S
O441 Dy436 2.491 . S
O441 C438 1.355 . S
O442 Dy436 2.403 . S
O442 C444 1.254 . S
O443 Dy436 2.664 . S
O443 Dy439 2.310 . S
O443 C444 1.268 . S
C444 O442 1.254 . S
C444 O443 1.268 . S
C445 O450 1.254 . S
C445 O451 1.268 . S
O446 Dy439 2.351 . S
O446 C454 1.249 . S
O447 Dy436 2.326 . S
O447 C454 1.267 . S
O448 C437 1.185 . S
O448 Dy439 2.398 . S
O449 C437 1.355 . S
O449 Dy439 2.491 . S
O450 Dy439 2.403 . S
O450 C445 1.254 . S
O451 Dy436 2.310 . S
O451 Dy439 2.664 . S
O451 C445 1.268 . S
O452 Dy436 2.351 . S
O452 C455 1.249 . S
O453 Dy439 2.326 . S
O453 C455 1.267 . S
C454 O446 1.249 . S
C454 O447 1.267 . S
C455 O452 1.249 . S
C455 O453 1.267 . S
Dy456 O460 2.398 1_545 S
Dy456 O461 2.491 . S
Dy456 O462 2.403 1_545 S
Dy456 O463 2.664 1_544 S
Dy456 O467 2.326 1_545 S
Dy456 O471 2.310 . S
Dy456 O472 2.351 . S
C457 O468 1.185 . S
C457 O469 1.355 . S
C458 O460 1.185 1_545 S
C458 O461 1.355 . S
Dy459 O463 2.310 1_545 S
Dy459 O466 2.351 . S
Dy459 O468 2.398 . S
Dy459 O469 2.491 . S
Dy459 O470 2.403 . S
Dy459 O471 2.664 1_556 S
Dy459 O473 2.326 . S
O460 Dy456 2.398 1_565 S
O460 C458 1.185 1_565 S
O461 Dy456 2.491 . S
O461 C458 1.355 . S
O462 Dy456 2.403 1_565 S
O462 C464 1.254 1_554 S
O463 Dy456 2.664 1_566 S
O463 Dy459 2.310 1_565 S
O463 C464 1.268 . S
C464 O462 1.254 1_556 S
C464 O463 1.268 . S
C465 O470 1.254 1_554 S
C465 O471 1.268 . S
O466 Dy459 2.351 . S
O466 C474 1.249 1_556 S
O467 Dy456 2.326 1_565 S
O467 C474 1.267 1_565 S
O468 C457 1.185 . S
O468 Dy459 2.398 . S
O469 C457 1.355 . S
O469 Dy459 2.491 . S
O470 Dy459 2.403 . S
O470 C465 1.254 1_556 S
O471 Dy456 2.310 . S
O471 Dy459 2.664 1_554 S
O471 C465 1.268 . S
O472 Dy456 2.351 . S
O472 C475 1.249 . S
O473 Dy459 2.326 . S
O473 C475 1.267 1_556 S
C474 O466 1.249 1_554 S
C474 O467 1.267 1_545 S
C475 O472 1.249 . S
C475 O473 1.267 1_554 S
Dy476 O480 2.398 . S
Dy476 O481 2.491 . S
Dy476 O482 2.403 . S
Dy476 O483 2.664 . S
Dy476 O487 2.326 . S
Dy476 O491 2.310 . S
Dy476 O492 2.351 . S
C477 O488 1.185 . S
C477 O489 1.355 . S
C478 O480 1.185 . S
C478 O481 1.355 . S
Dy479 O483 2.310 . S
Dy479 O486 2.351 . S
Dy479 O488 2.398 . S
Dy479 O489 2.491 . S
Dy479 O490 2.403 . S
Dy479 O491 2.664 . S
Dy479 O493 2.326 . S
O480 Dy476 2.398 . S
O480 C478 1.185 . S
O481 Dy476 2.491 . S
O481 C478 1.355 . S
O482 Dy476 2.403 . S
O482 C484 1.254 . S
O483 Dy476 2.664 . S
O483 Dy479 2.310 . S
O483 C484 1.268 . S
C484 O482 1.254 . S
C484 O483 1.268 . S
C485 O490 1.254 . S
C485 O491 1.268 . S
O486 Dy479 2.351 . S
O486 C494 1.249 . S
O487 Dy476 2.326 . S
O487 C494 1.267 . S
O488 C477 1.185 . S
O488 Dy479 2.398 . S
O489 C477 1.355 . S
O489 Dy479 2.491 . S
O490 Dy479 2.403 . S
O490 C485 1.254 . S
O491 Dy476 2.310 . S
O491 Dy479 2.664 . S
O491 C485 1.268 . S
O492 Dy476 2.351 . S
O492 C495 1.249 . S
O493 Dy479 2.326 . S
O493 C495 1.267 . S
C494 O486 1.249 . S
C494 O487 1.267 . S
C495 O492 1.249 . S
C495 O493 1.267 . S
Dy496 O500 2.398 . S
Dy496 O501 2.491 . S
Dy496 O502 2.403 . S
Dy496 O503 2.664 1_556 S
Dy496 O507 2.326 . S
Dy496 O511 2.310 . S
Dy496 O512 2.351 . S
C497 O508 1.185 . S
C497 O509 1.355 . S
C498 O500 1.185 . S
C498 O501 1.355 . S
Dy499 O503 2.310 . S
Dy499 O506 2.351 . S
Dy499 O508 2.398 . S
Dy499 O509 2.491 . S
Dy499 O510 2.403 . S
Dy499 O511 2.664 1_554 S
Dy499 O513 2.326 . S
O500 Dy496 2.398 . S
O500 C498 1.185 . S
O501 Dy496 2.491 . S
O501 C498 1.355 . S
O502 Dy496 2.403 . S
O502 C504 1.254 . S
O503 Dy496 2.664 1_554 S
O503 Dy499 2.310 . S
O503 C504 1.268 1_554 S
C504 O502 1.254 . S
C504 O503 1.268 1_556 S
C505 O510 1.254 . S
C505 O511 1.268 1_554 S
O506 Dy499 2.351 . S
O506 C514 1.249 1_554 S
O507 Dy496 2.326 . S
O507 C514 1.267 . S
O508 C497 1.185 . S
O508 Dy499 2.398 . S
O509 C497 1.355 . S
O509 Dy499 2.491 . S
O510 Dy499 2.403 . S
O510 C505 1.254 . S
O511 Dy496 2.310 . S
O511 Dy499 2.664 1_556 S
O511 C505 1.268 1_556 S
O512 Dy496 2.351 . S
O512 C515 1.249 1_556 S
O513 Dy499 2.326 . S
O513 C515 1.267 . S
C514 O506 1.249 1_556 S
C514 O507 1.267 . S
C515 O512 1.249 1_554 S
C515 O513 1.267 . S
Dy516 O520 2.398 . S
Dy516 O521 2.491 . S
Dy516 O522 2.403 . S
Dy516 O523 2.664 . S
Dy516 O527 2.326 . S
Dy516 O531 2.310 . S
Dy516 O532 2.351 . S
C517 O528 1.185 . S
C517 O529 1.355 . S
C518 O520 1.185 . S
C518 O521 1.355 . S
Dy519 O523 2.310 . S
Dy519 O526 2.351 . S
Dy519 O528 2.398 . S
Dy519 O529 2.491 . S
Dy519 O530 2.403 . S
Dy519 O531 2.664 . S
Dy519 O533 2.326 . S
O520 Dy516 2.398 . S
O520 C518 1.185 . S
O521 Dy516 2.491 . S
O521 C518 1.355 . S
O522 Dy516 2.403 . S
O522 C524 1.254 . S
O523 Dy516 2.664 . S
O523 Dy519 2.310 . S
O523 C524 1.268 . S
C524 O522 1.254 . S
C524 O523 1.268 . S
C525 O530 1.254 . S
C525 O531 1.268 . S
O526 Dy519 2.351 . S
O526 C534 1.249 . S
O527 Dy516 2.326 . S
O527 C534 1.267 . S
O528 C517 1.185 . S
O528 Dy519 2.398 . S
O529 C517 1.355 . S
O529 Dy519 2.491 . S
O530 Dy519 2.403 . S
O530 C525 1.254 . S
O531 Dy516 2.310 . S
O531 Dy519 2.664 . S
O531 C525 1.268 . S
O532 Dy516 2.351 . S
O532 C535 1.249 . S
O533 Dy519 2.326 . S
O533 C535 1.267 . S
C534 O526 1.249 . S
C534 O527 1.267 . S
C535 O532 1.249 . S
C535 O533 1.267 . S
Dy536 O540 2.398 1_455 S
Dy536 O541 2.491 1_455 S
Dy536 O542 2.403 . S
Dy536 O543 2.664 . S
Dy536 O547 2.326 1_455 S
Dy536 O551 2.310 . S
Dy536 O552 2.351 . S
C537 O548 1.185 . S
C537 O549 1.355 . S
C538 O540 1.185 . S
C538 O541 1.355 . S
Dy539 O543 2.310 . S
Dy539 O546 2.351 1_455 S
Dy539 O548 2.398 . S
Dy539 O549 2.491 . S
Dy539 O550 2.403 . S
Dy539 O551 2.664 . S
Dy539 O553 2.326 . S
O540 Dy536 2.398 1_655 S
O540 C538 1.185 . S
O541 Dy536 2.491 1_655 S
O541 C538 1.355 . S
O542 Dy536 2.403 . S
O542 C544 1.254 . S
O543 Dy536 2.664 . S
O543 Dy539 2.310 . S
O543 C544 1.268 . S
C544 O542 1.254 . S
C544 O543 1.268 . S
C545 O550 1.254 . S
C545 O551 1.268 . S
O546 Dy539 2.351 1_655 S
O546 C554 1.249 . S
O547 Dy536 2.326 1_655 S
O547 C554 1.267 . S
O548 C537 1.185 . S
O548 Dy539 2.398 . S
O549 C537 1.355 . S
O549 Dy539 2.491 . S
O550 Dy539 2.403 . S
O550 C545 1.254 . S
O551 Dy536 2.310 . S
O551 Dy539 2.664 . S
O551 C545 1.268 . S
O552 Dy536 2.351 . S
O552 C555 1.249 . S
O553 Dy539 2.326 . S
O553 C555 1.267 . S
C554 O546 1.249 . S
C554 O547 1.267 . S
C555 O552 1.249 . S
C555 O553 1.267 . S
Dy556 O560 2.398 . S
Dy556 O561 2.491 . S
Dy556 O562 2.403 . S
Dy556 O563 2.664 . S
Dy556 O567 2.326 . S
Dy556 O571 2.310 . S
Dy556 O572 2.351 . S
C557 O568 1.185 . S
C557 O569 1.355 . S
C558 O560 1.185 . S
C558 O561 1.355 . S
Dy559 O563 2.310 . S
Dy559 O566 2.351 . S
Dy559 O568 2.398 . S
Dy559 O569 2.491 . S
Dy559 O570 2.403 . S
Dy559 O571 2.664 . S
Dy559 O573 2.326 . S
O560 Dy556 2.398 . S
O560 C558 1.185 . S
O561 Dy556 2.491 . S
O561 C558 1.355 . S
O562 Dy556 2.403 . S
O562 C564 1.254 . S
O563 Dy556 2.664 . S
O563 Dy559 2.310 . S
O563 C564 1.268 . S
C564 O562 1.254 . S
C564 O563 1.268 . S
C565 O570 1.254 . S
C565 O571 1.268 . S
O566 Dy559 2.351 . S
O566 C574 1.249 . S
O567 Dy556 2.326 . S
O567 C574 1.267 . S
O568 C557 1.185 . S
O568 Dy559 2.398 . S
O569 C557 1.355 . S
O569 Dy559 2.491 . S
O570 Dy559 2.403 . S
O570 C565 1.254 . S
O571 Dy556 2.310 . S
O571 Dy559 2.664 . S
O571 C565 1.268 . S
O572 Dy556 2.351 . S
O572 C575 1.249 . S
O573 Dy559 2.326 . S
O573 C575 1.267 . S
C574 O566 1.249 . S
C574 O567 1.267 . S
C575 O572 1.249 . S
C575 O573 1.267 . S
Dy576 O580 2.398 . S
Dy576 O581 2.491 . S
Dy576 O582 2.403 . S
Dy576 O583 2.664 . S
Dy576 O587 2.326 . S
Dy576 O591 2.310 . S
Dy576 O592 2.351 . S
C577 O588 1.185 . S
C577 O589 1.355 . S
C578 O580 1.185 . S
C578 O581 1.355 . S
Dy579 O583 2.310 . S
Dy579 O586 2.351 . S
Dy579 O588 2.398 . S
Dy579 O589 2.491 . S
Dy579 O590 2.403 . S
Dy579 O591 2.664 . S
Dy579 O593 2.326 . S
O580 Dy576 2.398 . S
O580 C578 1.185 . S
O581 Dy576 2.491 . S
O581 C578 1.355 . S
O582 Dy576 2.403 . S
O582 C584 1.254 . S
O583 Dy576 2.664 . S
O583 Dy579 2.310 . S
O583 C584 1.268 . S
C584 O582 1.254 . S
C584 O583 1.268 . S
C585 O590 1.254 . S
C585 O591 1.268 . S
O586 Dy579 2.351 . S
O586 C594 1.249 . S
O587 Dy576 2.326 . S
O587 C594 1.267 . S
O588 C577 1.185 . S
O588 Dy579 2.398 . S
O589 C577 1.355 . S
O589 Dy579 2.491 . S
O590 Dy579 2.403 . S
O590 C585 1.254 . S
O591 Dy576 2.310 . S
O591 Dy579 2.664 . S
O591 C585 1.268 . S
O592 Dy576 2.351 . S
O592 C595 1.249 . S
O593 Dy579 2.326 . S
O593 C595 1.267 . S
C594 O586 1.249 . S
C594 O587 1.267 . S
C595 O592 1.249 . S
C595 O593 1.267 . S
Dy596 O600 2.398 . S
Dy596 O601 2.491 . S
Dy596 O602 2.403 . S
Dy596 O603 2.664 . S
Dy596 O607 2.326 . S
Dy596 O611 2.310 . S
Dy596 O612 2.351 . S
C597 O608 1.185 . S
C597 O609 1.355 . S
C598 O600 1.185 . S
C598 O601 1.355 . S
Dy599 O603 2.310 . S
Dy599 O606 2.351 . S
Dy599 O608 2.398 . S
Dy599 O609 2.491 . S
Dy599 O610 2.403 . S
Dy599 O611 2.664 . S
Dy599 O613 2.326 . S
O600 Dy596 2.398 . S
O600 C598 1.185 . S
O601 Dy596 2.491 . S
O601 C598 1.355 . S
O602 Dy596 2.403 . S
O602 C604 1.254 . S
O603 Dy596 2.664 . S
O603 Dy599 2.310 . S
O603 C604 1.268 . S
C604 O602 1.254 . S
C604 O603 1.268 . S
C605 O610 1.254 . S
C605 O611 1.268 . S
O606 Dy599 2.351 . S
O606 C614 1.249 . S
O607 Dy596 2.326 . S
O607 C614 1.267 . S
O608 C597 1.185 . S
O608 Dy599 2.398 . S
O609 C597 1.355 . S
O609 Dy599 2.491 . S
O610 Dy599 2.403 . S
O610 C605 1.254 . S
O611 Dy596 2.310 . S
O611 Dy599 2.664 . S
O611 C605 1.268 . S
O612 Dy596 2.351 . S
O612 C615 1.249 . S
O613 Dy599 2.326 . S
O613 C615 1.267 . S
C614 O606 1.249 . S
C614 O607 1.267 . S
C615 O612 1.249 . S
C615 O613 1.267 . S
Dy616 O620 2.398 . S
Dy616 O621 2.491 . S
Dy616 O622 2.403 . S
Dy616 O623 2.664 . S
Dy616 O627 2.326 . S
Dy616 O631 2.310 . S
Dy616 O632 2.351 . S
C617 O628 1.185 . S
C617 O629 1.355 . S
C618 O620 1.185 . S
C618 O621 1.355 . S
Dy619 O623 2.310 . S
Dy619 O626 2.351 . S
Dy619 O628 2.398 . S
Dy619 O629 2.491 . S
Dy619 O630 2.403 . S
Dy619 O631 2.664 . S
Dy619 O633 2.326 . S
O620 Dy616 2.398 . S
O620 C618 1.185 . S
O621 Dy616 2.491 . S
O621 C618 1.355 . S
O622 Dy616 2.403 . S
O622 C624 1.254 . S
O623 Dy616 2.664 . S
O623 Dy619 2.310 . S
O623 C624 1.268 . S
C624 O622 1.254 . S
C624 O623 1.268 . S
C625 O630 1.254 . S
C625 O631 1.268 . S
O626 Dy619 2.351 . S
O626 C634 1.249 . S
O627 Dy616 2.326 . S
O627 C634 1.267 . S
O628 C617 1.185 . S
O628 Dy619 2.398 . S
O629 C617 1.355 . S
O629 Dy619 2.491 . S
O630 Dy619 2.403 . S
O630 C625 1.254 . S
O631 Dy616 2.310 . S
O631 Dy619 2.664 . S
O631 C625 1.268 . S
O632 Dy616 2.351 . S
O632 C635 1.249 . S
O633 Dy619 2.326 . S
O633 C635 1.267 . S
C634 O626 1.249 . S
C634 O627 1.267 . S
C635 O632 1.249 . S
C635 O633 1.267 . S
Dy636 O640 2.398 . S
Dy636 O641 2.491 1_556 S
Dy636 O642 2.403 . S
Dy636 O643 2.695 . S
Dy636 O647 2.326 . S
Dy636 O651 2.310 1_556 S
Dy636 O652 2.351 1_556 S
C637 O648 1.185 . S
C637 O649 1.355 . S
C638 O640 1.185 . S
C638 O641 1.355 1_556 S
Dy639 O643 2.292 1_654 S
Dy639 O646 2.351 . S
Dy639 O648 2.398 . S
Dy639 O649 2.491 . S
Dy639 O650 2.403 . S
Dy639 O651 2.664 1_655 S
Dy639 O653 2.326 1_655 S
O640 Dy636 2.398 . S
O640 C638 1.185 . S
O641 Dy636 2.491 1_554 S
O641 C638 1.355 1_554 S
O642 Dy636 2.403 . S
O642 C644 1.254 . S
O643 Dy636 2.695 . S
O643 Dy639 2.292 1_456 S
O643 C644 1.280 . S
C644 O642 1.254 . S
C644 O643 1.280 . S
C645 O650 1.254 1_455 S
C645 O651 1.268 . S
O646 Dy639 2.351 . S
O646 C654 1.249 1_654 S
O647 Dy636 2.326 . S
O647 C654 1.267 . S
O648 C637 1.185 . S
O648 Dy639 2.398 . S
O649 C637 1.355 . S
O649 Dy639 2.491 . S
O650 Dy639 2.403 . S
O650 C645 1.254 1_655 S
O651 Dy636 2.310 1_554 S
O651 Dy639 2.664 1_455 S
O651 C645 1.268 . S
O652 Dy636 2.351 1_554 S
O652 C655 1.249 . S
O653 Dy639 2.326 1_455 S
O653 C655 1.267 . S
C654 O646 1.249 1_456 S
C654 O647 1.267 . S
C655 O652 1.249 . S
C655 O653 1.267 . S
C656 C657 1.369 1_455 S
C656 C658 1.419 . S
C656 H660 0.930 . S
C657 C656 1.369 1_655 S
C657 C666 1.429 . S
C658 C656 1.419 . S
C658 C659 1.363 . S
C658 H661 0.929 . S
C659 C658 1.363 . S
C659 C665 1.426 1_456 S
H660 C656 0.930 . S
H661 C658 0.929 . S
S662 N663 1.600 1_554 S
S662 N664 1.610 . S
N663 S662 1.600 1_556 S
N663 C666 1.357 . S
N664 S662 1.610 . S
N664 C665 1.357 . S
C665 C659 1.426 1_654 S
C665 N664 1.357 . S
C665 C666 1.431 1_554 S
C666 C657 1.429 . S
C666 N663 1.357 . S
C666 C665 1.431 1_556 S
C667 C668 1.369 . S
C667 C669 1.419 . S
C667 H671 0.930 . S
C668 C667 1.369 . S
C668 C677 1.429 . S
C669 C667 1.419 . S
C669 C670 1.363 . S
C669 H672 0.929 . S
C670 C669 1.363 . S
C670 C676 1.428 . S
H671 C667 0.930 . S
H672 C669 0.929 . S
S673 N674 1.613 . S
S673 N675 1.610 . S
N674 S673 1.613 . S
N674 C677 1.350 . S
N675 S673 1.610 . S
N675 C676 1.351 . S
C676 C670 1.428 . S
C676 N675 1.351 . S
C676 C677 1.434 . S
C677 C668 1.429 . S
C677 N674 1.350 . S
C677 C676 1.434 . S
C678 C679 1.369 . S
C678 C680 1.419 . S
C678 H682 0.930 . S
C679 C678 1.369 . S
C679 C688 1.429 . S
C680 C678 1.419 . S
C680 C681 1.363 . S
C680 H683 0.929 . S
C681 C680 1.363 . S
C681 C687 1.428 . S
H682 C678 0.930 . S
H683 C680 0.929 . S
S684 N685 1.613 . S
S684 N686 1.610 . S
N685 S684 1.613 . S
N685 C688 1.350 . S
N686 S684 1.610 . S
N686 C687 1.351 . S
C687 C681 1.428 . S
C687 N686 1.351 . S
C687 C688 1.434 . S
C688 C679 1.429 . S
C688 N685 1.350 . S
C688 C687 1.434 . S
C689 C690 1.369 . S
C689 C691 1.419 . S
C689 H693 0.930 . S
C690 C689 1.369 . S
C690 C699 1.429 . S
C691 C689 1.419 . S
C691 C692 1.363 . S
C691 H694 0.929 . S
C692 C691 1.363 . S
C692 C698 1.428 . S
H693 C689 0.930 . S
H694 C691 0.929 . S
S695 N696 1.613 . S
S695 N697 1.610 . S
N696 S695 1.613 . S
N696 C699 1.350 . S
N697 S695 1.610 . S
N697 C698 1.351 . S
C698 C692 1.428 . S
C698 N697 1.351 . S
C698 C699 1.434 . S
C699 C690 1.429 . S
C699 N696 1.350 . S
C699 C698 1.434 . S
C700 C701 1.369 . S
C700 C702 1.419 . S
C700 H704 0.930 . S
C701 C700 1.369 . S
C701 C710 1.429 . S
C702 C700 1.419 . S
C702 C703 1.363 . S
C702 H705 0.929 . S
C703 C702 1.363 . S
C703 C709 1.428 . S
H704 C700 0.930 . S
H705 C702 0.929 . S
S706 N707 1.613 . S
S706 N708 1.610 . S
N707 S706 1.613 . S
N707 C710 1.350 . S
N708 S706 1.610 . S
N708 C709 1.351 . S
C709 C703 1.428 . S
C709 N708 1.351 . S
C709 C710 1.434 . S
C710 C701 1.429 . S
C710 N707 1.350 . S
C710 C709 1.434 . S
C711 C712 1.369 . S
C711 C713 1.419 . S
C711 H715 0.930 . S
C712 C711 1.369 . S
C712 C721 1.429 . S
C713 C711 1.419 . S
C713 C714 1.363 . S
C713 H716 0.929 . S
C714 C713 1.363 . S
C714 C720 1.428 . S
H715 C711 0.930 . S
H716 C713 0.929 . S
S717 N718 1.613 . S
S717 N719 1.610 . S
N718 S717 1.613 . S
N718 C721 1.350 . S
N719 S717 1.610 . S
N719 C720 1.351 . S
C720 C714 1.428 . S
C720 N719 1.351 . S
C720 C721 1.434 . S
C721 C712 1.429 . S
C721 N718 1.350 . S
C721 C720 1.434 . S
C722 C723 1.369 . S
C722 C724 1.419 . S
C722 H726 0.930 . S
C723 C722 1.369 . S
C723 C732 1.429 . S
C724 C722 1.419 . S
C724 C725 1.363 . S
C724 H727 0.929 . S
C725 C724 1.363 . S
C725 C731 1.428 . S
H726 C722 0.930 . S
H727 C724 0.929 . S
S728 N729 1.613 . S
S728 N730 1.610 . S
N729 S728 1.613 . S
N729 C732 1.350 . S
N730 S728 1.610 . S
N730 C731 1.351 . S
C731 C725 1.428 . S
C731 N730 1.351 . S
C731 C732 1.434 . S
C732 C723 1.429 . S
C732 N729 1.350 . S
C732 C731 1.434 . S
C733 C734 1.369 . S
C733 C735 1.419 . S
C733 H737 0.930 . S
C734 C733 1.369 . S
C734 C743 1.429 . S
C735 C733 1.419 . S
C735 C736 1.363 . S
C735 H738 0.929 . S
C736 C735 1.363 . S
C736 C742 1.428 . S
H737 C733 0.930 . S
H738 C735 0.929 . S
S739 N740 1.613 . S
S739 N741 1.610 . S
N740 S739 1.613 . S
N740 C743 1.350 . S
N741 S739 1.610 . S
N741 C742 1.351 . S
C742 C736 1.428 . S
C742 N741 1.351 . S
C742 C743 1.434 . S
C743 C734 1.429 . S
C743 N740 1.350 . S
C743 C742 1.434 . S
C744 C745 1.369 . S
C744 C746 1.419 . S
C744 H748 0.930 1_545 S
C745 C744 1.369 . S
C745 C754 1.429 . S
C746 C744 1.419 . S
C746 C747 1.363 . S
C746 H749 0.929 1_545 S
C747 C746 1.363 . S
C747 C753 1.428 . S
H748 C744 0.930 1_565 S
H749 C746 0.929 1_565 S
S750 N751 1.613 1_455 S
S750 N752 1.610 . S
N751 S750 1.613 1_655 S
N751 C754 1.350 . S
N752 S750 1.610 . S
N752 C753 1.351 1_455 S
C753 C747 1.428 . S
C753 N752 1.351 1_655 S
C753 C754 1.434 . S
C754 C745 1.429 . S
C754 N751 1.350 . S
C754 C753 1.434 . S
C755 C756 1.369 . S
C755 C757 1.419 . S
C755 H759 0.930 . S
C756 C755 1.369 . S
C756 C765 1.429 . S
C757 C755 1.419 . S
C757 C758 1.363 . S
C757 H760 0.929 . S
C758 C757 1.363 . S
C758 C764 1.428 . S
H759 C755 0.930 . S
H760 C757 0.929 . S
S761 N762 1.613 . S
S761 N763 1.610 . S
N762 S761 1.613 . S
N762 C765 1.350 . S
N763 S761 1.610 . S
N763 C764 1.351 . S
C764 C758 1.428 . S
C764 N763 1.351 . S
C764 C765 1.434 . S
C765 C756 1.429 . S
C765 N762 1.350 . S
C765 C764 1.434 . S
C766 C767 1.369 . S
C766 C768 1.419 . S
C766 H770 0.930 . S
C767 C766 1.369 . S
C767 C776 1.429 1_545 S
C768 C766 1.419 . S
C768 C769 1.363 . S
C768 H771 0.929 . S
C769 C768 1.363 . S
C769 C775 1.428 1_545 S
H770 C766 0.930 . S
H771 C768 0.929 . S
S772 N773 1.613 . S
S772 N774 1.610 . S
N773 S772 1.613 . S
N773 C776 1.350 . S
N774 S772 1.610 . S
N774 C775 1.351 . S
C775 C769 1.428 1_565 S
C775 N774 1.351 . S
C775 C776 1.434 . S
C776 C767 1.429 1_565 S
C776 N773 1.350 . S
C776 C775 1.434 . S
C777 C778 1.369 . S
C777 C779 1.419 . S
C777 H781 0.930 . S
C778 C777 1.369 . S
C778 C787 1.429 . S
C779 C777 1.419 . S
C779 C780 1.363 . S
C779 H782 0.929 . S
C780 C779 1.363 . S
C780 C786 1.428 . S
H781 C777 0.930 . S
H782 C779 0.929 . S
S783 N784 1.613 . S
S783 N785 1.610 . S
N784 S783 1.613 . S
N784 C787 1.350 . S
N785 S783 1.610 . S
N785 C786 1.351 . S
C786 C780 1.428 . S
C786 N785 1.351 . S
C786 C787 1.434 . S
C787 C778 1.429 . S
C787 N784 1.350 . S
C787 C786 1.434 . S
C788 C789 1.369 . S
C788 C790 1.419 . S
C788 H792 0.930 1_545 S
C789 C788 1.369 . S
C789 C798 1.429 . S
C790 C788 1.419 . S
C790 C791 1.363 . S
C790 H793 0.929 1_545 S
C791 C790 1.363 . S
C791 C797 1.428 . S
H792 C788 0.930 1_565 S
H793 C790 0.929 1_565 S
S794 N795 1.613 . S
S794 N796 1.610 . S
N795 S794 1.613 . S
N795 C798 1.350 . S
N796 S794 1.610 . S
N796 C797 1.351 . S
C797 C791 1.428 . S
C797 N796 1.351 . S
C797 C798 1.434 . S
C798 C789 1.429 . S
C798 N795 1.350 . S
C798 C797 1.434 . S
C799 C800 1.369 . S
C799 C801 1.419 . S
C799 H803 0.930 . S
C800 C799 1.369 . S
C800 C809 1.429 . S
C801 C799 1.419 . S
C801 C802 1.363 . S
C801 H804 0.929 . S
C802 C801 1.363 . S
C802 C808 1.428 . S
H803 C799 0.930 . S
H804 C801 0.929 . S
S805 N806 1.613 . S
S805 N807 1.610 . S
N806 S805 1.613 . S
N806 C809 1.350 . S
N807 S805 1.610 . S
N807 C808 1.351 . S
C808 C802 1.428 . S
C808 N807 1.351 . S
C808 C809 1.434 . S
C809 C800 1.429 . S
C809 N806 1.350 . S
C809 C808 1.434 . S
C810 C811 1.369 . S
C810 C812 1.419 . S
C810 H814 0.930 1_545 S
C811 C810 1.369 . S
C811 C820 1.429 . S
C812 C810 1.419 . S
C812 C813 1.363 . S
C812 H815 0.929 . S
C813 C812 1.363 . S
C813 C819 1.428 . S
H814 C810 0.930 1_565 S
H815 C812 0.929 . S
S816 N817 1.613 . S
S816 N818 1.610 . S
N817 S816 1.613 . S
N817 C820 1.350 . S
N818 S816 1.610 . S
N818 C819 1.351 . S
C819 C813 1.428 . S
C819 N818 1.351 . S
C819 C820 1.434 . S
C820 C811 1.429 . S
C820 N817 1.350 . S
C820 C819 1.434 . S
C821 C822 1.369 . S
C821 C823 1.419 . S
C821 H825 0.930 . S
C822 C821 1.369 . S
C822 C831 1.429 . S
C823 C821 1.419 . S
C823 C824 1.363 . S
C823 H826 0.929 . S
C824 C823 1.363 . S
C824 C830 1.428 . S
H825 C821 0.930 . S
H826 C823 0.929 . S
S827 N828 1.613 . S
S827 N829 1.610 . S
N828 S827 1.613 . S
N828 C831 1.350 . S
N829 S827 1.610 . S
N829 C830 1.351 . S
C830 C824 1.428 . S
C830 N829 1.351 . S
C830 C831 1.434 . S
C831 C822 1.429 . S
C831 N828 1.350 . S
C831 C830 1.434 . S
C832 C833 1.369 . S
C832 C834 1.419 1_565 S
C832 H836 0.930 1_565 S
C833 C832 1.369 . S
C833 C842 1.429 . S
C834 C832 1.419 1_545 S
C834 C835 1.363 1_545 S
C834 H837 0.929 . S
C835 C834 1.363 1_565 S
C835 C841 1.428 . S
H836 C832 0.930 1_545 S
H837 C834 0.929 . S
S838 N839 1.613 . S
S838 N840 1.610 1_556 S
N839 S838 1.613 . S
N839 C842 1.350 1_556 S
N840 S838 1.610 1_554 S
N840 C841 1.351 . S
C841 C835 1.428 . S
C841 N840 1.351 . S
C841 C842 1.434 . S
C842 C833 1.429 . S
C842 N839 1.350 1_554 S
C842 C841 1.434 . S
C843 C844 1.369 . S
C843 C845 1.419 . S
C843 H847 0.930 . S
C844 C843 1.369 . S
C844 C853 1.429 1_556 S
C845 C843 1.419 . S
C845 C846 1.363 . S
C845 H848 0.929 . S
C846 C845 1.363 . S
C846 C852 1.428 1_556 S
H847 C843 0.930 . S
H848 C845 0.929 . S
S849 N850 1.613 . S
S849 N851 1.610 . S
N850 S849 1.613 . S
N850 C853 1.350 . S
N851 S849 1.610 . S
N851 C852 1.351 . S
C852 C846 1.428 1_554 S
C852 N851 1.351 . S
C852 C853 1.434 . S
C853 C844 1.429 1_554 S
C853 N850 1.350 . S
C853 C852 1.434 . S
C854 C855 1.369 . S
C854 C856 1.419 . S
C854 H858 0.930 . S
C855 C854 1.369 . S
C855 C864 1.429 . S
C856 C854 1.419 . S
C856 C857 1.363 . S
C856 H859 0.929 . S
C857 C856 1.363 . S
C857 C863 1.428 . S
H858 C854 0.930 . S
H859 C856 0.929 . S
S860 N861 1.613 . S
S860 N862 1.610 . S
N861 S860 1.613 . S
N861 C864 1.350 . S
N862 S860 1.610 . S
N862 C863 1.351 . S
C863 C857 1.428 . S
C863 N862 1.351 . S
C863 C864 1.434 . S
C864 C855 1.429 . S
C864 N861 1.350 . S
C864 C863 1.434 . S
C865 C866 1.369 . S
C865 C867 1.419 . S
C865 H869 0.930 . S
C866 C865 1.369 . S
C866 C875 1.429 . S
C867 C865 1.419 . S
C867 C868 1.363 . S
C867 H870 0.929 . S
C868 C867 1.363 . S
C868 C874 1.428 . S
H869 C865 0.930 . S
H870 C867 0.929 . S
S871 N872 1.613 . S
S871 N873 1.610 . S
N872 S871 1.613 . S
N872 C875 1.350 . S
N873 S871 1.610 . S
N873 C874 1.351 . S
C874 C868 1.428 . S
C874 N873 1.351 . S
C874 C875 1.434 . S
C875 C866 1.429 . S
C875 N872 1.350 . S
C875 C874 1.434 . S
C876 C877 1.369 . S
C876 C878 1.419 . S
C876 H880 0.930 . S
C877 C876 1.369 . S
C877 C886 1.429 . S
C878 C876 1.419 . S
C878 C879 1.363 . S
C878 H881 0.929 . S
C879 C878 1.363 . S
C879 C885 1.428 . S
H880 C876 0.930 . S
H881 C878 0.929 . S
S882 N883 1.613 . S
S882 N884 1.610 . S
N883 S882 1.613 . S
N883 C886 1.350 . S
N884 S882 1.610 . S
N884 C885 1.351 . S
C885 C879 1.428 . S
C885 N884 1.351 . S
C885 C886 1.434 . S
C886 C877 1.429 . S
C886 N883 1.350 . S
C886 C885 1.434 . S
C887 C888 1.369 . S
C887 C889 1.419 . S
C887 H891 0.930 . S
C888 C887 1.369 . S
C888 C897 1.429 . S
C889 C887 1.419 . S
C889 C890 1.363 . S
C889 H892 0.929 . S
C890 C889 1.363 . S
C890 C896 1.428 . S
H891 C887 0.930 . S
H892 C889 0.929 . S
S893 N894 1.613 . S
S893 N895 1.610 . S
N894 S893 1.613 . S
N894 C897 1.350 . S
N895 S893 1.610 . S
N895 C896 1.351 . S
C896 C890 1.428 . S
C896 N895 1.351 . S
C896 C897 1.434 . S
C897 C888 1.429 . S
C897 N894 1.350 . S
C897 C896 1.434 . S
C898 C899 1.369 . S
C898 C900 1.419 . S
C898 H902 0.930 . S
C899 C898 1.369 . S
C899 C908 1.429 . S
C900 C898 1.419 . S
C900 C901 1.363 . S
C900 H903 0.929 . S
C901 C900 1.363 . S
C901 C907 1.428 . S
H902 C898 0.930 . S
H903 C900 0.929 . S
S904 N905 1.613 . S
S904 N906 1.610 . S
N905 S904 1.613 . S
N905 C908 1.350 . S
N906 S904 1.610 . S
N906 C907 1.351 . S
C907 C901 1.428 . S
C907 N906 1.351 . S
C907 C908 1.434 . S
C908 C899 1.429 . S
C908 N905 1.350 . S
C908 C907 1.434 . S
C909 C910 1.369 . S
C909 C911 1.419 . S
C909 H913 0.930 . S
C910 C909 1.369 . S
C910 C919 1.429 . S
C911 C909 1.419 . S
C911 C912 1.363 . S
C911 H914 0.929 . S
C912 C911 1.363 . S
C912 C918 1.428 . S
H913 C909 0.930 . S
H914 C911 0.929 . S
S915 N916 1.613 . S
S915 N917 1.610 . S
N916 S915 1.613 . S
N916 C919 1.350 . S
N917 S915 1.610 . S
N917 C918 1.351 . S
C918 C912 1.428 . S
C918 N917 1.351 . S
C918 C919 1.434 . S
C919 C910 1.429 . S
C919 N916 1.350 . S
C919 C918 1.434 . S
C920 C921 1.369 . S
C920 C922 1.419 . S
C920 H924 0.930 . S
C921 C920 1.369 . S
C921 C930 1.429 . S
C922 C920 1.419 . S
C922 C923 1.363 . S
C922 H925 0.929 . S
C923 C922 1.363 . S
C923 C929 1.428 . S
H924 C920 0.930 . S
H925 C922 0.929 . S
S926 N927 1.613 1_556 S
S926 N928 1.610 . S
N927 S926 1.613 1_554 S
N927 C930 1.350 . S
N928 S926 1.610 . S
N928 C929 1.351 1_556 S
C929 C923 1.428 . S
C929 N928 1.351 1_554 S
C929 C930 1.434 . S
C930 C921 1.429 . S
C930 N927 1.350 . S
C930 C929 1.434 . S
C931 C932 1.369 . S
C931 C933 1.419 . S
C931 H935 0.930 . S
C932 C931 1.369 . S
C932 C941 1.429 . S
C933 C931 1.419 . S
C933 C934 1.363 . S
C933 H936 0.929 . S
C934 C933 1.363 . S
C934 C940 1.428 . S
H935 C931 0.930 . S
H936 C933 0.929 . S
S937 N938 1.613 . S
S937 N939 1.610 . S
N938 S937 1.613 . S
N938 C941 1.350 . S
N939 S937 1.610 . S
N939 C940 1.351 . S
C940 C934 1.428 . S
C940 N939 1.351 . S
C940 C941 1.434 . S
C941 C932 1.429 . S
C941 N938 1.350 . S
C941 C940 1.434 . S
C942 C943 1.369 . S
C942 C944 1.419 . S
C942 H946 0.930 . S
C943 C942 1.369 . S
C943 C952 1.429 . S
C944 C942 1.419 . S
C944 C945 1.363 . S
C944 H947 0.929 . S
C945 C944 1.363 . S
C945 C951 1.428 . S
H946 C942 0.930 . S
H947 C944 0.929 . S
S948 N949 1.613 . S
S948 N950 1.610 . S
N949 S948 1.613 . S
N949 C952 1.350 . S
N950 S948 1.610 . S
N950 C951 1.351 . S
C951 C945 1.428 . S
C951 N950 1.351 . S
C951 C952 1.434 . S
C952 C943 1.429 . S
C952 N949 1.350 . S
C952 C951 1.434 . S
C953 C954 1.369 . S
C953 C955 1.419 . S
C953 H957 0.930 . S
C954 C953 1.369 . S
C954 C963 1.429 . S
C955 C953 1.419 . S
C955 C956 1.363 . S
C955 H958 0.929 . S
C956 C955 1.363 . S
C956 C962 1.428 . S
H957 C953 0.930 . S
H958 C955 0.929 . S
S959 N960 1.613 . S
S959 N961 1.610 . S
N960 S959 1.613 . S
N960 C963 1.350 . S
N961 S959 1.610 . S
N961 C962 1.351 . S
C962 C956 1.428 . S
C962 N961 1.351 . S
C962 C963 1.434 . S
C963 C954 1.429 . S
C963 N960 1.350 . S
C963 C962 1.434 . S
C964 C965 1.390 . S
C964 C966 1.420 1_455 S
C964 H968 0.908 1_455 S
C965 C964 1.390 . S
C965 C974 1.429 . S
C966 C964 1.420 1_655 S
C966 C967 1.363 1_655 S
C966 H969 0.929 . S
C967 C966 1.363 1_455 S
C967 C973 1.428 . S
H968 C964 0.908 1_655 S
H969 C966 0.929 . S
S970 N971 1.613 . S
S970 N972 1.610 . S
N971 S970 1.613 . S
N971 C974 1.350 . S
N972 S970 1.610 . S
N972 C973 1.351 . S
C973 C967 1.428 . S
C973 N972 1.351 . S
C973 C974 1.434 . S
C974 C965 1.429 . S
C974 N971 1.350 . S
C974 C973 1.434 . S
C975 C976 1.369 . S
C975 C977 1.419 . S
C975 H979 0.930 . S
C976 C975 1.369 . S
C976 C985 1.429 . S
C977 C975 1.419 . S
C977 C978 1.363 . S
C977 H980 0.929 . S
C978 C977 1.363 . S
C978 C984 1.428 . S
H979 C975 0.930 . S
H980 C977 0.929 . S
S981 N982 1.613 . S
S981 N983 1.610 . S
N982 S981 1.613 . S
N982 C985 1.350 . S
N983 S981 1.610 . S
N983 C984 1.351 . S
C984 C978 1.428 . S
C984 N983 1.351 . S
C984 C985 1.434 . S
C985 C976 1.429 . S
C985 N982 1.350 . S
C985 C984 1.434 . S
C986 C987 1.369 . S
C986 C988 1.419 . S
C986 H990 0.930 . S
C987 C986 1.369 . S
C987 C996 1.429 . S
C988 C986 1.419 . S
C988 C989 1.363 . S
C988 H991 0.929 1_556 S
C989 C988 1.363 . S
C989 C995 1.428 . S
H990 C986 0.930 . S
H991 C988 0.929 1_554 S
S992 N993 1.613 . S
S992 N994 1.610 . S
N993 S992 1.613 . S
N993 C996 1.350 . S
N994 S992 1.610 . S
N994 C995 1.351 . S
C995 C989 1.428 . S
C995 N994 1.351 . S
C995 C996 1.434 . S
C996 C987 1.429 . S
C996 N993 1.350 . S
C996 C995 1.434 . S
C997 C998 1.369 . S
C997 C999 1.419 . S
C997 H1001 0.930 . S
C998 C997 1.369 . S
C998 C1007 1.429 . S
C999 C997 1.419 . S
C999 C1000 1.363 . S
C999 H1002 0.929 . S
C1000 C999 1.363 . S
C1000 C1006 1.428 . S
H1001 C997 0.930 . S
H1002 C999 0.929 . S
S1003 N1004 1.613 . S
S1003 N1005 1.610 . S
N1004 S1003 1.613 . S
N1004 C1007 1.350 . S
N1005 S1003 1.610 . S
N1005 C1006 1.351 . S
C1006 C1000 1.428 . S
C1006 N1005 1.351 . S
C1006 C1007 1.434 . S
C1007 C998 1.429 . S
C1007 N1004 1.350 . S
C1007 C1006 1.434 . S
C1008 C1009 1.369 . S
C1008 C1010 1.419 . S
C1008 H1012 0.930 1_545 S
C1009 C1008 1.369 . S
C1009 C1018 1.429 . S
C1010 C1008 1.419 . S
C1010 C1011 1.363 . S
C1010 H1013 0.929 1_545 S
C1011 C1010 1.363 . S
C1011 C1017 1.428 . S
H1012 C1008 0.930 1_565 S
H1013 C1010 0.929 1_565 S
S1014 N1015 1.613 . S
S1014 N1016 1.610 . S
N1015 S1014 1.613 . S
N1015 C1018 1.350 . S
N1016 S1014 1.610 . S
N1016 C1017 1.351 . S
C1017 C1011 1.428 . S
C1017 N1016 1.351 . S
C1017 C1018 1.434 . S
C1018 C1009 1.429 . S
C1018 N1015 1.350 . S
C1018 C1017 1.434 . S
C1019 C1020 1.369 . S
C1019 C1021 1.419 . S
C1019 H1023 0.930 . S
C1020 C1019 1.369 . S
C1020 C1029 1.429 . S
C1021 C1019 1.419 . S
C1021 C1022 1.363 . S
C1021 H1024 0.929 . S
C1022 C1021 1.363 . S
C1022 C1028 1.428 . S
H1023 C1019 0.930 . S
H1024 C1021 0.929 . S
S1025 N1026 1.613 . S
S1025 N1027 1.610 . S
N1026 S1025 1.613 . S
N1026 C1029 1.350 . S
N1027 S1025 1.610 . S
N1027 C1028 1.351 . S
C1028 C1022 1.428 . S
C1028 N1027 1.351 . S
C1028 C1029 1.434 . S
C1029 C1020 1.429 . S
C1029 N1026 1.350 . S
C1029 C1028 1.434 . S
C1030 C1031 1.369 . S
C1030 C1032 1.419 . S
C1030 H1034 0.930 . S
C1031 C1030 1.369 . S
C1031 C1040 1.429 . S
C1032 C1030 1.419 . S
C1032 C1033 1.363 . S
C1032 H1035 0.929 . S
C1033 C1032 1.363 . S
C1033 C1039 1.428 . S
H1034 C1030 0.930 . S
H1035 C1032 0.929 . S
S1036 N1037 1.627 . S
S1036 N1038 1.616 . S
N1037 S1036 1.627 . S
N1037 C1040 1.350 . S
N1038 S1036 1.616 . S
N1038 C1039 1.351 . S
C1039 C1033 1.428 . S
C1039 N1038 1.351 . S
C1039 C1040 1.434 . S
C1040 C1031 1.429 . S
C1040 N1037 1.350 . S
C1040 C1039 1.434 . S
C1041 C1042 1.369 . S
C1041 C1043 1.419 . S
C1041 H1045 0.930 . S
C1042 C1041 1.369 . S
C1042 C1051 1.429 . S
C1043 C1041 1.419 . S
C1043 C1044 1.363 . S
C1043 H1046 0.929 . S
C1044 C1043 1.363 . S
C1044 C1050 1.428 . S
H1045 C1041 0.930 . S
H1046 C1043 0.929 . S
S1047 N1048 1.613 . S
S1047 N1049 1.610 . S
N1048 S1047 1.613 . S
N1048 C1051 1.350 . S
N1049 S1047 1.610 . S
N1049 C1050 1.351 . S
C1050 C1044 1.428 . S
C1050 N1049 1.351 . S
C1050 C1051 1.434 . S
C1051 C1042 1.429 . S
C1051 N1048 1.350 . S
C1051 C1050 1.434 . S
C1052 C1053 1.369 . S
C1052 C1054 1.419 1_565 S
C1052 H1056 0.930 . S
C1053 C1052 1.369 . S
C1053 C1062 1.429 1_565 S
C1054 C1052 1.419 1_545 S
C1054 C1055 1.363 . S
C1054 H1057 0.929 . S
C1055 C1054 1.363 . S
C1055 C1061 1.428 . S
H1056 C1052 0.930 . S
H1057 C1054 0.929 . S
S1058 N1059 1.613 1_545 S
S1058 N1060 1.610 . S
N1059 S1058 1.613 1_565 S
N1059 C1062 1.350 1_565 S
N1060 S1058 1.610 . S
N1060 C1061 1.351 . S
C1061 C1055 1.428 . S
C1061 N1060 1.351 . S
C1061 C1062 1.434 . S
C1062 C1053 1.429 1_545 S
C1062 N1059 1.350 1_545 S
C1062 C1061 1.434 . S
C1063 C1064 1.369 . S
C1063 C1065 1.419 . S
C1063 H1067 0.930 . S
C1064 C1063 1.369 . S
C1064 C1073 1.429 . S
C1065 C1063 1.419 . S
C1065 C1066 1.363 . S
C1065 H1068 0.929 . S
C1066 C1065 1.363 . S
C1066 C1072 1.428 . S
H1067 C1063 0.930 . S
H1068 C1065 0.929 . S
S1069 N1070 1.613 . S
S1069 N1071 1.610 . S
N1070 S1069 1.613 . S
N1070 C1073 1.350 . S
N1071 S1069 1.610 . S
N1071 C1072 1.351 . S
C1072 C1066 1.428 . S
C1072 N1071 1.351 . S
C1072 C1073 1.434 . S
C1073 C1064 1.429 . S
C1073 N1070 1.350 . S
C1073 C1072 1.434 . S
C1074 C1075 1.369 1_565 S
C1074 C1076 1.418 . S
C1074 H1078 0.930 . S
C1075 C1074 1.369 1_545 S
C1075 C1084 1.429 . S
C1076 C1074 1.418 . S
C1076 C1077 1.363 . S
C1076 H1079 0.929 . S
C1077 C1076 1.363 . S
C1077 C1083 1.428 1_565 S
H1078 C1074 0.930 . S
H1079 C1076 0.929 . S
S1080 N1081 1.613 . S
S1080 N1082 1.610 . S
N1081 S1080 1.613 . S
N1081 C1084 1.350 . S
N1082 S1080 1.610 . S
N1082 C1083 1.351 . S
C1083 C1077 1.428 1_545 S
C1083 N1082 1.351 . S
C1083 C1084 1.434 . S
C1084 C1075 1.429 . S
C1084 N1081 1.350 . S
C1084 C1083 1.434 . S
C1085 C1086 1.369 . S
C1085 C1087 1.419 . S
C1085 H1089 0.930 . S
C1086 C1085 1.369 . S
C1086 C1095 1.429 . S
C1087 C1085 1.419 . S
C1087 C1088 1.363 . S
C1087 H1090 0.929 . S
C1088 C1087 1.363 . S
C1088 C1094 1.428 . S
H1089 C1085 0.930 . S
H1090 C1087 0.929 . S
S1091 N1092 1.613 . S
S1091 N1093 1.610 . S
N1092 S1091 1.613 . S
N1092 C1095 1.350 . S
N1093 S1091 1.610 . S
N1093 C1094 1.351 . S
C1094 C1088 1.428 . S
C1094 N1093 1.351 . S
C1094 C1095 1.434 . S
C1095 C1086 1.429 . S
C1095 N1092 1.350 . S
C1095 C1094 1.434 . S
C1096 C1097 1.365 1_556 S
C1096 C1098 1.419 . S
C1096 H1100 0.930 . S
C1097 C1096 1.365 1_554 S
C1097 C1106 1.432 . S
C1098 C1096 1.419 . S
C1098 C1099 1.363 . S
C1098 H1101 0.929 . S
C1099 C1098 1.363 . S
C1099 C1105 1.428 1_556 S
H1100 C1096 0.930 . S
H1101 C1098 0.929 . S
S1102 N1103 1.613 . S
S1102 N1104 1.610 . S
N1103 S1102 1.613 . S
N1103 C1106 1.350 . S
N1104 S1102 1.610 . S
N1104 C1105 1.351 . S
C1105 C1099 1.428 1_554 S
C1105 N1104 1.351 . S
C1105 C1106 1.434 . S
C1106 C1097 1.432 . S
C1106 N1103 1.350 . S
C1106 C1105 1.434 . S
C1107 C1108 1.369 1_556 S
C1107 C1109 1.419 . S
C1107 H1111 0.930 . S
C1108 C1107 1.369 1_554 S
C1108 C1117 1.429 . S
C1109 C1107 1.419 . S
C1109 C1110 1.363 1_556 S
C1109 H1112 0.929 . S
C1110 C1109 1.363 1_554 S
C1110 C1116 1.428 . S
H1111 C1107 0.930 . S
H1112 C1109 0.929 . S
S1113 N1114 1.613 . S
S1113 N1115 1.610 . S
N1114 S1113 1.613 . S
N1114 C1117 1.350 . S
N1115 S1113 1.610 . S
N1115 C1116 1.351 . S
C1116 C1110 1.428 . S
C1116 N1115 1.351 . S
C1116 C1117 1.434 . S
C1117 C1108 1.429 . S
C1117 N1114 1.350 . S
C1117 C1116 1.434 . S
C1118 C1119 1.369 . S
C1118 C1120 1.419 . S
C1118 H1122 0.930 . S
C1119 C1118 1.369 . S
C1119 C1128 1.429 . S
C1120 C1118 1.419 . S
C1120 C1121 1.363 . S
C1120 H1123 0.929 . S
C1121 C1120 1.363 . S
C1121 C1127 1.428 . S
H1122 C1118 0.930 . S
H1123 C1120 0.929 . S
S1124 N1125 1.613 . S
S1124 N1126 1.610 . S
N1125 S1124 1.613 . S
N1125 C1128 1.350 . S
N1126 S1124 1.610 . S
N1126 C1127 1.351 . S
C1127 C1121 1.428 . S
C1127 N1126 1.351 . S
C1127 C1128 1.434 . S
C1128 C1119 1.429 . S
C1128 N1125 1.350 . S
C1128 C1127 1.434 . S
C1129 C1130 1.369 . S
C1129 C1131 1.419 . S
C1129 H1133 0.930 . S
C1130 C1129 1.369 . S
C1130 C1139 1.429 . S
C1131 C1129 1.419 . S
C1131 C1132 1.363 . S
C1131 H1134 0.929 . S
C1132 C1131 1.363 . S
C1132 C1138 1.428 . S
H1133 C1129 0.930 . S
H1134 C1131 0.929 . S
S1135 N1136 1.613 . S
S1135 N1137 1.610 . S
N1136 S1135 1.613 . S
N1136 C1139 1.350 . S
N1137 S1135 1.610 . S
N1137 C1138 1.351 . S
C1138 C1132 1.428 . S
C1138 N1137 1.351 . S
C1138 C1139 1.434 . S
C1139 C1130 1.429 . S
C1139 N1136 1.350 . S
C1139 C1138 1.434 . S
C1140 C1141 1.369 . S
C1140 C1142 1.419 . S
C1140 H1144 0.930 . S
C1141 C1140 1.369 . S
C1141 C1150 1.429 . S
C1142 C1140 1.419 . S
C1142 C1143 1.363 . S
C1142 H1145 0.929 . S
C1143 C1142 1.363 . S
C1143 C1149 1.428 . S
H1144 C1140 0.930 . S
H1145 C1142 0.929 . S
S1146 N1147 1.613 . S
S1146 N1148 1.610 . S
N1147 S1146 1.613 . S
N1147 C1150 1.350 . S
N1148 S1146 1.610 . S
N1148 C1149 1.351 . S
C1149 C1143 1.428 . S
C1149 N1148 1.351 . S
C1149 C1150 1.434 . S
C1150 C1141 1.429 . S
C1150 N1147 1.350 . S
C1150 C1149 1.434 . S
C1151 C1152 1.369 . S
C1151 C1153 1.419 . S
C1151 H1155 0.930 . S
C1152 C1151 1.369 . S
C1152 C1161 1.429 . S
C1153 C1151 1.419 . S
C1153 C1154 1.363 . S
C1153 H1156 0.919 1_565 S
C1154 C1153 1.363 . S
C1154 C1160 1.428 . S
H1155 C1151 0.930 . S
H1156 C1153 0.919 1_545 S
S1157 N1158 1.613 . S
S1157 N1159 1.610 . S
N1158 S1157 1.613 . S
N1158 C1161 1.350 . S
N1159 S1157 1.610 . S
N1159 C1160 1.351 . S
C1160 C1154 1.428 . S
C1160 N1159 1.351 . S
C1160 C1161 1.434 . S
C1161 C1152 1.429 . S
C1161 N1158 1.350 . S
C1161 C1160 1.434 . S
C1162 C1163 1.369 . S
C1162 C1164 1.419 . S
C1162 H1166 0.930 . S
C1163 C1162 1.369 . S
C1163 C1172 1.429 . S
C1164 C1162 1.419 . S
C1164 C1165 1.363 . S
C1164 H1167 0.929 . S
C1165 C1164 1.363 . S
C1165 C1171 1.428 . S
H1166 C1162 0.930 . S
H1167 C1164 0.929 . S
S1168 N1169 1.613 . S
S1168 N1170 1.610 . S
N1169 S1168 1.613 . S
N1169 C1172 1.350 . S
N1170 S1168 1.610 . S
N1170 C1171 1.351 . S
C1171 C1165 1.428 . S
C1171 N1170 1.351 . S
C1171 C1172 1.434 . S
C1172 C1163 1.429 . S
C1172 N1169 1.350 . S
C1172 C1171 1.434 . S
C1173 C1174 1.369 . S
C1173 C1175 1.419 . S
C1173 H1177 0.930 . S
C1174 C1173 1.369 . S
C1174 C1183 1.429 . S
C1175 C1173 1.419 . S
C1175 C1176 1.363 . S
C1175 H1178 0.929 . S
C1176 C1175 1.363 . S
C1176 C1182 1.428 . S
H1177 C1173 0.930 . S
H1178 C1175 0.929 . S
S1179 N1180 1.613 . S
S1179 N1181 1.610 . S
N1180 S1179 1.613 . S
N1180 C1183 1.350 . S
N1181 S1179 1.610 . S
N1181 C1182 1.351 . S
C1182 C1176 1.428 . S
C1182 N1181 1.351 . S
C1182 C1183 1.434 . S
C1183 C1174 1.429 . S
C1183 N1180 1.350 . S
C1183 C1182 1.434 . S
C1184 C1185 1.369 . S
C1184 C1186 1.419 . S
C1184 H1188 0.930 . S
C1185 C1184 1.369 . S
C1185 C1194 1.429 . S
C1186 C1184 1.419 . S
C1186 C1187 1.363 . S
C1186 H1189 0.929 . S
C1187 C1186 1.363 . S
C1187 C1193 1.428 . S
H1188 C1184 0.930 . S
H1189 C1186 0.929 . S
S1190 N1191 1.613 . S
S1190 N1192 1.610 . S
N1191 S1190 1.613 . S
N1191 C1194 1.350 . S
N1192 S1190 1.610 . S
N1192 C1193 1.351 . S
C1193 C1187 1.428 . S
C1193 N1192 1.351 . S
C1193 C1194 1.434 . S
C1194 C1185 1.429 . S
C1194 N1191 1.350 . S
C1194 C1193 1.434 . S
C1195 C1196 1.369 . S
C1195 C1197 1.419 . S
C1195 H1199 0.930 . S
C1196 C1195 1.369 . S
C1196 C1205 1.429 . S
C1197 C1195 1.419 . S
C1197 C1198 1.363 . S
C1197 H1200 0.929 . S
C1198 C1197 1.363 . S
C1198 C1204 1.428 . S
H1199 C1195 0.930 . S
H1200 C1197 0.929 . S
S1201 N1202 1.613 . S
S1201 N1203 1.610 . S
N1202 S1201 1.613 . S
N1202 C1205 1.350 . S
N1203 S1201 1.610 . S
N1203 C1204 1.351 . S
C1204 C1198 1.428 . S
C1204 N1203 1.351 . S
C1204 C1205 1.434 . S
C1205 C1196 1.429 . S
C1205 N1202 1.350 . S
C1205 C1204 1.434 . S
C1206 C1207 1.369 1_655 S
C1206 C1208 1.419 . S
C1206 H1210 0.930 . S
C1207 C1206 1.369 1_455 S
C1207 C1216 1.429 . S
C1208 C1206 1.419 . S
C1208 C1209 1.363 1_655 S
C1208 H1211 0.929 1_556 S
C1209 C1208 1.363 1_455 S
C1209 C1215 1.428 . S
H1210 C1206 0.930 . S
H1211 C1208 0.929 1_554 S
S1212 N1213 1.613 . S
S1212 N1214 1.610 . S
N1213 S1212 1.613 . S
N1213 C1216 1.350 . S
N1214 S1212 1.610 . S
N1214 C1215 1.351 . S
C1215 C1209 1.428 . S
C1215 N1214 1.351 . S
C1215 C1216 1.434 . S
C1216 C1207 1.429 . S
C1216 N1213 1.350 . S
C1216 C1215 1.434 . S
C1217 C1218 1.369 . S
C1217 C1219 1.419 . S
C1217 H1221 0.930 . S
C1218 C1217 1.369 . S
C1218 C1227 1.429 . S
C1219 C1217 1.419 . S
C1219 C1220 1.363 . S
C1219 H1222 0.929 . S
C1220 C1219 1.363 . S
C1220 C1226 1.428 . S
H1221 C1217 0.930 . S
H1222 C1219 0.929 . S
S1223 N1224 1.613 . S
S1223 N1225 1.610 . S
N1224 S1223 1.613 . S
N1224 C1227 1.350 . S
N1225 S1223 1.610 . S
N1225 C1226 1.351 . S
C1226 C1220 1.428 . S
C1226 N1225 1.351 . S
C1226 C1227 1.434 . S
C1227 C1218 1.429 . S
C1227 N1224 1.350 . S
C1227 C1226 1.434 . S
C1228 C1229 1.369 . S
C1228 C1230 1.419 . S
C1228 H1232 0.930 . S
C1229 C1228 1.369 . S
C1229 C1238 1.429 . S
C1230 C1228 1.419 . S
C1230 C1231 1.363 . S
C1230 H1233 0.929 . S
C1231 C1230 1.363 . S
C1231 C1237 1.428 . S
H1232 C1228 0.930 . S
H1233 C1230 0.929 . S
S1234 N1235 1.613 1_556 S
S1234 N1236 1.610 . S
N1235 S1234 1.613 1_554 S
N1235 C1238 1.350 . S
N1236 S1234 1.610 . S
N1236 C1237 1.351 1_556 S
C1237 C1231 1.428 . S
C1237 N1236 1.351 1_554 S
C1237 C1238 1.434 . S
C1238 C1229 1.429 . S
C1238 N1235 1.350 . S
C1238 C1237 1.434 . S
C1239 C1240 1.369 . S
C1239 C1241 1.419 . S
C1239 H1243 0.930 . S
C1240 C1239 1.369 . S
C1240 C1249 1.429 . S
C1241 C1239 1.419 . S
C1241 C1242 1.363 . S
C1241 H1244 0.929 . S
C1242 C1241 1.363 . S
C1242 C1248 1.428 . S
H1243 C1239 0.930 . S
H1244 C1241 0.929 . S
S1245 N1246 1.613 . S
S1245 N1247 1.610 . S
N1246 S1245 1.613 . S
N1246 C1249 1.350 . S
N1247 S1245 1.610 . S
N1247 C1248 1.351 . S
C1248 C1242 1.428 . S
C1248 N1247 1.351 . S
C1248 C1249 1.434 . S
C1249 C1240 1.429 . S
C1249 N1246 1.350 . S
C1249 C1248 1.434 . S
C1250 C1251 1.369 1_455 S
C1250 C1252 1.419 . S
C1250 H1254 0.930 . S
C1251 C1250 1.369 1_655 S
C1251 C1260 1.429 . S
C1252 C1250 1.419 . S
C1252 C1253 1.363 . S
C1252 H1255 0.929 . S
C1253 C1252 1.363 . S
C1253 C1259 1.428 1_455 S
H1254 C1250 0.930 . S
H1255 C1252 0.929 . S
S1256 N1257 1.613 . S
S1256 N1258 1.610 . S
N1257 S1256 1.613 . S
N1257 C1260 1.350 . S
N1258 S1256 1.610 . S
N1258 C1259 1.351 . S
C1259 C1253 1.428 1_655 S
C1259 N1258 1.351 . S
C1259 C1260 1.434 . S
C1260 C1251 1.429 . S
C1260 N1257 1.350 . S
C1260 C1259 1.434 . S
C1261 C1262 1.369 . S
C1261 C1263 1.419 . S
C1261 H1265 0.930 . S
C1262 C1261 1.369 . S
C1262 C1271 1.429 . S
C1263 C1261 1.419 . S
C1263 C1264 1.363 . S
C1263 H1266 0.929 . S
C1264 C1263 1.363 . S
C1264 C1270 1.428 . S
H1265 C1261 0.930 . S
H1266 C1263 0.929 . S
S1267 N1268 1.613 . S
S1267 N1269 1.610 . S
N1268 S1267 1.613 . S
N1268 C1271 1.350 . S
N1269 S1267 1.610 . S
N1269 C1270 1.351 . S
C1270 C1264 1.428 . S
C1270 N1269 1.351 . S
C1270 C1271 1.434 . S
C1271 C1262 1.429 . S
C1271 N1268 1.350 . S
C1271 C1270 1.434 . S
C1272 C1273 1.369 . S
C1272 C1274 1.419 . S
C1272 H1276 0.930 . S
C1273 C1272 1.369 . S
C1273 C1282 1.429 . S
C1274 C1272 1.419 . S
C1274 C1275 1.363 . S
C1274 H1277 0.929 . S
C1275 C1274 1.363 . S
C1275 C1281 1.428 . S
H1276 C1272 0.930 . S
H1277 C1274 0.929 . S
S1278 N1279 1.613 . S
S1278 N1280 1.610 . S
N1279 S1278 1.613 . S
N1279 C1282 1.350 . S
N1280 S1278 1.610 . S
N1280 C1281 1.351 . S
C1281 C1275 1.428 . S
C1281 N1280 1.351 . S
C1281 C1282 1.434 . S
C1282 C1273 1.429 . S
C1282 N1279 1.350 . S
C1282 C1281 1.434 . S
C1283 C1284 1.369 . S
C1283 C1285 1.419 . S
C1283 H1287 0.930 . S
C1284 C1283 1.369 . S
C1284 C1293 1.429 . S
C1285 C1283 1.419 . S
C1285 C1286 1.363 . S
C1285 H1288 0.929 . S
C1286 C1285 1.363 . S
C1286 C1292 1.428 . S
H1287 C1283 0.930 . S
H1288 C1285 0.929 . S
S1289 N1290 1.613 . S
S1289 N1291 1.610 . S
N1290 S1289 1.613 . S
N1290 C1293 1.350 . S
N1291 S1289 1.610 . S
N1291 C1292 1.351 . S
C1292 C1286 1.428 . S
C1292 N1291 1.351 . S
C1292 C1293 1.434 . S
C1293 C1284 1.429 . S
C1293 N1290 1.350 . S
C1293 C1292 1.434 . S
C1294 C1295 1.369 . S
C1294 C1296 1.419 . S
C1294 H1298 0.930 . S
C1295 C1294 1.369 . S
C1295 C1304 1.429 . S
C1296 C1294 1.419 . S
C1296 C1297 1.363 . S
C1296 H1299 0.929 . S
C1297 C1296 1.363 . S
C1297 C1303 1.428 . S
H1298 C1294 0.930 . S
H1299 C1296 0.929 . S
S1300 N1301 1.613 . S
S1300 N1302 1.610 . S
N1301 S1300 1.613 . S
N1301 C1304 1.350 . S
N1302 S1300 1.610 . S
N1302 C1303 1.351 . S
C1303 C1297 1.428 . S
C1303 N1302 1.351 . S
C1303 C1304 1.434 . S
C1304 C1295 1.429 . S
C1304 N1301 1.350 . S
C1304 C1303 1.434 . S
C1305 C1306 1.369 . S
C1305 C1307 1.419 . S
C1305 H1309 0.930 . S
C1306 C1305 1.369 . S
C1306 C1315 1.429 . S
C1307 C1305 1.419 . S
C1307 C1308 1.363 . S
C1307 H1310 0.929 . S
C1308 C1307 1.363 . S
C1308 C1314 1.428 . S
H1309 C1305 0.930 . S
H1310 C1307 0.929 . S
S1311 N1312 1.613 . S
S1311 N1313 1.610 . S
N1312 S1311 1.613 . S
N1312 C1315 1.350 . S
N1313 S1311 1.610 . S
N1313 C1314 1.351 . S
C1314 C1308 1.428 . S
C1314 N1313 1.351 . S
C1314 C1315 1.434 . S
C1315 C1306 1.429 . S
C1315 N1312 1.350 . S
C1315 C1314 1.434 . S
C1316 C1317 1.369 . S
C1316 C1318 1.419 . S
C1316 H1320 0.930 . S
C1317 C1316 1.369 . S
C1317 C1326 1.429 . S
C1318 C1316 1.419 . S
C1318 C1319 1.363 . S
C1318 H1321 0.929 . S
C1319 C1318 1.363 . S
C1319 C1325 1.428 . S
H1320 C1316 0.930 . S
H1321 C1318 0.929 . S
S1322 N1323 1.613 . S
S1322 N1324 1.610 . S
N1323 S1322 1.613 . S
N1323 C1326 1.350 . S
N1324 S1322 1.610 . S
N1324 C1325 1.351 . S
C1325 C1319 1.428 . S
C1325 N1324 1.351 . S
C1325 C1326 1.434 . S
C1326 C1317 1.429 . S
C1326 N1323 1.350 . S
C1326 C1325 1.434 . S
C1327 C1328 1.369 . S
C1327 C1329 1.419 . S
C1327 H1331 0.930 . S
C1328 C1327 1.369 . S
C1328 C1337 1.429 . S
C1329 C1327 1.419 . S
C1329 C1330 1.363 . S
C1329 H1332 0.929 . S
C1330 C1329 1.363 . S
C1330 C1336 1.428 . S
H1331 C1327 0.930 . S
H1332 C1329 0.929 . S
S1333 N1334 1.613 . S
S1333 N1335 1.610 . S
N1334 S1333 1.613 . S
N1334 C1337 1.350 . S
N1335 S1333 1.610 . S
N1335 C1336 1.351 . S
C1336 C1330 1.428 . S
C1336 N1335 1.351 . S
C1336 C1337 1.434 . S
C1337 C1328 1.429 . S
C1337 N1334 1.350 . S
C1337 C1336 1.434 . S
C1338 C1339 1.369 . S
C1338 C1340 1.419 . S
C1338 H1342 0.930 . S
C1339 C1338 1.369 . S
C1339 C1348 1.429 . S
C1340 C1338 1.419 . S
C1340 C1341 1.363 . S
C1340 H1343 0.929 . S
C1341 C1340 1.363 . S
C1341 C1347 1.428 . S
H1342 C1338 0.930 . S
H1343 C1340 0.929 . S
S1344 N1345 1.613 . S
S1344 N1346 1.610 . S
N1345 S1344 1.613 . S
N1345 C1348 1.350 . S
N1346 S1344 1.610 . S
N1346 C1347 1.351 . S
C1347 C1341 1.428 . S
C1347 N1346 1.351 . S
C1347 C1348 1.434 . S
C1348 C1339 1.429 . S
C1348 N1345 1.350 . S
C1348 C1347 1.434 . S
C1349 C1350 1.369 . S
C1349 C1351 1.419 . S
C1349 H1353 0.930 . S
C1350 C1349 1.369 . S
C1350 C1359 1.429 . S
C1351 C1349 1.419 . S
C1351 C1352 1.363 . S
C1351 H1354 0.929 . S
C1352 C1351 1.363 . S
C1352 C1358 1.428 . S
H1353 C1349 0.930 . S
H1354 C1351 0.929 . S
S1355 N1356 1.613 . S
S1355 N1357 1.610 . S
N1356 S1355 1.613 . S
N1356 C1359 1.350 . S
N1357 S1355 1.610 . S
N1357 C1358 1.351 . S
C1358 C1352 1.428 . S
C1358 N1357 1.351 . S
C1358 C1359 1.434 . S
C1359 C1350 1.429 . S
C1359 N1356 1.350 . S
C1359 C1358 1.434 . S
C1360 C1361 1.369 . S
C1360 C1362 1.419 . S
C1360 H1364 0.930 . S
C1361 C1360 1.369 . S
C1361 C1370 1.429 . S
C1362 C1360 1.419 . S
C1362 C1363 1.363 . S
C1362 H1365 0.929 . S
C1363 C1362 1.363 . S
C1363 C1369 1.428 . S
H1364 C1360 0.930 . S
H1365 C1362 0.929 . S
S1366 N1367 1.613 . S
S1366 N1368 1.610 . S
N1367 S1366 1.613 . S
N1367 C1370 1.350 . S
N1368 S1366 1.610 . S
N1368 C1369 1.351 . S
C1369 C1363 1.428 . S
C1369 N1368 1.351 . S
C1369 C1370 1.434 . S
C1370 C1361 1.429 . S
C1370 N1367 1.350 . S
C1370 C1369 1.434 . S
C1371 C1372 1.369 . S
C1371 C1373 1.419 . S
C1371 H1375 0.930 . S
C1372 C1371 1.369 . S
C1372 C1381 1.429 . S
C1373 C1371 1.419 . S
C1373 C1374 1.363 . S
C1373 H1376 0.929 . S
C1374 C1373 1.363 . S
C1374 C1380 1.428 . S
H1375 C1371 0.930 . S
H1376 C1373 0.929 . S
S1377 N1378 1.613 . S
S1377 N1379 1.610 . S
N1378 S1377 1.613 . S
N1378 C1381 1.350 . S
N1379 S1377 1.610 . S
N1379 C1380 1.351 . S
C1380 C1374 1.428 . S
C1380 N1379 1.351 . S
C1380 C1381 1.434 . S
C1381 C1372 1.429 . S
C1381 N1378 1.350 . S
C1381 C1380 1.434 . S
C1382 C1383 1.369 . S
C1382 C1384 1.419 . S
C1382 H1386 0.930 . S
C1383 C1382 1.369 . S
C1383 C1392 1.429 . S
C1384 C1382 1.419 . S
C1384 C1385 1.363 . S
C1384 H1387 0.929 . S
C1385 C1384 1.363 . S
C1385 C1391 1.428 . S
H1386 C1382 0.930 . S
H1387 C1384 0.929 . S
S1388 N1389 1.613 . S
S1388 N1390 1.610 . S
N1389 S1388 1.613 . S
N1389 C1392 1.350 . S
N1390 S1388 1.610 . S
N1390 C1391 1.351 . S
C1391 C1385 1.428 . S
C1391 N1390 1.351 . S
C1391 C1392 1.434 . S
C1392 C1383 1.429 . S
C1392 N1389 1.350 . S
C1392 C1391 1.434 . S
C1393 C1394 1.369 . S
C1393 C1395 1.419 . S
C1393 H1397 0.930 . S
C1394 C1393 1.369 . S
C1394 C1403 1.429 1_554 S
C1395 C1393 1.419 . S
C1395 C1396 1.363 . S
C1395 H1398 0.929 . S
C1396 C1395 1.363 . S
C1396 C1402 1.441 1_554 S
H1397 C1393 0.930 . S
H1398 C1395 0.929 . S
S1399 N1400 1.613 1_545 S
S1399 N1401 1.610 . S
N1400 S1399 1.613 1_565 S
N1400 C1403 1.350 . S
N1401 S1399 1.610 . S
N1401 C1402 1.329 1_545 S
C1402 C1396 1.441 1_556 S
C1402 N1401 1.329 1_565 S
C1402 C1403 1.445 . S
C1403 C1394 1.429 1_556 S
C1403 N1400 1.350 . S
C1403 C1402 1.445 . S
C1404 C1405 1.369 . S
C1404 C1406 1.419 . S
C1404 H1408 0.930 . S
C1405 C1404 1.369 . S
C1405 C1414 1.429 . S
C1406 C1404 1.419 . S
C1406 C1407 1.363 . S
C1406 H1409 0.929 . S
C1407 C1406 1.363 . S
C1407 C1413 1.428 . S
H1408 C1404 0.930 . S
H1409 C1406 0.929 . S
S1410 N1411 1.613 . S
S1410 N1412 1.610 . S
N1411 S1410 1.613 . S
N1411 C1414 1.350 . S
N1412 S1410 1.610 . S
N1412 C1413 1.351 . S
C1413 C1407 1.428 . S
C1413 N1412 1.351 . S
C1413 C1414 1.434 . S
C1414 C1405 1.429 . S
C1414 N1411 1.350 . S
C1414 C1413 1.434 . S
C1415 C1416 1.369 . S
C1415 C1417 1.419 . S
C1415 H1419 0.930 . S
C1416 C1415 1.369 . S
C1416 C1425 1.429 . S
C1417 C1415 1.419 . S
C1417 C1418 1.363 . S
C1417 H1420 0.929 . S
C1418 C1417 1.363 . S
C1418 C1424 1.428 . S
H1419 C1415 0.930 . S
H1420 C1417 0.929 . S
S1421 N1422 1.613 . S
S1421 N1423 1.610 1_556 S
N1422 S1421 1.613 . S
N1422 C1425 1.350 1_556 S
N1423 S1421 1.610 1_554 S
N1423 C1424 1.351 . S
C1424 C1418 1.428 . S
C1424 N1423 1.351 . S
C1424 C1425 1.434 . S
C1425 C1416 1.429 . S
C1425 N1422 1.350 1_554 S
C1425 C1424 1.434 . S
C1426 C1427 1.369 . S
C1426 C1428 1.419 . S
C1426 H1430 0.930 . S
C1427 C1426 1.369 . S
C1427 C1436 1.429 . S
C1428 C1426 1.419 . S
C1428 C1429 1.363 . S
C1428 H1431 0.929 . S
C1429 C1428 1.363 . S
C1429 C1435 1.428 . S
H1430 C1426 0.930 . S
H1431 C1428 0.929 . S
S1432 N1433 1.613 . S
S1432 N1434 1.610 . S
N1433 S1432 1.613 . S
N1433 C1436 1.350 . S
N1434 S1432 1.610 . S
N1434 C1435 1.351 . S
C1435 C1429 1.428 . S
C1435 N1434 1.351 . S
C1435 C1436 1.434 . S
C1436 C1427 1.429 . S
C1436 N1433 1.350 . S
C1436 C1435 1.434 . S
C1437 C1438 1.369 . S
C1437 C1439 1.419 . S
C1437 H1441 0.930 . S
C1438 C1437 1.369 . S
C1438 C1447 1.429 . S
C1439 C1437 1.419 . S
C1439 C1440 1.363 . S
C1439 H1442 0.929 . S
C1440 C1439 1.363 . S
C1440 C1446 1.428 . S
H1441 C1437 0.930 . S
H1442 C1439 0.929 . S
S1443 N1444 1.613 . S
S1443 N1445 1.610 . S
N1444 S1443 1.613 . S
N1444 C1447 1.350 . S
N1445 S1443 1.610 . S
N1445 C1446 1.351 . S
C1446 C1440 1.428 . S
C1446 N1445 1.351 . S
C1446 C1447 1.434 . S
C1447 C1438 1.429 . S
C1447 N1444 1.350 . S
C1447 C1446 1.434 . S
C1448 C1449 1.369 . S
C1448 C1450 1.419 . S
C1448 H1452 0.930 . S
C1449 C1448 1.369 . S
C1449 C1458 1.429 . S
C1450 C1448 1.419 . S
C1450 C1451 1.363 . S
C1450 H1453 0.929 . S
C1451 C1450 1.363 . S
C1451 C1457 1.428 . S
H1452 C1448 0.930 . S
H1453 C1450 0.929 . S
S1454 N1455 1.613 . S
S1454 N1456 1.610 . S
N1455 S1454 1.613 . S
N1455 C1458 1.350 . S
N1456 S1454 1.610 . S
N1456 C1457 1.351 . S
C1457 C1451 1.428 . S
C1457 N1456 1.351 . S
C1457 C1458 1.434 . S
C1458 C1449 1.429 . S
C1458 N1455 1.350 . S
C1458 C1457 1.434 . S
C1459 C1460 1.369 . S
C1459 C1461 1.419 . S
C1459 H1463 0.930 . S
C1460 C1459 1.369 . S
C1460 C1469 1.429 . S
C1461 C1459 1.419 . S
C1461 C1462 1.363 . S
C1461 H1464 0.929 . S
C1462 C1461 1.363 . S
C1462 C1468 1.428 . S
H1463 C1459 0.930 . S
H1464 C1461 0.929 . S
S1465 N1466 1.613 . S
S1465 N1467 1.610 . S
N1466 S1465 1.613 . S
N1466 C1469 1.350 . S
N1467 S1465 1.610 . S
N1467 C1468 1.351 . S
C1468 C1462 1.428 . S
C1468 N1467 1.351 . S
C1468 C1469 1.434 . S
C1469 C1460 1.429 . S
C1469 N1466 1.350 . S
C1469 C1468 1.434 . S
C1470 C1471 1.369 . S
C1470 C1472 1.419 . S
C1470 H1474 0.930 . S
C1471 C1470 1.369 . S
C1471 C1480 1.429 . S
C1472 C1470 1.419 . S
C1472 C1473 1.363 . S
C1472 H1475 0.929 . S
C1473 C1472 1.363 . S
C1473 C1479 1.428 . S
H1474 C1470 0.930 . S
H1475 C1472 0.929 . S
S1476 N1477 1.613 1_556 S
S1476 N1478 1.610 . S
N1477 S1476 1.613 1_554 S
N1477 C1480 1.350 . S
N1478 S1476 1.610 . S
N1478 C1479 1.351 1_556 S
C1479 C1473 1.428 . S
C1479 N1478 1.351 1_554 S
C1479 C1480 1.434 . S
C1480 C1471 1.429 . S
C1480 N1477 1.350 . S
C1480 C1479 1.434 . S
C1481 C1482 1.369 . S
C1481 C1483 1.419 . S
C1481 H1485 0.930 . S
C1482 C1481 1.369 . S
C1482 C1491 1.429 . S
C1483 C1481 1.419 . S
C1483 C1484 1.363 . S
C1483 H1486 0.929 . S
C1484 C1483 1.363 . S
C1484 C1490 1.428 . S
H1485 C1481 0.930 . S
H1486 C1483 0.929 . S
S1487 N1488 1.613 . S
S1487 N1489 1.610 . S
N1488 S1487 1.613 . S
N1488 C1491 1.350 . S
N1489 S1487 1.610 . S
N1489 C1490 1.351 . S
C1490 C1484 1.428 . S
C1490 N1489 1.351 . S
C1490 C1491 1.434 . S
C1491 C1482 1.429 . S
C1491 N1488 1.350 . S
C1491 C1490 1.434 . S
C1492 C1493 1.369 . S
C1492 C1494 1.419 . S
C1492 H1496 0.930 . S
C1493 C1492 1.369 . S
C1493 C1502 1.429 . S
C1494 C1492 1.419 . S
C1494 C1495 1.363 . S
C1494 H1497 0.929 . S
C1495 C1494 1.363 . S
C1495 C1501 1.428 . S
H1496 C1492 0.930 . S
H1497 C1494 0.929 . S
S1498 N1499 1.613 1_554 S
S1498 N1500 1.610 . S
N1499 S1498 1.613 1_556 S
N1499 C1502 1.350 . S
N1500 S1498 1.610 . S
N1500 C1501 1.351 1_554 S
C1501 C1495 1.428 . S
C1501 N1500 1.351 1_556 S
C1501 C1502 1.434 . S
C1502 C1493 1.429 . S
C1502 N1499 1.350 . S
C1502 C1501 1.434 . S
C1503 C1504 1.369 . S
C1503 C1505 1.419 . S
C1503 H1507 0.930 . S
C1504 C1503 1.369 . S
C1504 C1513 1.429 . S
C1505 C1503 1.419 . S
C1505 C1506 1.363 . S
C1505 H1508 0.929 . S
C1506 C1505 1.363 . S
C1506 C1512 1.428 . S
H1507 C1503 0.930 . S
H1508 C1505 0.929 . S
S1509 N1510 1.613 . S
S1509 N1511 1.610 . S
N1510 S1509 1.613 . S
N1510 C1513 1.350 . S
N1511 S1509 1.610 . S
N1511 C1512 1.351 . S
C1512 C1506 1.428 . S
C1512 N1511 1.351 . S
C1512 C1513 1.434 . S
C1513 C1504 1.429 . S
C1513 N1510 1.350 . S
C1513 C1512 1.434 . S
C1514 C1515 1.369 . S
C1514 C1516 1.419 . S
C1514 H1518 0.930 . S
C1515 C1514 1.369 . S
C1515 C1524 1.429 . S
C1516 C1514 1.419 . S
C1516 C1517 1.363 . S
C1516 H1519 0.929 . S
C1517 C1516 1.363 . S
C1517 C1523 1.428 1_455 S
H1518 C1514 0.930 . S
H1519 C1516 0.929 . S
S1520 N1521 1.613 . S
S1520 N1522 1.610 . S
N1521 S1520 1.613 . S
N1521 C1524 1.350 1_655 S
N1522 S1520 1.610 . S
N1522 C1523 1.351 . S
C1523 C1517 1.428 1_655 S
C1523 N1522 1.351 . S
C1523 C1524 1.434 1_655 S
C1524 C1515 1.429 . S
C1524 N1521 1.350 1_455 S
C1524 C1523 1.434 1_455 S
C1525 C1526 1.369 . S
C1525 C1527 1.419 . S
C1525 H1529 0.930 . S
C1526 C1525 1.369 . S
C1526 C1535 1.429 . S
C1527 C1525 1.419 . S
C1527 C1528 1.363 . S
C1527 H1530 0.929 . S
C1528 C1527 1.363 . S
C1528 C1534 1.428 . S
H1529 C1525 0.930 . S
H1530 C1527 0.929 . S
S1531 N1532 1.613 . S
S1531 N1533 1.610 . S
N1532 S1531 1.613 . S
N1532 C1535 1.350 . S
N1533 S1531 1.610 . S
N1533 C1534 1.351 . S
C1534 C1528 1.428 . S
C1534 N1533 1.351 . S
C1534 C1535 1.434 . S
C1535 C1526 1.429 . S
C1535 N1532 1.350 . S
C1535 C1534 1.434 . S
C1536 C1537 1.369 . S
C1536 C1538 1.419 . S
C1536 H1540 0.930 . S
C1537 C1536 1.369 . S
C1537 C1546 1.429 . S
C1538 C1536 1.419 . S
C1538 C1539 1.363 . S
C1538 H1541 0.929 . S
C1539 C1538 1.363 . S
C1539 C1545 1.428 . S
H1540 C1536 0.930 . S
H1541 C1538 0.929 . S
S1542 N1543 1.613 . S
S1542 N1544 1.610 . S
N1543 S1542 1.613 . S
N1543 C1546 1.350 . S
N1544 S1542 1.610 . S
N1544 C1545 1.351 . S
C1545 C1539 1.428 . S
C1545 N1544 1.351 . S
C1545 C1546 1.434 . S
C1546 C1537 1.429 . S
C1546 N1543 1.350 . S
C1546 C1545 1.434 . S
C1547 C1548 1.369 . S
C1547 C1549 1.419 . S
C1547 H1551 0.930 . S
C1548 C1547 1.369 . S
C1548 C1557 1.429 . S
C1549 C1547 1.419 . S
C1549 C1550 1.363 . S
C1549 H1552 0.929 . S
C1550 C1549 1.363 . S
C1550 C1556 1.428 . S
H1551 C1547 0.930 . S
H1552 C1549 0.929 . S
S1553 N1554 1.613 . S
S1553 N1555 1.610 . S
N1554 S1553 1.613 . S
N1554 C1557 1.350 . S
N1555 S1553 1.610 . S
N1555 C1556 1.351 . S
C1556 C1550 1.428 . S
C1556 N1555 1.351 . S
C1556 C1557 1.434 . S
C1557 C1548 1.429 . S
C1557 N1554 1.350 . S
C1557 C1556 1.434 . S
C1558 C1559 1.369 . S
C1558 C1560 1.419 . S
C1558 H1562 0.930 . S
C1559 C1558 1.369 . S
C1559 C1568 1.429 . S
C1560 C1558 1.419 . S
C1560 C1561 1.363 . S
C1560 H1563 0.929 . S
C1561 C1560 1.363 . S
C1561 C1567 1.428 . S
H1562 C1558 0.930 . S
H1563 C1560 0.929 . S
S1564 N1565 1.613 . S
S1564 N1566 1.610 . S
N1565 S1564 1.613 . S
N1565 C1568 1.350 . S
N1566 S1564 1.610 . S
N1566 C1567 1.351 . S
C1567 C1561 1.428 . S
C1567 N1566 1.351 . S
C1567 C1568 1.434 . S
C1568 C1559 1.429 . S
C1568 N1565 1.350 . S
C1568 C1567 1.434 . S
C1569 C1570 1.369 . S
C1569 C1571 1.419 . S
C1569 H1573 0.930 . S
C1570 C1569 1.369 . S
C1570 C1579 1.429 . S
C1571 C1569 1.419 . S
C1571 C1572 1.363 . S
C1571 H1574 0.929 . S
C1572 C1571 1.363 . S
C1572 C1578 1.428 . S
H1573 C1569 0.930 . S
H1574 C1571 0.929 . S
S1575 N1576 1.613 . S
S1575 N1577 1.610 . S
N1576 S1575 1.613 . S
N1576 C1579 1.350 . S
N1577 S1575 1.610 . S
N1577 C1578 1.351 . S
C1578 C1572 1.428 . S
C1578 N1577 1.351 . S
C1578 C1579 1.434 . S
C1579 C1570 1.429 . S
C1579 N1576 1.350 . S
C1579 C1578 1.434 . S
C1580 C1581 1.369 . S
C1580 C1582 1.419 . S
C1580 H1584 0.930 . S
C1581 C1580 1.369 . S
C1581 C1590 1.429 . S
C1582 C1580 1.419 . S
C1582 C1583 1.363 . S
C1582 H1585 0.929 . S
C1583 C1582 1.363 . S
C1583 C1589 1.428 . S
H1584 C1580 0.930 . S
H1585 C1582 0.929 . S
S1586 N1587 1.613 . S
S1586 N1588 1.610 . S
N1587 S1586 1.613 . S
N1587 C1590 1.350 . S
N1588 S1586 1.610 . S
N1588 C1589 1.351 . S
C1589 C1583 1.428 . S
C1589 N1588 1.351 . S
C1589 C1590 1.434 . S
C1590 C1581 1.429 . S
C1590 N1587 1.350 . S
C1590 C1589 1.434 . S
C1591 C1592 1.369 . S
C1591 C1593 1.419 . S
C1591 H1595 0.930 . S
C1592 C1591 1.369 . S
C1592 C1601 1.429 . S
C1593 C1591 1.419 . S
C1593 C1594 1.363 . S
C1593 H1596 0.929 . S
C1594 C1593 1.363 . S
C1594 C1600 1.428 . S
H1595 C1591 0.930 . S
H1596 C1593 0.929 . S
S1597 N1598 1.613 . S
S1597 N1599 1.610 . S
N1598 S1597 1.613 . S
N1598 C1601 1.350 . S
N1599 S1597 1.610 . S
N1599 C1600 1.351 . S
C1600 C1594 1.428 . S
C1600 N1599 1.351 . S
C1600 C1601 1.434 . S
C1601 C1592 1.429 . S
C1601 N1598 1.350 . S
C1601 C1600 1.434 . S
C1602 C1603 1.369 . S
C1602 C1604 1.419 . S
C1602 H1606 0.930 . S
C1603 C1602 1.369 . S
C1603 C1612 1.429 . S
C1604 C1602 1.419 . S
C1604 C1605 1.363 . S
C1604 H1607 0.929 . S
C1605 C1604 1.363 . S
C1605 C1611 1.428 . S
H1606 C1602 0.930 . S
H1607 C1604 0.929 . S
S1608 N1609 1.613 1_455 S
S1608 N1610 1.610 1_455 S
N1609 S1608 1.613 1_655 S
N1609 C1612 1.350 . S
N1610 S1608 1.610 1_655 S
N1610 C1611 1.351 . S
C1611 C1605 1.428 . S
C1611 N1610 1.351 . S
C1611 C1612 1.434 . S
C1612 C1603 1.429 . S
C1612 N1609 1.350 . S
C1612 C1611 1.434 . S
C1613 C1614 1.369 . S
C1613 C1615 1.419 . S
C1613 H1617 0.930 . S
C1614 C1613 1.369 . S
C1614 C1623 1.429 . S
C1615 C1613 1.419 . S
C1615 C1616 1.363 . S
C1615 H1618 0.929 . S
C1616 C1615 1.363 . S
C1616 C1622 1.428 . S
H1617 C1613 0.930 . S
H1618 C1615 0.929 . S
S1619 N1620 1.613 . S
S1619 N1621 1.610 . S
N1620 S1619 1.613 . S
N1620 C1623 1.350 . S
N1621 S1619 1.610 . S
N1621 C1622 1.351 . S
C1622 C1616 1.428 . S
C1622 N1621 1.351 . S
C1622 C1623 1.434 . S
C1623 C1614 1.429 . S
C1623 N1620 1.350 . S
C1623 C1622 1.434 . S
C1624 C1625 1.369 . S
C1624 C1626 1.419 . S
C1624 H1628 0.930 . S
C1625 C1624 1.369 . S
C1625 C1634 1.429 . S
C1626 C1624 1.419 . S
C1626 C1627 1.363 . S
C1626 H1629 0.929 . S
C1627 C1626 1.363 . S
C1627 C1633 1.428 . S
H1628 C1624 0.930 . S
H1629 C1626 0.929 . S
S1630 N1631 1.613 . S
S1630 N1632 1.610 . S
N1631 S1630 1.613 . S
N1631 C1634 1.350 . S
N1632 S1630 1.610 . S
N1632 C1633 1.351 . S
C1633 C1627 1.428 . S
C1633 N1632 1.351 . S
C1633 C1634 1.434 . S
C1634 C1625 1.429 . S
C1634 N1631 1.350 . S
C1634 C1633 1.434 . S
C1635 C1636 1.369 . S
C1635 C1637 1.419 . S
C1635 H1639 0.930 . S
C1636 C1635 1.369 . S
C1636 C1645 1.429 . S
C1637 C1635 1.419 . S
C1637 C1638 1.363 . S
C1637 H1640 0.929 . S
C1638 C1637 1.363 . S
C1638 C1644 1.428 . S
H1639 C1635 0.930 . S
H1640 C1637 0.929 . S
S1641 N1642 1.613 . S
S1641 N1643 1.610 . S
N1642 S1641 1.613 . S
N1642 C1645 1.350 . S
N1643 S1641 1.610 . S
N1643 C1644 1.351 . S
C1644 C1638 1.428 . S
C1644 N1643 1.351 . S
C1644 C1645 1.434 . S
C1645 C1636 1.429 . S
C1645 N1642 1.350 . S
C1645 C1644 1.434 . S
C1646 C1647 1.369 . S
C1646 C1648 1.419 . S
C1646 H1650 0.930 . S
C1647 C1646 1.369 . S
C1647 C1656 1.429 . S
C1648 C1646 1.419 . S
C1648 C1649 1.363 . S
C1648 H1651 0.929 . S
C1649 C1648 1.363 . S
C1649 C1655 1.428 . S
H1650 C1646 0.930 . S
H1651 C1648 0.929 . S
S1652 N1653 1.613 . S
S1652 N1654 1.610 . S
N1653 S1652 1.613 . S
N1653 C1656 1.350 . S
N1654 S1652 1.610 . S
N1654 C1655 1.351 . S
C1655 C1649 1.428 . S
C1655 N1654 1.351 . S
C1655 C1656 1.434 . S
C1656 C1647 1.429 . S
C1656 N1653 1.350 . S
C1656 C1655 1.434 . S
C1657 C1658 1.369 1_554 S
C1657 C1659 1.419 . S
C1657 H1661 0.930 . S
C1658 C1657 1.369 1_556 S
C1658 C1667 1.429 . S
C1659 C1657 1.419 . S
C1659 C1660 1.373 . S
C1659 H1662 0.929 . S
C1660 C1659 1.373 . S
C1660 C1666 1.416 1_554 S
H1661 C1657 0.930 . S
H1662 C1659 0.929 . S
S1663 N1664 1.613 . S
S1663 N1665 1.610 . S
N1664 S1663 1.613 . S
N1664 C1667 1.350 . S
N1665 S1663 1.610 . S
N1665 C1666 1.351 . S
C1666 C1660 1.416 1_556 S
C1666 N1665 1.351 . S
C1666 C1667 1.434 . S
C1667 C1658 1.429 . S
C1667 N1664 1.350 . S
C1667 C1666 1.434 . S
C1668 C1669 1.369 . S
C1668 C1670 1.419 . S
C1668 H1672 0.930 . S
C1669 C1668 1.369 . S
C1669 C1678 1.429 . S
C1670 C1668 1.419 . S
C1670 C1671 1.363 . S
C1670 H1673 0.929 . S
C1671 C1670 1.363 . S
C1671 C1677 1.428 . S
H1672 C1668 0.930 . S
H1673 C1670 0.929 . S
S1674 N1675 1.613 . S
S1674 N1676 1.610 . S
N1675 S1674 1.613 . S
N1675 C1678 1.350 . S
N1676 S1674 1.610 . S
N1676 C1677 1.351 . S
C1677 C1671 1.428 . S
C1677 N1676 1.351 . S
C1677 C1678 1.434 . S
C1678 C1669 1.429 . S
C1678 N1675 1.350 . S
C1678 C1677 1.434 . S
C1679 C1680 1.369 . S
C1679 C1681 1.419 . S
C1679 H1683 0.930 . S
C1680 C1679 1.369 . S
C1680 C1689 1.429 1_554 S
C1681 C1679 1.419 . S
C1681 C1682 1.363 1_554 S
C1681 H1684 0.929 . S
C1682 C1681 1.363 1_556 S
C1682 C1688 1.428 . S
H1683 C1679 0.930 . S
H1684 C1681 0.929 . S
S1685 N1686 1.613 . S
S1685 N1687 1.610 . S
N1686 S1685 1.613 . S
N1686 C1689 1.350 . S
N1687 S1685 1.610 . S
N1687 C1688 1.351 . S
C1688 C1682 1.428 . S
C1688 N1687 1.351 . S
C1688 C1689 1.434 . S
C1689 C1680 1.429 1_556 S
C1689 N1686 1.350 . S
C1689 C1688 1.434 . S
C1690 C1691 1.369 . S
C1690 C1692 1.419 . S
C1690 H1694 0.930 . S
C1691 C1690 1.369 . S
C1691 C1700 1.429 . S
C1692 C1690 1.419 . S
C1692 C1693 1.363 . S
C1692 H1695 0.929 . S
C1693 C1692 1.363 . S
C1693 C1699 1.428 . S
H1694 C1690 0.930 . S
H1695 C1692 0.929 . S
S1696 N1697 1.613 . S
S1696 N1698 1.610 . S
N1697 S1696 1.613 . S
N1697 C1700 1.350 . S
N1698 S1696 1.610 . S
N1698 C1699 1.351 . S
C1699 C1693 1.428 . S
C1699 N1698 1.351 . S
C1699 C1700 1.434 . S
C1700 C1691 1.429 . S
C1700 N1697 1.350 . S
C1700 C1699 1.434 . S
C1701 C1702 1.369 . S
C1701 C1703 1.419 . S
C1701 H1705 0.930 . S
C1702 C1701 1.369 . S
C1702 C1711 1.429 . S
C1703 C1701 1.419 . S
C1703 C1704 1.363 . S
C1703 H1706 0.929 . S
C1704 C1703 1.363 . S
C1704 C1710 1.428 . S
H1705 C1701 0.930 . S
H1706 C1703 0.929 . S
S1707 N1708 1.613 . S
S1707 N1709 1.610 . S
N1708 S1707 1.613 . S
N1708 C1711 1.350 . S
N1709 S1707 1.610 . S
N1709 C1710 1.351 . S
C1710 C1704 1.428 . S
C1710 N1709 1.351 . S
C1710 C1711 1.434 . S
C1711 C1702 1.429 . S
C1711 N1708 1.350 . S
C1711 C1710 1.434 . S
C657 C111 1.574 . S
C659 C354 1.577 . S
C668 C64 1.669 . S
C670 C365 1.730 . S
C679 C77 1.122 . S
C681 C394 1.089 . S
C692 C397 1.300 . S
C690 C95 1.314 . S
C701 C25 1.493 . S
C703 C435 1.425 . S
C714 C438 1.192 . S
C712 C36 1.197 . S
C725 C465 1.570 . S
C723 C50 1.503 . S
C734 C11 1.629 . S
C736 C494 1.544 . S
C747 C345 1.572 1_655 S
C745 C237 1.456 . S
C756 C245 1.043 . S
C758 C357 1.020 . S
C769 C385 1.464 . S
C767 C279 1.389 . S
C780 C414 1.235 . S
C778 C175 1.233 . S
C789 C231 1.054 . S
C791 C418 1.073 . S
C802 C444 1.520 . S
C800 C251 1.451 . S
C813 C457 0.930 . S
C811 C273 0.932 . S
C824 C485 1.608 . S
C822 C181 1.561 . S
C835 C337 1.463 1_565 S
C833 C165 1.510 . S
C844 C288 1.692 1_556 S
C846 C504 1.714 . S
C857 C535 1.527 . S
C855 C333 1.638 . S
C868 C554 1.032 . S
C866 C316 1.035 . S
C877 C123 1.390 . S
C879 C477 1.353 . S
C888 C137 1.491 . S
C890 C377 1.453 . S
C899 C330 1.525 . S
C901 C565 1.598 . S
C912 C594 1.018 . S
C910 C302 1.055 . S
C923 C355 1.680 . S
C921 C63 1.707 . S
C934 C584 1.709 . S
C932 C106 1.696 . S
C943 C97 1.129 . S
C945 C395 1.156 . S
C954 C81 1.350 . S
C956 C558 1.341 . S
C967 C434 1.525 . S
C965 C13 1.499 . S
C976 C55 1.031 . S
C978 C517 1.169 . S
C989 C464 1.511 . S
C987 C35 1.512 . S
C1000 C615 1.688 . S
C998 C21 1.762 . S
C1011 C344 1.643 . S
C1009 C147 1.636 . S
C1022 C578 1.016 . S
C1020 C321 0.971 . S
C1031 C119 1.507 . S
C1033 C384 1.490 . S
C1042 C293 1.285 . S
C1044 C575 1.359 . S
C1053 C153 1.047 1_565 S
C1055 C417 1.197 . S
C1066 C525 1.561 . S
C1064 C315 1.577 . S
C1075 C125 0.893 . S
C1077 C458 0.909 1_565 S
C1086 C287 1.712 . S
C1088 C604 1.681 . S
C1097 C193 1.518 . S
C1099 C338 1.503 . S
C1108 C176 1.713 . S
C1110 C505 1.711 . S
C1119 C263 1.590 . S
C1121 C454 1.514 . S
C1130 C246 1.119 . S
C1132 C555 1.173 . S
C1143 C598 1.399 . S
C1141 C277 1.390 . S
C1152 C221 1.462 . S
C1154 C378 1.470 . S
C1165 C404 1.621 . S
C1163 C260 1.595 . S
C1176 C375 1.087 . S
C1174 C204 1.091 . S
C1185 C83 1.575 . S
C1187 C634 1.576 . S
C1198 C585 1.730 . S
C1196 C92 1.675 . S
C1207 C105 1.124 . S
C1209 C654 1.092 . S
C1218 C67 1.314 . S
C1220 C557 1.298 . S
C1229 C53 1.494 . S
C1231 C515 1.425 . S
C1242 C518 1.189 . S
C1240 C8 1.196 . S
C1253 C545 1.572 . S
C1251 C22 1.497 1_655 S
C1264 C614 1.542 . S
C1262 C39 1.629 . S
C1275 C625 1.570 . S
C1273 C265 1.446 . S
C1284 C189 1.041 . S
C1286 C577 1.023 . S
C1297 C645 1.464 . S
C1295 C209 1.387 . S
C1308 C574 1.236 . S
C1306 C217 1.234 . S
C1319 C498 1.072 . S
C1317 C259 1.053 . S
C1328 C195 1.450 . S
C1330 C524 1.519 . S
C1341 C537 0.920 . S
C1339 C203 0.940 . S
C1350 C223 1.569 . S
C1352 C605 1.612 . S
C1363 C617 1.463 . S
C1361 C319 1.511 . S
C1372 C134 1.696 . S
C1374 C424 1.712 . S
C1385 C455 1.532 . S
C1383 C151 1.641 . S
C1396 C474 1.038 1_565 S
C1394 C162 1.042 . S
C1407 C597 1.345 . S
C1405 C305 1.394 . S
C1416 C291 1.491 . S
C1418 C637 1.456 . S
C1429 C405 1.597 . S
C1427 C148 1.530 . S
C1440 C374 1.022 . S
C1438 C120 1.057 . S
C1449 C91 1.710 . S
C1451 C635 1.676 . S
C1462 C364 1.710 . S
C1460 C78 1.695 . S
C1471 C69 1.123 . S
C1473 C655 1.164 . S
C1482 C109 1.348 . S
C1484 C398 1.341 . S
C1493 C41 1.491 . S
C1495 C514 1.528 . S
C1506 C437 1.167 . S
C1504 C27 1.031 . S
C1515 C7 1.508 . S
C1517 C544 1.511 . S
C1526 C49 1.760 . S
C1528 C495 1.693 . S
C1539 C624 1.644 . S
C1537 C329 1.638 . S
C1548 C167 0.974 . S
C1550 C358 1.014 . S
C1561 C644 1.492 1_655 S
C1559 C301 1.507 . S
C1570 C139 1.289 . S
C1572 C415 1.356 . S
C1581 C335 1.050 . S
C1583 C497 1.197 . S
C1594 C445 1.560 . S
C1592 C161 1.578 . S
C1603 C307 0.898 . S
C1605 C538 0.901 . S
C1616 C484 1.683 . S
C1614 C133 1.711 . S
C1627 C618 1.502 . S
C1625 C249 1.519 . S
C1638 C425 1.715 1_565 S
C1636 C218 1.715 . S
C1647 C235 1.584 . S
C1649 C534 1.522 . S
C1660 C475 1.178 . S
C1658 C190 1.123 1_556 S
C1669 C207 1.390 . S
C1671 C478 1.399 . S
C1680 C179 1.460 . S
C1682 C638 1.471 . S
C1693 C564 1.620 . S
C1691 C232 1.595 . S
C1704 C595 1.088 . S
C1702 C274 1.090 . S
