# Generated by pormake.
# Topology nia, (6,6)-cn, num edge types: 1
# Building blocks:
#     Node 0, Type 0, BuildingBlock: KUMJIN_clean_sbu_1, # of connection points: 6
#     Node 1, Type 0, BuildingBlock: KUMJIN_clean_sbu_1, # of connection points: 6
#     Node 2, Type 1, BuildingBlock: MIDCAF_clean_sbu_0, # of connection points: 6
#     Node 3, Type 1, BuildingBlock: MIDCAF_clean_sbu_0, # of connection points: 6
#     Edge 4, Type (0, 1), BuildingBlock: TEMPAE_clean_linker_10, # of connection points: 2
#     Edge 5, Type (0, 1), BuildingBlock: TEMPAE_clean_linker_10, # of connection points: 2
#     Edge 6, Type (0, 1), BuildingBlock: TEMPAE_clean_linker_10, # of connection points: 2
#     Edge 7, Type (0, 1), BuildingBlock: TEMPAE_clean_linker_10, # of connection points: 2
#     Edge 8, Type (0, 1), BuildingBlock: TEMPAE_clean_linker_10, # of connection points: 2
#     Edge 9, Type (0, 1), BuildingBlock: TEMPAE_clean_linker_10, # of connection points: 2
#     Edge 10, Type (0, 1), BuildingBlock: TEMPAE_clean_linker_10, # of connection points: 2
#     Edge 11, Type (0, 1), BuildingBlock: TEMPAE_clean_linker_10, # of connection points: 2
#     Edge 12, Type (0, 1), BuildingBlock: TEMPAE_clean_linker_10, # of connection points: 2
#     Edge 13, Type (0, 1), BuildingBlock: TEMPAE_clean_linker_10, # of connection points: 2
#     Edge 14, Type (0, 1), BuildingBlock: TEMPAE_clean_linker_10, # of connection points: 2
#     Edge 15, Type (0, 1), BuildingBlock: TEMPAE_clean_linker_10, # of connection points: 2
# Relax obj value: 0.171
# Max RMSD: 0.279
# Mean RMSD: 0.201
data_MOF--net-nia--node1-KUMJIN_clean_sbu_1--node2-MIDCAF_clean_sbu_0--edge1-TEMPAE_clean_linker_10
_symmetry_space_group_name_H-M    P1
_symmetry_Int_Tables_number       1
_symmetry_cell_setting            triclinic
loop_
_symmetry_equiv_pos_as_xyz
'x, y, z'
_cell_length_a     28.559815
_cell_length_b     28.562151
_cell_length_c     32.304624
_cell_angle_alpha  90.096284
_cell_angle_beta   89.847826
_cell_angle_gamma 135.80291
loop_
_atom_site_label
_atom_site_type_symbol
_atom_site_fract_x
_atom_site_fract_y
_atom_site_fract_z
_atom_type_partial_charge
Eu0 Eu 0.0017 0.94561 0.03827 0.0
C1 C 0.90312 0.96887 0.87482 0.0
N2 N 0.96758 0.01659 0.88859 0.0
C3 C 0.00879 0.0317 0.81994 0.0
C4 C 0.88917 0.94928 0.83281 0.0
C5 C 0.02021 0.04899 0.86186 0.0
C6 C 0.94298 0.98134 0.80538 0.0
C7 C 0.78385 0.89075 0.88879 0.0
C8 C 0.85107 0.93971 0.90279 0.0
C9 C 0.76982 0.86944 0.84735 0.0
C10 C 0.82231 0.89871 0.81944 0.0
Eu11 Eu 0.98294 0.04468 0.95936 0.0
N12 N 0.86604 0.96187 0.94278 0.0
C13 C 0.73266 0.86648 0.91636 0.0
C14 C 0.81652 0.94354 0.96807 0.0
C15 C 0.74924 0.89411 0.95586 0.0
H16 H 0.07093 0.08794 0.87302 0.0
H17 H 0.71034 0.87867 0.9766 0.0
H18 H 0.8735 0.85931 0.10497 0.0
H19 H 0.27299 0.15449 0.06538 0.0
H20 H 0.8279 0.96802 0.99728 0.0
H21 H 0.68053 0.82895 0.90677 0.0
H22 H 0.17157 0.07079 0.02358 0.0
H23 H 0.0507 0.05712 0.79894 0.0
H24 H 0.71848 0.83153 0.8363 0.0
H25 H 0.81067 0.88257 0.78741 0.0
H26 H 0.8557 0.85638 0.18022 0.0
H27 H 0.93427 0.96777 0.7729 0.0
H28 H 0.26383 0.15858 0.14113 0.0
N29 N 0.9796 0.9408 0.10906 0.0
C30 C 0.03419 0.98334 0.13414 0.0
C31 C 0.90603 0.89283 0.1676 0.0
C32 C 0.02634 0.98331 0.17722 0.0
C33 C 0.91618 0.89521 0.12502 0.0
C34 C 0.96132 0.93714 0.19378 0.0
N35 N 0.10414 0.02924 0.07447 0.0
C36 C 0.16604 0.07257 0.05627 0.0
C37 C 0.15533 0.07573 0.14161 0.0
C38 C 0.09815 0.02887 0.11643 0.0
C39 C 0.21872 0.12172 0.12285 0.0
C40 C 0.22407 0.11981 0.08006 0.0
H41 H 0.95335 0.9349 0.22672 0.0
H42 H 0.07819 0.03039 0.23548 0.0
H43 H 0.19093 0.11151 0.20433 0.0
O44 O 0.042 0.90299 0.03548 0.0
O45 O 0.02664 0.03524 0.06507 0.0
O46 O 0.06482 0.10274 0.00819 0.0
O47 O 0.94327 0.84436 0.06069 0.0
O48 O 0.06997 0.9932 0.98133 0.0
O49 O 0.08416 0.08184 0.96586 0.0
O50 O 0.96093 0.10449 0.96082 0.0
O51 O 0.97121 0.96399 0.93105 0.0
O52 O 0.9256 0.89379 0.98641 0.0
O53 O 0.04719 0.13962 0.92593 0.0
O54 O 0.92857 0.00795 0.02128 0.0
O55 O 0.90208 0.91124 0.02986 0.0
C56 C 0.05824 0.09359 0.04845 0.0
C57 C 0.01014 0.8351 0.09401 0.0
C58 C 0.07677 0.82195 0.12724 0.0
C59 C 0.05076 0.81668 0.16587 0.0
C60 C 0.9824 0.82647 0.13293 0.0
C61 C 0.00337 0.81839 0.16858 0.0
C62 C 0.0566 0.83138 0.0913 0.0
C63 C 0.09942 0.04834 0.96035 0.0
C64 C 0.99231 0.84976 0.05671 0.0
C65 C 0.0833 0.02955 0.20232 0.0
C66 C 0.14754 0.07575 0.18456 0.0
C67 C 0.94172 0.9061 0.9471 0.0
C68 C 0.03148 0.21194 0.9251 0.0
C69 C 7e-05 0.26572 0.89796 0.0
C70 C 0.06829 0.32755 0.89746 0.0
C71 C 0.09935 0.27372 0.92408 0.0
C72 C 0.98206 0.20822 0.91249 0.0
C73 C 0.11752 0.3314 0.91062 0.0
C74 C 0.89435 0.95001 0.03973 0.0
C75 C 0.01231 0.15072 0.93728 0.0
H76 H 0.0657 0.8092 0.19379 0.0
H77 H 0.9444 0.82583 0.13612 0.0
H78 H 0.98228 0.81278 0.19834 0.0
H79 H 0.07723 0.83615 0.06149 0.0
H80 H 0.08366 0.37261 0.88614 0.0
H81 H 0.13816 0.27729 0.93366 0.0
H82 H 0.92968 0.1603 0.91337 0.0
H83 H 0.16993 0.37903 0.90988 0.0
Eu84 Eu 0.04147 0.98421 0.44967 0.0
C85 C 0.07265 0.08524 0.62738 0.0
N86 N 0.01487 0.02805 0.60988 0.0
C87 C 0.98733 0.96589 0.67155 0.0
C88 C 0.09035 0.08443 0.66791 0.0
C89 C 0.97176 0.96914 0.63138 0.0
C90 C 0.047 0.02376 0.68988 0.0
C91 C 0.1747 0.20444 0.62215 0.0
C92 C 0.11469 0.14445 0.60437 0.0
C93 C 0.19245 0.20368 0.66245 0.0
C94 C 0.15051 0.14387 0.68522 0.0
Eu95 Eu 0.99171 0.03785 0.54239 0.0
N96 N 0.09599 0.14398 0.56539 0.0
C97 C 0.21421 0.26404 0.59945 0.0
C98 C 0.13132 0.20328 0.54504 0.0
C99 C 0.19178 0.26361 0.56105 0.0
H100 H 0.92484 0.92508 0.61771 0.0
H101 H 0.22012 0.31009 0.54423 0.0
H102 H 0.11217 0.10202 0.37685 0.0
H103 H 0.80806 0.71401 0.44349 0.0
H104 H 0.11235 0.20557 0.5173 0.0
H105 H 0.26062 0.31107 0.61203 0.0
H106 H 0.91669 0.81561 0.47192 0.0
H107 H 0.95309 0.91894 0.68845 0.0
H108 H 0.23821 0.24939 0.67653 0.0
H109 H 0.16487 0.14421 0.71632 0.0
H110 H 0.08352 0.11401 0.30821 0.0
H111 H 0.05893 0.02115 0.72105 0.0
H112 H 0.76943 0.71844 0.37667 0.0
N113 N 0.02113 -0.00132 0.38257 0.0
C114 C 0.96287 0.94315 0.36422 0.0
C115 C 0.04906 0.06579 0.3237 0.0
C116 C 0.94463 0.9476 0.32502 0.0
C117 C 0.0649 0.05908 0.36267 0.0
C118 C 0.98839 0.01 0.30497 0.0
N119 N 0.93723 0.8803 0.42452 0.0
C120 C 0.89949 0.81995 0.44407 0.0
C121 C 0.85818 0.82472 0.36788 0.0
C122 C 0.91957 0.8826 0.38592 0.0
C123 C 0.81692 0.76396 0.3895 0.0
C124 C 0.83828 0.76138 0.42738 0.0
H125 H 0.97585 0.01572 0.27508 0.0
H126 H 0.86735 0.89288 0.27784 0.0
H127 H 0.79295 0.78506 0.31466 0.0
O128 O 0.06784 0.92841 0.44835 0.0
O129 O 0.97044 0.99416 0.43681 0.0
O130 O 0.90998 0.96016 0.49671 0.0
O131 O 0.11239 0.00757 0.40421 0.0
O132 O 0.9941 0.9196 0.50811 0.0
O133 O 0.92335 0.92663 0.53326 0.0
O134 O 0.96305 0.09127 0.5436 0.0
O135 O 0.05851 0.02389 0.55619 0.0
O136 O 0.12182 0.05902 0.4974 0.0
O137 O 0.91969 0.01212 0.58771 0.0
O138 O 0.0361 0.09926 0.48325 0.0
O139 O 0.10971 0.09609 0.45781 0.0
C140 C 0.91466 0.96491 0.45622 0.0
C141 C 0.17528 0.98519 0.42144 0.0
C142 C 0.24204 0.96213 0.40818 0.0
C143 C 0.30012 0.02929 0.41908 0.0
C144 C 0.23369 0.05098 0.43318 0.0
C145 C 0.29566 0.0727 0.43203 0.0
C146 C 0.17942 0.94066 0.40994 0.0
C147 C 0.94327 0.89704 0.53151 0.0
C148 C 0.11049 0.96353 0.41804 0.0
C149 C 0.88278 0.89032 0.30762 0.0
C150 C 0.84003 0.82901 0.32881 0.0
C151 C 0.11434 0.05152 0.5378 0.0
C152 C 0.8545 0.03038 0.5691 0.0
C153 C 0.78031 0.04143 0.58868 0.0
C154 C 0.72765 0.98167 0.56702 0.0
C155 C 0.80183 0.97116 0.54748 0.0
C156 C 0.84393 0.0657 0.58886 0.0
C157 C 0.73868 0.9472 0.54628 0.0
C158 C 0.08795 0.124 0.46024 0.0
C159 C 0.92011 0.05492 0.57363 0.0
H160 H 0.3496 0.04931 0.4169 0.0
H161 H 0.23157 0.08594 0.44238 0.0
H162 H 0.34078 0.12395 0.44039 0.0
H163 H 0.13351 0.88951 0.40208 0.0
H164 H 0.67776 0.96098 0.56653 0.0
H165 H 0.80931 0.94323 0.53211 0.0
H166 H 0.88577 0.11229 0.60451 0.0
H167 H 0.69793 0.90129 0.52974 0.0
Zn168 Zn 0.38601 0.65802 0.16552 0.0
Zn169 Zn 0.34969 0.67136 0.36534 0.0
Zn170 Zn 0.36811 0.65343 0.24446 0.0
C171 C 0.48384 0.74754 0.32246 0.0
C172 C 0.29466 0.54309 0.30687 0.0
O173 O 0.32787 0.68775 0.21216 0.0
O174 O 0.34547 0.68868 0.14538 0.0
C175 C 0.5126 0.74772 0.20797 0.0
O176 O 0.45799 0.71911 0.28653 0.0
O177 O 0.44964 0.73768 0.35348 0.0
O178 O 0.31561 0.59189 0.32896 0.0
O179 O 0.30633 0.5527 0.2679 0.0
O180 O 0.48479 0.72703 0.17285 0.0
O181 O 0.4772 0.72511 0.24111 0.0
O182 O 0.31307 0.54982 0.22581 0.0
O183 O 0.33565 0.56191 0.15873 0.0
C184 C 0.3076 0.52515 0.19056 0.0
O185 O 0.32116 0.68643 0.25403 0.0
O186 O 0.29951 0.63912 0.31274 0.0
C187 C 0.32317 0.6982 0.17426 0.0
C188 C 0.30095 0.67681 0.29116 0.0
Zn189 Zn 0.66832 0.37118 0.82488 0.0
Zn190 Zn 0.64704 0.34277 0.67736 0.0
Zn191 Zn 0.65021 0.35795 0.74988 0.0
C192 C 0.70003 0.46798 0.68301 0.0
C193 C 0.51586 0.24875 0.70043 0.0
O194 O 0.69325 0.32124 0.77271 0.0
O195 O 0.68169 0.3153 0.84066 0.0
C196 C 0.752 0.4993 0.79689 0.0
O197 O 0.70537 0.45756 0.72075 0.0
O198 O 0.66757 0.42024 0.65749 0.0
O199 O 0.55209 0.25558 0.6732 0.0
O200 O 0.54342 0.28709 0.73254 0.0
O201 O 0.74678 0.46943 0.82811 0.0
O202 O 0.71641 0.46574 0.76435 0.0
O203 O 0.54851 0.29765 0.77672 0.0
O204 O 0.58119 0.33518 0.8406 0.0
C205 C 0.53471 0.30004 0.81419 0.0
O206 O 0.69041 0.31674 0.72959 0.0
O207 O 0.71358 0.34237 0.66327 0.0
C208 C 0.69791 0.30474 0.80848 0.0
C209 C 0.71504 0.31845 0.69531 0.0
C210 C 0.18455 0.85965 0.14432 0.0
C211 C 0.12171 0.81329 0.12503 0.0
C212 C 0.22297 0.84631 0.14864 0.0
C213 C 0.19666 0.78422 0.13448 0.0
C214 C 0.13429 0.73854 0.11344 0.0
C215 C 0.09776 0.75398 0.10865 0.0
C216 C 0.28964 0.89677 0.17063 0.0
C217 C 0.10421 0.67158 0.09827 0.0
C218 C 0.30722 0.75528 0.12716 0.0
C219 C 0.29183 0.72134 0.16439 0.0
C220 C 0.27753 0.77712 0.11723 0.0
C221 C 0.23102 0.76423 0.14505 0.0
C222 C 0.21572 0.73045 0.18281 0.0
C223 C 0.24597 0.70905 0.19187 0.0
C224 C 0.29585 0.81394 0.07702 0.0
C225 C 0.16627 0.71556 0.2133 0.0
H226 H 0.20257 0.90534 0.15717 0.0
H227 H 0.04864 0.71797 0.09421 0.0
H228 H 0.28402 0.87822 0.20223 0.0
H229 H 0.32811 0.9031 0.1543 0.0
H230 H 0.30806 0.94658 0.1733 0.0
H231 H 0.05814 0.64427 0.0796 0.0
H232 H 0.14118 0.67847 0.07925 0.0
H233 H 0.0911 0.63984 0.12518 0.0
H234 H 0.34287 0.76516 0.10585 0.0
H235 H 0.23258 0.68148 0.22019 0.0
H236 H 0.31577 0.86381 0.08329 0.0
H237 H 0.25041 0.78556 0.05756 0.0
H238 H 0.33403 0.82129 0.05916 0.0
H239 H 0.17867 0.7616 0.21966 0.0
H240 H 0.16551 0.69567 0.24311 0.0
H241 H 0.1151 0.67804 0.19977 0.0
C242 C 0.15384 0.04397 0.60343 0.0
C243 C 0.16917 0.07352 0.56432 0.0
C244 C 0.20458 0.06739 0.63106 0.0
C245 C 0.27239 0.12105 0.61901 0.0
C246 C 0.2883 0.15031 0.5792 0.0
C247 C 0.23634 0.12601 0.55221 0.0
C248 C 0.18552 0.03527 0.67326 0.0
C249 C 0.36028 0.20795 0.56542 0.0
C250 C 0.41656 0.22973 0.69538 0.0
C251 C 0.44494 0.20567 0.68997 0.0
C252 C 0.35779 0.20017 0.67424 0.0
C253 C 0.32712 0.14543 0.64724 0.0
C254 C 0.35273 0.1177 0.64441 0.0
C255 C 0.41148 0.1483 0.66581 0.0
C256 C 0.33047 0.22948 0.67934 0.0
C257 C 0.32109 0.05892 0.61634 0.0
H258 H 0.10182 0.00255 0.61268 0.0
H259 H 0.24828 0.14912 0.5221 0.0
H260 H 0.2114 0.02016 0.67943 0.0
H261 H 0.20185 0.07217 0.69739 0.0
H262 H 0.13049 0.99041 0.67646 0.0
H263 H 0.36419 0.22517 0.53358 0.0
H264 H 0.38682 0.2509 0.587 0.0
H265 H 0.38669 0.19268 0.56631 0.0
H266 H 0.44281 0.27448 0.71382 0.0
H267 H 0.43376 0.12993 0.66155 0.0
H268 H 0.28184 0.19279 0.69598 0.0
H269 H 0.32123 0.2392 0.64874 0.0
H270 H 0.36481 0.27702 0.69733 0.0
H271 H 0.26618 0.01754 0.62197 0.0
H272 H 0.34313 0.03936 0.62076 0.0
H273 H 0.3285 0.07469 0.58357 0.0
C274 C 0.08355 0.14411 0.11902 0.0
C275 C 0.09225 0.1521 0.0759 0.0
C276 C 0.11555 0.19942 0.14516 0.0
C277 C 0.15661 0.26413 0.12766 0.0
C278 C 0.16515 0.27238 0.08414 0.0
C279 C 0.13303 0.21638 0.05886 0.0
C280 C 0.10554 0.18856 0.19139 0.0
C281 C 0.20811 0.34049 0.06413 0.0
C282 C 0.19695 0.40963 0.17726 0.0
C283 C 0.26538 0.45318 0.18553 0.0
C284 C 0.15893 0.34501 0.16153 0.0
C285 C 0.19045 0.3239 0.15415 0.0
C286 C 0.25823 0.36582 0.16604 0.0
C287 C 0.29526 0.43056 0.18116 0.0
C288 C 0.0869 0.30201 0.14918 0.0
C289 C 0.29328 0.34467 0.15943 0.0
H290 H 0.05129 0.09456 0.13247 0.0
H291 H 0.1399 0.22317 0.02561 0.0
H292 H 0.1543 0.21595 0.20653 0.0
H293 H 0.08712 0.20911 0.20408 0.0
H294 H 0.06934 0.13458 0.19987 0.0
H295 H 0.20886 0.33814 0.02983 0.0
H296 H 0.18909 0.3621 0.07265 0.0
H297 H 0.26046 0.3754 0.07559 0.0
H298 H 0.17437 0.42784 0.18033 0.0
H299 H 0.34847 0.46481 0.18738 0.0
H300 H 0.05426 0.24934 0.15938 0.0
H301 H 0.08356 0.30164 0.11494 0.0
H302 H 0.06714 0.32105 0.1624 0.0
H303 H 0.26071 0.29184 0.16929 0.0
H304 H 0.34145 0.37729 0.17664 0.0
H305 H 0.30412 0.34772 0.12597 0.0
C306 C 0.7282 0.08396 0.59435 0.0
C307 C 0.76997 0.07915 0.61092 0.0
C308 C 0.72186 0.1232 0.61368 0.0
C309 C 0.75931 0.15969 0.64993 0.0
C310 C 0.80049 0.15413 0.6673 0.0
C311 C 0.80447 0.11312 0.64798 0.0
C312 C 0.67655 0.12716 0.5946 0.0
C313 C 0.8427 0.19366 0.70516 0.0
C314 C 0.78806 0.31001 0.66383 0.0
C315 C 0.73601 0.28439 0.69112 0.0
C316 C 0.7996 0.27162 0.65254 0.0
C317 C 0.75705 0.20567 0.66833 0.0
C318 C 0.70759 0.18152 0.69826 0.0
C319 C 0.69752 0.22129 0.70928 0.0
C320 C 0.85443 0.29999 0.62165 0.0
C321 C 0.6621 0.11193 0.71633 0.0
H322 H 0.7019 0.0587 0.56557 0.0
H323 H 0.83557 0.10853 0.66177 0.0
H324 H 0.64069 0.11497 0.6181 0.0
H325 H 0.70703 0.17911 0.5837 0.0
H326 H 0.64756 0.09237 0.56797 0.0
H327 H 0.86075 0.17367 0.71961 0.0
H328 H 0.88717 0.24664 0.69618 0.0
H329 H 0.81422 0.19371 0.72844 0.0
H330 H 0.81797 0.35906 0.65 0.0
H331 H 0.6569 0.20136 0.73018 0.0
H332 H 0.83161 0.27371 0.59158 0.0
H333 H 0.8849 0.29168 0.63234 0.0
H334 H 0.88829 0.35463 0.6165 0.0
H335 H 0.62625 0.07427 0.69227 0.0
H336 H 0.63302 0.10444 0.74326 0.0
H337 H 0.6916 0.10214 0.72628 0.0
C338 C 0.78055 0.86857 0.07105 0.0
C339 C 0.84812 0.92963 0.07338 0.0
C340 C 0.73577 0.84858 0.10285 0.0
C341 C 0.76007 0.88926 0.13875 0.0
C342 C 0.82925 0.94971 0.14192 0.0
C343 C 0.87217 0.97027 0.1085 0.0
C344 C 0.66212 0.78446 0.09756 0.0
C345 C 0.8582 0.99159 0.18083 0.0
C346 C 0.61915 0.8579 0.18526 0.0
C347 C 0.58634 0.79958 0.20808 0.0
C348 C 0.68074 0.89302 0.16583 0.0
C349 C 0.71104 0.87023 0.1706 0.0
C350 C 0.68329 0.81798 0.19912 0.0
C351 C 0.62006 0.78195 0.21685 0.0
C352 C 0.70775 0.94789 0.13546 0.0
C353 C 0.71722 0.79609 0.20756 0.0
H354 H 0.76249 0.83738 0.04378 0.0
H355 H 0.92508 0.01686 0.11043 0.0
H356 H 0.64566 0.74802 0.12207 0.0
H357 H 0.63158 0.79489 0.10076 0.0
H358 H 0.65119 0.76055 0.06696 0.0
H359 H 0.91203 0.03964 0.17713 0.0
H360 H 0.82969 0.00279 0.19021 0.0
H361 H 0.85379 0.96276 0.20646 0.0
H362 H 0.59255 0.87101 0.17825 0.0
H363 H 0.59423 0.73608 0.23374 0.0
H364 H 0.69789 0.92845 0.10343 0.0
H365 H 0.76282 0.99146 0.13884 0.0
H366 H 0.68376 0.96554 0.13944 0.0
H367 H 0.72209 0.779 0.17855 0.0
H368 H 0.68931 0.75476 0.2306 0.0
H369 H 0.76866 0.83945 0.21941 0.0
C370 C 0.93895 0.81557 0.56574 0.0
C371 C 0.90967 0.83847 0.55866 0.0
C372 C 0.9077 0.76025 0.59154 0.0
C373 C 0.84607 0.72754 0.61103 0.0
C374 C 0.8177 0.75213 0.60534 0.0
C375 C 0.8492 0.80652 0.57864 0.0
C376 C 0.93898 0.73481 0.59626 0.0
C377 C 0.75263 0.7193 0.62609 0.0
C378 C 0.72468 0.54048 0.62535 0.0
C379 C 0.7341 0.53497 0.66705 0.0
C380 C 0.76048 0.60277 0.60717 0.0
C381 C 0.80608 0.66158 0.63141 0.0
C382 C 0.81414 0.65675 0.67395 0.0
C383 C 0.77845 0.59332 0.69118 0.0
C384 C 0.75081 0.60559 0.56155 0.0
C385 C 0.86121 0.71846 0.70097 0.0
H386 H 0.98598 0.84034 0.55073 0.0
H387 H 0.82623 0.82394 0.57341 0.0
H388 H 0.94226 0.72749 0.62942 0.0
H389 H 0.9068 0.68525 0.58082 0.0
H390 H 0.99007 0.76962 0.58245 0.0
H391 H 0.74291 0.75054 0.62374 0.0
H392 H 0.71028 0.67005 0.61131 0.0
H393 H 0.75324 0.70977 0.65927 0.0
H394 H 0.6903 0.49593 0.60621 0.0
H395 H 0.78638 0.58974 0.72309 0.0
H396 H 0.79932 0.63639 0.54492 0.0
H397 H 0.73368 0.62987 0.55697 0.0
H398 H 0.71354 0.55501 0.54708 0.0
H399 H 0.9137 0.7512 0.69023 0.0
H400 H 0.85799 0.70564 0.73402 0.0
H401 H 0.84965 0.74807 0.69851 0.0
C402 C 0.30041 0.92502 0.40721 0.0
C403 C 0.24745 0.91596 0.39376 0.0
C404 C 0.30916 0.88573 0.39152 0.0
C405 C 0.2621 0.83354 0.36307 0.0
C406 C 0.20665 0.82159 0.35093 0.0
C407 C 0.201 0.8638 0.3655 0.0
C408 C 0.36987 0.90125 0.40461 0.0
C409 C 0.15419 0.76602 0.32121 0.0
C410 C 0.31687 0.77534 0.28975 0.0
C411 C 0.2929 0.71809 0.31003 0.0
C412 C 0.30719 0.81326 0.3067 0.0
C413 C 0.27262 0.7935 0.34482 0.0
C414 C 0.24835 0.73573 0.36541 0.0
C415 C 0.25931 0.6991 0.34796 0.0
C416 C 0.33419 0.87466 0.28387 0.0
C417 C 0.20915 0.71151 0.4053 0.0
H418 H 0.33579 0.96327 0.42992 0.0
H419 H 0.1606 0.85634 0.35372 0.0
H420 H 0.35387 0.85656 0.41935 0.0
H421 H 0.40031 0.91371 0.37698 0.0
H422 H 0.40229 0.94396 0.42666 0.0
H423 H 0.10503 0.74821 0.32652 0.0
H424 H 0.17032 0.78577 0.28918 0.0
H425 H 0.14702 0.72246 0.32371 0.0
H426 H 0.34345 0.79075 0.26062 0.0
H427 H 0.24025 0.65462 0.36361 0.0
H428 H 0.37133 0.91983 0.30354 0.0
H429 H 0.29286 0.86997 0.27741 0.0
H430 H 0.35863 0.8825 0.25411 0.0
H431 H 0.23975 0.75126 0.42926 0.0
H432 H 0.1934 0.66549 0.41735 0.0
H433 H 0.16365 0.70059 0.40021 0.0
C434 C 0.18174 0.05046 0.92931 0.0
C435 C 0.15652 0.07809 0.93251 0.0
C436 C 0.23801 0.08097 0.90441 0.0
C437 C 0.26826 0.13912 0.88121 0.0
C438 C 0.24028 0.16451 0.88232 0.0
C439 C 0.18628 0.13507 0.90888 0.0
C440 C 0.26766 0.05361 0.90508 0.0
C441 C 0.26959 0.22514 0.85718 0.0
C442 C 0.45678 0.27234 0.86887 0.0
C443 C 0.46545 0.26045 0.82876 0.0
C444 C 0.39302 0.23248 0.88616 0.0
C445 C 0.33564 0.1805 0.86232 0.0
C446 C 0.3434 0.16941 0.82121 0.0
C447 C 0.40848 0.20866 0.80524 0.0
C448 C 0.38735 0.24565 0.93034 0.0
C449 C 0.28321 0.11605 0.79434 0.0
H450 H 0.1592 0.00651 0.94743 0.0
H451 H 0.16812 0.15768 0.91143 0.0
H452 H 0.27722 0.04783 0.87314 0.0
H453 H 0.3167 0.08965 0.92134 0.0
H454 H 0.23446 0.00433 0.9211 0.0
H455 H 0.23445 0.23008 0.85502 0.0
H456 H 0.31665 0.27127 0.87189 0.0
H457 H 0.28224 0.22225 0.82541 0.0
H458 H 0.50023 0.31226 0.8875 0.0
H459 H 0.41461 0.19772 0.77493 0.0
H460 H 0.35698 0.19903 0.94898 0.0
H461 H 0.36134 0.26132 0.93111 0.0
H462 H 0.43713 0.28549 0.94538 0.0
H463 H 0.25393 0.06569 0.80768 0.0
H464 H 0.29778 0.11719 0.76213 0.0
H465 H 0.24951 0.12283 0.79341 0.0
C466 C 0.1861 0.22768 0.42121 0.0
C467 C 0.11919 0.18311 0.43435 0.0
C468 C 0.21598 0.28537 0.39825 0.0
C469 C 0.1777 0.29812 0.38802 0.0
C470 C 0.10968 0.2523 0.4004 0.0
C471 C 0.08138 0.19556 0.42348 0.0
C472 C 0.2889 0.3336 0.3859 0.0
C473 C 0.06709 0.26395 0.3901 0.0
C474 C 0.26422 0.47652 0.37026 0.0
C475 C 0.26342 0.47954 0.32695 0.0
C476 C 0.2379 0.41831 0.39036 0.0
C477 C 0.20941 0.36127 0.36664 0.0
C478 C 0.20822 0.36374 0.32289 0.0
C479 C 0.23543 0.42303 0.30354 0.0
C480 C 0.24019 0.41777 0.43707 0.0
C481 C 0.17757 0.30359 0.29659 0.0
H482 H 0.21546 0.21825 0.42968 0.0
H483 H 0.02933 0.16084 0.43314 0.0
H484 H 0.29435 0.3422 0.35198 0.0
H485 H 0.31835 0.38289 0.40106 0.0
H486 H 0.31087 0.31502 0.39466 0.0
H487 H 0.0141 0.22174 0.40028 0.0
H488 H 0.08811 0.31063 0.40531 0.0
H489 H 0.06776 0.27084 0.35624 0.0
H490 H 0.28612 0.52008 0.38865 0.0
H491 H 0.23447 0.42492 0.27017 0.0
H492 H 0.2659 0.4037 0.44714 0.0
H493 H 0.18837 0.37954 0.44972 0.0
H494 H 0.2667 0.46727 0.45082 0.0
H495 H 0.20157 0.28667 0.30362 0.0
H496 H 0.18292 0.3145 0.26293 0.0
H497 H 0.12336 0.26119 0.304 0.0
C498 C 0.94978 0.30956 0.89348 0.0
C499 C 0.94786 0.26078 0.88253 0.0
C500 C 0.90152 0.30629 0.87858 0.0
C501 C 0.85045 0.25327 0.85172 0.0
C502 C 0.84725 0.2029 0.84127 0.0
C503 C 0.89611 0.20733 0.85683 0.0
C504 C 0.90512 0.35961 0.89172 0.0
C505 C 0.79227 0.14343 0.81445 0.0
C506 C 0.70568 0.23416 0.84497 0.0
C507 C 0.72793 0.27959 0.81316 0.0
C508 C 0.74229 0.2204 0.85582 0.0
C509 C 0.80227 0.2529 0.83421 0.0
C510 C 0.82129 0.29376 0.79953 0.0
C511 C 0.78465 0.3079 0.79001 0.0
C512 C 0.71955 0.17509 0.89224 0.0
C513 C 0.88343 0.32731 0.77454 0.0
H514 H 0.98879 0.35006 0.91407 0.0
H515 H 0.89428 0.16932 0.84826 0.0
H516 H 0.91497 0.38907 0.86435 0.0
H517 H 0.85635 0.33581 0.90521 0.0
H518 H 0.94526 0.3948 0.91489 0.0
H519 H 0.81315 0.13188 0.7928 0.0
H520 H 0.75546 0.0987 0.83454 0.0
H521 H 0.76498 0.1508 0.79643 0.0
H522 H 0.66146 0.21203 0.86273 0.0
H523 H 0.80295 0.34438 0.76614 0.0
H524 H 0.75648 0.20491 0.91777 0.0
H525 H 0.71725 0.13594 0.88339 0.0
H526 H 0.66942 0.1501 0.90393 0.0
H527 H 0.92748 0.37579 0.78932 0.0
H528 H 0.87915 0.33791 0.74247 0.0
H529 H 0.89304 0.29597 0.77312 0.0
C530 C 0.86331 0.96236 0.39257 0.0
C531 C 0.85541 0.93618 0.43168 0.0
C532 C 0.80731 0.93471 0.36865 0.0
C533 C 0.742 0.88027 0.38461 0.0
C534 C 0.73387 0.85336 0.424 0.0
C535 C 0.7907 0.8817 0.44707 0.0
C536 C 0.81805 0.96435 0.32667 0.0
C537 C 0.66502 0.79492 0.44201 0.0
C538 C 0.59228 0.84698 0.35485 0.0
C539 C 0.55538 0.78937 0.33031 0.0
C540 C 0.65534 0.87971 0.37053 0.0
C541 C 0.68176 0.85369 0.36176 0.0
C542 C 0.64626 0.79757 0.33512 0.0
C543 C 0.58319 0.76589 0.31975 0.0
C544 C 0.6915 0.93941 0.39877 0.0
C545 C 0.6733 0.76902 0.32461 0.0
H546 H 0.9134 0.00511 0.38085 0.0
H547 H 0.78446 0.86085 0.47708 0.0
H548 H 0.79237 0.92493 0.30252 0.0
H549 H 0.79563 0.98383 0.32611 0.0
H550 H 0.87213 0.00585 0.31847 0.0
H551 H 0.66737 0.7783 0.47228 0.0
H552 H 0.63806 0.80925 0.44642 0.0
H553 H 0.63494 0.7518 0.42026 0.0
H554 H 0.57034 0.86469 0.3633 0.0
H555 H 0.5536 0.7201 0.30186 0.0
H556 H 0.74478 0.98128 0.38919 0.0
H557 H 0.69109 0.92531 0.43087 0.0
H558 H 0.6678 0.95764 0.39894 0.0
H559 H 0.72098 0.80694 0.30716 0.0
H560 H 0.63764 0.72271 0.30558 0.0
H561 H 0.68464 0.75734 0.35328 0.0
C562 C 0.92809 0.86124 0.87656 0.0
C563 C 0.92205 0.85274 0.91968 0.0
C564 C 0.90597 0.80978 0.84996 0.0
C565 C 0.87925 0.74908 0.86699 0.0
C566 C 0.87658 0.74152 0.91056 0.0
C567 C 0.89731 0.79318 0.9364 0.0
C568 C 0.90964 0.81977 0.80372 0.0
C569 C 0.85028 0.67817 0.92992 0.0
C570 C 0.75046 0.58254 0.81156 0.0
C571 C 0.78798 0.56929 0.80264 0.0
C572 C 0.78056 0.64298 0.83047 0.0
C573 C 0.85005 0.69156 0.83969 0.0
C574 C 0.88928 0.68084 0.82696 0.0
C575 C 0.85736 0.61893 0.80929 0.0
C576 C 0.73682 0.65208 0.84399 0.0
C577 C 0.96384 0.73224 0.83504 0.0
H578 H 0.94922 0.90777 0.86337 0.0
H579 H 0.89394 0.78674 0.9697 0.0
H580 H 0.93593 0.80885 0.7887 0.0
H581 H 0.85813 0.78417 0.79073 0.0
H582 H 0.93604 0.87164 0.79543 0.0
H583 H 0.85524 0.68183 0.96416 0.0
H584 H 0.7965 0.63502 0.92193 0.0
H585 H 0.87781 0.66719 0.91743 0.0
H586 H 0.69649 0.54328 0.80702 0.0
H587 H 0.88594 0.60794 0.80274 0.0
H588 H 0.75953 0.70215 0.8345 0.0
H589 H 0.73285 0.64949 0.87827 0.0
H590 H 0.68535 0.61287 0.83092 0.0
H591 H 0.98798 0.78371 0.82831 0.0
H592 H 0.9887 0.7225 0.81613 0.0
H593 H 0.97257 0.73055 0.8682 0.0
loop_
_geom_bond_atom_site_label_1
_geom_bond_atom_site_label_2
_geom_bond_distance
_geom_bond_site_symmetry_2
_ccdc_geom_bond_type
Eu0 N29 2.600 . S
Eu0 N35 2.562 1_565 S
Eu0 O44 2.462 . S
Eu0 O45 2.373 1_565 S
Eu0 O47 2.432 . S
Eu0 O48 2.291 1_564 S
Eu0 O52 2.320 1_454 S
Eu0 O55 2.372 1_455 S
Eu0 C64 2.787 . S
C1 N2 1.365 1_665 S
C1 C4 1.405 . S
C1 C8 1.448 . S
N2 C1 1.365 1_445 S
N2 C5 1.319 . S
N2 Eu11 2.600 1_455 S
C3 C5 1.397 . S
C3 C6 1.367 . S
C3 H23 0.931 . S
C4 C1 1.405 . S
C4 C6 1.403 1_665 S
C4 C10 1.439 . S
C5 N2 1.319 . S
C5 C3 1.397 . S
C5 H16 0.930 . S
C6 C3 1.367 . S
C6 C4 1.403 1_445 S
C6 H27 0.936 . S
C7 C8 1.430 . S
C7 C9 1.387 . S
C7 C13 1.404 . S
C8 C1 1.448 . S
C8 C7 1.430 . S
C8 N12 1.351 . S
C9 C7 1.387 . S
C9 C10 1.374 . S
C9 H24 0.931 . S
C10 C4 1.439 . S
C10 C9 1.374 . S
C10 H25 0.931 . S
Eu11 N2 2.600 1_655 S
Eu11 N12 2.562 1_545 S
Eu11 O46 2.335 1_656 S
Eu11 O49 2.372 1_655 S
Eu11 O50 2.462 . S
Eu11 O51 2.373 1_545 S
Eu11 O53 2.432 1_655 S
Eu11 O54 2.291 1_546 S
Eu11 C75 2.787 . S
N12 C8 1.351 . S
N12 Eu11 2.562 1_565 S
N12 C14 1.325 . S
C13 C7 1.404 . S
C13 C15 1.366 . S
C13 H21 0.930 . S
C14 N12 1.325 . S
C14 C15 1.416 . S
C14 H20 0.929 . S
C15 C13 1.366 . S
C15 C14 1.416 . S
C15 H17 0.930 . S
H16 C5 0.930 . S
H17 C15 0.930 . S
H18 C33 0.930 . S
H19 C40 0.930 . S
H20 C14 0.929 . S
H21 C13 0.930 . S
H22 C36 0.929 . S
H23 C3 0.931 . S
H24 C9 0.931 . S
H25 C10 0.931 . S
H26 C31 0.931 . S
H27 C6 0.936 . S
H28 C39 0.930 . S
N29 Eu0 2.600 . S
N29 C30 1.365 1_565 S
N29 C33 1.319 1_455 S
C30 N29 1.365 1_545 S
C30 C32 1.405 . S
C30 C38 1.448 . S
C31 H26 0.931 . S
C31 C33 1.397 . S
C31 C34 1.367 1_565 S
C32 C30 1.405 . S
C32 C34 1.403 1_455 S
C32 C65 1.439 . S
C33 H18 0.930 . S
C33 N29 1.319 1_655 S
C33 C31 1.397 . S
C34 C31 1.367 1_545 S
C34 C32 1.403 1_655 S
C34 H41 0.929 . S
N35 Eu0 2.562 1_545 S
N35 C36 1.325 . S
N35 C38 1.351 . S
C36 H22 0.929 . S
C36 N35 1.325 . S
C36 C40 1.416 . S
C37 C38 1.430 . S
C37 C39 1.404 . S
C37 C66 1.387 . S
C38 C30 1.448 . S
C38 N35 1.351 . S
C38 C37 1.430 . S
C39 H28 0.930 . S
C39 C37 1.404 . S
C39 C40 1.366 . S
C40 H19 0.930 . S
C40 C36 1.416 . S
C40 C39 1.366 . S
H41 C34 0.929 . S
H42 C65 0.931 . S
H43 C66 0.931 . S
O44 Eu0 2.462 . S
O44 C64 1.252 . S
O45 Eu0 2.373 1_545 S
O45 C56 1.249 . S
O46 Eu11 2.335 1_454 S
O46 C56 1.264 . S
O47 Eu0 2.432 . S
O47 C64 1.268 . S
O48 Eu0 2.291 1_546 S
O48 C63 1.255 . S
O49 Eu11 2.372 1_455 S
O49 C63 1.257 . S
O50 Eu11 2.462 . S
O50 C75 1.252 . S
O51 Eu11 2.373 1_565 S
O51 C67 1.249 . S
O52 Eu0 2.320 1_656 S
O52 C67 1.283 . S
O53 Eu11 2.432 1_455 S
O53 C75 1.268 1_455 S
O54 Eu11 2.291 1_564 S
O54 C74 1.255 . S
O55 Eu0 2.372 1_655 S
O55 C74 1.257 . S
C56 O45 1.249 . S
C56 O46 1.264 . S
C57 C60 1.382 . S
C57 C62 1.390 . S
C57 C64 1.506 . S
C58 C59 1.398 . S
C58 C62 1.392 . S
C59 C58 1.398 . S
C59 C61 1.372 . S
C59 H76 0.931 . S
C60 C57 1.382 . S
C60 C61 1.390 . S
C60 H77 0.931 1_455 S
C61 C59 1.372 . S
C61 C60 1.390 . S
C61 H78 0.929 . S
C62 C57 1.390 . S
C62 C58 1.392 . S
C62 H79 0.930 . S
C63 O48 1.255 . S
C63 O49 1.257 . S
C64 Eu0 2.787 . S
C64 O44 1.252 . S
C64 O47 1.268 . S
C64 C57 1.506 . S
C65 C32 1.439 . S
C65 H42 0.931 . S
C65 C66 1.374 . S
C66 C37 1.387 . S
C66 H43 0.931 . S
C66 C65 1.374 . S
C67 O51 1.249 . S
C67 O52 1.283 . S
C68 C71 1.382 . S
C68 C72 1.390 . S
C68 C75 1.506 . S
C69 C70 1.398 . S
C69 C72 1.392 . S
C70 C69 1.398 . S
C70 C73 1.372 . S
C70 H80 0.931 . S
C71 C68 1.382 . S
C71 C73 1.390 . S
C71 H81 0.931 1_655 S
C72 C68 1.390 . S
C72 C69 1.392 . S
C72 H82 0.930 . S
C73 C70 1.372 . S
C73 C71 1.390 . S
C73 H83 0.929 1_655 S
C74 O54 1.255 . S
C74 O55 1.257 . S
C75 Eu11 2.787 . S
C75 O50 1.252 . S
C75 O53 1.268 1_655 S
C75 C68 1.506 . S
H76 C59 0.931 . S
H77 C60 0.931 1_655 S
H78 C61 0.929 . S
H79 C62 0.930 . S
H80 C70 0.931 . S
H81 C71 0.931 1_455 S
H82 C72 0.930 . S
H83 C73 0.929 1_455 S
Eu84 N113 2.600 1_565 S
Eu84 N119 2.562 1_455 S
Eu84 O128 2.462 . S
Eu84 O129 2.373 1_455 S
Eu84 O131 2.432 1_565 S
Eu84 O132 2.291 1_455 S
Eu84 O136 2.335 1_565 S
Eu84 O139 2.372 1_565 S
Eu84 C148 2.787 . S
C85 N86 1.365 . S
C85 C88 1.405 . S
C85 C92 1.448 . S
N86 C85 1.365 . S
N86 C89 1.319 1_445 S
N86 Eu95 2.600 1_455 S
C87 C89 1.397 . S
C87 C90 1.367 1_665 S
C87 H107 0.931 . S
C88 C85 1.405 . S
C88 C90 1.403 . S
C88 C94 1.439 . S
C89 N86 1.319 1_665 S
C89 C87 1.397 . S
C89 H100 0.930 . S
C90 C87 1.367 1_445 S
C90 C88 1.403 . S
C90 H111 0.937 . S
C91 C92 1.430 . S
C91 C93 1.387 . S
C91 C97 1.404 . S
C92 C85 1.448 . S
C92 C91 1.430 . S
C92 N96 1.351 . S
C93 C91 1.387 . S
C93 C94 1.374 . S
C93 H108 0.931 . S
C94 C88 1.439 . S
C94 C93 1.374 . S
C94 H109 0.931 . S
Eu95 N86 2.600 1_655 S
Eu95 N96 2.562 1_655 S
Eu95 O130 2.335 1_545 S
Eu95 O133 2.372 1_545 S
Eu95 O134 2.462 . S
Eu95 O135 2.373 1_655 S
Eu95 O137 2.432 . S
Eu95 O138 2.291 1_655 S
Eu95 C159 2.787 . S
N96 C92 1.351 . S
N96 Eu95 2.562 1_455 S
N96 C98 1.325 . S
C97 C91 1.404 . S
C97 C99 1.366 . S
C97 H105 0.930 . S
C98 N96 1.325 . S
C98 C99 1.416 . S
C98 H104 0.929 . S
C99 C97 1.366 . S
C99 C98 1.416 . S
C99 H101 0.930 . S
H100 C89 0.930 . S
H101 C99 0.930 . S
H102 C117 0.930 . S
H103 C124 0.930 . S
H104 C98 0.929 . S
H105 C97 0.930 . S
H106 C120 0.929 . S
H107 C87 0.931 . S
H108 C93 0.931 . S
H109 C94 0.931 . S
H110 C115 0.931 . S
H111 C90 0.937 . S
H112 C123 0.930 . S
N113 Eu84 2.600 1_545 S
N113 C114 1.365 1_445 S
N113 C117 1.319 . S
C114 N113 1.365 1_665 S
C114 C116 1.405 . S
C114 C122 1.448 . S
C115 H110 0.931 . S
C115 C117 1.397 . S
C115 C118 1.367 . S
C116 C114 1.405 . S
C116 C118 1.403 1_665 S
C116 C149 1.439 . S
C117 H102 0.930 . S
C117 N113 1.319 . S
C117 C115 1.397 . S
C118 C115 1.367 . S
C118 C116 1.403 1_445 S
C118 H125 0.929 . S
N119 Eu84 2.562 1_655 S
N119 C120 1.325 . S
N119 C122 1.351 . S
C120 H106 0.929 . S
C120 N119 1.325 . S
C120 C124 1.416 . S
C121 C122 1.430 . S
C121 C123 1.404 . S
C121 C150 1.387 . S
C122 C114 1.448 . S
C122 N119 1.351 . S
C122 C121 1.430 . S
C123 H112 0.930 . S
C123 C121 1.404 . S
C123 C124 1.366 . S
C124 H103 0.930 . S
C124 C120 1.416 . S
C124 C123 1.366 . S
H125 C118 0.929 . S
H126 C149 0.931 . S
H127 C150 0.931 . S
O128 Eu84 2.462 . S
O128 C148 1.252 . S
O129 Eu84 2.373 1_655 S
O129 C140 1.249 . S
O130 Eu95 2.335 1_565 S
O130 C140 1.264 . S
O131 Eu84 2.432 1_545 S
O131 C148 1.268 1_545 S
O132 Eu84 2.291 1_655 S
O132 C147 1.255 . S
O133 Eu95 2.372 1_565 S
O133 C147 1.257 . S
O134 Eu95 2.462 . S
O134 C159 1.252 . S
O135 Eu95 2.373 1_455 S
O135 C151 1.249 . S
O136 Eu84 2.335 1_545 S
O136 C151 1.264 . S
O137 Eu95 2.432 . S
O137 C159 1.268 . S
O138 Eu95 2.291 1_455 S
O138 C158 1.255 . S
O139 Eu84 2.372 1_545 S
O139 C158 1.257 . S
C140 O129 1.249 . S
C140 O130 1.264 . S
C141 C144 1.382 . S
C141 C146 1.390 . S
C141 C148 1.506 . S
C142 C143 1.398 . S
C142 C146 1.392 . S
C143 C142 1.398 . S
C143 C145 1.372 . S
C143 H160 0.931 . S
C144 C141 1.382 . S
C144 C145 1.390 . S
C144 H161 0.931 1_565 S
C145 C143 1.372 . S
C145 C144 1.390 . S
C145 H162 0.929 1_565 S
C146 C141 1.390 . S
C146 C142 1.392 . S
C146 H163 0.930 . S
C147 O132 1.255 . S
C147 O133 1.257 . S
C148 Eu84 2.787 . S
C148 O128 1.252 . S
C148 O131 1.268 1_565 S
C148 C141 1.506 . S
C149 C116 1.439 . S
C149 H126 0.931 . S
C149 C150 1.374 . S
C150 C121 1.387 . S
C150 H127 0.931 . S
C150 C149 1.374 . S
C151 O135 1.249 . S
C151 O136 1.264 . S
C152 C155 1.382 . S
C152 C156 1.390 . S
C152 C159 1.506 . S
C153 C154 1.398 . S
C153 C156 1.392 . S
C154 C153 1.398 . S
C154 C157 1.372 . S
C154 H164 0.931 . S
C155 C152 1.382 . S
C155 C157 1.390 . S
C155 H165 0.931 . S
C156 C152 1.390 . S
C156 C153 1.392 . S
C156 H166 0.930 . S
C157 C154 1.372 . S
C157 C155 1.390 . S
C157 H167 0.929 . S
C158 O138 1.255 . S
C158 O139 1.257 . S
C159 Eu95 2.787 . S
C159 O134 1.252 . S
C159 O137 1.268 . S
C159 C152 1.506 . S
H160 C143 0.931 . S
H161 C144 0.931 1_545 S
H162 C145 0.929 1_545 S
H163 C146 0.930 . S
H164 C154 0.931 . S
H165 C155 0.931 . S
H166 C156 0.930 . S
H167 C157 0.929 . S
Zn168 O174 1.920 . S
Zn168 O180 1.898 . S
Zn168 O183 1.905 . S
Zn169 O177 1.905 . S
Zn169 O178 1.898 . S
Zn169 O186 1.920 . S
Zn170 O173 2.080 . S
Zn170 O176 2.114 . S
Zn170 O179 2.120 . S
Zn170 O181 2.120 . S
Zn170 O182 2.114 . S
Zn170 O185 2.080 . S
C171 O176 1.166 . S
C171 O177 1.182 . S
C172 O178 1.167 . S
C172 O179 1.299 . S
O173 Zn170 2.080 . S
O173 C187 1.305 . S
O174 Zn168 1.920 . S
O174 C187 1.234 . S
C175 O180 1.167 . S
C175 O181 1.299 . S
O176 Zn170 2.114 . S
O176 C171 1.166 . S
O177 Zn169 1.905 . S
O177 C171 1.182 . S
O178 Zn169 1.898 . S
O178 C172 1.167 . S
O179 Zn170 2.120 . S
O179 C172 1.299 . S
O180 Zn168 1.898 . S
O180 C175 1.167 . S
O181 Zn170 2.120 . S
O181 C175 1.299 . S
O182 Zn170 2.114 . S
O182 C184 1.166 . S
O183 Zn168 1.905 . S
O183 C184 1.182 . S
C184 O182 1.166 . S
C184 O183 1.182 . S
O185 Zn170 2.080 . S
O185 C188 1.305 . S
O186 Zn169 1.920 . S
O186 C188 1.234 . S
C187 O173 1.305 . S
C187 O174 1.234 . S
C188 O185 1.305 . S
C188 O186 1.234 . S
Zn189 O195 1.920 . S
Zn189 O201 1.898 . S
Zn189 O204 1.905 . S
Zn190 O198 1.905 . S
Zn190 O199 1.898 . S
Zn190 O207 1.920 . S
Zn191 O194 2.080 . S
Zn191 O197 2.114 . S
Zn191 O200 2.120 . S
Zn191 O202 2.120 . S
Zn191 O203 2.114 . S
Zn191 O206 2.080 . S
C192 O197 1.166 . S
C192 O198 1.182 . S
C193 O199 1.167 . S
C193 O200 1.299 . S
O194 Zn191 2.080 . S
O194 C208 1.305 . S
O195 Zn189 1.920 . S
O195 C208 1.234 . S
C196 O201 1.167 . S
C196 O202 1.299 . S
O197 Zn191 2.114 . S
O197 C192 1.166 . S
O198 Zn190 1.905 . S
O198 C192 1.182 . S
O199 Zn190 1.898 . S
O199 C193 1.167 . S
O200 Zn191 2.120 . S
O200 C193 1.299 . S
O201 Zn189 1.898 . S
O201 C196 1.167 . S
O202 Zn191 2.120 . S
O202 C196 1.299 . S
O203 Zn191 2.114 . S
O203 C205 1.166 . S
O204 Zn189 1.905 . S
O204 C205 1.182 . S
C205 O203 1.166 . S
C205 O204 1.182 . S
O206 Zn191 2.080 . S
O206 C209 1.305 . S
O207 Zn190 1.920 . S
O207 C209 1.234 . S
C208 O194 1.305 . S
C208 O195 1.234 . S
C209 O206 1.305 . S
C209 O207 1.234 . S
C210 C211 1.391 . S
C210 C212 1.394 . S
C210 H226 0.931 . S
C211 C210 1.391 . S
C211 C215 1.376 . S
C212 C210 1.394 . S
C212 C213 1.369 . S
C212 C216 1.531 . S
C213 C212 1.369 . S
C213 C214 1.410 . S
C213 C221 1.503 . S
C214 C213 1.410 . S
C214 C215 1.392 . S
C214 C217 1.511 . S
C215 C211 1.376 . S
C215 C214 1.392 . S
C215 H227 0.929 . S
C216 C212 1.531 . S
C216 H228 0.960 . S
C216 H229 0.962 . S
C216 H230 0.960 . S
C217 C214 1.511 . S
C217 H231 0.961 . S
C217 H232 0.961 . S
C217 H233 0.961 . S
C218 C219 1.370 . S
C218 C220 1.363 . S
C218 H234 0.931 . S
C219 C218 1.370 . S
C219 C223 1.408 . S
C220 C218 1.363 . S
C220 C221 1.370 . S
C220 C224 1.524 . S
C221 C213 1.503 . S
C221 C220 1.370 . S
C221 C222 1.403 . S
C222 C221 1.403 . S
C222 C223 1.404 . S
C222 C225 1.539 . S
C223 C219 1.408 . S
C223 C222 1.404 . S
C223 H235 0.930 . S
C224 C220 1.524 . S
C224 H236 0.956 . S
C224 H237 0.961 . S
C224 H238 0.961 . S
C225 C222 1.539 . S
C225 H239 0.958 . S
C225 H240 0.961 . S
C225 H241 0.960 . S
H226 C210 0.931 . S
H227 C215 0.929 . S
H228 C216 0.960 . S
H229 C216 0.962 . S
H230 C216 0.960 . S
H231 C217 0.961 . S
H232 C217 0.961 . S
H233 C217 0.961 . S
H234 C218 0.931 . S
H235 C223 0.930 . S
H236 C224 0.956 . S
H237 C224 0.961 . S
H238 C224 0.961 . S
H239 C225 0.958 . S
H240 C225 0.961 . S
H241 C225 0.960 . S
C242 C243 1.391 . S
C242 C244 1.394 . S
C242 H258 0.931 . S
C243 C242 1.391 . S
C243 C247 1.376 . S
C244 C242 1.394 . S
C244 C245 1.369 . S
C244 C248 1.531 . S
C245 C244 1.369 . S
C245 C246 1.410 . S
C245 C253 1.503 . S
C246 C245 1.410 . S
C246 C247 1.392 . S
C246 C249 1.511 . S
C247 C243 1.376 . S
C247 C246 1.392 . S
C247 H259 0.929 . S
C248 C244 1.531 . S
C248 H260 0.960 . S
C248 H261 0.962 . S
C248 H262 0.960 1_545 S
C249 C246 1.511 . S
C249 H263 0.961 . S
C249 H264 0.961 . S
C249 H265 0.961 . S
C250 C251 1.370 . S
C250 C252 1.363 . S
C250 H266 0.931 . S
C251 C250 1.370 . S
C251 C255 1.408 . S
C252 C250 1.363 . S
C252 C253 1.370 . S
C252 C256 1.524 . S
C253 C245 1.503 . S
C253 C252 1.370 . S
C253 C254 1.403 . S
C254 C253 1.403 . S
C254 C255 1.404 . S
C254 C257 1.539 . S
C255 C251 1.408 . S
C255 C254 1.404 . S
C255 H267 0.930 . S
C256 C252 1.524 . S
C256 H268 0.956 . S
C256 H269 0.961 . S
C256 H270 0.961 . S
C257 C254 1.539 . S
C257 H271 0.958 . S
C257 H272 0.961 . S
C257 H273 0.960 . S
H258 C242 0.931 . S
H259 C247 0.929 . S
H260 C248 0.960 . S
H261 C248 0.962 . S
H262 C248 0.960 1_565 S
H263 C249 0.961 . S
H264 C249 0.961 . S
H265 C249 0.961 . S
H266 C250 0.931 . S
H267 C255 0.930 . S
H268 C256 0.956 . S
H269 C256 0.961 . S
H270 C256 0.961 . S
H271 C257 0.958 . S
H272 C257 0.961 . S
H273 C257 0.960 . S
C274 C275 1.391 . S
C274 C276 1.394 . S
C274 H290 0.931 . S
C275 C274 1.391 . S
C275 C279 1.376 . S
C276 C274 1.394 . S
C276 C277 1.369 . S
C276 C280 1.531 . S
C277 C276 1.369 . S
C277 C278 1.410 . S
C277 C285 1.503 . S
C278 C277 1.410 . S
C278 C279 1.392 . S
C278 C281 1.511 . S
C279 C275 1.376 . S
C279 C278 1.392 . S
C279 H291 0.929 . S
C280 C276 1.531 . S
C280 H292 0.960 . S
C280 H293 0.962 . S
C280 H294 0.960 . S
C281 C278 1.511 . S
C281 H295 0.961 . S
C281 H296 0.961 . S
C281 H297 0.961 . S
C282 C283 1.370 . S
C282 C284 1.363 . S
C282 H298 0.931 . S
C283 C282 1.370 . S
C283 C287 1.408 . S
C284 C282 1.363 . S
C284 C285 1.370 . S
C284 C288 1.524 . S
C285 C277 1.503 . S
C285 C284 1.370 . S
C285 C286 1.403 . S
C286 C285 1.403 . S
C286 C287 1.404 . S
C286 C289 1.539 . S
C287 C283 1.408 . S
C287 C286 1.404 . S
C287 H299 0.930 . S
C288 C284 1.524 . S
C288 H300 0.956 . S
C288 H301 0.961 . S
C288 H302 0.961 . S
C289 C286 1.539 . S
C289 H303 0.958 . S
C289 H304 0.961 . S
C289 H305 0.960 . S
H290 C274 0.931 . S
H291 C279 0.929 . S
H292 C280 0.960 . S
H293 C280 0.962 . S
H294 C280 0.960 . S
H295 C281 0.961 . S
H296 C281 0.961 . S
H297 C281 0.961 . S
H298 C282 0.931 . S
H299 C287 0.930 . S
H300 C288 0.956 . S
H301 C288 0.961 . S
H302 C288 0.961 . S
H303 C289 0.958 . S
H304 C289 0.961 . S
H305 C289 0.960 . S
C306 C307 1.391 . S
C306 C308 1.394 . S
C306 H322 0.931 . S
C307 C306 1.391 . S
C307 C311 1.376 . S
C308 C306 1.394 . S
C308 C309 1.369 . S
C308 C312 1.531 . S
C309 C308 1.369 . S
C309 C310 1.410 . S
C309 C317 1.503 . S
C310 C309 1.410 . S
C310 C311 1.392 . S
C310 C313 1.511 . S
C311 C307 1.376 . S
C311 C310 1.392 . S
C311 H323 0.929 . S
C312 C308 1.531 . S
C312 H324 0.960 . S
C312 H325 0.962 . S
C312 H326 0.960 . S
C313 C310 1.511 . S
C313 H327 0.961 . S
C313 H328 0.961 . S
C313 H329 0.961 . S
C314 C315 1.370 . S
C314 C316 1.363 . S
C314 H330 0.931 . S
C315 C314 1.370 . S
C315 C319 1.408 . S
C316 C314 1.363 . S
C316 C317 1.370 . S
C316 C320 1.524 . S
C317 C309 1.503 . S
C317 C316 1.370 . S
C317 C318 1.403 . S
C318 C317 1.403 . S
C318 C319 1.404 . S
C318 C321 1.539 . S
C319 C315 1.408 . S
C319 C318 1.404 . S
C319 H331 0.930 . S
C320 C316 1.524 . S
C320 H332 0.956 . S
C320 H333 0.961 . S
C320 H334 0.961 . S
C321 C318 1.539 . S
C321 H335 0.958 . S
C321 H336 0.961 . S
C321 H337 0.960 . S
H322 C306 0.931 . S
H323 C311 0.929 . S
H324 C312 0.960 . S
H325 C312 0.962 . S
H326 C312 0.960 . S
H327 C313 0.961 . S
H328 C313 0.961 . S
H329 C313 0.961 . S
H330 C314 0.931 . S
H331 C319 0.930 . S
H332 C320 0.956 . S
H333 C320 0.961 . S
H334 C320 0.961 . S
H335 C321 0.958 . S
H336 C321 0.961 . S
H337 C321 0.960 . S
C338 C339 1.391 . S
C338 C340 1.394 . S
C338 H354 0.931 . S
C339 C338 1.391 . S
C339 C343 1.376 . S
C340 C338 1.394 . S
C340 C341 1.369 . S
C340 C344 1.531 . S
C341 C340 1.369 . S
C341 C342 1.410 . S
C341 C349 1.503 . S
C342 C341 1.410 . S
C342 C343 1.392 . S
C342 C345 1.511 . S
C343 C339 1.376 . S
C343 C342 1.392 . S
C343 H355 0.929 . S
C344 C340 1.531 . S
C344 H356 0.960 . S
C344 H357 0.962 . S
C344 H358 0.960 . S
C345 C342 1.511 . S
C345 H359 0.961 . S
C345 H360 0.961 . S
C345 H361 0.961 . S
C346 C347 1.370 . S
C346 C348 1.363 . S
C346 H362 0.931 . S
C347 C346 1.370 . S
C347 C351 1.408 . S
C348 C346 1.363 . S
C348 C349 1.370 . S
C348 C352 1.524 . S
C349 C341 1.503 . S
C349 C348 1.370 . S
C349 C350 1.403 . S
C350 C349 1.403 . S
C350 C351 1.404 . S
C350 C353 1.539 . S
C351 C347 1.408 . S
C351 C350 1.404 . S
C351 H363 0.930 . S
C352 C348 1.524 . S
C352 H364 0.956 . S
C352 H365 0.961 . S
C352 H366 0.961 . S
C353 C350 1.539 . S
C353 H367 0.958 . S
C353 H368 0.961 . S
C353 H369 0.960 . S
H354 C338 0.931 . S
H355 C343 0.929 . S
H356 C344 0.960 . S
H357 C344 0.962 . S
H358 C344 0.960 . S
H359 C345 0.961 . S
H360 C345 0.961 . S
H361 C345 0.961 . S
H362 C346 0.931 . S
H363 C351 0.930 . S
H364 C352 0.956 . S
H365 C352 0.961 . S
H366 C352 0.961 . S
H367 C353 0.958 . S
H368 C353 0.961 . S
H369 C353 0.960 . S
C370 C371 1.391 . S
C370 C372 1.394 . S
C370 H386 0.931 . S
C371 C370 1.391 . S
C371 C375 1.376 . S
C372 C370 1.394 . S
C372 C373 1.369 . S
C372 C376 1.531 . S
C373 C372 1.369 . S
C373 C374 1.410 . S
C373 C381 1.503 . S
C374 C373 1.410 . S
C374 C375 1.392 . S
C374 C377 1.511 . S
C375 C371 1.376 . S
C375 C374 1.392 . S
C375 H387 0.929 . S
C376 C372 1.531 . S
C376 H388 0.960 . S
C376 H389 0.962 . S
C376 H390 0.960 . S
C377 C374 1.511 . S
C377 H391 0.961 . S
C377 H392 0.961 . S
C377 H393 0.961 . S
C378 C379 1.370 . S
C378 C380 1.363 . S
C378 H394 0.931 . S
C379 C378 1.370 . S
C379 C383 1.408 . S
C380 C378 1.363 . S
C380 C381 1.370 . S
C380 C384 1.524 . S
C381 C373 1.503 . S
C381 C380 1.370 . S
C381 C382 1.403 . S
C382 C381 1.403 . S
C382 C383 1.404 . S
C382 C385 1.539 . S
C383 C379 1.408 . S
C383 C382 1.404 . S
C383 H395 0.930 . S
C384 C380 1.524 . S
C384 H396 0.956 . S
C384 H397 0.961 . S
C384 H398 0.961 . S
C385 C382 1.539 . S
C385 H399 0.958 . S
C385 H400 0.961 . S
C385 H401 0.960 . S
H386 C370 0.931 . S
H387 C375 0.929 . S
H388 C376 0.960 . S
H389 C376 0.962 . S
H390 C376 0.960 . S
H391 C377 0.961 . S
H392 C377 0.961 . S
H393 C377 0.961 . S
H394 C378 0.931 . S
H395 C383 0.930 . S
H396 C384 0.956 . S
H397 C384 0.961 . S
H398 C384 0.961 . S
H399 C385 0.958 . S
H400 C385 0.961 . S
H401 C385 0.960 . S
C402 C403 1.391 . S
C402 C404 1.394 . S
C402 H418 0.931 . S
C403 C402 1.391 . S
C403 C407 1.376 . S
C404 C402 1.394 . S
C404 C405 1.369 . S
C404 C408 1.531 . S
C405 C404 1.369 . S
C405 C406 1.410 . S
C405 C413 1.503 . S
C406 C405 1.410 . S
C406 C407 1.392 . S
C406 C409 1.511 . S
C407 C403 1.376 . S
C407 C406 1.392 . S
C407 H419 0.929 . S
C408 C404 1.531 . S
C408 H420 0.960 . S
C408 H421 0.962 . S
C408 H422 0.960 . S
C409 C406 1.511 . S
C409 H423 0.961 . S
C409 H424 0.961 . S
C409 H425 0.961 . S
C410 C411 1.370 . S
C410 C412 1.363 . S
C410 H426 0.931 . S
C411 C410 1.370 . S
C411 C415 1.408 . S
C412 C410 1.363 . S
C412 C413 1.370 . S
C412 C416 1.524 . S
C413 C405 1.503 . S
C413 C412 1.370 . S
C413 C414 1.403 . S
C414 C413 1.403 . S
C414 C415 1.404 . S
C414 C417 1.539 . S
C415 C411 1.408 . S
C415 C414 1.404 . S
C415 H427 0.930 . S
C416 C412 1.524 . S
C416 H428 0.956 . S
C416 H429 0.961 . S
C416 H430 0.961 . S
C417 C414 1.539 . S
C417 H431 0.958 . S
C417 H432 0.961 . S
C417 H433 0.960 . S
H418 C402 0.931 . S
H419 C407 0.929 . S
H420 C408 0.960 . S
H421 C408 0.962 . S
H422 C408 0.960 . S
H423 C409 0.961 . S
H424 C409 0.961 . S
H425 C409 0.961 . S
H426 C410 0.931 . S
H427 C415 0.930 . S
H428 C416 0.956 . S
H429 C416 0.961 . S
H430 C416 0.961 . S
H431 C417 0.958 . S
H432 C417 0.961 . S
H433 C417 0.960 . S
C434 C435 1.391 . S
C434 C436 1.394 . S
C434 H450 0.931 . S
C435 C434 1.391 . S
C435 C439 1.376 . S
C436 C434 1.394 . S
C436 C437 1.369 . S
C436 C440 1.531 . S
C437 C436 1.369 . S
C437 C438 1.410 . S
C437 C445 1.503 . S
C438 C437 1.410 . S
C438 C439 1.392 . S
C438 C441 1.511 . S
C439 C435 1.376 . S
C439 C438 1.392 . S
C439 H451 0.929 . S
C440 C436 1.531 . S
C440 H452 0.960 . S
C440 H453 0.962 . S
C440 H454 0.960 . S
C441 C438 1.511 . S
C441 H455 0.961 . S
C441 H456 0.961 . S
C441 H457 0.961 . S
C442 C443 1.370 . S
C442 C444 1.363 . S
C442 H458 0.931 . S
C443 C442 1.370 . S
C443 C447 1.408 . S
C444 C442 1.363 . S
C444 C445 1.370 . S
C444 C448 1.524 . S
C445 C437 1.503 . S
C445 C444 1.370 . S
C445 C446 1.403 . S
C446 C445 1.403 . S
C446 C447 1.404 . S
C446 C449 1.539 . S
C447 C443 1.408 . S
C447 C446 1.404 . S
C447 H459 0.930 . S
C448 C444 1.524 . S
C448 H460 0.956 . S
C448 H461 0.961 . S
C448 H462 0.961 . S
C449 C446 1.539 . S
C449 H463 0.958 . S
C449 H464 0.961 . S
C449 H465 0.960 . S
H450 C434 0.931 . S
H451 C439 0.929 . S
H452 C440 0.960 . S
H453 C440 0.962 . S
H454 C440 0.960 . S
H455 C441 0.961 . S
H456 C441 0.961 . S
H457 C441 0.961 . S
H458 C442 0.931 . S
H459 C447 0.930 . S
H460 C448 0.956 . S
H461 C448 0.961 . S
H462 C448 0.961 . S
H463 C449 0.958 . S
H464 C449 0.961 . S
H465 C449 0.960 . S
C466 C467 1.391 . S
C466 C468 1.394 . S
C466 H482 0.931 . S
C467 C466 1.391 . S
C467 C471 1.376 . S
C468 C466 1.394 . S
C468 C469 1.369 . S
C468 C472 1.531 . S
C469 C468 1.369 . S
C469 C470 1.410 . S
C469 C477 1.503 . S
C470 C469 1.410 . S
C470 C471 1.392 . S
C470 C473 1.511 . S
C471 C467 1.376 . S
C471 C470 1.392 . S
C471 H483 0.929 . S
C472 C468 1.531 . S
C472 H484 0.960 . S
C472 H485 0.962 . S
C472 H486 0.960 . S
C473 C470 1.511 . S
C473 H487 0.961 . S
C473 H488 0.961 . S
C473 H489 0.961 . S
C474 C475 1.370 . S
C474 C476 1.363 . S
C474 H490 0.931 . S
C475 C474 1.370 . S
C475 C479 1.408 . S
C476 C474 1.363 . S
C476 C477 1.370 . S
C476 C480 1.524 . S
C477 C469 1.503 . S
C477 C476 1.370 . S
C477 C478 1.403 . S
C478 C477 1.403 . S
C478 C479 1.404 . S
C478 C481 1.539 . S
C479 C475 1.408 . S
C479 C478 1.404 . S
C479 H491 0.930 . S
C480 C476 1.524 . S
C480 H492 0.956 . S
C480 H493 0.961 . S
C480 H494 0.961 . S
C481 C478 1.539 . S
C481 H495 0.958 . S
C481 H496 0.961 . S
C481 H497 0.960 . S
H482 C466 0.931 . S
H483 C471 0.929 . S
H484 C472 0.960 . S
H485 C472 0.962 . S
H486 C472 0.960 . S
H487 C473 0.961 . S
H488 C473 0.961 . S
H489 C473 0.961 . S
H490 C474 0.931 . S
H491 C479 0.930 . S
H492 C480 0.956 . S
H493 C480 0.961 . S
H494 C480 0.961 . S
H495 C481 0.958 . S
H496 C481 0.961 . S
H497 C481 0.960 . S
C498 C499 1.391 . S
C498 C500 1.394 . S
C498 H514 0.931 . S
C499 C498 1.391 . S
C499 C503 1.376 . S
C500 C498 1.394 . S
C500 C501 1.369 . S
C500 C504 1.531 . S
C501 C500 1.369 . S
C501 C502 1.410 . S
C501 C509 1.503 . S
C502 C501 1.410 . S
C502 C503 1.392 . S
C502 C505 1.511 . S
C503 C499 1.376 . S
C503 C502 1.392 . S
C503 H515 0.929 . S
C504 C500 1.531 . S
C504 H516 0.960 . S
C504 H517 0.962 . S
C504 H518 0.960 . S
C505 C502 1.511 . S
C505 H519 0.961 . S
C505 H520 0.961 . S
C505 H521 0.961 . S
C506 C507 1.370 . S
C506 C508 1.363 . S
C506 H522 0.931 . S
C507 C506 1.370 . S
C507 C511 1.408 . S
C508 C506 1.363 . S
C508 C509 1.370 . S
C508 C512 1.524 . S
C509 C501 1.503 . S
C509 C508 1.370 . S
C509 C510 1.403 . S
C510 C509 1.403 . S
C510 C511 1.404 . S
C510 C513 1.539 . S
C511 C507 1.408 . S
C511 C510 1.404 . S
C511 H523 0.930 . S
C512 C508 1.524 . S
C512 H524 0.956 . S
C512 H525 0.961 . S
C512 H526 0.961 . S
C513 C510 1.539 . S
C513 H527 0.958 . S
C513 H528 0.961 . S
C513 H529 0.960 . S
H514 C498 0.931 . S
H515 C503 0.929 . S
H516 C504 0.960 . S
H517 C504 0.962 . S
H518 C504 0.960 . S
H519 C505 0.961 . S
H520 C505 0.961 . S
H521 C505 0.961 . S
H522 C506 0.931 . S
H523 C511 0.930 . S
H524 C512 0.956 . S
H525 C512 0.961 . S
H526 C512 0.961 . S
H527 C513 0.958 . S
H528 C513 0.961 . S
H529 C513 0.960 . S
C530 C531 1.391 . S
C530 C532 1.394 . S
C530 H546 0.931 . S
C531 C530 1.391 . S
C531 C535 1.376 . S
C532 C530 1.394 . S
C532 C533 1.369 . S
C532 C536 1.531 . S
C533 C532 1.369 . S
C533 C534 1.410 . S
C533 C541 1.503 . S
C534 C533 1.410 . S
C534 C535 1.392 . S
C534 C537 1.511 . S
C535 C531 1.376 . S
C535 C534 1.392 . S
C535 H547 0.929 . S
C536 C532 1.531 . S
C536 H548 0.960 . S
C536 H549 0.962 . S
C536 H550 0.960 . S
C537 C534 1.511 . S
C537 H551 0.961 . S
C537 H552 0.961 . S
C537 H553 0.961 . S
C538 C539 1.370 . S
C538 C540 1.363 . S
C538 H554 0.931 . S
C539 C538 1.370 . S
C539 C543 1.408 . S
C540 C538 1.363 . S
C540 C541 1.370 . S
C540 C544 1.524 . S
C541 C533 1.503 . S
C541 C540 1.370 . S
C541 C542 1.403 . S
C542 C541 1.403 . S
C542 C543 1.404 . S
C542 C545 1.539 . S
C543 C539 1.408 . S
C543 C542 1.404 . S
C543 H555 0.930 . S
C544 C540 1.524 . S
C544 H556 0.956 . S
C544 H557 0.961 . S
C544 H558 0.961 . S
C545 C542 1.539 . S
C545 H559 0.958 . S
C545 H560 0.961 . S
C545 H561 0.960 . S
H546 C530 0.931 . S
H547 C535 0.929 . S
H548 C536 0.960 . S
H549 C536 0.962 . S
H550 C536 0.960 . S
H551 C537 0.961 . S
H552 C537 0.961 . S
H553 C537 0.961 . S
H554 C538 0.931 . S
H555 C543 0.930 . S
H556 C544 0.956 . S
H557 C544 0.961 . S
H558 C544 0.961 . S
H559 C545 0.958 . S
H560 C545 0.961 . S
H561 C545 0.960 . S
C562 C563 1.391 . S
C562 C564 1.394 . S
C562 H578 0.931 . S
C563 C562 1.391 . S
C563 C567 1.376 . S
C564 C562 1.394 . S
C564 C565 1.369 . S
C564 C568 1.531 . S
C565 C564 1.369 . S
C565 C566 1.410 . S
C565 C573 1.503 . S
C566 C565 1.410 . S
C566 C567 1.392 . S
C566 C569 1.511 . S
C567 C563 1.376 . S
C567 C566 1.392 . S
C567 H579 0.929 . S
C568 C564 1.531 . S
C568 H580 0.960 . S
C568 H581 0.962 . S
C568 H582 0.960 . S
C569 C566 1.511 . S
C569 H583 0.961 . S
C569 H584 0.961 . S
C569 H585 0.961 . S
C570 C571 1.370 . S
C570 C572 1.363 . S
C570 H586 0.931 . S
C571 C570 1.370 . S
C571 C575 1.408 . S
C572 C570 1.363 . S
C572 C573 1.370 . S
C572 C576 1.524 . S
C573 C565 1.503 . S
C573 C572 1.370 . S
C573 C574 1.403 . S
C574 C573 1.403 . S
C574 C575 1.404 . S
C574 C577 1.539 . S
C575 C571 1.408 . S
C575 C574 1.404 . S
C575 H587 0.930 . S
C576 C572 1.524 . S
C576 H588 0.956 . S
C576 H589 0.961 . S
C576 H590 0.961 . S
C577 C574 1.539 . S
C577 H591 0.958 . S
C577 H592 0.961 . S
C577 H593 0.960 . S
H578 C562 0.931 . S
H579 C567 0.929 . S
H580 C568 0.960 . S
H581 C568 0.962 . S
H582 C568 0.960 . S
H583 C569 0.961 . S
H584 C569 0.961 . S
H585 C569 0.961 . S
H586 C570 0.931 . S
H587 C575 0.930 . S
H588 C576 0.956 . S
H589 C576 0.961 . S
H590 C576 0.961 . S
H591 C577 0.958 . S
H592 C577 0.961 . S
H593 C577 0.960 . S
C211 C58 1.118 . S
C219 C187 1.291 . S
C243 C151 1.554 . S
C251 C193 1.388 . S
C275 C56 1.612 . S
C283 C184 1.496 . S
C307 C153 1.170 . S
C315 C209 1.278 . S
C339 C74 1.576 . S
C347 C175 1.449 . S
C379 C192 1.541 . S
C371 C147 1.620 . S
C403 C142 1.239 . S
C411 C188 1.248 . S
C443 C205 1.539 . S
C435 C63 1.626 . S
C475 C172 1.468 . S
C467 C158 1.586 . S
C507 C208 1.292 . S
C499 C69 1.159 . S
C539 C171 1.501 . S
C531 C140 1.609 . S
C571 C196 1.425 . S
C563 C67 1.530 . S
