# Generated by pormake.
# Topology tph, (6,8)-cn, num edge types: 1
# Building blocks:
#     Node 0, Type 0, BuildingBlock: OJICUG_clean_sbu_0, # of connection points: 6
#     Node 1, Type 0, BuildingBlock: OJICUG_clean_sbu_0, # of connection points: 6
#     Node 2, Type 0, BuildingBlock: OJICUG_clean_sbu_0, # of connection points: 6
#     Node 3, Type 0, BuildingBlock: OJICUG_clean_sbu_0, # of connection points: 6
#     Node 4, Type 0, BuildingBlock: OJICUG_clean_sbu_0, # of connection points: 6
#     Node 5, Type 0, BuildingBlock: OJICUG_clean_sbu_0, # of connection points: 6
#     Node 6, Type 0, BuildingBlock: OJICUG_clean_sbu_0, # of connection points: 6
#     Node 7, Type 0, BuildingBlock: OJICUG_clean_sbu_0, # of connection points: 6
#     Node 8, Type 0, BuildingBlock: OJICUG_clean_sbu_0, # of connection points: 6
#     Node 9, Type 0, BuildingBlock: OJICUG_clean_sbu_0, # of connection points: 6
#     Node 10, Type 0, BuildingBlock: OJICUG_clean_sbu_0, # of connection points: 6
#     Node 11, Type 0, BuildingBlock: OJICUG_clean_sbu_0, # of connection points: 6
#     Node 12, Type 0, BuildingBlock: OJICUG_clean_sbu_0, # of connection points: 6
#     Node 13, Type 0, BuildingBlock: OJICUG_clean_sbu_0, # of connection points: 6
#     Node 14, Type 0, BuildingBlock: OJICUG_clean_sbu_0, # of connection points: 6
#     Node 15, Type 0, BuildingBlock: OJICUG_clean_sbu_0, # of connection points: 6
#     Node 16, Type 1, BuildingBlock: TAGTUT_clean_sbu_1, # of connection points: 8
#     Node 17, Type 1, BuildingBlock: TAGTUT_clean_sbu_1, # of connection points: 8
#     Node 18, Type 1, BuildingBlock: TAGTUT_clean_sbu_1, # of connection points: 8
#     Node 19, Type 1, BuildingBlock: TAGTUT_clean_sbu_1, # of connection points: 8
#     Node 20, Type 1, BuildingBlock: TAGTUT_clean_sbu_1, # of connection points: 8
#     Node 21, Type 1, BuildingBlock: TAGTUT_clean_sbu_1, # of connection points: 8
#     Node 22, Type 1, BuildingBlock: TAGTUT_clean_sbu_1, # of connection points: 8
#     Node 23, Type 1, BuildingBlock: TAGTUT_clean_sbu_1, # of connection points: 8
#     Node 24, Type 1, BuildingBlock: TAGTUT_clean_sbu_1, # of connection points: 8
#     Node 25, Type 1, BuildingBlock: TAGTUT_clean_sbu_1, # of connection points: 8
#     Node 26, Type 1, BuildingBlock: TAGTUT_clean_sbu_1, # of connection points: 8
#     Node 27, Type 1, BuildingBlock: TAGTUT_clean_sbu_1, # of connection points: 8
#     Edge 28, Type (0, 1), BuildingBlock: KIFKEQ_clean_linker_1, # of connection points: 2
#     Edge 29, Type (0, 1), BuildingBlock: KIFKEQ_clean_linker_1, # of connection points: 2
#     Edge 30, Type (0, 1), BuildingBlock: KIFKEQ_clean_linker_1, # of connection points: 2
#     Edge 31, Type (0, 1), BuildingBlock: KIFKEQ_clean_linker_1, # of connection points: 2
#     Edge 32, Type (0, 1), BuildingBlock: KIFKEQ_clean_linker_1, # of connection points: 2
#     Edge 33, Type (0, 1), BuildingBlock: KIFKEQ_clean_linker_1, # of connection points: 2
#     Edge 34, Type (0, 1), BuildingBlock: KIFKEQ_clean_linker_1, # of connection points: 2
#     Edge 35, Type (0, 1), BuildingBlock: KIFKEQ_clean_linker_1, # of connection points: 2
#     Edge 36, Type (0, 1), BuildingBlock: KIFKEQ_clean_linker_1, # of connection points: 2
#     Edge 37, Type (0, 1), BuildingBlock: KIFKEQ_clean_linker_1, # of connection points: 2
#     Edge 38, Type (0, 1), BuildingBlock: KIFKEQ_clean_linker_1, # of connection points: 2
#     Edge 39, Type (0, 1), BuildingBlock: KIFKEQ_clean_linker_1, # of connection points: 2
#     Edge 40, Type (0, 1), BuildingBlock: KIFKEQ_clean_linker_1, # of connection points: 2
#     Edge 41, Type (0, 1), BuildingBlock: KIFKEQ_clean_linker_1, # of connection points: 2
#     Edge 42, Type (0, 1), BuildingBlock: KIFKEQ_clean_linker_1, # of connection points: 2
#     Edge 43, Type (0, 1), BuildingBlock: KIFKEQ_clean_linker_1, # of connection points: 2
#     Edge 44, Type (0, 1), BuildingBlock: KIFKEQ_clean_linker_1, # of connection points: 2
#     Edge 45, Type (0, 1), BuildingBlock: KIFKEQ_clean_linker_1, # of connection points: 2
#     Edge 46, Type (0, 1), BuildingBlock: KIFKEQ_clean_linker_1, # of connection points: 2
#     Edge 47, Type (0, 1), BuildingBlock: KIFKEQ_clean_linker_1, # of connection points: 2
#     Edge 48, Type (0, 1), BuildingBlock: KIFKEQ_clean_linker_1, # of connection points: 2
#     Edge 49, Type (0, 1), BuildingBlock: KIFKEQ_clean_linker_1, # of connection points: 2
#     Edge 50, Type (0, 1), BuildingBlock: KIFKEQ_clean_linker_1, # of connection points: 2
#     Edge 51, Type (0, 1), BuildingBlock: KIFKEQ_clean_linker_1, # of connection points: 2
#     Edge 52, Type (0, 1), BuildingBlock: KIFKEQ_clean_linker_1, # of connection points: 2
#     Edge 53, Type (0, 1), BuildingBlock: KIFKEQ_clean_linker_1, # of connection points: 2
#     Edge 54, Type (0, 1), BuildingBlock: KIFKEQ_clean_linker_1, # of connection points: 2
#     Edge 55, Type (0, 1), BuildingBlock: KIFKEQ_clean_linker_1, # of connection points: 2
#     Edge 56, Type (0, 1), BuildingBlock: KIFKEQ_clean_linker_1, # of connection points: 2
#     Edge 57, Type (0, 1), BuildingBlock: KIFKEQ_clean_linker_1, # of connection points: 2
#     Edge 58, Type (0, 1), BuildingBlock: KIFKEQ_clean_linker_1, # of connection points: 2
#     Edge 59, Type (0, 1), BuildingBlock: KIFKEQ_clean_linker_1, # of connection points: 2
#     Edge 60, Type (0, 1), BuildingBlock: KIFKEQ_clean_linker_1, # of connection points: 2
#     Edge 61, Type (0, 1), BuildingBlock: KIFKEQ_clean_linker_1, # of connection points: 2
#     Edge 62, Type (0, 1), BuildingBlock: KIFKEQ_clean_linker_1, # of connection points: 2
#     Edge 63, Type (0, 1), BuildingBlock: KIFKEQ_clean_linker_1, # of connection points: 2
#     Edge 64, Type (0, 1), BuildingBlock: KIFKEQ_clean_linker_1, # of connection points: 2
#     Edge 65, Type (0, 1), BuildingBlock: KIFKEQ_clean_linker_1, # of connection points: 2
#     Edge 66, Type (0, 1), BuildingBlock: KIFKEQ_clean_linker_1, # of connection points: 2
#     Edge 67, Type (0, 1), BuildingBlock: KIFKEQ_clean_linker_1, # of connection points: 2
#     Edge 68, Type (0, 1), BuildingBlock: KIFKEQ_clean_linker_1, # of connection points: 2
#     Edge 69, Type (0, 1), BuildingBlock: KIFKEQ_clean_linker_1, # of connection points: 2
#     Edge 70, Type (0, 1), BuildingBlock: KIFKEQ_clean_linker_1, # of connection points: 2
#     Edge 71, Type (0, 1), BuildingBlock: KIFKEQ_clean_linker_1, # of connection points: 2
#     Edge 72, Type (0, 1), BuildingBlock: KIFKEQ_clean_linker_1, # of connection points: 2
#     Edge 73, Type (0, 1), BuildingBlock: KIFKEQ_clean_linker_1, # of connection points: 2
#     Edge 74, Type (0, 1), BuildingBlock: KIFKEQ_clean_linker_1, # of connection points: 2
#     Edge 75, Type (0, 1), BuildingBlock: KIFKEQ_clean_linker_1, # of connection points: 2
#     Edge 76, Type (0, 1), BuildingBlock: KIFKEQ_clean_linker_1, # of connection points: 2
#     Edge 77, Type (0, 1), BuildingBlock: KIFKEQ_clean_linker_1, # of connection points: 2
#     Edge 78, Type (0, 1), BuildingBlock: KIFKEQ_clean_linker_1, # of connection points: 2
#     Edge 79, Type (0, 1), BuildingBlock: KIFKEQ_clean_linker_1, # of connection points: 2
#     Edge 80, Type (0, 1), BuildingBlock: KIFKEQ_clean_linker_1, # of connection points: 2
#     Edge 81, Type (0, 1), BuildingBlock: KIFKEQ_clean_linker_1, # of connection points: 2
#     Edge 82, Type (0, 1), BuildingBlock: KIFKEQ_clean_linker_1, # of connection points: 2
#     Edge 83, Type (0, 1), BuildingBlock: KIFKEQ_clean_linker_1, # of connection points: 2
#     Edge 84, Type (0, 1), BuildingBlock: KIFKEQ_clean_linker_1, # of connection points: 2
#     Edge 85, Type (0, 1), BuildingBlock: KIFKEQ_clean_linker_1, # of connection points: 2
#     Edge 86, Type (0, 1), BuildingBlock: KIFKEQ_clean_linker_1, # of connection points: 2
#     Edge 87, Type (0, 1), BuildingBlock: KIFKEQ_clean_linker_1, # of connection points: 2
#     Edge 88, Type (0, 1), BuildingBlock: KIFKEQ_clean_linker_1, # of connection points: 2
#     Edge 89, Type (0, 1), BuildingBlock: KIFKEQ_clean_linker_1, # of connection points: 2
#     Edge 90, Type (0, 1), BuildingBlock: KIFKEQ_clean_linker_1, # of connection points: 2
#     Edge 91, Type (0, 1), BuildingBlock: KIFKEQ_clean_linker_1, # of connection points: 2
#     Edge 92, Type (0, 1), BuildingBlock: KIFKEQ_clean_linker_1, # of connection points: 2
#     Edge 93, Type (0, 1), BuildingBlock: KIFKEQ_clean_linker_1, # of connection points: 2
#     Edge 94, Type (0, 1), BuildingBlock: KIFKEQ_clean_linker_1, # of connection points: 2
#     Edge 95, Type (0, 1), BuildingBlock: KIFKEQ_clean_linker_1, # of connection points: 2
#     Edge 96, Type (0, 1), BuildingBlock: KIFKEQ_clean_linker_1, # of connection points: 2
#     Edge 97, Type (0, 1), BuildingBlock: KIFKEQ_clean_linker_1, # of connection points: 2
#     Edge 98, Type (0, 1), BuildingBlock: KIFKEQ_clean_linker_1, # of connection points: 2
#     Edge 99, Type (0, 1), BuildingBlock: KIFKEQ_clean_linker_1, # of connection points: 2
#     Edge 100, Type (0, 1), BuildingBlock: KIFKEQ_clean_linker_1, # of connection points: 2
#     Edge 101, Type (0, 1), BuildingBlock: KIFKEQ_clean_linker_1, # of connection points: 2
#     Edge 102, Type (0, 1), BuildingBlock: KIFKEQ_clean_linker_1, # of connection points: 2
#     Edge 103, Type (0, 1), BuildingBlock: KIFKEQ_clean_linker_1, # of connection points: 2
#     Edge 104, Type (0, 1), BuildingBlock: KIFKEQ_clean_linker_1, # of connection points: 2
#     Edge 105, Type (0, 1), BuildingBlock: KIFKEQ_clean_linker_1, # of connection points: 2
#     Edge 106, Type (0, 1), BuildingBlock: KIFKEQ_clean_linker_1, # of connection points: 2
#     Edge 107, Type (0, 1), BuildingBlock: KIFKEQ_clean_linker_1, # of connection points: 2
#     Edge 108, Type (0, 1), BuildingBlock: KIFKEQ_clean_linker_1, # of connection points: 2
#     Edge 109, Type (0, 1), BuildingBlock: KIFKEQ_clean_linker_1, # of connection points: 2
#     Edge 110, Type (0, 1), BuildingBlock: KIFKEQ_clean_linker_1, # of connection points: 2
#     Edge 111, Type (0, 1), BuildingBlock: KIFKEQ_clean_linker_1, # of connection points: 2
#     Edge 112, Type (0, 1), BuildingBlock: KIFKEQ_clean_linker_1, # of connection points: 2
#     Edge 113, Type (0, 1), BuildingBlock: KIFKEQ_clean_linker_1, # of connection points: 2
#     Edge 114, Type (0, 1), BuildingBlock: KIFKEQ_clean_linker_1, # of connection points: 2
#     Edge 115, Type (0, 1), BuildingBlock: KIFKEQ_clean_linker_1, # of connection points: 2
#     Edge 116, Type (0, 1), BuildingBlock: KIFKEQ_clean_linker_1, # of connection points: 2
#     Edge 117, Type (0, 1), BuildingBlock: KIFKEQ_clean_linker_1, # of connection points: 2
#     Edge 118, Type (0, 1), BuildingBlock: KIFKEQ_clean_linker_1, # of connection points: 2
#     Edge 119, Type (0, 1), BuildingBlock: KIFKEQ_clean_linker_1, # of connection points: 2
#     Edge 120, Type (0, 1), BuildingBlock: KIFKEQ_clean_linker_1, # of connection points: 2
#     Edge 121, Type (0, 1), BuildingBlock: KIFKEQ_clean_linker_1, # of connection points: 2
#     Edge 122, Type (0, 1), BuildingBlock: KIFKEQ_clean_linker_1, # of connection points: 2
#     Edge 123, Type (0, 1), BuildingBlock: KIFKEQ_clean_linker_1, # of connection points: 2
# Relax obj value: 0.206
# Max RMSD: 0.314
# Mean RMSD: 0.271
data_MOF--net-tph--node1-OJICUG_clean_sbu_0--node2-TAGTUT_clean_sbu_1--edge1-KIFKEQ_clean_linker_1
_symmetry_space_group_name_H-M    P1
_symmetry_Int_Tables_number       1
_symmetry_cell_setting            triclinic
loop_
_symmetry_equiv_pos_as_xyz
'x, y, z'
_cell_length_a     48.645339
_cell_length_b     48.237571
_cell_length_c     47.86002
_cell_angle_alpha  90.211533
_cell_angle_beta   91.998488
_cell_angle_gamma 90.237329
loop_
_atom_site_label
_atom_site_type_symbol
_atom_site_fract_x
_atom_site_fract_y
_atom_site_fract_z
_atom_type_partial_charge
Sc0 Sc 0.16022 0.20629 0.18195 0.0
Sc1 Sc 0.20466 0.1514 0.18076 0.0
Sc2 Sc 0.19951 0.19638 0.12452 0.0
O3 O 0.18821 0.1842 0.16219 0.0
C4 C 0.14023 0.21213 0.11803 0.0
C5 C 0.13909 0.14757 0.19076 0.0
C6 C 0.19694 0.13023 0.11922 0.0
C7 C 0.19631 0.18307 0.23355 0.0
C8 C 0.19155 0.25299 0.16022 0.0
C9 C 0.2566 0.18052 0.15227 0.0
O10 O 0.14095 0.22222 0.14274 0.0
O11 O 0.16382 0.13888 0.19514 0.0
O12 O 0.20273 0.15364 0.10834 0.0
O13 O 0.17397 0.19342 0.22382 0.0
O14 O 0.19432 0.24091 0.13648 0.0
O15 O 0.24605 0.16149 0.16716 0.0
O16 O 0.1893 0.23896 0.18232 0.0
O17 O 0.21451 0.1745 0.21754 0.0
O18 O 0.24216 0.19722 0.13739 0.0
O19 O 0.1334 0.17162 0.18133 0.0
O20 O 0.15767 0.19451 0.11057 0.0
O21 O 0.19555 0.12677 0.1453 0.0
Sc22 Sc 0.43166 0.62289 0.05663 0.0
Sc23 Sc 0.39808 0.56055 0.06349 0.0
Sc24 Sc 0.4506 0.57892 0.11172 0.0
O25 O 0.42765 0.58711 0.07711 0.0
C26 C 0.49401 0.60636 0.06949 0.0
C27 C 0.42187 0.5758 0.00822 0.0
C28 C 0.44153 0.51801 0.09236 0.0
C29 C 0.3703 0.6181 0.04659 0.0
C30 C 0.43987 0.64331 0.11971 0.0
C31 C 0.38711 0.56678 0.12716 0.0
O32 O 0.47511 0.61716 0.05404 0.0
O33 O 0.41854 0.55581 0.02511 0.0
O34 O 0.45874 0.53673 0.09964 0.0
O35 O 0.38905 0.6313 0.0598 0.0
O36 O 0.44466 0.61909 0.12861 0.0
O37 O 0.37806 0.56661 0.10183 0.0
O38 O 0.4367 0.64869 0.09382 0.0
O39 O 0.37215 0.59211 0.04253 0.0
O40 O 0.41297 0.56724 0.13399 0.0
O41 O 0.42459 0.60106 0.01647 0.0
O42 O 0.48887 0.59228 0.09152 0.0
O43 O 0.41809 0.52387 0.08126 0.0
Sc44 Sc 0.86264 0.29378 0.20897 0.0
Sc45 Sc 0.82323 0.30508 0.14796 0.0
Sc46 Sc 0.82065 0.35243 0.20217 0.0
O47 O 0.83552 0.31708 0.18671 0.0
C48 C 0.81982 0.31283 0.2546 0.0
C49 C 0.8304 0.24665 0.1779 0.0
C50 C 0.76796 0.3229 0.17062 0.0
C51 C 0.88644 0.29773 0.14724 0.0
C52 C 0.88378 0.35369 0.22512 0.0
C53 C 0.82307 0.37079 0.14111 0.0
O54 O 0.84041 0.2984 0.24752 0.0
O55 O 0.82729 0.26102 0.15585 0.0
O56 O 0.77916 0.34307 0.18443 0.0
O57 O 0.88792 0.28786 0.17208 0.0
O58 O 0.86049 0.36534 0.22078 0.0
O59 O 0.81625 0.34668 0.13268 0.0
O60 O 0.888 0.32828 0.22019 0.0
O61 O 0.86454 0.30751 0.13603 0.0
O62 O 0.83106 0.37573 0.16607 0.0
O63 O 0.83935 0.25692 0.20083 0.0
O64 O 0.80937 0.33192 0.23949 0.0
O65 O 0.78171 0.30357 0.15971 0.0
Sc66 Sc 0.61352 0.94816 0.07767 0.0
Sc67 Sc 0.57124 0.89309 0.05269 0.0
Sc68 Sc 0.5542 0.92949 0.11357 0.0
O69 O 0.57937 0.92392 0.08109 0.0
C70 C 0.61241 0.94142 0.14396 0.0
C71 C 0.6365 0.88831 0.06258 0.0
C72 C 0.56032 0.86358 0.11066 0.0
C73 C 0.59299 0.94044 0.01315 0.0
C74 C 0.56776 0.99219 0.09558 0.0
C75 C 0.50999 0.9112 0.06585 0.0
O76 O 0.62425 0.94788 0.12169 0.0
O77 O 0.61329 0.88065 0.05231 0.0
O78 O 0.55494 0.88607 0.12329 0.0
O79 O 0.6077 0.95158 0.03272 0.0
O80 O 0.55276 0.97393 0.10701 0.0
O81 O 0.52756 0.89992 0.05047 0.0
O82 O 0.58986 0.98609 0.08318 0.0
O83 O 0.57669 0.92023 0.01735 0.0
O84 O 0.51671 0.92419 0.08828 0.0
O85 O 0.64036 0.91217 0.07365 0.0
O86 O 0.58746 0.9338 0.14426 0.0
O87 O 0.56618 0.86251 0.085 0.0
Sc88 Sc 0.18933 0.85613 0.30783 0.0
Sc89 Sc 0.14457 0.80209 0.31928 0.0
Sc90 Sc 0.20557 0.80843 0.35832 0.0
O91 O 0.17949 0.82215 0.32874 0.0
C92 C 0.2479 0.82755 0.31791 0.0
C93 C 0.16864 0.81933 0.2598 0.0
C94 C 0.18336 0.75198 0.32955 0.0
C95 C 0.12334 0.86041 0.30898 0.0
C96 C 0.20673 0.875 0.36588 0.0
C97 C 0.15073 0.79806 0.38694 0.0
O98 O 0.23401 0.84953 0.31313 0.0
O99 O 0.14854 0.81045 0.27404 0.0
O100 O 0.19661 0.76448 0.34943 0.0
O101 O 0.14627 0.86736 0.29881 0.0
O102 O 0.21763 0.85123 0.37061 0.0
O103 O 0.13815 0.79177 0.3637 0.0
O104 O 0.18964 0.87916 0.34569 0.0
O105 O 0.12097 0.8391 0.32419 0.0
O106 O 0.17434 0.8094 0.38801 0.0
O107 O 0.18896 0.83261 0.27054 0.0
O108 O 0.23731 0.80647 0.32903 0.0
O109 O 0.16617 0.76423 0.31338 0.0
Sc110 Sc 0.06966 0.61568 0.94981 0.0
Sc111 Sc 0.0598 0.58468 0.88428 0.0
Sc112 Sc 0.1132 0.56262 0.92915 0.0
O113 O 0.08068 0.58745 0.92129 0.0
C114 C 0.1334 0.61957 0.95829 0.0
C115 C 0.06473 0.64909 0.89241 0.0
C116 C 0.12244 0.57731 0.86655 0.0
C117 C 0.01124 0.59741 0.9272 0.0
C118 C 0.08831 0.5633 0.98776 0.0
C119 C 0.0693 0.52209 0.89756 0.0
O120 O 0.11057 0.63173 0.95391 0.0
O121 O 0.06674 0.62772 0.87702 0.0
O122 O 0.13203 0.57579 0.89151 0.0
O123 O 0.0275 0.60184 0.94814 0.0
O124 O 0.09698 0.54889 0.96763 0.0
O125 O 0.05268 0.54121 0.8901 0.0
O126 O 0.07887 0.58779 0.98449 0.0
O127 O 0.01993 0.5934 0.90261 0.0
O128 O 0.09312 0.52715 0.9085 0.0
O129 O 0.06127 0.64774 0.91867 0.0
O130 O 0.137 0.59414 0.95218 0.0
O131 O 0.09669 0.57643 0.86043 0.0
Sc132 Sc 0.8571 0.69112 0.30108 0.0
Sc133 Sc 0.79995 0.64904 0.29831 0.0
Sc134 Sc 0.80713 0.69906 0.35012 0.0
O135 O 0.82113 0.68024 0.31629 0.0
C136 C 0.86911 0.69533 0.36649 0.0
C137 C 0.86131 0.62822 0.29423 0.0
C138 C 0.79559 0.63492 0.36064 0.0
C139 C 0.81865 0.67978 0.2465 0.0
C140 C 0.83571 0.7486 0.31637 0.0
C141 C 0.75211 0.68911 0.32002 0.0
O142 O 0.87612 0.69975 0.34156 0.0
O143 O 0.83646 0.62685 0.28501 0.0
O144 O 0.79107 0.66026 0.36681 0.0
O145 O 0.84217 0.6839 0.25848 0.0
O146 O 0.8232 0.73946 0.33755 0.0
O147 O 0.76049 0.666 0.31046 0.0
O148 O 0.84448 0.7329 0.29736 0.0
O149 O 0.79798 0.671 0.25956 0.0
O150 O 0.76864 0.70773 0.32911 0.0
O151 O 0.87152 0.64987 0.30541 0.0
O152 O 0.84445 0.69076 0.37295 0.0
O153 O 0.80282 0.62707 0.33664 0.0
Sc154 Sc 0.95277 0.93084 0.88858 0.0
Sc155 Sc 0.89244 0.95348 0.91968 0.0
Sc156 Sc 0.92606 0.89387 0.94404 0.0
O157 O 0.92395 0.92654 0.91778 0.0
C158 C 0.94027 0.86602 0.88721 0.0
C159 C 0.89832 0.94398 0.85378 0.0
C160 C 0.86094 0.89803 0.93321 0.0
C161 C 0.94014 0.99449 0.90349 0.0
C162 C 0.99015 0.91022 0.93795 0.0
C163 C 0.90962 0.94197 0.98481 0.0
O164 O 0.95499 0.88672 0.88066 0.0
O165 O 0.88622 0.95418 0.87466 0.0
O166 O 0.88211 0.8874 0.94511 0.0
O167 O 0.95385 0.97569 0.89158 0.0
O168 O 0.97089 0.89488 0.9468 0.0
O169 O 0.89605 0.95472 0.96538 0.0
O170 O 0.98592 0.92852 0.91927 0.0
O171 O 0.91892 0.98929 0.91744 0.0
O172 O 0.92437 0.92072 0.98013 0.0
O173 O 0.92185 0.9327 0.85561 0.0
O174 O 0.92588 0.86575 0.90886 0.0
O175 O 0.86173 0.92096 0.92034 0.0
Sc176 Sc 0.39097 0.44989 0.42219 0.0
Sc177 Sc 0.43041 0.39208 0.44269 0.0
Sc178 Sc 0.44861 0.43158 0.38428 0.0
O179 O 0.42374 0.42487 0.41686 0.0
C180 C 0.3893 0.44219 0.35661 0.0
C181 C 0.36497 0.39081 0.43602 0.0
C182 C 0.43893 0.36649 0.38198 0.0
C183 C 0.41244 0.4408 0.48494 0.0
C184 C 0.43743 0.49297 0.40173 0.0
C185 C 0.49196 0.41031 0.43175 0.0
O186 O 0.37726 0.44375 0.37967 0.0
O187 O 0.38814 0.37904 0.43932 0.0
O188 O 0.44281 0.38976 0.37048 0.0
O189 O 0.40186 0.45631 0.46589 0.0
O190 O 0.45473 0.47472 0.39467 0.0
O191 O 0.47402 0.4007 0.44792 0.0
O192 O 0.41384 0.48679 0.41087 0.0
O193 O 0.42288 0.41713 0.47971 0.0
O194 O 0.48563 0.42115 0.4082 0.0
O195 O 0.3627 0.41676 0.43216 0.0
O196 O 0.41529 0.44152 0.35507 0.0
O197 O 0.43668 0.36346 0.40823 0.0
Sc198 Sc 0.36321 0.79148 0.71216 0.0
Sc199 Sc 0.32767 0.808 0.65008 0.0
Sc200 Sc 0.32239 0.85104 0.70805 0.0
O201 O 0.33772 0.81699 0.69026 0.0
C202 C 0.32066 0.80918 0.7583 0.0
C203 C 0.32986 0.74778 0.67803 0.0
C204 C 0.27072 0.82502 0.67205 0.0
C205 C 0.38973 0.79558 0.65185 0.0
C206 C 0.38582 0.84997 0.73087 0.0
C207 C 0.32846 0.87446 0.64822 0.0
O208 O 0.34156 0.79548 0.75101 0.0
O209 O 0.329 0.76315 0.65642 0.0
O210 O 0.28129 0.84287 0.68924 0.0
O211 O 0.38869 0.7842 0.67586 0.0
O212 O 0.36254 0.86206 0.72757 0.0
O213 O 0.32444 0.85086 0.63686 0.0
O214 O 0.38976 0.82477 0.72446 0.0
O215 O 0.36988 0.80891 0.64064 0.0
O216 O 0.33254 0.87743 0.67432 0.0
O217 O 0.33769 0.75673 0.70193 0.0
O218 O 0.31007 0.82842 0.74363 0.0
O219 O 0.28501 0.80797 0.6584 0.0
Sc220 Sc 0.11294 0.45347 0.5762 0.0
Sc221 Sc 0.07401 0.39544 0.55215 0.0
Sc222 Sc 0.05419 0.43279 0.6117 0.0
O223 O 0.08007 0.42754 0.57972 0.0
C224 C 0.11159 0.44671 0.64257 0.0
C225 C 0.13926 0.39456 0.56306 0.0
C226 C 0.06214 0.36687 0.61027 0.0
C227 C 0.09417 0.44298 0.51152 0.0
C228 C 0.06607 0.49609 0.59373 0.0
C229 C 0.01165 0.41247 0.56335 0.0
O230 O 0.12314 0.45417 0.62041 0.0
O231 O 0.11686 0.38444 0.55312 0.0
O232 O 0.0554 0.38942 0.62201 0.0
O233 O 0.10753 0.45578 0.53105 0.0
O234 O 0.0518 0.4774 0.60544 0.0
O235 O 0.02988 0.40075 0.549 0.0
O236 O 0.08794 0.49051 0.58079 0.0
O237 O 0.07925 0.42177 0.51606 0.0
O238 O 0.01757 0.42659 0.58533 0.0
O239 O 0.1413 0.41892 0.57326 0.0
O240 O 0.08707 0.43771 0.64269 0.0
O241 O 0.06932 0.3655 0.58503 0.0
Sc242 Sc 0.9308 0.12288 0.55609 0.0
Sc243 Sc 0.89463 0.06296 0.56845 0.0
Sc244 Sc 0.94945 0.08177 0.61317 0.0
O245 O 0.92594 0.08867 0.57874 0.0
C246 C 0.99251 0.10658 0.56878 0.0
C247 C 0.916 0.07389 0.51082 0.0
C248 C 0.93962 0.02103 0.59629 0.0
C249 C 0.86884 0.12073 0.54933 0.0
C250 C 0.93845 0.146 0.61783 0.0
C251 C 0.88758 0.07169 0.63214 0.0
O252 O 0.97362 0.11479 0.55173 0.0
O253 O 0.91217 0.05493 0.52882 0.0
O254 O 0.95769 0.03974 0.60097 0.0
O255 O 0.88888 0.13368 0.56067 0.0
O256 O 0.94107 0.12218 0.62857 0.0
O257 O 0.87684 0.07284 0.60752 0.0
O258 O 0.93893 0.15029 0.59165 0.0
O259 O 0.86903 0.09444 0.54705 0.0
O260 O 0.91352 0.06891 0.63705 0.0
O261 O 0.92082 0.09923 0.51772 0.0
O262 O 0.98725 0.09563 0.59247 0.0
O263 O 0.91524 0.02684 0.58742 0.0
Sc264 Sc 0.70395 0.69428 0.62794 0.0
Sc265 Sc 0.65866 0.70097 0.68095 0.0
Sc266 Sc 0.7079 0.65056 0.68521 0.0
O267 O 0.69063 0.68192 0.66456 0.0
C268 C 0.70405 0.62792 0.62394 0.0
C269 C 0.64396 0.7068 0.61601 0.0
C270 C 0.64295 0.64076 0.68867 0.0
C271 C 0.69189 0.75038 0.66353 0.0
C272 C 0.75998 0.68123 0.6597 0.0
C273 C 0.69295 0.6819 0.73555 0.0
O274 O 0.70902 0.6514 0.61269 0.0
O275 O 0.64157 0.7161 0.64073 0.0
O276 O 0.66745 0.63587 0.69803 0.0
O277 O 0.69736 0.73833 0.6403 0.0
O278 O 0.74949 0.66171 0.67384 0.0
O279 O 0.67016 0.68902 0.72386 0.0
O280 O 0.74562 0.69709 0.64389 0.0
O281 O 0.68301 0.73729 0.68439 0.0
O282 O 0.71341 0.67582 0.72123 0.0
O283 O 0.66357 0.69116 0.60983 0.0
O284 O 0.70232 0.62473 0.65005 0.0
O285 O 0.63604 0.6633 0.67666 0.0
Sc286 Sc 0.69067 0.35479 0.80921 0.0
Sc287 Sc 0.64555 0.30045 0.81689 0.0
Sc288 Sc 0.70153 0.30837 0.8625 0.0
O289 O 0.67907 0.32126 0.82966 0.0
C290 C 0.74816 0.32532 0.82522 0.0
C291 C 0.67335 0.31826 0.75977 0.0
C292 C 0.68316 0.25143 0.83185 0.0
C293 C 0.62433 0.35883 0.80608 0.0
C294 C 0.70368 0.37502 0.86815 0.0
C295 C 0.6444 0.29744 0.88423 0.0
O296 O 0.73493 0.34708 0.81768 0.0
O297 O 0.65221 0.30958 0.77239 0.0
O298 O 0.69274 0.26415 0.85364 0.0
O299 O 0.64793 0.36621 0.79758 0.0
O300 O 0.7133 0.35115 0.8748 0.0
O301 O 0.63579 0.28887 0.86009 0.0
O302 O 0.68854 0.37881 0.8464 0.0
O303 O 0.62098 0.33692 0.82022 0.0
O304 O 0.66664 0.311 0.88796 0.0
O305 O 0.69308 0.33101 0.77217 0.0
O306 O 0.73669 0.30536 0.83753 0.0
O307 O 0.66915 0.26364 0.81275 0.0
Sc308 Sc 0.57249 0.11801 0.45097 0.0
Sc309 Sc 0.55877 0.08151 0.38866 0.0
Sc310 Sc 0.6106 0.05953 0.4359 0.0
O311 O 0.58029 0.08619 0.42515 0.0
C312 C 0.63552 0.11704 0.4593 0.0
C313 C 0.56515 0.14677 0.39144 0.0
C314 C 0.62203 0.07082 0.37258 0.0
C315 C 0.51223 0.09924 0.43251 0.0
C316 C 0.58714 0.06801 0.4934 0.0
C317 C 0.56686 0.01892 0.40484 0.0
O318 O 0.61459 0.13112 0.4517 0.0
O319 O 0.56509 0.12411 0.37785 0.0
O320 O 0.63063 0.06819 0.39786 0.0
O321 O 0.52967 0.10698 0.45149 0.0
O322 O 0.59188 0.05024 0.47455 0.0
O323 O 0.55092 0.038 0.39589 0.0
O324 O 0.58156 0.09325 0.4879 0.0
O325 O 0.51943 0.09111 0.40827 0.0
O326 O 0.58996 0.02401 0.41706 0.0
O327 O 0.56448 0.14773 0.41794 0.0
O328 O 0.63602 0.09073 0.45737 0.0
O329 O 0.59638 0.07267 0.36567 0.0
Sc330 Sc 0.3629 0.18977 0.79704 0.0
Sc331 Sc 0.30283 0.15082 0.79597 0.0
Sc332 Sc 0.31799 0.19591 0.85145 0.0
O333 O 0.32759 0.17921 0.81464 0.0
C334 C 0.38082 0.18827 0.86124 0.0
C335 C 0.36273 0.12661 0.78645 0.0
C336 C 0.30114 0.13222 0.8581 0.0
C337 C 0.32097 0.18343 0.74434 0.0
C338 C 0.34546 0.24688 0.81866 0.0
C339 C 0.25983 0.19314 0.82353 0.0
O340 O 0.38574 0.19426 0.83611 0.0
O341 O 0.33691 0.12601 0.78087 0.0
O342 O 0.3015 0.1571 0.86724 0.0
O343 O 0.34495 0.18683 0.75532 0.0
O344 O 0.33433 0.23661 0.84014 0.0
O345 O 0.26556 0.17122 0.80984 0.0
O346 O 0.35262 0.23234 0.79803 0.0
O347 O 0.30091 0.17424 0.75799 0.0
O348 O 0.27818 0.20791 0.83595 0.0
O349 O 0.37527 0.14776 0.79613 0.0
O350 O 0.35674 0.18421 0.86969 0.0
O351 O 0.30442 0.126 0.83267 0.0
C352 C 0.98093 0.27352 0.97046 0.0
C353 C 0.05872 0.27088 0.93886 0.0
C354 C 0.01776 0.32431 0.84896 0.0
Mg355 Mg 0.00843 0.23564 0.92689 0.0
O356 O 0.99307 0.26137 0.90239 0.0
Mg357 Mg 1.00168 0.30156 0.91029 0.0
Mg358 Mg 0.00465 0.25873 0.86287 0.0
O359 O 0.01564 0.25641 0.82357 0.0
Mg360 Mg 1.00205 0.2831 0.79875 0.0
Mg361 Mg 0.00733 0.21632 0.81523 0.0
C362 C 0.99001 0.19387 0.8781 0.0
C363 C 0.06029 0.22162 0.85816 0.0
O364 O 0.9835 0.29447 0.95413 0.0
O365 O 0.98826 0.24896 0.96376 0.0
O366 O 0.04379 0.29204 0.93299 0.0
O367 O 0.05068 0.24636 0.93271 0.0
O368 O 0.99659 0.19844 0.90392 0.0
O369 O 0.98914 0.21344 0.85977 0.0
C370 C 0.94905 0.29627 0.86558 0.0
O371 O 0.96205 0.27713 0.85285 0.0
O372 O 0.95945 0.30842 0.8875 0.0
O373 O 0.02756 0.22397 0.77174 0.0
O374 O 0.0263 0.27036 0.76503 0.0
O375 O 0.96583 0.22641 0.79301 0.0
C376 C 0.03304 0.24586 0.75758 0.0
O377 O 0.9609 0.27187 0.78581 0.0
O378 O 0.01126 0.32069 0.82293 0.0
C379 C 0.95206 0.247 0.78327 0.0
O380 O 0.01951 0.30383 0.86606 0.0
O381 O 0.04831 0.24084 0.87187 0.0
O382 O 0.04853 0.20932 0.83719 0.0
C383 C 0.47618 0.76897 0.47052 0.0
C384 C 0.55378 0.76589 0.43877 0.0
C385 C 0.51857 0.82232 0.35105 0.0
Mg386 Mg 0.50317 0.73212 0.42544 0.0
O387 O 0.48771 0.75882 0.40201 0.0
Mg388 Mg 0.49732 0.79853 0.41138 0.0
Mg389 Mg 0.50005 0.75707 0.36265 0.0
O390 O 0.51192 0.75547 0.32358 0.0
Mg391 Mg 0.50302 0.78381 0.29868 0.0
Mg392 Mg 0.50123 0.71637 0.31362 0.0
C393 C 0.48359 0.69249 0.37528 0.0
C394 C 0.55368 0.71697 0.35738 0.0
O395 O 0.47805 0.79037 0.45462 0.0
O396 O 0.4841 0.74479 0.46313 0.0
O397 O 0.53887 0.78732 0.43413 0.0
O398 O 0.5457 0.74176 0.43125 0.0
O399 O 0.49062 0.69586 0.40118 0.0
O400 O 0.48259 0.71279 0.35778 0.0
C401 C 0.44582 0.79652 0.36534 0.0
O402 O 0.4587 0.77752 0.35231 0.0
O403 O 0.45575 0.80745 0.3881 0.0
O404 O 0.52268 0.72333 0.27083 0.0
O405 O 0.52813 0.7696 0.2662 0.0
O406 O 0.46101 0.73048 0.29114 0.0
C407 C 0.53175 0.74467 0.25791 0.0
O408 O 0.46181 0.77616 0.28292 0.0
O409 O 0.51464 0.81981 0.32446 0.0
C410 C 0.45014 0.75244 0.28064 0.0
O411 O 0.51628 0.80157 0.36765 0.0
O412 O 0.54283 0.73652 0.3717 0.0
O413 O 0.54127 0.70622 0.3359 0.0
C414 C 0.98274 0.74003 0.53703 0.0
C415 C 0.06326 0.75418 0.56656 0.0
C416 C 0.03166 0.69433 0.65672 0.0
Mg417 Mg 0.00926 0.78282 0.57798 0.0
O418 O 1.00102 0.75579 0.60378 0.0
Mg419 Mg 0.01249 0.71659 0.59635 0.0
Mg420 Mg 0.01418 0.75957 0.64331 0.0
O421 O 0.02642 0.76258 0.68297 0.0
Mg422 Mg 0.0148 0.73437 0.70657 0.0
Mg423 Mg 0.01488 0.80184 0.69092 0.0
C424 C 0.99191 0.82297 0.62715 0.0
C425 C 0.06691 0.80112 0.64985 0.0
O426 O 0.99046 0.72074 0.55383 0.0
O427 O 0.98689 0.76579 0.54238 0.0
O428 O 0.0523 0.73113 0.57383 0.0
O429 O 0.0516 0.77743 0.57056 0.0
O430 O 0.99565 0.81878 0.60105 0.0
O431 O 0.99561 0.80367 0.64556 0.0
C432 C 0.9615 0.71778 0.63932 0.0
O433 O 0.97338 0.7382 0.65213 0.0
O434 O 0.97228 0.70584 0.61832 0.0
O435 O 0.03562 0.79544 0.73568 0.0
O436 O 0.0382 0.74902 0.74208 0.0
O437 O 0.97455 0.78845 0.71088 0.0
C438 C 0.04277 0.77403 0.75019 0.0
O439 O 0.97304 0.74267 0.7176 0.0
O440 O 0.02537 0.697 0.68249 0.0
C441 C 0.96251 0.76676 0.7199 0.0
O442 O 0.03254 0.71551 0.64046 0.0
O443 O 0.05561 0.78129 0.63543 0.0
O444 O 0.05527 0.81204 0.67084 0.0
C445 C 0.97 0.03757 0.23316 0.0
C446 C 0.94834 0.9543 0.24834 0.0
C447 C 0.85583 0.9784 0.18394 0.0
Mg448 Mg 0.93139 0.00892 0.27446 0.0
O449 O 0.90554 0.01497 0.24577 0.0
Mg450 Mg 0.91466 0.0021 0.20731 0.0
Mg451 Mg 0.86802 0.99872 0.24864 0.0
O452 O 0.83036 0.98346 0.25135 0.0
Mg453 Mg 0.80397 0.98873 0.22287 0.0
Mg454 Mg 0.82122 0.99446 0.29039 0.0
C455 C 0.8808 0.02365 0.31213 0.0
C456 C 0.869 0.94762 0.29249 0.0
O457 O 0.95513 0.02778 0.21265 0.0
O458 O 0.96405 0.03384 0.25876 0.0
O459 O 0.94052 0.96415 0.22445 0.0
O460 O 0.94345 0.96672 0.27116 0.0
O461 O 0.90682 0.02142 0.30916 0.0
O462 O 0.86308 0.01879 0.29203 0.0
C463 C 0.86605 0.0489 0.20391 0.0
O464 O 0.85457 0.03702 0.22447 0.0
O465 O 0.88857 0.03989 0.19393 0.0
O466 O 0.78023 0.96819 0.28307 0.0
O467 O 0.77688 0.95764 0.23706 0.0
O468 O 0.79504 0.03183 0.27665 0.0
C469 C 0.7684 0.9556 0.26201 0.0
O470 O 0.7812 0.02638 0.23189 0.0
O471 O 0.82979 0.98206 0.18645 0.0
C472 C 0.78021 0.03912 0.25535 0.0
O473 O 0.8727 0.97885 0.20534 0.0
O474 O 0.88126 0.95932 0.27229 0.0
O475 O 0.84684 0.95727 0.30231 0.0
C476 C 0.26062 0.96344 0.97101 0.0
C477 C 0.21252 0.94443 0.03843 0.0
C478 C 0.18478 0.84978 0.98484 0.0
Mg479 Mg 0.26942 0.92565 0.02307 0.0
O480 O 0.25487 0.89961 -0.00199 0.0
Mg481 Mg 0.21894 0.90813 0.97808 0.0
Mg482 Mg 0.24803 0.86115 0.01097 0.0
O483 O 0.24118 0.82279 0.02293 0.0
Mg484 Mg 0.22414 0.79836 0.9977 0.0
Mg485 Mg 0.27827 0.81353 0.0396 0.0
C486 C 0.30933 0.87501 0.03829 0.0
C487 C 0.24544 0.85699 0.0785 0.0
O488 O 0.23982 0.94854 0.96286 0.0
O489 O 0.27554 0.95777 0.99284 0.0
O490 O 0.2039 0.93504 0.01465 0.0
O491 O 0.23666 0.93926 0.04827 0.0
O492 O 0.30336 0.90088 0.03993 0.0
O493 O 0.29335 0.85731 0.02549 0.0
C494 C 0.25035 0.85997 0.94319 0.0
O495 O 0.25757 0.84858 0.96639 0.0
O496 O 0.23578 0.88206 0.94233 0.0
O497 O 0.25936 0.77037 0.05193 0.0
O498 O 0.21914 0.7662 0.02721 0.0
O499 O 0.29166 0.7905 0.00016 0.0
C500 C 0.23683 0.75736 0.04548 0.0
O501 O 0.25524 0.78152 0.97158 0.0
O502 O 0.18893 0.82351 0.98318 0.0
C503 C 0.28074 0.7787 0.9784 0.0
O504 O 0.2031 0.86621 0.99572 0.0
O505 O 0.2378 0.87122 0.0569 0.0
O506 O 0.26125 0.83587 0.07679 0.0
C507 C 0.03802 0.53283 0.26196 0.0
C508 C 0.06263 0.45112 0.25469 0.0
C509 C 0.15421 0.48029 0.31449 0.0
Mg510 Mg 0.0784 0.5028 0.2235 0.0
O511 O 0.10381 0.51368 0.25102 0.0
Mg512 Mg 0.09536 0.50368 0.29052 0.0
Mg513 Mg 0.14185 0.49859 0.24874 0.0
O514 O 0.17977 0.48448 0.24673 0.0
Mg515 Mg 0.20589 0.49072 0.27542 0.0
Mg516 Mg 0.1886 0.49503 0.20745 0.0
C517 C 0.12822 0.5164 0.18436 0.0
C518 C 0.14324 0.44571 0.20538 0.0
O519 O 0.0539 0.52731 0.2833 0.0
O520 O 0.04394 0.52616 0.23694 0.0
O521 O 0.07019 0.46374 0.27735 0.0
O522 O 0.0683 0.46078 0.23083 0.0
O523 O 0.10252 0.51179 0.18759 0.0
O524 O 0.14604 0.51694 0.2049 0.0
C525 C 0.1427 0.55254 0.2903 0.0
O526 O 0.1544 0.53929 0.2707 0.0
O527 O 0.12053 0.54349 0.30106 0.0
O528 O 0.22938 0.46987 0.21411 0.0
O529 O 0.23375 0.46064 0.26033 0.0
O530 O 0.21382 0.53339 0.22154 0.0
C531 C 0.24135 0.45775 0.2351 0.0
O532 O 0.22701 0.52928 0.26662 0.0
O533 O 0.18035 0.48362 0.31218 0.0
C534 C 0.22806 0.54161 0.24304 0.0
O535 O 0.13756 0.48115 0.293 0.0
O536 O 0.13039 0.45649 0.22591 0.0
O537 O 0.16456 0.45707 0.1955 0.0
C538 C 0.76852 0.54179 0.03417 0.0
C539 C 0.75703 0.5586 0.94879 0.0
C540 C 0.81644 0.6517 0.96934 0.0
Mg541 Mg 0.72767 0.57876 -0.0003 0.0
O542 O 0.75481 0.60509 0.00744 0.0
Mg543 Mg 0.79373 0.59534 -0.00141 0.0
Mg544 Mg 0.75201 0.64244 0.98991 0.0
O545 O 0.75012 0.67991 0.97347 0.0
Mg546 Mg 0.77914 0.70454 0.98136 0.0
Mg547 Mg 0.71204 0.69097 0.98348 0.0
C548 C 0.6887 0.63082 0.0107 0.0
C549 C 0.71015 0.64252 0.93592 0.0
O550 O 0.7885 0.55709 0.02651 0.0
O551 O 0.74336 0.5462 0.02665 0.0
O552 O 0.77964 0.56666 0.96092 0.0
O553 O 0.73367 0.56525 0.95799 0.0
O554 O 0.69232 0.60453 0.00854 0.0
O555 O 0.70848 0.64851 0.00756 0.0
C556 C 0.79359 0.64609 0.04383 0.0
O557 O 0.77365 0.65703 0.02973 0.0
O558 O 0.80479 0.62336 0.03623 0.0
O559 O 0.72049 0.73267 0.95816 0.0
O560 O 0.76627 0.73483 0.95197 0.0
O561 O 0.72682 0.71594 0.0222 0.0
C562 C 0.74193 0.74427 0.94794 0.0
O563 O 0.77194 0.72498 0.02096 0.0
O564 O 0.81448 0.67815 0.9722 0.0
C565 C 0.74864 0.72774 0.03225 0.0
O566 O 0.79553 0.63563 0.97255 0.0
O567 O 0.72955 0.62927 0.94897 0.0
O568 O 0.70052 0.66544 0.94504 0.0
C569 C 0.27334 0.04183 0.53595 0.0
C570 C 0.25775 0.05673 0.45017 0.0
C571 C 0.31565 0.15279 0.47186 0.0
Mg572 Mg 0.22934 0.07624 0.50315 0.0
O573 O 0.2556 0.10399 0.50668 0.0
Mg574 Mg 0.29472 0.09567 0.49746 0.0
Mg575 Mg 0.25122 0.14121 0.48925 0.0
O576 O 0.24812 0.17882 0.47336 0.0
Mg577 Mg 0.27604 0.20385 0.48393 0.0
Mg578 Mg 0.20931 0.18842 0.48235 0.0
C579 C 0.18843 0.12764 0.51147 0.0
C580 C 0.21055 0.14021 0.43444 0.0
O581 O 0.29185 0.05686 0.52493 0.0
O582 O 0.24753 0.04643 0.53207 0.0
O583 O 0.28055 0.06705 0.45987 0.0
O584 O 0.23498 0.06044 0.4621 0.0
O585 O 0.19316 0.10142 0.51119 0.0
O586 O 0.20734 0.1458 0.50659 0.0
C587 C 0.29275 0.1461 0.54307 0.0
O588 O 0.27222 0.15614 0.52914 0.0
O589 O 0.30501 0.12397 0.5353 0.0
O590 O 0.21726 0.23026 0.457 0.0
O591 O 0.2635 0.23416 0.4546 0.0
O592 O 0.2212 0.21446 0.52132 0.0
C593 C 0.23912 0.24258 0.44854 0.0
O594 O 0.26627 0.22382 0.52301 0.0
O595 O 0.31297 0.17889 0.47674 0.0
C596 C 0.24219 0.2268 0.5325 0.0
O597 O 0.29485 0.13619 0.47199 0.0
O598 O 0.22993 0.12741 0.44795 0.0
O599 O 0.19991 0.16263 0.44355 0.0
C600 C 0.47202 0.53546 0.73281 0.0
C601 C 0.44904 0.45279 0.7455 0.0
C602 C 0.3571 0.48026 0.6827 0.0
Mg603 Mg 0.43302 0.50617 0.77344 0.0
O604 O 0.40729 0.51478 0.7452 0.0
Mg605 Mg 0.41582 0.50273 0.70632 0.0
Mg606 Mg 0.36945 0.49905 0.7477 0.0
O607 O 0.33152 0.48428 0.74999 0.0
Mg608 Mg 0.30551 0.49232 0.72161 0.0
Mg609 Mg 0.32291 0.49447 0.78943 0.0
C610 C 0.38303 0.52203 0.81155 0.0
C611 C 0.36989 0.44695 0.79052 0.0
O612 O 0.45606 0.52806 0.71213 0.0
O613 O 0.46714 0.52959 0.75826 0.0
O614 O 0.44188 0.46417 0.72213 0.0
O615 O 0.44317 0.46362 0.76884 0.0
O616 O 0.40894 0.51881 0.80852 0.0
O617 O 0.3651 0.51826 0.79141 0.0
C618 C 0.36789 0.55031 0.70395 0.0
O619 O 0.3563 0.53824 0.72434 0.0
O620 O 0.3902 0.54107 0.69377 0.0
O621 O 0.28134 0.46929 0.78141 0.0
O622 O 0.27687 0.46213 0.73476 0.0
O623 O 0.2977 0.53252 0.77711 0.0
C624 C 0.26883 0.45853 0.7597 0.0
O625 O 0.28448 0.53087 0.73199 0.0
O626 O 0.3312 0.48513 0.68495 0.0
C627 C 0.28368 0.54206 0.75626 0.0
O628 O 0.37375 0.47989 0.70423 0.0
O629 O 0.38225 0.4589 0.77054 0.0
O630 O 0.34781 0.4566 0.80048 0.0
C631 C 0.76022 0.46549 0.47291 0.0
C632 C 0.71362 0.44276 0.5396 0.0
C633 C 0.68561 0.3516 0.48275 0.0
Mg634 Mg 0.77023 0.42532 0.523 0.0
O635 O 0.75622 0.4004 0.49648 0.0
Mg636 Mg 0.71971 0.40929 0.47776 0.0
Mg637 Mg 0.74912 0.36182 0.50889 0.0
O638 O 0.74181 0.32351 0.52034 0.0
Mg639 Mg 0.72391 0.29951 0.49511 0.0
Mg640 Mg 0.77882 0.31362 0.53673 0.0
C641 C 0.8109 0.37471 0.53575 0.0
C642 C 0.74748 0.35734 0.57643 0.0
O643 O 0.74003 0.45026 0.4638 0.0
O644 O 0.77509 0.45933 0.49465 0.0
O645 O 0.70507 0.43483 0.51528 0.0
O646 O 0.73754 0.43655 0.54933 0.0
O647 O 0.80476 0.40046 0.53832 0.0
O648 O 0.79474 0.35726 0.52276 0.0
C649 C 0.75051 0.36195 0.44112 0.0
O650 O 0.75784 0.3499 0.46395 0.0
O651 O 0.73615 0.3842 0.441 0.0
O652 O 0.75898 0.27087 0.54896 0.0
O653 O 0.71832 0.26762 0.52486 0.0
O654 O 0.79139 0.29069 0.497 0.0
C655 C 0.73606 0.25839 0.54289 0.0
O656 O 0.75456 0.28185 0.46893 0.0
O657 O 0.68917 0.32532 0.48014 0.0
C658 C 0.78011 0.2789 0.47543 0.0
O659 O 0.70409 0.36726 0.49445 0.0
O660 O 0.73963 0.37166 0.55499 0.0
O661 O 0.76286 0.33596 0.5744 0.0
C662 C 0.53817 0.02876 0.76141 0.0
C663 C 0.56496 0.94778 0.75659 0.0
C664 C 0.6548 0.9806 0.81784 0.0
Mg665 Mg 0.58056 0.99905 0.72471 0.0
O666 O 0.60476 0.01138 0.75285 0.0
Mg667 Mg 0.59559 0.00179 0.7922 0.0
Mg668 Mg 0.64321 0.99723 0.75189 0.0
O669 O 0.68159 0.98397 0.75094 0.0
Mg670 Mg 0.70728 0.99174 0.77971 0.0
Mg671 Mg 0.6907 0.99372 0.71156 0.0
C672 C 0.63081 0.0149 0.68714 0.0
C673 C 0.64622 0.94371 0.70962 0.0
O674 O 0.55353 0.02413 0.78338 0.0
O675 O 0.54516 0.02175 0.7368 0.0
O676 O 0.57178 0.9611 0.77906 0.0
O677 O 0.57114 0.95687 0.73264 0.0
O678 O 0.60512 0.00951 0.68936 0.0
O679 O 0.64798 0.01514 0.70816 0.0
C680 C 0.64185 0.05174 0.79266 0.0
O681 O 0.65441 0.0385 0.77362 0.0
O682 O 0.6195 0.04238 0.8028 0.0
O683 O 0.73186 0.9695 0.71963 0.0
O684 O 0.73594 0.96161 0.7661 0.0
O685 O 0.71479 0.03268 0.7246 0.0
C686 C 0.74395 0.95824 0.74107 0.0
O687 O 0.72795 0.03055 0.76976 0.0
O688 O 0.68089 0.98481 0.81596 0.0
C689 C 0.72876 0.04205 0.74572 0.0
O690 O 0.63846 0.98042 0.79609 0.0
O691 O 0.63283 0.95459 0.72967 0.0
O692 O 0.66759 0.95522 0.70004 0.0
C693 C 0.48878 0.23489 0.03202 0.0
C694 C 0.56624 0.24858 0.06634 0.0
C695 C 0.53003 0.19045 0.15486 0.0
Mg696 Mg 0.51237 0.27789 0.07478 0.0
O697 O 0.50088 0.25119 0.09974 0.0
Mg698 Mg 0.51338 0.21203 0.09353 0.0
Mg699 Mg 0.51223 0.25524 0.1399 0.0
O700 O 0.52332 0.25874 0.17971 0.0
Mg701 Mg 0.51267 0.23083 0.20398 0.0
Mg702 Mg 0.51254 0.29816 0.18721 0.0
C703 C 0.49181 0.31863 0.12253 0.0
C704 C 0.56485 0.29711 0.14693 0.0
O705 O 0.49443 0.21577 0.04978 0.0
O706 O 0.49295 0.26069 0.03732 0.0
O707 O 0.55416 0.22595 0.07295 0.0
O708 O 0.55545 0.27218 0.07067 0.0
O709 O 0.49757 0.31407 0.09691 0.0
O710 O 0.49352 0.29945 0.14134 0.0
C711 C 0.45979 0.21309 0.13342 0.0
O712 O 0.47081 0.23335 0.14736 0.0
O713 O 0.47196 0.20169 0.11295 0.0
O714 O 0.53375 0.29213 0.23198 0.0
O715 O 0.53724 0.24577 0.23834 0.0
O716 O 0.47226 0.28503 0.20743 0.0
C717 C 0.54171 0.27083 0.24626 0.0
O718 O 0.47141 0.23952 0.2161 0.0
O719 O 0.52331 0.19327 0.18048 0.0
C720 C 0.46064 0.26358 0.21752 0.0
O721 O 0.53101 0.21146 0.13844 0.0
O722 O 0.55389 0.27687 0.1329 0.0
O723 O 0.55288 0.30842 0.16745 0.0
H724 H 0.05339 0.3127 0.59389 0.0
H725 H 0.07414 0.36411 0.66571 0.0
H726 H 0.05359 0.27154 0.62419 0.0
H727 H 0.07481 0.32352 0.69545 0.0
H728 H 0.08627 0.25529 0.74683 0.0
H729 H 0.10024 0.27796 0.70407 0.0
H730 H 0.02105 0.2589 0.66505 0.0
H731 H 0.00738 0.23587 0.70773 0.0
C732 C 0.05833 0.31512 0.61601 0.0
C733 C 0.06336 0.3416 0.62757 0.0
C734 C 0.05856 0.29164 0.63324 0.0
C735 C 0.06465 0.29428 0.66206 0.0
C736 C 0.07063 0.32069 0.67324 0.0
C737 C 0.06982 0.34404 0.65627 0.0
C738 C 0.07265 0.25423 0.72844 0.0
C739 C 0.04582 0.24393 0.73043 0.0
C740 C 0.08048 0.26749 0.70408 0.0
C741 C 0.06142 0.27083 0.6816 0.0
C742 C 0.03615 0.25665 0.68205 0.0
C743 C 0.02837 0.24326 0.70644 0.0
H744 H 0.6279 0.76044 0.60761 0.0
H745 H 0.62467 0.67887 0.57043 0.0
H746 H 0.61207 0.78059 0.56307 0.0
H747 H 0.60737 0.69841 0.52662 0.0
H748 H 0.6001 0.73445 0.44434 0.0
H749 H 0.62347 0.72337 0.48874 0.0
H750 H 0.57595 0.78616 0.52977 0.0
H751 H 0.5541 0.79829 0.48517 0.0
C752 C 0.62294 0.74679 0.59013 0.0
C753 C 0.62752 0.71815 0.59234 0.0
C754 C 0.61407 0.75829 0.56453 0.0
C755 C 0.60924 0.74126 0.54086 0.0
C756 C 0.61199 0.71238 0.54392 0.0
C757 C 0.62132 0.70104 0.56922 0.0
C758 C 0.59569 0.74672 0.46265 0.0
C759 C 0.57517 0.76704 0.46133 0.0
C760 C 0.60859 0.74001 0.48825 0.0
C761 C 0.60069 0.753 0.51314 0.0
C762 C 0.58247 0.77552 0.5112 0.0
C763 C 0.57005 0.78266 0.48546 0.0
H764 H 0.96358 0.19613 0.62891 0.0
H765 H 0.89406 0.14523 0.64926 0.0
H766 H 0.9535 0.22736 0.66772 0.0
H767 H 0.88318 0.17673 0.68719 0.0
H768 H 0.92101 0.20008 0.77666 0.0
H769 H 0.90785 0.18089 0.73129 0.0
H770 H 0.92404 0.25987 0.69274 0.0
H771 H 0.93737 0.2791 0.73833 0.0
C772 C 0.94562 0.19226 0.6411 0.0
C773 C 0.92985 0.16823 0.63661 0.0
C774 C 0.93963 0.21018 0.66318 0.0
C775 C 0.91764 0.20434 0.68078 0.0
C776 C 0.90048 0.18157 0.67438 0.0
C777 C 0.90669 0.16357 0.65269 0.0
C778 C 0.92037 0.21378 0.75875 0.0
C779 C 0.93114 0.24077 0.76098 0.0
C780 C 0.91291 0.20275 0.73257 0.0
C781 C 0.91593 0.21862 0.70823 0.0
C782 C 0.92229 0.24694 0.71105 0.0
C783 C 0.92954 0.25805 0.73732 0.0
H784 H 0.42215 0.83391 0.62856 0.0
H785 H 0.40681 0.74598 0.63261 0.0
H786 H 0.44816 0.82729 0.58642 0.0
H787 H 0.43156 0.7392 0.58968 0.0
H788 H 0.48452 0.73388 0.51448 0.0
H789 H 0.47118 0.74021 0.56252 0.0
H790 H 0.43287 0.81807 0.53989 0.0
H791 H 0.44727 0.81224 0.49202 0.0
C792 C 0.42528 0.81303 0.62088 0.0
C793 C 0.41282 0.7904 0.63377 0.0
C794 C 0.43968 0.80925 0.59648 0.0
C795 C 0.44127 0.78283 0.58416 0.0
C796 C 0.43086 0.75985 0.59857 0.0
C797 C 0.41683 0.76362 0.6233 0.0
C798 C 0.47316 0.75234 0.51972 0.0
C799 C 0.46673 0.77249 0.49934 0.0
C800 C 0.46555 0.75596 0.54733 0.0
C801 C 0.45107 0.77969 0.55522 0.0
C802 C 0.44459 0.79982 0.53478 0.0
C803 C 0.45252 0.79636 0.50721 0.0
H804 H 0.09123 0.66008 0.84504 0.0
H805 H 0.04495 0.69984 0.90923 0.0
H806 H 0.09259 0.70288 0.81935 0.0
H807 H 0.04653 0.74363 0.88322 0.0
H808 H 0.01186 0.78008 0.79507 0.0
H809 H 0.02338 0.75756 0.83923 0.0
H810 H 0.10774 0.74997 0.81491 0.0
H811 H 0.09556 0.77121 0.77001 0.0
C812 C 0.08159 0.67817 0.85386 0.0
C813 C 0.06744 0.67642 0.87885 0.0
C814 C 0.08282 0.70301 0.83933 0.0
C815 C 0.06983 0.72691 0.84926 0.0
C816 C 0.05675 0.72559 0.87502 0.0
C817 C 0.05578 0.70056 0.88985 0.0
C818 C 0.03323 0.7752 0.79996 0.0
C819 C 0.05282 0.77704 0.7792 0.0
C820 C 0.03986 0.76212 0.8253 0.0
C821 C 0.06625 0.75095 0.8301 0.0
C822 C 0.087 0.75759 0.81139 0.0
C823 C 0.0802 0.77015 0.78583 0.0
H824 H 0.86644 0.67379 0.41859 0.0
H825 H 0.91842 0.72241 0.36579 0.0
H826 H 0.89766 0.68289 0.45833 0.0
H827 H 0.94987 0.73132 0.4058 0.0
H828 H 0.96625 0.7737 0.49379 0.0
H829 H 0.94279 0.75976 0.45008 0.0
H830 H 0.94602 0.6741 0.47593 0.0
H831 H 0.9691 0.68779 0.51967 0.0
C832 C 0.88476 0.68609 0.41542 0.0
C833 C 0.88991 0.69766 0.38926 0.0
C834 C 0.90269 0.6911 0.43809 0.0
C835 C 0.92598 0.70789 0.43499 0.0
C836 C 0.93185 0.71849 0.4086 0.0
C837 C 0.914 0.71325 0.38578 0.0
C838 C 0.96203 0.7519 0.49012 0.0
C839 C 0.96918 0.7319 0.51032 0.0
C840 C 0.94892 0.74392 0.46501 0.0
C841 C 0.94273 0.7159 0.45983 0.0
C842 C 0.95048 0.69586 0.47964 0.0
C843 C 0.96363 0.70377 0.50466 0.0
H844 H 0.89484 0.83432 0.87387 0.0
H845 H 0.97986 0.84681 0.85366 0.0
H846 H 0.88862 0.80332 0.8331 0.0
H847 H 0.97366 0.81557 0.81363 0.0
H848 H 0.95278 0.73413 0.76494 0.0
H849 H 0.9403 0.75282 0.8101 0.0
H850 H 0.91484 0.82905 0.77063 0.0
H851 H 0.92787 0.81081 0.72534 0.0
C852 C 0.91237 0.82972 0.86131 0.0
C853 C 0.93787 0.84294 0.86688 0.0
C854 C 0.90871 0.81217 0.83801 0.0
C855 C 0.93068 0.80728 0.82047 0.0
C856 C 0.9565 0.8191 0.82704 0.0
C857 C 0.96003 0.8369 0.8499 0.0
C858 C 0.94298 0.75424 0.76545 0.0
C859 C 0.942 0.7713 0.7416 0.0
C860 C 0.93594 0.76492 0.79145 0.0
C861 C 0.92695 0.79236 0.79367 0.0
C862 C 0.92168 0.80775 0.76927 0.0
C863 C 0.92906 0.79725 0.74333 0.0
H864 H 0.10273 0.76933 0.39746 0.0
H865 H 0.1736 0.80796 0.43877 0.0
H866 H 0.08662 0.75467 0.44312 0.0
H867 H 0.15824 0.79255 0.48348 0.0
H868 H 0.10117 0.79461 0.55849 0.0
H869 H 0.1236 0.80359 0.51491 0.0
H870 H 0.09611 0.7239 0.48294 0.0
H871 H 0.07299 0.71524 0.52661 0.0
C872 C 0.11483 0.77473 0.41613 0.0
C873 C 0.13932 0.79008 0.41425 0.0
C874 C 0.10584 0.766 0.44228 0.0
C875 C 0.1212 0.77236 0.46705 0.0
C876 C 0.14567 0.78756 0.46501 0.0
C877 C 0.15449 0.79639 0.43913 0.0
C878 C 0.10079 0.77855 0.54257 0.0
C879 C 0.08522 0.75429 0.54598 0.0
C880 C 0.11353 0.78374 0.51743 0.0
C881 C 0.11113 0.76473 0.49508 0.0
C882 C 0.09777 0.73927 0.49947 0.0
C883 C 0.08505 0.73403 0.52476 0.0
H884 H 0.67764 0.07164 0.3813 0.0
H885 H 0.61536 0.07248 0.31464 0.0
H886 H 0.71318 0.07174 0.34758 0.0
H887 H 0.6517 0.07319 0.28024 0.0
H888 H 0.72747 0.03004 0.23677 0.0
H889 H 0.68678 0.04297 0.26191 0.0
H890 H 0.73633 0.09824 0.31423 0.0
H891 H 0.77724 0.08408 0.28994 0.0
C892 C 0.67139 0.07211 0.35936 0.0
C893 C 0.64338 0.07188 0.35087 0.0
C894 C 0.69201 0.07256 0.33985 0.0
C895 C 0.68553 0.07291 0.311 0.0
C896 C 0.65752 0.07293 0.30228 0.0
C897 C 0.63666 0.07255 0.32201 0.0
C898 C 0.72949 0.04596 0.25274 0.0
C899 C 0.75568 0.05594 0.26146 0.0
C900 C 0.70606 0.05325 0.26737 0.0
C901 C 0.70829 0.07101 0.29076 0.0
C902 C 0.73393 0.08377 0.29695 0.0
C903 C 0.75739 0.07607 0.2827 0.0
H904 H 0.3256 0.08209 0.85734 0.0
H905 H 0.26679 0.13042 0.90213 0.0
H906 H 0.31631 0.04211 0.88675 0.0
H907 H 0.25694 0.08986 0.93124 0.0
H908 H 0.22524 0.99545 0.93977 0.0
H909 H 0.23588 0.03846 0.91522 0.0
H910 H 0.32105 0.0315 0.9425 0.0
H911 H 0.31046 0.98886 0.96755 0.0
C912 C 0.31077 0.08413 0.8736 0.0
C913 C 0.29682 0.1092 0.87752 0.0
C914 C 0.30557 0.06135 0.89042 0.0
C915 C 0.28589 0.06306 0.91105 0.0
C916 C 0.27215 0.08819 0.91532 0.0
C917 C 0.27786 0.1113 0.89887 0.0
C918 C 0.24623 0.0031 0.94047 0.0
C919 C 0.26708 0.98877 0.95538 0.0
C920 C 0.25221 0.02778 0.92672 0.0
C921 C 0.2792 0.03817 0.92723 0.0
C922 C 0.30007 0.02381 0.94195 0.0
C923 C 0.29401 0.99947 0.95618 0.0
H924 H 0.40372 0.45075 0.30214 0.0
H925 H 0.33628 0.42502 0.35268 0.0
H926 H 0.3741 0.44504 0.25985 0.0
H927 H 0.30724 0.41938 0.31113 0.0
H928 H 0.25508 0.40446 0.24595 0.0
H929 H 0.2996 0.39241 0.26736 0.0
H930 H 0.33203 0.47185 0.24291 0.0
H931 H 0.28793 0.48313 0.22036 0.0
C932 C 0.38272 0.4437 0.3042 0.0
C933 C 0.37216 0.43881 0.33075 0.0
C934 C 0.36591 0.44025 0.28003 0.0
C935 C 0.33854 0.43126 0.2821 0.0
C936 C 0.32844 0.42561 0.30865 0.0
C937 C 0.34496 0.42941 0.33261 0.0
C938 C 0.27235 0.41838 0.24336 0.0
C939 C 0.26819 0.44482 0.23202 0.0
C940 C 0.29775 0.41167 0.25586 0.0
C941 C 0.3188 0.43173 0.25785 0.0
C942 C 0.31612 0.45607 0.24195 0.0
C943 C 0.29083 0.46251 0.22888 0.0
H944 H 0.67357 0.41952 0.88259 0.0
H945 H 0.75639 0.38794 0.88494 0.0
H946 H 0.69045 0.46457 0.89847 0.0
H947 H 0.77385 0.43363 0.89927 0.0
H948 H 0.78968 0.51331 0.95261 0.0
H949 H 0.7784 0.4677 0.93363 0.0
H950 H 0.7126 0.50365 0.88276 0.0
H951 H 0.72291 0.54893 0.90339 0.0
C952 C 0.69544 0.42225 0.88685 0.0
C953 C 0.71363 0.40023 0.88292 0.0
C954 C 0.70527 0.44827 0.89539 0.0
C955 C 0.7337 0.45322 0.89949 0.0
C956 C 0.75185 0.43075 0.89648 0.0
C957 C 0.74188 0.40447 0.88846 0.0
C958 C 0.77348 0.5116 0.93657 0.0
C959 C 0.75712 0.53466 0.92949 0.0
C960 C 0.76681 0.4853 0.92579 0.0
C961 C 0.74394 0.48161 0.90728 0.0
C962 C 0.72961 0.50536 0.89786 0.0
C963 C 0.73587 0.5315 0.90916 0.0
H964 H 0.64873 0.98119 0.16109 0.0
H965 H 0.6132 0.90343 0.1862 0.0
H966 H 0.67961 0.98065 0.20243 0.0
H967 H 0.6451 0.90233 0.22726 0.0
H968 H 0.74829 0.90587 0.24382 0.0
H969 H 0.70191 0.90038 0.22338 0.0
H970 H 0.67879 0.97853 0.25959 0.0
H971 H 0.7249 0.98352 0.28087 0.0
C972 C 0.64731 0.9642 0.17572 0.0
C973 C 0.62873 0.94234 0.1705 0.0
C974 C 0.66475 0.964 0.19949 0.0
C975 C 0.66447 0.94158 0.21814 0.0
C976 C 0.6454 0.91998 0.21336 0.0
C977 C 0.6273 0.92061 0.18992 0.0
C978 C 0.73272 0.92082 0.24912 0.0
C979 C 0.74013 0.9451 0.26386 0.0
C980 C 0.7062 0.9178 0.23724 0.0
C981 C 0.68702 0.93928 0.23956 0.0
C982 C 0.69328 0.96171 0.25752 0.0
C983 C 0.71961 0.96438 0.26998 0.0
H984 H 0.21801 0.11473 0.06841 0.0
H985 H 0.16213 0.08897 0.13172 0.0
H986 H 0.21382 0.06835 0.04678 0.0
H987 H 0.15863 0.04317 0.11068 0.0
H988 H 0.21242 0.96143 0.0929 0.0
H989 H 0.20232 0.00837 0.10899 0.0
H990 H 0.17416 0.03059 0.02563 0.0
H991 H 0.18329 0.98345 0.00962 0.0
C992 C 0.20439 0.09952 0.07724 0.0
C993 C 0.19091 0.10525 0.10204 0.0
C994 C 0.202 0.07307 0.06495 0.0
C995 C 0.18619 0.05226 0.07744 0.0
C996 C 0.17116 0.05877 0.10091 0.0
C997 C 0.17332 0.08499 0.11293 0.0
C998 C 0.20299 0.97598 0.07831 0.0
C999 C 0.19848 0.96869 0.05011 0.0
C1000 C 0.19746 0.00287 0.08741 0.0
C1001 C 0.18791 0.02305 0.06834 0.0
C1002 C 0.18175 0.01539 0.04057 0.0
C1003 C 0.18659 0.98828 0.03162 0.0
H1004 H 0.3938 0.57364 0.18482 0.0
H1005 H 0.3318 0.56123 0.11895 0.0
H1006 H 0.35723 0.57662 0.21901 0.0
H1007 H 0.29621 0.56403 0.15242 0.0
H1008 H 0.23184 0.58437 0.20611 0.0
H1009 H 0.2735 0.59665 0.18203 0.0
H1010 H 0.32159 0.54663 0.24003 0.0
H1011 H 0.28011 0.53541 0.26479 0.0
C1012 C 0.37255 0.57148 0.1776 0.0
C1013 C 0.36593 0.56726 0.149 0.0
C1014 C 0.3516 0.57332 0.19715 0.0
C1015 C 0.32366 0.57127 0.18841 0.0
C1016 C 0.31732 0.56669 0.15993 0.0
C1017 C 0.33798 0.56473 0.14064 0.0
C1018 C 0.25149 0.57723 0.21461 0.0
C1019 C 0.25256 0.55873 0.23718 0.0
C1020 C 0.27537 0.58388 0.20056 0.0
C1021 C 0.30077 0.57174 0.20845 0.0
C1022 C 0.30242 0.55623 0.23326 0.0
C1023 C 0.27853 0.54996 0.24762 0.0
H1024 H 0.77749 0.37789 0.10835 0.0
H1025 H 0.85419 0.41713 0.13383 0.0
H1026 H 0.76345 0.41934 0.08332 0.0
H1027 H 0.84152 0.45806 0.10662 0.0
H1028 H 0.80116 0.53834 0.0811 0.0
H1029 H 0.81463 0.4965 0.10632 0.0
H1030 H 0.76717 0.44721 0.04587 0.0
H1031 H 0.75193 0.48943 0.0226 0.0
C1032 C 0.79171 0.39522 0.10777 0.0
C1033 C 0.81692 0.39444 0.12281 0.0
C1034 C 0.78375 0.41905 0.09331 0.0
C1035 C 0.80123 0.44238 0.09284 0.0
C1036 C 0.82708 0.44095 0.10705 0.0
C1037 C 0.83461 0.41739 0.12232 0.0
C1038 C 0.79336 0.51846 0.07369 0.0
C1039 C 0.77527 0.51689 0.05033 0.0
C1040 C 0.80137 0.49439 0.0878 0.0
C1041 C 0.79223 0.46816 0.07816 0.0
C1042 C 0.77419 0.46687 0.05449 0.0
C1043 C 0.76546 0.49103 0.04101 0.0
H1044 H 0.35054 0.61129 0.9925 0.0
H1045 H 0.34571 0.66433 0.065 0.0
H1046 H 0.32912 0.6479 0.96333 0.0
H1047 H 0.32454 0.70042 0.03612 0.0
H1048 H 0.33604 0.76916 0.97881 0.0
H1049 H 0.35544 0.72371 0.98921 0.0
H1050 H 0.2772 0.68524 0.96872 0.0
H1051 H 0.25759 0.7306 0.95815 0.0
C1052 C 0.34393 0.63026 0.00235 0.0
C1053 C 0.34981 0.63507 0.03099 0.0
C1054 C 0.33203 0.65123 0.98563 0.0
C1055 C 0.32596 0.67706 0.9975 0.0
C1056 C 0.32959 0.68081 0.02647 0.0
C1057 C 0.3414 0.66007 0.04303 0.0
C1058 C 0.32336 0.75095 0.97483 0.0
C1059 C 0.29508 0.75366 0.96848 0.0
C1060 C 0.33444 0.72492 0.981 0.0
C1061 C 0.31753 0.70124 0.98041 0.0
C1062 C 0.29056 0.70328 0.96941 0.0
C1063 C 0.27944 0.72938 0.96314 0.0
H1064 H 0.36247 0.33558 0.42503 0.0
H1065 H 0.31073 0.40571 0.44252 0.0
H1066 H 0.32223 0.30592 0.42071 0.0
H1067 H 0.26993 0.37541 0.43847 0.0
H1068 H 0.22631 0.2903 0.47451 0.0
H1069 H 0.25267 0.33264 0.46704 0.0
H1070 H 0.27972 0.29957 0.3888 0.0
H1071 H 0.25376 0.25714 0.39663 0.0
C1072 C 0.34248 0.34471 0.42805 0.0
C1073 C 0.33992 0.37304 0.43436 0.0
C1074 C 0.3193 0.32773 0.42515 0.0
C1075 C 0.29282 0.33841 0.42873 0.0
C1076 C 0.29007 0.36669 0.43531 0.0
C1077 C 0.31341 0.38395 0.43773 0.0
C1078 C 0.23622 0.29292 0.45475 0.0
C1079 C 0.2381 0.2704 0.43618 0.0
C1080 C 0.25169 0.31708 0.45065 0.0
C1081 C 0.26895 0.31899 0.42778 0.0
C1082 C 0.26702 0.29839 0.40692 0.0
C1083 C 0.25171 0.27427 0.4111 0.0
H1084 H 0.6137 0.3802 0.75418 0.0
H1085 H 0.57789 0.3691 0.83448 0.0
H1086 H 0.57002 0.39729 0.73504 0.0
H1087 H 0.53482 0.38841 0.81643 0.0
H1088 H 0.45331 0.40682 0.77847 0.0
H1089 H 0.49557 0.38209 0.79073 0.0
H1090 H 0.53878 0.43138 0.7307 0.0
H1091 H 0.49601 0.45393 0.71702 0.0
C1092 C 0.59661 0.3822 0.76794 0.0
C1093 C 0.59925 0.37348 0.79586 0.0
C1094 C 0.57139 0.39204 0.75699 0.0
C1095 C 0.54828 0.39416 0.7739 0.0
C1096 C 0.5515 0.38633 0.80222 0.0
C1097 C 0.57645 0.37571 0.81287 0.0
C1098 C 0.47168 0.41135 0.76711 0.0
C1099 C 0.47129 0.43201 0.74655 0.0
C1100 C 0.4962 0.39771 0.7746 0.0
C1101 C 0.52125 0.40518 0.76251 0.0
C1102 C 0.52025 0.42462 0.74056 0.0
C1103 C 0.49553 0.43758 0.73246 0.0
H1104 H 0.64845 0.17177 0.45664 0.0
H1105 H 0.67312 0.09555 0.49746 0.0
H1106 H 0.6795 0.1977 0.48814 0.0
H1107 H 0.70446 0.12199 0.52916 0.0
H1108 H 0.69285 0.2359 0.56887 0.0
H1109 H 0.67323 0.19184 0.55289 0.0
H1110 H 0.74909 0.17172 0.51373 0.0
H1111 H 0.76899 0.21565 0.53026 0.0
C1112 C 0.66086 0.16049 0.47198 0.0
C1113 C 0.65822 0.13165 0.47463 0.0
C1114 C 0.67853 0.17533 0.49003 0.0
C1115 C 0.69389 0.16172 0.51115 0.0
C1116 C 0.69265 0.13277 0.51301 0.0
C1117 C 0.6749 0.11776 0.49477 0.0
C1118 C 0.70607 0.22112 0.55885 0.0
C1119 C 0.73221 0.22924 0.55043 0.0
C1120 C 0.69476 0.19599 0.54948 0.0
C1121 C 0.70956 0.17887 0.53168 0.0
C1122 C 0.73739 0.18466 0.52749 0.0
C1123 C 0.74884 0.20972 0.53721 0.0
H1124 H 0.87775 0.60991 0.24406 0.0
H1125 H 0.88973 0.59847 0.3329 0.0
H1126 H 0.91996 0.58444 0.23605 0.0
H1127 H 0.93108 0.57146 0.32517 0.0
H1128 H 0.02177 0.56441 0.30599 0.0
H1129 H 0.97599 0.58267 0.31354 0.0
H1130 H 0.94618 0.54416 0.23645 0.0
H1131 H 0.99218 0.52734 0.22828 0.0
C1132 C 0.88881 0.6007 0.26173 0.0
C1133 C 0.88061 0.60579 0.28901 0.0
C1134 C 0.91309 0.5862 0.25725 0.0
C1135 C 0.92933 0.57631 0.28003 0.0
C1136 C 0.9196 0.57948 0.30719 0.0
C1137 C 0.89567 0.59444 0.31165 0.0
C1138 C 0.00542 0.56005 0.29063 0.0
C1139 C 0.01064 0.54478 0.26642 0.0
C1140 C 0.97905 0.57019 0.29508 0.0
C1141 C 0.95719 0.56475 0.27568 0.0
C1142 C 0.96249 0.54918 0.25161 0.0
C1143 C 0.98892 0.53953 0.24693 0.0
H1144 H 0.15231 0.36231 0.60742 0.0
H1145 H 0.17704 0.38215 0.52424 0.0
H1146 H 0.18386 0.32279 0.60871 0.0
H1147 H 0.2088 0.34281 0.52541 0.0
H1148 H 0.2702 0.27586 0.53525 0.0
H1149 H 0.2508 0.32037 0.54853 0.0
H1150 H 0.18063 0.27816 0.58148 0.0
H1151 H 0.19984 0.23368 0.56792 0.0
C1152 C 0.16527 0.3587 0.58981 0.0
C1153 C 0.16268 0.37539 0.56589 0.0
C1154 C 0.18314 0.33601 0.59045 0.0
C1155 C 0.19887 0.32964 0.56719 0.0
C1156 C 0.19733 0.34738 0.54385 0.0
C1157 C 0.17918 0.36989 0.54311 0.0
C1158 C 0.25127 0.27592 0.54652 0.0
C1159 C 0.2365 0.25115 0.5504 0.0
C1160 C 0.23996 0.30153 0.55375 0.0
C1161 C 0.21395 0.30286 0.56558 0.0
C1162 C 0.20073 0.27791 0.57242 0.0
C1163 C 0.2118 0.25234 0.56477 0.0
H1164 H 0.63144 0.61806 0.73865 0.0
H1165 H 0.60472 0.6203 0.65185 0.0
H1166 H 0.59029 0.59188 0.74975 0.0
H1167 H 0.56463 0.59224 0.66216 0.0
H1168 H 0.47998 0.57368 0.69237 0.0
H1169 H 0.52264 0.59724 0.68182 0.0
H1170 H 0.56506 0.55145 0.74785 0.0
H1171 H 0.52177 0.5296 0.75954 0.0
C1172 C 0.61705 0.61212 0.72187 0.0
C1173 C 0.62092 0.62112 0.6945 0.0
C1174 C 0.59349 0.59706 0.72812 0.0
C1175 C 0.57376 0.59017 0.70693 0.0
C1176 C 0.57878 0.59789 0.67921 0.0
C1177 C 0.60189 0.61363 0.67316 0.0
C1178 C 0.49847 0.56889 0.70467 0.0
C1179 C 0.49768 0.55007 0.72684 0.0
C1180 C 0.52305 0.5821 0.69846 0.0
C1181 C 0.54757 0.57612 0.71377 0.0
C1182 C 0.54663 0.55703 0.73589 0.0
C1183 C 0.52185 0.54441 0.74257 0.0
H1184 H 0.42471 0.83273 0.76876 0.0
H1185 H 0.4027 0.90146 0.71513 0.0
H1186 H 0.46998 0.85374 0.77876 0.0
H1187 H 0.44837 0.92207 0.72455 0.0
H1188 H 0.54296 0.91794 0.7126 0.0
H1189 H 0.49816 0.8953 0.71051 0.0
H1190 H 0.49146 0.90609 0.79944 0.0
H1191 H 0.53618 0.92981 0.80175 0.0
C1192 C 0.42939 0.85265 0.75963 0.0
C1193 C 0.41026 0.86559 0.74125 0.0
C1194 C 0.45524 0.86457 0.76533 0.0
C1195 C 0.4626 0.88926 0.75218 0.0
C1196 C 0.44307 0.90289 0.73481 0.0
C1197 C 0.41694 0.89129 0.72962 0.0
C1198 C 0.53238 0.91504 0.73193 0.0
C1199 C 0.5431 0.92621 0.7573 0.0
C1200 C 0.50657 0.9023 0.7306 0.0
C1201 C 0.49119 0.89976 0.75467 0.0
C1202 C 0.5029 0.90824 0.78055 0.0
C1203 C 0.52862 0.92152 0.78186 0.0
H1204 H 0.57533 0.85965 0.16526 0.0
H1205 H 0.54903 0.80992 0.09392 0.0
H1206 H 0.57601 0.8188 0.19448 0.0
H1207 H 0.54933 0.76839 0.12374 0.0
H1208 H 0.50484 0.73471 0.20876 0.0
H1209 H 0.51848 0.75637 0.1654 0.0
H1210 H 0.59919 0.77265 0.20234 0.0
H1211 H 0.58512 0.7517 0.24592 0.0
C1212 C 0.56982 0.83986 0.1558 0.0
C1213 C 0.56173 0.838 0.12744 0.0
C1214 C 0.57066 0.81632 0.17245 0.0
C1215 C 0.56311 0.79028 0.1613 0.0
C1216 C 0.55551 0.78818 0.13275 0.0
C1217 C 0.55522 0.81187 0.1158 0.0
C1218 C 0.52606 0.7412 0.20691 0.0
C1219 C 0.54395 0.7418 0.23056 0.0
C1220 C 0.53386 0.75376 0.1821 0.0
C1221 C 0.55962 0.76691 0.18087 0.0
C1222 C 0.57903 0.76307 0.20297 0.0
C1223 C 0.57112 0.75083 0.22782 0.0
H1224 H 0.13245 0.2675 0.10854 0.0
H1225 H 0.11377 0.18615 0.07503 0.0
H1226 H 0.11848 0.28823 0.06345 0.0
H1227 H 0.09938 0.20658 0.03056 0.0
H1228 H 0.10398 0.2385 0.94719 0.0
H1229 H 0.12463 0.22817 0.99307 0.0
H1230 H 0.07975 0.29583 0.02896 0.0
H1231 H 0.05985 0.30674 0.98291 0.0
C1232 C 0.12435 0.2542 0.09188 0.0
C1233 C 0.12404 0.22525 0.09518 0.0
C1234 C 0.11675 0.266 0.06599 0.0
C1235 C 0.1088 0.24895 0.04315 0.0
C1236 C 0.10643 0.22022 0.04738 0.0
C1237 C 0.1141 0.20853 0.07301 0.0
C1238 C 0.09961 0.25202 0.96461 0.0
C1239 C 0.07999 0.27312 0.96152 0.0
C1240 C 0.11101 0.24581 0.991 0.0
C1241 C 0.10281 0.26043 0.0148 0.0
C1242 C 0.08619 0.28396 0.0111 0.0
C1243 C 0.07501 0.29039 0.98457 0.0
H1244 H 0.45138 0.63957 0.17533 0.0
H1245 H 0.41769 0.69582 0.11296 0.0
H1246 H 0.43956 0.67136 0.21182 0.0
H1247 H 0.40599 0.72845 0.15041 0.0
H1248 H 0.44516 0.78068 0.2317 0.0
H1249 H 0.43369 0.75708 0.18791 0.0
H1250 H 0.39678 0.69026 0.23334 0.0
H1251 H 0.40938 0.71331 0.27734 0.0
C1252 C 0.4414 0.65878 0.16931 0.0
C1253 C 0.43538 0.665 0.14109 0.0
C1254 C 0.43421 0.6769 0.19039 0.0
C1255 C 0.42091 0.70197 0.18406 0.0
C1256 C 0.41573 0.70895 0.15586 0.0
C1257 C 0.42273 0.69047 0.13448 0.0
C1258 C 0.4331 0.76177 0.23239 0.0
C1259 C 0.4292 0.74817 0.25796 0.0
C1260 C 0.42661 0.74818 0.20714 0.0
C1261 C 0.41553 0.72129 0.20739 0.0
C1262 C 0.40616 0.71065 0.23271 0.0
C1263 C 0.41312 0.72396 0.25793 0.0
H1264 H 0.90202 0.33801 0.11266 0.0
H1265 H 0.92316 0.25542 0.13995 0.0
H1266 H 0.93004 0.3327 0.07234 0.0
H1267 H 0.95266 0.25024 0.09973 0.0
H1268 H 0.95653 0.23592 0.00408 0.0
H1269 H 0.94158 0.24287 0.05155 0.0
H1270 H 0.97117 0.32751 0.04971 0.0
H1271 H 0.98478 0.32084 0.00167 0.0
C1272 C 0.91363 0.31903 0.11049 0.0
C1273 C 0.91019 0.29696 0.12909 0.0
C1274 C 0.92988 0.316 0.08737 0.0
C1275 C 0.94326 0.29081 0.08237 0.0
C1276 C 0.94206 0.26968 0.10262 0.0
C1277 C 0.92558 0.27273 0.12587 0.0
C1278 C 0.95971 0.25603 0.01383 0.0
C1279 C 0.97126 0.27801 -0.00101 0.0
C1280 C 0.95156 0.25991 0.04124 0.0
C1281 C 0.95519 0.28576 0.05462 0.0
C1282 C 0.96759 0.30747 0.03996 0.0
C1283 C 0.97527 0.30372 0.01236 0.0
H1284 H 0.55099 0.19947 0.40782 0.0
H1285 H 0.58416 0.15329 0.33927 0.0
H1286 H 0.55258 0.24199 0.37982 0.0
H1287 H 0.58576 0.19517 0.31174 0.0
H1288 H 0.51366 0.28016 0.29277 0.0
H1289 H 0.52552 0.25638 0.33629 0.0
H1290 H 0.6072 0.24143 0.3072 0.0
H1291 H 0.59482 0.26444 0.2633 0.0
C1292 C 0.5589 0.19846 0.38697 0.0
C1293 C 0.56708 0.17296 0.37559 0.0
C1294 C 0.5599 0.22278 0.37104 0.0
C1295 C 0.56966 0.22205 0.34374 0.0
C1296 C 0.57874 0.19668 0.33292 0.0
C1297 C 0.57737 0.17248 0.34857 0.0
C1298 C 0.53473 0.27351 0.29652 0.0
C1299 C 0.5533 0.27384 0.27473 0.0
C1300 C 0.54149 0.25963 0.32142 0.0
C1301 C 0.56697 0.24617 0.32467 0.0
C1302 C 0.58716 0.25105 0.30491 0.0
C1303 C 0.58027 0.26462 0.27993 0.0
H1304 H 0.38348 0.16142 0.91083 0.0
H1305 H 0.42848 0.21793 0.85923 0.0
H1306 H 0.41568 0.17061 0.94974 0.0
H1307 H 0.46093 0.22707 0.89839 0.0
H1308 H 0.47061 0.26795 0.98883 0.0
H1309 H 0.45103 0.25276 0.94366 0.0
H1310 H 0.46466 0.16735 0.96691 0.0
H1311 H 0.48382 0.18222 0.012 0.0
C1312 C 0.40066 0.1753 0.90767 0.0
C1313 C 0.40336 0.18928 0.88228 0.0
C1314 C 0.41918 0.18041 0.92984 0.0
C1315 C 0.44054 0.19973 0.92698 0.0
C1316 C 0.4444 0.21228 0.90102 0.0
C1317 C 0.426 0.2069 0.87867 0.0
C1318 C 0.46961 0.24596 0.98421 0.0
C1319 C 0.47818 0.2263 0.00418 0.0
C1320 C 0.45875 0.23731 0.95827 0.0
C1321 C 0.45638 0.20891 0.95201 0.0
C1322 C 0.46611 0.18934 0.97144 0.0
C1323 C 0.4769 0.19793 0.99729 0.0
H1324 H 0.39481 0.36214 0.34718 0.0
H1325 H 0.46886 0.31938 0.37351 0.0
H1326 H 0.38762 0.32943 0.30856 0.0
H1327 H 0.46239 0.28699 0.33424 0.0
H1328 H 0.45061 0.23199 0.26336 0.0
H1329 H 0.43658 0.25105 0.30779 0.0
H1330 H 0.41253 0.32697 0.26622 0.0
H1331 H 0.42633 0.30789 0.22196 0.0
C1332 C 0.40919 0.34522 0.34497 0.0
C1333 C 0.43243 0.34316 0.36305 0.0
C1334 C 0.40514 0.32659 0.32284 0.0
C1335 C 0.42455 0.30577 0.31805 0.0
C1336 C 0.44682 0.30255 0.33748 0.0
C1337 C 0.45069 0.32112 0.35989 0.0
C1338 C 0.44098 0.2522 0.2634 0.0
C1339 C 0.44028 0.26876 0.23921 0.0
C1340 C 0.43334 0.26328 0.28904 0.0
C1341 C 0.42434 0.29085 0.29076 0.0
C1342 C 0.41956 0.3057 0.2658 0.0
C1343 C 0.42739 0.29472 0.24026 0.0
H1344 H 0.6299 0.3291 0.92807 0.0
H1345 H 0.63113 0.24465 0.89853 0.0
H1346 H 0.61577 0.31341 0.97361 0.0
H1347 H 0.61897 0.22834 0.94474 0.0
H1348 H 0.56762 0.21296 0.02263 0.0
H1349 H 0.58666 0.22326 0.9778 0.0
H1350 H 0.63042 0.29342 0.01465 0.0
H1351 H 0.60934 0.28412 0.05912 0.0
C1352 C 0.62682 0.30711 0.93138 0.0
C1353 C 0.631 0.28813 0.90973 0.0
C1354 C 0.61934 0.29795 0.95772 0.0
C1355 C 0.61675 0.26941 0.96343 0.0
C1356 C 0.62043 0.25045 0.94135 0.0
C1357 C 0.62723 0.25975 0.91473 0.0
C1358 C 0.58218 0.22995 0.02146 0.0
C1359 C 0.58686 0.24784 0.0444 0.0
C1360 C 0.59302 0.23607 0.99549 0.0
C1361 C 0.60942 0.25985 0.99202 0.0
C1362 C 0.61687 0.27566 0.016 0.0
C1363 C 0.60538 0.26998 0.04178 0.0
H1364 H 0.12603 0.54604 0.81895 0.0
H1365 H 0.1643 0.61426 0.86397 0.0
H1366 H 0.16391 0.54551 0.78676 0.0
H1367 H 0.20105 0.61552 0.83076 0.0
H1368 H 0.28122 0.57765 0.8003 0.0
H1369 H 0.23982 0.59144 0.82279 0.0
H1370 H 0.19101 0.56175 0.75144 0.0
H1371 H 0.23293 0.54643 0.72961 0.0
C1372 C 0.14218 0.56149 0.82136 0.0
C1373 C 0.14247 0.57996 0.84409 0.0
C1374 C 0.16391 0.5614 0.80278 0.0
C1375 C 0.18613 0.58023 0.80614 0.0
C1376 C 0.18503 0.60005 0.82781 0.0
C1377 C 0.16379 0.59957 0.84678 0.0
C1378 C 0.26174 0.57494 0.78891 0.0
C1379 C 0.26052 0.56058 0.76328 0.0
C1380 C 0.2377 0.58289 0.80189 0.0
C1381 C 0.21159 0.57718 0.78943 0.0
C1382 C 0.21056 0.56576 0.76222 0.0
C1383 C 0.23474 0.55753 0.74931 0.0
H1384 H 0.82748 0.59 0.36884 0.0
H1385 H 0.75546 0.63092 0.39908 0.0
H1386 H 0.81923 0.55075 0.39939 0.0
H1387 H 0.74686 0.59108 0.42956 0.0
H1388 H 0.72527 0.49485 0.4385 0.0
H1389 H 0.73442 0.53897 0.41559 0.0
H1390 H 0.81663 0.53995 0.45255 0.0
H1391 H 0.80759 0.49597 0.47569 0.0
C1392 C 0.81005 0.59065 0.38232 0.0
C1393 C 0.79199 0.61327 0.38164 0.0
C1394 C 0.80543 0.56831 0.39985 0.0
C1395 C 0.7824 0.56798 0.41665 0.0
C1396 C 0.76471 0.59095 0.41664 0.0
C1397 C 0.76968 0.61369 0.39943 0.0
C1398 C 0.7453 0.50446 0.44172 0.0
C1399 C 0.76582 0.49184 0.45864 0.0
C1400 C 0.75037 0.52984 0.42893 0.0
C1401 C 0.77613 0.54277 0.43253 0.0
C1402 C 0.79659 0.5303 0.44955 0.0
C1403 C 0.79141 0.50515 0.46268 0.0
H1404 H 0.89566 0.90253 0.81496 0.0
H1405 H 0.86775 0.98566 0.83142 0.0
H1406 H 0.86478 0.90015 0.77329 0.0
H1407 H 0.83782 0.98367 0.78953 0.0
H1408 H 0.78741 0.98189 0.71686 0.0
H1409 H 0.83476 0.97529 0.73408 0.0
H1410 H 0.80979 0.90231 0.77868 0.0
H1411 H 0.76242 0.90943 0.76216 0.0
C1412 C 0.8836 0.92057 0.8091 0.0
C1413 C 0.88367 0.94418 0.82642 0.0
C1414 C 0.86613 0.91923 0.78528 0.0
C1415 C 0.84923 0.94181 0.7781 0.0
C1416 C 0.85103 0.96615 0.79431 0.0
C1417 C 0.86784 0.9672 0.81845 0.0
C1418 C 0.79239 0.96343 0.72882 0.0
C1419 C 0.7714 0.94631 0.73855 0.0
C1420 C 0.81946 0.95977 0.7388 0.0
C1421 C 0.82569 0.93861 0.75805 0.0
C1422 C 0.8055 0.91875 0.76381 0.0
C1423 C 0.77837 0.92278 0.75435 0.0
H1424 H 0.26013 0.88949 0.37819 0.0
H1425 H 0.17653 0.9173 0.38529 0.0
H1426 H 0.27698 0.93534 0.39294 0.0
H1427 H 0.19298 0.9624 0.40146 0.0
H1428 H 0.22159 0.04762 0.40647 0.0
H1429 H 0.21213 0.00282 0.38441 0.0
H1430 H 0.28282 0.96823 0.42892 0.0
H1431 H 0.2931 0.01356 0.44936 0.0
C1432 C 0.24542 0.90518 0.38384 0.0
C1433 C 0.21706 0.89991 0.38084 0.0
C1434 C 0.25502 0.93154 0.39207 0.0
C1435 C 0.23639 0.95298 0.39776 0.0
C1436 C 0.20803 0.94691 0.39624 0.0
C1437 C 0.19852 0.92087 0.38754 0.0
C1438 C 0.23575 0.03069 0.41045 0.0
C1439 C 0.25806 0.03403 0.42952 0.0
C1440 C 0.23005 0.00481 0.39836 0.0
C1441 C 0.24604 0.98148 0.40575 0.0
C1442 C 0.26993 0.98555 0.42275 0.0
C1443 C 0.27601 0.01166 0.43432 0.0
H1444 H 0.11303 0.40799 0.68408 0.0
H1445 H 0.14758 0.48667 0.66035 0.0
H1446 H 0.14537 0.40624 0.7247 0.0
H1447 H 0.17896 0.48543 0.70129 0.0
H1448 H 0.22562 0.48627 0.77931 0.0
H1449 H 0.17932 0.48195 0.75828 0.0
H1450 H 0.20183 0.40456 0.72005 0.0
H1451 H 0.24837 0.40941 0.74029 0.0
C1452 C 0.12698 0.42524 0.68804 0.0
C1453 C 0.128 0.44742 0.66909 0.0
C1454 C 0.14536 0.42424 0.71122 0.0
C1455 C 0.16434 0.44585 0.71626 0.0
C1456 C 0.16419 0.46873 0.69815 0.0
C1457 C 0.14644 0.46934 0.67461 0.0
C1458 C 0.22015 0.46741 0.76801 0.0
C1459 C 0.24051 0.44815 0.76138 0.0
C1460 C 0.19373 0.46513 0.75568 0.0
C1461 C 0.18723 0.44313 0.73726 0.0
C1462 C 0.20631 0.42165 0.73427 0.0
C1463 C 0.2329 0.42428 0.74604 0.0
H1464 H 0.66972 0.58658 0.63719 0.0
H1465 H 0.72436 0.61231 0.57272 0.0
H1466 H 0.66482 0.54122 0.61558 0.0
H1467 H 0.71879 0.56627 0.55054 0.0
H1468 H 0.71427 0.4581 0.59458 0.0
H1469 H 0.70626 0.50499 0.612 0.0
H1470 H 0.6782 0.53038 0.52954 0.0
H1471 H 0.68529 0.48337 0.5122 0.0
C1472 C 0.6805 0.58264 0.61813 0.0
C1473 C 0.6981 0.60277 0.60702 0.0
C1474 C 0.67749 0.55668 0.60577 0.0
C1475 C 0.69167 0.55026 0.58173 0.0
C1476 C 0.70763 0.57092 0.56917 0.0
C1477 C 0.71085 0.59715 0.58178 0.0
C1478 C 0.70529 0.47336 0.58048 0.0
C1479 C 0.7003 0.46699 0.55212 0.0
C1480 C 0.70097 0.50022 0.59033 0.0
C1481 C 0.69213 0.52124 0.57188 0.0
C1482 C 0.68533 0.51452 0.544 0.0
C1483 C 0.68897 0.48749 0.53429 0.0
H1484 H 0.84975 0.11167 0.63871 0.0
H1485 H 0.88273 0.03817 0.67799 0.0
H1486 H 0.81432 0.11422 0.67328 0.0
H1487 H 0.84605 0.03929 0.7117 0.0
H1488 H 0.77981 0.04404 0.77178 0.0
H1489 H 0.82205 0.05754 0.74936 0.0
H1490 H 0.7737 0.09136 0.68013 0.0
H1491 H 0.73194 0.07895 0.70305 0.0
C1492 C 0.84941 0.0961 0.65496 0.0
C1493 C 0.86876 0.07458 0.65558 0.0
C1494 C 0.82895 0.0974 0.67471 0.0
C1495 C 0.8267 0.07667 0.69515 0.0
C1496 C 0.84709 0.05587 0.69659 0.0
C1497 C 0.86808 0.05502 0.67716 0.0
C1498 C 0.77822 0.05567 0.75247 0.0
C1499 C 0.7524 0.06018 0.7391 0.0
C1500 C 0.80255 0.06288 0.73925 0.0
C1501 C 0.80158 0.07485 0.71241 0.0
C1502 C 0.77565 0.08225 0.70073 0.0
C1503 C 0.75145 0.07517 0.71397 0.0
H1504 H 0.3284 0.87936 0.59106 0.0
H1505 H 0.31878 0.92675 0.667 0.0
H1506 H 0.31592 0.92045 0.56346 0.0
H1507 H 0.30587 0.96722 0.6394 0.0
H1508 H 0.24619 0.0155 0.57745 0.0
H1509 H 0.26186 0.97507 0.60441 0.0
H1510 H 0.33621 0.9726 0.55786 0.0
H1511 H 0.32099 0.01322 0.53131 0.0
C1512 C 0.32396 0.89853 0.60183 0.0
C1513 C 0.32458 0.89976 0.6312 0.0
C1514 C 0.31681 0.92194 0.58607 0.0
C1515 C 0.30967 0.94672 0.59946 0.0
C1516 C 0.31101 0.9482 0.6287 0.0
C1517 C 0.31865 0.92505 0.64442 0.0
C1518 C 0.26588 0.00634 0.57305 0.0
C1519 C 0.28245 0.01759 0.55247 0.0
C1520 C 0.27484 0.98334 0.58846 0.0
C1521 C 0.3002 0.97091 0.58308 0.0
C1522 C 0.31656 0.98185 0.56226 0.0
C1523 C 0.30789 0.00516 0.54727 0.0
H1524 H 0.84815 0.16974 0.56549 0.0
H1525 H 0.84554 0.11112 0.49703 0.0
H1526 H 0.82731 0.20479 0.53511 0.0
H1527 H 0.82433 0.14667 0.46637 0.0
H1528 H 0.75632 0.23035 0.45735 0.0
H1529 H 0.77592 0.18546 0.46979 0.0
H1530 H 0.85473 0.22432 0.48651 0.0
H1531 H 0.83532 0.26929 0.47415 0.0
C1532 C 0.84231 0.16411 0.54414 0.0
C1533 C 0.84851 0.13777 0.53361 0.0
C1534 C 0.83072 0.18424 0.52669 0.0
C1535 C 0.82507 0.17854 0.4983 0.0
C1536 C 0.82888 0.15153 0.48815 0.0
C1537 C 0.84063 0.13118 0.50577 0.0
C1538 C 0.77826 0.22921 0.46186 0.0
C1539 C 0.7941 0.2536 0.46569 0.0
C1540 C 0.78938 0.20339 0.46925 0.0
C1541 C 0.8165 0.20175 0.47992 0.0
C1542 C 0.83356 0.22526 0.47872 0.0
C1543 C 0.8225 0.25099 0.47137 0.0
H1544 H 0.82034 0.89408 0.89214 0.0
H1545 H 0.8427 0.86607 0.97538 0.0
H1546 H 0.78021 0.86287 0.89121 0.0
H1547 H 0.80248 0.83571 0.97475 0.0
H1548 H 0.72637 0.78983 0.97595 0.0
H1549 H 0.74865 0.83491 0.97067 0.0
H1550 H 0.78088 0.80796 0.89229 0.0
H1551 H 0.75916 0.76273 0.89799 0.0
C1552 C 0.81628 0.88181 0.91047 0.0
C1553 C 0.83472 0.88234 0.93379 0.0
C1554 C 0.79336 0.864 0.90992 0.0
C1555 C 0.78807 0.84707 0.93299 0.0
C1556 C 0.80573 0.84883 0.95683 0.0
C1557 C 0.82892 0.86602 0.9571 0.0
C1558 C 0.73664 0.79418 0.9567 0.0
C1559 C 0.74094 0.77284 0.93729 0.0
C1560 C 0.74979 0.81986 0.9539 0.0
C1561 C 0.7669 0.82474 0.93132 0.0
C1562 C 0.76778 0.80484 0.90986 0.0
C1563 C 0.75509 0.77898 0.91296 0.0
H1564 H 0.07745 0.87155 0.33825 0.0
H1565 H 0.11118 0.8791 0.25656 0.0
H1566 H 0.03404 0.89047 0.32046 0.0
H1567 H 0.06723 0.89541 0.23777 0.0
H1568 H 0.9944 0.95251 0.21867 0.0
H1569 H 0.03681 0.92958 0.23251 0.0
H1570 H 0.99398 0.88474 0.29622 0.0
H1571 H 0.95215 0.91009 0.28371 0.0
C1572 C 0.07546 0.87724 0.3164 0.0
C1573 C 0.0978 0.87427 0.2989 0.0
C1574 C 0.05032 0.88762 0.30592 0.0
C1575 C 0.04649 0.89436 0.27735 0.0
C1576 C 0.06909 0.89118 0.25993 0.0
C1577 C 0.09447 0.88172 0.27068 0.0
C1578 C 0.9939 0.93703 0.235 0.0
C1579 C 0.96996 0.93295 0.25001 0.0
C1580 C 0.01842 0.92382 0.24318 0.0
C1581 C 0.01948 0.90552 0.26613 0.0
C1582 C 0.99462 0.89945 0.27926 0.0
C1583 C 0.97031 0.91343 0.27166 0.0
H1584 H 0.1815 0.59969 0.98327 0.0
H1585 H 0.13404 0.67455 0.97071 0.0
H1586 H 0.21275 0.62491 0.01613 0.0
H1587 H 0.16451 0.69894 0.00342 0.0
H1588 H 0.19604 0.73469 0.07501 0.0
H1589 H 0.1741 0.69195 0.05849 0.0
H1590 H 0.24583 0.67227 0.01192 0.0
H1591 H 0.26811 0.71469 0.02926 0.0
C1592 C 0.17788 0.62146 0.98721 0.0
C1593 C 0.15507 0.63501 0.9745 0.0
C1594 C 0.19557 0.63572 0.00621 0.0
C1595 C 0.19035 0.6635 0.01301 0.0
C1596 C 0.16841 0.67723 -0.0007 0.0
C1597 C 0.1511 0.66326 0.98026 0.0
C1598 C 0.20797 0.72015 0.06315 0.0
C1599 C 0.23344 0.72815 0.05292 0.0
C1600 C 0.19528 0.69585 0.05334 0.0
C1601 C 0.20795 0.67951 0.03313 0.0
C1602 C 0.23557 0.68468 0.02729 0.0
C1603 C 0.24843 0.70888 0.0375 0.0
H1604 H 0.38256 0.08828 0.8226 0.0
H1605 H 0.38403 0.11454 0.73673 0.0
H1606 H 0.42358 0.06018 0.81611 0.0
H1607 H 0.42554 0.08749 0.73021 0.0
H1608 H 0.51727 0.05475 0.80711 0.0
H1609 H 0.47082 0.07253 0.81193 0.0
H1610 H 0.44914 0.04483 0.72799 0.0
H1611 H 0.49566 0.02814 0.7228 0.0
C1612 C 0.39113 0.08705 0.80203 0.0
C1613 C 0.38006 0.10296 0.77997 0.0
C1614 C 0.41489 0.07147 0.79842 0.0
C1615 C 0.42821 0.07201 0.7728 0.0
C1616 C 0.41576 0.08635 0.75015 0.0
C1617 C 0.39187 0.10171 0.75374 0.0
C1618 C 0.5026 0.05258 0.78968 0.0
C1619 C 0.51032 0.04036 0.76449 0.0
C1620 C 0.47584 0.06244 0.79253 0.0
C1621 C 0.45613 0.05997 0.77037 0.0
C1622 C 0.46383 0.04742 0.74534 0.0
C1623 C 0.4906 0.03788 0.74238 0.0
H1624 H 0.63056 0.83377 0.04972 0.0
H1625 H 0.69212 0.89343 0.0782 0.0
H1626 H 0.66397 0.7973 0.05289 0.0
H1627 H 0.7264 0.85581 0.08107 0.0
H1628 H 0.77159 0.77918 0.03029 0.0
H1629 H 0.74843 0.82141 0.04473 0.0
H1630 H 0.69129 0.77224 0.09076 0.0
H1631 H 0.71392 0.73001 0.07563 0.0
C1632 C 0.65131 0.83929 0.05666 0.0
C1633 C 0.6585 0.86684 0.06363 0.0
C1634 C 0.67048 0.81808 0.05884 0.0
C1635 C 0.6977 0.82347 0.06788 0.0
C1636 C 0.70542 0.85101 0.07438 0.0
C1637 C 0.68586 0.87251 0.0726 0.0
C1638 C 0.75509 0.77744 0.04483 0.0
C1639 C 0.7443 0.75124 0.05153 0.0
C1640 C 0.7417 0.80173 0.05297 0.0
C1641 C 0.71759 0.80007 0.0682 0.0
C1642 C 0.70953 0.77409 0.07851 0.0
C1643 C 0.72263 0.74988 0.07009 0.0
H1644 H 0.13501 0.09083 0.18873 0.0
H1645 H 0.09036 0.16486 0.20975 0.0
H1646 H 0.09444 0.0626 0.19934 0.0
H1647 H 0.05044 0.13684 0.22063 0.0
H1648 H 0.99795 0.07394 0.26743 0.0
H1649 H 0.04044 0.09881 0.25815 0.0
H1650 H 0.04266 0.06023 0.17678 0.0
H1651 H 0.99983 0.03544 0.1858 0.0
C1652 C 0.11669 0.10097 0.19586 0.0
C1653 C 0.11573 0.12996 0.19836 0.0
C1654 C 0.09354 0.08492 0.20173 0.0
C1655 C 0.06948 0.09767 0.2108 0.0
C1656 C 0.06882 0.12656 0.21384 0.0
C1657 C 0.09161 0.14255 0.20747 0.0
C1658 C 0.00747 0.07072 0.24756 0.0
C1659 C 0.99545 0.05292 0.22725 0.0
C1660 C 0.03176 0.08492 0.2423 0.0
C1661 C 0.04474 0.08126 0.21684 0.0
C1662 C 0.03308 0.06314 0.19667 0.0
C1663 C 0.00848 0.04925 0.20173 0.0
H1664 H 0.90254 0.40316 0.20573 0.0
H1665 H 0.91989 0.33947 0.26684 0.0
H1666 H 0.94804 0.42379 0.21613 0.0
H1667 H 0.96497 0.3605 0.27775 0.0
H1668 H 0.03178 0.43496 0.29902 0.0
H1669 H 0.98689 0.41166 0.29543 0.0
H1670 H 0.99761 0.39753 0.20749 0.0
H1671 H 0.04257 0.4198 0.21094 0.0
C1672 C 0.9157 0.39418 0.222 0.0
C1673 C 0.9078 0.36985 0.23554 0.0
C1674 C 0.94175 0.40574 0.22774 0.0
C1675 C 0.95996 0.39347 0.24753 0.0
C1676 C 0.95128 0.37028 0.26243 0.0
C1677 C 0.92554 0.35836 0.25623 0.0
C1678 C 0.02506 0.42599 0.27914 0.0
C1679 C 0.04069 0.42967 0.25518 0.0
C1680 C 0.99923 0.41297 0.27706 0.0
C1681 C 0.98859 0.40372 0.251 0.0
C1682 C 0.00514 0.40519 0.22766 0.0
C1683 C 0.03103 0.4177 0.22978 0.0
H1684 H 0.21337 0.17102 0.79777 0.0
H1685 H 0.24012 0.22937 0.86197 0.0
H1686 H 0.16587 0.17774 0.81067 0.0
H1687 H 0.19296 0.23507 0.8757 0.0
H1688 H 0.10064 0.25917 0.87169 0.0
H1689 H 0.14953 0.25339 0.8637 0.0
H1690 H 0.13568 0.16631 0.84626 0.0
H1691 H 0.08672 0.1726 0.8529 0.0
C1692 C 0.20914 0.18536 0.81454 0.0
C1693 C 0.23064 0.19964 0.82874 0.0
C1694 C 0.1819 0.18894 0.82226 0.0
C1695 C 0.1755 0.20659 0.84465 0.0
C1696 C 0.19696 0.22146 0.85828 0.0
C1697 C 0.22411 0.21816 0.85033 0.0
C1698 C 0.10826 0.23864 0.86703 0.0
C1699 C 0.08993 0.21637 0.86273 0.0
C1700 C 0.1363 0.23531 0.86224 0.0
C1701 C 0.14653 0.20951 0.85349 0.0
C1702 C 0.12844 0.1867 0.85191 0.0
C1703 C 0.10044 0.19015 0.85623 0.0
H1704 H 0.40066 0.53376 0.38931 0.0
H1705 H 0.48783 0.5186 0.39904 0.0
H1706 H 0.40981 0.58095 0.37499 0.0
H1707 H 0.49721 0.56663 0.38652 0.0
H1708 H 0.51065 0.65031 0.34979 0.0
H1709 H 0.4985 0.60104 0.3526 0.0
H1710 H 0.42283 0.62331 0.39187 0.0
H1711 H 0.43446 0.67188 0.38736 0.0
C1712 C 0.42184 0.54075 0.38902 0.0
C1713 C 0.44351 0.5225 0.39574 0.0
C1714 C 0.42716 0.56794 0.38075 0.0
C1715 C 0.45432 0.57802 0.37961 0.0
C1716 C 0.47602 0.5597 0.38652 0.0
C1717 C 0.47068 0.53221 0.39416 0.0
C1718 C 0.49083 0.64446 0.35764 0.0
C1719 C 0.47312 0.66476 0.36769 0.0
C1720 C 0.4841 0.61623 0.35994 0.0
C1721 C 0.4598 0.60784 0.37292 0.0
C1722 C 0.44147 0.62855 0.38135 0.0
C1723 C 0.44804 0.65657 0.37867 0.0
H1724 H 0.77881 0.27894 0.82058 0.0
H1725 H 0.78587 0.36804 0.82628 0.0
H1726 H 0.82827 0.27466 0.82658 0.0
H1727 H 0.83604 0.36382 0.83183 0.0
H1728 H 0.91539 0.33755 0.88441 0.0
H1729 H 0.86799 0.34722 0.8691 0.0
H1730 H 0.8721 0.28237 0.80692 0.0
H1731 H 0.91875 0.27195 0.82296 0.0
C1732 C 0.79107 0.2977 0.82247 0.0
C1733 C 0.77841 0.32382 0.82305 0.0
C1734 C 0.81953 0.29526 0.82578 0.0
C1735 C 0.83623 0.31888 0.82984 0.0
C1736 C 0.82373 0.34519 0.82905 0.0
C1737 C 0.79506 0.34765 0.82553 0.0
C1738 C 0.90624 0.32547 0.86736 0.0
C1739 C 0.92097 0.30385 0.85502 0.0
C1740 C 0.87912 0.33122 0.85837 0.0
C1741 C 0.86613 0.3155 0.83684 0.0
C1742 C 0.88128 0.29466 0.82381 0.0
C1743 C 0.90823 0.28882 0.83288 0.0
H1744 H 0.51514 0.9968 0.39535 0.0
H1745 H 0.60098 0.97435 0.40323 0.0
H1746 H 0.50316 0.9481 0.38557 0.0
H1747 H 0.58894 0.92616 0.39288 0.0
H1748 H 0.55348 0.85884 0.32854 0.0
H1749 H 0.5647 0.90589 0.34428 0.0
H1750 H 0.51064 0.89646 0.41321 0.0
H1751 H 0.49983 0.84878 0.39778 0.0
C1752 C 0.53139 0.98153 0.3951 0.0
C1753 C 0.55901 0.98948 0.39998 0.0
C1754 C 0.5245 0.95371 0.38972 0.0
C1755 C 0.54516 0.93352 0.38855 0.0
C1756 C 0.57267 0.94138 0.39372 0.0
C1757 C 0.5795 0.96898 0.39966 0.0
C1758 C 0.54416 0.8667 0.3472 0.0
C1759 C 0.52597 0.85011 0.36208 0.0
C1760 C 0.55061 0.89356 0.35619 0.0
C1761 C 0.53851 0.90469 0.37989 0.0
C1762 C 0.52019 0.88825 0.39483 0.0
C1763 C 0.51422 0.86097 0.38618 0.0
H1764 H 0.24385 0.80577 0.62516 0.0
H1765 H 0.22964 0.84365 0.70527 0.0
H1766 H 0.19472 0.80397 0.61489 0.0
H1767 H 0.18009 0.84075 0.69553 0.0
H1768 H 0.09286 0.84901 0.666 0.0
H1769 H 0.14219 0.85771 0.66843 0.0
H1770 H 0.15578 0.77897 0.6278 0.0
H1771 H 0.10639 0.77088 0.62439 0.0
C1772 C 0.23017 0.81352 0.64074 0.0
C1773 C 0.24064 0.82461 0.6662 0.0
C1774 C 0.20192 0.81241 0.63483 0.0
C1775 C 0.18329 0.82202 0.65438 0.0
C1776 C 0.19379 0.83354 0.67973 0.0
C1777 C 0.22219 0.83502 0.68548 0.0
C1778 C 0.10639 0.83387 0.657 0.0
C1779 C 0.09577 0.80911 0.64529 0.0
C1780 C 0.13471 0.83871 0.65869 0.0
C1781 C 0.1531 0.81878 0.64897 0.0
C1782 C 0.14231 0.79489 0.63545 0.0
C1783 C 0.11392 0.79021 0.63345 0.0
H1784 H 0.09429 0.54321 0.57872 0.0
H1785 H 0.0208 0.51683 0.61942 0.0
H1786 H 0.08519 0.59111 0.59207 0.0
H1787 H 0.01151 0.56464 0.63226 0.0
H1788 H 0.0499 0.67876 0.60486 0.0
H1789 H 0.05619 0.63181 0.58672 0.0
H1790 H 0.02997 0.59811 0.66494 0.0
H1791 H 0.02312 0.64469 0.68272 0.0
C1792 C 0.07591 0.54759 0.59005 0.0
C1793 C 0.05843 0.52586 0.59809 0.0
C1794 C 0.07065 0.5752 0.5977 0.0
C1795 C 0.04778 0.58192 0.61364 0.0
C1796 C 0.02967 0.56034 0.62055 0.0
C1797 C 0.0349 0.5328 0.61293 0.0
C1798 C 0.04526 0.66135 0.61812 0.0
C1799 C 0.03582 0.66575 0.64528 0.0
C1800 C 0.04908 0.63433 0.60776 0.0
C1801 C 0.04345 0.61093 0.62421 0.0
C1802 C 0.03405 0.61543 0.65135 0.0
C1803 C 0.03034 0.64233 0.6617 0.0
H1804 H 0.78797 0.72867 0.64861 0.0
H1805 H 0.80028 0.64346 0.67343 0.0
H1806 H 0.83757 0.73547 0.64777 0.0
H1807 H 0.85024 0.65032 0.67228 0.0
H1808 H 0.93222 0.67112 0.62369 0.0
H1809 H 0.88401 0.66085 0.6326 0.0
H1810 H 0.87912 0.7357 0.68182 0.0
H1811 H 0.92706 0.74606 0.67299 0.0
C1812 C 0.80128 0.71141 0.65403 0.0
C1813 C 0.79018 0.6855 0.66102 0.0
C1814 C 0.8297 0.71537 0.65372 0.0
C1815 C 0.84774 0.69343 0.66001 0.0
C1816 C 0.83675 0.66755 0.66727 0.0
C1817 C 0.80821 0.66369 0.66807 0.0
C1818 C 0.92098 0.68517 0.63675 0.0
C1819 C 0.9335 0.70949 0.64749 0.0
C1820 C 0.89344 0.6792 0.64197 0.0
C1821 C 0.87781 0.6976 0.65773 0.0
C1822 C 0.89063 0.72129 0.6694 0.0
C1823 C 0.91818 0.7271 0.66446 0.0
H1824 H 0.99059 0.99697 0.60214 0.0
H1825 H 0.90407 0.97918 0.60887 0.0
H1826 H 1.00155 0.94958 0.61594 0.0
H1827 H 0.9149 0.93238 0.62418 0.0
H1828 H 0.94195 0.84208 0.61278 0.0
H1829 H 0.92874 0.8902 0.60786 0.0
H1830 H 0.00483 0.9153 0.65033 0.0
H1831 H 0.01844 0.86646 0.65388 0.0
C1832 C 0.97389 0.98296 0.60671 0.0
C1833 C 0.94642 0.99183 0.60392 0.0
C1834 C 0.98018 0.95577 0.61505 0.0
C1835 C 0.9592 0.93676 0.62132 0.0
C1836 C 0.93173 0.94596 0.61902 0.0
C1837 C 0.92544 0.97295 0.6102 0.0
C1838 C 0.95535 0.85787 0.62207 0.0
C1839 C 0.98094 0.85052 0.63421 0.0
C1840 C 0.94784 0.88567 0.61915 0.0
C1841 C 0.96575 0.90709 0.62837 0.0
C1842 C 0.99066 0.89956 0.6424 0.0
C1843 C 0.99827 0.87154 0.6451 0.0
H1844 H 0.81873 0.21252 0.22083 0.0
H1845 H 0.83326 0.21247 0.13227 0.0
H1846 H 0.82071 0.16228 0.22124 0.0
H1847 H 0.83507 0.16174 0.13265 0.0
H1848 H 0.81701 0.07204 0.2171 0.0
H1849 H 0.80048 0.11811 0.20502 0.0
H1850 H 0.87095 0.13078 0.15402 0.0
H1851 H 0.88733 0.08445 0.16566 0.0
C1852 C 0.82173 0.20169 0.2013 0.0
C1853 C 0.82621 0.21639 0.17661 0.0
C1854 C 0.82263 0.17286 0.20148 0.0
C1855 C 0.82821 0.15808 0.17699 0.0
C1856 C 0.83095 0.17267 0.15185 0.0
C1857 C 0.82976 0.20164 0.15162 0.0
C1858 C 0.82874 0.08439 0.20288 0.0
C1859 C 0.85383 0.0748 0.19283 0.0
C1860 C 0.81922 0.11079 0.19595 0.0
C1861 C 0.8346 0.12816 0.1789 0.0
C1862 C 0.85854 0.11778 0.16707 0.0
C1863 C 0.86806 0.09131 0.17395 0.0
H1864 H 0.46482 0.93788 0.08569 0.0
H1865 H 0.48818 0.86931 0.03345 0.0
H1866 H 0.41689 0.92343 0.08072 0.0
H1867 H 0.44066 0.8539 0.02974 0.0
H1868 H 0.33584 0.88439 0.08813 0.0
H1869 H 0.38533 0.89072 0.09507 0.0
H1870 H 0.39698 0.86135 0.01081 0.0
H1871 H 0.34764 0.85345 0.00488 0.0
C1872 C 0.45972 0.91979 0.07304 0.0
C1873 C 0.4804 0.90495 0.05983 0.0
C1874 C 0.43221 0.91113 0.07054 0.0
C1875 C 0.42468 0.88705 0.05523 0.0
C1876 C 0.44538 0.87262 0.04151 0.0
C1877 C 0.47278 0.88157 0.04359 0.0
C1878 C 0.34923 0.87801 0.07168 0.0
C1879 C 0.33801 0.86813 0.04612 0.0
C1880 C 0.37757 0.88231 0.07532 0.0
C1881 C 0.39531 0.87754 0.05318 0.0
C1882 C 0.3842 0.8653 0.02843 0.0
C1883 C 0.35585 0.86044 0.02505 0.0
H1884 H 0.14537 0.26694 0.18591 0.0
H1885 H 0.20953 0.30206 0.13682 0.0
H1886 H 0.12603 0.31253 0.19289 0.0
H1887 H 0.19049 0.34852 0.14459 0.0
H1888 H 0.14499 0.42806 0.15177 0.0
H1889 H 0.15267 0.38049 0.13665 0.0
H1890 H 0.13848 0.35208 0.22049 0.0
H1891 H 0.13028 0.3997 0.23531 0.0
C1892 C 0.15542 0.28457 0.17661 0.0
C1893 C 0.17938 0.28104 0.1613 0.0
C1894 C 0.14429 0.31075 0.18069 0.0
C1895 C 0.15688 0.33433 0.16979 0.0
C1896 C 0.18014 0.33075 0.15321 0.0
C1897 C 0.1912 0.30424 0.14883 0.0
C1898 C 0.1424 0.41146 0.16666 0.0
C1899 C 0.13705 0.41754 0.19474 0.0
C1900 C 0.14731 0.38426 0.1581 0.0
C1901 C 0.14695 0.36249 0.17745 0.0
C1902 C 0.13892 0.3683 0.20493 0.0
C1903 C 0.1339 0.39559 0.21347 0.0
H1904 H 0.54341 0.59298 0.09732 0.0
H1905 H 0.51068 0.63365 0.02311 0.0
H1906 H 0.59017 0.60463 0.08337 0.0
H1907 H 0.55664 0.64574 0.0099 0.0
H1908 H 0.64321 0.62917 0.97691 0.0
H1909 H 0.59613 0.62442 0.992 0.0
H1910 H 0.62347 0.64224 0.07705 0.0
H1911 H 0.67087 0.64661 0.06159 0.0
C1912 C 0.54607 0.60432 0.07811 0.0
C1913 C 0.52301 0.61208 0.06137 0.0
C1914 C 0.5729 0.61132 0.07024 0.0
C1915 C 0.57736 0.62621 0.04541 0.0
C1916 C 0.55426 0.63398 0.0289 0.0
C1917 C 0.52768 0.62701 0.03666 0.0
C1918 C 0.63893 0.63341 -0.00142 0.0
C1919 C 0.6606 0.63917 0.01788 0.0
C1920 C 0.61192 0.63035 0.0074 0.0
C1921 C 0.60581 0.63263 0.0359 0.0
C1922 C 0.62736 0.63994 0.05502 0.0
C1923 C 0.65444 0.64316 0.04609 0.0
H1924 H 0.81114 0.79393 0.33966 0.0
H1925 H 0.88089 0.76899 0.2922 0.0
H1926 H 0.82686 0.84205 0.33789 0.0
H1927 H 0.89739 0.81637 0.29176 0.0
H1928 H 0.86325 0.92468 0.34368 0.0
H1929 H 0.86011 0.87519 0.35308 0.0
H1930 H 0.88652 0.85781 0.26943 0.0
H1931 H 0.89092 0.90711 0.26076 0.0
C1932 C 0.82987 0.79874 0.32905 0.0
C1933 C 0.84438 0.77787 0.31553 0.0
C1934 C 0.83916 0.8262 0.32834 0.0
C1935 C 0.86348 0.83313 0.31464 0.0
C1936 C 0.87834 0.81197 0.30197 0.0
C1937 C 0.86878 0.78477 0.30217 0.0
C1938 C 0.86943 0.91015 0.32778 0.0
C1939 C 0.87688 0.91957 0.30135 0.0
C1940 C 0.86721 0.88184 0.33298 0.0
C1941 C 0.87205 0.86252 0.3117 0.0
C1942 C 0.88253 0.87202 0.28636 0.0
C1943 C 0.88519 0.90036 0.28134 0.0
H1944 H 0.00892 0.8677 0.97111 0.0
H1945 H 0.03696 0.93943 0.92608 0.0
H1946 H 0.05646 0.85483 0.98178 0.0
H1947 H 0.08462 0.92632 0.93676 0.0
H1948 H 0.14076 0.82063 0.963 0.0
H1949 H 0.09435 0.83718 0.95302 0.0
H1950 H 0.11959 0.9202 0.97642 0.0
H1951 H 0.1663 0.90368 0.98647 0.0
C1952 C 0.02516 0.88094 0.96374 0.0
C1953 C 0.01899 0.90453 0.94755 0.0
C1954 C 0.05245 0.8734 0.96967 0.0
C1955 C 0.0743 0.88933 0.95975 0.0
C1956 C 0.06823 0.91363 0.9447 0.0
C1957 C 0.04089 0.92109 0.93856 0.0
C1958 C 0.13662 0.84249 0.96582 0.0
C1959 C 0.15741 0.86078 0.97569 0.0
C1960 C 0.10988 0.85192 0.96031 0.0
C1961 C 0.10319 0.87992 0.96434 0.0
C1962 C 0.12412 0.8985 0.97311 0.0
C1963 C 0.15092 0.88901 0.97885 0.0
H1964 H 0.18911 0.71196 0.36994 0.0
H1965 H 0.18191 0.72359 0.28063 0.0
H1966 H 0.18398 0.66164 0.36316 0.0
H1967 H 0.17709 0.67374 0.27384 0.0
H1968 H 0.18497 0.58152 0.26765 0.0
H1969 H 0.20098 0.62814 0.2796 0.0
H1970 H 0.14302 0.63217 0.34573 0.0
H1971 H 0.12691 0.5854 0.3339 0.0
C1972 C 0.18723 0.7037 0.34888 0.0
C1973 C 0.18589 0.72164 0.32581 0.0
C1974 C 0.18402 0.67498 0.34501 0.0
C1975 C 0.18002 0.66374 0.31797 0.0
C1976 C 0.18037 0.68166 0.29491 0.0
C1977 C 0.18305 0.71024 0.2988 0.0
C1978 C 0.17583 0.59211 0.285 0.0
C1979 C 0.15437 0.57974 0.29959 0.0
C1980 C 0.18502 0.61889 0.2918 0.0
C1981 C 0.17318 0.6339 0.31351 0.0
C1982 C 0.15271 0.62105 0.32904 0.0
C1983 C 0.14333 0.59432 0.32209 0.0
H1984 H 0.97054 0.61199 0.88898 0.0
H1985 H 0.98367 0.58878 0.97544 0.0
H1986 H 0.92235 0.62223 0.89788 0.0
H1987 H 0.93535 0.5985 0.98411 0.0
H1988 H 0.83881 0.59983 0.98059 0.0
H1989 H 0.88461 0.5831 0.9691 0.0
H1990 H 0.90145 0.66087 0.92881 0.0
H1991 H 0.85619 0.67779 0.94071 0.0
C1992 C 0.96304 0.60848 0.90972 0.0
C1993 C 0.98108 0.59964 0.9315 0.0
C1994 C 0.93546 0.61451 0.91486 0.0
C1995 C 0.92505 0.61128 0.94174 0.0
C1996 C 0.94268 0.60106 0.96316 0.0
C1997 C 0.9704 0.59559 0.95818 0.0
C1998 C 0.85215 0.61332 0.96919 0.0
C1999 C 0.8437 0.64026 0.96176 0.0
C2000 C 0.87847 0.60374 0.96267 0.0
C2001 C 0.89663 0.62062 0.94792 0.0
C2002 C 0.8879 0.64724 0.93994 0.0
C2003 C 0.86197 0.657 0.94698 0.0
H2004 H 0.14124 0.85407 0.22469 0.0
H2005 H 0.19727 0.78515 0.22717 0.0
H2006 H 0.15776 0.86746 0.17892 0.0
H2007 H 0.21338 0.79789 0.18124 0.0
H2008 H 0.26785 0.84999 0.13048 0.0
H2009 H 0.24281 0.83847 0.17203 0.0
H2010 H 0.16606 0.85701 0.12811 0.0
H2011 H 0.19141 0.86904 0.08638 0.0
C2012 C 0.15587 0.84082 0.21463 0.0
C2013 C 0.16777 0.81839 0.22919 0.0
C2014 C 0.16563 0.84872 0.18861 0.0
C2015 C 0.1875 0.83427 0.17695 0.0
C2016 C 0.19704 0.80991 0.19011 0.0
C2017 C 0.18739 0.80216 0.21609 0.0
C2018 C 0.24571 0.85254 0.13 0.0
C2019 C 0.23158 0.86032 0.10522 0.0
C2020 C 0.2313 0.84541 0.15359 0.0
C2021 C 0.20239 0.84573 0.15294 0.0
C2022 C 0.18832 0.85618 0.12908 0.0
C2023 C 0.20285 0.86346 0.10534 0.0
H2024 H 0.16985 0.20482 0.2782 0.0
H2025 H 0.22625 0.14039 0.25506 0.0
H2026 H 0.17069 0.18718 0.32592 0.0
H2027 H 0.22568 0.12167 0.30182 0.0
H2028 H 0.2464 0.12172 0.39668 0.0
H2029 H 0.24199 0.1296 0.34678 0.0
H2030 H 0.15651 0.15164 0.35522 0.0
H2031 H 0.1617 0.1454 0.40562 0.0
C2032 C 0.1824 0.18693 0.28334 0.0
C2033 C 0.19832 0.17435 0.26305 0.0
C2034 C 0.18254 0.17644 0.31054 0.0
C2035 C 0.19808 0.15273 0.31779 0.0
C2036 C 0.21384 0.14016 0.29729 0.0
C2037 C 0.21421 0.15101 0.27039 0.0
C2038 C 0.22639 0.12718 0.38771 0.0
C2039 C 0.20451 0.13339 0.40495 0.0
C2040 C 0.22383 0.13189 0.359 0.0
C2041 C 0.1991 0.14223 0.34699 0.0
C2042 C 0.17618 0.14482 0.3639 0.0
C2043 C 0.17894 0.1407 0.39269 0.0
H2044 H 0.42894 0.52719 0.98006 0.0
H2045 H 0.39998 0.61107 0.96908 0.0
H2046 H 0.41249 0.5157 0.93281 0.0
H2047 H 0.38212 0.59932 0.92241 0.0
H2048 H 0.3863 0.57471 0.82887 0.0
H2049 H 0.39438 0.58924 0.87708 0.0
H2050 H 0.37293 0.50689 0.90475 0.0
H2051 H 0.36634 0.49224 0.85597 0.0
C2052 C 0.41921 0.54322 0.96743 0.0
C2053 C 0.41607 0.5701 0.9782 0.0
C2054 C 0.40925 0.53653 0.94049 0.0
C2055 C 0.39541 0.55639 0.92379 0.0
C2056 C 0.39282 0.58348 0.93444 0.0
C2057 C 0.40324 0.5903 0.9612 0.0
C2058 C 0.38205 0.56015 0.84539 0.0
C2059 C 0.37529 0.53254 0.83888 0.0
C2060 C 0.38692 0.56838 0.87312 0.0
C2061 C 0.385 0.54911 0.89497 0.0
C2062 C 0.37543 0.52211 0.88845 0.0
C2063 C 0.37091 0.51382 0.86059 0.0
H2064 H 0.84787 0.30536 0.30442 0.0
H2065 H 0.76622 0.3144 0.26753 0.0
H2066 H 0.82972 0.31313 0.35083 0.0
H2067 H 0.74783 0.32105 0.31373 0.0
H2068 H 0.73523 0.37839 0.38829 0.0
H2069 H 0.75093 0.36023 0.34429 0.0
H2070 H 0.80099 0.29995 0.3889 0.0
H2071 H 0.7861 0.31897 0.43311 0.0
C2072 C 0.82591 0.30792 0.3064 0.0
C2073 C 0.80845 0.30959 0.28251 0.0
C2074 C 0.81547 0.31244 0.33294 0.0
C2075 C 0.78739 0.31839 0.33591 0.0
C2076 C 0.76967 0.31737 0.3121 0.0
C2077 C 0.78013 0.31327 0.28568 0.0
C2078 C 0.7495 0.3612 0.38878 0.0
C2079 C 0.75927 0.35007 0.41428 0.0
C2080 C 0.75831 0.35054 0.36349 0.0
C2081 C 0.77703 0.32838 0.36301 0.0
C2082 C 0.78665 0.31707 0.38851 0.0
C2083 C 0.77789 0.32783 0.41386 0.0
H2084 H 0.12302 0.48794 0.49303 0.0
H2085 H 0.07555 0.41736 0.46287 0.0
H2086 H 0.13513 0.49869 0.44537 0.0
H2087 H 0.08816 0.42789 0.41516 0.0
H2088 H 0.1016 0.46599 0.32888 0.0
H2089 H 0.08424 0.45956 0.37573 0.0
H2090 H 0.1648 0.479 0.41147 0.0
H2091 H 0.18191 0.48606 0.36494 0.0
C2092 C 0.11493 0.47481 0.47626 0.0
C2093 C 0.09842 0.45161 0.48203 0.0
C2094 C 0.12208 0.48088 0.44885 0.0
C2095 C 0.113 0.46395 0.42633 0.0
C2096 C 0.09545 0.44151 0.43189 0.0
C2097 C 0.08826 0.43541 0.45936 0.0
C2098 C 0.11554 0.4692 0.34672 0.0
C2099 C 0.14317 0.4767 0.34297 0.0
C2100 C 0.10562 0.46528 0.37364 0.0
C2101 C 0.12304 0.46886 0.39753 0.0
C2102 C 0.1506 0.47652 0.3937 0.0
C2103 C 0.1605 0.48035 0.36687 0.0
H2104 H 0.36071 0.19473 0.70702 0.0
H2105 H 0.27323 0.18006 0.71254 0.0
H2106 H 0.35618 0.19252 0.65625 0.0
H2107 H 0.26891 0.17778 0.66179 0.0
H2108 H 0.26556 0.18701 0.56988 0.0
H2109 H 0.27416 0.20393 0.6172 0.0
H2110 H 0.3453 0.15094 0.62556 0.0
H2111 H 0.33711 0.1343 0.57778 0.0
C2112 C 0.34042 0.19157 0.69745 0.0
C2113 C 0.31735 0.18712 0.71385 0.0
C2114 C 0.33793 0.19023 0.66839 0.0
C2115 C 0.3123 0.18472 0.65522 0.0
C2116 C 0.28892 0.18223 0.67146 0.0
C2117 C 0.29142 0.18337 0.70054 0.0
C2118 C 0.2835 0.17948 0.58143 0.0
C2119 C 0.30057 0.15914 0.57011 0.0
C2120 C 0.28827 0.18908 0.60862 0.0
C2121 C 0.3102 0.17856 0.62502 0.0
C2122 C 0.32833 0.15954 0.61321 0.0
C2123 C 0.32352 0.14986 0.58596 0.0
H2124 H 0.39056 0.48901 0.50494 0.0
H2125 H 0.42777 0.41222 0.53267 0.0
H2126 H 0.38009 0.50033 0.55298 0.0
H2127 H 0.41691 0.42351 0.58079 0.0
H2128 H 0.40829 0.46193 0.66824 0.0
H2129 H 0.42524 0.45475 0.62122 0.0
H2130 H 0.34731 0.48245 0.58575 0.0
H2131 H 0.33058 0.48997 0.6324 0.0
C2132 C 0.39683 0.47464 0.52125 0.0
C2133 C 0.40982 0.44952 0.5147 0.0
C2134 C 0.39062 0.48108 0.54886 0.0
C2135 C 0.39727 0.46267 0.57077 0.0
C2136 C 0.41157 0.43825 0.56449 0.0
C2137 C 0.41774 0.43174 0.53681 0.0
C2138 C 0.39487 0.46673 0.6504 0.0
C2139 C 0.36803 0.47656 0.65422 0.0
C2140 C 0.40454 0.46244 0.62343 0.0
C2141 C 0.38771 0.4681 0.59963 0.0
C2142 C 0.36104 0.47825 0.60352 0.0
C2143 C 0.35133 0.48236 0.63038 0.0
H2144 H 0.57971 0.01909 0.52082 0.0
H2145 H 0.61558 0.10072 0.53002 0.0
H2146 H 0.59835 0.00667 0.56707 0.0
H2147 H 0.63601 0.08794 0.57505 0.0
H2148 H 0.64297 0.98198 0.64342 0.0
H2149 H 0.63692 0.99546 0.59445 0.0
H2150 H 0.6255 0.08058 0.62056 0.0
H2151 H 0.6335 0.06704 0.66884 0.0
C2152 C 0.59151 0.03434 0.53287 0.0
C2153 C 0.59555 0.06104 0.52231 0.0
C2154 C 0.60273 0.02713 0.55912 0.0
C2155 C 0.61896 0.04623 0.57492 0.0
C2156 C 0.62321 0.07284 0.56394 0.0
C2157 C 0.61134 0.08025 0.53814 0.0
C2158 C 0.64077 0.00375 0.63831 0.0
C2159 C 0.6391 0.02362 0.65956 0.0
C2160 C 0.63658 0.01144 0.61037 0.0
C2161 C 0.62981 0.03901 0.60345 0.0
C2162 C 0.63079 0.0592 0.6248 0.0
C2163 C 0.63558 0.05155 0.65259 0.0
H2164 H 0.72246 0.73698 0.32426 0.0
H2165 H 0.71604 0.64807 0.3319 0.0
H2166 H 0.67537 0.74178 0.33955 0.0
H2167 H 0.66988 0.65276 0.34886 0.0
H2168 H 0.57756 0.66921 0.3414 0.0
H2169 H 0.62576 0.66204 0.3341 0.0
H2170 H 0.64501 0.73935 0.3767 0.0
H2171 H 0.59587 0.7473 0.3825 0.0
C2172 C 0.7109 0.71847 0.32912 0.0
C2173 C 0.72271 0.69213 0.32626 0.0
C2174 C 0.68406 0.72121 0.3384 0.0
C2175 C 0.66863 0.69768 0.34566 0.0
C2176 C 0.68072 0.67137 0.34297 0.0
C2177 C 0.70724 0.66863 0.33309 0.0
C2178 C 0.59208 0.68445 0.3498 0.0
C2179 C 0.58283 0.70909 0.36204 0.0
C2180 C 0.61994 0.68028 0.34569 0.0
C2181 C 0.63951 0.70039 0.35421 0.0
C2182 C 0.63048 0.7238 0.36906 0.0
C2183 C 0.60235 0.72814 0.37291 0.0
H2184 H 0.90459 0.03752 0.89894 0.0
H2185 H 0.99057 0.01752 0.89319 0.0
H2186 H 0.91394 0.08478 0.88515 0.0
H2187 H 1.00057 0.06569 0.88132 0.0
H2188 H 0.01179 0.15167 0.847 0.0
H2189 H 0.99854 0.10253 0.84962 0.0
H2190 H 0.93163 0.12503 0.90243 0.0
H2191 H 0.94398 0.1733 0.89821 0.0
C2192 C 0.92568 0.04346 0.89541 0.0
C2193 C 0.94691 0.02389 0.89772 0.0
C2194 C 0.93113 0.0707 0.88744 0.0
C2195 C 0.95814 0.07952 0.88232 0.0
C2196 C 0.97943 0.05981 0.88461 0.0
C2197 C 0.97382 0.03224 0.89187 0.0
C2198 C 0.99353 0.14593 0.858 0.0
C2199 C 0.97853 0.16616 0.87195 0.0
C2200 C 0.98624 0.11777 0.86009 0.0
C2201 C 0.96408 0.10944 0.87653 0.0
C2202 C 0.94842 0.1302 0.88912 0.0
C2203 C 0.95547 0.15807 0.88672 0.0
H2204 H 0.28423 0.87089 0.32519 0.0
H2205 H 0.27959 0.78326 0.30693 0.0
H2206 H 0.33425 0.86718 0.33249 0.0
H2207 H 0.32885 0.77933 0.31478 0.0
H2208 H 0.41072 0.83551 0.38643 0.0
H2209 H 0.36434 0.84684 0.36891 0.0
H2210 H 0.37347 0.78987 0.3 0.0
H2211 H 0.41868 0.77749 0.31834 0.0
C2212 C 0.29399 0.85106 0.3219 0.0
C2213 C 0.27807 0.82735 0.31551 0.0
C2214 C 0.32255 0.84883 0.32649 0.0
C2215 C 0.33559 0.82291 0.32449 0.0
C2216 C 0.3197 0.79969 0.31622 0.0
C2217 C 0.29136 0.8019 0.31179 0.0
C2218 C 0.40286 0.82554 0.36745 0.0
C2219 C 0.4185 0.80544 0.35386 0.0
C2220 C 0.37637 0.83227 0.35722 0.0
C2221 C 0.36505 0.81916 0.33309 0.0
C2222 C 0.38128 0.80008 0.31886 0.0
C2223 C 0.40745 0.79314 0.32927 0.0
H2224 H 0.01981 0.50292 0.87626 0.0
H2225 H 0.09877 0.47467 0.90896 0.0
H2226 H 0.00571 0.45516 0.86772 0.0
H2227 H 0.08467 0.42675 0.89987 0.0
H2228 H 0.04134 0.34173 0.89924 0.0
H2229 H 0.0526 0.3894 0.91348 0.0
H2230 H 0.01794 0.41925 0.83496 0.0
H2231 H 0.00635 0.37219 0.82103 0.0
C2232 C 0.03422 0.48657 0.88163 0.0
C2233 C 0.06057 0.49278 0.89307 0.0
C2234 C 0.02611 0.45913 0.87665 0.0
C2235 C 0.04412 0.43712 0.88294 0.0
C2236 C 0.07022 0.4432 0.89503 0.0
C2237 C 0.07837 0.47072 0.90002 0.0
C2238 C 0.03583 0.35853 0.88522 0.0
C2239 C 0.02296 0.35307 0.85898 0.0
C2240 C 0.04248 0.3858 0.89327 0.0
C2241 C 0.03618 0.40815 0.87535 0.0
C2242 C 0.02278 0.40263 0.84945 0.0
C2243 C 0.01629 0.37552 0.84138 0.0
H2244 H 0.72667 0.34368 0.20235 0.0
H2245 H 0.74178 0.30214 0.12433 0.0
H2246 H 0.67713 0.34041 0.19213 0.0
H2247 H 0.69279 0.30008 0.11342 0.0
H2248 H 0.60504 0.26645 0.12327 0.0
H2249 H 0.65424 0.27531 0.12696 0.0
H2250 H 0.63908 0.35542 0.16417 0.0
H2251 H 0.58988 0.34591 0.16154 0.0
C2252 C 0.71939 0.3342 0.1829 0.0
C2253 C 0.73801 0.32273 0.16443 0.0
C2254 C 0.69104 0.33249 0.17686 0.0
C2255 C 0.68086 0.31976 0.15196 0.0
C2256 C 0.69972 0.30937 0.13307 0.0
C2257 C 0.72787 0.31062 0.13933 0.0
C2258 C 0.61219 0.28621 0.13162 0.0
C2259 C 0.59364 0.3053 0.14246 0.0
C2260 C 0.64047 0.29136 0.13378 0.0
C2261 C 0.65077 0.31592 0.14641 0.0
C2262 C 0.63198 0.33595 0.15513 0.0
C2263 C 0.60375 0.33064 0.15331 0.0
H2264 H 0.52103 0.01338 0.11778 0.0
H2265 H 0.59762 0.03893 0.0825 0.0
H2266 H 0.5112 0.06129 0.12958 0.0
H2267 H 0.58786 0.08705 0.09479 0.0
H2268 H 0.52044 0.14102 0.18069 0.0
H2269 H 0.52853 0.09439 0.16364 0.0
H2270 H 0.55853 0.12778 0.08681 0.0
H2271 H 0.55092 0.17482 0.10421 0.0
C2272 C 0.53574 0.02919 0.11229 0.0
C2273 C 0.56028 0.02202 0.09931 0.0
C2274 C 0.53015 0.05677 0.11929 0.0
C2275 C 0.5489 0.07815 0.11359 0.0
C2276 C 0.57286 0.07123 0.09944 0.0
C2277 C 0.57849 0.04354 0.09241 0.0
C2278 C 0.52874 0.13858 0.16013 0.0
C2279 C 0.53486 0.1619 0.14384 0.0
C2280 C 0.53319 0.11168 0.15021 0.0
C2281 C 0.54399 0.10713 0.12368 0.0
C2282 C 0.5503 0.13042 0.10738 0.0
C2283 C 0.54572 0.15744 0.11729 0.0
H2284 H 0.29579 0.16557 0.19227 0.0
H2285 H 0.28612 0.20124 0.10986 0.0
H2286 H 0.34598 0.171 0.19002 0.0
H2287 H 0.33587 0.20602 0.10751 0.0
H2288 H 0.4256 0.18032 0.10093 0.0
H2289 H 0.37707 0.17033 0.10726 0.0
H2290 H 0.38029 0.21553 0.18523 0.0
H2291 H 0.42894 0.22613 0.17876 0.0
C2292 C 0.30435 0.17437 0.17367 0.0
C2293 C 0.28697 0.18302 0.15127 0.0
C2294 C 0.33299 0.17757 0.17245 0.0
C2295 C 0.34473 0.18879 0.14854 0.0
C2296 C 0.32737 0.1971 0.1261 0.0
C2297 C 0.29887 0.19449 0.12754 0.0
C2298 C 0.41619 0.18787 0.11966 0.0
C2299 C 0.43125 0.2042 0.13928 0.0
C2300 C 0.38834 0.18219 0.1232 0.0
C2301 C 0.37494 0.19226 0.14665 0.0
C2302 C 0.39019 0.2074 0.16702 0.0
C2303 C 0.41802 0.21353 0.16325 0.0
H2304 H 0.49211 0.49442 0.10365 0.0
H2305 H 0.40539 0.47503 0.09809 0.0
H2306 H 0.50213 0.44654 0.11661 0.0
H2307 H 0.41509 0.42777 0.1125 0.0
H2308 H 0.44447 0.33852 0.10122 0.0
H2309 H 0.43176 0.38673 0.09609 0.0
H2310 H 0.50141 0.41059 0.14964 0.0
H2311 H 0.51472 0.36162 0.15353 0.0
C2312 C 0.47515 0.47996 0.1053 0.0
C2313 C 0.44797 0.48856 0.09932 0.0
C2314 C 0.48086 0.45248 0.11314 0.0
C2315 C 0.4595 0.43289 0.11569 0.0
C2316 C 0.43227 0.44181 0.11022 0.0
C2317 C 0.42664 0.46907 0.10191 0.0
C2318 C 0.45648 0.35402 0.11274 0.0
C2319 C 0.48025 0.34629 0.1282 0.0
C2320 C 0.44925 0.38186 0.10975 0.0
C2321 C 0.46558 0.403 0.12222 0.0
C2322 C 0.48854 0.39507 0.13926 0.0
C2323 C 0.49589 0.36697 0.14208 0.0
H2324 H 0.33783 0.71448 0.63248 0.0
H2325 H 0.31235 0.71295 0.718 0.0
H2326 H 0.34067 0.66379 0.63255 0.0
H2327 H 0.31566 0.66287 0.71834 0.0
H2328 H 0.39077 0.58723 0.66803 0.0
H2329 H 0.374 0.63322 0.6558 0.0
H2330 H 0.30067 0.61818 0.70198 0.0
H2331 H 0.31785 0.57259 0.71497 0.0
C2332 C 0.33206 0.70329 0.65097 0.0
C2333 C 0.3252 0.71762 0.67535 0.0
C2334 C 0.33395 0.67431 0.65112 0.0
C2335 C 0.32874 0.65929 0.67555 0.0
C2336 C 0.31962 0.67365 0.69907 0.0
C2337 C 0.3179 0.70245 0.69897 0.0
C2338 C 0.37086 0.59354 0.67521 0.0
C2339 C 0.35591 0.57642 0.69297 0.0
C2340 C 0.3611 0.61986 0.66796 0.0
C2341 C 0.33611 0.62952 0.67816 0.0
C2342 C 0.32024 0.61156 0.6942 0.0
C2343 C 0.3301 0.58539 0.70163 0.0
H2344 H 0.96592 0.43864 0.58242 0.0
H2345 H 0.99047 0.3705 0.53022 0.0
H2346 H 0.91821 0.42374 0.57701 0.0
H2347 H 0.9429 0.35483 0.52577 0.0
H2348 H 0.8491 0.35458 0.50107 0.0
H2349 H 0.89854 0.36271 0.50664 0.0
H2350 H 0.88763 0.38976 0.59176 0.0
H2351 H 0.83815 0.38297 0.58537 0.0
C2352 C 0.96114 0.42055 0.56965 0.0
C2353 C 0.98216 0.4059 0.55672 0.0
C2354 C 0.93373 0.41167 0.56688 0.0
C2355 C 0.92651 0.3876 0.55144 0.0
C2356 C 0.94746 0.37347 0.53775 0.0
C2357 C 0.97485 0.38257 0.54024 0.0
C2358 C 0.8575 0.36108 0.52132 0.0
C2359 C 0.83984 0.36792 0.54287 0.0
C2360 C 0.88589 0.36609 0.52449 0.0
C2361 C 0.89721 0.37778 0.54941 0.0
C2362 C 0.87969 0.38175 0.5719 0.0
C2363 C 0.85135 0.3772 0.56854 0.0
H2364 H 0.67001 0.78546 0.62406 0.0
H2365 H 0.70511 0.78312 0.708 0.0
H2366 H 0.65103 0.83136 0.63331 0.0
H2367 H 0.68729 0.8292 0.71703 0.0
H2368 H 0.63351 0.8976 0.73971 0.0
H2369 H 0.6439 0.85012 0.72551 0.0
H2370 H 0.66035 0.87895 0.6423 0.0
H2371 H 0.64894 0.92583 0.65629 0.0
C2372 C 0.67457 0.79524 0.6441 0.0
C2373 C 0.68907 0.78078 0.66529 0.0
C2374 C 0.6634 0.8214 0.64957 0.0
C2375 C 0.66681 0.83366 0.67627 0.0
C2376 C 0.68326 0.82 0.69662 0.0
C2377 C 0.6941 0.79387 0.69124 0.0
C2378 C 0.63797 0.89348 0.71807 0.0
C2379 C 0.64065 0.91537 0.69918 0.0
C2380 C 0.64459 0.8664 0.71003 0.0
C2381 C 0.65403 0.86085 0.68301 0.0
C2382 C 0.65343 0.88234 0.6633 0.0
C2383 C 0.64671 0.90926 0.67129 0.0
H2384 H 0.04144 0.09714 0.59899 0.0
H2385 H 0.00979 0.1286 0.51985 0.0
H2386 H 0.08835 0.10765 0.58487 0.0
H2387 H 0.05596 0.13964 0.50634 0.0
H2388 H 0.14355 0.12072 0.47753 0.0
H2389 H 0.0962 0.11691 0.49203 0.0
H2390 H 0.12135 0.14455 0.57504 0.0
H2391 H 0.16907 0.14792 0.56022 0.0
C2392 C 0.04437 0.10623 0.57865 0.0
C2393 C 0.02158 0.11171 0.5606 0.0
C2394 C 0.0713 0.11259 0.57065 0.0
C2395 C 0.07614 0.12456 0.54437 0.0
C2396 C 0.0533 0.13011 0.52652 0.0
C2397 C 0.0266 0.12376 0.53443 0.0
C2398 C 0.13872 0.12718 0.4985 0.0
C2399 C 0.15986 0.13545 0.51747 0.0
C2400 C 0.11156 0.12473 0.507 0.0
C2401 C 0.10475 0.13016 0.53488 0.0
C2402 C 0.12578 0.13982 0.55353 0.0
C2403 C 0.15303 0.14241 0.5449 0.0
H2404 H 0.31984 0.29109 0.84276 0.0
H2405 H 0.39013 0.26877 0.79493 0.0
H2406 H 0.33311 0.33988 0.83989 0.0
H2407 H 0.40427 0.31697 0.79332 0.0
H2408 H 0.36486 0.42478 0.8421 0.0
H2409 H 0.36434 0.37553 0.85313 0.0
H2410 H 0.39042 0.35693 0.76962 0.0
H2411 H 0.39219 0.40616 0.75929 0.0
C2412 C 0.33828 0.29663 0.83198 0.0
C2413 C 0.35356 0.27632 0.81853 0.0
C2414 C 0.34614 0.32451 0.83056 0.0
C2415 C 0.36977 0.33244 0.8162 0.0
C2416 C 0.38565 0.31178 0.80395 0.0
C2417 C 0.37751 0.28413 0.80488 0.0
C2418 C 0.37142 0.4101 0.82651 0.0
C2419 C 0.37816 0.4191 0.79972 0.0
C2420 C 0.37075 0.38189 0.83268 0.0
C2421 C 0.37643 0.36218 0.81201 0.0
C2422 C 0.38589 0.37144 0.78612 0.0
C2423 C 0.38699 0.39972 0.78013 0.0
H2424 H 0.53488 0.40866 0.39653 0.0
H2425 H 0.51611 0.40227 0.48387 0.0
H2426 H 0.58278 0.397 0.40784 0.0
H2427 H 0.56439 0.39123 0.49513 0.0
H2428 H 0.66066 0.39785 0.50286 0.0
H2429 H 0.61449 0.41505 0.49054 0.0
H2430 H 0.60423 0.35014 0.42877 0.0
H2431 H 0.65007 0.33248 0.44148 0.0
C2432 C 0.54104 0.40529 0.41821 0.0
C2433 C 0.52159 0.40638 0.43931 0.0
C2434 C 0.56846 0.39846 0.42461 0.0
C2435 C 0.57724 0.39317 0.45232 0.0
C2436 C 0.55815 0.39536 0.4736 0.0
C2437 C 0.53053 0.4016 0.46714 0.0
C2438 C 0.64871 0.38748 0.48638 0.0
C2439 C 0.65903 0.36382 0.4731 0.0
C2440 C 0.62223 0.39721 0.47952 0.0
C2441 C 0.60582 0.38388 0.45876 0.0
C2442 C 0.61652 0.36087 0.44477 0.0
C2443 C 0.64271 0.35075 0.45207 0.0
H2444 H 0.68193 0.21227 0.87335 0.0
H2445 H 0.68808 0.22178 0.78416 0.0
H2446 H 0.67623 0.16198 0.86698 0.0
H2447 H 0.68242 0.17203 0.77778 0.0
H2448 H 0.62233 0.08599 0.83345 0.0
H2449 H 0.63813 0.13267 0.84591 0.0
H2450 H 0.7025 0.12613 0.7864 0.0
H2451 H 0.68662 0.07969 0.77367 0.0
C2452 C 0.68285 0.20353 0.85252 0.0
C2453 C 0.68546 0.22092 0.82925 0.0
C2454 C 0.67928 0.17482 0.84882 0.0
C2455 C 0.67871 0.16298 0.82184 0.0
C2456 C 0.683 0.18032 0.79885 0.0
C2457 C 0.68616 0.20889 0.8025 0.0
C2458 C 0.64003 0.09436 0.82321 0.0
C2459 C 0.65294 0.07911 0.80228 0.0
C2460 C 0.64924 0.12107 0.83055 0.0
C2461 C 0.6715 0.13322 0.81705 0.0
C2462 C 0.6851 0.11753 0.79697 0.0
C2463 C 0.67599 0.09082 0.78972 0.0
H2464 H 0.46616 0.09044 0.3976 0.0
H2465 H 0.49024 0.11478 0.48197 0.0
H2466 H 0.41802 0.10058 0.40759 0.0
H2467 H 0.4427 0.12482 0.49163 0.0
H2468 H 0.36486 0.17809 0.48444 0.0
H2469 H 0.41093 0.16207 0.47496 0.0
H2470 H 0.37716 0.08692 0.43833 0.0
H2471 H 0.33053 0.10299 0.44803 0.0
C2472 C 0.46127 0.09756 0.41832 0.0
C2473 C 0.48238 0.10201 0.43881 0.0
C2474 C 0.43364 0.10332 0.42406 0.0
C2475 C 0.4265 0.11389 0.45032 0.0
C2476 C 0.44745 0.1172 0.47103 0.0
C2477 C 0.47484 0.11129 0.46544 0.0
C2478 C 0.36709 0.15807 0.47448 0.0
C2479 C 0.34382 0.14186 0.46709 0.0
C2480 C 0.39362 0.14881 0.46913 0.0
C2481 C 0.39784 0.12315 0.45592 0.0
C2482 C 0.37464 0.10684 0.4484 0.0
C2483 C 0.34794 0.11597 0.45416 0.0
H2484 H 0.7063 0.28744 0.72816 0.0
H2485 H 0.64495 0.35158 0.72389 0.0
H2486 H 0.722 0.30087 0.6823 0.0
H2487 H 0.66117 0.36589 0.67823 0.0
H2488 H 0.69347 0.36771 0.58555 0.0
H2489 H 0.66983 0.35583 0.62832 0.0
H2490 H 0.74843 0.34186 0.67062 0.0
H2491 H 0.77175 0.35289 0.62788 0.0
C2492 C 0.6954 0.30363 0.71676 0.0
C2493 C 0.67419 0.3182 0.72921 0.0
C2494 C 0.70476 0.31181 0.69082 0.0
C2495 C 0.69345 0.33511 0.6771 0.0
C2496 C 0.67042 0.348 0.68834 0.0
C2497 C 0.66087 0.33958 0.71428 0.0
C2498 C 0.70564 0.36317 0.60436 0.0
C2499 C 0.73442 0.3611 0.60347 0.0
C2500 C 0.6921 0.35601 0.62873 0.0
C2501 C 0.70723 0.34685 0.6525 0.0
C2502 C 0.73612 0.34776 0.65232 0.0
C2503 C 0.74955 0.35464 0.62804 0.0
H2504 H 0.71906 0.63681 0.75633 0.0
H2505 H 0.66638 0.7042 0.77975 0.0
H2506 H 0.71788 0.61822 0.8032 0.0
H2507 H 0.6667 0.68679 0.82761 0.0
H2508 H 0.66031 0.64892 0.90933 0.0
H2509 H 0.65271 0.6531 0.85893 0.0
H2510 H 0.7365 0.62683 0.84706 0.0
H2511 H 0.74321 0.62103 0.89704 0.0
C2512 C 0.70768 0.648 0.7718 0.0
C2513 C 0.6933 0.67233 0.76468 0.0
C2514 C 0.70694 0.63727 0.7987 0.0
C2515 C 0.69237 0.65098 0.81942 0.0
C2516 C 0.67774 0.67528 0.81215 0.0
C2517 C 0.67788 0.68561 0.78489 0.0
C2518 C 0.67662 0.6429 0.89571 0.0
C2519 C 0.70245 0.63504 0.90694 0.0
C2520 C 0.67247 0.64577 0.86689 0.0
C2521 C 0.69429 0.64138 0.8489 0.0
C2522 C 0.71914 0.63048 0.8601 0.0
C2523 C 0.72305 0.62701 0.88888 0.0
H2524 H 0.91916 0.02386 0.48374 0.0
H2525 H 0.89538 0.10917 0.47128 0.0
H2526 H 0.90341 0.01289 0.43602 0.0
H2527 H 0.87804 0.09806 0.42444 0.0
H2528 H 0.86133 0.99306 0.35497 0.0
H2529 H 0.86621 0.00606 0.40442 0.0
H2530 H 0.89218 0.08823 0.38033 0.0
H2531 H 0.8858 0.07542 0.33157 0.0
C2532 C 0.91061 0.04026 0.47075 0.0
C2533 C 0.90906 0.06747 0.4811 0.0
C2534 C 0.90108 0.03391 0.44351 0.0
C2535 C 0.88918 0.0545 0.42616 0.0
C2536 C 0.88749 0.08168 0.43677 0.0
C2537 C 0.89758 0.08812 0.46371 0.0
C2538 C 0.86655 0.0143 0.36049 0.0
C2539 C 0.87262 0.03347 0.33963 0.0
C2540 C 0.87008 0.02162 0.38878 0.0
C2541 C 0.88024 0.04808 0.39661 0.0
C2542 C 0.88408 0.06779 0.37546 0.0
C2543 C 0.88024 0.06055 0.34735 0.0
H2544 H 0.26701 0.80815 0.77106 0.0
H2545 H 0.34895 0.80294 0.80806 0.0
H2546 H 0.24835 0.81467 0.81717 0.0
H2547 H 0.33054 0.8107 0.85432 0.0
H2548 H 0.28756 0.81817 0.93651 0.0
H2549 H 0.30264 0.79794 0.89292 0.0
H2550 H 0.24999 0.85466 0.84649 0.0
H2551 H 0.23403 0.87386 0.88992 0.0
C2552 C 0.28092 0.80775 0.78924 0.0
C2553 C 0.30938 0.80523 0.78612 0.0
C2554 C 0.27031 0.81181 0.8156 0.0
C2555 C 0.28801 0.81402 0.83936 0.0
C2556 C 0.3163 0.80908 0.83648 0.0
C2557 C 0.3269 0.80456 0.81002 0.0
C2558 C 0.27878 0.82591 0.91701 0.0
C2559 C 0.25935 0.84745 0.91675 0.0
C2560 C 0.28765 0.81448 0.892 0.0
C2561 C 0.27739 0.82447 0.86616 0.0
C2562 C 0.25788 0.84595 0.86598 0.0
C2563 C 0.24893 0.85724 0.89093 0.0
H2564 H 0.57459 0.91576 0.96402 0.0
H2565 H 0.62149 0.98604 0.99587 0.0
H2566 H 0.58754 0.92723 0.91666 0.0
H2567 H 0.63384 0.99782 0.94855 0.0
H2568 H 0.68167 0.98672 0.86867 0.0
H2569 H 0.66394 0.97916 0.91484 0.0
H2570 H 0.5841 0.95899 0.87774 0.0
H2571 H 0.60213 0.96573 0.83129 0.0
C2572 C 0.58719 0.93398 0.96093 0.0
C2573 C 0.59719 0.94977 0.98394 0.0
C2574 C 0.59459 0.94061 0.93368 0.0
C2575 C 0.6121 0.96325 0.92871 0.0
C2576 C 0.62087 0.97985 0.95158 0.0
C2577 C 0.61359 0.97319 0.97878 0.0
C2578 C 0.66029 0.98075 0.87024 0.0
C2579 C 0.64337 0.97695 0.84609 0.0
C2580 C 0.65002 0.97664 0.89685 0.0
C2581 C 0.62248 0.96862 0.90017 0.0
C2582 C 0.60545 0.96497 0.87604 0.0
C2583 C 0.61576 0.96909 0.84934 0.0
H2584 H 0.86006 0.68838 0.21035 0.0
H2585 H 0.77186 0.67741 0.21324 0.0
H2586 H 0.85682 0.68692 0.15946 0.0
H2587 H 0.76882 0.67581 0.16241 0.0
H2588 H 0.76784 0.68782 0.07098 0.0
H2589 H 0.7762 0.70311 0.11892 0.0
H2590 H 0.84497 0.64701 0.12707 0.0
H2591 H 0.83704 0.63202 0.07874 0.0
C2592 C 0.83993 0.6861 0.20017 0.0
C2593 C 0.81621 0.68265 0.21585 0.0
C2594 C 0.83816 0.68519 0.17106 0.0
C2595 C 0.81264 0.68113 0.15711 0.0
C2596 C 0.78876 0.67924 0.17268 0.0
C2597 C 0.79052 0.67993 0.20179 0.0
C2598 C 0.78526 0.6793 0.08263 0.0
C2599 C 0.80167 0.65853 0.07109 0.0
C2600 C 0.78987 0.68794 0.11017 0.0
C2601 C 0.811 0.67602 0.1267 0.0
C2602 C 0.82862 0.65666 0.11467 0.0
C2603 C 0.82396 0.64794 0.08707 0.0
H2604 H 0.92993 0.91699 0.03275 0.0
H2605 H 0.8812 0.98677 0.0043 0.0
H2606 H 0.91926 0.9278 0.08092 0.0
H2607 H 0.87113 0.99794 0.05252 0.0
H2608 H 0.82713 0.98473 0.13435 0.0
H2609 H 0.84292 0.97833 0.08733 0.0
H2610 H 0.92433 0.9592 0.12048 0.0
H2611 H 0.90822 0.96491 0.16802 0.0
C2612 C 0.91733 0.93494 0.03673 0.0
C2613 C 0.90621 0.9508 0.01442 0.0
C2614 C 0.9113 0.94123 0.06447 0.0
C2615 C 0.89403 0.96357 0.07072 0.0
C2616 C 0.88402 0.98021 0.04852 0.0
C2617 C 0.88997 0.9739 0.02079 0.0
C2618 C 0.84846 0.97923 0.13179 0.0
C2619 C 0.86636 0.97536 0.15519 0.0
C2620 C 0.85761 0.97581 0.10464 0.0
C2621 C 0.88499 0.96841 0.09992 0.0
C2622 C 0.90305 0.96472 0.12327 0.0
C2623 C 0.89386 0.9682 0.15058 0.0
H2624 H 0.07871 0.58972 0.03724 0.0
H2625 H 0.11331 0.51476 0.00347 0.0
H2626 H 0.09649 0.57713 0.08358 0.0
H2627 H 0.13169 0.50268 0.04967 0.0
H2628 H 0.1241 0.47797 0.14388 0.0
H2629 H 0.11654 0.48815 0.0945 0.0
H2630 H 0.14006 0.57349 0.11014 0.0
H2631 H 0.14703 0.56308 0.15993 0.0
C2632 C 0.08982 0.57042 0.03968 0.0
C2633 C 0.0945 0.55329 0.01653 0.0
C2634 C 0.10049 0.56347 0.06619 0.0
C2635 C 0.11611 0.53924 0.07019 0.0
C2636 C 0.11986 0.52155 0.04729 0.0
C2637 C 0.10913 0.52844 0.0208 0.0
C2638 C 0.12901 0.49854 0.13643 0.0
C2639 C 0.1363 0.51973 0.15545 0.0
C2640 C 0.12444 0.50448 0.10818 0.0
C2641 C 0.12699 0.5318 0.09853 0.0
C2642 C 0.13727 0.55237 0.11713 0.0
C2643 C 0.14188 0.54635 0.14548 0.0
loop_
_geom_bond_atom_site_label_1
_geom_bond_atom_site_label_2
_geom_bond_distance
_geom_bond_site_symmetry_2
_ccdc_geom_bond_type
Sc0 O3 2.025 . S
Sc0 O10 2.105 . S
Sc0 O13 2.105 . S
Sc0 O16 2.105 . S
Sc0 O19 2.105 . S
Sc1 O3 2.025 . S
Sc1 O11 2.105 . S
Sc1 O15 2.105 . S
Sc1 O17 2.105 . S
Sc1 O21 2.105 . S
Sc2 O3 2.025 . S
Sc2 O12 2.105 . S
Sc2 O14 2.105 . S
Sc2 O18 2.105 . S
Sc2 O20 2.105 . S
O3 Sc0 2.025 . S
O3 Sc1 2.025 . S
O3 Sc2 2.025 . S
C4 O10 1.268 . S
C4 O20 1.268 . S
C5 O11 1.268 . S
C5 O19 1.268 . S
C6 O12 1.268 . S
C6 O21 1.268 . S
C7 O13 1.268 . S
C7 O17 1.268 . S
C8 O14 1.268 . S
C8 O16 1.268 . S
C9 O15 1.268 . S
C9 O18 1.268 . S
O10 Sc0 2.105 . S
O10 C4 1.268 . S
O11 Sc1 2.105 . S
O11 C5 1.268 . S
O12 Sc2 2.105 . S
O12 C6 1.268 . S
O13 Sc0 2.105 . S
O13 C7 1.268 . S
O14 Sc2 2.105 . S
O14 C8 1.268 . S
O15 Sc1 2.105 . S
O15 C9 1.268 . S
O16 Sc0 2.105 . S
O16 C8 1.268 . S
O17 Sc1 2.105 . S
O17 C7 1.268 . S
O18 Sc2 2.105 . S
O18 C9 1.268 . S
O19 Sc0 2.105 . S
O19 C5 1.268 . S
O20 Sc2 2.105 . S
O20 C4 1.268 . S
O21 Sc1 2.105 . S
O21 C6 1.268 . S
Sc22 O25 2.025 . S
Sc22 O32 2.105 . S
Sc22 O35 2.105 . S
Sc22 O38 2.105 . S
Sc22 O41 2.105 . S
Sc23 O25 2.025 . S
Sc23 O33 2.105 . S
Sc23 O37 2.105 . S
Sc23 O39 2.105 . S
Sc23 O43 2.105 . S
Sc24 O25 2.025 . S
Sc24 O34 2.105 . S
Sc24 O36 2.105 . S
Sc24 O40 2.105 . S
Sc24 O42 2.105 . S
O25 Sc22 2.025 . S
O25 Sc23 2.025 . S
O25 Sc24 2.025 . S
C26 O32 1.268 . S
C26 O42 1.268 . S
C27 O33 1.268 . S
C27 O41 1.268 . S
C28 O34 1.268 . S
C28 O43 1.268 . S
C29 O35 1.268 . S
C29 O39 1.268 . S
C30 O36 1.268 . S
C30 O38 1.268 . S
C31 O37 1.268 . S
C31 O40 1.268 . S
O32 Sc22 2.105 . S
O32 C26 1.268 . S
O33 Sc23 2.105 . S
O33 C27 1.268 . S
O34 Sc24 2.105 . S
O34 C28 1.268 . S
O35 Sc22 2.105 . S
O35 C29 1.268 . S
O36 Sc24 2.105 . S
O36 C30 1.268 . S
O37 Sc23 2.105 . S
O37 C31 1.268 . S
O38 Sc22 2.105 . S
O38 C30 1.268 . S
O39 Sc23 2.105 . S
O39 C29 1.268 . S
O40 Sc24 2.105 . S
O40 C31 1.268 . S
O41 Sc22 2.105 . S
O41 C27 1.268 . S
O42 Sc24 2.105 . S
O42 C26 1.268 . S
O43 Sc23 2.105 . S
O43 C28 1.268 . S
Sc44 O47 2.025 . S
Sc44 O54 2.105 . S
Sc44 O57 2.105 . S
Sc44 O60 2.105 . S
Sc44 O63 2.105 . S
Sc45 O47 2.025 . S
Sc45 O55 2.105 . S
Sc45 O59 2.105 . S
Sc45 O61 2.105 . S
Sc45 O65 2.105 . S
Sc46 O47 2.025 . S
Sc46 O56 2.105 . S
Sc46 O58 2.105 . S
Sc46 O62 2.105 . S
Sc46 O64 2.105 . S
O47 Sc44 2.025 . S
O47 Sc45 2.025 . S
O47 Sc46 2.025 . S
C48 O54 1.268 . S
C48 O64 1.268 . S
C49 O55 1.268 . S
C49 O63 1.268 . S
C50 O56 1.268 . S
C50 O65 1.268 . S
C51 O57 1.268 . S
C51 O61 1.268 . S
C52 O58 1.268 . S
C52 O60 1.268 . S
C53 O59 1.268 . S
C53 O62 1.268 . S
O54 Sc44 2.105 . S
O54 C48 1.268 . S
O55 Sc45 2.105 . S
O55 C49 1.268 . S
O56 Sc46 2.105 . S
O56 C50 1.268 . S
O57 Sc44 2.105 . S
O57 C51 1.268 . S
O58 Sc46 2.105 . S
O58 C52 1.268 . S
O59 Sc45 2.105 . S
O59 C53 1.268 . S
O60 Sc44 2.105 . S
O60 C52 1.268 . S
O61 Sc45 2.105 . S
O61 C51 1.268 . S
O62 Sc46 2.105 . S
O62 C53 1.268 . S
O63 Sc44 2.105 . S
O63 C49 1.268 . S
O64 Sc46 2.105 . S
O64 C48 1.268 . S
O65 Sc45 2.105 . S
O65 C50 1.268 . S
Sc66 O69 2.025 . S
Sc66 O76 2.105 . S
Sc66 O79 2.105 . S
Sc66 O82 2.105 . S
Sc66 O85 2.105 . S
Sc67 O69 2.025 . S
Sc67 O77 2.105 . S
Sc67 O81 2.105 . S
Sc67 O83 2.105 . S
Sc67 O87 2.105 . S
Sc68 O69 2.025 . S
Sc68 O78 2.105 . S
Sc68 O80 2.105 . S
Sc68 O84 2.105 . S
Sc68 O86 2.105 . S
O69 Sc66 2.025 . S
O69 Sc67 2.025 . S
O69 Sc68 2.025 . S
C70 O76 1.268 . S
C70 O86 1.268 . S
C71 O77 1.268 . S
C71 O85 1.268 . S
C72 O78 1.268 . S
C72 O87 1.268 . S
C73 O79 1.268 . S
C73 O83 1.268 . S
C74 O80 1.268 . S
C74 O82 1.268 . S
C75 O81 1.268 . S
C75 O84 1.268 . S
O76 Sc66 2.105 . S
O76 C70 1.268 . S
O77 Sc67 2.105 . S
O77 C71 1.268 . S
O78 Sc68 2.105 . S
O78 C72 1.268 . S
O79 Sc66 2.105 . S
O79 C73 1.268 . S
O80 Sc68 2.105 . S
O80 C74 1.268 . S
O81 Sc67 2.105 . S
O81 C75 1.268 . S
O82 Sc66 2.105 . S
O82 C74 1.268 . S
O83 Sc67 2.105 . S
O83 C73 1.268 . S
O84 Sc68 2.105 . S
O84 C75 1.268 . S
O85 Sc66 2.105 . S
O85 C71 1.268 . S
O86 Sc68 2.105 . S
O86 C70 1.268 . S
O87 Sc67 2.105 . S
O87 C72 1.268 . S
Sc88 O91 2.025 . S
Sc88 O98 2.105 . S
Sc88 O101 2.105 . S
Sc88 O104 2.105 . S
Sc88 O107 2.105 . S
Sc89 O91 2.025 . S
Sc89 O99 2.105 . S
Sc89 O103 2.105 . S
Sc89 O105 2.105 . S
Sc89 O109 2.105 . S
Sc90 O91 2.025 . S
Sc90 O100 2.105 . S
Sc90 O102 2.105 . S
Sc90 O106 2.105 . S
Sc90 O108 2.105 . S
O91 Sc88 2.025 . S
O91 Sc89 2.025 . S
O91 Sc90 2.025 . S
C92 O98 1.268 . S
C92 O108 1.268 . S
C93 O99 1.268 . S
C93 O107 1.268 . S
C94 O100 1.268 . S
C94 O109 1.268 . S
C95 O101 1.268 . S
C95 O105 1.268 . S
C96 O102 1.268 . S
C96 O104 1.268 . S
C97 O103 1.268 . S
C97 O106 1.268 . S
O98 Sc88 2.105 . S
O98 C92 1.268 . S
O99 Sc89 2.105 . S
O99 C93 1.268 . S
O100 Sc90 2.105 . S
O100 C94 1.268 . S
O101 Sc88 2.105 . S
O101 C95 1.268 . S
O102 Sc90 2.105 . S
O102 C96 1.268 . S
O103 Sc89 2.105 . S
O103 C97 1.268 . S
O104 Sc88 2.105 . S
O104 C96 1.268 . S
O105 Sc89 2.105 . S
O105 C95 1.268 . S
O106 Sc90 2.105 . S
O106 C97 1.268 . S
O107 Sc88 2.105 . S
O107 C93 1.268 . S
O108 Sc90 2.105 . S
O108 C92 1.268 . S
O109 Sc89 2.105 . S
O109 C94 1.268 . S
Sc110 O113 2.025 . S
Sc110 O120 2.105 . S
Sc110 O123 2.105 . S
Sc110 O126 2.105 . S
Sc110 O129 2.105 . S
Sc111 O113 2.025 . S
Sc111 O121 2.105 . S
Sc111 O125 2.105 . S
Sc111 O127 2.105 . S
Sc111 O131 2.105 . S
Sc112 O113 2.025 . S
Sc112 O122 2.105 . S
Sc112 O124 2.105 . S
Sc112 O128 2.105 . S
Sc112 O130 2.105 . S
O113 Sc110 2.025 . S
O113 Sc111 2.025 . S
O113 Sc112 2.025 . S
C114 O120 1.268 . S
C114 O130 1.268 . S
C115 O121 1.268 . S
C115 O129 1.268 . S
C116 O122 1.268 . S
C116 O131 1.268 . S
C117 O123 1.268 . S
C117 O127 1.268 . S
C118 O124 1.268 1_554 S
C118 O126 1.268 1_554 S
C119 O125 1.268 . S
C119 O128 1.268 . S
O120 Sc110 2.105 . S
O120 C114 1.268 . S
O121 Sc111 2.105 . S
O121 C115 1.268 . S
O122 Sc112 2.105 . S
O122 C116 1.268 . S
O123 Sc110 2.105 . S
O123 C117 1.268 . S
O124 Sc112 2.105 . S
O124 C118 1.268 1_556 S
O125 Sc111 2.105 . S
O125 C119 1.268 . S
O126 Sc110 2.105 . S
O126 C118 1.268 1_556 S
O127 Sc111 2.105 . S
O127 C117 1.268 . S
O128 Sc112 2.105 . S
O128 C119 1.268 . S
O129 Sc110 2.105 . S
O129 C115 1.268 . S
O130 Sc112 2.105 . S
O130 C114 1.268 . S
O131 Sc111 2.105 . S
O131 C116 1.268 . S
Sc132 O135 2.025 . S
Sc132 O142 2.105 . S
Sc132 O145 2.105 . S
Sc132 O148 2.105 . S
Sc132 O151 2.105 . S
Sc133 O135 2.025 . S
Sc133 O143 2.105 . S
Sc133 O147 2.105 . S
Sc133 O149 2.105 . S
Sc133 O153 2.105 . S
Sc134 O135 2.025 . S
Sc134 O144 2.105 . S
Sc134 O146 2.105 . S
Sc134 O150 2.105 . S
Sc134 O152 2.105 . S
O135 Sc132 2.025 . S
O135 Sc133 2.025 . S
O135 Sc134 2.025 . S
C136 O142 1.268 . S
C136 O152 1.268 . S
C137 O143 1.268 . S
C137 O151 1.268 . S
C138 O144 1.268 . S
C138 O153 1.268 . S
C139 O145 1.268 . S
C139 O149 1.268 . S
C140 O146 1.268 . S
C140 O148 1.268 . S
C141 O147 1.268 . S
C141 O150 1.268 . S
O142 Sc132 2.105 . S
O142 C136 1.268 . S
O143 Sc133 2.105 . S
O143 C137 1.268 . S
O144 Sc134 2.105 . S
O144 C138 1.268 . S
O145 Sc132 2.105 . S
O145 C139 1.268 . S
O146 Sc134 2.105 . S
O146 C140 1.268 . S
O147 Sc133 2.105 . S
O147 C141 1.268 . S
O148 Sc132 2.105 . S
O148 C140 1.268 . S
O149 Sc133 2.105 . S
O149 C139 1.268 . S
O150 Sc134 2.105 . S
O150 C141 1.268 . S
O151 Sc132 2.105 . S
O151 C137 1.268 . S
O152 Sc134 2.105 . S
O152 C136 1.268 . S
O153 Sc133 2.105 . S
O153 C138 1.268 . S
Sc154 O157 2.025 . S
Sc154 O164 2.105 . S
Sc154 O167 2.105 . S
Sc154 O170 2.105 . S
Sc154 O173 2.105 . S
Sc155 O157 2.025 . S
Sc155 O165 2.105 . S
Sc155 O169 2.105 . S
Sc155 O171 2.105 . S
Sc155 O175 2.105 . S
Sc156 O157 2.025 . S
Sc156 O166 2.105 . S
Sc156 O168 2.105 . S
Sc156 O172 2.105 . S
Sc156 O174 2.105 . S
O157 Sc154 2.025 . S
O157 Sc155 2.025 . S
O157 Sc156 2.025 . S
C158 O164 1.268 . S
C158 O174 1.268 . S
C159 O165 1.268 . S
C159 O173 1.268 . S
C160 O166 1.268 . S
C160 O175 1.268 . S
C161 O167 1.268 . S
C161 O171 1.268 . S
C162 O168 1.268 . S
C162 O170 1.268 . S
C163 O169 1.268 . S
C163 O172 1.268 . S
O164 Sc154 2.105 . S
O164 C158 1.268 . S
O165 Sc155 2.105 . S
O165 C159 1.268 . S
O166 Sc156 2.105 . S
O166 C160 1.268 . S
O167 Sc154 2.105 . S
O167 C161 1.268 . S
O168 Sc156 2.105 . S
O168 C162 1.268 . S
O169 Sc155 2.105 . S
O169 C163 1.268 . S
O170 Sc154 2.105 . S
O170 C162 1.268 . S
O171 Sc155 2.105 . S
O171 C161 1.268 . S
O172 Sc156 2.105 . S
O172 C163 1.268 . S
O173 Sc154 2.105 . S
O173 C159 1.268 . S
O174 Sc156 2.105 . S
O174 C158 1.268 . S
O175 Sc155 2.105 . S
O175 C160 1.268 . S
Sc176 O179 2.025 . S
Sc176 O186 2.105 . S
Sc176 O189 2.105 . S
Sc176 O192 2.105 . S
Sc176 O195 2.105 . S
Sc177 O179 2.025 . S
Sc177 O187 2.105 . S
Sc177 O191 2.105 . S
Sc177 O193 2.105 . S
Sc177 O197 2.105 . S
Sc178 O179 2.025 . S
Sc178 O188 2.105 . S
Sc178 O190 2.105 . S
Sc178 O194 2.105 . S
Sc178 O196 2.105 . S
O179 Sc176 2.025 . S
O179 Sc177 2.025 . S
O179 Sc178 2.025 . S
C180 O186 1.268 . S
C180 O196 1.268 . S
C181 O187 1.268 . S
C181 O195 1.268 . S
C182 O188 1.268 . S
C182 O197 1.268 . S
C183 O189 1.268 . S
C183 O193 1.268 . S
C184 O190 1.268 . S
C184 O192 1.268 . S
C185 O191 1.268 . S
C185 O194 1.268 . S
O186 Sc176 2.105 . S
O186 C180 1.268 . S
O187 Sc177 2.105 . S
O187 C181 1.268 . S
O188 Sc178 2.105 . S
O188 C182 1.268 . S
O189 Sc176 2.105 . S
O189 C183 1.268 . S
O190 Sc178 2.105 . S
O190 C184 1.268 . S
O191 Sc177 2.105 . S
O191 C185 1.268 . S
O192 Sc176 2.105 . S
O192 C184 1.268 . S
O193 Sc177 2.105 . S
O193 C183 1.268 . S
O194 Sc178 2.105 . S
O194 C185 1.268 . S
O195 Sc176 2.105 . S
O195 C181 1.268 . S
O196 Sc178 2.105 . S
O196 C180 1.268 . S
O197 Sc177 2.105 . S
O197 C182 1.268 . S
Sc198 O201 2.025 . S
Sc198 O208 2.105 . S
Sc198 O211 2.105 . S
Sc198 O214 2.105 . S
Sc198 O217 2.105 . S
Sc199 O201 2.025 . S
Sc199 O209 2.105 . S
Sc199 O213 2.105 . S
Sc199 O215 2.105 . S
Sc199 O219 2.105 . S
Sc200 O201 2.025 . S
Sc200 O210 2.105 . S
Sc200 O212 2.105 . S
Sc200 O216 2.105 . S
Sc200 O218 2.105 . S
O201 Sc198 2.025 . S
O201 Sc199 2.025 . S
O201 Sc200 2.025 . S
C202 O208 1.268 . S
C202 O218 1.268 . S
C203 O209 1.268 . S
C203 O217 1.268 . S
C204 O210 1.268 . S
C204 O219 1.268 . S
C205 O211 1.268 . S
C205 O215 1.268 . S
C206 O212 1.268 . S
C206 O214 1.268 . S
C207 O213 1.268 . S
C207 O216 1.268 . S
O208 Sc198 2.105 . S
O208 C202 1.268 . S
O209 Sc199 2.105 . S
O209 C203 1.268 . S
O210 Sc200 2.105 . S
O210 C204 1.268 . S
O211 Sc198 2.105 . S
O211 C205 1.268 . S
O212 Sc200 2.105 . S
O212 C206 1.268 . S
O213 Sc199 2.105 . S
O213 C207 1.268 . S
O214 Sc198 2.105 . S
O214 C206 1.268 . S
O215 Sc199 2.105 . S
O215 C205 1.268 . S
O216 Sc200 2.105 . S
O216 C207 1.268 . S
O217 Sc198 2.105 . S
O217 C203 1.268 . S
O218 Sc200 2.105 . S
O218 C202 1.268 . S
O219 Sc199 2.105 . S
O219 C204 1.268 . S
Sc220 O223 2.025 . S
Sc220 O230 2.105 . S
Sc220 O233 2.105 . S
Sc220 O236 2.105 . S
Sc220 O239 2.105 . S
Sc221 O223 2.025 . S
Sc221 O231 2.105 . S
Sc221 O235 2.105 . S
Sc221 O237 2.105 . S
Sc221 O241 2.105 . S
Sc222 O223 2.025 . S
Sc222 O232 2.105 . S
Sc222 O234 2.105 . S
Sc222 O238 2.105 . S
Sc222 O240 2.105 . S
O223 Sc220 2.025 . S
O223 Sc221 2.025 . S
O223 Sc222 2.025 . S
C224 O230 1.268 . S
C224 O240 1.268 . S
C225 O231 1.268 . S
C225 O239 1.268 . S
C226 O232 1.268 . S
C226 O241 1.268 . S
C227 O233 1.268 . S
C227 O237 1.268 . S
C228 O234 1.268 . S
C228 O236 1.268 . S
C229 O235 1.268 . S
C229 O238 1.268 . S
O230 Sc220 2.105 . S
O230 C224 1.268 . S
O231 Sc221 2.105 . S
O231 C225 1.268 . S
O232 Sc222 2.105 . S
O232 C226 1.268 . S
O233 Sc220 2.105 . S
O233 C227 1.268 . S
O234 Sc222 2.105 . S
O234 C228 1.268 . S
O235 Sc221 2.105 . S
O235 C229 1.268 . S
O236 Sc220 2.105 . S
O236 C228 1.268 . S
O237 Sc221 2.105 . S
O237 C227 1.268 . S
O238 Sc222 2.105 . S
O238 C229 1.268 . S
O239 Sc220 2.105 . S
O239 C225 1.268 . S
O240 Sc222 2.105 . S
O240 C224 1.268 . S
O241 Sc221 2.105 . S
O241 C226 1.268 . S
Sc242 O245 2.025 . S
Sc242 O252 2.105 . S
Sc242 O255 2.105 . S
Sc242 O258 2.105 . S
Sc242 O261 2.105 . S
Sc243 O245 2.025 . S
Sc243 O253 2.105 . S
Sc243 O257 2.105 . S
Sc243 O259 2.105 . S
Sc243 O263 2.105 . S
Sc244 O245 2.025 . S
Sc244 O254 2.105 . S
Sc244 O256 2.105 . S
Sc244 O260 2.105 . S
Sc244 O262 2.105 . S
O245 Sc242 2.025 . S
O245 Sc243 2.025 . S
O245 Sc244 2.025 . S
C246 O252 1.268 . S
C246 O262 1.268 . S
C247 O253 1.268 . S
C247 O261 1.268 . S
C248 O254 1.268 . S
C248 O263 1.268 . S
C249 O255 1.268 . S
C249 O259 1.268 . S
C250 O256 1.268 . S
C250 O258 1.268 . S
C251 O257 1.268 . S
C251 O260 1.268 . S
O252 Sc242 2.105 . S
O252 C246 1.268 . S
O253 Sc243 2.105 . S
O253 C247 1.268 . S
O254 Sc244 2.105 . S
O254 C248 1.268 . S
O255 Sc242 2.105 . S
O255 C249 1.268 . S
O256 Sc244 2.105 . S
O256 C250 1.268 . S
O257 Sc243 2.105 . S
O257 C251 1.268 . S
O258 Sc242 2.105 . S
O258 C250 1.268 . S
O259 Sc243 2.105 . S
O259 C249 1.268 . S
O260 Sc244 2.105 . S
O260 C251 1.268 . S
O261 Sc242 2.105 . S
O261 C247 1.268 . S
O262 Sc244 2.105 . S
O262 C246 1.268 . S
O263 Sc243 2.105 . S
O263 C248 1.268 . S
Sc264 O267 2.025 . S
Sc264 O274 2.105 . S
Sc264 O277 2.105 . S
Sc264 O280 2.105 . S
Sc264 O283 2.105 . S
Sc265 O267 2.025 . S
Sc265 O275 2.105 . S
Sc265 O279 2.105 . S
Sc265 O281 2.105 . S
Sc265 O285 2.105 . S
Sc266 O267 2.025 . S
Sc266 O276 2.105 . S
Sc266 O278 2.105 . S
Sc266 O282 2.105 . S
Sc266 O284 2.105 . S
O267 Sc264 2.025 . S
O267 Sc265 2.025 . S
O267 Sc266 2.025 . S
C268 O274 1.268 . S
C268 O284 1.268 . S
C269 O275 1.268 . S
C269 O283 1.268 . S
C270 O276 1.268 . S
C270 O285 1.268 . S
C271 O277 1.268 . S
C271 O281 1.268 . S
C272 O278 1.268 . S
C272 O280 1.268 . S
C273 O279 1.268 . S
C273 O282 1.268 . S
O274 Sc264 2.105 . S
O274 C268 1.268 . S
O275 Sc265 2.105 . S
O275 C269 1.268 . S
O276 Sc266 2.105 . S
O276 C270 1.268 . S
O277 Sc264 2.105 . S
O277 C271 1.268 . S
O278 Sc266 2.105 . S
O278 C272 1.268 . S
O279 Sc265 2.105 . S
O279 C273 1.268 . S
O280 Sc264 2.105 . S
O280 C272 1.268 . S
O281 Sc265 2.105 . S
O281 C271 1.268 . S
O282 Sc266 2.105 . S
O282 C273 1.268 . S
O283 Sc264 2.105 . S
O283 C269 1.268 . S
O284 Sc266 2.105 . S
O284 C268 1.268 . S
O285 Sc265 2.105 . S
O285 C270 1.268 . S
Sc286 O289 2.025 . S
Sc286 O296 2.105 . S
Sc286 O299 2.105 . S
Sc286 O302 2.105 . S
Sc286 O305 2.105 . S
Sc287 O289 2.025 . S
Sc287 O297 2.105 . S
Sc287 O301 2.105 . S
Sc287 O303 2.105 . S
Sc287 O307 2.105 . S
Sc288 O289 2.025 . S
Sc288 O298 2.105 . S
Sc288 O300 2.105 . S
Sc288 O304 2.105 . S
Sc288 O306 2.105 . S
O289 Sc286 2.025 . S
O289 Sc287 2.025 . S
O289 Sc288 2.025 . S
C290 O296 1.268 . S
C290 O306 1.268 . S
C291 O297 1.268 . S
C291 O305 1.268 . S
C292 O298 1.268 . S
C292 O307 1.268 . S
C293 O299 1.268 . S
C293 O303 1.268 . S
C294 O300 1.268 . S
C294 O302 1.268 . S
C295 O301 1.268 . S
C295 O304 1.268 . S
O296 Sc286 2.105 . S
O296 C290 1.268 . S
O297 Sc287 2.105 . S
O297 C291 1.268 . S
O298 Sc288 2.105 . S
O298 C292 1.268 . S
O299 Sc286 2.105 . S
O299 C293 1.268 . S
O300 Sc288 2.105 . S
O300 C294 1.268 . S
O301 Sc287 2.105 . S
O301 C295 1.268 . S
O302 Sc286 2.105 . S
O302 C294 1.268 . S
O303 Sc287 2.105 . S
O303 C293 1.268 . S
O304 Sc288 2.105 . S
O304 C295 1.268 . S
O305 Sc286 2.105 . S
O305 C291 1.268 . S
O306 Sc288 2.105 . S
O306 C290 1.268 . S
O307 Sc287 2.105 . S
O307 C292 1.268 . S
Sc308 O311 2.025 . S
Sc308 O318 2.105 . S
Sc308 O321 2.105 . S
Sc308 O324 2.105 . S
Sc308 O327 2.105 . S
Sc309 O311 2.025 . S
Sc309 O319 2.105 . S
Sc309 O323 2.105 . S
Sc309 O325 2.105 . S
Sc309 O329 2.105 . S
Sc310 O311 2.025 . S
Sc310 O320 2.105 . S
Sc310 O322 2.105 . S
Sc310 O326 2.105 . S
Sc310 O328 2.105 . S
O311 Sc308 2.025 . S
O311 Sc309 2.025 . S
O311 Sc310 2.025 . S
C312 O318 1.268 . S
C312 O328 1.268 . S
C313 O319 1.268 . S
C313 O327 1.268 . S
C314 O320 1.268 . S
C314 O329 1.268 . S
C315 O321 1.268 . S
C315 O325 1.268 . S
C316 O322 1.268 . S
C316 O324 1.268 . S
C317 O323 1.268 . S
C317 O326 1.268 . S
O318 Sc308 2.105 . S
O318 C312 1.268 . S
O319 Sc309 2.105 . S
O319 C313 1.268 . S
O320 Sc310 2.105 . S
O320 C314 1.268 . S
O321 Sc308 2.105 . S
O321 C315 1.268 . S
O322 Sc310 2.105 . S
O322 C316 1.268 . S
O323 Sc309 2.105 . S
O323 C317 1.268 . S
O324 Sc308 2.105 . S
O324 C316 1.268 . S
O325 Sc309 2.105 . S
O325 C315 1.268 . S
O326 Sc310 2.105 . S
O326 C317 1.268 . S
O327 Sc308 2.105 . S
O327 C313 1.268 . S
O328 Sc310 2.105 . S
O328 C312 1.268 . S
O329 Sc309 2.105 . S
O329 C314 1.268 . S
Sc330 O333 2.025 . S
Sc330 O340 2.105 . S
Sc330 O343 2.105 . S
Sc330 O346 2.105 . S
Sc330 O349 2.105 . S
Sc331 O333 2.025 . S
Sc331 O341 2.105 . S
Sc331 O345 2.105 . S
Sc331 O347 2.105 . S
Sc331 O351 2.105 . S
Sc332 O333 2.025 . S
Sc332 O342 2.105 . S
Sc332 O344 2.105 . S
Sc332 O348 2.105 . S
Sc332 O350 2.105 . S
O333 Sc330 2.025 . S
O333 Sc331 2.025 . S
O333 Sc332 2.025 . S
C334 O340 1.268 . S
C334 O350 1.268 . S
C335 O341 1.268 . S
C335 O349 1.268 . S
C336 O342 1.268 . S
C336 O351 1.268 . S
C337 O343 1.268 . S
C337 O347 1.268 . S
C338 O344 1.268 . S
C338 O346 1.268 . S
C339 O345 1.268 . S
C339 O348 1.268 . S
O340 Sc330 2.105 . S
O340 C334 1.268 . S
O341 Sc331 2.105 . S
O341 C335 1.268 . S
O342 Sc332 2.105 . S
O342 C336 1.268 . S
O343 Sc330 2.105 . S
O343 C337 1.268 . S
O344 Sc332 2.105 . S
O344 C338 1.268 . S
O345 Sc331 2.105 . S
O345 C339 1.268 . S
O346 Sc330 2.105 . S
O346 C338 1.268 . S
O347 Sc331 2.105 . S
O347 C337 1.268 . S
O348 Sc332 2.105 . S
O348 C339 1.268 . S
O349 Sc330 2.105 . S
O349 C335 1.268 . S
O350 Sc332 2.105 . S
O350 C334 1.268 . S
O351 Sc331 2.105 . S
O351 C336 1.268 . S
C352 O364 1.241 . S
C352 O365 1.280 . S
C353 O366 1.277 . S
C353 O367 1.245 . S
C354 O378 1.247 . S
C354 O380 1.289 . S
Mg355 O356 1.926 1_455 S
Mg355 O365 1.984 1_455 S
Mg355 O367 1.988 . S
Mg355 O368 2.061 1_455 S
O356 Mg355 1.926 1_655 S
O356 Mg357 1.986 . S
O356 Mg358 1.917 1_655 S
Mg357 O356 1.986 . S
Mg357 O364 2.042 . S
Mg357 O366 2.041 1_655 S
Mg357 O372 2.038 . S
Mg357 O380 2.238 1_655 S
Mg358 O356 1.917 1_455 S
Mg358 O359 1.917 . S
Mg358 O369 2.106 1_455 S
Mg358 O371 2.079 1_455 S
Mg358 O380 2.106 . S
Mg358 O381 2.079 . S
O359 Mg358 1.917 . S
O359 Mg360 1.926 1_455 S
O359 Mg361 1.986 . S
Mg360 O359 1.926 1_655 S
Mg360 O374 1.984 1_655 S
Mg360 O377 1.988 . S
Mg360 O378 2.061 1_655 S
Mg361 O359 1.986 . S
Mg361 O369 2.238 1_455 S
Mg361 O373 2.042 . S
Mg361 O375 2.041 1_455 S
Mg361 O382 2.038 . S
C362 O368 1.247 . S
C362 O369 1.289 . S
C363 O381 1.245 . S
C363 O382 1.274 . S
O364 C352 1.241 . S
O364 Mg357 2.042 . S
O365 C352 1.280 . S
O365 Mg355 1.984 1_655 S
O366 C353 1.277 . S
O366 Mg357 2.041 1_455 S
O367 C353 1.245 . S
O367 Mg355 1.988 . S
O368 Mg355 2.061 1_655 S
O368 C362 1.247 . S
O369 Mg358 2.106 1_655 S
O369 Mg361 2.238 1_655 S
O369 C362 1.289 . S
C370 O371 1.245 . S
C370 O372 1.274 . S
O371 Mg358 2.079 1_655 S
O371 C370 1.245 . S
O372 Mg357 2.038 . S
O372 C370 1.274 . S
O373 Mg361 2.042 . S
O373 C376 1.241 . S
O374 Mg360 1.984 1_455 S
O374 C376 1.280 . S
O375 Mg361 2.041 1_655 S
O375 C379 1.277 . S
C376 O373 1.241 . S
C376 O374 1.280 . S
O377 Mg360 1.988 . S
O377 C379 1.245 . S
O378 C354 1.247 . S
O378 Mg360 2.061 1_455 S
C379 O375 1.277 . S
C379 O377 1.245 . S
O380 C354 1.289 . S
O380 Mg357 2.238 1_455 S
O380 Mg358 2.106 . S
O381 Mg358 2.079 . S
O381 C363 1.245 . S
O382 Mg361 2.038 . S
O382 C363 1.274 . S
C383 O395 1.241 . S
C383 O396 1.280 . S
C384 O397 1.277 . S
C384 O398 1.245 . S
C385 O409 1.247 . S
C385 O411 1.289 . S
Mg386 O387 1.926 . S
Mg386 O396 1.984 . S
Mg386 O398 1.988 . S
Mg386 O399 2.061 . S
O387 Mg386 1.926 . S
O387 Mg388 1.986 . S
O387 Mg389 1.917 . S
Mg388 O387 1.986 . S
Mg388 O395 2.042 . S
Mg388 O397 2.041 . S
Mg388 O403 2.038 . S
Mg388 O411 2.238 . S
Mg389 O387 1.917 . S
Mg389 O390 1.917 . S
Mg389 O400 2.106 . S
Mg389 O402 2.079 . S
Mg389 O411 2.106 . S
Mg389 O412 2.079 . S
O390 Mg389 1.917 . S
O390 Mg391 1.926 . S
O390 Mg392 1.986 . S
Mg391 O390 1.926 . S
Mg391 O405 1.984 . S
Mg391 O408 1.988 . S
Mg391 O409 2.061 . S
Mg392 O390 1.986 . S
Mg392 O400 2.238 . S
Mg392 O404 2.042 . S
Mg392 O406 2.041 . S
Mg392 O413 2.038 . S
C393 O399 1.247 . S
C393 O400 1.289 . S
C394 O412 1.245 . S
C394 O413 1.274 . S
O395 C383 1.241 . S
O395 Mg388 2.042 . S
O396 C383 1.280 . S
O396 Mg386 1.984 . S
O397 C384 1.277 . S
O397 Mg388 2.041 . S
O398 C384 1.245 . S
O398 Mg386 1.988 . S
O399 Mg386 2.061 . S
O399 C393 1.247 . S
O400 Mg389 2.106 . S
O400 Mg392 2.238 . S
O400 C393 1.289 . S
C401 O402 1.245 . S
C401 O403 1.274 . S
O402 Mg389 2.079 . S
O402 C401 1.245 . S
O403 Mg388 2.038 . S
O403 C401 1.274 . S
O404 Mg392 2.042 . S
O404 C407 1.241 . S
O405 Mg391 1.984 . S
O405 C407 1.280 . S
O406 Mg392 2.041 . S
O406 C410 1.277 . S
C407 O404 1.241 . S
C407 O405 1.280 . S
O408 Mg391 1.988 . S
O408 C410 1.245 . S
O409 C385 1.247 . S
O409 Mg391 2.061 . S
C410 O406 1.277 . S
C410 O408 1.245 . S
O411 C385 1.289 . S
O411 Mg388 2.238 . S
O411 Mg389 2.106 . S
O412 Mg389 2.079 . S
O412 C394 1.245 . S
O413 Mg392 2.038 . S
O413 C394 1.274 . S
C414 O426 1.241 . S
C414 O427 1.280 . S
C415 O428 1.277 . S
C415 O429 1.245 . S
C416 O440 1.247 . S
C416 O442 1.289 . S
Mg417 O418 1.926 1_455 S
Mg417 O427 1.984 1_455 S
Mg417 O429 1.988 . S
Mg417 O430 2.061 . S
O418 Mg417 1.926 1_655 S
O418 Mg419 1.986 . S
O418 Mg420 1.917 1_655 S
Mg419 O418 1.986 . S
Mg419 O426 2.042 . S
Mg419 O428 2.041 1_655 S
Mg419 O434 2.038 . S
Mg419 O442 2.238 1_655 S
Mg420 O418 1.917 1_455 S
Mg420 O421 1.917 . S
Mg420 O431 2.105 1_455 S
Mg420 O433 2.079 1_455 S
Mg420 O442 2.106 . S
Mg420 O443 2.079 . S
O421 Mg420 1.917 . S
O421 Mg422 1.926 1_455 S
O421 Mg423 1.986 . S
Mg422 O421 1.926 1_655 S
Mg422 O436 1.984 1_655 S
Mg422 O439 1.988 . S
Mg422 O440 2.061 1_655 S
Mg423 O421 1.986 . S
Mg423 O431 2.229 1_455 S
Mg423 O435 2.042 . S
Mg423 O437 2.041 1_455 S
Mg423 O444 2.038 . S
C424 O430 1.247 1_655 S
C424 O431 1.292 . S
C425 O443 1.245 . S
C425 O444 1.274 . S
O426 C414 1.241 . S
O426 Mg419 2.042 . S
O427 C414 1.280 . S
O427 Mg417 1.984 1_655 S
O428 C415 1.277 . S
O428 Mg419 2.041 1_455 S
O429 C415 1.245 . S
O429 Mg417 1.988 . S
O430 Mg417 2.061 . S
O430 C424 1.247 1_455 S
O431 Mg420 2.105 1_655 S
O431 Mg423 2.229 1_655 S
O431 C424 1.292 . S
C432 O433 1.245 . S
C432 O434 1.274 . S
O433 Mg420 2.079 1_655 S
O433 C432 1.245 . S
O434 Mg419 2.038 . S
O434 C432 1.274 . S
O435 Mg423 2.042 . S
O435 C438 1.241 . S
O436 Mg422 1.984 1_455 S
O436 C438 1.280 . S
O437 Mg423 2.041 1_655 S
O437 C441 1.277 . S
C438 O435 1.241 . S
C438 O436 1.280 . S
O439 Mg422 1.988 . S
O439 C441 1.245 . S
O440 C416 1.247 . S
O440 Mg422 2.061 1_455 S
C441 O437 1.277 . S
C441 O439 1.245 . S
O442 C416 1.289 . S
O442 Mg419 2.238 1_455 S
O442 Mg420 2.106 . S
O443 Mg420 2.079 . S
O443 C425 1.245 . S
O444 Mg423 2.038 . S
O444 C425 1.274 . S
C445 O457 1.241 . S
C445 O458 1.280 . S
C446 O459 1.277 . S
C446 O460 1.245 . S
C447 O471 1.247 . S
C447 O473 1.289 . S
Mg448 O449 1.926 1_565 S
Mg448 O458 1.984 1_565 S
Mg448 O460 1.988 . S
Mg448 O461 2.061 1_565 S
O449 Mg448 1.926 1_545 S
O449 Mg450 1.986 . S
O449 Mg451 1.920 . S
Mg450 O449 1.986 . S
Mg450 O457 2.042 . S
Mg450 O459 2.041 1_545 S
Mg450 O465 2.038 . S
Mg450 O473 2.238 1_545 S
Mg451 O449 1.920 . S
Mg451 O452 1.914 1_545 S
Mg451 O462 2.108 . S
Mg451 O464 2.094 . S
Mg451 O473 2.105 1_545 S
Mg451 O474 2.064 1_545 S
O452 Mg451 1.914 1_565 S
O452 Mg453 1.926 1_565 S
O452 Mg454 1.986 . S
Mg453 O452 1.926 1_545 S
Mg453 O467 1.984 1_545 S
Mg453 O470 1.988 . S
Mg453 O471 2.061 1_545 S
Mg454 O452 1.986 . S
Mg454 O462 2.238 1_565 S
Mg454 O466 2.042 . S
Mg454 O468 2.041 1_565 S
Mg454 O475 2.038 . S
C455 O461 1.247 . S
C455 O462 1.289 . S
C456 O474 1.245 . S
C456 O475 1.274 . S
O457 C445 1.241 . S
O457 Mg450 2.042 . S
O458 C445 1.280 . S
O458 Mg448 1.984 1_545 S
O459 C446 1.277 . S
O459 Mg450 2.041 1_565 S
O460 C446 1.245 . S
O460 Mg448 1.988 . S
O461 Mg448 2.061 1_545 S
O461 C455 1.247 . S
O462 Mg451 2.108 . S
O462 Mg454 2.238 1_545 S
O462 C455 1.289 . S
C463 O464 1.245 . S
C463 O465 1.274 . S
O464 Mg451 2.094 . S
O464 C463 1.245 . S
O465 Mg450 2.038 . S
O465 C463 1.274 . S
O466 Mg454 2.042 . S
O466 C469 1.241 . S
O467 Mg453 1.984 1_565 S
O467 C469 1.280 . S
O468 Mg454 2.041 1_545 S
O468 C472 1.277 . S
C469 O466 1.241 . S
C469 O467 1.280 . S
O470 Mg453 1.988 . S
O470 C472 1.245 . S
O471 C447 1.247 . S
O471 Mg453 2.061 1_565 S
C472 O468 1.277 . S
C472 O470 1.245 . S
O473 C447 1.289 . S
O473 Mg450 2.238 1_565 S
O473 Mg451 2.105 1_565 S
O474 Mg451 2.064 1_565 S
O474 C456 1.245 . S
O475 Mg454 2.038 . S
O475 C456 1.274 . S
C476 O488 1.241 . S
C476 O489 1.280 . S
C477 O490 1.277 . S
C477 O491 1.245 . S
C478 O502 1.247 . S
C478 O504 1.289 . S
Mg479 O480 1.926 1_554 S
Mg479 O489 1.984 1_554 S
Mg479 O491 1.988 . S
Mg479 O492 2.061 . S
O480 Mg479 1.926 1_556 S
O480 Mg481 1.986 . S
O480 Mg482 1.917 1_556 S
Mg481 O480 1.986 . S
Mg481 O488 2.042 . S
Mg481 O490 2.041 1_556 S
Mg481 O496 2.038 . S
Mg481 O504 2.238 . S
Mg482 O480 1.917 1_554 S
Mg482 O483 1.917 . S
Mg482 O493 2.106 . S
Mg482 O495 2.079 1_554 S
Mg482 O504 2.106 1_554 S
Mg482 O505 2.079 . S
O483 Mg482 1.917 . S
O483 Mg484 1.926 1_554 S
O483 Mg485 1.986 . S
Mg484 O483 1.926 1_556 S
Mg484 O498 1.984 1_556 S
Mg484 O501 1.988 . S
Mg484 O502 2.061 . S
Mg485 O483 1.986 . S
Mg485 O493 2.238 . S
Mg485 O497 2.042 . S
Mg485 O499 2.041 . S
Mg485 O506 2.038 . S
C486 O492 1.247 . S
C486 O493 1.289 . S
C487 O505 1.245 . S
C487 O506 1.274 . S
O488 C476 1.241 . S
O488 Mg481 2.042 . S
O489 C476 1.280 . S
O489 Mg479 1.984 1_556 S
O490 C477 1.277 . S
O490 Mg481 2.041 1_554 S
O491 C477 1.245 . S
O491 Mg479 1.988 . S
O492 Mg479 2.061 . S
O492 C486 1.247 . S
O493 Mg482 2.106 . S
O493 Mg485 2.238 . S
O493 C486 1.289 . S
C494 O495 1.245 . S
C494 O496 1.274 . S
O495 Mg482 2.079 1_556 S
O495 C494 1.245 . S
O496 Mg481 2.038 . S
O496 C494 1.274 . S
O497 Mg485 2.042 . S
O497 C500 1.241 . S
O498 Mg484 1.984 1_554 S
O498 C500 1.280 . S
O499 Mg485 2.041 . S
O499 C503 1.277 1_554 S
C500 O497 1.241 . S
C500 O498 1.280 . S
O501 Mg484 1.988 . S
O501 C503 1.245 . S
O502 C478 1.247 . S
O502 Mg484 2.061 . S
C503 O499 1.277 1_556 S
C503 O501 1.245 . S
O504 C478 1.289 . S
O504 Mg481 2.238 . S
O504 Mg482 2.106 1_556 S
O505 Mg482 2.079 . S
O505 C487 1.245 . S
O506 Mg485 2.038 . S
O506 C487 1.274 . S
C507 O519 1.241 . S
C507 O520 1.280 . S
C508 O521 1.277 . S
C508 O522 1.245 . S
C509 O533 1.247 . S
C509 O535 1.289 . S
Mg510 O511 1.926 . S
Mg510 O520 1.984 . S
Mg510 O522 1.988 . S
Mg510 O523 2.061 . S
O511 Mg510 1.926 . S
O511 Mg512 1.986 . S
O511 Mg513 1.917 . S
Mg512 O511 1.986 . S
Mg512 O519 2.042 . S
Mg512 O521 2.041 . S
Mg512 O527 2.038 . S
Mg512 O535 2.238 . S
Mg513 O511 1.917 . S
Mg513 O514 1.917 . S
Mg513 O524 2.106 . S
Mg513 O526 2.079 . S
Mg513 O535 2.106 . S
Mg513 O536 2.079 . S
O514 Mg513 1.917 . S
O514 Mg515 1.926 . S
O514 Mg516 1.986 . S
Mg515 O514 1.926 . S
Mg515 O529 1.984 . S
Mg515 O532 1.988 . S
Mg515 O533 2.061 . S
Mg516 O514 1.986 . S
Mg516 O524 2.238 . S
Mg516 O528 2.042 . S
Mg516 O530 2.041 . S
Mg516 O537 2.038 . S
C517 O523 1.247 . S
C517 O524 1.289 . S
C518 O536 1.245 . S
C518 O537 1.274 . S
O519 C507 1.241 . S
O519 Mg512 2.042 . S
O520 C507 1.280 . S
O520 Mg510 1.984 . S
O521 C508 1.277 . S
O521 Mg512 2.041 . S
O522 C508 1.245 . S
O522 Mg510 1.988 . S
O523 Mg510 2.061 . S
O523 C517 1.247 . S
O524 Mg513 2.106 . S
O524 Mg516 2.238 . S
O524 C517 1.289 . S
C525 O526 1.245 . S
C525 O527 1.274 . S
O526 Mg513 2.079 . S
O526 C525 1.245 . S
O527 Mg512 2.038 . S
O527 C525 1.274 . S
O528 Mg516 2.042 . S
O528 C531 1.241 . S
O529 Mg515 1.984 . S
O529 C531 1.280 . S
O530 Mg516 2.041 . S
O530 C534 1.277 . S
C531 O528 1.241 . S
C531 O529 1.280 . S
O532 Mg515 1.988 . S
O532 C534 1.245 . S
O533 C509 1.247 . S
O533 Mg515 2.061 . S
C534 O530 1.277 . S
C534 O532 1.245 . S
O535 C509 1.289 . S
O535 Mg512 2.238 . S
O535 Mg513 2.106 . S
O536 Mg513 2.079 . S
O536 C518 1.245 . S
O537 Mg516 2.038 . S
O537 C518 1.274 . S
C538 O550 1.241 . S
C538 O551 1.280 . S
C539 O552 1.277 . S
C539 O553 1.245 . S
C540 O564 1.247 1_556 S
C540 O566 1.289 . S
Mg541 O542 1.926 1_556 S
Mg541 O551 1.984 1_556 S
Mg541 O553 1.988 . S
Mg541 O554 2.061 1_556 S
O542 Mg541 1.926 1_554 S
O542 Mg543 1.986 . S
O542 Mg544 1.917 . S
Mg543 O542 1.986 . S
Mg543 O550 2.042 . S
Mg543 O552 2.041 1_554 S
Mg543 O558 2.038 . S
Mg543 O566 2.238 1_554 S
Mg544 O542 1.917 . S
Mg544 O545 1.917 1_554 S
Mg544 O555 2.106 . S
Mg544 O557 2.079 . S
Mg544 O566 2.106 1_554 S
Mg544 O567 2.079 1_554 S
O545 Mg544 1.917 1_556 S
O545 Mg546 1.926 1_556 S
O545 Mg547 1.986 . S
Mg546 O545 1.926 1_554 S
Mg546 O560 1.984 1_554 S
Mg546 O563 1.988 . S
Mg546 O564 2.061 . S
Mg547 O545 1.986 . S
Mg547 O555 2.238 1_556 S
Mg547 O559 2.042 . S
Mg547 O561 2.041 1_556 S
Mg547 O568 2.038 . S
C548 O554 1.247 . S
C548 O555 1.289 . S
C549 O567 1.245 . S
C549 O568 1.274 . S
O550 C538 1.241 . S
O550 Mg543 2.042 . S
O551 C538 1.280 . S
O551 Mg541 1.984 1_554 S
O552 C539 1.277 . S
O552 Mg543 2.041 1_556 S
O553 C539 1.245 . S
O553 Mg541 1.988 . S
O554 Mg541 2.061 1_554 S
O554 C548 1.247 . S
O555 Mg544 2.106 . S
O555 Mg547 2.238 1_554 S
O555 C548 1.289 . S
C556 O557 1.245 . S
C556 O558 1.274 . S
O557 Mg544 2.079 . S
O557 C556 1.245 . S
O558 Mg543 2.038 . S
O558 C556 1.274 . S
O559 Mg547 2.042 . S
O559 C562 1.241 . S
O560 Mg546 1.984 1_556 S
O560 C562 1.280 . S
O561 Mg547 2.041 1_554 S
O561 C565 1.277 . S
C562 O559 1.241 . S
C562 O560 1.280 . S
O563 Mg546 1.988 . S
O563 C565 1.245 . S
O564 C540 1.247 1_554 S
O564 Mg546 2.061 . S
C565 O561 1.277 . S
C565 O563 1.245 . S
O566 C540 1.289 . S
O566 Mg543 2.238 1_556 S
O566 Mg544 2.106 1_556 S
O567 Mg544 2.079 1_556 S
O567 C549 1.245 . S
O568 Mg547 2.038 . S
O568 C549 1.274 . S
C569 O581 1.241 . S
C569 O582 1.280 . S
C570 O583 1.277 . S
C570 O584 1.245 . S
C571 O595 1.247 . S
C571 O597 1.289 . S
Mg572 O573 1.926 . S
Mg572 O582 1.984 . S
Mg572 O584 1.988 . S
Mg572 O585 2.061 . S
O573 Mg572 1.926 . S
O573 Mg574 1.986 . S
O573 Mg575 1.917 . S
Mg574 O573 1.986 . S
Mg574 O581 2.042 . S
Mg574 O583 2.041 . S
Mg574 O589 2.038 . S
Mg574 O597 2.238 . S
Mg575 O573 1.917 . S
Mg575 O576 1.917 . S
Mg575 O586 2.106 . S
Mg575 O588 2.079 . S
Mg575 O597 2.106 . S
Mg575 O598 2.079 . S
O576 Mg575 1.917 . S
O576 Mg577 1.926 . S
O576 Mg578 1.986 . S
Mg577 O576 1.926 . S
Mg577 O591 1.984 . S
Mg577 O594 1.988 . S
Mg577 O595 2.061 . S
Mg578 O576 1.986 . S
Mg578 O586 2.238 . S
Mg578 O590 2.042 . S
Mg578 O592 2.041 . S
Mg578 O599 2.038 . S
C579 O585 1.247 . S
C579 O586 1.289 . S
C580 O598 1.245 . S
C580 O599 1.274 . S
O581 C569 1.241 . S
O581 Mg574 2.042 . S
O582 C569 1.280 . S
O582 Mg572 1.984 . S
O583 C570 1.277 . S
O583 Mg574 2.041 . S
O584 C570 1.245 . S
O584 Mg572 1.988 . S
O585 Mg572 2.061 . S
O585 C579 1.247 . S
O586 Mg575 2.106 . S
O586 Mg578 2.238 . S
O586 C579 1.289 . S
C587 O588 1.245 . S
C587 O589 1.274 . S
O588 Mg575 2.079 . S
O588 C587 1.245 . S
O589 Mg574 2.038 . S
O589 C587 1.274 . S
O590 Mg578 2.042 . S
O590 C593 1.241 . S
O591 Mg577 1.984 . S
O591 C593 1.280 . S
O592 Mg578 2.041 . S
O592 C596 1.277 . S
C593 O590 1.241 . S
C593 O591 1.280 . S
O594 Mg577 1.988 . S
O594 C596 1.245 . S
O595 C571 1.247 . S
O595 Mg577 2.061 . S
C596 O592 1.277 . S
C596 O594 1.245 . S
O597 C571 1.289 . S
O597 Mg574 2.238 . S
O597 Mg575 2.106 . S
O598 Mg575 2.079 . S
O598 C580 1.245 . S
O599 Mg578 2.038 . S
O599 C580 1.274 . S
C600 O612 1.241 . S
C600 O613 1.280 . S
C601 O614 1.277 . S
C601 O615 1.245 . S
C602 O626 1.247 . S
C602 O628 1.289 . S
Mg603 O604 1.926 . S
Mg603 O613 1.984 . S
Mg603 O615 1.988 . S
Mg603 O616 2.061 . S
O604 Mg603 1.926 . S
O604 Mg605 1.986 . S
O604 Mg606 1.917 . S
Mg605 O604 1.986 . S
Mg605 O612 2.042 . S
Mg605 O614 2.041 . S
Mg605 O620 2.038 . S
Mg605 O628 2.238 . S
Mg606 O604 1.917 . S
Mg606 O607 1.917 . S
Mg606 O617 2.106 . S
Mg606 O619 2.079 . S
Mg606 O628 2.106 . S
Mg606 O629 2.079 . S
O607 Mg606 1.917 . S
O607 Mg608 1.926 . S
O607 Mg609 1.986 . S
Mg608 O607 1.926 . S
Mg608 O622 1.984 . S
Mg608 O625 1.988 . S
Mg608 O626 2.061 . S
Mg609 O607 1.986 . S
Mg609 O617 2.238 . S
Mg609 O621 2.042 . S
Mg609 O623 2.041 . S
Mg609 O630 2.038 . S
C610 O616 1.247 . S
C610 O617 1.289 . S
C611 O629 1.245 . S
C611 O630 1.274 . S
O612 C600 1.241 . S
O612 Mg605 2.042 . S
O613 C600 1.280 . S
O613 Mg603 1.984 . S
O614 C601 1.277 . S
O614 Mg605 2.041 . S
O615 C601 1.245 . S
O615 Mg603 1.988 . S
O616 Mg603 2.061 . S
O616 C610 1.247 . S
O617 Mg606 2.106 . S
O617 Mg609 2.238 . S
O617 C610 1.289 . S
C618 O619 1.245 . S
C618 O620 1.274 . S
O619 Mg606 2.079 . S
O619 C618 1.245 . S
O620 Mg605 2.038 . S
O620 C618 1.274 . S
O621 Mg609 2.042 . S
O621 C624 1.241 . S
O622 Mg608 1.984 . S
O622 C624 1.280 . S
O623 Mg609 2.041 . S
O623 C627 1.277 . S
C624 O621 1.241 . S
C624 O622 1.280 . S
O625 Mg608 1.988 . S
O625 C627 1.245 . S
O626 C602 1.247 . S
O626 Mg608 2.061 . S
C627 O623 1.277 . S
C627 O625 1.245 . S
O628 C602 1.289 . S
O628 Mg605 2.238 . S
O628 Mg606 2.106 . S
O629 Mg606 2.079 . S
O629 C611 1.245 . S
O630 Mg609 2.038 . S
O630 C611 1.274 . S
C631 O643 1.241 . S
C631 O644 1.280 . S
C632 O645 1.277 . S
C632 O646 1.245 . S
C633 O657 1.247 . S
C633 O659 1.289 . S
Mg634 O635 1.926 . S
Mg634 O644 1.984 . S
Mg634 O646 1.988 . S
Mg634 O647 2.061 . S
O635 Mg634 1.926 . S
O635 Mg636 1.986 . S
O635 Mg637 1.917 . S
Mg636 O635 1.986 . S
Mg636 O643 2.042 . S
Mg636 O645 2.041 . S
Mg636 O651 2.038 . S
Mg636 O659 2.238 . S
Mg637 O635 1.917 . S
Mg637 O638 1.917 . S
Mg637 O648 2.106 . S
Mg637 O650 2.079 . S
Mg637 O659 2.106 . S
Mg637 O660 2.079 . S
O638 Mg637 1.917 . S
O638 Mg639 1.926 . S
O638 Mg640 1.986 . S
Mg639 O638 1.926 . S
Mg639 O653 1.984 . S
Mg639 O656 1.988 . S
Mg639 O657 2.061 . S
Mg640 O638 1.986 . S
Mg640 O648 2.238 . S
Mg640 O652 2.042 . S
Mg640 O654 2.041 . S
Mg640 O661 2.038 . S
C641 O647 1.247 . S
C641 O648 1.289 . S
C642 O660 1.245 . S
C642 O661 1.274 . S
O643 C631 1.241 . S
O643 Mg636 2.042 . S
O644 C631 1.280 . S
O644 Mg634 1.984 . S
O645 C632 1.277 . S
O645 Mg636 2.041 . S
O646 C632 1.245 . S
O646 Mg634 1.988 . S
O647 Mg634 2.061 . S
O647 C641 1.247 . S
O648 Mg637 2.106 . S
O648 Mg640 2.238 . S
O648 C641 1.289 . S
C649 O650 1.245 . S
C649 O651 1.274 . S
O650 Mg637 2.079 . S
O650 C649 1.245 . S
O651 Mg636 2.038 . S
O651 C649 1.274 . S
O652 Mg640 2.042 . S
O652 C655 1.241 . S
O653 Mg639 1.984 . S
O653 C655 1.280 . S
O654 Mg640 2.041 . S
O654 C658 1.277 . S
C655 O652 1.241 . S
C655 O653 1.280 . S
O656 Mg639 1.988 . S
O656 C658 1.245 . S
O657 C633 1.247 . S
O657 Mg639 2.061 . S
C658 O654 1.277 . S
C658 O656 1.245 . S
O659 C633 1.289 . S
O659 Mg636 2.238 . S
O659 Mg637 2.106 . S
O660 Mg637 2.079 . S
O660 C642 1.245 . S
O661 Mg640 2.038 . S
O661 C642 1.274 . S
C662 O674 1.241 . S
C662 O675 1.280 . S
C663 O676 1.277 . S
C663 O677 1.245 . S
C664 O688 1.247 . S
C664 O690 1.289 . S
Mg665 O666 1.926 1_565 S
Mg665 O675 1.984 1_565 S
Mg665 O677 1.988 . S
Mg665 O678 2.061 1_565 S
O666 Mg665 1.926 1_545 S
O666 Mg667 1.986 . S
O666 Mg668 1.922 . S
Mg667 O666 1.986 . S
Mg667 O674 2.042 . S
Mg667 O676 2.041 1_545 S
Mg667 O682 2.038 . S
Mg667 O690 2.238 1_545 S
Mg668 O666 1.922 . S
Mg668 O669 1.912 1_545 S
Mg668 O679 2.109 . S
Mg668 O681 2.100 . S
Mg668 O690 2.104 1_545 S
Mg668 O691 2.057 1_545 S
O669 Mg668 1.912 1_565 S
O669 Mg670 1.926 1_565 S
O669 Mg671 1.986 . S
Mg670 O669 1.926 1_545 S
Mg670 O684 1.984 1_545 S
Mg670 O687 1.988 . S
Mg670 O688 2.061 1_545 S
Mg671 O669 1.986 . S
Mg671 O679 2.238 1_565 S
Mg671 O683 2.042 . S
Mg671 O685 2.041 1_565 S
Mg671 O692 2.038 . S
C672 O678 1.247 . S
C672 O679 1.289 . S
C673 O691 1.245 . S
C673 O692 1.274 . S
O674 C662 1.241 . S
O674 Mg667 2.042 . S
O675 C662 1.280 . S
O675 Mg665 1.984 1_545 S
O676 C663 1.277 . S
O676 Mg667 2.041 1_565 S
O677 C663 1.245 . S
O677 Mg665 1.988 . S
O678 Mg665 2.061 1_545 S
O678 C672 1.247 . S
O679 Mg668 2.109 . S
O679 Mg671 2.238 1_545 S
O679 C672 1.289 . S
C680 O681 1.245 . S
C680 O682 1.274 . S
O681 Mg668 2.100 . S
O681 C680 1.245 . S
O682 Mg667 2.038 . S
O682 C680 1.274 . S
O683 Mg671 2.042 . S
O683 C686 1.241 . S
O684 Mg670 1.984 1_565 S
O684 C686 1.280 . S
O685 Mg671 2.041 1_545 S
O685 C689 1.277 . S
C686 O683 1.241 . S
C686 O684 1.280 . S
O687 Mg670 1.988 . S
O687 C689 1.245 . S
O688 C664 1.247 . S
O688 Mg670 2.061 1_565 S
C689 O685 1.277 . S
C689 O687 1.245 . S
O690 C664 1.289 . S
O690 Mg667 2.238 1_565 S
O690 Mg668 2.104 1_565 S
O691 Mg668 2.057 1_565 S
O691 C673 1.245 . S
O692 Mg671 2.038 . S
O692 C673 1.274 . S
C693 O705 1.241 . S
C693 O706 1.280 . S
C694 O707 1.277 . S
C694 O708 1.245 . S
C695 O719 1.247 . S
C695 O721 1.289 . S
Mg696 O697 1.926 . S
Mg696 O706 1.984 . S
Mg696 O708 1.988 . S
Mg696 O709 2.061 . S
O697 Mg696 1.926 . S
O697 Mg698 1.986 . S
O697 Mg699 1.917 . S
Mg698 O697 1.986 . S
Mg698 O705 2.042 . S
Mg698 O707 2.041 . S
Mg698 O713 2.038 . S
Mg698 O721 2.238 . S
Mg699 O697 1.917 . S
Mg699 O700 1.917 . S
Mg699 O710 2.106 . S
Mg699 O712 2.079 . S
Mg699 O721 2.106 . S
Mg699 O722 2.079 . S
O700 Mg699 1.917 . S
O700 Mg701 1.926 . S
O700 Mg702 1.986 . S
Mg701 O700 1.926 . S
Mg701 O715 1.984 . S
Mg701 O718 1.988 . S
Mg701 O719 2.061 . S
Mg702 O700 1.986 . S
Mg702 O710 2.238 . S
Mg702 O714 2.042 . S
Mg702 O716 2.041 . S
Mg702 O723 2.038 . S
C703 O709 1.247 . S
C703 O710 1.289 . S
C704 O722 1.245 . S
C704 O723 1.274 . S
O705 C693 1.241 . S
O705 Mg698 2.042 . S
O706 C693 1.280 . S
O706 Mg696 1.984 . S
O707 C694 1.277 . S
O707 Mg698 2.041 . S
O708 C694 1.245 . S
O708 Mg696 1.988 . S
O709 Mg696 2.061 . S
O709 C703 1.247 . S
O710 Mg699 2.106 . S
O710 Mg702 2.238 . S
O710 C703 1.289 . S
C711 O712 1.245 . S
C711 O713 1.274 . S
O712 Mg699 2.079 . S
O712 C711 1.245 . S
O713 Mg698 2.038 . S
O713 C711 1.274 . S
O714 Mg702 2.042 . S
O714 C717 1.241 . S
O715 Mg701 1.984 . S
O715 C717 1.280 . S
O716 Mg702 2.041 . S
O716 C720 1.277 . S
C717 O714 1.241 . S
C717 O715 1.280 . S
O718 Mg701 1.988 . S
O718 C720 1.245 . S
O719 C695 1.247 . S
O719 Mg701 2.061 . S
C720 O716 1.277 . S
C720 O718 1.245 . S
O721 C695 1.289 . S
O721 Mg698 2.238 . S
O721 Mg699 2.106 . S
O722 Mg699 2.079 . S
O722 C704 1.245 . S
O723 Mg702 2.038 . S
O723 C704 1.274 . S
H724 C732 0.950 . S
H725 C737 0.950 . S
H726 C734 0.950 . S
H727 C736 0.950 . S
H728 C738 0.950 . S
H729 C740 0.950 . S
H730 C742 0.950 . S
H731 C743 0.950 . S
C732 H724 0.950 . S
C732 C733 1.386 . S
C732 C734 1.391 . S
C733 C732 1.386 . S
C733 C737 1.393 . S
C734 H726 0.950 . S
C734 C732 1.391 . S
C734 C735 1.400 . S
C735 C734 1.400 . S
C735 C736 1.398 . S
C735 C741 1.491 . S
C736 H727 0.950 . S
C736 C735 1.398 . S
C736 C737 1.391 . S
C737 H725 0.950 . S
C737 C733 1.393 . S
C737 C736 1.391 . S
C738 H728 0.950 . S
C738 C739 1.386 . S
C738 C740 1.391 . S
C739 C738 1.386 . S
C739 C743 1.393 . S
C740 H729 0.950 . S
C740 C738 1.391 . S
C740 C741 1.400 . S
C741 C735 1.491 . S
C741 C740 1.400 . S
C741 C742 1.398 . S
C742 H730 0.950 . S
C742 C741 1.398 . S
C742 C743 1.391 . S
C743 H731 0.950 . S
C743 C739 1.393 . S
C743 C742 1.391 . S
H744 C752 0.950 . S
H745 C757 0.950 . S
H746 C754 0.950 . S
H747 C756 0.950 . S
H748 C758 0.950 . S
H749 C760 0.950 . S
H750 C762 0.950 . S
H751 C763 0.950 . S
C752 H744 0.950 . S
C752 C753 1.386 . S
C752 C754 1.391 . S
C753 C752 1.386 . S
C753 C757 1.393 . S
C754 H746 0.950 . S
C754 C752 1.391 . S
C754 C755 1.400 . S
C755 C754 1.400 . S
C755 C756 1.398 . S
C755 C761 1.491 . S
C756 H747 0.950 . S
C756 C755 1.398 . S
C756 C757 1.391 . S
C757 H745 0.950 . S
C757 C753 1.393 . S
C757 C756 1.391 . S
C758 H748 0.950 . S
C758 C759 1.386 . S
C758 C760 1.391 . S
C759 C758 1.386 . S
C759 C763 1.393 . S
C760 H749 0.950 . S
C760 C758 1.391 . S
C760 C761 1.400 . S
C761 C755 1.491 . S
C761 C760 1.400 . S
C761 C762 1.398 . S
C762 H750 0.950 . S
C762 C761 1.398 . S
C762 C763 1.391 . S
C763 H751 0.950 . S
C763 C759 1.393 . S
C763 C762 1.391 . S
H764 C772 0.950 . S
H765 C777 0.950 . S
H766 C774 0.950 . S
H767 C776 0.950 . S
H768 C778 0.950 . S
H769 C780 0.950 . S
H770 C782 0.950 . S
H771 C783 0.950 . S
C772 H764 0.950 . S
C772 C773 1.386 . S
C772 C774 1.391 . S
C773 C772 1.386 . S
C773 C777 1.393 . S
C774 H766 0.950 . S
C774 C772 1.391 . S
C774 C775 1.400 . S
C775 C774 1.400 . S
C775 C776 1.398 . S
C775 C781 1.491 . S
C776 H767 0.950 . S
C776 C775 1.398 . S
C776 C777 1.391 . S
C777 H765 0.950 . S
C777 C773 1.393 . S
C777 C776 1.391 . S
C778 H768 0.950 . S
C778 C779 1.386 . S
C778 C780 1.391 . S
C779 C778 1.386 . S
C779 C783 1.393 . S
C780 H769 0.950 . S
C780 C778 1.391 . S
C780 C781 1.400 . S
C781 C775 1.491 . S
C781 C780 1.400 . S
C781 C782 1.398 . S
C782 H770 0.950 . S
C782 C781 1.398 . S
C782 C783 1.391 . S
C783 H771 0.950 . S
C783 C779 1.393 . S
C783 C782 1.391 . S
H784 C792 0.950 . S
H785 C797 0.950 . S
H786 C794 0.950 . S
H787 C796 0.950 . S
H788 C798 0.950 . S
H789 C800 0.950 . S
H790 C802 0.950 . S
H791 C803 0.950 . S
C792 H784 0.950 . S
C792 C793 1.386 . S
C792 C794 1.391 . S
C793 C792 1.386 . S
C793 C797 1.393 . S
C794 H786 0.950 . S
C794 C792 1.391 . S
C794 C795 1.400 . S
C795 C794 1.400 . S
C795 C796 1.398 . S
C795 C801 1.491 . S
C796 H787 0.950 . S
C796 C795 1.398 . S
C796 C797 1.391 . S
C797 H785 0.950 . S
C797 C793 1.393 . S
C797 C796 1.391 . S
C798 H788 0.950 . S
C798 C799 1.386 . S
C798 C800 1.391 . S
C799 C798 1.386 . S
C799 C803 1.393 . S
C800 H789 0.950 . S
C800 C798 1.391 . S
C800 C801 1.400 . S
C801 C795 1.491 . S
C801 C800 1.400 . S
C801 C802 1.398 . S
C802 H790 0.950 . S
C802 C801 1.398 . S
C802 C803 1.391 . S
C803 H791 0.950 . S
C803 C799 1.393 . S
C803 C802 1.391 . S
H804 C812 0.950 . S
H805 C817 0.950 . S
H806 C814 0.950 . S
H807 C816 0.950 . S
H808 C818 0.950 . S
H809 C820 0.950 . S
H810 C822 0.950 . S
H811 C823 0.950 . S
C812 H804 0.950 . S
C812 C813 1.386 . S
C812 C814 1.391 . S
C813 C812 1.386 . S
C813 C817 1.393 . S
C814 H806 0.950 . S
C814 C812 1.391 . S
C814 C815 1.400 . S
C815 C814 1.400 . S
C815 C816 1.398 . S
C815 C821 1.491 . S
C816 H807 0.950 . S
C816 C815 1.398 . S
C816 C817 1.391 . S
C817 H805 0.950 . S
C817 C813 1.393 . S
C817 C816 1.391 . S
C818 H808 0.950 . S
C818 C819 1.386 . S
C818 C820 1.391 . S
C819 C818 1.386 . S
C819 C823 1.393 . S
C820 H809 0.950 . S
C820 C818 1.391 . S
C820 C821 1.400 . S
C821 C815 1.491 . S
C821 C820 1.400 . S
C821 C822 1.398 . S
C822 H810 0.950 . S
C822 C821 1.398 . S
C822 C823 1.391 . S
C823 H811 0.950 . S
C823 C819 1.393 . S
C823 C822 1.391 . S
H824 C832 0.950 . S
H825 C837 0.950 . S
H826 C834 0.950 . S
H827 C836 0.950 . S
H828 C838 0.950 . S
H829 C840 0.950 . S
H830 C842 0.950 . S
H831 C843 0.950 . S
C832 H824 0.950 . S
C832 C833 1.386 . S
C832 C834 1.391 . S
C833 C832 1.386 . S
C833 C837 1.393 . S
C834 H826 0.950 . S
C834 C832 1.391 . S
C834 C835 1.400 . S
C835 C834 1.400 . S
C835 C836 1.398 . S
C835 C841 1.491 . S
C836 H827 0.950 . S
C836 C835 1.398 . S
C836 C837 1.391 . S
C837 H825 0.950 . S
C837 C833 1.393 . S
C837 C836 1.391 . S
C838 H828 0.950 . S
C838 C839 1.386 . S
C838 C840 1.391 . S
C839 C838 1.386 . S
C839 C843 1.393 . S
C840 H829 0.950 . S
C840 C838 1.391 . S
C840 C841 1.400 . S
C841 C835 1.491 . S
C841 C840 1.400 . S
C841 C842 1.398 . S
C842 H830 0.950 . S
C842 C841 1.398 . S
C842 C843 1.391 . S
C843 H831 0.950 . S
C843 C839 1.393 . S
C843 C842 1.391 . S
H844 C852 0.950 . S
H845 C857 0.950 . S
H846 C854 0.950 . S
H847 C856 0.950 . S
H848 C858 0.950 . S
H849 C860 0.950 . S
H850 C862 0.950 . S
H851 C863 0.950 . S
C852 H844 0.950 . S
C852 C853 1.386 . S
C852 C854 1.391 . S
C853 C852 1.386 . S
C853 C857 1.393 . S
C854 H846 0.950 . S
C854 C852 1.391 . S
C854 C855 1.400 . S
C855 C854 1.400 . S
C855 C856 1.398 . S
C855 C861 1.491 . S
C856 H847 0.950 . S
C856 C855 1.398 . S
C856 C857 1.391 . S
C857 H845 0.950 . S
C857 C853 1.393 . S
C857 C856 1.391 . S
C858 H848 0.950 . S
C858 C859 1.386 . S
C858 C860 1.391 . S
C859 C858 1.386 . S
C859 C863 1.393 . S
C860 H849 0.950 . S
C860 C858 1.391 . S
C860 C861 1.400 . S
C861 C855 1.491 . S
C861 C860 1.400 . S
C861 C862 1.398 . S
C862 H850 0.950 . S
C862 C861 1.398 . S
C862 C863 1.391 . S
C863 H851 0.950 . S
C863 C859 1.393 . S
C863 C862 1.391 . S
H864 C872 0.950 . S
H865 C877 0.950 . S
H866 C874 0.950 . S
H867 C876 0.950 . S
H868 C878 0.950 . S
H869 C880 0.950 . S
H870 C882 0.950 . S
H871 C883 0.950 . S
C872 H864 0.950 . S
C872 C873 1.386 . S
C872 C874 1.391 . S
C873 C872 1.386 . S
C873 C877 1.393 . S
C874 H866 0.950 . S
C874 C872 1.391 . S
C874 C875 1.400 . S
C875 C874 1.400 . S
C875 C876 1.398 . S
C875 C881 1.491 . S
C876 H867 0.950 . S
C876 C875 1.398 . S
C876 C877 1.391 . S
C877 H865 0.950 . S
C877 C873 1.393 . S
C877 C876 1.391 . S
C878 H868 0.950 . S
C878 C879 1.386 . S
C878 C880 1.391 . S
C879 C878 1.386 . S
C879 C883 1.393 . S
C880 H869 0.950 . S
C880 C878 1.391 . S
C880 C881 1.400 . S
C881 C875 1.491 . S
C881 C880 1.400 . S
C881 C882 1.398 . S
C882 H870 0.950 . S
C882 C881 1.398 . S
C882 C883 1.391 . S
C883 H871 0.950 . S
C883 C879 1.393 . S
C883 C882 1.391 . S
H884 C892 0.950 . S
H885 C897 0.950 . S
H886 C894 0.950 . S
H887 C896 0.950 . S
H888 C898 0.950 . S
H889 C900 0.950 . S
H890 C902 0.950 . S
H891 C903 0.950 . S
C892 H884 0.950 . S
C892 C893 1.386 . S
C892 C894 1.391 . S
C893 C892 1.386 . S
C893 C897 1.393 . S
C894 H886 0.950 . S
C894 C892 1.391 . S
C894 C895 1.400 . S
C895 C894 1.400 . S
C895 C896 1.398 . S
C895 C901 1.491 . S
C896 H887 0.950 . S
C896 C895 1.398 . S
C896 C897 1.391 . S
C897 H885 0.950 . S
C897 C893 1.393 . S
C897 C896 1.391 . S
C898 H888 0.950 . S
C898 C899 1.386 . S
C898 C900 1.391 . S
C899 C898 1.386 . S
C899 C903 1.393 . S
C900 H889 0.950 . S
C900 C898 1.391 . S
C900 C901 1.400 . S
C901 C895 1.491 . S
C901 C900 1.400 . S
C901 C902 1.398 . S
C902 H890 0.950 . S
C902 C901 1.398 . S
C902 C903 1.391 . S
C903 H891 0.950 . S
C903 C899 1.393 . S
C903 C902 1.391 . S
H904 C912 0.950 . S
H905 C917 0.950 . S
H906 C914 0.950 . S
H907 C916 0.950 . S
H908 C918 0.950 . S
H909 C920 0.950 . S
H910 C922 0.950 . S
H911 C923 0.950 . S
C912 H904 0.950 . S
C912 C913 1.386 . S
C912 C914 1.391 . S
C913 C912 1.386 . S
C913 C917 1.393 . S
C914 H906 0.950 . S
C914 C912 1.391 . S
C914 C915 1.400 . S
C915 C914 1.400 . S
C915 C916 1.398 . S
C915 C921 1.491 . S
C916 H907 0.950 . S
C916 C915 1.398 . S
C916 C917 1.391 . S
C917 H905 0.950 . S
C917 C913 1.393 . S
C917 C916 1.391 . S
C918 H908 0.950 . S
C918 C919 1.386 1_545 S
C918 C920 1.391 . S
C919 C918 1.386 1_565 S
C919 C923 1.393 . S
C920 H909 0.950 . S
C920 C918 1.391 . S
C920 C921 1.400 . S
C921 C915 1.491 . S
C921 C920 1.400 . S
C921 C922 1.398 . S
C922 H910 0.950 . S
C922 C921 1.398 . S
C922 C923 1.391 1_545 S
C923 H911 0.950 . S
C923 C919 1.393 . S
C923 C922 1.391 1_565 S
H924 C932 0.950 . S
H925 C937 0.950 . S
H926 C934 0.950 . S
H927 C936 0.950 . S
H928 C938 0.950 . S
H929 C940 0.950 . S
H930 C942 0.950 . S
H931 C943 0.950 . S
C932 H924 0.950 . S
C932 C933 1.386 . S
C932 C934 1.391 . S
C933 C932 1.386 . S
C933 C937 1.393 . S
C934 H926 0.950 . S
C934 C932 1.391 . S
C934 C935 1.400 . S
C935 C934 1.400 . S
C935 C936 1.398 . S
C935 C941 1.491 . S
C936 H927 0.950 . S
C936 C935 1.398 . S
C936 C937 1.391 . S
C937 H925 0.950 . S
C937 C933 1.393 . S
C937 C936 1.391 . S
C938 H928 0.950 . S
C938 C939 1.386 . S
C938 C940 1.391 . S
C939 C938 1.386 . S
C939 C943 1.393 . S
C940 H929 0.950 . S
C940 C938 1.391 . S
C940 C941 1.400 . S
C941 C935 1.491 . S
C941 C940 1.400 . S
C941 C942 1.398 . S
C942 H930 0.950 . S
C942 C941 1.398 . S
C942 C943 1.391 . S
C943 H931 0.950 . S
C943 C939 1.393 . S
C943 C942 1.391 . S
H944 C952 0.950 . S
H945 C957 0.950 . S
H946 C954 0.950 . S
H947 C956 0.950 . S
H948 C958 0.950 . S
H949 C960 0.950 . S
H950 C962 0.950 . S
H951 C963 0.950 . S
C952 H944 0.950 . S
C952 C953 1.386 . S
C952 C954 1.391 . S
C953 C952 1.386 . S
C953 C957 1.393 . S
C954 H946 0.950 . S
C954 C952 1.391 . S
C954 C955 1.400 . S
C955 C954 1.400 . S
C955 C956 1.398 . S
C955 C961 1.491 . S
C956 H947 0.950 . S
C956 C955 1.398 . S
C956 C957 1.391 . S
C957 H945 0.950 . S
C957 C953 1.393 . S
C957 C956 1.391 . S
C958 H948 0.950 . S
C958 C959 1.386 . S
C958 C960 1.391 . S
C959 C958 1.386 . S
C959 C963 1.393 . S
C960 H949 0.950 . S
C960 C958 1.391 . S
C960 C961 1.400 . S
C961 C955 1.491 . S
C961 C960 1.400 . S
C961 C962 1.398 . S
C962 H950 0.950 . S
C962 C961 1.398 . S
C962 C963 1.391 . S
C963 H951 0.950 . S
C963 C959 1.393 . S
C963 C962 1.391 . S
H964 C972 0.950 . S
H965 C977 0.950 . S
H966 C974 0.950 . S
H967 C976 0.950 . S
H968 C978 0.950 . S
H969 C980 0.950 . S
H970 C982 0.950 . S
H971 C983 0.950 . S
C972 H964 0.950 . S
C972 C973 1.386 . S
C972 C974 1.391 . S
C973 C972 1.386 . S
C973 C977 1.393 . S
C974 H966 0.950 . S
C974 C972 1.391 . S
C974 C975 1.400 . S
C975 C974 1.400 . S
C975 C976 1.398 . S
C975 C981 1.491 . S
C976 H967 0.950 . S
C976 C975 1.398 . S
C976 C977 1.391 . S
C977 H965 0.950 . S
C977 C973 1.393 . S
C977 C976 1.391 . S
C978 H968 0.950 . S
C978 C979 1.386 . S
C978 C980 1.391 . S
C979 C978 1.386 . S
C979 C983 1.393 . S
C980 H969 0.950 . S
C980 C978 1.391 . S
C980 C981 1.400 . S
C981 C975 1.491 . S
C981 C980 1.400 . S
C981 C982 1.398 . S
C982 H970 0.950 . S
C982 C981 1.398 . S
C982 C983 1.391 . S
C983 H971 0.950 . S
C983 C979 1.393 . S
C983 C982 1.391 . S
H984 C992 0.950 . S
H985 C997 0.950 . S
H986 C994 0.950 . S
H987 C996 0.950 . S
H988 C998 0.950 . S
H989 C1000 0.950 . S
H990 C1002 0.950 . S
H991 C1003 0.950 . S
C992 H984 0.950 . S
C992 C993 1.386 . S
C992 C994 1.391 . S
C993 C992 1.386 . S
C993 C997 1.393 . S
C994 H986 0.950 . S
C994 C992 1.391 . S
C994 C995 1.400 . S
C995 C994 1.400 . S
C995 C996 1.398 . S
C995 C1001 1.491 . S
C996 H987 0.950 . S
C996 C995 1.398 . S
C996 C997 1.391 . S
C997 H985 0.950 . S
C997 C993 1.393 . S
C997 C996 1.391 . S
C998 H988 0.950 . S
C998 C999 1.386 . S
C998 C1000 1.391 1_565 S
C999 C998 1.386 . S
C999 C1003 1.393 1_565 S
C1000 H989 0.950 . S
C1000 C998 1.391 1_545 S
C1000 C1001 1.400 . S
C1001 C995 1.491 . S
C1001 C1000 1.400 . S
C1001 C1002 1.398 . S
C1002 H990 0.950 . S
C1002 C1001 1.398 . S
C1002 C1003 1.391 . S
C1003 H991 0.950 . S
C1003 C999 1.393 1_545 S
C1003 C1002 1.391 . S
H1004 C1012 0.950 . S
H1005 C1017 0.950 . S
H1006 C1014 0.950 . S
H1007 C1016 0.950 . S
H1008 C1018 0.950 . S
H1009 C1020 0.950 . S
H1010 C1022 0.950 . S
H1011 C1023 0.950 . S
C1012 H1004 0.950 . S
C1012 C1013 1.386 . S
C1012 C1014 1.391 . S
C1013 C1012 1.386 . S
C1013 C1017 1.393 . S
C1014 H1006 0.950 . S
C1014 C1012 1.391 . S
C1014 C1015 1.400 . S
C1015 C1014 1.400 . S
C1015 C1016 1.398 . S
C1015 C1021 1.491 . S
C1016 H1007 0.950 . S
C1016 C1015 1.398 . S
C1016 C1017 1.391 . S
C1017 H1005 0.950 . S
C1017 C1013 1.393 . S
C1017 C1016 1.391 . S
C1018 H1008 0.950 . S
C1018 C1019 1.386 . S
C1018 C1020 1.391 . S
C1019 C1018 1.386 . S
C1019 C1023 1.393 . S
C1020 H1009 0.950 . S
C1020 C1018 1.391 . S
C1020 C1021 1.400 . S
C1021 C1015 1.491 . S
C1021 C1020 1.400 . S
C1021 C1022 1.398 . S
C1022 H1010 0.950 . S
C1022 C1021 1.398 . S
C1022 C1023 1.391 . S
C1023 H1011 0.950 . S
C1023 C1019 1.393 . S
C1023 C1022 1.391 . S
H1024 C1032 0.950 . S
H1025 C1037 0.950 . S
H1026 C1034 0.950 . S
H1027 C1036 0.950 . S
H1028 C1038 0.950 . S
H1029 C1040 0.950 . S
H1030 C1042 0.950 . S
H1031 C1043 0.950 . S
C1032 H1024 0.950 . S
C1032 C1033 1.386 . S
C1032 C1034 1.391 . S
C1033 C1032 1.386 . S
C1033 C1037 1.393 . S
C1034 H1026 0.950 . S
C1034 C1032 1.391 . S
C1034 C1035 1.400 . S
C1035 C1034 1.400 . S
C1035 C1036 1.398 . S
C1035 C1041 1.491 . S
C1036 H1027 0.950 . S
C1036 C1035 1.398 . S
C1036 C1037 1.391 . S
C1037 H1025 0.950 . S
C1037 C1033 1.393 . S
C1037 C1036 1.391 . S
C1038 H1028 0.950 . S
C1038 C1039 1.386 . S
C1038 C1040 1.391 . S
C1039 C1038 1.386 . S
C1039 C1043 1.393 . S
C1040 H1029 0.950 . S
C1040 C1038 1.391 . S
C1040 C1041 1.400 . S
C1041 C1035 1.491 . S
C1041 C1040 1.400 . S
C1041 C1042 1.398 . S
C1042 H1030 0.950 . S
C1042 C1041 1.398 . S
C1042 C1043 1.391 . S
C1043 H1031 0.950 . S
C1043 C1039 1.393 . S
C1043 C1042 1.391 . S
H1044 C1052 0.950 . S
H1045 C1057 0.950 . S
H1046 C1054 0.950 . S
H1047 C1056 0.950 . S
H1048 C1058 0.950 . S
H1049 C1060 0.956 . S
H1050 C1062 0.950 . S
H1051 C1063 0.950 . S
C1052 H1044 0.950 . S
C1052 C1053 1.386 . S
C1052 C1054 1.391 . S
C1053 C1052 1.386 . S
C1053 C1057 1.393 . S
C1054 H1046 0.950 . S
C1054 C1052 1.391 . S
C1054 C1055 1.400 . S
C1055 C1054 1.400 . S
C1055 C1056 1.398 . S
C1055 C1061 1.491 . S
C1056 H1047 0.950 . S
C1056 C1055 1.398 . S
C1056 C1057 1.391 . S
C1057 H1045 0.950 . S
C1057 C1053 1.393 . S
C1057 C1056 1.391 . S
C1058 H1048 0.950 . S
C1058 C1059 1.386 . S
C1058 C1060 1.381 1_556 S
C1059 C1058 1.386 . S
C1059 C1063 1.393 . S
C1060 H1049 0.956 . S
C1060 C1058 1.381 1_554 S
C1060 C1061 1.405 . S
C1061 C1055 1.491 . S
C1061 C1060 1.405 . S
C1061 C1062 1.398 1_554 S
C1062 H1050 0.950 . S
C1062 C1061 1.398 1_556 S
C1062 C1063 1.391 . S
C1063 H1051 0.950 . S
C1063 C1059 1.393 . S
C1063 C1062 1.391 . S
H1064 C1072 0.950 . S
H1065 C1077 0.950 . S
H1066 C1074 0.950 . S
H1067 C1076 0.950 . S
H1068 C1078 0.950 . S
H1069 C1080 0.950 . S
H1070 C1082 0.950 . S
H1071 C1083 0.950 . S
C1072 H1064 0.950 . S
C1072 C1073 1.386 . S
C1072 C1074 1.391 . S
C1073 C1072 1.386 . S
C1073 C1077 1.393 . S
C1074 H1066 0.950 . S
C1074 C1072 1.391 . S
C1074 C1075 1.400 . S
C1075 C1074 1.400 . S
C1075 C1076 1.398 . S
C1075 C1081 1.491 . S
C1076 H1067 0.950 . S
C1076 C1075 1.398 . S
C1076 C1077 1.391 . S
C1077 H1065 0.950 . S
C1077 C1073 1.393 . S
C1077 C1076 1.391 . S
C1078 H1068 0.950 . S
C1078 C1079 1.386 . S
C1078 C1080 1.391 . S
C1079 C1078 1.386 . S
C1079 C1083 1.393 . S
C1080 H1069 0.950 . S
C1080 C1078 1.391 . S
C1080 C1081 1.400 . S
C1081 C1075 1.491 . S
C1081 C1080 1.400 . S
C1081 C1082 1.398 . S
C1082 H1070 0.950 . S
C1082 C1081 1.398 . S
C1082 C1083 1.391 . S
C1083 H1071 0.950 . S
C1083 C1079 1.393 . S
C1083 C1082 1.391 . S
H1084 C1092 0.950 . S
H1085 C1097 0.950 . S
H1086 C1094 0.950 . S
H1087 C1096 0.950 . S
H1088 C1098 0.950 . S
H1089 C1100 0.950 . S
H1090 C1102 0.950 . S
H1091 C1103 0.950 . S
C1092 H1084 0.950 . S
C1092 C1093 1.386 . S
C1092 C1094 1.391 . S
C1093 C1092 1.386 . S
C1093 C1097 1.393 . S
C1094 H1086 0.950 . S
C1094 C1092 1.391 . S
C1094 C1095 1.400 . S
C1095 C1094 1.400 . S
C1095 C1096 1.398 . S
C1095 C1101 1.491 . S
C1096 H1087 0.950 . S
C1096 C1095 1.398 . S
C1096 C1097 1.391 . S
C1097 H1085 0.950 . S
C1097 C1093 1.393 . S
C1097 C1096 1.391 . S
C1098 H1088 0.950 . S
C1098 C1099 1.386 . S
C1098 C1100 1.391 . S
C1099 C1098 1.386 . S
C1099 C1103 1.393 . S
C1100 H1089 0.950 . S
C1100 C1098 1.391 . S
C1100 C1101 1.400 . S
C1101 C1095 1.491 . S
C1101 C1100 1.400 . S
C1101 C1102 1.398 . S
C1102 H1090 0.950 . S
C1102 C1101 1.398 . S
C1102 C1103 1.391 . S
C1103 H1091 0.950 . S
C1103 C1099 1.393 . S
C1103 C1102 1.391 . S
H1104 C1112 0.950 . S
H1105 C1117 0.950 . S
H1106 C1114 0.950 . S
H1107 C1116 0.950 . S
H1108 C1118 0.950 . S
H1109 C1120 0.950 . S
H1110 C1122 0.950 . S
H1111 C1123 0.950 . S
C1112 H1104 0.950 . S
C1112 C1113 1.386 . S
C1112 C1114 1.391 . S
C1113 C1112 1.386 . S
C1113 C1117 1.393 . S
C1114 H1106 0.950 . S
C1114 C1112 1.391 . S
C1114 C1115 1.400 . S
C1115 C1114 1.400 . S
C1115 C1116 1.398 . S
C1115 C1121 1.491 . S
C1116 H1107 0.950 . S
C1116 C1115 1.398 . S
C1116 C1117 1.391 . S
C1117 H1105 0.950 . S
C1117 C1113 1.393 . S
C1117 C1116 1.391 . S
C1118 H1108 0.950 . S
C1118 C1119 1.386 . S
C1118 C1120 1.391 . S
C1119 C1118 1.386 . S
C1119 C1123 1.393 . S
C1120 H1109 0.950 . S
C1120 C1118 1.391 . S
C1120 C1121 1.400 . S
C1121 C1115 1.491 . S
C1121 C1120 1.400 . S
C1121 C1122 1.398 . S
C1122 H1110 0.950 . S
C1122 C1121 1.398 . S
C1122 C1123 1.391 . S
C1123 H1111 0.950 . S
C1123 C1119 1.393 . S
C1123 C1122 1.391 . S
H1124 C1132 0.950 . S
H1125 C1137 0.950 . S
H1126 C1134 0.950 . S
H1127 C1136 0.950 . S
H1128 C1138 0.950 . S
H1129 C1140 0.950 . S
H1130 C1142 0.950 . S
H1131 C1143 0.950 . S
C1132 H1124 0.950 . S
C1132 C1133 1.386 . S
C1132 C1134 1.391 . S
C1133 C1132 1.386 . S
C1133 C1137 1.393 . S
C1134 H1126 0.950 . S
C1134 C1132 1.391 . S
C1134 C1135 1.400 . S
C1135 C1134 1.400 . S
C1135 C1136 1.398 . S
C1135 C1141 1.491 . S
C1136 H1127 0.950 . S
C1136 C1135 1.398 . S
C1136 C1137 1.391 . S
C1137 H1125 0.950 . S
C1137 C1133 1.393 . S
C1137 C1136 1.391 . S
C1138 H1128 0.950 . S
C1138 C1139 1.386 . S
C1138 C1140 1.391 1_455 S
C1139 C1138 1.386 . S
C1139 C1143 1.393 1_455 S
C1140 H1129 0.950 . S
C1140 C1138 1.391 1_655 S
C1140 C1141 1.400 . S
C1141 C1135 1.491 . S
C1141 C1140 1.400 . S
C1141 C1142 1.398 . S
C1142 H1130 0.950 . S
C1142 C1141 1.398 . S
C1142 C1143 1.391 . S
C1143 H1131 0.950 . S
C1143 C1139 1.393 1_655 S
C1143 C1142 1.391 . S
H1144 C1152 0.950 . S
H1145 C1157 0.950 . S
H1146 C1154 0.950 . S
H1147 C1156 0.950 . S
H1148 C1158 0.950 . S
H1149 C1160 0.950 . S
H1150 C1162 0.950 . S
H1151 C1163 0.950 . S
C1152 H1144 0.950 . S
C1152 C1153 1.386 . S
C1152 C1154 1.391 . S
C1153 C1152 1.386 . S
C1153 C1157 1.393 . S
C1154 H1146 0.950 . S
C1154 C1152 1.391 . S
C1154 C1155 1.400 . S
C1155 C1154 1.400 . S
C1155 C1156 1.398 . S
C1155 C1161 1.491 . S
C1156 H1147 0.950 . S
C1156 C1155 1.398 . S
C1156 C1157 1.391 . S
C1157 H1145 0.950 . S
C1157 C1153 1.393 . S
C1157 C1156 1.391 . S
C1158 H1148 0.950 . S
C1158 C1159 1.386 . S
C1158 C1160 1.391 . S
C1159 C1158 1.386 . S
C1159 C1163 1.393 . S
C1160 H1149 0.950 . S
C1160 C1158 1.391 . S
C1160 C1161 1.400 . S
C1161 C1155 1.491 . S
C1161 C1160 1.400 . S
C1161 C1162 1.398 . S
C1162 H1150 0.950 . S
C1162 C1161 1.398 . S
C1162 C1163 1.391 . S
C1163 H1151 0.950 . S
C1163 C1159 1.393 . S
C1163 C1162 1.391 . S
H1164 C1172 0.950 . S
H1165 C1177 0.950 . S
H1166 C1174 0.950 . S
H1167 C1176 0.950 . S
H1168 C1178 0.950 . S
H1169 C1180 0.950 . S
H1170 C1182 0.950 . S
H1171 C1183 0.950 . S
C1172 H1164 0.950 . S
C1172 C1173 1.386 . S
C1172 C1174 1.391 . S
C1173 C1172 1.386 . S
C1173 C1177 1.393 . S
C1174 H1166 0.950 . S
C1174 C1172 1.391 . S
C1174 C1175 1.400 . S
C1175 C1174 1.400 . S
C1175 C1176 1.398 . S
C1175 C1181 1.491 . S
C1176 H1167 0.950 . S
C1176 C1175 1.398 . S
C1176 C1177 1.391 . S
C1177 H1165 0.950 . S
C1177 C1173 1.393 . S
C1177 C1176 1.391 . S
C1178 H1168 0.950 . S
C1178 C1179 1.386 . S
C1178 C1180 1.391 . S
C1179 C1178 1.386 . S
C1179 C1183 1.393 . S
C1180 H1169 0.950 . S
C1180 C1178 1.391 . S
C1180 C1181 1.400 . S
C1181 C1175 1.491 . S
C1181 C1180 1.400 . S
C1181 C1182 1.398 . S
C1182 H1170 0.950 . S
C1182 C1181 1.398 . S
C1182 C1183 1.391 . S
C1183 H1171 0.950 . S
C1183 C1179 1.393 . S
C1183 C1182 1.391 . S
H1184 C1192 0.950 . S
H1185 C1197 0.950 . S
H1186 C1194 0.950 . S
H1187 C1196 0.950 . S
H1188 C1198 0.950 . S
H1189 C1200 0.950 . S
H1190 C1202 0.950 . S
H1191 C1203 0.950 . S
C1192 H1184 0.950 . S
C1192 C1193 1.386 . S
C1192 C1194 1.391 . S
C1193 C1192 1.386 . S
C1193 C1197 1.393 . S
C1194 H1186 0.950 . S
C1194 C1192 1.391 . S
C1194 C1195 1.400 . S
C1195 C1194 1.400 . S
C1195 C1196 1.398 . S
C1195 C1201 1.491 . S
C1196 H1187 0.950 . S
C1196 C1195 1.398 . S
C1196 C1197 1.391 . S
C1197 H1185 0.950 . S
C1197 C1193 1.393 . S
C1197 C1196 1.391 . S
C1198 H1188 0.950 . S
C1198 C1199 1.386 . S
C1198 C1200 1.391 . S
C1199 C1198 1.386 . S
C1199 C1203 1.393 . S
C1200 H1189 0.950 . S
C1200 C1198 1.391 . S
C1200 C1201 1.400 . S
C1201 C1195 1.491 . S
C1201 C1200 1.400 . S
C1201 C1202 1.398 . S
C1202 H1190 0.950 . S
C1202 C1201 1.398 . S
C1202 C1203 1.391 . S
C1203 H1191 0.950 . S
C1203 C1199 1.393 . S
C1203 C1202 1.391 . S
H1204 C1212 0.950 . S
H1205 C1217 0.950 . S
H1206 C1214 0.950 . S
H1207 C1216 0.950 . S
H1208 C1218 0.950 . S
H1209 C1220 0.950 . S
H1210 C1222 0.950 . S
H1211 C1223 0.950 . S
C1212 H1204 0.950 . S
C1212 C1213 1.386 . S
C1212 C1214 1.391 . S
C1213 C1212 1.386 . S
C1213 C1217 1.393 . S
C1214 H1206 0.950 . S
C1214 C1212 1.391 . S
C1214 C1215 1.400 . S
C1215 C1214 1.400 . S
C1215 C1216 1.398 . S
C1215 C1221 1.491 . S
C1216 H1207 0.950 . S
C1216 C1215 1.398 . S
C1216 C1217 1.391 . S
C1217 H1205 0.950 . S
C1217 C1213 1.393 . S
C1217 C1216 1.391 . S
C1218 H1208 0.950 . S
C1218 C1219 1.386 . S
C1218 C1220 1.391 . S
C1219 C1218 1.386 . S
C1219 C1223 1.393 . S
C1220 H1209 0.950 . S
C1220 C1218 1.391 . S
C1220 C1221 1.400 . S
C1221 C1215 1.491 . S
C1221 C1220 1.400 . S
C1221 C1222 1.398 . S
C1222 H1210 0.950 . S
C1222 C1221 1.398 . S
C1222 C1223 1.391 . S
C1223 H1211 0.950 . S
C1223 C1219 1.393 . S
C1223 C1222 1.391 . S
H1224 C1232 0.950 . S
H1225 C1237 0.950 . S
H1226 C1234 0.950 . S
H1227 C1236 0.950 . S
H1228 C1238 0.950 . S
H1229 C1240 0.950 . S
H1230 C1242 0.950 . S
H1231 C1243 0.950 . S
C1232 H1224 0.950 . S
C1232 C1233 1.386 . S
C1232 C1234 1.391 . S
C1233 C1232 1.386 . S
C1233 C1237 1.393 . S
C1234 H1226 0.950 . S
C1234 C1232 1.391 . S
C1234 C1235 1.400 . S
C1235 C1234 1.400 . S
C1235 C1236 1.398 . S
C1235 C1241 1.491 . S
C1236 H1227 0.950 . S
C1236 C1235 1.398 . S
C1236 C1237 1.391 . S
C1237 H1225 0.950 . S
C1237 C1233 1.393 . S
C1237 C1236 1.391 . S
C1238 H1228 0.950 . S
C1238 C1239 1.386 . S
C1238 C1240 1.391 1_556 S
C1239 C1238 1.386 . S
C1239 C1243 1.393 1_556 S
C1240 H1229 0.950 . S
C1240 C1238 1.391 1_554 S
C1240 C1241 1.400 . S
C1241 C1235 1.491 . S
C1241 C1240 1.400 . S
C1241 C1242 1.398 . S
C1242 H1230 0.950 . S
C1242 C1241 1.398 . S
C1242 C1243 1.391 . S
C1243 H1231 0.950 . S
C1243 C1239 1.393 1_554 S
C1243 C1242 1.391 . S
H1244 C1252 0.950 . S
H1245 C1257 0.950 . S
H1246 C1254 0.950 . S
H1247 C1256 0.950 . S
H1248 C1258 0.950 . S
H1249 C1260 0.950 . S
H1250 C1262 0.950 . S
H1251 C1263 0.950 . S
C1252 H1244 0.950 . S
C1252 C1253 1.386 . S
C1252 C1254 1.391 . S
C1253 C1252 1.386 . S
C1253 C1257 1.393 . S
C1254 H1246 0.950 . S
C1254 C1252 1.391 . S
C1254 C1255 1.400 . S
C1255 C1254 1.400 . S
C1255 C1256 1.398 . S
C1255 C1261 1.491 . S
C1256 H1247 0.950 . S
C1256 C1255 1.398 . S
C1256 C1257 1.391 . S
C1257 H1245 0.950 . S
C1257 C1253 1.393 . S
C1257 C1256 1.391 . S
C1258 H1248 0.950 . S
C1258 C1259 1.386 . S
C1258 C1260 1.391 . S
C1259 C1258 1.386 . S
C1259 C1263 1.393 . S
C1260 H1249 0.950 . S
C1260 C1258 1.391 . S
C1260 C1261 1.400 . S
C1261 C1255 1.491 . S
C1261 C1260 1.400 . S
C1261 C1262 1.398 . S
C1262 H1250 0.950 . S
C1262 C1261 1.398 . S
C1262 C1263 1.391 . S
C1263 H1251 0.950 . S
C1263 C1259 1.393 . S
C1263 C1262 1.391 . S
H1264 C1272 0.950 . S
H1265 C1277 0.950 . S
H1266 C1274 0.950 . S
H1267 C1276 0.950 . S
H1268 C1278 0.950 . S
H1269 C1280 0.950 . S
H1270 C1282 0.950 . S
H1271 C1283 0.950 1_556 S
C1272 H1264 0.950 . S
C1272 C1273 1.386 . S
C1272 C1274 1.391 . S
C1273 C1272 1.386 . S
C1273 C1277 1.393 . S
C1274 H1266 0.950 . S
C1274 C1272 1.391 . S
C1274 C1275 1.400 . S
C1275 C1274 1.400 . S
C1275 C1276 1.398 . S
C1275 C1281 1.491 . S
C1276 H1267 0.950 . S
C1276 C1275 1.398 . S
C1276 C1277 1.391 . S
C1277 H1265 0.950 . S
C1277 C1273 1.393 . S
C1277 C1276 1.391 . S
C1278 H1268 0.950 . S
C1278 C1279 1.386 1_554 S
C1278 C1280 1.391 . S
C1279 C1278 1.386 1_556 S
C1279 C1283 1.393 1_556 S
C1280 H1269 0.950 . S
C1280 C1278 1.391 . S
C1280 C1281 1.400 . S
C1281 C1275 1.491 . S
C1281 C1280 1.400 . S
C1281 C1282 1.398 . S
C1282 H1270 0.950 . S
C1282 C1281 1.398 . S
C1282 C1283 1.391 . S
C1283 H1271 0.950 1_554 S
C1283 C1279 1.393 1_554 S
C1283 C1282 1.391 . S
H1284 C1292 0.950 . S
H1285 C1297 0.950 . S
H1286 C1294 0.950 . S
H1287 C1296 0.950 . S
H1288 C1298 0.950 . S
H1289 C1300 0.950 . S
H1290 C1302 0.950 . S
H1291 C1303 0.950 . S
C1292 H1284 0.950 . S
C1292 C1293 1.386 . S
C1292 C1294 1.391 . S
C1293 C1292 1.386 . S
C1293 C1297 1.393 . S
C1294 H1286 0.950 . S
C1294 C1292 1.391 . S
C1294 C1295 1.400 . S
C1295 C1294 1.400 . S
C1295 C1296 1.398 . S
C1295 C1301 1.491 . S
C1296 H1287 0.950 . S
C1296 C1295 1.398 . S
C1296 C1297 1.391 . S
C1297 H1285 0.950 . S
C1297 C1293 1.393 . S
C1297 C1296 1.391 . S
C1298 H1288 0.950 . S
C1298 C1299 1.386 . S
C1298 C1300 1.391 . S
C1299 C1298 1.386 . S
C1299 C1303 1.393 . S
C1300 H1289 0.950 . S
C1300 C1298 1.391 . S
C1300 C1301 1.400 . S
C1301 C1295 1.491 . S
C1301 C1300 1.400 . S
C1301 C1302 1.398 . S
C1302 H1290 0.950 . S
C1302 C1301 1.398 . S
C1302 C1303 1.391 . S
C1303 H1291 0.950 . S
C1303 C1299 1.393 . S
C1303 C1302 1.391 . S
H1304 C1312 0.950 . S
H1305 C1317 0.950 . S
H1306 C1314 0.950 . S
H1307 C1316 0.950 . S
H1308 C1318 0.953 . S
H1309 C1320 0.950 . S
H1310 C1322 0.950 . S
H1311 C1323 0.950 . S
C1312 H1304 0.950 . S
C1312 C1313 1.386 . S
C1312 C1314 1.391 . S
C1313 C1312 1.386 . S
C1313 C1317 1.393 . S
C1314 H1306 0.950 . S
C1314 C1312 1.391 . S
C1314 C1315 1.400 . S
C1315 C1314 1.400 . S
C1315 C1316 1.398 . S
C1315 C1321 1.491 . S
C1316 H1307 0.950 . S
C1316 C1315 1.398 . S
C1316 C1317 1.391 . S
C1317 H1305 0.950 . S
C1317 C1313 1.393 . S
C1317 C1316 1.391 . S
C1318 H1308 0.953 . S
C1318 C1319 1.386 1_556 S
C1318 C1320 1.391 . S
C1319 C1318 1.386 1_554 S
C1319 C1323 1.393 . S
C1320 H1309 0.950 . S
C1320 C1318 1.391 . S
C1320 C1321 1.400 . S
C1321 C1315 1.491 . S
C1321 C1320 1.400 . S
C1321 C1322 1.398 . S
C1322 H1310 0.950 . S
C1322 C1321 1.398 . S
C1322 C1323 1.391 1_556 S
C1323 H1311 0.950 . S
C1323 C1319 1.393 . S
C1323 C1322 1.391 1_554 S
H1324 C1332 0.950 . S
H1325 C1337 0.950 . S
H1326 C1334 0.950 . S
H1327 C1336 0.950 . S
H1328 C1338 0.950 . S
H1329 C1340 0.950 . S
H1330 C1342 0.950 . S
H1331 C1343 0.950 . S
C1332 H1324 0.950 . S
C1332 C1333 1.386 . S
C1332 C1334 1.391 . S
C1333 C1332 1.386 . S
C1333 C1337 1.393 . S
C1334 H1326 0.950 . S
C1334 C1332 1.391 . S
C1334 C1335 1.400 . S
C1335 C1334 1.400 . S
C1335 C1336 1.398 . S
C1335 C1341 1.491 . S
C1336 H1327 0.950 . S
C1336 C1335 1.398 . S
C1336 C1337 1.391 . S
C1337 H1325 0.950 . S
C1337 C1333 1.393 . S
C1337 C1336 1.391 . S
C1338 H1328 0.950 . S
C1338 C1339 1.386 . S
C1338 C1340 1.391 . S
C1339 C1338 1.386 . S
C1339 C1343 1.393 . S
C1340 H1329 0.950 . S
C1340 C1338 1.391 . S
C1340 C1341 1.400 . S
C1341 C1335 1.491 . S
C1341 C1340 1.400 . S
C1341 C1342 1.398 . S
C1342 H1330 0.950 . S
C1342 C1341 1.398 . S
C1342 C1343 1.391 . S
C1343 H1331 0.950 . S
C1343 C1339 1.393 . S
C1343 C1342 1.391 . S
H1344 C1352 0.950 . S
H1345 C1357 0.950 . S
H1346 C1354 0.950 . S
H1347 C1356 0.950 . S
H1348 C1358 0.952 . S
H1349 C1360 0.950 . S
H1350 C1362 0.950 . S
H1351 C1363 0.950 . S
C1352 H1344 0.950 . S
C1352 C1353 1.386 . S
C1352 C1354 1.391 . S
C1353 C1352 1.386 . S
C1353 C1357 1.393 . S
C1354 H1346 0.950 . S
C1354 C1352 1.391 . S
C1354 C1355 1.400 . S
C1355 C1354 1.400 . S
C1355 C1356 1.398 . S
C1355 C1361 1.491 . S
C1356 H1347 0.950 . S
C1356 C1355 1.398 . S
C1356 C1357 1.391 . S
C1357 H1345 0.950 . S
C1357 C1353 1.393 . S
C1357 C1356 1.391 . S
C1358 H1348 0.952 . S
C1358 C1359 1.394 . S
C1358 C1360 1.380 1_554 S
C1359 C1358 1.394 . S
C1359 C1363 1.393 . S
C1360 H1349 0.950 . S
C1360 C1358 1.380 1_556 S
C1360 C1361 1.400 . S
C1361 C1355 1.491 . S
C1361 C1360 1.400 . S
C1361 C1362 1.398 . S
C1362 H1350 0.950 . S
C1362 C1361 1.398 . S
C1362 C1363 1.391 1_556 S
C1363 H1351 0.950 . S
C1363 C1359 1.393 . S
C1363 C1362 1.391 1_554 S
H1364 C1372 0.950 . S
H1365 C1377 0.950 . S
H1366 C1374 0.950 . S
H1367 C1376 0.950 . S
H1368 C1378 0.950 . S
H1369 C1380 0.950 . S
H1370 C1382 0.950 . S
H1371 C1383 0.950 . S
C1372 H1364 0.950 . S
C1372 C1373 1.386 . S
C1372 C1374 1.391 . S
C1373 C1372 1.386 . S
C1373 C1377 1.393 . S
C1374 H1366 0.950 . S
C1374 C1372 1.391 . S
C1374 C1375 1.400 . S
C1375 C1374 1.400 . S
C1375 C1376 1.398 . S
C1375 C1381 1.491 . S
C1376 H1367 0.950 . S
C1376 C1375 1.398 . S
C1376 C1377 1.391 . S
C1377 H1365 0.950 . S
C1377 C1373 1.393 . S
C1377 C1376 1.391 . S
C1378 H1368 0.950 . S
C1378 C1379 1.386 . S
C1378 C1380 1.391 . S
C1379 C1378 1.386 . S
C1379 C1383 1.393 . S
C1380 H1369 0.950 . S
C1380 C1378 1.391 . S
C1380 C1381 1.400 . S
C1381 C1375 1.491 . S
C1381 C1380 1.400 . S
C1381 C1382 1.398 . S
C1382 H1370 0.950 . S
C1382 C1381 1.398 . S
C1382 C1383 1.391 . S
C1383 H1371 0.950 . S
C1383 C1379 1.393 . S
C1383 C1382 1.391 . S
H1384 C1392 0.950 . S
H1385 C1397 0.950 . S
H1386 C1394 0.950 . S
H1387 C1396 0.950 . S
H1388 C1398 0.950 . S
H1389 C1400 0.950 . S
H1390 C1402 0.950 . S
H1391 C1403 0.950 . S
C1392 H1384 0.950 . S
C1392 C1393 1.386 . S
C1392 C1394 1.391 . S
C1393 C1392 1.386 . S
C1393 C1397 1.393 . S
C1394 H1386 0.950 . S
C1394 C1392 1.391 . S
C1394 C1395 1.400 . S
C1395 C1394 1.400 . S
C1395 C1396 1.398 . S
C1395 C1401 1.491 . S
C1396 H1387 0.950 . S
C1396 C1395 1.398 . S
C1396 C1397 1.391 . S
C1397 H1385 0.950 . S
C1397 C1393 1.393 . S
C1397 C1396 1.391 . S
C1398 H1388 0.950 . S
C1398 C1399 1.386 . S
C1398 C1400 1.391 . S
C1399 C1398 1.386 . S
C1399 C1403 1.393 . S
C1400 H1389 0.950 . S
C1400 C1398 1.391 . S
C1400 C1401 1.400 . S
C1401 C1395 1.491 . S
C1401 C1400 1.400 . S
C1401 C1402 1.398 . S
C1402 H1390 0.950 . S
C1402 C1401 1.398 . S
C1402 C1403 1.391 . S
C1403 H1391 0.950 . S
C1403 C1399 1.393 . S
C1403 C1402 1.391 . S
H1404 C1412 0.950 . S
H1405 C1417 0.950 . S
H1406 C1414 0.950 . S
H1407 C1416 0.950 . S
H1408 C1418 0.950 . S
H1409 C1420 0.950 . S
H1410 C1422 0.950 . S
H1411 C1423 0.950 . S
C1412 H1404 0.950 . S
C1412 C1413 1.386 . S
C1412 C1414 1.391 . S
C1413 C1412 1.386 . S
C1413 C1417 1.393 . S
C1414 H1406 0.950 . S
C1414 C1412 1.391 . S
C1414 C1415 1.400 . S
C1415 C1414 1.400 . S
C1415 C1416 1.398 . S
C1415 C1421 1.491 . S
C1416 H1407 0.950 . S
C1416 C1415 1.398 . S
C1416 C1417 1.391 . S
C1417 H1405 0.950 . S
C1417 C1413 1.393 . S
C1417 C1416 1.391 . S
C1418 H1408 0.950 . S
C1418 C1419 1.386 . S
C1418 C1420 1.391 . S
C1419 C1418 1.386 . S
C1419 C1423 1.393 . S
C1420 H1409 0.950 . S
C1420 C1418 1.391 . S
C1420 C1421 1.400 . S
C1421 C1415 1.491 . S
C1421 C1420 1.400 . S
C1421 C1422 1.398 . S
C1422 H1410 0.950 . S
C1422 C1421 1.398 . S
C1422 C1423 1.391 . S
C1423 H1411 0.950 . S
C1423 C1419 1.393 . S
C1423 C1422 1.391 . S
H1424 C1432 0.950 . S
H1425 C1437 0.950 . S
H1426 C1434 0.950 . S
H1427 C1436 0.950 . S
H1428 C1438 0.950 . S
H1429 C1440 0.950 . S
H1430 C1442 0.950 . S
H1431 C1443 0.950 . S
C1432 H1424 0.950 . S
C1432 C1433 1.386 . S
C1432 C1434 1.391 . S
C1433 C1432 1.386 . S
C1433 C1437 1.393 . S
C1434 H1426 0.950 . S
C1434 C1432 1.391 . S
C1434 C1435 1.400 . S
C1435 C1434 1.400 . S
C1435 C1436 1.398 . S
C1435 C1441 1.491 . S
C1436 H1427 0.950 . S
C1436 C1435 1.398 . S
C1436 C1437 1.391 . S
C1437 H1425 0.950 . S
C1437 C1433 1.393 . S
C1437 C1436 1.391 . S
C1438 H1428 0.950 . S
C1438 C1439 1.386 . S
C1438 C1440 1.391 1_545 S
C1439 C1438 1.386 . S
C1439 C1443 1.393 1_545 S
C1440 H1429 0.950 . S
C1440 C1438 1.391 1_565 S
C1440 C1441 1.400 . S
C1441 C1435 1.491 . S
C1441 C1440 1.400 . S
C1441 C1442 1.398 . S
C1442 H1430 0.950 . S
C1442 C1441 1.398 . S
C1442 C1443 1.391 . S
C1443 H1431 0.950 . S
C1443 C1439 1.393 1_565 S
C1443 C1442 1.391 . S
H1444 C1452 0.950 . S
H1445 C1457 0.950 . S
H1446 C1454 0.950 . S
H1447 C1456 0.950 . S
H1448 C1458 0.950 . S
H1449 C1460 0.950 . S
H1450 C1462 0.950 . S
H1451 C1463 0.950 . S
C1452 H1444 0.950 . S
C1452 C1453 1.386 . S
C1452 C1454 1.391 . S
C1453 C1452 1.386 . S
C1453 C1457 1.393 . S
C1454 H1446 0.950 . S
C1454 C1452 1.391 . S
C1454 C1455 1.400 . S
C1455 C1454 1.400 . S
C1455 C1456 1.398 . S
C1455 C1461 1.491 . S
C1456 H1447 0.950 . S
C1456 C1455 1.398 . S
C1456 C1457 1.391 . S
C1457 H1445 0.950 . S
C1457 C1453 1.393 . S
C1457 C1456 1.391 . S
C1458 H1448 0.950 . S
C1458 C1459 1.386 . S
C1458 C1460 1.391 . S
C1459 C1458 1.386 . S
C1459 C1463 1.393 . S
C1460 H1449 0.950 . S
C1460 C1458 1.391 . S
C1460 C1461 1.400 . S
C1461 C1455 1.491 . S
C1461 C1460 1.400 . S
C1461 C1462 1.398 . S
C1462 H1450 0.950 . S
C1462 C1461 1.398 . S
C1462 C1463 1.391 . S
C1463 H1451 0.950 . S
C1463 C1459 1.393 . S
C1463 C1462 1.391 . S
H1464 C1472 0.950 . S
H1465 C1477 0.950 . S
H1466 C1474 0.950 . S
H1467 C1476 0.950 . S
H1468 C1478 0.950 . S
H1469 C1480 0.950 . S
H1470 C1482 0.950 . S
H1471 C1483 0.950 . S
C1472 H1464 0.950 . S
C1472 C1473 1.386 . S
C1472 C1474 1.391 . S
C1473 C1472 1.386 . S
C1473 C1477 1.393 . S
C1474 H1466 0.950 . S
C1474 C1472 1.391 . S
C1474 C1475 1.400 . S
C1475 C1474 1.400 . S
C1475 C1476 1.398 . S
C1475 C1481 1.491 . S
C1476 H1467 0.950 . S
C1476 C1475 1.398 . S
C1476 C1477 1.391 . S
C1477 H1465 0.950 . S
C1477 C1473 1.393 . S
C1477 C1476 1.391 . S
C1478 H1468 0.950 . S
C1478 C1479 1.386 . S
C1478 C1480 1.391 . S
C1479 C1478 1.386 . S
C1479 C1483 1.393 . S
C1480 H1469 0.950 . S
C1480 C1478 1.391 . S
C1480 C1481 1.400 . S
C1481 C1475 1.491 . S
C1481 C1480 1.400 . S
C1481 C1482 1.398 . S
C1482 H1470 0.950 . S
C1482 C1481 1.398 . S
C1482 C1483 1.391 . S
C1483 H1471 0.950 . S
C1483 C1479 1.393 . S
C1483 C1482 1.391 . S
H1484 C1492 0.950 . S
H1485 C1497 0.950 . S
H1486 C1494 0.950 . S
H1487 C1496 0.950 . S
H1488 C1498 0.950 . S
H1489 C1500 0.950 . S
H1490 C1502 0.950 . S
H1491 C1503 0.950 . S
C1492 H1484 0.950 . S
C1492 C1493 1.386 . S
C1492 C1494 1.391 . S
C1493 C1492 1.386 . S
C1493 C1497 1.393 . S
C1494 H1486 0.950 . S
C1494 C1492 1.391 . S
C1494 C1495 1.400 . S
C1495 C1494 1.400 . S
C1495 C1496 1.398 . S
C1495 C1501 1.491 . S
C1496 H1487 0.950 . S
C1496 C1495 1.398 . S
C1496 C1497 1.391 . S
C1497 H1485 0.950 . S
C1497 C1493 1.393 . S
C1497 C1496 1.391 . S
C1498 H1488 0.950 . S
C1498 C1499 1.386 . S
C1498 C1500 1.391 . S
C1499 C1498 1.386 . S
C1499 C1503 1.393 . S
C1500 H1489 0.950 . S
C1500 C1498 1.391 . S
C1500 C1501 1.400 . S
C1501 C1495 1.491 . S
C1501 C1500 1.400 . S
C1501 C1502 1.398 . S
C1502 H1490 0.950 . S
C1502 C1501 1.398 . S
C1502 C1503 1.391 . S
C1503 H1491 0.950 . S
C1503 C1499 1.393 . S
C1503 C1502 1.391 . S
H1504 C1512 0.950 . S
H1505 C1517 0.950 . S
H1506 C1514 0.950 . S
H1507 C1516 0.950 . S
H1508 C1518 0.950 1_545 S
H1509 C1520 0.950 . S
H1510 C1522 0.950 . S
H1511 C1523 0.973 . S
C1512 H1504 0.950 . S
C1512 C1513 1.386 . S
C1512 C1514 1.391 . S
C1513 C1512 1.386 . S
C1513 C1517 1.393 . S
C1514 H1506 0.950 . S
C1514 C1512 1.391 . S
C1514 C1515 1.400 . S
C1515 C1514 1.400 . S
C1515 C1516 1.398 . S
C1515 C1521 1.491 . S
C1516 H1507 0.950 . S
C1516 C1515 1.398 . S
C1516 C1517 1.391 . S
C1517 H1505 0.950 . S
C1517 C1513 1.393 . S
C1517 C1516 1.391 . S
C1518 H1508 0.950 1_565 S
C1518 C1519 1.386 1_565 S
C1518 C1520 1.391 . S
C1519 C1518 1.386 1_545 S
C1519 C1523 1.407 . S
C1520 H1509 0.950 . S
C1520 C1518 1.391 . S
C1520 C1521 1.400 . S
C1521 C1515 1.491 . S
C1521 C1520 1.400 . S
C1521 C1522 1.398 . S
C1522 H1510 0.950 . S
C1522 C1521 1.398 . S
C1522 C1523 1.355 1_565 S
C1523 H1511 0.973 . S
C1523 C1519 1.407 . S
C1523 C1522 1.355 1_545 S
H1524 C1532 0.950 . S
H1525 C1537 0.950 . S
H1526 C1534 0.950 . S
H1527 C1536 0.950 . S
H1528 C1538 0.950 . S
H1529 C1540 0.950 . S
H1530 C1542 0.950 . S
H1531 C1543 0.950 . S
C1532 H1524 0.950 . S
C1532 C1533 1.386 . S
C1532 C1534 1.391 . S
C1533 C1532 1.386 . S
C1533 C1537 1.393 . S
C1534 H1526 0.950 . S
C1534 C1532 1.391 . S
C1534 C1535 1.400 . S
C1535 C1534 1.400 . S
C1535 C1536 1.398 . S
C1535 C1541 1.491 . S
C1536 H1527 0.950 . S
C1536 C1535 1.398 . S
C1536 C1537 1.391 . S
C1537 H1525 0.950 . S
C1537 C1533 1.393 . S
C1537 C1536 1.391 . S
C1538 H1528 0.950 . S
C1538 C1539 1.386 . S
C1538 C1540 1.391 . S
C1539 C1538 1.386 . S
C1539 C1543 1.393 . S
C1540 H1529 0.950 . S
C1540 C1538 1.391 . S
C1540 C1541 1.400 . S
C1541 C1535 1.491 . S
C1541 C1540 1.400 . S
C1541 C1542 1.398 . S
C1542 H1530 0.950 . S
C1542 C1541 1.398 . S
C1542 C1543 1.391 . S
C1543 H1531 0.950 . S
C1543 C1539 1.393 . S
C1543 C1542 1.391 . S
H1544 C1552 0.950 . S
H1545 C1557 0.950 . S
H1546 C1554 0.950 . S
H1547 C1556 0.950 . S
H1548 C1558 0.950 . S
H1549 C1560 0.950 . S
H1550 C1562 0.950 . S
H1551 C1563 0.950 . S
C1552 H1544 0.950 . S
C1552 C1553 1.386 . S
C1552 C1554 1.391 . S
C1553 C1552 1.386 . S
C1553 C1557 1.393 . S
C1554 H1546 0.950 . S
C1554 C1552 1.391 . S
C1554 C1555 1.400 . S
C1555 C1554 1.400 . S
C1555 C1556 1.398 . S
C1555 C1561 1.491 . S
C1556 H1547 0.950 . S
C1556 C1555 1.398 . S
C1556 C1557 1.391 . S
C1557 H1545 0.950 . S
C1557 C1553 1.393 . S
C1557 C1556 1.391 . S
C1558 H1548 0.950 . S
C1558 C1559 1.386 . S
C1558 C1560 1.391 . S
C1559 C1558 1.386 . S
C1559 C1563 1.393 . S
C1560 H1549 0.950 . S
C1560 C1558 1.391 . S
C1560 C1561 1.400 . S
C1561 C1555 1.491 . S
C1561 C1560 1.400 . S
C1561 C1562 1.398 . S
C1562 H1550 0.950 . S
C1562 C1561 1.398 . S
C1562 C1563 1.391 . S
C1563 H1551 0.950 . S
C1563 C1559 1.393 . S
C1563 C1562 1.391 . S
H1564 C1572 0.950 . S
H1565 C1577 0.950 . S
H1566 C1574 0.950 . S
H1567 C1576 0.950 . S
H1568 C1578 0.950 . S
H1569 C1580 0.950 . S
H1570 C1582 0.950 . S
H1571 C1583 0.950 . S
C1572 H1564 0.950 . S
C1572 C1573 1.386 . S
C1572 C1574 1.391 . S
C1573 C1572 1.386 . S
C1573 C1577 1.393 . S
C1574 H1566 0.950 . S
C1574 C1572 1.391 . S
C1574 C1575 1.400 . S
C1575 C1574 1.400 . S
C1575 C1576 1.398 . S
C1575 C1581 1.491 . S
C1576 H1567 0.950 . S
C1576 C1575 1.398 . S
C1576 C1577 1.391 . S
C1577 H1565 0.950 . S
C1577 C1573 1.393 . S
C1577 C1576 1.391 . S
C1578 H1568 0.950 . S
C1578 C1579 1.386 1_455 S
C1578 C1580 1.391 . S
C1579 C1578 1.386 1_655 S
C1579 C1583 1.393 . S
C1580 H1569 0.950 . S
C1580 C1578 1.391 . S
C1580 C1581 1.400 . S
C1581 C1575 1.491 . S
C1581 C1580 1.400 . S
C1581 C1582 1.398 . S
C1582 H1570 0.950 . S
C1582 C1581 1.398 . S
C1582 C1583 1.391 1_455 S
C1583 H1571 0.950 . S
C1583 C1579 1.393 . S
C1583 C1582 1.391 1_655 S
H1584 C1592 0.950 . S
H1585 C1597 0.950 . S
H1586 C1594 0.969 . S
H1587 C1596 0.950 . S
H1588 C1598 0.950 . S
H1589 C1600 0.950 1_556 S
H1590 C1602 0.950 . S
H1591 C1603 0.950 . S
C1592 H1584 0.950 . S
C1592 C1593 1.386 . S
C1592 C1594 1.378 1_556 S
C1593 C1592 1.386 . S
C1593 C1597 1.393 . S
C1594 H1586 0.969 . S
C1594 C1592 1.378 1_554 S
C1594 C1595 1.395 1_554 S
C1595 C1594 1.395 1_556 S
C1595 C1596 1.398 . S
C1595 C1601 1.491 1_556 S
C1596 H1587 0.950 . S
C1596 C1595 1.398 . S
C1596 C1597 1.391 . S
C1597 H1585 0.950 . S
C1597 C1593 1.393 . S
C1597 C1596 1.391 . S
C1598 H1588 0.950 . S
C1598 C1599 1.386 . S
C1598 C1600 1.391 . S
C1599 C1598 1.386 . S
C1599 C1603 1.393 . S
C1600 H1589 0.950 1_554 S
C1600 C1598 1.391 . S
C1600 C1601 1.400 . S
C1601 C1595 1.491 1_554 S
C1601 C1600 1.400 . S
C1601 C1602 1.398 . S
C1602 H1590 0.950 . S
C1602 C1601 1.398 . S
C1602 C1603 1.391 . S
C1603 H1591 0.950 . S
C1603 C1599 1.393 . S
C1603 C1602 1.391 . S
H1604 C1612 0.950 . S
H1605 C1617 0.950 . S
H1606 C1614 0.950 . S
H1607 C1616 0.950 . S
H1608 C1618 0.950 . S
H1609 C1620 0.950 . S
H1610 C1622 0.950 . S
H1611 C1623 0.950 . S
C1612 H1604 0.950 . S
C1612 C1613 1.386 . S
C1612 C1614 1.391 . S
C1613 C1612 1.386 . S
C1613 C1617 1.393 . S
C1614 H1606 0.950 . S
C1614 C1612 1.391 . S
C1614 C1615 1.400 . S
C1615 C1614 1.400 . S
C1615 C1616 1.398 . S
C1615 C1621 1.491 . S
C1616 H1607 0.950 . S
C1616 C1615 1.398 . S
C1616 C1617 1.391 . S
C1617 H1605 0.950 . S
C1617 C1613 1.393 . S
C1617 C1616 1.391 . S
C1618 H1608 0.950 . S
C1618 C1619 1.386 . S
C1618 C1620 1.391 . S
C1619 C1618 1.386 . S
C1619 C1623 1.393 . S
C1620 H1609 0.950 . S
C1620 C1618 1.391 . S
C1620 C1621 1.400 . S
C1621 C1615 1.491 . S
C1621 C1620 1.400 . S
C1621 C1622 1.398 . S
C1622 H1610 0.950 . S
C1622 C1621 1.398 . S
C1622 C1623 1.391 . S
C1623 H1611 0.950 . S
C1623 C1619 1.393 . S
C1623 C1622 1.391 . S
H1624 C1632 0.950 . S
H1625 C1637 0.950 . S
H1626 C1634 0.950 . S
H1627 C1636 0.950 . S
H1628 C1638 0.950 . S
H1629 C1640 0.950 . S
H1630 C1642 0.950 . S
H1631 C1643 0.950 . S
C1632 H1624 0.950 . S
C1632 C1633 1.386 . S
C1632 C1634 1.391 . S
C1633 C1632 1.386 . S
C1633 C1637 1.393 . S
C1634 H1626 0.950 . S
C1634 C1632 1.391 . S
C1634 C1635 1.400 . S
C1635 C1634 1.400 . S
C1635 C1636 1.398 . S
C1635 C1641 1.491 . S
C1636 H1627 0.950 . S
C1636 C1635 1.398 . S
C1636 C1637 1.391 . S
C1637 H1625 0.950 . S
C1637 C1633 1.393 . S
C1637 C1636 1.391 . S
C1638 H1628 0.950 . S
C1638 C1639 1.386 . S
C1638 C1640 1.391 . S
C1639 C1638 1.386 . S
C1639 C1643 1.393 . S
C1640 H1629 0.950 . S
C1640 C1638 1.391 . S
C1640 C1641 1.400 . S
C1641 C1635 1.491 . S
C1641 C1640 1.400 . S
C1641 C1642 1.398 . S
C1642 H1630 0.950 . S
C1642 C1641 1.398 . S
C1642 C1643 1.391 . S
C1643 H1631 0.950 . S
C1643 C1639 1.393 . S
C1643 C1642 1.391 . S
H1644 C1652 0.950 . S
H1645 C1657 0.950 . S
H1646 C1654 0.950 . S
H1647 C1656 0.950 . S
H1648 C1658 0.942 1_655 S
H1649 C1660 0.950 . S
H1650 C1662 0.950 . S
H1651 C1663 0.950 . S
C1652 H1644 0.950 . S
C1652 C1653 1.386 . S
C1652 C1654 1.391 . S
C1653 C1652 1.386 . S
C1653 C1657 1.393 . S
C1654 H1646 0.950 . S
C1654 C1652 1.391 . S
C1654 C1655 1.400 . S
C1655 C1654 1.400 . S
C1655 C1656 1.398 . S
C1655 C1661 1.491 . S
C1656 H1647 0.950 . S
C1656 C1655 1.398 . S
C1656 C1657 1.391 . S
C1657 H1645 0.950 . S
C1657 C1653 1.393 . S
C1657 C1656 1.391 . S
C1658 H1648 0.942 1_455 S
C1658 C1659 1.386 1_455 S
C1658 C1660 1.391 . S
C1659 C1658 1.386 1_655 S
C1659 C1663 1.393 . S
C1660 H1649 0.950 . S
C1660 C1658 1.391 . S
C1660 C1661 1.400 . S
C1661 C1655 1.491 . S
C1661 C1660 1.400 . S
C1661 C1662 1.398 . S
C1662 H1650 0.950 . S
C1662 C1661 1.398 . S
C1662 C1663 1.391 1_455 S
C1663 H1651 0.950 . S
C1663 C1659 1.393 . S
C1663 C1662 1.391 1_655 S
H1664 C1672 0.950 . S
H1665 C1677 0.950 . S
H1666 C1674 0.950 . S
H1667 C1676 0.950 . S
H1668 C1678 0.950 . S
H1669 C1680 0.950 . S
H1670 C1682 0.950 . S
H1671 C1683 0.950 . S
C1672 H1664 0.950 . S
C1672 C1673 1.386 . S
C1672 C1674 1.391 . S
C1673 C1672 1.386 . S
C1673 C1677 1.393 . S
C1674 H1666 0.950 . S
C1674 C1672 1.391 . S
C1674 C1675 1.400 . S
C1675 C1674 1.400 . S
C1675 C1676 1.398 . S
C1675 C1681 1.491 . S
C1676 H1667 0.950 . S
C1676 C1675 1.398 . S
C1676 C1677 1.391 . S
C1677 H1665 0.950 . S
C1677 C1673 1.393 . S
C1677 C1676 1.391 . S
C1678 H1668 0.950 . S
C1678 C1679 1.392 . S
C1678 C1680 1.385 1_455 S
C1679 C1678 1.392 . S
C1679 C1683 1.393 . S
C1680 H1669 0.950 . S
C1680 C1678 1.385 1_655 S
C1680 C1681 1.400 . S
C1681 C1675 1.491 . S
C1681 C1680 1.400 . S
C1681 C1682 1.398 . S
C1682 H1670 0.950 . S
C1682 C1681 1.398 . S
C1682 C1683 1.391 1_655 S
C1683 H1671 0.950 . S
C1683 C1679 1.393 . S
C1683 C1682 1.391 1_455 S
H1684 C1692 0.950 . S
H1685 C1697 0.950 . S
H1686 C1694 0.950 . S
H1687 C1696 0.950 . S
H1688 C1698 0.950 . S
H1689 C1700 0.950 . S
H1690 C1702 0.950 . S
H1691 C1703 0.950 . S
C1692 H1684 0.950 . S
C1692 C1693 1.386 . S
C1692 C1694 1.391 . S
C1693 C1692 1.386 . S
C1693 C1697 1.393 . S
C1694 H1686 0.950 . S
C1694 C1692 1.391 . S
C1694 C1695 1.400 . S
C1695 C1694 1.400 . S
C1695 C1696 1.398 . S
C1695 C1701 1.491 . S
C1696 H1687 0.950 . S
C1696 C1695 1.398 . S
C1696 C1697 1.391 . S
C1697 H1685 0.950 . S
C1697 C1693 1.393 . S
C1697 C1696 1.391 . S
C1698 H1688 0.950 . S
C1698 C1699 1.386 . S
C1698 C1700 1.391 . S
C1699 C1698 1.386 . S
C1699 C1703 1.393 . S
C1700 H1689 0.950 . S
C1700 C1698 1.391 . S
C1700 C1701 1.400 . S
C1701 C1695 1.491 . S
C1701 C1700 1.400 . S
C1701 C1702 1.398 . S
C1702 H1690 0.950 . S
C1702 C1701 1.398 . S
C1702 C1703 1.391 . S
C1703 H1691 0.950 . S
C1703 C1699 1.393 . S
C1703 C1702 1.391 . S
H1704 C1712 0.950 . S
H1705 C1717 0.950 . S
H1706 C1714 0.950 . S
H1707 C1716 0.950 . S
H1708 C1718 0.950 . S
H1709 C1720 0.950 . S
H1710 C1722 0.950 . S
H1711 C1723 0.950 . S
C1712 H1704 0.950 . S
C1712 C1713 1.386 . S
C1712 C1714 1.391 . S
C1713 C1712 1.386 . S
C1713 C1717 1.393 . S
C1714 H1706 0.950 . S
C1714 C1712 1.391 . S
C1714 C1715 1.400 . S
C1715 C1714 1.400 . S
C1715 C1716 1.398 . S
C1715 C1721 1.491 . S
C1716 H1707 0.950 . S
C1716 C1715 1.398 . S
C1716 C1717 1.391 . S
C1717 H1705 0.950 . S
C1717 C1713 1.393 . S
C1717 C1716 1.391 . S
C1718 H1708 0.950 . S
C1718 C1719 1.386 . S
C1718 C1720 1.391 . S
C1719 C1718 1.386 . S
C1719 C1723 1.393 . S
C1720 H1709 0.950 . S
C1720 C1718 1.391 . S
C1720 C1721 1.400 . S
C1721 C1715 1.491 . S
C1721 C1720 1.400 . S
C1721 C1722 1.398 . S
C1722 H1710 0.950 . S
C1722 C1721 1.398 . S
C1722 C1723 1.391 . S
C1723 H1711 0.950 . S
C1723 C1719 1.393 . S
C1723 C1722 1.391 . S
H1724 C1732 0.950 . S
H1725 C1737 0.950 . S
H1726 C1734 0.950 . S
H1727 C1736 0.950 . S
H1728 C1738 0.950 . S
H1729 C1740 0.950 . S
H1730 C1742 0.950 . S
H1731 C1743 0.950 . S
C1732 H1724 0.950 . S
C1732 C1733 1.386 . S
C1732 C1734 1.391 . S
C1733 C1732 1.386 . S
C1733 C1737 1.393 . S
C1734 H1726 0.950 . S
C1734 C1732 1.391 . S
C1734 C1735 1.400 . S
C1735 C1734 1.400 . S
C1735 C1736 1.398 . S
C1735 C1741 1.491 . S
C1736 H1727 0.950 . S
C1736 C1735 1.398 . S
C1736 C1737 1.391 . S
C1737 H1725 0.950 . S
C1737 C1733 1.393 . S
C1737 C1736 1.391 . S
C1738 H1728 0.950 . S
C1738 C1739 1.386 . S
C1738 C1740 1.391 . S
C1739 C1738 1.386 . S
C1739 C1743 1.393 . S
C1740 H1729 0.950 . S
C1740 C1738 1.391 . S
C1740 C1741 1.400 . S
C1741 C1735 1.491 . S
C1741 C1740 1.400 . S
C1741 C1742 1.398 . S
C1742 H1730 0.950 . S
C1742 C1741 1.398 . S
C1742 C1743 1.391 . S
C1743 H1731 0.950 . S
C1743 C1739 1.393 . S
C1743 C1742 1.391 . S
H1744 C1752 0.950 . S
H1745 C1757 0.950 . S
H1746 C1754 0.950 . S
H1747 C1756 0.950 . S
H1748 C1758 0.950 . S
H1749 C1760 0.950 . S
H1750 C1762 0.950 . S
H1751 C1763 0.950 . S
C1752 H1744 0.950 . S
C1752 C1753 1.386 . S
C1752 C1754 1.391 . S
C1753 C1752 1.386 . S
C1753 C1757 1.393 . S
C1754 H1746 0.950 . S
C1754 C1752 1.391 . S
C1754 C1755 1.400 . S
C1755 C1754 1.400 . S
C1755 C1756 1.398 . S
C1755 C1761 1.491 . S
C1756 H1747 0.950 . S
C1756 C1755 1.398 . S
C1756 C1757 1.391 . S
C1757 H1745 0.950 . S
C1757 C1753 1.393 . S
C1757 C1756 1.391 . S
C1758 H1748 0.950 . S
C1758 C1759 1.386 . S
C1758 C1760 1.391 . S
C1759 C1758 1.386 . S
C1759 C1763 1.393 . S
C1760 H1749 0.950 . S
C1760 C1758 1.391 . S
C1760 C1761 1.400 . S
C1761 C1755 1.491 . S
C1761 C1760 1.400 . S
C1761 C1762 1.398 . S
C1762 H1750 0.950 . S
C1762 C1761 1.398 . S
C1762 C1763 1.391 . S
C1763 H1751 0.950 . S
C1763 C1759 1.393 . S
C1763 C1762 1.391 . S
H1764 C1772 0.950 . S
H1765 C1777 0.950 . S
H1766 C1774 0.950 . S
H1767 C1776 0.950 . S
H1768 C1778 0.950 . S
H1769 C1780 0.950 . S
H1770 C1782 0.950 . S
H1771 C1783 0.950 . S
C1772 H1764 0.950 . S
C1772 C1773 1.386 . S
C1772 C1774 1.391 . S
C1773 C1772 1.386 . S
C1773 C1777 1.393 . S
C1774 H1766 0.950 . S
C1774 C1772 1.391 . S
C1774 C1775 1.400 . S
C1775 C1774 1.400 . S
C1775 C1776 1.398 . S
C1775 C1781 1.491 . S
C1776 H1767 0.950 . S
C1776 C1775 1.398 . S
C1776 C1777 1.391 . S
C1777 H1765 0.950 . S
C1777 C1773 1.393 . S
C1777 C1776 1.391 . S
C1778 H1768 0.950 . S
C1778 C1779 1.386 . S
C1778 C1780 1.391 . S
C1779 C1778 1.386 . S
C1779 C1783 1.393 . S
C1780 H1769 0.950 . S
C1780 C1778 1.391 . S
C1780 C1781 1.400 . S
C1781 C1775 1.491 . S
C1781 C1780 1.400 . S
C1781 C1782 1.398 . S
C1782 H1770 0.950 . S
C1782 C1781 1.398 . S
C1782 C1783 1.391 . S
C1783 H1771 0.950 . S
C1783 C1779 1.393 . S
C1783 C1782 1.391 . S
H1784 C1792 0.950 . S
H1785 C1797 0.950 . S
H1786 C1794 0.950 . S
H1787 C1796 0.950 . S
H1788 C1798 0.950 . S
H1789 C1800 0.950 . S
H1790 C1802 0.950 . S
H1791 C1803 0.950 . S
C1792 H1784 0.950 . S
C1792 C1793 1.386 . S
C1792 C1794 1.391 . S
C1793 C1792 1.386 . S
C1793 C1797 1.393 . S
C1794 H1786 0.950 . S
C1794 C1792 1.391 . S
C1794 C1795 1.400 . S
C1795 C1794 1.400 . S
C1795 C1796 1.398 . S
C1795 C1801 1.491 . S
C1796 H1787 0.950 . S
C1796 C1795 1.398 . S
C1796 C1797 1.391 . S
C1797 H1785 0.950 . S
C1797 C1793 1.393 . S
C1797 C1796 1.391 . S
C1798 H1788 0.950 . S
C1798 C1799 1.386 . S
C1798 C1800 1.391 . S
C1799 C1798 1.386 . S
C1799 C1803 1.393 . S
C1800 H1789 0.950 . S
C1800 C1798 1.391 . S
C1800 C1801 1.400 . S
C1801 C1795 1.491 . S
C1801 C1800 1.400 . S
C1801 C1802 1.398 . S
C1802 H1790 0.950 . S
C1802 C1801 1.398 . S
C1802 C1803 1.391 . S
C1803 H1791 0.950 . S
C1803 C1799 1.393 . S
C1803 C1802 1.391 . S
H1804 C1812 0.950 . S
H1805 C1817 0.950 . S
H1806 C1814 0.950 . S
H1807 C1816 0.950 . S
H1808 C1818 0.950 . S
H1809 C1820 0.950 . S
H1810 C1822 0.950 . S
H1811 C1823 0.950 . S
C1812 H1804 0.950 . S
C1812 C1813 1.386 . S
C1812 C1814 1.391 . S
C1813 C1812 1.386 . S
C1813 C1817 1.393 . S
C1814 H1806 0.950 . S
C1814 C1812 1.391 . S
C1814 C1815 1.400 . S
C1815 C1814 1.400 . S
C1815 C1816 1.398 . S
C1815 C1821 1.491 . S
C1816 H1807 0.950 . S
C1816 C1815 1.398 . S
C1816 C1817 1.391 . S
C1817 H1805 0.950 . S
C1817 C1813 1.393 . S
C1817 C1816 1.391 . S
C1818 H1808 0.950 . S
C1818 C1819 1.386 . S
C1818 C1820 1.391 . S
C1819 C1818 1.386 . S
C1819 C1823 1.393 . S
C1820 H1809 0.950 . S
C1820 C1818 1.391 . S
C1820 C1821 1.400 . S
C1821 C1815 1.491 . S
C1821 C1820 1.400 . S
C1821 C1822 1.398 . S
C1822 H1810 0.950 . S
C1822 C1821 1.398 . S
C1822 C1823 1.391 . S
C1823 H1811 0.950 . S
C1823 C1819 1.393 . S
C1823 C1822 1.391 . S
H1824 C1832 0.950 . S
H1825 C1837 0.950 . S
H1826 C1834 0.950 . S
H1827 C1836 0.950 . S
H1828 C1838 0.950 . S
H1829 C1840 0.950 . S
H1830 C1842 0.950 . S
H1831 C1843 0.971 . S
C1832 H1824 0.950 . S
C1832 C1833 1.386 . S
C1832 C1834 1.391 . S
C1833 C1832 1.386 . S
C1833 C1837 1.393 . S
C1834 H1826 0.950 . S
C1834 C1832 1.391 . S
C1834 C1835 1.400 . S
C1835 C1834 1.400 . S
C1835 C1836 1.398 . S
C1835 C1841 1.491 . S
C1836 H1827 0.950 . S
C1836 C1835 1.398 . S
C1836 C1837 1.391 . S
C1837 H1825 0.950 . S
C1837 C1833 1.393 . S
C1837 C1836 1.391 . S
C1838 H1828 0.950 . S
C1838 C1839 1.386 . S
C1838 C1840 1.391 . S
C1839 C1838 1.386 . S
C1839 C1843 1.393 . S
C1840 H1829 0.950 . S
C1840 C1838 1.391 . S
C1840 C1841 1.400 . S
C1841 C1835 1.491 . S
C1841 C1840 1.400 . S
C1841 C1842 1.398 . S
C1842 H1830 0.950 . S
C1842 C1841 1.398 . S
C1842 C1843 1.391 . S
C1843 H1831 0.971 . S
C1843 C1839 1.393 . S
C1843 C1842 1.391 . S
H1844 C1852 0.950 . S
H1845 C1857 0.950 . S
H1846 C1854 0.950 . S
H1847 C1856 0.950 . S
H1848 C1858 0.950 . S
H1849 C1860 0.950 . S
H1850 C1862 0.950 . S
H1851 C1863 0.950 . S
C1852 H1844 0.950 . S
C1852 C1853 1.386 . S
C1852 C1854 1.391 . S
C1853 C1852 1.386 . S
C1853 C1857 1.393 . S
C1854 H1846 0.950 . S
C1854 C1852 1.391 . S
C1854 C1855 1.400 . S
C1855 C1854 1.400 . S
C1855 C1856 1.398 . S
C1855 C1861 1.491 . S
C1856 H1847 0.950 . S
C1856 C1855 1.398 . S
C1856 C1857 1.391 . S
C1857 H1845 0.950 . S
C1857 C1853 1.393 . S
C1857 C1856 1.391 . S
C1858 H1848 0.950 . S
C1858 C1859 1.386 . S
C1858 C1860 1.391 . S
C1859 C1858 1.386 . S
C1859 C1863 1.393 . S
C1860 H1849 0.950 . S
C1860 C1858 1.391 . S
C1860 C1861 1.400 . S
C1861 C1855 1.491 . S
C1861 C1860 1.400 . S
C1861 C1862 1.398 . S
C1862 H1850 0.950 . S
C1862 C1861 1.398 . S
C1862 C1863 1.391 . S
C1863 H1851 0.950 . S
C1863 C1859 1.393 . S
C1863 C1862 1.391 . S
H1864 C1872 0.950 . S
H1865 C1877 0.950 . S
H1866 C1874 0.950 . S
H1867 C1876 0.950 . S
H1868 C1878 0.950 . S
H1869 C1880 0.950 . S
H1870 C1882 0.950 . S
H1871 C1883 0.950 . S
C1872 H1864 0.950 . S
C1872 C1873 1.386 . S
C1872 C1874 1.391 . S
C1873 C1872 1.386 . S
C1873 C1877 1.393 . S
C1874 H1866 0.950 . S
C1874 C1872 1.391 . S
C1874 C1875 1.400 . S
C1875 C1874 1.400 . S
C1875 C1876 1.398 . S
C1875 C1881 1.491 . S
C1876 H1867 0.950 . S
C1876 C1875 1.398 . S
C1876 C1877 1.391 . S
C1877 H1865 0.950 . S
C1877 C1873 1.393 . S
C1877 C1876 1.391 . S
C1878 H1868 0.950 . S
C1878 C1879 1.386 . S
C1878 C1880 1.391 . S
C1879 C1878 1.386 . S
C1879 C1883 1.393 . S
C1880 H1869 0.950 . S
C1880 C1878 1.391 . S
C1880 C1881 1.400 . S
C1881 C1875 1.491 . S
C1881 C1880 1.400 . S
C1881 C1882 1.398 . S
C1882 H1870 0.950 . S
C1882 C1881 1.398 . S
C1882 C1883 1.391 . S
C1883 H1871 0.950 . S
C1883 C1879 1.393 . S
C1883 C1882 1.391 . S
H1884 C1892 0.950 . S
H1885 C1897 0.950 . S
H1886 C1894 0.950 . S
H1887 C1896 0.950 . S
H1888 C1898 0.950 . S
H1889 C1900 0.950 . S
H1890 C1902 0.950 . S
H1891 C1903 0.950 . S
C1892 H1884 0.950 . S
C1892 C1893 1.386 . S
C1892 C1894 1.391 . S
C1893 C1892 1.386 . S
C1893 C1897 1.393 . S
C1894 H1886 0.950 . S
C1894 C1892 1.391 . S
C1894 C1895 1.400 . S
C1895 C1894 1.400 . S
C1895 C1896 1.398 . S
C1895 C1901 1.491 . S
C1896 H1887 0.950 . S
C1896 C1895 1.398 . S
C1896 C1897 1.391 . S
C1897 H1885 0.950 . S
C1897 C1893 1.393 . S
C1897 C1896 1.391 . S
C1898 H1888 0.950 . S
C1898 C1899 1.386 . S
C1898 C1900 1.391 . S
C1899 C1898 1.386 . S
C1899 C1903 1.393 . S
C1900 H1889 0.950 . S
C1900 C1898 1.391 . S
C1900 C1901 1.400 . S
C1901 C1895 1.491 . S
C1901 C1900 1.400 . S
C1901 C1902 1.398 . S
C1902 H1890 0.950 . S
C1902 C1901 1.398 . S
C1902 C1903 1.391 . S
C1903 H1891 0.950 . S
C1903 C1899 1.393 . S
C1903 C1902 1.391 . S
H1904 C1912 0.950 . S
H1905 C1917 0.950 . S
H1906 C1914 0.950 . S
H1907 C1916 0.950 . S
H1908 C1918 0.974 . S
H1909 C1920 0.950 . S
H1910 C1922 0.950 . S
H1911 C1923 0.950 . S
C1912 H1904 0.950 . S
C1912 C1913 1.386 . S
C1912 C1914 1.391 . S
C1913 C1912 1.386 . S
C1913 C1917 1.393 . S
C1914 H1906 0.950 . S
C1914 C1912 1.391 . S
C1914 C1915 1.400 . S
C1915 C1914 1.400 . S
C1915 C1916 1.398 . S
C1915 C1921 1.491 . S
C1916 H1907 0.950 . S
C1916 C1915 1.398 . S
C1916 C1917 1.391 . S
C1917 H1905 0.950 . S
C1917 C1913 1.393 . S
C1917 C1916 1.391 . S
C1918 H1908 0.974 . S
C1918 C1919 1.386 . S
C1918 C1920 1.391 . S
C1919 C1918 1.386 . S
C1919 C1923 1.393 . S
C1920 H1909 0.950 . S
C1920 C1918 1.391 . S
C1920 C1921 1.400 . S
C1921 C1915 1.491 . S
C1921 C1920 1.400 . S
C1921 C1922 1.398 . S
C1922 H1910 0.950 . S
C1922 C1921 1.398 . S
C1922 C1923 1.391 . S
C1923 H1911 0.950 . S
C1923 C1919 1.393 . S
C1923 C1922 1.391 . S
H1924 C1932 0.950 . S
H1925 C1937 0.950 . S
H1926 C1934 0.950 . S
H1927 C1936 0.950 . S
H1928 C1938 0.950 . S
H1929 C1940 0.950 . S
H1930 C1942 0.950 . S
H1931 C1943 0.950 . S
C1932 H1924 0.950 . S
C1932 C1933 1.386 . S
C1932 C1934 1.391 . S
C1933 C1932 1.386 . S
C1933 C1937 1.393 . S
C1934 H1926 0.950 . S
C1934 C1932 1.391 . S
C1934 C1935 1.400 . S
C1935 C1934 1.400 . S
C1935 C1936 1.398 . S
C1935 C1941 1.491 . S
C1936 H1927 0.950 . S
C1936 C1935 1.398 . S
C1936 C1937 1.391 . S
C1937 H1925 0.950 . S
C1937 C1933 1.393 . S
C1937 C1936 1.391 . S
C1938 H1928 0.950 . S
C1938 C1939 1.386 . S
C1938 C1940 1.391 . S
C1939 C1938 1.386 . S
C1939 C1943 1.393 . S
C1940 H1929 0.950 . S
C1940 C1938 1.391 . S
C1940 C1941 1.400 . S
C1941 C1935 1.491 . S
C1941 C1940 1.400 . S
C1941 C1942 1.398 . S
C1942 H1930 0.950 . S
C1942 C1941 1.398 . S
C1942 C1943 1.391 . S
C1943 H1931 0.950 . S
C1943 C1939 1.393 . S
C1943 C1942 1.391 . S
H1944 C1952 0.950 . S
H1945 C1957 0.950 . S
H1946 C1954 0.950 . S
H1947 C1956 0.950 . S
H1948 C1958 0.950 . S
H1949 C1960 0.950 . S
H1950 C1962 0.950 . S
H1951 C1963 0.950 1_554 S
C1952 H1944 0.950 . S
C1952 C1953 1.386 . S
C1952 C1954 1.391 . S
C1953 C1952 1.386 . S
C1953 C1957 1.393 . S
C1954 H1946 0.950 . S
C1954 C1952 1.391 . S
C1954 C1955 1.400 . S
C1955 C1954 1.400 . S
C1955 C1956 1.398 . S
C1955 C1961 1.491 . S
C1956 H1947 0.950 . S
C1956 C1955 1.398 . S
C1956 C1957 1.391 . S
C1957 H1945 0.950 . S
C1957 C1953 1.393 . S
C1957 C1956 1.391 . S
C1958 H1948 0.950 . S
C1958 C1959 1.386 . S
C1958 C1960 1.391 . S
C1959 C1958 1.386 . S
C1959 C1963 1.393 . S
C1960 H1949 0.950 . S
C1960 C1958 1.391 . S
C1960 C1961 1.400 . S
C1961 C1955 1.491 . S
C1961 C1960 1.400 . S
C1961 C1962 1.398 . S
C1962 H1950 0.950 . S
C1962 C1961 1.398 . S
C1962 C1963 1.391 . S
C1963 H1951 0.950 1_556 S
C1963 C1959 1.393 . S
C1963 C1962 1.391 . S
H1964 C1972 0.950 . S
H1965 C1977 0.950 . S
H1966 C1974 0.950 . S
H1967 C1976 0.950 . S
H1968 C1978 0.950 . S
H1969 C1980 0.950 . S
H1970 C1982 0.950 . S
H1971 C1983 0.950 . S
C1972 H1964 0.950 . S
C1972 C1973 1.386 . S
C1972 C1974 1.391 . S
C1973 C1972 1.386 . S
C1973 C1977 1.393 . S
C1974 H1966 0.950 . S
C1974 C1972 1.391 . S
C1974 C1975 1.400 . S
C1975 C1974 1.400 . S
C1975 C1976 1.398 . S
C1975 C1981 1.491 . S
C1976 H1967 0.950 . S
C1976 C1975 1.398 . S
C1976 C1977 1.391 . S
C1977 H1965 0.950 . S
C1977 C1973 1.393 . S
C1977 C1976 1.391 . S
C1978 H1968 0.950 . S
C1978 C1979 1.386 . S
C1978 C1980 1.391 . S
C1979 C1978 1.386 . S
C1979 C1983 1.393 . S
C1980 H1969 0.950 . S
C1980 C1978 1.391 . S
C1980 C1981 1.400 . S
C1981 C1975 1.491 . S
C1981 C1980 1.400 . S
C1981 C1982 1.398 . S
C1982 H1970 0.950 . S
C1982 C1981 1.398 . S
C1982 C1983 1.391 . S
C1983 H1971 0.950 . S
C1983 C1979 1.393 . S
C1983 C1982 1.391 . S
H1984 C1992 0.950 . S
H1985 C1997 0.950 . S
H1986 C1994 0.950 . S
H1987 C1996 0.950 . S
H1988 C1998 0.950 . S
H1989 C2000 0.950 . S
H1990 C2002 0.950 . S
H1991 C2003 0.950 . S
C1992 H1984 0.950 . S
C1992 C1993 1.386 . S
C1992 C1994 1.391 . S
C1993 C1992 1.386 . S
C1993 C1997 1.393 . S
C1994 H1986 0.950 . S
C1994 C1992 1.391 . S
C1994 C1995 1.400 . S
C1995 C1994 1.400 . S
C1995 C1996 1.398 . S
C1995 C2001 1.491 . S
C1996 H1987 0.950 . S
C1996 C1995 1.398 . S
C1996 C1997 1.391 . S
C1997 H1985 0.950 . S
C1997 C1993 1.393 . S
C1997 C1996 1.391 . S
C1998 H1988 0.950 . S
C1998 C1999 1.386 . S
C1998 C2000 1.391 . S
C1999 C1998 1.386 . S
C1999 C2003 1.393 . S
C2000 H1989 0.950 . S
C2000 C1998 1.391 . S
C2000 C2001 1.400 . S
C2001 C1995 1.491 . S
C2001 C2000 1.400 . S
C2001 C2002 1.398 . S
C2002 H1990 0.950 . S
C2002 C2001 1.398 . S
C2002 C2003 1.391 . S
C2003 H1991 0.950 . S
C2003 C1999 1.393 . S
C2003 C2002 1.391 . S
H2004 C2012 0.950 . S
H2005 C2017 0.950 . S
H2006 C2014 0.950 . S
H2007 C2016 0.950 . S
H2008 C2018 0.950 . S
H2009 C2020 0.950 . S
H2010 C2022 0.950 . S
H2011 C2023 0.950 . S
C2012 H2004 0.950 . S
C2012 C2013 1.386 . S
C2012 C2014 1.391 . S
C2013 C2012 1.386 . S
C2013 C2017 1.393 . S
C2014 H2006 0.950 . S
C2014 C2012 1.391 . S
C2014 C2015 1.400 . S
C2015 C2014 1.400 . S
C2015 C2016 1.398 . S
C2015 C2021 1.491 . S
C2016 H2007 0.950 . S
C2016 C2015 1.398 . S
C2016 C2017 1.391 . S
C2017 H2005 0.950 . S
C2017 C2013 1.393 . S
C2017 C2016 1.391 . S
C2018 H2008 0.950 . S
C2018 C2019 1.386 . S
C2018 C2020 1.391 . S
C2019 C2018 1.386 . S
C2019 C2023 1.393 . S
C2020 H2009 0.950 . S
C2020 C2018 1.391 . S
C2020 C2021 1.400 . S
C2021 C2015 1.491 . S
C2021 C2020 1.400 . S
C2021 C2022 1.398 . S
C2022 H2010 0.950 . S
C2022 C2021 1.398 . S
C2022 C2023 1.391 . S
C2023 H2011 0.950 . S
C2023 C2019 1.393 . S
C2023 C2022 1.391 . S
H2024 C2032 0.950 . S
H2025 C2037 0.950 . S
H2026 C2034 0.950 . S
H2027 C2036 0.950 . S
H2028 C2038 0.950 . S
H2029 C2040 0.950 . S
H2030 C2042 0.950 . S
H2031 C2043 0.950 . S
C2032 H2024 0.950 . S
C2032 C2033 1.386 . S
C2032 C2034 1.391 . S
C2033 C2032 1.386 . S
C2033 C2037 1.393 . S
C2034 H2026 0.950 . S
C2034 C2032 1.391 . S
C2034 C2035 1.400 . S
C2035 C2034 1.400 . S
C2035 C2036 1.398 . S
C2035 C2041 1.491 . S
C2036 H2027 0.950 . S
C2036 C2035 1.398 . S
C2036 C2037 1.391 . S
C2037 H2025 0.950 . S
C2037 C2033 1.393 . S
C2037 C2036 1.391 . S
C2038 H2028 0.950 . S
C2038 C2039 1.386 . S
C2038 C2040 1.391 . S
C2039 C2038 1.386 . S
C2039 C2043 1.393 . S
C2040 H2029 0.950 . S
C2040 C2038 1.391 . S
C2040 C2041 1.400 . S
C2041 C2035 1.491 . S
C2041 C2040 1.400 . S
C2041 C2042 1.398 . S
C2042 H2030 0.950 . S
C2042 C2041 1.398 . S
C2042 C2043 1.391 . S
C2043 H2031 0.950 . S
C2043 C2039 1.393 . S
C2043 C2042 1.391 . S
H2044 C2052 0.950 . S
H2045 C2057 0.950 . S
H2046 C2054 0.950 . S
H2047 C2056 0.950 . S
H2048 C2058 0.950 . S
H2049 C2060 0.950 . S
H2050 C2062 0.950 . S
H2051 C2063 0.950 . S
C2052 H2044 0.950 . S
C2052 C2053 1.386 . S
C2052 C2054 1.391 . S
C2053 C2052 1.386 . S
C2053 C2057 1.393 . S
C2054 H2046 0.950 . S
C2054 C2052 1.391 . S
C2054 C2055 1.400 . S
C2055 C2054 1.400 . S
C2055 C2056 1.398 . S
C2055 C2061 1.491 . S
C2056 H2047 0.950 . S
C2056 C2055 1.398 . S
C2056 C2057 1.391 . S
C2057 H2045 0.950 . S
C2057 C2053 1.393 . S
C2057 C2056 1.391 . S
C2058 H2048 0.950 . S
C2058 C2059 1.386 . S
C2058 C2060 1.391 . S
C2059 C2058 1.386 . S
C2059 C2063 1.393 . S
C2060 H2049 0.950 . S
C2060 C2058 1.391 . S
C2060 C2061 1.400 . S
C2061 C2055 1.491 . S
C2061 C2060 1.400 . S
C2061 C2062 1.398 . S
C2062 H2050 0.950 . S
C2062 C2061 1.398 . S
C2062 C2063 1.391 . S
C2063 H2051 0.950 . S
C2063 C2059 1.393 . S
C2063 C2062 1.391 . S
H2064 C2072 0.950 . S
H2065 C2077 0.950 . S
H2066 C2074 0.950 . S
H2067 C2076 0.950 . S
H2068 C2078 0.950 . S
H2069 C2080 0.950 . S
H2070 C2082 0.950 . S
H2071 C2083 0.950 . S
C2072 H2064 0.950 . S
C2072 C2073 1.386 . S
C2072 C2074 1.391 . S
C2073 C2072 1.386 . S
C2073 C2077 1.393 . S
C2074 H2066 0.950 . S
C2074 C2072 1.391 . S
C2074 C2075 1.400 . S
C2075 C2074 1.400 . S
C2075 C2076 1.398 . S
C2075 C2081 1.491 . S
C2076 H2067 0.950 . S
C2076 C2075 1.398 . S
C2076 C2077 1.391 . S
C2077 H2065 0.950 . S
C2077 C2073 1.393 . S
C2077 C2076 1.391 . S
C2078 H2068 0.950 . S
C2078 C2079 1.386 . S
C2078 C2080 1.391 . S
C2079 C2078 1.386 . S
C2079 C2083 1.393 . S
C2080 H2069 0.950 . S
C2080 C2078 1.391 . S
C2080 C2081 1.400 . S
C2081 C2075 1.491 . S
C2081 C2080 1.400 . S
C2081 C2082 1.398 . S
C2082 H2070 0.950 . S
C2082 C2081 1.398 . S
C2082 C2083 1.391 . S
C2083 H2071 0.950 . S
C2083 C2079 1.393 . S
C2083 C2082 1.391 . S
H2084 C2092 0.950 . S
H2085 C2097 0.950 . S
H2086 C2094 0.950 . S
H2087 C2096 0.950 . S
H2088 C2098 0.950 . S
H2089 C2100 0.950 . S
H2090 C2102 0.950 . S
H2091 C2103 0.950 . S
C2092 H2084 0.950 . S
C2092 C2093 1.386 . S
C2092 C2094 1.391 . S
C2093 C2092 1.386 . S
C2093 C2097 1.393 . S
C2094 H2086 0.950 . S
C2094 C2092 1.391 . S
C2094 C2095 1.400 . S
C2095 C2094 1.400 . S
C2095 C2096 1.398 . S
C2095 C2101 1.491 . S
C2096 H2087 0.950 . S
C2096 C2095 1.398 . S
C2096 C2097 1.391 . S
C2097 H2085 0.950 . S
C2097 C2093 1.393 . S
C2097 C2096 1.391 . S
C2098 H2088 0.950 . S
C2098 C2099 1.386 . S
C2098 C2100 1.391 . S
C2099 C2098 1.386 . S
C2099 C2103 1.393 . S
C2100 H2089 0.950 . S
C2100 C2098 1.391 . S
C2100 C2101 1.400 . S
C2101 C2095 1.491 . S
C2101 C2100 1.400 . S
C2101 C2102 1.398 . S
C2102 H2090 0.950 . S
C2102 C2101 1.398 . S
C2102 C2103 1.391 . S
C2103 H2091 0.950 . S
C2103 C2099 1.393 . S
C2103 C2102 1.391 . S
H2104 C2112 0.950 . S
H2105 C2117 0.950 . S
H2106 C2114 0.950 . S
H2107 C2116 0.950 . S
H2108 C2118 0.950 . S
H2109 C2120 0.950 . S
H2110 C2122 0.950 . S
H2111 C2123 0.950 . S
C2112 H2104 0.950 . S
C2112 C2113 1.386 . S
C2112 C2114 1.391 . S
C2113 C2112 1.386 . S
C2113 C2117 1.393 . S
C2114 H2106 0.950 . S
C2114 C2112 1.391 . S
C2114 C2115 1.400 . S
C2115 C2114 1.400 . S
C2115 C2116 1.398 . S
C2115 C2121 1.491 . S
C2116 H2107 0.950 . S
C2116 C2115 1.398 . S
C2116 C2117 1.391 . S
C2117 H2105 0.950 . S
C2117 C2113 1.393 . S
C2117 C2116 1.391 . S
C2118 H2108 0.950 . S
C2118 C2119 1.386 . S
C2118 C2120 1.391 . S
C2119 C2118 1.386 . S
C2119 C2123 1.393 . S
C2120 H2109 0.950 . S
C2120 C2118 1.391 . S
C2120 C2121 1.400 . S
C2121 C2115 1.491 . S
C2121 C2120 1.400 . S
C2121 C2122 1.398 . S
C2122 H2110 0.950 . S
C2122 C2121 1.398 . S
C2122 C2123 1.391 . S
C2123 H2111 0.950 . S
C2123 C2119 1.393 . S
C2123 C2122 1.391 . S
H2124 C2132 0.950 . S
H2125 C2137 0.950 . S
H2126 C2134 0.950 . S
H2127 C2136 0.950 . S
H2128 C2138 0.950 . S
H2129 C2140 0.950 . S
H2130 C2142 0.950 . S
H2131 C2143 0.950 . S
C2132 H2124 0.950 . S
C2132 C2133 1.386 . S
C2132 C2134 1.391 . S
C2133 C2132 1.386 . S
C2133 C2137 1.393 . S
C2134 H2126 0.950 . S
C2134 C2132 1.391 . S
C2134 C2135 1.400 . S
C2135 C2134 1.400 . S
C2135 C2136 1.398 . S
C2135 C2141 1.491 . S
C2136 H2127 0.950 . S
C2136 C2135 1.398 . S
C2136 C2137 1.391 . S
C2137 H2125 0.950 . S
C2137 C2133 1.393 . S
C2137 C2136 1.391 . S
C2138 H2128 0.950 . S
C2138 C2139 1.386 . S
C2138 C2140 1.391 . S
C2139 C2138 1.386 . S
C2139 C2143 1.393 . S
C2140 H2129 0.950 . S
C2140 C2138 1.391 . S
C2140 C2141 1.400 . S
C2141 C2135 1.491 . S
C2141 C2140 1.400 . S
C2141 C2142 1.398 . S
C2142 H2130 0.950 . S
C2142 C2141 1.398 . S
C2142 C2143 1.391 . S
C2143 H2131 0.950 . S
C2143 C2139 1.393 . S
C2143 C2142 1.391 . S
H2144 C2152 0.950 . S
H2145 C2157 0.950 . S
H2146 C2154 0.950 . S
H2147 C2156 0.950 . S
H2148 C2158 0.950 . S
H2149 C2160 0.950 . S
H2150 C2162 0.950 . S
H2151 C2163 0.950 . S
C2152 H2144 0.950 . S
C2152 C2153 1.386 . S
C2152 C2154 1.391 . S
C2153 C2152 1.386 . S
C2153 C2157 1.393 . S
C2154 H2146 0.950 . S
C2154 C2152 1.391 . S
C2154 C2155 1.400 . S
C2155 C2154 1.400 . S
C2155 C2156 1.398 . S
C2155 C2161 1.491 . S
C2156 H2147 0.950 . S
C2156 C2155 1.398 . S
C2156 C2157 1.391 . S
C2157 H2145 0.950 . S
C2157 C2153 1.393 . S
C2157 C2156 1.391 . S
C2158 H2148 0.950 . S
C2158 C2159 1.386 . S
C2158 C2160 1.391 . S
C2159 C2158 1.386 . S
C2159 C2163 1.393 . S
C2160 H2149 0.950 . S
C2160 C2158 1.391 . S
C2160 C2161 1.400 . S
C2161 C2155 1.491 . S
C2161 C2160 1.400 . S
C2161 C2162 1.398 . S
C2162 H2150 0.950 . S
C2162 C2161 1.398 . S
C2162 C2163 1.391 . S
C2163 H2151 0.950 . S
C2163 C2159 1.393 . S
C2163 C2162 1.391 . S
H2164 C2172 0.950 . S
H2165 C2177 0.950 . S
H2166 C2174 0.950 . S
H2167 C2176 0.950 . S
H2168 C2178 0.950 . S
H2169 C2180 0.950 . S
H2170 C2182 0.950 . S
H2171 C2183 0.950 . S
C2172 H2164 0.950 . S
C2172 C2173 1.386 . S
C2172 C2174 1.391 . S
C2173 C2172 1.386 . S
C2173 C2177 1.393 . S
C2174 H2166 0.950 . S
C2174 C2172 1.391 . S
C2174 C2175 1.400 . S
C2175 C2174 1.400 . S
C2175 C2176 1.398 . S
C2175 C2181 1.491 . S
C2176 H2167 0.950 . S
C2176 C2175 1.398 . S
C2176 C2177 1.391 . S
C2177 H2165 0.950 . S
C2177 C2173 1.393 . S
C2177 C2176 1.391 . S
C2178 H2168 0.950 . S
C2178 C2179 1.386 . S
C2178 C2180 1.391 . S
C2179 C2178 1.386 . S
C2179 C2183 1.393 . S
C2180 H2169 0.950 . S
C2180 C2178 1.391 . S
C2180 C2181 1.400 . S
C2181 C2175 1.491 . S
C2181 C2180 1.400 . S
C2181 C2182 1.398 . S
C2182 H2170 0.950 . S
C2182 C2181 1.398 . S
C2182 C2183 1.391 . S
C2183 H2171 0.950 . S
C2183 C2179 1.393 . S
C2183 C2182 1.391 . S
H2184 C2192 0.950 . S
H2185 C2197 0.950 . S
H2186 C2194 0.950 . S
H2187 C2196 0.950 . S
H2188 C2198 0.950 1_455 S
H2189 C2200 0.950 . S
H2190 C2202 0.950 . S
H2191 C2203 0.950 . S
C2192 H2184 0.950 . S
C2192 C2193 1.386 . S
C2192 C2194 1.391 . S
C2193 C2192 1.386 . S
C2193 C2197 1.393 . S
C2194 H2186 0.950 . S
C2194 C2192 1.391 . S
C2194 C2195 1.400 . S
C2195 C2194 1.400 . S
C2195 C2196 1.398 . S
C2195 C2201 1.491 . S
C2196 H2187 0.950 . S
C2196 C2195 1.398 . S
C2196 C2197 1.391 . S
C2197 H2185 0.950 . S
C2197 C2193 1.393 . S
C2197 C2196 1.391 . S
C2198 H2188 0.950 1_655 S
C2198 C2199 1.386 . S
C2198 C2200 1.391 . S
C2199 C2198 1.386 . S
C2199 C2203 1.393 . S
C2200 H2189 0.950 . S
C2200 C2198 1.391 . S
C2200 C2201 1.400 . S
C2201 C2195 1.491 . S
C2201 C2200 1.400 . S
C2201 C2202 1.398 . S
C2202 H2190 0.950 . S
C2202 C2201 1.398 . S
C2202 C2203 1.391 . S
C2203 H2191 0.950 . S
C2203 C2199 1.393 . S
C2203 C2202 1.391 . S
H2204 C2212 0.950 . S
H2205 C2217 0.950 . S
H2206 C2214 0.950 . S
H2207 C2216 0.950 . S
H2208 C2218 0.950 . S
H2209 C2220 0.950 . S
H2210 C2222 0.950 . S
H2211 C2223 0.950 . S
C2212 H2204 0.950 . S
C2212 C2213 1.386 . S
C2212 C2214 1.391 . S
C2213 C2212 1.386 . S
C2213 C2217 1.393 . S
C2214 H2206 0.950 . S
C2214 C2212 1.391 . S
C2214 C2215 1.400 . S
C2215 C2214 1.400 . S
C2215 C2216 1.398 . S
C2215 C2221 1.491 . S
C2216 H2207 0.950 . S
C2216 C2215 1.398 . S
C2216 C2217 1.391 . S
C2217 H2205 0.950 . S
C2217 C2213 1.393 . S
C2217 C2216 1.391 . S
C2218 H2208 0.950 . S
C2218 C2219 1.386 . S
C2218 C2220 1.391 . S
C2219 C2218 1.386 . S
C2219 C2223 1.393 . S
C2220 H2209 0.950 . S
C2220 C2218 1.391 . S
C2220 C2221 1.400 . S
C2221 C2215 1.491 . S
C2221 C2220 1.400 . S
C2221 C2222 1.398 . S
C2222 H2210 0.950 . S
C2222 C2221 1.398 . S
C2222 C2223 1.391 . S
C2223 H2211 0.950 . S
C2223 C2219 1.393 . S
C2223 C2222 1.391 . S
H2224 C2232 0.950 . S
H2225 C2237 0.950 . S
H2226 C2234 0.950 . S
H2227 C2236 0.950 . S
H2228 C2238 0.950 . S
H2229 C2240 0.950 . S
H2230 C2242 0.950 . S
H2231 C2243 0.950 1_655 S
C2232 H2224 0.950 . S
C2232 C2233 1.386 . S
C2232 C2234 1.391 . S
C2233 C2232 1.386 . S
C2233 C2237 1.393 . S
C2234 H2226 0.950 . S
C2234 C2232 1.391 . S
C2234 C2235 1.400 . S
C2235 C2234 1.400 . S
C2235 C2236 1.398 . S
C2235 C2241 1.491 . S
C2236 H2227 0.950 . S
C2236 C2235 1.398 . S
C2236 C2237 1.391 . S
C2237 H2225 0.950 . S
C2237 C2233 1.393 . S
C2237 C2236 1.391 . S
C2238 H2228 0.950 . S
C2238 C2239 1.386 . S
C2238 C2240 1.391 . S
C2239 C2238 1.386 . S
C2239 C2243 1.393 . S
C2240 H2229 0.950 . S
C2240 C2238 1.391 . S
C2240 C2241 1.400 . S
C2241 C2235 1.491 . S
C2241 C2240 1.400 . S
C2241 C2242 1.398 . S
C2242 H2230 0.950 . S
C2242 C2241 1.398 . S
C2242 C2243 1.391 . S
C2243 H2231 0.950 1_455 S
C2243 C2239 1.393 . S
C2243 C2242 1.391 . S
H2244 C2252 0.950 . S
H2245 C2257 0.950 . S
H2246 C2254 0.950 . S
H2247 C2256 0.950 . S
H2248 C2258 0.950 . S
H2249 C2260 0.950 . S
H2250 C2262 0.950 . S
H2251 C2263 0.950 . S
C2252 H2244 0.950 . S
C2252 C2253 1.386 . S
C2252 C2254 1.391 . S
C2253 C2252 1.386 . S
C2253 C2257 1.393 . S
C2254 H2246 0.950 . S
C2254 C2252 1.391 . S
C2254 C2255 1.400 . S
C2255 C2254 1.400 . S
C2255 C2256 1.398 . S
C2255 C2261 1.491 . S
C2256 H2247 0.950 . S
C2256 C2255 1.398 . S
C2256 C2257 1.391 . S
C2257 H2245 0.950 . S
C2257 C2253 1.393 . S
C2257 C2256 1.391 . S
C2258 H2248 0.950 . S
C2258 C2259 1.386 . S
C2258 C2260 1.391 . S
C2259 C2258 1.386 . S
C2259 C2263 1.393 . S
C2260 H2249 0.950 . S
C2260 C2258 1.391 . S
C2260 C2261 1.400 . S
C2261 C2255 1.491 . S
C2261 C2260 1.400 . S
C2261 C2262 1.398 . S
C2262 H2250 0.950 . S
C2262 C2261 1.398 . S
C2262 C2263 1.391 . S
C2263 H2251 0.950 . S
C2263 C2259 1.393 . S
C2263 C2262 1.391 . S
H2264 C2272 0.950 . S
H2265 C2277 0.950 . S
H2266 C2274 0.950 . S
H2267 C2276 0.950 . S
H2268 C2278 0.950 . S
H2269 C2280 0.950 . S
H2270 C2282 0.950 . S
H2271 C2283 0.950 . S
C2272 H2264 0.950 . S
C2272 C2273 1.386 . S
C2272 C2274 1.391 . S
C2273 C2272 1.386 . S
C2273 C2277 1.393 . S
C2274 H2266 0.950 . S
C2274 C2272 1.391 . S
C2274 C2275 1.400 . S
C2275 C2274 1.400 . S
C2275 C2276 1.398 . S
C2275 C2281 1.491 . S
C2276 H2267 0.950 . S
C2276 C2275 1.398 . S
C2276 C2277 1.391 . S
C2277 H2265 0.950 . S
C2277 C2273 1.393 . S
C2277 C2276 1.391 . S
C2278 H2268 0.950 . S
C2278 C2279 1.386 . S
C2278 C2280 1.391 . S
C2279 C2278 1.386 . S
C2279 C2283 1.393 . S
C2280 H2269 0.950 . S
C2280 C2278 1.391 . S
C2280 C2281 1.400 . S
C2281 C2275 1.491 . S
C2281 C2280 1.400 . S
C2281 C2282 1.398 . S
C2282 H2270 0.950 . S
C2282 C2281 1.398 . S
C2282 C2283 1.391 . S
C2283 H2271 0.950 . S
C2283 C2279 1.393 . S
C2283 C2282 1.391 . S
H2284 C2292 0.950 . S
H2285 C2297 0.950 . S
H2286 C2294 0.950 . S
H2287 C2296 0.950 . S
H2288 C2298 0.950 . S
H2289 C2300 0.950 . S
H2290 C2302 0.950 . S
H2291 C2303 0.950 . S
C2292 H2284 0.950 . S
C2292 C2293 1.386 . S
C2292 C2294 1.391 . S
C2293 C2292 1.386 . S
C2293 C2297 1.393 . S
C2294 H2286 0.950 . S
C2294 C2292 1.391 . S
C2294 C2295 1.400 . S
C2295 C2294 1.400 . S
C2295 C2296 1.398 . S
C2295 C2301 1.491 . S
C2296 H2287 0.950 . S
C2296 C2295 1.398 . S
C2296 C2297 1.391 . S
C2297 H2285 0.950 . S
C2297 C2293 1.393 . S
C2297 C2296 1.391 . S
C2298 H2288 0.950 . S
C2298 C2299 1.386 . S
C2298 C2300 1.391 . S
C2299 C2298 1.386 . S
C2299 C2303 1.393 . S
C2300 H2289 0.950 . S
C2300 C2298 1.391 . S
C2300 C2301 1.400 . S
C2301 C2295 1.491 . S
C2301 C2300 1.400 . S
C2301 C2302 1.398 . S
C2302 H2290 0.950 . S
C2302 C2301 1.398 . S
C2302 C2303 1.391 . S
C2303 H2291 0.950 . S
C2303 C2299 1.393 . S
C2303 C2302 1.391 . S
H2304 C2312 0.950 . S
H2305 C2317 0.950 . S
H2306 C2314 0.950 . S
H2307 C2316 0.950 . S
H2308 C2318 0.950 . S
H2309 C2320 0.950 . S
H2310 C2322 0.950 . S
H2311 C2323 0.950 . S
C2312 H2304 0.950 . S
C2312 C2313 1.386 . S
C2312 C2314 1.391 . S
C2313 C2312 1.386 . S
C2313 C2317 1.393 . S
C2314 H2306 0.950 . S
C2314 C2312 1.391 . S
C2314 C2315 1.400 . S
C2315 C2314 1.400 . S
C2315 C2316 1.398 . S
C2315 C2321 1.491 . S
C2316 H2307 0.950 . S
C2316 C2315 1.398 . S
C2316 C2317 1.391 . S
C2317 H2305 0.950 . S
C2317 C2313 1.393 . S
C2317 C2316 1.391 . S
C2318 H2308 0.950 . S
C2318 C2319 1.386 . S
C2318 C2320 1.391 . S
C2319 C2318 1.386 . S
C2319 C2323 1.393 . S
C2320 H2309 0.950 . S
C2320 C2318 1.391 . S
C2320 C2321 1.400 . S
C2321 C2315 1.491 . S
C2321 C2320 1.400 . S
C2321 C2322 1.398 . S
C2322 H2310 0.950 . S
C2322 C2321 1.398 . S
C2322 C2323 1.391 . S
C2323 H2311 0.950 . S
C2323 C2319 1.393 . S
C2323 C2322 1.391 . S
H2324 C2332 0.950 . S
H2325 C2337 0.950 . S
H2326 C2334 0.950 . S
H2327 C2336 0.950 . S
H2328 C2338 0.950 . S
H2329 C2340 0.950 . S
H2330 C2342 0.950 . S
H2331 C2343 0.950 . S
C2332 H2324 0.950 . S
C2332 C2333 1.386 . S
C2332 C2334 1.391 . S
C2333 C2332 1.386 . S
C2333 C2337 1.393 . S
C2334 H2326 0.950 . S
C2334 C2332 1.391 . S
C2334 C2335 1.400 . S
C2335 C2334 1.400 . S
C2335 C2336 1.398 . S
C2335 C2341 1.491 . S
C2336 H2327 0.950 . S
C2336 C2335 1.398 . S
C2336 C2337 1.391 . S
C2337 H2325 0.950 . S
C2337 C2333 1.393 . S
C2337 C2336 1.391 . S
C2338 H2328 0.950 . S
C2338 C2339 1.386 . S
C2338 C2340 1.391 . S
C2339 C2338 1.386 . S
C2339 C2343 1.393 . S
C2340 H2329 0.950 . S
C2340 C2338 1.391 . S
C2340 C2341 1.400 . S
C2341 C2335 1.491 . S
C2341 C2340 1.400 . S
C2341 C2342 1.398 . S
C2342 H2330 0.950 . S
C2342 C2341 1.398 . S
C2342 C2343 1.391 . S
C2343 H2331 0.950 . S
C2343 C2339 1.393 . S
C2343 C2342 1.391 . S
H2344 C2352 0.950 . S
H2345 C2357 0.950 . S
H2346 C2354 0.950 . S
H2347 C2356 0.950 . S
H2348 C2358 0.950 . S
H2349 C2360 0.950 . S
H2350 C2362 0.950 . S
H2351 C2363 0.950 . S
C2352 H2344 0.950 . S
C2352 C2353 1.386 . S
C2352 C2354 1.391 . S
C2353 C2352 1.386 . S
C2353 C2357 1.393 . S
C2354 H2346 0.950 . S
C2354 C2352 1.391 . S
C2354 C2355 1.400 . S
C2355 C2354 1.400 . S
C2355 C2356 1.398 . S
C2355 C2361 1.491 . S
C2356 H2347 0.950 . S
C2356 C2355 1.398 . S
C2356 C2357 1.391 . S
C2357 H2345 0.950 . S
C2357 C2353 1.393 . S
C2357 C2356 1.391 . S
C2358 H2348 0.950 . S
C2358 C2359 1.386 . S
C2358 C2360 1.391 . S
C2359 C2358 1.386 . S
C2359 C2363 1.393 . S
C2360 H2349 0.950 . S
C2360 C2358 1.391 . S
C2360 C2361 1.400 . S
C2361 C2355 1.491 . S
C2361 C2360 1.400 . S
C2361 C2362 1.398 . S
C2362 H2350 0.950 . S
C2362 C2361 1.398 . S
C2362 C2363 1.391 . S
C2363 H2351 0.950 . S
C2363 C2359 1.393 . S
C2363 C2362 1.391 . S
H2364 C2372 0.950 . S
H2365 C2377 0.950 . S
H2366 C2374 0.950 . S
H2367 C2376 0.950 . S
H2368 C2378 0.950 . S
H2369 C2380 0.950 . S
H2370 C2382 0.950 . S
H2371 C2383 0.950 . S
C2372 H2364 0.950 . S
C2372 C2373 1.386 . S
C2372 C2374 1.391 . S
C2373 C2372 1.386 . S
C2373 C2377 1.393 . S
C2374 H2366 0.950 . S
C2374 C2372 1.391 . S
C2374 C2375 1.400 . S
C2375 C2374 1.400 . S
C2375 C2376 1.398 . S
C2375 C2381 1.491 . S
C2376 H2367 0.950 . S
C2376 C2375 1.398 . S
C2376 C2377 1.391 . S
C2377 H2365 0.950 . S
C2377 C2373 1.393 . S
C2377 C2376 1.391 . S
C2378 H2368 0.950 . S
C2378 C2379 1.386 . S
C2378 C2380 1.391 . S
C2379 C2378 1.386 . S
C2379 C2383 1.393 . S
C2380 H2369 0.950 . S
C2380 C2378 1.391 . S
C2380 C2381 1.400 . S
C2381 C2375 1.491 . S
C2381 C2380 1.400 . S
C2381 C2382 1.398 . S
C2382 H2370 0.950 . S
C2382 C2381 1.398 . S
C2382 C2383 1.391 . S
C2383 H2371 0.950 . S
C2383 C2379 1.393 . S
C2383 C2382 1.391 . S
H2384 C2392 0.950 . S
H2385 C2397 0.950 . S
H2386 C2394 0.950 . S
H2387 C2396 0.950 . S
H2388 C2398 0.950 . S
H2389 C2400 0.950 . S
H2390 C2402 0.950 . S
H2391 C2403 0.950 . S
C2392 H2384 0.950 . S
C2392 C2393 1.386 . S
C2392 C2394 1.391 . S
C2393 C2392 1.386 . S
C2393 C2397 1.393 . S
C2394 H2386 0.950 . S
C2394 C2392 1.391 . S
C2394 C2395 1.400 . S
C2395 C2394 1.400 . S
C2395 C2396 1.398 . S
C2395 C2401 1.491 . S
C2396 H2387 0.950 . S
C2396 C2395 1.398 . S
C2396 C2397 1.391 . S
C2397 H2385 0.950 . S
C2397 C2393 1.393 . S
C2397 C2396 1.391 . S
C2398 H2388 0.950 . S
C2398 C2399 1.386 . S
C2398 C2400 1.391 . S
C2399 C2398 1.386 . S
C2399 C2403 1.393 . S
C2400 H2389 0.950 . S
C2400 C2398 1.391 . S
C2400 C2401 1.400 . S
C2401 C2395 1.491 . S
C2401 C2400 1.400 . S
C2401 C2402 1.398 . S
C2402 H2390 0.950 . S
C2402 C2401 1.398 . S
C2402 C2403 1.391 . S
C2403 H2391 0.950 . S
C2403 C2399 1.393 . S
C2403 C2402 1.391 . S
H2404 C2412 0.950 . S
H2405 C2417 0.950 . S
H2406 C2414 0.950 . S
H2407 C2416 0.950 . S
H2408 C2418 0.950 . S
H2409 C2420 0.950 . S
H2410 C2422 0.950 . S
H2411 C2423 0.950 . S
C2412 H2404 0.950 . S
C2412 C2413 1.386 . S
C2412 C2414 1.391 . S
C2413 C2412 1.386 . S
C2413 C2417 1.393 . S
C2414 H2406 0.950 . S
C2414 C2412 1.391 . S
C2414 C2415 1.400 . S
C2415 C2414 1.400 . S
C2415 C2416 1.398 . S
C2415 C2421 1.491 . S
C2416 H2407 0.950 . S
C2416 C2415 1.398 . S
C2416 C2417 1.391 . S
C2417 H2405 0.950 . S
C2417 C2413 1.393 . S
C2417 C2416 1.391 . S
C2418 H2408 0.950 . S
C2418 C2419 1.386 . S
C2418 C2420 1.391 . S
C2419 C2418 1.386 . S
C2419 C2423 1.393 . S
C2420 H2409 0.950 . S
C2420 C2418 1.391 . S
C2420 C2421 1.400 . S
C2421 C2415 1.491 . S
C2421 C2420 1.400 . S
C2421 C2422 1.398 . S
C2422 H2410 0.950 . S
C2422 C2421 1.398 . S
C2422 C2423 1.391 . S
C2423 H2411 0.950 . S
C2423 C2419 1.393 . S
C2423 C2422 1.391 . S
H2424 C2432 0.950 . S
H2425 C2437 0.950 . S
H2426 C2434 0.950 . S
H2427 C2436 0.950 . S
H2428 C2438 0.950 . S
H2429 C2440 0.950 . S
H2430 C2442 0.950 . S
H2431 C2443 0.950 . S
C2432 H2424 0.950 . S
C2432 C2433 1.386 . S
C2432 C2434 1.391 . S
C2433 C2432 1.386 . S
C2433 C2437 1.393 . S
C2434 H2426 0.950 . S
C2434 C2432 1.391 . S
C2434 C2435 1.400 . S
C2435 C2434 1.400 . S
C2435 C2436 1.398 . S
C2435 C2441 1.491 . S
C2436 H2427 0.950 . S
C2436 C2435 1.398 . S
C2436 C2437 1.391 . S
C2437 H2425 0.950 . S
C2437 C2433 1.393 . S
C2437 C2436 1.391 . S
C2438 H2428 0.950 . S
C2438 C2439 1.386 . S
C2438 C2440 1.391 . S
C2439 C2438 1.386 . S
C2439 C2443 1.393 . S
C2440 H2429 0.950 . S
C2440 C2438 1.391 . S
C2440 C2441 1.400 . S
C2441 C2435 1.491 . S
C2441 C2440 1.400 . S
C2441 C2442 1.398 . S
C2442 H2430 0.950 . S
C2442 C2441 1.398 . S
C2442 C2443 1.391 . S
C2443 H2431 0.950 . S
C2443 C2439 1.393 . S
C2443 C2442 1.391 . S
H2444 C2452 0.950 . S
H2445 C2457 0.950 . S
H2446 C2454 0.950 . S
H2447 C2456 0.950 . S
H2448 C2458 0.950 . S
H2449 C2460 0.950 . S
H2450 C2462 0.950 . S
H2451 C2463 0.950 . S
C2452 H2444 0.950 . S
C2452 C2453 1.386 . S
C2452 C2454 1.391 . S
C2453 C2452 1.386 . S
C2453 C2457 1.393 . S
C2454 H2446 0.950 . S
C2454 C2452 1.391 . S
C2454 C2455 1.400 . S
C2455 C2454 1.400 . S
C2455 C2456 1.398 . S
C2455 C2461 1.491 . S
C2456 H2447 0.950 . S
C2456 C2455 1.398 . S
C2456 C2457 1.391 . S
C2457 H2445 0.950 . S
C2457 C2453 1.393 . S
C2457 C2456 1.391 . S
C2458 H2448 0.950 . S
C2458 C2459 1.386 . S
C2458 C2460 1.391 . S
C2459 C2458 1.386 . S
C2459 C2463 1.393 . S
C2460 H2449 0.950 . S
C2460 C2458 1.391 . S
C2460 C2461 1.400 . S
C2461 C2455 1.491 . S
C2461 C2460 1.400 . S
C2461 C2462 1.398 . S
C2462 H2450 0.950 . S
C2462 C2461 1.398 . S
C2462 C2463 1.391 . S
C2463 H2451 0.950 . S
C2463 C2459 1.393 . S
C2463 C2462 1.391 . S
H2464 C2472 0.950 . S
H2465 C2477 0.950 . S
H2466 C2474 0.950 . S
H2467 C2476 0.950 . S
H2468 C2478 0.950 . S
H2469 C2480 0.950 . S
H2470 C2482 0.950 . S
H2471 C2483 0.950 . S
C2472 H2464 0.950 . S
C2472 C2473 1.386 . S
C2472 C2474 1.391 . S
C2473 C2472 1.386 . S
C2473 C2477 1.393 . S
C2474 H2466 0.950 . S
C2474 C2472 1.391 . S
C2474 C2475 1.400 . S
C2475 C2474 1.400 . S
C2475 C2476 1.398 . S
C2475 C2481 1.491 . S
C2476 H2467 0.950 . S
C2476 C2475 1.398 . S
C2476 C2477 1.391 . S
C2477 H2465 0.950 . S
C2477 C2473 1.393 . S
C2477 C2476 1.391 . S
C2478 H2468 0.950 . S
C2478 C2479 1.386 . S
C2478 C2480 1.391 . S
C2479 C2478 1.386 . S
C2479 C2483 1.393 . S
C2480 H2469 0.950 . S
C2480 C2478 1.391 . S
C2480 C2481 1.400 . S
C2481 C2475 1.491 . S
C2481 C2480 1.400 . S
C2481 C2482 1.398 . S
C2482 H2470 0.950 . S
C2482 C2481 1.398 . S
C2482 C2483 1.391 . S
C2483 H2471 0.950 . S
C2483 C2479 1.393 . S
C2483 C2482 1.391 . S
H2484 C2492 0.950 . S
H2485 C2497 0.950 . S
H2486 C2494 0.950 . S
H2487 C2496 0.950 . S
H2488 C2498 0.950 . S
H2489 C2500 0.950 . S
H2490 C2502 0.950 . S
H2491 C2503 0.950 . S
C2492 H2484 0.950 . S
C2492 C2493 1.386 . S
C2492 C2494 1.391 . S
C2493 C2492 1.386 . S
C2493 C2497 1.393 . S
C2494 H2486 0.950 . S
C2494 C2492 1.391 . S
C2494 C2495 1.400 . S
C2495 C2494 1.400 . S
C2495 C2496 1.398 . S
C2495 C2501 1.491 . S
C2496 H2487 0.950 . S
C2496 C2495 1.398 . S
C2496 C2497 1.391 . S
C2497 H2485 0.950 . S
C2497 C2493 1.393 . S
C2497 C2496 1.391 . S
C2498 H2488 0.950 . S
C2498 C2499 1.386 . S
C2498 C2500 1.391 . S
C2499 C2498 1.386 . S
C2499 C2503 1.393 . S
C2500 H2489 0.950 . S
C2500 C2498 1.391 . S
C2500 C2501 1.400 . S
C2501 C2495 1.491 . S
C2501 C2500 1.400 . S
C2501 C2502 1.398 . S
C2502 H2490 0.950 . S
C2502 C2501 1.398 . S
C2502 C2503 1.391 . S
C2503 H2491 0.950 . S
C2503 C2499 1.393 . S
C2503 C2502 1.391 . S
H2504 C2512 0.950 . S
H2505 C2517 0.950 . S
H2506 C2514 0.950 . S
H2507 C2516 0.950 . S
H2508 C2518 0.950 . S
H2509 C2520 0.950 . S
H2510 C2522 0.950 . S
H2511 C2523 0.950 . S
C2512 H2504 0.950 . S
C2512 C2513 1.386 . S
C2512 C2514 1.391 . S
C2513 C2512 1.386 . S
C2513 C2517 1.393 . S
C2514 H2506 0.950 . S
C2514 C2512 1.391 . S
C2514 C2515 1.400 . S
C2515 C2514 1.400 . S
C2515 C2516 1.398 . S
C2515 C2521 1.491 . S
C2516 H2507 0.950 . S
C2516 C2515 1.398 . S
C2516 C2517 1.391 . S
C2517 H2505 0.950 . S
C2517 C2513 1.393 . S
C2517 C2516 1.391 . S
C2518 H2508 0.950 . S
C2518 C2519 1.386 . S
C2518 C2520 1.391 . S
C2519 C2518 1.386 . S
C2519 C2523 1.393 . S
C2520 H2509 0.950 . S
C2520 C2518 1.391 . S
C2520 C2521 1.400 . S
C2521 C2515 1.491 . S
C2521 C2520 1.400 . S
C2521 C2522 1.398 . S
C2522 H2510 0.950 . S
C2522 C2521 1.398 . S
C2522 C2523 1.391 . S
C2523 H2511 0.950 . S
C2523 C2519 1.393 . S
C2523 C2522 1.391 . S
H2524 C2532 0.950 . S
H2525 C2537 0.950 . S
H2526 C2534 0.950 . S
H2527 C2536 0.950 . S
H2528 C2538 0.950 . S
H2529 C2540 0.950 . S
H2530 C2542 0.950 . S
H2531 C2543 0.950 . S
C2532 H2524 0.950 . S
C2532 C2533 1.386 . S
C2532 C2534 1.391 . S
C2533 C2532 1.386 . S
C2533 C2537 1.393 . S
C2534 H2526 0.950 . S
C2534 C2532 1.391 . S
C2534 C2535 1.400 . S
C2535 C2534 1.400 . S
C2535 C2536 1.398 . S
C2535 C2541 1.491 . S
C2536 H2527 0.950 . S
C2536 C2535 1.398 . S
C2536 C2537 1.391 . S
C2537 H2525 0.950 . S
C2537 C2533 1.393 . S
C2537 C2536 1.391 . S
C2538 H2528 0.950 . S
C2538 C2539 1.386 . S
C2538 C2540 1.391 . S
C2539 C2538 1.386 . S
C2539 C2543 1.393 . S
C2540 H2529 0.950 . S
C2540 C2538 1.391 . S
C2540 C2541 1.400 . S
C2541 C2535 1.491 . S
C2541 C2540 1.400 . S
C2541 C2542 1.398 . S
C2542 H2530 0.950 . S
C2542 C2541 1.398 . S
C2542 C2543 1.391 . S
C2543 H2531 0.950 . S
C2543 C2539 1.393 . S
C2543 C2542 1.391 . S
H2544 C2552 0.950 . S
H2545 C2557 0.950 . S
H2546 C2554 0.950 . S
H2547 C2556 0.950 . S
H2548 C2558 0.950 . S
H2549 C2560 0.950 . S
H2550 C2562 0.950 . S
H2551 C2563 0.950 . S
C2552 H2544 0.950 . S
C2552 C2553 1.386 . S
C2552 C2554 1.391 . S
C2553 C2552 1.386 . S
C2553 C2557 1.393 . S
C2554 H2546 0.950 . S
C2554 C2552 1.391 . S
C2554 C2555 1.400 . S
C2555 C2554 1.400 . S
C2555 C2556 1.398 . S
C2555 C2561 1.491 . S
C2556 H2547 0.950 . S
C2556 C2555 1.398 . S
C2556 C2557 1.391 . S
C2557 H2545 0.950 . S
C2557 C2553 1.393 . S
C2557 C2556 1.391 . S
C2558 H2548 0.950 . S
C2558 C2559 1.386 . S
C2558 C2560 1.391 . S
C2559 C2558 1.386 . S
C2559 C2563 1.393 . S
C2560 H2549 0.950 . S
C2560 C2558 1.391 . S
C2560 C2561 1.400 . S
C2561 C2555 1.491 . S
C2561 C2560 1.400 . S
C2561 C2562 1.398 . S
C2562 H2550 0.950 . S
C2562 C2561 1.398 . S
C2562 C2563 1.391 . S
C2563 H2551 0.950 . S
C2563 C2559 1.393 . S
C2563 C2562 1.391 . S
H2564 C2572 0.950 . S
H2565 C2577 0.950 . S
H2566 C2574 0.950 . S
H2567 C2576 0.950 . S
H2568 C2578 0.950 1_545 S
H2569 C2580 0.950 . S
H2570 C2582 0.950 . S
H2571 C2583 0.950 . S
C2572 H2564 0.950 . S
C2572 C2573 1.386 . S
C2572 C2574 1.391 . S
C2573 C2572 1.386 . S
C2573 C2577 1.393 . S
C2574 H2566 0.950 . S
C2574 C2572 1.391 . S
C2574 C2575 1.400 . S
C2575 C2574 1.400 . S
C2575 C2576 1.398 . S
C2575 C2581 1.491 . S
C2576 H2567 0.950 . S
C2576 C2575 1.398 . S
C2576 C2577 1.391 . S
C2577 H2565 0.950 . S
C2577 C2573 1.393 . S
C2577 C2576 1.391 . S
C2578 H2568 0.950 1_565 S
C2578 C2579 1.386 . S
C2578 C2580 1.391 . S
C2579 C2578 1.386 . S
C2579 C2583 1.393 . S
C2580 H2569 0.950 . S
C2580 C2578 1.391 . S
C2580 C2581 1.400 . S
C2581 C2575 1.491 . S
C2581 C2580 1.400 . S
C2581 C2582 1.398 . S
C2582 H2570 0.950 . S
C2582 C2581 1.398 . S
C2582 C2583 1.391 . S
C2583 H2571 0.950 . S
C2583 C2579 1.393 . S
C2583 C2582 1.391 . S
H2584 C2592 0.950 . S
H2585 C2597 0.950 . S
H2586 C2594 0.950 . S
H2587 C2596 0.950 . S
H2588 C2598 0.950 . S
H2589 C2600 0.950 . S
H2590 C2602 0.950 . S
H2591 C2603 0.950 . S
C2592 H2584 0.950 . S
C2592 C2593 1.386 . S
C2592 C2594 1.391 . S
C2593 C2592 1.386 . S
C2593 C2597 1.393 . S
C2594 H2586 0.950 . S
C2594 C2592 1.391 . S
C2594 C2595 1.400 . S
C2595 C2594 1.400 . S
C2595 C2596 1.398 . S
C2595 C2601 1.491 . S
C2596 H2587 0.950 . S
C2596 C2595 1.398 . S
C2596 C2597 1.391 . S
C2597 H2585 0.950 . S
C2597 C2593 1.393 . S
C2597 C2596 1.391 . S
C2598 H2588 0.950 . S
C2598 C2599 1.386 . S
C2598 C2600 1.391 . S
C2599 C2598 1.386 . S
C2599 C2603 1.393 . S
C2600 H2589 0.950 . S
C2600 C2598 1.391 . S
C2600 C2601 1.400 . S
C2601 C2595 1.491 . S
C2601 C2600 1.400 . S
C2601 C2602 1.398 . S
C2602 H2590 0.950 . S
C2602 C2601 1.398 . S
C2602 C2603 1.391 . S
C2603 H2591 0.950 . S
C2603 C2599 1.393 . S
C2603 C2602 1.391 . S
H2604 C2612 0.950 . S
H2605 C2617 0.950 . S
H2606 C2614 0.950 . S
H2607 C2616 0.950 . S
H2608 C2618 0.950 1_545 S
H2609 C2620 0.950 . S
H2610 C2622 0.950 . S
H2611 C2623 0.950 . S
C2612 H2604 0.950 . S
C2612 C2613 1.386 . S
C2612 C2614 1.391 . S
C2613 C2612 1.386 . S
C2613 C2617 1.393 . S
C2614 H2606 0.950 . S
C2614 C2612 1.391 . S
C2614 C2615 1.400 . S
C2615 C2614 1.400 . S
C2615 C2616 1.398 . S
C2615 C2621 1.491 . S
C2616 H2607 0.950 . S
C2616 C2615 1.398 . S
C2616 C2617 1.391 . S
C2617 H2605 0.950 . S
C2617 C2613 1.393 . S
C2617 C2616 1.391 . S
C2618 H2608 0.950 1_565 S
C2618 C2619 1.386 . S
C2618 C2620 1.391 . S
C2619 C2618 1.386 . S
C2619 C2623 1.393 . S
C2620 H2609 0.950 . S
C2620 C2618 1.391 . S
C2620 C2621 1.400 . S
C2621 C2615 1.491 . S
C2621 C2620 1.400 . S
C2621 C2622 1.398 . S
C2622 H2610 0.950 . S
C2622 C2621 1.398 . S
C2622 C2623 1.391 . S
C2623 H2611 0.950 . S
C2623 C2619 1.393 . S
C2623 C2622 1.391 . S
H2624 C2632 0.950 . S
H2625 C2637 0.950 . S
H2626 C2634 0.950 . S
H2627 C2636 0.950 . S
H2628 C2638 0.950 . S
H2629 C2640 0.950 . S
H2630 C2642 0.950 . S
H2631 C2643 0.950 . S
C2632 H2624 0.950 . S
C2632 C2633 1.386 . S
C2632 C2634 1.391 . S
C2633 C2632 1.386 . S
C2633 C2637 1.393 . S
C2634 H2626 0.950 . S
C2634 C2632 1.391 . S
C2634 C2635 1.400 . S
C2635 C2634 1.400 . S
C2635 C2636 1.398 . S
C2635 C2641 1.491 . S
C2636 H2627 0.950 . S
C2636 C2635 1.398 . S
C2636 C2637 1.391 . S
C2637 H2625 0.950 . S
C2637 C2633 1.393 . S
C2637 C2636 1.391 . S
C2638 H2628 0.950 . S
C2638 C2639 1.386 . S
C2638 C2640 1.391 . S
C2639 C2638 1.386 . S
C2639 C2643 1.393 . S
C2640 H2629 0.950 . S
C2640 C2638 1.391 . S
C2640 C2641 1.400 . S
C2641 C2635 1.491 . S
C2641 C2640 1.400 . S
C2641 C2642 1.398 . S
C2642 H2630 0.950 . S
C2642 C2641 1.398 . S
C2642 C2643 1.391 . S
C2643 H2631 0.950 . S
C2643 C2639 1.393 . S
C2643 C2642 1.391 . S
C739 C376 1.087 . S
C733 C226 1.181 . S
C759 C384 1.139 . S
C753 C269 1.231 . S
C779 C379 1.250 . S
C773 C250 1.378 . S
C793 C205 1.680 . S
C799 C383 1.583 . S
C819 C438 1.338 . S
C813 C115 1.474 . S
C833 C136 1.233 . S
C839 C414 1.168 . S
C859 C441 1.131 . S
C853 C158 1.201 . S
C873 C97 1.722 . S
C879 C415 1.594 . S
C893 C314 1.762 . S
C899 C472 1.653 . S
C913 C336 1.470 . S
C919 C476 1.390 . S
C939 C531 0.932 . S
C933 C180 1.047 . S
C959 C539 1.654 . S
C953 C294 1.772 . S
C979 C469 1.021 . S
C973 C70 1.124 . S
C999 C477 1.575 . S
C993 C6 1.642 . S
C1013 C31 1.723 . S
C1019 C534 1.587 . S
C1033 C53 1.591 . S
C1039 C538 1.492 . S
C1053 C29 1.424 . S
C1059 C503 1.291 . S
C1079 C593 1.140 . S
C1073 C181 1.232 . S
C1093 C293 1.619 . S
C1099 C601 1.506 . S
C1119 C655 1.139 . S
C1113 C312 1.334 . S
C1133 C137 1.479 . S
C1139 C507 1.394 . S
C1159 C596 1.145 . S
C1153 C225 1.207 . S
C1179 C600 1.443 . S
C1173 C270 1.535 . S
C1199 C663 1.380 . S
C1193 C206 1.478 . S
C1213 C72 1.170 . S
C1219 C407 1.105 . S
C1233 C4 1.231 . S
C1239 C353 1.136 . S
C1259 C410 1.279 . S
C1253 C30 1.374 . S
C1273 C51 1.676 . S
C1279 C352 1.580 . S
C1293 C313 1.475 . S
C1299 C717 1.308 . S
C1313 C334 1.234 . S
C1319 C693 1.169 . S
C1339 C720 1.160 . S
C1333 C182 1.195 . S
C1353 C295 1.737 . S
C1359 C694 1.618 . S
C1373 C116 1.769 . S
C1379 C627 1.626 . S
C1399 C631 1.387 . S
C1393 C138 1.470 . S
C1419 C686 0.969 . S
C1413 C159 1.036 . S
C1439 C570 1.623 . S
C1433 C96 1.749 . S
C1459 C624 1.015 . S
C1453 C224 1.115 . S
C1473 C268 1.657 . S
C1479 C632 1.568 . S
C1493 C251 1.712 . S
C1499 C689 1.615 . S
C1519 C569 1.514 . S
C1513 C207 1.600 . S
C1533 C249 1.401 . S
C1539 C658 1.253 . S
C1559 C562 1.131 . S
C1553 C160 1.230 . S
C1573 C95 1.640 . S
C1579 C446 1.541 . S
C1593 C114 1.358 . S
C1599 C500 1.178 . S
C1613 C335 1.479 . S
C1619 C662 1.401 . S
C1633 C71 1.216 . S
C1639 C565 1.149 . S
C1653 C5 1.547 . S
C1659 C445 1.466 . S
C1679 C508 1.416 . S
C1673 C52 1.499 . S
C1699 C363 1.676 . S
C1693 C339 1.700 . S
C1719 C393 1.857 . S
C1713 C184 1.886 . S
C1739 C370 1.693 . S
C1733 C290 1.624 . S
C1759 C385 2.017 . S
C1753 C317 1.936 1_565 S
C1779 C425 1.599 . S
C1773 C204 1.624 . S
C1793 C228 2.074 . S
C1799 C416 2.116 . S
C1813 C272 1.740 . S
C1819 C432 1.831 . S
C1833 C248 2.028 1_565 S
C1839 C424 2.001 . S
C1859 C463 1.384 . S
C1853 C49 1.339 . S
C1879 C486 1.762 . S
C1873 C75 1.799 . S
C1893 C8 1.262 . S
C1899 C518 1.232 . S
C1919 C548 1.838 . S
C1913 C26 1.865 . S
C1933 C140 1.272 . S
C1939 C456 1.262 . S
C1959 C478 1.910 . S
C1953 C162 1.873 1_455 S
C1979 C525 1.312 . S
C1973 C94 1.247 . S
C1993 C117 1.901 1_655 S
C1999 C540 1.921 . S
C2019 C487 1.407 . S
C2013 C93 1.417 . S
C2033 C7 1.483 . S
C2039 C580 1.444 . S
C2053 C27 1.416 1_556 S
C2059 C610 1.395 . S
C2073 C48 1.270 . S
C2079 C649 1.361 . S
C2099 C509 1.801 . S
C2093 C227 1.731 . S
C2119 C587 1.382 . S
C2113 C337 1.320 . S
C2133 C183 1.844 . S
C2139 C602 1.910 . S
C2159 C672 1.212 . S
C2153 C316 1.221 . S
C2179 C394 1.694 . S
C2173 C141 1.721 . S
C2193 C161 1.891 1_545 S
C2199 C362 1.859 . S
C2213 C92 1.608 . S
C2219 C401 1.690 . S
C2233 C119 1.938 . S
C2239 C354 2.010 . S
C2259 C704 1.578 . S
C2253 C50 1.602 . S
C2279 C695 2.125 . S
C2273 C74 2.063 1_545 S
C2293 C9 1.734 . S
C2299 C711 1.826 . S
C2313 C28 2.028 . S
C2319 C703 2.001 . S
C2333 C203 1.312 . S
C2339 C618 1.394 . S
C2359 C641 1.775 . S
C2353 C229 1.808 1_655 S
C2379 C673 1.216 . S
C2373 C271 1.251 . S
C2393 C246 1.858 1_455 S
C2399 C579 1.828 . S
C2419 C611 1.260 . S
C2413 C338 1.271 . S
C2433 C185 1.884 . S
C2439 C633 1.901 . S
C2459 C680 1.319 . S
C2453 C292 1.245 . S
C2473 C315 1.898 . S
C2479 C571 1.932 . S
C2493 C291 1.441 . S
C2499 C642 1.421 . S
C2513 C273 1.492 . S
C2519 C549 1.477 . S
C2539 C455 1.409 . S
C2533 C247 1.420 . S
C2553 C202 1.305 . S
C2559 C494 1.362 . S
C2573 C73 1.750 1_556 S
C2579 C664 1.800 . S
C2593 C139 1.328 . S
C2599 C556 1.378 . S
C2619 C447 1.908 . S
C2613 C163 1.864 1_554 S
C2633 C118 1.225 . S
C2639 C517 1.218 . S
