# Generated by pormake.
# Topology pth, (4,4)-cn, num edge types: 1
# Building blocks:
#     Node 0, Type 0, BuildingBlock: CEKHIL_clean_sbu_0, # of connection points: 4
#     Node 1, Type 0, BuildingBlock: CEKHIL_clean_sbu_0, # of connection points: 4
#     Node 2, Type 0, BuildingBlock: CEKHIL_clean_sbu_0, # of connection points: 4
#     Node 3, Type 1, BuildingBlock: MUDLON_clean_sbu_0, # of connection points: 4
#     Node 4, Type 1, BuildingBlock: MUDLON_clean_sbu_0, # of connection points: 4
#     Node 5, Type 1, BuildingBlock: MUDLON_clean_sbu_0, # of connection points: 4
#     Edge 6, Type (0, 1), BuildingBlock: TEMPAE_clean_linker_10, # of connection points: 2
#     Edge 7, Type (0, 1), BuildingBlock: TEMPAE_clean_linker_10, # of connection points: 2
#     Edge 8, Type (0, 1), BuildingBlock: TEMPAE_clean_linker_10, # of connection points: 2
#     Edge 9, Type (0, 1), BuildingBlock: TEMPAE_clean_linker_10, # of connection points: 2
#     Edge 10, Type (0, 1), BuildingBlock: TEMPAE_clean_linker_10, # of connection points: 2
#     Edge 11, Type (0, 1), BuildingBlock: TEMPAE_clean_linker_10, # of connection points: 2
#     Edge 12, Type (0, 1), BuildingBlock: TEMPAE_clean_linker_10, # of connection points: 2
#     Edge 13, Type (0, 1), BuildingBlock: TEMPAE_clean_linker_10, # of connection points: 2
#     Edge 14, Type (0, 1), BuildingBlock: TEMPAE_clean_linker_10, # of connection points: 2
#     Edge 15, Type (0, 1), BuildingBlock: TEMPAE_clean_linker_10, # of connection points: 2
#     Edge 16, Type (0, 1), BuildingBlock: TEMPAE_clean_linker_10, # of connection points: 2
#     Edge 17, Type (0, 1), BuildingBlock: TEMPAE_clean_linker_10, # of connection points: 2
# Relax obj value: 0.014
# Max RMSD: 0.063
# Mean RMSD: 0.051
data_MOF--net-pth--node1-CEKHIL_clean_sbu_0--node2-MUDLON_clean_sbu_0--edge1-TEMPAE_clean_linker_10
_symmetry_space_group_name_H-M    P1
_symmetry_Int_Tables_number       1
_symmetry_cell_setting            triclinic
loop_
_symmetry_equiv_pos_as_xyz
'x, y, z'
_cell_length_a     22.764871
_cell_length_b     22.818568
_cell_length_c     61.52815
_cell_angle_alpha  90.962762
_cell_angle_beta   89.93656
_cell_angle_gamma 120.27363
loop_
_atom_site_label
_atom_site_type_symbol
_atom_site_fract_x
_atom_site_fract_y
_atom_site_fract_z
_atom_type_partial_charge
Co0 Co 0.05296 0.0652 0.09756 0.0
O1 O 0.99762 0.99952 0.11895 0.0
O2 O 0.07682 0.99466 0.09962 0.0
C3 C 0.07925 0.15773 0.11881 0.0
O4 O 0.1225 0.12545 0.07481 0.0
Co5 Co 0.01085 0.16407 0.07933 0.0
O6 O 0.10524 0.21219 0.06818 0.0
C7 C 0.93785 0.02121 0.06423 0.0
C8 C 0.03117 0.96867 0.11477 0.0
C9 C 0.1406 0.18338 0.06626 0.0
O10 O 0.98214 0.01162 0.07415 0.0
O11 O 0.9372 0.07694 0.06578 0.0
O12 O 0.11303 0.12612 0.12057 0.0
O13 O 0.02766 0.12943 0.10565 0.0
Co14 Co 0.03026 0.07201 0.41477 0.0
O15 O 0.97336 0.08242 0.39372 0.0
O16 O 0.05303 0.16629 0.41359 0.0
C17 C 0.05665 0.00786 0.39277 0.0
O18 O 0.10129 0.08168 0.43734 0.0
Co19 Co 0.99339 0.93059 0.43168 0.0
O20 O 0.09013 0.97872 0.44115 0.0
C21 C 0.91883 0.99694 0.4484 0.0
C22 C 0.00678 0.14685 0.39841 0.0
C23 C 0.12304 0.04284 0.44423 0.0
O24 O 0.96003 0.05166 0.43829 0.0
O25 O 0.9211 0.94211 0.44656 0.0
O26 O 0.08963 0.07354 0.39143 0.0
O27 O 0.00597 0.98315 0.406 0.0
Co28 Co 0.03033 0.05901 0.75047 0.0
O29 O 0.10139 0.10579 0.72925 0.0
O30 O 0.08268 0.01419 0.74672 0.0
C31 C 0.94762 0.05912 0.72976 0.0
O32 O 0.96268 0.9927 0.77242 0.0
Co33 Co 0.94624 0.11505 0.77209 0.0
O34 O 0.88893 0.02349 0.78422 0.0
C35 C 0.08814 0.16494 0.78696 0.0
C36 C 0.11676 0.05873 0.73204 0.0
C37 C 0.91018 0.9815 0.78356 0.0
O38 O 0.09225 0.12056 0.77473 0.0
O39 O 0.03638 0.173 0.78695 0.0
O40 O 0.96459 0.01307 0.72677 0.0
O41 O 0.98185 0.10432 0.74463 0.0
Mg42 Mg 0.05297 0.56969 0.25727 0.0
C43 C 0.98759 0.48324 0.29834 0.0
O44 O 0.99975 0.54094 0.30731 0.0
C45 C 0.04924 0.66016 0.22577 0.0
O46 O 0.11079 0.68976 0.23424 0.0
C47 C 0.06825 0.47767 0.22926 0.0
O48 O 0.00404 0.45027 0.23475 0.0
O49 O 0.11035 0.53671 0.23683 0.0
O50 O 0.99713 0.48053 0.27801 0.0
O51 O 0.09998 0.65749 0.27985 0.0
C52 C 0.0577 0.67719 0.28409 0.0
O53 O 0.99718 0.64398 0.2749 0.0
O54 O 0.00556 0.60127 0.23238 0.0
Mg55 Mg 0.53258 0.06432 0.58912 0.0
C56 C 0.44697 0.07197 0.55685 0.0
O57 O 0.4228 0.00827 0.56208 0.0
C58 C 0.60563 0.06995 0.62842 0.0
O59 O 0.55078 0.00956 0.62739 0.0
C60 C 0.41012 0.04203 0.61395 0.0
O61 O 0.42785 0.09887 0.60396 0.0
O62 O 0.44264 0.01103 0.61008 0.0
O63 O 0.50198 0.117 0.56606 0.0
O64 O 0.56595 0.00996 0.56695 0.0
C65 C 0.62974 0.03163 0.56665 0.0
O66 O 0.66917 0.07833 0.58096 0.0
O67 O 0.61429 0.11246 0.61374 0.0
Mg68 Mg 0.56731 0.55334 0.92449 0.0
C69 C 0.46003 0.45173 0.89598 0.0
O70 O 0.4914 0.4219 0.90411 0.0
C71 C 0.60386 0.63813 0.96595 0.0
O72 O 0.58723 0.5786 0.97374 0.0
C73 C 0.47293 0.44655 0.95261 0.0
O74 O 0.44121 0.4761 0.94454 0.0
O75 O 0.53452 0.4682 0.94709 0.0
O76 O 0.48072 0.51334 0.90154 0.0
O77 O 0.65755 0.59442 0.90346 0.0
C78 C 0.65063 0.58617 0.88286 0.0
O79 O 0.59151 0.53991 0.87484 0.0
O80 O 0.59467 0.64251 0.94571 0.0
C81 C 0.14209 0.2385 0.14972 0.0
C82 C 0.09384 0.21727 0.13283 0.0
C83 C 0.15 0.28879 0.16492 0.0
C84 C 0.10892 0.31885 0.16314 0.0
C85 C 0.06336 0.30073 0.14527 0.0
C86 C 0.05619 0.25002 0.13039 0.0
C87 C 0.19913 0.30646 0.18368 0.0
C88 C 0.01901 0.33187 0.14259 0.0
C89 C 0.04874 0.36801 0.21404 0.0
C90 C 0.08759 0.43909 0.21414 0.0
C91 C 0.0574 0.32865 0.19806 0.0
C92 C 0.10578 0.361 0.18147 0.0
C93 C 0.14743 0.43279 0.18196 0.0
C94 C 0.1381 0.47116 0.19843 0.0
C95 C 0.01252 0.25234 0.19846 0.0
C96 C 0.19943 0.46916 0.16455 0.0
H97 H 0.17173 0.21375 0.15166 0.0
H98 H 0.0193 0.23443 0.11726 0.0
H99 H 0.22993 0.36227 0.18618 0.0
H100 H 0.17021 0.28481 0.19882 0.0
H101 H 0.23398 0.28622 0.18112 0.0
H102 H 0.99287 0.31902 0.12652 0.0
H103 H 0.97981 0.31315 0.15546 0.0
H104 H 0.04973 0.3879 0.14445 0.0
H105 H 0.00999 0.34293 0.22627 0.0
H106 H 0.16784 0.52611 0.19835 0.0
H107 H 0.04398 0.22783 0.19775 0.0
H108 H 0.97847 0.23446 0.18398 0.0
H109 H 0.98057 0.23497 0.21325 0.0
H110 H 0.2315 0.44576 0.16211 0.0
H111 H 0.23287 0.52397 0.16854 0.0
H112 H 0.17301 0.46428 0.1489 0.0
C113 C 0.82148 0.93744 0.47429 0.0
C114 C 0.86787 0.99724 0.46365 0.0
C115 C 0.77643 0.93727 0.48996 0.0
C116 C 0.77734 0.9983 0.49525 0.0
C117 C 0.8221 0.0583 0.48403 0.0
C118 C 0.86676 0.05707 0.4684 0.0
C119 C 0.72968 0.87217 0.50148 0.0
C120 C 0.82453 0.12443 0.48911 0.0
C121 C 0.63258 0.99425 0.5281 0.0
C122 C 0.66214 0.0133 0.5489 0.0
C123 C 0.66895 0.98823 0.51046 0.0
C124 C 0.73601 1.00072 0.5138 0.0
C125 C 0.76462 0.01689 0.53499 0.0
C126 C 0.72759 0.02334 0.55219 0.0
C127 C 0.6367 0.9711 0.48812 0.0
C128 C 0.83535 0.02943 0.53944 0.0
H129 H 0.82116 0.89062 0.47074 0.0
H130 H 0.90196 0.10351 0.46028 0.0
H131 H 0.74482 0.87735 0.51886 0.0
H132 H 0.67656 0.86176 0.50092 0.0
H133 H 0.73098 0.82789 0.49427 0.0
H134 H 0.85781 0.1651 0.47776 0.0
H135 H 0.77265 0.11733 0.4883 0.0
H136 H 0.84397 0.14155 0.50592 0.0
H137 H 0.58235 0.98719 0.52539 0.0
H138 H 0.75069 0.03785 0.56824 0.0
H139 H 0.6387 0.92726 0.4809 0.0
H140 H 0.66568 0.01474 0.47727 0.0
H141 H 0.58289 0.95885 0.48842 0.0
H142 H 0.83951 0.98532 0.53371 0.0
H143 H 0.84903 0.03854 0.55699 0.0
H144 H 0.87311 0.07425 0.53033 0.0
C145 C 0.90444 0.87845 0.80021 0.0
C146 C 0.87563 0.91966 0.79717 0.0
C147 C 0.87415 0.82222 0.81401 0.0
C148 C 0.81328 0.80631 0.82498 0.0
C149 C 0.78353 0.84716 0.82178 0.0
C150 C 0.81504 0.90321 0.80801 0.0
C151 C 0.90762 0.78018 0.81701 0.0
C152 C 0.71832 0.83177 0.83297 0.0
C153 C 0.69074 0.62931 0.84543 0.0
C154 C 0.7013 0.63807 0.86803 0.0
C155 C 0.72906 0.6826 0.83115 0.0
C156 C 0.77962 0.74651 0.83959 0.0
C157 C 0.79364 0.75445 0.86224 0.0
C158 C 0.75437 0.70019 0.87619 0.0
C159 C 0.7125 0.67159 0.80714 0.0
C160 C 0.84751 0.82149 0.87192 0.0
H161 H 0.95137 0.89067 0.79205 0.0
H162 H 0.79209 0.93437 0.80583 0.0
H163 H 0.92055 0.78063 0.83441 0.0
H164 H 0.87187 0.72659 0.81218 0.0
H165 H 0.95476 0.79904 0.80731 0.0
H166 H 0.70155 0.86824 0.82873 0.0
H167 H 0.67721 0.77981 0.8284 0.0
H168 H 0.72523 0.8333 0.85085 0.0
H169 H 0.6502 0.5815 0.83888 0.0
H170 H 0.76306 0.70771 0.89359 0.0
H171 H 0.75954 0.68924 0.79754 0.0
H172 H 0.68913 0.70186 0.80218 0.0
H173 H 0.67665 0.61742 0.80291 0.0
H174 H 0.89582 0.84098 0.86287 0.0
H175 H 0.85741 0.81746 0.88935 0.0
H176 H 0.83095 0.85943 0.87049 0.0
C177 C 0.06464 0.8838 0.12595 0.0
C178 C 0.02138 0.91064 0.12811 0.0
C179 C 0.06129 0.83527 0.14054 0.0
C180 C 0.01363 0.81306 0.15772 0.0
C181 C 0.96734 0.83718 0.15919 0.0
C182 C 0.97176 0.88553 0.1444 0.0
C183 C 0.11138 0.81067 0.13828 0.0
C184 C 0.9158 0.81517 0.17721 0.0
C185 C 0.98755 0.66334 0.1921 0.0
C186 C 0.0336 0.69711 0.20925 0.0
C187 C 0.97991 0.70014 0.17518 0.0
C188 C 0.01831 0.77217 0.1757 0.0
C189 C 0.06272 0.80614 0.19349 0.0
C190 C 0.07016 0.7683 0.20986 0.0
C191 C 0.93244 0.66206 0.15644 0.0
C192 C 0.10358 0.88272 0.19507 0.0
H193 H 0.10297 0.90264 0.11339 0.0
H194 H 0.93774 0.90554 0.14616 0.0
H195 H 0.14894 0.832 0.15183 0.0
H196 H 0.08487 0.75457 0.13933 0.0
H197 H 0.13934 0.82602 0.12268 0.0
H198 H 0.8781 0.83169 0.17455 0.0
H199 H 0.88824 0.75918 0.17872 0.0
H200 H 0.94241 0.83733 0.19291 0.0
H201 H 0.95961 0.60834 0.19147 0.0
H202 H 0.10539 0.79474 0.22318 0.0
H203 H 0.96209 0.67222 0.14125 0.0
H204 H 0.89585 0.68003 0.15404 0.0
H205 H 0.90355 0.6064 0.15896 0.0
H206 H 0.13892 0.9029 0.18115 0.0
H207 H 0.1338 0.90128 0.21038 0.0
H208 H 0.06924 0.90394 0.19422 0.0
C209 C 0.1984 0.11898 0.47447 0.0
C210 C 0.18556 0.07115 0.45782 0.0
C211 C 0.24907 0.13437 0.49034 0.0
C212 C 0.28834 0.10199 0.48926 0.0
C213 C 0.27953 0.0586 0.47128 0.0
C214 C 0.2278 0.04311 0.45598 0.0
C215 C 0.25646 0.1807 0.50922 0.0
C216 C 0.32095 0.02394 0.46913 0.0
C217 C 0.43817 0.14231 0.52705 0.0
C218 C 0.40722 0.08811 0.54144 0.0
C219 C 0.39977 0.14998 0.51046 0.0
C220 C 0.32899 0.10279 0.50848 0.0
C221 C 0.29727 0.05075 0.52391 0.0
C222 C 0.33671 0.04393 0.54003 0.0
C223 C 0.43555 0.20616 0.49438 0.0
C224 C 0.22196 0.99972 0.52276 0.0
H225 H 0.16569 0.14059 0.476 0.0
H226 H 0.21848 0.00664 0.44299 0.0
H227 H 0.23195 0.14973 0.52374 0.0
H228 H 0.31085 0.21552 0.51332 0.0
H229 H 0.23208 0.21125 0.50577 0.0
H230 H 0.31539 1.00037 0.45275 0.0
H231 H 0.37561 0.06058 0.47226 0.0
H232 H 0.30397 0.98357 0.4814 0.0
H233 H 0.49267 0.17655 0.52806 0.0
H234 H 0.31224 1.00252 0.55131 0.0
H235 H 0.40587 0.23167 0.49136 0.0
H236 H 0.43995 0.18433 0.47864 0.0
H237 H 0.48745 0.24468 0.50006 0.0
H238 H 0.19234 0.02605 0.52165 0.0
H239 H 0.20417 0.96631 0.5371 0.0
H240 H 0.21055 0.96731 0.50792 0.0
C241 C 0.21122 0.22305 0.79883 0.0
C242 C 0.14437 0.20856 0.80234 0.0
C243 C 0.26422 0.26619 0.81326 0.0
C244 C 0.24969 0.29427 0.83183 0.0
C245 C 0.18223 0.27939 0.83547 0.0
C246 C 0.13073 0.23732 0.82065 0.0
C247 C 0.3357 0.28156 0.80869 0.0
C248 C 0.16406 0.30676 0.8553 0.0
C249 C 0.36663 0.34229 0.88105 0.0
C250 C 0.40391 0.41336 0.88015 0.0
C251 C 0.31644 0.30322 0.86548 0.0
C252 C 0.30385 0.3358 0.84824 0.0
C253 C 0.34116 0.4077 0.84725 0.0
C254 C 0.39037 0.44577 0.86338 0.0
C255 C 0.27675 0.22695 0.86753 0.0
C256 C 0.32972 0.44422 0.82898 0.0
H257 H 0.22229 0.20152 0.78466 0.0
H258 H 0.07915 0.22604 0.82365 0.0
H259 H 0.37082 0.33728 0.80845 0.0
H260 H 0.35339 0.26136 0.82184 0.0
H261 H 0.33936 0.25915 0.79293 0.0
H262 H 0.10937 0.29147 0.85554 0.0
H263 H 0.176 0.28807 0.87024 0.0
H264 H 0.19489 0.36297 0.85591 0.0
H265 H 0.37666 0.317 0.89407 0.0
H266 H 0.41965 0.50063 0.8625 0.0
H267 H 0.28419 0.20254 0.85288 0.0
H268 H 0.22158 0.20895 0.86861 0.0
H269 H 0.29219 0.20959 0.88208 0.0
H270 H 0.3383 0.42595 0.81312 0.0
H271 H 0.36391 0.50011 0.83023 0.0
H272 H 0.27625 0.43281 0.82901 0.0
C273 C 0.86793 0.02047 0.69767 0.0
C274 C 0.89732 0.06412 0.71572 0.0
C275 C 0.82309 0.02733 0.68362 0.0
C276 C 0.80688 0.07888 0.68776 0.0
C277 C 0.8363 0.12296 0.706 0.0
C278 C 0.88115 0.11512 0.71972 0.0
C279 C 0.79279 0.97916 0.66438 0.0
C280 C 0.82 0.17814 0.71112 0.0
C281 C 0.72774 0.1238 0.64079 0.0
C282 C 0.6582 0.08235 0.64497 0.0
C283 C 0.77709 0.12483 0.65489 0.0
C284 C 0.75624 0.08401 0.67366 0.0
C285 C 0.68615 0.04507 0.67849 0.0
C286 C 0.63818 0.04453 0.66407 0.0
C287 C 0.85132 0.167 0.64917 0.0
C288 C 0.66148 1.00152 0.69841 0.0
H289 H 0.88045 0.98125 0.69437 0.0
H290 H 0.90377 0.14925 0.7336 0.0
H291 H 0.73663 0.94918 0.66588 0.0
H292 H 0.8042 0.00817 0.64915 0.0
H293 H 0.8124 0.94348 0.66294 0.0
H294 H 0.84853 0.20945 0.72556 0.0
H295 H 0.83225 0.21187 0.697 0.0
H296 H 0.76475 0.15526 0.7142 0.0
H297 H 0.74348 0.15256 0.62595 0.0
H298 H 0.58446 0.01262 0.66746 0.0
H299 H 0.87172 0.13306 0.64519 0.0
H300 H 0.88099 0.19939 0.66326 0.0
H301 H 0.8596 0.19994 0.63505 0.0
H302 H 0.6738 0.96036 0.69701 0.0
H303 H 0.60572 0.97814 0.70065 0.0
H304 H 0.68778 0.03215 0.71318 0.0
C305 C 0.82544 0.96524 0.04452 0.0
C306 C 0.88593 0.96623 0.0499 0.0
C307 C 0.77625 0.91447 0.03072 0.0
C308 C 0.78814 0.86395 0.02168 0.0
C309 C 0.84933 0.86496 0.02688 0.0
C310 C 0.89709 0.91559 0.04108 0.0
C311 C 0.71118 0.91447 0.026 0.0
C312 C 0.86446 0.81258 0.01739 0.0
C313 C 0.64155 0.69267 1.0027 0.0
C314 C 0.64366 0.69936 0.98003 0.0
C315 C 0.68658 0.74655 0.01644 0.0
C316 C 0.73578 0.80872 1.00733 0.0
C317 C 0.73647 0.81678 0.9845 0.0
C318 C 0.69008 0.76214 0.97112 0.0
C319 C 0.68307 0.736 0.04068 0.0
C320 C 0.78833 0.88205 0.97411 0.0
H321 H 0.81606 0.00385 0.05134 0.0
H322 H 0.94382 0.91619 0.04498 0.0
H323 H 0.70522 0.91762 0.00824 0.0
H324 H 0.66691 0.86621 0.0314 0.0
H325 H 0.70969 0.95738 0.03425 0.0
H326 H 0.91537 0.82182 0.02238 0.0
H327 H 0.82545 0.76122 0.02267 0.0
H328 H 0.86208 0.81265 0.99938 0.0
H329 H 0.60568 0.64441 0.00974 0.0
H330 H 0.69253 0.76756 0.95362 0.0
H331 H 0.68007 0.77744 0.04934 0.0
H332 H 0.73003 0.73752 0.04639 0.0
H333 H 0.6386 0.68666 0.04531 0.0
H334 H 0.78699 0.9258 0.9817 0.0
H335 H 0.77976 0.88174 0.95633 0.0
H336 H 0.84009 0.89017 0.97689 0.0
C337 C 0.11846 0.99098 0.36173 0.0
C338 C 0.07269 0.96381 0.37901 0.0
C339 C 0.12748 0.94853 0.34693 0.0
C340 C 0.09015 0.87726 0.34956 0.0
C341 C 0.04732 0.85007 0.36781 0.0
C342 C 0.03888 0.8936 0.38224 0.0
C343 C 0.1736 0.97969 0.32772 0.0
C344 C 0.00702 0.77452 0.37138 0.0
C345 C 0.03013 0.76165 0.29963 0.0
C346 C 0.0725 0.73346 0.29968 0.0
C347 C 0.03703 0.80986 0.31534 0.0
C348 C 0.08761 0.83076 0.33173 0.0
C349 C 0.13241 0.80451 0.33148 0.0
C350 C 0.12444 0.75615 0.31538 0.0
C351 C 0.98845 0.83673 0.3148 0.0
C352 C 0.18703 0.82567 0.34864 0.0
H353 H 0.14508 0.04525 0.35919 0.0
H354 H 0.00403 0.87226 0.3957 0.0
H355 H 0.20669 0.9574 0.32537 0.0
H356 H 0.14232 0.9685 0.31275 0.0
H357 H 0.20619 0.03564 0.32963 0.0
H358 H 0.98309 0.76214 0.38767 0.0
H359 H 0.96626 0.75013 0.35885 0.0
H360 H 0.04013 0.75203 0.36967 0.0
H361 H 0.99032 0.74506 0.28741 0.0
H362 H 0.15726 0.7345 0.31555 0.0
H363 H 0.01717 0.89301 0.31469 0.0
H364 H 0.95668 0.82118 0.32962 0.0
H365 H 0.95418 0.81788 0.30035 0.0
H366 H 0.21757 0.88182 0.35009 0.0
H367 H 0.22166 0.80576 0.34506 0.0
H368 H 0.16311 0.80655 0.36465 0.0
C369 C 0.1587 0.98772 0.71398 0.0
C370 C 0.16489 0.05157 0.71748 0.0
C371 C 0.19772 0.97793 0.69813 0.0
C372 C 0.24536 0.0337 0.68585 0.0
C373 C 0.25415 0.09896 0.69011 0.0
C374 C 0.21314 0.10689 0.70563 0.0
C375 C 0.18547 0.90731 0.69378 0.0
C376 C 0.30563 0.1602 0.67783 0.0
C377 C 0.3854 0.02767 0.65351 0.0
C378 C 0.36218 0.02357 0.63216 0.0
C379 C 0.3469 0.02863 0.67131 0.0
C380 C 0.28301 0.0236 0.66759 0.0
C381 C 0.25745 0.01442 0.64604 0.0
C382 C 0.29802 0.01603 0.62857 0.0
C383 C 0.37692 0.04016 0.6939 0.0
C384 C 0.18873 0.00653 0.64132 0.0
H385 H 0.121 0.94455 0.72293 0.0
H386 H 0.2183 0.15636 0.70831 0.0
H387 H 0.16332 0.88994 0.67725 0.0
H388 H 0.23413 0.90725 0.6942 0.0
H389 H 0.15024 0.87027 0.70573 0.0
H390 H 0.31098 0.2082 0.68451 0.0
H391 H 0.3561 0.16385 0.67835 0.0
H392 H 0.29 0.15491 0.6605 0.0
H393 H 0.43585 0.03524 0.65623 0.0
H394 H 0.2806 0.01378 0.61201 0.0
H395 H 0.33931 0.0033 0.70535 0.0
H396 H 0.39041 0.09169 0.69984 0.0
H397 H 0.42342 0.0359 0.69433 0.0
H398 H 0.14959 0.96811 0.65208 0.0
H399 H 0.17263 0.99114 0.62413 0.0
H400 H 0.1906 0.05538 0.64464 0.0
C401 C 0.23059 0.18074 0.04282 0.0
C402 C 0.20245 0.21717 0.05247 0.0
C403 C 0.28328 0.21127 0.02747 0.0
C404 C 0.30851 0.27978 0.02172 0.0
C405 C 0.28315 0.31775 0.03248 0.0
C406 C 0.23063 0.28608 0.04761 0.0
C407 C 0.30918 0.16911 0.01654 0.0
C408 C 0.30865 0.39104 0.02708 0.0
C409 C 0.46631 0.39155 0.98832 0.0
C410 C 0.43626 0.39217 0.96852 0.0
C411 C 0.42603 0.35096 1.00553 0.0
C412 C 0.35449 0.31002 1.00269 0.0
C413 C 0.32532 0.30628 0.98202 0.0
C414 C 0.36644 0.34768 0.96531 0.0
C415 C 0.45931 0.3562 0.02721 0.0
C416 C 0.24963 0.26295 0.97804 0.0
H417 H 0.20944 0.12757 0.04649 0.0
H418 H 0.21019 0.31516 0.05521 0.0
H419 H 0.28897 0.1562 0.99966 0.0
H420 H 0.3655 0.19809 0.01556 0.0
H421 H 0.2932 0.12113 0.02522 0.0
H422 H 0.28843 0.41521 0.03829 0.0
H423 H 0.36502 0.42072 0.02782 0.0
H424 H 0.29302 0.39405 0.01025 0.0
H425 H 0.52021 0.42635 0.99091 0.0
H426 H 0.34319 0.34786 0.94995 0.0
H427 H 0.43775 0.30554 0.03463 0.0
H428 H 0.44934 0.38867 0.03845 0.0
H429 H 0.51525 0.37894 0.02573 0.0
H430 H 0.23023 0.21111 0.98428 0.0
H431 H 0.23627 0.25894 0.9605 0.0
H432 H 0.223 0.28547 0.98688 0.0
C433 C 0.93987 0.17178 0.37154 0.0
C434 C 0.99594 0.19559 0.38572 0.0
C435 C 0.93202 0.21608 0.3578 0.0
C436 C 0.98199 0.28593 0.35792 0.0
C437 C 0.03783 0.31057 0.3726 0.0
C438 C 0.04384 0.26523 0.38643 0.0
C439 C 0.87106 0.18778 0.34275 0.0
C440 C 0.09269 0.38446 0.37313 0.0
C441 C 0.00553 0.38624 0.30647 0.0
C442 C 0.97796 0.42695 0.31249 0.0
C443 C 0.00676 0.34 0.32104 0.0
C444 C 0.97784 0.33256 0.34194 0.0
C445 C 0.9469 0.37113 0.34769 0.0
C446 C 0.94839 0.41868 0.33306 0.0
C447 C 0.04164 0.30116 0.31435 0.0
C448 C 0.9135 0.36323 0.3695 0.0
H449 H 0.9024 0.11808 0.37093 0.0
H450 H 0.08746 0.28404 0.39724 0.0
H451 H 0.8449 0.2175 0.34455 0.0
H452 H 0.88787 0.19214 0.32563 0.0
H453 H 0.83395 0.1336 0.3459 0.0
H454 H 0.13159 0.39606 0.38594 0.0
H455 H 0.11838 0.39835 0.35714 0.0
H456 H 0.07003 0.41698 0.37601 0.0
H457 H 0.02939 0.393 0.29073 0.0
H458 H 0.92704 0.45001 0.3378 0.0
H459 H 0.00602 0.24582 0.31566 0.0
H460 H 0.0851 0.31459 0.3255 0.0
H461 H 0.06092 0.31203 0.29745 0.0
H462 H 0.87638 0.30893 0.37236 0.0
H463 H 0.88673 0.39254 0.37078 0.0
H464 H 0.95242 0.38089 0.38262 0.0
loop_
_geom_bond_atom_site_label_1
_geom_bond_atom_site_label_2
_geom_bond_distance
_geom_bond_site_symmetry_2
_ccdc_geom_bond_type
Co0 O1 2.216 1_445 S
Co0 O2 2.091 . S
Co0 O4 2.004 . S
Co0 O10 2.021 1_445 S
Co0 O12 2.137 . S
Co0 O13 2.244 1_455 S
O1 Co0 2.216 1_665 S
O1 C8 1.247 1_655 S
O2 Co0 2.091 . S
O2 C8 1.261 1_545 S
C3 O12 1.247 . S
C3 O13 1.272 1_455 S
O4 Co0 2.004 . S
O4 C9 1.259 . S
Co5 O6 2.061 1_655 S
Co5 O11 2.052 . S
Co5 O13 2.135 . S
O6 Co5 2.061 1_455 S
O6 C9 1.235 . S
C7 O10 1.238 . S
C7 O11 1.241 1_565 S
C8 O1 1.247 1_455 S
C8 O2 1.261 1_565 S
C9 O4 1.259 . S
C9 O6 1.235 . S
O10 Co0 2.021 1_665 S
O10 C7 1.238 . S
O11 Co5 2.052 . S
O11 C7 1.241 1_545 S
O12 Co0 2.137 . S
O12 C3 1.247 . S
O13 Co0 2.244 1_655 S
O13 C3 1.272 1_655 S
O13 Co5 2.135 . S
Co14 O15 2.216 . S
Co14 O16 2.091 . S
Co14 O18 2.004 . S
Co14 O24 2.021 . S
Co14 O26 2.137 . S
Co14 O27 2.244 1_545 S
O15 Co14 2.216 . S
O15 C22 1.247 . S
O16 Co14 2.091 . S
O16 C22 1.261 . S
C17 O26 1.247 1_565 S
C17 O27 1.272 . S
O18 Co14 2.004 . S
O18 C23 1.259 . S
Co19 O20 2.061 1_665 S
Co19 O25 2.052 . S
Co19 O27 2.135 1_655 S
O20 Co19 2.061 1_445 S
O20 C23 1.235 . S
C21 O24 1.238 1_655 S
C21 O25 1.241 1_545 S
C22 O15 1.247 . S
C22 O16 1.261 . S
C23 O18 1.259 . S
C23 O20 1.235 . S
O24 Co14 2.021 . S
O24 C21 1.238 1_455 S
O25 Co19 2.052 . S
O25 C21 1.241 1_565 S
O26 Co14 2.137 . S
O26 C17 1.247 1_545 S
O27 Co14 2.244 1_565 S
O27 C17 1.272 . S
O27 Co19 2.135 1_455 S
Co28 O29 2.216 . S
Co28 O30 2.091 1_545 S
Co28 O32 2.004 1_445 S
Co28 O38 2.021 . S
Co28 O40 2.137 1_455 S
Co28 O41 2.244 1_455 S
O29 Co28 2.216 . S
O29 C36 1.247 . S
O30 Co28 2.091 1_565 S
O30 C36 1.261 1_565 S
C31 O40 1.247 . S
C31 O41 1.272 . S
O32 Co28 2.004 1_665 S
O32 C37 1.259 . S
Co33 O34 2.061 . S
Co33 O39 2.052 1_655 S
Co33 O41 2.135 . S
O34 Co33 2.061 . S
O34 C37 1.235 1_545 S
C35 O38 1.238 . S
C35 O39 1.241 . S
C36 O29 1.247 . S
C36 O30 1.261 1_545 S
C37 O32 1.259 . S
C37 O34 1.235 1_565 S
O38 Co28 2.021 . S
O38 C35 1.238 . S
O39 Co33 2.052 1_455 S
O39 C35 1.241 . S
O40 Co28 2.137 1_655 S
O40 C31 1.247 . S
O41 Co28 2.244 1_655 S
O41 C31 1.272 . S
O41 Co33 2.135 . S
Mg42 O49 2.141 . S
Mg42 O50 2.048 . S
Mg42 O51 2.048 . S
Mg42 O54 2.141 . S
C43 O44 1.313 1_455 S
C43 O50 1.195 . S
O44 C43 1.313 1_655 S
C45 O46 1.245 1_455 S
C45 O54 1.289 . S
O46 C45 1.245 1_655 S
C47 O48 1.245 1_455 S
C47 O49 1.289 . S
O48 C47 1.245 1_655 S
O49 Mg42 2.141 . S
O49 C47 1.289 . S
O50 Mg42 2.048 . S
O50 C43 1.195 . S
O51 Mg42 2.048 . S
O51 C52 1.195 . S
C52 O51 1.195 . S
C52 O53 1.313 1_455 S
O53 C52 1.313 1_655 S
O54 Mg42 2.141 . S
O54 C45 1.289 . S
Mg55 O62 2.141 . S
Mg55 O63 2.048 . S
Mg55 O64 2.048 . S
Mg55 O67 2.141 . S
C56 O57 1.313 1_545 S
C56 O63 1.195 . S
O57 C56 1.313 1_565 S
C58 O59 1.245 1_545 S
C58 O67 1.289 . S
O59 C58 1.245 1_565 S
C60 O61 1.245 1_545 S
C60 O62 1.289 . S
O61 C60 1.245 1_565 S
O62 Mg55 2.141 . S
O62 C60 1.289 . S
O63 Mg55 2.048 . S
O63 C56 1.195 . S
O64 Mg55 2.048 . S
O64 C65 1.195 . S
C65 O64 1.195 . S
C65 O66 1.313 1_545 S
O66 C65 1.313 1_565 S
O67 Mg55 2.141 . S
O67 C58 1.289 . S
Mg68 O75 2.141 . S
Mg68 O76 2.048 . S
Mg68 O77 2.048 . S
Mg68 O80 2.141 . S
C69 O70 1.313 . S
C69 O76 1.195 . S
O70 C69 1.313 . S
C71 O72 1.245 . S
C71 O80 1.289 . S
O72 C71 1.245 . S
C73 O74 1.245 . S
C73 O75 1.289 . S
O74 C73 1.245 . S
O75 Mg68 2.141 . S
O75 C73 1.289 . S
O76 Mg68 2.048 . S
O76 C69 1.195 . S
O77 Mg68 2.048 . S
O77 C78 1.195 . S
C78 O77 1.195 . S
C78 O79 1.313 . S
O79 C78 1.313 . S
O80 Mg68 2.141 . S
O80 C71 1.289 . S
C81 C82 1.391 . S
C81 C83 1.394 . S
C81 H97 0.931 . S
C82 C81 1.391 . S
C82 C86 1.376 . S
C83 C81 1.394 . S
C83 C84 1.369 . S
C83 C87 1.531 . S
C84 C83 1.369 . S
C84 C85 1.410 . S
C84 C92 1.503 . S
C85 C84 1.410 . S
C85 C86 1.392 . S
C85 C88 1.511 1_455 S
C86 C82 1.376 . S
C86 C85 1.392 . S
C86 H98 0.929 1_455 S
C87 C83 1.531 . S
C87 H99 0.960 . S
C87 H100 0.962 . S
C87 H101 0.960 . S
C88 C85 1.511 1_655 S
C88 H102 0.961 . S
C88 H103 0.961 . S
C88 H104 0.961 1_655 S
C89 C90 1.370 1_655 S
C89 C91 1.363 . S
C89 H105 0.931 . S
C90 C89 1.370 1_455 S
C90 C94 1.408 . S
C91 C89 1.363 . S
C91 C92 1.370 1_655 S
C91 C95 1.524 . S
C92 C84 1.503 . S
C92 C91 1.370 1_455 S
C92 C93 1.403 . S
C93 C92 1.403 . S
C93 C94 1.404 . S
C93 C96 1.539 . S
C94 C90 1.408 . S
C94 C93 1.404 . S
C94 H106 0.930 . S
C95 C91 1.524 . S
C95 H107 0.956 . S
C95 H108 0.961 . S
C95 H109 0.961 . S
C96 C93 1.539 . S
C96 H110 0.958 . S
C96 H111 0.961 . S
C96 H112 0.960 . S
H97 C81 0.931 . S
H98 C86 0.929 1_655 S
H99 C87 0.960 . S
H100 C87 0.962 . S
H101 C87 0.960 . S
H102 C88 0.961 . S
H103 C88 0.961 . S
H104 C88 0.961 1_455 S
H105 C89 0.931 . S
H106 C94 0.930 . S
H107 C95 0.956 . S
H108 C95 0.961 . S
H109 C95 0.961 . S
H110 C96 0.958 . S
H111 C96 0.961 . S
H112 C96 0.960 . S
C113 C114 1.391 . S
C113 C115 1.394 . S
C113 H129 0.931 1_545 S
C114 C113 1.391 . S
C114 C118 1.376 . S
C115 C113 1.394 . S
C115 C116 1.369 . S
C115 C119 1.531 1_545 S
C116 C115 1.369 . S
C116 C117 1.410 . S
C116 C124 1.503 . S
C117 C116 1.410 . S
C117 C118 1.392 . S
C117 C120 1.511 . S
C118 C114 1.376 . S
C118 C117 1.392 . S
C118 H130 0.929 . S
C119 C115 1.531 1_565 S
C119 H131 0.960 . S
C119 H132 0.962 . S
C119 H133 0.960 . S
C120 C117 1.511 . S
C120 H134 0.961 . S
C120 H135 0.961 . S
C120 H136 0.961 . S
C121 C122 1.370 . S
C121 C123 1.363 . S
C121 H137 0.931 . S
C122 C121 1.370 . S
C122 C126 1.408 . S
C123 C121 1.363 . S
C123 C124 1.370 . S
C123 C127 1.524 . S
C124 C116 1.503 . S
C124 C123 1.370 . S
C124 C125 1.397 1_545 S
C125 C124 1.397 1_565 S
C125 C126 1.400 1_565 S
C125 C128 1.548 . S
C126 C122 1.408 . S
C126 C125 1.400 1_545 S
C126 H138 0.930 1_545 S
C127 C123 1.524 . S
C127 H139 0.956 . S
C127 H140 0.961 . S
C127 H141 0.961 . S
C128 C125 1.548 . S
C128 H142 0.958 . S
C128 H143 0.961 . S
C128 H144 0.960 . S
H129 C113 0.931 1_565 S
H130 C118 0.929 . S
H131 C119 0.960 . S
H132 C119 0.962 . S
H133 C119 0.960 . S
H134 C120 0.961 . S
H135 C120 0.961 . S
H136 C120 0.961 . S
H137 C121 0.931 . S
H138 C126 0.930 1_565 S
H139 C127 0.956 . S
H140 C127 0.961 . S
H141 C127 0.961 . S
H142 C128 0.958 . S
H143 C128 0.961 . S
H144 C128 0.960 . S
C145 C146 1.391 . S
C145 C147 1.394 . S
C145 H161 0.931 . S
C146 C145 1.391 . S
C146 C150 1.376 . S
C147 C145 1.394 . S
C147 C148 1.369 . S
C147 C151 1.531 . S
C148 C147 1.369 . S
C148 C149 1.410 . S
C148 C156 1.503 . S
C149 C148 1.410 . S
C149 C150 1.392 . S
C149 C152 1.511 . S
C150 C146 1.376 . S
C150 C149 1.392 . S
C150 H162 0.929 . S
C151 C147 1.531 . S
C151 H163 0.960 . S
C151 H164 0.962 . S
C151 H165 0.960 . S
C152 C149 1.511 . S
C152 H166 0.961 . S
C152 H167 0.961 . S
C152 H168 0.961 . S
C153 C154 1.370 . S
C153 C155 1.363 . S
C153 H169 0.931 . S
C154 C153 1.370 . S
C154 C158 1.408 . S
C155 C153 1.363 . S
C155 C156 1.370 . S
C155 C159 1.524 . S
C156 C148 1.503 . S
C156 C155 1.370 . S
C156 C157 1.403 . S
C157 C156 1.403 . S
C157 C158 1.404 . S
C157 C160 1.539 . S
C158 C154 1.408 . S
C158 C157 1.404 . S
C158 H170 0.930 . S
C159 C155 1.524 . S
C159 H171 0.956 . S
C159 H172 0.961 . S
C159 H173 0.961 . S
C160 C157 1.539 . S
C160 H174 0.958 . S
C160 H175 0.961 . S
C160 H176 0.960 . S
H161 C145 0.931 . S
H162 C150 0.929 . S
H163 C151 0.960 . S
H164 C151 0.962 . S
H165 C151 0.960 . S
H166 C152 0.961 . S
H167 C152 0.961 . S
H168 C152 0.961 . S
H169 C153 0.931 . S
H170 C158 0.930 . S
H171 C159 0.956 . S
H172 C159 0.961 . S
H173 C159 0.961 . S
H174 C160 0.958 . S
H175 C160 0.961 . S
H176 C160 0.960 . S
C177 C178 1.391 . S
C177 C179 1.394 . S
C177 H193 0.931 . S
C178 C177 1.391 . S
C178 C182 1.376 1_455 S
C179 C177 1.394 . S
C179 C180 1.369 . S
C179 C183 1.531 . S
C180 C179 1.369 . S
C180 C181 1.410 1_455 S
C180 C188 1.503 . S
C181 C180 1.410 1_655 S
C181 C182 1.392 . S
C181 C184 1.511 . S
C182 C178 1.376 1_655 S
C182 C181 1.392 . S
C182 H194 0.929 . S
C183 C179 1.531 . S
C183 H195 0.960 . S
C183 H196 0.962 . S
C183 H197 0.960 . S
C184 C181 1.511 . S
C184 H198 0.961 . S
C184 H199 0.961 . S
C184 H200 0.961 . S
C185 C186 1.370 . S
C185 C187 1.363 . S
C185 H201 0.931 . S
C186 C185 1.370 . S
C186 C190 1.408 1_455 S
C187 C185 1.363 . S
C187 C188 1.370 . S
C187 C191 1.524 . S
C188 C180 1.503 . S
C188 C187 1.370 . S
C188 C189 1.403 1_455 S
C189 C188 1.403 1_655 S
C189 C190 1.404 . S
C189 C192 1.539 . S
C190 C186 1.408 1_655 S
C190 C189 1.404 . S
C190 H202 0.930 . S
C191 C187 1.524 . S
C191 H203 0.956 . S
C191 H204 0.961 . S
C191 H205 0.961 . S
C192 C189 1.539 . S
C192 H206 0.958 . S
C192 H207 0.961 . S
C192 H208 0.960 . S
H193 C177 0.931 . S
H194 C182 0.929 . S
H195 C183 0.960 . S
H196 C183 0.962 . S
H197 C183 0.960 . S
H198 C184 0.961 . S
H199 C184 0.961 . S
H200 C184 0.961 . S
H201 C185 0.931 . S
H202 C190 0.930 . S
H203 C191 0.956 . S
H204 C191 0.961 . S
H205 C191 0.961 . S
H206 C192 0.958 . S
H207 C192 0.961 . S
H208 C192 0.960 . S
C209 C210 1.391 . S
C209 C211 1.394 . S
C209 H225 0.931 . S
C210 C209 1.391 . S
C210 C214 1.376 . S
C211 C209 1.394 . S
C211 C212 1.369 . S
C211 C215 1.531 . S
C212 C211 1.369 . S
C212 C213 1.410 . S
C212 C220 1.503 . S
C213 C212 1.410 . S
C213 C214 1.392 . S
C213 C216 1.511 . S
C214 C210 1.376 . S
C214 C213 1.392 . S
C214 H226 0.929 . S
C215 C211 1.531 . S
C215 H227 0.960 . S
C215 H228 0.962 . S
C215 H229 0.960 . S
C216 C213 1.511 . S
C216 H230 0.961 . S
C216 H231 0.961 . S
C216 H232 0.961 1_545 S
C217 C218 1.370 . S
C217 C219 1.363 . S
C217 H233 0.931 . S
C218 C217 1.370 . S
C218 C222 1.408 1_545 S
C219 C217 1.363 . S
C219 C220 1.370 . S
C219 C223 1.524 . S
C220 C212 1.503 . S
C220 C219 1.370 . S
C220 C221 1.403 1_545 S
C221 C220 1.403 1_565 S
C221 C222 1.404 . S
C221 C224 1.539 . S
C222 C218 1.408 1_565 S
C222 C221 1.404 . S
C222 H234 0.930 . S
C223 C219 1.524 . S
C223 H235 0.956 . S
C223 H236 0.961 . S
C223 H237 0.961 . S
C224 C221 1.539 . S
C224 H238 0.958 . S
C224 H239 0.961 . S
C224 H240 0.960 . S
H225 C209 0.931 . S
H226 C214 0.929 . S
H227 C215 0.960 . S
H228 C215 0.962 . S
H229 C215 0.960 . S
H230 C216 0.961 . S
H231 C216 0.961 . S
H232 C216 0.961 1_565 S
H233 C217 0.931 . S
H234 C222 0.930 . S
H235 C223 0.956 . S
H236 C223 0.961 . S
H237 C223 0.961 . S
H238 C224 0.958 . S
H239 C224 0.961 . S
H240 C224 0.960 . S
C241 C242 1.391 . S
C241 C243 1.394 . S
C241 H257 0.931 . S
C242 C241 1.391 . S
C242 C246 1.376 . S
C243 C241 1.394 . S
C243 C244 1.369 . S
C243 C247 1.531 . S
C244 C243 1.369 . S
C244 C245 1.410 . S
C244 C252 1.503 . S
C245 C244 1.410 . S
C245 C246 1.392 . S
C245 C248 1.511 . S
C246 C242 1.376 . S
C246 C245 1.392 . S
C246 H258 0.929 . S
C247 C243 1.531 . S
C247 H259 0.960 . S
C247 H260 0.962 . S
C247 H261 0.960 . S
C248 C245 1.511 . S
C248 H262 0.961 . S
C248 H263 0.961 . S
C248 H264 0.961 . S
C249 C250 1.370 . S
C249 C251 1.363 . S
C249 H265 0.931 . S
C250 C249 1.370 . S
C250 C254 1.408 . S
C251 C249 1.363 . S
C251 C252 1.370 . S
C251 C255 1.524 . S
C252 C244 1.503 . S
C252 C251 1.370 . S
C252 C253 1.403 . S
C253 C252 1.403 . S
C253 C254 1.404 . S
C253 C256 1.539 . S
C254 C250 1.408 . S
C254 C253 1.404 . S
C254 H266 0.930 . S
C255 C251 1.524 . S
C255 H267 0.956 . S
C255 H268 0.961 . S
C255 H269 0.961 . S
C256 C253 1.539 . S
C256 H270 0.958 . S
C256 H271 0.961 . S
C256 H272 0.960 . S
H257 C241 0.931 . S
H258 C246 0.929 . S
H259 C247 0.960 . S
H260 C247 0.962 . S
H261 C247 0.960 . S
H262 C248 0.961 . S
H263 C248 0.961 . S
H264 C248 0.961 . S
H265 C249 0.931 . S
H266 C254 0.930 . S
H267 C255 0.956 . S
H268 C255 0.961 . S
H269 C255 0.961 . S
H270 C256 0.958 . S
H271 C256 0.961 . S
H272 C256 0.960 . S
C273 C274 1.391 1_565 S
C273 C275 1.394 . S
C273 H289 0.931 . S
C274 C273 1.391 1_545 S
C274 C278 1.376 . S
C275 C273 1.394 . S
C275 C276 1.369 1_565 S
C275 C279 1.531 . S
C276 C275 1.369 1_545 S
C276 C277 1.410 . S
C276 C284 1.503 . S
C277 C276 1.410 . S
C277 C278 1.392 . S
C277 C280 1.511 . S
C278 C274 1.376 . S
C278 C277 1.392 . S
C278 H290 0.929 . S
C279 C275 1.531 . S
C279 H291 0.960 . S
C279 H292 0.962 . S
C279 H293 0.960 . S
C280 C277 1.511 . S
C280 H294 0.961 . S
C280 H295 0.961 . S
C280 H296 0.961 . S
C281 C282 1.370 . S
C281 C283 1.363 . S
C281 H297 0.931 . S
C282 C281 1.370 . S
C282 C286 1.408 . S
C283 C281 1.363 . S
C283 C284 1.370 . S
C283 C287 1.524 . S
C284 C276 1.503 . S
C284 C283 1.370 . S
C284 C285 1.403 . S
C285 C284 1.403 . S
C285 C286 1.404 . S
C285 C288 1.539 1_545 S
C286 C282 1.408 . S
C286 C285 1.404 . S
C286 H298 0.930 1_545 S
C287 C283 1.524 . S
C287 H299 0.956 . S
C287 H300 0.961 . S
C287 H301 0.961 . S
C288 C285 1.539 1_565 S
C288 H302 0.958 . S
C288 H303 0.961 . S
C288 H304 0.960 1_565 S
H289 C273 0.931 . S
H290 C278 0.929 . S
H291 C279 0.960 . S
H292 C279 0.962 . S
H293 C279 0.960 . S
H294 C280 0.961 . S
H295 C280 0.961 . S
H296 C280 0.961 . S
H297 C281 0.931 . S
H298 C286 0.930 1_565 S
H299 C287 0.956 . S
H300 C287 0.961 . S
H301 C287 0.961 . S
H302 C288 0.958 . S
H303 C288 0.961 . S
H304 C288 0.960 1_545 S
C305 C306 1.391 . S
C305 C307 1.394 . S
C305 H321 0.931 . S
C306 C305 1.391 . S
C306 C310 1.376 . S
C307 C305 1.394 . S
C307 C308 1.369 . S
C307 C311 1.531 . S
C308 C307 1.369 . S
C308 C309 1.410 . S
C308 C316 1.503 1_554 S
C309 C308 1.410 . S
C309 C310 1.392 . S
C309 C312 1.511 1_554 S
C310 C306 1.376 . S
C310 C309 1.392 . S
C310 H322 0.929 . S
C311 C307 1.531 . S
C311 H323 0.960 . S
C311 H324 0.962 . S
C311 H325 0.960 . S
C312 C309 1.511 1_556 S
C312 H326 0.961 . S
C312 H327 0.961 . S
C312 H328 0.961 . S
C313 C314 1.370 . S
C313 C315 1.363 . S
C313 H329 0.931 . S
C314 C313 1.370 . S
C314 C318 1.408 . S
C315 C313 1.363 . S
C315 C316 1.370 . S
C315 C319 1.524 1_556 S
C316 C308 1.503 1_556 S
C316 C315 1.370 . S
C316 C317 1.403 . S
C317 C316 1.403 . S
C317 C318 1.404 . S
C317 C320 1.539 . S
C318 C314 1.408 . S
C318 C317 1.404 . S
C318 H330 0.930 . S
C319 C315 1.524 1_554 S
C319 H331 0.956 . S
C319 H332 0.961 . S
C319 H333 0.961 . S
C320 C317 1.539 . S
C320 H334 0.958 . S
C320 H335 0.961 . S
C320 H336 0.960 . S
H321 C305 0.931 . S
H322 C310 0.929 . S
H323 C311 0.960 . S
H324 C311 0.962 . S
H325 C311 0.960 . S
H326 C312 0.961 . S
H327 C312 0.961 . S
H328 C312 0.961 . S
H329 C313 0.931 . S
H330 C318 0.930 . S
H331 C319 0.956 . S
H332 C319 0.961 . S
H333 C319 0.961 . S
H334 C320 0.958 . S
H335 C320 0.961 . S
H336 C320 0.960 . S
C337 C338 1.391 . S
C337 C339 1.394 . S
C337 H353 0.931 . S
C338 C337 1.391 . S
C338 C342 1.376 . S
C339 C337 1.394 . S
C339 C340 1.369 . S
C339 C343 1.531 . S
C340 C339 1.369 . S
C340 C341 1.410 . S
C340 C348 1.503 . S
C341 C340 1.410 . S
C341 C342 1.392 . S
C341 C344 1.511 . S
C342 C338 1.376 . S
C342 C341 1.392 . S
C342 H354 0.929 . S
C343 C339 1.531 . S
C343 H355 0.960 . S
C343 H356 0.962 1_455 S
C343 H357 0.960 . S
C344 C341 1.511 . S
C344 H358 0.961 . S
C344 H359 0.961 . S
C344 H360 0.961 . S
C345 C346 1.370 1_655 S
C345 C347 1.363 . S
C345 H361 0.931 . S
C346 C345 1.370 1_455 S
C346 C350 1.408 . S
C347 C345 1.363 . S
C347 C348 1.370 1_655 S
C347 C351 1.524 . S
C348 C340 1.503 . S
C348 C347 1.370 1_455 S
C348 C349 1.403 . S
C349 C348 1.403 . S
C349 C350 1.404 . S
C349 C352 1.539 . S
C350 C346 1.408 . S
C350 C349 1.404 . S
C350 H362 0.930 . S
C351 C347 1.524 . S
C351 H363 0.956 . S
C351 H364 0.961 . S
C351 H365 0.961 . S
C352 C349 1.539 . S
C352 H366 0.958 . S
C352 H367 0.961 . S
C352 H368 0.960 . S
H353 C337 0.931 . S
H354 C342 0.929 . S
H355 C343 0.960 . S
H356 C343 0.962 1_655 S
H357 C343 0.960 . S
H358 C344 0.961 . S
H359 C344 0.961 . S
H360 C344 0.961 . S
H361 C345 0.931 . S
H362 C350 0.930 . S
H363 C351 0.956 . S
H364 C351 0.961 . S
H365 C351 0.961 . S
H366 C352 0.958 . S
H367 C352 0.961 . S
H368 C352 0.960 . S
C369 C370 1.399 . S
C369 C371 1.390 1_545 S
C369 H385 0.926 1_545 S
C370 C369 1.399 . S
C370 C374 1.376 . S
C371 C369 1.390 1_565 S
C371 C372 1.369 1_565 S
C371 C375 1.531 . S
C372 C371 1.369 1_545 S
C372 C373 1.410 . S
C372 C380 1.503 . S
C373 C372 1.410 . S
C373 C374 1.392 . S
C373 C376 1.511 . S
C374 C370 1.376 . S
C374 C373 1.392 . S
C374 H386 0.929 . S
C375 C371 1.531 . S
C375 H387 0.960 . S
C375 H388 0.962 . S
C375 H389 0.960 . S
C376 C373 1.511 . S
C376 H390 0.961 . S
C376 H391 0.961 . S
C376 H392 0.961 . S
C377 C378 1.370 . S
C377 C379 1.363 . S
C377 H393 0.931 . S
C378 C377 1.370 . S
C378 C382 1.408 1_545 S
C379 C377 1.363 . S
C379 C380 1.370 . S
C379 C383 1.524 . S
C380 C372 1.503 . S
C380 C379 1.370 . S
C380 C381 1.403 1_545 S
C381 C380 1.403 1_565 S
C381 C382 1.404 . S
C381 C384 1.539 . S
C382 C378 1.408 1_565 S
C382 C381 1.404 . S
C382 H394 0.930 . S
C383 C379 1.524 . S
C383 H395 0.956 . S
C383 H396 0.961 . S
C383 H397 0.961 . S
C384 C381 1.539 . S
C384 H398 0.958 . S
C384 H399 0.961 . S
C384 H400 0.960 . S
H385 C369 0.926 1_565 S
H386 C374 0.929 . S
H387 C375 0.960 . S
H388 C375 0.962 . S
H389 C375 0.960 . S
H390 C376 0.961 . S
H391 C376 0.961 . S
H392 C376 0.961 . S
H393 C377 0.931 . S
H394 C382 0.930 . S
H395 C383 0.956 . S
H396 C383 0.961 . S
H397 C383 0.961 . S
H398 C384 0.958 . S
H399 C384 0.961 . S
H400 C384 0.960 . S
C401 C402 1.391 . S
C401 C403 1.394 . S
C401 H417 0.931 . S
C402 C401 1.391 . S
C402 C406 1.376 . S
C403 C401 1.394 . S
C403 C404 1.369 . S
C403 C407 1.531 1_554 S
C404 C403 1.369 . S
C404 C405 1.410 . S
C404 C412 1.503 1_554 S
C405 C404 1.410 . S
C405 C406 1.392 . S
C405 C408 1.511 . S
C406 C402 1.376 . S
C406 C405 1.392 . S
C406 H418 0.929 . S
C407 C403 1.531 1_556 S
C407 H419 0.960 . S
C407 H420 0.962 1_556 S
C407 H421 0.960 . S
C408 C405 1.511 . S
C408 H422 0.961 . S
C408 H423 0.961 . S
C408 H424 0.961 . S
C409 C410 1.370 . S
C409 C411 1.363 . S
C409 H425 0.931 . S
C410 C409 1.370 . S
C410 C414 1.408 . S
C411 C409 1.363 . S
C411 C412 1.370 . S
C411 C415 1.524 1_556 S
C412 C404 1.503 1_556 S
C412 C411 1.370 . S
C412 C413 1.403 . S
C413 C412 1.403 . S
C413 C414 1.404 . S
C413 C416 1.539 . S
C414 C410 1.408 . S
C414 C413 1.404 . S
C414 H426 0.930 . S
C415 C411 1.524 1_554 S
C415 H427 0.956 . S
C415 H428 0.961 . S
C415 H429 0.961 . S
C416 C413 1.539 . S
C416 H430 0.958 . S
C416 H431 0.961 . S
C416 H432 0.960 . S
H417 C401 0.931 . S
H418 C406 0.929 . S
H419 C407 0.960 . S
H420 C407 0.962 1_554 S
H421 C407 0.960 . S
H422 C408 0.961 . S
H423 C408 0.961 . S
H424 C408 0.961 . S
H425 C409 0.931 . S
H426 C414 0.930 . S
H427 C415 0.956 . S
H428 C415 0.961 . S
H429 C415 0.961 . S
H430 C416 0.958 . S
H431 C416 0.961 . S
H432 C416 0.960 . S
C433 C434 1.391 . S
C433 C435 1.394 . S
C433 H449 0.931 . S
C434 C433 1.391 . S
C434 C438 1.376 . S
C435 C433 1.394 . S
C435 C436 1.369 . S
C435 C439 1.531 . S
C436 C435 1.369 . S
C436 C437 1.410 . S
C436 C444 1.503 . S
C437 C436 1.410 . S
C437 C438 1.392 . S
C437 C440 1.511 1_455 S
C438 C434 1.376 . S
C438 C437 1.392 . S
C438 H450 0.929 1_455 S
C439 C435 1.531 . S
C439 H451 0.960 . S
C439 H452 0.962 . S
C439 H453 0.960 . S
C440 C437 1.511 1_655 S
C440 H454 0.961 . S
C440 H455 0.961 . S
C440 H456 0.961 . S
C441 C442 1.370 . S
C441 C443 1.363 . S
C441 H457 0.931 . S
C442 C441 1.370 . S
C442 C446 1.408 1_455 S
C443 C441 1.363 . S
C443 C444 1.370 . S
C443 C447 1.524 . S
C444 C436 1.503 . S
C444 C443 1.370 . S
C444 C445 1.403 1_455 S
C445 C444 1.403 1_655 S
C445 C446 1.404 . S
C445 C448 1.539 . S
C446 C442 1.408 1_655 S
C446 C445 1.404 . S
C446 H458 0.930 . S
C447 C443 1.524 . S
C447 H459 0.956 . S
C447 H460 0.961 . S
C447 H461 0.961 . S
C448 C445 1.539 . S
C448 H462 0.958 . S
C448 H463 0.961 . S
C448 H464 0.960 . S
H449 C433 0.931 . S
H450 C438 0.929 1_655 S
H451 C439 0.960 . S
H452 C439 0.962 . S
H453 C439 0.960 . S
H454 C440 0.961 . S
H455 C440 0.961 . S
H456 C440 0.961 . S
H457 C441 0.931 . S
H458 C446 0.930 . S
H459 C447 0.956 . S
H460 C447 0.961 . S
H461 C447 0.961 . S
H462 C448 0.958 . S
H463 C448 0.961 . S
H464 C448 0.960 . S
C90 C47 1.423 . S
C82 C3 1.414 . S
C114 C21 1.474 . S
C122 C65 1.518 . S
C146 C37 1.457 . S
C154 C78 1.499 . S
C178 C8 1.418 . S
C186 C45 1.416 . S
C218 C56 1.485 . S
C210 C23 1.446 . S
C242 C35 1.467 . S
C250 C69 1.497 . S
C282 C58 1.419 . S
C274 C31 1.423 . S
C306 C7 1.380 . S
C314 C71 1.425 . S
C346 C52 1.493 . S
C338 C17 1.476 . S
C378 C60 1.377 . S
C370 C36 1.379 . S
C410 C73 1.427 . S
C402 C9 1.399 . S
C434 C22 1.483 . S
C442 C43 1.484 . S
