# Generated by pormake.
# Topology cml, (3,6)-cn, num edge types: 1
# Building blocks:
#     Node 0, Type 0, BuildingBlock: OLANEW_clean_sbu_2, # of connection points: 3
#     Node 1, Type 0, BuildingBlock: OLANEW_clean_sbu_2, # of connection points: 3
#     Node 2, Type 0, BuildingBlock: OLANEW_clean_sbu_2, # of connection points: 3
#     Node 3, Type 0, BuildingBlock: OLANEW_clean_sbu_2, # of connection points: 3
#     Node 4, Type 0, BuildingBlock: OLANEW_clean_sbu_2, # of connection points: 3
#     Node 5, Type 0, BuildingBlock: OLANEW_clean_sbu_2, # of connection points: 3
#     Node 6, Type 0, BuildingBlock: OLANEW_clean_sbu_2, # of connection points: 3
#     Node 7, Type 0, BuildingBlock: OLANEW_clean_sbu_2, # of connection points: 3
#     Node 8, Type 1, BuildingBlock: OJICUG_clean_sbu_0, # of connection points: 6
#     Node 9, Type 1, BuildingBlock: OJICUG_clean_sbu_0, # of connection points: 6
#     Node 10, Type 1, BuildingBlock: OJICUG_clean_sbu_0, # of connection points: 6
#     Node 11, Type 1, BuildingBlock: OJICUG_clean_sbu_0, # of connection points: 6
#     Edge 12, Type (0, 1), BuildingBlock: CIFDUS_clean_linker_0, # of connection points: 2
#     Edge 13, Type (0, 1), BuildingBlock: CIFDUS_clean_linker_0, # of connection points: 2
#     Edge 14, Type (0, 1), BuildingBlock: CIFDUS_clean_linker_0, # of connection points: 2
#     Edge 15, Type (0, 1), BuildingBlock: CIFDUS_clean_linker_0, # of connection points: 2
#     Edge 16, Type (0, 1), BuildingBlock: CIFDUS_clean_linker_0, # of connection points: 2
#     Edge 17, Type (0, 1), BuildingBlock: CIFDUS_clean_linker_0, # of connection points: 2
#     Edge 18, Type (0, 1), BuildingBlock: CIFDUS_clean_linker_0, # of connection points: 2
#     Edge 19, Type (0, 1), BuildingBlock: CIFDUS_clean_linker_0, # of connection points: 2
#     Edge 20, Type (0, 1), BuildingBlock: CIFDUS_clean_linker_0, # of connection points: 2
#     Edge 21, Type (0, 1), BuildingBlock: CIFDUS_clean_linker_0, # of connection points: 2
#     Edge 22, Type (0, 1), BuildingBlock: CIFDUS_clean_linker_0, # of connection points: 2
#     Edge 23, Type (0, 1), BuildingBlock: CIFDUS_clean_linker_0, # of connection points: 2
#     Edge 24, Type (0, 1), BuildingBlock: CIFDUS_clean_linker_0, # of connection points: 2
#     Edge 25, Type (0, 1), BuildingBlock: CIFDUS_clean_linker_0, # of connection points: 2
#     Edge 26, Type (0, 1), BuildingBlock: CIFDUS_clean_linker_0, # of connection points: 2
#     Edge 27, Type (0, 1), BuildingBlock: CIFDUS_clean_linker_0, # of connection points: 2
#     Edge 28, Type (0, 1), BuildingBlock: CIFDUS_clean_linker_0, # of connection points: 2
#     Edge 29, Type (0, 1), BuildingBlock: CIFDUS_clean_linker_0, # of connection points: 2
#     Edge 30, Type (0, 1), BuildingBlock: CIFDUS_clean_linker_0, # of connection points: 2
#     Edge 31, Type (0, 1), BuildingBlock: CIFDUS_clean_linker_0, # of connection points: 2
#     Edge 32, Type (0, 1), BuildingBlock: CIFDUS_clean_linker_0, # of connection points: 2
#     Edge 33, Type (0, 1), BuildingBlock: CIFDUS_clean_linker_0, # of connection points: 2
#     Edge 34, Type (0, 1), BuildingBlock: CIFDUS_clean_linker_0, # of connection points: 2
#     Edge 35, Type (0, 1), BuildingBlock: CIFDUS_clean_linker_0, # of connection points: 2
# Relax obj value: 0.021
# Max RMSD: 0.071
# Mean RMSD: 0.061
data_MOF--net-cml--node1-OLANEW_clean_sbu_2--node2-OJICUG_clean_sbu_0--edge1-CIFDUS_clean_linker_0
_symmetry_space_group_name_H-M    P1
_symmetry_Int_Tables_number       1
_symmetry_cell_setting            triclinic
loop_
_symmetry_equiv_pos_as_xyz
'x, y, z'
_cell_length_a     37.821174
_cell_length_b     36.448984
_cell_length_c     33.82889
_cell_angle_alpha  88.186415
_cell_angle_beta   87.439437
_cell_angle_gamma 88.60487
loop_
_atom_site_label
_atom_site_type_symbol
_atom_site_fract_x
_atom_site_fract_y
_atom_site_fract_z
_atom_type_partial_charge
O0 O 0.28053 0.46196 0.90359 0.0
Cd1 Cd 0.22122 0.44484 0.92974 0.0
O2 O 0.2995 0.44539 0.96167 0.0
Cd3 Cd 0.33801 0.43426 0.00676 0.0
O4 O 0.36451 0.41322 0.05895 0.0
C5 C 0.35659 0.42789 0.09182 0.0
O6 O 0.33367 0.45556 0.09276 0.0
C7 C 0.30564 0.45968 0.92737 0.0
C8 C 0.18726 0.38562 0.89849 0.0
O9 O 0.18703 0.41739 0.88108 0.0
O10 O 0.20485 0.38132 0.9299 0.0
O11 O 0.6735 0.68727 0.52707 0.0
Cd12 Cd 0.69208 0.69942 0.45775 0.0
O13 O 0.70254 0.63455 0.5302 0.0
Cd14 Cd 0.71617 0.58052 0.55579 0.0
O15 O 0.69709 0.52585 0.54635 0.0
C16 C 0.69886 0.51798 0.51002 0.0
O17 O 0.71479 0.54086 0.48465 0.0
C18 C 0.68121 0.65781 0.54617 0.0
C19 C 0.76405 0.70944 0.44207 0.0
O20 O 0.74377 0.73545 0.45514 0.0
O21 O 0.75046 0.67811 0.43716 0.0
O22 O 0.74235 0.45821 0.98001 0.0
Cd23 Cd 0.7812 0.41546 0.01642 0.0
O24 O 0.7506 0.50097 0.02292 0.0
Cd25 Cd 0.77388 0.46335 0.06636 0.0
O26 O 0.75498 0.43566 0.12098 0.0
C27 C 0.73689 0.40688 0.11916 0.0
O28 O 0.73355 0.39222 0.08457 0.0
C29 C 0.7375 0.49112 0.99105 0.0
C30 C 0.8142 0.35863 0.9741 0.0
O31 O 0.82602 0.39132 0.97158 0.0
O32 O 0.7861 0.35287 0.9958 0.0
O33 O 0.33248 0.58367 0.44477 0.0
Cd34 Cd 0.30916 0.63845 0.47742 0.0
O35 O 0.31062 0.54313 0.48817 0.0
Cd36 Cd 0.29169 0.58658 0.52693 0.0
O37 O 0.30836 0.61849 0.57577 0.0
C38 C 0.31459 0.59934 0.60678 0.0
O39 O 0.30703 0.56431 0.6076 0.0
C40 C 0.32825 0.55043 0.45615 0.0
C41 C 0.23851 0.65445 0.46303 0.0
O42 O 0.26321 0.66242 0.43726 0.0
O43 O 0.24709 0.6385 0.49562 0.0
O44 O 0.7636 0.97713 0.93261 0.0
Cd45 Cd 0.706 0.95211 0.95576 0.0
O46 O 0.78569 0.95217 0.98589 0.0
Cd47 Cd 0.82589 0.93583 0.02771 0.0
O48 O 0.85764 0.90949 0.07326 0.0
C49 C 0.86165 0.9258 0.10533 0.0
O50 O 0.84718 0.95863 0.10983 0.0
C51 C 0.7896 0.97273 0.955 0.0
C52 C 0.68256 0.88428 0.93167 0.0
O53 O 0.67751 0.91382 0.91086 0.0
O54 O 0.70045 0.88641 0.96281 0.0
O55 O 0.21975 0.12036 0.5594 0.0
Cd56 Cd 0.25299 0.10229 0.49893 0.0
O57 O 0.24786 0.07914 0.59602 0.0
Cd58 Cd 0.27388 0.05427 0.54436 0.0
O59 O 0.25679 0.02044 0.49712 0.0
C60 C 0.24468 0.98944 0.50833 0.0
O61 O 0.24696 0.97901 0.5457 0.0
C62 C 0.22503 0.10522 0.59314 0.0
C63 C 0.31124 0.14517 0.47766 0.0
O64 O 0.2819 0.15013 0.46047 0.0
O65 O 0.31289 0.12042 0.5053 0.0
O66 O 0.20014 0.90967 0.94458 0.0
Cd67 Cd 0.22521 0.85918 0.98469 0.0
O68 O 0.2147 0.95338 0.98381 0.0
Cd69 Cd 0.23871 0.91602 0.02702 0.0
O70 O 0.23117 0.89695 0.08838 0.0
C71 C 0.21361 0.8682 0.09641 0.0
O72 O 0.20383 0.84843 0.06715 0.0
C73 C 0.19994 0.94345 0.95298 0.0
C74 C 0.28154 0.82048 0.94831 0.0
O75 O 0.24953 0.81471 0.93976 0.0
O76 O 0.28705 0.84496 0.97357 0.0
O77 O 0.84217 0.08991 0.46555 0.0
Cd78 Cd 0.80305 0.13364 0.50013 0.0
O79 O 0.81545 0.04241 0.4942 0.0
Cd80 Cd 0.78253 0.0771 0.5327 0.0
O81 O 0.79913 0.1031 0.58549 0.0
C82 C 0.80512 0.08104 0.61434 0.0
O83 O 0.79651 0.04652 0.61165 0.0
C84 C 0.83937 0.05534 0.47042 0.0
C85 C 0.74327 0.15509 0.45947 0.0
O86 O 0.77139 0.17412 0.45697 0.0
O87 O 0.7436 0.12531 0.48064 0.0
Sc88 Sc 0.01652 0.79514 0.32788 0.0
Sc89 Sc 0.04187 0.88622 0.34274 0.0
Sc90 Sc 0.02631 0.82615 0.42451 0.0
O91 O 0.02828 0.8358 0.36495 0.0
C92 C 0.95937 0.7826 0.39908 0.0
C93 C 0.98042 0.86481 0.28595 0.0
C94 C 0.98911 0.90533 0.41578 0.0
C95 C 0.08224 0.8336 0.28154 0.0
C96 C 0.064 0.75334 0.39181 0.0
C97 C 0.09353 0.87728 0.41471 0.0
O98 O 0.97022 0.77824 0.36337 0.0
O99 O 1.00083 0.88729 0.30086 0.0
O100 O 0.99526 0.87539 0.43483 0.0
O101 O 0.06079 0.80746 0.28767 0.0
O102 O 0.05678 0.77589 0.4191 0.0
O103 O 0.08471 0.89198 0.38195 0.0
O104 O 0.05115 0.75644 0.35768 0.0
O105 O 0.0797 0.86337 0.30025 0.0
O106 O 0.07512 0.85303 0.43311 0.0
O107 O 0.98192 0.83039 0.29347 0.0
O108 O 0.97713 0.79881 0.42387 0.0
O109 O 0.00442 0.91346 0.38251 0.0
Sc110 Sc 0.00633 0.20211 0.79113 0.0
Sc111 Sc 0.01261 0.10595 0.80017 0.0
Sc112 Sc 0.00273 0.1579 0.886 0.0
O113 O 0.00722 0.15541 0.82589 0.0
C114 C 0.05569 0.22338 0.86039 0.0
C115 C 0.0646 0.15314 0.74407 0.0
C116 C 0.06053 0.09296 0.87466 0.0
C117 C 0.95774 0.14975 0.74546 0.0
C118 C 0.95056 0.22378 0.86123 0.0
C119 C 0.95384 0.08992 0.86893 0.0
O120 O 0.04632 0.22605 0.82469 0.0
O121 O 0.05607 0.12312 0.76155 0.0
O122 O 0.04546 0.11839 0.8946 0.0
O123 O 0.96563 0.18183 0.75533 0.0
O124 O 0.95985 0.19821 0.88529 0.0
O125 O 0.96965 0.08368 0.83584 0.0
O126 O 0.96543 0.2285 0.8271 0.0
O127 O 0.97392 0.12084 0.75758 0.0
O128 O 0.96291 0.11528 0.89136 0.0
O129 O 0.0478 0.18321 0.75002 0.0
O130 O 0.04182 0.20086 0.88598 0.0
O131 O 0.05126 0.08521 0.84035 0.0
Sc132 Sc 0.52445 0.28786 0.31046 0.0
Sc133 Sc 0.52378 0.38374 0.32048 0.0
Sc134 Sc 0.51878 0.32653 0.40555 0.0
O135 O 0.52216 0.33263 0.34544 0.0
C136 C 0.46859 0.26314 0.37871 0.0
C137 C 0.47483 0.34356 0.26191 0.0
C138 C 0.46486 0.39312 0.39081 0.0
C139 C 0.5806 0.34011 0.26591 0.0
C140 C 0.5757 0.26521 0.38049 0.0
C141 C 0.57143 0.39359 0.39404 0.0
O142 O 0.4806 0.26272 0.34302 0.0
O143 O 0.48536 0.3717 0.27868 0.0
O144 O 0.47477 0.36501 0.41107 0.0
O145 O 0.56824 0.30845 0.27378 0.0
O146 O 0.56285 0.28869 0.40438 0.0
O147 O 0.56282 0.40139 0.35895 0.0
O148 O 0.56347 0.26 0.3467 0.0
O149 O 0.56699 0.36932 0.28016 0.0
O150 O 0.55656 0.36858 0.41534 0.0
O151 O 0.48675 0.31124 0.26954 0.0
O152 O 0.48097 0.28332 0.4045 0.0
O153 O 0.48081 0.40354 0.35862 0.0
Sc154 Sc 0.50352 0.6942 0.80311 0.0
Sc155 Sc 0.52535 0.59991 0.80916 0.0
Sc156 Sc 0.52212 0.65209 0.89542 0.0
O157 O 0.51719 0.64878 0.8359 0.0
C158 C 0.55934 0.725 0.86249 0.0
C159 C 0.56252 0.65566 0.74667 0.0
C160 C 0.58401 0.59331 0.87345 0.0
C161 C 0.45904 0.63312 0.76375 0.0
C162 C 0.45624 0.70738 0.88132 0.0
C163 C 0.47858 0.57857 0.88745 0.0
O164 O 0.54068 0.7271 0.83202 0.0
O165 O 0.55869 0.62352 0.76189 0.0
O166 O 0.56839 0.61603 0.89646 0.0
O167 O 0.46456 0.6665 0.77073 0.0
O168 O 0.47685 0.68891 0.90344 0.0
O169 O 0.49199 0.57217 0.85311 0.0
O170 O 0.46117 0.71006 0.84399 0.0
O171 O 0.47904 0.60693 0.77542 0.0
O172 O 0.48658 0.60643 0.90692 0.0
O173 O 0.54449 0.68341 0.75854 0.0
O174 O 0.55718 0.69846 0.88796 0.0
O175 O 0.57225 0.58571 0.84022 0.0
H176 H 0.16647 0.32319 0.93868 0.0
H177 H 0.15932 0.38125 0.82602 0.0
H178 H 0.11955 0.33515 0.80383 0.0
H179 H 0.08436 0.28057 0.8175 0.0
H180 H 0.08899 0.22343 0.93103 0.0
H181 H 0.13218 0.26699 0.95172 0.0
C182 C 0.15655 0.32549 0.9091 0.0
C183 C 0.16589 0.35566 0.88404 0.0
C184 C 0.13299 0.29925 0.89679 0.0
C185 C 0.15251 0.3584 0.84594 0.0
C186 C 0.1297 0.33207 0.83324 0.0
C187 C 0.0949 0.27734 0.84673 0.0
C188 C 0.0832 0.24868 0.87266 0.0
C189 C 0.11935 0.30272 0.85862 0.0
C190 C 0.09728 0.24524 0.91044 0.0
C191 C 0.12205 0.27015 0.92231 0.0
H192 H 0.8041 0.76244 0.46958 0.0
H193 H 0.80839 0.67124 0.39125 0.0
H194 H 0.86951 0.68562 0.37046 0.0
H195 H 0.92121 0.72588 0.37308 0.0
H196 H 0.91655 0.81492 0.4545 0.0
H197 H 0.85622 0.79964 0.47545 0.0
C198 C 0.81846 0.74562 0.44806 0.0
C199 C 0.80174 0.71606 0.43173 0.0
C200 C 0.85353 0.75375 0.43669 0.0
C201 C 0.82078 0.69417 0.40428 0.0
C202 C 0.85565 0.70247 0.39227 0.0
C203 C 0.90693 0.74177 0.39545 0.0
C204 C 0.9233 0.77148 0.41213 0.0
C205 C 0.87221 0.73247 0.40799 0.0
C206 C 0.90466 0.79172 0.44138 0.0
C207 C 0.87008 0.78313 0.45333 0.0
H208 H 0.85867 0.36327 0.90918 0.0
H209 H 0.81353 0.28568 0.99488 0.0
H210 H 0.8507 0.23634 0.96661 0.0
H211 H 0.89905 0.21622 0.92014 0.0
H212 H 0.94175 0.29385 0.83262 0.0
H213 H 0.90235 0.34195 0.85872 0.0
C214 C 0.85678 0.33549 0.92144 0.0
C215 C 0.8337 0.32819 0.95428 0.0
C216 C 0.87788 0.30724 0.90477 0.0
C217 C 0.83112 0.29199 0.96955 0.0
C218 C 0.85248 0.2638 0.95352 0.0
C219 C 0.89948 0.24358 0.90659 0.0
C220 C 0.92358 0.25141 0.87468 0.0
C221 C 0.87642 0.27123 0.92153 0.0
C222 C 0.92348 0.28694 0.85715 0.0
C223 C 0.90105 0.3146 0.87218 0.0
H224 H 0.2081 0.66539 0.39251 0.0
H225 H 0.18604 0.66841 0.51859 0.0
H226 H 0.12739 0.69547 0.5076 0.0
H227 H 0.08561 0.72491 0.46219 0.0
H228 H 0.10724 0.72058 0.33602 0.0
H229 H 0.16244 0.68656 0.34701 0.0
C230 C 0.19023 0.67156 0.41753 0.0
C231 C 0.20149 0.66558 0.45626 0.0
C232 C 0.15652 0.68686 0.41099 0.0
C233 C 0.17796 0.67298 0.48847 0.0
C234 C 0.14449 0.68856 0.48222 0.0
C235 C 0.10207 0.71588 0.4371 0.0
C236 C 0.09257 0.72573 0.3984 0.0
C237 C 0.13393 0.69658 0.44361 0.0
C238 C 0.1139 0.71339 0.36615 0.0
C239 C 0.14567 0.69421 0.37239 0.0
H240 H 0.64498 0.87136 0.86712 0.0
H241 H 0.68157 0.81915 0.97449 0.0
H242 H 0.64789 0.76457 0.96209 0.0
H243 H 0.60489 0.73311 0.9227 0.0
H244 H 0.5688 0.78647 0.81542 0.0
H245 H 0.60536 0.83877 0.82598 0.0
C246 C 0.64593 0.84793 0.88766 0.0
C247 C 0.66567 0.84954 0.92179 0.0
C248 C 0.62626 0.81677 0.88056 0.0
C249 C 0.66662 0.81876 0.94795 0.0
C250 C 0.64721 0.78754 0.94097 0.0
C251 C 0.60516 0.75606 0.90151 0.0
C252 C 0.58368 0.75569 0.8685 0.0
C253 C 0.6264 0.78646 0.9077 0.0
C254 C 0.58472 0.78577 0.84128 0.0
C255 C 0.6057 0.81588 0.84723 0.0
H256 H 0.32768 0.17445 0.40474 0.0
H257 H 0.36519 0.16375 0.52317 0.0
H258 H 0.41722 0.19957 0.50308 0.0
H259 H 0.45186 0.2341 0.45184 0.0
H260 H 0.41654 0.24095 0.33225 0.0
H261 H 0.36399 0.20616 0.35265 0.0
C262 C 0.34721 0.18014 0.42613 0.0
C263 C 0.34252 0.16688 0.46543 0.0
C264 C 0.3775 0.19982 0.41409 0.0
C265 C 0.36827 0.17377 0.49274 0.0
C266 C 0.39798 0.19423 0.48128 0.0
C267 C 0.43266 0.22791 0.43025 0.0
C268 C 0.43797 0.24022 0.39065 0.0
C269 C 0.40286 0.20739 0.44204 0.0
C270 C 0.41313 0.23162 0.36288 0.0
C271 C 0.383 0.2119 0.37455 0.0
H272 H 0.34418 0.80218 0.98035 0.0
H273 H 0.28486 0.78987 0.87584 0.0
H274 H 0.33382 0.75392 0.84561 0.0
H275 H 0.39364 0.7262 0.8489 0.0
H276 H 0.45109 0.73469 0.95547 0.0
H277 H 0.40264 0.77162 0.98507 0.0
C278 C 0.3421 0.79173 0.95089 0.0
C279 C 0.3112 0.79892 0.93013 0.0
C280 C 0.36991 0.77024 0.93421 0.0
C281 C 0.30848 0.7847 0.89231 0.0
C282 C 0.33644 0.76417 0.87504 0.0
C283 C 0.39549 0.73611 0.87862 0.0
C284 C 0.42596 0.7279 0.89988 0.0
C285 C 0.36728 0.75678 0.89572 0.0
C286 C 0.42784 0.74051 0.93856 0.0
C287 C 0.40023 0.76177 0.95543 0.0
H288 H 0.72884 0.22396 0.43232 0.0
H289 H 0.68443 0.11613 0.44489 0.0
H290 H 0.62896 0.13986 0.4181 0.0
H291 H 0.5917 0.19266 0.39489 0.0
H292 H 0.6358 0.30071 0.38808 0.0
H293 H 0.69281 0.27562 0.40853 0.0
C294 C 0.70719 0.20552 0.42878 0.0
C295 C 0.71072 0.16839 0.44051 0.0
C296 C 0.67523 0.21952 0.41451 0.0
C297 C 0.68228 0.14492 0.43614 0.0
C298 C 0.65057 0.15846 0.42086 0.0
C299 C 0.61404 0.21039 0.39753 0.0
C300 C 0.60997 0.24829 0.38999 0.0
C301 C 0.64652 0.19587 0.41051 0.0
C302 C 0.63867 0.27138 0.39384 0.0
C303 C 0.67116 0.2571 0.40552 0.0
H304 H 0.34995 0.4957 0.97332 0.0
H305 H 0.33852 0.45996 0.85435 0.0
H306 H 0.39285 0.49106 0.83251 0.0
H307 H 0.44099 0.53157 0.8461 0.0
H308 H 0.45068 0.57148 0.96384 0.0
H309 H 0.39985 0.53518 0.98745 0.0
C310 C 0.35988 0.49397 0.94286 0.0
C311 C 0.34057 0.47505 0.91558 0.0
C312 C 0.39063 0.51289 0.93027 0.0
C313 C 0.35305 0.47414 0.8759 0.0
C314 C 0.38406 0.49198 0.86341 0.0
C315 C 0.43244 0.532 0.87712 0.0
C316 C 0.44988 0.55419 0.90319 0.0
C317 C 0.40272 0.5119 0.89019 0.0
C318 C 0.43785 0.5547 0.94311 0.0
C319 C 0.40874 0.53396 0.95661 0.0
H320 H 0.69182 0.50044 0.43387 0.0
H321 H 0.65865 0.46803 0.55337 0.0
H322 H 0.61773 0.42437 0.52799 0.0
H323 H 0.58766 0.39959 0.47158 0.0
H324 H 0.61988 0.43508 0.35258 0.0
H325 H 0.66476 0.4734 0.37819 0.0
C326 C 0.676 0.48355 0.45448 0.0
C327 C 0.67809 0.48773 0.49544 0.0
C328 C 0.65197 0.45935 0.43975 0.0
C329 C 0.65746 0.46545 0.52165 0.0
C330 C 0.63393 0.44061 0.50716 0.0
C331 C 0.60471 0.41547 0.45128 0.0
C332 C 0.60003 0.4148 0.41026 0.0
C333 C 0.63033 0.438 0.46623 0.0
C334 C 0.62245 0.43548 0.38434 0.0
C335 C 0.64828 0.45734 0.39891 0.0
H336 H 0.70493 0.48055 0.92192 0.0
H337 H 0.71632 0.56013 0.01214 0.0
H338 H 0.67142 0.59975 0.9824 0.0
H339 H 0.62543 0.60971 0.9341 0.0
H340 H 0.61426 0.53066 0.84334 0.0
H341 H 0.66262 0.49333 0.86979 0.0
C342 C 0.69792 0.50676 0.9348 0.0
C343 C 0.71379 0.51703 0.9695 0.0
C344 C 0.67186 0.52952 0.91763 0.0
C345 C 0.7045 0.55129 0.98557 0.0
C346 C 0.67867 0.57402 0.96866 0.0
C347 C 0.63373 0.58447 0.9199 0.0
C348 C 0.61588 0.57289 0.88706 0.0
C349 C 0.6616 0.56304 0.93524 0.0
C350 C 0.62739 0.5403 0.86873 0.0
C351 C 0.65502 0.5188 0.88391 0.0
H352 H 0.34443 0.48161 0.48407 0.0
H353 H 0.35706 0.55359 0.38085 0.0
H354 H 0.39838 0.50942 0.3501 0.0
H355 H 0.43541 0.45383 0.35547 0.0
H356 H 0.42514 0.383 0.46 0.0
H357 H 0.37826 0.42327 0.48715 0.0
C358 C 0.35566 0.4873 0.45451 0.0
C359 C 0.34787 0.52095 0.43489 0.0
C360 C 0.38022 0.46227 0.43748 0.0
C361 C 0.3628 0.52799 0.39669 0.0
C362 C 0.38654 0.50282 0.37915 0.0
C363 C 0.42282 0.44694 0.38409 0.0
C364 C 0.43426 0.41564 0.40585 0.0
C365 C 0.39625 0.47044 0.39979 0.0
C366 C 0.4172 0.40707 0.44269 0.0
C367 C 0.39034 0.43009 0.45828 0.0
H368 H 0.81746 0.99281 0.88258 0.0
H369 H 0.83536 0.9993 0.00706 0.0
H370 H 0.88748 0.03645 0.99206 0.0
H371 H 0.92746 0.06887 0.94312 0.0
H372 H 0.90945 0.06055 0.81866 0.0
H373 H 0.85801 0.02306 0.83405 0.0
C374 C 0.83297 0.00209 0.9064 0.0
C375 C 0.82288 0.99265 0.94581 0.0
C376 C 0.86282 0.02362 0.89755 0.0
C377 C 0.84314 0.0051 0.97638 0.0
C378 C 0.87272 0.02684 0.96783 0.0
C379 C 0.91218 0.05888 0.91948 0.0
C380 C 0.92236 0.06758 0.87982 0.0
C381 C 0.88274 0.03652 0.92849 0.0
C382 C 0.90242 0.05412 0.84946 0.0
C383 C 0.8729 0.03265 0.85819 0.0
H384 H 0.21275 0.92468 0.52523 0.0
H385 H 0.22703 0.00769 0.4324 0.0
H386 H 0.18344 0.9783 0.39347 0.0
H387 H 0.13701 0.93275 0.38896 0.0
H388 H 0.12201 0.85094 0.48312 0.0
H389 H 0.17023 0.87617 0.51814 0.0
C390 C 0.20672 0.93613 0.49625 0.0
C391 C 0.22284 0.96859 0.482 0.0
C392 C 0.18118 0.91953 0.47439 0.0
C393 C 0.21489 0.98282 0.44422 0.0
C394 C 0.18983 0.96612 0.42199 0.0
C395 C 0.14449 0.92015 0.41693 0.0
C396 C 0.12543 0.89028 0.43355 0.0
C397 C 0.1721 0.93505 0.43729 0.0
C398 C 0.13582 0.8742 0.46972 0.0
C399 C 0.16346 0.8886 0.48985 0.0
H400 H 0.17681 0.01115 0.97517 0.0
H401 H 0.17436 0.93588 0.8794 0.0
H402 H 0.1325 0.97677 0.8456 0.0
H403 H 0.0933 0.03132 0.84579 0.0
H404 H 0.09361 0.105 0.94334 0.0
H405 H 0.13961 0.06714 0.97389 0.0
C406 C 0.1676 0.00393 0.94659 0.0
C407 C 0.1787 0.97045 0.92986 0.0
C408 C 0.14278 0.02703 0.92788 0.0
C409 C 0.1662 0.96143 0.89297 0.0
C410 C 0.14216 0.98473 0.8737 0.0
C411 C 0.10353 0.03932 0.87361 0.0
C412 C 0.08969 0.0709 0.89232 0.0
C413 C 0.12968 0.01718 0.89132 0.0
C414 C 0.10345 0.08072 0.92837 0.0
C415 C 0.12985 0.05912 0.94586 0.0
H416 H 0.85782 0.98728 0.49707 0.0
H417 H 0.88307 0.06833 0.40508 0.0
H418 H 0.93225 0.02928 0.38031 0.0
H419 H 0.96882 0.9728 0.38604 0.0
H420 H 0.9445 0.89341 0.48039 0.0
H421 H 0.89453 0.93155 0.5033 0.0
C422 C 0.87376 0.99621 0.47124 0.0
C423 C 0.86662 0.03045 0.45267 0.0
C424 C 0.90252 0.97422 0.458 0.0
C425 C 0.88795 0.04196 0.41974 0.0
C426 C 0.91616 0.01975 0.40572 0.0
C427 C 0.95276 0.9639 0.41177 0.0
C428 C 0.96063 0.93025 0.43145 0.0
C429 C 0.92392 0.986 0.42492 0.0
C430 C 0.93937 0.91924 0.46473 0.0
C431 C 0.91057 0.94092 0.47777 0.0
H432 H 0.39368 0.36374 0.10395 0.0
H433 H 0.35722 0.46246 0.16187 0.0
H434 H 0.38793 0.44302 0.2211 0.0
H435 H 0.42834 0.40045 0.25459 0.0
H436 H 0.46499 0.30136 0.19777 0.0
H437 H 0.43027 0.3181 0.14021 0.0
C438 C 0.39237 0.38091 0.1296 0.0
C439 C 0.3736 0.41475 0.12831 0.0
C440 C 0.40995 0.36946 0.16375 0.0
C441 C 0.37165 0.43641 0.16198 0.0
C442 C 0.3892 0.42533 0.19588 0.0
C443 C 0.42848 0.38229 0.22977 0.0
C444 C 0.44953 0.34994 0.23021 0.0
C445 C 0.40887 0.39225 0.19682 0.0
C446 C 0.44896 0.3264 0.19816 0.0
C447 C 0.42936 0.33612 0.16513 0.0
H448 H 0.66135 0.70704 0.60125 0.0
H449 H 0.65757 0.59191 0.57672 0.0
H450 H 0.62386 0.58042 0.63877 0.0
H451 H 0.59137 0.60391 0.69762 0.0
H452 H 0.59121 0.72004 0.7193 0.0
H453 H 0.63007 0.73033 0.66075 0.0
C454 C 0.65349 0.67937 0.6098 0.0
C455 C 0.66312 0.65017 0.58509 0.0
C456 C 0.63288 0.67323 0.64481 0.0
C457 C 0.65226 0.61456 0.59613 0.0
C458 C 0.63229 0.60809 0.63131 0.0
C459 C 0.60016 0.6314 0.6898 0.0
C460 C 0.58822 0.66114 0.71277 0.0
C461 C 0.62207 0.63729 0.65565 0.0
C462 C 0.59971 0.69665 0.702 0.0
C463 C 0.62199 0.7026 0.66853 0.0
H464 H 0.69609 0.34622 0.12611 0.0
H465 H 0.7268 0.44026 0.19 0.0
H466 H 0.68234 0.42635 0.2423 0.0
H467 H 0.63095 0.39131 0.2666 0.0
H468 H 0.60043 0.29663 0.20399 0.0
H469 H 0.64877 0.30685 0.15455 0.0
C470 C 0.69341 0.36336 0.15174 0.0
C471 C 0.71441 0.39456 0.15378 0.0
C472 C 0.66758 0.35535 0.18172 0.0
C473 C 0.71088 0.41621 0.18747 0.0
C474 C 0.68531 0.40841 0.21736 0.0
C475 C 0.63504 0.37278 0.24224 0.0
C476 C 0.61187 0.34366 0.23848 0.0
C477 C 0.66288 0.37871 0.21419 0.0
C478 C 0.61788 0.31935 0.20735 0.0
C479 C 0.64542 0.32526 0.17905 0.0
H480 H 0.33977 0.56211 0.67031 0.0
H481 H 0.33769 0.66965 0.61316 0.0
H482 H 0.38027 0.69087 0.65927 0.0
H483 H 0.42256 0.67683 0.71163 0.0
H484 H 0.42595 0.56786 0.76554 0.0
H485 H 0.37843 0.54936 0.72488 0.0
C486 C 0.34821 0.59036 0.66818 0.0
C487 C 0.33582 0.61412 0.63808 0.0
C488 C 0.37333 0.60203 0.69395 0.0
C489 C 0.34696 0.6507 0.63595 0.0
C490 C 0.37144 0.66282 0.6622 0.0
C491 C 0.41258 0.6492 0.71473 0.0
C492 C 0.42813 0.62365 0.74116 0.0
C493 C 0.38553 0.63841 0.69065 0.0
C494 C 0.4149 0.58791 0.74492 0.0
C495 C 0.38761 0.57729 0.72178 0.0
H496 H 0.88211 0.95653 0.17239 0.0
H497 H 0.88763 0.85514 0.10963 0.0
H498 H 0.92261 0.8263 0.16159 0.0
H499 H 0.95376 0.83067 0.22368 0.0
H500 H 0.95021 0.93316 0.28436 0.0
H501 H 0.91207 0.96059 0.23464 0.0
C502 C 0.89082 0.92808 0.17011 0.0
C503 C 0.88233 0.9081 0.13711 0.0
C504 C 0.91126 0.9118 0.19981 0.0
C505 C 0.89394 0.87125 0.13462 0.0
C506 C 0.91389 0.85468 0.16437 0.0
C507 C 0.94424 0.85884 0.22623 0.0
C508 C 0.95479 0.87985 0.25761 0.0
C509 C 0.92295 0.87478 0.19697 0.0
C510 C 0.94261 0.91648 0.26032 0.0
C511 C 0.92082 0.93221 0.23191 0.0
H512 H 0.1752 0.16057 0.59903 0.0
H513 H 0.22169 0.06992 0.66546 0.0
H514 H 0.17699 0.0779 0.71873 0.0
H515 H 0.12173 0.10691 0.74396 0.0
H516 H 0.07563 0.19846 0.67897 0.0
H517 H 0.12319 0.19389 0.62775 0.0
C518 C 0.17588 0.1429 0.6254 0.0
C519 C 0.20159 0.11441 0.62792 0.0
C520 C 0.14992 0.14751 0.65603 0.0
C521 C 0.2022 0.09199 0.66253 0.0
C522 C 0.1765 0.09639 0.69301 0.0
C523 C 0.1222 0.12598 0.71867 0.0
C524 C 0.09495 0.15262 0.71493 0.0
C525 C 0.14972 0.1234 0.6896 0.0
C526 C 0.09626 0.17762 0.68244 0.0
C527 C 0.1234 0.17496 0.65311 0.0
H528 H 0.17174 0.81211 0.12259 0.0
H529 H 0.22075 0.90969 0.1614 0.0
H530 H 0.18668 0.90542 0.22422 0.0
H531 H 0.1379 0.87842 0.26456 0.0
H532 H 0.08825 0.78135 0.2252 0.0
H533 H 0.1279 0.78091 0.16645 0.0
C534 C 0.17543 0.83212 0.14501 0.0
C535 C 0.19832 0.86152 0.13696 0.0
C536 C 0.15533 0.82987 0.18087 0.0
C537 C 0.20307 0.88694 0.1666 0.0
C538 C 0.18346 0.88464 0.20252 0.0
C539 C 0.13597 0.85691 0.24338 0.0
C540 C 0.10965 0.83039 0.24904 0.0
C541 C 0.15865 0.85695 0.2094 0.0
C542 C 0.10801 0.80235 0.22155 0.0
C543 C 0.13064 0.80209 0.18781 0.0
H544 H 0.83859 0.14597 0.62106 0.0
H545 H 0.82298 0.04003 0.67932 0.0
H546 H 0.86803 0.05292 0.72588 0.0
H547 H 0.91523 0.09157 0.7463 0.0
H548 H 0.93141 0.19775 0.68933 0.0
H549 H 0.88264 0.18743 0.64586 0.0
C550 C 0.84464 0.12594 0.64433 0.0
C551 C 0.82773 0.09187 0.64636 0.0
C552 C 0.87099 0.13331 0.67079 0.0
C553 C 0.83577 0.06633 0.67683 0.0
C554 C 0.86165 0.07358 0.70339 0.0
C555 C 0.90812 0.11249 0.72435 0.0
C556 C 0.92729 0.14505 0.72041 0.0
C557 C 0.88008 0.10648 0.6999 0.0
C558 C 0.91719 0.17232 0.69262 0.0
C559 C 0.88935 0.16641 0.66782 0.0
loop_
_geom_bond_atom_site_label_1
_geom_bond_atom_site_label_2
_geom_bond_distance
_geom_bond_site_symmetry_2
_ccdc_geom_bond_type
O0 Cd1 2.300 . S
O0 C7 1.275 . S
Cd1 O0 2.300 . S
Cd1 O9 2.381 . S
Cd1 O10 2.378 . S
O2 Cd3 2.385 1_556 S
O2 C7 1.255 . S
Cd3 O2 2.385 1_554 S
Cd3 O4 2.317 . S
O4 Cd3 2.317 . S
O4 C5 1.232 . S
C5 O4 1.232 . S
C5 O6 1.218 . S
O6 C5 1.218 . S
C7 O0 1.275 . S
C7 O2 1.255 . S
C8 O9 1.258 . S
C8 O10 1.256 . S
O9 Cd1 2.381 . S
O9 C8 1.258 . S
O10 Cd1 2.378 . S
O10 C8 1.256 . S
O11 Cd12 2.300 . S
O11 C18 1.275 . S
Cd12 O11 2.300 . S
Cd12 O20 2.381 . S
Cd12 O21 2.378 . S
O13 Cd14 2.385 . S
O13 C18 1.255 . S
Cd14 O13 2.385 . S
Cd14 O15 2.317 . S
O15 Cd14 2.317 . S
O15 C16 1.232 . S
C16 O15 1.232 . S
C16 O17 1.218 . S
O17 C16 1.218 . S
C18 O11 1.275 . S
C18 O13 1.255 . S
C19 O20 1.258 . S
C19 O21 1.256 . S
O20 Cd12 2.381 . S
O20 C19 1.258 . S
O21 Cd12 2.378 . S
O21 C19 1.256 . S
O22 Cd23 2.300 . S
O22 C29 1.275 . S
Cd23 O22 2.300 . S
Cd23 O31 2.381 . S
Cd23 O32 2.378 . S
O24 Cd25 2.385 . S
O24 C29 1.255 1_554 S
Cd25 O24 2.385 . S
Cd25 O26 2.317 . S
O26 Cd25 2.317 . S
O26 C27 1.232 . S
C27 O26 1.232 . S
C27 O28 1.218 . S
O28 C27 1.218 . S
C29 O22 1.275 . S
C29 O24 1.255 1_556 S
C30 O31 1.258 . S
C30 O32 1.256 . S
O31 Cd23 2.381 . S
O31 C30 1.258 . S
O32 Cd23 2.378 . S
O32 C30 1.256 . S
O33 Cd34 2.300 . S
O33 C40 1.275 . S
Cd34 O33 2.300 . S
Cd34 O42 2.381 . S
Cd34 O43 2.378 . S
O35 Cd36 2.385 . S
O35 C40 1.255 . S
Cd36 O35 2.385 . S
Cd36 O37 2.317 . S
O37 Cd36 2.317 . S
O37 C38 1.232 . S
C38 O37 1.232 . S
C38 O39 1.218 . S
O39 C38 1.218 . S
C40 O33 1.275 . S
C40 O35 1.255 . S
C41 O42 1.258 . S
C41 O43 1.256 . S
O42 Cd34 2.381 . S
O42 C41 1.258 . S
O43 Cd34 2.378 . S
O43 C41 1.256 . S
O44 Cd45 2.300 . S
O44 C51 1.275 . S
Cd45 O44 2.300 . S
Cd45 O53 2.381 . S
Cd45 O54 2.378 . S
O46 Cd47 2.385 1_556 S
O46 C51 1.255 . S
Cd47 O46 2.385 1_554 S
Cd47 O48 2.317 . S
O48 Cd47 2.317 . S
O48 C49 1.232 . S
C49 O48 1.232 . S
C49 O50 1.218 . S
O50 C49 1.218 . S
C51 O44 1.275 . S
C51 O46 1.255 . S
C52 O53 1.258 . S
C52 O54 1.256 . S
O53 Cd45 2.381 . S
O53 C52 1.258 . S
O54 Cd45 2.378 . S
O54 C52 1.256 . S
O55 Cd56 2.300 . S
O55 C62 1.275 . S
Cd56 O55 2.300 . S
Cd56 O64 2.381 . S
Cd56 O65 2.378 . S
O57 Cd58 2.385 . S
O57 C62 1.255 . S
Cd58 O57 2.385 . S
Cd58 O59 2.317 . S
O59 Cd58 2.317 . S
O59 C60 1.232 . S
C60 O59 1.232 . S
C60 O61 1.218 . S
O61 C60 1.218 . S
C62 O55 1.275 . S
C62 O57 1.255 . S
C63 O64 1.258 . S
C63 O65 1.256 . S
O64 Cd56 2.381 . S
O64 C63 1.258 . S
O65 Cd56 2.378 . S
O65 C63 1.256 . S
O66 Cd67 2.300 . S
O66 C73 1.275 . S
Cd67 O66 2.300 . S
Cd67 O75 2.381 . S
Cd67 O76 2.378 . S
O68 Cd69 2.385 . S
O68 C73 1.255 1_554 S
Cd69 O68 2.385 . S
Cd69 O70 2.317 . S
O70 Cd69 2.317 . S
O70 C71 1.232 . S
C71 O70 1.232 . S
C71 O72 1.218 . S
O72 C71 1.218 . S
C73 O66 1.275 . S
C73 O68 1.255 1_556 S
C74 O75 1.258 . S
C74 O76 1.256 . S
O75 Cd67 2.381 . S
O75 C74 1.258 . S
O76 Cd67 2.378 . S
O76 C74 1.256 . S
O77 Cd78 2.300 . S
O77 C84 1.275 . S
Cd78 O77 2.300 . S
Cd78 O86 2.381 . S
Cd78 O87 2.378 . S
O79 Cd80 2.385 . S
O79 C84 1.255 . S
Cd80 O79 2.385 . S
Cd80 O81 2.317 . S
O81 Cd80 2.317 . S
O81 C82 1.232 . S
C82 O81 1.232 . S
C82 O83 1.218 . S
O83 C82 1.218 . S
C84 O77 1.275 . S
C84 O79 1.255 . S
C85 O86 1.258 . S
C85 O87 1.256 . S
O86 Cd78 2.381 . S
O86 C85 1.258 . S
O87 Cd78 2.378 . S
O87 C85 1.256 . S
Sc88 O91 2.025 . S
Sc88 O98 2.105 1_455 S
Sc88 O101 2.105 . S
Sc88 O104 2.105 . S
Sc88 O107 2.105 1_455 S
Sc89 O91 2.025 . S
Sc89 O99 2.105 1_455 S
Sc89 O103 2.105 . S
Sc89 O105 2.105 . S
Sc89 O109 2.105 1_455 S
Sc90 O91 2.025 . S
Sc90 O100 2.105 1_455 S
Sc90 O102 2.105 . S
Sc90 O106 2.105 . S
Sc90 O108 2.105 1_455 S
O91 Sc88 2.025 . S
O91 Sc89 2.025 . S
O91 Sc90 2.025 . S
C92 O98 1.268 . S
C92 O108 1.268 . S
C93 O99 1.268 . S
C93 O107 1.268 . S
C94 O100 1.268 . S
C94 O109 1.268 . S
C95 O101 1.268 . S
C95 O105 1.268 . S
C96 O102 1.268 . S
C96 O104 1.268 . S
C97 O103 1.268 . S
C97 O106 1.268 . S
O98 Sc88 2.105 1_655 S
O98 C92 1.268 . S
O99 Sc89 2.105 1_655 S
O99 C93 1.268 . S
O100 Sc90 2.105 1_655 S
O100 C94 1.268 . S
O101 Sc88 2.105 . S
O101 C95 1.268 . S
O102 Sc90 2.105 . S
O102 C96 1.268 . S
O103 Sc89 2.105 . S
O103 C97 1.268 . S
O104 Sc88 2.105 . S
O104 C96 1.268 . S
O105 Sc89 2.105 . S
O105 C95 1.268 . S
O106 Sc90 2.105 . S
O106 C97 1.268 . S
O107 Sc88 2.105 1_655 S
O107 C93 1.268 . S
O108 Sc90 2.105 1_655 S
O108 C92 1.268 . S
O109 Sc89 2.105 1_655 S
O109 C94 1.268 . S
Sc110 O113 2.025 . S
Sc110 O120 2.105 . S
Sc110 O123 2.105 1_455 S
Sc110 O126 2.105 1_455 S
Sc110 O129 2.105 . S
Sc111 O113 2.025 . S
Sc111 O121 2.105 . S
Sc111 O125 2.105 1_455 S
Sc111 O127 2.105 1_455 S
Sc111 O131 2.105 . S
Sc112 O113 2.025 . S
Sc112 O122 2.105 . S
Sc112 O124 2.105 1_455 S
Sc112 O128 2.105 1_455 S
Sc112 O130 2.105 . S
O113 Sc110 2.025 . S
O113 Sc111 2.025 . S
O113 Sc112 2.025 . S
C114 O120 1.268 . S
C114 O130 1.268 . S
C115 O121 1.268 . S
C115 O129 1.268 . S
C116 O122 1.268 . S
C116 O131 1.268 . S
C117 O123 1.268 . S
C117 O127 1.268 . S
C118 O124 1.268 . S
C118 O126 1.268 . S
C119 O125 1.268 . S
C119 O128 1.268 . S
O120 Sc110 2.105 . S
O120 C114 1.268 . S
O121 Sc111 2.105 . S
O121 C115 1.268 . S
O122 Sc112 2.105 . S
O122 C116 1.268 . S
O123 Sc110 2.105 1_655 S
O123 C117 1.268 . S
O124 Sc112 2.105 1_655 S
O124 C118 1.268 . S
O125 Sc111 2.105 1_655 S
O125 C119 1.268 . S
O126 Sc110 2.105 1_655 S
O126 C118 1.268 . S
O127 Sc111 2.105 1_655 S
O127 C117 1.268 . S
O128 Sc112 2.105 1_655 S
O128 C119 1.268 . S
O129 Sc110 2.105 . S
O129 C115 1.268 . S
O130 Sc112 2.105 . S
O130 C114 1.268 . S
O131 Sc111 2.105 . S
O131 C116 1.268 . S
Sc132 O135 2.025 . S
Sc132 O142 2.105 . S
Sc132 O145 2.105 . S
Sc132 O148 2.105 . S
Sc132 O151 2.105 . S
Sc133 O135 2.025 . S
Sc133 O143 2.105 . S
Sc133 O147 2.105 . S
Sc133 O149 2.105 . S
Sc133 O153 2.105 . S
Sc134 O135 2.025 . S
Sc134 O144 2.105 . S
Sc134 O146 2.105 . S
Sc134 O150 2.105 . S
Sc134 O152 2.105 . S
O135 Sc132 2.025 . S
O135 Sc133 2.025 . S
O135 Sc134 2.025 . S
C136 O142 1.268 . S
C136 O152 1.268 . S
C137 O143 1.268 . S
C137 O151 1.268 . S
C138 O144 1.268 . S
C138 O153 1.268 . S
C139 O145 1.268 . S
C139 O149 1.268 . S
C140 O146 1.268 . S
C140 O148 1.268 . S
C141 O147 1.268 . S
C141 O150 1.268 . S
O142 Sc132 2.105 . S
O142 C136 1.268 . S
O143 Sc133 2.105 . S
O143 C137 1.268 . S
O144 Sc134 2.105 . S
O144 C138 1.268 . S
O145 Sc132 2.105 . S
O145 C139 1.268 . S
O146 Sc134 2.105 . S
O146 C140 1.268 . S
O147 Sc133 2.105 . S
O147 C141 1.268 . S
O148 Sc132 2.105 . S
O148 C140 1.268 . S
O149 Sc133 2.105 . S
O149 C139 1.268 . S
O150 Sc134 2.105 . S
O150 C141 1.268 . S
O151 Sc132 2.105 . S
O151 C137 1.268 . S
O152 Sc134 2.105 . S
O152 C136 1.268 . S
O153 Sc133 2.105 . S
O153 C138 1.268 . S
Sc154 O157 2.025 . S
Sc154 O164 2.105 . S
Sc154 O167 2.105 . S
Sc154 O170 2.105 . S
Sc154 O173 2.105 . S
Sc155 O157 2.025 . S
Sc155 O165 2.105 . S
Sc155 O169 2.105 . S
Sc155 O171 2.105 . S
Sc155 O175 2.105 . S
Sc156 O157 2.025 . S
Sc156 O166 2.105 . S
Sc156 O168 2.105 . S
Sc156 O172 2.105 . S
Sc156 O174 2.105 . S
O157 Sc154 2.025 . S
O157 Sc155 2.025 . S
O157 Sc156 2.025 . S
C158 O164 1.268 . S
C158 O174 1.268 . S
C159 O165 1.268 . S
C159 O173 1.268 . S
C160 O166 1.268 . S
C160 O175 1.268 . S
C161 O167 1.268 . S
C161 O171 1.268 . S
C162 O168 1.268 . S
C162 O170 1.268 . S
C163 O169 1.268 . S
C163 O172 1.268 . S
O164 Sc154 2.105 . S
O164 C158 1.268 . S
O165 Sc155 2.105 . S
O165 C159 1.268 . S
O166 Sc156 2.105 . S
O166 C160 1.268 . S
O167 Sc154 2.105 . S
O167 C161 1.268 . S
O168 Sc156 2.105 . S
O168 C162 1.268 . S
O169 Sc155 2.105 . S
O169 C163 1.268 . S
O170 Sc154 2.105 . S
O170 C162 1.268 . S
O171 Sc155 2.105 . S
O171 C161 1.268 . S
O172 Sc156 2.105 . S
O172 C163 1.268 . S
O173 Sc154 2.105 . S
O173 C159 1.268 . S
O174 Sc156 2.105 . S
O174 C158 1.268 . S
O175 Sc155 2.105 . S
O175 C160 1.268 . S
H176 C182 0.930 . S
H177 C185 0.930 . S
H178 C186 0.930 . S
H179 C187 0.930 . S
H180 C190 0.930 . S
H181 C191 0.930 . S
C182 H176 0.930 . S
C182 C183 1.355 . S
C182 C184 1.415 . S
C183 C182 1.355 . S
C183 C185 1.419 . S
C184 C182 1.415 . S
C184 C189 1.425 . S
C184 C191 1.409 . S
C185 H177 0.930 . S
C185 C183 1.419 . S
C185 C186 1.362 . S
C186 H178 0.930 . S
C186 C185 1.362 . S
C186 C189 1.409 . S
C187 H179 0.930 . S
C187 C188 1.355 . S
C187 C189 1.415 . S
C188 C187 1.355 . S
C188 C190 1.419 . S
C189 C184 1.425 . S
C189 C186 1.409 . S
C189 C187 1.415 . S
C190 H180 0.930 . S
C190 C188 1.419 . S
C190 C191 1.362 . S
C191 H181 0.930 . S
C191 C184 1.409 . S
C191 C190 1.362 . S
H192 C198 0.930 . S
H193 C201 0.930 . S
H194 C202 0.930 . S
H195 C203 0.930 . S
H196 C206 0.930 . S
H197 C207 0.930 . S
C198 H192 0.930 . S
C198 C199 1.355 . S
C198 C200 1.415 . S
C199 C198 1.355 . S
C199 C201 1.419 . S
C200 C198 1.415 . S
C200 C205 1.425 . S
C200 C207 1.409 . S
C201 H193 0.930 . S
C201 C199 1.419 . S
C201 C202 1.362 . S
C202 H194 0.930 . S
C202 C201 1.362 . S
C202 C205 1.409 . S
C203 H195 0.930 . S
C203 C204 1.355 . S
C203 C205 1.415 . S
C204 C203 1.355 . S
C204 C206 1.419 . S
C205 C200 1.425 . S
C205 C202 1.409 . S
C205 C203 1.415 . S
C206 H196 0.930 . S
C206 C204 1.419 . S
C206 C207 1.362 . S
C207 H197 0.930 . S
C207 C200 1.409 . S
C207 C206 1.362 . S
H208 C214 0.930 . S
H209 C217 0.930 . S
H210 C218 0.930 . S
H211 C219 0.930 . S
H212 C222 0.930 . S
H213 C223 0.930 . S
C214 H208 0.930 . S
C214 C215 1.355 . S
C214 C216 1.415 . S
C215 C214 1.355 . S
C215 C217 1.419 . S
C216 C214 1.415 . S
C216 C221 1.425 . S
C216 C223 1.409 . S
C217 H209 0.930 . S
C217 C215 1.419 . S
C217 C218 1.362 . S
C218 H210 0.930 . S
C218 C217 1.362 . S
C218 C221 1.409 . S
C219 H211 0.930 . S
C219 C220 1.355 . S
C219 C221 1.415 . S
C220 C219 1.355 . S
C220 C222 1.419 . S
C221 C216 1.425 . S
C221 C218 1.409 . S
C221 C219 1.415 . S
C222 H212 0.930 . S
C222 C220 1.419 . S
C222 C223 1.362 . S
C223 H213 0.930 . S
C223 C216 1.409 . S
C223 C222 1.362 . S
H224 C230 0.930 . S
H225 C233 0.930 . S
H226 C234 0.930 . S
H227 C235 0.930 . S
H228 C238 0.930 . S
H229 C239 0.930 . S
C230 H224 0.930 . S
C230 C231 1.355 . S
C230 C232 1.415 . S
C231 C230 1.355 . S
C231 C233 1.419 . S
C232 C230 1.415 . S
C232 C237 1.425 . S
C232 C239 1.409 . S
C233 H225 0.930 . S
C233 C231 1.419 . S
C233 C234 1.362 . S
C234 H226 0.930 . S
C234 C233 1.362 . S
C234 C237 1.409 . S
C235 H227 0.930 . S
C235 C236 1.355 . S
C235 C237 1.415 . S
C236 C235 1.355 . S
C236 C238 1.419 . S
C237 C232 1.425 . S
C237 C234 1.409 . S
C237 C235 1.415 . S
C238 H228 0.930 . S
C238 C236 1.419 . S
C238 C239 1.362 . S
C239 H229 0.930 . S
C239 C232 1.409 . S
C239 C238 1.362 . S
H240 C246 0.930 . S
H241 C249 0.930 . S
H242 C250 0.930 . S
H243 C251 0.930 . S
H244 C254 0.930 . S
H245 C255 0.930 . S
C246 H240 0.930 . S
C246 C247 1.355 . S
C246 C248 1.415 . S
C247 C246 1.355 . S
C247 C249 1.419 . S
C248 C246 1.415 . S
C248 C253 1.425 . S
C248 C255 1.409 . S
C249 H241 0.930 . S
C249 C247 1.419 . S
C249 C250 1.362 . S
C250 H242 0.930 . S
C250 C249 1.362 . S
C250 C253 1.409 . S
C251 H243 0.930 . S
C251 C252 1.355 . S
C251 C253 1.415 . S
C252 C251 1.355 . S
C252 C254 1.419 . S
C253 C248 1.425 . S
C253 C250 1.409 . S
C253 C251 1.415 . S
C254 H244 0.930 . S
C254 C252 1.419 . S
C254 C255 1.362 . S
C255 H245 0.930 . S
C255 C248 1.409 . S
C255 C254 1.362 . S
H256 C262 0.930 . S
H257 C265 0.930 . S
H258 C266 0.930 . S
H259 C267 0.930 . S
H260 C270 0.930 . S
H261 C271 0.930 . S
C262 H256 0.930 . S
C262 C263 1.355 . S
C262 C264 1.415 . S
C263 C262 1.355 . S
C263 C265 1.419 . S
C264 C262 1.415 . S
C264 C269 1.425 . S
C264 C271 1.409 . S
C265 H257 0.930 . S
C265 C263 1.419 . S
C265 C266 1.362 . S
C266 H258 0.930 . S
C266 C265 1.362 . S
C266 C269 1.409 . S
C267 H259 0.930 . S
C267 C268 1.355 . S
C267 C269 1.415 . S
C268 C267 1.355 . S
C268 C270 1.419 . S
C269 C264 1.425 . S
C269 C266 1.409 . S
C269 C267 1.415 . S
C270 H260 0.930 . S
C270 C268 1.419 . S
C270 C271 1.362 . S
C271 H261 0.930 . S
C271 C264 1.409 . S
C271 C270 1.362 . S
H272 C278 0.930 . S
H273 C281 0.930 . S
H274 C282 0.930 . S
H275 C283 0.930 . S
H276 C286 0.930 . S
H277 C287 0.930 . S
C278 H272 0.930 . S
C278 C279 1.355 . S
C278 C280 1.415 . S
C279 C278 1.355 . S
C279 C281 1.419 . S
C280 C278 1.415 . S
C280 C285 1.425 . S
C280 C287 1.409 . S
C281 H273 0.930 . S
C281 C279 1.419 . S
C281 C282 1.362 . S
C282 H274 0.930 . S
C282 C281 1.362 . S
C282 C285 1.409 . S
C283 H275 0.930 . S
C283 C284 1.355 . S
C283 C285 1.415 . S
C284 C283 1.355 . S
C284 C286 1.419 . S
C285 C280 1.425 . S
C285 C282 1.409 . S
C285 C283 1.415 . S
C286 H276 0.930 . S
C286 C284 1.419 . S
C286 C287 1.362 . S
C287 H277 0.930 . S
C287 C280 1.409 . S
C287 C286 1.362 . S
H288 C294 0.930 . S
H289 C297 0.930 . S
H290 C298 0.930 . S
H291 C299 0.930 . S
H292 C302 0.930 . S
H293 C303 0.930 . S
C294 H288 0.930 . S
C294 C295 1.355 . S
C294 C296 1.415 . S
C295 C294 1.355 . S
C295 C297 1.419 . S
C296 C294 1.415 . S
C296 C301 1.425 . S
C296 C303 1.409 . S
C297 H289 0.930 . S
C297 C295 1.419 . S
C297 C298 1.362 . S
C298 H290 0.930 . S
C298 C297 1.362 . S
C298 C301 1.409 . S
C299 H291 0.930 . S
C299 C300 1.355 . S
C299 C301 1.415 . S
C300 C299 1.355 . S
C300 C302 1.419 . S
C301 C296 1.425 . S
C301 C298 1.409 . S
C301 C299 1.415 . S
C302 H292 0.930 . S
C302 C300 1.419 . S
C302 C303 1.362 . S
C303 H293 0.930 . S
C303 C296 1.409 . S
C303 C302 1.362 . S
H304 C310 0.930 . S
H305 C313 0.930 . S
H306 C314 0.930 . S
H307 C315 0.930 . S
H308 C318 0.930 . S
H309 C319 0.930 . S
C310 H304 0.930 . S
C310 C311 1.355 . S
C310 C312 1.415 . S
C311 C310 1.355 . S
C311 C313 1.419 . S
C312 C310 1.415 . S
C312 C317 1.425 . S
C312 C319 1.409 . S
C313 H305 0.930 . S
C313 C311 1.419 . S
C313 C314 1.362 . S
C314 H306 0.930 . S
C314 C313 1.362 . S
C314 C317 1.409 . S
C315 H307 0.930 . S
C315 C316 1.355 . S
C315 C317 1.415 . S
C316 C315 1.355 . S
C316 C318 1.419 . S
C317 C312 1.425 . S
C317 C314 1.409 . S
C317 C315 1.415 . S
C318 H308 0.930 . S
C318 C316 1.419 . S
C318 C319 1.362 . S
C319 H309 0.930 . S
C319 C312 1.409 . S
C319 C318 1.362 . S
H320 C326 0.930 . S
H321 C329 0.930 . S
H322 C330 0.930 . S
H323 C331 0.930 . S
H324 C334 0.930 . S
H325 C335 0.930 . S
C326 H320 0.930 . S
C326 C327 1.355 . S
C326 C328 1.415 . S
C327 C326 1.355 . S
C327 C329 1.419 . S
C328 C326 1.415 . S
C328 C333 1.425 . S
C328 C335 1.409 . S
C329 H321 0.930 . S
C329 C327 1.419 . S
C329 C330 1.362 . S
C330 H322 0.930 . S
C330 C329 1.362 . S
C330 C333 1.409 . S
C331 H323 0.930 . S
C331 C332 1.355 . S
C331 C333 1.415 . S
C332 C331 1.355 . S
C332 C334 1.419 . S
C333 C328 1.425 . S
C333 C330 1.409 . S
C333 C331 1.415 . S
C334 H324 0.930 . S
C334 C332 1.419 . S
C334 C335 1.362 . S
C335 H325 0.930 . S
C335 C328 1.409 . S
C335 C334 1.362 . S
H336 C342 0.930 . S
H337 C345 0.930 1_554 S
H338 C346 0.930 . S
H339 C347 0.930 . S
H340 C350 0.930 . S
H341 C351 0.930 . S
C342 H336 0.930 . S
C342 C343 1.355 . S
C342 C344 1.415 . S
C343 C342 1.355 . S
C343 C345 1.419 . S
C344 C342 1.415 . S
C344 C349 1.425 . S
C344 C351 1.409 . S
C345 H337 0.930 1_556 S
C345 C343 1.419 . S
C345 C346 1.362 . S
C346 H338 0.930 . S
C346 C345 1.362 . S
C346 C349 1.409 . S
C347 H339 0.930 . S
C347 C348 1.355 . S
C347 C349 1.415 . S
C348 C347 1.355 . S
C348 C350 1.419 . S
C349 C344 1.425 . S
C349 C346 1.409 . S
C349 C347 1.415 . S
C350 H340 0.930 . S
C350 C348 1.419 . S
C350 C351 1.362 . S
C351 H341 0.930 . S
C351 C344 1.409 . S
C351 C350 1.362 . S
H352 C358 0.930 . S
H353 C361 0.930 . S
H354 C362 0.930 . S
H355 C363 0.930 . S
H356 C366 0.930 . S
H357 C367 0.930 . S
C358 H352 0.930 . S
C358 C359 1.355 . S
C358 C360 1.415 . S
C359 C358 1.355 . S
C359 C361 1.419 . S
C360 C358 1.415 . S
C360 C365 1.425 . S
C360 C367 1.409 . S
C361 H353 0.930 . S
C361 C359 1.419 . S
C361 C362 1.362 . S
C362 H354 0.930 . S
C362 C361 1.362 . S
C362 C365 1.409 . S
C363 H355 0.930 . S
C363 C364 1.355 . S
C363 C365 1.415 . S
C364 C363 1.355 . S
C364 C366 1.419 . S
C365 C360 1.425 . S
C365 C362 1.409 . S
C365 C363 1.415 . S
C366 H356 0.930 . S
C366 C364 1.419 . S
C366 C367 1.362 . S
C367 H357 0.930 . S
C367 C360 1.409 . S
C367 C366 1.362 . S
H368 C374 0.930 . S
H369 C377 0.930 1_554 S
H370 C378 0.954 . S
H371 C379 0.930 . S
H372 C382 0.930 . S
H373 C383 0.930 1_565 S
C374 H368 0.930 . S
C374 C375 1.355 . S
C374 C376 1.415 . S
C375 C374 1.355 . S
C375 C377 1.419 . S
C376 C374 1.415 . S
C376 C381 1.425 1_565 S
C376 C383 1.409 1_565 S
C377 H369 0.930 1_556 S
C377 C375 1.419 . S
C377 C378 1.362 1_565 S
C378 H370 0.954 . S
C378 C377 1.362 1_545 S
C378 C381 1.409 . S
C379 H371 0.930 . S
C379 C380 1.355 . S
C379 C381 1.415 . S
C380 C379 1.355 . S
C380 C382 1.419 . S
C381 C376 1.425 1_545 S
C381 C378 1.409 . S
C381 C379 1.415 . S
C382 H372 0.930 . S
C382 C380 1.419 . S
C382 C383 1.362 . S
C383 H373 0.930 1_545 S
C383 C376 1.409 1_545 S
C383 C382 1.362 . S
H384 C390 0.930 . S
H385 C393 0.930 . S
H386 C394 0.930 . S
H387 C395 0.930 . S
H388 C398 0.930 . S
H389 C399 0.930 . S
C390 H384 0.930 . S
C390 C391 1.355 1_565 S
C390 C392 1.415 . S
C391 C390 1.355 1_545 S
C391 C393 1.419 . S
C392 C390 1.415 . S
C392 C397 1.425 . S
C392 C399 1.409 . S
C393 H385 0.930 . S
C393 C391 1.419 . S
C393 C394 1.362 . S
C394 H386 0.930 . S
C394 C393 1.362 . S
C394 C397 1.409 1_545 S
C395 H387 0.930 . S
C395 C396 1.355 . S
C395 C397 1.415 . S
C396 C395 1.355 . S
C396 C398 1.419 . S
C397 C392 1.425 . S
C397 C394 1.409 1_565 S
C397 C395 1.415 . S
C398 H388 0.930 . S
C398 C396 1.419 . S
C398 C399 1.362 . S
C399 H389 0.930 . S
C399 C392 1.409 . S
C399 C398 1.362 . S
H400 C406 0.922 1_545 S
H401 C409 0.930 . S
H402 C410 0.930 . S
H403 C411 0.930 1_565 S
H404 C414 0.930 . S
H405 C415 0.930 . S
C406 H400 0.922 1_565 S
C406 C407 1.366 . S
C406 C408 1.410 1_565 S
C407 C406 1.366 . S
C407 C409 1.419 . S
C408 C406 1.410 1_545 S
C408 C413 1.425 1_545 S
C408 C415 1.409 . S
C409 H401 0.930 . S
C409 C407 1.419 . S
C409 C410 1.362 . S
C410 H402 0.930 . S
C410 C409 1.362 . S
C410 C413 1.409 . S
C411 H403 0.930 1_545 S
C411 C412 1.355 . S
C411 C413 1.415 1_545 S
C412 C411 1.355 . S
C412 C414 1.419 . S
C413 C408 1.425 1_565 S
C413 C410 1.409 . S
C413 C411 1.415 1_565 S
C414 H404 0.930 . S
C414 C412 1.419 . S
C414 C415 1.362 . S
C415 H405 0.930 . S
C415 C408 1.409 . S
C415 C414 1.362 . S
H416 C422 0.930 1_565 S
H417 C425 0.930 . S
H418 C426 0.930 . S
H419 C427 0.930 . S
H420 C430 0.930 . S
H421 C431 0.930 . S
C422 H416 0.930 1_545 S
C422 C423 1.355 . S
C422 C424 1.415 1_545 S
C423 C422 1.355 . S
C423 C425 1.419 . S
C424 C422 1.415 1_565 S
C424 C429 1.425 1_565 S
C424 C431 1.409 . S
C425 H417 0.930 . S
C425 C423 1.419 . S
C425 C426 1.362 . S
C426 H418 0.930 . S
C426 C425 1.362 . S
C426 C429 1.409 . S
C427 H419 0.930 . S
C427 C428 1.355 . S
C427 C429 1.415 1_565 S
C428 C427 1.355 . S
C428 C430 1.419 . S
C429 C424 1.425 1_545 S
C429 C426 1.409 . S
C429 C427 1.415 1_545 S
C430 H420 0.930 . S
C430 C428 1.419 . S
C430 C431 1.362 . S
C431 H421 0.930 . S
C431 C424 1.409 . S
C431 C430 1.362 . S
H432 C438 0.930 . S
H433 C441 0.930 . S
H434 C442 0.930 . S
H435 C443 0.930 . S
H436 C446 0.930 . S
H437 C447 0.930 . S
C438 H432 0.930 . S
C438 C439 1.355 . S
C438 C440 1.415 . S
C439 C438 1.355 . S
C439 C441 1.419 . S
C440 C438 1.415 . S
C440 C445 1.425 . S
C440 C447 1.409 . S
C441 H433 0.930 . S
C441 C439 1.419 . S
C441 C442 1.362 . S
C442 H434 0.930 . S
C442 C441 1.362 . S
C442 C445 1.409 . S
C443 H435 0.930 . S
C443 C444 1.355 . S
C443 C445 1.415 . S
C444 C443 1.355 . S
C444 C446 1.419 . S
C445 C440 1.425 . S
C445 C442 1.409 . S
C445 C443 1.415 . S
C446 H436 0.930 . S
C446 C444 1.419 . S
C446 C447 1.362 . S
C447 H437 0.930 . S
C447 C440 1.409 . S
C447 C446 1.362 . S
H448 C454 0.930 . S
H449 C457 0.930 . S
H450 C458 0.930 . S
H451 C459 0.930 . S
H452 C462 0.930 . S
H453 C463 0.930 . S
C454 H448 0.930 . S
C454 C455 1.355 . S
C454 C456 1.415 . S
C455 C454 1.355 . S
C455 C457 1.419 . S
C456 C454 1.415 . S
C456 C461 1.425 . S
C456 C463 1.409 . S
C457 H449 0.930 . S
C457 C455 1.419 . S
C457 C458 1.362 . S
C458 H450 0.930 . S
C458 C457 1.362 . S
C458 C461 1.409 . S
C459 H451 0.930 . S
C459 C460 1.355 . S
C459 C461 1.415 . S
C460 C459 1.355 . S
C460 C462 1.419 . S
C461 C456 1.425 . S
C461 C458 1.409 . S
C461 C459 1.415 . S
C462 H452 0.930 . S
C462 C460 1.419 . S
C462 C463 1.362 . S
C463 H453 0.930 . S
C463 C456 1.409 . S
C463 C462 1.362 . S
H464 C470 0.930 . S
H465 C473 0.930 . S
H466 C474 0.930 . S
H467 C475 0.930 . S
H468 C478 0.930 . S
H469 C479 0.930 . S
C470 H464 0.930 . S
C470 C471 1.355 . S
C470 C472 1.415 . S
C471 C470 1.355 . S
C471 C473 1.419 . S
C472 C470 1.415 . S
C472 C477 1.425 . S
C472 C479 1.409 . S
C473 H465 0.930 . S
C473 C471 1.419 . S
C473 C474 1.362 . S
C474 H466 0.930 . S
C474 C473 1.362 . S
C474 C477 1.409 . S
C475 H467 0.930 . S
C475 C476 1.355 . S
C475 C477 1.415 . S
C476 C475 1.355 . S
C476 C478 1.419 . S
C477 C472 1.425 . S
C477 C474 1.409 . S
C477 C475 1.415 . S
C478 H468 0.930 . S
C478 C476 1.419 . S
C478 C479 1.362 . S
C479 H469 0.930 . S
C479 C472 1.409 . S
C479 C478 1.362 . S
H480 C486 0.930 . S
H481 C489 0.930 . S
H482 C490 0.930 . S
H483 C491 0.930 . S
H484 C494 0.930 . S
H485 C495 0.930 . S
C486 H480 0.930 . S
C486 C487 1.355 . S
C486 C488 1.415 . S
C487 C486 1.355 . S
C487 C489 1.419 . S
C488 C486 1.415 . S
C488 C493 1.425 . S
C488 C495 1.409 . S
C489 H481 0.930 . S
C489 C487 1.419 . S
C489 C490 1.362 . S
C490 H482 0.930 . S
C490 C489 1.362 . S
C490 C493 1.409 . S
C491 H483 0.930 . S
C491 C492 1.355 . S
C491 C493 1.415 . S
C492 C491 1.355 . S
C492 C494 1.419 . S
C493 C488 1.425 . S
C493 C490 1.409 . S
C493 C491 1.415 . S
C494 H484 0.930 . S
C494 C492 1.419 . S
C494 C495 1.362 . S
C495 H485 0.930 . S
C495 C488 1.409 . S
C495 C494 1.362 . S
H496 C502 0.930 . S
H497 C505 0.930 . S
H498 C506 0.930 . S
H499 C507 0.930 . S
H500 C510 0.930 . S
H501 C511 0.930 . S
C502 H496 0.930 . S
C502 C503 1.355 . S
C502 C504 1.415 . S
C503 C502 1.355 . S
C503 C505 1.419 . S
C504 C502 1.415 . S
C504 C509 1.425 . S
C504 C511 1.409 . S
C505 H497 0.930 . S
C505 C503 1.419 . S
C505 C506 1.362 . S
C506 H498 0.930 . S
C506 C505 1.362 . S
C506 C509 1.409 . S
C507 H499 0.930 . S
C507 C508 1.355 . S
C507 C509 1.415 . S
C508 C507 1.355 . S
C508 C510 1.419 . S
C509 C504 1.425 . S
C509 C506 1.409 . S
C509 C507 1.415 . S
C510 H500 0.930 . S
C510 C508 1.419 . S
C510 C511 1.362 . S
C511 H501 0.930 . S
C511 C504 1.409 . S
C511 C510 1.362 . S
H512 C518 0.930 . S
H513 C521 0.930 . S
H514 C522 0.930 . S
H515 C523 0.930 . S
H516 C526 0.930 . S
H517 C527 0.930 . S
C518 H512 0.930 . S
C518 C519 1.355 . S
C518 C520 1.415 . S
C519 C518 1.355 . S
C519 C521 1.419 . S
C520 C518 1.415 . S
C520 C525 1.425 . S
C520 C527 1.409 . S
C521 H513 0.930 . S
C521 C519 1.419 . S
C521 C522 1.362 . S
C522 H514 0.930 . S
C522 C521 1.362 . S
C522 C525 1.409 . S
C523 H515 0.930 . S
C523 C524 1.355 . S
C523 C525 1.415 . S
C524 C523 1.355 . S
C524 C526 1.419 . S
C525 C520 1.425 . S
C525 C522 1.409 . S
C525 C523 1.415 . S
C526 H516 0.930 . S
C526 C524 1.419 . S
C526 C527 1.362 . S
C527 H517 0.930 . S
C527 C520 1.409 . S
C527 C526 1.362 . S
H528 C534 0.930 . S
H529 C537 0.930 . S
H530 C538 0.930 . S
H531 C539 0.930 . S
H532 C542 0.930 . S
H533 C543 0.930 . S
C534 H528 0.930 . S
C534 C535 1.355 . S
C534 C536 1.415 . S
C535 C534 1.355 . S
C535 C537 1.419 . S
C536 C534 1.415 . S
C536 C541 1.425 . S
C536 C543 1.409 . S
C537 H529 0.930 . S
C537 C535 1.419 . S
C537 C538 1.362 . S
C538 H530 0.930 . S
C538 C537 1.362 . S
C538 C541 1.409 . S
C539 H531 0.930 . S
C539 C540 1.355 . S
C539 C541 1.415 . S
C540 C539 1.355 . S
C540 C542 1.419 . S
C541 C536 1.425 . S
C541 C538 1.409 . S
C541 C539 1.415 . S
C542 H532 0.930 . S
C542 C540 1.419 . S
C542 C543 1.362 . S
C543 H533 0.930 . S
C543 C536 1.409 . S
C543 C542 1.362 . S
H544 C550 0.930 . S
H545 C553 0.930 . S
H546 C554 0.930 . S
H547 C555 0.930 . S
H548 C558 0.930 . S
H549 C559 0.930 . S
C550 H544 0.930 . S
C550 C551 1.355 . S
C550 C552 1.415 . S
C551 C550 1.355 . S
C551 C553 1.419 . S
C552 C550 1.415 . S
C552 C557 1.425 . S
C552 C559 1.409 . S
C553 H545 0.930 . S
C553 C551 1.419 . S
C553 C554 1.362 . S
C554 H546 0.930 . S
C554 C553 1.362 . S
C554 C557 1.409 . S
C555 H547 0.930 . S
C555 C556 1.355 . S
C555 C557 1.415 . S
C556 C555 1.355 . S
C556 C558 1.419 . S
C557 C552 1.425 . S
C557 C554 1.409 . S
C557 C555 1.415 . S
C558 H548 0.930 . S
C558 C556 1.419 . S
C558 C559 1.362 . S
C559 H549 0.930 . S
C559 C552 1.409 . S
C559 C558 1.362 . S
C183 C8 1.693 . S
C188 C114 1.697 . S
C204 C92 1.417 . S
C199 C19 1.435 . S
C220 C118 1.501 . S
C215 C30 1.544 . S
C236 C96 1.543 . S
C231 C41 1.548 . S
C252 C158 1.649 . S
C247 C52 1.645 . S
C268 C136 1.431 . S
C263 C63 1.439 . S
C279 C74 1.546 . S
C284 C162 1.492 . S
C300 C140 1.544 . S
C295 C85 1.549 . S
C311 C7 1.674 . S
C316 C163 1.697 . S
C332 C141 1.329 . S
C327 C16 1.216 . S
C343 C29 1.593 . S
C348 C160 1.589 . S
C359 C40 1.503 . S
C364 C138 1.485 . S
C380 C119 1.721 . S
C375 C51 1.662 . S
C391 C60 1.296 . S
C396 C97 1.334 . S
C412 C116 1.583 . S
C407 C73 1.588 . S
C428 C94 1.525 . S
C423 C84 1.530 . S
C444 C137 1.440 . S
C439 C5 1.287 . S
C460 C159 1.486 . S
C455 C18 1.492 . S
C471 C27 1.305 . S
C476 C139 1.459 . S
C492 C161 1.445 . S
C487 C38 1.331 . S
C508 C93 1.478 . S
C503 C49 1.130 . S
C519 C62 1.463 . S
C524 C115 1.444 . S
C535 C71 1.309 . S
C540 C95 1.471 . S
C551 C82 1.357 . S
C556 C117 1.480 . S
