# Generated by pormake.
# Topology gar, (4,6)-cn, num edge types: 1
# Building blocks:
#     Node 0, Type 0, BuildingBlock: NAHDIM_clean_sbu_0, # of connection points: 4
#     Node 1, Type 0, BuildingBlock: NAHDIM_clean_sbu_0, # of connection points: 4
#     Node 2, Type 0, BuildingBlock: NAHDIM_clean_sbu_0, # of connection points: 4
#     Node 3, Type 0, BuildingBlock: NAHDIM_clean_sbu_0, # of connection points: 4
#     Node 4, Type 0, BuildingBlock: NAHDIM_clean_sbu_0, # of connection points: 4
#     Node 5, Type 0, BuildingBlock: NAHDIM_clean_sbu_0, # of connection points: 4
#     Node 6, Type 0, BuildingBlock: NAHDIM_clean_sbu_0, # of connection points: 4
#     Node 7, Type 0, BuildingBlock: NAHDIM_clean_sbu_0, # of connection points: 4
#     Node 8, Type 0, BuildingBlock: NAHDIM_clean_sbu_0, # of connection points: 4
#     Node 9, Type 0, BuildingBlock: NAHDIM_clean_sbu_0, # of connection points: 4
#     Node 10, Type 0, BuildingBlock: NAHDIM_clean_sbu_0, # of connection points: 4
#     Node 11, Type 0, BuildingBlock: NAHDIM_clean_sbu_0, # of connection points: 4
#     Node 12, Type 0, BuildingBlock: NAHDIM_clean_sbu_0, # of connection points: 4
#     Node 13, Type 0, BuildingBlock: NAHDIM_clean_sbu_0, # of connection points: 4
#     Node 14, Type 0, BuildingBlock: NAHDIM_clean_sbu_0, # of connection points: 4
#     Node 15, Type 0, BuildingBlock: NAHDIM_clean_sbu_0, # of connection points: 4
#     Node 16, Type 0, BuildingBlock: NAHDIM_clean_sbu_0, # of connection points: 4
#     Node 17, Type 0, BuildingBlock: NAHDIM_clean_sbu_0, # of connection points: 4
#     Node 18, Type 0, BuildingBlock: NAHDIM_clean_sbu_0, # of connection points: 4
#     Node 19, Type 0, BuildingBlock: NAHDIM_clean_sbu_0, # of connection points: 4
#     Node 20, Type 0, BuildingBlock: NAHDIM_clean_sbu_0, # of connection points: 4
#     Node 21, Type 0, BuildingBlock: NAHDIM_clean_sbu_0, # of connection points: 4
#     Node 22, Type 0, BuildingBlock: NAHDIM_clean_sbu_0, # of connection points: 4
#     Node 23, Type 0, BuildingBlock: NAHDIM_clean_sbu_0, # of connection points: 4
#     Node 24, Type 1, BuildingBlock: KUMBUR_clean_sbu_1, # of connection points: 6
#     Node 25, Type 1, BuildingBlock: KUMBUR_clean_sbu_1, # of connection points: 6
#     Node 26, Type 1, BuildingBlock: KUMBUR_clean_sbu_1, # of connection points: 6
#     Node 27, Type 1, BuildingBlock: KUMBUR_clean_sbu_1, # of connection points: 6
#     Node 28, Type 1, BuildingBlock: KUMBUR_clean_sbu_1, # of connection points: 6
#     Node 29, Type 1, BuildingBlock: KUMBUR_clean_sbu_1, # of connection points: 6
#     Node 30, Type 1, BuildingBlock: KUMBUR_clean_sbu_1, # of connection points: 6
#     Node 31, Type 1, BuildingBlock: KUMBUR_clean_sbu_1, # of connection points: 6
#     Node 32, Type 1, BuildingBlock: KUMBUR_clean_sbu_1, # of connection points: 6
#     Node 33, Type 1, BuildingBlock: KUMBUR_clean_sbu_1, # of connection points: 6
#     Node 34, Type 1, BuildingBlock: KUMBUR_clean_sbu_1, # of connection points: 6
#     Node 35, Type 1, BuildingBlock: KUMBUR_clean_sbu_1, # of connection points: 6
#     Node 36, Type 1, BuildingBlock: KUMBUR_clean_sbu_1, # of connection points: 6
#     Node 37, Type 1, BuildingBlock: KUMBUR_clean_sbu_1, # of connection points: 6
#     Node 38, Type 1, BuildingBlock: KUMBUR_clean_sbu_1, # of connection points: 6
#     Node 39, Type 1, BuildingBlock: KUMBUR_clean_sbu_1, # of connection points: 6
#     Edge 40, Type (0, 1), BuildingBlock: KIFKEQ_clean_linker_1, # of connection points: 2
#     Edge 41, Type (0, 1), BuildingBlock: KIFKEQ_clean_linker_1, # of connection points: 2
#     Edge 42, Type (0, 1), BuildingBlock: KIFKEQ_clean_linker_1, # of connection points: 2
#     Edge 43, Type (0, 1), BuildingBlock: KIFKEQ_clean_linker_1, # of connection points: 2
#     Edge 44, Type (0, 1), BuildingBlock: KIFKEQ_clean_linker_1, # of connection points: 2
#     Edge 45, Type (0, 1), BuildingBlock: KIFKEQ_clean_linker_1, # of connection points: 2
#     Edge 46, Type (0, 1), BuildingBlock: KIFKEQ_clean_linker_1, # of connection points: 2
#     Edge 47, Type (0, 1), BuildingBlock: KIFKEQ_clean_linker_1, # of connection points: 2
#     Edge 48, Type (0, 1), BuildingBlock: KIFKEQ_clean_linker_1, # of connection points: 2
#     Edge 49, Type (0, 1), BuildingBlock: KIFKEQ_clean_linker_1, # of connection points: 2
#     Edge 50, Type (0, 1), BuildingBlock: KIFKEQ_clean_linker_1, # of connection points: 2
#     Edge 51, Type (0, 1), BuildingBlock: KIFKEQ_clean_linker_1, # of connection points: 2
#     Edge 52, Type (0, 1), BuildingBlock: KIFKEQ_clean_linker_1, # of connection points: 2
#     Edge 53, Type (0, 1), BuildingBlock: KIFKEQ_clean_linker_1, # of connection points: 2
#     Edge 54, Type (0, 1), BuildingBlock: KIFKEQ_clean_linker_1, # of connection points: 2
#     Edge 55, Type (0, 1), BuildingBlock: KIFKEQ_clean_linker_1, # of connection points: 2
#     Edge 56, Type (0, 1), BuildingBlock: KIFKEQ_clean_linker_1, # of connection points: 2
#     Edge 57, Type (0, 1), BuildingBlock: KIFKEQ_clean_linker_1, # of connection points: 2
#     Edge 58, Type (0, 1), BuildingBlock: KIFKEQ_clean_linker_1, # of connection points: 2
#     Edge 59, Type (0, 1), BuildingBlock: KIFKEQ_clean_linker_1, # of connection points: 2
#     Edge 60, Type (0, 1), BuildingBlock: KIFKEQ_clean_linker_1, # of connection points: 2
#     Edge 61, Type (0, 1), BuildingBlock: KIFKEQ_clean_linker_1, # of connection points: 2
#     Edge 62, Type (0, 1), BuildingBlock: KIFKEQ_clean_linker_1, # of connection points: 2
#     Edge 63, Type (0, 1), BuildingBlock: KIFKEQ_clean_linker_1, # of connection points: 2
#     Edge 64, Type (0, 1), BuildingBlock: KIFKEQ_clean_linker_1, # of connection points: 2
#     Edge 65, Type (0, 1), BuildingBlock: KIFKEQ_clean_linker_1, # of connection points: 2
#     Edge 66, Type (0, 1), BuildingBlock: KIFKEQ_clean_linker_1, # of connection points: 2
#     Edge 67, Type (0, 1), BuildingBlock: KIFKEQ_clean_linker_1, # of connection points: 2
#     Edge 68, Type (0, 1), BuildingBlock: KIFKEQ_clean_linker_1, # of connection points: 2
#     Edge 69, Type (0, 1), BuildingBlock: KIFKEQ_clean_linker_1, # of connection points: 2
#     Edge 70, Type (0, 1), BuildingBlock: KIFKEQ_clean_linker_1, # of connection points: 2
#     Edge 71, Type (0, 1), BuildingBlock: KIFKEQ_clean_linker_1, # of connection points: 2
#     Edge 72, Type (0, 1), BuildingBlock: KIFKEQ_clean_linker_1, # of connection points: 2
#     Edge 73, Type (0, 1), BuildingBlock: KIFKEQ_clean_linker_1, # of connection points: 2
#     Edge 74, Type (0, 1), BuildingBlock: KIFKEQ_clean_linker_1, # of connection points: 2
#     Edge 75, Type (0, 1), BuildingBlock: KIFKEQ_clean_linker_1, # of connection points: 2
#     Edge 76, Type (0, 1), BuildingBlock: KIFKEQ_clean_linker_1, # of connection points: 2
#     Edge 77, Type (0, 1), BuildingBlock: KIFKEQ_clean_linker_1, # of connection points: 2
#     Edge 78, Type (0, 1), BuildingBlock: KIFKEQ_clean_linker_1, # of connection points: 2
#     Edge 79, Type (0, 1), BuildingBlock: KIFKEQ_clean_linker_1, # of connection points: 2
#     Edge 80, Type (0, 1), BuildingBlock: KIFKEQ_clean_linker_1, # of connection points: 2
#     Edge 81, Type (0, 1), BuildingBlock: KIFKEQ_clean_linker_1, # of connection points: 2
#     Edge 82, Type (0, 1), BuildingBlock: KIFKEQ_clean_linker_1, # of connection points: 2
#     Edge 83, Type (0, 1), BuildingBlock: KIFKEQ_clean_linker_1, # of connection points: 2
#     Edge 84, Type (0, 1), BuildingBlock: KIFKEQ_clean_linker_1, # of connection points: 2
#     Edge 85, Type (0, 1), BuildingBlock: KIFKEQ_clean_linker_1, # of connection points: 2
#     Edge 86, Type (0, 1), BuildingBlock: KIFKEQ_clean_linker_1, # of connection points: 2
#     Edge 87, Type (0, 1), BuildingBlock: KIFKEQ_clean_linker_1, # of connection points: 2
#     Edge 88, Type (0, 1), BuildingBlock: KIFKEQ_clean_linker_1, # of connection points: 2
#     Edge 89, Type (0, 1), BuildingBlock: KIFKEQ_clean_linker_1, # of connection points: 2
#     Edge 90, Type (0, 1), BuildingBlock: KIFKEQ_clean_linker_1, # of connection points: 2
#     Edge 91, Type (0, 1), BuildingBlock: KIFKEQ_clean_linker_1, # of connection points: 2
#     Edge 92, Type (0, 1), BuildingBlock: KIFKEQ_clean_linker_1, # of connection points: 2
#     Edge 93, Type (0, 1), BuildingBlock: KIFKEQ_clean_linker_1, # of connection points: 2
#     Edge 94, Type (0, 1), BuildingBlock: KIFKEQ_clean_linker_1, # of connection points: 2
#     Edge 95, Type (0, 1), BuildingBlock: KIFKEQ_clean_linker_1, # of connection points: 2
#     Edge 96, Type (0, 1), BuildingBlock: KIFKEQ_clean_linker_1, # of connection points: 2
#     Edge 97, Type (0, 1), BuildingBlock: KIFKEQ_clean_linker_1, # of connection points: 2
#     Edge 98, Type (0, 1), BuildingBlock: KIFKEQ_clean_linker_1, # of connection points: 2
#     Edge 99, Type (0, 1), BuildingBlock: KIFKEQ_clean_linker_1, # of connection points: 2
#     Edge 100, Type (0, 1), BuildingBlock: KIFKEQ_clean_linker_1, # of connection points: 2
#     Edge 101, Type (0, 1), BuildingBlock: KIFKEQ_clean_linker_1, # of connection points: 2
#     Edge 102, Type (0, 1), BuildingBlock: KIFKEQ_clean_linker_1, # of connection points: 2
#     Edge 103, Type (0, 1), BuildingBlock: KIFKEQ_clean_linker_1, # of connection points: 2
#     Edge 104, Type (0, 1), BuildingBlock: KIFKEQ_clean_linker_1, # of connection points: 2
#     Edge 105, Type (0, 1), BuildingBlock: KIFKEQ_clean_linker_1, # of connection points: 2
#     Edge 106, Type (0, 1), BuildingBlock: KIFKEQ_clean_linker_1, # of connection points: 2
#     Edge 107, Type (0, 1), BuildingBlock: KIFKEQ_clean_linker_1, # of connection points: 2
#     Edge 108, Type (0, 1), BuildingBlock: KIFKEQ_clean_linker_1, # of connection points: 2
#     Edge 109, Type (0, 1), BuildingBlock: KIFKEQ_clean_linker_1, # of connection points: 2
#     Edge 110, Type (0, 1), BuildingBlock: KIFKEQ_clean_linker_1, # of connection points: 2
#     Edge 111, Type (0, 1), BuildingBlock: KIFKEQ_clean_linker_1, # of connection points: 2
#     Edge 112, Type (0, 1), BuildingBlock: KIFKEQ_clean_linker_1, # of connection points: 2
#     Edge 113, Type (0, 1), BuildingBlock: KIFKEQ_clean_linker_1, # of connection points: 2
#     Edge 114, Type (0, 1), BuildingBlock: KIFKEQ_clean_linker_1, # of connection points: 2
#     Edge 115, Type (0, 1), BuildingBlock: KIFKEQ_clean_linker_1, # of connection points: 2
#     Edge 116, Type (0, 1), BuildingBlock: KIFKEQ_clean_linker_1, # of connection points: 2
#     Edge 117, Type (0, 1), BuildingBlock: KIFKEQ_clean_linker_1, # of connection points: 2
#     Edge 118, Type (0, 1), BuildingBlock: KIFKEQ_clean_linker_1, # of connection points: 2
#     Edge 119, Type (0, 1), BuildingBlock: KIFKEQ_clean_linker_1, # of connection points: 2
#     Edge 120, Type (0, 1), BuildingBlock: KIFKEQ_clean_linker_1, # of connection points: 2
#     Edge 121, Type (0, 1), BuildingBlock: KIFKEQ_clean_linker_1, # of connection points: 2
#     Edge 122, Type (0, 1), BuildingBlock: KIFKEQ_clean_linker_1, # of connection points: 2
#     Edge 123, Type (0, 1), BuildingBlock: KIFKEQ_clean_linker_1, # of connection points: 2
#     Edge 124, Type (0, 1), BuildingBlock: KIFKEQ_clean_linker_1, # of connection points: 2
#     Edge 125, Type (0, 1), BuildingBlock: KIFKEQ_clean_linker_1, # of connection points: 2
#     Edge 126, Type (0, 1), BuildingBlock: KIFKEQ_clean_linker_1, # of connection points: 2
#     Edge 127, Type (0, 1), BuildingBlock: KIFKEQ_clean_linker_1, # of connection points: 2
#     Edge 128, Type (0, 1), BuildingBlock: KIFKEQ_clean_linker_1, # of connection points: 2
#     Edge 129, Type (0, 1), BuildingBlock: KIFKEQ_clean_linker_1, # of connection points: 2
#     Edge 130, Type (0, 1), BuildingBlock: KIFKEQ_clean_linker_1, # of connection points: 2
#     Edge 131, Type (0, 1), BuildingBlock: KIFKEQ_clean_linker_1, # of connection points: 2
#     Edge 132, Type (0, 1), BuildingBlock: KIFKEQ_clean_linker_1, # of connection points: 2
#     Edge 133, Type (0, 1), BuildingBlock: KIFKEQ_clean_linker_1, # of connection points: 2
#     Edge 134, Type (0, 1), BuildingBlock: KIFKEQ_clean_linker_1, # of connection points: 2
#     Edge 135, Type (0, 1), BuildingBlock: KIFKEQ_clean_linker_1, # of connection points: 2
# Relax obj value: 0.081
# Max RMSD: 0.197
# Mean RMSD: 0.135
data_MOF--net-gar--node1-NAHDIM_clean_sbu_0--node2-KUMBUR_clean_sbu_1--edge1-KIFKEQ_clean_linker_1
_symmetry_space_group_name_H-M    P1
_symmetry_Int_Tables_number       1
_symmetry_cell_setting            triclinic
loop_
_symmetry_equiv_pos_as_xyz
'x, y, z'
_cell_length_a     61.529871
_cell_length_b     60.686625
_cell_length_c     55.763365
_cell_angle_alpha  96.307989
_cell_angle_beta   96.48963
_cell_angle_gamma 101.72997
loop_
_atom_site_label
_atom_site_type_symbol
_atom_site_fract_x
_atom_site_fract_y
_atom_site_fract_z
_atom_type_partial_charge
C0 C 0.10012 0.31067 0.34585 0.0
O1 O 0.09519 0.29562 0.36072 0.0
O2 O 0.05476 0.295 0.38023 0.0
Zn3 Zn 0.05602 0.32231 0.36031 0.0
O4 O 0.06141 0.35261 0.38473 0.0
C5 C 1.00629 0.30188 0.33636 0.0
O6 O 1.01108 0.28237 0.34044 0.0
O7 O 0.08607 0.32349 0.34156 0.0
C8 C 0.04641 0.3569 0.3976 0.0
O9 O 0.02746 0.34185 0.39557 0.0
C10 C 0.03865 0.28656 0.39134 0.0
O11 O 0.02117 0.29586 0.39125 0.0
O12 O 0.0224 0.31971 0.34085 0.0
C13 C 0.98233 0.7656 0.71347 0.0
O14 O 0.98246 0.76783 0.69031 0.0
O15 O 0.02494 0.72572 0.68511 0.0
Zn16 Zn 0.02934 0.75809 0.70597 0.0
O17 O 0.0316 0.78234 0.68246 0.0
C18 C 0.07914 0.7643 0.71435 0.0
O19 O 0.07437 0.76196 0.69051 0.0
O20 O 1.00011 0.76117 0.72489 0.0
C21 C 0.03144 0.8029 0.69011 0.0
O22 O 0.02982 0.80829 0.71321 0.0
C23 C 0.02612 0.72278 0.66221 0.0
O24 O 0.02875 0.74067 0.65066 0.0
O25 O 0.06258 0.76368 0.72671 0.0
C26 C 0.60318 0.81462 0.84888 0.0
O27 O 0.60161 0.80787 0.87032 0.0
O28 O 0.55359 0.79378 0.87633 0.0
Zn29 Zn 0.55671 0.82157 0.85773 0.0
O30 O 0.56244 0.85156 0.88305 0.0
C31 C 0.50627 0.8082 0.84734 0.0
O32 O 0.51054 0.80036 0.868 0.0
O33 O 0.58624 0.82144 0.83872 0.0
C34 C 0.54608 0.85999 0.8892 0.0
O35 O 0.5257 0.84959 0.87938 0.0
C36 C 0.56136 0.79264 0.89824 0.0
O37 O 0.57364 0.811 0.91176 0.0
O38 O 0.52323 0.81753 0.83748 0.0
C39 C 0.4804 0.25206 0.21556 0.0
O40 O 0.47623 0.23713 0.19578 0.0
O41 O 0.52535 0.22466 0.18282 0.0
Zn42 Zn 0.53008 0.25716 0.20408 0.0
O43 O 0.53241 0.28165 0.18058 0.0
C44 C 0.57939 0.25802 0.21387 0.0
O45 O 0.57446 0.25087 0.19041 0.0
O46 O 0.50118 0.26169 0.22324 0.0
C47 C 0.54461 0.30162 0.18681 0.0
O48 O 0.55633 0.3066 0.20864 0.0
C49 C 0.52938 0.22236 0.16069 0.0
O50 O 0.53492 0.24082 0.15045 0.0
O51 O 0.56328 0.26238 0.22522 0.0
C52 C 0.03051 0.80542 0.13269 0.0
O53 O 0.02783 0.81328 0.11178 0.0
O54 O 0.06961 0.76735 0.09981 0.0
Zn55 Zn 0.07398 0.80178 0.11709 0.0
O56 O 0.07013 0.82951 0.0959 0.0
C57 C 0.12152 0.80052 0.13541 0.0
O58 O 0.12068 0.7904 0.11315 0.0
O59 O 0.0489 0.79967 0.13913 0.0
C60 C 0.08055 0.85042 0.1022 0.0
O61 O 0.096 0.85506 0.12141 0.0
C62 C 0.06792 0.75693 0.07812 0.0
O63 O 0.06859 0.76891 0.05988 0.0
O64 O 0.10442 0.80793 0.14098 0.0
C65 C 0.55672 0.77297 0.42915 0.0
O66 O 0.55984 0.76288 0.44853 0.0
O67 O 0.513 0.74216 0.4596 0.0
Zn68 Zn 0.51276 0.77462 0.44562 0.0
O69 O 0.51719 0.80715 0.46823 0.0
C70 C 0.4641 0.77179 0.42716 0.0
O71 O 0.46203 0.77421 0.45044 0.0
O72 O 0.53831 0.77925 0.42447 0.0
C73 C 0.51341 0.82382 0.45707 0.0
O74 O 0.50676 0.81934 0.43348 0.0
C75 C 0.52154 0.7368 0.47976 0.0
O76 O 0.53165 0.75335 0.49708 0.0
O77 O 0.48338 0.77099 0.42109 0.0
C78 C 0.53092 0.30346 0.63164 0.0
O79 O 0.5274 0.30936 0.6098 0.0
O80 O 0.57037 0.26618 0.59906 0.0
Zn81 Zn 0.57492 0.30076 0.61653 0.0
O82 O 0.5713 0.32872 0.59554 0.0
C83 C 0.62059 0.29532 0.63607 0.0
O84 O 0.61698 0.2811 0.61578 0.0
O85 O 0.54991 0.29914 0.63869 0.0
C86 C 0.58106 0.3497 0.60287 0.0
O87 O 0.59546 0.35412 0.62296 0.0
C88 C 0.56556 0.25529 0.57737 0.0
O89 O 0.56191 0.26667 0.55914 0.0
O90 O 0.60574 0.30681 0.64018 0.0
C91 C 0.05482 0.27103 0.92859 0.0
O92 O 0.05778 0.26032 0.94751 0.0
O93 O 0.01716 0.24613 0.96684 0.0
Zn94 Zn 1.01334 0.27578 0.94881 0.0
O95 O 0.01989 0.30884 0.97039 0.0
C96 C 0.96961 0.25744 0.9118 0.0
O97 O 0.97618 0.23835 0.90695 0.0
O98 O 0.03711 0.27885 0.92515 0.0
C99 C 1.01356 0.32479 0.95986 0.0
O100 O 1.00349 0.31942 0.93729 0.0
C101 C 1.0028 0.2273 0.96631 0.0
O102 O 0.98229 0.22583 0.9557 0.0
O103 O 0.98181 0.27304 0.92791 0.0
C104 C 0.36818 0.06579 0.32716 0.0
O105 O 0.38548 0.06675 0.34367 0.0
O106 O 0.40247 0.03674 0.28413 0.0
Zn107 Zn 0.38083 0.02676 0.30713 0.0
O108 O 0.39704 0.02496 0.33952 0.0
C109 C 0.37261 0.98331 0.28165 0.0
O110 O 0.39408 0.98996 0.28044 0.0
O111 O 0.36217 0.04889 0.31056 0.0
C112 C 0.40137 1.00689 0.34634 0.0
O113 O 0.3941 0.98744 0.33215 0.0
C114 C 0.42307 0.03652 0.28893 0.0
O115 O 0.43073 0.0322 0.31047 0.0
O116 O 0.36241 0.99671 0.29251 0.0
C117 C 0.31028 0.1568 0.50333 0.0
O118 O 0.30415 0.16059 0.48109 0.0
O119 O 0.27607 0.19771 0.55002 0.0
Zn120 Zn 0.27472 0.17953 0.51661 0.0
O121 O 0.28006 0.19825 0.4885 0.0
C122 C 0.2274 0.16258 0.51564 0.0
O123 O 0.22884 0.18397 0.5241 0.0
O124 O 0.29983 0.16287 0.52045 0.0
C125 C 0.26604 0.20758 0.47713 0.0
O126 O 0.24627 0.2065 0.48425 0.0
C127 C 0.27694 0.2187 0.55636 0.0
O128 O 0.27711 0.23239 0.53966 0.0
O129 O 0.24497 0.15639 0.51012 0.0
C130 C 0.17337 0.02172 0.80442 0.0
O131 O 0.17182 0.02906 0.82709 0.0
O132 O 0.12938 0.05815 0.76232 0.0
Zn133 Zn 0.14956 0.05692 0.79374 0.0
O134 O 0.13489 0.05319 0.82469 0.0
C135 C 0.16687 0.10439 0.79574 0.0
O136 O 0.14536 0.10354 0.79017 0.0
O137 O 0.16505 0.03105 0.78733 0.0
C138 C 0.11475 0.05329 0.82779 0.0
O139 O 0.10076 0.05649 0.80957 0.0
C140 C 0.11085 0.04545 0.75204 0.0
O141 O 0.10102 0.0287 0.7628 0.0
O142 O 0.17318 0.08615 0.79917 0.0
C143 C 0.26196 0.96089 0.98305 0.0
O144 O 0.26139 0.93996 0.97352 0.0
O145 O 0.29698 0.93927 0.03536 0.0
Zn146 Zn 0.30273 0.95591 0.0068 0.0
O147 O 0.30479 0.93391 0.97872 0.0
C148 C 0.34724 0.96487 0.01808 0.0
O149 O 0.34117 0.9426 0.0154 0.0
O150 O 0.27885 0.97173 0.99794 0.0
C151 C 0.31358 0.93841 0.9599 0.0
O152 O 0.3216 0.9596 0.95709 0.0
C153 C 0.29462 0.91785 0.03236 0.0
O154 O 0.29334 0.90699 0.0104 0.0
O155 O 0.33239 0.97649 0.01548 0.0
C156 C 0.26709 0.41711 0.05317 0.0
O157 O 0.26593 0.40562 0.07179 0.0
O158 O 0.30162 0.38097 0.074 0.0
Zn159 Zn 0.30677 0.3986 0.04495 0.0
O160 O 0.30611 0.37999 0.01186 0.0
C161 C 0.3536 0.41677 0.04406 0.0
O162 O 0.3525 0.39578 0.03432 0.0
O163 O 0.28263 0.41629 0.0401 0.0
C164 C 0.30316 0.35878 0.00488 0.0
O165 O 0.29961 0.34444 0.02076 0.0
C166 C 0.31637 0.37295 0.08599 0.0
O167 O 0.33612 0.37451 0.07868 0.0
O168 O 0.33619 0.42195 0.0513 0.0
C169 C 0.82591 0.12447 0.07937 0.0
O170 O 0.82775 0.14656 0.08233 0.0
O171 O 0.78068 0.1496 0.08884 0.0
Zn172 Zn 0.78198 0.12571 0.06241 0.0
O173 O 0.78596 0.1399 0.03223 0.0
C174 C 0.73955 0.10353 0.0712 0.0
O175 O 0.74634 0.11559 0.09276 0.0
O176 O 0.80697 0.1115 0.07148 0.0
C177 C 0.76821 0.14422 0.02176 0.0
O178 O 0.74951 0.13914 0.0312 0.0
C179 C 0.78841 0.17054 0.08845 0.0
O180 O 0.79819 0.17727 0.06996 0.0
O181 O 0.75321 0.10323 0.05587 0.0
C182 C 0.20452 0.503 0.23411 0.0
O183 O 0.18327 0.50241 0.22716 0.0
O184 O 0.18092 0.54695 0.2205 0.0
Zn185 Zn 0.20122 0.54619 0.25007 0.0
O186 O 0.18207 0.53981 0.27609 0.0
C187 C 0.22383 0.59005 0.24435 0.0
O188 O 0.21643 0.58261 0.22126 0.0
O189 O 0.21728 0.52158 0.24421 0.0
C190 C 0.18963 0.54816 0.29802 0.0
O191 O 0.2105 0.55961 0.30339 0.0
C192 C 0.16607 0.55861 0.22166 0.0
O193 O 0.16463 0.57024 0.24251 0.0
O194 O 0.22106 0.5765 0.26 0.0
C195 C 0.76695 0.9143 0.55028 0.0
O196 O 0.7626 0.89766 0.56343 0.0
O197 O 0.8042 0.88429 0.57697 0.0
Zn198 Zn 0.8084 0.89878 0.54575 0.0
O199 O 0.80362 0.87623 0.51418 0.0
C200 C 0.85738 0.91637 0.55704 0.0
O201 O 0.85761 0.89637 0.56381 0.0
O202 O 0.78523 0.91772 0.54125 0.0
C203 C 0.81956 0.87408 0.50197 0.0
O204 O 0.84001 0.88517 0.51082 0.0
C205 C 0.81256 0.86805 0.58368 0.0
O206 O 0.82468 0.85858 0.56943 0.0
O207 O 0.83873 0.92088 0.54929 0.0
C208 C 0.92561 0.06828 0.26949 0.0
O209 O 0.94751 0.07538 0.27311 0.0
O210 O 0.95025 0.02374 0.23461 0.0
Zn211 Zn 0.93651 0.02392 0.26643 0.0
O212 O 0.9585 0.03161 0.29806 0.0
C213 C 0.91145 0.97665 0.25168 0.0
O214 O 0.92081 0.97802 0.2317 0.0
O215 O 0.9172 0.04706 0.26624 0.0
C216 C 0.96776 0.01671 0.30679 0.0
O217 O 0.965 0.99669 0.29378 0.0
C218 C 0.97095 0.0265 0.23237 0.0
O219 O 0.98571 0.02919 0.252 0.0
O220 O 0.91588 0.99372 0.26819 0.0
C221 C 0.31868 0.60698 0.58037 0.0
O222 O 0.32263 0.623 0.59918 0.0
O223 O 0.28843 0.6489 0.59237 0.0
Zn224 Zn 0.28339 0.62765 0.56218 0.0
O225 O 0.28863 0.64475 0.53415 0.0
C226 C 0.23712 0.61977 0.54901 0.0
O227 O 0.24235 0.64052 0.54352 0.0
O228 O 0.30278 0.60613 0.56355 0.0
C229 C 0.28027 0.63581 0.5126 0.0
O230 O 0.26946 0.61443 0.50864 0.0
C231 C 0.28635 0.66912 0.5913 0.0
O232 O 0.28176 0.67579 0.57005 0.0
O233 O 0.25233 0.61052 0.55777 0.0
C234 C 0.42667 0.56757 0.77317 0.0
O235 O 0.44819 0.57381 0.78135 0.0
O236 O 0.45179 0.52229 0.73593 0.0
Zn237 Zn 0.43745 0.52336 0.76732 0.0
O238 O 0.45896 0.5312 0.79953 0.0
C239 C 0.40499 0.48037 0.74999 0.0
O240 O 0.40491 0.48757 0.72861 0.0
O241 O 0.41812 0.54663 0.76607 0.0
C242 C 0.46803 0.51642 0.80884 0.0
O243 O 0.46543 0.49627 0.79615 0.0
C244 C 0.47042 0.53455 0.73291 0.0
O245 O 0.48259 0.54843 0.75154 0.0
O246 O 0.41735 0.49272 0.76841 0.0
C247 C 0.70654 1.00277 0.7371 0.0
O248 O 0.68466 1.0004 0.7334 0.0
O249 O 0.68091 0.0462 0.72277 0.0
Zn250 Zn 0.70249 0.04641 0.75166 0.0
O251 O 0.68597 0.04081 0.77992 0.0
C252 C 0.71162 0.09234 0.76506 0.0
O253 O 0.68999 0.08655 0.76592 0.0
O254 O 0.71882 0.02227 0.7449 0.0
C255 C 0.69488 0.04969 0.80134 0.0
O256 O 0.71597 0.06066 0.80509 0.0
C257 C 0.66061 0.04669 0.72424 0.0
O258 O 0.65335 0.04703 0.74551 0.0
O259 O 0.72207 0.07713 0.75874 0.0
C260 C 0.80893 0.65718 0.00488 0.0
O261 O 0.80696 0.66679 0.985 0.0
O262 O 0.77715 0.69839 0.05135 0.0
Zn263 Zn 0.77359 0.67993 0.01782 0.0
O264 O 0.77999 0.69886 0.99016 0.0
C265 C 0.73457 0.65232 0.03019 0.0
O266 O 0.74751 0.65734 0.05132 0.0
O267 O 0.79611 0.65993 0.02078 0.0
C268 C 0.76493 0.70486 0.97638 0.0
O269 O 0.7441 0.70001 0.98085 0.0
C270 C 0.77771 0.71923 0.05803 0.0
O271 O 0.77647 0.73296 0.04152 0.0
O272 O 0.74212 0.65996 0.01168 0.0
C273 C 0.8709 0.56663 0.82755 0.0
O274 O 0.88819 0.56742 0.84401 0.0
O275 O 0.9044 0.53637 0.78297 0.0
Zn276 Zn 0.88291 0.52728 0.8065 0.0
O277 O 0.89913 0.52484 0.83873 0.0
C278 C 0.87244 0.48394 0.78081 0.0
O279 O 0.89376 0.49 0.77853 0.0
O280 O 0.86509 0.55013 0.81049 0.0
C281 C 0.90315 0.50644 0.84494 0.0
O282 O 0.89624 0.48739 0.83004 0.0
C283 C 0.92522 0.53709 0.78775 0.0
O284 O 0.93339 0.53392 0.80958 0.0
O285 O 0.86315 0.49776 0.79235 0.0
C286 C 0.76455 0.46144 0.48518 0.0
O287 O 0.76361 0.44093 0.4742 0.0
O288 O 0.80073 0.43613 0.53281 0.0
Zn289 Zn 0.80574 0.4552 0.50625 0.0
O290 O 0.80493 0.43372 0.47686 0.0
C291 C 0.84717 0.47962 0.5341 0.0
O292 O 0.83803 0.47282 0.55295 0.0
O293 O 0.78167 0.47149 0.50021 0.0
C294 C 0.82122 0.43094 0.46576 0.0
O295 O 0.84125 0.4439 0.47304 0.0
C296 C 0.81406 0.42272 0.53397 0.0
O297 O 0.82934 0.42377 0.51923 0.0
O298 O 0.83559 0.47555 0.51318 0.0
C299 C 0.66241 0.51227 0.30376 0.0
O300 O 0.64409 0.50818 0.31406 0.0
O301 O 0.63008 0.54839 0.26077 0.0
Zn302 Zn 0.64923 0.5546 0.29406 0.0
O303 O 0.6305 0.55302 0.32217 0.0
C304 C 0.66725 0.60419 0.30112 0.0
O305 O 0.64722 0.60556 0.30625 0.0
O306 O 0.66752 0.53062 0.29466 0.0
C307 C 0.64024 0.55758 0.34409 0.0
O308 O 0.66218 0.56439 0.34804 0.0
C309 C 0.6173 0.56106 0.25349 0.0
O310 O 0.61506 0.5784 0.26856 0.0
O311 O 0.6716 0.58471 0.29628 0.0
Tb312 Tb 0.0719 0.05396 0.04782 0.0
C313 C 0.9991 0.97262 0.98702 0.0
N314 N 1.01076 0.99288 0.9822 0.0
C315 C 0.01487 0.97529 0.94272 0.0
C316 C 0.99542 0.95277 0.97006 0.0
C317 C 0.01799 0.99455 0.96003 0.0
C318 C 1.00372 0.95427 0.94782 0.0
C319 C 0.97806 0.9513 0.01453 0.0
C320 C 0.99039 0.97188 0.00893 0.0
C321 C 0.97465 0.93144 0.99782 0.0
C322 C 0.98328 0.93218 0.97564 0.0
Tb323 Tb 1.01263 0.02312 0.01138 0.0
N324 N 0.99426 0.99136 0.02486 0.0
C325 C 0.96935 0.95137 0.03665 0.0
C326 C 0.98466 0.99177 0.04575 0.0
C327 C 0.97249 0.97176 0.05222 0.0
H328 H 0.02517 0.01077 0.95499 0.0
H329 H 0.96516 0.97215 0.06897 0.0
H330 H 0.05813 0.06574 0.10358 0.0
H331 H 0.10989 0.10724 0.98534 0.0
H332 H 0.98563 1.00754 0.05706 0.0
H333 H 0.95976 0.93592 0.04163 0.0
H334 H 0.09317 0.07115 0.99831 0.0
H335 H 0.02067 0.97676 0.92523 0.0
H336 H 0.9652 0.91546 0.00178 0.0
H337 H 0.98029 0.91676 0.96282 0.0
H338 H 0.06272 0.09968 0.13355 0.0
H339 H 1.00114 0.93942 0.93425 0.0
H340 H 0.11553 0.14301 0.01342 0.0
N341 N 0.07202 0.08391 0.07627 0.0
C342 C 0.08274 0.10435 0.07096 0.0
C343 C 0.06814 0.10127 0.11589 0.0
C344 C 0.08623 0.12417 0.08794 0.0
C345 C 0.06506 0.08206 0.09854 0.0
C346 C 0.07874 0.12242 0.11058 0.0
N347 N 0.08606 0.08608 0.032 0.0
C348 C 0.09373 0.08652 0.00999 0.0
C349 C 0.10051 0.12654 0.04194 0.0
C350 C 0.08986 0.10549 0.04814 0.0
C351 C 0.10731 0.12717 0.01888 0.0
C352 C 0.10399 0.10705 0.00289 0.0
H353 H 0.08123 0.13725 0.12415 0.0
H354 H 0.10001 0.16045 0.09471 0.0
H355 H 0.11241 0.16254 0.05448 0.0
O356 O 0.10626 0.05773 0.0463 0.0
O357 O 0.047 0.07559 0.04008 0.0
O358 O 0.02609 0.05802 0.00386 0.0
O359 O 0.09325 0.05472 0.08023 0.0
O360 O 0.0721 0.03618 0.01105 0.0
O361 O 0.03817 0.0385 0.99079 0.0
O362 O 0.98275 0.03321 0.01716 0.0
O363 O 0.03131 0.99854 0.02621 0.0
O364 O 0.06613 0.01676 0.04774 0.0
O365 O 0.98775 0.01867 0.98101 0.0
O366 O 0.01469 0.04008 0.04887 0.0
O367 O 0.04805 0.03585 0.06864 0.0
C368 C 0.03447 0.07661 0.01948 0.0
C369 C 0.12355 0.0377 0.07405 0.0
C370 C 0.14672 0.01214 0.06024 0.0
C371 C 0.14945 1.00584 0.08374 0.0
C372 C 0.12651 0.03139 0.09748 0.0
C373 C 0.13921 0.01534 0.10219 0.0
C374 C 0.13335 0.02767 0.05549 0.0
C375 C 0.05881 0.036 0.99076 0.0
C376 C 0.11063 0.05497 0.06903 0.0
C377 C 0.09707 0.14507 0.08184 0.0
C378 C 0.10413 0.14625 0.05891 0.0
C379 C 0.05059 0.99817 0.03919 0.0
C380 C 0.9522 0.02904 0.9842 0.0
C381 C 0.91942 0.04431 0.98962 0.0
C382 C 0.90986 0.03497 0.96566 0.0
C383 C 0.94278 0.01988 0.96015 0.0
C384 C 0.94038 0.04098 0.99879 0.0
C385 C 0.92158 0.02278 0.95099 0.0
C386 C 0.02687 0.0364 0.06837 0.0
C387 C 0.9745 0.02687 0.99426 0.0
H388 H 0.15995 0.99411 0.08806 0.0
H389 H 0.11906 0.03891 0.11214 0.0
H390 H 0.14149 0.01057 0.12029 0.0
H391 H 0.13078 0.03212 0.03725 0.0
H392 H 0.89358 0.03733 0.95826 0.0
H393 H 0.95173 0.01054 0.94851 0.0
H394 H 0.94752 0.04774 0.01748 0.0
H395 H 0.9143 0.01569 0.93247 0.0
Tb396 Tb 0.27551 0.78566 0.31096 0.0
C397 C 0.329 0.74769 0.21941 0.0
N398 N 0.33588 0.76308 0.23986 0.0
C399 C 0.37071 0.75097 0.24556 0.0
C400 C 0.34261 0.73303 0.21146 0.0
C401 C 0.35666 0.76518 0.25268 0.0
C402 C 0.36362 0.73474 0.22494 0.0
C403 C 0.30035 0.73084 0.18514 0.0
C404 C 0.30821 0.74667 0.20636 0.0
C405 C 0.3138 0.71615 0.17719 0.0
C406 C 0.33489 0.71725 0.19032 0.0
Tb407 Tb 0.3118 0.78595 0.24911 0.0
N408 N 0.29543 0.76081 0.21496 0.0
C409 C 0.27918 0.7302 0.17259 0.0
C410 C 0.27501 0.76062 0.20232 0.0
C411 C 0.26652 0.74523 0.18117 0.0
H412 H 0.36287 0.7783 0.26792 0.0
H413 H 0.25024 0.74509 0.17141 0.0
H414 H 0.22466 0.79336 0.2947 0.0
H415 H 0.34128 0.82924 0.38421 0.0
H416 H 0.26511 0.77229 0.2081 0.0
H417 H 0.27253 0.71829 0.15621 0.0
H418 H 0.32409 0.79991 0.35032 0.0
H419 H 0.38713 0.75276 0.25583 0.0
H420 H 0.30805 0.70388 0.16093 0.0
H421 H 0.3451 0.70584 0.18395 0.0
H422 H 0.20133 0.82001 0.30688 0.0
H423 H 0.37459 0.72381 0.21942 0.0
H424 H 0.32072 0.85793 0.39871 0.0
N425 N 0.25253 0.80913 0.32138 0.0
C426 C 0.26069 0.82562 0.34055 0.0
C427 C 0.21806 0.82188 0.31644 0.0
C428 C 0.24793 0.84123 0.34827 0.0
C429 C 0.23143 0.80691 0.30941 0.0
C430 C 0.22637 0.83919 0.33591 0.0
N431 N 0.29379 0.81171 0.3439 0.0
C432 C 0.31473 0.81224 0.35556 0.0
C433 C 0.29134 0.84414 0.37202 0.0
C434 C 0.28206 0.827 0.35221 0.0
C435 C 0.31297 0.84503 0.38345 0.0
C436 C 0.32464 0.82892 0.37526 0.0
H437 H 0.216 0.85081 0.34129 0.0
H438 H 0.24758 0.87053 0.3741 0.0
H439 H 0.28566 0.87311 0.39492 0.0
O440 O 0.27628 0.76117 0.33439 0.0
O441 O 0.28675 0.81959 0.3016 0.0
O442 O 0.31332 0.80695 0.2838 0.0
O443 O 0.24497 0.7641 0.31477 0.0
O444 O 0.30802 0.77433 0.3158 0.0
O445 O 0.33103 0.78576 0.28587 0.0
O446 O 0.31002 0.81086 0.22597 0.0
O447 O 0.29503 0.75097 0.2511 0.0
O448 O 0.28582 0.77156 0.27971 0.0
O449 O 0.34176 0.8044 0.24029 0.0
O450 O 0.27844 0.7961 0.24553 0.0
O451 O 0.25521 0.78208 0.2743 0.0
C452 C 0.30247 0.823 0.28771 0.0
C453 C 0.24515 0.75428 0.35487 0.0
C454 C 0.24536 0.74027 0.39414 0.0
C455 C 0.22996 0.75345 0.40034 0.0
C456 C 0.22981 0.76741 0.36123 0.0
C457 C 0.22228 0.76694 0.38393 0.0
C458 C 0.25289 0.74093 0.37139 0.0
C459 C 0.32755 0.77744 0.30681 0.0
C460 C 0.25456 0.75492 0.33187 0.0
C461 C 0.2571 0.85834 0.36793 0.0
C462 C 0.27877 0.85981 0.37977 0.0
C463 C 0.2841 0.75124 0.26929 0.0
C464 C 0.33828 0.81422 0.20061 0.0
C465 C 0.33859 0.82998 0.16256 0.0
C466 C 0.35242 0.81567 0.15472 0.0
C467 C 0.35192 0.79971 0.19255 0.0
C468 C 0.33148 0.82912 0.18543 0.0
C469 C 0.3589 0.80046 0.16964 0.0
C470 C 0.25855 0.79092 0.25366 0.0
C471 C 0.33146 0.81471 0.22495 0.0
H472 H 0.22361 0.75309 0.41765 0.0
H473 H 0.22378 0.77809 0.34887 0.0
H474 H 0.21042 0.77703 0.3888 0.0
H475 H 0.26522 0.73134 0.36657 0.0
H476 H 0.35801 0.81615 0.13701 0.0
H477 H 0.3574 0.788 0.20394 0.0
H478 H 0.32104 0.84042 0.19162 0.0
H479 H 0.36947 0.78936 0.16352 0.0
Tb480 Tb 0.51443 0.03629 0.53969 0.0
C481 C 0.59319 0.08478 0.49145 0.0
N482 N 0.57759 0.06516 0.48376 0.0
C483 C 0.57323 0.07524 0.44336 0.0
C484 C 0.59883 0.10079 0.47543 0.0
C485 C 0.56806 0.05991 0.45992 0.0
C486 C 0.58857 0.09583 0.45117 0.0
C487 C 0.61867 0.10966 0.52449 0.0
C488 C 0.60314 0.08909 0.51573 0.0
C489 C 0.62427 0.12566 0.50856 0.0
C490 C 0.61444 0.12121 0.4841 0.0
Tb491 Tb 0.57233 0.04124 0.51231 0.0
N492 N 0.59701 0.07344 0.53087 0.0
C493 C 0.62802 0.11359 0.54905 0.0
C494 C 0.60669 0.07684 0.5546 0.0
C495 C 0.62209 0.09706 0.56411 0.0
H496 H 0.55688 0.04371 0.45329 0.0
H497 H 0.62959 0.09976 0.58301 0.0
H498 H 0.5297 0.03147 0.59846 0.0
H499 H 0.44699 0.98598 0.47415 0.0
H500 H 0.60311 0.06391 0.56614 0.0
H501 H 0.63999 0.12921 0.5565 0.0
H502 H 0.4764 0.0201 0.49141 0.0
H503 H 0.56556 0.07105 0.42452 0.0
H504 H 0.63619 0.14156 0.51498 0.0
H505 H 0.61896 0.13373 0.47206 0.0
H506 H 0.52481 1.00155 0.62481 0.0
H507 H 0.59252 0.10766 0.43827 0.0
H508 H 0.44014 0.95308 0.4971 0.0
N509 N 0.51067 0.01041 0.56686 0.0
C510 C 0.49528 0.99072 0.55877 0.0
C511 C 0.51682 0.99804 0.60607 0.0
C512 C 0.49095 0.97343 0.57364 0.0
C513 C 0.52023 0.0148 0.59073 0.0
C514 C 0.50245 0.97708 0.59734 0.0
N515 N 0.48713 1.00575 0.52245 0.0
C516 C 0.47396 1.00549 0.501 0.0
C517 C 0.46593 0.96891 0.52727 0.0
C518 C 0.48275 0.9885 0.53602 0.0
C519 C 0.45323 0.96786 0.50451 0.0
C520 C 0.4571 0.98636 0.49145 0.0
H521 H 0.49956 0.96425 0.60938 0.0
H522 H 0.47126 0.93995 0.57584 0.0
H523 H 0.44946 0.93593 0.53515 0.0
O524 O 0.48973 0.05569 0.53089 0.0
O525 O 0.51985 1.00531 0.5176 0.0
O526 O 0.55793 1.00784 0.52336 0.0
O527 O 0.49443 0.04309 0.56578 0.0
O528 O 0.51805 0.04857 0.50467 0.0
O529 O 0.54153 0.0282 0.48753 0.0
O530 O 0.60535 0.03602 0.51706 0.0
O531 O 0.55882 0.07281 0.51885 0.0
O532 O 0.53943 0.06841 0.55155 0.0
O533 O 0.5828 0.02312 0.48289 0.0
O534 O 0.57195 0.03033 0.54808 0.0
O535 O 0.54548 0.04673 0.56501 0.0
C536 C 0.53723 0.99555 0.5184 0.0
C537 C 0.46567 0.06436 0.56194 0.0
C538 C 0.43682 0.08652 0.55847 0.0
C539 C 0.43355 0.08412 0.58267 0.0
C540 C 0.46199 0.06224 0.58613 0.0
C541 C 0.44601 0.07201 0.59633 0.0
C542 C 0.45281 0.07638 0.54795 0.0
C543 C 0.52418 0.03765 0.48585 0.0
C544 C 0.48342 0.05435 0.55232 0.0
C545 C 0.47469 0.95349 0.56474 0.0
C546 C 0.46221 0.95123 0.5416 0.0
C547 C 0.55062 0.08162 0.53775 0.0
C548 C 0.62026 0.01566 0.48501 0.0
C549 C 0.65257 0.99837 0.49014 0.0
C550 C 0.65433 0.99849 0.46529 0.0
C551 C 0.62202 0.01536 0.46012 0.0
C552 C 0.63556 1.00705 0.50004 0.0
C553 C 0.63906 1.00689 0.45036 0.0
C554 C 0.56292 0.03739 0.56684 0.0
C555 C 0.60258 0.0251 0.49513 0.0
H556 H 0.42112 0.0915 0.59098 0.0
H557 H 0.47156 0.0531 0.59737 0.0
H558 H 0.44333 0.07025 0.61494 0.0
H559 H 0.45547 0.0782 0.52932 0.0
H560 H 0.66738 0.99182 0.45741 0.0
H561 H 0.61039 0.02194 0.4483 0.0
H562 H 0.63419 1.007 0.51926 0.0
H563 H 0.64043 1.00682 0.43117 0.0
Tb564 Tb 0.3215 0.27989 0.78327 0.0
C565 C 0.24203 0.31548 0.72953 0.0
N566 N 0.257 0.3256 0.74944 0.0
C567 C 0.26118 0.36135 0.73394 0.0
C568 C 0.2363 0.32791 0.71078 0.0
C569 C 0.26637 0.3483 0.75206 0.0
C570 C 0.24613 0.3511 0.71317 0.0
C571 C 0.2178 0.2811 0.70703 0.0
C572 C 0.23294 0.29236 0.72767 0.0
C573 C 0.21191 0.29344 0.68834 0.0
C574 C 0.22115 0.31677 0.69021 0.0
Tb575 Tb 0.2638 0.30255 0.77776 0.0
N576 N 0.23974 0.28078 0.74568 0.0
C577 C 0.20917 0.25776 0.70572 0.0
C578 C 0.23059 0.25824 0.74496 0.0
C579 C 0.21546 0.24633 0.72487 0.0
H580 H 0.27735 0.35656 0.76843 0.0
H581 H 0.20847 0.22838 0.7243 0.0
H582 H 0.30985 0.22709 0.79634 0.0
H583 H 0.37625 0.35706 0.83183 0.0
H584 H 0.23443 0.24939 0.75992 0.0
H585 H 0.19749 0.24846 0.69016 0.0
H586 H 0.35155 0.33349 0.79682 0.0
H587 H 0.26866 0.37933 0.73611 0.0
H588 H 0.20032 0.28507 0.67231 0.0
H589 H 0.21654 0.32603 0.67559 0.0
H590 H 0.3194 0.2067 0.83056 0.0
H591 H 0.24216 0.36126 0.69916 0.0
H592 H 0.38669 0.33993 0.8685 0.0
N593 N 0.32954 0.25907 0.81341 0.0
C594 C 0.34416 0.27058 0.833 0.0
C595 C 0.32637 0.2247 0.83156 0.0
C596 C 0.35018 0.25961 0.85294 0.0
C597 C 0.32076 0.23637 0.81231 0.0
C598 C 0.34109 0.23638 0.85201 0.0
N599 N 0.34552 0.30376 0.81411 0.0
C600 C 0.3547 0.326 0.81301 0.0
C601 C 0.36714 0.30638 0.85368 0.0
C602 C 0.35241 0.29368 0.8334 0.0
C603 C 0.37534 0.32956 0.85329 0.0
C604 C 0.36933 0.33933 0.83271 0.0
H605 H 0.34532 0.22732 0.86695 0.0
H606 H 0.36955 0.26411 0.88877 0.0
H607 H 0.38446 0.30504 0.88939 0.0
O608 O 0.34943 0.289 0.76375 0.0
O609 O 0.30755 0.28796 0.81735 0.0
O610 O 0.2893 0.31635 0.80934 0.0
O611 O 0.33881 0.25496 0.77295 0.0
O612 O 0.32028 0.31063 0.76594 0.0
O613 O 0.29552 0.32758 0.78541 0.0
O614 O 0.23569 0.29267 0.79692 0.0
O615 O 0.27672 0.29314 0.74338 0.0
O616 O 0.29604 0.26557 0.75185 0.0
O617 O 0.24634 0.32706 0.78863 0.0
O618 O 0.26446 0.27132 0.79411 0.0
O619 O 0.29017 0.25388 0.77651 0.0
C620 C 0.29823 0.30473 0.82478 0.0
C621 C 0.37092 0.26022 0.751 0.0
C622 C 0.40341 0.2652 0.72867 0.0
C623 C 0.40403 0.24233 0.72956 0.0
C624 C 0.37214 0.23736 0.75147 0.0
C625 C 0.38852 0.22856 0.74085 0.0
C626 C 0.38674 0.27426 0.73942 0.0
C627 C 0.31203 0.32849 0.77223 0.0
C628 C 0.35293 0.26847 0.76269 0.0
C629 C 0.36477 0.27222 0.87323 0.0
C630 C 0.37322 0.29554 0.87361 0.0
C631 C 0.28657 0.27666 0.73626 0.0
C632 C 0.21397 0.32124 0.80994 0.0
C633 C 0.18021 0.3155 0.83017 0.0
C634 C 0.17962 0.33842 0.82952 0.0
C635 C 0.21282 0.34416 0.8098 0.0
C636 C 0.19761 0.30684 0.82049 0.0
C637 C 0.19585 0.35262 0.81953 0.0
C638 C 0.27244 0.25323 0.78798 0.0
C639 C 0.23207 0.31318 0.79832 0.0
H640 H 0.41662 0.23508 0.7214 0.0
H641 H 0.36035 0.22609 0.76009 0.0
H642 H 0.38919 0.21093 0.74137 0.0
H643 H 0.38611 0.2919 0.73876 0.0
H644 H 0.16653 0.3454 0.83694 0.0
H645 H 0.22503 0.35571 0.80197 0.0
H646 H 0.19814 0.28914 0.8208 0.0
H647 H 0.1952 0.37027 0.81921 0.0
Tb648 Tb 0.05205 1.00859 0.52827 0.0
C649 C 0.01675 0.09205 0.57741 0.0
N650 N 1.00684 0.07711 0.55733 0.0
C651 C 0.9709 0.07548 0.57066 0.0
C652 C 1.0041 0.09918 0.59511 0.0
C653 C 0.98418 0.06893 0.55359 0.0
C654 C 0.9809 0.09061 0.59156 0.0
C655 C 0.05072 0.11587 0.60056 0.0
C656 C 0.03971 0.10028 0.58009 0.0
C657 C 0.03825 0.12293 0.61839 0.0
C658 C 0.01498 0.11461 0.61566 0.0
Tb659 Tb 0.03017 0.06726 0.53104 0.0
N660 N 0.05125 0.09262 0.56271 0.0
C661 C 0.0739 0.12396 0.6024 0.0
C662 C 0.07365 0.10137 0.56382 0.0
C663 C 0.08537 0.11685 0.58381 0.0
H664 H 0.97627 0.05771 0.5372 0.0
H665 H 0.1032 0.12348 0.58471 0.0
H666 H 0.10464 0.01976 0.51645 0.0
H667 H 0.9758 0.95491 0.47782 0.0
H668 H 0.08256 0.09691 0.54926 0.0
H669 H 0.08302 0.13597 0.61784 0.0
H670 H 0.99868 0.98005 0.51305 0.0
H671 H 0.95294 0.06896 0.56761 0.0
H672 H 0.04641 0.13488 0.63429 0.0
H673 H 1.00556 0.12027 0.62951 0.0
H674 H 0.12523 0.00949 0.48301 0.0
H675 H 0.97056 0.09568 0.60472 0.0
H676 H 0.99344 0.94325 0.44218 0.0
N677 N 0.07307 1.0002 0.49878 0.0
C678 C 0.06187 0.98534 0.47914 0.0
C679 C 0.10738 1.0027 0.48161 0.0
C680 C 0.07299 0.9789 0.45965 0.0
C681 C 0.09559 1.00875 0.5004 0.0
C682 C 0.09603 0.98777 0.4611 0.0
N683 N 0.0287 0.98465 0.49702 0.0
C684 C 1.00647 0.97612 0.49739 0.0
C685 C 0.0266 0.96243 0.45781 0.0
C686 C 0.03895 0.97727 0.47822 0.0
C687 C 1.00355 0.95467 0.45753 0.0
C688 C 0.9935 0.96136 0.47753 0.0
H689 H 0.1052 0.9832 0.44653 0.0
H690 H 0.06899 0.95894 0.42411 0.0
H691 H 0.02839 0.94451 0.42249 0.0
O692 O 0.04213 0.97972 0.5469 0.0
O693 O 0.04439 0.0224 0.49383 0.0
O694 O 0.01577 0.03953 0.50178 0.0
O695 O 0.0762 0.99082 0.53931 0.0
O696 O 0.02209 0.01067 0.54588 0.0
O697 O 1.00481 0.03548 0.52621 0.0
O698 O 0.04184 0.09234 0.50925 0.0
O699 O 0.03961 0.05587 0.56644 0.0
O700 O 0.06596 0.03438 0.55981 0.0
O701 O 1.00757 0.08534 0.51574 0.0
O702 O 0.06139 0.06527 0.51594 0.0
O703 O 0.07823 0.03983 0.5352 0.0
C704 C 0.02736 0.03112 0.48626 0.0
C705 C 0.07007 0.95721 0.55945 0.0
C706 C 0.06545 0.92509 0.58305 0.0
C707 C 0.0867 0.92197 0.57871 0.0
C708 C 0.09131 0.95348 0.55553 0.0
C709 C 0.09949 0.93605 0.56507 0.0
C710 C 0.057 0.94281 0.57336 0.0
C711 C 1.00435 0.01901 0.53986 0.0
C712 C 0.06235 0.97606 0.54849 0.0
C713 C 0.06075 0.96408 0.43929 0.0
C714 C 0.03762 0.95588 0.43836 0.0
C715 C 0.05553 0.04576 0.57444 0.0
C716 C 0.02312 0.1229 0.50922 0.0
C717 C 0.02824 0.15949 0.49344 0.0
C718 C 0.0231 0.16945 0.51543 0.0
C719 C 0.01798 0.13335 0.53096 0.0
C720 C 0.02807 0.13604 0.4903 0.0
C721 C 0.01791 0.15644 0.53396 0.0
C722 C 0.07922 0.05762 0.5234 0.0
C723 C 0.02265 0.09827 0.50591 0.0
H724 H 0.09347 0.90855 0.58603 0.0
H725 H 0.10173 0.96404 0.54492 0.0
H726 H 0.11587 0.93344 0.56187 0.0
H727 H 0.04063 0.94538 0.57668 0.0
H728 H 0.02281 0.18735 0.51814 0.0
H729 H 1.01378 0.12366 0.54556 0.0
H730 H 0.03188 0.12813 0.47335 0.0
H731 H 1.01375 0.16429 0.55072 0.0
Tb732 Tb 0.29702 0.81888 0.77111 0.0
C733 C 0.24738 0.74077 0.82497 0.0
N734 N 0.26693 0.75652 0.83171 0.0
C735 C 0.25851 0.76159 0.8727 0.0
C736 C 0.23241 0.73515 0.84183 0.0
C737 C 0.27291 0.76651 0.8554 0.0
C738 C 0.23812 0.74595 0.86587 0.0
C739 C 0.22247 0.71351 0.7934 0.0
C740 C 0.24245 0.73004 0.80105 0.0
C741 C 0.20745 0.708 0.81011 0.0
C742 C 0.2124 0.71879 0.83424 0.0
Tb743 Tb 0.28923 0.76158 0.80179 0.0
N744 N 0.2571 0.7362 0.78517 0.0
C745 C 0.21825 0.703 0.7692 0.0
C746 C 0.25362 0.7252 0.76194 0.0
C747 C 0.234 0.70874 0.75348 0.0
H748 H 0.28908 0.77769 0.86136 0.0
H749 H 0.2312 0.70023 0.73493 0.0
H750 H 0.29624 0.80379 0.71119 0.0
H751 H 0.35837 0.87508 0.83964 0.0
H752 H 0.26614 0.72859 0.75012 0.0
H753 H 0.2031 0.69019 0.76261 0.0
H754 H 0.32209 0.84933 0.82387 0.0
H755 H 0.26333 0.7696 0.8914 0.0
H756 H 0.19199 0.69535 0.80458 0.0
H757 H 0.20069 0.71425 0.84695 0.0
H758 H 0.32247 0.81072 0.68133 0.0
H759 H 0.22709 0.74207 0.87939 0.0
H760 H 0.38666 0.88417 0.81195 0.0
N761 N 0.31921 0.82336 0.74114 0.0
C762 C 0.33947 0.83793 0.74827 0.0
C763 C 0.32754 0.81827 0.70015 0.0
C764 C 0.35474 0.84288 0.73156 0.0
C765 C 0.31286 0.81397 0.71731 0.0
C766 C 0.34861 0.83267 0.70732 0.0
N767 N 0.33027 0.84201 0.78846 0.0
C768 C 0.33453 0.8522 0.81202 0.0
C769 C 0.36586 0.86295 0.78055 0.0
C770 C 0.34501 0.84788 0.77254 0.0
C771 C 0.37082 0.8725 0.80508 0.0
C772 C 0.35498 0.86727 0.82081 0.0
H773 H 0.35989 0.83604 0.69393 0.0
H774 H 0.38752 0.86183 0.72693 0.0
H775 H 0.39723 0.87937 0.76975 0.0
O776 O 0.28565 0.84803 0.78394 0.0
O777 O 0.32795 0.80553 0.78082 0.0
O778 O 0.32248 0.78459 0.81268 0.0
O779 O 0.29013 0.84092 0.74639 0.0
O780 O 0.28274 0.81535 0.80486 0.0
O781 O 0.30111 0.79311 0.82625 0.0
O782 O 0.30297 0.7332 0.78973 0.0
O783 O 0.25715 0.77229 0.78974 0.0
O784 O 0.26268 0.79745 0.76099 0.0
O785 O 0.29901 0.74212 0.82772 0.0
O786 O 0.30132 0.76446 0.76673 0.0
O787 O 0.28362 0.78804 0.74623 0.0
C788 C 0.33586 0.79561 0.79891 0.0
C789 C 0.26122 0.85958 0.75422 0.0
C790 C 0.23593 0.88552 0.75678 0.0
C791 C 0.22098 0.87153 0.73766 0.0
C792 C 0.24623 0.84595 0.73476 0.0
C793 C 0.22613 0.8518 0.72674 0.0
C794 C 0.25599 0.87946 0.76518 0.0
C795 C 0.29241 0.81096 0.82529 0.0
C796 C 0.28283 0.85394 0.76221 0.0
C797 C 0.37557 0.85785 0.73952 0.0
C798 C 0.3811 0.86787 0.76391 0.0
C799 C 0.24933 0.78364 0.77277 0.0
C800 C 0.31411 0.70887 0.81973 0.0
C801 C 0.33213 0.67688 0.81248 0.0
C802 C 0.32938 0.67188 0.83611 0.0
C803 C 0.31161 0.70341 0.84329 0.0
C804 C 0.32463 0.6956 0.8043 0.0
C805 C 0.31926 0.68511 0.85139 0.0
C806 C 0.29079 0.76922 0.74688 0.0
C807 C 0.30533 0.72826 0.81193 0.0
H808 H 0.20548 0.87609 0.73098 0.0
H809 H 0.25021 0.83095 0.72551 0.0
H810 H 0.21467 0.84118 0.71179 0.0
H811 H 0.26762 0.89036 0.77987 0.0
H812 H 0.33529 0.65776 0.84285 0.0
H813 H 0.30359 0.71324 0.85556 0.0
H814 H 0.32673 0.69957 0.78611 0.0
H815 H 0.31728 0.68113 0.86957 0.0
Tb816 Tb 0.5475 0.0567 0.00241 0.0
C817 C 0.57929 0.99961 0.09351 0.0
N818 N 0.56422 0.9936 0.07286 0.0
C819 C 0.57477 0.95766 0.06626 0.0
C820 C 0.59308 0.98502 0.10107 0.0
C821 C 0.56148 0.97271 0.0595 0.0
C822 C 0.59073 0.96387 0.08705 0.0
C823 C 0.59679 0.02776 0.12824 0.0
C824 C 0.58108 0.02066 0.10695 0.0
C825 C 0.61058 0.0133 0.13584 0.0
C826 C 0.60872 0.99198 0.12229 0.0
Tb827 Tb 0.54313 0.0194 0.06395 0.0
N828 N 0.56793 0.03448 0.09856 0.0
C829 C 0.59826 0.04923 0.14114 0.0
C830 C 0.56889 0.0552 0.11156 0.0
C831 C 0.58416 0.06293 0.13283 0.0
H832 H 0.54862 0.9672 0.04402 0.0
H833 H 0.58495 0.07944 0.14289 0.0
H834 H 0.53907 0.10765 0.01923 0.0
H835 H 0.50765 0.99184 0.92616 0.0
H836 H 0.55788 0.06588 0.10601 0.0
H837 H 0.61011 0.05532 0.15759 0.0
H838 H 0.53621 0.00926 0.96049 0.0
H839 H 0.57252 0.94116 0.05555 0.0
H840 H 0.62277 0.01847 0.15213 0.0
H841 H 0.61949 0.98101 0.12835 0.0
H842 H 0.51267 0.13122 0.0068 0.0
H843 H 0.60099 0.95216 0.09225 0.0
H844 H 0.47843 0.01195 0.91226 0.0
N845 N 0.5243 0.07988 0.99169 0.0
C846 C 0.5084 0.0718 0.97209 0.0
C847 C 0.5112 0.11448 0.99694 0.0
C848 C 0.49289 0.08463 0.96434 0.0
C849 C 0.52605 0.101 0.00405 0.0
C850 C 0.49447 0.10623 0.97706 0.0
N851 N 0.52276 0.03863 0.96845 0.0
C852 C 0.52329 0.01812 0.95586 0.0
C853 C 0.49099 0.04115 0.93988 0.0
C854 C 0.50748 0.05037 0.96016 0.0
C855 C 0.49082 0.01965 0.92788 0.0
C856 C 0.50721 1.00822 0.93576 0.0
H857 H 0.48291 0.11666 0.97165 0.0
H858 H 0.46419 0.08501 0.93812 0.0
H859 H 0.46252 0.0469 0.91666 0.0
O860 O 0.57237 0.05594 0.97988 0.0
O861 O 0.51365 0.04803 0.01153 0.0
O862 O 0.52335 0.01973 0.02917 0.0
O863 O 0.56903 0.08763 0.99896 0.0
O864 O 0.55708 0.02287 0.99826 0.0
O865 O 0.54172 1.0001 0.02684 0.0
O866 O 0.51909 0.02188 0.08761 0.0
O867 O 0.57846 0.03333 0.06203 0.0
O868 O 0.55994 0.04545 0.03398 0.0
O869 O 0.52273 0.98941 0.0709 0.0
O870 O 0.53561 0.05441 0.06765 0.0
O871 O 0.55188 0.07705 0.03927 0.0
C872 C 0.50879 0.0322 0.02527 0.0
C873 C 0.57878 0.08727 0.95894 0.0
C874 C 0.59225 0.08685 0.91949 0.0
C875 C 0.57863 0.10185 0.91295 0.0
C876 C 0.56522 0.10222 0.95217 0.0
C877 C 0.56521 0.10946 0.92924 0.0
C878 C 0.5921 0.07963 0.94253 0.0
C879 C 0.55172 1.003 0.00687 0.0
C880 C 0.57832 0.07795 0.98212 0.0
C881 C 0.47632 0.07546 0.94432 0.0
C882 C 0.47535 0.05375 0.93213 0.0
C883 C 0.57955 0.04503 0.04431 0.0
C884 C 0.51361 0.99145 0.11078 0.0
C885 C 0.49944 0.99068 0.14967 0.0
C886 C 0.51221 0.97478 0.15558 0.0
C887 C 0.52643 0.97564 0.11699 0.0
C888 C 0.50022 0.99896 0.12723 0.0
C889 C 0.52567 0.96738 0.1393 0.0
C890 C 0.54231 0.07439 0.05954 0.0
C891 C 0.51357 0.99995 0.08714 0.0
H892 H 0.57859 0.10797 0.89542 0.0
H893 H 0.55452 0.10813 0.9644 0.0
H894 H 0.55476 0.12099 0.92407 0.0
H895 H 0.602 0.06755 0.94761 0.0
H896 H 0.51204 0.96834 0.17293 0.0
H897 H 0.53692 0.96953 0.10464 0.0
H898 H 0.49021 0.01103 0.12241 0.0
H899 H 0.53555 0.95522 0.144 0.0
Tb900 Tb 0.27968 0.26343 0.26643 0.0
C901 C 0.36134 0.33319 0.32263 0.0
N902 N 0.34163 0.32183 0.32853 0.0
C903 C 0.36063 0.31585 0.36649 0.0
C904 C 0.38162 0.33574 0.3383 0.0
C905 C 0.34096 0.31367 0.35039 0.0
C906 C 0.38106 0.32685 0.3604 0.0
C907 C 0.38153 0.35295 0.29349 0.0
C908 C 0.36124 0.34176 0.30041 0.0
C909 C 0.40173 0.35545 0.30907 0.0
C910 C 0.40177 0.34697 0.33143 0.0
Tb911 Tb 0.31075 0.32327 0.30259 0.0
N912 N 0.34133 0.33928 0.28576 0.0
C913 C 0.38091 0.36165 0.27128 0.0
C914 C 0.3406 0.34913 0.26489 0.0
C915 C 0.36033 0.35989 0.25703 0.0
H916 H 0.32526 0.30644 0.35609 0.0
H917 H 0.35958 0.36744 0.24033 0.0
H918 H 0.26804 0.27694 0.21002 0.0
H919 H 0.22811 0.21645 0.3237 0.0
H920 H 0.32496 0.35 0.25487 0.0
H921 H 0.39613 0.37033 0.26532 0.0
H922 H 0.26321 0.23743 0.31255 0.0
H923 H 0.35996 0.30942 0.3838 0.0
H924 H 0.41744 0.36409 0.30406 0.0
H925 H 0.41749 0.34912 0.34326 0.0
H926 H 0.23478 0.27324 0.18017 0.0
H927 H 0.39627 0.32859 0.37299 0.0
H928 H 0.19286 0.21026 0.29525 0.0
N929 N 0.25012 0.26238 0.23706 0.0
C930 C 0.23003 0.25041 0.24143 0.0
C931 C 0.23312 0.26712 0.19753 0.0
C932 C 0.21058 0.24694 0.22425 0.0
C933 C 0.252 0.26988 0.21498 0.0
C934 C 0.21228 0.25579 0.20226 0.0
N935 N 0.24793 0.24545 0.27957 0.0
C936 C 0.24789 0.2361 0.30072 0.0
C937 C 0.20858 0.22864 0.26832 0.0
C938 C 0.22902 0.24122 0.26313 0.0
C939 C 0.20823 0.21999 0.29056 0.0
C940 C 0.22803 0.22362 0.30676 0.0
H941 H 0.19774 0.25345 0.18856 0.0
H942 H 0.17507 0.23163 0.21635 0.0
H943 H 0.17331 0.21572 0.25498 0.0
O944 O 0.28618 0.23211 0.27289 0.0
O945 O 0.25648 0.28248 0.28303 0.0
O946 O 0.27363 0.32008 0.29817 0.0
O947 O 0.27513 0.23787 0.23648 0.0
O948 O 0.29725 0.26527 0.30351 0.0
O949 O 0.29254 0.29882 0.32293 0.0
O950 O 0.31606 0.3588 0.30555 0.0
O951 O 0.33194 0.29776 0.29434 0.0
O952 O 0.31435 0.27558 0.25867 0.0
O953 O 0.31102 0.34165 0.33679 0.0
O954 O 0.29372 0.32382 0.26566 0.0
O955 O 0.29516 0.28906 0.24547 0.0
C956 C 0.25556 0.30323 0.29254 0.0
C957 C 0.2994 0.2126 0.24063 0.0
C958 C 0.32601 0.18911 0.2494 0.0
C959 C 0.3262 0.18351 0.22429 0.0
C960 C 0.29944 0.20682 0.21556 0.0
C961 C 0.31326 0.19274 0.20747 0.0
C962 C 0.31367 0.20473 0.25726 0.0
C963 C 0.29388 0.2776 0.32308 0.0
C964 C 0.28257 0.22403 0.2498 0.0
C965 C 0.19017 0.23445 0.22935 0.0
C966 C 0.18917 0.22531 0.25131 0.0
C967 C 0.33287 0.28482 0.27383 0.0
C968 C 0.29693 0.37455 0.33527 0.0
C969 C 0.27048 0.3977 0.32456 0.0
C970 C 0.26491 0.39889 0.34829 0.0
C971 C 0.29163 0.37618 0.35918 0.0
C972 C 0.28647 0.38564 0.31812 0.0
C973 C 0.27563 0.38827 0.3656 0.0
C974 C 0.29384 0.31036 0.24547 0.0
C975 C 0.31297 0.36091 0.32832 0.0
H976 H 0.33539 0.17121 0.21762 0.0
H977 H 0.2884 0.21261 0.20229 0.0
H978 H 0.31308 0.18807 0.18814 0.0
H979 H 0.31396 0.20942 0.27664 0.0
H980 H 0.25259 0.4083 0.35347 0.0
H981 H 0.29969 0.36793 0.3728 0.0
H982 H 0.29041 0.38469 0.29962 0.0
H983 H 0.27153 0.38939 0.384 0.0
Tb984 Tb 0.54793 0.50971 0.0322 0.0
C985 C 0.52238 0.59237 0.08565 0.0
N986 N 0.51122 0.5788 0.06503 0.0
C987 C 0.4766 0.5765 0.08175 0.0
C988 C 0.51122 0.5976 0.10557 0.0
C989 C 0.48834 0.57221 0.06231 0.0
C990 C 0.48815 0.58885 0.10366 0.0
C991 C 0.55661 0.618 0.10622 0.0
C992 C 0.54476 0.60248 0.08608 0.0
C993 C 0.54586 0.62238 0.12657 0.0
C994 C 0.52323 0.61215 0.12627 0.0
Tb995 Tb 0.53297 0.57254 0.03513 0.0
N996 N 0.55482 0.59735 0.06637 0.0
C997 C 0.57876 0.62893 0.10504 0.0
C998 C 0.57588 0.60898 0.06441 0.0
C999 C 0.58831 0.62465 0.08388 0.0
H1000 H 0.47881 0.56415 0.04504 0.0
H1001 H 0.6052 0.63345 0.08253 0.0
H1002 H 0.60281 0.51666 0.02945 0.0
H1003 H 0.47511 0.45946 0.97274 0.0
H1004 H 0.58308 0.60594 0.04791 0.0
H1005 H 0.58844 0.64103 0.12012 0.0
H1006 H 0.495 0.48351 0.01037 0.0
H1007 H 0.45856 0.57072 0.0796 0.0
H1008 H 0.55474 0.63405 0.14239 0.0
H1009 H 0.51497 0.61618 0.14183 0.0
H1010 H 0.62669 0.50633 0.99944 0.0
H1011 H 0.47895 0.59246 0.11854 0.0
H1012 H 0.49639 0.44773 0.94032 0.0
N1013 N 0.57219 0.50068 0.00675 0.0
C1014 C 0.5625 0.48682 0.98582 0.0
C1015 C 0.60864 0.50098 0.99524 0.0
C1016 C 0.57556 0.48023 0.96826 0.0
C1017 C 0.59499 0.50715 0.01206 0.0
C1018 C 0.59889 0.48767 0.97313 0.0
N1019 N 0.52725 0.48618 0.9992 0.0
C1020 C 0.50451 0.47888 0.99634 0.0
C1021 C 0.52863 0.46536 0.96019 0.0
C1022 C 0.53932 0.47926 0.98194 0.0
C1023 C 0.50525 0.45837 0.95683 0.0
C1024 C 0.49317 0.46503 0.97505 0.0
H1025 H 0.60952 0.48294 0.96012 0.0
H1026 H 0.57471 0.46131 0.93274 0.0
H1027 H 0.53364 0.44846 0.92558 0.0
O1028 O 0.53792 0.47696 0.0419 0.0
O1029 O 0.54161 0.52425 0.99781 0.0
O1030 O 0.51622 0.54696 0.0043 0.0
O1031 O 0.57053 0.4977 0.05617 0.0
O1032 O 0.51608 0.51284 0.04435 0.0
O1033 O 0.50353 0.54338 0.02975 0.0
O1034 O 0.5442 0.59486 0.0103 0.0
O1035 O 0.55526 0.56479 0.06533 0.0
O1036 O 0.53959 0.52768 0.06473 0.0
O1037 O 0.51699 0.59942 0.02961 0.0
O1038 O 0.56204 0.56562 0.01849 0.0
O1039 O 0.57614 0.53932 0.03922 0.0
C1040 C 0.52572 0.53446 0.98967 0.0
C1041 C 0.56544 0.45756 0.05644 0.0
C1042 C 0.5665 0.42177 0.07297 0.0
C1043 C 0.5819 0.41771 0.05708 0.0
C1044 C 0.58067 0.45291 0.04077 0.0
C1045 C 0.58891 0.43316 0.04122 0.0
C1046 C 0.55848 0.442 0.07269 0.0
C1047 C 0.50018 0.52384 0.03886 0.0
C1048 C 0.55652 0.47839 0.0562 0.0
C1049 C 0.56496 0.46642 0.94652 0.0
C1050 C 0.54156 0.45906 0.94247 0.0
C1051 C 0.55192 0.54667 0.07633 0.0
C1052 C 0.51833 0.61456 0.99243 0.0
C1053 C 0.51695 0.64324 0.96492 0.0
C1054 C 0.49615 0.63018 0.95315 0.0
C1055 C 0.49765 0.60182 0.9803 0.0
C1056 C 0.5279 0.63535 0.98478 0.0
C1057 C 0.48661 0.60968 0.96083 0.0
C1058 C 0.57893 0.55751 0.0279 0.0
C1059 C 0.52956 0.60712 0.01388 0.0
H1060 H 0.58874 0.40262 0.05708 0.0
H1061 H 0.58621 0.46451 0.0282 0.0
H1062 H 0.60081 0.42977 0.02917 0.0
H1063 H 0.5466 0.44548 0.08477 0.0
H1064 H 0.48713 0.63597 0.93811 0.0
H1065 H 0.48992 0.58597 0.98612 0.0
H1066 H 0.54387 0.64526 0.99417 0.0
H1067 H 0.47053 0.5999 0.95169 0.0
Tb1068 Tb 0.79436 0.31531 0.26914 0.0
C1069 C 0.74639 0.23889 0.32259 0.0
N1070 N 0.76587 0.25463 0.32976 0.0
C1071 C 0.75608 0.26072 0.37001 0.0
C1072 C 0.73078 0.23371 0.3389 0.0
C1073 C 0.77105 0.26535 0.3532 0.0
C1074 C 0.73584 0.24488 0.36284 0.0
C1075 C 0.72163 0.2123 0.29034 0.0
C1076 C 0.74185 0.22831 0.29855 0.0
C1077 C 0.70609 0.207 0.30659 0.0
C1078 C 0.71065 0.21766 0.33079 0.0
Tb1079 Tb 0.78918 0.2591 0.30084 0.0
N1080 N 0.75702 0.23429 0.2831 0.0
C1081 C 0.71766 0.2021 0.26604 0.0
C1082 C 0.75368 0.22365 0.25973 0.0
C1083 C 0.73383 0.20769 0.25073 0.0
H1084 H 0.78701 0.2769 0.35929 0.0
H1085 H 0.73117 0.19945 0.23209 0.0
H1086 H 0.79523 0.29796 0.2104 0.0
H1087 H 0.84971 0.38048 0.33451 0.0
H1088 H 0.76645 0.22686 0.24817 0.0
H1089 H 0.70233 0.18968 0.25901 0.0
H1090 H 0.81561 0.35099 0.31966 0.0
H1091 H 0.76028 0.2692 0.38858 0.0
H1092 H 0.69046 0.1947 0.30062 0.0
H1093 H 0.69847 0.21342 0.34307 0.0
H1094 H 0.82101 0.30597 0.1802 0.0
H1095 H 0.72431 0.24133 0.37594 0.0
H1096 H 0.87793 0.39055 0.30696 0.0
N1097 N 0.81659 0.32075 0.23932 0.0
C1098 C 0.83557 0.33729 0.24571 0.0
C1099 C 0.82543 0.31472 0.19864 0.0
C1100 C 0.8505 0.3429 0.22884 0.0
C1101 C 0.81106 0.30984 0.21598 0.0
C1102 C 0.8453 0.33123 0.20512 0.0
N1103 N 0.8255 0.34233 0.28531 0.0
C1104 C 0.82834 0.35413 0.30809 0.0
C1105 C 0.85949 0.36593 0.27671 0.0
C1106 C 0.84005 0.34863 0.26938 0.0
C1107 C 0.86321 0.37713 0.30061 0.0
C1108 C 0.84742 0.37136 0.31628 0.0
H1109 H 0.85633 0.33506 0.19159 0.0
H1110 H 0.88168 0.36458 0.22339 0.0
H1111 H 0.88952 0.38475 0.26526 0.0
O1112 O 0.77899 0.34282 0.27934 0.0
O1113 O 0.82713 0.30509 0.27856 0.0
O1114 O 0.82323 0.28105 0.30826 0.0
O1115 O 0.78303 0.33253 0.24162 0.0
O1116 O 0.78384 0.31423 0.30514 0.0
O1117 O 0.80308 0.29085 0.32412 0.0
O1118 O 0.80062 0.22877 0.29164 0.0
O1119 O 0.75775 0.27243 0.29318 0.0
O1120 O 0.7621 0.29043 0.25927 0.0
O1121 O 0.7998 0.24243 0.32933 0.0
O1122 O 0.80098 0.25868 0.26526 0.0
O1123 O 0.78233 0.28279 0.24693 0.0
C1124 C 0.8358 0.29407 0.29524 0.0
C1125 C 0.76541 0.36431 0.24791 0.0
C1126 C 0.74618 0.3953 0.25455 0.0
C1127 C 0.74552 0.39793 0.22983 0.0
C1128 C 0.76455 0.36724 0.22315 0.0
C1129 C 0.75465 0.38394 0.21423 0.0
C1130 C 0.75611 0.37845 0.26367 0.0
C1131 C 0.79441 0.3088 0.32458 0.0
C1132 C 0.77594 0.3464 0.25668 0.0
C1133 C 0.87 0.36003 0.23611 0.0
C1134 C 0.87447 0.37152 0.25996 0.0
C1135 C 0.74906 0.28032 0.2739 0.0
C1136 C 0.81313 0.20769 0.32393 0.0
C1137 C 0.83122 0.17556 0.31871 0.0
C1138 C 0.82961 0.17258 0.34315 0.0
C1139 C 0.81171 0.20429 0.34828 0.0
C1140 C 0.82305 0.19332 0.30914 0.0
C1141 C 0.81993 0.18686 0.35779 0.0
C1142 C 0.79332 0.26656 0.24584 0.0
C1143 C 0.80449 0.22651 0.31461 0.0
H1144 H 0.73787 0.41085 0.22261 0.0
H1145 H 0.77155 0.35662 0.2106 0.0
H1146 H 0.75407 0.38604 0.19516 0.0
H1147 H 0.75658 0.37642 0.28278 0.0
H1148 H 0.83611 0.15929 0.35106 0.0
H1149 H 0.8042 0.21512 0.36006 0.0
H1150 H 0.82431 0.19583 0.29036 0.0
H1151 H 0.81885 0.18445 0.37659 0.0
Tb1152 Tb 0.04291 0.55677 0.50318 0.0
C1153 C 0.07978 0.5032 0.59238 0.0
N1154 N 0.06404 0.49617 0.57247 0.0
C1155 C 0.07954 0.4636 0.56274 0.0
C1156 C 0.09654 0.49111 0.59792 0.0
C1157 C 0.06331 0.47629 0.55801 0.0
C1158 C 0.09641 0.47118 0.58262 0.0
C1159 C 0.0941 0.53005 0.62882 0.0
C1160 C 0.07867 0.52243 0.6074 0.0
C1161 C 0.11139 0.51859 0.6341 0.0
C1162 C 0.11261 0.49914 0.61866 0.0
Tb1163 Tb 0.03954 0.51911 0.56495 0.0
N1164 N 0.06169 0.53292 0.60159 0.0
C1165 C 0.09122 0.54845 0.64463 0.0
C1166 C 0.05765 0.5495 0.61805 0.0
C1167 C 0.07262 0.5579 0.63946 0.0
H1168 H 0.05016 0.46996 0.5429 0.0
H1169 H 0.06962 0.57145 0.65211 0.0
H1170 H 0.03782 0.60982 0.52031 0.0
H1171 H 1.00478 0.496 0.42361 0.0
H1172 H 0.04273 0.55613 0.6151 0.0
H1173 H 0.1027 0.55487 0.66129 0.0
H1174 H 0.03096 0.51055 0.46103 0.0
H1175 H 0.07899 0.44796 0.55108 0.0
H1176 H 0.12357 0.52432 0.65034 0.0
H1177 H 0.12576 0.49021 0.62315 0.0
H1178 H 1.01382 0.63524 0.50708 0.0
H1179 H 0.10896 0.46133 0.58625 0.0
H1180 H 0.97883 0.51897 0.40793 0.0
N1181 N 0.02217 0.58236 0.49248 0.0
C1182 C 1.00723 0.57561 0.4718 0.0
C1183 C 1.01163 0.61842 0.49711 0.0
C1184 C 0.99348 0.58987 0.46326 0.0
C1185 C 0.02497 0.60373 0.5048 0.0
C1186 C 0.99569 0.61141 0.47637 0.0
N1187 N 0.01933 0.54111 0.46794 0.0
C1188 C 0.01945 0.52061 0.45511 0.0
C1189 C 0.99078 0.54681 0.43728 0.0
C1190 C 1.00591 0.5544 0.45895 0.0
C1191 C 0.99019 0.52541 0.42467 0.0
C1192 C 1.00474 0.51236 0.43352 0.0
H1193 H 0.98543 0.62287 0.47041 0.0
H1194 H 0.96742 0.59298 0.43505 0.0
H1195 H 0.96504 0.55525 0.41231 0.0
O1196 O 0.068 0.55367 0.48116 0.0
O1197 O 1.0081 0.53956 0.50325 0.0
O1198 O 0.02662 0.53258 0.53498 0.0
O1199 O 0.06335 0.58652 0.49539 0.0
O1200 O 0.0515 0.5224 0.50058 0.0
O1201 O 0.03368 0.49967 0.52772 0.0
O1202 O 1.01375 0.51846 0.58651 0.0
O1203 O 0.07317 0.52893 0.55519 0.0
O1204 O 0.06304 0.55758 0.53804 0.0
O1205 O 0.01757 0.4878 0.56585 0.0
O1206 O 0.03538 0.55509 0.5724 0.0
O1207 O 0.03916 0.57629 0.53882 0.0
C1208 C 1.00709 0.53018 0.52271 0.0
C1209 C 0.07268 0.58207 0.45545 0.0
C1210 C 0.08508 0.57814 0.41548 0.0
C1211 C 0.07345 0.5947 0.40864 0.0
C1212 C 0.06106 0.59847 0.44823 0.0
C1213 C 0.06142 0.60464 0.42489 0.0
C1214 C 0.08436 0.5718 0.43891 0.0
C1215 C 0.04393 0.5024 0.50804 0.0
C1216 C 0.07292 0.57539 0.48004 0.0
C1217 C 0.97818 0.58229 0.44184 0.0
C1218 C 0.97683 0.56082 0.42888 0.0
C1219 C 0.07784 0.54538 0.54203 0.0
C1220 C 1.00579 0.48535 0.60474 0.0
C1221 C 0.99583 0.48619 0.64573 0.0
C1222 C 1.00529 0.46737 0.64897 0.0
C1223 C 0.01507 0.46635 0.60806 0.0
C1224 C 0.99576 0.49485 0.62351 0.0
C1225 C 0.01462 0.45735 0.63006 0.0
C1226 C 0.03558 0.57399 0.56188 0.0
C1227 C 1.00752 0.49644 0.58266 0.0
H1228 H 0.07405 0.6004 0.39095 0.0
H1229 H 0.05178 0.60662 0.46055 0.0
H1230 H 0.05259 0.61741 0.4195 0.0
H1231 H 0.09291 0.55883 0.44442 0.0
H1232 H 1.0054 0.46047 0.66608 0.0
H1233 H 0.02293 0.45866 0.5939 0.0
H1234 H 0.98866 0.50958 0.62119 0.0
H1235 H 0.02184 0.44278 0.63258 0.0
Tb1236 Tb 0.82325 0.78155 0.28535 0.0
C1237 C 0.74078 0.80878 0.22923 0.0
N1238 N 0.75518 0.82029 0.249 0.0
C1239 C 0.75663 0.85515 0.23208 0.0
C1240 C 0.73448 0.81995 0.20955 0.0
C1241 C 0.76247 0.84332 0.25109 0.0
C1242 C 0.74277 0.8434 0.2111 0.0
C1243 C 0.71797 0.77303 0.20814 0.0
C1244 C 0.7325 0.7856 0.22863 0.0
C1245 C 0.71194 0.78403 0.18833 0.0
C1246 C 0.72012 0.80743 0.18907 0.0
Tb1247 Tb 0.7628 0.79916 0.27891 0.0
N1248 N 0.73896 0.7754 0.24799 0.0
C1249 C 0.70987 0.74977 0.20822 0.0
C1250 C 0.73023 0.75295 0.24859 0.0
C1251 C 0.71587 0.73975 0.22863 0.0
H1252 H 0.77239 0.8528 0.26755 0.0
H1253 H 0.70919 0.7219 0.22912 0.0
H1254 H 0.81272 0.72665 0.29465 0.0
H1255 H 0.88322 0.85323 0.33608 0.0
H1256 H 0.73369 0.74518 0.26454 0.0
H1257 H 0.69869 0.73949 0.19281 0.0
H1258 H 0.85772 0.83147 0.29982 0.0
H1259 H 0.76265 0.87338 0.23374 0.0
H1260 H 0.70083 0.77462 0.17241 0.0
H1261 H 0.71518 0.81571 0.17372 0.0
H1262 H 0.81634 0.70553 0.32948 0.0
H1263 H 0.73828 0.85262 0.19641 0.0
H1264 H 0.88701 0.83606 0.37424 0.0
N1265 N 0.82702 0.75911 0.31544 0.0
C1266 C 0.83922 0.77008 0.33685 0.0
C1267 C 0.82248 0.72377 0.33195 0.0
C1268 C 0.84261 0.75847 0.35703 0.0
C1269 C 0.81997 0.73596 0.31232 0.0
C1270 C 0.83346 0.73514 0.35455 0.0
N1271 N 0.84667 0.80301 0.31783 0.0
C1272 C 0.85925 0.82406 0.31651 0.0
C1273 C 0.86408 0.80429 0.35899 0.0
C1274 C 0.84984 0.79265 0.33791 0.0
C1275 C 0.87584 0.82654 0.35842 0.0
C1276 C 0.87373 0.8363 0.33693 0.0
H1277 H 0.83568 0.72558 0.36962 0.0
H1278 H 0.85841 0.76173 0.39441 0.0
H1279 H 0.87722 0.80188 0.39611 0.0
O1280 O 0.84667 0.79236 0.26174 0.0
O1281 O 0.815 0.80563 0.31374 0.0
O1282 O 0.77766 0.79235 0.3141 0.0
O1283 O 0.84931 0.76435 0.2811 0.0
O1284 O 0.81823 0.81038 0.26679 0.0
O1285 O 0.79283 0.8272 0.28539 0.0
O1286 O 0.72922 0.79317 0.28678 0.0
O1287 O 0.77803 0.79139 0.24564 0.0
O1288 O 0.7985 0.76448 0.25406 0.0
O1289 O 0.75252 0.82597 0.29841 0.0
O1290 O 0.76478 0.76802 0.29477 0.0
O1291 O 0.79331 0.75318 0.27945 0.0
C1292 C 0.79749 0.80269 0.32541 0.0
C1293 C 0.86514 0.76512 0.24432 0.0
C1294 C 0.89262 0.7634 0.21585 0.0
C1295 C 0.87969 0.74206 0.20489 0.0
C1296 C 0.85262 0.74387 0.23294 0.0
C1297 C 0.85991 0.73243 0.21338 0.0
C1298 C 0.88526 0.77483 0.23582 0.0
C1299 C 0.81126 0.8285 0.275 0.0
C1300 C 0.85791 0.77688 0.26564 0.0
C1301 C 0.85581 0.7703 0.37863 0.0
C1302 C 0.86656 0.79316 0.37959 0.0
C1303 C 0.78719 0.77432 0.23852 0.0
C1304 C 0.71484 0.82318 0.30896 0.0
C1305 C 0.68144 0.81938 0.32965 0.0
C1306 C 0.68149 0.84231 0.3281 0.0
C1307 C 0.71459 0.84614 0.30798 0.0
C1308 C 0.69818 0.80972 0.31994 0.0
C1309 C 0.69798 0.85557 0.3174 0.0
C1310 C 0.77459 0.75102 0.28943 0.0
C1311 C 0.73239 0.81375 0.29802 0.0
H1312 H 0.88501 0.73267 0.18978 0.0
H1313 H 0.83734 0.736 0.23939 0.0
H1314 H 0.85023 0.71596 0.2048 0.0
H1315 H 0.895 0.79126 0.24454 0.0
H1316 H 0.66881 0.85004 0.33543 0.0
H1317 H 0.72712 0.85675 0.29958 0.0
H1318 H 0.69824 0.79201 0.32098 0.0
H1319 H 0.69787 0.87326 0.3164 0.0
Tb1320 Tb 0.77635 0.28542 0.81053 0.0
C1321 C 0.82924 0.24849 0.71741 0.0
N1322 N 0.83673 0.26366 0.73792 0.0
C1323 C 0.87069 0.24992 0.74325 0.0
C1324 C 0.84197 0.23297 0.70937 0.0
C1325 C 0.85749 0.265 0.75048 0.0
C1326 C 0.86282 0.23369 0.72273 0.0
C1327 C 0.80051 0.2334 0.68277 0.0
C1328 C 0.80877 0.24867 0.70434 0.0
C1329 C 0.81292 0.21762 0.67491 0.0
C1330 C 0.83359 0.2174 0.68818 0.0
Tb1331 Tb 0.81325 0.28682 0.74844 0.0
N1332 N 0.79702 0.26387 0.71281 0.0
C1333 C 0.78015 0.23463 0.66962 0.0
C1334 C 0.77782 0.26601 0.69919 0.0
C1335 C 0.76893 0.25122 0.6777 0.0
H1336 H 0.86425 0.27793 0.76589 0.0
H1337 H 0.75355 0.25283 0.66722 0.0
H1338 H 0.72853 0.29799 0.78952 0.0
H1339 H 0.83086 0.31515 0.89639 0.0
H1340 H 0.76943 0.27934 0.70424 0.0
H1341 H 0.77323 0.22324 0.65293 0.0
H1342 H 0.8141 0.28785 0.86004 0.0
H1343 H 0.887 0.25096 0.75341 0.0
H1344 H 0.80677 0.20567 0.65846 0.0
H1345 H 0.84308 0.20526 0.68179 0.0
H1346 H 0.70773 0.32778 0.79884 0.0
H1347 H 0.8731 0.22205 0.71716 0.0
H1348 H 0.81578 0.34939 0.90604 0.0
N1349 N 0.75501 0.31125 0.81871 0.0
C1350 C 0.76277 0.32706 0.8386 0.0
C1351 C 0.72331 0.3279 0.81007 0.0
C1352 C 0.75144 0.34441 0.84468 0.0
C1353 C 0.73527 0.31111 0.80472 0.0
C1354 C 0.73154 0.34477 0.83 0.0
N1355 N 0.79169 0.30785 0.84684 0.0
C1356 C 0.80815 0.30332 0.86296 0.0
C1357 C 0.79036 0.34106 0.87432 0.0
C1358 C 0.78197 0.32546 0.85303 0.0
C1359 C 0.80876 0.33777 0.88955 0.0
C1360 C 0.81737 0.31852 0.8841 0.0
H1361 H 0.72225 0.35777 0.8341 0.0
H1362 H 0.75184 0.37418 0.87022 0.0
H1363 H 0.78597 0.37123 0.89624 0.0
O1364 O 0.77574 0.25787 0.83026 0.0
O1365 O 0.78647 0.31932 0.80046 0.0
O1366 O 0.81367 0.30766 0.78292 0.0
O1367 O 0.74505 0.26573 0.81482 0.0
O1368 O 0.81138 0.28015 0.81773 0.0
O1369 O 0.83225 0.28336 0.78421 0.0
O1370 O 0.8126 0.31247 0.72608 0.0
O1371 O 0.79766 0.25154 0.75079 0.0
O1372 O 0.78781 0.27142 0.77973 0.0
O1373 O 0.84382 0.30613 0.74202 0.0
O1374 O 0.77921 0.29561 0.74501 0.0
O1375 O 0.75666 0.2798 0.77346 0.0
C1376 C 0.8022 0.32321 0.78664 0.0
C1377 C 0.74709 0.25504 0.85436 0.0
C1378 C 0.74992 0.24225 0.89414 0.0
C1379 C 0.73946 0.25938 0.90307 0.0
C1380 C 0.73661 0.27212 0.86348 0.0
C1381 C 0.7327 0.27412 0.88771 0.0
C1382 C 0.75346 0.24003 0.86971 0.0
C1383 C 0.82987 0.27986 0.80721 0.0
C1384 C 0.75418 0.25442 0.8301 0.0
C1385 C 0.76019 0.36058 0.86531 0.0
C1386 C 0.77965 0.35894 0.88009 0.0
C1387 C 0.78709 0.25125 0.76933 0.0
C1388 C 0.8424 0.31677 0.70254 0.0
C1389 C 0.83903 0.32676 0.66143 0.0
C1390 C 0.85809 0.3182 0.65738 0.0
C1391 C 0.86146 0.3083 0.69821 0.0
C1392 C 0.83133 0.32603 0.68409 0.0
C1393 C 0.8692 0.30903 0.67571 0.0
C1394 C 0.75956 0.28947 0.75331 0.0
C1395 C 0.83423 0.31664 0.7263 0.0
H1396 H 0.73635 0.2612 0.92185 0.0
H1397 H 0.73184 0.28419 0.85211 0.0
H1398 H 0.72469 0.28732 0.89468 0.0
H1399 H 0.76201 0.22716 0.86287 0.0
H1400 H 0.86469 0.31906 0.64022 0.0
H1401 H 0.87047 0.30122 0.71219 0.0
H1402 H 0.81668 0.33267 0.68735 0.0
H1403 H 0.88398 0.30267 0.67253 0.0
Tb1404 Tb 0.77921 0.76271 0.76734 0.0
C1405 C 0.86064 0.83249 0.82103 0.0
N1406 N 0.84119 0.82142 0.82771 0.0
C1407 C 0.86123 0.81557 0.86512 0.0
C1408 C 0.88134 0.8346 0.83576 0.0
C1409 C 0.84112 0.81376 0.84985 0.0
C1410 C 0.88145 0.82585 0.85796 0.0
C1411 C 0.87964 0.85252 0.79136 0.0
C1412 C 0.85972 0.84145 0.79911 0.0
C1413 C 0.90035 0.85422 0.80574 0.0
C1414 C 0.90118 0.84541 0.82794 0.0
Tb1415 Tb 0.80941 0.82246 0.80301 0.0
N1416 N 0.8393 0.83991 0.78583 0.0
C1417 C 0.87813 0.86206 0.76969 0.0
C1418 C 0.83778 0.85083 0.76575 0.0
C1419 C 0.85709 0.86145 0.757 0.0
H1420 H 0.82564 0.80691 0.85628 0.0
H1421 H 0.8557 0.86974 0.74085 0.0
H1422 H 0.76758 0.77496 0.71049 0.0
H1423 H 0.72697 0.71534 0.82348 0.0
H1424 H 0.82187 0.85248 0.75702 0.0
H1425 H 0.89305 0.87065 0.76308 0.0
H1426 H 0.76259 0.7347 0.81158 0.0
H1427 H 0.86107 0.80935 0.88258 0.0
H1428 H 0.9158 0.86268 0.80005 0.0
H1429 H 0.91725 0.84714 0.83897 0.0
H1430 H 0.73422 0.7748 0.68207 0.0
H1431 H 0.89699 0.82727 0.86988 0.0
H1432 H 0.69112 0.71413 0.7977 0.0
N1433 N 0.74949 0.76393 0.73899 0.0
C1434 C 0.72893 0.75427 0.74435 0.0
C1435 C 0.73245 0.76946 0.69977 0.0
C1436 C 0.70927 0.7526 0.72795 0.0
C1437 C 0.75147 0.77031 0.71642 0.0
C1438 C 0.71122 0.76088 0.70569 0.0
N1439 N 0.74705 0.74604 0.78068 0.0
C1440 C 0.74705 0.73507 0.80079 0.0
C1441 C 0.70697 0.73332 0.77139 0.0
C1442 C 0.72771 0.74463 0.76568 0.0
C1443 C 0.70672 0.72303 0.79268 0.0
C1444 C 0.72689 0.72374 0.80733 0.0
H1445 H 0.69654 0.75983 0.69254 0.0
H1446 H 0.67317 0.7405 0.72146 0.0
H1447 H 0.67117 0.72371 0.75958 0.0
O1448 O 0.78644 0.73174 0.77383 0.0
O1449 O 0.75914 0.78073 0.78998 0.0
O1450 O 0.77279 0.81898 0.79049 0.0
O1451 O 0.77321 0.7364 0.73778 0.0
O1452 O 0.79766 0.76386 0.80386 0.0
O1453 O 0.79304 0.79729 0.82387 0.0
O1454 O 0.81751 0.85792 0.81114 0.0
O1455 O 0.83055 0.79692 0.79525 0.0
O1456 O 0.81356 0.77553 0.75911 0.0
O1457 O 0.80315 0.83722 0.83676 0.0
O1458 O 0.79281 0.82349 0.76608 0.0
O1459 O 0.79401 0.78853 0.74599 0.0
C1460 C 0.75612 0.80172 0.79211 0.0
C1461 C 0.79829 0.71166 0.74114 0.0
C1462 C 0.82476 0.68781 0.74913 0.0
C1463 C 0.82474 0.68249 0.72395 0.0
C1464 C 0.79809 0.70615 0.71598 0.0
C1465 C 0.81175 0.69204 0.70747 0.0
C1466 C 0.81264 0.70348 0.75739 0.0
C1467 C 0.79489 0.77615 0.82379 0.0
C1468 C 0.78171 0.72309 0.75097 0.0
C1469 C 0.68844 0.7419 0.73383 0.0
C1470 C 0.68729 0.73228 0.7555 0.0
C1471 C 0.83196 0.78503 0.77431 0.0
C1472 C 0.79582 0.87375 0.83765 0.0
C1473 C 0.77406 0.90064 0.82517 0.0
C1474 C 0.77284 0.90783 0.84969 0.0
C1475 C 0.79437 0.88085 0.86211 0.0
C1476 C 0.78514 0.88329 0.81917 0.0
C1477 C 0.78274 0.89772 0.86807 0.0
C1478 C 0.79298 0.80995 0.74595 0.0
C1479 C 0.80997 0.85775 0.83198 0.0
H1480 H 0.83381 0.6702 0.71699 0.0
H1481 H 0.78702 0.7122 0.70297 0.0
H1482 H 0.81141 0.6876 0.68808 0.0
H1483 H 0.81313 0.70794 0.77684 0.0
H1484 H 0.7644 0.92136 0.85458 0.0
H1485 H 0.8026 0.87364 0.87658 0.0
H1486 H 0.78637 0.87807 0.80022 0.0
H1487 H 0.78184 0.90332 0.88697 0.0
Tb1488 Tb 0.57065 0.55313 0.54763 0.0
C1489 C 0.50122 0.47109 0.48301 0.0
N1490 N 0.51069 0.49236 0.47879 0.0
C1491 C 0.5125 0.47789 0.43736 0.0
C1492 C 0.49735 0.45231 0.46458 0.0
C1493 C 0.51584 0.49602 0.45613 0.0
C1494 C 0.50333 0.45592 0.44163 0.0
C1495 C 0.48477 0.44652 0.51079 0.0
C1496 C 0.49492 0.46823 0.5058 0.0
C1497 C 0.48105 0.42775 0.49254 0.0
C1498 C 0.48731 0.43064 0.4695 0.0
Tb1499 Tb 0.51314 0.5206 0.51043 0.0
N1500 N 0.4991 0.48673 0.52318 0.0
C1501 C 0.47856 0.44436 0.53393 0.0
C1502 C 0.49195 0.48485 0.5453 0.0
C1503 C 0.48202 0.46365 0.55119 0.0
H1504 H 0.52139 0.51297 0.452 0.0
H1505 H 0.47664 0.46228 0.56889 0.0
H1506 H 0.56014 0.56451 0.60465 0.0
H1507 H 0.60332 0.60738 0.48326 0.0
H1508 H 0.49314 0.49958 0.55825 0.0
H1509 H 0.47071 0.42799 0.53849 0.0
H1510 H 0.58993 0.57107 0.49766 0.0
H1511 H 0.51655 0.48096 0.41946 0.0
H1512 H 0.47324 0.41095 0.49603 0.0
H1513 H 0.48416 0.41602 0.45555 0.0
H1514 H 0.56367 0.59841 0.63447 0.0
H1515 H 0.50053 0.44194 0.42696 0.0
H1516 H 0.60711 0.64329 0.5106 0.0
N1517 N 0.57123 0.58305 0.57645 0.0
C1518 C 0.58005 0.60381 0.57044 0.0
C1519 C 0.56806 0.6002 0.61642 0.0
C1520 C 0.58284 0.62369 0.58718 0.0
C1521 C 0.56557 0.58097 0.59922 0.0
C1522 C 0.57667 0.62166 0.61037 0.0
N1523 N 0.58272 0.58566 0.53136 0.0
C1524 C 0.58968 0.58632 0.50903 0.0
C1525 C 0.59464 0.62649 0.54018 0.0
C1526 C 0.5859 0.60517 0.54718 0.0
C1527 C 0.60039 0.62726 0.51669 0.0
C1528 C 0.59809 0.60705 0.50113 0.0
H1529 H 0.57867 0.63652 0.62378 0.0
H1530 H 0.59393 0.66035 0.59291 0.0
H1531 H 0.60418 0.66281 0.55177 0.0
O1532 O 0.60404 0.55467 0.54264 0.0
O1533 O 0.5447 0.57331 0.53949 0.0
O1534 O 0.52474 0.55602 0.50269 0.0
O1535 O 0.59457 0.55666 0.57862 0.0
O1536 O 0.57089 0.53413 0.51154 0.0
O1537 O 0.53809 0.53712 0.48976 0.0
O1538 O 0.4825 0.52725 0.51869 0.0
O1539 O 0.5351 0.49731 0.52199 0.0
O1540 O 0.5627 0.51689 0.55329 0.0
O1541 O 0.48659 0.51539 0.48192 0.0
O1542 O 0.51349 0.53683 0.54812 0.0
O1543 O 0.54741 0.5353 0.56906 0.0
C1544 C 0.53297 0.57458 0.51849 0.0
C1545 C 0.62236 0.53631 0.57112 0.0
C1546 C 0.64557 0.51066 0.55784 0.0
C1547 C 0.64568 0.50231 0.58039 0.0
C1548 C 0.6227 0.52801 0.59369 0.0
C1549 C 0.63417 0.51091 0.59816 0.0
C1550 C 0.63355 0.52731 0.55331 0.0
C1551 C 0.55871 0.53444 0.49066 0.0
C1552 C 0.61031 0.55412 0.56564 0.0
C1553 C 0.59163 0.6449 0.58027 0.0
C1554 C 0.59746 0.6463 0.55683 0.0
C1555 C 0.55101 0.49768 0.54026 0.0
C1556 C 0.4631 0.54097 0.48711 0.0
C1557 C 0.43479 0.56288 0.49173 0.0
C1558 C 0.44244 0.57571 0.4737 0.0
C1559 C 0.47067 0.55355 0.4688 0.0
C1560 C 0.44521 0.54563 0.49829 0.0
C1561 C 0.46029 0.57089 0.46214 0.0
C1562 C 0.52611 0.53539 0.56841 0.0
C1563 C 0.47372 0.52338 0.49582 0.0
H1564 H 0.65509 0.48961 0.58454 0.0
H1565 H 0.61409 0.53463 0.60781 0.0
H1566 H 0.63439 0.50454 0.61554 0.0
H1567 H 0.63293 0.53336 0.53571 0.0
H1568 H 0.43459 0.58924 0.46854 0.0
H1569 H 0.48465 0.55019 0.4599 0.0
H1570 H 0.43975 0.53612 0.51274 0.0
H1571 H 0.4662 0.58069 0.44816 0.0
Tb1572 Tb 1.01191 0.53635 0.03958 0.0
C1573 C 0.09381 0.58601 0.99598 0.0
N1574 N 0.07756 0.56704 0.98755 0.0
C1575 C 0.07399 0.57893 0.94791 0.0
C1576 C 0.10012 0.60265 0.98083 0.0
C1577 C 0.06819 0.56294 0.96362 0.0
C1578 C 0.08988 0.59897 0.95658 0.0
C1579 C 0.12024 0.6087 0.02966 0.0
C1580 C 0.10386 0.58893 0.02012 0.0
C1581 C 0.1264 0.62542 0.01466 0.0
C1582 C 0.11643 0.62238 0.99032 0.0
Tb1583 Tb 0.07117 0.5418 0.01472 0.0
N1584 N 0.09732 0.57252 0.03426 0.0
C1585 C 0.13002 0.61102 0.05396 0.0
C1586 C 0.10759 0.5742 0.05758 0.0
C1587 C 0.12379 0.5936 0.06791 0.0
H1588 H 0.05666 0.54716 0.95622 0.0
H1589 H 0.13174 0.59495 0.0865 0.0
H1590 H 0.02569 0.53746 0.1003 0.0
H1591 H 0.94781 0.47862 0.97616 0.0
H1592 H 0.104 0.56037 0.06802 0.0
H1593 H 0.14266 0.62597 0.06199 0.0
H1594 H 0.9759 0.5144 0.99073 0.0
H1595 H 0.0664 0.57566 0.92903 0.0
H1596 H 0.13896 0.64074 0.02169 0.0
H1597 H 0.12145 0.63538 0.97896 0.0
H1598 H 0.02208 0.50995 0.12943 0.0
H1599 H 0.09433 0.61131 0.94434 0.0
H1600 H 0.94253 0.44804 0.00235 0.0
N1601 N 1.00897 0.51331 0.0696 0.0
C1602 C 0.99525 0.49241 0.06258 0.0
C1603 C 0.01482 0.50464 0.11056 0.0
C1604 C 0.9916 0.47647 0.0791 0.0
C1605 C 0.01739 0.52006 0.09368 0.0
C1606 C 1.00221 0.48259 0.10314 0.0
N1607 N 0.98713 0.50346 0.02389 0.0
C1608 C 0.97396 0.50091 0.00192 0.0
C1609 C 0.96762 0.46697 0.03182 0.0
C1610 C 0.98345 0.48758 0.03922 0.0
C1611 C 0.95493 0.46361 0.00869 0.0
C1612 C 0.95791 0.4808 0.99381 0.0
H1613 H 0.99989 0.47082 0.11638 0.0
H1614 H 0.97384 0.44286 0.08382 0.0
H1615 H 0.95278 0.4346 0.04245 0.0
O1616 O 0.98699 0.55255 0.02555 0.0
O1617 O 0.01895 0.50586 0.01805 0.0
O1618 O 0.05682 0.50921 0.02714 0.0
O1619 O 0.98749 0.54247 0.06127 0.0
O1620 O 0.01825 0.54968 0.00585 0.0
O1621 O 0.0411 0.5292 0.98849 0.0
O1622 O 0.10378 0.53528 0.01877 0.0
O1623 O 0.05848 0.57386 0.0216 0.0
O1624 O 0.03522 0.56974 0.05163 0.0
O1625 O 0.08045 0.52295 0.98508 0.0
O1626 O 0.06875 0.53151 0.05076 0.0
O1627 O 0.04191 0.54863 0.06613 0.0
C1628 C 0.03656 0.49649 0.02013 0.0
C1629 C 0.97259 0.57435 0.05483 0.0
C1630 C 0.947 0.60006 0.05429 0.0
C1631 C 0.96223 0.61553 0.07211 0.0
C1632 C 0.98749 0.58977 0.07292 0.0
C1633 C 0.98232 0.61031 0.08145 0.0
C1634 C 0.95225 0.57943 0.04573 0.0
C1635 C 0.02348 0.53822 0.98697 0.0
C1636 C 0.97781 0.5528 0.04543 0.0
C1637 C 0.97672 0.45537 0.07142 0.0
C1638 C 0.96468 0.45068 0.04787 0.0
C1639 C 0.04877 0.58267 0.03933 0.0
C1640 C 0.11722 0.51399 0.98607 0.0
C1641 C 0.14996 0.49723 0.9903 0.0
C1642 C 0.15014 0.49588 0.96503 0.0
C1643 C 0.11744 0.5122 0.9608 0.0
C1644 C 0.13344 0.50629 1.00083 0.0
C1645 C 0.13387 0.50323 0.95038 0.0
C1646 C 0.05997 0.54035 0.06888 0.0
C1647 C 0.10029 0.52423 0.99685 0.0
H1648 H 0.95843 0.63152 0.07897 0.0
H1649 H 1.00298 0.5858 0.0805 0.0
H1650 H 0.99388 0.62219 0.09536 0.0
H1651 H 0.94067 0.56749 0.03182 0.0
H1652 H 0.16274 0.48888 0.95662 0.0
H1653 H 0.10508 0.51805 0.94915 0.0
H1654 H 0.13331 0.50745 0.02035 0.0
H1655 H 0.13405 0.50202 0.93089 0.0
H1656 H 0.97454 0.18632 0.96772 0.0
H1657 H 0.04423 0.2197 0.98684 0.0
H1658 H 0.98261 0.15153 0.98066 0.0
H1659 H 0.05236 0.18439 1.00014 0.0
H1660 H 0.05102 0.1208 0.04406 0.0
H1661 H 0.04563 0.15695 0.03165 0.0
H1662 H 1.00104 0.12074 0.96807 0.0
H1663 H 1.00758 0.08475 0.97969 0.0
C1664 C 0.9917 0.18641 0.97473 0.0
C1665 C 1.00864 0.20631 0.97602 0.0
C1666 C 0.99637 0.16613 0.98211 0.0
C1667 C 0.01823 0.16463 0.99139 0.0
C1668 C 0.03525 0.18463 0.99325 0.0
C1669 C 0.03058 0.20503 0.98557 0.0
C1670 C 0.04059 0.12039 0.02708 0.0
C1671 C 0.03038 0.09935 0.01273 0.0
C1672 C 0.0373 0.14137 0.01998 0.0
C1673 C 0.02288 0.14223 0.99866 0.0
C1674 C 1.01224 0.12116 0.98463 0.0
C1675 C 0.01607 0.10029 0.99135 0.0
H1676 H 0.12605 0.80769 0.18599 0.0
H1677 H 0.16311 0.79532 0.12655 0.0
H1678 H 0.15872 0.80632 0.21514 0.0
H1679 H 0.19551 0.7941 0.15543 0.0
H1680 H 0.25723 0.81428 0.21399 0.0
H1681 H 0.22468 0.81803 0.18669 0.0
H1682 H 0.18092 0.77822 0.22869 0.0
H1683 H 0.21351 0.77373 0.25556 0.0
C1684 C 0.14118 0.80494 0.1791 0.0
C1685 C 0.1418 0.80169 0.15378 0.0
C1686 C 0.15991 0.80396 0.19584 0.0
C1687 C 0.17994 0.8001 0.18778 0.0
C1688 C 0.18061 0.79735 0.16248 0.0
C1689 C 0.16187 0.79797 0.14583 0.0
C1690 C 0.24072 0.80629 0.21754 0.0
C1691 C 0.23828 0.79388 0.2374 0.0
C1692 C 0.22194 0.80843 0.20175 0.0
C1693 C 0.19997 0.79852 0.20538 0.0
C1694 C 0.19747 0.78642 0.22543 0.0
C1695 C 0.21629 0.78394 0.241 0.0
H1696 H 0.53726 0.84647 0.50232 0.0
H1697 H 0.4963 0.85749 0.43867 0.0
H1698 H 0.54285 0.88706 0.51847 0.0
H1699 H 0.50198 0.89732 0.45431 0.0
H1700 H 0.49934 0.96543 0.49402 0.0
H1701 H 0.49306 0.92453 0.4825 0.0
H1702 H 0.56078 0.92603 0.51405 0.0
H1703 H 0.5667 0.96712 0.5264 0.0
C1704 C 0.52926 0.85734 0.49183 0.0
C1705 C 0.51622 0.84824 0.46907 0.0
C1706 C 0.53263 0.88083 0.501 0.0
C1707 C 0.52285 0.896 0.48792 0.0
C1708 C 0.5096 0.88662 0.46541 0.0
C1709 C 0.50644 0.86345 0.45624 0.0
C1710 C 0.51281 0.95711 0.49899 0.0
C1711 C 0.53346 0.96997 0.51152 0.0
C1712 C 0.50933 0.93342 0.492 0.0
C1713 C 0.52639 0.92139 0.49705 0.0
C1714 C 0.54701 0.93424 0.50989 0.0
C1715 C 0.55051 0.95804 0.51686 0.0
H1716 H 0.48986 0.31391 0.62228 0.0
H1717 H 0.53022 0.28824 0.67647 0.0
H1718 H 0.45926 0.30951 0.64662 0.0
H1719 H 0.49926 0.28318 0.70063 0.0
H1720 H 0.44546 0.28843 0.74802 0.0
H1721 H 0.47681 0.30061 0.7256 0.0
H1722 H 0.43168 0.28096 0.65788 0.0
H1723 H 0.40052 0.26949 0.68056 0.0
C1724 C 0.49225 0.3073 0.63942 0.0
C1725 C 0.5126 0.30136 0.64729 0.0
C1726 C 0.47456 0.30465 0.65339 0.0
C1727 C 0.47655 0.29588 0.67569 0.0
C1728 C 0.49708 0.2903 0.68378 0.0
C1729 C 0.51485 0.29304 0.66981 0.0
C1730 C 0.44221 0.28763 0.72841 0.0
C1731 C 0.4205 0.27857 0.71605 0.0
C1732 C 0.46023 0.29417 0.71546 0.0
C1733 C 0.45701 0.29158 0.68978 0.0
C1734 C 0.43495 0.28355 0.67759 0.0
C1735 C 0.41697 0.27708 0.69056 0.0
H1736 H 0.03884 0.79952 0.64205 0.0
H1737 H 0.02781 0.84693 0.70062 0.0
H1738 H 0.04317 0.82959 0.61605 0.0
H1739 H 0.03131 0.87665 0.67457 0.0
H1740 H 0.06848 0.93044 0.63227 0.0
H1741 H 0.05829 0.90076 0.65765 0.0
H1742 H 0.02629 0.85399 0.59332 0.0
H1743 H 0.03734 0.88381 0.56804 0.0
C1744 C 0.03711 0.81628 0.64932 0.0
C1745 C 0.03314 0.82076 0.67355 0.0
C1746 C 0.03941 0.83356 0.63432 0.0
C1747 C 0.03767 0.85578 0.64308 0.0
C1748 C 0.0332 0.86 0.66716 0.0
C1749 C 0.03105 0.84282 0.68215 0.0
C1750 C 0.05854 0.91405 0.62372 0.0
C1751 C 0.05323 0.90958 0.59827 0.0
C1752 C 0.05276 0.89688 0.63823 0.0
C1753 C 0.04155 0.8747 0.62767 0.0
C1754 C 0.03523 0.87065 0.60219 0.0
C1755 C 0.04113 0.88785 0.58768 0.0
H1756 H 0.47183 0.80483 0.87418 0.0
H1757 H 0.48466 0.81116 0.80059 0.0
H1758 H 0.43259 0.80282 0.86235 0.0
H1759 H 0.44433 0.80788 0.78801 0.0
H1760 H 0.37047 0.81527 0.77446 0.0
H1761 H 0.41081 0.81987 0.78518 0.0
H1762 H 0.39895 0.78226 0.84562 0.0
H1763 H 0.35904 0.77957 0.83605 0.0
C1764 C 0.46628 0.80554 0.8552 0.0
C1765 C 0.48189 0.80798 0.83844 0.0
C1766 C 0.44329 0.8041 0.84823 0.0
C1767 C 0.43435 0.80454 0.82388 0.0
C1768 C 0.45004 0.80747 0.80699 0.0
C1769 C 0.47339 0.8093 0.81417 0.0
C1770 C 0.37644 0.80856 0.79047 0.0
C1771 C 0.36103 0.79771 0.80476 0.0
C1772 C 0.39988 0.81081 0.79645 0.0
C1773 C 0.409 0.80186 0.81672 0.0
C1774 C 0.39336 0.79029 0.83041 0.0
C1775 C 0.37005 0.78846 0.82471 0.0
H1776 H 0.53391 0.21332 0.11264 0.0
H1777 H 0.52569 0.17976 0.17636 0.0
H1778 H 0.53652 0.17804 0.08941 0.0
H1779 H 0.52891 0.14407 0.15302 0.0
H1780 H 0.51669 0.07844 0.09685 0.0
H1781 H 0.5129 0.11297 0.12158 0.0
H1782 H 0.56021 0.15308 0.08323 0.0
H1783 H 0.56372 0.11876 0.05849 0.0
C1784 C 0.53267 0.19839 0.12184 0.0
C1785 C 0.52959 0.19969 0.1466 0.0
C1786 C 0.5344 0.17798 0.10842 0.0
C1787 C 0.53328 0.15788 0.11914 0.0
C1788 C 0.52975 0.15898 0.14385 0.0
C1789 C 0.52794 0.17955 0.15736 0.0
C1790 C 0.52629 0.09463 0.09366 0.0
C1791 C 0.54027 0.09559 0.07523 0.0
C1792 C 0.5242 0.11456 0.10803 0.0
C1793 C 0.536 0.13621 0.10449 0.0
C1794 C 0.5503 0.13702 0.08632 0.0
C1795 C 0.55237 0.11715 0.07201 0.0
H1796 H 0.12938 0.34722 0.33033 0.0
H1797 H 0.12198 0.2763 0.3379 0.0
H1798 H 0.16665 0.34757 0.31742 0.0
H1799 H 0.15843 0.27659 0.32517 0.0
H1800 H 0.2136 0.27527 0.27866 0.0
H1801 H 0.17765 0.27834 0.29011 0.0
H1802 H 0.20736 0.34415 0.33089 0.0
H1803 H 0.24431 0.34045 0.31975 0.0
C1804 C 0.13539 0.33162 0.32894 0.0
C1805 C 0.12209 0.31166 0.33508 0.0
C1806 C 0.15704 0.33186 0.32177 0.0
C1807 C 0.16605 0.31207 0.32002 0.0
C1808 C 0.15246 0.29221 0.32583 0.0
C1809 C 0.13125 0.29207 0.33327 0.0
C1810 C 0.21297 0.29023 0.2904 0.0
C1811 C 0.23268 0.30708 0.29854 0.0
C1812 C 0.1919 0.29215 0.297 0.0
C1813 C 0.18903 0.31138 0.31193 0.0
C1814 C 0.20849 0.32895 0.31942 0.0
C1815 C 0.22989 0.32679 0.31299 0.0
H1816 H 0.94522 0.02393 0.18803 0.0
H1817 H 1.01367 0.03127 0.22116 0.0
H1818 H 0.95773 0.02576 0.14811 0.0
H1819 H 0.02623 0.03371 0.18155 0.0
H1820 H 0.04071 0.01475 0.10544 0.0
H1821 H 0.02648 0.01164 0.14412 0.0
H1822 H 0.97748 0.05036 0.12305 0.0
H1823 H 0.99145 0.05284 0.08377 0.0
C1824 C 0.96294 0.02596 0.18684 0.0
C1825 C 0.97841 0.02737 0.20789 0.0
C1826 C 0.97016 0.02719 0.16392 0.0
C1827 C 0.99304 0.02983 0.16142 0.0
C1828 C 1.00844 0.03128 0.18255 0.0
C1829 C 1.00124 0.03003 0.2054 0.0
C1830 C 0.02688 0.02261 0.10903 0.0
C1831 C 0.0173 0.03416 0.09156 0.0
C1832 C 0.01877 0.02094 0.13134 0.0
C1833 C 1.00093 0.03095 0.13701 0.0
C1834 C 0.99109 0.04223 0.11933 0.0
C1835 C 0.99914 0.04376 0.09683 0.0
H1836 H 0.25473 0.62539 0.46801 0.0
H1837 H 0.30298 0.67959 0.51413 0.0
H1838 H 0.24887 0.65129 0.43887 0.0
H1839 H 0.2976 0.7054 0.48455 0.0
H1840 H 0.25652 0.74935 0.44377 0.0
H1841 H 0.26798 0.724 0.47135 0.0
H1842 H 0.26547 0.67313 0.40982 0.0
H1843 H 0.25261 0.69772 0.3825 0.0
C1844 C 0.26448 0.64269 0.47164 0.0
C1845 C 0.27925 0.65048 0.49336 0.0
C1846 C 0.26118 0.65754 0.4549 0.0
C1847 C 0.27272 0.68042 0.45947 0.0
C1848 C 0.28822 0.68796 0.48072 0.0
C1849 C 0.29141 0.67313 0.49755 0.0
C1850 C 0.25821 0.73267 0.43619 0.0
C1851 C 0.2534 0.72547 0.41098 0.0
C1852 C 0.26514 0.7183 0.45193 0.0
C1853 C 0.26752 0.69652 0.44273 0.0
C1854 C 0.26345 0.68966 0.41748 0.0
C1855 C 0.25632 0.7039 0.4018 0.0
H1856 H 0.61565 0.04526 0.71979 0.0
H1857 H 0.6714 0.04771 0.67848 0.0
H1858 H 0.59035 0.04291 0.68199 0.0
H1859 H 0.64618 0.04547 0.64111 0.0
H1860 H 0.59105 0.01047 0.57974 0.0
H1861 H 0.61395 0.01328 0.61901 0.0
H1862 H 0.58545 0.06844 0.64756 0.0
H1863 H 0.56267 0.06592 0.60809 0.0
C1864 C 0.62249 0.04542 0.70273 0.0
C1865 C 0.6454 0.04641 0.70199 0.0
C1866 C 0.60807 0.04416 0.68124 0.0
C1867 C 0.61645 0.04375 0.65888 0.0
C1868 C 0.63939 0.04536 0.65821 0.0
C1869 C 0.65377 0.0467 0.6796 0.0
C1870 C 0.58961 0.02311 0.59444 0.0
C1871 C 0.57515 0.03794 0.59102 0.0
C1872 C 0.60267 0.02472 0.61679 0.0
C1873 C 0.60138 0.04113 0.63602 0.0
C1874 C 0.58648 0.05556 0.63291 0.0
C1875 C 0.57351 0.05408 0.61044 0.0
H1876 H 0.29436 0.31469 0.98218 0.0
H1877 H 0.31289 0.3842 0.96828 0.0
H1878 H 0.29379 0.3015 0.93907 0.0
H1879 H 0.31291 0.37106 0.92548 0.0
H1880 H 0.28581 0.34196 0.8466 0.0
H1881 H 0.28753 0.35444 0.88978 0.0
H1882 H 0.31622 0.29775 0.90685 0.0
H1883 H 0.31358 0.28468 0.86344 0.0
C1884 C 0.29847 0.32717 0.96999 0.0
C1885 C 0.30352 0.35052 0.97877 0.0
C1886 C 0.29829 0.31959 0.94524 0.0
C1887 C 0.30319 0.33517 0.92861 0.0
C1888 C 0.30862 0.35852 0.93755 0.0
C1889 C 0.30873 0.36608 0.96221 0.0
C1890 C 0.29252 0.3321 0.85949 0.0
C1891 C 0.29977 0.31238 0.85138 0.0
C1892 C 0.29367 0.3394 0.88438 0.0
C1893 C 0.30216 0.32725 0.902 0.0
C1894 C 0.3094 0.30748 0.8939 0.0
C1895 C 0.30814 0.3001 0.86893 0.0
H1896 H 0.99349 0.99092 0.32902 0.0
H1897 H 0.96738 0.05129 0.34281 0.0
H1898 H 1.00874 0.99497 0.37196 0.0
H1899 H 0.98295 0.05558 0.38573 0.0
H1900 H 0.98858 0.03987 0.46436 0.0
H1901 H 0.97583 0.03743 0.42107 0.0
H1902 H 0.03633 0.01697 0.40444 0.0
H1903 H 0.04893 0.01904 0.44792 0.0
C1904 C 0.99123 1.00523 0.34116 0.0
C1905 C 0.97914 0.02073 0.33241 0.0
C1906 C 1.00009 1.00763 0.36582 0.0
C1907 C 0.99698 0.02551 0.38248 0.0
C1908 C 0.9854 0.04138 0.37357 0.0
C1909 C 0.97665 0.03906 0.34886 0.0
C1910 C 0.99923 0.03487 0.45152 0.0
C1911 C 0.01978 0.02956 0.45971 0.0
C1912 C 0.99196 0.03363 0.4266 0.0
C1913 C 1.00506 0.02713 0.40911 0.0
C1914 C 0.02565 0.0218 0.41731 0.0
C1915 C 0.03291 0.02301 0.44229 0.0
H1916 H 0.28628 0.71429 0.59612 0.0
H1917 H 0.28914 0.65825 0.63729 0.0
H1918 H 0.2877 0.73932 0.63392 0.0
H1919 H 0.29001 0.68308 0.67475 0.0
H1920 H 0.31705 0.73927 0.73766 0.0
H1921 H 0.31648 0.71565 0.69937 0.0
H1922 H 0.26313 0.7436 0.66598 0.0
H1923 H 0.26382 0.7675 0.70433 0.0
C1924 C 0.28718 0.70735 0.6132 0.0
C1925 C 0.28771 0.68442 0.61386 0.0
C1926 C 0.28786 0.7216 0.63473 0.0
C1927 C 0.28901 0.71304 0.65709 0.0
C1928 C 0.28948 0.69012 0.65771 0.0
C1929 C 0.28892 0.67593 0.63628 0.0
C1930 C 0.30524 0.74041 0.72213 0.0
C1931 C 0.2906 0.75527 0.72377 0.0
C1932 C 0.30487 0.72687 0.7003 0.0
C1933 C 0.28977 0.72791 0.67986 0.0
C1934 C 0.27514 0.7428 0.68146 0.0
C1935 C 0.27551 0.75638 0.70333 0.0
H1936 H 0.70523 0.07713 0.84492 0.0
H1937 H 0.65176 0.02675 0.80057 0.0
H1938 H 0.67985 0.08402 0.87382 0.0
H1939 H 0.62647 0.03316 0.82998 0.0
H1940 H 0.58283 0.07458 0.86999 0.0
H1941 H 0.60778 0.06307 0.8424 0.0
H1942 H 0.65903 0.06794 0.90373 0.0
H1943 H 0.63478 0.08085 0.93101 0.0
C1944 C 0.6882 0.06712 0.84165 0.0
C1945 C 0.68049 0.0514 0.82051 0.0
C1946 C 0.67364 0.07103 0.85825 0.0
C1947 C 0.65113 0.05916 0.85415 0.0
C1948 C 0.64364 0.04281 0.83344 0.0
C1949 C 0.65817 0.03901 0.81674 0.0
C1950 C 0.59951 0.07341 0.87752 0.0
C1951 C 0.60688 0.07885 0.90266 0.0
C1952 C 0.61367 0.06646 0.86178 0.0
C1953 C 0.63541 0.06469 0.87091 0.0
C1954 C 0.6425 0.06947 0.8961 0.0
C1955 C 0.62847 0.07662 0.91177 0.0
H1956 H 0.27979 0.37243 0.11043 0.0
H1957 H 0.3431 0.35179 0.11373 0.0
H1958 H 0.27355 0.35764 0.14877 0.0
H1959 H 0.33711 0.3375 0.15204 0.0
H1960 H 0.31086 0.29301 0.20641 0.0
H1961 H 0.31472 0.30741 0.16796 0.0
H1962 H 0.28665 0.36419 0.1926 0.0
H1963 H 0.28195 0.34909 0.23125 0.0
C1964 C 0.29236 0.36469 0.11926 0.0
C1965 C 0.31194 0.36325 0.10887 0.0
C1966 C 0.28886 0.35639 0.1414 0.0
C1967 C 0.30479 0.34631 0.15362 0.0
C1968 C 0.32428 0.34482 0.14308 0.0
C1969 C 0.32779 0.35315 0.12108 0.0
C1970 C 0.3053 0.3085 0.2037 0.0
C1971 C 0.29598 0.31984 0.22202 0.0
C1972 C 0.30774 0.31691 0.1816 0.0
C1973 C 0.3012 0.33712 0.17709 0.0
C1974 C 0.29171 0.34847 0.19531 0.0
C1975 C 0.28915 0.33993 0.21754 0.0
H1976 H 0.21898 0.93698 0.969 0.0
H1977 H 0.25884 1.00454 0.99454 0.0
H1978 H 0.18555 0.94947 0.97939 0.0
H1979 H 0.22579 0.0168 0.00539 0.0
H1980 H 0.16652 0.03614 0.02685 0.0
H1981 H 0.18875 0.02356 0.99708 0.0
H1982 H 0.17818 0.95745 0.02138 0.0
H1983 H 0.15444 0.96948 0.05 0.0
C1984 C 0.22046 0.95467 0.976 0.0
C1985 C 0.24148 0.9697 0.98163 0.0
C1986 C 0.20137 0.96175 0.98208 0.0
C1987 C 0.20319 0.98391 0.99369 0.0
C1988 C 0.2238 0.99961 0.99643 0.0
C1989 C 0.24281 0.99255 0.99039 0.0
C1990 C 0.16822 0.01864 0.0253 0.0
C1991 C 0.15882 1.0038 0.04094 0.0
C1992 C 0.1811 0.01153 0.00831 0.0
C1993 C 0.18525 0.9896 0.00697 0.0
C1994 C 0.17498 0.97437 0.02173 0.0
C1995 C 0.16179 0.98139 0.0385 0.0
H1996 H 0.713 0.63809 0.06751 0.0
H1997 H 0.70409 0.63462 0.98909 0.0
H1998 H 0.6757 0.61469 0.0655 0.0
H1999 H 0.66663 0.61051 0.98703 0.0
H2000 H 0.59181 0.58911 0.99794 0.0
H2001 H 0.62934 0.61162 0.99735 0.0
H2002 H 0.65569 0.57612 0.05305 0.0
H2003 H 0.6181 0.55426 0.05431 0.0
C2004 C 0.70314 0.63218 0.04977 0.0
C2005 C 0.71163 0.63813 0.02844 0.0
C2006 C 0.68175 0.6186 0.04862 0.0
C2007 C 0.66824 0.61045 0.02609 0.0
C2008 C 0.67657 0.61659 0.0047 0.0
C2009 C 0.69806 0.63032 0.00586 0.0
C2010 C 0.60564 0.58604 0.01 0.0
C2011 C 0.60195 0.56987 0.0262 0.0
C2012 C 0.62718 0.59885 0.00952 0.0
C2013 C 0.64553 0.59578 0.02524 0.0
C2014 C 0.64189 0.57917 0.04096 0.0
C2015 C 0.62036 0.56643 0.04148 0.0
H2016 H 0.65681 0.47122 0.32112 0.0
H2017 H 0.69969 0.51464 0.28109 0.0
H2018 H 0.67895 0.44238 0.31532 0.0
H2019 H 0.7213 0.48574 0.27477 0.0
H2020 H 0.76597 0.43756 0.27688 0.0
H2021 H 0.74711 0.46619 0.29398 0.0
H2022 H 0.68458 0.41612 0.28196 0.0
H2023 H 0.70381 0.38751 0.2656 0.0
C2024 C 0.671 0.47466 0.3112 0.0
C2025 C 0.67643 0.4952 0.30151 0.0
C2026 C 0.68364 0.45811 0.30781 0.0
C2027 C 0.70195 0.46175 0.29465 0.0
C2028 C 0.7076 0.48251 0.28542 0.0
C2029 C 0.69505 0.49904 0.28886 0.0
C2030 C 0.74838 0.43263 0.27878 0.0
C2031 C 0.73627 0.41048 0.27023 0.0
C2032 C 0.7375 0.44901 0.28824 0.0
C2033 C 0.71425 0.44354 0.28898 0.0
C2034 C 0.7025 0.42088 0.28186 0.0
C2035 C 0.71345 0.40448 0.27252 0.0
H2036 H 0.87065 0.49038 0.49715 0.0
H2037 H 0.87879 0.48545 0.57439 0.0
H2038 H 0.91086 0.49826 0.49804 0.0
H2039 H 0.91956 0.49346 0.57513 0.0
H2040 H 0.98788 0.54208 0.56151 0.0
H2041 H 0.94936 0.52697 0.56793 0.0
H2042 H 0.94132 0.47688 0.50428 0.0
H2043 H 0.97989 0.4923 0.4979 0.0
C2044 C 0.88103 0.49111 0.51439 0.0
C2045 C 0.87156 0.48726 0.53573 0.0
C2046 C 0.90406 0.4953 0.51479 0.0
C2047 C 0.91814 0.49585 0.53653 0.0
C2048 C 0.90888 0.49283 0.55812 0.0
C2049 C 0.88566 0.48844 0.5577 0.0
C2050 C 0.97804 0.52727 0.54957 0.0
C2051 C 0.98645 0.51804 0.52941 0.0
C2052 C 0.95612 0.51865 0.55321 0.0
C2053 C 0.94246 0.50099 0.53643 0.0
C2054 C 0.95157 0.49071 0.51727 0.0
C2055 C 0.97346 0.49939 0.51363 0.0
H2056 H 0.3824 0.10821 0.35342 0.0
H2057 H 0.33584 0.06975 0.29173 0.0
H2058 H 0.37508 0.1436 0.34007 0.0
H2059 H 0.32908 0.10486 0.27867 0.0
H2060 H 0.36541 0.17436 0.25104 0.0
H2061 H 0.37697 0.14776 0.27736 0.0
H2062 H 0.31946 0.14871 0.31467 0.0
H2063 H 0.30714 0.174 0.2881 0.0
C2064 C 0.37032 0.10728 0.33743 0.0
C2065 C 0.35996 0.08631 0.32338 0.0
C2066 C 0.36637 0.12742 0.32979 0.0
C2067 C 0.35201 0.12649 0.30824 0.0
C2068 C 0.3404 0.10563 0.29526 0.0
C2069 C 0.34421 0.08563 0.30286 0.0
C2070 C 0.35552 0.16925 0.26517 0.0
C2071 C 0.33542 0.1763 0.26744 0.0
C2072 C 0.36233 0.15447 0.28042 0.0
C2073 C 0.34921 0.14691 0.29812 0.0
C2074 C 0.33 0.155 0.30149 0.0
C2075 C 0.32304 0.16946 0.28618 0.0
H2076 H 0.32956 0.15092 0.54794 0.0
H2077 H 0.33568 0.13999 0.47129 0.0
H2078 H 0.36255 0.13565 0.55756 0.0
H2079 H 0.36904 0.12469 0.48111 0.0
H2080 H 0.40927 0.07257 0.51503 0.0
H2081 H 0.3795 0.09067 0.49891 0.0
H2082 H 0.40334 0.14758 0.55591 0.0
H2083 H 0.43275 0.12948 0.57194 0.0
C2084 C 0.33793 0.14526 0.53311 0.0
C2085 C 0.32999 0.14674 0.50884 0.0
C2086 C 0.35697 0.13667 0.53865 0.0
C2087 C 0.36855 0.12926 0.52009 0.0
C2088 C 0.36044 0.1303 0.49576 0.0
C2089 C 0.34139 0.13909 0.49018 0.0
C2090 C 0.40849 0.08927 0.52354 0.0
C2091 C 0.42302 0.09956 0.54486 0.0
C2092 C 0.39145 0.09958 0.51441 0.0
C2093 C 0.38881 0.12026 0.52654 0.0
C2094 C 0.40465 0.13138 0.54655 0.0
C2095 C 0.42156 0.12113 0.55561 0.0
H2096 H 0.71146 0.60792 0.29482 0.0
H2097 H 0.66159 0.6478 0.30446 0.0
H2098 H 0.7393 0.64255 0.29303 0.0
H2099 H 0.6891 0.68214 0.30205 0.0
H2100 H 0.74645 0.74184 0.32277 0.0
H2101 H 0.72186 0.70593 0.32608 0.0
H2102 H 0.74956 0.67281 0.26793 0.0
H2103 H 0.77464 0.70909 0.26486 0.0
C2104 C 0.70641 0.62405 0.29651 0.0
C2105 C 0.68432 0.6251 0.30003 0.0
C2106 C 0.72235 0.64388 0.29533 0.0
C2107 C 0.71654 0.66518 0.29762 0.0
C2108 C 0.69435 0.66611 0.30078 0.0
C2109 C 0.67849 0.64636 0.30206 0.0
C2110 C 0.74753 0.72686 0.31086 0.0
C2111 C 0.76243 0.72832 0.29347 0.0
C2112 C 0.73327 0.70627 0.31262 0.0
C2113 C 0.73339 0.68652 0.29698 0.0
C2114 C 0.74907 0.68768 0.28032 0.0
C2115 C 0.76348 0.70843 0.27859 0.0
H2116 H 0.89132 0.44896 0.78931 0.0
H2117 H 0.82866 0.46569 0.76346 0.0
H2118 H 0.87258 0.40976 0.7877 0.0
H2119 H 0.80978 0.42561 0.75959 0.0
H2120 H 0.78115 0.3587 0.78898 0.0
H2121 H 0.79728 0.39778 0.78373 0.0
H2122 H 0.8566 0.37682 0.76316 0.0
H2123 H 0.84212 0.33937 0.77247 0.0
C2124 C 0.8736 0.44395 0.78237 0.0
C2125 C 0.86136 0.46003 0.77618 0.0
C2126 C 0.8628 0.42142 0.78127 0.0
C2127 C 0.83966 0.41438 0.77309 0.0
C2128 C 0.82755 0.43051 0.76618 0.0
C2129 C 0.83831 0.45331 0.7681 0.0
C2130 C 0.79762 0.36263 0.7833 0.0
C2131 C 0.81022 0.34595 0.78051 0.0
C2132 C 0.80674 0.3849 0.77995 0.0
C2133 C 0.82835 0.39051 0.7732 0.0
C2134 C 0.84017 0.37331 0.76894 0.0
C2135 C 0.83155 0.35153 0.77347 0.0
H2136 H 0.04073 0.8557 0.0753 0.0
H2137 H 0.10899 0.89092 0.1004 0.0
H2138 H 0.03296 0.89014 0.05981 0.0
H2139 H 0.10187 0.92452 0.08416 0.0
H2140 H 0.08217 0.99105 0.07507 0.0
H2141 H 0.08812 0.95593 0.08865 0.0
H2142 H 0.03429 0.91789 0.03396 0.0
H2143 H 0.02799 0.95351 0.02093 0.0
C2144 C 0.05425 0.87058 0.07714 0.0
C2145 C 0.07556 0.87018 0.08934 0.0
C2146 C 0.0498 0.89059 0.0682 0.0
C2147 C 0.06655 0.91099 0.07086 0.0
C2148 C 0.08801 0.90998 0.08221 0.0
C2149 C 0.09229 0.89028 0.0914 0.0
C2150 C 0.07157 0.97527 0.06573 0.0
C2151 C 0.05451 0.97565 0.04669 0.0
C2152 C 0.07512 0.95471 0.0735 0.0
C2153 C 0.06201 0.93324 0.06247 0.0
C2154 C 0.04483 0.93363 0.0434 0.0
C2155 C 0.04117 0.95433 0.03574 0.0
H2156 H 0.956 0.29764 0.90706 0.0
H2157 H 0.93556 0.22543 0.88389 0.0
H2158 H 0.92293 0.30335 0.8819 0.0
H2159 H 0.90216 0.23093 0.85954 0.0
H2160 H 0.8552 0.24847 0.79871 0.0
H2161 H 0.8887 0.24359 0.82375 0.0
H2162 H 0.88383 0.29961 0.87639 0.0
H2163 H 0.85112 0.30505 0.85048 0.0
C2164 C 0.94432 0.28292 0.89686 0.0
C2165 C 0.94864 0.26105 0.89758 0.0
C2166 C 0.92519 0.28617 0.8824 0.0
C2167 C 0.9096 0.26765 0.86834 0.0
C2168 C 0.91381 0.24576 0.8695 0.0
C2169 C 0.93301 0.24255 0.88373 0.0
C2170 C 0.86139 0.25978 0.81559 0.0
C2171 C 0.85018 0.27685 0.82281 0.0
C2172 C 0.88053 0.25686 0.83019 0.0
C2173 C 0.88917 0.27101 0.85251 0.0
C2174 C 0.87799 0.28834 0.85945 0.0
C2175 C 0.85886 0.29123 0.84479 0.0
H2176 H 0.55591 0.22774 0.53312 0.0
H2177 H 0.57183 0.22448 0.60977 0.0
H2178 H 0.55308 0.18702 0.52415 0.0
H2179 H 0.56942 0.18353 0.60077 0.0
H2180 H 0.54168 0.10607 0.57884 0.0
H2181 H 0.54576 0.147 0.58865 0.0
H2182 H 0.57174 0.15681 0.52095 0.0
H2183 H 0.56693 0.11577 0.51087 0.0
C2184 C 0.55894 0.21842 0.54819 0.0
C2185 C 0.5641 0.22984 0.57228 0.0
C2186 C 0.55748 0.19481 0.54296 0.0
C2187 C 0.56106 0.18141 0.56158 0.0
C2188 C 0.56623 0.19284 0.58575 0.0
C2189 C 0.56775 0.21656 0.59098 0.0
C2190 C 0.54829 0.11688 0.56596 0.0
C2191 C 0.55399 0.10719 0.54397 0.0
C2192 C 0.55082 0.14063 0.57174 0.0
C2193 C 0.55909 0.1558 0.55573 0.0
C2194 C 0.565 0.14606 0.5338 0.0
C2195 C 0.56248 0.12229 0.52805 0.0
H2196 H 0.55744 0.79574 0.38912 0.0
H2197 H 0.59683 0.75978 0.43311 0.0
H2198 H 0.58746 0.80367 0.3642 0.0
H2199 H 0.62653 0.76699 0.40776 0.0
H2200 H 0.68556 0.80866 0.37582 0.0
H2201 H 0.6552 0.79582 0.39918 0.0
H2202 H 0.60701 0.78898 0.33458 0.0
H2203 H 0.63751 0.80276 0.31174 0.0
C2204 C 0.57242 0.78933 0.39336 0.0
C2205 C 0.57467 0.77719 0.41325 0.0
C2206 C 0.58965 0.79371 0.3789 0.0
C2207 C 0.60961 0.78597 0.3838 0.0
C2208 C 0.61166 0.77356 0.40352 0.0
C2209 C 0.5945 0.76929 0.41804 0.0
C2210 C 0.66849 0.80378 0.36656 0.0
C2211 C 0.66385 0.8064 0.34195 0.0
C2212 C 0.65101 0.79646 0.37993 0.0
C2213 C 0.62843 0.79152 0.36895 0.0
C2214 C 0.62403 0.79306 0.3439 0.0
C2215 C 0.64151 0.80059 0.33064 0.0
H2216 H 0.0743 0.26693 0.40425 0.0
H2217 H 1.00315 0.25907 0.40583 0.0
H2218 H 0.07388 0.23351 0.42555 0.0
H2219 H 1.00275 0.22585 0.4267 0.0
H2220 H 1.00434 0.1567 0.44833 0.0
H2221 H 1.0083 0.1856 0.42061 0.0
H2222 H 0.06699 0.22462 0.46806 0.0
H2223 H 0.06279 0.19587 0.49574 0.0
C2224 C 0.05858 0.25803 0.40895 0.0
C2225 C 0.03879 0.26583 0.40344 0.0
C2226 C 0.05834 0.2389 0.42117 0.0
C2227 C 0.03824 0.2269 0.42771 0.0
C2228 C 0.01845 0.23444 0.42165 0.0
C2229 C 0.01875 0.25368 0.40985 0.0
C2230 C 0.0184 0.17116 0.45242 0.0
C2231 C 0.03329 0.17407 0.47413 0.0
C2232 C 0.02058 0.18781 0.4367 0.0
C2233 C 0.03788 0.20755 0.44222 0.0
C2234 C 0.05359 0.20962 0.46316 0.0
C2235 C 0.05119 0.19318 0.47903 0.0
H2236 H 0.60126 0.2768 0.26143 0.0
H2237 H 0.61339 0.24489 0.19269 0.0
H2238 H 0.64139 0.28165 0.27734 0.0
H2239 H 0.65254 0.24949 0.20833 0.0
H2240 H 0.72578 0.28409 0.23013 0.0
H2241 H 0.68569 0.27893 0.21814 0.0
H2242 H 0.67369 0.2626 0.2895 0.0
H2243 H 0.71441 0.2679 0.30168 0.0
C2244 C 0.61226 0.27069 0.2497 0.0
C2245 C 0.60363 0.26061 0.22551 0.0
C2246 C 0.6354 0.27341 0.25888 0.0
C2247 C 0.65073 0.2663 0.24414 0.0
C2248 C 0.6418 0.25578 0.22029 0.0
C2249 C 0.61897 0.25302 0.21126 0.0
C2250 C 0.71477 0.2794 0.24345 0.0
C2251 C 0.72379 0.27645 0.26699 0.0
C2252 C 0.69149 0.27628 0.23644 0.0
C2253 C 0.67592 0.2702 0.25266 0.0
C2254 C 0.68487 0.26741 0.27639 0.0
C2255 C 0.70835 0.27029 0.28335 0.0
H2256 H 0.58534 0.88997 0.91238 0.0
H2257 H 0.51322 0.87833 0.9066 0.0
H2258 H 0.58845 0.92455 0.94139 0.0
H2259 H 0.51631 0.91236 0.93485 0.0
H2260 H 0.52629 0.95997 0.00439 0.0
H2261 H 0.52722 0.92594 0.97755 0.0
H2262 H 0.58051 0.96397 0.94478 0.0
H2263 H 0.58002 0.99826 0.97243 0.0
C2264 C 0.57019 0.89469 0.91723 0.0
C2265 C 0.54904 0.88114 0.90708 0.0
C2266 C 0.57196 0.9146 0.93377 0.0
C2267 C 0.55263 0.92127 0.94076 0.0
C2268 C 0.53161 0.9077 0.93043 0.0
C2269 C 0.52986 0.88809 0.91396 0.0
C2270 C 0.53857 0.96112 0.99187 0.0
C2271 C 0.55323 0.98197 0.99087 0.0
C2272 C 0.53891 0.94155 0.97615 0.0
C2273 C 0.55385 0.94206 0.95874 0.0
C2274 C 0.56889 0.9628 0.95802 0.0
C2275 C 0.56851 0.98251 0.97379 0.0
H2276 H 0.94433 0.77566 0.69109 0.0
H2277 H 0.97149 0.76257 0.76148 0.0
H2278 H 0.91024 0.7805 0.70641 0.0
H2279 H 0.93639 0.76703 0.77708 0.0
H2280 H 0.87453 0.794 0.80238 0.0
H2281 H 0.91055 0.78998 0.78952 0.0
H2282 H 0.87668 0.76282 0.71709 0.0
H2283 H 0.84132 0.76797 0.72966 0.0
C2284 C 0.94313 0.7736 0.70997 0.0
C2285 C 0.96122 0.76848 0.72474 0.0
C2286 C 0.92308 0.77625 0.71885 0.0
C2287 C 0.91969 0.77389 0.74315 0.0
C2288 C 0.93791 0.76911 0.75827 0.0
C2289 C 0.95822 0.7664 0.74925 0.0
C2290 C 0.87479 0.78763 0.78358 0.0
C2291 C 0.85459 0.78193 0.76712 0.0
C2292 C 0.89563 0.78492 0.77618 0.0
C2293 C 0.89725 0.77625 0.75194 0.0
C2294 C 0.87687 0.77011 0.73573 0.0
C2295 C 0.85619 0.7729 0.74309 0.0
H2296 H 0.1402 0.05179 0.8712 0.0
H2297 H 0.0719 0.04633 0.83866 0.0
H2298 H 0.12751 0.04707 0.91065 0.0
H2299 H 0.0591 0.04065 0.87761 0.0
H2300 H 0.04462 0.0574 0.95374 0.0
H2301 H 0.05864 0.06101 0.91529 0.0
H2302 H 0.10806 0.02247 0.93552 0.0
H2303 H 0.09428 0.0196 0.97498 0.0
C2304 C 0.12245 0.04941 0.87241 0.0
C2305 C 0.1071 0.04969 0.85175 0.0
C2306 C 0.11513 0.04651 0.89504 0.0
C2307 C 0.09225 0.04365 0.89758 0.0
C2308 C 0.07691 0.04336 0.87669 0.0
C2309 C 0.08424 0.04649 0.85419 0.0
C2310 C 0.05843 0.04954 0.95004 0.0
C2311 C 0.06815 0.03792 0.96738 0.0
C2312 C 0.06642 0.05152 0.92778 0.0
C2313 C 0.08431 0.04173 0.92188 0.0
C2314 C 0.09434 0.03035 0.93939 0.0
C2315 C 0.08641 0.02858 0.96197 0.0
H2316 H 0.83951 0.39158 0.5389 0.0
H2317 H 0.78607 0.417 0.56882 0.0
H2318 H 0.83928 0.36558 0.56882 0.0
H2319 H 0.78568 0.39041 0.59891 0.0
H2320 H 0.82497 0.36666 0.667 0.0
H2321 H 0.81301 0.38742 0.63473 0.0
H2322 H 0.81604 0.33167 0.5808 0.0
H2323 H 0.82813 0.31096 0.61307 0.0
C2324 C 0.82751 0.39144 0.55172 0.0
C2325 C 0.81289 0.4064 0.55163 0.0
C2326 C 0.82722 0.37633 0.56871 0.0
C2327 C 0.81227 0.37581 0.58598 0.0
C2328 C 0.79734 0.39051 0.58573 0.0
C2329 C 0.79759 0.40567 0.56858 0.0
C2330 C 0.8225 0.3586 0.64828 0.0
C2331 C 0.82799 0.33747 0.64241 0.0
C2332 C 0.81556 0.37045 0.62983 0.0
C2333 C 0.81402 0.36128 0.60531 0.0
C2334 C 0.81756 0.33928 0.59959 0.0
C2335 C 0.82456 0.32749 0.61799 0.0
H2336 H 0.43264 0.98164 0.35265 0.0
H2337 H 0.40824 0.03725 0.38722 0.0
H2338 H 0.46461 0.98936 0.38463 0.0
H2339 H 0.43918 0.04404 0.42022 0.0
H2340 H 0.50643 0.06796 0.46283 0.0
H2341 H 0.47717 0.05955 0.42779 0.0
H2342 H 0.47731 0.98792 0.4249 0.0
H2343 H 0.50797 0.9969 0.45851 0.0
C2344 C 0.43383 0.99507 0.36755 0.0
C2345 C 0.41813 1.00887 0.36764 0.0
C2346 C 0.45213 0.99954 0.38587 0.0
C2347 C 0.45468 0.01755 0.40484 0.0
C2348 C 0.43818 0.03053 0.40548 0.0
C2349 C 0.42026 0.02644 0.38684 0.0
C2350 C 0.50041 0.05055 0.45418 0.0
C2351 C 0.50912 0.03302 0.46304 0.0
C2352 C 0.48349 0.04562 0.43441 0.0
C2353 C 0.47446 0.02297 0.42389 0.0
C2354 C 0.48397 1.00556 0.43233 0.0
C2355 C 0.50149 0.01063 0.45155 0.0
H2356 H 0.77466 0.69408 0.09579 0.0
H2357 H 0.78387 0.76322 0.08007 0.0
H2358 H 0.77628 0.70729 0.13879 0.0
H2359 H 0.78642 0.77665 0.12337 0.0
H2360 H 0.76946 0.79255 0.19971 0.0
H2361 H 0.76625 0.77898 0.15655 0.0
H2362 H 0.80025 0.7258 0.17381 0.0
H2363 H 0.80165 0.73823 0.21694 0.0
C2364 C 0.77724 0.71217 0.10153 0.0
C2365 C 0.77916 0.72759 0.08439 0.0
C2366 C 0.77832 0.7198 0.12633 0.0
C2367 C 0.78158 0.74312 0.13481 0.0
C2368 C 0.78355 0.75855 0.11762 0.0
C2369 C 0.78226 0.75087 0.09273 0.0
C2370 C 0.77582 0.77768 0.19437 0.0
C2371 C 0.78552 0.76635 0.212 0.0
C2372 C 0.77434 0.77009 0.16947 0.0
C2373 C 0.78298 0.75121 0.16143 0.0
C2374 C 0.79297 0.74009 0.17911 0.0
C2375 C 0.79404 0.74743 0.20399 0.0
H2376 H 0.13227 0.07004 0.71999 0.0
H2377 H 0.06869 0.02728 0.7272 0.0
H2378 H 0.11844 0.07241 0.67779 0.0
H2379 H 0.05477 0.02995 0.68489 0.0
H2380 H 0.03339 0.05739 0.61254 0.0
H2381 H 0.04593 0.05933 0.65628 0.0
H2382 H 0.10807 0.04267 0.63999 0.0
H2383 H 0.09561 0.04047 0.59662 0.0
C2384 C 0.11524 0.06136 0.7127 0.0
C2385 C 0.10164 0.04835 0.727 0.0
C2386 C 0.10736 0.06267 0.68846 0.0
C2387 C 0.08554 0.05132 0.67798 0.0
C2388 C 0.07161 0.039 0.69251 0.0
C2389 C 0.07963 0.03738 0.71669 0.0
C2390 C 0.04978 0.05431 0.61834 0.0
C2391 C 0.06343 0.04865 0.60104 0.0
C2392 C 0.05689 0.0553 0.64336 0.0
C2393 C 0.07798 0.05113 0.65158 0.0
C2394 C 0.09181 0.04613 0.63428 0.0
C2395 C 0.08459 0.04475 0.60937 0.0
H2396 H 0.7825 0.3997 0.45036 0.0
H2397 H 0.85142 0.41874 0.43723 0.0
H2398 H 0.77577 0.36772 0.41838 0.0
H2399 H 0.84436 0.3866 0.40465 0.0
H2400 H 0.8273 0.31455 0.363 0.0
H2401 H 0.83409 0.3432 0.39904 0.0
H2402 H 0.7742 0.36533 0.37328 0.0
H2403 H 0.7673 0.33667 0.33755 0.0
C2404 C 0.79623 0.39712 0.4406 0.0
C2405 C 0.81749 0.41183 0.44614 0.0
C2406 C 0.79232 0.37878 0.42231 0.0
C2407 C 0.80954 0.37483 0.40917 0.0
C2408 C 0.83091 0.38926 0.41484 0.0
C2409 C 0.83488 0.4077 0.43325 0.0
C2410 C 0.81539 0.32526 0.36539 0.0
C2411 C 0.79682 0.32358 0.34765 0.0
C2412 C 0.81941 0.34173 0.38576 0.0
C2413 C 0.80474 0.35643 0.38868 0.0
C2414 C 0.78566 0.35404 0.37144 0.0
C2415 C 0.78175 0.33775 0.35102 0.0
H2416 H 0.41824 0.0534 0.24567 0.0
H2417 H 0.4562 0.01345 0.28594 0.0
H2418 H 0.43535 0.04358 0.20935 0.0
H2419 H 0.47274 1.00341 0.24977 0.0
H2420 H 0.47082 0.96526 0.1748 0.0
H2421 H 0.45186 0.97895 0.20773 0.0
H2422 H 0.47769 0.04819 0.19672 0.0
H2423 H 0.49699 0.03454 0.16385 0.0
C2424 C 0.43051 0.0429 0.24684 0.0
C2425 C 0.43602 0.03427 0.26858 0.0
C2426 C 0.44017 0.03727 0.22615 0.0
C2427 C 0.45501 0.02254 0.22689 0.0
C2428 C 0.46112 0.01463 0.24882 0.0
C2429 C 0.45186 0.0206 0.26956 0.0
C2430 C 0.47236 0.98339 0.17936 0.0
C2431 C 0.48568 0.99888 0.16722 0.0
C2432 C 0.4615 0.99117 0.19806 0.0
C2433 C 0.46373 0.01456 0.20483 0.0
C2434 C 0.47581 0.03007 0.1917 0.0
C2435 C 0.48679 0.02227 0.17299 0.0
H2436 H 0.73793 0.72416 0.94672 0.0
H2437 H 0.80436 0.71053 0.95656 0.0
H2438 H 0.74616 0.74112 0.91026 0.0
H2439 H 0.81263 0.72769 0.91994 0.0
H2440 H 0.80713 0.73741 0.83703 0.0
H2441 H 0.80098 0.72053 0.87443 0.0
H2442 H 0.77009 0.77508 0.8993 0.0
H2443 H 0.77601 0.7917 0.86224 0.0
C2444 C 0.75435 0.72487 0.94119 0.0
C2445 C 0.77048 0.71601 0.95468 0.0
C2446 C 0.75911 0.73469 0.92029 0.0
C2447 C 0.78008 0.7358 0.91214 0.0
C2448 C 0.79625 0.72693 0.92558 0.0
C2449 C 0.79155 0.71726 0.94668 0.0
C2450 C 0.79907 0.74576 0.85053 0.0
C2451 C 0.79199 0.76584 0.84655 0.0
C2452 C 0.79566 0.73619 0.87201 0.0
C2453 C 0.78489 0.74637 0.88981 0.0
C2454 C 0.77814 0.7666 0.88587 0.0
C2455 C 0.78169 0.77622 0.86462 0.0
H2456 H 0.86526 0.14527 0.06649 0.0
H2457 H 0.83044 0.08216 0.08662 0.0
H2458 H 0.89123 0.12568 0.04824 0.0
H2459 H 0.85714 0.0626 0.06929 0.0
H2460 H 0.87586 0.03327 0.997 0.0
H2461 H 0.85755 0.05341 0.02608 0.0
H2462 H 0.91935 0.10365 0.04898 0.0
H2463 H 0.9372 0.08424 0.01887 0.0
C2464 C 0.8639 0.12743 0.06813 0.0
C2465 C 0.84571 0.11503 0.07744 0.0
C2466 C 0.87876 0.11617 0.05762 0.0
C2467 C 0.87572 0.0925 0.05675 0.0
C2468 C 0.85935 0.08074 0.06909 0.0
C2469 C 0.84429 0.09193 0.07923 0.0
C2470 C 0.88534 0.0488 0.008 0.0
C2471 C 0.90781 0.05728 0.00571 0.0
C2472 C 0.87508 0.06005 0.02502 0.0
C2473 C 0.88721 0.07985 0.04011 0.0
C2474 C 0.90966 0.08841 0.03764 0.0
C2475 C 0.91983 0.0773 0.02047 0.0
H2476 H 0.35954 0.46324 0.05309 0.0
H2477 H 0.39481 0.40989 0.03673 0.0
H2478 H 0.39407 0.49183 0.05284 0.0
H2479 H 0.42901 0.43831 0.0367 0.0
H2480 H 0.49008 0.49231 0.06893 0.0
H2481 H 0.45402 0.46814 0.07095 0.0
H2482 H 0.42211 0.50419 0.01985 0.0
H2483 H 0.45883 0.52844 0.01712 0.0
C2484 C 0.37464 0.45761 0.04958 0.0
C2485 C 0.37447 0.43428 0.04504 0.0
C2486 C 0.39428 0.47397 0.04924 0.0
C2487 C 0.41413 0.46724 0.04476 0.0
C2488 C 0.41395 0.44395 0.04036 0.0
C2489 C 0.39435 0.42768 0.04037 0.0
C2490 C 0.47544 0.49536 0.05817 0.0
C2491 C 0.47741 0.51222 0.04261 0.0
C2492 C 0.45477 0.48143 0.05939 0.0
C2493 C 0.43537 0.48411 0.04535 0.0
C2494 C 0.43691 0.50183 0.03088 0.0
C2495 C 0.45785 0.51574 0.02939 0.0
H2496 H 0.43816 0.61186 0.79424 0.0
H2497 H 0.38308 0.56187 0.75213 0.0
H2498 H 0.41424 0.6391 0.79708 0.0
H2499 H 0.35928 0.58944 0.75416 0.0
H2500 H 0.31862 0.63156 0.79896 0.0
H2501 H 0.34123 0.60579 0.78442 0.0
H2502 H 0.39371 0.66322 0.77765 0.0
H2503 H 0.37099 0.68904 0.79305 0.0
C2504 C 0.42103 0.6068 0.78522 0.0
C2505 C 0.41248 0.5846 0.77318 0.0
C2506 C 0.40732 0.62253 0.78663 0.0
C2507 C 0.38475 0.61654 0.77585 0.0
C2508 C 0.37647 0.59457 0.76298 0.0
C2509 C 0.39013 0.57876 0.76177 0.0
C2510 C 0.33474 0.63863 0.79367 0.0
C2511 C 0.34316 0.66221 0.79722 0.0
C2512 C 0.34773 0.62387 0.78526 0.0
C2513 C 0.3695 0.63236 0.78017 0.0
C2514 C 0.37719 0.65609 0.78185 0.0
C2515 C 0.3641 0.6709 0.79031 0.0
H2516 H 0.21867 0.58468 0.5715 0.0
H2517 H 0.20386 0.62571 0.51575 0.0
H2518 H 0.17984 0.56396 0.56484 0.0
H2519 H 0.16518 0.60417 0.50807 0.0
H2520 H 0.0958 0.5874 0.53274 0.0
H2521 H 0.13456 0.60311 0.53013 0.0
H2522 H 0.15053 0.5378 0.53806 0.0
H2523 H 0.11125 0.5221 0.54139 0.0
C2524 C 0.20711 0.58897 0.55754 0.0
C2525 C 0.21399 0.60689 0.54431 0.0
C2526 C 0.18498 0.57693 0.5535 0.0
C2527 C 0.16952 0.58241 0.53588 0.0
C2528 C 0.17669 0.59982 0.52202 0.0
C2529 C 0.19874 0.61216 0.52641 0.0
C2530 C 0.10743 0.5762 0.53329 0.0
C2531 C 0.10067 0.55357 0.53725 0.0
C2532 C 0.12968 0.5852 0.5317 0.0
C2533 C 0.14558 0.57169 0.53389 0.0
C2534 C 0.13861 0.54866 0.53663 0.0
C2535 C 0.11624 0.53966 0.53845 0.0
H2536 H 0.74984 1.00071 0.73421 0.0
H2537 H 0.68553 0.96006 0.74268 0.0
H2538 H 0.76817 0.97143 0.748 0.0
H2539 H 0.70388 0.93117 0.75714 0.0
H2540 H 0.7435 0.8825 0.78502 0.0
H2541 H 0.72838 0.90317 0.75393 0.0
H2542 H 0.77113 0.96591 0.79132 0.0
H2543 H 0.78604 0.9453 0.82199 0.0
C2544 C 0.7396 0.98521 0.73832 0.0
C2545 C 0.7164 0.9828 0.738 0.0
C2546 C 0.75006 0.9685 0.74621 0.0
C2547 C 0.73747 0.94937 0.75419 0.0
C2548 C 0.71399 0.94574 0.75106 0.0
C2549 C 0.70348 0.96234 0.74287 0.0
C2550 C 0.74969 0.90067 0.78626 0.0
C2551 C 0.7655 0.91254 0.80593 0.0
C2552 C 0.74118 0.91242 0.76853 0.0
C2553 C 0.74872 0.93606 0.77014 0.0
C2554 C 0.76528 0.94763 0.78934 0.0
C2555 C 0.77354 0.93597 0.80712 0.0
H2556 H 0.76994 0.94839 0.5219 0.0
H2557 H 0.72653 0.91218 0.56712 0.0
H2558 H 0.74208 0.97019 0.5116 0.0
H2559 H 0.69881 0.93461 0.55743 0.0
H2560 H 0.64466 0.9572 0.50599 0.0
H2561 H 0.6726 0.93805 0.52387 0.0
H2562 H 0.72404 0.99887 0.52607 0.0
H2563 H 0.69608 0.01741 0.50714 0.0
C2564 C 0.75455 0.94527 0.5299 0.0
C2565 C 0.75043 0.92844 0.54523 0.0
C2566 C 0.7386 0.95795 0.52417 0.0
C2567 C 0.71817 0.95427 0.53375 0.0
C2568 C 0.71424 0.93774 0.54951 0.0
C2569 C 0.73018 0.92494 0.55515 0.0
C2570 C 0.6619 0.96649 0.51081 0.0
C2571 C 0.66841 0.98863 0.50523 0.0
C2572 C 0.67791 0.95561 0.5211 0.0
C2573 C 0.70068 0.9668 0.52612 0.0
C2574 C 0.70678 0.98955 0.5219 0.0
C2575 C 0.69082 1.00027 0.51133 0.0
H2576 H 0.37746 0.4491 0.7144 0.0
H2577 H 0.40061 0.46116 0.7918 0.0
H2578 H 0.35421 0.41251 0.71912 0.0
H2579 H 0.37752 0.42456 0.79639 0.0
H2580 H 0.31518 0.36963 0.79912 0.0
H2581 H 0.33715 0.4064 0.7932 0.0
H2582 H 0.35911 0.37471 0.72982 0.0
H2583 H 0.33694 0.33787 0.73567 0.0
C2584 C 0.37763 0.44396 0.7324 0.0
C2585 C 0.39088 0.45811 0.75272 0.0
C2586 C 0.36438 0.42295 0.73507 0.0
C2587 C 0.36399 0.41569 0.75813 0.0
C2588 C 0.37723 0.42982 0.77843 0.0
C2589 C 0.39055 0.45075 0.77576 0.0
C2590 C 0.32447 0.37057 0.78374 0.0
C2591 C 0.32425 0.35093 0.76774 0.0
C2592 C 0.33722 0.39158 0.78049 0.0
C2593 C 0.34991 0.39345 0.76108 0.0
C2594 C 0.34937 0.37385 0.74483 0.0
C2595 C 0.33678 0.35277 0.74823 0.0
H2596 H 0.24207 0.61068 0.2902 0.0
H2597 H 0.22192 0.62448 0.21745 0.0
H2598 H 0.25254 0.65148 0.30439 0.0
H2599 H 0.23237 0.66501 0.23169 0.0
H2600 H 0.23958 0.73492 0.26109 0.0
H2601 H 0.22121 0.69515 0.26103 0.0
H2602 H 0.28386 0.682 0.29302 0.0
H2603 H 0.30204 0.72172 0.29299 0.0
C2604 C 0.23991 0.62241 0.27727 0.0
C2605 C 0.23144 0.61448 0.25266 0.0
C2606 C 0.24569 0.64564 0.28546 0.0
C2607 C 0.24281 0.66118 0.26921 0.0
C2608 C 0.23419 0.65326 0.24469 0.0
C2609 C 0.22861 0.6301 0.23645 0.0
C2610 C 0.249 0.72367 0.26917 0.0
C2611 C 0.272 0.73087 0.27703 0.0
C2612 C 0.23861 0.70103 0.26902 0.0
C2613 C 0.25129 0.68564 0.27669 0.0
C2614 C 0.27376 0.69362 0.28715 0.0
C2615 C 0.28415 0.7162 0.28709 0.0
H2616 H 0.51423 0.69671 0.44656 0.0
H2617 H 0.52799 0.72067 0.52342 0.0
H2618 H 0.51662 0.65848 0.45493 0.0
H2619 H 0.529 0.68296 0.53215 0.0
H2620 H 0.54326 0.61609 0.54796 0.0
H2621 H 0.54165 0.65325 0.53797 0.0
H2622 H 0.51028 0.62354 0.465 0.0
H2623 H 0.51486 0.58641 0.4747 0.0
C2624 C 0.51748 0.69384 0.46533 0.0
C2625 C 0.52102 0.71227 0.4842 0.0
C2626 C 0.51883 0.67157 0.47033 0.0
C2627 C 0.52342 0.66654 0.49449 0.0
C2628 C 0.52621 0.68514 0.5132 0.0
C2629 C 0.52532 0.70728 0.50817 0.0
C2630 C 0.53659 0.61739 0.52955 0.0
C2631 C 0.5298 0.59775 0.51219 0.0
C2632 C 0.53502 0.63916 0.52373 0.0
C2633 C 0.52549 0.64258 0.50039 0.0
C2634 C 0.51807 0.62264 0.48312 0.0
C2635 C 0.5204 0.60086 0.48881 0.0
H2636 H 0.63294 0.31807 0.68356 0.0
H2637 H 0.65538 0.27471 0.62942 0.0
H2638 H 0.66588 0.31709 0.71256 0.0
H2639 H 0.68798 0.27398 0.65788 0.0
H2640 H 0.73182 0.25589 0.72079 0.0
H2641 H 0.69846 0.25814 0.69359 0.0
H2642 H 0.7069 0.32879 0.72264 0.0
H2643 H 0.74049 0.32631 0.74978 0.0
C2644 C 0.64491 0.30851 0.67771 0.0
C2645 C 0.64124 0.29644 0.65399 0.0
C2646 C 0.6639 0.30795 0.69437 0.0
C2647 C 0.67973 0.29522 0.68785 0.0
C2648 C 0.67613 0.28357 0.66399 0.0
C2649 C 0.65733 0.28416 0.64746 0.0
C2650 C 0.72652 0.27188 0.72132 0.0
C2651 C 0.73891 0.29097 0.73722 0.0
C2652 C 0.70741 0.27327 0.70562 0.0
C2653 C 0.69981 0.29374 0.70554 0.0
C2654 C 0.712 0.31271 0.72206 0.0
C2655 C 0.73137 0.31137 0.73754 0.0
H2656 H 0.04252 0.34894 0.00147 0.0
H2657 H 0.99251 0.35703 0.94441 0.0
H2658 H 0.04829 0.38957 0.01725 0.0
H2659 H 0.9986 0.39691 0.95921 0.0
H2660 H 0.999 0.46555 0.99689 0.0
H2661 H 0.9931 0.42486 0.98646 0.0
H2662 H 0.06248 0.42827 0.01348 0.0
H2663 H 0.06763 0.46922 0.02599 0.0
C2664 C 0.03263 0.35922 0.99235 0.0
C2665 C 0.01696 0.3493 0.97157 0.0
C2666 C 0.03609 0.38275 1.00126 0.0
C2667 C 0.02388 0.39715 0.98982 0.0
C2668 C 1.00815 0.38691 0.96921 0.0
C2669 C 1.00476 0.36368 0.96042 0.0
C2670 C 1.01286 0.45769 1.00138 0.0
C2671 C 0.03357 0.47105 0.01302 0.0
C2672 C 1.00966 0.43406 0.99477 0.0
C2673 C 0.02731 0.42257 0.9987 0.0
C2674 C 0.04822 0.43597 0.01027 0.0
C2675 C 0.05127 0.45971 0.01731 0.0
H2676 H 0.99076 0.81847 0.12441 0.0
H2677 H 0.02746 0.78562 0.17497 0.0
H2678 H 0.95877 0.81159 0.14651 0.0
H2679 H 0.99497 0.77831 0.19703 0.0
H2680 H 0.93515 0.78218 0.24035 0.0
H2681 H 0.9696 0.79467 0.22244 0.0
H2682 H 0.93113 0.77866 0.15062 0.0
H2683 H 0.89713 0.76672 0.16841 0.0
C2684 C 0.99208 0.8098 0.14031 0.0
C2685 C 1.01171 0.8024 0.14767 0.0
C2686 C 0.97361 0.80577 0.15298 0.0
C2687 C 0.97406 0.7941 0.17342 0.0
C2688 C 0.99401 0.78743 0.18145 0.0
C2689 C 1.01261 0.79151 0.1687 0.0
C2690 C 0.93411 0.78171 0.22077 0.0
C2691 C 0.91339 0.77335 0.20578 0.0
C2692 C 0.95386 0.78863 0.21048 0.0
C2693 C 0.95324 0.78767 0.18502 0.0
C2694 C 0.93235 0.77993 0.17026 0.0
C2695 C 0.9128 0.7729 0.18047 0.0
H2696 H 0.51991 0.29953 0.14172 0.0
H2697 H 0.57175 0.34417 0.19389 0.0
H2698 H 0.52199 0.32894 0.11484 0.0
H2699 H 0.57421 0.37322 0.16694 0.0
H2700 H 0.56361 0.42904 0.12212 0.0
H2701 H 0.556 0.40044 0.14966 0.0
H2702 H 0.54606 0.3472 0.08877 0.0
H2703 H 0.55312 0.3757 0.06143 0.0
C2704 C 0.5318 0.31555 0.14745 0.0
C2705 C 0.54568 0.31934 0.17003 0.0
C2706 C 0.53305 0.33247 0.13198 0.0
C2707 C 0.54826 0.35365 0.13861 0.0
C2708 C 0.562 0.3574 0.16128 0.0
C2709 C 0.56071 0.34056 0.17672 0.0
C2710 C 0.5594 0.41123 0.11461 0.0
C2711 C 0.55923 0.4047 0.08957 0.0
C2712 C 0.55527 0.39477 0.13043 0.0
C2713 C 0.55064 0.37134 0.1216 0.0
C2714 C 0.54943 0.36495 0.09637 0.0
C2715 C 0.5537 0.38135 0.08065 0.0
H2716 H 0.96972 0.26639 0.32971 0.0
H2717 H 0.9863 0.33836 0.32595 0.0
H2718 H 0.93025 0.26582 0.3197 0.0
H2719 H 0.94606 0.33775 0.31577 0.0
H2720 H 0.87055 0.32083 0.27572 0.0
H2721 H 0.91114 0.32452 0.2853 0.0
H2722 H 0.89966 0.27677 0.33676 0.0
H2723 H 0.8595 0.27342 0.32758 0.0
C2724 C 0.96508 0.28225 0.32668 0.0
C2725 C 0.98177 0.30244 0.32875 0.0
C2726 C 0.94208 0.28192 0.32106 0.0
C2727 C 0.93438 0.30174 0.31705 0.0
C2728 C 0.95101 0.322 0.31858 0.0
C2729 C 0.97426 0.32238 0.32449 0.0
C2730 C 0.87658 0.31135 0.28934 0.0
C2731 C 0.86117 0.29697 0.30089 0.0
C2732 C 0.90011 0.31346 0.29487 0.0
C2733 C 0.90921 0.30087 0.31181 0.0
C2734 C 0.89373 0.28659 0.32335 0.0
C2735 C 0.87039 0.28475 0.31811 0.0
H2736 H 0.03025 0.6825 0.6799 0.0
H2737 H 0.02158 0.71104 0.61285 0.0
H2738 H 0.03166 0.64621 0.65653 0.0
H2739 H 0.02328 0.67526 0.58972 0.0
H2740 H 1.0078 0.60255 0.55147 0.0
H2741 H 1.00417 0.63719 0.57606 0.0
H2742 H 0.0546 0.62765 0.63207 0.0
H2743 H 0.05832 0.59326 0.60711 0.0
C2744 C 0.02847 0.68105 0.66021 0.0
C2745 C 0.02572 0.69988 0.64841 0.0
C2746 C 0.02948 0.66023 0.64674 0.0
C2747 C 0.02755 0.65751 0.62103 0.0
C2748 C 0.0245 0.67631 0.60935 0.0
C2749 C 0.02366 0.69705 0.62275 0.0
C2750 C 0.01813 0.60789 0.56901 0.0
C2751 C 0.03307 0.59482 0.57743 0.0
C2752 C 0.01609 0.62784 0.58321 0.0
C2753 C 0.02904 0.63549 0.60632 0.0
C2754 C 0.04395 0.62226 0.61472 0.0
C2755 C 0.04599 0.60232 0.60045 0.0
H2756 H 0.62101 0.83453 0.80938 0.0
H2757 H 0.63552 0.79255 0.864 0.0
H2758 H 0.6573 0.83284 0.79494 0.0
H2759 H 0.67105 0.79128 0.85031 0.0
H2760 H 0.72467 0.77215 0.81071 0.0
H2761 H 0.68818 0.77522 0.8205 0.0
H2762 H 0.69923 0.84349 0.80219 0.0
H2763 H 0.73604 0.83962 0.79066 0.0
C2764 C 0.6317 0.82485 0.81828 0.0
C2765 C 0.62478 0.81361 0.83797 0.0
C2766 C 0.65277 0.82402 0.81011 0.0
C2767 C 0.6676 0.8117 0.82111 0.0
C2768 C 0.66043 0.80058 0.84069 0.0
C2769 C 0.63973 0.80149 0.84881 0.0
C2770 C 0.71939 0.78772 0.80809 0.0
C2771 C 0.73366 0.80535 0.79921 0.0
C2772 C 0.69825 0.78972 0.8143 0.0
C2773 C 0.69016 0.80975 0.81259 0.0
C2774 C 0.70439 0.82762 0.80372 0.0
C2775 C 0.72576 0.8255 0.79725 0.0
H2776 H 0.44589 0.51525 0.68857 0.0
H2777 H 0.51182 0.55269 0.7216 0.0
H2778 H 0.45822 0.51513 0.64828 0.0
H2779 H 0.52407 0.55243 0.68149 0.0
H2780 H 0.54473 0.52347 0.61045 0.0
H2781 H 0.53072 0.5231 0.64944 0.0
H2782 H 0.47129 0.54307 0.61868 0.0
H2783 H 0.4856 0.54391 0.57933 0.0
C2784 C 0.46302 0.52338 0.68728 0.0
C2785 C 0.47789 0.53391 0.70839 0.0
C2786 C 0.47001 0.52345 0.66416 0.0
C2787 C 0.49213 0.53374 0.66166 0.0
C2788 C 0.50698 0.54417 0.68278 0.0
C2789 C 0.49992 0.54437 0.7058 0.0
C2790 C 0.52872 0.52797 0.6119 0.0
C2791 C 0.51651 0.53418 0.59176 0.0
C2792 C 0.5207 0.52775 0.63434 0.0
C2793 C 0.50001 0.5333 0.63729 0.0
C2794 C 0.48731 0.5387 0.61699 0.0
C2795 C 0.49553 0.53925 0.59447 0.0
H2796 H 0.73278 0.14489 0.98859 0.0
H2797 H 0.80442 0.17012 0.00643 0.0
H2798 H 0.7324 0.16701 0.95473 0.0
H2799 H 0.80389 0.19265 0.97251 0.0
H2800 H 0.77463 0.25325 0.93914 0.0
H2801 H 0.78304 0.22707 0.96751 0.0
H2802 H 0.74974 0.17006 0.91361 0.0
H2803 H 0.74139 0.19618 0.8852 0.0
C2804 C 0.74847 0.15497 0.98507 0.0
C2805 C 0.7686 0.15592 1.00011 0.0
C2806 C 0.74827 0.16745 0.96562 0.0
C2807 C 0.76814 0.18134 0.9611 0.0
C2808 C 0.78841 0.18194 0.97573 0.0
C2809 C 0.78869 0.16908 0.995 0.0
C2810 C 0.76938 0.23511 0.93333 0.0
C2811 C 0.75706 0.22663 0.91026 0.0
C2812 C 0.77441 0.22021 0.94937 0.0
C2813 C 0.76693 0.19668 0.94261 0.0
C2814 C 0.7556 0.18819 0.91912 0.0
C2815 C 0.75084 0.20307 0.90296 0.0
H2816 H 0.16795 0.5399 0.17578 0.0
H2817 H 0.12816 0.57572 0.21843 0.0
H2818 H 0.14038 0.5359 0.14014 0.0
H2819 H 0.09998 0.57106 0.18256 0.0
H2820 H 0.0685 0.57691 0.10374 0.0
H2821 H 0.09383 0.58257 0.14209 0.0
H2822 H 0.10301 0.51383 0.12698 0.0
H2823 H 0.07868 0.50876 0.08825 0.0
C2824 C 0.15326 0.5469 0.17755 0.0
C2825 C 0.15002 0.55789 0.19992 0.0
C2826 C 0.13738 0.54443 0.15717 0.0
C2827 C 0.11782 0.5527 0.15877 0.0
C2828 C 0.11491 0.56447 0.1809 0.0
C2829 C 0.13097 0.56708 0.20138 0.0
C2830 C 0.07572 0.56299 0.109 0.0
C2831 C 0.07203 0.5425 0.0933 0.0
C2832 C 0.09013 0.56619 0.13083 0.0
C2833 C 0.10062 0.54876 0.13725 0.0
C2834 C 0.09562 0.52776 0.12213 0.0
C2835 C 0.08164 0.52476 0.10014 0.0
H2836 H 0.85035 0.86202 0.47466 0.0
H2837 H 0.77913 0.85706 0.47255 0.0
H2838 H 0.84435 0.84389 0.43269 0.0
H2839 H 0.77311 0.83934 0.43003 0.0
H2840 H 0.76981 0.79043 0.35917 0.0
H2841 H 0.77435 0.80612 0.40223 0.0
H2842 H 0.8347 0.85331 0.39307 0.0
H2843 H 0.83001 0.83769 0.3503 0.0
C2844 C 0.83336 0.857 0.46525 0.0
C2845 C 0.81524 0.8611 0.47702 0.0
C2846 C 0.82992 0.84674 0.44103 0.0
C2847 C 0.80827 0.84039 0.42772 0.0
C2848 C 0.79002 0.84385 0.4397 0.0
C2849 C 0.79346 0.85406 0.46409 0.0
C2850 C 0.78403 0.80417 0.36641 0.0
C2851 C 0.79987 0.81247 0.35142 0.0
C2852 C 0.78661 0.81322 0.39109 0.0
C2853 C 0.80506 0.83083 0.40134 0.0
C2854 C 0.8206 0.83937 0.3861 0.0
C2855 C 0.81798 0.83036 0.36151 0.0
H2856 H 0.49179 0.48989 0.83272 0.0
H2857 H 0.46882 0.55242 0.84377 0.0
H2858 H 0.50633 0.49454 0.87586 0.0
H2859 H 0.48384 0.55739 0.88692 0.0
H2860 H 0.48833 0.54515 0.96664 0.0
H2861 H 0.47604 0.54184 0.92316 0.0
H2862 H 0.53391 0.51528 0.90827 0.0
H2863 H 0.54605 0.51834 0.95194 0.0
C2864 C 0.49007 0.50481 0.8443 0.0
C2865 C 0.47902 0.52072 0.83468 0.0
C2866 C 0.49856 0.50755 0.86912 0.0
C2867 C 0.49619 0.52627 0.88513 0.0
C2868 C 0.48567 0.54254 0.87534 0.0
C2869 C 0.47724 0.53982 0.85047 0.0
C2870 C 0.49852 0.53867 0.95414 0.0
C2871 C 0.5182 0.53199 0.96294 0.0
C2872 C 0.49151 0.53689 0.92908 0.0
C2873 C 0.50398 0.52841 0.91196 0.0
C2874 C 0.52366 0.52164 0.92078 0.0
C2875 C 0.53067 0.52341 0.94591 0.0
H2876 H 0.76124 0.16406 0.12317 0.0
H2877 H 0.81455 0.21312 0.10184 0.0
H2878 H 0.76252 0.18926 0.16073 0.0
H2879 H 0.81592 0.23819 0.13986 0.0
H2880 H 0.82668 0.2491 0.22875 0.0
H2881 H 0.82519 0.22778 0.18824 0.0
H2882 H 0.75678 0.23382 0.16971 0.0
H2883 H 0.75841 0.25553 0.20973 0.0
C2884 C 0.77309 0.1803 0.12644 0.0
C2885 C 0.78788 0.18669 0.10975 0.0
C2886 C 0.77375 0.19463 0.14782 0.0
C2887 C 0.78938 0.21537 0.15289 0.0
C2888 C 0.80386 0.22209 0.1361 0.0
C2889 C 0.80297 0.20788 0.11444 0.0
C2890 C 0.81145 0.24586 0.21589 0.0
C2891 C 0.79268 0.25374 0.22204 0.0
C2892 C 0.81066 0.23397 0.19285 0.0
C2893 C 0.79092 0.2295 0.17619 0.0
C2894 C 0.77215 0.23732 0.18241 0.0
C2895 C 0.77311 0.24963 0.20515 0.0
H2896 H 0.19866 0.56985 0.34459 0.0
H2897 H 0.14588 0.52537 0.29313 0.0
H2898 H 0.17232 0.57286 0.37336 0.0
H2899 H 0.11956 0.52777 0.32238 0.0
H2900 H 0.07608 0.56731 0.36575 0.0
H2901 H 0.10109 0.55621 0.3382 0.0
H2902 H 0.14959 0.554 0.39984 0.0
H2903 H 0.12551 0.56689 0.42729 0.0
C2904 C 0.18153 0.56031 0.33963 0.0
C2905 C 0.17432 0.5475 0.31656 0.0
C2906 C 0.16642 0.56191 0.35621 0.0
C2907 C 0.14381 0.55056 0.35016 0.0
C2908 C 0.1368 0.53695 0.32745 0.0
C2909 C 0.15191 0.53548 0.31077 0.0
C2910 C 0.09213 0.56458 0.37343 0.0
C2911 C 0.0989 0.56842 0.39875 0.0
C2912 C 0.10631 0.55782 0.35763 0.0
C2913 C 0.12745 0.55446 0.36684 0.0
C2914 C 0.1336 0.55689 0.39217 0.0
C2915 C 0.1196 0.56399 0.40793 0.0
H2916 H 0.78071 0.87518 0.61276 0.0
H2917 H 0.83752 0.84392 0.60931 0.0
H2918 H 0.77531 0.8617 0.65184 0.0
H2919 H 0.83309 0.83162 0.64874 0.0
H2920 H 0.80834 0.79154 0.70624 0.0
H2921 H 0.81164 0.80541 0.66764 0.0
H2922 H 0.78759 0.86458 0.69372 0.0
H2923 H 0.78258 0.8495 0.7322 0.0
C2924 C 0.79216 0.86558 0.62045 0.0
C2925 C 0.80939 0.86039 0.60775 0.0
C2926 C 0.78919 0.85798 0.64301 0.0
C2927 C 0.8036 0.84529 0.65363 0.0
C2928 C 0.82116 0.8407 0.64105 0.0
C2929 C 0.82385 0.84791 0.61838 0.0
C2930 C 0.80347 0.80742 0.70379 0.0
C2931 C 0.7951 0.81935 0.72246 0.0
C2932 C 0.80571 0.81562 0.68158 0.0
C2933 C 0.80025 0.8364 0.67736 0.0
C2934 C 0.79181 0.84841 0.69604 0.0
C2935 C 0.78912 0.8399 0.71825 0.0
H2936 H 0.7621 0.50452 0.5011 0.0
H2937 H 0.72163 0.43923 0.46757 0.0
H2938 H 0.72874 0.5168 0.51071 0.0
H2939 H 0.6879 0.4518 0.47672 0.0
H2940 H 0.65191 0.4678 0.54504 0.0
H2941 H 0.67724 0.45685 0.51772 0.0
H2942 H 0.69288 0.52537 0.49996 0.0
H2943 H 0.66927 0.53678 0.52868 0.0
C2944 C 0.74596 0.49308 0.49504 0.0
C2945 C 0.7444 0.47075 0.48426 0.0
C2946 C 0.72678 0.50018 0.50033 0.0
C2947 C 0.70578 0.48505 0.4948 0.0
C2948 C 0.70399 0.46359 0.48151 0.0
C2949 C 0.72325 0.45648 0.47619 0.0
C2950 C 0.66077 0.48048 0.5353 0.0
C2951 C 0.65883 0.50317 0.53931 0.0
C2952 C 0.67485 0.47412 0.51922 0.0
C2953 C 0.68699 0.49033 0.50676 0.0
C2954 C 0.68381 0.51261 0.50948 0.0
C2955 C 0.67013 0.51906 0.52585 0.0
H2956 H 0.18594 0.17151 0.51697 0.0
H2957 H 0.22008 0.11599 0.51128 0.0
H2958 H 0.15066 0.14475 0.51715 0.0
H2959 H 0.18452 0.08905 0.51142 0.0
H2960 H 0.12097 0.05531 0.54508 0.0
H2961 H 0.15705 0.07936 0.54105 0.0
H2962 H 0.12365 0.11414 0.48969 0.0
H2963 H 0.08773 0.09012 0.4935 0.0
C2964 C 0.18589 0.15356 0.51559 0.0
C2965 C 0.20583 0.1459 0.51409 0.0
C2966 C 0.16563 0.1382 0.51556 0.0
C2967 C 0.16478 0.11477 0.51425 0.0
C2968 C 0.18468 0.10702 0.51259 0.0
C2969 C 0.20499 0.12242 0.51233 0.0
C2970 C 0.12137 0.06778 0.53257 0.0
C2971 C 0.10143 0.07072 0.51958 0.0
C2972 C 0.14205 0.08157 0.53028 0.0
C2973 C 0.14319 0.09873 0.51514 0.0
C2974 C 0.12331 0.10127 0.50174 0.0
C2975 C 0.10272 0.08742 0.50388 0.0
H2976 H 0.18101 1.00385 0.75981 0.0
H2977 H 0.19094 0.99651 0.83626 0.0
H2978 H 0.19852 0.97202 0.75033 0.0
H2979 H 0.20888 0.96487 0.82677 0.0
H2980 H 0.21187 0.89166 0.79381 0.0
H2981 H 0.19833 0.92574 0.80673 0.0
H2982 H 0.23441 0.96106 0.75504 0.0
H2983 H 0.24748 0.92673 0.74199 0.0
C2984 C 0.18706 0.99555 0.77463 0.0
C2985 C 0.18452 1.0027 0.79879 0.0
C2986 C 0.19728 0.97741 0.76921 0.0
C2987 C 0.20519 0.96597 0.78782 0.0
C2988 C 0.20279 0.97321 0.81201 0.0
C2989 C 0.1926 0.99141 0.81744 0.0
C2990 C 0.21714 0.90692 0.78564 0.0
C2991 C 0.23067 0.90684 0.76707 0.0
C2992 C 0.20948 0.92641 0.79301 0.0
C2993 C 0.21516 0.94607 0.78178 0.0
C2994 C 0.22946 0.9461 0.76378 0.0
C2995 C 0.23711 0.92661 0.75646 0.0
H2996 H 0.36633 1.00801 0.03965 0.0
H2997 H 0.38132 0.94637 0.00566 0.0
H2998 H 0.40631 0.02595 0.0465 0.0
H2999 H 0.42078 0.9644 0.01133 0.0
H3000 H 0.49052 0.99186 0.03885 0.0
H3001 H 0.45168 0.97734 0.04263 0.0
H3002 H 0.43557 0.03966 0.02269 0.0
H3003 H 0.47517 0.05507 0.02117 0.0
C3004 C 0.37821 0.9984 0.03362 0.0
C3005 C 0.37098 0.97585 0.02236 0.0
C3006 C 0.40097 1.00863 0.03746 0.0
C3007 C 0.41662 0.99647 0.02973 0.0
C3008 C 0.40919 0.97397 0.01819 0.0
C3009 C 0.3866 0.96369 0.01477 0.0
C3010 C 0.47894 1.0029 0.03646 0.0
C3011 C 0.48584 0.02468 0.03011 0.0
C3012 C 0.45658 0.9944 0.03811 0.0
C3013 C 0.44059 1.00723 0.03254 0.0
C3014 C 0.4476 0.02947 0.02726 0.0
C3015 C 0.47016 0.0382 0.02617 0.0
H3016 H 0.83467 0.56925 0.7966 0.0
H3017 H 0.8876 0.60983 0.85111 0.0
H3018 H 0.82618 0.60366 0.78321 0.0
H3019 H 0.87871 0.64448 0.83739 0.0
H3020 H 0.80575 0.67204 0.78739 0.0
H3021 H 0.81859 0.64735 0.8144 0.0
H3022 H 0.8765 0.64731 0.77755 0.0
H3023 H 0.86429 0.67323 0.75065 0.0
C3024 C 0.84408 0.5855 0.80618 0.0
C3025 C 0.86206 0.58693 0.8246 0.0
C3026 C 0.83925 0.60508 0.79843 0.0
C3027 C 0.85216 0.62628 0.80915 0.0
C3028 C 0.8689 0.62803 0.82886 0.0
C3029 C 0.87376 0.60831 0.83675 0.0
C3030 C 0.82179 0.66774 0.78558 0.0
C3031 C 0.83417 0.67476 0.76691 0.0
C3032 C 0.82904 0.65364 0.80114 0.0
C3033 C 0.84858 0.64607 0.79814 0.0
C3034 C 0.8616 0.65364 0.78035 0.0
C3035 C 0.85444 0.66803 0.76478 0.0
H3036 H 0.84151 0.65175 0.97671 0.0
H3037 H 0.81806 0.63549 0.04421 0.0
H3038 H 0.87377 0.63516 0.9865 0.0
H3039 H 0.85049 0.61901 0.05401 0.0
H3040 H 0.90435 0.57613 0.05434 0.0
H3041 H 0.86927 0.58716 0.04037 0.0
H3042 H 0.90739 0.64771 0.01826 0.0
H3043 H 0.9422 0.63673 0.03234 0.0
C3044 C 0.84309 0.64444 0.99351 0.0
C3045 C 0.82728 0.64511 0.00976 0.0
C3046 C 0.86162 0.63502 0.99915 0.0
C3047 C 0.86471 0.62594 0.02108 0.0
C3048 C 0.84845 0.62573 0.03688 0.0
C3049 C 0.82994 0.63528 0.03131 0.0
C3050 C 0.90508 0.59167 0.04627 0.0
C3051 C 0.92583 0.60572 0.04448 0.0
C3052 C 0.8851 0.59802 0.03842 0.0
C3053 C 0.88562 0.61829 0.02823 0.0
C3054 C 0.90645 0.63191 0.02582 0.0
C3055 C 0.92635 0.62575 0.03401 0.0
H3056 H 0.15829 0.14594 0.78991 0.0
H3057 H 0.21284 0.11185 0.80309 0.0
H3058 H 0.18509 0.18136 0.78953 0.0
H3059 H 0.23976 0.14758 0.80286 0.0
H3060 H 0.27573 0.21053 0.76858 0.0
H3061 H 0.25134 0.17426 0.77233 0.0
H3062 H 0.2139 0.2093 0.81868 0.0
H3063 H 0.23836 0.24541 0.81538 0.0
C3064 C 0.17601 0.14602 0.79291 0.0
C3065 C 0.1834 0.12605 0.79659 0.0
C3066 C 0.19138 0.16637 0.79279 0.0
C3067 C 0.21453 0.16727 0.79626 0.0
C3068 C 0.222 0.14734 0.79998 0.0
C3069 C 0.20659 0.12694 0.80024 0.0
C3070 C 0.26263 0.21047 0.78002 0.0
C3071 C 0.25911 0.23092 0.79178 0.0
C3072 C 0.24862 0.18968 0.78211 0.0
C3073 C 0.23064 0.18897 0.79568 0.0
C3074 C 0.22746 0.20934 0.80785 0.0
C3075 C 0.24156 0.23003 0.80601 0.0
H3076 H 0.32915 0.96464 0.26359 0.0
H3077 H 0.39227 0.9484 0.28864 0.0
H3078 H 0.31072 0.92447 0.25923 0.0
H3079 H 0.37393 0.9089 0.28632 0.0
H3080 H 0.34204 0.83793 0.27191 0.0
H3081 H 0.3571 0.87536 0.26249 0.0
H3082 H 0.2991 0.89783 0.28487 0.0
H3083 H 0.28262 0.85917 0.29088 0.0
C3084 C 0.33902 0.95234 0.26791 0.0
C3085 C 0.36202 0.95929 0.27616 0.0
C3086 C 0.32851 0.92947 0.26568 0.0
C3087 C 0.34081 0.91344 0.27243 0.0
C3088 C 0.364 0.92057 0.28024 0.0
C3089 C 0.37455 0.94325 0.28173 0.0
C3090 C 0.33196 0.85052 0.27347 0.0
C3091 C 0.3109 0.84554 0.28133 0.0
C3092 C 0.34086 0.8722 0.26874 0.0
C3093 C 0.32947 0.88972 0.2732 0.0
C3094 C 0.30817 0.88466 0.28079 0.0
C3095 C 0.29884 0.86262 0.28458 0.0
H3096 H 0.54294 0.35417 0.57212 0.0
H3097 H 0.60848 0.39167 0.60546 0.0
H3098 H 0.5353 0.38873 0.55667 0.0
H3099 H 0.60144 0.42551 0.58956 0.0
H3100 H 0.57822 0.49073 0.58045 0.0
H3101 H 0.58448 0.4555 0.59375 0.0
H3102 H 0.53986 0.4174 0.53088 0.0
H3103 H 0.53371 0.45299 0.51759 0.0
C3104 C 0.55592 0.36959 0.57584 0.0
C3105 C 0.5764 0.36974 0.59027 0.0
C3106 C 0.55154 0.38965 0.56694 0.0
C3107 C 0.5675 0.41068 0.57196 0.0
C3108 C 0.58819 0.41035 0.58566 0.0
C3109 C 0.59241 0.39055 0.59469 0.0
C3110 C 0.56971 0.47494 0.56927 0.0
C3111 C 0.55518 0.47525 0.54787 0.0
C3112 C 0.57344 0.45437 0.57692 0.0
C3113 C 0.5629 0.43287 0.56356 0.0
C3114 C 0.54827 0.43318 0.54213 0.0
C3115 C 0.54463 0.45386 0.53441 0.0
H3116 H 0.46226 0.7721 0.37734 0.0
H3117 H 0.42053 0.76975 0.43463 0.0
H3118 H 0.42966 0.77203 0.34769 0.0
H3119 H 0.38823 0.77007 0.4053 0.0
H3120 H 0.32917 0.75162 0.34429 0.0
H3121 H 0.36182 0.74883 0.37215 0.0
H3122 H 0.40442 0.79536 0.33498 0.0
H3123 H 0.37182 0.79821 0.30735 0.0
C3124 C 0.44616 0.7715 0.38365 0.0
C3125 C 0.44419 0.77092 0.40851 0.0
C3126 C 0.42741 0.77162 0.36663 0.0
C3127 C 0.40607 0.77104 0.37391 0.0
C3128 C 0.40415 0.77019 0.39874 0.0
C3129 C 0.42285 0.77017 0.41571 0.0
C3130 C 0.34552 0.76114 0.34194 0.0
C3131 C 0.34774 0.77481 0.32315 0.0
C3132 C 0.36433 0.75965 0.35806 0.0
C3133 C 0.38602 0.77182 0.35597 0.0
C3134 C 0.38821 0.78534 0.33702 0.0
C3135 C 0.36939 0.78689 0.32098 0.0
H3136 H 0.06799 0.72538 0.11085 0.0
H3137 H 0.0622 0.72987 0.03386 0.0
H3138 H 0.0646 0.68433 0.1022 0.0
H3139 H 0.05807 0.689 0.0251 0.0
H3140 H 0.06818 0.61661 0.01383 0.0
H3141 H 0.07394 0.65766 0.02387 0.0
H3142 H 0.04257 0.64839 0.08861 0.0
H3143 H 0.03858 0.60752 0.07943 0.0
C3144 C 0.06587 0.71768 0.09203 0.0
C3145 C 0.06544 0.73135 0.07316 0.0
C3146 C 0.06376 0.69388 0.08697 0.0
C3147 C 0.06106 0.68271 0.06279 0.0
C3148 C 0.06055 0.6965 0.04399 0.0
C3149 C 0.06274 0.72022 0.04906 0.0
C3150 C 0.06281 0.62325 0.03041 0.0
C3151 C 0.0527 0.60828 0.0456 0.0
C3152 C 0.0658 0.64706 0.03608 0.0
C3153 C 0.05858 0.657 0.0571 0.0
C3154 C 0.04868 0.64194 0.0724 0.0
C3155 C 0.04597 0.61817 0.06686 0.0
H3156 H 0.05769 0.29695 0.89099 0.0
H3157 H 0.09209 0.25292 0.92899 0.0
H3158 H 0.0877 0.30386 0.86583 0.0
H3159 H 0.12168 0.25919 0.9034 0.0
H3160 H 0.18356 0.29952 0.87403 0.0
H3161 H 0.15269 0.28679 0.89682 0.0
H3162 H 0.10513 0.28878 0.83422 0.0
H3163 H 0.13613 0.30223 0.81201 0.0
C3164 C 0.07151 0.28851 0.8938 0.0
C3165 C 0.07242 0.27444 0.91214 0.0
C3166 C 0.08873 0.29234 0.87922 0.0
C3167 C 0.1073 0.28208 0.88243 0.0
C3168 C 0.10794 0.26769 0.90052 0.0
C3169 C 0.09082 0.26399 0.91517 0.0
C3170 C 0.16648 0.29646 0.86497 0.0
C3171 C 0.16221 0.30156 0.84118 0.0
C3172 C 0.1487 0.28929 0.87804 0.0
C3173 C 0.12622 0.28703 0.86759 0.0
C3174 C 0.1221 0.29079 0.84317 0.0
C3175 C 0.13985 0.2981 0.83023 0.0
H3176 H 0.53109 0.75357 0.8783 0.0
H3177 H 0.5802 0.78206 0.94139 0.0
H3178 H 0.52215 0.71809 0.89511 0.0
H3179 H 0.57197 0.7461 0.95789 0.0
H3180 H 0.534 0.68543 0.99159 0.0
H3181 H 0.54582 0.72152 0.97603 0.0
H3182 H 0.53467 0.6857 0.90276 0.0
H3183 H 0.52207 0.65008 0.91831 0.0
C3184 C 0.54019 0.75218 0.89567 0.0
C3185 C 0.55639 0.77074 0.90843 0.0
C3186 C 0.53518 0.73168 0.90531 0.0
C3187 C 0.54642 0.72892 0.92789 0.0
C3188 C 0.56271 0.74751 0.94063 0.0
C3189 C 0.56756 0.76816 0.93108 0.0
C3190 C 0.5343 0.68534 0.97219 0.0
C3191 C 0.5268 0.66495 0.95613 0.0
C3192 C 0.54113 0.70605 0.96321 0.0
C3193 C 0.54087 0.70679 0.93796 0.0
C3194 C 0.53444 0.68611 0.92218 0.0
C3195 C 0.52736 0.66557 0.93111 0.0
H3196 H 0.1157 0.77085 0.69042 0.0
H3197 H 0.09909 0.76451 0.76277 0.0
H3198 H 0.15474 0.77436 0.7049 0.0
H3199 H 0.13922 0.76892 0.77789 0.0
H3200 H 0.21363 0.76034 0.7939 0.0
H3201 H 0.17322 0.75541 0.78143 0.0
H3202 H 0.18713 0.7967 0.72434 0.0
H3203 H 0.22678 0.79957 0.73533 0.0
C3204 C 0.12031 0.7704 0.70966 0.0
C3205 C 0.10367 0.76743 0.72524 0.0
C3206 C 0.14318 0.7727 0.71817 0.0
C3207 C 0.15096 0.77237 0.7429 0.0
C3208 C 0.13434 0.76925 0.7587 0.0
C3209 C 0.11114 0.76689 0.75005 0.0
C3210 C 0.20809 0.76801 0.77839 0.0
C3211 C 0.22405 0.78037 0.76569 0.0
C3212 C 0.18465 0.76547 0.77138 0.0
C3213 C 0.17616 0.77541 0.75151 0.0
C3214 C 0.19229 0.78809 0.73926 0.0
C3215 C 0.21549 0.7902 0.74595 0.0
H3216 H 0.03217 0.36171 0.44174 0.0
H3217 H 0.06703 0.40075 0.39223 0.0
H3218 H 0.03344 0.39618 0.46876 0.0
H3219 H 0.0669 0.43588 0.41834 0.0
H3220 H 0.07509 0.49699 0.47732 0.0
H3221 H 0.07798 0.46255 0.45196 0.0
H3222 H 0.01814 0.42614 0.47612 0.0
H3223 H 0.01635 0.46009 0.50239 0.0
C3224 C 0.04008 0.37781 0.43658 0.0
C3225 C 0.04951 0.37839 0.41479 0.0
C3226 C 0.04054 0.39783 0.452 0.0
C3227 C 0.04978 0.4194 0.44587 0.0
C3228 C 0.05975 0.41989 0.42418 0.0
C3229 C 0.05982 0.39966 0.40902 0.0
C3230 C 0.06266 0.48152 0.47728 0.0
C3231 C 0.04562 0.48136 0.49216 0.0
C3232 C 0.06419 0.46164 0.46251 0.0
C3233 C 0.04845 0.44097 0.46176 0.0
C3234 C 0.03116 0.44115 0.47643 0.0
C3235 C 0.02993 0.46086 0.49151 0.0
H3236 H 0.47604 0.29044 0.2471 0.0
H3237 H 0.43805 0.2255 0.21072 0.0
H3238 H 0.44174 0.29866 0.26161 0.0
H3239 H 0.40443 0.23319 0.2255 0.0
H3240 H 0.34063 0.25875 0.23305 0.0
H3241 H 0.3756 0.25183 0.22087 0.0
H3242 H 0.41215 0.29338 0.28646 0.0
H3243 H 0.37683 0.29986 0.2988 0.0
C3244 C 0.46057 0.27771 0.24243 0.0
C3245 C 0.4603 0.25723 0.22745 0.0
C3246 C 0.44063 0.28243 0.25081 0.0
C3247 C 0.41953 0.26688 0.24463 0.0
C3248 C 0.41968 0.24619 0.23033 0.0
C3249 C 0.43937 0.24159 0.22191 0.0
C3250 C 0.35602 0.26653 0.24506 0.0
C3251 C 0.35529 0.28037 0.26695 0.0
C3252 C 0.37644 0.26237 0.23805 0.0
C3253 C 0.39747 0.27188 0.25245 0.0
C3254 C 0.39678 0.2858 0.27438 0.0
C3255 C 0.37621 0.28969 0.28155 0.0
H3256 H 0.65638 0.56661 0.39264 0.0
H3257 H 0.5951 0.54021 0.34298 0.0
H3258 H 0.63608 0.55956 0.42703 0.0
H3259 H 0.57477 0.53291 0.37757 0.0
H3260 H 0.54404 0.54935 0.4484 0.0
H3261 H 0.5628 0.55376 0.41252 0.0
H3262 H 0.6173 0.52771 0.44612 0.0
H3263 H 0.59832 0.52296 0.48205 0.0
C3264 C 0.63857 0.55926 0.38901 0.0
C3265 C 0.62742 0.55397 0.36497 0.0
C3266 C 0.62695 0.55505 0.40879 0.0
C3267 C 0.60383 0.54545 0.40512 0.0
C3268 C 0.59256 0.54042 0.38108 0.0
C3269 C 0.60423 0.54458 0.36124 0.0
C3270 C 0.55977 0.54401 0.44797 0.0
C3271 C 0.56949 0.53544 0.46805 0.0
C3272 C 0.57057 0.54664 0.42736 0.0
C3273 C 0.59159 0.54115 0.42639 0.0
C3274 C 0.60122 0.53234 0.44635 0.0
C3275 C 0.5903 0.52948 0.4669 0.0
H3276 H 0.3244 0.8914 0.03632 0.0
H3277 H 0.27748 0.91961 0.07545 0.0
H3278 H 0.33524 0.87336 0.07131 0.0
H3279 H 0.288 0.90088 0.1107 0.0
H3280 H 0.29616 0.83339 0.14667 0.0
H3281 H 0.28491 0.85783 0.1175 0.0
H3282 H 0.3546 0.88737 0.11524 0.0
H3283 H 0.36577 0.86272 0.14403 0.0
C3284 C 0.31624 0.89346 0.05241 0.0
C3285 C 0.29994 0.9065 0.05331 0.0
C3286 C 0.32261 0.88341 0.07247 0.0
C3287 C 0.31252 0.88593 0.09362 0.0
C3288 C 0.296 0.89882 0.09451 0.0
C3289 C 0.28999 0.90941 0.07451 0.0
C3290 C 0.30896 0.84539 0.14013 0.0
C3291 C 0.33177 0.84604 0.147 0.0
C3292 C 0.30256 0.85941 0.12369 0.0
C3293 C 0.31894 0.87423 0.11412 0.0
C3294 C 0.34173 0.87579 0.12219 0.0
C3295 C 0.3481 0.8617 0.13846 0.0
H3296 H 0.94294 0.49482 0.84448 0.0
H3297 H 0.90125 0.52243 0.89162 0.0
H3298 H 0.97393 0.50319 0.87789 0.0
H3299 H 0.9316 0.52947 0.92565 0.0
H3300 H 0.9955 0.56457 0.97224 0.0
H3301 H 0.96647 0.55566 0.93716 0.0
H3302 H 0.98718 0.49312 0.91611 0.0
H3303 H 0.0169 0.50263 0.95084 0.0
C3304 C 0.94031 0.50199 0.86232 0.0
C3305 C 0.91993 0.50783 0.86588 0.0
C3306 C 0.95797 0.50681 0.88138 0.0
C3307 C 0.95525 0.51715 0.90432 0.0
C3308 C 0.93437 0.52201 0.90801 0.0
C3309 C 0.91693 0.51773 0.88876 0.0
C3310 C 0.99399 0.54908 0.95989 0.0
C3311 C 1.00818 0.53415 0.96418 0.0
C3312 C 0.97725 0.54385 0.93998 0.0
C3313 C 0.97422 0.52344 0.92422 0.0
C3314 C 0.98914 0.509 0.92793 0.0
C3315 C 1.00613 0.51441 0.94773 0.0
H3316 H 0.28146 0.26283 0.57731 0.0
H3317 H 0.27442 0.1944 0.5949 0.0
H3318 H 0.28382 0.27707 0.62039 0.0
H3319 H 0.27601 0.20846 0.63773 0.0
H3320 H 0.30308 0.24193 0.71493 0.0
H3321 H 0.30084 0.2286 0.67189 0.0
H3322 H 0.2637 0.27927 0.65409 0.0
H3323 H 0.26714 0.29348 0.6972 0.0
C3324 C 0.28027 0.25079 0.59033 0.0
C3325 C 0.27785 0.22747 0.58256 0.0
C3326 C 0.28146 0.25895 0.61509 0.0
C3327 C 0.28018 0.24399 0.63276 0.0
C3328 C 0.2775 0.22062 0.62486 0.0
C3329 C 0.27642 0.2125 0.60017 0.0
C3330 C 0.2944 0.25028 0.7019 0.0
C3331 C 0.28494 0.2686 0.70975 0.0
C3332 C 0.29296 0.24247 0.67708 0.0
C3333 C 0.28187 0.25262 0.65929 0.0
C3334 C 0.27254 0.27108 0.66713 0.0
C3335 C 0.27422 0.27906 0.69199 0.0
H3336 H 0.59542 0.5893 0.2303 0.0
H3337 H 0.61508 0.52498 0.21821 0.0
H3338 H 0.57983 0.58492 0.18742 0.0
H3339 H 0.59925 0.52061 0.17519 0.0
H3340 H 0.5455 0.51336 0.10592 0.0
H3341 H 0.56099 0.51578 0.14876 0.0
H3342 H 0.59658 0.58463 0.14763 0.0
H3343 H 0.58193 0.5819 0.10474 0.0
C3344 C 0.59629 0.57414 0.21856 0.0
C3345 C 0.60656 0.55752 0.22772 0.0
C3346 C 0.58746 0.57172 0.19395 0.0
C3347 C 0.58845 0.5525 0.17794 0.0
C3348 C 0.59817 0.53555 0.18715 0.0
C3349 C 0.60728 0.53811 0.21176 0.0
C3350 C 0.55669 0.529 0.11478 0.0
C3351 C 0.56196 0.54772 0.10203 0.0
C3352 C 0.56559 0.53034 0.1393 0.0
C3353 C 0.57973 0.55051 0.15164 0.0
C3354 C 0.58536 0.56902 0.13875 0.0
C3355 C 0.57681 0.56752 0.11418 0.0
H3356 H 0.31744 0.94002 0.9118 0.0
H3357 H 0.30965 0.89416 0.96592 0.0
H3358 H 0.31262 0.90745 0.88008 0.0
H3359 H 0.30478 0.86186 0.93429 0.0
H3360 H 0.31943 0.81414 0.86844 0.0
H3361 H 0.32666 0.84518 0.90217 0.0
H3362 H 0.27711 0.87544 0.86498 0.0
H3363 H 0.26951 0.84442 0.83158 0.0
C3364 C 0.31503 0.92307 0.91692 0.0
C3365 C 0.3136 0.91952 0.94114 0.0
C3366 C 0.31214 0.90452 0.89886 0.0
C3367 C 0.30809 0.88232 0.90493 0.0
C3368 C 0.30789 0.87886 0.92929 0.0
C3369 C 0.31054 0.89733 0.94727 0.0
C3370 C 0.30969 0.82711 0.86779 0.0
C3371 C 0.294 0.82699 0.8474 0.0
C3372 C 0.31398 0.84491 0.88692 0.0
C3373 C 0.30276 0.86278 0.8857 0.0
C3374 C 0.28631 0.86204 0.86593 0.0
C3375 C 0.28185 0.84421 0.84698 0.0
H3376 H 0.96496 0.52399 0.78788 0.0
H3377 H 0.91545 0.54728 0.74177 0.0
H3378 H 0.98313 0.51498 0.75291 0.0
H3379 H 0.93436 0.53937 0.70672 0.0
H3380 H 0.95283 0.49 0.64736 0.0
H3381 H 0.93756 0.50689 0.68167 0.0
H3382 H 1.00419 0.52639 0.72267 0.0
H3383 H 0.01892 0.50814 0.68877 0.0
C3384 C 0.95835 0.52785 0.77036 0.0
C3385 C 0.93866 0.53613 0.76753 0.0
C3386 C 0.96885 0.52277 0.75023 0.0
C3387 C 0.96011 0.52621 0.72684 0.0
C3388 C 0.94125 0.53597 0.72434 0.0
C3389 C 0.93053 0.54073 0.74446 0.0
C3390 C 0.96406 0.49793 0.66381 0.0
C3391 C 0.98685 0.49746 0.66586 0.0
C3392 C 0.95544 0.50786 0.68336 0.0
C3393 C 0.96961 0.5179 0.70512 0.0
C3394 C 0.99268 0.51832 0.7065 0.0
C3395 C 1.00117 0.50796 0.68715 0.0
H3396 H 0.30332 0.20868 0.45385 0.0
H3397 H 0.24098 0.23124 0.45067 0.0
H3398 H 0.31143 0.22593 0.41731 0.0
H3399 H 0.24884 0.24802 0.41408 0.0
H3400 H 0.2779 0.29491 0.36303 0.0
H3401 H 0.27293 0.27893 0.40061 0.0
H3402 H 0.2993 0.22172 0.37353 0.0
H3403 H 0.30495 0.23821 0.33594 0.0
C3404 C 0.29136 0.21736 0.44542 0.0
C3405 C 0.2715 0.21861 0.45531 0.0
C3406 C 0.29594 0.2271 0.42433 0.0
C3407 C 0.28083 0.23844 0.41266 0.0
C3408 C 0.26106 0.23975 0.4227 0.0
C3409 C 0.25646 0.22998 0.44367 0.0
C3410 C 0.2828 0.27898 0.36506 0.0
C3411 C 0.29165 0.26776 0.34628 0.0
C3412 C 0.27977 0.2697 0.38662 0.0
C3413 C 0.28543 0.24884 0.39011 0.0
C3414 C 0.29485 0.23786 0.37159 0.0
C3415 C 0.29795 0.24722 0.34995 0.0
H3416 H 0.3628 0.61572 0.60009 0.0
H3417 H 0.31245 0.56943 0.54745 0.0
H3418 H 0.39212 0.60199 0.58075 0.0
H3419 H 0.34142 0.55665 0.5276 0.0
H3420 H 0.39865 0.5324 0.49973 0.0
H3421 H 0.3721 0.53854 0.52758 0.0
H3422 H 0.40373 0.61009 0.54156 0.0
H3423 H 0.43111 0.60355 0.51459 0.0
C3424 C 0.358 0.60213 0.58494 0.0
C3425 C 0.33548 0.59399 0.57485 0.0
C3426 C 0.37473 0.59452 0.57368 0.0
C3427 C 0.36899 0.57878 0.55231 0.0
C3428 C 0.34639 0.56879 0.54404 0.0
C3429 C 0.32976 0.57619 0.55538 0.0
C3430 C 0.39979 0.54944 0.50873 0.0
C3431 C 0.41669 0.56759 0.50503 0.0
C3432 C 0.38471 0.55293 0.5247 0.0
C3433 C 0.38607 0.57471 0.53696 0.0
C3434 C 0.40267 0.593 0.53278 0.0
C3435 C 0.41794 0.58944 0.51693 0.0
H3436 H 0.86357 0.96131 0.55078 0.0
H3437 H 0.8995 0.90817 0.5614 0.0
H3438 H 0.89881 0.98767 0.54867 0.0
H3439 H 0.93449 0.93414 0.55841 0.0
H3440 H 0.99666 0.98993 0.57347 0.0
H3441 H 0.96105 0.96646 0.57926 0.0
H3442 H 0.92692 0.99522 0.52247 0.0
H3443 H 0.9625 0.0189 0.51695 0.0
C3444 C 0.87898 0.95525 0.55263 0.0
C3445 C 0.87874 0.93267 0.55638 0.0
C3446 C 0.89918 0.97032 0.55128 0.0
C3447 C 0.91957 0.96309 0.55343 0.0
C3448 C 0.91923 0.94049 0.55719 0.0
C3449 C 0.89911 0.92552 0.55878 0.0
C3450 C 0.98151 0.99143 0.56241 0.0
C3451 C 0.98242 1.00642 0.54488 0.0
C3452 C 0.96109 0.97784 0.5656 0.0
C3453 C 0.94106 0.97879 0.55124 0.0
C3454 C 0.94192 0.99423 0.53411 0.0
C3455 C 0.96236 1.00788 0.53097 0.0
H3456 H 0.88011 0.05968 0.25727 0.0
H3457 H 0.93768 0.11411 0.28421 0.0
H3458 H 0.8555 0.0861 0.26231 0.0
H3459 H 0.91304 0.14038 0.29011 0.0
H3460 H 0.86498 0.18665 0.29109 0.0
H3461 H 0.88676 0.16103 0.27324 0.0
H3462 H 0.84356 0.10421 0.29663 0.0
H3463 H 0.82165 0.12959 0.3135 0.0
C3464 C 0.88753 0.07731 0.26418 0.0
C3465 C 0.91084 0.08473 0.27063 0.0
C3466 C 0.87341 0.09247 0.26713 0.0
C3467 C 0.88223 0.11536 0.27685 0.0
C3468 C 0.90564 0.12297 0.28229 0.0
C3469 C 0.91979 0.10784 0.27912 0.0
C3470 C 0.85986 0.16858 0.29172 0.0
C3471 C 0.84183 0.16007 0.30389 0.0
C3472 C 0.87244 0.15394 0.28177 0.0
C3473 C 0.8671 0.13057 0.28374 0.0
C3474 C 0.84811 0.12202 0.29452 0.0
C3475 C 0.83563 0.13659 0.30441 0.0
H3476 H 0.70501 0.10853 0.09616 0.0
H3477 H 0.71994 0.07994 0.02692 0.0
H3478 H 0.66519 0.09736 0.08098 0.0
H3479 H 0.67989 0.06876 0.01183 0.0
H3480 H 0.60901 0.02312 0.02621 0.0
H3481 H 0.64869 0.03968 0.02639 0.0
H3482 H 0.63682 0.10646 0.04741 0.0
H3483 H 0.59708 0.08975 0.04704 0.0
C3484 C 0.6998 0.0998 0.07776 0.0
C3485 C 0.71554 0.09491 0.06282 0.0
C3486 C 0.67707 0.09379 0.06894 0.0
C3487 C 0.66971 0.08268 0.0451 0.0
C3488 C 0.68533 0.07755 0.03018 0.0
C3489 C 0.70814 0.08373 0.03894 0.0
C3490 C 0.61485 0.04142 0.02974 0.0
C3491 C 0.60046 0.05533 0.03662 0.0
C3492 C 0.6374 0.05089 0.02978 0.0
C3493 C 0.64563 0.07422 0.03725 0.0
C3494 C 0.63069 0.08838 0.04171 0.0
C3495 C 0.60807 0.07892 0.04136 0.0
H3496 H 0.24032 0.4873 0.22042 0.0
H3497 H 0.18425 0.47316 0.26048 0.0
H3498 H 0.25497 0.4564 0.23638 0.0
H3499 H 0.1995 0.44407 0.27821 0.0
H3500 H 0.22646 0.38964 0.30667 0.0
H3501 H 0.20873 0.40954 0.27702 0.0
H3502 H 0.27355 0.4523 0.27324 0.0
H3503 H 0.2911 0.43105 0.30133 0.0
C3504 C 0.23101 0.4772 0.23229 0.0
C3505 C 0.21115 0.48213 0.23912 0.0
C3506 C 0.23945 0.45977 0.2417 0.0
C3507 C 0.22858 0.44781 0.25884 0.0
C3508 C 0.20811 0.45233 0.26464 0.0
C3509 C 0.19935 0.46912 0.25458 0.0
C3510 C 0.23674 0.40319 0.29917 0.0
C3511 C 0.25991 0.40928 0.30638 0.0
C3512 C 0.22669 0.41462 0.28228 0.0
C3513 C 0.23961 0.43282 0.27296 0.0
C3514 C 0.26302 0.43822 0.27965 0.0
C3515 C 0.2731 0.42634 0.29602 0.0
H3516 H 0.23096 0.42227 0.07625 0.0
H3517 H 0.26514 0.44261 0.01602 0.0
H3518 H 0.20305 0.44421 0.06527 0.0
H3519 H 0.23708 0.46378 0.00466 0.0
H3520 H 0.19478 0.51381 0.99718 0.0
H3521 H 0.22371 0.49662 0.01622 0.0
H3522 H 0.17232 0.44351 0.0344 0.0
H3523 H 0.1435 0.46157 0.0163 0.0
C3524 C 0.23254 0.43142 0.0607 0.0
C3525 C 0.25028 0.43068 0.04702 0.0
C3526 C 0.21648 0.44391 0.05434 0.0
C3527 C 0.21785 0.45591 0.03416 0.0
C3528 C 0.23571 0.4552 0.02063 0.0
C3529 C 0.25174 0.44283 0.02701 0.0
C3530 C 0.1898 0.49873 0.00575 0.0
C3531 C 0.16707 0.48886 0.00524 0.0
C3532 C 0.20629 0.48874 0.01644 0.0
C3533 C 0.20037 0.46839 0.0264 0.0
C3534 C 0.17752 0.45923 0.02705 0.0
C3535 C 0.161 0.46949 0.01665 0.0
H3536 H 0.89562 0.93841 0.21867 0.0
H3537 H 0.89175 0.96699 0.29211 0.0
H3538 H 0.86999 0.90368 0.22388 0.0
H3539 H 0.86675 0.93181 0.29773 0.0
H3540 H 0.80737 0.87147 0.2934 0.0
H3541 H 0.83029 0.90779 0.28715 0.0
H3542 H 0.86959 0.8719 0.24399 0.0
H3543 H 0.84611 0.83617 0.24885 0.0
C3544 C 0.88939 0.93724 0.23599 0.0
C3545 C 0.89581 0.95548 0.25497 0.0
C3546 C 0.87476 0.91723 0.23907 0.0
C3547 C 0.86635 0.91478 0.26132 0.0
C3548 C 0.87262 0.93313 0.28025 0.0
C3549 C 0.88713 0.95326 0.27709 0.0
C3550 C 0.82065 0.87142 0.28223 0.0
C3551 C 0.82465 0.85085 0.27142 0.0
C3552 C 0.834 0.89223 0.27889 0.0
C3553 C 0.85177 0.89287 0.26489 0.0
C3554 C 0.85578 0.87223 0.25436 0.0
C3555 C 0.84235 0.8516 0.2574 0.0
H3556 H 0.75374 0.1112 0.75712 0.0
H3557 H 0.69614 0.12705 0.78733 0.0
H3558 H 0.77231 0.1511 0.76498 0.0
H3559 H 0.7151 0.167 0.79603 0.0
H3560 H 0.74262 0.23479 0.76586 0.0
H3561 H 0.72448 0.19628 0.77082 0.0
H3562 H 0.78919 0.18284 0.79551 0.0
H3563 H 0.80722 0.22126 0.78953 0.0
C3564 C 0.74524 0.12318 0.76585 0.0
C3565 C 0.72347 0.11614 0.77142 0.0
C3566 C 0.75595 0.14601 0.7706 0.0
C3567 C 0.74517 0.16213 0.78126 0.0
C3568 C 0.72369 0.15494 0.78762 0.0
C3569 C 0.71288 0.13212 0.78263 0.0
C3570 C 0.75275 0.22373 0.77305 0.0
C3571 C 0.7761 0.23053 0.77737 0.0
C3572 C 0.74245 0.20175 0.77597 0.0
C3573 C 0.75549 0.1865 0.78329 0.0
C3574 C 0.77881 0.19413 0.78942 0.0
C3575 C 0.78909 0.216 0.78617 0.0
loop_
_geom_bond_atom_site_label_1
_geom_bond_atom_site_label_2
_geom_bond_distance
_geom_bond_site_symmetry_2
_ccdc_geom_bond_type
C0 O1 1.160 . S
C0 O7 1.185 . S
O1 C0 1.160 . S
O2 Zn3 1.899 . S
O2 C10 1.284 . S
Zn3 O2 1.899 . S
Zn3 O4 2.032 . S
Zn3 O7 2.086 . S
Zn3 O12 1.977 . S
O4 Zn3 2.032 . S
O4 C8 1.278 . S
C5 O6 1.203 . S
C5 O12 1.267 1_655 S
O6 C5 1.203 . S
O7 C0 1.185 . S
O7 Zn3 2.086 . S
C8 O4 1.278 . S
C8 O9 1.211 . S
O9 C8 1.211 . S
C10 O2 1.284 . S
C10 O11 1.273 . S
O11 C10 1.273 . S
O12 Zn3 1.977 . S
O12 C5 1.267 1_455 S
C13 O14 1.160 . S
C13 O20 1.185 . S
O14 C13 1.160 . S
O15 Zn16 1.899 . S
O15 C23 1.284 . S
Zn16 O15 1.899 . S
Zn16 O17 2.032 . S
Zn16 O20 2.086 1_455 S
Zn16 O25 1.977 . S
O17 Zn16 2.032 . S
O17 C21 1.278 . S
C18 O19 1.203 . S
C18 O25 1.267 . S
O19 C18 1.203 . S
O20 C13 1.185 . S
O20 Zn16 2.086 1_655 S
C21 O17 1.278 . S
C21 O22 1.211 . S
O22 C21 1.211 . S
C23 O15 1.284 . S
C23 O24 1.273 . S
O24 C23 1.273 . S
O25 Zn16 1.977 . S
O25 C18 1.267 . S
C26 O27 1.160 . S
C26 O33 1.185 . S
O27 C26 1.160 . S
O28 Zn29 1.899 . S
O28 C36 1.284 . S
Zn29 O28 1.899 . S
Zn29 O30 2.032 . S
Zn29 O33 2.086 . S
Zn29 O38 1.977 . S
O30 Zn29 2.032 . S
O30 C34 1.278 . S
C31 O32 1.203 . S
C31 O38 1.267 . S
O32 C31 1.203 . S
O33 C26 1.185 . S
O33 Zn29 2.086 . S
C34 O30 1.278 . S
C34 O35 1.211 . S
O35 C34 1.211 . S
C36 O28 1.284 . S
C36 O37 1.273 . S
O37 C36 1.273 . S
O38 Zn29 1.977 . S
O38 C31 1.267 . S
C39 O40 1.160 . S
C39 O46 1.185 . S
O40 C39 1.160 . S
O41 Zn42 1.899 . S
O41 C49 1.284 . S
Zn42 O41 1.899 . S
Zn42 O43 2.032 . S
Zn42 O46 2.086 . S
Zn42 O51 1.977 . S
O43 Zn42 2.032 . S
O43 C47 1.278 . S
C44 O45 1.203 . S
C44 O51 1.267 . S
O45 C44 1.203 . S
O46 C39 1.185 . S
O46 Zn42 2.086 . S
C47 O43 1.278 . S
C47 O48 1.211 . S
O48 C47 1.211 . S
C49 O41 1.284 . S
C49 O50 1.273 . S
O50 C49 1.273 . S
O51 Zn42 1.977 . S
O51 C44 1.267 . S
C52 O53 1.160 . S
C52 O59 1.185 . S
O53 C52 1.160 . S
O54 Zn55 1.899 . S
O54 C62 1.284 . S
Zn55 O54 1.899 . S
Zn55 O56 2.032 . S
Zn55 O59 2.086 . S
Zn55 O64 1.977 . S
O56 Zn55 2.032 . S
O56 C60 1.278 . S
C57 O58 1.203 . S
C57 O64 1.267 . S
O58 C57 1.203 . S
O59 C52 1.185 . S
O59 Zn55 2.086 . S
C60 O56 1.278 . S
C60 O61 1.211 . S
O61 C60 1.211 . S
C62 O54 1.284 . S
C62 O63 1.273 . S
O63 C62 1.273 . S
O64 Zn55 1.977 . S
O64 C57 1.267 . S
C65 O66 1.160 . S
C65 O72 1.185 . S
O66 C65 1.160 . S
O67 Zn68 1.899 . S
O67 C75 1.284 . S
Zn68 O67 1.899 . S
Zn68 O69 2.032 . S
Zn68 O72 2.086 . S
Zn68 O77 1.977 . S
O69 Zn68 2.032 . S
O69 C73 1.278 . S
C70 O71 1.203 . S
C70 O77 1.267 . S
O71 C70 1.203 . S
O72 C65 1.185 . S
O72 Zn68 2.086 . S
C73 O69 1.278 . S
C73 O74 1.211 . S
O74 C73 1.211 . S
C75 O67 1.284 . S
C75 O76 1.273 . S
O76 C75 1.273 . S
O77 Zn68 1.977 . S
O77 C70 1.267 . S
C78 O79 1.160 . S
C78 O85 1.185 . S
O79 C78 1.160 . S
O80 Zn81 1.899 . S
O80 C88 1.284 . S
Zn81 O80 1.899 . S
Zn81 O82 2.032 . S
Zn81 O85 2.086 . S
Zn81 O90 1.977 . S
O82 Zn81 2.032 . S
O82 C86 1.278 . S
C83 O84 1.203 . S
C83 O90 1.267 . S
O84 C83 1.203 . S
O85 C78 1.185 . S
O85 Zn81 2.086 . S
C86 O82 1.278 . S
C86 O87 1.211 . S
O87 C86 1.211 . S
C88 O80 1.284 . S
C88 O89 1.273 . S
O89 C88 1.273 . S
O90 Zn81 1.977 . S
O90 C83 1.267 . S
C91 O92 1.160 . S
C91 O98 1.185 . S
O92 C91 1.160 . S
O93 Zn94 1.900 . S
O93 C101 1.286 1_455 S
Zn94 O93 1.900 . S
Zn94 O95 2.032 . S
Zn94 O98 2.086 . S
Zn94 O103 1.977 1_455 S
O95 Zn94 2.032 . S
O95 C99 1.278 . S
C96 O97 1.203 . S
C96 O103 1.267 . S
O97 C96 1.203 . S
O98 C91 1.185 . S
O98 Zn94 2.086 . S
C99 O95 1.278 . S
C99 O100 1.211 1_455 S
O100 C99 1.211 1_655 S
C101 O93 1.286 1_655 S
C101 O102 1.273 . S
O102 C101 1.273 . S
O103 Zn94 1.977 1_655 S
O103 C96 1.267 . S
C104 O105 1.160 . S
C104 O111 1.185 . S
O105 C104 1.160 . S
O106 Zn107 1.899 . S
O106 C114 1.284 . S
Zn107 O106 1.899 . S
Zn107 O108 2.032 . S
Zn107 O111 2.086 . S
Zn107 O116 1.977 1_545 S
O108 Zn107 2.032 . S
O108 C112 1.278 . S
C109 O110 1.203 . S
C109 O116 1.267 . S
O110 C109 1.203 . S
O111 C104 1.185 . S
O111 Zn107 2.086 . S
C112 O108 1.278 . S
C112 O113 1.211 1_545 S
O113 C112 1.211 1_565 S
C114 O106 1.284 . S
C114 O115 1.282 . S
O115 C114 1.282 . S
O116 Zn107 1.977 1_565 S
O116 C109 1.267 . S
C117 O118 1.160 . S
C117 O124 1.185 . S
O118 C117 1.160 . S
O119 Zn120 1.899 . S
O119 C127 1.284 . S
Zn120 O119 1.899 . S
Zn120 O121 2.032 . S
Zn120 O124 2.086 . S
Zn120 O129 1.977 . S
O121 Zn120 2.032 . S
O121 C125 1.278 . S
C122 O123 1.203 . S
C122 O129 1.267 . S
O123 C122 1.203 . S
O124 C117 1.185 . S
O124 Zn120 2.086 . S
C125 O121 1.278 . S
C125 O126 1.211 . S
O126 C125 1.211 . S
C127 O119 1.284 . S
C127 O128 1.273 . S
O128 C127 1.273 . S
O129 Zn120 1.977 . S
O129 C122 1.267 . S
C130 O131 1.160 1_545 S
C130 O137 1.185 . S
O131 C130 1.160 1_565 S
O132 Zn133 1.899 . S
O132 C140 1.284 . S
Zn133 O132 1.899 . S
Zn133 O134 2.032 . S
Zn133 O137 2.086 . S
Zn133 O142 1.977 . S
O134 Zn133 2.032 . S
O134 C138 1.278 . S
C135 O136 1.203 . S
C135 O142 1.267 . S
O136 C135 1.203 . S
O137 C130 1.185 . S
O137 Zn133 2.086 . S
C138 O134 1.278 . S
C138 O139 1.211 . S
O139 C138 1.211 . S
C140 O132 1.284 . S
C140 O141 1.273 . S
O141 C140 1.273 . S
O142 Zn133 1.977 . S
O142 C135 1.267 . S
C143 O144 1.160 . S
C143 O150 1.185 1_554 S
O144 C143 1.160 . S
O145 Zn146 1.899 . S
O145 C153 1.284 . S
Zn146 O145 1.899 . S
Zn146 O147 2.032 1_554 S
Zn146 O150 2.086 1_554 S
Zn146 O155 1.988 . S
O147 Zn146 2.032 1_556 S
O147 C151 1.278 . S
C148 O149 1.203 . S
C148 O155 1.277 . S
O149 C148 1.203 . S
O150 C143 1.185 1_556 S
O150 Zn146 2.086 1_556 S
C151 O147 1.278 . S
C151 O152 1.211 . S
O152 C151 1.211 . S
C153 O145 1.284 . S
C153 O154 1.273 . S
O154 C153 1.273 . S
O155 Zn146 1.988 . S
O155 C148 1.277 . S
C156 O157 1.160 . S
C156 O163 1.185 . S
O157 C156 1.160 . S
O158 Zn159 1.899 . S
O158 C166 1.284 . S
Zn159 O158 1.899 . S
Zn159 O160 2.032 . S
Zn159 O163 2.086 . S
Zn159 O168 1.977 . S
O160 Zn159 2.032 . S
O160 C164 1.278 . S
C161 O162 1.203 . S
C161 O168 1.267 . S
O162 C161 1.203 . S
O163 C156 1.185 . S
O163 Zn159 2.086 . S
C164 O160 1.278 . S
C164 O165 1.211 . S
O165 C164 1.211 . S
C166 O158 1.284 . S
C166 O167 1.273 . S
O167 C166 1.273 . S
O168 Zn159 1.977 . S
O168 C161 1.267 . S
C169 O170 1.160 . S
C169 O176 1.185 . S
O170 C169 1.160 . S
O171 Zn172 1.899 . S
O171 C179 1.284 . S
Zn172 O171 1.899 . S
Zn172 O173 2.032 . S
Zn172 O176 2.086 . S
Zn172 O181 1.977 . S
O173 Zn172 2.032 . S
O173 C177 1.278 . S
C174 O175 1.203 . S
C174 O181 1.267 . S
O175 C174 1.203 . S
O176 C169 1.185 . S
O176 Zn172 2.086 . S
C177 O173 1.278 . S
C177 O178 1.211 . S
O178 C177 1.211 . S
C179 O171 1.284 . S
C179 O180 1.273 . S
O180 C179 1.273 . S
O181 Zn172 1.977 . S
O181 C174 1.267 . S
C182 O183 1.160 . S
C182 O189 1.185 . S
O183 C182 1.160 . S
O184 Zn185 1.899 . S
O184 C192 1.284 . S
Zn185 O184 1.899 . S
Zn185 O186 2.032 . S
Zn185 O189 2.086 . S
Zn185 O194 1.977 . S
O186 Zn185 2.032 . S
O186 C190 1.278 . S
C187 O188 1.203 . S
C187 O194 1.267 . S
O188 C187 1.203 . S
O189 C182 1.185 . S
O189 Zn185 2.086 . S
C190 O186 1.278 . S
C190 O191 1.211 . S
O191 C190 1.211 . S
C192 O184 1.284 . S
C192 O193 1.273 . S
O193 C192 1.273 . S
O194 Zn185 1.977 . S
O194 C187 1.267 . S
C195 O196 1.160 . S
C195 O202 1.185 . S
O196 C195 1.160 . S
O197 Zn198 1.899 . S
O197 C205 1.284 . S
Zn198 O197 1.899 . S
Zn198 O199 2.032 . S
Zn198 O202 2.086 . S
Zn198 O207 1.977 . S
O199 Zn198 2.032 . S
O199 C203 1.278 . S
C200 O201 1.203 . S
C200 O207 1.267 . S
O201 C200 1.203 . S
O202 C195 1.185 . S
O202 Zn198 2.086 . S
C203 O199 1.278 . S
C203 O204 1.211 . S
O204 C203 1.211 . S
C205 O197 1.284 . S
C205 O206 1.273 . S
O206 C205 1.273 . S
O207 Zn198 1.977 . S
O207 C200 1.267 . S
C208 O209 1.160 . S
C208 O215 1.185 . S
O209 C208 1.160 . S
O210 Zn211 1.899 . S
O210 C218 1.284 . S
Zn211 O210 1.899 . S
Zn211 O212 2.032 . S
Zn211 O215 2.086 . S
Zn211 O220 1.977 1_545 S
O212 Zn211 2.032 . S
O212 C216 1.278 . S
C213 O214 1.203 . S
C213 O220 1.267 . S
O214 C213 1.203 . S
O215 C208 1.185 . S
O215 Zn211 2.086 . S
C216 O212 1.278 . S
C216 O217 1.211 1_545 S
O217 C216 1.211 1_565 S
C218 O210 1.284 . S
C218 O219 1.273 . S
O219 C218 1.273 . S
O220 Zn211 1.977 1_565 S
O220 C213 1.267 . S
C221 O222 1.160 . S
C221 O228 1.185 . S
O222 C221 1.160 . S
O223 Zn224 1.899 . S
O223 C231 1.284 . S
Zn224 O223 1.899 . S
Zn224 O225 2.032 . S
Zn224 O228 2.086 . S
Zn224 O233 1.977 . S
O225 Zn224 2.032 . S
O225 C229 1.278 . S
C226 O227 1.203 . S
C226 O233 1.267 . S
O227 C226 1.203 . S
O228 C221 1.185 . S
O228 Zn224 2.086 . S
C229 O225 1.278 . S
C229 O230 1.211 . S
O230 C229 1.211 . S
C231 O223 1.284 . S
C231 O232 1.273 . S
O232 C231 1.273 . S
O233 Zn224 1.977 . S
O233 C226 1.267 . S
C234 O235 1.160 . S
C234 O241 1.185 . S
O235 C234 1.160 . S
O236 Zn237 1.899 . S
O236 C244 1.284 . S
Zn237 O236 1.899 . S
Zn237 O238 2.032 . S
Zn237 O241 2.086 . S
Zn237 O246 1.977 . S
O238 Zn237 2.032 . S
O238 C242 1.278 . S
C239 O240 1.203 . S
C239 O246 1.267 . S
O240 C239 1.203 . S
O241 C234 1.185 . S
O241 Zn237 2.086 . S
C242 O238 1.278 . S
C242 O243 1.211 . S
O243 C242 1.211 . S
C244 O236 1.284 . S
C244 O245 1.273 . S
O245 C244 1.273 . S
O246 Zn237 1.977 . S
O246 C239 1.267 . S
C247 O248 1.160 . S
C247 O254 1.185 . S
O248 C247 1.160 . S
O249 Zn250 1.899 . S
O249 C257 1.284 . S
Zn250 O249 1.899 . S
Zn250 O251 2.032 . S
Zn250 O254 2.086 . S
Zn250 O259 1.977 . S
O251 Zn250 2.032 . S
O251 C255 1.278 . S
C252 O253 1.203 . S
C252 O259 1.267 . S
O253 C252 1.203 . S
O254 C247 1.185 . S
O254 Zn250 2.086 . S
C255 O251 1.278 . S
C255 O256 1.211 . S
O256 C255 1.211 . S
C257 O249 1.284 . S
C257 O258 1.273 . S
O258 C257 1.273 . S
O259 Zn250 1.977 . S
O259 C252 1.267 . S
C260 O261 1.160 . S
C260 O267 1.185 . S
O261 C260 1.160 . S
O262 Zn263 1.899 . S
O262 C270 1.284 . S
Zn263 O262 1.899 . S
Zn263 O264 2.032 1_554 S
Zn263 O267 2.086 . S
Zn263 O272 1.977 . S
O264 Zn263 2.032 1_556 S
O264 C268 1.278 . S
C265 O266 1.203 . S
C265 O272 1.267 . S
O266 C265 1.203 . S
O267 C260 1.185 . S
O267 Zn263 2.086 . S
C268 O264 1.278 . S
C268 O269 1.211 . S
O269 C268 1.211 . S
C270 O262 1.284 . S
C270 O271 1.273 . S
O271 C270 1.273 . S
O272 Zn263 1.977 . S
O272 C265 1.267 . S
C273 O274 1.160 . S
C273 O280 1.185 . S
O274 C273 1.160 . S
O275 Zn276 1.899 . S
O275 C283 1.284 . S
Zn276 O275 1.899 . S
Zn276 O277 2.032 . S
Zn276 O280 2.086 . S
Zn276 O285 1.977 . S
O277 Zn276 2.032 . S
O277 C281 1.278 . S
C278 O279 1.203 . S
C278 O285 1.267 . S
O279 C278 1.203 . S
O280 C273 1.185 . S
O280 Zn276 2.086 . S
C281 O277 1.278 . S
C281 O282 1.211 . S
O282 C281 1.211 . S
C283 O275 1.284 . S
C283 O284 1.273 . S
O284 C283 1.273 . S
O285 Zn276 1.977 . S
O285 C278 1.267 . S
C286 O287 1.160 . S
C286 O293 1.185 . S
O287 C286 1.160 . S
O288 Zn289 1.899 . S
O288 C296 1.284 . S
Zn289 O288 1.899 . S
Zn289 O290 2.032 . S
Zn289 O293 2.086 . S
Zn289 O298 1.977 . S
O290 Zn289 2.032 . S
O290 C294 1.278 . S
C291 O292 1.203 . S
C291 O298 1.267 . S
O292 C291 1.203 . S
O293 C286 1.185 . S
O293 Zn289 2.086 . S
C294 O290 1.278 . S
C294 O295 1.211 . S
O295 C294 1.211 . S
C296 O288 1.284 . S
C296 O297 1.273 . S
O297 C296 1.273 . S
O298 Zn289 1.977 . S
O298 C291 1.267 . S
C299 O300 1.160 . S
C299 O306 1.185 . S
O300 C299 1.160 . S
O301 Zn302 1.899 . S
O301 C309 1.284 . S
Zn302 O301 1.899 . S
Zn302 O303 2.032 . S
Zn302 O306 2.086 . S
Zn302 O311 1.977 . S
O303 Zn302 2.032 . S
O303 C307 1.278 . S
C304 O305 1.203 . S
C304 O311 1.267 . S
O305 C304 1.203 . S
O306 C299 1.185 . S
O306 Zn302 2.086 . S
C307 O303 1.278 . S
C307 O308 1.211 . S
O308 C307 1.211 . S
C309 O301 1.284 . S
C309 O310 1.273 . S
O310 C309 1.273 . S
O311 Zn302 1.977 . S
O311 C304 1.267 . S
Tb312 N341 2.617 . S
Tb312 N347 2.572 . S
Tb312 O356 2.465 . S
Tb312 O357 2.387 . S
Tb312 O359 2.428 . S
Tb312 O360 2.308 . S
Tb312 O364 2.314 1_545 S
Tb312 O367 2.393 . S
Tb312 C376 2.802 . S
C313 N314 1.379 . S
C313 C316 1.416 . S
C313 C320 1.409 1_556 S
N314 C313 1.379 . S
N314 C317 1.334 . S
N314 Tb323 2.617 1_566 S
C315 C317 1.390 . S
C315 C318 1.339 . S
C315 H335 0.930 . S
C316 C313 1.416 . S
C316 C318 1.416 . S
C316 C322 1.448 . S
C317 N314 1.334 . S
C317 C315 1.390 . S
C317 H328 0.930 . S
C318 C315 1.339 . S
C318 C316 1.416 . S
C318 H339 0.930 . S
C319 C320 1.418 . S
C319 C321 1.427 1_554 S
C319 C325 1.416 . S
C320 C313 1.409 1_554 S
C320 C319 1.418 . S
C320 N324 1.369 . S
C321 C319 1.427 1_556 S
C321 C322 1.328 . S
C321 H336 0.929 . S
C322 C316 1.448 . S
C322 C321 1.328 . S
C322 H337 0.930 . S
Tb323 N314 2.617 1_544 S
Tb323 N324 2.572 1_545 S
Tb323 O358 2.349 1_655 S
Tb323 O361 2.393 1_654 S
Tb323 O362 2.465 . S
Tb323 O363 2.387 1_645 S
Tb323 O365 2.428 1_554 S
Tb323 O366 2.308 1_655 S
Tb323 C387 2.802 1_554 S
N324 C320 1.369 . S
N324 Tb323 2.572 1_565 S
N324 C326 1.340 . S
C325 C319 1.416 . S
C325 C327 1.332 . S
C325 H333 0.931 . S
C326 N324 1.340 . S
C326 C327 1.407 . S
C326 H332 0.930 . S
C327 C325 1.332 . S
C327 C326 1.407 . S
C327 H329 0.929 . S
H328 C317 0.930 . S
H329 C327 0.929 . S
H330 C345 0.930 . S
H331 C352 0.929 1_556 S
H332 C326 0.930 . S
H333 C325 0.931 . S
H334 C348 0.930 1_556 S
H335 C315 0.930 . S
H336 C321 0.929 . S
H337 C322 0.930 . S
H338 C343 0.930 . S
H339 C318 0.930 . S
H340 C351 0.931 . S
N341 Tb312 2.617 . S
N341 C342 1.379 . S
N341 C345 1.334 . S
C342 N341 1.379 . S
C342 C344 1.416 . S
C342 C350 1.424 . S
C343 H338 0.930 . S
C343 C345 1.390 . S
C343 C346 1.339 . S
C344 C342 1.416 . S
C344 C346 1.416 . S
C344 C377 1.448 . S
C345 H330 0.930 . S
C345 N341 1.334 . S
C345 C343 1.390 . S
C346 C343 1.339 . S
C346 C344 1.416 . S
C346 H353 0.930 . S
N347 Tb312 2.572 . S
N347 C348 1.340 . S
N347 C350 1.361 . S
C348 H334 0.930 1_554 S
C348 N347 1.340 . S
C348 C352 1.407 . S
C349 C350 1.413 . S
C349 C351 1.416 . S
C349 C378 1.427 . S
C350 C342 1.424 . S
C350 N347 1.361 . S
C350 C349 1.413 . S
C351 H340 0.931 . S
C351 C349 1.416 . S
C351 C352 1.332 . S
C352 H331 0.929 1_554 S
C352 C348 1.407 . S
C352 C351 1.332 . S
H353 C346 0.930 . S
H354 C377 0.930 . S
H355 C378 0.929 . S
O356 Tb312 2.465 . S
O356 C376 1.264 . S
O357 Tb312 2.387 . S
O357 C368 1.264 . S
O358 Tb323 2.349 1_455 S
O358 C368 1.243 . S
O359 Tb312 2.428 . S
O359 C376 1.256 . S
O360 Tb312 2.308 . S
O360 C375 1.266 1_554 S
O361 Tb323 2.393 1_456 S
O361 C375 1.248 . S
O362 Tb323 2.465 . S
O362 C387 1.264 1_554 S
O363 Tb323 2.387 1_465 S
O363 C379 1.264 . S
O364 Tb312 2.314 1_565 S
O364 C379 1.264 . S
O365 Tb323 2.428 1_556 S
O365 C387 1.256 . S
O366 Tb323 2.308 1_455 S
O366 C386 1.266 . S
O367 Tb312 2.393 . S
O367 C386 1.248 . S
C368 O357 1.264 . S
C368 O358 1.243 . S
C369 C372 1.399 . S
C369 C374 1.383 . S
C369 C376 1.496 . S
C370 C371 1.399 . S
C370 C374 1.389 . S
C371 C370 1.399 . S
C371 C373 1.380 . S
C371 H388 0.929 1_545 S
C372 C369 1.399 . S
C372 C373 1.392 . S
C372 H389 0.929 . S
C373 C371 1.380 . S
C373 C372 1.392 . S
C373 H390 0.929 . S
C374 C369 1.383 . S
C374 C370 1.389 . S
C374 H391 0.931 . S
C375 O360 1.266 1_556 S
C375 O361 1.248 . S
C376 Tb312 2.802 . S
C376 O356 1.264 . S
C376 O359 1.256 . S
C376 C369 1.496 . S
C377 C344 1.448 . S
C377 H354 0.930 . S
C377 C378 1.328 . S
C378 C349 1.427 . S
C378 H355 0.929 . S
C378 C377 1.328 . S
C379 O363 1.264 . S
C379 O364 1.264 . S
C380 C383 1.399 . S
C380 C384 1.383 1_556 S
C380 C387 1.496 . S
C381 C382 1.399 1_554 S
C381 C384 1.389 . S
C382 C381 1.399 1_556 S
C382 C385 1.380 . S
C382 H392 0.929 . S
C383 C380 1.399 . S
C383 C385 1.392 . S
C383 H393 0.929 . S
C384 C380 1.383 1_554 S
C384 C381 1.389 . S
C384 H394 0.931 . S
C385 C382 1.380 . S
C385 C383 1.392 . S
C385 H395 0.929 . S
C386 O366 1.266 . S
C386 O367 1.248 . S
C387 Tb323 2.802 1_556 S
C387 O362 1.264 1_556 S
C387 O365 1.256 . S
C387 C380 1.496 . S
H388 C371 0.929 1_565 S
H389 C372 0.929 . S
H390 C373 0.929 . S
H391 C374 0.931 . S
H392 C382 0.929 . S
H393 C383 0.929 . S
H394 C384 0.931 . S
H395 C385 0.929 . S
Tb396 N425 2.617 . S
Tb396 N431 2.572 . S
Tb396 O440 2.465 . S
Tb396 O441 2.387 . S
Tb396 O443 2.428 . S
Tb396 O444 2.308 . S
Tb396 O448 2.349 . S
Tb396 O451 2.393 . S
Tb396 C460 2.802 . S
C397 N398 1.379 . S
C397 C400 1.416 . S
C397 C404 1.424 . S
N398 C397 1.379 . S
N398 C401 1.334 . S
N398 Tb407 2.617 . S
C399 C401 1.390 . S
C399 C402 1.339 . S
C399 H419 0.930 . S
C400 C397 1.416 . S
C400 C402 1.416 . S
C400 C406 1.448 . S
C401 N398 1.334 . S
C401 C399 1.390 . S
C401 H412 0.930 . S
C402 C399 1.339 . S
C402 C400 1.416 . S
C402 H423 0.930 . S
C403 C404 1.413 . S
C403 C405 1.427 . S
C403 C409 1.416 . S
C404 C397 1.424 . S
C404 C403 1.413 . S
C404 N408 1.361 . S
C405 C403 1.427 . S
C405 C406 1.328 . S
C405 H420 0.929 . S
C406 C400 1.448 . S
C406 C405 1.328 . S
C406 H421 0.930 . S
Tb407 N398 2.617 . S
Tb407 N408 2.572 . S
Tb407 O442 2.349 . S
Tb407 O445 2.393 . S
Tb407 O446 2.465 . S
Tb407 O447 2.387 . S
Tb407 O449 2.428 . S
Tb407 O450 2.308 . S
Tb407 C471 2.802 . S
N408 C404 1.361 . S
N408 Tb407 2.572 . S
N408 C410 1.340 . S
C409 C403 1.416 . S
C409 C411 1.332 . S
C409 H417 0.931 . S
C410 N408 1.340 . S
C410 C411 1.407 . S
C410 H416 0.930 . S
C411 C409 1.332 . S
C411 C410 1.407 . S
C411 H413 0.929 . S
H412 C401 0.930 . S
H413 C411 0.929 . S
H414 C429 0.930 . S
H415 C436 0.929 . S
H416 C410 0.930 . S
H417 C409 0.931 . S
H418 C432 0.930 . S
H419 C399 0.930 . S
H420 C405 0.929 . S
H421 C406 0.930 . S
H422 C427 0.930 . S
H423 C402 0.930 . S
H424 C435 0.931 . S
N425 Tb396 2.617 . S
N425 C426 1.379 . S
N425 C429 1.334 . S
C426 N425 1.379 . S
C426 C428 1.416 . S
C426 C434 1.424 . S
C427 H422 0.930 . S
C427 C429 1.390 . S
C427 C430 1.339 . S
C428 C426 1.416 . S
C428 C430 1.416 . S
C428 C461 1.448 . S
C429 H414 0.930 . S
C429 N425 1.334 . S
C429 C427 1.390 . S
C430 C427 1.339 . S
C430 C428 1.416 . S
C430 H437 0.930 . S
N431 Tb396 2.572 . S
N431 C432 1.340 . S
N431 C434 1.361 . S
C432 H418 0.930 . S
C432 N431 1.340 . S
C432 C436 1.407 . S
C433 C434 1.413 . S
C433 C435 1.416 . S
C433 C462 1.427 . S
C434 C426 1.424 . S
C434 N431 1.361 . S
C434 C433 1.413 . S
C435 H424 0.931 . S
C435 C433 1.416 . S
C435 C436 1.332 . S
C436 H415 0.929 . S
C436 C432 1.407 . S
C436 C435 1.332 . S
H437 C430 0.930 . S
H438 C461 0.930 . S
H439 C462 0.929 . S
O440 Tb396 2.465 . S
O440 C460 1.264 . S
O441 Tb396 2.387 . S
O441 C452 1.264 . S
O442 Tb407 2.349 . S
O442 C452 1.243 . S
O443 Tb396 2.428 . S
O443 C460 1.256 . S
O444 Tb396 2.308 . S
O444 C459 1.266 . S
O445 Tb407 2.393 . S
O445 C459 1.248 . S
O446 Tb407 2.465 . S
O446 C471 1.264 . S
O447 Tb407 2.387 . S
O447 C463 1.264 . S
O448 Tb396 2.349 . S
O448 C463 1.243 . S
O449 Tb407 2.428 . S
O449 C471 1.256 . S
O450 Tb407 2.308 . S
O450 C470 1.266 . S
O451 Tb396 2.393 . S
O451 C470 1.248 . S
C452 O441 1.264 . S
C452 O442 1.243 . S
C453 C456 1.399 . S
C453 C458 1.383 . S
C453 C460 1.496 . S
C454 C455 1.399 . S
C454 C458 1.389 . S
C455 C454 1.399 . S
C455 C457 1.380 . S
C455 H472 0.929 . S
C456 C453 1.399 . S
C456 C457 1.392 . S
C456 H473 0.929 . S
C457 C455 1.380 . S
C457 C456 1.392 . S
C457 H474 0.929 . S
C458 C453 1.383 . S
C458 C454 1.389 . S
C458 H475 0.931 . S
C459 O444 1.266 . S
C459 O445 1.248 . S
C460 Tb396 2.802 . S
C460 O440 1.264 . S
C460 O443 1.256 . S
C460 C453 1.496 . S
C461 C428 1.448 . S
C461 H438 0.930 . S
C461 C462 1.328 . S
C462 C433 1.427 . S
C462 H439 0.929 . S
C462 C461 1.328 . S
C463 O447 1.264 . S
C463 O448 1.243 . S
C464 C467 1.399 . S
C464 C468 1.383 . S
C464 C471 1.496 . S
C465 C466 1.399 . S
C465 C468 1.389 . S
C466 C465 1.399 . S
C466 C469 1.380 . S
C466 H476 0.929 . S
C467 C464 1.399 . S
C467 C469 1.392 . S
C467 H477 0.929 . S
C468 C464 1.383 . S
C468 C465 1.389 . S
C468 H478 0.931 . S
C469 C466 1.380 . S
C469 C467 1.392 . S
C469 H479 0.929 . S
C470 O450 1.266 . S
C470 O451 1.248 . S
C471 Tb407 2.802 . S
C471 O446 1.264 . S
C471 O449 1.256 . S
C471 C464 1.496 . S
H472 C455 0.929 . S
H473 C456 0.929 . S
H474 C457 0.929 . S
H475 C458 0.931 . S
H476 C466 0.929 . S
H477 C467 0.929 . S
H478 C468 0.931 . S
H479 C469 0.929 . S
Tb480 N509 2.617 . S
Tb480 N515 2.572 1_545 S
Tb480 O524 2.465 . S
Tb480 O525 2.387 1_545 S
Tb480 O527 2.428 . S
Tb480 O528 2.308 . S
Tb480 O532 2.349 . S
Tb480 O535 2.393 . S
Tb480 C544 2.802 . S
C481 N482 1.379 . S
C481 C484 1.416 . S
C481 C488 1.424 . S
N482 C481 1.379 . S
N482 C485 1.334 . S
N482 Tb491 2.617 . S
C483 C485 1.390 . S
C483 C486 1.339 . S
C483 H503 0.930 . S
C484 C481 1.416 . S
C484 C486 1.416 . S
C484 C490 1.448 . S
C485 N482 1.334 . S
C485 C483 1.390 . S
C485 H496 0.930 . S
C486 C483 1.339 . S
C486 C484 1.416 . S
C486 H507 0.930 . S
C487 C488 1.413 . S
C487 C489 1.427 . S
C487 C493 1.416 . S
C488 C481 1.424 . S
C488 C487 1.413 . S
C488 N492 1.361 . S
C489 C487 1.427 . S
C489 C490 1.328 . S
C489 H504 0.929 . S
C490 C484 1.448 . S
C490 C489 1.328 . S
C490 H505 0.930 . S
Tb491 N482 2.617 . S
Tb491 N492 2.572 . S
Tb491 O526 2.349 1_545 S
Tb491 O529 2.393 . S
Tb491 O530 2.465 . S
Tb491 O531 2.387 . S
Tb491 O533 2.428 . S
Tb491 O534 2.308 . S
Tb491 C555 2.802 . S
N492 C488 1.361 . S
N492 Tb491 2.572 . S
N492 C494 1.340 . S
C493 C487 1.416 . S
C493 C495 1.332 . S
C493 H501 0.931 . S
C494 N492 1.340 . S
C494 C495 1.407 . S
C494 H500 0.930 . S
C495 C493 1.332 . S
C495 C494 1.407 . S
C495 H497 0.929 . S
H496 C485 0.930 . S
H497 C495 0.929 . S
H498 C513 0.930 . S
H499 C520 0.929 . S
H500 C494 0.930 . S
H501 C493 0.931 . S
H502 C516 0.896 1_545 S
H503 C483 0.930 . S
H504 C489 0.929 . S
H505 C490 0.930 . S
H506 C511 0.930 . S
H507 C486 0.930 . S
H508 C519 0.931 . S
N509 Tb480 2.617 . S
N509 C510 1.379 1_545 S
N509 C513 1.334 . S
C510 N509 1.379 1_565 S
C510 C512 1.416 . S
C510 C518 1.424 . S
C511 H506 0.930 . S
C511 C513 1.390 1_565 S
C511 C514 1.339 . S
C512 C510 1.416 . S
C512 C514 1.416 . S
C512 C545 1.448 . S
C513 H498 0.930 . S
C513 N509 1.334 . S
C513 C511 1.390 1_545 S
C514 C511 1.339 . S
C514 C512 1.416 . S
C514 H521 0.930 . S
N515 Tb480 2.572 1_565 S
N515 C516 1.340 . S
N515 C518 1.361 . S
C516 H502 0.896 1_565 S
C516 N515 1.340 . S
C516 C520 1.407 . S
C517 C518 1.413 . S
C517 C519 1.416 . S
C517 C546 1.427 . S
C518 C510 1.424 . S
C518 N515 1.361 . S
C518 C517 1.413 . S
C519 H508 0.931 . S
C519 C517 1.416 . S
C519 C520 1.332 . S
C520 H499 0.929 . S
C520 C516 1.407 . S
C520 C519 1.332 . S
H521 C514 0.930 . S
H522 C545 0.930 . S
H523 C546 0.929 . S
O524 Tb480 2.465 . S
O524 C544 1.264 . S
O525 Tb480 2.387 1_565 S
O525 C536 1.264 . S
O526 Tb491 2.349 1_565 S
O526 C536 1.243 . S
O527 Tb480 2.428 . S
O527 C544 1.256 . S
O528 Tb480 2.308 . S
O528 C543 1.266 . S
O529 Tb491 2.393 . S
O529 C543 1.248 . S
O530 Tb491 2.465 . S
O530 C555 1.264 . S
O531 Tb491 2.387 . S
O531 C547 1.264 . S
O532 Tb480 2.349 . S
O532 C547 1.243 . S
O533 Tb491 2.428 . S
O533 C555 1.256 . S
O534 Tb491 2.308 . S
O534 C554 1.266 . S
O535 Tb480 2.393 . S
O535 C554 1.248 . S
C536 O525 1.264 . S
C536 O526 1.243 . S
C537 C540 1.399 . S
C537 C542 1.383 . S
C537 C544 1.496 . S
C538 C539 1.399 . S
C538 C542 1.389 . S
C539 C538 1.399 . S
C539 C541 1.380 . S
C539 H556 0.929 . S
C540 C537 1.399 . S
C540 C541 1.392 . S
C540 H557 0.929 . S
C541 C539 1.380 . S
C541 C540 1.392 . S
C541 H558 0.929 . S
C542 C537 1.383 . S
C542 C538 1.389 . S
C542 H559 0.931 . S
C543 O528 1.266 . S
C543 O529 1.248 . S
C544 Tb480 2.802 . S
C544 O524 1.264 . S
C544 O527 1.256 . S
C544 C537 1.496 . S
C545 C512 1.448 . S
C545 H522 0.930 . S
C545 C546 1.328 . S
C546 C517 1.427 . S
C546 H523 0.929 . S
C546 C545 1.328 . S
C547 O531 1.264 . S
C547 O532 1.243 . S
C548 C551 1.402 . S
C548 C552 1.391 . S
C548 C555 1.485 1_565 S
C549 C550 1.399 . S
C549 C552 1.389 . S
C550 C549 1.399 . S
C550 C553 1.380 . S
C550 H560 0.929 . S
C551 C548 1.402 . S
C551 C553 1.392 . S
C551 H561 0.929 . S
C552 C548 1.391 . S
C552 C549 1.389 . S
C552 H562 0.931 . S
C553 C550 1.380 . S
C553 C551 1.392 . S
C553 H563 0.929 . S
C554 O534 1.266 . S
C554 O535 1.248 . S
C555 Tb491 2.802 . S
C555 O530 1.264 . S
C555 O533 1.256 . S
C555 C548 1.485 1_545 S
H556 C539 0.929 . S
H557 C540 0.929 . S
H558 C541 0.929 . S
H559 C542 0.931 . S
H560 C550 0.929 . S
H561 C551 0.929 . S
H562 C552 0.931 . S
H563 C553 0.929 . S
Tb564 N593 2.617 . S
Tb564 N599 2.572 . S
Tb564 O608 2.465 . S
Tb564 O609 2.387 . S
Tb564 O611 2.428 . S
Tb564 O612 2.308 . S
Tb564 O616 2.349 . S
Tb564 O619 2.393 . S
Tb564 C628 2.802 . S
C565 N566 1.379 . S
C565 C568 1.416 . S
C565 C572 1.424 . S
N566 C565 1.379 . S
N566 C569 1.334 . S
N566 Tb575 2.617 . S
C567 C569 1.390 . S
C567 C570 1.339 . S
C567 H587 0.930 . S
C568 C565 1.416 . S
C568 C570 1.416 . S
C568 C574 1.448 . S
C569 N566 1.334 . S
C569 C567 1.390 . S
C569 H580 0.930 . S
C570 C567 1.339 . S
C570 C568 1.416 . S
C570 H591 0.930 . S
C571 C572 1.413 . S
C571 C573 1.427 . S
C571 C577 1.416 . S
C572 C565 1.424 . S
C572 C571 1.413 . S
C572 N576 1.361 . S
C573 C571 1.427 . S
C573 C574 1.328 . S
C573 H588 0.929 . S
C574 C568 1.448 . S
C574 C573 1.328 . S
C574 H589 0.930 . S
Tb575 N566 2.617 . S
Tb575 N576 2.572 . S
Tb575 O610 2.349 . S
Tb575 O613 2.393 . S
Tb575 O614 2.465 . S
Tb575 O615 2.387 . S
Tb575 O617 2.428 . S
Tb575 O618 2.308 . S
Tb575 C639 2.802 . S
N576 C572 1.361 . S
N576 Tb575 2.572 . S
N576 C578 1.340 . S
C577 C571 1.416 . S
C577 C579 1.332 . S
C577 H585 0.931 . S
C578 N576 1.340 . S
C578 C579 1.407 . S
C578 H584 0.930 . S
C579 C577 1.332 . S
C579 C578 1.407 . S
C579 H581 0.929 . S
H580 C569 0.930 . S
H581 C579 0.929 . S
H582 C597 0.930 . S
H583 C604 0.929 . S
H584 C578 0.930 . S
H585 C577 0.931 . S
H586 C600 0.930 . S
H587 C567 0.930 . S
H588 C573 0.929 . S
H589 C574 0.930 . S
H590 C595 0.930 . S
H591 C570 0.930 . S
H592 C603 0.931 . S
N593 Tb564 2.617 . S
N593 C594 1.379 . S
N593 C597 1.334 . S
C594 N593 1.379 . S
C594 C596 1.416 . S
C594 C602 1.424 . S
C595 H590 0.930 . S
C595 C597 1.390 . S
C595 C598 1.339 . S
C596 C594 1.416 . S
C596 C598 1.416 . S
C596 C629 1.448 . S
C597 H582 0.930 . S
C597 N593 1.334 . S
C597 C595 1.390 . S
C598 C595 1.339 . S
C598 C596 1.416 . S
C598 H605 0.930 . S
N599 Tb564 2.572 . S
N599 C600 1.340 . S
N599 C602 1.361 . S
C600 H586 0.930 . S
C600 N599 1.340 . S
C600 C604 1.407 . S
C601 C602 1.413 . S
C601 C603 1.416 . S
C601 C630 1.427 . S
C602 C594 1.424 . S
C602 N599 1.361 . S
C602 C601 1.413 . S
C603 H592 0.931 . S
C603 C601 1.416 . S
C603 C604 1.332 . S
C604 H583 0.929 . S
C604 C600 1.407 . S
C604 C603 1.332 . S
H605 C598 0.930 . S
H606 C629 0.930 . S
H607 C630 0.929 . S
O608 Tb564 2.465 . S
O608 C628 1.264 . S
O609 Tb564 2.387 . S
O609 C620 1.264 . S
O610 Tb575 2.349 . S
O610 C620 1.243 . S
O611 Tb564 2.428 . S
O611 C628 1.256 . S
O612 Tb564 2.308 . S
O612 C627 1.266 . S
O613 Tb575 2.393 . S
O613 C627 1.248 . S
O614 Tb575 2.465 . S
O614 C639 1.264 . S
O615 Tb575 2.387 . S
O615 C631 1.264 . S
O616 Tb564 2.349 . S
O616 C631 1.243 . S
O617 Tb575 2.428 . S
O617 C639 1.256 . S
O618 Tb575 2.308 . S
O618 C638 1.266 . S
O619 Tb564 2.393 . S
O619 C638 1.248 . S
C620 O609 1.264 . S
C620 O610 1.243 . S
C621 C624 1.399 . S
C621 C626 1.383 . S
C621 C628 1.496 . S
C622 C623 1.399 . S
C622 C626 1.389 . S
C623 C622 1.399 . S
C623 C625 1.380 . S
C623 H640 0.929 . S
C624 C621 1.399 . S
C624 C625 1.392 . S
C624 H641 0.929 . S
C625 C623 1.380 . S
C625 C624 1.392 . S
C625 H642 0.929 . S
C626 C621 1.383 . S
C626 C622 1.389 . S
C626 H643 0.931 . S
C627 O612 1.266 . S
C627 O613 1.248 . S
C628 Tb564 2.802 . S
C628 O608 1.264 . S
C628 O611 1.256 . S
C628 C621 1.496 . S
C629 C596 1.448 . S
C629 H606 0.930 . S
C629 C630 1.328 . S
C630 C601 1.427 . S
C630 H607 0.929 . S
C630 C629 1.328 . S
C631 O615 1.264 . S
C631 O616 1.243 . S
C632 C635 1.399 . S
C632 C636 1.383 . S
C632 C639 1.496 . S
C633 C634 1.399 . S
C633 C636 1.389 . S
C634 C633 1.399 . S
C634 C637 1.380 . S
C634 H644 0.929 . S
C635 C632 1.399 . S
C635 C637 1.392 . S
C635 H645 0.929 . S
C636 C632 1.383 . S
C636 C633 1.389 . S
C636 H646 0.931 . S
C637 C634 1.380 . S
C637 C635 1.392 . S
C637 H647 0.929 . S
C638 O618 1.266 . S
C638 O619 1.248 . S
C639 Tb575 2.802 . S
C639 O614 1.264 . S
C639 O617 1.256 . S
C639 C632 1.496 . S
H640 C623 0.929 . S
H641 C624 0.929 . S
H642 C625 0.929 . S
H643 C626 0.931 . S
H644 C634 0.929 . S
H645 C635 0.929 . S
H646 C636 0.931 . S
H647 C637 0.929 . S
Tb648 N677 2.605 1_545 S
Tb648 N683 2.551 1_545 S
Tb648 O692 2.438 1_545 S
Tb648 O693 2.406 . S
Tb648 O695 2.402 1_545 S
Tb648 O696 2.319 . S
Tb648 O700 2.360 . S
Tb648 O703 2.414 . S
Tb648 C712 2.772 1_545 S
C649 N650 1.379 1_455 S
C649 C652 1.416 1_455 S
C649 C656 1.424 . S
N650 C649 1.379 1_655 S
N650 C653 1.334 . S
N650 Tb659 2.617 1_655 S
C651 C653 1.390 . S
C651 C654 1.339 . S
C651 H671 0.930 . S
C652 C649 1.416 1_655 S
C652 C654 1.416 . S
C652 C658 1.448 1_655 S
C653 N650 1.334 . S
C653 C651 1.390 . S
C653 H664 0.930 . S
C654 C651 1.339 . S
C654 C652 1.416 . S
C654 H675 0.930 . S
C655 C656 1.413 . S
C655 C657 1.427 . S
C655 C661 1.416 . S
C656 C649 1.424 . S
C656 C655 1.413 . S
C656 N660 1.361 . S
C657 C655 1.427 . S
C657 C658 1.328 . S
C657 H672 0.929 . S
C658 C652 1.448 1_455 S
C658 C657 1.328 . S
C658 H673 0.930 1_455 S
Tb659 N650 2.617 1_455 S
Tb659 N660 2.572 . S
Tb659 O694 2.349 . S
Tb659 O697 2.393 1_455 S
Tb659 O698 2.465 . S
Tb659 O699 2.387 . S
Tb659 O701 2.428 1_455 S
Tb659 O702 2.308 . S
Tb659 C723 2.802 . S
N660 C656 1.361 . S
N660 Tb659 2.572 . S
N660 C662 1.340 . S
C661 C655 1.416 . S
C661 C663 1.332 . S
C661 H669 0.931 . S
C662 N660 1.340 . S
C662 C663 1.407 . S
C662 H668 0.930 . S
C663 C661 1.332 . S
C663 C662 1.407 . S
C663 H665 0.929 . S
H664 C653 0.930 . S
H665 C663 0.929 . S
H666 C681 0.930 1_545 S
H667 C688 0.929 . S
H668 C662 0.930 . S
H669 C661 0.931 . S
H670 C684 0.930 . S
H671 C651 0.930 . S
H672 C657 0.929 . S
H673 C658 0.930 1_655 S
H674 C679 0.930 . S
H675 C654 0.930 . S
H676 C687 0.931 . S
N677 Tb648 2.605 1_565 S
N677 C678 1.379 . S
N677 C681 1.334 . S
C678 N677 1.379 . S
C678 C680 1.416 . S
C678 C686 1.424 . S
C679 H674 0.930 . S
C679 C681 1.390 . S
C679 C682 1.339 . S
C680 C678 1.416 . S
C680 C682 1.416 . S
C680 C713 1.448 . S
C681 H666 0.930 1_565 S
C681 N677 1.334 . S
C681 C679 1.390 . S
C682 C679 1.339 . S
C682 C680 1.416 . S
C682 H689 0.930 . S
N683 Tb648 2.551 1_565 S
N683 C684 1.340 1_455 S
N683 C686 1.361 . S
C684 H670 0.930 . S
C684 N683 1.340 1_655 S
C684 C688 1.407 . S
C685 C686 1.413 . S
C685 C687 1.416 1_455 S
C685 C714 1.427 . S
C686 C678 1.424 . S
C686 N683 1.361 . S
C686 C685 1.413 . S
C687 H676 0.931 . S
C687 C685 1.416 1_655 S
C687 C688 1.332 . S
C688 H667 0.929 . S
C688 C684 1.407 . S
C688 C687 1.332 . S
H689 C682 0.930 . S
H690 C713 0.930 . S
H691 C714 0.929 . S
O692 Tb648 2.438 1_565 S
O692 C712 1.264 . S
O693 Tb648 2.406 . S
O693 C704 1.264 . S
O694 Tb659 2.349 . S
O694 C704 1.243 . S
O695 Tb648 2.402 1_565 S
O695 C712 1.256 . S
O696 Tb648 2.319 . S
O696 C711 1.266 1_455 S
O697 Tb659 2.393 1_655 S
O697 C711 1.248 . S
O698 Tb659 2.465 . S
O698 C723 1.264 . S
O699 Tb659 2.387 . S
O699 C715 1.264 . S
O700 Tb648 2.360 . S
O700 C715 1.243 . S
O701 Tb659 2.428 1_655 S
O701 C723 1.256 1_655 S
O702 Tb659 2.308 . S
O702 C722 1.266 . S
O703 Tb648 2.414 . S
O703 C722 1.248 . S
C704 O693 1.264 . S
C704 O694 1.243 . S
C705 C708 1.399 . S
C705 C710 1.383 . S
C705 C712 1.496 . S
C706 C707 1.399 . S
C706 C710 1.389 . S
C707 C706 1.399 . S
C707 C709 1.380 . S
C707 H724 0.929 . S
C708 C705 1.399 . S
C708 C709 1.392 . S
C708 H725 0.929 . S
C709 C707 1.380 . S
C709 C708 1.392 . S
C709 H726 0.929 . S
C710 C705 1.383 . S
C710 C706 1.389 . S
C710 H727 0.931 . S
C711 O696 1.266 1_655 S
C711 O697 1.248 . S
C712 Tb648 2.772 1_565 S
C712 O692 1.264 . S
C712 O695 1.256 . S
C712 C705 1.496 . S
C713 C680 1.448 . S
C713 H690 0.930 . S
C713 C714 1.328 . S
C714 C685 1.427 . S
C714 H691 0.929 . S
C714 C713 1.328 . S
C715 O699 1.264 . S
C715 O700 1.243 . S
C716 C719 1.399 1_455 S
C716 C720 1.383 . S
C716 C723 1.496 . S
C717 C718 1.399 1_455 S
C717 C720 1.389 . S
C718 C717 1.399 1_655 S
C718 C721 1.380 . S
C718 H728 0.929 . S
C719 C716 1.399 1_655 S
C719 C721 1.392 . S
C719 H729 0.929 . S
C720 C716 1.383 . S
C720 C717 1.389 . S
C720 H730 0.931 . S
C721 C718 1.380 . S
C721 C719 1.392 . S
C721 H731 0.929 . S
C722 O702 1.266 . S
C722 O703 1.248 . S
C723 Tb659 2.802 . S
C723 O698 1.264 . S
C723 O701 1.256 1_455 S
C723 C716 1.496 . S
H724 C707 0.929 . S
H725 C708 0.929 . S
H726 C709 0.929 . S
H727 C710 0.931 . S
H728 C718 0.929 . S
H729 C719 0.929 . S
H730 C720 0.931 . S
H731 C721 0.929 . S
Tb732 N761 2.617 . S
Tb732 N767 2.572 . S
Tb732 O776 2.465 . S
Tb732 O777 2.387 . S
Tb732 O779 2.428 . S
Tb732 O780 2.308 . S
Tb732 O784 2.349 . S
Tb732 O787 2.393 . S
Tb732 C796 2.802 . S
C733 N734 1.379 . S
C733 C736 1.416 . S
C733 C740 1.424 . S
N734 C733 1.379 . S
N734 C737 1.334 . S
N734 Tb743 2.617 . S
C735 C737 1.390 . S
C735 C738 1.339 . S
C735 H755 0.930 . S
C736 C733 1.416 . S
C736 C738 1.416 . S
C736 C742 1.448 . S
C737 N734 1.334 . S
C737 C735 1.390 . S
C737 H748 0.930 . S
C738 C735 1.339 . S
C738 C736 1.416 . S
C738 H759 0.930 . S
C739 C740 1.413 . S
C739 C741 1.427 . S
C739 C745 1.416 . S
C740 C733 1.424 . S
C740 C739 1.413 . S
C740 N744 1.361 . S
C741 C739 1.427 . S
C741 C742 1.328 . S
C741 H756 0.929 . S
C742 C736 1.448 . S
C742 C741 1.328 . S
C742 H757 0.930 . S
Tb743 N734 2.617 . S
Tb743 N744 2.572 . S
Tb743 O778 2.349 . S
Tb743 O781 2.393 . S
Tb743 O782 2.465 . S
Tb743 O783 2.387 . S
Tb743 O785 2.428 . S
Tb743 O786 2.308 . S
Tb743 C807 2.802 . S
N744 C740 1.361 . S
N744 Tb743 2.572 . S
N744 C746 1.340 . S
C745 C739 1.416 . S
C745 C747 1.332 . S
C745 H753 0.931 . S
C746 N744 1.340 . S
C746 C747 1.407 . S
C746 H752 0.930 . S
C747 C745 1.332 . S
C747 C746 1.407 . S
C747 H749 0.929 . S
H748 C737 0.930 . S
H749 C747 0.929 . S
H750 C765 0.930 . S
H751 C772 0.929 . S
H752 C746 0.930 . S
H753 C745 0.931 . S
H754 C768 0.930 . S
H755 C735 0.930 . S
H756 C741 0.929 . S
H757 C742 0.930 . S
H758 C763 0.930 . S
H759 C738 0.930 . S
H760 C771 0.931 . S
N761 Tb732 2.617 . S
N761 C762 1.379 . S
N761 C765 1.334 . S
C762 N761 1.379 . S
C762 C764 1.416 . S
C762 C770 1.424 . S
C763 H758 0.930 . S
C763 C765 1.390 . S
C763 C766 1.339 . S
C764 C762 1.416 . S
C764 C766 1.416 . S
C764 C797 1.448 . S
C765 H750 0.930 . S
C765 N761 1.334 . S
C765 C763 1.390 . S
C766 C763 1.339 . S
C766 C764 1.416 . S
C766 H773 0.930 . S
N767 Tb732 2.572 . S
N767 C768 1.340 . S
N767 C770 1.361 . S
C768 H754 0.930 . S
C768 N767 1.340 . S
C768 C772 1.407 . S
C769 C770 1.413 . S
C769 C771 1.416 . S
C769 C798 1.427 . S
C770 C762 1.424 . S
C770 N767 1.361 . S
C770 C769 1.413 . S
C771 H760 0.931 . S
C771 C769 1.416 . S
C771 C772 1.332 . S
C772 H751 0.929 . S
C772 C768 1.407 . S
C772 C771 1.332 . S
H773 C766 0.930 . S
H774 C797 0.930 . S
H775 C798 0.929 . S
O776 Tb732 2.465 . S
O776 C796 1.264 . S
O777 Tb732 2.387 . S
O777 C788 1.264 . S
O778 Tb743 2.349 . S
O778 C788 1.243 . S
O779 Tb732 2.428 . S
O779 C796 1.256 . S
O780 Tb732 2.308 . S
O780 C795 1.266 . S
O781 Tb743 2.393 . S
O781 C795 1.248 . S
O782 Tb743 2.465 . S
O782 C807 1.264 . S
O783 Tb743 2.387 . S
O783 C799 1.264 . S
O784 Tb732 2.349 . S
O784 C799 1.243 . S
O785 Tb743 2.428 . S
O785 C807 1.256 . S
O786 Tb743 2.308 . S
O786 C806 1.266 . S
O787 Tb732 2.393 . S
O787 C806 1.248 . S
C788 O777 1.264 . S
C788 O778 1.243 . S
C789 C792 1.399 . S
C789 C794 1.383 . S
C789 C796 1.496 . S
C790 C791 1.399 . S
C790 C794 1.389 . S
C791 C790 1.399 . S
C791 C793 1.380 . S
C791 H808 0.929 . S
C792 C789 1.399 . S
C792 C793 1.392 . S
C792 H809 0.929 . S
C793 C791 1.380 . S
C793 C792 1.392 . S
C793 H810 0.929 . S
C794 C789 1.383 . S
C794 C790 1.389 . S
C794 H811 0.931 . S
C795 O780 1.266 . S
C795 O781 1.248 . S
C796 Tb732 2.802 . S
C796 O776 1.264 . S
C796 O779 1.256 . S
C796 C789 1.496 . S
C797 C764 1.448 . S
C797 H774 0.930 . S
C797 C798 1.328 . S
C798 C769 1.427 . S
C798 H775 0.929 . S
C798 C797 1.328 . S
C799 O783 1.264 . S
C799 O784 1.243 . S
C800 C803 1.399 . S
C800 C804 1.383 . S
C800 C807 1.496 . S
C801 C802 1.399 . S
C801 C804 1.389 . S
C802 C801 1.399 . S
C802 C805 1.380 . S
C802 H812 0.929 . S
C803 C800 1.399 . S
C803 C805 1.392 . S
C803 H813 0.929 . S
C804 C800 1.383 . S
C804 C801 1.389 . S
C804 H814 0.931 . S
C805 C802 1.380 . S
C805 C803 1.392 . S
C805 H815 0.929 . S
C806 O786 1.266 . S
C806 O787 1.248 . S
C807 Tb743 2.802 . S
C807 O782 1.264 . S
C807 O785 1.256 . S
C807 C800 1.496 . S
H808 C791 0.929 . S
H809 C792 0.929 . S
H810 C793 0.929 . S
H811 C794 0.931 . S
H812 C802 0.929 . S
H813 C803 0.929 . S
H814 C804 0.931 . S
H815 C805 0.929 . S
Tb816 N845 2.624 . S
Tb816 N851 2.587 . S
Tb816 O860 2.483 . S
Tb816 O861 2.376 1_556 S
Tb816 O863 2.442 . S
Tb816 O864 2.304 1_556 S
Tb816 O868 2.341 1_556 S
Tb816 O871 2.377 1_556 S
Tb816 C880 2.820 . S
C817 N818 1.379 . S
C817 C820 1.416 . S
C817 C824 1.424 1_565 S
N818 C817 1.379 . S
N818 C821 1.334 . S
N818 Tb827 2.617 1_565 S
C819 C821 1.390 . S
C819 C822 1.339 . S
C819 H839 0.930 . S
C820 C817 1.416 . S
C820 C822 1.416 . S
C820 C826 1.448 . S
C821 N818 1.334 . S
C821 C819 1.390 . S
C821 H832 0.930 . S
C822 C819 1.339 . S
C822 C820 1.416 . S
C822 H843 0.930 . S
C823 C824 1.413 . S
C823 C825 1.427 . S
C823 C829 1.416 . S
C824 C817 1.424 1_545 S
C824 C823 1.413 . S
C824 N828 1.361 . S
C825 C823 1.427 . S
C825 C826 1.328 1_545 S
C825 H840 0.929 . S
C826 C820 1.448 . S
C826 C825 1.328 1_565 S
C826 H841 0.930 . S
Tb827 N818 2.617 1_545 S
Tb827 N828 2.572 . S
Tb827 O862 2.349 . S
Tb827 O865 2.393 1_545 S
Tb827 O866 2.465 . S
Tb827 O867 2.387 . S
Tb827 O869 2.428 1_545 S
Tb827 O870 2.308 . S
Tb827 C891 2.802 1_545 S
N828 C824 1.361 . S
N828 Tb827 2.572 . S
N828 C830 1.340 . S
C829 C823 1.416 . S
C829 C831 1.332 . S
C829 H837 0.931 . S
C830 N828 1.340 . S
C830 C831 1.407 . S
C830 H836 0.930 . S
C831 C829 1.332 . S
C831 C830 1.407 . S
C831 H833 0.929 . S
H832 C821 0.930 . S
H833 C831 0.929 . S
H834 C849 0.930 1_554 S
H835 C856 0.929 . S
H836 C830 0.930 . S
H837 C829 0.931 . S
H838 C852 0.930 1_565 S
H839 C819 0.930 . S
H840 C825 0.929 . S
H841 C826 0.930 . S
H842 C847 0.930 . S
H843 C822 0.930 . S
H844 C855 0.931 1_565 S
N845 Tb816 2.624 . S
N845 C846 1.379 . S
N845 C849 1.334 . S
C846 N845 1.379 . S
C846 C848 1.416 . S
C846 C854 1.424 . S
C847 H842 0.930 . S
C847 C849 1.390 . S
C847 C850 1.339 . S
C848 C846 1.416 . S
C848 C850 1.416 . S
C848 C881 1.448 . S
C849 H834 0.930 1_556 S
C849 N845 1.334 . S
C849 C847 1.390 . S
C850 C847 1.339 . S
C850 C848 1.416 . S
C850 H857 0.930 . S
N851 Tb816 2.587 . S
N851 C852 1.340 . S
N851 C854 1.361 . S
C852 H838 0.930 1_545 S
C852 N851 1.340 . S
C852 C856 1.407 1_545 S
C853 C854 1.413 . S
C853 C855 1.416 . S
C853 C882 1.427 . S
C854 C846 1.424 . S
C854 N851 1.361 . S
C854 C853 1.413 . S
C855 H844 0.931 1_545 S
C855 C853 1.416 . S
C855 C856 1.332 1_545 S
C856 H835 0.929 . S
C856 C852 1.407 1_565 S
C856 C855 1.332 1_565 S
H857 C850 0.930 . S
H858 C881 0.930 . S
H859 C882 0.929 . S
O860 Tb816 2.483 . S
O860 C880 1.264 . S
O861 Tb816 2.376 1_554 S
O861 C872 1.264 . S
O862 Tb827 2.349 . S
O862 C872 1.243 . S
O863 Tb816 2.442 . S
O863 C880 1.256 . S
O864 Tb816 2.304 1_554 S
O864 C879 1.266 1_545 S
O865 Tb827 2.393 1_565 S
O865 C879 1.248 . S
O866 Tb827 2.465 . S
O866 C891 1.264 1_545 S
O867 Tb827 2.387 . S
O867 C883 1.264 . S
O868 Tb816 2.341 1_554 S
O868 C883 1.243 . S
O869 Tb827 2.428 1_565 S
O869 C891 1.256 . S
O870 Tb827 2.308 . S
O870 C890 1.266 . S
O871 Tb816 2.377 1_554 S
O871 C890 1.248 . S
C872 O861 1.264 . S
C872 O862 1.243 . S
C873 C876 1.399 . S
C873 C878 1.383 . S
C873 C880 1.496 . S
C874 C875 1.399 . S
C874 C878 1.389 . S
C875 C874 1.399 . S
C875 C877 1.380 . S
C875 H892 0.929 . S
C876 C873 1.399 . S
C876 C877 1.392 . S
C876 H893 0.929 . S
C877 C875 1.380 . S
C877 C876 1.392 . S
C877 H894 0.929 . S
C878 C873 1.383 . S
C878 C874 1.389 . S
C878 H895 0.931 . S
C879 O864 1.266 1_565 S
C879 O865 1.248 . S
C880 Tb816 2.820 . S
C880 O860 1.264 . S
C880 O863 1.256 . S
C880 C873 1.496 . S
C881 C848 1.448 . S
C881 H858 0.930 . S
C881 C882 1.328 . S
C882 C853 1.427 . S
C882 H859 0.929 . S
C882 C881 1.328 . S
C883 O867 1.264 . S
C883 O868 1.243 . S
C884 C887 1.399 . S
C884 C888 1.383 1_565 S
C884 C891 1.496 . S
C885 C886 1.396 1_545 S
C885 C888 1.390 . S
C886 C885 1.396 1_565 S
C886 C889 1.380 . S
C886 H896 0.929 . S
C887 C884 1.399 . S
C887 C889 1.392 . S
C887 H897 0.929 . S
C888 C884 1.383 1_545 S
C888 C885 1.390 . S
C888 H898 0.931 . S
C889 C886 1.380 . S
C889 C887 1.392 . S
C889 H899 0.929 . S
C890 O870 1.266 . S
C890 O871 1.248 . S
C891 Tb827 2.802 1_565 S
C891 O866 1.264 1_565 S
C891 O869 1.256 . S
C891 C884 1.496 . S
H892 C875 0.929 . S
H893 C876 0.929 . S
H894 C877 0.929 . S
H895 C878 0.931 . S
H896 C886 0.929 . S
H897 C887 0.929 . S
H898 C888 0.931 . S
H899 C889 0.929 . S
Tb900 N929 2.617 . S
Tb900 N935 2.572 . S
Tb900 O944 2.465 . S
Tb900 O945 2.387 . S
Tb900 O947 2.428 . S
Tb900 O948 2.308 . S
Tb900 O952 2.349 . S
Tb900 O955 2.393 . S
Tb900 C964 2.802 . S
C901 N902 1.379 . S
C901 C904 1.416 . S
C901 C908 1.424 . S
N902 C901 1.379 . S
N902 C905 1.334 . S
N902 Tb911 2.617 . S
C903 C905 1.390 . S
C903 C906 1.339 . S
C903 H923 0.930 . S
C904 C901 1.416 . S
C904 C906 1.416 . S
C904 C910 1.448 . S
C905 N902 1.334 . S
C905 C903 1.390 . S
C905 H916 0.930 . S
C906 C903 1.339 . S
C906 C904 1.416 . S
C906 H927 0.930 . S
C907 C908 1.413 . S
C907 C909 1.427 . S
C907 C913 1.416 . S
C908 C901 1.424 . S
C908 C907 1.413 . S
C908 N912 1.361 . S
C909 C907 1.427 . S
C909 C910 1.328 . S
C909 H924 0.929 . S
C910 C904 1.448 . S
C910 C909 1.328 . S
C910 H925 0.930 . S
Tb911 N902 2.617 . S
Tb911 N912 2.572 . S
Tb911 O946 2.349 . S
Tb911 O949 2.393 . S
Tb911 O950 2.465 . S
Tb911 O951 2.387 . S
Tb911 O953 2.428 . S
Tb911 O954 2.308 . S
Tb911 C975 2.802 . S
N912 C908 1.361 . S
N912 Tb911 2.572 . S
N912 C914 1.340 . S
C913 C907 1.416 . S
C913 C915 1.332 . S
C913 H921 0.931 . S
C914 N912 1.340 . S
C914 C915 1.407 . S
C914 H920 0.930 . S
C915 C913 1.332 . S
C915 C914 1.407 . S
C915 H917 0.929 . S
H916 C905 0.930 . S
H917 C915 0.929 . S
H918 C933 0.930 . S
H919 C940 0.929 . S
H920 C914 0.930 . S
H921 C913 0.931 . S
H922 C936 0.930 . S
H923 C903 0.930 . S
H924 C909 0.929 . S
H925 C910 0.930 . S
H926 C931 0.930 . S
H927 C906 0.930 . S
H928 C939 0.931 . S
N929 Tb900 2.617 . S
N929 C930 1.379 . S
N929 C933 1.334 . S
C930 N929 1.379 . S
C930 C932 1.416 . S
C930 C938 1.424 . S
C931 H926 0.930 . S
C931 C933 1.390 . S
C931 C934 1.339 . S
C932 C930 1.416 . S
C932 C934 1.416 . S
C932 C965 1.448 . S
C933 H918 0.930 . S
C933 N929 1.334 . S
C933 C931 1.390 . S
C934 C931 1.339 . S
C934 C932 1.416 . S
C934 H941 0.930 . S
N935 Tb900 2.572 . S
N935 C936 1.340 . S
N935 C938 1.361 . S
C936 H922 0.930 . S
C936 N935 1.340 . S
C936 C940 1.407 . S
C937 C938 1.413 . S
C937 C939 1.416 . S
C937 C966 1.427 . S
C938 C930 1.424 . S
C938 N935 1.361 . S
C938 C937 1.413 . S
C939 H928 0.931 . S
C939 C937 1.416 . S
C939 C940 1.332 . S
C940 H919 0.929 . S
C940 C936 1.407 . S
C940 C939 1.332 . S
H941 C934 0.930 . S
H942 C965 0.930 . S
H943 C966 0.929 . S
O944 Tb900 2.465 . S
O944 C964 1.264 . S
O945 Tb900 2.387 . S
O945 C956 1.264 . S
O946 Tb911 2.349 . S
O946 C956 1.243 . S
O947 Tb900 2.428 . S
O947 C964 1.256 . S
O948 Tb900 2.308 . S
O948 C963 1.266 . S
O949 Tb911 2.393 . S
O949 C963 1.248 . S
O950 Tb911 2.465 . S
O950 C975 1.264 . S
O951 Tb911 2.387 . S
O951 C967 1.264 . S
O952 Tb900 2.349 . S
O952 C967 1.243 . S
O953 Tb911 2.428 . S
O953 C975 1.256 . S
O954 Tb911 2.308 . S
O954 C974 1.266 . S
O955 Tb900 2.393 . S
O955 C974 1.248 . S
C956 O945 1.264 . S
C956 O946 1.243 . S
C957 C960 1.399 . S
C957 C962 1.383 . S
C957 C964 1.496 . S
C958 C959 1.399 . S
C958 C962 1.389 . S
C959 C958 1.399 . S
C959 C961 1.380 . S
C959 H976 0.929 . S
C960 C957 1.399 . S
C960 C961 1.392 . S
C960 H977 0.929 . S
C961 C959 1.380 . S
C961 C960 1.392 . S
C961 H978 0.929 . S
C962 C957 1.383 . S
C962 C958 1.389 . S
C962 H979 0.931 . S
C963 O948 1.266 . S
C963 O949 1.248 . S
C964 Tb900 2.802 . S
C964 O944 1.264 . S
C964 O947 1.256 . S
C964 C957 1.496 . S
C965 C932 1.448 . S
C965 H942 0.930 . S
C965 C966 1.328 . S
C966 C937 1.427 . S
C966 H943 0.929 . S
C966 C965 1.328 . S
C967 O951 1.264 . S
C967 O952 1.243 . S
C968 C971 1.399 . S
C968 C972 1.383 . S
C968 C975 1.496 . S
C969 C970 1.399 . S
C969 C972 1.389 . S
C970 C969 1.399 . S
C970 C973 1.380 . S
C970 H980 0.929 . S
C971 C968 1.399 . S
C971 C973 1.392 . S
C971 H981 0.929 . S
C972 C968 1.383 . S
C972 C969 1.389 . S
C972 H982 0.931 . S
C973 C970 1.380 . S
C973 C971 1.392 . S
C973 H983 0.929 . S
C974 O954 1.266 . S
C974 O955 1.248 . S
C975 Tb911 2.802 . S
C975 O950 1.264 . S
C975 O953 1.256 . S
C975 C968 1.496 . S
H976 C959 0.929 . S
H977 C960 0.929 . S
H978 C961 0.929 . S
H979 C962 0.931 . S
H980 C970 0.929 . S
H981 C971 0.929 . S
H982 C972 0.931 . S
H983 C973 0.929 . S
Tb984 N1013 2.617 1_554 S
Tb984 N1019 2.572 1_554 S
Tb984 O1028 2.465 . S
Tb984 O1029 2.387 1_554 S
Tb984 O1031 2.428 . S
Tb984 O1032 2.308 . S
Tb984 O1036 2.349 . S
Tb984 O1039 2.393 . S
Tb984 C1048 2.802 . S
C985 N986 1.379 . S
C985 C988 1.416 . S
C985 C992 1.424 . S
N986 C985 1.379 . S
N986 C989 1.334 . S
N986 Tb995 2.617 . S
C987 C989 1.390 . S
C987 C990 1.339 . S
C987 H1007 0.930 . S
C988 C985 1.416 . S
C988 C990 1.416 . S
C988 C994 1.448 . S
C989 N986 1.334 . S
C989 C987 1.390 . S
C989 H1000 0.930 . S
C990 C987 1.339 . S
C990 C988 1.416 . S
C990 H1011 0.930 . S
C991 C992 1.413 . S
C991 C993 1.427 . S
C991 C997 1.416 . S
C992 C985 1.424 . S
C992 C991 1.413 . S
C992 N996 1.361 . S
C993 C991 1.427 . S
C993 C994 1.328 . S
C993 H1008 0.929 . S
C994 C988 1.448 . S
C994 C993 1.328 . S
C994 H1009 0.930 . S
Tb995 N986 2.617 . S
Tb995 N996 2.572 . S
Tb995 O1030 2.349 1_554 S
Tb995 O1033 2.393 . S
Tb995 O1034 2.465 . S
Tb995 O1035 2.387 . S
Tb995 O1037 2.428 . S
Tb995 O1038 2.308 . S
Tb995 C1059 2.802 . S
N996 C992 1.361 . S
N996 Tb995 2.572 . S
N996 C998 1.340 . S
C997 C991 1.416 . S
C997 C999 1.332 . S
C997 H1005 0.931 . S
C998 N996 1.340 . S
C998 C999 1.407 . S
C998 H1004 0.930 . S
C999 C997 1.332 . S
C999 C998 1.407 . S
C999 H1001 0.929 . S
H1000 C989 0.930 . S
H1001 C999 0.929 . S
H1002 C1017 0.930 1_554 S
H1003 C1024 0.929 . S
H1004 C998 0.930 . S
H1005 C997 0.931 . S
H1006 C1020 0.930 1_554 S
H1007 C987 0.930 . S
H1008 C993 0.929 . S
H1009 C994 0.930 . S
H1010 C1015 0.930 . S
H1011 C990 0.930 . S
H1012 C1023 0.931 . S
N1013 Tb984 2.617 1_556 S
N1013 C1014 1.379 . S
N1013 C1017 1.334 . S
C1014 N1013 1.379 . S
C1014 C1016 1.416 . S
C1014 C1022 1.424 . S
C1015 H1010 0.930 . S
C1015 C1017 1.390 . S
C1015 C1018 1.339 . S
C1016 C1014 1.416 . S
C1016 C1018 1.416 . S
C1016 C1049 1.448 . S
C1017 H1002 0.930 1_556 S
C1017 N1013 1.334 . S
C1017 C1015 1.390 . S
C1018 C1015 1.339 . S
C1018 C1016 1.416 . S
C1018 H1025 0.930 . S
N1019 Tb984 2.572 1_556 S
N1019 C1020 1.340 . S
N1019 C1022 1.361 . S
C1020 H1006 0.930 1_556 S
C1020 N1019 1.340 . S
C1020 C1024 1.407 . S
C1021 C1022 1.413 . S
C1021 C1023 1.416 . S
C1021 C1050 1.427 . S
C1022 C1014 1.424 . S
C1022 N1019 1.361 . S
C1022 C1021 1.413 . S
C1023 H1012 0.931 . S
C1023 C1021 1.416 . S
C1023 C1024 1.332 . S
C1024 H1003 0.929 . S
C1024 C1020 1.407 . S
C1024 C1023 1.332 . S
H1025 C1018 0.930 . S
H1026 C1049 0.930 . S
H1027 C1050 0.929 . S
O1028 Tb984 2.465 . S
O1028 C1048 1.264 . S
O1029 Tb984 2.387 1_556 S
O1029 C1040 1.264 . S
O1030 Tb995 2.349 1_556 S
O1030 C1040 1.243 . S
O1031 Tb984 2.428 . S
O1031 C1048 1.256 . S
O1032 Tb984 2.308 . S
O1032 C1047 1.266 . S
O1033 Tb995 2.393 . S
O1033 C1047 1.248 . S
O1034 Tb995 2.465 . S
O1034 C1059 1.264 . S
O1035 Tb995 2.387 . S
O1035 C1051 1.264 . S
O1036 Tb984 2.349 . S
O1036 C1051 1.243 . S
O1037 Tb995 2.428 . S
O1037 C1059 1.256 . S
O1038 Tb995 2.308 . S
O1038 C1058 1.266 . S
O1039 Tb984 2.393 . S
O1039 C1058 1.248 . S
C1040 O1029 1.264 . S
C1040 O1030 1.243 . S
C1041 C1044 1.399 . S
C1041 C1046 1.383 . S
C1041 C1048 1.496 . S
C1042 C1043 1.399 . S
C1042 C1046 1.389 . S
C1043 C1042 1.399 . S
C1043 C1045 1.380 . S
C1043 H1060 0.929 . S
C1044 C1041 1.399 . S
C1044 C1045 1.392 . S
C1044 H1061 0.929 . S
C1045 C1043 1.380 . S
C1045 C1044 1.392 . S
C1045 H1062 0.929 . S
C1046 C1041 1.383 . S
C1046 C1042 1.389 . S
C1046 H1063 0.931 . S
C1047 O1032 1.266 . S
C1047 O1033 1.248 . S
C1048 Tb984 2.802 . S
C1048 O1028 1.264 . S
C1048 O1031 1.256 . S
C1048 C1041 1.496 . S
C1049 C1016 1.448 . S
C1049 H1026 0.930 . S
C1049 C1050 1.328 . S
C1050 C1021 1.427 . S
C1050 H1027 0.929 . S
C1050 C1049 1.328 . S
C1051 O1035 1.264 . S
C1051 O1036 1.243 . S
C1052 C1055 1.399 . S
C1052 C1056 1.383 . S
C1052 C1059 1.496 1_556 S
C1053 C1054 1.399 . S
C1053 C1056 1.389 . S
C1054 C1053 1.399 . S
C1054 C1057 1.380 . S
C1054 H1064 0.929 . S
C1055 C1052 1.399 . S
C1055 C1057 1.392 . S
C1055 H1065 0.929 1_556 S
C1056 C1052 1.383 . S
C1056 C1053 1.389 . S
C1056 H1066 0.931 . S
C1057 C1054 1.380 . S
C1057 C1055 1.392 . S
C1057 H1067 0.929 . S
C1058 O1038 1.266 . S
C1058 O1039 1.248 . S
C1059 Tb995 2.802 . S
C1059 O1034 1.264 . S
C1059 O1037 1.256 . S
C1059 C1052 1.496 1_554 S
H1060 C1043 0.929 . S
H1061 C1044 0.929 . S
H1062 C1045 0.929 . S
H1063 C1046 0.931 . S
H1064 C1054 0.929 . S
H1065 C1055 0.929 1_554 S
H1066 C1056 0.931 . S
H1067 C1057 0.929 . S
Tb1068 N1097 2.617 . S
Tb1068 N1103 2.572 . S
Tb1068 O1112 2.465 . S
Tb1068 O1113 2.387 . S
Tb1068 O1115 2.428 . S
Tb1068 O1116 2.308 . S
Tb1068 O1120 2.349 . S
Tb1068 O1123 2.393 . S
Tb1068 C1132 2.802 . S
C1069 N1070 1.379 . S
C1069 C1072 1.416 . S
C1069 C1076 1.424 . S
N1070 C1069 1.379 . S
N1070 C1073 1.334 . S
N1070 Tb1079 2.617 . S
C1071 C1073 1.390 . S
C1071 C1074 1.339 . S
C1071 H1091 0.930 . S
C1072 C1069 1.416 . S
C1072 C1074 1.416 . S
C1072 C1078 1.448 . S
C1073 N1070 1.334 . S
C1073 C1071 1.390 . S
C1073 H1084 0.930 . S
C1074 C1071 1.339 . S
C1074 C1072 1.416 . S
C1074 H1095 0.930 . S
C1075 C1076 1.413 . S
C1075 C1077 1.427 . S
C1075 C1081 1.416 . S
C1076 C1069 1.424 . S
C1076 C1075 1.413 . S
C1076 N1080 1.361 . S
C1077 C1075 1.427 . S
C1077 C1078 1.328 . S
C1077 H1092 0.929 . S
C1078 C1072 1.448 . S
C1078 C1077 1.328 . S
C1078 H1093 0.930 . S
Tb1079 N1070 2.617 . S
Tb1079 N1080 2.572 . S
Tb1079 O1114 2.349 . S
Tb1079 O1117 2.393 . S
Tb1079 O1118 2.465 . S
Tb1079 O1119 2.387 . S
Tb1079 O1121 2.428 . S
Tb1079 O1122 2.308 . S
Tb1079 C1143 2.802 . S
N1080 C1076 1.361 . S
N1080 Tb1079 2.572 . S
N1080 C1082 1.340 . S
C1081 C1075 1.416 . S
C1081 C1083 1.332 . S
C1081 H1089 0.931 . S
C1082 N1080 1.340 . S
C1082 C1083 1.407 . S
C1082 H1088 0.930 . S
C1083 C1081 1.332 . S
C1083 C1082 1.407 . S
C1083 H1085 0.929 . S
H1084 C1073 0.930 . S
H1085 C1083 0.929 . S
H1086 C1101 0.930 . S
H1087 C1108 0.929 . S
H1088 C1082 0.930 . S
H1089 C1081 0.931 . S
H1090 C1104 0.930 . S
H1091 C1071 0.930 . S
H1092 C1077 0.929 . S
H1093 C1078 0.930 . S
H1094 C1099 0.930 . S
H1095 C1074 0.930 . S
H1096 C1107 0.931 . S
N1097 Tb1068 2.617 . S
N1097 C1098 1.379 . S
N1097 C1101 1.334 . S
C1098 N1097 1.379 . S
C1098 C1100 1.416 . S
C1098 C1106 1.424 . S
C1099 H1094 0.930 . S
C1099 C1101 1.390 . S
C1099 C1102 1.339 . S
C1100 C1098 1.416 . S
C1100 C1102 1.416 . S
C1100 C1133 1.448 . S
C1101 H1086 0.930 . S
C1101 N1097 1.334 . S
C1101 C1099 1.390 . S
C1102 C1099 1.339 . S
C1102 C1100 1.416 . S
C1102 H1109 0.930 . S
N1103 Tb1068 2.572 . S
N1103 C1104 1.340 . S
N1103 C1106 1.361 . S
C1104 H1090 0.930 . S
C1104 N1103 1.340 . S
C1104 C1108 1.407 . S
C1105 C1106 1.413 . S
C1105 C1107 1.416 . S
C1105 C1134 1.427 . S
C1106 C1098 1.424 . S
C1106 N1103 1.361 . S
C1106 C1105 1.413 . S
C1107 H1096 0.931 . S
C1107 C1105 1.416 . S
C1107 C1108 1.332 . S
C1108 H1087 0.929 . S
C1108 C1104 1.407 . S
C1108 C1107 1.332 . S
H1109 C1102 0.930 . S
H1110 C1133 0.930 . S
H1111 C1134 0.929 . S
O1112 Tb1068 2.465 . S
O1112 C1132 1.264 . S
O1113 Tb1068 2.387 . S
O1113 C1124 1.264 . S
O1114 Tb1079 2.349 . S
O1114 C1124 1.243 . S
O1115 Tb1068 2.428 . S
O1115 C1132 1.256 . S
O1116 Tb1068 2.308 . S
O1116 C1131 1.266 . S
O1117 Tb1079 2.393 . S
O1117 C1131 1.248 . S
O1118 Tb1079 2.465 . S
O1118 C1143 1.264 . S
O1119 Tb1079 2.387 . S
O1119 C1135 1.264 . S
O1120 Tb1068 2.349 . S
O1120 C1135 1.243 . S
O1121 Tb1079 2.428 . S
O1121 C1143 1.256 . S
O1122 Tb1079 2.308 . S
O1122 C1142 1.266 . S
O1123 Tb1068 2.393 . S
O1123 C1142 1.248 . S
C1124 O1113 1.264 . S
C1124 O1114 1.243 . S
C1125 C1128 1.399 . S
C1125 C1130 1.383 . S
C1125 C1132 1.496 . S
C1126 C1127 1.399 . S
C1126 C1130 1.389 . S
C1127 C1126 1.399 . S
C1127 C1129 1.380 . S
C1127 H1144 0.929 . S
C1128 C1125 1.399 . S
C1128 C1129 1.392 . S
C1128 H1145 0.929 . S
C1129 C1127 1.380 . S
C1129 C1128 1.392 . S
C1129 H1146 0.929 . S
C1130 C1125 1.383 . S
C1130 C1126 1.389 . S
C1130 H1147 0.931 . S
C1131 O1116 1.266 . S
C1131 O1117 1.248 . S
C1132 Tb1068 2.802 . S
C1132 O1112 1.264 . S
C1132 O1115 1.256 . S
C1132 C1125 1.496 . S
C1133 C1100 1.448 . S
C1133 H1110 0.930 . S
C1133 C1134 1.328 . S
C1134 C1105 1.427 . S
C1134 H1111 0.929 . S
C1134 C1133 1.328 . S
C1135 O1119 1.264 . S
C1135 O1120 1.243 . S
C1136 C1139 1.399 . S
C1136 C1140 1.383 . S
C1136 C1143 1.496 . S
C1137 C1138 1.399 . S
C1137 C1140 1.389 . S
C1138 C1137 1.399 . S
C1138 C1141 1.380 . S
C1138 H1148 0.929 . S
C1139 C1136 1.399 . S
C1139 C1141 1.392 . S
C1139 H1149 0.929 . S
C1140 C1136 1.383 . S
C1140 C1137 1.389 . S
C1140 H1150 0.931 . S
C1141 C1138 1.380 . S
C1141 C1139 1.392 . S
C1141 H1151 0.929 . S
C1142 O1122 1.266 . S
C1142 O1123 1.248 . S
C1143 Tb1079 2.802 . S
C1143 O1118 1.264 . S
C1143 O1121 1.256 . S
C1143 C1136 1.496 . S
H1144 C1127 0.929 . S
H1145 C1128 0.929 . S
H1146 C1129 0.929 . S
H1147 C1130 0.931 . S
H1148 C1138 0.929 . S
H1149 C1139 0.929 . S
H1150 C1140 0.931 . S
H1151 C1141 0.929 . S
Tb1152 N1181 2.617 . S
Tb1152 N1187 2.572 1_455 S
Tb1152 O1196 2.465 . S
Tb1152 O1197 2.387 1_455 S
Tb1152 O1199 2.428 . S
Tb1152 O1200 2.308 . S
Tb1152 O1204 2.349 . S
Tb1152 O1207 2.393 . S
Tb1152 C1216 2.802 . S
C1153 N1154 1.379 . S
C1153 C1156 1.416 . S
C1153 C1160 1.424 . S
N1154 C1153 1.379 . S
N1154 C1157 1.334 . S
N1154 Tb1163 2.617 . S
C1155 C1157 1.390 . S
C1155 C1158 1.339 . S
C1155 H1175 0.930 . S
C1156 C1153 1.416 . S
C1156 C1158 1.416 . S
C1156 C1162 1.448 . S
C1157 N1154 1.334 . S
C1157 C1155 1.390 . S
C1157 H1168 0.930 . S
C1158 C1155 1.339 . S
C1158 C1156 1.416 . S
C1158 H1179 0.930 . S
C1159 C1160 1.413 . S
C1159 C1161 1.427 . S
C1159 C1165 1.416 . S
C1160 C1153 1.424 . S
C1160 C1159 1.413 . S
C1160 N1164 1.361 . S
C1161 C1159 1.427 . S
C1161 C1162 1.328 . S
C1161 H1176 0.929 . S
C1162 C1156 1.448 . S
C1162 C1161 1.328 . S
C1162 H1177 0.930 . S
Tb1163 N1154 2.617 . S
Tb1163 N1164 2.572 . S
Tb1163 O1198 2.349 1_455 S
Tb1163 O1201 2.393 . S
Tb1163 O1202 2.465 . S
Tb1163 O1203 2.387 . S
Tb1163 O1205 2.428 . S
Tb1163 O1206 2.308 . S
Tb1163 C1227 2.802 . S
N1164 C1160 1.361 . S
N1164 Tb1163 2.572 . S
N1164 C1166 1.340 . S
C1165 C1159 1.416 . S
C1165 C1167 1.332 . S
C1165 H1173 0.931 . S
C1166 N1164 1.340 . S
C1166 C1167 1.407 . S
C1166 H1172 0.930 . S
C1167 C1165 1.332 . S
C1167 C1166 1.407 . S
C1167 H1169 0.929 . S
H1168 C1157 0.930 . S
H1169 C1167 0.929 . S
H1170 C1185 0.930 . S
H1171 C1192 0.929 . S
H1172 C1166 0.930 . S
H1173 C1165 0.931 . S
H1174 C1188 0.930 1_455 S
H1175 C1155 0.930 . S
H1176 C1161 0.929 . S
H1177 C1162 0.930 . S
H1178 C1183 0.930 . S
H1179 C1158 0.930 . S
H1180 C1191 0.931 . S
N1181 Tb1152 2.617 . S
N1181 C1182 1.379 1_455 S
N1181 C1185 1.334 . S
C1182 N1181 1.379 1_655 S
C1182 C1184 1.416 . S
C1182 C1190 1.424 . S
C1183 H1178 0.930 . S
C1183 C1185 1.390 1_655 S
C1183 C1186 1.339 . S
C1184 C1182 1.416 . S
C1184 C1186 1.416 . S
C1184 C1217 1.448 . S
C1185 H1170 0.930 . S
C1185 N1181 1.334 . S
C1185 C1183 1.390 1_455 S
C1186 C1183 1.339 . S
C1186 C1184 1.416 . S
C1186 H1193 0.930 . S
N1187 Tb1152 2.572 1_655 S
N1187 C1188 1.340 . S
N1187 C1190 1.361 . S
C1188 H1174 0.930 1_655 S
C1188 N1187 1.340 . S
C1188 C1192 1.407 . S
C1189 C1190 1.413 . S
C1189 C1191 1.416 . S
C1189 C1218 1.427 . S
C1190 C1182 1.424 . S
C1190 N1187 1.361 . S
C1190 C1189 1.413 . S
C1191 H1180 0.931 . S
C1191 C1189 1.416 . S
C1191 C1192 1.332 . S
C1192 H1171 0.929 . S
C1192 C1188 1.407 . S
C1192 C1191 1.332 . S
H1193 C1186 0.930 . S
H1194 C1217 0.930 . S
H1195 C1218 0.929 . S
O1196 Tb1152 2.465 . S
O1196 C1216 1.264 . S
O1197 Tb1152 2.387 1_655 S
O1197 C1208 1.264 . S
O1198 Tb1163 2.349 1_655 S
O1198 C1208 1.243 . S
O1199 Tb1152 2.428 . S
O1199 C1216 1.256 . S
O1200 Tb1152 2.308 . S
O1200 C1215 1.266 . S
O1201 Tb1163 2.393 . S
O1201 C1215 1.248 . S
O1202 Tb1163 2.465 . S
O1202 C1227 1.264 . S
O1203 Tb1163 2.387 . S
O1203 C1219 1.264 . S
O1204 Tb1152 2.349 . S
O1204 C1219 1.243 . S
O1205 Tb1163 2.428 . S
O1205 C1227 1.256 . S
O1206 Tb1163 2.308 . S
O1206 C1226 1.266 . S
O1207 Tb1152 2.393 . S
O1207 C1226 1.248 . S
C1208 O1197 1.264 . S
C1208 O1198 1.243 . S
C1209 C1212 1.399 . S
C1209 C1214 1.383 . S
C1209 C1216 1.496 . S
C1210 C1211 1.399 . S
C1210 C1214 1.389 . S
C1211 C1210 1.399 . S
C1211 C1213 1.380 . S
C1211 H1228 0.929 . S
C1212 C1209 1.399 . S
C1212 C1213 1.392 . S
C1212 H1229 0.929 . S
C1213 C1211 1.380 . S
C1213 C1212 1.392 . S
C1213 H1230 0.929 . S
C1214 C1209 1.383 . S
C1214 C1210 1.389 . S
C1214 H1231 0.931 . S
C1215 O1200 1.266 . S
C1215 O1201 1.248 . S
C1216 Tb1152 2.802 . S
C1216 O1196 1.264 . S
C1216 O1199 1.256 . S
C1216 C1209 1.496 . S
C1217 C1184 1.448 . S
C1217 H1194 0.930 . S
C1217 C1218 1.328 . S
C1218 C1189 1.427 . S
C1218 H1195 0.929 . S
C1218 C1217 1.328 . S
C1219 O1203 1.264 . S
C1219 O1204 1.243 . S
C1220 C1223 1.399 . S
C1220 C1224 1.383 . S
C1220 C1227 1.496 1_655 S
C1221 C1222 1.399 . S
C1221 C1224 1.389 . S
C1222 C1221 1.399 . S
C1222 C1225 1.380 . S
C1222 H1232 0.929 . S
C1223 C1220 1.399 . S
C1223 C1225 1.392 . S
C1223 H1233 0.929 . S
C1224 C1220 1.383 . S
C1224 C1221 1.389 . S
C1224 H1234 0.931 . S
C1225 C1222 1.380 . S
C1225 C1223 1.392 . S
C1225 H1235 0.929 . S
C1226 O1206 1.266 . S
C1226 O1207 1.248 . S
C1227 Tb1163 2.802 . S
C1227 O1202 1.264 . S
C1227 O1205 1.256 . S
C1227 C1220 1.496 1_455 S
H1228 C1211 0.929 . S
H1229 C1212 0.929 . S
H1230 C1213 0.929 . S
H1231 C1214 0.931 . S
H1232 C1222 0.929 . S
H1233 C1223 0.929 . S
H1234 C1224 0.931 . S
H1235 C1225 0.929 . S
Tb1236 N1265 2.617 . S
Tb1236 N1271 2.572 . S
Tb1236 O1280 2.465 . S
Tb1236 O1281 2.387 . S
Tb1236 O1283 2.428 . S
Tb1236 O1284 2.308 . S
Tb1236 O1288 2.349 . S
Tb1236 O1291 2.393 . S
Tb1236 C1300 2.802 . S
C1237 N1238 1.379 . S
C1237 C1240 1.416 . S
C1237 C1244 1.424 . S
N1238 C1237 1.379 . S
N1238 C1241 1.334 . S
N1238 Tb1247 2.617 . S
C1239 C1241 1.390 . S
C1239 C1242 1.339 . S
C1239 H1259 0.930 . S
C1240 C1237 1.416 . S
C1240 C1242 1.416 . S
C1240 C1246 1.448 . S
C1241 N1238 1.334 . S
C1241 C1239 1.390 . S
C1241 H1252 0.930 . S
C1242 C1239 1.339 . S
C1242 C1240 1.416 . S
C1242 H1263 0.930 . S
C1243 C1244 1.413 . S
C1243 C1245 1.427 . S
C1243 C1249 1.416 . S
C1244 C1237 1.424 . S
C1244 C1243 1.413 . S
C1244 N1248 1.361 . S
C1245 C1243 1.427 . S
C1245 C1246 1.328 . S
C1245 H1260 0.929 . S
C1246 C1240 1.448 . S
C1246 C1245 1.328 . S
C1246 H1261 0.930 . S
Tb1247 N1238 2.617 . S
Tb1247 N1248 2.572 . S
Tb1247 O1282 2.349 . S
Tb1247 O1285 2.393 . S
Tb1247 O1286 2.465 . S
Tb1247 O1287 2.387 . S
Tb1247 O1289 2.428 . S
Tb1247 O1290 2.308 . S
Tb1247 C1311 2.802 . S
N1248 C1244 1.361 . S
N1248 Tb1247 2.572 . S
N1248 C1250 1.340 . S
C1249 C1243 1.416 . S
C1249 C1251 1.332 . S
C1249 H1257 0.931 . S
C1250 N1248 1.340 . S
C1250 C1251 1.407 . S
C1250 H1256 0.930 . S
C1251 C1249 1.332 . S
C1251 C1250 1.407 . S
C1251 H1253 0.929 . S
H1252 C1241 0.930 . S
H1253 C1251 0.929 . S
H1254 C1269 0.930 . S
H1255 C1276 0.929 . S
H1256 C1250 0.930 . S
H1257 C1249 0.931 . S
H1258 C1272 0.930 . S
H1259 C1239 0.930 . S
H1260 C1245 0.929 . S
H1261 C1246 0.930 . S
H1262 C1267 0.930 . S
H1263 C1242 0.930 . S
H1264 C1275 0.931 . S
N1265 Tb1236 2.617 . S
N1265 C1266 1.379 . S
N1265 C1269 1.334 . S
C1266 N1265 1.379 . S
C1266 C1268 1.416 . S
C1266 C1274 1.424 . S
C1267 H1262 0.930 . S
C1267 C1269 1.390 . S
C1267 C1270 1.339 . S
C1268 C1266 1.416 . S
C1268 C1270 1.416 . S
C1268 C1301 1.448 . S
C1269 H1254 0.930 . S
C1269 N1265 1.334 . S
C1269 C1267 1.390 . S
C1270 C1267 1.339 . S
C1270 C1268 1.416 . S
C1270 H1277 0.930 . S
N1271 Tb1236 2.572 . S
N1271 C1272 1.340 . S
N1271 C1274 1.361 . S
C1272 H1258 0.930 . S
C1272 N1271 1.340 . S
C1272 C1276 1.407 . S
C1273 C1274 1.413 . S
C1273 C1275 1.416 . S
C1273 C1302 1.427 . S
C1274 C1266 1.424 . S
C1274 N1271 1.361 . S
C1274 C1273 1.413 . S
C1275 H1264 0.931 . S
C1275 C1273 1.416 . S
C1275 C1276 1.332 . S
C1276 H1255 0.929 . S
C1276 C1272 1.407 . S
C1276 C1275 1.332 . S
H1277 C1270 0.930 . S
H1278 C1301 0.930 . S
H1279 C1302 0.929 . S
O1280 Tb1236 2.465 . S
O1280 C1300 1.264 . S
O1281 Tb1236 2.387 . S
O1281 C1292 1.264 . S
O1282 Tb1247 2.349 . S
O1282 C1292 1.243 . S
O1283 Tb1236 2.428 . S
O1283 C1300 1.256 . S
O1284 Tb1236 2.308 . S
O1284 C1299 1.266 . S
O1285 Tb1247 2.393 . S
O1285 C1299 1.248 . S
O1286 Tb1247 2.465 . S
O1286 C1311 1.264 . S
O1287 Tb1247 2.387 . S
O1287 C1303 1.264 . S
O1288 Tb1236 2.349 . S
O1288 C1303 1.243 . S
O1289 Tb1247 2.428 . S
O1289 C1311 1.256 . S
O1290 Tb1247 2.308 . S
O1290 C1310 1.266 . S
O1291 Tb1236 2.393 . S
O1291 C1310 1.248 . S
C1292 O1281 1.264 . S
C1292 O1282 1.243 . S
C1293 C1296 1.399 . S
C1293 C1298 1.383 . S
C1293 C1300 1.496 . S
C1294 C1295 1.399 . S
C1294 C1298 1.389 . S
C1295 C1294 1.399 . S
C1295 C1297 1.380 . S
C1295 H1312 0.929 . S
C1296 C1293 1.399 . S
C1296 C1297 1.392 . S
C1296 H1313 0.929 . S
C1297 C1295 1.380 . S
C1297 C1296 1.392 . S
C1297 H1314 0.929 . S
C1298 C1293 1.383 . S
C1298 C1294 1.389 . S
C1298 H1315 0.931 . S
C1299 O1284 1.266 . S
C1299 O1285 1.248 . S
C1300 Tb1236 2.802 . S
C1300 O1280 1.264 . S
C1300 O1283 1.256 . S
C1300 C1293 1.496 . S
C1301 C1268 1.448 . S
C1301 H1278 0.930 . S
C1301 C1302 1.328 . S
C1302 C1273 1.427 . S
C1302 H1279 0.929 . S
C1302 C1301 1.328 . S
C1303 O1287 1.264 . S
C1303 O1288 1.243 . S
C1304 C1307 1.399 . S
C1304 C1308 1.383 . S
C1304 C1311 1.496 . S
C1305 C1306 1.399 . S
C1305 C1308 1.389 . S
C1306 C1305 1.399 . S
C1306 C1309 1.380 . S
C1306 H1316 0.929 . S
C1307 C1304 1.399 . S
C1307 C1309 1.392 . S
C1307 H1317 0.929 . S
C1308 C1304 1.383 . S
C1308 C1305 1.389 . S
C1308 H1318 0.931 . S
C1309 C1306 1.380 . S
C1309 C1307 1.392 . S
C1309 H1319 0.929 . S
C1310 O1290 1.266 . S
C1310 O1291 1.248 . S
C1311 Tb1247 2.802 . S
C1311 O1286 1.264 . S
C1311 O1289 1.256 . S
C1311 C1304 1.496 . S
H1312 C1295 0.929 . S
H1313 C1296 0.929 . S
H1314 C1297 0.929 . S
H1315 C1298 0.931 . S
H1316 C1306 0.929 . S
H1317 C1307 0.929 . S
H1318 C1308 0.931 . S
H1319 C1309 0.929 . S
Tb1320 N1349 2.617 . S
Tb1320 N1355 2.572 . S
Tb1320 O1364 2.465 . S
Tb1320 O1365 2.387 . S
Tb1320 O1367 2.428 . S
Tb1320 O1368 2.308 . S
Tb1320 O1372 2.349 . S
Tb1320 O1375 2.393 . S
Tb1320 C1384 2.802 . S
C1321 N1322 1.379 . S
C1321 C1324 1.416 . S
C1321 C1328 1.424 . S
N1322 C1321 1.379 . S
N1322 C1325 1.334 . S
N1322 Tb1331 2.617 . S
C1323 C1325 1.390 . S
C1323 C1326 1.339 . S
C1323 H1343 0.930 . S
C1324 C1321 1.416 . S
C1324 C1326 1.416 . S
C1324 C1330 1.448 . S
C1325 N1322 1.334 . S
C1325 C1323 1.390 . S
C1325 H1336 0.930 . S
C1326 C1323 1.339 . S
C1326 C1324 1.416 . S
C1326 H1347 0.930 . S
C1327 C1328 1.413 . S
C1327 C1329 1.427 . S
C1327 C1333 1.416 . S
C1328 C1321 1.424 . S
C1328 C1327 1.413 . S
C1328 N1332 1.361 . S
C1329 C1327 1.427 . S
C1329 C1330 1.328 . S
C1329 H1344 0.929 . S
C1330 C1324 1.448 . S
C1330 C1329 1.328 . S
C1330 H1345 0.930 . S
Tb1331 N1322 2.617 . S
Tb1331 N1332 2.572 . S
Tb1331 O1366 2.349 . S
Tb1331 O1369 2.393 . S
Tb1331 O1370 2.465 . S
Tb1331 O1371 2.387 . S
Tb1331 O1373 2.428 . S
Tb1331 O1374 2.308 . S
Tb1331 C1395 2.802 . S
N1332 C1328 1.361 . S
N1332 Tb1331 2.572 . S
N1332 C1334 1.340 . S
C1333 C1327 1.416 . S
C1333 C1335 1.332 . S
C1333 H1341 0.931 . S
C1334 N1332 1.340 . S
C1334 C1335 1.407 . S
C1334 H1340 0.930 . S
C1335 C1333 1.332 . S
C1335 C1334 1.407 . S
C1335 H1337 0.929 . S
H1336 C1325 0.930 . S
H1337 C1335 0.929 . S
H1338 C1353 0.930 . S
H1339 C1360 0.929 . S
H1340 C1334 0.930 . S
H1341 C1333 0.931 . S
H1342 C1356 0.930 . S
H1343 C1323 0.930 . S
H1344 C1329 0.929 . S
H1345 C1330 0.930 . S
H1346 C1351 0.930 . S
H1347 C1326 0.930 . S
H1348 C1359 0.931 . S
N1349 Tb1320 2.617 . S
N1349 C1350 1.379 . S
N1349 C1353 1.334 . S
C1350 N1349 1.379 . S
C1350 C1352 1.416 . S
C1350 C1358 1.424 . S
C1351 H1346 0.930 . S
C1351 C1353 1.390 . S
C1351 C1354 1.339 . S
C1352 C1350 1.416 . S
C1352 C1354 1.416 . S
C1352 C1385 1.448 . S
C1353 H1338 0.930 . S
C1353 N1349 1.334 . S
C1353 C1351 1.390 . S
C1354 C1351 1.339 . S
C1354 C1352 1.416 . S
C1354 H1361 0.930 . S
N1355 Tb1320 2.572 . S
N1355 C1356 1.340 . S
N1355 C1358 1.361 . S
C1356 H1342 0.930 . S
C1356 N1355 1.340 . S
C1356 C1360 1.407 . S
C1357 C1358 1.413 . S
C1357 C1359 1.416 . S
C1357 C1386 1.427 . S
C1358 C1350 1.424 . S
C1358 N1355 1.361 . S
C1358 C1357 1.413 . S
C1359 H1348 0.931 . S
C1359 C1357 1.416 . S
C1359 C1360 1.332 . S
C1360 H1339 0.929 . S
C1360 C1356 1.407 . S
C1360 C1359 1.332 . S
H1361 C1354 0.930 . S
H1362 C1385 0.930 . S
H1363 C1386 0.929 . S
O1364 Tb1320 2.465 . S
O1364 C1384 1.264 . S
O1365 Tb1320 2.387 . S
O1365 C1376 1.264 . S
O1366 Tb1331 2.349 . S
O1366 C1376 1.243 . S
O1367 Tb1320 2.428 . S
O1367 C1384 1.256 . S
O1368 Tb1320 2.308 . S
O1368 C1383 1.266 . S
O1369 Tb1331 2.393 . S
O1369 C1383 1.248 . S
O1370 Tb1331 2.465 . S
O1370 C1395 1.264 . S
O1371 Tb1331 2.387 . S
O1371 C1387 1.264 . S
O1372 Tb1320 2.349 . S
O1372 C1387 1.243 . S
O1373 Tb1331 2.428 . S
O1373 C1395 1.256 . S
O1374 Tb1331 2.308 . S
O1374 C1394 1.266 . S
O1375 Tb1320 2.393 . S
O1375 C1394 1.248 . S
C1376 O1365 1.264 . S
C1376 O1366 1.243 . S
C1377 C1380 1.399 . S
C1377 C1382 1.383 . S
C1377 C1384 1.496 . S
C1378 C1379 1.399 . S
C1378 C1382 1.389 . S
C1379 C1378 1.399 . S
C1379 C1381 1.380 . S
C1379 H1396 0.929 . S
C1380 C1377 1.399 . S
C1380 C1381 1.392 . S
C1380 H1397 0.929 . S
C1381 C1379 1.380 . S
C1381 C1380 1.392 . S
C1381 H1398 0.929 . S
C1382 C1377 1.383 . S
C1382 C1378 1.389 . S
C1382 H1399 0.931 . S
C1383 O1368 1.266 . S
C1383 O1369 1.248 . S
C1384 Tb1320 2.802 . S
C1384 O1364 1.264 . S
C1384 O1367 1.256 . S
C1384 C1377 1.496 . S
C1385 C1352 1.448 . S
C1385 H1362 0.930 . S
C1385 C1386 1.328 . S
C1386 C1357 1.427 . S
C1386 H1363 0.929 . S
C1386 C1385 1.328 . S
C1387 O1371 1.264 . S
C1387 O1372 1.243 . S
C1388 C1391 1.399 . S
C1388 C1392 1.383 . S
C1388 C1395 1.496 . S
C1389 C1390 1.399 . S
C1389 C1392 1.389 . S
C1390 C1389 1.399 . S
C1390 C1393 1.380 . S
C1390 H1400 0.929 . S
C1391 C1388 1.399 . S
C1391 C1393 1.392 . S
C1391 H1401 0.929 . S
C1392 C1388 1.383 . S
C1392 C1389 1.389 . S
C1392 H1402 0.931 . S
C1393 C1390 1.380 . S
C1393 C1391 1.392 . S
C1393 H1403 0.929 . S
C1394 O1374 1.266 . S
C1394 O1375 1.248 . S
C1395 Tb1331 2.802 . S
C1395 O1370 1.264 . S
C1395 O1373 1.256 . S
C1395 C1388 1.496 . S
H1396 C1379 0.929 . S
H1397 C1380 0.929 . S
H1398 C1381 0.929 . S
H1399 C1382 0.931 . S
H1400 C1390 0.929 . S
H1401 C1391 0.929 . S
H1402 C1392 0.931 . S
H1403 C1393 0.929 . S
Tb1404 N1433 2.617 . S
Tb1404 N1439 2.572 . S
Tb1404 O1448 2.465 . S
Tb1404 O1449 2.387 . S
Tb1404 O1451 2.428 . S
Tb1404 O1452 2.308 . S
Tb1404 O1456 2.349 . S
Tb1404 O1459 2.393 . S
Tb1404 C1468 2.802 . S
C1405 N1406 1.379 . S
C1405 C1408 1.416 . S
C1405 C1412 1.424 . S
N1406 C1405 1.379 . S
N1406 C1409 1.334 . S
N1406 Tb1415 2.617 . S
C1407 C1409 1.390 . S
C1407 C1410 1.339 . S
C1407 H1427 0.930 . S
C1408 C1405 1.416 . S
C1408 C1410 1.416 . S
C1408 C1414 1.448 . S
C1409 N1406 1.334 . S
C1409 C1407 1.390 . S
C1409 H1420 0.930 . S
C1410 C1407 1.339 . S
C1410 C1408 1.416 . S
C1410 H1431 0.930 . S
C1411 C1412 1.413 . S
C1411 C1413 1.427 . S
C1411 C1417 1.416 . S
C1412 C1405 1.424 . S
C1412 C1411 1.413 . S
C1412 N1416 1.361 . S
C1413 C1411 1.427 . S
C1413 C1414 1.328 . S
C1413 H1428 0.929 . S
C1414 C1408 1.448 . S
C1414 C1413 1.328 . S
C1414 H1429 0.930 . S
Tb1415 N1406 2.617 . S
Tb1415 N1416 2.572 . S
Tb1415 O1450 2.349 . S
Tb1415 O1453 2.393 . S
Tb1415 O1454 2.465 . S
Tb1415 O1455 2.387 . S
Tb1415 O1457 2.428 . S
Tb1415 O1458 2.308 . S
Tb1415 C1479 2.802 . S
N1416 C1412 1.361 . S
N1416 Tb1415 2.572 . S
N1416 C1418 1.340 . S
C1417 C1411 1.416 . S
C1417 C1419 1.332 . S
C1417 H1425 0.931 . S
C1418 N1416 1.340 . S
C1418 C1419 1.407 . S
C1418 H1424 0.930 . S
C1419 C1417 1.332 . S
C1419 C1418 1.407 . S
C1419 H1421 0.929 . S
H1420 C1409 0.930 . S
H1421 C1419 0.929 . S
H1422 C1437 0.930 . S
H1423 C1444 0.929 . S
H1424 C1418 0.930 . S
H1425 C1417 0.931 . S
H1426 C1440 0.930 . S
H1427 C1407 0.930 . S
H1428 C1413 0.929 . S
H1429 C1414 0.930 . S
H1430 C1435 0.930 . S
H1431 C1410 0.930 . S
H1432 C1443 0.931 . S
N1433 Tb1404 2.617 . S
N1433 C1434 1.379 . S
N1433 C1437 1.334 . S
C1434 N1433 1.379 . S
C1434 C1436 1.416 . S
C1434 C1442 1.424 . S
C1435 H1430 0.930 . S
C1435 C1437 1.390 . S
C1435 C1438 1.339 . S
C1436 C1434 1.416 . S
C1436 C1438 1.416 . S
C1436 C1469 1.448 . S
C1437 H1422 0.930 . S
C1437 N1433 1.334 . S
C1437 C1435 1.390 . S
C1438 C1435 1.339 . S
C1438 C1436 1.416 . S
C1438 H1445 0.930 . S
N1439 Tb1404 2.572 . S
N1439 C1440 1.340 . S
N1439 C1442 1.361 . S
C1440 H1426 0.930 . S
C1440 N1439 1.340 . S
C1440 C1444 1.407 . S
C1441 C1442 1.413 . S
C1441 C1443 1.416 . S
C1441 C1470 1.427 . S
C1442 C1434 1.424 . S
C1442 N1439 1.361 . S
C1442 C1441 1.413 . S
C1443 H1432 0.931 . S
C1443 C1441 1.416 . S
C1443 C1444 1.332 . S
C1444 H1423 0.929 . S
C1444 C1440 1.407 . S
C1444 C1443 1.332 . S
H1445 C1438 0.930 . S
H1446 C1469 0.930 . S
H1447 C1470 0.929 . S
O1448 Tb1404 2.465 . S
O1448 C1468 1.264 . S
O1449 Tb1404 2.387 . S
O1449 C1460 1.264 . S
O1450 Tb1415 2.349 . S
O1450 C1460 1.243 . S
O1451 Tb1404 2.428 . S
O1451 C1468 1.256 . S
O1452 Tb1404 2.308 . S
O1452 C1467 1.266 . S
O1453 Tb1415 2.393 . S
O1453 C1467 1.248 . S
O1454 Tb1415 2.465 . S
O1454 C1479 1.264 . S
O1455 Tb1415 2.387 . S
O1455 C1471 1.264 . S
O1456 Tb1404 2.349 . S
O1456 C1471 1.243 . S
O1457 Tb1415 2.428 . S
O1457 C1479 1.256 . S
O1458 Tb1415 2.308 . S
O1458 C1478 1.266 . S
O1459 Tb1404 2.393 . S
O1459 C1478 1.248 . S
C1460 O1449 1.264 . S
C1460 O1450 1.243 . S
C1461 C1464 1.399 . S
C1461 C1466 1.383 . S
C1461 C1468 1.496 . S
C1462 C1463 1.399 . S
C1462 C1466 1.389 . S
C1463 C1462 1.399 . S
C1463 C1465 1.380 . S
C1463 H1480 0.929 . S
C1464 C1461 1.399 . S
C1464 C1465 1.392 . S
C1464 H1481 0.929 . S
C1465 C1463 1.380 . S
C1465 C1464 1.392 . S
C1465 H1482 0.929 . S
C1466 C1461 1.383 . S
C1466 C1462 1.389 . S
C1466 H1483 0.931 . S
C1467 O1452 1.266 . S
C1467 O1453 1.248 . S
C1468 Tb1404 2.802 . S
C1468 O1448 1.264 . S
C1468 O1451 1.256 . S
C1468 C1461 1.496 . S
C1469 C1436 1.448 . S
C1469 H1446 0.930 . S
C1469 C1470 1.328 . S
C1470 C1441 1.427 . S
C1470 H1447 0.929 . S
C1470 C1469 1.328 . S
C1471 O1455 1.264 . S
C1471 O1456 1.243 . S
C1472 C1475 1.399 . S
C1472 C1476 1.383 . S
C1472 C1479 1.496 . S
C1473 C1474 1.399 . S
C1473 C1476 1.389 . S
C1474 C1473 1.399 . S
C1474 C1477 1.380 . S
C1474 H1484 0.929 . S
C1475 C1472 1.399 . S
C1475 C1477 1.392 . S
C1475 H1485 0.929 . S
C1476 C1472 1.383 . S
C1476 C1473 1.389 . S
C1476 H1486 0.931 . S
C1477 C1474 1.380 . S
C1477 C1475 1.392 . S
C1477 H1487 0.929 . S
C1478 O1458 1.266 . S
C1478 O1459 1.248 . S
C1479 Tb1415 2.802 . S
C1479 O1454 1.264 . S
C1479 O1457 1.256 . S
C1479 C1472 1.496 . S
H1480 C1463 0.929 . S
H1481 C1464 0.929 . S
H1482 C1465 0.929 . S
H1483 C1466 0.931 . S
H1484 C1474 0.929 . S
H1485 C1475 0.929 . S
H1486 C1476 0.931 . S
H1487 C1477 0.929 . S
Tb1488 N1517 2.617 . S
Tb1488 N1523 2.572 . S
Tb1488 O1532 2.465 . S
Tb1488 O1533 2.387 . S
Tb1488 O1535 2.428 . S
Tb1488 O1536 2.308 . S
Tb1488 O1540 2.349 . S
Tb1488 O1543 2.393 . S
Tb1488 C1552 2.802 . S
C1489 N1490 1.379 . S
C1489 C1492 1.416 . S
C1489 C1496 1.424 . S
N1490 C1489 1.379 . S
N1490 C1493 1.334 . S
N1490 Tb1499 2.617 . S
C1491 C1493 1.390 . S
C1491 C1494 1.339 . S
C1491 H1511 0.930 . S
C1492 C1489 1.416 . S
C1492 C1494 1.416 . S
C1492 C1498 1.448 . S
C1493 N1490 1.334 . S
C1493 C1491 1.390 . S
C1493 H1504 0.930 . S
C1494 C1491 1.339 . S
C1494 C1492 1.416 . S
C1494 H1515 0.930 . S
C1495 C1496 1.413 . S
C1495 C1497 1.427 . S
C1495 C1501 1.416 . S
C1496 C1489 1.424 . S
C1496 C1495 1.413 . S
C1496 N1500 1.361 . S
C1497 C1495 1.427 . S
C1497 C1498 1.328 . S
C1497 H1512 0.929 . S
C1498 C1492 1.448 . S
C1498 C1497 1.328 . S
C1498 H1513 0.930 . S
Tb1499 N1490 2.617 . S
Tb1499 N1500 2.572 . S
Tb1499 O1534 2.349 . S
Tb1499 O1537 2.393 . S
Tb1499 O1538 2.465 . S
Tb1499 O1539 2.387 . S
Tb1499 O1541 2.428 . S
Tb1499 O1542 2.308 . S
Tb1499 C1563 2.802 . S
N1500 C1496 1.361 . S
N1500 Tb1499 2.572 . S
N1500 C1502 1.340 . S
C1501 C1495 1.416 . S
C1501 C1503 1.332 . S
C1501 H1509 0.931 . S
C1502 N1500 1.340 . S
C1502 C1503 1.407 . S
C1502 H1508 0.930 . S
C1503 C1501 1.332 . S
C1503 C1502 1.407 . S
C1503 H1505 0.929 . S
H1504 C1493 0.930 . S
H1505 C1503 0.929 . S
H1506 C1521 0.930 . S
H1507 C1528 0.929 . S
H1508 C1502 0.930 . S
H1509 C1501 0.931 . S
H1510 C1524 0.930 . S
H1511 C1491 0.930 . S
H1512 C1497 0.929 . S
H1513 C1498 0.930 . S
H1514 C1519 0.930 . S
H1515 C1494 0.930 . S
H1516 C1527 0.931 . S
N1517 Tb1488 2.617 . S
N1517 C1518 1.379 . S
N1517 C1521 1.334 . S
C1518 N1517 1.379 . S
C1518 C1520 1.416 . S
C1518 C1526 1.424 . S
C1519 H1514 0.930 . S
C1519 C1521 1.390 . S
C1519 C1522 1.339 . S
C1520 C1518 1.416 . S
C1520 C1522 1.416 . S
C1520 C1553 1.448 . S
C1521 H1506 0.930 . S
C1521 N1517 1.334 . S
C1521 C1519 1.390 . S
C1522 C1519 1.339 . S
C1522 C1520 1.416 . S
C1522 H1529 0.930 . S
N1523 Tb1488 2.572 . S
N1523 C1524 1.340 . S
N1523 C1526 1.361 . S
C1524 H1510 0.930 . S
C1524 N1523 1.340 . S
C1524 C1528 1.407 . S
C1525 C1526 1.413 . S
C1525 C1527 1.416 . S
C1525 C1554 1.427 . S
C1526 C1518 1.424 . S
C1526 N1523 1.361 . S
C1526 C1525 1.413 . S
C1527 H1516 0.931 . S
C1527 C1525 1.416 . S
C1527 C1528 1.332 . S
C1528 H1507 0.929 . S
C1528 C1524 1.407 . S
C1528 C1527 1.332 . S
H1529 C1522 0.930 . S
H1530 C1553 0.930 . S
H1531 C1554 0.929 . S
O1532 Tb1488 2.465 . S
O1532 C1552 1.264 . S
O1533 Tb1488 2.387 . S
O1533 C1544 1.264 . S
O1534 Tb1499 2.349 . S
O1534 C1544 1.243 . S
O1535 Tb1488 2.428 . S
O1535 C1552 1.256 . S
O1536 Tb1488 2.308 . S
O1536 C1551 1.266 . S
O1537 Tb1499 2.393 . S
O1537 C1551 1.248 . S
O1538 Tb1499 2.465 . S
O1538 C1563 1.264 . S
O1539 Tb1499 2.387 . S
O1539 C1555 1.264 . S
O1540 Tb1488 2.349 . S
O1540 C1555 1.243 . S
O1541 Tb1499 2.428 . S
O1541 C1563 1.256 . S
O1542 Tb1499 2.308 . S
O1542 C1562 1.266 . S
O1543 Tb1488 2.393 . S
O1543 C1562 1.248 . S
C1544 O1533 1.264 . S
C1544 O1534 1.243 . S
C1545 C1548 1.399 . S
C1545 C1550 1.383 . S
C1545 C1552 1.496 . S
C1546 C1547 1.399 . S
C1546 C1550 1.389 . S
C1547 C1546 1.399 . S
C1547 C1549 1.380 . S
C1547 H1564 0.929 . S
C1548 C1545 1.399 . S
C1548 C1549 1.392 . S
C1548 H1565 0.929 . S
C1549 C1547 1.380 . S
C1549 C1548 1.392 . S
C1549 H1566 0.929 . S
C1550 C1545 1.383 . S
C1550 C1546 1.389 . S
C1550 H1567 0.931 . S
C1551 O1536 1.266 . S
C1551 O1537 1.248 . S
C1552 Tb1488 2.802 . S
C1552 O1532 1.264 . S
C1552 O1535 1.256 . S
C1552 C1545 1.496 . S
C1553 C1520 1.448 . S
C1553 H1530 0.930 . S
C1553 C1554 1.328 . S
C1554 C1525 1.427 . S
C1554 H1531 0.929 . S
C1554 C1553 1.328 . S
C1555 O1539 1.264 . S
C1555 O1540 1.243 . S
C1556 C1559 1.399 . S
C1556 C1560 1.383 . S
C1556 C1563 1.496 . S
C1557 C1558 1.399 . S
C1557 C1560 1.389 . S
C1558 C1557 1.399 . S
C1558 C1561 1.380 . S
C1558 H1568 0.929 . S
C1559 C1556 1.399 . S
C1559 C1561 1.392 . S
C1559 H1569 0.929 . S
C1560 C1556 1.383 . S
C1560 C1557 1.389 . S
C1560 H1570 0.931 . S
C1561 C1558 1.380 . S
C1561 C1559 1.392 . S
C1561 H1571 0.929 . S
C1562 O1542 1.266 . S
C1562 O1543 1.248 . S
C1563 Tb1499 2.802 . S
C1563 O1538 1.264 . S
C1563 O1541 1.256 . S
C1563 C1556 1.496 . S
H1564 C1547 0.929 . S
H1565 C1548 0.929 . S
H1566 C1549 0.929 . S
H1567 C1550 0.931 . S
H1568 C1558 0.929 . S
H1569 C1559 0.929 . S
H1570 C1560 0.931 . S
H1571 C1561 0.929 . S
Tb1572 N1601 2.617 1_455 S
Tb1572 N1607 2.572 1_455 S
Tb1572 O1616 2.465 1_455 S
Tb1572 O1617 2.387 . S
Tb1572 O1619 2.428 1_455 S
Tb1572 O1620 2.308 . S
Tb1572 O1624 2.349 . S
Tb1572 O1627 2.393 . S
Tb1572 C1636 2.802 1_455 S
C1573 N1574 1.379 . S
C1573 C1576 1.416 . S
C1573 C1580 1.424 1_556 S
N1574 C1573 1.379 . S
N1574 C1577 1.334 . S
N1574 Tb1583 2.617 1_556 S
C1575 C1577 1.390 . S
C1575 C1578 1.339 . S
C1575 H1595 0.930 . S
C1576 C1573 1.416 . S
C1576 C1578 1.416 . S
C1576 C1582 1.448 . S
C1577 N1574 1.334 . S
C1577 C1575 1.390 . S
C1577 H1588 0.930 . S
C1578 C1575 1.339 . S
C1578 C1576 1.416 . S
C1578 H1599 0.930 . S
C1579 C1580 1.413 . S
C1579 C1581 1.427 1_554 S
C1579 C1585 1.416 . S
C1580 C1573 1.424 1_554 S
C1580 C1579 1.413 . S
C1580 N1584 1.361 . S
C1581 C1579 1.427 1_556 S
C1581 C1582 1.328 . S
C1581 H1596 0.929 . S
C1582 C1576 1.448 . S
C1582 C1581 1.328 . S
C1582 H1597 0.930 . S
Tb1583 N1574 2.617 1_554 S
Tb1583 N1584 2.572 . S
Tb1583 O1618 2.349 . S
Tb1583 O1621 2.393 1_554 S
Tb1583 O1622 2.465 . S
Tb1583 O1623 2.387 . S
Tb1583 O1625 2.428 1_554 S
Tb1583 O1626 2.308 . S
Tb1583 C1647 2.802 1_554 S
N1584 C1580 1.361 . S
N1584 Tb1583 2.572 . S
N1584 C1586 1.340 . S
C1585 C1579 1.416 . S
C1585 C1587 1.332 . S
C1585 H1593 0.931 . S
C1586 N1584 1.340 . S
C1586 C1587 1.407 . S
C1586 H1592 0.930 . S
C1587 C1585 1.332 . S
C1587 C1586 1.407 . S
C1587 H1589 0.929 . S
H1588 C1577 0.930 . S
H1589 C1587 0.929 . S
H1590 C1605 0.948 . S
H1591 C1612 0.929 . S
H1592 C1586 0.930 . S
H1593 C1585 0.931 . S
H1594 C1608 0.930 1_556 S
H1595 C1575 0.930 . S
H1596 C1581 0.929 . S
H1597 C1582 0.930 . S
H1598 C1603 0.930 1_455 S
H1599 C1578 0.930 . S
H1600 C1611 0.931 . S
N1601 Tb1572 2.617 1_655 S
N1601 C1602 1.379 . S
N1601 C1605 1.323 1_655 S
C1602 N1601 1.379 . S
C1602 C1604 1.416 . S
C1602 C1610 1.424 . S
C1603 H1598 0.930 1_655 S
C1603 C1605 1.385 1_655 S
C1603 C1606 1.339 . S
C1604 C1602 1.416 . S
C1604 C1606 1.416 . S
C1604 C1637 1.448 . S
C1605 H1590 0.948 . S
C1605 N1601 1.323 1_455 S
C1605 C1603 1.385 1_455 S
C1606 C1603 1.339 . S
C1606 C1604 1.416 . S
C1606 H1613 0.930 . S
N1607 Tb1572 2.572 1_655 S
N1607 C1608 1.340 . S
N1607 C1610 1.361 . S
C1608 H1594 0.930 1_554 S
C1608 N1607 1.340 . S
C1608 C1612 1.407 1_554 S
C1609 C1610 1.413 . S
C1609 C1611 1.416 . S
C1609 C1638 1.427 . S
C1610 C1602 1.424 . S
C1610 N1607 1.361 . S
C1610 C1609 1.413 . S
C1611 H1600 0.931 . S
C1611 C1609 1.416 . S
C1611 C1612 1.332 1_554 S
C1612 H1591 0.929 . S
C1612 C1608 1.407 1_556 S
C1612 C1611 1.332 1_556 S
H1613 C1606 0.930 . S
H1614 C1637 0.930 . S
H1615 C1638 0.929 . S
O1616 Tb1572 2.465 1_655 S
O1616 C1636 1.264 . S
O1617 Tb1572 2.387 . S
O1617 C1628 1.264 . S
O1618 Tb1583 2.349 . S
O1618 C1628 1.243 . S
O1619 Tb1572 2.428 1_655 S
O1619 C1636 1.256 . S
O1620 Tb1572 2.308 . S
O1620 C1635 1.266 1_554 S
O1621 Tb1583 2.393 1_556 S
O1621 C1635 1.248 . S
O1622 Tb1583 2.465 . S
O1622 C1647 1.264 1_554 S
O1623 Tb1583 2.387 . S
O1623 C1639 1.264 . S
O1624 Tb1572 2.349 . S
O1624 C1639 1.243 . S
O1625 Tb1583 2.428 1_556 S
O1625 C1647 1.256 . S
O1626 Tb1583 2.308 . S
O1626 C1646 1.266 . S
O1627 Tb1572 2.393 . S
O1627 C1646 1.248 . S
C1628 O1617 1.264 . S
C1628 O1618 1.243 . S
C1629 C1632 1.399 . S
C1629 C1634 1.383 . S
C1629 C1636 1.496 . S
C1630 C1631 1.399 . S
C1630 C1634 1.389 . S
C1631 C1630 1.399 . S
C1631 C1633 1.380 . S
C1631 H1648 0.929 . S
C1632 C1629 1.399 . S
C1632 C1633 1.392 . S
C1632 H1649 0.929 . S
C1633 C1631 1.380 . S
C1633 C1632 1.392 . S
C1633 H1650 0.929 . S
C1634 C1629 1.383 . S
C1634 C1630 1.389 . S
C1634 H1651 0.931 . S
C1635 O1620 1.266 1_556 S
C1635 O1621 1.248 . S
C1636 Tb1572 2.802 1_655 S
C1636 O1616 1.264 . S
C1636 O1619 1.256 . S
C1636 C1629 1.496 . S
C1637 C1604 1.448 . S
C1637 H1614 0.930 . S
C1637 C1638 1.328 . S
C1638 C1609 1.427 . S
C1638 H1615 0.929 . S
C1638 C1637 1.328 . S
C1639 O1623 1.264 . S
C1639 O1624 1.243 . S
C1640 C1643 1.399 . S
C1640 C1644 1.383 1_556 S
C1640 C1647 1.496 . S
C1641 C1642 1.399 1_554 S
C1641 C1644 1.389 . S
C1642 C1641 1.399 1_556 S
C1642 C1645 1.380 . S
C1642 H1652 0.929 . S
C1643 C1640 1.399 . S
C1643 C1645 1.392 . S
C1643 H1653 0.929 . S
C1644 C1640 1.383 1_554 S
C1644 C1641 1.389 . S
C1644 H1654 0.931 . S
C1645 C1642 1.380 . S
C1645 C1643 1.392 . S
C1645 H1655 0.929 . S
C1646 O1626 1.266 . S
C1646 O1627 1.248 . S
C1647 Tb1583 2.802 1_556 S
C1647 O1622 1.264 1_556 S
C1647 O1625 1.256 . S
C1647 C1640 1.496 . S
H1648 C1631 0.929 . S
H1649 C1632 0.929 . S
H1650 C1633 0.929 . S
H1651 C1634 0.931 . S
H1652 C1642 0.929 . S
H1653 C1643 0.929 . S
H1654 C1644 0.931 . S
H1655 C1645 0.929 . S
H1656 C1664 0.950 . S
H1657 C1669 0.950 . S
H1658 C1666 0.950 . S
H1659 C1668 0.951 . S
H1660 C1670 0.950 . S
H1661 C1672 0.950 . S
H1662 C1674 0.950 1_556 S
H1663 C1675 0.950 . S
C1664 H1656 0.950 . S
C1664 C1665 1.401 . S
C1664 C1666 1.391 . S
C1665 C1664 1.401 . S
C1665 C1669 1.369 1_655 S
C1666 H1658 0.950 . S
C1666 C1664 1.391 . S
C1666 C1667 1.400 1_655 S
C1667 C1666 1.400 1_455 S
C1667 C1668 1.398 . S
C1667 C1673 1.491 1_556 S
C1668 H1659 0.951 . S
C1668 C1667 1.398 . S
C1668 C1669 1.391 . S
C1669 H1657 0.950 . S
C1669 C1665 1.369 1_455 S
C1669 C1668 1.391 . S
C1670 H1660 0.950 . S
C1670 C1671 1.386 . S
C1670 C1672 1.391 . S
C1671 C1670 1.386 . S
C1671 C1675 1.393 1_455 S
C1672 H1661 0.950 . S
C1672 C1670 1.391 . S
C1672 C1673 1.400 . S
C1673 C1667 1.491 1_554 S
C1673 C1672 1.400 . S
C1673 C1674 1.398 1_455 S
C1674 H1662 0.950 1_554 S
C1674 C1673 1.398 1_655 S
C1674 C1675 1.391 . S
C1675 H1663 0.950 . S
C1675 C1671 1.393 1_655 S
C1675 C1674 1.391 . S
H1676 C1684 0.950 . S
H1677 C1689 0.950 . S
H1678 C1686 0.950 . S
H1679 C1688 0.950 . S
H1680 C1690 0.950 . S
H1681 C1692 0.950 . S
H1682 C1694 0.950 . S
H1683 C1695 0.950 . S
C1684 H1676 0.950 . S
C1684 C1685 1.386 . S
C1684 C1686 1.391 . S
C1685 C1684 1.386 . S
C1685 C1689 1.393 . S
C1686 H1678 0.950 . S
C1686 C1684 1.391 . S
C1686 C1687 1.400 . S
C1687 C1686 1.400 . S
C1687 C1688 1.398 . S
C1687 C1693 1.491 . S
C1688 H1679 0.950 . S
C1688 C1687 1.398 . S
C1688 C1689 1.391 . S
C1689 H1677 0.950 . S
C1689 C1685 1.393 . S
C1689 C1688 1.391 . S
C1690 H1680 0.950 . S
C1690 C1691 1.386 . S
C1690 C1692 1.391 . S
C1691 C1690 1.386 . S
C1691 C1695 1.393 . S
C1692 H1681 0.950 . S
C1692 C1690 1.391 . S
C1692 C1693 1.400 . S
C1693 C1687 1.491 . S
C1693 C1692 1.400 . S
C1693 C1694 1.398 . S
C1694 H1682 0.950 . S
C1694 C1693 1.398 . S
C1694 C1695 1.391 . S
C1695 H1683 0.950 . S
C1695 C1691 1.393 . S
C1695 C1694 1.391 . S
H1696 C1704 0.950 . S
H1697 C1709 0.950 . S
H1698 C1706 0.950 . S
H1699 C1708 0.950 . S
H1700 C1710 0.950 . S
H1701 C1712 0.950 . S
H1702 C1714 0.950 . S
H1703 C1715 0.950 . S
C1704 H1696 0.950 . S
C1704 C1705 1.386 . S
C1704 C1706 1.391 . S
C1705 C1704 1.386 . S
C1705 C1709 1.393 . S
C1706 H1698 0.950 . S
C1706 C1704 1.391 . S
C1706 C1707 1.400 . S
C1707 C1706 1.400 . S
C1707 C1708 1.398 . S
C1707 C1713 1.491 . S
C1708 H1699 0.950 . S
C1708 C1707 1.398 . S
C1708 C1709 1.391 . S
C1709 H1697 0.950 . S
C1709 C1705 1.393 . S
C1709 C1708 1.391 . S
C1710 H1700 0.950 . S
C1710 C1711 1.386 . S
C1710 C1712 1.391 . S
C1711 C1710 1.386 . S
C1711 C1715 1.393 . S
C1712 H1701 0.950 . S
C1712 C1710 1.391 . S
C1712 C1713 1.400 . S
C1713 C1707 1.491 . S
C1713 C1712 1.400 . S
C1713 C1714 1.398 . S
C1714 H1702 0.950 . S
C1714 C1713 1.398 . S
C1714 C1715 1.391 . S
C1715 H1703 0.950 . S
C1715 C1711 1.393 . S
C1715 C1714 1.391 . S
H1716 C1724 0.950 . S
H1717 C1729 0.950 . S
H1718 C1726 0.950 . S
H1719 C1728 0.950 . S
H1720 C1730 0.950 . S
H1721 C1732 0.950 . S
H1722 C1734 0.950 . S
H1723 C1735 0.950 . S
C1724 H1716 0.950 . S
C1724 C1725 1.386 . S
C1724 C1726 1.391 . S
C1725 C1724 1.386 . S
C1725 C1729 1.393 . S
C1726 H1718 0.950 . S
C1726 C1724 1.391 . S
C1726 C1727 1.400 . S
C1727 C1726 1.400 . S
C1727 C1728 1.398 . S
C1727 C1733 1.491 . S
C1728 H1719 0.950 . S
C1728 C1727 1.398 . S
C1728 C1729 1.391 . S
C1729 H1717 0.950 . S
C1729 C1725 1.393 . S
C1729 C1728 1.391 . S
C1730 H1720 0.950 . S
C1730 C1731 1.386 . S
C1730 C1732 1.391 . S
C1731 C1730 1.386 . S
C1731 C1735 1.393 . S
C1732 H1721 0.950 . S
C1732 C1730 1.391 . S
C1732 C1733 1.400 . S
C1733 C1727 1.491 . S
C1733 C1732 1.400 . S
C1733 C1734 1.398 . S
C1734 H1722 0.950 . S
C1734 C1733 1.398 . S
C1734 C1735 1.391 . S
C1735 H1723 0.950 . S
C1735 C1731 1.393 . S
C1735 C1734 1.391 . S
H1736 C1744 0.950 . S
H1737 C1749 0.950 . S
H1738 C1746 0.950 . S
H1739 C1748 0.950 . S
H1740 C1750 0.950 . S
H1741 C1752 0.950 . S
H1742 C1754 0.950 . S
H1743 C1755 0.950 . S
C1744 H1736 0.950 . S
C1744 C1745 1.386 . S
C1744 C1746 1.391 . S
C1745 C1744 1.386 . S
C1745 C1749 1.393 . S
C1746 H1738 0.950 . S
C1746 C1744 1.391 . S
C1746 C1747 1.400 . S
C1747 C1746 1.400 . S
C1747 C1748 1.398 . S
C1747 C1753 1.491 . S
C1748 H1739 0.950 . S
C1748 C1747 1.398 . S
C1748 C1749 1.391 . S
C1749 H1737 0.950 . S
C1749 C1745 1.393 . S
C1749 C1748 1.391 . S
C1750 H1740 0.950 . S
C1750 C1751 1.386 . S
C1750 C1752 1.391 . S
C1751 C1750 1.386 . S
C1751 C1755 1.393 . S
C1752 H1741 0.950 . S
C1752 C1750 1.391 . S
C1752 C1753 1.400 . S
C1753 C1747 1.491 . S
C1753 C1752 1.400 . S
C1753 C1754 1.398 . S
C1754 H1742 0.950 . S
C1754 C1753 1.398 . S
C1754 C1755 1.391 . S
C1755 H1743 0.950 . S
C1755 C1751 1.393 . S
C1755 C1754 1.391 . S
H1756 C1764 0.950 . S
H1757 C1769 0.950 . S
H1758 C1766 0.950 . S
H1759 C1768 0.950 . S
H1760 C1770 0.950 . S
H1761 C1772 0.950 . S
H1762 C1774 0.950 . S
H1763 C1775 0.950 . S
C1764 H1756 0.950 . S
C1764 C1765 1.386 . S
C1764 C1766 1.391 . S
C1765 C1764 1.386 . S
C1765 C1769 1.393 . S
C1766 H1758 0.950 . S
C1766 C1764 1.391 . S
C1766 C1767 1.400 . S
C1767 C1766 1.400 . S
C1767 C1768 1.398 . S
C1767 C1773 1.491 . S
C1768 H1759 0.950 . S
C1768 C1767 1.398 . S
C1768 C1769 1.391 . S
C1769 H1757 0.950 . S
C1769 C1765 1.393 . S
C1769 C1768 1.391 . S
C1770 H1760 0.950 . S
C1770 C1771 1.386 . S
C1770 C1772 1.391 . S
C1771 C1770 1.386 . S
C1771 C1775 1.393 . S
C1772 H1761 0.950 . S
C1772 C1770 1.391 . S
C1772 C1773 1.400 . S
C1773 C1767 1.491 . S
C1773 C1772 1.400 . S
C1773 C1774 1.398 . S
C1774 H1762 0.950 . S
C1774 C1773 1.398 . S
C1774 C1775 1.391 . S
C1775 H1763 0.950 . S
C1775 C1771 1.393 . S
C1775 C1774 1.391 . S
H1776 C1784 0.950 . S
H1777 C1789 0.950 . S
H1778 C1786 0.950 . S
H1779 C1788 0.950 . S
H1780 C1790 0.950 . S
H1781 C1792 0.950 . S
H1782 C1794 0.950 . S
H1783 C1795 0.950 . S
C1784 H1776 0.950 . S
C1784 C1785 1.386 . S
C1784 C1786 1.391 . S
C1785 C1784 1.386 . S
C1785 C1789 1.393 . S
C1786 H1778 0.950 . S
C1786 C1784 1.391 . S
C1786 C1787 1.400 . S
C1787 C1786 1.400 . S
C1787 C1788 1.398 . S
C1787 C1793 1.491 . S
C1788 H1779 0.950 . S
C1788 C1787 1.398 . S
C1788 C1789 1.391 . S
C1789 H1777 0.950 . S
C1789 C1785 1.393 . S
C1789 C1788 1.391 . S
C1790 H1780 0.950 . S
C1790 C1791 1.386 . S
C1790 C1792 1.391 . S
C1791 C1790 1.386 . S
C1791 C1795 1.393 . S
C1792 H1781 0.950 . S
C1792 C1790 1.391 . S
C1792 C1793 1.400 . S
C1793 C1787 1.491 . S
C1793 C1792 1.400 . S
C1793 C1794 1.398 . S
C1794 H1782 0.950 . S
C1794 C1793 1.398 . S
C1794 C1795 1.391 . S
C1795 H1783 0.950 . S
C1795 C1791 1.393 . S
C1795 C1794 1.391 . S
H1796 C1804 0.950 . S
H1797 C1809 0.950 . S
H1798 C1806 0.950 . S
H1799 C1808 0.950 . S
H1800 C1810 0.950 . S
H1801 C1812 0.950 . S
H1802 C1814 0.950 . S
H1803 C1815 0.950 . S
C1804 H1796 0.950 . S
C1804 C1805 1.386 . S
C1804 C1806 1.391 . S
C1805 C1804 1.386 . S
C1805 C1809 1.393 . S
C1806 H1798 0.950 . S
C1806 C1804 1.391 . S
C1806 C1807 1.400 . S
C1807 C1806 1.400 . S
C1807 C1808 1.398 . S
C1807 C1813 1.491 . S
C1808 H1799 0.950 . S
C1808 C1807 1.398 . S
C1808 C1809 1.391 . S
C1809 H1797 0.950 . S
C1809 C1805 1.393 . S
C1809 C1808 1.391 . S
C1810 H1800 0.950 . S
C1810 C1811 1.386 . S
C1810 C1812 1.391 . S
C1811 C1810 1.386 . S
C1811 C1815 1.393 . S
C1812 H1801 0.950 . S
C1812 C1810 1.391 . S
C1812 C1813 1.400 . S
C1813 C1807 1.491 . S
C1813 C1812 1.400 . S
C1813 C1814 1.398 . S
C1814 H1802 0.950 . S
C1814 C1813 1.398 . S
C1814 C1815 1.391 . S
C1815 H1803 0.950 . S
C1815 C1811 1.393 . S
C1815 C1814 1.391 . S
H1816 C1824 0.950 . S
H1817 C1829 0.950 . S
H1818 C1826 0.950 . S
H1819 C1828 0.991 . S
H1820 C1830 0.950 . S
H1821 C1832 0.950 . S
H1822 C1834 0.950 . S
H1823 C1835 0.950 . S
C1824 H1816 0.950 . S
C1824 C1825 1.386 . S
C1824 C1826 1.391 . S
C1825 C1824 1.386 . S
C1825 C1829 1.393 . S
C1826 H1818 0.950 . S
C1826 C1824 1.391 . S
C1826 C1827 1.400 . S
C1827 C1826 1.400 . S
C1827 C1828 1.398 . S
C1827 C1833 1.491 . S
C1828 H1819 0.991 . S
C1828 C1827 1.398 . S
C1828 C1829 1.391 . S
C1829 H1817 0.950 . S
C1829 C1825 1.393 . S
C1829 C1828 1.391 . S
C1830 H1820 0.950 . S
C1830 C1831 1.386 . S
C1830 C1832 1.391 . S
C1831 C1830 1.386 . S
C1831 C1835 1.393 1_455 S
C1832 H1821 0.950 . S
C1832 C1830 1.391 . S
C1832 C1833 1.400 1_455 S
C1833 C1827 1.491 . S
C1833 C1832 1.400 1_655 S
C1833 C1834 1.398 . S
C1834 H1822 0.950 . S
C1834 C1833 1.398 . S
C1834 C1835 1.391 . S
C1835 H1823 0.950 . S
C1835 C1831 1.393 1_655 S
C1835 C1834 1.391 . S
H1836 C1844 0.950 . S
H1837 C1849 0.950 . S
H1838 C1846 0.950 . S
H1839 C1848 0.950 . S
H1840 C1850 0.950 . S
H1841 C1852 0.950 . S
H1842 C1854 0.950 . S
H1843 C1855 0.950 . S
C1844 H1836 0.950 . S
C1844 C1845 1.386 . S
C1844 C1846 1.391 . S
C1845 C1844 1.386 . S
C1845 C1849 1.393 . S
C1846 H1838 0.950 . S
C1846 C1844 1.391 . S
C1846 C1847 1.400 . S
C1847 C1846 1.400 . S
C1847 C1848 1.398 . S
C1847 C1853 1.491 . S
C1848 H1839 0.950 . S
C1848 C1847 1.398 . S
C1848 C1849 1.391 . S
C1849 H1837 0.950 . S
C1849 C1845 1.393 . S
C1849 C1848 1.391 . S
C1850 H1840 0.950 . S
C1850 C1851 1.386 . S
C1850 C1852 1.391 . S
C1851 C1850 1.386 . S
C1851 C1855 1.393 . S
C1852 H1841 0.950 . S
C1852 C1850 1.391 . S
C1852 C1853 1.400 . S
C1853 C1847 1.491 . S
C1853 C1852 1.400 . S
C1853 C1854 1.398 . S
C1854 H1842 0.950 . S
C1854 C1853 1.398 . S
C1854 C1855 1.391 . S
C1855 H1843 0.950 . S
C1855 C1851 1.393 . S
C1855 C1854 1.391 . S
H1856 C1864 0.950 . S
H1857 C1869 0.950 . S
H1858 C1866 0.950 . S
H1859 C1868 0.950 . S
H1860 C1870 0.950 . S
H1861 C1872 0.950 . S
H1862 C1874 0.950 . S
H1863 C1875 0.950 . S
C1864 H1856 0.950 . S
C1864 C1865 1.386 . S
C1864 C1866 1.391 . S
C1865 C1864 1.386 . S
C1865 C1869 1.393 . S
C1866 H1858 0.950 . S
C1866 C1864 1.391 . S
C1866 C1867 1.400 . S
C1867 C1866 1.400 . S
C1867 C1868 1.398 . S
C1867 C1873 1.491 . S
C1868 H1859 0.950 . S
C1868 C1867 1.398 . S
C1868 C1869 1.391 . S
C1869 H1857 0.950 . S
C1869 C1865 1.393 . S
C1869 C1868 1.391 . S
C1870 H1860 0.950 . S
C1870 C1871 1.386 . S
C1870 C1872 1.391 . S
C1871 C1870 1.386 . S
C1871 C1875 1.393 . S
C1872 H1861 0.950 . S
C1872 C1870 1.391 . S
C1872 C1873 1.400 . S
C1873 C1867 1.491 . S
C1873 C1872 1.400 . S
C1873 C1874 1.398 . S
C1874 H1862 0.950 . S
C1874 C1873 1.398 . S
C1874 C1875 1.391 . S
C1875 H1863 0.950 . S
C1875 C1871 1.393 . S
C1875 C1874 1.391 . S
H1876 C1884 0.950 . S
H1877 C1889 0.950 . S
H1878 C1886 0.950 . S
H1879 C1888 0.950 . S
H1880 C1890 0.950 . S
H1881 C1892 0.950 . S
H1882 C1894 0.950 . S
H1883 C1895 0.950 . S
C1884 H1876 0.950 . S
C1884 C1885 1.386 . S
C1884 C1886 1.391 . S
C1885 C1884 1.386 . S
C1885 C1889 1.393 . S
C1886 H1878 0.950 . S
C1886 C1884 1.391 . S
C1886 C1887 1.400 . S
C1887 C1886 1.400 . S
C1887 C1888 1.398 . S
C1887 C1893 1.491 . S
C1888 H1879 0.950 . S
C1888 C1887 1.398 . S
C1888 C1889 1.391 . S
C1889 H1877 0.950 . S
C1889 C1885 1.393 . S
C1889 C1888 1.391 . S
C1890 H1880 0.950 . S
C1890 C1891 1.386 . S
C1890 C1892 1.391 . S
C1891 C1890 1.386 . S
C1891 C1895 1.393 . S
C1892 H1881 0.950 . S
C1892 C1890 1.391 . S
C1892 C1893 1.400 . S
C1893 C1887 1.491 . S
C1893 C1892 1.400 . S
C1893 C1894 1.398 . S
C1894 H1882 0.950 . S
C1894 C1893 1.398 . S
C1894 C1895 1.391 . S
C1895 H1883 0.950 . S
C1895 C1891 1.393 . S
C1895 C1894 1.391 . S
H1896 C1904 0.950 . S
H1897 C1909 0.950 . S
H1898 C1906 0.950 1_455 S
H1899 C1908 0.950 . S
H1900 C1910 0.950 . S
H1901 C1912 0.950 . S
H1902 C1914 0.950 . S
H1903 C1915 0.950 . S
C1904 H1896 0.950 . S
C1904 C1905 1.386 . S
C1904 C1906 1.391 . S
C1905 C1904 1.386 . S
C1905 C1909 1.393 . S
C1906 H1898 0.950 1_655 S
C1906 C1904 1.391 . S
C1906 C1907 1.400 . S
C1907 C1906 1.400 . S
C1907 C1908 1.398 . S
C1907 C1913 1.491 . S
C1908 H1899 0.950 . S
C1908 C1907 1.398 . S
C1908 C1909 1.391 . S
C1909 H1897 0.950 . S
C1909 C1905 1.393 . S
C1909 C1908 1.391 . S
C1910 H1900 0.950 . S
C1910 C1911 1.386 1_655 S
C1910 C1912 1.391 . S
C1911 C1910 1.386 1_455 S
C1911 C1915 1.393 . S
C1912 H1901 0.950 . S
C1912 C1910 1.391 . S
C1912 C1913 1.400 . S
C1913 C1907 1.491 . S
C1913 C1912 1.400 . S
C1913 C1914 1.398 1_655 S
C1914 H1902 0.950 . S
C1914 C1913 1.398 1_455 S
C1914 C1915 1.391 . S
C1915 H1903 0.950 . S
C1915 C1911 1.393 . S
C1915 C1914 1.391 . S
H1916 C1924 0.950 . S
H1917 C1929 0.950 . S
H1918 C1926 0.950 . S
H1919 C1928 0.950 . S
H1920 C1930 0.950 . S
H1921 C1932 0.950 . S
H1922 C1934 0.950 . S
H1923 C1935 0.950 . S
C1924 H1916 0.950 . S
C1924 C1925 1.386 . S
C1924 C1926 1.391 . S
C1925 C1924 1.386 . S
C1925 C1929 1.393 . S
C1926 H1918 0.950 . S
C1926 C1924 1.391 . S
C1926 C1927 1.400 . S
C1927 C1926 1.400 . S
C1927 C1928 1.398 . S
C1927 C1933 1.491 . S
C1928 H1919 0.950 . S
C1928 C1927 1.398 . S
C1928 C1929 1.391 . S
C1929 H1917 0.950 . S
C1929 C1925 1.393 . S
C1929 C1928 1.391 . S
C1930 H1920 0.950 . S
C1930 C1931 1.386 . S
C1930 C1932 1.391 . S
C1931 C1930 1.386 . S
C1931 C1935 1.393 . S
C1932 H1921 0.950 . S
C1932 C1930 1.391 . S
C1932 C1933 1.400 . S
C1933 C1927 1.491 . S
C1933 C1932 1.400 . S
C1933 C1934 1.398 . S
C1934 H1922 0.950 . S
C1934 C1933 1.398 . S
C1934 C1935 1.391 . S
C1935 H1923 0.950 . S
C1935 C1931 1.393 . S
C1935 C1934 1.391 . S
H1936 C1944 0.950 . S
H1937 C1949 0.950 . S
H1938 C1946 0.950 . S
H1939 C1948 0.950 . S
H1940 C1950 0.950 . S
H1941 C1952 0.950 . S
H1942 C1954 0.950 . S
H1943 C1955 0.950 . S
C1944 H1936 0.950 . S
C1944 C1945 1.386 . S
C1944 C1946 1.391 . S
C1945 C1944 1.386 . S
C1945 C1949 1.393 . S
C1946 H1938 0.950 . S
C1946 C1944 1.391 . S
C1946 C1947 1.400 . S
C1947 C1946 1.400 . S
C1947 C1948 1.398 . S
C1947 C1953 1.491 . S
C1948 H1939 0.950 . S
C1948 C1947 1.398 . S
C1948 C1949 1.391 . S
C1949 H1937 0.950 . S
C1949 C1945 1.393 . S
C1949 C1948 1.391 . S
C1950 H1940 0.950 . S
C1950 C1951 1.386 . S
C1950 C1952 1.391 . S
C1951 C1950 1.386 . S
C1951 C1955 1.393 . S
C1952 H1941 0.950 . S
C1952 C1950 1.391 . S
C1952 C1953 1.400 . S
C1953 C1947 1.491 . S
C1953 C1952 1.400 . S
C1953 C1954 1.398 . S
C1954 H1942 0.950 . S
C1954 C1953 1.398 . S
C1954 C1955 1.391 . S
C1955 H1943 0.950 . S
C1955 C1951 1.393 . S
C1955 C1954 1.391 . S
H1956 C1964 0.950 . S
H1957 C1969 0.950 . S
H1958 C1966 0.950 . S
H1959 C1968 0.950 . S
H1960 C1970 0.950 . S
H1961 C1972 0.950 . S
H1962 C1974 0.950 . S
H1963 C1975 0.950 . S
C1964 H1956 0.950 . S
C1964 C1965 1.386 . S
C1964 C1966 1.391 . S
C1965 C1964 1.386 . S
C1965 C1969 1.393 . S
C1966 H1958 0.950 . S
C1966 C1964 1.391 . S
C1966 C1967 1.400 . S
C1967 C1966 1.400 . S
C1967 C1968 1.398 . S
C1967 C1973 1.491 . S
C1968 H1959 0.950 . S
C1968 C1967 1.398 . S
C1968 C1969 1.391 . S
C1969 H1957 0.950 . S
C1969 C1965 1.393 . S
C1969 C1968 1.391 . S
C1970 H1960 0.950 . S
C1970 C1971 1.386 . S
C1970 C1972 1.391 . S
C1971 C1970 1.386 . S
C1971 C1975 1.393 . S
C1972 H1961 0.950 . S
C1972 C1970 1.391 . S
C1972 C1973 1.400 . S
C1973 C1967 1.491 . S
C1973 C1972 1.400 . S
C1973 C1974 1.398 . S
C1974 H1962 0.950 . S
C1974 C1973 1.398 . S
C1974 C1975 1.391 . S
C1975 H1963 0.950 . S
C1975 C1971 1.393 . S
C1975 C1974 1.391 . S
H1976 C1984 0.950 . S
H1977 C1989 0.955 . S
H1978 C1986 0.950 . S
H1979 C1988 0.950 1_545 S
H1980 C1990 0.950 . S
H1981 C1992 0.950 . S
H1982 C1994 0.950 . S
H1983 C1995 0.950 . S
C1984 H1976 0.950 . S
C1984 C1985 1.386 1_554 S
C1984 C1986 1.391 . S
C1985 C1984 1.386 1_556 S
C1985 C1989 1.392 . S
C1986 H1978 0.950 . S
C1986 C1984 1.391 . S
C1986 C1987 1.400 . S
C1987 C1986 1.400 . S
C1987 C1988 1.398 . S
C1987 C1993 1.491 . S
C1988 H1979 0.950 1_565 S
C1988 C1987 1.398 . S
C1988 C1989 1.387 1_554 S
C1989 H1977 0.955 . S
C1989 C1985 1.392 . S
C1989 C1988 1.387 1_556 S
C1990 H1980 0.950 . S
C1990 C1991 1.386 1_545 S
C1990 C1992 1.391 . S
C1991 C1990 1.386 1_565 S
C1991 C1995 1.393 . S
C1992 H1981 0.950 . S
C1992 C1990 1.391 . S
C1992 C1993 1.400 1_545 S
C1993 C1987 1.491 . S
C1993 C1992 1.400 1_565 S
C1993 C1994 1.398 . S
C1994 H1982 0.950 . S
C1994 C1993 1.398 . S
C1994 C1995 1.391 . S
C1995 H1983 0.950 . S
C1995 C1991 1.393 . S
C1995 C1994 1.391 . S
H1996 C2004 0.950 . S
H1997 C2009 0.950 . S
H1998 C2006 0.950 . S
H1999 C2008 0.950 . S
H2000 C2010 0.973 . S
H2001 C2012 0.950 . S
H2002 C2014 0.950 . S
H2003 C2015 0.950 . S
C2004 H1996 0.950 . S
C2004 C2005 1.386 . S
C2004 C2006 1.391 . S
C2005 C2004 1.386 . S
C2005 C2009 1.393 1_554 S
C2006 H1998 0.950 . S
C2006 C2004 1.391 . S
C2006 C2007 1.400 . S
C2007 C2006 1.400 . S
C2007 C2008 1.398 1_554 S
C2007 C2013 1.491 . S
C2008 H1999 0.950 . S
C2008 C2007 1.398 1_556 S
C2008 C2009 1.391 . S
C2009 H1997 0.950 . S
C2009 C2005 1.393 1_556 S
C2009 C2008 1.391 . S
C2010 H2000 0.973 . S
C2010 C2011 1.354 1_556 S
C2010 C2012 1.400 . S
C2011 C2010 1.354 1_554 S
C2011 C2015 1.393 . S
C2012 H2001 0.950 . S
C2012 C2010 1.400 . S
C2012 C2013 1.400 1_556 S
C2013 C2007 1.491 . S
C2013 C2012 1.400 1_554 S
C2013 C2014 1.398 . S
C2014 H2002 0.950 . S
C2014 C2013 1.398 . S
C2014 C2015 1.391 . S
C2015 H2003 0.950 . S
C2015 C2011 1.393 . S
C2015 C2014 1.391 . S
H2016 C2024 0.950 . S
H2017 C2029 0.950 . S
H2018 C2026 0.950 . S
H2019 C2028 0.950 . S
H2020 C2030 0.950 . S
H2021 C2032 0.950 . S
H2022 C2034 0.950 . S
H2023 C2035 0.950 . S
C2024 H2016 0.950 . S
C2024 C2025 1.386 . S
C2024 C2026 1.391 . S
C2025 C2024 1.386 . S
C2025 C2029 1.393 . S
C2026 H2018 0.950 . S
C2026 C2024 1.391 . S
C2026 C2027 1.400 . S
C2027 C2026 1.400 . S
C2027 C2028 1.398 . S
C2027 C2033 1.491 . S
C2028 H2019 0.950 . S
C2028 C2027 1.398 . S
C2028 C2029 1.391 . S
C2029 H2017 0.950 . S
C2029 C2025 1.393 . S
C2029 C2028 1.391 . S
C2030 H2020 0.950 . S
C2030 C2031 1.386 . S
C2030 C2032 1.391 . S
C2031 C2030 1.386 . S
C2031 C2035 1.393 . S
C2032 H2021 0.950 . S
C2032 C2030 1.391 . S
C2032 C2033 1.400 . S
C2033 C2027 1.491 . S
C2033 C2032 1.400 . S
C2033 C2034 1.398 . S
C2034 H2022 0.950 . S
C2034 C2033 1.398 . S
C2034 C2035 1.391 . S
C2035 H2023 0.950 . S
C2035 C2031 1.393 . S
C2035 C2034 1.391 . S
H2036 C2044 0.950 . S
H2037 C2049 0.950 . S
H2038 C2046 0.950 . S
H2039 C2048 0.950 . S
H2040 C2050 0.950 . S
H2041 C2052 0.950 . S
H2042 C2054 0.950 . S
H2043 C2055 0.950 . S
C2044 H2036 0.950 . S
C2044 C2045 1.386 . S
C2044 C2046 1.391 . S
C2045 C2044 1.386 . S
C2045 C2049 1.393 . S
C2046 H2038 0.950 . S
C2046 C2044 1.391 . S
C2046 C2047 1.400 . S
C2047 C2046 1.400 . S
C2047 C2048 1.398 . S
C2047 C2053 1.491 . S
C2048 H2039 0.950 . S
C2048 C2047 1.398 . S
C2048 C2049 1.391 . S
C2049 H2037 0.950 . S
C2049 C2045 1.393 . S
C2049 C2048 1.391 . S
C2050 H2040 0.950 . S
C2050 C2051 1.386 . S
C2050 C2052 1.391 . S
C2051 C2050 1.386 . S
C2051 C2055 1.393 . S
C2052 H2041 0.950 . S
C2052 C2050 1.391 . S
C2052 C2053 1.400 . S
C2053 C2047 1.491 . S
C2053 C2052 1.400 . S
C2053 C2054 1.398 . S
C2054 H2042 0.950 . S
C2054 C2053 1.398 . S
C2054 C2055 1.391 . S
C2055 H2043 0.950 . S
C2055 C2051 1.393 . S
C2055 C2054 1.391 . S
H2056 C2064 0.950 . S
H2057 C2069 0.950 . S
H2058 C2066 0.950 . S
H2059 C2068 0.950 . S
H2060 C2070 0.950 . S
H2061 C2072 0.950 . S
H2062 C2074 0.950 . S
H2063 C2075 0.950 . S
C2064 H2056 0.950 . S
C2064 C2065 1.386 . S
C2064 C2066 1.391 . S
C2065 C2064 1.386 . S
C2065 C2069 1.393 . S
C2066 H2058 0.950 . S
C2066 C2064 1.391 . S
C2066 C2067 1.400 . S
C2067 C2066 1.400 . S
C2067 C2068 1.398 . S
C2067 C2073 1.491 . S
C2068 H2059 0.950 . S
C2068 C2067 1.398 . S
C2068 C2069 1.391 . S
C2069 H2057 0.950 . S
C2069 C2065 1.393 . S
C2069 C2068 1.391 . S
C2070 H2060 0.950 . S
C2070 C2071 1.386 . S
C2070 C2072 1.391 . S
C2071 C2070 1.386 . S
C2071 C2075 1.393 . S
C2072 H2061 0.950 . S
C2072 C2070 1.391 . S
C2072 C2073 1.400 . S
C2073 C2067 1.491 . S
C2073 C2072 1.400 . S
C2073 C2074 1.398 . S
C2074 H2062 0.950 . S
C2074 C2073 1.398 . S
C2074 C2075 1.391 . S
C2075 H2063 0.950 . S
C2075 C2071 1.393 . S
C2075 C2074 1.391 . S
H2076 C2084 0.950 . S
H2077 C2089 0.950 . S
H2078 C2086 0.950 . S
H2079 C2088 0.950 . S
H2080 C2090 0.950 . S
H2081 C2092 0.950 . S
H2082 C2094 0.950 . S
H2083 C2095 0.950 . S
C2084 H2076 0.950 . S
C2084 C2085 1.386 . S
C2084 C2086 1.391 . S
C2085 C2084 1.386 . S
C2085 C2089 1.393 . S
C2086 H2078 0.950 . S
C2086 C2084 1.391 . S
C2086 C2087 1.400 . S
C2087 C2086 1.400 . S
C2087 C2088 1.398 . S
C2087 C2093 1.491 . S
C2088 H2079 0.950 . S
C2088 C2087 1.398 . S
C2088 C2089 1.391 . S
C2089 H2077 0.950 . S
C2089 C2085 1.393 . S
C2089 C2088 1.391 . S
C2090 H2080 0.950 . S
C2090 C2091 1.386 . S
C2090 C2092 1.391 . S
C2091 C2090 1.386 . S
C2091 C2095 1.393 . S
C2092 H2081 0.950 . S
C2092 C2090 1.391 . S
C2092 C2093 1.400 . S
C2093 C2087 1.491 . S
C2093 C2092 1.400 . S
C2093 C2094 1.398 . S
C2094 H2082 0.950 . S
C2094 C2093 1.398 . S
C2094 C2095 1.391 . S
C2095 H2083 0.950 . S
C2095 C2091 1.393 . S
C2095 C2094 1.391 . S
H2096 C2104 0.950 . S
H2097 C2109 0.950 . S
H2098 C2106 0.950 . S
H2099 C2108 0.950 . S
H2100 C2110 0.950 . S
H2101 C2112 0.950 . S
H2102 C2114 0.950 . S
H2103 C2115 0.950 . S
C2104 H2096 0.950 . S
C2104 C2105 1.386 . S
C2104 C2106 1.391 . S
C2105 C2104 1.386 . S
C2105 C2109 1.393 . S
C2106 H2098 0.950 . S
C2106 C2104 1.391 . S
C2106 C2107 1.400 . S
C2107 C2106 1.400 . S
C2107 C2108 1.398 . S
C2107 C2113 1.491 . S
C2108 H2099 0.950 . S
C2108 C2107 1.398 . S
C2108 C2109 1.391 . S
C2109 H2097 0.950 . S
C2109 C2105 1.393 . S
C2109 C2108 1.391 . S
C2110 H2100 0.950 . S
C2110 C2111 1.386 . S
C2110 C2112 1.391 . S
C2111 C2110 1.386 . S
C2111 C2115 1.393 . S
C2112 H2101 0.950 . S
C2112 C2110 1.391 . S
C2112 C2113 1.400 . S
C2113 C2107 1.491 . S
C2113 C2112 1.400 . S
C2113 C2114 1.398 . S
C2114 H2102 0.950 . S
C2114 C2113 1.398 . S
C2114 C2115 1.391 . S
C2115 H2103 0.950 . S
C2115 C2111 1.393 . S
C2115 C2114 1.391 . S
H2116 C2124 0.950 . S
H2117 C2129 0.950 . S
H2118 C2126 0.950 . S
H2119 C2128 0.950 . S
H2120 C2130 0.950 . S
H2121 C2132 0.950 . S
H2122 C2134 0.950 . S
H2123 C2135 0.950 . S
C2124 H2116 0.950 . S
C2124 C2125 1.386 . S
C2124 C2126 1.391 . S
C2125 C2124 1.386 . S
C2125 C2129 1.393 . S
C2126 H2118 0.950 . S
C2126 C2124 1.391 . S
C2126 C2127 1.400 . S
C2127 C2126 1.400 . S
C2127 C2128 1.398 . S
C2127 C2133 1.491 . S
C2128 H2119 0.950 . S
C2128 C2127 1.398 . S
C2128 C2129 1.391 . S
C2129 H2117 0.950 . S
C2129 C2125 1.393 . S
C2129 C2128 1.391 . S
C2130 H2120 0.950 . S
C2130 C2131 1.386 . S
C2130 C2132 1.391 . S
C2131 C2130 1.386 . S
C2131 C2135 1.393 . S
C2132 H2121 0.950 . S
C2132 C2130 1.391 . S
C2132 C2133 1.400 . S
C2133 C2127 1.491 . S
C2133 C2132 1.400 . S
C2133 C2134 1.398 . S
C2134 H2122 0.950 . S
C2134 C2133 1.398 . S
C2134 C2135 1.391 . S
C2135 H2123 0.950 . S
C2135 C2131 1.393 . S
C2135 C2134 1.391 . S
H2136 C2144 0.950 . S
H2137 C2149 0.950 . S
H2138 C2146 0.950 . S
H2139 C2148 0.950 . S
H2140 C2150 0.950 . S
H2141 C2152 0.950 . S
H2142 C2154 0.950 . S
H2143 C2155 0.950 . S
C2144 H2136 0.950 . S
C2144 C2145 1.386 . S
C2144 C2146 1.391 . S
C2145 C2144 1.386 . S
C2145 C2149 1.393 . S
C2146 H2138 0.950 . S
C2146 C2144 1.391 . S
C2146 C2147 1.400 . S
C2147 C2146 1.400 . S
C2147 C2148 1.398 . S
C2147 C2153 1.491 . S
C2148 H2139 0.950 . S
C2148 C2147 1.398 . S
C2148 C2149 1.391 . S
C2149 H2137 0.950 . S
C2149 C2145 1.393 . S
C2149 C2148 1.391 . S
C2150 H2140 0.950 . S
C2150 C2151 1.386 . S
C2150 C2152 1.391 . S
C2151 C2150 1.386 . S
C2151 C2155 1.393 . S
C2152 H2141 0.950 . S
C2152 C2150 1.391 . S
C2152 C2153 1.400 . S
C2153 C2147 1.491 . S
C2153 C2152 1.400 . S
C2153 C2154 1.398 . S
C2154 H2142 0.950 . S
C2154 C2153 1.398 . S
C2154 C2155 1.391 . S
C2155 H2143 0.950 . S
C2155 C2151 1.393 . S
C2155 C2154 1.391 . S
H2156 C2164 0.950 . S
H2157 C2169 0.950 . S
H2158 C2166 0.950 . S
H2159 C2168 0.950 . S
H2160 C2170 0.950 . S
H2161 C2172 0.950 . S
H2162 C2174 0.950 . S
H2163 C2175 0.950 . S
C2164 H2156 0.950 . S
C2164 C2165 1.386 . S
C2164 C2166 1.391 . S
C2165 C2164 1.386 . S
C2165 C2169 1.393 . S
C2166 H2158 0.950 . S
C2166 C2164 1.391 . S
C2166 C2167 1.400 . S
C2167 C2166 1.400 . S
C2167 C2168 1.398 . S
C2167 C2173 1.491 . S
C2168 H2159 0.950 . S
C2168 C2167 1.398 . S
C2168 C2169 1.391 . S
C2169 H2157 0.950 . S
C2169 C2165 1.393 . S
C2169 C2168 1.391 . S
C2170 H2160 0.950 . S
C2170 C2171 1.386 . S
C2170 C2172 1.391 . S
C2171 C2170 1.386 . S
C2171 C2175 1.393 . S
C2172 H2161 0.950 . S
C2172 C2170 1.391 . S
C2172 C2173 1.400 . S
C2173 C2167 1.491 . S
C2173 C2172 1.400 . S
C2173 C2174 1.398 . S
C2174 H2162 0.950 . S
C2174 C2173 1.398 . S
C2174 C2175 1.391 . S
C2175 H2163 0.950 . S
C2175 C2171 1.393 . S
C2175 C2174 1.391 . S
H2176 C2184 0.950 . S
H2177 C2189 0.950 . S
H2178 C2186 0.950 . S
H2179 C2188 0.950 . S
H2180 C2190 0.950 . S
H2181 C2192 0.950 . S
H2182 C2194 0.950 . S
H2183 C2195 0.950 . S
C2184 H2176 0.950 . S
C2184 C2185 1.386 . S
C2184 C2186 1.391 . S
C2185 C2184 1.386 . S
C2185 C2189 1.393 . S
C2186 H2178 0.950 . S
C2186 C2184 1.391 . S
C2186 C2187 1.400 . S
C2187 C2186 1.400 . S
C2187 C2188 1.398 . S
C2187 C2193 1.491 . S
C2188 H2179 0.950 . S
C2188 C2187 1.398 . S
C2188 C2189 1.391 . S
C2189 H2177 0.950 . S
C2189 C2185 1.393 . S
C2189 C2188 1.391 . S
C2190 H2180 0.950 . S
C2190 C2191 1.386 . S
C2190 C2192 1.391 . S
C2191 C2190 1.386 . S
C2191 C2195 1.393 . S
C2192 H2181 0.950 . S
C2192 C2190 1.391 . S
C2192 C2193 1.400 . S
C2193 C2187 1.491 . S
C2193 C2192 1.400 . S
C2193 C2194 1.398 . S
C2194 H2182 0.950 . S
C2194 C2193 1.398 . S
C2194 C2195 1.391 . S
C2195 H2183 0.950 . S
C2195 C2191 1.393 . S
C2195 C2194 1.391 . S
H2196 C2204 0.950 . S
H2197 C2209 0.950 . S
H2198 C2206 0.950 . S
H2199 C2208 0.950 . S
H2200 C2210 0.950 . S
H2201 C2212 0.950 . S
H2202 C2214 0.950 . S
H2203 C2215 0.950 . S
C2204 H2196 0.950 . S
C2204 C2205 1.386 . S
C2204 C2206 1.391 . S
C2205 C2204 1.386 . S
C2205 C2209 1.393 . S
C2206 H2198 0.950 . S
C2206 C2204 1.391 . S
C2206 C2207 1.400 . S
C2207 C2206 1.400 . S
C2207 C2208 1.398 . S
C2207 C2213 1.491 . S
C2208 H2199 0.950 . S
C2208 C2207 1.398 . S
C2208 C2209 1.391 . S
C2209 H2197 0.950 . S
C2209 C2205 1.393 . S
C2209 C2208 1.391 . S
C2210 H2200 0.950 . S
C2210 C2211 1.386 . S
C2210 C2212 1.391 . S
C2211 C2210 1.386 . S
C2211 C2215 1.393 . S
C2212 H2201 0.950 . S
C2212 C2210 1.391 . S
C2212 C2213 1.400 . S
C2213 C2207 1.491 . S
C2213 C2212 1.400 . S
C2213 C2214 1.398 . S
C2214 H2202 0.950 . S
C2214 C2213 1.398 . S
C2214 C2215 1.391 . S
C2215 H2203 0.950 . S
C2215 C2211 1.393 . S
C2215 C2214 1.391 . S
H2216 C2224 0.950 . S
H2217 C2229 0.930 1_655 S
H2218 C2226 0.950 . S
H2219 C2228 0.950 1_655 S
H2220 C2230 0.950 1_655 S
H2221 C2232 0.950 1_655 S
H2222 C2234 0.950 . S
H2223 C2235 0.950 . S
C2224 H2216 0.950 . S
C2224 C2225 1.386 . S
C2224 C2226 1.391 . S
C2225 C2224 1.386 . S
C2225 C2229 1.393 . S
C2226 H2218 0.950 . S
C2226 C2224 1.391 . S
C2226 C2227 1.400 . S
C2227 C2226 1.400 . S
C2227 C2228 1.398 . S
C2227 C2233 1.491 . S
C2228 H2219 0.950 1_455 S
C2228 C2227 1.398 . S
C2228 C2229 1.391 . S
C2229 H2217 0.930 1_455 S
C2229 C2225 1.393 . S
C2229 C2228 1.391 . S
C2230 H2220 0.950 1_455 S
C2230 C2231 1.386 . S
C2230 C2232 1.391 . S
C2231 C2230 1.386 . S
C2231 C2235 1.393 . S
C2232 H2221 0.950 1_455 S
C2232 C2230 1.391 . S
C2232 C2233 1.400 . S
C2233 C2227 1.491 . S
C2233 C2232 1.400 . S
C2233 C2234 1.398 . S
C2234 H2222 0.950 . S
C2234 C2233 1.398 . S
C2234 C2235 1.391 . S
C2235 H2223 0.950 . S
C2235 C2231 1.393 . S
C2235 C2234 1.391 . S
H2236 C2244 0.950 . S
H2237 C2249 0.950 . S
H2238 C2246 0.950 . S
H2239 C2248 0.950 . S
H2240 C2250 0.950 . S
H2241 C2252 0.950 . S
H2242 C2254 0.950 . S
H2243 C2255 0.950 . S
C2244 H2236 0.950 . S
C2244 C2245 1.386 . S
C2244 C2246 1.391 . S
C2245 C2244 1.386 . S
C2245 C2249 1.393 . S
C2246 H2238 0.950 . S
C2246 C2244 1.391 . S
C2246 C2247 1.400 . S
C2247 C2246 1.400 . S
C2247 C2248 1.398 . S
C2247 C2253 1.491 . S
C2248 H2239 0.950 . S
C2248 C2247 1.398 . S
C2248 C2249 1.391 . S
C2249 H2237 0.950 . S
C2249 C2245 1.393 . S
C2249 C2248 1.391 . S
C2250 H2240 0.950 . S
C2250 C2251 1.386 . S
C2250 C2252 1.391 . S
C2251 C2250 1.386 . S
C2251 C2255 1.393 . S
C2252 H2241 0.950 . S
C2252 C2250 1.391 . S
C2252 C2253 1.400 . S
C2253 C2247 1.491 . S
C2253 C2252 1.400 . S
C2253 C2254 1.398 . S
C2254 H2242 0.950 . S
C2254 C2253 1.398 . S
C2254 C2255 1.391 . S
C2255 H2243 0.950 . S
C2255 C2251 1.393 . S
C2255 C2254 1.391 . S
H2256 C2264 0.950 . S
H2257 C2269 0.950 . S
H2258 C2266 0.950 . S
H2259 C2268 0.950 . S
H2260 C2270 0.950 . S
H2261 C2272 0.950 . S
H2262 C2274 0.950 . S
H2263 C2275 0.950 . S
C2264 H2256 0.950 . S
C2264 C2265 1.386 . S
C2264 C2266 1.391 . S
C2265 C2264 1.386 . S
C2265 C2269 1.393 . S
C2266 H2258 0.950 . S
C2266 C2264 1.391 . S
C2266 C2267 1.400 . S
C2267 C2266 1.400 . S
C2267 C2268 1.398 . S
C2267 C2273 1.491 . S
C2268 H2259 0.950 . S
C2268 C2267 1.398 . S
C2268 C2269 1.391 . S
C2269 H2257 0.950 . S
C2269 C2265 1.393 . S
C2269 C2268 1.391 . S
C2270 H2260 0.950 . S
C2270 C2271 1.386 . S
C2270 C2272 1.391 . S
C2271 C2270 1.386 . S
C2271 C2275 1.393 . S
C2272 H2261 0.950 . S
C2272 C2270 1.391 . S
C2272 C2273 1.400 . S
C2273 C2267 1.491 . S
C2273 C2272 1.400 . S
C2273 C2274 1.398 . S
C2274 H2262 0.950 . S
C2274 C2273 1.398 . S
C2274 C2275 1.391 . S
C2275 H2263 0.950 . S
C2275 C2271 1.393 . S
C2275 C2274 1.391 . S
H2276 C2284 0.950 . S
H2277 C2289 0.950 . S
H2278 C2286 0.950 . S
H2279 C2288 0.950 . S
H2280 C2290 0.950 . S
H2281 C2292 0.950 . S
H2282 C2294 0.950 . S
H2283 C2295 0.950 . S
C2284 H2276 0.950 . S
C2284 C2285 1.386 . S
C2284 C2286 1.391 . S
C2285 C2284 1.386 . S
C2285 C2289 1.393 . S
C2286 H2278 0.950 . S
C2286 C2284 1.391 . S
C2286 C2287 1.400 . S
C2287 C2286 1.400 . S
C2287 C2288 1.398 . S
C2287 C2293 1.491 . S
C2288 H2279 0.950 . S
C2288 C2287 1.398 . S
C2288 C2289 1.391 . S
C2289 H2277 0.950 . S
C2289 C2285 1.393 . S
C2289 C2288 1.391 . S
C2290 H2280 0.950 . S
C2290 C2291 1.386 . S
C2290 C2292 1.391 . S
C2291 C2290 1.386 . S
C2291 C2295 1.393 . S
C2292 H2281 0.950 . S
C2292 C2290 1.391 . S
C2292 C2293 1.400 . S
C2293 C2287 1.491 . S
C2293 C2292 1.400 . S
C2293 C2294 1.398 . S
C2294 H2282 0.950 . S
C2294 C2293 1.398 . S
C2294 C2295 1.391 . S
C2295 H2283 0.950 . S
C2295 C2291 1.393 . S
C2295 C2294 1.391 . S
H2296 C2304 0.950 . S
H2297 C2309 0.950 . S
H2298 C2306 0.950 . S
H2299 C2308 0.950 . S
H2300 C2310 0.950 . S
H2301 C2312 0.950 . S
H2302 C2314 0.950 . S
H2303 C2315 0.950 . S
C2304 H2296 0.950 . S
C2304 C2305 1.386 . S
C2304 C2306 1.391 . S
C2305 C2304 1.386 . S
C2305 C2309 1.393 . S
C2306 H2298 0.950 . S
C2306 C2304 1.391 . S
C2306 C2307 1.400 . S
C2307 C2306 1.400 . S
C2307 C2308 1.398 . S
C2307 C2313 1.491 . S
C2308 H2299 0.950 . S
C2308 C2307 1.398 . S
C2308 C2309 1.391 . S
C2309 H2297 0.950 . S
C2309 C2305 1.393 . S
C2309 C2308 1.391 . S
C2310 H2300 0.950 . S
C2310 C2311 1.386 . S
C2310 C2312 1.391 . S
C2311 C2310 1.386 . S
C2311 C2315 1.393 . S
C2312 H2301 0.950 . S
C2312 C2310 1.391 . S
C2312 C2313 1.400 . S
C2313 C2307 1.491 . S
C2313 C2312 1.400 . S
C2313 C2314 1.398 . S
C2314 H2302 0.950 . S
C2314 C2313 1.398 . S
C2314 C2315 1.391 . S
C2315 H2303 0.950 . S
C2315 C2311 1.393 . S
C2315 C2314 1.391 . S
H2316 C2324 0.950 . S
H2317 C2329 0.950 . S
H2318 C2326 0.950 . S
H2319 C2328 0.950 . S
H2320 C2330 0.950 . S
H2321 C2332 0.950 . S
H2322 C2334 0.950 . S
H2323 C2335 0.950 . S
C2324 H2316 0.950 . S
C2324 C2325 1.386 . S
C2324 C2326 1.391 . S
C2325 C2324 1.386 . S
C2325 C2329 1.393 . S
C2326 H2318 0.950 . S
C2326 C2324 1.391 . S
C2326 C2327 1.400 . S
C2327 C2326 1.400 . S
C2327 C2328 1.398 . S
C2327 C2333 1.491 . S
C2328 H2319 0.950 . S
C2328 C2327 1.398 . S
C2328 C2329 1.391 . S
C2329 H2317 0.950 . S
C2329 C2325 1.393 . S
C2329 C2328 1.391 . S
C2330 H2320 0.950 . S
C2330 C2331 1.386 . S
C2330 C2332 1.391 . S
C2331 C2330 1.386 . S
C2331 C2335 1.393 . S
C2332 H2321 0.950 . S
C2332 C2330 1.391 . S
C2332 C2333 1.400 . S
C2333 C2327 1.491 . S
C2333 C2332 1.400 . S
C2333 C2334 1.398 . S
C2334 H2322 0.950 . S
C2334 C2333 1.398 . S
C2334 C2335 1.391 . S
C2335 H2323 0.950 . S
C2335 C2331 1.393 . S
C2335 C2334 1.391 . S
H2336 C2344 0.950 . S
H2337 C2349 0.950 . S
H2338 C2346 0.987 . S
H2339 C2348 0.950 . S
H2340 C2350 0.950 . S
H2341 C2352 0.950 . S
H2342 C2354 0.950 1_565 S
H2343 C2355 0.950 1_565 S
C2344 H2336 0.950 . S
C2344 C2345 1.386 1_565 S
C2344 C2346 1.388 . S
C2345 C2344 1.386 1_545 S
C2345 C2349 1.393 . S
C2346 H2338 0.987 . S
C2346 C2344 1.388 . S
C2346 C2347 1.368 1_565 S
C2347 C2346 1.368 1_545 S
C2347 C2348 1.398 . S
C2347 C2353 1.491 . S
C2348 H2339 0.950 . S
C2348 C2347 1.398 . S
C2348 C2349 1.391 . S
C2349 H2337 0.950 . S
C2349 C2345 1.393 . S
C2349 C2348 1.391 . S
C2350 H2340 0.950 . S
C2350 C2351 1.386 . S
C2350 C2352 1.391 . S
C2351 C2350 1.386 . S
C2351 C2355 1.393 . S
C2352 H2341 0.950 . S
C2352 C2350 1.391 . S
C2352 C2353 1.400 . S
C2353 C2347 1.491 . S
C2353 C2352 1.400 . S
C2353 C2354 1.398 . S
C2354 H2342 0.950 1_545 S
C2354 C2353 1.398 . S
C2354 C2355 1.391 . S
C2355 H2343 0.950 1_545 S
C2355 C2351 1.393 . S
C2355 C2354 1.391 . S
H2356 C2364 0.950 . S
H2357 C2369 0.950 . S
H2358 C2366 0.950 . S
H2359 C2368 0.950 . S
H2360 C2370 0.950 . S
H2361 C2372 0.950 . S
H2362 C2374 0.950 . S
H2363 C2375 0.950 . S
C2364 H2356 0.950 . S
C2364 C2365 1.386 . S
C2364 C2366 1.391 . S
C2365 C2364 1.386 . S
C2365 C2369 1.393 . S
C2366 H2358 0.950 . S
C2366 C2364 1.391 . S
C2366 C2367 1.400 . S
C2367 C2366 1.400 . S
C2367 C2368 1.398 . S
C2367 C2373 1.491 . S
C2368 H2359 0.950 . S
C2368 C2367 1.398 . S
C2368 C2369 1.391 . S
C2369 H2357 0.950 . S
C2369 C2365 1.393 . S
C2369 C2368 1.391 . S
C2370 H2360 0.950 . S
C2370 C2371 1.386 . S
C2370 C2372 1.391 . S
C2371 C2370 1.386 . S
C2371 C2375 1.393 . S
C2372 H2361 0.950 . S
C2372 C2370 1.391 . S
C2372 C2373 1.400 . S
C2373 C2367 1.491 . S
C2373 C2372 1.400 . S
C2373 C2374 1.398 . S
C2374 H2362 0.950 . S
C2374 C2373 1.398 . S
C2374 C2375 1.391 . S
C2375 H2363 0.950 . S
C2375 C2371 1.393 . S
C2375 C2374 1.391 . S
H2376 C2384 0.950 . S
H2377 C2389 0.950 . S
H2378 C2386 0.950 . S
H2379 C2388 0.950 . S
H2380 C2390 0.950 . S
H2381 C2392 0.950 . S
H2382 C2394 0.950 . S
H2383 C2395 0.950 . S
C2384 H2376 0.950 . S
C2384 C2385 1.386 . S
C2384 C2386 1.391 . S
C2385 C2384 1.386 . S
C2385 C2389 1.393 . S
C2386 H2378 0.950 . S
C2386 C2384 1.391 . S
C2386 C2387 1.400 . S
C2387 C2386 1.400 . S
C2387 C2388 1.398 . S
C2387 C2393 1.491 . S
C2388 H2379 0.950 . S
C2388 C2387 1.398 . S
C2388 C2389 1.391 . S
C2389 H2377 0.950 . S
C2389 C2385 1.393 . S
C2389 C2388 1.391 . S
C2390 H2380 0.950 . S
C2390 C2391 1.386 . S
C2390 C2392 1.391 . S
C2391 C2390 1.386 . S
C2391 C2395 1.393 . S
C2392 H2381 0.950 . S
C2392 C2390 1.391 . S
C2392 C2393 1.400 . S
C2393 C2387 1.491 . S
C2393 C2392 1.400 . S
C2393 C2394 1.398 . S
C2394 H2382 0.950 . S
C2394 C2393 1.398 . S
C2394 C2395 1.391 . S
C2395 H2383 0.950 . S
C2395 C2391 1.393 . S
C2395 C2394 1.391 . S
H2396 C2404 0.950 . S
H2397 C2409 0.950 . S
H2398 C2406 0.950 . S
H2399 C2408 0.950 . S
H2400 C2410 0.950 . S
H2401 C2412 0.950 . S
H2402 C2414 0.950 . S
H2403 C2415 0.950 . S
C2404 H2396 0.950 . S
C2404 C2405 1.386 . S
C2404 C2406 1.391 . S
C2405 C2404 1.386 . S
C2405 C2409 1.393 . S
C2406 H2398 0.950 . S
C2406 C2404 1.391 . S
C2406 C2407 1.400 . S
C2407 C2406 1.400 . S
C2407 C2408 1.398 . S
C2407 C2413 1.491 . S
C2408 H2399 0.950 . S
C2408 C2407 1.398 . S
C2408 C2409 1.391 . S
C2409 H2397 0.950 . S
C2409 C2405 1.393 . S
C2409 C2408 1.391 . S
C2410 H2400 0.950 . S
C2410 C2411 1.386 . S
C2410 C2412 1.391 . S
C2411 C2410 1.386 . S
C2411 C2415 1.393 . S
C2412 H2401 0.950 . S
C2412 C2410 1.391 . S
C2412 C2413 1.400 . S
C2413 C2407 1.491 . S
C2413 C2412 1.400 . S
C2413 C2414 1.398 . S
C2414 H2402 0.950 . S
C2414 C2413 1.398 . S
C2414 C2415 1.391 . S
C2415 H2403 0.950 . S
C2415 C2411 1.393 . S
C2415 C2414 1.391 . S
H2416 C2424 0.950 . S
H2417 C2429 0.950 . S
H2418 C2426 0.950 . S
H2419 C2428 0.950 . S
H2420 C2430 0.950 . S
H2421 C2432 0.950 . S
H2422 C2434 0.950 . S
H2423 C2435 0.950 . S
C2424 H2416 0.950 . S
C2424 C2425 1.386 . S
C2424 C2426 1.391 . S
C2425 C2424 1.386 . S
C2425 C2429 1.393 1_545 S
C2426 H2418 0.950 . S
C2426 C2424 1.391 . S
C2426 C2427 1.400 . S
C2427 C2426 1.400 . S
C2427 C2428 1.398 1_545 S
C2427 C2433 1.491 . S
C2428 H2419 0.950 . S
C2428 C2427 1.398 1_565 S
C2428 C2429 1.391 . S
C2429 H2417 0.950 . S
C2429 C2425 1.393 1_565 S
C2429 C2428 1.391 . S
C2430 H2420 0.950 . S
C2430 C2431 1.386 1_565 S
C2430 C2432 1.391 . S
C2431 C2430 1.386 1_545 S
C2431 C2435 1.393 . S
C2432 H2421 0.950 . S
C2432 C2430 1.391 . S
C2432 C2433 1.400 1_565 S
C2433 C2427 1.491 . S
C2433 C2432 1.400 1_545 S
C2433 C2434 1.398 . S
C2434 H2422 0.950 . S
C2434 C2433 1.398 . S
C2434 C2435 1.391 . S
C2435 H2423 0.950 . S
C2435 C2431 1.393 . S
C2435 C2434 1.391 . S
H2436 C2444 0.950 . S
H2437 C2449 0.950 . S
H2438 C2446 0.950 . S
H2439 C2448 0.950 . S
H2440 C2450 0.950 . S
H2441 C2452 0.950 . S
H2442 C2454 0.950 . S
H2443 C2455 0.950 . S
C2444 H2436 0.950 . S
C2444 C2445 1.386 . S
C2444 C2446 1.391 . S
C2445 C2444 1.386 . S
C2445 C2449 1.393 . S
C2446 H2438 0.950 . S
C2446 C2444 1.391 . S
C2446 C2447 1.400 . S
C2447 C2446 1.400 . S
C2447 C2448 1.398 . S
C2447 C2453 1.491 . S
C2448 H2439 0.950 . S
C2448 C2447 1.398 . S
C2448 C2449 1.391 . S
C2449 H2437 0.950 . S
C2449 C2445 1.393 . S
C2449 C2448 1.391 . S
C2450 H2440 0.950 . S
C2450 C2451 1.386 . S
C2450 C2452 1.391 . S
C2451 C2450 1.386 . S
C2451 C2455 1.393 . S
C2452 H2441 0.950 . S
C2452 C2450 1.391 . S
C2452 C2453 1.400 . S
C2453 C2447 1.491 . S
C2453 C2452 1.400 . S
C2453 C2454 1.398 . S
C2454 H2442 0.950 . S
C2454 C2453 1.398 . S
C2454 C2455 1.391 . S
C2455 H2443 0.950 . S
C2455 C2451 1.393 . S
C2455 C2454 1.391 . S
H2456 C2464 0.950 . S
H2457 C2469 0.950 . S
H2458 C2466 0.950 . S
H2459 C2468 0.950 . S
H2460 C2470 0.950 . S
H2461 C2472 0.950 . S
H2462 C2474 0.950 . S
H2463 C2475 0.950 . S
C2464 H2456 0.950 . S
C2464 C2465 1.386 . S
C2464 C2466 1.391 . S
C2465 C2464 1.386 . S
C2465 C2469 1.393 . S
C2466 H2458 0.950 . S
C2466 C2464 1.391 . S
C2466 C2467 1.400 . S
C2467 C2466 1.400 . S
C2467 C2468 1.398 . S
C2467 C2473 1.491 . S
C2468 H2459 0.950 . S
C2468 C2467 1.398 . S
C2468 C2469 1.391 . S
C2469 H2457 0.950 . S
C2469 C2465 1.393 . S
C2469 C2468 1.391 . S
C2470 H2460 0.950 . S
C2470 C2471 1.386 . S
C2470 C2472 1.391 . S
C2471 C2470 1.386 . S
C2471 C2475 1.393 . S
C2472 H2461 0.950 . S
C2472 C2470 1.391 . S
C2472 C2473 1.400 . S
C2473 C2467 1.491 . S
C2473 C2472 1.400 . S
C2473 C2474 1.398 . S
C2474 H2462 0.950 . S
C2474 C2473 1.398 . S
C2474 C2475 1.391 . S
C2475 H2463 0.950 . S
C2475 C2471 1.393 . S
C2475 C2474 1.391 . S
H2476 C2484 0.950 . S
H2477 C2489 0.950 . S
H2478 C2486 0.950 . S
H2479 C2488 0.950 . S
H2480 C2490 0.950 . S
H2481 C2492 0.950 . S
H2482 C2494 0.950 . S
H2483 C2495 0.950 . S
C2484 H2476 0.950 . S
C2484 C2485 1.386 . S
C2484 C2486 1.391 . S
C2485 C2484 1.386 . S
C2485 C2489 1.393 . S
C2486 H2478 0.950 . S
C2486 C2484 1.391 . S
C2486 C2487 1.400 . S
C2487 C2486 1.400 . S
C2487 C2488 1.398 . S
C2487 C2493 1.491 . S
C2488 H2479 0.950 . S
C2488 C2487 1.398 . S
C2488 C2489 1.391 . S
C2489 H2477 0.950 . S
C2489 C2485 1.393 . S
C2489 C2488 1.391 . S
C2490 H2480 0.950 . S
C2490 C2491 1.386 . S
C2490 C2492 1.391 . S
C2491 C2490 1.386 . S
C2491 C2495 1.393 . S
C2492 H2481 0.950 . S
C2492 C2490 1.391 . S
C2492 C2493 1.400 . S
C2493 C2487 1.491 . S
C2493 C2492 1.400 . S
C2493 C2494 1.398 . S
C2494 H2482 0.950 . S
C2494 C2493 1.398 . S
C2494 C2495 1.391 . S
C2495 H2483 0.950 . S
C2495 C2491 1.393 . S
C2495 C2494 1.391 . S
H2496 C2504 0.950 . S
H2497 C2509 0.950 . S
H2498 C2506 0.950 . S
H2499 C2508 0.950 . S
H2500 C2510 0.950 . S
H2501 C2512 0.950 . S
H2502 C2514 0.950 . S
H2503 C2515 0.950 . S
C2504 H2496 0.950 . S
C2504 C2505 1.386 . S
C2504 C2506 1.391 . S
C2505 C2504 1.386 . S
C2505 C2509 1.393 . S
C2506 H2498 0.950 . S
C2506 C2504 1.391 . S
C2506 C2507 1.400 . S
C2507 C2506 1.400 . S
C2507 C2508 1.398 . S
C2507 C2513 1.491 . S
C2508 H2499 0.950 . S
C2508 C2507 1.398 . S
C2508 C2509 1.391 . S
C2509 H2497 0.950 . S
C2509 C2505 1.393 . S
C2509 C2508 1.391 . S
C2510 H2500 0.950 . S
C2510 C2511 1.386 . S
C2510 C2512 1.391 . S
C2511 C2510 1.386 . S
C2511 C2515 1.393 . S
C2512 H2501 0.950 . S
C2512 C2510 1.391 . S
C2512 C2513 1.400 . S
C2513 C2507 1.491 . S
C2513 C2512 1.400 . S
C2513 C2514 1.398 . S
C2514 H2502 0.950 . S
C2514 C2513 1.398 . S
C2514 C2515 1.391 . S
C2515 H2503 0.950 . S
C2515 C2511 1.393 . S
C2515 C2514 1.391 . S
H2516 C2524 0.950 . S
H2517 C2529 0.950 . S
H2518 C2526 0.950 . S
H2519 C2528 0.950 . S
H2520 C2530 0.950 . S
H2521 C2532 0.950 . S
H2522 C2534 0.950 . S
H2523 C2535 0.950 . S
C2524 H2516 0.950 . S
C2524 C2525 1.386 . S
C2524 C2526 1.391 . S
C2525 C2524 1.386 . S
C2525 C2529 1.393 . S
C2526 H2518 0.950 . S
C2526 C2524 1.391 . S
C2526 C2527 1.400 . S
C2527 C2526 1.400 . S
C2527 C2528 1.398 . S
C2527 C2533 1.491 . S
C2528 H2519 0.950 . S
C2528 C2527 1.398 . S
C2528 C2529 1.391 . S
C2529 H2517 0.950 . S
C2529 C2525 1.393 . S
C2529 C2528 1.391 . S
C2530 H2520 0.950 . S
C2530 C2531 1.386 . S
C2530 C2532 1.391 . S
C2531 C2530 1.386 . S
C2531 C2535 1.393 . S
C2532 H2521 0.950 . S
C2532 C2530 1.391 . S
C2532 C2533 1.400 . S
C2533 C2527 1.491 . S
C2533 C2532 1.400 . S
C2533 C2534 1.398 . S
C2534 H2522 0.950 . S
C2534 C2533 1.398 . S
C2534 C2535 1.391 . S
C2535 H2523 0.950 . S
C2535 C2531 1.393 . S
C2535 C2534 1.391 . S
H2536 C2544 0.950 . S
H2537 C2549 0.950 . S
H2538 C2546 0.950 . S
H2539 C2548 0.950 . S
H2540 C2550 0.950 . S
H2541 C2552 0.950 . S
H2542 C2554 0.950 . S
H2543 C2555 0.950 . S
C2544 H2536 0.950 . S
C2544 C2545 1.386 . S
C2544 C2546 1.391 1_545 S
C2545 C2544 1.386 . S
C2545 C2549 1.393 1_545 S
C2546 H2538 0.950 . S
C2546 C2544 1.391 1_565 S
C2546 C2547 1.400 . S
C2547 C2546 1.400 . S
C2547 C2548 1.398 . S
C2547 C2553 1.491 . S
C2548 H2539 0.950 . S
C2548 C2547 1.398 . S
C2548 C2549 1.391 . S
C2549 H2537 0.950 . S
C2549 C2545 1.393 1_565 S
C2549 C2548 1.391 . S
C2550 H2540 0.950 . S
C2550 C2551 1.386 . S
C2550 C2552 1.391 . S
C2551 C2550 1.386 . S
C2551 C2555 1.393 . S
C2552 H2541 0.950 . S
C2552 C2550 1.391 . S
C2552 C2553 1.400 . S
C2553 C2547 1.491 . S
C2553 C2552 1.400 . S
C2553 C2554 1.398 . S
C2554 H2542 0.950 . S
C2554 C2553 1.398 . S
C2554 C2555 1.391 . S
C2555 H2543 0.950 . S
C2555 C2551 1.393 . S
C2555 C2554 1.391 . S
H2556 C2564 0.950 . S
H2557 C2569 0.950 . S
H2558 C2566 0.950 . S
H2559 C2568 0.950 . S
H2560 C2570 0.950 . S
H2561 C2572 0.950 . S
H2562 C2574 0.950 . S
H2563 C2575 0.953 1_545 S
C2564 H2556 0.950 . S
C2564 C2565 1.386 . S
C2564 C2566 1.391 . S
C2565 C2564 1.386 . S
C2565 C2569 1.393 . S
C2566 H2558 0.950 . S
C2566 C2564 1.391 . S
C2566 C2567 1.400 . S
C2567 C2566 1.400 . S
C2567 C2568 1.398 . S
C2567 C2573 1.491 . S
C2568 H2559 0.950 . S
C2568 C2567 1.398 . S
C2568 C2569 1.391 . S
C2569 H2557 0.950 . S
C2569 C2565 1.393 . S
C2569 C2568 1.391 . S
C2570 H2560 0.950 . S
C2570 C2571 1.386 . S
C2570 C2572 1.391 . S
C2571 C2570 1.386 . S
C2571 C2575 1.393 . S
C2572 H2561 0.950 . S
C2572 C2570 1.391 . S
C2572 C2573 1.400 . S
C2573 C2567 1.491 . S
C2573 C2572 1.400 . S
C2573 C2574 1.398 . S
C2574 H2562 0.950 . S
C2574 C2573 1.398 . S
C2574 C2575 1.391 . S
C2575 H2563 0.953 1_565 S
C2575 C2571 1.393 . S
C2575 C2574 1.391 . S
H2576 C2584 0.950 . S
H2577 C2589 0.950 . S
H2578 C2586 0.950 . S
H2579 C2588 0.950 . S
H2580 C2590 0.950 . S
H2581 C2592 0.950 . S
H2582 C2594 0.950 . S
H2583 C2595 0.950 . S
C2584 H2576 0.950 . S
C2584 C2585 1.386 . S
C2584 C2586 1.391 . S
C2585 C2584 1.386 . S
C2585 C2589 1.393 . S
C2586 H2578 0.950 . S
C2586 C2584 1.391 . S
C2586 C2587 1.400 . S
C2587 C2586 1.400 . S
C2587 C2588 1.398 . S
C2587 C2593 1.491 . S
C2588 H2579 0.950 . S
C2588 C2587 1.398 . S
C2588 C2589 1.391 . S
C2589 H2577 0.950 . S
C2589 C2585 1.393 . S
C2589 C2588 1.391 . S
C2590 H2580 0.950 . S
C2590 C2591 1.386 . S
C2590 C2592 1.391 . S
C2591 C2590 1.386 . S
C2591 C2595 1.393 . S
C2592 H2581 0.950 . S
C2592 C2590 1.391 . S
C2592 C2593 1.400 . S
C2593 C2587 1.491 . S
C2593 C2592 1.400 . S
C2593 C2594 1.398 . S
C2594 H2582 0.950 . S
C2594 C2593 1.398 . S
C2594 C2595 1.391 . S
C2595 H2583 0.950 . S
C2595 C2591 1.393 . S
C2595 C2594 1.391 . S
H2596 C2604 0.950 . S
H2597 C2609 0.950 . S
H2598 C2606 0.950 . S
H2599 C2608 0.950 . S
H2600 C2610 0.950 . S
H2601 C2612 0.950 . S
H2602 C2614 0.950 . S
H2603 C2615 0.950 . S
C2604 H2596 0.950 . S
C2604 C2605 1.386 . S
C2604 C2606 1.391 . S
C2605 C2604 1.386 . S
C2605 C2609 1.393 . S
C2606 H2598 0.950 . S
C2606 C2604 1.391 . S
C2606 C2607 1.400 . S
C2607 C2606 1.400 . S
C2607 C2608 1.398 . S
C2607 C2613 1.491 . S
C2608 H2599 0.950 . S
C2608 C2607 1.398 . S
C2608 C2609 1.391 . S
C2609 H2597 0.950 . S
C2609 C2605 1.393 . S
C2609 C2608 1.391 . S
C2610 H2600 0.950 . S
C2610 C2611 1.386 . S
C2610 C2612 1.391 . S
C2611 C2610 1.386 . S
C2611 C2615 1.393 . S
C2612 H2601 0.950 . S
C2612 C2610 1.391 . S
C2612 C2613 1.400 . S
C2613 C2607 1.491 . S
C2613 C2612 1.400 . S
C2613 C2614 1.398 . S
C2614 H2602 0.950 . S
C2614 C2613 1.398 . S
C2614 C2615 1.391 . S
C2615 H2603 0.950 . S
C2615 C2611 1.393 . S
C2615 C2614 1.391 . S
H2616 C2624 0.950 . S
H2617 C2629 0.950 . S
H2618 C2626 0.950 . S
H2619 C2628 0.950 . S
H2620 C2630 0.950 . S
H2621 C2632 0.950 . S
H2622 C2634 0.950 . S
H2623 C2635 0.950 . S
C2624 H2616 0.950 . S
C2624 C2625 1.386 . S
C2624 C2626 1.391 . S
C2625 C2624 1.386 . S
C2625 C2629 1.393 . S
C2626 H2618 0.950 . S
C2626 C2624 1.391 . S
C2626 C2627 1.400 . S
C2627 C2626 1.400 . S
C2627 C2628 1.398 . S
C2627 C2633 1.491 . S
C2628 H2619 0.950 . S
C2628 C2627 1.398 . S
C2628 C2629 1.391 . S
C2629 H2617 0.950 . S
C2629 C2625 1.393 . S
C2629 C2628 1.391 . S
C2630 H2620 0.950 . S
C2630 C2631 1.386 . S
C2630 C2632 1.391 . S
C2631 C2630 1.386 . S
C2631 C2635 1.393 . S
C2632 H2621 0.950 . S
C2632 C2630 1.391 . S
C2632 C2633 1.400 . S
C2633 C2627 1.491 . S
C2633 C2632 1.400 . S
C2633 C2634 1.398 . S
C2634 H2622 0.950 . S
C2634 C2633 1.398 . S
C2634 C2635 1.391 . S
C2635 H2623 0.950 . S
C2635 C2631 1.393 . S
C2635 C2634 1.391 . S
H2636 C2644 0.950 . S
H2637 C2649 0.950 . S
H2638 C2646 0.950 . S
H2639 C2648 0.950 . S
H2640 C2650 0.950 . S
H2641 C2652 0.950 . S
H2642 C2654 0.950 . S
H2643 C2655 0.950 . S
C2644 H2636 0.950 . S
C2644 C2645 1.386 . S
C2644 C2646 1.391 . S
C2645 C2644 1.386 . S
C2645 C2649 1.393 . S
C2646 H2638 0.950 . S
C2646 C2644 1.391 . S
C2646 C2647 1.400 . S
C2647 C2646 1.400 . S
C2647 C2648 1.398 . S
C2647 C2653 1.491 . S
C2648 H2639 0.950 . S
C2648 C2647 1.398 . S
C2648 C2649 1.391 . S
C2649 H2637 0.950 . S
C2649 C2645 1.393 . S
C2649 C2648 1.391 . S
C2650 H2640 0.950 . S
C2650 C2651 1.386 . S
C2650 C2652 1.391 . S
C2651 C2650 1.386 . S
C2651 C2655 1.393 . S
C2652 H2641 0.950 . S
C2652 C2650 1.391 . S
C2652 C2653 1.400 . S
C2653 C2647 1.491 . S
C2653 C2652 1.400 . S
C2653 C2654 1.398 . S
C2654 H2642 0.950 . S
C2654 C2653 1.398 . S
C2654 C2655 1.391 . S
C2655 H2643 0.950 . S
C2655 C2651 1.393 . S
C2655 C2654 1.391 . S
H2656 C2664 0.950 1_554 S
H2657 C2669 0.950 . S
H2658 C2666 0.950 . S
H2659 C2668 0.950 . S
H2660 C2670 0.953 1_655 S
H2661 C2672 0.982 . S
H2662 C2674 0.950 . S
H2663 C2675 0.950 . S
C2664 H2656 0.950 1_556 S
C2664 C2665 1.386 . S
C2664 C2666 1.391 1_556 S
C2665 C2664 1.386 . S
C2665 C2669 1.393 1_455 S
C2666 H2658 0.950 . S
C2666 C2664 1.391 1_554 S
C2666 C2667 1.400 1_554 S
C2667 C2666 1.400 1_556 S
C2667 C2668 1.398 1_455 S
C2667 C2673 1.491 1_556 S
C2668 H2659 0.950 . S
C2668 C2667 1.398 1_655 S
C2668 C2669 1.391 . S
C2669 H2657 0.950 . S
C2669 C2665 1.393 1_655 S
C2669 C2668 1.391 . S
C2670 H2660 0.953 1_455 S
C2670 C2671 1.381 1_556 S
C2670 C2672 1.400 1_455 S
C2671 C2670 1.381 1_554 S
C2671 C2675 1.393 . S
C2672 H2661 0.982 . S
C2672 C2670 1.400 1_655 S
C2672 C2673 1.362 1_656 S
C2673 C2667 1.491 1_554 S
C2673 C2672 1.362 1_454 S
C2673 C2674 1.398 . S
C2674 H2662 0.950 . S
C2674 C2673 1.398 . S
C2674 C2675 1.391 . S
C2675 H2663 0.950 . S
C2675 C2671 1.393 . S
C2675 C2674 1.391 . S
H2676 C2684 0.950 . S
H2677 C2689 0.915 1_455 S
H2678 C2686 0.950 . S
H2679 C2688 0.950 . S
H2680 C2690 0.950 . S
H2681 C2692 0.950 . S
H2682 C2694 0.950 . S
H2683 C2695 0.950 . S
C2684 H2676 0.950 . S
C2684 C2685 1.386 . S
C2684 C2686 1.391 . S
C2685 C2684 1.386 . S
C2685 C2689 1.393 . S
C2686 H2678 0.950 . S
C2686 C2684 1.391 . S
C2686 C2687 1.400 . S
C2687 C2686 1.400 . S
C2687 C2688 1.398 . S
C2687 C2693 1.491 . S
C2688 H2679 0.950 . S
C2688 C2687 1.398 . S
C2688 C2689 1.425 . S
C2689 H2677 0.915 1_655 S
C2689 C2685 1.393 . S
C2689 C2688 1.425 . S
C2690 H2680 0.950 . S
C2690 C2691 1.386 . S
C2690 C2692 1.391 . S
C2691 C2690 1.386 . S
C2691 C2695 1.393 . S
C2692 H2681 0.950 . S
C2692 C2690 1.391 . S
C2692 C2693 1.400 . S
C2693 C2687 1.491 . S
C2693 C2692 1.400 . S
C2693 C2694 1.398 . S
C2694 H2682 0.950 . S
C2694 C2693 1.398 . S
C2694 C2695 1.391 . S
C2695 H2683 0.950 . S
C2695 C2691 1.393 . S
C2695 C2694 1.391 . S
H2696 C2704 0.950 . S
H2697 C2709 0.950 . S
H2698 C2706 0.950 . S
H2699 C2708 0.950 . S
H2700 C2710 0.950 . S
H2701 C2712 0.950 . S
H2702 C2714 0.950 . S
H2703 C2715 0.950 . S
C2704 H2696 0.950 . S
C2704 C2705 1.386 . S
C2704 C2706 1.391 . S
C2705 C2704 1.386 . S
C2705 C2709 1.393 . S
C2706 H2698 0.950 . S
C2706 C2704 1.391 . S
C2706 C2707 1.400 . S
C2707 C2706 1.400 . S
C2707 C2708 1.398 . S
C2707 C2713 1.491 . S
C2708 H2699 0.950 . S
C2708 C2707 1.398 . S
C2708 C2709 1.391 . S
C2709 H2697 0.950 . S
C2709 C2705 1.393 . S
C2709 C2708 1.391 . S
C2710 H2700 0.950 . S
C2710 C2711 1.386 . S
C2710 C2712 1.391 . S
C2711 C2710 1.386 . S
C2711 C2715 1.393 . S
C2712 H2701 0.950 . S
C2712 C2710 1.391 . S
C2712 C2713 1.400 . S
C2713 C2707 1.491 . S
C2713 C2712 1.400 . S
C2713 C2714 1.398 . S
C2714 H2702 0.950 . S
C2714 C2713 1.398 . S
C2714 C2715 1.391 . S
C2715 H2703 0.950 . S
C2715 C2711 1.393 . S
C2715 C2714 1.391 . S
H2716 C2724 0.950 . S
H2717 C2729 0.950 . S
H2718 C2726 0.950 . S
H2719 C2728 0.950 . S
H2720 C2730 0.950 . S
H2721 C2732 0.950 . S
H2722 C2734 0.950 . S
H2723 C2735 0.950 . S
C2724 H2716 0.950 . S
C2724 C2725 1.386 . S
C2724 C2726 1.391 . S
C2725 C2724 1.386 . S
C2725 C2729 1.393 . S
C2726 H2718 0.950 . S
C2726 C2724 1.391 . S
C2726 C2727 1.400 . S
C2727 C2726 1.400 . S
C2727 C2728 1.398 . S
C2727 C2733 1.491 . S
C2728 H2719 0.950 . S
C2728 C2727 1.398 . S
C2728 C2729 1.391 . S
C2729 H2717 0.950 . S
C2729 C2725 1.393 . S
C2729 C2728 1.391 . S
C2730 H2720 0.950 . S
C2730 C2731 1.386 . S
C2730 C2732 1.391 . S
C2731 C2730 1.386 . S
C2731 C2735 1.393 . S
C2732 H2721 0.950 . S
C2732 C2730 1.391 . S
C2732 C2733 1.400 . S
C2733 C2727 1.491 . S
C2733 C2732 1.400 . S
C2733 C2734 1.398 . S
C2734 H2722 0.950 . S
C2734 C2733 1.398 . S
C2734 C2735 1.391 . S
C2735 H2723 0.950 . S
C2735 C2731 1.393 . S
C2735 C2734 1.391 . S
H2736 C2744 0.950 . S
H2737 C2749 0.950 1_655 S
H2738 C2746 0.950 . S
H2739 C2748 0.950 1_655 S
H2740 C2750 0.950 . S
H2741 C2752 0.950 . S
H2742 C2754 0.950 . S
H2743 C2755 0.950 . S
C2744 H2736 0.950 . S
C2744 C2745 1.386 . S
C2744 C2746 1.391 . S
C2745 C2744 1.386 . S
C2745 C2749 1.393 . S
C2746 H2738 0.950 . S
C2746 C2744 1.391 . S
C2746 C2747 1.400 . S
C2747 C2746 1.400 . S
C2747 C2748 1.398 . S
C2747 C2753 1.491 . S
C2748 H2739 0.950 1_455 S
C2748 C2747 1.398 . S
C2748 C2749 1.391 . S
C2749 H2737 0.950 1_455 S
C2749 C2745 1.393 . S
C2749 C2748 1.391 . S
C2750 H2740 0.950 . S
C2750 C2751 1.386 . S
C2750 C2752 1.391 . S
C2751 C2750 1.386 . S
C2751 C2755 1.393 . S
C2752 H2741 0.950 . S
C2752 C2750 1.391 . S
C2752 C2753 1.400 . S
C2753 C2747 1.491 . S
C2753 C2752 1.400 . S
C2753 C2754 1.398 . S
C2754 H2742 0.950 . S
C2754 C2753 1.398 . S
C2754 C2755 1.391 . S
C2755 H2743 0.950 . S
C2755 C2751 1.393 . S
C2755 C2754 1.391 . S
H2756 C2764 0.950 . S
H2757 C2769 0.950 . S
H2758 C2766 0.950 . S
H2759 C2768 0.950 . S
H2760 C2770 0.950 . S
H2761 C2772 0.950 . S
H2762 C2774 0.950 . S
H2763 C2775 0.950 . S
C2764 H2756 0.950 . S
C2764 C2765 1.386 . S
C2764 C2766 1.391 . S
C2765 C2764 1.386 . S
C2765 C2769 1.393 . S
C2766 H2758 0.950 . S
C2766 C2764 1.391 . S
C2766 C2767 1.400 . S
C2767 C2766 1.400 . S
C2767 C2768 1.398 . S
C2767 C2773 1.491 . S
C2768 H2759 0.950 . S
C2768 C2767 1.398 . S
C2768 C2769 1.391 . S
C2769 H2757 0.950 . S
C2769 C2765 1.393 . S
C2769 C2768 1.391 . S
C2770 H2760 0.950 . S
C2770 C2771 1.386 . S
C2770 C2772 1.391 . S
C2771 C2770 1.386 . S
C2771 C2775 1.393 . S
C2772 H2761 0.950 . S
C2772 C2770 1.391 . S
C2772 C2773 1.400 . S
C2773 C2767 1.491 . S
C2773 C2772 1.400 . S
C2773 C2774 1.398 . S
C2774 H2762 0.950 . S
C2774 C2773 1.398 . S
C2774 C2775 1.391 . S
C2775 H2763 0.950 . S
C2775 C2771 1.393 . S
C2775 C2774 1.391 . S
H2776 C2784 0.950 . S
H2777 C2789 0.950 . S
H2778 C2786 0.950 . S
H2779 C2788 0.950 . S
H2780 C2790 0.950 . S
H2781 C2792 0.950 . S
H2782 C2794 0.950 . S
H2783 C2795 0.950 . S
C2784 H2776 0.950 . S
C2784 C2785 1.386 . S
C2784 C2786 1.391 . S
C2785 C2784 1.386 . S
C2785 C2789 1.393 . S
C2786 H2778 0.950 . S
C2786 C2784 1.391 . S
C2786 C2787 1.400 . S
C2787 C2786 1.400 . S
C2787 C2788 1.398 . S
C2787 C2793 1.491 . S
C2788 H2779 0.950 . S
C2788 C2787 1.398 . S
C2788 C2789 1.391 . S
C2789 H2777 0.950 . S
C2789 C2785 1.393 . S
C2789 C2788 1.391 . S
C2790 H2780 0.950 . S
C2790 C2791 1.386 . S
C2790 C2792 1.391 . S
C2791 C2790 1.386 . S
C2791 C2795 1.393 . S
C2792 H2781 0.950 . S
C2792 C2790 1.391 . S
C2792 C2793 1.400 . S
C2793 C2787 1.491 . S
C2793 C2792 1.400 . S
C2793 C2794 1.398 . S
C2794 H2782 0.950 . S
C2794 C2793 1.398 . S
C2794 C2795 1.391 . S
C2795 H2783 0.950 . S
C2795 C2791 1.393 . S
C2795 C2794 1.391 . S
H2796 C2804 0.966 . S
H2797 C2809 0.950 . S
H2798 C2806 0.950 . S
H2799 C2808 0.950 . S
H2800 C2810 0.950 . S
H2801 C2812 0.950 . S
H2802 C2814 0.950 . S
H2803 C2815 0.950 . S
C2804 H2796 0.966 . S
C2804 C2805 1.386 1_556 S
C2804 C2806 1.391 . S
C2805 C2804 1.386 1_554 S
C2805 C2809 1.393 . S
C2806 H2798 0.950 . S
C2806 C2804 1.391 . S
C2806 C2807 1.400 . S
C2807 C2806 1.400 . S
C2807 C2808 1.398 . S
C2807 C2813 1.491 . S
C2808 H2799 0.950 . S
C2808 C2807 1.398 . S
C2808 C2809 1.391 1_556 S
C2809 H2797 0.950 . S
C2809 C2805 1.393 . S
C2809 C2808 1.391 1_554 S
C2810 H2800 0.950 . S
C2810 C2811 1.386 . S
C2810 C2812 1.391 . S
C2811 C2810 1.386 . S
C2811 C2815 1.393 . S
C2812 H2801 0.950 . S
C2812 C2810 1.391 . S
C2812 C2813 1.400 . S
C2813 C2807 1.491 . S
C2813 C2812 1.400 . S
C2813 C2814 1.398 . S
C2814 H2802 0.950 . S
C2814 C2813 1.398 . S
C2814 C2815 1.391 . S
C2815 H2803 0.950 . S
C2815 C2811 1.393 . S
C2815 C2814 1.391 . S
H2816 C2824 0.950 . S
H2817 C2829 0.950 . S
H2818 C2826 0.950 . S
H2819 C2828 0.950 . S
H2820 C2830 0.950 . S
H2821 C2832 0.950 . S
H2822 C2834 0.950 . S
H2823 C2835 0.950 . S
C2824 H2816 0.950 . S
C2824 C2825 1.386 . S
C2824 C2826 1.391 . S
C2825 C2824 1.386 . S
C2825 C2829 1.393 . S
C2826 H2818 0.950 . S
C2826 C2824 1.391 . S
C2826 C2827 1.400 . S
C2827 C2826 1.400 . S
C2827 C2828 1.398 . S
C2827 C2833 1.491 . S
C2828 H2819 0.950 . S
C2828 C2827 1.398 . S
C2828 C2829 1.391 . S
C2829 H2817 0.950 . S
C2829 C2825 1.393 . S
C2829 C2828 1.391 . S
C2830 H2820 0.950 . S
C2830 C2831 1.386 . S
C2830 C2832 1.391 . S
C2831 C2830 1.386 . S
C2831 C2835 1.393 . S
C2832 H2821 0.950 . S
C2832 C2830 1.391 . S
C2832 C2833 1.400 . S
C2833 C2827 1.491 . S
C2833 C2832 1.400 . S
C2833 C2834 1.398 . S
C2834 H2822 0.950 . S
C2834 C2833 1.398 . S
C2834 C2835 1.391 . S
C2835 H2823 0.950 . S
C2835 C2831 1.393 . S
C2835 C2834 1.391 . S
H2836 C2844 0.950 . S
H2837 C2849 0.950 . S
H2838 C2846 0.950 . S
H2839 C2848 0.950 . S
H2840 C2850 0.950 . S
H2841 C2852 0.950 . S
H2842 C2854 0.950 . S
H2843 C2855 0.950 . S
C2844 H2836 0.950 . S
C2844 C2845 1.386 . S
C2844 C2846 1.391 . S
C2845 C2844 1.386 . S
C2845 C2849 1.393 . S
C2846 H2838 0.950 . S
C2846 C2844 1.391 . S
C2846 C2847 1.400 . S
C2847 C2846 1.400 . S
C2847 C2848 1.398 . S
C2847 C2853 1.491 . S
C2848 H2839 0.950 . S
C2848 C2847 1.398 . S
C2848 C2849 1.391 . S
C2849 H2837 0.950 . S
C2849 C2845 1.393 . S
C2849 C2848 1.391 . S
C2850 H2840 0.950 . S
C2850 C2851 1.386 . S
C2850 C2852 1.391 . S
C2851 C2850 1.386 . S
C2851 C2855 1.393 . S
C2852 H2841 0.950 . S
C2852 C2850 1.391 . S
C2852 C2853 1.400 . S
C2853 C2847 1.491 . S
C2853 C2852 1.400 . S
C2853 C2854 1.398 . S
C2854 H2842 0.950 . S
C2854 C2853 1.398 . S
C2854 C2855 1.391 . S
C2855 H2843 0.950 . S
C2855 C2851 1.393 . S
C2855 C2854 1.391 . S
H2856 C2864 0.950 . S
H2857 C2869 0.950 . S
H2858 C2866 0.950 . S
H2859 C2868 0.950 . S
H2860 C2870 0.950 . S
H2861 C2872 0.950 . S
H2862 C2874 0.950 . S
H2863 C2875 0.950 . S
C2864 H2856 0.950 . S
C2864 C2865 1.386 . S
C2864 C2866 1.391 . S
C2865 C2864 1.386 . S
C2865 C2869 1.393 . S
C2866 H2858 0.950 . S
C2866 C2864 1.391 . S
C2866 C2867 1.400 . S
C2867 C2866 1.400 . S
C2867 C2868 1.398 . S
C2867 C2873 1.491 . S
C2868 H2859 0.950 . S
C2868 C2867 1.398 . S
C2868 C2869 1.391 . S
C2869 H2857 0.950 . S
C2869 C2865 1.393 . S
C2869 C2868 1.391 . S
C2870 H2860 0.950 . S
C2870 C2871 1.386 . S
C2870 C2872 1.391 . S
C2871 C2870 1.386 . S
C2871 C2875 1.393 . S
C2872 H2861 0.950 . S
C2872 C2870 1.391 . S
C2872 C2873 1.400 . S
C2873 C2867 1.491 . S
C2873 C2872 1.400 . S
C2873 C2874 1.398 . S
C2874 H2862 0.950 . S
C2874 C2873 1.398 . S
C2874 C2875 1.391 . S
C2875 H2863 0.950 . S
C2875 C2871 1.393 . S
C2875 C2874 1.391 . S
H2876 C2884 0.950 . S
H2877 C2889 0.950 . S
H2878 C2886 0.950 . S
H2879 C2888 0.950 . S
H2880 C2890 0.950 . S
H2881 C2892 0.950 . S
H2882 C2894 0.950 . S
H2883 C2895 0.950 . S
C2884 H2876 0.950 . S
C2884 C2885 1.386 . S
C2884 C2886 1.391 . S
C2885 C2884 1.386 . S
C2885 C2889 1.393 . S
C2886 H2878 0.950 . S
C2886 C2884 1.391 . S
C2886 C2887 1.400 . S
C2887 C2886 1.400 . S
C2887 C2888 1.398 . S
C2887 C2893 1.491 . S
C2888 H2879 0.950 . S
C2888 C2887 1.398 . S
C2888 C2889 1.391 . S
C2889 H2877 0.950 . S
C2889 C2885 1.393 . S
C2889 C2888 1.391 . S
C2890 H2880 0.950 . S
C2890 C2891 1.386 . S
C2890 C2892 1.391 . S
C2891 C2890 1.386 . S
C2891 C2895 1.393 . S
C2892 H2881 0.950 . S
C2892 C2890 1.391 . S
C2892 C2893 1.400 . S
C2893 C2887 1.491 . S
C2893 C2892 1.400 . S
C2893 C2894 1.398 . S
C2894 H2882 0.950 . S
C2894 C2893 1.398 . S
C2894 C2895 1.391 . S
C2895 H2883 0.950 . S
C2895 C2891 1.393 . S
C2895 C2894 1.391 . S
H2896 C2904 0.950 . S
H2897 C2909 0.950 . S
H2898 C2906 0.950 . S
H2899 C2908 0.950 . S
H2900 C2910 0.950 . S
H2901 C2912 0.950 . S
H2902 C2914 0.950 . S
H2903 C2915 0.950 . S
C2904 H2896 0.950 . S
C2904 C2905 1.386 . S
C2904 C2906 1.391 . S
C2905 C2904 1.386 . S
C2905 C2909 1.393 . S
C2906 H2898 0.950 . S
C2906 C2904 1.391 . S
C2906 C2907 1.400 . S
C2907 C2906 1.400 . S
C2907 C2908 1.398 . S
C2907 C2913 1.491 . S
C2908 H2899 0.950 . S
C2908 C2907 1.398 . S
C2908 C2909 1.391 . S
C2909 H2897 0.950 . S
C2909 C2905 1.393 . S
C2909 C2908 1.391 . S
C2910 H2900 0.950 . S
C2910 C2911 1.386 . S
C2910 C2912 1.391 . S
C2911 C2910 1.386 . S
C2911 C2915 1.393 . S
C2912 H2901 0.950 . S
C2912 C2910 1.391 . S
C2912 C2913 1.400 . S
C2913 C2907 1.491 . S
C2913 C2912 1.400 . S
C2913 C2914 1.398 . S
C2914 H2902 0.950 . S
C2914 C2913 1.398 . S
C2914 C2915 1.391 . S
C2915 H2903 0.950 . S
C2915 C2911 1.393 . S
C2915 C2914 1.391 . S
H2916 C2924 0.950 . S
H2917 C2929 0.950 . S
H2918 C2926 0.950 . S
H2919 C2928 0.950 . S
H2920 C2930 0.950 . S
H2921 C2932 0.950 . S
H2922 C2934 0.950 . S
H2923 C2935 0.950 . S
C2924 H2916 0.950 . S
C2924 C2925 1.386 . S
C2924 C2926 1.391 . S
C2925 C2924 1.386 . S
C2925 C2929 1.393 . S
C2926 H2918 0.950 . S
C2926 C2924 1.391 . S
C2926 C2927 1.400 . S
C2927 C2926 1.400 . S
C2927 C2928 1.398 . S
C2927 C2933 1.491 . S
C2928 H2919 0.950 . S
C2928 C2927 1.398 . S
C2928 C2929 1.391 . S
C2929 H2917 0.950 . S
C2929 C2925 1.393 . S
C2929 C2928 1.391 . S
C2930 H2920 0.950 . S
C2930 C2931 1.386 . S
C2930 C2932 1.391 . S
C2931 C2930 1.386 . S
C2931 C2935 1.393 . S
C2932 H2921 0.950 . S
C2932 C2930 1.391 . S
C2932 C2933 1.400 . S
C2933 C2927 1.491 . S
C2933 C2932 1.400 . S
C2933 C2934 1.398 . S
C2934 H2922 0.950 . S
C2934 C2933 1.398 . S
C2934 C2935 1.391 . S
C2935 H2923 0.950 . S
C2935 C2931 1.393 . S
C2935 C2934 1.391 . S
H2936 C2944 0.950 . S
H2937 C2949 0.950 . S
H2938 C2946 0.950 . S
H2939 C2948 0.950 . S
H2940 C2950 0.950 . S
H2941 C2952 0.950 . S
H2942 C2954 0.950 . S
H2943 C2955 0.950 . S
C2944 H2936 0.950 . S
C2944 C2945 1.386 . S
C2944 C2946 1.391 . S
C2945 C2944 1.386 . S
C2945 C2949 1.393 . S
C2946 H2938 0.950 . S
C2946 C2944 1.391 . S
C2946 C2947 1.400 . S
C2947 C2946 1.400 . S
C2947 C2948 1.398 . S
C2947 C2953 1.491 . S
C2948 H2939 0.950 . S
C2948 C2947 1.398 . S
C2948 C2949 1.391 . S
C2949 H2937 0.950 . S
C2949 C2945 1.393 . S
C2949 C2948 1.391 . S
C2950 H2940 0.950 . S
C2950 C2951 1.386 . S
C2950 C2952 1.391 . S
C2951 C2950 1.386 . S
C2951 C2955 1.393 . S
C2952 H2941 0.950 . S
C2952 C2950 1.391 . S
C2952 C2953 1.400 . S
C2953 C2947 1.491 . S
C2953 C2952 1.400 . S
C2953 C2954 1.398 . S
C2954 H2942 0.950 . S
C2954 C2953 1.398 . S
C2954 C2955 1.391 . S
C2955 H2943 0.950 . S
C2955 C2951 1.393 . S
C2955 C2954 1.391 . S
H2956 C2964 0.950 . S
H2957 C2969 0.950 . S
H2958 C2966 0.950 . S
H2959 C2968 0.950 . S
H2960 C2970 0.950 . S
H2961 C2972 0.950 . S
H2962 C2974 0.950 . S
H2963 C2975 0.950 . S
C2964 H2956 0.950 . S
C2964 C2965 1.386 . S
C2964 C2966 1.391 . S
C2965 C2964 1.386 . S
C2965 C2969 1.393 . S
C2966 H2958 0.950 . S
C2966 C2964 1.391 . S
C2966 C2967 1.400 . S
C2967 C2966 1.400 . S
C2967 C2968 1.398 . S
C2967 C2973 1.491 . S
C2968 H2959 0.950 . S
C2968 C2967 1.398 . S
C2968 C2969 1.391 . S
C2969 H2957 0.950 . S
C2969 C2965 1.393 . S
C2969 C2968 1.391 . S
C2970 H2960 0.950 . S
C2970 C2971 1.386 . S
C2970 C2972 1.391 . S
C2971 C2970 1.386 . S
C2971 C2975 1.393 . S
C2972 H2961 0.950 . S
C2972 C2970 1.391 . S
C2972 C2973 1.400 . S
C2973 C2967 1.491 . S
C2973 C2972 1.400 . S
C2973 C2974 1.398 . S
C2974 H2962 0.950 . S
C2974 C2973 1.398 . S
C2974 C2975 1.391 . S
C2975 H2963 0.950 . S
C2975 C2971 1.393 . S
C2975 C2974 1.391 . S
H2976 C2984 0.950 . S
H2977 C2989 0.950 . S
H2978 C2986 0.950 . S
H2979 C2988 0.950 . S
H2980 C2990 0.950 . S
H2981 C2992 0.950 . S
H2982 C2994 0.950 . S
H2983 C2995 0.950 . S
C2984 H2976 0.950 . S
C2984 C2985 1.386 . S
C2984 C2986 1.391 . S
C2985 C2984 1.386 . S
C2985 C2989 1.393 . S
C2986 H2978 0.950 . S
C2986 C2984 1.391 . S
C2986 C2987 1.400 . S
C2987 C2986 1.400 . S
C2987 C2988 1.398 . S
C2987 C2993 1.491 . S
C2988 H2979 0.950 . S
C2988 C2987 1.398 . S
C2988 C2989 1.391 . S
C2989 H2977 0.950 . S
C2989 C2985 1.393 . S
C2989 C2988 1.391 . S
C2990 H2980 0.950 . S
C2990 C2991 1.386 . S
C2990 C2992 1.391 . S
C2991 C2990 1.386 . S
C2991 C2995 1.393 . S
C2992 H2981 0.950 . S
C2992 C2990 1.391 . S
C2992 C2993 1.400 . S
C2993 C2987 1.491 . S
C2993 C2992 1.400 . S
C2993 C2994 1.398 . S
C2994 H2982 0.950 . S
C2994 C2993 1.398 . S
C2994 C2995 1.391 . S
C2995 H2983 0.950 . S
C2995 C2991 1.393 . S
C2995 C2994 1.391 . S
H2996 C3004 0.950 . S
H2997 C3009 0.950 . S
H2998 C3006 0.950 1_545 S
H2999 C3008 0.950 . S
H3000 C3010 0.950 1_556 S
H3001 C3012 0.950 1_556 S
H3002 C3014 0.950 . S
H3003 C3015 0.950 . S
C3004 H2996 0.950 . S
C3004 C3005 1.386 . S
C3004 C3006 1.391 . S
C3005 C3004 1.386 . S
C3005 C3009 1.393 1_554 S
C3006 H2998 0.950 1_565 S
C3006 C3004 1.391 . S
C3006 C3007 1.400 . S
C3007 C3006 1.400 . S
C3007 C3008 1.398 1_554 S
C3007 C3013 1.491 . S
C3008 H2999 0.950 . S
C3008 C3007 1.398 1_556 S
C3008 C3009 1.391 . S
C3009 H2997 0.950 . S
C3009 C3005 1.393 1_556 S
C3009 C3008 1.391 . S
C3010 H3000 0.950 1_554 S
C3010 C3011 1.386 1_565 S
C3010 C3012 1.391 . S
C3011 C3010 1.386 1_545 S
C3011 C3015 1.393 . S
C3012 H3001 0.950 1_554 S
C3012 C3010 1.391 . S
C3012 C3013 1.400 . S
C3013 C3007 1.491 . S
C3013 C3012 1.400 . S
C3013 C3014 1.398 1_565 S
C3014 H3002 0.950 . S
C3014 C3013 1.398 1_545 S
C3014 C3015 1.391 . S
C3015 H3003 0.950 . S
C3015 C3011 1.393 . S
C3015 C3014 1.391 . S
H3016 C3024 0.950 . S
H3017 C3029 0.950 . S
H3018 C3026 0.950 . S
H3019 C3028 0.950 . S
H3020 C3030 0.950 . S
H3021 C3032 0.950 . S
H3022 C3034 0.950 . S
H3023 C3035 0.950 . S
C3024 H3016 0.950 . S
C3024 C3025 1.386 . S
C3024 C3026 1.391 . S
C3025 C3024 1.386 . S
C3025 C3029 1.393 . S
C3026 H3018 0.950 . S
C3026 C3024 1.391 . S
C3026 C3027 1.400 . S
C3027 C3026 1.400 . S
C3027 C3028 1.398 . S
C3027 C3033 1.491 . S
C3028 H3019 0.950 . S
C3028 C3027 1.398 . S
C3028 C3029 1.391 . S
C3029 H3017 0.950 . S
C3029 C3025 1.393 . S
C3029 C3028 1.391 . S
C3030 H3020 0.950 . S
C3030 C3031 1.386 . S
C3030 C3032 1.391 . S
C3031 C3030 1.386 . S
C3031 C3035 1.393 . S
C3032 H3021 0.950 . S
C3032 C3030 1.391 . S
C3032 C3033 1.400 . S
C3033 C3027 1.491 . S
C3033 C3032 1.400 . S
C3033 C3034 1.398 . S
C3034 H3022 0.950 . S
C3034 C3033 1.398 . S
C3034 C3035 1.391 . S
C3035 H3023 0.950 . S
C3035 C3031 1.393 . S
C3035 C3034 1.391 . S
H3036 C3044 0.950 . S
H3037 C3049 0.950 . S
H3038 C3046 0.950 1_556 S
H3039 C3048 0.950 . S
H3040 C3050 0.950 . S
H3041 C3052 0.950 . S
H3042 C3054 0.950 1_556 S
H3043 C3055 0.924 1_556 S
C3044 H3036 0.950 . S
C3044 C3045 1.386 1_556 S
C3044 C3046 1.391 1_556 S
C3045 C3044 1.386 1_554 S
C3045 C3049 1.393 . S
C3046 H3038 0.950 1_554 S
C3046 C3044 1.391 1_554 S
C3046 C3047 1.400 . S
C3047 C3046 1.400 . S
C3047 C3048 1.398 . S
C3047 C3053 1.491 . S
C3048 H3039 0.950 . S
C3048 C3047 1.398 . S
C3048 C3049 1.391 . S
C3049 H3037 0.950 . S
C3049 C3045 1.393 . S
C3049 C3048 1.391 . S
C3050 H3040 0.950 . S
C3050 C3051 1.386 . S
C3050 C3052 1.391 . S
C3051 C3050 1.386 . S
C3051 C3055 1.393 . S
C3052 H3041 0.950 . S
C3052 C3050 1.391 . S
C3052 C3053 1.400 . S
C3053 C3047 1.491 . S
C3053 C3052 1.400 . S
C3053 C3054 1.398 . S
C3054 H3042 0.950 1_554 S
C3054 C3053 1.398 . S
C3054 C3055 1.391 . S
C3055 H3043 0.924 1_554 S
C3055 C3051 1.393 . S
C3055 C3054 1.391 . S
H3056 C3064 0.950 . S
H3057 C3069 0.950 . S
H3058 C3066 0.950 . S
H3059 C3068 0.950 . S
H3060 C3070 0.950 . S
H3061 C3072 0.950 . S
H3062 C3074 0.950 . S
H3063 C3075 0.950 . S
C3064 H3056 0.950 . S
C3064 C3065 1.386 . S
C3064 C3066 1.391 . S
C3065 C3064 1.386 . S
C3065 C3069 1.393 . S
C3066 H3058 0.950 . S
C3066 C3064 1.391 . S
C3066 C3067 1.400 . S
C3067 C3066 1.400 . S
C3067 C3068 1.398 . S
C3067 C3073 1.491 . S
C3068 H3059 0.950 . S
C3068 C3067 1.398 . S
C3068 C3069 1.391 . S
C3069 H3057 0.950 . S
C3069 C3065 1.393 . S
C3069 C3068 1.391 . S
C3070 H3060 0.950 . S
C3070 C3071 1.386 . S
C3070 C3072 1.391 . S
C3071 C3070 1.386 . S
C3071 C3075 1.393 . S
C3072 H3061 0.950 . S
C3072 C3070 1.391 . S
C3072 C3073 1.400 . S
C3073 C3067 1.491 . S
C3073 C3072 1.400 . S
C3073 C3074 1.398 . S
C3074 H3062 0.950 . S
C3074 C3073 1.398 . S
C3074 C3075 1.391 . S
C3075 H3063 0.950 . S
C3075 C3071 1.393 . S
C3075 C3074 1.391 . S
H3076 C3084 0.950 . S
H3077 C3089 0.950 . S
H3078 C3086 0.950 . S
H3079 C3088 0.950 . S
H3080 C3090 0.950 . S
H3081 C3092 0.950 . S
H3082 C3094 0.950 . S
H3083 C3095 0.950 . S
C3084 H3076 0.950 . S
C3084 C3085 1.386 . S
C3084 C3086 1.391 . S
C3085 C3084 1.386 . S
C3085 C3089 1.393 . S
C3086 H3078 0.950 . S
C3086 C3084 1.391 . S
C3086 C3087 1.400 . S
C3087 C3086 1.400 . S
C3087 C3088 1.398 . S
C3087 C3093 1.491 . S
C3088 H3079 0.950 . S
C3088 C3087 1.398 . S
C3088 C3089 1.391 . S
C3089 H3077 0.950 . S
C3089 C3085 1.393 . S
C3089 C3088 1.391 . S
C3090 H3080 0.950 . S
C3090 C3091 1.386 . S
C3090 C3092 1.391 . S
C3091 C3090 1.386 . S
C3091 C3095 1.393 . S
C3092 H3081 0.950 . S
C3092 C3090 1.391 . S
C3092 C3093 1.400 . S
C3093 C3087 1.491 . S
C3093 C3092 1.400 . S
C3093 C3094 1.398 . S
C3094 H3082 0.950 . S
C3094 C3093 1.398 . S
C3094 C3095 1.391 . S
C3095 H3083 0.950 . S
C3095 C3091 1.393 . S
C3095 C3094 1.391 . S
H3096 C3104 0.950 . S
H3097 C3109 0.950 . S
H3098 C3106 0.950 . S
H3099 C3108 0.950 . S
H3100 C3110 0.950 . S
H3101 C3112 0.950 . S
H3102 C3114 0.950 . S
H3103 C3115 0.950 . S
C3104 H3096 0.950 . S
C3104 C3105 1.386 . S
C3104 C3106 1.391 . S
C3105 C3104 1.386 . S
C3105 C3109 1.393 . S
C3106 H3098 0.950 . S
C3106 C3104 1.391 . S
C3106 C3107 1.400 . S
C3107 C3106 1.400 . S
C3107 C3108 1.398 . S
C3107 C3113 1.491 . S
C3108 H3099 0.950 . S
C3108 C3107 1.398 . S
C3108 C3109 1.391 . S
C3109 H3097 0.950 . S
C3109 C3105 1.393 . S
C3109 C3108 1.391 . S
C3110 H3100 0.950 . S
C3110 C3111 1.386 . S
C3110 C3112 1.391 . S
C3111 C3110 1.386 . S
C3111 C3115 1.393 . S
C3112 H3101 0.950 . S
C3112 C3110 1.391 . S
C3112 C3113 1.400 . S
C3113 C3107 1.491 . S
C3113 C3112 1.400 . S
C3113 C3114 1.398 . S
C3114 H3102 0.950 . S
C3114 C3113 1.398 . S
C3114 C3115 1.391 . S
C3115 H3103 0.950 . S
C3115 C3111 1.393 . S
C3115 C3114 1.391 . S
H3116 C3124 0.950 . S
H3117 C3129 0.950 . S
H3118 C3126 0.950 . S
H3119 C3128 0.950 . S
H3120 C3130 0.950 . S
H3121 C3132 0.950 . S
H3122 C3134 0.950 . S
H3123 C3135 0.950 . S
C3124 H3116 0.950 . S
C3124 C3125 1.386 . S
C3124 C3126 1.391 . S
C3125 C3124 1.386 . S
C3125 C3129 1.393 . S
C3126 H3118 0.950 . S
C3126 C3124 1.391 . S
C3126 C3127 1.400 . S
C3127 C3126 1.400 . S
C3127 C3128 1.398 . S
C3127 C3133 1.491 . S
C3128 H3119 0.950 . S
C3128 C3127 1.398 . S
C3128 C3129 1.391 . S
C3129 H3117 0.950 . S
C3129 C3125 1.393 . S
C3129 C3128 1.391 . S
C3130 H3120 0.950 . S
C3130 C3131 1.386 . S
C3130 C3132 1.391 . S
C3131 C3130 1.386 . S
C3131 C3135 1.393 . S
C3132 H3121 0.950 . S
C3132 C3130 1.391 . S
C3132 C3133 1.400 . S
C3133 C3127 1.491 . S
C3133 C3132 1.400 . S
C3133 C3134 1.398 . S
C3134 H3122 0.950 . S
C3134 C3133 1.398 . S
C3134 C3135 1.391 . S
C3135 H3123 0.950 . S
C3135 C3131 1.393 . S
C3135 C3134 1.391 . S
H3136 C3144 0.950 . S
H3137 C3149 0.950 . S
H3138 C3146 0.950 . S
H3139 C3148 0.950 . S
H3140 C3150 0.950 . S
H3141 C3152 0.950 . S
H3142 C3154 0.950 . S
H3143 C3155 0.950 . S
C3144 H3136 0.950 . S
C3144 C3145 1.386 . S
C3144 C3146 1.391 . S
C3145 C3144 1.386 . S
C3145 C3149 1.393 . S
C3146 H3138 0.950 . S
C3146 C3144 1.391 . S
C3146 C3147 1.400 . S
C3147 C3146 1.400 . S
C3147 C3148 1.398 . S
C3147 C3153 1.491 . S
C3148 H3139 0.950 . S
C3148 C3147 1.398 . S
C3148 C3149 1.391 . S
C3149 H3137 0.950 . S
C3149 C3145 1.393 . S
C3149 C3148 1.391 . S
C3150 H3140 0.950 . S
C3150 C3151 1.386 . S
C3150 C3152 1.391 . S
C3151 C3150 1.386 . S
C3151 C3155 1.393 . S
C3152 H3141 0.950 . S
C3152 C3150 1.391 . S
C3152 C3153 1.400 . S
C3153 C3147 1.491 . S
C3153 C3152 1.400 . S
C3153 C3154 1.398 . S
C3154 H3142 0.950 . S
C3154 C3153 1.398 . S
C3154 C3155 1.391 . S
C3155 H3143 0.950 . S
C3155 C3151 1.393 . S
C3155 C3154 1.391 . S
H3156 C3164 0.950 . S
H3157 C3169 0.950 . S
H3158 C3166 0.950 . S
H3159 C3168 0.950 . S
H3160 C3170 0.950 . S
H3161 C3172 0.950 . S
H3162 C3174 0.950 . S
H3163 C3175 0.950 . S
C3164 H3156 0.950 . S
C3164 C3165 1.386 . S
C3164 C3166 1.391 . S
C3165 C3164 1.386 . S
C3165 C3169 1.393 . S
C3166 H3158 0.950 . S
C3166 C3164 1.391 . S
C3166 C3167 1.400 . S
C3167 C3166 1.400 . S
C3167 C3168 1.398 . S
C3167 C3173 1.491 . S
C3168 H3159 0.950 . S
C3168 C3167 1.398 . S
C3168 C3169 1.391 . S
C3169 H3157 0.950 . S
C3169 C3165 1.393 . S
C3169 C3168 1.391 . S
C3170 H3160 0.950 . S
C3170 C3171 1.386 . S
C3170 C3172 1.391 . S
C3171 C3170 1.386 . S
C3171 C3175 1.393 . S
C3172 H3161 0.950 . S
C3172 C3170 1.391 . S
C3172 C3173 1.400 . S
C3173 C3167 1.491 . S
C3173 C3172 1.400 . S
C3173 C3174 1.398 . S
C3174 H3162 0.950 . S
C3174 C3173 1.398 . S
C3174 C3175 1.391 . S
C3175 H3163 0.950 . S
C3175 C3171 1.393 . S
C3175 C3174 1.391 . S
H3176 C3184 0.950 . S
H3177 C3189 0.950 . S
H3178 C3186 0.950 . S
H3179 C3188 0.950 . S
H3180 C3190 0.950 . S
H3181 C3192 0.950 . S
H3182 C3194 0.950 . S
H3183 C3195 0.950 . S
C3184 H3176 0.950 . S
C3184 C3185 1.386 . S
C3184 C3186 1.391 . S
C3185 C3184 1.386 . S
C3185 C3189 1.393 . S
C3186 H3178 0.950 . S
C3186 C3184 1.391 . S
C3186 C3187 1.400 . S
C3187 C3186 1.400 . S
C3187 C3188 1.398 . S
C3187 C3193 1.491 . S
C3188 H3179 0.950 . S
C3188 C3187 1.398 . S
C3188 C3189 1.391 . S
C3189 H3177 0.950 . S
C3189 C3185 1.393 . S
C3189 C3188 1.391 . S
C3190 H3180 0.950 . S
C3190 C3191 1.386 . S
C3190 C3192 1.391 . S
C3191 C3190 1.386 . S
C3191 C3195 1.393 . S
C3192 H3181 0.950 . S
C3192 C3190 1.391 . S
C3192 C3193 1.400 . S
C3193 C3187 1.491 . S
C3193 C3192 1.400 . S
C3193 C3194 1.398 . S
C3194 H3182 0.950 . S
C3194 C3193 1.398 . S
C3194 C3195 1.391 . S
C3195 H3183 0.950 . S
C3195 C3191 1.393 . S
C3195 C3194 1.391 . S
H3196 C3204 0.950 . S
H3197 C3209 0.950 . S
H3198 C3206 0.950 . S
H3199 C3208 0.950 . S
H3200 C3210 0.950 . S
H3201 C3212 0.950 . S
H3202 C3214 0.950 . S
H3203 C3215 0.950 . S
C3204 H3196 0.950 . S
C3204 C3205 1.386 . S
C3204 C3206 1.391 . S
C3205 C3204 1.386 . S
C3205 C3209 1.393 . S
C3206 H3198 0.950 . S
C3206 C3204 1.391 . S
C3206 C3207 1.400 . S
C3207 C3206 1.400 . S
C3207 C3208 1.398 . S
C3207 C3213 1.491 . S
C3208 H3199 0.950 . S
C3208 C3207 1.398 . S
C3208 C3209 1.391 . S
C3209 H3197 0.950 . S
C3209 C3205 1.393 . S
C3209 C3208 1.391 . S
C3210 H3200 0.950 . S
C3210 C3211 1.386 . S
C3210 C3212 1.391 . S
C3211 C3210 1.386 . S
C3211 C3215 1.393 . S
C3212 H3201 0.950 . S
C3212 C3210 1.391 . S
C3212 C3213 1.400 . S
C3213 C3207 1.491 . S
C3213 C3212 1.400 . S
C3213 C3214 1.398 . S
C3214 H3202 0.950 . S
C3214 C3213 1.398 . S
C3214 C3215 1.391 . S
C3215 H3203 0.950 . S
C3215 C3211 1.393 . S
C3215 C3214 1.391 . S
H3216 C3224 0.950 . S
H3217 C3229 0.950 . S
H3218 C3226 0.950 . S
H3219 C3228 0.950 . S
H3220 C3230 0.950 . S
H3221 C3232 0.950 . S
H3222 C3234 0.950 . S
H3223 C3235 0.950 . S
C3224 H3216 0.950 . S
C3224 C3225 1.386 . S
C3224 C3226 1.391 . S
C3225 C3224 1.386 . S
C3225 C3229 1.393 . S
C3226 H3218 0.950 . S
C3226 C3224 1.391 . S
C3226 C3227 1.400 . S
C3227 C3226 1.400 . S
C3227 C3228 1.398 . S
C3227 C3233 1.491 . S
C3228 H3219 0.950 . S
C3228 C3227 1.398 . S
C3228 C3229 1.391 . S
C3229 H3217 0.950 . S
C3229 C3225 1.393 . S
C3229 C3228 1.391 . S
C3230 H3220 0.950 . S
C3230 C3231 1.386 . S
C3230 C3232 1.391 . S
C3231 C3230 1.386 . S
C3231 C3235 1.393 . S
C3232 H3221 0.950 . S
C3232 C3230 1.391 . S
C3232 C3233 1.400 . S
C3233 C3227 1.491 . S
C3233 C3232 1.400 . S
C3233 C3234 1.398 . S
C3234 H3222 0.950 . S
C3234 C3233 1.398 . S
C3234 C3235 1.391 . S
C3235 H3223 0.950 . S
C3235 C3231 1.393 . S
C3235 C3234 1.391 . S
H3236 C3244 0.950 . S
H3237 C3249 0.950 . S
H3238 C3246 0.950 . S
H3239 C3248 0.950 . S
H3240 C3250 0.950 . S
H3241 C3252 0.950 . S
H3242 C3254 0.950 . S
H3243 C3255 0.950 . S
C3244 H3236 0.950 . S
C3244 C3245 1.386 . S
C3244 C3246 1.391 . S
C3245 C3244 1.386 . S
C3245 C3249 1.393 . S
C3246 H3238 0.950 . S
C3246 C3244 1.391 . S
C3246 C3247 1.400 . S
C3247 C3246 1.400 . S
C3247 C3248 1.398 . S
C3247 C3253 1.491 . S
C3248 H3239 0.950 . S
C3248 C3247 1.398 . S
C3248 C3249 1.391 . S
C3249 H3237 0.950 . S
C3249 C3245 1.393 . S
C3249 C3248 1.391 . S
C3250 H3240 0.950 . S
C3250 C3251 1.386 . S
C3250 C3252 1.391 . S
C3251 C3250 1.386 . S
C3251 C3255 1.393 . S
C3252 H3241 0.950 . S
C3252 C3250 1.391 . S
C3252 C3253 1.400 . S
C3253 C3247 1.491 . S
C3253 C3252 1.400 . S
C3253 C3254 1.398 . S
C3254 H3242 0.950 . S
C3254 C3253 1.398 . S
C3254 C3255 1.391 . S
C3255 H3243 0.950 . S
C3255 C3251 1.393 . S
C3255 C3254 1.391 . S
H3256 C3264 0.950 . S
H3257 C3269 0.950 . S
H3258 C3266 0.950 . S
H3259 C3268 0.950 . S
H3260 C3270 0.950 . S
H3261 C3272 0.950 . S
H3262 C3274 0.950 . S
H3263 C3275 0.950 . S
C3264 H3256 0.950 . S
C3264 C3265 1.386 . S
C3264 C3266 1.391 . S
C3265 C3264 1.386 . S
C3265 C3269 1.393 . S
C3266 H3258 0.950 . S
C3266 C3264 1.391 . S
C3266 C3267 1.400 . S
C3267 C3266 1.400 . S
C3267 C3268 1.398 . S
C3267 C3273 1.491 . S
C3268 H3259 0.950 . S
C3268 C3267 1.398 . S
C3268 C3269 1.391 . S
C3269 H3257 0.950 . S
C3269 C3265 1.393 . S
C3269 C3268 1.391 . S
C3270 H3260 0.950 . S
C3270 C3271 1.386 . S
C3270 C3272 1.391 . S
C3271 C3270 1.386 . S
C3271 C3275 1.393 . S
C3272 H3261 0.950 . S
C3272 C3270 1.391 . S
C3272 C3273 1.400 . S
C3273 C3267 1.491 . S
C3273 C3272 1.400 . S
C3273 C3274 1.398 . S
C3274 H3262 0.950 . S
C3274 C3273 1.398 . S
C3274 C3275 1.391 . S
C3275 H3263 0.950 . S
C3275 C3271 1.393 . S
C3275 C3274 1.391 . S
H3276 C3284 0.950 . S
H3277 C3289 0.950 . S
H3278 C3286 0.950 . S
H3279 C3288 0.950 . S
H3280 C3290 0.950 . S
H3281 C3292 0.950 . S
H3282 C3294 0.950 . S
H3283 C3295 0.950 . S
C3284 H3276 0.950 . S
C3284 C3285 1.386 . S
C3284 C3286 1.391 . S
C3285 C3284 1.386 . S
C3285 C3289 1.393 . S
C3286 H3278 0.950 . S
C3286 C3284 1.391 . S
C3286 C3287 1.400 . S
C3287 C3286 1.400 . S
C3287 C3288 1.398 . S
C3287 C3293 1.491 . S
C3288 H3279 0.950 . S
C3288 C3287 1.398 . S
C3288 C3289 1.391 . S
C3289 H3277 0.950 . S
C3289 C3285 1.393 . S
C3289 C3288 1.391 . S
C3290 H3280 0.950 . S
C3290 C3291 1.386 . S
C3290 C3292 1.391 . S
C3291 C3290 1.386 . S
C3291 C3295 1.393 . S
C3292 H3281 0.950 . S
C3292 C3290 1.391 . S
C3292 C3293 1.400 . S
C3293 C3287 1.491 . S
C3293 C3292 1.400 . S
C3293 C3294 1.398 . S
C3294 H3282 0.950 . S
C3294 C3293 1.398 . S
C3294 C3295 1.391 . S
C3295 H3283 0.950 . S
C3295 C3291 1.393 . S
C3295 C3294 1.391 . S
H3296 C3304 0.950 . S
H3297 C3309 0.950 . S
H3298 C3306 0.950 . S
H3299 C3308 0.950 . S
H3300 C3310 0.950 . S
H3301 C3312 0.950 . S
H3302 C3314 0.950 . S
H3303 C3315 0.950 . S
C3304 H3296 0.950 . S
C3304 C3305 1.386 . S
C3304 C3306 1.391 . S
C3305 C3304 1.386 . S
C3305 C3309 1.393 . S
C3306 H3298 0.950 . S
C3306 C3304 1.391 . S
C3306 C3307 1.400 . S
C3307 C3306 1.400 . S
C3307 C3308 1.398 . S
C3307 C3313 1.491 . S
C3308 H3299 0.950 . S
C3308 C3307 1.398 . S
C3308 C3309 1.391 . S
C3309 H3297 0.950 . S
C3309 C3305 1.393 . S
C3309 C3308 1.391 . S
C3310 H3300 0.950 . S
C3310 C3311 1.386 . S
C3310 C3312 1.391 . S
C3311 C3310 1.386 . S
C3311 C3315 1.393 1_655 S
C3312 H3301 0.950 . S
C3312 C3310 1.391 . S
C3312 C3313 1.400 . S
C3313 C3307 1.491 . S
C3313 C3312 1.400 . S
C3313 C3314 1.398 . S
C3314 H3302 0.950 . S
C3314 C3313 1.398 . S
C3314 C3315 1.391 1_655 S
C3315 H3303 0.950 . S
C3315 C3311 1.393 1_455 S
C3315 C3314 1.391 1_455 S
H3316 C3324 0.950 . S
H3317 C3329 0.950 . S
H3318 C3326 0.950 . S
H3319 C3328 0.950 . S
H3320 C3330 0.950 . S
H3321 C3332 0.950 . S
H3322 C3334 0.950 . S
H3323 C3335 0.950 . S
C3324 H3316 0.950 . S
C3324 C3325 1.386 . S
C3324 C3326 1.391 . S
C3325 C3324 1.386 . S
C3325 C3329 1.393 . S
C3326 H3318 0.950 . S
C3326 C3324 1.391 . S
C3326 C3327 1.400 . S
C3327 C3326 1.400 . S
C3327 C3328 1.398 . S
C3327 C3333 1.491 . S
C3328 H3319 0.950 . S
C3328 C3327 1.398 . S
C3328 C3329 1.391 . S
C3329 H3317 0.950 . S
C3329 C3325 1.393 . S
C3329 C3328 1.391 . S
C3330 H3320 0.950 . S
C3330 C3331 1.386 . S
C3330 C3332 1.391 . S
C3331 C3330 1.386 . S
C3331 C3335 1.393 . S
C3332 H3321 0.950 . S
C3332 C3330 1.391 . S
C3332 C3333 1.400 . S
C3333 C3327 1.491 . S
C3333 C3332 1.400 . S
C3333 C3334 1.398 . S
C3334 H3322 0.950 . S
C3334 C3333 1.398 . S
C3334 C3335 1.391 . S
C3335 H3323 0.950 . S
C3335 C3331 1.393 . S
C3335 C3334 1.391 . S
H3336 C3344 0.950 . S
H3337 C3349 0.950 . S
H3338 C3346 0.950 . S
H3339 C3348 0.950 . S
H3340 C3350 0.950 . S
H3341 C3352 0.950 . S
H3342 C3354 0.950 . S
H3343 C3355 0.950 . S
C3344 H3336 0.950 . S
C3344 C3345 1.386 . S
C3344 C3346 1.391 . S
C3345 C3344 1.386 . S
C3345 C3349 1.393 . S
C3346 H3338 0.950 . S
C3346 C3344 1.391 . S
C3346 C3347 1.400 . S
C3347 C3346 1.400 . S
C3347 C3348 1.398 . S
C3347 C3353 1.491 . S
C3348 H3339 0.950 . S
C3348 C3347 1.398 . S
C3348 C3349 1.391 . S
C3349 H3337 0.950 . S
C3349 C3345 1.393 . S
C3349 C3348 1.391 . S
C3350 H3340 0.950 . S
C3350 C3351 1.386 . S
C3350 C3352 1.391 . S
C3351 C3350 1.386 . S
C3351 C3355 1.393 . S
C3352 H3341 0.950 . S
C3352 C3350 1.391 . S
C3352 C3353 1.400 . S
C3353 C3347 1.491 . S
C3353 C3352 1.400 . S
C3353 C3354 1.398 . S
C3354 H3342 0.950 . S
C3354 C3353 1.398 . S
C3354 C3355 1.391 . S
C3355 H3343 0.950 . S
C3355 C3351 1.393 . S
C3355 C3354 1.391 . S
H3356 C3364 0.950 . S
H3357 C3369 0.950 . S
H3358 C3366 0.950 . S
H3359 C3368 0.950 . S
H3360 C3370 0.950 . S
H3361 C3372 0.950 . S
H3362 C3374 0.950 . S
H3363 C3375 0.950 . S
C3364 H3356 0.950 . S
C3364 C3365 1.386 . S
C3364 C3366 1.391 . S
C3365 C3364 1.386 . S
C3365 C3369 1.393 . S
C3366 H3358 0.950 . S
C3366 C3364 1.391 . S
C3366 C3367 1.400 . S
C3367 C3366 1.400 . S
C3367 C3368 1.398 . S
C3367 C3373 1.491 . S
C3368 H3359 0.950 . S
C3368 C3367 1.398 . S
C3368 C3369 1.391 . S
C3369 H3357 0.950 . S
C3369 C3365 1.393 . S
C3369 C3368 1.391 . S
C3370 H3360 0.950 . S
C3370 C3371 1.386 . S
C3370 C3372 1.391 . S
C3371 C3370 1.386 . S
C3371 C3375 1.393 . S
C3372 H3361 0.950 . S
C3372 C3370 1.391 . S
C3372 C3373 1.400 . S
C3373 C3367 1.491 . S
C3373 C3372 1.400 . S
C3373 C3374 1.398 . S
C3374 H3362 0.950 . S
C3374 C3373 1.398 . S
C3374 C3375 1.391 . S
C3375 H3363 0.950 . S
C3375 C3371 1.393 . S
C3375 C3374 1.391 . S
H3376 C3384 0.950 . S
H3377 C3389 0.950 . S
H3378 C3386 0.950 . S
H3379 C3388 0.950 . S
H3380 C3390 0.950 . S
H3381 C3392 0.950 . S
H3382 C3394 0.950 . S
H3383 C3395 0.950 . S
C3384 H3376 0.950 . S
C3384 C3385 1.386 . S
C3384 C3386 1.391 . S
C3385 C3384 1.386 . S
C3385 C3389 1.393 . S
C3386 H3378 0.950 . S
C3386 C3384 1.391 . S
C3386 C3387 1.400 . S
C3387 C3386 1.400 . S
C3387 C3388 1.398 . S
C3387 C3393 1.491 . S
C3388 H3379 0.950 . S
C3388 C3387 1.398 . S
C3388 C3389 1.391 . S
C3389 H3377 0.950 . S
C3389 C3385 1.393 . S
C3389 C3388 1.391 . S
C3390 H3380 0.950 . S
C3390 C3391 1.386 . S
C3390 C3392 1.391 . S
C3391 C3390 1.386 . S
C3391 C3395 1.393 . S
C3392 H3381 0.950 . S
C3392 C3390 1.391 . S
C3392 C3393 1.400 . S
C3393 C3387 1.491 . S
C3393 C3392 1.400 . S
C3393 C3394 1.398 . S
C3394 H3382 0.950 . S
C3394 C3393 1.398 . S
C3394 C3395 1.391 . S
C3395 H3383 0.950 . S
C3395 C3391 1.393 . S
C3395 C3394 1.391 . S
H3396 C3404 0.950 . S
H3397 C3409 0.950 . S
H3398 C3406 0.950 . S
H3399 C3408 0.950 . S
H3400 C3410 0.950 . S
H3401 C3412 0.950 . S
H3402 C3414 0.950 . S
H3403 C3415 0.950 . S
C3404 H3396 0.950 . S
C3404 C3405 1.386 . S
C3404 C3406 1.391 . S
C3405 C3404 1.386 . S
C3405 C3409 1.393 . S
C3406 H3398 0.950 . S
C3406 C3404 1.391 . S
C3406 C3407 1.400 . S
C3407 C3406 1.400 . S
C3407 C3408 1.398 . S
C3407 C3413 1.491 . S
C3408 H3399 0.950 . S
C3408 C3407 1.398 . S
C3408 C3409 1.391 . S
C3409 H3397 0.950 . S
C3409 C3405 1.393 . S
C3409 C3408 1.391 . S
C3410 H3400 0.950 . S
C3410 C3411 1.386 . S
C3410 C3412 1.391 . S
C3411 C3410 1.386 . S
C3411 C3415 1.393 . S
C3412 H3401 0.950 . S
C3412 C3410 1.391 . S
C3412 C3413 1.400 . S
C3413 C3407 1.491 . S
C3413 C3412 1.400 . S
C3413 C3414 1.398 . S
C3414 H3402 0.950 . S
C3414 C3413 1.398 . S
C3414 C3415 1.391 . S
C3415 H3403 0.950 . S
C3415 C3411 1.393 . S
C3415 C3414 1.391 . S
H3416 C3424 0.950 . S
H3417 C3429 0.950 . S
H3418 C3426 0.950 . S
H3419 C3428 0.950 . S
H3420 C3430 0.950 . S
H3421 C3432 0.950 . S
H3422 C3434 0.950 . S
H3423 C3435 0.950 . S
C3424 H3416 0.950 . S
C3424 C3425 1.386 . S
C3424 C3426 1.391 . S
C3425 C3424 1.386 . S
C3425 C3429 1.393 . S
C3426 H3418 0.950 . S
C3426 C3424 1.391 . S
C3426 C3427 1.400 . S
C3427 C3426 1.400 . S
C3427 C3428 1.398 . S
C3427 C3433 1.491 . S
C3428 H3419 0.950 . S
C3428 C3427 1.398 . S
C3428 C3429 1.391 . S
C3429 H3417 0.950 . S
C3429 C3425 1.393 . S
C3429 C3428 1.391 . S
C3430 H3420 0.950 . S
C3430 C3431 1.386 . S
C3430 C3432 1.391 . S
C3431 C3430 1.386 . S
C3431 C3435 1.393 . S
C3432 H3421 0.950 . S
C3432 C3430 1.391 . S
C3432 C3433 1.400 . S
C3433 C3427 1.491 . S
C3433 C3432 1.400 . S
C3433 C3434 1.398 . S
C3434 H3422 0.950 . S
C3434 C3433 1.398 . S
C3434 C3435 1.391 . S
C3435 H3423 0.950 . S
C3435 C3431 1.393 . S
C3435 C3434 1.391 . S
H3436 C3444 0.950 . S
H3437 C3449 0.950 . S
H3438 C3446 0.950 . S
H3439 C3448 0.950 . S
H3440 C3450 0.950 . S
H3441 C3452 0.950 . S
H3442 C3454 0.970 . S
H3443 C3455 0.950 . S
C3444 H3436 0.950 . S
C3444 C3445 1.386 . S
C3444 C3446 1.391 . S
C3445 C3444 1.386 . S
C3445 C3449 1.393 . S
C3446 H3438 0.950 . S
C3446 C3444 1.391 . S
C3446 C3447 1.400 . S
C3447 C3446 1.400 . S
C3447 C3448 1.398 . S
C3447 C3453 1.491 . S
C3448 H3439 0.950 . S
C3448 C3447 1.398 . S
C3448 C3449 1.391 . S
C3449 H3437 0.950 . S
C3449 C3445 1.393 . S
C3449 C3448 1.391 . S
C3450 H3440 0.950 . S
C3450 C3451 1.386 . S
C3450 C3452 1.391 . S
C3451 C3450 1.386 . S
C3451 C3455 1.393 1_565 S
C3452 H3441 0.950 . S
C3452 C3450 1.391 . S
C3452 C3453 1.400 . S
C3453 C3447 1.491 . S
C3453 C3452 1.400 . S
C3453 C3454 1.398 . S
C3454 H3442 0.970 . S
C3454 C3453 1.398 . S
C3454 C3455 1.391 1_565 S
C3455 H3443 0.950 . S
C3455 C3451 1.393 1_545 S
C3455 C3454 1.391 1_545 S
H3456 C3464 0.950 . S
H3457 C3469 0.950 . S
H3458 C3466 0.950 . S
H3459 C3468 0.950 . S
H3460 C3470 0.950 . S
H3461 C3472 0.950 . S
H3462 C3474 0.950 . S
H3463 C3475 0.950 . S
C3464 H3456 0.950 . S
C3464 C3465 1.386 . S
C3464 C3466 1.391 . S
C3465 C3464 1.386 . S
C3465 C3469 1.393 . S
C3466 H3458 0.950 . S
C3466 C3464 1.391 . S
C3466 C3467 1.400 . S
C3467 C3466 1.400 . S
C3467 C3468 1.398 . S
C3467 C3473 1.491 . S
C3468 H3459 0.950 . S
C3468 C3467 1.398 . S
C3468 C3469 1.391 . S
C3469 H3457 0.950 . S
C3469 C3465 1.393 . S
C3469 C3468 1.391 . S
C3470 H3460 0.950 . S
C3470 C3471 1.386 . S
C3470 C3472 1.391 . S
C3471 C3470 1.386 . S
C3471 C3475 1.393 . S
C3472 H3461 0.950 . S
C3472 C3470 1.391 . S
C3472 C3473 1.400 . S
C3473 C3467 1.491 . S
C3473 C3472 1.400 . S
C3473 C3474 1.398 . S
C3474 H3462 0.950 . S
C3474 C3473 1.398 . S
C3474 C3475 1.391 . S
C3475 H3463 0.950 . S
C3475 C3471 1.393 . S
C3475 C3474 1.391 . S
H3476 C3484 0.950 . S
H3477 C3489 0.950 . S
H3478 C3486 0.950 . S
H3479 C3488 0.950 . S
H3480 C3490 0.950 . S
H3481 C3492 0.950 . S
H3482 C3494 0.950 . S
H3483 C3495 0.950 . S
C3484 H3476 0.950 . S
C3484 C3485 1.386 . S
C3484 C3486 1.391 . S
C3485 C3484 1.386 . S
C3485 C3489 1.393 . S
C3486 H3478 0.950 . S
C3486 C3484 1.391 . S
C3486 C3487 1.400 . S
C3487 C3486 1.400 . S
C3487 C3488 1.398 . S
C3487 C3493 1.491 . S
C3488 H3479 0.950 . S
C3488 C3487 1.398 . S
C3488 C3489 1.391 . S
C3489 H3477 0.950 . S
C3489 C3485 1.393 . S
C3489 C3488 1.391 . S
C3490 H3480 0.950 . S
C3490 C3491 1.386 . S
C3490 C3492 1.391 . S
C3491 C3490 1.386 . S
C3491 C3495 1.393 . S
C3492 H3481 0.950 . S
C3492 C3490 1.391 . S
C3492 C3493 1.400 . S
C3493 C3487 1.491 . S
C3493 C3492 1.400 . S
C3493 C3494 1.398 . S
C3494 H3482 0.950 . S
C3494 C3493 1.398 . S
C3494 C3495 1.391 . S
C3495 H3483 0.950 . S
C3495 C3491 1.393 . S
C3495 C3494 1.391 . S
H3496 C3504 0.950 . S
H3497 C3509 0.950 . S
H3498 C3506 0.950 . S
H3499 C3508 0.950 . S
H3500 C3510 0.950 . S
H3501 C3512 0.950 . S
H3502 C3514 0.950 . S
H3503 C3515 0.950 . S
C3504 H3496 0.950 . S
C3504 C3505 1.386 . S
C3504 C3506 1.391 . S
C3505 C3504 1.386 . S
C3505 C3509 1.393 . S
C3506 H3498 0.950 . S
C3506 C3504 1.391 . S
C3506 C3507 1.400 . S
C3507 C3506 1.400 . S
C3507 C3508 1.398 . S
C3507 C3513 1.491 . S
C3508 H3499 0.950 . S
C3508 C3507 1.398 . S
C3508 C3509 1.391 . S
C3509 H3497 0.950 . S
C3509 C3505 1.393 . S
C3509 C3508 1.391 . S
C3510 H3500 0.950 . S
C3510 C3511 1.386 . S
C3510 C3512 1.391 . S
C3511 C3510 1.386 . S
C3511 C3515 1.393 . S
C3512 H3501 0.950 . S
C3512 C3510 1.391 . S
C3512 C3513 1.400 . S
C3513 C3507 1.491 . S
C3513 C3512 1.400 . S
C3513 C3514 1.398 . S
C3514 H3502 0.950 . S
C3514 C3513 1.398 . S
C3514 C3515 1.391 . S
C3515 H3503 0.950 . S
C3515 C3511 1.393 . S
C3515 C3514 1.391 . S
H3516 C3524 0.950 . S
H3517 C3529 0.950 . S
H3518 C3526 0.950 . S
H3519 C3528 0.950 . S
H3520 C3530 0.950 1_556 S
H3521 C3532 0.950 . S
H3522 C3534 0.950 . S
H3523 C3535 0.950 . S
C3524 H3516 0.950 . S
C3524 C3525 1.386 . S
C3524 C3526 1.391 . S
C3525 C3524 1.386 . S
C3525 C3529 1.393 . S
C3526 H3518 0.950 . S
C3526 C3524 1.391 . S
C3526 C3527 1.400 . S
C3527 C3526 1.400 . S
C3527 C3528 1.398 . S
C3527 C3533 1.491 . S
C3528 H3519 0.950 . S
C3528 C3527 1.398 . S
C3528 C3529 1.391 . S
C3529 H3517 0.950 . S
C3529 C3525 1.393 . S
C3529 C3528 1.391 . S
C3530 H3520 0.950 1_554 S
C3530 C3531 1.386 . S
C3530 C3532 1.391 . S
C3531 C3530 1.386 . S
C3531 C3535 1.393 . S
C3532 H3521 0.950 . S
C3532 C3530 1.391 . S
C3532 C3533 1.400 . S
C3533 C3527 1.491 . S
C3533 C3532 1.400 . S
C3533 C3534 1.398 . S
C3534 H3522 0.950 . S
C3534 C3533 1.398 . S
C3534 C3535 1.391 . S
C3535 H3523 0.950 . S
C3535 C3531 1.393 . S
C3535 C3534 1.391 . S
H3536 C3544 0.950 . S
H3537 C3549 0.950 . S
H3538 C3546 0.950 . S
H3539 C3548 0.950 . S
H3540 C3550 0.950 . S
H3541 C3552 0.950 . S
H3542 C3554 0.950 . S
H3543 C3555 0.950 . S
C3544 H3536 0.950 . S
C3544 C3545 1.386 . S
C3544 C3546 1.391 . S
C3545 C3544 1.386 . S
C3545 C3549 1.393 . S
C3546 H3538 0.950 . S
C3546 C3544 1.391 . S
C3546 C3547 1.400 . S
C3547 C3546 1.400 . S
C3547 C3548 1.398 . S
C3547 C3553 1.491 . S
C3548 H3539 0.950 . S
C3548 C3547 1.398 . S
C3548 C3549 1.391 . S
C3549 H3537 0.950 . S
C3549 C3545 1.393 . S
C3549 C3548 1.391 . S
C3550 H3540 0.950 . S
C3550 C3551 1.386 . S
C3550 C3552 1.391 . S
C3551 C3550 1.386 . S
C3551 C3555 1.393 . S
C3552 H3541 0.950 . S
C3552 C3550 1.391 . S
C3552 C3553 1.400 . S
C3553 C3547 1.491 . S
C3553 C3552 1.400 . S
C3553 C3554 1.398 . S
C3554 H3542 0.950 . S
C3554 C3553 1.398 . S
C3554 C3555 1.391 . S
C3555 H3543 0.950 . S
C3555 C3551 1.393 . S
C3555 C3554 1.391 . S
H3556 C3564 0.950 . S
H3557 C3569 0.950 . S
H3558 C3566 0.950 . S
H3559 C3568 0.950 . S
H3560 C3570 0.950 . S
H3561 C3572 0.950 . S
H3562 C3574 0.950 . S
H3563 C3575 0.950 . S
C3564 H3556 0.950 . S
C3564 C3565 1.386 . S
C3564 C3566 1.391 . S
C3565 C3564 1.386 . S
C3565 C3569 1.393 . S
C3566 H3558 0.950 . S
C3566 C3564 1.391 . S
C3566 C3567 1.400 . S
C3567 C3566 1.400 . S
C3567 C3568 1.398 . S
C3567 C3573 1.491 . S
C3568 H3559 0.950 . S
C3568 C3567 1.398 . S
C3568 C3569 1.391 . S
C3569 H3557 0.950 . S
C3569 C3565 1.393 . S
C3569 C3568 1.391 . S
C3570 H3560 0.950 . S
C3570 C3571 1.386 . S
C3570 C3572 1.391 . S
C3571 C3570 1.386 . S
C3571 C3575 1.393 . S
C3572 H3561 0.950 . S
C3572 C3570 1.391 . S
C3572 C3573 1.400 . S
C3573 C3567 1.491 . S
C3573 C3572 1.400 . S
C3573 C3574 1.398 . S
C3574 H3562 0.950 . S
C3574 C3573 1.398 . S
C3574 C3575 1.391 . S
C3575 H3563 0.950 . S
C3575 C3571 1.393 . S
C3575 C3574 1.391 . S
C1665 C101 2.189 . S
C1671 C368 2.197 . S
C1685 C57 1.850 . S
C1691 C470 1.887 . S
C1705 C73 1.879 . S
C1711 C536 1.983 . S
C1731 C622 1.381 . S
C1725 C78 1.427 . S
C1745 C21 1.547 . S
C1751 C706 1.426 . S
C1771 C788 1.921 . S
C1765 C31 1.816 . S
C1791 C890 1.911 . S
C1785 C49 1.906 . S
C1805 C0 1.964 . S
C1811 C956 2.107 . S
C1831 C386 1.662 . S
C1825 C218 1.702 . S
C1845 C229 0.915 . S
C1851 C454 0.915 . S
C1871 C554 1.118 . S
C1865 C257 1.112 . S
C1891 C620 1.636 . S
C1885 C164 1.574 1_556 S
C1905 C216 1.565 . S
C1911 C704 1.624 . S
C1931 C806 1.133 . S
C1925 C231 1.127 . S
C1951 C874 0.910 . S
C1945 C255 0.911 . S
C1971 C974 1.646 . S
C1965 C166 1.684 . S
C1991 C370 0.979 1_565 S
C1985 C143 0.928 1_556 S
C2005 C265 1.645 . S
C2011 C1058 1.671 . S
C2031 C1126 1.274 . S
C2025 C299 1.270 . S
C2051 C1208 0.864 . S
C2045 C291 0.868 . S
C2065 C104 0.880 . S
C2071 C958 0.898 . S
C2085 C117 1.318 . S
C2091 C538 1.283 . S
C2105 C304 1.583 . S
C2111 C1310 1.614 . S
C2131 C1376 0.747 . S
C2125 C278 0.769 . S
C2151 C379 2.139 . S
C2145 C60 2.106 . S
C2171 C1383 1.790 . S
C2165 C96 1.800 . S
C2185 C88 1.877 . S
C2191 C547 1.875 . S
C2205 C65 1.389 . S
C2211 C1305 1.324 . S
C2231 C717 1.387 . S
C2225 C10 1.476 . S
C2245 C44 1.735 . S
C2251 C1135 1.831 . S
C2271 C879 1.818 1_556 S
C2265 C34 1.761 . S
C2291 C1471 2.038 . S
C2285 C13 2.001 . S
C2311 C375 1.591 . S
C2305 C138 1.603 . S
C2331 C1389 0.836 . S
C2325 C296 0.864 . S
C2345 C112 1.031 . S
C2351 C543 1.033 . S
C2365 C270 1.552 . S
C2371 C1303 1.551 . S
C2385 C140 1.531 . S
C2391 C715 1.529 . S
C2411 C1131 1.044 . S
C2405 C294 1.044 . S
C2425 C114 0.842 . S
C2431 C885 0.835 . S
C2445 C268 1.599 . S
C2451 C1467 1.564 . S
C2465 C169 0.954 . S
C2471 C381 0.923 . S
C2485 C161 1.603 . S
C2491 C1047 1.595 . S
C2505 C234 1.295 . S
C2511 C801 1.228 . S
C2525 C226 0.743 . S
C2531 C1219 0.763 . S
C2551 C1473 0.902 . S
C2545 C247 0.903 . S
C2565 C195 1.324 . S
C2571 C549 1.280 . S
C2591 C627 1.529 . S
C2585 C239 1.535 . S
C2611 C463 0.659 . S
C2605 C187 0.687 . S
C2625 C75 2.181 . S
C2631 C1544 2.196 . S
C2651 C1394 1.889 . S
C2645 C83 1.856 . S
C2665 C99 1.873 . S
C2671 C1628 1.981 . S
C2685 C52 1.427 1_655 S
C2691 C1294 1.380 . S
C2705 C47 1.541 . S
C2711 C1042 1.432 . S
C2731 C1124 1.921 . S
C2725 C5 1.803 . S
C2751 C1226 1.904 . S
C2745 C23 1.912 . S
C2771 C1460 2.109 . S
C2765 C26 1.974 . S
C2791 C1562 1.656 . S
C2785 C244 1.704 . S
C2805 C177 0.926 . S
C2811 C1378 0.896 . S
C2831 C1646 1.113 . S
C2825 C192 1.100 . S
C2851 C1292 1.635 . S
C2845 C203 1.572 . S
C2871 C1040 1.624 . S
C2865 C242 1.567 . S
C2885 C179 1.130 . S
C2891 C1142 1.112 . S
C2911 C1210 0.914 . S
C2905 C190 0.907 . S
C2925 C205 1.685 . S
C2931 C1478 1.647 . S
C2951 C1546 0.937 . S
C2945 C286 0.963 . S
C2965 C122 1.664 . S
C2971 C722 1.672 . S
C2991 C790 1.249 . S
C2985 C130 1.291 1_565 S
C3011 C872 0.859 . S
C3005 C148 0.821 . S
C3031 C1462 0.899 . S
C3025 C273 0.902 . S
C3045 C260 1.304 . S
C3051 C1630 1.295 . S
C3071 C638 1.604 . S
C3065 C135 1.599 . S
C3091 C452 0.749 . S
C3085 C109 0.727 . S
C3105 C86 2.106 . S
C3111 C1555 2.138 . S
C3131 C459 1.782 . S
C3125 C70 1.797 . S
C3145 C62 1.878 . S
C3151 C1639 1.880 . S
C3165 C91 1.386 . S
C3171 C633 1.319 . S
C3185 C36 1.483 . S
C3191 C1053 1.359 . S
C3211 C799 1.836 . S
C3205 C18 1.747 . S
C3225 C8 1.775 . S
C3231 C1215 1.817 . S
C3245 C39 1.997 . S
C3251 C967 2.035 . S
C3271 C1551 1.592 . S
C3265 C307 1.606 . S
C3285 C153 0.864 . S
C3291 C465 0.823 . S
C3311 C1635 1.021 1_655 S
C3305 C281 1.043 . S
C3325 C127 1.550 . S
C3331 C631 1.544 . S
C3345 C309 1.530 . S
C3351 C1051 1.526 . S
C3371 C795 1.058 . S
C3365 C151 1.033 . S
C3385 C283 0.860 . S
C3391 C1221 0.859 . S
C3411 C963 1.572 . S
C3405 C125 1.586 . S
C3431 C1557 0.933 . S
C3425 C221 0.969 . S
C3451 C711 1.595 1_565 S
C3445 C200 1.604 . S
C3465 C208 1.306 . S
C3471 C1137 1.260 . S
C3491 C883 0.769 . S
C3485 C174 0.752 . S
C3505 C182 0.906 . S
C3511 C969 0.896 . S
C3525 C156 1.320 . S
C3531 C1641 1.250 . S
C3551 C1299 1.538 . S
C3545 C213 1.536 . S
C3571 C1387 0.656 . S
C3565 C252 0.656 . S
