# Generated by pormake.
# Topology pth, (4,4)-cn, num edge types: 1
# Building blocks:
#     Node 0, Type 0, BuildingBlock: QUQFOY_clean_sbu_3, # of connection points: 4
#     Node 1, Type 0, BuildingBlock: QUQFOY_clean_sbu_3, # of connection points: 4
#     Node 2, Type 0, BuildingBlock: QUQFOY_clean_sbu_3, # of connection points: 4
#     Node 3, Type 1, BuildingBlock: KOZSID_clean_sbu_0, # of connection points: 4
#     Node 4, Type 1, BuildingBlock: KOZSID_clean_sbu_0, # of connection points: 4
#     Node 5, Type 1, BuildingBlock: KOZSID_clean_sbu_0, # of connection points: 4
#     Edge 6, Type (0, 1), BuildingBlock: CIFDUS_clean_linker_0, # of connection points: 2
#     Edge 7, Type (0, 1), BuildingBlock: CIFDUS_clean_linker_0, # of connection points: 2
#     Edge 8, Type (0, 1), BuildingBlock: CIFDUS_clean_linker_0, # of connection points: 2
#     Edge 9, Type (0, 1), BuildingBlock: CIFDUS_clean_linker_0, # of connection points: 2
#     Edge 10, Type (0, 1), BuildingBlock: CIFDUS_clean_linker_0, # of connection points: 2
#     Edge 11, Type (0, 1), BuildingBlock: CIFDUS_clean_linker_0, # of connection points: 2
#     Edge 12, Type (0, 1), BuildingBlock: CIFDUS_clean_linker_0, # of connection points: 2
#     Edge 13, Type (0, 1), BuildingBlock: CIFDUS_clean_linker_0, # of connection points: 2
#     Edge 14, Type (0, 1), BuildingBlock: CIFDUS_clean_linker_0, # of connection points: 2
#     Edge 15, Type (0, 1), BuildingBlock: CIFDUS_clean_linker_0, # of connection points: 2
#     Edge 16, Type (0, 1), BuildingBlock: CIFDUS_clean_linker_0, # of connection points: 2
#     Edge 17, Type (0, 1), BuildingBlock: CIFDUS_clean_linker_0, # of connection points: 2
# Relax obj value: 0.008
# Max RMSD: 0.069
# Mean RMSD: 0.044
data_MOF--net-pth--node1-QUQFOY_clean_sbu_3--node2-KOZSID_clean_sbu_0--edge1-CIFDUS_clean_linker_0
_symmetry_space_group_name_H-M    P1
_symmetry_Int_Tables_number       1
_symmetry_cell_setting            triclinic
loop_
_symmetry_equiv_pos_as_xyz
'x, y, z'
_cell_length_a     23.866398
_cell_length_b     23.67285
_cell_length_c     55.42782
_cell_angle_alpha  86.912074
_cell_angle_beta   87.887831
_cell_angle_gamma 120.79651
loop_
_atom_site_label
_atom_site_type_symbol
_atom_site_fract_x
_atom_site_fract_y
_atom_site_fract_z
_atom_type_partial_charge
C0 C 0.02012 0.14841 0.06864 0.0
O1 O 0.9888 0.14547 0.05027 0.0
Cd2 Cd 0.9893 0.08697 0.0162 0.0
O3 O 0.04985 0.11663 0.07014 0.0
Cd4 Cd 0.06723 0.04079 0.04641 0.0
C5 C 0.15518 0.16549 0.00355 0.0
O6 O 0.96071 0.97658 0.02945 0.0
O7 O 0.04115 0.97137 0.01292 0.0
O8 O 0.04606 0.97531 0.0847 0.0
C9 C 0.98025 0.94968 0.01482 0.0
O10 O 0.09995 0.15325 0.99672 0.0
C11 C 0.09364 0.9662 0.08131 0.0
O12 O 0.15869 0.13482 0.02249 0.0
O13 O 0.13083 0.99425 0.06209 0.0
C14 C 0.18985 0.11587 0.39641 0.0
O15 O 0.22043 0.1606 0.37923 0.0
Cd16 Cd 0.16215 0.17306 0.34689 0.0
O17 O 0.1277 0.08213 0.39807 0.0
Cd18 Cd 0.03482 0.07531 0.37771 0.0
C19 C 0.07784 0.00939 0.33439 0.0
O20 O 0.0738 0.18781 0.35993 0.0
O21 O 0.99292 0.10678 0.34406 0.0
O22 O 0.00193 0.08924 0.41752 0.0
C23 C 0.02865 0.16848 0.34539 0.0
O24 O 0.12147 0.06945 0.32842 0.0
C25 C 0.94201 0.0453 0.41727 0.0
O26 O 0.03879 0.99376 0.35324 0.0
O27 O 0.92475 0.01218 0.39879 0.0
C28 C 0.9659 0.10305 0.6859 0.0
O29 O 0.97586 0.14222 0.70218 0.0
Cd30 Cd 0.05054 0.15874 0.73306 0.0
O31 O -0.00079 0.07516 0.6843 0.0
Cd32 Cd 0.08829 0.07262 0.704 0.0
C33 C 0.98335 0.99532 0.75274 0.0
O34 O 0.15663 0.18352 0.7179 0.0
O35 O 0.16444 0.10329 0.73466 0.0
O36 O 0.13946 0.09472 0.66338 0.0
C37 C 0.18555 0.16464 0.73218 0.0
O38 O 0.99733 0.05327 0.75705 0.0
C39 C 0.15528 0.05115 0.66545 0.0
O40 O 0.00504 0.9849 0.73313 0.0
O41 O 0.13727 0.0148 0.6853 0.0
C42 C 0.12171 0.6873 0.18338 0.0
C43 C 0.18502 0.73475 0.17455 0.0
C44 C 0.2245 0.71102 0.18101 0.0
C45 C 0.18361 0.6512 0.19373 0.0
N46 N 0.12099 0.63612 0.1958 0.0
Co47 Co 0.04703 0.55755 0.21437 0.0
N48 N 0.10739 0.54195 0.23326 0.0
C49 C 0.17114 0.56597 0.22692 0.0
C50 C 0.20031 0.54513 0.24305 0.0
C51 C 0.15178 0.50498 0.26052 0.0
C52 C 0.09534 0.50369 0.25407 0.0
N53 N 0.97301 0.47895 0.23286 0.0
C54 C 0.97187 0.44677 0.25398 0.0
C55 C 0.90896 0.39465 0.26084 0.0
C56 C 0.87015 0.3933 0.24298 0.0
C57 C 0.91108 0.44483 0.22637 0.0
N58 N 0.98707 0.57322 0.1953 0.0
C59 C 0.92429 0.5285 0.19219 0.0
C60 C 0.89559 0.55344 0.17749 0.0
C61 C 0.94348 0.61773 0.17093 0.0
C62 C -0.00118 0.62852 0.18217 0.0
N63 N 0.04843 0.50134 0.1901 0.0
C64 C 0.03754 0.41523 0.15543 0.0
C65 C 0.04848 0.47807 0.14841 0.0
C66 C 0.05377 0.52027 0.16598 0.0
C67 C 0.03449 0.39747 0.18018 0.0
C68 C 0.0404 0.44124 0.19716 0.0
N69 N 0.04475 0.61327 0.23856 0.0
C70 C 0.98327 0.6475 0.26265 0.0
C71 C 0.04111 0.6988 0.27051 0.0
C72 C 0.10071 0.70508 0.26269 0.0
C73 C 0.10142 0.66153 0.24684 0.0
C74 C 0.98618 0.60552 0.24662 0.0
H75 H 0.1479 0.66775 0.24089 0.0
H76 H 0.94102 0.56772 0.24029 0.0
H77 H 0.06083 0.56776 0.16004 0.0
H78 H 0.03669 0.42558 0.21605 0.0
C79 C 0.20385 0.61536 0.20797 0.0
C80 C 0.06285 0.68987 0.17855 0.0
C81 C 0.03017 0.45971 0.26648 0.0
C82 C 0.89153 0.46869 0.20671 0.0
H83 H 0.20149 0.78187 0.16466 0.0
H84 H 0.2772 0.73618 0.17799 0.0
H85 H 0.25113 0.55876 0.24255 0.0
H86 H 0.1573 0.47865 0.27592 0.0
H87 H 0.89296 0.36044 0.27686 0.0
H88 H 0.81797 0.36 0.24257 0.0
H89 H 0.84524 0.52876 0.17285 0.0
H90 H 0.9383 0.65247 0.15914 0.0
H91 H 0.05256 0.49453 0.12947 0.0
H92 H 0.02563 0.34931 0.18653 0.0
H93 H 0.93628 0.64135 0.2681 0.0
H94 H 0.14649 0.74378 0.26859 0.0
C95 C 0.41989 0.98159 0.57481 0.0
C96 C 0.36717 0.92103 0.58416 0.0
C97 C 0.37618 0.87375 0.57503 0.0
C98 C 0.43342 0.90793 0.56066 0.0
N99 N 0.46119 0.97421 0.55972 0.0
Co100 Co 0.54587 0.04208 0.54167 0.0
N101 N 0.55764 0.9721 0.52768 0.0
C102 C 0.51574 0.90614 0.53082 0.0
C103 C 0.53565 0.87031 0.51836 0.0
C104 C 0.59342 0.91616 0.50618 0.0
C105 C 0.60527 0.97757 0.51195 0.0
N106 N 0.63288 0.10968 0.52498 0.0
C107 C 0.67508 0.10205 0.51043 0.0
C108 C 0.73098 0.16226 0.50308 0.0
C109 C 0.72377 0.20953 0.51336 0.0
C110 C 0.66419 0.17573 0.52636 0.0
N111 N 0.53152 0.11199 0.55423 0.0
C112 C 0.57033 0.17797 0.54909 0.0
C113 C 0.5474 0.21363 0.55995 0.0
C114 C 0.49049 0.1677 0.57277 0.0
C115 C 0.48199 0.10637 0.56898 0.0
N116 N 0.59234 0.04123 0.57056 0.0
C117 C 0.66846 0.04652 0.60894 0.0
C118 C 0.66403 0.101 0.60134 0.0
C119 C 0.62641 0.09746 0.5823 0.0
C120 C 0.63239 0.98828 0.59761 0.0
C121 C 0.594 0.9864 0.57876 0.0
N122 N 0.50013 0.04436 0.5128 0.0
C123 C 0.49121 0.10784 0.47918 0.0
C124 C 0.43034 0.05486 0.47473 0.0
C125 C 0.40592 0.99532 0.48899 0.0
C126 C 0.4419 0.99087 0.50765 0.0
C127 C 0.52483 0.10165 0.49809 0.0
H128 H 0.42127 0.94416 0.51791 0.0
H129 H 0.57003 0.14486 0.50072 0.0
H130 H 0.62725 0.14177 0.57717 0.0
H131 H 0.56687 0.94047 0.57091 0.0
C132 C 0.45997 0.87922 0.54663 0.0
C133 C 0.42832 0.04452 0.58083 0.0
C134 C 0.66257 0.03943 0.5021 0.0
C135 C 0.63216 0.20483 0.53696 0.0
H136 H 0.32622 0.91187 0.59626 0.0
H137 H 0.34441 0.82077 0.57826 0.0
H138 H 0.51135 0.81718 0.5183 0.0
H139 H 0.62353 0.90552 0.49445 0.0
H140 H 0.77189 0.17133 0.49098 0.0
H141 H 0.75672 0.26244 0.51077 0.0
H142 H 0.57068 0.26678 0.55947 0.0
H143 H 0.45981 0.17833 0.58417 0.0
H144 H 0.69167 0.14738 0.60943 0.0
H145 H 0.63401 0.94459 0.60317 0.0
H146 H 0.51189 0.15511 0.46874 0.0
H147 H 0.3592 0.95263 0.48588 0.0
C148 C 0.69622 0.62481 0.83993 0.0
C149 C 0.74654 0.61379 0.83369 0.0
C150 C 0.73354 0.55776 0.847 0.0
C151 C 0.67654 0.53808 0.86062 0.0
N152 N 0.65214 0.57807 0.85686 0.0
Co153 Co 0.57114 0.56862 0.87341 0.0
N154 N 0.55002 0.48382 0.89185 0.0
C155 C 0.58468 0.45316 0.89063 0.0
C156 C 0.556 0.39354 0.90403 0.0
C157 C 0.49921 0.38508 0.91431 0.0
C158 C 0.49684 0.44072 0.90674 0.0
N159 N 0.49085 0.55976 0.89031 0.0
C160 C 0.44482 0.51091 0.90618 0.0
C161 C 0.39783 0.52505 0.91417 0.0
C162 C 0.41385 0.58415 0.9025 0.0
C163 C 0.46974 0.60298 0.88826 0.0
N164 N 0.59122 0.65239 0.85448 0.0
C165 C 0.55597 0.6825 0.85534 0.0
C166 C 0.58049 0.73783 0.83957 0.0
C167 C 0.63455 0.7434 0.82784 0.0
C168 C 0.64014 0.69111 0.83731 0.0
N169 N 0.51884 0.51787 0.84708 0.0
C170 C 0.44224 0.44423 0.81033 0.0
C171 C 0.43268 0.49181 0.8203 0.0
C172 C 0.47127 0.52784 0.83843 0.0
C173 C 0.4917 0.43497 0.81879 0.0
C174 C 0.52898 0.47188 0.83709 0.0
N175 N 0.6236 0.61994 0.89981 0.0
C176 C 0.65754 0.71079 0.92497 0.0
C177 C 0.70017 0.69584 0.93624 0.0
C178 C 0.70335 0.6417 0.92922 0.0
C179 C 0.6647 0.60452 0.91119 0.0
C180 C 0.62025 0.67271 0.90698 0.0
H181 H 0.66928 0.56387 0.9067 0.0
H182 H 0.58973 0.6877 0.89901 0.0
H183 H 0.46109 0.56293 0.84536 0.0
H184 H 0.56542 0.46208 0.84299 0.0
C185 C 0.64309 0.48059 0.87616 0.0
C186 C 0.69288 0.68062 0.82941 0.0
C187 C 0.44227 0.44948 0.91359 0.0
C188 C 0.50074 0.65832 0.8715 0.0
H189 H 0.7883 0.6431 0.8208 0.0
H190 H 0.76188 0.53382 0.84661 0.0
H191 H 0.57361 0.35959 0.90571 0.0
H192 H 0.46325 0.34208 0.92572 0.0
H193 H 0.35566 0.49516 0.92683 0.0
H194 H 0.38706 0.60959 0.90378 0.0
H195 H 0.56134 0.77026 0.83692 0.0
H196 H 0.66629 0.78166 0.81389 0.0
H197 H 0.39437 0.50018 0.81464 0.0
H198 H 0.5016 0.39924 0.81142 0.0
H199 H 0.65408 0.75289 0.92953 0.0
H200 H 0.73538 0.62791 0.93764 0.0
H201 H 0.97098 0.22988 0.06984 0.0
H202 H 0.08231 0.16549 0.11041 0.0
H203 H 0.09767 0.24234 0.14065 0.0
H204 H 0.08275 0.3303 0.15491 0.0
H205 H 0.96964 0.39323 0.11485 0.0
H206 H 0.953 0.31537 0.08485 0.0
C207 C 0.99825 0.23227 0.08537 0.0
C208 C 0.02549 0.19194 0.08777 0.0
C209 C 0.00734 0.27691 0.10265 0.0
C210 C 0.06078 0.19591 0.10803 0.0
C211 C 0.06978 0.23999 0.12534 0.0
C212 C 0.05385 0.32655 0.13977 0.0
C213 C 0.0278 0.36789 0.13713 0.0
C214 C 0.04373 0.28108 0.12273 0.0
C215 C 0.99132 0.36295 0.11715 0.0
C216 C 0.98127 0.318 0.10006 0.0
H217 H 0.81554 0.00954 0.41319 0.0
H218 H 0.96358 0.06926 0.46439 0.0
H219 H 0.88994 0.07258 0.49537 0.0
H220 H 0.78473 0.06298 0.50739 0.0
H221 H 0.6393 0.00985 0.45558 0.0
H222 H 0.71048 -2e-05 0.42519 0.0
C223 C 0.83109 0.02212 0.43126 0.0
C224 C 0.89446 0.0385 0.43664 0.0
C225 C 0.78936 0.02624 0.44869 0.0
C226 C 0.91476 0.05615 0.45994 0.0
C227 C 0.87288 0.05842 0.47759 0.0
C228 C 0.76925 0.0498 0.48935 0.0
C229 C 0.70768 0.03775 0.48344 0.0
C230 C 0.81051 0.04465 0.47205 0.0
C231 C 0.68708 0.01989 0.46023 0.0
C232 C 0.7275 0.01393 0.44299 0.0
H233 H 0.89982 0.86711 0.74431 0.0
H234 H 0.96498 0.0005 0.80091 0.0
H235 H 0.88236 0.91383 0.82984 0.0
H236 H 0.78727 0.80213 0.8386 0.0
H237 H 0.71818 0.6693 0.78219 0.0
H238 H 0.80641 0.75337 0.75354 0.0
C239 C 0.89645 0.87673 0.76306 0.0
C240 C 0.93826 0.94004 0.77046 0.0
C241 C 0.84769 0.82702 0.77952 0.0
C242 C 0.93303 0.95219 0.79475 0.0
C243 C 0.88577 0.90276 0.81131 0.0
C244 C 0.792 0.79196 0.82002 0.0
C245 C 0.74685 0.73052 0.81225 0.0
C246 C 0.84211 0.84047 0.80379 0.0
C247 C 0.7528 0.71685 0.7883 0.0
C248 C 0.80307 0.76472 0.77203 0.0
H249 H 0.0447 0.92488 0.12811 0.0
H250 H 0.15871 0.90284 0.0712 0.0
H251 H 0.15928 0.81523 0.09634 0.0
H252 H 0.12047 0.73954 0.13325 0.0
H253 H 0.01379 0.76606 0.1915 0.0
H254 H 0.01562 0.85643 0.16687 0.0
C255 C 0.0703 0.90138 0.12136 0.0
C256 C 0.10126 0.91992 0.0978 0.0
C257 C 0.07099 0.85148 0.13601 0.0
C258 C 0.13471 0.88955 0.08931 0.0
C259 C 0.13469 0.83916 0.1036 0.0
C260 C 0.09925 0.76642 0.14075 0.0
C261 C 0.06826 0.74752 0.16426 0.0
C262 C 0.10213 0.81908 0.12679 0.0
C263 C 0.03863 0.78072 0.17352 0.0
C264 C 0.0397 0.83217 0.15947 0.0
H265 H 0.3157 0.14537 0.39063 0.0
H266 H 0.14433 0.04798 0.44092 0.0
H267 H 0.20215 0.01627 0.4689 0.0
H268 H 0.30239 0.01854 0.47952 0.0
H269 H 0.47284 0.11414 0.42884 0.0
H270 H 0.41415 0.14356 0.40045 0.0
C271 C 0.29117 0.11763 0.40779 0.0
C272 C 0.22608 0.09963 0.41378 0.0
C273 C 0.32431 0.09865 0.42361 0.0
C274 C 0.19457 0.06269 0.43591 0.0
C275 C 0.22749 0.04434 0.45189 0.0
C276 C 0.32617 0.04468 0.46206 0.0
C277 C 0.39179 0.06423 0.45628 0.0
C278 C 0.29235 0.06198 0.44592 0.0
C279 C 0.42243 0.09898 0.43375 0.0
C280 C 0.389 0.11595 0.41755 0.0
H281 H 0.2428 0.29858 0.73146 0.0
H282 H 0.24427 0.13219 0.76673 0.0
H283 H 0.32538 0.20431 0.7932 0.0
H284 H 0.39175 0.31304 0.80777 0.0
H285 H 0.39376 0.48105 0.77238 0.0
H286 H 0.31505 0.40975 0.74471 0.0
C287 C 0.26115 0.27827 0.74486 0.0
C288 C 0.23714 0.21008 0.7472 0.0
C289 C 0.30812 0.32014 0.76012 0.0
C290 C 0.26166 0.18448 0.76458 0.0
C291 C 0.30809 0.22565 0.77977 0.0
C292 C 0.37606 0.33443 0.79372 0.0
C293 C 0.39854 0.40225 0.79223 0.0
C294 C 0.33119 0.29337 0.77785 0.0
C295 C 0.37652 0.42878 0.77417 0.0
C296 C 0.33172 0.38811 0.75827 0.0
H297 H 0.8666 0.12771 0.6904 0.0
H298 H 0.94636 0.04024 0.64446 0.0
H299 H 0.85803 0.00986 0.61773 0.0
H300 H 0.7601 0.01144 0.60655 0.0
H301 H 0.68048 0.09893 0.65237 0.0
H302 H 0.76619 0.12517 0.68015 0.0
C303 C 0.86484 0.10228 0.67448 0.0
C304 C 0.91335 0.08681 0.66936 0.0
C305 C 0.81356 0.08437 0.65927 0.0
C306 C 0.9098 0.05302 0.64881 0.0
C307 C 0.85919 0.03541 0.63353 0.0
C308 C 0.76086 0.03504 0.62288 0.0
C309 C 0.71417 0.0532 0.62745 0.0
C310 C 0.81087 0.05093 0.63855 0.0
C311 C 0.7162 0.08474 0.64846 0.0
C312 C 0.76526 0.09995 0.66428 0.0
H313 H 0.84844 0.89476 0.01459 0.0
H314 H 0.01137 0.88963 0.98067 0.0
H315 H 0.93845 0.80782 0.95436 0.0
H316 H 0.82939 0.74152 0.93966 0.0
H317 H 0.66632 0.74648 0.97339 0.0
H318 H 0.73831 0.82455 0.00107 0.0
C319 C 0.86793 0.87558 0.00149 0.0
C320 C 0.93526 0.89859 -0.0005 0.0
C321 C 0.82575 0.82861 0.98634 0.0
C322 C 0.95974 0.873 0.98252 0.0
C323 C 0.91809 0.82615 0.96745 0.0
C324 C 0.80944 0.75886 0.95333 0.0
C325 C 0.74272 0.73845 0.95442 0.0
C326 C 0.85114 0.80402 0.96906 0.0
C327 C 0.71773 0.7621 0.97201 0.0
C328 C 0.7588 0.80661 0.98787 0.0
H329 H -0.0012 0.87492 0.34226 0.0
H330 H 0.1534 0.02869 0.29327 0.0
H331 H 0.15628 0.94642 0.26982 0.0
H332 H 0.11624 0.83128 0.2631 0.0
H333 H 0.96106 0.67611 0.31109 0.0
H334 H 0.95699 0.75832 0.33497 0.0
C335 C 0.03286 0.89039 0.3264 0.0
C336 C 0.07588 0.95804 0.31967 0.0
C337 C 0.03447 0.8426 0.31284 0.0
C338 C 0.11972 0.9771 0.299 0.0
C339 C 0.1216 0.93006 0.28553 0.0
C340 C 0.08204 0.81551 0.27896 0.0
C341 C 0.03952 0.74794 0.28551 0.0
C342 C 0.07961 0.8628 0.29236 0.0
C343 C 0.99431 0.72803 0.30573 0.0
C344 C 0.99202 0.77496 0.31937 0.0
H345 H 0.24372 0.01339 0.67129 0.0
H346 H 0.16388 0.08413 0.61714 0.0
H347 H 0.24202 0.08911 0.586 0.0
H348 H 0.33503 0.07555 0.57437 0.0
H349 H 0.41901 0.01156 0.62898 0.0
H350 H 0.33791 0.00226 0.6599 0.0
C351 C 0.24294 0.02897 0.6526 0.0
C352 C 0.19782 0.04763 0.64639 0.0
C353 C 0.28939 0.03386 0.63501 0.0
C354 C 0.19808 0.06917 0.62225 0.0
C355 C 0.24287 0.07232 0.60449 0.0
C356 C 0.33564 0.0603 0.59312 0.0
C357 C 0.38262 0.04466 0.59964 0.0
C358 C 0.28923 0.05552 0.61071 0.0
C359 C 0.3832 0.02424 0.62382 0.0
C360 C 0.33677 0.0186 0.64137 0.0
H361 H 0.16676 0.21741 0.95754 0.0
H362 H 0.27928 0.23081 0.01848 0.0
H363 H 0.3779 0.32102 0.99622 0.0
H364 H 0.43173 0.39779 0.9596 0.0
H365 H 0.32029 0.38008 0.8981 0.0
H366 H 0.22114 0.2904 0.92052 0.0
C367 C 0.21287 0.23998 0.96596 0.0
C368 C 0.2156 0.21763 0.98967 0.0
C369 C 0.26935 0.29128 0.953 0.0
C370 C 0.27587 0.24695 0.00022 0.0
C371 C 0.33223 0.29871 0.98755 0.0
C372 C 0.38564 0.37378 0.95119 0.0
C373 C 0.38275 0.39488 0.92735 0.0
C374 C 0.32945 0.32147 0.96399 0.0
C375 C 0.32312 0.36423 0.91649 0.0
C376 C 0.26672 0.31306 0.92926 0.0
H377 H 0.06132 0.29451 0.35241 0.0
H378 H 0.97886 0.14564 0.30153 0.0
H379 H 0.96817 0.22155 0.27329 0.0
H380 H 0.98758 0.33174 0.2621 0.0
H381 H 0.06452 0.48013 0.31305 0.0
H382 H 0.07188 0.40301 0.34242 0.0
C383 C 0.04101 0.27894 0.33514 0.0
C384 C 0.02154 0.21498 0.32891 0.0
C385 C 0.03367 0.32249 0.31915 0.0
C386 C 0.99431 0.19475 0.30668 0.0
C387 C 0.98815 0.23805 0.29053 0.0
C388 C 0.00418 0.34639 0.27992 0.0
C389 C 0.02445 0.41069 0.28574 0.0
C390 C 0.00804 0.30204 0.2965 0.0
C391 C 0.04771 0.43023 0.30852 0.0
C392 C 0.05238 0.38643 0.32514 0.0
loop_
_geom_bond_atom_site_label_1
_geom_bond_atom_site_label_2
_geom_bond_distance
_geom_bond_site_symmetry_2
_ccdc_geom_bond_type
C0 O1 1.306 . S
C0 O3 1.160 . S
O1 C0 1.306 . S
O1 Cd2 2.228 . S
Cd2 O1 2.228 . S
Cd2 O6 2.273 1_455 S
Cd2 O10 2.277 . S
O3 C0 1.160 . S
O3 Cd4 2.203 . S
Cd4 O3 2.203 . S
Cd4 O6 2.411 1_455 S
Cd4 O7 2.333 1_545 S
Cd4 O8 2.352 1_545 S
Cd4 O12 2.277 . S
Cd4 O13 2.356 1_545 S
C5 O10 1.209 . S
C5 O12 1.226 . S
O6 Cd2 2.273 1_655 S
O6 Cd4 2.411 1_655 S
O6 C9 1.320 1_545 S
O7 Cd4 2.333 1_565 S
O7 C9 1.214 1_455 S
O8 Cd4 2.352 1_565 S
O8 C11 1.258 . S
C9 O6 1.320 1_565 S
C9 O7 1.214 1_655 S
O10 Cd2 2.277 . S
O10 C5 1.209 . S
C11 O8 1.258 . S
C11 O13 1.282 . S
O12 Cd4 2.277 . S
O12 C5 1.226 . S
O13 Cd4 2.356 1_565 S
O13 C11 1.282 . S
C14 O15 1.306 . S
C14 O17 1.160 . S
O15 C14 1.306 . S
O15 Cd16 2.228 . S
Cd16 O15 2.228 . S
Cd16 O20 2.273 . S
Cd16 O24 2.277 . S
O17 C14 1.160 . S
O17 Cd18 2.203 . S
Cd18 O17 2.203 . S
Cd18 O20 2.411 . S
Cd18 O21 2.333 1_455 S
Cd18 O22 2.352 1_455 S
Cd18 O26 2.277 1_445 S
Cd18 O27 2.356 1_455 S
C19 O24 1.209 1_565 S
C19 O26 1.226 1_455 S
O20 Cd16 2.273 . S
O20 Cd18 2.411 . S
O20 C23 1.320 . S
O21 Cd18 2.333 1_655 S
O21 C23 1.214 1_655 S
O22 Cd18 2.352 1_655 S
O22 C25 1.258 . S
C23 O20 1.320 . S
C23 O21 1.214 1_455 S
O24 Cd16 2.277 . S
O24 C19 1.209 1_545 S
C25 O22 1.258 . S
C25 O27 1.282 . S
O26 Cd18 2.277 1_665 S
O26 C19 1.226 1_655 S
O27 Cd18 2.356 1_655 S
O27 C25 1.282 . S
C28 O29 1.306 . S
C28 O31 1.160 1_655 S
O29 C28 1.306 . S
O29 Cd30 2.228 1_655 S
Cd30 O29 2.228 1_455 S
Cd30 O34 2.273 . S
Cd30 O38 2.277 1_455 S
O31 C28 1.160 1_455 S
O31 Cd32 2.203 . S
Cd32 O31 2.203 . S
Cd32 O34 2.411 . S
Cd32 O35 2.333 . S
Cd32 O36 2.352 . S
Cd32 O40 2.277 1_545 S
Cd32 O41 2.356 1_545 S
C33 O38 1.209 1_565 S
C33 O40 1.226 1_655 S
O34 Cd30 2.273 . S
O34 Cd32 2.411 . S
O34 C37 1.320 . S
O35 Cd32 2.333 . S
O35 C37 1.214 . S
O36 Cd32 2.352 . S
O36 C39 1.258 . S
C37 O34 1.320 . S
C37 O35 1.214 . S
O38 Cd30 2.277 1_655 S
O38 C33 1.209 1_545 S
C39 O36 1.258 . S
C39 O41 1.282 1_545 S
O40 Cd32 2.277 1_565 S
O40 C33 1.226 1_455 S
O41 Cd32 2.356 1_565 S
O41 C39 1.282 1_565 S
C42 C43 1.443 . S
C42 N46 1.376 . S
C42 C80 1.389 . S
C43 C42 1.443 . S
C43 C44 1.340 . S
C43 H83 0.951 . S
C44 C43 1.340 . S
C44 C45 1.439 . S
C44 H84 0.950 . S
C45 C44 1.439 . S
C45 N46 1.374 . S
C45 C79 1.395 . S
N46 C42 1.376 . S
N46 C45 1.374 . S
N46 Co47 2.008 . S
Co47 N46 2.008 . S
Co47 N48 1.995 . S
Co47 N53 2.008 1_455 S
Co47 N58 1.995 1_455 S
Co47 N63 2.282 . S
Co47 N69 2.282 . S
N48 Co47 1.995 . S
N48 C49 1.376 . S
N48 C52 1.383 . S
C49 N48 1.376 . S
C49 C50 1.446 . S
C49 C79 1.391 . S
C50 C49 1.446 . S
C50 C51 1.339 . S
C50 H85 0.949 . S
C51 C50 1.339 . S
C51 C52 1.439 . S
C51 H86 0.950 . S
C52 N48 1.383 . S
C52 C51 1.439 . S
C52 C81 1.392 . S
N53 Co47 2.008 1_655 S
N53 C54 1.376 . S
N53 C57 1.374 . S
C54 N53 1.376 . S
C54 C55 1.443 . S
C54 C81 1.389 1_655 S
C55 C54 1.443 . S
C55 C56 1.340 . S
C55 H87 0.951 . S
C56 C55 1.340 . S
C56 C57 1.439 . S
C56 H88 0.950 . S
C57 N53 1.374 . S
C57 C56 1.439 . S
C57 C82 1.395 . S
N58 Co47 1.995 1_655 S
N58 C59 1.376 . S
N58 C62 1.383 1_655 S
C59 N58 1.376 . S
C59 C60 1.446 . S
C59 C82 1.391 . S
C60 C59 1.446 . S
C60 C61 1.339 . S
C60 H89 0.949 . S
C61 C60 1.339 . S
C61 C62 1.439 1_655 S
C61 H90 0.950 . S
C62 N58 1.383 1_455 S
C62 C61 1.439 1_455 S
C62 C80 1.392 . S
N63 Co47 2.282 . S
N63 C66 1.332 . S
N63 C68 1.332 . S
C64 C65 1.386 . S
C64 C67 1.388 . S
C65 C64 1.386 . S
C65 C66 1.382 . S
C65 H91 0.950 1_455 S
C66 N63 1.332 . S
C66 C65 1.382 . S
C66 H77 0.952 1_455 S
C67 C64 1.388 . S
C67 C68 1.382 . S
C67 H92 0.950 . S
C68 N63 1.332 . S
C68 C67 1.382 . S
C68 H78 0.948 . S
N69 Co47 2.282 . S
N69 C73 1.332 . S
N69 C74 1.332 1_455 S
C70 C71 1.388 1_655 S
C70 C74 1.382 . S
C70 H93 0.950 . S
C71 C70 1.388 1_455 S
C71 C72 1.386 . S
C72 C71 1.386 . S
C72 C73 1.382 . S
C72 H94 0.950 . S
C73 N69 1.332 . S
C73 C72 1.382 . S
C73 H75 0.952 . S
C74 N69 1.332 1_655 S
C74 C70 1.382 . S
C74 H76 0.948 . S
H75 C73 0.952 . S
H76 C74 0.948 . S
H77 C66 0.952 1_655 S
H78 C68 0.948 . S
C79 C45 1.395 . S
C79 C49 1.391 . S
C80 C42 1.389 . S
C80 C62 1.392 . S
C81 C52 1.392 . S
C81 C54 1.389 1_455 S
C82 C57 1.395 . S
C82 C59 1.391 . S
H83 C43 0.951 . S
H84 C44 0.950 . S
H85 C50 0.949 . S
H86 C51 0.950 . S
H87 C55 0.951 . S
H88 C56 0.950 . S
H89 C60 0.949 . S
H90 C61 0.950 . S
H91 C65 0.950 1_655 S
H92 C67 0.950 . S
H93 C70 0.950 . S
H94 C72 0.950 . S
C95 C96 1.443 1_545 S
C95 N99 1.376 . S
C95 C133 1.389 . S
C96 C95 1.443 1_565 S
C96 C97 1.340 . S
C96 H136 0.951 . S
C97 C96 1.340 . S
C97 C98 1.439 . S
C97 H137 0.950 . S
C98 C97 1.439 . S
C98 N99 1.374 1_565 S
C98 C132 1.395 . S
N99 C95 1.376 . S
N99 C98 1.374 1_545 S
N99 Co100 2.008 . S
Co100 N99 2.008 . S
Co100 N101 1.995 . S
Co100 N106 2.008 . S
Co100 N111 1.995 . S
Co100 N116 2.282 . S
Co100 N122 2.282 . S
N101 Co100 1.995 . S
N101 C102 1.376 1_545 S
N101 C105 1.383 . S
C102 N101 1.376 1_565 S
C102 C103 1.446 . S
C102 C132 1.391 . S
C103 C102 1.446 . S
C103 C104 1.339 . S
C103 H138 0.949 . S
C104 C103 1.339 . S
C104 C105 1.439 1_565 S
C104 H139 0.950 . S
C105 N101 1.383 . S
C105 C104 1.439 1_545 S
C105 C134 1.392 . S
N106 Co100 2.008 . S
N106 C107 1.376 . S
N106 C110 1.374 . S
C107 N106 1.376 . S
C107 C108 1.443 . S
C107 C134 1.389 . S
C108 C107 1.443 . S
C108 C109 1.340 . S
C108 H140 0.951 . S
C109 C108 1.340 . S
C109 C110 1.439 . S
C109 H141 0.950 . S
C110 N106 1.374 . S
C110 C109 1.439 . S
C110 C135 1.395 . S
N111 Co100 1.995 . S
N111 C112 1.376 . S
N111 C115 1.383 . S
C112 N111 1.376 . S
C112 C113 1.446 . S
C112 C135 1.391 . S
C113 C112 1.446 . S
C113 C114 1.339 . S
C113 H142 0.949 . S
C114 C113 1.339 . S
C114 C115 1.439 . S
C114 H143 0.950 . S
C115 N111 1.383 . S
C115 C114 1.439 . S
C115 C133 1.392 . S
N116 Co100 2.282 . S
N116 C119 1.332 . S
N116 C121 1.332 . S
C117 C118 1.386 . S
C117 C120 1.388 . S
C118 C117 1.386 . S
C118 C119 1.382 . S
C118 H144 0.950 . S
C119 N116 1.332 . S
C119 C118 1.382 . S
C119 H130 0.952 . S
C120 C117 1.388 . S
C120 C121 1.382 . S
C120 H145 0.950 1_545 S
C121 N116 1.332 . S
C121 C120 1.382 . S
C121 H131 0.948 1_545 S
N122 Co100 2.282 . S
N122 C126 1.332 . S
N122 C127 1.332 . S
C123 C124 1.388 . S
C123 C127 1.382 . S
C123 H146 0.950 . S
C124 C123 1.388 . S
C124 C125 1.386 . S
C125 C124 1.386 . S
C125 C126 1.382 . S
C125 H147 0.950 1_545 S
C126 N122 1.332 . S
C126 C125 1.382 . S
C126 H128 0.952 1_545 S
C127 N122 1.332 . S
C127 C123 1.382 . S
C127 H129 0.948 . S
H128 C126 0.952 1_565 S
H129 C127 0.948 . S
H130 C119 0.952 . S
H131 C121 0.948 1_565 S
C132 C98 1.395 . S
C132 C102 1.391 . S
C133 C95 1.389 . S
C133 C115 1.392 . S
C134 C105 1.392 . S
C134 C107 1.389 . S
C135 C110 1.395 . S
C135 C112 1.391 . S
H136 C96 0.951 . S
H137 C97 0.950 . S
H138 C103 0.949 . S
H139 C104 0.950 . S
H140 C108 0.951 . S
H141 C109 0.950 . S
H142 C113 0.949 . S
H143 C114 0.950 . S
H144 C118 0.950 . S
H145 C120 0.950 1_565 S
H146 C123 0.950 . S
H147 C125 0.950 1_565 S
C148 C149 1.443 . S
C148 N152 1.376 . S
C148 C186 1.389 . S
C149 C148 1.443 . S
C149 C150 1.340 . S
C149 H189 0.951 . S
C150 C149 1.340 . S
C150 C151 1.439 . S
C150 H190 0.950 . S
C151 C150 1.439 . S
C151 N152 1.374 . S
C151 C185 1.395 . S
N152 C148 1.376 . S
N152 C151 1.374 . S
N152 Co153 2.008 . S
Co153 N152 2.008 . S
Co153 N154 1.995 . S
Co153 N159 2.008 . S
Co153 N164 1.995 . S
Co153 N169 2.282 . S
Co153 N175 2.282 . S
N154 Co153 1.995 . S
N154 C155 1.376 . S
N154 C158 1.383 . S
C155 N154 1.376 . S
C155 C156 1.446 . S
C155 C185 1.391 . S
C156 C155 1.446 . S
C156 C157 1.339 . S
C156 H191 0.949 . S
C157 C156 1.339 . S
C157 C158 1.439 . S
C157 H192 0.950 . S
C158 N154 1.383 . S
C158 C157 1.439 . S
C158 C187 1.392 . S
N159 Co153 2.008 . S
N159 C160 1.376 . S
N159 C163 1.374 . S
C160 N159 1.376 . S
C160 C161 1.443 . S
C160 C187 1.389 . S
C161 C160 1.443 . S
C161 C162 1.340 . S
C161 H193 0.951 . S
C162 C161 1.340 . S
C162 C163 1.439 . S
C162 H194 0.950 . S
C163 N159 1.374 . S
C163 C162 1.439 . S
C163 C188 1.395 . S
N164 Co153 1.995 . S
N164 C165 1.376 . S
N164 C168 1.383 . S
C165 N164 1.376 . S
C165 C166 1.446 . S
C165 C188 1.391 . S
C166 C165 1.446 . S
C166 C167 1.339 . S
C166 H195 0.949 . S
C167 C166 1.339 . S
C167 C168 1.439 . S
C167 H196 0.950 . S
C168 N164 1.383 . S
C168 C167 1.439 . S
C168 C186 1.392 . S
N169 Co153 2.282 . S
N169 C172 1.332 . S
N169 C174 1.332 . S
C170 C171 1.386 . S
C170 C173 1.388 . S
C171 C170 1.386 . S
C171 C172 1.382 . S
C171 H197 0.950 . S
C172 N169 1.332 . S
C172 C171 1.382 . S
C172 H183 0.952 . S
C173 C170 1.388 . S
C173 C174 1.382 . S
C173 H198 0.950 . S
C174 N169 1.332 . S
C174 C173 1.382 . S
C174 H184 0.948 . S
N175 Co153 2.282 . S
N175 C179 1.332 . S
N175 C180 1.332 . S
C176 C177 1.388 . S
C176 C180 1.382 . S
C176 H199 0.950 . S
C177 C176 1.388 . S
C177 C178 1.386 . S
C178 C177 1.386 . S
C178 C179 1.382 . S
C178 H200 0.950 . S
C179 N175 1.332 . S
C179 C178 1.382 . S
C179 H181 0.952 . S
C180 N175 1.332 . S
C180 C176 1.382 . S
C180 H182 0.948 . S
H181 C179 0.952 . S
H182 C180 0.948 . S
H183 C172 0.952 . S
H184 C174 0.948 . S
C185 C151 1.395 . S
C185 C155 1.391 . S
C186 C148 1.389 . S
C186 C168 1.392 . S
C187 C158 1.392 . S
C187 C160 1.389 . S
C188 C163 1.395 . S
C188 C165 1.391 . S
H189 C149 0.951 . S
H190 C150 0.950 . S
H191 C156 0.949 . S
H192 C157 0.950 . S
H193 C161 0.951 . S
H194 C162 0.950 . S
H195 C166 0.949 . S
H196 C167 0.950 . S
H197 C171 0.950 . S
H198 C173 0.950 . S
H199 C176 0.950 . S
H200 C178 0.950 . S
H201 C207 0.930 1_655 S
H202 C210 0.930 . S
H203 C211 0.930 . S
H204 C212 0.930 . S
H205 C215 0.930 . S
H206 C216 0.930 . S
C207 H201 0.930 1_455 S
C207 C208 1.355 . S
C207 C209 1.415 . S
C208 C207 1.355 . S
C208 C210 1.419 . S
C209 C207 1.415 . S
C209 C214 1.425 . S
C209 C216 1.409 1_455 S
C210 H202 0.930 . S
C210 C208 1.419 . S
C210 C211 1.362 . S
C211 H203 0.930 . S
C211 C210 1.362 . S
C211 C214 1.409 . S
C212 H204 0.930 . S
C212 C213 1.355 . S
C212 C214 1.415 . S
C213 C212 1.355 . S
C213 C215 1.419 1_455 S
C214 C209 1.425 . S
C214 C211 1.409 . S
C214 C212 1.415 . S
C215 H205 0.930 . S
C215 C213 1.419 1_655 S
C215 C216 1.362 . S
C216 H206 0.930 . S
C216 C209 1.409 1_655 S
C216 C215 1.362 . S
H217 C223 0.930 . S
H218 C226 0.930 . S
H219 C227 0.930 . S
H220 C228 0.930 . S
H221 C231 0.930 . S
H222 C232 0.930 1_565 S
C223 H217 0.930 . S
C223 C224 1.355 . S
C223 C225 1.415 . S
C224 C223 1.355 . S
C224 C226 1.419 . S
C225 C223 1.415 . S
C225 C230 1.425 . S
C225 C232 1.409 . S
C226 H218 0.930 . S
C226 C224 1.419 . S
C226 C227 1.362 . S
C227 H219 0.930 . S
C227 C226 1.362 . S
C227 C230 1.409 . S
C228 H220 0.930 . S
C228 C229 1.355 . S
C228 C230 1.415 . S
C229 C228 1.355 . S
C229 C231 1.419 . S
C230 C225 1.425 . S
C230 C227 1.409 . S
C230 C228 1.415 . S
C231 H221 0.930 . S
C231 C229 1.419 . S
C231 C232 1.362 . S
C232 H222 0.930 1_545 S
C232 C225 1.409 . S
C232 C231 1.362 . S
H233 C239 0.930 . S
H234 C242 0.930 . S
H235 C243 0.930 . S
H236 C244 0.930 . S
H237 C247 0.930 . S
H238 C248 0.930 . S
C239 H233 0.930 . S
C239 C240 1.355 . S
C239 C241 1.415 . S
C240 C239 1.355 . S
C240 C242 1.419 . S
C241 C239 1.415 . S
C241 C246 1.425 . S
C241 C248 1.409 . S
C242 H234 0.930 . S
C242 C240 1.419 . S
C242 C243 1.362 . S
C243 H235 0.930 . S
C243 C242 1.362 . S
C243 C246 1.409 . S
C244 H236 0.930 . S
C244 C245 1.355 . S
C244 C246 1.415 . S
C245 C244 1.355 . S
C245 C247 1.419 . S
C246 C241 1.425 . S
C246 C243 1.409 . S
C246 C244 1.415 . S
C247 H237 0.930 . S
C247 C245 1.419 . S
C247 C248 1.362 . S
C248 H238 0.930 . S
C248 C241 1.409 . S
C248 C247 1.362 . S
H249 C255 0.930 . S
H250 C258 0.930 . S
H251 C259 0.930 . S
H252 C260 0.930 . S
H253 C263 0.930 . S
H254 C264 0.930 . S
C255 H249 0.930 . S
C255 C256 1.355 . S
C255 C257 1.415 . S
C256 C255 1.355 . S
C256 C258 1.419 . S
C257 C255 1.415 . S
C257 C262 1.425 . S
C257 C264 1.409 . S
C258 H250 0.930 . S
C258 C256 1.419 . S
C258 C259 1.362 . S
C259 H251 0.930 . S
C259 C258 1.362 . S
C259 C262 1.409 . S
C260 H252 0.930 . S
C260 C261 1.355 . S
C260 C262 1.415 . S
C261 C260 1.355 . S
C261 C263 1.419 . S
C262 C257 1.425 . S
C262 C259 1.409 . S
C262 C260 1.415 . S
C263 H253 0.930 . S
C263 C261 1.419 . S
C263 C264 1.362 . S
C264 H254 0.930 . S
C264 C257 1.409 . S
C264 C263 1.362 . S
H265 C271 0.930 . S
H266 C274 0.930 . S
H267 C275 0.930 . S
H268 C276 0.930 . S
H269 C279 0.930 . S
H270 C280 0.930 . S
C271 H265 0.930 . S
C271 C272 1.355 . S
C271 C273 1.415 . S
C272 C271 1.355 . S
C272 C274 1.419 . S
C273 C271 1.415 . S
C273 C278 1.425 . S
C273 C280 1.409 . S
C274 H266 0.930 . S
C274 C272 1.419 . S
C274 C275 1.362 . S
C275 H267 0.930 . S
C275 C274 1.362 . S
C275 C278 1.409 . S
C276 H268 0.930 . S
C276 C277 1.355 . S
C276 C278 1.415 . S
C277 C276 1.355 . S
C277 C279 1.419 . S
C278 C273 1.425 . S
C278 C275 1.409 . S
C278 C276 1.415 . S
C279 H269 0.930 . S
C279 C277 1.419 . S
C279 C280 1.362 . S
C280 H270 0.930 . S
C280 C273 1.409 . S
C280 C279 1.362 . S
H281 C287 0.930 . S
H282 C290 0.930 . S
H283 C291 0.930 . S
H284 C292 0.930 . S
H285 C295 0.930 . S
H286 C296 0.930 . S
C287 H281 0.930 . S
C287 C288 1.355 . S
C287 C289 1.415 . S
C288 C287 1.355 . S
C288 C290 1.419 . S
C289 C287 1.415 . S
C289 C294 1.425 . S
C289 C296 1.409 . S
C290 H282 0.930 . S
C290 C288 1.419 . S
C290 C291 1.362 . S
C291 H283 0.930 . S
C291 C290 1.362 . S
C291 C294 1.409 . S
C292 H284 0.930 . S
C292 C293 1.355 . S
C292 C294 1.415 . S
C293 C292 1.355 . S
C293 C295 1.419 . S
C294 C289 1.425 . S
C294 C291 1.409 . S
C294 C292 1.415 . S
C295 H285 0.930 . S
C295 C293 1.419 . S
C295 C296 1.362 . S
C296 H286 0.930 . S
C296 C289 1.409 . S
C296 C295 1.362 . S
H297 C303 0.930 . S
H298 C306 0.930 . S
H299 C307 0.930 . S
H300 C308 0.930 . S
H301 C311 0.930 . S
H302 C312 0.930 . S
C303 H297 0.930 . S
C303 C304 1.355 . S
C303 C305 1.415 . S
C304 C303 1.355 . S
C304 C306 1.419 . S
C305 C303 1.415 . S
C305 C310 1.425 . S
C305 C312 1.409 . S
C306 H298 0.930 . S
C306 C304 1.419 . S
C306 C307 1.362 . S
C307 H299 0.930 . S
C307 C306 1.362 . S
C307 C310 1.409 . S
C308 H300 0.930 . S
C308 C309 1.355 . S
C308 C310 1.415 . S
C309 C308 1.355 . S
C309 C311 1.419 . S
C310 C305 1.425 . S
C310 C307 1.409 . S
C310 C308 1.415 . S
C311 H301 0.930 . S
C311 C309 1.419 . S
C311 C312 1.362 . S
C312 H302 0.930 . S
C312 C305 1.409 . S
C312 C311 1.362 . S
H313 C319 0.964 . S
H314 C322 0.930 1_455 S
H315 C323 0.930 . S
H316 C324 0.930 . S
H317 C327 0.930 . S
H318 C328 0.930 . S
C319 H313 0.964 . S
C319 C320 1.354 1_554 S
C319 C321 1.383 1_554 S
C320 C319 1.354 1_556 S
C320 C322 1.419 . S
C321 C319 1.383 1_556 S
C321 C326 1.425 . S
C321 C328 1.409 . S
C322 H314 0.930 1_655 S
C322 C320 1.419 . S
C322 C323 1.362 . S
C323 H315 0.930 . S
C323 C322 1.362 . S
C323 C326 1.409 . S
C324 H316 0.930 . S
C324 C325 1.355 . S
C324 C326 1.415 . S
C325 C324 1.355 . S
C325 C327 1.419 . S
C326 C321 1.425 . S
C326 C323 1.409 . S
C326 C324 1.415 . S
C327 H317 0.930 . S
C327 C325 1.419 . S
C327 C328 1.362 . S
C328 H318 0.930 . S
C328 C321 1.409 . S
C328 C327 1.362 . S
H329 C335 0.930 . S
H330 C338 0.930 . S
H331 C339 0.930 . S
H332 C340 0.930 . S
H333 C343 0.930 . S
H334 C344 0.930 . S
C335 H329 0.930 . S
C335 C336 1.355 1_655 S
C335 C337 1.415 1_655 S
C336 C335 1.355 1_455 S
C336 C338 1.419 . S
C337 C335 1.415 1_455 S
C337 C342 1.425 . S
C337 C344 1.409 1_455 S
C338 H330 0.930 . S
C338 C336 1.419 . S
C338 C339 1.362 . S
C339 H331 0.930 . S
C339 C338 1.362 . S
C339 C342 1.409 . S
C340 H332 0.930 . S
C340 C341 1.355 . S
C340 C342 1.415 . S
C341 C340 1.355 . S
C341 C343 1.419 1_455 S
C342 C337 1.425 . S
C342 C339 1.409 . S
C342 C340 1.415 . S
C343 H333 0.930 . S
C343 C341 1.419 1_655 S
C343 C344 1.362 . S
C344 H334 0.930 . S
C344 C337 1.409 1_655 S
C344 C343 1.362 . S
H345 C351 0.930 . S
H346 C354 0.930 . S
H347 C355 0.930 . S
H348 C356 0.930 . S
H349 C359 0.930 . S
H350 C360 0.930 . S
C351 H345 0.930 . S
C351 C352 1.355 . S
C351 C353 1.415 . S
C352 C351 1.355 . S
C352 C354 1.419 . S
C353 C351 1.415 . S
C353 C358 1.425 . S
C353 C360 1.409 . S
C354 H346 0.930 . S
C354 C352 1.419 . S
C354 C355 1.362 . S
C355 H347 0.930 . S
C355 C354 1.362 . S
C355 C358 1.409 . S
C356 H348 0.930 . S
C356 C357 1.355 . S
C356 C358 1.415 . S
C357 C356 1.355 . S
C357 C359 1.419 . S
C358 C353 1.425 . S
C358 C355 1.409 . S
C358 C356 1.415 . S
C359 H349 0.930 . S
C359 C357 1.419 . S
C359 C360 1.362 . S
C360 H350 0.930 . S
C360 C353 1.409 . S
C360 C359 1.362 . S
H361 C367 0.930 . S
H362 C370 0.904 1_554 S
H363 C371 0.930 . S
H364 C372 0.930 . S
H365 C375 0.930 . S
H366 C376 0.930 . S
C367 H361 0.930 . S
C367 C368 1.355 . S
C367 C369 1.415 . S
C368 C367 1.355 . S
C368 C370 1.429 . S
C369 C367 1.415 . S
C369 C374 1.425 . S
C369 C376 1.409 . S
C370 H362 0.904 1_556 S
C370 C368 1.429 . S
C370 C371 1.379 . S
C371 H363 0.930 . S
C371 C370 1.379 . S
C371 C374 1.409 . S
C372 H364 0.930 . S
C372 C373 1.355 . S
C372 C374 1.415 . S
C373 C372 1.355 . S
C373 C375 1.419 . S
C374 C369 1.425 . S
C374 C371 1.409 . S
C374 C372 1.415 . S
C375 H365 0.930 . S
C375 C373 1.419 . S
C375 C376 1.362 . S
C376 H366 0.930 . S
C376 C369 1.409 . S
C376 C375 1.362 . S
H377 C383 0.930 1_655 S
H378 C386 0.930 . S
H379 C387 0.930 . S
H380 C388 0.930 . S
H381 C391 0.930 . S
H382 C392 0.930 . S
C383 H377 0.930 1_455 S
C383 C384 1.355 . S
C383 C385 1.415 . S
C384 C383 1.355 . S
C384 C386 1.419 . S
C385 C383 1.415 . S
C385 C390 1.425 . S
C385 C392 1.409 1_455 S
C386 H378 0.930 . S
C386 C384 1.419 . S
C386 C387 1.362 . S
C387 H379 0.930 . S
C387 C386 1.362 . S
C387 C390 1.409 . S
C388 H380 0.930 . S
C388 C389 1.355 . S
C388 C390 1.415 . S
C389 C388 1.355 . S
C389 C391 1.419 1_455 S
C390 C385 1.425 . S
C390 C387 1.409 . S
C390 C388 1.415 . S
C391 H381 0.930 . S
C391 C389 1.419 1_655 S
C391 C392 1.362 . S
C392 H382 0.930 . S
C392 C385 1.409 1_655 S
C392 C391 1.362 . S
C213 C64 1.458 . S
C208 C0 1.441 . S
C224 C25 1.489 . S
C229 C134 1.482 . S
C240 C33 1.506 . S
C245 C186 1.499 . S
C256 C11 1.437 . S
C261 C80 1.447 . S
C277 C124 1.476 . S
C272 C14 1.484 . S
C288 C37 1.495 . S
C293 C170 1.493 . S
C309 C117 1.475 . S
C304 C28 1.486 . S
C320 C9 1.485 1_556 S
C325 C177 1.495 . S
C341 C71 1.521 . S
C336 C19 1.514 . S
C357 C133 1.479 . S
C352 C39 1.492 . S
C373 C187 1.507 . S
C368 C5 1.508 1_556 S
C384 C23 1.549 . S
C389 C81 1.541 . S
