# Generated by pormake.
# Topology myd, (4,6)-cn, num edge types: 1
# Building blocks:
#     Node 0, Type 0, BuildingBlock: KOZSID_clean_sbu_0, # of connection points: 4
#     Node 1, Type 0, BuildingBlock: KOZSID_clean_sbu_0, # of connection points: 4
#     Node 2, Type 0, BuildingBlock: KOZSID_clean_sbu_0, # of connection points: 4
#     Node 3, Type 0, BuildingBlock: KOZSID_clean_sbu_0, # of connection points: 4
#     Node 4, Type 0, BuildingBlock: KOZSID_clean_sbu_0, # of connection points: 4
#     Node 5, Type 0, BuildingBlock: KOZSID_clean_sbu_0, # of connection points: 4
#     Node 6, Type 0, BuildingBlock: KOZSID_clean_sbu_0, # of connection points: 4
#     Node 7, Type 0, BuildingBlock: KOZSID_clean_sbu_0, # of connection points: 4
#     Node 8, Type 0, BuildingBlock: KOZSID_clean_sbu_0, # of connection points: 4
#     Node 9, Type 0, BuildingBlock: KOZSID_clean_sbu_0, # of connection points: 4
#     Node 10, Type 0, BuildingBlock: KOZSID_clean_sbu_0, # of connection points: 4
#     Node 11, Type 0, BuildingBlock: KOZSID_clean_sbu_0, # of connection points: 4
#     Node 12, Type 1, BuildingBlock: FUNLAD_clean_sbu_0, # of connection points: 6
#     Node 13, Type 1, BuildingBlock: FUNLAD_clean_sbu_0, # of connection points: 6
#     Node 14, Type 1, BuildingBlock: FUNLAD_clean_sbu_0, # of connection points: 6
#     Node 15, Type 1, BuildingBlock: FUNLAD_clean_sbu_0, # of connection points: 6
#     Node 16, Type 1, BuildingBlock: FUNLAD_clean_sbu_0, # of connection points: 6
#     Node 17, Type 1, BuildingBlock: FUNLAD_clean_sbu_0, # of connection points: 6
#     Node 18, Type 1, BuildingBlock: FUNLAD_clean_sbu_0, # of connection points: 6
#     Node 19, Type 1, BuildingBlock: FUNLAD_clean_sbu_0, # of connection points: 6
#     Edge 20, Type (0, 1), BuildingBlock: XUDNAN_clean_linker_2, # of connection points: 2
#     Edge 21, Type (0, 1), BuildingBlock: XUDNAN_clean_linker_2, # of connection points: 2
#     Edge 22, Type (0, 1), BuildingBlock: XUDNAN_clean_linker_2, # of connection points: 2
#     Edge 23, Type (0, 1), BuildingBlock: XUDNAN_clean_linker_2, # of connection points: 2
#     Edge 24, Type (0, 1), BuildingBlock: XUDNAN_clean_linker_2, # of connection points: 2
#     Edge 25, Type (0, 1), BuildingBlock: XUDNAN_clean_linker_2, # of connection points: 2
#     Edge 26, Type (0, 1), BuildingBlock: XUDNAN_clean_linker_2, # of connection points: 2
#     Edge 27, Type (0, 1), BuildingBlock: XUDNAN_clean_linker_2, # of connection points: 2
#     Edge 28, Type (0, 1), BuildingBlock: XUDNAN_clean_linker_2, # of connection points: 2
#     Edge 29, Type (0, 1), BuildingBlock: XUDNAN_clean_linker_2, # of connection points: 2
#     Edge 30, Type (0, 1), BuildingBlock: XUDNAN_clean_linker_2, # of connection points: 2
#     Edge 31, Type (0, 1), BuildingBlock: XUDNAN_clean_linker_2, # of connection points: 2
#     Edge 32, Type (0, 1), BuildingBlock: XUDNAN_clean_linker_2, # of connection points: 2
#     Edge 33, Type (0, 1), BuildingBlock: XUDNAN_clean_linker_2, # of connection points: 2
#     Edge 34, Type (0, 1), BuildingBlock: XUDNAN_clean_linker_2, # of connection points: 2
#     Edge 35, Type (0, 1), BuildingBlock: XUDNAN_clean_linker_2, # of connection points: 2
#     Edge 36, Type (0, 1), BuildingBlock: XUDNAN_clean_linker_2, # of connection points: 2
#     Edge 37, Type (0, 1), BuildingBlock: XUDNAN_clean_linker_2, # of connection points: 2
#     Edge 38, Type (0, 1), BuildingBlock: XUDNAN_clean_linker_2, # of connection points: 2
#     Edge 39, Type (0, 1), BuildingBlock: XUDNAN_clean_linker_2, # of connection points: 2
#     Edge 40, Type (0, 1), BuildingBlock: XUDNAN_clean_linker_2, # of connection points: 2
#     Edge 41, Type (0, 1), BuildingBlock: XUDNAN_clean_linker_2, # of connection points: 2
#     Edge 42, Type (0, 1), BuildingBlock: XUDNAN_clean_linker_2, # of connection points: 2
#     Edge 43, Type (0, 1), BuildingBlock: XUDNAN_clean_linker_2, # of connection points: 2
#     Edge 44, Type (0, 1), BuildingBlock: XUDNAN_clean_linker_2, # of connection points: 2
#     Edge 45, Type (0, 1), BuildingBlock: XUDNAN_clean_linker_2, # of connection points: 2
#     Edge 46, Type (0, 1), BuildingBlock: XUDNAN_clean_linker_2, # of connection points: 2
#     Edge 47, Type (0, 1), BuildingBlock: XUDNAN_clean_linker_2, # of connection points: 2
#     Edge 48, Type (0, 1), BuildingBlock: XUDNAN_clean_linker_2, # of connection points: 2
#     Edge 49, Type (0, 1), BuildingBlock: XUDNAN_clean_linker_2, # of connection points: 2
#     Edge 50, Type (0, 1), BuildingBlock: XUDNAN_clean_linker_2, # of connection points: 2
#     Edge 51, Type (0, 1), BuildingBlock: XUDNAN_clean_linker_2, # of connection points: 2
#     Edge 52, Type (0, 1), BuildingBlock: XUDNAN_clean_linker_2, # of connection points: 2
#     Edge 53, Type (0, 1), BuildingBlock: XUDNAN_clean_linker_2, # of connection points: 2
#     Edge 54, Type (0, 1), BuildingBlock: XUDNAN_clean_linker_2, # of connection points: 2
#     Edge 55, Type (0, 1), BuildingBlock: XUDNAN_clean_linker_2, # of connection points: 2
#     Edge 56, Type (0, 1), BuildingBlock: XUDNAN_clean_linker_2, # of connection points: 2
#     Edge 57, Type (0, 1), BuildingBlock: XUDNAN_clean_linker_2, # of connection points: 2
#     Edge 58, Type (0, 1), BuildingBlock: XUDNAN_clean_linker_2, # of connection points: 2
#     Edge 59, Type (0, 1), BuildingBlock: XUDNAN_clean_linker_2, # of connection points: 2
#     Edge 60, Type (0, 1), BuildingBlock: XUDNAN_clean_linker_2, # of connection points: 2
#     Edge 61, Type (0, 1), BuildingBlock: XUDNAN_clean_linker_2, # of connection points: 2
#     Edge 62, Type (0, 1), BuildingBlock: XUDNAN_clean_linker_2, # of connection points: 2
#     Edge 63, Type (0, 1), BuildingBlock: XUDNAN_clean_linker_2, # of connection points: 2
#     Edge 64, Type (0, 1), BuildingBlock: XUDNAN_clean_linker_2, # of connection points: 2
#     Edge 65, Type (0, 1), BuildingBlock: XUDNAN_clean_linker_2, # of connection points: 2
#     Edge 66, Type (0, 1), BuildingBlock: XUDNAN_clean_linker_2, # of connection points: 2
#     Edge 67, Type (0, 1), BuildingBlock: XUDNAN_clean_linker_2, # of connection points: 2
# Relax obj value: 0.245
# Max RMSD: 0.228
# Mean RMSD: 0.151
data_MOF--net-myd--node1-KOZSID_clean_sbu_0--node2-FUNLAD_clean_sbu_0--edge1-XUDNAN_clean_linker_2
_symmetry_space_group_name_H-M    P1
_symmetry_Int_Tables_number       1
_symmetry_cell_setting            triclinic
loop_
_symmetry_equiv_pos_as_xyz
'x, y, z'
_cell_length_a     50.557123
_cell_length_b     50.446693
_cell_length_c     55.302867
_cell_angle_alpha  86.307801
_cell_angle_beta   83.958494
_cell_angle_gamma 90.673855
loop_
_atom_site_label
_atom_site_type_symbol
_atom_site_fract_x
_atom_site_fract_y
_atom_site_fract_z
_atom_type_partial_charge
C0 C 0.99008 0.30555 0.37873 0.0
C1 C 0.96593 0.31245 0.39081 0.0
C2 C 0.94704 0.29584 0.38379 0.0
C3 C 0.96068 0.27975 0.36795 0.0
N4 N 0.98724 0.28448 0.36503 0.0
Co5 Co 0.01412 0.26763 0.34171 0.0
N6 N 0.98586 0.24772 0.3271 0.0
C7 C 0.95981 0.24573 0.33567 0.0
C8 C 0.94539 0.22912 0.32318 0.0
C9 C 0.9633 0.21989 0.30561 0.0
C10 C 0.98773 0.23166 0.30821 0.0
N11 N 0.04099 0.25216 0.31744 0.0
C12 C 0.03762 0.23746 0.29822 0.0
C13 C 0.0618 0.23321 0.28468 0.0
C14 C 0.08105 0.24485 0.29615 0.0
C15 C 0.06765 0.25595 0.31568 0.0
N16 N 0.04232 0.28703 0.35687 0.0
C17 C 0.06889 0.28424 0.35223 0.0
C18 C 0.08343 0.30172 0.36369 0.0
C19 C 0.06512 0.31695 0.37597 0.0
C20 C 0.04019 0.30767 0.3716 0.0
N21 N 0.0169 0.23593 0.36499 0.0
C22 C 0.01462 0.18272 0.38406 0.0
C23 C 0.03852 0.19408 0.37297 0.0
C24 C 0.03929 0.2207 0.36383 0.0
C25 C 0.99304 0.19931 0.38843 0.0
C26 C 0.99489 0.22586 0.37946 0.0
N27 N 0.01103 0.29829 0.31829 0.0
C28 C 0.03101 0.3327 0.28953 0.0
C29 C 1.00595 0.34017 0.28323 0.0
C30 C 0.98353 0.32667 0.29515 0.0
C31 C 0.9865 0.30595 0.31246 0.0
C32 C 0.03309 0.3119 0.30715 0.0
H33 H 0.9687 0.29605 0.32068 0.0
H34 H 0.05266 0.30689 0.31138 0.0
H35 H 0.0579 0.22803 0.35497 0.0
H36 H 0.97778 0.23736 0.38371 0.0
C37 C 0.94915 0.26116 0.35433 0.0
C38 C 0.01507 0.32007 0.38025 0.0
C39 C 0.01213 0.22671 0.29247 0.0
C40 C 0.07941 0.27009 0.33273 0.0
H41 H 0.96226 0.3283 0.40296 0.0
H42 H 0.92579 0.29612 0.38893 0.0
H43 H 0.9243 0.22449 0.3263 0.0
H44 H 0.95883 0.206 0.29244 0.0
H45 H 0.06536 0.22283 0.26818 0.0
H46 H 0.10228 0.24535 0.29077 0.0
H47 H 0.10481 0.30469 0.36157 0.0
H48 H 0.06999 0.33388 0.38574 0.0
H49 H 0.05608 0.18212 0.36999 0.0
H50 H 0.97449 0.1916 0.39807 0.0
H51 H 0.0489 0.3428 0.28088 0.0
H52 H 0.96374 0.33147 0.29063 0.0
C53 C 0.99822 0.71042 0.13262 0.0
C54 C 0.97542 0.70738 0.12104 0.0
C55 C 0.95792 0.72612 0.12955 0.0
C56 C 0.97084 0.73934 0.14596 0.0
N57 N 0.9953 0.72999 0.14826 0.0
Co58 Co 0.02025 0.74192 0.17084 0.0
N59 N 0.99113 0.75752 0.19159 0.0
C60 C 0.96719 0.76437 0.1848 0.0
C61 C 0.95129 0.7755 0.20293 0.0
C62 C 0.96628 0.77584 0.22217 0.0
C63 C 0.99062 0.76475 0.2147 0.0
N64 N 0.04542 0.75351 0.19322 0.0
C65 C 0.04041 0.76004 0.21653 0.0
C66 C 0.06401 0.76564 0.22619 0.0
C67 C 0.08424 0.76326 0.20792 0.0
C68 C 0.07202 0.75605 0.18825 0.0
N69 N 0.04921 0.72655 0.14968 0.0
C70 C 0.07528 0.73266 0.1485 0.0
C71 C 0.09042 0.71838 0.13196 0.0
C72 C 0.07265 0.70235 0.12225 0.0
C73 C 0.04769 0.70778 0.13353 0.0
N74 N 0.02557 0.77637 0.15194 0.0
C75 C 0.03301 0.82679 0.12646 0.0
C76 C 0.03074 0.80339 0.11405 0.0
C77 C 0.02739 0.77847 0.12706 0.0
C78 C 0.03135 0.82395 0.15197 0.0
C79 C 0.02723 0.79896 0.1642 0.0
N80 N 0.01487 0.70816 0.1907 0.0
C81 C 0.03207 0.6763 0.21926 0.0
C82 C 1.0062 0.6682 0.22873 0.0
C83 C 0.98489 0.67925 0.21744 0.0
C84 C 0.98964 0.69907 0.19849 0.0
C85 C 0.03597 0.69599 0.20007 0.0
H86 H 0.97275 0.70812 0.19111 0.0
H87 H 0.05607 0.7024 0.19374 0.0
H88 H 0.02615 0.7609 0.11702 0.0
H89 H 0.02553 0.79808 0.18379 0.0
C90 C 0.95896 0.75613 0.163 0.0
C91 C 0.02281 0.69553 0.12809 0.0
C92 C 0.01367 0.76421 0.22885 0.0
C93 C 0.08493 0.74707 0.16666 0.0
H94 H 0.97149 0.6931 0.10806 0.0
H95 H 0.93764 0.72869 0.12534 0.0
H96 H 0.93097 0.78188 0.2025 0.0
H97 H 0.96008 0.7838 0.23953 0.0
H98 H 0.06637 0.77132 0.24439 0.0
H99 H 0.10536 0.76552 0.20915 0.0
H100 H 0.11188 0.71847 0.12838 0.0
H101 H 0.07744 0.68814 0.10867 0.0
H102 H 0.03134 0.80411 0.09441 0.0
H103 H 0.03361 0.84079 0.16277 0.0
H104 H 0.0492 0.66787 0.22692 0.0
H105 H 0.96452 0.67366 0.22398 0.0
C106 C 0.35815 0.99041 0.26792 0.0
C107 C 0.36988 0.96627 0.27297 0.0
C108 C 0.36488 0.95036 0.25462 0.0
C109 C 0.35033 0.96561 0.2395 0.0
N110 N 0.34602 0.99005 0.2472 0.0
Co111 Co 0.32437 0.01787 0.23215 0.0
N112 N 0.30563 0.99155 0.2146 0.0
C113 C 0.31441 0.96704 0.21008 0.0
C114 C 0.29869 0.95376 0.19592 0.0
C115 C 0.27903 0.97112 0.19093 0.0
C116 C 0.28373 0.99413 0.2025 0.0
N117 N 0.30265 0.04602 0.21758 0.0
C118 C 0.28022 0.04399 0.20627 0.0
C119 C 0.2712 0.06904 0.19954 0.0
C120 C 0.28923 0.08714 0.20593 0.0
C121 C 0.30802 0.07232 0.21652 0.0
N122 N 0.34365 0.04388 0.24949 0.0
C123 C 0.34565 0.07024 0.24413 0.0
C124 C 0.35947 0.08305 0.26024 0.0
C125 C 0.36635 0.06347 0.27677 0.0
C126 C 0.35624 0.03983 0.2698 0.0
N127 N 0.35126 0.0227 0.20356 0.0
C128 C 0.38812 0.02673 0.16127 0.0
C129 C 0.36072 0.02894 0.15986 0.0
C130 C 0.34288 0.02654 0.18088 0.0
C131 C 0.39668 0.02319 0.1847 0.0
C132 C 0.37798 0.02143 0.20558 0.0
N133 N 0.29724 0.01293 0.26024 0.0
C134 C 0.26785 0.03124 0.29188 0.0
C135 C 0.25772 1.00585 0.29993 0.0
C136 C 0.26797 0.98406 0.28776 0.0
C137 C 0.28781 0.98799 0.26815 0.0
C138 C 0.28739 0.03436 0.27195 0.0
H139 H 0.2955 0.97082 0.25935 0.0
H140 H 0.29443 0.05418 0.26596 0.0
H141 H 0.32212 0.02758 0.17848 0.0
H142 H 0.38507 0.01867 0.2233 0.0
C143 C 0.33567 0.95621 0.22158 0.0
C144 C 0.35929 0.01375 0.28238 0.0
C145 C 0.26895 0.01889 0.19914 0.0
C146 C 0.3289 0.0824 0.22828 0.0
H147 H 0.38057 0.96056 0.28837 0.0
H148 H 0.36986 0.92966 0.25334 0.0
H149 H 0.30107 0.93378 0.19008 0.0
H150 H 0.26352 0.96744 0.17943 0.0
H151 H 0.25374 0.07383 0.19052 0.0
H152 H 0.28837 0.10857 0.20362 0.0
H153 H 0.36256 0.10424 0.26094 0.0
H154 H 0.37706 0.06626 0.29239 0.0
H155 H 0.35277 0.03263 0.14256 0.0
H156 H 0.41758 0.02132 0.187 0.0
H157 H 0.26036 0.04867 0.30059 0.0
H158 H 0.26094 0.96405 0.29353 0.0
C159 C 0.6653 0.47866 0.22029 0.0
C160 C 0.65711 0.45373 0.21428 0.0
C161 C 0.67657 0.43636 0.21968 0.0
C162 C 0.6953 0.45143 0.22904 0.0
N163 N 0.68853 0.47713 0.23035 0.0
Co164 Co 0.70906 0.50519 0.24407 0.0
N165 N 0.73102 0.47844 0.25999 0.0
C166 C 0.73458 0.45314 0.25427 0.0
C167 C 0.75056 0.43949 0.2692 0.0
C168 C 0.75728 0.45736 0.28534 0.0
C169 C 0.74488 0.4809 0.2793 0.0
N170 N 0.72968 0.53293 0.25803 0.0
C171 C 0.7435 0.53067 0.27764 0.0
C172 C 0.75423 0.55507 0.28225 0.0
C173 C 0.74676 0.57312 0.2647 0.0
C174 C 0.73189 0.5588 0.2505 0.0
N175 N 0.68729 0.5322 0.22799 0.0
C176 C 0.69358 0.55829 0.22396 0.0
C177 C 0.67576 0.57209 0.21124 0.0
C178 C 0.65739 0.55351 0.20652 0.0
C179 C 0.66502 0.52921 0.21669 0.0
N180 N 0.68365 0.50356 0.27343 0.0
C181 C 0.65482 0.5015 0.31974 0.0
C182 C 0.6609 0.52587 0.30656 0.0
C183 C 0.67517 0.52646 0.28345 0.0
C184 C 0.66231 0.47814 0.3086 0.0
C185 C 0.67656 0.4796 0.28547 0.0
N186 N 0.73487 0.50695 0.2149 0.0
C187 C 0.78035 0.51064 0.1969 0.0
C188 C 0.77218 0.51117 0.17341 0.0
C189 C 0.74487 0.50942 0.1712 0.0
C190 C 0.72661 0.50725 0.1921 0.0
C191 C 0.76147 0.50849 0.2173 0.0
H192 H 0.70583 0.5059 0.18973 0.0
H193 H 0.76846 0.50827 0.23508 0.0
H194 H 0.68024 0.54553 0.27411 0.0
H195 H 0.68286 0.46131 0.27783 0.0
C196 C 0.71763 0.44157 0.23937 0.0
C197 C 0.65334 0.50352 0.21174 0.0
C198 C 0.74713 0.50551 0.29154 0.0
C199 C 0.71502 0.56948 0.23409 0.0
H200 H 0.63954 0.44888 0.20571 0.0
H201 H 0.67685 0.41523 0.2173 0.0
H202 H 0.75529 0.41862 0.26943 0.0
H203 H 0.76946 0.45342 0.30008 0.0
H204 H 0.76581 0.55947 0.29692 0.0
H205 H 0.75032 0.59439 0.26344 0.0
H206 H 0.67608 0.59315 0.20598 0.0
H207 H 0.64093 0.55742 0.1959 0.0
H208 H 0.65505 0.54444 0.31418 0.0
H209 H 0.65821 0.45882 0.31804 0.0
H210 H 0.80121 0.51224 0.19957 0.0
H211 H 0.7376 0.50935 0.15346 0.0
C212 C 0.31826 0.36077 0.97097 0.0
C213 C 0.32543 0.36808 0.94653 0.0
C214 C 0.30474 0.3602 0.93418 0.0
C215 C 0.2862 0.34833 0.95163 0.0
N216 N 0.294 0.34839 0.97409 0.0
Co217 Co 0.27539 0.33039 1.00419 0.0
N218 N 0.25419 0.30716 0.98555 0.0
C219 C 0.25005 0.31199 0.962 0.0
C220 C 0.23333 0.29354 0.95411 0.0
C221 C 0.22619 0.27631 0.97401 0.0
C222 C 0.23909 0.28514 0.99306 0.0
N223 N 0.25768 0.31223 0.03459 0.0
C224 C 0.24365 0.28898 0.03806 0.0
C225 C 0.23597 0.28308 0.06273 0.0
C226 C 0.24442 0.30391 0.07484 0.0
C227 C 0.25716 0.32116 0.05709 0.0
N228 N 0.29595 0.35414 0.02263 0.0
C229 C 0.28985 0.36008 0.04587 0.0
C230 C 0.30804 0.37733 0.05349 0.0
C231 C 0.32676 0.38231 0.03381 0.0
C232 C 0.31894 0.36761 0.01535 0.0
N233 N 0.24666 0.35637 1.00415 0.0
C234 C 0.20415 0.3914 1.00035 0.0
C235 C 0.19963 0.3646 0.00805 0.0
C236 C 0.22092 0.34762 0.00987 0.0
C237 C 0.23063 0.40043 0.99485 0.0
C238 C 0.25162 0.38262 0.99705 0.0
N239 N 0.30371 0.30424 1.00376 0.0
C240 C 0.3379 0.28041 0.02275 0.0
C241 C 0.34413 0.26627 1.0018 0.0
C242 C 0.32945 0.2719 0.98197 0.0
C243 C 0.30998 0.29117 0.98312 0.0
C244 C 0.31738 0.29891 0.0235 0.0
H245 H 0.29989 0.2953 0.96716 0.0
H246 H 0.31268 0.309 0.03998 0.0
H247 H 0.21628 0.32715 0.01538 0.0
H248 H 0.27182 0.38997 0.99266 0.0
C249 C 0.26497 0.33173 0.94724 0.0
C250 C 0.3338 0.36647 0.99124 0.0
C251 C 0.23396 0.27414 0.0185 0.0
C252 C 0.27136 0.34421 0.06113 0.0
H253 H 0.34373 0.37755 0.93826 0.0
H254 H 0.30418 0.36137 0.91463 0.0
H255 H 0.22737 0.29243 0.93596 0.0
H256 H 0.21253 0.25956 0.97453 0.0
H257 H 0.2247 0.2659 0.0711 0.0
H258 H 0.24197 0.30597 0.0943 0.0
H259 H 0.30868 0.38401 0.07164 0.0
H260 H 0.34448 0.39467 0.03327 0.0
H261 H 0.17962 0.35646 0.01211 0.0
H262 H 0.23512 0.42104 0.98902 0.0
H263 H 0.34872 0.27744 0.03853 0.0
H264 H 0.33242 0.26133 0.96553 0.0
C265 C 0.27209 0.66823 0.48083 0.0
C266 C 0.27394 0.657 0.45843 0.0
C267 C 0.28779 0.6748 0.44198 0.0
C268 C 0.29387 0.69569 0.45521 0.0
N269 N 0.28524 0.69199 0.47911 0.0
Co270 Co 0.29032 0.71729 0.5045 0.0
N271 N 0.31677 0.73902 0.48217 0.0
C272 C 0.32083 0.7383 0.45778 0.0
C273 C 0.34126 0.75482 0.44743 0.0
C274 C 0.3507 0.76666 0.46649 0.0
C275 C 0.33527 0.75679 0.48746 0.0
N276 N 0.29566 0.74252 0.52976 0.0
C277 C 0.31596 0.75994 0.53099 0.0
C278 C 0.31192 0.77398 0.55181 0.0
C279 C 0.28828 0.76481 0.56406 0.0
C280 C 0.27924 0.74585 0.55004 0.0
N281 N 0.26355 0.6959 0.52694 0.0
C282 C 0.25104 0.70398 0.5479 0.0
C283 C 0.23246 0.68603 0.55913 0.0
C284 C 0.23271 0.66555 0.5441 0.0
C285 C 0.25157 0.67215 0.52438 0.0
N286 N 0.31923 0.69539 0.51578 0.0
C287 C 0.36305 0.66882 0.53321 0.0
C288 C 0.34098 0.67564 0.5491 0.0
C289 C 0.3196 0.68898 0.54013 0.0
C290 C 0.3619 0.67448 0.50814 0.0
C291 C 0.33984 0.68761 0.49983 0.0
N292 N 0.26138 0.73937 0.49339 0.0
C293 C 0.24238 0.78237 0.485 0.0
C294 C 0.2186 0.77037 0.47977 0.0
C295 C 0.21691 0.74256 0.48149 0.0
C296 C 0.23832 0.72761 0.48822 0.0
C297 C 0.26353 0.76655 0.49163 0.0
H298 H 0.23587 0.70643 0.48947 0.0
H299 H 0.28157 0.77635 0.49545 0.0
H300 H 0.30363 0.6947 0.55308 0.0
H301 H 0.33988 0.69212 0.48053 0.0
C302 C 0.30936 0.71797 0.44621 0.0
C303 C 0.25395 0.65783 0.50191 0.0
C304 C 0.33827 0.76486 0.51205 0.0
C305 C 0.25847 0.72769 0.55731 0.0
H306 H 0.26511 0.63842 0.45425 0.0
H307 H 0.29281 0.67273 0.42269 0.0
H308 H 0.34946 0.75675 0.4285 0.0
H309 H 0.36737 0.7805 0.46505 0.0
H310 H 0.3247 0.78924 0.55751 0.0
H311 H 0.27938 0.77047 0.5816 0.0
H312 H 0.22003 0.6877 0.57611 0.0
H313 H 0.21952 0.64838 0.54697 0.0
H314 H 0.3403 0.67111 0.56856 0.0
H315 H 0.37832 0.66972 0.49504 0.0
H316 H 0.24479 0.80379 0.48369 0.0
H317 H 0.19893 0.73224 0.47802 0.0
C318 C 0.80166 0.84017 0.47749 0.0
C319 C 0.8066 0.84984 0.45336 0.0
C320 C 0.78594 0.84094 0.44153 0.0
C321 C 0.76947 0.82642 0.45901 0.0
N322 N 0.77858 0.82563 0.48103 0.0
Co323 Co 0.76097 0.80675 0.51117 0.0
N324 N 0.73891 0.78405 0.49273 0.0
C325 C 0.73415 0.78917 0.46941 0.0
C326 C 0.7185 0.76988 0.46131 0.0
C327 C 0.71284 0.75171 0.48083 0.0
C328 C 0.72519 0.76104 0.49996 0.0
N329 N 0.74375 0.78792 0.54148 0.0
C330 C 0.7293 0.76492 0.54473 0.0
C331 C 0.71938 0.76004 0.56905 0.0
C332 C 0.72806 0.78062 0.58133 0.0
C333 C 0.74257 0.79697 0.56392 0.0
N334 N 0.78267 0.82959 0.52968 0.0
C335 C 0.77781 0.83371 0.55355 0.0
C336 C 0.79719 0.84888 0.56185 0.0
C337 C 0.81528 0.85482 0.54198 0.0
C338 C 0.80567 0.84331 0.52237 0.0
N339 N 0.73237 0.83312 0.51246 0.0
C340 C 0.69042 0.86941 0.50854 0.0
C341 C 0.71729 0.87752 0.5031 0.0
C342 C 0.7378 0.85931 0.50557 0.0
C343 C 0.68544 0.84272 0.5169 0.0
C344 C 0.70644 0.82502 0.5184 0.0
N345 N 0.78927 0.78042 0.50917 0.0
C346 C 0.82412 0.75559 0.52637 0.0
C347 C 0.8313 0.74453 0.50399 0.0
C348 C 0.81687 0.75181 0.48444 0.0
C349 C 0.79617 0.76968 0.48736 0.0
C350 C 0.80288 0.77334 0.52864 0.0
H351 H 0.78598 0.77507 0.4717 0.0
H352 H 0.79759 0.7815 0.54602 0.0
H353 H 0.75809 0.86631 0.50116 0.0
H354 H 0.70147 0.80455 0.5239 0.0
C355 C 0.7483 0.80959 0.45484 0.0
C356 C 0.81798 0.84694 0.49693 0.0
C357 C 0.72233 0.74872 0.52506 0.0
C358 C 0.75828 0.81871 0.56838 0.0
H359 H 0.82329 0.86213 0.44522 0.0
H360 H 0.78379 0.84385 0.42228 0.0
H361 H 0.71276 0.76857 0.44311 0.0
H362 H 0.70101 0.73371 0.48085 0.0
H363 H 0.70672 0.74363 0.57705 0.0
H364 H 0.72467 0.78303 0.60071 0.0
H365 H 0.79884 0.85371 0.58043 0.0
H366 H 0.83357 0.86605 0.54221 0.0
H367 H 0.72273 0.89764 0.49634 0.0
H368 H 0.66544 0.83518 0.52225 0.0
H369 H 0.83463 0.75039 0.54204 0.0
H370 H 0.82188 0.74416 0.46671 0.0
C371 C 0.48783 0.81887 0.88852 0.0
C372 C 0.46294 0.82687 0.89817 0.0
C373 C 0.44479 0.80867 0.89207 0.0
C374 C 0.45936 0.79077 0.8788 0.0
N375 N 0.48559 0.79647 0.8765 0.0
Co376 Co 0.51357 0.77822 0.85627 0.0
N377 N 0.48725 0.76345 0.83619 0.0
C378 C 0.46068 0.76237 0.84199 0.0
C379 C 0.44735 0.75171 0.82445 0.0
C380 C 0.46678 0.74507 0.80679 0.0
C381 C 0.49104 0.75179 0.81469 0.0
N382 N 0.54188 0.75981 0.83647 0.0
C383 C 0.54097 0.74683 0.8158 0.0
C384 C 0.56523 0.7351 0.80932 0.0
C385 C 0.58154 0.74051 0.82671 0.0
C386 C 0.56652 0.75517 0.84287 0.0
N387 N 0.53946 0.79377 0.87603 0.0
C388 C 0.56415 0.78529 0.87856 0.0
C389 C 0.57768 0.80132 0.89249 0.0
C390 C 0.56037 0.82118 0.89883 0.0
C391 C 0.5373 0.81611 0.88831 0.0
N392 N 0.50926 0.74626 0.87883 0.0
C393 C 0.51174 0.69836 0.90739 0.0
C394 C 0.51375 0.72297 0.91776 0.0
C395 C 0.51207 0.74678 0.90318 0.0
C396 C 0.5062 0.69856 0.88318 0.0
C397 C 0.50571 0.72231 0.86929 0.0
N398 N 0.51816 0.80943 0.83345 0.0
C399 C 0.54682 0.83833 0.80562 0.0
C400 C 0.52467 0.84871 0.79548 0.0
C401 C 0.49923 0.8405 0.80575 0.0
C402 C 0.4964 0.82105 0.82491 0.0
C403 C 0.54313 0.81855 0.8246 0.0
H404 H 0.47658 0.8146 0.83205 0.0
H405 H 0.56049 0.80988 0.83139 0.0
H406 H 0.51413 0.76549 0.91132 0.0
H407 H 0.50361 0.72077 0.85043 0.0
C408 C 0.44895 0.77428 0.86257 0.0
C409 C 0.51344 0.83245 0.89052 0.0
C410 C 0.51668 0.74175 0.80406 0.0
C411 C 0.57555 0.76672 0.86301 0.0
H412 H 0.45784 0.84438 0.90769 0.0
H413 H 0.42334 0.80991 0.89497 0.0
H414 H 0.42607 0.74921 0.82439 0.0
H415 H 0.46354 0.73512 0.79056 0.0
H416 H 0.57043 0.72301 0.79414 0.0
H417 H 0.60192 0.73445 0.82745 0.0
H418 H 0.59823 0.79986 0.89618 0.0
H419 H 0.56438 0.83776 0.90948 0.0
H420 H 0.51759 0.72389 0.93658 0.0
H421 H 0.5032 0.6803 0.87446 0.0
H422 H 0.56679 0.84428 0.79802 0.0
H423 H 0.48166 0.84835 0.7984 0.0
C424 C 0.53424 0.29518 0.66004 0.0
C425 C 0.55991 0.3033 0.65112 0.0
C426 C 0.5763 0.28286 0.65715 0.0
C427 C 0.55977 0.26339 0.66931 0.0
N428 N 0.53412 0.27036 0.67111 0.0
Co429 Co 0.50389 0.24913 0.68842 0.0
N430 N 0.52746 0.22802 0.70845 0.0
C431 C 0.55384 0.22546 0.70278 0.0
C432 C 0.56507 0.2087 0.71921 0.0
C433 C 0.54444 0.19996 0.73607 0.0
C434 C 0.52159 0.21199 0.72908 0.0
N435 N 0.47341 0.22824 0.70586 0.0
C436 C 0.47171 0.21282 0.72708 0.0
C437 C 0.44593 0.20283 0.73295 0.0
C438 C 0.43153 0.21142 0.71435 0.0
C439 C 0.44902 0.22651 0.69828 0.0
N440 N 0.48072 0.27041 0.66818 0.0
C441 C 0.45586 0.26368 0.66409 0.0
C442 C 0.44412 0.28334 0.65079 0.0
C443 C 0.46275 0.30363 0.64642 0.0
C444 C 0.48505 0.29517 0.65718 0.0
N445 N 0.50774 0.22265 0.66381 0.0
C446 C 0.50859 0.18431 0.62892 0.0
C447 C 0.51227 0.21149 0.62182 0.0
C448 C 0.51172 0.23029 0.6395 0.0
C449 C 0.50524 0.17691 0.65395 0.0
C450 C 0.50508 0.19621 0.67095 0.0
N451 N 0.49975 0.27531 0.71268 0.0
C452 C 0.47234 0.30754 0.73267 0.0
C453 C 0.49458 0.31849 0.74169 0.0
C454 C 0.51931 0.30651 0.73678 0.0
C455 C 0.52147 0.285 0.72216 0.0
C456 C 0.47529 0.28576 0.71853 0.0
H457 H 0.54083 0.2767 0.71792 0.0
H458 H 0.45789 0.27807 0.71152 0.0
H459 H 0.51405 0.25107 0.63352 0.0
H460 H 0.50208 0.18962 0.68995 0.0
C461 C 0.56772 0.24177 0.68394 0.0
C462 C 0.5102 0.31062 0.65656 0.0
C463 C 0.49449 0.20524 0.74071 0.0
C464 C 0.44233 0.24264 0.67824 0.0
H465 H 0.56614 0.32208 0.64153 0.0
H466 H 0.59781 0.28293 0.65431 0.0
H467 H 0.58585 0.20379 0.71923 0.0
H468 H 0.54601 0.18585 0.75141 0.0
H469 H 0.43826 0.1904 0.74887 0.0
H470 H 0.41057 0.20786 0.71316 0.0
H471 H 0.42375 0.2838 0.64643 0.0
H472 H 0.45985 0.32266 0.63701 0.0
H473 H 0.51541 0.21832 0.60276 0.0
H474 H 0.50184 0.15637 0.66059 0.0
H475 H 0.45285 0.3161 0.73588 0.0
H476 H 0.53693 0.31372 0.74401 0.0
C477 C 0.86675 0.5011 0.76821 0.0
C478 C 0.88162 0.47915 0.7742 0.0
C479 C 0.87482 0.45946 0.7599 0.0
C480 C 0.85632 0.47047 0.74596 0.0
N481 N 0.85105 0.49583 0.7506 0.0
Co482 Co 0.82556 0.51906 0.73464 0.0
N483 N 0.80717 0.48813 0.72274 0.0
C484 C 0.81678 0.46337 0.72171 0.0
C485 C 0.80027 0.44613 0.71196 0.0
C486 C 0.77914 0.46103 0.70605 0.0
C487 C 0.78404 0.48668 0.71241 0.0
N488 N 0.80014 0.54254 0.71872 0.0
C489 C 0.77736 0.53652 0.70912 0.0
C490 C 0.76636 0.55925 0.69904 0.0
C491 C 0.78305 0.58004 0.70204 0.0
C492 C 0.80325 0.56897 0.71374 0.0
N493 N 0.84423 0.54984 0.74645 0.0
C494 C 0.84261 0.57541 0.73828 0.0
C495 C 0.85669 0.59244 0.7507 0.0
C496 C 0.86795 0.57661 0.76773 0.0
C497 C 0.86033 0.55062 0.76454 0.0
N498 N 0.84979 0.52152 0.70428 0.0
C499 C 0.88401 0.52383 0.66041 0.0
C500 C 0.89409 0.5245 0.68317 0.0
C501 C 0.87671 0.52373 0.70473 0.0
C502 C 0.85629 0.52217 0.66042 0.0
C503 C 0.83976 0.52062 0.68232 0.0
N504 N 0.80132 0.51651 0.76487 0.0
C505 C 0.77167 0.53717 0.79484 0.0
C506 C 0.76752 0.51294 0.8086 0.0
C507 C 0.78053 0.49051 0.80002 0.0
C508 C 0.79702 0.49264 0.778 0.0
C509 C 0.78889 0.53861 0.77322 0.0
H510 H 0.80635 0.47492 0.77165 0.0
H511 H 0.79218 0.55765 0.76333 0.0
H512 H 0.88512 0.5247 0.7218 0.0
H513 H 0.81875 0.51873 0.68127 0.0
C514 C 0.8401 0.45653 0.732 0.0
C515 C 0.8694 0.5271 0.77827 0.0
C516 C 0.76787 0.50949 0.70575 0.0
C517 C 0.82373 0.58303 0.72261 0.0
H518 H 0.8959 0.47756 0.78747 0.0
H519 H 0.88169 0.43921 0.76039 0.0
H520 H 0.80314 0.42519 0.70959 0.0
H521 H 0.7624 0.45401 0.69739 0.0
H522 H 0.74862 0.56061 0.68969 0.0
H523 H 0.78062 0.60077 0.69652 0.0
H524 H 0.85746 0.61393 0.7486 0.0
H525 H 0.88002 0.58358 0.78112 0.0
H526 H 0.91526 0.52535 0.68454 0.0
H527 H 0.84705 0.52236 0.64364 0.0
H528 H 0.76198 0.55496 0.80093 0.0
H529 H 0.77758 0.47136 0.81005 0.0
C530 C 0.19225 0.05716 0.77027 0.0
C531 C 0.18949 0.08299 0.77726 0.0
C532 C 0.20233 0.09919 0.75863 0.0
C533 C 0.21211 0.08241 0.74133 0.0
N534 N 0.20609 0.05677 0.74796 0.0
Co535 Co 0.21697 0.02589 0.72913 0.0
N536 N 0.24625 0.04662 0.70939 0.0
C537 C 0.24867 0.07331 0.70732 0.0
C538 C 0.27114 0.08215 0.69282 0.0
C539 C 0.28337 0.05967 0.68496 0.0
C540 C 0.26744 0.03822 0.69487 0.0
N541 N 0.22744 0.99487 0.71026 0.0
C542 C 0.2496 0.99099 0.69496 0.0
C543 C 0.24753 0.96723 0.68382 0.0
C544 C 0.22327 0.95602 0.69246 0.0
C545 C 0.21177 0.9735 0.70823 0.0
N546 N 0.18776 1.00539 0.74895 0.0
C547 C 0.17639 0.98279 0.7431 0.0
C548 C 0.15738 0.97267 0.761 0.0
C549 C 0.15682 0.99006 0.77916 0.0
C550 C 0.17549 1.00998 0.77123 0.0
N551 N 0.19274 0.03633 0.70514 0.0
C552 C 0.15603 0.03989 0.67103 0.0
C553 C 0.14801 0.04387 0.69548 0.0
C554 C 0.16682 0.04211 0.71234 0.0
C555 C 0.18299 0.03664 0.66364 0.0
C556 C 0.20102 0.03508 0.68092 0.0
N557 N 0.24083 0.01523 0.7532 0.0
C558 C 0.25287 0.98262 0.78353 0.0
C559 C 0.26653 1.00217 0.79437 0.0
C560 C 0.26871 0.02791 0.78312 0.0
C561 C 0.25584 0.03398 0.76248 0.0
C562 C 0.24022 0.98956 0.76286 0.0
H563 H 0.257 0.05416 0.75472 0.0
H564 H 0.22882 0.97445 0.75544 0.0
H565 H 0.16013 0.04386 0.73134 0.0
H566 H 0.22139 0.03117 0.67471 0.0
C567 C 0.23166 0.08901 0.72191 0.0
C568 C 0.18054 0.03354 0.78453 0.0
C569 C 0.27152 1.01052 0.68854 0.0
C570 C 0.18789 0.96919 0.72343 0.0
H571 H 0.17954 0.08938 0.79413 0.0
H572 H 0.2055 0.12046 0.75842 0.0
H573 H 0.27825 0.10247 0.68899 0.0
H574 H 0.30178 0.0593 0.67312 0.0
H575 H 0.26172 0.95914 0.67033 0.0
H576 H 0.21515 0.93723 0.68797 0.0
H577 H 0.14632 0.95411 0.76144 0.0
H578 H 0.14431 0.98808 0.79632 0.0
H579 H 0.12724 0.0466 0.70172 0.0
H580 H 0.18989 0.0339 0.64475 0.0
H581 H 0.25095 0.96244 0.79154 0.0
H582 H 0.27983 0.04341 0.7905 0.0
C583 C 0.77814 0.18834 0.96333 0.0
C584 C 0.77916 0.17455 0.94233 0.0
C585 C 0.80212 0.18278 0.92822 0.0
C586 C 0.8138 0.20099 0.94139 0.0
N587 N 0.79956 0.20473 0.9628 0.0
Co588 Co 0.8091 0.22884 0.9875 0.0
N589 N 0.83378 0.24976 0.96312 0.0
C590 C 0.84458 0.24141 0.94168 0.0
C591 C 0.86206 0.25964 0.92906 0.0
C592 C 0.86246 0.28063 0.94358 0.0
C593 C 0.84504 0.27404 0.96431 0.0
N594 N 0.81861 0.25294 0.01229 0.0
C595 C 0.83024 0.27738 0.00926 0.0
C596 C 0.83187 0.28801 0.03166 0.0
C597 C 0.82188 0.26907 0.04919 0.0
C598 C 0.81431 0.24817 0.03664 0.0
N599 N 0.78463 0.20758 0.01185 0.0
C600 C 0.78429 0.20728 0.03624 0.0
C601 C 0.76406 0.19169 0.04833 0.0
C602 C 0.75096 0.18149 0.03043 0.0
C603 C 0.76424 0.1912 0.00829 0.0
N604 N 0.8385 0.20555 0.99495 0.0
C605 C 0.88064 0.17192 1.00497 0.0
C606 C 0.85551 0.16154 1.00149 0.0
C607 C 0.83481 0.17858 0.9967 0.0
C608 C 0.88413 0.19964 1.0031 0.0
C609 C 0.86292 0.21603 0.99807 0.0
N610 N 0.77968 0.25202 0.97995 0.0
C611 C 0.7403 0.27602 0.99314 0.0
C612 C 0.73576 0.28275 0.9689 0.0
C613 C 0.75414 0.27403 0.95037 0.0
C614 C 0.77582 0.25876 0.95625 0.0
C615 C 0.7623 0.26079 0.99824 0.0
H616 H 0.78934 0.25217 0.94155 0.0
H617 H 0.76499 0.25577 0.01705 0.0
H618 H 0.81575 0.16985 0.99434 0.0
H619 H 0.86633 0.23722 0.9968 0.0
C620 C 0.83517 0.21813 0.93269 0.0
C621 C 0.75787 0.1839 0.98423 0.0
C622 C 0.84189 0.28991 0.98573 0.0
C623 C 0.79906 0.22614 0.04681 0.0
H624 H 0.76494 0.15996 0.93779 0.0
H625 H 0.80891 0.17693 0.91016 0.0
H626 H 0.87281 0.25813 0.91123 0.0
H627 H 0.87464 0.29847 0.93956 0.0
H628 H 0.83956 0.30735 0.03511 0.0
H629 H 0.81939 0.27081 0.0687 0.0
H630 H 0.75841 0.18935 0.06779 0.0
H631 H 0.73342 0.16878 0.03353 0.0
H632 H 0.85177 0.14031 1.00232 0.0
H633 H 0.90295 0.20875 1.00597 0.0
H634 H 0.72667 0.28195 0.00817 0.0
H635 H 0.75197 0.27906 0.93136 0.0
C636 C 0.13559 0.04939 0.08484 0.0
N637 N 0.11475 0.05337 0.0105 0.0
C638 C 0.13769 0.06393 0.99827 0.0
C639 C 0.14373 0.06077 0.9732 0.0
C640 C 0.12603 0.04657 0.96056 0.0
C641 C 0.10339 0.03464 0.97409 0.0
C642 C 0.09798 0.03853 0.99887 0.0
Zn643 Zn 0.10069 0.06309 0.04565 0.0
C644 C 0.06983 0.01597 0.07303 0.0
N645 N 0.06592 0.08368 0.1166 0.0
C646 C 0.08262 0.09637 0.13006 0.0
C647 C 0.03923 0.08239 0.12346 0.0
C648 C 0.0283 0.09557 0.1436 0.0
C649 C 0.04501 0.10979 0.15711 0.0
C650 C 0.07258 0.10935 0.15059 0.0
Zn651 Zn 0.08125 0.07182 0.08281 0.0
O652 O 0.13607 0.0486 0.06172 0.0
C653 C 0.11416 0.11779 0.05513 0.0
O654 O 0.11552 0.05864 0.09702 0.0
H655 H 0.02619 0.07226 0.11263 0.0
H656 H 0.15078 0.07585 0.00762 0.0
H657 H 0.1037 0.09769 0.12418 0.0
O658 O 0.11853 0.10102 0.03911 0.0
O659 O 0.09893 0.11128 0.07453 0.0
H660 H 0.07962 0.03059 0.00853 0.0
O661 O 0.04668 0.08414 0.06838 0.0
O662 O 0.06428 0.07774 0.03127 0.0
O663 O 0.06469 0.03173 0.09003 0.0
O664 O 0.08328 0.02472 0.05334 0.0
C665 C 0.04469 0.08486 0.04572 0.0
H666 H 0.1614 0.07045 0.96365 0.0
H667 H 0.0894 0.02295 0.96547 0.0
H668 H 1.00692 0.09533 0.14814 0.0
H669 H 0.08612 0.12031 0.16035 0.0
C670 C 0.92769 0.50089 0.05181 0.0
N671 N 0.96638 0.51869 0.97964 0.0
C672 C 0.94034 0.52144 0.97566 0.0
C673 C 0.93311 0.52735 0.95228 0.0
C674 C 0.95261 0.52972 0.93218 0.0
C675 C 0.97945 0.52814 0.93683 0.0
C676 C 0.98591 0.52275 0.96073 0.0
Zn677 Zn 0.97414 0.49994 0.0131 0.0
C678 C 0.99917 0.53088 0.04714 0.0
N679 N 0.98487 0.45331 0.07856 0.0
C680 C 0.96372 0.43985 0.09111 0.0
C681 C 1.0083 0.45589 0.08836 0.0
C682 C 0.01072 0.44561 0.11208 0.0
C683 C 0.98866 0.43306 0.12583 0.0
C684 C 0.96512 0.42973 0.11497 0.0
Zn685 Zn 0.97945 0.47344 0.04628 0.0
O686 O 0.93541 0.51147 0.03068 0.0
C687 C 0.95302 0.44314 0.01291 0.0
O688 O 0.94266 0.48454 0.0617 0.0
H689 H 0.0248 0.46683 0.07814 0.0
H690 H 0.92467 0.51753 0.99025 0.0
H691 H 0.94532 0.43788 0.08297 0.0
O692 O 0.95621 0.4657 1.00134 0.0
O693 O 0.96182 0.43952 0.03354 0.0
H694 H 1.00651 0.52033 0.9638 0.0
O695 O 0.01626 0.46222 0.03147 0.0
O696 O 0.014 0.48732 0.99791 0.0
O697 O 0.99654 0.50802 0.05839 0.0
O698 O 0.99154 0.53435 0.02592 0.0
C699 C 0.02694 0.4711 0.01075 0.0
H700 H 0.91218 0.52912 0.95 0.0
H701 H 0.99537 0.52965 0.92209 0.0
H702 H 0.02917 0.44854 0.11998 0.0
H703 H 0.94781 0.41987 0.12502 0.0
C704 C 0.0277 0.99119 0.42556 0.0
N705 N 0.03582 0.92046 0.38999 0.0
C706 C 0.01002 0.92031 0.38502 0.0
C707 C 1.00212 0.90473 0.36709 0.0
C708 C 0.02119 0.88999 0.35388 0.0
C709 C 0.04798 0.89215 0.35797 0.0
C710 C 0.0549 0.90744 0.37646 0.0
Zn711 Zn 0.0447 0.93544 0.42113 0.0
C712 C 0.09829 0.9621 0.41513 0.0
N713 N 0.06253 0.96536 0.48743 0.0
C714 C 0.04305 0.97841 0.5005 0.0
C715 C 0.08713 0.96264 0.49499 0.0
C716 C 0.09292 0.97333 0.51649 0.0
C717 C 0.07315 0.98681 0.53046 0.0
C718 C 0.04794 0.9893 0.52219 0.0
Zn719 Zn 0.05461 0.95039 0.45568 0.0
O720 O 0.02593 0.97214 0.41176 0.0
C721 C 1.00017 0.92321 0.4604 0.0
O722 O 0.03849 0.98723 0.44514 0.0
H723 H 0.10234 0.9523 0.48424 0.0
H724 H 0.99526 0.93102 0.39592 0.0
H725 H 0.02366 0.98043 0.49407 0.0
O726 O 1.00816 0.91915 0.43851 0.0
O727 O 0.01529 0.93624 0.47262 0.0
H728 H 0.07522 0.90766 0.38092 0.0
O729 O 0.07263 0.91355 0.46565 0.0
O730 O 0.06436 0.89953 0.43048 0.0
O731 O 0.0928 0.96453 0.43789 0.0
O732 O 0.08123 0.95114 0.40351 0.0
C733 C 0.07492 0.89579 0.45028 0.0
H734 H 0.9813 0.90344 0.36416 0.0
H735 H 0.06307 0.88077 0.34807 0.0
H736 H 0.1128 0.97135 0.52193 0.0
H737 H 0.03206 0.99928 0.53248 0.0
C738 C 0.95517 0.60401 0.45386 0.0
N739 N 0.03278 0.57161 0.44981 0.0
C740 C 0.04209 0.59718 0.44723 0.0
C741 C 0.06724 0.60359 0.45397 0.0
C742 C 0.08341 0.58344 0.46298 0.0
C743 C 0.07346 0.55715 0.46458 0.0
C744 C 0.04799 0.55177 0.45839 0.0
Zn745 Zn 0.99444 0.56189 0.44307 0.0
C746 C 0.96397 0.53765 0.48978 0.0
N747 N 0.9158 0.53806 0.43226 0.0
C748 C 0.9033 0.55664 0.41886 0.0
C749 C 0.9046 0.51359 0.43868 0.0
C750 C 0.88055 0.50651 0.43017 0.0
C751 C 0.86838 0.52484 0.41496 0.0
C752 C 0.87947 0.55042 0.41001 0.0
Zn753 Zn 0.95348 0.54749 0.4387 0.0
O754 O 0.98016 0.60055 0.45313 0.0
C755 C 0.98316 0.57327 0.39194 0.0
O756 O 0.94048 0.58527 0.44832 0.0
H757 H 0.91496 0.49916 0.44933 0.0
H758 H 0.0298 0.61279 0.44047 0.0
H759 H 0.91253 0.57593 0.41387 0.0
O760 O 1.00192 0.57666 0.4052 0.0
O761 O 0.96176 0.56169 0.40151 0.0
H762 H 0.0403 0.53161 0.46091 0.0
O763 O 0.96617 0.5095 0.4291 0.0
O764 O 1.00696 0.52211 0.43342 0.0
O765 O 0.94573 0.5338 0.47611 0.0
O766 O 0.98605 0.54804 0.48039 0.0
C767 C 0.99068 0.50424 0.42847 0.0
H768 H 0.0735 0.62425 0.45265 0.0
H769 H 0.08507 0.54063 0.47069 0.0
H770 H 0.87249 0.48652 0.43412 0.0
H771 H 0.87048 0.565 0.39831 0.0
C772 C 0.42216 0.97551 0.56665 0.0
N773 N 0.4468 0.98658 0.48964 0.0
C774 C 0.43039 1.00763 0.48758 0.0
C775 C 0.41854 0.01329 0.46601 0.0
C776 C 0.42341 0.99711 0.4462 0.0
C777 C 0.44098 0.97593 0.44871 0.0
C778 C 0.45243 0.97103 0.47055 0.0
Zn779 Zn 0.46181 0.97557 0.5226 0.0
C780 C 0.48554 0.02025 0.5462 0.0
N781 N 0.49346 0.94887 0.58846 0.0
C782 C 0.47754 0.93236 0.60425 0.0
C783 C 0.51746 0.9576 0.59418 0.0
C784 C 0.52624 0.94968 0.61664 0.0
C785 C 0.51003 0.9328 0.6334 0.0
C786 C 0.48531 0.92431 0.62693 0.0
Zn787 Zn 0.47964 0.96088 0.55627 0.0
O788 O 0.42288 0.98211 0.54388 0.0
C789 C 0.4543 0.91667 0.53371 0.0
O790 O 0.44306 0.96702 0.57498 0.0
H791 H 0.52979 0.97076 0.58134 0.0
H792 H 0.42605 0.0198 0.50287 0.0
H793 H 0.45857 0.9256 0.59938 0.0
O794 O 0.44947 0.93586 0.51888 0.0
O795 O 0.4676 0.92112 0.55134 0.0
H796 H 0.46535 0.95426 0.47245 0.0
O797 O 0.51627 0.9542 0.53802 0.0
O798 O 0.50175 0.96784 0.50329 0.0
O799 O 0.49083 1.00098 0.56083 0.0
O800 O 0.47378 0.0155 0.5276 0.0
C801 C 0.52042 0.95857 0.51517 0.0
H802 H 0.40555 0.03013 0.46497 0.0
H803 H 0.4452 0.96263 0.43425 0.0
H804 H 0.54556 0.95652 0.62071 0.0
H805 H 0.47178 0.91183 0.63937 0.0
C806 C 0.61591 0.52992 0.61074 0.0
N807 N 0.58388 0.53377 0.54151 0.0
C808 C 0.6092 0.53638 0.53041 0.0
C809 C 0.61524 0.52923 0.50645 0.0
C810 C 0.59502 0.51937 0.49364 0.0
C811 C 0.56912 0.51668 0.50571 0.0
C812 C 0.564 0.52394 0.5297 0.0
Zn813 Zn 0.5748 0.54635 0.57603 0.0
C814 C 0.54391 0.50232 0.60854 0.0
N815 N 0.55609 0.57147 0.64828 0.0
C816 C 0.57545 0.58538 0.65763 0.0
C817 C 0.5306 0.57067 0.6591 0.0
C818 C 0.52359 0.58517 0.6795 0.0
C819 C 0.54293 0.60087 0.68865 0.0
C820 C 0.56926 0.60037 0.67778 0.0
Zn821 Zn 0.56504 0.55687 0.61449 0.0
O822 O 0.61174 0.52952 0.58833 0.0
C823 C 0.59894 0.59867 0.58128 0.0
O824 O 0.59867 0.53995 0.62557 0.0
H825 H 0.51544 0.55976 0.65125 0.0
H826 H 0.62473 0.54428 0.54008 0.0
H827 H 0.5956 0.58583 0.64883 0.0
O828 O 0.59571 0.58256 0.56513 0.0
O829 O 0.58833 0.59318 0.60299 0.0
H830 H 0.54399 0.52207 0.53878 0.0
O831 O 0.53062 0.57468 0.60326 0.0
O832 O 0.53786 0.5644 0.56534 0.0
O833 O 0.54386 0.51885 0.62514 0.0
O834 O 0.55446 0.50947 0.58714 0.0
C835 C 0.52347 0.57566 0.58191 0.0
H836 H 0.63558 0.53132 0.49811 0.0
H837 H 0.55276 0.50957 0.49657 0.0
H838 H 0.50302 0.58508 0.68731 0.0
H839 H 0.58484 0.61186 0.6845 0.0
C840 C 0.54552 0.51109 0.95131 0.0
N841 N 0.55206 0.45518 0.8987 0.0
C842 C 0.52823 0.46538 0.89386 0.0
C843 C 0.51769 0.46034 0.87238 0.0
C844 C 0.53144 0.44404 0.85593 0.0
C845 C 0.55676 0.43507 0.86062 0.0
C846 C 0.56681 0.441 0.88226 0.0
Zn847 Zn 0.56266 0.45906 0.93269 0.0
C848 C 0.61578 0.48377 0.93173 0.0
N849 N 0.58066 0.46823 1.00526 0.0
C850 C 0.55978 0.47168 0.02232 0.0
C851 C 0.60615 0.47008 0.01086 0.0
C852 C 0.61133 0.47627 0.03421 0.0
C853 C 0.59007 0.47986 0.05228 0.0
C854 C 0.56402 0.47694 0.04602 0.0
Zn855 Zn 0.57231 0.46296 0.97043 0.0
O856 O 0.54711 0.49816 0.93227 0.0
C857 C 0.5184 0.43722 0.969 0.0
O858 O 0.55348 0.50049 0.97059 0.0
H859 H 0.62254 0.46738 0.99709 0.0
H860 H 0.5166 0.47634 0.90722 0.0
H861 H 0.53964 0.47085 0.01756 0.0
O862 O 0.52501 0.44268 0.94651 0.0
O863 O 0.53475 0.44258 0.9841 0.0
H864 H 0.58572 0.43315 0.88647 0.0
O865 O 0.59173 0.42638 0.97045 0.0
O866 O 0.58055 0.4199 0.93395 0.0
O867 O 0.60999 0.48205 0.95483 0.0
O868 O 0.59918 0.47532 0.91825 0.0
C869 C 0.59259 0.41214 0.95227 0.0
H870 H 0.49829 0.46794 0.86932 0.0
H871 H 0.56793 0.42217 0.84856 0.0
H872 H 0.63182 0.47875 0.03772 0.0
H873 H 0.54684 0.47874 0.05919 0.0
C874 C 0.45673 0.11655 0.95853 0.0
N875 N 0.53495 0.08786 0.9494 0.0
C876 C 0.54229 0.11401 0.94735 0.0
C877 C 0.56776 0.12184 0.95212 0.0
C878 C 0.58618 0.10254 0.95845 0.0
C879 C 0.57817 0.07565 0.95955 0.0
C880 C 0.55232 0.0688 0.95547 0.0
Zn881 Zn 0.49701 0.07607 0.94473 0.0
C882 C 0.4698 0.0496 0.99153 0.0
N883 N 0.41911 0.04905 0.93664 0.0
C884 C 0.40404 0.0637 0.92204 0.0
C885 C 0.41129 0.02419 0.94587 0.0
C886 C 0.38841 0.01237 0.93902 0.0
C887 C 0.37354 0.0263 0.92251 0.0
C888 C 0.38106 0.05266 0.91469 0.0
Zn889 Zn 0.4562 0.06222 0.94107 0.0
O890 O 0.48128 0.11167 0.95902 0.0
C891 C 0.48235 0.09113 0.8947 0.0
O892 O 0.44148 0.09972 0.95057 0.0
H893 H 0.42362 0.01291 0.95748 0.0
H894 H 0.52826 0.12891 0.94244 0.0
H895 H 0.41069 0.0834 0.91492 0.0
O896 O 0.50062 0.09515 0.90831 0.0
O897 O 0.46231 0.07662 0.90325 0.0
H898 H 0.54615 0.04814 0.95742 0.0
O899 O 0.4707 0.02446 0.93204 0.0
O900 O 0.51177 0.03918 0.93024 0.0
O901 O 0.45054 0.04888 0.97855 0.0
O902 O 0.49241 0.05828 0.98161 0.0
C903 C 0.49538 0.02042 0.92784 0.0
H904 H 0.57257 0.14285 0.95134 0.0
H905 H 0.59159 0.05983 0.96361 0.0
H906 H 0.38313 0.99213 0.94565 0.0
H907 H 0.37042 0.06403 0.90167 0.0
H908 H 0.04429 0.1492 0.41135 0.0
H909 H 0.97782 0.15061 0.36781 0.0
H910 H 0.973 0.10171 0.37414 0.0
H911 H 0.07268 0.08877 0.39164 0.0
H912 H 0.08163 0.07739 0.42121 0.0
H913 H 0.07974 0.11245 0.41328 0.0
H914 H 0.04621 0.11747 0.45145 0.0
H915 H 0.04801 0.0824 0.45949 0.0
H916 H 0.01626 0.0972 0.45591 0.0
H917 H 0.97764 0.05214 0.38284 0.0
H918 H 0.98894 1.00619 0.39639 0.0
H919 H 0.04979 0.03762 0.43696 0.0
C920 C 0.02869 0.13914 0.40328 0.0
C921 C 0.01139 0.15356 0.38912 0.0
C922 C 0.99111 0.13984 0.37889 0.0
C923 C 0.98829 0.11211 0.3823 0.0
C924 C 1.00567 0.09839 0.39633 0.0
C925 C 0.02523 0.11148 0.40695 0.0
C926 C 0.04099 0.09209 0.42155 0.0
C927 C 0.0705 0.09272 0.4113 0.0
C928 C 0.03766 0.09762 0.44871 0.0
C929 C 0.02749 0.06609 0.4172 0.0
C930 C 1.00733 0.07007 0.40241 0.0
C931 C 0.9931 0.04881 0.39476 0.0
C932 C 0.99964 0.02282 0.40248 0.0
C933 C 0.01987 0.01841 0.41803 0.0
C934 C 0.03379 0.04041 0.42552 0.0
H935 H 0.98975 0.36531 0.36544 0.0
H936 H 0.03785 0.33422 0.42075 0.0
H937 H 0.03946 0.37863 0.43719 0.0
H938 H 0.01794 0.4312 0.35537 0.0
H939 H 0.98651 0.44724 0.35329 0.0
H940 H 0.99064 0.41354 0.34478 0.0
H941 H 0.95022 0.39822 0.3754 0.0
H942 H 0.94579 0.43191 0.38383 0.0
H943 H 0.94968 0.40572 0.40688 0.0
H944 H 0.03807 0.42757 0.44589 0.0
H945 H 0.02678 0.47467 0.4513 0.0
H946 H 0.97425 0.47231 0.39436 0.0
C947 C 1.00068 0.36795 0.38097 0.0
C948 C 0.01475 0.34661 0.39113 0.0
C949 C 0.028 0.35057 0.41197 0.0
C950 C 0.02888 0.3757 0.42152 0.0
C951 C 0.0155 0.39653 0.41062 0.0
C952 C 1.001 0.39271 0.39125 0.0
C953 C 0.98659 0.41783 0.38418 0.0
C954 C 0.99599 0.42805 0.35784 0.0
C955 C 0.95627 0.41313 0.3878 0.0
C956 C 0.99553 0.43645 0.40238 0.0
C957 C 0.01265 0.42394 0.41714 0.0
C958 C 0.02441 0.43745 0.43463 0.0
C959 C 0.01805 0.46423 0.43748 0.0
C960 C 0.99959 0.47704 0.42335 0.0
C961 C 0.98831 0.46292 0.40552 0.0
H962 H 0.01988 0.87681 0.14284 0.0
H963 H 0.05776 0.83903 0.07989 0.0
H964 H 0.06702 0.88297 0.05885 0.0
H965 H 0.99241 0.93329 0.11094 0.0
H966 H 1.00023 0.95632 0.13288 0.0
H967 H 0.99363 0.92181 0.14235 0.0
H968 H 0.0391 0.91894 0.15987 0.0
H969 H 0.04579 0.95344 0.15057 0.0
H970 H 0.06902 0.92859 0.14046 0.0
H971 H 0.07381 0.9308 0.04483 0.0
H972 H 0.0809 0.97909 0.03976 0.0
H973 H 0.04289 0.98692 0.11311 0.0
C974 C 0.0303 0.87745 0.12471 0.0
C975 C 0.03777 0.85378 0.1132 0.0
C976 C 0.05098 0.85632 0.08918 0.0
C977 C 0.0566 0.88138 0.07702 0.0
C978 C 0.04928 0.90402 0.08908 0.0
C979 C 0.03667 0.90235 0.11248 0.0
C980 C 0.03272 0.92987 0.12195 0.0
C981 C 1.00297 0.93566 0.12735 0.0
C982 C 0.04754 0.93288 0.14455 0.0
C983 C 0.04534 0.94728 0.10023 0.0
C984 C 0.05435 0.93184 0.08139 0.0
C985 C 0.06687 0.94306 0.05947 0.0
C986 C 0.07077 0.97067 0.05681 0.0
C987 C 0.06254 0.98708 0.07605 0.0
C988 C 0.04934 0.97509 0.098 0.0
H989 H 0.00958 0.68139 0.08333 0.0
H990 H 0.03798 0.64992 0.15047 0.0
H991 H 0.03919 0.60493 0.13505 0.0
H992 H 0.96523 0.62686 0.07777 0.0
H993 H 0.97096 0.62771 0.04499 0.0
H994 H 0.97462 0.65766 0.06045 0.0
H995 H 0.02267 0.66406 0.03926 0.0
H996 H 0.01924 0.63394 0.02392 0.0
H997 H 0.04623 0.63782 0.04234 0.0
H998 H 0.03524 0.56354 0.11355 0.0
H999 H 0.02404 0.52734 0.08848 0.0
H1000 H 0.99607 0.58485 0.03552 0.0
C1001 C 0.01568 0.66492 0.09486 0.0
C1002 C 0.02316 0.66883 0.1183 0.0
C1003 C 0.03199 0.6471 0.13255 0.0
C1004 C 0.03281 0.62159 0.12391 0.0
C1005 C 0.02481 0.61822 0.10093 0.0
C1006 C 0.01627 0.63921 0.08662 0.0
C1007 C 1.00731 0.62983 0.0632 0.0
C1008 C 0.97778 0.63587 0.06152 0.0
C1009 C 0.02492 0.64215 0.04086 0.0
C1010 C 0.01173 0.6002 0.06679 0.0
C1011 C 0.02219 0.59409 0.08854 0.0
C1012 C 0.02718 0.56807 0.09642 0.0
C1013 C 0.02071 0.54763 0.08201 0.0
C1014 C 0.00919 0.55322 0.05998 0.0
C1015 C 1.00515 0.57996 0.05208 0.0
H1016 H 0.37954 1.01042 0.11582 0.0
H1017 H 0.43981 0.04709 0.15397 0.0
H1018 H 0.46928 0.05249 0.11535 0.0
H1019 H 0.4234 0.97725 0.07149 0.0
H1020 H 0.40287 0.98458 0.04725 0.0
H1021 H 0.38798 0.98056 0.07836 0.0
H1022 H 0.36709 0.02706 0.07404 0.0
H1023 H 0.38179 0.03115 0.04293 0.0
H1024 H 0.38825 0.05555 0.0641 0.0
H1025 H 0.49124 0.05651 0.07131 0.0
H1026 H 0.50218 0.06114 0.02655 0.0
H1027 H 0.42594 0.02489 0.0174 0.0
C1028 C 0.39885 0.01972 0.1163 0.0
C1029 C 0.40707 0.02837 0.13831 0.0
C1030 C 0.43294 0.03984 0.13769 0.0
C1031 C 0.44985 0.04314 0.11571 0.0
C1032 C 0.44071 0.03497 0.09435 0.0
C1033 C 0.41572 0.02358 0.09454 0.0
C1034 C 0.40964 0.0183 0.06898 0.0
C1035 C 0.40575 0.98839 0.06638 0.0
C1036 C 0.38526 0.03396 0.06212 0.0
C1037 C 0.43495 0.02887 0.05423 0.0
C1038 C 0.45286 0.03802 0.06918 0.0
C1039 C 0.47738 0.04926 0.05952 0.0
C1040 C 0.48348 0.05171 0.03402 0.0
C1041 C 0.465 0.04331 0.01835 0.0
C1042 C 0.44061 0.03138 0.02879 0.0
H1043 H 0.67071 0.48407 0.16836 0.0
H1044 H 0.60287 0.52114 0.2062 0.0
H1045 H 0.57947 0.52073 0.16886 0.0
H1046 H 0.6681 0.51517 0.10924 0.0
H1047 H 0.67669 0.48563 0.0937 0.0
H1048 H 0.68823 0.49029 0.12288 0.0
H1049 H 0.66658 0.44517 0.14005 0.0
H1050 H 0.65518 0.44024 0.11087 0.0
H1051 H 0.63174 0.43909 0.13786 0.0
H1052 H 0.56519 0.51811 0.12633 0.0
H1053 H 0.55825 0.50894 0.08437 0.0
H1054 H 0.63318 0.46709 0.07746 0.0
C1055 C 0.65083 0.49192 0.16886 0.0
C1056 C 0.63846 0.50267 0.19001 0.0
C1057 C 0.61254 0.51289 0.19003 0.0
C1058 C 0.59923 0.51275 0.16897 0.0
C1059 C 0.61203 0.50183 0.1484 0.0
C1060 C 0.63705 0.49116 0.14841 0.0
C1061 C 0.64597 0.47922 0.12462 0.0
C1062 C 0.67124 0.49343 0.11186 0.0
C1063 C 0.6501 0.44914 0.12859 0.0
C1064 C 0.62214 0.48506 0.11096 0.0
C1065 C 0.60298 0.49849 0.12479 0.0
C1066 C 0.5798 0.50707 0.11553 0.0
C1067 C 0.57595 0.50144 0.09164 0.0
C1068 C 0.59486 0.4867 0.07737 0.0
C1069 C 0.61829 0.47856 0.08742 0.0
H1070 H 0.40518 0.99903 0.30276 0.0
H1071 H 0.32461 0.02505 0.32096 0.0
H1072 H 0.33208 0.02387 0.36459 0.0
H1073 H 0.40795 0.95371 0.3564 0.0
H1074 H 0.44221 0.96169 0.35954 0.0
H1075 H 0.43034 0.96427 0.32989 0.0
H1076 H 0.44672 0.01332 0.32387 0.0
H1077 H 0.45854 1.01093 0.35353 0.0
H1078 H 0.43539 0.03636 0.34616 0.0
H1079 H 0.34847 0.01994 0.4063 0.0
H1080 H 0.37206 0.01338 0.44294 0.0
H1081 H 0.44265 0.99045 0.39795 0.0
C1082 C 0.38905 1.00407 0.31604 0.0
C1083 C 0.36412 0.01169 0.30863 0.0
C1084 C 0.34371 0.0189 0.32637 0.0
C1085 C 0.34781 0.0183 0.35116 0.0
C1086 C 0.37255 1.01059 0.35796 0.0
C1087 C 0.39284 1.00358 0.34093 0.0
C1088 C 0.41763 0.99637 0.3531 0.0
C1089 C 0.42496 0.96728 0.34952 0.0
C1090 C 0.44095 0.01538 0.3436 0.0
C1091 C 0.40812 1.00038 0.37961 0.0
C1092 C 0.38207 1.00861 0.38197 0.0
C1093 C 0.36892 0.0136 0.40462 0.0
C1094 C 0.38264 1.01002 0.42539 0.0
C1095 C 0.40942 1.00155 0.4236 0.0
C1096 C 0.42219 0.99672 0.4002 0.0
H1097 H 0.66398 0.5342 0.35608 0.0
H1098 H 0.6163 0.46612 0.34134 0.0
H1099 H 0.59629 0.46299 0.38415 0.0
H1100 H 0.67698 0.51133 0.41597 0.0
H1101 H 0.67457 0.54366 0.42806 0.0
H1102 H 0.68499 0.54077 0.39619 0.0
H1103 H 0.64714 0.57179 0.38465 0.0
H1104 H 0.63672 0.57493 0.41648 0.0
H1105 H 0.61329 0.56371 0.39676 0.0
H1106 H 0.58208 0.46674 0.42885 0.0
H1107 H 0.57378 0.47779 0.47174 0.0
H1108 H 0.62936 0.54462 0.45691 0.0
C1109 C 0.64904 0.51886 0.36171 0.0
C1110 C 0.64174 0.5004 0.34525 0.0
C1111 C 0.62248 0.48031 0.35361 0.0
C1112 C 0.6109 0.47844 0.37789 0.0
C1113 C 0.61872 0.49682 0.39363 0.0
C1114 C 0.63725 0.51673 0.38586 0.0
C1115 C 0.64228 0.5339 0.40648 0.0
C1116 C 0.67143 0.53231 0.41199 0.0
C1117 C 0.63438 0.56279 0.40075 0.0
C1118 C 0.62366 0.52054 0.42708 0.0
C1119 C 0.61032 0.49916 0.4193 0.0
C1120 C 0.59226 0.48358 0.43509 0.0
C1121 C 0.58756 0.49015 0.45944 0.0
C1122 C 0.60075 0.51221 0.46784 0.0
C1123 C 0.61912 0.52747 0.45129 0.0
H1124 H 0.15863 0.39282 0.03158 0.0
H1125 H 0.19684 0.42977 0.96368 0.0
H1126 H 0.1559 0.45522 0.95821 0.0
H1127 H 0.09555 0.38352 0.01139 0.0
H1128 H 0.07744 0.38996 0.0402 0.0
H1129 H 0.11036 0.37663 0.03933 0.0
H1130 H 0.12569 0.41582 0.06297 0.0
H1131 H 0.09273 0.42912 0.06412 0.0
H1132 H 0.12097 0.44946 0.05138 0.0
H1133 H 0.10815 0.4751 0.95983 0.0
H1134 H 0.06102 0.48806 0.96951 0.0
H1135 H 0.05602 0.43578 0.03537 0.0
C1136 C 0.15853 0.40631 0.01554 0.0
C1137 C 0.18097 0.40915 0.998 0.0
C1138 C 0.18 0.4274 0.97751 0.0
C1139 C 0.15674 0.4418 0.97417 0.0
C1140 C 0.13465 0.43781 0.99153 0.0
C1141 C 0.13562 0.42059 0.01191 0.0
C1142 C 0.10936 0.41899 0.02774 0.0
C1143 C 0.09749 0.39059 0.02977 0.0
C1144 C 0.11238 0.42895 0.05304 0.0
C1145 C 0.09324 0.43783 0.01311 0.0
C1146 C 0.10792 0.44869 0.99229 0.0
C1147 C 0.09659 0.46668 0.97616 0.0
C1148 C 0.06978 0.47386 0.98171 0.0
C1149 C 0.05466 0.46298 1.00316 0.0
C1150 C 0.06678 0.4446 0.01877 0.0
H1151 H 0.21664 0.66874 0.47052 0.0
H1152 H 0.23951 0.6084 0.52332 0.0
H1153 H 0.1986 0.58227 0.51878 0.0
H1154 H 0.14793 0.66673 0.48796 0.0
H1155 H 0.13842 0.67089 0.45745 0.0
H1156 H 0.16985 0.68414 0.46419 0.0
H1157 H 0.19459 0.65768 0.43037 0.0
H1158 H 0.16321 0.6446 0.42328 0.0
H1159 H 0.18917 0.62227 0.4307 0.0
H1160 H 0.15296 0.56556 0.51139 0.0
H1161 H 0.10896 0.55632 0.49865 0.0
H1162 H 0.11857 0.62529 0.44683 0.0
C1163 C 0.21326 0.64979 0.48081 0.0
C1164 C 0.2311 0.64051 0.49735 0.0
C1165 C 0.22599 0.61574 0.51059 0.0
C1166 C 0.20284 0.60088 0.50815 0.0
C1167 C 0.18538 0.61089 0.492 0.0
C1168 C 0.19062 0.63452 0.4782 0.0
C1169 C 0.16877 0.64087 0.46208 0.0
C1170 C 0.15546 0.66722 0.4683 0.0
C1171 C 0.17958 0.64137 0.435 0.0
C1172 C 0.15006 0.61736 0.4693 0.0
C1173 C 0.1599 0.60044 0.48672 0.0
C1174 C 0.1454 0.57829 0.49728 0.0
C1175 C 0.12036 0.57308 0.48965 0.0
C1176 C 0.11006 0.58962 0.47117 0.0
C1177 C 0.1254 0.61211 0.46099 0.0
H1178 H 0.86652 0.83259 0.47387 0.0
H1179 H 0.82587 0.89894 0.5061 0.0
H1180 H 0.86834 0.92442 0.50247 0.0
H1181 H 0.92775 0.8384 0.49931 0.0
H1182 H 0.94871 0.83143 0.47211 0.0
H1183 H 0.91523 0.81808 0.47723 0.0
H1184 H 0.90468 0.83996 0.43577 0.0
H1185 H 0.93826 0.85299 0.43033 0.0
H1186 H 0.91063 0.87512 0.42923 0.0
H1187 H 0.9163 0.94083 0.49944 0.0
H1188 H 0.96428 0.95121 0.48857 0.0
H1189 H 0.97331 0.87705 0.45336 0.0
C1190 C 0.86661 0.85259 0.47989 0.0
C1191 C 0.84307 0.86345 0.49111 0.0
C1192 C 0.84382 0.88995 0.49817 0.0
C1193 C 0.86787 0.90455 0.4962 0.0
C1194 C 0.89099 0.89285 0.48621 0.0
C1195 C 0.89044 0.86784 0.47736 0.0
C1196 C 0.91795 0.86061 0.46612 0.0
C1197 C 0.928 0.83564 0.4795 0.0
C1198 C 0.91787 0.85696 0.43874 0.0
C1199 C 0.93408 0.88518 0.47051 0.0
C1200 C 0.91822 0.90331 0.48256 0.0
C1201 C 0.92883 0.92694 0.48967 0.0
C1202 C 0.95616 0.93258 0.48365 0.0
C1203 C 0.97253 0.91499 0.47016 0.0
C1204 C 0.96126 0.8909 0.46368 0.0
H1205 H 0.39845 0.63113 0.51401 0.0
H1206 H 0.38379 0.68143 0.57479 0.0
H1207 H 0.42222 0.66263 0.5928 0.0
H1208 H 0.42056 0.57378 0.54808 0.0
H1209 H 0.4466 0.56556 0.52509 0.0
H1210 H 0.41759 0.5826 0.51638 0.0
H1211 H 0.44757 0.62026 0.49379 0.0
H1212 H 0.47669 0.6033 0.50237 0.0
H1213 H 0.47117 0.63714 0.50999 0.0
H1214 H 0.46062 0.63826 0.60543 0.0
H1215 H 0.49938 0.61101 0.6113 0.0
H1216 H 0.49316 0.57683 0.54188 0.0
C1217 C 0.40341 0.63832 0.53102 0.0
C1218 C 0.38739 0.65749 0.54315 0.0
C1219 C 0.39488 0.66624 0.56539 0.0
C1220 C 0.41695 0.65583 0.57574 0.0
C1221 C 0.4319 0.6368 0.56362 0.0
C1222 C 0.42576 0.62821 0.54165 0.0
C1223 C 0.44575 0.60765 0.53258 0.0
C1224 C 0.43178 0.58081 0.53041 0.0
C1225 C 0.46121 0.61769 0.50824 0.0
C1226 C 0.46382 0.606 0.55304 0.0
C1227 C 0.45515 0.62302 0.57069 0.0
C1228 C 0.46772 0.62495 0.59168 0.0
C1229 C 0.48979 0.60919 0.59485 0.0
C1230 C 0.49958 0.59159 0.57709 0.0
C1231 C 0.48636 0.5901 0.55576 0.0
H1232 H 0.53702 0.65566 0.88834 0.0
H1233 H 0.49764 0.68178 0.95603 0.0
H1234 H 0.50256 0.63662 0.97556 0.0
H1235 H 0.50359 0.59342 0.89198 0.0
H1236 H 0.53183 0.57646 0.878 0.0
H1237 H 0.52782 0.61134 0.87057 0.0
H1238 H 0.57466 0.62144 0.88323 0.0
H1239 H 0.57894 0.58655 0.8905 0.0
H1240 H 0.58257 0.61009 0.91316 0.0
H1241 H 0.51163 0.58717 0.98698 0.0
H1242 H 0.52272 0.53931 0.98877 0.0
H1243 H 0.55084 0.54636 0.91179 0.0
C1244 C 0.52914 0.65206 0.90725 0.0
C1245 C 0.51654 0.67234 0.92052 0.0
C1246 C 0.50745 0.6667 0.94547 0.0
C1247 C 0.51002 0.64104 0.95665 0.0
C1248 C 0.52157 0.6213 0.94257 0.0
C1249 C 0.5309 0.62668 0.91837 0.0
C1250 C 0.54126 0.60212 0.90655 0.0
C1251 C 0.52516 0.59545 0.88554 0.0
C1252 C 0.57113 0.60524 0.89786 0.0
C1253 C 0.53625 0.58179 0.92783 0.0
C1254 C 0.52527 0.59315 0.94861 0.0
C1255 C 0.51999 0.57814 0.97073 0.0
C1256 C 0.52629 0.551 0.97158 0.0
C1257 C 0.53718 0.5391 0.95032 0.0
C1258 C 0.54197 0.55476 0.92821 0.0
H1259 H 0.489 0.8621 0.92708 0.0
H1260 H 0.54473 0.86869 0.86175 0.0
H1261 H 0.54907 0.91716 0.86574 0.0
H1262 H 0.45359 0.92141 0.91081 0.0
H1263 H 0.4466 0.93013 0.9419 0.0
H1264 H 0.45034 0.89581 0.93528 0.0
H1265 H 0.48714 0.89116 0.96447 0.0
H1266 H 0.48371 0.92556 0.97098 0.0
H1267 H 0.51572 0.91332 0.95974 0.0
H1268 H 0.54714 0.96553 0.87734 0.0
H1269 H 0.53524 1.00962 0.89243 0.0
H1270 H 0.4756 0.97179 0.94602 0.0
C1271 C 0.50141 0.87376 0.9131 0.0
C1272 C 0.51588 0.86164 0.89361 0.0
C1273 C 0.53332 0.87758 0.87674 0.0
C1274 C 0.53589 0.90512 0.87886 0.0
C1275 C 0.52064 0.91658 0.89783 0.0
C1276 C 0.50343 0.9014 0.91443 0.0
C1277 C 0.48783 0.91869 0.93209 0.0
C1278 C 0.45781 0.91637 0.92988 0.0
C1279 C 0.49398 0.91176 0.95837 0.0
C1280 C 0.49886 0.94598 0.92284 0.0
C1281 C 0.51824 0.94435 0.90343 0.0
C1282 C 0.53183 0.967 0.89239 0.0
C1283 C 0.52506 0.99194 0.90112 0.0
C1284 C 0.50443 0.99407 0.92024 0.0
C1285 C 0.49133 0.97073 0.93124 0.0
H1286 H 0.52278 0.35622 0.67894 0.0
H1287 H 0.50458 0.32865 0.60984 0.0
H1288 H 0.50809 0.37477 0.59167 0.0
H1289 H 0.48779 0.41908 0.67527 0.0
H1290 H 0.5127 0.43775 0.68837 0.0
H1291 H 0.50796 0.40273 0.69655 0.0
H1292 H 0.55759 0.39491 0.68335 0.0
H1293 H 0.56261 0.4299 0.67527 0.0
H1294 H 0.57169 0.40607 0.65304 0.0
H1295 H 0.51412 0.42323 0.58051 0.0
H1296 H 0.52522 0.471 0.57588 0.0
H1297 H 0.54047 0.4694 0.65174 0.0
C1298 C 0.51937 0.36006 0.66003 0.0
C1299 C 0.51268 0.33888 0.64592 0.0
C1300 C 0.509 0.34457 0.62112 0.0
C1301 C 0.51103 0.37073 0.61064 0.0
C1302 C 0.51709 0.39122 0.62506 0.0
C1303 C 0.52146 0.38628 0.64917 0.0
C1304 C 0.52876 0.41208 0.66014 0.0
C1305 C 0.50806 0.41827 0.68134 0.0
C1306 C 0.55684 0.41065 0.66843 0.0
C1307 C 0.52785 0.43221 0.63839 0.0
C1308 C 0.52093 0.41955 0.61846 0.0
C1309 C 0.51946 0.43335 0.59602 0.0
C1310 C 0.52578 0.46062 0.59359 0.0
C1311 C 0.53351 0.47427 0.61343 0.0
C1312 C 0.53412 0.4598 0.63632 0.0
H1313 H 0.52535 0.13226 0.63168 0.0
H1314 H 0.48751 0.18934 0.58484 0.0
H1315 H 0.48161 0.15456 0.55642 0.0
H1316 H 0.55819 0.09348 0.58383 0.0
H1317 H 0.55166 0.06238 0.60151 0.0
H1318 H 0.55588 0.09251 0.61663 0.0
H1319 H 0.51 0.08413 0.64179 0.0
H1320 H 0.50568 0.05401 0.6268 0.0
H1321 H 0.48093 0.0794 0.62616 0.0
H1322 H 0.47651 0.11237 0.53459 0.0
H1323 H 0.47171 0.06655 0.52205 0.0
H1324 H 0.51105 0.03688 0.58418 0.0
C1325 C 0.51588 0.13763 0.61544 0.0
C1326 C 0.50702 0.16381 0.61063 0.0
C1327 C 0.49502 0.16972 0.58888 0.0
C1328 C 0.49141 0.15 0.57262 0.0
C1329 C 0.49987 0.12434 0.57826 0.0
C1330 C 0.51188 0.11815 0.59917 0.0
C1331 C 0.51753 0.08872 0.60194 0.0
C1332 C 0.5476 0.084 0.60091 0.0
C1333 C 0.50264 0.07581 0.62557 0.0
C1334 C 0.50632 0.07919 0.5796 0.0
C1335 C 0.49653 0.10006 0.56598 0.0
C1336 C 0.48433 0.09593 0.54501 0.0
C1337 C 0.48173 0.0698 0.53801 0.0
C1338 C 0.49106 0.04803 0.55204 0.0
C1339 C 0.50385 0.05302 0.57291 0.0
H1340 H 0.87511 0.50354 0.61626 0.0
H1341 H 0.9338 0.54803 0.65027 0.0
H1342 H 0.96243 0.55153 0.61144 0.0
H1343 H 0.92012 0.46941 0.57383 0.0
H1344 H 0.89917 0.47349 0.54947 0.0
H1345 H 0.88456 0.47127 0.58071 0.0
H1346 H 0.86138 0.51622 0.57357 0.0
H1347 H 0.87575 0.51847 0.54231 0.0
H1348 H 0.88111 0.54505 0.56162 0.0
H1349 H 0.98412 0.55209 0.56837 0.0
H1350 H 0.99516 0.55348 0.52385 0.0
H1351 H 0.92046 0.5128 0.5168 0.0
C1352 C 0.89385 0.51421 0.61579 0.0
C1353 C 0.90197 0.52527 0.63688 0.0
C1354 C 0.92708 0.53862 0.63493 0.0
C1355 C 0.94355 0.54092 0.61277 0.0
C1356 C 0.93466 0.5301 0.59246 0.0
C1357 C 0.91025 0.51728 0.5937 0.0
C1358 C 0.90433 0.50945 0.56874 0.0
C1359 C 0.90191 0.4791 0.56816 0.0
C1360 C 0.87916 0.52312 0.56112 0.0
C1361 C 0.9291 0.52021 0.55319 0.0
C1362 C 0.94655 0.53158 0.56734 0.0
C1363 C 0.97061 0.5432 0.55713 0.0
C1364 C 0.97674 0.54381 0.53176 0.0
C1365 C 0.95871 0.53325 0.51671 0.0
C1366 C 0.93474 0.52094 0.52773 0.0
H1367 H 0.15086 0.99606 0.64661 0.0
H1368 H 0.11811 0.07412 0.65606 0.0
H1369 H 0.08956 0.06765 0.62283 0.0
H1370 H 0.15651 0.9992 0.58395 0.0
H1371 H 0.14762 0.96487 0.58132 0.0
H1372 H 0.16253 0.97444 0.60764 0.0
H1373 H 0.1226 0.95347 0.63599 0.0
H1374 H 0.10764 0.94356 0.60973 0.0
H1375 H 0.08928 0.96347 0.6314 0.0
H1376 H 0.06906 0.05418 0.58518 0.0
H1377 H 0.05706 0.0346 0.54786 0.0
H1378 H 0.10268 0.96478 0.56495 0.0
C1379 C 0.13729 0.01158 0.64193 0.0
C1380 C 0.13656 0.03559 0.6536 0.0
C1381 C 0.1187 0.05556 0.64722 0.0
C1382 C 0.10253 0.05202 0.62844 0.0
C1383 C 0.10432 0.02827 0.61673 0.0
C1384 C 0.12103 1.00827 0.62353 0.0
C1385 C 0.12063 0.98528 0.60739 0.0
C1386 C 0.14847 0.9807 0.5943 0.0
C1387 C 0.10935 0.95995 0.622 0.0
C1388 C 0.10179 0.99577 0.5898 0.0
C1389 C 0.09235 0.02046 0.59552 0.0
C1390 C 0.07594 0.03465 0.58082 0.0
C1391 C 0.06918 0.02333 0.5597 0.0
C1392 C 0.07893 0.99814 0.55347 0.0
C1393 C 0.09509 0.98416 0.56903 0.0
H1394 H 0.85893 0.50842 0.82599 0.0
H1395 H 0.91861 0.55104 0.77577 0.0
H1396 H 0.94632 0.55688 0.80949 0.0
H1397 H 0.86489 0.54627 0.87779 0.0
H1398 H 0.8611 0.51801 0.89962 0.0
H1399 H 0.84595 0.51743 0.8716 0.0
H1400 H 0.87046 0.47406 0.8615 0.0
H1401 H 0.88557 0.4744 0.88956 0.0
H1402 H 0.90615 0.47314 0.86101 0.0
H1403 H 0.96655 0.55968 0.84937 0.0
H1404 H 0.97924 0.55651 0.89132 0.0
H1405 H 0.90797 0.50868 0.9148 0.0
C1406 C 0.87782 0.51902 0.82221 0.0
C1407 C 0.88635 0.53002 0.79851 0.0
C1408 C 0.91144 0.54318 0.794 0.0
C1409 C 0.92733 0.54647 0.813 0.0
C1410 C 0.9181 0.53594 0.83634 0.0
C1411 C 0.8941 0.52215 0.84094 0.0
C1412 C 0.88913 0.51217 0.8675 0.0
C1413 C 0.86376 0.5242 0.87985 0.0
C1414 C 0.88776 0.48163 0.87004 0.0
C1415 C 0.91387 0.52283 0.87719 0.0
C1416 C 0.93029 0.53657 0.85898 0.0
C1417 C 0.95396 0.5487 0.86373 0.0
C1418 C 0.9611 0.54664 0.88768 0.0
C1419 C 0.94476 0.53235 0.90671 0.0
C1420 C 0.92086 0.52024 0.90107 0.0
H1421 H 0.20455 0.03496 0.82677 0.0
H1422 H 0.12774 0.03871 0.79873 0.0
H1423 H 0.10582 0.04289 0.84048 0.0
H1424 H 0.18385 0.99672 0.88276 0.0
H1425 H 0.20489 0.0146 0.90072 0.0
H1426 H 0.21441 0.01221 0.86862 0.0
H1427 H 0.2175 0.06398 0.86234 0.0
H1428 H 0.20851 0.06597 0.89463 0.0
H1429 H 0.18936 0.08318 0.87303 0.0
H1430 H 0.09231 0.04652 0.88488 0.0
H1431 H 0.08746 0.04924 0.92929 0.0
H1432 H 0.17302 0.04246 0.92974 0.0
C1433 C 0.18311 0.03662 0.82958 0.0
C1434 C 0.16765 0.03607 0.80975 0.0
C1435 C 0.13975 0.03866 0.81385 0.0
C1436 C 0.1272 0.04113 0.83744 0.0
C1437 C 0.14289 0.04126 0.85672 0.0
C1438 C 0.17023 0.03918 0.8531 0.0
C1439 C 0.18232 0.04007 0.87707 0.0
C1440 C 0.19726 0.01437 0.88262 0.0
C1441 C 0.20052 0.06475 0.87676 0.0
C1442 C 0.15746 0.04232 0.89481 0.0
C1443 C 0.13502 0.04323 0.88254 0.0
C1444 C 0.10972 0.0456 0.8947 0.0
C1445 C 0.10719 0.04689 0.92008 0.0
C1446 C 0.12975 0.04557 0.93336 0.0
C1447 C 0.1553 0.04351 0.92032 0.0
H1448 H 0.63805 0.85804 0.50011 0.0
H1449 H 0.69053 0.9244 0.51045 0.0
H1450 H 0.65387 0.95507 0.50545 0.0
H1451 H 0.597 0.89153 0.45779 0.0
H1452 H 0.56667 0.87555 0.47193 0.0
H1453 H 0.5979 0.85882 0.47284 0.0
H1454 H 0.59008 0.85314 0.51998 0.0
H1455 H 0.55867 0.86934 0.51911 0.0
H1456 H 0.58316 0.88195 0.5371 0.0
H1457 H 0.61032 0.9788 0.50235 0.0
H1458 H 0.56315 0.99212 0.50686 0.0
H1459 H 0.53837 0.91048 0.50188 0.0
C1460 C 0.64215 0.87893 0.50148 0.0
C1461 C 0.66787 0.88837 0.50543 0.0
C1462 C 0.67164 0.91622 0.50672 0.0
C1463 C 0.65073 0.93399 0.50401 0.0
C1464 C 0.62582 0.92389 0.50024 0.0
C1465 C 0.62137 0.89693 0.49936 0.0
C1466 C 0.59214 0.89084 0.4977 0.0
C1467 C 0.58821 0.87845 0.47363 0.0
C1468 C 0.58032 0.87276 0.51979 0.0
C1469 C 0.58072 0.91853 0.49824 0.0
C1470 C 0.60058 0.93742 0.49915 0.0
C1471 C 0.5947 0.96422 0.50122 0.0
C1472 C 0.56787 0.97171 0.50344 0.0
C1473 C 0.5472 0.95253 0.50367 0.0
C1474 C 0.55382 0.92572 0.50056 0.0
H1475 H 0.71628 0.1954 0.95789 0.0
H1476 H 0.74755 0.13356 1.00436 0.0
H1477 H 0.70704 0.10605 1.00273 0.0
H1478 H 0.64827 0.1887 0.981 0.0
H1479 H 0.63556 0.19341 0.95181 0.0
H1480 H 0.66703 0.20827 0.95646 0.0
H1481 H 0.69005 0.18483 0.91979 0.0
H1482 H 0.6586 0.17006 0.91486 0.0
H1483 H 0.68673 0.14927 0.91906 0.0
H1484 H 0.66172 0.08767 0.99944 0.0
H1485 H 0.61683 0.07608 0.99034 0.0
H1486 H 0.61716 0.14703 0.9411 0.0
C1487 C 0.71447 0.17601 0.96762 0.0
C1488 C 0.73433 0.16683 0.982 0.0
C1489 C 0.73195 0.14116 0.99398 0.0
C1490 C 0.70915 0.12541 0.99304 0.0
C1491 C 0.68943 0.13535 0.97937 0.0
C1492 C 0.69208 0.15976 0.96641 0.0
C1493 C 0.66821 0.16531 0.95257 0.0
C1494 C 0.65392 0.19041 0.96097 0.0
C1495 C 0.67639 0.16749 0.92493 0.0
C1496 C 0.65148 0.14047 0.96028 0.0
C1497 C 0.66404 0.12363 0.9759 0.0
C1498 C 0.65194 0.10031 0.98668 0.0
C1499 C 0.62639 0.09378 0.98114 0.0
C1500 C 0.61328 0.11018 0.96445 0.0
C1501 C 0.62624 0.13391 0.95396 0.0
H1502 H 0.36379 0.40552 0.96211 0.0
H1503 H 0.36995 0.34048 0.01627 0.0
H1504 H 0.41737 0.35218 0.01773 0.0
H1505 H 0.43036 0.39584 0.9291 0.0
H1506 H 0.43586 0.43097 0.92198 0.0
H1507 H 0.40255 0.41717 0.92522 0.0
H1508 H 0.38863 0.45042 0.95781 0.0
H1509 H 0.42201 0.46397 0.95504 0.0
H1510 H 0.4064 0.45127 0.98437 0.0
H1511 H 0.46335 0.37368 0.01585 0.0
H1512 H 0.50613 0.39862 1.00586 0.0
H1513 H 0.47152 0.44609 0.94953 0.0
C1514 C 0.37534 0.393 0.97347 0.0
C1515 C 0.36324 0.37162 0.98866 0.0
C1516 C 0.37889 0.35675 1.00429 0.0
C1517 C 0.4058 0.36332 1.00532 0.0
C1518 C 0.41707 0.38465 0.99031 0.0
C1519 C 0.40252 0.39885 0.97423 0.0
C1520 C 0.4196 0.42054 0.95973 0.0
C1521 C 0.42226 0.41584 0.93239 0.0
C1522 C 0.40849 0.44818 0.96454 0.0
C1523 C 0.44587 0.4165 0.97036 0.0
C1524 C 0.44389 0.39601 0.9883 0.0
C1525 C 0.46523 0.38951 1.00157 0.0
C1526 C 0.48938 0.40388 0.99594 0.0
C1527 C 0.49217 0.42412 0.97687 0.0
C1528 C 0.47002 0.43052 0.96407 0.0
H1529 H 0.93505 0.17766 0.99109 0.0
H1530 H 0.8763 0.12554 0.03395 0.0
H1531 H 0.91183 0.09575 0.04498 0.0
H1532 H 0.97999 0.12586 0.96948 0.0
H1533 H 0.00971 0.14502 0.97229 0.0
H1534 H 0.97957 0.16163 0.96597 0.0
H1535 H 0.98176 0.18898 1.00379 0.0
H1536 H 0.01197 0.17262 0.0101 0.0
H1537 H 0.98393 0.1719 0.03315 0.0
H1538 H 0.9532 0.07313 0.05398 0.0
H1539 H 0.99853 0.05961 0.0614 0.0
H1540 H 0.03176 0.12554 0.01317 0.0
C1541 C 0.9296 0.15998 1.00277 0.0
C1542 C 0.90259 0.15391 0.01132 0.0
C1543 C 0.89657 0.13045 0.02656 0.0
C1544 C 0.91669 0.11339 0.03307 0.0
C1545 C 0.94294 0.11992 0.0243 0.0
C1546 C 0.94955 0.14266 0.00955 0.0
C1547 C 0.97958 0.14556 1.00371 0.0
C1548 C 0.98769 0.14445 0.97623 0.0
C1549 C 0.98991 0.17129 0.01326 0.0
C1550 C 0.98878 0.12112 0.01783 0.0
C1551 C 0.96716 0.10659 0.02941 0.0
C1552 C 0.97026 0.0841 0.04473 0.0
C1553 C 0.99605 0.07653 0.04879 0.0
C1554 C 0.01852 0.09118 0.03744 0.0
C1555 C 0.01489 0.11355 0.02144 0.0
H1556 H 0.03804 0.18011 0.2834 0.0
H1557 H 0.98438 0.23646 0.25312 0.0
H1558 H 0.98388 0.2103 0.21675 0.0
H1559 H 0.07787 0.17335 0.22722 0.0
H1560 H 0.08452 0.13869 0.2334 0.0
H1561 H 0.07798 0.15992 0.25821 0.0
H1562 H 0.03959 0.12823 0.27727 0.0
H1563 H 0.04596 0.1069 0.25247 0.0
H1564 H 0.01321 0.12002 0.25935 0.0
H1565 H 0.99027 0.17856 0.18324 0.0
H1566 H 1.00617 0.14637 0.15336 0.0
H1567 H 0.05913 0.11307 0.20367 0.0
C1568 C 0.02607 0.18679 0.26914 0.0
C1569 C 0.01112 0.21022 0.27104 0.0
C1570 C 0.99576 0.21844 0.25204 0.0
C1571 C 0.99539 0.20372 0.23136 0.0
C1572 C 0.01077 0.18098 0.22982 0.0
C1573 C 0.02607 0.17272 0.24808 0.0
C1574 C 0.04261 0.14898 0.24103 0.0
C1575 C 0.07251 0.15564 0.23989 0.0
C1576 C 0.03487 0.12459 0.25858 0.0
C1577 C 0.03434 0.14521 0.21588 0.0
C1578 C 0.01557 0.16357 0.20997 0.0
C1579 C 1.00492 0.16408 0.1877 0.0
C1580 C 0.01396 0.14562 0.17089 0.0
C1581 C 0.03378 0.12717 0.17623 0.0
C1582 C 0.04394 0.12694 0.19912 0.0
H1583 H 0.03526 0.34675 0.2386 0.0
H1584 H 0.96926 0.37958 0.28298 0.0
H1585 H 0.95996 0.40964 0.24802 0.0
H1586 H 0.05626 0.41012 0.2024 0.0
H1587 H 0.06456 0.39308 0.17502 0.0
H1588 H 0.06805 0.37654 0.20436 0.0
H1589 H 0.03771 0.33793 0.19421 0.0
H1590 H 0.03385 0.35444 0.16502 0.0
H1591 H 1.0049 0.34506 0.18583 0.0
H1592 H 0.95416 0.43157 0.20738 0.0
H1593 H 0.95412 0.44643 0.16391 0.0
H1594 H 0.02484 0.4008 0.14603 0.0
C1595 C 0.01941 0.36087 0.24118 0.0
C1596 C 1.00295 0.36084 0.26348 0.0
C1597 C 0.98195 0.37913 0.26597 0.0
C1598 C 0.97661 0.39637 0.24628 0.0
C1599 C 0.99265 0.39527 0.22431 0.0
C1600 C 0.01387 0.37828 0.22171 0.0
C1601 C 0.0269 0.37983 0.19569 0.0
C1602 C 0.05565 0.39054 0.19429 0.0
C1603 C 0.02575 0.35271 0.18454 0.0
C1604 C 0.00915 0.39969 0.18392 0.0
C1605 C 0.9896 0.40843 0.20081 0.0
C1606 C 0.96964 0.42528 0.19406 0.0
C1607 C 0.96966 0.43344 0.16938 0.0
C1608 C 0.98954 0.42481 0.15182 0.0
C1609 C 0.00969 0.40797 0.15923 0.0
H1610 H 0.03302 0.81353 0.23312 0.0
H1611 H 0.98812 0.74843 0.27364 0.0
H1612 H 0.98158 0.77553 0.30975 0.0
H1613 H 0.06811 0.83211 0.28248 0.0
H1614 H 0.06824 0.86704 0.27324 0.0
H1615 H 0.06763 0.84282 0.2508 0.0
H1616 H 0.02501 0.86402 0.23636 0.0
H1617 H 0.02522 0.88806 0.25906 0.0
H1618 H 0.99619 0.86723 0.25806 0.0
H1619 H 0.98009 0.81019 0.34083 0.0
H1620 H 0.98834 0.84735 0.36644 0.0
H1621 H 0.03692 0.88785 0.30564 0.0
C1622 C 0.02214 0.80491 0.24976 0.0
C1623 C 0.01141 0.77895 0.25108 0.0
C1624 C 0.99674 0.76828 0.27273 0.0
C1625 C 0.9928 0.78354 0.29308 0.0
C1626 C 1.0038 0.80919 0.29121 0.0
C1627 C 0.01851 0.81958 0.27019 0.0
C1628 C 0.02958 0.84694 0.27311 0.0
C1629 C 0.0602 0.84723 0.26972 0.0
C1630 C 0.01832 0.86778 0.25561 0.0
C1631 C 0.01898 0.85038 0.2992 0.0
C1632 C 1.00371 0.82865 0.30921 0.0
C1633 C 0.99197 0.8273 0.3332 0.0
C1634 C 0.99659 0.84845 0.34751 0.0
C1635 C 0.01309 0.87021 0.33774 0.0
C1636 C 0.0241 0.87137 0.31328 0.0
H1637 H 0.03115 0.66635 0.27105 0.0
H1638 H 0.96965 0.62712 0.23644 0.0
H1639 H 0.95892 0.59765 0.27363 0.0
H1640 H 0.05296 0.60668 0.30486 0.0
H1641 H 0.05842 0.62422 0.33133 0.0
H1642 H 0.06239 0.64141 0.30154 0.0
H1643 H 0.02851 0.67641 0.31657 0.0
H1644 H 0.02438 0.65931 0.34636 0.0
H1645 H 0.99582 0.66564 0.33005 0.0
H1646 H 0.95297 0.57414 0.315 0.0
H1647 H 0.95236 0.5575 0.35785 0.0
H1648 H 0.01827 0.61081 0.3665 0.0
C1649 C 0.01577 0.65121 0.27112 0.0
C1650 C 1.00126 0.6491 0.25067 0.0
C1651 C 0.9809 0.62936 0.25182 0.0
C1652 C 0.97475 0.61241 0.27286 0.0
C1653 C 0.98913 0.61527 0.29274 0.0
C1654 C 0.00931 0.63408 0.29208 0.0
C1655 C 0.02096 0.63355 0.3164 0.0
C1656 C 0.05043 0.62601 0.31334 0.0
C1657 C 0.01718 0.66032 0.32803 0.0
C1658 C 1.00398 0.61168 0.33088 0.0
C1659 C 0.98582 0.60144 0.31676 0.0
C1660 C 0.96726 0.58184 0.32615 0.0
C1661 C 0.96706 0.57255 0.35061 0.0
C1662 C 0.98535 0.58267 0.36565 0.0
C1663 C 1.00426 0.60238 0.35547 0.0
H1664 H 0.26643 0.04552 0.15415 0.0
H1665 H 0.22162 0.99207 0.20841 0.0
H1666 H 0.18539 0.98974 0.18173 0.0
H1667 H 0.20974 0.08312 0.13888 0.0
H1668 H 0.22181 0.08867 0.10708 0.0
H1669 H 0.24501 0.08415 0.12951 0.0
H1670 H 0.26631 0.04553 0.10611 0.0
H1671 H 0.24282 0.04963 0.08384 0.0
H1672 H 0.24577 0.0178 0.10001 0.0
H1673 H 0.15396 0.99388 0.15013 0.0
H1674 H 0.1259 1.00893 0.11829 0.0
H1675 H 0.1891 0.06236 0.08501 0.0
C1676 C 0.24883 0.03356 0.16048 0.0
C1677 C 0.24661 0.0191 0.18346 0.0
C1678 C 0.22354 1.00335 0.19095 0.0
C1679 C 0.20302 1.0018 0.17585 0.0
C1680 C 0.20578 0.01631 0.15336 0.0
C1681 C 0.22785 0.03228 0.14584 0.0
C1682 C 0.22477 0.0475 0.12167 0.0
C1683 C 0.22536 0.07764 0.12446 0.0
C1684 C 0.2462 0.03964 0.10173 0.0
C1685 C 0.19736 0.03778 0.11689 0.0
C1686 C 0.18712 0.01936 0.13524 0.0
C1687 C 0.16182 1.00812 0.1356 0.0
C1688 C 0.14611 0.01666 0.11735 0.0
C1689 C 0.15556 0.03635 0.09898 0.0
C1690 C 0.18176 0.04666 0.09839 0.0
H1691 H 0.81996 0.48617 0.16725 0.0
H1692 H 0.76961 0.54058 0.12992 0.0
H1693 H 0.80345 0.54415 0.09399 0.0
H1694 H 0.8819 0.51895 0.14588 0.0
H1695 H 0.89976 0.48838 0.14323 0.0
H1696 H 0.87122 0.48999 0.16544 0.0
H1697 H 0.84935 0.45013 0.14717 0.0
H1698 H 0.87785 0.44847 0.12492 0.0
H1699 H 0.84508 0.45189 0.11516 0.0
H1700 H 0.84447 0.54207 0.06199 0.0
H1701 H 0.88746 0.53367 0.03767 0.0
H1702 H 0.90937 0.48121 0.09738 0.0
C1703 C 0.81606 0.49903 0.15164 0.0
C1704 C 0.79214 0.51317 0.15149 0.0
C1705 C 0.78769 0.52935 0.1304 0.0
C1706 C 0.80686 0.53162 0.10995 0.0
C1707 C 0.83036 0.51752 0.11083 0.0
C1708 C 0.83487 0.50149 0.13119 0.0
C1709 C 0.86155 0.48833 0.12783 0.0
C1710 C 0.87967 0.49694 0.14671 0.0
C1711 C 0.85825 0.4579 0.12882 0.0
C1712 C 0.87149 0.49951 0.10247 0.0
C1713 C 0.8534 0.51631 0.09278 0.0
C1714 C 0.85874 0.5289 0.06945 0.0
C1715 C 0.88318 0.52406 0.05576 0.0
C1716 C 0.90184 0.5068 0.06553 0.0
C1717 C 0.89567 0.49452 0.08921 0.0
H1718 H 0.21212 0.9751 0.30285 0.0
H1719 H 0.25504 0.02846 0.34393 0.0
H1720 H 0.21942 0.02278 0.37827 0.0
H1721 H 0.14699 0.99802 0.3222 0.0
H1722 H 0.1314 0.96558 0.32348 0.0
H1723 H 0.16066 0.97326 0.30259 0.0
H1724 H 0.18434 0.93275 0.32123 0.0
H1725 H 0.15512 0.92494 0.34216 0.0
H1726 H 0.18681 0.9298 0.35357 0.0
H1727 H 0.1788 1.01062 0.40854 0.0
H1728 H 0.13601 0.9947 0.43108 0.0
H1729 H 0.11939 0.95054 0.36942 0.0
C1730 C 0.21414 0.98539 0.31916 0.0
C1731 C 0.23643 1.00216 0.32074 0.0
C1732 C 0.23808 0.01565 0.34225 0.0
C1733 C 0.218 0.01244 0.3619 0.0
C1734 C 0.19625 0.99582 0.35972 0.0
C1735 C 0.19416 0.98264 0.33882 0.0
C1736 C 0.16844 0.96654 0.34074 0.0
C1737 C 0.15083 0.97645 0.32109 0.0
C1738 C 0.17402 0.93674 0.33935 0.0
C1739 C 0.15636 0.97268 0.36597 0.0
C1740 C 0.17274 0.98944 0.37674 0.0
C1741 C 0.1658 0.99756 0.40021 0.0
C1742 C 0.14147 0.98839 0.4129 0.0
C1743 C 0.12423 0.97149 0.40202 0.0
C1744 C 0.13197 0.9636 0.37824 0.0
H1745 H 0.79923 0.51567 0.29423 0.0
H1746 H 0.72539 0.49403 0.33836 0.0
H1747 H 0.74888 0.49327 0.37575 0.0
H1748 H 0.84288 0.47628 0.3296 0.0
H1749 H 0.86919 0.5011 0.32522 0.0
H1750 H 0.84662 0.49822 0.30236 0.0
H1751 H 0.83477 0.54792 0.30507 0.0
H1752 H 0.85738 0.55099 0.32782 0.0
H1753 H 0.82306 0.55993 0.33422 0.0
H1754 H 0.78113 0.49653 0.40826 0.0
H1755 H 0.81838 0.50581 0.43276 0.0
H1756 H 0.86978 0.52599 0.36625 0.0
C1757 C 0.78814 0.51076 0.31183 0.0
C1758 C 0.76071 0.50516 0.31382 0.0
C1759 C 0.74653 0.49854 0.33685 0.0
C1760 C 0.75969 0.49796 0.35802 0.0
C1761 C 0.78693 0.50388 0.35552 0.0
C1762 C 0.8009 0.5102 0.33295 0.0
C1763 C 0.82965 0.51696 0.335 0.0
C1764 C 0.84817 0.49694 0.32229 0.0
C1765 C 0.8366 0.54565 0.32494 0.0
C1766 C 0.82971 0.51396 0.36228 0.0
C1767 C 0.80507 0.50607 0.37393 0.0
C1768 C 0.80052 0.50261 0.39931 0.0
C1769 C 0.82166 0.50782 0.41305 0.0
C1770 C 0.84663 0.51669 0.40122 0.0
C1771 C 0.85072 0.51933 0.37561 0.0
H1772 H 0.23304 0.22123 0.00872 0.0
H1773 H 0.18492 0.28226 0.04211 0.0
H1774 H 0.14896 0.24913 0.05516 0.0
H1775 H 0.17738 0.18718 0.98571 0.0
H1776 H 0.19085 0.1546 0.99072 0.0
H1777 H 0.21287 0.1831 0.98424 0.0
H1778 H 0.23446 0.17139 0.02395 0.0
H1779 H 0.21244 0.14294 0.03059 0.0
H1780 H 0.21373 0.16765 0.05259 0.0
H1781 H 0.11965 0.20857 0.0673 0.0
H1782 H 0.09693 0.1645 0.07348 0.0
H1783 H 0.16212 0.13058 0.02898 0.0
C1784 C 0.21487 0.2275 0.01872 0.0
C1785 C 0.21194 0.25408 0.02501 0.0
C1786 C 0.18772 0.26181 0.03767 0.0
C1787 C 0.16719 0.24317 0.04508 0.0
C1788 C 0.17087 0.21696 0.03913 0.0
C1789 C 0.19389 0.20919 0.02584 0.0
C1790 C 0.19241 0.17991 0.02128 0.0
C1791 C 0.19343 0.17598 0.99386 0.0
C1792 C 0.21458 0.16458 0.03279 0.0
C1793 C 0.16522 0.17237 0.03441 0.0
C1794 C 0.15323 0.19397 0.04479 0.0
C1795 C 0.12866 0.19159 0.05894 0.0
C1796 C 0.11594 0.1665 0.06243 0.0
C1797 C 0.12757 0.14425 0.05147 0.0
C1798 C 0.15251 0.14735 0.03723 0.0
H1799 H 0.19852 0.81697 0.49798 0.0
H1800 H 0.18664 0.75995 0.44439 0.0
H1801 H 0.14736 0.78426 0.43306 0.0
H1802 H 0.12906 0.827 0.51713 0.0
H1803 H 0.13295 0.86213 0.5203 0.0
H1804 H 0.16023 0.84026 0.52461 0.0
H1805 H 0.19049 0.86848 0.4917 0.0
H1806 H 0.16339 0.89057 0.48749 0.0
H1807 H 0.17982 0.87485 0.46181 0.0
H1808 H 0.1097 0.81485 0.42687 0.0
H1809 H 0.07729 0.8509 0.42506 0.0
H1810 H 0.11276 0.88856 0.4826 0.0
C1811 C 0.18779 0.80972 0.48373 0.0
C1812 C 0.19568 0.7863 0.47226 0.0
C1813 C 0.18085 0.77748 0.4538 0.0
C1814 C 0.1585 0.79123 0.44715 0.0
C1815 C 0.15103 0.81391 0.45905 0.0
C1816 C 0.16527 0.82324 0.47685 0.0
C1817 C 0.15304 0.84839 0.48649 0.0
C1818 C 0.14324 0.84418 0.51375 0.0
C1819 C 0.17287 0.87197 0.48157 0.0
C1820 C 0.12986 0.85177 0.47121 0.0
C1821 C 0.12908 0.83157 0.45556 0.0
C1822 C 0.11004 0.8307 0.43913 0.0
C1823 C 0.09163 0.85126 0.43828 0.0
C1824 C 0.09222 0.87248 0.45383 0.0
C1825 C 0.11143 0.87242 0.47076 0.0
H1826 H 0.83187 0.69837 0.48054 0.0
H1827 H 0.88141 0.7481 0.51915 0.0
H1828 H 0.91943 0.71838 0.50997 0.0
H1829 H 0.85907 0.63557 0.49968 0.0
H1830 H 0.85645 0.62164 0.4708 0.0
H1831 H 0.83354 0.64659 0.48113 0.0
H1832 H 0.84668 0.67544 0.44105 0.0
H1833 H 0.86984 0.65068 0.43073 0.0
H1834 H 0.88115 0.68447 0.43241 0.0
H1835 H 0.95286 0.68315 0.49456 0.0
H1836 H 0.97664 0.64453 0.47759 0.0
H1837 H 0.90421 0.61902 0.4495 0.0
C1838 C 0.85071 0.70304 0.48711 0.0
C1839 C 0.85368 0.72564 0.5005 0.0
C1840 C 0.87859 0.73078 0.50904 0.0
C1841 C 0.90034 0.71412 0.50374 0.0
C1842 C 0.89682 0.69228 0.49002 0.0
C1843 C 0.87246 0.68664 0.48209 0.0
C1844 C 0.87351 0.662 0.46783 0.0
C1845 C 0.85452 0.64016 0.48063 0.0
C1846 C 0.86744 0.66855 0.44145 0.0
C1847 C 0.90229 0.6546 0.46882 0.0
C1848 C 0.9156 0.67226 0.48156 0.0
C1849 C 0.94253 0.6692 0.48463 0.0
C1850 C 0.95594 0.6473 0.47482 0.0
C1851 C 0.94235 0.62869 0.46222 0.0
C1852 C 0.91526 0.63277 0.45907 0.0
H1853 H 0.34716 0.81611 0.4936 0.0
H1854 H 0.37753 0.75512 0.54144 0.0
H1855 H 0.41262 0.78658 0.55086 0.0
H1856 H 0.41176 0.84568 0.46919 0.0
H1857 H 0.39915 0.87896 0.46805 0.0
H1858 H 0.37744 0.85119 0.46454 0.0
H1859 H 0.34466 0.86577 0.50028 0.0
H1860 H 0.36625 0.89351 0.50392 0.0
H1861 H 0.35657 0.87009 0.5294 0.0
H1862 H 0.44263 0.82596 0.55666 0.0
H1863 H 0.46526 0.86953 0.55812 0.0
H1864 H 0.41594 0.90376 0.50494 0.0
C1865 C 0.3616 0.8093 0.50564 0.0
C1866 C 0.36022 0.78316 0.51643 0.0
C1867 C 0.37873 0.77503 0.53275 0.0
C1868 C 0.39863 0.79273 0.53816 0.0
C1869 C 0.39965 0.8184 0.52703 0.0
C1870 C 0.38167 0.82659 0.51101 0.0
C1871 C 0.38645 0.85538 0.50201 0.0
C1872 C 0.39416 0.85794 0.4743 0.0
C1873 C 0.36203 0.87217 0.50935 0.0
C1874 C 0.40969 0.8623 0.51571 0.0
C1875 C 0.41707 0.84076 0.53005 0.0
C1876 C 0.43722 0.84286 0.54527 0.0
C1877 C 0.44995 0.86768 0.54599 0.0
C1878 C 0.44257 0.89 0.53149 0.0
C1879 C 0.42238 0.88703 0.51597 0.0
H1880 H 0.54056 0.73627 0.75744 0.0
H1881 H 0.49268 0.6937 0.81755 0.0
H1882 H 0.49317 0.65354 0.79431 0.0
H1883 H 0.51195 0.70528 0.70819 0.0
H1884 H 0.54337 0.70362 0.68968 0.0
H1885 H 0.53786 0.72957 0.71045 0.0
H1886 H 0.57983 0.71547 0.73082 0.0
H1887 H 0.58541 0.6894 0.71019 0.0
H1888 H 0.58253 0.68157 0.74264 0.0
H1889 H 0.49904 0.61783 0.76476 0.0
H1890 H 0.51151 0.58846 0.73142 0.0
H1891 H 0.55746 0.65319 0.69111 0.0
C1892 C 0.52997 0.71853 0.76548 0.0
C1893 C 0.5162 0.71816 0.78909 0.0
C1894 C 0.50297 0.69449 0.79933 0.0
C1895 C 0.5032 0.67157 0.7863 0.0
C1896 C 0.51705 0.67247 0.76312 0.0
C1897 C 0.53032 0.69526 0.75281 0.0
C1898 C 0.54468 0.69045 0.72804 0.0
C1899 C 0.53381 0.70829 0.7079 0.0
C1900 C 0.57491 0.69445 0.72793 0.0
C1901 C 0.53739 0.66145 0.72608 0.0
C1902 C 0.52126 0.65154 0.74643 0.0
C1903 C 0.51169 0.62535 0.74872 0.0
C1904 C 0.5188 0.60884 0.7297 0.0
C1905 C 0.53555 0.61847 0.70876 0.0
C1906 C 0.54492 0.64516 0.70704 0.0
H1907 H 0.50652 0.8371 0.75325 0.0
H1908 H 0.5502 0.89723 0.78603 0.0
H1909 H 0.55374 0.92511 0.74699 0.0
H1910 H 0.54436 0.84455 0.69336 0.0
H1911 H 0.51556 0.83848 0.67773 0.0
H1912 H 0.51749 0.82347 0.70793 0.0
H1913 H 0.47254 0.84441 0.72273 0.0
H1914 H 0.47048 0.85949 0.69262 0.0
H1915 H 0.46875 0.87983 0.71835 0.0
H1916 H 0.54896 0.94744 0.70488 0.0
H1917 H 0.53803 0.9615 0.6635 0.0
H1918 H 0.50075 0.88435 0.65835 0.0
C1919 C 0.51687 0.85614 0.75213 0.0
C1920 C 0.52786 0.86534 0.77246 0.0
C1921 C 0.54163 0.89007 0.77047 0.0
C1922 C 0.54371 0.90592 0.74846 0.0
C1923 C 0.53236 0.89634 0.7287 0.0
C1924 C 0.51949 0.87185 0.73034 0.0
C1925 C 0.5088 0.86596 0.70675 0.0
C1926 C 0.52238 0.84168 0.6958 0.0
C1927 C 0.47834 0.86222 0.71034 0.0
C1928 C 0.51702 0.89126 0.69164 0.0
C1929 C 0.53058 0.9086 0.70449 0.0
C1930 C 0.53873 0.93383 0.69453 0.0
C1931 C 0.53256 0.94158 0.67093 0.0
C1932 C 0.51846 0.92408 0.65758 0.0
C1933 C 0.51118 0.89843 0.66807 0.0
H1934 H 0.53046 0.35971 0.74197 0.0
H1935 H 0.45313 0.33016 0.77517 0.0
H1936 H 0.45042 0.36726 0.80188 0.0
H1937 H 0.55454 0.37133 0.79493 0.0
H1938 H 0.57377 0.40088 0.78421 0.0
H1939 H 0.56672 0.3768 0.76313 0.0
H1940 H 0.54543 0.41321 0.73656 0.0
H1941 H 0.55248 0.43753 0.75765 0.0
H1942 H 0.51898 0.43281 0.75016 0.0
H1943 H 0.4591 0.40112 0.82969 0.0
H1944 H 0.47976 0.42721 0.85873 0.0
H1945 H 0.5526 0.43458 0.80944 0.0
C1946 C 0.51276 0.36125 0.75461 0.0
C1947 C 0.49195 0.34206 0.75634 0.0
C1948 C 0.4691 0.34489 0.77306 0.0
C1949 C 0.46734 0.36596 0.78833 0.0
C1950 C 0.48856 0.38405 0.78667 0.0
C1951 C 0.51089 0.38192 0.77026 0.0
C1952 C 0.53265 0.40126 0.77482 0.0
C1953 C 0.55842 0.38669 0.77957 0.0
C1954 C 0.53767 0.42246 0.75353 0.0
C1955 C 0.5198 0.41311 0.79753 0.0
C1956 C 0.49399 0.40363 0.80344 0.0
C1957 C 0.47899 0.40931 0.82496 0.0
C1958 C 0.49094 0.42427 0.84134 0.0
C1959 C 0.51776 0.43317 0.83624 0.0
C1960 C 0.53202 0.42822 0.81369 0.0
H1961 H 0.50827 0.20794 0.78774 0.0
H1962 H 0.47443 0.15467 0.7403 0.0
H1963 H 0.46799 0.12002 0.77417 0.0
H1964 H 0.54475 0.15652 0.819 0.0
H1965 H 0.53978 0.17082 0.84814 0.0
H1966 H 0.54094 0.19189 0.82045 0.0
H1967 H 0.49482 0.21045 0.83484 0.0
H1968 H 0.49353 0.18947 0.86257 0.0
H1969 H 0.46707 0.18778 0.84325 0.0
H1970 H 0.46274 0.09196 0.81386 0.0
H1971 H 0.46277 0.07095 0.8555 0.0
H1972 H 0.50401 0.14012 0.8769 0.0
C1973 C 0.49938 0.189 0.78461 0.0
C1974 C 0.49095 0.18435 0.76157 0.0
C1975 C 0.48014 0.15903 0.75798 0.0
C1976 C 0.47659 0.13915 0.77709 0.0
C1977 C 0.48461 0.14448 0.79968 0.0
C1978 C 0.49617 0.16863 0.80347 0.0
C1979 C 0.50386 0.16875 0.82936 0.0
C1980 C 0.53413 0.1722 0.82922 0.0
C1981 C 0.48893 0.1904 0.84332 0.0
C1982 C 0.4945 0.14108 0.83958 0.0
C1983 C 0.48323 0.12755 0.82216 0.0
C1984 C 0.47186 0.10224 0.82753 0.0
C1985 C 0.47193 0.09045 0.85126 0.0
C1986 C 0.48373 0.10364 0.86939 0.0
C1987 C 0.49534 0.12927 0.86331 0.0
H1988 H 0.71393 0.51465 0.71375 0.0
H1989 H 0.77728 0.49881 0.65793 0.0
H1990 H 0.74481 0.49832 0.62728 0.0
H1991 H 0.66156 0.47449 0.69077 0.0
H1992 H 0.63619 0.49818 0.69865 0.0
H1993 H 0.6641 0.49455 0.71628 0.0
H1994 H 0.67493 0.54494 0.70848 0.0
H1995 H 0.64715 0.54871 0.6908 0.0
H1996 H 0.68 0.55926 0.67759 0.0
H1997 H 0.70519 0.50356 0.602 0.0
H1998 H 0.66261 0.51406 0.58506 0.0
H1999 H 0.62605 0.52569 0.65811 0.0
C2000 C 0.72073 0.51045 0.69518 0.0
C2001 C 0.74786 0.50628 0.68815 0.0
C2002 C 0.75638 0.50155 0.66361 0.0
C2003 C 0.73812 0.5013 0.64613 0.0
C2004 C 0.7114 0.50578 0.65354 0.0
C2005 C 0.70277 0.51012 0.67755 0.0
C2006 C 0.67341 0.51603 0.68064 0.0
C2007 C 0.6579 0.49453 0.69759 0.0
C2008 C 0.66861 0.54389 0.68991 0.0
C2009 C 0.66694 0.51481 0.65462 0.0
C2010 C 0.68895 0.50875 0.63916 0.0
C2011 C 0.68774 0.50799 0.61404 0.0
C2012 C 0.66349 0.51391 0.60454 0.0
C2013 C 0.6409 0.52059 0.62017 0.0
C2014 C 0.6428 0.52053 0.64554 0.0
H2015 H 0.29028 0.03036 0.64156 0.0
H2016 H 0.30592 0.9719 0.69907 0.0
H2017 H 0.34314 0.95486 0.67223 0.0
H2018 H 0.30716 0.99091 0.5904 0.0
H2019 H 0.32384 0.01748 0.57107 0.0
H2020 H 0.29753 0.02482 0.59414 0.0
H2021 H 0.32901 0.05685 0.61275 0.0
H2022 H 0.35527 0.04994 0.5895 0.0
H2023 H 0.36048 0.04502 0.62122 0.0
H2024 H 0.37691 0.94315 0.63976 0.0
H2025 H 0.41126 0.94102 0.60543 0.0
H2026 H 0.37823 1.00967 0.56856 0.0
C2027 C 0.30196 0.01436 0.64863 0.0
C2028 C 0.29548 1.0026 0.67258 0.0
C2029 C 0.31071 0.98124 0.68092 0.0
C2030 C 0.33174 0.97137 0.66575 0.0
C2031 C 0.33757 0.98327 0.64231 0.0
C2032 C 0.32359 1.00463 0.63384 0.0
C2033 C 0.33524 0.01448 0.60822 0.0
C2034 C 0.31471 0.01176 0.58987 0.0
C2035 C 0.34562 0.04328 0.60791 0.0
C2036 C 0.35797 0.99526 0.60368 0.0
C2037 C 0.35836 0.97721 0.62357 0.0
C2038 C 0.37701 0.95732 0.62421 0.0
C2039 C 0.3965 0.95635 0.6045 0.0
C2040 C 0.39778 0.97537 0.58431 0.0
C2041 C 0.37775 0.99476 0.58359 0.0
H2042 H 0.71491 0.52524 0.81448 0.0
H2043 H 0.77889 0.49503 0.85404 0.0
H2044 H 0.74785 0.48978 0.89196 0.0
H2045 H 0.67862 0.56011 0.86388 0.0
H2046 H 0.64657 0.55022 0.85563 0.0
H2047 H 0.6745 0.55473 0.83257 0.0
H2048 H 0.6675 0.50678 0.81984 0.0
H2049 H 0.63948 0.50225 0.84268 0.0
H2050 H 0.66662 0.4794 0.84256 0.0
H2051 H 0.70867 0.48578 0.92528 0.0
H2052 H 0.66453 0.47841 0.94922 0.0
H2053 H 0.62637 0.50904 0.88688 0.0
C2054 C 0.72243 0.51804 0.83127 0.0
C2055 C 0.74929 0.51088 0.83153 0.0
C2056 C 0.75836 0.50076 0.85361 0.0
C2057 C 0.74091 0.49788 0.87521 0.0
C2058 C 0.7144 0.50496 0.87436 0.0
C2059 C 0.70518 0.51459 0.85284 0.0
C2060 C 0.67536 0.51818 0.85608 0.0
C2061 C 0.66836 0.54756 0.85179 0.0
C2062 C 0.66143 0.5006 0.83931 0.0
C2063 C 0.66912 0.50869 0.88263 0.0
C2064 C 0.6919 0.50166 0.89309 0.0
C2065 C 0.69075 0.49142 0.91729 0.0
C2066 C 0.66565 0.48748 0.93083 0.0
C2067 C 0.64211 0.49331 0.91993 0.0
C2068 C 0.64407 0.50461 0.89574 0.0
H2069 H 0.2639 0.03233 0.83361 0.0
H2070 H 0.29553 0.95884 0.80708 0.0
H2071 H 0.31923 0.95199 0.84377 0.0
H2072 H 0.32083 0.05526 0.8511 0.0
H2073 H 0.30667 0.07071 0.87787 0.0
H2074 H 0.28692 0.06631 0.85327 0.0
H2075 H 0.25145 0.04077 0.88306 0.0
H2076 H 0.27106 0.04451 0.908 0.0
H2077 H 0.26035 0.01187 0.90107 0.0
H2078 H 0.34614 0.95772 0.87822 0.0
H2079 H 0.37514 0.97624 0.90624 0.0
H2080 H 0.32604 0.04605 0.91079 0.0
C2081 C 0.27538 0.01451 0.83581 0.0
C2082 C 0.27804 0.99615 0.81755 0.0
C2083 C 0.29307 0.973 0.82101 0.0
C2084 C 0.30651 0.96892 0.84182 0.0
C2085 C 0.30433 0.98798 0.85908 0.0
C2086 C 0.28891 1.01022 0.85638 0.0
C2087 C 0.29286 0.02961 0.8755 0.0
C2088 C 0.30241 0.05707 0.86372 0.0
C2089 C 0.26741 0.03178 0.89297 0.0
C2090 C 0.3143 0.01574 0.88827 0.0
C2091 C 0.32007 0.99137 0.87908 0.0
C2092 C 0.34129 0.97639 0.88607 0.0
C2093 C 0.35761 0.98705 0.90212 0.0
C2094 C 0.35274 0.01257 0.91077 0.0
C2095 C 0.33014 0.02646 0.90453 0.0
H2096 H 0.67069 0.73305 0.5186 0.0
H2097 H 0.74203 0.70596 0.54892 0.0
H2098 H 0.71776 0.66553 0.56736 0.0
H2099 H 0.62393 0.71014 0.56715 0.0
H2100 H 0.59915 0.69897 0.54874 0.0
H2101 H 0.62208 0.72547 0.53702 0.0
H2102 H 0.63725 0.69934 0.49937 0.0
H2103 H 0.61395 0.67299 0.51071 0.0
H2104 H 0.64866 0.66582 0.50372 0.0
H2105 H 0.68468 0.63052 0.58601 0.0
H2106 H 0.64703 0.59896 0.59793 0.0
H2107 H 0.59792 0.64543 0.55211 0.0
C2108 C 0.68144 0.71813 0.52834 0.0
C2109 C 0.70848 0.72243 0.53196 0.0
C2110 C 0.7215 0.70288 0.54566 0.0
C2111 C 0.7078 0.67996 0.55633 0.0
C2112 C 0.68109 0.67653 0.55283 0.0
C2113 C 0.66819 0.69469 0.53864 0.0
C2114 C 0.63947 0.68586 0.53754 0.0
C2115 C 0.62002 0.70633 0.54825 0.0
C2116 C 0.63455 0.68069 0.51127 0.0
C2117 C 0.63814 0.66017 0.55365 0.0
C2118 C 0.66232 0.65547 0.56259 0.0
C2119 C 0.66579 0.63381 0.57884 0.0
C2120 C 0.64426 0.61612 0.58569 0.0
C2121 C 0.61965 0.61987 0.57605 0.0
C2122 C 0.61654 0.64219 0.55979 0.0
H2123 H 0.71217 0.32398 0.99338 0.0
H2124 H 0.70522 0.27741 0.93093 0.0
H2125 H 0.66688 0.30405 0.92053 0.0
H2126 H 0.64104 0.33046 0.00994 0.0
H2127 H 0.64441 0.36388 0.01909 0.0
H2128 H 0.67114 0.34091 0.02171 0.0
H2129 H 0.70363 0.37405 0.9955 0.0
H2130 H 0.67703 0.3971 0.99285 0.0
H2131 H 0.69571 0.38627 0.9658 0.0
H2132 H 0.62982 0.33751 0.91599 0.0
H2133 H 0.5977 0.37426 0.91822 0.0
H2134 H 0.62781 0.39702 0.98471 0.0
C2135 C 0.70244 0.31904 0.9777 0.0
C2136 C 0.71204 0.29853 0.96295 0.0
C2137 C 0.69875 0.29325 0.94234 0.0
C2138 C 0.67673 0.30816 0.93637 0.0
C2139 C 0.66793 0.32827 0.95123 0.0
C2140 C 0.68033 0.33362 0.97155 0.0
C2141 C 0.66728 0.35651 0.98437 0.0
C2142 C 0.65525 0.34738 0.01032 0.0
C2143 C 0.68709 0.37986 0.98463 0.0
C2144 C 0.64574 0.36338 0.96802 0.0
C2145 C 0.64637 0.34692 0.94897 0.0
C2146 C 0.629 0.35032 0.931 0.0
C2147 C 0.61077 0.37124 0.93242 0.0
C2148 C 0.6099 0.38842 0.95176 0.0
C2149 C 0.62754 0.38406 0.96986 0.0
H2150 H 0.37397 0.249 0.96085 0.0
H2151 H 0.36199 0.23502 0.03977 0.0
H2152 H 0.39415 0.19894 0.03715 0.0
H2153 H 0.37143 0.18107 0.95021 0.0
H2154 H 0.39509 0.18405 0.92337 0.0
H2155 H 0.37495 0.21189 0.93165 0.0
H2156 H 0.41751 0.24102 0.93175 0.0
H2157 H 0.43781 0.21319 0.92356 0.0
H2158 H 0.44303 0.23019 0.9504 0.0
H2159 H 0.42593 0.1623 0.02581 0.0
H2160 H 0.45059 0.12565 1.00642 0.0
H2161 H 0.43616 0.15962 0.93519 0.0
C2162 C 0.37771 0.23847 0.97776 0.0
C2163 C 0.36507 0.24539 1.00058 0.0
C2164 C 0.3716 0.23099 0.02202 0.0
C2165 C 0.38982 0.21017 0.02074 0.0
C2166 C 0.40116 0.20358 0.9979 0.0
C2167 C 0.39506 0.21711 0.97678 0.0
C2168 C 0.40746 0.2043 0.95436 0.0
C2169 C 0.38595 0.19476 0.93901 0.0
C2170 C 0.42765 0.22331 0.93913 0.0
C2171 C 0.4212 0.18114 0.96616 0.0
C2172 C 0.41792 0.18146 0.9913 0.0
C2173 C 0.42866 0.16192 1.00617 0.0
C2174 C 0.44267 0.14129 0.99506 0.0
C2175 C 0.44525 0.14014 0.96945 0.0
C2176 C 0.43455 0.16034 0.95483 0.0
H2177 H 0.88496 0.3002 0.0099 0.0
H2178 H 0.83365 0.3361 0.95946 0.0
H2179 H 0.8593 0.37851 0.95822 0.0
H2180 H 0.8877 0.35662 0.04514 0.0
H2181 H 0.92165 0.35161 0.05133 0.0
H2182 H 0.90107 0.32364 0.04606 0.0
H2183 H 0.93604 0.31078 0.01127 0.0
H2184 H 0.95668 0.33883 0.01633 0.0
H2185 H 0.94644 0.33488 0.9865 0.0
H2186 H 0.88985 0.41681 0.96336 0.0
H2187 H 0.92021 0.44992 0.97705 0.0
H2188 H 0.94905 0.38984 0.02717 0.0
C2189 C 0.8791 0.31709 0.9987 0.0
C2190 C 0.85718 0.31527 0.98503 0.0
C2191 C 0.85028 0.33742 0.97019 0.0
C2192 C 0.86477 0.36142 0.96934 0.0
C2193 C 0.88592 0.36277 0.98354 0.0
C2194 C 0.89288 0.34128 0.99815 0.0
C2195 C 0.91504 0.34846 0.01307 0.0
C2196 C 0.90581 0.34488 0.04052 0.0
C2197 C 0.94003 0.33227 1.00638 0.0
C2198 C 0.91939 0.37747 1.00472 0.0
C2199 C 0.90273 0.38517 0.98735 0.0
C2200 C 0.90299 0.41103 0.97694 0.0
C2201 C 0.92038 0.42965 0.98481 0.0
C2202 C 0.93697 0.42244 1.00322 0.0
C2203 C 0.9366 0.39592 0.01309 0.0
loop_
_geom_bond_atom_site_label_1
_geom_bond_atom_site_label_2
_geom_bond_distance
_geom_bond_site_symmetry_2
_ccdc_geom_bond_type
C0 C1 1.443 . S
C0 N4 1.376 . S
C0 C38 1.389 . S
C1 C0 1.443 . S
C1 C2 1.340 . S
C1 H41 0.951 . S
C2 C1 1.340 . S
C2 C3 1.439 . S
C2 H42 0.950 . S
C3 C2 1.439 . S
C3 N4 1.374 . S
C3 C37 1.395 . S
N4 C0 1.376 . S
N4 C3 1.374 . S
N4 Co5 2.008 1_655 S
Co5 N4 2.008 1_455 S
Co5 N6 1.995 1_455 S
Co5 N11 2.008 . S
Co5 N16 1.995 . S
Co5 N21 2.282 . S
Co5 N27 2.282 . S
N6 Co5 1.995 1_655 S
N6 C7 1.376 . S
N6 C10 1.383 . S
C7 N6 1.376 . S
C7 C8 1.446 . S
C7 C37 1.391 . S
C8 C7 1.446 . S
C8 C9 1.339 . S
C8 H43 0.949 . S
C9 C8 1.339 . S
C9 C10 1.439 . S
C9 H44 0.950 . S
C10 N6 1.383 . S
C10 C9 1.439 . S
C10 C39 1.392 1_655 S
N11 Co5 2.008 . S
N11 C12 1.376 . S
N11 C15 1.374 . S
C12 N11 1.376 . S
C12 C13 1.443 . S
C12 C39 1.389 . S
C13 C12 1.443 . S
C13 C14 1.340 . S
C13 H45 0.951 . S
C14 C13 1.340 . S
C14 C15 1.439 . S
C14 H46 0.950 . S
C15 N11 1.374 . S
C15 C14 1.439 . S
C15 C40 1.395 . S
N16 Co5 1.995 . S
N16 C17 1.376 . S
N16 C20 1.383 . S
C17 N16 1.376 . S
C17 C18 1.446 . S
C17 C40 1.391 . S
C18 C17 1.446 . S
C18 C19 1.339 . S
C18 H47 0.949 . S
C19 C18 1.339 . S
C19 C20 1.439 . S
C19 H48 0.950 . S
C20 N16 1.383 . S
C20 C19 1.439 . S
C20 C38 1.392 1_455 S
N21 Co5 2.282 . S
N21 C24 1.332 . S
N21 C26 1.332 1_455 S
C22 C23 1.386 . S
C22 C25 1.388 1_455 S
C23 C22 1.386 . S
C23 C24 1.382 . S
C23 H49 0.950 . S
C24 N21 1.332 . S
C24 C23 1.382 . S
C24 H35 0.952 . S
C25 C22 1.388 1_655 S
C25 C26 1.382 . S
C25 H50 0.950 . S
C26 N21 1.332 1_655 S
C26 C25 1.382 . S
C26 H36 0.948 . S
N27 Co5 2.282 . S
N27 C31 1.332 1_455 S
N27 C32 1.332 . S
C28 C29 1.388 1_455 S
C28 C32 1.382 . S
C28 H51 0.950 . S
C29 C28 1.388 1_655 S
C29 C30 1.386 . S
C30 C29 1.386 . S
C30 C31 1.382 . S
C30 H52 0.950 . S
C31 N27 1.332 1_655 S
C31 C30 1.382 . S
C31 H33 0.952 . S
C32 N27 1.332 . S
C32 C28 1.382 . S
C32 H34 0.948 . S
H33 C31 0.952 . S
H34 C32 0.948 . S
H35 C24 0.952 . S
H36 C26 0.948 . S
C37 C3 1.395 . S
C37 C7 1.391 . S
C38 C0 1.389 . S
C38 C20 1.392 1_655 S
C39 C10 1.392 1_455 S
C39 C12 1.389 . S
C40 C15 1.395 . S
C40 C17 1.391 . S
H41 C1 0.951 . S
H42 C2 0.950 . S
H43 C8 0.949 . S
H44 C9 0.950 . S
H45 C13 0.951 . S
H46 C14 0.950 . S
H47 C18 0.949 . S
H48 C19 0.950 . S
H49 C23 0.950 . S
H50 C25 0.950 . S
H51 C28 0.950 . S
H52 C30 0.950 . S
C53 C54 1.443 . S
C53 N57 1.376 . S
C53 C91 1.394 . S
C54 C53 1.443 . S
C54 C55 1.340 . S
C54 H94 0.951 . S
C55 C54 1.340 . S
C55 C56 1.439 . S
C55 H95 0.950 . S
C56 C55 1.439 . S
C56 N57 1.374 . S
C56 C90 1.395 . S
N57 C53 1.376 . S
N57 C56 1.374 . S
N57 Co58 2.008 1_655 S
Co58 N57 2.008 1_455 S
Co58 N59 1.995 1_455 S
Co58 N64 2.008 . S
Co58 N69 1.995 . S
Co58 N74 2.282 . S
Co58 N80 2.282 . S
N59 Co58 1.995 1_655 S
N59 C60 1.376 . S
N59 C63 1.383 . S
C60 N59 1.376 . S
C60 C61 1.446 . S
C60 C90 1.391 . S
C61 C60 1.446 . S
C61 C62 1.339 . S
C61 H96 0.949 . S
C62 C61 1.339 . S
C62 C63 1.439 . S
C62 H97 0.950 . S
C63 N59 1.383 . S
C63 C62 1.439 . S
C63 C92 1.392 1_655 S
N64 Co58 2.008 . S
N64 C65 1.376 . S
N64 C68 1.374 . S
C65 N64 1.376 . S
C65 C66 1.443 . S
C65 C92 1.389 . S
C66 C65 1.443 . S
C66 C67 1.340 . S
C66 H98 0.951 . S
C67 C66 1.340 . S
C67 C68 1.439 . S
C67 H99 0.950 . S
C68 N64 1.374 . S
C68 C67 1.439 . S
C68 C93 1.395 . S
N69 Co58 1.995 . S
N69 C70 1.376 . S
N69 C73 1.383 . S
C70 N69 1.376 . S
C70 C71 1.446 . S
C70 C93 1.391 . S
C71 C70 1.446 . S
C71 C72 1.339 . S
C71 H100 0.949 . S
C72 C71 1.339 . S
C72 C73 1.439 . S
C72 H101 0.950 . S
C73 N69 1.383 . S
C73 C72 1.439 . S
C73 C91 1.386 1_455 S
N74 Co58 2.282 . S
N74 C77 1.332 . S
N74 C79 1.303 1_455 S
C75 C76 1.386 . S
C75 C78 1.388 . S
C76 C75 1.386 . S
C76 C77 1.382 . S
C76 H102 0.950 . S
C77 N74 1.332 . S
C77 C76 1.382 . S
C77 H88 0.952 . S
C78 C75 1.388 . S
C78 C79 1.377 1_455 S
C78 H103 0.950 1_455 S
C79 N74 1.303 1_655 S
C79 C78 1.377 1_655 S
C79 H89 0.986 . S
N80 Co58 2.282 . S
N80 C84 1.332 1_455 S
N80 C85 1.332 . S
C81 C82 1.388 1_455 S
C81 C85 1.382 . S
C81 H104 0.950 . S
C82 C81 1.388 1_655 S
C82 C83 1.386 . S
C83 C82 1.386 . S
C83 C84 1.382 . S
C83 H105 0.950 . S
C84 N80 1.332 1_655 S
C84 C83 1.382 . S
C84 H86 0.952 . S
C85 N80 1.332 . S
C85 C81 1.382 . S
C85 H87 0.948 . S
H86 C84 0.952 . S
H87 C85 0.948 . S
H88 C77 0.952 . S
H89 C79 0.986 . S
C90 C56 1.395 . S
C90 C60 1.391 . S
C91 C53 1.394 . S
C91 C73 1.386 1_655 S
C92 C63 1.392 1_455 S
C92 C65 1.389 . S
C93 C68 1.395 . S
C93 C70 1.391 . S
H94 C54 0.951 . S
H95 C55 0.950 . S
H96 C61 0.949 . S
H97 C62 0.950 . S
H98 C66 0.951 . S
H99 C67 0.950 . S
H100 C71 0.949 . S
H101 C72 0.950 . S
H102 C76 0.950 . S
H103 C78 0.950 1_655 S
H104 C81 0.950 . S
H105 C83 0.950 . S
C106 C107 1.443 . S
C106 N110 1.376 . S
C106 C144 1.406 . S
C107 C106 1.443 . S
C107 C108 1.340 . S
C107 H147 0.951 . S
C108 C107 1.340 . S
C108 C109 1.439 . S
C108 H148 0.950 . S
C109 C108 1.439 . S
C109 N110 1.374 . S
C109 C143 1.395 . S
N110 C106 1.376 . S
N110 C109 1.374 . S
N110 Co111 2.008 1_565 S
Co111 N110 2.008 1_545 S
Co111 N112 1.995 1_545 S
Co111 N117 2.008 . S
Co111 N122 1.995 . S
Co111 N127 2.282 . S
Co111 N133 2.282 . S
N112 Co111 1.995 1_565 S
N112 C113 1.376 . S
N112 C116 1.383 . S
C113 N112 1.376 . S
C113 C114 1.446 . S
C113 C143 1.391 . S
C114 C113 1.446 . S
C114 C115 1.339 . S
C114 H149 0.949 . S
C115 C114 1.339 . S
C115 C116 1.439 . S
C115 H150 0.950 . S
C116 N112 1.383 . S
C116 C115 1.439 . S
C116 C145 1.392 1_565 S
N117 Co111 2.008 . S
N117 C118 1.376 . S
N117 C121 1.374 . S
C118 N117 1.376 . S
C118 C119 1.443 . S
C118 C145 1.389 . S
C119 C118 1.443 . S
C119 C120 1.340 . S
C119 H151 0.951 . S
C120 C119 1.340 . S
C120 C121 1.439 . S
C120 H152 0.950 . S
C121 N117 1.374 . S
C121 C120 1.439 . S
C121 C146 1.395 . S
N122 Co111 1.995 . S
N122 C123 1.376 . S
N122 C126 1.383 . S
C123 N122 1.376 . S
C123 C124 1.446 . S
C123 C146 1.391 . S
C124 C123 1.446 . S
C124 C125 1.339 . S
C124 H153 0.949 . S
C125 C124 1.339 . S
C125 C126 1.439 . S
C125 H154 0.950 . S
C126 N122 1.383 . S
C126 C125 1.439 . S
C126 C144 1.372 1_545 S
N127 Co111 2.282 . S
N127 C130 1.332 . S
N127 C132 1.363 . S
C128 C129 1.386 . S
C128 C131 1.388 . S
C129 C128 1.386 . S
C129 C130 1.382 . S
C129 H155 0.950 . S
C130 N127 1.332 . S
C130 C129 1.382 . S
C130 H141 0.952 . S
C131 C128 1.388 . S
C131 C132 1.390 . S
C131 H156 0.950 1_545 S
C132 N127 1.363 . S
C132 C131 1.390 . S
C132 H142 0.909 1_545 S
N133 Co111 2.282 . S
N133 C137 1.332 1_545 S
N133 C138 1.332 . S
C134 C135 1.388 1_545 S
C134 C138 1.382 . S
C134 H157 0.950 . S
C135 C134 1.388 1_565 S
C135 C136 1.386 . S
C136 C135 1.386 . S
C136 C137 1.382 . S
C136 H158 0.950 . S
C137 N133 1.332 1_565 S
C137 C136 1.382 . S
C137 H139 0.952 . S
C138 N133 1.332 . S
C138 C134 1.382 . S
C138 H140 0.948 . S
H139 C137 0.952 . S
H140 C138 0.948 . S
H141 C130 0.952 . S
H142 C132 0.909 1_565 S
C143 C109 1.395 . S
C143 C113 1.391 . S
C144 C106 1.406 . S
C144 C126 1.372 1_565 S
C145 C116 1.392 1_545 S
C145 C118 1.389 . S
C146 C121 1.395 . S
C146 C123 1.391 . S
H147 C107 0.951 . S
H148 C108 0.950 . S
H149 C114 0.949 . S
H150 C115 0.950 . S
H151 C119 0.951 . S
H152 C120 0.950 . S
H153 C124 0.949 . S
H154 C125 0.950 . S
H155 C129 0.950 . S
H156 C131 0.950 1_565 S
H157 C134 0.950 . S
H158 C136 0.950 . S
C159 C160 1.443 . S
C159 N163 1.376 . S
C159 C197 1.389 . S
C160 C159 1.443 . S
C160 C161 1.340 . S
C160 H200 0.951 . S
C161 C160 1.340 . S
C161 C162 1.439 . S
C161 H201 0.950 . S
C162 C161 1.439 . S
C162 N163 1.374 . S
C162 C196 1.395 . S
N163 C159 1.376 . S
N163 C162 1.374 . S
N163 Co164 2.008 . S
Co164 N163 2.008 . S
Co164 N165 1.995 . S
Co164 N170 2.008 . S
Co164 N175 1.995 . S
Co164 N180 2.282 . S
Co164 N186 2.282 . S
N165 Co164 1.995 . S
N165 C166 1.376 . S
N165 C169 1.383 . S
C166 N165 1.376 . S
C166 C167 1.446 . S
C166 C196 1.391 . S
C167 C166 1.446 . S
C167 C168 1.339 . S
C167 H202 0.949 . S
C168 C167 1.339 . S
C168 C169 1.439 . S
C168 H203 0.950 . S
C169 N165 1.383 . S
C169 C168 1.439 . S
C169 C198 1.392 . S
N170 Co164 2.008 . S
N170 C171 1.376 . S
N170 C174 1.374 . S
C171 N170 1.376 . S
C171 C172 1.443 . S
C171 C198 1.389 . S
C172 C171 1.443 . S
C172 C173 1.340 . S
C172 H204 0.951 . S
C173 C172 1.340 . S
C173 C174 1.439 . S
C173 H205 0.950 . S
C174 N170 1.374 . S
C174 C173 1.439 . S
C174 C199 1.395 . S
N175 Co164 1.995 . S
N175 C176 1.376 . S
N175 C179 1.383 . S
C176 N175 1.376 . S
C176 C177 1.446 . S
C176 C199 1.391 . S
C177 C176 1.446 . S
C177 C178 1.339 . S
C177 H206 0.949 . S
C178 C177 1.339 . S
C178 C179 1.439 . S
C178 H207 0.950 . S
C179 N175 1.383 . S
C179 C178 1.439 . S
C179 C197 1.392 . S
N180 Co164 2.282 . S
N180 C183 1.332 . S
N180 C185 1.332 . S
C181 C182 1.386 . S
C181 C184 1.388 . S
C182 C181 1.386 . S
C182 C183 1.382 . S
C182 H208 0.950 . S
C183 N180 1.332 . S
C183 C182 1.382 . S
C183 H194 0.952 . S
C184 C181 1.388 . S
C184 C185 1.382 . S
C184 H209 0.950 . S
C185 N180 1.332 . S
C185 C184 1.382 . S
C185 H195 0.948 . S
N186 Co164 2.282 . S
N186 C190 1.332 . S
N186 C191 1.332 . S
C187 C188 1.388 . S
C187 C191 1.382 . S
C187 H210 0.950 . S
C188 C187 1.388 . S
C188 C189 1.386 . S
C189 C188 1.386 . S
C189 C190 1.382 . S
C189 H211 0.950 . S
C190 N186 1.332 . S
C190 C189 1.382 . S
C190 H192 0.952 . S
C191 N186 1.332 . S
C191 C187 1.382 . S
C191 H193 0.948 . S
H192 C190 0.952 . S
H193 C191 0.948 . S
H194 C183 0.952 . S
H195 C185 0.948 . S
C196 C162 1.395 . S
C196 C166 1.391 . S
C197 C159 1.389 . S
C197 C179 1.392 . S
C198 C169 1.392 . S
C198 C171 1.389 . S
C199 C174 1.395 . S
C199 C176 1.391 . S
H200 C160 0.951 . S
H201 C161 0.950 . S
H202 C167 0.949 . S
H203 C168 0.950 . S
H204 C172 0.951 . S
H205 C173 0.950 . S
H206 C177 0.949 . S
H207 C178 0.950 . S
H208 C182 0.950 . S
H209 C184 0.950 . S
H210 C187 0.950 . S
H211 C189 0.950 . S
C212 C213 1.443 . S
C212 N216 1.376 . S
C212 C250 1.389 . S
C213 C212 1.443 . S
C213 C214 1.340 . S
C213 H253 0.951 . S
C214 C213 1.340 . S
C214 C215 1.439 . S
C214 H254 0.950 . S
C215 C214 1.439 . S
C215 N216 1.374 . S
C215 C249 1.395 . S
N216 C212 1.376 . S
N216 C215 1.374 . S
N216 Co217 2.008 1_556 S
Co217 N216 2.008 1_554 S
Co217 N218 1.995 1_554 S
Co217 N223 2.008 . S
Co217 N228 1.995 . S
Co217 N233 2.282 . S
Co217 N239 2.282 1_554 S
N218 Co217 1.995 1_556 S
N218 C219 1.376 . S
N218 C222 1.383 . S
C219 N218 1.376 . S
C219 C220 1.446 . S
C219 C249 1.391 . S
C220 C219 1.446 . S
C220 C221 1.339 . S
C220 H255 0.949 . S
C221 C220 1.339 . S
C221 C222 1.439 . S
C221 H256 0.950 . S
C222 N218 1.383 . S
C222 C221 1.439 . S
C222 C251 1.392 1_556 S
N223 Co217 2.008 . S
N223 C224 1.376 . S
N223 C227 1.374 . S
C224 N223 1.376 . S
C224 C225 1.443 . S
C224 C251 1.389 . S
C225 C224 1.443 . S
C225 C226 1.340 . S
C225 H257 0.951 . S
C226 C225 1.340 . S
C226 C227 1.439 . S
C226 H258 0.950 . S
C227 N223 1.374 . S
C227 C226 1.439 . S
C227 C252 1.395 . S
N228 Co217 1.995 . S
N228 C229 1.376 . S
N228 C232 1.383 . S
C229 N228 1.376 . S
C229 C230 1.446 . S
C229 C252 1.391 . S
C230 C229 1.446 . S
C230 C231 1.339 . S
C230 H259 0.949 . S
C231 C230 1.339 . S
C231 C232 1.439 . S
C231 H260 0.950 . S
C232 N228 1.383 . S
C232 C231 1.439 . S
C232 C250 1.392 1_554 S
N233 Co217 2.282 . S
N233 C236 1.332 . S
N233 C238 1.332 1_554 S
C234 C235 1.386 . S
C234 C237 1.388 1_554 S
C235 C234 1.386 . S
C235 C236 1.382 . S
C235 H261 0.950 . S
C236 N233 1.332 . S
C236 C235 1.382 . S
C236 H247 0.952 . S
C237 C234 1.388 1_556 S
C237 C238 1.382 . S
C237 H262 0.950 . S
C238 N233 1.332 1_556 S
C238 C237 1.382 . S
C238 H248 0.948 . S
N239 Co217 2.282 1_556 S
N239 C243 1.332 . S
N239 C244 1.332 1_556 S
C240 C241 1.388 1_554 S
C240 C244 1.382 . S
C240 H263 0.950 . S
C241 C240 1.388 1_556 S
C241 C242 1.386 . S
C242 C241 1.386 . S
C242 C243 1.382 . S
C242 H264 0.950 . S
C243 N239 1.332 . S
C243 C242 1.382 . S
C243 H245 0.952 . S
C244 N239 1.332 1_554 S
C244 C240 1.382 . S
C244 H246 0.948 . S
H245 C243 0.952 . S
H246 C244 0.948 . S
H247 C236 0.952 . S
H248 C238 0.948 . S
C249 C215 1.395 . S
C249 C219 1.391 . S
C250 C212 1.389 . S
C250 C232 1.392 1_556 S
C251 C222 1.392 1_554 S
C251 C224 1.389 . S
C252 C227 1.395 . S
C252 C229 1.391 . S
H253 C213 0.951 . S
H254 C214 0.950 . S
H255 C220 0.949 . S
H256 C221 0.950 . S
H257 C225 0.951 . S
H258 C226 0.950 . S
H259 C230 0.949 . S
H260 C231 0.950 . S
H261 C235 0.950 . S
H262 C237 0.950 . S
H263 C240 0.950 . S
H264 C242 0.950 . S
C265 C266 1.443 . S
C265 N269 1.376 . S
C265 C303 1.389 . S
C266 C265 1.443 . S
C266 C267 1.340 . S
C266 H306 0.951 . S
C267 C266 1.340 . S
C267 C268 1.439 . S
C267 H307 0.950 . S
C268 C267 1.439 . S
C268 N269 1.374 . S
C268 C302 1.395 . S
N269 C265 1.376 . S
N269 C268 1.374 . S
N269 Co270 2.008 . S
Co270 N269 2.008 . S
Co270 N271 1.995 . S
Co270 N276 2.008 . S
Co270 N281 1.995 . S
Co270 N286 2.282 . S
Co270 N292 2.282 . S
N271 Co270 1.995 . S
N271 C272 1.376 . S
N271 C275 1.383 . S
C272 N271 1.376 . S
C272 C273 1.446 . S
C272 C302 1.391 . S
C273 C272 1.446 . S
C273 C274 1.339 . S
C273 H308 0.949 . S
C274 C273 1.339 . S
C274 C275 1.439 . S
C274 H309 0.950 . S
C275 N271 1.383 . S
C275 C274 1.439 . S
C275 C304 1.392 . S
N276 Co270 2.008 . S
N276 C277 1.376 . S
N276 C280 1.374 . S
C277 N276 1.376 . S
C277 C278 1.443 . S
C277 C304 1.389 . S
C278 C277 1.443 . S
C278 C279 1.340 . S
C278 H310 0.951 . S
C279 C278 1.340 . S
C279 C280 1.439 . S
C279 H311 0.950 . S
C280 N276 1.374 . S
C280 C279 1.439 . S
C280 C305 1.395 . S
N281 Co270 1.995 . S
N281 C282 1.376 . S
N281 C285 1.383 . S
C282 N281 1.376 . S
C282 C283 1.446 . S
C282 C305 1.391 . S
C283 C282 1.446 . S
C283 C284 1.339 . S
C283 H312 0.949 . S
C284 C283 1.339 . S
C284 C285 1.439 . S
C284 H313 0.950 . S
C285 N281 1.383 . S
C285 C284 1.439 . S
C285 C303 1.392 . S
N286 Co270 2.282 . S
N286 C289 1.332 . S
N286 C291 1.332 . S
C287 C288 1.386 . S
C287 C290 1.388 . S
C288 C287 1.386 . S
C288 C289 1.382 . S
C288 H314 0.950 . S
C289 N286 1.332 . S
C289 C288 1.382 . S
C289 H300 0.952 . S
C290 C287 1.388 . S
C290 C291 1.382 . S
C290 H315 0.950 . S
C291 N286 1.332 . S
C291 C290 1.382 . S
C291 H301 0.948 . S
N292 Co270 2.282 . S
N292 C296 1.332 . S
N292 C297 1.332 . S
C293 C294 1.388 . S
C293 C297 1.382 . S
C293 H316 0.950 . S
C294 C293 1.388 . S
C294 C295 1.386 . S
C295 C294 1.386 . S
C295 C296 1.382 . S
C295 H317 0.950 . S
C296 N292 1.332 . S
C296 C295 1.382 . S
C296 H298 0.952 . S
C297 N292 1.332 . S
C297 C293 1.382 . S
C297 H299 0.948 . S
H298 C296 0.952 . S
H299 C297 0.948 . S
H300 C289 0.952 . S
H301 C291 0.948 . S
C302 C268 1.395 . S
C302 C272 1.391 . S
C303 C265 1.389 . S
C303 C285 1.392 . S
C304 C275 1.392 . S
C304 C277 1.389 . S
C305 C280 1.395 . S
C305 C282 1.391 . S
H306 C266 0.951 . S
H307 C267 0.950 . S
H308 C273 0.949 . S
H309 C274 0.950 . S
H310 C278 0.951 . S
H311 C279 0.950 . S
H312 C283 0.949 . S
H313 C284 0.950 . S
H314 C288 0.950 . S
H315 C290 0.950 . S
H316 C293 0.950 . S
H317 C295 0.950 . S
C318 C319 1.443 . S
C318 N322 1.376 . S
C318 C356 1.389 . S
C319 C318 1.443 . S
C319 C320 1.340 . S
C319 H359 0.951 . S
C320 C319 1.340 . S
C320 C321 1.439 . S
C320 H360 0.950 . S
C321 C320 1.439 . S
C321 N322 1.374 . S
C321 C355 1.395 . S
N322 C318 1.376 . S
N322 C321 1.374 . S
N322 Co323 2.008 . S
Co323 N322 2.008 . S
Co323 N324 1.995 . S
Co323 N329 2.008 . S
Co323 N334 1.995 . S
Co323 N339 2.282 . S
Co323 N345 2.282 . S
N324 Co323 1.995 . S
N324 C325 1.376 . S
N324 C328 1.383 . S
C325 N324 1.376 . S
C325 C326 1.446 . S
C325 C355 1.391 . S
C326 C325 1.446 . S
C326 C327 1.339 . S
C326 H361 0.949 . S
C327 C326 1.339 . S
C327 C328 1.439 . S
C327 H362 0.950 . S
C328 N324 1.383 . S
C328 C327 1.439 . S
C328 C357 1.392 . S
N329 Co323 2.008 . S
N329 C330 1.376 . S
N329 C333 1.374 . S
C330 N329 1.376 . S
C330 C331 1.443 . S
C330 C357 1.389 . S
C331 C330 1.443 . S
C331 C332 1.340 . S
C331 H363 0.951 . S
C332 C331 1.340 . S
C332 C333 1.439 . S
C332 H364 0.950 . S
C333 N329 1.374 . S
C333 C332 1.439 . S
C333 C358 1.395 . S
N334 Co323 1.995 . S
N334 C335 1.376 . S
N334 C338 1.383 . S
C335 N334 1.376 . S
C335 C336 1.446 . S
C335 C358 1.391 . S
C336 C335 1.446 . S
C336 C337 1.339 . S
C336 H365 0.949 . S
C337 C336 1.339 . S
C337 C338 1.439 . S
C337 H366 0.950 . S
C338 N334 1.383 . S
C338 C337 1.439 . S
C338 C356 1.392 . S
N339 Co323 2.282 . S
N339 C342 1.332 . S
N339 C344 1.332 . S
C340 C341 1.386 . S
C340 C343 1.388 . S
C341 C340 1.386 . S
C341 C342 1.382 . S
C341 H367 0.950 . S
C342 N339 1.332 . S
C342 C341 1.382 . S
C342 H353 0.952 . S
C343 C340 1.388 . S
C343 C344 1.382 . S
C343 H368 0.950 . S
C344 N339 1.332 . S
C344 C343 1.382 . S
C344 H354 0.948 . S
N345 Co323 2.282 . S
N345 C349 1.332 . S
N345 C350 1.332 . S
C346 C347 1.388 . S
C346 C350 1.382 . S
C346 H369 0.950 . S
C347 C346 1.388 . S
C347 C348 1.386 . S
C348 C347 1.386 . S
C348 C349 1.382 . S
C348 H370 0.950 . S
C349 N345 1.332 . S
C349 C348 1.382 . S
C349 H351 0.952 . S
C350 N345 1.332 . S
C350 C346 1.382 . S
C350 H352 0.948 . S
H351 C349 0.952 . S
H352 C350 0.948 . S
H353 C342 0.952 . S
H354 C344 0.948 . S
C355 C321 1.395 . S
C355 C325 1.391 . S
C356 C318 1.389 . S
C356 C338 1.392 . S
C357 C328 1.392 . S
C357 C330 1.389 . S
C358 C333 1.395 . S
C358 C335 1.391 . S
H359 C319 0.951 . S
H360 C320 0.950 . S
H361 C326 0.949 . S
H362 C327 0.950 . S
H363 C331 0.951 . S
H364 C332 0.950 . S
H365 C336 0.949 . S
H366 C337 0.950 . S
H367 C341 0.950 . S
H368 C343 0.950 . S
H369 C346 0.950 . S
H370 C348 0.950 . S
C371 C372 1.443 . S
C371 N375 1.376 . S
C371 C409 1.389 . S
C372 C371 1.443 . S
C372 C373 1.340 . S
C372 H412 0.951 . S
C373 C372 1.340 . S
C373 C374 1.439 . S
C373 H413 0.950 . S
C374 C373 1.439 . S
C374 N375 1.374 . S
C374 C408 1.395 . S
N375 C371 1.376 . S
N375 C374 1.374 . S
N375 Co376 2.008 . S
Co376 N375 2.008 . S
Co376 N377 1.995 . S
Co376 N382 2.008 . S
Co376 N387 1.995 . S
Co376 N392 2.282 . S
Co376 N398 2.282 . S
N377 Co376 1.995 . S
N377 C378 1.376 . S
N377 C381 1.383 . S
C378 N377 1.376 . S
C378 C379 1.446 . S
C378 C408 1.391 . S
C379 C378 1.446 . S
C379 C380 1.339 . S
C379 H414 0.949 . S
C380 C379 1.339 . S
C380 C381 1.439 . S
C380 H415 0.950 . S
C381 N377 1.383 . S
C381 C380 1.439 . S
C381 C410 1.392 . S
N382 Co376 2.008 . S
N382 C383 1.376 . S
N382 C386 1.374 . S
C383 N382 1.376 . S
C383 C384 1.443 . S
C383 C410 1.389 . S
C384 C383 1.443 . S
C384 C385 1.340 . S
C384 H416 0.951 . S
C385 C384 1.340 . S
C385 C386 1.439 . S
C385 H417 0.950 . S
C386 N382 1.374 . S
C386 C385 1.439 . S
C386 C411 1.395 . S
N387 Co376 1.995 . S
N387 C388 1.376 . S
N387 C391 1.383 . S
C388 N387 1.376 . S
C388 C389 1.446 . S
C388 C411 1.391 . S
C389 C388 1.446 . S
C389 C390 1.339 . S
C389 H418 0.949 . S
C390 C389 1.339 . S
C390 C391 1.439 . S
C390 H419 0.950 . S
C391 N387 1.383 . S
C391 C390 1.439 . S
C391 C409 1.392 . S
N392 Co376 2.282 . S
N392 C395 1.332 . S
N392 C397 1.332 . S
C393 C394 1.386 . S
C393 C396 1.388 . S
C394 C393 1.386 . S
C394 C395 1.382 . S
C394 H420 0.950 . S
C395 N392 1.332 . S
C395 C394 1.382 . S
C395 H406 0.952 . S
C396 C393 1.388 . S
C396 C397 1.382 . S
C396 H421 0.950 . S
C397 N392 1.332 . S
C397 C396 1.382 . S
C397 H407 0.948 . S
N398 Co376 2.282 . S
N398 C402 1.332 . S
N398 C403 1.332 . S
C399 C400 1.388 . S
C399 C403 1.382 . S
C399 H422 0.950 . S
C400 C399 1.388 . S
C400 C401 1.386 . S
C401 C400 1.386 . S
C401 C402 1.382 . S
C401 H423 0.950 . S
C402 N398 1.332 . S
C402 C401 1.382 . S
C402 H404 0.952 . S
C403 N398 1.332 . S
C403 C399 1.382 . S
C403 H405 0.948 . S
H404 C402 0.952 . S
H405 C403 0.948 . S
H406 C395 0.952 . S
H407 C397 0.948 . S
C408 C374 1.395 . S
C408 C378 1.391 . S
C409 C371 1.389 . S
C409 C391 1.392 . S
C410 C381 1.392 . S
C410 C383 1.389 . S
C411 C386 1.395 . S
C411 C388 1.391 . S
H412 C372 0.951 . S
H413 C373 0.950 . S
H414 C379 0.949 . S
H415 C380 0.950 . S
H416 C384 0.951 . S
H417 C385 0.950 . S
H418 C389 0.949 . S
H419 C390 0.950 . S
H420 C394 0.950 . S
H421 C396 0.950 . S
H422 C399 0.950 . S
H423 C401 0.950 . S
C424 C425 1.443 . S
C424 N428 1.376 . S
C424 C462 1.389 . S
C425 C424 1.443 . S
C425 C426 1.340 . S
C425 H465 0.951 . S
C426 C425 1.340 . S
C426 C427 1.439 . S
C426 H466 0.950 . S
C427 C426 1.439 . S
C427 N428 1.374 . S
C427 C461 1.395 . S
N428 C424 1.376 . S
N428 C427 1.374 . S
N428 Co429 2.008 . S
Co429 N428 2.008 . S
Co429 N430 1.995 . S
Co429 N435 2.008 . S
Co429 N440 1.995 . S
Co429 N445 2.282 . S
Co429 N451 2.282 . S
N430 Co429 1.995 . S
N430 C431 1.376 . S
N430 C434 1.383 . S
C431 N430 1.376 . S
C431 C432 1.446 . S
C431 C461 1.391 . S
C432 C431 1.446 . S
C432 C433 1.339 . S
C432 H467 0.949 . S
C433 C432 1.339 . S
C433 C434 1.439 . S
C433 H468 0.950 . S
C434 N430 1.383 . S
C434 C433 1.439 . S
C434 C463 1.392 . S
N435 Co429 2.008 . S
N435 C436 1.376 . S
N435 C439 1.374 . S
C436 N435 1.376 . S
C436 C437 1.443 . S
C436 C463 1.389 . S
C437 C436 1.443 . S
C437 C438 1.340 . S
C437 H469 0.951 . S
C438 C437 1.340 . S
C438 C439 1.439 . S
C438 H470 0.950 . S
C439 N435 1.374 . S
C439 C438 1.439 . S
C439 C464 1.395 . S
N440 Co429 1.995 . S
N440 C441 1.376 . S
N440 C444 1.383 . S
C441 N440 1.376 . S
C441 C442 1.446 . S
C441 C464 1.391 . S
C442 C441 1.446 . S
C442 C443 1.339 . S
C442 H471 0.949 . S
C443 C442 1.339 . S
C443 C444 1.439 . S
C443 H472 0.950 . S
C444 N440 1.383 . S
C444 C443 1.439 . S
C444 C462 1.392 . S
N445 Co429 2.282 . S
N445 C448 1.332 . S
N445 C450 1.332 . S
C446 C447 1.386 . S
C446 C449 1.388 . S
C447 C446 1.386 . S
C447 C448 1.382 . S
C447 H473 0.950 . S
C448 N445 1.332 . S
C448 C447 1.382 . S
C448 H459 0.952 . S
C449 C446 1.388 . S
C449 C450 1.382 . S
C449 H474 0.950 . S
C450 N445 1.332 . S
C450 C449 1.382 . S
C450 H460 0.948 . S
N451 Co429 2.282 . S
N451 C455 1.332 . S
N451 C456 1.332 . S
C452 C453 1.388 . S
C452 C456 1.382 . S
C452 H475 0.950 . S
C453 C452 1.388 . S
C453 C454 1.386 . S
C454 C453 1.386 . S
C454 C455 1.382 . S
C454 H476 0.950 . S
C455 N451 1.332 . S
C455 C454 1.382 . S
C455 H457 0.952 . S
C456 N451 1.332 . S
C456 C452 1.382 . S
C456 H458 0.948 . S
H457 C455 0.952 . S
H458 C456 0.948 . S
H459 C448 0.952 . S
H460 C450 0.948 . S
C461 C427 1.395 . S
C461 C431 1.391 . S
C462 C424 1.389 . S
C462 C444 1.392 . S
C463 C434 1.392 . S
C463 C436 1.389 . S
C464 C439 1.395 . S
C464 C441 1.391 . S
H465 C425 0.951 . S
H466 C426 0.950 . S
H467 C432 0.949 . S
H468 C433 0.950 . S
H469 C437 0.951 . S
H470 C438 0.950 . S
H471 C442 0.949 . S
H472 C443 0.950 . S
H473 C447 0.950 . S
H474 C449 0.950 . S
H475 C452 0.950 . S
H476 C454 0.950 . S
C477 C478 1.443 . S
C477 N481 1.376 . S
C477 C515 1.389 . S
C478 C477 1.443 . S
C478 C479 1.340 . S
C478 H518 0.951 . S
C479 C478 1.340 . S
C479 C480 1.439 . S
C479 H519 0.950 . S
C480 C479 1.439 . S
C480 N481 1.374 . S
C480 C514 1.395 . S
N481 C477 1.376 . S
N481 C480 1.374 . S
N481 Co482 2.008 . S
Co482 N481 2.008 . S
Co482 N483 1.995 . S
Co482 N488 2.008 . S
Co482 N493 1.995 . S
Co482 N498 2.282 . S
Co482 N504 2.282 . S
N483 Co482 1.995 . S
N483 C484 1.376 . S
N483 C487 1.383 . S
C484 N483 1.376 . S
C484 C485 1.446 . S
C484 C514 1.391 . S
C485 C484 1.446 . S
C485 C486 1.339 . S
C485 H520 0.949 . S
C486 C485 1.339 . S
C486 C487 1.439 . S
C486 H521 0.950 . S
C487 N483 1.383 . S
C487 C486 1.439 . S
C487 C516 1.392 . S
N488 Co482 2.008 . S
N488 C489 1.376 . S
N488 C492 1.374 . S
C489 N488 1.376 . S
C489 C490 1.443 . S
C489 C516 1.389 . S
C490 C489 1.443 . S
C490 C491 1.340 . S
C490 H522 0.951 . S
C491 C490 1.340 . S
C491 C492 1.439 . S
C491 H523 0.950 . S
C492 N488 1.374 . S
C492 C491 1.439 . S
C492 C517 1.395 . S
N493 Co482 1.995 . S
N493 C494 1.376 . S
N493 C497 1.383 . S
C494 N493 1.376 . S
C494 C495 1.446 . S
C494 C517 1.391 . S
C495 C494 1.446 . S
C495 C496 1.339 . S
C495 H524 0.949 . S
C496 C495 1.339 . S
C496 C497 1.439 . S
C496 H525 0.950 . S
C497 N493 1.383 . S
C497 C496 1.439 . S
C497 C515 1.392 . S
N498 Co482 2.282 . S
N498 C501 1.332 . S
N498 C503 1.332 . S
C499 C500 1.386 . S
C499 C502 1.388 . S
C500 C499 1.386 . S
C500 C501 1.382 . S
C500 H526 0.950 . S
C501 N498 1.332 . S
C501 C500 1.382 . S
C501 H512 0.952 . S
C502 C499 1.388 . S
C502 C503 1.382 . S
C502 H527 0.950 . S
C503 N498 1.332 . S
C503 C502 1.382 . S
C503 H513 0.948 . S
N504 Co482 2.282 . S
N504 C508 1.332 . S
N504 C509 1.332 . S
C505 C506 1.388 . S
C505 C509 1.382 . S
C505 H528 0.950 . S
C506 C505 1.388 . S
C506 C507 1.386 . S
C507 C506 1.386 . S
C507 C508 1.382 . S
C507 H529 0.950 . S
C508 N504 1.332 . S
C508 C507 1.382 . S
C508 H510 0.952 . S
C509 N504 1.332 . S
C509 C505 1.382 . S
C509 H511 0.948 . S
H510 C508 0.952 . S
H511 C509 0.948 . S
H512 C501 0.952 . S
H513 C503 0.948 . S
C514 C480 1.395 . S
C514 C484 1.391 . S
C515 C477 1.389 . S
C515 C497 1.392 . S
C516 C487 1.392 . S
C516 C489 1.389 . S
C517 C492 1.395 . S
C517 C494 1.391 . S
H518 C478 0.951 . S
H519 C479 0.950 . S
H520 C485 0.949 . S
H521 C486 0.950 . S
H522 C490 0.951 . S
H523 C491 0.950 . S
H524 C495 0.949 . S
H525 C496 0.950 . S
H526 C500 0.950 . S
H527 C502 0.950 . S
H528 C505 0.950 . S
H529 C507 0.950 . S
C530 C531 1.443 . S
C530 N534 1.376 . S
C530 C568 1.389 . S
C531 C530 1.443 . S
C531 C532 1.340 . S
C531 H571 0.951 . S
C532 C531 1.340 . S
C532 C533 1.439 . S
C532 H572 0.950 . S
C533 C532 1.439 . S
C533 N534 1.374 . S
C533 C567 1.395 . S
N534 C530 1.376 . S
N534 C533 1.374 . S
N534 Co535 2.008 . S
Co535 N534 2.008 . S
Co535 N536 1.995 . S
Co535 N541 2.008 1_545 S
Co535 N546 1.995 1_545 S
Co535 N551 2.282 1_545 S
Co535 N557 2.282 . S
N536 Co535 1.995 . S
N536 C537 1.376 . S
N536 C540 1.383 . S
C537 N536 1.376 . S
C537 C538 1.446 . S
C537 C567 1.391 . S
C538 C537 1.446 . S
C538 C539 1.339 . S
C538 H573 0.949 . S
C539 C538 1.339 . S
C539 C540 1.439 . S
C539 H574 0.950 . S
C540 N536 1.383 . S
C540 C539 1.439 . S
C540 C569 1.392 1_545 S
N541 Co535 2.008 1_565 S
N541 C542 1.376 . S
N541 C545 1.374 . S
C542 N541 1.376 . S
C542 C543 1.443 . S
C542 C569 1.389 . S
C543 C542 1.443 . S
C543 C544 1.340 . S
C543 H575 0.951 . S
C544 C543 1.340 . S
C544 C545 1.439 . S
C544 H576 0.950 . S
C545 N541 1.374 . S
C545 C544 1.439 . S
C545 C570 1.395 . S
N546 Co535 1.995 1_565 S
N546 C547 1.376 . S
N546 C550 1.383 . S
C547 N546 1.376 . S
C547 C548 1.446 . S
C547 C570 1.391 . S
C548 C547 1.446 . S
C548 C549 1.339 . S
C548 H577 0.949 . S
C549 C548 1.339 . S
C549 C550 1.439 . S
C549 H578 0.950 . S
C550 N546 1.383 . S
C550 C549 1.439 . S
C550 C568 1.392 1_565 S
N551 Co535 2.282 1_565 S
N551 C554 1.332 . S
N551 C556 1.332 1_565 S
C552 C553 1.386 . S
C552 C555 1.388 1_565 S
C553 C552 1.386 . S
C553 C554 1.382 . S
C553 H579 0.950 . S
C554 N551 1.332 . S
C554 C553 1.382 . S
C554 H565 0.952 . S
C555 C552 1.388 1_545 S
C555 C556 1.382 . S
C555 H580 0.950 . S
C556 N551 1.332 1_545 S
C556 C555 1.382 . S
C556 H566 0.948 . S
N557 Co535 2.282 . S
N557 C561 1.332 . S
N557 C562 1.332 1_545 S
C558 C559 1.388 1_565 S
C558 C562 1.382 . S
C558 H581 0.950 . S
C559 C558 1.388 1_545 S
C559 C560 1.386 . S
C560 C559 1.386 . S
C560 C561 1.382 . S
C560 H582 0.950 . S
C561 N557 1.332 . S
C561 C560 1.382 . S
C561 H563 0.952 . S
C562 N557 1.332 1_565 S
C562 C558 1.382 . S
C562 H564 0.948 . S
H563 C561 0.952 . S
H564 C562 0.948 . S
H565 C554 0.952 . S
H566 C556 0.948 . S
C567 C533 1.395 . S
C567 C537 1.391 . S
C568 C530 1.389 . S
C568 C550 1.392 1_545 S
C569 C540 1.392 1_565 S
C569 C542 1.389 . S
C570 C545 1.395 . S
C570 C547 1.391 . S
H571 C531 0.951 . S
H572 C532 0.950 . S
H573 C538 0.949 . S
H574 C539 0.950 . S
H575 C543 0.951 . S
H576 C544 0.950 . S
H577 C548 0.949 . S
H578 C549 0.950 . S
H579 C553 0.950 . S
H580 C555 0.950 . S
H581 C558 0.950 . S
H582 C560 0.950 . S
C583 C584 1.443 . S
C583 N587 1.376 . S
C583 C621 1.389 . S
C584 C583 1.443 . S
C584 C585 1.340 . S
C584 H624 0.951 . S
C585 C584 1.340 . S
C585 C586 1.439 . S
C585 H625 0.950 . S
C586 C585 1.439 . S
C586 N587 1.374 . S
C586 C620 1.395 . S
N587 C583 1.376 . S
N587 C586 1.374 . S
N587 Co588 2.008 1_556 S
Co588 N587 2.008 1_554 S
Co588 N589 1.995 1_554 S
Co588 N594 2.008 . S
Co588 N599 1.995 . S
Co588 N604 2.282 . S
Co588 N610 2.282 . S
N589 Co588 1.995 1_556 S
N589 C590 1.376 . S
N589 C593 1.383 . S
C590 N589 1.376 . S
C590 C591 1.446 . S
C590 C620 1.391 . S
C591 C590 1.446 . S
C591 C592 1.339 . S
C591 H626 0.949 . S
C592 C591 1.339 . S
C592 C593 1.439 . S
C592 H627 0.950 . S
C593 N589 1.383 . S
C593 C592 1.439 . S
C593 C622 1.392 1_556 S
N594 Co588 2.008 . S
N594 C595 1.376 . S
N594 C598 1.374 . S
C595 N594 1.376 . S
C595 C596 1.443 . S
C595 C622 1.389 . S
C596 C595 1.443 . S
C596 C597 1.340 . S
C596 H628 0.951 . S
C597 C596 1.340 . S
C597 C598 1.439 . S
C597 H629 0.950 . S
C598 N594 1.374 . S
C598 C597 1.439 . S
C598 C623 1.395 . S
N599 Co588 1.995 . S
N599 C600 1.376 . S
N599 C603 1.383 . S
C600 N599 1.376 . S
C600 C601 1.446 . S
C600 C623 1.391 . S
C601 C600 1.446 . S
C601 C602 1.339 . S
C601 H630 0.949 . S
C602 C601 1.339 . S
C602 C603 1.439 . S
C602 H631 0.950 . S
C603 N599 1.383 . S
C603 C602 1.439 . S
C603 C621 1.392 1_554 S
N604 Co588 2.282 . S
N604 C607 1.332 . S
N604 C609 1.332 1_554 S
C605 C606 1.386 . S
C605 C608 1.388 . S
C606 C605 1.386 . S
C606 C607 1.382 . S
C606 H632 0.950 . S
C607 N604 1.332 . S
C607 C606 1.382 . S
C607 H618 0.952 . S
C608 C605 1.388 . S
C608 C609 1.382 1_554 S
C608 H633 0.950 1_554 S
C609 N604 1.332 1_556 S
C609 C608 1.382 1_556 S
C609 H619 0.948 . S
N610 Co588 2.282 . S
N610 C614 1.332 1_554 S
N610 C615 1.332 . S
C611 C612 1.388 1_554 S
C611 C615 1.382 . S
C611 H634 0.950 . S
C612 C611 1.388 1_556 S
C612 C613 1.386 . S
C613 C612 1.386 . S
C613 C614 1.382 . S
C613 H635 0.950 . S
C614 N610 1.332 1_556 S
C614 C613 1.382 . S
C614 H616 0.952 . S
C615 N610 1.332 . S
C615 C611 1.382 . S
C615 H617 0.948 . S
H616 C614 0.952 . S
H617 C615 0.948 . S
H618 C607 0.952 . S
H619 C609 0.948 . S
C620 C586 1.395 . S
C620 C590 1.391 . S
C621 C583 1.389 . S
C621 C603 1.392 1_556 S
C622 C593 1.392 1_554 S
C622 C595 1.389 . S
C623 C598 1.395 . S
C623 C600 1.391 . S
H624 C584 0.951 . S
H625 C585 0.950 . S
H626 C591 0.949 . S
H627 C592 0.950 . S
H628 C596 0.951 . S
H629 C597 0.950 . S
H630 C601 0.949 . S
H631 C602 0.950 . S
H632 C606 0.950 . S
H633 C608 0.950 1_556 S
H634 C611 0.950 . S
H635 C613 0.950 . S
C636 O652 1.251 . S
C636 O654 1.254 . S
N637 C638 1.333 . S
N637 C642 1.307 . S
N637 Zn643 2.020 1_556 S
C638 N637 1.333 . S
C638 C639 1.379 . S
C638 H656 0.952 1_556 S
C639 C638 1.379 . S
C639 C640 1.390 . S
C639 H666 0.949 . S
C640 C639 1.390 . S
C640 C641 1.357 . S
C641 C640 1.357 . S
C641 C642 1.370 . S
C641 H667 0.950 . S
C642 N637 1.307 . S
C642 C641 1.370 . S
C642 H660 0.948 . S
Zn643 N637 2.020 1_554 S
Zn643 O652 2.039 . S
Zn643 O658 2.034 . S
Zn643 O662 2.025 . S
Zn643 O664 2.024 . S
C644 O663 1.246 . S
C644 O664 1.249 . S
N645 C646 1.307 . S
N645 C647 1.333 . S
N645 Zn651 2.020 . S
C646 N645 1.307 . S
C646 C650 1.370 . S
C646 H657 0.948 . S
C647 N645 1.333 . S
C647 C648 1.379 . S
C647 H655 0.952 . S
C648 C647 1.379 . S
C648 C649 1.390 . S
C648 H668 0.949 . S
C649 C648 1.390 . S
C649 C650 1.357 . S
C650 C646 1.370 . S
C650 C649 1.357 . S
C650 H669 0.950 . S
Zn651 N645 2.020 . S
Zn651 O654 2.025 . S
Zn651 O659 2.024 . S
Zn651 O661 2.039 . S
Zn651 O663 2.034 . S
O652 C636 1.251 . S
O652 Zn643 2.039 . S
C653 O658 1.246 . S
C653 O659 1.249 . S
O654 C636 1.254 . S
O654 Zn651 2.025 . S
H655 C647 0.952 . S
H656 C638 0.952 1_554 S
H657 C646 0.948 . S
O658 Zn643 2.034 . S
O658 C653 1.246 . S
O659 Zn651 2.024 . S
O659 C653 1.249 . S
H660 C642 0.948 . S
O661 Zn651 2.039 . S
O661 C665 1.251 . S
O662 Zn643 2.025 . S
O662 C665 1.254 . S
O663 C644 1.246 . S
O663 Zn651 2.034 . S
O664 Zn643 2.024 . S
O664 C644 1.249 . S
C665 O661 1.251 . S
C665 O662 1.254 . S
H666 C639 0.949 . S
H667 C641 0.950 . S
H668 C648 0.949 . S
H669 C650 0.950 . S
C670 O686 1.251 . S
C670 O688 1.254 . S
N671 C672 1.333 . S
N671 C676 1.307 . S
N671 Zn677 2.020 1_556 S
C672 N671 1.333 . S
C672 C673 1.379 . S
C672 H690 0.952 . S
C673 C672 1.379 . S
C673 C674 1.390 . S
C673 H700 0.949 . S
C674 C673 1.390 . S
C674 C675 1.357 . S
C675 C674 1.357 . S
C675 C676 1.370 . S
C675 H701 0.950 . S
C676 N671 1.307 . S
C676 C675 1.370 . S
C676 H694 0.948 . S
Zn677 N671 2.020 1_554 S
Zn677 O686 2.039 . S
Zn677 O692 2.034 . S
Zn677 O696 2.025 . S
Zn677 O698 2.024 . S
C678 O697 1.246 . S
C678 O698 1.249 . S
N679 C680 1.307 . S
N679 C681 1.333 1_655 S
N679 Zn685 2.020 . S
C680 N679 1.307 . S
C680 C684 1.370 . S
C680 H691 0.948 . S
C681 N679 1.333 1_455 S
C681 C682 1.379 . S
C681 H689 0.952 . S
C682 C681 1.379 . S
C682 C683 1.390 1_455 S
C682 H702 0.949 . S
C683 C682 1.390 1_655 S
C683 C684 1.357 . S
C684 C680 1.370 . S
C684 C683 1.357 . S
C684 H703 0.950 . S
Zn685 N679 2.020 . S
Zn685 O688 2.025 . S
Zn685 O693 2.024 . S
Zn685 O695 2.039 1_655 S
Zn685 O697 2.034 . S
O686 C670 1.251 . S
O686 Zn677 2.039 . S
C687 O692 1.246 . S
C687 O693 1.249 . S
O688 C670 1.254 . S
O688 Zn685 2.025 . S
H689 C681 0.952 . S
H690 C672 0.952 . S
H691 C680 0.948 . S
O692 Zn677 2.034 . S
O692 C687 1.246 . S
O693 Zn685 2.024 . S
O693 C687 1.249 . S
H694 C676 0.948 . S
O695 Zn685 2.039 1_455 S
O695 C699 1.251 . S
O696 Zn677 2.025 . S
O696 C699 1.254 1_655 S
O697 C678 1.246 . S
O697 Zn685 2.034 . S
O698 Zn677 2.024 . S
O698 C678 1.249 . S
C699 O695 1.251 . S
C699 O696 1.254 1_455 S
H700 C673 0.949 . S
H701 C675 0.950 . S
H702 C682 0.949 . S
H703 C684 0.950 . S
C704 O720 1.251 . S
C704 O722 1.254 . S
N705 C706 1.333 . S
N705 C710 1.307 . S
N705 Zn711 2.020 . S
C706 N705 1.333 . S
C706 C707 1.379 . S
C706 H724 0.952 . S
C707 C706 1.379 . S
C707 C708 1.390 . S
C707 H734 0.949 1_455 S
C708 C707 1.390 . S
C708 C709 1.357 . S
C709 C708 1.357 . S
C709 C710 1.370 . S
C709 H735 0.950 . S
C710 N705 1.307 . S
C710 C709 1.370 . S
C710 H728 0.948 . S
Zn711 N705 2.020 . S
Zn711 O720 2.039 . S
Zn711 O726 2.034 . S
Zn711 O730 2.025 . S
Zn711 O732 2.024 . S
C712 O731 1.246 . S
C712 O732 1.249 . S
N713 C714 1.307 . S
N713 C715 1.333 . S
N713 Zn719 2.020 . S
C714 N713 1.307 . S
C714 C718 1.370 . S
C714 H725 0.948 . S
C715 N713 1.333 . S
C715 C716 1.379 . S
C715 H723 0.952 . S
C716 C715 1.379 . S
C716 C717 1.390 . S
C716 H736 0.949 . S
C717 C716 1.390 . S
C717 C718 1.357 . S
C718 C714 1.370 . S
C718 C717 1.357 . S
C718 H737 0.949 1_565 S
Zn719 N713 2.020 . S
Zn719 O722 2.025 . S
Zn719 O727 2.024 . S
Zn719 O729 2.039 . S
Zn719 O731 2.034 . S
O720 C704 1.251 . S
O720 Zn711 2.039 . S
C721 O726 1.246 . S
C721 O727 1.249 . S
O722 C704 1.254 . S
O722 Zn719 2.025 . S
H723 C715 0.952 . S
H724 C706 0.952 . S
H725 C714 0.948 . S
O726 Zn711 2.034 . S
O726 C721 1.246 . S
O727 Zn719 2.024 . S
O727 C721 1.249 . S
H728 C710 0.948 . S
O729 Zn719 2.039 . S
O729 C733 1.251 . S
O730 Zn711 2.025 . S
O730 C733 1.254 . S
O731 C712 1.246 . S
O731 Zn719 2.034 . S
O732 Zn711 2.024 . S
O732 C712 1.249 . S
C733 O729 1.251 . S
C733 O730 1.254 . S
H734 C707 0.949 1_655 S
H735 C709 0.950 . S
H736 C716 0.949 . S
H737 C718 0.949 1_545 S
C738 O754 1.251 . S
C738 O756 1.254 . S
N739 C740 1.333 . S
N739 C744 1.307 . S
N739 Zn745 2.020 1_455 S
C740 N739 1.333 . S
C740 C741 1.379 . S
C740 H758 0.952 . S
C741 C740 1.379 . S
C741 C742 1.390 . S
C741 H768 0.949 . S
C742 C741 1.390 . S
C742 C743 1.357 . S
C743 C742 1.357 . S
C743 C744 1.370 . S
C743 H769 0.950 . S
C744 N739 1.307 . S
C744 C743 1.370 . S
C744 H762 0.948 . S
Zn745 N739 2.020 1_655 S
Zn745 O754 2.039 . S
Zn745 O760 2.034 . S
Zn745 O764 2.025 . S
Zn745 O766 2.024 . S
C746 O765 1.246 . S
C746 O766 1.249 . S
N747 C748 1.307 . S
N747 C749 1.333 . S
N747 Zn753 2.020 . S
C748 N747 1.307 . S
C748 C752 1.370 . S
C748 H759 0.948 . S
C749 N747 1.333 . S
C749 C750 1.379 . S
C749 H757 0.952 . S
C750 C749 1.379 . S
C750 C751 1.390 . S
C750 H770 0.949 . S
C751 C750 1.390 . S
C751 C752 1.357 . S
C752 C748 1.370 . S
C752 C751 1.357 . S
C752 H771 0.950 . S
Zn753 N747 2.020 . S
Zn753 O756 2.025 . S
Zn753 O761 2.024 . S
Zn753 O763 2.039 . S
Zn753 O765 2.034 . S
O754 C738 1.251 . S
O754 Zn745 2.039 . S
C755 O760 1.246 . S
C755 O761 1.249 . S
O756 C738 1.254 . S
O756 Zn753 2.025 . S
H757 C749 0.952 . S
H758 C740 0.952 . S
H759 C748 0.948 . S
O760 Zn745 2.034 . S
O760 C755 1.246 . S
O761 Zn753 2.024 . S
O761 C755 1.249 . S
H762 C744 0.948 . S
O763 Zn753 2.039 . S
O763 C767 1.251 . S
O764 Zn745 2.025 . S
O764 C767 1.254 . S
O765 C746 1.246 . S
O765 Zn753 2.034 . S
O766 Zn745 2.024 . S
O766 C746 1.249 . S
C767 O763 1.251 . S
C767 O764 1.254 . S
H768 C741 0.949 . S
H769 C743 0.950 . S
H770 C750 0.949 . S
H771 C752 0.950 . S
C772 O788 1.251 . S
C772 O790 1.254 . S
N773 C774 1.333 . S
N773 C778 1.307 . S
N773 Zn779 2.020 . S
C774 N773 1.333 . S
C774 C775 1.379 . S
C774 H792 0.952 . S
C775 C774 1.379 . S
C775 C776 1.390 1_565 S
C775 H802 0.949 . S
C776 C775 1.390 1_545 S
C776 C777 1.357 . S
C777 C776 1.357 . S
C777 C778 1.370 1_545 S
C777 H803 0.950 . S
C778 N773 1.307 . S
C778 C777 1.370 1_565 S
C778 H796 0.948 . S
Zn779 N773 2.020 . S
Zn779 O788 2.039 . S
Zn779 O794 2.034 . S
Zn779 O798 2.025 . S
Zn779 O800 2.024 . S
C780 O799 1.246 . S
C780 O800 1.249 . S
N781 C782 1.307 . S
N781 C783 1.333 . S
N781 Zn787 2.020 . S
C782 N781 1.307 . S
C782 C786 1.370 . S
C782 H793 0.948 . S
C783 N781 1.333 . S
C783 C784 1.379 . S
C783 H791 0.952 . S
C784 C783 1.379 . S
C784 C785 1.390 . S
C784 H804 0.949 . S
C785 C784 1.390 . S
C785 C786 1.357 . S
C786 C782 1.370 . S
C786 C785 1.357 . S
C786 H805 0.950 . S
Zn787 N781 2.020 . S
Zn787 O790 2.025 . S
Zn787 O795 2.024 . S
Zn787 O797 2.039 . S
Zn787 O799 2.034 . S
O788 C772 1.251 . S
O788 Zn779 2.039 . S
C789 O794 1.246 . S
C789 O795 1.249 . S
O790 C772 1.254 . S
O790 Zn787 2.025 . S
H791 C783 0.952 . S
H792 C774 0.952 . S
H793 C782 0.948 . S
O794 Zn779 2.034 . S
O794 C789 1.246 . S
O795 Zn787 2.024 . S
O795 C789 1.249 . S
H796 C778 0.948 . S
O797 Zn787 2.039 . S
O797 C801 1.251 . S
O798 Zn779 2.025 . S
O798 C801 1.254 . S
O799 C780 1.246 . S
O799 Zn787 2.034 . S
O800 Zn779 2.024 . S
O800 C780 1.249 . S
C801 O797 1.251 . S
C801 O798 1.254 . S
H802 C775 0.949 . S
H803 C777 0.950 . S
H804 C784 0.949 . S
H805 C786 0.950 . S
C806 O822 1.251 . S
C806 O824 1.254 . S
N807 C808 1.333 . S
N807 C812 1.307 . S
N807 Zn813 2.020 . S
C808 N807 1.333 . S
C808 C809 1.379 . S
C808 H826 0.952 . S
C809 C808 1.379 . S
C809 C810 1.390 . S
C809 H836 0.949 . S
C810 C809 1.390 . S
C810 C811 1.357 . S
C811 C810 1.357 . S
C811 C812 1.370 . S
C811 H837 0.950 . S
C812 N807 1.307 . S
C812 C811 1.370 . S
C812 H830 0.948 . S
Zn813 N807 2.020 . S
Zn813 O822 2.039 . S
Zn813 O828 2.034 . S
Zn813 O832 2.025 . S
Zn813 O834 2.024 . S
C814 O833 1.246 . S
C814 O834 1.249 . S
N815 C816 1.307 . S
N815 C817 1.333 . S
N815 Zn821 2.020 . S
C816 N815 1.307 . S
C816 C820 1.370 . S
C816 H827 0.948 . S
C817 N815 1.333 . S
C817 C818 1.379 . S
C817 H825 0.952 . S
C818 C817 1.379 . S
C818 C819 1.390 . S
C818 H838 0.949 . S
C819 C818 1.390 . S
C819 C820 1.357 . S
C820 C816 1.370 . S
C820 C819 1.357 . S
C820 H839 0.950 . S
Zn821 N815 2.020 . S
Zn821 O824 2.025 . S
Zn821 O829 2.024 . S
Zn821 O831 2.039 . S
Zn821 O833 2.034 . S
O822 C806 1.251 . S
O822 Zn813 2.039 . S
C823 O828 1.246 . S
C823 O829 1.249 . S
O824 C806 1.254 . S
O824 Zn821 2.025 . S
H825 C817 0.952 . S
H826 C808 0.952 . S
H827 C816 0.948 . S
O828 Zn813 2.034 . S
O828 C823 1.246 . S
O829 Zn821 2.024 . S
O829 C823 1.249 . S
H830 C812 0.948 . S
O831 Zn821 2.039 . S
O831 C835 1.251 . S
O832 Zn813 2.025 . S
O832 C835 1.254 . S
O833 C814 1.246 . S
O833 Zn821 2.034 . S
O834 Zn813 2.024 . S
O834 C814 1.249 . S
C835 O831 1.251 . S
C835 O832 1.254 . S
H836 C809 0.949 . S
H837 C811 0.950 . S
H838 C818 0.949 . S
H839 C820 0.950 . S
C840 O856 1.251 . S
C840 O858 1.254 . S
N841 C842 1.333 . S
N841 C846 1.307 . S
N841 Zn847 2.020 . S
C842 N841 1.333 . S
C842 C843 1.379 . S
C842 H860 0.952 . S
C843 C842 1.379 . S
C843 C844 1.390 . S
C843 H870 0.949 . S
C844 C843 1.390 . S
C844 C845 1.357 . S
C845 C844 1.357 . S
C845 C846 1.370 . S
C845 H871 0.950 . S
C846 N841 1.307 . S
C846 C845 1.370 . S
C846 H864 0.948 . S
Zn847 N841 2.020 . S
Zn847 O856 2.039 . S
Zn847 O862 2.034 . S
Zn847 O866 2.025 . S
Zn847 O868 2.024 . S
C848 O867 1.246 . S
C848 O868 1.249 . S
N849 C850 1.307 1_556 S
N849 C851 1.333 1_556 S
N849 Zn855 2.020 . S
C850 N849 1.307 1_554 S
C850 C854 1.370 . S
C850 H861 0.948 . S
C851 N849 1.333 1_554 S
C851 C852 1.379 . S
C851 H859 0.952 . S
C852 C851 1.379 . S
C852 C853 1.390 . S
C852 H872 0.949 . S
C853 C852 1.390 . S
C853 C854 1.357 . S
C854 C850 1.370 . S
C854 C853 1.357 . S
C854 H873 0.950 . S
Zn855 N849 2.020 . S
Zn855 O858 2.025 . S
Zn855 O863 2.024 . S
Zn855 O865 2.039 . S
Zn855 O867 2.034 . S
O856 C840 1.251 . S
O856 Zn847 2.039 . S
C857 O862 1.246 . S
C857 O863 1.249 . S
O858 C840 1.254 . S
O858 Zn855 2.025 . S
H859 C851 0.952 . S
H860 C842 0.952 . S
H861 C850 0.948 . S
O862 Zn847 2.034 . S
O862 C857 1.246 . S
O863 Zn855 2.024 . S
O863 C857 1.249 . S
H864 C846 0.948 . S
O865 Zn855 2.039 . S
O865 C869 1.251 . S
O866 Zn847 2.025 . S
O866 C869 1.254 . S
O867 C848 1.246 . S
O867 Zn855 2.034 . S
O868 Zn847 2.024 . S
O868 C848 1.249 . S
C869 O865 1.251 . S
C869 O866 1.254 . S
H870 C843 0.949 . S
H871 C845 0.950 . S
H872 C852 0.949 . S
H873 C854 0.950 . S
C874 O890 1.251 . S
C874 O892 1.254 . S
N875 C876 1.333 . S
N875 C880 1.307 . S
N875 Zn881 2.020 . S
C876 N875 1.333 . S
C876 C877 1.379 . S
C876 H894 0.952 . S
C877 C876 1.379 . S
C877 C878 1.390 . S
C877 H904 0.949 . S
C878 C877 1.390 . S
C878 C879 1.357 . S
C879 C878 1.357 . S
C879 C880 1.370 . S
C879 H905 0.950 . S
C880 N875 1.307 . S
C880 C879 1.370 . S
C880 H898 0.948 . S
Zn881 N875 2.020 . S
Zn881 O890 2.039 . S
Zn881 O896 2.034 . S
Zn881 O900 2.025 . S
Zn881 O902 2.024 . S
C882 O901 1.246 . S
C882 O902 1.249 . S
N883 C884 1.307 . S
N883 C885 1.333 . S
N883 Zn889 2.020 . S
C884 N883 1.307 . S
C884 C888 1.370 . S
C884 H895 0.948 . S
C885 N883 1.333 . S
C885 C886 1.379 . S
C885 H893 0.952 . S
C886 C885 1.379 . S
C886 C887 1.390 . S
C886 H906 0.949 1_545 S
C887 C886 1.390 . S
C887 C888 1.357 . S
C888 C884 1.370 . S
C888 C887 1.357 . S
C888 H907 0.950 . S
Zn889 N883 2.020 . S
Zn889 O892 2.025 . S
Zn889 O897 2.024 . S
Zn889 O899 2.039 . S
Zn889 O901 2.034 . S
O890 C874 1.251 . S
O890 Zn881 2.039 . S
C891 O896 1.246 . S
C891 O897 1.249 . S
O892 C874 1.254 . S
O892 Zn889 2.025 . S
H893 C885 0.952 . S
H894 C876 0.952 . S
H895 C884 0.948 . S
O896 Zn881 2.034 . S
O896 C891 1.246 . S
O897 Zn889 2.024 . S
O897 C891 1.249 . S
H898 C880 0.948 . S
O899 Zn889 2.039 . S
O899 C903 1.251 . S
O900 Zn881 2.025 . S
O900 C903 1.254 . S
O901 C882 1.246 . S
O901 Zn889 2.034 . S
O902 Zn881 2.024 . S
O902 C882 1.249 . S
C903 O899 1.251 . S
C903 O900 1.254 . S
H904 C877 0.949 . S
H905 C879 0.950 . S
H906 C886 0.949 1_565 S
H907 C888 0.950 . S
H908 C920 0.930 . S
H909 C922 0.947 . S
H910 C923 0.930 1_655 S
H911 C927 0.959 . S
H912 C927 0.959 . S
H913 C927 0.961 . S
H914 C928 0.960 . S
H915 C928 0.961 . S
H916 C928 0.959 . S
H917 C931 0.929 1_655 S
H918 C932 0.931 1_565 S
H919 C934 0.930 . S
C920 H908 0.930 . S
C920 C921 1.399 . S
C920 C925 1.399 . S
C921 C920 1.399 . S
C921 C922 1.376 . S
C922 H909 0.947 . S
C922 C921 1.376 . S
C922 C923 1.388 . S
C923 H910 0.930 1_455 S
C923 C922 1.388 . S
C923 C924 1.390 . S
C924 C923 1.390 . S
C924 C925 1.394 . S
C924 C930 1.465 . S
C925 C920 1.399 . S
C925 C924 1.394 . S
C925 C926 1.516 . S
C926 C925 1.516 . S
C926 C927 1.502 . S
C926 C928 1.561 . S
C926 C929 1.526 . S
C927 H911 0.959 . S
C927 H912 0.959 . S
C927 H913 0.961 . S
C927 C926 1.502 . S
C928 H914 0.960 . S
C928 H915 0.961 . S
C928 H916 0.959 . S
C928 C926 1.561 . S
C929 C926 1.526 . S
C929 C930 1.396 . S
C929 C934 1.390 . S
C930 C924 1.465 . S
C930 C929 1.396 . S
C930 C931 1.399 . S
C931 H917 0.929 1_455 S
C931 C930 1.399 . S
C931 C932 1.385 . S
C932 H918 0.931 1_545 S
C932 C931 1.385 . S
C932 C933 1.389 . S
C933 C932 1.389 . S
C933 C934 1.387 . S
C934 H919 0.930 . S
C934 C929 1.390 . S
C934 C933 1.387 . S
H935 C947 0.930 1_455 S
H936 C949 0.930 . S
H937 C950 0.930 . S
H938 C954 0.959 . S
H939 C954 0.959 . S
H940 C954 0.961 . S
H941 C955 0.960 . S
H942 C955 0.961 . S
H943 C955 0.959 . S
H944 C958 0.929 . S
H945 C959 0.931 . S
H946 C961 0.930 1_455 S
C947 H935 0.930 1_655 S
C947 C948 1.399 . S
C947 C952 1.399 . S
C948 C947 1.399 . S
C948 C949 1.376 . S
C949 H936 0.930 . S
C949 C948 1.376 . S
C949 C950 1.388 . S
C950 H937 0.930 . S
C950 C949 1.388 . S
C950 C951 1.390 . S
C951 C950 1.390 . S
C951 C952 1.394 . S
C951 C957 1.465 . S
C952 C947 1.399 . S
C952 C951 1.394 . S
C952 C953 1.516 1_655 S
C953 C952 1.516 1_455 S
C953 C954 1.502 . S
C953 C955 1.561 1_455 S
C953 C956 1.526 1_455 S
C954 H938 0.959 . S
C954 H939 0.959 . S
C954 H940 0.961 . S
C954 C953 1.502 . S
C955 H941 0.960 . S
C955 H942 0.961 . S
C955 H943 0.959 . S
C955 C953 1.561 1_655 S
C956 C953 1.526 1_655 S
C956 C957 1.396 . S
C956 C961 1.390 . S
C957 C951 1.465 . S
C957 C956 1.396 . S
C957 C958 1.399 . S
C958 H944 0.929 . S
C958 C957 1.399 . S
C958 C959 1.385 . S
C959 H945 0.931 . S
C959 C958 1.385 . S
C959 C960 1.389 . S
C960 C959 1.389 . S
C960 C961 1.387 . S
C961 H946 0.930 1_655 S
C961 C956 1.390 . S
C961 C960 1.387 . S
H962 C974 0.930 . S
H963 C976 0.930 . S
H964 C977 0.930 . S
H965 C981 0.959 1_655 S
H966 C981 0.959 . S
H967 C981 0.955 1_655 S
H968 C982 0.960 . S
H969 C982 0.961 . S
H970 C982 0.959 . S
H971 C985 0.929 . S
H972 C986 0.931 . S
H973 C988 0.930 . S
C974 H962 0.930 . S
C974 C975 1.399 . S
C974 C979 1.399 . S
C975 C974 1.399 . S
C975 C976 1.376 . S
C976 H963 0.930 . S
C976 C975 1.376 . S
C976 C977 1.388 . S
C977 H964 0.930 . S
C977 C976 1.388 . S
C977 C978 1.390 . S
C978 C977 1.390 . S
C978 C979 1.394 . S
C978 C984 1.465 . S
C979 C974 1.399 . S
C979 C978 1.394 . S
C979 C980 1.516 . S
C980 C979 1.516 . S
C980 C981 1.502 . S
C980 C982 1.561 . S
C980 C983 1.526 . S
C981 H965 0.959 1_455 S
C981 H966 0.959 . S
C981 H967 0.955 1_455 S
C981 C980 1.502 . S
C982 H968 0.960 . S
C982 H969 0.961 . S
C982 H970 0.959 . S
C982 C980 1.561 . S
C983 C980 1.526 . S
C983 C984 1.396 . S
C983 C988 1.390 . S
C984 C978 1.465 . S
C984 C983 1.396 . S
C984 C985 1.399 . S
C985 H971 0.929 . S
C985 C984 1.399 . S
C985 C986 1.385 . S
C986 H972 0.931 . S
C986 C985 1.385 . S
C986 C987 1.389 . S
C987 C986 1.389 . S
C987 C988 1.387 . S
C988 H973 0.930 . S
C988 C983 1.390 . S
C988 C987 1.387 . S
H989 C1001 0.930 . S
H990 C1003 0.930 . S
H991 C1004 0.930 . S
H992 C1008 0.959 . S
H993 C1008 0.959 . S
H994 C1008 0.961 . S
H995 C1009 0.960 . S
H996 C1009 0.961 . S
H997 C1009 0.959 1_455 S
H998 C1012 0.929 . S
H999 C1013 0.931 . S
H1000 C1015 0.930 . S
C1001 H989 0.930 . S
C1001 C1002 1.412 . S
C1001 C1006 1.399 . S
C1002 C1001 1.412 . S
C1002 C1003 1.362 1_655 S
C1003 H990 0.930 . S
C1003 C1002 1.362 1_455 S
C1003 C1004 1.388 . S
C1004 H991 0.930 . S
C1004 C1003 1.388 . S
C1004 C1005 1.390 . S
C1005 C1004 1.390 . S
C1005 C1006 1.394 1_455 S
C1005 C1011 1.465 . S
C1006 C1001 1.399 . S
C1006 C1005 1.394 1_655 S
C1006 C1007 1.516 . S
C1007 C1006 1.516 . S
C1007 C1008 1.502 . S
C1007 C1009 1.561 . S
C1007 C1010 1.526 . S
C1008 H992 0.959 . S
C1008 H993 0.959 . S
C1008 H994 0.961 . S
C1008 C1007 1.502 . S
C1009 H995 0.960 . S
C1009 H996 0.961 . S
C1009 H997 0.959 1_655 S
C1009 C1007 1.561 . S
C1010 C1007 1.526 . S
C1010 C1011 1.396 1_655 S
C1010 C1015 1.390 . S
C1011 C1005 1.465 . S
C1011 C1010 1.396 1_455 S
C1011 C1012 1.399 . S
C1012 H998 0.929 . S
C1012 C1011 1.399 . S
C1012 C1013 1.385 . S
C1013 H999 0.931 . S
C1013 C1012 1.385 . S
C1013 C1014 1.389 1_455 S
C1014 C1013 1.389 1_655 S
C1014 C1015 1.387 . S
C1015 H1000 0.930 . S
C1015 C1010 1.390 . S
C1015 C1014 1.387 . S
H1016 C1028 0.930 . S
H1017 C1030 0.930 . S
H1018 C1031 0.930 . S
H1019 C1035 0.959 . S
H1020 C1035 0.959 . S
H1021 C1035 0.961 . S
H1022 C1036 0.960 . S
H1023 C1036 0.961 . S
H1024 C1036 0.959 . S
H1025 C1039 0.929 . S
H1026 C1040 0.931 . S
H1027 C1042 0.936 . S
C1028 H1016 0.930 . S
C1028 C1029 1.399 . S
C1028 C1033 1.399 . S
C1029 C1028 1.399 . S
C1029 C1030 1.376 . S
C1030 H1017 0.930 . S
C1030 C1029 1.376 . S
C1030 C1031 1.388 . S
C1031 H1018 0.930 . S
C1031 C1030 1.388 . S
C1031 C1032 1.390 . S
C1032 C1031 1.390 . S
C1032 C1033 1.394 . S
C1032 C1038 1.465 . S
C1033 C1028 1.399 . S
C1033 C1032 1.394 . S
C1033 C1034 1.516 . S
C1034 C1033 1.516 . S
C1034 C1035 1.502 . S
C1034 C1036 1.561 . S
C1034 C1037 1.526 . S
C1035 H1019 0.959 . S
C1035 H1020 0.959 . S
C1035 H1021 0.961 . S
C1035 C1034 1.502 . S
C1036 H1022 0.960 . S
C1036 H1023 0.961 . S
C1036 H1024 0.959 . S
C1036 C1034 1.561 . S
C1037 C1034 1.526 . S
C1037 C1038 1.396 . S
C1037 C1042 1.390 . S
C1038 C1032 1.465 . S
C1038 C1037 1.396 . S
C1038 C1039 1.399 . S
C1039 H1025 0.929 . S
C1039 C1038 1.399 . S
C1039 C1040 1.385 . S
C1040 H1026 0.931 . S
C1040 C1039 1.385 . S
C1040 C1041 1.361 1_554 S
C1041 C1040 1.361 1_556 S
C1041 C1042 1.368 1_556 S
C1042 H1027 0.936 . S
C1042 C1037 1.390 . S
C1042 C1041 1.368 1_554 S
H1043 C1055 0.930 . S
H1044 C1057 0.930 . S
H1045 C1058 0.930 . S
H1046 C1062 0.959 . S
H1047 C1062 0.959 . S
H1048 C1062 0.961 . S
H1049 C1063 0.960 . S
H1050 C1063 0.961 . S
H1051 C1063 0.959 . S
H1052 C1066 0.929 . S
H1053 C1067 0.931 . S
H1054 C1069 0.930 . S
C1055 H1043 0.930 . S
C1055 C1056 1.399 . S
C1055 C1060 1.399 . S
C1056 C1055 1.399 . S
C1056 C1057 1.376 . S
C1057 H1044 0.930 . S
C1057 C1056 1.376 . S
C1057 C1058 1.388 . S
C1058 H1045 0.930 . S
C1058 C1057 1.388 . S
C1058 C1059 1.390 . S
C1059 C1058 1.390 . S
C1059 C1060 1.394 . S
C1059 C1065 1.465 . S
C1060 C1055 1.399 . S
C1060 C1059 1.394 . S
C1060 C1061 1.516 . S
C1061 C1060 1.516 . S
C1061 C1062 1.502 . S
C1061 C1063 1.561 . S
C1061 C1064 1.526 . S
C1062 H1046 0.959 . S
C1062 H1047 0.959 . S
C1062 H1048 0.961 . S
C1062 C1061 1.502 . S
C1063 H1049 0.960 . S
C1063 H1050 0.961 . S
C1063 H1051 0.959 . S
C1063 C1061 1.561 . S
C1064 C1061 1.526 . S
C1064 C1065 1.396 . S
C1064 C1069 1.390 . S
C1065 C1059 1.465 . S
C1065 C1064 1.396 . S
C1065 C1066 1.399 . S
C1066 H1052 0.929 . S
C1066 C1065 1.399 . S
C1066 C1067 1.385 . S
C1067 H1053 0.931 . S
C1067 C1066 1.385 . S
C1067 C1068 1.389 . S
C1068 C1067 1.389 . S
C1068 C1069 1.387 . S
C1069 H1054 0.930 . S
C1069 C1064 1.390 . S
C1069 C1068 1.387 . S
H1070 C1082 0.930 . S
H1071 C1084 0.930 . S
H1072 C1085 0.930 . S
H1073 C1089 0.959 . S
H1074 C1089 0.959 . S
H1075 C1089 0.961 . S
H1076 C1090 0.960 . S
H1077 C1090 0.961 . S
H1078 C1090 0.959 . S
H1079 C1093 0.929 . S
H1080 C1094 0.931 . S
H1081 C1096 0.930 . S
C1082 H1070 0.930 . S
C1082 C1083 1.399 1_545 S
C1082 C1087 1.399 . S
C1083 C1082 1.399 1_565 S
C1083 C1084 1.376 . S
C1084 H1071 0.930 . S
C1084 C1083 1.376 . S
C1084 C1085 1.388 . S
C1085 H1072 0.930 . S
C1085 C1084 1.388 . S
C1085 C1086 1.390 . S
C1086 C1085 1.390 . S
C1086 C1087 1.394 1_565 S
C1086 C1092 1.465 . S
C1087 C1082 1.399 . S
C1087 C1086 1.394 1_545 S
C1087 C1088 1.516 . S
C1088 C1087 1.516 . S
C1088 C1089 1.502 . S
C1088 C1090 1.561 . S
C1088 C1091 1.526 . S
C1089 H1073 0.959 . S
C1089 H1074 0.959 . S
C1089 H1075 0.961 . S
C1089 C1088 1.502 . S
C1090 H1076 0.960 . S
C1090 H1077 0.961 . S
C1090 H1078 0.959 . S
C1090 C1088 1.561 . S
C1091 C1088 1.526 . S
C1091 C1092 1.396 1_545 S
C1091 C1096 1.390 . S
C1092 C1086 1.465 . S
C1092 C1091 1.396 1_565 S
C1092 C1093 1.399 . S
C1093 H1079 0.929 . S
C1093 C1092 1.399 . S
C1093 C1094 1.385 . S
C1094 H1080 0.931 . S
C1094 C1093 1.385 . S
C1094 C1095 1.389 1_565 S
C1095 C1094 1.389 1_545 S
C1095 C1096 1.387 . S
C1096 H1081 0.930 . S
C1096 C1091 1.390 . S
C1096 C1095 1.387 . S
H1097 C1109 0.930 . S
H1098 C1111 0.930 . S
H1099 C1112 0.930 . S
H1100 C1116 0.959 . S
H1101 C1116 0.959 . S
H1102 C1116 0.961 . S
H1103 C1117 0.960 . S
H1104 C1117 0.961 . S
H1105 C1117 0.959 . S
H1106 C1120 0.929 . S
H1107 C1121 0.931 . S
H1108 C1123 0.930 . S
C1109 H1097 0.930 . S
C1109 C1110 1.399 . S
C1109 C1114 1.399 . S
C1110 C1109 1.399 . S
C1110 C1111 1.376 . S
C1111 H1098 0.930 . S
C1111 C1110 1.376 . S
C1111 C1112 1.388 . S
C1112 H1099 0.930 . S
C1112 C1111 1.388 . S
C1112 C1113 1.390 . S
C1113 C1112 1.390 . S
C1113 C1114 1.394 . S
C1113 C1119 1.465 . S
C1114 C1109 1.399 . S
C1114 C1113 1.394 . S
C1114 C1115 1.516 . S
C1115 C1114 1.516 . S
C1115 C1116 1.502 . S
C1115 C1117 1.561 . S
C1115 C1118 1.526 . S
C1116 H1100 0.959 . S
C1116 H1101 0.959 . S
C1116 H1102 0.961 . S
C1116 C1115 1.502 . S
C1117 H1103 0.960 . S
C1117 H1104 0.961 . S
C1117 H1105 0.959 . S
C1117 C1115 1.561 . S
C1118 C1115 1.526 . S
C1118 C1119 1.396 . S
C1118 C1123 1.390 . S
C1119 C1113 1.465 . S
C1119 C1118 1.396 . S
C1119 C1120 1.399 . S
C1120 H1106 0.929 . S
C1120 C1119 1.399 . S
C1120 C1121 1.385 . S
C1121 H1107 0.931 . S
C1121 C1120 1.385 . S
C1121 C1122 1.389 . S
C1122 C1121 1.389 . S
C1122 C1123 1.387 . S
C1123 H1108 0.930 . S
C1123 C1118 1.390 . S
C1123 C1122 1.387 . S
H1124 C1136 0.930 . S
H1125 C1138 0.930 . S
H1126 C1139 0.930 . S
H1127 C1143 0.959 . S
H1128 C1143 0.959 . S
H1129 C1143 0.961 . S
H1130 C1144 0.960 . S
H1131 C1144 0.961 . S
H1132 C1144 0.959 . S
H1133 C1147 0.929 . S
H1134 C1148 0.931 . S
H1135 C1150 0.930 . S
C1136 H1124 0.930 . S
C1136 C1137 1.399 . S
C1136 C1141 1.399 . S
C1137 C1136 1.399 . S
C1137 C1138 1.376 1_554 S
C1138 H1125 0.930 . S
C1138 C1137 1.376 1_556 S
C1138 C1139 1.388 . S
C1139 H1126 0.930 . S
C1139 C1138 1.388 . S
C1139 C1140 1.390 1_556 S
C1140 C1139 1.390 1_554 S
C1140 C1141 1.394 . S
C1140 C1146 1.465 . S
C1141 C1136 1.399 . S
C1141 C1140 1.394 . S
C1141 C1142 1.516 . S
C1142 C1141 1.516 . S
C1142 C1143 1.502 . S
C1142 C1144 1.561 . S
C1142 C1145 1.526 . S
C1143 H1127 0.959 . S
C1143 H1128 0.959 . S
C1143 H1129 0.961 . S
C1143 C1142 1.502 . S
C1144 H1130 0.960 . S
C1144 H1131 0.961 . S
C1144 H1132 0.959 . S
C1144 C1142 1.561 . S
C1145 C1142 1.526 . S
C1145 C1146 1.396 . S
C1145 C1150 1.390 . S
C1146 C1140 1.465 . S
C1146 C1145 1.396 . S
C1146 C1147 1.399 1_554 S
C1147 H1133 0.929 . S
C1147 C1146 1.399 1_556 S
C1147 C1148 1.385 . S
C1148 H1134 0.931 . S
C1148 C1147 1.385 . S
C1148 C1149 1.389 1_556 S
C1149 C1148 1.389 1_554 S
C1149 C1150 1.387 . S
C1150 H1135 0.930 . S
C1150 C1145 1.390 . S
C1150 C1149 1.387 . S
H1151 C1163 0.930 . S
H1152 C1165 0.930 . S
H1153 C1166 0.930 . S
H1154 C1170 0.959 . S
H1155 C1170 0.959 . S
H1156 C1170 0.961 . S
H1157 C1171 0.960 . S
H1158 C1171 0.961 . S
H1159 C1171 0.959 . S
H1160 C1174 0.929 . S
H1161 C1175 0.931 . S
H1162 C1177 0.930 . S
C1163 H1151 0.930 . S
C1163 C1164 1.399 . S
C1163 C1168 1.399 . S
C1164 C1163 1.399 . S
C1164 C1165 1.376 . S
C1165 H1152 0.930 . S
C1165 C1164 1.376 . S
C1165 C1166 1.388 . S
C1166 H1153 0.930 . S
C1166 C1165 1.388 . S
C1166 C1167 1.390 . S
C1167 C1166 1.390 . S
C1167 C1168 1.394 . S
C1167 C1173 1.465 . S
C1168 C1163 1.399 . S
C1168 C1167 1.394 . S
C1168 C1169 1.516 . S
C1169 C1168 1.516 . S
C1169 C1170 1.502 . S
C1169 C1171 1.561 . S
C1169 C1172 1.526 . S
C1170 H1154 0.959 . S
C1170 H1155 0.959 . S
C1170 H1156 0.961 . S
C1170 C1169 1.502 . S
C1171 H1157 0.960 . S
C1171 H1158 0.961 . S
C1171 H1159 0.959 . S
C1171 C1169 1.561 . S
C1172 C1169 1.526 . S
C1172 C1173 1.396 . S
C1172 C1177 1.390 . S
C1173 C1167 1.465 . S
C1173 C1172 1.396 . S
C1173 C1174 1.399 . S
C1174 H1160 0.929 . S
C1174 C1173 1.399 . S
C1174 C1175 1.385 . S
C1175 H1161 0.931 . S
C1175 C1174 1.385 . S
C1175 C1176 1.389 . S
C1176 C1175 1.389 . S
C1176 C1177 1.387 . S
C1177 H1162 0.930 . S
C1177 C1172 1.390 . S
C1177 C1176 1.387 . S
H1178 C1190 0.930 . S
H1179 C1192 0.930 . S
H1180 C1193 0.930 . S
H1181 C1197 0.959 . S
H1182 C1197 0.959 . S
H1183 C1197 0.961 . S
H1184 C1198 0.960 . S
H1185 C1198 0.961 . S
H1186 C1198 0.959 . S
H1187 C1201 0.929 . S
H1188 C1202 0.931 . S
H1189 C1204 0.930 . S
C1190 H1178 0.930 . S
C1190 C1191 1.399 . S
C1190 C1195 1.399 . S
C1191 C1190 1.399 . S
C1191 C1192 1.376 . S
C1192 H1179 0.930 . S
C1192 C1191 1.376 . S
C1192 C1193 1.388 . S
C1193 H1180 0.930 . S
C1193 C1192 1.388 . S
C1193 C1194 1.390 . S
C1194 C1193 1.390 . S
C1194 C1195 1.394 . S
C1194 C1200 1.465 . S
C1195 C1190 1.399 . S
C1195 C1194 1.394 . S
C1195 C1196 1.516 . S
C1196 C1195 1.516 . S
C1196 C1197 1.502 . S
C1196 C1198 1.561 . S
C1196 C1199 1.526 . S
C1197 H1181 0.959 . S
C1197 H1182 0.959 . S
C1197 H1183 0.961 . S
C1197 C1196 1.502 . S
C1198 H1184 0.960 . S
C1198 H1185 0.961 . S
C1198 H1186 0.959 . S
C1198 C1196 1.561 . S
C1199 C1196 1.526 . S
C1199 C1200 1.396 . S
C1199 C1204 1.390 . S
C1200 C1194 1.465 . S
C1200 C1199 1.396 . S
C1200 C1201 1.399 . S
C1201 H1187 0.929 . S
C1201 C1200 1.399 . S
C1201 C1202 1.385 . S
C1202 H1188 0.931 . S
C1202 C1201 1.385 . S
C1202 C1203 1.389 . S
C1203 C1202 1.389 . S
C1203 C1204 1.387 . S
C1204 H1189 0.930 . S
C1204 C1199 1.390 . S
C1204 C1203 1.387 . S
H1205 C1217 0.930 . S
H1206 C1219 0.930 . S
H1207 C1220 0.930 . S
H1208 C1224 0.959 . S
H1209 C1224 0.959 . S
H1210 C1224 0.961 . S
H1211 C1225 0.960 . S
H1212 C1225 0.961 . S
H1213 C1225 0.959 . S
H1214 C1228 0.929 . S
H1215 C1229 0.931 . S
H1216 C1231 0.930 . S
C1217 H1205 0.930 . S
C1217 C1218 1.399 . S
C1217 C1222 1.399 . S
C1218 C1217 1.399 . S
C1218 C1219 1.376 . S
C1219 H1206 0.930 . S
C1219 C1218 1.376 . S
C1219 C1220 1.388 . S
C1220 H1207 0.930 . S
C1220 C1219 1.388 . S
C1220 C1221 1.390 . S
C1221 C1220 1.390 . S
C1221 C1222 1.394 . S
C1221 C1227 1.465 . S
C1222 C1217 1.399 . S
C1222 C1221 1.394 . S
C1222 C1223 1.516 . S
C1223 C1222 1.516 . S
C1223 C1224 1.502 . S
C1223 C1225 1.561 . S
C1223 C1226 1.526 . S
C1224 H1208 0.959 . S
C1224 H1209 0.959 . S
C1224 H1210 0.961 . S
C1224 C1223 1.502 . S
C1225 H1211 0.960 . S
C1225 H1212 0.961 . S
C1225 H1213 0.959 . S
C1225 C1223 1.561 . S
C1226 C1223 1.526 . S
C1226 C1227 1.396 . S
C1226 C1231 1.390 . S
C1227 C1221 1.465 . S
C1227 C1226 1.396 . S
C1227 C1228 1.399 . S
C1228 H1214 0.929 . S
C1228 C1227 1.399 . S
C1228 C1229 1.385 . S
C1229 H1215 0.931 . S
C1229 C1228 1.385 . S
C1229 C1230 1.389 . S
C1230 C1229 1.389 . S
C1230 C1231 1.387 . S
C1231 H1216 0.930 . S
C1231 C1226 1.390 . S
C1231 C1230 1.387 . S
H1232 C1244 0.930 . S
H1233 C1246 0.930 . S
H1234 C1247 0.930 . S
H1235 C1251 0.959 . S
H1236 C1251 0.959 . S
H1237 C1251 0.961 . S
H1238 C1252 0.960 . S
H1239 C1252 0.961 . S
H1240 C1252 0.959 . S
H1241 C1255 0.929 . S
H1242 C1256 0.931 . S
H1243 C1258 0.930 . S
C1244 H1232 0.930 . S
C1244 C1245 1.399 . S
C1244 C1249 1.399 . S
C1245 C1244 1.399 . S
C1245 C1246 1.376 . S
C1246 H1233 0.930 . S
C1246 C1245 1.376 . S
C1246 C1247 1.388 . S
C1247 H1234 0.930 . S
C1247 C1246 1.388 . S
C1247 C1248 1.390 . S
C1248 C1247 1.390 . S
C1248 C1249 1.394 . S
C1248 C1254 1.465 . S
C1249 C1244 1.399 . S
C1249 C1248 1.394 . S
C1249 C1250 1.516 . S
C1250 C1249 1.516 . S
C1250 C1251 1.502 . S
C1250 C1252 1.561 . S
C1250 C1253 1.526 . S
C1251 H1235 0.959 . S
C1251 H1236 0.959 . S
C1251 H1237 0.961 . S
C1251 C1250 1.502 . S
C1252 H1238 0.960 . S
C1252 H1239 0.961 . S
C1252 H1240 0.959 . S
C1252 C1250 1.561 . S
C1253 C1250 1.526 . S
C1253 C1254 1.396 . S
C1253 C1258 1.390 . S
C1254 C1248 1.465 . S
C1254 C1253 1.396 . S
C1254 C1255 1.399 . S
C1255 H1241 0.929 . S
C1255 C1254 1.399 . S
C1255 C1256 1.385 . S
C1256 H1242 0.931 . S
C1256 C1255 1.385 . S
C1256 C1257 1.389 . S
C1257 C1256 1.389 . S
C1257 C1258 1.387 . S
C1258 H1243 0.930 . S
C1258 C1253 1.390 . S
C1258 C1257 1.387 . S
H1259 C1271 0.930 . S
H1260 C1273 0.930 . S
H1261 C1274 0.930 . S
H1262 C1278 0.959 . S
H1263 C1278 0.959 . S
H1264 C1278 0.961 . S
H1265 C1279 0.960 . S
H1266 C1279 0.961 . S
H1267 C1279 0.959 . S
H1268 C1282 0.929 . S
H1269 C1283 0.931 . S
H1270 C1285 0.930 . S
C1271 H1259 0.930 . S
C1271 C1272 1.399 . S
C1271 C1276 1.399 . S
C1272 C1271 1.399 . S
C1272 C1273 1.376 . S
C1273 H1260 0.930 . S
C1273 C1272 1.376 . S
C1273 C1274 1.388 . S
C1274 H1261 0.930 . S
C1274 C1273 1.388 . S
C1274 C1275 1.390 . S
C1275 C1274 1.390 . S
C1275 C1276 1.394 . S
C1275 C1281 1.465 . S
C1276 C1271 1.399 . S
C1276 C1275 1.394 . S
C1276 C1277 1.516 . S
C1277 C1276 1.516 . S
C1277 C1278 1.502 . S
C1277 C1279 1.561 . S
C1277 C1280 1.526 . S
C1278 H1262 0.959 . S
C1278 H1263 0.959 . S
C1278 H1264 0.961 . S
C1278 C1277 1.502 . S
C1279 H1265 0.960 . S
C1279 H1266 0.961 . S
C1279 H1267 0.959 . S
C1279 C1277 1.561 . S
C1280 C1277 1.526 . S
C1280 C1281 1.396 . S
C1280 C1285 1.390 . S
C1281 C1275 1.465 . S
C1281 C1280 1.396 . S
C1281 C1282 1.399 . S
C1282 H1268 0.929 . S
C1282 C1281 1.399 . S
C1282 C1283 1.385 . S
C1283 H1269 0.931 . S
C1283 C1282 1.385 . S
C1283 C1284 1.389 . S
C1284 C1283 1.389 . S
C1284 C1285 1.387 . S
C1285 H1270 0.930 . S
C1285 C1280 1.390 . S
C1285 C1284 1.387 . S
H1286 C1298 0.930 . S
H1287 C1300 0.930 . S
H1288 C1301 0.930 . S
H1289 C1305 0.959 . S
H1290 C1305 0.959 . S
H1291 C1305 0.961 . S
H1292 C1306 0.960 . S
H1293 C1306 0.961 . S
H1294 C1306 0.959 . S
H1295 C1309 0.929 . S
H1296 C1310 0.931 . S
H1297 C1312 0.930 . S
C1298 H1286 0.930 . S
C1298 C1299 1.399 . S
C1298 C1303 1.399 . S
C1299 C1298 1.399 . S
C1299 C1300 1.376 . S
C1300 H1287 0.930 . S
C1300 C1299 1.376 . S
C1300 C1301 1.388 . S
C1301 H1288 0.930 . S
C1301 C1300 1.388 . S
C1301 C1302 1.390 . S
C1302 C1301 1.390 . S
C1302 C1303 1.394 . S
C1302 C1308 1.465 . S
C1303 C1298 1.399 . S
C1303 C1302 1.394 . S
C1303 C1304 1.516 . S
C1304 C1303 1.516 . S
C1304 C1305 1.502 . S
C1304 C1306 1.561 . S
C1304 C1307 1.526 . S
C1305 H1289 0.959 . S
C1305 H1290 0.959 . S
C1305 H1291 0.961 . S
C1305 C1304 1.502 . S
C1306 H1292 0.960 . S
C1306 H1293 0.961 . S
C1306 H1294 0.959 . S
C1306 C1304 1.561 . S
C1307 C1304 1.526 . S
C1307 C1308 1.396 . S
C1307 C1312 1.390 . S
C1308 C1302 1.465 . S
C1308 C1307 1.396 . S
C1308 C1309 1.399 . S
C1309 H1295 0.929 . S
C1309 C1308 1.399 . S
C1309 C1310 1.385 . S
C1310 H1296 0.931 . S
C1310 C1309 1.385 . S
C1310 C1311 1.389 . S
C1311 C1310 1.389 . S
C1311 C1312 1.387 . S
C1312 H1297 0.930 . S
C1312 C1307 1.390 . S
C1312 C1311 1.387 . S
H1313 C1325 0.930 . S
H1314 C1327 0.930 . S
H1315 C1328 0.930 . S
H1316 C1332 0.959 . S
H1317 C1332 0.959 . S
H1318 C1332 0.961 . S
H1319 C1333 0.960 . S
H1320 C1333 0.961 . S
H1321 C1333 0.959 . S
H1322 C1336 0.929 . S
H1323 C1337 0.931 . S
H1324 C1339 0.930 . S
C1325 H1313 0.930 . S
C1325 C1326 1.399 . S
C1325 C1330 1.399 . S
C1326 C1325 1.399 . S
C1326 C1327 1.376 . S
C1327 H1314 0.930 . S
C1327 C1326 1.376 . S
C1327 C1328 1.388 . S
C1328 H1315 0.930 . S
C1328 C1327 1.388 . S
C1328 C1329 1.390 . S
C1329 C1328 1.390 . S
C1329 C1330 1.394 . S
C1329 C1335 1.465 . S
C1330 C1325 1.399 . S
C1330 C1329 1.394 . S
C1330 C1331 1.516 . S
C1331 C1330 1.516 . S
C1331 C1332 1.502 . S
C1331 C1333 1.561 . S
C1331 C1334 1.526 . S
C1332 H1316 0.959 . S
C1332 H1317 0.959 . S
C1332 H1318 0.961 . S
C1332 C1331 1.502 . S
C1333 H1319 0.960 . S
C1333 H1320 0.961 . S
C1333 H1321 0.959 . S
C1333 C1331 1.561 . S
C1334 C1331 1.526 . S
C1334 C1335 1.396 . S
C1334 C1339 1.390 . S
C1335 C1329 1.465 . S
C1335 C1334 1.396 . S
C1335 C1336 1.399 . S
C1336 H1322 0.929 . S
C1336 C1335 1.399 . S
C1336 C1337 1.385 . S
C1337 H1323 0.931 . S
C1337 C1336 1.385 . S
C1337 C1338 1.389 . S
C1338 C1337 1.389 . S
C1338 C1339 1.387 . S
C1339 H1324 0.930 . S
C1339 C1334 1.390 . S
C1339 C1338 1.387 . S
H1340 C1352 0.930 . S
H1341 C1354 0.930 . S
H1342 C1355 0.930 . S
H1343 C1359 0.959 . S
H1344 C1359 0.959 . S
H1345 C1359 0.961 . S
H1346 C1360 0.960 . S
H1347 C1360 0.961 . S
H1348 C1360 0.959 . S
H1349 C1363 0.929 . S
H1350 C1364 0.931 . S
H1351 C1366 0.930 . S
C1352 H1340 0.930 . S
C1352 C1353 1.399 . S
C1352 C1357 1.399 . S
C1353 C1352 1.399 . S
C1353 C1354 1.376 . S
C1354 H1341 0.930 . S
C1354 C1353 1.376 . S
C1354 C1355 1.388 . S
C1355 H1342 0.930 . S
C1355 C1354 1.388 . S
C1355 C1356 1.390 . S
C1356 C1355 1.390 . S
C1356 C1357 1.394 . S
C1356 C1362 1.465 . S
C1357 C1352 1.399 . S
C1357 C1356 1.394 . S
C1357 C1358 1.516 . S
C1358 C1357 1.516 . S
C1358 C1359 1.502 . S
C1358 C1360 1.561 . S
C1358 C1361 1.526 . S
C1359 H1343 0.959 . S
C1359 H1344 0.959 . S
C1359 H1345 0.961 . S
C1359 C1358 1.502 . S
C1360 H1346 0.960 . S
C1360 H1347 0.961 . S
C1360 H1348 0.959 . S
C1360 C1358 1.561 . S
C1361 C1358 1.526 . S
C1361 C1362 1.396 . S
C1361 C1366 1.390 . S
C1362 C1356 1.465 . S
C1362 C1361 1.396 . S
C1362 C1363 1.399 . S
C1363 H1349 0.929 . S
C1363 C1362 1.399 . S
C1363 C1364 1.385 . S
C1364 H1350 0.931 . S
C1364 C1363 1.385 . S
C1364 C1365 1.389 . S
C1365 C1364 1.389 . S
C1365 C1366 1.387 . S
C1366 H1351 0.930 . S
C1366 C1361 1.390 . S
C1366 C1365 1.387 . S
H1367 C1379 0.930 . S
H1368 C1381 0.930 . S
H1369 C1382 0.930 . S
H1370 C1386 0.959 . S
H1371 C1386 0.959 . S
H1372 C1386 0.961 . S
H1373 C1387 0.960 . S
H1374 C1387 0.961 . S
H1375 C1387 0.959 . S
H1376 C1390 0.929 . S
H1377 C1391 0.931 . S
H1378 C1393 0.930 . S
C1379 H1367 0.930 . S
C1379 C1380 1.399 . S
C1379 C1384 1.399 . S
C1380 C1379 1.399 . S
C1380 C1381 1.376 1_565 S
C1381 H1368 0.930 . S
C1381 C1380 1.376 1_545 S
C1381 C1382 1.388 . S
C1382 H1369 0.930 . S
C1382 C1381 1.388 . S
C1382 C1383 1.390 1_545 S
C1383 C1382 1.390 1_565 S
C1383 C1384 1.394 . S
C1383 C1389 1.465 . S
C1384 C1379 1.399 . S
C1384 C1383 1.394 . S
C1384 C1385 1.516 . S
C1385 C1384 1.516 . S
C1385 C1386 1.502 . S
C1385 C1387 1.561 . S
C1385 C1388 1.526 . S
C1386 H1370 0.959 . S
C1386 H1371 0.959 . S
C1386 H1372 0.961 . S
C1386 C1385 1.502 . S
C1387 H1373 0.960 . S
C1387 H1374 0.961 . S
C1387 H1375 0.959 . S
C1387 C1385 1.561 . S
C1388 C1385 1.526 . S
C1388 C1389 1.396 . S
C1388 C1393 1.390 . S
C1389 C1383 1.465 . S
C1389 C1388 1.396 . S
C1389 C1390 1.399 1_565 S
C1390 H1376 0.929 . S
C1390 C1389 1.399 1_545 S
C1390 C1391 1.385 . S
C1391 H1377 0.931 . S
C1391 C1390 1.385 . S
C1391 C1392 1.389 1_545 S
C1392 C1391 1.389 1_565 S
C1392 C1393 1.387 . S
C1393 H1378 0.930 . S
C1393 C1388 1.390 . S
C1393 C1392 1.387 . S
H1394 C1406 0.930 . S
H1395 C1408 0.930 . S
H1396 C1409 0.930 . S
H1397 C1413 0.959 . S
H1398 C1413 0.959 . S
H1399 C1413 0.961 . S
H1400 C1414 0.960 . S
H1401 C1414 0.961 . S
H1402 C1414 0.959 . S
H1403 C1417 0.929 . S
H1404 C1418 0.931 . S
H1405 C1420 0.930 . S
C1406 H1394 0.930 . S
C1406 C1407 1.399 . S
C1406 C1411 1.399 . S
C1407 C1406 1.399 . S
C1407 C1408 1.376 . S
C1408 H1395 0.930 . S
C1408 C1407 1.376 . S
C1408 C1409 1.388 . S
C1409 H1396 0.930 . S
C1409 C1408 1.388 . S
C1409 C1410 1.390 . S
C1410 C1409 1.390 . S
C1410 C1411 1.394 . S
C1410 C1416 1.465 . S
C1411 C1406 1.399 . S
C1411 C1410 1.394 . S
C1411 C1412 1.516 . S
C1412 C1411 1.516 . S
C1412 C1413 1.502 . S
C1412 C1414 1.561 . S
C1412 C1415 1.526 . S
C1413 H1397 0.959 . S
C1413 H1398 0.959 . S
C1413 H1399 0.961 . S
C1413 C1412 1.502 . S
C1414 H1400 0.960 . S
C1414 H1401 0.961 . S
C1414 H1402 0.959 . S
C1414 C1412 1.561 . S
C1415 C1412 1.526 . S
C1415 C1416 1.396 . S
C1415 C1420 1.390 . S
C1416 C1410 1.465 . S
C1416 C1415 1.396 . S
C1416 C1417 1.399 . S
C1417 H1403 0.929 . S
C1417 C1416 1.399 . S
C1417 C1418 1.385 . S
C1418 H1404 0.931 . S
C1418 C1417 1.385 . S
C1418 C1419 1.389 . S
C1419 C1418 1.389 . S
C1419 C1420 1.387 . S
C1420 H1405 0.930 . S
C1420 C1415 1.390 . S
C1420 C1419 1.387 . S
H1421 C1433 0.930 . S
H1422 C1435 0.930 . S
H1423 C1436 0.930 . S
H1424 C1440 0.959 . S
H1425 C1440 0.959 . S
H1426 C1440 0.961 . S
H1427 C1441 0.960 . S
H1428 C1441 0.961 . S
H1429 C1441 0.959 . S
H1430 C1444 0.929 . S
H1431 C1445 0.931 . S
H1432 C1447 0.930 . S
C1433 H1421 0.930 . S
C1433 C1434 1.399 . S
C1433 C1438 1.399 . S
C1434 C1433 1.399 . S
C1434 C1435 1.376 1_545 S
C1435 H1422 0.930 . S
C1435 C1434 1.376 1_565 S
C1435 C1436 1.388 . S
C1436 H1423 0.930 . S
C1436 C1435 1.388 . S
C1436 C1437 1.390 1_565 S
C1437 C1436 1.390 1_545 S
C1437 C1438 1.394 . S
C1437 C1443 1.465 . S
C1438 C1433 1.399 . S
C1438 C1437 1.394 . S
C1438 C1439 1.516 . S
C1439 C1438 1.516 . S
C1439 C1440 1.502 . S
C1439 C1441 1.561 . S
C1439 C1442 1.526 . S
C1440 H1424 0.959 . S
C1440 H1425 0.959 . S
C1440 H1426 0.961 . S
C1440 C1439 1.502 . S
C1441 H1427 0.960 . S
C1441 H1428 0.961 . S
C1441 H1429 0.959 . S
C1441 C1439 1.561 . S
C1442 C1439 1.526 . S
C1442 C1443 1.396 . S
C1442 C1447 1.390 . S
C1443 C1437 1.465 . S
C1443 C1442 1.396 . S
C1443 C1444 1.399 1_545 S
C1444 H1430 0.929 . S
C1444 C1443 1.399 1_565 S
C1444 C1445 1.385 . S
C1445 H1431 0.931 . S
C1445 C1444 1.385 . S
C1445 C1446 1.389 1_565 S
C1446 C1445 1.389 1_545 S
C1446 C1447 1.387 . S
C1447 H1432 0.930 . S
C1447 C1442 1.390 . S
C1447 C1446 1.387 . S
H1448 C1460 0.930 . S
H1449 C1462 0.930 . S
H1450 C1463 0.930 . S
H1451 C1467 0.959 . S
H1452 C1467 0.959 . S
H1453 C1467 0.961 . S
H1454 C1468 0.960 . S
H1455 C1468 0.961 . S
H1456 C1468 0.959 . S
H1457 C1471 0.929 . S
H1458 C1472 0.931 . S
H1459 C1474 0.930 . S
C1460 H1448 0.930 . S
C1460 C1461 1.399 . S
C1460 C1465 1.399 . S
C1461 C1460 1.399 . S
C1461 C1462 1.376 . S
C1462 H1449 0.930 . S
C1462 C1461 1.376 . S
C1462 C1463 1.388 . S
C1463 H1450 0.930 . S
C1463 C1462 1.388 . S
C1463 C1464 1.390 . S
C1464 C1463 1.390 . S
C1464 C1465 1.394 . S
C1464 C1470 1.465 . S
C1465 C1460 1.399 . S
C1465 C1464 1.394 . S
C1465 C1466 1.516 . S
C1466 C1465 1.516 . S
C1466 C1467 1.502 . S
C1466 C1468 1.561 . S
C1466 C1469 1.526 . S
C1467 H1451 0.959 . S
C1467 H1452 0.959 . S
C1467 H1453 0.961 . S
C1467 C1466 1.502 . S
C1468 H1454 0.960 . S
C1468 H1455 0.961 . S
C1468 H1456 0.959 . S
C1468 C1466 1.561 . S
C1469 C1466 1.526 . S
C1469 C1470 1.396 . S
C1469 C1474 1.390 . S
C1470 C1464 1.465 . S
C1470 C1469 1.396 . S
C1470 C1471 1.399 . S
C1471 H1457 0.929 . S
C1471 C1470 1.399 . S
C1471 C1472 1.385 . S
C1472 H1458 0.931 . S
C1472 C1471 1.385 . S
C1472 C1473 1.389 . S
C1473 C1472 1.389 . S
C1473 C1474 1.387 . S
C1474 H1459 0.930 . S
C1474 C1469 1.390 . S
C1474 C1473 1.387 . S
H1475 C1487 0.930 . S
H1476 C1489 0.930 . S
H1477 C1490 0.930 . S
H1478 C1494 0.959 . S
H1479 C1494 0.959 . S
H1480 C1494 0.961 . S
H1481 C1495 0.960 . S
H1482 C1495 0.961 . S
H1483 C1495 0.959 . S
H1484 C1498 0.929 . S
H1485 C1499 0.931 . S
H1486 C1501 0.930 . S
C1487 H1475 0.930 . S
C1487 C1488 1.399 . S
C1487 C1492 1.399 . S
C1488 C1487 1.399 . S
C1488 C1489 1.376 1_556 S
C1489 H1476 0.930 . S
C1489 C1488 1.376 1_554 S
C1489 C1490 1.388 . S
C1490 H1477 0.930 . S
C1490 C1489 1.388 . S
C1490 C1491 1.390 1_554 S
C1491 C1490 1.390 1_556 S
C1491 C1492 1.394 . S
C1491 C1497 1.465 . S
C1492 C1487 1.399 . S
C1492 C1491 1.394 . S
C1492 C1493 1.516 . S
C1493 C1492 1.516 . S
C1493 C1494 1.502 . S
C1493 C1495 1.561 . S
C1493 C1496 1.526 . S
C1494 H1478 0.959 . S
C1494 H1479 0.959 . S
C1494 H1480 0.961 . S
C1494 C1493 1.502 . S
C1495 H1481 0.960 . S
C1495 H1482 0.961 . S
C1495 H1483 0.959 . S
C1495 C1493 1.561 . S
C1496 C1493 1.526 . S
C1496 C1497 1.396 . S
C1496 C1501 1.390 . S
C1497 C1491 1.465 . S
C1497 C1496 1.396 . S
C1497 C1498 1.399 1_556 S
C1498 H1484 0.929 . S
C1498 C1497 1.399 1_554 S
C1498 C1499 1.385 . S
C1499 H1485 0.931 . S
C1499 C1498 1.385 . S
C1499 C1500 1.389 1_554 S
C1500 C1499 1.389 1_556 S
C1500 C1501 1.387 . S
C1501 H1486 0.930 . S
C1501 C1496 1.390 . S
C1501 C1500 1.387 . S
H1502 C1514 0.930 . S
H1503 C1516 0.930 . S
H1504 C1517 0.930 . S
H1505 C1521 0.959 . S
H1506 C1521 0.959 . S
H1507 C1521 0.961 . S
H1508 C1522 0.960 . S
H1509 C1522 0.961 . S
H1510 C1522 0.959 . S
H1511 C1525 0.929 . S
H1512 C1526 0.931 . S
H1513 C1528 0.930 . S
C1514 H1502 0.930 . S
C1514 C1515 1.399 . S
C1514 C1519 1.399 . S
C1515 C1514 1.399 . S
C1515 C1516 1.376 1_556 S
C1516 H1503 0.930 . S
C1516 C1515 1.376 1_554 S
C1516 C1517 1.388 . S
C1517 H1504 0.930 . S
C1517 C1516 1.388 . S
C1517 C1518 1.390 1_554 S
C1518 C1517 1.390 1_556 S
C1518 C1519 1.394 . S
C1518 C1524 1.465 . S
C1519 C1514 1.399 . S
C1519 C1518 1.394 . S
C1519 C1520 1.516 . S
C1520 C1519 1.516 . S
C1520 C1521 1.502 . S
C1520 C1522 1.561 . S
C1520 C1523 1.526 . S
C1521 H1505 0.959 . S
C1521 H1506 0.959 . S
C1521 H1507 0.961 . S
C1521 C1520 1.502 . S
C1522 H1508 0.960 . S
C1522 H1509 0.961 . S
C1522 H1510 0.959 . S
C1522 C1520 1.561 . S
C1523 C1520 1.526 . S
C1523 C1524 1.396 . S
C1523 C1528 1.390 . S
C1524 C1518 1.465 . S
C1524 C1523 1.396 . S
C1524 C1525 1.399 1_556 S
C1525 H1511 0.929 . S
C1525 C1524 1.399 1_554 S
C1525 C1526 1.385 . S
C1526 H1512 0.931 . S
C1526 C1525 1.385 . S
C1526 C1527 1.389 1_554 S
C1527 C1526 1.389 1_556 S
C1527 C1528 1.387 . S
C1528 H1513 0.930 . S
C1528 C1523 1.390 . S
C1528 C1527 1.387 . S
H1529 C1541 0.930 . S
H1530 C1543 0.930 . S
H1531 C1544 0.930 . S
H1532 C1548 0.959 . S
H1533 C1548 0.959 1_556 S
H1534 C1548 0.961 1_556 S
H1535 C1549 0.960 . S
H1536 C1549 0.961 . S
H1537 C1549 0.959 . S
H1538 C1552 0.929 . S
H1539 C1553 0.931 . S
H1540 C1555 0.929 . S
C1541 H1529 0.930 . S
C1541 C1542 1.399 . S
C1541 C1546 1.399 . S
C1542 C1541 1.399 . S
C1542 C1543 1.376 . S
C1543 H1530 0.930 . S
C1543 C1542 1.376 . S
C1543 C1544 1.388 . S
C1544 H1531 0.930 . S
C1544 C1543 1.388 . S
C1544 C1545 1.390 . S
C1545 C1544 1.390 . S
C1545 C1546 1.394 . S
C1545 C1551 1.465 . S
C1546 C1541 1.399 . S
C1546 C1545 1.394 . S
C1546 C1547 1.516 . S
C1547 C1546 1.516 . S
C1547 C1548 1.502 . S
C1547 C1549 1.561 1_554 S
C1547 C1550 1.526 . S
C1548 H1532 0.959 . S
C1548 H1533 0.959 1_554 S
C1548 H1534 0.961 1_554 S
C1548 C1547 1.502 . S
C1549 H1535 0.960 . S
C1549 H1536 0.961 . S
C1549 H1537 0.959 . S
C1549 C1547 1.561 1_556 S
C1550 C1547 1.526 . S
C1550 C1551 1.396 . S
C1550 C1555 1.390 . S
C1551 C1545 1.465 . S
C1551 C1550 1.396 . S
C1551 C1552 1.399 . S
C1552 H1538 0.929 . S
C1552 C1551 1.399 . S
C1552 C1553 1.385 1_655 S
C1553 H1539 0.931 . S
C1553 C1552 1.385 1_455 S
C1553 C1554 1.389 . S
C1554 C1553 1.389 . S
C1554 C1555 1.387 1_455 S
C1555 H1540 0.929 . S
C1555 C1550 1.390 . S
C1555 C1554 1.387 1_655 S
H1556 C1568 0.930 . S
H1557 C1570 0.930 . S
H1558 C1571 0.930 . S
H1559 C1575 0.959 . S
H1560 C1575 0.959 . S
H1561 C1575 0.961 . S
H1562 C1576 0.960 . S
H1563 C1576 0.961 . S
H1564 C1576 0.959 1_655 S
H1565 C1579 0.929 . S
H1566 C1580 0.931 . S
H1567 C1582 0.930 . S
C1568 H1556 0.930 . S
C1568 C1569 1.399 . S
C1568 C1573 1.399 . S
C1569 C1568 1.399 . S
C1569 C1570 1.376 . S
C1570 H1557 0.930 . S
C1570 C1569 1.376 . S
C1570 C1571 1.388 . S
C1571 H1558 0.930 . S
C1571 C1570 1.388 . S
C1571 C1572 1.390 . S
C1572 C1571 1.390 . S
C1572 C1573 1.394 . S
C1572 C1578 1.465 . S
C1573 C1568 1.399 . S
C1573 C1572 1.394 . S
C1573 C1574 1.516 . S
C1574 C1573 1.516 . S
C1574 C1575 1.502 . S
C1574 C1576 1.561 . S
C1574 C1577 1.526 . S
C1575 H1559 0.959 . S
C1575 H1560 0.959 . S
C1575 H1561 0.961 . S
C1575 C1574 1.502 . S
C1576 H1562 0.960 . S
C1576 H1563 0.961 . S
C1576 H1564 0.959 1_455 S
C1576 C1574 1.561 . S
C1577 C1574 1.526 . S
C1577 C1578 1.396 . S
C1577 C1582 1.390 . S
C1578 C1572 1.465 . S
C1578 C1577 1.396 . S
C1578 C1579 1.399 . S
C1579 H1565 0.929 . S
C1579 C1578 1.399 . S
C1579 C1580 1.385 . S
C1580 H1566 0.931 . S
C1580 C1579 1.385 . S
C1580 C1581 1.389 . S
C1581 C1580 1.389 . S
C1581 C1582 1.387 . S
C1582 H1567 0.930 . S
C1582 C1577 1.390 . S
C1582 C1581 1.387 . S
H1583 C1595 0.930 . S
H1584 C1597 0.930 . S
H1585 C1598 0.930 . S
H1586 C1602 0.959 . S
H1587 C1602 0.959 . S
H1588 C1602 0.961 . S
H1589 C1603 0.960 . S
H1590 C1603 0.961 . S
H1591 C1603 0.959 . S
H1592 C1606 0.929 . S
H1593 C1607 0.931 . S
H1594 C1609 0.930 . S
C1595 H1583 0.930 . S
C1595 C1596 1.399 1_455 S
C1595 C1600 1.399 . S
C1596 C1595 1.399 1_655 S
C1596 C1597 1.376 . S
C1597 H1584 0.930 . S
C1597 C1596 1.376 . S
C1597 C1598 1.388 . S
C1598 H1585 0.930 . S
C1598 C1597 1.388 . S
C1598 C1599 1.390 . S
C1599 C1598 1.390 . S
C1599 C1600 1.394 1_655 S
C1599 C1605 1.465 . S
C1600 C1595 1.399 . S
C1600 C1599 1.394 1_455 S
C1600 C1601 1.516 . S
C1601 C1600 1.516 . S
C1601 C1602 1.502 . S
C1601 C1603 1.561 . S
C1601 C1604 1.526 . S
C1602 H1586 0.959 . S
C1602 H1587 0.959 . S
C1602 H1588 0.961 . S
C1602 C1601 1.502 . S
C1603 H1589 0.960 . S
C1603 H1590 0.961 . S
C1603 H1591 0.959 . S
C1603 C1601 1.561 . S
C1604 C1601 1.526 . S
C1604 C1605 1.396 1_455 S
C1604 C1609 1.390 . S
C1605 C1599 1.465 . S
C1605 C1604 1.396 1_655 S
C1605 C1606 1.399 . S
C1606 H1592 0.929 . S
C1606 C1605 1.399 . S
C1606 C1607 1.385 . S
C1607 H1593 0.931 . S
C1607 C1606 1.385 . S
C1607 C1608 1.389 . S
C1608 C1607 1.389 . S
C1608 C1609 1.387 1_655 S
C1609 H1594 0.930 . S
C1609 C1604 1.390 . S
C1609 C1608 1.387 1_455 S
H1610 C1622 0.930 . S
H1611 C1624 0.930 . S
H1612 C1625 0.930 . S
H1613 C1629 0.959 . S
H1614 C1629 0.959 . S
H1615 C1629 0.961 . S
H1616 C1630 0.960 . S
H1617 C1630 0.961 . S
H1618 C1630 0.959 . S
H1619 C1633 0.929 . S
H1620 C1634 0.931 . S
H1621 C1636 0.930 . S
C1622 H1610 0.930 . S
C1622 C1623 1.399 . S
C1622 C1627 1.399 . S
C1623 C1622 1.399 . S
C1623 C1624 1.376 1_455 S
C1624 H1611 0.930 . S
C1624 C1623 1.376 1_655 S
C1624 C1625 1.388 . S
C1625 H1612 0.930 . S
C1625 C1624 1.388 . S
C1625 C1626 1.390 1_655 S
C1626 C1625 1.390 1_455 S
C1626 C1627 1.394 . S
C1626 C1632 1.465 . S
C1627 C1622 1.399 . S
C1627 C1626 1.394 . S
C1627 C1628 1.516 . S
C1628 C1627 1.516 . S
C1628 C1629 1.502 . S
C1628 C1630 1.561 . S
C1628 C1631 1.526 . S
C1629 H1613 0.959 . S
C1629 H1614 0.959 . S
C1629 H1615 0.961 . S
C1629 C1628 1.502 . S
C1630 H1616 0.960 . S
C1630 H1617 0.961 . S
C1630 H1618 0.959 . S
C1630 C1628 1.561 . S
C1631 C1628 1.526 . S
C1631 C1632 1.396 . S
C1631 C1636 1.390 . S
C1632 C1626 1.465 . S
C1632 C1631 1.396 . S
C1632 C1633 1.399 1_455 S
C1633 H1619 0.929 . S
C1633 C1632 1.399 1_655 S
C1633 C1634 1.385 . S
C1634 H1620 0.931 . S
C1634 C1633 1.385 . S
C1634 C1635 1.389 1_655 S
C1635 C1634 1.389 1_455 S
C1635 C1636 1.387 . S
C1636 H1621 0.930 . S
C1636 C1631 1.390 . S
C1636 C1635 1.387 . S
H1637 C1649 0.930 . S
H1638 C1651 0.930 . S
H1639 C1652 0.930 . S
H1640 C1656 0.959 . S
H1641 C1656 0.959 . S
H1642 C1656 0.961 . S
H1643 C1657 0.960 . S
H1644 C1657 0.961 . S
H1645 C1657 0.959 . S
H1646 C1660 0.929 . S
H1647 C1661 0.931 . S
H1648 C1663 0.930 . S
C1649 H1637 0.930 . S
C1649 C1650 1.399 . S
C1649 C1654 1.399 . S
C1650 C1649 1.399 . S
C1650 C1651 1.376 . S
C1651 H1638 0.930 . S
C1651 C1650 1.376 . S
C1651 C1652 1.388 . S
C1652 H1639 0.930 . S
C1652 C1651 1.388 . S
C1652 C1653 1.390 . S
C1653 C1652 1.390 . S
C1653 C1654 1.394 . S
C1653 C1659 1.465 . S
C1654 C1649 1.399 . S
C1654 C1653 1.394 . S
C1654 C1655 1.516 . S
C1655 C1654 1.516 . S
C1655 C1656 1.502 1_655 S
C1655 C1657 1.561 . S
C1655 C1658 1.526 . S
C1656 H1640 0.959 . S
C1656 H1641 0.959 . S
C1656 H1642 0.961 . S
C1656 C1655 1.502 1_455 S
C1657 H1643 0.960 . S
C1657 H1644 0.961 . S
C1657 H1645 0.959 . S
C1657 C1655 1.561 . S
C1658 C1655 1.526 . S
C1658 C1659 1.396 . S
C1658 C1663 1.390 . S
C1659 C1653 1.465 . S
C1659 C1658 1.396 . S
C1659 C1660 1.399 . S
C1660 H1646 0.929 . S
C1660 C1659 1.399 . S
C1660 C1661 1.385 . S
C1661 H1647 0.931 . S
C1661 C1660 1.385 . S
C1661 C1662 1.389 . S
C1662 C1661 1.389 . S
C1662 C1663 1.387 . S
C1663 H1648 0.930 . S
C1663 C1658 1.390 . S
C1663 C1662 1.387 . S
H1664 C1676 0.930 1_565 S
H1665 C1678 0.930 . S
H1666 C1679 0.930 . S
H1667 C1683 0.959 1_545 S
H1668 C1683 0.959 . S
H1669 C1683 0.961 . S
H1670 C1684 0.960 . S
H1671 C1684 0.961 . S
H1672 C1684 0.959 . S
H1673 C1687 0.929 . S
H1674 C1688 0.931 . S
H1675 C1690 0.930 . S
C1676 H1664 0.930 1_545 S
C1676 C1677 1.399 . S
C1676 C1681 1.399 . S
C1677 C1676 1.399 . S
C1677 C1678 1.376 . S
C1678 H1665 0.930 . S
C1678 C1677 1.376 . S
C1678 C1679 1.388 . S
C1679 H1666 0.930 . S
C1679 C1678 1.388 . S
C1679 C1680 1.390 . S
C1680 C1679 1.390 . S
C1680 C1681 1.394 . S
C1680 C1686 1.465 . S
C1681 C1676 1.399 . S
C1681 C1680 1.394 . S
C1681 C1682 1.516 . S
C1682 C1681 1.516 . S
C1682 C1683 1.502 1_545 S
C1682 C1684 1.561 1_545 S
C1682 C1685 1.526 . S
C1683 H1667 0.959 1_565 S
C1683 H1668 0.959 . S
C1683 H1669 0.961 . S
C1683 C1682 1.502 1_565 S
C1684 H1670 0.960 . S
C1684 H1671 0.961 . S
C1684 H1672 0.959 . S
C1684 C1682 1.561 1_565 S
C1685 C1682 1.526 . S
C1685 C1686 1.396 . S
C1685 C1690 1.390 . S
C1686 C1680 1.465 . S
C1686 C1685 1.396 . S
C1686 C1687 1.399 . S
C1687 H1673 0.929 . S
C1687 C1686 1.399 . S
C1687 C1688 1.385 . S
C1688 H1674 0.931 . S
C1688 C1687 1.385 . S
C1688 C1689 1.389 . S
C1689 C1688 1.389 . S
C1689 C1690 1.387 . S
C1690 H1675 0.930 . S
C1690 C1685 1.390 . S
C1690 C1689 1.387 . S
H1691 C1703 0.930 . S
H1692 C1705 0.930 . S
H1693 C1706 0.930 . S
H1694 C1710 0.959 . S
H1695 C1710 0.959 . S
H1696 C1710 0.961 . S
H1697 C1711 0.960 . S
H1698 C1711 0.961 . S
H1699 C1711 0.959 . S
H1700 C1714 0.929 . S
H1701 C1715 0.931 . S
H1702 C1717 0.930 . S
C1703 H1691 0.930 . S
C1703 C1704 1.399 . S
C1703 C1708 1.399 . S
C1704 C1703 1.399 . S
C1704 C1705 1.376 . S
C1705 H1692 0.930 . S
C1705 C1704 1.376 . S
C1705 C1706 1.388 . S
C1706 H1693 0.930 . S
C1706 C1705 1.388 . S
C1706 C1707 1.390 . S
C1707 C1706 1.390 . S
C1707 C1708 1.394 . S
C1707 C1713 1.465 . S
C1708 C1703 1.399 . S
C1708 C1707 1.394 . S
C1708 C1709 1.516 . S
C1709 C1708 1.516 . S
C1709 C1710 1.502 . S
C1709 C1711 1.561 . S
C1709 C1712 1.526 . S
C1710 H1694 0.959 . S
C1710 H1695 0.959 . S
C1710 H1696 0.961 . S
C1710 C1709 1.502 . S
C1711 H1697 0.960 . S
C1711 H1698 0.961 . S
C1711 H1699 0.959 . S
C1711 C1709 1.561 . S
C1712 C1709 1.526 . S
C1712 C1713 1.396 . S
C1712 C1717 1.390 . S
C1713 C1707 1.465 . S
C1713 C1712 1.396 . S
C1713 C1714 1.399 . S
C1714 H1700 0.929 . S
C1714 C1713 1.399 . S
C1714 C1715 1.385 . S
C1715 H1701 0.931 . S
C1715 C1714 1.385 . S
C1715 C1716 1.389 . S
C1716 C1715 1.389 . S
C1716 C1717 1.387 . S
C1717 H1702 0.930 . S
C1717 C1712 1.390 . S
C1717 C1716 1.387 . S
H1718 C1730 0.930 . S
H1719 C1732 0.930 . S
H1720 C1733 0.930 . S
H1721 C1737 0.959 . S
H1722 C1737 0.959 . S
H1723 C1737 0.961 . S
H1724 C1738 0.960 . S
H1725 C1738 0.961 . S
H1726 C1738 0.959 . S
H1727 C1741 0.929 1_545 S
H1728 C1742 0.931 . S
H1729 C1744 0.930 . S
C1730 H1718 0.930 . S
C1730 C1731 1.399 . S
C1730 C1735 1.399 . S
C1731 C1730 1.399 . S
C1731 C1732 1.376 1_565 S
C1732 H1719 0.930 . S
C1732 C1731 1.376 1_545 S
C1732 C1733 1.388 . S
C1733 H1720 0.930 . S
C1733 C1732 1.388 . S
C1733 C1734 1.390 1_545 S
C1734 C1733 1.390 1_565 S
C1734 C1735 1.394 . S
C1734 C1740 1.465 . S
C1735 C1730 1.399 . S
C1735 C1734 1.394 . S
C1735 C1736 1.516 . S
C1736 C1735 1.516 . S
C1736 C1737 1.502 . S
C1736 C1738 1.561 . S
C1736 C1739 1.526 . S
C1737 H1721 0.959 . S
C1737 H1722 0.959 . S
C1737 H1723 0.961 . S
C1737 C1736 1.502 . S
C1738 H1724 0.960 . S
C1738 H1725 0.961 . S
C1738 H1726 0.959 . S
C1738 C1736 1.561 . S
C1739 C1736 1.526 . S
C1739 C1740 1.396 . S
C1739 C1744 1.390 . S
C1740 C1734 1.465 . S
C1740 C1739 1.396 . S
C1740 C1741 1.399 . S
C1741 H1727 0.929 1_565 S
C1741 C1740 1.399 . S
C1741 C1742 1.385 . S
C1742 H1728 0.931 . S
C1742 C1741 1.385 . S
C1742 C1743 1.389 . S
C1743 C1742 1.389 . S
C1743 C1744 1.387 . S
C1744 H1729 0.930 . S
C1744 C1739 1.390 . S
C1744 C1743 1.387 . S
H1745 C1757 0.930 . S
H1746 C1759 0.930 . S
H1747 C1760 0.930 . S
H1748 C1764 0.959 . S
H1749 C1764 0.959 . S
H1750 C1764 0.961 . S
H1751 C1765 0.960 . S
H1752 C1765 0.961 . S
H1753 C1765 0.959 . S
H1754 C1768 0.929 . S
H1755 C1769 0.931 . S
H1756 C1771 0.930 . S
C1757 H1745 0.930 . S
C1757 C1758 1.399 . S
C1757 C1762 1.399 . S
C1758 C1757 1.399 . S
C1758 C1759 1.376 . S
C1759 H1746 0.930 . S
C1759 C1758 1.376 . S
C1759 C1760 1.388 . S
C1760 H1747 0.930 . S
C1760 C1759 1.388 . S
C1760 C1761 1.390 . S
C1761 C1760 1.390 . S
C1761 C1762 1.394 . S
C1761 C1767 1.465 . S
C1762 C1757 1.399 . S
C1762 C1761 1.394 . S
C1762 C1763 1.516 . S
C1763 C1762 1.516 . S
C1763 C1764 1.502 . S
C1763 C1765 1.561 . S
C1763 C1766 1.526 . S
C1764 H1748 0.959 . S
C1764 H1749 0.959 . S
C1764 H1750 0.961 . S
C1764 C1763 1.502 . S
C1765 H1751 0.960 . S
C1765 H1752 0.961 . S
C1765 H1753 0.959 . S
C1765 C1763 1.561 . S
C1766 C1763 1.526 . S
C1766 C1767 1.396 . S
C1766 C1771 1.390 . S
C1767 C1761 1.465 . S
C1767 C1766 1.396 . S
C1767 C1768 1.399 . S
C1768 H1754 0.929 . S
C1768 C1767 1.399 . S
C1768 C1769 1.385 . S
C1769 H1755 0.931 . S
C1769 C1768 1.385 . S
C1769 C1770 1.389 . S
C1770 C1769 1.389 . S
C1770 C1771 1.387 . S
C1771 H1756 0.930 . S
C1771 C1766 1.390 . S
C1771 C1770 1.387 . S
H1772 C1784 0.930 . S
H1773 C1786 0.930 1_556 S
H1774 C1787 0.930 1_556 S
H1775 C1791 0.959 . S
H1776 C1791 0.959 . S
H1777 C1791 0.961 . S
H1778 C1792 0.960 . S
H1779 C1792 0.961 . S
H1780 C1792 0.959 . S
H1781 C1795 0.929 . S
H1782 C1796 0.931 . S
H1783 C1798 0.930 . S
C1784 H1772 0.930 . S
C1784 C1785 1.399 . S
C1784 C1789 1.399 . S
C1785 C1784 1.399 . S
C1785 C1786 1.376 . S
C1786 H1773 0.930 1_554 S
C1786 C1785 1.376 . S
C1786 C1787 1.388 . S
C1787 H1774 0.930 1_554 S
C1787 C1786 1.388 . S
C1787 C1788 1.390 . S
C1788 C1787 1.390 . S
C1788 C1789 1.394 . S
C1788 C1794 1.465 . S
C1789 C1784 1.399 . S
C1789 C1788 1.394 . S
C1789 C1790 1.516 . S
C1790 C1789 1.516 . S
C1790 C1791 1.502 . S
C1790 C1792 1.561 . S
C1790 C1793 1.526 . S
C1791 H1775 0.959 . S
C1791 H1776 0.959 . S
C1791 H1777 0.961 . S
C1791 C1790 1.502 . S
C1792 H1778 0.960 . S
C1792 H1779 0.961 . S
C1792 H1780 0.959 . S
C1792 C1790 1.561 . S
C1793 C1790 1.526 . S
C1793 C1794 1.396 . S
C1793 C1798 1.390 . S
C1794 C1788 1.465 . S
C1794 C1793 1.396 . S
C1794 C1795 1.399 . S
C1795 H1781 0.929 . S
C1795 C1794 1.399 . S
C1795 C1796 1.385 . S
C1796 H1782 0.931 . S
C1796 C1795 1.385 . S
C1796 C1797 1.389 . S
C1797 C1796 1.389 . S
C1797 C1798 1.387 . S
C1798 H1783 0.930 . S
C1798 C1793 1.390 . S
C1798 C1797 1.387 . S
H1799 C1811 0.930 . S
H1800 C1813 0.930 . S
H1801 C1814 0.930 . S
H1802 C1818 0.959 . S
H1803 C1818 0.959 . S
H1804 C1818 0.961 . S
H1805 C1819 0.960 . S
H1806 C1819 0.961 . S
H1807 C1819 0.959 . S
H1808 C1822 0.929 . S
H1809 C1823 0.931 . S
H1810 C1825 0.930 . S
C1811 H1799 0.930 . S
C1811 C1812 1.399 . S
C1811 C1816 1.399 . S
C1812 C1811 1.399 . S
C1812 C1813 1.376 . S
C1813 H1800 0.930 . S
C1813 C1812 1.376 . S
C1813 C1814 1.388 . S
C1814 H1801 0.930 . S
C1814 C1813 1.388 . S
C1814 C1815 1.390 . S
C1815 C1814 1.390 . S
C1815 C1816 1.394 . S
C1815 C1821 1.465 . S
C1816 C1811 1.399 . S
C1816 C1815 1.394 . S
C1816 C1817 1.516 . S
C1817 C1816 1.516 . S
C1817 C1818 1.502 . S
C1817 C1819 1.561 . S
C1817 C1820 1.526 . S
C1818 H1802 0.959 . S
C1818 H1803 0.959 . S
C1818 H1804 0.961 . S
C1818 C1817 1.502 . S
C1819 H1805 0.960 . S
C1819 H1806 0.961 . S
C1819 H1807 0.959 . S
C1819 C1817 1.561 . S
C1820 C1817 1.526 . S
C1820 C1821 1.396 . S
C1820 C1825 1.390 . S
C1821 C1815 1.465 . S
C1821 C1820 1.396 . S
C1821 C1822 1.399 . S
C1822 H1808 0.929 . S
C1822 C1821 1.399 . S
C1822 C1823 1.385 . S
C1823 H1809 0.931 . S
C1823 C1822 1.385 . S
C1823 C1824 1.389 . S
C1824 C1823 1.389 . S
C1824 C1825 1.387 . S
C1825 H1810 0.930 . S
C1825 C1820 1.390 . S
C1825 C1824 1.387 . S
H1826 C1838 0.930 . S
H1827 C1840 0.930 . S
H1828 C1841 0.930 . S
H1829 C1845 0.959 . S
H1830 C1845 0.959 . S
H1831 C1845 0.961 . S
H1832 C1846 0.960 . S
H1833 C1846 0.961 . S
H1834 C1846 0.959 . S
H1835 C1849 0.929 . S
H1836 C1850 0.931 . S
H1837 C1852 0.930 . S
C1838 H1826 0.930 . S
C1838 C1839 1.399 . S
C1838 C1843 1.399 . S
C1839 C1838 1.399 . S
C1839 C1840 1.376 . S
C1840 H1827 0.930 . S
C1840 C1839 1.376 . S
C1840 C1841 1.388 . S
C1841 H1828 0.930 . S
C1841 C1840 1.388 . S
C1841 C1842 1.390 . S
C1842 C1841 1.390 . S
C1842 C1843 1.394 . S
C1842 C1848 1.465 . S
C1843 C1838 1.399 . S
C1843 C1842 1.394 . S
C1843 C1844 1.516 . S
C1844 C1843 1.516 . S
C1844 C1845 1.502 . S
C1844 C1846 1.561 . S
C1844 C1847 1.526 . S
C1845 H1829 0.959 . S
C1845 H1830 0.959 . S
C1845 H1831 0.961 . S
C1845 C1844 1.502 . S
C1846 H1832 0.960 . S
C1846 H1833 0.961 . S
C1846 H1834 0.959 . S
C1846 C1844 1.561 . S
C1847 C1844 1.526 . S
C1847 C1848 1.396 . S
C1847 C1852 1.390 . S
C1848 C1842 1.465 . S
C1848 C1847 1.396 . S
C1848 C1849 1.399 . S
C1849 H1835 0.929 . S
C1849 C1848 1.399 . S
C1849 C1850 1.385 . S
C1850 H1836 0.931 . S
C1850 C1849 1.385 . S
C1850 C1851 1.389 . S
C1851 C1850 1.389 . S
C1851 C1852 1.387 . S
C1852 H1837 0.930 . S
C1852 C1847 1.390 . S
C1852 C1851 1.387 . S
H1853 C1865 0.930 . S
H1854 C1867 0.930 . S
H1855 C1868 0.930 . S
H1856 C1872 0.959 . S
H1857 C1872 0.959 . S
H1858 C1872 0.961 . S
H1859 C1873 0.960 . S
H1860 C1873 0.961 . S
H1861 C1873 0.959 . S
H1862 C1876 0.929 . S
H1863 C1877 0.931 . S
H1864 C1879 0.930 . S
C1865 H1853 0.930 . S
C1865 C1866 1.399 . S
C1865 C1870 1.399 . S
C1866 C1865 1.399 . S
C1866 C1867 1.376 . S
C1867 H1854 0.930 . S
C1867 C1866 1.376 . S
C1867 C1868 1.388 . S
C1868 H1855 0.930 . S
C1868 C1867 1.388 . S
C1868 C1869 1.390 . S
C1869 C1868 1.390 . S
C1869 C1870 1.394 . S
C1869 C1875 1.465 . S
C1870 C1865 1.399 . S
C1870 C1869 1.394 . S
C1870 C1871 1.516 . S
C1871 C1870 1.516 . S
C1871 C1872 1.502 . S
C1871 C1873 1.561 . S
C1871 C1874 1.526 . S
C1872 H1856 0.959 . S
C1872 H1857 0.959 . S
C1872 H1858 0.961 . S
C1872 C1871 1.502 . S
C1873 H1859 0.960 . S
C1873 H1860 0.961 . S
C1873 H1861 0.959 . S
C1873 C1871 1.561 . S
C1874 C1871 1.526 . S
C1874 C1875 1.396 . S
C1874 C1879 1.390 . S
C1875 C1869 1.465 . S
C1875 C1874 1.396 . S
C1875 C1876 1.399 . S
C1876 H1862 0.929 . S
C1876 C1875 1.399 . S
C1876 C1877 1.385 . S
C1877 H1863 0.931 . S
C1877 C1876 1.385 . S
C1877 C1878 1.389 . S
C1878 C1877 1.389 . S
C1878 C1879 1.387 . S
C1879 H1864 0.930 . S
C1879 C1874 1.390 . S
C1879 C1878 1.387 . S
H1880 C1892 0.930 . S
H1881 C1894 0.930 . S
H1882 C1895 0.930 . S
H1883 C1899 0.959 . S
H1884 C1899 0.959 . S
H1885 C1899 0.961 . S
H1886 C1900 0.960 . S
H1887 C1900 0.961 . S
H1888 C1900 0.959 . S
H1889 C1903 0.929 . S
H1890 C1904 0.931 . S
H1891 C1906 0.930 . S
C1892 H1880 0.930 . S
C1892 C1893 1.399 . S
C1892 C1897 1.399 . S
C1893 C1892 1.399 . S
C1893 C1894 1.376 . S
C1894 H1881 0.930 . S
C1894 C1893 1.376 . S
C1894 C1895 1.388 . S
C1895 H1882 0.930 . S
C1895 C1894 1.388 . S
C1895 C1896 1.390 . S
C1896 C1895 1.390 . S
C1896 C1897 1.394 . S
C1896 C1902 1.465 . S
C1897 C1892 1.399 . S
C1897 C1896 1.394 . S
C1897 C1898 1.516 . S
C1898 C1897 1.516 . S
C1898 C1899 1.502 . S
C1898 C1900 1.561 . S
C1898 C1901 1.526 . S
C1899 H1883 0.959 . S
C1899 H1884 0.959 . S
C1899 H1885 0.961 . S
C1899 C1898 1.502 . S
C1900 H1886 0.960 . S
C1900 H1887 0.961 . S
C1900 H1888 0.959 . S
C1900 C1898 1.561 . S
C1901 C1898 1.526 . S
C1901 C1902 1.396 . S
C1901 C1906 1.390 . S
C1902 C1896 1.465 . S
C1902 C1901 1.396 . S
C1902 C1903 1.399 . S
C1903 H1889 0.929 . S
C1903 C1902 1.399 . S
C1903 C1904 1.385 . S
C1904 H1890 0.931 . S
C1904 C1903 1.385 . S
C1904 C1905 1.389 . S
C1905 C1904 1.389 . S
C1905 C1906 1.387 . S
C1906 H1891 0.930 . S
C1906 C1901 1.390 . S
C1906 C1905 1.387 . S
H1907 C1919 0.930 . S
H1908 C1921 0.930 . S
H1909 C1922 0.930 . S
H1910 C1926 0.959 . S
H1911 C1926 0.959 . S
H1912 C1926 0.961 . S
H1913 C1927 0.960 . S
H1914 C1927 0.961 . S
H1915 C1927 0.959 . S
H1916 C1930 0.929 . S
H1917 C1931 0.931 . S
H1918 C1933 0.930 . S
C1919 H1907 0.930 . S
C1919 C1920 1.399 . S
C1919 C1924 1.399 . S
C1920 C1919 1.399 . S
C1920 C1921 1.376 . S
C1921 H1908 0.930 . S
C1921 C1920 1.376 . S
C1921 C1922 1.388 . S
C1922 H1909 0.930 . S
C1922 C1921 1.388 . S
C1922 C1923 1.390 . S
C1923 C1922 1.390 . S
C1923 C1924 1.394 . S
C1923 C1929 1.465 . S
C1924 C1919 1.399 . S
C1924 C1923 1.394 . S
C1924 C1925 1.516 . S
C1925 C1924 1.516 . S
C1925 C1926 1.502 . S
C1925 C1927 1.561 . S
C1925 C1928 1.526 . S
C1926 H1910 0.959 . S
C1926 H1911 0.959 . S
C1926 H1912 0.961 . S
C1926 C1925 1.502 . S
C1927 H1913 0.960 . S
C1927 H1914 0.961 . S
C1927 H1915 0.959 . S
C1927 C1925 1.561 . S
C1928 C1925 1.526 . S
C1928 C1929 1.396 . S
C1928 C1933 1.390 . S
C1929 C1923 1.465 . S
C1929 C1928 1.396 . S
C1929 C1930 1.399 . S
C1930 H1916 0.929 . S
C1930 C1929 1.399 . S
C1930 C1931 1.385 . S
C1931 H1917 0.931 . S
C1931 C1930 1.385 . S
C1931 C1932 1.389 . S
C1932 C1931 1.389 . S
C1932 C1933 1.387 . S
C1933 H1918 0.930 . S
C1933 C1928 1.390 . S
C1933 C1932 1.387 . S
H1934 C1946 0.930 . S
H1935 C1948 0.930 . S
H1936 C1949 0.930 . S
H1937 C1953 0.959 . S
H1938 C1953 0.959 . S
H1939 C1953 0.961 . S
H1940 C1954 0.960 . S
H1941 C1954 0.961 . S
H1942 C1954 0.959 . S
H1943 C1957 0.929 . S
H1944 C1958 0.931 . S
H1945 C1960 0.930 . S
C1946 H1934 0.930 . S
C1946 C1947 1.399 . S
C1946 C1951 1.399 . S
C1947 C1946 1.399 . S
C1947 C1948 1.376 . S
C1948 H1935 0.930 . S
C1948 C1947 1.376 . S
C1948 C1949 1.388 . S
C1949 H1936 0.930 . S
C1949 C1948 1.388 . S
C1949 C1950 1.390 . S
C1950 C1949 1.390 . S
C1950 C1951 1.394 . S
C1950 C1956 1.465 . S
C1951 C1946 1.399 . S
C1951 C1950 1.394 . S
C1951 C1952 1.516 . S
C1952 C1951 1.516 . S
C1952 C1953 1.502 . S
C1952 C1954 1.561 . S
C1952 C1955 1.526 . S
C1953 H1937 0.959 . S
C1953 H1938 0.959 . S
C1953 H1939 0.961 . S
C1953 C1952 1.502 . S
C1954 H1940 0.960 . S
C1954 H1941 0.961 . S
C1954 H1942 0.959 . S
C1954 C1952 1.561 . S
C1955 C1952 1.526 . S
C1955 C1956 1.396 . S
C1955 C1960 1.390 . S
C1956 C1950 1.465 . S
C1956 C1955 1.396 . S
C1956 C1957 1.399 . S
C1957 H1943 0.929 . S
C1957 C1956 1.399 . S
C1957 C1958 1.385 . S
C1958 H1944 0.931 . S
C1958 C1957 1.385 . S
C1958 C1959 1.389 . S
C1959 C1958 1.389 . S
C1959 C1960 1.387 . S
C1960 H1945 0.930 . S
C1960 C1955 1.390 . S
C1960 C1959 1.387 . S
H1961 C1973 0.930 . S
H1962 C1975 0.930 . S
H1963 C1976 0.930 . S
H1964 C1980 0.959 . S
H1965 C1980 0.959 . S
H1966 C1980 0.961 . S
H1967 C1981 0.960 . S
H1968 C1981 0.961 . S
H1969 C1981 0.959 . S
H1970 C1984 0.929 . S
H1971 C1985 0.931 . S
H1972 C1987 0.930 . S
C1973 H1961 0.930 . S
C1973 C1974 1.399 . S
C1973 C1978 1.399 . S
C1974 C1973 1.399 . S
C1974 C1975 1.376 . S
C1975 H1962 0.930 . S
C1975 C1974 1.376 . S
C1975 C1976 1.388 . S
C1976 H1963 0.930 . S
C1976 C1975 1.388 . S
C1976 C1977 1.390 . S
C1977 C1976 1.390 . S
C1977 C1978 1.394 . S
C1977 C1983 1.465 . S
C1978 C1973 1.399 . S
C1978 C1977 1.394 . S
C1978 C1979 1.516 . S
C1979 C1978 1.516 . S
C1979 C1980 1.502 . S
C1979 C1981 1.561 . S
C1979 C1982 1.526 . S
C1980 H1964 0.959 . S
C1980 H1965 0.959 . S
C1980 H1966 0.961 . S
C1980 C1979 1.502 . S
C1981 H1967 0.960 . S
C1981 H1968 0.961 . S
C1981 H1969 0.959 . S
C1981 C1979 1.561 . S
C1982 C1979 1.526 . S
C1982 C1983 1.396 . S
C1982 C1987 1.390 . S
C1983 C1977 1.465 . S
C1983 C1982 1.396 . S
C1983 C1984 1.399 . S
C1984 H1970 0.929 . S
C1984 C1983 1.399 . S
C1984 C1985 1.385 . S
C1985 H1971 0.931 . S
C1985 C1984 1.385 . S
C1985 C1986 1.389 . S
C1986 C1985 1.389 . S
C1986 C1987 1.387 . S
C1987 H1972 0.930 . S
C1987 C1982 1.390 . S
C1987 C1986 1.387 . S
H1988 C2000 0.930 . S
H1989 C2002 0.930 . S
H1990 C2003 0.930 . S
H1991 C2007 0.959 . S
H1992 C2007 0.959 . S
H1993 C2007 0.961 . S
H1994 C2008 0.960 . S
H1995 C2008 0.961 . S
H1996 C2008 0.959 . S
H1997 C2011 0.929 . S
H1998 C2012 0.931 . S
H1999 C2014 0.930 . S
C2000 H1988 0.930 . S
C2000 C2001 1.399 . S
C2000 C2005 1.399 . S
C2001 C2000 1.399 . S
C2001 C2002 1.376 . S
C2002 H1989 0.930 . S
C2002 C2001 1.376 . S
C2002 C2003 1.388 . S
C2003 H1990 0.930 . S
C2003 C2002 1.388 . S
C2003 C2004 1.390 . S
C2004 C2003 1.390 . S
C2004 C2005 1.394 . S
C2004 C2010 1.465 . S
C2005 C2000 1.399 . S
C2005 C2004 1.394 . S
C2005 C2006 1.516 . S
C2006 C2005 1.516 . S
C2006 C2007 1.502 . S
C2006 C2008 1.561 . S
C2006 C2009 1.526 . S
C2007 H1991 0.959 . S
C2007 H1992 0.959 . S
C2007 H1993 0.961 . S
C2007 C2006 1.502 . S
C2008 H1994 0.960 . S
C2008 H1995 0.961 . S
C2008 H1996 0.959 . S
C2008 C2006 1.561 . S
C2009 C2006 1.526 . S
C2009 C2010 1.396 . S
C2009 C2014 1.390 . S
C2010 C2004 1.465 . S
C2010 C2009 1.396 . S
C2010 C2011 1.399 . S
C2011 H1997 0.929 . S
C2011 C2010 1.399 . S
C2011 C2012 1.385 . S
C2012 H1998 0.931 . S
C2012 C2011 1.385 . S
C2012 C2013 1.389 . S
C2013 C2012 1.389 . S
C2013 C2014 1.387 . S
C2014 H1999 0.930 . S
C2014 C2009 1.390 . S
C2014 C2013 1.387 . S
H2015 C2027 0.930 . S
H2016 C2029 0.930 . S
H2017 C2030 0.930 . S
H2018 C2034 0.959 . S
H2019 C2034 0.959 . S
H2020 C2034 0.961 . S
H2021 C2035 0.960 . S
H2022 C2035 0.961 . S
H2023 C2035 0.959 . S
H2024 C2038 0.929 . S
H2025 C2039 0.931 . S
H2026 C2041 0.930 1_545 S
C2027 H2015 0.930 . S
C2027 C2028 1.399 1_545 S
C2027 C2032 1.399 1_545 S
C2028 C2027 1.399 1_565 S
C2028 C2029 1.376 . S
C2029 H2016 0.930 . S
C2029 C2028 1.376 . S
C2029 C2030 1.388 . S
C2030 H2017 0.930 . S
C2030 C2029 1.388 . S
C2030 C2031 1.390 . S
C2031 C2030 1.390 . S
C2031 C2032 1.394 . S
C2031 C2037 1.465 . S
C2032 C2027 1.399 1_565 S
C2032 C2031 1.394 . S
C2032 C2033 1.516 1_565 S
C2033 C2032 1.516 1_545 S
C2033 C2034 1.502 . S
C2033 C2035 1.561 . S
C2033 C2036 1.526 1_545 S
C2034 H2018 0.959 . S
C2034 H2019 0.959 . S
C2034 H2020 0.961 . S
C2034 C2033 1.502 . S
C2035 H2021 0.960 . S
C2035 H2022 0.961 . S
C2035 H2023 0.959 . S
C2035 C2033 1.561 . S
C2036 C2033 1.526 1_565 S
C2036 C2037 1.396 . S
C2036 C2041 1.390 . S
C2037 C2031 1.465 . S
C2037 C2036 1.396 . S
C2037 C2038 1.399 . S
C2038 H2024 0.929 . S
C2038 C2037 1.399 . S
C2038 C2039 1.385 . S
C2039 H2025 0.931 . S
C2039 C2038 1.385 . S
C2039 C2040 1.389 . S
C2040 C2039 1.389 . S
C2040 C2041 1.387 . S
C2041 H2026 0.930 1_565 S
C2041 C2036 1.390 . S
C2041 C2040 1.387 . S
H2042 C2054 0.930 . S
H2043 C2056 0.930 . S
H2044 C2057 0.930 . S
H2045 C2061 0.959 . S
H2046 C2061 0.959 . S
H2047 C2061 0.961 . S
H2048 C2062 0.960 . S
H2049 C2062 0.961 . S
H2050 C2062 0.959 . S
H2051 C2065 0.929 . S
H2052 C2066 0.931 . S
H2053 C2068 0.930 . S
C2054 H2042 0.930 . S
C2054 C2055 1.399 . S
C2054 C2059 1.399 . S
C2055 C2054 1.399 . S
C2055 C2056 1.376 . S
C2056 H2043 0.930 . S
C2056 C2055 1.376 . S
C2056 C2057 1.388 . S
C2057 H2044 0.930 . S
C2057 C2056 1.388 . S
C2057 C2058 1.390 . S
C2058 C2057 1.390 . S
C2058 C2059 1.394 . S
C2058 C2064 1.465 . S
C2059 C2054 1.399 . S
C2059 C2058 1.394 . S
C2059 C2060 1.516 . S
C2060 C2059 1.516 . S
C2060 C2061 1.502 . S
C2060 C2062 1.561 . S
C2060 C2063 1.526 . S
C2061 H2045 0.959 . S
C2061 H2046 0.959 . S
C2061 H2047 0.961 . S
C2061 C2060 1.502 . S
C2062 H2048 0.960 . S
C2062 H2049 0.961 . S
C2062 H2050 0.959 . S
C2062 C2060 1.561 . S
C2063 C2060 1.526 . S
C2063 C2064 1.396 . S
C2063 C2068 1.390 . S
C2064 C2058 1.465 . S
C2064 C2063 1.396 . S
C2064 C2065 1.399 . S
C2065 H2051 0.929 . S
C2065 C2064 1.399 . S
C2065 C2066 1.385 . S
C2066 H2052 0.931 . S
C2066 C2065 1.385 . S
C2066 C2067 1.389 . S
C2067 C2066 1.389 . S
C2067 C2068 1.387 . S
C2068 H2053 0.930 . S
C2068 C2063 1.390 . S
C2068 C2067 1.387 . S
H2069 C2081 0.930 . S
H2070 C2083 0.930 . S
H2071 C2084 0.930 . S
H2072 C2088 0.959 . S
H2073 C2088 0.959 . S
H2074 C2088 0.961 . S
H2075 C2089 0.960 . S
H2076 C2089 0.961 . S
H2077 C2089 0.959 . S
H2078 C2092 0.929 . S
H2079 C2093 0.931 . S
H2080 C2095 0.930 . S
C2081 H2069 0.930 . S
C2081 C2082 1.399 . S
C2081 C2086 1.399 . S
C2082 C2081 1.399 . S
C2082 C2083 1.376 . S
C2083 H2070 0.930 . S
C2083 C2082 1.376 . S
C2083 C2084 1.388 . S
C2084 H2071 0.930 . S
C2084 C2083 1.388 . S
C2084 C2085 1.390 . S
C2085 C2084 1.390 . S
C2085 C2086 1.394 . S
C2085 C2091 1.465 . S
C2086 C2081 1.399 . S
C2086 C2085 1.394 . S
C2086 C2087 1.516 . S
C2087 C2086 1.516 . S
C2087 C2088 1.502 . S
C2087 C2089 1.561 1_545 S
C2087 C2090 1.526 . S
C2088 H2072 0.959 . S
C2088 H2073 0.959 . S
C2088 H2074 0.961 . S
C2088 C2087 1.502 . S
C2089 H2075 0.960 . S
C2089 H2076 0.961 . S
C2089 H2077 0.959 . S
C2089 C2087 1.561 1_565 S
C2090 C2087 1.526 . S
C2090 C2091 1.396 . S
C2090 C2095 1.390 . S
C2091 C2085 1.465 . S
C2091 C2090 1.396 . S
C2091 C2092 1.399 . S
C2092 H2078 0.929 . S
C2092 C2091 1.399 . S
C2092 C2093 1.385 . S
C2093 H2079 0.931 . S
C2093 C2092 1.385 . S
C2093 C2094 1.389 . S
C2094 C2093 1.389 . S
C2094 C2095 1.387 . S
C2095 H2080 0.930 . S
C2095 C2090 1.390 . S
C2095 C2094 1.387 . S
H2096 C2108 0.930 . S
H2097 C2110 0.930 . S
H2098 C2111 0.930 . S
H2099 C2115 0.959 . S
H2100 C2115 0.959 . S
H2101 C2115 0.961 . S
H2102 C2116 0.960 . S
H2103 C2116 0.961 . S
H2104 C2116 0.959 . S
H2105 C2119 0.929 . S
H2106 C2120 0.931 . S
H2107 C2122 0.930 . S
C2108 H2096 0.930 . S
C2108 C2109 1.399 . S
C2108 C2113 1.399 . S
C2109 C2108 1.399 . S
C2109 C2110 1.376 . S
C2110 H2097 0.930 . S
C2110 C2109 1.376 . S
C2110 C2111 1.388 . S
C2111 H2098 0.930 . S
C2111 C2110 1.388 . S
C2111 C2112 1.390 . S
C2112 C2111 1.390 . S
C2112 C2113 1.394 . S
C2112 C2118 1.465 . S
C2113 C2108 1.399 . S
C2113 C2112 1.394 . S
C2113 C2114 1.516 . S
C2114 C2113 1.516 . S
C2114 C2115 1.502 . S
C2114 C2116 1.561 . S
C2114 C2117 1.526 . S
C2115 H2099 0.959 . S
C2115 H2100 0.959 . S
C2115 H2101 0.961 . S
C2115 C2114 1.502 . S
C2116 H2102 0.960 . S
C2116 H2103 0.961 . S
C2116 H2104 0.959 . S
C2116 C2114 1.561 . S
C2117 C2114 1.526 . S
C2117 C2118 1.396 . S
C2117 C2122 1.390 . S
C2118 C2112 1.465 . S
C2118 C2117 1.396 . S
C2118 C2119 1.399 . S
C2119 H2105 0.929 . S
C2119 C2118 1.399 . S
C2119 C2120 1.385 . S
C2120 H2106 0.931 . S
C2120 C2119 1.385 . S
C2120 C2121 1.389 . S
C2121 C2120 1.389 . S
C2121 C2122 1.387 . S
C2122 H2107 0.930 . S
C2122 C2117 1.390 . S
C2122 C2121 1.387 . S
H2123 C2135 0.930 . S
H2124 C2137 0.930 . S
H2125 C2138 0.930 . S
H2126 C2142 0.959 . S
H2127 C2142 0.959 . S
H2128 C2142 0.961 . S
H2129 C2143 0.960 . S
H2130 C2143 0.961 . S
H2131 C2143 0.959 . S
H2132 C2146 0.929 . S
H2133 C2147 0.931 . S
H2134 C2149 0.890 1_554 S
C2135 H2123 0.930 . S
C2135 C2136 1.399 1_554 S
C2135 C2140 1.399 1_554 S
C2136 C2135 1.399 1_556 S
C2136 C2137 1.376 . S
C2137 H2124 0.930 . S
C2137 C2136 1.376 . S
C2137 C2138 1.388 . S
C2138 H2125 0.930 . S
C2138 C2137 1.388 . S
C2138 C2139 1.390 . S
C2139 C2138 1.390 . S
C2139 C2140 1.394 . S
C2139 C2145 1.465 . S
C2140 C2135 1.399 1_556 S
C2140 C2139 1.394 . S
C2140 C2141 1.516 1_556 S
C2141 C2140 1.516 1_554 S
C2141 C2142 1.502 . S
C2141 C2143 1.561 . S
C2141 C2144 1.526 1_554 S
C2142 H2126 0.959 . S
C2142 H2127 0.959 . S
C2142 H2128 0.961 . S
C2142 C2141 1.502 . S
C2143 H2129 0.960 . S
C2143 H2130 0.961 . S
C2143 H2131 0.959 . S
C2143 C2141 1.561 . S
C2144 C2141 1.526 1_556 S
C2144 C2145 1.396 . S
C2144 C2149 1.390 . S
C2145 C2139 1.465 . S
C2145 C2144 1.396 . S
C2145 C2146 1.399 . S
C2146 H2132 0.929 . S
C2146 C2145 1.399 . S
C2146 C2147 1.385 . S
C2147 H2133 0.931 . S
C2147 C2146 1.385 . S
C2147 C2148 1.389 . S
C2148 C2147 1.389 . S
C2148 C2149 1.387 . S
C2149 H2134 0.890 1_556 S
C2149 C2144 1.390 . S
C2149 C2148 1.387 . S
H2150 C2162 0.930 . S
H2151 C2164 0.925 1_554 S
H2152 C2165 0.892 1_554 S
H2153 C2169 0.959 . S
H2154 C2169 0.959 . S
H2155 C2169 0.961 . S
H2156 C2170 0.960 . S
H2157 C2170 0.961 . S
H2158 C2170 0.959 . S
H2159 C2173 0.929 1_554 S
H2160 C2174 0.931 . S
H2161 C2176 0.930 . S
C2162 H2150 0.930 . S
C2162 C2163 1.399 . S
C2162 C2167 1.399 . S
C2163 C2162 1.399 . S
C2163 C2164 1.381 . S
C2164 H2151 0.925 1_556 S
C2164 C2163 1.381 . S
C2164 C2165 1.388 . S
C2165 H2152 0.892 1_556 S
C2165 C2164 1.388 . S
C2165 C2166 1.430 . S
C2166 C2165 1.430 . S
C2166 C2167 1.394 . S
C2166 C2172 1.465 . S
C2167 C2162 1.399 . S
C2167 C2166 1.394 . S
C2167 C2168 1.516 . S
C2168 C2167 1.516 . S
C2168 C2169 1.502 . S
C2168 C2170 1.561 . S
C2168 C2171 1.526 . S
C2169 H2153 0.959 . S
C2169 H2154 0.959 . S
C2169 H2155 0.961 . S
C2169 C2168 1.502 . S
C2170 H2156 0.960 . S
C2170 H2157 0.961 . S
C2170 H2158 0.959 . S
C2170 C2168 1.561 . S
C2171 C2168 1.526 . S
C2171 C2172 1.396 . S
C2171 C2176 1.390 . S
C2172 C2166 1.465 . S
C2172 C2171 1.396 . S
C2172 C2173 1.399 . S
C2173 H2159 0.929 1_556 S
C2173 C2172 1.399 . S
C2173 C2174 1.385 . S
C2174 H2160 0.931 . S
C2174 C2173 1.385 . S
C2174 C2175 1.389 . S
C2175 C2174 1.389 . S
C2175 C2176 1.387 . S
C2176 H2161 0.930 . S
C2176 C2171 1.390 . S
C2176 C2175 1.387 . S
H2177 C2189 0.930 1_556 S
H2178 C2191 0.930 . S
H2179 C2192 0.930 . S
H2180 C2196 0.959 . S
H2181 C2196 0.959 . S
H2182 C2196 0.961 . S
H2183 C2197 0.960 . S
H2184 C2197 0.961 . S
H2185 C2197 0.959 . S
H2186 C2200 0.929 . S
H2187 C2201 0.931 . S
H2188 C2203 0.930 1_556 S
C2189 H2177 0.930 1_554 S
C2189 C2190 1.399 . S
C2189 C2194 1.399 . S
C2190 C2189 1.399 . S
C2190 C2191 1.376 . S
C2191 H2178 0.930 . S
C2191 C2190 1.376 . S
C2191 C2192 1.388 . S
C2192 H2179 0.930 . S
C2192 C2191 1.388 . S
C2192 C2193 1.390 . S
C2193 C2192 1.390 . S
C2193 C2194 1.394 . S
C2193 C2199 1.465 . S
C2194 C2189 1.399 . S
C2194 C2193 1.394 . S
C2194 C2195 1.516 1_554 S
C2195 C2194 1.516 1_556 S
C2195 C2196 1.502 . S
C2195 C2197 1.561 . S
C2195 C2198 1.526 1_556 S
C2196 H2180 0.959 . S
C2196 H2181 0.959 . S
C2196 H2182 0.961 . S
C2196 C2195 1.502 . S
C2197 H2183 0.960 . S
C2197 H2184 0.961 . S
C2197 H2185 0.959 . S
C2197 C2195 1.561 . S
C2198 C2195 1.526 1_554 S
C2198 C2199 1.396 . S
C2198 C2203 1.390 . S
C2199 C2193 1.465 . S
C2199 C2198 1.396 . S
C2199 C2200 1.399 . S
C2200 H2186 0.929 . S
C2200 C2199 1.399 . S
C2200 C2201 1.385 . S
C2201 H2187 0.931 . S
C2201 C2200 1.385 . S
C2201 C2202 1.389 . S
C2202 C2201 1.389 . S
C2202 C2203 1.387 . S
C2203 H2188 0.930 1_554 S
C2203 C2198 1.390 . S
C2203 C2202 1.387 . S
C921 C22 1.675 . S
C933 C704 1.737 1_545 S
C960 C767 1.991 . S
C948 C38 2.025 . S
C987 C644 1.907 1_565 S
C975 C75 1.923 . S
C1002 C91 1.790 . S
C1014 C678 1.804 . S
C1029 C128 1.840 . S
C1041 C882 1.888 . S
C1056 C197 1.178 . S
C1068 C853 1.200 . S
C1095 C776 1.968 . S
C1083 C144 2.045 . S
C1110 C181 1.506 . S
C1122 C810 1.508 . S
C1149 C699 2.032 . S
C1137 C234 2.025 . S
C1176 C742 1.471 . S
C1164 C303 1.478 . S
C1191 C356 2.037 . S
C1203 C721 2.018 1_655 S
C1218 C287 1.711 . S
C1230 C835 1.708 . S
C1257 C840 1.602 . S
C1245 C393 1.623 . S
C1284 C903 2.075 1_565 S
C1272 C409 2.057 . S
C1299 C462 2.074 . S
C1311 C814 2.050 . S
C1338 C780 1.656 1_545 S
C1326 C446 1.666 . S
C1353 C499 1.815 . S
C1365 C746 1.793 . S
C1380 C552 1.119 . S
C1392 C717 1.133 . S
C1419 C674 1.986 . S
C1407 C515 2.034 . S
C1434 C568 1.663 . S
C1446 C640 1.636 . S
C1473 C801 2.047 . S
C1461 C340 2.084 . S
C1500 C878 1.462 . S
C1488 C621 1.456 . S
C1515 C250 1.939 . S
C1527 C857 1.930 . S
C1542 C605 1.602 . S
C1554 C665 1.588 . S
C1581 C649 1.059 . S
C1569 C39 1.014 . S
C1596 C29 0.901 . S
C1608 C683 0.836 . S
C1635 C708 1.077 . S
C1623 C92 1.042 . S
C1662 C755 1.769 . S
C1650 C82 1.766 . S
C1677 C145 1.515 . S
C1689 C636 1.502 . S
C1704 C188 1.250 . S
C1716 C670 1.241 . S
C1743 C712 1.365 . S
C1731 C135 1.342 . S
C1758 C198 0.935 . S
C1770 C751 0.981 . S
C1785 C251 1.705 . S
C1797 C653 1.703 . S
C1824 C733 1.424 . S
C1812 C294 1.446 . S
C1839 C347 1.453 . S
C1851 C738 1.467 . S
C1866 C304 1.665 . S
C1878 C789 1.648 . S
C1905 C819 1.144 . S
C1893 C410 1.177 . S
C1920 C400 0.914 . S
C1932 C785 0.909 . S
C1947 C453 0.759 . S
C1959 C844 0.737 . S
C1974 C463 2.060 . S
C1986 C891 2.039 . S
C2001 C516 1.587 . S
C2013 C806 1.603 . S
C2040 C772 1.547 . S
C2028 C569 1.557 . S
C2055 C506 1.254 . S
C2067 C848 1.219 . S
C2094 C887 0.612 . S
C2082 C559 0.617 . S
C2121 C823 1.630 . S
C2109 C357 1.642 . S
C2148 C869 1.370 . S
C2136 C612 1.397 . S
C2175 C874 1.416 . S
C2163 C241 1.393 . S
C2190 C622 1.550 . S
C2202 C687 1.524 . S
