# Generated by pormake.
# Topology ocu, (6,8)-cn, num edge types: 1
# Building blocks:
#     Node 0, Type 0, BuildingBlock: UKALOJ_clean_sbu_0, # of connection points: 6
#     Node 1, Type 0, BuildingBlock: UKALOJ_clean_sbu_0, # of connection points: 6
#     Node 2, Type 0, BuildingBlock: UKALOJ_clean_sbu_0, # of connection points: 6
#     Node 3, Type 0, BuildingBlock: UKALOJ_clean_sbu_0, # of connection points: 6
#     Node 4, Type 0, BuildingBlock: UKALOJ_clean_sbu_0, # of connection points: 6
#     Node 5, Type 0, BuildingBlock: UKALOJ_clean_sbu_0, # of connection points: 6
#     Node 6, Type 0, BuildingBlock: UKALOJ_clean_sbu_0, # of connection points: 6
#     Node 7, Type 0, BuildingBlock: UKALOJ_clean_sbu_0, # of connection points: 6
#     Node 8, Type 1, BuildingBlock: LIZSOE_clean_sbu_0, # of connection points: 8
#     Node 9, Type 1, BuildingBlock: LIZSOE_clean_sbu_0, # of connection points: 8
#     Node 10, Type 1, BuildingBlock: LIZSOE_clean_sbu_0, # of connection points: 8
#     Node 11, Type 1, BuildingBlock: LIZSOE_clean_sbu_0, # of connection points: 8
#     Node 12, Type 1, BuildingBlock: LIZSOE_clean_sbu_0, # of connection points: 8
#     Node 13, Type 1, BuildingBlock: LIZSOE_clean_sbu_0, # of connection points: 8
#     Edge 14, Type (0, 1), BuildingBlock: MIFKUJ_clean_linker_0, # of connection points: 2
#     Edge 15, Type (0, 1), BuildingBlock: MIFKUJ_clean_linker_0, # of connection points: 2
#     Edge 16, Type (0, 1), BuildingBlock: MIFKUJ_clean_linker_0, # of connection points: 2
#     Edge 17, Type (0, 1), BuildingBlock: MIFKUJ_clean_linker_0, # of connection points: 2
#     Edge 18, Type (0, 1), BuildingBlock: MIFKUJ_clean_linker_0, # of connection points: 2
#     Edge 19, Type (0, 1), BuildingBlock: MIFKUJ_clean_linker_0, # of connection points: 2
#     Edge 20, Type (0, 1), BuildingBlock: MIFKUJ_clean_linker_0, # of connection points: 2
#     Edge 21, Type (0, 1), BuildingBlock: MIFKUJ_clean_linker_0, # of connection points: 2
#     Edge 22, Type (0, 1), BuildingBlock: MIFKUJ_clean_linker_0, # of connection points: 2
#     Edge 23, Type (0, 1), BuildingBlock: MIFKUJ_clean_linker_0, # of connection points: 2
#     Edge 24, Type (0, 1), BuildingBlock: MIFKUJ_clean_linker_0, # of connection points: 2
#     Edge 25, Type (0, 1), BuildingBlock: MIFKUJ_clean_linker_0, # of connection points: 2
#     Edge 26, Type (0, 1), BuildingBlock: MIFKUJ_clean_linker_0, # of connection points: 2
#     Edge 27, Type (0, 1), BuildingBlock: MIFKUJ_clean_linker_0, # of connection points: 2
#     Edge 28, Type (0, 1), BuildingBlock: MIFKUJ_clean_linker_0, # of connection points: 2
#     Edge 29, Type (0, 1), BuildingBlock: MIFKUJ_clean_linker_0, # of connection points: 2
#     Edge 30, Type (0, 1), BuildingBlock: MIFKUJ_clean_linker_0, # of connection points: 2
#     Edge 31, Type (0, 1), BuildingBlock: MIFKUJ_clean_linker_0, # of connection points: 2
#     Edge 32, Type (0, 1), BuildingBlock: MIFKUJ_clean_linker_0, # of connection points: 2
#     Edge 33, Type (0, 1), BuildingBlock: MIFKUJ_clean_linker_0, # of connection points: 2
#     Edge 34, Type (0, 1), BuildingBlock: MIFKUJ_clean_linker_0, # of connection points: 2
#     Edge 35, Type (0, 1), BuildingBlock: MIFKUJ_clean_linker_0, # of connection points: 2
#     Edge 36, Type (0, 1), BuildingBlock: MIFKUJ_clean_linker_0, # of connection points: 2
#     Edge 37, Type (0, 1), BuildingBlock: MIFKUJ_clean_linker_0, # of connection points: 2
#     Edge 38, Type (0, 1), BuildingBlock: MIFKUJ_clean_linker_0, # of connection points: 2
#     Edge 39, Type (0, 1), BuildingBlock: MIFKUJ_clean_linker_0, # of connection points: 2
#     Edge 40, Type (0, 1), BuildingBlock: MIFKUJ_clean_linker_0, # of connection points: 2
#     Edge 41, Type (0, 1), BuildingBlock: MIFKUJ_clean_linker_0, # of connection points: 2
#     Edge 42, Type (0, 1), BuildingBlock: MIFKUJ_clean_linker_0, # of connection points: 2
#     Edge 43, Type (0, 1), BuildingBlock: MIFKUJ_clean_linker_0, # of connection points: 2
#     Edge 44, Type (0, 1), BuildingBlock: MIFKUJ_clean_linker_0, # of connection points: 2
#     Edge 45, Type (0, 1), BuildingBlock: MIFKUJ_clean_linker_0, # of connection points: 2
#     Edge 46, Type (0, 1), BuildingBlock: MIFKUJ_clean_linker_0, # of connection points: 2
#     Edge 47, Type (0, 1), BuildingBlock: MIFKUJ_clean_linker_0, # of connection points: 2
#     Edge 48, Type (0, 1), BuildingBlock: MIFKUJ_clean_linker_0, # of connection points: 2
#     Edge 49, Type (0, 1), BuildingBlock: MIFKUJ_clean_linker_0, # of connection points: 2
#     Edge 50, Type (0, 1), BuildingBlock: MIFKUJ_clean_linker_0, # of connection points: 2
#     Edge 51, Type (0, 1), BuildingBlock: MIFKUJ_clean_linker_0, # of connection points: 2
#     Edge 52, Type (0, 1), BuildingBlock: MIFKUJ_clean_linker_0, # of connection points: 2
#     Edge 53, Type (0, 1), BuildingBlock: MIFKUJ_clean_linker_0, # of connection points: 2
#     Edge 54, Type (0, 1), BuildingBlock: MIFKUJ_clean_linker_0, # of connection points: 2
#     Edge 55, Type (0, 1), BuildingBlock: MIFKUJ_clean_linker_0, # of connection points: 2
#     Edge 56, Type (0, 1), BuildingBlock: MIFKUJ_clean_linker_0, # of connection points: 2
#     Edge 57, Type (0, 1), BuildingBlock: MIFKUJ_clean_linker_0, # of connection points: 2
#     Edge 58, Type (0, 1), BuildingBlock: MIFKUJ_clean_linker_0, # of connection points: 2
#     Edge 59, Type (0, 1), BuildingBlock: MIFKUJ_clean_linker_0, # of connection points: 2
#     Edge 60, Type (0, 1), BuildingBlock: MIFKUJ_clean_linker_0, # of connection points: 2
#     Edge 61, Type (0, 1), BuildingBlock: MIFKUJ_clean_linker_0, # of connection points: 2
# Relax obj value: 0.221
# Max RMSD: 0.289
# Mean RMSD: 0.208
data_MOF--net-ocu--node1-UKALOJ_clean_sbu_0--node2-LIZSOE_clean_sbu_0--edge1-MIFKUJ_clean_linker_0
_symmetry_space_group_name_H-M    P1
_symmetry_Int_Tables_number       1
_symmetry_cell_setting            triclinic
loop_
_symmetry_equiv_pos_as_xyz
'x, y, z'
_cell_length_a     48.709771
_cell_length_b     48.634516
_cell_length_c     49.109818
_cell_angle_alpha  100.21022
_cell_angle_beta   79.790159
_cell_angle_gamma 96.237803
loop_
_atom_site_label
_atom_site_type_symbol
_atom_site_fract_x
_atom_site_fract_y
_atom_site_fract_z
_atom_type_partial_charge
Zn0 Zn 0.22816 0.22762 0.25774 0.0
O1 O 0.19982 0.25001 0.29129 0.0
C2 C 0.2249 0.26887 0.2213 0.0
Zn3 Zn 0.26159 0.26161 0.2626 0.0
C4 C 0.20746 0.27508 0.30136 0.0
O5 O 0.23224 0.28482 0.29315 0.0
C6 C 0.28212 0.21382 0.2192 0.0
O7 O 0.27563 0.24446 0.29426 0.0
O8 O 0.245 0.20856 0.28654 0.0
N9 N 0.28983 0.29538 0.26696 0.0
C10 C 0.31791 0.29855 0.26083 0.0
C11 C 0.30325 0.33935 0.27071 0.0
N12 N 0.2808 0.32079 0.27354 0.0
N13 N 0.3269 0.32599 0.26261 0.0
C14 C 0.17187 0.19075 0.25766 0.0
C15 C 0.18678 0.15009 0.24681 0.0
N16 N 0.20001 0.19402 0.25281 0.0
N17 N 0.20921 0.16874 0.24562 0.0
N18 N 0.16289 0.16317 0.25445 0.0
H19 H 0.16317 0.23153 0.25166 0.0
H20 H 0.15095 0.22352 0.28609 0.0
H21 H 0.13258 0.20746 0.25764 0.0
C22 C 0.15348 0.21461 0.26349 0.0
C23 C 0.33652 0.27488 0.25437 0.0
H24 H 0.32727 0.25782 0.26628 0.0
H25 H 0.35762 0.28228 0.25961 0.0
H26 H 0.33874 0.26637 0.23172 0.0
O27 O 0.29066 0.23755 0.23176 0.0
O28 O 0.25639 0.20555 0.22467 0.0
C29 C 0.26518 0.22026 0.29881 0.0
O30 O 0.21206 0.24672 0.22911 0.0
O31 O 0.24729 0.27883 0.23062 0.0
Zn32 Zn 0.778 0.25423 0.24155 0.0
O33 O 0.75042 0.22428 0.21885 0.0
C34 C 0.74338 0.30078 0.23719 0.0
Zn35 Zn 0.74388 0.262 0.27759 0.0
C36 C 0.72474 0.21979 0.22906 0.0
O37 O 0.71601 0.23237 0.25368 0.0
C38 C 0.79712 0.29603 0.29051 0.0
O39 O 0.75837 0.22845 0.29374 0.0
O40 O 0.79208 0.22224 0.25776 0.0
N41 N 0.7113 0.26891 0.31011 0.0
C42 C 0.70441 0.26075 0.33543 0.0
C43 C 0.66993 0.2808 0.32894 0.0
N44 N 0.69 0.28183 0.30641 0.0
N45 N 0.6785 0.2679 0.34768 0.0
C46 C 0.8088 0.24967 0.18124 0.0
C47 C 0.85128 0.2556 0.18698 0.0
N48 N 0.80929 0.24908 0.20842 0.0
N49 N 0.83582 0.25201 0.21186 0.0
N50 N 0.83483 0.25456 0.16736 0.0
H51 H 0.76582 0.25714 0.18046 0.0
H52 H 0.77552 0.22265 0.16584 0.0
H53 H 0.78727 0.25072 0.14634 0.0
C54 C 0.78293 0.24518 0.16774 0.0
C55 C 0.72194 0.24346 0.34684 0.0
H56 H 0.7192 0.22139 0.33646 0.0
H57 H 0.71589 0.24411 0.36972 0.0
H58 H 0.74428 0.25124 0.34258 0.0
O59 O 0.77149 0.29134 0.30095 0.0
O60 O 0.80563 0.28406 0.26555 0.0
C61 C 0.78014 0.21623 0.28134 0.0
O62 O 0.76429 0.28741 0.22489 0.0
O63 O 0.73093 0.29511 0.26075 0.0
Zn64 Zn 0.79448 0.77792 0.24587 0.0
O65 O 0.78032 0.79726 0.21617 0.0
C66 C 0.74981 0.80189 0.28954 0.0
Zn67 Zn 0.75761 0.74688 0.24903 0.0
C68 C 0.75693 0.78763 0.20881 0.0
O69 O 0.74375 0.76657 0.21871 0.0
C70 C 0.79518 0.73799 0.28662 0.0
O71 O 0.7776 0.71594 0.21685 0.0
O72 O 0.81344 0.74715 0.21334 0.0
N73 N 0.72088 0.72231 0.25351 0.0
C74 C 0.7033 0.71208 0.23521 0.0
C75 C 0.683 0.7036 0.27536 0.0
N76 N 0.70829 0.71694 0.27845 0.0
N77 N 0.67927 0.70066 0.24845 0.0
C78 C 0.83996 0.82821 0.25111 0.0
C79 C 0.87691 0.80657 0.23706 0.0
N80 N 0.8319 0.8012 0.24238 0.0
N81 N 0.85491 0.78791 0.23332 0.0
N82 N 0.86822 0.83208 0.24838 0.0
H83 H 0.80237 0.84639 0.24867 0.0
H84 H 0.83096 0.87158 0.25747 0.0
H85 H 0.8116 0.85134 0.28312 0.0
C86 C 0.82015 0.8508 0.26056 0.0
C87 C 0.71012 0.71205 0.20423 0.0
H88 H 0.73298 0.71434 0.19713 0.0
H89 H 0.7006 0.72974 0.19912 0.0
H90 H 0.70114 0.69235 0.19274 0.0
O91 O 0.77196 0.72813 0.2791 0.0
O92 O 0.80842 0.75873 0.27628 0.0
C93 C 0.80243 0.72275 0.20555 0.0
O94 O 0.77476 0.80829 0.27836 0.0
O95 O 0.73826 0.77775 0.28157 0.0
Zn96 Zn 0.26363 0.76535 0.27377 0.0
O97 O 0.24165 0.79813 0.30155 0.0
C98 C 0.21618 0.72144 0.28854 0.0
Zn99 Zn 0.2346 0.75837 0.24341 0.0
C100 C 0.2192 0.80357 0.29439 0.0
O101 O 0.21221 0.79027 0.27162 0.0
C102 C 0.2792 0.72003 0.22327 0.0
O103 O 0.25976 0.79034 0.22106 0.0
O104 O 0.28959 0.79604 0.25039 0.0
N105 N 0.20496 0.75582 0.21889 0.0
C106 C 0.20524 0.75038 0.191 0.0
C107 C 0.1634 0.75777 0.2105 0.0
N108 N 0.17901 0.76058 0.23093 0.0
N109 N 0.17931 0.75149 0.18518 0.0
C110 C 0.31207 0.78517 0.30685 0.0
C111 C 0.31978 0.7468 0.31852 0.0
N112 N 0.29213 0.76573 0.29881 0.0
N113 N 0.29679 0.74195 0.30619 0.0
N114 N 0.32995 0.77368 0.31883 0.0
H115 H 0.32174 0.82894 0.32196 0.0
H116 H 0.29175 0.82155 0.30395 0.0
H117 H 0.32647 0.8193 0.28441 0.0
C118 C 0.31297 0.81553 0.30428 0.0
C119 C 0.2311 0.74533 0.16975 0.0
H120 H 0.24958 0.75759 0.17727 0.0
H121 H 0.22873 0.75103 0.14943 0.0
H122 H 0.23495 0.72283 0.1665 0.0
O123 O 0.25738 0.72602 0.21533 0.0
O124 O 0.28544 0.73294 0.24644 0.0
C125 C 0.28244 0.80237 0.22864 0.0
O126 O 0.23802 0.73479 0.2966 0.0
O127 O 0.20938 0.72649 0.26609 0.0
Zn128 Zn 0.27857 0.75745 0.74219 0.0
O129 O 0.25196 0.72814 0.71688 0.0
C130 C 0.24262 0.80328 0.74047 0.0
Zn131 Zn 0.24403 0.76138 0.77822 0.0
C132 C 0.22651 0.72192 0.72711 0.0
O133 O 0.21767 0.73242 0.75247 0.0
C134 C 0.29578 0.79684 0.79339 0.0
O135 O 0.2575 0.72687 0.79272 0.0
O136 O 0.29266 0.72391 0.75813 0.0
N137 N 0.21106 0.76566 0.81008 0.0
C138 C 0.20619 0.75803 0.83565 0.0
C139 C 0.16796 0.77005 0.82809 0.0
N140 N 0.18744 0.77383 0.80572 0.0
N141 N 0.17888 0.75972 0.84727 0.0
C142 C 0.31713 0.7614 0.68504 0.0
C143 C 0.35575 0.75148 0.69378 0.0
N144 N 0.31195 0.75359 0.71054 0.0
N145 N 0.3359 0.74677 0.71563 0.0
N146 N 0.34455 0.76066 0.67416 0.0
H147 H 0.27453 0.76416 0.67971 0.0
H148 H 0.30019 0.76614 0.64872 0.0
H149 H 0.29801 0.79558 0.67643 0.0
C150 C 0.29604 0.77237 0.67181 0.0
C151 C 0.22859 0.75017 0.84954 0.0
H152 H 0.2497 0.7544 0.83779 0.0
H153 H 0.22492 0.72777 0.85203 0.0
H154 H 0.22827 0.76323 0.87048 0.0
O155 O 0.27056 0.78991 0.80358 0.0
O156 O 0.30466 0.78707 0.76784 0.0
C157 C 0.27982 0.71578 0.78056 0.0
O158 O 0.26426 0.79156 0.72717 0.0
O159 O 0.23062 0.79533 0.76322 0.0
Zn160 Zn 0.29567 0.28517 0.75073 0.0
O161 O 0.28056 0.30102 0.71896 0.0
C162 C 0.24786 0.30775 0.79186 0.0
Zn163 Zn 0.26013 0.2524 0.75367 0.0
C164 C 0.2576 0.28977 0.71165 0.0
O165 O 0.24539 0.26889 0.72245 0.0
C166 C 0.29803 0.24764 0.79301 0.0
O167 O 0.28271 0.22181 0.72295 0.0
O168 O 0.31715 0.25453 0.72004 0.0
N169 N 0.22489 0.22578 0.75814 0.0
C170 C 0.20818 0.21347 0.7396 0.0
C171 C 0.18758 0.20638 0.78011 0.0
N172 N 0.2121 0.22129 0.78328 0.0
N173 N 0.18442 0.2015 0.75292 0.0
C174 C 0.34051 0.33635 0.7601 0.0
C175 C 0.37622 0.31941 0.73359 0.0
N176 N 0.33177 0.31135 0.74626 0.0
N177 N 0.35399 0.3012 0.72945 0.0
N178 N 0.36852 0.34169 0.75292 0.0
H179 H 0.30282 0.35751 0.76887 0.0
H180 H 0.33189 0.37774 0.78263 0.0
H181 H 0.31406 0.3488 0.79914 0.0
C182 C 0.32131 0.35636 0.77884 0.0
C183 C 0.2159 0.21202 0.70844 0.0
H184 H 0.23888 0.21383 0.70204 0.0
H185 H 0.20733 0.22959 0.70193 0.0
H186 H 0.2071 0.19202 0.69736 0.0
O187 O 0.27534 0.23664 0.78498 0.0
O188 O 0.31058 0.2688 0.78279 0.0
C189 C 0.30759 0.2295 0.71251 0.0
O190 O 0.27292 0.31505 0.78163 0.0
O191 O 0.23796 0.28282 0.78432 0.0
Zn192 Zn 0.77209 0.26757 0.78222 0.0
O193 O 0.74927 0.30074 0.80803 0.0
C194 C 0.72392 0.22369 0.79665 0.0
Zn195 Zn 0.74415 0.25926 0.75073 0.0
C196 C 0.72727 0.30587 0.7998 0.0
O197 O 0.72104 0.29199 0.77693 0.0
C198 C 0.78897 0.22063 0.7337 0.0
O199 O 0.7703 0.28977 0.72783 0.0
O200 O 0.79866 0.29816 0.75868 0.0
N201 N 0.71637 0.25619 0.72414 0.0
C202 C 0.71883 0.24887 0.69616 0.0
C203 C 0.67688 0.25927 0.71136 0.0
N204 N 0.69038 0.26295 0.73354 0.0
N205 N 0.69439 0.25071 0.68764 0.0
C206 C 0.799 0.27465 0.83623 0.0
C207 C 0.84015 0.26339 0.81798 0.0
N208 N 0.80036 0.27027 0.80818 0.0
N209 N 0.82592 0.26329 0.79695 0.0
N210 N 0.82367 0.2701 0.84286 0.0
H211 H 0.77208 0.30512 0.86015 0.0
H212 H 0.77399 0.27567 0.8773 0.0
H213 H 0.75421 0.27205 0.84873 0.0
C214 C 0.7733 0.28209 0.85686 0.0
C215 C 0.74526 0.24067 0.67704 0.0
H216 H 0.76373 0.25298 0.68456 0.0
H217 H 0.7447 0.24394 0.65535 0.0
H218 H 0.74748 0.21815 0.67667 0.0
O219 O 0.76749 0.22605 0.72482 0.0
O220 O 0.79471 0.23456 0.75665 0.0
C221 C 0.79233 0.30283 0.73585 0.0
O222 O 0.74567 0.23698 0.80517 0.0
O223 O 0.71786 0.22849 0.77377 0.0
Zn224 Zn 0.78208 0.77891 0.76374 0.0
O225 O 0.7995 0.76138 0.79297 0.0
C226 C 0.79997 0.73092 0.72118 0.0
Zn227 Zn 0.74732 0.74587 0.76289 0.0
C228 C 0.78816 0.73845 0.80029 0.0
O229 O 0.76558 0.72797 0.79164 0.0
C230 C 0.7414 0.78557 0.72589 0.0
O231 O 0.71997 0.76932 0.79586 0.0
O232 O 0.75444 0.80214 0.79643 0.0
N233 N 0.7188 0.71255 0.75931 0.0
C234 C 0.70665 0.69639 0.7783 0.0
C235 C 0.6959 0.67664 0.73876 0.0
N236 N 0.71207 0.70037 0.73474 0.0
N237 N 0.69265 0.67361 0.76586 0.0
C238 C 0.82085 0.83005 0.74928 0.0
C239 C 0.82935 0.85033 0.78943 0.0
N240 N 0.81039 0.81256 0.76756 0.0
N241 N 0.81591 0.82504 0.79249 0.0
N242 N 0.83261 0.85382 0.76247 0.0
H243 H 0.83809 0.83354 0.70659 0.0
H244 H 0.80092 0.83511 0.7152 0.0
H245 H 0.81582 0.8018 0.71091 0.0
C246 C 0.81879 0.82456 0.71868 0.0
C247 C 0.70738 0.70334 0.80919 0.0
H248 H 0.72268 0.69081 0.81461 0.0
H249 H 0.68659 0.6977 0.82115 0.0
H250 H 0.71341 0.72578 0.8157 0.0
O251 O 0.72944 0.76347 0.73441 0.0
O252 O 0.76415 0.79613 0.73404 0.0
C253 C 0.72936 0.79388 0.80552 0.0
O254 O 0.80969 0.75527 0.7312 0.0
O255 O 0.77465 0.72299 0.7298 0.0
Co256 Co 0.0407 0.97094 0.54575 0.0
N257 N 0.04958 0.95259 0.57312 0.0
C258 C 0.03402 0.93125 0.58406 0.0
N259 N 0.07294 0.93689 0.60228 0.0
C260 C 0.07351 0.95519 0.58418 0.0
C261 C 0.04799 0.92201 0.60218 0.0
Co262 Co 0.96029 0.04305 0.49354 0.0
N263 N 0.94464 0.05497 0.46576 0.0
N264 N 0.92544 0.07835 0.43911 0.0
C265 C 0.91302 0.05223 0.43752 0.0
C266 C 0.92462 0.03811 0.45382 0.0
C267 C 0.94464 0.07966 0.45635 0.0
Co268 Co 1.00368 0.00991 0.51895 0.0
C269 C 0.96903 0.06069 0.53179 0.0
H270 H 0.91759 0.01719 0.45799 0.0
O271 O 0.03419 0.98504 0.51735 0.0
O272 O 0.02924 0.03226 0.49331 0.0
O273 O 0.01592 0.0344 0.55293 0.0
O274 O 0.97629 0.9888 0.54344 0.0
O275 O 1.00227 0.96241 0.5591 0.0
O276 O 0.99761 0.05204 0.4759 0.0
O277 O 0.97273 0.03441 0.52142 0.0
O278 O 0.96165 0.00757 0.47226 0.0
O279 O 0.0383 1.005 0.57076 0.0
O280 O 0.04155 0.94069 0.51942 0.0
O281 O 0.99275 0.98433 0.48529 0.0
O282 O 0.96027 0.07584 0.5162 0.0
C283 C 0.02839 0.02857 0.57195 0.0
C284 C 0.96192 0.10581 0.46584 0.0
H285 H 0.98155 0.1007 0.47157 0.0
H286 H 0.96692 0.11912 0.44917 0.0
H287 H 0.94978 0.11789 0.48456 0.0
C288 C 0.02276 0.04749 0.477 0.0
C289 C 0.97875 0.9709 0.5584 0.0
H290 H 0.01423 0.922 0.57834 0.0
H291 H 0.10646 0.96892 0.55358 0.0
H292 H 0.11439 0.97623 0.58885 0.0
H293 H 0.09036 0.99656 0.57811 0.0
C294 C 0.09773 0.97538 0.57599 0.0
C295 C 0.03763 0.95928 0.50465 0.0
C296 C 0.9753 0.98628 0.46945 0.0
H297 H 0.04088 0.90473 0.61356 0.0
H298 H 0.89574 0.04438 0.42637 0.0
Co299 Co 0.54255 0.97164 0.04424 0.0
N300 N 0.5551 0.96137 0.07443 0.0
C301 C 0.54994 0.97408 0.10134 0.0
N302 N 0.57812 0.9413 0.10062 0.0
C303 C 0.57177 0.94089 0.07474 0.0
C304 C 0.56442 0.96222 0.1173 0.0
Co305 Co 0.47479 0.04543 0.97933 0.0
N306 N 0.46255 0.05491 0.94874 0.0
N307 N 0.44546 0.08015 0.92222 0.0
C308 C 0.44985 0.05442 0.90747 0.0
C309 C 0.46041 0.03912 0.92361 0.0
C310 C 0.45371 0.07991 0.94722 0.0
Co311 Co 0.50861 0.00896 0.01246 0.0
C312 C 0.45624 0.03967 0.01869 0.0
H313 H 0.46606 0.01781 0.91724 0.0
O314 O 0.53395 0.97988 0.01387 0.0
O315 O 0.53747 0.02401 0.9812 0.0
O316 O 0.52719 0.03785 0.04072 0.0
O317 O 0.47981 0.99397 0.04387 0.0
O318 O 0.50547 0.96957 0.06337 0.0
O319 O 0.51157 0.04652 0.96006 0.0
O320 O 0.48316 0.03789 0.01048 0.0
O321 O 0.46837 1.00681 0.96433 0.0
O322 O 0.54825 0.01 0.0605 0.0
O323 O 0.57633 0.97445 0.02283 0.0
O324 O 0.49023 0.97995 0.98443 0.0
O325 O 0.44124 0.04413 1.00062 0.0
C326 C 0.54248 0.03432 0.05843 0.0
C327 C 0.45534 0.10461 0.97008 0.0
H328 H 0.4719 0.10248 0.98229 0.0
H329 H 0.45976 0.12444 0.9613 0.0
H330 H 0.43513 0.10527 0.98463 0.0
C331 C 0.53503 0.03866 0.96231 0.0
C332 C 0.48207 0.97826 0.06195 0.0
H333 H 0.53637 0.99086 0.10893 0.0
H334 H 0.56841 0.89971 0.05125 0.0
H335 H 0.60338 0.91587 0.0489 0.0
H336 H 0.57853 0.92635 0.02981 0.0
C337 C 0.58125 0.91979 0.04955 0.0
C338 C 0.56075 0.97828 0.00503 0.0
C339 C 0.47453 0.98284 0.96693 0.0
H340 H 0.5649 0.96847 0.13951 0.0
H341 H 0.44522 0.04691 0.88653 0.0
Co342 Co 0.05367 0.47639 0.03563 0.0
N343 N 0.06739 0.47175 0.06736 0.0
C344 C 0.06234 0.48578 0.09372 0.0
N345 N 0.08716 0.45063 0.09559 0.0
C346 C 0.08248 0.45046 0.06905 0.0
C347 C 0.07458 0.47306 0.11097 0.0
Co348 Co 0.96949 0.52021 0.96312 0.0
N349 N 0.95593 0.52699 0.93161 0.0
N350 N 0.93648 0.54885 0.90364 0.0
C351 C 0.92691 0.52162 0.90044 0.0
C352 C 0.93862 0.50842 0.91765 0.0
C353 C 0.95448 0.55152 0.92235 0.0
Co354 Co 0.01276 0.49929 0.9989 0.0
C355 C 0.97335 0.54361 1.0013 0.0
H356 H 0.9331 0.4871 0.92131 0.0
O357 O 0.04439 0.47905 0.00378 0.0
O358 O 0.03744 0.51607 0.96856 0.0
O359 O 0.02343 0.53246 0.02553 0.0
O360 O 0.98792 0.48255 0.02903 0.0
O361 O 0.01667 0.46833 0.05372 0.0
O362 O 1.00652 0.53079 0.94692 0.0
O363 O 0.9799 0.51771 0.99453 0.0
O364 O 0.97449 0.48179 0.94688 0.0
O365 O 0.05163 0.5158 0.04891 0.0
O366 O 0.08727 0.48394 0.01514 0.0
O367 O 1.00229 0.46645 0.97199 0.0
O368 O 0.9654 0.555 0.98229 0.0
C369 C 0.03977 0.53593 0.04359 0.0
C370 C 0.9709 0.57851 0.93174 0.0
H371 H 0.991 0.57464 0.93729 0.0
H372 H 0.9752 0.59179 0.91504 0.0
H373 H 0.95874 0.59028 0.95063 0.0
C374 C 0.03159 0.52836 0.94974 0.0
C375 C 0.99224 0.47104 0.04906 0.0
H376 H 0.04977 0.50352 0.10021 0.0
H377 H 0.07721 0.41068 0.04301 0.0
H378 H 0.11328 0.42293 0.04526 0.0
H379 H 0.09371 0.43769 0.02421 0.0
C380 C 0.09245 0.42937 0.04396 0.0
C381 C 0.07145 0.48238 0.99602 0.0
C382 C 0.98721 0.46238 0.9527 0.0
H383 H 0.07349 0.47934 0.13338 0.0
H384 H 0.9109 0.51234 0.88811 0.0
Co385 Co 0.54771 0.4852 0.05058 0.0
N386 N 0.55955 0.47587 0.08175 0.0
C387 C 0.54537 0.47874 0.10815 0.0
N388 N 0.58403 0.45912 0.10934 0.0
C389 C 0.58316 0.46416 0.08313 0.0
C390 C 0.56032 0.46871 0.12503 0.0
Co391 Co 0.45567 0.52748 0.98469 0.0
N392 N 0.44187 0.53419 0.95296 0.0
N393 N 0.42041 0.55128 0.92298 0.0
C394 C 0.43814 0.53266 0.90816 0.0
C395 C 0.45112 0.52225 0.9264 0.0
C396 C 0.42289 0.55175 0.95025 0.0
Co397 Co 0.50265 0.50773 0.01737 0.0
C398 C 0.46087 0.55039 0.0224 0.0
H399 H 0.46699 0.50742 0.9205 0.0
O400 O 0.53812 0.49119 0.01947 0.0
O401 O 0.52543 0.5306 0.99041 0.0
O402 O 0.50888 0.53831 0.04948 0.0
O403 O 0.47949 0.48462 0.04409 0.0
O404 O 0.51211 0.46842 0.06242 0.0
O405 O 0.49211 0.53829 0.96754 0.0
O406 O 0.46725 0.52433 0.01566 0.0
O407 O 0.46103 0.49025 0.96789 0.0
O408 O 0.53682 0.51936 0.07166 0.0
O409 O 0.55638 0.45365 0.02788 0.0
O410 O 0.49659 0.47729 0.98514 0.0
O411 O 0.45257 0.56199 1.0037 0.0
C412 C 0.52191 0.53876 0.06999 0.0
C413 C 0.40833 0.57095 0.97459 0.0
H414 H 0.40238 0.56003 0.99305 0.0
H415 H 0.42289 0.58949 0.98007 0.0
H416 H 0.38946 0.57863 0.96985 0.0
C417 C 0.51768 0.53953 0.97033 0.0
C418 C 0.48688 0.46954 0.05981 0.0
H419 H 0.52512 0.48709 0.11463 0.0
H420 H 0.60225 0.43814 0.04689 0.0
H421 H 0.62683 0.46126 0.06553 0.0
H422 H 0.60614 0.47478 0.04433 0.0
C423 C 0.60613 0.45946 0.05862 0.0
C424 C 0.54717 0.46623 0.0104 0.0
C425 C 0.47874 0.47291 0.96831 0.0
H426 H 0.55367 0.46758 0.14707 0.0
H427 H 0.44175 0.52731 0.88553 0.0
Co428 Co 0.0463 0.47288 0.54188 0.0
N429 N 0.05756 0.46037 0.57125 0.0
C430 C 0.04536 0.46248 0.59829 0.0
N431 N 0.08387 0.44087 0.59482 0.0
C432 C 0.08114 0.44754 0.56975 0.0
C433 C 0.06127 0.45041 0.61269 0.0
Co434 Co 0.97247 0.54514 0.48169 0.0
N435 N 0.95805 0.55425 0.4521 0.0
N436 N 0.93652 0.57623 0.42626 0.0
C437 C 0.94501 0.55212 0.41059 0.0
C438 C 0.95845 0.53886 0.42631 0.0
C439 C 0.94485 0.57714 0.45135 0.0
Co440 Co 0.00948 0.50867 0.5112 0.0
C441 C 0.95659 0.53974 0.52172 0.0
H442 H 0.96782 0.51914 0.4193 0.0
O443 O 0.0371 0.48126 0.5115 0.0
O444 O 0.03701 0.52527 0.48015 0.0
O445 O 0.02808 0.53702 0.54023 0.0
O446 O 0.98129 0.4923 0.54169 0.0
O447 O 1.00824 0.46856 0.55983 0.0
O448 O 1.00852 0.546 0.4602 0.0
O449 O 0.98307 0.53754 0.5114 0.0
O450 O 0.96494 0.50697 0.46777 0.0
O451 O 0.05031 0.51013 0.56057 0.0
O452 O 0.04202 0.43901 0.52137 0.0
O453 O 0.99127 0.47984 0.4823 0.0
O454 O 0.93996 0.54396 0.50504 0.0
C455 C 0.04344 0.53403 0.55826 0.0
C456 C 0.93962 0.60023 0.47581 0.0
H457 H 0.94385 0.59413 0.49528 0.0
H458 H 0.95374 0.61901 0.47162 0.0
H459 H 0.91772 0.60595 0.47868 0.0
C460 C 0.0328 0.53924 0.46137 0.0
C461 C 0.98435 0.47623 0.55892 0.0
H462 H 0.02641 0.47257 0.60713 0.0
H463 H 0.09862 0.42283 0.53138 0.0
H464 H 0.12397 0.44617 0.54876 0.0
H465 H 0.10054 0.45966 0.53031 0.0
C466 C 0.10248 0.44395 0.54361 0.0
C467 C 0.03733 0.4541 0.50349 0.0
C468 C 0.97252 0.48293 0.46794 0.0
H469 H 0.05647 0.44869 0.63474 0.0
H470 H 0.94177 0.54468 0.38918 0.0
Co471 Co 0.55971 0.97935 0.53499 0.0
N472 N 0.57401 0.97372 0.56617 0.0
C473 C 0.57113 0.98923 0.59198 0.0
N474 N 0.59548 0.95394 0.59404 0.0
C475 C 0.58868 0.95219 0.56807 0.0
C476 C 0.58447 0.97735 0.60895 0.0
Co477 Co 0.47904 0.0356 0.46807 0.0
N478 N 0.46808 0.04653 0.43721 0.0
N479 N 0.44443 0.06565 0.41048 0.0
C480 C 0.46811 0.05607 0.39465 0.0
C481 C 0.48234 0.04428 0.4109 0.0
C482 C 0.44481 0.05921 0.43632 0.0
Co483 Co 0.51918 1.00664 0.50139 0.0
C484 C 0.48257 0.05494 0.50773 0.0
H485 H 0.50197 0.03478 0.40396 0.0
O486 O 0.54958 0.98308 0.50395 0.0
O487 O 0.54572 0.02629 0.47421 0.0
O488 O 0.52976 0.0369 0.53107 0.0
O489 O 0.49336 0.98711 0.52925 0.0
O490 O 0.52275 0.97439 0.55438 0.0
O491 O 0.51674 0.04631 0.45462 0.0
O492 O 0.48746 0.02858 0.49909 0.0
O493 O 0.48338 0.9991 0.44822 0.0
O494 O 0.5618 0.01849 0.54781 0.0
O495 O 0.593 0.98403 0.51309 0.0
O496 O 0.50862 0.97712 0.47067 0.0
O497 O 0.4765 0.06913 0.48979 0.0
C498 C 0.54909 0.03927 0.54575 0.0
C499 C 0.42227 0.06493 0.46127 0.0
H500 H 0.40448 0.04888 0.45899 0.0
H501 H 0.42931 0.06335 0.48107 0.0
H502 H 0.41475 0.08591 0.46262 0.0
C503 C 0.54121 0.04191 0.45753 0.0
C504 C 0.49807 0.97633 0.54975 0.0
H505 H 0.55971 0.00779 0.59825 0.0
H506 H 0.58108 0.91096 0.5457 0.0
H507 H 0.61759 0.92302 0.54385 0.0
H508 H 0.59563 0.93612 0.52361 0.0
C509 C 0.5964 0.92941 0.54384 0.0
C510 C 0.57651 0.98366 0.49478 0.0
C511 C 0.4951 0.97763 0.45072 0.0
H512 H 0.58555 0.98508 0.63084 0.0
H513 H 0.47476 0.05743 0.37266 0.0
H514 H 0.12457 0.18461 0.29891 0.0
H515 H 0.09463 0.15696 0.32968 0.0
H516 H 0.11438 0.0816 0.27182 0.0
H517 H 0.1432 0.1097 0.23909 0.0
H518 H 0.05899 0.08055 0.31559 0.0
H519 H 0.16033 0.09655 0.30598 0.0
H520 H 0.20424 0.12654 0.29771 0.0
H521 H 0.17575 0.18547 0.37065 0.0
H522 H 0.13152 0.15596 0.37914 0.0
H523 H 0.0565 0.01558 0.43728 0.0
H524 H 0.08164 0.02966 0.39334 0.0
H525 H 0.06089 0.1148 0.42385 0.0
H526 H 0.03533 0.10074 0.46753 0.0
H527 H 0.12055 0.10122 0.38864 0.0
H528 H 0.01793 0.08779 0.39427 0.0
H529 H 0.97336 0.05904 0.40243 0.0
H530 H 1.00423 0.99444 0.33627 0.0
H531 H 0.04956 0.02254 0.32809 0.0
C532 C 0.12116 0.16258 0.29122 0.0
C533 C 0.13697 0.14947 0.26644 0.0
C534 C 0.10397 0.1466 0.30926 0.0
C535 C 0.10314 0.11732 0.30332 0.0
C536 C 0.11503 0.10425 0.27678 0.0
C537 C 0.13164 0.12036 0.25823 0.0
C538 C 0.09742 0.1018 0.32709 0.0
C539 C 0.0727 0.08443 0.33126 0.0
C540 C 0.11552 0.10692 0.34739 0.0
C541 C 0.14259 0.12412 0.34311 0.0
C542 C 0.16342 0.11594 0.32021 0.0
C543 C 0.18835 0.13285 0.31548 0.0
C544 C 0.19276 0.15793 0.3336 0.0
C545 C 0.17231 0.16604 0.35662 0.0
C546 C 0.14733 0.1492 0.36144 0.0
C547 C 0.0584 0.03748 0.43498 0.0
C548 C 0.04439 0.05727 0.45558 0.0
C549 C 0.07235 0.04535 0.40985 0.0
C550 C 0.07255 0.07304 0.40546 0.0
C551 C 0.0608 0.09331 0.42708 0.0
C552 C 0.04637 0.08536 0.45192 0.0
C553 C 0.08186 0.08047 0.37744 0.0
C554 C 0.10731 0.09646 0.37254 0.0
C555 C 0.06459 0.07374 0.35644 0.0
C556 C 0.03734 0.057 0.36099 0.0
C557 C 0.01544 0.06727 0.38175 0.0
C558 C 0.99004 0.05112 0.38635 0.0
C559 C 0.98608 0.02483 0.3701 0.0
C560 C 1.0075 0.0147 0.34901 0.0
C561 C 0.03306 0.03072 0.34438 0.0
H562 H 0.96635 0.01244 0.37374 0.0
H563 H 0.21203 0.17103 0.32984 0.0
H564 H 0.7614 0.19842 0.33184 0.0
H565 H 0.78759 0.17563 0.3585 0.0
H566 H 0.85799 0.1739 0.2914 0.0
H567 H 0.83134 0.19513 0.26408 0.0
H568 H 0.855 0.12857 0.31364 0.0
H569 H 0.8534 0.22671 0.35093 0.0
H570 H 0.83059 0.2705 0.36997 0.0
H571 H 0.78564 0.2334 0.43968 0.0
H572 H 0.80796 0.18927 0.42087 0.0
H573 H 0.95211 0.10369 0.39601 0.0
H574 H 0.93013 0.13123 0.36945 0.0
H575 H 0.85391 0.12742 0.42924 0.0
H576 H 0.87606 0.10025 0.45565 0.0
H577 H 0.86247 0.17759 0.41002 0.0
H578 H 0.86457 0.07904 0.37148 0.0
H579 H 0.88943 0.03646 0.35297 0.0
H580 H 0.93468 0.07527 0.28453 0.0
H581 H 0.91075 0.11852 0.30322 0.0
C582 C 0.78213 0.19254 0.3225 0.0
C583 C 0.79412 0.19866 0.29585 0.0
C584 C 0.79729 0.17986 0.33792 0.0
C585 C 0.82514 0.1738 0.32739 0.0
C586 C 0.83666 0.17853 0.30016 0.0
C587 C 0.82131 0.19072 0.28453 0.0
C588 C 0.84264 0.16377 0.34517 0.0
C589 C 0.85691 0.13954 0.33455 0.0
C590 C 0.84509 0.17788 0.37262 0.0
C591 C 0.83223 0.20464 0.3844 0.0
C592 C 0.8386 0.22788 0.37029 0.0
C593 C 0.82575 0.25275 0.38103 0.0
C594 C 0.80665 0.25471 0.406 0.0
C595 C 0.80047 0.23186 0.42036 0.0
C596 C 0.81324 0.20692 0.40969 0.0
C597 C 0.93106 0.10975 0.40391 0.0
C598 C 0.91575 0.10022 0.42791 0.0
C599 C 0.91841 0.1252 0.38866 0.0
C600 C 0.89017 0.13103 0.39711 0.0
C601 C 0.87565 0.12323 0.42228 0.0
C602 C 0.88828 0.10781 0.4374 0.0
C603 C 0.8747 0.14241 0.37851 0.0
C604 C 0.86073 0.16681 0.38901 0.0
C605 C 0.87268 0.12857 0.35089 0.0
C606 C 0.88609 0.10213 0.33893 0.0
C607 C 0.87991 0.07855 0.35255 0.0
C608 C 0.89386 0.0543 0.34204 0.0
C609 C 0.91364 0.05315 0.31758 0.0
C610 C 0.9194 0.07622 0.30351 0.0
C611 C 0.90569 0.10064 0.31409 0.0
H612 H 0.92451 0.0344 0.30953 0.0
H613 H 0.79666 0.27396 0.41425 0.0
H614 H 0.8544 0.86585 0.29821 0.0
H615 H 0.88608 0.89679 0.32456 0.0
H616 H 0.95498 0.87686 0.25799 0.0
H617 H 0.92256 0.84658 0.23033 0.0
H618 H 0.96077 0.86697 0.31391 0.0
H619 H 0.94504 0.94245 0.26976 0.0
H620 H 0.9163 0.97036 0.25014 0.0
H621 H 0.86566 0.98972 0.33095 0.0
H622 H 0.89417 0.96209 0.35111 0.0
H623 H 0.01746 0.96479 0.42978 0.0
H624 H 0.01236 0.93998 0.38249 0.0
H625 H 0.92255 0.93885 0.40519 0.0
H626 H 0.92756 0.963 0.45218 0.0
H627 H 0.94549 0.9651 0.35817 0.0
H628 H 0.9556 0.8842 0.4004 0.0
H629 H 0.98217 0.85531 0.42111 0.0
H630 H 0.04048 0.84248 0.34436 0.0
H631 H 0.01459 0.87188 0.32334 0.0
C632 C 0.8758 0.86918 0.28822 0.0
C633 C 0.88568 0.8544 0.26164 0.0
C634 C 0.89411 0.8866 0.30361 0.0
C635 C 0.92278 0.88923 0.29308 0.0
C636 C 0.93284 0.8752 0.2663 0.0
C637 C 0.91433 0.85808 0.25058 0.0
C638 C 0.94187 0.90445 0.31184 0.0
C639 C 0.9584 0.88876 0.32306 0.0
C640 C 0.93848 0.93273 0.32368 0.0
C641 C 0.92181 0.95022 0.31193 0.0
C642 C 0.9278 0.95271 0.28335 0.0
C643 C 0.91157 0.96851 0.27215 0.0
C644 C 0.88919 0.98182 0.2893 0.0
C645 C 0.88308 0.97948 0.31772 0.0
C646 C 0.89938 0.96391 0.32909 0.0
C647 C 0.99671 0.958 0.42493 0.0
C648 C 0.97282 0.96524 0.44456 0.0
C649 C 0.99385 0.94436 0.39786 0.0
C650 C 0.96711 0.9381 0.39037 0.0
C651 C 0.94336 0.94384 0.41058 0.0
C652 C 0.94619 0.95732 0.43743 0.0
C653 C 0.963 0.92717 0.36131 0.0
C654 C 0.94927 0.9438 0.34821 0.0
C655 C 0.96879 0.89967 0.34804 0.0
C656 C 0.98376 0.88127 0.36061 0.0
C657 C 0.97442 0.87579 0.38808 0.0
C658 C 0.98928 0.85915 0.39986 0.0
C659 C 0.01321 0.84736 0.38419 0.0
C660 C 0.02211 0.85188 0.35659 0.0
C661 C 1.00739 0.86862 0.34477 0.0
H662 H 0.02471 0.83451 0.39335 0.0
H663 H 0.8766 0.994 0.28058 0.0
H664 H 0.23041 0.84344 0.33933 0.0
H665 H 0.19834 0.8758 0.36964 0.0
H666 H 0.1329 0.84134 0.32166 0.0
H667 H 0.16509 0.81005 0.29073 0.0
H668 H 0.12777 0.89352 0.33459 0.0
H669 H 0.13844 0.82313 0.38799 0.0
H670 H 0.1638 0.79399 0.4099 0.0
H671 H 0.19713 0.86782 0.45921 0.0
H672 H 0.17223 0.89744 0.43732 0.0
H673 H 0.02163 0.91301 0.46927 0.0
H674 H 0.05036 0.89272 0.42563 0.0
H675 H 0.1067 0.96747 0.42982 0.0
H676 H 0.07717 0.98841 0.47246 0.0
H677 H 0.11648 0.89826 0.43757 0.0
H678 H 0.09833 0.96763 0.38269 0.0
H679 H 0.06899 0.99131 0.35954 0.0
H680 H 0.04459 0.91278 0.31161 0.0
H681 H 0.07289 0.88828 0.3353 0.0
C682 C 0.20923 0.84289 0.33518 0.0
C683 C 0.20036 0.82402 0.31263 0.0
C684 C 0.19079 0.86134 0.35262 0.0
C685 C 0.16284 0.86085 0.34839 0.0
C686 C 0.15423 0.84235 0.32552 0.0
C687 C 0.17273 0.8243 0.30784 0.0
C688 C 0.14227 0.87886 0.36809 0.0
C689 C 0.12529 0.89443 0.35711 0.0
C690 C 0.13876 0.88023 0.39757 0.0
C691 C 0.15374 0.8625 0.41078 0.0
C692 C 0.15134 0.83315 0.40335 0.0
C693 C 0.16561 0.81656 0.41579 0.0
C694 C 0.18214 0.82905 0.43587 0.0
C695 C 0.18437 0.85818 0.44361 0.0
C696 C 0.17018 0.87488 0.43121 0.0
C697 C 0.03915 0.92578 0.45987 0.0
C698 C 0.04692 0.95246 0.47405 0.0
C699 C 0.05569 0.91409 0.43502 0.0
C700 C 0.0806 0.92864 0.42424 0.0
C701 C 0.08722 0.95612 0.43723 0.0
C702 C 0.07021 0.96815 0.46161 0.0
C703 C 0.10231 0.91298 0.40404 0.0
C704 C 0.11928 0.89758 0.41504 0.0
C705 C 0.1052 0.91127 0.37463 0.0
C706 C 0.08715 0.92596 0.36146 0.0
C707 C 0.08603 0.95521 0.36794 0.0
C708 C 0.0697 0.96882 0.35457 0.0
C709 C 0.05473 0.9535 0.33436 0.0
C710 C 0.05595 0.92452 0.32753 0.0
C711 C 0.07204 0.91076 0.34099 0.0
H712 H 0.04243 0.96407 0.32374 0.0
H713 H 0.19316 0.81617 0.44547 0.0
H714 H 0.19502 0.82986 0.76285 0.0
H715 H 0.16983 0.85775 0.74019 0.0
H716 H 0.23438 0.85018 0.66754 0.0
H717 H 0.25989 0.82236 0.69019 0.0
H718 H 0.21416 0.90347 0.68014 0.0
H719 H 0.17809 0.80755 0.66571 0.0
H720 H 0.1591 0.76212 0.67974 0.0
H721 H 0.08797 0.80072 0.73054 0.0
H722 H 0.10679 0.8465 0.71717 0.0
H723 H 0.12722 0.92701 0.58191 0.0
H724 H 0.15996 0.90997 0.60674 0.0
H725 H 0.09778 0.91517 0.68146 0.0
H726 H 0.06541 0.93259 0.65679 0.0
H727 H 0.11846 0.86347 0.66665 0.0
H728 H 0.15476 0.95984 0.67881 0.0
H729 H 0.1742 1.00434 0.66301 0.0
H730 H 0.24524 0.96403 0.61416 0.0
H731 H 0.226 0.91913 0.62932 0.0
C732 C 0.20419 0.83446 0.74224 0.0
C733 C 0.22951 0.82359 0.72829 0.0
C734 C 0.18968 0.85039 0.72926 0.0
C735 C 0.20005 0.8558 0.70199 0.0
C736 C 0.22599 0.84628 0.68857 0.0
C737 C 0.24053 0.83028 0.70155 0.0
C738 C 0.18278 0.86951 0.68683 0.0
C739 C 0.19335 0.89461 0.67692 0.0
C740 C 0.15553 0.85807 0.68275 0.0
C741 C 0.144 0.83052 0.69066 0.0
C742 C 0.15851 0.8064 0.68005 0.0
C743 C 0.14777 0.78058 0.68786 0.0
C744 C 0.12238 0.77855 0.70608 0.0
C745 C 0.10766 0.80233 0.71646 0.0
C746 C 0.11835 0.82822 0.70877 0.0
C747 C 0.12101 0.92546 0.6039 0.0
C748 C 0.09397 0.93156 0.61762 0.0
C749 C 0.1396 0.91549 0.61802 0.0
C750 C 0.13134 0.91125 0.64602 0.0
C751 C 0.10463 0.91819 0.6599 0.0
C752 C 0.08621 0.92826 0.64587 0.0
C753 C 0.14957 0.89775 0.66034 0.0
C754 C 0.13922 0.87248 0.66995 0.0
C755 C 0.17703 0.90897 0.66388 0.0
C756 C 0.18878 0.93602 0.65498 0.0
C757 C 0.17441 0.96039 0.66451 0.0
C758 C 0.18541 0.9857 0.6557 0.0
C759 C 0.2109 0.987 0.63752 0.0
C760 C 0.22548 0.96299 0.6282 0.0
C761 C 0.21455 0.9376 0.63691 0.0
H762 H 0.21938 1.00662 0.63071 0.0
H763 H 0.11409 0.75854 0.71209 0.0
H764 H 0.15956 0.21599 0.71275 0.0
H765 H 0.12189 0.1891 0.69075 0.0
H766 H 0.11384 0.13061 0.74893 0.0
H767 H 0.15327 0.15646 0.76948 0.0
H768 H 0.1181 0.10348 0.69973 0.0
H769 H 0.06097 0.17557 0.74765 0.0
H770 H 0.04701 0.22365 0.76459 0.0
H771 H 0.04973 0.23638 0.67982 0.0
H772 H 0.06412 0.18853 0.66231 0.0
H773 H 0.02247 0.01973 0.6255 0.0
H774 H 0.03695 0.05219 0.66529 0.0
H775 H 0.05835 0.11701 0.61364 0.0
H776 H 0.04247 0.08478 0.57402 0.0
H777 H 0.04048 0.13949 0.66675 0.0
H778 H 0.11068 0.07323 0.6212 0.0
H779 H 0.12925 0.02694 0.60462 0.0
H780 H 0.10181 1.0043 0.68632 0.0
H781 H 0.08366 0.05083 0.70353 0.0
C782 C 0.15015 0.19711 0.72047 0.0
C783 C 0.16025 0.18746 0.74185 0.0
C784 C 0.12799 0.18217 0.70842 0.0
C785 C 0.11485 0.15782 0.71821 0.0
C786 C 0.12371 0.14927 0.74092 0.0
C787 C 0.1462 0.16397 0.75262 0.0
C788 C 0.09476 0.13933 0.70235 0.0
C789 C 0.10062 0.11128 0.69328 0.0
C790 C 0.07235 0.14955 0.69324 0.0
C791 C 0.0638 0.17845 0.70366 0.0
C792 C 0.05882 0.18868 0.73259 0.0
C793 C 0.05078 0.21589 0.74231 0.0
C794 C 0.04752 0.23307 0.7233 0.0
C795 C 0.05226 0.22305 0.69453 0.0
C796 C 0.06031 0.19586 0.6847 0.0
C797 C 0.02972 0.04112 0.62286 0.0
C798 C 0.03202 0.04973 0.59667 0.0
C799 C 0.03806 0.05959 0.64554 0.0
C800 C 0.04965 0.08669 0.64214 0.0
C801 C 0.04973 0.09607 0.61663 0.0
C802 C 0.04074 0.0777 0.59401 0.0
C803 C 0.06435 0.10407 0.66397 0.0
C804 C 0.05753 0.13176 0.67399 0.0
C805 C 0.08595 0.09365 0.67412 0.0
C806 C 0.09554 0.06528 0.66351 0.0
C807 C 0.1084 0.05826 0.63553 0.0
C808 C 0.11895 0.03204 0.62608 0.0
C809 C 0.1165 0.01257 0.64436 0.0
C810 C 0.10361 0.01936 0.67218 0.0
C811 C 0.09332 0.04569 0.68182 0.0
H812 H 0.12476 0.99231 0.63706 0.0
H813 H 0.04129 0.25412 0.73086 0.0
H814 H 0.83148 0.19996 0.75138 0.0
H815 H 0.86558 0.16829 0.72433 0.0
H816 H 0.82508 0.16197 0.65193 0.0
H817 H 0.79032 0.19335 0.67921 0.0
H818 H 0.84152 0.11223 0.65446 0.0
H819 H 0.88486 0.206 0.66047 0.0
H820 H 0.90066 0.25266 0.68397 0.0
H821 H 0.95217 0.21477 0.72706 0.0
H822 H 0.93631 0.16781 0.70414 0.0
H823 H 0.98009 0.11432 0.5552 0.0
H824 H 0.95329 0.13697 0.59806 0.0
H825 H 0.92293 0.05598 0.62072 0.0
H826 H 0.94851 0.03328 0.57652 0.0
H827 H 0.94189 0.14594 0.64882 0.0
H828 H 0.85842 0.05591 0.6543 0.0
H829 H 0.84338 0.01163 0.62569 0.0
H830 H 0.87194 0.04727 0.55063 0.0
H831 H 0.88692 0.09182 0.57888 0.0
C832 C 0.8296 0.19171 0.72975 0.0
C833 C 0.80817 0.19944 0.71745 0.0
C834 C 0.84927 0.17361 0.71424 0.0
C835 C 0.84835 0.16301 0.68587 0.0
C836 C 0.82637 0.16986 0.67376 0.0
C837 C 0.80648 0.18787 0.68937 0.0
C838 C 0.87089 0.14578 0.66861 0.0
C839 C 0.86346 0.11962 0.6533 0.0
C840 C 0.89965 0.15518 0.66695 0.0
C841 C 0.90911 0.18337 0.68088 0.0
C842 C 0.89935 0.2076 0.67516 0.0
C843 C 0.90834 0.2341 0.68834 0.0
C844 C 0.92732 0.23667 0.70708 0.0
C845 C 0.9374 0.21274 0.71262 0.0
C846 C 0.92841 0.18617 0.69954 0.0
C847 C 0.96864 0.1013 0.56988 0.0
C848 C 0.96592 0.07202 0.56213 0.0
C849 C 0.95305 0.11433 0.59451 0.0
C850 C 0.93479 0.09837 0.61236 0.0
C851 C 0.93584 0.06898 0.60692 0.0
C852 C 0.95107 0.05587 0.58182 0.0
C853 C 0.9126 0.11265 0.63384 0.0
C854 C 0.92 0.1383 0.65018 0.0
C855 C 0.88376 0.1032 0.63575 0.0
C856 C 0.87386 0.07703 0.61865 0.0
C857 C 0.86125 0.05432 0.63171 0.0
C858 C 0.8528 0.02919 0.61557 0.0
C859 C 0.85672 0.02664 0.58636 0.0
C860 C 0.86893 0.04928 0.57325 0.0
C861 C 0.87736 0.07448 0.5893 0.0
H862 H 0.8503 0.00711 0.5739 0.0
H863 H 0.93429 0.25721 0.71724 0.0
H864 H 0.79641 0.88581 0.75063 0.0
H865 H 0.8083 0.92423 0.72309 0.0
H866 H 0.89608 0.91665 0.72186 0.0
H867 H 0.88388 0.87872 0.74982 0.0
H868 H 0.88636 0.97061 0.72227 0.0
H869 H 0.8586 0.87638 0.67149 0.0
H870 H 0.82555 0.83601 0.65828 0.0
H871 H 0.7696 0.89159 0.6425 0.0
H872 H 0.80225 0.93226 0.65569 0.0
H873 H 0.97992 0.95003 0.60594 0.0
H874 H 0.94281 0.94819 0.64554 0.0
H875 H 0.88645 0.97887 0.60141 0.0
H876 H 0.92377 0.98025 0.56082 0.0
H877 H 0.86328 0.93464 0.62728 0.0
H878 H 0.90475 0.02398 0.65776 0.0
H879 H 0.94336 0.06077 0.66388 0.0
H880 H 0.97686 0.01304 0.71405 0.0
H881 H 0.93854 0.97605 0.70842 0.0
C882 C 0.81814 0.89321 0.74514 0.0
C883 C 0.83941 0.87962 0.75192 0.0
C884 C 0.8249 0.91498 0.72948 0.0
C885 C 0.85304 0.923 0.72015 0.0
C886 C 0.8742 0.91086 0.72897 0.0
C887 C 0.86738 0.88923 0.74479 0.0
C888 C 0.861 0.94038 0.69778 0.0
C889 C 0.881 0.96317 0.70156 0.0
C890 C 0.85298 0.93152 0.67104 0.0
C891 C 0.83254 0.90732 0.66509 0.0
C892 C 0.83902 0.87998 0.66565 0.0
C893 C 0.82041 0.85706 0.6581 0.0
C894 C 0.79537 0.86126 0.64988 0.0
C895 C 0.78884 0.88838 0.64919 0.0
C896 C 0.80738 0.91137 0.65668 0.0
C897 C 0.95956 0.95569 0.60413 0.0
C898 C 0.9548 0.9649 0.58 0.0
C899 C 0.9385 0.95538 0.62717 0.0
C900 C 0.91228 0.96451 0.62674 0.0
C901 C 0.90684 0.9725 0.60231 0.0
C902 C 0.92804 0.97287 0.57909 0.0
C903 C 0.89036 0.963 0.65139 0.0
C904 C 0.86748 0.94341 0.64819 0.0
C905 C 0.89585 0.97472 0.67854 0.0
C906 C 0.91864 0.99726 0.68274 0.0
C907 C 0.92036 0.02133 0.6701 0.0
C908 C 0.9422 0.0422 0.67345 0.0
C909 C 0.96257 0.03917 0.68922 0.0
C910 C 0.96103 0.01538 0.70188 0.0
C911 C 0.93915 0.99453 0.69877 0.0
H912 H 0.97953 0.05529 0.69165 0.0
H913 H 0.78122 0.84346 0.6437 0.0
H914 H 0.33963 0.21912 0.21172 0.0
H915 H 0.37208 0.18584 0.18436 0.0
H916 H 0.3027 0.13099 0.1579 0.0
H917 H 0.27004 0.16409 0.18567 0.0
H918 H 0.3399 0.10077 0.17079 0.0
H919 H 0.34472 0.17318 0.11421 0.0
H920 H 0.35151 0.22169 0.1044 0.0
H921 H 0.43514 0.22909 0.12298 0.0
H922 H 0.42871 0.18071 0.13325 0.0
H923 H 0.40327 0.02484 0.042 0.0
H924 H 0.37712 0.0508 0.08385 0.0
H925 H 0.45371 0.09674 0.10406 0.0
H926 H 0.47995 0.07079 0.06183 0.0
H927 H 0.41658 0.13142 0.09899 0.0
H928 H 0.41357 0.05507 0.14791 0.0
H929 H 0.40667 1.00538 0.15384 0.0
H930 H 0.31968 1.00402 0.14779 0.0
H931 H 0.32614 0.05352 0.14111 0.0
C932 C 0.33121 0.20024 0.19979 0.0
C933 C 0.30213 0.19466 0.20063 0.0
C934 C 0.34986 0.18105 0.18419 0.0
C935 C 0.33999 0.15586 0.16875 0.0
C936 C 0.31095 0.15018 0.16962 0.0
C937 C 0.29227 0.1693 0.18534 0.0
C938 C 0.35988 0.13575 0.15128 0.0
C939 C 0.35655 0.10743 0.15496 0.0
C940 C 0.38218 0.14442 0.13108 0.0
C941 C 0.38612 0.17346 0.12481 0.0
C942 C 0.36448 0.18523 0.11641 0.0
C943 C 0.36827 0.21268 0.11073 0.0
C944 C 0.3937 0.22849 0.11316 0.0
C945 C 0.41543 0.21684 0.12117 0.0
C946 C 0.41173 0.1894 0.1269 0.0
C947 C 0.41472 0.03949 0.0561 0.0
C948 C 0.44365 0.04576 0.04862 0.0
C949 C 0.3997 0.05449 0.08004 0.0
C950 C 0.41332 0.07604 0.09709 0.0
C951 C 0.44267 0.08035 0.09118 0.0
C952 C 0.45776 0.06515 0.06725 0.0
C953 C 0.39652 0.09636 0.11825 0.0
C954 C 0.4003 0.12477 0.11517 0.0
C955 C 0.37463 0.08765 0.13883 0.0
C956 C 0.37039 0.05808 0.14383 0.0
C957 C 0.39298 0.04417 0.14769 0.0
C958 C 0.38916 0.01601 0.15117 0.0
C959 C 0.36277 1.00155 0.15117 0.0
C960 C 0.34012 0.01526 0.14778 0.0
C961 C 0.34385 0.04339 0.14416 0.0
H962 H 0.35986 0.97974 0.15381 0.0
H963 H 0.3966 0.24975 0.10876 0.0
H964 H 0.87461 0.24828 0.12137 0.0
H965 H 0.89454 0.28568 0.0942 0.0
H966 H 0.83206 0.33944 0.14235 0.0
H967 H 0.81149 0.30194 0.16775 0.0
H968 H 0.84624 0.35634 0.09698 0.0
H969 H 0.89648 0.33347 0.16438 0.0
H970 H 0.9209 0.30299 0.18573 0.0
H971 H 0.98168 0.29031 0.1107 0.0
H972 H 0.95735 0.32043 0.08878 0.0
H973 H 0.98483 0.45957 0.10253 0.0
H974 H 0.94921 0.42604 0.12266 0.0
H975 H 0.91233 0.41211 0.04704 0.0
H976 H 0.94619 0.44694 0.02809 0.0
H977 H 0.94652 0.37561 0.10625 0.0
H978 H 0.84768 0.3796 0.05403 0.0
H979 H 0.81922 0.41476 0.04456 0.0
H980 H 0.85035 0.47567 0.10878 0.0
H981 H 0.87861 0.44078 0.11893 0.0
C982 C 0.86456 0.26769 0.125 0.0
C983 C 0.84165 0.27234 0.14644 0.0
C984 C 0.87598 0.28909 0.10979 0.0
C985 C 0.86535 0.31566 0.11695 0.0
C986 C 0.84075 0.31924 0.13644 0.0
C987 C 0.82895 0.29772 0.15098 0.0
C988 C 0.88187 0.34082 0.10803 0.0
C989 C 0.86824 0.36057 0.09878 0.0
C990 C 0.91017 0.34692 0.11173 0.0
C991 C 0.92493 0.3289 0.12485 0.0
C992 C 0.91497 0.32405 0.1524 0.0
C993 C 0.92878 0.30685 0.16459 0.0
C994 C 0.95278 0.29466 0.14955 0.0
C995 C 0.96305 0.29971 0.1223 0.0
C996 C 0.94926 0.31683 0.10998 0.0
C997 C 0.96843 0.45004 0.09078 0.0
C998 C 0.96821 0.45575 0.06385 0.0
C999 C 0.9482 0.4308 0.10214 0.0
C1000 C 0.92807 0.4164 0.08635 0.0
C1001 C 0.92707 0.42331 0.06002 0.0
C1002 C 0.94664 0.44318 0.0491 0.0
C1003 C 0.91089 0.3916 0.09544 0.0
C1004 C 0.92451 0.37168 0.10446 0.0
C1005 C 0.88211 0.38629 0.09327 0.0
C1006 C 0.86559 0.40763 0.08693 0.0
C1007 C 0.84846 0.4005 0.0661 0.0
C1008 C 0.83234 0.42038 0.06064 0.0
C1009 C 0.83308 0.44746 0.07597 0.0
C1010 C 0.84991 0.45472 0.09682 0.0
C1011 C 0.86604 0.43491 0.10239 0.0
H1012 H 0.82055 0.46281 0.07174 0.0
H1013 H 0.96346 0.28136 0.15903 0.0
H1014 H 0.71787 0.7663 0.17535 0.0
H1015 H 0.69018 0.79248 0.15341 0.0
H1016 H 0.73744 0.86924 0.18175 0.0
H1017 H 0.76506 0.8431 0.20402 0.0
H1018 H 0.68003 0.87226 0.19616 0.0
H1019 H 0.74588 0.84275 0.11359 0.0
H1020 H 0.7724 0.80843 0.07853 0.0
H1021 H 0.69561 0.76562 0.05652 0.0
H1022 H 0.66859 0.79947 0.09174 0.0
H1023 H 0.62025 0.96183 0.12875 0.0
H1024 H 0.65315 0.93533 0.14389 0.0
H1025 H 0.61192 0.85797 0.10747 0.0
H1026 H 0.57923 0.8847 0.09202 0.0
H1027 H 0.66693 0.855 0.09647 0.0
H1028 H 0.60074 0.88103 0.17868 0.0
H1029 H 0.57218 0.91259 0.21494 0.0
H1030 H 0.64675 0.95869 0.23905 0.0
H1031 H 0.67578 0.92759 0.20268 0.0
C1032 C 0.72251 0.78869 0.17673 0.0
C1033 C 0.74344 0.80264 0.19166 0.0
C1034 C 0.70681 0.80362 0.16399 0.0
C1035 C 0.71171 0.83283 0.16597 0.0
C1036 C 0.7333 0.8467 0.17999 0.0
C1037 C 0.74919 0.83172 0.19252 0.0
C1038 C 0.69306 0.84905 0.15513 0.0
C1039 C 0.67754 0.86887 0.17426 0.0
C1040 C 0.689 0.8438 0.12678 0.0
C1041 C 0.70521 0.82351 0.10549 0.0
C1042 C 0.73463 0.82589 0.10144 0.0
C1043 C 0.74976 0.80655 0.0815 0.0
C1044 C 0.73569 0.78482 0.06536 0.0
C1045 C 0.70647 0.78244 0.06906 0.0
C1046 C 0.69124 0.80172 0.08898 0.0
C1047 C 0.61837 0.93917 0.12393 0.0
C1048 C 0.59752 0.92529 0.10893 0.0
C1049 C 0.63706 0.92402 0.13265 0.0
C1050 C 0.63488 0.89458 0.1271 0.0
C1051 C 0.61412 0.88065 0.1119 0.0
C1052 C 0.59554 0.89589 0.10297 0.0
C1053 C 0.65405 0.87845 0.13748 0.0
C1054 C 0.66954 0.85855 0.11834 0.0
C1055 C 0.6578 0.88329 0.16595 0.0
C1056 C 0.64043 0.90215 0.18775 0.0
C1057 C 0.61105 0.89804 0.19155 0.0
C1058 C 0.59478 0.91582 0.21216 0.0
C1059 C 0.60764 0.93768 0.22924 0.0
C1060 C 0.63681 0.94177 0.22578 0.0
C1061 C 0.65319 0.92406 0.20519 0.0
H1062 H 0.59501 0.95141 0.24519 0.0
H1063 H 0.74744 0.76987 0.04994 0.0
H1064 H 0.13709 0.77288 0.16951 0.0
H1065 H 0.10832 0.74842 0.13508 0.0
H1066 H 0.1669 0.68474 0.10941 0.0
H1067 H 0.19469 0.70808 0.14433 0.0
H1068 H 0.13761 0.69409 0.06552 0.0
H1069 H 0.12243 0.67679 0.16397 0.0
H1070 H 0.11243 0.69403 0.21482 0.0
H1071 H 0.03702 0.72642 0.20438 0.0
H1072 H 0.04689 0.70972 0.15335 0.0
H1073 H 0.06444 0.55323 0.09018 0.0
H1074 H 0.08315 0.60063 0.10686 0.0
H1075 H 0.05313 0.6314 0.04128 0.0
H1076 H 0.03488 0.58382 0.02402 0.0
H1077 H 0.05932 0.64921 0.12612 0.0
H1078 H 0.10599 0.6877 0.02245 0.0
H1079 H 0.12458 0.67125 0.97282 0.0
H1080 H 0.14161 0.59338 0.99362 0.0
H1081 H 0.12379 0.60963 0.04349 0.0
C1082 C 0.14435 0.75427 0.15567 0.0
C1083 C 0.16818 0.74247 0.15959 0.0
C1084 C 0.12802 0.74047 0.13596 0.0
C1085 C 0.13551 0.71479 0.11993 0.0
C1086 C 0.16102 0.70476 0.12142 0.0
C1087 C 0.17708 0.7183 0.14137 0.0
C1088 C 0.11448 0.69504 0.10716 0.0
C1089 C 0.11994 0.68468 0.07846 0.0
C1090 C 0.09172 0.68278 0.1243 0.0
C1091 C 0.08553 0.69233 0.15493 0.0
C1092 C 0.10381 0.68773 0.17254 0.0
C1093 C 0.09817 0.69739 0.20136 0.0
C1094 C 0.07414 0.71137 0.21281 0.0
C1095 C 0.05566 0.71565 0.19547 0.0
C1096 C 0.06127 0.70611 0.1666 0.0
C1097 C 0.06145 0.57011 0.07955 0.0
C1098 C 0.0479 0.56487 0.05602 0.0
C1099 C 0.0721 0.59718 0.08909 0.0
C1100 C 0.06958 0.61942 0.07515 0.0
C1101 C 0.05533 0.61446 0.05218 0.0
C1102 C 0.04463 0.58736 0.04263 0.0
C1103 C 0.08296 0.64739 0.08442 0.0
C1104 C 0.076 0.65934 0.11265 0.0
C1105 C 0.10448 0.66087 0.06675 0.0
C1106 C 0.11312 0.64974 0.03665 0.0
C1107 C 0.11351 0.66698 0.0164 0.0
C1108 C 0.12409 0.65778 0.98827 0.0
C1109 C 0.13433 0.63134 0.98012 0.0
C1110 C 0.13365 0.61387 1.00001 0.0
C1111 C 0.12327 0.62305 0.02822 0.0
H1112 H 0.14295 0.62449 0.95841 0.0
H1113 H 0.0698 0.71884 0.23513 0.0
H1114 H 0.28856 0.80972 0.85093 0.0
H1115 H 0.32016 0.83772 0.88049 0.0
H1116 H 0.37788 0.85419 0.80671 0.0
H1117 H 0.34683 0.82491 0.77708 0.0
H1118 H 0.40773 0.84779 0.84172 0.0
H1119 H 0.33116 0.90447 0.85213 0.0
H1120 H 0.28195 0.91606 0.86225 0.0
H1121 H 0.27536 0.89958 0.94631 0.0
H1122 H 0.32446 0.88755 0.93659 0.0
H1123 H 0.48078 0.97041 0.90994 0.0
H1124 H 0.45222 0.93627 0.88144 0.0
H1125 H 0.40797 0.9067 0.95617 0.0
H1126 H 0.43687 0.94086 0.98475 0.0
H1127 H 0.37186 0.91894 0.92193 0.0
H1128 H 0.45171 0.8657 0.91016 0.0
H1129 H 0.50192 0.85795 0.89856 0.0
H1130 H 0.50324 0.87238 0.81457 0.0
H1131 H 0.45311 0.88068 0.82579 0.0
C1132 C 0.3079 0.8194 0.84091 0.0
C1133 C 0.31485 0.8151 0.81144 0.0
C1134 C 0.32605 0.83569 0.85796 0.0
C1135 C 0.35152 0.84894 0.84619 0.0
C1136 C 0.35853 0.84448 0.81669 0.0
C1137 C 0.34059 0.82775 0.79962 0.0
C1138 C 0.37081 0.86711 0.86448 0.0
C1139 C 0.39975 0.86355 0.85899 0.0
C1140 C 0.36091 0.88763 0.8876 0.0
C1141 C 0.33139 0.89482 0.89353 0.0
C1142 C 0.31915 0.90312 0.87271 0.0
C1143 C 0.29129 0.9098 0.87838 0.0
C1144 C 0.27551 0.90847 0.90488 0.0
C1145 C 0.28759 0.90054 0.92578 0.0
C1146 C 0.31544 0.89381 0.92021 0.0
C1147 C 0.46541 0.95618 0.92024 0.0
C1148 C 0.46143 0.95813 0.9496 0.0
C1149 C 0.44899 0.93663 0.90389 0.0
C1150 C 0.42774 0.91867 0.91645 0.0
C1151 C 0.42415 0.92017 0.94581 0.0
C1152 C 0.44094 0.93949 0.96215 0.0
C1153 C 0.40853 0.89955 0.89907 0.0
C1154 C 0.37968 0.90303 0.90471 0.0
C1155 C 0.4186 0.8794 0.8758 0.0
C1156 C 0.44867 0.87407 0.8689 0.0
C1157 C 0.46274 0.86744 0.88927 0.0
C1158 C 0.49119 0.86291 0.88276 0.0
C1159 C 0.50578 0.86474 0.85587 0.0
C1160 C 0.49192 0.871 0.8354 0.0
C1161 C 0.46347 0.8756 0.84182 0.0
H1162 H 0.5278 0.86127 0.85089 0.0
H1163 H 0.25395 0.91365 0.90923 0.0
H1164 H 0.26204 0.36242 0.8144 0.0
H1165 H 0.23126 0.39626 0.84421 0.0
H1166 H 0.16139 0.33384 0.84193 0.0
H1167 H 0.19193 0.29995 0.81213 0.0
H1168 H 0.14656 0.38477 0.83506 0.0
H1169 H 0.19312 0.34962 0.89899 0.0
H1170 H 0.23383 0.3386 0.91744 0.0
H1171 H 0.26372 0.42559 0.92808 0.0
H1172 H 0.22335 0.43707 0.90933 0.0
H1173 H 0.05259 0.44162 0.95633 0.0
H1174 H 0.08202 0.41625 0.9164 0.0
H1175 H 0.15114 0.47777 0.92987 0.0
H1176 H 0.12187 0.50257 0.9705 0.0
H1177 H 0.1674 0.42928 0.92886 0.0
H1178 H 0.11903 0.46548 0.8683 0.0
H1179 H 0.07771 0.47677 0.85108 0.0
H1180 H 0.05105 0.38926 0.8342 0.0
H1181 H 0.09194 0.37739 0.85181 0.0
C1182 C 0.24017 0.35581 0.82031 0.0
C1183 C 0.22962 0.32829 0.81096 0.0
C1184 C 0.22254 0.37523 0.83738 0.0
C1185 C 0.19391 0.36765 0.84549 0.0
C1186 C 0.18331 0.3403 0.83595 0.0
C1187 C 0.20092 0.32084 0.81905 0.0
C1188 C 0.17517 0.38792 0.86447 0.0
C1189 C 0.15099 0.39438 0.85567 0.0
C1190 C 0.18114 0.40101 0.89114 0.0
C1191 C 0.20539 0.39415 0.90246 0.0
C1192 C 0.2085 0.36636 0.90504 0.0
C1193 C 0.23149 0.36004 0.9156 0.0
C1194 C 0.2514 0.38137 0.92385 0.0
C1195 C 0.24831 0.40908 0.92163 0.0
C1196 C 0.22538 0.41551 0.91106 0.0
C1197 C 0.07362 0.45052 0.94996 0.0
C1198 C 0.08484 0.47423 0.96652 0.0
C1199 C 0.09063 0.4358 0.92714 0.0
C1200 C 0.11908 0.44483 0.92002 0.0
C1201 C 0.12944 0.47008 0.93497 0.0
C1202 C 0.11257 0.48452 0.95801 0.0
C1203 C 0.13872 0.42646 0.89951 0.0
C1204 C 0.16304 0.42012 0.90811 0.0
C1205 C 0.13287 0.41363 0.87267 0.0
C1206 C 0.10849 0.42057 0.86157 0.0
C1207 C 0.10427 0.44863 0.86108 0.0
C1208 C 0.08092 0.45513 0.85125 0.0
C1209 C 0.06172 0.43373 0.84162 0.0
C1210 C 0.06591 0.40578 0.84172 0.0
C1211 C 0.08919 0.39915 0.85159 0.0
H1212 H 0.04364 0.4388 0.83404 0.0
H1213 H 0.26918 0.37643 0.93202 0.0
H1214 H 0.72987 0.21023 0.84752 0.0
H1215 H 0.70043 0.17749 0.87497 0.0
H1216 H 0.64727 0.15725 0.8116 0.0
H1217 H 0.67641 0.19047 0.78431 0.0
H1218 H 0.61508 0.1607 0.86029 0.0
H1219 H 0.69712 0.112 0.82153 0.0
H1220 H 0.74762 0.10541 0.81119 0.0
H1221 H 0.75085 0.11609 0.89929 0.0
H1222 H 0.70041 0.12311 0.91016 0.0
H1223 H 0.53843 0.04283 0.90732 0.0
H1224 H 0.57266 0.07116 0.87914 0.0
H1225 H 0.62107 0.09139 0.94649 0.0
H1226 H 0.58697 0.06193 0.97459 0.0
H1227 H 0.65591 0.08843 0.89706 0.0
H1228 H 0.573 0.13606 0.93546 0.0
H1229 H 0.52194 0.1396 0.94503 0.0
H1230 H 0.52006 0.12968 0.85674 0.0
H1231 H 0.57106 0.12559 0.8466 0.0
C1232 C 0.71198 0.19879 0.83927 0.0
C1233 C 0.70584 0.20314 0.81339 0.0
C1234 C 0.69508 0.1798 0.85505 0.0
C1235 C 0.67151 0.16417 0.84547 0.0
C1236 C 0.66519 0.16874 0.81976 0.0
C1237 C 0.68205 0.18781 0.80399 0.0
C1238 C 0.65343 0.1434 0.86223 0.0
C1239 C 0.62415 0.14474 0.86795 0.0
C1240 C 0.66477 0.12264 0.87312 0.0
C1241 C 0.69506 0.11837 0.86666 0.0
C1242 C 0.70865 0.11315 0.8387 0.0
C1243 C 0.73725 0.10931 0.83274 0.0
C1244 C 0.75245 0.11041 0.85457 0.0
C1245 C 0.73905 0.11529 0.8824 0.0
C1246 C 0.71046 0.11918 0.88848 0.0
C1247 C 0.55678 0.05262 0.91592 0.0
C1248 C 0.55985 0.04985 0.94331 0.0
C1249 C 0.57628 0.06926 0.89983 0.0
C1250 C 0.59928 0.08448 0.91075 0.0
C1251 C 0.60351 0.08026 0.93742 0.0
C1252 C 0.58406 0.06315 0.95349 0.0
C1253 C 0.61768 0.10569 0.89491 0.0
C1254 C 0.64693 0.10447 0.88943 0.0
C1255 C 0.60632 0.12655 0.88419 0.0
C1256 C 0.57585 0.13032 0.89026 0.0
C1257 C 0.5617 0.1346 0.91808 0.0
C1258 C 0.53276 0.13665 0.92361 0.0
C1259 C 0.51776 0.1348 0.90151 0.0
C1260 C 0.53171 0.13108 0.87384 0.0
C1261 C 0.56064 0.12892 0.86819 0.0
H1262 H 0.49534 0.13629 0.90583 0.0
H1263 H 0.77459 0.10743 0.84992 0.0
H1264 H 0.84153 0.74916 0.81243 0.0
H1265 H 0.86796 0.71857 0.83086 0.0
H1266 H 0.79526 0.65984 0.83977 0.0
H1267 H 0.76881 0.69014 0.82131 0.0
H1268 H 0.82219 0.66568 0.88429 0.0
H1269 H 0.84506 0.64815 0.78455 0.0
H1270 H 0.86112 0.65996 0.73718 0.0
H1271 H 0.9417 0.69019 0.75927 0.0
H1272 H 0.92596 0.67904 0.80696 0.0
H1273 H 0.92382 0.54586 0.85179 0.0
H1274 H 0.89959 0.57969 0.83513 0.0
H1275 H 0.89986 0.6347 0.91437 0.0
H1276 H 0.92153 0.59997 0.93173 0.0
H1277 H 0.90856 0.63019 0.8249 0.0
H1278 H 0.84399 0.67102 0.93234 0.0
H1279 H 0.82497 0.65457 0.9772 0.0
H1280 H 0.82166 0.56937 0.93484 0.0
H1281 H 0.84037 0.58535 0.88971 0.0
C1282 C 0.83099 0.72997 0.81875 0.0
C1283 C 0.80295 0.72217 0.81537 0.0
C1284 C 0.84622 0.7124 0.8291 0.0
C1285 C 0.83372 0.68671 0.83638 0.0
C1286 C 0.8054 0.67951 0.83426 0.0
C1287 C 0.79024 0.69694 0.82371 0.0
C1288 C 0.85029 0.66688 0.84533 0.0
C1289 C 0.84116 0.65805 0.87137 0.0
C1290 C 0.87467 0.6563 0.82816 0.0
C1291 C 0.88421 0.66307 0.79948 0.0
C1292 C 0.86612 0.65757 0.77942 0.0
C1293 C 0.87518 0.6641 0.75248 0.0
C1294 C 0.90238 0.6759 0.74526 0.0
C1295 C 0.92061 0.68111 0.76492 0.0
C1296 C 0.91163 0.67469 0.79191 0.0
C1297 C 0.91878 0.56526 0.86555 0.0
C1298 C 0.92528 0.5704 0.89288 0.0
C1299 C 0.90507 0.58468 0.85597 0.0
C1300 C 0.89751 0.60975 0.87353 0.0
C1301 C 0.90498 0.6154 0.90046 0.0
C1302 C 0.91811 0.59573 0.91022 0.0
C1303 C 0.88075 0.62931 0.86417 0.0
C1304 C 0.88976 0.63801 0.83798 0.0
C1305 C 0.85577 0.63917 0.88083 0.0
C1306 C 0.8438 0.62938 0.90772 0.0
C1307 C 0.83905 0.6488 0.9326 0.0
C1308 C 0.82837 0.63955 0.95807 0.0
C1309 C 0.82219 0.61094 0.95888 0.0
C1310 C 0.82654 0.59152 0.93419 0.0
C1311 C 0.8372 0.60065 0.90867 0.0
H1312 H 0.81398 0.60382 0.97862 0.0
H1313 H 0.90937 0.68096 0.72441 0.0
H1314 H 0.1702 0.27806 0.2279 0.0
H1315 H 0.14852 0.30812 0.20454 0.0
H1316 H 0.22813 0.32516 0.15312 0.0
H1317 H 0.25032 0.29701 0.17865 0.0
H1318 H 0.20665 0.36917 0.16326 0.0
H1319 H 0.16802 0.27901 0.12923 0.0
H1320 H 0.1448 0.23151 0.13054 0.0
H1321 H 0.07035 0.26641 0.17823 0.0
H1322 H 0.09324 0.31414 0.17754 0.0
H1323 H 0.08786 0.39365 0.07998 0.0
H1324 H 0.11474 0.36257 0.09623 0.0
H1325 H 0.14142 0.43123 0.157 0.0
H1326 H 0.11789 0.46326 0.13765 0.0
H1327 H 0.11264 0.34213 0.13693 0.0
H1328 H 0.19889 0.42224 0.18064 0.0
H1329 H 0.22693 0.46526 0.16916 0.0
H1330 H 0.21488 0.44256 0.08328 0.0
H1331 H 0.18708 0.39923 0.09416 0.0
C1332 C 0.18299 0.28799 0.21137 0.0
C1333 C 0.21185 0.2849 0.20476 0.0
C1334 C 0.17053 0.3051 0.19781 0.0
C1335 C 0.18633 0.31851 0.1763 0.0
C1336 C 0.21526 0.31514 0.16952 0.0
C1337 C 0.22796 0.29886 0.18392 0.0
C1338 C 0.17279 0.33675 0.16174 0.0
C1339 C 0.18619 0.36307 0.1573 0.0
C1340 C 0.14639 0.32883 0.15304 0.0
C1341 C 0.13245 0.30016 0.15352 0.0
C1342 C 0.14676 0.27656 0.14015 0.0
C1343 C 0.13364 0.24959 0.14077 0.0
C1344 C 0.10614 0.24594 0.15451 0.0
C1345 C 0.09166 0.26927 0.16761 0.0
C1346 C 0.10469 0.29629 0.16709 0.0
C1347 C 0.10062 0.40258 0.0957 0.0
C1348 C 0.10182 0.43145 0.10631 0.0
C1349 C 0.1155 0.38446 0.10567 0.0
C1350 C 0.13101 0.39438 0.12752 0.0
C1351 C 0.13082 0.42295 0.13934 0.0
C1352 C 0.11687 0.44129 0.12855 0.0
C1353 C 0.14644 0.37465 0.13845 0.0
C1354 C 0.1333 0.34811 0.14244 0.0
C1355 C 0.17382 0.38168 0.14507 0.0
C1356 C 0.19066 0.40763 0.13831 0.0
C1357 C 0.20231 0.42638 0.15929 0.0
C1358 C 0.21815 0.45083 0.15289 0.0
C1359 C 0.2226 0.45668 0.12553 0.0
C1360 C 0.21132 0.43805 0.10448 0.0
C1361 C 0.1955 0.41356 0.11076 0.0
H1362 H 0.23485 0.47563 0.12062 0.0
H1363 H 0.09603 0.22504 0.15497 0.0
H1364 H 0.19115 0.74728 0.89645 0.0
H1365 H 0.17065 0.7065 0.91769 0.0
H1366 H 0.10632 0.69415 0.86579 0.0
H1367 H 0.12804 0.73284 0.84247 0.0
H1368 H 0.089 0.68653 0.92475 0.0
H1369 H 0.15399 0.65949 0.84013 0.0
H1370 H 0.19851 0.65589 0.80735 0.0
H1371 H 0.23634 0.62792 0.86911 0.0
H1372 H 0.19212 0.63198 0.90256 0.0
H1373 H 0.02913 0.55245 0.90424 0.0
H1374 H 0.05972 0.59226 0.89007 0.0
H1375 H 0.11612 0.58088 0.94491 0.0
H1376 H 0.08516 0.54173 0.96016 0.0
H1377 H 0.14152 0.60157 0.89204 0.0
H1378 H 0.07249 0.62514 0.97517 0.0
H1379 H 0.02531 0.62348 1.00289 0.0
H1380 H 0.99276 0.65327 0.9388 0.0
H1381 H 0.04019 0.65605 0.91092 0.0
C1382 C 0.17314 0.73561 0.88895 0.0
C1383 C 0.1626 0.74225 0.86619 0.0
C1384 C 0.16112 0.71264 0.90159 0.0
C1385 C 0.13759 0.69702 0.89257 0.0
C1386 C 0.1248 0.70583 0.87264 0.0
C1387 C 0.13726 0.72813 0.85944 0.0
C1388 C 0.12732 0.67018 0.90194 0.0
C1389 C 0.10056 0.66802 0.91782 0.0
C1390 C 0.14259 0.64616 0.89293 0.0
C1391 C 0.16991 0.64656 0.87403 0.0
C1392 C 0.17199 0.6533 0.84701 0.0
C1393 C 0.1971 0.65096 0.82823 0.0
C1394 C 0.22017 0.64156 0.83612 0.0
C1395 C 0.21842 0.63515 0.86304 0.0
C1396 C 0.19337 0.63756 0.88194 0.0
C1397 C 0.04831 0.55805 0.91291 0.0
C1398 C 0.05417 0.5448 0.93418 0.0
C1399 C 0.06577 0.58072 0.90472 0.0
C1400 C 0.08942 0.59003 0.9174 0.0
C1401 C 0.09748 0.57439 0.93557 0.0
C1402 C 0.07984 0.55186 0.94406 0.0
C1403 C 0.1032 0.61799 0.91447 0.0
C1404 C 0.13043 0.62031 0.89976 0.0
C1405 C 0.08832 0.64215 0.92428 0.0
C1406 C 0.05986 0.64077 0.94098 0.0
C1407 C 0.05532 0.63138 0.96698 0.0
C1408 C 0.0285 0.63023 0.98273 0.0
C1409 C 1.00594 0.638 0.97257 0.0
C1410 C 0.01025 0.64728 0.94668 0.0
C1411 C 0.03714 0.64886 0.93098 0.0
H1412 H 0.98516 0.63689 0.98478 0.0
H1413 H 0.2393 0.63896 0.82126 0.0
H1414 H 0.34096 0.26919 0.82203 0.0
H1415 H 0.36555 0.24424 0.84855 0.0
H1416 H 0.31054 0.17 0.83102 0.0
H1417 H 0.28514 0.19496 0.80578 0.0
H1418 H 0.32092 0.17353 0.881 0.0
H1419 H 0.37441 0.18044 0.79258 0.0
H1420 H 0.4017 0.19981 0.75207 0.0
H1421 H 0.46219 0.24051 0.80293 0.0
H1422 H 0.43468 0.22232 0.84407 0.0
H1423 H 0.45302 0.091 0.86935 0.0
H1424 H 0.42738 0.12194 0.85103 0.0
H1425 H 0.38582 0.15086 0.9349 0.0
H1426 H 0.40899 0.11744 0.95271 0.0
H1427 H 0.42369 0.17164 0.85291 0.0
H1428 H 0.32239 0.17182 0.93561 0.0
H1429 H 0.29484 0.14084 0.96698 0.0
H1430 H 0.32828 0.06883 0.91257 0.0
H1431 H 0.35575 0.09933 0.88074 0.0
C1432 C 0.33389 0.24766 0.82416 0.0
C1433 C 0.31118 0.23402 0.81165 0.0
C1434 C 0.34811 0.2334 0.8391 0.0
C1435 C 0.34039 0.20507 0.84119 0.0
C1436 C 0.317 0.19182 0.82969 0.0
C1437 C 0.30248 0.20616 0.8152 0.0
C1438 C 0.35723 0.18883 0.85431 0.0
C1439 C 0.34343 0.17327 0.87496 0.0
C1440 C 0.38653 0.1877 0.84586 0.0
C1441 C 0.40217 0.20034 0.82161 0.0
C1442 C 0.3932 0.194 0.79532 0.0
C1443 C 0.40878 0.20469 0.77219 0.0
C1444 C 0.43367 0.22135 0.77492 0.0
C1445 C 0.44293 0.22754 0.80084 0.0
C1446 C 0.42724 0.21721 0.82412 0.0
C1447 C 0.43829 0.10384 0.88388 0.0
C1448 C 0.43324 0.10171 0.91255 0.0
C1449 C 0.42379 0.12182 0.87342 0.0
C1450 C 0.40417 0.13861 0.89142 0.0
C1451 C 0.40026 0.1377 0.92034 0.0
C1452 C 0.41414 0.11901 0.9307 0.0
C1453 C 0.38743 0.15624 0.87958 0.0
C1454 C 0.40124 0.17217 0.85923 0.0
C1455 C 0.35794 0.15642 0.88709 0.0
C1456 C 0.34137 0.1379 0.90601 0.0
C1457 C 0.3238 0.14937 0.93033 0.0
C1458 C 0.30821 0.1319 0.94819 0.0
C1459 C 0.3099 0.1029 0.94183 0.0
C1460 C 0.32709 0.0913 0.91753 0.0
C1461 C 0.34269 0.10867 0.8996 0.0
H1462 H 0.29783 0.08941 0.95568 0.0
H1463 H 0.44578 0.22949 0.75696 0.0
H1464 H 0.85534 0.23759 0.86085 0.0
H1465 H 0.88728 0.25484 0.89445 0.0
H1466 H 0.84764 0.33267 0.91638 0.0
H1467 H 0.81609 0.31552 0.88286 0.0
H1468 H 0.92044 0.29738 0.8767 0.0
H1469 H 0.864 0.37043 0.97289 0.0
H1470 H 0.82318 0.3672 0.01015 0.0
H1471 H 0.82926 0.27865 1.00218 0.0
H1472 H 0.87007 0.28126 0.96472 0.0
H1473 H 0.95906 0.44236 0.90856 0.0
H1474 H 0.93828 0.39443 0.89729 0.0
H1475 H 0.9782 0.36834 0.95904 0.0
H1476 H 0.9997 0.41562 0.96994 0.0
H1477 H 0.9154 0.36321 0.96656 0.0
H1478 H 0.99716 0.33626 0.90338 0.0
H1479 H 0.03672 0.34033 0.86492 0.0
H1480 H 0.97941 0.33666 0.80703 0.0
H1481 H 0.93949 0.33318 0.84522 0.0
C1482 C 0.85259 0.25777 0.87404 0.0
C1483 C 0.8336 0.2754 0.86917 0.0
C1484 C 0.87072 0.26755 0.89324 0.0
C1485 C 0.87003 0.29511 0.90767 0.0
C1486 C 0.84836 0.31118 0.90575 0.0
C1487 C 0.83023 0.30138 0.88653 0.0
C1488 C 0.89559 0.30987 0.91718 0.0
C1489 C 0.91963 0.31126 0.89667 0.0
C1490 C 0.89462 0.3277 0.94329 0.0
C1491 C 0.87018 0.32606 0.96599 0.0
C1492 C 0.85679 0.35028 0.9792 0.0
C1493 C 0.83357 0.34855 1.00029 0.0
C1494 C 0.82372 0.32277 0.00863 0.0
C1495 C 0.83693 0.29862 0.99572 0.0
C1496 C 0.86002 0.30018 0.97445 0.0
C1497 C 0.96412 0.42626 0.9191 0.0
C1498 C 0.98057 0.43296 0.94048 0.0
C1499 C 0.95231 0.39894 0.91264 0.0
C1500 C 0.95663 0.37818 0.92763 0.0
C1501 C 0.9747 0.38422 0.94738 0.0
C1502 C 0.98695 0.41132 0.95347 0.0
C1503 C 0.93904 0.35165 0.9254 0.0
C1504 C 0.91661 0.34838 0.94716 0.0
C1505 C 0.94133 0.33221 0.90035 0.0
C1506 C 0.96529 0.3345 0.87725 0.0
C1507 C 0.99297 0.33656 0.88251 0.0
C1508 C 0.01547 0.33871 0.86073 0.0
C1509 C 0.01057 0.33866 0.83354 0.0
C1510 C 0.98317 0.33661 0.82809 0.0
C1511 C 0.96059 0.33452 0.8498 0.0
H1512 H 0.02801 0.34022 0.81669 0.0
H1513 H 0.80581 0.32151 0.02505 0.0
H1514 H 0.67331 0.7854 0.82683 0.0
H1515 H 0.64271 0.8199 0.85594 0.0
H1516 H 0.7127 0.88236 0.85647 0.0
H1517 H 0.74334 0.84805 0.82801 0.0
H1518 H 0.68396 0.88586 0.9065 0.0
H1519 H 0.6611 0.88021 0.81492 0.0
H1520 H 0.64612 0.85704 0.77049 0.0
H1521 H 0.56676 0.82998 0.81539 0.0
H1522 H 0.58144 0.85259 0.86018 0.0
H1523 H 0.60913 0.99807 0.97498 0.0
H1524 H 0.63613 0.97098 0.93413 0.0
H1525 H 0.56653 0.90832 0.92947 0.0
H1526 H 0.5389 0.93653 0.96885 0.0
H1527 H 0.59549 0.90585 0.8798 0.0
H1528 H 0.62135 0.91007 0.97209 0.0
H1529 H 0.63773 0.93464 0.01547 0.0
H1530 H 0.71342 0.96544 0.96733 0.0
H1531 H 0.69735 0.94159 0.9236 0.0
C1532 C 0.68223 0.80642 0.83336 0.0
C1533 C 0.71088 0.81384 0.82507 0.0
C1534 C 0.66463 0.82625 0.8498 0.0
C1535 C 0.6752 0.85401 0.85815 0.0
C1536 C 0.7039 0.8612 0.85034 0.0
C1537 C 0.72146 0.84145 0.83402 0.0
C1538 C 0.65676 0.87554 0.87547 0.0
C1539 C 0.66481 0.89043 0.90039 0.0
C1540 C 0.63146 0.88139 0.86789 0.0
C1541 C 0.62251 0.86783 0.84097 0.0
C1542 C 0.64055 0.86911 0.81537 0.0
C1543 C 0.6321 0.8561 0.7901 0.0
C1544 C 0.60554 0.84197 0.79012 0.0
C1545 C 0.58735 0.84089 0.81541 0.0
C1546 C 0.59573 0.8538 0.84075 0.0
C1547 C 0.59913 0.9793 0.96423 0.0
C1548 C 0.57192 0.96945 0.97508 0.0
C1549 C 0.61476 0.96346 0.94118 0.0
C1550 C 0.60397 0.93677 0.92947 0.0
C1551 C 0.57565 0.92853 0.93828 0.0
C1552 C 0.5597 0.94486 0.96072 0.0
C1553 C 0.62277 0.9162 0.91082 0.0
C1554 C 0.61471 0.90135 0.88578 0.0
C1555 C 0.64825 0.91041 0.91815 0.0
C1556 C 0.65804 0.92424 0.94456 0.0
C1557 C 0.64144 0.92215 0.97075 0.0
C1558 C 0.65064 0.93596 0.9954 0.0
C1559 C 0.67653 0.95157 0.99417 0.0
C1560 C 0.69334 0.95337 0.96826 0.0
C1561 C 0.6842 0.93974 0.94354 0.0
H1562 H 0.68357 0.96223 0.01329 0.0
H1563 H 0.59904 0.83194 0.77055 0.0
H1564 H 0.7914 0.66557 0.19191 0.0
H1565 H 0.82187 0.63216 0.16055 0.0
H1566 H 0.8825 0.70035 0.14152 0.0
H1567 H 0.8524 0.73365 0.17264 0.0
H1568 H 0.87379 0.66291 0.09428 0.0
H1569 H 0.89021 0.65931 0.18836 0.0
H1570 H 0.87534 0.6512 0.23717 0.0
H1571 H 0.84714 0.56615 0.20803 0.0
H1572 H 0.86118 0.57388 0.15901 0.0
H1573 H 0.98753 0.59731 0.02233 0.0
H1574 H 0.9614 0.62535 0.06269 0.0
H1575 H 0.91226 0.55062 0.08406 0.0
H1576 H 0.9404 0.52229 0.04483 0.0
H1577 H 0.91221 0.5884 0.13016 0.0
H1578 H 0.89282 0.58925 0.0385 0.0
H1579 H 0.90483 0.59418 0.98854 0.0
H1580 H 0.93382 0.68037 0.01142 0.0
H1581 H 0.92236 0.67584 0.06152 0.0
C1582 C 0.8111 0.67346 0.18084 0.0
C1583 C 0.81941 0.70235 0.18486 0.0
C1584 C 0.8286 0.6543 0.16305 0.0
C1585 C 0.85468 0.66366 0.14884 0.0
C1586 C 0.86256 0.69254 0.15225 0.0
C1587 C 0.84527 0.7116 0.17012 0.0
C1588 C 0.87405 0.64368 0.13047 0.0
C1589 C 0.88238 0.64682 0.10225 0.0
C1590 C 0.88455 0.62194 0.14048 0.0
C1591 C 0.87648 0.61727 0.16999 0.0
C1592 C 0.88063 0.63894 0.19234 0.0
C1593 C 0.87239 0.63442 0.22005 0.0
C1594 C 0.86031 0.60822 0.2257 0.0
C1595 C 0.85647 0.58645 0.20363 0.0
C1596 C 0.86454 0.5909 0.17588 0.0
C1597 C 0.97251 0.5867 0.03673 0.0
C1598 C 0.96638 0.55764 0.03063 0.0
C1599 C 0.95702 0.60279 0.0595 0.0
C1600 C 0.93395 0.59032 0.07579 0.0
C1601 C 0.92969 0.56088 0.07165 0.0
C1602 C 0.94598 0.54462 0.04933 0.0
C1603 C 0.91249 0.60815 0.09417 0.0
C1604 C 0.90361 0.60449 0.12222 0.0
C1605 C 0.90086 0.62905 0.08388 0.0
C1606 C 0.90688 0.63215 0.05378 0.0
C1607 C 0.9018 0.60924 0.03287 0.0
C1608 C 0.90853 0.61196 0.00453 0.0
C1609 C 0.92009 0.63757 0.99682 0.0
C1610 C 0.92484 0.66055 0.01744 0.0
C1611 C 0.91821 0.65793 0.04581 0.0
H1612 H 0.92537 0.63963 0.97488 0.0
H1613 H 0.85396 0.60478 0.24717 0.0
H1614 H 0.33483 0.8279 0.23564 0.0
H1615 H 0.36448 0.86053 0.20834 0.0
H1616 H 0.30129 0.85688 0.1562 0.0
H1617 H 0.27179 0.82358 0.18314 0.0
H1618 H 0.34893 0.85761 0.12351 0.0
H1619 H 0.31604 0.91608 0.20921 0.0
H1620 H 0.30648 0.93145 0.26037 0.0
H1621 H 0.39441 0.93719 0.26384 0.0
H1622 H 0.40448 0.92151 0.21274 0.0
H1623 H 0.42547 0.96995 0.05608 0.0
H1624 H 0.38764 0.94452 0.08462 0.0
H1625 H 0.44471 0.93562 0.13968 0.0
H1626 H 0.48194 0.96101 0.11186 0.0
H1627 H 0.3957 0.94429 0.17029 0.0
H1628 H 0.42732 0.88206 0.08433 0.0
H1629 H 0.43618 0.86846 0.0329 0.0
H1630 H 0.34903 0.8718 0.03001 0.0
H1631 H 0.33973 0.88578 0.08142 0.0
C1632 C 0.32703 0.83411 0.21852 0.0
C1633 C 0.30054 0.82304 0.21202 0.0
C1634 C 0.34411 0.85306 0.20283 0.0
C1635 C 0.33527 0.86203 0.18019 0.0
C1636 C 0.30893 0.85071 0.17346 0.0
C1637 C 0.29188 0.83161 0.18907 0.0
C1638 C 0.35359 0.88275 0.16347 0.0
C1639 C 0.35872 0.87675 0.13391 0.0
C1640 C 0.36693 0.90793 0.17645 0.0
C1641 C 0.36098 0.91737 0.20718 0.0
C1642 C 0.33332 0.92043 0.22091 0.0
C1643 C 0.32781 0.92923 0.2499 0.0
C1644 C 0.34982 0.93523 0.26536 0.0
C1645 C 0.37739 0.93251 0.25185 0.0
C1646 C 0.38301 0.92369 0.22287 0.0
C1647 C 0.42978 0.96308 0.07459 0.0
C1648 C 0.45707 0.96753 0.08133 0.0
C1649 C 0.40814 0.94817 0.09082 0.0
C1650 C 0.41314 0.93734 0.11427 0.0
C1651 C 0.43994 0.94334 0.12181 0.0
C1652 C 0.46142 0.95797 0.10566 0.0
C1653 C 0.39142 0.91884 0.13049 0.0
C1654 C 0.38569 0.92524 0.15997 0.0
C1655 C 0.37741 0.89417 0.11743 0.0
C1656 C 0.38289 0.88524 0.08665 0.0
C1657 C 0.41008 0.88002 0.0727 0.0
C1658 C 0.41518 0.87224 0.04356 0.0
C1659 C 0.3932 0.86936 0.02818 0.0
C1660 C 0.36604 0.8741 0.04194 0.0
C1661 C 0.36084 0.88193 0.07107 0.0
H1662 H 0.39719 0.86339 0.00562 0.0
H1663 H 0.34551 0.94205 0.28779 0.0
H1664 H 0.73778 0.18475 0.17877 0.0
H1665 H 0.70605 0.15635 0.14942 0.0
H1666 H 0.63523 0.18398 0.21026 0.0
H1667 H 0.66693 0.21256 0.23973 0.0
H1668 H 0.66864 0.11288 0.15587 0.0
H1669 H 0.57963 0.18749 0.17595 0.0
H1670 H 0.57359 0.23818 0.18775 0.0
H1671 H 0.65892 0.25647 0.15095 0.0
H1672 H 0.66534 0.20592 0.13855 0.0
H1673 H 0.5491 0.03714 0.11276 0.0
H1674 H 0.57845 0.07068 0.14014 0.0
H1675 H 0.5965 0.12018 0.0736 0.0
H1676 H 0.56673 0.08603 0.04573 0.0
H1677 H 0.59183 0.15414 0.12668 0.0
H1678 H 0.64324 0.07645 0.07918 0.0
H1679 H 0.65051 0.02627 0.06416 0.0
H1680 H 0.6446 0.01561 0.15 0.0
H1681 H 0.63691 0.0657 0.16558 0.0
C1682 C 0.71546 0.18483 0.18603 0.0
C1683 C 0.70512 0.20118 0.21179 0.0
C1684 C 0.69723 0.16841 0.16914 0.0
C1685 C 0.66798 0.168 0.1772 0.0
C1686 C 0.65758 0.18403 0.20312 0.0
C1687 C 0.67584 0.20031 0.22015 0.0
C1688 C 0.64856 0.15081 0.15857 0.0
C1689 C 0.65186 0.12203 0.14963 0.0
C1690 C 0.62679 0.16246 0.14961 0.0
C1691 C 0.62302 0.1929 0.15659 0.0
C1692 C 0.59706 0.20233 0.17027 0.0
C1693 C 0.59358 0.23104 0.17708 0.0
C1694 C 0.61588 0.25053 0.17019 0.0
C1695 C 0.64169 0.24135 0.15637 0.0
C1696 C 0.64527 0.21267 0.14947 0.0
C1697 C 0.559 0.0552 0.10389 0.0
C1698 C 0.55561 0.05848 0.07676 0.0
C1699 C 0.57594 0.07453 0.1197 0.0
C1700 C 0.59043 0.09787 0.10893 0.0
C1701 C 0.58577 0.10234 0.08251 0.0
C1702 C 0.56857 0.08285 0.06659 0.0
C1703 C 0.61152 0.11618 0.12473 0.0
C1704 C 0.60858 0.14507 0.13305 0.0
C1705 C 0.63392 0.10476 0.13283 0.0
C1706 C 0.63934 0.0748 0.12355 0.0
C1707 C 0.64339 0.06339 0.09487 0.0
C1708 C 0.64757 0.03496 0.08625 0.0
C1709 C 0.64798 0.01776 0.10612 0.0
C1710 C 0.64428 0.02897 0.13464 0.0
C1711 C 0.64006 0.05739 0.14337 0.0
H1712 H 0.65122 0.99577 0.09938 0.0
H1713 H 0.61315 0.27274 0.17551 0.0
H1714 H 0.63926 0.6536 0.76457 0.0
H1715 H 0.612 0.62263 0.79572 0.0
H1716 H 0.68684 0.61244 0.82748 0.0
H1717 H 0.71406 0.64221 0.7954 0.0
H1718 H 0.65158 0.56647 0.82923 0.0
H1719 H 0.64801 0.6653 0.85869 0.0
H1720 H 0.64084 0.71363 0.85418 0.0
H1721 H 0.55497 0.68889 0.84601 0.0
H1722 H 0.56171 0.64032 0.85016 0.0
H1723 H 0.57501 0.54621 0.96699 0.0
H1724 H 0.60905 0.56316 0.92914 0.0
H1725 H 0.54161 0.57251 0.88601 0.0
H1726 H 0.50781 0.55625 0.92331 0.0
H1727 H 0.57697 0.61934 0.89224 0.0
H1728 H 0.58308 0.51883 0.86656 0.0
H1729 H 0.59377 0.47171 0.87095 0.0
H1730 H 0.67928 0.50178 0.87578 0.0
H1731 H 0.66889 0.54924 0.87159 0.0
C1732 C 0.64984 0.64383 0.77752 0.0
C1733 C 0.67831 0.65074 0.77856 0.0
C1734 C 0.63439 0.62637 0.79534 0.0
C1735 C 0.64736 0.61609 0.81446 0.0
C1736 C 0.67642 0.62048 0.81314 0.0
C1737 C 0.69185 0.63766 0.79513 0.0
C1738 C 0.63034 0.60442 0.83831 0.0
C1739 C 0.63536 0.57801 0.84319 0.0
C1740 C 0.60965 0.61987 0.85671 0.0
C1741 C 0.60544 0.64913 0.85447 0.0
C1742 C 0.62765 0.67013 0.85576 0.0
C1743 C 0.62366 0.69756 0.85328 0.0
C1744 C 0.5975 0.7043 0.84972 0.0
C1745 C 0.57524 0.68363 0.84873 0.0
C1746 C 0.57912 0.65615 0.85117 0.0
C1747 C 0.56751 0.55198 0.94945 0.0
C1748 C 0.53869 0.55022 0.94836 0.0
C1749 C 0.58696 0.5614 0.92781 0.0
C1750 C 0.57773 0.56896 0.90486 0.0
C1751 C 0.54908 0.56685 0.90364 0.0
C1752 C 0.52977 0.55762 0.92511 0.0
C1753 C 0.59733 0.58079 0.88263 0.0
C1754 C 0.59311 0.60764 0.87831 0.0
C1755 C 0.61915 0.56595 0.86531 0.0
C1756 C 0.62507 0.53766 0.869 0.0
C1757 C 0.60404 0.51547 0.86883 0.0
C1758 C 0.61011 0.48864 0.87117 0.0
C1759 C 0.63723 0.48371 0.87364 0.0
C1760 C 0.65828 0.50563 0.87386 0.0
C1761 C 0.6523 0.53249 0.87148 0.0
H1762 H 0.64201 0.46296 0.87538 0.0
H1763 H 0.59446 0.72554 0.8478 0.0
H1764 H 0.33078 0.69355 0.7641 0.0
H1765 H 0.35307 0.66519 0.78894 0.0
H1766 H 0.27976 0.66506 0.85276 0.0
H1767 H 0.25779 0.69417 0.82842 0.0
H1768 H 0.32155 0.67212 0.87774 0.0
H1769 H 0.29852 0.60553 0.80016 0.0
H1770 H 0.29635 0.58611 0.7506 0.0
H1771 H 0.38607 0.58897 0.73257 0.0
H1772 H 0.38879 0.60877 0.78196 0.0
H1773 H 0.36455 0.55825 0.93423 0.0
H1774 H 0.33902 0.58607 0.91123 0.0
H1775 H 0.4159 0.60838 0.8585 0.0
H1776 H 0.44152 0.58165 0.88229 0.0
H1777 H 0.37027 0.58832 0.82902 0.0
H1778 H 0.39066 0.65579 0.90948 0.0
H1779 H 0.38972 0.67238 0.96007 0.0
H1780 H 0.29988 0.66364 0.97364 0.0
H1781 H 0.30029 0.64658 0.92317 0.0
C1782 C 0.31921 0.68718 0.78322 0.0
C1783 C 0.29227 0.69598 0.79404 0.0
C1784 C 0.33199 0.67081 0.79745 0.0
C1785 C 0.31802 0.66235 0.82264 0.0
C1786 C 0.29109 0.6711 0.83339 0.0
C1787 C 0.27841 0.68767 0.81931 0.0
C1788 C 0.3317 0.64507 0.83811 0.0
C1789 C 0.33178 0.65355 0.86704 0.0
C1790 C 0.34538 0.62085 0.82443 0.0
C1791 C 0.34386 0.60887 0.79472 0.0
C1792 C 0.31779 0.6022 0.78559 0.0
C1793 C 0.31647 0.59109 0.75753 0.0
C1794 C 0.34106 0.58637 0.73844 0.0
C1795 C 0.36704 0.59267 0.74738 0.0
C1796 C 0.36849 0.60381 0.77541 0.0
C1797 C 0.37608 0.56986 0.91839 0.0
C1798 C 0.40519 0.56858 0.9107 0.0
C1799 C 0.36145 0.58545 0.905 0.0
C1800 C 0.37557 0.59951 0.88323 0.0
C1801 C 0.40455 0.59781 0.87525 0.0
C1802 C 0.41917 0.58262 0.88888 0.0
C1803 C 0.36022 0.6156 0.86834 0.0
C1804 C 0.35985 0.60683 0.83958 0.0
C1805 C 0.34576 0.63914 0.88229 0.0
C1806 C 0.34552 0.64961 0.91259 0.0
C1807 C 0.37071 0.65717 0.92329 0.0
C1808 C 0.37027 0.6667 0.95194 0.0
C1809 C 0.34476 0.66898 0.97008 0.0
C1810 C 0.31963 0.66181 0.95958 0.0
C1811 C 0.31995 0.65223 0.93095 0.0
H1812 H 0.34446 0.67636 0.99225 0.0
H1813 H 0.33999 0.57777 0.71673 0.0
H1814 H 0.42047 0.36177 0.73211 0.0
H1815 H 0.45782 0.38049 0.75972 0.0
H1816 H 0.39797 0.38081 0.83576 0.0
H1817 H 0.36175 0.36035 0.80903 0.0
H1818 H 0.46835 0.42643 0.80585 0.0
H1819 H 0.41728 0.34 0.87209 0.0
H1820 H 0.39034 0.29441 0.86214 0.0
H1821 H 0.43205 0.28373 0.77672 0.0
H1822 H 0.45985 0.32868 0.78633 0.0
H1823 H 0.43667 0.43687 0.95148 0.0
H1824 H 0.43787 0.40673 0.90608 0.0
H1825 H 0.52697 0.4269 0.88663 0.0
H1826 H 0.52558 0.45754 0.93221 0.0
H1827 H 0.46704 0.36125 0.87344 0.0
H1828 H 0.53842 0.43179 0.82555 0.0
H1829 H 0.56453 0.47838 0.82865 0.0
H1830 H 0.48972 0.51697 0.86949 0.0
H1831 H 0.463 0.47043 0.86664 0.0
C1832 C 0.41523 0.36669 0.75471 0.0
C1833 C 0.38791 0.35991 0.76823 0.0
C1834 C 0.43653 0.37743 0.77037 0.0
C1835 C 0.43061 0.3816 0.7997 0.0
C1836 C 0.40291 0.37755 0.81307 0.0
C1837 C 0.38192 0.36628 0.7976 0.0
C1838 C 0.45308 0.38603 0.81704 0.0
C1839 C 0.46892 0.41182 0.82003 0.0
C1840 C 0.45488 0.36642 0.83467 0.0
C1841 C 0.44063 0.33779 0.82994 0.0
C1842 C 0.42115 0.32765 0.85136 0.0
C1843 C 0.40563 0.30195 0.84572 0.0
C1844 C 0.40941 0.28628 0.81878 0.0
C1845 C 0.42912 0.29591 0.79756 0.0
C1846 C 0.44484 0.32141 0.80312 0.0
C1847 C 0.45665 0.43397 0.93796 0.0
C1848 C 0.48107 0.44911 0.94534 0.0
C1849 C 0.45739 0.41676 0.91204 0.0
C1850 C 0.48249 0.41475 0.8929 0.0
C1851 C 0.5074 0.42821 0.90107 0.0
C1852 C 0.50666 0.44535 0.92724 0.0
C1853 C 0.48062 0.40246 0.86348 0.0
C1854 C 0.46821 0.37508 0.85813 0.0
C1855 C 0.48322 0.42001 0.84291 0.0
C1856 C 0.49885 0.44782 0.84589 0.0
C1857 C 0.52758 0.45024 0.83529 0.0
C1858 C 0.54243 0.47658 0.83703 0.0
C1859 C 0.52868 0.50059 0.84931 0.0
C1860 C 0.50015 0.49828 0.86008 0.0
C1861 C 0.48516 0.47197 0.85839 0.0
H1862 H 0.54004 0.52104 0.85035 0.0
H1863 H 0.39712 0.26667 0.81422 0.0
H1864 H 0.67458 0.31427 0.79241 0.0
H1865 H 0.64128 0.34485 0.82278 0.0
H1866 H 0.70283 0.37527 0.87659 0.0
H1867 H 0.73589 0.34375 0.84681 0.0
H1868 H 0.65804 0.36512 0.9077 0.0
H1869 H 0.67904 0.41566 0.83136 0.0
H1870 H 0.68486 0.42521 0.78293 0.0
H1871 H 0.59749 0.40219 0.78112 0.0
H1872 H 0.59122 0.39203 0.82937 0.0
H1873 H 0.57647 0.49148 0.96752 0.0
H1874 H 0.60416 0.46653 0.92552 0.0
H1875 H 0.56271 0.38788 0.94507 0.0
H1876 H 0.53541 0.41265 0.98711 0.0
H1877 H 0.59687 0.42436 0.87641 0.0
H1878 H 0.60978 0.34874 0.94817 0.0
H1879 H 0.61154 0.34746 0.99793 0.0
H1880 H 0.64378 0.4338 0.00885 0.0
H1881 H 0.6413 0.43574 0.95953 0.0
C1882 C 0.68119 0.32767 0.81057 0.0
C1883 C 0.708 0.32644 0.81716 0.0
C1884 C 0.66208 0.34539 0.82788 0.0
C1885 C 0.66939 0.36278 0.85202 0.0
C1886 C 0.69646 0.36209 0.85821 0.0
C1887 C 0.71547 0.34408 0.84109 0.0
C1888 C 0.64828 0.37998 0.87193 0.0
C1889 C 0.64494 0.37816 0.90058 0.0
C1890 C 0.63095 0.39736 0.86318 0.0
C1891 C 0.63477 0.40263 0.83385 0.0
C1892 C 0.66115 0.41224 0.8205 0.0
C1893 C 0.66451 0.41786 0.7931 0.0
C1894 C 0.64159 0.41418 0.77891 0.0
C1895 C 0.61525 0.40492 0.7921 0.0
C1896 C 0.61178 0.39922 0.81947 0.0
C1897 C 0.57219 0.46904 0.96198 0.0
C1898 C 0.55362 0.45401 0.98045 0.0
C1899 C 0.58824 0.45474 0.93808 0.0
C1900 C 0.58587 0.42526 0.93236 0.0
C1901 C 0.56513 0.41057 0.94918 0.0
C1902 C 0.54927 0.42479 0.97303 0.0
C1903 C 0.60738 0.40968 0.91167 0.0
C1904 C 0.61034 0.41143 0.8831 0.0
C1905 C 0.62527 0.39313 0.92042 0.0
C1906 C 0.62514 0.39242 0.95038 0.0
C1907 C 0.61696 0.36748 0.96136 0.0
C1908 C 0.61797 0.36668 0.98948 0.0
C1909 C 0.62756 0.39059 0.00663 0.0
C1910 C 0.63598 0.41539 0.99571 0.0
C1911 C 0.63457 0.41642 0.96776 0.0
H1912 H 0.62858 0.38987 0.02833 0.0
H1913 H 0.64423 0.4186 0.75772 0.0
H1914 H 0.75324 0.30518 0.18136 0.0
H1915 H 0.72943 0.33297 0.15735 0.0
H1916 H 0.68423 0.36967 0.23693 0.0
H1917 H 0.70677 0.34055 0.26082 0.0
H1918 H 0.64952 0.35651 0.20381 0.0
H1919 H 0.74132 0.40515 0.19325 0.0
H1920 H 0.79262 0.40976 0.17954 0.0
H1921 H 0.78419 0.37883 0.09371 0.0
H1922 H 0.7328 0.37366 0.10696 0.0
H1923 H 0.6 0.47098 0.16038 0.0
H1924 H 0.63061 0.44509 0.17926 0.0
H1925 H 0.64435 0.38924 0.10046 0.0
H1926 H 0.61254 0.4141 0.08189 0.0
H1927 H 0.69569 0.41159 0.13001 0.0
H1928 H 0.60391 0.36184 0.14189 0.0
H1929 H 0.55265 0.35884 0.1561 0.0
H1930 H 0.56235 0.39461 0.2406 0.0
H1931 H 0.61372 0.398 0.22684 0.0
C1932 C 0.73847 0.3194 0.1938 0.0
C1933 C 0.73189 0.32057 0.22306 0.0
C1934 C 0.72492 0.33549 0.18001 0.0
C1935 C 0.7051 0.35384 0.1952 0.0
C1936 C 0.69928 0.35568 0.22456 0.0
C1937 C 0.71233 0.33912 0.23828 0.0
C1938 C 0.68919 0.36987 0.18062 0.0
C1939 C 0.65987 0.36883 0.188 0.0
C1940 C 0.70228 0.38542 0.15923 0.0
C1941 C 0.73319 0.38875 0.15117 0.0
C1942 C 0.75039 0.39915 0.17148 0.0
C1943 C 0.77949 0.40189 0.16378 0.0
C1944 C 0.79165 0.39451 0.13579 0.0
C1945 C 0.77473 0.38449 0.1154 0.0
C1946 C 0.74561 0.38167 0.12299 0.0
C1947 C 0.60974 0.4534 0.14691 0.0
C1948 C 0.60429 0.44521 0.11929 0.0
C1949 C 0.62732 0.43867 0.15773 0.0
C1950 C 0.64002 0.41544 0.14117 0.0
C1951 C 0.63517 0.40743 0.11342 0.0
C1952 C 0.61717 0.42191 0.10272 0.0
C1953 C 0.65651 0.39841 0.15375 0.0
C1954 C 0.6857 0.39922 0.14591 0.0
C1955 C 0.64346 0.38278 0.17485 0.0
C1956 C 0.61262 0.38044 0.18328 0.0
C1957 C 0.5951 0.36928 0.16345 0.0
C1958 C 0.56603 0.36747 0.17142 0.0
C1959 C 0.55424 0.37668 0.19919 0.0
C1960 C 0.57151 0.38755 0.21908 0.0
C1961 C 0.6006 0.38936 0.21123 0.0
H1962 H 0.53173 0.37529 0.2053 0.0
H1963 H 0.81417 0.39661 0.12991 0.0
H1964 H 0.65234 0.72384 0.21568 0.0
H1965 H 0.61353 0.7016 0.19203 0.0
H1966 H 0.60978 0.63031 0.23428 0.0
H1967 H 0.64949 0.65225 0.25708 0.0
H1968 H 0.61532 0.61504 0.17934 0.0
H1969 H 0.55628 0.67421 0.24787 0.0
H1970 H 0.5412 0.71873 0.27616 0.0
H1971 H 0.53422 0.74988 0.20136 0.0
H1972 H 0.54965 0.70568 0.17255 0.0
H1973 H 0.50968 0.53578 0.12494 0.0
H1974 H 0.52381 0.57137 0.16256 0.0
H1975 H 0.54621 0.63053 0.1049 0.0
H1976 H 0.53189 0.59465 0.06692 0.0
H1977 H 0.52786 0.6533 0.16921 0.0
H1978 H 0.59392 0.59759 0.10129 0.0
H1979 H 0.6111 0.554 0.0727 0.0
H1980 H 0.60662 0.5179 0.14718 0.0
H1981 H 0.58859 0.56099 0.17618 0.0
C1982 C 0.64328 0.70336 0.21972 0.0
C1983 C 0.65443 0.68916 0.23727 0.0
C1984 C 0.62075 0.69094 0.20669 0.0
C1985 C 0.60874 0.6643 0.2114 0.0
C1986 C 0.61879 0.65088 0.23034 0.0
C1987 C 0.64139 0.66331 0.2433 0.0
C1988 C 0.58851 0.6489 0.19378 0.0
C1989 C 0.59595 0.62325 0.17764 0.0
C1990 C 0.56373 0.66009 0.19075 0.0
C1991 C 0.55437 0.68669 0.20802 0.0
C1992 C 0.55176 0.69063 0.23742 0.0
C1993 C 0.5431 0.7158 0.25356 0.0
C1994 C 0.53682 0.73715 0.24056 0.0
C1995 C 0.53912 0.73334 0.2114 0.0
C1996 C 0.54779 0.70821 0.19515 0.0
C1997 C 0.51651 0.55674 0.12058 0.0
C1998 C 0.52043 0.56247 0.0931 0.0
C1999 C 0.52437 0.57708 0.1421 0.0
C2000 C 0.53647 0.60331 0.1363 0.0
C2001 C 0.53683 0.61035 0.10969 0.0
C2002 C 0.52876 0.58989 0.08803 0.0
C2003 C 0.5548 0.61961 0.15529 0.0
C2004 C 0.54714 0.64524 0.17135 0.0
C2005 C 0.57963 0.60865 0.15829 0.0
C2006 C 0.58957 0.58236 0.14085 0.0
C2007 C 0.59612 0.58017 0.11153 0.0
C2008 C 0.60607 0.55558 0.09526 0.0
C2009 C 0.60994 0.5332 0.10813 0.0
C2010 C 0.60354 0.53522 0.13726 0.0
C2011 C 0.5934 0.55969 0.15361 0.0
H2012 H 0.61817 0.51442 0.09556 0.0
H2013 H 0.53012 0.75662 0.2531 0.0
H2014 H 0.32774 0.70515 0.23502 0.0
H2015 H 0.36132 0.67455 0.20534 0.0
H2016 H 0.30789 0.65682 0.14207 0.0
H2017 H 0.27431 0.68823 0.17155 0.0
H2018 H 0.36283 0.6217 0.18369 0.0
H2019 H 0.3476 0.64811 0.07726 0.0
H2020 H 0.3326 0.68671 0.05826 0.0
H2021 H 0.35742 0.74588 0.12719 0.0
H2022 H 0.37298 0.7077 0.14634 0.0
H2023 H 0.42852 0.52872 0.06569 0.0
H2024 H 0.40071 0.55638 0.10532 0.0
H2025 H 0.44892 0.63183 0.08448 0.0
H2026 H 0.4755 0.60419 0.04384 0.0
H2027 H 0.39818 0.63909 0.0867 0.0
H2028 H 0.44631 0.60486 0.1493 0.0
H2029 H 0.46511 0.56847 0.1683 0.0
H2030 H 0.38211 0.53013 0.18884 0.0
H2031 H 0.36276 0.56619 0.16981 0.0
C2032 C 0.32294 0.69468 0.21484 0.0
C2033 C 0.2983 0.69943 0.20563 0.0
C2034 C 0.34222 0.677 0.1979 0.0
C2035 C 0.33749 0.66351 0.17122 0.0
C2036 C 0.31237 0.66732 0.16235 0.0
C2037 C 0.29307 0.68522 0.17928 0.0
C2038 C 0.35948 0.64663 0.15241 0.0
C2039 C 0.37054 0.62549 0.16247 0.0
C2040 C 0.37016 0.65181 0.12486 0.0
C2041 C 0.36113 0.67499 0.11339 0.0
C2042 C 0.34993 0.66937 0.0883 0.0
C2043 C 0.34133 0.69118 0.07751 0.0
C2044 C 0.34395 0.71871 0.09157 0.0
C2045 C 0.3553 0.72452 0.11638 0.0
C2046 C 0.364 0.70281 0.12722 0.0
C2047 C 0.43407 0.55104 0.07042 0.0
C2048 C 0.45422 0.56432 0.05177 0.0
C2049 C 0.41797 0.56697 0.09306 0.0
C2050 C 0.42234 0.59643 0.09792 0.0
C2051 C 0.44473 0.60926 0.08107 0.0
C2052 C 0.4603 0.59341 0.05808 0.0
C2053 C 0.40162 0.61402 0.11786 0.0
C2054 C 0.39065 0.63527 0.10796 0.0
C2055 C 0.39159 0.60934 0.1457 0.0
C2056 C 0.40309 0.58814 0.15796 0.0
C2057 C 0.43206 0.58863 0.15779 0.0
C2058 C 0.44283 0.56806 0.16855 0.0
C2059 C 0.42485 0.54695 0.17965 0.0
C2060 C 0.39602 0.54649 0.18021 0.0
C2061 C 0.38513 0.56704 0.16952 0.0
H2062 H 0.43324 0.53098 0.18786 0.0
H2063 H 0.33725 0.73556 0.0832 0.0
H2064 H 0.35227 0.37636 0.28004 0.0
H2065 H 0.38647 0.40376 0.25031 0.0
H2066 H 0.39197 0.33224 0.18421 0.0
H2067 H 0.35767 0.30549 0.21308 0.0
H2068 H 0.44203 0.36465 0.18421 0.0
H2069 H 0.34302 0.37505 0.18884 0.0
H2070 H 0.29602 0.38676 0.21343 0.0
H2071 H 0.32868 0.47046 0.24216 0.0
H2072 H 0.376 0.45906 0.21808 0.0
H2073 H 0.47039 0.41433 0.05635 0.0
H2074 H 0.44629 0.39112 0.09539 0.0
H2075 H 0.43668 0.47193 0.1478 0.0
H2076 H 0.4593 0.49497 0.10824 0.0
H2077 H 0.39305 0.43917 0.16004 0.0
H2078 H 0.49258 0.42865 0.14762 0.0
H2079 H 0.53843 0.41421 0.12183 0.0
H2080 H 0.50409 0.32911 0.10563 0.0
H2081 H 0.45805 0.34281 0.13121 0.0
C2082 C 0.36173 0.36627 0.25958 0.0
C2083 C 0.35254 0.33865 0.24912 0.0
C2084 C 0.38113 0.38189 0.24265 0.0
C2085 C 0.39141 0.37002 0.21502 0.0
C2086 C 0.38443 0.34167 0.20557 0.0
C2087 C 0.36495 0.32619 0.22235 0.0
C2088 C 0.40534 0.38774 0.19432 0.0
C2089 C 0.43149 0.38107 0.17893 0.0
C2090 C 0.3915 0.4092 0.18767 0.0
C2091 C 0.36308 0.41609 0.20203 0.0
C2092 C 0.34021 0.39587 0.20062 0.0
C2093 C 0.31352 0.40246 0.21443 0.0
C2094 C 0.30939 0.42931 0.22944 0.0
C2095 C 0.33193 0.44965 0.2306 0.0
C2096 C 0.35869 0.44313 0.2169 0.0
C2097 C 0.46202 0.42697 0.07593 0.0
C2098 C 0.46596 0.45624 0.07941 0.0
C2099 C 0.44887 0.4138 0.09836 0.0
C2100 C 0.44058 0.42979 0.12478 0.0
C2101 C 0.44311 0.45917 0.12769 0.0
C2102 C 0.45569 0.47232 0.10508 0.0
C2103 C 0.4298 0.41596 0.14951 0.0
C2104 C 0.40411 0.42331 0.16563 0.0
C2105 C 0.44403 0.39496 0.15663 0.0
C2106 C 0.47178 0.38682 0.14118 0.0
C2107 C 0.49475 0.40689 0.13842 0.0
C2108 C 0.52076 0.39886 0.12386 0.0
C2109 C 0.52409 0.3709 0.11196 0.0
C2110 C 0.50146 0.3508 0.11477 0.0
C2111 C 0.47543 0.35865 0.12937 0.0
H2112 H 0.54427 0.36479 0.10072 0.0
H2113 H 0.2887 0.43439 0.2401 0.0
H2114 H 0.85737 0.73579 0.70582 0.0
H2115 H 0.88709 0.70029 0.67686 0.0
H2116 H 0.81371 0.6442 0.66532 0.0
H2117 H 0.78407 0.67938 0.69374 0.0
H2118 H 0.89557 0.6466 0.68197 0.0
H2119 H 0.82168 0.60689 0.60022 0.0
H2120 H 0.78741 0.62512 0.57792 0.0
H2121 H 0.82781 0.70804 0.59341 0.0
H2122 H 0.86256 0.69026 0.61541 0.0
H2123 H 0.90632 0.52442 0.55081 0.0
H2124 H 0.88211 0.5535 0.59188 0.0
H2125 H 0.95882 0.60514 0.60063 0.0
H2126 H 0.9832 0.5756 0.55985 0.0
H2127 H 0.87696 0.60598 0.58642 0.0
H2128 H 0.95022 0.64684 0.66849 0.0
H2129 H 0.98639 0.62953 0.68901 0.0
H2130 H 0.94997 0.54522 0.67093 0.0
H2131 H 0.91329 0.56205 0.6508 0.0
C2132 C 0.84756 0.71603 0.69679 0.0
C2133 C 0.81824 0.71066 0.70185 0.0
C2134 C 0.86461 0.69563 0.68048 0.0
C2135 C 0.85269 0.66957 0.66865 0.0
C2136 C 0.82347 0.66421 0.67382 0.0
C2137 C 0.80649 0.68446 0.6901 0.0
C2138 C 0.87045 0.64805 0.65039 0.0
C2139 C 0.89179 0.63795 0.66093 0.0
C2140 C 0.86527 0.63635 0.62308 0.0
C2141 C 0.84454 0.64726 0.60974 0.0
C2142 C 0.8233 0.629 0.59879 0.0
C2143 C 0.80378 0.63925 0.5862 0.0
C2144 C 0.80537 0.66773 0.58434 0.0
C2145 C 0.82653 0.68601 0.59497 0.0
C2146 C 0.84612 0.67585 0.60754 0.0
C2147 C 0.91837 0.54101 0.56245 0.0
C2148 C 0.94663 0.54773 0.55208 0.0
C2149 C 0.90442 0.5579 0.58573 0.0
C2150 C 0.91842 0.58194 0.5991 0.0
C2151 C 0.94748 0.58673 0.59081 0.0
C2152 C 0.96154 0.56959 0.56759 0.0
C2153 C 0.90185 0.604 0.61807 0.0
C2154 C 0.88076 0.61442 0.60753 0.0
C2155 C 0.90754 0.61605 0.64516 0.0
C2156 C 0.92917 0.60571 0.65779 0.0
C2157 C 0.94983 0.62462 0.669 0.0
C2158 C 0.97044 0.61489 0.68058 0.0
C2159 C 0.97054 0.58628 0.68118 0.0
C2160 C 0.94994 0.56736 0.67035 0.0
C2161 C 0.92925 0.57699 0.65882 0.0
H2162 H 0.98655 0.57879 0.69008 0.0
H2163 H 0.79024 0.67563 0.57459 0.0
H2164 H 0.37517 0.8075 0.69028 0.0
H2165 H 0.39429 0.84398 0.66224 0.0
H2166 H 0.36561 0.79334 0.5897 0.0
H2167 H 0.34623 0.75647 0.61816 0.0
H2168 H 0.42339 0.82261 0.58159 0.0
H2169 H 0.32849 0.84038 0.61376 0.0
H2170 H 0.28484 0.84446 0.64763 0.0
H2171 H 0.3246 0.9117 0.6999 0.0
H2172 H 0.36874 0.90772 0.66646 0.0
H2173 H 0.44331 0.96789 0.54143 0.0
H2174 H 0.409 0.93135 0.55793 0.0
H2175 H 0.46555 0.91234 0.60906 0.0
H2176 H 0.49983 0.94872 0.59309 0.0
H2177 H 0.38439 0.91517 0.6152 0.0
H2178 H 0.47576 0.84361 0.58303 0.0
H2179 H 0.51966 0.84058 0.54909 0.0
H2180 H 0.48413 0.88042 0.49361 0.0
H2181 H 0.43991 0.88326 0.52701 0.0
C2182 C 0.37359 0.80392 0.66819 0.0
C2183 C 0.35947 0.77934 0.65617 0.0
C2184 C 0.3842 0.82478 0.65232 0.0
C2185 C 0.38092 0.82139 0.62412 0.0
C2186 C 0.36811 0.79625 0.61153 0.0
C2187 C 0.35719 0.77532 0.62762 0.0
C2188 C 0.39041 0.84491 0.60867 0.0
C2189 C 0.41456 0.84271 0.58843 0.0
C2190 C 0.37849 0.87095 0.61741 0.0
C2191 C 0.35198 0.87367 0.63761 0.0
C2192 C 0.32801 0.85591 0.63257 0.0
C2193 C 0.30314 0.85823 0.6517 0.0
C2194 C 0.30191 0.87833 0.67595 0.0
C2195 C 0.32557 0.89616 0.68109 0.0
C2196 C 0.35052 0.89391 0.66201 0.0
C2197 C 0.44813 0.95656 0.55687 0.0
C2198 C 0.47461 0.96075 0.56542 0.0
C2199 C 0.42848 0.93571 0.56622 0.0
C2200 C 0.4352 0.91892 0.58409 0.0
C2201 C 0.46032 0.92497 0.59489 0.0
C2202 C 0.47985 0.94581 0.58574 0.0
C2203 C 0.41793 0.89301 0.58912 0.0
C2204 C 0.39256 0.89486 0.60757 0.0
C2205 C 0.42843 0.86656 0.57834 0.0
C2206 C 0.45457 0.86377 0.55761 0.0
C2207 C 0.47723 0.85149 0.56348 0.0
C2208 C 0.5022 0.84986 0.54436 0.0
C2209 C 0.5047 0.86035 0.51924 0.0
C2210 C 0.4822 0.87236 0.51311 0.0
C2211 C 0.45719 0.87401 0.53214 0.0
H2212 H 0.52407 0.85915 0.50451 0.0
H2213 H 0.28264 0.88016 0.69075 0.0
H2214 H 0.28002 0.32755 0.67657 0.0
H2215 H 0.25468 0.35201 0.65043 0.0
H2216 H 0.17744 0.30676 0.68113 0.0
H2217 H 0.20269 0.28152 0.70599 0.0
H2218 H 0.17502 0.31203 0.63184 0.0
H2219 H 0.19919 0.3758 0.71155 0.0
H2220 H 0.23051 0.40258 0.7429 0.0
H2221 H 0.27375 0.44454 0.67582 0.0
H2222 H 0.24289 0.4177 0.64396 0.0
H2223 H 0.10342 0.45084 0.644 0.0
H2224 H 0.13595 0.42414 0.6589 0.0
H2225 H 0.14767 0.37339 0.57678 0.0
H2226 H 0.11263 0.39789 0.56301 0.0
H2227 H 0.18603 0.41592 0.6481 0.0
H2228 H 0.16417 0.30895 0.57873 0.0
H2229 H 0.12576 0.28198 0.55652 0.0
H2230 H 0.06542 0.32645 0.61842 0.0
H2231 H 0.10346 0.35344 0.64115 0.0
C2232 C 0.25771 0.32255 0.67732 0.0
C2233 C 0.24338 0.30261 0.69335 0.0
C2234 C 0.2432 0.33667 0.66254 0.0
C2235 C 0.21399 0.33166 0.66416 0.0
C2236 C 0.19993 0.31102 0.67938 0.0
C2237 C 0.21445 0.29656 0.69366 0.0
C2238 C 0.19764 0.34864 0.65131 0.0
C2239 C 0.17756 0.33475 0.63528 0.0
C2240 C 0.20038 0.37834 0.65624 0.0
C2241 C 0.21898 0.3945 0.67529 0.0
C2242 C 0.21552 0.39059 0.70344 0.0
C2243 C 0.23316 0.40579 0.7213 0.0
C2244 C 0.25417 0.42518 0.71133 0.0
C2245 C 0.25752 0.42946 0.68349 0.0
C2246 C 0.23996 0.41426 0.66552 0.0
C2247 C 0.11276 0.43384 0.62917 0.0
C2248 C 0.1055 0.42679 0.60219 0.0
C2249 C 0.13166 0.41874 0.63761 0.0
C2250 C 0.1442 0.39641 0.61914 0.0
C2251 C 0.13794 0.39009 0.59172 0.0
C2252 C 0.11832 0.40465 0.58357 0.0
C2253 C 0.16293 0.37933 0.62909 0.0
C2254 C 0.18362 0.39319 0.6444 0.0
C2255 C 0.15969 0.34962 0.62483 0.0
C2256 C 0.13667 0.33343 0.61139 0.0
C2257 C 0.1427 0.31292 0.5876 0.0
C2258 C 0.121 0.29764 0.57493 0.0
C2259 C 0.09318 0.30258 0.58598 0.0
C2260 C 0.08699 0.32273 0.60981 0.0
C2261 C 0.1086 0.33804 0.62257 0.0
H2262 H 0.07641 0.29075 0.57613 0.0
H2263 H 0.2678 0.43695 0.7252 0.0
H2264 H 0.66501 0.27389 0.65723 0.0
H2265 H 0.64188 0.24862 0.61832 0.0
H2266 H 0.67903 0.17334 0.62357 0.0
H2267 H 0.70254 0.19869 0.66109 0.0
H2268 H 0.67386 0.17178 0.57286 0.0
H2269 H 0.61298 0.19449 0.66404 0.0
H2270 H 0.58974 0.2274 0.70335 0.0
H2271 H 0.5519 0.26232 0.64595 0.0
H2272 H 0.57519 0.22974 0.60628 0.0
H2273 H 0.58173 0.05408 0.58661 0.0
H2274 H 0.6064 0.09988 0.59894 0.0
H2275 H 0.56716 0.13393 0.54155 0.0
H2276 H 0.54333 0.08791 0.52817 0.0
H2277 H 0.57089 0.16673 0.60293 0.0
H2278 H 0.62411 0.12493 0.51554 0.0
H2279 H 0.64638 0.08524 0.48367 0.0
H2280 H 0.699 0.0799 0.54366 0.0
H2281 H 0.67674 0.11907 0.5759 0.0
C2282 C 0.66884 0.2522 0.64914 0.0
C2283 C 0.68563 0.23815 0.66171 0.0
C2284 C 0.65563 0.2378 0.62713 0.0
C2285 C 0.65837 0.20898 0.61833 0.0
C2286 C 0.67675 0.1956 0.62974 0.0
C2287 C 0.69027 0.21008 0.65119 0.0
C2288 C 0.63949 0.1913 0.60068 0.0
C2289 C 0.65131 0.17096 0.57912 0.0
C2290 C 0.60999 0.19047 0.60851 0.0
C2291 C 0.59609 0.21004 0.63225 0.0
C2292 C 0.59982 0.20931 0.65984 0.0
C2293 C 0.58665 0.22788 0.68216 0.0
C2294 C 0.56944 0.24701 0.67714 0.0
C2295 C 0.56531 0.24756 0.64979 0.0
C2296 C 0.5785 0.22907 0.62739 0.0
C2297 C 0.57789 0.07141 0.57704 0.0
C2298 C 0.56004 0.06759 0.55695 0.0
C2299 C 0.59204 0.09746 0.584 0.0
C2300 C 0.58851 0.11999 0.571 0.0
C2301 C 0.56985 0.11671 0.55187 0.0
C2302 C 0.55592 0.09055 0.54465 0.0
C2303 C 0.60559 0.14645 0.57676 0.0
C2304 C 0.59332 0.16838 0.59579 0.0
C2305 C 0.63479 0.14804 0.56762 0.0
C2306 C 0.64866 0.12483 0.54806 0.0
C2307 C 0.6403 0.1151 0.52188 0.0
C2308 C 0.65292 0.09276 0.50379 0.0
C2309 C 0.67405 0.08008 0.51165 0.0
C2310 C 0.68265 0.08975 0.53758 0.0
C2311 C 0.67006 0.11205 0.55574 0.0
H2312 H 0.68377 0.06278 0.49764 0.0
H2313 H 0.55923 0.26136 0.69444 0.0
H2314 H 0.78469 0.33392 0.33889 0.0
H2315 H 0.81692 0.36245 0.36774 0.0
H2316 H 0.88705 0.32692 0.31143 0.0
H2317 H 0.8549 0.29875 0.28202 0.0
H2318 H 0.89002 0.33045 0.37171 0.0
H2319 H 0.87692 0.38903 0.30638 0.0
H2320 H 0.8492 0.41277 0.28146 0.0
H2321 H 0.81067 0.45748 0.35988 0.0
H2322 H 0.83786 0.43366 0.38531 0.0
H2323 H 0.99159 0.43357 0.43426 0.0
H2324 H 0.96493 0.39918 0.40345 0.0
H2325 H 0.89116 0.444 0.43492 0.0
H2326 H 0.91752 0.47818 0.46467 0.0
H2327 H 0.89349 0.43402 0.38319 0.0
H2328 H 0.90395 0.37615 0.44959 0.0
H2329 H 0.92954 0.3523 0.47643 0.0
H2330 H 0.96975 0.30568 0.39993 0.0
H2331 H 0.94478 0.32966 0.37255 0.0
C2332 C 0.80696 0.3322 0.33248 0.0
C2333 C 0.81702 0.31407 0.30782 0.0
C2334 C 0.82546 0.34855 0.34912 0.0
C2335 C 0.85462 0.34699 0.34197 0.0
C2336 C 0.86475 0.32858 0.31762 0.0
C2337 C 0.84626 0.31259 0.30063 0.0
C2338 C 0.87433 0.36529 0.35944 0.0
C2339 C 0.89109 0.35311 0.37394 0.0
C2340 C 0.87552 0.39493 0.363 0.0
C2341 C 0.85923 0.40935 0.34776 0.0
C2342 C 0.86235 0.40374 0.31833 0.0
C2343 C 0.84677 0.41724 0.30411 0.0
C2344 C 0.82813 0.43657 0.31908 0.0
C2345 C 0.82509 0.44248 0.34831 0.0
C2346 C 0.84059 0.42899 0.36264 0.0
C2347 C 0.96957 0.43571 0.43491 0.0
C2348 C 0.95681 0.45879 0.45206 0.0
C2349 C 0.95425 0.41605 0.41713 0.0
C2350 C 0.92573 0.41876 0.41634 0.0
C2351 C 0.91303 0.44125 0.43441 0.0
C2352 C 0.92822 0.46085 0.45173 0.0
C2353 C 0.90895 0.39939 0.39633 0.0
C2354 C 0.89267 0.41138 0.38112 0.0
C2355 C 0.90795 0.36962 0.39257 0.0
C2356 C 0.92286 0.35507 0.40898 0.0
C2357 C 0.91848 0.36104 0.43845 0.0
C2358 C 0.93285 0.34747 0.45377 0.0
C2359 C 0.9514 0.32762 0.43988 0.0
C2360 C 0.95549 0.32118 0.41064 0.0
C2361 C 0.94124 0.33476 0.39522 0.0
H2362 H 0.96251 0.31713 0.45177 0.0
H2363 H 0.81609 0.44701 0.30803 0.0
H2364 H 0.75767 0.85936 0.29703 0.0
H2365 H 0.72775 0.89311 0.32822 0.0
H2366 H 0.67555 0.82496 0.36091 0.0
H2367 H 0.70453 0.79132 0.32879 0.0
H2368 H 0.64358 0.85799 0.35237 0.0
H2369 H 0.72454 0.87348 0.39805 0.0
H2370 H 0.77454 0.88471 0.4015 0.0
H2371 H 0.77147 0.96531 0.37841 0.0
H2372 H 0.7215 0.95441 0.3745 0.0
H2373 H 0.5657 0.92961 0.47491 0.0
H2374 H 0.59524 0.90101 0.43833 0.0
H2375 H 0.6424 0.97564 0.41382 0.0
H2376 H 0.6145 1.00418 0.45328 0.0
H2377 H 0.67727 0.9422 0.41404 0.0
H2378 H 0.5901 0.9231 0.37408 0.0
H2379 H 0.53974 0.90805 0.37773 0.0
H2380 H 0.55499 0.82853 0.39621 0.0
H2381 H 0.60527 0.84323 0.3932 0.0
C2382 C 0.74 0.85163 0.31113 0.0
C2383 C 0.73353 0.82262 0.31045 0.0
C2384 C 0.72288 0.87099 0.32909 0.0
C2385 C 0.69931 0.86182 0.34732 0.0
C2386 C 0.69339 0.8328 0.34706 0.0
C2387 C 0.71009 0.81349 0.32874 0.0
C2388 C 0.67995 0.88201 0.36577 0.0
C2389 C 0.65105 0.8763 0.36599 0.0
C2390 C 0.68938 0.90637 0.38324 0.0
C2391 C 0.71937 0.913 0.38567 0.0
C2392 C 0.73458 0.89352 0.39351 0.0
C2393 C 0.7629 0.89984 0.39558 0.0
C2394 C 0.7762 0.92567 0.39009 0.0
C2395 C 0.76116 0.94529 0.3826 0.0
C2396 C 0.73283 0.93906 0.38047 0.0
C2397 C 0.5816 0.94001 0.46095 0.0
C2398 C 0.58716 0.96923 0.46637 0.0
C2399 C 0.59866 0.92353 0.4398 0.0
C2400 C 0.62089 0.93583 0.42225 0.0
C2401 C 0.62542 0.96535 0.42672 0.0
C2402 C 0.6091 0.98181 0.44891 0.0
C2403 C 0.64068 0.91791 0.40108 0.0
C2404 C 0.66976 0.92414 0.40016 0.0
C2405 C 0.63141 0.89348 0.38347 0.0
C2406 C 0.60139 0.88435 0.38357 0.0
C2407 C 0.58268 0.90242 0.37891 0.0
C2408 C 0.55414 0.89398 0.38102 0.0
C2409 C 0.54422 0.86743 0.38746 0.0
C2410 C 0.56275 0.84912 0.3914 0.0
C2411 C 0.59123 0.85748 0.38945 0.0
H2412 H 0.52221 0.86077 0.38916 0.0
H2413 H 0.79813 0.93052 0.39169 0.0
H2414 H 0.22619 0.70566 0.33683 0.0
H2415 H 0.19847 0.67237 0.36477 0.0
H2416 H 0.13866 0.65717 0.30771 0.0
H2417 H 0.16667 0.69011 0.27934 0.0
H2418 H 0.14876 0.66994 0.39467 0.0
H2419 H 0.10579 0.59179 0.30577 0.0
H2420 H 0.11989 0.57351 0.2556 0.0
H2421 H 0.20643 0.59182 0.26434 0.0
H2422 H 0.19287 0.60986 0.31462 0.0
H2423 H 0.03091 0.54964 0.40906 0.0
H2424 H 0.06467 0.57746 0.37999 0.0
H2425 H 0.12188 0.58522 0.43907 0.0
H2426 H 0.08767 0.55731 0.46864 0.0
H2427 H 0.1158 0.57478 0.35168 0.0
H2428 H 0.15878 0.65041 0.44125 0.0
H2429 H 0.14444 0.66816 0.49156 0.0
H2430 H 0.05804 0.65458 0.48127 0.0
H2431 H 0.07186 0.63712 0.4309 0.0
C2432 C 0.2072 0.69518 0.33004 0.0
C2433 C 0.19895 0.70068 0.30551 0.0
C2434 C 0.19119 0.67609 0.34624 0.0
C2435 C 0.16637 0.66163 0.3385 0.0
C2436 C 0.15791 0.66734 0.31414 0.0
C2437 C 0.17397 0.68642 0.29786 0.0
C2438 C 0.1494 0.64093 0.35597 0.0
C2439 C 0.14201 0.649 0.38518 0.0
C2440 C 0.13988 0.61351 0.34404 0.0
C2441 C 0.14827 0.60244 0.31389 0.0
C2442 C 0.12783 0.59182 0.297 0.0
C2443 C 0.13573 0.58152 0.26855 0.0
C2444 C 0.16404 0.58159 0.25677 0.0
C2445 C 0.18451 0.59187 0.27346 0.0
C2446 C 0.17673 0.60217 0.30193 0.0
C2447 C 0.0509 0.55675 0.41574 0.0
C2448 C 0.05641 0.55101 0.44136 0.0
C2449 C 0.0703 0.57282 0.39896 0.0
C2450 C 0.09592 0.58413 0.40725 0.0
C2451 C 0.10218 0.57728 0.43217 0.0
C2452 C 0.08272 0.56091 0.44899 0.0
C2453 C 0.11506 0.60388 0.39027 0.0
C2454 C 0.12278 0.59565 0.36115 0.0
C2455 C 0.12489 0.63113 0.40228 0.0
C2456 C 0.11638 0.64215 0.4324 0.0
C2457 C 0.13674 0.65132 0.44973 0.0
C2458 C 0.1287 0.66131 0.47824 0.0
C2459 C 0.10035 0.66238 0.48961 0.0
C2460 C 0.07998 0.65363 0.47246 0.0
C2461 C 0.08791 0.64367 0.44394 0.0
H2462 H 0.09415 0.67005 0.51167 0.0
H2463 H 0.17011 0.57363 0.23474 0.0
H2464 H 0.29103 0.23971 0.3446 0.0
H2465 H 0.31815 0.2133 0.36708 0.0
H2466 H 0.30054 0.13869 0.30853 0.0
H2467 H 0.27138 0.16444 0.28806 0.0
H2468 H 0.30325 0.12136 0.3507 0.0
H2469 H 0.36564 0.18591 0.30331 0.0
H2470 H 0.38483 0.2318 0.29055 0.0
H2471 H 0.39913 0.26116 0.37502 0.0
H2472 H 0.3796 0.21556 0.3884 0.0
H2473 H 0.45691 0.10122 0.3727 0.0
H2474 H 0.42482 0.12577 0.35474 0.0
H2475 H 0.35582 0.09282 0.41117 0.0
H2476 H 0.3871 0.06477 0.42559 0.0
H2477 H 0.39629 0.16411 0.37013 0.0
H2478 H 0.2938 0.09212 0.39272 0.0
H2479 H 0.27917 0.042 0.39326 0.0
H2480 H 0.35409 0.01944 0.33668 0.0
H2481 H 0.36901 0.0694 0.33556 0.0
C2482 C 0.29256 0.21753 0.337 0.0
C2483 C 0.27909 0.20413 0.31463 0.0
C2484 C 0.3084 0.20245 0.34958 0.0
C2485 C 0.31235 0.17398 0.33909 0.0
C2486 C 0.29805 0.16051 0.31724 0.0
C2487 C 0.28134 0.1753 0.30544 0.0
C2488 C 0.33188 0.15838 0.35008 0.0
C2489 C 0.32362 0.13078 0.35485 0.0
C2490 C 0.35896 0.17002 0.35486 0.0
C2491 C 0.37088 0.19743 0.34692 0.0
C2492 C 0.37273 0.20222 0.3192 0.0
C2493 C 0.38366 0.22817 0.31186 0.0
C2494 C 0.39313 0.24941 0.33198 0.0
C2495 C 0.39174 0.24471 0.35948 0.0
C2496 C 0.38074 0.21881 0.36695 0.0
C2497 C 0.43481 0.0987 0.38089 0.0
C2498 C 0.42496 0.08119 0.40113 0.0
C2499 C 0.41638 0.11318 0.37086 0.0
C2500 C 0.38751 0.11123 0.38123 0.0
C2501 C 0.37773 0.09435 0.40203 0.0
C2502 C 0.396 0.07886 0.41112 0.0
C2503 C 0.3679 0.12684 0.37029 0.0
C2504 C 0.37603 0.15456 0.36579 0.0
C2505 C 0.34151 0.11461 0.36383 0.0
C2506 C 0.33265 0.08451 0.36433 0.0
C2507 C 0.30711 0.07645 0.38035 0.0
C2508 C 0.29878 0.04808 0.38076 0.0
C2509 C 0.31574 0.02755 0.3651 0.0
C2510 C 0.34103 0.03536 0.3489 0.0
C2511 C 0.34945 0.0637 0.34839 0.0
H2512 H 0.30926 1.0056 0.36546 0.0
H2513 H 0.40159 0.26949 0.32626 0.0
H2514 H 0.69196 0.80814 0.7438 0.0
H2515 H 0.66807 0.83555 0.71933 0.0
H2516 H 0.73336 0.82347 0.64735 0.0
H2517 H 0.75862 0.7982 0.6731 0.0
H2518 H 0.72127 0.87273 0.65293 0.0
H2519 H 0.66318 0.787 0.65172 0.0
H2520 H 0.63486 0.74802 0.67183 0.0
H2521 H 0.57903 0.80583 0.72357 0.0
H2522 H 0.60722 0.84521 0.70403 0.0
H2523 H 0.59156 0.89674 0.58541 0.0
H2524 H 0.61837 0.86654 0.60364 0.0
H2525 H 0.65928 0.93954 0.64821 0.0
H2526 H 0.63401 0.96975 0.62819 0.0
H2527 H 0.61918 0.85668 0.65201 0.0
H2528 H 0.72334 0.92696 0.65984 0.0
H2529 H 0.75386 0.96124 0.63451 0.0
H2530 H 0.72034 0.92691 0.55935 0.0
H2531 H 0.69002 0.89205 0.58406 0.0
C2532 C 0.70113 0.81138 0.72271 0.0
C2533 C 0.72691 0.80094 0.71013 0.0
C2534 C 0.68737 0.82686 0.70861 0.0
C2535 C 0.69851 0.83124 0.68112 0.0
C2536 C 0.72434 0.82059 0.66854 0.0
C2537 C 0.73866 0.80597 0.6831 0.0
C2538 C 0.68369 0.8476 0.66588 0.0
C2539 C 0.69898 0.86912 0.65264 0.0
C2540 C 0.6546 0.8427 0.66494 0.0
C2541 C 0.6374 0.81905 0.67651 0.0
C2542 C 0.64493 0.7914 0.66747 0.0
C2543 C 0.6289 0.76924 0.67877 0.0
C2544 C 0.60519 0.77445 0.699 0.0
C2545 C 0.59741 0.80183 0.70791 0.0
C2546 C 0.61337 0.82407 0.6967 0.0
C2547 C 0.60699 0.90639 0.59822 0.0
C2548 C 0.6113 0.93573 0.60455 0.0
C2549 C 0.622 0.88905 0.60911 0.0
C2550 C 0.64138 0.90061 0.62698 0.0
C2551 C 0.64515 0.92994 0.63388 0.0
C2552 C 0.63045 0.94725 0.62266 0.0
C2553 C 0.65679 0.88203 0.6392 0.0
C2554 C 0.64155 0.86018 0.65204 0.0
C2555 C 0.68611 0.88607 0.63899 0.0
C2556 C 0.70412 0.9071 0.62394 0.0
C2557 C 0.72249 0.9267 0.6379 0.0
C2558 C 0.73979 0.94621 0.62364 0.0
C2559 C 0.73894 0.94634 0.59537 0.0
C2560 C 0.72088 0.92687 0.58128 0.0
C2561 C 0.70362 0.90723 0.59542 0.0
H2562 H 0.75234 0.96148 0.58437 0.0
H2563 H 0.59283 0.75727 0.70774 0.0
H2564 H 0.68167 0.27208 0.40275 0.0
H2565 H 0.65682 0.23973 0.43393 0.0
H2566 H 0.60959 0.20031 0.36892 0.0
H2567 H 0.63424 0.23243 0.33819 0.0
H2568 H 0.57855 0.20012 0.42179 0.0
H2569 H 0.67291 0.16661 0.37004 0.0
H2570 H 0.72393 0.17618 0.35813 0.0
H2571 H 0.72908 0.20664 0.44485 0.0
H2572 H 0.67798 0.19625 0.45731 0.0
H2573 H 0.54832 0.05979 0.4073 0.0
H2574 H 0.57474 0.1033 0.39681 0.0
H2575 H 0.61028 0.11139 0.47236 0.0
H2576 H 0.58472 0.06725 0.48263 0.0
H2577 H 0.6463 0.13374 0.42981 0.0
H2578 H 0.55298 0.14176 0.47844 0.0
H2579 H 0.50271 0.1262 0.48642 0.0
H2580 H 0.49445 0.14477 0.40613 0.0
H2581 H 0.54475 0.16029 0.39756 0.0
C2582 C 0.66542 0.25691 0.39564 0.0
C2583 C 0.66007 0.25415 0.36811 0.0
C2584 C 0.65131 0.23853 0.41331 0.0
C2585 C 0.63179 0.21734 0.40347 0.0
C2586 C 0.62455 0.21652 0.37694 0.0
C2587 C 0.63861 0.23481 0.35938 0.0
C2588 C 0.62212 0.19323 0.41819 0.0
C2589 C 0.59329 0.18581 0.42407 0.0
C2590 C 0.64134 0.17481 0.42167 0.0
C2591 C 0.67184 0.18089 0.4145 0.0
C2592 C 0.685 0.17531 0.38651 0.0
C2593 C 0.71391 0.18086 0.37969 0.0
C2594 C 0.72976 0.19235 0.40067 0.0
C2595 C 0.71676 0.19785 0.42861 0.0
C2596 C 0.68787 0.19195 0.43559 0.0
C2597 C 0.56275 0.07018 0.421 0.0
C2598 C 0.56425 0.06051 0.44591 0.0
C2599 C 0.57761 0.09509 0.41516 0.0
C2600 C 0.59361 0.1108 0.43447 0.0
C2601 C 0.59782 0.09948 0.45754 0.0
C2602 C 0.58333 0.07424 0.46319 0.0
C2603 C 0.60286 0.14028 0.4323 0.0
C2604 C 0.63149 0.14854 0.42884 0.0
C2605 C 0.58336 0.15958 0.4315 0.0
C2606 C 0.55268 0.15217 0.43734 0.0
C2607 C 0.54043 0.14262 0.46251 0.0
C2608 C 0.51195 0.13373 0.46712 0.0
C2609 C 0.49542 0.1344 0.44675 0.0
C2610 C 0.50729 0.14428 0.42189 0.0
C2611 C 0.53577 0.15323 0.41719 0.0
H2612 H 0.47343 0.1273 0.45025 0.0
H2613 H 0.7521 0.19693 0.39532 0.0
H2614 H 0.83776 0.75961 0.31561 0.0
H2615 H 0.86053 0.73612 0.34461 0.0
H2616 H 0.80452 0.66207 0.32898 0.0
H2617 H 0.78095 0.68589 0.30092 0.0
H2618 H 0.81231 0.66984 0.38107 0.0
H2619 H 0.87384 0.67107 0.29205 0.0
H2620 H 0.90271 0.69381 0.2543 0.0
H2621 H 0.95342 0.73988 0.31282 0.0
H2622 H 0.92459 0.7179 0.35102 0.0
H2623 H 0.89025 0.56323 0.4026 0.0
H2624 H 0.86509 0.59482 0.38399 0.0
H2625 H 0.92257 0.66422 0.41059 0.0
H2626 H 0.9481 0.63234 0.42868 0.0
H2627 H 0.91491 0.66294 0.35705 0.0
H2628 H 0.85614 0.65933 0.44513 0.0
H2629 H 0.82776 0.63691 0.48322 0.0
H2630 H 0.77249 0.59534 0.42698 0.0
H2631 H 0.80077 0.61721 0.38842 0.0
C2632 C 0.83013 0.73841 0.31856 0.0
C2633 C 0.80764 0.72455 0.30584 0.0
C2634 C 0.84328 0.72493 0.33502 0.0
C2635 C 0.83468 0.69706 0.33853 0.0
C2636 C 0.81164 0.68353 0.32655 0.0
C2637 C 0.79818 0.69716 0.31047 0.0
C2638 C 0.84999 0.68167 0.35402 0.0
C2639 C 0.83471 0.66813 0.37561 0.0
C2640 C 0.8794 0.68009 0.34755 0.0
C2641 C 0.89687 0.69305 0.32445 0.0
C2642 C 0.89103 0.68619 0.2969 0.0
C2643 C 0.90739 0.69891 0.27542 0.0
C2644 C 0.92983 0.71826 0.28117 0.0
C2645 C 0.93601 0.72491 0.3084 0.0
C2646 C 0.91967 0.71234 0.32997 0.0
C2647 C 0.89725 0.5853 0.4047 0.0
C2648 C 0.92073 0.5955 0.4175 0.0
C2649 C 0.88284 0.60335 0.39422 0.0
C2650 C 0.89169 0.63199 0.39624 0.0
C2651 C 0.91521 0.64226 0.40904 0.0
C2652 C 0.92957 0.62415 0.41967 0.0
C2653 C 0.87713 0.65075 0.38369 0.0
C2654 C 0.89255 0.66488 0.36265 0.0
C2655 C 0.84788 0.65286 0.39064 0.0
C2656 C 0.83071 0.63976 0.41382 0.0
C2657 C 0.83805 0.64524 0.44082 0.0
C2658 C 0.82196 0.63266 0.46251 0.0
C2659 C 0.79837 0.61467 0.45751 0.0
C2660 C 0.79078 0.60927 0.43082 0.0
C2661 C 0.80681 0.62179 0.40905 0.0
H2662 H 0.78594 0.60495 0.47433 0.0
H2663 H 0.94246 0.72807 0.26451 0.0
H2664 H 0.34949 0.76516 0.36425 0.0
H2665 H 0.39104 0.78957 0.38216 0.0
H2666 H 0.4095 0.83328 0.31098 0.0
H2667 H 0.36948 0.80738 0.29219 0.0
H2668 H 0.45625 0.82635 0.32721 0.0
H2669 H 0.36606 0.85934 0.37144 0.0
H2670 H 0.31794 0.85457 0.39722 0.0
H2671 H 0.34918 0.8321 0.46609 0.0
H2672 H 0.39749 0.83637 0.44049 0.0
H2673 H 0.47655 0.97238 0.4008 0.0
H2674 H 0.46156 0.92909 0.37236 0.0
H2675 H 0.48884 0.88116 0.42704 0.0
H2676 H 0.50399 0.92441 0.45585 0.0
H2677 H 0.42625 0.88413 0.41951 0.0
H2678 H 0.50831 0.82375 0.34088 0.0
H2679 H 0.55444 0.83078 0.31173 0.0
H2680 H 0.53684 0.91399 0.3061 0.0
H2681 H 0.4904 0.90708 0.33431 0.0
C2682 C 0.36283 0.77962 0.35231 0.0
C2683 C 0.35558 0.78578 0.32779 0.0
C2684 C 0.38648 0.79343 0.36243 0.0
C2685 C 0.40274 0.81382 0.34829 0.0
C2686 C 0.39698 0.81791 0.32241 0.0
C2687 C 0.37369 0.80373 0.31208 0.0
C2688 C 0.42283 0.83388 0.36213 0.0
C2689 C 0.4499 0.83888 0.34751 0.0
C2690 C 0.41428 0.85027 0.38848 0.0
C2691 C 0.38529 0.8478 0.40393 0.0
C2692 C 0.36263 0.8532 0.392 0.0
C2693 C 0.33533 0.8506 0.40658 0.0
C2694 C 0.3305 0.84294 0.43324 0.0
C2695 C 0.35296 0.83795 0.44541 0.0
C2696 C 0.38029 0.84044 0.43088 0.0
C2697 C 0.48039 0.95264 0.40622 0.0
C2698 C 0.49128 0.95178 0.43066 0.0
C2699 C 0.4724 0.9279 0.38952 0.0
C2700 C 0.47577 0.90193 0.39655 0.0
C2701 C 0.48761 0.901 0.42036 0.0
C2702 C 0.49585 0.92575 0.43702 0.0
C2703 C 0.45953 0.87707 0.38439 0.0
C2704 C 0.43301 0.87115 0.39954 0.0
C2705 C 0.46835 0.8607 0.35806 0.0
C2706 C 0.49631 0.86541 0.34103 0.0
C2707 C 0.51433 0.8436 0.33353 0.0
C2708 C 0.54051 0.8475 0.31702 0.0
C2709 C 0.54875 0.87298 0.30741 0.0
C2710 C 0.53066 0.89445 0.31399 0.0
C2711 C 0.50445 0.89063 0.33049 0.0
H2712 H 0.56903 0.87599 0.29466 0.0
H2713 H 0.30935 0.84095 0.4445 0.0
H2714 H 0.21558 0.33143 0.31894 0.0
H2715 H 0.18257 0.36298 0.34804 0.0
H2716 H 0.12066 0.29333 0.35691 0.0
H2717 H 0.15361 0.2615 0.32699 0.0
H2718 H 0.09619 0.33692 0.34927 0.0
H2719 H 0.15808 0.32421 0.41066 0.0
H2720 H 0.20344 0.3231 0.42596 0.0
H2721 H 0.22225 0.41058 0.42106 0.0
H2722 H 0.17713 0.41213 0.40536 0.0
H2723 H 0.0176 0.40265 0.47974 0.0
H2724 H 0.04224 0.37396 0.43849 0.0
H2725 H 0.09742 0.44614 0.42009 0.0
H2726 H 0.07234 0.47504 0.461 0.0
H2727 H 0.12458 0.40217 0.43098 0.0
H2728 H 0.0583 0.41487 0.37484 0.0
H2729 H 0.01218 0.41446 0.36072 0.0
H2730 H 1.00028 0.32521 0.35708 0.0
H2731 H 0.04578 0.32515 0.37235 0.0
C2732 C 0.19504 0.32264 0.3272 0.0
C2733 C 0.18744 0.29374 0.32069 0.0
C2734 C 0.17609 0.34083 0.34395 0.0
C2735 C 0.14908 0.33067 0.35516 0.0
C2736 C 0.14132 0.30181 0.34861 0.0
C2737 C 0.16027 0.28356 0.33159 0.0
C2738 C 0.12922 0.35023 0.37375 0.0
C2739 C 0.10225 0.35091 0.36739 0.0
C2740 C 0.13719 0.36905 0.3971 0.0
C2741 C 0.16434 0.36821 0.40655 0.0
C2742 C 0.17198 0.34316 0.41263 0.0
C2743 C 0.19763 0.34246 0.42142 0.0
C2744 C 0.21575 0.36673 0.42441 0.0
C2745 C 0.20821 0.39178 0.41869 0.0
C2746 C 0.18259 0.39259 0.40987 0.0
C2747 C 0.03398 0.41274 0.46599 0.0
C2748 C 0.04292 0.44115 0.47357 0.0
C2749 C 0.04826 0.39623 0.44251 0.0
C2750 C 0.07201 0.40774 0.42635 0.0
C2751 C 0.07923 0.43674 0.43229 0.0
C2752 C 0.06458 0.45338 0.45548 0.0
C2753 C 0.09157 0.38895 0.4065 0.0
C2754 C 0.11851 0.3883 0.41278 0.0
C2755 C 0.08331 0.36996 0.38342 0.0
C2756 C 0.05544 0.37006 0.37509 0.0
C2757 C 0.04567 0.39519 0.37155 0.0
C2758 C 0.01962 0.39504 0.36328 0.0
C2759 C 1.00327 0.36984 0.3581 0.0
C2760 C 0.01288 0.34475 0.36127 0.0
C2761 C 0.03879 0.3448 0.36981 0.0
H2762 H 0.98315 0.36976 0.35159 0.0
H2763 H 0.2356 0.36615 0.43121 0.0
H2764 H 0.29727 0.1726 0.69536 0.0
H2765 H 0.32948 0.14027 0.66492 0.0
H2766 H 0.3924 0.20902 0.65573 0.0
H2767 H 0.36051 0.24124 0.68566 0.0
H2768 H 0.38941 0.1775 0.60648 0.0
H2769 H 0.39565 0.16061 0.69869 0.0
H2770 H 0.37717 0.1481 0.74538 0.0
H2771 H 0.3453 0.0674 0.70723 0.0
H2772 H 0.36327 0.07954 0.66025 0.0
H2773 H 0.50009 0.10611 0.53365 0.0
H2774 H 0.47456 0.13306 0.57511 0.0
H2775 H 0.41726 0.06053 0.58731 0.0
H2776 H 0.44505 0.03261 0.54757 0.0
H2777 H 0.4163 0.0929 0.63561 0.0
H2778 H 0.40991 0.11067 0.54299 0.0
H2779 H 0.4294 0.1236 0.49664 0.0
H2780 H 0.46123 0.20372 0.53597 0.0
H2781 H 0.44244 0.19115 0.5826 0.0
C2782 C 0.31792 0.18083 0.68673 0.0
C2783 C 0.32618 0.20961 0.69298 0.0
C2784 C 0.33642 0.16227 0.66948 0.0
C2785 C 0.3636 0.17207 0.65817 0.0
C2786 C 0.37164 0.20083 0.66414 0.0
C2787 C 0.35328 0.21929 0.68133 0.0
C2788 C 0.38364 0.15278 0.6396 0.0
C2789 C 0.39548 0.15919 0.61304 0.0
C2790 C 0.39124 0.12846 0.64774 0.0
C2791 C 0.38054 0.12109 0.67595 0.0
C2792 C 0.38451 0.14028 0.70025 0.0
C2793 C 0.37417 0.13325 0.72676 0.0
C2794 C 0.36001 0.10703 0.72927 0.0
C2795 C 0.35624 0.08773 0.70525 0.0
C2796 C 0.36651 0.09466 0.67868 0.0
C2797 C 0.48336 0.09534 0.54637 0.0
C2798 C 0.47504 0.06704 0.53764 0.0
C2799 C 0.46813 0.11103 0.56969 0.0
C2800 C 0.44301 0.09934 0.58363 0.0
C2801 C 0.43626 0.07031 0.57676 0.0
C2802 C 0.45235 0.05422 0.55413 0.0
C2803 C 0.42236 0.11785 0.60258 0.0
C2804 C 0.41025 0.11122 0.62907 0.0
C2805 C 0.41438 0.14207 0.5944 0.0
C2806 C 0.42491 0.14989 0.5663 0.0
C2807 C 0.4211 0.13103 0.54176 0.0
C2808 C 0.43206 0.13826 0.51544 0.0
C2809 C 0.44652 0.16442 0.51336 0.0
C2810 C 0.45003 0.18345 0.53761 0.0
C2811 C 0.43923 0.1763 0.56399 0.0
H2812 H 0.45498 0.16997 0.49296 0.0
H2813 H 0.35202 0.10164 0.74983 0.0
H2814 H 0.78802 0.31188 0.68298 0.0
H2815 H 0.81778 0.34287 0.65375 0.0
H2816 H 0.86812 0.36997 0.71885 0.0
H2817 H 0.83833 0.33883 0.74829 0.0
H2818 H 0.8591 0.41479 0.6958 0.0
H2819 H 0.89118 0.3237 0.65972 0.0
H2820 H 0.88644 0.27328 0.64067 0.0
H2821 H 0.85481 0.29167 0.5702 0.0
H2822 H 0.85898 0.3422 0.58904 0.0
H2823 H 0.97916 0.47581 0.61516 0.0
H2824 H 0.94486 0.44856 0.64443 0.0
H2825 H 0.89956 0.42114 0.57533 0.0
H2826 H 0.93462 0.44824 0.54563 0.0
H2827 H 0.90433 0.37701 0.59976 0.0
H2828 H 0.87347 0.46807 0.63471 0.0
H2829 H 0.87781 0.51852 0.6536 0.0
H2830 H 0.90664 0.50058 0.7258 0.0
H2831 H 0.90279 0.44998 0.70717 0.0
C2832 C 0.80537 0.32442 0.69124 0.0
C2833 C 0.81056 0.32257 0.71823 0.0
C2834 C 0.82258 0.34219 0.67431 0.0
C2835 C 0.84566 0.35889 0.68368 0.0
C2836 C 0.85061 0.35748 0.71084 0.0
C2837 C 0.83351 0.33949 0.72773 0.0
C2838 C 0.8646 0.37748 0.66512 0.0
C2839 C 0.86923 0.40636 0.67495 0.0
C2840 C 0.87749 0.36707 0.63742 0.0
C2841 C 0.87512 0.33672 0.62595 0.0
C2842 C 0.88301 0.31698 0.64027 0.0
C2843 C 0.88046 0.28838 0.6295 0.0
C2844 C 0.87026 0.27928 0.60429 0.0
C2845 C 0.86267 0.29876 0.58975 0.0
C2846 C 0.86514 0.32738 0.60046 0.0
C2847 C 0.9618 0.46423 0.60617 0.0
C2848 C 0.95985 0.46439 0.57791 0.0
C2849 C 0.94191 0.44865 0.62311 0.0
C2850 C 0.91918 0.43253 0.61247 0.0
C2851 C 0.91673 0.43322 0.58435 0.0
C2852 C 0.93664 0.44908 0.56738 0.0
C2853 C 0.89891 0.41436 0.63045 0.0
C2854 C 0.89409 0.38551 0.62055 0.0
C2855 C 0.88579 0.42483 0.65806 0.0
C2856 C 0.88805 0.45522 0.66942 0.0
C2857 C 0.88093 0.47488 0.65452 0.0
C2858 C 0.88327 0.50351 0.6652 0.0
C2859 C 0.89253 0.51275 0.69087 0.0
C2860 C 0.89946 0.49338 0.70592 0.0
C2861 C 0.89717 0.46471 0.69533 0.0
H2862 H 0.89429 0.53492 0.69912 0.0
H2863 H 0.8683 0.25713 0.59598 0.0
H2864 H 0.17596 0.69385 0.7447 0.0
H2865 H 0.14393 0.66445 0.71616 0.0
H2866 H 0.19988 0.67935 0.64096 0.0
H2867 H 0.23237 0.70831 0.66942 0.0
H2868 H 0.14143 0.68444 0.63877 0.0
H2869 H 0.19853 0.61855 0.66022 0.0
H2870 H 0.2198 0.59615 0.69181 0.0
H2871 H 0.13814 0.57181 0.73398 0.0
H2872 H 0.11638 0.59443 0.70288 0.0
H2873 H 0.07677 0.57953 0.54167 0.0
H2874 H 0.10667 0.61281 0.56944 0.0
H2875 H 0.06973 0.57712 0.64325 0.0
H2876 H 0.0415 0.54269 0.61493 0.0
H2877 H 0.11937 0.58388 0.64623 0.0
H2878 H 0.06088 0.64905 0.62775 0.0
H2879 H 0.03734 0.67299 0.59916 0.0
H2880 H 0.11707 0.70076 0.55549 0.0
H2881 H 0.14109 0.67665 0.58357 0.0
C2882 C 0.18159 0.69084 0.72209 0.0
C2883 C 0.20705 0.70346 0.70953 0.0
C2884 C 0.16315 0.67394 0.70571 0.0
C2885 C 0.16926 0.66944 0.67619 0.0
C2886 C 0.19445 0.68237 0.66358 0.0
C2887 C 0.21318 0.69885 0.67997 0.0
C2888 C 0.14967 0.65092 0.65866 0.0
C2889 C 0.13684 0.66236 0.64016 0.0
C2890 C 0.14279 0.62222 0.66085 0.0
C2891 C 0.15584 0.60843 0.6794 0.0
C2892 C 0.18511 0.60862 0.67638 0.0
C2893 C 0.19726 0.59585 0.69417 0.0
C2894 C 0.18034 0.58263 0.71494 0.0
C2895 C 0.15123 0.58209 0.71791 0.0
C2896 C 0.13897 0.59486 0.70019 0.0
C2897 C 0.07446 0.57936 0.564 0.0
C2898 C 0.0562 0.55873 0.57611 0.0
C2899 C 0.09171 0.59851 0.58006 0.0
C2900 C 0.0907 0.5982 0.60899 0.0
C2901 C 0.07148 0.57817 0.62116 0.0
C2902 C 0.05488 0.5586 0.60497 0.0
C2903 C 0.1105 0.61729 0.62625 0.0
C2904 C 0.1236 0.60596 0.64474 0.0
C2905 C 0.11713 0.64625 0.62444 0.0
C2906 C 0.10277 0.66081 0.60758 0.0
C2907 C 0.07338 0.66011 0.61192 0.0
C2908 C 0.05996 0.67373 0.59582 0.0
C2909 C 0.0757 0.68833 0.57548 0.0
C2910 C 0.10491 0.68942 0.57125 0.0
C2911 C 0.11844 0.67579 0.58725 0.0
H2912 H 0.06527 0.69884 0.56302 0.0
H2913 H 0.18978 0.57276 0.7287 0.0
loop_
_geom_bond_atom_site_label_1
_geom_bond_atom_site_label_2
_geom_bond_distance
_geom_bond_site_symmetry_2
_ccdc_geom_bond_type
Zn0 O1 2.055 . S
Zn0 O8 2.046 . S
Zn0 N16 2.036 . S
Zn0 O28 2.053 . S
Zn0 O30 2.066 . S
O1 Zn0 2.055 . S
O1 C4 1.259 . S
C2 O30 1.256 . S
C2 O31 1.244 . S
Zn3 O5 2.046 . S
Zn3 O7 2.055 . S
Zn3 N9 2.036 . S
Zn3 O27 2.066 . S
Zn3 O31 2.053 . S
C4 O1 1.259 . S
C4 O5 1.254 . S
O5 Zn3 2.046 . S
O5 C4 1.254 . S
C6 O27 1.256 . S
C6 O28 1.244 . S
O7 Zn3 2.055 . S
O7 C29 1.259 . S
O8 Zn0 2.046 . S
O8 C29 1.254 . S
N9 Zn3 2.036 . S
N9 C10 1.298 . S
N9 N12 1.398 . S
C10 N9 1.298 . S
C10 N13 1.367 . S
C10 C23 1.481 . S
C11 N12 1.299 . S
C11 N13 1.379 . S
N12 N9 1.398 . S
N12 C11 1.299 . S
N13 C10 1.367 . S
N13 C11 1.379 . S
C14 N16 1.298 . S
C14 N18 1.367 . S
C14 C22 1.481 . S
C15 N17 1.299 . S
C15 N18 1.379 . S
N16 Zn0 2.036 . S
N16 C14 1.298 . S
N16 N17 1.398 . S
N17 C15 1.299 . S
N17 N16 1.398 . S
N18 C14 1.367 . S
N18 C15 1.379 . S
H19 C22 0.980 . S
H20 C22 0.981 . S
H21 C22 0.981 . S
C22 C14 1.481 . S
C22 H19 0.980 . S
C22 H20 0.981 . S
C22 H21 0.981 . S
C23 C10 1.481 . S
C23 H24 0.980 . S
C23 H25 0.981 . S
C23 H26 0.981 . S
H24 C23 0.980 . S
H25 C23 0.981 . S
H26 C23 0.981 . S
O27 Zn3 2.066 . S
O27 C6 1.256 . S
O28 Zn0 2.053 . S
O28 C6 1.244 . S
C29 O7 1.259 . S
C29 O8 1.254 . S
O30 Zn0 2.066 . S
O30 C2 1.256 . S
O31 C2 1.244 . S
O31 Zn3 2.053 . S
Zn32 O33 2.055 . S
Zn32 O40 2.046 . S
Zn32 N48 2.036 . S
Zn32 O60 2.053 . S
Zn32 O62 2.066 . S
O33 Zn32 2.055 . S
O33 C36 1.259 . S
C34 O62 1.256 . S
C34 O63 1.244 . S
Zn35 O37 2.046 . S
Zn35 O39 2.055 . S
Zn35 N41 2.036 . S
Zn35 O59 2.066 . S
Zn35 O63 2.053 . S
C36 O33 1.259 . S
C36 O37 1.254 . S
O37 Zn35 2.046 . S
O37 C36 1.254 . S
C38 O59 1.256 . S
C38 O60 1.244 . S
O39 Zn35 2.055 . S
O39 C61 1.259 . S
O40 Zn32 2.046 . S
O40 C61 1.254 . S
N41 Zn35 2.036 . S
N41 C42 1.298 . S
N41 N44 1.398 . S
C42 N41 1.298 . S
C42 N45 1.367 . S
C42 C55 1.481 . S
C43 N44 1.299 . S
C43 N45 1.379 . S
N44 N41 1.398 . S
N44 C43 1.299 . S
N45 C42 1.367 . S
N45 C43 1.379 . S
C46 N48 1.298 . S
C46 N50 1.367 . S
C46 C54 1.481 . S
C47 N49 1.299 . S
C47 N50 1.379 . S
N48 Zn32 2.036 . S
N48 C46 1.298 . S
N48 N49 1.398 . S
N49 C47 1.299 . S
N49 N48 1.398 . S
N50 C46 1.367 . S
N50 C47 1.379 . S
H51 C54 0.980 . S
H52 C54 0.981 . S
H53 C54 0.981 . S
C54 C46 1.481 . S
C54 H51 0.980 . S
C54 H52 0.981 . S
C54 H53 0.981 . S
C55 C42 1.481 . S
C55 H56 0.980 . S
C55 H57 0.981 . S
C55 H58 0.981 . S
H56 C55 0.980 . S
H57 C55 0.981 . S
H58 C55 0.981 . S
O59 Zn35 2.066 . S
O59 C38 1.256 . S
O60 Zn32 2.053 . S
O60 C38 1.244 . S
C61 O39 1.259 . S
C61 O40 1.254 . S
O62 Zn32 2.066 . S
O62 C34 1.256 . S
O63 C34 1.244 . S
O63 Zn35 2.053 . S
Zn64 O65 2.055 . S
Zn64 O72 2.046 . S
Zn64 N80 2.036 . S
Zn64 O92 2.053 . S
Zn64 O94 2.066 . S
O65 Zn64 2.055 . S
O65 C68 1.259 . S
C66 O94 1.256 . S
C66 O95 1.244 . S
Zn67 O69 2.046 . S
Zn67 O71 2.055 . S
Zn67 N73 2.036 . S
Zn67 O91 2.066 . S
Zn67 O95 2.053 . S
C68 O65 1.259 . S
C68 O69 1.254 . S
O69 Zn67 2.046 . S
O69 C68 1.254 . S
C70 O91 1.256 . S
C70 O92 1.244 . S
O71 Zn67 2.055 . S
O71 C93 1.259 . S
O72 Zn64 2.046 . S
O72 C93 1.254 . S
N73 Zn67 2.036 . S
N73 C74 1.298 . S
N73 N76 1.398 . S
C74 N73 1.298 . S
C74 N77 1.367 . S
C74 C87 1.481 . S
C75 N76 1.299 . S
C75 N77 1.379 . S
N76 N73 1.398 . S
N76 C75 1.299 . S
N77 C74 1.367 . S
N77 C75 1.379 . S
C78 N80 1.298 . S
C78 N82 1.367 . S
C78 C86 1.481 . S
C79 N81 1.299 . S
C79 N82 1.379 . S
N80 Zn64 2.036 . S
N80 C78 1.298 . S
N80 N81 1.398 . S
N81 C79 1.299 . S
N81 N80 1.398 . S
N82 C78 1.367 . S
N82 C79 1.379 . S
H83 C86 0.980 . S
H84 C86 0.981 . S
H85 C86 0.981 . S
C86 C78 1.481 . S
C86 H83 0.980 . S
C86 H84 0.981 . S
C86 H85 0.981 . S
C87 C74 1.481 . S
C87 H88 0.980 . S
C87 H89 0.981 . S
C87 H90 0.981 . S
H88 C87 0.980 . S
H89 C87 0.981 . S
H90 C87 0.981 . S
O91 Zn67 2.066 . S
O91 C70 1.256 . S
O92 Zn64 2.053 . S
O92 C70 1.244 . S
C93 O71 1.259 . S
C93 O72 1.254 . S
O94 Zn64 2.066 . S
O94 C66 1.256 . S
O95 C66 1.244 . S
O95 Zn67 2.053 . S
Zn96 O97 2.055 . S
Zn96 O104 2.046 . S
Zn96 N112 2.036 . S
Zn96 O124 2.053 . S
Zn96 O126 2.066 . S
O97 Zn96 2.055 . S
O97 C100 1.259 . S
C98 O126 1.256 . S
C98 O127 1.244 . S
Zn99 O101 2.046 . S
Zn99 O103 2.055 . S
Zn99 N105 2.036 . S
Zn99 O123 2.066 . S
Zn99 O127 2.053 . S
C100 O97 1.259 . S
C100 O101 1.254 . S
O101 Zn99 2.046 . S
O101 C100 1.254 . S
C102 O123 1.256 . S
C102 O124 1.244 . S
O103 Zn99 2.055 . S
O103 C125 1.259 . S
O104 Zn96 2.046 . S
O104 C125 1.254 . S
N105 Zn99 2.036 . S
N105 C106 1.298 . S
N105 N108 1.398 . S
C106 N105 1.298 . S
C106 N109 1.367 . S
C106 C119 1.481 . S
C107 N108 1.299 . S
C107 N109 1.379 . S
N108 N105 1.398 . S
N108 C107 1.299 . S
N109 C106 1.367 . S
N109 C107 1.379 . S
C110 N112 1.298 . S
C110 N114 1.367 . S
C110 C118 1.481 . S
C111 N113 1.299 . S
C111 N114 1.379 . S
N112 Zn96 2.036 . S
N112 C110 1.298 . S
N112 N113 1.398 . S
N113 C111 1.299 . S
N113 N112 1.398 . S
N114 C110 1.367 . S
N114 C111 1.379 . S
H115 C118 0.980 . S
H116 C118 0.981 . S
H117 C118 0.981 . S
C118 C110 1.481 . S
C118 H115 0.980 . S
C118 H116 0.981 . S
C118 H117 0.981 . S
C119 C106 1.481 . S
C119 H120 0.980 . S
C119 H121 0.981 . S
C119 H122 0.981 . S
H120 C119 0.980 . S
H121 C119 0.981 . S
H122 C119 0.981 . S
O123 Zn99 2.066 . S
O123 C102 1.256 . S
O124 Zn96 2.053 . S
O124 C102 1.244 . S
C125 O103 1.259 . S
C125 O104 1.254 . S
O126 Zn96 2.066 . S
O126 C98 1.256 . S
O127 C98 1.244 . S
O127 Zn99 2.053 . S
Zn128 O129 2.055 . S
Zn128 O136 2.046 . S
Zn128 N144 2.036 . S
Zn128 O156 2.053 . S
Zn128 O158 2.066 . S
O129 Zn128 2.055 . S
O129 C132 1.259 . S
C130 O158 1.256 . S
C130 O159 1.244 . S
Zn131 O133 2.046 . S
Zn131 O135 2.055 . S
Zn131 N137 2.036 . S
Zn131 O155 2.066 . S
Zn131 O159 2.053 . S
C132 O129 1.259 . S
C132 O133 1.254 . S
O133 Zn131 2.046 . S
O133 C132 1.254 . S
C134 O155 1.256 . S
C134 O156 1.244 . S
O135 Zn131 2.055 . S
O135 C157 1.259 . S
O136 Zn128 2.046 . S
O136 C157 1.254 . S
N137 Zn131 2.036 . S
N137 C138 1.298 . S
N137 N140 1.398 . S
C138 N137 1.298 . S
C138 N141 1.367 . S
C138 C151 1.481 . S
C139 N140 1.299 . S
C139 N141 1.379 . S
N140 N137 1.398 . S
N140 C139 1.299 . S
N141 C138 1.367 . S
N141 C139 1.379 . S
C142 N144 1.298 . S
C142 N146 1.367 . S
C142 C150 1.481 . S
C143 N145 1.299 . S
C143 N146 1.379 . S
N144 Zn128 2.036 . S
N144 C142 1.298 . S
N144 N145 1.398 . S
N145 C143 1.299 . S
N145 N144 1.398 . S
N146 C142 1.367 . S
N146 C143 1.379 . S
H147 C150 0.980 . S
H148 C150 0.981 . S
H149 C150 0.981 . S
C150 C142 1.481 . S
C150 H147 0.980 . S
C150 H148 0.981 . S
C150 H149 0.981 . S
C151 C138 1.481 . S
C151 H152 0.980 . S
C151 H153 0.981 . S
C151 H154 0.981 . S
H152 C151 0.980 . S
H153 C151 0.981 . S
H154 C151 0.981 . S
O155 Zn131 2.066 . S
O155 C134 1.256 . S
O156 Zn128 2.053 . S
O156 C134 1.244 . S
C157 O135 1.259 . S
C157 O136 1.254 . S
O158 Zn128 2.066 . S
O158 C130 1.256 . S
O159 C130 1.244 . S
O159 Zn131 2.053 . S
Zn160 O161 2.055 . S
Zn160 O168 2.046 . S
Zn160 N176 2.036 . S
Zn160 O188 2.053 . S
Zn160 O190 2.066 . S
O161 Zn160 2.055 . S
O161 C164 1.259 . S
C162 O190 1.256 . S
C162 O191 1.244 . S
Zn163 O165 2.046 . S
Zn163 O167 2.055 . S
Zn163 N169 2.036 . S
Zn163 O187 2.066 . S
Zn163 O191 2.053 . S
C164 O161 1.259 . S
C164 O165 1.254 . S
O165 Zn163 2.046 . S
O165 C164 1.254 . S
C166 O187 1.256 . S
C166 O188 1.244 . S
O167 Zn163 2.055 . S
O167 C189 1.259 . S
O168 Zn160 2.046 . S
O168 C189 1.254 . S
N169 Zn163 2.036 . S
N169 C170 1.298 . S
N169 N172 1.398 . S
C170 N169 1.298 . S
C170 N173 1.367 . S
C170 C183 1.481 . S
C171 N172 1.299 . S
C171 N173 1.379 . S
N172 N169 1.398 . S
N172 C171 1.299 . S
N173 C170 1.367 . S
N173 C171 1.379 . S
C174 N176 1.298 . S
C174 N178 1.367 . S
C174 C182 1.481 . S
C175 N177 1.299 . S
C175 N178 1.379 . S
N176 Zn160 2.036 . S
N176 C174 1.298 . S
N176 N177 1.398 . S
N177 C175 1.299 . S
N177 N176 1.398 . S
N178 C174 1.367 . S
N178 C175 1.379 . S
H179 C182 0.980 . S
H180 C182 0.981 . S
H181 C182 0.981 . S
C182 C174 1.481 . S
C182 H179 0.980 . S
C182 H180 0.981 . S
C182 H181 0.981 . S
C183 C170 1.481 . S
C183 H184 0.980 . S
C183 H185 0.981 . S
C183 H186 0.981 . S
H184 C183 0.980 . S
H185 C183 0.981 . S
H186 C183 0.981 . S
O187 Zn163 2.066 . S
O187 C166 1.256 . S
O188 Zn160 2.053 . S
O188 C166 1.244 . S
C189 O167 1.259 . S
C189 O168 1.254 . S
O190 Zn160 2.066 . S
O190 C162 1.256 . S
O191 C162 1.244 . S
O191 Zn163 2.053 . S
Zn192 O193 2.055 . S
Zn192 O200 2.046 . S
Zn192 N208 2.036 . S
Zn192 O220 2.053 . S
Zn192 O222 2.066 . S
O193 Zn192 2.055 . S
O193 C196 1.259 . S
C194 O222 1.256 . S
C194 O223 1.244 . S
Zn195 O197 2.046 . S
Zn195 O199 2.055 . S
Zn195 N201 2.036 . S
Zn195 O219 2.066 . S
Zn195 O223 2.053 . S
C196 O193 1.259 . S
C196 O197 1.254 . S
O197 Zn195 2.046 . S
O197 C196 1.254 . S
C198 O219 1.256 . S
C198 O220 1.244 . S
O199 Zn195 2.055 . S
O199 C221 1.259 . S
O200 Zn192 2.046 . S
O200 C221 1.254 . S
N201 Zn195 2.036 . S
N201 C202 1.298 . S
N201 N204 1.398 . S
C202 N201 1.298 . S
C202 N205 1.367 . S
C202 C215 1.481 . S
C203 N204 1.299 . S
C203 N205 1.379 . S
N204 N201 1.398 . S
N204 C203 1.299 . S
N205 C202 1.367 . S
N205 C203 1.379 . S
C206 N208 1.298 . S
C206 N210 1.367 . S
C206 C214 1.481 . S
C207 N209 1.299 . S
C207 N210 1.379 . S
N208 Zn192 2.036 . S
N208 C206 1.298 . S
N208 N209 1.398 . S
N209 C207 1.299 . S
N209 N208 1.398 . S
N210 C206 1.367 . S
N210 C207 1.379 . S
H211 C214 0.980 . S
H212 C214 0.981 . S
H213 C214 0.981 . S
C214 C206 1.481 . S
C214 H211 0.980 . S
C214 H212 0.981 . S
C214 H213 0.981 . S
C215 C202 1.481 . S
C215 H216 0.980 . S
C215 H217 0.981 . S
C215 H218 0.981 . S
H216 C215 0.980 . S
H217 C215 0.981 . S
H218 C215 0.981 . S
O219 Zn195 2.066 . S
O219 C198 1.256 . S
O220 Zn192 2.053 . S
O220 C198 1.244 . S
C221 O199 1.259 . S
C221 O200 1.254 . S
O222 Zn192 2.066 . S
O222 C194 1.256 . S
O223 C194 1.244 . S
O223 Zn195 2.053 . S
Zn224 O225 2.055 . S
Zn224 O232 2.046 . S
Zn224 N240 2.036 . S
Zn224 O252 2.053 . S
Zn224 O254 2.066 . S
O225 Zn224 2.055 . S
O225 C228 1.259 . S
C226 O254 1.256 . S
C226 O255 1.244 . S
Zn227 O229 2.046 . S
Zn227 O231 2.055 . S
Zn227 N233 2.036 . S
Zn227 O251 2.066 . S
Zn227 O255 2.053 . S
C228 O225 1.259 . S
C228 O229 1.254 . S
O229 Zn227 2.046 . S
O229 C228 1.254 . S
C230 O251 1.256 . S
C230 O252 1.244 . S
O231 Zn227 2.055 . S
O231 C253 1.259 . S
O232 Zn224 2.046 . S
O232 C253 1.254 . S
N233 Zn227 2.036 . S
N233 C234 1.298 . S
N233 N236 1.398 . S
C234 N233 1.298 . S
C234 N237 1.367 . S
C234 C247 1.481 . S
C235 N236 1.299 . S
C235 N237 1.379 . S
N236 N233 1.398 . S
N236 C235 1.299 . S
N237 C234 1.367 . S
N237 C235 1.379 . S
C238 N240 1.298 . S
C238 N242 1.367 . S
C238 C246 1.481 . S
C239 N241 1.299 . S
C239 N242 1.379 . S
N240 Zn224 2.036 . S
N240 C238 1.298 . S
N240 N241 1.398 . S
N241 C239 1.299 . S
N241 N240 1.398 . S
N242 C238 1.367 . S
N242 C239 1.379 . S
H243 C246 0.980 . S
H244 C246 0.981 . S
H245 C246 0.981 . S
C246 C238 1.481 . S
C246 H243 0.980 . S
C246 H244 0.981 . S
C246 H245 0.981 . S
C247 C234 1.481 . S
C247 H248 0.980 . S
C247 H249 0.981 . S
C247 H250 0.981 . S
H248 C247 0.980 . S
H249 C247 0.981 . S
H250 C247 0.981 . S
O251 Zn227 2.066 . S
O251 C230 1.256 . S
O252 Zn224 2.053 . S
O252 C230 1.244 . S
C253 O231 1.259 . S
C253 O232 1.254 . S
O254 Zn224 2.066 . S
O254 C226 1.256 . S
O255 C226 1.244 . S
O255 Zn227 2.053 . S
Co256 N257 2.034 . S
Co256 O271 2.262 . S
Co256 O275 1.935 1_455 S
Co256 O279 1.950 1_565 S
Co256 O280 2.057 . S
N257 Co256 2.034 . S
N257 C258 1.366 . S
N257 C260 1.332 . S
C258 N257 1.366 . S
C258 C261 1.377 . S
C258 H290 0.931 . S
N259 C260 1.346 . S
N259 C261 1.337 . S
C260 N257 1.332 . S
C260 N259 1.346 . S
C260 C294 1.361 . S
C261 C258 1.377 . S
C261 N259 1.337 . S
C261 H297 0.930 . S
Co262 N263 2.034 . S
Co262 O276 1.950 1_655 S
Co262 O277 2.262 . S
Co262 O278 1.958 1_545 S
Co262 O282 2.057 . S
N263 Co262 2.034 . S
N263 C266 1.366 . S
N263 C267 1.332 . S
N264 C265 1.337 . S
N264 C267 1.346 . S
C265 N264 1.337 . S
C265 C266 1.377 . S
C265 H298 0.930 . S
C266 N263 1.366 . S
C266 C265 1.377 . S
C266 H270 0.931 . S
C267 N263 1.332 . S
C267 N264 1.346 . S
C267 C284 1.361 . S
Co268 O271 2.091 1_545 S
Co268 O272 2.070 . S
Co268 O273 2.069 . S
Co268 O274 2.037 1_445 S
Co268 O277 2.103 1_455 S
Co268 O281 2.039 1_445 S
C269 O277 1.253 . S
C269 O282 1.263 . S
H270 C266 0.931 . S
O271 Co256 2.262 . S
O271 Co268 2.091 1_565 S
O271 C295 1.253 . S
O272 Co268 2.070 . S
O272 C288 1.221 . S
O273 Co268 2.069 . S
O273 C283 1.221 . S
O274 Co268 2.037 1_665 S
O274 C289 1.237 . S
O275 Co256 1.935 1_655 S
O275 C289 1.301 . S
O276 Co262 1.950 1_455 S
O276 C288 1.277 . S
O277 Co262 2.262 . S
O277 Co268 2.103 1_655 S
O277 C269 1.253 . S
O278 Co262 1.958 1_565 S
O278 C296 1.278 . S
O279 Co256 1.950 1_545 S
O279 C283 1.277 . S
O280 Co256 2.057 . S
O280 C295 1.263 . S
O281 Co268 2.039 1_665 S
O281 C296 1.237 . S
O282 Co262 2.057 . S
O282 C269 1.263 . S
C283 O273 1.221 . S
C283 O279 1.277 . S
C284 C267 1.361 . S
C284 H285 0.960 . S
C284 H286 0.961 . S
C284 H287 0.961 . S
H285 C284 0.960 . S
H286 C284 0.961 . S
H287 C284 0.961 . S
C288 O272 1.221 . S
C288 O276 1.277 . S
C289 O274 1.237 . S
C289 O275 1.301 . S
H290 C258 0.931 . S
H291 C294 0.961 . S
H292 C294 0.961 . S
H293 C294 0.960 . S
C294 C260 1.361 . S
C294 H291 0.961 . S
C294 H292 0.961 . S
C294 H293 0.960 . S
C295 O271 1.253 . S
C295 O280 1.263 . S
C296 O278 1.278 . S
C296 O281 1.237 . S
H297 C261 0.930 . S
H298 C265 0.930 . S
Co299 N300 2.034 . S
Co299 O314 2.262 1_554 S
Co299 O318 1.958 . S
Co299 O322 1.940 1_565 S
Co299 O323 2.064 . S
N300 Co299 2.034 . S
N300 C301 1.366 . S
N300 C303 1.332 . S
C301 N300 1.366 . S
C301 C304 1.377 . S
C301 H333 0.931 . S
N302 C303 1.346 . S
N302 C304 1.337 . S
C303 N300 1.332 . S
C303 N302 1.346 . S
C303 C337 1.361 . S
C304 C301 1.377 . S
C304 N302 1.337 . S
C304 H340 0.930 . S
Co305 N306 2.034 . S
Co305 O319 1.950 . S
Co305 O320 2.262 1_556 S
Co305 O321 1.958 1_545 S
Co305 O325 2.057 1_556 S
N306 Co305 2.034 . S
N306 C309 1.366 . S
N306 C310 1.332 . S
N307 C308 1.337 . S
N307 C310 1.346 . S
C308 N307 1.337 . S
C308 C309 1.377 . S
C308 H341 0.930 . S
C309 N306 1.366 . S
C309 C308 1.377 . S
C309 H313 0.931 . S
C310 N306 1.332 . S
C310 N307 1.346 . S
C310 C327 1.361 . S
Co311 O314 2.112 1_554 S
Co311 O315 2.054 1_564 S
Co311 O316 2.058 1_565 S
Co311 O317 2.053 . S
Co311 O320 2.082 1_565 S
Co311 O324 2.049 1_554 S
C312 O320 1.253 . S
C312 O325 1.263 . S
H313 C309 0.931 . S
O314 Co299 2.262 1_556 S
O314 Co311 2.112 1_556 S
O314 C338 1.253 . S
O315 Co311 2.054 1_546 S
O315 C331 1.221 . S
O316 Co311 2.058 1_545 S
O316 C326 1.221 . S
O317 Co311 2.053 . S
O317 C332 1.237 . S
O318 Co299 1.958 . S
O318 C332 1.278 . S
O319 Co305 1.950 . S
O319 C331 1.277 . S
O320 Co305 2.262 1_554 S
O320 Co311 2.082 1_545 S
O320 C312 1.253 . S
O321 Co305 1.958 1_565 S
O321 C339 1.278 . S
O322 Co299 1.940 1_545 S
O322 C326 1.288 . S
O323 Co299 2.064 . S
O323 C338 1.256 1_554 S
O324 Co311 2.049 1_556 S
O324 C339 1.237 . S
O325 Co305 2.057 1_554 S
O325 C312 1.263 . S
C326 O316 1.221 . S
C326 O322 1.288 . S
C327 C310 1.361 . S
C327 H328 0.960 . S
C327 H329 0.961 . S
C327 H330 0.961 . S
H328 C327 0.960 . S
H329 C327 0.961 . S
H330 C327 0.961 . S
C331 O315 1.221 . S
C331 O319 1.277 . S
C332 O317 1.237 . S
C332 O318 1.278 . S
H333 C301 0.931 . S
H334 C337 0.961 . S
H335 C337 0.961 . S
H336 C337 0.960 . S
C337 C303 1.361 . S
C337 H334 0.961 . S
C337 H335 0.961 . S
C337 H336 0.960 . S
C338 O314 1.253 . S
C338 O323 1.256 1_556 S
C339 O321 1.278 . S
C339 O324 1.237 . S
H340 C304 0.930 . S
H341 C308 0.930 . S
Co342 N343 2.034 . S
Co342 O357 2.262 1_554 S
Co342 O361 1.958 1_455 S
Co342 O365 1.950 . S
Co342 O366 2.057 . S
N343 Co342 2.034 . S
N343 C344 1.366 . S
N343 C346 1.332 . S
C344 N343 1.366 . S
C344 C347 1.377 . S
C344 H376 0.931 . S
N345 C346 1.346 . S
N345 C347 1.337 . S
C346 N343 1.332 . S
C346 N345 1.346 . S
C346 C380 1.361 . S
C347 C344 1.377 . S
C347 N345 1.337 . S
C347 H383 0.930 . S
Co348 N349 2.034 . S
Co348 O362 1.954 1_655 S
Co348 O363 2.262 1_556 S
Co348 O364 1.958 . S
Co348 O368 2.057 1_556 S
N349 Co348 2.034 . S
N349 C352 1.366 . S
N349 C353 1.332 . S
N350 C351 1.337 . S
N350 C353 1.346 . S
C351 N350 1.337 . S
C351 C352 1.377 . S
C351 H384 0.930 . S
C352 N349 1.366 . S
C352 C351 1.377 . S
C352 H356 0.931 . S
C353 N349 1.332 . S
C353 N350 1.346 . S
C353 C370 1.361 . S
Co354 O357 2.070 1_654 S
Co354 O358 2.052 1_654 S
Co354 O359 2.044 1_655 S
Co354 O360 2.055 . S
Co354 O363 2.124 . S
Co354 O367 2.063 1_554 S
C355 O363 1.253 . S
C355 O368 1.263 . S
H356 C352 0.931 . S
O357 Co342 2.262 1_556 S
O357 Co354 2.070 1_456 S
O357 C381 1.253 . S
O358 Co354 2.052 1_456 S
O358 C374 1.221 . S
O359 Co354 2.044 1_455 S
O359 C369 1.221 . S
O360 Co354 2.055 . S
O360 C375 1.237 . S
O361 Co342 1.958 1_655 S
O361 C375 1.278 . S
O362 Co348 1.954 1_455 S
O362 C374 1.273 . S
O363 Co348 2.262 1_554 S
O363 Co354 2.124 . S
O363 C355 1.253 . S
O364 Co348 1.958 . S
O364 C382 1.278 . S
O365 Co342 1.950 . S
O365 C369 1.277 . S
O366 Co342 2.057 . S
O366 C381 1.263 1_554 S
O367 Co354 2.063 1_556 S
O367 C382 1.237 . S
O368 Co348 2.057 1_554 S
O368 C355 1.263 . S
C369 O359 1.221 . S
C369 O365 1.277 . S
C370 C353 1.361 . S
C370 H371 0.960 . S
C370 H372 0.961 . S
C370 H373 0.961 . S
H371 C370 0.960 . S
H372 C370 0.961 . S
H373 C370 0.961 . S
C374 O358 1.221 . S
C374 O362 1.273 . S
C375 O360 1.237 . S
C375 O361 1.278 . S
H376 C344 0.931 . S
H377 C380 0.961 . S
H378 C380 0.961 . S
H379 C380 0.960 . S
C380 C346 1.361 . S
C380 H377 0.961 . S
C380 H378 0.961 . S
C380 H379 0.960 . S
C381 O357 1.253 . S
C381 O366 1.263 1_556 S
C382 O364 1.278 . S
C382 O367 1.237 . S
H383 C347 0.930 . S
H384 C351 0.930 . S
Co385 N386 2.034 . S
Co385 O400 2.262 1_554 S
Co385 O404 1.958 . S
Co385 O408 1.950 . S
Co385 O409 2.057 1_554 S
N386 Co385 2.034 . S
N386 C387 1.366 . S
N386 C389 1.332 . S
C387 N386 1.366 . S
C387 C390 1.377 . S
C387 H419 0.931 . S
N388 C389 1.346 . S
N388 C390 1.337 . S
C389 N386 1.332 . S
C389 N388 1.346 . S
C389 C423 1.361 . S
C390 C387 1.377 . S
C390 N388 1.337 . S
C390 H426 0.930 . S
Co391 N392 2.034 . S
Co391 O405 1.950 . S
Co391 O406 2.262 1_556 S
Co391 O407 1.958 . S
Co391 O411 2.057 1_556 S
N392 Co391 2.034 . S
N392 C395 1.366 . S
N392 C396 1.332 . S
N393 C394 1.337 . S
N393 C396 1.346 . S
C394 N393 1.337 . S
C394 C395 1.377 . S
C394 H427 0.930 . S
C395 N392 1.366 . S
C395 C394 1.377 . S
C395 H399 0.931 . S
C396 N392 1.332 . S
C396 N393 1.346 . S
C396 C413 1.361 . S
Co397 O400 2.097 1_554 S
Co397 O401 2.065 1_554 S
Co397 O402 2.065 . S
Co397 O403 2.042 . S
Co397 O406 2.097 . S
Co397 O410 2.042 1_554 S
C398 O406 1.253 . S
C398 O411 1.263 . S
H399 C395 0.931 . S
O400 Co385 2.262 1_556 S
O400 Co397 2.097 1_556 S
O400 C424 1.253 . S
O401 Co397 2.065 1_556 S
O401 C417 1.221 . S
O402 Co397 2.065 . S
O402 C412 1.221 . S
O403 Co397 2.042 . S
O403 C418 1.237 . S
O404 Co385 1.958 . S
O404 C418 1.278 . S
O405 Co391 1.950 . S
O405 C417 1.277 . S
O406 Co391 2.262 1_554 S
O406 Co397 2.097 . S
O406 C398 1.253 . S
O407 Co391 1.958 . S
O407 C425 1.278 . S
O408 Co385 1.950 . S
O408 C412 1.277 . S
O409 Co385 2.057 1_556 S
O409 C424 1.263 . S
O410 Co397 2.042 1_556 S
O410 C425 1.237 . S
O411 Co391 2.057 1_554 S
O411 C398 1.263 . S
C412 O402 1.221 . S
C412 O408 1.277 . S
C413 C396 1.361 . S
C413 H414 0.960 . S
C413 H415 0.961 . S
C413 H416 0.961 . S
H414 C413 0.960 . S
H415 C413 0.961 . S
H416 C413 0.961 . S
C417 O401 1.221 . S
C417 O405 1.277 . S
C418 O403 1.237 . S
C418 O404 1.278 . S
H419 C387 0.931 . S
H420 C423 0.961 . S
H421 C423 0.961 . S
H422 C423 0.960 . S
C423 C389 1.361 . S
C423 H420 0.961 . S
C423 H421 0.961 . S
C423 H422 0.960 . S
C424 O400 1.253 . S
C424 O409 1.263 . S
C425 O407 1.278 . S
C425 O410 1.237 . S
H426 C390 0.930 . S
H427 C394 0.930 . S
Co428 N429 2.034 . S
Co428 O443 2.262 . S
Co428 O447 1.958 1_455 S
Co428 O451 1.950 . S
Co428 O452 2.057 . S
N429 Co428 2.034 . S
N429 C430 1.366 . S
N429 C432 1.332 . S
C430 N429 1.366 . S
C430 C433 1.377 . S
C430 H462 0.931 . S
N431 C432 1.346 . S
N431 C433 1.337 . S
C432 N429 1.332 . S
C432 N431 1.346 . S
C432 C466 1.361 . S
C433 C430 1.377 . S
C433 N431 1.337 . S
C433 H469 0.930 . S
Co434 N435 2.034 . S
Co434 O448 1.941 1_655 S
Co434 O449 2.262 . S
Co434 O450 1.958 . S
Co434 O454 2.057 . S
N435 Co434 2.034 . S
N435 C438 1.366 . S
N435 C439 1.332 . S
N436 C437 1.337 . S
N436 C439 1.346 . S
C437 N436 1.337 . S
C437 C438 1.377 . S
C437 H470 0.930 . S
C438 N435 1.366 . S
C438 C437 1.377 . S
C438 H442 0.931 . S
C439 N435 1.332 . S
C439 N436 1.346 . S
C439 C456 1.361 . S
Co440 O443 2.081 1_655 S
Co440 O444 2.057 1_655 S
Co440 O445 2.053 1_655 S
Co440 O446 2.050 . S
Co440 O449 2.113 . S
Co440 O453 2.054 . S
C441 O449 1.253 . S
C441 O454 1.263 . S
H442 C438 0.931 . S
O443 Co428 2.262 . S
O443 Co440 2.081 1_455 S
O443 C467 1.253 . S
O444 Co440 2.057 1_455 S
O444 C460 1.221 . S
O445 Co440 2.053 1_455 S
O445 C455 1.221 . S
O446 Co440 2.050 . S
O446 C461 1.237 . S
O447 Co428 1.958 1_655 S
O447 C461 1.278 . S
O448 Co434 1.941 1_455 S
O448 C460 1.287 . S
O449 Co434 2.262 . S
O449 Co440 2.113 . S
O449 C441 1.253 . S
O450 Co434 1.958 . S
O450 C468 1.278 . S
O451 Co428 1.950 . S
O451 C455 1.277 . S
O452 Co428 2.057 . S
O452 C467 1.263 . S
O453 Co440 2.054 . S
O453 C468 1.237 . S
O454 Co434 2.057 . S
O454 C441 1.263 . S
C455 O445 1.221 . S
C455 O451 1.277 . S
C456 C439 1.361 . S
C456 H457 0.960 . S
C456 H458 0.961 . S
C456 H459 0.961 . S
H457 C456 0.960 . S
H458 C456 0.961 . S
H459 C456 0.961 . S
C460 O444 1.221 . S
C460 O448 1.287 . S
C461 O446 1.237 . S
C461 O447 1.278 . S
H462 C430 0.931 . S
H463 C466 0.961 . S
H464 C466 0.961 . S
H465 C466 0.960 . S
C466 C432 1.361 . S
C466 H463 0.961 . S
C466 H464 0.961 . S
C466 H465 0.960 . S
C467 O443 1.253 . S
C467 O452 1.263 . S
C468 O450 1.278 . S
C468 O453 1.237 . S
H469 C433 0.930 . S
H470 C437 0.930 . S
Co471 N472 2.034 . S
Co471 O486 2.262 . S
Co471 O490 1.958 . S
Co471 O494 1.950 1_565 S
Co471 O495 2.057 . S
N472 Co471 2.034 . S
N472 C473 1.366 . S
N472 C475 1.332 . S
C473 N472 1.366 . S
C473 C476 1.377 . S
C473 H505 0.931 . S
N474 C475 1.346 . S
N474 C476 1.337 . S
C475 N472 1.332 . S
C475 N474 1.346 . S
C475 C509 1.361 . S
C476 C473 1.377 . S
C476 N474 1.337 . S
C476 H512 0.930 . S
Co477 N478 2.034 . S
Co477 O491 1.950 . S
Co477 O492 2.262 . S
Co477 O493 1.958 1_545 S
Co477 O497 2.057 . S
N478 Co477 2.034 . S
N478 C481 1.366 . S
N478 C482 1.332 . S
N479 C480 1.337 . S
N479 C482 1.346 . S
C480 N479 1.337 . S
C480 C481 1.377 . S
C480 H513 0.930 . S
C481 N478 1.366 . S
C481 C480 1.377 . S
C481 H485 0.931 . S
C482 N478 1.332 . S
C482 N479 1.346 . S
C482 C499 1.361 . S
Co483 O486 2.081 1_545 S
Co483 O487 2.078 . S
Co483 O488 2.074 . S
Co483 O489 2.030 1_545 S
Co483 O492 2.112 . S
Co483 O496 2.034 1_545 S
C484 O492 1.253 . S
C484 O497 1.263 . S
H485 C481 0.931 . S
O486 Co471 2.262 . S
O486 Co483 2.081 1_565 S
O486 C510 1.253 . S
O487 Co483 2.078 . S
O487 C503 1.221 . S
O488 Co483 2.074 . S
O488 C498 1.221 . S
O489 Co483 2.030 1_565 S
O489 C504 1.237 . S
O490 Co471 1.958 . S
O490 C504 1.278 . S
O491 Co477 1.950 . S
O491 C503 1.277 . S
O492 Co477 2.262 . S
O492 Co483 2.112 . S
O492 C484 1.253 . S
O493 Co477 1.958 1_565 S
O493 C511 1.278 . S
O494 Co471 1.950 1_545 S
O494 C498 1.277 . S
O495 Co471 2.057 . S
O495 C510 1.263 . S
O496 Co483 2.034 1_565 S
O496 C511 1.237 . S
O497 Co477 2.057 . S
O497 C484 1.263 . S
C498 O488 1.221 . S
C498 O494 1.277 . S
C499 C482 1.361 . S
C499 H500 0.960 . S
C499 H501 0.961 . S
C499 H502 0.961 . S
H500 C499 0.960 . S
H501 C499 0.961 . S
H502 C499 0.961 . S
C503 O487 1.221 . S
C503 O491 1.277 . S
C504 O489 1.237 . S
C504 O490 1.278 . S
H505 C473 0.931 . S
H506 C509 0.961 . S
H507 C509 0.961 . S
H508 C509 0.960 . S
C509 C475 1.361 . S
C509 H506 0.961 . S
C509 H507 0.961 . S
C509 H508 0.960 . S
C510 O486 1.253 . S
C510 O495 1.263 . S
C511 O493 1.278 . S
C511 O496 1.237 . S
H512 C476 0.930 . S
H513 C480 0.930 . S
H514 C532 0.951 . S
H515 C534 0.951 . S
H516 C536 0.950 . S
H517 C537 0.950 . S
H518 C539 0.950 . S
H519 C542 0.950 . S
H520 C543 0.950 . S
H521 C545 0.950 . S
H522 C546 0.950 . S
H523 C547 0.951 . S
H524 C549 0.951 . S
H525 C551 0.950 . S
H526 C552 0.950 . S
H527 C554 0.950 . S
H528 C557 0.950 . S
H529 C558 0.950 . S
H530 C560 0.950 . S
H531 C561 0.950 . S
C532 H514 0.951 . S
C532 C533 1.366 . S
C532 C534 1.388 . S
C533 C532 1.366 . S
C533 C537 1.385 . S
C534 H515 0.951 . S
C534 C532 1.388 . S
C534 C535 1.366 . S
C535 C534 1.366 . S
C535 C536 1.414 . S
C535 C538 1.499 . S
C536 H516 0.950 . S
C536 C535 1.414 . S
C536 C537 1.374 . S
C537 H517 0.950 . S
C537 C533 1.385 . S
C537 C536 1.374 . S
C538 C535 1.499 . S
C538 C539 1.373 . S
C538 C540 1.389 . S
C539 H518 0.950 . S
C539 C538 1.373 . S
C539 C555 1.377 . S
C540 C538 1.389 . S
C540 C541 1.524 . S
C540 C554 1.377 . S
C541 C540 1.524 . S
C541 C542 1.397 . S
C541 C546 1.363 . S
C542 H519 0.950 . S
C542 C541 1.397 . S
C542 C543 1.334 . S
C543 H520 0.950 . S
C543 C542 1.334 . S
C543 C544 1.287 . S
C544 C543 1.287 . S
C544 C545 1.524 . S
C544 H563 0.913 . S
C545 H521 0.950 . S
C545 C544 1.524 . S
C545 C546 1.415 . S
C546 H522 0.950 . S
C546 C541 1.363 . S
C546 C545 1.415 . S
C547 H523 0.951 . S
C547 C548 1.366 . S
C547 C549 1.388 . S
C548 C547 1.366 . S
C548 C552 1.385 . S
C549 H524 0.951 . S
C549 C547 1.388 . S
C549 C550 1.366 . S
C550 C549 1.366 . S
C550 C551 1.414 . S
C550 C553 1.499 . S
C551 H525 0.950 . S
C551 C550 1.414 . S
C551 C552 1.374 . S
C552 H526 0.950 . S
C552 C548 1.385 . S
C552 C551 1.374 . S
C553 C550 1.499 . S
C553 C554 1.373 . S
C553 C555 1.389 . S
C554 H527 0.950 . S
C554 C540 1.377 . S
C554 C553 1.373 . S
C555 C539 1.377 . S
C555 C553 1.389 . S
C555 C556 1.524 . S
C556 C555 1.524 . S
C556 C557 1.397 . S
C556 C561 1.363 . S
C557 H528 0.950 . S
C557 C556 1.397 . S
C557 C558 1.334 1_455 S
C558 H529 0.950 . S
C558 C557 1.334 1_655 S
C558 C559 1.287 . S
C559 C558 1.287 . S
C559 C560 1.524 1_655 S
C559 H562 0.999 . S
C560 H530 0.950 . S
C560 C559 1.524 1_455 S
C560 C561 1.415 . S
C561 H531 0.950 . S
C561 C556 1.363 . S
C561 C560 1.415 . S
H562 C559 0.999 . S
H563 C544 0.913 . S
H564 C582 0.951 . S
H565 C584 0.951 . S
H566 C586 0.950 . S
H567 C587 0.950 . S
H568 C589 0.950 . S
H569 C592 0.950 . S
H570 C593 0.950 . S
H571 C595 0.950 . S
H572 C596 0.950 . S
H573 C597 0.951 . S
H574 C599 0.951 . S
H575 C601 0.950 . S
H576 C602 0.950 . S
H577 C604 0.950 . S
H578 C607 0.950 . S
H579 C608 0.950 . S
H580 C610 0.950 . S
H581 C611 0.950 . S
C582 H564 0.951 . S
C582 C583 1.366 . S
C582 C584 1.388 . S
C583 C582 1.366 . S
C583 C587 1.385 . S
C584 H565 0.951 . S
C584 C582 1.388 . S
C584 C585 1.366 . S
C585 C584 1.366 . S
C585 C586 1.414 . S
C585 C588 1.499 . S
C586 H566 0.950 . S
C586 C585 1.414 . S
C586 C587 1.374 . S
C587 H567 0.950 . S
C587 C583 1.385 . S
C587 C586 1.374 . S
C588 C585 1.499 . S
C588 C589 1.373 . S
C588 C590 1.389 . S
C589 H568 0.950 . S
C589 C588 1.373 . S
C589 C605 1.377 . S
C590 C588 1.389 . S
C590 C591 1.524 . S
C590 C604 1.377 . S
C591 C590 1.524 . S
C591 C592 1.397 . S
C591 C596 1.363 . S
C592 H569 0.950 . S
C592 C591 1.397 . S
C592 C593 1.334 . S
C593 H570 0.950 . S
C593 C592 1.334 . S
C593 C594 1.287 . S
C594 C593 1.287 . S
C594 C595 1.524 . S
C594 H613 0.913 . S
C595 H571 0.950 . S
C595 C594 1.524 . S
C595 C596 1.415 . S
C596 H572 0.950 . S
C596 C591 1.363 . S
C596 C595 1.415 . S
C597 H573 0.951 . S
C597 C598 1.366 . S
C597 C599 1.388 . S
C598 C597 1.366 . S
C598 C602 1.385 . S
C599 H574 0.951 . S
C599 C597 1.388 . S
C599 C600 1.366 . S
C600 C599 1.366 . S
C600 C601 1.414 . S
C600 C603 1.499 . S
C601 H575 0.950 . S
C601 C600 1.414 . S
C601 C602 1.374 . S
C602 H576 0.950 . S
C602 C598 1.385 . S
C602 C601 1.374 . S
C603 C600 1.499 . S
C603 C604 1.373 . S
C603 C605 1.389 . S
C604 H577 0.950 . S
C604 C590 1.377 . S
C604 C603 1.373 . S
C605 C589 1.377 . S
C605 C603 1.389 . S
C605 C606 1.524 . S
C606 C605 1.524 . S
C606 C607 1.397 . S
C606 C611 1.363 . S
C607 H578 0.950 . S
C607 C606 1.397 . S
C607 C608 1.334 . S
C608 H579 0.950 . S
C608 C607 1.334 . S
C608 C609 1.287 . S
C609 C608 1.287 . S
C609 C610 1.524 . S
C609 H612 0.999 . S
C610 H580 0.950 . S
C610 C609 1.524 . S
C610 C611 1.415 . S
C611 H581 0.950 . S
C611 C606 1.363 . S
C611 C610 1.415 . S
H612 C609 0.999 . S
H613 C594 0.913 . S
H614 C632 0.951 . S
H615 C634 0.951 . S
H616 C636 0.950 . S
H617 C637 0.950 . S
H618 C639 0.950 . S
H619 C642 0.950 . S
H620 C643 0.950 . S
H621 C645 0.950 . S
H622 C646 0.950 . S
H623 C647 0.951 . S
H624 C649 0.951 . S
H625 C651 0.950 . S
H626 C652 0.950 . S
H627 C654 0.950 . S
H628 C657 0.950 . S
H629 C658 0.950 . S
H630 C660 0.950 . S
H631 C661 0.950 . S
C632 H614 0.951 . S
C632 C633 1.366 . S
C632 C634 1.388 . S
C633 C632 1.366 . S
C633 C637 1.385 . S
C634 H615 0.951 . S
C634 C632 1.388 . S
C634 C635 1.366 . S
C635 C634 1.366 . S
C635 C636 1.414 . S
C635 C638 1.499 . S
C636 H616 0.950 . S
C636 C635 1.414 . S
C636 C637 1.374 . S
C637 H617 0.950 . S
C637 C633 1.385 . S
C637 C636 1.374 . S
C638 C635 1.499 . S
C638 C639 1.373 . S
C638 C640 1.389 . S
C639 H618 0.950 . S
C639 C638 1.373 . S
C639 C655 1.377 . S
C640 C638 1.389 . S
C640 C641 1.524 . S
C640 C654 1.377 . S
C641 C640 1.524 . S
C641 C642 1.397 . S
C641 C646 1.363 . S
C642 H619 0.950 . S
C642 C641 1.397 . S
C642 C643 1.334 . S
C643 H620 0.950 . S
C643 C642 1.334 . S
C643 C644 1.287 . S
C644 C643 1.287 . S
C644 C645 1.524 . S
C644 H663 0.913 . S
C645 H621 0.950 . S
C645 C644 1.524 . S
C645 C646 1.415 . S
C646 H622 0.950 . S
C646 C641 1.363 . S
C646 C645 1.415 . S
C647 H623 0.951 . S
C647 C648 1.366 . S
C647 C649 1.388 . S
C648 C647 1.366 . S
C648 C652 1.385 . S
C649 H624 0.951 . S
C649 C647 1.388 . S
C649 C650 1.366 . S
C650 C649 1.366 . S
C650 C651 1.414 . S
C650 C653 1.499 . S
C651 H625 0.950 . S
C651 C650 1.414 . S
C651 C652 1.374 . S
C652 H626 0.950 . S
C652 C648 1.385 . S
C652 C651 1.374 . S
C653 C650 1.499 . S
C653 C654 1.373 . S
C653 C655 1.389 . S
C654 H627 0.950 . S
C654 C640 1.377 . S
C654 C653 1.373 . S
C655 C639 1.377 . S
C655 C653 1.389 . S
C655 C656 1.524 . S
C656 C655 1.524 . S
C656 C657 1.397 . S
C656 C661 1.363 . S
C657 H628 0.950 . S
C657 C656 1.397 . S
C657 C658 1.334 . S
C658 H629 0.950 . S
C658 C657 1.334 . S
C658 C659 1.287 . S
C659 C658 1.287 . S
C659 C660 1.524 . S
C659 H662 0.999 . S
C660 H630 0.950 . S
C660 C659 1.524 . S
C660 C661 1.415 . S
C661 H631 0.950 . S
C661 C656 1.363 . S
C661 C660 1.415 . S
H662 C659 0.999 . S
H663 C644 0.913 . S
H664 C682 0.951 . S
H665 C684 0.951 . S
H666 C686 0.950 . S
H667 C687 0.950 . S
H668 C689 0.950 . S
H669 C692 0.950 . S
H670 C693 0.950 . S
H671 C695 0.950 . S
H672 C696 0.950 . S
H673 C697 0.951 . S
H674 C699 0.951 . S
H675 C701 0.950 . S
H676 C702 0.950 . S
H677 C704 0.950 . S
H678 C707 0.950 . S
H679 C708 0.950 . S
H680 C710 0.950 . S
H681 C711 0.950 . S
C682 H664 0.951 . S
C682 C683 1.366 . S
C682 C684 1.388 . S
C683 C682 1.366 . S
C683 C687 1.385 . S
C684 H665 0.951 . S
C684 C682 1.388 . S
C684 C685 1.366 . S
C685 C684 1.366 . S
C685 C686 1.414 . S
C685 C688 1.499 . S
C686 H666 0.950 . S
C686 C685 1.414 . S
C686 C687 1.374 . S
C687 H667 0.950 . S
C687 C683 1.385 . S
C687 C686 1.374 . S
C688 C685 1.499 . S
C688 C689 1.373 . S
C688 C690 1.389 . S
C689 H668 0.950 . S
C689 C688 1.373 . S
C689 C705 1.377 . S
C690 C688 1.389 . S
C690 C691 1.524 . S
C690 C704 1.377 . S
C691 C690 1.524 . S
C691 C692 1.397 . S
C691 C696 1.363 . S
C692 H669 0.950 . S
C692 C691 1.397 . S
C692 C693 1.334 . S
C693 H670 0.950 . S
C693 C692 1.334 . S
C693 C694 1.287 . S
C694 C693 1.287 . S
C694 C695 1.524 . S
C694 H713 0.913 . S
C695 H671 0.950 . S
C695 C694 1.524 . S
C695 C696 1.415 . S
C696 H672 0.950 . S
C696 C691 1.363 . S
C696 C695 1.415 . S
C697 H673 0.951 . S
C697 C698 1.366 . S
C697 C699 1.388 . S
C698 C697 1.366 . S
C698 C702 1.385 . S
C699 H674 0.951 . S
C699 C697 1.388 . S
C699 C700 1.366 . S
C700 C699 1.366 . S
C700 C701 1.414 . S
C700 C703 1.499 . S
C701 H675 0.950 . S
C701 C700 1.414 . S
C701 C702 1.374 . S
C702 H676 0.950 . S
C702 C698 1.385 . S
C702 C701 1.374 . S
C703 C700 1.499 . S
C703 C704 1.373 . S
C703 C705 1.389 . S
C704 H677 0.950 . S
C704 C690 1.377 . S
C704 C703 1.373 . S
C705 C689 1.377 . S
C705 C703 1.389 . S
C705 C706 1.524 . S
C706 C705 1.524 . S
C706 C707 1.397 . S
C706 C711 1.363 . S
C707 H678 0.950 . S
C707 C706 1.397 . S
C707 C708 1.334 . S
C708 H679 0.950 . S
C708 C707 1.334 . S
C708 C709 1.287 . S
C709 C708 1.287 . S
C709 C710 1.524 . S
C709 H712 0.999 . S
C710 H680 0.950 . S
C710 C709 1.524 . S
C710 C711 1.415 . S
C711 H681 0.950 . S
C711 C706 1.363 . S
C711 C710 1.415 . S
H712 C709 0.999 . S
H713 C694 0.913 . S
H714 C732 0.951 . S
H715 C734 0.951 . S
H716 C736 0.950 . S
H717 C737 0.950 . S
H718 C739 0.950 . S
H719 C742 0.950 . S
H720 C743 0.950 . S
H721 C745 0.950 . S
H722 C746 0.950 . S
H723 C747 0.951 . S
H724 C749 0.951 . S
H725 C751 0.950 . S
H726 C752 0.950 . S
H727 C754 0.950 . S
H728 C757 0.950 . S
H729 C758 0.950 . S
H730 C760 0.950 . S
H731 C761 0.950 . S
C732 H714 0.951 . S
C732 C733 1.366 . S
C732 C734 1.388 . S
C733 C732 1.366 . S
C733 C737 1.385 . S
C734 H715 0.951 . S
C734 C732 1.388 . S
C734 C735 1.366 . S
C735 C734 1.366 . S
C735 C736 1.414 . S
C735 C738 1.499 . S
C736 H716 0.950 . S
C736 C735 1.414 . S
C736 C737 1.374 . S
C737 H717 0.950 . S
C737 C733 1.385 . S
C737 C736 1.374 . S
C738 C735 1.499 . S
C738 C739 1.373 . S
C738 C740 1.389 . S
C739 H718 0.950 . S
C739 C738 1.373 . S
C739 C755 1.377 . S
C740 C738 1.389 . S
C740 C741 1.524 . S
C740 C754 1.377 . S
C741 C740 1.524 . S
C741 C742 1.397 . S
C741 C746 1.363 . S
C742 H719 0.950 . S
C742 C741 1.397 . S
C742 C743 1.334 . S
C743 H720 0.950 . S
C743 C742 1.334 . S
C743 C744 1.287 . S
C744 C743 1.287 . S
C744 C745 1.524 . S
C744 H763 0.913 . S
C745 H721 0.950 . S
C745 C744 1.524 . S
C745 C746 1.415 . S
C746 H722 0.950 . S
C746 C741 1.363 . S
C746 C745 1.415 . S
C747 H723 0.951 . S
C747 C748 1.366 . S
C747 C749 1.388 . S
C748 C747 1.366 . S
C748 C752 1.385 . S
C749 H724 0.951 . S
C749 C747 1.388 . S
C749 C750 1.366 . S
C750 C749 1.366 . S
C750 C751 1.414 . S
C750 C753 1.499 . S
C751 H725 0.950 . S
C751 C750 1.414 . S
C751 C752 1.374 . S
C752 H726 0.950 . S
C752 C748 1.385 . S
C752 C751 1.374 . S
C753 C750 1.499 . S
C753 C754 1.373 . S
C753 C755 1.389 . S
C754 H727 0.950 . S
C754 C740 1.377 . S
C754 C753 1.373 . S
C755 C739 1.377 . S
C755 C753 1.389 . S
C755 C756 1.524 . S
C756 C755 1.524 . S
C756 C757 1.397 . S
C756 C761 1.363 . S
C757 H728 0.950 . S
C757 C756 1.397 . S
C757 C758 1.334 . S
C758 H729 0.950 . S
C758 C757 1.334 . S
C758 C759 1.287 . S
C759 C758 1.287 . S
C759 C760 1.524 . S
C759 H762 0.999 . S
C760 H730 0.950 . S
C760 C759 1.524 . S
C760 C761 1.415 . S
C761 H731 0.950 . S
C761 C756 1.363 . S
C761 C760 1.415 . S
H762 C759 0.999 . S
H763 C744 0.913 . S
H764 C782 0.951 . S
H765 C784 0.951 . S
H766 C786 0.950 . S
H767 C787 0.950 . S
H768 C789 0.950 . S
H769 C792 0.950 . S
H770 C793 0.950 . S
H771 C795 0.950 . S
H772 C796 0.950 . S
H773 C797 0.951 . S
H774 C799 0.951 . S
H775 C801 0.950 . S
H776 C802 0.950 . S
H777 C804 0.950 . S
H778 C807 0.950 . S
H779 C808 0.950 . S
H780 C810 0.950 1_655 S
H781 C811 0.950 . S
C782 H764 0.951 . S
C782 C783 1.366 . S
C782 C784 1.388 . S
C783 C782 1.366 . S
C783 C787 1.385 . S
C784 H765 0.951 . S
C784 C782 1.388 . S
C784 C785 1.366 . S
C785 C784 1.366 . S
C785 C786 1.414 . S
C785 C788 1.499 . S
C786 H766 0.950 . S
C786 C785 1.414 . S
C786 C787 1.374 . S
C787 H767 0.950 . S
C787 C783 1.385 . S
C787 C786 1.374 . S
C788 C785 1.499 . S
C788 C789 1.373 . S
C788 C790 1.389 . S
C789 H768 0.950 . S
C789 C788 1.373 . S
C789 C805 1.377 . S
C790 C788 1.389 . S
C790 C791 1.524 . S
C790 C804 1.377 . S
C791 C790 1.524 . S
C791 C792 1.397 . S
C791 C796 1.363 . S
C792 H769 0.950 . S
C792 C791 1.397 . S
C792 C793 1.334 . S
C793 H770 0.950 . S
C793 C792 1.334 . S
C793 C794 1.287 . S
C794 C793 1.287 . S
C794 C795 1.524 . S
C794 H813 0.913 . S
C795 H771 0.950 . S
C795 C794 1.524 . S
C795 C796 1.415 . S
C796 H772 0.950 . S
C796 C791 1.363 . S
C796 C795 1.415 . S
C797 H773 0.951 . S
C797 C798 1.366 . S
C797 C799 1.388 . S
C798 C797 1.366 . S
C798 C802 1.385 . S
C799 H774 0.951 . S
C799 C797 1.388 . S
C799 C800 1.366 . S
C800 C799 1.366 . S
C800 C801 1.414 . S
C800 C803 1.499 . S
C801 H775 0.950 . S
C801 C800 1.414 . S
C801 C802 1.374 . S
C802 H776 0.950 . S
C802 C798 1.385 . S
C802 C801 1.374 . S
C803 C800 1.499 . S
C803 C804 1.373 . S
C803 C805 1.389 . S
C804 H777 0.950 . S
C804 C790 1.377 . S
C804 C803 1.373 . S
C805 C789 1.377 . S
C805 C803 1.389 . S
C805 C806 1.524 . S
C806 C805 1.524 . S
C806 C807 1.397 . S
C806 C811 1.363 . S
C807 H778 0.950 . S
C807 C806 1.397 . S
C807 C808 1.334 . S
C808 H779 0.950 . S
C808 C807 1.334 . S
C808 C809 1.287 . S
C809 C808 1.287 . S
C809 C810 1.524 . S
C809 H812 0.999 1_455 S
C810 H780 0.950 1_455 S
C810 C809 1.524 . S
C810 C811 1.415 . S
C811 H781 0.950 . S
C811 C806 1.363 . S
C811 C810 1.415 . S
H812 C809 0.999 1_655 S
H813 C794 0.913 . S
H814 C832 0.951 . S
H815 C834 0.951 . S
H816 C836 0.950 . S
H817 C837 0.950 . S
H818 C839 0.950 . S
H819 C842 0.950 . S
H820 C843 0.950 . S
H821 C845 0.950 . S
H822 C846 0.950 . S
H823 C847 0.951 . S
H824 C849 0.951 . S
H825 C851 0.950 . S
H826 C852 0.950 . S
H827 C854 0.950 . S
H828 C857 0.950 . S
H829 C858 0.950 . S
H830 C860 0.950 . S
H831 C861 0.950 . S
C832 H814 0.951 . S
C832 C833 1.366 . S
C832 C834 1.388 . S
C833 C832 1.366 . S
C833 C837 1.385 . S
C834 H815 0.951 . S
C834 C832 1.388 . S
C834 C835 1.366 . S
C835 C834 1.366 . S
C835 C836 1.414 . S
C835 C838 1.499 . S
C836 H816 0.950 . S
C836 C835 1.414 . S
C836 C837 1.374 . S
C837 H817 0.950 . S
C837 C833 1.385 . S
C837 C836 1.374 . S
C838 C835 1.499 . S
C838 C839 1.373 . S
C838 C840 1.389 . S
C839 H818 0.950 . S
C839 C838 1.373 . S
C839 C855 1.377 . S
C840 C838 1.389 . S
C840 C841 1.524 . S
C840 C854 1.377 . S
C841 C840 1.524 . S
C841 C842 1.397 . S
C841 C846 1.363 . S
C842 H819 0.950 . S
C842 C841 1.397 . S
C842 C843 1.334 . S
C843 H820 0.950 . S
C843 C842 1.334 . S
C843 C844 1.287 . S
C844 C843 1.287 . S
C844 C845 1.524 . S
C844 H863 0.913 . S
C845 H821 0.950 . S
C845 C844 1.524 . S
C845 C846 1.415 . S
C846 H822 0.950 . S
C846 C841 1.363 . S
C846 C845 1.415 . S
C847 H823 0.951 . S
C847 C848 1.366 . S
C847 C849 1.388 . S
C848 C847 1.366 . S
C848 C852 1.385 . S
C849 H824 0.951 . S
C849 C847 1.388 . S
C849 C850 1.366 . S
C850 C849 1.366 . S
C850 C851 1.414 . S
C850 C853 1.499 . S
C851 H825 0.950 . S
C851 C850 1.414 . S
C851 C852 1.374 . S
C852 H826 0.950 . S
C852 C848 1.385 . S
C852 C851 1.374 . S
C853 C850 1.499 . S
C853 C854 1.373 . S
C853 C855 1.389 . S
C854 H827 0.950 . S
C854 C840 1.377 . S
C854 C853 1.373 . S
C855 C839 1.377 . S
C855 C853 1.389 . S
C855 C856 1.524 . S
C856 C855 1.524 . S
C856 C857 1.397 . S
C856 C861 1.363 . S
C857 H828 0.950 . S
C857 C856 1.397 . S
C857 C858 1.334 . S
C858 H829 0.950 . S
C858 C857 1.334 . S
C858 C859 1.287 . S
C859 C858 1.287 . S
C859 C860 1.524 . S
C859 H862 0.999 . S
C860 H830 0.950 . S
C860 C859 1.524 . S
C860 C861 1.415 . S
C861 H831 0.950 . S
C861 C856 1.363 . S
C861 C860 1.415 . S
H862 C859 0.999 . S
H863 C844 0.913 . S
H864 C882 0.951 . S
H865 C884 0.951 . S
H866 C886 0.950 . S
H867 C887 0.950 . S
H868 C889 0.950 . S
H869 C892 0.950 . S
H870 C893 0.950 . S
H871 C895 0.950 . S
H872 C896 0.950 . S
H873 C897 0.951 . S
H874 C899 0.951 . S
H875 C901 0.950 . S
H876 C902 0.950 . S
H877 C904 0.950 . S
H878 C907 0.950 . S
H879 C908 0.950 1_545 S
H880 C910 0.950 . S
H881 C911 0.950 . S
C882 H864 0.951 . S
C882 C883 1.366 . S
C882 C884 1.388 . S
C883 C882 1.366 . S
C883 C887 1.385 . S
C884 H865 0.951 . S
C884 C882 1.388 . S
C884 C885 1.366 . S
C885 C884 1.366 . S
C885 C886 1.414 . S
C885 C888 1.499 . S
C886 H866 0.950 . S
C886 C885 1.414 . S
C886 C887 1.374 . S
C887 H867 0.950 . S
C887 C883 1.385 . S
C887 C886 1.374 . S
C888 C885 1.499 . S
C888 C889 1.373 . S
C888 C890 1.389 . S
C889 H868 0.950 . S
C889 C888 1.373 . S
C889 C905 1.377 . S
C890 C888 1.389 . S
C890 C891 1.524 . S
C890 C904 1.377 . S
C891 C890 1.524 . S
C891 C892 1.397 . S
C891 C896 1.363 . S
C892 H869 0.950 . S
C892 C891 1.397 . S
C892 C893 1.334 . S
C893 H870 0.950 . S
C893 C892 1.334 . S
C893 C894 1.287 . S
C894 C893 1.287 . S
C894 C895 1.524 . S
C894 H913 0.913 . S
C895 H871 0.950 . S
C895 C894 1.524 . S
C895 C896 1.415 . S
C896 H872 0.950 . S
C896 C891 1.363 . S
C896 C895 1.415 . S
C897 H873 0.951 . S
C897 C898 1.366 . S
C897 C899 1.388 . S
C898 C897 1.366 . S
C898 C902 1.385 . S
C899 H874 0.951 . S
C899 C897 1.388 . S
C899 C900 1.366 . S
C900 C899 1.366 . S
C900 C901 1.414 . S
C900 C903 1.499 . S
C901 H875 0.950 . S
C901 C900 1.414 . S
C901 C902 1.374 . S
C902 H876 0.950 . S
C902 C898 1.385 . S
C902 C901 1.374 . S
C903 C900 1.499 . S
C903 C904 1.373 . S
C903 C905 1.389 . S
C904 H877 0.950 . S
C904 C890 1.377 . S
C904 C903 1.373 . S
C905 C889 1.377 . S
C905 C903 1.389 . S
C905 C906 1.524 . S
C906 C905 1.524 . S
C906 C907 1.397 . S
C906 C911 1.363 . S
C907 H878 0.950 . S
C907 C906 1.397 . S
C907 C908 1.334 . S
C908 H879 0.950 1_565 S
C908 C907 1.334 . S
C908 C909 1.287 . S
C909 C908 1.287 . S
C909 C910 1.524 . S
C909 H912 0.999 1_565 S
C910 H880 0.950 . S
C910 C909 1.524 . S
C910 C911 1.415 . S
C911 H881 0.950 . S
C911 C906 1.363 . S
C911 C910 1.415 . S
H912 C909 0.999 1_545 S
H913 C894 0.913 . S
H914 C932 0.951 . S
H915 C934 0.951 . S
H916 C936 0.950 . S
H917 C937 0.950 . S
H918 C939 0.950 . S
H919 C942 0.950 . S
H920 C943 0.950 . S
H921 C945 0.950 . S
H922 C946 0.950 . S
H923 C947 0.951 . S
H924 C949 0.951 . S
H925 C951 0.950 . S
H926 C952 0.950 . S
H927 C954 0.950 . S
H928 C957 0.950 . S
H929 C958 0.950 . S
H930 C960 0.950 . S
H931 C961 0.950 . S
C932 H914 0.951 . S
C932 C933 1.366 . S
C932 C934 1.388 . S
C933 C932 1.366 . S
C933 C937 1.385 . S
C934 H915 0.951 . S
C934 C932 1.388 . S
C934 C935 1.366 . S
C935 C934 1.366 . S
C935 C936 1.414 . S
C935 C938 1.499 . S
C936 H916 0.950 . S
C936 C935 1.414 . S
C936 C937 1.374 . S
C937 H917 0.950 . S
C937 C933 1.385 . S
C937 C936 1.374 . S
C938 C935 1.499 . S
C938 C939 1.373 . S
C938 C940 1.389 . S
C939 H918 0.950 . S
C939 C938 1.373 . S
C939 C955 1.377 . S
C940 C938 1.389 . S
C940 C941 1.524 . S
C940 C954 1.377 . S
C941 C940 1.524 . S
C941 C942 1.397 . S
C941 C946 1.363 . S
C942 H919 0.950 . S
C942 C941 1.397 . S
C942 C943 1.334 . S
C943 H920 0.950 . S
C943 C942 1.334 . S
C943 C944 1.287 . S
C944 C943 1.287 . S
C944 C945 1.524 . S
C944 H963 0.913 . S
C945 H921 0.950 . S
C945 C944 1.524 . S
C945 C946 1.415 . S
C946 H922 0.950 . S
C946 C941 1.363 . S
C946 C945 1.415 . S
C947 H923 0.951 . S
C947 C948 1.366 . S
C947 C949 1.388 . S
C948 C947 1.366 . S
C948 C952 1.385 . S
C949 H924 0.951 . S
C949 C947 1.388 . S
C949 C950 1.366 . S
C950 C949 1.366 . S
C950 C951 1.414 . S
C950 C953 1.499 . S
C951 H925 0.950 . S
C951 C950 1.414 . S
C951 C952 1.374 . S
C952 H926 0.950 . S
C952 C948 1.385 . S
C952 C951 1.374 . S
C953 C950 1.499 . S
C953 C954 1.373 . S
C953 C955 1.389 . S
C954 H927 0.950 . S
C954 C940 1.377 . S
C954 C953 1.373 . S
C955 C939 1.377 . S
C955 C953 1.389 . S
C955 C956 1.524 . S
C956 C955 1.524 . S
C956 C957 1.397 . S
C956 C961 1.363 . S
C957 H928 0.950 . S
C957 C956 1.397 . S
C957 C958 1.334 . S
C958 H929 0.950 . S
C958 C957 1.334 . S
C958 C959 1.287 . S
C959 C958 1.287 . S
C959 C960 1.524 . S
C959 H962 0.999 . S
C960 H930 0.950 . S
C960 C959 1.524 . S
C960 C961 1.415 . S
C961 H931 0.950 . S
C961 C956 1.363 . S
C961 C960 1.415 . S
H962 C959 0.999 . S
H963 C944 0.913 . S
H964 C982 0.951 . S
H965 C984 0.951 . S
H966 C986 0.950 . S
H967 C987 0.950 . S
H968 C989 0.950 . S
H969 C992 0.950 . S
H970 C993 0.950 . S
H971 C995 0.950 . S
H972 C996 0.950 . S
H973 C997 0.951 . S
H974 C999 0.951 . S
H975 C1001 0.950 . S
H976 C1002 0.950 . S
H977 C1004 0.950 . S
H978 C1007 0.950 . S
H979 C1008 0.950 . S
H980 C1010 0.950 . S
H981 C1011 0.950 . S
C982 H964 0.951 . S
C982 C983 1.366 . S
C982 C984 1.388 . S
C983 C982 1.366 . S
C983 C987 1.385 . S
C984 H965 0.951 . S
C984 C982 1.388 . S
C984 C985 1.366 . S
C985 C984 1.366 . S
C985 C986 1.414 . S
C985 C988 1.499 . S
C986 H966 0.950 . S
C986 C985 1.414 . S
C986 C987 1.374 . S
C987 H967 0.950 . S
C987 C983 1.385 . S
C987 C986 1.374 . S
C988 C985 1.499 . S
C988 C989 1.373 . S
C988 C990 1.389 . S
C989 H968 0.950 . S
C989 C988 1.373 . S
C989 C1005 1.377 . S
C990 C988 1.389 . S
C990 C991 1.524 . S
C990 C1004 1.377 . S
C991 C990 1.524 . S
C991 C992 1.397 . S
C991 C996 1.363 . S
C992 H969 0.950 . S
C992 C991 1.397 . S
C992 C993 1.334 . S
C993 H970 0.950 . S
C993 C992 1.334 . S
C993 C994 1.287 . S
C994 C993 1.287 . S
C994 C995 1.524 . S
C994 H1013 0.913 . S
C995 H971 0.950 . S
C995 C994 1.524 . S
C995 C996 1.415 . S
C996 H972 0.950 . S
C996 C991 1.363 . S
C996 C995 1.415 . S
C997 H973 0.951 . S
C997 C998 1.366 . S
C997 C999 1.388 . S
C998 C997 1.366 . S
C998 C1002 1.385 . S
C999 H974 0.951 . S
C999 C997 1.388 . S
C999 C1000 1.366 . S
C1000 C999 1.366 . S
C1000 C1001 1.414 . S
C1000 C1003 1.499 . S
C1001 H975 0.950 . S
C1001 C1000 1.414 . S
C1001 C1002 1.374 . S
C1002 H976 0.950 . S
C1002 C998 1.385 . S
C1002 C1001 1.374 . S
C1003 C1000 1.499 . S
C1003 C1004 1.373 . S
C1003 C1005 1.389 . S
C1004 H977 0.950 . S
C1004 C990 1.377 . S
C1004 C1003 1.373 . S
C1005 C989 1.377 . S
C1005 C1003 1.389 . S
C1005 C1006 1.524 . S
C1006 C1005 1.524 . S
C1006 C1007 1.397 . S
C1006 C1011 1.363 . S
C1007 H978 0.950 . S
C1007 C1006 1.397 . S
C1007 C1008 1.334 . S
C1008 H979 0.950 . S
C1008 C1007 1.334 . S
C1008 C1009 1.287 . S
C1009 C1008 1.287 . S
C1009 C1010 1.524 . S
C1009 H1012 0.999 . S
C1010 H980 0.950 . S
C1010 C1009 1.524 . S
C1010 C1011 1.415 . S
C1011 H981 0.950 . S
C1011 C1006 1.363 . S
C1011 C1010 1.415 . S
H1012 C1009 0.999 . S
H1013 C994 0.913 . S
H1014 C1032 0.951 . S
H1015 C1034 0.951 . S
H1016 C1036 0.950 . S
H1017 C1037 0.950 . S
H1018 C1039 0.950 . S
H1019 C1042 0.950 . S
H1020 C1043 0.950 . S
H1021 C1045 0.950 . S
H1022 C1046 0.950 . S
H1023 C1047 0.951 . S
H1024 C1049 0.951 . S
H1025 C1051 0.950 . S
H1026 C1052 0.950 . S
H1027 C1054 0.950 . S
H1028 C1057 0.950 . S
H1029 C1058 0.950 . S
H1030 C1060 0.950 . S
H1031 C1061 0.950 . S
C1032 H1014 0.951 . S
C1032 C1033 1.366 . S
C1032 C1034 1.388 . S
C1033 C1032 1.366 . S
C1033 C1037 1.385 . S
C1034 H1015 0.951 . S
C1034 C1032 1.388 . S
C1034 C1035 1.366 . S
C1035 C1034 1.366 . S
C1035 C1036 1.414 . S
C1035 C1038 1.499 . S
C1036 H1016 0.950 . S
C1036 C1035 1.414 . S
C1036 C1037 1.374 . S
C1037 H1017 0.950 . S
C1037 C1033 1.385 . S
C1037 C1036 1.374 . S
C1038 C1035 1.499 . S
C1038 C1039 1.373 . S
C1038 C1040 1.389 . S
C1039 H1018 0.950 . S
C1039 C1038 1.373 . S
C1039 C1055 1.377 . S
C1040 C1038 1.389 . S
C1040 C1041 1.524 . S
C1040 C1054 1.377 . S
C1041 C1040 1.524 . S
C1041 C1042 1.397 . S
C1041 C1046 1.363 . S
C1042 H1019 0.950 . S
C1042 C1041 1.397 . S
C1042 C1043 1.334 . S
C1043 H1020 0.950 . S
C1043 C1042 1.334 . S
C1043 C1044 1.287 . S
C1044 C1043 1.287 . S
C1044 C1045 1.524 . S
C1044 H1063 0.913 . S
C1045 H1021 0.950 . S
C1045 C1044 1.524 . S
C1045 C1046 1.415 . S
C1046 H1022 0.950 . S
C1046 C1041 1.363 . S
C1046 C1045 1.415 . S
C1047 H1023 0.951 . S
C1047 C1048 1.366 . S
C1047 C1049 1.388 . S
C1048 C1047 1.366 . S
C1048 C1052 1.385 . S
C1049 H1024 0.951 . S
C1049 C1047 1.388 . S
C1049 C1050 1.366 . S
C1050 C1049 1.366 . S
C1050 C1051 1.414 . S
C1050 C1053 1.499 . S
C1051 H1025 0.950 . S
C1051 C1050 1.414 . S
C1051 C1052 1.374 . S
C1052 H1026 0.950 . S
C1052 C1048 1.385 . S
C1052 C1051 1.374 . S
C1053 C1050 1.499 . S
C1053 C1054 1.373 . S
C1053 C1055 1.389 . S
C1054 H1027 0.950 . S
C1054 C1040 1.377 . S
C1054 C1053 1.373 . S
C1055 C1039 1.377 . S
C1055 C1053 1.389 . S
C1055 C1056 1.524 . S
C1056 C1055 1.524 . S
C1056 C1057 1.397 . S
C1056 C1061 1.363 . S
C1057 H1028 0.950 . S
C1057 C1056 1.397 . S
C1057 C1058 1.334 . S
C1058 H1029 0.950 . S
C1058 C1057 1.334 . S
C1058 C1059 1.287 . S
C1059 C1058 1.287 . S
C1059 C1060 1.524 . S
C1059 H1062 0.999 . S
C1060 H1030 0.950 . S
C1060 C1059 1.524 . S
C1060 C1061 1.415 . S
C1061 H1031 0.950 . S
C1061 C1056 1.363 . S
C1061 C1060 1.415 . S
H1062 C1059 0.999 . S
H1063 C1044 0.913 . S
H1064 C1082 0.951 . S
H1065 C1084 0.951 . S
H1066 C1086 0.950 . S
H1067 C1087 0.950 . S
H1068 C1089 0.950 . S
H1069 C1092 0.950 . S
H1070 C1093 0.950 . S
H1071 C1095 0.950 . S
H1072 C1096 0.950 . S
H1073 C1097 0.951 . S
H1074 C1099 0.951 . S
H1075 C1101 0.950 . S
H1076 C1102 0.950 . S
H1077 C1104 0.950 . S
H1078 C1107 0.950 . S
H1079 C1108 0.950 1_556 S
H1080 C1110 0.960 . S
H1081 C1111 0.950 . S
C1082 H1064 0.951 . S
C1082 C1083 1.366 . S
C1082 C1084 1.388 . S
C1083 C1082 1.366 . S
C1083 C1087 1.385 . S
C1084 H1065 0.951 . S
C1084 C1082 1.388 . S
C1084 C1085 1.366 . S
C1085 C1084 1.366 . S
C1085 C1086 1.414 . S
C1085 C1088 1.499 . S
C1086 H1066 0.950 . S
C1086 C1085 1.414 . S
C1086 C1087 1.374 . S
C1087 H1067 0.950 . S
C1087 C1083 1.385 . S
C1087 C1086 1.374 . S
C1088 C1085 1.499 . S
C1088 C1089 1.373 . S
C1088 C1090 1.389 . S
C1089 H1068 0.950 . S
C1089 C1088 1.373 . S
C1089 C1105 1.377 . S
C1090 C1088 1.389 . S
C1090 C1091 1.524 . S
C1090 C1104 1.377 . S
C1091 C1090 1.524 . S
C1091 C1092 1.397 . S
C1091 C1096 1.363 . S
C1092 H1069 0.950 . S
C1092 C1091 1.397 . S
C1092 C1093 1.334 . S
C1093 H1070 0.950 . S
C1093 C1092 1.334 . S
C1093 C1094 1.287 . S
C1094 C1093 1.287 . S
C1094 C1095 1.524 . S
C1094 H1113 0.913 . S
C1095 H1071 0.950 . S
C1095 C1094 1.524 . S
C1095 C1096 1.415 . S
C1096 H1072 0.950 . S
C1096 C1091 1.363 . S
C1096 C1095 1.415 . S
C1097 H1073 0.951 . S
C1097 C1098 1.366 . S
C1097 C1099 1.388 . S
C1098 C1097 1.366 . S
C1098 C1102 1.385 . S
C1099 H1074 0.951 . S
C1099 C1097 1.388 . S
C1099 C1100 1.366 . S
C1100 C1099 1.366 . S
C1100 C1101 1.414 . S
C1100 C1103 1.499 . S
C1101 H1075 0.950 . S
C1101 C1100 1.414 . S
C1101 C1102 1.374 . S
C1102 H1076 0.950 . S
C1102 C1098 1.385 . S
C1102 C1101 1.374 . S
C1103 C1100 1.499 . S
C1103 C1104 1.373 . S
C1103 C1105 1.389 . S
C1104 H1077 0.950 . S
C1104 C1090 1.377 . S
C1104 C1103 1.373 . S
C1105 C1089 1.377 . S
C1105 C1103 1.389 . S
C1105 C1106 1.524 . S
C1106 C1105 1.524 . S
C1106 C1107 1.397 . S
C1106 C1111 1.363 . S
C1107 H1078 0.950 . S
C1107 C1106 1.397 . S
C1107 C1108 1.334 . S
C1108 H1079 0.950 1_554 S
C1108 C1107 1.334 . S
C1108 C1109 1.287 1_554 S
C1109 C1108 1.287 1_556 S
C1109 C1110 1.524 1_556 S
C1109 H1112 0.999 . S
C1110 H1080 0.960 . S
C1110 C1109 1.524 1_554 S
C1110 C1111 1.415 . S
C1111 H1081 0.950 . S
C1111 C1106 1.363 . S
C1111 C1110 1.415 . S
H1112 C1109 0.999 . S
H1113 C1094 0.913 . S
H1114 C1132 0.951 . S
H1115 C1134 0.951 . S
H1116 C1136 0.950 . S
H1117 C1137 0.950 . S
H1118 C1139 0.950 . S
H1119 C1142 0.950 . S
H1120 C1143 0.950 . S
H1121 C1145 0.950 . S
H1122 C1146 0.950 . S
H1123 C1147 0.951 . S
H1124 C1149 0.951 . S
H1125 C1151 0.950 . S
H1126 C1152 0.950 . S
H1127 C1154 0.950 . S
H1128 C1157 0.950 . S
H1129 C1158 0.950 . S
H1130 C1160 0.950 . S
H1131 C1161 0.950 . S
C1132 H1114 0.951 . S
C1132 C1133 1.366 . S
C1132 C1134 1.388 . S
C1133 C1132 1.366 . S
C1133 C1137 1.385 . S
C1134 H1115 0.951 . S
C1134 C1132 1.388 . S
C1134 C1135 1.366 . S
C1135 C1134 1.366 . S
C1135 C1136 1.414 . S
C1135 C1138 1.499 . S
C1136 H1116 0.950 . S
C1136 C1135 1.414 . S
C1136 C1137 1.374 . S
C1137 H1117 0.950 . S
C1137 C1133 1.385 . S
C1137 C1136 1.374 . S
C1138 C1135 1.499 . S
C1138 C1139 1.373 . S
C1138 C1140 1.389 . S
C1139 H1118 0.950 . S
C1139 C1138 1.373 . S
C1139 C1155 1.377 . S
C1140 C1138 1.389 . S
C1140 C1141 1.524 . S
C1140 C1154 1.377 . S
C1141 C1140 1.524 . S
C1141 C1142 1.397 . S
C1141 C1146 1.363 . S
C1142 H1119 0.950 . S
C1142 C1141 1.397 . S
C1142 C1143 1.334 . S
C1143 H1120 0.950 . S
C1143 C1142 1.334 . S
C1143 C1144 1.287 . S
C1144 C1143 1.287 . S
C1144 C1145 1.524 . S
C1144 H1163 0.913 . S
C1145 H1121 0.950 . S
C1145 C1144 1.524 . S
C1145 C1146 1.415 . S
C1146 H1122 0.950 . S
C1146 C1141 1.363 . S
C1146 C1145 1.415 . S
C1147 H1123 0.951 . S
C1147 C1148 1.366 . S
C1147 C1149 1.388 . S
C1148 C1147 1.366 . S
C1148 C1152 1.385 . S
C1149 H1124 0.951 . S
C1149 C1147 1.388 . S
C1149 C1150 1.366 . S
C1150 C1149 1.366 . S
C1150 C1151 1.414 . S
C1150 C1153 1.499 . S
C1151 H1125 0.950 . S
C1151 C1150 1.414 . S
C1151 C1152 1.374 . S
C1152 H1126 0.950 . S
C1152 C1148 1.385 . S
C1152 C1151 1.374 . S
C1153 C1150 1.499 . S
C1153 C1154 1.373 . S
C1153 C1155 1.389 . S
C1154 H1127 0.950 . S
C1154 C1140 1.377 . S
C1154 C1153 1.373 . S
C1155 C1139 1.377 . S
C1155 C1153 1.389 . S
C1155 C1156 1.524 . S
C1156 C1155 1.524 . S
C1156 C1157 1.397 . S
C1156 C1161 1.363 . S
C1157 H1128 0.950 . S
C1157 C1156 1.397 . S
C1157 C1158 1.334 . S
C1158 H1129 0.950 . S
C1158 C1157 1.334 . S
C1158 C1159 1.287 . S
C1159 C1158 1.287 . S
C1159 C1160 1.524 . S
C1159 H1162 0.999 . S
C1160 H1130 0.950 . S
C1160 C1159 1.524 . S
C1160 C1161 1.415 . S
C1161 H1131 0.950 . S
C1161 C1156 1.363 . S
C1161 C1160 1.415 . S
H1162 C1159 0.999 . S
H1163 C1144 0.913 . S
H1164 C1182 0.951 . S
H1165 C1184 0.951 . S
H1166 C1186 0.950 . S
H1167 C1187 0.950 . S
H1168 C1189 0.950 . S
H1169 C1192 0.950 . S
H1170 C1193 0.950 . S
H1171 C1195 0.950 . S
H1172 C1196 0.950 . S
H1173 C1197 0.951 . S
H1174 C1199 0.951 . S
H1175 C1201 0.950 . S
H1176 C1202 0.950 . S
H1177 C1204 0.950 . S
H1178 C1207 0.950 . S
H1179 C1208 0.950 . S
H1180 C1210 0.950 . S
H1181 C1211 0.950 . S
C1182 H1164 0.951 . S
C1182 C1183 1.366 . S
C1182 C1184 1.388 . S
C1183 C1182 1.366 . S
C1183 C1187 1.385 . S
C1184 H1165 0.951 . S
C1184 C1182 1.388 . S
C1184 C1185 1.366 . S
C1185 C1184 1.366 . S
C1185 C1186 1.414 . S
C1185 C1188 1.499 . S
C1186 H1166 0.950 . S
C1186 C1185 1.414 . S
C1186 C1187 1.374 . S
C1187 H1167 0.950 . S
C1187 C1183 1.385 . S
C1187 C1186 1.374 . S
C1188 C1185 1.499 . S
C1188 C1189 1.373 . S
C1188 C1190 1.389 . S
C1189 H1168 0.950 . S
C1189 C1188 1.373 . S
C1189 C1205 1.377 . S
C1190 C1188 1.389 . S
C1190 C1191 1.524 . S
C1190 C1204 1.377 . S
C1191 C1190 1.524 . S
C1191 C1192 1.397 . S
C1191 C1196 1.363 . S
C1192 H1169 0.950 . S
C1192 C1191 1.397 . S
C1192 C1193 1.334 . S
C1193 H1170 0.950 . S
C1193 C1192 1.334 . S
C1193 C1194 1.287 . S
C1194 C1193 1.287 . S
C1194 C1195 1.524 . S
C1194 H1213 0.913 . S
C1195 H1171 0.950 . S
C1195 C1194 1.524 . S
C1195 C1196 1.415 . S
C1196 H1172 0.950 . S
C1196 C1191 1.363 . S
C1196 C1195 1.415 . S
C1197 H1173 0.951 . S
C1197 C1198 1.366 . S
C1197 C1199 1.388 . S
C1198 C1197 1.366 . S
C1198 C1202 1.385 . S
C1199 H1174 0.951 . S
C1199 C1197 1.388 . S
C1199 C1200 1.366 . S
C1200 C1199 1.366 . S
C1200 C1201 1.414 . S
C1200 C1203 1.499 . S
C1201 H1175 0.950 . S
C1201 C1200 1.414 . S
C1201 C1202 1.374 . S
C1202 H1176 0.950 . S
C1202 C1198 1.385 . S
C1202 C1201 1.374 . S
C1203 C1200 1.499 . S
C1203 C1204 1.373 . S
C1203 C1205 1.389 . S
C1204 H1177 0.950 . S
C1204 C1190 1.377 . S
C1204 C1203 1.373 . S
C1205 C1189 1.377 . S
C1205 C1203 1.389 . S
C1205 C1206 1.524 . S
C1206 C1205 1.524 . S
C1206 C1207 1.397 . S
C1206 C1211 1.363 . S
C1207 H1178 0.950 . S
C1207 C1206 1.397 . S
C1207 C1208 1.334 . S
C1208 H1179 0.950 . S
C1208 C1207 1.334 . S
C1208 C1209 1.287 . S
C1209 C1208 1.287 . S
C1209 C1210 1.524 . S
C1209 H1212 0.999 . S
C1210 H1180 0.950 . S
C1210 C1209 1.524 . S
C1210 C1211 1.415 . S
C1211 H1181 0.950 . S
C1211 C1206 1.363 . S
C1211 C1210 1.415 . S
H1212 C1209 0.999 . S
H1213 C1194 0.913 . S
H1214 C1232 0.951 . S
H1215 C1234 0.951 . S
H1216 C1236 0.950 . S
H1217 C1237 0.950 . S
H1218 C1239 0.950 . S
H1219 C1242 0.950 . S
H1220 C1243 0.950 . S
H1221 C1245 0.950 . S
H1222 C1246 0.950 . S
H1223 C1247 0.951 . S
H1224 C1249 0.951 . S
H1225 C1251 0.950 . S
H1226 C1252 0.950 . S
H1227 C1254 0.950 . S
H1228 C1257 0.950 . S
H1229 C1258 0.950 . S
H1230 C1260 0.950 . S
H1231 C1261 0.950 . S
C1232 H1214 0.951 . S
C1232 C1233 1.366 . S
C1232 C1234 1.388 . S
C1233 C1232 1.366 . S
C1233 C1237 1.385 . S
C1234 H1215 0.951 . S
C1234 C1232 1.388 . S
C1234 C1235 1.366 . S
C1235 C1234 1.366 . S
C1235 C1236 1.414 . S
C1235 C1238 1.499 . S
C1236 H1216 0.950 . S
C1236 C1235 1.414 . S
C1236 C1237 1.374 . S
C1237 H1217 0.950 . S
C1237 C1233 1.385 . S
C1237 C1236 1.374 . S
C1238 C1235 1.499 . S
C1238 C1239 1.373 . S
C1238 C1240 1.389 . S
C1239 H1218 0.950 . S
C1239 C1238 1.373 . S
C1239 C1255 1.377 . S
C1240 C1238 1.389 . S
C1240 C1241 1.524 . S
C1240 C1254 1.377 . S
C1241 C1240 1.524 . S
C1241 C1242 1.397 . S
C1241 C1246 1.363 . S
C1242 H1219 0.950 . S
C1242 C1241 1.397 . S
C1242 C1243 1.334 . S
C1243 H1220 0.950 . S
C1243 C1242 1.334 . S
C1243 C1244 1.287 . S
C1244 C1243 1.287 . S
C1244 C1245 1.524 . S
C1244 H1263 0.913 . S
C1245 H1221 0.950 . S
C1245 C1244 1.524 . S
C1245 C1246 1.415 . S
C1246 H1222 0.950 . S
C1246 C1241 1.363 . S
C1246 C1245 1.415 . S
C1247 H1223 0.951 . S
C1247 C1248 1.366 . S
C1247 C1249 1.388 . S
C1248 C1247 1.366 . S
C1248 C1252 1.385 . S
C1249 H1224 0.951 . S
C1249 C1247 1.388 . S
C1249 C1250 1.366 . S
C1250 C1249 1.366 . S
C1250 C1251 1.414 . S
C1250 C1253 1.499 . S
C1251 H1225 0.950 . S
C1251 C1250 1.414 . S
C1251 C1252 1.374 . S
C1252 H1226 0.950 . S
C1252 C1248 1.385 . S
C1252 C1251 1.374 . S
C1253 C1250 1.499 . S
C1253 C1254 1.373 . S
C1253 C1255 1.389 . S
C1254 H1227 0.950 . S
C1254 C1240 1.377 . S
C1254 C1253 1.373 . S
C1255 C1239 1.377 . S
C1255 C1253 1.389 . S
C1255 C1256 1.524 . S
C1256 C1255 1.524 . S
C1256 C1257 1.397 . S
C1256 C1261 1.363 . S
C1257 H1228 0.950 . S
C1257 C1256 1.397 . S
C1257 C1258 1.334 . S
C1258 H1229 0.950 . S
C1258 C1257 1.334 . S
C1258 C1259 1.287 . S
C1259 C1258 1.287 . S
C1259 C1260 1.524 . S
C1259 H1262 0.999 . S
C1260 H1230 0.950 . S
C1260 C1259 1.524 . S
C1260 C1261 1.415 . S
C1261 H1231 0.950 . S
C1261 C1256 1.363 . S
C1261 C1260 1.415 . S
H1262 C1259 0.999 . S
H1263 C1244 0.913 . S
H1264 C1282 0.951 . S
H1265 C1284 0.951 . S
H1266 C1286 0.950 . S
H1267 C1287 0.950 . S
H1268 C1289 0.950 . S
H1269 C1292 0.950 . S
H1270 C1293 0.950 . S
H1271 C1295 0.950 . S
H1272 C1296 0.950 . S
H1273 C1297 0.951 . S
H1274 C1299 0.951 . S
H1275 C1301 0.950 . S
H1276 C1302 0.950 . S
H1277 C1304 0.950 . S
H1278 C1307 0.950 . S
H1279 C1308 0.950 . S
H1280 C1310 0.950 . S
H1281 C1311 0.950 . S
C1282 H1264 0.951 . S
C1282 C1283 1.366 . S
C1282 C1284 1.388 . S
C1283 C1282 1.366 . S
C1283 C1287 1.385 . S
C1284 H1265 0.951 . S
C1284 C1282 1.388 . S
C1284 C1285 1.366 . S
C1285 C1284 1.366 . S
C1285 C1286 1.414 . S
C1285 C1288 1.499 . S
C1286 H1266 0.950 . S
C1286 C1285 1.414 . S
C1286 C1287 1.374 . S
C1287 H1267 0.950 . S
C1287 C1283 1.385 . S
C1287 C1286 1.374 . S
C1288 C1285 1.499 . S
C1288 C1289 1.373 . S
C1288 C1290 1.389 . S
C1289 H1268 0.950 . S
C1289 C1288 1.373 . S
C1289 C1305 1.377 . S
C1290 C1288 1.389 . S
C1290 C1291 1.524 . S
C1290 C1304 1.377 . S
C1291 C1290 1.524 . S
C1291 C1292 1.397 . S
C1291 C1296 1.363 . S
C1292 H1269 0.950 . S
C1292 C1291 1.397 . S
C1292 C1293 1.334 . S
C1293 H1270 0.950 . S
C1293 C1292 1.334 . S
C1293 C1294 1.287 . S
C1294 C1293 1.287 . S
C1294 C1295 1.524 . S
C1294 H1313 0.913 . S
C1295 H1271 0.950 . S
C1295 C1294 1.524 . S
C1295 C1296 1.415 . S
C1296 H1272 0.950 . S
C1296 C1291 1.363 . S
C1296 C1295 1.415 . S
C1297 H1273 0.951 . S
C1297 C1298 1.366 . S
C1297 C1299 1.388 . S
C1298 C1297 1.366 . S
C1298 C1302 1.385 . S
C1299 H1274 0.951 . S
C1299 C1297 1.388 . S
C1299 C1300 1.366 . S
C1300 C1299 1.366 . S
C1300 C1301 1.414 . S
C1300 C1303 1.499 . S
C1301 H1275 0.950 . S
C1301 C1300 1.414 . S
C1301 C1302 1.374 . S
C1302 H1276 0.950 . S
C1302 C1298 1.385 . S
C1302 C1301 1.374 . S
C1303 C1300 1.499 . S
C1303 C1304 1.373 . S
C1303 C1305 1.389 . S
C1304 H1277 0.950 . S
C1304 C1290 1.377 . S
C1304 C1303 1.373 . S
C1305 C1289 1.377 . S
C1305 C1303 1.389 . S
C1305 C1306 1.524 . S
C1306 C1305 1.524 . S
C1306 C1307 1.397 . S
C1306 C1311 1.363 . S
C1307 H1278 0.950 . S
C1307 C1306 1.397 . S
C1307 C1308 1.334 . S
C1308 H1279 0.950 . S
C1308 C1307 1.334 . S
C1308 C1309 1.287 . S
C1309 C1308 1.287 . S
C1309 C1310 1.524 . S
C1309 H1312 0.999 . S
C1310 H1280 0.950 . S
C1310 C1309 1.524 . S
C1310 C1311 1.415 . S
C1311 H1281 0.950 . S
C1311 C1306 1.363 . S
C1311 C1310 1.415 . S
H1312 C1309 0.999 . S
H1313 C1294 0.913 . S
H1314 C1332 0.951 . S
H1315 C1334 0.951 . S
H1316 C1336 0.950 . S
H1317 C1337 0.950 . S
H1318 C1339 0.950 . S
H1319 C1342 0.950 . S
H1320 C1343 0.950 . S
H1321 C1345 0.950 . S
H1322 C1346 0.950 . S
H1323 C1347 0.951 . S
H1324 C1349 0.951 . S
H1325 C1351 0.950 . S
H1326 C1352 0.950 . S
H1327 C1354 0.950 . S
H1328 C1357 0.950 . S
H1329 C1358 0.950 . S
H1330 C1360 0.950 . S
H1331 C1361 0.950 . S
C1332 H1314 0.951 . S
C1332 C1333 1.366 . S
C1332 C1334 1.388 . S
C1333 C1332 1.366 . S
C1333 C1337 1.385 . S
C1334 H1315 0.951 . S
C1334 C1332 1.388 . S
C1334 C1335 1.366 . S
C1335 C1334 1.366 . S
C1335 C1336 1.414 . S
C1335 C1338 1.499 . S
C1336 H1316 0.950 . S
C1336 C1335 1.414 . S
C1336 C1337 1.374 . S
C1337 H1317 0.950 . S
C1337 C1333 1.385 . S
C1337 C1336 1.374 . S
C1338 C1335 1.499 . S
C1338 C1339 1.373 . S
C1338 C1340 1.389 . S
C1339 H1318 0.950 . S
C1339 C1338 1.373 . S
C1339 C1355 1.377 . S
C1340 C1338 1.389 . S
C1340 C1341 1.524 . S
C1340 C1354 1.377 . S
C1341 C1340 1.524 . S
C1341 C1342 1.397 . S
C1341 C1346 1.363 . S
C1342 H1319 0.950 . S
C1342 C1341 1.397 . S
C1342 C1343 1.334 . S
C1343 H1320 0.950 . S
C1343 C1342 1.334 . S
C1343 C1344 1.287 . S
C1344 C1343 1.287 . S
C1344 C1345 1.524 . S
C1344 H1363 0.913 . S
C1345 H1321 0.950 . S
C1345 C1344 1.524 . S
C1345 C1346 1.415 . S
C1346 H1322 0.950 . S
C1346 C1341 1.363 . S
C1346 C1345 1.415 . S
C1347 H1323 0.951 . S
C1347 C1348 1.366 . S
C1347 C1349 1.388 . S
C1348 C1347 1.366 . S
C1348 C1352 1.385 . S
C1349 H1324 0.951 . S
C1349 C1347 1.388 . S
C1349 C1350 1.366 . S
C1350 C1349 1.366 . S
C1350 C1351 1.414 . S
C1350 C1353 1.499 . S
C1351 H1325 0.950 . S
C1351 C1350 1.414 . S
C1351 C1352 1.374 . S
C1352 H1326 0.950 . S
C1352 C1348 1.385 . S
C1352 C1351 1.374 . S
C1353 C1350 1.499 . S
C1353 C1354 1.373 . S
C1353 C1355 1.389 . S
C1354 H1327 0.950 . S
C1354 C1340 1.377 . S
C1354 C1353 1.373 . S
C1355 C1339 1.377 . S
C1355 C1353 1.389 . S
C1355 C1356 1.524 . S
C1356 C1355 1.524 . S
C1356 C1357 1.397 . S
C1356 C1361 1.363 . S
C1357 H1328 0.950 . S
C1357 C1356 1.397 . S
C1357 C1358 1.334 . S
C1358 H1329 0.950 . S
C1358 C1357 1.334 . S
C1358 C1359 1.287 . S
C1359 C1358 1.287 . S
C1359 C1360 1.524 . S
C1359 H1362 0.999 . S
C1360 H1330 0.950 . S
C1360 C1359 1.524 . S
C1360 C1361 1.415 . S
C1361 H1331 0.950 . S
C1361 C1356 1.363 . S
C1361 C1360 1.415 . S
H1362 C1359 0.999 . S
H1363 C1344 0.913 . S
H1364 C1382 0.951 . S
H1365 C1384 0.951 . S
H1366 C1386 0.950 . S
H1367 C1387 0.950 . S
H1368 C1389 0.950 . S
H1369 C1392 0.950 . S
H1370 C1393 0.950 . S
H1371 C1395 0.950 . S
H1372 C1396 0.950 . S
H1373 C1397 0.951 . S
H1374 C1399 0.951 . S
H1375 C1401 0.950 . S
H1376 C1402 0.950 . S
H1377 C1404 0.950 . S
H1378 C1407 0.950 . S
H1379 C1408 0.950 . S
H1380 C1410 0.950 . S
H1381 C1411 0.950 . S
C1382 H1364 0.951 . S
C1382 C1383 1.366 . S
C1382 C1384 1.388 . S
C1383 C1382 1.366 . S
C1383 C1387 1.385 . S
C1384 H1365 0.951 . S
C1384 C1382 1.388 . S
C1384 C1385 1.366 . S
C1385 C1384 1.366 . S
C1385 C1386 1.414 . S
C1385 C1388 1.499 . S
C1386 H1366 0.950 . S
C1386 C1385 1.414 . S
C1386 C1387 1.374 . S
C1387 H1367 0.950 . S
C1387 C1383 1.385 . S
C1387 C1386 1.374 . S
C1388 C1385 1.499 . S
C1388 C1389 1.373 . S
C1388 C1390 1.389 . S
C1389 H1368 0.950 . S
C1389 C1388 1.373 . S
C1389 C1405 1.377 . S
C1390 C1388 1.389 . S
C1390 C1391 1.524 . S
C1390 C1404 1.377 . S
C1391 C1390 1.524 . S
C1391 C1392 1.397 . S
C1391 C1396 1.363 . S
C1392 H1369 0.950 . S
C1392 C1391 1.397 . S
C1392 C1393 1.334 . S
C1393 H1370 0.950 . S
C1393 C1392 1.334 . S
C1393 C1394 1.287 . S
C1394 C1393 1.287 . S
C1394 C1395 1.524 . S
C1394 H1413 0.913 . S
C1395 H1371 0.950 . S
C1395 C1394 1.524 . S
C1395 C1396 1.415 . S
C1396 H1372 0.950 . S
C1396 C1391 1.363 . S
C1396 C1395 1.415 . S
C1397 H1373 0.951 . S
C1397 C1398 1.366 . S
C1397 C1399 1.388 . S
C1398 C1397 1.366 . S
C1398 C1402 1.385 . S
C1399 H1374 0.951 . S
C1399 C1397 1.388 . S
C1399 C1400 1.366 . S
C1400 C1399 1.366 . S
C1400 C1401 1.414 . S
C1400 C1403 1.499 . S
C1401 H1375 0.950 . S
C1401 C1400 1.414 . S
C1401 C1402 1.374 . S
C1402 H1376 0.950 . S
C1402 C1398 1.385 . S
C1402 C1401 1.374 . S
C1403 C1400 1.499 . S
C1403 C1404 1.373 . S
C1403 C1405 1.389 . S
C1404 H1377 0.950 . S
C1404 C1390 1.377 . S
C1404 C1403 1.373 . S
C1405 C1389 1.377 . S
C1405 C1403 1.389 . S
C1405 C1406 1.524 . S
C1406 C1405 1.524 . S
C1406 C1407 1.397 . S
C1406 C1411 1.363 . S
C1407 H1378 0.950 . S
C1407 C1406 1.397 . S
C1407 C1408 1.334 1_556 S
C1408 H1379 0.950 . S
C1408 C1407 1.334 1_554 S
C1408 C1409 1.287 . S
C1409 C1408 1.287 . S
C1409 C1410 1.524 1_554 S
C1409 H1412 0.999 . S
C1410 H1380 0.950 . S
C1410 C1409 1.524 1_556 S
C1410 C1411 1.415 . S
C1411 H1381 0.950 . S
C1411 C1406 1.363 . S
C1411 C1410 1.415 . S
H1412 C1409 0.999 . S
H1413 C1394 0.913 . S
H1414 C1432 0.951 . S
H1415 C1434 0.951 . S
H1416 C1436 0.950 . S
H1417 C1437 0.950 . S
H1418 C1439 0.950 . S
H1419 C1442 0.950 . S
H1420 C1443 0.950 . S
H1421 C1445 0.950 . S
H1422 C1446 0.950 . S
H1423 C1447 0.951 . S
H1424 C1449 0.951 . S
H1425 C1451 0.950 . S
H1426 C1452 0.950 . S
H1427 C1454 0.950 . S
H1428 C1457 0.950 . S
H1429 C1458 0.950 . S
H1430 C1460 0.950 . S
H1431 C1461 0.950 . S
C1432 H1414 0.951 . S
C1432 C1433 1.366 . S
C1432 C1434 1.388 . S
C1433 C1432 1.366 . S
C1433 C1437 1.385 . S
C1434 H1415 0.951 . S
C1434 C1432 1.388 . S
C1434 C1435 1.366 . S
C1435 C1434 1.366 . S
C1435 C1436 1.414 . S
C1435 C1438 1.499 . S
C1436 H1416 0.950 . S
C1436 C1435 1.414 . S
C1436 C1437 1.374 . S
C1437 H1417 0.950 . S
C1437 C1433 1.385 . S
C1437 C1436 1.374 . S
C1438 C1435 1.499 . S
C1438 C1439 1.373 . S
C1438 C1440 1.389 . S
C1439 H1418 0.950 . S
C1439 C1438 1.373 . S
C1439 C1455 1.377 . S
C1440 C1438 1.389 . S
C1440 C1441 1.524 . S
C1440 C1454 1.377 . S
C1441 C1440 1.524 . S
C1441 C1442 1.397 . S
C1441 C1446 1.363 . S
C1442 H1419 0.950 . S
C1442 C1441 1.397 . S
C1442 C1443 1.334 . S
C1443 H1420 0.950 . S
C1443 C1442 1.334 . S
C1443 C1444 1.287 . S
C1444 C1443 1.287 . S
C1444 C1445 1.524 . S
C1444 H1463 0.913 . S
C1445 H1421 0.950 . S
C1445 C1444 1.524 . S
C1445 C1446 1.415 . S
C1446 H1422 0.950 . S
C1446 C1441 1.363 . S
C1446 C1445 1.415 . S
C1447 H1423 0.951 . S
C1447 C1448 1.366 . S
C1447 C1449 1.388 . S
C1448 C1447 1.366 . S
C1448 C1452 1.385 . S
C1449 H1424 0.951 . S
C1449 C1447 1.388 . S
C1449 C1450 1.366 . S
C1450 C1449 1.366 . S
C1450 C1451 1.414 . S
C1450 C1453 1.499 . S
C1451 H1425 0.950 . S
C1451 C1450 1.414 . S
C1451 C1452 1.374 . S
C1452 H1426 0.950 . S
C1452 C1448 1.385 . S
C1452 C1451 1.374 . S
C1453 C1450 1.499 . S
C1453 C1454 1.373 . S
C1453 C1455 1.389 . S
C1454 H1427 0.950 . S
C1454 C1440 1.377 . S
C1454 C1453 1.373 . S
C1455 C1439 1.377 . S
C1455 C1453 1.389 . S
C1455 C1456 1.524 . S
C1456 C1455 1.524 . S
C1456 C1457 1.397 . S
C1456 C1461 1.363 . S
C1457 H1428 0.950 . S
C1457 C1456 1.397 . S
C1457 C1458 1.334 . S
C1458 H1429 0.950 . S
C1458 C1457 1.334 . S
C1458 C1459 1.287 . S
C1459 C1458 1.287 . S
C1459 C1460 1.524 . S
C1459 H1462 0.999 . S
C1460 H1430 0.950 . S
C1460 C1459 1.524 . S
C1460 C1461 1.415 . S
C1461 H1431 0.950 . S
C1461 C1456 1.363 . S
C1461 C1460 1.415 . S
H1462 C1459 0.999 . S
H1463 C1444 0.913 . S
H1464 C1482 0.951 . S
H1465 C1484 0.951 . S
H1466 C1486 0.950 . S
H1467 C1487 0.950 . S
H1468 C1489 0.950 . S
H1469 C1492 0.950 . S
H1470 C1493 0.950 . S
H1471 C1495 0.950 . S
H1472 C1496 0.950 . S
H1473 C1497 0.951 . S
H1474 C1499 0.951 . S
H1475 C1501 0.950 . S
H1476 C1502 0.950 . S
H1477 C1504 0.950 . S
H1478 C1507 0.950 . S
H1479 C1508 0.950 1_455 S
H1480 C1510 0.950 . S
H1481 C1511 0.950 . S
C1482 H1464 0.951 . S
C1482 C1483 1.366 . S
C1482 C1484 1.388 . S
C1483 C1482 1.366 . S
C1483 C1487 1.385 . S
C1484 H1465 0.951 . S
C1484 C1482 1.388 . S
C1484 C1485 1.366 . S
C1485 C1484 1.366 . S
C1485 C1486 1.414 . S
C1485 C1488 1.499 . S
C1486 H1466 0.950 . S
C1486 C1485 1.414 . S
C1486 C1487 1.374 . S
C1487 H1467 0.950 . S
C1487 C1483 1.385 . S
C1487 C1486 1.374 . S
C1488 C1485 1.499 . S
C1488 C1489 1.373 . S
C1488 C1490 1.389 . S
C1489 H1468 0.950 . S
C1489 C1488 1.373 . S
C1489 C1505 1.377 . S
C1490 C1488 1.389 . S
C1490 C1491 1.524 . S
C1490 C1504 1.377 . S
C1491 C1490 1.524 . S
C1491 C1492 1.397 . S
C1491 C1496 1.363 . S
C1492 H1469 0.950 . S
C1492 C1491 1.397 . S
C1492 C1493 1.334 . S
C1493 H1470 0.950 . S
C1493 C1492 1.334 . S
C1493 C1494 1.287 . S
C1494 C1493 1.287 . S
C1494 C1495 1.524 . S
C1494 H1513 0.913 . S
C1495 H1471 0.950 . S
C1495 C1494 1.524 . S
C1495 C1496 1.415 . S
C1496 H1472 0.950 . S
C1496 C1491 1.363 . S
C1496 C1495 1.415 . S
C1497 H1473 0.951 . S
C1497 C1498 1.366 . S
C1497 C1499 1.388 . S
C1498 C1497 1.366 . S
C1498 C1502 1.385 . S
C1499 H1474 0.951 . S
C1499 C1497 1.388 . S
C1499 C1500 1.366 . S
C1500 C1499 1.366 . S
C1500 C1501 1.414 . S
C1500 C1503 1.499 . S
C1501 H1475 0.950 . S
C1501 C1500 1.414 . S
C1501 C1502 1.374 . S
C1502 H1476 0.950 . S
C1502 C1498 1.385 . S
C1502 C1501 1.374 . S
C1503 C1500 1.499 . S
C1503 C1504 1.373 . S
C1503 C1505 1.389 . S
C1504 H1477 0.950 . S
C1504 C1490 1.377 . S
C1504 C1503 1.373 . S
C1505 C1489 1.377 . S
C1505 C1503 1.389 . S
C1505 C1506 1.524 . S
C1506 C1505 1.524 . S
C1506 C1507 1.397 . S
C1506 C1511 1.363 . S
C1507 H1478 0.950 . S
C1507 C1506 1.397 . S
C1507 C1508 1.334 . S
C1508 H1479 0.950 1_655 S
C1508 C1507 1.334 . S
C1508 C1509 1.287 . S
C1509 C1508 1.287 . S
C1509 C1510 1.524 . S
C1509 H1512 0.999 1_655 S
C1510 H1480 0.950 . S
C1510 C1509 1.524 . S
C1510 C1511 1.415 . S
C1511 H1481 0.950 . S
C1511 C1506 1.363 . S
C1511 C1510 1.415 . S
H1512 C1509 0.999 1_455 S
H1513 C1494 0.913 . S
H1514 C1532 0.951 . S
H1515 C1534 0.951 . S
H1516 C1536 0.950 . S
H1517 C1537 0.950 . S
H1518 C1539 0.950 . S
H1519 C1542 0.950 . S
H1520 C1543 0.950 . S
H1521 C1545 0.950 . S
H1522 C1546 0.950 . S
H1523 C1547 0.951 . S
H1524 C1549 0.951 . S
H1525 C1551 0.950 . S
H1526 C1552 0.950 . S
H1527 C1554 0.950 . S
H1528 C1557 0.950 . S
H1529 C1558 0.950 . S
H1530 C1560 0.950 . S
H1531 C1561 0.950 . S
C1532 H1514 0.951 . S
C1532 C1533 1.366 . S
C1532 C1534 1.388 . S
C1533 C1532 1.366 . S
C1533 C1537 1.385 . S
C1534 H1515 0.951 . S
C1534 C1532 1.388 . S
C1534 C1535 1.366 . S
C1535 C1534 1.366 . S
C1535 C1536 1.414 . S
C1535 C1538 1.499 . S
C1536 H1516 0.950 . S
C1536 C1535 1.414 . S
C1536 C1537 1.374 . S
C1537 H1517 0.950 . S
C1537 C1533 1.385 . S
C1537 C1536 1.374 . S
C1538 C1535 1.499 . S
C1538 C1539 1.373 . S
C1538 C1540 1.389 . S
C1539 H1518 0.950 . S
C1539 C1538 1.373 . S
C1539 C1555 1.377 . S
C1540 C1538 1.389 . S
C1540 C1541 1.524 . S
C1540 C1554 1.377 . S
C1541 C1540 1.524 . S
C1541 C1542 1.397 . S
C1541 C1546 1.363 . S
C1542 H1519 0.950 . S
C1542 C1541 1.397 . S
C1542 C1543 1.334 . S
C1543 H1520 0.950 . S
C1543 C1542 1.334 . S
C1543 C1544 1.287 . S
C1544 C1543 1.287 . S
C1544 C1545 1.524 . S
C1544 H1563 0.913 . S
C1545 H1521 0.950 . S
C1545 C1544 1.524 . S
C1545 C1546 1.415 . S
C1546 H1522 0.950 . S
C1546 C1541 1.363 . S
C1546 C1545 1.415 . S
C1547 H1523 0.951 . S
C1547 C1548 1.366 . S
C1547 C1549 1.388 . S
C1548 C1547 1.366 . S
C1548 C1552 1.385 . S
C1549 H1524 0.951 . S
C1549 C1547 1.388 . S
C1549 C1550 1.366 . S
C1550 C1549 1.366 . S
C1550 C1551 1.414 . S
C1550 C1553 1.499 . S
C1551 H1525 0.950 . S
C1551 C1550 1.414 . S
C1551 C1552 1.374 . S
C1552 H1526 0.950 . S
C1552 C1548 1.385 . S
C1552 C1551 1.374 . S
C1553 C1550 1.499 . S
C1553 C1554 1.373 . S
C1553 C1555 1.389 . S
C1554 H1527 0.950 . S
C1554 C1540 1.377 . S
C1554 C1553 1.373 . S
C1555 C1539 1.377 . S
C1555 C1553 1.389 . S
C1555 C1556 1.524 . S
C1556 C1555 1.524 . S
C1556 C1557 1.397 . S
C1556 C1561 1.363 . S
C1557 H1528 0.950 . S
C1557 C1556 1.397 . S
C1557 C1558 1.334 . S
C1558 H1529 0.950 . S
C1558 C1557 1.334 . S
C1558 C1559 1.287 . S
C1559 C1558 1.287 . S
C1559 C1560 1.524 . S
C1559 H1562 0.999 1_565 S
C1560 H1530 0.950 . S
C1560 C1559 1.524 . S
C1560 C1561 1.415 . S
C1561 H1531 0.950 . S
C1561 C1556 1.363 . S
C1561 C1560 1.415 . S
H1562 C1559 0.999 1_545 S
H1563 C1544 0.913 . S
H1564 C1582 0.951 . S
H1565 C1584 0.951 . S
H1566 C1586 0.950 . S
H1567 C1587 0.950 . S
H1568 C1589 0.950 . S
H1569 C1592 0.950 . S
H1570 C1593 0.950 . S
H1571 C1595 0.950 . S
H1572 C1596 0.950 . S
H1573 C1597 0.951 . S
H1574 C1599 0.951 . S
H1575 C1601 0.950 . S
H1576 C1602 0.950 . S
H1577 C1604 0.950 . S
H1578 C1607 0.950 . S
H1579 C1608 0.950 . S
H1580 C1610 0.950 . S
H1581 C1611 0.950 . S
C1582 H1564 0.951 . S
C1582 C1583 1.366 . S
C1582 C1584 1.388 . S
C1583 C1582 1.366 . S
C1583 C1587 1.385 . S
C1584 H1565 0.951 . S
C1584 C1582 1.388 . S
C1584 C1585 1.366 . S
C1585 C1584 1.366 . S
C1585 C1586 1.414 . S
C1585 C1588 1.499 . S
C1586 H1566 0.950 . S
C1586 C1585 1.414 . S
C1586 C1587 1.374 . S
C1587 H1567 0.950 . S
C1587 C1583 1.385 . S
C1587 C1586 1.374 . S
C1588 C1585 1.499 . S
C1588 C1589 1.373 . S
C1588 C1590 1.389 . S
C1589 H1568 0.950 . S
C1589 C1588 1.373 . S
C1589 C1605 1.377 . S
C1590 C1588 1.389 . S
C1590 C1591 1.524 . S
C1590 C1604 1.377 . S
C1591 C1590 1.524 . S
C1591 C1592 1.397 . S
C1591 C1596 1.363 . S
C1592 H1569 0.950 . S
C1592 C1591 1.397 . S
C1592 C1593 1.334 . S
C1593 H1570 0.950 . S
C1593 C1592 1.334 . S
C1593 C1594 1.287 . S
C1594 C1593 1.287 . S
C1594 C1595 1.524 . S
C1594 H1613 0.913 . S
C1595 H1571 0.950 . S
C1595 C1594 1.524 . S
C1595 C1596 1.415 . S
C1596 H1572 0.950 . S
C1596 C1591 1.363 . S
C1596 C1595 1.415 . S
C1597 H1573 0.951 . S
C1597 C1598 1.366 . S
C1597 C1599 1.388 . S
C1598 C1597 1.366 . S
C1598 C1602 1.385 . S
C1599 H1574 0.951 . S
C1599 C1597 1.388 . S
C1599 C1600 1.366 . S
C1600 C1599 1.366 . S
C1600 C1601 1.414 . S
C1600 C1603 1.499 . S
C1601 H1575 0.950 . S
C1601 C1600 1.414 . S
C1601 C1602 1.374 . S
C1602 H1576 0.950 . S
C1602 C1598 1.385 . S
C1602 C1601 1.374 . S
C1603 C1600 1.499 . S
C1603 C1604 1.373 . S
C1603 C1605 1.389 . S
C1604 H1577 0.950 . S
C1604 C1590 1.377 . S
C1604 C1603 1.373 . S
C1605 C1589 1.377 . S
C1605 C1603 1.389 . S
C1605 C1606 1.524 . S
C1606 C1605 1.524 . S
C1606 C1607 1.397 . S
C1606 C1611 1.363 . S
C1607 H1578 0.950 . S
C1607 C1606 1.397 . S
C1607 C1608 1.334 . S
C1608 H1579 0.950 . S
C1608 C1607 1.334 . S
C1608 C1609 1.287 . S
C1609 C1608 1.287 . S
C1609 C1610 1.524 . S
C1609 H1612 0.999 . S
C1610 H1580 0.950 . S
C1610 C1609 1.524 . S
C1610 C1611 1.415 . S
C1611 H1581 0.950 . S
C1611 C1606 1.363 . S
C1611 C1610 1.415 . S
H1612 C1609 0.999 . S
H1613 C1594 0.913 . S
H1614 C1632 0.951 . S
H1615 C1634 0.951 . S
H1616 C1636 0.950 . S
H1617 C1637 0.950 . S
H1618 C1639 0.950 . S
H1619 C1642 0.950 . S
H1620 C1643 0.950 . S
H1621 C1645 0.950 . S
H1622 C1646 0.950 . S
H1623 C1647 0.951 . S
H1624 C1649 0.951 . S
H1625 C1651 0.950 . S
H1626 C1652 0.950 . S
H1627 C1654 0.950 . S
H1628 C1657 0.950 . S
H1629 C1658 0.950 . S
H1630 C1660 0.950 . S
H1631 C1661 0.950 . S
C1632 H1614 0.951 . S
C1632 C1633 1.366 . S
C1632 C1634 1.388 . S
C1633 C1632 1.366 . S
C1633 C1637 1.385 . S
C1634 H1615 0.951 . S
C1634 C1632 1.388 . S
C1634 C1635 1.366 . S
C1635 C1634 1.366 . S
C1635 C1636 1.414 . S
C1635 C1638 1.499 . S
C1636 H1616 0.950 . S
C1636 C1635 1.414 . S
C1636 C1637 1.374 . S
C1637 H1617 0.950 . S
C1637 C1633 1.385 . S
C1637 C1636 1.374 . S
C1638 C1635 1.499 . S
C1638 C1639 1.373 . S
C1638 C1640 1.389 . S
C1639 H1618 0.950 . S
C1639 C1638 1.373 . S
C1639 C1655 1.377 . S
C1640 C1638 1.389 . S
C1640 C1641 1.524 . S
C1640 C1654 1.377 . S
C1641 C1640 1.524 . S
C1641 C1642 1.397 . S
C1641 C1646 1.363 . S
C1642 H1619 0.950 . S
C1642 C1641 1.397 . S
C1642 C1643 1.334 . S
C1643 H1620 0.950 . S
C1643 C1642 1.334 . S
C1643 C1644 1.287 . S
C1644 C1643 1.287 . S
C1644 C1645 1.524 . S
C1644 H1663 0.913 . S
C1645 H1621 0.950 . S
C1645 C1644 1.524 . S
C1645 C1646 1.415 . S
C1646 H1622 0.950 . S
C1646 C1641 1.363 . S
C1646 C1645 1.415 . S
C1647 H1623 0.951 . S
C1647 C1648 1.366 . S
C1647 C1649 1.388 . S
C1648 C1647 1.366 . S
C1648 C1652 1.385 . S
C1649 H1624 0.951 . S
C1649 C1647 1.388 . S
C1649 C1650 1.366 . S
C1650 C1649 1.366 . S
C1650 C1651 1.414 . S
C1650 C1653 1.499 . S
C1651 H1625 0.950 . S
C1651 C1650 1.414 . S
C1651 C1652 1.374 . S
C1652 H1626 0.950 . S
C1652 C1648 1.385 . S
C1652 C1651 1.374 . S
C1653 C1650 1.499 . S
C1653 C1654 1.373 . S
C1653 C1655 1.389 . S
C1654 H1627 0.950 . S
C1654 C1640 1.377 . S
C1654 C1653 1.373 . S
C1655 C1639 1.377 . S
C1655 C1653 1.389 . S
C1655 C1656 1.524 . S
C1656 C1655 1.524 . S
C1656 C1657 1.397 . S
C1656 C1661 1.363 . S
C1657 H1628 0.950 . S
C1657 C1656 1.397 . S
C1657 C1658 1.334 . S
C1658 H1629 0.950 . S
C1658 C1657 1.334 . S
C1658 C1659 1.287 . S
C1659 C1658 1.287 . S
C1659 C1660 1.524 . S
C1659 H1662 0.999 . S
C1660 H1630 0.950 . S
C1660 C1659 1.524 . S
C1660 C1661 1.415 . S
C1661 H1631 0.950 . S
C1661 C1656 1.363 . S
C1661 C1660 1.415 . S
H1662 C1659 0.999 . S
H1663 C1644 0.913 . S
H1664 C1682 0.951 . S
H1665 C1684 0.951 . S
H1666 C1686 0.950 . S
H1667 C1687 0.950 . S
H1668 C1689 0.950 . S
H1669 C1692 0.950 . S
H1670 C1693 0.950 . S
H1671 C1695 0.950 . S
H1672 C1696 0.950 . S
H1673 C1697 0.951 . S
H1674 C1699 0.951 . S
H1675 C1701 0.950 . S
H1676 C1702 0.950 . S
H1677 C1704 0.950 . S
H1678 C1707 0.950 . S
H1679 C1708 0.950 . S
H1680 C1710 0.950 . S
H1681 C1711 0.950 . S
C1682 H1664 0.951 . S
C1682 C1683 1.366 . S
C1682 C1684 1.388 . S
C1683 C1682 1.366 . S
C1683 C1687 1.385 . S
C1684 H1665 0.951 . S
C1684 C1682 1.388 . S
C1684 C1685 1.366 . S
C1685 C1684 1.366 . S
C1685 C1686 1.414 . S
C1685 C1688 1.499 . S
C1686 H1666 0.950 . S
C1686 C1685 1.414 . S
C1686 C1687 1.374 . S
C1687 H1667 0.950 . S
C1687 C1683 1.385 . S
C1687 C1686 1.374 . S
C1688 C1685 1.499 . S
C1688 C1689 1.373 . S
C1688 C1690 1.389 . S
C1689 H1668 0.950 . S
C1689 C1688 1.373 . S
C1689 C1705 1.377 . S
C1690 C1688 1.389 . S
C1690 C1691 1.524 . S
C1690 C1704 1.377 . S
C1691 C1690 1.524 . S
C1691 C1692 1.397 . S
C1691 C1696 1.363 . S
C1692 H1669 0.950 . S
C1692 C1691 1.397 . S
C1692 C1693 1.334 . S
C1693 H1670 0.950 . S
C1693 C1692 1.334 . S
C1693 C1694 1.287 . S
C1694 C1693 1.287 . S
C1694 C1695 1.524 . S
C1694 H1713 0.913 . S
C1695 H1671 0.950 . S
C1695 C1694 1.524 . S
C1695 C1696 1.415 . S
C1696 H1672 0.950 . S
C1696 C1691 1.363 . S
C1696 C1695 1.415 . S
C1697 H1673 0.951 . S
C1697 C1698 1.366 . S
C1697 C1699 1.388 . S
C1698 C1697 1.366 . S
C1698 C1702 1.385 . S
C1699 H1674 0.951 . S
C1699 C1697 1.388 . S
C1699 C1700 1.366 . S
C1700 C1699 1.366 . S
C1700 C1701 1.414 . S
C1700 C1703 1.499 . S
C1701 H1675 0.950 . S
C1701 C1700 1.414 . S
C1701 C1702 1.374 . S
C1702 H1676 0.950 . S
C1702 C1698 1.385 . S
C1702 C1701 1.374 . S
C1703 C1700 1.499 . S
C1703 C1704 1.373 . S
C1703 C1705 1.389 . S
C1704 H1677 0.950 . S
C1704 C1690 1.377 . S
C1704 C1703 1.373 . S
C1705 C1689 1.377 . S
C1705 C1703 1.389 . S
C1705 C1706 1.524 . S
C1706 C1705 1.524 . S
C1706 C1707 1.397 . S
C1706 C1711 1.363 . S
C1707 H1678 0.950 . S
C1707 C1706 1.397 . S
C1707 C1708 1.334 . S
C1708 H1679 0.950 . S
C1708 C1707 1.334 . S
C1708 C1709 1.287 . S
C1709 C1708 1.287 . S
C1709 C1710 1.524 . S
C1709 H1712 0.999 . S
C1710 H1680 0.950 . S
C1710 C1709 1.524 . S
C1710 C1711 1.415 . S
C1711 H1681 0.950 . S
C1711 C1706 1.363 . S
C1711 C1710 1.415 . S
H1712 C1709 0.999 . S
H1713 C1694 0.913 . S
H1714 C1732 0.951 . S
H1715 C1734 0.951 . S
H1716 C1736 0.950 . S
H1717 C1737 0.950 . S
H1718 C1739 0.950 . S
H1719 C1742 0.950 . S
H1720 C1743 0.950 . S
H1721 C1745 0.950 . S
H1722 C1746 0.950 . S
H1723 C1747 0.951 . S
H1724 C1749 0.951 . S
H1725 C1751 0.950 . S
H1726 C1752 0.950 . S
H1727 C1754 0.950 . S
H1728 C1757 0.950 . S
H1729 C1758 0.950 . S
H1730 C1760 0.950 . S
H1731 C1761 0.950 . S
C1732 H1714 0.951 . S
C1732 C1733 1.366 . S
C1732 C1734 1.388 . S
C1733 C1732 1.366 . S
C1733 C1737 1.385 . S
C1734 H1715 0.951 . S
C1734 C1732 1.388 . S
C1734 C1735 1.366 . S
C1735 C1734 1.366 . S
C1735 C1736 1.414 . S
C1735 C1738 1.499 . S
C1736 H1716 0.950 . S
C1736 C1735 1.414 . S
C1736 C1737 1.374 . S
C1737 H1717 0.950 . S
C1737 C1733 1.385 . S
C1737 C1736 1.374 . S
C1738 C1735 1.499 . S
C1738 C1739 1.373 . S
C1738 C1740 1.389 . S
C1739 H1718 0.950 . S
C1739 C1738 1.373 . S
C1739 C1755 1.377 . S
C1740 C1738 1.389 . S
C1740 C1741 1.524 . S
C1740 C1754 1.377 . S
C1741 C1740 1.524 . S
C1741 C1742 1.397 . S
C1741 C1746 1.363 . S
C1742 H1719 0.950 . S
C1742 C1741 1.397 . S
C1742 C1743 1.334 . S
C1743 H1720 0.950 . S
C1743 C1742 1.334 . S
C1743 C1744 1.287 . S
C1744 C1743 1.287 . S
C1744 C1745 1.524 . S
C1744 H1763 0.913 . S
C1745 H1721 0.950 . S
C1745 C1744 1.524 . S
C1745 C1746 1.415 . S
C1746 H1722 0.950 . S
C1746 C1741 1.363 . S
C1746 C1745 1.415 . S
C1747 H1723 0.951 . S
C1747 C1748 1.366 . S
C1747 C1749 1.388 . S
C1748 C1747 1.366 . S
C1748 C1752 1.385 . S
C1749 H1724 0.951 . S
C1749 C1747 1.388 . S
C1749 C1750 1.366 . S
C1750 C1749 1.366 . S
C1750 C1751 1.414 . S
C1750 C1753 1.499 . S
C1751 H1725 0.950 . S
C1751 C1750 1.414 . S
C1751 C1752 1.374 . S
C1752 H1726 0.950 . S
C1752 C1748 1.385 . S
C1752 C1751 1.374 . S
C1753 C1750 1.499 . S
C1753 C1754 1.373 . S
C1753 C1755 1.389 . S
C1754 H1727 0.950 . S
C1754 C1740 1.377 . S
C1754 C1753 1.373 . S
C1755 C1739 1.377 . S
C1755 C1753 1.389 . S
C1755 C1756 1.524 . S
C1756 C1755 1.524 . S
C1756 C1757 1.397 . S
C1756 C1761 1.363 . S
C1757 H1728 0.950 . S
C1757 C1756 1.397 . S
C1757 C1758 1.334 . S
C1758 H1729 0.950 . S
C1758 C1757 1.334 . S
C1758 C1759 1.287 . S
C1759 C1758 1.287 . S
C1759 C1760 1.524 . S
C1759 H1762 0.999 . S
C1760 H1730 0.950 . S
C1760 C1759 1.524 . S
C1760 C1761 1.415 . S
C1761 H1731 0.950 . S
C1761 C1756 1.363 . S
C1761 C1760 1.415 . S
H1762 C1759 0.999 . S
H1763 C1744 0.913 . S
H1764 C1782 0.951 . S
H1765 C1784 0.951 . S
H1766 C1786 0.950 . S
H1767 C1787 0.950 . S
H1768 C1789 0.950 . S
H1769 C1792 0.950 . S
H1770 C1793 0.950 . S
H1771 C1795 0.950 . S
H1772 C1796 0.950 . S
H1773 C1797 0.951 . S
H1774 C1799 0.951 . S
H1775 C1801 0.950 . S
H1776 C1802 0.950 . S
H1777 C1804 0.950 . S
H1778 C1807 0.950 . S
H1779 C1808 0.950 . S
H1780 C1810 0.950 . S
H1781 C1811 0.950 . S
C1782 H1764 0.951 . S
C1782 C1783 1.366 . S
C1782 C1784 1.388 . S
C1783 C1782 1.366 . S
C1783 C1787 1.385 . S
C1784 H1765 0.951 . S
C1784 C1782 1.388 . S
C1784 C1785 1.366 . S
C1785 C1784 1.366 . S
C1785 C1786 1.414 . S
C1785 C1788 1.499 . S
C1786 H1766 0.950 . S
C1786 C1785 1.414 . S
C1786 C1787 1.374 . S
C1787 H1767 0.950 . S
C1787 C1783 1.385 . S
C1787 C1786 1.374 . S
C1788 C1785 1.499 . S
C1788 C1789 1.373 . S
C1788 C1790 1.389 . S
C1789 H1768 0.950 . S
C1789 C1788 1.373 . S
C1789 C1805 1.377 . S
C1790 C1788 1.389 . S
C1790 C1791 1.524 . S
C1790 C1804 1.377 . S
C1791 C1790 1.524 . S
C1791 C1792 1.397 . S
C1791 C1796 1.363 . S
C1792 H1769 0.950 . S
C1792 C1791 1.397 . S
C1792 C1793 1.334 . S
C1793 H1770 0.950 . S
C1793 C1792 1.334 . S
C1793 C1794 1.287 . S
C1794 C1793 1.287 . S
C1794 C1795 1.524 . S
C1794 H1813 0.913 . S
C1795 H1771 0.950 . S
C1795 C1794 1.524 . S
C1795 C1796 1.415 . S
C1796 H1772 0.950 . S
C1796 C1791 1.363 . S
C1796 C1795 1.415 . S
C1797 H1773 0.951 . S
C1797 C1798 1.366 . S
C1797 C1799 1.388 . S
C1798 C1797 1.366 . S
C1798 C1802 1.385 . S
C1799 H1774 0.951 . S
C1799 C1797 1.388 . S
C1799 C1800 1.366 . S
C1800 C1799 1.366 . S
C1800 C1801 1.414 . S
C1800 C1803 1.499 . S
C1801 H1775 0.950 . S
C1801 C1800 1.414 . S
C1801 C1802 1.374 . S
C1802 H1776 0.950 . S
C1802 C1798 1.385 . S
C1802 C1801 1.374 . S
C1803 C1800 1.499 . S
C1803 C1804 1.373 . S
C1803 C1805 1.389 . S
C1804 H1777 0.950 . S
C1804 C1790 1.377 . S
C1804 C1803 1.373 . S
C1805 C1789 1.377 . S
C1805 C1803 1.389 . S
C1805 C1806 1.524 . S
C1806 C1805 1.524 . S
C1806 C1807 1.397 . S
C1806 C1811 1.363 . S
C1807 H1778 0.950 . S
C1807 C1806 1.397 . S
C1807 C1808 1.334 . S
C1808 H1779 0.950 . S
C1808 C1807 1.334 . S
C1808 C1809 1.287 . S
C1809 C1808 1.287 . S
C1809 C1810 1.524 . S
C1809 H1812 0.999 . S
C1810 H1780 0.950 . S
C1810 C1809 1.524 . S
C1810 C1811 1.415 . S
C1811 H1781 0.950 . S
C1811 C1806 1.363 . S
C1811 C1810 1.415 . S
H1812 C1809 0.999 . S
H1813 C1794 0.913 . S
H1814 C1832 0.951 . S
H1815 C1834 0.951 . S
H1816 C1836 0.950 . S
H1817 C1837 0.950 . S
H1818 C1839 0.950 . S
H1819 C1842 0.950 . S
H1820 C1843 0.950 . S
H1821 C1845 0.950 . S
H1822 C1846 0.950 . S
H1823 C1847 0.951 . S
H1824 C1849 0.951 . S
H1825 C1851 0.950 . S
H1826 C1852 0.950 . S
H1827 C1854 0.950 . S
H1828 C1857 0.950 . S
H1829 C1858 0.950 . S
H1830 C1860 0.950 . S
H1831 C1861 0.950 . S
C1832 H1814 0.951 . S
C1832 C1833 1.366 . S
C1832 C1834 1.388 . S
C1833 C1832 1.366 . S
C1833 C1837 1.385 . S
C1834 H1815 0.951 . S
C1834 C1832 1.388 . S
C1834 C1835 1.366 . S
C1835 C1834 1.366 . S
C1835 C1836 1.414 . S
C1835 C1838 1.499 . S
C1836 H1816 0.950 . S
C1836 C1835 1.414 . S
C1836 C1837 1.374 . S
C1837 H1817 0.950 . S
C1837 C1833 1.385 . S
C1837 C1836 1.374 . S
C1838 C1835 1.499 . S
C1838 C1839 1.373 . S
C1838 C1840 1.389 . S
C1839 H1818 0.950 . S
C1839 C1838 1.373 . S
C1839 C1855 1.377 . S
C1840 C1838 1.389 . S
C1840 C1841 1.524 . S
C1840 C1854 1.377 . S
C1841 C1840 1.524 . S
C1841 C1842 1.397 . S
C1841 C1846 1.363 . S
C1842 H1819 0.950 . S
C1842 C1841 1.397 . S
C1842 C1843 1.334 . S
C1843 H1820 0.950 . S
C1843 C1842 1.334 . S
C1843 C1844 1.287 . S
C1844 C1843 1.287 . S
C1844 C1845 1.524 . S
C1844 H1863 0.913 . S
C1845 H1821 0.950 . S
C1845 C1844 1.524 . S
C1845 C1846 1.415 . S
C1846 H1822 0.950 . S
C1846 C1841 1.363 . S
C1846 C1845 1.415 . S
C1847 H1823 0.951 . S
C1847 C1848 1.366 . S
C1847 C1849 1.388 . S
C1848 C1847 1.366 . S
C1848 C1852 1.385 . S
C1849 H1824 0.951 . S
C1849 C1847 1.388 . S
C1849 C1850 1.366 . S
C1850 C1849 1.366 . S
C1850 C1851 1.414 . S
C1850 C1853 1.499 . S
C1851 H1825 0.950 . S
C1851 C1850 1.414 . S
C1851 C1852 1.374 . S
C1852 H1826 0.950 . S
C1852 C1848 1.385 . S
C1852 C1851 1.374 . S
C1853 C1850 1.499 . S
C1853 C1854 1.373 . S
C1853 C1855 1.389 . S
C1854 H1827 0.950 . S
C1854 C1840 1.377 . S
C1854 C1853 1.373 . S
C1855 C1839 1.377 . S
C1855 C1853 1.389 . S
C1855 C1856 1.524 . S
C1856 C1855 1.524 . S
C1856 C1857 1.397 . S
C1856 C1861 1.363 . S
C1857 H1828 0.950 . S
C1857 C1856 1.397 . S
C1857 C1858 1.334 . S
C1858 H1829 0.950 . S
C1858 C1857 1.334 . S
C1858 C1859 1.287 . S
C1859 C1858 1.287 . S
C1859 C1860 1.524 . S
C1859 H1862 0.999 . S
C1860 H1830 0.950 . S
C1860 C1859 1.524 . S
C1860 C1861 1.415 . S
C1861 H1831 0.950 . S
C1861 C1856 1.363 . S
C1861 C1860 1.415 . S
H1862 C1859 0.999 . S
H1863 C1844 0.913 . S
H1864 C1882 0.951 . S
H1865 C1884 0.951 . S
H1866 C1886 0.950 . S
H1867 C1887 0.950 . S
H1868 C1889 0.950 . S
H1869 C1892 0.950 . S
H1870 C1893 0.950 . S
H1871 C1895 0.950 . S
H1872 C1896 0.950 . S
H1873 C1897 0.951 . S
H1874 C1899 0.951 . S
H1875 C1901 0.950 . S
H1876 C1902 0.950 . S
H1877 C1904 0.950 . S
H1878 C1907 0.950 . S
H1879 C1908 0.950 . S
H1880 C1910 0.950 . S
H1881 C1911 0.950 . S
C1882 H1864 0.951 . S
C1882 C1883 1.366 . S
C1882 C1884 1.388 . S
C1883 C1882 1.366 . S
C1883 C1887 1.385 . S
C1884 H1865 0.951 . S
C1884 C1882 1.388 . S
C1884 C1885 1.366 . S
C1885 C1884 1.366 . S
C1885 C1886 1.414 . S
C1885 C1888 1.499 . S
C1886 H1866 0.950 . S
C1886 C1885 1.414 . S
C1886 C1887 1.374 . S
C1887 H1867 0.950 . S
C1887 C1883 1.385 . S
C1887 C1886 1.374 . S
C1888 C1885 1.499 . S
C1888 C1889 1.373 . S
C1888 C1890 1.389 . S
C1889 H1868 0.950 . S
C1889 C1888 1.373 . S
C1889 C1905 1.377 . S
C1890 C1888 1.389 . S
C1890 C1891 1.524 . S
C1890 C1904 1.377 . S
C1891 C1890 1.524 . S
C1891 C1892 1.397 . S
C1891 C1896 1.363 . S
C1892 H1869 0.950 . S
C1892 C1891 1.397 . S
C1892 C1893 1.334 . S
C1893 H1870 0.950 . S
C1893 C1892 1.334 . S
C1893 C1894 1.287 . S
C1894 C1893 1.287 . S
C1894 C1895 1.524 . S
C1894 H1913 0.913 . S
C1895 H1871 0.950 . S
C1895 C1894 1.524 . S
C1895 C1896 1.415 . S
C1896 H1872 0.950 . S
C1896 C1891 1.363 . S
C1896 C1895 1.415 . S
C1897 H1873 0.951 . S
C1897 C1898 1.366 . S
C1897 C1899 1.388 . S
C1898 C1897 1.366 . S
C1898 C1902 1.385 . S
C1899 H1874 0.951 . S
C1899 C1897 1.388 . S
C1899 C1900 1.366 . S
C1900 C1899 1.366 . S
C1900 C1901 1.414 . S
C1900 C1903 1.499 . S
C1901 H1875 0.950 . S
C1901 C1900 1.414 . S
C1901 C1902 1.374 . S
C1902 H1876 0.950 . S
C1902 C1898 1.385 . S
C1902 C1901 1.374 . S
C1903 C1900 1.499 . S
C1903 C1904 1.373 . S
C1903 C1905 1.389 . S
C1904 H1877 0.950 . S
C1904 C1890 1.377 . S
C1904 C1903 1.373 . S
C1905 C1889 1.377 . S
C1905 C1903 1.389 . S
C1905 C1906 1.524 . S
C1906 C1905 1.524 . S
C1906 C1907 1.397 . S
C1906 C1911 1.363 . S
C1907 H1878 0.950 . S
C1907 C1906 1.397 . S
C1907 C1908 1.334 . S
C1908 H1879 0.950 . S
C1908 C1907 1.334 . S
C1908 C1909 1.287 . S
C1909 C1908 1.287 . S
C1909 C1910 1.524 . S
C1909 H1912 1.028 . S
C1910 H1880 0.950 . S
C1910 C1909 1.524 . S
C1910 C1911 1.415 . S
C1911 H1881 0.950 . S
C1911 C1906 1.363 . S
C1911 C1910 1.415 . S
H1912 C1909 1.028 . S
H1913 C1894 0.913 . S
H1914 C1932 0.951 . S
H1915 C1934 0.951 . S
H1916 C1936 0.950 . S
H1917 C1937 0.950 . S
H1918 C1939 0.950 . S
H1919 C1942 0.950 . S
H1920 C1943 0.950 . S
H1921 C1945 0.950 . S
H1922 C1946 0.950 . S
H1923 C1947 0.951 . S
H1924 C1949 0.951 . S
H1925 C1951 0.950 . S
H1926 C1952 0.950 . S
H1927 C1954 0.950 . S
H1928 C1957 0.950 . S
H1929 C1958 0.950 . S
H1930 C1960 0.950 . S
H1931 C1961 0.950 . S
C1932 H1914 0.951 . S
C1932 C1933 1.366 . S
C1932 C1934 1.388 . S
C1933 C1932 1.366 . S
C1933 C1937 1.385 . S
C1934 H1915 0.951 . S
C1934 C1932 1.388 . S
C1934 C1935 1.366 . S
C1935 C1934 1.366 . S
C1935 C1936 1.414 . S
C1935 C1938 1.499 . S
C1936 H1916 0.950 . S
C1936 C1935 1.414 . S
C1936 C1937 1.374 . S
C1937 H1917 0.950 . S
C1937 C1933 1.385 . S
C1937 C1936 1.374 . S
C1938 C1935 1.499 . S
C1938 C1939 1.373 . S
C1938 C1940 1.389 . S
C1939 H1918 0.950 . S
C1939 C1938 1.373 . S
C1939 C1955 1.377 . S
C1940 C1938 1.389 . S
C1940 C1941 1.524 . S
C1940 C1954 1.377 . S
C1941 C1940 1.524 . S
C1941 C1942 1.397 . S
C1941 C1946 1.363 . S
C1942 H1919 0.950 . S
C1942 C1941 1.397 . S
C1942 C1943 1.334 . S
C1943 H1920 0.950 . S
C1943 C1942 1.334 . S
C1943 C1944 1.287 . S
C1944 C1943 1.287 . S
C1944 C1945 1.524 . S
C1944 H1963 0.913 . S
C1945 H1921 0.950 . S
C1945 C1944 1.524 . S
C1945 C1946 1.415 . S
C1946 H1922 0.950 . S
C1946 C1941 1.363 . S
C1946 C1945 1.415 . S
C1947 H1923 0.951 . S
C1947 C1948 1.366 . S
C1947 C1949 1.388 . S
C1948 C1947 1.366 . S
C1948 C1952 1.385 . S
C1949 H1924 0.951 . S
C1949 C1947 1.388 . S
C1949 C1950 1.366 . S
C1950 C1949 1.366 . S
C1950 C1951 1.414 . S
C1950 C1953 1.499 . S
C1951 H1925 0.950 . S
C1951 C1950 1.414 . S
C1951 C1952 1.374 . S
C1952 H1926 0.950 . S
C1952 C1948 1.385 . S
C1952 C1951 1.374 . S
C1953 C1950 1.499 . S
C1953 C1954 1.373 . S
C1953 C1955 1.389 . S
C1954 H1927 0.950 . S
C1954 C1940 1.377 . S
C1954 C1953 1.373 . S
C1955 C1939 1.377 . S
C1955 C1953 1.389 . S
C1955 C1956 1.524 . S
C1956 C1955 1.524 . S
C1956 C1957 1.397 . S
C1956 C1961 1.363 . S
C1957 H1928 0.950 . S
C1957 C1956 1.397 . S
C1957 C1958 1.334 . S
C1958 H1929 0.950 . S
C1958 C1957 1.334 . S
C1958 C1959 1.287 . S
C1959 C1958 1.287 . S
C1959 C1960 1.524 . S
C1959 H1962 0.999 . S
C1960 H1930 0.950 . S
C1960 C1959 1.524 . S
C1960 C1961 1.415 . S
C1961 H1931 0.950 . S
C1961 C1956 1.363 . S
C1961 C1960 1.415 . S
H1962 C1959 0.999 . S
H1963 C1944 0.913 . S
H1964 C1982 0.951 . S
H1965 C1984 0.951 . S
H1966 C1986 0.950 . S
H1967 C1987 0.950 . S
H1968 C1989 0.950 . S
H1969 C1992 0.950 . S
H1970 C1993 0.950 . S
H1971 C1995 0.950 . S
H1972 C1996 0.950 . S
H1973 C1997 0.951 . S
H1974 C1999 0.951 . S
H1975 C2001 0.950 . S
H1976 C2002 0.950 . S
H1977 C2004 0.950 . S
H1978 C2007 0.950 . S
H1979 C2008 0.950 . S
H1980 C2010 0.950 . S
H1981 C2011 0.950 . S
C1982 H1964 0.951 . S
C1982 C1983 1.366 . S
C1982 C1984 1.388 . S
C1983 C1982 1.366 . S
C1983 C1987 1.385 . S
C1984 H1965 0.951 . S
C1984 C1982 1.388 . S
C1984 C1985 1.366 . S
C1985 C1984 1.366 . S
C1985 C1986 1.414 . S
C1985 C1988 1.499 . S
C1986 H1966 0.950 . S
C1986 C1985 1.414 . S
C1986 C1987 1.374 . S
C1987 H1967 0.950 . S
C1987 C1983 1.385 . S
C1987 C1986 1.374 . S
C1988 C1985 1.499 . S
C1988 C1989 1.373 . S
C1988 C1990 1.389 . S
C1989 H1968 0.950 . S
C1989 C1988 1.373 . S
C1989 C2005 1.377 . S
C1990 C1988 1.389 . S
C1990 C1991 1.524 . S
C1990 C2004 1.377 . S
C1991 C1990 1.524 . S
C1991 C1992 1.397 . S
C1991 C1996 1.363 . S
C1992 H1969 0.950 . S
C1992 C1991 1.397 . S
C1992 C1993 1.334 . S
C1993 H1970 0.950 . S
C1993 C1992 1.334 . S
C1993 C1994 1.287 . S
C1994 C1993 1.287 . S
C1994 C1995 1.524 . S
C1994 H2013 0.913 . S
C1995 H1971 0.950 . S
C1995 C1994 1.524 . S
C1995 C1996 1.415 . S
C1996 H1972 0.950 . S
C1996 C1991 1.363 . S
C1996 C1995 1.415 . S
C1997 H1973 0.951 . S
C1997 C1998 1.366 . S
C1997 C1999 1.388 . S
C1998 C1997 1.366 . S
C1998 C2002 1.385 . S
C1999 H1974 0.951 . S
C1999 C1997 1.388 . S
C1999 C2000 1.366 . S
C2000 C1999 1.366 . S
C2000 C2001 1.414 . S
C2000 C2003 1.499 . S
C2001 H1975 0.950 . S
C2001 C2000 1.414 . S
C2001 C2002 1.374 . S
C2002 H1976 0.950 . S
C2002 C1998 1.385 . S
C2002 C2001 1.374 . S
C2003 C2000 1.499 . S
C2003 C2004 1.373 . S
C2003 C2005 1.389 . S
C2004 H1977 0.950 . S
C2004 C1990 1.377 . S
C2004 C2003 1.373 . S
C2005 C1989 1.377 . S
C2005 C2003 1.389 . S
C2005 C2006 1.524 . S
C2006 C2005 1.524 . S
C2006 C2007 1.397 . S
C2006 C2011 1.363 . S
C2007 H1978 0.950 . S
C2007 C2006 1.397 . S
C2007 C2008 1.334 . S
C2008 H1979 0.950 . S
C2008 C2007 1.334 . S
C2008 C2009 1.287 . S
C2009 C2008 1.287 . S
C2009 C2010 1.524 . S
C2009 H2012 0.999 . S
C2010 H1980 0.950 . S
C2010 C2009 1.524 . S
C2010 C2011 1.415 . S
C2011 H1981 0.950 . S
C2011 C2006 1.363 . S
C2011 C2010 1.415 . S
H2012 C2009 0.999 . S
H2013 C1994 0.913 . S
H2014 C2032 0.951 . S
H2015 C2034 0.951 . S
H2016 C2036 0.950 . S
H2017 C2037 0.950 . S
H2018 C2039 0.950 . S
H2019 C2042 0.950 . S
H2020 C2043 0.950 . S
H2021 C2045 0.950 . S
H2022 C2046 0.950 . S
H2023 C2047 0.951 . S
H2024 C2049 0.951 . S
H2025 C2051 0.950 . S
H2026 C2052 0.950 . S
H2027 C2054 0.950 . S
H2028 C2057 0.950 . S
H2029 C2058 0.950 . S
H2030 C2060 0.950 . S
H2031 C2061 0.950 . S
C2032 H2014 0.951 . S
C2032 C2033 1.366 . S
C2032 C2034 1.388 . S
C2033 C2032 1.366 . S
C2033 C2037 1.385 . S
C2034 H2015 0.951 . S
C2034 C2032 1.388 . S
C2034 C2035 1.366 . S
C2035 C2034 1.366 . S
C2035 C2036 1.414 . S
C2035 C2038 1.499 . S
C2036 H2016 0.950 . S
C2036 C2035 1.414 . S
C2036 C2037 1.374 . S
C2037 H2017 0.950 . S
C2037 C2033 1.385 . S
C2037 C2036 1.374 . S
C2038 C2035 1.499 . S
C2038 C2039 1.373 . S
C2038 C2040 1.389 . S
C2039 H2018 0.950 . S
C2039 C2038 1.373 . S
C2039 C2055 1.377 . S
C2040 C2038 1.389 . S
C2040 C2041 1.524 . S
C2040 C2054 1.377 . S
C2041 C2040 1.524 . S
C2041 C2042 1.397 . S
C2041 C2046 1.363 . S
C2042 H2019 0.950 . S
C2042 C2041 1.397 . S
C2042 C2043 1.334 . S
C2043 H2020 0.950 . S
C2043 C2042 1.334 . S
C2043 C2044 1.287 . S
C2044 C2043 1.287 . S
C2044 C2045 1.524 . S
C2044 H2063 0.913 . S
C2045 H2021 0.950 . S
C2045 C2044 1.524 . S
C2045 C2046 1.415 . S
C2046 H2022 0.950 . S
C2046 C2041 1.363 . S
C2046 C2045 1.415 . S
C2047 H2023 0.951 . S
C2047 C2048 1.366 . S
C2047 C2049 1.388 . S
C2048 C2047 1.366 . S
C2048 C2052 1.385 . S
C2049 H2024 0.951 . S
C2049 C2047 1.388 . S
C2049 C2050 1.366 . S
C2050 C2049 1.366 . S
C2050 C2051 1.414 . S
C2050 C2053 1.499 . S
C2051 H2025 0.950 . S
C2051 C2050 1.414 . S
C2051 C2052 1.374 . S
C2052 H2026 0.950 . S
C2052 C2048 1.385 . S
C2052 C2051 1.374 . S
C2053 C2050 1.499 . S
C2053 C2054 1.373 . S
C2053 C2055 1.389 . S
C2054 H2027 0.950 . S
C2054 C2040 1.377 . S
C2054 C2053 1.373 . S
C2055 C2039 1.377 . S
C2055 C2053 1.389 . S
C2055 C2056 1.524 . S
C2056 C2055 1.524 . S
C2056 C2057 1.397 . S
C2056 C2061 1.363 . S
C2057 H2028 0.950 . S
C2057 C2056 1.397 . S
C2057 C2058 1.334 . S
C2058 H2029 0.950 . S
C2058 C2057 1.334 . S
C2058 C2059 1.287 . S
C2059 C2058 1.287 . S
C2059 C2060 1.524 . S
C2059 H2062 0.999 . S
C2060 H2030 0.950 . S
C2060 C2059 1.524 . S
C2060 C2061 1.415 . S
C2061 H2031 0.950 . S
C2061 C2056 1.363 . S
C2061 C2060 1.415 . S
H2062 C2059 0.999 . S
H2063 C2044 0.913 . S
H2064 C2082 0.951 . S
H2065 C2084 0.951 . S
H2066 C2086 0.950 . S
H2067 C2087 0.950 . S
H2068 C2089 0.950 . S
H2069 C2092 0.950 . S
H2070 C2093 0.950 . S
H2071 C2095 0.950 . S
H2072 C2096 0.950 . S
H2073 C2097 0.951 . S
H2074 C2099 0.951 . S
H2075 C2101 0.950 . S
H2076 C2102 0.950 . S
H2077 C2104 0.950 . S
H2078 C2107 0.950 . S
H2079 C2108 0.950 . S
H2080 C2110 0.950 . S
H2081 C2111 0.950 . S
C2082 H2064 0.951 . S
C2082 C2083 1.366 . S
C2082 C2084 1.388 . S
C2083 C2082 1.366 . S
C2083 C2087 1.385 . S
C2084 H2065 0.951 . S
C2084 C2082 1.388 . S
C2084 C2085 1.366 . S
C2085 C2084 1.366 . S
C2085 C2086 1.414 . S
C2085 C2088 1.499 . S
C2086 H2066 0.950 . S
C2086 C2085 1.414 . S
C2086 C2087 1.374 . S
C2087 H2067 0.950 . S
C2087 C2083 1.385 . S
C2087 C2086 1.374 . S
C2088 C2085 1.499 . S
C2088 C2089 1.373 . S
C2088 C2090 1.389 . S
C2089 H2068 0.950 . S
C2089 C2088 1.373 . S
C2089 C2105 1.377 . S
C2090 C2088 1.389 . S
C2090 C2091 1.524 . S
C2090 C2104 1.377 . S
C2091 C2090 1.524 . S
C2091 C2092 1.397 . S
C2091 C2096 1.363 . S
C2092 H2069 0.950 . S
C2092 C2091 1.397 . S
C2092 C2093 1.334 . S
C2093 H2070 0.950 . S
C2093 C2092 1.334 . S
C2093 C2094 1.287 . S
C2094 C2093 1.287 . S
C2094 C2095 1.524 . S
C2094 H2113 0.913 . S
C2095 H2071 0.950 . S
C2095 C2094 1.524 . S
C2095 C2096 1.415 . S
C2096 H2072 0.950 . S
C2096 C2091 1.363 . S
C2096 C2095 1.415 . S
C2097 H2073 0.951 . S
C2097 C2098 1.366 . S
C2097 C2099 1.388 . S
C2098 C2097 1.366 . S
C2098 C2102 1.385 . S
C2099 H2074 0.951 . S
C2099 C2097 1.388 . S
C2099 C2100 1.366 . S
C2100 C2099 1.366 . S
C2100 C2101 1.414 . S
C2100 C2103 1.499 . S
C2101 H2075 0.950 . S
C2101 C2100 1.414 . S
C2101 C2102 1.374 . S
C2102 H2076 0.950 . S
C2102 C2098 1.385 . S
C2102 C2101 1.374 . S
C2103 C2100 1.499 . S
C2103 C2104 1.373 . S
C2103 C2105 1.389 . S
C2104 H2077 0.950 . S
C2104 C2090 1.377 . S
C2104 C2103 1.373 . S
C2105 C2089 1.377 . S
C2105 C2103 1.389 . S
C2105 C2106 1.524 . S
C2106 C2105 1.524 . S
C2106 C2107 1.397 . S
C2106 C2111 1.363 . S
C2107 H2078 0.950 . S
C2107 C2106 1.397 . S
C2107 C2108 1.334 . S
C2108 H2079 0.950 . S
C2108 C2107 1.334 . S
C2108 C2109 1.287 . S
C2109 C2108 1.287 . S
C2109 C2110 1.524 . S
C2109 H2112 0.999 . S
C2110 H2080 0.950 . S
C2110 C2109 1.524 . S
C2110 C2111 1.415 . S
C2111 H2081 0.950 . S
C2111 C2106 1.363 . S
C2111 C2110 1.415 . S
H2112 C2109 0.999 . S
H2113 C2094 0.913 . S
H2114 C2132 0.951 . S
H2115 C2134 0.951 . S
H2116 C2136 0.950 . S
H2117 C2137 0.950 . S
H2118 C2139 0.950 . S
H2119 C2142 0.950 . S
H2120 C2143 0.950 . S
H2121 C2145 0.950 . S
H2122 C2146 0.950 . S
H2123 C2147 0.951 . S
H2124 C2149 0.951 . S
H2125 C2151 0.950 . S
H2126 C2152 0.950 . S
H2127 C2154 0.950 . S
H2128 C2157 0.950 . S
H2129 C2158 0.950 . S
H2130 C2160 0.950 . S
H2131 C2161 0.950 . S
C2132 H2114 0.951 . S
C2132 C2133 1.366 . S
C2132 C2134 1.388 . S
C2133 C2132 1.366 . S
C2133 C2137 1.385 . S
C2134 H2115 0.951 . S
C2134 C2132 1.388 . S
C2134 C2135 1.366 . S
C2135 C2134 1.366 . S
C2135 C2136 1.414 . S
C2135 C2138 1.499 . S
C2136 H2116 0.950 . S
C2136 C2135 1.414 . S
C2136 C2137 1.374 . S
C2137 H2117 0.950 . S
C2137 C2133 1.385 . S
C2137 C2136 1.374 . S
C2138 C2135 1.499 . S
C2138 C2139 1.373 . S
C2138 C2140 1.389 . S
C2139 H2118 0.950 . S
C2139 C2138 1.373 . S
C2139 C2155 1.377 . S
C2140 C2138 1.389 . S
C2140 C2141 1.524 . S
C2140 C2154 1.377 . S
C2141 C2140 1.524 . S
C2141 C2142 1.397 . S
C2141 C2146 1.363 . S
C2142 H2119 0.950 . S
C2142 C2141 1.397 . S
C2142 C2143 1.334 . S
C2143 H2120 0.950 . S
C2143 C2142 1.334 . S
C2143 C2144 1.287 . S
C2144 C2143 1.287 . S
C2144 C2145 1.524 . S
C2144 H2163 0.913 . S
C2145 H2121 0.950 . S
C2145 C2144 1.524 . S
C2145 C2146 1.415 . S
C2146 H2122 0.950 . S
C2146 C2141 1.363 . S
C2146 C2145 1.415 . S
C2147 H2123 0.951 . S
C2147 C2148 1.366 . S
C2147 C2149 1.388 . S
C2148 C2147 1.366 . S
C2148 C2152 1.385 . S
C2149 H2124 0.951 . S
C2149 C2147 1.388 . S
C2149 C2150 1.366 . S
C2150 C2149 1.366 . S
C2150 C2151 1.414 . S
C2150 C2153 1.499 . S
C2151 H2125 0.950 . S
C2151 C2150 1.414 . S
C2151 C2152 1.374 . S
C2152 H2126 0.950 . S
C2152 C2148 1.385 . S
C2152 C2151 1.374 . S
C2153 C2150 1.499 . S
C2153 C2154 1.373 . S
C2153 C2155 1.389 . S
C2154 H2127 0.950 . S
C2154 C2140 1.377 . S
C2154 C2153 1.373 . S
C2155 C2139 1.377 . S
C2155 C2153 1.389 . S
C2155 C2156 1.524 . S
C2156 C2155 1.524 . S
C2156 C2157 1.397 . S
C2156 C2161 1.363 . S
C2157 H2128 0.950 . S
C2157 C2156 1.397 . S
C2157 C2158 1.334 . S
C2158 H2129 0.950 . S
C2158 C2157 1.334 . S
C2158 C2159 1.287 . S
C2159 C2158 1.287 . S
C2159 C2160 1.524 . S
C2159 H2162 0.999 . S
C2160 H2130 0.950 . S
C2160 C2159 1.524 . S
C2160 C2161 1.415 . S
C2161 H2131 0.950 . S
C2161 C2156 1.363 . S
C2161 C2160 1.415 . S
H2162 C2159 0.999 . S
H2163 C2144 0.913 . S
H2164 C2182 0.951 . S
H2165 C2184 0.951 . S
H2166 C2186 0.950 . S
H2167 C2187 0.950 . S
H2168 C2189 0.950 . S
H2169 C2192 0.950 . S
H2170 C2193 0.950 . S
H2171 C2195 0.950 . S
H2172 C2196 0.950 . S
H2173 C2197 0.951 . S
H2174 C2199 0.951 . S
H2175 C2201 0.950 . S
H2176 C2202 0.950 . S
H2177 C2204 0.950 . S
H2178 C2207 0.950 . S
H2179 C2208 0.950 . S
H2180 C2210 0.950 . S
H2181 C2211 0.950 . S
C2182 H2164 0.951 . S
C2182 C2183 1.366 . S
C2182 C2184 1.388 . S
C2183 C2182 1.366 . S
C2183 C2187 1.385 . S
C2184 H2165 0.951 . S
C2184 C2182 1.388 . S
C2184 C2185 1.366 . S
C2185 C2184 1.366 . S
C2185 C2186 1.414 . S
C2185 C2188 1.499 . S
C2186 H2166 0.950 . S
C2186 C2185 1.414 . S
C2186 C2187 1.374 . S
C2187 H2167 0.950 . S
C2187 C2183 1.385 . S
C2187 C2186 1.374 . S
C2188 C2185 1.499 . S
C2188 C2189 1.373 . S
C2188 C2190 1.389 . S
C2189 H2168 0.950 . S
C2189 C2188 1.373 . S
C2189 C2205 1.377 . S
C2190 C2188 1.389 . S
C2190 C2191 1.524 . S
C2190 C2204 1.377 . S
C2191 C2190 1.524 . S
C2191 C2192 1.397 . S
C2191 C2196 1.363 . S
C2192 H2169 0.950 . S
C2192 C2191 1.397 . S
C2192 C2193 1.334 . S
C2193 H2170 0.950 . S
C2193 C2192 1.334 . S
C2193 C2194 1.287 . S
C2194 C2193 1.287 . S
C2194 C2195 1.524 . S
C2194 H2213 0.913 . S
C2195 H2171 0.950 . S
C2195 C2194 1.524 . S
C2195 C2196 1.415 . S
C2196 H2172 0.950 . S
C2196 C2191 1.363 . S
C2196 C2195 1.415 . S
C2197 H2173 0.951 . S
C2197 C2198 1.366 . S
C2197 C2199 1.388 . S
C2198 C2197 1.366 . S
C2198 C2202 1.385 . S
C2199 H2174 0.951 . S
C2199 C2197 1.388 . S
C2199 C2200 1.366 . S
C2200 C2199 1.366 . S
C2200 C2201 1.414 . S
C2200 C2203 1.499 . S
C2201 H2175 0.950 . S
C2201 C2200 1.414 . S
C2201 C2202 1.374 . S
C2202 H2176 0.950 . S
C2202 C2198 1.385 . S
C2202 C2201 1.374 . S
C2203 C2200 1.499 . S
C2203 C2204 1.373 . S
C2203 C2205 1.389 . S
C2204 H2177 0.950 . S
C2204 C2190 1.377 . S
C2204 C2203 1.373 . S
C2205 C2189 1.377 . S
C2205 C2203 1.389 . S
C2205 C2206 1.524 . S
C2206 C2205 1.524 . S
C2206 C2207 1.397 . S
C2206 C2211 1.363 . S
C2207 H2178 0.950 . S
C2207 C2206 1.397 . S
C2207 C2208 1.334 . S
C2208 H2179 0.950 . S
C2208 C2207 1.334 . S
C2208 C2209 1.287 . S
C2209 C2208 1.287 . S
C2209 C2210 1.524 . S
C2209 H2212 0.999 . S
C2210 H2180 0.950 . S
C2210 C2209 1.524 . S
C2210 C2211 1.415 . S
C2211 H2181 0.950 . S
C2211 C2206 1.363 . S
C2211 C2210 1.415 . S
H2212 C2209 0.999 . S
H2213 C2194 0.913 . S
H2214 C2232 0.951 . S
H2215 C2234 0.951 . S
H2216 C2236 0.950 . S
H2217 C2237 0.950 . S
H2218 C2239 0.950 . S
H2219 C2242 0.950 . S
H2220 C2243 0.950 . S
H2221 C2245 0.950 . S
H2222 C2246 0.950 . S
H2223 C2247 0.951 . S
H2224 C2249 0.951 . S
H2225 C2251 0.950 . S
H2226 C2252 0.950 . S
H2227 C2254 0.950 . S
H2228 C2257 0.950 . S
H2229 C2258 0.950 . S
H2230 C2260 0.950 . S
H2231 C2261 0.950 . S
C2232 H2214 0.951 . S
C2232 C2233 1.366 . S
C2232 C2234 1.388 . S
C2233 C2232 1.366 . S
C2233 C2237 1.385 . S
C2234 H2215 0.951 . S
C2234 C2232 1.388 . S
C2234 C2235 1.366 . S
C2235 C2234 1.366 . S
C2235 C2236 1.414 . S
C2235 C2238 1.499 . S
C2236 H2216 0.950 . S
C2236 C2235 1.414 . S
C2236 C2237 1.374 . S
C2237 H2217 0.950 . S
C2237 C2233 1.385 . S
C2237 C2236 1.374 . S
C2238 C2235 1.499 . S
C2238 C2239 1.373 . S
C2238 C2240 1.389 . S
C2239 H2218 0.950 . S
C2239 C2238 1.373 . S
C2239 C2255 1.377 . S
C2240 C2238 1.389 . S
C2240 C2241 1.524 . S
C2240 C2254 1.377 . S
C2241 C2240 1.524 . S
C2241 C2242 1.397 . S
C2241 C2246 1.363 . S
C2242 H2219 0.950 . S
C2242 C2241 1.397 . S
C2242 C2243 1.334 . S
C2243 H2220 0.950 . S
C2243 C2242 1.334 . S
C2243 C2244 1.287 . S
C2244 C2243 1.287 . S
C2244 C2245 1.524 . S
C2244 H2263 0.913 . S
C2245 H2221 0.950 . S
C2245 C2244 1.524 . S
C2245 C2246 1.415 . S
C2246 H2222 0.950 . S
C2246 C2241 1.363 . S
C2246 C2245 1.415 . S
C2247 H2223 0.951 . S
C2247 C2248 1.366 . S
C2247 C2249 1.388 . S
C2248 C2247 1.366 . S
C2248 C2252 1.385 . S
C2249 H2224 0.951 . S
C2249 C2247 1.388 . S
C2249 C2250 1.366 . S
C2250 C2249 1.366 . S
C2250 C2251 1.414 . S
C2250 C2253 1.499 . S
C2251 H2225 0.950 . S
C2251 C2250 1.414 . S
C2251 C2252 1.374 . S
C2252 H2226 0.950 . S
C2252 C2248 1.385 . S
C2252 C2251 1.374 . S
C2253 C2250 1.499 . S
C2253 C2254 1.373 . S
C2253 C2255 1.389 . S
C2254 H2227 0.950 . S
C2254 C2240 1.377 . S
C2254 C2253 1.373 . S
C2255 C2239 1.377 . S
C2255 C2253 1.389 . S
C2255 C2256 1.524 . S
C2256 C2255 1.524 . S
C2256 C2257 1.397 . S
C2256 C2261 1.363 . S
C2257 H2228 0.950 . S
C2257 C2256 1.397 . S
C2257 C2258 1.334 . S
C2258 H2229 0.950 . S
C2258 C2257 1.334 . S
C2258 C2259 1.287 . S
C2259 C2258 1.287 . S
C2259 C2260 1.524 . S
C2259 H2262 0.999 . S
C2260 H2230 0.950 . S
C2260 C2259 1.524 . S
C2260 C2261 1.415 . S
C2261 H2231 0.950 . S
C2261 C2256 1.363 . S
C2261 C2260 1.415 . S
H2262 C2259 0.999 . S
H2263 C2244 0.913 . S
H2264 C2282 0.951 . S
H2265 C2284 0.951 . S
H2266 C2286 0.950 . S
H2267 C2287 0.950 . S
H2268 C2289 0.950 . S
H2269 C2292 0.950 . S
H2270 C2293 0.950 . S
H2271 C2295 0.950 . S
H2272 C2296 0.950 . S
H2273 C2297 0.951 . S
H2274 C2299 0.951 . S
H2275 C2301 0.950 . S
H2276 C2302 0.950 . S
H2277 C2304 0.950 . S
H2278 C2307 0.950 . S
H2279 C2308 0.950 . S
H2280 C2310 0.950 . S
H2281 C2311 0.950 . S
C2282 H2264 0.951 . S
C2282 C2283 1.366 . S
C2282 C2284 1.388 . S
C2283 C2282 1.366 . S
C2283 C2287 1.385 . S
C2284 H2265 0.951 . S
C2284 C2282 1.388 . S
C2284 C2285 1.366 . S
C2285 C2284 1.366 . S
C2285 C2286 1.414 . S
C2285 C2288 1.499 . S
C2286 H2266 0.950 . S
C2286 C2285 1.414 . S
C2286 C2287 1.374 . S
C2287 H2267 0.950 . S
C2287 C2283 1.385 . S
C2287 C2286 1.374 . S
C2288 C2285 1.499 . S
C2288 C2289 1.373 . S
C2288 C2290 1.389 . S
C2289 H2268 0.950 . S
C2289 C2288 1.373 . S
C2289 C2305 1.377 . S
C2290 C2288 1.389 . S
C2290 C2291 1.524 . S
C2290 C2304 1.377 . S
C2291 C2290 1.524 . S
C2291 C2292 1.397 . S
C2291 C2296 1.363 . S
C2292 H2269 0.950 . S
C2292 C2291 1.397 . S
C2292 C2293 1.334 . S
C2293 H2270 0.950 . S
C2293 C2292 1.334 . S
C2293 C2294 1.287 . S
C2294 C2293 1.287 . S
C2294 C2295 1.524 . S
C2294 H2313 0.913 . S
C2295 H2271 0.950 . S
C2295 C2294 1.524 . S
C2295 C2296 1.415 . S
C2296 H2272 0.950 . S
C2296 C2291 1.363 . S
C2296 C2295 1.415 . S
C2297 H2273 0.951 . S
C2297 C2298 1.366 . S
C2297 C2299 1.388 . S
C2298 C2297 1.366 . S
C2298 C2302 1.385 . S
C2299 H2274 0.951 . S
C2299 C2297 1.388 . S
C2299 C2300 1.366 . S
C2300 C2299 1.366 . S
C2300 C2301 1.414 . S
C2300 C2303 1.499 . S
C2301 H2275 0.950 . S
C2301 C2300 1.414 . S
C2301 C2302 1.374 . S
C2302 H2276 0.950 . S
C2302 C2298 1.385 . S
C2302 C2301 1.374 . S
C2303 C2300 1.499 . S
C2303 C2304 1.373 . S
C2303 C2305 1.389 . S
C2304 H2277 0.950 . S
C2304 C2290 1.377 . S
C2304 C2303 1.373 . S
C2305 C2289 1.377 . S
C2305 C2303 1.389 . S
C2305 C2306 1.524 . S
C2306 C2305 1.524 . S
C2306 C2307 1.397 . S
C2306 C2311 1.363 . S
C2307 H2278 0.950 . S
C2307 C2306 1.397 . S
C2307 C2308 1.334 . S
C2308 H2279 0.950 . S
C2308 C2307 1.334 . S
C2308 C2309 1.287 . S
C2309 C2308 1.287 . S
C2309 C2310 1.524 . S
C2309 H2312 0.999 . S
C2310 H2280 0.950 . S
C2310 C2309 1.524 . S
C2310 C2311 1.415 . S
C2311 H2281 0.950 . S
C2311 C2306 1.363 . S
C2311 C2310 1.415 . S
H2312 C2309 0.999 . S
H2313 C2294 0.913 . S
H2314 C2332 0.951 . S
H2315 C2334 0.951 . S
H2316 C2336 0.950 . S
H2317 C2337 0.950 . S
H2318 C2339 0.950 . S
H2319 C2342 0.950 . S
H2320 C2343 0.950 . S
H2321 C2345 0.950 . S
H2322 C2346 0.950 . S
H2323 C2347 0.951 . S
H2324 C2349 0.951 . S
H2325 C2351 0.950 . S
H2326 C2352 0.950 . S
H2327 C2354 0.950 . S
H2328 C2357 0.950 . S
H2329 C2358 0.950 . S
H2330 C2360 0.950 . S
H2331 C2361 0.950 . S
C2332 H2314 0.951 . S
C2332 C2333 1.366 . S
C2332 C2334 1.388 . S
C2333 C2332 1.366 . S
C2333 C2337 1.385 . S
C2334 H2315 0.951 . S
C2334 C2332 1.388 . S
C2334 C2335 1.366 . S
C2335 C2334 1.366 . S
C2335 C2336 1.414 . S
C2335 C2338 1.499 . S
C2336 H2316 0.950 . S
C2336 C2335 1.414 . S
C2336 C2337 1.374 . S
C2337 H2317 0.950 . S
C2337 C2333 1.385 . S
C2337 C2336 1.374 . S
C2338 C2335 1.499 . S
C2338 C2339 1.373 . S
C2338 C2340 1.389 . S
C2339 H2318 0.950 . S
C2339 C2338 1.373 . S
C2339 C2355 1.377 . S
C2340 C2338 1.389 . S
C2340 C2341 1.524 . S
C2340 C2354 1.377 . S
C2341 C2340 1.524 . S
C2341 C2342 1.397 . S
C2341 C2346 1.363 . S
C2342 H2319 0.950 . S
C2342 C2341 1.397 . S
C2342 C2343 1.334 . S
C2343 H2320 0.950 . S
C2343 C2342 1.334 . S
C2343 C2344 1.287 . S
C2344 C2343 1.287 . S
C2344 C2345 1.524 . S
C2344 H2363 0.913 . S
C2345 H2321 0.950 . S
C2345 C2344 1.524 . S
C2345 C2346 1.415 . S
C2346 H2322 0.950 . S
C2346 C2341 1.363 . S
C2346 C2345 1.415 . S
C2347 H2323 0.951 . S
C2347 C2348 1.366 . S
C2347 C2349 1.388 . S
C2348 C2347 1.366 . S
C2348 C2352 1.385 . S
C2349 H2324 0.951 . S
C2349 C2347 1.388 . S
C2349 C2350 1.366 . S
C2350 C2349 1.366 . S
C2350 C2351 1.414 . S
C2350 C2353 1.499 . S
C2351 H2325 0.950 . S
C2351 C2350 1.414 . S
C2351 C2352 1.374 . S
C2352 H2326 0.950 . S
C2352 C2348 1.385 . S
C2352 C2351 1.374 . S
C2353 C2350 1.499 . S
C2353 C2354 1.373 . S
C2353 C2355 1.389 . S
C2354 H2327 0.950 . S
C2354 C2340 1.377 . S
C2354 C2353 1.373 . S
C2355 C2339 1.377 . S
C2355 C2353 1.389 . S
C2355 C2356 1.524 . S
C2356 C2355 1.524 . S
C2356 C2357 1.397 . S
C2356 C2361 1.363 . S
C2357 H2328 0.950 . S
C2357 C2356 1.397 . S
C2357 C2358 1.334 . S
C2358 H2329 0.950 . S
C2358 C2357 1.334 . S
C2358 C2359 1.287 . S
C2359 C2358 1.287 . S
C2359 C2360 1.524 . S
C2359 H2362 0.999 . S
C2360 H2330 0.950 . S
C2360 C2359 1.524 . S
C2360 C2361 1.415 . S
C2361 H2331 0.950 . S
C2361 C2356 1.363 . S
C2361 C2360 1.415 . S
H2362 C2359 0.999 . S
H2363 C2344 0.913 . S
H2364 C2382 0.951 . S
H2365 C2384 0.951 . S
H2366 C2386 0.950 . S
H2367 C2387 0.950 . S
H2368 C2389 0.950 . S
H2369 C2392 0.950 . S
H2370 C2393 0.950 . S
H2371 C2395 0.950 . S
H2372 C2396 0.950 . S
H2373 C2397 0.951 . S
H2374 C2399 0.951 . S
H2375 C2401 0.950 . S
H2376 C2402 0.950 . S
H2377 C2404 0.950 . S
H2378 C2407 0.950 . S
H2379 C2408 0.950 . S
H2380 C2410 0.950 . S
H2381 C2411 0.950 . S
C2382 H2364 0.951 . S
C2382 C2383 1.366 . S
C2382 C2384 1.388 . S
C2383 C2382 1.366 . S
C2383 C2387 1.385 . S
C2384 H2365 0.951 . S
C2384 C2382 1.388 . S
C2384 C2385 1.366 . S
C2385 C2384 1.366 . S
C2385 C2386 1.414 . S
C2385 C2388 1.499 . S
C2386 H2366 0.950 . S
C2386 C2385 1.414 . S
C2386 C2387 1.374 . S
C2387 H2367 0.950 . S
C2387 C2383 1.385 . S
C2387 C2386 1.374 . S
C2388 C2385 1.499 . S
C2388 C2389 1.373 . S
C2388 C2390 1.389 . S
C2389 H2368 0.950 . S
C2389 C2388 1.373 . S
C2389 C2405 1.377 . S
C2390 C2388 1.389 . S
C2390 C2391 1.524 . S
C2390 C2404 1.377 . S
C2391 C2390 1.524 . S
C2391 C2392 1.397 . S
C2391 C2396 1.363 . S
C2392 H2369 0.950 . S
C2392 C2391 1.397 . S
C2392 C2393 1.334 . S
C2393 H2370 0.950 . S
C2393 C2392 1.334 . S
C2393 C2394 1.287 . S
C2394 C2393 1.287 . S
C2394 C2395 1.524 . S
C2394 H2413 0.913 . S
C2395 H2371 0.950 . S
C2395 C2394 1.524 . S
C2395 C2396 1.415 . S
C2396 H2372 0.950 . S
C2396 C2391 1.363 . S
C2396 C2395 1.415 . S
C2397 H2373 0.951 . S
C2397 C2398 1.366 . S
C2397 C2399 1.388 . S
C2398 C2397 1.366 . S
C2398 C2402 1.385 . S
C2399 H2374 0.951 . S
C2399 C2397 1.388 . S
C2399 C2400 1.366 . S
C2400 C2399 1.366 . S
C2400 C2401 1.414 . S
C2400 C2403 1.499 . S
C2401 H2375 0.950 . S
C2401 C2400 1.414 . S
C2401 C2402 1.374 . S
C2402 H2376 0.950 . S
C2402 C2398 1.385 . S
C2402 C2401 1.374 . S
C2403 C2400 1.499 . S
C2403 C2404 1.373 . S
C2403 C2405 1.389 . S
C2404 H2377 0.950 . S
C2404 C2390 1.377 . S
C2404 C2403 1.373 . S
C2405 C2389 1.377 . S
C2405 C2403 1.389 . S
C2405 C2406 1.524 . S
C2406 C2405 1.524 . S
C2406 C2407 1.397 . S
C2406 C2411 1.363 . S
C2407 H2378 0.950 . S
C2407 C2406 1.397 . S
C2407 C2408 1.334 . S
C2408 H2379 0.950 . S
C2408 C2407 1.334 . S
C2408 C2409 1.287 . S
C2409 C2408 1.287 . S
C2409 C2410 1.524 . S
C2409 H2412 0.999 . S
C2410 H2380 0.950 . S
C2410 C2409 1.524 . S
C2410 C2411 1.415 . S
C2411 H2381 0.950 . S
C2411 C2406 1.363 . S
C2411 C2410 1.415 . S
H2412 C2409 0.999 . S
H2413 C2394 0.913 . S
H2414 C2432 0.951 . S
H2415 C2434 0.951 . S
H2416 C2436 0.950 . S
H2417 C2437 0.950 . S
H2418 C2439 0.950 . S
H2419 C2442 0.950 . S
H2420 C2443 0.950 . S
H2421 C2445 0.950 . S
H2422 C2446 0.950 . S
H2423 C2447 0.951 . S
H2424 C2449 0.951 . S
H2425 C2451 0.950 . S
H2426 C2452 0.950 . S
H2427 C2454 0.950 . S
H2428 C2457 0.950 . S
H2429 C2458 0.950 . S
H2430 C2460 0.950 . S
H2431 C2461 0.950 . S
C2432 H2414 0.951 . S
C2432 C2433 1.366 . S
C2432 C2434 1.388 . S
C2433 C2432 1.366 . S
C2433 C2437 1.385 . S
C2434 H2415 0.951 . S
C2434 C2432 1.388 . S
C2434 C2435 1.366 . S
C2435 C2434 1.366 . S
C2435 C2436 1.414 . S
C2435 C2438 1.499 . S
C2436 H2416 0.950 . S
C2436 C2435 1.414 . S
C2436 C2437 1.374 . S
C2437 H2417 0.950 . S
C2437 C2433 1.385 . S
C2437 C2436 1.374 . S
C2438 C2435 1.499 . S
C2438 C2439 1.373 . S
C2438 C2440 1.389 . S
C2439 H2418 0.950 . S
C2439 C2438 1.373 . S
C2439 C2455 1.377 . S
C2440 C2438 1.389 . S
C2440 C2441 1.524 . S
C2440 C2454 1.377 . S
C2441 C2440 1.524 . S
C2441 C2442 1.397 . S
C2441 C2446 1.363 . S
C2442 H2419 0.950 . S
C2442 C2441 1.397 . S
C2442 C2443 1.334 . S
C2443 H2420 0.950 . S
C2443 C2442 1.334 . S
C2443 C2444 1.287 . S
C2444 C2443 1.287 . S
C2444 C2445 1.524 . S
C2444 H2463 0.913 . S
C2445 H2421 0.950 . S
C2445 C2444 1.524 . S
C2445 C2446 1.415 . S
C2446 H2422 0.950 . S
C2446 C2441 1.363 . S
C2446 C2445 1.415 . S
C2447 H2423 0.951 . S
C2447 C2448 1.366 . S
C2447 C2449 1.388 . S
C2448 C2447 1.366 . S
C2448 C2452 1.385 . S
C2449 H2424 0.951 . S
C2449 C2447 1.388 . S
C2449 C2450 1.366 . S
C2450 C2449 1.366 . S
C2450 C2451 1.414 . S
C2450 C2453 1.499 . S
C2451 H2425 0.950 . S
C2451 C2450 1.414 . S
C2451 C2452 1.374 . S
C2452 H2426 0.950 . S
C2452 C2448 1.385 . S
C2452 C2451 1.374 . S
C2453 C2450 1.499 . S
C2453 C2454 1.373 . S
C2453 C2455 1.389 . S
C2454 H2427 0.950 . S
C2454 C2440 1.377 . S
C2454 C2453 1.373 . S
C2455 C2439 1.377 . S
C2455 C2453 1.389 . S
C2455 C2456 1.524 . S
C2456 C2455 1.524 . S
C2456 C2457 1.397 . S
C2456 C2461 1.363 . S
C2457 H2428 0.950 . S
C2457 C2456 1.397 . S
C2457 C2458 1.334 . S
C2458 H2429 0.950 . S
C2458 C2457 1.334 . S
C2458 C2459 1.287 . S
C2459 C2458 1.287 . S
C2459 C2460 1.524 . S
C2459 H2462 0.999 . S
C2460 H2430 0.950 . S
C2460 C2459 1.524 . S
C2460 C2461 1.415 . S
C2461 H2431 0.950 . S
C2461 C2456 1.363 . S
C2461 C2460 1.415 . S
H2462 C2459 0.999 . S
H2463 C2444 0.913 . S
H2464 C2482 0.951 . S
H2465 C2484 0.951 . S
H2466 C2486 0.950 . S
H2467 C2487 0.950 . S
H2468 C2489 0.950 . S
H2469 C2492 0.950 . S
H2470 C2493 0.950 . S
H2471 C2495 0.950 . S
H2472 C2496 0.950 . S
H2473 C2497 0.951 . S
H2474 C2499 0.951 . S
H2475 C2501 0.950 . S
H2476 C2502 0.950 . S
H2477 C2504 0.950 . S
H2478 C2507 0.950 . S
H2479 C2508 0.950 . S
H2480 C2510 0.950 . S
H2481 C2511 0.950 . S
C2482 H2464 0.951 . S
C2482 C2483 1.366 . S
C2482 C2484 1.388 . S
C2483 C2482 1.366 . S
C2483 C2487 1.385 . S
C2484 H2465 0.951 . S
C2484 C2482 1.388 . S
C2484 C2485 1.366 . S
C2485 C2484 1.366 . S
C2485 C2486 1.414 . S
C2485 C2488 1.499 . S
C2486 H2466 0.950 . S
C2486 C2485 1.414 . S
C2486 C2487 1.374 . S
C2487 H2467 0.950 . S
C2487 C2483 1.385 . S
C2487 C2486 1.374 . S
C2488 C2485 1.499 . S
C2488 C2489 1.373 . S
C2488 C2490 1.389 . S
C2489 H2468 0.950 . S
C2489 C2488 1.373 . S
C2489 C2505 1.377 . S
C2490 C2488 1.389 . S
C2490 C2491 1.524 . S
C2490 C2504 1.377 . S
C2491 C2490 1.524 . S
C2491 C2492 1.397 . S
C2491 C2496 1.363 . S
C2492 H2469 0.950 . S
C2492 C2491 1.397 . S
C2492 C2493 1.334 . S
C2493 H2470 0.950 . S
C2493 C2492 1.334 . S
C2493 C2494 1.287 . S
C2494 C2493 1.287 . S
C2494 C2495 1.524 . S
C2494 H2513 0.913 . S
C2495 H2471 0.950 . S
C2495 C2494 1.524 . S
C2495 C2496 1.415 . S
C2496 H2472 0.950 . S
C2496 C2491 1.363 . S
C2496 C2495 1.415 . S
C2497 H2473 0.951 . S
C2497 C2498 1.366 . S
C2497 C2499 1.388 . S
C2498 C2497 1.366 . S
C2498 C2502 1.385 . S
C2499 H2474 0.951 . S
C2499 C2497 1.388 . S
C2499 C2500 1.366 . S
C2500 C2499 1.366 . S
C2500 C2501 1.414 . S
C2500 C2503 1.499 . S
C2501 H2475 0.950 . S
C2501 C2500 1.414 . S
C2501 C2502 1.374 . S
C2502 H2476 0.950 . S
C2502 C2498 1.385 . S
C2502 C2501 1.374 . S
C2503 C2500 1.499 . S
C2503 C2504 1.373 . S
C2503 C2505 1.389 . S
C2504 H2477 0.950 . S
C2504 C2490 1.377 . S
C2504 C2503 1.373 . S
C2505 C2489 1.377 . S
C2505 C2503 1.389 . S
C2505 C2506 1.524 . S
C2506 C2505 1.524 . S
C2506 C2507 1.397 . S
C2506 C2511 1.363 . S
C2507 H2478 0.950 . S
C2507 C2506 1.397 . S
C2507 C2508 1.334 . S
C2508 H2479 0.950 . S
C2508 C2507 1.334 . S
C2508 C2509 1.287 . S
C2509 C2508 1.287 . S
C2509 C2510 1.524 . S
C2509 H2512 0.999 . S
C2510 H2480 0.950 . S
C2510 C2509 1.524 . S
C2510 C2511 1.415 . S
C2511 H2481 0.950 . S
C2511 C2506 1.363 . S
C2511 C2510 1.415 . S
H2512 C2509 0.999 . S
H2513 C2494 0.913 . S
H2514 C2532 0.951 . S
H2515 C2534 0.951 . S
H2516 C2536 0.950 . S
H2517 C2537 0.950 . S
H2518 C2539 0.950 . S
H2519 C2542 0.950 . S
H2520 C2543 0.950 . S
H2521 C2545 0.950 . S
H2522 C2546 0.950 . S
H2523 C2547 0.951 . S
H2524 C2549 0.951 . S
H2525 C2551 0.950 . S
H2526 C2552 0.950 . S
H2527 C2554 0.950 . S
H2528 C2557 0.950 . S
H2529 C2558 0.950 . S
H2530 C2560 0.950 . S
H2531 C2561 0.950 . S
C2532 H2514 0.951 . S
C2532 C2533 1.366 . S
C2532 C2534 1.388 . S
C2533 C2532 1.366 . S
C2533 C2537 1.385 . S
C2534 H2515 0.951 . S
C2534 C2532 1.388 . S
C2534 C2535 1.366 . S
C2535 C2534 1.366 . S
C2535 C2536 1.414 . S
C2535 C2538 1.499 . S
C2536 H2516 0.950 . S
C2536 C2535 1.414 . S
C2536 C2537 1.374 . S
C2537 H2517 0.950 . S
C2537 C2533 1.385 . S
C2537 C2536 1.374 . S
C2538 C2535 1.499 . S
C2538 C2539 1.373 . S
C2538 C2540 1.389 . S
C2539 H2518 0.950 . S
C2539 C2538 1.373 . S
C2539 C2555 1.377 . S
C2540 C2538 1.389 . S
C2540 C2541 1.524 . S
C2540 C2554 1.377 . S
C2541 C2540 1.524 . S
C2541 C2542 1.397 . S
C2541 C2546 1.363 . S
C2542 H2519 0.950 . S
C2542 C2541 1.397 . S
C2542 C2543 1.334 . S
C2543 H2520 0.950 . S
C2543 C2542 1.334 . S
C2543 C2544 1.287 . S
C2544 C2543 1.287 . S
C2544 C2545 1.524 . S
C2544 H2563 0.913 . S
C2545 H2521 0.950 . S
C2545 C2544 1.524 . S
C2545 C2546 1.415 . S
C2546 H2522 0.950 . S
C2546 C2541 1.363 . S
C2546 C2545 1.415 . S
C2547 H2523 0.951 . S
C2547 C2548 1.366 . S
C2547 C2549 1.388 . S
C2548 C2547 1.366 . S
C2548 C2552 1.385 . S
C2549 H2524 0.951 . S
C2549 C2547 1.388 . S
C2549 C2550 1.366 . S
C2550 C2549 1.366 . S
C2550 C2551 1.414 . S
C2550 C2553 1.499 . S
C2551 H2525 0.950 . S
C2551 C2550 1.414 . S
C2551 C2552 1.374 . S
C2552 H2526 0.950 . S
C2552 C2548 1.385 . S
C2552 C2551 1.374 . S
C2553 C2550 1.499 . S
C2553 C2554 1.373 . S
C2553 C2555 1.389 . S
C2554 H2527 0.950 . S
C2554 C2540 1.377 . S
C2554 C2553 1.373 . S
C2555 C2539 1.377 . S
C2555 C2553 1.389 . S
C2555 C2556 1.524 . S
C2556 C2555 1.524 . S
C2556 C2557 1.397 . S
C2556 C2561 1.363 . S
C2557 H2528 0.950 . S
C2557 C2556 1.397 . S
C2557 C2558 1.334 . S
C2558 H2529 0.950 . S
C2558 C2557 1.334 . S
C2558 C2559 1.287 . S
C2559 C2558 1.287 . S
C2559 C2560 1.524 . S
C2559 H2562 0.999 . S
C2560 H2530 0.950 . S
C2560 C2559 1.524 . S
C2560 C2561 1.415 . S
C2561 H2531 0.950 . S
C2561 C2556 1.363 . S
C2561 C2560 1.415 . S
H2562 C2559 0.999 . S
H2563 C2544 0.913 . S
H2564 C2582 0.951 . S
H2565 C2584 0.951 . S
H2566 C2586 0.950 . S
H2567 C2587 0.950 . S
H2568 C2589 0.950 . S
H2569 C2592 0.950 . S
H2570 C2593 0.950 . S
H2571 C2595 0.950 . S
H2572 C2596 0.950 . S
H2573 C2597 0.951 . S
H2574 C2599 0.951 . S
H2575 C2601 0.950 . S
H2576 C2602 0.950 . S
H2577 C2604 0.950 . S
H2578 C2607 0.950 . S
H2579 C2608 0.950 . S
H2580 C2610 0.950 . S
H2581 C2611 0.950 . S
C2582 H2564 0.951 . S
C2582 C2583 1.366 . S
C2582 C2584 1.388 . S
C2583 C2582 1.366 . S
C2583 C2587 1.385 . S
C2584 H2565 0.951 . S
C2584 C2582 1.388 . S
C2584 C2585 1.366 . S
C2585 C2584 1.366 . S
C2585 C2586 1.414 . S
C2585 C2588 1.499 . S
C2586 H2566 0.950 . S
C2586 C2585 1.414 . S
C2586 C2587 1.374 . S
C2587 H2567 0.950 . S
C2587 C2583 1.385 . S
C2587 C2586 1.374 . S
C2588 C2585 1.499 . S
C2588 C2589 1.373 . S
C2588 C2590 1.389 . S
C2589 H2568 0.950 . S
C2589 C2588 1.373 . S
C2589 C2605 1.377 . S
C2590 C2588 1.389 . S
C2590 C2591 1.524 . S
C2590 C2604 1.377 . S
C2591 C2590 1.524 . S
C2591 C2592 1.397 . S
C2591 C2596 1.363 . S
C2592 H2569 0.950 . S
C2592 C2591 1.397 . S
C2592 C2593 1.334 . S
C2593 H2570 0.950 . S
C2593 C2592 1.334 . S
C2593 C2594 1.287 . S
C2594 C2593 1.287 . S
C2594 C2595 1.524 . S
C2594 H2613 0.913 . S
C2595 H2571 0.950 . S
C2595 C2594 1.524 . S
C2595 C2596 1.415 . S
C2596 H2572 0.950 . S
C2596 C2591 1.363 . S
C2596 C2595 1.415 . S
C2597 H2573 0.951 . S
C2597 C2598 1.366 . S
C2597 C2599 1.388 . S
C2598 C2597 1.366 . S
C2598 C2602 1.385 . S
C2599 H2574 0.951 . S
C2599 C2597 1.388 . S
C2599 C2600 1.366 . S
C2600 C2599 1.366 . S
C2600 C2601 1.414 . S
C2600 C2603 1.499 . S
C2601 H2575 0.950 . S
C2601 C2600 1.414 . S
C2601 C2602 1.374 . S
C2602 H2576 0.950 . S
C2602 C2598 1.385 . S
C2602 C2601 1.374 . S
C2603 C2600 1.499 . S
C2603 C2604 1.373 . S
C2603 C2605 1.389 . S
C2604 H2577 0.950 . S
C2604 C2590 1.377 . S
C2604 C2603 1.373 . S
C2605 C2589 1.377 . S
C2605 C2603 1.389 . S
C2605 C2606 1.524 . S
C2606 C2605 1.524 . S
C2606 C2607 1.397 . S
C2606 C2611 1.363 . S
C2607 H2578 0.950 . S
C2607 C2606 1.397 . S
C2607 C2608 1.334 . S
C2608 H2579 0.950 . S
C2608 C2607 1.334 . S
C2608 C2609 1.287 . S
C2609 C2608 1.287 . S
C2609 C2610 1.524 . S
C2609 H2612 0.999 . S
C2610 H2580 0.950 . S
C2610 C2609 1.524 . S
C2610 C2611 1.415 . S
C2611 H2581 0.950 . S
C2611 C2606 1.363 . S
C2611 C2610 1.415 . S
H2612 C2609 0.999 . S
H2613 C2594 0.913 . S
H2614 C2632 0.951 . S
H2615 C2634 0.951 . S
H2616 C2636 0.950 . S
H2617 C2637 0.950 . S
H2618 C2639 0.950 . S
H2619 C2642 0.950 . S
H2620 C2643 0.950 . S
H2621 C2645 0.950 . S
H2622 C2646 0.950 . S
H2623 C2647 0.951 . S
H2624 C2649 0.951 . S
H2625 C2651 0.950 . S
H2626 C2652 0.950 . S
H2627 C2654 0.950 . S
H2628 C2657 0.950 . S
H2629 C2658 0.950 . S
H2630 C2660 0.950 . S
H2631 C2661 0.950 . S
C2632 H2614 0.951 . S
C2632 C2633 1.366 . S
C2632 C2634 1.388 . S
C2633 C2632 1.366 . S
C2633 C2637 1.385 . S
C2634 H2615 0.951 . S
C2634 C2632 1.388 . S
C2634 C2635 1.366 . S
C2635 C2634 1.366 . S
C2635 C2636 1.414 . S
C2635 C2638 1.499 . S
C2636 H2616 0.950 . S
C2636 C2635 1.414 . S
C2636 C2637 1.374 . S
C2637 H2617 0.950 . S
C2637 C2633 1.385 . S
C2637 C2636 1.374 . S
C2638 C2635 1.499 . S
C2638 C2639 1.373 . S
C2638 C2640 1.389 . S
C2639 H2618 0.950 . S
C2639 C2638 1.373 . S
C2639 C2655 1.377 . S
C2640 C2638 1.389 . S
C2640 C2641 1.524 . S
C2640 C2654 1.377 . S
C2641 C2640 1.524 . S
C2641 C2642 1.397 . S
C2641 C2646 1.363 . S
C2642 H2619 0.950 . S
C2642 C2641 1.397 . S
C2642 C2643 1.334 . S
C2643 H2620 0.950 . S
C2643 C2642 1.334 . S
C2643 C2644 1.287 . S
C2644 C2643 1.287 . S
C2644 C2645 1.524 . S
C2644 H2663 0.913 . S
C2645 H2621 0.950 . S
C2645 C2644 1.524 . S
C2645 C2646 1.415 . S
C2646 H2622 0.950 . S
C2646 C2641 1.363 . S
C2646 C2645 1.415 . S
C2647 H2623 0.951 . S
C2647 C2648 1.366 . S
C2647 C2649 1.388 . S
C2648 C2647 1.366 . S
C2648 C2652 1.385 . S
C2649 H2624 0.951 . S
C2649 C2647 1.388 . S
C2649 C2650 1.366 . S
C2650 C2649 1.366 . S
C2650 C2651 1.414 . S
C2650 C2653 1.499 . S
C2651 H2625 0.950 . S
C2651 C2650 1.414 . S
C2651 C2652 1.374 . S
C2652 H2626 0.950 . S
C2652 C2648 1.385 . S
C2652 C2651 1.374 . S
C2653 C2650 1.499 . S
C2653 C2654 1.373 . S
C2653 C2655 1.389 . S
C2654 H2627 0.950 . S
C2654 C2640 1.377 . S
C2654 C2653 1.373 . S
C2655 C2639 1.377 . S
C2655 C2653 1.389 . S
C2655 C2656 1.524 . S
C2656 C2655 1.524 . S
C2656 C2657 1.397 . S
C2656 C2661 1.363 . S
C2657 H2628 0.950 . S
C2657 C2656 1.397 . S
C2657 C2658 1.334 . S
C2658 H2629 0.950 . S
C2658 C2657 1.334 . S
C2658 C2659 1.287 . S
C2659 C2658 1.287 . S
C2659 C2660 1.524 . S
C2659 H2662 0.999 . S
C2660 H2630 0.950 . S
C2660 C2659 1.524 . S
C2660 C2661 1.415 . S
C2661 H2631 0.950 . S
C2661 C2656 1.363 . S
C2661 C2660 1.415 . S
H2662 C2659 0.999 . S
H2663 C2644 0.913 . S
H2664 C2682 0.951 . S
H2665 C2684 0.951 . S
H2666 C2686 0.950 . S
H2667 C2687 0.950 . S
H2668 C2689 0.950 . S
H2669 C2692 0.950 . S
H2670 C2693 0.950 . S
H2671 C2695 0.950 . S
H2672 C2696 0.950 . S
H2673 C2697 0.951 . S
H2674 C2699 0.951 . S
H2675 C2701 0.950 . S
H2676 C2702 0.950 . S
H2677 C2704 0.950 . S
H2678 C2707 0.950 . S
H2679 C2708 0.950 . S
H2680 C2710 0.950 . S
H2681 C2711 0.950 . S
C2682 H2664 0.951 . S
C2682 C2683 1.366 . S
C2682 C2684 1.388 . S
C2683 C2682 1.366 . S
C2683 C2687 1.385 . S
C2684 H2665 0.951 . S
C2684 C2682 1.388 . S
C2684 C2685 1.366 . S
C2685 C2684 1.366 . S
C2685 C2686 1.414 . S
C2685 C2688 1.499 . S
C2686 H2666 0.950 . S
C2686 C2685 1.414 . S
C2686 C2687 1.374 . S
C2687 H2667 0.950 . S
C2687 C2683 1.385 . S
C2687 C2686 1.374 . S
C2688 C2685 1.499 . S
C2688 C2689 1.373 . S
C2688 C2690 1.389 . S
C2689 H2668 0.950 . S
C2689 C2688 1.373 . S
C2689 C2705 1.377 . S
C2690 C2688 1.389 . S
C2690 C2691 1.524 . S
C2690 C2704 1.377 . S
C2691 C2690 1.524 . S
C2691 C2692 1.397 . S
C2691 C2696 1.363 . S
C2692 H2669 0.950 . S
C2692 C2691 1.397 . S
C2692 C2693 1.334 . S
C2693 H2670 0.950 . S
C2693 C2692 1.334 . S
C2693 C2694 1.287 . S
C2694 C2693 1.287 . S
C2694 C2695 1.524 . S
C2694 H2713 0.913 . S
C2695 H2671 0.950 . S
C2695 C2694 1.524 . S
C2695 C2696 1.415 . S
C2696 H2672 0.950 . S
C2696 C2691 1.363 . S
C2696 C2695 1.415 . S
C2697 H2673 0.951 . S
C2697 C2698 1.366 . S
C2697 C2699 1.388 . S
C2698 C2697 1.366 . S
C2698 C2702 1.385 . S
C2699 H2674 0.951 . S
C2699 C2697 1.388 . S
C2699 C2700 1.366 . S
C2700 C2699 1.366 . S
C2700 C2701 1.414 . S
C2700 C2703 1.499 . S
C2701 H2675 0.950 . S
C2701 C2700 1.414 . S
C2701 C2702 1.374 . S
C2702 H2676 0.950 . S
C2702 C2698 1.385 . S
C2702 C2701 1.374 . S
C2703 C2700 1.499 . S
C2703 C2704 1.373 . S
C2703 C2705 1.389 . S
C2704 H2677 0.950 . S
C2704 C2690 1.377 . S
C2704 C2703 1.373 . S
C2705 C2689 1.377 . S
C2705 C2703 1.389 . S
C2705 C2706 1.524 . S
C2706 C2705 1.524 . S
C2706 C2707 1.397 . S
C2706 C2711 1.363 . S
C2707 H2678 0.950 . S
C2707 C2706 1.397 . S
C2707 C2708 1.334 . S
C2708 H2679 0.950 . S
C2708 C2707 1.334 . S
C2708 C2709 1.287 . S
C2709 C2708 1.287 . S
C2709 C2710 1.524 . S
C2709 H2712 0.999 . S
C2710 H2680 0.950 . S
C2710 C2709 1.524 . S
C2710 C2711 1.415 . S
C2711 H2681 0.950 . S
C2711 C2706 1.363 . S
C2711 C2710 1.415 . S
H2712 C2709 0.999 . S
H2713 C2694 0.913 . S
H2714 C2732 0.951 . S
H2715 C2734 0.951 . S
H2716 C2736 0.950 . S
H2717 C2737 0.950 . S
H2718 C2739 0.950 . S
H2719 C2742 0.950 . S
H2720 C2743 0.950 . S
H2721 C2745 0.950 . S
H2722 C2746 0.950 . S
H2723 C2747 0.951 . S
H2724 C2749 0.951 . S
H2725 C2751 0.950 . S
H2726 C2752 0.950 . S
H2727 C2754 0.950 . S
H2728 C2757 0.950 . S
H2729 C2758 0.950 . S
H2730 C2760 0.950 . S
H2731 C2761 0.950 . S
C2732 H2714 0.951 . S
C2732 C2733 1.366 . S
C2732 C2734 1.388 . S
C2733 C2732 1.366 . S
C2733 C2737 1.385 . S
C2734 H2715 0.951 . S
C2734 C2732 1.388 . S
C2734 C2735 1.366 . S
C2735 C2734 1.366 . S
C2735 C2736 1.414 . S
C2735 C2738 1.499 . S
C2736 H2716 0.950 . S
C2736 C2735 1.414 . S
C2736 C2737 1.374 . S
C2737 H2717 0.950 . S
C2737 C2733 1.385 . S
C2737 C2736 1.374 . S
C2738 C2735 1.499 . S
C2738 C2739 1.373 . S
C2738 C2740 1.389 . S
C2739 H2718 0.950 . S
C2739 C2738 1.373 . S
C2739 C2755 1.377 . S
C2740 C2738 1.389 . S
C2740 C2741 1.524 . S
C2740 C2754 1.377 . S
C2741 C2740 1.524 . S
C2741 C2742 1.397 . S
C2741 C2746 1.363 . S
C2742 H2719 0.950 . S
C2742 C2741 1.397 . S
C2742 C2743 1.334 . S
C2743 H2720 0.950 . S
C2743 C2742 1.334 . S
C2743 C2744 1.287 . S
C2744 C2743 1.287 . S
C2744 C2745 1.524 . S
C2744 H2763 0.913 . S
C2745 H2721 0.950 . S
C2745 C2744 1.524 . S
C2745 C2746 1.415 . S
C2746 H2722 0.950 . S
C2746 C2741 1.363 . S
C2746 C2745 1.415 . S
C2747 H2723 0.951 . S
C2747 C2748 1.366 . S
C2747 C2749 1.388 . S
C2748 C2747 1.366 . S
C2748 C2752 1.385 . S
C2749 H2724 0.951 . S
C2749 C2747 1.388 . S
C2749 C2750 1.366 . S
C2750 C2749 1.366 . S
C2750 C2751 1.414 . S
C2750 C2753 1.499 . S
C2751 H2725 0.950 . S
C2751 C2750 1.414 . S
C2751 C2752 1.374 . S
C2752 H2726 0.950 . S
C2752 C2748 1.385 . S
C2752 C2751 1.374 . S
C2753 C2750 1.499 . S
C2753 C2754 1.373 . S
C2753 C2755 1.389 . S
C2754 H2727 0.950 . S
C2754 C2740 1.377 . S
C2754 C2753 1.373 . S
C2755 C2739 1.377 . S
C2755 C2753 1.389 . S
C2755 C2756 1.524 . S
C2756 C2755 1.524 . S
C2756 C2757 1.397 . S
C2756 C2761 1.363 . S
C2757 H2728 0.950 . S
C2757 C2756 1.397 . S
C2757 C2758 1.334 . S
C2758 H2729 0.950 . S
C2758 C2757 1.334 . S
C2758 C2759 1.287 . S
C2759 C2758 1.287 . S
C2759 C2760 1.524 . S
C2759 H2762 0.999 . S
C2760 H2730 0.950 . S
C2760 C2759 1.524 . S
C2760 C2761 1.415 . S
C2761 H2731 0.950 . S
C2761 C2756 1.363 . S
C2761 C2760 1.415 . S
H2762 C2759 0.999 . S
H2763 C2744 0.913 . S
H2764 C2782 0.951 . S
H2765 C2784 0.951 . S
H2766 C2786 0.950 . S
H2767 C2787 0.950 . S
H2768 C2789 0.950 . S
H2769 C2792 0.950 . S
H2770 C2793 0.950 . S
H2771 C2795 0.950 . S
H2772 C2796 0.950 . S
H2773 C2797 0.951 . S
H2774 C2799 0.951 . S
H2775 C2801 0.950 . S
H2776 C2802 0.950 . S
H2777 C2804 0.950 . S
H2778 C2807 0.950 . S
H2779 C2808 0.950 . S
H2780 C2810 0.950 . S
H2781 C2811 0.950 . S
C2782 H2764 0.951 . S
C2782 C2783 1.366 . S
C2782 C2784 1.388 . S
C2783 C2782 1.366 . S
C2783 C2787 1.385 . S
C2784 H2765 0.951 . S
C2784 C2782 1.388 . S
C2784 C2785 1.366 . S
C2785 C2784 1.366 . S
C2785 C2786 1.414 . S
C2785 C2788 1.499 . S
C2786 H2766 0.950 . S
C2786 C2785 1.414 . S
C2786 C2787 1.374 . S
C2787 H2767 0.950 . S
C2787 C2783 1.385 . S
C2787 C2786 1.374 . S
C2788 C2785 1.499 . S
C2788 C2789 1.373 . S
C2788 C2790 1.389 . S
C2789 H2768 0.950 . S
C2789 C2788 1.373 . S
C2789 C2805 1.377 . S
C2790 C2788 1.389 . S
C2790 C2791 1.524 . S
C2790 C2804 1.377 . S
C2791 C2790 1.524 . S
C2791 C2792 1.397 . S
C2791 C2796 1.363 . S
C2792 H2769 0.950 . S
C2792 C2791 1.397 . S
C2792 C2793 1.334 . S
C2793 H2770 0.950 . S
C2793 C2792 1.334 . S
C2793 C2794 1.287 . S
C2794 C2793 1.287 . S
C2794 C2795 1.524 . S
C2794 H2813 0.913 . S
C2795 H2771 0.950 . S
C2795 C2794 1.524 . S
C2795 C2796 1.415 . S
C2796 H2772 0.950 . S
C2796 C2791 1.363 . S
C2796 C2795 1.415 . S
C2797 H2773 0.951 . S
C2797 C2798 1.366 . S
C2797 C2799 1.388 . S
C2798 C2797 1.366 . S
C2798 C2802 1.385 . S
C2799 H2774 0.951 . S
C2799 C2797 1.388 . S
C2799 C2800 1.366 . S
C2800 C2799 1.366 . S
C2800 C2801 1.414 . S
C2800 C2803 1.499 . S
C2801 H2775 0.950 . S
C2801 C2800 1.414 . S
C2801 C2802 1.374 . S
C2802 H2776 0.950 . S
C2802 C2798 1.385 . S
C2802 C2801 1.374 . S
C2803 C2800 1.499 . S
C2803 C2804 1.373 . S
C2803 C2805 1.389 . S
C2804 H2777 0.950 . S
C2804 C2790 1.377 . S
C2804 C2803 1.373 . S
C2805 C2789 1.377 . S
C2805 C2803 1.389 . S
C2805 C2806 1.524 . S
C2806 C2805 1.524 . S
C2806 C2807 1.397 . S
C2806 C2811 1.363 . S
C2807 H2778 0.950 . S
C2807 C2806 1.397 . S
C2807 C2808 1.334 . S
C2808 H2779 0.950 . S
C2808 C2807 1.334 . S
C2808 C2809 1.287 . S
C2809 C2808 1.287 . S
C2809 C2810 1.524 . S
C2809 H2812 0.999 . S
C2810 H2780 0.950 . S
C2810 C2809 1.524 . S
C2810 C2811 1.415 . S
C2811 H2781 0.950 . S
C2811 C2806 1.363 . S
C2811 C2810 1.415 . S
H2812 C2809 0.999 . S
H2813 C2794 0.913 . S
H2814 C2832 0.951 . S
H2815 C2834 0.951 . S
H2816 C2836 0.950 . S
H2817 C2837 0.950 . S
H2818 C2839 0.950 . S
H2819 C2842 0.950 . S
H2820 C2843 0.950 . S
H2821 C2845 0.950 . S
H2822 C2846 0.950 . S
H2823 C2847 0.951 . S
H2824 C2849 0.951 . S
H2825 C2851 0.950 . S
H2826 C2852 0.950 . S
H2827 C2854 0.950 . S
H2828 C2857 0.950 . S
H2829 C2858 0.950 . S
H2830 C2860 0.950 . S
H2831 C2861 0.950 . S
C2832 H2814 0.951 . S
C2832 C2833 1.366 . S
C2832 C2834 1.388 . S
C2833 C2832 1.366 . S
C2833 C2837 1.385 . S
C2834 H2815 0.951 . S
C2834 C2832 1.388 . S
C2834 C2835 1.366 . S
C2835 C2834 1.366 . S
C2835 C2836 1.414 . S
C2835 C2838 1.499 . S
C2836 H2816 0.950 . S
C2836 C2835 1.414 . S
C2836 C2837 1.374 . S
C2837 H2817 0.950 . S
C2837 C2833 1.385 . S
C2837 C2836 1.374 . S
C2838 C2835 1.499 . S
C2838 C2839 1.373 . S
C2838 C2840 1.389 . S
C2839 H2818 0.950 . S
C2839 C2838 1.373 . S
C2839 C2855 1.377 . S
C2840 C2838 1.389 . S
C2840 C2841 1.524 . S
C2840 C2854 1.377 . S
C2841 C2840 1.524 . S
C2841 C2842 1.397 . S
C2841 C2846 1.363 . S
C2842 H2819 0.950 . S
C2842 C2841 1.397 . S
C2842 C2843 1.334 . S
C2843 H2820 0.950 . S
C2843 C2842 1.334 . S
C2843 C2844 1.287 . S
C2844 C2843 1.287 . S
C2844 C2845 1.524 . S
C2844 H2863 0.913 . S
C2845 H2821 0.950 . S
C2845 C2844 1.524 . S
C2845 C2846 1.415 . S
C2846 H2822 0.950 . S
C2846 C2841 1.363 . S
C2846 C2845 1.415 . S
C2847 H2823 0.951 . S
C2847 C2848 1.366 . S
C2847 C2849 1.388 . S
C2848 C2847 1.366 . S
C2848 C2852 1.385 . S
C2849 H2824 0.951 . S
C2849 C2847 1.388 . S
C2849 C2850 1.366 . S
C2850 C2849 1.366 . S
C2850 C2851 1.414 . S
C2850 C2853 1.499 . S
C2851 H2825 0.950 . S
C2851 C2850 1.414 . S
C2851 C2852 1.374 . S
C2852 H2826 0.950 . S
C2852 C2848 1.385 . S
C2852 C2851 1.374 . S
C2853 C2850 1.499 . S
C2853 C2854 1.373 . S
C2853 C2855 1.389 . S
C2854 H2827 0.950 . S
C2854 C2840 1.377 . S
C2854 C2853 1.373 . S
C2855 C2839 1.377 . S
C2855 C2853 1.389 . S
C2855 C2856 1.524 . S
C2856 C2855 1.524 . S
C2856 C2857 1.397 . S
C2856 C2861 1.363 . S
C2857 H2828 0.950 . S
C2857 C2856 1.397 . S
C2857 C2858 1.334 . S
C2858 H2829 0.950 . S
C2858 C2857 1.334 . S
C2858 C2859 1.287 . S
C2859 C2858 1.287 . S
C2859 C2860 1.524 . S
C2859 H2862 0.999 . S
C2860 H2830 0.950 . S
C2860 C2859 1.524 . S
C2860 C2861 1.415 . S
C2861 H2831 0.950 . S
C2861 C2856 1.363 . S
C2861 C2860 1.415 . S
H2862 C2859 0.999 . S
H2863 C2844 0.913 . S
H2864 C2882 0.951 . S
H2865 C2884 0.951 . S
H2866 C2886 0.950 . S
H2867 C2887 0.950 . S
H2868 C2889 0.950 . S
H2869 C2892 0.950 . S
H2870 C2893 0.950 . S
H2871 C2895 0.950 . S
H2872 C2896 0.950 . S
H2873 C2897 0.951 . S
H2874 C2899 0.951 . S
H2875 C2901 0.950 . S
H2876 C2902 0.950 . S
H2877 C2904 0.950 . S
H2878 C2907 0.950 . S
H2879 C2908 0.950 . S
H2880 C2910 0.950 . S
H2881 C2911 0.950 . S
C2882 H2864 0.951 . S
C2882 C2883 1.366 . S
C2882 C2884 1.388 . S
C2883 C2882 1.366 . S
C2883 C2887 1.385 . S
C2884 H2865 0.951 . S
C2884 C2882 1.388 . S
C2884 C2885 1.366 . S
C2885 C2884 1.366 . S
C2885 C2886 1.414 . S
C2885 C2888 1.499 . S
C2886 H2866 0.950 . S
C2886 C2885 1.414 . S
C2886 C2887 1.374 . S
C2887 H2867 0.950 . S
C2887 C2883 1.385 . S
C2887 C2886 1.374 . S
C2888 C2885 1.499 . S
C2888 C2889 1.373 . S
C2888 C2890 1.389 . S
C2889 H2868 0.950 . S
C2889 C2888 1.373 . S
C2889 C2905 1.377 . S
C2890 C2888 1.389 . S
C2890 C2891 1.524 . S
C2890 C2904 1.377 . S
C2891 C2890 1.524 . S
C2891 C2892 1.397 . S
C2891 C2896 1.363 . S
C2892 H2869 0.950 . S
C2892 C2891 1.397 . S
C2892 C2893 1.334 . S
C2893 H2870 0.950 . S
C2893 C2892 1.334 . S
C2893 C2894 1.287 . S
C2894 C2893 1.287 . S
C2894 C2895 1.524 . S
C2894 H2913 0.913 . S
C2895 H2871 0.950 . S
C2895 C2894 1.524 . S
C2895 C2896 1.415 . S
C2896 H2872 0.950 . S
C2896 C2891 1.363 . S
C2896 C2895 1.415 . S
C2897 H2873 0.951 . S
C2897 C2898 1.366 . S
C2897 C2899 1.388 . S
C2898 C2897 1.366 . S
C2898 C2902 1.385 . S
C2899 H2874 0.951 . S
C2899 C2897 1.388 . S
C2899 C2900 1.366 . S
C2900 C2899 1.366 . S
C2900 C2901 1.414 . S
C2900 C2903 1.499 . S
C2901 H2875 0.950 . S
C2901 C2900 1.414 . S
C2901 C2902 1.374 . S
C2902 H2876 0.950 . S
C2902 C2898 1.385 . S
C2902 C2901 1.374 . S
C2903 C2900 1.499 . S
C2903 C2904 1.373 . S
C2903 C2905 1.389 . S
C2904 H2877 0.950 . S
C2904 C2890 1.377 . S
C2904 C2903 1.373 . S
C2905 C2889 1.377 . S
C2905 C2903 1.389 . S
C2905 C2906 1.524 . S
C2906 C2905 1.524 . S
C2906 C2907 1.397 . S
C2906 C2911 1.363 . S
C2907 H2878 0.950 . S
C2907 C2906 1.397 . S
C2907 C2908 1.334 . S
C2908 H2879 0.950 . S
C2908 C2907 1.334 . S
C2908 C2909 1.287 . S
C2909 C2908 1.287 . S
C2909 C2910 1.524 . S
C2909 H2912 0.999 . S
C2910 H2880 0.950 . S
C2910 C2909 1.524 . S
C2910 C2911 1.415 . S
C2911 H2881 0.950 . S
C2911 C2906 1.363 . S
C2911 C2910 1.415 . S
H2912 C2909 0.999 . S
H2913 C2894 0.913 . S
C548 C288 0.673 . S
C533 N18 0.690 . S
C598 N264 1.602 . S
C583 C61 1.665 . S
C648 C296 0.430 . S
C633 N82 0.499 . S
C683 C100 1.419 . S
C698 C295 1.322 . S
C733 C130 1.761 . S
C748 N259 1.707 . S
C798 C283 0.713 . S
C783 N173 0.721 . S
C833 C198 1.562 . S
C848 C269 1.457 . S
C883 N242 0.512 . S
C898 C289 0.453 . S
C948 C312 1.449 . S
C933 C6 1.572 . S
C983 N50 0.473 . S
C998 C375 0.411 . S
C1048 N302 1.634 . S
C1033 C68 1.661 . S
C1098 C369 0.405 . S
C1083 N109 0.499 . S
C1133 C134 1.855 . S
C1148 C339 1.832 . S
C1198 C381 1.474 . S
C1183 C162 1.598 . S
C1233 C194 1.941 . S
C1248 C331 1.929 . S
C1283 C228 1.675 . S
C1298 N350 1.647 . S
C1333 C2 1.774 . S
C1348 N345 1.730 . S
C1383 N141 0.704 . S
C1398 C374 0.689 . S
C1448 N307 1.747 . S
C1433 C166 1.792 . S
C1498 C382 0.559 . S
C1483 N210 0.622 . S
C1533 C253 1.433 . S
C1548 C338 1.321 . S
C1583 C93 1.404 . S
C1598 C355 1.294 . S
C1648 C332 1.749 . S
C1633 C125 1.760 . S
C1683 C36 1.880 . S
C1698 C326 1.862 . S
C1733 N237 0.688 . S
C1748 C417 0.671 . S
C1783 C157 1.665 . S
C1798 N393 1.601 . S
C1848 C425 0.434 . S
C1833 N178 0.502 . S
C1898 C424 1.323 . S
C1883 C196 1.418 . S
C1933 C34 1.761 . S
C1948 N388 1.708 . S
C1998 C412 0.712 . S
C1983 N77 0.720 . S
C2033 C102 1.563 . S
C2048 C398 1.456 . S
C2083 N13 0.514 . S
C2098 C418 0.455 . S
C2133 C226 1.572 . S
C2148 C441 1.449 . S
C2198 C504 0.414 . S
C2183 N146 0.470 . S
C2233 C164 1.661 . S
C2248 N431 1.634 . S
C2283 N205 0.499 . S
C2298 C498 0.406 . S
C2348 C468 1.832 . S
C2333 C38 1.855 . S
C2383 C66 1.598 . S
C2398 C510 1.475 . S
C2448 C460 1.929 . S
C2433 C98 1.941 . S
C2498 N479 1.647 . S
C2483 C29 1.675 . S
C2548 N474 1.730 . S
C2533 C230 1.774 . S
C2583 N45 0.702 . S
C2598 C503 0.690 . S
C2633 C70 1.792 . S
C2648 N436 1.746 . S
C2698 C511 0.559 . S
C2683 N114 0.624 . S
C2733 C4 1.432 . S
C2748 C467 1.320 . S
C2783 C189 1.404 . S
C2798 C484 1.294 . S
C2848 C461 1.750 . S
C2833 C221 1.760 . S
C2898 C455 1.862 . S
C2883 C132 1.880 . S
