# Generated by pormake.
# Topology gar, (4,6)-cn, num edge types: 1
# Building blocks:
#     Node 0, Type 0, BuildingBlock: KUFVIS_clean_sbu_0, # of connection points: 4
#     Node 1, Type 0, BuildingBlock: KUFVIS_clean_sbu_0, # of connection points: 4
#     Node 2, Type 0, BuildingBlock: KUFVIS_clean_sbu_0, # of connection points: 4
#     Node 3, Type 0, BuildingBlock: KUFVIS_clean_sbu_0, # of connection points: 4
#     Node 4, Type 0, BuildingBlock: KUFVIS_clean_sbu_0, # of connection points: 4
#     Node 5, Type 0, BuildingBlock: KUFVIS_clean_sbu_0, # of connection points: 4
#     Node 6, Type 0, BuildingBlock: KUFVIS_clean_sbu_0, # of connection points: 4
#     Node 7, Type 0, BuildingBlock: KUFVIS_clean_sbu_0, # of connection points: 4
#     Node 8, Type 0, BuildingBlock: KUFVIS_clean_sbu_0, # of connection points: 4
#     Node 9, Type 0, BuildingBlock: KUFVIS_clean_sbu_0, # of connection points: 4
#     Node 10, Type 0, BuildingBlock: KUFVIS_clean_sbu_0, # of connection points: 4
#     Node 11, Type 0, BuildingBlock: KUFVIS_clean_sbu_0, # of connection points: 4
#     Node 12, Type 0, BuildingBlock: KUFVIS_clean_sbu_0, # of connection points: 4
#     Node 13, Type 0, BuildingBlock: KUFVIS_clean_sbu_0, # of connection points: 4
#     Node 14, Type 0, BuildingBlock: KUFVIS_clean_sbu_0, # of connection points: 4
#     Node 15, Type 0, BuildingBlock: KUFVIS_clean_sbu_0, # of connection points: 4
#     Node 16, Type 0, BuildingBlock: KUFVIS_clean_sbu_0, # of connection points: 4
#     Node 17, Type 0, BuildingBlock: KUFVIS_clean_sbu_0, # of connection points: 4
#     Node 18, Type 0, BuildingBlock: KUFVIS_clean_sbu_0, # of connection points: 4
#     Node 19, Type 0, BuildingBlock: KUFVIS_clean_sbu_0, # of connection points: 4
#     Node 20, Type 0, BuildingBlock: KUFVIS_clean_sbu_0, # of connection points: 4
#     Node 21, Type 0, BuildingBlock: KUFVIS_clean_sbu_0, # of connection points: 4
#     Node 22, Type 0, BuildingBlock: KUFVIS_clean_sbu_0, # of connection points: 4
#     Node 23, Type 0, BuildingBlock: KUFVIS_clean_sbu_0, # of connection points: 4
#     Node 24, Type 1, BuildingBlock: PAMTUU_clean_sbu_0, # of connection points: 6
#     Node 25, Type 1, BuildingBlock: PAMTUU_clean_sbu_0, # of connection points: 6
#     Node 26, Type 1, BuildingBlock: PAMTUU_clean_sbu_0, # of connection points: 6
#     Node 27, Type 1, BuildingBlock: PAMTUU_clean_sbu_0, # of connection points: 6
#     Node 28, Type 1, BuildingBlock: PAMTUU_clean_sbu_0, # of connection points: 6
#     Node 29, Type 1, BuildingBlock: PAMTUU_clean_sbu_0, # of connection points: 6
#     Node 30, Type 1, BuildingBlock: PAMTUU_clean_sbu_0, # of connection points: 6
#     Node 31, Type 1, BuildingBlock: PAMTUU_clean_sbu_0, # of connection points: 6
#     Node 32, Type 1, BuildingBlock: PAMTUU_clean_sbu_0, # of connection points: 6
#     Node 33, Type 1, BuildingBlock: PAMTUU_clean_sbu_0, # of connection points: 6
#     Node 34, Type 1, BuildingBlock: PAMTUU_clean_sbu_0, # of connection points: 6
#     Node 35, Type 1, BuildingBlock: PAMTUU_clean_sbu_0, # of connection points: 6
#     Node 36, Type 1, BuildingBlock: PAMTUU_clean_sbu_0, # of connection points: 6
#     Node 37, Type 1, BuildingBlock: PAMTUU_clean_sbu_0, # of connection points: 6
#     Node 38, Type 1, BuildingBlock: PAMTUU_clean_sbu_0, # of connection points: 6
#     Node 39, Type 1, BuildingBlock: PAMTUU_clean_sbu_0, # of connection points: 6
#     Edge 40, Type (0, 1), BuildingBlock: CIFDUS_clean_linker_0, # of connection points: 2
#     Edge 41, Type (0, 1), BuildingBlock: CIFDUS_clean_linker_0, # of connection points: 2
#     Edge 42, Type (0, 1), BuildingBlock: CIFDUS_clean_linker_0, # of connection points: 2
#     Edge 43, Type (0, 1), BuildingBlock: CIFDUS_clean_linker_0, # of connection points: 2
#     Edge 44, Type (0, 1), BuildingBlock: CIFDUS_clean_linker_0, # of connection points: 2
#     Edge 45, Type (0, 1), BuildingBlock: CIFDUS_clean_linker_0, # of connection points: 2
#     Edge 46, Type (0, 1), BuildingBlock: CIFDUS_clean_linker_0, # of connection points: 2
#     Edge 47, Type (0, 1), BuildingBlock: CIFDUS_clean_linker_0, # of connection points: 2
#     Edge 48, Type (0, 1), BuildingBlock: CIFDUS_clean_linker_0, # of connection points: 2
#     Edge 49, Type (0, 1), BuildingBlock: CIFDUS_clean_linker_0, # of connection points: 2
#     Edge 50, Type (0, 1), BuildingBlock: CIFDUS_clean_linker_0, # of connection points: 2
#     Edge 51, Type (0, 1), BuildingBlock: CIFDUS_clean_linker_0, # of connection points: 2
#     Edge 52, Type (0, 1), BuildingBlock: CIFDUS_clean_linker_0, # of connection points: 2
#     Edge 53, Type (0, 1), BuildingBlock: CIFDUS_clean_linker_0, # of connection points: 2
#     Edge 54, Type (0, 1), BuildingBlock: CIFDUS_clean_linker_0, # of connection points: 2
#     Edge 55, Type (0, 1), BuildingBlock: CIFDUS_clean_linker_0, # of connection points: 2
#     Edge 56, Type (0, 1), BuildingBlock: CIFDUS_clean_linker_0, # of connection points: 2
#     Edge 57, Type (0, 1), BuildingBlock: CIFDUS_clean_linker_0, # of connection points: 2
#     Edge 58, Type (0, 1), BuildingBlock: CIFDUS_clean_linker_0, # of connection points: 2
#     Edge 59, Type (0, 1), BuildingBlock: CIFDUS_clean_linker_0, # of connection points: 2
#     Edge 60, Type (0, 1), BuildingBlock: CIFDUS_clean_linker_0, # of connection points: 2
#     Edge 61, Type (0, 1), BuildingBlock: CIFDUS_clean_linker_0, # of connection points: 2
#     Edge 62, Type (0, 1), BuildingBlock: CIFDUS_clean_linker_0, # of connection points: 2
#     Edge 63, Type (0, 1), BuildingBlock: CIFDUS_clean_linker_0, # of connection points: 2
#     Edge 64, Type (0, 1), BuildingBlock: CIFDUS_clean_linker_0, # of connection points: 2
#     Edge 65, Type (0, 1), BuildingBlock: CIFDUS_clean_linker_0, # of connection points: 2
#     Edge 66, Type (0, 1), BuildingBlock: CIFDUS_clean_linker_0, # of connection points: 2
#     Edge 67, Type (0, 1), BuildingBlock: CIFDUS_clean_linker_0, # of connection points: 2
#     Edge 68, Type (0, 1), BuildingBlock: CIFDUS_clean_linker_0, # of connection points: 2
#     Edge 69, Type (0, 1), BuildingBlock: CIFDUS_clean_linker_0, # of connection points: 2
#     Edge 70, Type (0, 1), BuildingBlock: CIFDUS_clean_linker_0, # of connection points: 2
#     Edge 71, Type (0, 1), BuildingBlock: CIFDUS_clean_linker_0, # of connection points: 2
#     Edge 72, Type (0, 1), BuildingBlock: CIFDUS_clean_linker_0, # of connection points: 2
#     Edge 73, Type (0, 1), BuildingBlock: CIFDUS_clean_linker_0, # of connection points: 2
#     Edge 74, Type (0, 1), BuildingBlock: CIFDUS_clean_linker_0, # of connection points: 2
#     Edge 75, Type (0, 1), BuildingBlock: CIFDUS_clean_linker_0, # of connection points: 2
#     Edge 76, Type (0, 1), BuildingBlock: CIFDUS_clean_linker_0, # of connection points: 2
#     Edge 77, Type (0, 1), BuildingBlock: CIFDUS_clean_linker_0, # of connection points: 2
#     Edge 78, Type (0, 1), BuildingBlock: CIFDUS_clean_linker_0, # of connection points: 2
#     Edge 79, Type (0, 1), BuildingBlock: CIFDUS_clean_linker_0, # of connection points: 2
#     Edge 80, Type (0, 1), BuildingBlock: CIFDUS_clean_linker_0, # of connection points: 2
#     Edge 81, Type (0, 1), BuildingBlock: CIFDUS_clean_linker_0, # of connection points: 2
#     Edge 82, Type (0, 1), BuildingBlock: CIFDUS_clean_linker_0, # of connection points: 2
#     Edge 83, Type (0, 1), BuildingBlock: CIFDUS_clean_linker_0, # of connection points: 2
#     Edge 84, Type (0, 1), BuildingBlock: CIFDUS_clean_linker_0, # of connection points: 2
#     Edge 85, Type (0, 1), BuildingBlock: CIFDUS_clean_linker_0, # of connection points: 2
#     Edge 86, Type (0, 1), BuildingBlock: CIFDUS_clean_linker_0, # of connection points: 2
#     Edge 87, Type (0, 1), BuildingBlock: CIFDUS_clean_linker_0, # of connection points: 2
#     Edge 88, Type (0, 1), BuildingBlock: CIFDUS_clean_linker_0, # of connection points: 2
#     Edge 89, Type (0, 1), BuildingBlock: CIFDUS_clean_linker_0, # of connection points: 2
#     Edge 90, Type (0, 1), BuildingBlock: CIFDUS_clean_linker_0, # of connection points: 2
#     Edge 91, Type (0, 1), BuildingBlock: CIFDUS_clean_linker_0, # of connection points: 2
#     Edge 92, Type (0, 1), BuildingBlock: CIFDUS_clean_linker_0, # of connection points: 2
#     Edge 93, Type (0, 1), BuildingBlock: CIFDUS_clean_linker_0, # of connection points: 2
#     Edge 94, Type (0, 1), BuildingBlock: CIFDUS_clean_linker_0, # of connection points: 2
#     Edge 95, Type (0, 1), BuildingBlock: CIFDUS_clean_linker_0, # of connection points: 2
#     Edge 96, Type (0, 1), BuildingBlock: CIFDUS_clean_linker_0, # of connection points: 2
#     Edge 97, Type (0, 1), BuildingBlock: CIFDUS_clean_linker_0, # of connection points: 2
#     Edge 98, Type (0, 1), BuildingBlock: CIFDUS_clean_linker_0, # of connection points: 2
#     Edge 99, Type (0, 1), BuildingBlock: CIFDUS_clean_linker_0, # of connection points: 2
#     Edge 100, Type (0, 1), BuildingBlock: CIFDUS_clean_linker_0, # of connection points: 2
#     Edge 101, Type (0, 1), BuildingBlock: CIFDUS_clean_linker_0, # of connection points: 2
#     Edge 102, Type (0, 1), BuildingBlock: CIFDUS_clean_linker_0, # of connection points: 2
#     Edge 103, Type (0, 1), BuildingBlock: CIFDUS_clean_linker_0, # of connection points: 2
#     Edge 104, Type (0, 1), BuildingBlock: CIFDUS_clean_linker_0, # of connection points: 2
#     Edge 105, Type (0, 1), BuildingBlock: CIFDUS_clean_linker_0, # of connection points: 2
#     Edge 106, Type (0, 1), BuildingBlock: CIFDUS_clean_linker_0, # of connection points: 2
#     Edge 107, Type (0, 1), BuildingBlock: CIFDUS_clean_linker_0, # of connection points: 2
#     Edge 108, Type (0, 1), BuildingBlock: CIFDUS_clean_linker_0, # of connection points: 2
#     Edge 109, Type (0, 1), BuildingBlock: CIFDUS_clean_linker_0, # of connection points: 2
#     Edge 110, Type (0, 1), BuildingBlock: CIFDUS_clean_linker_0, # of connection points: 2
#     Edge 111, Type (0, 1), BuildingBlock: CIFDUS_clean_linker_0, # of connection points: 2
#     Edge 112, Type (0, 1), BuildingBlock: CIFDUS_clean_linker_0, # of connection points: 2
#     Edge 113, Type (0, 1), BuildingBlock: CIFDUS_clean_linker_0, # of connection points: 2
#     Edge 114, Type (0, 1), BuildingBlock: CIFDUS_clean_linker_0, # of connection points: 2
#     Edge 115, Type (0, 1), BuildingBlock: CIFDUS_clean_linker_0, # of connection points: 2
#     Edge 116, Type (0, 1), BuildingBlock: CIFDUS_clean_linker_0, # of connection points: 2
#     Edge 117, Type (0, 1), BuildingBlock: CIFDUS_clean_linker_0, # of connection points: 2
#     Edge 118, Type (0, 1), BuildingBlock: CIFDUS_clean_linker_0, # of connection points: 2
#     Edge 119, Type (0, 1), BuildingBlock: CIFDUS_clean_linker_0, # of connection points: 2
#     Edge 120, Type (0, 1), BuildingBlock: CIFDUS_clean_linker_0, # of connection points: 2
#     Edge 121, Type (0, 1), BuildingBlock: CIFDUS_clean_linker_0, # of connection points: 2
#     Edge 122, Type (0, 1), BuildingBlock: CIFDUS_clean_linker_0, # of connection points: 2
#     Edge 123, Type (0, 1), BuildingBlock: CIFDUS_clean_linker_0, # of connection points: 2
#     Edge 124, Type (0, 1), BuildingBlock: CIFDUS_clean_linker_0, # of connection points: 2
#     Edge 125, Type (0, 1), BuildingBlock: CIFDUS_clean_linker_0, # of connection points: 2
#     Edge 126, Type (0, 1), BuildingBlock: CIFDUS_clean_linker_0, # of connection points: 2
#     Edge 127, Type (0, 1), BuildingBlock: CIFDUS_clean_linker_0, # of connection points: 2
#     Edge 128, Type (0, 1), BuildingBlock: CIFDUS_clean_linker_0, # of connection points: 2
#     Edge 129, Type (0, 1), BuildingBlock: CIFDUS_clean_linker_0, # of connection points: 2
#     Edge 130, Type (0, 1), BuildingBlock: CIFDUS_clean_linker_0, # of connection points: 2
#     Edge 131, Type (0, 1), BuildingBlock: CIFDUS_clean_linker_0, # of connection points: 2
#     Edge 132, Type (0, 1), BuildingBlock: CIFDUS_clean_linker_0, # of connection points: 2
#     Edge 133, Type (0, 1), BuildingBlock: CIFDUS_clean_linker_0, # of connection points: 2
#     Edge 134, Type (0, 1), BuildingBlock: CIFDUS_clean_linker_0, # of connection points: 2
#     Edge 135, Type (0, 1), BuildingBlock: CIFDUS_clean_linker_0, # of connection points: 2
# Relax obj value: 0.189
# Max RMSD: 0.347
# Mean RMSD: 0.164
data_MOF--net-gar--node1-KUFVIS_clean_sbu_0--node2-PAMTUU_clean_sbu_0--edge1-CIFDUS_clean_linker_0
_symmetry_space_group_name_H-M    P1
_symmetry_Int_Tables_number       1
_symmetry_cell_setting            triclinic
loop_
_symmetry_equiv_pos_as_xyz
'x, y, z'
_cell_length_a     52.766403
_cell_length_b     48.674322
_cell_length_c     53.374645
_cell_angle_alpha  93.534934
_cell_angle_beta   94.177895
_cell_angle_gamma 106.17435
loop_
_atom_site_label
_atom_site_type_symbol
_atom_site_fract_x
_atom_site_fract_y
_atom_site_fract_z
_atom_type_partial_charge
Mn0 Mn 0.06975 0.29102 0.41505 0.0
Mn1 Mn 0.07373 0.33777 0.36875 0.0
C2 C 0.02737 0.29718 0.39252 0.0
C3 C 0.06902 0.24488 0.4382 0.0
C4 C 0.08058 0.35979 0.42563 0.0
O5 O 0.10986 0.29614 0.40135 0.0
O6 O 0.10961 0.32759 0.37246 0.0
C7 C 0.07654 0.29675 0.32614 0.0
N8 N 0.06441 0.31525 0.33688 0.0
C9 C 0.03064 0.3047 0.30191 0.0
C10 C 0.04294 0.28579 0.29047 0.0
C11 C 0.06596 0.28177 0.30266 0.0
C12 C 0.04199 0.31892 0.32541 0.0
H13 H 0.09409 0.29324 0.33539 0.0
C14 C 0.12176 0.3113 0.38364 0.0
O15 O 0.0775 0.27111 0.44769 0.0
O16 O 0.06141 0.24455 0.41436 0.0
N17 N 0.04282 0.35012 0.3605 0.0
C18 C 0.03535 0.37196 0.37217 0.0
C19 C 1.01321 0.37949 0.36188 0.0
C20 C 0.99945 0.36521 0.33917 0.0
C21 C 1.00854 0.34423 0.32654 0.0
C22 C 0.03081 0.33769 0.33772 0.0
H23 H 0.04654 0.38408 0.38885 0.0
O24 O 0.02882 0.28723 0.4145 0.0
O25 O 0.05112 0.30325 0.38404 0.0
O26 O 0.07763 0.33429 0.43308 0.0
O27 O 0.08145 0.36348 0.40192 0.0
C28 C 0.99667 0.32997 0.30305 0.0
C29 C 1.00763 0.31009 0.29081 0.0
H30 H 0.0349 0.27427 0.27232 0.0
H31 H 0.07552 0.26712 0.29399 0.0
H32 H 1.00696 0.39648 0.37131 0.0
H33 H 0.98235 0.37104 0.33128 0.0
H34 H 0.97925 0.33433 0.29413 0.0
H35 H 0.99839 0.29934 0.27269 0.0
Mn36 Mn 0.06838 0.80271 0.68667 0.0
Mn37 Mn 0.08222 0.85788 0.73166 0.0
C38 C 0.11495 0.81952 0.7088 0.0
C39 C 0.05964 0.75126 0.66718 0.0
C40 C 0.07371 0.86882 0.67489 0.0
O41 O 0.02868 0.80107 0.70069 0.0
O42 O 0.04143 0.83804 0.73069 0.0
C43 C 0.07061 0.82777 0.77795 0.0
N44 N 0.0882 0.84531 0.76429 0.0
C45 C 0.12315 0.85282 0.79783 0.0
C46 C 0.10535 0.83493 0.81226 0.0
C47 C 0.07899 0.82234 0.80226 0.0
C48 C 0.11364 0.85757 0.77377 0.0
H49 H 0.05029 0.81807 0.77044 0.0
C50 C 1.02245 0.81703 0.71905 0.0
O51 O 0.05572 0.77221 0.65518 0.0
O52 O 0.06567 0.75909 0.69112 0.0
N53 N 0.11922 0.87825 0.73566 0.0
C54 C 0.13417 0.89429 0.71907 0.0
C55 C 0.16118 0.90782 0.72601 0.0
C56 C 0.17256 0.90478 0.74991 0.0
C57 C 0.15685 0.88803 0.7666 0.0
C58 C 0.13005 0.87495 0.75861 0.0
H59 H 0.12566 0.89666 0.70062 0.0
O60 O 0.10899 0.80833 0.68573 0.0
O61 O 0.09306 0.82315 0.71784 0.0
O62 O 0.07028 0.84188 0.66783 0.0
O63 O 0.07745 0.87658 0.69867 0.0
C64 C 0.1668 0.88363 0.79077 0.0
C65 C 0.14994 0.8661 0.8064 0.0
H66 H 0.11172 0.83071 0.83103 0.0
H67 H 0.06513 0.80853 0.8133 0.0
H68 H 0.1732 0.92057 0.71296 0.0
H69 H 0.19339 0.91528 0.75521 0.0
H70 H 0.18741 0.89358 0.79749 0.0
H71 H 0.15782 0.86287 0.82495 0.0
Mn72 Mn 0.56478 0.79209 0.91491 0.0
Mn73 Mn 0.57153 0.84197 0.87127 0.0
C74 C 0.52323 0.79957 0.89052 0.0
C75 C 0.56323 0.74454 0.93688 0.0
C76 C 0.57663 0.86097 0.92865 0.0
O77 O 0.60555 0.79727 0.90173 0.0
O78 O 0.60696 0.83024 0.87389 0.0
C79 C 0.57447 0.80518 0.82567 0.0
N80 N 0.56274 0.82312 0.83787 0.0
C81 C 0.53172 0.81971 0.80158 0.0
C82 C 0.54373 0.80154 0.7886 0.0
C83 C 0.56512 0.79418 0.80073 0.0
C84 C 0.54196 0.83014 0.8264 0.0
H85 H 0.5908 0.7992 0.83485 0.0
C86 C 0.61827 0.81275 0.88446 0.0
O87 O 0.5711 0.77037 0.94734 0.0
O88 O 0.55628 0.74553 0.91307 0.0
N89 N 0.54078 0.85516 0.86471 0.0
C90 C 0.53013 0.87142 0.88023 0.0
C91 C 0.50803 0.8798 0.87111 0.0
C92 C 0.49707 0.87152 0.84612 0.0
C93 C 0.50832 0.85489 0.83046 0.0
C94 C 0.53047 0.84726 0.84053 0.0
H95 H 0.53821 0.87789 0.89951 0.0
O96 O 0.52331 0.78857 0.91215 0.0
O97 O 0.54771 0.80579 0.88363 0.0
O98 O 0.5722 0.83465 0.93461 0.0
O99 O 0.57971 0.86607 0.90549 0.0
C100 C 0.49805 0.84507 0.8054 0.0
C101 C 0.50972 0.82746 0.79098 0.0
H102 H 0.53651 0.79291 0.76939 0.0
H103 H 0.57436 0.77998 0.79089 0.0
H104 H 0.49936 0.8925 0.88338 0.0
H105 H 0.47984 0.87777 0.83924 0.0
H106 H 0.48092 0.85056 0.79715 0.0
H107 H 0.50141 0.81972 0.77184 0.0
Mn108 Mn 0.57375 0.30753 0.19473 0.0
Mn109 Mn 0.52266 0.29354 0.14831 0.0
C110 C 0.55661 0.25842 0.17183 0.0
C111 C 0.62332 0.31485 0.21137 0.0
C112 C 0.51164 0.30489 0.20445 0.0
O113 O 0.57665 0.34983 0.17984 0.0
O114 O 0.54287 0.33628 0.14886 0.0
C115 C 0.55254 0.30322 0.10315 0.0
N116 N 0.5347 0.28545 0.11644 0.0
C117 C 0.52797 0.24626 0.08452 0.0
C118 C 0.54609 0.26423 0.07043 0.0
C119 C 0.55844 0.29282 0.07981 0.0
C120 C 0.52269 0.25789 0.10756 0.0
H121 H 0.5623 0.32513 0.11032 0.0
C122 C 0.56266 0.35609 0.16054 0.0
O123 O 0.60523 0.31954 0.22489 0.0
O124 O 0.61348 0.30865 0.18803 0.0
N125 N 0.50255 0.25388 0.14506 0.0
C126 C 0.4868 0.23878 0.16162 0.0
C127 C 0.47357 0.20961 0.15537 0.0
C128 C 0.47673 0.1962 0.13223 0.0
C129 C 0.49313 0.21209 0.11554 0.0
C130 C 0.50564 0.2412 0.12269 0.0
H131 H 0.48442 0.24881 0.17955 0.0
O132 O 0.56694 0.26308 0.195 0.0
O133 O 0.55396 0.28249 0.16364 0.0
O134 O 0.53647 0.3077 0.21272 0.0
O135 O 0.50537 0.30047 0.18049 0.0
C136 C 0.49793 0.20006 0.09231 0.0
C137 C 0.51533 0.21713 0.07681 0.0
H138 H 0.55084 0.25624 0.05251 0.0
H139 H 0.57255 0.30678 0.0691 0.0
H140 H 0.46105 0.19745 0.16842 0.0
H141 H 0.46665 0.17362 0.12757 0.0
H142 H 0.48859 0.17761 0.08632 0.0
H143 H 0.51909 0.20755 0.05911 0.0
Mn144 Mn 0.1265 0.82279 0.15208 0.0
Mn145 Mn 0.07599 0.80078 0.10546 0.0
C146 C 0.11063 0.77451 0.13585 0.0
C147 C 0.17151 0.83643 0.16935 0.0
C148 C 0.06766 0.81489 0.15949 0.0
O149 O 0.12623 0.86135 0.13708 0.0
O150 O 0.0921 0.84298 0.10707 0.0
C151 C 0.10672 0.81342 0.06121 0.0
N152 N 0.08981 0.79427 0.07422 0.0
C153 C 0.08479 0.75635 0.04145 0.0
C154 C 0.10213 0.77568 0.02769 0.0
C155 C 0.11319 0.80431 0.03764 0.0
C156 C 0.07919 0.76662 0.06487 0.0
H157 H 0.11505 0.8355 0.06871 0.0
C158 C 0.10981 0.86431 0.119 0.0
O159 O 0.15278 0.84151 0.18164 0.0
O160 O 0.16461 0.82615 0.14601 0.0
N161 N 0.05851 0.7604 0.10196 0.0
C162 C 0.04152 0.74467 0.11727 0.0
C163 C 0.0286 0.71563 0.10997 0.0
C164 C 0.03298 0.70314 0.08687 0.0
C165 C 0.05017 0.71988 0.07122 0.0
C166 C 0.06245 0.74874 0.07948 0.0
H167 H 0.03781 0.75421 0.13492 0.0
O168 O 0.12233 0.78138 0.15849 0.0
O169 O 0.10796 0.79582 0.12352 0.0
O170 O 0.09201 0.82217 0.1679 0.0
O171 O 0.05933 0.80605 0.13662 0.0
C172 C 0.05543 0.70913 0.04765 0.0
C173 C 0.07276 0.72733 0.0328 0.0
H174 H 0.10706 0.76879 1.00944 0.0
H175 H 0.12656 0.81935 0.0271 0.0
H176 H 1.01521 0.70293 0.12208 0.0
H177 H 0.02296 0.68073 0.08128 0.0
H178 H 0.04621 0.6869 0.04076 0.0
H179 H 0.07664 0.71881 0.0147 0.0
Mn180 Mn 0.51379 0.77708 0.45551 0.0
Mn181 Mn 0.51212 0.82581 0.41222 0.0
C182 C 0.47287 0.77781 0.43317 0.0
C183 C 0.52016 0.73244 0.46808 0.0
C184 C 0.52143 0.84206 0.46862 0.0
O185 O 0.5524 0.78999 0.44662 0.0
O186 O 0.54716 0.81876 0.41634 0.0
C187 C 0.52057 0.79545 0.36523 0.0
N188 N 0.50576 0.80922 0.37821 0.0
C189 C 0.48013 0.81313 0.34009 0.0
C190 C 0.495 0.79882 0.32631 0.0
C191 C 0.51519 0.78979 0.33896 0.0
C192 C 0.48615 0.81779 0.36624 0.0
H193 H 0.53667 0.78935 0.3748 0.0
C194 C 0.56122 0.80605 0.42922 0.0
O195 O 0.52371 0.75482 0.48376 0.0
O196 O 0.51206 0.73547 0.44506 0.0
N197 N 0.47929 0.83477 0.40609 0.0
C198 C 0.46599 0.84692 0.42236 0.0
C199 C 0.44438 0.856 0.41295 0.0
C200 C 0.43705 0.85303 0.38686 0.0
C201 C 0.45113 0.84054 0.37048 0.0
C202 C 0.47213 0.83137 0.38103 0.0
H203 H 0.47169 0.84933 0.44236 0.0
O204 O 0.4734 0.76671 0.4547 0.0
O205 O 0.49601 0.78838 0.42533 0.0
O206 O 0.5192 0.81689 0.47571 0.0
O207 O 0.51897 0.84694 0.44561 0.0
C208 C 0.44507 0.83664 0.34412 0.0
C209 C 0.45963 0.82303 0.32892 0.0
H210 H 0.49113 0.79472 0.30601 0.0
H211 H 0.52689 0.77895 0.32842 0.0
H212 H 0.43352 0.86544 0.42574 0.0
H213 H 0.42045 0.86017 0.37965 0.0
H214 H 0.42905 0.84369 0.33538 0.0
H215 H 0.45463 0.81992 0.3087 0.0
Mn216 Mn 0.63104 0.32053 0.64797 0.0
Mn217 Mn 0.58 0.30073 0.60205 0.0
C218 C 0.61785 0.27377 0.62851 0.0
C219 C 0.67597 0.33649 0.66473 0.0
C220 C 0.5728 0.30916 0.65747 0.0
O221 O 0.62695 0.3596 0.637 0.0
O222 O 0.59551 0.34339 0.60399 0.0
C223 C 0.60751 0.31493 0.55617 0.0
N224 N 0.59178 0.29524 0.56963 0.0
C225 C 0.58446 0.25835 0.53551 0.0
C226 C 0.60053 0.27827 0.52125 0.0
C227 C 0.61216 0.30664 0.53165 0.0
C228 C 0.58046 0.26787 0.55979 0.0
H229 H 0.6163 0.33678 0.56408 0.0
C230 C 0.61178 0.36383 0.61841 0.0
O231 O 0.6567 0.33821 0.67786 0.0
O232 O 0.66947 0.32854 0.64084 0.0
N233 N 0.5633 0.26017 0.59847 0.0
C234 C 0.54929 0.24332 0.61514 0.0
C235 C 0.53708 0.21408 0.608 0.0
C236 C 0.53921 0.20252 0.58374 0.0
C237 C 0.55364 0.22031 0.56689 0.0
C238 C 0.56538 0.2493 0.57507 0.0
H239 H 0.54745 0.25208 0.63378 0.0
O240 O 0.6303 0.27948 0.65091 0.0
O241 O 0.61317 0.29559 0.61805 0.0
O242 O 0.59706 0.3142 0.66537 0.0
O243 O 0.56449 0.30494 0.63416 0.0
C244 C 0.55707 0.21037 0.54238 0.0
C245 C 0.57244 0.22938 0.52669 0.0
H246 H 0.60418 0.27198 0.50233 0.0
H247 H 0.62459 0.32212 0.52074 0.0
H248 H 0.52599 0.20051 0.62113 0.0
H249 H 0.52977 0.17995 0.57829 0.0
H250 H 0.54814 0.18809 0.53548 0.0
H251 H 0.57509 0.22143 0.50795 0.0
Mn252 Mn 1.01481 0.27837 0.95523 0.0
Mn253 Mn 1.01607 0.32485 0.90985 0.0
C254 C 0.97484 0.28015 0.93282 0.0
C255 C 1.02017 0.23379 0.96833 0.0
C256 C 0.02586 0.34354 0.96596 0.0
O257 O 0.05365 0.29027 0.94678 0.0
O258 O 0.04956 0.31431 0.91259 0.0
C259 C 1.01808 0.28945 0.86337 0.0
N260 N 1.00617 0.30635 0.87661 0.0
C261 C 0.97787 0.30886 0.83988 0.0
C262 C 0.98975 0.29137 0.82584 0.0
C263 C 1.00981 0.28145 0.83769 0.0
C264 C 0.98662 0.31568 0.86548 0.0
H265 H 0.03399 0.28247 0.8723 0.0
C266 C 0.06294 0.30309 0.92775 0.0
O267 O 0.02433 0.25648 0.98385 0.0
O268 O 1.01209 0.23662 0.94527 0.0
N269 N 0.98485 0.33728 0.90516 0.0
C270 C 0.97486 0.35321 0.92159 0.0
C271 C 0.95377 0.36362 0.91305 0.0
C272 C 0.94366 0.35823 0.88759 0.0
C273 C 0.95473 0.34245 0.8709 0.0
C274 C 0.97534 0.33211 0.88061 0.0
H275 H 0.98286 0.35789 0.94107 0.0
O276 O 0.97464 0.26901 0.95438 0.0
O277 O 0.99808 0.28936 0.92483 0.0
O278 O 1.01969 0.31858 0.97417 0.0
O279 O 0.02652 0.34727 0.94261 0.0
C280 C 0.946 0.3364 0.84504 0.0
C281 C 0.95763 0.31971 0.82952 0.0
H282 H 0.98361 0.28539 0.80598 0.0
H283 H 1.01913 0.26804 0.82694 0.0
H284 H 0.94543 0.37592 0.92602 0.0
H285 H 0.92726 0.36606 0.8811 0.0
H286 H 0.93015 0.34421 0.83697 0.0
H287 H 0.95054 0.31492 0.80973 0.0
Mn288 Mn 0.4637 0.05931 0.34975 0.0
Mn289 Mn 0.40772 0.03694 0.37891 0.0
C290 C 0.44867 1.01257 0.35961 0.0
C291 C 0.48369 0.06682 0.31302 0.0
C292 C 0.45969 0.07368 0.40495 0.0
O293 O 0.44601 0.09011 0.34375 0.0
O294 O 0.4089 0.07292 0.36308 0.0
C295 C 0.36849 0.02391 0.334 0.0
N296 N 0.37961 1.01508 0.35473 0.0
C297 C 0.34851 0.96796 0.34768 0.0
C298 C 0.33655 0.97671 0.32649 0.0
C299 C 0.34669 1.00476 0.31955 0.0
C300 C 0.37016 0.98802 0.3614 0.0
H301 H 0.37613 0.04542 0.32854 0.0
C302 C 0.42353 0.09126 0.35009 0.0
O303 O 0.49571 0.08067 0.33413 0.0
O304 O 0.4605 0.04876 0.31352 0.0
N305 N 0.404 1.0014 0.39408 0.0
C306 C 0.41799 0.99597 0.4147 0.0
C307 C 0.41153 0.96827 0.42305 0.0
C308 C 0.39015 0.94659 0.4106 0.0
C309 C 0.37546 0.95282 0.38988 0.0
C310 C 0.38321 0.9807 0.38211 0.0
H311 H 0.43375 1.0127 0.4248 0.0
O312 O 0.47351 0.02329 0.35632 0.0
O313 O 0.43399 0.02979 0.35765 0.0
O314 O 0.47298 0.07505 0.38593 0.0
O315 O 0.43561 0.0587 0.4051 0.0
C316 C 0.35361 0.93237 0.37647 0.0
C317 C 0.34006 0.93997 0.35546 0.0
H318 H 0.31976 0.96199 0.31527 0.0
H319 H 0.33767 1.01164 0.30313 0.0
H320 H 0.42289 0.96371 0.43918 0.0
H321 H 0.38518 0.92525 0.4171 0.0
H322 H 0.34719 0.91066 0.38204 0.0
H323 H 0.32341 0.924 0.34519 0.0
Mn324 Mn 0.30186 0.23097 0.54471 0.0
Mn325 Mn 0.2911 0.17136 0.50469 0.0
C326 C 0.25848 0.20076 0.53266 0.0
C327 C 0.30575 0.24565 0.59049 0.0
C328 C 0.31065 0.23219 0.48712 0.0
O329 O 0.33804 0.22259 0.54653 0.0
O330 O 0.32602 0.17861 0.52472 0.0
C331 C 0.28681 0.12569 0.53973 0.0
N332 N 0.27582 0.13725 0.52069 0.0
C333 C 0.23585 0.09787 0.51711 0.0
C334 C 0.24682 0.08556 0.53665 0.0
C335 C 0.27241 0.09955 0.54802 0.0
C336 C 0.25125 0.12384 0.5095 0.0
H337 H 0.30639 0.13635 0.54849 0.0
C338 C 0.34267 0.1991 0.53881 0.0
O339 O 0.31361 0.26415 0.57409 0.0
O340 O 0.2971 0.21979 0.58051 0.0
N341 N 0.2574 0.16288 0.48528 0.0
C342 C 0.24892 0.17857 0.46793 0.0
C343 C 0.22325 0.1682 0.4556 0.0
C344 C 0.20656 0.14178 0.46117 0.0
C345 C 0.21567 0.12604 0.47913 0.0
C346 C 0.24146 0.13747 0.49082 0.0
H347 H 0.26156 0.19893 0.46357 0.0
O348 O 0.26212 0.22728 0.54101 0.0
O349 O 0.28015 0.19424 0.5301 0.0
O350 O 0.30846 0.2468 0.50779 0.0
O351 O 0.30589 0.20489 0.48595 0.0
C352 C 0.19992 0.0998 0.48632 0.0
C353 C 0.21003 0.08569 0.50525 0.0
H354 H 0.23569 0.0655 0.54322 0.0
H355 H 0.28099 0.09023 0.56316 0.0
H356 H 0.21631 0.18057 0.44188 0.0
H357 H 0.1867 0.13394 0.45175 0.0
H358 H 0.17987 0.0905 0.47767 0.0
H359 H 0.19763 0.0657 0.51083 0.0
Mn360 Mn 0.19176 0.08182 0.85763 0.0
Mn361 Mn 0.24534 0.0993 0.90003 0.0
C362 C 0.20697 0.12861 0.87535 0.0
C363 C 0.17162 0.07639 0.81707 0.0
C364 C 0.1912 0.06373 0.91064 0.0
O365 O 0.2087 0.05048 0.84972 0.0
O366 O 0.24488 0.06498 0.87765 0.0
C367 C 0.28827 0.11561 0.86623 0.0
N368 N 0.27638 0.12184 0.88678 0.0
C369 C 0.31282 0.1638 0.89977 0.0
C370 C 0.3256 0.15769 0.87888 0.0
C371 C 0.31316 0.13363 0.86193 0.0
C372 C 0.28798 0.14515 0.90299 0.0
H373 H 0.2789 0.09693 0.85337 0.0
C374 C 0.2305 0.04789 0.85959 0.0
O375 O 0.15981 0.0621 0.83468 0.0
O376 O 0.19523 0.09371 0.82285 0.0
N377 N 0.24917 0.13225 0.92293 0.0
C378 C 0.23247 0.1372 0.93981 0.0
C379 C 0.24079 0.16186 0.95686 0.0
C380 C 0.26629 0.18088 0.95659 0.0
C381 C 0.28309 0.17534 0.93897 0.0
C382 C 0.27366 0.15053 0.92238 0.0
H383 H 0.21302 0.12238 0.94024 0.0
O384 O 0.18197 0.11652 0.8687 0.0
O385 O 0.22211 0.11138 0.87448 0.0
O386 O 0.17983 0.0645 0.88918 0.0
O387 O 0.2156 0.0763 0.91694 0.0
C388 C 0.30848 0.19389 0.93668 0.0
C389 C 0.32344 0.18799 0.91721 0.0
H390 H 0.3448 0.17151 0.87551 0.0
H391 H 0.32285 0.12884 0.84571 0.0
H392 H 0.22765 0.16613 0.97029 0.0
H393 H 0.27258 0.1999 0.96973 0.0
H394 H 0.31644 0.21309 0.94942 0.0
H395 H 0.34268 0.20271 0.91531 0.0
Mn396 Mn 0.33599 0.9389 0.01621 0.0
Mn397 Mn 0.35253 0.99193 0.9775 0.0
C398 C 0.37654 0.95091 1.00086 0.0
C399 C 0.33659 0.92349 0.056 0.0
C400 C 0.31577 0.93249 0.96121 0.0
O401 O 0.30917 0.9606 0.02174 0.0
O402 O 0.32341 0.9971 0.99712 0.0
C403 C 0.37409 0.04209 0.01518 0.0
N404 N 0.37744 0.02521 0.99509 0.0
C405 C 0.42182 0.05542 0.99279 0.0
C406 C 0.41853 0.07348 1.01302 0.0
C407 C 0.39461 0.06669 0.02433 0.0
C408 C 0.4005 0.03146 0.98418 0.0
H409 H 0.35599 0.03673 0.02426 0.0
C410 C 0.30824 0.98423 1.01312 0.0
O411 O 0.31982 0.90841 0.0378 0.0
O412 O 0.3513 0.94851 0.05153 0.0
N413 N 0.38142 0.98925 0.95846 0.0
C414 C 0.38248 0.9682 0.94086 0.0
C415 C 0.40579 0.97066 0.92893 0.0
C416 C 0.42784 0.99469 0.93528 0.0
C417 C 0.42647 0.0159 0.95369 0.0
C418 C 0.40268 1.01232 0.9649 0.0
H419 H 0.36589 0.94937 0.93634 0.0
O420 O 0.36729 0.92552 1.00839 0.0
O421 O 0.36137 0.96761 1.00197 0.0
O422 O 0.317 0.92195 0.98229 0.0
O423 O 0.32774 0.95847 0.95757 0.0
C424 C 0.44806 0.04003 0.96186 0.0
C425 C 0.4457 0.05984 0.98133 0.0
H426 H 0.43441 0.0923 0.02032 0.0
H427 H 0.39204 0.08031 0.04018 0.0
H428 H 0.40685 0.95393 0.91507 0.0
H429 H 0.44588 0.99635 0.92625 0.0
H430 H 0.46671 0.04329 0.9536 0.0
H431 H 0.46255 0.07808 0.98771 0.0
Mn432 Mn 0.33538 0.37655 0.05724 0.0
Mn433 Mn 0.35074 0.43056 0.0176 0.0
C434 C 0.38008 0.40334 0.0531 0.0
C435 C 0.3255 0.36102 0.09977 0.0
C436 C 0.33295 0.36763 0.99726 0.0
O437 O 0.30016 0.38713 0.05179 0.0
O438 O 0.31399 0.4225 0.02633 0.0
C439 C 0.34685 0.47799 0.05332 0.0
N440 N 0.36091 0.46686 0.03709 0.0
C441 C 0.39578 0.51139 0.04047 0.0
C442 C 0.38168 0.52332 0.05724 0.0
C443 C 0.35719 0.5065 0.0638 0.0
C444 C 0.38469 0.48273 0.03098 0.0
H445 H 0.32782 0.46529 0.05807 0.0
C446 C 0.29624 0.40706 0.03867 0.0
O447 O 0.31866 0.3438 0.07927 0.0
O448 O 0.33782 0.38709 0.09569 0.0
N449 N 0.38603 0.44136 1.00758 0.0
C450 C 0.39743 0.42648 0.99164 0.0
C451 C 0.42173 0.44033 0.98273 0.0
C452 C 0.43401 0.46948 0.99019 0.0
C453 C 0.42207 0.48433 1.00684 0.0
C454 C 0.39778 0.46937 0.01498 0.0
H455 H 0.38814 0.4042 0.98599 0.0
O456 O 0.37474 0.37795 0.0613 0.0
O457 O 0.35954 0.41175 0.04708 0.0
O458 O 0.32947 0.357 0.01896 0.0
O459 O 0.34112 0.39459 0.99532 0.0
C460 C 0.43336 0.51336 0.01575 0.0
C461 C 0.42034 0.5268 0.03274 0.0
H462 H 0.38945 0.54539 0.06515 0.0
H463 H 0.34616 0.51559 0.07668 0.0
H464 H 0.43098 0.42857 0.97018 0.0
H465 H 0.4528 0.4801 0.98335 0.0
H466 H 0.4522 0.52542 1.00989 0.0
H467 H 0.42936 0.54904 0.03968 0.0
Mn468 Mn 0.80865 0.17673 0.08979 0.0
Mn469 Mn 0.77047 0.12027 0.05065 0.0
C470 C 0.76423 0.16107 0.09272 0.0
C471 C 0.83343 0.19935 0.12615 0.0
C472 C 0.7913 0.17997 0.03486 0.0
O473 O 0.83568 0.15855 0.07703 0.0
O474 O 0.80779 0.12078 0.05296 0.0
C475 C 0.77543 0.07084 0.07824 0.0
N476 N 0.75999 0.0854 0.06663 0.0
C477 C 0.72158 0.04426 0.06381 0.0
C478 C 0.73698 0.02887 0.076 0.0
C479 C 0.76394 0.04233 0.08351 0.0
C480 C 0.73386 0.07293 0.06002 0.0
H481 H 0.79642 0.08074 0.08284 0.0
C482 C 0.83084 0.13596 0.06202 0.0
O483 O 0.83598 0.2108 0.10488 0.0
O484 O 0.81895 0.17284 0.12577 0.0
N485 N 0.73349 0.11677 0.04526 0.0
C486 C 0.72157 0.13449 0.03329 0.0
C487 C 0.69462 0.12437 0.02445 0.0
C488 C 0.68044 0.09582 0.02713 0.0
C489 C 0.69321 0.07785 0.03917 0.0
C490 C 0.7199 0.08942 0.04831 0.0
H491 H 0.73269 0.15603 0.0301 0.0
O492 O 0.77749 0.18721 0.10063 0.0
O493 O 0.77702 0.14422 0.0832 0.0
O494 O 0.80339 0.19186 0.05581 0.0
O495 O 0.77897 0.15351 0.03126 0.0
C496 C 0.68067 0.04878 0.04209 0.0
C497 C 0.69477 0.03207 0.05461 0.0
H498 H 0.7284 1.00663 0.07942 0.0
H499 H 0.776 0.03047 0.09266 0.0
H500 H 0.68498 0.13831 0.01499 0.0
H501 H 0.6598 0.08789 0.01977 0.0
H502 H 0.66013 0.03914 0.03497 0.0
H503 H 0.68485 1.00979 0.05687 0.0
Mn504 Mn 0.18057 0.56273 0.25934 0.0
Mn505 Mn 0.23253 0.58264 0.30292 0.0
C506 C 0.20902 0.60732 0.25963 0.0
C507 C 0.15973 0.54224 0.22133 0.0
C508 C 0.17553 0.57106 0.31402 0.0
O509 O 0.18465 0.52551 0.27084 0.0
O510 O 0.22551 0.54139 0.29248 0.0
C511 C 0.2793 0.57553 0.27875 0.0
N512 N 0.26678 0.59277 0.29071 0.0
C513 C 0.30622 0.63288 0.29461 0.0
C514 C 0.31945 0.61563 0.28208 0.0
C515 C 0.30592 0.58687 0.27408 0.0
C516 C 0.27973 0.62042 0.29874 0.0
H517 H 0.26907 0.55328 0.27301 0.0
C518 C 0.20532 0.52155 0.28201 0.0
O519 O 0.14669 0.54362 0.24078 0.0
O520 O 0.1855 0.5511 0.2242 0.0
N521 N 0.23989 0.62262 0.3134 0.0
C522 C 0.22385 0.63676 0.32401 0.0
C523 C 0.23395 0.66606 0.33204 0.0
C524 C 0.26047 0.68049 0.32922 0.0
C525 C 0.27658 0.6655 0.31821 0.0
C526 C 0.26535 0.63633 0.31043 0.0
H527 H 0.20353 0.62585 0.32647 0.0
O528 O 0.18469 0.60223 0.24991 0.0
O529 O 0.21564 0.58643 0.26972 0.0
O530 O 0.16597 0.5714 0.29172 0.0
O531 O 0.19976 0.57307 0.31969 0.0
C532 C 0.3033 0.67839 0.31452 0.0
C533 C 0.31814 0.66207 0.30282 0.0
H534 H 0.33996 0.62427 0.27844 0.0
H535 H 0.31608 0.57341 0.26451 0.0
H536 H 0.22136 0.67745 0.34053 0.0
H537 H 0.26821 0.70307 0.3355 0.0
H538 H 0.31256 0.70088 0.32045 0.0
H539 H 0.33862 0.67228 0.29992 0.0
Mn540 Mn 0.83864 0.87645 0.55956 0.0
Mn541 Mn 0.84782 0.92956 0.51933 0.0
C542 C 0.88167 0.90567 0.55401 0.0
C543 C 0.83175 0.86549 0.60398 0.0
C544 C 0.83194 0.86618 0.50012 0.0
O545 O 0.80182 0.88316 0.55374 0.0
O546 O 0.81295 0.92338 0.53282 0.0
C547 C 0.85003 0.98013 0.55416 0.0
N548 N 0.86152 0.96675 0.53708 0.0
C549 C 0.89815 1.00926 0.53672 0.0
C550 C 0.88669 0.02346 0.55435 0.0
C551 C 0.86256 1.0088 0.56317 0.0
C552 C 0.88479 0.98064 0.52853 0.0
H553 H 0.83137 0.96907 0.5607 0.0
C554 C 0.79658 0.9047 0.54413 0.0
O555 O 0.82545 0.84567 0.58526 0.0
O556 O 0.84136 0.89083 0.59687 0.0
N557 N 0.88122 0.93753 0.50525 0.0
C558 C 0.89011 0.92051 0.48885 0.0
C559 C 0.91421 0.93182 0.47854 0.0
C560 C 0.92874 0.9606 0.48489 0.0
C561 C 0.91922 0.97772 0.50178 0.0
C562 C 0.89515 0.96522 0.51157 0.0
H563 H 0.87892 0.8985 0.48356 0.0
O564 O 0.87847 0.88116 0.56352 0.0
O565 O 0.85994 0.91181 0.54787 0.0
O566 O 0.8343 0.85568 0.52178 0.0
O567 O 0.83442 0.89281 0.49849 0.0
C568 C 0.93285 1.00658 0.50954 0.0
C569 C 0.92235 0.02232 0.52703 0.0
H570 H 0.89624 0.04561 0.56126 0.0
H571 H 0.85354 0.01965 0.57671 0.0
H572 H 0.9215 0.9184 0.46565 0.0
H573 H 0.94734 0.96924 0.47693 0.0
H574 H 0.95158 0.01677 0.50239 0.0
H575 H 0.93313 0.04442 0.53302 0.0
Mn576 Mn 0.95245 0.03045 0.24038 0.0
Mn577 Mn 0.89925 1.00575 0.27221 0.0
C578 C 0.93358 0.98209 0.23855 0.0
C579 C 0.96876 0.05013 0.20499 0.0
C580 C 0.95571 0.02863 0.29657 0.0
O581 O 0.94118 0.06561 0.25016 0.0
O582 O 0.90077 0.04412 0.26192 0.0
C583 C 0.85463 1.00049 0.23352 0.0
N584 N 0.867 0.98878 0.25146 0.0
C585 C 0.82746 0.95027 0.25404 0.0
C586 C 0.8143 0.96165 0.23534 0.0
C587 C 0.82807 0.98664 0.22476 0.0
C588 C 0.8543 0.96409 0.26092 0.0
H589 H 0.86483 0.02055 0.22642 0.0
C590 C 0.91846 0.06594 0.25613 0.0
O591 O 0.98358 0.05445 0.22623 0.0
O592 O 0.94435 0.03455 0.20447 0.0
N593 N 0.89455 0.96857 0.28405 0.0
C594 C 0.91041 0.9599 0.30128 0.0
C595 C 0.89986 0.935 0.31343 0.0
C596 C 0.87286 0.92001 0.30857 0.0
C597 C 0.85688 0.92944 0.29088 0.0
C598 C 0.8688 0.95361 0.27853 0.0
H599 H 0.93079 0.97219 0.30609 0.0
O600 O 0.9573 0.99212 0.23183 0.0
O601 O 0.92102 1.00052 0.24499 0.0
O602 O 0.96761 0.03035 0.27657 0.0
O603 O 0.93057 0.02229 0.29641 0.0
C604 C 0.82947 0.91621 0.28538 0.0
C605 C 0.81487 0.92628 0.26665 0.0
H606 H 0.79358 0.95156 0.22916 0.0
H607 H 0.81798 0.99569 0.21049 0.0
H608 H 0.91231 0.92791 0.3271 0.0
H609 H 0.86461 0.90131 0.31854 0.0
H610 H 0.81951 0.89799 0.29516 0.0
H611 H 0.79396 0.9155 0.26218 0.0
Mn612 Mn 0.31305 0.67012 0.59489 0.0
Mn613 Mn 0.27805 0.6165 0.55174 0.0
C614 C 0.26952 0.64743 0.59939 0.0
C615 C 0.3385 0.6879 0.63259 0.0
C616 C 0.29387 0.67927 0.54228 0.0
O617 O 0.34187 0.65849 0.57702 0.0
O618 O 0.31588 0.61845 0.55418 0.0
C619 C 0.28389 0.56519 0.57608 0.0
N620 N 0.2683 0.57966 0.56467 0.0
C621 C 0.23004 0.53844 0.56233 0.0
C622 C 0.24595 0.52272 0.57318 0.0
C623 C 0.27292 0.53629 0.58042 0.0
C624 C 0.24211 0.56718 0.55861 0.0
H625 H 0.30437 0.57577 0.58195 0.0
C626 C 0.33849 0.63557 0.56257 0.0
O627 O 0.33847 0.70374 0.61391 0.0
O628 O 0.32623 0.66069 0.62824 0.0
N629 N 0.24076 0.61211 0.54725 0.0
C630 C 0.22793 0.63075 0.53831 0.0
C631 C 0.20051 0.62109 0.53137 0.0
C632 C 0.18665 0.59222 0.53313 0.0
C633 C 0.20025 0.57341 0.54235 0.0
C634 C 0.22752 0.58435 0.5492 0.0
H635 H 0.23856 0.65271 0.53621 0.0
O636 O 0.28055 0.67308 0.61008 0.0
O637 O 0.28392 0.63582 0.58601 0.0
O638 O 0.30336 0.68957 0.56446 0.0
O639 O 0.28589 0.65259 0.53538 0.0
C640 C 0.18781 0.54427 0.54513 0.0
C641 C 0.20268 0.52681 0.5552 0.0
H642 H 0.23759 0.50038 0.57638 0.0
H643 H 0.28525 0.52448 0.58922 0.0
H644 H 0.19015 0.63578 0.52435 0.0
H645 H 0.16555 0.5848 0.52756 0.0
H646 H 0.16675 0.53516 0.53989 0.0
H647 H 0.19284 0.50454 0.55755 0.0
Mn648 Mn 0.4433 0.5311 0.7382 0.0
Mn649 Mn 0.39616 0.50619 0.77731 0.0
C650 C 0.42442 0.48275 0.7378 0.0
C651 C 0.45833 0.54923 0.70204 0.0
C652 C 0.45459 0.52784 0.79416 0.0
O653 O 0.43241 0.56648 0.74839 0.0
O654 O 0.39878 0.54607 0.77105 0.0
C655 C 0.3482 0.50643 0.74495 0.0
N656 N 0.36151 0.49259 0.76011 0.0
C657 C 0.32176 0.45478 0.76382 0.0
C658 C 0.30756 0.46842 0.74802 0.0
C659 C 0.32092 0.49416 0.73825 0.0
C660 C 0.3491 0.46723 0.76868 0.0
H661 H 0.35829 0.52688 0.73844 0.0
C662 C 0.41329 0.56742 0.7612 0.0
O663 O 0.47327 0.55433 0.7231 0.0
O664 O 0.43366 0.53427 0.70204 0.0
N665 N 0.39087 0.46778 0.78627 0.0
C666 C 0.40772 0.45693 0.80047 0.0
C667 C 0.39764 0.43142 0.81192 0.0
C668 C 0.37023 0.41789 0.80939 0.0
C669 C 0.35327 0.42944 0.79466 0.0
C670 C 0.36458 0.45443 0.78311 0.0
H671 H 0.42864 0.46792 0.80334 0.0
O672 O 0.44746 0.49256 0.7295 0.0
O673 O 0.41262 0.50132 0.74582 0.0
O674 O 0.46253 0.53265 0.77264 0.0
O675 O 0.43025 0.51893 0.7979 0.0
C676 C 0.32554 0.41737 0.79122 0.0
C677 C 0.30985 0.42971 0.77541 0.0
H678 H 0.28639 0.45946 0.74344 0.0
H679 H 0.31006 0.50489 0.72618 0.0
H680 H 0.41088 0.42261 0.82318 0.0
H681 H 0.36246 0.39856 0.8187 0.0
H682 H 0.31615 0.39823 0.80015 0.0
H683 H 0.28866 0.41982 0.7724 0.0
Mn684 Mn 0.66952 0.06429 0.75966 0.0
Mn685 Mn 0.7286 0.08355 0.79397 0.0
C686 C 0.69177 0.1118 0.76755 0.0
C687 C 0.64318 0.04846 0.72303 0.0
C688 C 0.67616 0.05592 0.81359 0.0
O689 O 0.68087 0.02793 0.76068 0.0
O690 O 0.72452 0.04699 0.77388 0.0
C691 C 0.76977 0.09375 0.75811 0.0
N692 N 0.75832 0.10366 0.77742 0.0
C693 C 0.79573 0.14579 0.78627 0.0
C694 C 0.80778 0.13616 0.76629 0.0
C695 C 0.79468 0.11012 0.75207 0.0
C696 C 0.7708 0.12874 0.79121 0.0
H697 H 0.76018 0.07323 0.74779 0.0
C698 C 0.70432 0.02604 0.76543 0.0
O699 O 0.63398 0.04336 0.7446 0.0
O700 O 0.66809 0.06231 0.7225 0.0
N701 N 0.73389 0.11912 0.81388 0.0
C702 C 0.7183 0.12668 0.83069 0.0
C703 C 0.72776 0.15283 0.84569 0.0
C704 C 0.75311 0.171 0.84311 0.0
C705 C 0.76842 0.16319 0.82504 0.0
C706 C 0.75774 0.13702 0.81043 0.0
H707 H 0.69856 0.11325 0.83205 0.0
O708 O 0.66646 0.10426 0.76087 0.0
O709 O 0.70329 0.09157 0.76865 0.0
O710 O 0.66192 0.06116 0.7955 0.0
O711 O 0.70129 0.06291 0.81483 0.0
C712 C 0.79367 0.1805 0.82066 0.0
C713 C 0.8074 0.17171 0.80139 0.0
H714 H 0.82707 0.14859 0.76169 0.0
H715 H 0.804 0.10244 0.73678 0.0
H716 H 0.71551 0.15902 0.85912 0.0
H717 H 0.76034 0.19114 0.85467 0.0
H718 H 0.80254 0.20079 0.83175 0.0
H719 H 0.8267 0.18533 0.79804 0.0
Mn720 Mn 0.8021 0.73179 0.04794 0.0
Mn721 Mn 0.7944 0.67714 1.00275 0.0
C722 C 0.75998 0.69906 0.03586 0.0
C723 C 0.80903 0.7456 0.09351 0.0
C724 C 0.80853 0.74007 0.99057 0.0
O725 O 0.83946 0.72688 0.04717 0.0
O726 O 0.83002 0.68557 0.02145 0.0
C727 C 0.79625 0.62726 0.03117 0.0
N728 N 0.78267 0.64017 0.01531 0.0
C729 C 0.74531 0.59781 1.00936 0.0
C730 C 0.7588 0.58422 0.0259 0.0
C731 C 0.78441 0.59899 0.03679 0.0
C732 C 0.75824 0.62589 1.00425 0.0
H733 H 0.81602 0.63837 0.03934 0.0
C734 C 0.84566 0.70535 0.03696 0.0
O735 O 0.81343 0.76453 0.07697 0.0
O736 O 0.80114 0.71945 0.08371 0.0
N737 N 0.75988 0.66772 0.98478 0.0
C738 C 0.74899 0.68437 0.97029 0.0
C739 C 0.72302 0.67318 0.95881 0.0
C740 C 0.70851 0.64498 0.96232 0.0
C741 C 0.72009 0.62828 0.97737 0.0
C742 C 0.74605 0.64061 0.98835 0.0
H743 H 0.75992 0.70611 0.9676 0.0
O744 O 0.76204 0.72456 0.04613 0.0
O745 O 0.78236 0.69468 0.03163 0.0
O746 O 0.80558 0.75115 1.01258 0.0
O747 O 0.80609 0.71333 0.98656 0.0
C748 C 0.70672 0.60005 0.98224 0.0
C749 C 0.71937 0.58476 0.99811 0.0
H750 H 0.74967 0.56249 0.03041 0.0
H751 H 0.79501 0.58859 0.04945 0.0
H752 H 0.71418 0.68627 0.94733 0.0
H753 H 0.68844 0.63646 0.95351 0.0
H754 H 0.68663 0.58996 0.974 0.0
H755 H 0.70884 0.56312 1.0018 0.0
Mn756 Mn 0.95975 0.55335 0.84656 0.0
Mn757 Mn 0.91152 0.53927 0.88581 0.0
C758 C 0.94464 0.50887 0.86073 0.0
C759 C 0.97296 0.55321 0.80669 0.0
C760 C 0.96786 0.57392 0.90205 0.0
O761 O 0.94304 0.58489 0.84146 0.0
O762 O 0.91161 0.57455 0.86895 0.0
C763 C 0.86554 0.52542 0.84714 0.0
N764 N 0.87912 0.51758 0.86684 0.0
C765 C 0.84721 0.47097 0.86451 0.0
C766 C 0.83278 0.4787 0.8444 0.0
C767 C 0.84204 0.506 0.83564 0.0
C768 C 0.87039 0.4913 0.8754 0.0
H769 H 0.87266 0.54626 0.84015 0.0
C770 C 0.92387 0.58974 0.85235 0.0
O771 O 0.98824 0.5698 0.82507 0.0
O772 O 0.9497 0.53791 0.8113 0.0
N773 N 0.90933 0.50472 0.90222 0.0
C774 C 0.92762 0.49869 0.91864 0.0
C775 C 0.922 0.47185 0.9286 0.0
C776 C 0.89791 0.45101 0.92091 0.0
C777 C 0.87989 0.45709 0.90301 0.0
C778 C 0.88633 0.48454 0.89423 0.0
H779 H 0.94676 0.51371 0.92318 0.0
O780 O 0.9685 0.51699 0.85381 0.0
O781 O 0.93162 0.52772 0.86045 0.0
O782 O 0.97648 0.5729 0.88052 0.0
O783 O 0.94424 0.56092 0.90666 0.0
C784 C 0.8563 0.4366 0.89282 0.0
C785 C 0.83998 0.44352 0.87355 0.0
H786 H 0.81483 0.46366 0.83526 0.0
H787 H 0.83116 0.51199 0.81992 0.0
H788 H 0.93649 0.467 0.94169 0.0
H789 H 0.89385 0.43011 0.92823 0.0
H790 H 0.85085 0.41522 0.89922 0.0
H791 H 0.82222 0.42735 0.86543 0.0
Mn792 Mn 0.83645 0.44408 0.51213 0.0
Mn793 Mn 0.84912 0.49157 0.46836 0.0
C794 C 0.8756 0.45455 0.4945 0.0
C795 C 0.84013 0.43398 0.55366 0.0
C796 C 0.81756 0.42998 0.45671 0.0
O797 O 0.80915 0.46492 0.51684 0.0
O798 O 0.81726 0.49377 0.48509 0.0
C799 C 0.86353 0.54327 0.50467 0.0
N800 N 0.8701 0.5271 0.48581 0.0
C801 C 0.91475 0.55829 0.48922 0.0
C802 C 0.90836 0.57532 0.50853 0.0
C803 C 0.88263 0.56778 0.51626 0.0
C804 C 0.89481 0.53423 0.47817 0.0
H805 H 0.84396 0.5374 0.51105 0.0
C806 C 0.80432 0.4841 0.50364 0.0
O807 O 0.82264 0.41645 0.53727 0.0
O808 O 0.85371 0.458 0.54619 0.0
N809 N 0.88018 0.49204 0.45162 0.0
C810 C 0.88364 0.4725 0.43374 0.0
C811 C 0.90846 0.47674 0.42425 0.0
C812 C 0.92947 0.50093 0.43329 0.0
C813 C 0.9254 0.52084 0.45154 0.0
C814 C 0.90008 0.5158 0.45993 0.0
H815 H 0.86767 0.45365 0.42697 0.0
O816 O 0.86729 0.4303 0.50429 0.0
O817 O 0.86032 0.47124 0.495 0.0
O818 O 0.81636 0.42375 0.47952 0.0
O819 O 0.82894 0.45484 0.44994 0.0
C820 C 0.94565 0.54512 0.46217 0.0
C821 C 0.94034 0.56378 0.48104 0.0
H822 H 0.92313 0.59404 0.51776 0.0
H823 H 0.8776 0.58068 0.53131 0.0
H824 H 0.91148 0.46122 0.41023 0.0
H825 H 0.94871 0.50385 0.42625 0.0
H826 H 0.96548 0.5494 0.45624 0.0
H827 H 0.95619 0.5821 0.48938 0.0
Mn828 Mn 0.69451 0.57313 0.35567 0.0
Mn829 Mn 0.74437 0.58722 0.40242 0.0
C830 C 0.71815 0.61916 0.36928 0.0
C831 C 0.67757 0.56555 0.31395 0.0
C832 C 0.68674 0.56021 0.40866 0.0
O833 O 0.70488 0.53631 0.35597 0.0
O834 O 0.74318 0.55119 0.38222 0.0
C835 C 0.7948 0.59601 0.37877 0.0
N836 N 0.77856 0.60681 0.39266 0.0
C837 C 0.81174 0.6526 0.40058 0.0
C838 C 0.82835 0.64222 0.38558 0.0
C839 C 0.81993 0.61373 0.37482 0.0
C840 C 0.78708 0.63378 0.4042 0.0
H841 H 0.78871 0.57399 0.37093 0.0
C842 C 0.72692 0.5335 0.36541 0.0
O843 O 0.66285 0.55666 0.33187 0.0
O844 O 0.70274 0.5775 0.32 0.0
N845 N 0.74612 0.62327 0.42046 0.0
C846 C 0.72623 0.63162 0.4306 0.0
C847 C 0.73106 0.65971 0.44171 0.0
C848 C 0.75606 0.67947 0.44128 0.0
C849 C 0.7757 0.67111 0.42908 0.0
C850 C 0.76979 0.6426 0.41871 0.0
H851 H 0.70651 0.61747 0.42885 0.0
O852 O 0.69402 0.61412 0.35895 0.0
O853 O 0.7264 0.5971 0.37278 0.0
O854 O 0.67744 0.5648 0.38741 0.0
O855 O 0.71126 0.56738 0.41619 0.0
C856 C 0.80043 0.69033 0.42579 0.0
C857 C 0.81851 0.68102 0.41168 0.0
H858 H 0.84763 0.65591 0.38227 0.0
H859 H 0.83282 0.60542 0.36356 0.0
H860 H 0.71531 0.66634 0.44992 0.0
H861 H 0.7596 0.7013 0.44944 0.0
H862 H 0.80554 0.71246 0.43363 0.0
H863 H 0.83738 0.69608 0.40907 0.0
Tb864 Tb 0.09891 0.07009 0.05844 0.0
Tb865 Tb 0.03926 0.03443 0.03392 0.0
C866 C 0.0507 0.0655 0.08817 0.0
C867 C 0.16575 0.07722 0.07516 0.0
C868 C 0.20046 0.04293 0.0749 0.0
C869 C 0.20757 0.06949 0.08955 0.0
C870 C 0.19007 0.08648 0.08992 0.0
C871 C 0.15878 0.05062 0.06086 0.0
C872 C 0.17567 0.03342 0.06103 0.0
C873 C 0.14609 0.09326 0.07533 0.0
O874 O 0.0975 0.02549 0.06403 0.0
O875 O 0.05295 1.0033 0.05493 0.0
O876 O 0.06301 0.01921 1.00853 0.0
O877 O 0.1023 0.05416 0.02061 0.0
O878 O 1.00291 1.0064 0.04081 0.0
O879 O 1.0086 0.02342 1.00451 0.0
O880 O 0.04825 0.07622 0.01769 0.0
O881 O 0.07936 0.103 0.04854 0.0
O882 O 0.07479 0.0635 0.08913 0.0
O883 O 0.03579 0.06133 0.06681 0.0
C884 C 0.07685 1.00286 0.06354 0.0
O885 O 0.13649 0.09718 0.05305 0.0
O886 O 0.12733 0.08345 0.08972 0.0
C887 C 0.08772 0.03212 1.00578 0.0
C888 C 0.97129 0.02577 0.02403 0.0
C889 C 0.93625 0.05382 0.04201 0.0
C890 C 0.92692 0.0247 0.03311 0.0
C891 C 0.94463 1.01047 0.02445 0.0
C892 C 0.98008 0.05515 0.03202 0.0
C893 C 0.96273 0.06903 0.0412 0.0
C894 C 0.99142 1.01138 0.01983 0.0
C895 C 0.0617 0.10135 0.02921 0.0
H896 H 0.22686 0.07733 0.10012 0.0
H897 H 0.19563 0.10684 0.10127 0.0
H898 H 0.14043 0.04333 0.04896 0.0
H899 H 0.16997 1.01349 0.04901 0.0
H900 H 0.90621 1.01302 0.03335 0.0
H901 H 0.93777 0.98767 0.01874 0.0
H902 H 1.00065 0.06724 0.03202 0.0
H903 H 0.96994 0.09166 0.04757 0.0
Tb904 Tb 0.30909 0.80849 0.31867 0.0
Tb905 Tb 0.34759 0.81016 0.27316 0.0
C906 C 0.29413 0.82923 0.26605 0.0
C907 C 0.27786 0.78596 0.37488 0.0
C908 C 0.28392 0.75719 0.41786 0.0
C909 C 0.27447 0.78152 0.41951 0.0
C910 C 0.27143 0.79582 0.39808 0.0
C911 C 0.28609 0.76092 0.373 0.0
C912 C 0.28881 0.7465 0.39422 0.0
C913 C 0.27833 0.80283 0.35308 0.0
O914 O 0.29017 0.77627 0.28867 0.0
O915 O 0.32563 0.76576 0.27277 0.0
O916 O 0.36921 0.80102 0.30688 0.0
O917 O 0.33591 0.78433 0.33236 0.0
O918 O 0.35615 0.79966 0.23662 0.0
O919 O 0.38639 0.82717 0.26378 0.0
O920 O 0.34852 0.85309 0.28597 0.0
O921 O 0.34336 0.84537 0.32705 0.0
O922 O 0.29491 0.83341 0.29086 0.0
O923 O 0.31111 0.81769 0.25537 0.0
C924 C 0.30025 0.75963 0.27491 0.0
O925 O 0.2992 0.82474 0.35296 0.0
O926 O 0.27261 0.78776 0.3314 0.0
C927 C 0.3606 0.78839 0.32704 0.0
C928 C 0.38564 0.83949 0.22236 0.0
C929 C 0.38927 0.87708 0.18438 0.0
C930 C 0.40199 0.85527 0.18301 0.0
C931 C 0.40022 0.83654 0.20202 0.0
C932 C 0.37447 0.86242 0.22457 0.0
C933 C 0.37641 0.88123 0.20574 0.0
C934 C 0.37994 0.81752 0.24019 0.0
C935 C 0.35268 0.86218 0.30975 0.0
H936 H 0.27056 0.79026 0.43749 0.0
H937 H 0.26505 0.81512 0.39978 0.0
H938 H 0.29121 0.75292 0.35524 0.0
H939 H 0.29541 0.72737 0.39219 0.0
H940 H 0.41194 0.85175 0.16657 0.0
H941 H 0.40903 0.81898 0.2002 0.0
H942 H 0.36303 0.86488 0.24016 0.0
H943 H 0.36606 0.89757 0.20695 0.0
Tb944 Tb 0.54894 0.05998 0.55377 0.0
Tb945 Tb 0.6103 0.06145 0.54104 0.0
C946 C 0.58311 0.02994 0.58677 0.0
C947 C 0.48838 0.08609 0.56086 0.0
C948 C 0.45443 0.12176 0.56545 0.0
C949 C 0.45923 0.10558 0.58528 0.0
C950 C 0.47582 0.08785 0.58292 0.0
C951 C 0.48491 0.10351 0.54151 0.0
C952 C 0.46813 0.12123 0.54383 0.0
C953 C 0.50266 0.06399 0.5577 0.0
O954 O 0.5754 0.09207 0.5807 0.0
O955 O 0.61166 0.10481 0.55781 0.0
O956 O 0.58883 0.06872 0.50766 0.0
O957 O 0.56685 0.09304 0.53003 0.0
O958 O 0.65116 0.07209 0.55188 0.0
O959 O 0.63533 0.05429 0.51409 0.0
O960 O 0.58734 0.01589 0.53436 0.0
O961 O 0.54518 0.02119 0.52937 0.0
O962 O 0.55911 0.03121 0.57953 0.0
O963 O 0.60455 0.04299 0.57639 0.0
C964 C 0.59753 0.11056 0.57596 0.0
O965 O 0.51233 0.06101 0.53619 0.0
O966 O 0.51865 0.06169 0.57678 0.0
C967 C 0.57336 0.08532 0.50827 0.0
C968 C 0.67043 0.0393 0.5324 0.0
C969 C 0.69973 0.99971 0.53928 0.0
C970 C 0.71065 0.02535 0.52825 0.0
C971 C 0.69604 0.04497 0.52474 0.0
C972 C 0.65902 1.01316 0.5425 0.0
C973 C 0.67358 0.99339 0.54584 0.0
C974 C 0.65603 0.06102 0.53052 0.0
C975 C 0.56172 1.00541 0.52741 0.0
H976 H 0.44937 0.1058 0.60236 0.0
H977 H 0.47805 0.07466 0.59809 0.0
H978 H 0.49429 0.10265 0.5242 0.0
H979 H 0.46478 0.13324 0.52812 0.0
H980 H 0.73079 0.03055 0.52301 0.0
H981 H 0.70501 0.06489 0.51669 0.0
H982 H 0.63916 1.00843 0.54843 0.0
H983 H 0.6649 0.97385 0.55456 0.0
Tb984 Tb 0.34989 0.2975 0.79833 0.0
Tb985 Tb 0.28673 0.2979 0.79334 0.0
C986 C 0.30377 0.24731 0.80965 0.0
C987 C 0.4167 0.2992 0.77912 0.0
C988 C 0.45328 0.30312 0.74262 0.0
C989 C 0.44946 0.28119 0.75913 0.0
C990 C 0.43135 0.2793 0.77723 0.0
C991 C 0.42041 0.32105 0.76259 0.0
C992 C 0.43857 0.32305 0.74455 0.0
C993 C 0.39725 0.29621 0.79796 0.0
O994 O 0.33664 0.28887 0.75741 0.0
O995 O 0.29189 0.28629 0.75349 0.0
O996 O 0.30656 0.33321 0.77283 0.0
O997 O 0.34643 0.34005 0.79521 0.0
O998 O 0.24757 0.27329 0.79655 0.0
O999 O 0.25654 0.31805 0.7895 0.0
O1000 O 0.30196 0.31246 0.83389 0.0
O1001 O 0.34534 0.3102 0.83735 0.0
O1002 O 0.32767 0.26255 0.81776 0.0
O1003 O 0.29135 0.25541 0.79086 0.0
C1004 C 0.31391 0.28509 0.7434 0.0
O1005 O 0.39043 0.31914 0.80499 0.0
O1006 O 0.37689 0.27338 0.79416 0.0
C1007 C 0.33178 0.34649 0.777 0.0
C1008 C 0.22229 0.30062 0.81603 0.0
C1009 C 0.18831 0.31003 0.85227 0.0
C1010 C 0.2077 0.33317 0.84427 0.0
C1011 C 0.2244 0.32856 0.82633 0.0
C1012 C 0.20365 0.27735 0.82474 0.0
C1013 C 0.18688 0.28199 0.84271 0.0
C1014 C 0.23863 0.29568 0.79567 0.0
C1015 C 0.32478 0.3151 0.8476 0.0
H1016 H 0.46024 0.26528 0.75786 0.0
H1017 H 0.42863 0.26213 0.78965 0.0
H1018 H 0.40931 0.33655 0.76349 0.0
H1019 H 0.44129 0.34037 0.73229 0.0
H1020 H 0.20961 0.35502 0.85149 0.0
H1021 H 0.23861 0.34702 0.82021 0.0
H1022 H 0.20157 0.25558 0.81718 0.0
H1023 H 0.17201 0.26369 0.84824 0.0
Tb1024 Tb 0.06724 0.07307 0.5748 0.0
Tb1025 Tb 0.07804 0.03512 0.52899 0.0
C1026 C 1.0211 0.02294 0.54645 0.0
C1027 C 0.07421 0.10035 0.64166 0.0
C1028 C 0.08961 0.08891 0.69064 0.0
C1029 C 0.06305 0.07803 0.68049 0.0
C1030 C 0.0554 0.08356 0.65602 0.0
C1031 C 0.10033 0.11252 0.6526 0.0
C1032 C 0.10797 0.10664 0.67662 0.0
C1033 C 0.06819 0.10384 0.61477 0.0
O1034 O 0.0789 0.03668 0.59324 0.0
O1035 O 0.07619 1.00424 0.55958 0.0
O1036 O 0.11685 0.05764 0.54802 0.0
O1037 O 0.10279 0.09573 0.55846 0.0
O1038 O 0.06839 0.99776 0.50405 0.0
O1039 O 0.10211 0.03335 0.49959 0.0
O1040 O 0.07328 0.07549 0.51174 0.0
O1041 O 0.05671 0.09797 0.54295 0.0
O1042 O 0.03015 0.03874 0.56773 0.0
O1043 O 0.03522 0.02557 0.52708 0.0
C1044 C 0.07771 1.00983 0.58453 0.0
O1045 O 0.08824 0.10558 0.60157 0.0
O1046 O 0.04614 0.0876 0.60266 0.0
C1047 C 0.12202 0.08534 0.55287 0.0
C1048 C 0.07377 1.01338 0.46377 0.0
C1049 C 0.05212 0.02402 0.41689 0.0
C1050 C 0.07216 1.00999 0.41811 0.0
C1051 C 0.08307 1.00485 0.44152 0.0
C1052 C 0.05403 0.02757 0.46248 0.0
C1053 C 0.04362 0.0332 0.43941 0.0
C1054 C 0.0854 1.00999 0.48873 0.0
C1055 C 0.06406 0.09732 0.51949 0.0
H1056 H 0.04847 0.06455 0.69112 0.0
H1057 H 0.03507 0.07416 0.64819 0.0
H1058 H 0.11525 0.12594 0.64222 0.0
H1059 H 0.12842 0.11592 0.68421 0.0
H1060 H 0.07903 1.00253 0.40106 0.0
H1061 H 0.09859 0.99423 0.44224 0.0
H1062 H 0.04668 0.03453 0.47942 0.0
H1063 H 0.02877 0.04473 0.43929 0.0
Tb1064 Tb 0.33144 0.83716 0.78673 0.0
Tb1065 Tb 0.30649 0.77843 0.80806 0.0
C1066 C 0.33201 0.78228 0.75582 0.0
C1067 C 0.33406 0.90935 0.7771 0.0
C1068 C 0.31068 0.95088 0.79541 0.0
C1069 C 0.33585 0.95921 0.78621 0.0
C1070 C 0.34763 0.93849 0.77741 0.0
C1071 C 0.30818 0.90115 0.78433 0.0
C1072 C 0.29676 0.9216 0.79375 0.0
C1073 C 0.3479 0.88736 0.77422 0.0
O1074 O 0.28808 0.82511 0.76893 0.0
O1075 O 0.26952 0.79236 0.79593 0.0
O1076 O 0.31176 0.81019 0.83987 0.0
O1077 O 0.3064 0.84383 0.81468 0.0
O1078 O 0.27972 0.737 0.80231 0.0
O1079 O 0.30362 0.75119 0.8375 0.0
O1080 O 0.35093 0.78303 0.81631 0.0
O1081 O 0.36608 0.83099 0.81277 0.0
O1082 O 0.34464 0.80912 0.76184 0.0
O1083 O 0.31346 0.76821 0.76909 0.0
C1084 C 0.26591 0.80928 0.7778 0.0
O1085 O 0.35534 0.8793 0.79572 0.0
O1086 O 0.33619 0.86543 0.75806 0.0
C1087 C 0.30795 0.83512 0.83695 0.0
C1088 C 0.3041 0.70772 0.81779 0.0
C1089 C 0.33631 0.67167 0.80974 0.0
C1090 C 0.31589 0.66424 0.82587 0.0
C1091 C 0.29977 0.68235 0.82994 0.0
C1092 C 0.32446 0.71476 0.80184 0.0
C1093 C 0.34043 0.69713 0.79792 0.0
C1094 C 0.28994 0.72907 0.8226 0.0
C1095 C 0.37128 0.80695 0.81998 0.0
H1096 H 0.34685 0.98165 0.78667 0.0
H1097 H 0.36768 0.94515 0.772 0.0
H1098 H 0.29735 0.87878 0.78425 0.0
H1099 H 0.27761 0.91418 0.80102 0.0
H1100 H 0.31242 0.64455 0.83518 0.0
H1101 H 0.28437 0.67681 0.84263 0.0
H1102 H 0.32862 0.73442 0.79276 0.0
H1103 H 0.35638 0.70382 0.78594 0.0
Tb1104 Tb 0.5606 0.0407 0.07402 0.0
Tb1105 Tb 0.57466 0.079 0.02879 0.0
C1106 C 0.61893 0.07326 0.06935 0.0
C1107 C 0.53273 0.0168 0.13106 0.0
C1108 C 0.51742 0.03863 0.17527 0.0
C1109 C 0.53328 0.0198 0.17645 0.0
C1110 C 0.54085 1.00888 0.15439 0.0
C1111 C 0.51685 0.0356 0.12986 0.0
C1112 C 0.50912 0.04632 0.15185 0.0
C1113 C 0.54487 1.00992 0.10882 0.0
O1114 O 0.56299 0.08523 0.09308 0.0
O1115 O 0.56757 0.11052 0.05808 0.0
O1116 O 0.53603 0.04948 0.02186 0.0
O1117 O 0.52808 0.05647 0.06159 0.0
O1118 O 0.59992 0.10661 1.00698 0.0
O1119 O 0.55741 0.09762 1.00018 0.0
O1120 O 0.5812 0.03775 1.01279 0.0
O1121 O 0.56205 1.00772 0.0417 0.0
O1122 O 0.60283 0.05236 0.07922 0.0
O1123 O 0.61176 0.08645 0.0507 0.0
C1124 C 0.56475 0.11007 0.08264 0.0
O1125 O 0.53095 1.00777 0.08713 0.0
O1126 O 0.56922 0.02566 0.10847 0.0
C1127 C 0.51929 0.05072 0.03807 0.0
C1128 C 0.58184 0.09905 0.96567 0.0
C1129 C 0.59466 0.08406 0.91841 0.0
C1130 C 0.58598 0.10863 0.9222 0.0
C1131 C 0.57923 0.11602 0.94598 0.0
C1132 C 0.58843 0.07344 0.96101 0.0
C1133 C 0.59433 0.06565 0.93743 0.0
C1134 C 0.58022 0.10848 0.9916 0.0
C1135 C 0.57259 1.01104 0.01956 0.0
H1136 H 0.53964 1.0134 0.19438 0.0
H1137 H 0.55371 0.99501 0.15558 0.0
H1138 H 0.51111 0.04271 0.11203 0.0
H1139 H 0.49702 0.06098 0.15062 0.0
H1140 H 0.58656 0.12312 0.9075 0.0
H1141 H 0.5739 0.13577 0.9494 0.0
H1142 H 0.59145 0.06078 0.97607 0.0
H1143 H 0.60188 0.04716 0.935 0.0
Tb1144 Tb 0.30418 0.28003 0.28627 0.0
Tb1145 Tb 0.3359 0.33866 0.30984 0.0
C1146 C 0.31462 0.32844 0.24988 0.0
C1147 C 0.30194 0.20715 0.2681 0.0
C1148 C 0.33035 0.16785 0.27821 0.0
C1149 C 0.30371 0.15805 0.268 0.0
C1150 C 0.2895 0.17774 0.26296 0.0
C1151 C 0.32895 0.21671 0.27649 0.0
C1152 C 0.34311 0.19735 0.28126 0.0
C1153 C 0.28666 0.22784 0.26953 0.0
O1154 O 0.34647 0.28735 0.27314 0.0
O1155 O 0.37197 0.32661 0.29727 0.0
O1156 O 0.34505 0.31454 0.34049 0.0
O1157 O 0.31004 0.27596 0.32794 0.0
O1158 O 0.35724 0.38134 0.305 0.0
O1159 O 0.34444 0.36962 0.34102 0.0
O1160 O 0.29274 0.33289 0.32116 0.0
O1161 O 0.2681 0.29111 0.30001 0.0
O1162 O 0.29654 0.30521 0.2549 0.0
O1163 O 0.33214 0.34265 0.26845 0.0
C1164 C 0.37073 0.3058 0.27938 0.0
O1165 O 0.2852 0.23737 0.29242 0.0
O1166 O 0.29317 0.24882 0.25523 0.0
C1167 C 0.32793 0.29108 0.34596 0.0
C1168 C 0.32943 0.40452 0.32303 0.0
C1169 C 0.28237 0.4202 0.32065 0.0
C1170 C 0.30279 0.43318 0.3398 0.0
C1171 C 0.32624 0.42496 0.34123 0.0
C1172 C 0.30891 0.39203 0.30399 0.0
C1173 C 0.28548 0.39914 0.30323 0.0
C1174 C 0.35006 0.39012 0.32612 0.0
C1175 C 0.2688 0.31316 0.31638 0.0
H1176 H 0.29353 0.1353 0.26548 0.0
H1177 H 0.26854 0.17003 0.25676 0.0
H1178 H 0.33864 0.23906 0.28171 0.0
H1179 H 0.36334 0.20565 0.28974 0.0
H1180 H 0.30075 0.44982 0.35328 0.0
H1181 H 0.34149 0.43406 0.35655 0.0
H1182 H 0.31027 0.37542 0.29022 0.0
H1183 H 0.26986 0.38845 0.28862 0.0
Tb1184 Tb 0.56422 0.56935 0.07366 0.0
Tb1185 Tb 0.57898 0.53672 0.0268 0.0
C1186 C 0.51976 0.51929 0.04277 0.0
C1187 C 0.57343 0.59293 0.14074 0.0
C1188 C 0.59488 0.58488 0.18888 0.0
C1189 C 0.56739 0.58056 0.18376 0.0
C1190 C 0.55679 0.58469 0.15993 0.0
C1191 C 0.60087 0.59723 0.1459 0.0
C1192 C 0.61143 0.59346 0.16965 0.0
C1193 C 0.56239 0.59615 0.1152 0.0
O1194 O 0.57459 0.53073 0.09054 0.0
O1195 O 0.57717 0.50381 0.05471 0.0
O1196 O 0.61691 0.55771 0.04812 0.0
O1197 O 0.60168 0.59404 0.06158 0.0
O1198 O 0.57498 0.50017 1.00204 0.0
O1199 O 0.60204 0.54058 0.99598 0.0
O1200 O 0.57381 0.57784 1.01199 0.0
O1201 O 0.55362 0.59612 0.04272 0.0
O1202 O 0.52607 0.53849 0.06222 0.0
O1203 O 0.53597 0.51901 0.02523 0.0
C1204 C 0.57554 0.50549 0.07946 0.0
O1205 O 0.57979 0.60525 0.09944 0.0
O1206 O 0.54272 0.57514 0.10462 0.0
C1207 C 0.62145 0.58493 0.05514 0.0
C1208 C 0.57341 0.51561 0.96197 0.0
C1209 C 0.54122 0.51544 0.91802 0.0
C1210 C 0.56387 0.50577 0.91672 0.0
C1211 C 0.57996 0.50571 0.9388 0.0
C1212 C 0.55137 0.52626 0.96287 0.0
C1213 C 0.53541 0.52615 0.94114 0.0
C1214 C 0.58866 0.51528 0.98578 0.0
C1215 C 0.56299 0.5982 0.01995 0.0
H1216 H 0.55398 0.57365 0.19804 0.0
H1217 H 0.5356 0.58113 0.1564 0.0
H1218 H 0.6144 0.60351 0.13159 0.0
H1219 H 0.63271 0.59767 0.17295 0.0
H1220 H 0.56861 0.49756 0.89887 0.0
H1221 H 0.59709 0.49771 0.93786 0.0
H1222 H 0.5462 0.53433 0.98053 0.0
H1223 H 0.51828 0.53415 0.94244 0.0
Tb1224 Tb 0.83908 0.33409 0.28954 0.0
Tb1225 Tb 0.80962 0.27086 0.31287 0.0
C1226 C 0.83922 0.27823 0.26039 0.0
C1227 C 0.83756 0.40694 0.29028 0.0
C1228 C 0.79741 0.43155 0.30155 0.0
C1229 C 0.79597 0.41692 0.27794 0.0
C1230 C 0.81601 0.40467 0.27227 0.0
C1231 C 0.83976 0.42364 0.31319 0.0
C1232 C 0.81974 0.43584 0.31878 0.0
C1233 C 0.85413 0.38727 0.28778 0.0
O1234 O 0.79571 0.325 0.27356 0.0
O1235 O 0.77537 0.28521 0.29429 0.0
O1236 O 0.79824 0.29348 0.34403 0.0
O1237 O 0.81875 0.3254 0.32095 0.0
O1238 O 0.78651 0.22859 0.3018 0.0
O1239 O 0.80405 0.24089 0.34006 0.0
O1240 O 0.85371 0.28311 0.32817 0.0
O1241 O 0.87474 0.32212 0.30714 0.0
O1242 O 0.84604 0.30622 0.26062 0.0
O1243 O 0.82614 0.26338 0.27756 0.0
C1244 C 0.7734 0.30566 0.27893 0.0
O1245 O 0.85747 0.37467 0.3082 0.0
O1246 O 0.84861 0.36924 0.26755 0.0
C1247 C 0.80619 0.32007 0.34038 0.0
C1248 C 0.81045 0.20051 0.32 0.0
C1249 C 0.84452 0.16688 0.31277 0.0
C1250 C 0.82007 0.155 0.32233 0.0
C1251 C 0.80285 0.17191 0.3259 0.0
C1252 C 0.83526 0.21214 0.31122 0.0
C1253 C 0.85211 0.19553 0.30754 0.0
C1254 C 0.7939 0.21966 0.32292 0.0
C1255 C 0.87629 0.30224 0.32308 0.0
H1256 H 0.77905 0.41425 0.26429 0.0
H1257 H 0.81378 0.39207 0.2544 0.0
H1258 H 0.85604 0.42566 0.32743 0.0
H1259 H 0.82117 0.44779 0.33691 0.0
H1260 H 0.81414 0.13267 0.32634 0.0
H1261 H 0.78383 0.16277 0.33294 0.0
H1262 H 0.84171 0.23419 0.30701 0.0
H1263 H 0.87098 0.20496 0.30027 0.0
Tb1264 Tb 0.06835 0.53708 0.57374 0.0
Tb1265 Tb 0.07538 0.57041 0.52495 0.0
C1266 C 0.12103 0.5799 0.56655 0.0
C1267 C 0.05369 0.52156 0.63675 0.0
C1268 C 0.04398 0.5453 0.68273 0.0
C1269 C 0.05786 0.52455 0.68222 0.0
C1270 C 0.06281 0.51282 0.65928 0.0
C1271 C 0.04027 0.54279 0.63727 0.0
C1272 C 0.03547 0.55465 0.66021 0.0
C1273 C 0.06116 0.5114 0.61296 0.0
O1274 O 0.06976 0.58159 0.59032 0.0
O1275 O 0.06612 0.60206 0.55312 0.0
O1276 O 0.03869 0.53741 0.52151 0.0
O1277 O 0.03159 0.54546 0.56164 0.0
O1278 O 0.0958 0.58922 0.49541 0.0
O1279 O 0.05474 0.58845 0.49869 0.0
O1280 O 0.08793 0.53104 0.51371 0.0
O1281 O 0.06751 0.50234 0.54294 0.0
O1282 O 0.11041 0.55348 0.57148 0.0
O1283 O 0.10928 0.59214 0.5502 0.0
C1284 C 0.06704 0.604 0.5783 0.0
O1285 O 0.04327 0.5065 0.59374 0.0
O1286 O 0.08434 0.52632 0.60748 0.0
C1287 C 1.02239 0.53806 0.53828 0.0
C1288 C 0.06696 0.57925 0.45867 0.0
C1289 C 0.06637 0.55721 0.40923 0.0
C1290 C 0.06221 0.58422 0.41402 0.0
C1291 C 0.06278 0.59538 0.43883 0.0
C1292 C 0.0669 0.55058 0.45367 0.0
C1293 C 0.06669 0.53959 0.42897 0.0
C1294 C 0.07417 0.59288 0.48426 0.0
C1295 C 0.07872 0.50478 0.52124 0.0
H1296 H 0.06423 0.51694 0.69958 0.0
H1297 H 0.07373 0.49697 0.65911 0.0
H1298 H 0.03348 0.55014 0.61996 0.0
H1299 H 0.02423 0.57021 0.66038 0.0
H1300 H 0.06221 0.59815 0.39895 0.0
H1301 H 0.06222 0.61734 0.44251 0.0
H1302 H 0.06951 0.53762 0.46886 0.0
H1303 H 0.07031 0.51888 0.42561 0.0
Tb1304 Tb 0.84575 0.80032 0.30011 0.0
Tb1305 Tb 0.78602 0.81216 0.29287 0.0
C1306 C 0.79485 0.75934 0.31654 0.0
C1307 C 0.91325 0.79685 0.28492 0.0
C1308 C 0.95311 0.79717 0.25229 0.0
C1309 C 0.9523 0.78301 0.27452 0.0
C1310 C 0.93264 0.78298 0.29071 0.0
C1311 C 0.91397 0.81116 0.26279 0.0
C1312 C 0.93392 0.81156 0.24671 0.0
C1313 C 0.89226 0.79541 0.30198 0.0
O1314 O 0.83062 0.78553 0.25973 0.0
O1315 O 0.79176 0.79893 0.25398 0.0
O1316 O 0.80968 0.84098 0.26924 0.0
O1317 O 0.8471 0.84375 0.29387 0.0
O1318 O 0.7447 0.79447 0.28746 0.0
O1319 O 0.76243 0.84027 0.29565 0.0
O1320 O 0.80331 0.82872 0.33191 0.0
O1321 O 0.83879 0.81042 0.33986 0.0
O1322 O 0.82061 0.76861 0.32019 0.0
O1323 O 0.78077 0.76839 0.2997 0.0
C1324 C 0.81036 0.78867 0.24489 0.0
O1325 O 0.88671 0.81936 0.30799 0.0
O1326 O 0.87091 0.77383 0.297 0.0
C1327 C 0.83534 0.85 0.27359 0.0
C1328 C 0.72278 0.81961 0.31418 0.0
C1329 C 0.6862 0.8219 0.34987 0.0
C1330 C 0.7017 0.84714 0.3409 0.0
C1331 C 0.71954 0.84598 0.32314 0.0
C1332 C 0.70843 0.79436 0.32418 0.0
C1333 C 0.6903 0.79552 0.34192 0.0
C1334 C 0.74063 0.81906 0.29406 0.0
C1335 C 0.82126 0.82303 0.34797 0.0
H1336 H 0.96695 0.77198 0.27942 0.0
H1337 H 0.93241 0.77183 0.30769 0.0
H1338 H 0.89896 0.82165 0.25779 0.0
H1339 H 0.93393 0.82242 0.2296 0.0
H1340 H 0.69934 0.86787 0.34698 0.0
H1341 H 0.73039 0.86578 0.31595 0.0
H1342 H 0.71061 0.77364 0.31783 0.0
H1343 H 0.67859 0.77569 0.34841 0.0
Tb1344 Tb 0.80997 0.30643 0.81465 0.0
Tb1345 Tb 0.85054 0.30784 0.77132 0.0
C1346 C 0.79501 0.31969 0.75938 0.0
C1347 C 0.77462 0.28415 0.86835 0.0
C1348 C 0.76992 0.24886 0.90789 0.0
C1349 C 0.75784 0.27117 0.90814 0.0
C1350 C 0.76011 0.28877 0.88829 0.0
C1351 C 0.78642 0.26166 0.86799 0.0
C1352 C 0.78402 0.24405 0.88764 0.0
C1353 C 0.77876 0.30325 0.84827 0.0
O1354 O 0.80997 0.26308 0.80435 0.0
O1355 O 0.8193 0.26829 0.76356 0.0
O1356 O 0.86461 0.28532 0.80119 0.0
O1357 O 0.8473 0.30398 0.83433 0.0
O1358 O 0.86155 0.29271 0.73723 0.0
O1359 O 0.88802 0.32849 0.7603 0.0
O1360 O 0.8642 0.34493 0.79816 0.0
O1361 O 0.82425 0.35028 0.80629 0.0
O1362 O 0.78709 0.30614 0.77918 0.0
O1363 O 0.82024 0.32689 0.75487 0.0
C1364 C 0.80775 0.25282 0.78085 0.0
O1365 O 0.80219 0.3218 0.84997 0.0
O1366 O 0.77181 0.29025 0.8257 0.0
C1367 C 0.86418 0.29101 0.82565 0.0
C1368 C 0.8836 0.33206 0.71691 0.0
C1369 C 0.87411 0.3586 0.67373 0.0
C1370 C 0.88638 0.3365 0.67223 0.0
C1371 C 0.89121 0.32329 0.69385 0.0
C1372 C 0.87274 0.35532 0.71854 0.0
C1373 C 0.86812 0.3686 0.69705 0.0
C1374 C 0.88272 0.3144 0.73815 0.0
C1375 C 0.84946 0.36106 0.80481 0.0
H1376 H 0.747 0.27514 0.9238 0.0
H1377 H 0.75104 0.30619 0.8887 0.0
H1378 H 0.79794 0.2581 0.85277 0.0
H1379 H 0.79392 0.2273 0.88745 0.0
H1380 H 0.89107 0.32868 0.65421 0.0
H1381 H 0.89944 0.30527 0.69233 0.0
H1382 H 0.86642 0.36219 0.73615 0.0
H1383 H 0.85844 0.38551 0.69835 0.0
Tb1384 Tb 0.80672 0.78079 0.78905 0.0
Tb1385 Tb 0.8326 0.84168 0.8104 0.0
C1386 C 0.81015 0.82633 0.75144 0.0
C1387 C 0.81148 0.71219 0.77125 0.0
C1388 C 0.84782 0.68059 0.77711 0.0
C1389 C 0.82346 0.66831 0.76264 0.0
C1390 C 0.80523 0.68427 0.75957 0.0
C1391 C 0.83631 0.72453 0.78467 0.0
C1392 C 0.85452 0.70913 0.78714 0.0
C1393 C 0.79303 0.72952 0.77054 0.0
O1394 O 0.84979 0.79149 0.77574 0.0
O1395 O 0.87046 0.83041 0.80245 0.0
O1396 O 0.83415 0.82065 0.84561 0.0
O1397 O 0.8208 0.77462 0.82796 0.0
O1398 O 0.84998 0.88403 0.80166 0.0
O1399 O 0.84345 0.87504 0.83973 0.0
O1400 O 0.78898 0.83497 0.81965 0.0
O1401 O 0.76981 0.78817 0.80649 0.0
O1402 O 0.79338 0.80412 0.75946 0.0
O1403 O 0.82885 0.8424 0.76817 0.0
C1404 C 0.87281 0.81126 0.78433 0.0
O1405 O 0.78731 0.73738 0.79265 0.0
O1406 O 0.79991 0.75127 0.75711 0.0
C1407 C 0.82778 0.79301 0.8482 0.0
C1408 C 0.82538 0.90864 0.82276 0.0
C1409 C 0.78158 0.9301 0.82135 0.0
C1410 C 0.80449 0.94418 0.83748 0.0
C1411 C 0.82635 0.93308 0.83852 0.0
C1412 C 0.80226 0.89475 0.80712 0.0
C1413 C 0.78029 0.90456 0.80727 0.0
C1414 C 0.84617 0.89432 0.82363 0.0
C1415 C 0.76733 0.81218 0.81864 0.0
H1416 H 0.81799 0.64607 0.75507 0.0
H1417 H 0.78613 0.67458 0.74906 0.0
H1418 H 0.84126 0.74572 0.79436 0.0
H1419 H 0.87315 0.71883 0.79851 0.0
H1420 H 0.80582 0.96415 0.84836 0.0
H1421 H 0.84391 0.94369 0.85104 0.0
H1422 H 0.8011 0.8761 0.79447 0.0
H1423 H 0.76274 0.89316 0.79497 0.0
Tb1424 Tb 0.59685 0.57044 0.56213 0.0
Tb1425 Tb 0.53801 0.53018 0.53653 0.0
C1426 C 0.54721 0.56693 0.5904 0.0
C1427 C 0.66645 0.58172 0.57356 0.0
C1428 C 0.70604 0.55427 0.56948 0.0
C1429 C 0.71118 0.57987 0.58505 0.0
C1430 C 0.69127 0.59359 0.58718 0.0
C1431 C 0.66147 0.55581 0.55849 0.0
C1432 C 0.6811 0.54223 0.55641 0.0
C1433 C 0.64488 0.59488 0.57541 0.0
O1434 O 0.59081 0.52873 0.57815 0.0
O1435 O 0.56114 0.50039 0.54677 0.0
O1436 O 0.56093 0.54215 0.50571 0.0
O1437 O 0.59775 0.54207 0.52987 0.0
O1438 O 0.5021 0.50078 0.54317 0.0
O1439 O 0.50987 0.51239 0.50566 0.0
O1440 O 0.53761 0.57396 0.52868 0.0
O1441 O 0.57969 0.60173 0.54422 0.0
O1442 O 0.57233 0.57967 0.58941 0.0
O1443 O 0.53233 0.54768 0.57315 0.0
C1444 C 0.57869 0.50329 0.56646 0.0
O1445 O 0.63309 0.59767 0.55376 0.0
O1446 O 0.6279 0.58357 0.5911 0.0
C1447 C 0.5856 0.5428 0.50798 0.0
C1448 C 0.46995 0.51479 0.51964 0.0
C1449 C 0.43009 0.54239 0.52058 0.0
C1450 C 0.42433 0.51399 0.50957 0.0
C1451 C 0.44439 0.50027 0.50886 0.0
C1452 C 0.47539 0.54301 0.53049 0.0
C1453 C 0.45592 0.55689 0.53051 0.0
C1454 C 0.49172 0.50177 0.52045 0.0
C1455 C 0.55613 0.59882 0.53225 0.0
H1456 H 0.73063 0.58946 0.59495 0.0
H1457 H 0.69526 0.61341 0.59913 0.0
H1458 H 0.64245 0.5461 0.54808 0.0
H1459 H 0.67707 0.5227 0.54401 0.0
H1460 H 0.40429 0.50229 0.50223 0.0
H1461 H 0.43984 0.47835 0.50064 0.0
H1462 H 0.49448 0.55405 0.54008 0.0
H1463 H 0.46073 0.57832 0.53994 0.0
Tb1464 Tb 0.03825 0.55475 0.05491 0.0
Tb1465 Tb 0.10329 0.56159 0.05469 0.0
C1466 C 0.06971 0.53603 0.09687 0.0
C1467 C 0.9763 0.57717 0.05426 0.0
C1468 C 0.94704 0.61716 0.06246 0.0
C1469 C 0.95233 0.60062 0.08184 0.0
C1470 C 0.96666 0.58078 0.07775 0.0
C1471 C 0.97161 0.5942 0.03509 0.0
C1472 C 0.95722 0.61398 0.03915 0.0
C1473 C 0.99048 0.55524 0.04946 0.0
O1474 O 0.05572 0.59356 0.07932 0.0
O1475 O 0.10004 0.60305 0.07163 0.0
O1476 O 0.09025 0.56617 0.01643 0.0
O1477 O 0.06121 0.5865 0.03222 0.0
O1478 O 0.13529 0.55597 0.0775 0.0
O1479 O 0.14075 0.5721 0.04084 0.0
O1480 O 0.08484 0.52156 0.03183 0.0
O1481 O 0.04085 0.51211 0.04057 0.0
O1482 O 0.05081 0.54803 0.09256 0.0
O1483 O 0.08299 0.53017 0.07864 0.0
C1484 C 0.08028 0.61021 0.08175 0.0
O1485 O 1.00625 0.55937 0.03148 0.0
O1486 O 1.00093 0.54617 0.06907 0.0
C1487 C 0.07224 0.57938 1.01275 0.0
C1488 C 0.16498 0.53969 0.05335 0.0
C1489 C 0.1933 0.49957 0.04206 0.0
C1490 C 0.18304 0.51301 0.02275 0.0
C1491 C 0.16919 0.53292 0.02831 0.0
C1492 C 0.17432 0.5255 0.0726 0.0
C1493 C 0.18829 0.50562 0.06702 0.0
C1494 C 0.15108 0.56149 0.05961 0.0
C1495 C 0.06043 0.5045 0.03066 0.0
H1496 H 0.94503 0.60267 0.1001 0.0
H1497 H 0.96985 0.56797 0.09293 0.0
H1498 H 0.97858 0.59186 0.0167 0.0
H1499 H 0.95317 0.6259 0.02363 0.0
H1500 H 0.1861 0.50853 1.00325 0.0
H1501 H 0.16209 0.54321 1.01296 0.0
H1502 H 0.17126 0.53017 0.09207 0.0
H1503 H 0.19607 0.49591 0.0824 0.0
H1504 H 0.04674 0.22517 1.01228 0.0
H1505 H 1.00557 0.18043 0.94234 0.0
H1506 H 1.01419 0.136 0.9547 0.0
H1507 H 0.0337 0.10934 0.98546 0.0
H1508 H 0.07668 0.15499 0.05447 0.0
H1509 H 0.06714 0.19893 0.04245 0.0
C1510 C 0.03953 0.2057 0.99973 0.0
C1511 C 0.02528 0.20642 0.97635 0.0
C1512 C 0.04501 0.1801 1.00682 0.0
C1513 C 1.01648 0.1808 0.96041 0.0
C1514 C 1.02144 0.15525 0.9675 0.0
C1515 C 0.04106 0.12888 0.9979 0.0
C1516 C 0.05605 0.12845 0.02097 0.0
C1517 C 0.03575 0.15455 0.99067 0.0
C1518 C 0.06531 0.15431 0.0366 0.0
C1519 C 0.05976 0.17962 0.02974 0.0
H1520 H 0.19011 0.85537 0.21844 0.0
H1521 H 0.21242 0.81926 0.15058 0.0
H1522 H 0.25277 0.81499 0.17378 0.0
H1523 H 0.28059 0.81858 0.21434 0.0
H1524 H 0.25732 0.85465 0.28188 0.0
H1525 H 0.21899 0.86177 0.25793 0.0
C1526 C 0.20397 0.84698 0.20855 0.0
C1527 C 0.19803 0.83778 0.18262 0.0
C1528 C 0.22711 0.8443 0.22212 0.0
C1529 C 0.21635 0.82677 0.17039 0.0
C1530 C 0.23946 0.82414 0.18375 0.0
C1531 C 0.26736 0.82836 0.2238 0.0
C1532 C 0.27219 0.83599 0.25013 0.0
C1533 C 0.24491 0.83241 0.20978 0.0
C1534 C 0.25446 0.84847 0.26181 0.0
C1535 C 0.23234 0.85256 0.24806 0.0
H1536 H 0.498 0.88477 0.47159 0.0
H1537 H 0.56347 0.85899 0.50519 0.0
H1538 H 0.58246 0.90752 0.52645 0.0
H1539 H 0.58207 0.95893 0.53246 0.0
H1540 H 0.51519 0.98264 0.49852 0.0
H1541 H 0.49536 0.9336 0.4805 0.0
C1542 C 0.51607 0.88947 0.48407 0.0
C1543 C 0.52909 0.86807 0.48694 0.0
C1544 C 0.52697 0.91743 0.49583 0.0
C1545 C 0.55268 0.87478 0.50306 0.0
C1546 C 0.56376 0.90273 0.51489 0.0
C1547 C 0.56319 0.95334 0.52109 0.0
C1548 C 0.55041 0.97485 0.51669 0.0
C1549 C 0.55143 0.92454 0.51088 0.0
C1550 C 0.52568 0.96688 0.50223 0.0
C1551 C 0.5142 0.93869 0.49189 0.0
H1552 H 0.52291 0.31483 0.65028 0.0
H1553 H 0.57888 0.29956 0.70704 0.0
H1554 H 0.54677 0.2961 0.73817 0.0
H1555 H 0.50301 0.29769 0.74944 0.0
H1556 H 0.4471 0.31362 0.69313 0.0
H1557 H 0.47912 0.31696 0.66175 0.0
C1558 C 0.52806 0.3107 0.66945 0.0
C1559 C 0.55327 0.30747 0.67629 0.0
C1560 C 0.50959 0.30901 0.68737 0.0
C1561 C 0.5597 0.30235 0.70128 0.0
C1562 C 0.54132 0.30028 0.7191 0.0
C1563 C 0.49776 0.30163 0.73024 0.0
C1564 C 0.4727 0.30526 0.72359 0.0
C1565 C 0.51624 0.30358 0.71236 0.0
C1566 C 0.46635 0.31095 0.69876 0.0
C1567 C 0.48459 0.31272 0.68079 0.0
H1568 H 0.07964 0.9302 0.68095 0.0
H1569 H 0.06844 0.86247 0.62179 0.0
H1570 H 0.06899 0.89709 0.59018 0.0
H1571 H 0.07243 0.94798 0.57755 0.0
H1572 H 0.0832 0.01529 0.6371 0.0
H1573 H 0.08296 0.9807 0.66845 0.0
C1574 C 0.07724 0.92256 0.66119 0.0
C1575 C 0.07388 0.89223 0.65487 0.0
C1576 C 0.07753 0.94335 0.64227 0.0
C1577 C 0.07097 0.88462 0.62844 0.0
C1578 C 0.07132 0.90492 0.60989 0.0
C1579 C 0.07487 0.95551 0.59734 0.0
C1580 C 0.07805 0.98581 0.60383 0.0
C1581 C 0.07458 0.93461 0.61625 0.0
C1582 C 0.08086 0.99322 0.6303 0.0
C1583 C 0.08067 0.97294 0.64873 0.0
H1584 H 0.47809 0.82167 0.90164 0.0
H1585 H 0.5033 0.77673 0.84072 0.0
H1586 H 0.46196 0.77401 0.81506 0.0
H1587 H 0.41622 0.78377 0.80828 0.0
H1588 H 0.39274 0.83173 0.86834 0.0
H1589 H 0.43367 0.83351 0.89415 0.0
C1590 C 0.47504 0.81133 0.88269 0.0
C1591 C 0.49603 0.79989 0.87398 0.0
C1592 C 0.45025 0.8102 0.86705 0.0
C1593 C 0.4894 0.78649 0.84893 0.0
C1594 C 0.46497 0.78475 0.83387 0.0
C1595 C 0.41968 0.79481 0.82699 0.0
C1596 C 0.39935 0.80758 0.8354 0.0
C1597 C 0.44482 0.79648 0.84238 0.0
C1598 C 0.40641 0.82157 0.86019 0.0
C1599 C 0.43049 0.82259 0.8754 0.0
H1600 H 0.57479 0.24383 0.1241 0.0
H1601 H 0.53308 0.2033 0.1844 0.0
H1602 H 0.5316 0.15598 0.16456 0.0
H1603 H 0.5433 0.12385 0.12997 0.0
H1604 H 0.58508 0.16535 0.06986 0.0
H1605 H 0.58529 0.21206 0.08925 0.0
C1606 C 0.56487 0.2248 0.1329 0.0
C1607 C 0.55347 0.22857 0.1562 0.0
C1608 C 0.56441 0.19659 0.12123 0.0
C1609 C 0.54178 0.20242 0.16672 0.0
C1610 C 0.54104 0.17477 0.15521 0.0
C1611 C 0.55264 0.14292 0.12093 0.0
C1612 C 0.56435 0.13938 0.09765 0.0
C1613 C 0.55256 0.17114 0.13246 0.0
C1614 C 0.57576 0.16575 0.08724 0.0
C1615 C 0.57593 0.19318 0.09855 0.0
H1616 H 0.17559 0.35088 0.37948 0.0
H1617 H 0.13098 0.26301 0.35839 0.0
H1618 H 0.16802 0.2558 0.33612 0.0
H1619 H 0.21502 0.27343 0.32113 0.0
H1620 H 0.26085 0.3603 0.34506 0.0
H1621 H 0.22352 0.36772 0.36659 0.0
C1622 C 0.17366 0.32975 0.37052 0.0
C1623 C 0.14872 0.30739 0.37219 0.0
C1624 C 0.19641 0.32524 0.35746 0.0
C1625 C 0.14871 0.28092 0.35911 0.0
C1626 C 0.17049 0.27673 0.34578 0.0
C1627 C 0.21732 0.29427 0.33088 0.0
C1628 C 0.24267 0.31633 0.33007 0.0
C1629 C 0.19484 0.29855 0.34454 0.0
C1630 C 0.24303 0.34247 0.344 0.0
C1631 C 0.22101 0.34684 0.3568 0.0
H1632 H 1.02036 0.0702 0.1985 0.0
H1633 H 0.94209 0.05098 0.15946 0.0
H1634 H 0.96127 0.0581 0.11924 0.0
H1635 H 0.99979 0.06338 0.09508 0.0
H1636 H 0.07759 0.07902 0.13467 0.0
H1637 H 0.05896 0.07997 0.17487 0.0
C1638 C 1.00752 0.06824 0.18126 0.0
C1639 C 0.97997 0.05978 0.18175 0.0
C1640 C 1.01854 0.07146 0.15831 0.0
C1641 C 0.96345 0.05724 0.15937 0.0
C1642 C 0.97436 0.06128 0.13641 0.0
C1643 C 1.0127 0.06751 0.1125 0.0
C1644 C 0.03988 0.07066 0.11194 0.0
C1645 C 1.00183 0.06736 0.13561 0.0
C1646 C 0.05648 0.07618 0.13462 0.0
C1647 C 0.0459 0.07676 0.15764 0.0
H1648 H 0.32465 0.69418 0.50499 0.0
H1649 H 0.25559 0.70616 0.5371 0.0
H1650 H 0.24589 0.73154 0.50091 0.0
H1651 H 0.25589 0.74746 0.45895 0.0
H1652 H 0.32677 0.73768 0.42836 0.0
H1653 H 0.33691 0.71408 0.46508 0.0
C1654 C 0.30786 0.70298 0.50417 0.0
C1655 C 0.29091 0.69874 0.52337 0.0
C1656 C 0.30257 0.71748 0.48351 0.0
C1657 C 0.26897 0.70968 0.52239 0.0
C1658 C 0.26337 0.72394 0.50171 0.0
C1659 C 0.27374 0.74054 0.4605 0.0
C1660 C 0.29027 0.74387 0.44076 0.0
C1661 C 0.27984 0.72756 0.48196 0.0
C1662 C 0.31327 0.73461 0.44296 0.0
C1663 C 0.31927 0.72138 0.46406 0.0
H1664 H 0.6506 0.02004 0.68083 0.0
H1665 H 0.59587 0.05856 0.71506 0.0
H1666 H 0.56711 0.04898 0.67555 0.0
H1667 H 0.56185 0.03661 0.62996 0.0
H1668 H 0.61683 0.99831 0.59582 0.0
H1669 H 0.64048 0.9991 0.63698 0.0
C1670 C 0.63214 0.02584 0.67954 0.0
C1671 C 0.62529 0.04031 0.70018 0.0
C1672 C 0.6156 0.01974 0.65708 0.0
C1673 C 0.60131 0.04751 0.69896 0.0
C1674 C 0.58491 0.04195 0.67654 0.0
C1675 C 0.57812 0.02706 0.6318 0.0
C1676 C 0.58796 0.01778 0.61023 0.0
C1677 C 0.59225 0.02879 0.65529 0.0
C1678 C 0.60916 1.00565 0.61248 0.0
C1679 C 0.62293 1.00656 0.63587 0.0
H1680 H 0.36685 0.36648 0.96095 0.0
H1681 H 0.28577 0.32929 0.97505 0.0
H1682 H 0.27512 0.31033 0.93041 0.0
H1683 H 0.28873 0.30705 0.88564 0.0
H1684 H 0.37069 0.34591 0.87401 0.0
H1685 H 0.3806 0.36193 0.91854 0.0
C1686 C 0.34683 0.35407 0.95458 0.0
C1687 C 0.32736 0.34938 0.97206 0.0
C1688 C 0.34078 0.34389 0.92866 0.0
C1689 C 0.30155 0.33285 0.96269 0.0
C1690 C 0.29535 0.32236 0.93683 0.0
C1691 C 0.30873 0.31913 0.8928 0.0
C1692 C 0.32886 0.32521 0.87573 0.0
C1693 C 0.3147 0.32823 0.91931 0.0
C1694 C 0.35465 0.34062 0.88605 0.0
C1695 C 0.36046 0.34987 0.9118 0.0
H1696 H 1.00948 0.04074 0.30675 0.0
H1697 H 0.93609 0.02154 0.34222 0.0
H1698 H 0.95967 0.01855 0.38212 0.0
H1699 H 0.99996 0.01758 0.40617 0.0
H1700 H 0.0743 0.03894 0.37274 0.0
H1701 H 0.05125 0.04418 0.33254 0.0
C1702 C 0.99871 0.03626 0.32328 0.0
C1703 C 0.97101 0.03106 0.3213 0.0
C1704 C 1.0124 0.03445 0.3464 0.0
C1705 C 0.95739 0.02551 0.343 0.0
C1706 C 0.97081 0.02364 0.3659 0.0
C1707 C 1.01134 0.02398 0.39031 0.0
C1708 C 0.03882 0.02787 0.39248 0.0
C1709 C 0.99816 0.02751 0.36766 0.0
C1710 C 0.05304 0.03539 0.37146 0.0
C1711 C 0.03991 0.03862 0.34856 0.0
H1712 H 0.35294 0.74461 0.64677 0.0
H1713 H 0.33704 0.66184 0.67685 0.0
H1714 H 0.33446 0.68408 0.71866 0.0
H1715 H 0.33086 0.7263 0.74512 0.0
H1716 H 0.34538 0.80821 0.7136 0.0
H1717 H 0.35337 0.78681 0.6736 0.0
C1718 C 0.34956 0.73143 0.66254 0.0
C1719 C 0.34495 0.70157 0.65863 0.0
C1720 C 0.34695 0.7441 0.6861 0.0
C1721 C 0.34062 0.68491 0.67935 0.0
C1722 C 0.33879 0.69755 0.70318 0.0
C1723 C 0.33594 0.73938 0.7295 0.0
C1724 C 0.33744 0.76871 0.73219 0.0
C1725 C 0.34082 0.72695 0.70651 0.0
C1726 C 0.34426 0.78559 0.71196 0.0
C1727 C 0.34888 0.7734 0.6891 0.0
H1728 H 0.69077 0.08068 0.86026 0.0
H1729 H 0.63175 1.01214 0.81627 0.0
H1730 H 0.5995 1.01422 0.8466 0.0
H1731 H 0.58614 0.04254 0.88055 0.0
H1732 H 0.64278 0.11927 0.91623 0.0
H1733 H 0.6775 0.10945 0.89248 0.0
C1734 C 0.6709 0.06616 0.85745 0.0
C1735 C 0.66302 0.04722 0.83587 0.0
C1736 C 0.65167 0.07053 0.87236 0.0
C1737 C 0.63784 0.02718 0.8329 0.0
C1738 C 0.61931 0.02891 0.84974 0.0
C1739 C 0.60592 0.0574 0.88236 0.0
C1740 C 0.61203 0.08203 0.8991 0.0
C1741 C 0.62551 0.0519 0.86838 0.0
C1742 C 0.63775 0.10084 0.90242 0.0
C1743 C 0.65764 0.09484 0.88947 0.0
H1744 H 0.35256 0.38354 0.14686 0.0
H1745 H 0.28425 0.31702 0.11331 0.0
H1746 H 0.27367 0.30177 0.15527 0.0
H1747 H 0.28434 0.30621 0.20265 0.0
H1748 H 0.35401 0.37221 0.235 0.0
H1749 H 0.36333 0.3877 0.1934 0.0
C1750 C 0.3353 0.36568 0.14858 0.0
C1751 C 0.31936 0.35162 0.12625 0.0
C1752 C 0.32949 0.3565 0.17313 0.0
C1753 C 0.29722 0.32835 0.1296 0.0
C1754 C 0.29107 0.31957 0.15388 0.0
C1755 C 0.30144 0.32418 0.20076 0.0
C1756 C 0.31809 0.338 0.22293 0.0
C1757 C 0.3071 0.33329 0.176 0.0
C1758 C 0.3403 0.36104 0.21911 0.0
C1759 C 0.34585 0.37005 0.19496 0.0
H1760 H 0.26316 0.96032 0.03456 0.0
H1761 H 0.31365 0.04158 0.01633 0.0
H1762 H 0.28716 0.06694 0.03841 0.0
H1763 H 0.24856 0.06614 0.06067 0.0
H1764 H 0.19498 0.98535 0.07539 0.0
H1765 H 0.22391 0.95954 0.05699 0.0
C1766 C 0.26829 0.98357 0.03543 0.0
C1767 C 0.29045 0.99905 0.0241 0.0
C1768 C 0.25259 0.99805 0.04765 0.0
C1769 C 0.29674 0.02913 0.02498 0.0
C1770 C 0.28169 0.0437 0.0377 0.0
C1771 C 0.2437 0.04295 0.06061 0.0
C1772 C 0.22014 0.02764 0.06974 0.0
C1773 C 0.2596 0.02839 0.04903 0.0
C1774 C 0.2134 0.99751 0.06879 0.0
C1775 C 0.22972 0.9828 0.05805 0.0
H1776 H 0.70735 0.6931 0.02267 0.0
H1777 H 0.76016 0.6513 0.05897 0.0
H1778 H 0.7228 0.61066 0.06585 0.0
H1779 H 0.67435 0.58738 0.06316 0.0
H1780 H 0.62152 0.63221 0.03133 0.0
H1781 H 0.659 0.67057 0.02102 0.0
C1782 C 0.71058 0.67496 0.03188 0.0
C1783 C 0.73658 0.67462 0.03924 0.0
C1784 C 0.68878 0.65198 0.03666 0.0
C1785 C 0.74041 0.65146 0.05204 0.0
C1786 C 0.71899 0.62829 0.05625 0.0
C1787 C 0.67114 0.60544 0.05379 0.0
C1788 C 0.64513 0.6068 0.04801 0.0
C1789 C 0.69299 0.62824 0.0487 0.0
C1790 C 0.64132 0.63058 0.03609 0.0
C1791 C 0.66279 0.65265 0.03017 0.0
H1792 H 0.71764 0.47546 0.36143 0.0
H1793 H 0.76088 0.55409 0.3327 0.0
H1794 H 0.78362 0.5281 0.30613 0.0
H1795 H 0.79494 0.48415 0.29507 0.0
H1796 H 0.75409 0.40531 0.32468 0.0
H1797 H 0.72576 0.42969 0.34627 0.0
C1798 C 0.73199 0.48655 0.34923 0.0
C1799 C 0.73869 0.51639 0.34948 0.0
C1800 C 0.745 0.47143 0.33401 0.0
C1801 C 0.75656 0.53103 0.33328 0.0
C1802 C 0.76925 0.51625 0.31794 0.0
C1803 C 0.77926 0.47231 0.30567 0.0
C1804 C 0.77623 0.44338 0.3085 0.0
C1805 C 0.76416 0.48661 0.31869 0.0
C1806 C 0.7563 0.4278 0.32236 0.0
C1807 C 0.74043 0.44173 0.33484 0.0
H1808 H 0.8997 0.49966 0.52503 0.0
H1809 H 0.91359 0.43765 0.47048 0.0
H1810 H 0.96171 0.46056 0.47806 0.0
H1811 H 0.99888 0.49675 0.50201 0.0
H1812 H 0.98384 0.55563 0.55904 0.0
H1813 H 0.9361 0.53564 0.54821 0.0
C1814 C 0.91332 0.49151 0.51449 0.0
C1815 C 0.90376 0.46787 0.49674 0.0
C1816 C 0.94023 0.50409 0.51945 0.0
C1817 C 0.92108 0.45637 0.48385 0.0
C1818 C 0.94829 0.46936 0.48821 0.0
C1819 C 0.98504 0.50523 0.51188 0.0
C1820 C 0.99427 0.52726 0.53131 0.0
C1821 C 0.95797 0.49305 0.50618 0.0
C1822 C 0.97667 0.53831 0.54424 0.0
C1823 C 0.94963 0.52698 0.53807 0.0
H1824 H 0.37336 0.09375 0.3521 0.0
H1825 H 0.44634 0.13329 0.32004 0.0
H1826 H 0.42305 0.15862 0.29276 0.0
H1827 H 0.38144 0.16728 0.2766 0.0
H1828 H 0.30888 0.12695 0.3088 0.0
H1829 H 0.33248 0.10249 0.33644 0.0
C1830 C 0.38437 0.10814 0.33939 0.0
C1831 C 0.41147 0.11143 0.33797 0.0
C1832 C 0.37076 0.1215 0.32309 0.0
C1833 C 0.4254 0.13036 0.3215 0.0
C1834 C 0.41206 0.14454 0.30566 0.0
C1835 C 0.3708 0.15283 0.28947 0.0
C1836 C 0.34347 0.1486 0.2905 0.0
C1837 C 0.38462 0.13966 0.3059 0.0
C1838 C 0.3298 0.12991 0.3072 0.0
C1839 C 0.34335 0.11641 0.32336 0.0
H1840 H 0.34821 0.15656 0.56609 0.0
H1841 H 0.39334 0.22912 0.53073 0.0
H1842 H 0.43334 0.21289 0.53773 0.0
H1843 H 0.45373 0.17448 0.54953 0.0
H1844 H 0.40615 0.10087 0.58261 0.0
H1845 H 0.3689 0.12094 0.58078 0.0
C1846 C 0.36683 0.16887 0.56002 0.0
C1847 C 0.36784 0.19362 0.54755 0.0
C1848 C 0.38924 0.159 0.56349 0.0
C1849 C 0.3922 0.20996 0.54041 0.0
C1850 C 0.41493 0.2005 0.54419 0.0
C1851 C 0.43525 0.16296 0.55645 0.0
C1852 C 0.43289 0.13613 0.5662 0.0
C1853 C 0.41345 0.17446 0.55495 0.0
C1854 C 0.40883 0.12169 0.57537 0.0
C1855 C 0.38735 0.13305 0.57417 0.0
H1856 H 0.71537 0.67383 0.37532 0.0
H1857 H 0.76294 0.621 0.3486 0.0
H1858 H 0.79521 0.66221 0.33624 0.0
H1859 H 0.80602 0.71128 0.32608 0.0
H1860 H 0.75328 0.76221 0.34179 0.0
H1861 H 0.7267 0.7243 0.36509 0.0
C1862 C 0.73313 0.67178 0.36727 0.0
C1863 C 0.73783 0.64506 0.36436 0.0
C1864 C 0.7503 0.69519 0.35769 0.0
C1865 C 0.76006 0.6419 0.35277 0.0
C1866 C 0.77827 0.66532 0.34515 0.0
C1867 C 0.78893 0.71401 0.33503 0.0
C1868 C 0.78097 0.73852 0.33227 0.0
C1869 C 0.77311 0.69179 0.34672 0.0
C1870 C 0.759 0.74264 0.3436 0.0
C1871 C 0.744 0.7212 0.35687 0.0
H1872 H 0.90361 0.4912 0.82695 0.0
H1873 H 0.95215 0.46081 0.88088 0.0
H1874 H 0.92453 0.41121 0.86939 0.0
H1875 H 0.88794 0.37712 0.84226 0.0
H1876 H 0.83935 0.40889 0.78947 0.0
H1877 H 0.86566 0.45834 0.80266 0.0
C1878 C 0.90794 0.47369 0.83644 0.0
C1879 C 0.92931 0.47915 0.85498 0.0
C1880 C 0.89211 0.44596 0.82993 0.0
C1881 C 0.93552 0.45663 0.86665 0.0
C1882 C 0.91976 0.42854 0.86015 0.0
C1883 C 0.88311 0.39508 0.83399 0.0
C1884 C 0.86228 0.39012 0.81496 0.0
C1885 C 0.89819 0.42305 0.84167 0.0
C1886 C 0.85546 0.41285 0.80425 0.0
C1887 C 0.87053 0.44083 0.81161 0.0
H1888 H 0.06993 0.87683 0.09152 0.0
H1889 H 0.14758 0.91785 0.12947 0.0
H1890 H 0.14475 0.96432 0.11546 0.0
H1891 H 0.11968 0.99328 0.09183 0.0
H1892 H 0.04157 0.94986 0.05555 0.0
H1893 H 0.04538 0.90455 0.06944 0.0
C1894 C 0.0865 0.89576 0.09677 0.0
C1895 C 0.10914 0.89343 0.11143 0.0
C1896 C 0.08461 0.92221 0.08887 0.0
C1897 C 0.12995 0.91869 0.1182 0.0
C1898 C 0.1283 0.94533 0.11012 0.0
C1899 C 0.10352 0.97389 0.08694 0.0
C1900 C 0.08028 0.97533 0.07253 0.0
C1901 C 0.10568 0.94738 0.09533 0.0
C1902 C 0.0596 0.94981 0.0666 0.0
C1903 C 0.06176 0.9237 0.07454 0.0
H1904 H 0.95922 0.25825 0.88436 0.0
H1905 H 0.93422 0.30053 0.94715 0.0
H1906 H 0.89643 0.30591 0.92016 0.0
H1907 H 0.87336 0.30319 0.87735 0.0
H1908 H 0.89891 0.2604 0.81485 0.0
H1909 H 0.93311 0.25039 0.84296 0.0
C1910 C 0.94531 0.26839 0.89215 0.0
C1911 C 0.94998 0.27986 0.91749 0.0
C1912 C 0.92367 0.2714 0.87646 0.0
C1913 C 0.93131 0.29201 0.92759 0.0
C1914 C 0.90975 0.29517 0.9121 0.0
C1915 C 0.88621 0.29143 0.86987 0.0
C1916 C 0.88358 0.28301 0.84373 0.0
C1917 C 0.90619 0.28577 0.88626 0.0
C1918 C 0.90041 0.26749 0.83467 0.0
C1919 C 0.92004 0.26162 0.85082 0.0
H1920 H 0.60126 0.2213 0.64603 0.0
H1921 H 0.63018 0.26313 0.5808 0.0
H1922 H 0.62799 0.21666 0.55883 0.0
H1923 H 0.61764 0.16348 0.55825 0.0
H1924 H 0.5896 0.12247 0.62433 0.0
H1925 H 0.59224 0.16892 0.64598 0.0
C1926 C 0.6069 0.22014 0.62693 0.0
C1927 C 0.61481 0.24546 0.61464 0.0
C1928 C 0.60624 0.1934 0.61472 0.0
C1929 C 0.62284 0.24378 0.59021 0.0
C1930 C 0.62199 0.21723 0.5778 0.0
C1931 C 0.61272 0.16485 0.57757 0.0
C1932 C 0.6038 0.1395 0.58976 0.0
C1933 C 0.61379 0.19181 0.58988 0.0
C1934 C 0.59677 0.14162 0.61459 0.0
C1935 C 0.59809 0.16819 0.62696 0.0
H1936 H 0.58471 0.8395 0.39434 0.0
H1937 H 0.59836 0.77839 0.44521 0.0
H1938 H 0.63945 0.77872 0.42602 0.0
H1939 H 0.66951 0.79386 0.39196 0.0
H1940 H 0.6515 0.85223 0.34025 0.0
H1941 H 0.61376 0.85491 0.36242 0.0
C1942 C 0.59655 0.82621 0.40154 0.0
C1943 C 0.58812 0.80865 0.42107 0.0
C1944 C 0.6193 0.82575 0.38995 0.0
C1945 C 0.60423 0.79204 0.43014 0.0
C1946 C 0.62762 0.79208 0.41902 0.0
C1947 C 0.65731 0.80719 0.38569 0.0
C1948 C 0.66366 0.8232 0.36465 0.0
C1949 C 0.63502 0.80835 0.39842 0.0
C1950 C 0.64761 0.84031 0.35671 0.0
C1951 C 0.62585 0.84174 0.36929 0.0
H1952 H 0.06436 0.18302 0.42707 0.0
H1953 H 0.06966 0.24522 0.48973 0.0
H1954 H 0.06747 0.20823 0.51894 0.0
H1955 H 0.06471 0.15715 0.5288 0.0
H1956 H 0.06254 0.09519 0.46697 0.0
H1957 H 0.06276 0.13161 0.4372 0.0
C1958 C 0.06497 0.18883 0.44706 0.0
C1959 C 0.06711 0.21846 0.45519 0.0
C1960 C 0.06424 0.16662 0.46481 0.0
C1961 C 0.06806 0.22372 0.4818 0.0
C1962 C 0.06677 0.20206 0.49899 0.0
C1963 C 0.06406 0.15116 0.50883 0.0
C1964 C 0.06319 0.12187 0.50109 0.0
C1965 C 0.06491 0.17321 0.49106 0.0
C1966 C 0.06298 0.11648 0.47456 0.0
C1967 C 0.06317 0.13782 0.45709 0.0
H1968 H 0.64735 0.30556 0.26021 0.0
H1969 H 0.66867 0.32445 0.18553 0.0
H1970 H 0.71439 0.32492 0.19832 0.0
H1971 H 0.75061 0.31956 0.23088 0.0
H1972 H 0.72793 0.29584 0.30418 0.0
H1973 H 0.68288 0.29787 0.29202 0.0
C1974 C 0.6618 0.31003 0.24651 0.0
C1975 C 0.65297 0.31549 0.22138 0.0
C1976 C 0.68905 0.30936 0.25398 0.0
C1977 C 0.67339 0.32042 0.2048 0.0
C1978 C 0.70019 0.32065 0.21227 0.0
C1979 C 0.73606 0.31483 0.24448 0.0
C1980 C 0.74443 0.30762 0.26916 0.0
C1981 C 0.7087 0.31512 0.23686 0.0
C1982 C 0.72364 0.30141 0.28533 0.0
C1983 C 0.69722 0.30262 0.27823 0.0
H1984 H 0.58681 0.92239 0.92572 0.0
H1985 H 0.56426 0.85908 0.97901 0.0
H1986 H 0.56041 0.89648 1.01026 0.0
H1987 H 0.56289 0.9488 0.02406 0.0
H1988 H 0.58679 1.01158 0.97048 0.0
H1989 H 0.59038 0.97425 0.93965 0.0
C1990 C 0.58128 0.91638 0.94419 0.0
C1991 C 0.57622 0.88645 0.94901 0.0
C1992 C 0.57912 0.93881 0.96291 0.0
C1993 C 0.56878 0.8809 0.9737 0.0
C1994 C 0.56641 0.90279 0.99199 0.0
C1995 C 0.56897 0.95472 1.00573 0.0
C1996 C 0.57448 0.98473 1.00077 0.0
C1997 C 0.57144 0.93214 0.98713 0.0
C1998 C 0.58228 0.98996 0.97613 0.0
C1999 C 0.58441 0.96804 0.95795 0.0
H2000 H 1.00071 0.8454 0.75928 0.0
H2001 H 0.97255 0.77623 0.70085 0.0
H2002 H 0.92746 0.76782 0.71404 0.0
H2003 H 0.89295 0.77953 0.74273 0.0
H2004 H 0.92251 0.84903 0.80088 0.0
H2005 H 0.96705 0.85675 0.7876 0.0
C2006 C 0.98503 0.82829 0.74901 0.0
C2007 C 0.99235 0.81178 0.72816 0.0
C2008 C 0.95777 0.82321 0.75706 0.0
C2009 C 0.96974 0.78995 0.7165 0.0
C2010 C 0.94307 0.78498 0.72432 0.0
C2011 C 0.90884 0.79649 0.75289 0.0
C2012 C 0.90197 0.81346 0.77382 0.0
C2013 C 0.93623 0.80133 0.7447 0.0
C2014 C 0.9249 0.83501 0.78525 0.0
C2015 C 0.9513 0.83965 0.77739 0.0
H2016 H 0.13782 0.04446 0.90619 0.0
H2017 H 0.20707 0.05008 0.95705 0.0
H2018 H 0.17864 0.03206 0.99005 0.0
H2019 H 0.13534 0.02372 1.00612 0.0
H2020 H 0.06719 0.02446 0.95686 0.0
H2021 H 0.09389 0.02985 0.92085 0.0
C2022 C 0.14679 0.04126 0.92431 0.0
C2023 C 0.17453 0.04912 0.92941 0.0
C2024 C 0.13048 0.0319 0.94327 0.0
C2025 C 0.18577 0.04465 0.9529 0.0
C2026 C 0.16956 0.03428 0.97168 0.0
C2027 C 0.12628 0.02417 0.98731 0.0
C2028 C 0.09974 0.02415 0.98387 0.0
C2029 C 0.14205 0.02909 0.96734 0.0
C2030 C 0.08769 0.02428 0.95964 0.0
C2031 C 0.10303 0.02783 0.93924 0.0
H2032 H 0.81627 0.38559 0.57542 0.0
H2033 H 0.8818 0.46291 0.58689 0.0
H2034 H 0.89857 0.44619 0.62494 0.0
H2035 H 0.8955 0.4088 0.65445 0.0
H2036 H 0.83054 0.3314 0.64299 0.0
H2037 H 0.81247 0.3489 0.60558 0.0
C2038 C 0.83396 0.39893 0.58648 0.0
C2039 C 0.84761 0.42546 0.57845 0.0
C2040 C 0.84373 0.38906 0.60822 0.0
C2041 C 0.87068 0.4425 0.59284 0.0
C2042 C 0.88045 0.4329 0.61452 0.0
C2043 C 0.8775 0.39588 0.64354 0.0
C2044 C 0.86445 0.36884 0.6508 0.0
C2045 C 0.86733 0.40609 0.62222 0.0
C2046 C 0.841 0.35211 0.63708 0.0
C2047 C 0.83064 0.36217 0.61592 0.0
H2048 H 0.4744 0.03866 0.43312 0.0
H2049 H 0.48379 0.12828 0.42596 0.0
H2050 H 0.52163 0.14097 0.45861 0.0
H2051 H 0.55343 0.12497 0.48713 0.0
H2052 H 0.54752 0.03448 0.4841 0.0
H2053 H 0.50615 0.02319 0.45782 0.0
C2054 C 0.4836 0.06089 0.43984 0.0
C2055 C 0.47557 0.08251 0.42873 0.0
C2056 C 0.50629 0.06761 0.45628 0.0
C2057 C 0.48917 0.11145 0.43555 0.0
C2058 C 0.51098 0.11858 0.45369 0.0
C2059 C 0.54319 0.10296 0.48013 0.0
C2060 C 0.55304 0.08052 0.48756 0.0
C2061 C 0.52012 0.09667 0.46366 0.0
C2062 C 0.54007 0.05201 0.47861 0.0
C2063 C 0.51636 0.0455 0.46376 0.0
H2064 H 0.79876 0.78975 0.12392 0.0
H2065 H 0.82746 0.71541 0.1282 0.0
H2066 H 0.83181 0.72212 0.17426 0.0
H2067 H 0.82626 0.74828 0.21445 0.0
H2068 H 0.79346 0.81979 0.20996 0.0
H2069 H 0.7921 0.81511 0.16405 0.0
C2070 C 0.80626 0.7752 0.13488 0.0
C2071 C 0.8131 0.75222 0.12207 0.0
C2072 C 0.80782 0.77855 0.16188 0.0
C2073 C 0.82217 0.73338 0.13711 0.0
C2074 C 0.82462 0.73717 0.16368 0.0
C2075 C 0.8188 0.76285 0.20348 0.0
C2076 C 0.80984 0.78435 0.21625 0.0
C2077 C 0.8173 0.75953 0.17648 0.0
C2078 C 0.80022 0.8028 0.20116 0.0
C2079 C 0.79951 0.80021 0.17463 0.0
H2080 H 0.1228 0.08104 0.80503 0.0
H2081 H 0.19106 0.06665 0.7729 0.0
H2082 H 0.16963 0.06516 0.7303 0.0
H2083 H 0.13313 0.0719 0.70266 0.0
H2084 H 0.06684 0.09141 0.73476 0.0
H2085 H 0.08559 0.08667 0.77708 0.0
C2086 C 0.13273 0.0773 0.78859 0.0
C2087 C 0.15829 0.07395 0.79173 0.0
C2088 C 0.12071 0.07756 0.76435 0.0
C2089 C 0.17138 0.06947 0.77062 0.0
C2090 C 0.15915 0.06859 0.7464 0.0
C2091 C 0.12275 0.07496 0.71895 0.0
C2092 C 0.09877 0.08218 0.71573 0.0
C2093 C 0.13408 0.07323 0.74309 0.0
C2094 C 0.08521 0.08561 0.73684 0.0
C2095 C 0.09604 0.08315 0.76099 0.0
H2096 H 0.80137 0.42823 0.4069 0.0
H2097 H 0.82473 0.37863 0.46414 0.0
H2098 H 0.82473 0.34096 0.4325 0.0
H2099 H 0.81827 0.32186 0.38909 0.0
H2100 H 0.79523 0.36969 0.33072 0.0
H2101 H 0.79442 0.40835 0.36234 0.0
C2102 C 0.80572 0.4088 0.41235 0.0
C2103 C 0.81219 0.40575 0.43776 0.0
C2104 C 0.80577 0.38706 0.39402 0.0
C2105 C 0.81859 0.38093 0.44475 0.0
C2106 C 0.81902 0.35953 0.4267 0.0
C2107 C 0.81268 0.34062 0.38352 0.0
C2108 C 0.80576 0.34298 0.35838 0.0
C2109 C 0.81256 0.36236 0.40143 0.0
C2110 C 0.8 0.36771 0.35051 0.0
C2111 C 0.79964 0.38965 0.36841 0.0
H2112 H 0.45728 0.05838 0.26759 0.0
H2113 H 0.53642 0.08316 0.30514 0.0
H2114 H 0.55467 0.07955 0.26441 0.0
H2115 H 0.54696 0.06292 0.21895 0.0
H2116 H 0.46704 0.03659 0.18288 0.0
H2117 H 0.45005 0.04734 0.22239 0.0
C2118 C 0.47857 0.06333 0.26682 0.0
C2119 C 0.49554 0.07041 0.28909 0.0
C2120 C 0.48862 0.06066 0.24372 0.0
C2121 C 0.52307 0.07748 0.28803 0.0
C2122 C 0.53342 0.07521 0.26485 0.0
C2123 C 0.52589 0.05989 0.21985 0.0
C2124 C 0.50814 0.04876 0.19834 0.0
C2125 C 0.51624 0.06577 0.24271 0.0
C2126 C 0.48096 0.04525 0.19931 0.0
C2127 C 0.47125 0.05125 0.22185 0.0
H2128 H 0.82512 0.72312 0.94615 0.0
H2129 H 0.80376 0.79492 0.98071 0.0
H2130 H 0.80903 0.81815 0.94084 0.0
H2131 H 0.81801 0.81705 0.89467 0.0
H2132 H 0.83705 0.74307 0.8614 0.0
H2133 H 0.83454 0.72223 0.9019 0.0
C2134 C 0.82164 0.74398 0.94535 0.0
C2135 C 0.81396 0.75696 0.96716 0.0
C2136 C 0.82434 0.757 0.92215 0.0
C2137 C 0.80986 0.78416 0.96487 0.0
C2138 C 0.81277 0.79744 0.94179 0.0
C2139 C 0.82194 0.79651 0.89632 0.0
C2140 C 0.82798 0.78191 0.87443 0.0
C2141 C 0.81981 0.784 0.92009 0.0
C2142 C 0.83242 0.75503 0.87738 0.0
C2143 C 0.83094 0.74299 0.90074 0.0
H2144 H 0.87153 0.12881 0.09162 0.0
H2145 H 0.83732 0.12003 0.01463 0.0
H2146 H 0.86719 0.09277 1.00153 0.0
H2147 H 0.90003 0.06794 1.01275 0.0
H2148 H 0.93478 0.07632 0.08931 0.0
H2149 H 0.90726 0.10687 0.10228 0.0
C2150 C 0.87125 0.12148 0.07195 0.0
C2151 C 0.85255 0.12599 0.05403 0.0
C2152 C 0.88781 0.1051 0.06476 0.0
C2153 C 0.85178 0.11642 0.02859 0.0
C2154 C 0.86857 0.10071 0.02116 0.0
C2155 C 0.90115 0.07624 0.03228 0.0
C2156 C 0.91833 0.06951 0.05036 0.0
C2157 C 0.88596 0.09411 0.03924 0.0
C2158 C 0.92081 0.0809 0.07547 0.0
C2159 C 0.90543 0.09851 0.08273 0.0
H2160 H 0.42611 0.40255 0.03207 0.0
H2161 H 0.39359 0.45213 0.08369 0.0
H2162 H 0.43402 0.49209 0.08609 0.0
H2163 H 0.47692 0.51504 0.07024 0.0
H2164 H 0.50786 0.46722 0.01545 0.0
H2165 H 0.47017 0.4251 0.0174 0.0
C2166 C 0.42821 0.4219 0.04421 0.0
C2167 C 0.40678 0.4245 0.05747 0.0
C2168 C 0.45118 0.44551 0.04456 0.0
C2169 C 0.40974 0.4497 0.07316 0.0
C2170 C 0.43283 0.47266 0.07443 0.0
C2171 C 0.47536 0.4955 0.05857 0.0
C2172 C 0.4951 0.49477 0.04228 0.0
C2173 C 0.45331 0.47126 0.0595 0.0
C2174 C 0.49275 0.46891 0.02766 0.0
C2175 C 0.47132 0.44453 0.02904 0.0
H2176 H 0.41046 0.59139 0.80617 0.0
H2177 H 0.40068 0.60155 0.72677 0.0
H2178 H 0.37604 0.63658 0.73531 0.0
H2179 H 0.35187 0.65777 0.76482 0.0
H2180 H 0.36044 0.64588 0.8442 0.0
H2181 H 0.39046 0.61675 0.83615 0.0
C2182 C 0.40357 0.60206 0.79091 0.0
C2183 C 0.40708 0.59431 0.76601 0.0
C2184 C 0.38852 0.62074 0.79588 0.0
C2185 C 0.39829 0.60779 0.7461 0.0
C2186 C 0.38388 0.62728 0.75096 0.0
C2187 C 0.36059 0.6491 0.7804 0.0
C2188 C 0.3538 0.65352 0.80503 0.0
C2189 C 0.37793 0.63282 0.77567 0.0
C2190 C 0.36495 0.64205 0.82504 0.0
C2191 C 0.38233 0.62582 0.82051 0.0
H2192 H 0.22882 0.66914 0.59666 0.0
H2193 H 0.25089 0.59284 0.61239 0.0
H2194 H 0.20409 0.56489 0.60929 0.0
H2195 H 0.15855 0.56089 0.59177 0.0
H2196 H 0.13823 0.63762 0.57278 0.0
H2197 H 0.18258 0.66689 0.58777 0.0
C2198 C 0.22318 0.64655 0.60003 0.0
C2199 C 0.24254 0.63237 0.60334 0.0
C2200 C 0.19666 0.63073 0.59718 0.0
C2201 C 0.23571 0.6035 0.60859 0.0
C2202 C 0.20912 0.58769 0.60698 0.0
C2203 C 0.16377 0.58406 0.59151 0.0
C2204 C 0.14586 0.59707 0.58015 0.0
C2205 C 0.18957 0.60074 0.59949 0.0
C2206 C 0.15231 0.62711 0.58044 0.0
C2207 C 0.17753 0.6439 0.58918 0.0
H2208 H 0.7016 1.00256 0.80829 0.0
H2209 H 0.7169 0.98997 0.73086 0.0
H2210 H 0.74013 0.95471 0.7422 0.0
H2211 H 0.76373 0.93691 0.775 0.0
H2212 H 0.75411 0.95463 0.85342 0.0
H2213 H 0.72157 0.98011 0.84111 0.0
C2214 C 0.70909 0.99101 0.79386 0.0
C2215 C 0.70761 0.99811 0.76887 0.0
C2216 C 0.72428 0.97309 0.80094 0.0
C2217 C 0.71763 0.98405 0.75009 0.0
C2218 C 0.73126 0.96449 0.75669 0.0
C2219 C 0.75395 0.94564 0.78941 0.0
C2220 C 0.76098 0.94398 0.81503 0.0
C2221 C 0.73595 0.9603 0.78221 0.0
C2222 C 0.74893 0.956 0.83361 0.0
C2223 C 0.73029 0.97022 0.82656 0.0
H2224 H 0.79079 0.94738 0.57441 0.0
H2225 H 0.74714 0.87811 0.52041 0.0
H2226 H 0.71063 0.9003 0.51604 0.0
H2227 H 0.69493 0.94391 0.52262 0.0
H2228 H 0.743 0.01558 0.57232 0.0
H2229 H 0.77441 0.98865 0.58288 0.0
C2230 C 0.77299 0.93687 0.56212 0.0
C2231 C 0.77147 0.91123 0.54784 0.0
C2232 C 0.75329 0.95078 0.55841 0.0
C2233 C 0.74842 0.89764 0.53195 0.0
C2234 C 0.72783 0.91063 0.52913 0.0
C2235 C 0.71211 0.95327 0.53602 0.0
C2236 C 0.71689 0.98166 0.54664 0.0
C2237 C 0.7306 0.93787 0.54144 0.0
C2238 C 0.73918 0.99383 0.56386 0.0
C2239 C 0.75704 0.97842 0.56995 0.0
H2240 H 0.37445 0.45399 0.72024 0.0
H2241 H 0.448 0.44336 0.75271 0.0
H2242 H 0.42509 0.39492 0.76264 0.0
H2243 H 0.38353 0.36398 0.77302 0.0
H2244 H 0.30921 0.37308 0.74113 0.0
H2245 H 0.3331 0.41422 0.71954 0.0
C2246 C 0.38537 0.44059 0.72888 0.0
C2247 C 0.41227 0.45211 0.73717 0.0
C2248 C 0.372 0.41314 0.73486 0.0
C2249 C 0.42697 0.43475 0.74709 0.0
C2250 C 0.41392 0.40724 0.75277 0.0
C2251 C 0.37252 0.37423 0.76065 0.0
C2252 C 0.34487 0.36684 0.75972 0.0
C2253 C 0.38626 0.39739 0.74854 0.0
C2254 C 0.33067 0.37949 0.74295 0.0
C2255 C 0.34429 0.40281 0.73054 0.0
H2256 H 0.20159 0.65876 0.25466 0.0
H2257 H 0.25895 0.6119 0.24675 0.0
H2258 H 0.2943 0.65681 0.2458 0.0
H2259 H 0.30894 0.70938 0.25792 0.0
H2260 H 0.24956 0.75504 0.25919 0.0
H2261 H 0.2145 0.71032 0.25067 0.0
C2262 C 0.2218 0.65845 0.25247 0.0
C2263 C 0.22878 0.633 0.25392 0.0
C2264 C 0.2414 0.68392 0.25068 0.0
C2265 C 0.25422 0.63211 0.24871 0.0
C2266 C 0.27417 0.65756 0.24752 0.0
C2267 C 0.28838 0.70952 0.25542 0.0
C2268 C 0.28151 0.73482 0.26084 0.0
C2269 C 0.2682 0.68374 0.2504 0.0
C2270 C 0.25502 0.73525 0.25652 0.0
C2271 C 0.23496 0.70981 0.25162 0.0
H2272 H 0.52343 0.71382 0.51575 0.0
H2273 H 0.5322 0.6905 0.43834 0.0
H2274 H 0.54461 0.64804 0.45093 0.0
H2275 H 0.55271 0.61659 0.4842 0.0
H2276 H 0.54361 0.64 0.56142 0.0
H2277 H 0.53121 0.68247 0.54877 0.0
C2278 C 0.52791 0.6994 0.50156 0.0
C2279 C 0.52656 0.70555 0.47595 0.0
C2280 C 0.5349 0.67466 0.50899 0.0
C2281 C 0.53257 0.68637 0.45805 0.0
C2282 C 0.53982 0.66201 0.46531 0.0
C2283 C 0.54809 0.63108 0.49824 0.0
C2284 C 0.54934 0.62511 0.52388 0.0
C2285 C 0.541 0.65577 0.49073 0.0
C2286 C 0.54316 0.64415 0.54171 0.0
C2287 C 0.53598 0.66847 0.53441 0.0
H2288 H 0.69167 0.34724 0.7148 0.0
H2289 H 0.7201 0.32814 0.64399 0.0
H2290 H 0.76087 0.3236 0.66646 0.0
H2291 H 0.78704 0.32103 0.70715 0.0
H2292 H 0.75568 0.33789 0.7771 0.0
H2293 H 0.71792 0.34722 0.7542 0.0
C2294 C 0.70692 0.34258 0.70412 0.0
C2295 C 0.70268 0.33825 0.67761 0.0
C2296 C 0.72994 0.33926 0.71719 0.0
C2297 C 0.72277 0.33189 0.66435 0.0
C2298 C 0.74609 0.32907 0.67726 0.0
C2299 C 0.77217 0.32727 0.71729 0.0
C2300 C 0.77436 0.32871 0.74394 0.0
C2301 C 0.74975 0.33216 0.7038 0.0
C2302 C 0.7546 0.33644 0.75668 0.0
C2303 C 0.73287 0.34182 0.74358 0.0
H2304 H 0.05398 0.39663 0.95659 0.0
H2305 H 1.01066 0.35115 0.01412 0.0
H2306 H 1.01643 0.39707 0.03914 0.0
H2307 H 0.03279 0.45099 0.04368 0.0
H2308 H 0.07692 0.49431 0.98557 0.0
H2309 H 0.07122 0.44847 0.9615 0.0
C2310 C 0.04577 0.39655 0.97465 0.0
C2311 C 0.03171 0.37031 0.98331 0.0
C2312 C 0.04898 0.42284 0.98866 0.0
C2313 C 1.02166 0.3709 1.00697 0.0
C2314 C 0.02477 0.39722 0.02117 0.0
C2315 C 0.04092 0.45025 0.02566 0.0
C2316 C 0.0551 0.47607 0.01628 0.0
C2317 C 0.0381 0.42345 1.01203 0.0
C2318 C 0.06596 0.4748 0.99315 0.0
C2319 C 0.06276 0.44858 0.9794 0.0
H2320 H 0.0354 0.77105 0.18052 0.0
H2321 H 0.05566 0.86267 0.17729 0.0
H2322 H 1.02126 0.8655 0.20516 0.0
H2323 H 0.98537 0.84157 0.23058 0.0
H2324 H 0.96651 0.74997 0.23475 0.0
H2325 H 1.00032 0.74734 0.20651 0.0
C2326 C 0.03222 0.79157 0.18604 0.0
C2327 C 0.04785 0.81663 0.17707 0.0
C2328 C 1.01267 0.79297 0.20221 0.0
C2329 C 0.04382 0.84319 0.18424 0.0
C2330 C 0.02415 0.84476 0.20005 0.0
C2331 C 0.98862 0.82106 0.22516 0.0
C2332 C 0.97346 0.796 0.23473 0.0
C2333 C 1.00841 0.81976 0.20915 0.0
C2334 C 0.97806 0.76959 0.22779 0.0
C2335 C 0.99734 0.76805 0.2116 0.0
H2336 H 0.54895 0.37261 0.11217 0.0
H2337 H 0.58965 0.41239 0.1837 0.0
H2338 H 0.59633 0.45997 0.16733 0.0
H2339 H 0.59067 0.49255 0.13169 0.0
H2340 H 0.55268 0.4501 0.05978 0.0
H2341 H 0.54548 0.40372 0.07699 0.0
C2342 C 0.55949 0.39144 0.12453 0.0
C2343 C 0.56857 0.38718 0.14989 0.0
C2344 C 0.56393 0.41956 0.11455 0.0
C2345 C 0.58222 0.41331 0.16441 0.0
C2346 C 0.58604 0.44117 0.15483 0.0
C2347 C 0.58077 0.47334 0.11953 0.0
C2348 C 0.57233 0.47661 0.09354 0.0
C2349 C 0.57701 0.44504 0.12976 0.0
C2350 C 0.55981 0.45 0.07931 0.0
C2351 C 0.55551 0.42273 0.08937 0.0
H2352 H 0.99022 0.27078 0.34788 0.0
H2353 H 0.99949 0.33377 0.41061 0.0
H2354 H 0.95715 0.34175 0.39615 0.0
H2355 H 0.91509 0.33113 0.36562 0.0
H2356 H 0.90397 0.26539 0.30479 0.0
H2357 H 0.94728 0.25884 0.31819 0.0
C2358 C 0.98344 0.28662 0.35847 0.0
C2359 C 1.00027 0.30236 0.38054 0.0
C2360 C 0.95749 0.29071 0.35017 0.0
C2361 C 0.9888 0.3216 0.39355 0.0
C2362 C 0.96388 0.32615 0.38515 0.0
C2363 C 0.92183 0.31524 0.35504 0.0
C2364 C 0.90467 0.299 0.33341 0.0
C2365 C 0.94763 0.31094 0.36344 0.0
C2366 C 0.91539 0.27864 0.32109 0.0
C2367 C 0.94077 0.27479 0.32895 0.0
H2368 H 0.06463 0.7341 0.61612 0.0
H2369 H 0.05504 0.69885 0.68797 0.0
H2370 H 0.05605 0.65205 0.66864 0.0
H2371 H 0.06037 0.61944 0.63062 0.0
H2372 H 0.07114 0.65629 0.55934 0.0
H2373 H 0.06944 0.70226 0.57883 0.0
C2374 C 0.06256 0.71629 0.62776 0.0
C2375 C 0.05945 0.72121 0.65408 0.0
C2376 C 0.06365 0.68875 0.61633 0.0
C2377 C 0.05735 0.6969 0.66801 0.0
C2378 C 0.05799 0.66964 0.65675 0.0
C2379 C 0.06233 0.63736 0.61912 0.0
C2380 C 0.06573 0.63292 0.5927 0.0
C2381 C 0.06127 0.66498 0.6308 0.0
C2382 C 0.06821 0.65759 0.5792 0.0
C2383 C 0.06726 0.6845 0.59054 0.0
H2384 H 0.67449 0.84965 0.88369 0.0
H2385 H 0.62561 0.76561 0.85511 0.0
H2386 H 0.66255 0.75768 0.83305 0.0
H2387 H 0.71108 0.77346 0.82037 0.0
H2388 H 0.75995 0.85723 0.85018 0.0
H2389 H 0.72306 0.86481 0.87212 0.0
C2390 C 0.67148 0.82913 0.87311 0.0
C2391 C 0.64524 0.80807 0.87283 0.0
C2392 C 0.69416 0.82419 0.8599 0.0
C2393 C 0.64419 0.78248 0.85757 0.0
C2394 C 0.66602 0.77787 0.84433 0.0
C2395 C 0.71423 0.79367 0.83152 0.0
C2396 C 0.74059 0.81473 0.83223 0.0
C2397 C 0.69159 0.79834 0.84508 0.0
C2398 C 0.74155 0.8401 0.84778 0.0
C2399 C 0.71968 0.84462 0.86087 0.0
H2400 H 0.51009 0.56507 0.69748 0.0
H2401 H 0.43396 0.55021 0.65497 0.0
H2402 H 0.45599 0.55873 0.61604 0.0
H2403 H 0.49652 0.56565 0.59436 0.0
H2404 H 0.57161 0.5767 0.63765 0.0
H2405 H 0.5501 0.57448 0.67663 0.0
C2406 C 0.49821 0.56424 0.67982 0.0
C2407 C 0.47052 0.55721 0.67891 0.0
C2408 C 0.5108 0.56835 0.65789 0.0
C2409 C 0.45537 0.55565 0.65591 0.0
C2410 C 0.46792 0.56046 0.63379 0.0
C2411 C 0.50813 0.5682 0.61243 0.0
C2412 C 0.53544 0.57154 0.61344 0.0
C2413 C 0.49557 0.5662 0.63459 0.0
C2414 C 0.55058 0.57474 0.63668 0.0
C2415 C 0.5383 0.57318 0.65886 0.0
H2416 H 0.7736 0.16055 0.98676 0.0
H2417 H 0.80546 0.23866 0.03574 0.0
H2418 H 0.79981 0.26702 1.00061 0.0
H2419 H 0.786 0.26925 0.95598 0.0
H2420 H 0.75491 0.19092 0.90749 0.0
H2421 H 0.75962 0.16262 0.94293 0.0
C2422 C 0.77935 0.18379 0.98986 0.0
C2423 C 0.78992 0.19753 0.01376 0.0
C2424 C 0.77587 0.19975 0.96985 0.0
C2425 C 0.79744 0.22763 0.0174 0.0
C2426 C 0.79405 0.24381 0.99742 0.0
C2427 C 0.77986 0.24597 0.95342 0.0
C2428 C 0.76989 0.23194 0.92954 0.0
C2429 C 0.78316 0.23004 0.97363 0.0
C2430 C 0.76249 0.20189 0.92595 0.0
C2431 C 0.7653 0.18584 0.94607 0.0
H2432 H 0.11779 0.55917 0.20836 0.0
H2433 H 0.17032 0.51375 0.17923 0.0
H2434 H 0.14418 0.50473 0.13792 0.0
H2435 H 0.10708 0.51074 0.11092 0.0
H2436 H 0.05736 0.5602 0.13986 0.0
H2437 H 0.08161 0.56608 0.18138 0.0
C2438 C 0.12321 0.54682 0.19305 0.0
C2439 C 0.14522 0.53631 0.19659 0.0
C2440 C 0.10855 0.54227 0.16981 0.0
C2441 C 0.15305 0.52155 0.17664 0.0
C2442 C 0.13814 0.51638 0.15327 0.0
C2443 C 0.10121 0.52235 0.12642 0.0
C2444 C 0.08029 0.53469 0.12257 0.0
C2445 C 0.11582 0.52659 0.14979 0.0
C2446 C 0.07302 0.54995 0.14263 0.0
C2447 C 0.08705 0.55363 0.16621 0.0
H2448 H 0.80449 0.87402 0.45721 0.0
H2449 H 0.85292 0.82171 0.4835 0.0
H2450 H 0.85471 0.804 0.43949 0.0
H2451 H 0.84461 0.80588 0.39218 0.0
H2452 H 0.79606 0.85957 0.36838 0.0
H2453 H 0.79273 0.87403 0.412 0.0
C2454 C 0.81511 0.85826 0.45357 0.0
C2455 C 0.82824 0.84914 0.47433 0.0
C2456 C 0.81656 0.84872 0.42809 0.0
C2457 C 0.842 0.82886 0.4685 0.0
C2458 C 0.84338 0.81904 0.44305 0.0
C2459 C 0.83341 0.82087 0.39647 0.0
C2460 C 0.82088 0.83168 0.37612 0.0
C2461 C 0.83118 0.82925 0.42244 0.0
C2462 C 0.80615 0.85073 0.38285 0.0
C2463 C 0.80411 0.85911 0.40811 0.0
H2464 H 0.44569 0.50599 0.83881 0.0
H2465 H 0.50807 0.55408 0.79722 0.0
H2466 H 0.54106 0.55347 0.83171 0.0
H2467 H 0.55192 0.53847 0.87367 0.0
H2468 H 0.48887 0.48899 0.91358 0.0
H2469 H 0.45624 0.49029 0.87925 0.0
C2470 C 0.46646 0.51646 0.83722 0.0
C2471 C 0.47443 0.52998 0.81552 0.0
C2472 C 0.48518 0.51533 0.8566 0.0
C2473 C 0.50147 0.54344 0.8138 0.0
C2474 C 0.52032 0.54299 0.83341 0.0
C2475 C 0.53107 0.52766 0.8745 0.0
C2476 C 0.5226 0.51361 0.89583 0.0
C2477 C 0.5124 0.52869 0.85479 0.0
C2478 C 0.49561 0.49993 0.89716 0.0
C2479 C 0.47701 0.50078 0.87769 0.0
H2480 H 0.84961 0.18958 0.17397 0.0
H2481 H 0.826 0.2513 0.12986 0.0
H2482 H 0.82721 0.28196 0.16764 0.0
H2483 H 0.83271 0.29046 0.21302 0.0
H2484 H 0.85539 0.2297 0.25866 0.0
H2485 H 0.85794 0.19995 0.22058 0.0
C2486 C 0.84543 0.21007 0.17278 0.0
C2487 C 0.83845 0.21857 0.14925 0.0
C2488 C 0.84622 0.22786 0.19475 0.0
C2489 C 0.8324 0.24482 0.14776 0.0
C2490 C 0.83283 0.2623 0.16934 0.0
C2491 C 0.83872 0.27098 0.21455 0.0
C2492 C 0.8439 0.26206 0.23823 0.0
C2493 C 0.83956 0.25398 0.19286 0.0
C2494 C 0.85114 0.23661 0.24031 0.0
C2495 C 0.85256 0.21968 0.21864 0.0
H2496 H 0.12168 0.553 0.30962 0.0
H2497 H 0.19037 0.58271 0.36409 0.0
H2498 H 0.16185 0.57805 0.39825 0.0
H2499 H 0.11795 0.56769 0.41251 0.0
H2500 H 0.04859 0.54051 0.35928 0.0
H2501 H 0.07691 0.54142 0.32438 0.0
C2502 C 0.13034 0.55853 0.32897 0.0
C2503 C 0.15804 0.56834 0.33437 0.0
C2504 C 0.11382 0.55592 0.34856 0.0
C2505 C 0.1691 0.57508 0.35949 0.0
C2506 C 0.15286 0.57241 0.37902 0.0
C2507 C 0.10911 0.56149 0.39324 0.0
C2508 C 0.08154 0.55368 0.38811 0.0
C2509 C 0.12532 0.56302 0.37372 0.0
C2510 C 0.06992 0.54628 0.36331 0.0
C2511 C 0.08606 0.54701 0.34355 0.0
H2512 H 0.79837 0.82087 0.62901 0.0
H2513 H 0.86135 0.89987 0.64391 0.0
H2514 H 0.86055 0.89566 0.68913 0.0
H2515 H 0.8424 0.86983 0.72581 0.0
H2516 H 0.7779 0.79212 0.71165 0.0
H2517 H 0.77883 0.79581 0.6662 0.0
C2518 C 0.81202 0.83716 0.64206 0.0
C2519 C 0.83011 0.86071 0.63222 0.0
C2520 C 0.81111 0.835 0.66886 0.0
C2521 C 0.84717 0.88148 0.65019 0.0
C2522 C 0.84674 0.87912 0.67641 0.0
C2523 C 0.82832 0.85373 0.71291 0.0
C2524 C 0.80998 0.83068 0.72301 0.0
C2525 C 0.8288 0.85606 0.6862 0.0
C2526 C 0.79222 0.81026 0.70521 0.0
C2527 C 0.79281 0.81229 0.67885 0.0
H2528 H 0.77847 0.47614 0.54591 0.0
H2529 H 0.78746 0.52512 0.48054 0.0
H2530 H 0.76005 0.55337 0.49712 0.0
H2531 H 0.73353 0.56411 0.52993 0.0
H2532 H 0.7229 0.51465 0.59446 0.0
H2533 H 0.75174 0.48683 0.57876 0.0
C2534 C 0.77426 0.4928 0.53514 0.0
C2535 C 0.785 0.4985 0.51202 0.0
C2536 C 0.7588 0.50923 0.5449 0.0
C2537 C 0.77939 0.52022 0.49836 0.0
C2538 C 0.7639 0.53656 0.50788 0.0
C2539 C 0.73819 0.54768 0.54075 0.0
C2540 C 0.72708 0.54169 0.56347 0.0
C2541 C 0.75379 0.53141 0.5312 0.0
C2542 C 0.73215 0.51991 0.57723 0.0
C2543 C 0.74821 0.50387 0.56809 0.0
H2544 H 0.20683 0.1876 0.51177 0.0
H2545 H 0.25785 0.16354 0.56772 0.0
H2546 H 0.22109 0.12402 0.57775 0.0
H2547 H 0.17393 0.09609 0.57099 0.0
H2548 H 0.12246 0.12074 0.51593 0.0
H2549 H 0.15954 0.15927 0.50473 0.0
C2550 C 0.20971 0.17374 0.5262 0.0
C2551 C 0.23501 0.17819 0.53875 0.0
C2552 C 0.18839 0.15073 0.5318 0.0
C2553 C 0.23855 0.16024 0.55758 0.0
C2554 C 0.21755 0.1376 0.56333 0.0
C2555 C 0.17104 0.10964 0.55629 0.0
C2556 C 0.14563 0.10543 0.54414 0.0
C2557 C 0.19238 0.13242 0.55045 0.0
C2558 C 0.14196 0.12347 0.52543 0.0
C2559 C 0.16311 0.14569 0.51914 0.0
H2560 H 0.28164 0.0472 0.86177 0.0
H2561 H 0.20265 0.99875 0.83123 0.0
H2562 H 0.22066 0.96471 0.80811 0.0
H2563 H 0.2589 0.95072 0.79468 0.0
H2564 H 0.3378 0.99854 0.82631 0.0
H2565 H 0.31967 0.03187 0.8499 0.0
C2566 C 0.26831 0.02906 0.85025 0.0
C2567 C 0.2409 0.02558 0.84803 0.0
C2568 C 0.2788 1.01003 0.83664 0.0
C2569 C 0.22388 1.00199 0.83301 0.0
C2570 C 0.23415 0.98262 0.81973 0.0
C2571 C 0.27219 0.9682 0.80694 0.0
C2572 C 0.29973 0.97213 0.80853 0.0
C2573 C 0.26162 0.98678 0.82106 0.0
C2574 C 0.31658 0.99531 0.82419 0.0
C2575 C 0.30622 1.01417 0.83801 0.0
H2576 H 0.39893 0.99325 0.03467 0.0
H2577 H 0.41627 0.93772 0.97638 0.0
H2578 H 0.46329 0.96607 0.98184 0.0
H2579 H 0.49808 1.00755 1.00255 0.0
H2580 H 0.47922 0.0624 0.06073 0.0
H2581 H 0.43288 0.03375 0.05515 0.0
C2582 C 0.41306 0.98746 0.02308 0.0
C2583 C 0.40467 0.96443 1.00463 0.0
C2584 C 0.43913 1.00389 0.02599 0.0
C2585 C 0.42278 0.95595 0.99035 0.0
C2586 C 0.44933 0.97216 0.99337 0.0
C2587 C 0.48364 1.01343 0.01362 0.0
C2588 C 0.49147 0.03683 0.03188 0.0
C2589 C 0.45748 0.99651 1.01079 0.0
C2590 C 0.47313 0.04431 0.04656 0.0
C2591 C 0.44694 0.02787 0.04359 0.0
H2592 H 0.91958 0.60155 0.80419 0.0
H2593 H 0.90233 0.62531 0.87896 0.0
H2594 H 0.87768 0.65663 0.86157 0.0
H2595 H 0.85849 0.67383 0.82514 0.0
H2596 H 0.87304 0.64829 0.75 0.0
H2597 H 0.90125 0.62014 0.76749 0.0
C2598 C 0.91086 0.6141 0.81666 0.0
C2599 C 0.91271 0.61156 0.84273 0.0
C2600 C 0.89594 0.63095 0.80645 0.0
C2601 C 0.90101 0.62723 0.85882 0.0
C2602 C 0.88689 0.64488 0.8489 0.0
C2603 C 0.86802 0.66218 0.81265 0.0
C2604 C 0.86401 0.66285 0.78649 0.0
C2605 C 0.88376 0.64628 0.82276 0.0
C2606 C 0.87594 0.64764 0.77023 0.0
C2607 C 0.89208 0.63186 0.78022 0.0
H2608 H 0.8502 0.66763 0.06967 0.0
H2609 H 0.89577 0.7291 0.0237 0.0
H2610 H 0.93359 0.70935 0.03078 0.0
H2611 H 0.95064 0.66978 0.04478 0.0
H2612 H 0.902 0.60539 0.08681 0.0
H2613 H 0.86859 0.6311 0.08679 0.0
C2614 C 0.86866 0.67701 0.06166 0.0
C2615 C 0.87042 0.69963 0.04621 0.0
C2616 C 0.88957 0.66467 0.06483 0.0
C2617 C 0.89425 0.71182 0.03587 0.0
C2618 C 0.91566 0.70029 0.03969 0.0
C2619 C 0.93281 0.66148 0.05407 0.0
C2620 C 0.92885 0.63545 0.06557 0.0
C2621 C 0.9131 0.67591 0.05325 0.0
C2622 C 0.90585 0.62542 0.07802 0.0
C2623 C 0.88654 0.64001 0.07784 0.0
H2624 H 0.24914 0.17424 0.89368 0.0
H2625 H 0.18606 0.14776 0.83407 0.0
H2626 H 0.21073 0.18315 0.80826 0.0
H2627 H 0.25329 0.2146 0.79949 0.0
H2628 H 0.31873 0.23807 0.85767 0.0
H2629 H 0.29081 0.20961 0.88659 0.0
C2630 C 0.2414 0.1755 0.8749 0.0
C2631 C 0.21703 0.15676 0.86533 0.0
C2632 C 0.25647 0.19451 0.85943 0.0
C2633 C 0.20532 0.16133 0.84191 0.0
C2634 C 0.21956 0.18124 0.82682 0.0
C2635 C 0.26162 0.21317 0.81839 0.0
C2636 C 0.28817 0.22774 0.82621 0.0
C2637 C 0.24577 0.19653 0.83481 0.0
C2638 C 0.29852 0.22628 0.85094 0.0
C2639 C 0.2826 0.21016 0.86756 0.0
H2640 H 0.41436 0.99165 0.32048 0.0
H2641 H 0.45605 0.96619 0.38323 0.0
H2642 H 0.42921 0.91587 0.37311 0.0
H2643 H 0.3912 0.88057 0.34801 0.0
H2644 H 0.35032 0.9082 0.28574 0.0
H2645 H 0.37919 0.95706 0.29453 0.0
C2646 C 0.41757 0.975 0.33191 0.0
C2647 C 0.43615 0.98217 0.35299 0.0
C2648 C 0.40199 0.94697 0.32631 0.0
C2649 C 0.44122 0.96074 0.36721 0.0
C2650 C 0.42586 0.93224 0.3615 0.0
C2651 C 0.38864 0.89751 0.33666 0.0
C2652 C 0.36872 0.89141 0.31658 0.0
C2653 C 0.40561 0.92536 0.34155 0.0
C2654 C 0.36562 0.91288 0.30137 0.0
C2655 C 0.38216 0.94058 0.30623 0.0
H2656 H 0.61646 0.39052 0.57471 0.0
H2657 H 0.60095 0.40264 0.65206 0.0
H2658 H 0.58944 0.44685 0.64333 0.0
H2659 H 0.5818 0.48144 0.61287 0.0
H2660 H 0.59683 0.46831 0.53543 0.0
H2661 H 0.61132 0.4262 0.54507 0.0
C2662 C 0.61121 0.40325 0.5898 0.0
C2663 C 0.61022 0.39351 0.6142 0.0
C2664 C 0.60444 0.42866 0.58453 0.0
C2665 C 0.60279 0.41003 0.63336 0.0
C2666 C 0.59587 0.4352 0.62825 0.0
C2667 C 0.5883 0.46935 0.59816 0.0
C2668 C 0.58778 0.47786 0.57329 0.0
C2669 C 0.59633 0.44466 0.60382 0.0
C2670 C 0.5964 0.46194 0.55453 0.0
C2671 C 0.60482 0.43787 0.56008 0.0
H2672 H 0.46034 0.76168 0.38291 0.0
H2673 H 0.42762 0.78843 0.44851 0.0
H2674 H 0.38833 0.79098 0.42206 0.0
H2675 H 0.36549 0.79089 0.37925 0.0
H2676 H 0.40038 0.76669 0.31387 0.0
H2677 H 0.43592 0.75747 0.34095 0.0
C2678 C 0.44458 0.76804 0.39142 0.0
C2679 C 0.44747 0.77594 0.41759 0.0
C2680 C 0.42223 0.7699 0.37596 0.0
C2681 C 0.42626 0.78286 0.4284 0.0
C2682 C 0.40379 0.78443 0.4132 0.0
C2683 C 0.38067 0.78319 0.37096 0.0
C2684 C 0.38014 0.77957 0.34437 0.0
C2685 C 0.40187 0.77887 0.3868 0.0
C2686 C 0.40018 0.76976 0.33413 0.0
C2687 C 0.42061 0.76448 0.34966 0.0
H2688 H 0.08268 0.72255 0.14967 0.0
H2689 H 0.13226 0.76222 0.0937 0.0
H2690 H 0.12907 0.71498 0.0728 0.0
H2691 H 0.11163 0.66197 0.07015 0.0
H2692 H 0.0581 0.62282 0.12354 0.0
H2693 H 0.06305 0.66987 0.14549 0.0
C2694 C 0.09274 0.72071 0.1329 0.0
C2695 C 0.10752 0.74571 0.12309 0.0
C2696 C 0.09014 0.69346 0.12054 0.0
C2697 C 0.12051 0.74319 0.10137 0.0
C2698 C 0.11876 0.71619 0.08948 0.0
C2699 C 0.10141 0.66378 0.08682 0.0
C2700 C 0.08502 0.63888 0.09556 0.0
C2701 C 0.10364 0.69111 0.09888 0.0
C2702 C 0.07115 0.64163 0.11666 0.0
C2703 C 0.07394 0.66854 0.12922 0.0
H2704 H 0.09308 0.34079 0.89946 0.0
H2705 H 0.09365 0.26771 0.94109 0.0
H2706 H 0.13451 0.26499 0.9231 0.0
H2707 H 0.16694 0.28016 0.89151 0.0
H2708 H 0.16341 0.35176 0.84876 0.0
H2709 H 0.1269 0.35824 0.87131 0.0
C2710 C 0.1022 0.32433 0.90484 0.0
C2711 C 0.09002 0.30412 0.92122 0.0
C2712 C 0.12507 0.32248 0.89399 0.0
C2713 C 0.10251 0.28344 0.92841 0.0
C2714 C 0.12575 0.28175 0.91796 0.0
C2715 C 0.15824 0.29725 0.88726 0.0
C2716 C 0.16796 0.31537 0.86835 0.0
C2717 C 0.13669 0.30058 0.90004 0.0
C2718 C 0.1567 0.33771 0.86338 0.0
C2719 C 0.13561 0.34133 0.87614 0.0
H2720 H 0.58968 0.69886 0.93908 0.0
H2721 H 0.52802 0.72597 0.97274 0.0
H2722 H 0.52174 0.68635 1.00009 0.0
H2723 H 0.53406 0.64277 0.01683 0.0
H2724 H 0.59581 0.61613 0.98254 0.0
H2725 H 0.6014 0.65519 0.95515 0.0
C2726 C 0.57454 0.69624 0.95209 0.0
C2727 C 0.55914 0.71672 0.9526 0.0
C2728 C 0.57104 0.67265 0.96876 0.0
C2729 C 0.54033 0.71164 0.97081 0.0
C2730 C 0.53671 0.68848 0.98693 0.0
C2731 C 0.5488 0.6451 1.00342 0.0
C2732 C 0.56431 0.62465 1.00278 0.0
C2733 C 0.552 0.66858 0.98653 0.0
C2734 C 0.58299 0.62992 0.9844 0.0
C2735 C 0.58637 0.65292 0.96827 0.0
H2736 H 0.13752 0.80579 0.75852 0.0
H2737 H 0.1625 0.83875 0.68855 0.0
H2738 H 0.2079 0.83917 0.70161 0.0
H2739 H 0.24318 0.82921 0.73232 0.0
H2740 H 0.21864 0.7941 0.8016 0.0
H2741 H 0.17341 0.79613 0.78983 0.0
C2742 C 0.15272 0.8138 0.74607 0.0
C2743 C 0.14464 0.82315 0.722 0.0
C2744 C 0.18032 0.81343 0.75376 0.0
C2745 C 0.16633 0.83201 0.70706 0.0
C2746 C 0.19308 0.83208 0.71464 0.0
C2747 C 0.22825 0.82189 0.74519 0.0
C2748 C 0.23638 0.81128 0.76852 0.0
C2749 C 0.20081 0.82265 0.73788 0.0
C2750 C 0.21484 0.80219 0.78369 0.0
C2751 C 0.18818 0.80342 0.7768 0.0
H2752 H 0.11623 0.40027 0.46442 0.0
H2753 H 0.03619 0.37809 0.4295 0.0
H2754 H 0.02847 0.41887 0.45346 0.0
H2755 H 0.04364 0.46256 0.48506 0.0
H2756 H 0.12288 0.48423 0.52167 0.0
H2757 H 0.13086 0.44315 0.49773 0.0
C2758 C 0.09696 0.40403 0.46199 0.0
C2759 C 0.07706 0.38515 0.44388 0.0
C2760 C 0.09219 0.4282 0.47677 0.0
C2761 C 0.05243 0.39165 0.44212 0.0
C2762 C 0.04781 0.41531 0.45628 0.0
C2763 C 0.06276 0.4585 0.48799 0.0
C2764 C 0.08261 0.47773 0.5058 0.0
C2765 C 0.06744 0.43411 0.4737 0.0
C2766 C 0.10701 0.47086 0.5085 0.0
C2767 C 0.11165 0.44692 0.49455 0.0
H2768 H 0.45394 0.28707 0.19553 0.0
H2769 H 0.51408 0.32707 0.25584 0.0
H2770 H 0.47932 0.33174 0.28281 0.0
H2771 H 0.42996 0.3253 0.29074 0.0
H2772 H 0.37058 0.28169 0.23076 0.0
H2773 H 0.40544 0.27823 0.20404 0.0
C2774 C 0.45998 0.29686 0.21459 0.0
C2775 C 0.48839 0.30673 0.22249 0.0
C2776 C 0.43901 0.29908 0.23093 0.0
C2777 C 0.49365 0.31898 0.24796 0.0
C2778 C 0.47316 0.32177 0.26381 0.0
C2779 C 0.42419 0.31484 0.27187 0.0
C2780 C 0.39577 0.30384 0.26383 0.0
C2781 C 0.44542 0.31205 0.25581 0.0
C2782 C 0.39093 0.29047 0.23875 0.0
C2783 C 0.41145 0.28848 0.22296 0.0
H2784 H 0.68223 0.5885 0.45127 0.0
H2785 H 0.6483 0.50965 0.40436 0.0
H2786 H 0.61082 0.49712 0.43041 0.0
H2787 H 0.58821 0.51016 0.46653 0.0
H2788 H 0.61885 0.59428 0.50601 0.0
H2789 H 0.65671 0.60499 0.48107 0.0
C2790 C 0.66661 0.5688 0.4465 0.0
C2791 C 0.66775 0.5499 0.42634 0.0
C2792 C 0.64434 0.56346 0.45951 0.0
C2793 C 0.64761 0.52411 0.42041 0.0
C2794 C 0.62615 0.51727 0.43487 0.0
C2795 C 0.60286 0.53103 0.46889 0.0
C2796 C 0.60173 0.55137 0.48798 0.0
C2797 C 0.62417 0.53711 0.45424 0.0
C2798 C 0.62025 0.57843 0.49143 0.0
C2799 C 0.64181 0.58438 0.47746 0.0
H2800 H 0.36074 0.95156 0.10054 0.0
H2801 H 0.32747 0.86695 0.0622 0.0
H2802 H 0.34412 0.84565 0.09767 0.0
H2803 H 0.36757 0.8509 0.13946 0.0
H2804 H 0.39835 0.93462 0.17965 0.0
H2805 H 0.38357 0.95674 0.14332 0.0
C2806 C 0.3568 0.92843 0.10021 0.0
C2807 C 0.34261 0.91076 0.07906 0.0
C2808 C 0.36635 0.91633 0.1207 0.0
C2809 C 0.33779 0.88088 0.0786 0.0
C2810 C 0.3476 0.86873 0.09868 0.0
C2811 C 0.37152 0.87405 0.14001 0.0
C2812 C 0.38443 0.89128 0.16176 0.0
C2813 C 0.36199 0.88625 0.11971 0.0
C2814 C 0.38877 0.92113 0.16277 0.0
C2815 C 0.38012 0.93366 0.14218 0.0
H2816 H 0.96946 0.55094 0.94569 0.0
H2817 H 1.01194 0.62059 0.90533 0.0
H2818 H 0.05093 0.62879 0.93619 0.0
H2819 H 0.07277 0.61304 0.9739 0.0
H2820 H 0.03353 0.53136 1.00004 0.0
H2821 H 0.99383 0.52822 0.97318 0.0
C2822 C 0.98729 0.5674 0.94303 0.0
C2823 C 0.98799 0.58475 0.92321 0.0
C2824 C 1.01044 0.56867 0.95754 0.0
C2825 C 1.01102 0.60712 0.92085 0.0
C2826 C 0.03338 0.61133 0.938 0.0
C2827 C 0.05586 0.5941 0.97279 0.0
C2828 C 0.05549 0.57275 0.98928 0.0
C2829 C 0.03351 0.59155 0.95601 0.0
C2830 C 0.03394 0.54807 0.98766 0.0
C2831 C 1.01107 0.54652 0.97267 0.0
H2832 H 0.33601 0.29118 0.62611 0.0
H2833 H 0.2709 0.21364 0.61935 0.0
H2834 H 0.26639 0.21908 0.66424 0.0
H2835 H 0.28116 0.24476 0.70681 0.0
H2836 H 0.34849 0.31987 0.71515 0.0
H2837 H 0.35151 0.31667 0.66948 0.0
C2838 C 0.32069 0.2756 0.63436 0.0
C2839 C 0.30375 0.25199 0.61862 0.0
C2840 C 0.3185 0.27837 0.66106 0.0
C2841 C 0.28436 0.23204 0.6304 0.0
C2842 C 0.28167 0.23511 0.65637 0.0
C2843 C 0.29642 0.26053 0.69866 0.0
C2844 C 0.3145 0.28263 0.71485 0.0
C2845 C 0.29866 0.25802 0.67209 0.0
C2846 C 0.3343 0.30252 0.70352 0.0
C2847 C 0.33605 0.30071 0.67718 0.0
H2848 H 0.63368 0.58092 0.30289 0.0
H2849 H 0.69424 0.55203 0.26868 0.0
H2850 H 0.67266 0.55352 0.22657 0.0
H2851 H 0.63675 0.56351 0.20001 0.0
H2852 H 0.57955 0.59816 0.23491 0.0
H2853 H 0.59938 0.59337 0.27646 0.0
C2854 C 0.64198 0.57474 0.28615 0.0
C2855 C 0.66515 0.56596 0.28859 0.0
C2856 C 0.63005 0.57662 0.2623 0.0
C2857 C 0.67629 0.55871 0.267 0.0
C2858 C 0.66396 0.55955 0.24306 0.0
C2859 C 0.62874 0.57035 0.21665 0.0
C2860 C 0.60652 0.58107 0.2142 0.0
C2861 C 0.64089 0.56862 0.24053 0.0
C2862 C 0.5962 0.58924 0.2361 0.0
C2863 C 0.6077 0.58679 0.25991 0.0
H2864 H 0.32363 0.94178 0.91292 0.0
H2865 H 0.28381 0.87716 0.95985 0.0
H2866 H 0.2773 0.84019 0.92493 0.0
H2867 H 0.28785 0.82573 0.88239 0.0
H2868 H 0.33157 0.89131 0.83835 0.0
H2869 H 0.33313 0.92818 0.87147 0.0
C2870 C 0.31319 0.91971 0.91554 0.0
C2871 C 0.30476 0.91213 0.93904 0.0
C2872 C 0.3111 0.89855 0.89616 0.0
C2873 C 0.29079 0.88347 0.94189 0.0
C2874 C 0.28736 0.86227 0.92208 0.0
C2875 C 0.29763 0.84811 0.88025 0.0
C2876 C 0.30931 0.856 0.85809 0.0
C2877 C 0.29841 0.86943 0.89944 0.0
C2878 C 0.32204 0.88493 0.85523 0.0
C2879 C 0.32289 0.90606 0.87406 0.0
H2880 H 1.00819 0.59204 0.78266 0.0
H2881 H 0.95982 0.50389 0.77704 0.0
H2882 H 0.97876 0.49375 0.73853 0.0
H2883 H 1.00936 0.50945 0.7071 0.0
H2884 H 0.05559 0.59789 0.70952 0.0
H2885 H 0.03717 0.60878 0.74881 0.0
C2886 C 1.00176 0.57077 0.77277 0.0
C2887 C 0.98277 0.54871 0.78241 0.0
C2888 C 1.01239 0.5652 0.75036 0.0
C2889 C 0.97425 0.52121 0.76963 0.0
C2890 C 0.98517 0.51534 0.74778 0.0
C2891 C 1.01544 0.53104 0.71642 0.0
C2892 C 0.03397 0.55276 0.70619 0.0
C2893 C 1.00432 0.53708 0.73815 0.0
C2894 C 0.0415 0.5809 0.71765 0.0
C2895 C 0.03096 0.58705 0.73991 0.0
H2896 H 0.30518 0.2827 0.46352 0.0
H2897 H 0.33502 0.20914 0.4522 0.0
H2898 H 0.34138 0.21884 0.40904 0.0
H2899 H 0.33721 0.24638 0.37227 0.0
H2900 H 0.31258 0.32305 0.38278 0.0
H2901 H 0.30601 0.31423 0.42703 0.0
C2902 C 0.3136 0.26911 0.4519 0.0
C2903 C 0.31901 0.24465 0.46205 0.0
C2904 C 0.31806 0.27519 0.42611 0.0
C2905 C 0.32997 0.22778 0.44573 0.0
C2906 C 0.33373 0.23326 0.42056 0.0
C2907 C 0.33048 0.26126 0.3842 0.0
C2908 C 0.32518 0.28527 0.37363 0.0
C2909 C 0.32747 0.25653 0.4102 0.0
C2910 C 0.31677 0.30428 0.38998 0.0
C2911 C 0.31298 0.29921 0.41553 0.0
H2912 H 0.34408 0.58472 0.57066 0.0
H2913 H 0.38283 0.66383 0.54031 0.0
H2914 H 0.41441 0.64089 0.52223 0.0
H2915 H 0.42867 0.59688 0.51363 0.0
H2916 H 0.38583 0.51762 0.5421 0.0
H2917 H 0.3563 0.54165 0.56098 0.0
C2918 C 0.35932 0.59696 0.56005 0.0
C2919 C 0.36117 0.62563 0.55661 0.0
C2920 C 0.37576 0.58327 0.54863 0.0
C2921 C 0.38144 0.64169 0.5434 0.0
C2922 C 0.39903 0.62844 0.53274 0.0
C2923 C 0.4125 0.58489 0.52357 0.0
C2924 C 0.40908 0.55549 0.52629 0.0
C2925 C 0.39588 0.59899 0.53478 0.0
C2926 C 0.38832 0.54003 0.53927 0.0
C2927 C 0.37184 0.55386 0.55048 0.0
H2928 H 0.92676 0.90748 0.53106 0.0
H2929 H 0.89389 0.95454 0.58452 0.0
H2930 H 0.93422 0.99487 0.5879 0.0
H2931 H 0.97809 0.01812 0.5737 0.0
H2932 H 1.00885 0.97277 0.51685 0.0
H2933 H 0.97047 0.93092 0.51659 0.0
C2934 C 0.92869 0.92647 0.54363 0.0
C2935 C 0.90741 0.92824 0.55735 0.0
C2936 C 0.95157 0.95014 0.54467 0.0
C2937 C 0.91003 0.95287 0.57364 0.0
C2938 C 0.93306 0.97597 0.57553 0.0
C2939 C 0.97629 0.99914 0.56117 0.0
C2940 C 0.99626 0.99883 0.54513 0.0
C2941 C 0.95376 0.97516 0.5607 0.0
C2942 C 0.9936 0.97393 0.52907 0.0
C2943 C 0.97176 0.94976 0.52911 0.0
H2944 H 0.92067 0.09045 0.30148 0.0
H2945 H 0.90242 0.09921 0.22296 0.0
H2946 H 0.87853 0.13417 0.23438 0.0
H2947 H 0.85731 0.15558 0.26673 0.0
H2948 H 0.8711 0.14143 0.34485 0.0
H2949 H 0.90213 0.11434 0.3338 0.0
C2950 C 0.91225 0.10099 0.28703 0.0
C2951 C 0.9133 0.0931 0.26162 0.0
C2952 C 0.89708 0.11895 0.29372 0.0
C2953 C 0.90209 0.10585 0.24266 0.0
C2954 C 0.8881 0.12525 0.2492 0.0
C2955 C 0.8672 0.14644 0.28119 0.0
C2956 C 0.86187 0.14956 0.30637 0.0
C2957 C 0.88446 0.13077 0.27461 0.0
C2958 C 0.87469 0.13831 0.3253 0.0
C2959 C 0.89253 0.12329 0.31902 0.0
H2960 H 0.73801 0.11052 0.10833 0.0
H2961 H 0.72895 0.1906 0.08448 0.0
H2962 H 0.6809 0.17063 0.07982 0.0
H2963 H 0.64379 0.1284 0.07385 0.0
H2964 H 0.65165 0.04657 0.09422 0.0
H2965 H 0.69833 0.06935 0.10973 0.0
C2966 C 0.72527 0.12352 0.10257 0.0
C2967 C 0.73629 0.15121 0.09548 0.0
C2968 C 0.69791 0.11163 0.09927 0.0
C2969 C 0.72034 0.16884 0.08925 0.0
C2970 C 0.69307 0.15748 0.08656 0.0
C2971 C 0.65569 0.11555 0.08183 0.0
C2972 C 0.64522 0.0859 0.0819 0.0
C2973 C 0.68198 0.12849 0.08997 0.0
C2974 C 0.65997 0.06949 0.09349 0.0
C2975 C 0.68644 0.08247 0.10234 0.0
H2976 H 0.1994 0.48849 0.32004 0.0
H2977 H 0.21803 0.49264 0.24291 0.0
H2978 H 0.24074 0.45559 0.24749 0.0
H2979 H 0.26427 0.43292 0.27629 0.0
H2980 H 0.24944 0.43154 0.35474 0.0
H2981 H 0.21581 0.45692 0.347 0.0
C2982 C 0.20735 0.48004 0.30406 0.0
C2983 C 0.20748 0.49275 0.28133 0.0
C2984 C 0.22155 0.46015 0.30736 0.0
C2985 C 0.21775 0.48249 0.26045 0.0
C2986 C 0.231 0.46177 0.26322 0.0
C2987 C 0.25303 0.43725 0.29155 0.0
C2988 C 0.25941 0.43103 0.31612 0.0
C2989 C 0.23448 0.45206 0.28705 0.0
C2990 C 0.2451 0.43698 0.33584 0.0
C2991 C 0.22588 0.45119 0.33137 0.0
H2992 H 0.28316 0.44655 1.01116 0.0
H2993 H 0.25348 0.38845 0.0672 0.0
H2994 H 0.21717 0.41047 0.07172 0.0
H2995 H 0.1968 0.44978 0.06252 0.0
H2996 H 0.23117 0.5097 1.00929 0.0
H2997 H 0.26295 0.48344 1.00123 0.0
C2998 C 0.2688 0.43832 0.02438 0.0
C2999 C 0.27143 0.41599 0.0391 0.0
C3000 C 0.24893 0.45175 0.0276 0.0
C3001 C 0.25212 0.40564 0.0557 0.0
C3002 C 0.23148 0.41841 0.05841 0.0
C3003 C 0.21121 0.457 0.04912 0.0
C3004 C 0.2113 0.48167 0.03638 0.0
C3005 C 0.23018 0.4421 0.04498 0.0
C3006 C 0.23005 0.49053 0.01894 0.0
C3007 C 0.24846 0.47563 0.01444 0.0
H3008 H 0.88629 0.95241 0.21579 0.0
H3009 H 0.95546 0.94404 0.25916 0.0
H3010 H 0.93124 0.89563 0.26825 0.0
H3011 H 0.88804 0.86417 0.27403 0.0
H3012 H 0.81789 0.87329 0.23267 0.0
H3013 H 0.84504 0.91269 0.21158 0.0
C3014 C 0.89605 0.93948 0.22663 0.0
C3015 C 0.92175 0.95154 0.23806 0.0
C3016 C 0.88188 0.91223 0.23216 0.0
C3017 C 0.93518 0.93489 0.25103 0.0
C3018 C 0.92141 0.90741 0.25619 0.0
C3019 C 0.87874 0.87426 0.25992 0.0
C3020 C 0.85114 0.86757 0.25607 0.0
C3021 C 0.89427 0.89706 0.24856 0.0
C3022 C 0.83923 0.87937 0.23674 0.0
C3023 C 0.85469 0.90175 0.22467 0.0
H3024 H 0.73238 0.13265 0.74113 0.0
H3025 H 0.68489 0.15675 0.79612 0.0
H3026 H 0.71695 0.20447 0.80409 0.0
H3027 H 0.76101 0.23576 0.79937 0.0
H3028 H 0.80847 0.21204 0.74399 0.0
H3029 H 0.77357 0.16701 0.73188 0.0
C3030 C 0.729 0.14867 0.75453 0.0
C3031 C 0.70729 0.14153 0.76882 0.0
C3032 C 0.74744 0.17552 0.759 0.0
C3033 C 0.70202 0.16217 0.78543 0.0
C3034 C 0.72031 0.18916 0.79001 0.0
C3035 C 0.76366 0.22066 0.78467 0.0
C3036 C 0.78731 0.22628 0.77306 0.0
C3037 C 0.74359 0.19545 0.77771 0.0
C3038 C 0.7904 0.20748 0.75336 0.0
C3039 C 0.7705 0.18203 0.74638 0.0
loop_
_geom_bond_atom_site_label_1
_geom_bond_atom_site_label_2
_geom_bond_distance
_geom_bond_site_symmetry_2
_ccdc_geom_bond_type
Mn0 O5 2.095 . S
Mn0 O15 2.162 . S
Mn0 O16 2.297 . S
Mn0 O24 2.385 1_455 S
Mn0 O25 2.209 . S
Mn0 O26 2.094 . S
Mn1 O6 2.121 . S
Mn1 N8 2.257 . S
Mn1 N17 2.282 . S
Mn1 O25 2.215 . S
Mn1 O27 2.117 . S
C2 O24 1.237 . S
C2 O25 1.264 1_655 S
C3 O15 1.281 . S
C3 O16 1.236 . S
C4 O26 1.240 . S
C4 O27 1.264 . S
O5 Mn0 2.095 . S
O5 C14 1.250 . S
O6 Mn1 2.121 . S
O6 C14 1.258 . S
C7 N8 1.326 . S
C7 C11 1.460 . S
C7 H13 0.929 . S
N8 Mn1 2.257 . S
N8 C7 1.326 . S
N8 C12 1.362 . S
C9 C10 1.251 1_655 S
C9 C12 1.428 1_655 S
C9 C29 1.458 . S
C10 C9 1.251 1_455 S
C10 C11 1.477 . S
C10 H30 0.931 . S
C11 C7 1.460 . S
C11 C10 1.477 . S
C11 H31 0.930 . S
C12 N8 1.362 . S
C12 C9 1.428 1_455 S
C12 C22 1.476 1_455 S
H13 C7 0.929 . S
C14 O5 1.250 . S
C14 O6 1.258 . S
O15 Mn0 2.162 . S
O15 C3 1.281 . S
O16 Mn0 2.297 . S
O16 C3 1.236 . S
N17 Mn1 2.282 . S
N17 C18 1.328 1_455 S
N17 C22 1.318 1_455 S
C18 N17 1.328 1_655 S
C18 C19 1.457 . S
C18 H23 0.929 1_655 S
C19 C18 1.457 . S
C19 C20 1.291 . S
C19 H32 0.931 . S
C20 C19 1.291 . S
C20 C21 1.373 . S
C20 H33 0.929 . S
C21 C20 1.373 . S
C21 C22 1.396 . S
C21 C28 1.403 . S
C22 C12 1.476 1_655 S
C22 N17 1.318 1_655 S
C22 C21 1.396 . S
H23 C18 0.929 1_455 S
O24 Mn0 2.385 1_655 S
O24 C2 1.237 . S
O25 Mn0 2.209 . S
O25 Mn1 2.215 . S
O25 C2 1.264 1_455 S
O26 Mn0 2.094 . S
O26 C4 1.240 . S
O27 Mn1 2.117 . S
O27 C4 1.264 . S
C28 C21 1.403 . S
C28 C29 1.399 . S
C28 H34 0.929 . S
C29 C9 1.458 . S
C29 C28 1.399 . S
C29 H35 0.930 . S
H30 C10 0.931 . S
H31 C11 0.930 . S
H32 C19 0.931 . S
H33 C20 0.929 . S
H34 C28 0.929 . S
H35 C29 0.930 . S
Mn36 O41 2.095 . S
Mn36 O51 2.162 . S
Mn36 O52 2.297 . S
Mn36 O60 2.385 . S
Mn36 O61 2.209 . S
Mn36 O62 2.094 . S
Mn37 O42 2.121 . S
Mn37 N44 2.257 . S
Mn37 N53 2.282 . S
Mn37 O61 2.215 . S
Mn37 O63 2.117 . S
C38 O60 1.234 . S
C38 O61 1.283 . S
C39 O51 1.281 . S
C39 O52 1.236 . S
C40 O62 1.240 . S
C40 O63 1.264 . S
O41 Mn36 2.095 . S
O41 C50 1.250 . S
O42 Mn37 2.121 . S
O42 C50 1.258 . S
C43 N44 1.326 . S
C43 C47 1.460 . S
C43 H49 0.929 . S
N44 Mn37 2.257 . S
N44 C43 1.326 . S
N44 C48 1.362 . S
C45 C46 1.258 . S
C45 C48 1.431 . S
C45 C65 1.449 . S
C46 C45 1.258 . S
C46 C47 1.477 . S
C46 H66 0.931 . S
C47 C43 1.460 . S
C47 C46 1.477 . S
C47 H67 0.930 . S
C48 N44 1.362 . S
C48 C45 1.431 . S
C48 C58 1.476 . S
H49 C43 0.929 . S
C50 O41 1.250 . S
C50 O42 1.258 . S
O51 Mn36 2.162 . S
O51 C39 1.281 . S
O52 Mn36 2.297 . S
O52 C39 1.236 . S
N53 Mn37 2.282 . S
N53 C54 1.328 . S
N53 C58 1.318 . S
C54 N53 1.328 . S
C54 C55 1.457 . S
C54 H59 0.929 . S
C55 C54 1.457 . S
C55 C56 1.291 . S
C55 H68 0.931 . S
C56 C55 1.291 . S
C56 C57 1.373 . S
C56 H69 0.929 . S
C57 C56 1.373 . S
C57 C58 1.396 . S
C57 C64 1.403 . S
C58 C48 1.476 . S
C58 N53 1.318 . S
C58 C57 1.396 . S
H59 C54 0.929 . S
O60 Mn36 2.385 . S
O60 C38 1.234 . S
O61 Mn36 2.209 . S
O61 Mn37 2.215 . S
O61 C38 1.283 . S
O62 Mn36 2.094 . S
O62 C40 1.240 . S
O63 Mn37 2.117 . S
O63 C40 1.264 . S
C64 C57 1.403 . S
C64 C65 1.399 . S
C64 H70 0.929 . S
C65 C45 1.449 . S
C65 C64 1.399 . S
C65 H71 0.930 . S
H66 C46 0.931 . S
H67 C47 0.930 . S
H68 C55 0.931 . S
H69 C56 0.929 . S
H70 C64 0.929 . S
H71 C65 0.930 . S
Mn72 O77 2.095 . S
Mn72 O87 2.162 . S
Mn72 O88 2.297 . S
Mn72 O96 2.385 . S
Mn72 O97 2.209 . S
Mn72 O98 2.094 . S
Mn73 O78 2.121 . S
Mn73 N80 2.257 . S
Mn73 N89 2.282 . S
Mn73 O97 2.215 . S
Mn73 O99 2.117 . S
C74 O96 1.234 . S
C74 O97 1.283 . S
C75 O87 1.281 . S
C75 O88 1.236 . S
C76 O98 1.240 . S
C76 O99 1.264 . S
O77 Mn72 2.095 . S
O77 C86 1.250 . S
O78 Mn73 2.121 . S
O78 C86 1.258 . S
C79 N80 1.326 . S
C79 C83 1.460 . S
C79 H85 0.929 . S
N80 Mn73 2.257 . S
N80 C79 1.326 . S
N80 C84 1.362 . S
C81 C82 1.258 . S
C81 C84 1.431 . S
C81 C101 1.449 . S
C82 C81 1.258 . S
C82 C83 1.477 . S
C82 H102 0.931 . S
C83 C79 1.460 . S
C83 C82 1.477 . S
C83 H103 0.930 . S
C84 N80 1.362 . S
C84 C81 1.431 . S
C84 C94 1.476 . S
H85 C79 0.929 . S
C86 O77 1.250 . S
C86 O78 1.258 . S
O87 Mn72 2.162 . S
O87 C75 1.281 . S
O88 Mn72 2.297 . S
O88 C75 1.236 . S
N89 Mn73 2.282 . S
N89 C90 1.328 . S
N89 C94 1.318 . S
C90 N89 1.328 . S
C90 C91 1.457 . S
C90 H95 0.929 . S
C91 C90 1.457 . S
C91 C92 1.291 . S
C91 H104 0.931 . S
C92 C91 1.291 . S
C92 C93 1.373 . S
C92 H105 0.929 . S
C93 C92 1.373 . S
C93 C94 1.396 . S
C93 C100 1.403 . S
C94 C84 1.476 . S
C94 N89 1.318 . S
C94 C93 1.396 . S
H95 C90 0.929 . S
O96 Mn72 2.385 . S
O96 C74 1.234 . S
O97 Mn72 2.209 . S
O97 Mn73 2.215 . S
O97 C74 1.283 . S
O98 Mn72 2.094 . S
O98 C76 1.240 . S
O99 Mn73 2.117 . S
O99 C76 1.264 . S
C100 C93 1.403 . S
C100 C101 1.399 . S
C100 H106 0.929 . S
C101 C81 1.449 . S
C101 C100 1.399 . S
C101 H107 0.930 . S
H102 C82 0.931 . S
H103 C83 0.930 . S
H104 C91 0.931 . S
H105 C92 0.929 . S
H106 C100 0.929 . S
H107 C101 0.930 . S
Mn108 O113 2.095 . S
Mn108 O123 2.162 . S
Mn108 O124 2.297 . S
Mn108 O132 2.385 . S
Mn108 O133 2.209 . S
Mn108 O134 2.094 . S
Mn109 O114 2.121 . S
Mn109 N116 2.257 . S
Mn109 N125 2.282 . S
Mn109 O133 2.215 . S
Mn109 O135 2.117 . S
C110 O132 1.234 . S
C110 O133 1.283 . S
C111 O123 1.281 . S
C111 O124 1.236 . S
C112 O134 1.240 . S
C112 O135 1.264 . S
O113 Mn108 2.095 . S
O113 C122 1.250 . S
O114 Mn109 2.121 . S
O114 C122 1.258 . S
C115 N116 1.326 . S
C115 C119 1.460 . S
C115 H121 0.929 . S
N116 Mn109 2.257 . S
N116 C115 1.326 . S
N116 C120 1.362 . S
C117 C118 1.258 . S
C117 C120 1.431 . S
C117 C137 1.449 . S
C118 C117 1.258 . S
C118 C119 1.477 . S
C118 H138 0.931 . S
C119 C115 1.460 . S
C119 C118 1.477 . S
C119 H139 0.930 . S
C120 N116 1.362 . S
C120 C117 1.431 . S
C120 C130 1.476 . S
H121 C115 0.929 . S
C122 O113 1.250 . S
C122 O114 1.258 . S
O123 Mn108 2.162 . S
O123 C111 1.281 . S
O124 Mn108 2.297 . S
O124 C111 1.236 . S
N125 Mn109 2.282 . S
N125 C126 1.328 . S
N125 C130 1.318 . S
C126 N125 1.328 . S
C126 C127 1.457 . S
C126 H131 0.929 . S
C127 C126 1.457 . S
C127 C128 1.291 . S
C127 H140 0.931 . S
C128 C127 1.291 . S
C128 C129 1.373 . S
C128 H141 0.929 . S
C129 C128 1.373 . S
C129 C130 1.396 . S
C129 C136 1.403 . S
C130 C120 1.476 . S
C130 N125 1.318 . S
C130 C129 1.396 . S
H131 C126 0.929 . S
O132 Mn108 2.385 . S
O132 C110 1.234 . S
O133 Mn108 2.209 . S
O133 Mn109 2.215 . S
O133 C110 1.283 . S
O134 Mn108 2.094 . S
O134 C112 1.240 . S
O135 Mn109 2.117 . S
O135 C112 1.264 . S
C136 C129 1.403 . S
C136 C137 1.399 . S
C136 H142 0.929 . S
C137 C117 1.449 . S
C137 C136 1.399 . S
C137 H143 0.930 . S
H138 C118 0.931 . S
H139 C119 0.930 . S
H140 C127 0.931 . S
H141 C128 0.929 . S
H142 C136 0.929 . S
H143 C137 0.930 . S
Mn144 O149 2.095 . S
Mn144 O159 2.162 . S
Mn144 O160 2.297 . S
Mn144 O168 2.385 . S
Mn144 O169 2.209 . S
Mn144 O170 2.094 . S
Mn145 O150 2.121 . S
Mn145 N152 2.257 . S
Mn145 N161 2.282 . S
Mn145 O169 2.215 . S
Mn145 O171 2.117 . S
C146 O168 1.234 . S
C146 O169 1.283 . S
C147 O159 1.281 . S
C147 O160 1.236 . S
C148 O170 1.240 . S
C148 O171 1.264 . S
O149 Mn144 2.095 . S
O149 C158 1.250 . S
O150 Mn145 2.121 . S
O150 C158 1.258 . S
C151 N152 1.326 . S
C151 C155 1.460 . S
C151 H157 0.929 . S
N152 Mn145 2.257 . S
N152 C151 1.326 . S
N152 C156 1.362 . S
C153 C154 1.258 . S
C153 C156 1.431 . S
C153 C173 1.449 . S
C154 C153 1.258 . S
C154 C155 1.477 . S
C154 H174 0.931 1_554 S
C155 C151 1.460 . S
C155 C154 1.477 . S
C155 H175 0.930 . S
C156 N152 1.362 . S
C156 C153 1.431 . S
C156 C166 1.476 . S
H157 C151 0.929 . S
C158 O149 1.250 . S
C158 O150 1.258 . S
O159 Mn144 2.162 . S
O159 C147 1.281 . S
O160 Mn144 2.297 . S
O160 C147 1.236 . S
N161 Mn145 2.282 . S
N161 C162 1.328 . S
N161 C166 1.318 . S
C162 N161 1.328 . S
C162 C163 1.457 . S
C162 H167 0.929 . S
C163 C162 1.457 . S
C163 C164 1.296 1_455 S
C163 H176 0.931 1_455 S
C164 C163 1.296 1_655 S
C164 C165 1.362 1_655 S
C164 H177 0.937 . S
C165 C164 1.362 1_455 S
C165 C166 1.396 . S
C165 C172 1.403 . S
C166 C156 1.476 . S
C166 N161 1.318 . S
C166 C165 1.396 . S
H167 C162 0.929 . S
O168 Mn144 2.385 . S
O168 C146 1.234 . S
O169 Mn144 2.209 . S
O169 Mn145 2.215 . S
O169 C146 1.283 . S
O170 Mn144 2.094 . S
O170 C148 1.240 . S
O171 Mn145 2.117 . S
O171 C148 1.264 . S
C172 C165 1.403 . S
C172 C173 1.399 . S
C172 H178 0.929 1_455 S
C173 C153 1.449 . S
C173 C172 1.399 . S
C173 H179 0.930 . S
H174 C154 0.931 1_556 S
H175 C155 0.930 . S
H176 C163 0.931 1_655 S
H177 C164 0.937 . S
H178 C172 0.929 1_655 S
H179 C173 0.930 . S
Mn180 O185 2.095 . S
Mn180 O195 2.162 . S
Mn180 O196 2.297 . S
Mn180 O204 2.385 . S
Mn180 O205 2.209 . S
Mn180 O206 2.094 . S
Mn181 O186 2.121 . S
Mn181 N188 2.257 . S
Mn181 N197 2.282 . S
Mn181 O205 2.215 . S
Mn181 O207 2.117 . S
C182 O204 1.234 . S
C182 O205 1.283 . S
C183 O195 1.281 . S
C183 O196 1.236 . S
C184 O206 1.240 . S
C184 O207 1.264 . S
O185 Mn180 2.095 . S
O185 C194 1.250 . S
O186 Mn181 2.121 . S
O186 C194 1.258 . S
C187 N188 1.326 . S
C187 C191 1.460 . S
C187 H193 0.929 . S
N188 Mn181 2.257 . S
N188 C187 1.326 . S
N188 C192 1.362 . S
C189 C190 1.258 . S
C189 C192 1.431 . S
C189 C209 1.449 . S
C190 C189 1.258 . S
C190 C191 1.477 . S
C190 H210 0.931 . S
C191 C187 1.460 . S
C191 C190 1.477 . S
C191 H211 0.930 . S
C192 N188 1.362 . S
C192 C189 1.431 . S
C192 C202 1.476 . S
H193 C187 0.929 . S
C194 O185 1.250 . S
C194 O186 1.258 . S
O195 Mn180 2.162 . S
O195 C183 1.281 . S
O196 Mn180 2.297 . S
O196 C183 1.236 . S
N197 Mn181 2.282 . S
N197 C198 1.328 . S
N197 C202 1.318 . S
C198 N197 1.328 . S
C198 C199 1.457 . S
C198 H203 0.929 . S
C199 C198 1.457 . S
C199 C200 1.291 . S
C199 H212 0.931 . S
C200 C199 1.291 . S
C200 C201 1.373 . S
C200 H213 0.929 . S
C201 C200 1.373 . S
C201 C202 1.396 . S
C201 C208 1.403 . S
C202 C192 1.476 . S
C202 N197 1.318 . S
C202 C201 1.396 . S
H203 C198 0.929 . S
O204 Mn180 2.385 . S
O204 C182 1.234 . S
O205 Mn180 2.209 . S
O205 Mn181 2.215 . S
O205 C182 1.283 . S
O206 Mn180 2.094 . S
O206 C184 1.240 . S
O207 Mn181 2.117 . S
O207 C184 1.264 . S
C208 C201 1.403 . S
C208 C209 1.399 . S
C208 H214 0.929 . S
C209 C189 1.449 . S
C209 C208 1.399 . S
C209 H215 0.930 . S
H210 C190 0.931 . S
H211 C191 0.930 . S
H212 C199 0.931 . S
H213 C200 0.929 . S
H214 C208 0.929 . S
H215 C209 0.930 . S
Mn216 O221 2.095 . S
Mn216 O231 2.162 . S
Mn216 O232 2.297 . S
Mn216 O240 2.385 . S
Mn216 O241 2.209 . S
Mn216 O242 2.094 . S
Mn217 O222 2.121 . S
Mn217 N224 2.257 . S
Mn217 N233 2.282 . S
Mn217 O241 2.215 . S
Mn217 O243 2.117 . S
C218 O240 1.234 . S
C218 O241 1.283 . S
C219 O231 1.281 . S
C219 O232 1.236 . S
C220 O242 1.240 . S
C220 O243 1.264 . S
O221 Mn216 2.095 . S
O221 C230 1.250 . S
O222 Mn217 2.121 . S
O222 C230 1.258 . S
C223 N224 1.326 . S
C223 C227 1.460 . S
C223 H229 0.929 . S
N224 Mn217 2.257 . S
N224 C223 1.326 . S
N224 C228 1.362 . S
C225 C226 1.258 . S
C225 C228 1.431 . S
C225 C245 1.449 . S
C226 C225 1.258 . S
C226 C227 1.477 . S
C226 H246 0.931 . S
C227 C223 1.460 . S
C227 C226 1.477 . S
C227 H247 0.930 . S
C228 N224 1.362 . S
C228 C225 1.431 . S
C228 C238 1.476 . S
H229 C223 0.929 . S
C230 O221 1.250 . S
C230 O222 1.258 . S
O231 Mn216 2.162 . S
O231 C219 1.281 . S
O232 Mn216 2.297 . S
O232 C219 1.236 . S
N233 Mn217 2.282 . S
N233 C234 1.328 . S
N233 C238 1.318 . S
C234 N233 1.328 . S
C234 C235 1.457 . S
C234 H239 0.929 . S
C235 C234 1.457 . S
C235 C236 1.291 . S
C235 H248 0.931 . S
C236 C235 1.291 . S
C236 C237 1.373 . S
C236 H249 0.929 . S
C237 C236 1.373 . S
C237 C238 1.396 . S
C237 C244 1.403 . S
C238 C228 1.476 . S
C238 N233 1.318 . S
C238 C237 1.396 . S
H239 C234 0.929 . S
O240 Mn216 2.385 . S
O240 C218 1.234 . S
O241 Mn216 2.209 . S
O241 Mn217 2.215 . S
O241 C218 1.283 . S
O242 Mn216 2.094 . S
O242 C220 1.240 . S
O243 Mn217 2.117 . S
O243 C220 1.264 . S
C244 C237 1.403 . S
C244 C245 1.399 . S
C244 H250 0.929 . S
C245 C225 1.449 . S
C245 C244 1.399 . S
C245 H251 0.930 . S
H246 C226 0.931 . S
H247 C227 0.930 . S
H248 C235 0.931 . S
H249 C236 0.929 . S
H250 C244 0.929 . S
H251 C245 0.930 . S
Mn252 O257 2.095 1_655 S
Mn252 O267 2.162 . S
Mn252 O268 2.297 . S
Mn252 O276 2.385 . S
Mn252 O277 2.209 . S
Mn252 O278 2.094 1_655 S
Mn253 O258 2.121 . S
Mn253 N260 2.257 1_455 S
Mn253 N269 2.282 1_455 S
Mn253 O277 2.215 1_455 S
Mn253 O279 2.117 . S
C254 O276 1.234 . S
C254 O277 1.283 . S
C255 O267 1.281 . S
C255 O268 1.236 . S
C256 O278 1.240 . S
C256 O279 1.264 . S
O257 Mn252 2.095 1_455 S
O257 C266 1.250 . S
O258 Mn253 2.121 . S
O258 C266 1.258 . S
C259 N260 1.329 . S
C259 C263 1.461 . S
C259 H265 0.926 1_655 S
N260 Mn253 2.257 1_655 S
N260 C259 1.329 . S
N260 C264 1.362 . S
C261 C262 1.258 . S
C261 C264 1.431 . S
C261 C281 1.449 . S
C262 C261 1.258 . S
C262 C263 1.477 . S
C262 H282 0.931 . S
C263 C259 1.461 . S
C263 C262 1.477 . S
C263 H283 0.930 . S
C264 N260 1.362 . S
C264 C261 1.431 . S
C264 C274 1.476 . S
H265 C259 0.926 1_455 S
C266 O257 1.250 . S
C266 O258 1.258 . S
O267 Mn252 2.162 . S
O267 C255 1.281 . S
O268 Mn252 2.297 . S
O268 C255 1.236 . S
N269 Mn253 2.282 1_655 S
N269 C270 1.328 . S
N269 C274 1.318 . S
C270 N269 1.328 . S
C270 C271 1.457 . S
C270 H275 0.929 . S
C271 C270 1.457 . S
C271 C272 1.291 . S
C271 H284 0.931 . S
C272 C271 1.291 . S
C272 C273 1.373 . S
C272 H285 0.929 . S
C273 C272 1.373 . S
C273 C274 1.396 . S
C273 C280 1.403 . S
C274 C264 1.476 . S
C274 N269 1.318 . S
C274 C273 1.396 . S
H275 C270 0.929 . S
O276 Mn252 2.385 . S
O276 C254 1.234 . S
O277 Mn252 2.209 . S
O277 Mn253 2.215 1_655 S
O277 C254 1.283 . S
O278 Mn252 2.094 1_455 S
O278 C256 1.240 . S
O279 Mn253 2.117 . S
O279 C256 1.264 . S
C280 C273 1.403 . S
C280 C281 1.399 . S
C280 H286 0.929 . S
C281 C261 1.449 . S
C281 C280 1.399 . S
C281 H287 0.930 . S
H282 C262 0.931 . S
H283 C263 0.930 . S
H284 C271 0.931 . S
H285 C272 0.929 . S
H286 C280 0.929 . S
H287 C281 0.930 . S
Mn288 O293 2.095 . S
Mn288 O303 2.162 . S
Mn288 O304 2.297 . S
Mn288 O312 2.385 1_545 S
Mn288 O313 2.209 . S
Mn288 O314 2.094 . S
Mn289 O294 2.121 . S
Mn289 N296 2.257 1_545 S
Mn289 N305 2.282 1_545 S
Mn289 O313 2.215 . S
Mn289 O315 2.117 . S
C290 O312 1.234 . S
C290 O313 1.283 1_565 S
C291 O303 1.281 . S
C291 O304 1.236 . S
C292 O314 1.240 . S
C292 O315 1.264 . S
O293 Mn288 2.095 . S
O293 C302 1.250 . S
O294 Mn289 2.121 . S
O294 C302 1.258 . S
C295 N296 1.326 1_545 S
C295 C299 1.460 1_545 S
C295 H301 0.929 . S
N296 Mn289 2.257 1_565 S
N296 C295 1.326 1_565 S
N296 C300 1.362 . S
C297 C298 1.258 . S
C297 C300 1.431 . S
C297 C317 1.449 . S
C298 C297 1.258 . S
C298 C299 1.477 . S
C298 H318 0.931 . S
C299 C295 1.460 1_565 S
C299 C298 1.477 . S
C299 H319 0.930 . S
C300 N296 1.362 . S
C300 C297 1.431 . S
C300 C310 1.476 . S
H301 C295 0.929 . S
C302 O293 1.250 . S
C302 O294 1.258 . S
O303 Mn288 2.162 . S
O303 C291 1.281 . S
O304 Mn288 2.297 . S
O304 C291 1.236 . S
N305 Mn289 2.282 1_565 S
N305 C306 1.328 . S
N305 C310 1.318 . S
C306 N305 1.328 . S
C306 C307 1.457 . S
C306 H311 0.929 . S
C307 C306 1.457 . S
C307 C308 1.291 . S
C307 H320 0.931 . S
C308 C307 1.291 . S
C308 C309 1.373 . S
C308 H321 0.929 . S
C309 C308 1.373 . S
C309 C310 1.396 . S
C309 C316 1.403 . S
C310 C300 1.476 . S
C310 N305 1.318 . S
C310 C309 1.396 . S
H311 C306 0.929 . S
O312 Mn288 2.385 1_565 S
O312 C290 1.234 . S
O313 Mn288 2.209 . S
O313 Mn289 2.215 . S
O313 C290 1.283 1_545 S
O314 Mn288 2.094 . S
O314 C292 1.240 . S
O315 Mn289 2.117 . S
O315 C292 1.264 . S
C316 C309 1.403 . S
C316 C317 1.399 . S
C316 H322 0.929 . S
C317 C297 1.449 . S
C317 C316 1.399 . S
C317 H323 0.930 . S
H318 C298 0.931 . S
H319 C299 0.930 . S
H320 C307 0.931 . S
H321 C308 0.929 . S
H322 C316 0.929 . S
H323 C317 0.930 . S
Mn324 O329 2.095 . S
Mn324 O339 2.162 . S
Mn324 O340 2.297 . S
Mn324 O348 2.385 . S
Mn324 O349 2.209 . S
Mn324 O350 2.094 . S
Mn325 O330 2.121 . S
Mn325 N332 2.257 . S
Mn325 N341 2.282 . S
Mn325 O349 2.215 . S
Mn325 O351 2.117 . S
C326 O348 1.234 . S
C326 O349 1.283 . S
C327 O339 1.281 . S
C327 O340 1.236 . S
C328 O350 1.240 . S
C328 O351 1.264 . S
O329 Mn324 2.095 . S
O329 C338 1.250 . S
O330 Mn325 2.121 . S
O330 C338 1.258 . S
C331 N332 1.326 . S
C331 C335 1.460 . S
C331 H337 0.929 . S
N332 Mn325 2.257 . S
N332 C331 1.326 . S
N332 C336 1.362 . S
C333 C334 1.258 . S
C333 C336 1.431 . S
C333 C353 1.449 . S
C334 C333 1.258 . S
C334 C335 1.477 . S
C334 H354 0.931 . S
C335 C331 1.460 . S
C335 C334 1.477 . S
C335 H355 0.930 . S
C336 N332 1.362 . S
C336 C333 1.431 . S
C336 C346 1.476 . S
H337 C331 0.929 . S
C338 O329 1.250 . S
C338 O330 1.258 . S
O339 Mn324 2.162 . S
O339 C327 1.281 . S
O340 Mn324 2.297 . S
O340 C327 1.236 . S
N341 Mn325 2.282 . S
N341 C342 1.328 . S
N341 C346 1.318 . S
C342 N341 1.328 . S
C342 C343 1.457 . S
C342 H347 0.929 . S
C343 C342 1.457 . S
C343 C344 1.291 . S
C343 H356 0.931 . S
C344 C343 1.291 . S
C344 C345 1.373 . S
C344 H357 0.929 . S
C345 C344 1.373 . S
C345 C346 1.396 . S
C345 C352 1.403 . S
C346 C336 1.476 . S
C346 N341 1.318 . S
C346 C345 1.396 . S
H347 C342 0.929 . S
O348 Mn324 2.385 . S
O348 C326 1.234 . S
O349 Mn324 2.209 . S
O349 Mn325 2.215 . S
O349 C326 1.283 . S
O350 Mn324 2.094 . S
O350 C328 1.240 . S
O351 Mn325 2.117 . S
O351 C328 1.264 . S
C352 C345 1.403 . S
C352 C353 1.399 . S
C352 H358 0.929 . S
C353 C333 1.449 . S
C353 C352 1.399 . S
C353 H359 0.930 . S
H354 C334 0.931 . S
H355 C335 0.930 . S
H356 C343 0.931 . S
H357 C344 0.929 . S
H358 C352 0.929 . S
H359 C353 0.930 . S
Mn360 O365 2.095 . S
Mn360 O375 2.162 . S
Mn360 O376 2.297 . S
Mn360 O384 2.385 . S
Mn360 O385 2.209 . S
Mn360 O386 2.094 . S
Mn361 O366 2.121 . S
Mn361 N368 2.257 . S
Mn361 N377 2.282 . S
Mn361 O385 2.215 . S
Mn361 O387 2.117 . S
C362 O384 1.234 . S
C362 O385 1.283 . S
C363 O375 1.281 . S
C363 O376 1.236 . S
C364 O386 1.240 . S
C364 O387 1.264 . S
O365 Mn360 2.095 . S
O365 C374 1.250 . S
O366 Mn361 2.121 . S
O366 C374 1.258 . S
C367 N368 1.326 . S
C367 C371 1.460 . S
C367 H373 0.929 . S
N368 Mn361 2.257 . S
N368 C367 1.326 . S
N368 C372 1.362 . S
C369 C370 1.258 . S
C369 C372 1.431 . S
C369 C389 1.449 . S
C370 C369 1.258 . S
C370 C371 1.477 . S
C370 H390 0.931 . S
C371 C367 1.460 . S
C371 C370 1.477 . S
C371 H391 0.930 . S
C372 N368 1.362 . S
C372 C369 1.431 . S
C372 C382 1.476 . S
H373 C367 0.929 . S
C374 O365 1.250 . S
C374 O366 1.258 . S
O375 Mn360 2.162 . S
O375 C363 1.281 . S
O376 Mn360 2.297 . S
O376 C363 1.236 . S
N377 Mn361 2.282 . S
N377 C378 1.328 . S
N377 C382 1.318 . S
C378 N377 1.328 . S
C378 C379 1.457 . S
C378 H383 0.929 . S
C379 C378 1.457 . S
C379 C380 1.291 . S
C379 H392 0.931 . S
C380 C379 1.291 . S
C380 C381 1.373 . S
C380 H393 0.929 . S
C381 C380 1.373 . S
C381 C382 1.396 . S
C381 C388 1.403 . S
C382 C372 1.476 . S
C382 N377 1.318 . S
C382 C381 1.396 . S
H383 C378 0.929 . S
O384 Mn360 2.385 . S
O384 C362 1.234 . S
O385 Mn360 2.209 . S
O385 Mn361 2.215 . S
O385 C362 1.283 . S
O386 Mn360 2.094 . S
O386 C364 1.240 . S
O387 Mn361 2.117 . S
O387 C364 1.264 . S
C388 C381 1.403 . S
C388 C389 1.399 . S
C388 H394 0.929 . S
C389 C369 1.449 . S
C389 C388 1.399 . S
C389 H395 0.930 . S
H390 C370 0.931 . S
H391 C371 0.930 . S
H392 C379 0.931 . S
H393 C380 0.929 . S
H394 C388 0.929 . S
H395 C389 0.930 . S
Mn396 O401 2.095 1_554 S
Mn396 O411 2.162 . S
Mn396 O412 2.297 . S
Mn396 O420 2.385 . S
Mn396 O421 2.203 1_554 S
Mn396 O422 2.094 1_554 S
Mn397 O402 2.121 . S
Mn397 N404 2.257 1_565 S
Mn397 N413 2.282 . S
Mn397 O421 2.240 . S
Mn397 O423 2.117 . S
C398 O420 1.234 . S
C398 O421 1.279 1_554 S
C399 O411 1.281 . S
C399 O412 1.236 . S
C400 O422 1.240 . S
C400 O423 1.264 . S
O401 Mn396 2.095 1_556 S
O401 C410 1.250 . S
O402 Mn397 2.121 . S
O402 C410 1.258 . S
C403 N404 1.326 . S
C403 C407 1.460 . S
C403 H409 0.929 . S
N404 Mn397 2.257 1_545 S
N404 C403 1.326 . S
N404 C408 1.362 . S
C405 C406 1.258 . S
C405 C408 1.431 . S
C405 C425 1.449 . S
C406 C405 1.258 . S
C406 C407 1.477 . S
C406 H426 0.931 . S
C407 C403 1.460 . S
C407 C406 1.477 . S
C407 H427 0.930 . S
C408 N404 1.362 . S
C408 C405 1.431 . S
C408 C418 1.476 . S
H409 C403 0.929 . S
C410 O401 1.250 . S
C410 O402 1.258 . S
O411 Mn396 2.162 . S
O411 C399 1.281 . S
O412 Mn396 2.297 . S
O412 C399 1.236 . S
N413 Mn397 2.282 . S
N413 C414 1.328 . S
N413 C418 1.318 1_565 S
C414 N413 1.328 . S
C414 C415 1.457 . S
C414 H419 0.929 . S
C415 C414 1.457 . S
C415 C416 1.291 1_565 S
C415 H428 0.931 . S
C416 C415 1.291 1_545 S
C416 C417 1.373 . S
C416 H429 0.929 . S
C417 C416 1.373 . S
C417 C418 1.396 . S
C417 C424 1.403 . S
C418 C408 1.476 . S
C418 N413 1.318 1_545 S
C418 C417 1.396 . S
H419 C414 0.929 . S
O420 Mn396 2.385 . S
O420 C398 1.234 . S
O421 Mn396 2.203 1_556 S
O421 Mn397 2.240 . S
O421 C398 1.279 1_556 S
O422 Mn396 2.094 1_556 S
O422 C400 1.240 . S
O423 Mn397 2.117 . S
O423 C400 1.264 . S
C424 C417 1.403 . S
C424 C425 1.399 . S
C424 H430 0.929 . S
C425 C405 1.449 . S
C425 C424 1.399 . S
C425 H431 0.930 . S
H426 C406 0.931 . S
H427 C407 0.930 . S
H428 C415 0.931 . S
H429 C416 0.929 . S
H430 C424 0.929 . S
H431 C425 0.930 . S
Mn432 O437 2.095 . S
Mn432 O447 2.162 . S
Mn432 O448 2.297 . S
Mn432 O456 2.385 . S
Mn432 O457 2.209 . S
Mn432 O458 2.094 . S
Mn433 O438 2.121 . S
Mn433 N440 2.257 . S
Mn433 N449 2.282 1_554 S
Mn433 O457 2.215 . S
Mn433 O459 2.117 1_554 S
C434 O456 1.234 . S
C434 O457 1.283 . S
C435 O447 1.281 . S
C435 O448 1.236 . S
C436 O458 1.240 1_556 S
C436 O459 1.264 . S
O437 Mn432 2.095 . S
O437 C446 1.250 . S
O438 Mn433 2.121 . S
O438 C446 1.258 . S
C439 N440 1.326 . S
C439 C443 1.460 . S
C439 H445 0.929 . S
N440 Mn433 2.257 . S
N440 C439 1.326 . S
N440 C444 1.362 . S
C441 C442 1.258 . S
C441 C444 1.431 . S
C441 C461 1.449 1_554 S
C442 C441 1.258 . S
C442 C443 1.477 . S
C442 H462 0.931 . S
C443 C439 1.460 . S
C443 C442 1.477 . S
C443 H463 0.930 . S
C444 N440 1.362 . S
C444 C441 1.431 . S
C444 C454 1.476 1_554 S
H445 C439 0.929 . S
C446 O437 1.250 . S
C446 O438 1.258 . S
O447 Mn432 2.162 . S
O447 C435 1.281 . S
O448 Mn432 2.297 . S
O448 C435 1.236 . S
N449 Mn433 2.282 1_556 S
N449 C450 1.328 . S
N449 C454 1.318 . S
C450 N449 1.328 . S
C450 C451 1.457 . S
C450 H455 0.929 . S
C451 C450 1.457 . S
C451 C452 1.291 . S
C451 H464 0.931 . S
C452 C451 1.291 . S
C452 C453 1.373 . S
C452 H465 0.929 . S
C453 C452 1.373 . S
C453 C454 1.396 . S
C453 C460 1.403 . S
C454 C444 1.476 1_556 S
C454 N449 1.318 . S
C454 C453 1.396 . S
H455 C450 0.929 . S
O456 Mn432 2.385 . S
O456 C434 1.234 . S
O457 Mn432 2.209 . S
O457 Mn433 2.215 . S
O457 C434 1.283 . S
O458 Mn432 2.094 . S
O458 C436 1.240 1_554 S
O459 Mn433 2.117 1_556 S
O459 C436 1.264 . S
C460 C453 1.403 . S
C460 C461 1.399 . S
C460 H466 0.929 . S
C461 C441 1.449 1_556 S
C461 C460 1.399 . S
C461 H467 0.930 . S
H462 C442 0.931 . S
H463 C443 0.930 . S
H464 C451 0.931 . S
H465 C452 0.929 . S
H466 C460 0.929 . S
H467 C461 0.930 . S
Mn468 O473 2.095 . S
Mn468 O483 2.162 . S
Mn468 O484 2.297 . S
Mn468 O492 2.385 . S
Mn468 O493 2.209 . S
Mn468 O494 2.094 . S
Mn469 O474 2.121 . S
Mn469 N476 2.257 . S
Mn469 N485 2.282 . S
Mn469 O493 2.215 . S
Mn469 O495 2.117 . S
C470 O492 1.234 . S
C470 O493 1.283 . S
C471 O483 1.281 . S
C471 O484 1.236 . S
C472 O494 1.240 . S
C472 O495 1.264 . S
O473 Mn468 2.095 . S
O473 C482 1.250 . S
O474 Mn469 2.121 . S
O474 C482 1.258 . S
C475 N476 1.326 . S
C475 C479 1.460 . S
C475 H481 0.929 . S
N476 Mn469 2.257 . S
N476 C475 1.326 . S
N476 C480 1.362 . S
C477 C478 1.258 1_545 S
C477 C480 1.431 . S
C477 C497 1.449 . S
C478 C477 1.258 1_565 S
C478 C479 1.477 1_565 S
C478 H498 0.931 . S
C479 C475 1.460 . S
C479 C478 1.477 1_545 S
C479 H499 0.930 1_545 S
C480 N476 1.362 . S
C480 C477 1.431 . S
C480 C490 1.476 . S
H481 C475 0.929 . S
C482 O473 1.250 . S
C482 O474 1.258 . S
O483 Mn468 2.162 . S
O483 C471 1.281 . S
O484 Mn468 2.297 . S
O484 C471 1.236 . S
N485 Mn469 2.282 . S
N485 C486 1.328 . S
N485 C490 1.318 . S
C486 N485 1.328 . S
C486 C487 1.457 1_554 S
C486 H491 0.929 . S
C487 C486 1.457 1_556 S
C487 C488 1.291 . S
C487 H500 0.931 . S
C488 C487 1.291 . S
C488 C489 1.373 1_556 S
C488 H501 0.929 . S
C489 C488 1.373 1_554 S
C489 C490 1.396 . S
C489 C496 1.402 . S
C490 C480 1.476 . S
C490 N485 1.318 . S
C490 C489 1.396 . S
H491 C486 0.929 . S
O492 Mn468 2.385 . S
O492 C470 1.234 . S
O493 Mn468 2.209 . S
O493 Mn469 2.215 . S
O493 C470 1.283 . S
O494 Mn468 2.094 . S
O494 C472 1.240 . S
O495 Mn469 2.117 . S
O495 C472 1.264 . S
C496 C489 1.402 . S
C496 C497 1.401 . S
C496 H502 0.928 1_554 S
C497 C477 1.449 . S
C497 C496 1.401 . S
C497 H503 0.930 1_545 S
H498 C478 0.931 . S
H499 C479 0.930 1_565 S
H500 C487 0.931 . S
H501 C488 0.929 . S
H502 C496 0.928 1_556 S
H503 C497 0.930 1_565 S
Mn504 O509 2.095 . S
Mn504 O519 2.162 . S
Mn504 O520 2.297 . S
Mn504 O528 2.385 . S
Mn504 O529 2.209 . S
Mn504 O530 2.094 . S
Mn505 O510 2.121 . S
Mn505 N512 2.257 . S
Mn505 N521 2.282 . S
Mn505 O529 2.215 . S
Mn505 O531 2.117 . S
C506 O528 1.234 . S
C506 O529 1.283 . S
C507 O519 1.281 . S
C507 O520 1.236 . S
C508 O530 1.240 . S
C508 O531 1.264 . S
O509 Mn504 2.095 . S
O509 C518 1.250 . S
O510 Mn505 2.121 . S
O510 C518 1.258 . S
C511 N512 1.326 . S
C511 C515 1.460 . S
C511 H517 0.929 . S
N512 Mn505 2.257 . S
N512 C511 1.326 . S
N512 C516 1.362 . S
C513 C514 1.258 . S
C513 C516 1.431 . S
C513 C533 1.449 . S
C514 C513 1.258 . S
C514 C515 1.477 . S
C514 H534 0.931 . S
C515 C511 1.460 . S
C515 C514 1.477 . S
C515 H535 0.930 . S
C516 N512 1.362 . S
C516 C513 1.431 . S
C516 C526 1.476 . S
H517 C511 0.929 . S
C518 O509 1.250 . S
C518 O510 1.258 . S
O519 Mn504 2.162 . S
O519 C507 1.281 . S
O520 Mn504 2.297 . S
O520 C507 1.236 . S
N521 Mn505 2.282 . S
N521 C522 1.328 . S
N521 C526 1.318 . S
C522 N521 1.328 . S
C522 C523 1.457 . S
C522 H527 0.929 . S
C523 C522 1.457 . S
C523 C524 1.291 . S
C523 H536 0.931 . S
C524 C523 1.291 . S
C524 C525 1.373 . S
C524 H537 0.929 . S
C525 C524 1.373 . S
C525 C526 1.396 . S
C525 C532 1.403 . S
C526 C516 1.476 . S
C526 N521 1.318 . S
C526 C525 1.396 . S
H527 C522 0.929 . S
O528 Mn504 2.385 . S
O528 C506 1.234 . S
O529 Mn504 2.209 . S
O529 Mn505 2.215 . S
O529 C506 1.283 . S
O530 Mn504 2.094 . S
O530 C508 1.240 . S
O531 Mn505 2.117 . S
O531 C508 1.264 . S
C532 C525 1.403 . S
C532 C533 1.399 . S
C532 H538 0.929 . S
C533 C513 1.449 . S
C533 C532 1.399 . S
C533 H539 0.930 . S
H534 C514 0.931 . S
H535 C515 0.930 . S
H536 C523 0.931 . S
H537 C524 0.929 . S
H538 C532 0.929 . S
H539 C533 0.930 . S
Mn540 O545 2.095 . S
Mn540 O555 2.162 . S
Mn540 O556 2.297 . S
Mn540 O564 2.385 . S
Mn540 O565 2.209 . S
Mn540 O566 2.094 . S
Mn541 O546 2.121 . S
Mn541 N548 2.257 . S
Mn541 N557 2.282 . S
Mn541 O565 2.215 . S
Mn541 O567 2.117 . S
C542 O564 1.234 . S
C542 O565 1.283 . S
C543 O555 1.281 . S
C543 O556 1.236 . S
C544 O566 1.240 . S
C544 O567 1.264 . S
O545 Mn540 2.095 . S
O545 C554 1.250 . S
O546 Mn541 2.121 . S
O546 C554 1.258 . S
C547 N548 1.326 . S
C547 C551 1.460 1_565 S
C547 H553 0.929 . S
N548 Mn541 2.257 . S
N548 C547 1.326 . S
N548 C552 1.362 . S
C549 C550 1.258 . S
C549 C552 1.431 1_545 S
C549 C569 1.449 . S
C550 C549 1.258 . S
C550 C551 1.477 . S
C550 H570 0.931 . S
C551 C547 1.460 1_545 S
C551 C550 1.477 . S
C551 H571 0.930 . S
C552 N548 1.362 . S
C552 C549 1.431 1_565 S
C552 C562 1.476 . S
H553 C547 0.929 . S
C554 O545 1.250 . S
C554 O546 1.258 . S
O555 Mn540 2.162 . S
O555 C543 1.281 . S
O556 Mn540 2.297 . S
O556 C543 1.236 . S
N557 Mn541 2.282 . S
N557 C558 1.328 . S
N557 C562 1.318 . S
C558 N557 1.328 . S
C558 C559 1.457 . S
C558 H563 0.929 . S
C559 C558 1.457 . S
C559 C560 1.291 . S
C559 H572 0.931 . S
C560 C559 1.291 . S
C560 C561 1.373 . S
C560 H573 0.929 . S
C561 C560 1.373 . S
C561 C562 1.396 . S
C561 C568 1.403 . S
C562 C552 1.476 . S
C562 N557 1.318 . S
C562 C561 1.396 . S
H563 C558 0.929 . S
O564 Mn540 2.385 . S
O564 C542 1.234 . S
O565 Mn540 2.209 . S
O565 Mn541 2.215 . S
O565 C542 1.283 . S
O566 Mn540 2.094 . S
O566 C544 1.240 . S
O567 Mn541 2.117 . S
O567 C544 1.264 . S
C568 C561 1.403 . S
C568 C569 1.399 1_565 S
C568 H574 0.929 . S
C569 C549 1.449 . S
C569 C568 1.399 1_545 S
C569 H575 0.930 . S
H570 C550 0.931 . S
H571 C551 0.930 . S
H572 C559 0.931 . S
H573 C560 0.929 . S
H574 C568 0.929 . S
H575 C569 0.930 . S
Mn576 O581 2.095 . S
Mn576 O591 2.162 . S
Mn576 O592 2.297 1_545 S
Mn576 O600 2.385 1_545 S
Mn576 O601 2.209 1_545 S
Mn576 O602 2.094 . S
Mn577 O582 2.121 1_565 S
Mn577 N584 2.257 . S
Mn577 N593 2.282 . S
Mn577 O601 2.215 . S
Mn577 O603 2.117 1_565 S
C578 O600 1.234 . S
C578 O601 1.283 . S
C579 O591 1.281 . S
C579 O592 1.236 1_545 S
C580 O602 1.240 . S
C580 O603 1.264 . S
O581 Mn576 2.095 . S
O581 C590 1.250 . S
O582 Mn577 2.121 1_545 S
O582 C590 1.258 . S
C583 N584 1.326 . S
C583 C587 1.460 . S
C583 H589 0.926 . S
N584 Mn577 2.257 . S
N584 C583 1.326 . S
N584 C588 1.362 . S
C585 C586 1.258 . S
C585 C588 1.431 . S
C585 C605 1.449 . S
C586 C585 1.258 . S
C586 C587 1.477 . S
C586 H606 0.931 . S
C587 C583 1.460 . S
C587 C586 1.477 . S
C587 H607 0.930 . S
C588 N584 1.362 . S
C588 C585 1.431 . S
C588 C598 1.476 . S
H589 C583 0.926 . S
C590 O581 1.250 . S
C590 O582 1.258 . S
O591 Mn576 2.162 . S
O591 C579 1.281 . S
O592 Mn576 2.297 1_565 S
O592 C579 1.236 1_565 S
N593 Mn577 2.282 . S
N593 C594 1.328 . S
N593 C598 1.318 . S
C594 N593 1.328 . S
C594 C595 1.457 . S
C594 H599 0.929 . S
C595 C594 1.457 . S
C595 C596 1.291 . S
C595 H608 0.931 . S
C596 C595 1.291 . S
C596 C597 1.373 . S
C596 H609 0.929 . S
C597 C596 1.373 . S
C597 C598 1.396 . S
C597 C604 1.403 . S
C598 C588 1.476 . S
C598 N593 1.318 . S
C598 C597 1.396 . S
H599 C594 0.929 . S
O600 Mn576 2.385 1_565 S
O600 C578 1.234 . S
O601 Mn576 2.209 1_565 S
O601 Mn577 2.215 . S
O601 C578 1.283 . S
O602 Mn576 2.094 . S
O602 C580 1.240 . S
O603 Mn577 2.117 1_545 S
O603 C580 1.264 . S
C604 C597 1.403 . S
C604 C605 1.399 . S
C604 H610 0.929 . S
C605 C585 1.449 . S
C605 C604 1.399 . S
C605 H611 0.930 . S
H606 C586 0.931 . S
H607 C587 0.930 . S
H608 C595 0.931 . S
H609 C596 0.929 . S
H610 C604 0.929 . S
H611 C605 0.930 . S
Mn612 O617 2.095 . S
Mn612 O627 2.162 . S
Mn612 O628 2.297 . S
Mn612 O636 2.385 . S
Mn612 O637 2.209 . S
Mn612 O638 2.094 . S
Mn613 O618 2.121 . S
Mn613 N620 2.257 . S
Mn613 N629 2.282 . S
Mn613 O637 2.215 . S
Mn613 O639 2.117 . S
C614 O636 1.234 . S
C614 O637 1.283 . S
C615 O627 1.281 . S
C615 O628 1.236 . S
C616 O638 1.240 . S
C616 O639 1.264 . S
O617 Mn612 2.095 . S
O617 C626 1.250 . S
O618 Mn613 2.121 . S
O618 C626 1.258 . S
C619 N620 1.326 . S
C619 C623 1.460 . S
C619 H625 0.929 . S
N620 Mn613 2.257 . S
N620 C619 1.326 . S
N620 C624 1.362 . S
C621 C622 1.258 . S
C621 C624 1.431 . S
C621 C641 1.449 . S
C622 C621 1.258 . S
C622 C623 1.477 . S
C622 H642 0.931 . S
C623 C619 1.460 . S
C623 C622 1.477 . S
C623 H643 0.930 . S
C624 N620 1.362 . S
C624 C621 1.431 . S
C624 C634 1.476 . S
H625 C619 0.929 . S
C626 O617 1.250 . S
C626 O618 1.258 . S
O627 Mn612 2.162 . S
O627 C615 1.281 . S
O628 Mn612 2.297 . S
O628 C615 1.236 . S
N629 Mn613 2.282 . S
N629 C630 1.328 . S
N629 C634 1.318 . S
C630 N629 1.328 . S
C630 C631 1.457 . S
C630 H635 0.929 . S
C631 C630 1.457 . S
C631 C632 1.291 . S
C631 H644 0.931 . S
C632 C631 1.291 . S
C632 C633 1.373 . S
C632 H645 0.929 . S
C633 C632 1.373 . S
C633 C634 1.396 . S
C633 C640 1.403 . S
C634 C624 1.476 . S
C634 N629 1.318 . S
C634 C633 1.396 . S
H635 C630 0.929 . S
O636 Mn612 2.385 . S
O636 C614 1.234 . S
O637 Mn612 2.209 . S
O637 Mn613 2.215 . S
O637 C614 1.283 . S
O638 Mn612 2.094 . S
O638 C616 1.240 . S
O639 Mn613 2.117 . S
O639 C616 1.264 . S
C640 C633 1.403 . S
C640 C641 1.399 . S
C640 H646 0.929 . S
C641 C621 1.449 . S
C641 C640 1.399 . S
C641 H647 0.930 . S
H642 C622 0.931 . S
H643 C623 0.930 . S
H644 C631 0.931 . S
H645 C632 0.929 . S
H646 C640 0.929 . S
H647 C641 0.930 . S
Mn648 O653 2.095 . S
Mn648 O663 2.162 . S
Mn648 O664 2.297 . S
Mn648 O672 2.385 . S
Mn648 O673 2.209 . S
Mn648 O674 2.094 . S
Mn649 O654 2.121 . S
Mn649 N656 2.257 . S
Mn649 N665 2.282 . S
Mn649 O673 2.215 . S
Mn649 O675 2.117 . S
C650 O672 1.234 . S
C650 O673 1.283 . S
C651 O663 1.281 . S
C651 O664 1.236 . S
C652 O674 1.240 . S
C652 O675 1.264 . S
O653 Mn648 2.095 . S
O653 C662 1.250 . S
O654 Mn649 2.121 . S
O654 C662 1.258 . S
C655 N656 1.326 . S
C655 C659 1.460 . S
C655 H661 0.929 . S
N656 Mn649 2.257 . S
N656 C655 1.326 . S
N656 C660 1.362 . S
C657 C658 1.258 . S
C657 C660 1.431 . S
C657 C677 1.449 . S
C658 C657 1.258 . S
C658 C659 1.477 . S
C658 H678 0.931 . S
C659 C655 1.460 . S
C659 C658 1.477 . S
C659 H679 0.930 . S
C660 N656 1.362 . S
C660 C657 1.431 . S
C660 C670 1.476 . S
H661 C655 0.929 . S
C662 O653 1.250 . S
C662 O654 1.258 . S
O663 Mn648 2.162 . S
O663 C651 1.281 . S
O664 Mn648 2.297 . S
O664 C651 1.236 . S
N665 Mn649 2.282 . S
N665 C666 1.328 . S
N665 C670 1.318 . S
C666 N665 1.328 . S
C666 C667 1.457 . S
C666 H671 0.929 . S
C667 C666 1.457 . S
C667 C668 1.291 . S
C667 H680 0.931 . S
C668 C667 1.291 . S
C668 C669 1.373 . S
C668 H681 0.929 . S
C669 C668 1.373 . S
C669 C670 1.396 . S
C669 C676 1.403 . S
C670 C660 1.476 . S
C670 N665 1.318 . S
C670 C669 1.396 . S
H671 C666 0.929 . S
O672 Mn648 2.385 . S
O672 C650 1.234 . S
O673 Mn648 2.209 . S
O673 Mn649 2.215 . S
O673 C650 1.283 . S
O674 Mn648 2.094 . S
O674 C652 1.240 . S
O675 Mn649 2.117 . S
O675 C652 1.264 . S
C676 C669 1.403 . S
C676 C677 1.399 . S
C676 H682 0.929 . S
C677 C657 1.449 . S
C677 C676 1.399 . S
C677 H683 0.930 . S
H678 C658 0.931 . S
H679 C659 0.930 . S
H680 C667 0.931 . S
H681 C668 0.929 . S
H682 C676 0.929 . S
H683 C677 0.930 . S
Mn684 O689 2.095 . S
Mn684 O699 2.162 . S
Mn684 O700 2.297 . S
Mn684 O708 2.385 . S
Mn684 O709 2.209 . S
Mn684 O710 2.094 . S
Mn685 O690 2.121 . S
Mn685 N692 2.257 . S
Mn685 N701 2.282 . S
Mn685 O709 2.215 . S
Mn685 O711 2.117 . S
C686 O708 1.234 . S
C686 O709 1.283 . S
C687 O699 1.281 . S
C687 O700 1.236 . S
C688 O710 1.240 . S
C688 O711 1.264 . S
O689 Mn684 2.095 . S
O689 C698 1.250 . S
O690 Mn685 2.121 . S
O690 C698 1.258 . S
C691 N692 1.326 . S
C691 C695 1.460 . S
C691 H697 0.929 . S
N692 Mn685 2.257 . S
N692 C691 1.326 . S
N692 C696 1.362 . S
C693 C694 1.258 . S
C693 C696 1.431 . S
C693 C713 1.449 . S
C694 C693 1.258 . S
C694 C695 1.477 . S
C694 H714 0.931 . S
C695 C691 1.460 . S
C695 C694 1.477 . S
C695 H715 0.930 . S
C696 N692 1.362 . S
C696 C693 1.431 . S
C696 C706 1.476 . S
H697 C691 0.929 . S
C698 O689 1.250 . S
C698 O690 1.258 . S
O699 Mn684 2.162 . S
O699 C687 1.281 . S
O700 Mn684 2.297 . S
O700 C687 1.236 . S
N701 Mn685 2.282 . S
N701 C702 1.328 . S
N701 C706 1.318 . S
C702 N701 1.328 . S
C702 C703 1.457 . S
C702 H707 0.929 . S
C703 C702 1.457 . S
C703 C704 1.291 . S
C703 H716 0.931 . S
C704 C703 1.291 . S
C704 C705 1.373 . S
C704 H717 0.929 . S
C705 C704 1.373 . S
C705 C706 1.396 . S
C705 C712 1.403 . S
C706 C696 1.476 . S
C706 N701 1.318 . S
C706 C705 1.396 . S
H707 C702 0.929 . S
O708 Mn684 2.385 . S
O708 C686 1.234 . S
O709 Mn684 2.209 . S
O709 Mn685 2.215 . S
O709 C686 1.283 . S
O710 Mn684 2.094 . S
O710 C688 1.240 . S
O711 Mn685 2.117 . S
O711 C688 1.264 . S
C712 C705 1.403 . S
C712 C713 1.399 . S
C712 H718 0.929 . S
C713 C693 1.449 . S
C713 C712 1.399 . S
C713 H719 0.930 . S
H714 C694 0.931 . S
H715 C695 0.930 . S
H716 C703 0.931 . S
H717 C704 0.929 . S
H718 C712 0.929 . S
H719 C713 0.930 . S
Mn720 O725 2.095 . S
Mn720 O735 2.162 . S
Mn720 O736 2.297 . S
Mn720 O744 2.385 . S
Mn720 O745 2.209 . S
Mn720 O746 2.094 . S
Mn721 O726 2.121 1_556 S
Mn721 N728 2.257 . S
Mn721 N737 2.282 . S
Mn721 O745 2.215 1_556 S
Mn721 O747 2.117 . S
C722 O744 1.234 . S
C722 O745 1.283 . S
C723 O735 1.281 . S
C723 O736 1.236 . S
C724 O746 1.240 1_556 S
C724 O747 1.264 . S
O725 Mn720 2.095 . S
O725 C734 1.250 . S
O726 Mn721 2.121 1_554 S
O726 C734 1.258 . S
C727 N728 1.326 1_554 S
C727 C731 1.460 . S
C727 H733 0.929 . S
N728 Mn721 2.257 . S
N728 C727 1.326 1_556 S
N728 C732 1.362 . S
C729 C730 1.258 . S
C729 C732 1.431 . S
C729 C749 1.449 . S
C730 C729 1.258 . S
C730 C731 1.477 1_556 S
C730 H750 0.931 . S
C731 C727 1.460 . S
C731 C730 1.477 1_554 S
C731 H751 0.930 . S
C732 N728 1.362 . S
C732 C729 1.431 . S
C732 C742 1.476 . S
H733 C727 0.929 . S
C734 O725 1.250 . S
C734 O726 1.258 . S
O735 Mn720 2.162 . S
O735 C723 1.281 . S
O736 Mn720 2.297 . S
O736 C723 1.236 . S
N737 Mn721 2.282 . S
N737 C738 1.328 . S
N737 C742 1.318 . S
C738 N737 1.328 . S
C738 C739 1.457 . S
C738 H743 0.929 . S
C739 C738 1.457 . S
C739 C740 1.291 . S
C739 H752 0.931 . S
C740 C739 1.291 . S
C740 C741 1.373 . S
C740 H753 0.929 . S
C741 C740 1.373 . S
C741 C742 1.396 . S
C741 C748 1.403 . S
C742 C732 1.476 . S
C742 N737 1.318 . S
C742 C741 1.396 . S
H743 C738 0.929 . S
O744 Mn720 2.385 . S
O744 C722 1.234 . S
O745 Mn720 2.209 . S
O745 Mn721 2.215 1_554 S
O745 C722 1.283 . S
O746 Mn720 2.094 . S
O746 C724 1.240 1_554 S
O747 Mn721 2.117 . S
O747 C724 1.264 . S
C748 C741 1.403 . S
C748 C749 1.399 . S
C748 H754 0.929 . S
C749 C729 1.449 . S
C749 C748 1.399 . S
C749 H755 0.930 . S
H750 C730 0.931 . S
H751 C731 0.930 . S
H752 C739 0.931 . S
H753 C740 0.929 . S
H754 C748 0.929 . S
H755 C749 0.930 . S
Mn756 O761 2.095 . S
Mn756 O771 2.162 . S
Mn756 O772 2.297 . S
Mn756 O780 2.385 . S
Mn756 O781 2.209 . S
Mn756 O782 2.094 . S
Mn757 O762 2.121 . S
Mn757 N764 2.257 . S
Mn757 N773 2.282 . S
Mn757 O781 2.215 . S
Mn757 O783 2.117 . S
C758 O780 1.234 . S
C758 O781 1.283 . S
C759 O771 1.281 . S
C759 O772 1.236 . S
C760 O782 1.240 . S
C760 O783 1.264 . S
O761 Mn756 2.095 . S
O761 C770 1.250 . S
O762 Mn757 2.121 . S
O762 C770 1.258 . S
C763 N764 1.326 . S
C763 C767 1.460 . S
C763 H769 0.929 . S
N764 Mn757 2.257 . S
N764 C763 1.326 . S
N764 C768 1.362 . S
C765 C766 1.258 . S
C765 C768 1.431 . S
C765 C785 1.449 . S
C766 C765 1.258 . S
C766 C767 1.477 . S
C766 H786 0.931 . S
C767 C763 1.460 . S
C767 C766 1.477 . S
C767 H787 0.930 . S
C768 N764 1.362 . S
C768 C765 1.431 . S
C768 C778 1.476 . S
H769 C763 0.929 . S
C770 O761 1.250 . S
C770 O762 1.258 . S
O771 Mn756 2.162 . S
O771 C759 1.281 . S
O772 Mn756 2.297 . S
O772 C759 1.236 . S
N773 Mn757 2.282 . S
N773 C774 1.328 . S
N773 C778 1.318 . S
C774 N773 1.328 . S
C774 C775 1.457 . S
C774 H779 0.929 . S
C775 C774 1.457 . S
C775 C776 1.291 . S
C775 H788 0.931 . S
C776 C775 1.291 . S
C776 C777 1.373 . S
C776 H789 0.929 . S
C777 C776 1.373 . S
C777 C778 1.396 . S
C777 C784 1.403 . S
C778 C768 1.476 . S
C778 N773 1.318 . S
C778 C777 1.396 . S
H779 C774 0.929 . S
O780 Mn756 2.385 . S
O780 C758 1.234 . S
O781 Mn756 2.209 . S
O781 Mn757 2.215 . S
O781 C758 1.283 . S
O782 Mn756 2.094 . S
O782 C760 1.240 . S
O783 Mn757 2.117 . S
O783 C760 1.264 . S
C784 C777 1.403 . S
C784 C785 1.399 . S
C784 H790 0.929 . S
C785 C765 1.449 . S
C785 C784 1.399 . S
C785 H791 0.930 . S
H786 C766 0.931 . S
H787 C767 0.930 . S
H788 C775 0.931 . S
H789 C776 0.929 . S
H790 C784 0.929 . S
H791 C785 0.930 . S
Mn792 O797 2.095 . S
Mn792 O807 2.162 . S
Mn792 O808 2.297 . S
Mn792 O816 2.385 . S
Mn792 O817 2.209 . S
Mn792 O818 2.094 . S
Mn793 O798 2.121 . S
Mn793 N800 2.257 . S
Mn793 N809 2.282 . S
Mn793 O817 2.215 . S
Mn793 O819 2.117 . S
C794 O816 1.234 . S
C794 O817 1.283 . S
C795 O807 1.281 . S
C795 O808 1.236 . S
C796 O818 1.240 . S
C796 O819 1.264 . S
O797 Mn792 2.095 . S
O797 C806 1.250 . S
O798 Mn793 2.121 . S
O798 C806 1.258 . S
C799 N800 1.326 . S
C799 C803 1.460 . S
C799 H805 0.929 . S
N800 Mn793 2.257 . S
N800 C799 1.326 . S
N800 C804 1.362 . S
C801 C802 1.258 . S
C801 C804 1.431 . S
C801 C821 1.449 . S
C802 C801 1.258 . S
C802 C803 1.477 . S
C802 H822 0.931 . S
C803 C799 1.460 . S
C803 C802 1.477 . S
C803 H823 0.930 . S
C804 N800 1.362 . S
C804 C801 1.431 . S
C804 C814 1.476 . S
H805 C799 0.929 . S
C806 O797 1.250 . S
C806 O798 1.258 . S
O807 Mn792 2.162 . S
O807 C795 1.281 . S
O808 Mn792 2.297 . S
O808 C795 1.236 . S
N809 Mn793 2.282 . S
N809 C810 1.328 . S
N809 C814 1.318 . S
C810 N809 1.328 . S
C810 C811 1.457 . S
C810 H815 0.929 . S
C811 C810 1.457 . S
C811 C812 1.291 . S
C811 H824 0.931 . S
C812 C811 1.291 . S
C812 C813 1.373 . S
C812 H825 0.929 . S
C813 C812 1.373 . S
C813 C814 1.396 . S
C813 C820 1.403 . S
C814 C804 1.476 . S
C814 N809 1.318 . S
C814 C813 1.396 . S
H815 C810 0.929 . S
O816 Mn792 2.385 . S
O816 C794 1.234 . S
O817 Mn792 2.209 . S
O817 Mn793 2.215 . S
O817 C794 1.283 . S
O818 Mn792 2.094 . S
O818 C796 1.240 . S
O819 Mn793 2.117 . S
O819 C796 1.264 . S
C820 C813 1.403 . S
C820 C821 1.399 . S
C820 H826 0.929 . S
C821 C801 1.449 . S
C821 C820 1.399 . S
C821 H827 0.930 . S
H822 C802 0.931 . S
H823 C803 0.930 . S
H824 C811 0.931 . S
H825 C812 0.929 . S
H826 C820 0.929 . S
H827 C821 0.930 . S
Mn828 O833 2.095 . S
Mn828 O843 2.162 . S
Mn828 O844 2.297 . S
Mn828 O852 2.385 . S
Mn828 O853 2.209 . S
Mn828 O854 2.094 . S
Mn829 O834 2.121 . S
Mn829 N836 2.257 . S
Mn829 N845 2.282 . S
Mn829 O853 2.215 . S
Mn829 O855 2.117 . S
C830 O852 1.234 . S
C830 O853 1.283 . S
C831 O843 1.281 . S
C831 O844 1.236 . S
C832 O854 1.240 . S
C832 O855 1.264 . S
O833 Mn828 2.095 . S
O833 C842 1.250 . S
O834 Mn829 2.121 . S
O834 C842 1.258 . S
C835 N836 1.326 . S
C835 C839 1.460 . S
C835 H841 0.929 . S
N836 Mn829 2.257 . S
N836 C835 1.326 . S
N836 C840 1.362 . S
C837 C838 1.258 . S
C837 C840 1.431 . S
C837 C857 1.449 . S
C838 C837 1.258 . S
C838 C839 1.477 . S
C838 H858 0.931 . S
C839 C835 1.460 . S
C839 C838 1.477 . S
C839 H859 0.930 . S
C840 N836 1.362 . S
C840 C837 1.431 . S
C840 C850 1.476 . S
H841 C835 0.929 . S
C842 O833 1.250 . S
C842 O834 1.258 . S
O843 Mn828 2.162 . S
O843 C831 1.281 . S
O844 Mn828 2.297 . S
O844 C831 1.236 . S
N845 Mn829 2.282 . S
N845 C846 1.328 . S
N845 C850 1.318 . S
C846 N845 1.328 . S
C846 C847 1.457 . S
C846 H851 0.929 . S
C847 C846 1.457 . S
C847 C848 1.291 . S
C847 H860 0.931 . S
C848 C847 1.291 . S
C848 C849 1.373 . S
C848 H861 0.929 . S
C849 C848 1.373 . S
C849 C850 1.396 . S
C849 C856 1.403 . S
C850 C840 1.476 . S
C850 N845 1.318 . S
C850 C849 1.396 . S
H851 C846 0.929 . S
O852 Mn828 2.385 . S
O852 C830 1.234 . S
O853 Mn828 2.209 . S
O853 Mn829 2.215 . S
O853 C830 1.283 . S
O854 Mn828 2.094 . S
O854 C832 1.240 . S
O855 Mn829 2.117 . S
O855 C832 1.264 . S
C856 C849 1.403 . S
C856 C857 1.399 . S
C856 H862 0.929 . S
C857 C837 1.449 . S
C857 C856 1.399 . S
C857 H863 0.930 . S
H858 C838 0.931 . S
H859 C839 0.930 . S
H860 C847 0.931 . S
H861 C848 0.929 . S
H862 C856 0.929 . S
H863 C857 0.930 . S
Tb864 C873 2.764 . S
Tb864 O874 2.325 . S
Tb864 O877 2.303 . S
Tb864 O881 2.322 . S
Tb864 O882 2.349 . S
Tb864 O885 2.415 . S
Tb864 O886 2.399 . S
Tb865 O875 2.322 1_545 S
Tb865 O876 2.349 1_554 S
Tb865 O878 2.415 1_455 S
Tb865 O879 2.399 1_454 S
Tb865 O880 2.325 . S
Tb865 O883 2.303 . S
Tb865 C894 2.764 1_455 S
C866 O882 1.261 . S
C866 O883 1.257 . S
C867 C870 1.358 . S
C867 C871 1.332 . S
C867 C873 1.504 . S
C868 C869 1.373 . S
C868 C872 1.308 . S
C869 C868 1.373 . S
C869 C870 1.429 . S
C869 H896 0.932 . S
C870 C867 1.358 . S
C870 C869 1.429 . S
C870 H897 0.930 . S
C871 C867 1.332 . S
C871 C872 1.394 . S
C871 H898 0.932 . S
C872 C868 1.308 . S
C872 C871 1.394 . S
C872 H899 0.929 . S
C873 Tb864 2.764 . S
C873 C867 1.504 . S
C873 O885 1.239 . S
C873 O886 1.263 . S
O874 Tb864 2.325 . S
O874 C884 1.236 1_545 S
O875 Tb865 2.322 1_565 S
O875 C884 1.257 . S
O876 Tb865 2.349 1_556 S
O876 C887 1.261 . S
O877 Tb864 2.303 . S
O877 C887 1.257 1_554 S
O878 Tb865 2.415 1_655 S
O878 C894 1.239 . S
O879 Tb865 2.399 1_656 S
O879 C894 1.263 1_556 S
O880 Tb865 2.325 . S
O880 C895 1.236 . S
O881 Tb864 2.322 . S
O881 C895 1.257 . S
O882 Tb864 2.349 . S
O882 C866 1.261 . S
O883 Tb865 2.303 . S
O883 C866 1.257 . S
C884 O874 1.236 1_565 S
C884 O875 1.257 . S
O885 Tb864 2.415 . S
O885 C873 1.239 . S
O886 Tb864 2.399 . S
O886 C873 1.263 . S
C887 O876 1.261 . S
C887 O877 1.257 1_556 S
C888 C891 1.358 1_554 S
C888 C892 1.332 . S
C888 C894 1.504 . S
C889 C890 1.373 . S
C889 C893 1.308 1_556 S
C890 C889 1.373 . S
C890 C891 1.429 . S
C890 H900 0.932 . S
C891 C888 1.358 1_556 S
C891 C890 1.429 . S
C891 H901 0.930 . S
C892 C888 1.332 . S
C892 C893 1.394 . S
C892 H902 0.932 . S
C893 C889 1.308 1_554 S
C893 C892 1.394 . S
C893 H903 0.929 . S
C894 Tb865 2.764 1_655 S
C894 O878 1.239 . S
C894 O879 1.263 1_554 S
C894 C888 1.504 . S
C895 O880 1.236 . S
C895 O881 1.257 . S
H896 C869 0.932 . S
H897 C870 0.930 . S
H898 C871 0.932 . S
H899 C872 0.929 . S
H900 C890 0.932 . S
H901 C891 0.930 . S
H902 C892 0.932 . S
H903 C893 0.929 . S
Tb904 C913 2.764 . S
Tb904 O914 2.325 . S
Tb904 O917 2.303 . S
Tb904 O921 2.322 . S
Tb904 O922 2.349 . S
Tb904 O925 2.415 . S
Tb904 O926 2.399 . S
Tb905 O915 2.322 . S
Tb905 O916 2.349 . S
Tb905 O918 2.415 . S
Tb905 O919 2.399 . S
Tb905 O920 2.325 . S
Tb905 O923 2.303 . S
Tb905 C934 2.764 . S
C906 O922 1.261 . S
C906 O923 1.257 . S
C907 C910 1.358 . S
C907 C911 1.332 . S
C907 C913 1.504 . S
C908 C909 1.373 . S
C908 C912 1.308 . S
C909 C908 1.373 . S
C909 C910 1.429 . S
C909 H936 0.932 . S
C910 C907 1.358 . S
C910 C909 1.429 . S
C910 H937 0.930 . S
C911 C907 1.332 . S
C911 C912 1.394 . S
C911 H938 0.932 . S
C912 C908 1.308 . S
C912 C911 1.394 . S
C912 H939 0.929 . S
C913 Tb904 2.764 . S
C913 C907 1.504 . S
C913 O925 1.239 . S
C913 O926 1.263 . S
O914 Tb904 2.325 . S
O914 C924 1.236 . S
O915 Tb905 2.322 . S
O915 C924 1.257 . S
O916 Tb905 2.349 . S
O916 C927 1.261 . S
O917 Tb904 2.303 . S
O917 C927 1.257 . S
O918 Tb905 2.415 . S
O918 C934 1.239 . S
O919 Tb905 2.399 . S
O919 C934 1.263 . S
O920 Tb905 2.325 . S
O920 C935 1.236 . S
O921 Tb904 2.322 . S
O921 C935 1.257 . S
O922 Tb904 2.349 . S
O922 C906 1.261 . S
O923 Tb905 2.303 . S
O923 C906 1.257 . S
C924 O914 1.236 . S
C924 O915 1.257 . S
O925 Tb904 2.415 . S
O925 C913 1.239 . S
O926 Tb904 2.399 . S
O926 C913 1.263 . S
C927 O916 1.261 . S
C927 O917 1.257 . S
C928 C931 1.358 . S
C928 C932 1.332 . S
C928 C934 1.504 . S
C929 C930 1.373 . S
C929 C933 1.308 . S
C930 C929 1.373 . S
C930 C931 1.429 . S
C930 H940 0.932 . S
C931 C928 1.358 . S
C931 C930 1.429 . S
C931 H941 0.930 . S
C932 C928 1.332 . S
C932 C933 1.394 . S
C932 H942 0.932 . S
C933 C929 1.308 . S
C933 C932 1.394 . S
C933 H943 0.929 . S
C934 Tb905 2.764 . S
C934 O918 1.239 . S
C934 O919 1.263 . S
C934 C928 1.504 . S
C935 O920 1.236 . S
C935 O921 1.257 . S
H936 C909 0.932 . S
H937 C910 0.930 . S
H938 C911 0.932 . S
H939 C912 0.929 . S
H940 C930 0.932 . S
H941 C931 0.930 . S
H942 C932 0.932 . S
H943 C933 0.929 . S
Tb944 C953 2.764 . S
Tb944 O954 2.325 . S
Tb944 O957 2.303 . S
Tb944 O961 2.322 1_545 S
Tb944 O962 2.349 . S
Tb944 O965 2.415 . S
Tb944 O966 2.399 . S
Tb945 O955 2.322 . S
Tb945 O956 2.349 . S
Tb945 O958 2.415 . S
Tb945 O959 2.399 . S
Tb945 O960 2.325 . S
Tb945 O963 2.303 . S
Tb945 C974 2.764 . S
C946 O962 1.261 . S
C946 O963 1.257 . S
C947 C950 1.358 . S
C947 C951 1.332 . S
C947 C953 1.504 . S
C948 C949 1.373 . S
C948 C952 1.308 . S
C949 C948 1.373 . S
C949 C950 1.429 . S
C949 H976 0.932 . S
C950 C947 1.358 . S
C950 C949 1.429 . S
C950 H977 0.930 . S
C951 C947 1.332 . S
C951 C952 1.394 . S
C951 H978 0.932 . S
C952 C948 1.308 . S
C952 C951 1.394 . S
C952 H979 0.929 . S
C953 Tb944 2.764 . S
C953 C947 1.504 . S
C953 O965 1.239 . S
C953 O966 1.263 . S
O954 Tb944 2.325 . S
O954 C964 1.236 . S
O955 Tb945 2.322 . S
O955 C964 1.257 . S
O956 Tb945 2.349 . S
O956 C967 1.261 . S
O957 Tb944 2.303 . S
O957 C967 1.257 . S
O958 Tb945 2.415 . S
O958 C974 1.239 . S
O959 Tb945 2.399 . S
O959 C974 1.263 . S
O960 Tb945 2.325 . S
O960 C975 1.236 1_545 S
O961 Tb944 2.322 1_565 S
O961 C975 1.257 . S
O962 Tb944 2.349 . S
O962 C946 1.261 . S
O963 Tb945 2.303 . S
O963 C946 1.257 . S
C964 O954 1.236 . S
C964 O955 1.257 . S
O965 Tb944 2.415 . S
O965 C953 1.239 . S
O966 Tb944 2.399 . S
O966 C953 1.263 . S
C967 O956 1.261 . S
C967 O957 1.257 . S
C968 C971 1.358 . S
C968 C972 1.332 1_545 S
C968 C974 1.504 . S
C969 C970 1.373 . S
C969 C973 1.308 . S
C970 C969 1.373 . S
C970 C971 1.429 1_565 S
C970 H980 0.932 1_565 S
C971 C968 1.358 . S
C971 C970 1.429 1_545 S
C971 H981 0.930 . S
C972 C968 1.332 1_565 S
C972 C973 1.394 . S
C972 H982 0.932 . S
C973 C969 1.308 . S
C973 C972 1.394 . S
C973 H983 0.929 . S
C974 Tb945 2.764 . S
C974 O958 1.239 . S
C974 O959 1.263 . S
C974 C968 1.504 . S
C975 O960 1.236 1_565 S
C975 O961 1.257 . S
H976 C949 0.932 . S
H977 C950 0.930 . S
H978 C951 0.932 . S
H979 C952 0.929 . S
H980 C970 0.932 1_545 S
H981 C971 0.930 . S
H982 C972 0.932 . S
H983 C973 0.929 . S
Tb984 C993 2.764 . S
Tb984 O994 2.325 . S
Tb984 O997 2.303 . S
Tb984 O1001 2.322 . S
Tb984 O1002 2.349 . S
Tb984 O1005 2.415 . S
Tb984 O1006 2.399 . S
Tb985 O995 2.322 . S
Tb985 O996 2.349 . S
Tb985 O998 2.415 . S
Tb985 O999 2.399 . S
Tb985 O1000 2.325 . S
Tb985 O1003 2.303 . S
Tb985 C1014 2.764 . S
C986 O1002 1.261 . S
C986 O1003 1.257 . S
C987 C990 1.358 . S
C987 C991 1.332 . S
C987 C993 1.504 . S
C988 C989 1.373 . S
C988 C992 1.308 . S
C989 C988 1.373 . S
C989 C990 1.429 . S
C989 H1016 0.932 . S
C990 C987 1.358 . S
C990 C989 1.429 . S
C990 H1017 0.930 . S
C991 C987 1.332 . S
C991 C992 1.394 . S
C991 H1018 0.932 . S
C992 C988 1.308 . S
C992 C991 1.394 . S
C992 H1019 0.929 . S
C993 Tb984 2.764 . S
C993 C987 1.504 . S
C993 O1005 1.239 . S
C993 O1006 1.263 . S
O994 Tb984 2.325 . S
O994 C1004 1.236 . S
O995 Tb985 2.322 . S
O995 C1004 1.257 . S
O996 Tb985 2.349 . S
O996 C1007 1.261 . S
O997 Tb984 2.303 . S
O997 C1007 1.257 . S
O998 Tb985 2.415 . S
O998 C1014 1.239 . S
O999 Tb985 2.399 . S
O999 C1014 1.263 . S
O1000 Tb985 2.325 . S
O1000 C1015 1.236 . S
O1001 Tb984 2.322 . S
O1001 C1015 1.257 . S
O1002 Tb984 2.349 . S
O1002 C986 1.261 . S
O1003 Tb985 2.303 . S
O1003 C986 1.257 . S
C1004 O994 1.236 . S
C1004 O995 1.257 . S
O1005 Tb984 2.415 . S
O1005 C993 1.239 . S
O1006 Tb984 2.399 . S
O1006 C993 1.263 . S
C1007 O996 1.261 . S
C1007 O997 1.257 . S
C1008 C1011 1.358 . S
C1008 C1012 1.332 . S
C1008 C1014 1.504 . S
C1009 C1010 1.373 . S
C1009 C1013 1.308 . S
C1010 C1009 1.373 . S
C1010 C1011 1.429 . S
C1010 H1020 0.932 . S
C1011 C1008 1.358 . S
C1011 C1010 1.429 . S
C1011 H1021 0.930 . S
C1012 C1008 1.332 . S
C1012 C1013 1.394 . S
C1012 H1022 0.932 . S
C1013 C1009 1.308 . S
C1013 C1012 1.394 . S
C1013 H1023 0.929 . S
C1014 Tb985 2.764 . S
C1014 O998 1.239 . S
C1014 O999 1.263 . S
C1014 C1008 1.504 . S
C1015 O1000 1.236 . S
C1015 O1001 1.257 . S
H1016 C989 0.932 . S
H1017 C990 0.930 . S
H1018 C991 0.932 . S
H1019 C992 0.929 . S
H1020 C1010 0.932 . S
H1021 C1011 0.930 . S
H1022 C1012 0.932 . S
H1023 C1013 0.929 . S
Tb1024 C1033 2.764 . S
Tb1024 O1034 2.325 . S
Tb1024 O1037 2.303 . S
Tb1024 O1041 2.322 . S
Tb1024 O1042 2.349 . S
Tb1024 O1045 2.415 . S
Tb1024 O1046 2.399 . S
Tb1025 O1035 2.314 1_545 S
Tb1025 O1036 2.349 . S
Tb1025 O1038 2.415 . S
Tb1025 O1039 2.399 . S
Tb1025 O1040 2.325 . S
Tb1025 O1043 2.303 . S
Tb1025 C1054 2.764 . S
C1026 O1042 1.261 1_655 S
C1026 O1043 1.257 1_655 S
C1027 C1030 1.358 . S
C1027 C1031 1.332 . S
C1027 C1033 1.504 . S
C1028 C1029 1.373 . S
C1028 C1032 1.308 . S
C1029 C1028 1.373 . S
C1029 C1030 1.429 . S
C1029 H1056 0.932 . S
C1030 C1027 1.358 . S
C1030 C1029 1.429 . S
C1030 H1057 0.930 . S
C1031 C1027 1.332 . S
C1031 C1032 1.394 . S
C1031 H1058 0.932 . S
C1032 C1028 1.308 . S
C1032 C1031 1.394 . S
C1032 H1059 0.929 . S
C1033 Tb1024 2.764 . S
C1033 C1027 1.504 . S
C1033 O1045 1.239 . S
C1033 O1046 1.263 . S
O1034 Tb1024 2.325 . S
O1034 C1044 1.245 . S
O1035 Tb1025 2.314 1_565 S
O1035 C1044 1.258 1_565 S
O1036 Tb1025 2.349 . S
O1036 C1047 1.261 . S
O1037 Tb1024 2.303 . S
O1037 C1047 1.257 . S
O1038 Tb1025 2.415 . S
O1038 C1054 1.239 . S
O1039 Tb1025 2.399 . S
O1039 C1054 1.263 . S
O1040 Tb1025 2.325 . S
O1040 C1055 1.236 . S
O1041 Tb1024 2.322 . S
O1041 C1055 1.257 . S
O1042 Tb1024 2.349 . S
O1042 C1026 1.261 1_455 S
O1043 Tb1025 2.303 . S
O1043 C1026 1.257 1_455 S
C1044 O1034 1.245 . S
C1044 O1035 1.258 1_545 S
O1045 Tb1024 2.415 . S
O1045 C1033 1.239 . S
O1046 Tb1024 2.399 . S
O1046 C1033 1.263 . S
C1047 O1036 1.261 . S
C1047 O1037 1.257 . S
C1048 C1051 1.358 . S
C1048 C1052 1.332 1_455 S
C1048 C1054 1.504 . S
C1049 C1050 1.373 . S
C1049 C1053 1.308 1_455 S
C1050 C1049 1.373 . S
C1050 C1051 1.429 . S
C1050 H1060 0.932 . S
C1051 C1048 1.358 . S
C1051 C1050 1.429 . S
C1051 H1061 0.930 . S
C1052 C1048 1.332 1_655 S
C1052 C1053 1.394 . S
C1052 H1062 0.932 . S
C1053 C1049 1.308 1_655 S
C1053 C1052 1.394 . S
C1053 H1063 0.929 . S
C1054 Tb1025 2.764 . S
C1054 O1038 1.239 . S
C1054 O1039 1.263 . S
C1054 C1048 1.504 . S
C1055 O1040 1.236 . S
C1055 O1041 1.257 . S
H1056 C1029 0.932 . S
H1057 C1030 0.930 . S
H1058 C1031 0.932 . S
H1059 C1032 0.929 . S
H1060 C1050 0.932 . S
H1061 C1051 0.930 . S
H1062 C1052 0.932 . S
H1063 C1053 0.929 . S
Tb1064 C1073 2.764 . S
Tb1064 O1074 2.325 . S
Tb1064 O1077 2.303 . S
Tb1064 O1081 2.322 . S
Tb1064 O1082 2.349 . S
Tb1064 O1085 2.415 . S
Tb1064 O1086 2.399 . S
Tb1065 O1075 2.322 . S
Tb1065 O1076 2.349 . S
Tb1065 O1078 2.415 . S
Tb1065 O1079 2.399 . S
Tb1065 O1080 2.325 . S
Tb1065 O1083 2.303 . S
Tb1065 C1094 2.764 . S
C1066 O1082 1.261 . S
C1066 O1083 1.257 . S
C1067 C1070 1.358 . S
C1067 C1071 1.332 . S
C1067 C1073 1.504 . S
C1068 C1069 1.373 . S
C1068 C1072 1.308 . S
C1069 C1068 1.373 . S
C1069 C1070 1.429 . S
C1069 H1096 0.932 . S
C1070 C1067 1.358 . S
C1070 C1069 1.429 . S
C1070 H1097 0.930 . S
C1071 C1067 1.332 . S
C1071 C1072 1.394 . S
C1071 H1098 0.932 . S
C1072 C1068 1.308 . S
C1072 C1071 1.394 . S
C1072 H1099 0.929 . S
C1073 Tb1064 2.764 . S
C1073 C1067 1.504 . S
C1073 O1085 1.239 . S
C1073 O1086 1.263 . S
O1074 Tb1064 2.325 . S
O1074 C1084 1.236 . S
O1075 Tb1065 2.322 . S
O1075 C1084 1.257 . S
O1076 Tb1065 2.349 . S
O1076 C1087 1.261 . S
O1077 Tb1064 2.303 . S
O1077 C1087 1.257 . S
O1078 Tb1065 2.415 . S
O1078 C1094 1.239 . S
O1079 Tb1065 2.399 . S
O1079 C1094 1.263 . S
O1080 Tb1065 2.325 . S
O1080 C1095 1.236 . S
O1081 Tb1064 2.322 . S
O1081 C1095 1.257 . S
O1082 Tb1064 2.349 . S
O1082 C1066 1.261 . S
O1083 Tb1065 2.303 . S
O1083 C1066 1.257 . S
C1084 O1074 1.236 . S
C1084 O1075 1.257 . S
O1085 Tb1064 2.415 . S
O1085 C1073 1.239 . S
O1086 Tb1064 2.399 . S
O1086 C1073 1.263 . S
C1087 O1076 1.261 . S
C1087 O1077 1.257 . S
C1088 C1091 1.358 . S
C1088 C1092 1.332 . S
C1088 C1094 1.504 . S
C1089 C1090 1.373 . S
C1089 C1093 1.308 . S
C1090 C1089 1.373 . S
C1090 C1091 1.429 . S
C1090 H1100 0.932 . S
C1091 C1088 1.358 . S
C1091 C1090 1.429 . S
C1091 H1101 0.930 . S
C1092 C1088 1.332 . S
C1092 C1093 1.394 . S
C1092 H1102 0.932 . S
C1093 C1089 1.308 . S
C1093 C1092 1.394 . S
C1093 H1103 0.929 . S
C1094 Tb1065 2.764 . S
C1094 O1078 1.239 . S
C1094 O1079 1.263 . S
C1094 C1088 1.504 . S
C1095 O1080 1.236 . S
C1095 O1081 1.257 . S
H1096 C1069 0.932 . S
H1097 C1070 0.930 . S
H1098 C1071 0.932 . S
H1099 C1072 0.929 . S
H1100 C1090 0.932 . S
H1101 C1091 0.930 . S
H1102 C1092 0.932 . S
H1103 C1093 0.929 . S
Tb1104 C1113 2.764 . S
Tb1104 O1114 2.325 . S
Tb1104 O1117 2.303 . S
Tb1104 O1121 2.323 1_545 S
Tb1104 O1122 2.349 . S
Tb1104 O1125 2.415 . S
Tb1104 O1126 2.399 . S
Tb1105 O1115 2.322 . S
Tb1105 O1116 2.349 . S
Tb1105 O1118 2.415 1_554 S
Tb1105 O1119 2.399 1_554 S
Tb1105 O1120 2.327 . S
Tb1105 O1123 2.303 . S
Tb1105 C1134 2.764 1_554 S
C1106 O1122 1.261 . S
C1106 O1123 1.257 . S
C1107 C1110 1.358 . S
C1107 C1111 1.332 . S
C1107 C1113 1.504 . S
C1108 C1109 1.373 . S
C1108 C1112 1.308 . S
C1109 C1108 1.373 . S
C1109 C1110 1.429 . S
C1109 H1136 0.932 . S
C1110 C1107 1.358 . S
C1110 C1109 1.429 . S
C1110 H1137 0.930 . S
C1111 C1107 1.332 . S
C1111 C1112 1.394 . S
C1111 H1138 0.932 . S
C1112 C1108 1.308 . S
C1112 C1111 1.394 . S
C1112 H1139 0.929 . S
C1113 Tb1104 2.764 . S
C1113 C1107 1.504 . S
C1113 O1125 1.239 . S
C1113 O1126 1.263 . S
O1114 Tb1104 2.325 . S
O1114 C1124 1.236 . S
O1115 Tb1105 2.322 . S
O1115 C1124 1.257 . S
O1116 Tb1105 2.349 . S
O1116 C1127 1.261 . S
O1117 Tb1104 2.303 . S
O1117 C1127 1.257 . S
O1118 Tb1105 2.415 1_556 S
O1118 C1134 1.239 . S
O1119 Tb1105 2.399 1_556 S
O1119 C1134 1.263 . S
O1120 Tb1105 2.327 . S
O1120 C1135 1.264 1_545 S
O1121 Tb1104 2.323 1_565 S
O1121 C1135 1.257 . S
O1122 Tb1104 2.349 . S
O1122 C1106 1.261 . S
O1123 Tb1105 2.303 . S
O1123 C1106 1.257 . S
C1124 O1114 1.236 . S
C1124 O1115 1.257 . S
O1125 Tb1104 2.415 . S
O1125 C1113 1.239 . S
O1126 Tb1104 2.399 . S
O1126 C1113 1.263 . S
C1127 O1116 1.261 . S
C1127 O1117 1.257 . S
C1128 C1131 1.358 . S
C1128 C1132 1.332 . S
C1128 C1134 1.504 . S
C1129 C1130 1.373 . S
C1129 C1133 1.308 . S
C1130 C1129 1.373 . S
C1130 C1131 1.429 . S
C1130 H1140 0.932 . S
C1131 C1128 1.358 . S
C1131 C1130 1.429 . S
C1131 H1141 0.930 . S
C1132 C1128 1.332 . S
C1132 C1133 1.394 . S
C1132 H1142 0.932 . S
C1133 C1129 1.308 . S
C1133 C1132 1.394 . S
C1133 H1143 0.929 . S
C1134 Tb1105 2.764 1_556 S
C1134 O1118 1.239 . S
C1134 O1119 1.263 . S
C1134 C1128 1.504 . S
C1135 O1120 1.264 1_565 S
C1135 O1121 1.257 . S
H1136 C1109 0.932 . S
H1137 C1110 0.930 . S
H1138 C1111 0.932 . S
H1139 C1112 0.929 . S
H1140 C1130 0.932 . S
H1141 C1131 0.930 . S
H1142 C1132 0.932 . S
H1143 C1133 0.929 . S
Tb1144 C1153 2.764 . S
Tb1144 O1154 2.325 . S
Tb1144 O1157 2.303 . S
Tb1144 O1161 2.322 . S
Tb1144 O1162 2.349 . S
Tb1144 O1165 2.415 . S
Tb1144 O1166 2.399 . S
Tb1145 O1155 2.322 . S
Tb1145 O1156 2.349 . S
Tb1145 O1158 2.415 . S
Tb1145 O1159 2.399 . S
Tb1145 O1160 2.325 . S
Tb1145 O1163 2.303 . S
Tb1145 C1174 2.764 . S
C1146 O1162 1.261 . S
C1146 O1163 1.257 . S
C1147 C1150 1.358 . S
C1147 C1151 1.332 . S
C1147 C1153 1.504 . S
C1148 C1149 1.373 . S
C1148 C1152 1.308 . S
C1149 C1148 1.373 . S
C1149 C1150 1.429 . S
C1149 H1176 0.932 . S
C1150 C1147 1.358 . S
C1150 C1149 1.429 . S
C1150 H1177 0.930 . S
C1151 C1147 1.332 . S
C1151 C1152 1.394 . S
C1151 H1178 0.932 . S
C1152 C1148 1.308 . S
C1152 C1151 1.394 . S
C1152 H1179 0.929 . S
C1153 Tb1144 2.764 . S
C1153 C1147 1.504 . S
C1153 O1165 1.239 . S
C1153 O1166 1.263 . S
O1154 Tb1144 2.325 . S
O1154 C1164 1.236 . S
O1155 Tb1145 2.322 . S
O1155 C1164 1.257 . S
O1156 Tb1145 2.349 . S
O1156 C1167 1.261 . S
O1157 Tb1144 2.303 . S
O1157 C1167 1.257 . S
O1158 Tb1145 2.415 . S
O1158 C1174 1.239 . S
O1159 Tb1145 2.399 . S
O1159 C1174 1.263 . S
O1160 Tb1145 2.325 . S
O1160 C1175 1.236 . S
O1161 Tb1144 2.322 . S
O1161 C1175 1.257 . S
O1162 Tb1144 2.349 . S
O1162 C1146 1.261 . S
O1163 Tb1145 2.303 . S
O1163 C1146 1.257 . S
C1164 O1154 1.236 . S
C1164 O1155 1.257 . S
O1165 Tb1144 2.415 . S
O1165 C1153 1.239 . S
O1166 Tb1144 2.399 . S
O1166 C1153 1.263 . S
C1167 O1156 1.261 . S
C1167 O1157 1.257 . S
C1168 C1171 1.358 . S
C1168 C1172 1.332 . S
C1168 C1174 1.504 . S
C1169 C1170 1.373 . S
C1169 C1173 1.308 . S
C1170 C1169 1.373 . S
C1170 C1171 1.429 . S
C1170 H1180 0.932 . S
C1171 C1168 1.358 . S
C1171 C1170 1.429 . S
C1171 H1181 0.930 . S
C1172 C1168 1.332 . S
C1172 C1173 1.394 . S
C1172 H1182 0.932 . S
C1173 C1169 1.308 . S
C1173 C1172 1.394 . S
C1173 H1183 0.929 . S
C1174 Tb1145 2.764 . S
C1174 O1158 1.239 . S
C1174 O1159 1.263 . S
C1174 C1168 1.504 . S
C1175 O1160 1.236 . S
C1175 O1161 1.257 . S
H1176 C1149 0.932 . S
H1177 C1150 0.930 . S
H1178 C1151 0.932 . S
H1179 C1152 0.929 . S
H1180 C1170 0.932 . S
H1181 C1171 0.930 . S
H1182 C1172 0.932 . S
H1183 C1173 0.929 . S
Tb1184 C1193 2.764 . S
Tb1184 O1194 2.325 . S
Tb1184 O1197 2.303 . S
Tb1184 O1201 2.322 . S
Tb1184 O1202 2.349 . S
Tb1184 O1205 2.415 . S
Tb1184 O1206 2.399 . S
Tb1185 O1195 2.322 . S
Tb1185 O1196 2.349 . S
Tb1185 O1198 2.415 1_554 S
Tb1185 O1199 2.399 1_554 S
Tb1185 O1200 2.325 . S
Tb1185 O1203 2.303 . S
Tb1185 C1214 2.764 1_554 S
C1186 O1202 1.261 . S
C1186 O1203 1.257 . S
C1187 C1190 1.358 . S
C1187 C1191 1.332 . S
C1187 C1193 1.504 . S
C1188 C1189 1.373 . S
C1188 C1192 1.308 . S
C1189 C1188 1.373 . S
C1189 C1190 1.429 . S
C1189 H1216 0.932 . S
C1190 C1187 1.358 . S
C1190 C1189 1.429 . S
C1190 H1217 0.930 . S
C1191 C1187 1.332 . S
C1191 C1192 1.394 . S
C1191 H1218 0.932 . S
C1192 C1188 1.308 . S
C1192 C1191 1.394 . S
C1192 H1219 0.929 . S
C1193 Tb1184 2.764 . S
C1193 C1187 1.504 . S
C1193 O1205 1.239 . S
C1193 O1206 1.263 . S
O1194 Tb1184 2.325 . S
O1194 C1204 1.236 . S
O1195 Tb1185 2.322 . S
O1195 C1204 1.257 . S
O1196 Tb1185 2.349 . S
O1196 C1207 1.261 . S
O1197 Tb1184 2.303 . S
O1197 C1207 1.257 . S
O1198 Tb1185 2.415 1_556 S
O1198 C1214 1.239 . S
O1199 Tb1185 2.399 1_556 S
O1199 C1214 1.263 . S
O1200 Tb1185 2.325 . S
O1200 C1215 1.236 . S
O1201 Tb1184 2.322 . S
O1201 C1215 1.257 . S
O1202 Tb1184 2.349 . S
O1202 C1186 1.261 . S
O1203 Tb1185 2.303 . S
O1203 C1186 1.257 . S
C1204 O1194 1.236 . S
C1204 O1195 1.257 . S
O1205 Tb1184 2.415 . S
O1205 C1193 1.239 . S
O1206 Tb1184 2.399 . S
O1206 C1193 1.263 . S
C1207 O1196 1.261 . S
C1207 O1197 1.257 . S
C1208 C1211 1.358 . S
C1208 C1212 1.332 . S
C1208 C1214 1.504 . S
C1209 C1210 1.373 . S
C1209 C1213 1.308 . S
C1210 C1209 1.373 . S
C1210 C1211 1.429 . S
C1210 H1220 0.932 . S
C1211 C1208 1.358 . S
C1211 C1210 1.429 . S
C1211 H1221 0.930 . S
C1212 C1208 1.332 . S
C1212 C1213 1.394 . S
C1212 H1222 0.932 . S
C1213 C1209 1.308 . S
C1213 C1212 1.394 . S
C1213 H1223 0.929 . S
C1214 Tb1185 2.764 1_556 S
C1214 O1198 1.239 . S
C1214 O1199 1.263 . S
C1214 C1208 1.504 . S
C1215 O1200 1.236 . S
C1215 O1201 1.257 . S
H1216 C1189 0.932 . S
H1217 C1190 0.930 . S
H1218 C1191 0.932 . S
H1219 C1192 0.929 . S
H1220 C1210 0.932 . S
H1221 C1211 0.930 . S
H1222 C1212 0.932 . S
H1223 C1213 0.929 . S
Tb1224 C1233 2.764 . S
Tb1224 O1234 2.325 . S
Tb1224 O1237 2.303 . S
Tb1224 O1241 2.322 . S
Tb1224 O1242 2.349 . S
Tb1224 O1245 2.415 . S
Tb1224 O1246 2.399 . S
Tb1225 O1235 2.322 . S
Tb1225 O1236 2.349 . S
Tb1225 O1238 2.415 . S
Tb1225 O1239 2.399 . S
Tb1225 O1240 2.325 . S
Tb1225 O1243 2.303 . S
Tb1225 C1254 2.764 . S
C1226 O1242 1.261 . S
C1226 O1243 1.257 . S
C1227 C1230 1.358 . S
C1227 C1231 1.332 . S
C1227 C1233 1.504 . S
C1228 C1229 1.373 . S
C1228 C1232 1.308 . S
C1229 C1228 1.373 . S
C1229 C1230 1.429 . S
C1229 H1256 0.932 . S
C1230 C1227 1.358 . S
C1230 C1229 1.429 . S
C1230 H1257 0.930 . S
C1231 C1227 1.332 . S
C1231 C1232 1.394 . S
C1231 H1258 0.932 . S
C1232 C1228 1.308 . S
C1232 C1231 1.394 . S
C1232 H1259 0.929 . S
C1233 Tb1224 2.764 . S
C1233 C1227 1.504 . S
C1233 O1245 1.239 . S
C1233 O1246 1.263 . S
O1234 Tb1224 2.325 . S
O1234 C1244 1.236 . S
O1235 Tb1225 2.322 . S
O1235 C1244 1.257 . S
O1236 Tb1225 2.349 . S
O1236 C1247 1.261 . S
O1237 Tb1224 2.303 . S
O1237 C1247 1.257 . S
O1238 Tb1225 2.415 . S
O1238 C1254 1.239 . S
O1239 Tb1225 2.399 . S
O1239 C1254 1.263 . S
O1240 Tb1225 2.325 . S
O1240 C1255 1.236 . S
O1241 Tb1224 2.322 . S
O1241 C1255 1.257 . S
O1242 Tb1224 2.349 . S
O1242 C1226 1.261 . S
O1243 Tb1225 2.303 . S
O1243 C1226 1.257 . S
C1244 O1234 1.236 . S
C1244 O1235 1.257 . S
O1245 Tb1224 2.415 . S
O1245 C1233 1.239 . S
O1246 Tb1224 2.399 . S
O1246 C1233 1.263 . S
C1247 O1236 1.261 . S
C1247 O1237 1.257 . S
C1248 C1251 1.358 . S
C1248 C1252 1.332 . S
C1248 C1254 1.504 . S
C1249 C1250 1.373 . S
C1249 C1253 1.308 . S
C1250 C1249 1.373 . S
C1250 C1251 1.429 . S
C1250 H1260 0.932 . S
C1251 C1248 1.358 . S
C1251 C1250 1.429 . S
C1251 H1261 0.930 . S
C1252 C1248 1.332 . S
C1252 C1253 1.394 . S
C1252 H1262 0.932 . S
C1253 C1249 1.308 . S
C1253 C1252 1.394 . S
C1253 H1263 0.929 . S
C1254 Tb1225 2.764 . S
C1254 O1238 1.239 . S
C1254 O1239 1.263 . S
C1254 C1248 1.504 . S
C1255 O1240 1.236 . S
C1255 O1241 1.257 . S
H1256 C1229 0.932 . S
H1257 C1230 0.930 . S
H1258 C1231 0.932 . S
H1259 C1232 0.929 . S
H1260 C1250 0.932 . S
H1261 C1251 0.930 . S
H1262 C1252 0.932 . S
H1263 C1253 0.929 . S
Tb1264 C1273 2.764 . S
Tb1264 O1274 2.325 . S
Tb1264 O1277 2.303 . S
Tb1264 O1281 2.322 . S
Tb1264 O1282 2.349 . S
Tb1264 O1285 2.415 . S
Tb1264 O1286 2.399 . S
Tb1265 O1275 2.322 . S
Tb1265 O1276 2.349 . S
Tb1265 O1278 2.415 . S
Tb1265 O1279 2.399 . S
Tb1265 O1280 2.325 . S
Tb1265 O1283 2.303 . S
Tb1265 C1294 2.764 . S
C1266 O1282 1.261 . S
C1266 O1283 1.257 . S
C1267 C1270 1.358 . S
C1267 C1271 1.332 . S
C1267 C1273 1.504 . S
C1268 C1269 1.373 . S
C1268 C1272 1.308 1_455 S
C1269 C1268 1.373 . S
C1269 C1270 1.429 . S
C1269 H1296 0.932 . S
C1270 C1267 1.358 . S
C1270 C1269 1.429 . S
C1270 H1297 0.930 . S
C1271 C1267 1.332 . S
C1271 C1272 1.394 1_455 S
C1271 H1298 0.932 1_455 S
C1272 C1268 1.308 1_655 S
C1272 C1271 1.394 1_655 S
C1272 H1299 0.929 . S
C1273 Tb1264 2.764 . S
C1273 C1267 1.504 . S
C1273 O1285 1.239 . S
C1273 O1286 1.263 . S
O1274 Tb1264 2.325 . S
O1274 C1284 1.236 . S
O1275 Tb1265 2.322 . S
O1275 C1284 1.257 . S
O1276 Tb1265 2.349 . S
O1276 C1287 1.260 1_455 S
O1277 Tb1264 2.303 . S
O1277 C1287 1.252 1_455 S
O1278 Tb1265 2.415 . S
O1278 C1294 1.239 . S
O1279 Tb1265 2.399 . S
O1279 C1294 1.263 . S
O1280 Tb1265 2.325 . S
O1280 C1295 1.236 . S
O1281 Tb1264 2.322 . S
O1281 C1295 1.257 . S
O1282 Tb1264 2.349 . S
O1282 C1266 1.261 . S
O1283 Tb1265 2.303 . S
O1283 C1266 1.257 . S
C1284 O1274 1.236 . S
C1284 O1275 1.257 . S
O1285 Tb1264 2.415 . S
O1285 C1273 1.239 . S
O1286 Tb1264 2.399 . S
O1286 C1273 1.263 . S
C1287 O1276 1.260 1_655 S
C1287 O1277 1.252 1_655 S
C1288 C1291 1.358 . S
C1288 C1292 1.332 . S
C1288 C1294 1.504 . S
C1289 C1290 1.373 . S
C1289 C1293 1.308 . S
C1290 C1289 1.373 . S
C1290 C1291 1.429 . S
C1290 H1300 0.932 . S
C1291 C1288 1.358 . S
C1291 C1290 1.429 . S
C1291 H1301 0.930 . S
C1292 C1288 1.332 . S
C1292 C1293 1.394 . S
C1292 H1302 0.932 . S
C1293 C1289 1.308 . S
C1293 C1292 1.394 . S
C1293 H1303 0.929 . S
C1294 Tb1265 2.764 . S
C1294 O1278 1.239 . S
C1294 O1279 1.263 . S
C1294 C1288 1.504 . S
C1295 O1280 1.236 . S
C1295 O1281 1.257 . S
H1296 C1269 0.932 . S
H1297 C1270 0.930 . S
H1298 C1271 0.932 1_655 S
H1299 C1272 0.929 . S
H1300 C1290 0.932 . S
H1301 C1291 0.930 . S
H1302 C1292 0.932 . S
H1303 C1293 0.929 . S
Tb1304 C1313 2.764 . S
Tb1304 O1314 2.325 . S
Tb1304 O1317 2.303 . S
Tb1304 O1321 2.322 . S
Tb1304 O1322 2.349 . S
Tb1304 O1325 2.415 . S
Tb1304 O1326 2.399 . S
Tb1305 O1315 2.322 . S
Tb1305 O1316 2.349 . S
Tb1305 O1318 2.415 . S
Tb1305 O1319 2.399 . S
Tb1305 O1320 2.325 . S
Tb1305 O1323 2.303 . S
Tb1305 C1334 2.764 . S
C1306 O1322 1.261 . S
C1306 O1323 1.257 . S
C1307 C1310 1.358 . S
C1307 C1311 1.332 . S
C1307 C1313 1.504 . S
C1308 C1309 1.373 . S
C1308 C1312 1.308 . S
C1309 C1308 1.373 . S
C1309 C1310 1.429 . S
C1309 H1336 0.932 . S
C1310 C1307 1.358 . S
C1310 C1309 1.429 . S
C1310 H1337 0.930 . S
C1311 C1307 1.332 . S
C1311 C1312 1.394 . S
C1311 H1338 0.932 . S
C1312 C1308 1.308 . S
C1312 C1311 1.394 . S
C1312 H1339 0.929 . S
C1313 Tb1304 2.764 . S
C1313 C1307 1.504 . S
C1313 O1325 1.239 . S
C1313 O1326 1.263 . S
O1314 Tb1304 2.325 . S
O1314 C1324 1.236 . S
O1315 Tb1305 2.322 . S
O1315 C1324 1.257 . S
O1316 Tb1305 2.349 . S
O1316 C1327 1.261 . S
O1317 Tb1304 2.303 . S
O1317 C1327 1.257 . S
O1318 Tb1305 2.415 . S
O1318 C1334 1.239 . S
O1319 Tb1305 2.399 . S
O1319 C1334 1.263 . S
O1320 Tb1305 2.325 . S
O1320 C1335 1.236 . S
O1321 Tb1304 2.322 . S
O1321 C1335 1.257 . S
O1322 Tb1304 2.349 . S
O1322 C1306 1.261 . S
O1323 Tb1305 2.303 . S
O1323 C1306 1.257 . S
C1324 O1314 1.236 . S
C1324 O1315 1.257 . S
O1325 Tb1304 2.415 . S
O1325 C1313 1.239 . S
O1326 Tb1304 2.399 . S
O1326 C1313 1.263 . S
C1327 O1316 1.261 . S
C1327 O1317 1.257 . S
C1328 C1331 1.358 . S
C1328 C1332 1.332 . S
C1328 C1334 1.504 . S
C1329 C1330 1.373 . S
C1329 C1333 1.308 . S
C1330 C1329 1.373 . S
C1330 C1331 1.429 . S
C1330 H1340 0.932 . S
C1331 C1328 1.358 . S
C1331 C1330 1.429 . S
C1331 H1341 0.930 . S
C1332 C1328 1.332 . S
C1332 C1333 1.394 . S
C1332 H1342 0.932 . S
C1333 C1329 1.308 . S
C1333 C1332 1.394 . S
C1333 H1343 0.929 . S
C1334 Tb1305 2.764 . S
C1334 O1318 1.239 . S
C1334 O1319 1.263 . S
C1334 C1328 1.504 . S
C1335 O1320 1.236 . S
C1335 O1321 1.257 . S
H1336 C1309 0.932 . S
H1337 C1310 0.930 . S
H1338 C1311 0.932 . S
H1339 C1312 0.929 . S
H1340 C1330 0.932 . S
H1341 C1331 0.930 . S
H1342 C1332 0.932 . S
H1343 C1333 0.929 . S
Tb1344 C1353 2.764 . S
Tb1344 O1354 2.325 . S
Tb1344 O1357 2.303 . S
Tb1344 O1361 2.322 . S
Tb1344 O1362 2.349 . S
Tb1344 O1365 2.415 . S
Tb1344 O1366 2.399 . S
Tb1345 O1355 2.322 . S
Tb1345 O1356 2.349 . S
Tb1345 O1358 2.415 . S
Tb1345 O1359 2.399 . S
Tb1345 O1360 2.325 . S
Tb1345 O1363 2.303 . S
Tb1345 C1374 2.764 . S
C1346 O1362 1.261 . S
C1346 O1363 1.257 . S
C1347 C1350 1.358 . S
C1347 C1351 1.332 . S
C1347 C1353 1.504 . S
C1348 C1349 1.373 . S
C1348 C1352 1.308 . S
C1349 C1348 1.373 . S
C1349 C1350 1.429 . S
C1349 H1376 0.932 . S
C1350 C1347 1.358 . S
C1350 C1349 1.429 . S
C1350 H1377 0.930 . S
C1351 C1347 1.332 . S
C1351 C1352 1.394 . S
C1351 H1378 0.932 . S
C1352 C1348 1.308 . S
C1352 C1351 1.394 . S
C1352 H1379 0.929 . S
C1353 Tb1344 2.764 . S
C1353 C1347 1.504 . S
C1353 O1365 1.239 . S
C1353 O1366 1.263 . S
O1354 Tb1344 2.325 . S
O1354 C1364 1.236 . S
O1355 Tb1345 2.322 . S
O1355 C1364 1.257 . S
O1356 Tb1345 2.349 . S
O1356 C1367 1.261 . S
O1357 Tb1344 2.303 . S
O1357 C1367 1.257 . S
O1358 Tb1345 2.415 . S
O1358 C1374 1.239 . S
O1359 Tb1345 2.399 . S
O1359 C1374 1.263 . S
O1360 Tb1345 2.325 . S
O1360 C1375 1.236 . S
O1361 Tb1344 2.322 . S
O1361 C1375 1.257 . S
O1362 Tb1344 2.349 . S
O1362 C1346 1.261 . S
O1363 Tb1345 2.303 . S
O1363 C1346 1.257 . S
C1364 O1354 1.236 . S
C1364 O1355 1.257 . S
O1365 Tb1344 2.415 . S
O1365 C1353 1.239 . S
O1366 Tb1344 2.399 . S
O1366 C1353 1.263 . S
C1367 O1356 1.261 . S
C1367 O1357 1.257 . S
C1368 C1371 1.358 . S
C1368 C1372 1.332 . S
C1368 C1374 1.504 . S
C1369 C1370 1.373 . S
C1369 C1373 1.308 . S
C1370 C1369 1.373 . S
C1370 C1371 1.429 . S
C1370 H1380 0.932 . S
C1371 C1368 1.358 . S
C1371 C1370 1.429 . S
C1371 H1381 0.930 . S
C1372 C1368 1.332 . S
C1372 C1373 1.394 . S
C1372 H1382 0.932 . S
C1373 C1369 1.308 . S
C1373 C1372 1.394 . S
C1373 H1383 0.929 . S
C1374 Tb1345 2.764 . S
C1374 O1358 1.239 . S
C1374 O1359 1.263 . S
C1374 C1368 1.504 . S
C1375 O1360 1.236 . S
C1375 O1361 1.257 . S
H1376 C1349 0.932 . S
H1377 C1350 0.930 . S
H1378 C1351 0.932 . S
H1379 C1352 0.929 . S
H1380 C1370 0.932 . S
H1381 C1371 0.930 . S
H1382 C1372 0.932 . S
H1383 C1373 0.929 . S
Tb1384 C1393 2.764 . S
Tb1384 O1394 2.325 . S
Tb1384 O1397 2.303 . S
Tb1384 O1401 2.322 . S
Tb1384 O1402 2.349 . S
Tb1384 O1405 2.415 . S
Tb1384 O1406 2.399 . S
Tb1385 O1395 2.322 . S
Tb1385 O1396 2.349 . S
Tb1385 O1398 2.415 . S
Tb1385 O1399 2.399 . S
Tb1385 O1400 2.325 . S
Tb1385 O1403 2.303 . S
Tb1385 C1414 2.764 . S
C1386 O1402 1.261 . S
C1386 O1403 1.257 . S
C1387 C1390 1.358 . S
C1387 C1391 1.332 . S
C1387 C1393 1.504 . S
C1388 C1389 1.373 . S
C1388 C1392 1.308 . S
C1389 C1388 1.373 . S
C1389 C1390 1.429 . S
C1389 H1416 0.932 . S
C1390 C1387 1.358 . S
C1390 C1389 1.429 . S
C1390 H1417 0.930 . S
C1391 C1387 1.332 . S
C1391 C1392 1.394 . S
C1391 H1418 0.932 . S
C1392 C1388 1.308 . S
C1392 C1391 1.394 . S
C1392 H1419 0.929 . S
C1393 Tb1384 2.764 . S
C1393 C1387 1.504 . S
C1393 O1405 1.239 . S
C1393 O1406 1.263 . S
O1394 Tb1384 2.325 . S
O1394 C1404 1.236 . S
O1395 Tb1385 2.322 . S
O1395 C1404 1.257 . S
O1396 Tb1385 2.349 . S
O1396 C1407 1.261 . S
O1397 Tb1384 2.303 . S
O1397 C1407 1.257 . S
O1398 Tb1385 2.415 . S
O1398 C1414 1.239 . S
O1399 Tb1385 2.399 . S
O1399 C1414 1.263 . S
O1400 Tb1385 2.325 . S
O1400 C1415 1.236 . S
O1401 Tb1384 2.322 . S
O1401 C1415 1.257 . S
O1402 Tb1384 2.349 . S
O1402 C1386 1.261 . S
O1403 Tb1385 2.303 . S
O1403 C1386 1.257 . S
C1404 O1394 1.236 . S
C1404 O1395 1.257 . S
O1405 Tb1384 2.415 . S
O1405 C1393 1.239 . S
O1406 Tb1384 2.399 . S
O1406 C1393 1.263 . S
C1407 O1396 1.261 . S
C1407 O1397 1.257 . S
C1408 C1411 1.358 . S
C1408 C1412 1.332 . S
C1408 C1414 1.504 . S
C1409 C1410 1.373 . S
C1409 C1413 1.308 . S
C1410 C1409 1.373 . S
C1410 C1411 1.429 . S
C1410 H1420 0.932 . S
C1411 C1408 1.358 . S
C1411 C1410 1.429 . S
C1411 H1421 0.930 . S
C1412 C1408 1.332 . S
C1412 C1413 1.394 . S
C1412 H1422 0.932 . S
C1413 C1409 1.308 . S
C1413 C1412 1.394 . S
C1413 H1423 0.929 . S
C1414 Tb1385 2.764 . S
C1414 O1398 1.239 . S
C1414 O1399 1.263 . S
C1414 C1408 1.504 . S
C1415 O1400 1.236 . S
C1415 O1401 1.257 . S
H1416 C1389 0.932 . S
H1417 C1390 0.930 . S
H1418 C1391 0.932 . S
H1419 C1392 0.929 . S
H1420 C1410 0.932 . S
H1421 C1411 0.930 . S
H1422 C1412 0.932 . S
H1423 C1413 0.929 . S
Tb1424 C1433 2.764 . S
Tb1424 O1434 2.325 . S
Tb1424 O1437 2.303 . S
Tb1424 O1441 2.322 . S
Tb1424 O1442 2.349 . S
Tb1424 O1445 2.415 . S
Tb1424 O1446 2.399 . S
Tb1425 O1435 2.322 . S
Tb1425 O1436 2.349 . S
Tb1425 O1438 2.415 . S
Tb1425 O1439 2.399 . S
Tb1425 O1440 2.325 . S
Tb1425 O1443 2.303 . S
Tb1425 C1454 2.764 . S
C1426 O1442 1.261 . S
C1426 O1443 1.257 . S
C1427 C1430 1.358 . S
C1427 C1431 1.332 . S
C1427 C1433 1.504 . S
C1428 C1429 1.373 . S
C1428 C1432 1.308 . S
C1429 C1428 1.373 . S
C1429 C1430 1.429 . S
C1429 H1456 0.932 . S
C1430 C1427 1.358 . S
C1430 C1429 1.429 . S
C1430 H1457 0.930 . S
C1431 C1427 1.332 . S
C1431 C1432 1.394 . S
C1431 H1458 0.932 . S
C1432 C1428 1.308 . S
C1432 C1431 1.394 . S
C1432 H1459 0.929 . S
C1433 Tb1424 2.764 . S
C1433 C1427 1.504 . S
C1433 O1445 1.239 . S
C1433 O1446 1.263 . S
O1434 Tb1424 2.325 . S
O1434 C1444 1.236 . S
O1435 Tb1425 2.322 . S
O1435 C1444 1.257 . S
O1436 Tb1425 2.349 . S
O1436 C1447 1.261 . S
O1437 Tb1424 2.303 . S
O1437 C1447 1.257 . S
O1438 Tb1425 2.415 . S
O1438 C1454 1.239 . S
O1439 Tb1425 2.399 . S
O1439 C1454 1.263 . S
O1440 Tb1425 2.325 . S
O1440 C1455 1.236 . S
O1441 Tb1424 2.322 . S
O1441 C1455 1.257 . S
O1442 Tb1424 2.349 . S
O1442 C1426 1.261 . S
O1443 Tb1425 2.303 . S
O1443 C1426 1.257 . S
C1444 O1434 1.236 . S
C1444 O1435 1.257 . S
O1445 Tb1424 2.415 . S
O1445 C1433 1.239 . S
O1446 Tb1424 2.399 . S
O1446 C1433 1.263 . S
C1447 O1436 1.261 . S
C1447 O1437 1.257 . S
C1448 C1451 1.358 . S
C1448 C1452 1.332 . S
C1448 C1454 1.504 . S
C1449 C1450 1.373 . S
C1449 C1453 1.308 . S
C1450 C1449 1.373 . S
C1450 C1451 1.429 . S
C1450 H1460 0.932 . S
C1451 C1448 1.358 . S
C1451 C1450 1.429 . S
C1451 H1461 0.930 . S
C1452 C1448 1.332 . S
C1452 C1453 1.394 . S
C1452 H1462 0.932 . S
C1453 C1449 1.308 . S
C1453 C1452 1.394 . S
C1453 H1463 0.929 . S
C1454 Tb1425 2.764 . S
C1454 O1438 1.239 . S
C1454 O1439 1.263 . S
C1454 C1448 1.504 . S
C1455 O1440 1.236 . S
C1455 O1441 1.257 . S
H1456 C1429 0.932 . S
H1457 C1430 0.930 . S
H1458 C1431 0.932 . S
H1459 C1432 0.929 . S
H1460 C1450 0.932 . S
H1461 C1451 0.930 . S
H1462 C1452 0.932 . S
H1463 C1453 0.929 . S
Tb1464 C1473 2.764 1_455 S
Tb1464 O1474 2.325 . S
Tb1464 O1477 2.303 . S
Tb1464 O1481 2.322 . S
Tb1464 O1482 2.349 . S
Tb1464 O1485 2.415 1_455 S
Tb1464 O1486 2.399 1_455 S
Tb1465 O1475 2.322 . S
Tb1465 O1476 2.349 1_554 S
Tb1465 O1478 2.415 . S
Tb1465 O1479 2.410 . S
Tb1465 O1480 2.325 . S
Tb1465 O1483 2.303 . S
Tb1465 C1494 2.764 . S
C1466 O1482 1.261 . S
C1466 O1483 1.257 . S
C1467 C1470 1.358 . S
C1467 C1471 1.332 . S
C1467 C1473 1.504 . S
C1468 C1469 1.373 . S
C1468 C1472 1.308 . S
C1469 C1468 1.373 . S
C1469 C1470 1.429 . S
C1469 H1496 0.932 . S
C1470 C1467 1.358 . S
C1470 C1469 1.429 . S
C1470 H1497 0.930 . S
C1471 C1467 1.332 . S
C1471 C1472 1.394 . S
C1471 H1498 0.932 . S
C1472 C1468 1.308 . S
C1472 C1471 1.394 . S
C1472 H1499 0.929 . S
C1473 Tb1464 2.764 1_655 S
C1473 C1467 1.504 . S
C1473 O1485 1.239 . S
C1473 O1486 1.263 . S
O1474 Tb1464 2.325 . S
O1474 C1484 1.236 . S
O1475 Tb1465 2.322 . S
O1475 C1484 1.257 . S
O1476 Tb1465 2.349 1_556 S
O1476 C1487 1.261 . S
O1477 Tb1464 2.303 . S
O1477 C1487 1.257 1_554 S
O1478 Tb1465 2.415 . S
O1478 C1494 1.239 . S
O1479 Tb1465 2.410 . S
O1479 C1494 1.277 . S
O1480 Tb1465 2.325 . S
O1480 C1495 1.236 . S
O1481 Tb1464 2.322 . S
O1481 C1495 1.257 . S
O1482 Tb1464 2.349 . S
O1482 C1466 1.261 . S
O1483 Tb1465 2.303 . S
O1483 C1466 1.257 . S
C1484 O1474 1.236 . S
C1484 O1475 1.257 . S
O1485 Tb1464 2.415 1_655 S
O1485 C1473 1.239 . S
O1486 Tb1464 2.399 1_655 S
O1486 C1473 1.263 . S
C1487 O1476 1.261 . S
C1487 O1477 1.257 1_556 S
C1488 C1491 1.358 1_554 S
C1488 C1492 1.332 . S
C1488 C1494 1.504 . S
C1489 C1490 1.373 1_554 S
C1489 C1493 1.308 . S
C1490 C1489 1.373 1_556 S
C1490 C1491 1.429 . S
C1490 H1500 0.932 . S
C1491 C1488 1.358 1_556 S
C1491 C1490 1.429 . S
C1491 H1501 0.930 . S
C1492 C1488 1.332 . S
C1492 C1493 1.394 . S
C1492 H1502 0.932 . S
C1493 C1489 1.308 . S
C1493 C1492 1.394 . S
C1493 H1503 0.929 . S
C1494 Tb1465 2.764 . S
C1494 O1478 1.239 . S
C1494 O1479 1.277 . S
C1494 C1488 1.504 . S
C1495 O1480 1.236 . S
C1495 O1481 1.257 . S
H1496 C1469 0.932 . S
H1497 C1470 0.930 . S
H1498 C1471 0.932 . S
H1499 C1472 0.929 . S
H1500 C1490 0.932 . S
H1501 C1491 0.930 . S
H1502 C1492 0.932 . S
H1503 C1493 0.929 . S
H1504 C1510 0.930 1_554 S
H1505 C1513 0.930 1_655 S
H1506 C1514 0.930 . S
H1507 C1515 0.930 . S
H1508 C1518 0.930 . S
H1509 C1519 0.930 . S
C1510 H1504 0.930 1_556 S
C1510 C1511 1.355 1_455 S
C1510 C1512 1.415 1_556 S
C1511 C1510 1.355 1_655 S
C1511 C1513 1.419 1_655 S
C1512 C1510 1.415 1_554 S
C1512 C1517 1.425 1_554 S
C1512 C1519 1.409 . S
C1513 H1505 0.930 1_455 S
C1513 C1511 1.419 1_455 S
C1513 C1514 1.362 . S
C1514 H1506 0.930 . S
C1514 C1513 1.362 . S
C1514 C1517 1.409 . S
C1515 H1507 0.930 . S
C1515 C1516 1.355 1_556 S
C1515 C1517 1.415 . S
C1516 C1515 1.355 1_554 S
C1516 C1518 1.419 . S
C1517 C1512 1.425 1_556 S
C1517 C1514 1.409 . S
C1517 C1515 1.415 . S
C1518 H1508 0.930 . S
C1518 C1516 1.419 . S
C1518 C1519 1.362 . S
C1519 H1509 0.930 . S
C1519 C1512 1.409 . S
C1519 C1518 1.362 . S
H1520 C1526 0.930 . S
H1521 C1529 0.930 . S
H1522 C1530 0.930 . S
H1523 C1531 0.930 . S
H1524 C1534 0.930 . S
H1525 C1535 0.930 . S
C1526 H1520 0.930 . S
C1526 C1527 1.355 . S
C1526 C1528 1.415 . S
C1527 C1526 1.355 . S
C1527 C1529 1.419 . S
C1528 C1526 1.415 . S
C1528 C1533 1.425 . S
C1528 C1535 1.409 . S
C1529 H1521 0.930 . S
C1529 C1527 1.419 . S
C1529 C1530 1.362 . S
C1530 H1522 0.930 . S
C1530 C1529 1.362 . S
C1530 C1533 1.409 . S
C1531 H1523 0.930 . S
C1531 C1532 1.355 . S
C1531 C1533 1.415 . S
C1532 C1531 1.355 . S
C1532 C1534 1.419 . S
C1533 C1528 1.425 . S
C1533 C1530 1.409 . S
C1533 C1531 1.415 . S
C1534 H1524 0.930 . S
C1534 C1532 1.419 . S
C1534 C1535 1.362 . S
C1535 H1525 0.930 . S
C1535 C1528 1.409 . S
C1535 C1534 1.362 . S
H1536 C1542 0.930 . S
H1537 C1545 0.930 . S
H1538 C1546 0.930 . S
H1539 C1547 0.930 . S
H1540 C1550 0.930 . S
H1541 C1551 0.930 . S
C1542 H1536 0.930 . S
C1542 C1543 1.355 . S
C1542 C1544 1.415 . S
C1543 C1542 1.355 . S
C1543 C1545 1.419 . S
C1544 C1542 1.415 . S
C1544 C1549 1.425 . S
C1544 C1551 1.409 . S
C1545 H1537 0.930 . S
C1545 C1543 1.419 . S
C1545 C1546 1.362 . S
C1546 H1538 0.930 . S
C1546 C1545 1.362 . S
C1546 C1549 1.409 . S
C1547 H1539 0.930 . S
C1547 C1548 1.355 . S
C1547 C1549 1.415 . S
C1548 C1547 1.355 . S
C1548 C1550 1.419 . S
C1549 C1544 1.425 . S
C1549 C1546 1.409 . S
C1549 C1547 1.415 . S
C1550 H1540 0.930 . S
C1550 C1548 1.419 . S
C1550 C1551 1.362 . S
C1551 H1541 0.930 . S
C1551 C1544 1.409 . S
C1551 C1550 1.362 . S
H1552 C1558 0.930 . S
H1553 C1561 0.930 . S
H1554 C1562 0.930 . S
H1555 C1563 0.930 . S
H1556 C1566 0.930 . S
H1557 C1567 0.930 . S
C1558 H1552 0.930 . S
C1558 C1559 1.355 . S
C1558 C1560 1.415 . S
C1559 C1558 1.355 . S
C1559 C1561 1.419 . S
C1560 C1558 1.415 . S
C1560 C1565 1.425 . S
C1560 C1567 1.409 . S
C1561 H1553 0.930 . S
C1561 C1559 1.419 . S
C1561 C1562 1.362 . S
C1562 H1554 0.930 . S
C1562 C1561 1.362 . S
C1562 C1565 1.409 . S
C1563 H1555 0.930 . S
C1563 C1564 1.355 . S
C1563 C1565 1.415 . S
C1564 C1563 1.355 . S
C1564 C1566 1.419 . S
C1565 C1560 1.425 . S
C1565 C1562 1.409 . S
C1565 C1563 1.415 . S
C1566 H1556 0.930 . S
C1566 C1564 1.419 . S
C1566 C1567 1.362 . S
C1567 H1557 0.930 . S
C1567 C1560 1.409 . S
C1567 C1566 1.362 . S
H1568 C1574 0.930 . S
H1569 C1577 0.930 . S
H1570 C1578 0.930 . S
H1571 C1579 0.930 . S
H1572 C1582 0.930 . S
H1573 C1583 0.930 . S
C1574 H1568 0.930 . S
C1574 C1575 1.355 . S
C1574 C1576 1.415 . S
C1575 C1574 1.355 . S
C1575 C1577 1.419 . S
C1576 C1574 1.415 . S
C1576 C1581 1.425 . S
C1576 C1583 1.409 . S
C1577 H1569 0.930 . S
C1577 C1575 1.419 . S
C1577 C1578 1.362 . S
C1578 H1570 0.930 . S
C1578 C1577 1.362 . S
C1578 C1581 1.409 . S
C1579 H1571 0.930 . S
C1579 C1580 1.355 . S
C1579 C1581 1.415 . S
C1580 C1579 1.355 . S
C1580 C1582 1.419 . S
C1581 C1576 1.425 . S
C1581 C1578 1.409 . S
C1581 C1579 1.415 . S
C1582 H1572 0.930 . S
C1582 C1580 1.419 . S
C1582 C1583 1.362 . S
C1583 H1573 0.930 . S
C1583 C1576 1.409 . S
C1583 C1582 1.362 . S
H1584 C1590 0.930 . S
H1585 C1593 0.930 . S
H1586 C1594 0.930 . S
H1587 C1595 0.930 . S
H1588 C1598 0.930 . S
H1589 C1599 0.930 . S
C1590 H1584 0.930 . S
C1590 C1591 1.355 . S
C1590 C1592 1.415 . S
C1591 C1590 1.355 . S
C1591 C1593 1.419 . S
C1592 C1590 1.415 . S
C1592 C1597 1.425 . S
C1592 C1599 1.409 . S
C1593 H1585 0.930 . S
C1593 C1591 1.419 . S
C1593 C1594 1.362 . S
C1594 H1586 0.930 . S
C1594 C1593 1.362 . S
C1594 C1597 1.409 . S
C1595 H1587 0.930 . S
C1595 C1596 1.355 . S
C1595 C1597 1.415 . S
C1596 C1595 1.355 . S
C1596 C1598 1.419 . S
C1597 C1592 1.425 . S
C1597 C1594 1.409 . S
C1597 C1595 1.415 . S
C1598 H1588 0.930 . S
C1598 C1596 1.419 . S
C1598 C1599 1.362 . S
C1599 H1589 0.930 . S
C1599 C1592 1.409 . S
C1599 C1598 1.362 . S
H1600 C1606 0.930 . S
H1601 C1609 0.930 . S
H1602 C1610 0.930 . S
H1603 C1611 0.930 . S
H1604 C1614 0.930 . S
H1605 C1615 0.930 . S
C1606 H1600 0.930 . S
C1606 C1607 1.355 . S
C1606 C1608 1.415 . S
C1607 C1606 1.355 . S
C1607 C1609 1.419 . S
C1608 C1606 1.415 . S
C1608 C1613 1.425 . S
C1608 C1615 1.409 . S
C1609 H1601 0.930 . S
C1609 C1607 1.419 . S
C1609 C1610 1.362 . S
C1610 H1602 0.930 . S
C1610 C1609 1.362 . S
C1610 C1613 1.409 . S
C1611 H1603 0.930 . S
C1611 C1612 1.355 . S
C1611 C1613 1.415 . S
C1612 C1611 1.355 . S
C1612 C1614 1.419 . S
C1613 C1608 1.425 . S
C1613 C1610 1.409 . S
C1613 C1611 1.415 . S
C1614 H1604 0.930 . S
C1614 C1612 1.419 . S
C1614 C1615 1.362 . S
C1615 H1605 0.930 . S
C1615 C1608 1.409 . S
C1615 C1614 1.362 . S
H1616 C1622 0.930 . S
H1617 C1625 0.930 . S
H1618 C1626 0.930 . S
H1619 C1627 0.930 . S
H1620 C1630 0.930 . S
H1621 C1631 0.930 . S
C1622 H1616 0.930 . S
C1622 C1623 1.355 . S
C1622 C1624 1.415 . S
C1623 C1622 1.355 . S
C1623 C1625 1.419 . S
C1624 C1622 1.415 . S
C1624 C1629 1.425 . S
C1624 C1631 1.409 . S
C1625 H1617 0.930 . S
C1625 C1623 1.419 . S
C1625 C1626 1.362 . S
C1626 H1618 0.930 . S
C1626 C1625 1.362 . S
C1626 C1629 1.409 . S
C1627 H1619 0.930 . S
C1627 C1628 1.355 . S
C1627 C1629 1.415 . S
C1628 C1627 1.355 . S
C1628 C1630 1.419 . S
C1629 C1624 1.425 . S
C1629 C1626 1.409 . S
C1629 C1627 1.415 . S
C1630 H1620 0.930 . S
C1630 C1628 1.419 . S
C1630 C1631 1.362 . S
C1631 H1621 0.930 . S
C1631 C1624 1.409 . S
C1631 C1630 1.362 . S
H1632 C1638 0.940 . S
H1633 C1641 0.930 . S
H1634 C1642 0.930 . S
H1635 C1643 0.930 . S
H1636 C1646 0.930 . S
H1637 C1647 0.930 . S
C1638 H1632 0.940 . S
C1638 C1639 1.355 . S
C1638 C1640 1.415 . S
C1639 C1638 1.355 . S
C1639 C1641 1.419 . S
C1640 C1638 1.415 . S
C1640 C1645 1.425 . S
C1640 C1647 1.409 1_655 S
C1641 H1633 0.930 . S
C1641 C1639 1.419 . S
C1641 C1642 1.362 . S
C1642 H1634 0.930 . S
C1642 C1641 1.362 . S
C1642 C1645 1.409 . S
C1643 H1635 0.930 . S
C1643 C1644 1.355 1_655 S
C1643 C1645 1.415 . S
C1644 C1643 1.355 1_455 S
C1644 C1646 1.419 . S
C1645 C1640 1.425 . S
C1645 C1642 1.409 . S
C1645 C1643 1.415 . S
C1646 H1636 0.930 . S
C1646 C1644 1.419 . S
C1646 C1647 1.362 . S
C1647 H1637 0.930 . S
C1647 C1640 1.409 1_455 S
C1647 C1646 1.362 . S
H1648 C1654 0.930 . S
H1649 C1657 0.930 . S
H1650 C1658 0.930 . S
H1651 C1659 0.930 . S
H1652 C1662 0.930 . S
H1653 C1663 0.930 . S
C1654 H1648 0.930 . S
C1654 C1655 1.355 . S
C1654 C1656 1.415 . S
C1655 C1654 1.355 . S
C1655 C1657 1.419 . S
C1656 C1654 1.415 . S
C1656 C1661 1.425 . S
C1656 C1663 1.409 . S
C1657 H1649 0.930 . S
C1657 C1655 1.419 . S
C1657 C1658 1.362 . S
C1658 H1650 0.930 . S
C1658 C1657 1.362 . S
C1658 C1661 1.409 . S
C1659 H1651 0.930 . S
C1659 C1660 1.355 . S
C1659 C1661 1.415 . S
C1660 C1659 1.355 . S
C1660 C1662 1.419 . S
C1661 C1656 1.425 . S
C1661 C1658 1.409 . S
C1661 C1659 1.415 . S
C1662 H1652 0.930 . S
C1662 C1660 1.419 . S
C1662 C1663 1.362 . S
C1663 H1653 0.930 . S
C1663 C1656 1.409 . S
C1663 C1662 1.362 . S
H1664 C1670 0.930 . S
H1665 C1673 0.930 . S
H1666 C1674 0.930 . S
H1667 C1675 0.930 . S
H1668 C1678 0.930 . S
H1669 C1679 0.930 . S
C1670 H1664 0.930 . S
C1670 C1671 1.355 . S
C1670 C1672 1.415 . S
C1671 C1670 1.355 . S
C1671 C1673 1.419 . S
C1672 C1670 1.415 . S
C1672 C1677 1.425 . S
C1672 C1679 1.409 . S
C1673 H1665 0.930 . S
C1673 C1671 1.419 . S
C1673 C1674 1.362 . S
C1674 H1666 0.930 . S
C1674 C1673 1.362 . S
C1674 C1677 1.409 . S
C1675 H1667 0.930 . S
C1675 C1676 1.355 . S
C1675 C1677 1.415 . S
C1676 C1675 1.355 . S
C1676 C1678 1.419 . S
C1677 C1672 1.425 . S
C1677 C1674 1.409 . S
C1677 C1675 1.415 . S
C1678 H1668 0.930 . S
C1678 C1676 1.419 . S
C1678 C1679 1.362 . S
C1679 H1669 0.930 . S
C1679 C1672 1.409 . S
C1679 C1678 1.362 . S
H1680 C1686 0.930 . S
H1681 C1689 0.930 . S
H1682 C1690 0.930 . S
H1683 C1691 0.930 . S
H1684 C1694 0.930 . S
H1685 C1695 0.930 . S
C1686 H1680 0.930 . S
C1686 C1687 1.355 . S
C1686 C1688 1.415 . S
C1687 C1686 1.355 . S
C1687 C1689 1.419 . S
C1688 C1686 1.415 . S
C1688 C1693 1.425 . S
C1688 C1695 1.409 . S
C1689 H1681 0.930 . S
C1689 C1687 1.419 . S
C1689 C1690 1.362 . S
C1690 H1682 0.930 . S
C1690 C1689 1.362 . S
C1690 C1693 1.409 . S
C1691 H1683 0.930 . S
C1691 C1692 1.355 . S
C1691 C1693 1.415 . S
C1692 C1691 1.355 . S
C1692 C1694 1.419 . S
C1693 C1688 1.425 . S
C1693 C1690 1.409 . S
C1693 C1691 1.415 . S
C1694 H1684 0.930 . S
C1694 C1692 1.419 . S
C1694 C1695 1.362 . S
C1695 H1685 0.930 . S
C1695 C1688 1.409 . S
C1695 C1694 1.362 . S
H1696 C1702 0.930 . S
H1697 C1705 0.930 . S
H1698 C1706 0.930 . S
H1699 C1707 0.920 1_565 S
H1700 C1710 0.930 . S
H1701 C1711 0.930 . S
C1702 H1696 0.930 . S
C1702 C1703 1.355 . S
C1702 C1704 1.415 . S
C1703 C1702 1.355 . S
C1703 C1705 1.419 1_545 S
C1704 C1702 1.415 . S
C1704 C1709 1.425 . S
C1704 C1711 1.409 1_655 S
C1705 H1697 0.930 . S
C1705 C1703 1.419 1_565 S
C1705 C1706 1.362 . S
C1706 H1698 0.930 . S
C1706 C1705 1.362 . S
C1706 C1709 1.409 1_565 S
C1707 H1699 0.920 1_545 S
C1707 C1708 1.358 1_655 S
C1707 C1709 1.421 . S
C1708 C1707 1.358 1_455 S
C1708 C1710 1.419 . S
C1709 C1704 1.425 . S
C1709 C1706 1.409 1_545 S
C1709 C1707 1.421 . S
C1710 H1700 0.930 . S
C1710 C1708 1.419 . S
C1710 C1711 1.362 . S
C1711 H1701 0.930 . S
C1711 C1704 1.409 1_455 S
C1711 C1710 1.362 . S
H1712 C1718 0.930 . S
H1713 C1721 0.930 . S
H1714 C1722 0.930 . S
H1715 C1723 0.930 . S
H1716 C1726 0.930 . S
H1717 C1727 0.930 . S
C1718 H1712 0.930 . S
C1718 C1719 1.355 . S
C1718 C1720 1.415 . S
C1719 C1718 1.355 . S
C1719 C1721 1.419 . S
C1720 C1718 1.415 . S
C1720 C1725 1.425 . S
C1720 C1727 1.409 . S
C1721 H1713 0.930 . S
C1721 C1719 1.419 . S
C1721 C1722 1.362 . S
C1722 H1714 0.930 . S
C1722 C1721 1.362 . S
C1722 C1725 1.409 . S
C1723 H1715 0.930 . S
C1723 C1724 1.355 . S
C1723 C1725 1.415 . S
C1724 C1723 1.355 . S
C1724 C1726 1.419 . S
C1725 C1720 1.425 . S
C1725 C1722 1.409 . S
C1725 C1723 1.415 . S
C1726 H1716 0.930 . S
C1726 C1724 1.419 . S
C1726 C1727 1.362 . S
C1727 H1717 0.930 . S
C1727 C1720 1.409 . S
C1727 C1726 1.362 . S
H1728 C1734 0.930 . S
H1729 C1737 0.930 . S
H1730 C1738 0.930 . S
H1731 C1739 0.930 . S
H1732 C1742 0.930 . S
H1733 C1743 0.930 . S
C1734 H1728 0.930 . S
C1734 C1735 1.355 . S
C1734 C1736 1.415 . S
C1735 C1734 1.355 . S
C1735 C1737 1.419 . S
C1736 C1734 1.415 . S
C1736 C1741 1.425 . S
C1736 C1743 1.409 . S
C1737 H1729 0.930 . S
C1737 C1735 1.419 . S
C1737 C1738 1.362 . S
C1738 H1730 0.930 . S
C1738 C1737 1.362 . S
C1738 C1741 1.409 . S
C1739 H1731 0.930 . S
C1739 C1740 1.355 . S
C1739 C1741 1.415 . S
C1740 C1739 1.355 . S
C1740 C1742 1.419 . S
C1741 C1736 1.425 . S
C1741 C1738 1.409 . S
C1741 C1739 1.415 . S
C1742 H1732 0.930 . S
C1742 C1740 1.419 . S
C1742 C1743 1.362 . S
C1743 H1733 0.930 . S
C1743 C1736 1.409 . S
C1743 C1742 1.362 . S
H1744 C1750 0.930 . S
H1745 C1753 0.930 . S
H1746 C1754 0.930 . S
H1747 C1755 0.930 . S
H1748 C1758 0.930 . S
H1749 C1759 0.930 . S
C1750 H1744 0.930 . S
C1750 C1751 1.355 . S
C1750 C1752 1.415 . S
C1751 C1750 1.355 . S
C1751 C1753 1.419 . S
C1752 C1750 1.415 . S
C1752 C1757 1.425 . S
C1752 C1759 1.409 . S
C1753 H1745 0.930 . S
C1753 C1751 1.419 . S
C1753 C1754 1.362 . S
C1754 H1746 0.930 . S
C1754 C1753 1.362 . S
C1754 C1757 1.409 . S
C1755 H1747 0.930 . S
C1755 C1756 1.355 . S
C1755 C1757 1.415 . S
C1756 C1755 1.355 . S
C1756 C1758 1.419 . S
C1757 C1752 1.425 . S
C1757 C1754 1.409 . S
C1757 C1755 1.415 . S
C1758 H1748 0.930 . S
C1758 C1756 1.419 . S
C1758 C1759 1.362 . S
C1759 H1749 0.930 . S
C1759 C1752 1.409 . S
C1759 C1758 1.362 . S
H1760 C1766 0.930 . S
H1761 C1769 0.930 . S
H1762 C1770 0.930 . S
H1763 C1771 0.930 . S
H1764 C1774 0.930 . S
H1765 C1775 0.930 . S
C1766 H1760 0.930 . S
C1766 C1767 1.355 . S
C1766 C1768 1.415 . S
C1767 C1766 1.355 . S
C1767 C1769 1.419 1_565 S
C1768 C1766 1.415 . S
C1768 C1773 1.425 1_565 S
C1768 C1775 1.409 . S
C1769 H1761 0.930 . S
C1769 C1767 1.419 1_545 S
C1769 C1770 1.362 . S
C1770 H1762 0.930 . S
C1770 C1769 1.362 . S
C1770 C1773 1.409 . S
C1771 H1763 0.930 . S
C1771 C1772 1.355 . S
C1771 C1773 1.415 . S
C1772 C1771 1.355 . S
C1772 C1774 1.419 1_545 S
C1773 C1768 1.425 1_545 S
C1773 C1770 1.409 . S
C1773 C1771 1.415 . S
C1774 H1764 0.930 . S
C1774 C1772 1.419 1_565 S
C1774 C1775 1.362 . S
C1775 H1765 0.930 . S
C1775 C1768 1.409 . S
C1775 C1774 1.362 . S
H1776 C1782 0.930 . S
H1777 C1785 0.930 . S
H1778 C1786 0.930 . S
H1779 C1787 0.930 . S
H1780 C1790 0.930 . S
H1781 C1791 0.930 . S
C1782 H1776 0.930 . S
C1782 C1783 1.355 . S
C1782 C1784 1.415 . S
C1783 C1782 1.355 . S
C1783 C1785 1.419 . S
C1784 C1782 1.415 . S
C1784 C1789 1.425 . S
C1784 C1791 1.409 . S
C1785 H1777 0.930 . S
C1785 C1783 1.419 . S
C1785 C1786 1.362 . S
C1786 H1778 0.930 . S
C1786 C1785 1.362 . S
C1786 C1789 1.409 . S
C1787 H1779 0.930 . S
C1787 C1788 1.355 . S
C1787 C1789 1.415 . S
C1788 C1787 1.355 . S
C1788 C1790 1.419 . S
C1789 C1784 1.425 . S
C1789 C1786 1.409 . S
C1789 C1787 1.415 . S
C1790 H1780 0.930 . S
C1790 C1788 1.419 . S
C1790 C1791 1.362 . S
C1791 H1781 0.930 . S
C1791 C1784 1.409 . S
C1791 C1790 1.362 . S
H1792 C1798 0.930 . S
H1793 C1801 0.930 . S
H1794 C1802 0.930 . S
H1795 C1803 0.930 . S
H1796 C1806 0.930 . S
H1797 C1807 0.930 . S
C1798 H1792 0.930 . S
C1798 C1799 1.355 . S
C1798 C1800 1.415 . S
C1799 C1798 1.355 . S
C1799 C1801 1.419 . S
C1800 C1798 1.415 . S
C1800 C1805 1.425 . S
C1800 C1807 1.409 . S
C1801 H1793 0.930 . S
C1801 C1799 1.419 . S
C1801 C1802 1.362 . S
C1802 H1794 0.930 . S
C1802 C1801 1.362 . S
C1802 C1805 1.409 . S
C1803 H1795 0.930 . S
C1803 C1804 1.355 . S
C1803 C1805 1.415 . S
C1804 C1803 1.355 . S
C1804 C1806 1.419 . S
C1805 C1800 1.425 . S
C1805 C1802 1.409 . S
C1805 C1803 1.415 . S
C1806 H1796 0.930 . S
C1806 C1804 1.419 . S
C1806 C1807 1.362 . S
C1807 H1797 0.930 . S
C1807 C1800 1.409 . S
C1807 C1806 1.362 . S
H1808 C1814 0.930 . S
H1809 C1817 0.930 . S
H1810 C1818 0.930 . S
H1811 C1819 0.930 . S
H1812 C1822 0.930 . S
H1813 C1823 0.930 . S
C1814 H1808 0.930 . S
C1814 C1815 1.355 . S
C1814 C1816 1.415 . S
C1815 C1814 1.355 . S
C1815 C1817 1.419 . S
C1816 C1814 1.415 . S
C1816 C1821 1.425 . S
C1816 C1823 1.409 . S
C1817 H1809 0.930 . S
C1817 C1815 1.419 . S
C1817 C1818 1.362 . S
C1818 H1810 0.930 . S
C1818 C1817 1.362 . S
C1818 C1821 1.409 . S
C1819 H1811 0.930 . S
C1819 C1820 1.355 . S
C1819 C1821 1.415 . S
C1820 C1819 1.355 . S
C1820 C1822 1.419 . S
C1821 C1816 1.425 . S
C1821 C1818 1.409 . S
C1821 C1819 1.415 . S
C1822 H1812 0.930 . S
C1822 C1820 1.419 . S
C1822 C1823 1.362 . S
C1823 H1813 0.930 . S
C1823 C1816 1.409 . S
C1823 C1822 1.362 . S
H1824 C1830 0.930 . S
H1825 C1833 0.930 . S
H1826 C1834 0.930 . S
H1827 C1835 0.930 . S
H1828 C1838 0.930 . S
H1829 C1839 0.930 . S
C1830 H1824 0.930 . S
C1830 C1831 1.355 . S
C1830 C1832 1.415 . S
C1831 C1830 1.355 . S
C1831 C1833 1.419 . S
C1832 C1830 1.415 . S
C1832 C1837 1.425 . S
C1832 C1839 1.409 . S
C1833 H1825 0.930 . S
C1833 C1831 1.419 . S
C1833 C1834 1.362 . S
C1834 H1826 0.930 . S
C1834 C1833 1.362 . S
C1834 C1837 1.409 . S
C1835 H1827 0.930 . S
C1835 C1836 1.355 . S
C1835 C1837 1.415 . S
C1836 C1835 1.355 . S
C1836 C1838 1.419 . S
C1837 C1832 1.425 . S
C1837 C1834 1.409 . S
C1837 C1835 1.415 . S
C1838 H1828 0.930 . S
C1838 C1836 1.419 . S
C1838 C1839 1.362 . S
C1839 H1829 0.930 . S
C1839 C1832 1.409 . S
C1839 C1838 1.362 . S
H1840 C1846 0.930 . S
H1841 C1849 0.930 . S
H1842 C1850 0.930 . S
H1843 C1851 0.930 . S
H1844 C1854 0.930 . S
H1845 C1855 0.930 . S
C1846 H1840 0.930 . S
C1846 C1847 1.355 . S
C1846 C1848 1.415 . S
C1847 C1846 1.355 . S
C1847 C1849 1.419 . S
C1848 C1846 1.415 . S
C1848 C1853 1.425 . S
C1848 C1855 1.409 . S
C1849 H1841 0.930 . S
C1849 C1847 1.419 . S
C1849 C1850 1.362 . S
C1850 H1842 0.930 . S
C1850 C1849 1.362 . S
C1850 C1853 1.409 . S
C1851 H1843 0.930 . S
C1851 C1852 1.355 . S
C1851 C1853 1.415 . S
C1852 C1851 1.355 . S
C1852 C1854 1.419 . S
C1853 C1848 1.425 . S
C1853 C1850 1.409 . S
C1853 C1851 1.415 . S
C1854 H1844 0.930 . S
C1854 C1852 1.419 . S
C1854 C1855 1.362 . S
C1855 H1845 0.930 . S
C1855 C1848 1.409 . S
C1855 C1854 1.362 . S
H1856 C1862 0.930 . S
H1857 C1865 0.930 . S
H1858 C1866 0.930 . S
H1859 C1867 0.930 . S
H1860 C1870 0.930 . S
H1861 C1871 0.930 . S
C1862 H1856 0.930 . S
C1862 C1863 1.355 . S
C1862 C1864 1.415 . S
C1863 C1862 1.355 . S
C1863 C1865 1.419 . S
C1864 C1862 1.415 . S
C1864 C1869 1.425 . S
C1864 C1871 1.409 . S
C1865 H1857 0.930 . S
C1865 C1863 1.419 . S
C1865 C1866 1.362 . S
C1866 H1858 0.930 . S
C1866 C1865 1.362 . S
C1866 C1869 1.409 . S
C1867 H1859 0.930 . S
C1867 C1868 1.355 . S
C1867 C1869 1.415 . S
C1868 C1867 1.355 . S
C1868 C1870 1.419 . S
C1869 C1864 1.425 . S
C1869 C1866 1.409 . S
C1869 C1867 1.415 . S
C1870 H1860 0.930 . S
C1870 C1868 1.419 . S
C1870 C1871 1.362 . S
C1871 H1861 0.930 . S
C1871 C1864 1.409 . S
C1871 C1870 1.362 . S
H1872 C1878 0.930 . S
H1873 C1881 0.930 . S
H1874 C1882 0.930 . S
H1875 C1883 0.930 . S
H1876 C1886 0.930 . S
H1877 C1887 0.930 . S
C1878 H1872 0.930 . S
C1878 C1879 1.355 . S
C1878 C1880 1.415 . S
C1879 C1878 1.355 . S
C1879 C1881 1.419 . S
C1880 C1878 1.415 . S
C1880 C1885 1.425 . S
C1880 C1887 1.409 . S
C1881 H1873 0.930 . S
C1881 C1879 1.419 . S
C1881 C1882 1.362 . S
C1882 H1874 0.930 . S
C1882 C1881 1.362 . S
C1882 C1885 1.409 . S
C1883 H1875 0.930 . S
C1883 C1884 1.355 . S
C1883 C1885 1.415 . S
C1884 C1883 1.355 . S
C1884 C1886 1.419 . S
C1885 C1880 1.425 . S
C1885 C1882 1.409 . S
C1885 C1883 1.415 . S
C1886 H1876 0.930 . S
C1886 C1884 1.419 . S
C1886 C1887 1.362 . S
C1887 H1877 0.930 . S
C1887 C1880 1.409 . S
C1887 C1886 1.362 . S
H1888 C1894 0.930 . S
H1889 C1897 0.930 . S
H1890 C1898 0.930 . S
H1891 C1899 0.930 . S
H1892 C1902 0.930 . S
H1893 C1903 0.930 . S
C1894 H1888 0.930 . S
C1894 C1895 1.355 . S
C1894 C1896 1.415 . S
C1895 C1894 1.355 . S
C1895 C1897 1.419 . S
C1896 C1894 1.415 . S
C1896 C1901 1.425 . S
C1896 C1903 1.409 . S
C1897 H1889 0.930 . S
C1897 C1895 1.419 . S
C1897 C1898 1.362 . S
C1898 H1890 0.930 . S
C1898 C1897 1.362 . S
C1898 C1901 1.409 . S
C1899 H1891 0.930 . S
C1899 C1900 1.355 . S
C1899 C1901 1.415 . S
C1900 C1899 1.355 . S
C1900 C1902 1.419 . S
C1901 C1896 1.425 . S
C1901 C1898 1.409 . S
C1901 C1899 1.415 . S
C1902 H1892 0.930 . S
C1902 C1900 1.419 . S
C1902 C1903 1.362 . S
C1903 H1893 0.930 . S
C1903 C1896 1.409 . S
C1903 C1902 1.362 . S
H1904 C1910 0.930 . S
H1905 C1913 0.930 . S
H1906 C1914 0.930 . S
H1907 C1915 0.930 . S
H1908 C1918 0.930 . S
H1909 C1919 0.930 . S
C1910 H1904 0.930 . S
C1910 C1911 1.355 . S
C1910 C1912 1.415 . S
C1911 C1910 1.355 . S
C1911 C1913 1.419 . S
C1912 C1910 1.415 . S
C1912 C1917 1.425 . S
C1912 C1919 1.409 . S
C1913 H1905 0.930 . S
C1913 C1911 1.419 . S
C1913 C1914 1.362 . S
C1914 H1906 0.930 . S
C1914 C1913 1.362 . S
C1914 C1917 1.409 . S
C1915 H1907 0.930 . S
C1915 C1916 1.355 . S
C1915 C1917 1.415 . S
C1916 C1915 1.355 . S
C1916 C1918 1.419 . S
C1917 C1912 1.425 . S
C1917 C1914 1.409 . S
C1917 C1915 1.415 . S
C1918 H1908 0.930 . S
C1918 C1916 1.419 . S
C1918 C1919 1.362 . S
C1919 H1909 0.930 . S
C1919 C1912 1.409 . S
C1919 C1918 1.362 . S
H1920 C1926 0.930 . S
H1921 C1929 0.930 . S
H1922 C1930 0.930 . S
H1923 C1931 0.930 . S
H1924 C1934 0.930 . S
H1925 C1935 0.930 . S
C1926 H1920 0.930 . S
C1926 C1927 1.355 . S
C1926 C1928 1.415 . S
C1927 C1926 1.355 . S
C1927 C1929 1.419 . S
C1928 C1926 1.415 . S
C1928 C1933 1.425 . S
C1928 C1935 1.409 . S
C1929 H1921 0.930 . S
C1929 C1927 1.419 . S
C1929 C1930 1.362 . S
C1930 H1922 0.930 . S
C1930 C1929 1.362 . S
C1930 C1933 1.409 . S
C1931 H1923 0.930 . S
C1931 C1932 1.355 . S
C1931 C1933 1.415 . S
C1932 C1931 1.355 . S
C1932 C1934 1.419 . S
C1933 C1928 1.425 . S
C1933 C1930 1.409 . S
C1933 C1931 1.415 . S
C1934 H1924 0.930 . S
C1934 C1932 1.419 . S
C1934 C1935 1.362 . S
C1935 H1925 0.930 . S
C1935 C1928 1.409 . S
C1935 C1934 1.362 . S
H1936 C1942 0.930 . S
H1937 C1945 0.930 . S
H1938 C1946 0.930 . S
H1939 C1947 0.930 . S
H1940 C1950 0.930 . S
H1941 C1951 0.930 . S
C1942 H1936 0.930 . S
C1942 C1943 1.355 . S
C1942 C1944 1.415 . S
C1943 C1942 1.355 . S
C1943 C1945 1.419 . S
C1944 C1942 1.415 . S
C1944 C1949 1.425 . S
C1944 C1951 1.409 . S
C1945 H1937 0.930 . S
C1945 C1943 1.419 . S
C1945 C1946 1.362 . S
C1946 H1938 0.930 . S
C1946 C1945 1.362 . S
C1946 C1949 1.409 . S
C1947 H1939 0.930 . S
C1947 C1948 1.355 . S
C1947 C1949 1.415 . S
C1948 C1947 1.355 . S
C1948 C1950 1.419 . S
C1949 C1944 1.425 . S
C1949 C1946 1.409 . S
C1949 C1947 1.415 . S
C1950 H1940 0.930 . S
C1950 C1948 1.419 . S
C1950 C1951 1.362 . S
C1951 H1941 0.930 . S
C1951 C1944 1.409 . S
C1951 C1950 1.362 . S
H1952 C1958 0.930 . S
H1953 C1961 0.930 . S
H1954 C1962 0.930 . S
H1955 C1963 0.930 . S
H1956 C1966 0.930 . S
H1957 C1967 0.930 . S
C1958 H1952 0.930 . S
C1958 C1959 1.355 . S
C1958 C1960 1.415 . S
C1959 C1958 1.355 . S
C1959 C1961 1.419 . S
C1960 C1958 1.415 . S
C1960 C1965 1.425 . S
C1960 C1967 1.409 . S
C1961 H1953 0.930 . S
C1961 C1959 1.419 . S
C1961 C1962 1.362 . S
C1962 H1954 0.930 . S
C1962 C1961 1.362 . S
C1962 C1965 1.409 . S
C1963 H1955 0.930 . S
C1963 C1964 1.355 . S
C1963 C1965 1.415 . S
C1964 C1963 1.355 . S
C1964 C1966 1.419 . S
C1965 C1960 1.425 . S
C1965 C1962 1.409 . S
C1965 C1963 1.415 . S
C1966 H1956 0.930 . S
C1966 C1964 1.419 . S
C1966 C1967 1.362 . S
C1967 H1957 0.930 . S
C1967 C1960 1.409 . S
C1967 C1966 1.362 . S
H1968 C1974 0.930 . S
H1969 C1977 0.930 . S
H1970 C1978 0.930 . S
H1971 C1979 0.930 . S
H1972 C1982 0.930 . S
H1973 C1983 0.930 . S
C1974 H1968 0.930 . S
C1974 C1975 1.355 . S
C1974 C1976 1.415 . S
C1975 C1974 1.355 . S
C1975 C1977 1.419 . S
C1976 C1974 1.415 . S
C1976 C1981 1.425 . S
C1976 C1983 1.409 . S
C1977 H1969 0.930 . S
C1977 C1975 1.419 . S
C1977 C1978 1.362 . S
C1978 H1970 0.930 . S
C1978 C1977 1.362 . S
C1978 C1981 1.409 . S
C1979 H1971 0.930 . S
C1979 C1980 1.355 . S
C1979 C1981 1.415 . S
C1980 C1979 1.355 . S
C1980 C1982 1.419 . S
C1981 C1976 1.425 . S
C1981 C1978 1.409 . S
C1981 C1979 1.415 . S
C1982 H1972 0.930 . S
C1982 C1980 1.419 . S
C1982 C1983 1.362 . S
C1983 H1973 0.930 . S
C1983 C1976 1.409 . S
C1983 C1982 1.362 . S
H1984 C1990 0.930 . S
H1985 C1993 0.930 . S
H1986 C1994 0.930 . S
H1987 C1995 0.961 . S
H1988 C1998 0.930 . S
H1989 C1999 0.930 . S
C1990 H1984 0.930 . S
C1990 C1991 1.355 . S
C1990 C1992 1.415 . S
C1991 C1990 1.355 . S
C1991 C1993 1.419 . S
C1992 C1990 1.415 . S
C1992 C1997 1.425 . S
C1992 C1999 1.409 . S
C1993 H1985 0.930 . S
C1993 C1991 1.419 . S
C1993 C1994 1.362 . S
C1994 H1986 0.930 . S
C1994 C1993 1.362 . S
C1994 C1997 1.409 . S
C1995 H1987 0.961 . S
C1995 C1996 1.355 . S
C1995 C1997 1.415 . S
C1996 C1995 1.355 . S
C1996 C1998 1.419 . S
C1997 C1992 1.425 . S
C1997 C1994 1.409 . S
C1997 C1995 1.415 . S
C1998 H1988 0.930 . S
C1998 C1996 1.419 . S
C1998 C1999 1.362 . S
C1999 H1989 0.930 . S
C1999 C1992 1.409 . S
C1999 C1998 1.362 . S
H2000 C2006 0.930 . S
H2001 C2009 0.930 . S
H2002 C2010 0.930 . S
H2003 C2011 0.930 . S
H2004 C2014 0.930 . S
H2005 C2015 0.930 . S
C2006 H2000 0.930 . S
C2006 C2007 1.355 . S
C2006 C2008 1.415 . S
C2007 C2006 1.355 . S
C2007 C2009 1.419 . S
C2008 C2006 1.415 . S
C2008 C2013 1.425 . S
C2008 C2015 1.409 . S
C2009 H2001 0.930 . S
C2009 C2007 1.419 . S
C2009 C2010 1.362 . S
C2010 H2002 0.930 . S
C2010 C2009 1.362 . S
C2010 C2013 1.409 . S
C2011 H2003 0.930 . S
C2011 C2012 1.355 . S
C2011 C2013 1.415 . S
C2012 C2011 1.355 . S
C2012 C2014 1.419 . S
C2013 C2008 1.425 . S
C2013 C2010 1.409 . S
C2013 C2011 1.415 . S
C2014 H2004 0.930 . S
C2014 C2012 1.419 . S
C2014 C2015 1.362 . S
C2015 H2005 0.930 . S
C2015 C2008 1.409 . S
C2015 C2014 1.362 . S
H2016 C2022 0.930 . S
H2017 C2025 0.930 . S
H2018 C2026 0.930 . S
H2019 C2027 0.930 . S
H2020 C2030 0.930 . S
H2021 C2031 0.930 . S
C2022 H2016 0.930 . S
C2022 C2023 1.355 . S
C2022 C2024 1.415 . S
C2023 C2022 1.355 . S
C2023 C2025 1.419 . S
C2024 C2022 1.415 . S
C2024 C2029 1.425 . S
C2024 C2031 1.409 . S
C2025 H2017 0.930 . S
C2025 C2023 1.419 . S
C2025 C2026 1.362 . S
C2026 H2018 0.930 . S
C2026 C2025 1.362 . S
C2026 C2029 1.409 . S
C2027 H2019 0.930 . S
C2027 C2028 1.355 . S
C2027 C2029 1.415 . S
C2028 C2027 1.355 . S
C2028 C2030 1.419 . S
C2029 C2024 1.425 . S
C2029 C2026 1.409 . S
C2029 C2027 1.415 . S
C2030 H2020 0.930 . S
C2030 C2028 1.419 . S
C2030 C2031 1.362 . S
C2031 H2021 0.930 . S
C2031 C2024 1.409 . S
C2031 C2030 1.362 . S
H2032 C2038 0.930 . S
H2033 C2041 0.930 . S
H2034 C2042 0.930 . S
H2035 C2043 0.930 . S
H2036 C2046 0.930 . S
H2037 C2047 0.930 . S
C2038 H2032 0.930 . S
C2038 C2039 1.355 . S
C2038 C2040 1.415 . S
C2039 C2038 1.355 . S
C2039 C2041 1.419 . S
C2040 C2038 1.415 . S
C2040 C2045 1.425 . S
C2040 C2047 1.409 . S
C2041 H2033 0.930 . S
C2041 C2039 1.419 . S
C2041 C2042 1.362 . S
C2042 H2034 0.930 . S
C2042 C2041 1.362 . S
C2042 C2045 1.409 . S
C2043 H2035 0.930 . S
C2043 C2044 1.355 . S
C2043 C2045 1.415 . S
C2044 C2043 1.355 . S
C2044 C2046 1.419 . S
C2045 C2040 1.425 . S
C2045 C2042 1.409 . S
C2045 C2043 1.415 . S
C2046 H2036 0.930 . S
C2046 C2044 1.419 . S
C2046 C2047 1.362 . S
C2047 H2037 0.930 . S
C2047 C2040 1.409 . S
C2047 C2046 1.362 . S
H2048 C2054 0.930 . S
H2049 C2057 0.930 . S
H2050 C2058 0.930 . S
H2051 C2059 0.930 . S
H2052 C2062 0.930 . S
H2053 C2063 0.930 1_565 S
C2054 H2048 0.930 . S
C2054 C2055 1.355 . S
C2054 C2056 1.415 . S
C2055 C2054 1.355 . S
C2055 C2057 1.419 . S
C2056 C2054 1.415 . S
C2056 C2061 1.425 . S
C2056 C2063 1.409 . S
C2057 H2049 0.930 . S
C2057 C2055 1.419 . S
C2057 C2058 1.362 . S
C2058 H2050 0.930 . S
C2058 C2057 1.362 . S
C2058 C2061 1.409 . S
C2059 H2051 0.930 . S
C2059 C2060 1.355 . S
C2059 C2061 1.415 . S
C2060 C2059 1.355 . S
C2060 C2062 1.419 . S
C2061 C2056 1.425 . S
C2061 C2058 1.409 . S
C2061 C2059 1.415 . S
C2062 H2052 0.930 . S
C2062 C2060 1.419 . S
C2062 C2063 1.362 . S
C2063 H2053 0.930 1_545 S
C2063 C2056 1.409 . S
C2063 C2062 1.362 . S
H2064 C2070 0.930 . S
H2065 C2073 0.930 . S
H2066 C2074 0.930 . S
H2067 C2075 0.930 . S
H2068 C2078 0.930 . S
H2069 C2079 0.930 . S
C2070 H2064 0.930 . S
C2070 C2071 1.355 . S
C2070 C2072 1.415 . S
C2071 C2070 1.355 . S
C2071 C2073 1.419 . S
C2072 C2070 1.415 . S
C2072 C2077 1.425 . S
C2072 C2079 1.409 . S
C2073 H2065 0.930 . S
C2073 C2071 1.419 . S
C2073 C2074 1.362 . S
C2074 H2066 0.930 . S
C2074 C2073 1.362 . S
C2074 C2077 1.409 . S
C2075 H2067 0.930 . S
C2075 C2076 1.355 . S
C2075 C2077 1.415 . S
C2076 C2075 1.355 . S
C2076 C2078 1.419 . S
C2077 C2072 1.425 . S
C2077 C2074 1.409 . S
C2077 C2075 1.415 . S
C2078 H2068 0.930 . S
C2078 C2076 1.419 . S
C2078 C2079 1.362 . S
C2079 H2069 0.930 . S
C2079 C2072 1.409 . S
C2079 C2078 1.362 . S
H2080 C2086 0.930 . S
H2081 C2089 0.930 . S
H2082 C2090 0.930 . S
H2083 C2091 0.930 . S
H2084 C2094 0.930 . S
H2085 C2095 0.930 . S
C2086 H2080 0.930 . S
C2086 C2087 1.355 . S
C2086 C2088 1.415 . S
C2087 C2086 1.355 . S
C2087 C2089 1.419 . S
C2088 C2086 1.415 . S
C2088 C2093 1.425 . S
C2088 C2095 1.409 . S
C2089 H2081 0.930 . S
C2089 C2087 1.419 . S
C2089 C2090 1.362 . S
C2090 H2082 0.930 . S
C2090 C2089 1.362 . S
C2090 C2093 1.409 . S
C2091 H2083 0.930 . S
C2091 C2092 1.355 . S
C2091 C2093 1.415 . S
C2092 C2091 1.355 . S
C2092 C2094 1.419 . S
C2093 C2088 1.425 . S
C2093 C2090 1.409 . S
C2093 C2091 1.415 . S
C2094 H2084 0.930 . S
C2094 C2092 1.419 . S
C2094 C2095 1.362 . S
C2095 H2085 0.930 . S
C2095 C2088 1.409 . S
C2095 C2094 1.362 . S
H2096 C2102 0.930 . S
H2097 C2105 0.930 . S
H2098 C2106 0.930 . S
H2099 C2107 0.930 . S
H2100 C2110 0.930 . S
H2101 C2111 0.930 . S
C2102 H2096 0.930 . S
C2102 C2103 1.355 . S
C2102 C2104 1.415 . S
C2103 C2102 1.355 . S
C2103 C2105 1.419 . S
C2104 C2102 1.415 . S
C2104 C2109 1.425 . S
C2104 C2111 1.409 . S
C2105 H2097 0.930 . S
C2105 C2103 1.419 . S
C2105 C2106 1.362 . S
C2106 H2098 0.930 . S
C2106 C2105 1.362 . S
C2106 C2109 1.409 . S
C2107 H2099 0.930 . S
C2107 C2108 1.355 . S
C2107 C2109 1.415 . S
C2108 C2107 1.355 . S
C2108 C2110 1.419 . S
C2109 C2104 1.425 . S
C2109 C2106 1.409 . S
C2109 C2107 1.415 . S
C2110 H2100 0.930 . S
C2110 C2108 1.419 . S
C2110 C2111 1.362 . S
C2111 H2101 0.930 . S
C2111 C2104 1.409 . S
C2111 C2110 1.362 . S
H2112 C2118 0.930 . S
H2113 C2121 0.930 . S
H2114 C2122 0.930 . S
H2115 C2123 0.930 . S
H2116 C2126 0.930 . S
H2117 C2127 0.930 . S
C2118 H2112 0.930 . S
C2118 C2119 1.355 . S
C2118 C2120 1.415 . S
C2119 C2118 1.355 . S
C2119 C2121 1.419 . S
C2120 C2118 1.415 . S
C2120 C2125 1.425 . S
C2120 C2127 1.409 . S
C2121 H2113 0.930 . S
C2121 C2119 1.419 . S
C2121 C2122 1.362 . S
C2122 H2114 0.930 . S
C2122 C2121 1.362 . S
C2122 C2125 1.409 . S
C2123 H2115 0.930 . S
C2123 C2124 1.355 . S
C2123 C2125 1.415 . S
C2124 C2123 1.355 . S
C2124 C2126 1.419 . S
C2125 C2120 1.425 . S
C2125 C2122 1.409 . S
C2125 C2123 1.415 . S
C2126 H2116 0.930 . S
C2126 C2124 1.419 . S
C2126 C2127 1.362 . S
C2127 H2117 0.930 . S
C2127 C2120 1.409 . S
C2127 C2126 1.362 . S
H2128 C2134 0.930 . S
H2129 C2137 0.930 . S
H2130 C2138 0.930 . S
H2131 C2139 0.930 . S
H2132 C2142 0.930 . S
H2133 C2143 0.930 . S
C2134 H2128 0.930 . S
C2134 C2135 1.355 . S
C2134 C2136 1.415 . S
C2135 C2134 1.355 . S
C2135 C2137 1.419 . S
C2136 C2134 1.415 . S
C2136 C2141 1.425 . S
C2136 C2143 1.409 . S
C2137 H2129 0.930 . S
C2137 C2135 1.419 . S
C2137 C2138 1.362 . S
C2138 H2130 0.930 . S
C2138 C2137 1.362 . S
C2138 C2141 1.409 . S
C2139 H2131 0.930 . S
C2139 C2140 1.355 . S
C2139 C2141 1.415 . S
C2140 C2139 1.355 . S
C2140 C2142 1.419 . S
C2141 C2136 1.425 . S
C2141 C2138 1.409 . S
C2141 C2139 1.415 . S
C2142 H2132 0.930 . S
C2142 C2140 1.419 . S
C2142 C2143 1.362 . S
C2143 H2133 0.930 . S
C2143 C2136 1.409 . S
C2143 C2142 1.362 . S
H2144 C2150 0.930 . S
H2145 C2153 0.930 . S
H2146 C2154 0.930 . S
H2147 C2155 0.930 1_556 S
H2148 C2158 0.930 . S
H2149 C2159 0.930 . S
C2150 H2144 0.930 . S
C2150 C2151 1.355 . S
C2150 C2152 1.415 . S
C2151 C2150 1.355 . S
C2151 C2153 1.419 . S
C2152 C2150 1.415 . S
C2152 C2157 1.425 . S
C2152 C2159 1.409 . S
C2153 H2145 0.930 . S
C2153 C2151 1.419 . S
C2153 C2154 1.362 . S
C2154 H2146 0.930 . S
C2154 C2153 1.362 . S
C2154 C2157 1.409 . S
C2155 H2147 0.930 1_554 S
C2155 C2156 1.355 . S
C2155 C2157 1.415 . S
C2156 C2155 1.355 . S
C2156 C2158 1.419 . S
C2157 C2152 1.425 . S
C2157 C2154 1.409 . S
C2157 C2155 1.415 . S
C2158 H2148 0.930 . S
C2158 C2156 1.419 . S
C2158 C2159 1.362 . S
C2159 H2149 0.930 . S
C2159 C2152 1.409 . S
C2159 C2158 1.362 . S
H2160 C2166 0.930 . S
H2161 C2169 0.930 . S
H2162 C2170 0.930 . S
H2163 C2171 0.930 . S
H2164 C2174 0.930 . S
H2165 C2175 0.930 . S
C2166 H2160 0.930 . S
C2166 C2167 1.355 . S
C2166 C2168 1.415 . S
C2167 C2166 1.355 . S
C2167 C2169 1.419 . S
C2168 C2166 1.415 . S
C2168 C2173 1.425 . S
C2168 C2175 1.409 . S
C2169 H2161 0.930 . S
C2169 C2167 1.419 . S
C2169 C2170 1.362 . S
C2170 H2162 0.930 . S
C2170 C2169 1.362 . S
C2170 C2173 1.409 . S
C2171 H2163 0.930 . S
C2171 C2172 1.355 . S
C2171 C2173 1.415 . S
C2172 C2171 1.355 . S
C2172 C2174 1.419 . S
C2173 C2168 1.425 . S
C2173 C2170 1.409 . S
C2173 C2171 1.415 . S
C2174 H2164 0.930 . S
C2174 C2172 1.419 . S
C2174 C2175 1.362 . S
C2175 H2165 0.930 . S
C2175 C2168 1.409 . S
C2175 C2174 1.362 . S
H2176 C2182 0.930 . S
H2177 C2185 0.930 . S
H2178 C2186 0.930 . S
H2179 C2187 0.930 . S
H2180 C2190 0.930 . S
H2181 C2191 0.930 . S
C2182 H2176 0.930 . S
C2182 C2183 1.355 . S
C2182 C2184 1.415 . S
C2183 C2182 1.355 . S
C2183 C2185 1.419 . S
C2184 C2182 1.415 . S
C2184 C2189 1.425 . S
C2184 C2191 1.409 . S
C2185 H2177 0.930 . S
C2185 C2183 1.419 . S
C2185 C2186 1.362 . S
C2186 H2178 0.930 . S
C2186 C2185 1.362 . S
C2186 C2189 1.409 . S
C2187 H2179 0.930 . S
C2187 C2188 1.355 . S
C2187 C2189 1.415 . S
C2188 C2187 1.355 . S
C2188 C2190 1.419 . S
C2189 C2184 1.425 . S
C2189 C2186 1.409 . S
C2189 C2187 1.415 . S
C2190 H2180 0.930 . S
C2190 C2188 1.419 . S
C2190 C2191 1.362 . S
C2191 H2181 0.930 . S
C2191 C2184 1.409 . S
C2191 C2190 1.362 . S
H2192 C2198 0.930 . S
H2193 C2201 0.930 . S
H2194 C2202 0.930 . S
H2195 C2203 0.930 . S
H2196 C2206 0.930 . S
H2197 C2207 0.930 . S
C2198 H2192 0.930 . S
C2198 C2199 1.355 . S
C2198 C2200 1.415 . S
C2199 C2198 1.355 . S
C2199 C2201 1.419 . S
C2200 C2198 1.415 . S
C2200 C2205 1.425 . S
C2200 C2207 1.409 . S
C2201 H2193 0.930 . S
C2201 C2199 1.419 . S
C2201 C2202 1.362 . S
C2202 H2194 0.930 . S
C2202 C2201 1.362 . S
C2202 C2205 1.409 . S
C2203 H2195 0.930 . S
C2203 C2204 1.355 . S
C2203 C2205 1.415 . S
C2204 C2203 1.355 . S
C2204 C2206 1.419 . S
C2205 C2200 1.425 . S
C2205 C2202 1.409 . S
C2205 C2203 1.415 . S
C2206 H2196 0.930 . S
C2206 C2204 1.419 . S
C2206 C2207 1.362 . S
C2207 H2197 0.930 . S
C2207 C2200 1.409 . S
C2207 C2206 1.362 . S
H2208 C2214 0.930 . S
H2209 C2217 0.930 . S
H2210 C2218 0.930 . S
H2211 C2219 0.930 . S
H2212 C2222 0.930 . S
H2213 C2223 0.930 1_545 S
C2214 H2208 0.930 . S
C2214 C2215 1.355 1_545 S
C2214 C2216 1.415 1_545 S
C2215 C2214 1.355 1_565 S
C2215 C2217 1.419 . S
C2216 C2214 1.415 1_565 S
C2216 C2221 1.425 . S
C2216 C2223 1.409 . S
C2217 H2209 0.930 . S
C2217 C2215 1.419 . S
C2217 C2218 1.362 . S
C2218 H2210 0.930 . S
C2218 C2217 1.362 . S
C2218 C2221 1.409 . S
C2219 H2211 0.930 . S
C2219 C2220 1.355 . S
C2219 C2221 1.415 . S
C2220 C2219 1.355 . S
C2220 C2222 1.419 . S
C2221 C2216 1.425 . S
C2221 C2218 1.409 . S
C2221 C2219 1.415 . S
C2222 H2212 0.930 . S
C2222 C2220 1.419 . S
C2222 C2223 1.362 . S
C2223 H2213 0.930 1_565 S
C2223 C2216 1.409 . S
C2223 C2222 1.362 . S
H2224 C2230 0.930 . S
H2225 C2233 0.930 . S
H2226 C2234 0.930 . S
H2227 C2235 0.930 . S
H2228 C2238 0.930 1_545 S
H2229 C2239 0.930 . S
C2230 H2224 0.930 . S
C2230 C2231 1.355 . S
C2230 C2232 1.415 . S
C2231 C2230 1.355 . S
C2231 C2233 1.419 . S
C2232 C2230 1.415 . S
C2232 C2237 1.425 . S
C2232 C2239 1.409 . S
C2233 H2225 0.930 . S
C2233 C2231 1.419 . S
C2233 C2234 1.362 . S
C2234 H2226 0.930 . S
C2234 C2233 1.362 . S
C2234 C2237 1.409 . S
C2235 H2227 0.930 . S
C2235 C2236 1.355 . S
C2235 C2237 1.415 . S
C2236 C2235 1.355 . S
C2236 C2238 1.419 . S
C2237 C2232 1.425 . S
C2237 C2234 1.409 . S
C2237 C2235 1.415 . S
C2238 H2228 0.930 1_565 S
C2238 C2236 1.419 . S
C2238 C2239 1.362 . S
C2239 H2229 0.930 . S
C2239 C2232 1.409 . S
C2239 C2238 1.362 . S
H2240 C2246 0.930 . S
H2241 C2249 0.930 . S
H2242 C2250 0.930 . S
H2243 C2251 0.930 . S
H2244 C2254 0.930 . S
H2245 C2255 0.930 . S
C2246 H2240 0.930 . S
C2246 C2247 1.355 . S
C2246 C2248 1.415 . S
C2247 C2246 1.355 . S
C2247 C2249 1.419 . S
C2248 C2246 1.415 . S
C2248 C2253 1.425 . S
C2248 C2255 1.409 . S
C2249 H2241 0.930 . S
C2249 C2247 1.419 . S
C2249 C2250 1.362 . S
C2250 H2242 0.930 . S
C2250 C2249 1.362 . S
C2250 C2253 1.409 . S
C2251 H2243 0.930 . S
C2251 C2252 1.355 . S
C2251 C2253 1.415 . S
C2252 C2251 1.355 . S
C2252 C2254 1.419 . S
C2253 C2248 1.425 . S
C2253 C2250 1.409 . S
C2253 C2251 1.415 . S
C2254 H2244 0.930 . S
C2254 C2252 1.419 . S
C2254 C2255 1.362 . S
C2255 H2245 0.930 . S
C2255 C2248 1.409 . S
C2255 C2254 1.362 . S
H2256 C2262 0.930 . S
H2257 C2265 0.930 . S
H2258 C2266 0.930 . S
H2259 C2267 0.930 . S
H2260 C2270 0.930 . S
H2261 C2271 0.930 . S
C2262 H2256 0.930 . S
C2262 C2263 1.355 . S
C2262 C2264 1.415 . S
C2263 C2262 1.355 . S
C2263 C2265 1.419 . S
C2264 C2262 1.415 . S
C2264 C2269 1.425 . S
C2264 C2271 1.409 . S
C2265 H2257 0.930 . S
C2265 C2263 1.419 . S
C2265 C2266 1.362 . S
C2266 H2258 0.930 . S
C2266 C2265 1.362 . S
C2266 C2269 1.409 . S
C2267 H2259 0.930 . S
C2267 C2268 1.355 . S
C2267 C2269 1.415 . S
C2268 C2267 1.355 . S
C2268 C2270 1.419 . S
C2269 C2264 1.425 . S
C2269 C2266 1.409 . S
C2269 C2267 1.415 . S
C2270 H2260 0.930 . S
C2270 C2268 1.419 . S
C2270 C2271 1.362 . S
C2271 H2261 0.930 . S
C2271 C2264 1.409 . S
C2271 C2270 1.362 . S
H2272 C2278 0.930 . S
H2273 C2281 0.930 . S
H2274 C2282 0.930 . S
H2275 C2283 0.930 . S
H2276 C2286 0.930 . S
H2277 C2287 0.930 . S
C2278 H2272 0.930 . S
C2278 C2279 1.355 . S
C2278 C2280 1.415 . S
C2279 C2278 1.355 . S
C2279 C2281 1.419 . S
C2280 C2278 1.415 . S
C2280 C2285 1.425 . S
C2280 C2287 1.409 . S
C2281 H2273 0.930 . S
C2281 C2279 1.419 . S
C2281 C2282 1.362 . S
C2282 H2274 0.930 . S
C2282 C2281 1.362 . S
C2282 C2285 1.409 . S
C2283 H2275 0.930 . S
C2283 C2284 1.355 . S
C2283 C2285 1.415 . S
C2284 C2283 1.355 . S
C2284 C2286 1.419 . S
C2285 C2280 1.425 . S
C2285 C2282 1.409 . S
C2285 C2283 1.415 . S
C2286 H2276 0.930 . S
C2286 C2284 1.419 . S
C2286 C2287 1.362 . S
C2287 H2277 0.930 . S
C2287 C2280 1.409 . S
C2287 C2286 1.362 . S
H2288 C2294 0.930 . S
H2289 C2297 0.930 . S
H2290 C2298 0.930 . S
H2291 C2299 0.930 . S
H2292 C2302 0.930 . S
H2293 C2303 0.930 . S
C2294 H2288 0.930 . S
C2294 C2295 1.355 . S
C2294 C2296 1.415 . S
C2295 C2294 1.355 . S
C2295 C2297 1.419 . S
C2296 C2294 1.415 . S
C2296 C2301 1.425 . S
C2296 C2303 1.409 . S
C2297 H2289 0.930 . S
C2297 C2295 1.419 . S
C2297 C2298 1.362 . S
C2298 H2290 0.930 . S
C2298 C2297 1.362 . S
C2298 C2301 1.409 . S
C2299 H2291 0.930 . S
C2299 C2300 1.355 . S
C2299 C2301 1.415 . S
C2300 C2299 1.355 . S
C2300 C2302 1.419 . S
C2301 C2296 1.425 . S
C2301 C2298 1.409 . S
C2301 C2299 1.415 . S
C2302 H2292 0.930 . S
C2302 C2300 1.419 . S
C2302 C2303 1.362 . S
C2303 H2293 0.930 . S
C2303 C2296 1.409 . S
C2303 C2302 1.362 . S
H2304 C2310 0.930 . S
H2305 C2313 0.930 . S
H2306 C2314 0.930 . S
H2307 C2315 0.930 . S
H2308 C2318 0.930 . S
H2309 C2319 0.930 . S
C2310 H2304 0.930 . S
C2310 C2311 1.355 . S
C2310 C2312 1.415 . S
C2311 C2310 1.355 . S
C2311 C2313 1.419 1_556 S
C2312 C2310 1.415 . S
C2312 C2317 1.425 1_556 S
C2312 C2319 1.409 . S
C2313 H2305 0.930 . S
C2313 C2311 1.419 1_554 S
C2313 C2314 1.362 . S
C2314 H2306 0.930 . S
C2314 C2313 1.362 . S
C2314 C2317 1.409 . S
C2315 H2307 0.930 . S
C2315 C2316 1.355 . S
C2315 C2317 1.415 . S
C2316 C2315 1.355 . S
C2316 C2318 1.419 1_554 S
C2317 C2312 1.425 1_554 S
C2317 C2314 1.409 . S
C2317 C2315 1.415 . S
C2318 H2308 0.930 . S
C2318 C2316 1.419 1_556 S
C2318 C2319 1.362 . S
C2319 H2309 0.930 . S
C2319 C2312 1.409 . S
C2319 C2318 1.362 . S
H2320 C2326 0.930 . S
H2321 C2329 0.930 . S
H2322 C2330 0.930 . S
H2323 C2331 0.930 . S
H2324 C2334 0.930 . S
H2325 C2335 0.930 . S
C2326 H2320 0.930 . S
C2326 C2327 1.355 . S
C2326 C2328 1.415 1_455 S
C2327 C2326 1.355 . S
C2327 C2329 1.419 . S
C2328 C2326 1.415 1_655 S
C2328 C2333 1.425 . S
C2328 C2335 1.409 . S
C2329 H2321 0.930 . S
C2329 C2327 1.419 . S
C2329 C2330 1.362 1_455 S
C2330 H2322 0.930 . S
C2330 C2329 1.362 1_655 S
C2330 C2333 1.409 . S
C2331 H2323 0.930 . S
C2331 C2332 1.355 . S
C2331 C2333 1.415 . S
C2332 C2331 1.355 . S
C2332 C2334 1.419 . S
C2333 C2328 1.425 . S
C2333 C2330 1.409 . S
C2333 C2331 1.415 . S
C2334 H2324 0.930 . S
C2334 C2332 1.419 . S
C2334 C2335 1.362 . S
C2335 H2325 0.930 . S
C2335 C2328 1.409 . S
C2335 C2334 1.362 . S
H2336 C2342 0.930 . S
H2337 C2345 0.930 . S
H2338 C2346 0.930 . S
H2339 C2347 0.930 . S
H2340 C2350 0.930 . S
H2341 C2351 0.930 . S
C2342 H2336 0.930 . S
C2342 C2343 1.355 . S
C2342 C2344 1.415 . S
C2343 C2342 1.355 . S
C2343 C2345 1.419 . S
C2344 C2342 1.415 . S
C2344 C2349 1.425 . S
C2344 C2351 1.409 . S
C2345 H2337 0.930 . S
C2345 C2343 1.419 . S
C2345 C2346 1.362 . S
C2346 H2338 0.930 . S
C2346 C2345 1.362 . S
C2346 C2349 1.409 . S
C2347 H2339 0.930 . S
C2347 C2348 1.355 . S
C2347 C2349 1.415 . S
C2348 C2347 1.355 . S
C2348 C2350 1.419 . S
C2349 C2344 1.425 . S
C2349 C2346 1.409 . S
C2349 C2347 1.415 . S
C2350 H2340 0.930 . S
C2350 C2348 1.419 . S
C2350 C2351 1.362 . S
C2351 H2341 0.930 . S
C2351 C2344 1.409 . S
C2351 C2350 1.362 . S
H2352 C2358 0.930 . S
H2353 C2361 0.930 . S
H2354 C2362 0.930 . S
H2355 C2363 0.930 . S
H2356 C2366 0.930 . S
H2357 C2367 0.930 . S
C2358 H2352 0.930 . S
C2358 C2359 1.355 . S
C2358 C2360 1.415 . S
C2359 C2358 1.355 . S
C2359 C2361 1.419 . S
C2360 C2358 1.415 . S
C2360 C2365 1.425 . S
C2360 C2367 1.409 . S
C2361 H2353 0.930 . S
C2361 C2359 1.419 . S
C2361 C2362 1.362 . S
C2362 H2354 0.930 . S
C2362 C2361 1.362 . S
C2362 C2365 1.409 . S
C2363 H2355 0.930 . S
C2363 C2364 1.355 . S
C2363 C2365 1.415 . S
C2364 C2363 1.355 . S
C2364 C2366 1.419 . S
C2365 C2360 1.425 . S
C2365 C2362 1.409 . S
C2365 C2363 1.415 . S
C2366 H2356 0.930 . S
C2366 C2364 1.419 . S
C2366 C2367 1.362 . S
C2367 H2357 0.930 . S
C2367 C2360 1.409 . S
C2367 C2366 1.362 . S
H2368 C2374 0.930 . S
H2369 C2377 0.930 . S
H2370 C2378 0.930 . S
H2371 C2379 0.930 . S
H2372 C2382 0.930 . S
H2373 C2383 0.930 . S
C2374 H2368 0.930 . S
C2374 C2375 1.355 . S
C2374 C2376 1.415 . S
C2375 C2374 1.355 . S
C2375 C2377 1.419 . S
C2376 C2374 1.415 . S
C2376 C2381 1.425 . S
C2376 C2383 1.409 . S
C2377 H2369 0.930 . S
C2377 C2375 1.419 . S
C2377 C2378 1.362 . S
C2378 H2370 0.930 . S
C2378 C2377 1.362 . S
C2378 C2381 1.409 . S
C2379 H2371 0.930 . S
C2379 C2380 1.355 . S
C2379 C2381 1.415 . S
C2380 C2379 1.355 . S
C2380 C2382 1.419 . S
C2381 C2376 1.425 . S
C2381 C2378 1.409 . S
C2381 C2379 1.415 . S
C2382 H2372 0.930 . S
C2382 C2380 1.419 . S
C2382 C2383 1.362 . S
C2383 H2373 0.930 . S
C2383 C2376 1.409 . S
C2383 C2382 1.362 . S
H2384 C2390 0.930 . S
H2385 C2393 0.930 . S
H2386 C2394 0.930 . S
H2387 C2395 0.930 . S
H2388 C2398 0.930 . S
H2389 C2399 0.930 . S
C2390 H2384 0.930 . S
C2390 C2391 1.355 . S
C2390 C2392 1.415 . S
C2391 C2390 1.355 . S
C2391 C2393 1.419 . S
C2392 C2390 1.415 . S
C2392 C2397 1.425 . S
C2392 C2399 1.409 . S
C2393 H2385 0.930 . S
C2393 C2391 1.419 . S
C2393 C2394 1.362 . S
C2394 H2386 0.930 . S
C2394 C2393 1.362 . S
C2394 C2397 1.409 . S
C2395 H2387 0.930 . S
C2395 C2396 1.355 . S
C2395 C2397 1.415 . S
C2396 C2395 1.355 . S
C2396 C2398 1.419 . S
C2397 C2392 1.425 . S
C2397 C2394 1.409 . S
C2397 C2395 1.415 . S
C2398 H2388 0.930 . S
C2398 C2396 1.419 . S
C2398 C2399 1.362 . S
C2399 H2389 0.930 . S
C2399 C2392 1.409 . S
C2399 C2398 1.362 . S
H2400 C2406 0.930 . S
H2401 C2409 0.930 . S
H2402 C2410 0.930 . S
H2403 C2411 0.930 . S
H2404 C2414 0.930 . S
H2405 C2415 0.930 . S
C2406 H2400 0.930 . S
C2406 C2407 1.355 . S
C2406 C2408 1.415 . S
C2407 C2406 1.355 . S
C2407 C2409 1.419 . S
C2408 C2406 1.415 . S
C2408 C2413 1.425 . S
C2408 C2415 1.409 . S
C2409 H2401 0.930 . S
C2409 C2407 1.419 . S
C2409 C2410 1.362 . S
C2410 H2402 0.930 . S
C2410 C2409 1.362 . S
C2410 C2413 1.409 . S
C2411 H2403 0.930 . S
C2411 C2412 1.355 . S
C2411 C2413 1.415 . S
C2412 C2411 1.355 . S
C2412 C2414 1.419 . S
C2413 C2408 1.425 . S
C2413 C2410 1.409 . S
C2413 C2411 1.415 . S
C2414 H2404 0.930 . S
C2414 C2412 1.419 . S
C2414 C2415 1.362 . S
C2415 H2405 0.930 . S
C2415 C2408 1.409 . S
C2415 C2414 1.362 . S
H2416 C2422 0.930 . S
H2417 C2425 0.930 . S
H2418 C2426 0.930 . S
H2419 C2427 0.930 . S
H2420 C2430 0.930 . S
H2421 C2431 0.930 . S
C2422 H2416 0.930 . S
C2422 C2423 1.355 1_556 S
C2422 C2424 1.415 . S
C2423 C2422 1.355 1_554 S
C2423 C2425 1.419 . S
C2424 C2422 1.415 . S
C2424 C2429 1.425 . S
C2424 C2431 1.409 . S
C2425 H2417 0.930 . S
C2425 C2423 1.419 . S
C2425 C2426 1.362 1_554 S
C2426 H2418 0.930 . S
C2426 C2425 1.362 1_556 S
C2426 C2429 1.409 . S
C2427 H2419 0.930 . S
C2427 C2428 1.355 . S
C2427 C2429 1.415 . S
C2428 C2427 1.355 . S
C2428 C2430 1.419 . S
C2429 C2424 1.425 . S
C2429 C2426 1.409 . S
C2429 C2427 1.415 . S
C2430 H2420 0.930 . S
C2430 C2428 1.419 . S
C2430 C2431 1.362 . S
C2431 H2421 0.930 . S
C2431 C2424 1.409 . S
C2431 C2430 1.362 . S
H2432 C2438 0.930 . S
H2433 C2441 0.930 . S
H2434 C2442 0.930 . S
H2435 C2443 0.930 . S
H2436 C2446 0.930 . S
H2437 C2447 0.930 . S
C2438 H2432 0.930 . S
C2438 C2439 1.355 . S
C2438 C2440 1.415 . S
C2439 C2438 1.355 . S
C2439 C2441 1.419 . S
C2440 C2438 1.415 . S
C2440 C2445 1.425 . S
C2440 C2447 1.409 . S
C2441 H2433 0.930 . S
C2441 C2439 1.419 . S
C2441 C2442 1.362 . S
C2442 H2434 0.930 . S
C2442 C2441 1.362 . S
C2442 C2445 1.409 . S
C2443 H2435 0.930 . S
C2443 C2444 1.355 . S
C2443 C2445 1.415 . S
C2444 C2443 1.355 . S
C2444 C2446 1.419 . S
C2445 C2440 1.425 . S
C2445 C2442 1.409 . S
C2445 C2443 1.415 . S
C2446 H2436 0.930 . S
C2446 C2444 1.419 . S
C2446 C2447 1.362 . S
C2447 H2437 0.930 . S
C2447 C2440 1.409 . S
C2447 C2446 1.362 . S
H2448 C2454 0.930 . S
H2449 C2457 0.930 . S
H2450 C2458 0.930 . S
H2451 C2459 0.930 . S
H2452 C2462 0.930 . S
H2453 C2463 0.930 . S
C2454 H2448 0.930 . S
C2454 C2455 1.355 . S
C2454 C2456 1.415 . S
C2455 C2454 1.355 . S
C2455 C2457 1.419 . S
C2456 C2454 1.415 . S
C2456 C2461 1.425 . S
C2456 C2463 1.409 . S
C2457 H2449 0.930 . S
C2457 C2455 1.419 . S
C2457 C2458 1.362 . S
C2458 H2450 0.930 . S
C2458 C2457 1.362 . S
C2458 C2461 1.409 . S
C2459 H2451 0.930 . S
C2459 C2460 1.355 . S
C2459 C2461 1.415 . S
C2460 C2459 1.355 . S
C2460 C2462 1.419 . S
C2461 C2456 1.425 . S
C2461 C2458 1.409 . S
C2461 C2459 1.415 . S
C2462 H2452 0.930 . S
C2462 C2460 1.419 . S
C2462 C2463 1.362 . S
C2463 H2453 0.930 . S
C2463 C2456 1.409 . S
C2463 C2462 1.362 . S
H2464 C2470 0.930 . S
H2465 C2473 0.930 . S
H2466 C2474 0.930 . S
H2467 C2475 0.930 . S
H2468 C2478 0.930 . S
H2469 C2479 0.930 . S
C2470 H2464 0.930 . S
C2470 C2471 1.355 . S
C2470 C2472 1.415 . S
C2471 C2470 1.355 . S
C2471 C2473 1.419 . S
C2472 C2470 1.415 . S
C2472 C2477 1.425 . S
C2472 C2479 1.409 . S
C2473 H2465 0.930 . S
C2473 C2471 1.419 . S
C2473 C2474 1.362 . S
C2474 H2466 0.930 . S
C2474 C2473 1.362 . S
C2474 C2477 1.409 . S
C2475 H2467 0.930 . S
C2475 C2476 1.355 . S
C2475 C2477 1.415 . S
C2476 C2475 1.355 . S
C2476 C2478 1.419 . S
C2477 C2472 1.425 . S
C2477 C2474 1.409 . S
C2477 C2475 1.415 . S
C2478 H2468 0.930 . S
C2478 C2476 1.419 . S
C2478 C2479 1.362 . S
C2479 H2469 0.930 . S
C2479 C2472 1.409 . S
C2479 C2478 1.362 . S
H2480 C2486 0.930 . S
H2481 C2489 0.930 . S
H2482 C2490 0.930 . S
H2483 C2491 0.930 . S
H2484 C2494 0.930 . S
H2485 C2495 0.930 . S
C2486 H2480 0.930 . S
C2486 C2487 1.355 . S
C2486 C2488 1.415 . S
C2487 C2486 1.355 . S
C2487 C2489 1.419 . S
C2488 C2486 1.415 . S
C2488 C2493 1.425 . S
C2488 C2495 1.409 . S
C2489 H2481 0.930 . S
C2489 C2487 1.419 . S
C2489 C2490 1.362 . S
C2490 H2482 0.930 . S
C2490 C2489 1.362 . S
C2490 C2493 1.409 . S
C2491 H2483 0.930 . S
C2491 C2492 1.355 . S
C2491 C2493 1.415 . S
C2492 C2491 1.355 . S
C2492 C2494 1.419 . S
C2493 C2488 1.425 . S
C2493 C2490 1.409 . S
C2493 C2491 1.415 . S
C2494 H2484 0.930 . S
C2494 C2492 1.419 . S
C2494 C2495 1.362 . S
C2495 H2485 0.930 . S
C2495 C2488 1.409 . S
C2495 C2494 1.362 . S
H2496 C2502 0.930 . S
H2497 C2505 0.930 . S
H2498 C2506 0.930 . S
H2499 C2507 0.930 . S
H2500 C2510 0.930 . S
H2501 C2511 0.930 . S
C2502 H2496 0.930 . S
C2502 C2503 1.355 . S
C2502 C2504 1.415 . S
C2503 C2502 1.355 . S
C2503 C2505 1.419 . S
C2504 C2502 1.415 . S
C2504 C2509 1.425 . S
C2504 C2511 1.409 . S
C2505 H2497 0.930 . S
C2505 C2503 1.419 . S
C2505 C2506 1.362 . S
C2506 H2498 0.930 . S
C2506 C2505 1.362 . S
C2506 C2509 1.409 . S
C2507 H2499 0.930 . S
C2507 C2508 1.355 . S
C2507 C2509 1.415 . S
C2508 C2507 1.355 . S
C2508 C2510 1.419 . S
C2509 C2504 1.425 . S
C2509 C2506 1.409 . S
C2509 C2507 1.415 . S
C2510 H2500 0.930 . S
C2510 C2508 1.419 . S
C2510 C2511 1.362 . S
C2511 H2501 0.930 . S
C2511 C2504 1.409 . S
C2511 C2510 1.362 . S
H2512 C2518 0.930 . S
H2513 C2521 0.930 . S
H2514 C2522 0.930 . S
H2515 C2523 0.930 . S
H2516 C2526 0.930 . S
H2517 C2527 0.930 . S
C2518 H2512 0.930 . S
C2518 C2519 1.355 . S
C2518 C2520 1.415 . S
C2519 C2518 1.355 . S
C2519 C2521 1.419 . S
C2520 C2518 1.415 . S
C2520 C2525 1.425 . S
C2520 C2527 1.409 . S
C2521 H2513 0.930 . S
C2521 C2519 1.419 . S
C2521 C2522 1.362 . S
C2522 H2514 0.930 . S
C2522 C2521 1.362 . S
C2522 C2525 1.409 . S
C2523 H2515 0.930 . S
C2523 C2524 1.355 . S
C2523 C2525 1.415 . S
C2524 C2523 1.355 . S
C2524 C2526 1.419 . S
C2525 C2520 1.425 . S
C2525 C2522 1.409 . S
C2525 C2523 1.415 . S
C2526 H2516 0.930 . S
C2526 C2524 1.419 . S
C2526 C2527 1.362 . S
C2527 H2517 0.930 . S
C2527 C2520 1.409 . S
C2527 C2526 1.362 . S
H2528 C2534 0.930 . S
H2529 C2537 0.930 . S
H2530 C2538 0.930 . S
H2531 C2539 0.930 . S
H2532 C2542 0.930 . S
H2533 C2543 0.930 . S
C2534 H2528 0.930 . S
C2534 C2535 1.355 . S
C2534 C2536 1.415 . S
C2535 C2534 1.355 . S
C2535 C2537 1.419 . S
C2536 C2534 1.415 . S
C2536 C2541 1.425 . S
C2536 C2543 1.409 . S
C2537 H2529 0.930 . S
C2537 C2535 1.419 . S
C2537 C2538 1.362 . S
C2538 H2530 0.930 . S
C2538 C2537 1.362 . S
C2538 C2541 1.409 . S
C2539 H2531 0.930 . S
C2539 C2540 1.355 . S
C2539 C2541 1.415 . S
C2540 C2539 1.355 . S
C2540 C2542 1.419 . S
C2541 C2536 1.425 . S
C2541 C2538 1.409 . S
C2541 C2539 1.415 . S
C2542 H2532 0.930 . S
C2542 C2540 1.419 . S
C2542 C2543 1.362 . S
C2543 H2533 0.930 . S
C2543 C2536 1.409 . S
C2543 C2542 1.362 . S
H2544 C2550 0.930 . S
H2545 C2553 0.930 . S
H2546 C2554 0.930 . S
H2547 C2555 0.930 . S
H2548 C2558 0.930 . S
H2549 C2559 0.930 . S
C2550 H2544 0.930 . S
C2550 C2551 1.355 . S
C2550 C2552 1.415 . S
C2551 C2550 1.355 . S
C2551 C2553 1.419 . S
C2552 C2550 1.415 . S
C2552 C2557 1.425 . S
C2552 C2559 1.409 . S
C2553 H2545 0.930 . S
C2553 C2551 1.419 . S
C2553 C2554 1.362 . S
C2554 H2546 0.930 . S
C2554 C2553 1.362 . S
C2554 C2557 1.409 . S
C2555 H2547 0.930 . S
C2555 C2556 1.355 . S
C2555 C2557 1.415 . S
C2556 C2555 1.355 . S
C2556 C2558 1.419 . S
C2557 C2552 1.425 . S
C2557 C2554 1.409 . S
C2557 C2555 1.415 . S
C2558 H2548 0.930 . S
C2558 C2556 1.419 . S
C2558 C2559 1.362 . S
C2559 H2549 0.930 . S
C2559 C2552 1.409 . S
C2559 C2558 1.362 . S
H2560 C2566 0.930 . S
H2561 C2569 0.930 . S
H2562 C2570 0.930 . S
H2563 C2571 0.930 . S
H2564 C2574 0.930 . S
H2565 C2575 0.930 1_545 S
C2566 H2560 0.930 . S
C2566 C2567 1.355 . S
C2566 C2568 1.415 1_545 S
C2567 C2566 1.355 . S
C2567 C2569 1.419 1_545 S
C2568 C2566 1.415 1_565 S
C2568 C2573 1.425 . S
C2568 C2575 1.409 . S
C2569 H2561 0.930 . S
C2569 C2567 1.419 1_565 S
C2569 C2570 1.362 . S
C2570 H2562 0.930 . S
C2570 C2569 1.362 . S
C2570 C2573 1.409 . S
C2571 H2563 0.930 . S
C2571 C2572 1.355 . S
C2571 C2573 1.415 . S
C2572 C2571 1.355 . S
C2572 C2574 1.419 . S
C2573 C2568 1.425 . S
C2573 C2570 1.409 . S
C2573 C2571 1.415 . S
C2574 H2564 0.930 . S
C2574 C2572 1.419 . S
C2574 C2575 1.362 . S
C2575 H2565 0.930 1_565 S
C2575 C2568 1.409 . S
C2575 C2574 1.362 . S
H2576 C2582 0.930 1_545 S
H2577 C2585 0.930 . S
H2578 C2586 0.930 . S
H2579 C2587 0.930 1_565 S
H2580 C2590 0.930 . S
H2581 C2591 0.930 . S
C2582 H2576 0.930 1_565 S
C2582 C2583 1.355 . S
C2582 C2584 1.415 1_565 S
C2583 C2582 1.355 . S
C2583 C2585 1.419 1_554 S
C2584 C2582 1.415 1_545 S
C2584 C2589 1.425 1_545 S
C2584 C2591 1.409 . S
C2585 H2577 0.930 . S
C2585 C2583 1.419 1_556 S
C2585 C2586 1.362 . S
C2586 H2578 0.930 . S
C2586 C2585 1.362 . S
C2586 C2589 1.409 1_556 S
C2587 H2579 0.930 1_545 S
C2587 C2588 1.355 . S
C2587 C2589 1.415 1_545 S
C2588 C2587 1.355 . S
C2588 C2590 1.419 . S
C2589 C2584 1.425 1_565 S
C2589 C2586 1.409 1_554 S
C2589 C2587 1.415 1_565 S
C2590 H2580 0.930 . S
C2590 C2588 1.419 . S
C2590 C2591 1.362 . S
C2591 H2581 0.930 . S
C2591 C2584 1.409 . S
C2591 C2590 1.362 . S
H2592 C2598 0.930 . S
H2593 C2601 0.930 . S
H2594 C2602 0.930 . S
H2595 C2603 0.930 . S
H2596 C2606 0.930 . S
H2597 C2607 0.930 . S
C2598 H2592 0.930 . S
C2598 C2599 1.355 . S
C2598 C2600 1.415 . S
C2599 C2598 1.355 . S
C2599 C2601 1.419 . S
C2600 C2598 1.415 . S
C2600 C2605 1.425 . S
C2600 C2607 1.409 . S
C2601 H2593 0.930 . S
C2601 C2599 1.419 . S
C2601 C2602 1.362 . S
C2602 H2594 0.930 . S
C2602 C2601 1.362 . S
C2602 C2605 1.409 . S
C2603 H2595 0.930 . S
C2603 C2604 1.355 . S
C2603 C2605 1.415 . S
C2604 C2603 1.355 . S
C2604 C2606 1.419 . S
C2605 C2600 1.425 . S
C2605 C2602 1.409 . S
C2605 C2603 1.415 . S
C2606 H2596 0.930 . S
C2606 C2604 1.419 . S
C2606 C2607 1.362 . S
C2607 H2597 0.930 . S
C2607 C2600 1.409 . S
C2607 C2606 1.362 . S
H2608 C2614 0.930 . S
H2609 C2617 0.930 . S
H2610 C2618 0.930 . S
H2611 C2619 0.930 . S
H2612 C2622 0.930 . S
H2613 C2623 0.930 . S
C2614 H2608 0.930 . S
C2614 C2615 1.355 . S
C2614 C2616 1.415 . S
C2615 C2614 1.355 . S
C2615 C2617 1.419 . S
C2616 C2614 1.415 . S
C2616 C2621 1.425 . S
C2616 C2623 1.409 . S
C2617 H2609 0.930 . S
C2617 C2615 1.419 . S
C2617 C2618 1.362 . S
C2618 H2610 0.930 . S
C2618 C2617 1.362 . S
C2618 C2621 1.409 . S
C2619 H2611 0.930 . S
C2619 C2620 1.355 . S
C2619 C2621 1.415 . S
C2620 C2619 1.355 . S
C2620 C2622 1.419 . S
C2621 C2616 1.425 . S
C2621 C2618 1.409 . S
C2621 C2619 1.415 . S
C2622 H2612 0.930 . S
C2622 C2620 1.419 . S
C2622 C2623 1.362 . S
C2623 H2613 0.930 . S
C2623 C2616 1.409 . S
C2623 C2622 1.362 . S
H2624 C2630 0.930 . S
H2625 C2633 0.930 . S
H2626 C2634 0.930 . S
H2627 C2635 0.930 . S
H2628 C2638 0.930 . S
H2629 C2639 0.930 . S
C2630 H2624 0.930 . S
C2630 C2631 1.355 . S
C2630 C2632 1.415 . S
C2631 C2630 1.355 . S
C2631 C2633 1.419 . S
C2632 C2630 1.415 . S
C2632 C2637 1.425 . S
C2632 C2639 1.409 . S
C2633 H2625 0.930 . S
C2633 C2631 1.419 . S
C2633 C2634 1.362 . S
C2634 H2626 0.930 . S
C2634 C2633 1.362 . S
C2634 C2637 1.409 . S
C2635 H2627 0.930 . S
C2635 C2636 1.355 . S
C2635 C2637 1.415 . S
C2636 C2635 1.355 . S
C2636 C2638 1.419 . S
C2637 C2632 1.425 . S
C2637 C2634 1.409 . S
C2637 C2635 1.415 . S
C2638 H2628 0.930 . S
C2638 C2636 1.419 . S
C2638 C2639 1.362 . S
C2639 H2629 0.930 . S
C2639 C2632 1.409 . S
C2639 C2638 1.362 . S
H2640 C2646 0.930 . S
H2641 C2649 0.930 . S
H2642 C2650 0.930 . S
H2643 C2651 0.930 . S
H2644 C2654 0.930 . S
H2645 C2655 0.930 . S
C2646 H2640 0.930 . S
C2646 C2647 1.355 . S
C2646 C2648 1.415 . S
C2647 C2646 1.355 . S
C2647 C2649 1.419 . S
C2648 C2646 1.415 . S
C2648 C2653 1.425 . S
C2648 C2655 1.409 . S
C2649 H2641 0.930 . S
C2649 C2647 1.419 . S
C2649 C2650 1.362 . S
C2650 H2642 0.930 . S
C2650 C2649 1.362 . S
C2650 C2653 1.409 . S
C2651 H2643 0.930 . S
C2651 C2652 1.355 . S
C2651 C2653 1.415 . S
C2652 C2651 1.355 . S
C2652 C2654 1.419 . S
C2653 C2648 1.425 . S
C2653 C2650 1.409 . S
C2653 C2651 1.415 . S
C2654 H2644 0.930 . S
C2654 C2652 1.419 . S
C2654 C2655 1.362 . S
C2655 H2645 0.930 . S
C2655 C2648 1.409 . S
C2655 C2654 1.362 . S
H2656 C2662 0.930 . S
H2657 C2665 0.930 . S
H2658 C2666 0.930 . S
H2659 C2667 0.930 . S
H2660 C2670 0.930 . S
H2661 C2671 0.930 . S
C2662 H2656 0.930 . S
C2662 C2663 1.355 . S
C2662 C2664 1.415 . S
C2663 C2662 1.355 . S
C2663 C2665 1.419 . S
C2664 C2662 1.415 . S
C2664 C2669 1.425 . S
C2664 C2671 1.409 . S
C2665 H2657 0.930 . S
C2665 C2663 1.419 . S
C2665 C2666 1.362 . S
C2666 H2658 0.930 . S
C2666 C2665 1.362 . S
C2666 C2669 1.409 . S
C2667 H2659 0.930 . S
C2667 C2668 1.355 . S
C2667 C2669 1.415 . S
C2668 C2667 1.355 . S
C2668 C2670 1.419 . S
C2669 C2664 1.425 . S
C2669 C2666 1.409 . S
C2669 C2667 1.415 . S
C2670 H2660 0.930 . S
C2670 C2668 1.419 . S
C2670 C2671 1.362 . S
C2671 H2661 0.930 . S
C2671 C2664 1.409 . S
C2671 C2670 1.362 . S
H2672 C2678 0.930 . S
H2673 C2681 0.930 . S
H2674 C2682 0.930 . S
H2675 C2683 0.930 . S
H2676 C2686 0.930 . S
H2677 C2687 0.930 . S
C2678 H2672 0.930 . S
C2678 C2679 1.355 . S
C2678 C2680 1.415 . S
C2679 C2678 1.355 . S
C2679 C2681 1.419 . S
C2680 C2678 1.415 . S
C2680 C2685 1.425 . S
C2680 C2687 1.409 . S
C2681 H2673 0.930 . S
C2681 C2679 1.419 . S
C2681 C2682 1.362 . S
C2682 H2674 0.930 . S
C2682 C2681 1.362 . S
C2682 C2685 1.409 . S
C2683 H2675 0.930 . S
C2683 C2684 1.355 . S
C2683 C2685 1.415 . S
C2684 C2683 1.355 . S
C2684 C2686 1.419 . S
C2685 C2680 1.425 . S
C2685 C2682 1.409 . S
C2685 C2683 1.415 . S
C2686 H2676 0.930 . S
C2686 C2684 1.419 . S
C2686 C2687 1.362 . S
C2687 H2677 0.930 . S
C2687 C2680 1.409 . S
C2687 C2686 1.362 . S
H2688 C2694 0.930 . S
H2689 C2697 0.930 . S
H2690 C2698 0.930 . S
H2691 C2699 0.930 . S
H2692 C2702 0.930 . S
H2693 C2703 0.930 . S
C2694 H2688 0.930 . S
C2694 C2695 1.355 . S
C2694 C2696 1.415 . S
C2695 C2694 1.355 . S
C2695 C2697 1.419 . S
C2696 C2694 1.415 . S
C2696 C2701 1.425 . S
C2696 C2703 1.409 . S
C2697 H2689 0.930 . S
C2697 C2695 1.419 . S
C2697 C2698 1.362 . S
C2698 H2690 0.930 . S
C2698 C2697 1.362 . S
C2698 C2701 1.409 . S
C2699 H2691 0.930 . S
C2699 C2700 1.355 . S
C2699 C2701 1.415 . S
C2700 C2699 1.355 . S
C2700 C2702 1.419 . S
C2701 C2696 1.425 . S
C2701 C2698 1.409 . S
C2701 C2699 1.415 . S
C2702 H2692 0.930 . S
C2702 C2700 1.419 . S
C2702 C2703 1.362 . S
C2703 H2693 0.930 . S
C2703 C2696 1.409 . S
C2703 C2702 1.362 . S
H2704 C2710 0.930 . S
H2705 C2713 0.930 . S
H2706 C2714 0.930 . S
H2707 C2715 0.930 . S
H2708 C2718 0.930 . S
H2709 C2719 0.930 . S
C2710 H2704 0.930 . S
C2710 C2711 1.355 . S
C2710 C2712 1.415 . S
C2711 C2710 1.355 . S
C2711 C2713 1.419 . S
C2712 C2710 1.415 . S
C2712 C2717 1.425 . S
C2712 C2719 1.409 . S
C2713 H2705 0.930 . S
C2713 C2711 1.419 . S
C2713 C2714 1.362 . S
C2714 H2706 0.930 . S
C2714 C2713 1.362 . S
C2714 C2717 1.409 . S
C2715 H2707 0.930 . S
C2715 C2716 1.355 . S
C2715 C2717 1.415 . S
C2716 C2715 1.355 . S
C2716 C2718 1.419 . S
C2717 C2712 1.425 . S
C2717 C2714 1.409 . S
C2717 C2715 1.415 . S
C2718 H2708 0.930 . S
C2718 C2716 1.419 . S
C2718 C2719 1.362 . S
C2719 H2709 0.930 . S
C2719 C2712 1.409 . S
C2719 C2718 1.362 . S
H2720 C2726 0.930 . S
H2721 C2729 0.930 . S
H2722 C2730 0.930 . S
H2723 C2731 0.930 . S
H2724 C2734 0.930 . S
H2725 C2735 0.930 . S
C2726 H2720 0.930 . S
C2726 C2727 1.355 . S
C2726 C2728 1.415 . S
C2727 C2726 1.355 . S
C2727 C2729 1.419 . S
C2728 C2726 1.415 . S
C2728 C2733 1.425 . S
C2728 C2735 1.409 . S
C2729 H2721 0.930 . S
C2729 C2727 1.419 . S
C2729 C2730 1.362 . S
C2730 H2722 0.930 . S
C2730 C2729 1.362 . S
C2730 C2733 1.409 . S
C2731 H2723 0.930 . S
C2731 C2732 1.355 . S
C2731 C2733 1.415 . S
C2732 C2731 1.355 . S
C2732 C2734 1.419 . S
C2733 C2728 1.425 . S
C2733 C2730 1.409 . S
C2733 C2731 1.415 . S
C2734 H2724 0.930 . S
C2734 C2732 1.419 . S
C2734 C2735 1.362 . S
C2735 H2725 0.930 . S
C2735 C2728 1.409 . S
C2735 C2734 1.362 . S
H2736 C2742 0.930 . S
H2737 C2745 0.930 . S
H2738 C2746 0.930 . S
H2739 C2747 0.930 . S
H2740 C2750 0.930 . S
H2741 C2751 0.930 . S
C2742 H2736 0.930 . S
C2742 C2743 1.355 . S
C2742 C2744 1.415 . S
C2743 C2742 1.355 . S
C2743 C2745 1.419 . S
C2744 C2742 1.415 . S
C2744 C2749 1.425 . S
C2744 C2751 1.409 . S
C2745 H2737 0.930 . S
C2745 C2743 1.419 . S
C2745 C2746 1.362 . S
C2746 H2738 0.930 . S
C2746 C2745 1.362 . S
C2746 C2749 1.409 . S
C2747 H2739 0.930 . S
C2747 C2748 1.355 . S
C2747 C2749 1.415 . S
C2748 C2747 1.355 . S
C2748 C2750 1.419 . S
C2749 C2744 1.425 . S
C2749 C2746 1.409 . S
C2749 C2747 1.415 . S
C2750 H2740 0.930 . S
C2750 C2748 1.419 . S
C2750 C2751 1.362 . S
C2751 H2741 0.930 . S
C2751 C2744 1.409 . S
C2751 C2750 1.362 . S
H2752 C2758 0.930 . S
H2753 C2761 0.930 . S
H2754 C2762 0.930 . S
H2755 C2763 0.930 . S
H2756 C2766 0.930 . S
H2757 C2767 0.930 . S
C2758 H2752 0.930 . S
C2758 C2759 1.355 . S
C2758 C2760 1.415 . S
C2759 C2758 1.355 . S
C2759 C2761 1.419 . S
C2760 C2758 1.415 . S
C2760 C2765 1.425 . S
C2760 C2767 1.409 . S
C2761 H2753 0.930 . S
C2761 C2759 1.419 . S
C2761 C2762 1.362 . S
C2762 H2754 0.930 . S
C2762 C2761 1.362 . S
C2762 C2765 1.409 . S
C2763 H2755 0.930 . S
C2763 C2764 1.355 . S
C2763 C2765 1.415 . S
C2764 C2763 1.355 . S
C2764 C2766 1.419 . S
C2765 C2760 1.425 . S
C2765 C2762 1.409 . S
C2765 C2763 1.415 . S
C2766 H2756 0.930 . S
C2766 C2764 1.419 . S
C2766 C2767 1.362 . S
C2767 H2757 0.930 . S
C2767 C2760 1.409 . S
C2767 C2766 1.362 . S
H2768 C2774 0.930 . S
H2769 C2777 0.930 . S
H2770 C2778 0.930 . S
H2771 C2779 0.930 . S
H2772 C2782 0.930 . S
H2773 C2783 0.930 . S
C2774 H2768 0.930 . S
C2774 C2775 1.355 . S
C2774 C2776 1.415 . S
C2775 C2774 1.355 . S
C2775 C2777 1.419 . S
C2776 C2774 1.415 . S
C2776 C2781 1.425 . S
C2776 C2783 1.409 . S
C2777 H2769 0.930 . S
C2777 C2775 1.419 . S
C2777 C2778 1.362 . S
C2778 H2770 0.930 . S
C2778 C2777 1.362 . S
C2778 C2781 1.409 . S
C2779 H2771 0.930 . S
C2779 C2780 1.355 . S
C2779 C2781 1.415 . S
C2780 C2779 1.355 . S
C2780 C2782 1.419 . S
C2781 C2776 1.425 . S
C2781 C2778 1.409 . S
C2781 C2779 1.415 . S
C2782 H2772 0.930 . S
C2782 C2780 1.419 . S
C2782 C2783 1.362 . S
C2783 H2773 0.930 . S
C2783 C2776 1.409 . S
C2783 C2782 1.362 . S
H2784 C2790 0.930 . S
H2785 C2793 0.930 . S
H2786 C2794 0.930 . S
H2787 C2795 0.930 . S
H2788 C2798 0.930 . S
H2789 C2799 0.930 . S
C2790 H2784 0.930 . S
C2790 C2791 1.355 . S
C2790 C2792 1.415 . S
C2791 C2790 1.355 . S
C2791 C2793 1.419 . S
C2792 C2790 1.415 . S
C2792 C2797 1.425 . S
C2792 C2799 1.409 . S
C2793 H2785 0.930 . S
C2793 C2791 1.419 . S
C2793 C2794 1.362 . S
C2794 H2786 0.930 . S
C2794 C2793 1.362 . S
C2794 C2797 1.409 . S
C2795 H2787 0.930 . S
C2795 C2796 1.355 . S
C2795 C2797 1.415 . S
C2796 C2795 1.355 . S
C2796 C2798 1.419 . S
C2797 C2792 1.425 . S
C2797 C2794 1.409 . S
C2797 C2795 1.415 . S
C2798 H2788 0.930 . S
C2798 C2796 1.419 . S
C2798 C2799 1.362 . S
C2799 H2789 0.930 . S
C2799 C2792 1.409 . S
C2799 C2798 1.362 . S
H2800 C2806 0.930 . S
H2801 C2809 0.930 . S
H2802 C2810 0.930 . S
H2803 C2811 0.930 . S
H2804 C2814 0.930 . S
H2805 C2815 0.930 . S
C2806 H2800 0.930 . S
C2806 C2807 1.355 . S
C2806 C2808 1.415 . S
C2807 C2806 1.355 . S
C2807 C2809 1.419 . S
C2808 C2806 1.415 . S
C2808 C2813 1.425 . S
C2808 C2815 1.409 . S
C2809 H2801 0.930 . S
C2809 C2807 1.419 . S
C2809 C2810 1.362 . S
C2810 H2802 0.930 . S
C2810 C2809 1.362 . S
C2810 C2813 1.409 . S
C2811 H2803 0.930 . S
C2811 C2812 1.355 . S
C2811 C2813 1.415 . S
C2812 C2811 1.355 . S
C2812 C2814 1.419 . S
C2813 C2808 1.425 . S
C2813 C2810 1.409 . S
C2813 C2811 1.415 . S
C2814 H2804 0.930 . S
C2814 C2812 1.419 . S
C2814 C2815 1.362 . S
C2815 H2805 0.930 . S
C2815 C2808 1.409 . S
C2815 C2814 1.362 . S
H2816 C2822 0.930 . S
H2817 C2825 0.930 1_455 S
H2818 C2826 0.930 . S
H2819 C2827 0.930 . S
H2820 C2830 0.930 . S
H2821 C2831 0.930 . S
C2822 H2816 0.930 . S
C2822 C2823 1.355 . S
C2822 C2824 1.415 . S
C2823 C2822 1.355 . S
C2823 C2825 1.438 . S
C2824 C2822 1.415 . S
C2824 C2829 1.425 1_655 S
C2824 C2831 1.409 . S
C2825 H2817 0.930 1_655 S
C2825 C2823 1.438 . S
C2825 C2826 1.345 1_655 S
C2826 H2818 0.930 . S
C2826 C2825 1.345 1_455 S
C2826 C2829 1.409 . S
C2827 H2819 0.930 . S
C2827 C2828 1.355 . S
C2827 C2829 1.415 . S
C2828 C2827 1.355 . S
C2828 C2830 1.419 . S
C2829 C2824 1.425 1_455 S
C2829 C2826 1.409 . S
C2829 C2827 1.415 . S
C2830 H2820 0.930 . S
C2830 C2828 1.419 . S
C2830 C2831 1.362 1_455 S
C2831 H2821 0.930 . S
C2831 C2824 1.409 . S
C2831 C2830 1.362 1_655 S
H2832 C2838 0.930 . S
H2833 C2841 0.930 . S
H2834 C2842 0.930 . S
H2835 C2843 0.930 . S
H2836 C2846 0.930 . S
H2837 C2847 0.930 . S
C2838 H2832 0.930 . S
C2838 C2839 1.355 . S
C2838 C2840 1.415 . S
C2839 C2838 1.355 . S
C2839 C2841 1.419 . S
C2840 C2838 1.415 . S
C2840 C2845 1.425 . S
C2840 C2847 1.409 . S
C2841 H2833 0.930 . S
C2841 C2839 1.419 . S
C2841 C2842 1.362 . S
C2842 H2834 0.930 . S
C2842 C2841 1.362 . S
C2842 C2845 1.409 . S
C2843 H2835 0.930 . S
C2843 C2844 1.355 . S
C2843 C2845 1.415 . S
C2844 C2843 1.355 . S
C2844 C2846 1.419 . S
C2845 C2840 1.425 . S
C2845 C2842 1.409 . S
C2845 C2843 1.415 . S
C2846 H2836 0.930 . S
C2846 C2844 1.419 . S
C2846 C2847 1.362 . S
C2847 H2837 0.930 . S
C2847 C2840 1.409 . S
C2847 C2846 1.362 . S
H2848 C2854 0.930 . S
H2849 C2857 0.930 . S
H2850 C2858 0.930 . S
H2851 C2859 0.930 . S
H2852 C2862 0.930 . S
H2853 C2863 0.930 . S
C2854 H2848 0.930 . S
C2854 C2855 1.355 . S
C2854 C2856 1.415 . S
C2855 C2854 1.355 . S
C2855 C2857 1.419 . S
C2856 C2854 1.415 . S
C2856 C2861 1.425 . S
C2856 C2863 1.409 . S
C2857 H2849 0.930 . S
C2857 C2855 1.419 . S
C2857 C2858 1.362 . S
C2858 H2850 0.930 . S
C2858 C2857 1.362 . S
C2858 C2861 1.409 . S
C2859 H2851 0.930 . S
C2859 C2860 1.355 . S
C2859 C2861 1.415 . S
C2860 C2859 1.355 . S
C2860 C2862 1.419 . S
C2861 C2856 1.425 . S
C2861 C2858 1.409 . S
C2861 C2859 1.415 . S
C2862 H2852 0.930 . S
C2862 C2860 1.419 . S
C2862 C2863 1.362 . S
C2863 H2853 0.930 . S
C2863 C2856 1.409 . S
C2863 C2862 1.362 . S
H2864 C2870 0.930 . S
H2865 C2873 0.930 . S
H2866 C2874 0.930 . S
H2867 C2875 0.930 . S
H2868 C2878 0.930 . S
H2869 C2879 0.930 . S
C2870 H2864 0.930 . S
C2870 C2871 1.355 . S
C2870 C2872 1.415 . S
C2871 C2870 1.355 . S
C2871 C2873 1.419 . S
C2872 C2870 1.415 . S
C2872 C2877 1.425 . S
C2872 C2879 1.409 . S
C2873 H2865 0.930 . S
C2873 C2871 1.419 . S
C2873 C2874 1.362 . S
C2874 H2866 0.930 . S
C2874 C2873 1.362 . S
C2874 C2877 1.409 . S
C2875 H2867 0.930 . S
C2875 C2876 1.355 . S
C2875 C2877 1.415 . S
C2876 C2875 1.355 . S
C2876 C2878 1.419 . S
C2877 C2872 1.425 . S
C2877 C2874 1.409 . S
C2877 C2875 1.415 . S
C2878 H2868 0.930 . S
C2878 C2876 1.419 . S
C2878 C2879 1.362 . S
C2879 H2869 0.930 . S
C2879 C2872 1.409 . S
C2879 C2878 1.362 . S
H2880 C2886 0.930 . S
H2881 C2889 0.930 . S
H2882 C2890 0.930 . S
H2883 C2891 0.948 . S
H2884 C2894 0.930 . S
H2885 C2895 0.917 . S
C2886 H2880 0.930 . S
C2886 C2887 1.355 . S
C2886 C2888 1.415 . S
C2887 C2886 1.355 . S
C2887 C2889 1.419 . S
C2888 C2886 1.415 . S
C2888 C2893 1.425 . S
C2888 C2895 1.409 . S
C2889 H2881 0.930 . S
C2889 C2887 1.419 . S
C2889 C2890 1.362 . S
C2890 H2882 0.930 . S
C2890 C2889 1.362 . S
C2890 C2893 1.409 . S
C2891 H2883 0.948 . S
C2891 C2892 1.355 1_655 S
C2891 C2893 1.415 . S
C2892 C2891 1.355 1_455 S
C2892 C2894 1.419 . S
C2893 C2888 1.425 . S
C2893 C2890 1.409 . S
C2893 C2891 1.415 . S
C2894 H2884 0.930 . S
C2894 C2892 1.419 . S
C2894 C2895 1.362 1_455 S
C2895 H2885 0.917 . S
C2895 C2888 1.409 . S
C2895 C2894 1.362 1_655 S
H2896 C2902 0.930 . S
H2897 C2905 0.930 . S
H2898 C2906 0.930 . S
H2899 C2907 0.930 . S
H2900 C2910 0.930 . S
H2901 C2911 0.930 . S
C2902 H2896 0.930 . S
C2902 C2903 1.355 . S
C2902 C2904 1.415 . S
C2903 C2902 1.355 . S
C2903 C2905 1.419 . S
C2904 C2902 1.415 . S
C2904 C2909 1.425 . S
C2904 C2911 1.409 . S
C2905 H2897 0.930 . S
C2905 C2903 1.419 . S
C2905 C2906 1.362 . S
C2906 H2898 0.930 . S
C2906 C2905 1.362 . S
C2906 C2909 1.409 . S
C2907 H2899 0.930 . S
C2907 C2908 1.355 . S
C2907 C2909 1.415 . S
C2908 C2907 1.355 . S
C2908 C2910 1.419 . S
C2909 C2904 1.425 . S
C2909 C2906 1.409 . S
C2909 C2907 1.415 . S
C2910 H2900 0.930 . S
C2910 C2908 1.419 . S
C2910 C2911 1.362 . S
C2911 H2901 0.930 . S
C2911 C2904 1.409 . S
C2911 C2910 1.362 . S
H2912 C2918 0.930 . S
H2913 C2921 0.930 . S
H2914 C2922 0.930 . S
H2915 C2923 0.930 . S
H2916 C2926 0.930 . S
H2917 C2927 0.930 . S
C2918 H2912 0.930 . S
C2918 C2919 1.355 . S
C2918 C2920 1.415 . S
C2919 C2918 1.355 . S
C2919 C2921 1.419 . S
C2920 C2918 1.415 . S
C2920 C2925 1.425 . S
C2920 C2927 1.409 . S
C2921 H2913 0.930 . S
C2921 C2919 1.419 . S
C2921 C2922 1.362 . S
C2922 H2914 0.930 . S
C2922 C2921 1.362 . S
C2922 C2925 1.409 . S
C2923 H2915 0.930 . S
C2923 C2924 1.355 . S
C2923 C2925 1.415 . S
C2924 C2923 1.355 . S
C2924 C2926 1.419 . S
C2925 C2920 1.425 . S
C2925 C2922 1.409 . S
C2925 C2923 1.415 . S
C2926 H2916 0.930 . S
C2926 C2924 1.419 . S
C2926 C2927 1.362 . S
C2927 H2917 0.930 . S
C2927 C2920 1.409 . S
C2927 C2926 1.362 . S
H2928 C2934 0.930 . S
H2929 C2937 0.930 . S
H2930 C2938 0.930 . S
H2931 C2939 0.930 1_545 S
H2932 C2942 0.930 . S
H2933 C2943 0.930 . S
C2934 H2928 0.930 . S
C2934 C2935 1.355 . S
C2934 C2936 1.415 . S
C2935 C2934 1.355 . S
C2935 C2937 1.419 . S
C2936 C2934 1.415 . S
C2936 C2941 1.425 . S
C2936 C2943 1.409 . S
C2937 H2929 0.930 . S
C2937 C2935 1.419 . S
C2937 C2938 1.362 . S
C2938 H2930 0.930 . S
C2938 C2937 1.362 . S
C2938 C2941 1.409 . S
C2939 H2931 0.930 1_565 S
C2939 C2940 1.355 . S
C2939 C2941 1.415 . S
C2940 C2939 1.355 . S
C2940 C2942 1.419 . S
C2941 C2936 1.425 . S
C2941 C2938 1.409 . S
C2941 C2939 1.415 . S
C2942 H2932 0.930 . S
C2942 C2940 1.419 . S
C2942 C2943 1.362 . S
C2943 H2933 0.930 . S
C2943 C2936 1.409 . S
C2943 C2942 1.362 . S
H2944 C2950 0.930 . S
H2945 C2953 0.930 . S
H2946 C2954 0.930 . S
H2947 C2955 0.930 . S
H2948 C2958 0.930 . S
H2949 C2959 0.930 . S
C2950 H2944 0.930 . S
C2950 C2951 1.355 . S
C2950 C2952 1.415 . S
C2951 C2950 1.355 . S
C2951 C2953 1.419 . S
C2952 C2950 1.415 . S
C2952 C2957 1.425 . S
C2952 C2959 1.409 . S
C2953 H2945 0.930 . S
C2953 C2951 1.419 . S
C2953 C2954 1.362 . S
C2954 H2946 0.930 . S
C2954 C2953 1.362 . S
C2954 C2957 1.409 . S
C2955 H2947 0.930 . S
C2955 C2956 1.355 . S
C2955 C2957 1.415 . S
C2956 C2955 1.355 . S
C2956 C2958 1.419 . S
C2957 C2952 1.425 . S
C2957 C2954 1.409 . S
C2957 C2955 1.415 . S
C2958 H2948 0.930 . S
C2958 C2956 1.419 . S
C2958 C2959 1.362 . S
C2959 H2949 0.930 . S
C2959 C2952 1.409 . S
C2959 C2958 1.362 . S
H2960 C2966 0.930 . S
H2961 C2969 0.930 . S
H2962 C2970 0.930 . S
H2963 C2971 0.930 . S
H2964 C2974 0.930 . S
H2965 C2975 0.930 . S
C2966 H2960 0.930 . S
C2966 C2967 1.355 . S
C2966 C2968 1.415 . S
C2967 C2966 1.355 . S
C2967 C2969 1.419 . S
C2968 C2966 1.415 . S
C2968 C2973 1.425 . S
C2968 C2975 1.409 . S
C2969 H2961 0.930 . S
C2969 C2967 1.419 . S
C2969 C2970 1.362 . S
C2970 H2962 0.930 . S
C2970 C2969 1.362 . S
C2970 C2973 1.409 . S
C2971 H2963 0.930 . S
C2971 C2972 1.355 . S
C2971 C2973 1.415 . S
C2972 C2971 1.355 . S
C2972 C2974 1.419 . S
C2973 C2968 1.425 . S
C2973 C2970 1.409 . S
C2973 C2971 1.415 . S
C2974 H2964 0.930 . S
C2974 C2972 1.419 . S
C2974 C2975 1.362 . S
C2975 H2965 0.930 . S
C2975 C2968 1.409 . S
C2975 C2974 1.362 . S
H2976 C2982 0.930 . S
H2977 C2985 0.930 . S
H2978 C2986 0.930 . S
H2979 C2987 0.930 . S
H2980 C2990 0.930 . S
H2981 C2991 0.930 . S
C2982 H2976 0.930 . S
C2982 C2983 1.355 . S
C2982 C2984 1.415 . S
C2983 C2982 1.355 . S
C2983 C2985 1.419 . S
C2984 C2982 1.415 . S
C2984 C2989 1.425 . S
C2984 C2991 1.409 . S
C2985 H2977 0.930 . S
C2985 C2983 1.419 . S
C2985 C2986 1.362 . S
C2986 H2978 0.930 . S
C2986 C2985 1.362 . S
C2986 C2989 1.409 . S
C2987 H2979 0.930 . S
C2987 C2988 1.355 . S
C2987 C2989 1.415 . S
C2988 C2987 1.355 . S
C2988 C2990 1.419 . S
C2989 C2984 1.425 . S
C2989 C2986 1.409 . S
C2989 C2987 1.415 . S
C2990 H2980 0.930 . S
C2990 C2988 1.419 . S
C2990 C2991 1.362 . S
C2991 H2981 0.930 . S
C2991 C2984 1.409 . S
C2991 C2990 1.362 . S
H2992 C2998 0.930 . S
H2993 C3001 0.930 . S
H2994 C3002 0.930 . S
H2995 C3003 0.930 . S
H2996 C3006 0.911 1_556 S
H2997 C3007 0.930 . S
C2998 H2992 0.930 . S
C2998 C2999 1.355 . S
C2998 C3000 1.415 . S
C2999 C2998 1.355 . S
C2999 C3001 1.419 . S
C3000 C2998 1.415 . S
C3000 C3005 1.425 . S
C3000 C3007 1.409 . S
C3001 H2993 0.930 . S
C3001 C2999 1.419 . S
C3001 C3002 1.362 . S
C3002 H2994 0.930 . S
C3002 C3001 1.362 . S
C3002 C3005 1.409 . S
C3003 H2995 0.930 . S
C3003 C3004 1.355 . S
C3003 C3005 1.415 . S
C3004 C3003 1.355 . S
C3004 C3006 1.419 . S
C3005 C3000 1.425 . S
C3005 C3002 1.409 . S
C3005 C3003 1.415 . S
C3006 H2996 0.911 1_554 S
C3006 C3004 1.419 . S
C3006 C3007 1.362 . S
C3007 H2997 0.930 . S
C3007 C3000 1.409 . S
C3007 C3006 1.362 . S
H3008 C3014 0.930 . S
H3009 C3017 0.930 . S
H3010 C3018 0.930 . S
H3011 C3019 0.930 . S
H3012 C3022 0.930 . S
H3013 C3023 0.930 . S
C3014 H3008 0.930 . S
C3014 C3015 1.355 . S
C3014 C3016 1.415 . S
C3015 C3014 1.355 . S
C3015 C3017 1.419 . S
C3016 C3014 1.415 . S
C3016 C3021 1.425 . S
C3016 C3023 1.409 . S
C3017 H3009 0.930 . S
C3017 C3015 1.419 . S
C3017 C3018 1.362 . S
C3018 H3010 0.930 . S
C3018 C3017 1.362 . S
C3018 C3021 1.409 . S
C3019 H3011 0.930 . S
C3019 C3020 1.355 . S
C3019 C3021 1.415 . S
C3020 C3019 1.355 . S
C3020 C3022 1.419 . S
C3021 C3016 1.425 . S
C3021 C3018 1.409 . S
C3021 C3019 1.415 . S
C3022 H3012 0.930 . S
C3022 C3020 1.419 . S
C3022 C3023 1.362 . S
C3023 H3013 0.930 . S
C3023 C3016 1.409 . S
C3023 C3022 1.362 . S
H3024 C3030 0.930 . S
H3025 C3033 0.930 . S
H3026 C3034 0.930 . S
H3027 C3035 0.930 . S
H3028 C3038 0.930 . S
H3029 C3039 0.930 . S
C3030 H3024 0.930 . S
C3030 C3031 1.355 . S
C3030 C3032 1.415 . S
C3031 C3030 1.355 . S
C3031 C3033 1.419 . S
C3032 C3030 1.415 . S
C3032 C3037 1.425 . S
C3032 C3039 1.409 . S
C3033 H3025 0.930 . S
C3033 C3031 1.419 . S
C3033 C3034 1.362 . S
C3034 H3026 0.930 . S
C3034 C3033 1.362 . S
C3034 C3037 1.409 . S
C3035 H3027 0.930 . S
C3035 C3036 1.355 . S
C3035 C3037 1.415 . S
C3036 C3035 1.355 . S
C3036 C3038 1.419 . S
C3037 C3032 1.425 . S
C3037 C3034 1.409 . S
C3037 C3035 1.415 . S
C3038 H3028 0.930 . S
C3038 C3036 1.419 . S
C3038 C3039 1.362 . S
C3039 H3029 0.930 . S
C3039 C3032 1.409 . S
C3039 C3038 1.362 . S
C1511 C255 2.182 . S
C1516 C895 2.203 . S
C1527 C147 1.845 . S
C1532 C906 1.871 . S
C1543 C184 1.689 . S
C1548 C975 1.646 . S
C1564 C988 1.146 . S
C1559 C220 1.193 . S
C1575 C40 2.501 . S
C1580 C1044 2.444 1_565 S
C1596 C1095 2.203 . S
C1591 C74 2.250 . S
C1612 C1124 2.399 . S
C1607 C110 2.426 . S
C1623 C14 2.452 . S
C1628 C1175 2.398 . S
C1644 C866 1.372 . S
C1639 C579 1.378 . S
C1655 C616 1.002 . S
C1660 C908 0.951 . S
C1676 C946 1.118 . S
C1671 C687 1.091 . S
C1692 C1015 1.823 . S
C1687 C436 1.789 . S
C1703 C580 0.642 . S
C1708 C1049 0.689 . S
C1724 C1066 1.454 . S
C1719 C615 1.467 . S
C1740 C1129 0.493 . S
C1735 C688 0.511 . S
C1756 C1146 2.132 . S
C1751 C435 2.182 . S
C1772 C868 1.705 . S
C1767 C410 1.882 1_554 S
C1783 C722 1.694 . S
C1788 C1207 1.617 . S
C1804 C1228 1.563 . S
C1799 C842 1.736 . S
C1820 C1287 0.609 . S
C1815 C794 0.499 . S
C1831 C302 1.199 . S
C1836 C1148 1.098 . S
C1847 C338 1.459 . S
C1852 C948 1.415 . S
C1863 C830 1.022 . S
C1868 C1306 1.079 . S
C1884 C1375 1.032 . S
C1879 C758 1.074 . S
C1900 C884 2.179 . S
C1895 C158 2.075 . S
C1916 C1367 1.865 . S
C1911 C254 1.843 . S
C1927 C218 1.720 . S
C1932 C964 1.658 . S
C1943 C194 1.184 . S
C1948 C1329 1.200 . S
C1964 C1055 2.418 . S
C1959 C3 2.440 . S
C1975 C111 2.144 . S
C1980 C1244 2.114 . S
C1996 C1135 2.336 1_556 S
C1991 C76 2.340 . S
C2012 C1404 2.501 . S
C2007 C50 2.471 1_655 S
C2028 C887 1.394 . S
C2023 C364 1.417 . S
C2044 C1369 0.985 . S
C2039 C795 1.071 . S
C2055 C292 1.061 . S
C2060 C967 1.011 . S
C2071 C723 1.728 . S
C2076 C1324 1.746 . S
C2087 C363 0.705 . S
C2092 C1028 0.746 . S
C2108 C1247 1.476 . S
C2103 C796 1.472 . S
C2119 C291 0.421 . S
C2124 C1108 0.398 . S
C2135 C724 2.167 . S
C2140 C1407 2.147 . S
C2151 C482 1.672 . S
C2156 C889 1.743 1_554 S
C2167 C434 1.687 . S
C2172 C1186 1.642 . S
C2183 C662 1.529 . S
C2188 C1089 1.630 . S
C2199 C614 0.534 . S
C2204 C1266 0.458 . S
C2220 C1409 1.179 . S
C2215 C698 1.113 1_565 S
C2231 C554 1.398 . S
C2236 C969 1.458 . S
C2252 C1007 1.009 . S
C2247 C650 0.969 . S
C2268 C924 0.958 . S
C2263 C506 1.033 . S
C2279 C183 2.164 . S
C2284 C1455 2.188 . S
C2300 C1346 1.870 . S
C2295 C219 1.847 . S
C2311 C256 1.694 . S
C2316 C1495 1.627 . S
C2327 C148 1.209 . S
C2332 C1308 1.213 . S
C2343 C122 2.465 . S
C2348 C1204 2.499 . S
C2364 C1255 2.150 . S
C2359 C2 2.185 . S
C2380 C1284 2.292 . S
C2375 C39 2.313 . S
C2396 C1415 2.454 . S
C2391 C86 2.503 . S
C2412 C1426 1.393 . S
C2407 C651 1.401 . S
C2423 C472 1.083 . S
C2428 C1348 1.053 . S
C2444 C1466 1.049 . S
C2439 C507 1.090 . S
C2460 C1335 1.821 . S
C2455 C544 1.794 . S
C2476 C1209 0.694 . S
C2471 C652 0.724 . S
C2487 C471 1.455 . S
C2492 C1226 1.480 . S
C2508 C1289 0.504 . S
C2503 C508 0.431 . S
C2519 C543 2.204 . S
C2524 C1386 2.166 . S
C2540 C1428 1.775 . S
C2535 C806 1.916 . S
C2551 C326 1.670 . S
C2556 C1047 1.586 . S
C2572 C1068 1.556 . S
C2567 C374 1.736 . S
C2588 C1127 0.615 . S
C2583 C398 0.512 . S
C2604 C1388 1.194 . S
C2599 C770 1.204 . S
C2615 C734 1.447 . S
C2620 C1468 1.422 . S
C2636 C986 1.043 . S
C2631 C362 1.005 . S
C2652 C935 1.090 . S
C2647 C290 1.079 . S
C2663 C230 2.015 . S
C2668 C1444 2.185 . S
C2684 C927 1.861 . S
C2679 C182 1.864 . S
C2695 C146 1.705 . S
C2700 C1484 1.685 . S
C2711 C266 1.186 . S
C2716 C1009 1.198 . S
C2727 C75 2.501 . S
C2732 C1215 2.458 1_556 S
C2748 C1084 2.246 . S
C2743 C38 2.232 . S
C2759 C4 2.284 . S
C2764 C1295 2.297 . S
C2775 C112 2.468 . S
C2780 C1164 2.373 . S
C2796 C1447 1.367 . S
C2791 C832 1.384 . S
C2807 C399 1.077 . S
C2812 C929 0.997 . S
C2828 C1487 1.012 . S
C2823 C760 1.056 . S
C2839 C327 1.720 . S
C2844 C1004 1.744 . S
C2855 C831 0.702 . S
C2860 C1188 0.740 . S
C2876 C1087 1.452 . S
C2871 C400 1.472 . S
C2887 C759 0.459 . S
C2892 C1268 0.464 . S
C2908 C1167 2.125 . S
C2903 C328 2.148 . S
C2924 C1449 1.788 . S
C2919 C626 1.712 . S
C2940 C1026 1.623 1_565 S
C2935 C542 1.683 . S
C2951 C590 1.498 . S
C2956 C1249 1.599 . S
C2972 C1106 0.582 . S
C2967 C470 0.485 . S
C2983 C518 0.985 . S
C2988 C1169 1.077 . S
C2999 C446 1.408 . S
C3004 C1489 1.462 . S
C3020 C1327 1.011 . S
C3015 C578 0.946 . S
C3036 C1364 0.978 . S
C3031 C686 0.999 . S
