# Generated by pormake.
# Topology pyr, (3,6)-cn, num edge types: 1
# Building blocks:
#     Node 0, Type 0, BuildingBlock: WUSLED_clean_sbu_0, # of connection points: 3
#     Node 1, Type 0, BuildingBlock: WUSLED_clean_sbu_0, # of connection points: 3
#     Node 2, Type 0, BuildingBlock: WUSLED_clean_sbu_0, # of connection points: 3
#     Node 3, Type 0, BuildingBlock: WUSLED_clean_sbu_0, # of connection points: 3
#     Node 4, Type 0, BuildingBlock: WUSLED_clean_sbu_0, # of connection points: 3
#     Node 5, Type 0, BuildingBlock: WUSLED_clean_sbu_0, # of connection points: 3
#     Node 6, Type 0, BuildingBlock: WUSLED_clean_sbu_0, # of connection points: 3
#     Node 7, Type 0, BuildingBlock: WUSLED_clean_sbu_0, # of connection points: 3
#     Node 8, Type 1, BuildingBlock: FUNLAD_clean_sbu_0, # of connection points: 6
#     Node 9, Type 1, BuildingBlock: FUNLAD_clean_sbu_0, # of connection points: 6
#     Node 10, Type 1, BuildingBlock: FUNLAD_clean_sbu_0, # of connection points: 6
#     Node 11, Type 1, BuildingBlock: FUNLAD_clean_sbu_0, # of connection points: 6
#     Edge 12, Type (0, 1), BuildingBlock: ZUJKAS_clean_linker_0, # of connection points: 2
#     Edge 13, Type (0, 1), BuildingBlock: ZUJKAS_clean_linker_0, # of connection points: 2
#     Edge 14, Type (0, 1), BuildingBlock: ZUJKAS_clean_linker_0, # of connection points: 2
#     Edge 15, Type (0, 1), BuildingBlock: ZUJKAS_clean_linker_0, # of connection points: 2
#     Edge 16, Type (0, 1), BuildingBlock: ZUJKAS_clean_linker_0, # of connection points: 2
#     Edge 17, Type (0, 1), BuildingBlock: ZUJKAS_clean_linker_0, # of connection points: 2
#     Edge 18, Type (0, 1), BuildingBlock: ZUJKAS_clean_linker_0, # of connection points: 2
#     Edge 19, Type (0, 1), BuildingBlock: ZUJKAS_clean_linker_0, # of connection points: 2
#     Edge 20, Type (0, 1), BuildingBlock: ZUJKAS_clean_linker_0, # of connection points: 2
#     Edge 21, Type (0, 1), BuildingBlock: ZUJKAS_clean_linker_0, # of connection points: 2
#     Edge 22, Type (0, 1), BuildingBlock: ZUJKAS_clean_linker_0, # of connection points: 2
#     Edge 23, Type (0, 1), BuildingBlock: ZUJKAS_clean_linker_0, # of connection points: 2
#     Edge 24, Type (0, 1), BuildingBlock: ZUJKAS_clean_linker_0, # of connection points: 2
#     Edge 25, Type (0, 1), BuildingBlock: ZUJKAS_clean_linker_0, # of connection points: 2
#     Edge 26, Type (0, 1), BuildingBlock: ZUJKAS_clean_linker_0, # of connection points: 2
#     Edge 27, Type (0, 1), BuildingBlock: ZUJKAS_clean_linker_0, # of connection points: 2
#     Edge 28, Type (0, 1), BuildingBlock: ZUJKAS_clean_linker_0, # of connection points: 2
#     Edge 29, Type (0, 1), BuildingBlock: ZUJKAS_clean_linker_0, # of connection points: 2
#     Edge 30, Type (0, 1), BuildingBlock: ZUJKAS_clean_linker_0, # of connection points: 2
#     Edge 31, Type (0, 1), BuildingBlock: ZUJKAS_clean_linker_0, # of connection points: 2
#     Edge 32, Type (0, 1), BuildingBlock: ZUJKAS_clean_linker_0, # of connection points: 2
#     Edge 33, Type (0, 1), BuildingBlock: ZUJKAS_clean_linker_0, # of connection points: 2
#     Edge 34, Type (0, 1), BuildingBlock: ZUJKAS_clean_linker_0, # of connection points: 2
#     Edge 35, Type (0, 1), BuildingBlock: ZUJKAS_clean_linker_0, # of connection points: 2
# Relax obj value: 0.037
# Max RMSD: 0.055
# Mean RMSD: 0.025
data_MOF--net-pry--node1-WUSLED_clean_sbu_0--node2-FUNLAD_clean_sbu_0--edge1-ZUJKAS_clean_linker_0
_symmetry_space_group_name_H-M    P1
_symmetry_Int_Tables_number       1
_symmetry_cell_setting            triclinic
loop_
_symmetry_equiv_pos_as_xyz
'x, y, z'
_cell_length_a     57.6753
_cell_length_b     59.939972
_cell_length_c     60.388847
_cell_angle_alpha  89.863135
_cell_angle_beta   90.297062
_cell_angle_gamma 86.33256
loop_
_atom_site_label
_atom_site_type_symbol
_atom_site_fract_x
_atom_site_fract_y
_atom_site_fract_z
_atom_type_partial_charge
C0 C 0.14716 0.23176 0.14944 0.0
C1 C 0.13252 0.24523 0.16318 0.0
C2 C 0.12304 0.27113 0.13235 0.0
C3 C 0.12057 0.26469 0.15471 0.0
C4 C 0.13768 0.25738 0.11879 0.0
C5 C 0.14947 0.23801 0.1272 0.0
U6 U 0.16586 0.18041 0.18833 0.0
O7 O 0.18109 0.14766 0.17738 0.0
O8 O 0.20187 0.1693 0.19759 0.0
C9 C 0.2015 0.1506 0.18631 0.0
C10 C 0.16137 0.21187 0.15763 0.0
C11 C 0.22219 0.14431 0.17264 0.0
C12 C 0.24377 0.1442 0.13795 0.0
C13 C 0.22432 0.15152 0.15062 0.0
C14 C 0.25925 0.12268 0.16923 0.0
C15 C 0.26141 0.12945 0.14702 0.0
C16 C 0.23992 0.13001 0.18182 0.0
C17 C 0.13079 0.16503 0.24104 0.0
C18 C 0.12796 0.12965 0.26082 0.0
C19 C 0.11494 0.16434 0.27845 0.0
C20 C 0.1212 0.1762 0.25958 0.0
C21 C 0.11808 0.14084 0.2794 0.0
C22 C 0.13425 0.14159 0.24188 0.0
C23 C 0.13564 0.1783 0.22088 0.0
O24 O 0.17311 0.21395 0.17614 0.0
O25 O 0.15255 0.19228 0.15569 0.0
O26 O 0.1332 0.16865 0.20154 0.0
O27 O 0.15374 0.19055 0.22172 0.0
H28 H 0.13048 0.24081 0.18043 0.0
H29 H 0.10931 0.27462 0.16569 0.0
H30 H 0.14057 0.26181 0.10168 0.0
H31 H 0.16084 0.22805 0.11632 0.0
H32 H 0.2447 0.14968 0.1209 0.0
H33 H 0.21085 0.16255 0.14316 0.0
H34 H 0.27258 0.11173 0.17699 0.0
H35 H 0.23871 0.12428 0.19878 0.0
H36 H 0.13095 0.11164 0.26091 0.0
H37 H 0.10706 0.17365 0.29211 0.0
H38 H 0.11814 0.19423 0.25934 0.0
H39 H 0.14162 0.13249 0.22785 0.0
C40 C 0.30117 0.87446 0.65361 0.0
C41 C 0.30111 0.89755 0.64934 0.0
C42 C 0.26059 0.89838 0.6368 0.0
C43 C 0.28106 0.90936 0.64105 0.0
C44 C 0.26064 0.87537 0.64162 0.0
C45 C 0.28063 0.86362 0.64986 0.0
U46 U 0.35697 0.85695 0.68882 0.0
O47 O 0.37036 0.82272 0.69722 0.0
O48 O 0.39107 0.84372 0.67631 0.0
C49 C 0.38893 0.82374 0.6848 0.0
C50 C 0.32269 0.86075 0.6597 0.0
C51 C 0.395 0.80432 0.67015 0.0
C52 C 0.38536 0.77007 0.65127 0.0
C53 C 0.37858 0.78916 0.66373 0.0
C54 C 0.42493 0.78116 0.65104 0.0
C55 C 0.40869 0.7657 0.64486 0.0
C56 C 0.41816 0.80015 0.66353 0.0
C57 C 0.37292 0.8918 0.74145 0.0
C58 C 0.4035 0.91261 0.75847 0.0
C59 C 0.37563 0.89551 0.78172 0.0
C60 C 0.36473 0.88734 0.76283 0.0
C61 C 0.39498 0.90858 0.77985 0.0
C62 C 0.39261 0.90441 0.73956 0.0
C63 C 0.35902 0.88594 0.72155 0.0
O64 O 0.34271 0.86972 0.65699 0.0
O65 O 0.32205 0.84847 0.67773 0.0
O66 O 0.34737 0.86781 0.72265 0.0
O67 O 0.36806 0.88894 0.70189 0.0
H68 H 0.31666 0.90643 0.65196 0.0
H69 H 0.28166 0.92709 0.63786 0.0
H70 H 0.24544 0.86619 0.6383 0.0
H71 H 0.28024 0.84579 0.6527 0.0
H72 H 0.37227 0.75876 0.64661 0.0
H73 H 0.36055 0.79189 0.66852 0.0
H74 H 0.44308 0.77831 0.64675 0.0
H75 H 0.43122 0.81143 0.66839 0.0
H76 H 0.41852 0.92233 0.75628 0.0
H77 H 0.36827 0.89226 0.79778 0.0
H78 H 0.34934 0.87812 0.76496 0.0
H79 H 0.3993 0.90848 0.72343 0.0
C80 C 0.59536 0.4171 0.87917 0.0
C81 C 0.60761 0.4337 0.8689 0.0
C82 C 0.58243 0.43246 0.83655 0.0
C83 C 0.60118 0.44135 0.84775 0.0
C84 C 0.56979 0.41629 0.84726 0.0
C85 C 0.57626 0.40865 0.86842 0.0
U86 U 0.63953 0.41358 0.92568 0.0
O87 O 0.63571 0.40716 0.96134 0.0
O88 O 0.65766 0.38411 0.94102 0.0
C89 C 0.64727 0.38755 0.96012 0.0
C90 C 0.60358 0.40734 0.90025 0.0
C91 C 0.63492 0.36843 0.96792 0.0
C92 C 0.60185 0.34556 0.96469 0.0
C93 C 0.61234 0.36541 0.96024 0.0
C94 C 0.63615 0.33178 0.98512 0.0
C95 C 0.61385 0.32832 0.97673 0.0
C96 C 0.64661 0.35171 0.98072 0.0
C97 C 0.69065 0.45007 0.92423 0.0
C98 C 0.72098 0.44558 0.95217 0.0
C99 C 0.72636 0.46881 0.91991 0.0
C100 C 0.70432 0.46419 0.91216 0.0
C101 C 0.73503 0.45935 0.93987 0.0
C102 C 0.69897 0.44092 0.94437 0.0
C103 C 0.6685 0.44372 0.915 0.0
O104 O 0.62335 0.3953 0.8989 0.0
O105 O 0.60262 0.42094 0.91733 0.0
O106 O 0.65014 0.44815 0.92746 0.0
O107 O 0.66926 0.42362 0.90633 0.0
H108 H 0.62255 0.44025 0.87698 0.0
H109 H 0.61144 0.4536 0.83987 0.0
H110 H 0.55508 0.40935 0.83917 0.0
H111 H 0.56669 0.39577 0.87616 0.0
H112 H 0.58481 0.34328 0.95773 0.0
H113 H 0.60321 0.37801 0.94999 0.0
H114 H 0.64571 0.31886 0.99461 0.0
H115 H 0.66414 0.35372 0.98658 0.0
H116 H 0.72728 0.43785 0.96747 0.0
H117 H 0.73668 0.47969 0.91022 0.0
H118 H 0.69813 0.4713 0.89653 0.0
H119 H 0.68866 0.42978 0.95377 0.0
C120 C 0.82801 0.58879 0.42771 0.0
C121 C 0.81909 0.60181 0.44535 0.0
C122 C 0.78505 0.5799 0.44655 0.0
C123 C 0.79776 0.59741 0.45469 0.0
C124 C 0.7944 0.56654 0.42923 0.0
C125 C 0.81572 0.57101 0.41984 0.0
U126 U 0.87895 0.62515 0.4239 0.0
O127 O 0.91526 0.61733 0.41397 0.0
O128 O 0.89328 0.64214 0.39535 0.0
C129 C 0.91314 0.63016 0.39629 0.0
C130 C 0.84941 0.59451 0.4167 0.0
C131 C 0.92006 0.61953 0.37534 0.0
C132 C 0.91147 0.5955 0.34451 0.0
C133 C 0.90617 0.60386 0.36557 0.0
C134 C 0.94506 0.61781 0.34317 0.0
C135 C 0.93075 0.60267 0.33295 0.0
C136 C 0.93968 0.62623 0.36421 0.0
C137 C 0.88609 0.67211 0.46366 0.0
C138 C 0.9187 0.69512 0.45807 0.0
C139 C 0.8861 0.70877 0.48052 0.0
C140 C 0.87538 0.68882 0.47697 0.0
C141 C 0.90768 0.71228 0.47077 0.0
C142 C 0.90794 0.67524 0.45446 0.0
C143 C 0.87341 0.65268 0.4573 0.0
O144 O 0.84804 0.61412 0.40685 0.0
O145 O 0.86862 0.59069 0.4283 0.0
O146 O 0.88514 0.63318 0.4589 0.0
O147 O 0.86186 0.65533 0.43858 0.0
H148 H 0.82843 0.61562 0.45159 0.0
H149 H 0.79112 0.60781 0.46818 0.0
H150 H 0.7849 0.5531 0.42245 0.0
H151 H 0.82236 0.5609 0.40615 0.0
H152 H 0.90031 0.58364 0.33716 0.0
H153 H 0.89092 0.59854 0.37401 0.0
H154 H 0.95989 0.6238 0.33457 0.0
H155 H 0.95047 0.63844 0.37153 0.0
H156 H 0.93516 0.69744 0.45009 0.0
H157 H 0.87732 0.72164 0.49055 0.0
H158 H 0.85842 0.68672 0.48402 0.0
H159 H 0.91628 0.66262 0.44383 0.0
C160 C 0.87083 0.80605 0.88035 0.0
C161 C 0.89268 0.79856 0.87207 0.0
C162 C 0.89438 0.76659 0.89769 0.0
C163 C 0.90431 0.77893 0.8806 0.0
C164 C 0.87233 0.77414 0.90555 0.0
C165 C 0.86078 0.79354 0.89701 0.0
U166 U 0.85422 0.86016 0.84398 0.0
O167 O 0.81848 0.87346 0.8367 0.0
O168 O 0.84116 0.89283 0.85737 0.0
C169 C 0.8201 0.89111 0.84939 0.0
C170 C 0.85806 0.82704 0.87295 0.0
C171 C 0.80033 0.89718 0.86452 0.0
C172 C 0.77991 0.92533 0.88771 0.0
C173 C 0.79932 0.91805 0.87514 0.0
C174 C 0.76206 0.89084 0.8797 0.0
C175 C 0.7608 0.91201 0.88993 0.0
C176 C 0.78153 0.88354 0.86712 0.0
C177 C 0.8879 0.87766 0.79098 0.0
C178 C 0.91197 0.90476 0.77327 0.0
C179 C 0.88355 0.8865 0.75149 0.0
C180 C 0.87698 0.87471 0.77036 0.0
C181 C 0.90136 0.90153 0.75255 0.0
C182 C 0.90542 0.89296 0.79214 0.0
C183 C 0.88314 0.86311 0.81044 0.0
O184 O 0.86841 0.84581 0.87528 0.0
O185 O 0.84553 0.82644 0.85474 0.0
O186 O 0.86442 0.85167 0.80969 0.0
O187 O 0.88712 0.87104 0.83031 0.0
H188 H 0.90082 0.80796 0.85925 0.0
H189 H 0.92129 0.77371 0.87417 0.0
H190 H 0.86385 0.76497 0.91832 0.0
H191 H 0.84392 0.79894 0.90363 0.0
H192 H 0.77988 0.94153 0.8956 0.0
H193 H 0.81343 0.92901 0.87337 0.0
H194 H 0.74767 0.88015 0.88079 0.0
H195 H 0.78159 0.86742 0.85906 0.0
H196 H 0.92596 0.91588 0.77483 0.0
H197 H 0.8747 0.8837 0.73598 0.0
H198 H 0.86364 0.86291 0.76864 0.0
H199 H 0.91459 0.89538 0.80756 0.0
C200 C 0.63048 0.16617 0.29108 0.0
C201 C 0.63461 0.1428 0.29044 0.0
C202 C 0.61849 0.14162 0.2528 0.0
C203 C 0.62866 0.13067 0.27153 0.0
C204 C 0.61469 0.16506 0.25355 0.0
C205 C 0.6206 0.17711 0.2724 0.0
U206 U 0.66399 0.18128 0.34498 0.0
O207 O 0.6716 0.21464 0.35723 0.0
O208 O 0.64949 0.19369 0.37677 0.0
C209 C 0.65848 0.21321 0.37487 0.0
C210 C 0.63497 0.17956 0.31117 0.0
C211 C 0.64371 0.2334 0.38147 0.0
C212 C 0.63042 0.27266 0.37658 0.0
C213 C 0.64179 0.25293 0.36844 0.0
C214 C 0.62218 0.25364 0.4107 0.0
C215 C 0.62074 0.27341 0.39799 0.0
C216 C 0.63353 0.23398 0.40257 0.0
C217 C 0.71871 0.14456 0.36456 0.0
C218 C 0.75707 0.15066 0.37997 0.0
C219 C 0.73935 0.11596 0.38738 0.0
C220 C 0.71984 0.12347 0.37486 0.0
C221 C 0.75843 0.12929 0.38987 0.0
C222 C 0.73749 0.15819 0.36745 0.0
C223 C 0.69886 0.15091 0.34944 0.0
O224 O 0.63153 0.17019 0.33049 0.0
O225 O 0.65349 0.19125 0.31093 0.0
O226 O 0.70001 0.16925 0.33759 0.0
O227 O 0.67789 0.14826 0.35705 0.0
H228 H 0.64222 0.1339 0.3046 0.0
H229 H 0.63215 0.1127 0.27156 0.0
H230 H 0.60657 0.17416 0.23975 0.0
H231 H 0.61705 0.19509 0.27251 0.0
H232 H 0.62941 0.2874 0.36614 0.0
H233 H 0.64954 0.25318 0.35215 0.0
H234 H 0.61531 0.2535 0.42735 0.0
H235 H 0.63504 0.21933 0.41317 0.0
H236 H 0.77145 0.16135 0.38128 0.0
H237 H 0.73949 0.09959 0.39501 0.0
H238 H 0.70575 0.11251 0.37285 0.0
H239 H 0.73735 0.17447 0.35963 0.0
C240 C 0.32413 0.59504 0.1131 0.0
C241 C 0.31661 0.60401 0.09263 0.0
C242 C 0.28009 0.58622 0.09628 0.0
C243 C 0.29478 0.59956 0.08423 0.0
C244 C 0.28787 0.57707 0.11668 0.0
C245 C 0.30974 0.58146 0.12501 0.0
U246 U 0.37588 0.63075 0.11305 0.0
O247 O 0.39259 0.64766 0.14044 0.0
O248 O 0.41272 0.6224 0.12098 0.0
C249 C 0.41213 0.63531 0.13857 0.0
C250 C 0.34631 0.60083 0.1227 0.0
C251 C 0.42026 0.62455 0.15921 0.0
C252 C 0.41375 0.59978 0.19004 0.0
C253 C 0.40714 0.60853 0.16936 0.0
C254 C 0.44707 0.6225 0.19028 0.0
C255 C 0.4336 0.60693 0.20086 0.0
C256 C 0.44039 0.6313 0.1696 0.0
C257 C 0.3818 0.6769 0.07229 0.0
C258 C 0.41598 0.69821 0.076 0.0
C259 C 0.38196 0.71412 0.0565 0.0
C260 C 0.37064 0.69453 0.06029 0.0
C261 C 0.40458 0.71631 0.06471 0.0
C262 C 0.40465 0.67872 0.07984 0.0
C263 C 0.36876 0.65798 0.07944 0.0
O264 O 0.36469 0.59647 0.11026 0.0
O265 O 0.34582 0.62068 0.13192 0.0
O266 O 0.35848 0.66109 0.09864 0.0
O267 O 0.3797 0.63812 0.07758 0.0
H268 H 0.32748 0.61475 0.08334 0.0
H269 H 0.28915 0.60704 0.0686 0.0
H270 H 0.27703 0.56652 0.1262 0.0
H271 H 0.3153 0.5745 0.14089 0.0
H272 H 0.40321 0.5876 0.19768 0.0
H273 H 0.39151 0.60318 0.16149 0.0
H274 H 0.46231 0.62848 0.19832 0.0
H275 H 0.4506 0.64376 0.16198 0.0
H276 H 0.43325 0.6995 0.08282 0.0
H277 H 0.37284 0.72774 0.04758 0.0
H278 H 0.35292 0.69346 0.05456 0.0
H279 H 0.41338 0.6654 0.08951 0.0
C280 C 0.0998 0.3731 0.61413 0.0
C281 C 0.11253 0.35865 0.59983 0.0
C282 C 0.08159 0.33288 0.60053 0.0
C283 C 0.10351 0.33866 0.5931 0.0
C284 C 0.06857 0.3479 0.6142 0.0
C285 C 0.07766 0.36783 0.62099 0.0
U286 U 0.14671 0.41513 0.61499 0.0
O287 O 0.1441 0.45085 0.62374 0.0
O288 O 0.16633 0.4271 0.64333 0.0
C289 C 0.15634 0.44737 0.64201 0.0
C290 C 0.11009 0.39281 0.62329 0.0
C291 C 0.14474 0.45484 0.66244 0.0
C292 C 0.11514 0.4494 0.68994 0.0
C293 C 0.12478 0.44458 0.66926 0.0
C294 C 0.14476 0.47552 0.6969 0.0
C295 C 0.12528 0.46458 0.70414 0.0
C296 C 0.15451 0.47057 0.67617 0.0
C297 C 0.19659 0.41277 0.57523 0.0
C298 C 0.22859 0.43604 0.58273 0.0
C299 C 0.23005 0.41128 0.551 0.0
C300 C 0.2082 0.4041 0.55652 0.0
C301 C 0.24059 0.42709 0.56424 0.0
C302 C 0.20676 0.42896 0.58815 0.0
C303 C 0.17447 0.40424 0.58203 0.0
O304 O 0.1303 0.38869 0.6331 0.0
O305 O 0.10936 0.41061 0.61048 0.0
O306 O 0.15621 0.41841 0.57991 0.0
O307 O 0.17535 0.39376 0.60118 0.0
H308 H 0.12972 0.36249 0.59444 0.0
H309 H 0.11412 0.32737 0.58279 0.0
H310 H 0.05149 0.34411 0.61992 0.0
H311 H 0.06762 0.37888 0.63202 0.0
H312 H 0.09997 0.44096 0.695 0.0
H313 H 0.11708 0.43232 0.65884 0.0
H314 H 0.15297 0.48719 0.7076 0.0
H315 H 0.17003 0.47847 0.67117 0.0
H316 H 0.23612 0.44848 0.59304 0.0
H317 H 0.23898 0.404 0.53675 0.0
H318 H 0.20057 0.39152 0.54645 0.0
H319 H 0.19795 0.43584 0.60265 0.0
C320 C 0.03186 0.03366 0.47638 0.0
N321 N 0.01988 0.06497 0.53778 0.0
C322 C 0.04123 0.07279 0.53457 0.0
C323 C 0.04587 0.0942 0.54147 0.0
C324 C 0.02838 0.10774 0.55178 0.0
C325 C 1.00677 0.09896 0.55571 0.0
C326 C 1.00285 0.07739 0.54847 0.0
Zn327 Zn 0.01343 0.03512 0.52384 0.0
C328 C 0.96825 0.03756 0.49895 0.0
N329 N 1.00147 0.97341 0.49273 0.0
C330 C 0.01833 0.96035 0.48249 0.0
C331 C 0.97972 0.96637 0.49548 0.0
C332 C 0.97435 0.94527 0.48834 0.0
C333 C 0.99152 0.93111 0.47829 0.0
C334 C 0.01371 0.93896 0.47513 0.0
Zn335 Zn 1.00816 1.00323 0.50669 0.0
O336 O 0.02967 0.04561 0.49374 0.0
C337 C 0.05336 1.00085 0.53157 0.0
O338 O 0.02447 1.01408 0.47674 0.0
H339 H 0.96665 0.97688 0.5039 0.0
H340 H 0.05452 0.06263 0.52604 0.0
H341 H 0.03552 0.9663 0.48053 0.0
O342 O 0.04615 0.02083 0.53607 0.0
O343 O 0.04095 0.98924 0.51914 0.0
H344 H 0.98598 0.07083 0.55076 0.0
O345 O 0.99195 0.99271 0.53683 0.0
O346 O 0.9971 0.02427 0.55377 0.0
O347 O 0.9755 0.01761 0.49443 0.0
O348 O 0.98062 0.04914 0.51142 0.0
C349 C 0.98973 1.00469 0.55417 0.0
H350 H 0.06289 0.10022 0.53845 0.0
H351 H 0.9928 0.10894 0.56351 0.0
H352 H 0.95715 0.93977 0.49153 0.0
H353 H 0.0274 0.92858 0.46736 0.0
C354 C 0.55254 1.00247 1.00069 0.0
N355 N 0.51968 0.06693 0.99464 0.0
C356 C 0.54158 0.07369 0.99731 0.0
C357 C 0.54703 0.09488 0.99045 0.0
C358 C 0.52978 0.10942 0.98079 0.0
C359 C 0.50745 0.10184 0.97763 0.0
C360 C 0.50275 0.08034 0.98468 0.0
Zn361 Zn 0.51286 0.0371 1.00858 0.0
C362 C 0.48867 1.00702 0.97838 0.0
N363 N 0.50105 0.97535 0.03982 0.0
C364 C 0.51807 0.9625 0.05029 0.0
C365 C 0.47932 0.96818 0.03715 0.0
C366 C 0.47413 0.94711 0.04464 0.0
C367 C 0.49148 0.93317 0.05495 0.0
C368 C 0.51364 0.94118 0.058 0.0
Zn369 Zn 0.50771 1.00513 0.02573 0.0
O370 O 0.54527 0.02247 0.99621 0.0
C371 C 0.53193 0.03516 0.05593 0.0
O372 O 0.54033 0.99086 1.01324 0.0
H373 H 0.46612 0.97858 0.02859 0.0
H374 H 0.5547 0.06292 1.00553 0.0
H375 H 0.53523 0.96857 0.0522 0.0
O376 O 0.52961 0.04725 0.03861 0.0
O377 O 0.52441 0.01565 0.05556 0.0
H378 H 0.48545 0.07462 0.98279 0.0
O379 O 0.47521 0.01973 0.03805 0.0
O380 O 0.4803 0.05135 0.02108 0.0
O381 O 0.49109 0.99492 0.9957 0.0
O382 O 0.49605 0.0266 0.97876 0.0
C383 C 0.46801 0.03976 0.03357 0.0
H384 H 0.56435 0.10016 0.99363 0.0
H385 H 0.4937 0.11251 0.97015 0.0
H386 H 0.45694 0.94148 0.04157 0.0
H387 H 0.52745 0.93098 0.06599 0.0
C388 C 0.52736 0.47906 0.50009 0.0
N389 N 0.52645 0.5032 0.56557 0.0
C390 C 0.52129 0.48264 0.57291 0.0
C391 C 0.52695 0.47593 0.59452 0.0
C392 C 0.53802 0.49053 0.60868 0.0
C393 C 0.54351 0.51148 0.60049 0.0
C394 C 0.53753 0.51751 0.5788 0.0
Zn395 Zn 0.51635 0.51359 0.53471 0.0
C396 C 0.55356 0.53636 0.51146 0.0
N397 N 0.49484 0.53651 0.47078 0.0
C398 C 0.48447 0.52177 0.45747 0.0
C399 C 0.49959 0.55716 0.46336 0.0
C400 C 0.49436 0.56347 0.44153 0.0
C401 C 0.48429 0.54831 0.42726 0.0
C402 C 0.47905 0.52734 0.43556 0.0
Zn403 Zn 0.50484 0.52626 0.50169 0.0
O404 O 0.52888 0.48203 0.5209 0.0
C405 C 0.46767 0.5033 0.52466 0.0
O406 O 0.51814 0.49481 0.48819 0.0
H407 H 0.50792 0.56857 0.47423 0.0
H408 H 0.51249 0.47154 0.56208 0.0
H409 H 0.48079 0.50546 0.46373 0.0
O410 O 0.48317 0.50114 0.53968 0.0
O411 O 0.47218 0.51318 0.50671 0.0
H412 H 0.54139 0.53381 0.57263 0.0
O413 O 0.49176 0.55759 0.51558 0.0
O414 O 0.50367 0.54529 0.54814 0.0
O415 O 0.53764 0.53916 0.49692 0.0
O416 O 0.54943 0.52607 0.52928 0.0
C417 C 0.49389 0.56081 0.5363 0.0
H418 H 0.52266 0.45951 0.6001 0.0
H419 H 0.55177 0.52337 0.61092 0.0
H420 H 0.49882 0.57975 0.4357 0.0
H421 H 0.47097 0.5153 0.42517 0.0
C422 C 0.99288 0.56109 0.99849 0.0
N423 N 0.99069 0.53449 0.06312 0.0
C424 C 0.99455 0.55512 0.07114 0.0
C425 C 0.98778 0.56102 0.09261 0.0
C426 C 0.97706 0.54549 0.10594 0.0
C427 C 0.97289 0.52449 0.09707 0.0
C428 C 0.97984 0.51933 0.0755 0.0
Zn429 Zn 1.00263 0.52537 0.03261 0.0
C430 C 0.96686 0.50315 1.00626 0.0
N431 N 0.02786 0.50525 0.96928 0.0
C432 C 0.04021 0.5204 0.95838 0.0
C433 C 0.02299 0.48555 0.95972 0.0
C434 C 0.0303 0.48068 0.93813 0.0
C435 C 0.04276 0.49623 0.92637 0.0
C436 C 0.04795 0.51617 0.93693 0.0
Zn437 Zn 0.01572 0.51392 0.99986 0.0
O438 O 0.98996 0.55719 0.01899 0.0
C439 C 0.05145 0.53622 0.02625 0.0
O440 O 1.00332 0.54601 0.98675 0.0
H441 H 0.01309 0.47379 0.96869 0.0
H442 H 1.0033 0.56686 0.06103 0.0
H443 H 0.04384 0.53599 0.96624 0.0
O444 O 0.03495 0.53836 0.04007 0.0
O445 O 0.04812 0.52656 1.00792 0.0
H446 H 0.97689 0.50305 0.06876 0.0
O447 O 0.02787 0.48185 1.01329 0.0
O448 O 0.01559 0.49349 0.04581 0.0
O449 O 0.98322 0.50145 0.99224 0.0
O450 O 0.97034 0.51227 0.02486 0.0
C451 C 0.02552 0.47821 0.03393 0.0
H452 H 0.99152 0.57732 0.09892 0.0
H453 H 0.96441 0.51215 0.10672 0.0
H454 H 0.02577 0.46517 0.93056 0.0
H455 H 0.05789 0.52844 0.92869 0.0
H456 H 0.09815 0.10013 0.28147 0.0
H457 H 0.08444 0.08079 0.31425 0.0
H458 H 0.10711 0.13357 0.35583 0.0
H459 H 0.12115 0.15283 0.32333 0.0
H460 H 0.10765 0.06498 0.35328 0.0
H461 H 0.0388 0.13055 0.37324 0.0
H462 H 0.05336 0.1293 0.34684 0.0
H463 H 0.06725 0.14076 0.37059 0.0
C464 C 0.10049 0.10756 0.29758 0.0
C465 C 0.11064 0.12828 0.29953 0.0
C466 C 0.0925 0.09649 0.31636 0.0
C467 C 0.09427 0.10587 0.33758 0.0
C468 C 0.10495 0.1262 0.33966 0.0
H469 H 0.05211 0.07353 0.47152 0.0
H470 H 0.06764 0.08965 0.43793 0.0
C471 C 0.11298 0.13724 0.32094 0.0
C472 C 0.08495 0.09453 0.35753 0.0
H473 H 0.04626 0.10205 0.40009 0.0
C474 C 0.09413 0.07303 0.36345 0.0
C475 C 0.06729 0.10495 0.3709 0.0
C476 C 0.05591 0.12757 0.36502 0.0
C477 C 0.08667 0.06201 0.3826 0.0
C478 C 0.06908 0.07251 0.39606 0.0
C479 C 0.05976 0.09392 0.38996 0.0
C480 C 0.06032 0.06189 0.41672 0.0
C481 C 0.0983 0.03954 0.38859 0.0
C482 C 0.05085 0.04081 0.41626 0.0
C483 C 0.04205 0.03141 0.43562 0.0
C484 C 0.04221 0.04296 0.4559 0.0
C485 C 0.05168 0.06406 0.45629 0.0
C486 C 0.06056 0.07337 0.437 0.0
H487 H 0.11553 0.03683 0.38055 0.0
H488 H 0.10067 0.0378 0.40678 0.0
H489 H 0.08727 0.02618 0.38282 0.0
H490 H 0.04983 0.03176 0.40084 0.0
H491 H 0.03472 0.01525 0.43458 0.0
H492 H 0.41193 0.95029 0.78443 0.0
H493 H 0.42839 0.9669 0.81747 0.0
H494 H 0.4176 0.90693 0.8545 0.0
H495 H 0.40185 0.88989 0.82137 0.0
H496 H 0.40827 0.97617 0.85792 0.0
H497 H 0.48491 0.91657 0.86928 0.0
H498 H 0.46794 0.91791 0.84406 0.0
H499 H 0.45791 0.90332 0.86789 0.0
C500 C 0.41342 0.94041 0.79946 0.0
C501 C 0.40562 0.91859 0.80002 0.0
C502 C 0.42268 0.95006 0.81846 0.0
C503 C 0.42461 0.93814 0.83853 0.0
C504 C 0.41678 0.9164 0.83919 0.0
H505 H 0.47128 0.96591 0.97257 0.0
H506 H 0.45545 0.95022 0.93879 0.0
C507 C 0.40749 0.90674 0.82021 0.0
C508 C 0.43415 0.94867 0.85885 0.0
H509 H 0.47642 0.94193 0.89876 0.0
C510 C 0.42327 0.96874 0.86676 0.0
C511 C 0.45373 0.93905 0.87051 0.0
C512 C 0.46697 0.91814 0.86242 0.0
C513 C 0.43101 0.9791 0.88616 0.0
C514 C 0.45051 0.96941 0.89788 0.0
C515 C 0.46146 0.9494 0.8899 0.0
C516 C 0.45967 0.97952 0.9186 0.0
C517 C 0.41778 1.0 0.89426 0.0
C518 C 0.46751 1.00128 0.91868 0.0
C519 C 0.47656 1.01039 0.93808 0.0
C520 C 0.47815 0.9979 0.95788 0.0
C521 C 0.47029 0.97611 0.95772 0.0
C522 C 0.46126 0.96705 0.93834 0.0
H523 H 0.39999 1.00183 0.88708 0.0
H524 H 0.41642 0.99998 0.9126 0.0
H525 H 0.42711 0.0148 0.88923 0.0
H526 H 0.46699 1.01114 0.90361 0.0
H527 H 0.48259 0.02712 0.93747 0.0
H528 H 0.57129 0.40555 0.80216 0.0
H529 H 0.56388 0.41628 0.7636 0.0
H530 H 0.57455 0.48496 0.77963 0.0
H531 H 0.58127 0.47449 0.81848 0.0
H532 H 0.53555 0.47955 0.75269 0.0
H533 H 0.61426 0.43308 0.71985 0.0
H534 H 0.59609 0.41629 0.73619 0.0
H535 H 0.61028 0.43883 0.74897 0.0
C536 C 0.57175 0.42299 0.79757 0.0
C537 C 0.57691 0.43918 0.81337 0.0
C538 C 0.56781 0.42904 0.77548 0.0
C539 C 0.5691 0.45132 0.76875 0.0
C540 C 0.57369 0.46763 0.78452 0.0
H541 H 0.57723 0.49769 0.63269 0.0
H542 H 0.58472 0.48904 0.6718 0.0
C543 C 0.57764 0.46161 0.80664 0.0
C544 C 0.5655 0.45761 0.74525 0.0
H545 H 0.58662 0.4476 0.69329 0.0
C546 C 0.54675 0.47266 0.73968 0.0
C547 C 0.58038 0.44883 0.72842 0.0
C548 C 0.60152 0.43352 0.73361 0.0
C549 C 0.54212 0.47877 0.71759 0.0
C550 C 0.55644 0.46926 0.70068 0.0
C551 C 0.57553 0.45464 0.7063 0.0
C552 C 0.5519 0.4743 0.67703 0.0
C553 C 0.52211 0.4955 0.71255 0.0
C554 C 0.53115 0.46852 0.667 0.0
C555 C 0.52676 0.47354 0.64473 0.0
C556 C 0.54314 0.48432 0.63206 0.0
C557 C 0.56414 0.48967 0.64209 0.0
C558 C 0.5685 0.48464 0.66437 0.0
H559 H 0.51682 0.50545 0.7274 0.0
H560 H 0.52667 0.50713 0.69915 0.0
H561 H 0.50694 0.48648 0.70695 0.0
H562 H 0.51831 0.46016 0.67642 0.0
H563 H 0.51035 0.46937 0.63756 0.0
H564 H 0.9724 0.58912 0.31421 0.0
H565 H 0.97969 0.57881 0.27552 0.0
H566 H 0.90655 0.58971 0.26091 0.0
H567 H 0.89912 0.5999 0.29951 0.0
H568 H 0.92589 0.55092 0.24256 0.0
H569 H 0.97878 0.62271 0.22375 0.0
H570 H 0.9894 0.60606 0.24685 0.0
H571 H 0.96158 0.62131 0.24853 0.0
C572 C 0.9579 0.58937 0.30272 0.0
C573 C 0.9352 0.59537 0.30985 0.0
C574 C 0.96209 0.58354 0.28064 0.0
C575 C 0.9437 0.58388 0.26532 0.0
C576 C 0.92098 0.5894 0.27249 0.0
H577 H 0.95651 0.58445 0.12213 0.0
H578 H 0.94742 0.59348 0.16079 0.0
C579 C 0.91676 0.59512 0.29456 0.0
C580 C 0.94806 0.57848 0.24176 0.0
H581 H 0.97739 0.59469 0.19614 0.0
C582 C 0.9371 0.5605 0.23237 0.0
C583 C 0.96239 0.59127 0.22846 0.0
C584 C 0.97355 0.61155 0.23731 0.0
C585 C 0.94038 0.55472 0.21006 0.0
C586 C 0.95538 0.567 0.19698 0.0
C587 C 0.96605 0.5852 0.20628 0.0
C588 C 0.96031 0.56126 0.1736 0.0
C589 C 0.92746 0.53576 0.20063 0.0
C590 C 0.97073 0.54024 0.16808 0.0
C591 C 0.9759 0.53504 0.14607 0.0
C592 C 0.97095 0.55088 0.1292 0.0
C593 C 0.96065 0.57198 0.1348 0.0
C594 C 0.95538 0.57712 0.15682 0.0
H595 H 0.91204 0.53237 0.21075 0.0
H596 H 0.92165 0.53945 0.18337 0.0
H597 H 0.93917 0.52034 0.20048 0.0
H598 H 0.97522 0.52797 0.18085 0.0
H599 H 0.98425 0.5188 0.14231 0.0
H600 H 0.28667 0.15206 0.11648 0.0
H601 H 0.3205 0.13774 0.09512 0.0
H602 H 0.31679 0.07321 0.12606 0.0
H603 H 0.28273 0.08712 0.1469 0.0
H604 H 0.36358 0.12005 0.11022 0.0
H605 H 0.32056 0.05663 0.06088 0.0
H606 H 0.30441 0.07839 0.07597 0.0
H607 H 0.31631 0.05377 0.09014 0.0
C608 C 0.29283 0.13472 0.11852 0.0
C609 C 0.28183 0.1208 0.13349 0.0
C610 C 0.31231 0.12659 0.10638 0.0
C611 C 0.32111 0.10426 0.10869 0.0
C612 C 0.31017 0.09036 0.12361 0.0
H613 H 0.43812 0.0196 0.06135 0.0
H614 H 0.40284 0.03609 0.07871 0.0
C615 C 0.29079 0.09847 0.13576 0.0
C616 C 0.34211 0.09562 0.09612 0.0
H617 H 0.36198 0.05433 0.06061 0.0
C618 C 0.36317 0.10582 0.0992 0.0
C619 C 0.3417 0.077 0.08173 0.0
C620 C 0.31949 0.06592 0.07677 0.0
C621 C 0.38386 0.0975 0.08894 0.0
C622 C 0.38351 0.07867 0.0748 0.0
C623 C 0.36237 0.06869 0.07147 0.0
C624 C 0.40494 0.06872 0.06375 0.0
C625 C 0.40609 0.10849 0.09399 0.0
C626 C 0.41784 0.08136 0.04916 0.0
C627 C 0.43812 0.07196 0.03918 0.0
C628 C 0.44595 0.0496 0.04343 0.0
C629 C 0.43273 0.03686 0.05769 0.0
C630 C 0.41248 0.04628 0.06765 0.0
H631 H 0.40465 0.11874 0.10929 0.0
H632 H 0.42088 0.09584 0.09598 0.0
H633 H 0.41007 0.11971 0.08007 0.0
H634 H 0.41218 0.09854 0.04542 0.0
H635 H 0.44773 0.08227 0.02822 0.0
H636 H 0.25873 0.93086 0.60438 0.0
H637 H 0.22433 0.9496 0.587 0.0
H638 H 0.18024 0.9114 0.62787 0.0
H639 H 0.21447 0.89324 0.64592 0.0
H640 H 0.19012 0.93214 0.56273 0.0
H641 H 0.15143 0.97396 0.63669 0.0
H642 H 0.18079 0.96161 0.63651 0.0
H643 H 0.15671 0.94435 0.64035 0.0
C644 C 0.24174 0.92673 0.61003 0.0
C645 C 0.23953 0.91053 0.62671 0.0
C646 C 0.22203 0.93735 0.59989 0.0
C647 C 0.19957 0.93219 0.60626 0.0
C648 C 0.19729 0.91606 0.6229 0.0
H649 H 0.07175 0.95749 0.52907 0.0
H650 H 0.10728 0.9412 0.5466 0.0
C651 C 0.21697 0.90545 0.63306 0.0
C652 C 0.17861 0.94311 0.595 0.0
H653 H 0.12733 0.97339 0.60456 0.0
C654 C 0.17645 0.94125 0.57188 0.0
C655 C 0.16083 0.9553 0.60681 0.0
C656 C 0.1626 0.95915 0.63142 0.0
C657 C 0.15692 0.9508 0.56038 0.0
C658 C 0.1387 0.96222 0.5723 0.0
C659 C 0.14108 0.96446 0.59537 0.0
C660 C 0.11714 0.97216 0.56123 0.0
C661 C 0.15625 0.9489 0.53548 0.0
C662 C 0.11036 0.99494 0.56395 0.0
C663 C 0.08988 1.00427 0.55412 0.0
C664 C 0.07558 0.99105 0.54134 0.0
C665 C 0.0824 0.96825 0.53861 0.0
C666 C 0.10285 0.95891 0.54854 0.0
H667 H 0.17395 0.94576 0.52851 0.0
H668 H 0.14592 0.93463 0.5308 0.0
H669 H 0.14806 0.96431 0.52777 0.0
H670 H 0.12097 1.00555 0.5737 0.0
H671 H 0.0852 0.02187 0.55665 0.0
H672 H 0.77439 0.45865 0.91492 0.0
H673 H 0.81395 0.46445 0.92736 0.0
H674 H 0.78938 0.47441 0.99417 0.0
H675 H 0.7497 0.46859 0.98185 0.0
H676 H 0.83041 0.50176 0.9474 0.0
H677 H 0.84322 0.42731 1.0021 0.0
H678 H 0.81975 0.43056 0.98222 0.0
H679 H 0.81782 0.44509 1.00822 0.0
C680 C 0.77738 0.4622 0.93224 0.0
C681 C 0.75895 0.46316 0.94743 0.0
C682 C 0.8 0.46538 0.93933 0.0
C683 C 0.80462 0.4695 0.96173 0.0
C684 C 0.78625 0.47071 0.97691 0.0
H685 H 0.9284 0.50369 0.0326 0.0
H686 H 0.8891 0.49467 0.0219 0.0
C687 C 0.76361 0.46745 0.96984 0.0
C688 C 0.82859 0.47326 0.96897 0.0
H689 H 0.87256 0.45337 1.00317 0.0
C690 C 0.83967 0.49113 0.95951 0.0
C691 C 0.84057 0.45936 0.9848 0.0
C692 C 0.82985 0.43938 0.99481 0.0
C693 C 0.86235 0.49564 0.96567 0.0
C694 C 0.87432 0.48174 0.98148 0.0
C695 C 0.86326 0.46394 0.99103 0.0
C696 C 0.89835 0.48559 0.9883 0.0
C697 C 0.87323 0.51547 0.95551 0.0
C698 C 0.91657 0.48288 0.97307 0.0
C699 C 0.93902 0.48796 0.9791 0.0
C700 C 0.9436 0.49584 1.0005 0.0
C701 C 0.92542 0.49777 0.01596 0.0
C702 C 0.90298 0.4926 1.00991 0.0
H703 H 0.8601 0.52715 0.94734 0.0
H704 H 0.88261 0.52478 0.96827 0.0
H705 H 0.88601 0.50949 0.94283 0.0
H706 H 0.91332 0.47716 0.9564 0.0
H707 H 0.95265 0.48619 0.96684 0.0
H708 H 0.76709 0.54006 0.45699 0.0
H709 H 0.72776 0.53401 0.46981 0.0
H710 H 0.71096 0.60517 0.46881 0.0
H711 H 0.75021 0.61136 0.45605 0.0
H712 H 0.69519 0.58429 0.50661 0.0
H713 H 0.67003 0.5405 0.43009 0.0
H714 H 0.69575 0.52827 0.44335 0.0
H715 H 0.69581 0.55596 0.43184 0.0
C716 C 0.75498 0.5544 0.45945 0.0
C717 C 0.76169 0.57617 0.45541 0.0
C718 C 0.73255 0.55092 0.46675 0.0
C719 C 0.71639 0.56913 0.4699 0.0
C720 C 0.7232 0.5909 0.46643 0.0
H721 H 0.5673 0.56084 0.47625 0.0
H722 H 0.60669 0.57056 0.46736 0.0
C723 C 0.74564 0.5944 0.45923 0.0
C724 C 0.69225 0.56551 0.47648 0.0
H725 H 0.64348 0.54071 0.45992 0.0
C726 C 0.68382 0.57481 0.49642 0.0
C727 C 0.67741 0.55344 0.46294 0.0
C728 C 0.68508 0.54414 0.44076 0.0
C729 C 0.66099 0.57205 0.50336 0.0
C730 C 0.64641 0.55935 0.49015 0.0
C731 C 0.65476 0.55032 0.47008 0.0
C732 C 0.62239 0.55514 0.49671 0.0
C733 C 0.65257 0.58306 0.52453 0.0
C734 C 0.61816 0.54341 0.51626 0.0
C735 C 0.59563 0.53793 0.52146 0.0
C736 C 0.57701 0.54387 0.50705 0.0
C737 C 0.58127 0.55599 0.48769 0.0
C738 C 0.60376 0.56155 0.48257 0.0
H739 H 0.66336 0.59699 0.52932 0.0
H740 H 0.6342 0.58965 0.52294 0.0
H741 H 0.65367 0.57053 0.53812 0.0
H742 H 0.63236 0.53791 0.52717 0.0
H743 H 0.59295 0.52848 0.53644 0.0
H744 H 0.11395 0.31192 0.15293 0.0
H745 H 0.09563 0.34638 0.13713 0.0
H746 H 0.08768 0.31316 0.07459 0.0
H747 H 0.1047 0.27846 0.09049 0.0
H748 H 0.10898 0.37221 0.10431 0.0
H749 H 0.02378 0.3418 0.08076 0.0
H750 H 0.04411 0.32578 0.09827 0.0
H751 H 0.04734 0.32524 0.06861 0.0
C752 C 0.10785 0.31174 0.13595 0.0
C753 C 0.1109 0.29216 0.12311 0.0
C754 C 0.09753 0.33161 0.12684 0.0
C755 C 0.08985 0.33249 0.10467 0.0
C756 C 0.09286 0.31299 0.09184 0.0
H757 H 0.04251 0.43965 1.01329 0.0
H758 H 0.05791 0.40462 0.03061 0.0
C759 C 0.10302 0.29311 0.10095 0.0
C760 C 0.0796 0.35392 0.0947 0.0
H761 H 0.03303 0.37682 0.06509 0.0
C762 C 0.09227 0.37319 0.09592 0.0
C763 C 0.05773 0.35545 0.0837 0.0
C764 C 0.04235 0.33602 0.08294 0.0
C765 C 0.084 0.39358 0.08612 0.0
C766 C 0.06243 0.39491 0.07476 0.0
C767 C 0.04966 0.37577 0.07362 0.0
C768 C 0.05276 0.41614 0.06423 0.0
C769 C 0.09856 0.41354 0.08761 0.0
C770 C 0.04446 0.43424 0.07732 0.0
C771 C 0.03544 0.45421 0.06748 0.0
C772 C 0.03464 0.45667 0.04426 0.0
C773 C 0.04289 0.43844 0.03119 0.0
C774 C 0.05169 0.41836 0.04107 0.0
H775 H 0.11638 0.40896 0.09386 0.0
H776 H 0.09979 0.42162 0.07112 0.0
H777 H 0.09014 0.42603 0.09904 0.0
H778 H 0.04492 0.43289 0.09521 0.0
H779 H 0.02928 0.46782 0.07813 0.0
H780 H 0.569 0.31951 0.9866 0.0
H781 H 0.55221 0.28295 0.98721 0.0
H782 H 0.61918 0.25096 0.97144 0.0
H783 H 0.63604 0.28727 0.97085 0.0
H784 H 0.55039 0.2524 0.95296 0.0
H785 H 0.59952 0.21496 0.02444 0.0
H786 H 0.59822 0.24455 0.01855 0.0
H787 H 0.61802 0.22568 1.00369 0.0
C788 C 0.58015 0.30464 0.98343 0.0
C789 C 0.60388 0.30623 0.97888 0.0
C790 C 0.57055 0.28381 0.98379 0.0
C791 C 0.58453 0.26426 0.97968 0.0
C792 C 0.60821 0.2658 0.9752 0.0
H793 H 0.56891 0.12428 0.96185 0.0
H794 H 0.58025 0.16286 0.95999 0.0
C795 C 0.61783 0.28656 0.97492 0.0
C796 C 0.57429 0.24226 0.97919 0.0
H797 H 0.57994 0.18979 1.00137 0.0
C798 C 0.55664 0.23876 0.9637 0.0
C799 C 0.58247 0.22455 0.99327 0.0
C800 C 0.60043 0.22765 1.01108 0.0
C801 C 0.5475 0.21772 0.96142 0.0
C802 C 0.55622 0.19991 0.97504 0.0
C803 C 0.5735 0.20352 0.99081 0.0
C804 C 0.54789 0.17722 0.97323 0.0
C805 C 0.52909 0.21442 0.94413 0.0
C806 C 0.52575 0.1727 0.98084 0.0
C807 C 0.51927 0.15066 0.9821 0.0
C808 C 0.53492 0.13284 0.97584 0.0
C809 C 0.55661 0.13762 0.9671 0.0
C810 C 0.56308 0.15962 0.96593 0.0
H811 H 0.52662 0.22899 0.93276 0.0
H812 H 0.53371 0.19921 0.93423 0.0
H813 H 0.51231 0.21197 0.95243 0.0
H814 H 0.51393 0.18611 0.98678 0.0
H815 H 0.50256 0.14751 0.98915 0.0
H816 H 0.9532 0.72063 0.47834 0.0
H817 H 0.97018 0.7571 0.4791 0.0
H818 H 0.90245 0.78978 0.46707 0.0
H819 H 0.88541 0.75354 0.46638 0.0
H820 H 0.97021 0.78926 0.44603 0.0
H821 H 0.92507 0.82319 0.52066 0.0
H822 H 0.92601 0.79392 0.51356 0.0
H823 H 0.90543 0.81347 0.50022 0.0
C824 C 0.94195 0.73562 0.47597 0.0
C825 C 0.91794 0.73426 0.47252 0.0
C826 C 0.95165 0.7564 0.47642 0.0
C827 C 0.93751 0.77612 0.47349 0.0
C828 C 0.91358 0.77479 0.46994 0.0
H829 H 0.95213 0.91657 0.45927 0.0
H830 H 0.94105 0.87798 0.45645 0.0
C831 C 0.90386 0.75407 0.46958 0.0
C832 C 0.94774 0.79813 0.47346 0.0
H833 H 0.94338 0.84947 0.49788 0.0
C834 C 0.96456 0.80237 0.4575 0.0
C835 C 0.94038 0.81513 0.48853 0.0
C836 C 0.92341 0.81116 0.50685 0.0
C837 C 0.97362 0.8235 0.45576 0.0
C838 C 0.96564 0.84063 0.47035 0.0
C839 C 0.94923 0.83626 0.48658 0.0
C840 C 0.97378 0.86342 0.46905 0.0
C841 C 0.99113 0.82766 0.43801 0.0
C842 C 0.99603 0.86784 0.47662 0.0
C843 C 1.00236 0.88989 0.47846 0.0
C844 C 0.98645 0.9078 0.4728 0.0
C845 C 0.96463 0.90315 0.46407 0.0
C846 C 0.95831 0.88115 0.46234 0.0
H847 H 0.99344 0.81343 0.42631 0.0
H848 H 0.98566 0.84303 0.42854 0.0
H849 H 1.00817 0.83035 0.44585 0.0
H850 H 1.00808 0.85431 0.48209 0.0
H851 H 0.01919 0.89293 0.48547 0.0
H852 H 0.44048 0.76103 0.61104 0.0
H853 H 0.454 0.72689 0.59164 0.0
H854 H 0.40799 0.68899 0.6307 0.0
H855 H 0.39441 0.72304 0.65023 0.0
H856 H 0.47609 0.68878 0.60772 0.0
H857 H 0.39294 0.66834 0.56871 0.0
H858 H 0.397 0.69517 0.58114 0.0
H859 H 0.3911 0.67157 0.5982 0.0
C860 C 0.4332 0.74545 0.61557 0.0
C861 C 0.41625 0.74494 0.63226 0.0
C862 C 0.44092 0.7259 0.60436 0.0
C863 C 0.43184 0.70529 0.60941 0.0
C864 C 0.41491 0.7047 0.62604 0.0
H865 H 0.49643 0.57305 0.57995 0.0
H866 H 0.48162 0.60798 0.59711 0.0
C867 C 0.40714 0.72426 0.63724 0.0
C868 C 0.44075 0.68439 0.59788 0.0
H869 H 0.42399 0.64021 0.56709 0.0
C870 C 0.46467 0.67823 0.59878 0.0
C871 C 0.42599 0.67065 0.5859 0.0
C872 C 0.40037 0.67684 0.5832 0.0
C873 C 0.47412 0.65864 0.5885 0.0
C874 C 0.45926 0.64448 0.57722 0.0
C875 C 0.4354 0.65087 0.57591 0.0
C876 C 0.46814 0.62304 0.56669 0.0
C877 C 0.50006 0.65348 0.58952 0.0
C878 C 0.46507 0.61946 0.54388 0.0
C879 C 0.47347 0.59937 0.53398 0.0
C880 C 0.485 0.58228 0.54668 0.0
C881 C 0.4878 0.58583 0.56957 0.0
C882 C 0.47942 0.60591 0.57943 0.0
H883 H 0.50947 0.66865 0.59321 0.0
H884 H 0.50415 0.64112 0.60292 0.0
H885 H 0.50666 0.64622 0.57369 0.0
H886 H 0.45633 0.63232 0.53367 0.0
H887 H 0.4709 0.59725 0.51635 0.0
H888 H 0.91531 0.94459 0.74829 0.0
H889 H 0.92909 0.96305 0.71507 0.0
H890 H 0.91967 0.90351 0.6771 0.0
H891 H 0.90601 0.88491 0.71016 0.0
H892 H 0.96647 0.95246 0.68842 0.0
H893 H 0.88579 0.95043 0.63855 0.0
H894 H 0.88657 0.94456 0.66788 0.0
H895 H 0.89632 0.92336 0.64839 0.0
C896 C 0.91619 0.93534 0.73291 0.0
C897 C 0.90931 0.91319 0.73207 0.0
C898 C 0.92402 0.946 0.71384 0.0
C899 C 0.92509 0.93491 0.69333 0.0
C900 C 0.91844 0.91275 0.69247 0.0
H901 H 0.97269 0.9634 0.56016 0.0
H902 H 0.95726 0.94754 0.59396 0.0
C903 C 0.91059 0.90209 0.71151 0.0
C904 C 0.93378 0.94622 0.67305 0.0
H905 H 0.9196 0.96048 0.61946 0.0
C906 C 0.95612 0.95436 0.67341 0.0
C907 C 0.9204 0.94878 0.65333 0.0
C908 C 0.89586 0.94152 0.652 0.0
C909 C 0.96563 0.96431 0.65459 0.0
C910 C 0.95232 0.96667 0.6348 0.0
C911 C 0.9299 0.95871 0.63451 0.0
C912 C 0.9615 0.97681 0.6141 0.0
C913 C 0.99018 0.97155 0.65588 0.0
C914 C 0.96875 0.9988 0.61382 0.0
C915 C 0.97766 1.00797 0.5944 0.0
C916 C 0.97941 0.99544 0.5747 0.0
C917 C 0.9717 0.9736 0.57495 0.0
C918 C 0.96282 0.96446 0.59434 0.0
H919 H 1.00001 0.96336 0.66988 0.0
H920 H 0.9997 0.96764 0.64029 0.0
H921 H 0.98972 0.98989 0.65849 0.0
H922 H 0.96746 1.00895 0.62862 0.0
H923 H 0.98328 0.02486 0.59488 0.0
H924 H 0.59921 0.10066 0.25094 0.0
H925 H 0.5866 0.08061 0.21817 0.0
H926 H 0.6079 0.1339 0.17639 0.0
H927 H 0.62138 0.15358 0.20886 0.0
H928 H 0.55337 0.09269 0.18765 0.0
H929 H 0.63789 0.08043 0.145 0.0
H930 H 0.63562 0.08928 0.17349 0.0
H931 H 0.63053 0.10921 0.15137 0.0
C932 C 0.60166 0.10796 0.23477 0.0
C933 C 0.61145 0.12882 0.23272 0.0
C934 C 0.59423 0.09651 0.21599 0.0
C935 C 0.59656 0.10549 0.19463 0.0
C936 C 0.60632 0.12628 0.19254 0.0
H937 H 0.55235 0.07493 0.06101 0.0
H938 H 0.56798 0.09073 0.09486 0.0
C939 C 0.61376 0.13771 0.21126 0.0
C940 C 0.58798 0.09361 0.17465 0.0
H941 H 0.60416 0.07383 0.12346 0.0
C942 C 0.56456 0.08837 0.17372 0.0
C943 C 0.60249 0.08789 0.15636 0.0
C944 C 0.62808 0.09178 0.15664 0.0
C945 C 0.55516 0.07829 0.15489 0.0
C946 C 0.56958 0.07297 0.13648 0.0
C947 C 0.59304 0.07795 0.13749 0.0
C948 C 0.5605 0.06279 0.1158 0.0
C949 C 0.52965 0.07409 0.15459 0.0
C950 C 0.55141 0.04157 0.11606 0.0
C951 C 0.5425 0.03239 0.09662 0.0
C952 C 0.54247 0.04423 0.07644 0.0
C953 C 0.55199 0.06531 0.07619 0.0
C954 C 0.56098 0.0744 0.09558 0.0
H955 H 0.51994 0.08361 0.16772 0.0
H956 H 0.52173 0.07869 0.13828 0.0
H957 H 0.52758 0.05603 0.15742 0.0
H958 H 0.55119 0.03207 0.13132 0.0
H959 H 0.5354 0.01612 0.09749 0.0
H960 H 0.47654 0.59358 0.21747 0.0
H961 H 0.48629 0.5819 0.25549 0.0
H962 H 0.41405 0.59129 0.27348 0.0
H963 H 0.40418 0.60288 0.23561 0.0
H964 H 0.47945 0.60613 0.29379 0.0
H965 H 0.43174 0.52879 0.29695 0.0
H966 H 0.43762 0.54283 0.2713 0.0
H967 H 0.41385 0.55294 0.28849 0.0
C968 C 0.46275 0.59308 0.22954 0.0
C969 C 0.43958 0.59899 0.22355 0.0
C970 C 0.46833 0.58636 0.25119 0.0
C971 C 0.45084 0.5854 0.26716 0.0
C972 C 0.42772 0.59137 0.26125 0.0
H973 H 0.4653 0.58758 0.4099 0.0
H974 H 0.45805 0.59661 0.3708 0.0
C975 C 0.42212 0.59799 0.23962 0.0
C976 C 0.45683 0.57911 0.29028 0.0
H977 H 0.44497 0.54261 0.3315 0.0
C978 C 0.47207 0.59215 0.30202 0.0
C979 C 0.44735 0.56071 0.30084 0.0
C980 C 0.43192 0.54537 0.28869 0.0
C981 C 0.47768 0.58758 0.32426 0.0
C982 C 0.4674 0.56977 0.33509 0.0
C983 C 0.4526 0.55642 0.3232 0.0
C984 C 0.47195 0.56453 0.35871 0.0
C985 C 0.49476 0.60168 0.33586 0.0
C986 C 0.48163 0.54335 0.36485 0.0
C987 C 0.48562 0.53812 0.38712 0.0
C988 C 0.47992 0.55397 0.40366 0.0
C989 C 0.47014 0.57516 0.39748 0.0
C990 C 0.46605 0.58035 0.37518 0.0
H991 H 0.50568 0.61033 0.32387 0.0
H992 H 0.48507 0.61464 0.34587 0.0
H993 H 0.50632 0.59136 0.34716 0.0
H994 H 0.48626 0.53092 0.35237 0.0
H995 H 0.49344 0.52175 0.39137 0.0
H996 H 0.1142 0.43258 0.73358 0.0
H997 H 0.09928 0.43788 0.7712 0.0
H998 H 0.10138 0.50927 0.7638 0.0
H999 H 0.1163 0.50414 0.72599 0.0
H1000 H 0.12326 0.46564 0.80713 0.0
H1001 H 0.0322 0.49336 0.7842 0.0
H1002 H 0.0507 0.47619 0.76611 0.0
H1003 H 0.05554 0.50524 0.7694 0.0
C1004 C 0.11129 0.44943 0.73989 0.0
C1005 C 0.11624 0.46798 0.72685 0.0
C1006 C 0.10291 0.45239 0.76137 0.0
C1007 C 0.09914 0.47393 0.77006 0.0
C1008 C 0.1041 0.49253 0.75719 0.0
H1009 H 0.04209 0.52624 0.89222 0.0
H1010 H 0.05618 0.5201 0.85459 0.0
C1011 C 0.11269 0.48957 0.73573 0.0
C1012 C 0.09034 0.47687 0.79279 0.0
H1013 H 0.04179 0.49278 0.82218 0.0
C1014 C 0.10546 0.47154 0.81052 0.0
C1015 C 0.06715 0.48459 0.79693 0.0
C1016 C 0.05029 0.49012 0.77823 0.0
C1017 C 0.09806 0.47413 0.8325 0.0
C1018 C 0.07474 0.48166 0.83672 0.0
C1019 C 0.05962 0.48692 0.81889 0.0
C1020 C 0.06589 0.48497 0.8595 0.0
C1021 C 0.11544 0.46937 0.85096 0.0
C1022 C 0.0663 0.46713 0.87463 0.0
C1023 C 0.05857 0.47066 0.89632 0.0
C1024 C 0.0501 0.49205 0.90315 0.0
C1025 C 0.04902 0.50968 0.88767 0.0
C1026 C 0.05687 0.50617 0.86609 0.0
H1027 H 0.13361 0.46957 0.84496 0.0
H1028 H 0.11294 0.48178 0.8645 0.0
H1029 H 0.11306 0.45252 0.85791 0.0
H1030 H 0.0727 0.45051 0.86971 0.0
H1031 H 0.05968 0.45674 0.90783 0.0
H1032 H 0.74028 0.95471 0.89058 0.0
H1033 H 0.70564 0.96867 0.91058 0.0
H1034 H 0.6973 0.90262 0.93647 0.0
H1035 H 0.73246 0.88861 0.91709 0.0
H1036 H 0.66066 0.95643 0.90663 0.0
H1037 H 0.69238 0.94025 0.99245 0.0
H1038 H 0.71161 0.9394 0.96894 0.0
H1039 H 0.6943 0.9162 0.97473 0.0
C1040 C 0.73138 0.94315 0.90081 0.0
C1041 C 0.73947 0.92049 0.90228 0.0
C1042 C 0.71138 0.95117 0.91213 0.0
C1043 C 0.69893 0.93684 0.92537 0.0
C1044 C 0.70679 0.91418 0.92676 0.0
H1045 H 0.57172 0.9593 1.00389 0.0
H1046 H 0.60676 0.94307 0.98567 0.0
C1047 C 0.72681 0.90611 0.91541 0.0
C1048 C 0.67741 0.94561 0.93708 0.0
H1049 H 0.65279 0.95273 0.98828 0.0
C1050 C 0.659 0.95566 0.92449 0.0
C1051 C 0.67506 0.94453 0.96041 0.0
C1052 C 0.69444 0.9347 0.97499 0.0
C1053 C 0.63837 0.96446 0.93448 0.0
C1054 C 0.63613 0.9637 0.95783 0.0
C1055 C 0.65443 0.9534 0.97042 0.0
C1056 C 0.6151 0.97375 0.96946 0.0
C1057 C 0.61896 0.97409 0.91979 0.0
C1058 C 0.60826 0.99655 0.9669 0.0
C1059 C 0.5882 1.00587 0.97725 0.0
C1060 C 0.57452 0.99268 0.99063 0.0
C1061 C 0.58175 0.96998 0.99368 0.0
C1062 C 0.60182 0.96065 0.98326 0.0
H1063 H 0.62052 0.96756 0.90263 0.0
H1064 H 0.60172 0.97027 0.92638 0.0
H1065 H 0.61974 0.99252 0.919 0.0
H1066 H 0.61846 1.00721 0.95685 0.0
H1067 H 0.58336 0.02344 0.97463 0.0
H1068 H 0.7791 0.08668 0.38967 0.0
H1069 H 0.814 0.07235 0.40945 0.0
H1070 H 0.82225 0.13776 0.43674 0.0
H1071 H 0.78683 0.15212 0.41758 0.0
H1072 H 0.85883 0.08508 0.40578 0.0
H1073 H 0.82788 0.09853 0.49188 0.0
H1074 H 0.80841 0.0999 0.46834 0.0
H1075 H 0.82556 0.12308 0.47471 0.0
C1076 C 0.78805 0.09801 0.40017 0.0
C1077 C 0.77987 0.12058 0.4021 0.0
C1078 C 0.80818 0.08979 0.41136 0.0
C1079 C 0.82067 0.10384 0.42491 0.0
C1080 C 0.81273 0.12642 0.42677 0.0
H1081 H 0.94887 0.08052 0.50274 0.0
H1082 H 0.91348 0.09686 0.48483 0.0
C1083 C 0.79257 0.13469 0.41556 0.0
C1084 C 0.84234 0.09489 0.43644 0.0
H1085 H 0.86752 0.08649 0.48751 0.0
C1086 C 0.86068 0.08535 0.42366 0.0
C1087 C 0.8449 0.09531 0.45979 0.0
C1088 C 0.82559 0.10456 0.47455 0.0
C1089 C 0.88146 0.07643 0.43347 0.0
C1090 C 0.88391 0.07655 0.45684 0.0
C1091 C 0.86569 0.08632 0.46963 0.0
C1092 C 0.90514 0.06641 0.46826 0.0
C1093 C 0.90078 0.06733 0.41863 0.0
C1094 C 0.91207 0.0437 0.46537 0.0
C1095 C 0.93233 0.03431 0.47555 0.0
C1096 C 0.9461 0.04735 0.48906 0.0
C1097 C 0.93878 0.06996 0.49242 0.0
C1098 C 0.91851 0.07935 0.48218 0.0
H1099 H 0.89893 0.07422 0.40157 0.0
H1100 H 0.91804 0.07121 0.42529 0.0
H1101 H 0.90023 0.0489 0.41756 0.0
H1102 H 0.90181 0.03317 0.45519 0.0
H1103 H 0.93726 0.01682 0.47269 0.0
H1104 H 0.26741 0.57578 0.05404 0.0
H1105 H 0.22829 0.56961 0.04025 0.0
H1106 H 0.20067 0.58125 0.10573 0.0
H1107 H 0.23958 0.58784 0.11955 0.0
H1108 H 0.19845 0.53663 0.0563 0.0
H1109 H 0.1591 0.62316 0.06512 0.0
H1110 H 0.19013 0.61677 0.06483 0.0
H1111 H 0.17376 0.61196 0.08942 0.0
C1112 C 0.25295 0.57724 0.06543 0.0
C1113 C 0.25653 0.5823 0.08787 0.0
C1114 C 0.23068 0.57364 0.05756 0.0
C1115 C 0.21164 0.57529 0.07193 0.0
C1116 C 0.21514 0.58026 0.09433 0.0
H1117 H 0.06575 0.55343 0.06552 0.0
H1118 H 0.10489 0.56349 0.07544 0.0
C1119 C 0.23739 0.58377 0.10223 0.0
C1120 C 0.18819 0.57093 0.06375 0.0
H1121 H 0.13327 0.59482 0.05726 0.0
C1122 C 0.18421 0.54936 0.0563 0.0
C1123 C 0.16973 0.58762 0.0639 0.0
C1124 C 0.17334 0.61125 0.07106 0.0
C1125 C 0.162 0.54382 0.04956 0.0
C1126 C 0.14347 0.56047 0.04985 0.0
C1127 C 0.14753 0.58212 0.05706 0.0
C1128 C 0.11961 0.55554 0.04331 0.0
C1129 C 0.15843 0.52002 0.04291 0.0
C1130 C 0.11485 0.54827 0.0218 0.0
C1131 C 0.09256 0.5424 0.0161 0.0
C1132 C 0.07459 0.54391 0.03179 0.0
C1133 C 0.07923 0.552 0.05309 0.0
C1134 C 0.10156 0.55778 0.05878 0.0
H1135 H 0.17285 0.50828 0.0488 0.0
H1136 H 0.14183 0.51447 0.04956 0.0
H1137 H 0.1577 0.51896 0.02458 0.0
H1138 H 0.12845 0.54692 1.00948 0.0
H1139 H 0.08949 0.53643 0.99949 0.0
H1140 H 0.25821 0.43819 0.52397 0.0
H1141 H 0.29735 0.44987 0.5161 0.0
H1142 H 0.31525 0.44323 0.58533 0.0
H1143 H 0.27637 0.43131 0.59328 0.0
H1144 H 0.31874 0.48788 0.53681 0.0
H1145 H 0.36811 0.40646 0.55173 0.0
H1146 H 0.33725 0.40863 0.54605 0.0
H1147 H 0.34794 0.4154 0.57303 0.0
C1148 C 0.27059 0.43901 0.53745 0.0
C1149 C 0.26426 0.43387 0.55924 0.0
C1150 C 0.29284 0.44575 0.53296 0.0
C1151 C 0.30916 0.44715 0.55012 0.0
C1152 C 0.30294 0.44197 0.57184 0.0
H1153 H 0.45064 0.48523 0.56241 0.0
H1154 H 0.4119 0.47186 0.56807 0.0
C1155 C 0.28069 0.43537 0.57637 0.0
C1156 C 0.3325 0.45479 0.54552 0.0
H1157 H 0.39016 0.43814 0.54696 0.0
C1158 C 0.33438 0.47701 0.53885 0.0
C1159 C 0.35277 0.44054 0.5484 0.0
C1160 C 0.35154 0.41636 0.55503 0.0
C1161 C 0.35616 0.48557 0.53543 0.0
C1162 C 0.37648 0.4713 0.53827 0.0
C1163 C 0.37454 0.44902 0.54481 0.0
C1164 C 0.39995 0.47923 0.53466 0.0
C1165 C 0.35721 0.50995 0.52948 0.0
C1166 C 0.40616 0.48745 0.5139 0.0
C1167 C 0.42819 0.49522 0.51064 0.0
C1168 C 0.44452 0.49466 0.52804 0.0
C1169 C 0.43843 0.48595 0.5487 0.0
C1170 C 0.41632 0.47829 0.55196 0.0
H1171 H 0.3409 0.51978 0.53389 0.0
H1172 H 0.37197 0.5174 0.53799 0.0
H1173 H 0.3597 0.51153 0.51135 0.0
H1174 H 0.39396 0.48781 0.50018 0.0
H1175 H 0.43242 0.50163 0.49447 0.0
H1176 H 0.89673 0.75397 0.94141 0.0
H1177 H 0.91466 0.71964 0.95756 0.0
H1178 H 0.93784 0.69794 0.8929 0.0
H1179 H 0.91988 0.7324 0.87657 0.0
H1180 H 0.90489 0.67654 0.94977 0.0
H1181 H 0.99704 0.68729 0.92885 0.0
H1182 H 0.97486 0.70984 0.92664 0.0
H1183 H 0.97772 0.68886 0.90542 0.0
C1184 C 0.90562 0.74193 0.93054 0.0
C1185 C 0.90671 0.74605 0.90759 0.0
C1186 C 0.91598 0.72227 0.93986 0.0
C1187 C 0.92789 0.70614 0.92658 0.0
C1188 C 0.92924 0.71025 0.90367 0.0
H1189 H 0.99495 0.57381 0.95486 0.0
H1190 H 0.97912 0.60859 0.93769 0.0
C1191 C 0.91891 0.73001 0.89431 0.0
C1192 C 0.93795 0.68477 0.93673 0.0
H1193 H 0.98847 0.6523 0.94417 0.0
C1194 C 0.9232 0.67132 0.94859 0.0
C1195 C 0.96184 0.67776 0.93521 0.0
C1196 C 0.97886 0.69176 0.92352 0.0
C1197 C 0.93151 0.65109 0.95865 0.0
C1198 C 0.95542 0.64416 0.9573 0.0
C1199 C 0.97017 0.65753 0.94531 0.0
C1200 C 0.96541 0.62308 0.96806 0.0
C1201 C 0.9144 0.63706 0.97019 0.0
C1202 C 0.96343 0.61959 0.99101 0.0
C1203 C 0.97242 0.59962 1.00092 0.0
C1204 C 0.98384 0.58266 0.98816 0.0
C1205 C 0.98623 0.5864 0.96526 0.0
C1206 C 0.97719 0.60635 0.95537 0.0
H1207 H 0.89631 0.64126 0.96444 0.0
H1208 H 0.91864 0.61896 0.96741 0.0
H1209 H 0.91507 0.64027 0.98827 0.0
H1210 H 0.95496 0.63238 1.00134 0.0
H1211 H 0.97038 0.59746 0.0186 0.0
H1212 H 0.38451 0.75808 0.07194 0.0
H1213 H 0.40329 0.79351 0.07189 0.0
H1214 H 0.46857 0.7588 0.05498 0.0
H1215 H 0.44979 0.72326 0.05452 0.0
H1216 H 0.44288 0.80353 0.09925 0.0
H1217 H 0.45976 0.81046 1.00886 0.0
H1218 H 0.43872 0.79239 0.01988 0.0
H1219 H 0.46919 0.78445 0.02197 0.0
C1220 C 0.40276 0.75802 0.06778 0.0
C1221 C 0.41565 0.7379 0.06308 0.0
C1222 C 0.41349 0.77823 0.06797 0.0
C1223 C 0.43724 0.77871 0.06333 0.0
C1224 C 0.45015 0.75874 0.05839 0.0
H1225 H 0.51928 0.8951 0.04846 0.0
H1226 H 0.50898 0.85646 0.05362 0.0
C1227 C 0.43944 0.73848 0.05825 0.0
C1228 C 0.4485 0.80014 0.06416 0.0
H1229 H 0.47299 0.83877 0.03173 0.0
C1230 C 0.44959 0.81123 0.08453 0.0
C1231 C 0.45736 0.80994 0.04495 0.0
C1232 C 0.45613 0.79885 0.0226 0.0
C1233 C 0.4591 0.83213 0.08616 0.0
C1234 C 0.46727 0.8423 0.06681 0.0
C1235 C 0.46676 0.83089 0.04655 0.0
C1236 C 0.47482 0.86543 0.06675 0.0
C1237 C 0.46032 0.84307 0.10857 0.0
C1238 C 0.45918 0.88323 0.0728 0.0
C1239 C 0.46508 0.90527 0.07006 0.0
C1240 C 0.48665 0.90993 0.06097 0.0
C1241 C 0.50265 0.89206 0.05574 0.0
C1242 C 0.49674 0.86999 0.05853 0.0
H1243 H 0.46069 0.83049 0.12214 0.0
H1244 H 0.47593 0.85292 0.11008 0.0
H1245 H 0.44466 0.85456 0.11086 0.0
H1246 H 0.44201 0.88012 0.07877 0.0
H1247 H 0.45247 0.91869 0.07442 0.0
H1248 H 0.08484 0.3105 0.56102 0.0
H1249 H 0.07354 0.27262 0.55324 0.0
H1250 H 0.04769 0.26728 0.61977 0.0
H1251 H 0.05933 0.30488 0.62789 0.0
H1252 H 0.0906 0.23358 0.57844 0.0
H1253 H 0.99423 0.24657 0.57936 0.0
H1254 H 0.013 0.26922 0.5753 0.0
H1255 H 0.00941 0.2578 0.60248 0.0
C1256 C 0.07671 0.30129 0.57399 0.0
C1257 C 0.07299 0.31072 0.59507 0.0
C1258 C 0.07016 0.27973 0.56947 0.0
C1259 C 0.05959 0.26733 0.58587 0.0
C1260 C 0.05543 0.27679 0.60679 0.0
H1261 H 0.0164 0.13061 0.58975 0.0
H1262 H 0.02396 0.16939 0.59877 0.0
C1263 C 0.06205 0.2983 0.61136 0.0
C1264 C 0.05435 0.24395 0.58157 0.0
H1265 H 0.00998 0.20923 0.57665 0.0
C1266 C 0.07299 0.22823 0.57796 0.0
C1267 C 0.03136 0.2371 0.58126 0.0
C1268 C 0.01077 0.25353 0.58464 0.0
C1269 C 0.06927 0.20569 0.57411 0.0
C1270 C 0.04624 0.19887 0.57335 0.0
C1271 C 0.0276 0.21456 0.57723 0.0
C1272 C 0.04121 0.17566 0.56784 0.0
C1273 C 0.09004 0.18934 0.57124 0.0
C1274 C 0.048 0.16659 0.54733 0.0
C1275 C 0.04377 0.14456 0.54218 0.0
C1276 C 0.03247 0.13122 0.55738 0.0
C1277 C 0.02512 0.14051 0.57772 0.0
C1278 C 0.02946 0.1626 0.5829 0.0
H1279 H 0.10602 0.19576 0.57855 0.0
H1280 H 0.08704 0.17296 0.579 0.0
H1281 H 0.09316 0.18659 0.55331 0.0
H1282 H 0.05653 0.1766 0.53525 0.0
H1283 H 0.04914 0.13803 0.52617 0.0
H1284 H 0.5823 0.27941 0.42484 0.0
H1285 H 0.56631 0.31396 0.44186 0.0
H1286 H 0.61832 0.35075 0.40948 0.0
H1287 H 0.635 0.31613 0.39303 0.0
H1288 H 0.61389 0.36237 0.45289 0.0
H1289 H 0.52665 0.36466 0.41379 0.0
H1290 H 0.53413 0.33909 0.42844 0.0
H1291 H 0.55051 0.34617 0.40443 0.0
C1292 C 0.59044 0.2948 0.42133 0.0
C1293 C 0.61 0.29481 0.40742 0.0
C1294 C 0.58105 0.31467 0.43092 0.0
C1295 C 0.59082 0.33515 0.42675 0.0
C1296 C 0.61032 0.33525 0.41288 0.0
H1297 H 0.52789 0.46811 0.45601 0.0
H1298 H 0.54354 0.43352 0.43875 0.0
C1299 C 0.61973 0.31539 0.40329 0.0
C1300 C 0.58122 0.35632 0.43735 0.0
H1301 H 0.53176 0.39054 0.44294 0.0
C1302 C 0.59594 0.36854 0.45065 0.0
C1303 C 0.55785 0.36464 0.43429 0.0
C1304 C 0.54141 0.3531 0.4193 0.0
C1305 C 0.58792 0.38854 0.46115 0.0
C1306 C 0.56436 0.39647 0.45867 0.0
C1307 C 0.54973 0.38442 0.44511 0.0
C1308 C 0.55471 0.41751 0.46948 0.0
C1309 C 0.60497 0.40124 0.4744 0.0
C1310 C 0.55539 0.4201 0.49262 0.0
C1311 C 0.54649 0.43998 0.50259 0.0
C1312 C 0.5365 0.45771 0.48967 0.0
C1313 C 0.53549 0.4549 0.46653 0.0
C1314 C 0.54442 0.43506 0.4566 0.0
H1315 H 0.62322 0.39646 0.46973 0.0
H1316 H 0.60174 0.41956 0.47207 0.0
H1317 H 0.60299 0.39738 0.49224 0.0
H1318 H 0.5627 0.40668 0.50304 0.0
H1319 H 0.54744 0.44143 0.52044 0.0
loop_
_geom_bond_atom_site_label_1
_geom_bond_atom_site_label_2
_geom_bond_distance
_geom_bond_site_symmetry_2
_ccdc_geom_bond_type
C0 C1 1.264 . S
C0 C5 1.479 . S
C0 C10 1.465 . S
C1 C0 1.264 . S
C1 C3 1.339 . S
C1 H28 0.931 . S
C2 C3 1.395 . S
C2 C4 1.320 . S
C3 C1 1.339 . S
C3 C2 1.395 . S
C3 H29 0.929 . S
C4 C2 1.320 . S
C4 C5 1.405 . S
C4 H30 0.930 . S
C5 C0 1.479 . S
C5 C4 1.405 . S
C5 H31 0.931 . S
U6 O7 2.454 . S
U6 O8 2.458 . S
U6 C9 2.984 . S
U6 C10 2.847 . S
U6 C23 2.882 . S
U6 O24 2.441 . S
U6 O25 2.420 . S
U6 O26 2.455 . S
U6 O27 2.449 . S
O7 U6 2.454 . S
O7 C9 1.353 . S
O8 U6 2.458 . S
O8 C9 1.286 . S
C9 U6 2.984 . S
C9 O7 1.353 . S
C9 O8 1.286 . S
C9 C11 1.363 . S
C10 C0 1.465 . S
C10 U6 2.847 . S
C10 O24 1.249 . S
C10 O25 1.202 . S
C11 C9 1.363 . S
C11 C13 1.408 . S
C11 C16 1.342 . S
C12 C13 1.310 . S
C12 C15 1.461 . S
C12 H32 0.932 . S
C13 C11 1.408 . S
C13 C12 1.310 . S
C13 H33 0.930 . S
C14 C15 1.474 . S
C14 C16 1.285 . S
C14 H34 0.929 . S
C15 C12 1.461 . S
C15 C14 1.474 . S
C16 C11 1.342 . S
C16 C14 1.285 . S
C16 H35 0.930 . S
C17 C20 1.424 . S
C17 C22 1.245 . S
C17 C23 1.428 . S
C18 C21 1.260 . S
C18 C22 1.477 . S
C18 H36 0.932 . S
C19 C20 1.384 . S
C19 C21 1.479 . S
C19 H37 0.929 . S
C20 C17 1.424 . S
C20 C19 1.384 . S
C20 H38 0.928 . S
C21 C18 1.260 . S
C21 C19 1.479 . S
C22 C17 1.245 . S
C22 C18 1.477 . S
C22 H39 0.932 . S
C23 U6 2.882 . S
C23 C17 1.428 . S
C23 O26 1.301 . S
C23 O27 1.282 . S
O24 U6 2.441 . S
O24 C10 1.249 . S
O25 U6 2.420 . S
O25 C10 1.202 . S
O26 U6 2.455 . S
O26 C23 1.301 . S
O27 U6 2.449 . S
O27 C23 1.282 . S
H28 C1 0.931 . S
H29 C3 0.929 . S
H30 C4 0.930 . S
H31 C5 0.931 . S
H32 C12 0.932 . S
H33 C13 0.930 . S
H34 C14 0.929 . S
H35 C16 0.930 . S
H36 C18 0.932 . S
H37 C19 0.929 . S
H38 C20 0.928 . S
H39 C22 0.932 . S
C40 C41 1.264 . S
C40 C45 1.479 . S
C40 C50 1.465 . S
C41 C40 1.264 . S
C41 C43 1.339 . S
C41 H68 0.931 . S
C42 C43 1.395 . S
C42 C44 1.320 . S
C43 C41 1.339 . S
C43 C42 1.395 . S
C43 H69 0.929 . S
C44 C42 1.320 . S
C44 C45 1.405 . S
C44 H70 0.930 . S
C45 C40 1.479 . S
C45 C44 1.405 . S
C45 H71 0.931 . S
U46 O47 2.454 . S
U46 O48 2.458 . S
U46 C49 2.984 . S
U46 C50 2.847 . S
U46 C63 2.882 . S
U46 O64 2.441 . S
U46 O65 2.420 . S
U46 O66 2.455 . S
U46 O67 2.449 . S
O47 U46 2.454 . S
O47 C49 1.353 . S
O48 U46 2.458 . S
O48 C49 1.286 . S
C49 U46 2.984 . S
C49 O47 1.353 . S
C49 O48 1.286 . S
C49 C51 1.363 . S
C50 C40 1.465 . S
C50 U46 2.847 . S
C50 O64 1.249 . S
C50 O65 1.202 . S
C51 C49 1.363 . S
C51 C53 1.408 . S
C51 C56 1.342 . S
C52 C53 1.310 . S
C52 C55 1.461 . S
C52 H72 0.932 . S
C53 C51 1.408 . S
C53 C52 1.310 . S
C53 H73 0.930 . S
C54 C55 1.474 . S
C54 C56 1.285 . S
C54 H74 0.929 . S
C55 C52 1.461 . S
C55 C54 1.474 . S
C56 C51 1.342 . S
C56 C54 1.285 . S
C56 H75 0.930 . S
C57 C60 1.424 . S
C57 C62 1.245 . S
C57 C63 1.428 . S
C58 C61 1.260 . S
C58 C62 1.477 . S
C58 H76 0.932 . S
C59 C60 1.384 . S
C59 C61 1.479 . S
C59 H77 0.929 . S
C60 C57 1.424 . S
C60 C59 1.384 . S
C60 H78 0.928 . S
C61 C58 1.260 . S
C61 C59 1.479 . S
C62 C57 1.245 . S
C62 C58 1.477 . S
C62 H79 0.932 . S
C63 U46 2.882 . S
C63 C57 1.428 . S
C63 O66 1.301 . S
C63 O67 1.282 . S
O64 U46 2.441 . S
O64 C50 1.249 . S
O65 U46 2.420 . S
O65 C50 1.202 . S
O66 U46 2.455 . S
O66 C63 1.301 . S
O67 U46 2.449 . S
O67 C63 1.282 . S
H68 C41 0.931 . S
H69 C43 0.929 . S
H70 C44 0.930 . S
H71 C45 0.931 . S
H72 C52 0.932 . S
H73 C53 0.930 . S
H74 C54 0.929 . S
H75 C56 0.930 . S
H76 C58 0.932 . S
H77 C59 0.929 . S
H78 C60 0.928 . S
H79 C62 0.932 . S
C80 C81 1.264 . S
C80 C85 1.479 . S
C80 C90 1.465 . S
C81 C80 1.264 . S
C81 C83 1.339 . S
C81 H108 0.931 . S
C82 C83 1.395 . S
C82 C84 1.320 . S
C83 C81 1.339 . S
C83 C82 1.395 . S
C83 H109 0.929 . S
C84 C82 1.320 . S
C84 C85 1.405 . S
C84 H110 0.930 . S
C85 C80 1.479 . S
C85 C84 1.405 . S
C85 H111 0.931 . S
U86 O87 2.454 . S
U86 O88 2.458 . S
U86 C89 2.984 . S
U86 C90 2.847 . S
U86 C103 2.882 . S
U86 O104 2.441 . S
U86 O105 2.420 . S
U86 O106 2.455 . S
U86 O107 2.449 . S
O87 U86 2.454 . S
O87 C89 1.353 . S
O88 U86 2.458 . S
O88 C89 1.286 . S
C89 U86 2.984 . S
C89 O87 1.353 . S
C89 O88 1.286 . S
C89 C91 1.363 . S
C90 C80 1.465 . S
C90 U86 2.847 . S
C90 O104 1.249 . S
C90 O105 1.202 . S
C91 C89 1.363 . S
C91 C93 1.408 . S
C91 C96 1.342 . S
C92 C93 1.310 . S
C92 C95 1.461 . S
C92 H112 0.932 . S
C93 C91 1.408 . S
C93 C92 1.310 . S
C93 H113 0.930 . S
C94 C95 1.474 . S
C94 C96 1.285 . S
C94 H114 0.929 . S
C95 C92 1.461 . S
C95 C94 1.474 . S
C96 C91 1.342 . S
C96 C94 1.285 . S
C96 H115 0.930 . S
C97 C100 1.424 . S
C97 C102 1.245 . S
C97 C103 1.428 . S
C98 C101 1.260 . S
C98 C102 1.477 . S
C98 H116 0.932 . S
C99 C100 1.384 . S
C99 C101 1.479 . S
C99 H117 0.929 . S
C100 C97 1.424 . S
C100 C99 1.384 . S
C100 H118 0.928 . S
C101 C98 1.260 . S
C101 C99 1.479 . S
C102 C97 1.245 . S
C102 C98 1.477 . S
C102 H119 0.932 . S
C103 U86 2.882 . S
C103 C97 1.428 . S
C103 O106 1.301 . S
C103 O107 1.282 . S
O104 U86 2.441 . S
O104 C90 1.249 . S
O105 U86 2.420 . S
O105 C90 1.202 . S
O106 U86 2.455 . S
O106 C103 1.301 . S
O107 U86 2.449 . S
O107 C103 1.282 . S
H108 C81 0.931 . S
H109 C83 0.929 . S
H110 C84 0.930 . S
H111 C85 0.931 . S
H112 C92 0.932 . S
H113 C93 0.930 . S
H114 C94 0.929 . S
H115 C96 0.930 . S
H116 C98 0.932 . S
H117 C99 0.929 . S
H118 C100 0.928 . S
H119 C102 0.932 . S
C120 C121 1.264 . S
C120 C125 1.479 . S
C120 C130 1.465 . S
C121 C120 1.264 . S
C121 C123 1.339 . S
C121 H148 0.931 . S
C122 C123 1.395 . S
C122 C124 1.320 . S
C123 C121 1.339 . S
C123 C122 1.395 . S
C123 H149 0.929 . S
C124 C122 1.320 . S
C124 C125 1.405 . S
C124 H150 0.930 . S
C125 C120 1.479 . S
C125 C124 1.405 . S
C125 H151 0.931 . S
U126 O127 2.454 . S
U126 O128 2.458 . S
U126 C129 2.984 . S
U126 C130 2.847 . S
U126 C143 2.882 . S
U126 O144 2.441 . S
U126 O145 2.420 . S
U126 O146 2.455 . S
U126 O147 2.449 . S
O127 U126 2.454 . S
O127 C129 1.353 . S
O128 U126 2.458 . S
O128 C129 1.286 . S
C129 U126 2.984 . S
C129 O127 1.353 . S
C129 O128 1.286 . S
C129 C131 1.363 . S
C130 C120 1.465 . S
C130 U126 2.847 . S
C130 O144 1.249 . S
C130 O145 1.202 . S
C131 C129 1.363 . S
C131 C133 1.408 . S
C131 C136 1.342 . S
C132 C133 1.310 . S
C132 C135 1.461 . S
C132 H152 0.932 . S
C133 C131 1.408 . S
C133 C132 1.310 . S
C133 H153 0.930 . S
C134 C135 1.474 . S
C134 C136 1.285 . S
C134 H154 0.929 . S
C135 C132 1.461 . S
C135 C134 1.474 . S
C136 C131 1.342 . S
C136 C134 1.285 . S
C136 H155 0.930 . S
C137 C140 1.424 . S
C137 C142 1.245 . S
C137 C143 1.428 . S
C138 C141 1.260 . S
C138 C142 1.477 . S
C138 H156 0.932 . S
C139 C140 1.384 . S
C139 C141 1.479 . S
C139 H157 0.929 . S
C140 C137 1.424 . S
C140 C139 1.384 . S
C140 H158 0.928 . S
C141 C138 1.260 . S
C141 C139 1.479 . S
C142 C137 1.245 . S
C142 C138 1.477 . S
C142 H159 0.932 . S
C143 U126 2.882 . S
C143 C137 1.428 . S
C143 O146 1.301 . S
C143 O147 1.282 . S
O144 U126 2.441 . S
O144 C130 1.249 . S
O145 U126 2.420 . S
O145 C130 1.202 . S
O146 U126 2.455 . S
O146 C143 1.301 . S
O147 U126 2.449 . S
O147 C143 1.282 . S
H148 C121 0.931 . S
H149 C123 0.929 . S
H150 C124 0.930 . S
H151 C125 0.931 . S
H152 C132 0.932 . S
H153 C133 0.930 . S
H154 C134 0.929 . S
H155 C136 0.930 . S
H156 C138 0.932 . S
H157 C139 0.929 . S
H158 C140 0.928 . S
H159 C142 0.932 . S
C160 C161 1.264 . S
C160 C165 1.479 . S
C160 C170 1.465 . S
C161 C160 1.264 . S
C161 C163 1.339 . S
C161 H188 0.931 . S
C162 C163 1.395 . S
C162 C164 1.320 . S
C163 C161 1.339 . S
C163 C162 1.395 . S
C163 H189 0.929 . S
C164 C162 1.320 . S
C164 C165 1.405 . S
C164 H190 0.930 . S
C165 C160 1.479 . S
C165 C164 1.405 . S
C165 H191 0.931 . S
U166 O167 2.454 . S
U166 O168 2.458 . S
U166 C169 2.984 . S
U166 C170 2.847 . S
U166 C183 2.882 . S
U166 O184 2.441 . S
U166 O185 2.420 . S
U166 O186 2.455 . S
U166 O187 2.449 . S
O167 U166 2.454 . S
O167 C169 1.353 . S
O168 U166 2.458 . S
O168 C169 1.286 . S
C169 U166 2.984 . S
C169 O167 1.353 . S
C169 O168 1.286 . S
C169 C171 1.363 . S
C170 C160 1.465 . S
C170 U166 2.847 . S
C170 O184 1.249 . S
C170 O185 1.202 . S
C171 C169 1.363 . S
C171 C173 1.408 . S
C171 C176 1.342 . S
C172 C173 1.310 . S
C172 C175 1.461 . S
C172 H192 0.932 . S
C173 C171 1.408 . S
C173 C172 1.310 . S
C173 H193 0.930 . S
C174 C175 1.474 . S
C174 C176 1.285 . S
C174 H194 0.929 . S
C175 C172 1.461 . S
C175 C174 1.474 . S
C176 C171 1.342 . S
C176 C174 1.285 . S
C176 H195 0.930 . S
C177 C180 1.424 . S
C177 C182 1.245 . S
C177 C183 1.428 . S
C178 C181 1.260 . S
C178 C182 1.477 . S
C178 H196 0.932 . S
C179 C180 1.384 . S
C179 C181 1.479 . S
C179 H197 0.929 . S
C180 C177 1.424 . S
C180 C179 1.384 . S
C180 H198 0.928 . S
C181 C178 1.260 . S
C181 C179 1.479 . S
C182 C177 1.245 . S
C182 C178 1.477 . S
C182 H199 0.932 . S
C183 U166 2.882 . S
C183 C177 1.428 . S
C183 O186 1.301 . S
C183 O187 1.282 . S
O184 U166 2.441 . S
O184 C170 1.249 . S
O185 U166 2.420 . S
O185 C170 1.202 . S
O186 U166 2.455 . S
O186 C183 1.301 . S
O187 U166 2.449 . S
O187 C183 1.282 . S
H188 C161 0.931 . S
H189 C163 0.929 . S
H190 C164 0.930 . S
H191 C165 0.931 . S
H192 C172 0.932 . S
H193 C173 0.930 . S
H194 C174 0.929 . S
H195 C176 0.930 . S
H196 C178 0.932 . S
H197 C179 0.929 . S
H198 C180 0.928 . S
H199 C182 0.932 . S
C200 C201 1.264 . S
C200 C205 1.479 . S
C200 C210 1.465 . S
C201 C200 1.264 . S
C201 C203 1.339 . S
C201 H228 0.931 . S
C202 C203 1.395 . S
C202 C204 1.320 . S
C203 C201 1.339 . S
C203 C202 1.395 . S
C203 H229 0.929 . S
C204 C202 1.320 . S
C204 C205 1.405 . S
C204 H230 0.930 . S
C205 C200 1.479 . S
C205 C204 1.405 . S
C205 H231 0.931 . S
U206 O207 2.454 . S
U206 O208 2.458 . S
U206 C209 2.984 . S
U206 C210 2.847 . S
U206 C223 2.882 . S
U206 O224 2.441 . S
U206 O225 2.420 . S
U206 O226 2.455 . S
U206 O227 2.449 . S
O207 U206 2.454 . S
O207 C209 1.353 . S
O208 U206 2.458 . S
O208 C209 1.286 . S
C209 U206 2.984 . S
C209 O207 1.353 . S
C209 O208 1.286 . S
C209 C211 1.363 . S
C210 C200 1.465 . S
C210 U206 2.847 . S
C210 O224 1.249 . S
C210 O225 1.202 . S
C211 C209 1.363 . S
C211 C213 1.408 . S
C211 C216 1.342 . S
C212 C213 1.310 . S
C212 C215 1.461 . S
C212 H232 0.932 . S
C213 C211 1.408 . S
C213 C212 1.310 . S
C213 H233 0.930 . S
C214 C215 1.474 . S
C214 C216 1.285 . S
C214 H234 0.929 . S
C215 C212 1.461 . S
C215 C214 1.474 . S
C216 C211 1.342 . S
C216 C214 1.285 . S
C216 H235 0.930 . S
C217 C220 1.424 . S
C217 C222 1.245 . S
C217 C223 1.428 . S
C218 C221 1.260 . S
C218 C222 1.477 . S
C218 H236 0.932 . S
C219 C220 1.384 . S
C219 C221 1.479 . S
C219 H237 0.929 . S
C220 C217 1.424 . S
C220 C219 1.384 . S
C220 H238 0.928 . S
C221 C218 1.260 . S
C221 C219 1.479 . S
C222 C217 1.245 . S
C222 C218 1.477 . S
C222 H239 0.932 . S
C223 U206 2.882 . S
C223 C217 1.428 . S
C223 O226 1.301 . S
C223 O227 1.282 . S
O224 U206 2.441 . S
O224 C210 1.249 . S
O225 U206 2.420 . S
O225 C210 1.202 . S
O226 U206 2.455 . S
O226 C223 1.301 . S
O227 U206 2.449 . S
O227 C223 1.282 . S
H228 C201 0.931 . S
H229 C203 0.929 . S
H230 C204 0.930 . S
H231 C205 0.931 . S
H232 C212 0.932 . S
H233 C213 0.930 . S
H234 C214 0.929 . S
H235 C216 0.930 . S
H236 C218 0.932 . S
H237 C219 0.929 . S
H238 C220 0.928 . S
H239 C222 0.932 . S
C240 C241 1.264 . S
C240 C245 1.479 . S
C240 C250 1.465 . S
C241 C240 1.264 . S
C241 C243 1.339 . S
C241 H268 0.931 . S
C242 C243 1.395 . S
C242 C244 1.320 . S
C243 C241 1.339 . S
C243 C242 1.395 . S
C243 H269 0.929 . S
C244 C242 1.320 . S
C244 C245 1.405 . S
C244 H270 0.930 . S
C245 C240 1.479 . S
C245 C244 1.405 . S
C245 H271 0.931 . S
U246 O247 2.454 . S
U246 O248 2.458 . S
U246 C249 2.984 . S
U246 C250 2.847 . S
U246 C263 2.882 . S
U246 O264 2.441 . S
U246 O265 2.420 . S
U246 O266 2.455 . S
U246 O267 2.449 . S
O247 U246 2.454 . S
O247 C249 1.353 . S
O248 U246 2.458 . S
O248 C249 1.286 . S
C249 U246 2.984 . S
C249 O247 1.353 . S
C249 O248 1.286 . S
C249 C251 1.363 . S
C250 C240 1.465 . S
C250 U246 2.847 . S
C250 O264 1.249 . S
C250 O265 1.202 . S
C251 C249 1.363 . S
C251 C253 1.408 . S
C251 C256 1.342 . S
C252 C253 1.310 . S
C252 C255 1.461 . S
C252 H272 0.932 . S
C253 C251 1.408 . S
C253 C252 1.310 . S
C253 H273 0.930 . S
C254 C255 1.474 . S
C254 C256 1.285 . S
C254 H274 0.929 . S
C255 C252 1.461 . S
C255 C254 1.474 . S
C256 C251 1.342 . S
C256 C254 1.285 . S
C256 H275 0.930 . S
C257 C260 1.424 . S
C257 C262 1.245 . S
C257 C263 1.428 . S
C258 C261 1.260 . S
C258 C262 1.477 . S
C258 H276 0.932 . S
C259 C260 1.384 . S
C259 C261 1.479 . S
C259 H277 0.929 . S
C260 C257 1.424 . S
C260 C259 1.384 . S
C260 H278 0.928 . S
C261 C258 1.260 . S
C261 C259 1.479 . S
C262 C257 1.245 . S
C262 C258 1.477 . S
C262 H279 0.932 . S
C263 U246 2.882 . S
C263 C257 1.428 . S
C263 O266 1.301 . S
C263 O267 1.282 . S
O264 U246 2.441 . S
O264 C250 1.249 . S
O265 U246 2.420 . S
O265 C250 1.202 . S
O266 U246 2.455 . S
O266 C263 1.301 . S
O267 U246 2.449 . S
O267 C263 1.282 . S
H268 C241 0.931 . S
H269 C243 0.929 . S
H270 C244 0.930 . S
H271 C245 0.931 . S
H272 C252 0.932 . S
H273 C253 0.930 . S
H274 C254 0.929 . S
H275 C256 0.930 . S
H276 C258 0.932 . S
H277 C259 0.929 . S
H278 C260 0.928 . S
H279 C262 0.932 . S
C280 C281 1.264 . S
C280 C285 1.479 . S
C280 C290 1.465 . S
C281 C280 1.264 . S
C281 C283 1.339 . S
C281 H308 0.931 . S
C282 C283 1.395 . S
C282 C284 1.320 . S
C283 C281 1.339 . S
C283 C282 1.395 . S
C283 H309 0.929 . S
C284 C282 1.320 . S
C284 C285 1.405 . S
C284 H310 0.930 . S
C285 C280 1.479 . S
C285 C284 1.405 . S
C285 H311 0.931 . S
U286 O287 2.454 . S
U286 O288 2.458 . S
U286 C289 2.984 . S
U286 C290 2.847 . S
U286 C303 2.882 . S
U286 O304 2.441 . S
U286 O305 2.420 . S
U286 O306 2.455 . S
U286 O307 2.449 . S
O287 U286 2.454 . S
O287 C289 1.353 . S
O288 U286 2.458 . S
O288 C289 1.286 . S
C289 U286 2.984 . S
C289 O287 1.353 . S
C289 O288 1.286 . S
C289 C291 1.363 . S
C290 C280 1.465 . S
C290 U286 2.847 . S
C290 O304 1.249 . S
C290 O305 1.202 . S
C291 C289 1.363 . S
C291 C293 1.408 . S
C291 C296 1.342 . S
C292 C293 1.310 . S
C292 C295 1.461 . S
C292 H312 0.932 . S
C293 C291 1.408 . S
C293 C292 1.310 . S
C293 H313 0.930 . S
C294 C295 1.474 . S
C294 C296 1.285 . S
C294 H314 0.929 . S
C295 C292 1.461 . S
C295 C294 1.474 . S
C296 C291 1.342 . S
C296 C294 1.285 . S
C296 H315 0.930 . S
C297 C300 1.424 . S
C297 C302 1.245 . S
C297 C303 1.428 . S
C298 C301 1.260 . S
C298 C302 1.477 . S
C298 H316 0.932 . S
C299 C300 1.384 . S
C299 C301 1.479 . S
C299 H317 0.929 . S
C300 C297 1.424 . S
C300 C299 1.384 . S
C300 H318 0.928 . S
C301 C298 1.260 . S
C301 C299 1.479 . S
C302 C297 1.245 . S
C302 C298 1.477 . S
C302 H319 0.932 . S
C303 U286 2.882 . S
C303 C297 1.428 . S
C303 O306 1.301 . S
C303 O307 1.282 . S
O304 U286 2.441 . S
O304 C290 1.249 . S
O305 U286 2.420 . S
O305 C290 1.202 . S
O306 U286 2.455 . S
O306 C303 1.301 . S
O307 U286 2.449 . S
O307 C303 1.282 . S
H308 C281 0.931 . S
H309 C283 0.929 . S
H310 C284 0.930 . S
H311 C285 0.931 . S
H312 C292 0.932 . S
H313 C293 0.930 . S
H314 C294 0.929 . S
H315 C296 0.930 . S
H316 C298 0.932 . S
H317 C299 0.929 . S
H318 C300 0.928 . S
H319 C302 0.932 . S
C320 O336 1.251 . S
C320 O338 1.254 1_545 S
N321 C322 1.333 . S
N321 C326 1.307 . S
N321 Zn327 2.020 . S
C322 N321 1.333 . S
C322 C323 1.379 . S
C322 H340 0.952 . S
C323 C322 1.379 . S
C323 C324 1.390 . S
C323 H350 0.949 . S
C324 C323 1.390 . S
C324 C325 1.357 . S
C325 C324 1.357 . S
C325 C326 1.370 . S
C325 H351 0.950 . S
C326 N321 1.307 . S
C326 C325 1.370 . S
C326 H344 0.948 1_455 S
Zn327 N321 2.020 . S
Zn327 O336 2.039 . S
Zn327 O342 2.034 . S
Zn327 O346 2.025 1_455 S
Zn327 O348 2.024 1_455 S
C328 O347 1.269 . S
C328 O348 1.249 . S
N329 C330 1.307 . S
N329 C331 1.333 . S
N329 Zn335 2.020 . S
C330 N329 1.307 . S
C330 C334 1.370 . S
C330 H341 0.948 1_655 S
C331 N329 1.333 . S
C331 C332 1.379 . S
C331 H339 0.952 . S
C332 C331 1.379 . S
C332 C333 1.390 . S
C332 H352 0.949 . S
C333 C332 1.390 . S
C333 C334 1.357 . S
C334 C330 1.370 . S
C334 C333 1.357 . S
C334 H353 0.964 . S
Zn335 N329 2.020 . S
Zn335 O338 2.025 1_655 S
Zn335 O343 2.024 1_655 S
Zn335 O345 2.039 . S
Zn335 O347 2.022 1_565 S
O336 C320 1.251 . S
O336 Zn327 2.039 . S
C337 O342 1.246 1_565 S
C337 O343 1.249 . S
O338 C320 1.254 1_565 S
O338 Zn335 2.025 1_455 S
H339 C331 0.952 . S
H340 C322 0.952 . S
H341 C330 0.948 1_455 S
O342 Zn327 2.034 . S
O342 C337 1.246 1_545 S
O343 Zn335 2.024 1_455 S
O343 C337 1.249 . S
H344 C326 0.948 1_655 S
O345 Zn335 2.039 . S
O345 C349 1.251 . S
O346 Zn327 2.025 1_655 S
O346 C349 1.254 1_545 S
O347 C328 1.269 . S
O347 Zn335 2.022 1_545 S
O348 Zn327 2.024 1_655 S
O348 C328 1.249 . S
C349 O345 1.251 . S
C349 O346 1.254 1_565 S
H350 C323 0.949 . S
H351 C325 0.950 . S
H352 C332 0.949 . S
H353 C334 0.964 . S
C354 O370 1.251 1_565 S
C354 O372 1.254 1_556 S
N355 C356 1.333 . S
N355 C360 1.307 . S
N355 Zn361 2.020 . S
C356 N355 1.333 . S
C356 C357 1.379 . S
C356 H374 0.952 . S
C357 C356 1.379 . S
C357 C358 1.390 . S
C357 H384 0.949 . S
C358 C357 1.390 . S
C358 C359 1.357 . S
C359 C358 1.357 . S
C359 C360 1.370 . S
C359 H385 0.950 . S
C360 N355 1.307 . S
C360 C359 1.370 . S
C360 H378 0.948 . S
Zn361 N355 2.020 . S
Zn361 O370 2.039 . S
Zn361 O376 2.034 1_556 S
Zn361 O380 2.025 1_556 S
Zn361 O382 2.024 . S
C362 O381 1.246 . S
C362 O382 1.249 1_565 S
N363 C364 1.307 . S
N363 C365 1.333 . S
N363 Zn369 2.020 . S
C364 N363 1.307 . S
C364 C368 1.370 . S
C364 H375 0.948 . S
C365 N363 1.333 . S
C365 C366 1.379 . S
C365 H373 0.952 . S
C366 C365 1.379 . S
C366 C367 1.390 . S
C366 H386 0.949 . S
C367 C366 1.390 . S
C367 C368 1.357 . S
C368 C364 1.370 . S
C368 C367 1.357 . S
C368 H387 0.950 . S
Zn369 N363 2.020 . S
Zn369 O372 2.025 . S
Zn369 O377 2.024 . S
Zn369 O379 2.039 . S
Zn369 O381 2.034 1_554 S
O370 C354 1.251 1_545 S
O370 Zn361 2.039 . S
C371 O376 1.246 . S
C371 O377 1.249 1_545 S
O372 C354 1.254 1_554 S
O372 Zn369 2.025 . S
H373 C365 0.952 . S
H374 C356 0.952 . S
H375 C364 0.948 . S
O376 Zn361 2.034 1_554 S
O376 C371 1.246 . S
O377 Zn369 2.024 . S
O377 C371 1.249 1_565 S
H378 C360 0.948 . S
O379 Zn369 2.039 . S
O379 C383 1.251 1_565 S
O380 Zn361 2.025 1_554 S
O380 C383 1.254 . S
O381 C362 1.246 . S
O381 Zn369 2.034 1_556 S
O382 Zn361 2.024 . S
O382 C362 1.249 1_545 S
C383 O379 1.251 1_545 S
C383 O380 1.254 . S
H384 C357 0.949 . S
H385 C359 0.950 . S
H386 C366 0.949 . S
H387 C368 0.950 . S
C388 O404 1.251 . S
C388 O406 1.254 . S
N389 C390 1.333 . S
N389 C394 1.307 . S
N389 Zn395 2.020 . S
C390 N389 1.333 . S
C390 C391 1.379 . S
C390 H408 0.952 . S
C391 C390 1.379 . S
C391 C392 1.390 . S
C391 H418 0.949 . S
C392 C391 1.390 . S
C392 C393 1.357 . S
C393 C392 1.357 . S
C393 C394 1.370 . S
C393 H419 0.950 . S
C394 N389 1.307 . S
C394 C393 1.370 . S
C394 H412 0.948 . S
Zn395 N389 2.020 . S
Zn395 O404 2.039 . S
Zn395 O410 2.034 . S
Zn395 O414 2.025 . S
Zn395 O416 2.024 . S
C396 O415 1.246 . S
C396 O416 1.249 . S
N397 C398 1.307 . S
N397 C399 1.333 . S
N397 Zn403 2.020 . S
C398 N397 1.307 . S
C398 C402 1.370 . S
C398 H409 0.948 . S
C399 N397 1.333 . S
C399 C400 1.379 . S
C399 H407 0.952 . S
C400 C399 1.379 . S
C400 C401 1.390 . S
C400 H420 0.949 . S
C401 C400 1.390 . S
C401 C402 1.357 . S
C402 C398 1.370 . S
C402 C401 1.357 . S
C402 H421 0.950 . S
Zn403 N397 2.020 . S
Zn403 O406 2.025 . S
Zn403 O411 2.024 . S
Zn403 O413 2.039 . S
Zn403 O415 2.034 . S
O404 C388 1.251 . S
O404 Zn395 2.039 . S
C405 O410 1.246 . S
C405 O411 1.249 . S
O406 C388 1.254 . S
O406 Zn403 2.025 . S
H407 C399 0.952 . S
H408 C390 0.952 . S
H409 C398 0.948 . S
O410 Zn395 2.034 . S
O410 C405 1.246 . S
O411 Zn403 2.024 . S
O411 C405 1.249 . S
H412 C394 0.948 . S
O413 Zn403 2.039 . S
O413 C417 1.251 . S
O414 Zn395 2.025 . S
O414 C417 1.254 . S
O415 C396 1.246 . S
O415 Zn403 2.034 . S
O416 Zn395 2.024 . S
O416 C396 1.249 . S
C417 O413 1.251 . S
C417 O414 1.254 . S
H418 C391 0.949 . S
H419 C393 0.950 . S
H420 C400 0.949 . S
H421 C402 0.950 . S
C422 O438 1.251 1_556 S
C422 O440 1.262 . S
N423 C424 1.333 . S
N423 C428 1.307 . S
N423 Zn429 2.020 . S
C424 N423 1.333 . S
C424 C425 1.379 . S
C424 H442 0.952 . S
C425 C424 1.379 . S
C425 C426 1.390 . S
C425 H452 0.949 . S
C426 C425 1.390 . S
C426 C427 1.357 . S
C427 C426 1.357 . S
C427 C428 1.370 . S
C427 H453 0.950 . S
C428 N423 1.307 . S
C428 C427 1.370 . S
C428 H446 0.948 . S
Zn429 N423 2.020 . S
Zn429 O438 2.039 . S
Zn429 O444 2.034 1_655 S
Zn429 O448 2.025 1_655 S
Zn429 O450 2.024 . S
C430 O449 1.246 . S
C430 O450 1.249 1_556 S
N431 C432 1.307 . S
N431 C433 1.333 . S
N431 Zn437 2.020 . S
C432 N431 1.307 . S
C432 C436 1.370 . S
C432 H443 0.948 . S
C433 N431 1.333 . S
C433 C434 1.379 . S
C433 H441 0.952 . S
C434 C433 1.379 . S
C434 C435 1.390 . S
C434 H454 0.949 . S
C435 C434 1.390 . S
C435 C436 1.357 . S
C436 C432 1.370 . S
C436 C435 1.357 . S
C436 H455 0.950 . S
Zn437 N431 2.020 . S
Zn437 O440 2.020 1_455 S
Zn437 O445 2.024 . S
Zn437 O447 2.039 . S
Zn437 O449 2.034 1_455 S
O438 C422 1.251 1_554 S
O438 Zn429 2.039 . S
C439 O444 1.246 . S
C439 O445 1.249 1_554 S
O440 C422 1.262 . S
O440 Zn437 2.020 1_655 S
H441 C433 0.952 . S
H442 C424 0.952 . S
H443 C432 0.948 . S
O444 Zn429 2.034 1_455 S
O444 C439 1.246 . S
O445 Zn437 2.024 . S
O445 C439 1.249 1_556 S
H446 C428 0.948 . S
O447 Zn437 2.039 . S
O447 C451 1.251 1_556 S
O448 Zn429 2.025 1_455 S
O448 C451 1.254 . S
O449 C430 1.246 . S
O449 Zn437 2.034 1_655 S
O450 Zn429 2.024 . S
O450 C430 1.249 1_554 S
C451 O447 1.251 1_554 S
C451 O448 1.254 . S
H452 C425 0.949 . S
H453 C427 0.950 . S
H454 C434 0.949 . S
H455 C436 0.950 . S
H456 C464 0.929 . S
H457 C466 0.930 . S
H458 C468 0.930 . S
H459 C471 0.929 . S
H460 C474 0.930 . S
H461 C476 0.960 1_655 S
H462 C476 0.960 . S
H463 C476 0.960 . S
C464 H456 0.929 . S
C464 C465 1.377 . S
C464 C466 1.384 . S
C465 C464 1.377 . S
C465 C471 1.390 . S
C466 H457 0.930 . S
C466 C464 1.384 . S
C466 C467 1.372 . S
C467 C466 1.372 . S
C467 C468 1.400 . S
C467 C472 1.490 . S
C468 H458 0.930 . S
C468 C467 1.400 . S
C468 C471 1.386 . S
H469 C485 0.930 . S
H470 C486 0.931 . S
C471 H459 0.929 . S
C471 C465 1.390 . S
C471 C468 1.386 . S
C472 C467 1.490 . S
C472 C474 1.395 . S
C472 C475 1.403 . S
H473 C479 0.930 . S
C474 H460 0.930 . S
C474 C472 1.395 . S
C474 C477 1.403 . S
C475 C472 1.403 . S
C475 C476 1.524 . S
C475 C479 1.400 . S
C476 H461 0.960 1_455 S
C476 H462 0.960 . S
C476 H463 0.960 . S
C476 C475 1.524 . S
C477 C474 1.403 . S
C477 C478 1.392 . S
C477 C481 1.495 . S
C478 C477 1.392 . S
C478 C479 1.385 . S
C478 C480 1.478 . S
C479 H473 0.930 . S
C479 C475 1.400 . S
C479 C478 1.385 . S
C480 C478 1.478 . S
C480 C482 1.381 . S
C480 C486 1.383 . S
C481 C477 1.495 . S
C481 H487 0.959 . S
C481 H488 0.961 . S
C481 H489 0.960 . S
C482 C480 1.381 . S
C482 C483 1.394 . S
C482 H490 0.930 . S
C483 C482 1.394 . S
C483 C484 1.383 . S
C483 H491 0.929 1_545 S
C484 C483 1.383 . S
C484 C485 1.377 . S
C485 H469 0.930 . S
C485 C484 1.377 . S
C485 C486 1.379 . S
C486 H470 0.931 . S
C486 C480 1.383 . S
C486 C485 1.379 . S
H487 C481 0.959 . S
H488 C481 0.961 . S
H489 C481 0.960 . S
H490 C482 0.930 . S
H491 C483 0.929 1_565 S
H492 C500 0.929 . S
H493 C502 0.930 . S
H494 C504 0.930 . S
H495 C507 0.929 . S
H496 C510 0.930 . S
H497 C512 0.960 . S
H498 C512 0.960 . S
H499 C512 0.960 . S
C500 H492 0.929 . S
C500 C501 1.377 . S
C500 C502 1.384 . S
C501 C500 1.377 . S
C501 C507 1.390 . S
C502 H493 0.930 . S
C502 C500 1.384 . S
C502 C503 1.372 . S
C503 C502 1.372 . S
C503 C504 1.400 . S
C503 C508 1.490 . S
C504 H494 0.930 . S
C504 C503 1.400 . S
C504 C507 1.386 . S
H505 C521 0.930 . S
H506 C522 0.931 . S
C507 H495 0.929 . S
C507 C501 1.390 . S
C507 C504 1.386 . S
C508 C503 1.490 . S
C508 C510 1.395 . S
C508 C511 1.403 . S
H509 C515 0.930 . S
C510 H496 0.930 . S
C510 C508 1.395 . S
C510 C513 1.403 . S
C511 C508 1.403 . S
C511 C512 1.524 . S
C511 C515 1.400 . S
C512 H497 0.960 . S
C512 H498 0.960 . S
C512 H499 0.960 . S
C512 C511 1.524 . S
C513 C510 1.403 . S
C513 C514 1.392 . S
C513 C517 1.495 1_565 S
C514 C513 1.392 . S
C514 C515 1.385 . S
C514 C516 1.478 . S
C515 H509 0.930 . S
C515 C511 1.400 . S
C515 C514 1.385 . S
C516 C514 1.478 . S
C516 C518 1.381 . S
C516 C522 1.383 . S
C517 C513 1.495 1_545 S
C517 H523 0.959 . S
C517 H524 0.961 . S
C517 H525 0.960 . S
C518 C516 1.381 . S
C518 C519 1.394 . S
C518 H526 0.930 . S
C519 C518 1.394 . S
C519 C520 1.383 . S
C519 H527 0.929 . S
C520 C519 1.383 . S
C520 C521 1.377 . S
C521 H505 0.930 . S
C521 C520 1.377 . S
C521 C522 1.379 . S
C522 H506 0.931 . S
C522 C516 1.383 . S
C522 C521 1.379 . S
H523 C517 0.959 . S
H524 C517 0.961 . S
H525 C517 0.960 . S
H526 C518 0.930 . S
H527 C519 0.929 . S
H528 C536 0.929 . S
H529 C538 0.930 . S
H530 C540 0.930 . S
H531 C543 0.929 . S
H532 C546 0.930 . S
H533 C548 0.960 . S
H534 C548 0.960 . S
H535 C548 0.960 . S
C536 H528 0.929 . S
C536 C537 1.377 . S
C536 C538 1.384 . S
C537 C536 1.377 . S
C537 C543 1.390 . S
C538 H529 0.930 . S
C538 C536 1.384 . S
C538 C539 1.372 . S
C539 C538 1.372 . S
C539 C540 1.400 . S
C539 C544 1.490 . S
C540 H530 0.930 . S
C540 C539 1.400 . S
C540 C543 1.386 . S
H541 C557 0.930 . S
H542 C558 0.931 . S
C543 H531 0.929 . S
C543 C537 1.390 . S
C543 C540 1.386 . S
C544 C539 1.490 . S
C544 C546 1.395 . S
C544 C547 1.403 . S
H545 C551 0.930 . S
C546 H532 0.930 . S
C546 C544 1.395 . S
C546 C549 1.403 . S
C547 C544 1.403 . S
C547 C548 1.524 . S
C547 C551 1.400 . S
C548 H533 0.960 . S
C548 H534 0.960 . S
C548 H535 0.960 . S
C548 C547 1.524 . S
C549 C546 1.403 . S
C549 C550 1.392 . S
C549 C553 1.495 . S
C550 C549 1.392 . S
C550 C551 1.385 . S
C550 C552 1.478 . S
C551 H545 0.930 . S
C551 C547 1.400 . S
C551 C550 1.385 . S
C552 C550 1.478 . S
C552 C554 1.381 . S
C552 C558 1.383 . S
C553 C549 1.495 . S
C553 H559 0.959 . S
C553 H560 0.961 . S
C553 H561 0.960 . S
C554 C552 1.381 . S
C554 C555 1.394 . S
C554 H562 0.930 . S
C555 C554 1.394 . S
C555 C556 1.383 . S
C555 H563 0.929 . S
C556 C555 1.383 . S
C556 C557 1.377 . S
C557 H541 0.930 . S
C557 C556 1.377 . S
C557 C558 1.379 . S
C558 H542 0.931 . S
C558 C552 1.383 . S
C558 C557 1.379 . S
H559 C553 0.959 . S
H560 C553 0.961 . S
H561 C553 0.960 . S
H562 C554 0.930 . S
H563 C555 0.929 . S
H564 C572 0.929 . S
H565 C574 0.930 . S
H566 C576 0.930 . S
H567 C579 0.929 . S
H568 C582 0.930 . S
H569 C584 0.960 . S
H570 C584 0.960 . S
H571 C584 0.960 . S
C572 H564 0.929 . S
C572 C573 1.377 . S
C572 C574 1.384 . S
C573 C572 1.377 . S
C573 C579 1.390 . S
C574 H565 0.930 . S
C574 C572 1.384 . S
C574 C575 1.372 . S
C575 C574 1.372 . S
C575 C576 1.400 . S
C575 C580 1.490 . S
C576 H566 0.930 . S
C576 C575 1.400 . S
C576 C579 1.386 . S
H577 C593 0.930 . S
H578 C594 0.931 . S
C579 H567 0.929 . S
C579 C573 1.390 . S
C579 C576 1.386 . S
C580 C575 1.490 . S
C580 C582 1.395 . S
C580 C583 1.403 . S
H581 C587 0.930 . S
C582 H568 0.930 . S
C582 C580 1.395 . S
C582 C585 1.403 . S
C583 C580 1.403 . S
C583 C584 1.524 . S
C583 C587 1.400 . S
C584 H569 0.960 . S
C584 H570 0.960 . S
C584 H571 0.960 . S
C584 C583 1.524 . S
C585 C582 1.403 . S
C585 C586 1.392 . S
C585 C589 1.495 . S
C586 C585 1.392 . S
C586 C587 1.385 . S
C586 C588 1.478 . S
C587 H581 0.930 . S
C587 C583 1.400 . S
C587 C586 1.385 . S
C588 C586 1.478 . S
C588 C590 1.381 . S
C588 C594 1.383 . S
C589 C585 1.495 . S
C589 H595 0.959 . S
C589 H596 0.961 . S
C589 H597 0.960 . S
C590 C588 1.381 . S
C590 C591 1.394 . S
C590 H598 0.930 . S
C591 C590 1.394 . S
C591 C592 1.383 . S
C591 H599 0.929 . S
C592 C591 1.383 . S
C592 C593 1.377 . S
C593 H577 0.930 . S
C593 C592 1.377 . S
C593 C594 1.379 . S
C594 H578 0.931 . S
C594 C588 1.383 . S
C594 C593 1.379 . S
H595 C589 0.959 . S
H596 C589 0.961 . S
H597 C589 0.960 . S
H598 C590 0.930 . S
H599 C591 0.929 . S
H600 C608 0.929 . S
H601 C610 0.930 . S
H602 C612 0.930 . S
H603 C615 0.929 . S
H604 C618 0.930 . S
H605 C620 0.960 . S
H606 C620 0.960 . S
H607 C620 0.960 . S
C608 H600 0.929 . S
C608 C609 1.377 . S
C608 C610 1.384 . S
C609 C608 1.377 . S
C609 C615 1.390 . S
C610 H601 0.930 . S
C610 C608 1.384 . S
C610 C611 1.372 . S
C611 C610 1.372 . S
C611 C612 1.400 . S
C611 C616 1.490 . S
C612 H602 0.930 . S
C612 C611 1.400 . S
C612 C615 1.386 . S
H613 C629 0.930 1_565 S
H614 C630 0.931 . S
C615 H603 0.929 . S
C615 C609 1.390 . S
C615 C612 1.386 . S
C616 C611 1.490 . S
C616 C618 1.395 . S
C616 C619 1.403 . S
H617 C623 0.930 . S
C618 H604 0.930 . S
C618 C616 1.395 . S
C618 C621 1.403 . S
C619 C616 1.403 . S
C619 C620 1.524 . S
C619 C623 1.400 . S
C620 H605 0.960 . S
C620 H606 0.960 . S
C620 H607 0.960 . S
C620 C619 1.524 . S
C621 C618 1.403 . S
C621 C622 1.392 . S
C621 C625 1.495 . S
C622 C621 1.392 . S
C622 C623 1.385 . S
C622 C624 1.478 . S
C623 H617 0.930 . S
C623 C619 1.400 . S
C623 C622 1.385 . S
C624 C622 1.478 . S
C624 C626 1.381 . S
C624 C630 1.383 . S
C625 C621 1.495 . S
C625 H631 0.959 . S
C625 H632 0.961 . S
C625 H633 0.960 . S
C626 C624 1.381 . S
C626 C627 1.394 . S
C626 H634 0.930 . S
C627 C626 1.394 . S
C627 C628 1.383 . S
C627 H635 0.929 . S
C628 C627 1.383 . S
C628 C629 1.377 . S
C629 H613 0.930 1_545 S
C629 C628 1.377 . S
C629 C630 1.379 . S
C630 H614 0.931 . S
C630 C624 1.383 . S
C630 C629 1.379 . S
H631 C625 0.959 . S
H632 C625 0.961 . S
H633 C625 0.960 . S
H634 C626 0.930 . S
H635 C627 0.929 . S
H636 C644 0.929 . S
H637 C646 0.930 . S
H638 C648 0.930 . S
H639 C651 0.929 . S
H640 C654 0.930 . S
H641 C656 0.960 . S
H642 C656 0.960 . S
H643 C656 0.960 . S
C644 H636 0.929 . S
C644 C645 1.377 . S
C644 C646 1.384 . S
C645 C644 1.377 . S
C645 C651 1.390 . S
C646 H637 0.930 . S
C646 C644 1.384 . S
C646 C647 1.372 . S
C647 C646 1.372 . S
C647 C648 1.400 . S
C647 C652 1.490 . S
C648 H638 0.930 . S
C648 C647 1.400 . S
C648 C651 1.386 . S
H649 C665 0.930 . S
H650 C666 0.931 . S
C651 H639 0.929 . S
C651 C645 1.390 . S
C651 C648 1.386 . S
C652 C647 1.490 . S
C652 C654 1.395 . S
C652 C655 1.403 . S
H653 C659 0.930 . S
C654 H640 0.930 . S
C654 C652 1.395 . S
C654 C657 1.403 . S
C655 C652 1.403 . S
C655 C656 1.524 . S
C655 C659 1.400 . S
C656 H641 0.960 . S
C656 H642 0.960 . S
C656 H643 0.960 . S
C656 C655 1.524 . S
C657 C654 1.403 . S
C657 C658 1.392 . S
C657 C661 1.495 . S
C658 C657 1.392 . S
C658 C659 1.385 . S
C658 C660 1.478 . S
C659 H653 0.930 . S
C659 C655 1.400 . S
C659 C658 1.385 . S
C660 C658 1.478 . S
C660 C662 1.381 . S
C660 C666 1.383 . S
C661 C657 1.495 . S
C661 H667 0.959 . S
C661 H668 0.961 . S
C661 H669 0.960 . S
C662 C660 1.381 . S
C662 C663 1.394 . S
C662 H670 0.930 1_565 S
C663 C662 1.394 . S
C663 C664 1.383 . S
C663 H671 0.929 1_565 S
C664 C663 1.383 . S
C664 C665 1.377 . S
C665 H649 0.930 . S
C665 C664 1.377 . S
C665 C666 1.379 . S
C666 H650 0.931 . S
C666 C660 1.383 . S
C666 C665 1.379 . S
H667 C661 0.959 . S
H668 C661 0.961 . S
H669 C661 0.960 . S
H670 C662 0.930 1_545 S
H671 C663 0.929 1_545 S
H672 C680 0.929 . S
H673 C682 0.930 . S
H674 C684 0.930 . S
H675 C687 0.929 . S
H676 C690 0.930 . S
H677 C692 0.960 . S
H678 C692 0.960 . S
H679 C692 0.960 . S
C680 H672 0.929 . S
C680 C681 1.377 . S
C680 C682 1.384 . S
C681 C680 1.377 . S
C681 C687 1.390 . S
C682 H673 0.930 . S
C682 C680 1.384 . S
C682 C683 1.372 . S
C683 C682 1.372 . S
C683 C684 1.400 . S
C683 C688 1.490 . S
C684 H674 0.930 . S
C684 C683 1.400 . S
C684 C687 1.386 . S
H685 C701 0.982 . S
H686 C702 0.931 1_554 S
C687 H675 0.929 . S
C687 C681 1.390 . S
C687 C684 1.386 . S
C688 C683 1.490 . S
C688 C690 1.395 . S
C688 C691 1.403 . S
H689 C695 0.930 . S
C690 H676 0.930 . S
C690 C688 1.395 . S
C690 C693 1.403 . S
C691 C688 1.403 . S
C691 C692 1.524 . S
C691 C695 1.400 . S
C692 H677 0.960 . S
C692 H678 0.960 . S
C692 H679 0.960 . S
C692 C691 1.524 . S
C693 C690 1.403 . S
C693 C694 1.392 . S
C693 C697 1.495 . S
C694 C693 1.392 . S
C694 C695 1.385 . S
C694 C696 1.478 . S
C695 H689 0.930 . S
C695 C691 1.400 . S
C695 C694 1.385 . S
C696 C694 1.478 . S
C696 C698 1.381 . S
C696 C702 1.383 . S
C697 C693 1.495 . S
C697 H703 0.959 . S
C697 H704 0.961 . S
C697 H705 0.960 . S
C698 C696 1.381 . S
C698 C699 1.394 . S
C698 H706 0.930 . S
C699 C698 1.394 . S
C699 C700 1.383 . S
C699 H707 0.929 . S
C700 C699 1.383 . S
C700 C701 1.337 1_556 S
C701 H685 0.982 . S
C701 C700 1.337 1_554 S
C701 C702 1.369 1_554 S
C702 H686 0.931 1_556 S
C702 C696 1.383 . S
C702 C701 1.369 1_556 S
H703 C697 0.959 . S
H704 C697 0.961 . S
H705 C697 0.960 . S
H706 C698 0.930 . S
H707 C699 0.929 . S
H708 C716 0.929 . S
H709 C718 0.930 . S
H710 C720 0.930 . S
H711 C723 0.929 . S
H712 C726 0.930 . S
H713 C728 0.960 . S
H714 C728 0.960 . S
H715 C728 0.960 . S
C716 H708 0.929 . S
C716 C717 1.377 . S
C716 C718 1.384 . S
C717 C716 1.377 . S
C717 C723 1.390 . S
C718 H709 0.930 . S
C718 C716 1.384 . S
C718 C719 1.372 . S
C719 C718 1.372 . S
C719 C720 1.400 . S
C719 C724 1.490 . S
C720 H710 0.930 . S
C720 C719 1.400 . S
C720 C723 1.386 . S
H721 C737 0.930 . S
H722 C738 0.931 . S
C723 H711 0.929 . S
C723 C717 1.390 . S
C723 C720 1.386 . S
C724 C719 1.490 . S
C724 C726 1.395 . S
C724 C727 1.403 . S
H725 C731 0.930 . S
C726 H712 0.930 . S
C726 C724 1.395 . S
C726 C729 1.403 . S
C727 C724 1.403 . S
C727 C728 1.524 . S
C727 C731 1.400 . S
C728 H713 0.960 . S
C728 H714 0.960 . S
C728 H715 0.960 . S
C728 C727 1.524 . S
C729 C726 1.403 . S
C729 C730 1.392 . S
C729 C733 1.495 . S
C730 C729 1.392 . S
C730 C731 1.385 . S
C730 C732 1.478 . S
C731 H725 0.930 . S
C731 C727 1.400 . S
C731 C730 1.385 . S
C732 C730 1.478 . S
C732 C734 1.381 . S
C732 C738 1.383 . S
C733 C729 1.495 . S
C733 H739 0.959 . S
C733 H740 0.961 . S
C733 H741 0.960 . S
C734 C732 1.381 . S
C734 C735 1.394 . S
C734 H742 0.930 . S
C735 C734 1.394 . S
C735 C736 1.383 . S
C735 H743 0.929 . S
C736 C735 1.383 . S
C736 C737 1.377 . S
C737 H721 0.930 . S
C737 C736 1.377 . S
C737 C738 1.379 . S
C738 H722 0.931 . S
C738 C732 1.383 . S
C738 C737 1.379 . S
H739 C733 0.959 . S
H740 C733 0.961 . S
H741 C733 0.960 . S
H742 C734 0.930 . S
H743 C735 0.929 . S
H744 C752 0.929 . S
H745 C754 0.930 . S
H746 C756 0.930 . S
H747 C759 0.929 . S
H748 C762 0.930 . S
H749 C764 0.960 1_655 S
H750 C764 0.960 . S
H751 C764 0.960 . S
C752 H744 0.929 . S
C752 C753 1.377 . S
C752 C754 1.384 . S
C753 C752 1.377 . S
C753 C759 1.390 . S
C754 H745 0.930 . S
C754 C752 1.384 . S
C754 C755 1.372 . S
C755 C754 1.372 . S
C755 C756 1.400 . S
C755 C760 1.490 . S
C756 H746 0.930 . S
C756 C755 1.400 . S
C756 C759 1.386 . S
H757 C773 0.930 1_556 S
H758 C774 0.931 . S
C759 H747 0.929 . S
C759 C753 1.390 . S
C759 C756 1.386 . S
C760 C755 1.490 . S
C760 C762 1.395 . S
C760 C763 1.403 . S
H761 C767 0.930 . S
C762 H748 0.930 . S
C762 C760 1.395 . S
C762 C765 1.403 . S
C763 C760 1.403 . S
C763 C764 1.524 . S
C763 C767 1.400 . S
C764 H749 0.960 1_455 S
C764 H750 0.960 . S
C764 H751 0.960 . S
C764 C763 1.524 . S
C765 C762 1.403 . S
C765 C766 1.392 . S
C765 C769 1.495 . S
C766 C765 1.392 . S
C766 C767 1.385 . S
C766 C768 1.478 . S
C767 H761 0.930 . S
C767 C763 1.400 . S
C767 C766 1.385 . S
C768 C766 1.478 . S
C768 C770 1.381 . S
C768 C774 1.383 . S
C769 C765 1.495 . S
C769 H775 0.959 . S
C769 H776 0.961 . S
C769 H777 0.960 . S
C770 C768 1.381 . S
C770 C771 1.394 . S
C770 H778 0.930 . S
C771 C770 1.394 . S
C771 C772 1.383 . S
C771 H779 0.929 . S
C772 C771 1.383 . S
C772 C773 1.377 . S
C773 H757 0.930 1_554 S
C773 C772 1.377 . S
C773 C774 1.379 . S
C774 H758 0.931 . S
C774 C768 1.383 . S
C774 C773 1.379 . S
H775 C769 0.959 . S
H776 C769 0.961 . S
H777 C769 0.960 . S
H778 C770 0.930 . S
H779 C771 0.929 . S
H780 C788 0.929 . S
H781 C790 0.930 . S
H782 C792 0.930 . S
H783 C795 0.929 . S
H784 C798 0.930 . S
H785 C800 0.960 1_554 S
H786 C800 0.975 . S
H787 C800 0.960 . S
C788 H780 0.929 . S
C788 C789 1.377 . S
C788 C790 1.384 . S
C789 C788 1.377 . S
C789 C795 1.390 . S
C790 H781 0.930 . S
C790 C788 1.384 . S
C790 C791 1.372 . S
C791 C790 1.372 . S
C791 C792 1.400 . S
C791 C796 1.490 . S
C792 H782 0.930 . S
C792 C791 1.400 . S
C792 C795 1.386 . S
H793 C809 0.930 . S
H794 C810 0.931 . S
C795 H783 0.929 . S
C795 C789 1.390 . S
C795 C792 1.386 . S
C796 C791 1.490 . S
C796 C798 1.395 . S
C796 C799 1.403 . S
H797 C803 0.930 . S
C798 H784 0.930 . S
C798 C796 1.395 . S
C798 C801 1.403 . S
C799 C796 1.403 . S
C799 C800 1.524 . S
C799 C803 1.400 . S
C800 H785 0.960 1_556 S
C800 H786 0.975 . S
C800 H787 0.960 . S
C800 C799 1.524 . S
C801 C798 1.403 . S
C801 C802 1.392 . S
C801 C805 1.495 . S
C802 C801 1.392 . S
C802 C803 1.385 . S
C802 C804 1.478 . S
C803 H797 0.930 . S
C803 C799 1.400 . S
C803 C802 1.385 . S
C804 C802 1.478 . S
C804 C806 1.381 . S
C804 C810 1.383 . S
C805 C801 1.495 . S
C805 H811 0.959 . S
C805 H812 0.961 . S
C805 H813 0.960 . S
C806 C804 1.381 . S
C806 C807 1.394 . S
C806 H814 0.930 . S
C807 C806 1.394 . S
C807 C808 1.383 . S
C807 H815 0.929 . S
C808 C807 1.383 . S
C808 C809 1.377 . S
C809 H793 0.930 . S
C809 C808 1.377 . S
C809 C810 1.379 . S
C810 H794 0.931 . S
C810 C804 1.383 . S
C810 C809 1.379 . S
H811 C805 0.959 . S
H812 C805 0.961 . S
H813 C805 0.960 . S
H814 C806 0.930 . S
H815 C807 0.929 . S
H816 C824 0.929 . S
H817 C826 0.930 . S
H818 C828 0.930 . S
H819 C831 0.929 . S
H820 C834 0.930 . S
H821 C836 0.960 . S
H822 C836 0.960 . S
H823 C836 0.960 . S
C824 H816 0.929 . S
C824 C825 1.377 . S
C824 C826 1.384 . S
C825 C824 1.377 . S
C825 C831 1.390 . S
C826 H817 0.930 . S
C826 C824 1.384 . S
C826 C827 1.372 . S
C827 C826 1.372 . S
C827 C828 1.400 . S
C827 C832 1.490 . S
C828 H818 0.930 . S
C828 C827 1.400 . S
C828 C831 1.386 . S
H829 C845 0.930 . S
H830 C846 0.931 . S
C831 H819 0.929 . S
C831 C825 1.390 . S
C831 C828 1.386 . S
C832 C827 1.490 . S
C832 C834 1.395 . S
C832 C835 1.403 . S
H833 C839 0.930 . S
C834 H820 0.930 . S
C834 C832 1.395 . S
C834 C837 1.403 . S
C835 C832 1.403 . S
C835 C836 1.524 . S
C835 C839 1.400 . S
C836 H821 0.960 . S
C836 H822 0.960 . S
C836 H823 0.960 . S
C836 C835 1.524 . S
C837 C834 1.403 . S
C837 C838 1.392 . S
C837 C841 1.495 . S
C838 C837 1.392 . S
C838 C839 1.385 . S
C838 C840 1.478 . S
C839 H833 0.930 . S
C839 C835 1.400 . S
C839 C838 1.385 . S
C840 C838 1.478 . S
C840 C842 1.381 . S
C840 C846 1.383 . S
C841 C837 1.495 . S
C841 H847 0.959 . S
C841 H848 0.961 . S
C841 H849 0.960 . S
C842 C840 1.381 . S
C842 C843 1.394 . S
C842 H850 0.930 . S
C843 C842 1.394 . S
C843 C844 1.383 . S
C843 H851 0.949 . S
C844 C843 1.383 . S
C844 C845 1.377 . S
C845 H829 0.930 . S
C845 C844 1.377 . S
C845 C846 1.379 . S
C846 H830 0.931 . S
C846 C840 1.383 . S
C846 C845 1.379 . S
H847 C841 0.959 . S
H848 C841 0.961 . S
H849 C841 0.960 . S
H850 C842 0.930 . S
H851 C843 0.949 . S
H852 C860 0.929 . S
H853 C862 0.930 . S
H854 C864 0.930 . S
H855 C867 0.929 . S
H856 C870 0.930 . S
H857 C872 0.960 . S
H858 C872 0.960 . S
H859 C872 0.960 . S
C860 H852 0.929 . S
C860 C861 1.377 . S
C860 C862 1.384 . S
C861 C860 1.377 . S
C861 C867 1.390 . S
C862 H853 0.930 . S
C862 C860 1.384 . S
C862 C863 1.372 . S
C863 C862 1.372 . S
C863 C864 1.400 . S
C863 C868 1.490 . S
C864 H854 0.930 . S
C864 C863 1.400 . S
C864 C867 1.386 . S
H865 C881 0.930 . S
H866 C882 0.931 . S
C867 H855 0.929 . S
C867 C861 1.390 . S
C867 C864 1.386 . S
C868 C863 1.490 . S
C868 C870 1.395 . S
C868 C871 1.403 . S
H869 C875 0.930 . S
C870 H856 0.930 . S
C870 C868 1.395 . S
C870 C873 1.403 . S
C871 C868 1.403 . S
C871 C872 1.524 . S
C871 C875 1.400 . S
C872 H857 0.960 . S
C872 H858 0.960 . S
C872 H859 0.960 . S
C872 C871 1.524 . S
C873 C870 1.403 . S
C873 C874 1.392 . S
C873 C877 1.495 . S
C874 C873 1.392 . S
C874 C875 1.385 . S
C874 C876 1.478 . S
C875 H869 0.930 . S
C875 C871 1.400 . S
C875 C874 1.385 . S
C876 C874 1.478 . S
C876 C878 1.381 . S
C876 C882 1.383 . S
C877 C873 1.495 . S
C877 H883 0.959 . S
C877 H884 0.961 . S
C877 H885 0.960 . S
C878 C876 1.381 . S
C878 C879 1.394 . S
C878 H886 0.930 . S
C879 C878 1.394 . S
C879 C880 1.383 . S
C879 H887 0.929 . S
C880 C879 1.383 . S
C880 C881 1.377 . S
C881 H865 0.930 . S
C881 C880 1.377 . S
C881 C882 1.379 . S
C882 H866 0.931 . S
C882 C876 1.383 . S
C882 C881 1.379 . S
H883 C877 0.959 . S
H884 C877 0.961 . S
H885 C877 0.960 . S
H886 C878 0.930 . S
H887 C879 0.929 . S
H888 C896 0.929 . S
H889 C898 0.930 . S
H890 C900 0.930 . S
H891 C903 0.929 . S
H892 C906 0.930 . S
H893 C908 0.960 . S
H894 C908 0.960 . S
H895 C908 0.960 . S
C896 H888 0.929 . S
C896 C897 1.377 . S
C896 C898 1.384 . S
C897 C896 1.377 . S
C897 C903 1.390 . S
C898 H889 0.930 . S
C898 C896 1.384 . S
C898 C899 1.372 . S
C899 C898 1.372 . S
C899 C900 1.400 . S
C899 C904 1.490 . S
C900 H890 0.930 . S
C900 C899 1.400 . S
C900 C903 1.386 . S
H901 C917 0.930 1_455 S
H902 C918 0.941 . S
C903 H891 0.929 . S
C903 C897 1.390 . S
C903 C900 1.386 . S
C904 C899 1.490 . S
C904 C906 1.395 . S
C904 C907 1.403 . S
H905 C911 0.930 . S
C906 H892 0.930 . S
C906 C904 1.395 . S
C906 C909 1.403 . S
C907 C904 1.403 . S
C907 C908 1.524 . S
C907 C911 1.400 . S
C908 H893 0.960 . S
C908 H894 0.960 . S
C908 H895 0.960 . S
C908 C907 1.524 . S
C909 C906 1.403 . S
C909 C910 1.392 . S
C909 C913 1.495 1_565 S
C910 C909 1.392 . S
C910 C911 1.385 . S
C910 C912 1.478 . S
C911 H905 0.930 . S
C911 C907 1.400 . S
C911 C910 1.385 . S
C912 C910 1.478 . S
C912 C914 1.381 . S
C912 C918 1.383 . S
C913 C909 1.495 1_545 S
C913 H919 0.959 . S
C913 H920 0.961 . S
C913 H921 0.960 . S
C914 C912 1.381 . S
C914 C915 1.394 . S
C914 H922 0.930 . S
C915 C914 1.394 . S
C915 C916 1.383 . S
C915 H923 0.947 . S
C916 C915 1.383 . S
C916 C917 1.377 . S
C917 H901 0.930 1_655 S
C917 C916 1.377 . S
C917 C918 1.379 . S
C918 H902 0.941 . S
C918 C912 1.383 . S
C918 C917 1.379 . S
H919 C913 0.959 . S
H920 C913 0.961 . S
H921 C913 0.960 . S
H922 C914 0.930 . S
H923 C915 0.947 . S
H924 C932 0.929 . S
H925 C934 0.930 . S
H926 C936 0.930 . S
H927 C939 0.929 . S
H928 C942 0.930 . S
H929 C944 0.960 . S
H930 C944 0.960 . S
H931 C944 0.960 . S
C932 H924 0.929 . S
C932 C933 1.377 . S
C932 C934 1.384 . S
C933 C932 1.377 . S
C933 C939 1.390 . S
C934 H925 0.930 . S
C934 C932 1.384 . S
C934 C935 1.372 . S
C935 C934 1.372 . S
C935 C936 1.400 . S
C935 C940 1.490 . S
C936 H926 0.930 . S
C936 C935 1.400 . S
C936 C939 1.386 . S
H937 C953 0.930 . S
H938 C954 0.931 . S
C939 H927 0.929 . S
C939 C933 1.390 . S
C939 C936 1.386 . S
C940 C935 1.490 . S
C940 C942 1.395 . S
C940 C943 1.403 . S
H941 C947 0.930 . S
C942 H928 0.930 . S
C942 C940 1.395 . S
C942 C945 1.403 . S
C943 C940 1.403 . S
C943 C944 1.524 . S
C943 C947 1.400 . S
C944 H929 0.960 . S
C944 H930 0.960 . S
C944 H931 0.960 . S
C944 C943 1.524 . S
C945 C942 1.403 . S
C945 C946 1.392 . S
C945 C949 1.495 . S
C946 C945 1.392 . S
C946 C947 1.385 . S
C946 C948 1.478 . S
C947 H941 0.930 . S
C947 C943 1.400 . S
C947 C946 1.385 . S
C948 C946 1.478 . S
C948 C950 1.381 . S
C948 C954 1.383 . S
C949 C945 1.495 . S
C949 H955 0.959 . S
C949 H956 0.961 . S
C949 H957 0.960 . S
C950 C948 1.381 . S
C950 C951 1.394 . S
C950 H958 0.930 . S
C951 C950 1.394 . S
C951 C952 1.383 . S
C951 H959 0.929 1_545 S
C952 C951 1.383 . S
C952 C953 1.377 . S
C953 H937 0.930 . S
C953 C952 1.377 . S
C953 C954 1.379 . S
C954 H938 0.931 . S
C954 C948 1.383 . S
C954 C953 1.379 . S
H955 C949 0.959 . S
H956 C949 0.961 . S
H957 C949 0.960 . S
H958 C950 0.930 . S
H959 C951 0.929 1_565 S
H960 C968 0.929 . S
H961 C970 0.930 . S
H962 C972 0.930 . S
H963 C975 0.929 . S
H964 C978 0.930 . S
H965 C980 0.960 . S
H966 C980 0.960 . S
H967 C980 0.960 . S
C968 H960 0.929 . S
C968 C969 1.377 . S
C968 C970 1.384 . S
C969 C968 1.377 . S
C969 C975 1.390 . S
C970 H961 0.930 . S
C970 C968 1.384 . S
C970 C971 1.372 . S
C971 C970 1.372 . S
C971 C972 1.400 . S
C971 C976 1.490 . S
C972 H962 0.930 . S
C972 C971 1.400 . S
C972 C975 1.386 . S
H973 C989 0.930 . S
H974 C990 0.931 . S
C975 H963 0.929 . S
C975 C969 1.390 . S
C975 C972 1.386 . S
C976 C971 1.490 . S
C976 C978 1.395 . S
C976 C979 1.403 . S
H977 C983 0.930 . S
C978 H964 0.930 . S
C978 C976 1.395 . S
C978 C981 1.403 . S
C979 C976 1.403 . S
C979 C980 1.524 . S
C979 C983 1.400 . S
C980 H965 0.960 . S
C980 H966 0.960 . S
C980 H967 0.960 . S
C980 C979 1.524 . S
C981 C978 1.403 . S
C981 C982 1.392 . S
C981 C985 1.495 . S
C982 C981 1.392 . S
C982 C983 1.385 . S
C982 C984 1.478 . S
C983 H977 0.930 . S
C983 C979 1.400 . S
C983 C982 1.385 . S
C984 C982 1.478 . S
C984 C986 1.381 . S
C984 C990 1.383 . S
C985 C981 1.495 . S
C985 H991 0.959 . S
C985 H992 0.961 . S
C985 H993 0.960 . S
C986 C984 1.381 . S
C986 C987 1.394 . S
C986 H994 0.930 . S
C987 C986 1.394 . S
C987 C988 1.383 . S
C987 H995 0.929 . S
C988 C987 1.383 . S
C988 C989 1.377 . S
C989 H973 0.930 . S
C989 C988 1.377 . S
C989 C990 1.379 . S
C990 H974 0.931 . S
C990 C984 1.383 . S
C990 C989 1.379 . S
H991 C985 0.959 . S
H992 C985 0.961 . S
H993 C985 0.960 . S
H994 C986 0.930 . S
H995 C987 0.929 . S
H996 C1004 0.929 . S
H997 C1006 0.930 . S
H998 C1008 0.930 . S
H999 C1011 0.929 . S
H1000 C1014 0.930 . S
H1001 C1016 0.960 . S
H1002 C1016 0.960 . S
H1003 C1016 0.960 . S
C1004 H996 0.929 . S
C1004 C1005 1.377 . S
C1004 C1006 1.384 . S
C1005 C1004 1.377 . S
C1005 C1011 1.390 . S
C1006 H997 0.930 . S
C1006 C1004 1.384 . S
C1006 C1007 1.372 . S
C1007 C1006 1.372 . S
C1007 C1008 1.400 . S
C1007 C1012 1.490 . S
C1008 H998 0.930 . S
C1008 C1007 1.400 . S
C1008 C1011 1.386 . S
H1009 C1025 0.930 . S
H1010 C1026 0.931 . S
C1011 H999 0.929 . S
C1011 C1005 1.390 . S
C1011 C1008 1.386 . S
C1012 C1007 1.490 . S
C1012 C1014 1.395 . S
C1012 C1015 1.403 . S
H1013 C1019 0.930 . S
C1014 H1000 0.930 . S
C1014 C1012 1.395 . S
C1014 C1017 1.403 . S
C1015 C1012 1.403 . S
C1015 C1016 1.524 . S
C1015 C1019 1.400 . S
C1016 H1001 0.960 . S
C1016 H1002 0.960 . S
C1016 H1003 0.960 . S
C1016 C1015 1.524 . S
C1017 C1014 1.403 . S
C1017 C1018 1.392 . S
C1017 C1021 1.495 . S
C1018 C1017 1.392 . S
C1018 C1019 1.385 . S
C1018 C1020 1.478 . S
C1019 H1013 0.930 . S
C1019 C1015 1.400 . S
C1019 C1018 1.385 . S
C1020 C1018 1.478 . S
C1020 C1022 1.381 . S
C1020 C1026 1.383 . S
C1021 C1017 1.495 . S
C1021 H1027 0.959 . S
C1021 H1028 0.961 . S
C1021 H1029 0.960 . S
C1022 C1020 1.381 . S
C1022 C1023 1.394 . S
C1022 H1030 0.930 . S
C1023 C1022 1.394 . S
C1023 C1024 1.383 . S
C1023 H1031 0.929 . S
C1024 C1023 1.383 . S
C1024 C1025 1.377 . S
C1025 H1009 0.930 . S
C1025 C1024 1.377 . S
C1025 C1026 1.379 . S
C1026 H1010 0.931 . S
C1026 C1020 1.383 . S
C1026 C1025 1.379 . S
H1027 C1021 0.959 . S
H1028 C1021 0.961 . S
H1029 C1021 0.960 . S
H1030 C1022 0.930 . S
H1031 C1023 0.929 . S
H1032 C1040 0.929 . S
H1033 C1042 0.930 . S
H1034 C1044 0.930 . S
H1035 C1047 0.929 . S
H1036 C1050 0.930 . S
H1037 C1052 0.960 . S
H1038 C1052 0.960 . S
H1039 C1052 0.960 . S
C1040 H1032 0.929 . S
C1040 C1041 1.377 . S
C1040 C1042 1.384 . S
C1041 C1040 1.377 . S
C1041 C1047 1.390 . S
C1042 H1033 0.930 . S
C1042 C1040 1.384 . S
C1042 C1043 1.372 . S
C1043 C1042 1.372 . S
C1043 C1044 1.400 . S
C1043 C1048 1.490 . S
C1044 H1034 0.930 . S
C1044 C1043 1.400 . S
C1044 C1047 1.386 . S
H1045 C1061 0.930 . S
H1046 C1062 0.931 . S
C1047 H1035 0.929 . S
C1047 C1041 1.390 . S
C1047 C1044 1.386 . S
C1048 C1043 1.490 . S
C1048 C1050 1.395 . S
C1048 C1051 1.403 . S
H1049 C1055 0.930 . S
C1050 H1036 0.930 . S
C1050 C1048 1.395 . S
C1050 C1053 1.403 . S
C1051 C1048 1.403 . S
C1051 C1052 1.524 . S
C1051 C1055 1.400 . S
C1052 H1037 0.960 . S
C1052 H1038 0.960 . S
C1052 H1039 0.960 . S
C1052 C1051 1.524 . S
C1053 C1050 1.403 . S
C1053 C1054 1.392 . S
C1053 C1057 1.495 1_565 S
C1054 C1053 1.392 . S
C1054 C1055 1.385 . S
C1054 C1056 1.478 . S
C1055 H1049 0.930 . S
C1055 C1051 1.400 . S
C1055 C1054 1.385 . S
C1056 C1054 1.478 . S
C1056 C1058 1.381 . S
C1056 C1062 1.383 . S
C1057 C1053 1.495 1_545 S
C1057 H1063 0.959 . S
C1057 H1064 0.961 . S
C1057 H1065 0.960 . S
C1058 C1056 1.381 . S
C1058 C1059 1.394 . S
C1058 H1066 0.965 . S
C1059 C1058 1.394 . S
C1059 C1060 1.383 . S
C1059 H1067 0.929 1_556 S
C1060 C1059 1.383 . S
C1060 C1061 1.377 . S
C1061 H1045 0.930 . S
C1061 C1060 1.377 . S
C1061 C1062 1.379 . S
C1062 H1046 0.931 . S
C1062 C1056 1.383 . S
C1062 C1061 1.379 . S
H1063 C1057 0.959 . S
H1064 C1057 0.961 . S
H1065 C1057 0.960 . S
H1066 C1058 0.965 . S
H1067 C1059 0.929 1_554 S
H1068 C1076 0.929 . S
H1069 C1078 0.930 . S
H1070 C1080 0.930 . S
H1071 C1083 0.929 . S
H1072 C1086 0.930 . S
H1073 C1088 0.960 . S
H1074 C1088 0.960 . S
H1075 C1088 0.960 . S
C1076 H1068 0.929 . S
C1076 C1077 1.377 . S
C1076 C1078 1.384 . S
C1077 C1076 1.377 . S
C1077 C1083 1.390 . S
C1078 H1069 0.930 . S
C1078 C1076 1.384 . S
C1078 C1079 1.372 . S
C1079 C1078 1.372 . S
C1079 C1080 1.400 . S
C1079 C1084 1.490 . S
C1080 H1070 0.930 . S
C1080 C1079 1.400 . S
C1080 C1083 1.386 . S
H1081 C1097 0.930 . S
H1082 C1098 0.931 . S
C1083 H1071 0.929 . S
C1083 C1077 1.390 . S
C1083 C1080 1.386 . S
C1084 C1079 1.490 . S
C1084 C1086 1.395 . S
C1084 C1087 1.403 . S
H1085 C1091 0.930 . S
C1086 H1072 0.930 . S
C1086 C1084 1.395 . S
C1086 C1089 1.403 . S
C1087 C1084 1.403 . S
C1087 C1088 1.524 . S
C1087 C1091 1.400 . S
C1088 H1073 0.960 . S
C1088 H1074 0.960 . S
C1088 H1075 0.960 . S
C1088 C1087 1.524 . S
C1089 C1086 1.403 . S
C1089 C1090 1.392 . S
C1089 C1093 1.495 . S
C1090 C1089 1.392 . S
C1090 C1091 1.385 . S
C1090 C1092 1.478 . S
C1091 H1085 0.930 . S
C1091 C1087 1.400 . S
C1091 C1090 1.385 . S
C1092 C1090 1.478 . S
C1092 C1094 1.381 . S
C1092 C1098 1.383 . S
C1093 C1089 1.495 . S
C1093 H1099 0.959 . S
C1093 H1100 0.961 . S
C1093 H1101 0.960 . S
C1094 C1092 1.381 . S
C1094 C1095 1.394 . S
C1094 H1102 0.930 . S
C1095 C1094 1.394 . S
C1095 C1096 1.383 . S
C1095 H1103 0.929 . S
C1096 C1095 1.383 . S
C1096 C1097 1.377 . S
C1097 H1081 0.930 . S
C1097 C1096 1.377 . S
C1097 C1098 1.379 . S
C1098 H1082 0.931 . S
C1098 C1092 1.383 . S
C1098 C1097 1.379 . S
H1099 C1093 0.959 . S
H1100 C1093 0.961 . S
H1101 C1093 0.960 . S
H1102 C1094 0.930 . S
H1103 C1095 0.929 . S
H1104 C1112 0.929 . S
H1105 C1114 0.930 . S
H1106 C1116 0.930 . S
H1107 C1119 0.929 . S
H1108 C1122 0.930 . S
H1109 C1124 0.960 . S
H1110 C1124 0.960 . S
H1111 C1124 0.960 . S
C1112 H1104 0.929 . S
C1112 C1113 1.377 . S
C1112 C1114 1.384 . S
C1113 C1112 1.377 . S
C1113 C1119 1.390 . S
C1114 H1105 0.930 . S
C1114 C1112 1.384 . S
C1114 C1115 1.372 . S
C1115 C1114 1.372 . S
C1115 C1116 1.400 . S
C1115 C1120 1.490 . S
C1116 H1106 0.930 . S
C1116 C1115 1.400 . S
C1116 C1119 1.386 . S
H1117 C1133 0.930 . S
H1118 C1134 0.931 . S
C1119 H1107 0.929 . S
C1119 C1113 1.390 . S
C1119 C1116 1.386 . S
C1120 C1115 1.490 . S
C1120 C1122 1.395 . S
C1120 C1123 1.403 . S
H1121 C1127 0.930 . S
C1122 H1108 0.930 . S
C1122 C1120 1.395 . S
C1122 C1125 1.403 . S
C1123 C1120 1.403 . S
C1123 C1124 1.524 . S
C1123 C1127 1.400 . S
C1124 H1109 0.960 . S
C1124 H1110 0.960 . S
C1124 H1111 0.960 . S
C1124 C1123 1.524 . S
C1125 C1122 1.403 . S
C1125 C1126 1.392 . S
C1125 C1129 1.495 1_554 S
C1126 C1125 1.392 . S
C1126 C1127 1.385 . S
C1126 C1128 1.478 . S
C1127 H1121 0.930 . S
C1127 C1123 1.400 . S
C1127 C1126 1.385 . S
C1128 C1126 1.478 . S
C1128 C1130 1.381 . S
C1128 C1134 1.383 . S
C1129 C1125 1.495 1_556 S
C1129 H1135 0.959 . S
C1129 H1136 0.961 1_556 S
C1129 H1137 0.960 . S
C1130 C1128 1.381 . S
C1130 C1131 1.394 . S
C1130 H1138 0.930 1_554 S
C1131 C1130 1.394 . S
C1131 C1132 1.383 . S
C1131 H1139 0.929 1_554 S
C1132 C1131 1.383 . S
C1132 C1133 1.377 . S
C1133 H1117 0.930 . S
C1133 C1132 1.377 . S
C1133 C1134 1.379 . S
C1134 H1118 0.931 . S
C1134 C1128 1.383 . S
C1134 C1133 1.379 . S
H1135 C1129 0.959 . S
H1136 C1129 0.961 1_554 S
H1137 C1129 0.960 . S
H1138 C1130 0.930 1_556 S
H1139 C1131 0.929 1_556 S
H1140 C1148 0.929 . S
H1141 C1150 0.930 . S
H1142 C1152 0.930 . S
H1143 C1155 0.929 . S
H1144 C1158 0.930 . S
H1145 C1160 0.960 . S
H1146 C1160 0.960 . S
H1147 C1160 0.960 . S
C1148 H1140 0.929 . S
C1148 C1149 1.377 . S
C1148 C1150 1.384 . S
C1149 C1148 1.377 . S
C1149 C1155 1.390 . S
C1150 H1141 0.930 . S
C1150 C1148 1.384 . S
C1150 C1151 1.372 . S
C1151 C1150 1.372 . S
C1151 C1152 1.400 . S
C1151 C1156 1.490 . S
C1152 H1142 0.930 . S
C1152 C1151 1.400 . S
C1152 C1155 1.386 . S
H1153 C1169 0.930 . S
H1154 C1170 0.931 . S
C1155 H1143 0.929 . S
C1155 C1149 1.390 . S
C1155 C1152 1.386 . S
C1156 C1151 1.490 . S
C1156 C1158 1.395 . S
C1156 C1159 1.403 . S
H1157 C1163 0.930 . S
C1158 H1144 0.930 . S
C1158 C1156 1.395 . S
C1158 C1161 1.403 . S
C1159 C1156 1.403 . S
C1159 C1160 1.524 . S
C1159 C1163 1.400 . S
C1160 H1145 0.960 . S
C1160 H1146 0.960 . S
C1160 H1147 0.960 . S
C1160 C1159 1.524 . S
C1161 C1158 1.403 . S
C1161 C1162 1.392 . S
C1161 C1165 1.495 . S
C1162 C1161 1.392 . S
C1162 C1163 1.385 . S
C1162 C1164 1.478 . S
C1163 H1157 0.930 . S
C1163 C1159 1.400 . S
C1163 C1162 1.385 . S
C1164 C1162 1.478 . S
C1164 C1166 1.381 . S
C1164 C1170 1.383 . S
C1165 C1161 1.495 . S
C1165 H1171 0.959 . S
C1165 H1172 0.961 . S
C1165 H1173 0.960 . S
C1166 C1164 1.381 . S
C1166 C1167 1.394 . S
C1166 H1174 0.930 . S
C1167 C1166 1.394 . S
C1167 C1168 1.383 . S
C1167 H1175 0.929 . S
C1168 C1167 1.383 . S
C1168 C1169 1.377 . S
C1169 H1153 0.930 . S
C1169 C1168 1.377 . S
C1169 C1170 1.379 . S
C1170 H1154 0.931 . S
C1170 C1164 1.383 . S
C1170 C1169 1.379 . S
H1171 C1165 0.959 . S
H1172 C1165 0.961 . S
H1173 C1165 0.960 . S
H1174 C1166 0.930 . S
H1175 C1167 0.929 . S
H1176 C1184 0.929 . S
H1177 C1186 0.930 . S
H1178 C1188 0.930 . S
H1179 C1191 0.929 . S
H1180 C1194 0.930 . S
H1181 C1196 0.960 1_455 S
H1182 C1196 0.960 . S
H1183 C1196 0.960 . S
C1184 H1176 0.929 . S
C1184 C1185 1.377 . S
C1184 C1186 1.384 . S
C1185 C1184 1.377 . S
C1185 C1191 1.390 . S
C1186 H1177 0.930 . S
C1186 C1184 1.384 . S
C1186 C1187 1.372 . S
C1187 C1186 1.372 . S
C1187 C1188 1.400 . S
C1187 C1192 1.490 . S
C1188 H1178 0.930 . S
C1188 C1187 1.400 . S
C1188 C1191 1.386 . S
H1189 C1205 0.930 . S
H1190 C1206 0.931 . S
C1191 H1179 0.929 . S
C1191 C1185 1.390 . S
C1191 C1188 1.386 . S
C1192 C1187 1.490 . S
C1192 C1194 1.395 . S
C1192 C1195 1.403 . S
H1193 C1199 0.930 . S
C1194 H1180 0.930 . S
C1194 C1192 1.395 . S
C1194 C1197 1.403 . S
C1195 C1192 1.403 . S
C1195 C1196 1.524 . S
C1195 C1199 1.400 . S
C1196 H1181 0.960 1_655 S
C1196 H1182 0.960 . S
C1196 H1183 0.960 . S
C1196 C1195 1.524 . S
C1197 C1194 1.403 . S
C1197 C1198 1.392 . S
C1197 C1201 1.495 . S
C1198 C1197 1.392 . S
C1198 C1199 1.385 . S
C1198 C1200 1.478 . S
C1199 H1193 0.930 . S
C1199 C1195 1.400 . S
C1199 C1198 1.385 . S
C1200 C1198 1.478 . S
C1200 C1202 1.381 . S
C1200 C1206 1.383 . S
C1201 C1197 1.495 . S
C1201 H1207 0.959 . S
C1201 H1208 0.961 . S
C1201 H1209 0.960 . S
C1202 C1200 1.381 . S
C1202 C1203 1.394 . S
C1202 H1210 0.947 . S
C1203 C1202 1.394 . S
C1203 C1204 1.383 . S
C1203 H1211 0.929 1_556 S
C1204 C1203 1.383 . S
C1204 C1205 1.377 . S
C1205 H1189 0.930 . S
C1205 C1204 1.377 . S
C1205 C1206 1.379 . S
C1206 H1190 0.931 . S
C1206 C1200 1.383 . S
C1206 C1205 1.379 . S
H1207 C1201 0.959 . S
H1208 C1201 0.961 . S
H1209 C1201 0.960 . S
H1210 C1202 0.947 . S
H1211 C1203 0.929 1_554 S
H1212 C1220 0.929 . S
H1213 C1222 0.930 . S
H1214 C1224 0.930 . S
H1215 C1227 0.929 . S
H1216 C1230 0.930 . S
H1217 C1232 0.960 . S
H1218 C1232 0.960 . S
H1219 C1232 0.960 . S
C1220 H1212 0.929 . S
C1220 C1221 1.377 . S
C1220 C1222 1.384 . S
C1221 C1220 1.377 . S
C1221 C1227 1.390 . S
C1222 H1213 0.930 . S
C1222 C1220 1.384 . S
C1222 C1223 1.372 . S
C1223 C1222 1.372 . S
C1223 C1224 1.400 . S
C1223 C1228 1.490 . S
C1224 H1214 0.930 . S
C1224 C1223 1.400 . S
C1224 C1227 1.386 . S
H1225 C1241 0.930 . S
H1226 C1242 0.931 . S
C1227 H1215 0.929 . S
C1227 C1221 1.390 . S
C1227 C1224 1.386 . S
C1228 C1223 1.490 . S
C1228 C1230 1.395 . S
C1228 C1231 1.403 . S
H1229 C1235 0.930 . S
C1230 H1216 0.930 . S
C1230 C1228 1.395 . S
C1230 C1233 1.403 . S
C1231 C1228 1.403 . S
C1231 C1232 1.524 . S
C1231 C1235 1.400 . S
C1232 H1217 0.960 . S
C1232 H1218 0.960 . S
C1232 H1219 0.960 . S
C1232 C1231 1.524 . S
C1233 C1230 1.403 . S
C1233 C1234 1.392 . S
C1233 C1237 1.495 . S
C1234 C1233 1.392 . S
C1234 C1235 1.385 . S
C1234 C1236 1.478 . S
C1235 H1229 0.930 . S
C1235 C1231 1.400 . S
C1235 C1234 1.385 . S
C1236 C1234 1.478 . S
C1236 C1238 1.381 . S
C1236 C1242 1.383 . S
C1237 C1233 1.495 . S
C1237 H1243 0.959 . S
C1237 H1244 0.961 . S
C1237 H1245 0.960 . S
C1238 C1236 1.381 . S
C1238 C1239 1.394 . S
C1238 H1246 0.930 . S
C1239 C1238 1.394 . S
C1239 C1240 1.383 . S
C1239 H1247 0.929 . S
C1240 C1239 1.383 . S
C1240 C1241 1.377 . S
C1241 H1225 0.930 . S
C1241 C1240 1.377 . S
C1241 C1242 1.379 . S
C1242 H1226 0.931 . S
C1242 C1236 1.383 . S
C1242 C1241 1.379 . S
H1243 C1237 0.959 . S
H1244 C1237 0.961 . S
H1245 C1237 0.960 . S
H1246 C1238 0.930 . S
H1247 C1239 0.929 . S
H1248 C1256 0.929 . S
H1249 C1258 0.930 . S
H1250 C1260 0.930 . S
H1251 C1263 0.929 . S
H1252 C1266 0.930 . S
H1253 C1268 0.960 . S
H1254 C1268 0.960 . S
H1255 C1268 0.960 . S
C1256 H1248 0.929 . S
C1256 C1257 1.377 . S
C1256 C1258 1.384 . S
C1257 C1256 1.377 . S
C1257 C1263 1.390 . S
C1258 H1249 0.930 . S
C1258 C1256 1.384 . S
C1258 C1259 1.372 . S
C1259 C1258 1.372 . S
C1259 C1260 1.400 . S
C1259 C1264 1.490 . S
C1260 H1250 0.930 . S
C1260 C1259 1.400 . S
C1260 C1263 1.386 . S
H1261 C1277 0.930 . S
H1262 C1278 0.931 . S
C1263 H1251 0.929 . S
C1263 C1257 1.390 . S
C1263 C1260 1.386 . S
C1264 C1259 1.490 . S
C1264 C1266 1.395 . S
C1264 C1267 1.403 . S
H1265 C1271 0.930 . S
C1266 H1252 0.930 . S
C1266 C1264 1.395 . S
C1266 C1269 1.403 . S
C1267 C1264 1.403 . S
C1267 C1268 1.524 . S
C1267 C1271 1.400 . S
C1268 H1253 0.960 . S
C1268 H1254 0.960 . S
C1268 H1255 0.960 . S
C1268 C1267 1.524 . S
C1269 C1266 1.403 . S
C1269 C1270 1.392 . S
C1269 C1273 1.495 . S
C1270 C1269 1.392 . S
C1270 C1271 1.385 . S
C1270 C1272 1.478 . S
C1271 H1265 0.930 . S
C1271 C1267 1.400 . S
C1271 C1270 1.385 . S
C1272 C1270 1.478 . S
C1272 C1274 1.381 . S
C1272 C1278 1.383 . S
C1273 C1269 1.495 . S
C1273 H1279 0.959 . S
C1273 H1280 0.961 . S
C1273 H1281 0.960 . S
C1274 C1272 1.381 . S
C1274 C1275 1.394 . S
C1274 H1282 0.930 . S
C1275 C1274 1.394 . S
C1275 C1276 1.383 . S
C1275 H1283 0.929 . S
C1276 C1275 1.383 . S
C1276 C1277 1.377 . S
C1277 H1261 0.930 . S
C1277 C1276 1.377 . S
C1277 C1278 1.379 . S
C1278 H1262 0.931 . S
C1278 C1272 1.383 . S
C1278 C1277 1.379 . S
H1279 C1273 0.959 . S
H1280 C1273 0.961 . S
H1281 C1273 0.960 . S
H1282 C1274 0.930 . S
H1283 C1275 0.929 . S
H1284 C1292 0.929 . S
H1285 C1294 0.930 . S
H1286 C1296 0.930 . S
H1287 C1299 0.929 . S
H1288 C1302 0.930 . S
H1289 C1304 0.960 . S
H1290 C1304 0.960 . S
H1291 C1304 0.960 . S
C1292 H1284 0.929 . S
C1292 C1293 1.377 . S
C1292 C1294 1.384 . S
C1293 C1292 1.377 . S
C1293 C1299 1.390 . S
C1294 H1285 0.930 . S
C1294 C1292 1.384 . S
C1294 C1295 1.372 . S
C1295 C1294 1.372 . S
C1295 C1296 1.400 . S
C1295 C1300 1.490 . S
C1296 H1286 0.930 . S
C1296 C1295 1.400 . S
C1296 C1299 1.386 . S
H1297 C1313 0.930 . S
H1298 C1314 0.931 . S
C1299 H1287 0.929 . S
C1299 C1293 1.390 . S
C1299 C1296 1.386 . S
C1300 C1295 1.490 . S
C1300 C1302 1.395 . S
C1300 C1303 1.403 . S
H1301 C1307 0.930 . S
C1302 H1288 0.930 . S
C1302 C1300 1.395 . S
C1302 C1305 1.403 . S
C1303 C1300 1.403 . S
C1303 C1304 1.524 . S
C1303 C1307 1.400 . S
C1304 H1289 0.960 . S
C1304 H1290 0.960 . S
C1304 H1291 0.960 . S
C1304 C1303 1.524 . S
C1305 C1302 1.403 . S
C1305 C1306 1.392 . S
C1305 C1309 1.495 . S
C1306 C1305 1.392 . S
C1306 C1307 1.385 . S
C1306 C1308 1.478 . S
C1307 H1301 0.930 . S
C1307 C1303 1.400 . S
C1307 C1306 1.385 . S
C1308 C1306 1.478 . S
C1308 C1310 1.381 . S
C1308 C1314 1.383 . S
C1309 C1305 1.495 . S
C1309 H1315 0.959 . S
C1309 H1316 0.961 . S
C1309 H1317 0.960 . S
C1310 C1308 1.381 . S
C1310 C1311 1.394 . S
C1310 H1318 0.930 . S
C1311 C1310 1.394 . S
C1311 C1312 1.383 . S
C1311 H1319 0.929 . S
C1312 C1311 1.383 . S
C1312 C1313 1.377 . S
C1313 H1297 0.930 . S
C1313 C1312 1.377 . S
C1313 C1314 1.379 . S
C1314 H1298 0.931 . S
C1314 C1308 1.383 . S
C1314 C1313 1.379 . S
H1315 C1309 0.959 . S
H1316 C1309 0.961 . S
H1317 C1309 0.960 . S
H1318 C1310 0.930 . S
H1319 C1311 0.929 . S
C465 C21 2.392 . S
C484 C320 2.389 . S
C501 C61 2.279 . S
C520 C362 2.334 . S
C556 C392 0.936 . S
C537 C82 0.948 . S
C573 C135 1.074 . S
C592 C426 1.063 . S
C628 C383 1.906 . S
C609 C15 1.894 . S
C664 C337 1.920 . S
C645 C42 1.873 . S
C700 C430 1.383 . S
C681 C101 1.384 . S
C736 C396 1.400 . S
C717 C122 1.404 . S
C753 C2 2.288 . S
C772 C451 2.293 . S
C808 C358 1.108 . S
C789 C95 1.096 . S
C825 C141 1.167 . S
C844 C333 1.167 . S
C861 C55 2.185 . S
C880 C417 2.194 . S
C916 C349 2.398 . S
C897 C181 2.339 . S
C933 C202 2.255 . S
C952 C371 2.311 . S
C969 C255 0.968 . S
C988 C401 0.967 . S
C1005 C295 1.042 . S
C1024 C435 1.057 . S
C1041 C175 1.885 . S
C1060 C354 1.895 . S
C1096 C328 1.942 . S
C1077 C221 1.888 . S
C1132 C439 1.316 . S
C1113 C242 1.268 . S
C1168 C405 1.485 . S
C1149 C301 1.493 . S
C1185 C162 2.173 . S
C1204 C422 2.235 . S
C1240 C367 1.134 . S
C1221 C261 1.087 . S
C1276 C324 1.152 . S
C1257 C282 1.145 . S
C1293 C215 2.229 . S
C1312 C388 2.240 . S
