# Generated by pormake.
# Topology pth, (4,4)-cn, num edge types: 1
# Building blocks:
#     Node 0, Type 0, BuildingBlock: KUFVIS_clean_sbu_0, # of connection points: 4
#     Node 1, Type 0, BuildingBlock: KUFVIS_clean_sbu_0, # of connection points: 4
#     Node 2, Type 0, BuildingBlock: KUFVIS_clean_sbu_0, # of connection points: 4
#     Node 3, Type 1, BuildingBlock: MUDLON_clean_sbu_0, # of connection points: 4
#     Node 4, Type 1, BuildingBlock: MUDLON_clean_sbu_0, # of connection points: 4
#     Node 5, Type 1, BuildingBlock: MUDLON_clean_sbu_0, # of connection points: 4
#     Edge 6, Type (0, 1), BuildingBlock: ZUJKAS_clean_linker_0, # of connection points: 2
#     Edge 7, Type (0, 1), BuildingBlock: ZUJKAS_clean_linker_0, # of connection points: 2
#     Edge 8, Type (0, 1), BuildingBlock: ZUJKAS_clean_linker_0, # of connection points: 2
#     Edge 9, Type (0, 1), BuildingBlock: ZUJKAS_clean_linker_0, # of connection points: 2
#     Edge 10, Type (0, 1), BuildingBlock: ZUJKAS_clean_linker_0, # of connection points: 2
#     Edge 11, Type (0, 1), BuildingBlock: ZUJKAS_clean_linker_0, # of connection points: 2
#     Edge 12, Type (0, 1), BuildingBlock: ZUJKAS_clean_linker_0, # of connection points: 2
#     Edge 13, Type (0, 1), BuildingBlock: ZUJKAS_clean_linker_0, # of connection points: 2
#     Edge 14, Type (0, 1), BuildingBlock: ZUJKAS_clean_linker_0, # of connection points: 2
#     Edge 15, Type (0, 1), BuildingBlock: ZUJKAS_clean_linker_0, # of connection points: 2
#     Edge 16, Type (0, 1), BuildingBlock: ZUJKAS_clean_linker_0, # of connection points: 2
#     Edge 17, Type (0, 1), BuildingBlock: ZUJKAS_clean_linker_0, # of connection points: 2
# Relax obj value: 0.022
# Max RMSD: 0.097
# Mean RMSD: 0.069
data_MOF--net-pth--node1-KUFVIS_clean_sbu_0--node2-MUDLON_clean_sbu_0--edge1-ZUJKAS_clean_linker_0
_symmetry_space_group_name_H-M    P1
_symmetry_Int_Tables_number       1
_symmetry_cell_setting            triclinic
loop_
_symmetry_equiv_pos_as_xyz
'x, y, z'
_cell_length_a     28.943689
_cell_length_b     28.954421
_cell_length_c     78.215216
_cell_angle_alpha  90.368724
_cell_angle_beta   91.738343
_cell_angle_gamma 120.08713
loop_
_atom_site_label
_atom_site_type_symbol
_atom_site_fract_x
_atom_site_fract_y
_atom_site_fract_z
_atom_type_partial_charge
Mn0 Mn 0.06894 0.10244 0.08035 0.0
Mn1 Mn 0.99927 0.15044 0.05929 0.0
C2 C 0.01878 0.05808 0.05588 0.0
C3 C 0.07116 0.04962 0.1026 0.0
C4 C 0.11857 0.1961 0.05575 0.0
O5 O 0.07072 0.15668 0.09736 0.0
O6 O 0.02004 0.18291 0.08287 0.0
C7 C 0.90347 0.1005 0.08027 0.0
N8 N 0.92586 0.10816 0.06473 0.0
C9 C 0.83987 0.05362 0.05056 0.0
C10 C 0.81582 0.04535 0.0664 0.0
C11 C 0.84781 0.06871 0.08133 0.0
C12 C 0.89557 0.08526 0.05032 0.0
H13 H 0.92793 0.11853 0.09176 0.0
C14 C 0.04799 0.18454 0.09613 0.0
O15 O 0.11507 0.08735 0.09643 0.0
O16 O 0.02684 0.0434 0.09598 0.0
N17 N 0.97597 0.12338 0.03639 0.0
C18 C 1.00551 0.13483 0.02217 0.0
C19 C 0.9796 0.11444 1.00615 0.0
C20 C 0.92362 0.08337 1.00488 0.0
C21 C 0.89402 0.07259 0.01967 0.0
C22 C 0.92205 0.09388 0.03529 0.0
H23 H 0.04851 0.15934 0.02304 0.0
O24 O 0.05623 0.0497 0.06174 0.0
O25 O 1.0102 0.09078 0.06497 0.0
O26 O 0.12374 0.16392 0.06578 0.0
O27 O 0.07411 0.19462 0.05279 0.0
C28 C 0.83781 0.04172 0.01955 0.0
C29 C 0.8108 0.03178 0.03499 0.0
H30 H 0.77287 0.02106 0.06726 0.0
H31 H 0.82957 0.06239 0.09362 0.0
H32 H 1.0027 0.12299 0.99478 0.0
H33 H 0.90381 0.06811 0.99247 0.0
H34 H 0.81493 0.0252 1.00765 0.0
H35 H 0.76764 0.00746 0.03475 0.0
Mn36 Mn 0.04789 0.10082 0.41704 0.0
Mn37 Mn 0.09266 0.21825 0.43837 0.0
C38 C 0.10682 0.12247 0.44045 0.0
C39 C 0.05568 0.05096 0.39474 0.0
C40 C 0.98201 0.12216 0.44254 0.0
O41 O 0.02913 0.14376 0.40043 0.0
O42 O 0.06637 0.22244 0.41493 0.0
C43 C 0.18587 0.28643 0.41767 0.0
N44 N 0.16518 0.26665 0.43311 0.0
C45 C 0.25147 0.31789 0.44745 0.0
C46 C 0.27367 0.33908 0.43171 0.0
C47 C 0.24073 0.32316 0.41675 0.0
C48 C 0.19651 0.28156 0.44757 0.0
H49 H 0.16069 0.27423 0.40614 0.0
C50 C 0.04193 0.19283 0.40169 0.0
O51 O 1.01039 0.0356 0.40184 0.0
O52 O 0.09592 0.096 0.40024 0.0
N53 N 0.11981 0.2205 0.46116 0.0
C54 C 0.09271 0.19405 0.47513 0.0
C55 C 0.12003 0.20478 0.49111 0.0
C56 C 0.17474 0.24281 0.49256 0.0
C57 C 0.20182 0.26933 0.47799 0.0
C58 C 0.17238 0.25745 0.46245 0.0
H59 H 0.05057 0.16505 0.47412 0.0
O60 O 0.07718 0.07328 0.43515 0.0
O61 O 0.10186 0.15793 0.43167 0.0
O62 O 0.98734 0.09004 0.43263 0.0
O63 O 0.01821 0.17099 0.44502 0.0
C64 C 0.25701 0.30656 0.47824 0.0
C65 C 0.28185 0.33068 0.46297 0.0
H66 H 0.316 0.36726 0.43094 0.0
H67 H 0.25761 0.33915 0.40455 0.0
H68 H 0.09892 0.18397 0.50229 0.0
H69 H 0.19559 0.25126 0.50492 0.0
H70 H 0.28085 0.31639 0.49006 0.0
H71 H 0.32444 0.35868 0.46327 0.0
Mn72 Mn 0.07152 0.08884 0.74777 0.0
Mn73 Mn 0.05033 0.17892 0.76834 0.0
C74 C 0.12909 0.14037 0.77023 0.0
C75 C 0.10887 0.06777 0.72492 0.0
C76 C 0.98444 0.05922 0.77363 0.0
O77 O 0.01881 0.09656 0.7317 0.0
O78 O 0.01594 0.16428 0.74501 0.0
C79 C 0.11368 0.27309 0.7472 0.0
N80 N 0.10335 0.24972 0.76274 0.0
C81 C 0.17073 0.3311 0.77676 0.0
C82 C 0.18195 0.35617 0.76092 0.0
C83 C 0.15346 0.32695 0.74607 0.0
C84 C 0.13096 0.27726 0.77707 0.0
H85 H 0.09167 0.2508 0.73578 0.0
C86 C 1.00369 0.13111 0.73242 0.0
O87 O 0.06839 0.03088 0.73277 0.0
O88 O 0.12677 0.11662 0.73014 0.0
N89 N 0.08168 0.19717 0.79103 0.0
C90 C 0.06755 0.1665 0.80519 0.0
C91 C 0.09328 0.18937 0.82105 0.0
C92 C 0.13261 0.24366 0.82226 0.0
C93 C 0.14593 0.27456 0.80756 0.0
C94 C 0.1192 0.24953 0.79208 0.0
H95 H 0.03697 0.1249 0.80438 0.0
O96 O 0.12684 0.09633 0.76538 0.0
O97 O 0.09833 0.15326 0.76159 0.0
O98 O 0.01152 0.04573 0.76433 0.0
O99 O 0.99427 0.10731 0.77529 0.0
C100 C 0.1848 0.32919 0.80765 0.0
C101 C 0.19758 0.35734 0.79224 0.0
H102 H 0.21248 0.39774 0.76 0.0
H103 H 0.16199 0.34596 0.73379 0.0
H104 H 0.08269 0.16525 0.83234 0.0
H105 H 0.15239 0.26115 0.83451 0.0
H106 H 0.20572 0.34977 0.81947 0.0
H107 H 0.22829 0.39909 0.79243 0.0
Mg108 Mg 0.05966 0.6055 0.25076 0.0
C109 C 1.00601 0.48987 0.26162 0.0
O110 O 0.02805 0.48601 0.24766 0.0
C111 C 0.06984 0.68741 0.22839 0.0
O112 O 0.11772 0.69861 0.23399 0.0
C113 C 0.08435 0.56785 0.21918 0.0
O114 O 0.04347 0.57384 0.21491 0.0
O115 O 0.10497 0.58178 0.23431 0.0
O116 O 1.007 0.53352 0.26492 0.0
O117 O 0.09827 0.66751 0.27089 0.0
C118 C 0.06212 0.667 0.27995 0.0
O119 O 0.01233 0.62955 0.27662 0.0
O120 O 0.0297 0.6451 0.23364 0.0
Mg121 Mg 0.52731 0.06105 0.58101 0.0
C122 C 0.48201 0.08556 0.55077 0.0
O123 O 0.47584 0.03819 0.54751 0.0
C124 C 0.59354 0.07493 0.61196 0.0
O125 O 0.55007 0.02841 0.61356 0.0
C126 C 0.41195 0.0092 0.59324 0.0
O127 O 0.40193 0.01924 0.57765 0.0
O128 O 0.45849 0.01738 0.59724 0.0
O129 O 0.50621 0.10961 0.56474 0.0
O130 O 0.55004 0.01833 0.56291 0.0
C131 C 0.58748 0.00828 0.56609 0.0
O132 O 0.60733 0.01485 0.58181 0.0
O133 O 0.59632 0.10245 0.59897 0.0
Mg134 Mg 0.58827 0.60177 0.91492 0.0
C135 C 0.50475 0.5101 0.89528 0.0
O136 O 0.47982 0.52907 0.90414 0.0
C137 C 0.70544 0.66561 0.92602 0.0
O138 O 0.70888 0.68513 0.9107 0.0
C139 C 0.53263 0.5455 0.945 0.0
O140 O 0.56998 0.53321 0.94261 0.0
O141 O 0.52946 0.57819 0.93486 0.0
O142 O 0.55542 0.53267 0.89719 0.0
O143 O 0.60859 0.67268 0.89991 0.0
C144 C 0.59912 0.66922 0.8838 0.0
O145 O 0.56827 0.62194 0.87658 0.0
O146 O 0.66167 0.62501 0.93 0.0
H147 H 0.11226 0.2085 0.12529 0.0
H148 H 0.12658 0.27258 0.14832 0.0
H149 H 0.01646 0.31036 0.12246 0.0
H150 H 1.00142 0.2463 0.09951 0.0
H151 H 0.16501 0.38355 0.14632 0.0
H152 H 0.96065 0.27684 0.17097 0.0
H153 H 0.98544 0.24497 0.15698 0.0
H154 H 0.96132 0.28675 0.14832 0.0
C155 C 0.09068 0.23007 0.12454 0.0
C156 C 0.05543 0.22189 0.11051 0.0
C157 C 0.09912 0.26685 0.13771 0.0
C158 C 0.07212 0.29579 0.13723 0.0
C159 C 0.03702 0.28779 0.12327 0.0
H160 H 0.06188 0.55202 0.18507 0.0
H161 H 0.06689 0.48705 0.16639 0.0
C162 C 0.02865 0.25122 0.11009 0.0
C163 C 0.08117 0.33524 0.15106 0.0
H164 H 0.01527 0.36873 0.17966 0.0
C165 C 0.13251 0.37993 0.15382 0.0
C166 C 0.03882 0.3303 0.16094 0.0
C167 C 0.98357 0.28187 0.1593 0.0
C168 C 0.14183 0.42106 0.16556 0.0
C169 C 0.09887 0.41717 0.17477 0.0
C170 C 0.04812 0.3716 0.17252 0.0
C171 C 0.10413 0.46181 0.18563 0.0
C172 C 0.19681 0.46955 0.16759 0.0
C173 C 0.12494 0.47024 0.20256 0.0
C174 C 0.12222 0.5077 0.21337 0.0
C175 C 0.09826 0.53678 0.20737 0.0
C176 C 0.08032 0.53012 0.19013 0.0
C177 C 0.08311 0.49297 0.17941 0.0
H178 H 0.22609 0.46677 0.15941 0.0
H179 H 0.19499 0.50582 0.16422 0.0
H180 H 0.21122 0.47447 0.18116 0.0
H181 H 0.14108 0.44625 0.2076 0.0
H182 H 0.13597 0.5116 0.22662 0.0
H183 H 0.90944 0.0182 0.45009 0.0
H184 H 0.83529 0.98721 0.46954 0.0
H185 H 0.8696 0.14923 0.47711 0.0
H186 H 0.94431 0.18052 0.45818 0.0
H187 H 0.86116 0.10285 0.50681 0.0
H188 H 0.68702 0.96685 0.46453 0.0
H189 H 0.73936 0.9507 0.46533 0.0
H190 H 0.75153 0.01264 0.45633 0.0
C191 C 0.90059 0.04709 0.45567 0.0
C192 C 0.93298 0.1019 0.45258 0.0
C193 C 0.85797 0.02926 0.46675 0.0
C194 C 0.84638 0.06577 0.47471 0.0
C195 C 0.87767 0.12022 0.47117 0.0
H196 H 0.57825 0.02414 0.53191 0.0
H197 H 0.63885 0.03126 0.50965 0.0
C198 C 0.92045 0.13807 0.4603 0.0
C199 C 0.80449 0.0485 0.4877 0.0
H200 H 0.6711 0.96774 0.49413 0.0
C201 C 0.81962 0.07325 0.50401 0.0
C202 C 0.75014 0.01013 0.48405 0.0
C203 C 0.7308 0.98385 0.46657 0.0
C204 C 0.78214 0.0614 0.51667 0.0
C205 C 0.72794 0.02226 0.51317 0.0
C206 C 0.71271 0.99718 0.49689 0.0
C207 C 0.68634 0.00957 0.52597 0.0
C208 C 0.80086 0.09254 0.53345 0.0
C209 C 0.69112 0.99244 0.54236 0.0
C210 C 0.65686 0.9889 0.55519 0.0
C211 C 0.61646 1.00148 0.55181 0.0
C212 C 0.60897 0.01427 0.535 0.0
C213 C 0.64368 0.01842 0.52223 0.0
H214 H 0.83979 0.13002 0.53239 0.0
H215 H 0.77117 0.10296 0.538 0.0
H216 H 0.80619 0.0679 0.54325 0.0
H217 H 0.72276 0.98388 0.54544 0.0
H218 H 0.66339 0.97834 0.56793 0.0
H219 H 0.97347 0.96562 0.78566 0.0
H220 H 0.90385 0.90141 0.80383 0.0
H221 H 0.82512 0.99448 0.80174 0.0
H222 H 0.89603 0.06004 0.78435 0.0
H223 H 0.82623 0.96687 0.83266 0.0
H224 H 0.75697 0.78521 0.79222 0.0
H225 H 0.82687 0.81552 0.79768 0.0
H226 H 0.8027 0.85086 0.78472 0.0
C227 C 0.94096 0.97201 0.78892 0.0
C228 C 0.94018 0.01781 0.78349 0.0
C229 C 0.9009 0.93506 0.79924 0.0
C230 C 0.85832 0.94226 0.80395 0.0
C231 C 0.85729 0.98774 0.79832 0.0
H232 H 0.57857 0.68199 0.85036 0.0
H233 H 0.6379 0.75166 0.83121 0.0
C234 C 0.89786 0.0252 0.78832 0.0
C235 C 0.8162 0.90397 0.81535 0.0
H236 H 0.72911 0.77146 0.82113 0.0
C237 C 0.80466 0.92416 0.83001 0.0
C238 C 0.78704 0.84821 0.81185 0.0
C239 C 0.7936 0.82376 0.79566 0.0
C240 C 0.76583 0.89036 0.84137 0.0
C241 C 0.73906 0.83435 0.83843 0.0
C242 C 0.74983 0.81425 0.82358 0.0
C243 C 0.70042 0.79565 0.85059 0.0
C244 C 0.75329 0.91542 0.85617 0.0
C245 C 0.71489 0.79746 0.86802 0.0
C246 C 0.68033 0.75839 0.87909 0.0
C247 C 0.63112 0.71562 0.87289 0.0
C248 C 0.61612 0.71444 0.85556 0.0
C249 C 0.65022 0.75414 0.84457 0.0
H250 H 0.76182 0.95637 0.85319 0.0
H251 H 0.7108 0.89126 0.85957 0.0
H252 H 0.77896 0.91876 0.86748 0.0
H253 H 0.75385 0.82791 0.87298 0.0
H254 H 0.69351 0.76021 0.89231 0.0
H255 H 0.98386 0.96895 0.11704 0.0
H256 H 0.98094 0.90833 0.13903 0.0
H257 H 0.15304 0.98756 0.14108 0.0
H258 H 0.15641 0.04913 0.11904 0.0
H259 H 0.01988 0.83777 0.13781 0.0
H260 H 0.11664 0.98529 0.19154 0.0
H261 H 0.09123 0.99982 0.17219 0.0
H262 H 0.15439 1.00195 0.17249 0.0
C263 C 0.02124 0.97385 0.12221 0.0
C264 C 0.07046 0.0141 0.11631 0.0
C265 C 0.01941 0.93899 0.13478 0.0
C266 C 0.06669 0.94368 0.14185 0.0
C267 C 0.11602 0.98379 0.13602 0.0
H268 H 0.15074 0.77503 0.21433 0.0
H269 H 0.14537 0.83438 0.19359 0.0
C270 C 0.11792 0.0188 0.12338 0.0
C271 C 0.06393 0.90554 0.15498 0.0
H272 H 0.10117 0.89788 0.19623 0.0
C273 C 0.03738 0.8508 0.15062 0.0
C274 C 0.08648 0.92261 0.17171 0.0
C275 C 0.11339 0.98055 0.17738 0.0
C276 C 0.0343 0.81286 0.16237 0.0
C277 C 0.0575 0.83001 0.17904 0.0
C278 C 0.08328 0.8847 0.18346 0.0
C279 C 0.05903 0.79266 0.19172 0.0
C280 C 1.00794 0.75503 0.15662 0.0
C281 C 0.01208 0.74924 0.19774 0.0
C282 C 0.01495 0.71459 0.20968 0.0
C283 C 0.06485 0.72316 0.21586 0.0
C284 C 0.11153 0.76702 0.20989 0.0
C285 C 0.10863 0.80124 0.19801 0.0
H286 H 1.00295 0.75024 0.14246 0.0
H287 H 0.03159 0.73667 0.16123 0.0
H288 H 0.96773 0.73274 0.16203 0.0
H289 H 0.97328 0.74238 0.19332 0.0
H290 H 0.97829 0.68138 0.21408 0.0
H291 H 0.09948 0.07338 0.47044 0.0
H292 H 0.17262 0.08606 0.48999 0.0
H293 H 0.28513 0.21318 0.45889 0.0
H294 H 0.21219 0.19671 0.43854 0.0
H295 H 0.32372 0.15579 0.46582 0.0
H296 H 0.25535 0.187 0.52735 0.0
H297 H 0.20541 0.12372 0.5184 0.0
H298 H 0.22104 0.18414 0.50743 0.0
C299 C 0.13978 0.10467 0.46801 0.0
C300 C 0.15003 0.13581 0.45343 0.0
C301 C 0.18162 0.1124 0.4793 0.0
C302 C 0.23463 0.15193 0.47637 0.0
C303 C 0.24471 0.183 0.4617 0.0
H304 H 0.47434 0.17646 0.55456 0.0
H305 H 0.4225 0.20392 0.53608 0.0
C306 C 0.20295 0.17427 0.45019 0.0
C307 C 0.27975 0.15667 0.48751 0.0
H308 H 0.31748 0.15296 0.5291 0.0
C309 C 0.32268 0.15634 0.47967 0.0
C310 C 0.27971 0.15848 0.50564 0.0
C311 C 0.23811 0.16397 0.51514 0.0
C312 C 0.3634 0.15452 0.48932 0.0
C313 C 0.36034 0.15095 0.50734 0.0
C314 C 0.31948 0.15475 0.51527 0.0
C315 C 0.39565 0.13782 0.51792 0.0
C316 C 0.40893 0.15576 0.48003 0.0
C317 C 0.39779 0.09167 0.51392 0.0
C318 C 0.42753 0.07631 0.52429 0.0
C319 C 0.45529 0.10616 0.53916 0.0
C320 C 0.4537 0.15279 0.54315 0.0
C321 C 0.42397 0.1684 0.53263 0.0
H322 H 0.41683 0.17891 0.46813 0.0
H323 H 0.44625 0.17363 0.48817 0.0
H324 H 0.39804 0.11441 0.47627 0.0
H325 H 0.3751 0.06641 0.503 0.0
H326 H 0.42744 0.03999 0.52083 0.0
H327 H 0.20708 0.24122 0.76403 0.0
H328 H 0.28234 0.30197 0.78314 0.0
H329 H 0.22323 0.1839 0.82245 0.0
H330 H 0.14994 0.12215 0.80286 0.0
H331 H 0.28773 0.34932 0.81039 0.0
H332 H 0.3743 0.22322 0.82662 0.0
H333 H 0.32327 0.20431 0.80991 0.0
H334 H 0.30541 0.1894 0.83193 0.0
C335 C 0.21048 0.22843 0.77677 0.0
C336 C 0.17242 0.17765 0.78218 0.0
C337 C 0.2536 0.26296 0.78766 0.0
C338 C 0.2595 0.24741 0.80422 0.0
C339 C 0.22106 0.19644 0.80959 0.0
H340 H 0.39701 0.44701 0.8925 0.0
H341 H 0.34364 0.38332 0.86962 0.0
C342 C 0.17865 0.16143 0.79852 0.0
C343 C 0.30348 0.28579 0.81622 0.0
H344 H 0.39672 0.29686 0.8465 0.0
C345 C 0.31126 0.33749 0.81823 0.0
C346 C 0.3366 0.27186 0.82602 0.0
C347 C 0.33487 0.21937 0.82334 0.0
C348 C 0.34793 0.37394 0.83051 0.0
C349 C 0.37784 0.35846 0.84118 0.0
C350 C 0.37292 0.30822 0.83852 0.0
C351 C 0.41141 0.39298 0.85583 0.0
C352 C 0.35368 0.42856 0.83218 0.0
C353 C 0.46745 0.4181 0.85601 0.0
C354 C 0.49846 0.45485 0.86921 0.0
C355 C 0.47367 0.46675 0.88237 0.0
C356 C 0.41751 0.43935 0.88248 0.0
C357 C 0.38681 0.40287 0.86939 0.0
H358 H 0.33879 0.43907 0.82042 0.0
H359 H 0.32993 0.42899 0.84299 0.0
H360 H 0.39604 0.45967 0.83486 0.0
H361 H 0.48713 0.41074 0.84566 0.0
H362 H 0.54161 0.47527 0.86877 0.0
H363 H 0.98182 0.21085 0.7256 0.0
H364 H 0.91939 0.21088 0.70395 0.0
H365 H 0.88322 0.055 0.68573 0.0
H366 H 0.94673 0.05503 0.70719 0.0
H367 H 0.89171 0.12184 0.65931 0.0
H368 H 0.75888 0.12391 0.70866 0.0
H369 H 0.82624 0.17871 0.71068 0.0
H370 H 0.81295 0.11167 0.71372 0.0
C371 C 0.96082 0.17655 0.71697 0.0
C372 C 0.96885 0.13256 0.71832 0.0
C373 C 0.92494 0.17662 0.70461 0.0
C374 C 0.89567 0.13245 0.69347 0.0
C375 C 0.90513 0.0894 0.69428 0.0
H376 H 0.59508 0.02477 0.641 0.0
H377 H 0.67114 0.04413 0.65993 0.0
C378 C 0.94144 0.08945 0.70657 0.0
C379 C 0.85385 0.13034 0.68141 0.0
H380 H 0.7361 0.13105 0.67995 0.0
C381 C 0.85775 0.12402 0.66379 0.0
C382 C 0.80928 0.13273 0.6873 0.0
C383 C 0.80114 0.13662 0.70612 0.0
C384 C 0.8181 0.1196 0.65192 0.0
C385 C 0.77383 0.12251 0.65782 0.0
C386 C 0.77034 0.12946 0.67542 0.0
C387 C 0.72799 0.1131 0.64626 0.0
C388 C 0.82292 0.10982 0.63326 0.0
C389 C 0.73422 0.14611 0.63237 0.0
C390 C 0.6904 0.13498 0.62136 0.0
C391 C 0.63966 0.0908 0.62415 0.0
C392 C 0.63352 0.059 0.63838 0.0
C393 C 0.67706 0.07003 0.64928 0.0
H394 H 0.85315 0.09753 0.63134 0.0
H395 H 0.78394 0.07842 0.62758 0.0
H396 H 0.8353 0.14713 0.62621 0.0
H397 H 0.77293 0.18026 0.62998 0.0
H398 H 0.69645 0.1603 0.61054 0.0
H399 H 0.05061 0.04635 0.02486 0.0
H400 H 0.99737 0.97898 1.00256 0.0
H401 H 0.85778 0.92234 0.03287 0.0
H402 H 0.91094 0.99093 0.05493 0.0
H403 H 0.94946 0.87343 1.00592 0.0
H404 H 0.79457 0.92475 0.98672 0.0
H405 H 0.85628 0.97105 0.99791 0.0
H406 H 0.80215 0.91981 0.0094 0.0
C407 C 1.00815 0.02052 0.02645 0.0
C408 C 0.98439 0.02481 0.0413 0.0
C409 C 0.97784 0.9818 0.01379 0.0
C410 C 0.92328 0.94578 0.01586 0.0
C411 C 0.89932 0.95048 0.03067 0.0
H412 H 0.69934 0.65067 0.96068 0.0
H413 H 0.75573 0.71567 0.98315 0.0
C414 C 0.92964 0.98973 0.04327 0.0
C415 C 0.89297 0.90106 1.00316 0.0
H416 H 0.78245 0.84279 0.97608 0.0
C417 C 0.91303 0.86692 0.99938 0.0
C418 C 0.84533 0.89228 0.99458 0.0
C419 C 0.82333 0.92905 0.99721 0.0
C420 C 0.88674 0.82452 0.98734 0.0
C421 C 0.83918 0.81586 0.97893 0.0
C422 C 0.81883 0.84948 0.98271 0.0
C423 C 0.81058 0.77319 0.96569 0.0
C424 C 0.90973 0.78915 0.98355 0.0
C425 C 0.82382 0.78356 0.9485 0.0
C426 C 0.7917 0.74662 0.93561 0.0
C427 C 0.74563 0.69869 0.93969 0.0
C428 C 0.73452 0.68706 0.95705 0.0
C429 C 0.76657 0.7242 0.96993 0.0
H430 H 0.94605 0.79977 0.99165 0.0
H431 H 0.87931 0.74682 0.98563 0.0
H432 H 0.92015 0.79251 0.96989 0.0
H433 H 0.85764 0.8213 0.94502 0.0
H434 H 0.8015 0.7569 0.9224 0.0
H435 H 0.97967 0.95299 0.38173 0.0
H436 H 0.99182 0.89519 0.36161 0.0
H437 H 0.15793 0.01479 0.35798 0.0
H438 H 0.14631 0.07258 0.37828 0.0
H439 H 0.02572 0.91279 0.32812 0.0
H440 H 0.16572 0.88153 0.3701 0.0
H441 H 0.1269 0.90957 0.37805 0.0
H442 H 0.18556 0.94998 0.3662 0.0
C443 C 0.01877 0.96711 0.37662 0.0
C444 C 0.06206 0.01732 0.38168 0.0
C445 C 0.02567 0.93399 0.36513 0.0
C446 C 0.07601 0.95022 0.35851 0.0
C447 C 0.11902 1.00089 0.3632 0.0
H448 H 0.15321 0.76592 0.28509 0.0
H449 H 0.16338 0.83946 0.30388 0.0
C450 C 0.11216 0.03405 0.37471 0.0
C451 C 0.08296 0.91401 0.34661 0.0
H452 H 0.14502 0.84045 0.34259 0.0
C453 C 0.05209 0.89732 0.33125 0.0
C454 C 0.11763 0.89397 0.35065 0.0
C455 C 0.1506 0.90923 0.36719 0.0
C456 C 0.05413 0.86045 0.32 0.0
C457 C 0.08744 0.83915 0.32428 0.0
C458 C 0.11972 0.85707 0.33933 0.0
C459 C 0.08462 0.79429 0.31411 0.0
C460 C 0.01986 0.84372 0.3037 0.0
C461 C 0.03791 0.74432 0.31413 0.0
C462 C 0.03214 0.70263 0.30358 0.0
C463 C 0.07302 0.70976 0.29273 0.0
C464 C 0.12105 0.75914 0.29331 0.0
C465 C 0.12683 0.80117 0.30398 0.0
H466 H 1.0069 0.87276 0.30023 0.0
H467 H 0.04168 0.83952 0.29292 0.0
H468 H 0.98357 0.80437 0.30548 0.0
H469 H 1.00521 0.73796 0.32204 0.0
H470 H 0.99479 0.66505 0.30362 0.0
H471 H 0.07558 0.97095 0.70876 0.0
H472 H 0.12009 0.95118 0.68601 0.0
H473 H 0.24613 0.11598 0.68731 0.0
H474 H 0.20123 0.13622 0.70957 0.0
H475 H 0.21523 0.08061 0.65527 0.0
H476 H 0.24984 0.93422 0.69043 0.0
H477 H 0.18089 0.91648 0.6886 0.0
H478 H 0.22783 0.97528 0.70079 0.0
C479 C 0.11279 1.00292 0.70418 0.0
C480 C 0.13488 0.05514 0.711 0.0
C481 C 0.13845 0.99148 0.69127 0.0
C482 C 0.18709 0.03185 0.68512 0.0
C483 C 0.2088 0.08405 0.69184 0.0
H484 H 0.42958 0.01552 0.62805 0.0
H485 H 0.37103 0.0157 0.64991 0.0
C486 C 0.18302 0.09558 0.7046 0.0
C487 C 0.21512 0.02065 0.67142 0.0
H488 H 0.27298 0.94645 0.66134 0.0
C489 C 0.22771 0.05115 0.6566 0.0
C490 C 0.23206 0.98266 0.6732 0.0
C491 C 0.22248 0.95061 0.68917 0.0
C492 C 0.25704 0.04522 0.64363 0.0
C493 C 0.273 1.00643 0.64522 0.0
C494 C 0.2602 0.97567 0.66 0.0
C495 C 0.30559 0.99955 0.63213 0.0
C496 C 0.27237 0.08214 0.62867 0.0
C497 C 0.28756 0.98808 0.61491 0.0
C498 C 0.32119 0.98845 0.60234 0.0
C499 C 0.37326 0.99938 0.60676 0.0
C500 C 0.38978 1.007 0.62417 0.0
C501 C 0.35632 1.0072 0.6367 0.0
H502 H 0.26963 0.11827 0.63163 0.0
H503 H 0.31372 0.09511 0.6249 0.0
H504 H 0.2447 0.06085 0.61758 0.0
H505 H 0.24802 0.98045 0.6111 0.0
H506 H 0.30695 0.98187 0.58909 0.0
H507 H 0.12221 0.27185 0.03428 0.0
H508 H 0.19609 0.33465 0.0175 0.0
H509 H 0.29575 0.27665 0.03906 0.0
H510 H 0.22123 0.21241 0.05588 0.0
H511 H 0.29753 0.41648 0.02698 0.0
H512 H 0.30614 0.26086 0.98752 0.0
H513 H 0.25102 0.2459 1.00098 0.0
H514 H 0.31289 0.25538 0.01021 0.0
C515 C 0.15975 0.27221 0.03558 0.0
C516 C 0.16541 0.23649 0.04642 0.0
C517 C 0.2021 0.30844 0.02594 0.0
C518 C 0.25124 0.30993 0.02681 0.0
C519 C 0.25781 0.27552 0.03794 0.0
H520 H 0.53958 0.48584 0.97052 0.0
H521 H 0.47264 0.43278 0.99105 0.0
C522 C 0.21525 0.23902 0.04764 0.0
C523 C 0.29483 0.34701 0.01575 0.0
H524 H 0.37111 0.35044 0.98278 0.0
C525 C 0.31372 0.40209 0.01732 0.0
C526 C 0.31561 0.32817 1.00307 0.0
C527 C 0.29516 0.26935 1.00017 0.0
C528 C 0.35333 0.43885 1.00672 0.0
C529 C 0.37401 0.41994 0.99404 0.0
C530 C 0.35524 0.36491 0.99251 0.0
C531 C 0.41596 0.45631 0.98238 0.0
C532 C 0.37335 0.49763 0.00939 0.0
C533 C 0.40674 0.48792 0.97072 0.0
C534 C 0.44531 0.51873 0.95889 0.0
C535 C 0.49346 0.51798 0.95845 0.0
C536 C 0.50287 0.48725 0.97042 0.0
C537 C 0.4646 0.45677 0.9822 0.0
H538 H 0.36327 0.50647 0.02214 0.0
H539 H 0.41733 0.52143 1.00817 0.0
H540 H 0.35444 0.51075 0.99949 0.0
H541 H 0.3691 0.48749 0.97041 0.0
H542 H 0.43668 0.54164 0.94977 0.0
H543 H 0.98391 0.14493 0.37173 0.0
H544 H 0.96732 0.18834 0.34734 0.0
H545 H 0.05533 0.34065 0.37392 0.0
H546 H 0.07209 0.29818 0.39827 0.0
H547 H 0.91929 0.26222 0.34733 0.0
H548 H 0.12867 0.3545 0.32646 0.0
H549 H 0.09931 0.29698 0.33993 0.0
H550 H 0.12034 0.36217 0.34881 0.0
C551 C 0.99955 0.18762 0.37244 0.0
C552 C 0.02956 0.21794 0.38701 0.0
C553 C 0.98986 0.2123 0.3585 0.0
C554 C 1.01037 0.26772 0.35881 0.0
C555 C 0.03942 0.29788 0.3734 0.0
H556 H 0.97412 0.491 0.29437 0.0
H557 H 0.9679 0.43175 0.31756 0.0
C558 C 0.04887 0.27336 0.38733 0.0
C559 C 1.00335 0.29477 0.34372 0.0
H560 H 0.073 0.38168 0.31247 0.0
C561 C 0.95274 0.28813 0.33963 0.0
C562 C 0.04703 0.32833 0.33367 0.0
C563 C 0.10193 0.33584 0.33728 0.0
C564 C 0.94504 0.31523 0.32593 0.0
C565 C 0.98905 0.3497 0.31613 0.0
C566 C 0.03933 0.35538 0.32004 0.0
C567 C 0.98436 0.38053 0.30173 0.0
C568 C 0.88999 0.30669 0.32192 0.0
C569 C 0.9946 0.3708 0.28507 0.0
C570 C 0.99791 0.40433 0.2718 0.0
C571 C 0.99177 0.44888 0.27493 0.0
C572 C 0.97886 0.45701 0.29147 0.0
C573 C 0.97525 0.42313 0.30476 0.0
H574 H 0.85864 0.27158 0.32852 0.0
H575 H 0.88851 0.34258 0.32613 0.0
H576 H 0.8808 0.301 0.30791 0.0
H577 H 1.00185 0.33823 0.28246 0.0
H578 H 1.00784 0.39669 0.25925 0.0
loop_
_geom_bond_atom_site_label_1
_geom_bond_atom_site_label_2
_geom_bond_distance
_geom_bond_site_symmetry_2
_ccdc_geom_bond_type
Mn0 O5 2.095 . S
Mn0 O15 2.162 . S
Mn0 O16 2.297 . S
Mn0 O24 2.385 . S
Mn0 O25 2.209 . S
Mn0 O26 2.094 . S
Mn1 O6 2.121 . S
Mn1 N8 2.257 1_455 S
Mn1 N17 2.282 . S
Mn1 O25 2.215 . S
Mn1 O27 2.117 . S
C2 O24 1.234 . S
C2 O25 1.283 . S
C3 O15 1.281 . S
C3 O16 1.236 . S
C4 O26 1.240 . S
C4 O27 1.264 . S
O5 Mn0 2.095 . S
O5 C14 1.250 . S
O6 Mn1 2.121 . S
O6 C14 1.258 . S
C7 N8 1.326 . S
C7 C11 1.460 . S
C7 H13 0.929 . S
N8 Mn1 2.257 1_655 S
N8 C7 1.326 . S
N8 C12 1.362 . S
C9 C10 1.258 . S
C9 C12 1.431 . S
C9 C29 1.449 . S
C10 C9 1.258 . S
C10 C11 1.477 . S
C10 H30 0.931 . S
C11 C7 1.460 . S
C11 C10 1.477 . S
C11 H31 0.930 . S
C12 N8 1.362 . S
C12 C9 1.431 . S
C12 C22 1.476 . S
H13 C7 0.929 . S
C14 O5 1.250 . S
C14 O6 1.258 . S
O15 Mn0 2.162 . S
O15 C3 1.281 . S
O16 Mn0 2.297 . S
O16 C3 1.236 . S
N17 Mn1 2.282 . S
N17 C18 1.328 . S
N17 C22 1.318 1_455 S
C18 N17 1.328 . S
C18 C19 1.457 1_554 S
C18 H23 0.929 . S
C19 C18 1.457 1_556 S
C19 C20 1.291 1_455 S
C19 H32 0.931 . S
C20 C19 1.291 1_655 S
C20 C21 1.373 1_556 S
C20 H33 0.929 . S
C21 C20 1.373 1_554 S
C21 C22 1.396 . S
C21 C28 1.403 . S
C22 C12 1.476 . S
C22 N17 1.318 1_655 S
C22 C21 1.396 . S
H23 C18 0.929 . S
O24 Mn0 2.385 . S
O24 C2 1.234 . S
O25 Mn0 2.209 . S
O25 Mn1 2.215 . S
O25 C2 1.283 . S
O26 Mn0 2.094 . S
O26 C4 1.240 . S
O27 Mn1 2.117 . S
O27 C4 1.264 . S
C28 C21 1.403 . S
C28 C29 1.399 . S
C28 H34 0.929 1_554 S
C29 C9 1.449 . S
C29 C28 1.399 . S
C29 H35 0.930 . S
H30 C10 0.931 . S
H31 C11 0.930 . S
H32 C19 0.931 . S
H33 C20 0.929 . S
H34 C28 0.929 1_556 S
H35 C29 0.930 . S
Mn36 O41 2.095 . S
Mn36 O51 2.162 1_445 S
Mn36 O52 2.297 . S
Mn36 O60 2.385 . S
Mn36 O61 2.209 . S
Mn36 O62 2.094 1_455 S
Mn37 O42 2.121 . S
Mn37 N44 2.257 . S
Mn37 N53 2.282 . S
Mn37 O61 2.215 . S
Mn37 O63 2.117 1_455 S
C38 O60 1.234 . S
C38 O61 1.283 . S
C39 O51 1.281 1_455 S
C39 O52 1.236 1_565 S
C40 O62 1.240 . S
C40 O63 1.264 . S
O41 Mn36 2.095 . S
O41 C50 1.250 . S
O42 Mn37 2.121 . S
O42 C50 1.258 . S
C43 N44 1.326 . S
C43 C47 1.460 . S
C43 H49 0.929 . S
N44 Mn37 2.257 . S
N44 C43 1.326 . S
N44 C48 1.362 . S
C45 C46 1.258 . S
C45 C48 1.431 . S
C45 C65 1.449 . S
C46 C45 1.258 . S
C46 C47 1.477 . S
C46 H66 0.931 . S
C47 C43 1.460 . S
C47 C46 1.477 . S
C47 H67 0.930 . S
C48 N44 1.362 . S
C48 C45 1.431 . S
C48 C58 1.476 . S
H49 C43 0.929 . S
C50 O41 1.250 . S
C50 O42 1.258 . S
O51 Mn36 2.162 1_665 S
O51 C39 1.281 1_655 S
O52 Mn36 2.297 . S
O52 C39 1.236 1_545 S
N53 Mn37 2.282 . S
N53 C54 1.328 . S
N53 C58 1.318 . S
C54 N53 1.328 . S
C54 C55 1.457 . S
C54 H59 0.929 . S
C55 C54 1.457 . S
C55 C56 1.291 . S
C55 H68 0.931 . S
C56 C55 1.291 . S
C56 C57 1.373 . S
C56 H69 0.929 . S
C57 C56 1.373 . S
C57 C58 1.396 . S
C57 C64 1.403 . S
C58 C48 1.476 . S
C58 N53 1.318 . S
C58 C57 1.396 . S
H59 C54 0.929 . S
O60 Mn36 2.385 . S
O60 C38 1.234 . S
O61 Mn36 2.209 . S
O61 Mn37 2.215 . S
O61 C38 1.283 . S
O62 Mn36 2.094 1_655 S
O62 C40 1.240 . S
O63 Mn37 2.117 1_655 S
O63 C40 1.264 . S
C64 C57 1.403 . S
C64 C65 1.399 . S
C64 H70 0.929 . S
C65 C45 1.449 . S
C65 C64 1.399 . S
C65 H71 0.930 . S
H66 C46 0.931 . S
H67 C47 0.930 . S
H68 C55 0.931 . S
H69 C56 0.929 . S
H70 C64 0.929 . S
H71 C65 0.930 . S
Mn72 O77 2.095 1_455 S
Mn72 O87 2.162 . S
Mn72 O88 2.297 . S
Mn72 O96 2.385 . S
Mn72 O97 2.209 . S
Mn72 O98 2.094 . S
Mn73 O78 2.121 . S
Mn73 N80 2.257 1_655 S
Mn73 N89 2.282 1_655 S
Mn73 O97 2.215 1_655 S
Mn73 O99 2.117 . S
C74 O96 1.234 . S
C74 O97 1.283 . S
C75 O87 1.281 . S
C75 O88 1.236 . S
C76 O98 1.240 1_655 S
C76 O99 1.264 . S
O77 Mn72 2.095 1_655 S
O77 C86 1.250 . S
O78 Mn73 2.121 . S
O78 C86 1.258 . S
C79 N80 1.326 . S
C79 C83 1.460 . S
C79 H85 0.929 1_455 S
N80 Mn73 2.257 1_455 S
N80 C79 1.326 . S
N80 C84 1.362 . S
C81 C82 1.258 . S
C81 C84 1.431 . S
C81 C101 1.449 . S
C82 C81 1.258 . S
C82 C83 1.477 . S
C82 H102 0.931 . S
C83 C79 1.460 . S
C83 C82 1.477 . S
C83 H103 0.930 . S
C84 N80 1.362 . S
C84 C81 1.431 . S
C84 C94 1.476 . S
H85 C79 0.929 1_655 S
C86 O77 1.250 . S
C86 O78 1.258 . S
O87 Mn72 2.162 . S
O87 C75 1.281 . S
O88 Mn72 2.297 . S
O88 C75 1.236 . S
N89 Mn73 2.282 1_455 S
N89 C90 1.328 . S
N89 C94 1.318 . S
C90 N89 1.328 . S
C90 C91 1.457 . S
C90 H95 0.929 . S
C91 C90 1.457 . S
C91 C92 1.291 . S
C91 H104 0.931 . S
C92 C91 1.291 . S
C92 C93 1.373 . S
C92 H105 0.929 . S
C93 C92 1.373 . S
C93 C94 1.396 . S
C93 C100 1.403 . S
C94 C84 1.476 . S
C94 N89 1.318 . S
C94 C93 1.396 . S
H95 C90 0.929 . S
O96 Mn72 2.385 . S
O96 C74 1.234 . S
O97 Mn72 2.209 . S
O97 Mn73 2.215 1_455 S
O97 C74 1.283 . S
O98 Mn72 2.094 . S
O98 C76 1.240 1_455 S
O99 Mn73 2.117 . S
O99 C76 1.264 . S
C100 C93 1.403 . S
C100 C101 1.399 . S
C100 H106 0.929 . S
C101 C81 1.449 . S
C101 C100 1.399 . S
C101 H107 0.930 . S
H102 C82 0.931 . S
H103 C83 0.930 . S
H104 C91 0.931 . S
H105 C92 0.929 . S
H106 C100 0.929 . S
H107 C101 0.930 . S
Mg108 O115 2.141 . S
Mg108 O116 2.048 . S
Mg108 O117 2.048 . S
Mg108 O120 2.141 . S
C109 O110 1.313 1_455 S
C109 O116 1.195 . S
O110 C109 1.313 1_655 S
C111 O112 1.245 1_455 S
C111 O120 1.289 . S
O112 C111 1.245 1_655 S
C113 O114 1.245 1_455 S
C113 O115 1.289 . S
O114 C113 1.245 1_655 S
O115 Mg108 2.141 . S
O115 C113 1.289 . S
O116 Mg108 2.048 . S
O116 C109 1.195 . S
O117 Mg108 2.048 . S
O117 C118 1.195 . S
C118 O117 1.195 . S
C118 O119 1.313 1_455 S
O119 C118 1.313 1_655 S
O120 Mg108 2.141 . S
O120 C111 1.289 . S
Mg121 O128 2.141 . S
Mg121 O129 2.048 . S
Mg121 O130 2.048 . S
Mg121 O133 2.141 . S
C122 O123 1.313 . S
C122 O129 1.195 . S
O123 C122 1.313 . S
C124 O125 1.245 . S
C124 O133 1.289 . S
O125 C124 1.245 . S
C126 O127 1.245 . S
C126 O128 1.289 . S
O127 C126 1.245 . S
O128 Mg121 2.141 . S
O128 C126 1.289 . S
O129 Mg121 2.048 . S
O129 C122 1.195 . S
O130 Mg121 2.048 . S
O130 C131 1.195 . S
C131 O130 1.195 . S
C131 O132 1.313 . S
O132 C131 1.313 . S
O133 Mg121 2.141 . S
O133 C124 1.289 . S
Mg134 O141 2.141 . S
Mg134 O142 2.048 . S
Mg134 O143 2.048 . S
Mg134 O146 2.141 . S
C135 O136 1.313 . S
C135 O142 1.195 . S
O136 C135 1.313 . S
C137 O138 1.245 . S
C137 O146 1.289 . S
O138 C137 1.245 . S
C139 O140 1.245 . S
C139 O141 1.289 . S
O140 C139 1.245 . S
O141 Mg134 2.141 . S
O141 C139 1.289 . S
O142 Mg134 2.048 . S
O142 C135 1.195 . S
O143 Mg134 2.048 . S
O143 C144 1.195 . S
C144 O143 1.195 . S
C144 O145 1.313 . S
O145 C144 1.313 . S
O146 Mg134 2.141 . S
O146 C137 1.289 . S
H147 C155 0.929 . S
H148 C157 0.930 . S
H149 C159 0.946 . S
H150 C162 0.929 . S
H151 C165 0.930 . S
H152 C167 0.960 . S
H153 C167 0.960 . S
H154 C167 0.960 . S
C155 H147 0.929 . S
C155 C156 1.377 . S
C155 C157 1.384 . S
C156 C155 1.377 . S
C156 C162 1.390 . S
C157 H148 0.930 . S
C157 C155 1.384 . S
C157 C158 1.372 . S
C158 C157 1.372 . S
C158 C159 1.400 . S
C158 C163 1.490 . S
C159 H149 0.946 . S
C159 C158 1.400 . S
C159 C162 1.386 . S
H160 C176 0.930 . S
H161 C177 0.931 . S
C162 H150 0.929 . S
C162 C156 1.390 . S
C162 C159 1.386 . S
C163 C158 1.490 . S
C163 C165 1.395 . S
C163 C166 1.403 . S
H164 C170 0.930 1_655 S
C165 H151 0.930 . S
C165 C163 1.395 . S
C165 C168 1.403 . S
C166 C163 1.403 . S
C166 C167 1.524 1_455 S
C166 C170 1.400 . S
C167 H152 0.960 . S
C167 H153 0.960 . S
C167 H154 0.960 . S
C167 C166 1.524 1_655 S
C168 C165 1.403 . S
C168 C169 1.392 . S
C168 C172 1.495 . S
C169 C168 1.392 . S
C169 C170 1.385 . S
C169 C171 1.478 . S
C170 H164 0.930 1_455 S
C170 C166 1.400 . S
C170 C169 1.385 . S
C171 C169 1.478 . S
C171 C173 1.381 . S
C171 C177 1.383 . S
C172 C168 1.495 . S
C172 H178 0.959 . S
C172 H179 0.961 . S
C172 H180 0.960 . S
C173 C171 1.381 . S
C173 C174 1.394 . S
C173 H181 0.930 . S
C174 C173 1.394 . S
C174 C175 1.383 . S
C174 H182 0.929 . S
C175 C174 1.383 . S
C175 C176 1.377 . S
C176 H160 0.930 . S
C176 C175 1.377 . S
C176 C177 1.379 . S
C177 H161 0.931 . S
C177 C171 1.383 . S
C177 C176 1.379 . S
H178 C172 0.959 . S
H179 C172 0.961 . S
H180 C172 0.960 . S
H181 C173 0.930 . S
H182 C174 0.929 . S
H183 C191 0.929 . S
H184 C193 0.930 . S
H185 C195 0.930 . S
H186 C198 0.929 . S
H187 C201 0.930 . S
H188 C203 0.960 . S
H189 C203 0.960 . S
H190 C203 0.960 . S
C191 H183 0.929 . S
C191 C192 1.377 . S
C191 C193 1.384 . S
C192 C191 1.377 . S
C192 C198 1.390 . S
C193 H184 0.930 . S
C193 C191 1.384 . S
C193 C194 1.372 . S
C194 C193 1.372 . S
C194 C195 1.400 . S
C194 C199 1.490 . S
C195 H185 0.930 . S
C195 C194 1.400 . S
C195 C198 1.386 . S
H196 C212 0.930 . S
H197 C213 0.931 . S
C198 H186 0.929 . S
C198 C192 1.390 . S
C198 C195 1.386 . S
C199 C194 1.490 . S
C199 C201 1.395 . S
C199 C202 1.403 . S
H200 C206 0.930 . S
C201 H187 0.930 . S
C201 C199 1.395 . S
C201 C204 1.403 . S
C202 C199 1.403 . S
C202 C203 1.524 . S
C202 C206 1.400 . S
C203 H188 0.960 . S
C203 H189 0.960 . S
C203 H190 0.960 . S
C203 C202 1.524 . S
C204 C201 1.403 . S
C204 C205 1.392 . S
C204 C208 1.495 . S
C205 C204 1.392 . S
C205 C206 1.385 . S
C205 C207 1.478 . S
C206 H200 0.930 . S
C206 C202 1.400 . S
C206 C205 1.385 . S
C207 C205 1.478 . S
C207 C209 1.381 . S
C207 C213 1.383 . S
C208 C204 1.495 . S
C208 H214 0.959 . S
C208 H215 0.961 . S
C208 H216 0.960 . S
C209 C207 1.381 . S
C209 C210 1.394 . S
C209 H217 0.930 . S
C210 C209 1.394 . S
C210 C211 1.383 . S
C210 H218 0.929 . S
C211 C210 1.383 . S
C211 C212 1.377 . S
C212 H196 0.930 . S
C212 C211 1.377 . S
C212 C213 1.379 . S
C213 H197 0.931 . S
C213 C207 1.383 . S
C213 C212 1.379 . S
H214 C208 0.959 . S
H215 C208 0.961 . S
H216 C208 0.960 . S
H217 C209 0.930 . S
H218 C210 0.929 . S
H219 C227 0.929 . S
H220 C229 0.930 . S
H221 C231 0.930 . S
H222 C234 0.929 . S
H223 C237 0.930 . S
H224 C239 0.960 . S
H225 C239 0.960 . S
H226 C239 0.960 . S
C227 H219 0.929 . S
C227 C228 1.377 . S
C227 C229 1.384 . S
C228 C227 1.377 . S
C228 C234 1.390 . S
C229 H220 0.930 . S
C229 C227 1.384 . S
C229 C230 1.372 . S
C230 C229 1.372 . S
C230 C231 1.400 . S
C230 C235 1.490 . S
C231 H221 0.930 . S
C231 C230 1.400 . S
C231 C234 1.386 . S
H232 C248 0.930 . S
H233 C249 0.931 . S
C234 H222 0.929 . S
C234 C228 1.390 . S
C234 C231 1.386 . S
C235 C230 1.490 . S
C235 C237 1.395 . S
C235 C238 1.403 . S
H236 C242 0.930 . S
C237 H223 0.930 . S
C237 C235 1.395 . S
C237 C240 1.403 . S
C238 C235 1.403 . S
C238 C239 1.524 . S
C238 C242 1.400 . S
C239 H224 0.960 . S
C239 H225 0.960 . S
C239 H226 0.960 . S
C239 C238 1.524 . S
C240 C237 1.403 . S
C240 C241 1.392 . S
C240 C244 1.495 . S
C241 C240 1.392 . S
C241 C242 1.385 . S
C241 C243 1.478 . S
C242 H236 0.930 . S
C242 C238 1.400 . S
C242 C241 1.385 . S
C243 C241 1.478 . S
C243 C245 1.381 . S
C243 C249 1.383 . S
C244 C240 1.495 . S
C244 H250 0.959 . S
C244 H251 0.961 . S
C244 H252 0.960 . S
C245 C243 1.381 . S
C245 C246 1.394 . S
C245 H253 0.930 . S
C246 C245 1.394 . S
C246 C247 1.383 . S
C246 H254 0.929 . S
C247 C246 1.383 . S
C247 C248 1.377 . S
C248 H232 0.930 . S
C248 C247 1.377 . S
C248 C249 1.379 . S
C249 H233 0.931 . S
C249 C243 1.383 . S
C249 C248 1.379 . S
H250 C244 0.959 . S
H251 C244 0.961 . S
H252 C244 0.960 . S
H253 C245 0.930 . S
H254 C246 0.929 . S
H255 C263 0.929 1_545 S
H256 C265 0.930 . S
H257 C267 0.930 . S
H258 C270 0.929 . S
H259 C273 0.930 . S
H260 C275 0.960 . S
H261 C275 0.960 . S
H262 C275 0.960 . S
C263 H255 0.929 1_565 S
C263 C264 1.377 . S
C263 C265 1.384 . S
C264 C263 1.377 . S
C264 C270 1.390 . S
C265 H256 0.930 . S
C265 C263 1.384 . S
C265 C266 1.372 . S
C266 C265 1.372 . S
C266 C267 1.400 . S
C266 C271 1.490 . S
C267 H257 0.930 . S
C267 C266 1.400 . S
C267 C270 1.386 . S
H268 C284 0.930 . S
H269 C285 0.931 . S
C270 H258 0.929 . S
C270 C264 1.390 . S
C270 C267 1.386 . S
C271 C266 1.490 . S
C271 C273 1.395 . S
C271 C274 1.403 . S
H272 C278 0.930 . S
C273 H259 0.930 . S
C273 C271 1.395 . S
C273 C276 1.403 . S
C274 C271 1.403 . S
C274 C275 1.524 . S
C274 C278 1.400 . S
C275 H260 0.960 . S
C275 H261 0.960 . S
C275 H262 0.960 . S
C275 C274 1.524 . S
C276 C273 1.403 . S
C276 C277 1.392 . S
C276 C280 1.495 1_455 S
C277 C276 1.392 . S
C277 C278 1.385 . S
C277 C279 1.478 . S
C278 H272 0.930 . S
C278 C274 1.400 . S
C278 C277 1.385 . S
C279 C277 1.478 . S
C279 C281 1.381 . S
C279 C285 1.383 . S
C280 C276 1.495 1_655 S
C280 H286 0.959 . S
C280 H287 0.961 . S
C280 H288 0.960 . S
C281 C279 1.381 . S
C281 C282 1.394 . S
C281 H289 0.930 . S
C282 C281 1.394 . S
C282 C283 1.383 . S
C282 H290 0.929 . S
C283 C282 1.383 . S
C283 C284 1.377 . S
C284 H268 0.930 . S
C284 C283 1.377 . S
C284 C285 1.379 . S
C285 H269 0.931 . S
C285 C279 1.383 . S
C285 C284 1.379 . S
H286 C280 0.959 . S
H287 C280 0.961 . S
H288 C280 0.960 . S
H289 C281 0.930 . S
H290 C282 0.929 . S
H291 C299 0.929 . S
H292 C301 0.930 . S
H293 C303 0.930 . S
H294 C306 0.929 . S
H295 C309 0.930 . S
H296 C311 0.960 . S
H297 C311 0.960 . S
H298 C311 0.960 . S
C299 H291 0.929 . S
C299 C300 1.377 . S
C299 C301 1.384 . S
C300 C299 1.377 . S
C300 C306 1.390 . S
C301 H292 0.930 . S
C301 C299 1.384 . S
C301 C302 1.372 . S
C302 C301 1.372 . S
C302 C303 1.400 . S
C302 C307 1.490 . S
C303 H293 0.930 . S
C303 C302 1.400 . S
C303 C306 1.386 . S
H304 C320 0.930 . S
H305 C321 0.931 . S
C306 H294 0.929 . S
C306 C300 1.390 . S
C306 C303 1.386 . S
C307 C302 1.490 . S
C307 C309 1.395 . S
C307 C310 1.403 . S
H308 C314 0.930 . S
C309 H295 0.930 . S
C309 C307 1.395 . S
C309 C312 1.403 . S
C310 C307 1.403 . S
C310 C311 1.524 . S
C310 C314 1.400 . S
C311 H296 0.960 . S
C311 H297 0.960 . S
C311 H298 0.960 . S
C311 C310 1.524 . S
C312 C309 1.403 . S
C312 C313 1.392 . S
C312 C316 1.495 . S
C313 C312 1.392 . S
C313 C314 1.385 . S
C313 C315 1.478 . S
C314 H308 0.930 . S
C314 C310 1.400 . S
C314 C313 1.385 . S
C315 C313 1.478 . S
C315 C317 1.381 . S
C315 C321 1.383 . S
C316 C312 1.495 . S
C316 H322 0.959 . S
C316 H323 0.961 . S
C316 H324 0.960 . S
C317 C315 1.381 . S
C317 C318 1.394 . S
C317 H325 0.930 . S
C318 C317 1.394 . S
C318 C319 1.383 . S
C318 H326 0.929 . S
C319 C318 1.383 . S
C319 C320 1.377 . S
C320 H304 0.930 . S
C320 C319 1.377 . S
C320 C321 1.379 . S
C321 H305 0.931 . S
C321 C315 1.383 . S
C321 C320 1.379 . S
H322 C316 0.959 . S
H323 C316 0.961 . S
H324 C316 0.960 . S
H325 C317 0.930 . S
H326 C318 0.929 . S
H327 C335 0.929 . S
H328 C337 0.930 . S
H329 C339 0.930 . S
H330 C342 0.929 . S
H331 C345 0.930 . S
H332 C347 0.960 . S
H333 C347 0.960 . S
H334 C347 0.960 . S
C335 H327 0.929 . S
C335 C336 1.377 . S
C335 C337 1.384 . S
C336 C335 1.377 . S
C336 C342 1.390 . S
C337 H328 0.930 . S
C337 C335 1.384 . S
C337 C338 1.372 . S
C338 C337 1.372 . S
C338 C339 1.400 . S
C338 C343 1.490 . S
C339 H329 0.930 . S
C339 C338 1.400 . S
C339 C342 1.386 . S
H340 C356 0.930 . S
H341 C357 0.931 . S
C342 H330 0.929 . S
C342 C336 1.390 . S
C342 C339 1.386 . S
C343 C338 1.490 . S
C343 C345 1.395 . S
C343 C346 1.403 . S
H344 C350 0.930 . S
C345 H331 0.930 . S
C345 C343 1.395 . S
C345 C348 1.403 . S
C346 C343 1.403 . S
C346 C347 1.524 . S
C346 C350 1.400 . S
C347 H332 0.960 . S
C347 H333 0.960 . S
C347 H334 0.960 . S
C347 C346 1.524 . S
C348 C345 1.403 . S
C348 C349 1.392 . S
C348 C352 1.495 . S
C349 C348 1.392 . S
C349 C350 1.385 . S
C349 C351 1.478 . S
C350 H344 0.930 . S
C350 C346 1.400 . S
C350 C349 1.385 . S
C351 C349 1.478 . S
C351 C353 1.381 . S
C351 C357 1.383 . S
C352 C348 1.495 . S
C352 H358 0.959 . S
C352 H359 0.961 . S
C352 H360 0.960 . S
C353 C351 1.381 . S
C353 C354 1.394 . S
C353 H361 0.930 . S
C354 C353 1.394 . S
C354 C355 1.383 . S
C354 H362 0.929 . S
C355 C354 1.383 . S
C355 C356 1.377 . S
C356 H340 0.930 . S
C356 C355 1.377 . S
C356 C357 1.379 . S
C357 H341 0.931 . S
C357 C351 1.383 . S
C357 C356 1.379 . S
H358 C352 0.959 . S
H359 C352 0.961 . S
H360 C352 0.960 . S
H361 C353 0.930 . S
H362 C354 0.929 . S
H363 C371 0.929 . S
H364 C373 0.930 . S
H365 C375 0.930 . S
H366 C378 0.929 . S
H367 C381 0.930 . S
H368 C383 0.960 . S
H369 C383 0.960 . S
H370 C383 0.960 . S
C371 H363 0.929 . S
C371 C372 1.377 . S
C371 C373 1.384 . S
C372 C371 1.377 . S
C372 C378 1.390 . S
C373 H364 0.930 . S
C373 C371 1.384 . S
C373 C374 1.372 . S
C374 C373 1.372 . S
C374 C375 1.400 . S
C374 C379 1.490 . S
C375 H365 0.930 . S
C375 C374 1.400 . S
C375 C378 1.386 . S
H376 C392 0.930 . S
H377 C393 0.931 . S
C378 H366 0.929 . S
C378 C372 1.390 . S
C378 C375 1.386 . S
C379 C374 1.490 . S
C379 C381 1.395 . S
C379 C382 1.403 . S
H380 C386 0.930 . S
C381 H367 0.930 . S
C381 C379 1.395 . S
C381 C384 1.403 . S
C382 C379 1.403 . S
C382 C383 1.524 . S
C382 C386 1.400 . S
C383 H368 0.960 . S
C383 H369 0.960 . S
C383 H370 0.960 . S
C383 C382 1.524 . S
C384 C381 1.403 . S
C384 C385 1.392 . S
C384 C388 1.495 . S
C385 C384 1.392 . S
C385 C386 1.385 . S
C385 C387 1.478 . S
C386 H380 0.930 . S
C386 C382 1.400 . S
C386 C385 1.385 . S
C387 C385 1.478 . S
C387 C389 1.381 . S
C387 C393 1.383 . S
C388 C384 1.495 . S
C388 H394 0.959 . S
C388 H395 0.961 . S
C388 H396 0.960 . S
C389 C387 1.381 . S
C389 C390 1.394 . S
C389 H397 0.930 . S
C390 C389 1.394 . S
C390 C391 1.383 . S
C390 H398 0.929 . S
C391 C390 1.383 . S
C391 C392 1.377 . S
C392 H376 0.930 . S
C392 C391 1.377 . S
C392 C393 1.379 . S
C393 H377 0.931 . S
C393 C387 1.383 . S
C393 C392 1.379 . S
H394 C388 0.959 . S
H395 C388 0.961 . S
H396 C388 0.960 . S
H397 C389 0.930 . S
H398 C390 0.929 . S
H399 C407 0.927 1_445 S
H400 C409 0.930 . S
H401 C411 0.930 . S
H402 C414 0.929 . S
H403 C417 0.930 1_554 S
H404 C419 0.960 1_556 S
H405 C419 0.960 . S
H406 C419 0.960 . S
C407 H399 0.927 1_665 S
C407 C408 1.373 1_565 S
C407 C409 1.391 . S
C408 C407 1.373 1_545 S
C408 C414 1.390 1_545 S
C409 H400 0.930 . S
C409 C407 1.391 . S
C409 C410 1.372 . S
C410 C409 1.372 . S
C410 C411 1.400 . S
C410 C415 1.490 . S
C411 H401 0.930 . S
C411 C410 1.400 . S
C411 C414 1.386 . S
H412 C428 0.930 . S
H413 C429 0.931 . S
C414 H402 0.929 . S
C414 C408 1.390 1_565 S
C414 C411 1.386 . S
C415 C410 1.490 . S
C415 C417 1.395 1_554 S
C415 C418 1.403 1_554 S
H416 C422 0.930 . S
C417 H403 0.930 1_556 S
C417 C415 1.395 1_556 S
C417 C420 1.403 . S
C418 C415 1.403 1_556 S
C418 C419 1.524 1_556 S
C418 C422 1.400 . S
C419 H404 0.960 1_554 S
C419 H405 0.960 . S
C419 H406 0.960 . S
C419 C418 1.524 1_554 S
C420 C417 1.403 . S
C420 C421 1.392 . S
C420 C424 1.495 . S
C421 C420 1.392 . S
C421 C422 1.385 . S
C421 C423 1.478 . S
C422 H416 0.930 . S
C422 C418 1.400 . S
C422 C421 1.385 . S
C423 C421 1.478 . S
C423 C425 1.381 . S
C423 C429 1.383 . S
C424 C420 1.495 . S
C424 H430 0.959 . S
C424 H431 0.961 . S
C424 H432 0.960 . S
C425 C423 1.381 . S
C425 C426 1.394 . S
C425 H433 0.930 . S
C426 C425 1.394 . S
C426 C427 1.383 . S
C426 H434 0.929 . S
C427 C426 1.383 . S
C427 C428 1.377 . S
C428 H412 0.930 . S
C428 C427 1.377 . S
C428 C429 1.379 . S
C429 H413 0.931 . S
C429 C423 1.383 . S
C429 C428 1.379 . S
H430 C424 0.959 . S
H431 C424 0.961 . S
H432 C424 0.960 . S
H433 C425 0.930 . S
H434 C426 0.929 . S
H435 C443 0.929 . S
H436 C445 0.930 . S
H437 C447 0.930 . S
H438 C450 0.929 . S
H439 C453 0.937 . S
H440 C455 0.960 . S
H441 C455 0.960 . S
H442 C455 0.960 . S
C443 H435 0.929 . S
C443 C444 1.377 1_655 S
C443 C445 1.384 . S
C444 C443 1.377 1_455 S
C444 C450 1.390 . S
C445 H436 0.930 . S
C445 C443 1.384 . S
C445 C446 1.372 1_655 S
C446 C445 1.372 1_455 S
C446 C447 1.400 . S
C446 C451 1.490 . S
C447 H437 0.930 . S
C447 C446 1.400 . S
C447 C450 1.386 . S
H448 C464 0.930 . S
H449 C465 0.931 . S
C450 H438 0.929 . S
C450 C444 1.390 . S
C450 C447 1.386 . S
C451 C446 1.490 . S
C451 C453 1.395 . S
C451 C454 1.403 . S
H452 C458 0.930 . S
C453 H439 0.937 . S
C453 C451 1.395 . S
C453 C456 1.403 . S
C454 C451 1.403 . S
C454 C455 1.524 . S
C454 C458 1.400 . S
C455 H440 0.960 . S
C455 H441 0.960 . S
C455 H442 0.960 . S
C455 C454 1.524 . S
C456 C453 1.403 . S
C456 C457 1.392 . S
C456 C460 1.493 1_455 S
C457 C456 1.392 . S
C457 C458 1.385 . S
C457 C459 1.478 . S
C458 H452 0.930 . S
C458 C454 1.400 . S
C458 C457 1.385 . S
C459 C457 1.478 . S
C459 C461 1.381 1_455 S
C459 C465 1.383 . S
C460 C456 1.493 1_655 S
C460 H466 0.964 . S
C460 H467 0.956 1_655 S
C460 H468 0.962 . S
C461 C459 1.381 1_655 S
C461 C462 1.394 . S
C461 H469 0.930 . S
C462 C461 1.394 . S
C462 C463 1.383 1_655 S
C462 H470 0.929 . S
C463 C462 1.383 1_455 S
C463 C464 1.377 . S
C464 H448 0.930 . S
C464 C463 1.377 . S
C464 C465 1.379 . S
C465 H449 0.931 . S
C465 C459 1.383 . S
C465 C464 1.379 . S
H466 C460 0.964 . S
H467 C460 0.956 1_455 S
H468 C460 0.962 . S
H469 C461 0.930 . S
H470 C462 0.929 . S
H471 C479 0.929 . S
H472 C481 0.930 . S
H473 C483 0.930 . S
H474 C486 0.929 . S
H475 C489 0.930 . S
H476 C491 0.960 . S
H477 C491 0.960 . S
H478 C491 0.960 . S
C479 H471 0.929 . S
C479 C480 1.377 . S
C479 C481 1.384 . S
C480 C479 1.377 . S
C480 C486 1.390 . S
C481 H472 0.930 . S
C481 C479 1.384 . S
C481 C482 1.372 . S
C482 C481 1.372 . S
C482 C483 1.400 . S
C482 C487 1.490 . S
C483 H473 0.930 . S
C483 C482 1.400 . S
C483 C486 1.386 . S
H484 C500 0.930 . S
H485 C501 0.931 . S
C486 H474 0.929 . S
C486 C480 1.390 . S
C486 C483 1.386 . S
C487 C482 1.490 . S
C487 C489 1.395 . S
C487 C490 1.403 . S
H488 C494 0.930 . S
C489 H475 0.930 . S
C489 C487 1.395 . S
C489 C492 1.403 . S
C490 C487 1.403 . S
C490 C491 1.524 . S
C490 C494 1.400 . S
C491 H476 0.960 . S
C491 H477 0.960 . S
C491 H478 0.960 . S
C491 C490 1.524 . S
C492 C489 1.403 . S
C492 C493 1.392 . S
C492 C496 1.495 . S
C493 C492 1.392 . S
C493 C494 1.385 . S
C493 C495 1.478 . S
C494 H488 0.930 . S
C494 C490 1.400 . S
C494 C493 1.385 . S
C495 C493 1.478 . S
C495 C497 1.381 . S
C495 C501 1.383 . S
C496 C492 1.495 . S
C496 H502 0.959 . S
C496 H503 0.961 . S
C496 H504 0.960 . S
C497 C495 1.381 . S
C497 C498 1.394 . S
C497 H505 0.930 . S
C498 C497 1.394 . S
C498 C499 1.383 . S
C498 H506 0.929 . S
C499 C498 1.383 . S
C499 C500 1.377 . S
C500 H484 0.930 . S
C500 C499 1.377 . S
C500 C501 1.379 . S
C501 H485 0.931 . S
C501 C495 1.383 . S
C501 C500 1.379 . S
H502 C496 0.959 . S
H503 C496 0.961 . S
H504 C496 0.960 . S
H505 C497 0.930 . S
H506 C498 0.929 . S
H507 C515 0.929 . S
H508 C517 0.930 . S
H509 C519 0.930 . S
H510 C522 0.929 . S
H511 C525 0.957 . S
H512 C527 0.960 . S
H513 C527 0.960 . S
H514 C527 0.960 1_554 S
C515 H507 0.929 . S
C515 C516 1.377 . S
C515 C517 1.384 . S
C516 C515 1.377 . S
C516 C522 1.390 . S
C517 H508 0.930 . S
C517 C515 1.384 . S
C517 C518 1.372 . S
C518 C517 1.372 . S
C518 C519 1.400 . S
C518 C523 1.490 . S
C519 H509 0.930 . S
C519 C518 1.400 . S
C519 C522 1.386 . S
H520 C536 0.930 . S
H521 C537 0.931 . S
C522 H510 0.929 . S
C522 C516 1.390 . S
C522 C519 1.386 . S
C523 C518 1.490 . S
C523 C525 1.400 . S
C523 C526 1.403 1_554 S
H524 C530 0.930 . S
C525 H511 0.957 . S
C525 C523 1.400 . S
C525 C528 1.373 1_554 S
C526 C523 1.403 1_556 S
C526 C527 1.524 . S
C526 C530 1.400 . S
C527 H512 0.960 . S
C527 H513 0.960 . S
C527 H514 0.960 1_556 S
C527 C526 1.524 . S
C528 C525 1.373 1_556 S
C528 C529 1.392 . S
C528 C532 1.495 . S
C529 C528 1.392 . S
C529 C530 1.385 . S
C529 C531 1.478 . S
C530 H524 0.930 . S
C530 C526 1.400 . S
C530 C529 1.385 . S
C531 C529 1.478 . S
C531 C533 1.381 . S
C531 C537 1.383 . S
C532 C528 1.495 . S
C532 H538 0.959 . S
C532 H539 0.961 . S
C532 H540 0.960 . S
C533 C531 1.381 . S
C533 C534 1.394 . S
C533 H541 0.930 . S
C534 C533 1.394 . S
C534 C535 1.383 . S
C534 H542 0.929 . S
C535 C534 1.383 . S
C535 C536 1.377 . S
C536 H520 0.930 . S
C536 C535 1.377 . S
C536 C537 1.379 . S
C537 H521 0.931 . S
C537 C531 1.383 . S
C537 C536 1.379 . S
H538 C532 0.959 . S
H539 C532 0.961 . S
H540 C532 0.960 . S
H541 C533 0.930 . S
H542 C534 0.929 . S
H543 C551 0.929 . S
H544 C553 0.930 . S
H545 C555 0.930 . S
H546 C558 0.929 . S
H547 C561 0.930 . S
H548 C563 0.960 . S
H549 C563 0.960 . S
H550 C563 0.960 . S
C551 H543 0.929 . S
C551 C552 1.377 . S
C551 C553 1.384 . S
C552 C551 1.377 . S
C552 C558 1.390 . S
C553 H544 0.930 . S
C553 C551 1.384 . S
C553 C554 1.372 . S
C554 C553 1.372 . S
C554 C555 1.400 . S
C554 C559 1.490 . S
C555 H545 0.930 . S
C555 C554 1.400 . S
C555 C558 1.386 . S
H556 C572 0.930 . S
H557 C573 0.931 . S
C558 H546 0.929 . S
C558 C552 1.390 . S
C558 C555 1.386 . S
C559 C554 1.490 . S
C559 C561 1.395 1_455 S
C559 C562 1.403 . S
H560 C566 0.930 . S
C561 H547 0.930 . S
C561 C559 1.395 1_655 S
C561 C564 1.403 . S
C562 C559 1.403 . S
C562 C563 1.524 . S
C562 C566 1.400 . S
C563 H548 0.960 . S
C563 H549 0.960 . S
C563 H550 0.960 . S
C563 C562 1.524 . S
C564 C561 1.403 . S
C564 C565 1.392 1_655 S
C564 C568 1.495 . S
C565 C564 1.392 1_455 S
C565 C566 1.385 . S
C565 C567 1.478 . S
C566 H560 0.930 . S
C566 C562 1.400 . S
C566 C565 1.385 . S
C567 C565 1.478 . S
C567 C569 1.381 . S
C567 C573 1.383 . S
C568 C564 1.495 . S
C568 H574 0.959 . S
C568 H575 0.961 . S
C568 H576 0.960 . S
C569 C567 1.381 . S
C569 C570 1.394 . S
C569 H577 0.930 . S
C570 C569 1.394 . S
C570 C571 1.383 . S
C570 H578 0.929 . S
C571 C570 1.383 . S
C571 C572 1.377 . S
C572 H556 0.930 . S
C572 C571 1.377 . S
C572 C573 1.379 . S
C573 H557 0.931 . S
C573 C567 1.383 . S
C573 C572 1.379 . S
H574 C568 0.959 . S
H575 C568 0.961 . S
H576 C568 0.960 . S
H577 C569 0.930 . S
H578 C570 0.929 . S
C175 C113 1.405 . S
C156 C14 1.380 . S
C192 C40 1.463 . S
C211 C131 1.471 . S
C228 C76 1.451 1_565 S
C247 C144 1.463 . S
C264 C3 1.360 1_565 S
C283 C111 1.342 . S
C319 C122 1.479 . S
C300 C38 1.470 . S
C336 C74 1.454 . S
C355 C135 1.472 . S
C391 C124 1.347 . S
C372 C86 1.327 . S
C408 C2 1.378 1_655 S
C427 C137 1.368 . S
C463 C118 1.423 . S
C444 C39 1.434 . S
C499 C126 1.360 . S
C480 C75 1.370 . S
C535 C139 1.388 . S
C516 C4 1.371 . S
C552 C50 1.450 . S
C571 C109 1.467 . S
