# Generated by pormake.
# Topology ocu, (6,8)-cn, num edge types: 1
# Building blocks:
#     Node 0, Type 0, BuildingBlock: VOLQOD_clean_sbu_1, # of connection points: 6
#     Node 1, Type 0, BuildingBlock: VOLQOD_clean_sbu_1, # of connection points: 6
#     Node 2, Type 0, BuildingBlock: VOLQOD_clean_sbu_1, # of connection points: 6
#     Node 3, Type 0, BuildingBlock: VOLQOD_clean_sbu_1, # of connection points: 6
#     Node 4, Type 0, BuildingBlock: VOLQOD_clean_sbu_1, # of connection points: 6
#     Node 5, Type 0, BuildingBlock: VOLQOD_clean_sbu_1, # of connection points: 6
#     Node 6, Type 0, BuildingBlock: VOLQOD_clean_sbu_1, # of connection points: 6
#     Node 7, Type 0, BuildingBlock: VOLQOD_clean_sbu_1, # of connection points: 6
#     Node 8, Type 1, BuildingBlock: VETTIZ_charged_sbu_0, # of connection points: 8
#     Node 9, Type 1, BuildingBlock: VETTIZ_charged_sbu_0, # of connection points: 8
#     Node 10, Type 1, BuildingBlock: VETTIZ_charged_sbu_0, # of connection points: 8
#     Node 11, Type 1, BuildingBlock: VETTIZ_charged_sbu_0, # of connection points: 8
#     Node 12, Type 1, BuildingBlock: VETTIZ_charged_sbu_0, # of connection points: 8
#     Node 13, Type 1, BuildingBlock: VETTIZ_charged_sbu_0, # of connection points: 8
#     Edge 14, Type (0, 1), BuildingBlock: XIVTED_clean_linker_0, # of connection points: 2
#     Edge 15, Type (0, 1), BuildingBlock: XIVTED_clean_linker_0, # of connection points: 2
#     Edge 16, Type (0, 1), BuildingBlock: XIVTED_clean_linker_0, # of connection points: 2
#     Edge 17, Type (0, 1), BuildingBlock: XIVTED_clean_linker_0, # of connection points: 2
#     Edge 18, Type (0, 1), BuildingBlock: XIVTED_clean_linker_0, # of connection points: 2
#     Edge 19, Type (0, 1), BuildingBlock: XIVTED_clean_linker_0, # of connection points: 2
#     Edge 20, Type (0, 1), BuildingBlock: XIVTED_clean_linker_0, # of connection points: 2
#     Edge 21, Type (0, 1), BuildingBlock: XIVTED_clean_linker_0, # of connection points: 2
#     Edge 22, Type (0, 1), BuildingBlock: XIVTED_clean_linker_0, # of connection points: 2
#     Edge 23, Type (0, 1), BuildingBlock: XIVTED_clean_linker_0, # of connection points: 2
#     Edge 24, Type (0, 1), BuildingBlock: XIVTED_clean_linker_0, # of connection points: 2
#     Edge 25, Type (0, 1), BuildingBlock: XIVTED_clean_linker_0, # of connection points: 2
#     Edge 26, Type (0, 1), BuildingBlock: XIVTED_clean_linker_0, # of connection points: 2
#     Edge 27, Type (0, 1), BuildingBlock: XIVTED_clean_linker_0, # of connection points: 2
#     Edge 28, Type (0, 1), BuildingBlock: XIVTED_clean_linker_0, # of connection points: 2
#     Edge 29, Type (0, 1), BuildingBlock: XIVTED_clean_linker_0, # of connection points: 2
#     Edge 30, Type (0, 1), BuildingBlock: XIVTED_clean_linker_0, # of connection points: 2
#     Edge 31, Type (0, 1), BuildingBlock: XIVTED_clean_linker_0, # of connection points: 2
#     Edge 32, Type (0, 1), BuildingBlock: XIVTED_clean_linker_0, # of connection points: 2
#     Edge 33, Type (0, 1), BuildingBlock: XIVTED_clean_linker_0, # of connection points: 2
#     Edge 34, Type (0, 1), BuildingBlock: XIVTED_clean_linker_0, # of connection points: 2
#     Edge 35, Type (0, 1), BuildingBlock: XIVTED_clean_linker_0, # of connection points: 2
#     Edge 36, Type (0, 1), BuildingBlock: XIVTED_clean_linker_0, # of connection points: 2
#     Edge 37, Type (0, 1), BuildingBlock: XIVTED_clean_linker_0, # of connection points: 2
#     Edge 38, Type (0, 1), BuildingBlock: XIVTED_clean_linker_0, # of connection points: 2
#     Edge 39, Type (0, 1), BuildingBlock: XIVTED_clean_linker_0, # of connection points: 2
#     Edge 40, Type (0, 1), BuildingBlock: XIVTED_clean_linker_0, # of connection points: 2
#     Edge 41, Type (0, 1), BuildingBlock: XIVTED_clean_linker_0, # of connection points: 2
#     Edge 42, Type (0, 1), BuildingBlock: XIVTED_clean_linker_0, # of connection points: 2
#     Edge 43, Type (0, 1), BuildingBlock: XIVTED_clean_linker_0, # of connection points: 2
#     Edge 44, Type (0, 1), BuildingBlock: XIVTED_clean_linker_0, # of connection points: 2
#     Edge 45, Type (0, 1), BuildingBlock: XIVTED_clean_linker_0, # of connection points: 2
#     Edge 46, Type (0, 1), BuildingBlock: XIVTED_clean_linker_0, # of connection points: 2
#     Edge 47, Type (0, 1), BuildingBlock: XIVTED_clean_linker_0, # of connection points: 2
#     Edge 48, Type (0, 1), BuildingBlock: XIVTED_clean_linker_0, # of connection points: 2
#     Edge 49, Type (0, 1), BuildingBlock: XIVTED_clean_linker_0, # of connection points: 2
#     Edge 50, Type (0, 1), BuildingBlock: XIVTED_clean_linker_0, # of connection points: 2
#     Edge 51, Type (0, 1), BuildingBlock: XIVTED_clean_linker_0, # of connection points: 2
#     Edge 52, Type (0, 1), BuildingBlock: XIVTED_clean_linker_0, # of connection points: 2
#     Edge 53, Type (0, 1), BuildingBlock: XIVTED_clean_linker_0, # of connection points: 2
#     Edge 54, Type (0, 1), BuildingBlock: XIVTED_clean_linker_0, # of connection points: 2
#     Edge 55, Type (0, 1), BuildingBlock: XIVTED_clean_linker_0, # of connection points: 2
#     Edge 56, Type (0, 1), BuildingBlock: XIVTED_clean_linker_0, # of connection points: 2
#     Edge 57, Type (0, 1), BuildingBlock: XIVTED_clean_linker_0, # of connection points: 2
#     Edge 58, Type (0, 1), BuildingBlock: XIVTED_clean_linker_0, # of connection points: 2
#     Edge 59, Type (0, 1), BuildingBlock: XIVTED_clean_linker_0, # of connection points: 2
#     Edge 60, Type (0, 1), BuildingBlock: XIVTED_clean_linker_0, # of connection points: 2
#     Edge 61, Type (0, 1), BuildingBlock: XIVTED_clean_linker_0, # of connection points: 2
# Relax obj value: 0.154
# Max RMSD: 0.303
# Mean RMSD: 0.175
data_MOF--net-ocu--node1-VOLQOD_clean_sbu_1--node2-VETTIZ_charged_sbu_0--edge1-XIVTED_clean_linker_0
_symmetry_space_group_name_H-M    P1
_symmetry_Int_Tables_number       1
_symmetry_cell_setting            triclinic
loop_
_symmetry_equiv_pos_as_xyz
'x, y, z'
_cell_length_a     38.661093
_cell_length_b     39.062112
_cell_length_c     38.539385
_cell_angle_alpha  89.937118
_cell_angle_beta   89.838221
_cell_angle_gamma 89.689071
loop_
_atom_site_label
_atom_site_type_symbol
_atom_site_fract_x
_atom_site_fract_y
_atom_site_fract_z
_atom_type_partial_charge
O0 O 0.31191 0.3047 0.25189 0.0
Zn1 Zn 0.28489 0.2733 0.28519 0.0
O2 O 0.2513 0.24474 0.25975 0.0
Zn3 Zn 0.20385 0.25508 0.27359 0.0
Zn4 Zn 0.25533 0.25303 0.2106 0.0
Zn5 Zn 0.26032 0.19633 0.26724 0.0
O6 O 0.17823 0.21234 0.28765 0.0
O7 O 0.21692 0.1708 0.28006 0.0
O8 O 0.25863 0.30429 0.3193 0.0
O9 O 0.20391 0.2874 0.31401 0.0
O10 O 0.17716 0.27757 0.23442 0.0
O11 O 0.21008 0.26491 0.18891 0.0
O12 O 0.27845 0.21424 0.18551 0.0
O13 O 0.31769 0.24239 0.31334 0.0
O14 O 0.28382 0.17408 0.22577 0.0
O15 O 0.29321 0.19128 0.30657 0.0
C16 C 0.30671 0.31073 0.21973 0.0
C17 C 0.18652 0.18073 0.28826 0.0
C18 C 0.18231 0.27717 0.20174 0.0
C19 C 0.22687 0.30572 0.32849 0.0
C20 C 0.28899 0.18478 0.19497 0.0
C21 C 0.31544 0.21057 0.32083 0.0
O22 O 0.28497 0.29359 0.20235 0.0
O23 O 0.73524 0.19553 0.2089 0.0
Zn24 Zn 0.7727 0.22198 0.23296 0.0
O25 O 0.75213 0.25017 0.27024 0.0
Zn26 Zn 0.75734 0.29891 0.2621 0.0
Zn27 Zn 0.7033 0.24012 0.27595 0.0
Zn28 Zn 0.7759 0.23991 0.31249 0.0
O29 O 0.78649 0.32269 0.29826 0.0
O30 O 0.79741 0.27967 0.33396 0.0
O31 O 0.79574 0.25241 0.19769 0.0
O32 O 0.78271 0.30419 0.21797 0.0
O33 O 0.71163 0.32288 0.25631 0.0
O34 O 0.67385 0.2809 0.2636 0.0
O35 O 0.69286 0.22538 0.32491 0.0
O36 O 0.80997 0.18894 0.25055 0.0
O37 O 0.74536 0.22044 0.3477 0.0
O38 O 0.81404 0.20772 0.30469 0.0
C39 C 0.70369 0.1896 0.21638 0.0
C40 C 0.80042 0.31083 0.32566 0.0
C41 C 0.68065 0.31202 0.25669 0.0
C42 C 0.79679 0.2849 0.19536 0.0
C43 C 0.71282 0.2177 0.35002 0.0
C44 C 0.82466 0.18894 0.28008 0.0
O45 O 0.68898 0.20329 0.24258 0.0
O46 O 0.71641 0.69207 0.23914 0.0
Zn47 Zn 0.73657 0.71885 0.27878 0.0
O48 O 0.769 0.75326 0.26105 0.0
Zn49 Zn 0.81471 0.73974 0.27409 0.0
Zn50 Zn 0.76704 0.75625 0.21072 0.0
Zn51 Zn 0.7599 0.79755 0.28182 0.0
O52 O 0.83973 0.77536 0.299 0.0
O53 O 0.80083 0.81629 0.30787 0.0
O54 O 0.75889 0.68729 0.31459 0.0
O55 O 0.81357 0.7033 0.30875 0.0
O56 O 0.84336 0.72657 0.23425 0.0
O57 O 0.81317 0.74404 0.18863 0.0
O58 O 0.75217 0.80344 0.19573 0.0
O59 O 0.6977 0.74196 0.30451 0.0
O60 O 0.74515 0.83144 0.24547 0.0
O61 O 0.72086 0.79298 0.31537 0.0
C62 C 0.71552 0.69778 0.20656 0.0
C63 C 0.83102 0.80385 0.31195 0.0
C64 C 0.84058 0.73132 0.20181 0.0
C65 C 0.79053 0.68546 0.32343 0.0
C66 C 0.74383 0.83037 0.21248 0.0
C67 C 0.69742 0.77069 0.32 0.0
O68 O 0.7322 0.72236 0.19273 0.0
O69 O 0.2977 0.77931 0.31538 0.0
Zn70 Zn 0.27071 0.74276 0.28941 0.0
O71 O 0.23741 0.7649 0.25705 0.0
Zn72 Zn 0.1897 0.75098 0.26707 0.0
Zn73 Zn 0.24008 0.81452 0.25996 0.0
Zn74 Zn 0.24911 0.75234 0.20992 0.0
O75 O 0.16976 0.72175 0.22768 0.0
O76 O 0.21282 0.72225 0.18939 0.0
O77 O 0.24525 0.71288 0.32446 0.0
O78 O 0.19023 0.72164 0.30963 0.0
O79 O 0.15901 0.79157 0.28067 0.0
O80 O 0.19573 0.83481 0.27639 0.0
O81 O 0.2551 0.83686 0.21526 0.0
O82 O 0.30683 0.71392 0.26389 0.0
O83 O 0.25841 0.79284 0.17926 0.0
O84 O 0.29335 0.72608 0.20926 0.0
C85 C 0.29593 0.81193 0.31486 0.0
C86 C 0.18301 0.71207 0.19886 0.0
C87 C 0.16599 0.82329 0.28409 0.0
C88 C 0.21296 0.70829 0.32936 0.0
C89 C 0.26134 0.82472 0.18526 0.0
C90 C 0.313 0.7119 0.23146 0.0
O91 O 0.27492 0.82777 0.29522 0.0
O92 O 0.24934 0.69689 0.69899 0.0
Zn93 Zn 0.28379 0.72761 0.72405 0.0
O94 O 0.26025 0.76039 0.75488 0.0
Zn95 Zn 0.27075 0.80744 0.74534 0.0
Zn96 Zn 0.21233 0.75517 0.74722 0.0
Zn97 Zn 0.27032 0.75184 0.80261 0.0
O98 O 0.30408 0.82601 0.78066 0.0
O99 O 0.29132 0.79264 0.82556 0.0
O100 O 0.3059 0.75429 0.68515 0.0
O101 O 0.29097 0.80811 0.69814 0.0
O102 O 0.22813 0.83773 0.74378 0.0
O103 O 0.18717 0.79854 0.74433 0.0
O104 O 0.19121 0.72982 0.78543 0.0
O105 O 0.31996 0.69975 0.7506 0.0
O106 O 0.22891 0.73368 0.8286 0.0
O107 O 0.30819 0.71752 0.8043 0.0
C108 C 0.21913 0.70603 0.68932 0.0
C109 C 0.30709 0.81823 0.81264 0.0
C110 C 0.1963 0.82957 0.7431 0.0
C111 C 0.304 0.78601 0.67758 0.0
C112 C 0.19953 0.72475 0.81684 0.0
C113 C 0.32587 0.69953 0.78317 0.0
O114 O 0.20334 0.73085 0.70354 0.0
O115 O 0.20619 0.20465 0.73394 0.0
Zn116 Zn 0.23596 0.22502 0.77241 0.0
O117 O 0.26984 0.25726 0.75242 0.0
Zn118 Zn 0.31631 0.24896 0.76943 0.0
Zn119 Zn 0.27125 0.25124 0.70318 0.0
Zn120 Zn 0.25645 0.30408 0.76201 0.0
O121 O 0.33113 0.28658 0.80197 0.0
O122 O 0.29055 0.32635 0.79411 0.0
O123 O 0.26103 0.18678 0.79858 0.0
O124 O 0.31567 0.20447 0.79449 0.0
O125 O 0.35192 0.24264 0.731 0.0
O126 O 0.3168 0.23761 0.68603 0.0
O127 O 0.25929 0.29318 0.67814 0.0
O128 O 0.20192 0.24989 0.80373 0.0
O129 O 0.24931 0.33223 0.71847 0.0
O130 O 0.2112 0.3036 0.78682 0.0
C131 C 0.21051 0.20416 0.70112 0.0
C132 C 0.31834 0.31604 0.80855 0.0
C133 C 0.34692 0.23697 0.69888 0.0
C134 C 0.29331 0.18262 0.80418 0.0
C135 C 0.25087 0.32334 0.68671 0.0
C136 C 0.19352 0.28149 0.80332 0.0
O137 O 0.23609 0.21891 0.68702 0.0
O138 O 0.80171 0.28323 0.80042 0.0
Zn139 Zn 0.77869 0.24524 0.77294 0.0
O140 O 0.74543 0.26469 0.73889 0.0
Zn141 Zn 0.70009 0.24707 0.74891 0.0
Zn142 Zn 0.7435 0.31447 0.74245 0.0
Zn143 Zn 0.75698 0.25192 0.69112 0.0
O144 O 0.67852 0.2245 0.70834 0.0
O145 O 0.71977 0.22237 0.66837 0.0
O146 O 0.75595 0.2111 0.80619 0.0
O147 O 0.703 0.21023 0.78411 0.0
O148 O 0.6685 0.28309 0.76749 0.0
O149 O 0.69617 0.33171 0.75738 0.0
O150 O 0.7603 0.33678 0.69816 0.0
O151 O 0.81584 0.21853 0.74756 0.0
O152 O 0.769 0.29335 0.66199 0.0
O153 O 0.80024 0.22416 0.69218 0.0
C154 C 0.79745 0.31565 0.80014 0.0
C155 C 0.68951 0.21454 0.67892 0.0
C156 C 0.66974 0.31559 0.76842 0.0
C157 C 0.72547 0.1989 0.80522 0.0
C158 C 0.77001 0.32528 0.66871 0.0
C159 C 0.82073 0.21298 0.71537 0.0
O160 O 0.77602 0.33 0.77967 0.0
O161 O 0.81374 0.80427 0.75353 0.0
Zn162 Zn 0.78332 0.77174 0.78187 0.0
O163 O 0.75599 0.74275 0.75015 0.0
Zn164 Zn 0.70684 0.74976 0.75856 0.0
Zn165 Zn 0.76678 0.75282 0.70168 0.0
Zn166 Zn 0.76581 0.69475 0.75819 0.0
O167 O 0.68443 0.7094 0.78298 0.0
O168 O 0.72736 0.67161 0.78448 0.0
O169 O 0.75162 0.80089 0.81293 0.0
O170 O 0.70004 0.78935 0.79054 0.0
O171 O 0.68204 0.76299 0.71487 0.0
O172 O 0.72486 0.77296 0.67767 0.0
O173 O 0.78196 0.71047 0.67516 0.0
O174 O 0.81545 0.74174 0.81152 0.0
O175 O 0.77641 0.66917 0.71425 0.0
O176 O 0.80751 0.69044 0.78783 0.0
C177 C 0.82053 0.80612 0.72113 0.0
C178 C 0.69658 0.68045 0.79238 0.0
C179 C 0.69282 0.77379 0.68558 0.0
C180 C 0.71903 0.80614 0.81125 0.0
C181 C 0.78355 0.67894 0.68355 0.0
C182 C 0.82339 0.71007 0.8086 0.0
O183 O 0.80536 0.78717 0.69906 0.0
Fe184 Fe -0.00093 0.04819 0.50718 0.0
O185 O 0.97188 0.00542 0.50039 0.0
Fe186 Fe 0.08178 0.01683 0.52321 0.0
Fe187 Fe 0.92191 0.00222 0.51007 0.0
O188 O 0.03188 0.0172 0.53198 0.0
O189 O 0.03182 0.01402 0.53372 0.0
O190 O 0.97187 0.00225 0.50196 0.0
Fe191 Fe 0.00472 0.97119 0.52667 0.0
C192 C 0.94232 0.05945 0.55939 0.0
O193 O 0.96107 0.07452 0.47871 0.0
O194 O 0.92038 0.0332 0.46699 0.0
O195 O 0.02922 0.96209 0.48039 0.0
O196 O 0.08392 0.97216 0.49449 0.0
O197 O 0.0786 0.04377 0.47765 0.0
O198 O 0.02377 0.04109 0.4603 0.0
O199 O 0.9271 0.9566 0.48464 0.0
O200 O 0.97254 0.9302 0.51343 0.0
C201 C 0.05572 0.0457 0.45413 0.0
O202 O 0.04298 0.94512 0.55543 0.0
O203 O 0.08338 0.98698 0.56643 0.0
O204 O 0.97452 0.0575 0.55326 0.0
O205 O 0.91972 0.046 0.53977 0.0
C206 C 0.93611 0.0617 0.46017 0.0
C207 C 0.94711 0.93063 0.49134 0.0
C208 C 0.94753 0.97081 0.5787 0.0
O209 O 0.92483 0.97399 0.55508 0.0
O210 O 0.97933 0.97737 0.57339 0.0
C211 C 0.06137 0.95903 0.47459 0.0
O212 O 0.07776 0.06317 0.5477 0.0
O213 O 0.0316 0.08934 0.51989 0.0
C214 C 0.06787 0.95855 0.5737 0.0
C215 C 0.05831 0.08936 0.54047 0.0
Fe216 Fe 0.51973 0.9275 0.03627 0.0
O217 O 0.51646 0.97729 0.0314 0.0
Fe218 Fe 0.47485 -0.00132 0.00446 0.0
Fe219 Fe 0.55381 0.00522 0.00971 0.0
O220 O 0.51322 0.97729 0.03164 0.0
O221 O 0.51225 0.02647 0.9828 0.0
O222 O 0.51549 0.02643 0.9825 0.0
Fe223 Fe 0.50976 0.0762 0.97768 0.0
C224 C 0.58395 0.9587 0.06788 0.0
O225 O 0.56171 0.92252 0.00316 0.0
O226 O 0.56167 0.9698 0.97093 0.0
O227 O 0.47246 0.06319 0.94182 0.0
O228 O 0.4392 0.02446 0.97253 0.0
O229 O 0.48064 0.96359 0.96546 0.0
O230 O 0.48676 0.91552 0.99598 0.0
O231 O 0.58846 0.03743 0.98289 0.0
O232 O 0.55315 0.06979 0.94708 0.0
C233 C 0.47753 0.93141 0.96858 0.0
O234 O 0.46904 0.08197 0.01223 0.0
O235 O 0.46711 0.03387 0.04326 0.0
O236 O 0.55595 0.94103 0.07305 0.0
O237 O 0.58917 0.97955 0.04196 0.0
C238 C 0.57098 0.93897 0.97618 0.0
C239 C 0.58303 0.05733 0.95622 0.0
C240 C 0.55192 0.07245 0.0449 0.0
O241 O 0.54767 0.04047 0.04852 0.0
O242 O 0.54422 0.08801 0.01687 0.0
C243 C 0.44447 0.04551 0.94682 0.0
O244 O 0.44036 0.96639 0.03079 0.0
O245 O 0.47499 0.93218 0.06549 0.0
C246 C 0.45897 0.06513 0.03873 0.0
C247 C 0.44516 0.94445 0.05582 0.0
Fe248 Fe 0.01072 0.53472 0.00561 0.0
O249 O 0.98005 0.49984 0.02688 0.0
Fe250 Fe 0.08271 0.48809 0.97993 0.0
Fe251 Fe 0.92991 0.50516 0.02917 0.0
O252 O 0.03249 0.49509 0.98138 0.0
O253 O 0.03212 0.49196 0.98127 0.0
O254 O 0.97992 0.49678 0.02712 0.0
Fe255 Fe 0.00177 0.45684 0.00318 0.0
C256 C 0.962 0.56921 0.05871 0.0
O257 O 0.97766 0.5419 0.96448 0.0
O258 O 0.9281 0.54495 0.99387 0.0
O259 O 0.02868 0.41949 0.97447 0.0
O260 O 0.07055 0.45018 0.94483 0.0
O261 O 0.07962 0.52992 0.94752 0.0
O262 O 0.0456 0.5665 0.98029 0.0
O263 O 0.91844 0.47095 0.98988 0.0
O264 O 0.96822 0.46061 0.96224 0.0
C265 C 0.06729 0.55994 0.95538 0.0
O266 O 0.03492 0.45068 0.04431 0.0
O267 O 0.08499 0.44899 0.01577 0.0
O268 O 0.98452 0.57207 0.03386 0.0
O269 O 0.94298 0.54248 0.06474 0.0
C270 C 0.94684 0.55296 0.96791 0.0
C271 C 0.93539 0.45953 0.96387 0.0
C272 C 0.94543 0.4327 0.05448 0.0
O273 O 0.93281 0.46296 0.06097 0.0
O274 O 0.96711 0.42519 0.02969 0.0
C275 C 0.05138 0.42332 0.94973 0.0
O276 O 0.09329 0.52357 0.01872 0.0
O277 O 0.04357 0.52984 0.04696 0.0
C278 C 0.06617 0.44081 0.0416 0.0
C279 C 0.07602 0.53408 0.04493 0.0
Fe280 Fe 0.50263 0.50469 0.97979 0.0
O281 O 0.52758 0.48061 0.01789 0.0
Fe282 Fe 0.43082 0.53934 0.02138 0.0
Fe283 Fe 0.57737 0.4717 0.01708 0.0
O284 O 0.48095 0.53181 0.01795 0.0
O285 O 0.4811 0.53197 0.02116 0.0
O286 O 0.52756 0.48056 0.02111 0.0
Fe287 Fe 0.50659 0.50831 0.05934 0.0
C288 C 0.54799 0.44626 0.9489 0.0
O289 O 0.54098 0.54059 0.97484 0.0
O290 O 0.58718 0.50633 0.97739 0.0
O291 O 0.48084 0.54103 0.09461 0.0
O292 O 0.44407 0.57326 0.06009 0.0
O293 O 0.44061 0.5699 0.97865 0.0
O294 O 0.47349 0.53364 0.94439 0.0
O295 O 0.59062 0.50855 0.05289 0.0
O296 O 0.54536 0.54405 0.05592 0.0
C297 C 0.45422 0.56068 0.94916 0.0
O298 O 0.46863 0.47236 0.06504 0.0
O299 O 0.42128 0.50485 0.06122 0.0
O300 O 0.52828 0.47298 0.94439 0.0
O301 O 0.56349 0.43826 0.97776 0.0
C302 C 0.57237 0.53388 0.96734 0.0
C303 C 0.57721 0.53736 0.06086 0.0
C304 C 0.55407 0.45133 0.08956 0.0
O305 O 0.56696 0.44135 0.05995 0.0
O306 O 0.53589 0.47914 0.09443 0.0
C307 C 0.46046 0.56717 0.0889 0.0
O308 O 0.41824 0.50191 0.98553 0.0
O309 O 0.46479 0.46843 0.9827 0.0
C310 C 0.43695 0.47801 0.0718 0.0
C311 C 0.43287 0.47377 0.97725 0.0
Fe312 Fe 0.02093 0.46072 0.50704 0.0
O313 O 0.02872 0.49909 0.54035 0.0
Fe314 Fe 0.01428 0.50422 0.42813 0.0
Fe315 Fe 0.01541 0.49552 0.58953 0.0
O316 O 0.00137 0.49767 0.47703 0.0
O317 O 0.00073 0.50115 0.47731 0.0
O318 O 0.02815 0.50261 0.54062 0.0
Fe319 Fe 0.00792 0.53947 0.51092 0.0
C320 C 0.96469 0.44619 0.55899 0.0
O321 O 0.04527 0.42797 0.54308 0.0
O322 O 0.05722 0.46388 0.58899 0.0
O323 O 0.05626 0.54952 0.49082 0.0
O324 O 0.04468 0.54664 0.43435 0.0
O325 O 0.05798 0.47395 0.43048 0.0
O326 O 0.06981 0.46676 0.48657 0.0
O327 O 0.04154 0.54042 0.59433 0.0
O328 O 0.02052 0.57482 0.55025 0.0
C329 C 0.07837 0.46501 0.45473 0.0
O330 O 0.98332 0.57213 0.47497 0.0
O331 O 0.97268 0.53671 0.42826 0.0
O332 O 0.972 0.45213 0.52736 0.0
O333 O 0.98611 0.4524 0.58303 0.0
C334 C 0.06408 0.43783 0.56929 0.0
C335 C 0.03818 0.56962 0.57866 0.0
C336 C 0.95044 0.53292 0.56312 0.0
O337 O 0.97122 0.52484 0.58734 0.0
O338 O 0.95917 0.53236 0.5313 0.0
C339 C 0.0639 0.55562 0.45935 0.0
O340 O 0.98774 0.45952 0.4234 0.0
O341 O 0.00831 0.42537 0.46803 0.0
C342 C 0.96555 0.56287 0.44779 0.0
C343 C 0.99169 0.43035 0.43903 0.0
Fe344 Fe 0.50037 0.95765 0.49765 0.0
O345 O 0.48212 -0.00528 0.52826 0.0
Fe346 Fe 0.53646 0.00176 0.4278 0.0
Fe347 Fe 0.47752 0.99004 0.5787 0.0
O348 O 0.53127 -0.00671 0.47782 0.0
O349 O 0.53115 -0.00398 0.4779 0.0
O350 O 0.48227 -0.00247 0.52853 0.0
Fe351 Fe 0.51368 0.03282 0.50912 0.0
C352 C 0.44044 0.93104 0.5432 0.0
O353 O 0.53809 0.94435 0.53265 0.0
O354 O 0.50748 0.94625 0.58164 0.0
O355 O 0.54875 0.06531 0.48609 0.0
O356 O 0.57631 0.03339 0.44374 0.0
O357 O 0.56137 0.9549 0.43019 0.0
O358 O 0.52324 0.92295 0.46341 0.0
O359 O 0.52004 0.01972 0.59194 0.0
O360 O 0.55145 0.02 0.54391 0.0
C361 C 0.54897 0.92619 0.4419 0.0
O362 O 0.47611 0.04717 0.47443 0.0
O363 O 0.50683 0.04613 0.42542 0.0
O364 O 0.46551 0.92479 0.52154 0.0
O365 O 0.43819 0.95757 0.56358 0.0
C366 C 0.53294 0.93509 0.56385 0.0
C367 C 0.54815 0.02644 0.57596 0.0
C368 C 0.46589 0.06507 0.56499 0.0
O369 O 0.45197 0.03663 0.57552 0.0
O370 O 0.49218 0.06753 0.54413 0.0
C371 C 0.5742 0.05925 0.46498 0.0
O372 O 0.49389 0.97284 0.41398 0.0
O373 O 0.4625 0.96921 0.46235 0.0
C374 C 0.48126 0.05693 0.44337 0.0
C375 C 0.46583 0.96565 0.42977 0.0
H376 H 0.19639 0.1119 0.29829 0.0
H377 H 0.02324 0.09049 0.40982 0.0
H378 H 0.11944 0.19172 0.30961 0.0
H379 H 0.11496 0.02822 0.42089 0.0
H380 H 0.05011 0.1191 0.3597 0.0
H381 H 0.1584 0.07276 0.32946 0.0
C382 C 0.17131 0.12113 0.30685 0.0
C383 C 0.16146 0.15543 0.30193 0.0
C384 C 0.06396 0.09862 0.37267 0.0
C385 C 0.11784 0.11061 0.33777 0.0
C386 C 0.04856 0.08216 0.40103 0.0
C387 C 0.06717 0.05729 0.4196 0.0
C388 C 0.09788 0.08969 0.3628 0.0
C389 C 0.09996 0.04753 0.40741 0.0
C390 C 0.14964 0.09872 0.32469 0.0
C391 C 0.12839 0.16567 0.31329 0.0
N392 N 0.11438 0.06394 0.38 0.0
N393 N 0.10794 0.14348 0.33111 0.0
H394 H 0.82477 0.1193 0.27838 0.0
H395 H 0.96191 0.12138 0.43194 0.0
H396 H 0.88753 0.20643 0.30386 0.0
H397 H 0.8885 0.04054 0.41269 0.0
H398 H 0.94531 0.14772 0.37669 0.0
H399 H 0.86066 0.08379 0.31656 0.0
C400 C 0.84718 0.1305 0.29068 0.0
C401 C 0.85324 0.16568 0.28837 0.0
C402 C 0.93308 0.12406 0.38457 0.0
C403 C 0.89318 0.12605 0.33307 0.0
C404 C 0.94229 0.10922 0.41628 0.0
C405 C 0.9261 0.07907 0.4275 0.0
C406 C 0.90759 0.10861 0.36396 0.0
C407 C 0.90134 0.06411 0.40563 0.0
C408 C 0.8673 0.11046 0.31297 0.0
C409 C 0.88213 0.17928 0.30527 0.0
N410 N 0.89274 0.07913 0.37514 0.0
N411 N 0.90063 0.15961 0.3276 0.0
H412 H 0.84375 0.87199 0.32048 0.0
H413 H 0.92107 0.86619 0.50102 0.0
H414 H 0.87214 0.77169 0.35832 0.0
H415 H 0.96487 0.93436 0.42486 0.0
H416 H 0.89929 0.82999 0.45349 0.0
H417 H 0.88272 0.89741 0.36352 0.0
C418 C 0.85836 0.85547 0.33771 0.0
C419 C 0.85514 0.81993 0.33597 0.0
C420 C 0.91475 0.85227 0.44743 0.0
C421 C 0.89859 0.84837 0.38506 0.0
C422 C 0.92729 0.87259 0.47437 0.0
C423 C 0.94462 0.90291 0.46639 0.0
C424 C 0.91896 0.86337 0.41299 0.0
C425 C 0.95152 0.91095 0.43166 0.0
C426 C 0.88062 0.8698 0.36194 0.0
C427 C 0.87441 0.79931 0.35882 0.0
N428 N 0.93785 0.89174 0.40605 0.0
N429 N 0.89499 0.81389 0.38302 0.0
H430 H 0.17143 0.89241 0.29256 0.0
H431 H 0.02711 0.90818 0.44009 0.0
H432 H 0.10695 0.80677 0.32079 0.0
H433 H 0.12166 0.96629 0.43837 0.0
H434 H 0.04663 0.87728 0.38804 0.0
H435 H 0.14205 0.92718 0.33611 0.0
C436 C 0.15058 0.88103 0.30737 0.0
C437 C 0.14212 0.84632 0.30337 0.0
C438 C 0.06291 0.89694 0.39903 0.0
C439 C 0.10854 0.88619 0.35354 0.0
C440 C 0.05182 0.91461 0.42861 0.0
C441 C 0.07284 0.93983 0.44355 0.0
C442 C 0.0949 0.9051 0.38396 0.0
C443 C 0.10474 0.94694 0.42783 0.0
C444 C 0.13402 0.90091 0.33242 0.0
C445 C 0.11453 0.8333 0.32313 0.0
N446 N 0.11471 0.92979 0.39881 0.0
N447 N 0.09896 0.85316 0.34773 0.0
H448 H 0.20474 0.89818 0.73063 0.0
H449 H 0.05153 0.8943 0.59917 0.0
H450 H 0.12733 0.81882 0.73297 0.0
H451 H 0.10897 0.98588 0.62341 0.0
H452 H 0.07474 0.86774 0.65205 0.0
H453 H 0.1652 0.93393 0.69723 0.0
C454 C 0.17913 0.88861 0.72493 0.0
C455 C 0.1698 0.85508 0.73352 0.0
C456 C 0.08177 0.89384 0.64585 0.0
C457 C 0.12487 0.89528 0.69453 0.0
C458 C 0.06879 0.90882 0.61555 0.0
C459 C 0.07921 0.94187 0.60614 0.0
C460 C 0.10527 0.91212 0.66652 0.0
C461 C 0.10102 0.95988 0.6288 0.0
C462 C 0.15655 0.90895 0.70569 0.0
C463 C 0.13601 0.84421 0.72596 0.0
N464 N 0.11364 0.94462 0.65759 0.0
N465 N 0.11508 0.86388 0.70595 0.0
H466 H 0.14648 0.17776 0.71808 0.0
H467 H 0.10217 0.13915 0.51989 0.0
H468 H 0.21278 0.20043 0.63065 0.0
H469 H 0.03794 0.10647 0.60497 0.0
H470 H 0.13578 0.17402 0.56007 0.0
H471 H 0.10123 0.16003 0.67739 0.0
C472 C 0.15164 0.17878 0.69046 0.0
C473 C 0.18365 0.19026 0.67786 0.0
C474 C 0.11371 0.16005 0.56992 0.0
C475 C 0.13186 0.17099 0.63132 0.0
C476 C 0.09418 0.14074 0.54681 0.0
C477 C 0.06723 0.12043 0.55928 0.0
C478 C 0.10657 0.15821 0.60571 0.0
C479 C 0.05838 0.12233 0.59452 0.0
C480 C 0.1257 0.16905 0.66726 0.0
C481 C 0.18868 0.19154 0.64174 0.0
N482 N 0.07848 0.14033 0.61675 0.0
N483 N 0.16316 0.18202 0.61987 0.0
H484 H 0.87284 0.23 0.67187 0.0
H485 H 0.88577 0.0479 0.59982 0.0
H486 H 0.83115 0.14604 0.73096 0.0
H487 H 0.97251 0.11593 0.58748 0.0
H488 H 0.86448 0.08363 0.64758 0.0
H489 H 0.91057 0.18974 0.6408 0.0
C490 C 0.87255 0.20315 0.67897 0.0
C491 C 0.84926 0.19106 0.70392 0.0
C492 C 0.88849 0.09036 0.63479 0.0
C493 C 0.89082 0.14506 0.6678 0.0
C494 C 0.9004 0.07025 0.60738 0.0
C495 C 0.93064 0.07932 0.5896 0.0
C496 C 0.90646 0.12018 0.64368 0.0
C497 C 0.94898 0.10823 0.60057 0.0
C498 C 0.89394 0.18025 0.66128 0.0
C499 C 0.84916 0.15613 0.71201 0.0
N500 N 0.93618 0.12814 0.62651 0.0
N501 N 0.86905 0.13407 0.69329 0.0
H502 H 0.87016 0.79582 0.67213 0.0
H503 H 0.89143 0.98413 0.61942 0.0
H504 H 0.82814 0.87335 0.73993 0.0
H505 H 0.97797 0.91499 0.60839 0.0
H506 H 0.86585 0.94521 0.66235 0.0
H507 H 0.90804 0.83887 0.64586 0.0
C508 C 0.86925 0.82188 0.68173 0.0
C509 C 0.84606 0.83114 0.70818 0.0
C510 C 0.89088 0.93903 0.65123 0.0
C511 C 0.88861 0.88054 0.67774 0.0
C512 C 0.90549 0.96123 0.62687 0.0
C513 C 0.93691 0.95279 0.61062 0.0
C514 C 0.90718 0.90762 0.6583 0.0
C515 C 0.95389 0.92256 0.62068 0.0
C516 C 0.89096 0.84633 0.66689 0.0
C517 C 0.84583 0.86522 0.7197 0.0
N518 N 0.93837 0.90057 0.64323 0.0
N519 N 0.86625 0.88895 0.70385 0.0
H520 H 0.30677 0.20091 0.12825 0.0
H521 H 0.431 0.03889 0.09898 0.0
H522 H 0.32112 0.12254 0.20611 0.0
H523 H 0.43007 0.12901 0.0339 0.0
H524 H 0.38755 0.06602 0.13655 0.0
H525 H 0.34748 0.17094 0.09068 0.0
C526 C 0.31822 0.17721 0.1374 0.0
C527 C 0.31057 0.1644 0.17059 0.0
C528 C 0.39701 0.07981 0.11409 0.0
C529 C 0.35771 0.12995 0.12751 0.0
C530 C 0.42189 0.06441 0.09267 0.0
C531 C 0.43438 0.0817 0.0632 0.0
C532 C 0.38433 0.11258 0.10583 0.0
C533 C 0.4214 0.11466 0.0563 0.0
C534 C 0.34167 0.16017 0.11593 0.0
C535 C 0.32626 0.13344 0.1808 0.0
N536 N 0.39708 0.12889 0.07734 0.0
N537 N 0.34922 0.11733 0.15939 0.0
H538 H 0.84582 0.25586 0.15203 0.0
H539 H 0.92693 0.43676 0.12181 0.0
H540 H 0.79579 0.35187 0.17754 0.0
H541 H 0.93296 0.36593 0.03603 0.0
H542 H 0.89233 0.39556 0.15385 0.0
H543 H 0.88786 0.28764 0.1162 0.0
C544 C 0.84329 0.28339 0.14963 0.0
C545 C 0.81777 0.3014 0.16832 0.0
C546 C 0.90162 0.38889 0.12816 0.0
C547 C 0.86565 0.33716 0.12878 0.0
C548 C 0.92138 0.41224 0.10996 0.0
C549 C 0.93194 0.40491 0.07603 0.0
C550 C 0.89229 0.35809 0.1123 0.0
C551 C 0.92485 0.37248 0.06211 0.0
C552 C 0.86729 0.30133 0.12945 0.0
C553 C 0.81547 0.33698 0.16426 0.0
N554 N 0.90475 0.35017 0.0802 0.0
N555 N 0.83948 0.35371 0.14541 0.0
H556 H 0.70302 0.88168 0.23841 0.0
H557 H 0.65251 0.95407 0.0515 0.0
H558 H 0.74936 0.8452 0.1432 0.0
H559 H 0.5811 0.9465 0.13734 0.0
H560 H 0.69869 0.93169 0.08898 0.0
H561 H 0.66931 0.92323 0.20491 0.0
C562 C 0.70672 0.88291 0.21056 0.0
C563 C 0.72856 0.85954 0.19345 0.0
C564 C 0.67305 0.93567 0.09969 0.0
C565 C 0.69031 0.90706 0.15526 0.0
C566 C 0.64682 0.94856 0.07847 0.0
C567 C 0.61301 0.95167 0.0914 0.0
C568 C 0.66535 0.92654 0.13407 0.0
C569 C 0.60681 0.94399 0.12638 0.0
C570 C 0.68739 0.90653 0.19153 0.0
C571 C 0.73237 0.86238 0.15733 0.0
N572 N 0.63273 0.93155 0.14651 0.0
N573 N 0.71313 0.88551 0.13934 0.0
H574 H 0.11931 0.68152 0.20888 0.0
H575 H 0.14329 0.55598 0.04579 0.0
H576 H 0.20658 0.6832 0.1387 0.0
H577 H 0.04719 0.56464 0.10261 0.0
H578 H 0.16857 0.59876 0.08395 0.0
H579 H 0.09345 0.63608 0.17351 0.0
C580 C 0.13294 0.67257 0.186 0.0
C581 C 0.1652 0.68637 0.17683 0.0
C582 C 0.142 0.5912 0.08823 0.0
C583 C 0.13602 0.63405 0.13662 0.0
C584 C 0.12758 0.56652 0.06654 0.0
C585 C 0.09297 0.55663 0.07081 0.0
C586 C 0.1218 0.60621 0.11458 0.0
C587 C 0.07397 0.57142 0.09824 0.0
C588 C 0.11822 0.64655 0.16591 0.0
C589 C 0.18168 0.67355 0.14693 0.0
N590 N 0.08857 0.59555 0.11897 0.0
N591 N 0.16701 0.64815 0.1281 0.0
H592 H 0.34302 0.87703 0.79745 0.0
H593 H 0.45683 0.86456 0.96984 0.0
H594 H 0.32907 0.80079 0.8775 0.0
H595 H 0.45209 0.95609 0.90689 0.0
H596 H 0.41647 0.8371 0.93041 0.0
H597 H 0.38806 0.90371 0.83284 0.0
C598 C 0.34921 0.86605 0.8225 0.0
C599 C 0.33212 0.83671 0.83456 0.0
C600 C 0.42444 0.86314 0.92511 0.0
C601 C 0.3839 0.86662 0.87468 0.0
C602 C 0.44772 0.87877 0.94748 0.0
C603 C 0.45765 0.91283 0.94192 0.0
C604 C 0.41104 0.88158 0.89685 0.0
C605 C 0.44497 0.92986 0.91237 0.0
C606 C 0.37497 0.88121 0.84259 0.0
C607 C 0.34133 0.82349 0.86717 0.0
N608 N 0.42211 0.91411 0.89103 0.0
N609 N 0.36668 0.83843 0.88596 0.0
H610 H 0.16511 0.25708 0.86409 0.0
H611 H 0.04995 0.42539 0.87988 0.0
H612 H 0.15132 0.33341 0.78428 0.0
H613 H 0.06826 0.35726 0.96594 0.0
H614 H 0.07393 0.38258 0.84052 0.0
H615 H 0.11844 0.28454 0.89782 0.0
C616 C 0.15181 0.27918 0.85344 0.0
C617 C 0.16247 0.29358 0.82185 0.0
C618 C 0.07224 0.37656 0.86791 0.0
C619 C 0.10935 0.32468 0.85974 0.0
C620 C 0.05841 0.40096 0.89027 0.0
C621 C 0.05762 0.39474 0.92597 0.0
C622 C 0.08638 0.34619 0.88155 0.0
C623 C 0.06862 0.36278 0.9384 0.0
C624 C 0.12528 0.29482 0.87263 0.0
C625 C 0.14441 0.32203 0.80896 0.0
N626 N 0.0834 0.33984 0.91624 0.0
N627 N 0.11901 0.33679 0.82807 0.0
H628 H 0.68935 0.14381 0.78527 0.0
H629 H 0.64563 0.08218 0.97799 0.0
H630 H 0.7378 0.18827 0.87505 0.0
H631 H 0.58699 0.05811 0.88635 0.0
H632 H 0.68935 0.11028 0.94109 0.0
H633 H 0.66275 0.10081 0.82217 0.0
C634 C 0.69471 0.14416 0.81287 0.0
C635 C 0.7153 0.16983 0.8273 0.0
C636 C 0.66724 0.09822 0.92912 0.0
C637 C 0.68417 0.1211 0.87002 0.0
C638 C 0.64251 0.08204 0.95006 0.0
C639 C 0.61273 0.06812 0.93501 0.0
C640 C 0.6621 0.09992 0.89305 0.0
C641 C 0.6095 0.06884 0.89888 0.0
C642 C 0.67947 0.11965 0.83396 0.0
C643 C 0.72188 0.1689 0.86307 0.0
N644 N 0.63373 0.08463 0.87921 0.0
N645 N 0.70574 0.14524 0.88346 0.0
H646 H 0.83796 0.72463 0.87658 0.0
H647 H 0.96569 0.56405 0.89996 0.0
H648 H 0.86784 0.65862 0.79188 0.0
H649 H 0.89851 0.60216 0.98097 0.0
H650 H 0.94202 0.60781 0.86055 0.0
H651 H 0.87352 0.68954 0.91586 0.0
C652 C 0.8527 0.70333 0.86614 0.0
C653 C 0.84979 0.69424 0.83112 0.0
C654 C 0.93269 0.60657 0.88704 0.0
C655 C 0.89018 0.65421 0.87556 0.0
C656 C 0.94608 0.58164 0.90944 0.0
C657 C 0.93354 0.57908 0.94353 0.0
C658 C 0.90722 0.62948 0.89914 0.0
C659 C 0.90837 0.60275 0.95466 0.0
C660 C 0.87268 0.68318 0.88854 0.0
C661 C 0.86917 0.66621 0.81886 0.0
N662 N 0.89606 0.62695 0.93255 0.0
N663 N 0.88841 0.64705 0.84108 0.0
H664 H 0.18199 0.27568 0.13107 0.0
H665 H 0.04052 0.42335 0.10611 0.0
H666 H 0.128 0.32016 0.21848 0.0
H667 H 0.12306 0.40031 0.0339 0.0
H668 H 0.06373 0.3793 0.14553 0.0
H669 H 0.14995 0.31335 0.0924 0.0
C670 C 0.16305 0.29306 0.14216 0.0
C671 C 0.15814 0.29515 0.17817 0.0
C672 C 0.07661 0.38406 0.12102 0.0
C673 C 0.12154 0.33872 0.13387 0.0
C674 C 0.0635 0.40917 0.0986 0.0
C675 C 0.08007 0.41576 0.0668 0.0
C676 C 0.106 0.36512 0.11113 0.0
C677 C 0.10961 0.39648 0.05826 0.0
C678 C 0.14488 0.31471 0.12003 0.0
C679 C 0.13281 0.31789 0.19089 0.0
N680 N 0.12148 0.37203 0.0802 0.0
N681 N 0.11566 0.33917 0.16874 0.0
H682 H 0.14032 0.69364 0.79655 0.0
H683 H 0.08714 0.62142 0.9811 0.0
H684 H 0.20212 0.71451 0.8874 0.0
H685 H 0.0782 0.56374 0.88614 0.0
H686 H 0.11521 0.66781 0.94847 0.0
H687 H 0.10229 0.6585 0.83178 0.0
C688 C 0.14573 0.6912 0.824 0.0
C689 C 0.17483 0.70652 0.83903 0.0
C690 C 0.10664 0.64512 0.93492 0.0
C691 C 0.13113 0.66665 0.8792 0.0
C692 C 0.09059 0.61891 0.9533 0.0
C693 C 0.08073 0.58898 0.93601 0.0
C694 C 0.1118 0.64135 0.89916 0.0
C695 C 0.08583 0.58646 0.90021 0.0
C696 C 0.12398 0.67114 0.84397 0.0
C697 C 0.18026 0.70267 0.87478 0.0
N698 N 0.10104 0.61246 0.88284 0.0
N699 N 0.15861 0.68278 0.8938 0.0
H700 H 0.26959 0.14996 0.86298 0.0
H701 H 0.4491 0.05115 0.87704 0.0
H702 H 0.34754 0.14473 0.78296 0.0
H703 H 0.37578 0.05556 0.96139 0.0
H704 H 0.4051 0.07365 0.838 0.0
H705 H 0.30084 0.10491 0.89524 0.0
C706 C 0.29274 0.13866 0.85186 0.0
C707 C 0.30648 0.15125 0.8207 0.0
C708 C 0.39827 0.0693 0.8649 0.0
C709 C 0.34209 0.1003 0.85701 0.0
C710 C 0.42342 0.05638 0.88713 0.0
C711 C 0.41605 0.05203 0.9224 0.0
C712 C 0.36574 0.07889 0.87824 0.0
C713 C 0.38235 0.05877 0.93425 0.0
C714 C 0.31061 0.11314 0.87025 0.0
C715 C 0.3365 0.13603 0.80726 0.0
N716 N 0.35853 0.07267 0.91232 0.0
N717 N 0.35344 0.11165 0.82562 0.0
H718 H 0.7819 0.38035 0.82207 0.0
H719 H 0.96058 0.41072 0.9194 0.0
H720 H 0.85952 0.30107 0.83159 0.0
H721 H 0.86695 0.46527 0.94659 0.0
H722 H 0.9274 0.37588 0.87863 0.0
H723 H 0.81622 0.41696 0.85999 0.0
C724 C 0.8062 0.37064 0.8321 0.0
C725 C 0.81783 0.33753 0.82373 0.0
C726 C 0.91423 0.39561 0.89343 0.0
C727 C 0.85739 0.37956 0.86673 0.0
C728 C 0.93315 0.41571 0.91646 0.0
C729 C 0.91646 0.44092 0.93649 0.0
C730 C 0.87852 0.40115 0.88996 0.0
C731 C 0.88081 0.44602 0.9318 0.0
C732 C 0.8257 0.39154 0.85379 0.0
C733 C 0.84948 0.32631 0.83758 0.0
N734 N 0.86303 0.42636 0.90895 0.0
N735 N 0.86831 0.34739 0.85824 0.0
H736 H 0.66368 0.84645 0.796 0.0
H737 H 0.6175 0.88814 0.99036 0.0
H738 H 0.73451 0.82227 0.87883 0.0
H739 H 0.58075 0.95223 0.90681 0.0
H740 H 0.65758 0.86018 0.95 0.0
H741 H 0.63034 0.88253 0.83589 0.0
C742 C 0.67241 0.84908 0.82255 0.0
C743 C 0.70185 0.83133 0.83421 0.0
C744 C 0.6409 0.8805 0.94057 0.0
C745 C 0.66336 0.87193 0.8801 0.0
C746 C 0.61779 0.89627 0.96347 0.0
C747 C 0.59551 0.92235 0.95182 0.0
C748 C 0.64127 0.89033 0.90557 0.0
C749 C 0.5974 0.93217 0.91683 0.0
C750 C 0.65342 0.86971 0.84523 0.0
C751 C 0.71207 0.83567 0.86881 0.0
N752 N 0.61956 0.91582 0.8948 0.0
N753 N 0.69249 0.8551 0.89076 0.0
H754 H 0.90178 0.70301 0.22219 0.0
H755 H 0.95269 0.634 0.03517 0.0
H756 H 0.84373 0.7304 0.13046 0.0
H757 H 0.95494 0.57318 0.12862 0.0
H758 H 0.93233 0.68333 0.06934 0.0
H759 H 0.94194 0.67058 0.18611 0.0
C760 C 0.89778 0.70281 0.19438 0.0
C761 C 0.86866 0.71849 0.17937 0.0
C762 C 0.9381 0.65935 0.0823 0.0
C763 C 0.91485 0.68187 0.13826 0.0
C764 C 0.94969 0.63139 0.06302 0.0
C765 C 0.95498 0.59973 0.07937 0.0
C766 C 0.93276 0.65547 0.11803 0.0
C767 C 0.95065 0.59723 0.11526 0.0
C768 C 0.92081 0.68436 0.17392 0.0
C769 C 0.8654 0.71802 0.14313 0.0
N770 N 0.93964 0.62484 0.13351 0.0
N771 N 0.888 0.69937 0.12371 0.0
H772 H 0.27169 0.89447 0.1867 0.0
H773 H 0.43613 0.87785 0.072 0.0
H774 H 0.29169 0.80454 0.1245 0.0
H775 H 0.38415 0.97579 0.07538 0.0
H776 H 0.38506 0.85118 0.09737 0.0
H777 H 0.31268 0.92646 0.15045 0.0
C778 C 0.28401 0.88164 0.165 0.0
C779 C 0.27863 0.84655 0.15903 0.0
C780 C 0.38472 0.87849 0.09243 0.0
C781 C 0.32586 0.88276 0.11828 0.0
C782 C 0.41396 0.89376 0.07835 0.0
C783 C 0.41435 0.92906 0.07194 0.0
C784 C 0.35587 0.89871 0.10098 0.0
C785 C 0.38474 0.94846 0.08008 0.0
C786 C 0.30737 0.89993 0.1444 0.0
C787 C 0.29522 0.83138 0.13041 0.0
N788 N 0.3567 0.93308 0.09478 0.0
N789 N 0.31866 0.84935 0.11164 0.0
H790 H 0.71548 0.17846 0.14752 0.0
H791 H 0.55542 0.05757 0.1142 0.0
H792 H 0.64352 0.15531 0.23005 0.0
H793 H 0.59332 0.12812 0.03682 0.0
H794 H 0.5928 0.08494 0.15737 0.0
H795 H 0.677 0.15022 0.10638 0.0
C796 C 0.69184 0.167 0.15708 0.0
C797 C 0.68261 0.16926 0.19222 0.0
C798 C 0.5926 0.0945 0.13098 0.0
C799 C 0.63865 0.13705 0.14535 0.0
C800 C 0.57135 0.07899 0.10642 0.0
C801 C 0.5712 0.09077 0.072 0.0
C802 C 0.6144 0.12127 0.12072 0.0
C803 C 0.5924 0.11849 0.06317 0.0
C804 C 0.66979 0.15122 0.13355 0.0
C805 C 0.65149 0.15423 0.20311 0.0
N806 N 0.61349 0.13255 0.0873 0.0
N807 N 0.6306 0.13859 0.17973 0.0
H808 H 0.63094 0.69124 0.8184 0.0
H809 H 0.63866 0.5269 0.94292 0.0
H810 H 0.71561 0.61871 0.82045 0.0
H811 H 0.54892 0.59282 0.93551 0.0
H812 H 0.66765 0.56181 0.89939 0.0
H813 H 0.60042 0.65635 0.86144 0.0
C814 C 0.64301 0.66786 0.82759 0.0
C815 C 0.676 0.658 0.8157 0.0
C816 C 0.64164 0.56874 0.90731 0.0
C817 C 0.64131 0.61817 0.86538 0.0
C818 C 0.62507 0.54886 0.93237 0.0
C819 C 0.5912 0.55682 0.94305 0.0
C820 C 0.62439 0.59697 0.89264 0.0
C821 C 0.57504 0.58567 0.92822 0.0
C822 C 0.6256 0.64802 0.8523 0.0
C823 C 0.69029 0.62745 0.82875 0.0
N824 N 0.59175 0.60464 0.90375 0.0
N825 N 0.67298 0.6088 0.85292 0.0
H826 H 0.37295 0.72384 0.82761 0.0
H827 H 0.44448 0.53955 0.88203 0.0
H828 H 0.34477 0.63209 0.77272 0.0
H829 H 0.44313 0.62931 0.94715 0.0
H830 H 0.42163 0.57431 0.83388 0.0
H831 H 0.41379 0.69082 0.8622 0.0
C832 C 0.37591 0.69669 0.8225 0.0
C833 C 0.35527 0.68044 0.79775 0.0
C834 C 0.42688 0.58637 0.85859 0.0
C835 C 0.40127 0.64227 0.83786 0.0
C836 C 0.44001 0.56668 0.88595 0.0
C837 C 0.44524 0.58162 0.91864 0.0
C838 C 0.4196 0.62121 0.86401 0.0
C839 C 0.43897 0.61673 0.9225 0.0
C840 C 0.39911 0.67784 0.84231 0.0
C841 C 0.36026 0.64538 0.79174 0.0
N842 N 0.42636 0.63526 0.89558 0.0
N843 N 0.38241 0.62717 0.81224 0.0
H844 H 0.3792 0.30464 0.84337 0.0
H845 H 0.36659 0.4787 0.95241 0.0
H846 H 0.29579 0.37799 0.83336 0.0
H847 H 0.45531 0.411 0.95436 0.0
H848 H 0.3379 0.43934 0.91279 0.0
H849 H 0.4056 0.34117 0.88726 0.0
C850 C 0.36645 0.32843 0.85031 0.0
C851 C 0.33526 0.33827 0.83449 0.0
C852 C 0.36356 0.43301 0.92206 0.0
C853 C 0.36526 0.3801 0.88496 0.0
C854 C 0.37991 0.4554 0.94485 0.0
C855 C 0.41353 0.44831 0.95663 0.0
C856 C 0.38089 0.40325 0.91096 0.0
C857 C 0.42946 0.41767 0.94587 0.0
C858 C 0.38152 0.34925 0.87544 0.0
C859 C 0.31991 0.36937 0.84468 0.0
N860 N 0.41307 0.39639 0.92352 0.0
N861 N 0.33505 0.38914 0.86925 0.0
H862 H 0.61929 0.28858 0.80973 0.0
H863 H 0.55217 0.46808 0.88182 0.0
H864 H 0.65793 0.38506 0.77128 0.0
H865 H 0.56396 0.37802 0.94579 0.0
H866 H 0.57431 0.43561 0.83201 0.0
H867 H 0.58171 0.31964 0.84991 0.0
C868 C 0.61938 0.31631 0.80913 0.0
C869 C 0.64226 0.33427 0.78743 0.0
C870 C 0.57148 0.42293 0.85686 0.0
C871 C 0.59911 0.36972 0.83327 0.0
C872 C 0.55871 0.44128 0.88521 0.0
C873 C 0.55652 0.42568 0.91798 0.0
C874 C 0.58137 0.38865 0.86126 0.0
C875 C 0.5656 0.39103 0.92102 0.0
C876 C 0.59802 0.33392 0.83223 0.0
C877 C 0.64105 0.37019 0.78784 0.0
N878 N 0.57772 0.37364 0.89298 0.0
N879 N 0.62 0.38681 0.81068 0.0
H880 H 0.67965 0.38209 0.25317 0.0
H881 H 0.55869 0.38195 0.09418 0.0
H882 H 0.61918 0.2929 0.22818 0.0
H883 H 0.57057 0.47421 0.15425 0.0
H884 H 0.58091 0.34863 0.1432 0.0
H885 H 0.63995 0.41716 0.21856 0.0
C886 C 0.6576 0.37002 0.24106 0.0
C887 C 0.65295 0.33448 0.24317 0.0
C888 C 0.57804 0.3761 0.14589 0.0
C889 C 0.60813 0.3742 0.20306 0.0
C890 C 0.5656 0.39507 0.11791 0.0
C891 C 0.56308 0.43077 0.12026 0.0
C892 C 0.58898 0.3931 0.17597 0.0
C893 C 0.57214 0.44666 0.15155 0.0
C894 C 0.63495 0.39004 0.22139 0.0
C895 C 0.62385 0.32018 0.22711 0.0
N896 N 0.58545 0.42776 0.17803 0.0
N897 N 0.603 0.33997 0.207 0.0
H898 H 0.68541 0.71322 0.14425 0.0
H899 H 0.6324 0.52269 0.10184 0.0
H900 H 0.69858 0.63101 0.21805 0.0
H901 H 0.5701 0.6073 0.06522 0.0
H902 H 0.66594 0.56244 0.13694 0.0
H903 H 0.65121 0.67483 0.10753 0.0
C904 C 0.68118 0.6871 0.15265 0.0
C905 C 0.69478 0.6752 0.18421 0.0
C906 C 0.64499 0.57227 0.12113 0.0
C907 C 0.6564 0.6314 0.14229 0.0
C908 C 0.62601 0.54972 0.10089 0.0
C909 C 0.59847 0.56179 0.08055 0.0
C910 C 0.63687 0.60726 0.12054 0.0
C911 C 0.59109 0.59701 0.08065 0.0
C912 C 0.66158 0.66538 0.13182 0.0
C913 C 0.68841 0.64123 0.194 0.0
N914 N 0.6104 0.61867 0.10022 0.0
N915 N 0.66994 0.62039 0.17293 0.0
H916 H 0.35407 0.73241 0.17896 0.0
H917 H 0.44617 0.55149 0.15686 0.0
H918 H 0.34254 0.65135 0.25403 0.0
H919 H 0.45487 0.63612 0.08557 0.0
H920 H 0.41817 0.58995 0.19912 0.0
H921 H 0.40052 0.70045 0.15119 0.0
C922 C 0.36163 0.70786 0.18975 0.0
C923 C 0.34416 0.69418 0.21841 0.0
C924 C 0.42699 0.60024 0.17456 0.0
C925 C 0.39704 0.65683 0.18624 0.0
C926 C 0.44319 0.57839 0.15061 0.0
C927 C 0.4524 0.59072 0.11766 0.0
C928 C 0.42024 0.63446 0.1653 0.0
C929 C 0.44772 0.62559 0.11058 0.0
C930 C 0.38823 0.68958 0.17392 0.0
C931 C 0.35532 0.66258 0.23177 0.0
N932 N 0.43165 0.64609 0.134 0.0
N933 N 0.3807 0.64454 0.2151 0.0
H934 H 0.28296 0.34917 0.1663 0.0
H935 H 0.46444 0.4295 0.11552 0.0
H936 H 0.37307 0.33443 0.23048 0.0
H937 H 0.36697 0.47136 0.0806 0.0
H938 H 0.43295 0.39089 0.15443 0.0
H939 H 0.31463 0.39083 0.13172 0.0
C940 C 0.30946 0.35488 0.17324 0.0
C941 C 0.32547 0.33824 0.20127 0.0
C942 C 0.41854 0.40861 0.1383 0.0
C943 C 0.36213 0.38573 0.1613 0.0
C944 C 0.43643 0.43046 0.11585 0.0
C945 C 0.41829 0.45363 0.09457 0.0
C946 C 0.38226 0.40954 0.13908 0.0
C947 C 0.38204 0.45396 0.09646 0.0
C948 C 0.32749 0.37875 0.1535 0.0
C949 C 0.35976 0.34681 0.20917 0.0
N950 N 0.36525 0.4321 0.11811 0.0
N951 N 0.37717 0.36972 0.18897 0.0
H952 H 0.80845 0.68996 0.61745 0.0
H953 H 0.91189 0.51578 0.61949 0.0
H954 H 0.7914 0.60986 0.6928 0.0
H955 H 0.91233 0.58303 0.53068 0.0
H956 H 0.86234 0.54686 0.64284 0.0
H957 H 0.84093 0.64925 0.58157 0.0
C958 C 0.81097 0.66371 0.6262 0.0
C959 C 0.7977 0.65355 0.65858 0.0
C960 C 0.87275 0.55456 0.61793 0.0
C961 C 0.83509 0.60693 0.61774 0.0
C962 C 0.90106 0.53672 0.60456 0.0
C963 C 0.91639 0.54703 0.57329 0.0
C964 C 0.86017 0.58358 0.60039 0.0
C965 C 0.90126 0.57431 0.55495 0.0
C966 C 0.82953 0.64046 0.60566 0.0
C967 C 0.8016 0.6191 0.66836 0.0
N968 N 0.8744 0.59217 0.56916 0.0
N969 N 0.82036 0.59725 0.64832 0.0
H970 H 0.27421 0.8349 0.63815 0.0
H971 H 0.44787 0.86208 0.53441 0.0
H972 H 0.36028 0.76422 0.64004 0.0
H973 H 0.37279 0.94022 0.56024 0.0
H974 H 0.40643 0.81825 0.55237 0.0
H975 H 0.29997 0.86371 0.58841 0.0
C976 C 0.2984 0.82521 0.62766 0.0
C977 C 0.31599 0.79812 0.64375 0.0
C978 C 0.3988 0.84496 0.55321 0.0
C979 C 0.34573 0.83115 0.58753 0.0
C980 C 0.42234 0.86994 0.54304 0.0
C981 C 0.4139 0.9047 0.547 0.0
C982 C 0.36675 0.85507 0.56704 0.0
C983 C 0.38054 0.91364 0.55786 0.0
C984 C 0.31295 0.8415 0.59923 0.0
C985 C 0.34649 0.78564 0.62866 0.0
N986 N 0.35829 0.88894 0.56799 0.0
N987 N 0.36105 0.80295 0.60179 0.0
H988 H 0.23398 0.39146 0.69098 0.0
H989 H 0.08528 0.37072 0.55861 0.0
H990 H 0.23236 0.30504 0.62111 0.0
H991 H 0.12084 0.46979 0.5925 0.0
H992 H 0.14085 0.34589 0.57763 0.0
H993 H 0.19512 0.42206 0.65186 0.0
C994 C 0.22614 0.37926 0.66705 0.0
C995 C 0.23579 0.34547 0.65971 0.0
C996 C 0.13651 0.37317 0.58026 0.0
C997 C 0.19068 0.37973 0.61545 0.0
C998 C 0.10484 0.38718 0.56962 0.0
C999 C 0.09803 0.42192 0.57544 0.0
C1000 C 0.16095 0.39427 0.59669 0.0
C1001 C 0.12445 0.44249 0.589 0.0
C1002 C 0.20392 0.39666 0.64471 0.0
C1003 C 0.22511 0.33094 0.6281 0.0
N1004 N 0.15446 0.42827 0.59972 0.0
N1005 N 0.20228 0.3478 0.60755 0.0
H1006 H 0.62284 0.19655 0.69255 0.0
H1007 H 0.60868 0.05147 0.54828 0.0
H1008 H 0.70723 0.17481 0.62212 0.0
H1009 H 0.54414 0.0569 0.63982 0.0
H1010 H 0.64352 0.09848 0.57111 0.0
H1011 H 0.59075 0.14923 0.66794 0.0
C1012 C 0.63457 0.18208 0.67159 0.0
C1013 C 0.66803 0.18963 0.65962 0.0
C1014 C 0.62198 0.08905 0.58631 0.0
C1015 C 0.63119 0.13478 0.63145 0.0
C1016 C 0.60215 0.06206 0.57344 0.0
C1017 C 0.57327 0.05014 0.59212 0.0
C1018 C 0.61265 0.10446 0.61787 0.0
C1019 C 0.56607 0.06509 0.62446 0.0
C1020 C 0.61624 0.1548 0.65773 0.0
C1021 C 0.68155 0.16996 0.63218 0.0
N1022 N 0.58537 0.09164 0.63607 0.0
N1023 N 0.66312 0.14327 0.61908 0.0
H1024 H 0.83743 0.36586 0.30316 0.0
H1025 H 0.95295 0.38199 0.47235 0.0
H1026 H 0.82155 0.30056 0.39221 0.0
H1027 H 0.98414 0.4169 0.37087 0.0
H1028 H 0.90406 0.352 0.44574 0.0
H1029 H 0.88841 0.38963 0.33134 0.0
C1030 C 0.84421 0.35713 0.32897 0.0
C1031 C 0.82547 0.33114 0.34532 0.0
C1032 C 0.92209 0.36565 0.4293 0.0
C1033 C 0.88408 0.35736 0.37722 0.0
C1034 C 0.95018 0.38227 0.44441 0.0
C1035 C 0.97199 0.4023 0.42373 0.0
C1036 C 0.91615 0.36949 0.39352 0.0
C1037 C 0.96744 0.40205 0.38767 0.0
C1038 C 0.87364 0.3702 0.34478 0.0
C1039 C 0.83556 0.32046 0.37865 0.0
N1040 N 0.93958 0.38651 0.37374 0.0
N1041 N 0.86437 0.33352 0.39351 0.0
H1042 H 0.62919 0.77374 0.30387 0.0
H1043 H 0.58023 0.87435 0.47727 0.0
H1044 H 0.70143 0.78932 0.38728 0.0
H1045 H 0.55029 0.90709 0.37476 0.0
H1046 H 0.60969 0.82429 0.45148 0.0
H1047 H 0.58434 0.80324 0.33822 0.0
C1048 C 0.63511 0.78228 0.32992 0.0
C1049 C 0.66874 0.77966 0.34294 0.0
C1050 C 0.59599 0.84215 0.43487 0.0
C1051 C 0.61829 0.81264 0.38189 0.0
C1052 C 0.57948 0.87055 0.44943 0.0
C1053 C 0.56376 0.89478 0.42777 0.0
C1054 C 0.59571 0.8379 0.39872 0.0
C1055 C 0.56291 0.88904 0.39199 0.0
C1056 C 0.60974 0.79912 0.34932 0.0
C1057 C 0.67564 0.7913 0.37652 0.0
N1058 N 0.57888 0.86111 0.37845 0.0
N1059 N 0.6506 0.80766 0.39487 0.0
H1060 H 0.23531 0.64424 0.34791 0.0
H1061 H 0.08214 0.61791 0.48531 0.0
H1062 H 0.16196 0.72329 0.37522 0.0
H1063 H 0.11424 0.53991 0.413 0.0
H1064 H 0.12708 0.65593 0.46181 0.0
H1065 H 0.20611 0.60519 0.38873 0.0
C1066 C 0.21372 0.65358 0.36324 0.0
C1067 C 0.20069 0.68675 0.35817 0.0
C1068 C 0.12479 0.63014 0.45179 0.0
C1069 C 0.16783 0.64287 0.40477 0.0
C1070 C 0.09942 0.60848 0.46531 0.0
C1071 C 0.09466 0.57596 0.4509 0.0
C1072 C 0.14573 0.61878 0.42421 0.0
C1073 C 0.11718 0.56496 0.42457 0.0
C1074 C 0.19705 0.63137 0.38629 0.0
C1075 C 0.17249 0.69772 0.37831 0.0
N1076 N 0.14171 0.5864 0.41189 0.0
N1077 N 0.15687 0.67578 0.40067 0.0
H1078 H 0.30077 0.16211 0.36888 0.0
H1079 H 0.49386 0.09977 0.38853 0.0
H1080 H 0.38534 0.22088 0.32719 0.0
H1081 H 0.41531 0.07364 0.4637 0.0
H1082 H 0.45439 0.1422 0.36332 0.0
H1083 H 0.34195 0.12793 0.40241 0.0
C1084 C 0.32806 0.16814 0.36727 0.0
C1085 C 0.33977 0.19432 0.34532 0.0
C1086 C 0.44594 0.12734 0.38549 0.0
C1087 C 0.38707 0.1547 0.38283 0.0
C1088 C 0.4683 0.1029 0.3997 0.0
C1089 C 0.45775 0.08289 0.42809 0.0
C1090 C 0.41256 0.13136 0.39932 0.0
C1091 C 0.42449 0.0884 0.44177 0.0
C1092 C 0.35152 0.14863 0.38638 0.0
C1093 C 0.37533 0.20106 0.34406 0.0
N1094 N 0.40293 0.11182 0.42699 0.0
N1095 N 0.39788 0.18093 0.3621 0.0
H1096 H 0.70583 0.80586 0.62329 0.0
H1097 H 0.5227 0.89995 0.62417 0.0
H1098 H 0.62325 0.78273 0.69519 0.0
H1099 H 0.595 0.9099 0.53914 0.0
H1100 H 0.55987 0.85656 0.6499 0.0
H1101 H 0.66593 0.84253 0.59066 0.0
C1102 C 0.67923 0.80804 0.63195 0.0
C1103 C 0.66804 0.79146 0.66232 0.0
C1104 C 0.56764 0.86808 0.62555 0.0
C1105 C 0.62249 0.8337 0.62536 0.0
C1106 C 0.54649 0.89311 0.61091 0.0
C1107 C 0.55585 0.90888 0.57955 0.0
C1108 C 0.59868 0.85881 0.60901 0.0
C1109 C 0.58684 0.89855 0.56344 0.0
C1110 C 0.65652 0.82907 0.61334 0.0
C1111 C 0.63323 0.79521 0.67218 0.0
N1112 N 0.60732 0.87431 0.5785 0.0
N1113 N 0.61188 0.8162 0.654 0.0
H1114 H 0.74538 0.17404 0.39418 0.0
H1115 H 0.5692 0.1257 0.48573 0.0
H1116 H 0.64816 0.22636 0.37721 0.0
H1117 H 0.64078 0.05206 0.44189 0.0
H1118 H 0.61058 0.17111 0.47361 0.0
H1119 H 0.71788 0.13943 0.43926 0.0
C1120 C 0.7185 0.17891 0.40065 0.0
C1121 C 0.69852 0.20222 0.38141 0.0
C1122 C 0.61747 0.14483 0.46768 0.0
C1123 C 0.66773 0.16364 0.43304 0.0
C1124 C 0.59394 0.11893 0.47429 0.0
C1125 C 0.60122 0.08531 0.4635 0.0
C1126 C 0.64843 0.13682 0.45067 0.0
C1127 C 0.6338 0.07788 0.44945 0.0
C1128 C 0.70304 0.1593 0.42638 0.0
C1129 C 0.66405 0.20789 0.39091 0.0
N1130 N 0.65617 0.10367 0.44289 0.0
N1131 N 0.64948 0.18827 0.41592 0.0
H1132 H 0.7853 0.61651 0.33557 0.0
H1133 H 0.94512 0.62894 0.46432 0.0
H1134 H 0.82243 0.71085 0.3793 0.0
H1135 H 0.9106 0.53655 0.41393 0.0
H1136 H 0.8915 0.6575 0.44553 0.0
H1137 H 0.8208 0.58466 0.37745 0.0
C1138 C 0.79996 0.63038 0.35485 0.0
C1139 C 0.80154 0.66607 0.35397 0.0
C1140 C 0.89564 0.63084 0.43897 0.0
C1141 C 0.84277 0.63041 0.40082 0.0
C1142 C 0.92627 0.61468 0.44952 0.0
C1143 C 0.93292 0.58082 0.43952 0.0
C1144 C 0.87164 0.61277 0.4186 0.0
C1145 C 0.90725 0.56316 0.42109 0.0
C1146 C 0.82048 0.61236 0.37851 0.0
C1147 C 0.82106 0.68315 0.37915 0.0
N1148 N 0.87803 0.57943 0.41092 0.0
N1149 N 0.84149 0.66518 0.40117 0.0
H1150 H 0.3633 0.79753 0.33107 0.0
H1151 H 0.39632 0.96418 0.44309 0.0
H1152 H 0.2832 0.87366 0.34494 0.0
H1153 H 0.47493 0.92136 0.37602 0.0
H1154 H 0.35379 0.9255 0.41696 0.0
H1155 H 0.4046 0.83637 0.35898 0.0
C1156 C 0.35433 0.82212 0.34057 0.0
C1157 C 0.31994 0.83254 0.33572 0.0
C1158 C 0.38032 0.9249 0.40786 0.0
C1159 C 0.36663 0.87668 0.36745 0.0
C1160 C 0.40447 0.94696 0.42258 0.0
C1161 C 0.43901 0.9462 0.41134 0.0
C1162 C 0.39112 0.90131 0.38256 0.0
C1163 C 0.44841 0.92315 0.38499 0.0
C1164 C 0.37788 0.84432 0.35609 0.0
C1165 C 0.3096 0.86482 0.3481 0.0
N1166 N 0.42467 0.90128 0.37177 0.0
N1167 N 0.33285 0.88576 0.36355 0.0
H1168 H 0.24437 0.37321 0.33456 0.0
H1169 H 0.10912 0.41068 0.48741 0.0
H1170 H 0.18208 0.29461 0.38177 0.0
H1171 H 0.11976 0.47706 0.39854 0.0
H1172 H 0.15386 0.37286 0.46281 0.0
H1173 H 0.21597 0.41597 0.3722 0.0
C1174 C 0.22547 0.36488 0.35353 0.0
C1175 C 0.21533 0.33049 0.35507 0.0
C1176 C 0.14695 0.39621 0.44925 0.0
C1177 C 0.18344 0.37879 0.39821 0.0
C1178 C 0.12167 0.4179 0.46333 0.0
C1179 C 0.11061 0.44691 0.44482 0.0
C1180 C 0.16175 0.40409 0.41692 0.0
C1181 C 0.12745 0.45484 0.41352 0.0
C1182 C 0.20922 0.38921 0.37478 0.0
C1183 C 0.19041 0.32096 0.37974 0.0
N1184 N 0.15208 0.43345 0.40043 0.0
N1185 N 0.17525 0.345 0.40033 0.0
H1186 H 0.34858 0.23887 0.62862 0.0
H1187 H 0.50394 0.10871 0.60329 0.0
H1188 H 0.40876 0.20693 0.7173 0.0
H1189 H 0.40133 0.09261 0.56317 0.0
H1190 H 0.48294 0.16037 0.63358 0.0
H1191 H 0.38449 0.20265 0.59158 0.0
C1192 C 0.37002 0.22501 0.64017 0.0
C1193 C 0.37511 0.22495 0.67622 0.0
C1194 C 0.46534 0.14569 0.61771 0.0
C1195 C 0.41612 0.18405 0.63396 0.0
C1196 C 0.47712 0.11645 0.60059 0.0
C1197 C 0.45402 0.0967 0.58116 0.0
C1198 C 0.43066 0.15545 0.61417 0.0
C1199 C 0.41964 0.10728 0.57822 0.0
C1200 C 0.39034 0.20441 0.619 0.0
C1201 C 0.40372 0.2072 0.68969 0.0
N1202 N 0.40894 0.1362 0.59451 0.0
N1203 N 0.42291 0.18671 0.66851 0.0
H1204 H 0.78481 0.39318 0.67778 0.0
H1205 H 0.92008 0.40582 0.5208 0.0
H1206 H 0.79897 0.31026 0.60498 0.0
H1207 H 0.93157 0.45474 0.62035 0.0
H1208 H 0.8656 0.38009 0.54154 0.0
H1209 H 0.82716 0.42661 0.64548 0.0
C1210 C 0.79617 0.3822 0.65458 0.0
C1211 C 0.78871 0.34849 0.64457 0.0
C1212 C 0.88003 0.39678 0.55855 0.0
C1213 C 0.83753 0.38678 0.60755 0.0
C1214 C 0.91102 0.4114 0.54678 0.0
C1215 C 0.93063 0.43202 0.56906 0.0
C1216 C 0.86829 0.40375 0.5924 0.0
C1217 C 0.91757 0.43866 0.60242 0.0
C1218 C 0.82054 0.40129 0.63626 0.0
C1219 C 0.80422 0.33594 0.61398 0.0
N1220 N 0.88732 0.42466 0.613 0.0
N1221 N 0.82828 0.35492 0.59678 0.0
H1222 H 0.21403 0.63668 0.68486 0.0
H1223 H 0.06506 0.62631 0.54528 0.0
H1224 H 0.17838 0.73064 0.63782 0.0
H1225 H 0.06234 0.57451 0.64432 0.0
H1226 H 0.11426 0.66051 0.56631 0.0
H1227 H 0.16855 0.60577 0.65373 0.0
C1228 C 0.19742 0.65052 0.66704 0.0
C1229 C 0.19953 0.68609 0.66397 0.0
C1230 C 0.10247 0.64173 0.58325 0.0
C1231 C 0.14781 0.65137 0.6289 0.0
C1232 C 0.07426 0.62261 0.57152 0.0
C1233 C 0.06006 0.59707 0.59281 0.0
C1234 C 0.11652 0.63454 0.61604 0.0
C1235 C 0.07292 0.59337 0.62668 0.0
C1236 C 0.17133 0.63307 0.64969 0.0
C1237 C 0.17716 0.70311 0.64092 0.0
N1238 N 0.10082 0.61135 0.63696 0.0
N1239 N 0.15187 0.68561 0.62435 0.0
loop_
_geom_bond_atom_site_label_1
_geom_bond_atom_site_label_2
_geom_bond_distance
_geom_bond_site_symmetry_2
_ccdc_geom_bond_type
O0 Zn1 1.953 . S
O0 C16 1.225 . S
Zn1 O0 1.953 . S
Zn1 O2 1.949 . S
Zn1 O8 1.919 . S
Zn1 O13 1.924 . S
O2 Zn1 1.949 . S
O2 Zn3 1.923 . S
O2 Zn4 1.950 . S
O2 Zn5 1.945 . S
Zn3 O2 1.923 . S
Zn3 O6 1.933 . S
Zn3 O9 1.941 . S
Zn3 O10 1.965 . S
Zn4 O2 1.950 . S
Zn4 O11 1.938 . S
Zn4 O12 1.906 . S
Zn4 O22 1.953 . S
Zn5 O2 1.945 . S
Zn5 O7 1.932 . S
Zn5 O14 1.977 . S
Zn5 O15 1.910 . S
O6 Zn3 1.933 . S
O6 C17 1.226 . S
O7 Zn5 1.932 . S
O7 C17 1.307 . S
O8 Zn1 1.919 . S
O8 C19 1.253 . S
O9 Zn3 1.941 . S
O9 C19 1.283 . S
O10 Zn3 1.965 . S
O10 C18 1.303 . S
O11 Zn4 1.938 . S
O11 C18 1.247 . S
O12 Zn4 1.906 . S
O12 C20 1.304 . S
O13 Zn1 1.924 . S
O13 C21 1.311 . S
O14 Zn5 1.977 . S
O14 C20 1.272 . S
O15 Zn5 1.910 . S
O15 C21 1.231 . S
C16 O0 1.225 . S
C16 O22 1.298 . S
C17 O6 1.226 . S
C17 O7 1.307 . S
C18 O10 1.303 . S
C18 O11 1.247 . S
C19 O8 1.253 . S
C19 O9 1.283 . S
C20 O12 1.304 . S
C20 O14 1.272 . S
C21 O13 1.311 . S
C21 O15 1.231 . S
O22 Zn4 1.953 . S
O22 C16 1.298 . S
O23 Zn24 1.953 . S
O23 C39 1.225 . S
Zn24 O23 1.953 . S
Zn24 O25 1.949 . S
Zn24 O31 1.919 . S
Zn24 O36 1.924 . S
O25 Zn24 1.949 . S
O25 Zn26 1.923 . S
O25 Zn27 1.950 . S
O25 Zn28 1.945 . S
Zn26 O25 1.923 . S
Zn26 O29 1.933 . S
Zn26 O32 1.941 . S
Zn26 O33 1.965 . S
Zn27 O25 1.950 . S
Zn27 O34 1.938 . S
Zn27 O35 1.906 . S
Zn27 O45 1.953 . S
Zn28 O25 1.945 . S
Zn28 O30 1.932 . S
Zn28 O37 1.977 . S
Zn28 O38 1.910 . S
O29 Zn26 1.933 . S
O29 C40 1.226 . S
O30 Zn28 1.932 . S
O30 C40 1.307 . S
O31 Zn24 1.919 . S
O31 C42 1.253 . S
O32 Zn26 1.941 . S
O32 C42 1.283 . S
O33 Zn26 1.965 . S
O33 C41 1.303 . S
O34 Zn27 1.938 . S
O34 C41 1.247 . S
O35 Zn27 1.906 . S
O35 C43 1.304 . S
O36 Zn24 1.924 . S
O36 C44 1.311 . S
O37 Zn28 1.977 . S
O37 C43 1.272 . S
O38 Zn28 1.910 . S
O38 C44 1.231 . S
C39 O23 1.225 . S
C39 O45 1.298 . S
C40 O29 1.226 . S
C40 O30 1.307 . S
C41 O33 1.303 . S
C41 O34 1.247 . S
C42 O31 1.253 . S
C42 O32 1.283 . S
C43 O35 1.304 . S
C43 O37 1.272 . S
C44 O36 1.311 . S
C44 O38 1.231 . S
O45 Zn27 1.953 . S
O45 C39 1.298 . S
O46 Zn47 1.953 . S
O46 C62 1.225 . S
Zn47 O46 1.953 . S
Zn47 O48 1.949 . S
Zn47 O54 1.919 . S
Zn47 O59 1.924 . S
O48 Zn47 1.949 . S
O48 Zn49 1.923 . S
O48 Zn50 1.950 . S
O48 Zn51 1.945 . S
Zn49 O48 1.923 . S
Zn49 O52 1.933 . S
Zn49 O55 1.941 . S
Zn49 O56 1.965 . S
Zn50 O48 1.950 . S
Zn50 O57 1.938 . S
Zn50 O58 1.906 . S
Zn50 O68 1.953 . S
Zn51 O48 1.945 . S
Zn51 O53 1.932 . S
Zn51 O60 1.977 . S
Zn51 O61 1.910 . S
O52 Zn49 1.933 . S
O52 C63 1.226 . S
O53 Zn51 1.932 . S
O53 C63 1.307 . S
O54 Zn47 1.919 . S
O54 C65 1.253 . S
O55 Zn49 1.941 . S
O55 C65 1.283 . S
O56 Zn49 1.965 . S
O56 C64 1.303 . S
O57 Zn50 1.938 . S
O57 C64 1.247 . S
O58 Zn50 1.906 . S
O58 C66 1.304 . S
O59 Zn47 1.924 . S
O59 C67 1.311 . S
O60 Zn51 1.977 . S
O60 C66 1.272 . S
O61 Zn51 1.910 . S
O61 C67 1.231 . S
C62 O46 1.225 . S
C62 O68 1.298 . S
C63 O52 1.226 . S
C63 O53 1.307 . S
C64 O56 1.303 . S
C64 O57 1.247 . S
C65 O54 1.253 . S
C65 O55 1.283 . S
C66 O58 1.304 . S
C66 O60 1.272 . S
C67 O59 1.311 . S
C67 O61 1.231 . S
O68 Zn50 1.953 . S
O68 C62 1.298 . S
O69 Zn70 1.953 . S
O69 C85 1.225 . S
Zn70 O69 1.953 . S
Zn70 O71 1.949 . S
Zn70 O77 1.919 . S
Zn70 O82 1.924 . S
O71 Zn70 1.949 . S
O71 Zn72 1.923 . S
O71 Zn73 1.950 . S
O71 Zn74 1.945 . S
Zn72 O71 1.923 . S
Zn72 O75 1.933 . S
Zn72 O78 1.941 . S
Zn72 O79 1.965 . S
Zn73 O71 1.950 . S
Zn73 O80 1.938 . S
Zn73 O81 1.906 . S
Zn73 O91 1.953 . S
Zn74 O71 1.945 . S
Zn74 O76 1.932 . S
Zn74 O83 1.977 . S
Zn74 O84 1.910 . S
O75 Zn72 1.933 . S
O75 C86 1.226 . S
O76 Zn74 1.932 . S
O76 C86 1.307 . S
O77 Zn70 1.919 . S
O77 C88 1.253 . S
O78 Zn72 1.941 . S
O78 C88 1.283 . S
O79 Zn72 1.965 . S
O79 C87 1.303 . S
O80 Zn73 1.938 . S
O80 C87 1.247 . S
O81 Zn73 1.906 . S
O81 C89 1.304 . S
O82 Zn70 1.924 . S
O82 C90 1.311 . S
O83 Zn74 1.977 . S
O83 C89 1.272 . S
O84 Zn74 1.910 . S
O84 C90 1.231 . S
C85 O69 1.225 . S
C85 O91 1.298 . S
C86 O75 1.226 . S
C86 O76 1.307 . S
C87 O79 1.303 . S
C87 O80 1.247 . S
C88 O77 1.253 . S
C88 O78 1.283 . S
C89 O81 1.304 . S
C89 O83 1.272 . S
C90 O82 1.311 . S
C90 O84 1.231 . S
O91 Zn73 1.953 . S
O91 C85 1.298 . S
O92 Zn93 1.953 . S
O92 C108 1.225 . S
Zn93 O92 1.953 . S
Zn93 O94 1.949 . S
Zn93 O100 1.919 . S
Zn93 O105 1.924 . S
O94 Zn93 1.949 . S
O94 Zn95 1.923 . S
O94 Zn96 1.950 . S
O94 Zn97 1.945 . S
Zn95 O94 1.923 . S
Zn95 O98 1.933 . S
Zn95 O101 1.941 . S
Zn95 O102 1.965 . S
Zn96 O94 1.950 . S
Zn96 O103 1.938 . S
Zn96 O104 1.906 . S
Zn96 O114 1.953 . S
Zn97 O94 1.945 . S
Zn97 O99 1.932 . S
Zn97 O106 1.977 . S
Zn97 O107 1.910 . S
O98 Zn95 1.933 . S
O98 C109 1.226 . S
O99 Zn97 1.932 . S
O99 C109 1.307 . S
O100 Zn93 1.919 . S
O100 C111 1.253 . S
O101 Zn95 1.941 . S
O101 C111 1.283 . S
O102 Zn95 1.965 . S
O102 C110 1.303 . S
O103 Zn96 1.938 . S
O103 C110 1.247 . S
O104 Zn96 1.906 . S
O104 C112 1.304 . S
O105 Zn93 1.924 . S
O105 C113 1.311 . S
O106 Zn97 1.977 . S
O106 C112 1.272 . S
O107 Zn97 1.910 . S
O107 C113 1.231 . S
C108 O92 1.225 . S
C108 O114 1.298 . S
C109 O98 1.226 . S
C109 O99 1.307 . S
C110 O102 1.303 . S
C110 O103 1.247 . S
C111 O100 1.253 . S
C111 O101 1.283 . S
C112 O104 1.304 . S
C112 O106 1.272 . S
C113 O105 1.311 . S
C113 O107 1.231 . S
O114 Zn96 1.953 . S
O114 C108 1.298 . S
O115 Zn116 1.953 . S
O115 C131 1.225 . S
Zn116 O115 1.953 . S
Zn116 O117 1.949 . S
Zn116 O123 1.919 . S
Zn116 O128 1.924 . S
O117 Zn116 1.949 . S
O117 Zn118 1.923 . S
O117 Zn119 1.950 . S
O117 Zn120 1.945 . S
Zn118 O117 1.923 . S
Zn118 O121 1.933 . S
Zn118 O124 1.941 . S
Zn118 O125 1.965 . S
Zn119 O117 1.950 . S
Zn119 O126 1.938 . S
Zn119 O127 1.906 . S
Zn119 O137 1.953 . S
Zn120 O117 1.945 . S
Zn120 O122 1.932 . S
Zn120 O129 1.977 . S
Zn120 O130 1.910 . S
O121 Zn118 1.933 . S
O121 C132 1.226 . S
O122 Zn120 1.932 . S
O122 C132 1.307 . S
O123 Zn116 1.919 . S
O123 C134 1.253 . S
O124 Zn118 1.941 . S
O124 C134 1.283 . S
O125 Zn118 1.965 . S
O125 C133 1.303 . S
O126 Zn119 1.938 . S
O126 C133 1.247 . S
O127 Zn119 1.906 . S
O127 C135 1.304 . S
O128 Zn116 1.924 . S
O128 C136 1.311 . S
O129 Zn120 1.977 . S
O129 C135 1.272 . S
O130 Zn120 1.910 . S
O130 C136 1.231 . S
C131 O115 1.225 . S
C131 O137 1.298 . S
C132 O121 1.226 . S
C132 O122 1.307 . S
C133 O125 1.303 . S
C133 O126 1.247 . S
C134 O123 1.253 . S
C134 O124 1.283 . S
C135 O127 1.304 . S
C135 O129 1.272 . S
C136 O128 1.311 . S
C136 O130 1.231 . S
O137 Zn119 1.953 . S
O137 C131 1.298 . S
O138 Zn139 1.953 . S
O138 C154 1.225 . S
Zn139 O138 1.953 . S
Zn139 O140 1.949 . S
Zn139 O146 1.919 . S
Zn139 O151 1.924 . S
O140 Zn139 1.949 . S
O140 Zn141 1.923 . S
O140 Zn142 1.950 . S
O140 Zn143 1.945 . S
Zn141 O140 1.923 . S
Zn141 O144 1.933 . S
Zn141 O147 1.941 . S
Zn141 O148 1.965 . S
Zn142 O140 1.950 . S
Zn142 O149 1.938 . S
Zn142 O150 1.906 . S
Zn142 O160 1.953 . S
Zn143 O140 1.945 . S
Zn143 O145 1.932 . S
Zn143 O152 1.977 . S
Zn143 O153 1.910 . S
O144 Zn141 1.933 . S
O144 C155 1.226 . S
O145 Zn143 1.932 . S
O145 C155 1.307 . S
O146 Zn139 1.919 . S
O146 C157 1.253 . S
O147 Zn141 1.941 . S
O147 C157 1.283 . S
O148 Zn141 1.965 . S
O148 C156 1.303 . S
O149 Zn142 1.938 . S
O149 C156 1.247 . S
O150 Zn142 1.906 . S
O150 C158 1.304 . S
O151 Zn139 1.924 . S
O151 C159 1.311 . S
O152 Zn143 1.977 . S
O152 C158 1.272 . S
O153 Zn143 1.910 . S
O153 C159 1.231 . S
C154 O138 1.225 . S
C154 O160 1.298 . S
C155 O144 1.226 . S
C155 O145 1.307 . S
C156 O148 1.303 . S
C156 O149 1.247 . S
C157 O146 1.253 . S
C157 O147 1.283 . S
C158 O150 1.304 . S
C158 O152 1.272 . S
C159 O151 1.311 . S
C159 O153 1.231 . S
O160 Zn142 1.953 . S
O160 C154 1.298 . S
O161 Zn162 1.953 . S
O161 C177 1.225 . S
Zn162 O161 1.953 . S
Zn162 O163 1.949 . S
Zn162 O169 1.919 . S
Zn162 O174 1.924 . S
O163 Zn162 1.949 . S
O163 Zn164 1.923 . S
O163 Zn165 1.950 . S
O163 Zn166 1.945 . S
Zn164 O163 1.923 . S
Zn164 O167 1.933 . S
Zn164 O170 1.941 . S
Zn164 O171 1.965 . S
Zn165 O163 1.950 . S
Zn165 O172 1.938 . S
Zn165 O173 1.906 . S
Zn165 O183 1.953 . S
Zn166 O163 1.945 . S
Zn166 O168 1.932 . S
Zn166 O175 1.977 . S
Zn166 O176 1.910 . S
O167 Zn164 1.933 . S
O167 C178 1.226 . S
O168 Zn166 1.932 . S
O168 C178 1.307 . S
O169 Zn162 1.919 . S
O169 C180 1.253 . S
O170 Zn164 1.941 . S
O170 C180 1.283 . S
O171 Zn164 1.965 . S
O171 C179 1.303 . S
O172 Zn165 1.938 . S
O172 C179 1.247 . S
O173 Zn165 1.906 . S
O173 C181 1.304 . S
O174 Zn162 1.924 . S
O174 C182 1.311 . S
O175 Zn166 1.977 . S
O175 C181 1.272 . S
O176 Zn166 1.910 . S
O176 C182 1.231 . S
C177 O161 1.225 . S
C177 O183 1.298 . S
C178 O167 1.226 . S
C178 O168 1.307 . S
C179 O171 1.303 . S
C179 O172 1.247 . S
C180 O169 1.253 . S
C180 O170 1.283 . S
C181 O173 1.304 . S
C181 O175 1.272 . S
C182 O174 1.311 . S
C182 O176 1.231 . S
O183 Zn165 1.953 . S
O183 C177 1.298 . S
Fe184 O185 1.886 1_455 S
Fe184 O188 1.715 . S
Fe184 O193 2.077 1_455 S
Fe184 O198 1.935 . S
Fe184 O204 2.077 1_455 S
Fe184 O213 1.935 . S
O185 Fe184 1.886 1_655 S
O185 Fe187 1.715 . S
Fe186 O188 1.886 . S
Fe186 O189 1.715 1_545 S
Fe186 O196 1.935 1_545 S
Fe186 O197 2.077 . S
Fe186 O203 1.935 1_545 S
Fe186 O212 2.077 . S
Fe187 O185 1.715 . S
Fe187 O190 1.886 1_545 S
Fe187 O194 1.935 . S
Fe187 O199 2.077 1_545 S
Fe187 O205 1.935 . S
Fe187 O209 2.077 1_545 S
O188 Fe184 1.715 . S
O188 Fe186 1.886 . S
O189 Fe186 1.715 1_565 S
O189 Fe191 1.886 . S
O190 Fe187 1.886 1_565 S
O190 Fe191 1.715 1_655 S
Fe191 O189 1.886 . S
Fe191 O190 1.715 1_455 S
Fe191 O195 2.077 . S
Fe191 O200 1.935 1_455 S
Fe191 O202 2.077 . S
Fe191 O210 1.935 1_455 S
C192 O204 1.381 . S
C192 O205 1.421 . S
O193 Fe184 2.077 1_655 S
O193 C206 1.381 . S
O194 Fe187 1.935 . S
O194 C206 1.421 . S
O195 Fe191 2.077 . S
O195 C211 1.381 . S
O196 Fe186 1.935 1_565 S
O196 C211 1.421 . S
O197 Fe186 2.077 . S
O197 C201 1.381 . S
O198 Fe184 1.935 . S
O198 C201 1.421 . S
O199 Fe187 2.077 1_565 S
O199 C207 1.381 . S
O200 Fe191 1.935 1_655 S
O200 C207 1.421 . S
C201 O197 1.381 . S
C201 O198 1.421 . S
O202 Fe191 2.077 . S
O202 C214 1.381 . S
O203 Fe186 1.935 1_565 S
O203 C214 1.421 . S
O204 Fe184 2.077 1_655 S
O204 C192 1.381 . S
O205 Fe187 1.935 . S
O205 C192 1.421 . S
C206 O193 1.381 . S
C206 O194 1.421 . S
C207 O199 1.381 . S
C207 O200 1.421 . S
C208 O209 1.381 . S
C208 O210 1.421 . S
O209 Fe187 2.077 1_565 S
O209 C208 1.381 . S
O210 Fe191 1.935 1_655 S
O210 C208 1.421 . S
C211 O195 1.381 . S
C211 O196 1.421 . S
O212 Fe186 2.077 . S
O212 C215 1.381 . S
O213 Fe184 1.935 . S
O213 C215 1.421 . S
C214 O202 1.381 . S
C214 O203 1.421 . S
C215 O212 1.381 . S
C215 O213 1.421 . S
Fe216 O217 1.886 . S
Fe216 O220 1.715 . S
Fe216 O225 2.077 1_554 S
Fe216 O230 1.935 1_554 S
Fe216 O236 2.077 . S
Fe216 O245 1.935 . S
O217 Fe216 1.886 . S
O217 Fe219 1.715 1_565 S
Fe218 O220 1.886 1_545 S
Fe218 O221 1.715 . S
Fe218 O228 1.935 1_554 S
Fe218 O229 2.077 1_544 S
Fe218 O235 1.935 . S
Fe218 O244 2.077 1_545 S
Fe219 O217 1.715 1_545 S
Fe219 O222 1.886 . S
Fe219 O226 1.935 1_544 S
Fe219 O231 2.077 1_554 S
Fe219 O237 1.935 1_545 S
Fe219 O241 2.077 . S
O220 Fe216 1.715 . S
O220 Fe218 1.886 1_565 S
O221 Fe218 1.715 . S
O221 Fe223 1.886 . S
O222 Fe219 1.886 . S
O222 Fe223 1.715 . S
Fe223 O221 1.886 . S
Fe223 O222 1.715 . S
Fe223 O227 2.077 1_554 S
Fe223 O232 1.935 1_554 S
Fe223 O234 2.077 . S
Fe223 O242 1.935 . S
C224 O236 1.381 . S
C224 O237 1.421 . S
O225 Fe216 2.077 1_556 S
O225 C238 1.381 . S
O226 Fe219 1.935 1_566 S
O226 C238 1.421 . S
O227 Fe223 2.077 1_556 S
O227 C243 1.381 . S
O228 Fe218 1.935 1_556 S
O228 C243 1.421 . S
O229 Fe218 2.077 1_566 S
O229 C233 1.381 . S
O230 Fe216 1.935 1_556 S
O230 C233 1.421 . S
O231 Fe219 2.077 1_556 S
O231 C239 1.381 . S
O232 Fe223 1.935 1_556 S
O232 C239 1.421 . S
C233 O229 1.381 . S
C233 O230 1.421 . S
O234 Fe223 2.077 . S
O234 C246 1.381 . S
O235 Fe218 1.935 . S
O235 C246 1.421 . S
O236 Fe216 2.077 . S
O236 C224 1.381 . S
O237 Fe219 1.935 1_565 S
O237 C224 1.421 . S
C238 O225 1.381 . S
C238 O226 1.421 . S
C239 O231 1.381 . S
C239 O232 1.421 . S
C240 O241 1.381 . S
C240 O242 1.421 . S
O241 Fe219 2.077 . S
O241 C240 1.381 . S
O242 Fe223 1.935 . S
O242 C240 1.421 . S
C243 O227 1.381 . S
C243 O228 1.421 . S
O244 Fe218 2.077 1_565 S
O244 C247 1.381 . S
O245 Fe216 1.935 . S
O245 C247 1.421 . S
C246 O234 1.381 . S
C246 O235 1.421 . S
C247 O244 1.381 . S
C247 O245 1.421 . S
Fe248 O249 1.886 1_455 S
Fe248 O252 1.715 . S
Fe248 O257 2.077 1_454 S
Fe248 O262 1.935 1_554 S
Fe248 O268 2.077 1_455 S
Fe248 O277 1.935 . S
O249 Fe248 1.886 1_655 S
O249 Fe251 1.715 . S
Fe250 O252 1.886 . S
Fe250 O253 1.715 . S
Fe250 O260 1.935 1_554 S
Fe250 O261 2.077 1_554 S
Fe250 O267 1.935 . S
Fe250 O276 2.077 . S
Fe251 O249 1.715 . S
Fe251 O254 1.886 . S
Fe251 O258 1.935 1_554 S
Fe251 O263 2.077 1_554 S
Fe251 O269 1.935 . S
Fe251 O273 2.077 . S
O252 Fe248 1.715 . S
O252 Fe250 1.886 . S
O253 Fe250 1.715 . S
O253 Fe255 1.886 . S
O254 Fe251 1.886 . S
O254 Fe255 1.715 1_655 S
Fe255 O253 1.886 . S
Fe255 O254 1.715 1_455 S
Fe255 O259 2.077 1_554 S
Fe255 O264 1.935 1_454 S
Fe255 O266 2.077 . S
Fe255 O274 1.935 1_455 S
C256 O268 1.381 . S
C256 O269 1.421 . S
O257 Fe248 2.077 1_656 S
O257 C270 1.381 . S
O258 Fe251 1.935 1_556 S
O258 C270 1.421 . S
O259 Fe255 2.077 1_556 S
O259 C275 1.381 . S
O260 Fe250 1.935 1_556 S
O260 C275 1.421 . S
O261 Fe250 2.077 1_556 S
O261 C265 1.381 . S
O262 Fe248 1.935 1_556 S
O262 C265 1.421 . S
O263 Fe251 2.077 1_556 S
O263 C271 1.381 . S
O264 Fe255 1.935 1_656 S
O264 C271 1.421 . S
C265 O261 1.381 . S
C265 O262 1.421 . S
O266 Fe255 2.077 . S
O266 C278 1.381 . S
O267 Fe250 1.935 . S
O267 C278 1.421 . S
O268 Fe248 2.077 1_655 S
O268 C256 1.381 . S
O269 Fe251 1.935 . S
O269 C256 1.421 . S
C270 O257 1.381 . S
C270 O258 1.421 . S
C271 O263 1.381 . S
C271 O264 1.421 . S
C272 O273 1.381 . S
C272 O274 1.421 . S
O273 Fe251 2.077 . S
O273 C272 1.381 . S
O274 Fe255 1.935 1_655 S
O274 C272 1.421 . S
C275 O259 1.381 . S
C275 O260 1.421 . S
O276 Fe250 2.077 . S
O276 C279 1.381 . S
O277 Fe248 1.935 . S
O277 C279 1.421 . S
C278 O266 1.381 . S
C278 O267 1.421 . S
C279 O276 1.381 . S
C279 O277 1.421 . S
Fe280 O281 1.886 . S
Fe280 O284 1.715 . S
Fe280 O289 2.077 . S
Fe280 O294 1.935 . S
Fe280 O300 2.077 . S
Fe280 O309 1.935 . S
O281 Fe280 1.886 . S
O281 Fe283 1.715 1_556 S
Fe282 O284 1.886 1_554 S
Fe282 O285 1.715 . S
Fe282 O292 1.935 . S
Fe282 O293 2.077 1_554 S
Fe282 O299 1.935 . S
Fe282 O308 2.077 1_554 S
Fe283 O281 1.715 1_554 S
Fe283 O286 1.886 . S
Fe283 O290 1.935 1_554 S
Fe283 O295 2.077 . S
Fe283 O301 1.935 1_554 S
Fe283 O305 2.077 . S
O284 Fe280 1.715 . S
O284 Fe282 1.886 1_556 S
O285 Fe282 1.715 . S
O285 Fe287 1.886 . S
O286 Fe283 1.886 . S
O286 Fe287 1.715 . S
Fe287 O285 1.886 . S
Fe287 O286 1.715 . S
Fe287 O291 2.077 . S
Fe287 O296 1.935 . S
Fe287 O298 2.077 . S
Fe287 O306 1.935 . S
C288 O300 1.381 . S
C288 O301 1.421 . S
O289 Fe280 2.077 . S
O289 C302 1.381 . S
O290 Fe283 1.935 1_556 S
O290 C302 1.421 . S
O291 Fe287 2.077 . S
O291 C307 1.381 . S
O292 Fe282 1.935 . S
O292 C307 1.421 . S
O293 Fe282 2.077 1_556 S
O293 C297 1.381 . S
O294 Fe280 1.935 . S
O294 C297 1.421 . S
O295 Fe283 2.077 . S
O295 C303 1.381 . S
O296 Fe287 1.935 . S
O296 C303 1.421 . S
C297 O293 1.381 . S
C297 O294 1.421 . S
O298 Fe287 2.077 . S
O298 C310 1.381 . S
O299 Fe282 1.935 . S
O299 C310 1.421 . S
O300 Fe280 2.077 . S
O300 C288 1.381 . S
O301 Fe283 1.935 1_556 S
O301 C288 1.421 . S
C302 O289 1.381 . S
C302 O290 1.421 . S
C303 O295 1.381 . S
C303 O296 1.421 . S
C304 O305 1.381 . S
C304 O306 1.421 . S
O305 Fe283 2.077 . S
O305 C304 1.381 . S
O306 Fe287 1.935 . S
O306 C304 1.421 . S
C307 O291 1.381 . S
C307 O292 1.421 . S
O308 Fe282 2.077 1_556 S
O308 C311 1.381 . S
O309 Fe280 1.935 . S
O309 C311 1.421 . S
C310 O298 1.381 . S
C310 O299 1.421 . S
C311 O308 1.381 . S
C311 O309 1.421 . S
Fe312 O313 1.886 . S
Fe312 O316 1.715 . S
Fe312 O321 2.077 . S
Fe312 O326 1.935 . S
Fe312 O332 2.077 1_455 S
Fe312 O341 1.935 1_455 S
O313 Fe312 1.886 . S
O313 Fe315 1.715 . S
Fe314 O316 1.886 . S
Fe314 O317 1.715 . S
Fe314 O324 1.935 . S
Fe314 O325 2.077 . S
Fe314 O331 1.935 1_455 S
Fe314 O340 2.077 1_455 S
Fe315 O313 1.715 . S
Fe315 O318 1.886 . S
Fe315 O322 1.935 . S
Fe315 O327 2.077 . S
Fe315 O333 1.935 1_455 S
Fe315 O337 2.077 1_455 S
O316 Fe312 1.715 . S
O316 Fe314 1.886 . S
O317 Fe314 1.715 . S
O317 Fe319 1.886 . S
O318 Fe315 1.886 . S
O318 Fe319 1.715 . S
Fe319 O317 1.886 . S
Fe319 O318 1.715 . S
Fe319 O323 2.077 . S
Fe319 O328 1.935 . S
Fe319 O330 2.077 1_455 S
Fe319 O338 1.935 1_455 S
C320 O332 1.381 . S
C320 O333 1.421 . S
O321 Fe312 2.077 . S
O321 C334 1.381 . S
O322 Fe315 1.935 . S
O322 C334 1.421 . S
O323 Fe319 2.077 . S
O323 C339 1.381 . S
O324 Fe314 1.935 . S
O324 C339 1.421 . S
O325 Fe314 2.077 . S
O325 C329 1.381 . S
O326 Fe312 1.935 . S
O326 C329 1.421 . S
O327 Fe315 2.077 . S
O327 C335 1.381 . S
O328 Fe319 1.935 . S
O328 C335 1.421 . S
C329 O325 1.381 . S
C329 O326 1.421 . S
O330 Fe319 2.077 1_655 S
O330 C342 1.381 . S
O331 Fe314 1.935 1_655 S
O331 C342 1.421 . S
O332 Fe312 2.077 1_655 S
O332 C320 1.381 . S
O333 Fe315 1.935 1_655 S
O333 C320 1.421 . S
C334 O321 1.381 . S
C334 O322 1.421 . S
C335 O327 1.381 . S
C335 O328 1.421 . S
C336 O337 1.381 . S
C336 O338 1.421 . S
O337 Fe315 2.077 1_655 S
O337 C336 1.381 . S
O338 Fe319 1.935 1_655 S
O338 C336 1.421 . S
C339 O323 1.381 . S
C339 O324 1.421 . S
O340 Fe314 2.077 1_655 S
O340 C343 1.381 . S
O341 Fe312 1.935 1_655 S
O341 C343 1.421 . S
C342 O330 1.381 . S
C342 O331 1.421 . S
C343 O340 1.381 . S
C343 O341 1.421 . S
Fe344 O345 1.886 . S
Fe344 O348 1.715 . S
Fe344 O353 2.077 . S
Fe344 O358 1.935 . S
Fe344 O364 2.077 . S
Fe344 O373 1.935 . S
O345 Fe344 1.886 . S
O345 Fe347 1.715 1_565 S
Fe346 O348 1.886 1_545 S
Fe346 O349 1.715 . S
Fe346 O356 1.935 . S
Fe346 O357 2.077 1_545 S
Fe346 O363 1.935 . S
Fe346 O372 2.077 1_545 S
Fe347 O345 1.715 1_545 S
Fe347 O350 1.886 . S
Fe347 O354 1.935 1_545 S
Fe347 O359 2.077 . S
Fe347 O365 1.935 1_545 S
Fe347 O369 2.077 . S
O348 Fe344 1.715 . S
O348 Fe346 1.886 1_565 S
O349 Fe346 1.715 . S
O349 Fe351 1.886 . S
O350 Fe347 1.886 . S
O350 Fe351 1.715 . S
Fe351 O349 1.886 . S
Fe351 O350 1.715 . S
Fe351 O355 2.077 . S
Fe351 O360 1.935 . S
Fe351 O362 2.077 . S
Fe351 O370 1.935 . S
C352 O364 1.381 . S
C352 O365 1.421 . S
O353 Fe344 2.077 . S
O353 C366 1.381 . S
O354 Fe347 1.935 1_565 S
O354 C366 1.421 . S
O355 Fe351 2.077 . S
O355 C371 1.381 . S
O356 Fe346 1.935 . S
O356 C371 1.421 . S
O357 Fe346 2.077 1_565 S
O357 C361 1.381 . S
O358 Fe344 1.935 . S
O358 C361 1.421 . S
O359 Fe347 2.077 . S
O359 C367 1.381 . S
O360 Fe351 1.935 . S
O360 C367 1.421 . S
C361 O357 1.381 . S
C361 O358 1.421 . S
O362 Fe351 2.077 . S
O362 C374 1.381 . S
O363 Fe346 1.935 . S
O363 C374 1.421 . S
O364 Fe344 2.077 . S
O364 C352 1.381 . S
O365 Fe347 1.935 1_565 S
O365 C352 1.421 . S
C366 O353 1.381 . S
C366 O354 1.421 . S
C367 O359 1.381 . S
C367 O360 1.421 . S
C368 O369 1.381 . S
C368 O370 1.421 . S
O369 Fe347 2.077 . S
O369 C368 1.381 . S
O370 Fe351 1.935 . S
O370 C368 1.421 . S
C371 O355 1.381 . S
C371 O356 1.421 . S
O372 Fe346 2.077 1_565 S
O372 C375 1.381 . S
O373 Fe344 1.935 . S
O373 C375 1.421 . S
C374 O362 1.381 . S
C374 O363 1.421 . S
C375 O372 1.381 . S
C375 O373 1.421 . S
H376 C382 0.930 . S
H377 C386 0.930 . S
H378 C391 0.929 . S
H379 C389 0.929 . S
H380 C384 0.929 . S
H381 C390 0.929 . S
C382 H376 0.930 . S
C382 C383 1.367 . S
C382 C390 1.378 . S
C383 C382 1.367 . S
C383 C391 1.433 . S
C384 H380 0.929 . S
C384 C386 1.378 . S
C384 C388 1.350 . S
C385 C388 1.463 . S
C385 C390 1.350 . S
C385 N393 1.427 . S
C386 H377 0.930 . S
C386 C384 1.378 . S
C386 C387 1.367 . S
C387 C386 1.367 . S
C387 C389 1.433 . S
C388 C384 1.350 . S
C388 C385 1.463 . S
C388 N392 1.427 . S
C389 H379 0.929 . S
C389 C387 1.433 . S
C389 N392 1.384 . S
C390 H381 0.929 . S
C390 C382 1.378 . S
C390 C385 1.350 . S
C391 H378 0.929 . S
C391 C383 1.433 . S
C391 N393 1.384 . S
N392 C388 1.427 . S
N392 C389 1.384 . S
N393 C385 1.427 . S
N393 C391 1.384 . S
H394 C400 0.930 . S
H395 C404 0.930 . S
H396 C409 0.929 . S
H397 C407 0.929 . S
H398 C402 0.929 . S
H399 C408 0.929 . S
C400 H394 0.930 . S
C400 C401 1.367 . S
C400 C408 1.378 . S
C401 C400 1.367 . S
C401 C409 1.433 . S
C402 H398 0.929 . S
C402 C404 1.378 . S
C402 C406 1.350 . S
C403 C406 1.463 . S
C403 C408 1.350 . S
C403 N411 1.427 . S
C404 H395 0.930 . S
C404 C402 1.378 . S
C404 C405 1.367 . S
C405 C404 1.367 . S
C405 C407 1.433 . S
C406 C402 1.350 . S
C406 C403 1.463 . S
C406 N410 1.427 . S
C407 H397 0.929 . S
C407 C405 1.433 . S
C407 N410 1.384 . S
C408 H399 0.929 . S
C408 C400 1.378 . S
C408 C403 1.350 . S
C409 H396 0.929 . S
C409 C401 1.433 . S
C409 N411 1.384 . S
N410 C406 1.427 . S
N410 C407 1.384 . S
N411 C403 1.427 . S
N411 C409 1.384 . S
H412 C418 0.930 . S
H413 C422 0.930 . S
H414 C427 0.929 . S
H415 C425 0.929 . S
H416 C420 0.929 . S
H417 C426 0.929 . S
C418 H412 0.930 . S
C418 C419 1.367 . S
C418 C426 1.378 . S
C419 C418 1.367 . S
C419 C427 1.433 . S
C420 H416 0.929 . S
C420 C422 1.378 . S
C420 C424 1.350 . S
C421 C424 1.463 . S
C421 C426 1.350 . S
C421 N429 1.427 . S
C422 H413 0.930 . S
C422 C420 1.378 . S
C422 C423 1.367 . S
C423 C422 1.367 . S
C423 C425 1.433 . S
C424 C420 1.350 . S
C424 C421 1.463 . S
C424 N428 1.427 . S
C425 H415 0.929 . S
C425 C423 1.433 . S
C425 N428 1.384 . S
C426 H417 0.929 . S
C426 C418 1.378 . S
C426 C421 1.350 . S
C427 H414 0.929 . S
C427 C419 1.433 . S
C427 N429 1.384 . S
N428 C424 1.427 . S
N428 C425 1.384 . S
N429 C421 1.427 . S
N429 C427 1.384 . S
H430 C436 0.930 . S
H431 C440 0.930 . S
H432 C445 0.929 . S
H433 C443 0.929 . S
H434 C438 0.929 . S
H435 C444 0.929 . S
C436 H430 0.930 . S
C436 C437 1.367 . S
C436 C444 1.378 . S
C437 C436 1.367 . S
C437 C445 1.433 . S
C438 H434 0.929 . S
C438 C440 1.378 . S
C438 C442 1.350 . S
C439 C442 1.463 . S
C439 C444 1.350 . S
C439 N447 1.427 . S
C440 H431 0.930 . S
C440 C438 1.378 . S
C440 C441 1.367 . S
C441 C440 1.367 . S
C441 C443 1.433 . S
C442 C438 1.350 . S
C442 C439 1.463 . S
C442 N446 1.427 . S
C443 H433 0.929 . S
C443 C441 1.433 . S
C443 N446 1.384 . S
C444 H435 0.929 . S
C444 C436 1.378 . S
C444 C439 1.350 . S
C445 H432 0.929 . S
C445 C437 1.433 . S
C445 N447 1.384 . S
N446 C442 1.427 . S
N446 C443 1.384 . S
N447 C439 1.427 . S
N447 C445 1.384 . S
H448 C454 0.930 . S
H449 C458 0.930 . S
H450 C463 0.929 . S
H451 C461 0.929 . S
H452 C456 0.929 . S
H453 C462 0.929 . S
C454 H448 0.930 . S
C454 C455 1.367 . S
C454 C462 1.378 . S
C455 C454 1.367 . S
C455 C463 1.433 . S
C456 H452 0.929 . S
C456 C458 1.378 . S
C456 C460 1.350 . S
C457 C460 1.463 . S
C457 C462 1.350 . S
C457 N465 1.427 . S
C458 H449 0.930 . S
C458 C456 1.378 . S
C458 C459 1.367 . S
C459 C458 1.367 . S
C459 C461 1.433 . S
C460 C456 1.350 . S
C460 C457 1.463 . S
C460 N464 1.427 . S
C461 H451 0.929 . S
C461 C459 1.433 . S
C461 N464 1.384 . S
C462 H453 0.929 . S
C462 C454 1.378 . S
C462 C457 1.350 . S
C463 H450 0.929 . S
C463 C455 1.433 . S
C463 N465 1.384 . S
N464 C460 1.427 . S
N464 C461 1.384 . S
N465 C457 1.427 . S
N465 C463 1.384 . S
H466 C472 0.930 . S
H467 C476 0.930 . S
H468 C481 0.929 . S
H469 C479 0.929 . S
H470 C474 0.929 . S
H471 C480 0.929 . S
C472 H466 0.930 . S
C472 C473 1.367 . S
C472 C480 1.378 . S
C473 C472 1.367 . S
C473 C481 1.433 . S
C474 H470 0.929 . S
C474 C476 1.378 . S
C474 C478 1.350 . S
C475 C478 1.463 . S
C475 C480 1.350 . S
C475 N483 1.427 . S
C476 H467 0.930 . S
C476 C474 1.378 . S
C476 C477 1.367 . S
C477 C476 1.367 . S
C477 C479 1.433 . S
C478 C474 1.350 . S
C478 C475 1.463 . S
C478 N482 1.427 . S
C479 H469 0.929 . S
C479 C477 1.433 . S
C479 N482 1.384 . S
C480 H471 0.929 . S
C480 C472 1.378 . S
C480 C475 1.350 . S
C481 H468 0.929 . S
C481 C473 1.433 . S
C481 N483 1.384 . S
N482 C478 1.427 . S
N482 C479 1.384 . S
N483 C475 1.427 . S
N483 C481 1.384 . S
H484 C490 0.930 . S
H485 C494 0.930 . S
H486 C499 0.929 . S
H487 C497 0.929 . S
H488 C492 0.929 . S
H489 C498 0.929 . S
C490 H484 0.930 . S
C490 C491 1.367 . S
C490 C498 1.378 . S
C491 C490 1.367 . S
C491 C499 1.433 . S
C492 H488 0.929 . S
C492 C494 1.378 . S
C492 C496 1.350 . S
C493 C496 1.463 . S
C493 C498 1.350 . S
C493 N501 1.427 . S
C494 H485 0.930 . S
C494 C492 1.378 . S
C494 C495 1.367 . S
C495 C494 1.367 . S
C495 C497 1.433 . S
C496 C492 1.350 . S
C496 C493 1.463 . S
C496 N500 1.427 . S
C497 H487 0.929 . S
C497 C495 1.433 . S
C497 N500 1.384 . S
C498 H489 0.929 . S
C498 C490 1.378 . S
C498 C493 1.350 . S
C499 H486 0.929 . S
C499 C491 1.433 . S
C499 N501 1.384 . S
N500 C496 1.427 . S
N500 C497 1.384 . S
N501 C493 1.427 . S
N501 C499 1.384 . S
H502 C508 0.930 . S
H503 C512 0.930 . S
H504 C517 0.929 . S
H505 C515 0.929 . S
H506 C510 0.929 . S
H507 C516 0.929 . S
C508 H502 0.930 . S
C508 C509 1.367 . S
C508 C516 1.378 . S
C509 C508 1.367 . S
C509 C517 1.433 . S
C510 H506 0.929 . S
C510 C512 1.378 . S
C510 C514 1.350 . S
C511 C514 1.463 . S
C511 C516 1.350 . S
C511 N519 1.427 . S
C512 H503 0.930 . S
C512 C510 1.378 . S
C512 C513 1.367 . S
C513 C512 1.367 . S
C513 C515 1.433 . S
C514 C510 1.350 . S
C514 C511 1.463 . S
C514 N518 1.427 . S
C515 H505 0.929 . S
C515 C513 1.433 . S
C515 N518 1.384 . S
C516 H507 0.929 . S
C516 C508 1.378 . S
C516 C511 1.350 . S
C517 H504 0.929 . S
C517 C509 1.433 . S
C517 N519 1.384 . S
N518 C514 1.427 . S
N518 C515 1.384 . S
N519 C511 1.427 . S
N519 C517 1.384 . S
H520 C526 0.930 . S
H521 C530 0.930 . S
H522 C535 0.929 . S
H523 C533 0.929 . S
H524 C528 0.929 . S
H525 C534 0.929 . S
C526 H520 0.930 . S
C526 C527 1.367 . S
C526 C534 1.378 . S
C527 C526 1.367 . S
C527 C535 1.433 . S
C528 H524 0.929 . S
C528 C530 1.378 . S
C528 C532 1.350 . S
C529 C532 1.463 . S
C529 C534 1.350 . S
C529 N537 1.427 . S
C530 H521 0.930 . S
C530 C528 1.378 . S
C530 C531 1.367 . S
C531 C530 1.367 . S
C531 C533 1.433 . S
C532 C528 1.350 . S
C532 C529 1.463 . S
C532 N536 1.427 . S
C533 H523 0.929 . S
C533 C531 1.433 . S
C533 N536 1.384 . S
C534 H525 0.929 . S
C534 C526 1.378 . S
C534 C529 1.350 . S
C535 H522 0.929 . S
C535 C527 1.433 . S
C535 N537 1.384 . S
N536 C532 1.427 . S
N536 C533 1.384 . S
N537 C529 1.427 . S
N537 C535 1.384 . S
H538 C544 0.930 . S
H539 C548 0.930 . S
H540 C553 0.929 . S
H541 C551 0.929 . S
H542 C546 0.929 . S
H543 C552 0.929 . S
C544 H538 0.930 . S
C544 C545 1.367 . S
C544 C552 1.378 . S
C545 C544 1.367 . S
C545 C553 1.433 . S
C546 H542 0.929 . S
C546 C548 1.378 . S
C546 C550 1.350 . S
C547 C550 1.463 . S
C547 C552 1.350 . S
C547 N555 1.427 . S
C548 H539 0.930 . S
C548 C546 1.378 . S
C548 C549 1.367 . S
C549 C548 1.367 . S
C549 C551 1.433 . S
C550 C546 1.350 . S
C550 C547 1.463 . S
C550 N554 1.427 . S
C551 H541 0.929 . S
C551 C549 1.433 . S
C551 N554 1.384 . S
C552 H543 0.929 . S
C552 C544 1.378 . S
C552 C547 1.350 . S
C553 H540 0.929 . S
C553 C545 1.433 . S
C553 N555 1.384 . S
N554 C550 1.427 . S
N554 C551 1.384 . S
N555 C547 1.427 . S
N555 C553 1.384 . S
H556 C562 0.930 . S
H557 C566 0.930 . S
H558 C571 0.929 . S
H559 C569 0.929 . S
H560 C564 0.929 . S
H561 C570 0.929 . S
C562 H556 0.930 . S
C562 C563 1.367 . S
C562 C570 1.378 . S
C563 C562 1.367 . S
C563 C571 1.433 . S
C564 H560 0.929 . S
C564 C566 1.378 . S
C564 C568 1.350 . S
C565 C568 1.463 . S
C565 C570 1.350 . S
C565 N573 1.427 . S
C566 H557 0.930 . S
C566 C564 1.378 . S
C566 C567 1.367 . S
C567 C566 1.367 . S
C567 C569 1.433 . S
C568 C564 1.350 . S
C568 C565 1.463 . S
C568 N572 1.427 . S
C569 H559 0.929 . S
C569 C567 1.433 . S
C569 N572 1.384 . S
C570 H561 0.929 . S
C570 C562 1.378 . S
C570 C565 1.350 . S
C571 H558 0.929 . S
C571 C563 1.433 . S
C571 N573 1.384 . S
N572 C568 1.427 . S
N572 C569 1.384 . S
N573 C565 1.427 . S
N573 C571 1.384 . S
H574 C580 0.930 . S
H575 C584 0.930 . S
H576 C589 0.929 . S
H577 C587 0.929 . S
H578 C582 0.929 . S
H579 C588 0.929 . S
C580 H574 0.930 . S
C580 C581 1.367 . S
C580 C588 1.378 . S
C581 C580 1.367 . S
C581 C589 1.433 . S
C582 H578 0.929 . S
C582 C584 1.378 . S
C582 C586 1.350 . S
C583 C586 1.463 . S
C583 C588 1.350 . S
C583 N591 1.427 . S
C584 H575 0.930 . S
C584 C582 1.378 . S
C584 C585 1.367 . S
C585 C584 1.367 . S
C585 C587 1.433 . S
C586 C582 1.350 . S
C586 C583 1.463 . S
C586 N590 1.427 . S
C587 H577 0.929 . S
C587 C585 1.433 . S
C587 N590 1.384 . S
C588 H579 0.929 . S
C588 C580 1.378 . S
C588 C583 1.350 . S
C589 H576 0.929 . S
C589 C581 1.433 . S
C589 N591 1.384 . S
N590 C586 1.427 . S
N590 C587 1.384 . S
N591 C583 1.427 . S
N591 C589 1.384 . S
H592 C598 0.930 . S
H593 C602 0.930 . S
H594 C607 0.929 . S
H595 C605 0.929 . S
H596 C600 0.929 . S
H597 C606 0.929 . S
C598 H592 0.930 . S
C598 C599 1.367 . S
C598 C606 1.378 . S
C599 C598 1.367 . S
C599 C607 1.433 . S
C600 H596 0.929 . S
C600 C602 1.378 . S
C600 C604 1.350 . S
C601 C604 1.463 . S
C601 C606 1.350 . S
C601 N609 1.427 . S
C602 H593 0.930 . S
C602 C600 1.378 . S
C602 C603 1.367 . S
C603 C602 1.367 . S
C603 C605 1.433 . S
C604 C600 1.350 . S
C604 C601 1.463 . S
C604 N608 1.427 . S
C605 H595 0.929 . S
C605 C603 1.433 . S
C605 N608 1.384 . S
C606 H597 0.929 . S
C606 C598 1.378 . S
C606 C601 1.350 . S
C607 H594 0.929 . S
C607 C599 1.433 . S
C607 N609 1.384 . S
N608 C604 1.427 . S
N608 C605 1.384 . S
N609 C601 1.427 . S
N609 C607 1.384 . S
H610 C616 0.930 . S
H611 C620 0.930 . S
H612 C625 0.929 . S
H613 C623 0.929 . S
H614 C618 0.929 . S
H615 C624 0.929 . S
C616 H610 0.930 . S
C616 C617 1.367 . S
C616 C624 1.378 . S
C617 C616 1.367 . S
C617 C625 1.433 . S
C618 H614 0.929 . S
C618 C620 1.378 . S
C618 C622 1.350 . S
C619 C622 1.463 . S
C619 C624 1.350 . S
C619 N627 1.427 . S
C620 H611 0.930 . S
C620 C618 1.378 . S
C620 C621 1.367 . S
C621 C620 1.367 . S
C621 C623 1.433 . S
C622 C618 1.350 . S
C622 C619 1.463 . S
C622 N626 1.427 . S
C623 H613 0.929 . S
C623 C621 1.433 . S
C623 N626 1.384 . S
C624 H615 0.929 . S
C624 C616 1.378 . S
C624 C619 1.350 . S
C625 H612 0.929 . S
C625 C617 1.433 . S
C625 N627 1.384 . S
N626 C622 1.427 . S
N626 C623 1.384 . S
N627 C619 1.427 . S
N627 C625 1.384 . S
H628 C634 0.930 . S
H629 C638 0.930 . S
H630 C643 0.929 . S
H631 C641 0.929 . S
H632 C636 0.929 . S
H633 C642 0.929 . S
C634 H628 0.930 . S
C634 C635 1.367 . S
C634 C642 1.378 . S
C635 C634 1.367 . S
C635 C643 1.433 . S
C636 H632 0.929 . S
C636 C638 1.378 . S
C636 C640 1.350 . S
C637 C640 1.463 . S
C637 C642 1.350 . S
C637 N645 1.427 . S
C638 H629 0.930 . S
C638 C636 1.378 . S
C638 C639 1.367 . S
C639 C638 1.367 . S
C639 C641 1.433 . S
C640 C636 1.350 . S
C640 C637 1.463 . S
C640 N644 1.427 . S
C641 H631 0.929 . S
C641 C639 1.433 . S
C641 N644 1.384 . S
C642 H633 0.929 . S
C642 C634 1.378 . S
C642 C637 1.350 . S
C643 H630 0.929 . S
C643 C635 1.433 . S
C643 N645 1.384 . S
N644 C640 1.427 . S
N644 C641 1.384 . S
N645 C637 1.427 . S
N645 C643 1.384 . S
H646 C652 0.930 . S
H647 C656 0.930 . S
H648 C661 0.929 . S
H649 C659 0.929 . S
H650 C654 0.929 . S
H651 C660 0.929 . S
C652 H646 0.930 . S
C652 C653 1.367 . S
C652 C660 1.378 . S
C653 C652 1.367 . S
C653 C661 1.433 . S
C654 H650 0.929 . S
C654 C656 1.378 . S
C654 C658 1.350 . S
C655 C658 1.463 . S
C655 C660 1.350 . S
C655 N663 1.427 . S
C656 H647 0.930 . S
C656 C654 1.378 . S
C656 C657 1.367 . S
C657 C656 1.367 . S
C657 C659 1.433 . S
C658 C654 1.350 . S
C658 C655 1.463 . S
C658 N662 1.427 . S
C659 H649 0.929 . S
C659 C657 1.433 . S
C659 N662 1.384 . S
C660 H651 0.929 . S
C660 C652 1.378 . S
C660 C655 1.350 . S
C661 H648 0.929 . S
C661 C653 1.433 . S
C661 N663 1.384 . S
N662 C658 1.427 . S
N662 C659 1.384 . S
N663 C655 1.427 . S
N663 C661 1.384 . S
H664 C670 0.930 . S
H665 C674 0.930 . S
H666 C679 0.929 . S
H667 C677 0.929 . S
H668 C672 0.929 . S
H669 C678 0.929 . S
C670 H664 0.930 . S
C670 C671 1.367 . S
C670 C678 1.378 . S
C671 C670 1.367 . S
C671 C679 1.433 . S
C672 H668 0.929 . S
C672 C674 1.378 . S
C672 C676 1.350 . S
C673 C676 1.463 . S
C673 C678 1.350 . S
C673 N681 1.427 . S
C674 H665 0.930 . S
C674 C672 1.378 . S
C674 C675 1.367 . S
C675 C674 1.367 . S
C675 C677 1.433 . S
C676 C672 1.350 . S
C676 C673 1.463 . S
C676 N680 1.427 . S
C677 H667 0.929 . S
C677 C675 1.433 . S
C677 N680 1.384 . S
C678 H669 0.929 . S
C678 C670 1.378 . S
C678 C673 1.350 . S
C679 H666 0.929 . S
C679 C671 1.433 . S
C679 N681 1.384 . S
N680 C676 1.427 . S
N680 C677 1.384 . S
N681 C673 1.427 . S
N681 C679 1.384 . S
H682 C688 0.930 . S
H683 C692 0.930 . S
H684 C697 0.929 . S
H685 C695 0.929 . S
H686 C690 0.929 . S
H687 C696 0.929 . S
C688 H682 0.930 . S
C688 C689 1.367 . S
C688 C696 1.378 . S
C689 C688 1.367 . S
C689 C697 1.433 . S
C690 H686 0.929 . S
C690 C692 1.378 . S
C690 C694 1.350 . S
C691 C694 1.463 . S
C691 C696 1.350 . S
C691 N699 1.427 . S
C692 H683 0.930 . S
C692 C690 1.378 . S
C692 C693 1.367 . S
C693 C692 1.367 . S
C693 C695 1.433 . S
C694 C690 1.350 . S
C694 C691 1.463 . S
C694 N698 1.427 . S
C695 H685 0.929 . S
C695 C693 1.433 . S
C695 N698 1.384 . S
C696 H687 0.929 . S
C696 C688 1.378 . S
C696 C691 1.350 . S
C697 H684 0.929 . S
C697 C689 1.433 . S
C697 N699 1.384 . S
N698 C694 1.427 . S
N698 C695 1.384 . S
N699 C691 1.427 . S
N699 C697 1.384 . S
H700 C706 0.930 . S
H701 C710 0.930 . S
H702 C715 0.929 . S
H703 C713 0.929 . S
H704 C708 0.929 . S
H705 C714 0.929 . S
C706 H700 0.930 . S
C706 C707 1.367 . S
C706 C714 1.378 . S
C707 C706 1.367 . S
C707 C715 1.433 . S
C708 H704 0.929 . S
C708 C710 1.378 . S
C708 C712 1.350 . S
C709 C712 1.463 . S
C709 C714 1.350 . S
C709 N717 1.427 . S
C710 H701 0.930 . S
C710 C708 1.378 . S
C710 C711 1.367 . S
C711 C710 1.367 . S
C711 C713 1.433 . S
C712 C708 1.350 . S
C712 C709 1.463 . S
C712 N716 1.427 . S
C713 H703 0.929 . S
C713 C711 1.433 . S
C713 N716 1.384 . S
C714 H705 0.929 . S
C714 C706 1.378 . S
C714 C709 1.350 . S
C715 H702 0.929 . S
C715 C707 1.433 . S
C715 N717 1.384 . S
N716 C712 1.427 . S
N716 C713 1.384 . S
N717 C709 1.427 . S
N717 C715 1.384 . S
H718 C724 0.930 . S
H719 C728 0.930 . S
H720 C733 0.929 . S
H721 C731 0.929 . S
H722 C726 0.929 . S
H723 C732 0.929 . S
C724 H718 0.930 . S
C724 C725 1.367 . S
C724 C732 1.378 . S
C725 C724 1.367 . S
C725 C733 1.433 . S
C726 H722 0.929 . S
C726 C728 1.378 . S
C726 C730 1.350 . S
C727 C730 1.463 . S
C727 C732 1.350 . S
C727 N735 1.427 . S
C728 H719 0.930 . S
C728 C726 1.378 . S
C728 C729 1.367 . S
C729 C728 1.367 . S
C729 C731 1.433 . S
C730 C726 1.350 . S
C730 C727 1.463 . S
C730 N734 1.427 . S
C731 H721 0.929 . S
C731 C729 1.433 . S
C731 N734 1.384 . S
C732 H723 0.929 . S
C732 C724 1.378 . S
C732 C727 1.350 . S
C733 H720 0.929 . S
C733 C725 1.433 . S
C733 N735 1.384 . S
N734 C730 1.427 . S
N734 C731 1.384 . S
N735 C727 1.427 . S
N735 C733 1.384 . S
H736 C742 0.930 . S
H737 C746 0.930 . S
H738 C751 0.929 . S
H739 C749 0.929 . S
H740 C744 0.929 . S
H741 C750 0.929 . S
C742 H736 0.930 . S
C742 C743 1.367 . S
C742 C750 1.378 . S
C743 C742 1.367 . S
C743 C751 1.433 . S
C744 H740 0.929 . S
C744 C746 1.378 . S
C744 C748 1.350 . S
C745 C748 1.463 . S
C745 C750 1.350 . S
C745 N753 1.427 . S
C746 H737 0.930 . S
C746 C744 1.378 . S
C746 C747 1.367 . S
C747 C746 1.367 . S
C747 C749 1.433 . S
C748 C744 1.350 . S
C748 C745 1.463 . S
C748 N752 1.427 . S
C749 H739 0.929 . S
C749 C747 1.433 . S
C749 N752 1.384 . S
C750 H741 0.929 . S
C750 C742 1.378 . S
C750 C745 1.350 . S
C751 H738 0.929 . S
C751 C743 1.433 . S
C751 N753 1.384 . S
N752 C748 1.427 . S
N752 C749 1.384 . S
N753 C745 1.427 . S
N753 C751 1.384 . S
H754 C760 0.930 . S
H755 C764 0.930 . S
H756 C769 0.929 . S
H757 C767 0.929 . S
H758 C762 0.929 . S
H759 C768 0.929 . S
C760 H754 0.930 . S
C760 C761 1.367 . S
C760 C768 1.378 . S
C761 C760 1.367 . S
C761 C769 1.433 . S
C762 H758 0.929 . S
C762 C764 1.378 . S
C762 C766 1.350 . S
C763 C766 1.463 . S
C763 C768 1.350 . S
C763 N771 1.427 . S
C764 H755 0.930 . S
C764 C762 1.378 . S
C764 C765 1.367 . S
C765 C764 1.367 . S
C765 C767 1.433 . S
C766 C762 1.350 . S
C766 C763 1.463 . S
C766 N770 1.427 . S
C767 H757 0.929 . S
C767 C765 1.433 . S
C767 N770 1.384 . S
C768 H759 0.929 . S
C768 C760 1.378 . S
C768 C763 1.350 . S
C769 H756 0.929 . S
C769 C761 1.433 . S
C769 N771 1.384 . S
N770 C766 1.427 . S
N770 C767 1.384 . S
N771 C763 1.427 . S
N771 C769 1.384 . S
H772 C778 0.930 . S
H773 C782 0.930 . S
H774 C787 0.929 . S
H775 C785 0.929 . S
H776 C780 0.929 . S
H777 C786 0.929 . S
C778 H772 0.930 . S
C778 C779 1.367 . S
C778 C786 1.378 . S
C779 C778 1.367 . S
C779 C787 1.433 . S
C780 H776 0.929 . S
C780 C782 1.378 . S
C780 C784 1.350 . S
C781 C784 1.463 . S
C781 C786 1.350 . S
C781 N789 1.427 . S
C782 H773 0.930 . S
C782 C780 1.378 . S
C782 C783 1.367 . S
C783 C782 1.367 . S
C783 C785 1.433 . S
C784 C780 1.350 . S
C784 C781 1.463 . S
C784 N788 1.427 . S
C785 H775 0.929 . S
C785 C783 1.433 . S
C785 N788 1.384 . S
C786 H777 0.929 . S
C786 C778 1.378 . S
C786 C781 1.350 . S
C787 H774 0.929 . S
C787 C779 1.433 . S
C787 N789 1.384 . S
N788 C784 1.427 . S
N788 C785 1.384 . S
N789 C781 1.427 . S
N789 C787 1.384 . S
H790 C796 0.930 . S
H791 C800 0.930 . S
H792 C805 0.929 . S
H793 C803 0.929 . S
H794 C798 0.929 . S
H795 C804 0.929 . S
C796 H790 0.930 . S
C796 C797 1.367 . S
C796 C804 1.378 . S
C797 C796 1.367 . S
C797 C805 1.433 . S
C798 H794 0.929 . S
C798 C800 1.378 . S
C798 C802 1.350 . S
C799 C802 1.463 . S
C799 C804 1.350 . S
C799 N807 1.427 . S
C800 H791 0.930 . S
C800 C798 1.378 . S
C800 C801 1.367 . S
C801 C800 1.367 . S
C801 C803 1.433 . S
C802 C798 1.350 . S
C802 C799 1.463 . S
C802 N806 1.427 . S
C803 H793 0.929 . S
C803 C801 1.433 . S
C803 N806 1.384 . S
C804 H795 0.929 . S
C804 C796 1.378 . S
C804 C799 1.350 . S
C805 H792 0.929 . S
C805 C797 1.433 . S
C805 N807 1.384 . S
N806 C802 1.427 . S
N806 C803 1.384 . S
N807 C799 1.427 . S
N807 C805 1.384 . S
H808 C814 0.930 . S
H809 C818 0.930 . S
H810 C823 0.929 . S
H811 C821 0.929 . S
H812 C816 0.929 . S
H813 C822 0.929 . S
C814 H808 0.930 . S
C814 C815 1.367 . S
C814 C822 1.378 . S
C815 C814 1.367 . S
C815 C823 1.433 . S
C816 H812 0.929 . S
C816 C818 1.378 . S
C816 C820 1.350 . S
C817 C820 1.463 . S
C817 C822 1.350 . S
C817 N825 1.427 . S
C818 H809 0.930 . S
C818 C816 1.378 . S
C818 C819 1.367 . S
C819 C818 1.367 . S
C819 C821 1.433 . S
C820 C816 1.350 . S
C820 C817 1.463 . S
C820 N824 1.427 . S
C821 H811 0.929 . S
C821 C819 1.433 . S
C821 N824 1.384 . S
C822 H813 0.929 . S
C822 C814 1.378 . S
C822 C817 1.350 . S
C823 H810 0.929 . S
C823 C815 1.433 . S
C823 N825 1.384 . S
N824 C820 1.427 . S
N824 C821 1.384 . S
N825 C817 1.427 . S
N825 C823 1.384 . S
H826 C832 0.930 . S
H827 C836 0.930 . S
H828 C841 0.929 . S
H829 C839 0.929 . S
H830 C834 0.929 . S
H831 C840 0.929 . S
C832 H826 0.930 . S
C832 C833 1.367 . S
C832 C840 1.378 . S
C833 C832 1.367 . S
C833 C841 1.433 . S
C834 H830 0.929 . S
C834 C836 1.378 . S
C834 C838 1.350 . S
C835 C838 1.463 . S
C835 C840 1.350 . S
C835 N843 1.427 . S
C836 H827 0.930 . S
C836 C834 1.378 . S
C836 C837 1.367 . S
C837 C836 1.367 . S
C837 C839 1.433 . S
C838 C834 1.350 . S
C838 C835 1.463 . S
C838 N842 1.427 . S
C839 H829 0.929 . S
C839 C837 1.433 . S
C839 N842 1.384 . S
C840 H831 0.929 . S
C840 C832 1.378 . S
C840 C835 1.350 . S
C841 H828 0.929 . S
C841 C833 1.433 . S
C841 N843 1.384 . S
N842 C838 1.427 . S
N842 C839 1.384 . S
N843 C835 1.427 . S
N843 C841 1.384 . S
H844 C850 0.930 . S
H845 C854 0.930 . S
H846 C859 0.929 . S
H847 C857 0.929 . S
H848 C852 0.929 . S
H849 C858 0.929 . S
C850 H844 0.930 . S
C850 C851 1.367 . S
C850 C858 1.378 . S
C851 C850 1.367 . S
C851 C859 1.433 . S
C852 H848 0.929 . S
C852 C854 1.378 . S
C852 C856 1.350 . S
C853 C856 1.463 . S
C853 C858 1.350 . S
C853 N861 1.427 . S
C854 H845 0.930 . S
C854 C852 1.378 . S
C854 C855 1.367 . S
C855 C854 1.367 . S
C855 C857 1.433 . S
C856 C852 1.350 . S
C856 C853 1.463 . S
C856 N860 1.427 . S
C857 H847 0.929 . S
C857 C855 1.433 . S
C857 N860 1.384 . S
C858 H849 0.929 . S
C858 C850 1.378 . S
C858 C853 1.350 . S
C859 H846 0.929 . S
C859 C851 1.433 . S
C859 N861 1.384 . S
N860 C856 1.427 . S
N860 C857 1.384 . S
N861 C853 1.427 . S
N861 C859 1.384 . S
H862 C868 0.930 . S
H863 C872 0.930 . S
H864 C877 0.929 . S
H865 C875 0.929 . S
H866 C870 0.929 . S
H867 C876 0.929 . S
C868 H862 0.930 . S
C868 C869 1.367 . S
C868 C876 1.378 . S
C869 C868 1.367 . S
C869 C877 1.433 . S
C870 H866 0.929 . S
C870 C872 1.378 . S
C870 C874 1.350 . S
C871 C874 1.463 . S
C871 C876 1.350 . S
C871 N879 1.427 . S
C872 H863 0.930 . S
C872 C870 1.378 . S
C872 C873 1.367 . S
C873 C872 1.367 . S
C873 C875 1.433 . S
C874 C870 1.350 . S
C874 C871 1.463 . S
C874 N878 1.427 . S
C875 H865 0.929 . S
C875 C873 1.433 . S
C875 N878 1.384 . S
C876 H867 0.929 . S
C876 C868 1.378 . S
C876 C871 1.350 . S
C877 H864 0.929 . S
C877 C869 1.433 . S
C877 N879 1.384 . S
N878 C874 1.427 . S
N878 C875 1.384 . S
N879 C871 1.427 . S
N879 C877 1.384 . S
H880 C886 0.930 . S
H881 C890 0.930 . S
H882 C895 0.929 . S
H883 C893 0.929 . S
H884 C888 0.929 . S
H885 C894 0.929 . S
C886 H880 0.930 . S
C886 C887 1.367 . S
C886 C894 1.378 . S
C887 C886 1.367 . S
C887 C895 1.433 . S
C888 H884 0.929 . S
C888 C890 1.378 . S
C888 C892 1.350 . S
C889 C892 1.463 . S
C889 C894 1.350 . S
C889 N897 1.427 . S
C890 H881 0.930 . S
C890 C888 1.378 . S
C890 C891 1.367 . S
C891 C890 1.367 . S
C891 C893 1.433 . S
C892 C888 1.350 . S
C892 C889 1.463 . S
C892 N896 1.427 . S
C893 H883 0.929 . S
C893 C891 1.433 . S
C893 N896 1.384 . S
C894 H885 0.929 . S
C894 C886 1.378 . S
C894 C889 1.350 . S
C895 H882 0.929 . S
C895 C887 1.433 . S
C895 N897 1.384 . S
N896 C892 1.427 . S
N896 C893 1.384 . S
N897 C889 1.427 . S
N897 C895 1.384 . S
H898 C904 0.930 . S
H899 C908 0.930 . S
H900 C913 0.929 . S
H901 C911 0.929 . S
H902 C906 0.929 . S
H903 C912 0.929 . S
C904 H898 0.930 . S
C904 C905 1.367 . S
C904 C912 1.378 . S
C905 C904 1.367 . S
C905 C913 1.433 . S
C906 H902 0.929 . S
C906 C908 1.378 . S
C906 C910 1.350 . S
C907 C910 1.463 . S
C907 C912 1.350 . S
C907 N915 1.427 . S
C908 H899 0.930 . S
C908 C906 1.378 . S
C908 C909 1.367 . S
C909 C908 1.367 . S
C909 C911 1.433 . S
C910 C906 1.350 . S
C910 C907 1.463 . S
C910 N914 1.427 . S
C911 H901 0.929 . S
C911 C909 1.433 . S
C911 N914 1.384 . S
C912 H903 0.929 . S
C912 C904 1.378 . S
C912 C907 1.350 . S
C913 H900 0.929 . S
C913 C905 1.433 . S
C913 N915 1.384 . S
N914 C910 1.427 . S
N914 C911 1.384 . S
N915 C907 1.427 . S
N915 C913 1.384 . S
H916 C922 0.930 . S
H917 C926 0.930 . S
H918 C931 0.929 . S
H919 C929 0.929 . S
H920 C924 0.929 . S
H921 C930 0.929 . S
C922 H916 0.930 . S
C922 C923 1.367 . S
C922 C930 1.378 . S
C923 C922 1.367 . S
C923 C931 1.433 . S
C924 H920 0.929 . S
C924 C926 1.378 . S
C924 C928 1.350 . S
C925 C928 1.463 . S
C925 C930 1.350 . S
C925 N933 1.427 . S
C926 H917 0.930 . S
C926 C924 1.378 . S
C926 C927 1.367 . S
C927 C926 1.367 . S
C927 C929 1.433 . S
C928 C924 1.350 . S
C928 C925 1.463 . S
C928 N932 1.427 . S
C929 H919 0.929 . S
C929 C927 1.433 . S
C929 N932 1.384 . S
C930 H921 0.929 . S
C930 C922 1.378 . S
C930 C925 1.350 . S
C931 H918 0.929 . S
C931 C923 1.433 . S
C931 N933 1.384 . S
N932 C928 1.427 . S
N932 C929 1.384 . S
N933 C925 1.427 . S
N933 C931 1.384 . S
H934 C940 0.930 . S
H935 C944 0.930 . S
H936 C949 0.929 . S
H937 C947 0.929 . S
H938 C942 0.929 . S
H939 C948 0.929 . S
C940 H934 0.930 . S
C940 C941 1.367 . S
C940 C948 1.378 . S
C941 C940 1.367 . S
C941 C949 1.433 . S
C942 H938 0.929 . S
C942 C944 1.378 . S
C942 C946 1.350 . S
C943 C946 1.463 . S
C943 C948 1.350 . S
C943 N951 1.427 . S
C944 H935 0.930 . S
C944 C942 1.378 . S
C944 C945 1.367 . S
C945 C944 1.367 . S
C945 C947 1.433 . S
C946 C942 1.350 . S
C946 C943 1.463 . S
C946 N950 1.427 . S
C947 H937 0.929 . S
C947 C945 1.433 . S
C947 N950 1.384 . S
C948 H939 0.929 . S
C948 C940 1.378 . S
C948 C943 1.350 . S
C949 H936 0.929 . S
C949 C941 1.433 . S
C949 N951 1.384 . S
N950 C946 1.427 . S
N950 C947 1.384 . S
N951 C943 1.427 . S
N951 C949 1.384 . S
H952 C958 0.930 . S
H953 C962 0.930 . S
H954 C967 0.929 . S
H955 C965 0.929 . S
H956 C960 0.929 . S
H957 C966 0.929 . S
C958 H952 0.930 . S
C958 C959 1.367 . S
C958 C966 1.378 . S
C959 C958 1.367 . S
C959 C967 1.433 . S
C960 H956 0.929 . S
C960 C962 1.378 . S
C960 C964 1.350 . S
C961 C964 1.463 . S
C961 C966 1.350 . S
C961 N969 1.427 . S
C962 H953 0.930 . S
C962 C960 1.378 . S
C962 C963 1.367 . S
C963 C962 1.367 . S
C963 C965 1.433 . S
C964 C960 1.350 . S
C964 C961 1.463 . S
C964 N968 1.427 . S
C965 H955 0.929 . S
C965 C963 1.433 . S
C965 N968 1.384 . S
C966 H957 0.929 . S
C966 C958 1.378 . S
C966 C961 1.350 . S
C967 H954 0.929 . S
C967 C959 1.433 . S
C967 N969 1.384 . S
N968 C964 1.427 . S
N968 C965 1.384 . S
N969 C961 1.427 . S
N969 C967 1.384 . S
H970 C976 0.930 . S
H971 C980 0.930 . S
H972 C985 0.929 . S
H973 C983 0.929 . S
H974 C978 0.929 . S
H975 C984 0.929 . S
C976 H970 0.930 . S
C976 C977 1.367 . S
C976 C984 1.378 . S
C977 C976 1.367 . S
C977 C985 1.433 . S
C978 H974 0.929 . S
C978 C980 1.378 . S
C978 C982 1.350 . S
C979 C982 1.463 . S
C979 C984 1.350 . S
C979 N987 1.427 . S
C980 H971 0.930 . S
C980 C978 1.378 . S
C980 C981 1.367 . S
C981 C980 1.367 . S
C981 C983 1.433 . S
C982 C978 1.350 . S
C982 C979 1.463 . S
C982 N986 1.427 . S
C983 H973 0.929 . S
C983 C981 1.433 . S
C983 N986 1.384 . S
C984 H975 0.929 . S
C984 C976 1.378 . S
C984 C979 1.350 . S
C985 H972 0.929 . S
C985 C977 1.433 . S
C985 N987 1.384 . S
N986 C982 1.427 . S
N986 C983 1.384 . S
N987 C979 1.427 . S
N987 C985 1.384 . S
H988 C994 0.930 . S
H989 C998 0.930 . S
H990 C1003 0.929 . S
H991 C1001 0.929 . S
H992 C996 0.929 . S
H993 C1002 0.929 . S
C994 H988 0.930 . S
C994 C995 1.367 . S
C994 C1002 1.378 . S
C995 C994 1.367 . S
C995 C1003 1.433 . S
C996 H992 0.929 . S
C996 C998 1.378 . S
C996 C1000 1.350 . S
C997 C1000 1.463 . S
C997 C1002 1.350 . S
C997 N1005 1.427 . S
C998 H989 0.930 . S
C998 C996 1.378 . S
C998 C999 1.367 . S
C999 C998 1.367 . S
C999 C1001 1.433 . S
C1000 C996 1.350 . S
C1000 C997 1.463 . S
C1000 N1004 1.427 . S
C1001 H991 0.929 . S
C1001 C999 1.433 . S
C1001 N1004 1.384 . S
C1002 H993 0.929 . S
C1002 C994 1.378 . S
C1002 C997 1.350 . S
C1003 H990 0.929 . S
C1003 C995 1.433 . S
C1003 N1005 1.384 . S
N1004 C1000 1.427 . S
N1004 C1001 1.384 . S
N1005 C997 1.427 . S
N1005 C1003 1.384 . S
H1006 C1012 0.930 . S
H1007 C1016 0.930 . S
H1008 C1021 0.929 . S
H1009 C1019 0.929 . S
H1010 C1014 0.929 . S
H1011 C1020 0.929 . S
C1012 H1006 0.930 . S
C1012 C1013 1.367 . S
C1012 C1020 1.378 . S
C1013 C1012 1.367 . S
C1013 C1021 1.433 . S
C1014 H1010 0.929 . S
C1014 C1016 1.378 . S
C1014 C1018 1.350 . S
C1015 C1018 1.463 . S
C1015 C1020 1.350 . S
C1015 N1023 1.427 . S
C1016 H1007 0.930 . S
C1016 C1014 1.378 . S
C1016 C1017 1.367 . S
C1017 C1016 1.367 . S
C1017 C1019 1.433 . S
C1018 C1014 1.350 . S
C1018 C1015 1.463 . S
C1018 N1022 1.427 . S
C1019 H1009 0.929 . S
C1019 C1017 1.433 . S
C1019 N1022 1.384 . S
C1020 H1011 0.929 . S
C1020 C1012 1.378 . S
C1020 C1015 1.350 . S
C1021 H1008 0.929 . S
C1021 C1013 1.433 . S
C1021 N1023 1.384 . S
N1022 C1018 1.427 . S
N1022 C1019 1.384 . S
N1023 C1015 1.427 . S
N1023 C1021 1.384 . S
H1024 C1030 0.930 . S
H1025 C1034 0.930 . S
H1026 C1039 0.929 . S
H1027 C1037 0.929 . S
H1028 C1032 0.929 . S
H1029 C1038 0.929 . S
C1030 H1024 0.930 . S
C1030 C1031 1.367 . S
C1030 C1038 1.378 . S
C1031 C1030 1.367 . S
C1031 C1039 1.433 . S
C1032 H1028 0.929 . S
C1032 C1034 1.378 . S
C1032 C1036 1.350 . S
C1033 C1036 1.463 . S
C1033 C1038 1.350 . S
C1033 N1041 1.427 . S
C1034 H1025 0.930 . S
C1034 C1032 1.378 . S
C1034 C1035 1.367 . S
C1035 C1034 1.367 . S
C1035 C1037 1.433 . S
C1036 C1032 1.350 . S
C1036 C1033 1.463 . S
C1036 N1040 1.427 . S
C1037 H1027 0.929 . S
C1037 C1035 1.433 . S
C1037 N1040 1.384 . S
C1038 H1029 0.929 . S
C1038 C1030 1.378 . S
C1038 C1033 1.350 . S
C1039 H1026 0.929 . S
C1039 C1031 1.433 . S
C1039 N1041 1.384 . S
N1040 C1036 1.427 . S
N1040 C1037 1.384 . S
N1041 C1033 1.427 . S
N1041 C1039 1.384 . S
H1042 C1048 0.930 . S
H1043 C1052 0.930 . S
H1044 C1057 0.929 . S
H1045 C1055 0.929 . S
H1046 C1050 0.929 . S
H1047 C1056 0.929 . S
C1048 H1042 0.930 . S
C1048 C1049 1.367 . S
C1048 C1056 1.378 . S
C1049 C1048 1.367 . S
C1049 C1057 1.433 . S
C1050 H1046 0.929 . S
C1050 C1052 1.378 . S
C1050 C1054 1.350 . S
C1051 C1054 1.463 . S
C1051 C1056 1.350 . S
C1051 N1059 1.427 . S
C1052 H1043 0.930 . S
C1052 C1050 1.378 . S
C1052 C1053 1.367 . S
C1053 C1052 1.367 . S
C1053 C1055 1.433 . S
C1054 C1050 1.350 . S
C1054 C1051 1.463 . S
C1054 N1058 1.427 . S
C1055 H1045 0.929 . S
C1055 C1053 1.433 . S
C1055 N1058 1.384 . S
C1056 H1047 0.929 . S
C1056 C1048 1.378 . S
C1056 C1051 1.350 . S
C1057 H1044 0.929 . S
C1057 C1049 1.433 . S
C1057 N1059 1.384 . S
N1058 C1054 1.427 . S
N1058 C1055 1.384 . S
N1059 C1051 1.427 . S
N1059 C1057 1.384 . S
H1060 C1066 0.930 . S
H1061 C1070 0.930 . S
H1062 C1075 0.929 . S
H1063 C1073 0.929 . S
H1064 C1068 0.929 . S
H1065 C1074 0.929 . S
C1066 H1060 0.930 . S
C1066 C1067 1.367 . S
C1066 C1074 1.378 . S
C1067 C1066 1.367 . S
C1067 C1075 1.433 . S
C1068 H1064 0.929 . S
C1068 C1070 1.378 . S
C1068 C1072 1.350 . S
C1069 C1072 1.463 . S
C1069 C1074 1.350 . S
C1069 N1077 1.427 . S
C1070 H1061 0.930 . S
C1070 C1068 1.378 . S
C1070 C1071 1.367 . S
C1071 C1070 1.367 . S
C1071 C1073 1.433 . S
C1072 C1068 1.350 . S
C1072 C1069 1.463 . S
C1072 N1076 1.427 . S
C1073 H1063 0.929 . S
C1073 C1071 1.433 . S
C1073 N1076 1.384 . S
C1074 H1065 0.929 . S
C1074 C1066 1.378 . S
C1074 C1069 1.350 . S
C1075 H1062 0.929 . S
C1075 C1067 1.433 . S
C1075 N1077 1.384 . S
N1076 C1072 1.427 . S
N1076 C1073 1.384 . S
N1077 C1069 1.427 . S
N1077 C1075 1.384 . S
H1078 C1084 0.930 . S
H1079 C1088 0.930 . S
H1080 C1093 0.929 . S
H1081 C1091 0.929 . S
H1082 C1086 0.929 . S
H1083 C1092 0.929 . S
C1084 H1078 0.930 . S
C1084 C1085 1.367 . S
C1084 C1092 1.378 . S
C1085 C1084 1.367 . S
C1085 C1093 1.433 . S
C1086 H1082 0.929 . S
C1086 C1088 1.378 . S
C1086 C1090 1.350 . S
C1087 C1090 1.463 . S
C1087 C1092 1.350 . S
C1087 N1095 1.427 . S
C1088 H1079 0.930 . S
C1088 C1086 1.378 . S
C1088 C1089 1.367 . S
C1089 C1088 1.367 . S
C1089 C1091 1.433 . S
C1090 C1086 1.350 . S
C1090 C1087 1.463 . S
C1090 N1094 1.427 . S
C1091 H1081 0.929 . S
C1091 C1089 1.433 . S
C1091 N1094 1.384 . S
C1092 H1083 0.929 . S
C1092 C1084 1.378 . S
C1092 C1087 1.350 . S
C1093 H1080 0.929 . S
C1093 C1085 1.433 . S
C1093 N1095 1.384 . S
N1094 C1090 1.427 . S
N1094 C1091 1.384 . S
N1095 C1087 1.427 . S
N1095 C1093 1.384 . S
H1096 C1102 0.930 . S
H1097 C1106 0.930 . S
H1098 C1111 0.929 . S
H1099 C1109 0.929 . S
H1100 C1104 0.929 . S
H1101 C1110 0.929 . S
C1102 H1096 0.930 . S
C1102 C1103 1.367 . S
C1102 C1110 1.378 . S
C1103 C1102 1.367 . S
C1103 C1111 1.433 . S
C1104 H1100 0.929 . S
C1104 C1106 1.378 . S
C1104 C1108 1.350 . S
C1105 C1108 1.463 . S
C1105 C1110 1.350 . S
C1105 N1113 1.427 . S
C1106 H1097 0.930 . S
C1106 C1104 1.378 . S
C1106 C1107 1.367 . S
C1107 C1106 1.367 . S
C1107 C1109 1.433 . S
C1108 C1104 1.350 . S
C1108 C1105 1.463 . S
C1108 N1112 1.427 . S
C1109 H1099 0.929 . S
C1109 C1107 1.433 . S
C1109 N1112 1.384 . S
C1110 H1101 0.929 . S
C1110 C1102 1.378 . S
C1110 C1105 1.350 . S
C1111 H1098 0.929 . S
C1111 C1103 1.433 . S
C1111 N1113 1.384 . S
N1112 C1108 1.427 . S
N1112 C1109 1.384 . S
N1113 C1105 1.427 . S
N1113 C1111 1.384 . S
H1114 C1120 0.930 . S
H1115 C1124 0.930 . S
H1116 C1129 0.929 . S
H1117 C1127 0.929 . S
H1118 C1122 0.929 . S
H1119 C1128 0.929 . S
C1120 H1114 0.930 . S
C1120 C1121 1.367 . S
C1120 C1128 1.378 . S
C1121 C1120 1.367 . S
C1121 C1129 1.433 . S
C1122 H1118 0.929 . S
C1122 C1124 1.378 . S
C1122 C1126 1.350 . S
C1123 C1126 1.463 . S
C1123 C1128 1.350 . S
C1123 N1131 1.427 . S
C1124 H1115 0.930 . S
C1124 C1122 1.378 . S
C1124 C1125 1.367 . S
C1125 C1124 1.367 . S
C1125 C1127 1.433 . S
C1126 C1122 1.350 . S
C1126 C1123 1.463 . S
C1126 N1130 1.427 . S
C1127 H1117 0.929 . S
C1127 C1125 1.433 . S
C1127 N1130 1.384 . S
C1128 H1119 0.929 . S
C1128 C1120 1.378 . S
C1128 C1123 1.350 . S
C1129 H1116 0.929 . S
C1129 C1121 1.433 . S
C1129 N1131 1.384 . S
N1130 C1126 1.427 . S
N1130 C1127 1.384 . S
N1131 C1123 1.427 . S
N1131 C1129 1.384 . S
H1132 C1138 0.930 . S
H1133 C1142 0.930 . S
H1134 C1147 0.929 . S
H1135 C1145 0.929 . S
H1136 C1140 0.929 . S
H1137 C1146 0.929 . S
C1138 H1132 0.930 . S
C1138 C1139 1.367 . S
C1138 C1146 1.378 . S
C1139 C1138 1.367 . S
C1139 C1147 1.433 . S
C1140 H1136 0.929 . S
C1140 C1142 1.378 . S
C1140 C1144 1.350 . S
C1141 C1144 1.463 . S
C1141 C1146 1.350 . S
C1141 N1149 1.427 . S
C1142 H1133 0.930 . S
C1142 C1140 1.378 . S
C1142 C1143 1.367 . S
C1143 C1142 1.367 . S
C1143 C1145 1.433 . S
C1144 C1140 1.350 . S
C1144 C1141 1.463 . S
C1144 N1148 1.427 . S
C1145 H1135 0.929 . S
C1145 C1143 1.433 . S
C1145 N1148 1.384 . S
C1146 H1137 0.929 . S
C1146 C1138 1.378 . S
C1146 C1141 1.350 . S
C1147 H1134 0.929 . S
C1147 C1139 1.433 . S
C1147 N1149 1.384 . S
N1148 C1144 1.427 . S
N1148 C1145 1.384 . S
N1149 C1141 1.427 . S
N1149 C1147 1.384 . S
H1150 C1156 0.930 . S
H1151 C1160 0.930 . S
H1152 C1165 0.929 . S
H1153 C1163 0.929 . S
H1154 C1158 0.929 . S
H1155 C1164 0.929 . S
C1156 H1150 0.930 . S
C1156 C1157 1.367 . S
C1156 C1164 1.378 . S
C1157 C1156 1.367 . S
C1157 C1165 1.433 . S
C1158 H1154 0.929 . S
C1158 C1160 1.378 . S
C1158 C1162 1.350 . S
C1159 C1162 1.463 . S
C1159 C1164 1.350 . S
C1159 N1167 1.427 . S
C1160 H1151 0.930 . S
C1160 C1158 1.378 . S
C1160 C1161 1.367 . S
C1161 C1160 1.367 . S
C1161 C1163 1.433 . S
C1162 C1158 1.350 . S
C1162 C1159 1.463 . S
C1162 N1166 1.427 . S
C1163 H1153 0.929 . S
C1163 C1161 1.433 . S
C1163 N1166 1.384 . S
C1164 H1155 0.929 . S
C1164 C1156 1.378 . S
C1164 C1159 1.350 . S
C1165 H1152 0.929 . S
C1165 C1157 1.433 . S
C1165 N1167 1.384 . S
N1166 C1162 1.427 . S
N1166 C1163 1.384 . S
N1167 C1159 1.427 . S
N1167 C1165 1.384 . S
H1168 C1174 0.930 . S
H1169 C1178 0.930 . S
H1170 C1183 0.929 . S
H1171 C1181 0.929 . S
H1172 C1176 0.929 . S
H1173 C1182 0.929 . S
C1174 H1168 0.930 . S
C1174 C1175 1.367 . S
C1174 C1182 1.378 . S
C1175 C1174 1.367 . S
C1175 C1183 1.433 . S
C1176 H1172 0.929 . S
C1176 C1178 1.378 . S
C1176 C1180 1.350 . S
C1177 C1180 1.463 . S
C1177 C1182 1.350 . S
C1177 N1185 1.427 . S
C1178 H1169 0.930 . S
C1178 C1176 1.378 . S
C1178 C1179 1.367 . S
C1179 C1178 1.367 . S
C1179 C1181 1.433 . S
C1180 C1176 1.350 . S
C1180 C1177 1.463 . S
C1180 N1184 1.427 . S
C1181 H1171 0.929 . S
C1181 C1179 1.433 . S
C1181 N1184 1.384 . S
C1182 H1173 0.929 . S
C1182 C1174 1.378 . S
C1182 C1177 1.350 . S
C1183 H1170 0.929 . S
C1183 C1175 1.433 . S
C1183 N1185 1.384 . S
N1184 C1180 1.427 . S
N1184 C1181 1.384 . S
N1185 C1177 1.427 . S
N1185 C1183 1.384 . S
H1186 C1192 0.930 . S
H1187 C1196 0.930 . S
H1188 C1201 0.929 . S
H1189 C1199 0.929 . S
H1190 C1194 0.929 . S
H1191 C1200 0.929 . S
C1192 H1186 0.930 . S
C1192 C1193 1.367 . S
C1192 C1200 1.378 . S
C1193 C1192 1.367 . S
C1193 C1201 1.433 . S
C1194 H1190 0.929 . S
C1194 C1196 1.378 . S
C1194 C1198 1.350 . S
C1195 C1198 1.463 . S
C1195 C1200 1.350 . S
C1195 N1203 1.427 . S
C1196 H1187 0.930 . S
C1196 C1194 1.378 . S
C1196 C1197 1.367 . S
C1197 C1196 1.367 . S
C1197 C1199 1.433 . S
C1198 C1194 1.350 . S
C1198 C1195 1.463 . S
C1198 N1202 1.427 . S
C1199 H1189 0.929 . S
C1199 C1197 1.433 . S
C1199 N1202 1.384 . S
C1200 H1191 0.929 . S
C1200 C1192 1.378 . S
C1200 C1195 1.350 . S
C1201 H1188 0.929 . S
C1201 C1193 1.433 . S
C1201 N1203 1.384 . S
N1202 C1198 1.427 . S
N1202 C1199 1.384 . S
N1203 C1195 1.427 . S
N1203 C1201 1.384 . S
H1204 C1210 0.930 . S
H1205 C1214 0.930 . S
H1206 C1219 0.929 . S
H1207 C1217 0.929 . S
H1208 C1212 0.929 . S
H1209 C1218 0.929 . S
C1210 H1204 0.930 . S
C1210 C1211 1.367 . S
C1210 C1218 1.378 . S
C1211 C1210 1.367 . S
C1211 C1219 1.433 . S
C1212 H1208 0.929 . S
C1212 C1214 1.378 . S
C1212 C1216 1.350 . S
C1213 C1216 1.463 . S
C1213 C1218 1.350 . S
C1213 N1221 1.427 . S
C1214 H1205 0.930 . S
C1214 C1212 1.378 . S
C1214 C1215 1.367 . S
C1215 C1214 1.367 . S
C1215 C1217 1.433 . S
C1216 C1212 1.350 . S
C1216 C1213 1.463 . S
C1216 N1220 1.427 . S
C1217 H1207 0.929 . S
C1217 C1215 1.433 . S
C1217 N1220 1.384 . S
C1218 H1209 0.929 . S
C1218 C1210 1.378 . S
C1218 C1213 1.350 . S
C1219 H1206 0.929 . S
C1219 C1211 1.433 . S
C1219 N1221 1.384 . S
N1220 C1216 1.427 . S
N1220 C1217 1.384 . S
N1221 C1213 1.427 . S
N1221 C1219 1.384 . S
H1222 C1228 0.930 . S
H1223 C1232 0.930 . S
H1224 C1237 0.929 . S
H1225 C1235 0.929 . S
H1226 C1230 0.929 . S
H1227 C1236 0.929 . S
C1228 H1222 0.930 . S
C1228 C1229 1.367 . S
C1228 C1236 1.378 . S
C1229 C1228 1.367 . S
C1229 C1237 1.433 . S
C1230 H1226 0.929 . S
C1230 C1232 1.378 . S
C1230 C1234 1.350 . S
C1231 C1234 1.463 . S
C1231 C1236 1.350 . S
C1231 N1239 1.427 . S
C1232 H1223 0.930 . S
C1232 C1230 1.378 . S
C1232 C1233 1.367 . S
C1233 C1232 1.367 . S
C1233 C1235 1.433 . S
C1234 C1230 1.350 . S
C1234 C1231 1.463 . S
C1234 N1238 1.427 . S
C1235 H1225 0.929 . S
C1235 C1233 1.433 . S
C1235 N1238 1.384 . S
C1236 H1227 0.929 . S
C1236 C1228 1.378 . S
C1236 C1231 1.350 . S
C1237 H1224 0.929 . S
C1237 C1229 1.433 . S
C1237 N1239 1.384 . S
N1238 C1234 1.427 . S
N1238 C1235 1.384 . S
N1239 C1231 1.427 . S
N1239 C1237 1.384 . S
C387 C201 1.271 . S
C383 C17 1.282 . S
C405 C206 1.495 . S
C401 C44 1.404 . S
C423 C207 1.301 . S
C419 C63 1.312 . S
C437 C87 1.291 . S
C441 C211 1.265 . S
C455 C110 1.265 . S
C459 C214 1.238 . S
C477 C215 1.321 . S
C473 C131 1.332 . S
C491 C159 1.374 . S
C495 C192 1.475 . S
C509 C177 1.291 . S
C513 C208 1.302 . S
C531 C246 1.347 . S
C527 C20 1.275 . S
C545 C42 1.340 . S
C549 C272 1.344 . S
C567 C224 1.373 . S
C563 C66 1.297 . S
C585 C279 1.212 . S
C581 C86 1.246 . S
C599 C109 1.242 . S
C603 C233 1.206 . S
C621 C275 1.405 . S
C617 C136 1.337 . S
C635 C157 1.349 . S
C639 C239 1.331 . S
C653 C182 1.300 . S
C657 C270 1.364 . S
C671 C18 1.302 . S
C675 C278 1.266 . S
C689 C112 1.217 . S
C693 C265 1.270 . S
C711 C243 1.249 . S
C707 C134 1.260 . S
C729 C271 1.301 . S
C725 C154 1.347 . S
C743 C180 1.267 . S
C747 C238 1.245 . S
C761 C64 1.290 . S
C765 C256 1.237 . S
C783 C247 1.305 . S
C779 C89 1.254 . S
C797 C39 1.376 . S
C801 C240 1.346 . S
C815 C178 1.255 . S
C819 C302 1.219 . S
C833 C113 1.356 . S
C837 C297 1.390 . S
C855 C311 1.234 . S
C851 C132 1.280 . S
C873 C288 1.210 . S
C869 C156 1.264 . S
C887 C41 1.239 . S
C891 C304 1.216 . S
C909 C303 1.253 . S
C905 C62 1.292 . S
C923 C90 1.345 . S
C927 C307 1.401 . S
C941 C16 1.262 . S
C945 C310 1.236 . S
C959 C181 1.280 . S
C963 C336 1.402 . S
C981 C352 1.342 . S
C977 C111 1.361 . S
C995 C135 1.323 . S
C999 C334 1.445 . S
C1013 C155 1.264 . S
C1017 C367 1.230 . S
C1035 C343 1.234 . S
C1031 C40 1.242 . S
C1049 C67 1.355 . S
C1053 C361 1.389 . S
C1071 C339 1.353 . S
C1067 C88 1.351 . S
C1089 C374 1.370 . S
C1085 C21 1.333 . S
C1107 C366 1.289 . S
C1103 C179 1.326 . S
C1121 C43 1.241 . S
C1125 C371 1.335 . S
C1139 C65 1.255 . S
C1143 C342 1.266 . S
C1161 C375 1.347 . S
C1157 C85 1.378 . S
C1175 C19 1.268 . S
C1179 C329 1.279 . S
C1193 C133 1.319 . S
C1197 C368 1.275 . S
C1215 C320 1.377 . S
C1211 C158 1.243 . S
C1233 C335 1.383 . S
C1229 C108 1.378 . S
