# Generated by pormake.
# Topology rtl, (3,6)-cn, num edge types: 1
# Building blocks:
#     Node 0, Type 0, BuildingBlock: OLANEW_clean_sbu_2, # of connection points: 3
#     Node 1, Type 0, BuildingBlock: OLANEW_clean_sbu_2, # of connection points: 3
#     Node 2, Type 0, BuildingBlock: OLANEW_clean_sbu_2, # of connection points: 3
#     Node 3, Type 0, BuildingBlock: OLANEW_clean_sbu_2, # of connection points: 3
#     Node 4, Type 1, BuildingBlock: LEVNOQ01_clean_sbu_1, # of connection points: 6
#     Node 5, Type 1, BuildingBlock: LEVNOQ01_clean_sbu_1, # of connection points: 6
#     Edge 6, Type (0, 1), BuildingBlock: TEMPAE_clean_linker_10, # of connection points: 2
#     Edge 7, Type (0, 1), BuildingBlock: TEMPAE_clean_linker_10, # of connection points: 2
#     Edge 8, Type (0, 1), BuildingBlock: TEMPAE_clean_linker_10, # of connection points: 2
#     Edge 9, Type (0, 1), BuildingBlock: TEMPAE_clean_linker_10, # of connection points: 2
#     Edge 10, Type (0, 1), BuildingBlock: TEMPAE_clean_linker_10, # of connection points: 2
#     Edge 11, Type (0, 1), BuildingBlock: TEMPAE_clean_linker_10, # of connection points: 2
#     Edge 12, Type (0, 1), BuildingBlock: TEMPAE_clean_linker_10, # of connection points: 2
#     Edge 13, Type (0, 1), BuildingBlock: TEMPAE_clean_linker_10, # of connection points: 2
#     Edge 14, Type (0, 1), BuildingBlock: TEMPAE_clean_linker_10, # of connection points: 2
#     Edge 15, Type (0, 1), BuildingBlock: TEMPAE_clean_linker_10, # of connection points: 2
#     Edge 16, Type (0, 1), BuildingBlock: TEMPAE_clean_linker_10, # of connection points: 2
#     Edge 17, Type (0, 1), BuildingBlock: TEMPAE_clean_linker_10, # of connection points: 2
# Relax obj value: 0.015
# Max RMSD: 0.121
# Mean RMSD: 0.076
data_MOF--net-rtl--node1-OLANEW_clean_sbu_2--node2-LEVNOQ01_clean_sbu_1--edge1-TEMPAE_clean_linker_10
_symmetry_space_group_name_H-M    P1
_symmetry_Int_Tables_number       1
_symmetry_cell_setting            triclinic
loop_
_symmetry_equiv_pos_as_xyz
'x, y, z'
_cell_length_a     37.642327
_cell_length_b     37.971246
_cell_length_c     24.126048
_cell_angle_alpha  87.395
_cell_angle_beta   100.4132
_cell_angle_gamma 89.738416
loop_
_atom_site_label
_atom_site_type_symbol
_atom_site_fract_x
_atom_site_fract_y
_atom_site_fract_z
_atom_type_partial_charge
O0 O 0.18538 0.81724 0.01956 0.0
Cd1 Cd 0.21611 0.79991 0.11592 0.0
O2 O 0.2054 0.8715 0.02674 0.0
Cd3 Cd 0.22991 0.8663 0.11604 0.0
O4 O 0.22564 0.88412 0.19944 0.0
C5 C 0.21485 0.91588 0.19968 0.0
O6 O 0.21013 0.9351 0.15215 0.0
C7 C 0.18756 0.84812 0.99776 0.0
C8 C 0.26841 0.74736 0.11649 0.0
O9 O 0.2357 0.73952 0.11947 0.0
O10 O 0.27644 0.7801 0.11378 0.0
O11 O 0.72713 0.69646 0.72639 0.0
Cd12 Cd 0.74639 0.73748 0.65764 0.0
O13 O 0.70679 0.67109 0.64809 0.0
Cd14 Cd 0.6799 0.63734 0.58222 0.0
O15 O 0.65499 0.61914 0.49951 0.0
C16 C 0.63379 0.63994 0.46595 0.0
O17 O 0.62698 0.67135 0.48254 0.0
C18 C 0.7099 0.67121 0.70158 0.0
C19 C 0.79057 0.79334 0.69466 0.0
O20 O 0.75615 0.79751 0.68307 0.0
O21 O 0.80361 0.76235 0.69175 0.0
O22 O 0.80374 0.19099 0.08173 0.0
Cd23 Cd 0.77593 0.20592 0.98309 0.0
O24 O 0.85073 0.22484 0.08004 0.0
Cd25 Cd 0.83636 0.2307 0.98839 0.0
O26 O 0.83997 0.20261 0.91249 0.0
C27 C 0.86409 0.17847 0.92117 0.0
O28 O 0.88338 0.17366 0.97214 0.0
C29 C 0.8329 0.20414 0.10726 0.0
C30 C 0.72621 0.26179 0.97239 0.0
O31 O 0.71643 0.22972 0.97802 0.0
O32 O 0.75968 0.26753 0.9718 0.0
O33 O 0.32495 0.29751 0.54933 0.0
Cd34 Cd 0.30658 0.27745 0.45305 0.0
O35 O 0.30441 0.34763 0.50868 0.0
Cd36 Cd 0.29732 0.40424 0.48942 0.0
O37 O 0.30145 0.43656 0.41388 0.0
C38 C 0.33323 0.44285 0.40559 0.0
O39 O 0.36065 0.43326 0.44543 0.0
C40 C 0.31993 0.33036 0.55288 0.0
C41 C 0.24688 0.2337 0.44133 0.0
O42 O 0.27914 0.22115 0.45436 0.0
O43 O 0.2428 0.26721 0.4336 0.0
O44 O 0.0019 0.0555 0.67441 0.0
Mg45 Mg 0.0477 0.04124 0.64279 0.0
O46 O 0.96606 0.03677 0.59889 0.0
Mg47 Mg 0.00518 0.01283 0.54394 0.0
O48 O 0.04843 0.05766 0.56107 0.0
O49 O 0.08072 0.08185 0.6371 0.0
O50 O 0.04502 0.98979 0.4888 0.0
O51 O 0.97728 0.05268 0.47088 0.0
Mg52 Mg 0.9664 0.9721 0.44103 0.0
O53 O 0.96169 0.97049 0.524 0.0
O54 O 0.01615 0.95214 0.42991 0.0
O55 O 0.95035 0.0211 0.40038 0.0
O56 O 0.92861 0.93763 0.46041 0.0
C57 C 0.05932 0.96766 0.65464 0.0
C58 C 0.97062 0.05119 0.64636 0.0
C59 C 0.07189 0.08064 0.58299 0.0
C60 C 0.04515 0.96672 0.4518 0.0
C61 C 0.95853 0.05061 0.42134 0.0
C62 C 0.93723 0.94667 0.51203 0.0
O63 O 0.07577 0.99502 0.67164 0.0
O64 O 0.03177 0.96985 0.61494 0.0
O65 O 0.50151 0.50295 0.12217 0.0
Mg66 Mg 0.49295 0.46445 0.06025 0.0
O67 O 0.51021 0.54353 0.05831 0.0
Mg68 Mg 0.48167 0.51244 0.98192 0.0
O69 O 0.52497 0.46444 6e-05 0.0
O70 O 0.53333 0.42901 0.07885 0.0
O71 O 0.45275 0.47881 0.90736 0.0
O72 O 0.52615 0.53535 0.9318 0.0
Mg73 Mg 0.4498 0.55886 0.88102 0.0
O74 O 0.44067 0.55984 0.9621 0.0
O75 O 0.43058 0.51523 0.83514 0.0
O76 O 0.5 0.57771 0.8723 0.0
O77 O 0.41327 0.59597 0.89111 0.0
C78 C 0.42382 0.46574 0.04894 0.0
C79 C 0.51117 0.53376 0.10982 0.0
C80 C 0.5426 0.43895 0.03175 0.0
C81 C 0.43578 0.4843 0.85685 0.0
C82 C 0.52808 0.56093 0.89609 0.0
C83 C 0.41844 0.58597 0.94387 0.0
O84 O 0.443 0.43856 0.04821 0.0
O85 O 0.43563 0.49509 0.03261 0.0
C86 C 0.1801 0.2243 0.42967 0.0
C87 C 0.21539 0.21033 0.43966 0.0
C88 C 0.15078 0.20321 0.43797 0.0
C89 C 0.15714 0.16763 0.45749 0.0
C90 C 0.19209 0.1526 0.46195 0.0
C91 C 0.22079 0.17414 0.45287 0.0
C92 C 0.11362 0.21979 0.43064 0.0
C93 C 0.19996 0.11464 0.48203 0.0
C94 C 0.11112 0.13201 0.57392 0.0
C95 C 0.08936 0.10548 0.5476 0.0
C96 C 0.13178 0.1535 0.54406 0.0
C97 C 0.13039 0.14881 0.48587 0.0
C98 C 0.10653 0.12382 0.45787 0.0
C99 C 0.08638 0.10213 0.48928 0.0
C100 C 0.15674 0.17985 0.57586 0.0
C101 C 0.10344 0.11872 0.39556 0.0
H102 H 0.17555 0.25211 0.41823 0.0
H103 H 0.24786 0.16296 0.45951 0.0
H104 H 0.09264 0.20118 0.41195 0.0
H105 H 0.10787 0.22644 0.47247 0.0
H106 H 0.11144 0.2444 0.40345 0.0
H107 H 0.22721 0.10583 0.47635 0.0
H108 H 0.1985 0.11156 0.52754 0.0
H109 H 0.17955 0.09705 0.45903 0.0
H110 H 0.11308 0.13532 0.61876 0.0
H111 H 0.0693 0.08193 0.46853 0.0
H112 H 0.15149 0.20661 0.55556 0.0
H113 H 0.18524 0.17272 0.57488 0.0
H114 H 0.15359 0.18095 0.62066 0.0
H115 H 0.10663 0.14399 0.37209 0.0
H116 H 0.07703 0.10716 0.37759 0.0
H117 H 0.12506 0.10031 0.38883 0.0
C118 C 0.28538 0.68401 0.11028 0.0
C119 C 0.29536 0.71955 0.11182 0.0
C120 C 0.30846 0.65817 0.09587 0.0
C121 C 0.34222 0.66816 0.08248 0.0
C122 C 0.35385 0.70335 0.08951 0.0
C123 C 0.33025 0.72867 0.10401 0.0
C124 C 0.29526 0.62085 0.08989 0.0
C125 C 0.3898 0.71506 0.07634 0.0
C126 C 0.40765 0.60126 0.04038 0.0
C127 C 0.39812 0.60437 0.98137 0.0
C128 C 0.38933 0.62123 0.07462 0.0
C129 C 0.36097 0.64463 0.04895 0.0
C130 C 0.35071 0.64687 0.9895 0.0
C131 C 0.36931 0.62678 0.95671 0.0
C132 C 0.40125 0.6182 0.13781 0.0
C133 C 0.32056 0.67127 0.96007 0.0
H134 H 0.25872 0.67657 0.11728 0.0
H135 H 0.33846 0.75597 0.10609 0.0
H136 H 0.28644 0.61592 0.04451 0.0
H137 H 0.3173 0.60181 0.10707 0.0
H138 H 0.27212 0.61582 0.11181 0.0
H139 H 0.39739 0.74141 0.09261 0.0
H140 H 0.41143 0.69577 0.09467 0.0
H141 H 0.38836 0.7165 0.02993 0.0
H142 H 0.4299 0.58398 0.05971 0.0
H143 H 0.36139 0.62908 0.9112 0.0
H144 H 0.37772 0.61868 0.15963 0.0
H145 H 0.41841 0.641 0.15155 0.0
H146 H 0.41729 0.59367 0.15148 0.0
H147 H 0.29514 0.66506 0.9754 0.0
H148 H 0.31554 0.66932 0.91351 0.0
H149 H 0.32734 0.69899 0.96986 0.0
C150 C 0.85232 0.81858 0.71474 0.0
C151 C 0.81483 0.82401 0.70106 0.0
C152 C 0.87606 0.84473 0.7016 0.0
C153 C 0.86174 0.87658 0.67348 0.0
C154 C 0.82447 0.88436 0.66873 0.0
C155 C 0.80128 0.85784 0.68259 0.0
C156 C 0.91588 0.83611 0.71009 0.0
C157 C 0.80842 0.91871 0.64129 0.0
C158 C 0.92281 0.94122 0.61028 0.0
C159 C 0.91927 0.92923 0.55539 0.0
C160 C 0.90457 0.92438 0.65008 0.0
C161 C 0.88236 0.89514 0.63417 0.0
C162 C 0.87931 0.88279 0.57899 0.0
C163 C 0.8977 0.89996 0.54059 0.0
C164 C 0.90844 0.93855 0.70822 0.0
C165 C 0.85638 0.8514 0.55998 0.0
H166 H 0.86307 0.79282 0.7308 0.0
H167 H 0.77234 0.8626 0.67326 0.0
H168 H 0.92244 0.82673 0.67016 0.0
H169 H 0.93227 0.85981 0.72136 0.0
H170 H 0.92369 0.81503 0.74362 0.0
H171 H 0.78129 0.92387 0.65144 0.0
H172 H 0.82633 0.94102 0.65491 0.0
H173 H 0.80559 0.91761 0.59479 0.0
H174 H 0.93941 0.96391 0.62196 0.0
H175 H 0.89504 0.89024 0.4985 0.0
H176 H 0.90733 0.91727 0.74088 0.0
H177 H 0.88583 0.95727 0.70891 0.0
H178 H 0.93416 0.95297 0.71952 0.0
H179 H 0.86578 0.82776 0.58755 0.0
H180 H 0.85728 0.84511 0.51572 0.0
H181 H 0.82782 0.85662 0.56321 0.0
C182 C 0.66354 0.28428 0.97115 0.0
C183 C 0.6998 0.29128 0.96881 0.0
C184 C 0.63881 0.31172 0.97316 0.0
C185 C 0.65055 0.34711 0.97279 0.0
C186 C 0.68661 0.35449 0.96725 0.0
C187 C 0.71086 0.32646 0.96545 0.0
C188 C 0.60058 0.30267 0.97897 0.0
C189 C 0.70011 0.39184 0.96636 0.0
C190 C 0.57513 0.41607 0.95811 0.0
C191 C 0.57329 0.42035 0.01492 0.0
C192 C 0.60143 0.39358 0.94322 0.0
C193 C 0.62643 0.37546 0.98624 0.0
C194 C 0.62609 0.38178 0.04347 0.0
C195 C 0.59947 0.40396 0.05703 0.0
C196 C 0.60111 0.38768 0.88173 0.0
C197 C 0.65257 0.36354 0.09074 0.0
H198 H 0.65464 0.25723 0.97323 0.0
H199 H 0.73876 0.33214 0.96311 0.0
H200 H 0.59612 0.30899 0.02167 0.0
H201 H 0.58098 0.31868 0.94789 0.0
H202 H 0.59474 0.27432 0.97281 0.0
H203 H 0.7268 0.39352 0.95295 0.0
H204 H 0.68057 0.40926 0.93757 0.0
H205 H 0.70285 0.4021 0.00923 0.0
H206 H 0.55497 0.42877 0.92546 0.0
H207 H 0.59853 0.40769 0.10105 0.0
H208 H 0.59044 0.36108 0.87167 0.0
H209 H 0.6289 0.38864 0.87244 0.0
H210 H 0.58396 0.40752 0.85364 0.0
H211 H 0.64721 0.33483 0.09196 0.0
H212 H 0.65071 0.37371 0.1326 0.0
H213 H 0.68063 0.36698 0.08343 0.0
C214 C 0.17786 0.95815 0.24214 0.0
C215 C 0.20137 0.92888 0.24911 0.0
C216 C 0.15885 0.96677 0.28462 0.0
C217 C 0.1641 0.9461 0.33584 0.0
C218 C 0.19073 0.91896 0.34544 0.0
C219 C 0.20873 0.91029 0.30158 0.0
C220 C 0.13052 0.99577 0.27232 0.0
C221 C 0.19822 0.89735 0.40041 0.0
C222 C 0.10987 0.97837 0.44295 0.0
C223 C 0.0784 0.95845 0.42976 0.0
C224 C 0.13932 0.97326 0.41537 0.0
C225 C 0.13678 0.94815 0.37314 0.0
C226 C 0.10583 0.92679 0.36201 0.0
C227 C 0.07734 0.93195 0.39081 0.0
C228 C 0.17224 0.99591 0.42959 0.0
C229 C 0.10169 0.89986 0.31704 0.0
H230 H 0.17227 0.97291 0.20193 0.0
H231 H 0.22741 0.88806 0.30765 0.0
H232 H 0.10326 0.98396 0.26695 0.0
H233 H 0.13295 0.01349 0.30802 0.0
H234 H 0.13253 0.01181 0.23336 0.0
H235 H 0.22452 0.88302 0.40602 0.0
H236 H 0.19832 0.91435 0.43666 0.0
H237 H 0.17662 0.87766 0.40113 0.0
H238 H 0.11105 -0.00123 0.47321 0.0
H239 H 0.05341 0.91602 0.38081 0.0
H240 H 0.17056 0.01833 0.39807 0.0
H241 H 0.19734 0.98073 0.42842 0.0
H242 H 0.17417 0.00689 0.47193 0.0
H243 H 0.1018 0.91327 0.27522 0.0
H244 H 0.07625 0.88482 0.31464 0.0
H245 H 0.1247 0.88086 0.3254 0.0
C246 C 0.66389 0.6242 0.7081 0.0
C247 C 0.69229 0.64475 0.73447 0.0
C248 C 0.64322 0.60368 0.73992 0.0
C249 C 0.65082 0.60414 0.79956 0.0
C250 C 0.68143 0.62227 0.82644 0.0
C251 C 0.70176 0.64242 0.79357 0.0
C252 C 0.61105 0.58436 0.70951 0.0
C253 C 0.69077 0.6231 0.88989 0.0
C254 C 0.56583 0.60697 0.8614 0.0
C255 C 0.56268 0.5719 0.88044 0.0
C256 C 0.59521 0.61785 0.8373 0.0
C257 C 0.62244 0.59305 0.83208 0.0
C258 C 0.62069 0.558 0.85435 0.0
C259 C 0.59066 0.54776 0.87848 0.0
C260 C 0.59602 0.65563 0.81479 0.0
C261 C 0.64938 0.53092 0.85006 0.0
H262 H 0.65604 0.62587 0.66278 0.0
H263 H 0.72405 0.65777 0.81444 0.0
H264 H 0.60908 0.55779 0.72973 0.0
H265 H 0.58595 0.59922 0.71193 0.0
H266 H 0.61241 0.58148 0.66432 0.0
H267 H 0.7189 0.63191 0.90423 0.0
H268 H 0.67217 0.64171 0.90492 0.0
H269 H 0.6874 0.59673 0.90991 0.0
H270 H 0.54451 0.62587 0.86368 0.0
H271 H 0.58825 0.5206 0.89312 0.0
H272 H 0.59386 0.65628 0.76827 0.0
H273 H 0.622 0.66792 0.83267 0.0
H274 H 0.57364 0.67192 0.82484 0.0
H275 H 0.64547 0.52203 0.80623 0.0
H276 H 0.6481 0.50749 0.87892 0.0
H277 H 0.67674 0.54238 0.85982 0.0
C278 C 0.83376 0.1623 0.19061 0.0
C279 C 0.84858 0.19154 0.16579 0.0
C280 C 0.85232 0.14522 0.24031 0.0
C281 C 0.88635 0.15789 0.26625 0.0
C282 C 0.89976 0.18936 0.24446 0.0
C283 C 0.88083 0.20571 0.19424 0.0
C284 C 0.83696 0.11175 0.26209 0.0
C285 C 0.93552 0.20418 0.27151 0.0
C286 C 0.92712 0.10954 0.4053 0.0
C287 C 0.94622 0.08242 0.3857 0.0
C288 C 0.90883 0.13579 0.36738 0.0
C289 C 0.91022 0.1348 0.3091 0.0
C290 C 0.93187 0.10889 0.29028 0.0
C291 C 0.94932 0.08292 0.32874 0.0
C292 C 0.8862 0.16305 0.38909 0.0
C293 C 0.93473 0.10709 0.22879 0.0
H294 H 0.80874 0.15127 0.16931 0.0
H295 H 0.89229 0.22859 0.17585 0.0
H296 H 0.85315 0.0888 0.25344 0.0
H297 H 0.8385 0.11197 0.3084 0.0
H298 H 0.80839 0.10791 0.24181 0.0
H299 H 0.93866 0.23195 0.25679 0.0
H300 H 0.93843 0.20292 0.31815 0.0
H301 H 0.9578 0.18819 0.2606 0.0
H302 H 0.92455 0.10895 0.44937 0.0
H303 H 0.96435 0.06199 0.31381 0.0
H304 H 0.85724 0.1563 0.37748 0.0
H305 H 0.88973 0.18953 0.3696 0.0
H306 H 0.89303 0.1643 0.43572 0.0
H307 H 0.90812 0.10015 0.20394 0.0
H308 H 0.95503 0.08717 0.22198 0.0
H309 H 0.94225 0.13313 0.21195 0.0
C310 C 0.36432 0.33292 0.64323 0.0
C311 C 0.33499 0.34812 0.60529 0.0
C312 C 0.38111 0.3508 0.69048 0.0
C313 C 0.36803 0.38453 0.70027 0.0
C314 C 0.3371 0.39904 0.66395 0.0
C315 C 0.321 0.38068 0.61685 0.0
C316 C 0.41404 0.33445 0.72805 0.0
C317 C 0.32191 0.43468 0.67349 0.0
C318 C 0.39894 0.43005 0.8381 0.0
C319 C 0.42275 0.45486 0.82135 0.0
C320 C 0.38155 0.40599 0.79971 0.0
C321 C 0.38894 0.40653 0.74406 0.0
C322 C 0.41481 0.43018 0.72852 0.0
C323 C 0.43097 0.45438 0.7671 0.0
C324 C 0.35382 0.38151 0.81764 0.0
C325 C 0.42423 0.43107 0.6702 0.0
H326 H 0.37512 0.3076 0.6348 0.0
H327 H 0.29759 0.39199 0.58888 0.0
H328 H 0.43835 0.34947 0.72185 0.0
H329 H 0.41175 0.3358 0.7731 0.0
H330 H 0.41819 0.30648 0.71884 0.0
H331 H 0.29574 0.44065 0.64495 0.0
H332 H 0.31793 0.436 0.71781 0.0
H333 H 0.34136 0.4555 0.66614 0.0
H334 H 0.39237 0.4308 0.87998 0.0
H335 H 0.44952 0.47362 0.75442 0.0
H336 H 0.35812 0.35426 0.80529 0.0
H337 H 0.32646 0.3902 0.79583 0.0
H338 H 0.3545 0.38117 0.8639 0.0
H339 H 0.43127 0.40418 0.65916 0.0
H340 H 0.44725 0.44872 0.66664 0.0
H341 H 0.4005 0.44047 0.63867 0.0
C342 C 0.58832 0.649 0.37671 0.0
C343 C 0.61654 0.62882 0.40935 0.0
C344 C 0.57055 0.6379 0.32421 0.0
C345 C 0.58147 0.60604 0.30366 0.0
C346 C 0.61084 0.58626 0.33544 0.0
C347 C 0.62787 0.59778 0.38802 0.0
C348 C 0.53922 0.65957 0.29176 0.0
C349 C 0.62357 0.55231 0.3147 0.0
C350 C 0.51501 0.55069 0.2089 0.0
C351 C 0.52548 0.55666 0.15641 0.0
C352 C 0.53191 0.56792 0.2565 0.0
C353 C 0.56029 0.59153 0.2517 0.0
C354 C 0.56977 0.5991 0.19819 0.0
C355 C 0.55204 0.58167 0.15091 0.0
C356 C 0.52051 0.55949 0.31249 0.0
C357 C 0.59991 0.62409 0.19144 0.0
H358 H 0.57945 0.67308 0.39278 0.0
H359 H 0.64991 0.58223 0.41265 0.0
H360 H 0.54284 0.66484 0.24754 0.0
H361 H 0.51385 0.6446 0.29036 0.0
H362 H 0.53605 0.68514 0.31108 0.0
H363 H 0.64855 0.54159 0.34209 0.0
H364 H 0.60214 0.53224 0.31344 0.0
H365 H 0.62882 0.55655 0.27111 0.0
H366 H 0.49414 0.53168 0.21316 0.0
H367 H 0.56027 0.58624 0.11041 0.0
H368 H 0.51493 0.58414 0.33256 0.0
H369 H 0.54277 0.54527 0.34143 0.0
H370 H 0.49604 0.54286 0.30812 0.0
H371 H 0.59651 0.6491 0.21204 0.0
H372 H 0.60124 0.6302 0.14639 0.0
H373 H 0.62611 0.61211 0.21252 0.0
C374 C 0.90443 0.13803 0.88183 0.0
C375 C 0.87176 0.15697 0.87492 0.0
C376 C 0.91346 0.11885 0.83803 0.0
C377 C 0.88893 0.11799 0.78615 0.0
C378 C 0.85519 0.13578 0.77963 0.0
C379 C 0.84714 0.15546 0.82395 0.0
C380 C 0.95 0.10068 0.84663 0.0
C381 C 0.82803 0.13467 0.72548 0.0
C382 C 0.94022 0.10457 0.66843 0.0
C383 C 0.94056 0.06781 0.66685 0.0
C384 C 0.92049 0.12167 0.70341 0.0
C385 C 0.90069 0.10135 0.73768 0.0
C386 C 0.89807 0.06439 0.73186 0.0
C387 C 0.91842 0.0479 0.69661 0.0
C388 C 0.9243 0.16105 0.70832 0.0
C389 C 0.8767 0.04186 0.76675 0.0
H390 H 0.92359 0.13904 0.92109 0.0
H391 H 0.82164 0.1697 0.81864 0.0
H392 H 0.94676 0.0723 0.8382 0.0
H393 H 0.96617 0.11235 0.81642 0.0
H394 H 0.96545 0.10303 0.89009 0.0
H395 H 0.80157 0.14646 0.72933 0.0
H396 H 0.83846 0.14934 0.69109 0.0
H397 H 0.82383 0.10705 0.71282 0.0
H398 H 0.95778 0.11976 0.64567 0.0
H399 H 0.91916 0.0194 0.69575 0.0
H400 H 0.942 0.1665 0.74898 0.0
H401 H 0.89772 0.17378 0.70813 0.0
H402 H 0.93635 0.17343 0.67354 0.0
H403 H 0.89297 0.03666 0.80953 0.0
H404 H 0.8699 0.01609 0.74773 0.0
H405 H 0.85135 0.05546 0.77155 0.0
C406 C 0.375 0.45989 0.33986 0.0
C407 C 0.33961 0.45458 0.34883 0.0
C408 C 0.38241 0.4652 0.28524 0.0
C409 C 0.35369 0.46526 0.23833 0.0
C410 C 0.31766 0.46229 0.24721 0.0
C411 C 0.31102 0.45694 0.30245 0.0
C412 C 0.42123 0.46885 0.27767 0.0
C413 C 0.28632 0.46291 0.19833 0.0
C414 C 0.38429 0.49713 0.10397 0.0
C415 C 0.39607 0.46532 0.08539 0.0
C416 C 0.36748 0.49749 0.15136 0.0
C417 C 0.36217 0.46531 0.18045 0.0
C418 C 0.3703 0.43301 0.15808 0.0
C419 C 0.38709 0.4334 0.11068 0.0
C420 C 0.35868 0.53247 0.17316 0.0
C421 C 0.3646 0.39804 0.18737 0.0
H422 H 0.39722 0.45851 0.37545 0.0
H423 H 0.28354 0.45309 0.30898 0.0
H424 H 0.42923 0.44582 0.25575 0.0
H425 H 0.42432 0.4928 0.25097 0.0
H426 H 0.44014 0.47049 0.31853 0.0
H427 H 0.25995 0.46549 0.21239 0.0
H428 H 0.28891 0.48502 0.16769 0.0
H429 H 0.28637 0.43811 0.17574 0.0
H430 H 0.39077 0.52199 0.08444 0.0
H431 H 0.39565 0.40868 0.09617 0.0
H432 H 0.38039 0.53921 0.20853 0.0
H433 H 0.33291 0.53143 0.18933 0.0
H434 H 0.35675 0.55381 0.13979 0.0
H435 H 0.38465 0.39478 0.22714 0.0
H436 H 0.36774 0.37548 0.16082 0.0
H437 H 0.33733 0.3971 0.19866 0.0
C438 C 0.15159 0.83241 0.90358 0.0
C439 C 0.16749 0.85798 0.94022 0.0
C440 C 0.13135 0.84223 0.85001 0.0
C441 C 0.12646 0.87842 0.83325 0.0
C442 C 0.1425 0.90423 0.87014 0.0
C443 C 0.16297 0.8937 0.92273 0.0
C444 C 0.11527 0.814 0.81139 0.0
C445 C 0.13782 0.94319 0.85434 0.0
C446 C 0.10607 0.92197 0.68771 0.0
C447 C 0.07082 0.93435 0.68617 0.0
C448 C 0.12325 0.89947 0.73236 0.0
C449 C 0.105 0.89019 0.77726 0.0
C450 C 0.06801 0.89955 0.77255 0.0
C451 C 0.05124 0.92148 0.72665 0.0
C452 C 0.16232 0.8893 0.73469 0.0
C453 C 0.04744 0.89038 0.8193 0.0
H454 H 0.155 0.80474 0.9167 0.0
H455 H 0.1749 0.9137 0.95074 0.0
H456 H 0.08547 0.8172 0.80126 0.0
H457 H 0.12534 0.81667 0.77094 0.0
H458 H 0.12195 0.78703 0.83033 0.0
H459 H 0.1511 0.95986 0.88858 0.0
H460 H 0.14946 0.94959 0.81606 0.0
H461 H 0.10867 0.95033 0.84431 0.0
H462 H 0.12125 0.93226 0.65649 0.0
H463 H 0.02411 0.93156 0.72576 0.0
H464 H 0.16788 0.86194 0.75235 0.0
H465 H 0.17983 0.90712 0.76264 0.0
H466 H 0.1699 0.89154 0.69226 0.0
H467 H 0.05399 0.86318 0.83698 0.0
H468 H 0.01778 0.89287 0.8045 0.0
H469 H 0.05531 0.90865 0.85394 0.0
loop_
_geom_bond_atom_site_label_1
_geom_bond_atom_site_label_2
_geom_bond_distance
_geom_bond_site_symmetry_2
_ccdc_geom_bond_type
O0 Cd1 2.300 1_556 S
O0 C7 1.275 1_556 S
Cd1 O0 2.300 1_554 S
Cd1 O9 2.381 . S
Cd1 O10 2.378 . S
O2 Cd3 2.385 . S
O2 C7 1.255 . S
Cd3 O2 2.385 . S
Cd3 O4 2.317 . S
O4 Cd3 2.317 . S
O4 C5 1.232 . S
C5 O4 1.232 . S
C5 O6 1.218 . S
O6 C5 1.218 . S
C7 O0 1.275 1_554 S
C7 O2 1.255 . S
C8 O9 1.258 . S
C8 O10 1.256 . S
O9 Cd1 2.381 . S
O9 C8 1.258 . S
O10 Cd1 2.378 . S
O10 C8 1.256 . S
O11 Cd12 2.300 . S
O11 C18 1.275 . S
Cd12 O11 2.300 . S
Cd12 O20 2.381 . S
Cd12 O21 2.378 . S
O13 Cd14 2.385 . S
O13 C18 1.255 . S
Cd14 O13 2.385 . S
Cd14 O15 2.317 . S
O15 Cd14 2.317 . S
O15 C16 1.232 . S
C16 O15 1.232 . S
C16 O17 1.218 . S
O17 C16 1.218 . S
C18 O11 1.275 . S
C18 O13 1.255 . S
C19 O20 1.258 . S
C19 O21 1.256 . S
O20 Cd12 2.381 . S
O20 C19 1.258 . S
O21 Cd12 2.378 . S
O21 C19 1.256 . S
O22 Cd23 2.300 . S
O22 C29 1.275 . S
Cd23 O22 2.300 . S
Cd23 O31 2.381 . S
Cd23 O32 2.378 1_554 S
O24 Cd25 2.385 1_554 S
O24 C29 1.255 . S
Cd25 O24 2.385 1_556 S
Cd25 O26 2.317 . S
O26 Cd25 2.317 . S
O26 C27 1.232 . S
C27 O26 1.232 . S
C27 O28 1.218 . S
O28 C27 1.218 . S
C29 O22 1.275 . S
C29 O24 1.255 . S
C30 O31 1.258 . S
C30 O32 1.256 1_554 S
O31 Cd23 2.381 . S
O31 C30 1.258 . S
O32 Cd23 2.378 1_556 S
O32 C30 1.256 1_556 S
O33 Cd34 2.300 . S
O33 C40 1.275 . S
Cd34 O33 2.300 . S
Cd34 O42 2.381 . S
Cd34 O43 2.378 . S
O35 Cd36 2.385 . S
O35 C40 1.255 . S
Cd36 O35 2.385 . S
Cd36 O37 2.317 . S
O37 Cd36 2.317 . S
O37 C38 1.232 . S
C38 O37 1.232 . S
C38 O39 1.218 . S
O39 C38 1.218 . S
C40 O33 1.275 . S
C40 O35 1.255 . S
C41 O42 1.258 . S
C41 O43 1.256 . S
O42 Cd34 2.381 . S
O42 C41 1.258 . S
O43 Cd34 2.378 . S
O43 C41 1.256 . S
O44 Mg45 1.990 . S
O44 C58 1.253 1_455 S
Mg45 O44 1.990 . S
Mg45 O48 2.180 . S
Mg45 O49 2.117 . S
Mg45 O63 2.030 . S
O46 Mg47 2.072 1_655 S
O46 C58 1.260 . S
Mg47 O46 2.072 1_455 S
Mg47 O48 2.099 . S
Mg47 O50 2.079 1_545 S
Mg47 O51 2.072 1_455 S
Mg47 O53 2.099 1_445 S
Mg47 O64 2.079 1_545 S
O48 Mg45 2.180 . S
O48 Mg47 2.099 . S
O48 C59 1.279 . S
O49 Mg45 2.117 . S
O49 C59 1.250 . S
O50 Mg47 2.079 1_565 S
O50 C60 1.264 . S
O51 Mg47 2.072 1_655 S
O51 C61 1.260 . S
Mg52 O53 2.180 . S
Mg52 O54 2.030 1_655 S
Mg52 O55 1.990 1_565 S
Mg52 O56 2.117 . S
O53 Mg47 2.099 1_665 S
O53 Mg52 2.180 . S
O53 C62 1.279 . S
O54 Mg52 2.030 1_455 S
O54 C60 1.248 . S
O55 Mg52 1.990 1_545 S
O55 C61 1.253 . S
O56 Mg52 2.117 . S
O56 C62 1.250 . S
C57 O63 1.248 1_565 S
C57 O64 1.264 . S
C58 O44 1.253 1_655 S
C58 O46 1.260 . S
C59 O48 1.279 . S
C59 O49 1.250 . S
C60 O50 1.264 . S
C60 O54 1.248 . S
C61 O51 1.260 . S
C61 O55 1.253 . S
C62 O53 1.279 . S
C62 O56 1.250 . S
O63 Mg45 2.030 . S
O63 C57 1.248 1_545 S
O64 Mg47 2.079 1_565 S
O64 C57 1.264 . S
O65 Mg66 1.990 . S
O65 C79 1.253 . S
Mg66 O65 1.990 . S
Mg66 O69 2.180 . S
Mg66 O70 2.117 . S
Mg66 O84 2.030 . S
O67 Mg68 2.072 . S
O67 C79 1.260 . S
Mg68 O67 2.072 . S
Mg68 O69 2.099 . S
Mg68 O71 2.079 1_554 S
Mg68 O72 2.072 1_554 S
Mg68 O74 2.099 1_554 S
Mg68 O85 2.079 . S
O69 Mg66 2.180 . S
O69 Mg68 2.099 . S
O69 C80 1.279 . S
O70 Mg66 2.117 . S
O70 C80 1.250 . S
O71 Mg68 2.079 1_556 S
O71 C81 1.264 . S
O72 Mg68 2.072 1_556 S
O72 C82 1.260 . S
Mg73 O74 2.180 . S
Mg73 O75 2.030 . S
Mg73 O76 1.990 . S
Mg73 O77 2.117 . S
O74 Mg68 2.099 1_556 S
O74 Mg73 2.180 . S
O74 C83 1.279 . S
O75 Mg73 2.030 . S
O75 C81 1.248 . S
O76 Mg73 1.990 . S
O76 C82 1.253 . S
O77 Mg73 2.117 . S
O77 C83 1.250 . S
C78 O84 1.248 . S
C78 O85 1.264 . S
C79 O65 1.253 . S
C79 O67 1.260 . S
C80 O69 1.279 . S
C80 O70 1.250 . S
C81 O71 1.264 . S
C81 O75 1.248 . S
C82 O72 1.260 . S
C82 O76 1.253 . S
C83 O74 1.279 . S
C83 O77 1.250 . S
O84 Mg66 2.030 . S
O84 C78 1.248 . S
O85 Mg68 2.079 . S
O85 C78 1.264 . S
C86 C87 1.391 . S
C86 C88 1.394 . S
C86 H102 0.931 . S
C87 C86 1.391 . S
C87 C91 1.376 . S
C88 C86 1.394 . S
C88 C89 1.369 . S
C88 C92 1.531 . S
C89 C88 1.369 . S
C89 C90 1.410 . S
C89 C97 1.503 . S
C90 C89 1.410 . S
C90 C91 1.392 . S
C90 C93 1.511 . S
C91 C87 1.376 . S
C91 C90 1.392 . S
C91 H103 0.929 . S
C92 C88 1.531 . S
C92 H104 0.960 . S
C92 H105 0.962 . S
C92 H106 0.960 . S
C93 C90 1.511 . S
C93 H107 0.961 . S
C93 H108 0.961 . S
C93 H109 0.961 . S
C94 C95 1.370 . S
C94 C96 1.363 . S
C94 H110 0.931 . S
C95 C94 1.370 . S
C95 C99 1.408 . S
C96 C94 1.363 . S
C96 C97 1.370 . S
C96 C100 1.524 . S
C97 C89 1.503 . S
C97 C96 1.370 . S
C97 C98 1.403 . S
C98 C97 1.403 . S
C98 C99 1.404 . S
C98 C101 1.539 . S
C99 C95 1.408 . S
C99 C98 1.404 . S
C99 H111 0.930 . S
C100 C96 1.524 . S
C100 H112 0.956 . S
C100 H113 0.961 . S
C100 H114 0.961 . S
C101 C98 1.539 . S
C101 H115 0.958 . S
C101 H116 0.961 . S
C101 H117 0.960 . S
H102 C86 0.931 . S
H103 C91 0.929 . S
H104 C92 0.960 . S
H105 C92 0.962 . S
H106 C92 0.960 . S
H107 C93 0.961 . S
H108 C93 0.961 . S
H109 C93 0.961 . S
H110 C94 0.931 . S
H111 C99 0.930 . S
H112 C100 0.956 . S
H113 C100 0.961 . S
H114 C100 0.961 . S
H115 C101 0.958 . S
H116 C101 0.961 . S
H117 C101 0.960 . S
C118 C119 1.391 . S
C118 C120 1.394 . S
C118 H134 0.931 . S
C119 C118 1.391 . S
C119 C123 1.376 . S
C120 C118 1.394 . S
C120 C121 1.369 . S
C120 C124 1.531 . S
C121 C120 1.369 . S
C121 C122 1.410 . S
C121 C129 1.503 . S
C122 C121 1.410 . S
C122 C123 1.392 . S
C122 C125 1.511 . S
C123 C119 1.376 . S
C123 C122 1.392 . S
C123 H135 0.929 . S
C124 C120 1.531 . S
C124 H136 0.960 . S
C124 H137 0.962 . S
C124 H138 0.960 . S
C125 C122 1.511 . S
C125 H139 0.961 . S
C125 H140 0.961 . S
C125 H141 0.961 1_554 S
C126 C127 1.370 . S
C126 C128 1.363 . S
C126 H142 0.931 . S
C127 C126 1.370 . S
C127 C131 1.408 1_554 S
C128 C126 1.363 . S
C128 C129 1.370 . S
C128 C132 1.524 . S
C129 C121 1.503 . S
C129 C128 1.370 . S
C129 C130 1.403 1_554 S
C130 C129 1.403 1_556 S
C130 C131 1.404 . S
C130 C133 1.539 . S
C131 C127 1.408 1_556 S
C131 C130 1.404 . S
C131 H143 0.930 . S
C132 C128 1.524 . S
C132 H144 0.956 . S
C132 H145 0.961 . S
C132 H146 0.961 . S
C133 C130 1.539 . S
C133 H147 0.958 . S
C133 H148 0.961 . S
C133 H149 0.960 . S
H134 C118 0.931 . S
H135 C123 0.929 . S
H136 C124 0.960 . S
H137 C124 0.962 . S
H138 C124 0.960 . S
H139 C125 0.961 . S
H140 C125 0.961 . S
H141 C125 0.961 1_556 S
H142 C126 0.931 . S
H143 C131 0.930 . S
H144 C132 0.956 . S
H145 C132 0.961 . S
H146 C132 0.961 . S
H147 C133 0.958 . S
H148 C133 0.961 . S
H149 C133 0.960 . S
C150 C151 1.391 . S
C150 C152 1.394 . S
C150 H166 0.931 . S
C151 C150 1.391 . S
C151 C155 1.376 . S
C152 C150 1.394 . S
C152 C153 1.369 . S
C152 C156 1.531 . S
C153 C152 1.369 . S
C153 C154 1.410 . S
C153 C161 1.503 . S
C154 C153 1.410 . S
C154 C155 1.392 . S
C154 C157 1.511 . S
C155 C151 1.376 . S
C155 C154 1.392 . S
C155 H167 0.929 . S
C156 C152 1.531 . S
C156 H168 0.960 . S
C156 H169 0.962 . S
C156 H170 0.960 . S
C157 C154 1.511 . S
C157 H171 0.961 . S
C157 H172 0.961 . S
C157 H173 0.961 . S
C158 C159 1.370 . S
C158 C160 1.363 . S
C158 H174 0.931 . S
C159 C158 1.370 . S
C159 C163 1.408 . S
C160 C158 1.363 . S
C160 C161 1.370 . S
C160 C164 1.524 . S
C161 C153 1.503 . S
C161 C160 1.370 . S
C161 C162 1.403 . S
C162 C161 1.403 . S
C162 C163 1.404 . S
C162 C165 1.539 . S
C163 C159 1.408 . S
C163 C162 1.404 . S
C163 H175 0.930 . S
C164 C160 1.524 . S
C164 H176 0.956 . S
C164 H177 0.961 . S
C164 H178 0.961 . S
C165 C162 1.539 . S
C165 H179 0.958 . S
C165 H180 0.961 . S
C165 H181 0.960 . S
H166 C150 0.931 . S
H167 C155 0.929 . S
H168 C156 0.960 . S
H169 C156 0.962 . S
H170 C156 0.960 . S
H171 C157 0.961 . S
H172 C157 0.961 . S
H173 C157 0.961 . S
H174 C158 0.931 . S
H175 C163 0.930 . S
H176 C164 0.956 . S
H177 C164 0.961 . S
H178 C164 0.961 . S
H179 C165 0.958 . S
H180 C165 0.961 . S
H181 C165 0.960 . S
C182 C183 1.391 . S
C182 C184 1.394 . S
C182 H198 0.931 . S
C183 C182 1.391 . S
C183 C187 1.376 . S
C184 C182 1.394 . S
C184 C185 1.369 . S
C184 C188 1.531 . S
C185 C184 1.369 . S
C185 C186 1.410 . S
C185 C193 1.503 . S
C186 C185 1.410 . S
C186 C187 1.392 . S
C186 C189 1.511 1_554 S
C187 C183 1.376 . S
C187 C186 1.392 . S
C187 H199 0.929 1_554 S
C188 C184 1.531 . S
C188 H200 0.960 . S
C188 H201 0.962 . S
C188 H202 0.960 . S
C189 C186 1.511 1_556 S
C189 H203 0.961 . S
C189 H204 0.961 . S
C189 H205 0.961 1_556 S
C190 C191 1.370 1_556 S
C190 C192 1.363 . S
C190 H206 0.931 . S
C191 C190 1.370 1_554 S
C191 C195 1.408 . S
C192 C190 1.363 . S
C192 C193 1.370 1_556 S
C192 C196 1.524 . S
C193 C185 1.503 . S
C193 C192 1.370 1_554 S
C193 C194 1.403 . S
C194 C193 1.403 . S
C194 C195 1.404 . S
C194 C197 1.539 . S
C195 C191 1.408 . S
C195 C194 1.404 . S
C195 H207 0.930 . S
C196 C192 1.524 . S
C196 H208 0.956 . S
C196 H209 0.961 . S
C196 H210 0.961 . S
C197 C194 1.539 . S
C197 H211 0.958 . S
C197 H212 0.961 . S
C197 H213 0.960 . S
H198 C182 0.931 . S
H199 C187 0.929 1_556 S
H200 C188 0.960 . S
H201 C188 0.962 . S
H202 C188 0.960 . S
H203 C189 0.961 . S
H204 C189 0.961 . S
H205 C189 0.961 1_554 S
H206 C190 0.931 . S
H207 C195 0.930 . S
H208 C196 0.956 . S
H209 C196 0.961 . S
H210 C196 0.961 . S
H211 C197 0.958 . S
H212 C197 0.961 . S
H213 C197 0.960 . S
C214 C215 1.391 . S
C214 C216 1.394 . S
C214 H230 0.931 . S
C215 C214 1.391 . S
C215 C219 1.376 . S
C216 C214 1.394 . S
C216 C217 1.369 . S
C216 C220 1.531 . S
C217 C216 1.369 . S
C217 C218 1.410 . S
C217 C225 1.503 . S
C218 C217 1.410 . S
C218 C219 1.392 . S
C218 C221 1.511 . S
C219 C215 1.376 . S
C219 C218 1.392 . S
C219 H231 0.929 . S
C220 C216 1.531 . S
C220 H232 0.960 . S
C220 H233 0.962 . S
C220 H234 0.960 . S
C221 C218 1.511 . S
C221 H235 0.961 . S
C221 H236 0.961 . S
C221 H237 0.961 . S
C222 C223 1.370 . S
C222 C224 1.363 . S
C222 H238 0.931 . S
C223 C222 1.370 . S
C223 C227 1.408 . S
C224 C222 1.363 . S
C224 C225 1.370 . S
C224 C228 1.524 . S
C225 C217 1.503 . S
C225 C224 1.370 . S
C225 C226 1.403 . S
C226 C225 1.403 . S
C226 C227 1.404 . S
C226 C229 1.539 . S
C227 C223 1.408 . S
C227 C226 1.404 . S
C227 H239 0.930 . S
C228 C224 1.524 . S
C228 H240 0.956 . S
C228 H241 0.961 . S
C228 H242 0.961 . S
C229 C226 1.539 . S
C229 H243 0.958 . S
C229 H244 0.961 . S
C229 H245 0.960 . S
H230 C214 0.931 . S
H231 C219 0.929 . S
H232 C220 0.960 . S
H233 C220 0.962 . S
H234 C220 0.960 . S
H235 C221 0.961 . S
H236 C221 0.961 . S
H237 C221 0.961 . S
H238 C222 0.931 . S
H239 C227 0.930 . S
H240 C228 0.956 . S
H241 C228 0.961 . S
H242 C228 0.961 . S
H243 C229 0.958 . S
H244 C229 0.961 . S
H245 C229 0.960 . S
C246 C247 1.391 . S
C246 C248 1.394 . S
C246 H262 0.931 . S
C247 C246 1.391 . S
C247 C251 1.376 . S
C248 C246 1.394 . S
C248 C249 1.369 . S
C248 C252 1.531 . S
C249 C248 1.369 . S
C249 C250 1.410 . S
C249 C257 1.503 . S
C250 C249 1.410 . S
C250 C251 1.392 . S
C250 C253 1.511 . S
C251 C247 1.376 . S
C251 C250 1.392 . S
C251 H263 0.929 . S
C252 C248 1.531 . S
C252 H264 0.960 . S
C252 H265 0.962 . S
C252 H266 0.960 . S
C253 C250 1.511 . S
C253 H267 0.961 . S
C253 H268 0.961 . S
C253 H269 0.961 . S
C254 C255 1.370 . S
C254 C256 1.363 . S
C254 H270 0.931 . S
C255 C254 1.370 . S
C255 C259 1.408 . S
C256 C254 1.363 . S
C256 C257 1.370 . S
C256 C260 1.524 . S
C257 C249 1.503 . S
C257 C256 1.370 . S
C257 C258 1.403 . S
C258 C257 1.403 . S
C258 C259 1.404 . S
C258 C261 1.539 . S
C259 C255 1.408 . S
C259 C258 1.404 . S
C259 H271 0.930 . S
C260 C256 1.524 . S
C260 H272 0.956 . S
C260 H273 0.961 . S
C260 H274 0.961 . S
C261 C258 1.539 . S
C261 H275 0.958 . S
C261 H276 0.961 . S
C261 H277 0.960 . S
H262 C246 0.931 . S
H263 C251 0.929 . S
H264 C252 0.960 . S
H265 C252 0.962 . S
H266 C252 0.960 . S
H267 C253 0.961 . S
H268 C253 0.961 . S
H269 C253 0.961 . S
H270 C254 0.931 . S
H271 C259 0.930 . S
H272 C260 0.956 . S
H273 C260 0.961 . S
H274 C260 0.961 . S
H275 C261 0.958 . S
H276 C261 0.961 . S
H277 C261 0.960 . S
C278 C279 1.391 . S
C278 C280 1.394 . S
C278 H294 0.931 . S
C279 C278 1.391 . S
C279 C283 1.376 . S
C280 C278 1.394 . S
C280 C281 1.369 . S
C280 C284 1.531 . S
C281 C280 1.369 . S
C281 C282 1.410 . S
C281 C289 1.503 . S
C282 C281 1.410 . S
C282 C283 1.392 . S
C282 C285 1.511 . S
C283 C279 1.376 . S
C283 C282 1.392 . S
C283 H295 0.929 . S
C284 C280 1.531 . S
C284 H296 0.960 . S
C284 H297 0.962 . S
C284 H298 0.960 . S
C285 C282 1.511 . S
C285 H299 0.961 . S
C285 H300 0.961 . S
C285 H301 0.961 . S
C286 C287 1.370 . S
C286 C288 1.363 . S
C286 H302 0.931 . S
C287 C286 1.370 . S
C287 C291 1.408 . S
C288 C286 1.363 . S
C288 C289 1.370 . S
C288 C292 1.524 . S
C289 C281 1.503 . S
C289 C288 1.370 . S
C289 C290 1.403 . S
C290 C289 1.403 . S
C290 C291 1.404 . S
C290 C293 1.539 . S
C291 C287 1.408 . S
C291 C290 1.404 . S
C291 H303 0.930 . S
C292 C288 1.524 . S
C292 H304 0.956 . S
C292 H305 0.961 . S
C292 H306 0.961 . S
C293 C290 1.539 . S
C293 H307 0.958 . S
C293 H308 0.961 . S
C293 H309 0.960 . S
H294 C278 0.931 . S
H295 C283 0.929 . S
H296 C284 0.960 . S
H297 C284 0.962 . S
H298 C284 0.960 . S
H299 C285 0.961 . S
H300 C285 0.961 . S
H301 C285 0.961 . S
H302 C286 0.931 . S
H303 C291 0.930 . S
H304 C292 0.956 . S
H305 C292 0.961 . S
H306 C292 0.961 . S
H307 C293 0.958 . S
H308 C293 0.961 . S
H309 C293 0.960 . S
C310 C311 1.391 . S
C310 C312 1.394 . S
C310 H326 0.931 . S
C311 C310 1.391 . S
C311 C315 1.376 . S
C312 C310 1.394 . S
C312 C313 1.369 . S
C312 C316 1.531 . S
C313 C312 1.369 . S
C313 C314 1.410 . S
C313 C321 1.503 . S
C314 C313 1.410 . S
C314 C315 1.392 . S
C314 C317 1.511 . S
C315 C311 1.376 . S
C315 C314 1.392 . S
C315 H327 0.929 . S
C316 C312 1.531 . S
C316 H328 0.960 . S
C316 H329 0.962 . S
C316 H330 0.960 . S
C317 C314 1.511 . S
C317 H331 0.961 . S
C317 H332 0.961 . S
C317 H333 0.961 . S
C318 C319 1.370 . S
C318 C320 1.363 . S
C318 H334 0.931 . S
C319 C318 1.370 . S
C319 C323 1.408 . S
C320 C318 1.363 . S
C320 C321 1.370 . S
C320 C324 1.524 . S
C321 C313 1.503 . S
C321 C320 1.370 . S
C321 C322 1.403 . S
C322 C321 1.403 . S
C322 C323 1.404 . S
C322 C325 1.539 . S
C323 C319 1.408 . S
C323 C322 1.404 . S
C323 H335 0.930 . S
C324 C320 1.524 . S
C324 H336 0.956 . S
C324 H337 0.961 . S
C324 H338 0.961 . S
C325 C322 1.539 . S
C325 H339 0.958 . S
C325 H340 0.961 . S
C325 H341 0.960 . S
H326 C310 0.931 . S
H327 C315 0.929 . S
H328 C316 0.960 . S
H329 C316 0.962 . S
H330 C316 0.960 . S
H331 C317 0.961 . S
H332 C317 0.961 . S
H333 C317 0.961 . S
H334 C318 0.931 . S
H335 C323 0.930 . S
H336 C324 0.956 . S
H337 C324 0.961 . S
H338 C324 0.961 . S
H339 C325 0.958 . S
H340 C325 0.961 . S
H341 C325 0.960 . S
C342 C343 1.391 . S
C342 C344 1.394 . S
C342 H358 0.931 . S
C343 C342 1.391 . S
C343 C347 1.376 . S
C344 C342 1.394 . S
C344 C345 1.369 . S
C344 C348 1.531 . S
C345 C344 1.369 . S
C345 C346 1.410 . S
C345 C353 1.503 . S
C346 C345 1.410 . S
C346 C347 1.392 . S
C346 C349 1.511 . S
C347 C343 1.376 . S
C347 C346 1.392 . S
C347 H359 0.929 . S
C348 C344 1.531 . S
C348 H360 0.960 . S
C348 H361 0.962 . S
C348 H362 0.960 . S
C349 C346 1.511 . S
C349 H363 0.961 . S
C349 H364 0.961 . S
C349 H365 0.961 . S
C350 C351 1.370 . S
C350 C352 1.363 . S
C350 H366 0.931 . S
C351 C350 1.370 . S
C351 C355 1.408 . S
C352 C350 1.363 . S
C352 C353 1.370 . S
C352 C356 1.524 . S
C353 C345 1.503 . S
C353 C352 1.370 . S
C353 C354 1.403 . S
C354 C353 1.403 . S
C354 C355 1.404 . S
C354 C357 1.539 . S
C355 C351 1.408 . S
C355 C354 1.404 . S
C355 H367 0.930 . S
C356 C352 1.524 . S
C356 H368 0.956 . S
C356 H369 0.961 . S
C356 H370 0.961 . S
C357 C354 1.539 . S
C357 H371 0.958 . S
C357 H372 0.961 . S
C357 H373 0.960 . S
H358 C342 0.931 . S
H359 C347 0.929 . S
H360 C348 0.960 . S
H361 C348 0.962 . S
H362 C348 0.960 . S
H363 C349 0.961 . S
H364 C349 0.961 . S
H365 C349 0.961 . S
H366 C350 0.931 . S
H367 C355 0.930 . S
H368 C356 0.956 . S
H369 C356 0.961 . S
H370 C356 0.961 . S
H371 C357 0.958 . S
H372 C357 0.961 . S
H373 C357 0.960 . S
C374 C375 1.391 . S
C374 C376 1.394 . S
C374 H390 0.931 . S
C375 C374 1.391 . S
C375 C379 1.376 . S
C376 C374 1.394 . S
C376 C377 1.369 . S
C376 C380 1.531 . S
C377 C376 1.369 . S
C377 C378 1.410 . S
C377 C385 1.503 . S
C378 C377 1.410 . S
C378 C379 1.392 . S
C378 C381 1.511 . S
C379 C375 1.376 . S
C379 C378 1.392 . S
C379 H391 0.929 . S
C380 C376 1.531 . S
C380 H392 0.960 . S
C380 H393 0.962 . S
C380 H394 0.960 . S
C381 C378 1.511 . S
C381 H395 0.961 . S
C381 H396 0.961 . S
C381 H397 0.961 . S
C382 C383 1.370 . S
C382 C384 1.363 . S
C382 H398 0.931 . S
C383 C382 1.370 . S
C383 C387 1.408 . S
C384 C382 1.363 . S
C384 C385 1.370 . S
C384 C388 1.524 . S
C385 C377 1.503 . S
C385 C384 1.370 . S
C385 C386 1.403 . S
C386 C385 1.403 . S
C386 C387 1.404 . S
C386 C389 1.539 . S
C387 C383 1.408 . S
C387 C386 1.404 . S
C387 H399 0.930 . S
C388 C384 1.524 . S
C388 H400 0.956 . S
C388 H401 0.961 . S
C388 H402 0.961 . S
C389 C386 1.539 . S
C389 H403 0.958 . S
C389 H404 0.961 . S
C389 H405 0.960 . S
H390 C374 0.931 . S
H391 C379 0.929 . S
H392 C380 0.960 . S
H393 C380 0.962 . S
H394 C380 0.960 . S
H395 C381 0.961 . S
H396 C381 0.961 . S
H397 C381 0.961 . S
H398 C382 0.931 . S
H399 C387 0.930 . S
H400 C388 0.956 . S
H401 C388 0.961 . S
H402 C388 0.961 . S
H403 C389 0.958 . S
H404 C389 0.961 . S
H405 C389 0.960 . S
C406 C407 1.391 . S
C406 C408 1.394 . S
C406 H422 0.931 . S
C407 C406 1.391 . S
C407 C411 1.376 . S
C408 C406 1.394 . S
C408 C409 1.369 . S
C408 C412 1.531 . S
C409 C408 1.369 . S
C409 C410 1.410 . S
C409 C417 1.503 . S
C410 C409 1.410 . S
C410 C411 1.392 . S
C410 C413 1.511 . S
C411 C407 1.376 . S
C411 C410 1.392 . S
C411 H423 0.929 . S
C412 C408 1.531 . S
C412 H424 0.960 . S
C412 H425 0.962 . S
C412 H426 0.960 . S
C413 C410 1.511 . S
C413 H427 0.961 . S
C413 H428 0.961 . S
C413 H429 0.961 . S
C414 C415 1.370 . S
C414 C416 1.363 . S
C414 H430 0.931 . S
C415 C414 1.370 . S
C415 C419 1.408 . S
C416 C414 1.363 . S
C416 C417 1.370 . S
C416 C420 1.524 . S
C417 C409 1.503 . S
C417 C416 1.370 . S
C417 C418 1.403 . S
C418 C417 1.403 . S
C418 C419 1.404 . S
C418 C421 1.539 . S
C419 C415 1.408 . S
C419 C418 1.404 . S
C419 H431 0.930 . S
C420 C416 1.524 . S
C420 H432 0.956 . S
C420 H433 0.961 . S
C420 H434 0.961 . S
C421 C418 1.539 . S
C421 H435 0.958 . S
C421 H436 0.961 . S
C421 H437 0.960 . S
H422 C406 0.931 . S
H423 C411 0.929 . S
H424 C412 0.960 . S
H425 C412 0.962 . S
H426 C412 0.960 . S
H427 C413 0.961 . S
H428 C413 0.961 . S
H429 C413 0.961 . S
H430 C414 0.931 . S
H431 C419 0.930 . S
H432 C420 0.956 . S
H433 C420 0.961 . S
H434 C420 0.961 . S
H435 C421 0.958 . S
H436 C421 0.961 . S
H437 C421 0.960 . S
C438 C439 1.391 . S
C438 C440 1.394 . S
C438 H454 0.931 . S
C439 C438 1.391 . S
C439 C443 1.376 . S
C440 C438 1.394 . S
C440 C441 1.369 . S
C440 C444 1.531 . S
C441 C440 1.369 . S
C441 C442 1.410 . S
C441 C449 1.503 . S
C442 C441 1.410 . S
C442 C443 1.392 . S
C442 C445 1.511 . S
C443 C439 1.376 . S
C443 C442 1.392 . S
C443 H455 0.929 . S
C444 C440 1.531 . S
C444 H456 0.960 . S
C444 H457 0.962 . S
C444 H458 0.960 . S
C445 C442 1.511 . S
C445 H459 0.961 . S
C445 H460 0.961 . S
C445 H461 0.961 . S
C446 C447 1.370 . S
C446 C448 1.363 . S
C446 H462 0.931 . S
C447 C446 1.370 . S
C447 C451 1.408 . S
C448 C446 1.363 . S
C448 C449 1.370 . S
C448 C452 1.524 . S
C449 C441 1.503 . S
C449 C448 1.370 . S
C449 C450 1.403 . S
C450 C449 1.403 . S
C450 C451 1.404 . S
C450 C453 1.539 . S
C451 C447 1.408 . S
C451 C450 1.404 . S
C451 H463 0.930 . S
C452 C448 1.524 . S
C452 H464 0.956 . S
C452 H465 0.961 . S
C452 H466 0.961 . S
C453 C450 1.539 . S
C453 H467 0.958 . S
C453 H468 0.961 . S
C453 H469 0.960 . S
H454 C438 0.931 . S
H455 C443 0.929 . S
H456 C444 0.960 . S
H457 C444 0.962 . S
H458 C444 0.960 . S
H459 C445 0.961 . S
H460 C445 0.961 . S
H461 C445 0.961 . S
H462 C446 0.931 . S
H463 C451 0.930 . S
H464 C452 0.956 . S
H465 C452 0.961 . S
H466 C452 0.961 . S
H467 C453 0.958 . S
H468 C453 0.961 . S
H469 C453 0.960 . S
C95 C59 1.277 . S
C87 C41 1.438 . S
C119 C8 1.435 . S
C127 C83 1.268 1_554 S
C151 C19 1.613 . S
C159 C62 1.419 . S
C183 C30 1.561 . S
C191 C80 1.331 . S
C223 C60 1.496 . S
C215 C5 1.416 . S
C255 C82 1.637 . S
C247 C18 1.646 . S
C279 C29 1.586 . S
C287 C61 1.561 . S
C311 C40 1.581 . S
C319 C81 1.538 . S
C351 C79 1.413 . S
C343 C16 1.316 . S
C383 C58 1.436 . S
C375 C27 1.327 . S
C415 C78 1.333 . S
C407 C38 1.274 . S
C439 C7 1.401 1_556 S
C447 C57 1.355 . S
