# Generated by pormake.
# Topology gar, (4,6)-cn, num edge types: 1
# Building blocks:
#     Node 0, Type 0, BuildingBlock: KUFVIS_clean_sbu_0, # of connection points: 4
#     Node 1, Type 0, BuildingBlock: KUFVIS_clean_sbu_0, # of connection points: 4
#     Node 2, Type 0, BuildingBlock: KUFVIS_clean_sbu_0, # of connection points: 4
#     Node 3, Type 0, BuildingBlock: KUFVIS_clean_sbu_0, # of connection points: 4
#     Node 4, Type 0, BuildingBlock: KUFVIS_clean_sbu_0, # of connection points: 4
#     Node 5, Type 0, BuildingBlock: KUFVIS_clean_sbu_0, # of connection points: 4
#     Node 6, Type 0, BuildingBlock: KUFVIS_clean_sbu_0, # of connection points: 4
#     Node 7, Type 0, BuildingBlock: KUFVIS_clean_sbu_0, # of connection points: 4
#     Node 8, Type 0, BuildingBlock: KUFVIS_clean_sbu_0, # of connection points: 4
#     Node 9, Type 0, BuildingBlock: KUFVIS_clean_sbu_0, # of connection points: 4
#     Node 10, Type 0, BuildingBlock: KUFVIS_clean_sbu_0, # of connection points: 4
#     Node 11, Type 0, BuildingBlock: KUFVIS_clean_sbu_0, # of connection points: 4
#     Node 12, Type 0, BuildingBlock: KUFVIS_clean_sbu_0, # of connection points: 4
#     Node 13, Type 0, BuildingBlock: KUFVIS_clean_sbu_0, # of connection points: 4
#     Node 14, Type 0, BuildingBlock: KUFVIS_clean_sbu_0, # of connection points: 4
#     Node 15, Type 0, BuildingBlock: KUFVIS_clean_sbu_0, # of connection points: 4
#     Node 16, Type 0, BuildingBlock: KUFVIS_clean_sbu_0, # of connection points: 4
#     Node 17, Type 0, BuildingBlock: KUFVIS_clean_sbu_0, # of connection points: 4
#     Node 18, Type 0, BuildingBlock: KUFVIS_clean_sbu_0, # of connection points: 4
#     Node 19, Type 0, BuildingBlock: KUFVIS_clean_sbu_0, # of connection points: 4
#     Node 20, Type 0, BuildingBlock: KUFVIS_clean_sbu_0, # of connection points: 4
#     Node 21, Type 0, BuildingBlock: KUFVIS_clean_sbu_0, # of connection points: 4
#     Node 22, Type 0, BuildingBlock: KUFVIS_clean_sbu_0, # of connection points: 4
#     Node 23, Type 0, BuildingBlock: KUFVIS_clean_sbu_0, # of connection points: 4
#     Node 24, Type 1, BuildingBlock: PAMTOO_clean_sbu_0, # of connection points: 6
#     Node 25, Type 1, BuildingBlock: PAMTOO_clean_sbu_0, # of connection points: 6
#     Node 26, Type 1, BuildingBlock: PAMTOO_clean_sbu_0, # of connection points: 6
#     Node 27, Type 1, BuildingBlock: PAMTOO_clean_sbu_0, # of connection points: 6
#     Node 28, Type 1, BuildingBlock: PAMTOO_clean_sbu_0, # of connection points: 6
#     Node 29, Type 1, BuildingBlock: PAMTOO_clean_sbu_0, # of connection points: 6
#     Node 30, Type 1, BuildingBlock: PAMTOO_clean_sbu_0, # of connection points: 6
#     Node 31, Type 1, BuildingBlock: PAMTOO_clean_sbu_0, # of connection points: 6
#     Node 32, Type 1, BuildingBlock: PAMTOO_clean_sbu_0, # of connection points: 6
#     Node 33, Type 1, BuildingBlock: PAMTOO_clean_sbu_0, # of connection points: 6
#     Node 34, Type 1, BuildingBlock: PAMTOO_clean_sbu_0, # of connection points: 6
#     Node 35, Type 1, BuildingBlock: PAMTOO_clean_sbu_0, # of connection points: 6
#     Node 36, Type 1, BuildingBlock: PAMTOO_clean_sbu_0, # of connection points: 6
#     Node 37, Type 1, BuildingBlock: PAMTOO_clean_sbu_0, # of connection points: 6
#     Node 38, Type 1, BuildingBlock: PAMTOO_clean_sbu_0, # of connection points: 6
#     Node 39, Type 1, BuildingBlock: PAMTOO_clean_sbu_0, # of connection points: 6
#     Edge 40, Type (0, 1), BuildingBlock: OJICUG_clean_linker_0, # of connection points: 2
#     Edge 41, Type (0, 1), BuildingBlock: OJICUG_clean_linker_0, # of connection points: 2
#     Edge 42, Type (0, 1), BuildingBlock: OJICUG_clean_linker_0, # of connection points: 2
#     Edge 43, Type (0, 1), BuildingBlock: OJICUG_clean_linker_0, # of connection points: 2
#     Edge 44, Type (0, 1), BuildingBlock: OJICUG_clean_linker_0, # of connection points: 2
#     Edge 45, Type (0, 1), BuildingBlock: OJICUG_clean_linker_0, # of connection points: 2
#     Edge 46, Type (0, 1), BuildingBlock: OJICUG_clean_linker_0, # of connection points: 2
#     Edge 47, Type (0, 1), BuildingBlock: OJICUG_clean_linker_0, # of connection points: 2
#     Edge 48, Type (0, 1), BuildingBlock: OJICUG_clean_linker_0, # of connection points: 2
#     Edge 49, Type (0, 1), BuildingBlock: OJICUG_clean_linker_0, # of connection points: 2
#     Edge 50, Type (0, 1), BuildingBlock: OJICUG_clean_linker_0, # of connection points: 2
#     Edge 51, Type (0, 1), BuildingBlock: OJICUG_clean_linker_0, # of connection points: 2
#     Edge 52, Type (0, 1), BuildingBlock: OJICUG_clean_linker_0, # of connection points: 2
#     Edge 53, Type (0, 1), BuildingBlock: OJICUG_clean_linker_0, # of connection points: 2
#     Edge 54, Type (0, 1), BuildingBlock: OJICUG_clean_linker_0, # of connection points: 2
#     Edge 55, Type (0, 1), BuildingBlock: OJICUG_clean_linker_0, # of connection points: 2
#     Edge 56, Type (0, 1), BuildingBlock: OJICUG_clean_linker_0, # of connection points: 2
#     Edge 57, Type (0, 1), BuildingBlock: OJICUG_clean_linker_0, # of connection points: 2
#     Edge 58, Type (0, 1), BuildingBlock: OJICUG_clean_linker_0, # of connection points: 2
#     Edge 59, Type (0, 1), BuildingBlock: OJICUG_clean_linker_0, # of connection points: 2
#     Edge 60, Type (0, 1), BuildingBlock: OJICUG_clean_linker_0, # of connection points: 2
#     Edge 61, Type (0, 1), BuildingBlock: OJICUG_clean_linker_0, # of connection points: 2
#     Edge 62, Type (0, 1), BuildingBlock: OJICUG_clean_linker_0, # of connection points: 2
#     Edge 63, Type (0, 1), BuildingBlock: OJICUG_clean_linker_0, # of connection points: 2
#     Edge 64, Type (0, 1), BuildingBlock: OJICUG_clean_linker_0, # of connection points: 2
#     Edge 65, Type (0, 1), BuildingBlock: OJICUG_clean_linker_0, # of connection points: 2
#     Edge 66, Type (0, 1), BuildingBlock: OJICUG_clean_linker_0, # of connection points: 2
#     Edge 67, Type (0, 1), BuildingBlock: OJICUG_clean_linker_0, # of connection points: 2
#     Edge 68, Type (0, 1), BuildingBlock: OJICUG_clean_linker_0, # of connection points: 2
#     Edge 69, Type (0, 1), BuildingBlock: OJICUG_clean_linker_0, # of connection points: 2
#     Edge 70, Type (0, 1), BuildingBlock: OJICUG_clean_linker_0, # of connection points: 2
#     Edge 71, Type (0, 1), BuildingBlock: OJICUG_clean_linker_0, # of connection points: 2
#     Edge 72, Type (0, 1), BuildingBlock: OJICUG_clean_linker_0, # of connection points: 2
#     Edge 73, Type (0, 1), BuildingBlock: OJICUG_clean_linker_0, # of connection points: 2
#     Edge 74, Type (0, 1), BuildingBlock: OJICUG_clean_linker_0, # of connection points: 2
#     Edge 75, Type (0, 1), BuildingBlock: OJICUG_clean_linker_0, # of connection points: 2
#     Edge 76, Type (0, 1), BuildingBlock: OJICUG_clean_linker_0, # of connection points: 2
#     Edge 77, Type (0, 1), BuildingBlock: OJICUG_clean_linker_0, # of connection points: 2
#     Edge 78, Type (0, 1), BuildingBlock: OJICUG_clean_linker_0, # of connection points: 2
#     Edge 79, Type (0, 1), BuildingBlock: OJICUG_clean_linker_0, # of connection points: 2
#     Edge 80, Type (0, 1), BuildingBlock: OJICUG_clean_linker_0, # of connection points: 2
#     Edge 81, Type (0, 1), BuildingBlock: OJICUG_clean_linker_0, # of connection points: 2
#     Edge 82, Type (0, 1), BuildingBlock: OJICUG_clean_linker_0, # of connection points: 2
#     Edge 83, Type (0, 1), BuildingBlock: OJICUG_clean_linker_0, # of connection points: 2
#     Edge 84, Type (0, 1), BuildingBlock: OJICUG_clean_linker_0, # of connection points: 2
#     Edge 85, Type (0, 1), BuildingBlock: OJICUG_clean_linker_0, # of connection points: 2
#     Edge 86, Type (0, 1), BuildingBlock: OJICUG_clean_linker_0, # of connection points: 2
#     Edge 87, Type (0, 1), BuildingBlock: OJICUG_clean_linker_0, # of connection points: 2
#     Edge 88, Type (0, 1), BuildingBlock: OJICUG_clean_linker_0, # of connection points: 2
#     Edge 89, Type (0, 1), BuildingBlock: OJICUG_clean_linker_0, # of connection points: 2
#     Edge 90, Type (0, 1), BuildingBlock: OJICUG_clean_linker_0, # of connection points: 2
#     Edge 91, Type (0, 1), BuildingBlock: OJICUG_clean_linker_0, # of connection points: 2
#     Edge 92, Type (0, 1), BuildingBlock: OJICUG_clean_linker_0, # of connection points: 2
#     Edge 93, Type (0, 1), BuildingBlock: OJICUG_clean_linker_0, # of connection points: 2
#     Edge 94, Type (0, 1), BuildingBlock: OJICUG_clean_linker_0, # of connection points: 2
#     Edge 95, Type (0, 1), BuildingBlock: OJICUG_clean_linker_0, # of connection points: 2
#     Edge 96, Type (0, 1), BuildingBlock: OJICUG_clean_linker_0, # of connection points: 2
#     Edge 97, Type (0, 1), BuildingBlock: OJICUG_clean_linker_0, # of connection points: 2
#     Edge 98, Type (0, 1), BuildingBlock: OJICUG_clean_linker_0, # of connection points: 2
#     Edge 99, Type (0, 1), BuildingBlock: OJICUG_clean_linker_0, # of connection points: 2
#     Edge 100, Type (0, 1), BuildingBlock: OJICUG_clean_linker_0, # of connection points: 2
#     Edge 101, Type (0, 1), BuildingBlock: OJICUG_clean_linker_0, # of connection points: 2
#     Edge 102, Type (0, 1), BuildingBlock: OJICUG_clean_linker_0, # of connection points: 2
#     Edge 103, Type (0, 1), BuildingBlock: OJICUG_clean_linker_0, # of connection points: 2
#     Edge 104, Type (0, 1), BuildingBlock: OJICUG_clean_linker_0, # of connection points: 2
#     Edge 105, Type (0, 1), BuildingBlock: OJICUG_clean_linker_0, # of connection points: 2
#     Edge 106, Type (0, 1), BuildingBlock: OJICUG_clean_linker_0, # of connection points: 2
#     Edge 107, Type (0, 1), BuildingBlock: OJICUG_clean_linker_0, # of connection points: 2
#     Edge 108, Type (0, 1), BuildingBlock: OJICUG_clean_linker_0, # of connection points: 2
#     Edge 109, Type (0, 1), BuildingBlock: OJICUG_clean_linker_0, # of connection points: 2
#     Edge 110, Type (0, 1), BuildingBlock: OJICUG_clean_linker_0, # of connection points: 2
#     Edge 111, Type (0, 1), BuildingBlock: OJICUG_clean_linker_0, # of connection points: 2
#     Edge 112, Type (0, 1), BuildingBlock: OJICUG_clean_linker_0, # of connection points: 2
#     Edge 113, Type (0, 1), BuildingBlock: OJICUG_clean_linker_0, # of connection points: 2
#     Edge 114, Type (0, 1), BuildingBlock: OJICUG_clean_linker_0, # of connection points: 2
#     Edge 115, Type (0, 1), BuildingBlock: OJICUG_clean_linker_0, # of connection points: 2
#     Edge 116, Type (0, 1), BuildingBlock: OJICUG_clean_linker_0, # of connection points: 2
#     Edge 117, Type (0, 1), BuildingBlock: OJICUG_clean_linker_0, # of connection points: 2
#     Edge 118, Type (0, 1), BuildingBlock: OJICUG_clean_linker_0, # of connection points: 2
#     Edge 119, Type (0, 1), BuildingBlock: OJICUG_clean_linker_0, # of connection points: 2
#     Edge 120, Type (0, 1), BuildingBlock: OJICUG_clean_linker_0, # of connection points: 2
#     Edge 121, Type (0, 1), BuildingBlock: OJICUG_clean_linker_0, # of connection points: 2
#     Edge 122, Type (0, 1), BuildingBlock: OJICUG_clean_linker_0, # of connection points: 2
#     Edge 123, Type (0, 1), BuildingBlock: OJICUG_clean_linker_0, # of connection points: 2
#     Edge 124, Type (0, 1), BuildingBlock: OJICUG_clean_linker_0, # of connection points: 2
#     Edge 125, Type (0, 1), BuildingBlock: OJICUG_clean_linker_0, # of connection points: 2
#     Edge 126, Type (0, 1), BuildingBlock: OJICUG_clean_linker_0, # of connection points: 2
#     Edge 127, Type (0, 1), BuildingBlock: OJICUG_clean_linker_0, # of connection points: 2
#     Edge 128, Type (0, 1), BuildingBlock: OJICUG_clean_linker_0, # of connection points: 2
#     Edge 129, Type (0, 1), BuildingBlock: OJICUG_clean_linker_0, # of connection points: 2
#     Edge 130, Type (0, 1), BuildingBlock: OJICUG_clean_linker_0, # of connection points: 2
#     Edge 131, Type (0, 1), BuildingBlock: OJICUG_clean_linker_0, # of connection points: 2
#     Edge 132, Type (0, 1), BuildingBlock: OJICUG_clean_linker_0, # of connection points: 2
#     Edge 133, Type (0, 1), BuildingBlock: OJICUG_clean_linker_0, # of connection points: 2
#     Edge 134, Type (0, 1), BuildingBlock: OJICUG_clean_linker_0, # of connection points: 2
#     Edge 135, Type (0, 1), BuildingBlock: OJICUG_clean_linker_0, # of connection points: 2
# Relax obj value: 0.180
# Max RMSD: 0.281
# Mean RMSD: 0.166
data_MOF--net-gar--node1-KUFVIS_clean_sbu_0--node2-PAMTOO_clean_sbu_0--edge1-OJICUG_clean_linker_0
_symmetry_space_group_name_H-M    P1
_symmetry_Int_Tables_number       1
_symmetry_cell_setting            triclinic
loop_
_symmetry_equiv_pos_as_xyz
'x, y, z'
_cell_length_a     44.452516
_cell_length_b     44.797033
_cell_length_c     43.516486
_cell_angle_alpha  97.739423
_cell_angle_beta   97.030161
_cell_angle_gamma 106.7096
loop_
_atom_site_label
_atom_site_type_symbol
_atom_site_fract_x
_atom_site_fract_y
_atom_site_fract_z
_atom_type_partial_charge
Mn0 Mn 0.07169 0.34843 0.39412 0.0
Mn1 Mn 0.07737 0.39499 0.34048 0.0
C2 C 1.02322 0.35606 0.3696 0.0
C3 C 0.06661 0.30138 0.41437 0.0
C4 C 0.09017 0.42199 0.41135 0.0
O5 O 0.11617 0.34819 0.37987 0.0
O6 O 0.1194 0.38264 0.34695 0.0
C7 C 0.07848 0.34767 0.28614 0.0
N8 N 0.06467 0.36841 0.29978 0.0
C9 C 1.02273 0.35448 0.25484 0.0
C10 C 0.03668 0.33323 0.24032 0.0
C11 C 0.06466 0.3298 0.25607 0.0
C12 C 0.0376 0.37174 0.28485 0.0
H13 H 0.09982 0.34457 0.29803 0.0
C14 C 0.1312 0.36317 0.36014 0.0
O15 O 0.08129 0.32909 0.4309 0.0
O16 O 0.05552 0.30037 0.38501 0.0
N17 N 0.04037 0.40783 0.32974 0.0
C18 C 0.02982 0.4295 0.34671 0.0
C19 C 1.00213 0.43573 0.33407 0.0
C20 C 0.98549 0.41965 0.30413 0.0
C21 C 0.99693 0.39775 0.28693 0.0
C22 C 0.02488 0.39272 0.3006 0.0
H23 H 0.04211 0.44173 0.36988 0.0
O24 O 0.02629 0.3485 0.39728 0.0
O25 O 0.04927 0.35913 0.35685 0.0
O26 O 0.08773 0.39489 0.41878 0.0
O27 O 0.08863 0.42535 0.38239 0.0
C28 C 0.98164 0.38068 0.25676 0.0
C29 C 0.9945 0.35904 0.24074 0.0
H30 H 0.02606 0.31933 0.21714 0.0
H31 H 0.0755 0.31332 0.24508 0.0
H32 H 0.99347 0.45269 0.34752 0.0
H33 H 0.96396 0.42432 0.29457 0.0
H34 H 0.95994 0.384 0.24566 0.0
H35 H 0.98248 0.34599 0.21757 0.0
Mn36 Mn 0.04617 0.7696 0.72335 0.0
Mn37 Mn 0.07233 0.83061 0.78459 0.0
C38 C 0.10286 0.78884 0.74712 0.0
C39 C 0.03197 0.71612 0.69297 0.0
C40 C 0.06089 0.8402 0.71744 0.0
O41 O 1.00144 0.77054 0.73945 0.0
O42 O 1.02319 0.81441 0.77625 0.0
C43 C 0.05043 0.79518 0.83464 0.0
N44 N 0.07452 0.81371 0.8226 0.0
C45 C 0.11297 0.81594 0.86762 0.0
C46 C 0.08854 0.79693 0.8805 0.0
C47 C 0.05716 0.78646 0.86392 0.0
C48 C 0.10486 0.82377 0.83831 0.0
H49 H 0.02624 0.7872 0.8221 0.0
C50 C 0.99796 0.79265 0.76051 0.0
O51 O 0.02558 0.73941 0.682 0.0
O52 O 0.04206 0.72232 0.72321 0.0
N53 N 0.11763 0.8492 0.7963 0.0
C54 C 0.13824 0.86887 0.78157 0.0
C55 C 0.17057 0.88156 0.79516 0.0
C56 C 0.18134 0.87432 0.82406 0.0
C57 C 0.15959 0.85472 0.83924 0.0
C58 C 0.12765 0.84264 0.82444 0.0
H59 H 0.13017 0.87466 0.75951 0.0
O60 O 0.09256 0.77505 0.71814 0.0
O61 O 0.07941 0.7919 0.762 0.0
O62 O 0.04823 0.81081 0.70639 0.0
O63 O 0.07231 0.85073 0.74654 0.0
C64 C 0.1683 0.84701 0.86865 0.0
C65 C 0.14501 0.82765 0.88284 0.0
H66 H 0.09359 0.79029 0.90314 0.0
H67 H 0.03817 0.77183 0.87375 0.0
H68 H 0.18712 0.89691 0.78341 0.0
H69 H 0.20626 0.88414 0.83453 0.0
H70 H 0.19281 0.85602 0.88066 0.0
H71 H 0.15195 0.82205 0.90557 0.0
Mn72 Mn 0.57045 0.85188 0.89492 0.0
Mn73 Mn 0.57646 0.89843 0.84128 0.0
C74 C 0.52146 0.85828 0.86922 0.0
C75 C 0.56547 0.80565 0.91716 0.0
C76 C 0.5881 0.92555 0.91203 0.0
O77 O 0.61579 0.85242 0.88141 0.0
O78 O 0.6183 0.88549 0.8471 0.0
C79 C 0.57682 0.85179 0.78606 0.0
N80 N 0.56329 0.87243 0.80034 0.0
C81 C 0.52136 0.85993 0.75557 0.0
C82 C 0.53505 0.8388 0.74037 0.0
C83 C 0.56286 0.83469 0.75571 0.0
C84 C 0.53637 0.87641 0.78581 0.0
H85 H 0.59806 0.84824 0.79766 0.0
C86 C 0.63053 0.86664 0.86096 0.0
O87 O 0.57973 0.83383 0.93267 0.0
O88 O 0.55555 0.80351 0.88726 0.0
N89 N 0.53968 0.91181 0.8314 0.0
C90 C 0.52944 0.93333 0.84903 0.0
C91 C 0.50184 0.94003 0.83695 0.0
C92 C 0.48502 0.92465 0.80687 0.0
C93 C 0.49617 0.90293 0.789 0.0
C94 C 0.52398 0.89733 0.80217 0.0
H95 H 0.54196 0.94522 0.87225 0.0
O96 O 0.52444 0.85081 0.89692 0.0
O97 O 0.548 0.86199 0.85705 0.0
O98 O 0.58456 0.89831 0.91944 0.0
O99 O 0.58845 0.92897 0.88324 0.0
C100 C 0.48075 0.88663 0.75861 0.0
C101 C 0.49332 0.86515 0.74191 0.0
H102 H 0.52433 0.82551 0.71696 0.0
H103 H 0.57349 0.81831 0.74419 0.0
H104 H 0.49343 0.95686 0.8509 0.0
H105 H 0.4636 0.92973 0.79772 0.0
H106 H 0.45918 0.89045 0.74786 0.0
H107 H 0.48122 0.85273 0.71856 0.0
Mn108 Mn 0.5485 0.26948 0.2281 0.0
Mn109 Mn 0.48776 0.25393 0.16639 0.0
C110 C 0.52712 0.21732 0.19559 0.0
C111 C 0.60691 0.28149 0.2475 0.0
C112 C 0.47753 0.2728 0.2346 0.0
O113 O 0.55429 0.31277 0.21402 0.0
O114 O 0.5152 0.29866 0.17087 0.0
C115 C 0.52006 0.26022 0.11089 0.0
N116 N 0.49987 0.24193 0.12703 0.0
C117 C 0.48748 0.19653 0.08574 0.0
C118 C 0.50844 0.21478 0.06888 0.0
C119 C 0.52469 0.24679 0.08145 0.0
C120 C 0.48342 0.21133 0.11472 0.0
H121 H 0.53259 0.28483 0.12042 0.0
C122 C 0.53936 0.31879 0.18947 0.0
O123 O 0.58712 0.28725 0.26537 0.0
O124 O 0.59323 0.26975 0.21874 0.0
N125 N 0.46147 0.2108 0.16058 0.0
C126 C 0.44335 0.19609 0.18052 0.0
C127 C 0.42626 0.16372 0.17189 0.0
C128 C 0.42818 0.14677 0.14298 0.0
C129 C 0.44719 0.16237 0.12295 0.0
C130 C 0.46345 0.19473 0.13269 0.0
H131 H 0.44212 0.20888 0.20296 0.0
O132 O 0.5391 0.22107 0.22517 0.0
O133 O 0.52401 0.2434 0.18794 0.0
O134 O 0.50583 0.27349 0.24798 0.0
O135 O 0.47008 0.26584 0.20465 0.0
C136 C 0.45112 0.14693 0.09401 0.0
C137 C 0.47113 0.16403 0.07534 0.0
H138 H 0.51238 0.20441 0.04636 0.0
H139 H 0.54083 0.26105 0.06854 0.0
H140 H 0.41182 0.15181 0.18758 0.0
H141 H 0.41516 0.12174 0.13651 0.0
H142 H 0.43904 0.12186 0.08599 0.0
H143 H 0.47413 0.15185 0.05323 0.0
Mn144 Mn 0.11375 0.83562 0.14249 0.0
Mn145 Mn 0.05361 0.80906 0.08034 0.0
C146 C 0.09516 0.77969 0.11845 0.0
C147 C 0.16703 0.85054 0.17323 0.0
C148 C 0.0421 0.82018 0.14713 0.0
O149 O 0.11303 0.8796 0.12641 0.0
O150 O 0.06956 0.85753 0.08912 0.0
C151 C 0.09069 0.83119 0.03115 0.0
N152 N 0.07169 0.80713 0.04272 0.0
C153 C 0.07088 0.76906 0.99769 0.0
C154 C 0.09033 0.79346 0.98526 0.0
C155 C 0.10031 0.82464 1.00209 0.0
C156 C 0.06199 0.77702 0.02672 0.0
H157 H 0.09836 0.85521 0.0439 0.0
C158 C 0.09113 0.88261 0.10507 0.0
O159 O 0.14322 0.85653 0.18411 0.0
O160 O 0.16138 0.84029 0.14298 0.0
N161 N 0.03546 0.76405 0.06829 0.0
C162 C 1.01608 0.74328 0.0831 0.0
C163 C 1.00474 0.71097 0.0697 0.0
C164 C 1.01291 0.70045 0.04092 0.0
C165 C 0.03184 0.72239 0.02555 0.0
C166 C 0.04277 0.75425 0.04022 0.0
H167 H 1.00992 0.75116 0.10533 0.0
O168 O 0.10846 0.78982 0.14758 0.0
O169 O 0.09232 0.8028 0.10358 0.0
O170 O 0.07156 0.83291 0.15856 0.0
O171 O 0.03224 0.80903 0.11787 0.0
C172 C 0.04055 0.71381 0.99637 0.0
C173 C 0.05995 0.73716 0.98239 0.0
H174 H 0.09778 0.78852 0.96285 0.0
H175 H 0.11531 0.84361 0.99264 0.0
H176 H 0.99007 0.69423 0.08174 0.0
H177 H 1.00479 0.67548 0.03084 0.0
H178 H 0.03241 0.68934 0.98447 0.0
H179 H 0.06639 0.73032 0.95988 0.0
Mn180 Mn 0.51357 0.79268 0.48113 0.0
Mn181 Mn 0.51865 0.84155 0.42589 0.0
C182 C 0.46539 0.79405 0.44657 0.0
C183 C 0.51945 0.74135 0.49866 0.0
C184 C 0.53074 0.86791 0.49574 0.0
O185 O 0.56076 0.80498 0.47308 0.0
O186 O 0.55579 0.82625 0.42895 0.0
C187 C 0.51489 0.80034 0.36539 0.0
N188 N 0.50381 0.82091 0.38316 0.0
C189 C 0.47179 0.82782 0.33751 0.0
C190 C 0.48252 0.8064 0.3187 0.0
C191 C 0.50401 0.79246 0.33273 0.0
C192 C 0.48307 0.83437 0.36989 0.0
H193 H 0.53219 0.79043 0.37605 0.0
C194 C 0.57128 0.81533 0.4489 0.0
O195 O 0.52443 0.76809 0.51732 0.0
O196 O 0.50985 0.74372 0.46984 0.0
N197 N 0.48377 0.85812 0.42093 0.0
C198 C 0.47307 0.87536 0.44285 0.0
C199 C 0.45076 0.89014 0.43306 0.0
C200 C 0.43989 0.88711 0.40087 0.0
C201 C 0.45026 0.86834 0.37874 0.0
C202 C 0.47245 0.85409 0.38996 0.0
H203 H 0.48135 0.87795 0.46757 0.0
O204 O 0.46381 0.78246 0.47247 0.0
O205 O 0.49441 0.80377 0.44155 0.0
O206 O 0.51993 0.84097 0.50509 0.0
O207 O 0.5356 0.86855 0.46765 0.0
C208 C 0.43937 0.86305 0.34609 0.0
C209 C 0.45013 0.84274 0.32548 0.0
H210 H 0.47437 0.80044 0.2935 0.0
H211 H 0.51254 0.77606 0.31832 0.0
H212 H 0.44231 0.90418 0.45021 0.0
H213 H 0.42366 0.89931 0.39356 0.0
H214 H 0.42235 0.87401 0.33666 0.0
H215 H 0.44144 0.83849 0.30047 0.0
Mn216 Mn 0.61334 0.33547 0.64284 0.0
Mn217 Mn 0.55323 0.30843 0.58059 0.0
C218 C 0.5948 0.27942 0.61901 0.0
C219 C 0.66664 0.3504 0.67365 0.0
C220 C 0.54177 0.32044 0.64727 0.0
O221 O 0.61266 0.37929 0.62652 0.0
O222 O 0.56945 0.35696 0.58894 0.0
C223 C 0.58992 0.32979 0.53094 0.0
N224 N 0.57088 0.30598 0.54277 0.0
C225 C 0.56801 0.26777 0.49706 0.0
C226 C 0.5875 0.29192 0.48437 0.0
C227 C 0.59856 0.32304 0.50142 0.0
C228 C 0.56021 0.27591 0.52659 0.0
H229 H 0.59829 0.35379 0.54381 0.0
C230 C 0.59093 0.38215 0.6049 0.0
O231 O 0.64287 0.35656 0.68446 0.0
O232 O 0.66095 0.33995 0.64344 0.0
N233 N 0.5348 0.26336 0.56892 0.0
C234 C 0.51588 0.24276 0.58423 0.0
C235 C 0.50331 0.21055 0.57056 0.0
C236 C 0.5099 0.1999 0.54104 0.0
C237 C 0.52892 0.22159 0.52545 0.0
C238 C 0.54102 0.25338 0.54038 0.0
H239 H 0.51098 0.25068 0.60701 0.0
O240 O 0.60794 0.28972 0.64816 0.0
O241 O 0.59197 0.30239 0.60396 0.0
O242 O 0.57116 0.33322 0.65886 0.0
O243 O 0.53202 0.30883 0.61812 0.0
C244 C 0.53644 0.21288 0.49572 0.0
C245 C 0.55591 0.23597 0.4815 0.0
H246 H 0.5941 0.28685 0.46154 0.0
H247 H 0.61357 0.34182 0.49175 0.0
H248 H 0.48871 0.19398 0.58282 0.0
H249 H 0.5004 0.17504 0.53061 0.0
H250 H 0.52736 0.1885 0.48357 0.0
H251 H 0.56145 0.22901 0.45858 0.0
Mn252 Mn 1.01318 0.29256 0.98074 0.0
Mn253 Mn 1.01698 0.34153 0.92535 0.0
C254 C 0.96451 0.29352 0.94658 0.0
C255 C 1.01956 0.24156 0.99857 0.0
C256 C 0.02897 0.36773 0.99539 0.0
O257 O 0.06038 0.30546 0.97273 0.0
O258 O 0.05523 0.32813 0.92959 0.0
C259 C 1.01547 0.30001 0.86574 0.0
N260 N 1.00338 0.32023 0.88272 0.0
C261 C 0.97113 0.32511 0.83618 0.0
C262 C 0.98297 0.3041 0.81817 0.0
C263 C 1.00507 0.29133 0.83304 0.0
C264 C 0.98205 0.33255 0.86865 0.0
H265 H 0.03317 0.29097 0.87707 0.0
C266 C 0.07105 0.31723 0.94925 0.0
O267 O 0.02452 0.26838 0.01707 0.0
O268 O 1.00977 0.24366 0.96971 0.0
N269 N 0.98128 0.35667 0.91915 0.0
C270 C 0.96981 0.37383 0.94042 0.0
C271 C 0.94605 0.38661 0.92979 0.0
C272 C 0.9349 0.38205 0.89743 0.0
C273 C 0.94713 0.36452 0.87597 0.0
C274 C 0.97034 0.35186 0.88801 0.0
H275 H 0.97847 0.37759 0.96527 0.0
O276 O 0.96341 0.28203 0.97255 0.0
O277 O 0.99341 0.30345 0.94117 0.0
O278 O 1.01956 0.34066 1.00483 0.0
O279 O 0.03225 0.36889 0.96697 0.0
C280 C 0.93673 0.35852 0.84321 0.0
C281 C 0.94869 0.33875 0.82331 0.0
H282 H 0.97517 0.29751 0.79294 0.0
H283 H 1.01442 0.27521 0.81925 0.0
H284 H 0.93646 0.4 0.94642 0.0
H285 H 0.91651 0.39148 0.88936 0.0
H286 H 0.9191 0.3685 0.83319 0.0
H287 H 0.9402 0.3338 0.7982 0.0
Mn288 Mn 0.42708 0.06134 0.3412 0.0
Mn289 Mn 0.37366 0.04438 0.38973 0.0
C290 C 0.4117 1.01243 0.35474 0.0
C291 C 0.43919 0.06102 0.29184 0.0
C292 C 0.44313 0.08316 0.4115 0.0
O293 O 0.40657 0.09552 0.33893 0.0
O294 O 0.36998 0.0814 0.3705 0.0
C295 C 0.31401 0.0247 0.34303 0.0
N296 N 0.33362 0.01774 0.36565 0.0
C297 C 0.29784 0.96468 0.35969 0.0
C298 C 0.27752 0.97126 0.3361 0.0
C299 C 0.28561 1.00144 0.32782 0.0
C300 C 0.32586 0.98884 0.37403 0.0
H301 H 0.31988 0.04785 0.33672 0.0
C302 C 0.38327 0.09882 0.35176 0.0
O303 O 0.45888 0.08003 0.31584 0.0
O304 O 0.41158 0.0442 0.29633 0.0
N305 N 0.37426 1.00796 0.40848 0.0
C306 C 0.3969 1.00469 0.43075 0.0
C307 C 0.3919 0.97614 0.44228 0.0
C308 C 0.36382 0.95099 0.43055 0.0
C309 C 0.34102 0.95463 0.40732 0.0
C310 C 0.34708 0.98385 0.39709 0.0
H311 H 0.41895 0.02335 0.43908 0.0
O312 O 0.43901 0.02243 0.34569 0.0
O313 O 0.39503 0.03176 0.35638 0.0
O314 O 0.45102 0.08238 0.38448 0.0
O315 O 0.41473 0.07045 0.41621 0.0
C316 C 0.3129 0.9301 0.39335 0.0
C317 C 0.29141 0.93506 0.36942 0.0
H318 H 0.25561 0.95336 0.32427 0.0
H319 H 0.26995 1.0068 0.30978 0.0
H320 H 0.40994 0.97332 0.45976 0.0
H321 H 0.3603 0.9288 0.43905 0.0
H322 H 0.30778 0.90725 0.40065 0.0
H323 H 0.27001 0.91591 0.35866 0.0
Mn324 Mn 0.28203 0.2359 0.54752 0.0
Mn325 Mn 0.26224 0.17202 0.48879 0.0
C326 C 0.22881 0.20385 0.52998 0.0
C327 C 0.29196 0.25654 0.60342 0.0
C328 C 0.28759 0.2398 0.47704 0.0
O329 O 0.32363 0.2239 0.5484 0.0
O330 O 0.30558 0.17889 0.5115 0.0
C331 C 0.26014 0.11924 0.5235 0.0
N332 N 0.24514 0.13332 0.50344 0.0
C333 C 0.19661 0.08965 0.49467 0.0
C334 C 0.21152 0.07473 0.51534 0.0
C335 C 0.24341 0.08959 0.5298 0.0
C336 C 0.21455 0.11907 0.4891 0.0
H337 H 0.2847 0.13052 0.53453 0.0
C338 C 0.32721 0.19894 0.53279 0.0
O339 O 0.30127 0.27446 0.58307 0.0
O340 O 0.27861 0.22691 0.59162 0.0
N341 N 0.22008 0.16395 0.46627 0.0
C342 C 0.20865 0.18245 0.44855 0.0
C343 C 0.17673 0.17162 0.43341 0.0
C344 C 0.15694 0.14188 0.43658 0.0
C345 C 0.16922 0.12331 0.45501 0.0
C346 C 0.20123 0.13536 0.46955 0.0
H347 H 0.2237 0.20536 0.44608 0.0
O348 O 0.23503 0.23331 0.54295 0.0
O349 O 0.25353 0.19563 0.52545 0.0
O350 O 0.28889 0.25443 0.50514 0.0
O351 O 0.27876 0.2097 0.4703 0.0
C352 C 0.15078 0.09364 0.46011 0.0
C353 C 0.16449 0.07678 0.47984 0.0
H354 H 0.19865 0.05195 0.52041 0.0
H355 H 0.25507 0.07818 0.54575 0.0
H356 H 0.1674 0.18618 0.41938 0.0
H357 H 0.13228 0.13368 0.42501 0.0
H358 H 0.12593 0.08375 0.44926 0.0
H359 H 0.14998 0.05415 0.48383 0.0
Mn360 Mn 0.14469 0.09079 0.81309 0.0
Mn361 Mn 0.20797 0.1126 0.87266 0.0
C362 C 0.17566 0.14401 0.83036 0.0
C363 C 0.12365 0.08041 0.75748 0.0
C364 C 0.13947 0.08774 0.88408 0.0
O365 O 0.15808 0.05021 0.81212 0.0
O366 O 0.20089 0.06846 0.85163 0.0
C367 C 0.26163 0.11144 0.83885 0.0
N368 N 0.24739 0.12778 0.85789 0.0
C369 C 0.29206 0.17526 0.8653 0.0
C370 C 0.30714 0.15894 0.84569 0.0
C371 C 0.29187 0.1269 0.83244 0.0
C372 C 0.26213 0.1585 0.8712 0.0
H373 H 0.25006 0.08678 0.82872 0.0
C374 C 0.18225 0.04688 0.8293 0.0
O375 O 0.10596 0.07072 0.77804 0.0
O376 O 0.15345 0.0943 0.76879 0.0
N377 N 0.2165 0.15549 0.89323 0.0
C378 C 0.19731 0.16861 0.90883 0.0
C379 C 0.20832 0.20093 0.92223 0.0
C380 C 0.23881 0.2195 0.91919 0.0
C381 C 0.25786 0.20563 0.90243 0.0
C382 C 0.24565 0.17325 0.8897 0.0
H383 H 0.17354 0.15468 0.91049 0.0
O384 O 0.14587 0.13696 0.81781 0.0
O385 O 0.18494 0.12004 0.83499 0.0
O386 O 0.12556 0.0837 0.85529 0.0
O387 O 0.16968 0.09822 0.89178 0.0
C388 C 0.28808 0.22287 0.89707 0.0
C389 C 0.30524 0.20765 0.87865 0.0
H390 H 0.33034 0.17084 0.84046 0.0
H391 H 0.30339 0.11415 0.81732 0.0
H392 H 0.1932 0.21157 0.93458 0.0
H393 H 0.2471 0.2445 0.92928 0.0
H394 H 0.29814 0.24794 0.9066 0.0
H395 H 0.3283 0.22124 0.8744 0.0
Mn396 Mn 0.32795 0.95346 0.02874 0.0
Mn397 Mn 0.33485 1.00173 0.9751 0.0
C398 C 0.37523 0.9732 0.01224 0.0
C399 C 0.32958 0.94266 0.0786 0.0
C400 C 0.30426 0.93117 0.95923 0.0
O401 O 0.28984 0.96844 0.03058 0.0
O402 O 0.29689 1.00071 0.99461 0.0
C403 C 0.34747 0.06255 0.01851 0.0
N404 N 0.35671 0.04425 0.99625 0.0
C405 C 0.40565 0.08586 0.99814 0.0
C406 C 0.39637 0.10527 0.02068 0.0
C407 C 0.36726 0.09351 0.03105 0.0
C408 C 0.38481 0.0553 0.98627 0.0
H409 H 0.32518 0.05364 0.02668 0.0
C410 C 0.28201 0.9882 0.01541 0.0
O411 O 0.31262 0.92183 0.05448 0.0
O412 O 0.34459 0.97081 0.07398 0.0
N413 N 0.37174 1.00521 0.95544 0.0
C414 C 0.37754 0.98326 0.93405 0.0
C415 C 0.40611 0.9911 0.92189 0.0
C416 C 0.42836 0.02142 0.93175 0.0
C417 C 0.42174 0.04373 0.95354 0.0
C418 C 0.39271 0.03468 0.96457 0.0
H419 H 0.3606 0.95987 0.92648 0.0
O420 O 0.36974 0.9472 0.0237 0.0
O421 O 0.35289 0.98633 1.01054 0.0
O422 O 0.30803 0.92628 0.98708 0.0
O423 O 0.31311 0.95841 0.95139 0.0
C424 C 0.443 0.07442 0.96505 0.0
C425 C 0.43495 0.09548 0.98733 0.0
H426 H 0.41145 0.12921 0.03026 0.0
H427 H 0.3601 0.10827 0.04868 0.0
H428 H 0.41105 0.97377 0.90508 0.0
H429 H 0.4505 0.02727 0.92257 0.0
H430 H 0.46571 0.082 0.95711 0.0
H431 H 0.45159 0.11892 0.99618 0.0
Mn432 Mn 0.33309 0.3991 0.07372 0.0
Mn433 Mn 0.34487 0.45488 0.02598 0.0
C434 C 0.38506 0.431 0.07099 0.0
C435 C 0.32261 0.3823 0.12347 0.0
C436 C 0.32553 0.38425 1.00061 0.0
O437 O 0.28938 0.4074 0.06532 0.0
O438 O 0.30295 0.44843 0.03912 0.0
C439 C 0.34744 0.5122 0.07027 0.0
N440 N 0.36091 0.49709 0.04926 0.0
C441 C 0.4033 0.54509 0.05048 0.0
C442 C 0.3899 0.5612 0.07217 0.0
C443 C 0.36197 0.54463 0.08224 0.0
C444 C 0.38799 0.51272 0.03969 0.0
H445 H 0.32568 0.49961 0.07763 0.0
C446 C 0.2834 0.42988 0.05263 0.0
O447 O 0.31543 0.36275 0.09691 0.0
O448 O 0.33566 0.41171 0.12129 0.0
N449 N 0.38484 0.46376 1.01124 0.0
C450 C 0.39543 0.44449 0.99118 0.0
C451 C 0.42349 0.45724 0.97937 0.0
C452 C 0.44009 0.48975 0.98782 0.0
C453 C 0.42854 0.50918 1.00818 0.0
C454 C 0.40053 0.49511 0.01934 0.0
H455 H 0.38253 0.41961 0.98407 0.0
O456 O 0.38054 0.40412 0.08079 0.0
O457 O 0.35947 0.43829 0.06294 0.0
O458 O 0.32751 0.37478 0.02719 0.0
O459 O 0.329 0.41306 0.99847 0.0
C460 C 0.44384 0.54193 0.01805 0.0
C461 C 0.43132 0.55984 0.03931 0.0
H462 H 0.40092 0.58625 0.08131 0.0
H463 H 0.35149 0.55691 0.09896 0.0
H464 H 0.43216 0.44208 0.96358 0.0
H465 H 0.46172 0.49952 0.97866 0.0
H466 H 0.46545 0.55349 1.00971 0.0
H467 H 0.44349 0.58492 0.04704 0.0
Mn468 Mn 0.81055 0.19141 0.1003 0.0
Mn469 Mn 0.76743 0.13226 0.04061 0.0
C470 C 0.75655 0.17009 0.09732 0.0
C471 C 0.83922 0.2138 0.14943 0.0
C472 C 0.78974 0.20018 0.03422 0.0
O473 O 0.84451 0.17528 0.08493 0.0
O474 O 0.81317 0.13812 0.04452 0.0
C475 C 0.78039 0.07957 0.06874 0.0
N476 N 0.75934 0.09281 0.05519 0.0
C477 C 0.71514 0.04658 0.05458 0.0
C478 C 0.7363 0.03237 0.0685 0.0
C479 C 0.76905 0.04903 0.07581 0.0
C480 C 0.72775 0.0773 0.04877 0.0
H481 H 0.80561 0.09218 0.074 0.0
C482 C 0.84023 0.15411 0.06088 0.0
O483 O 0.84247 0.22884 0.12607 0.0
O484 O 0.82176 0.18414 0.14338 0.0
N485 N 0.72232 0.12333 0.03291 0.0
C486 C 0.70528 0.14015 0.01878 0.0
C487 C 0.67248 0.12635 1.00831 0.0
C488 C 0.65764 0.09525 0.01208 0.0
C489 C 0.67554 0.07831 0.02668 0.0
C490 C 0.70826 0.09317 0.03617 0.0
H491 H 0.71673 0.16359 0.01473 0.0
O492 O 0.77112 0.19883 0.11205 0.0
O493 O 0.77358 0.15454 0.08429 0.0
O494 O 0.80556 0.21048 0.06163 0.0
O495 O 0.77357 0.17147 0.02366 0.0
C496 C 0.66241 0.04716 0.03175 0.0
C497 C 0.68208 0.03144 0.04606 0.0
H498 H 0.72768 1.00868 0.07364 0.0
H499 H 0.78554 0.03824 0.08657 0.0
H500 H 0.65882 0.13936 0.9967 0.0
H501 H 0.6327 0.08456 1.003 0.0
H502 H 0.63725 0.03508 0.02498 0.0
H503 H 0.67158 1.00759 0.05008 0.0
Mn504 Mn 0.19398 0.57608 0.25654 0.0
Mn505 Mn 0.25774 0.61651 0.31226 0.0
C506 C 0.21579 0.62942 0.26004 0.0
C507 C 0.1698 0.54816 0.20779 0.0
C508 C 0.19111 0.59749 0.3253 0.0
O509 O 0.20926 0.54111 0.26894 0.0
O510 O 0.24944 0.57065 0.3074 0.0
C511 C 0.30512 0.59979 0.2767 0.0
N512 N 0.29495 0.62203 0.29312 0.0
C513 C 0.34186 0.66368 0.28943 0.0
C514 C 0.353 0.64124 0.27264 0.0
C515 C 0.33443 0.60917 0.26606 0.0
C516 C 0.31221 0.65298 0.29888 0.0
H517 H 0.291 0.57511 0.27185 0.0
C518 C 0.23139 0.54424 0.29147 0.0
O519 O 0.15509 0.54528 0.23172 0.0
O520 O 0.19969 0.56507 0.21295 0.0
N521 N 0.26959 0.66157 0.32088 0.0
C522 C 0.2555 0.68007 0.33761 0.0
C523 C 0.27157 0.71248 0.34754 0.0
C524 C 0.30205 0.72538 0.34044 0.0
C525 C 0.3161 0.70599 0.32316 0.0
C526 C 0.29919 0.67378 0.31443 0.0
H527 H 0.2323 0.67011 0.34361 0.0
O528 O 0.18638 0.61551 0.24679 0.0
O529 O 0.23196 0.61192 0.27076 0.0
O530 O 0.17834 0.58206 0.29786 0.0
O531 O 0.22072 0.61245 0.33342 0.0
C532 C 0.34614 0.71733 0.31422 0.0
C533 C 0.35893 0.69625 0.29714 0.0
H534 H 0.37573 0.64835 0.26465 0.0
H535 H 0.3428 0.59172 0.25301 0.0
H536 H 0.26061 0.72742 0.36082 0.0
H537 H 0.31439 0.75018 0.34831 0.0
H538 H 0.35933 0.74226 0.31993 0.0
H539 H 0.38195 0.70531 0.29019 0.0
Mn540 Mn 0.83454 0.90041 0.57408 0.0
Mn541 Mn 0.8476 0.95858 0.52945 0.0
C542 C 0.88675 0.9316 0.57213 0.0
C543 C 0.82427 0.88403 0.62392 0.0
C544 C 0.82693 0.8883 0.50095 0.0
O545 O 0.79117 0.90922 0.56616 0.0
O546 O 0.80587 0.95227 0.54291 0.0
C547 C 0.85157 0.01483 0.57602 0.0
N548 N 0.8645 1.00012 0.55415 0.0
C549 C 0.90712 0.04808 0.55597 0.0
C550 C 0.89432 0.06379 0.57855 0.0
C551 C 0.86655 0.04704 0.58878 0.0
C552 C 0.89145 0.01589 0.54448 0.0
H553 H 0.82988 1.00213 0.58342 0.0
C554 C 0.78582 0.93276 0.55511 0.0
O555 O 0.8166 0.86415 0.59746 0.0
O556 O 0.83753 0.91322 0.62144 0.0
N557 N 0.88738 0.96742 0.5144 0.0
C558 C 0.89745 0.94848 0.49347 0.0
C559 C 0.92533 0.9614 0.48145 0.0
C560 C 0.94222 0.99379 0.49054 0.0
C561 C 0.9312 1.01289 0.51179 0.0
C562 C 0.90343 0.99863 0.52321 0.0
H563 H 0.88428 0.92372 0.48582 0.0
O564 O 0.88165 0.90425 0.58097 0.0
O565 O 0.8616 0.9398 0.56472 0.0
O566 O 0.82865 0.87716 0.52672 0.0
O567 O 0.83107 0.91763 0.50087 0.0
C568 C 0.94678 0.0455 0.52226 0.0
C569 C 0.93487 0.06305 0.54448 0.0
H570 H 0.90565 0.08869 0.58825 0.0
H571 H 0.85652 0.05903 0.60617 0.0
H572 H 0.93359 0.9465 0.46497 0.0
H573 H 0.96369 1.00371 0.48117 0.0
H574 H 0.96812 0.05719 0.5136 0.0
H575 H 0.94724 0.08802 0.55267 0.0
Mn576 Mn 0.97737 0.03918 0.28771 0.0
Mn577 Mn 0.922 0.02695 0.33688 0.0
C578 C 0.94457 0.98762 0.28928 0.0
C579 C 0.99316 0.04956 0.23742 0.0
C580 C 0.993 0.04419 0.36078 0.0
O581 O 0.97061 0.08308 0.29824 0.0
O582 O 0.93128 0.06988 0.32707 0.0
C583 C 0.8657 0.02991 0.29486 0.0
N584 N 0.87958 0.01419 0.31401 0.0
C585 C 0.82959 0.97375 0.31111 0.0
C586 C 0.81473 0.98946 0.29129 0.0
C587 C 0.8329 0.01757 0.28301 0.0
C588 C 0.86239 0.98698 0.32188 0.0
H589 H 0.87954 0.05182 0.28894 0.0
C590 C 0.94978 0.08964 0.31372 0.0
O591 O 1.01338 0.05628 0.26344 0.0
O592 O 0.9637 0.03725 0.24052 0.0
N593 N 0.9106 0.98611 0.34881 0.0
C594 C 0.92873 0.97348 0.36752 0.0
C595 C 0.91427 0.94513 0.37768 0.0
C596 C 0.88124 0.93041 0.36904 0.0
C597 C 0.86302 0.94411 0.35015 0.0
C598 C 0.87878 0.97228 0.3406 0.0
H599 H 0.95402 0.98499 0.37478 0.0
O600 O 0.97152 0.99196 0.27906 0.0
O601 O 0.9378 1.01318 0.2987 0.0
O602 O 1.00238 0.04415 0.33389 0.0
O603 O 0.96398 0.03944 0.36371 0.0
C604 C 0.82987 0.93082 0.34026 0.0
C605 C 0.81318 0.94549 0.32058 0.0
H606 H 0.7894 0.98015 0.28228 0.0
H607 H 0.82158 0.02986 0.26779 0.0
H608 H 0.9285 0.93481 0.39237 0.0
H609 H 0.87015 0.90856 0.37695 0.0
H610 H 0.81706 0.90919 0.34746 0.0
H611 H 0.78775 0.9348 0.31281 0.0
Mn612 Mn 0.31253 0.69206 0.60276 0.0
Mn613 Mn 0.26901 0.63695 0.54032 0.0
C614 C 0.25846 0.67128 0.59898 0.0
C615 C 0.3405 0.71225 0.65261 0.0
C616 C 0.29104 0.70595 0.5389 0.0
O617 O 0.34606 0.67575 0.58683 0.0
O618 O 0.31519 0.64433 0.54268 0.0
C619 C 0.28503 0.5831 0.56349 0.0
N620 N 0.2629 0.59613 0.55177 0.0
C621 C 0.22042 0.548 0.54959 0.0
C622 C 0.24273 0.534 0.56144 0.0
C623 C 0.27517 0.55173 0.56866 0.0
C624 C 0.23156 0.57959 0.54564 0.0
H625 H 0.31002 0.59648 0.5688 0.0
C626 C 0.34209 0.65763 0.56061 0.0
O627 O 0.34475 0.72822 0.63001 0.0
O628 O 0.32264 0.68274 0.6453 0.0
N629 N 0.22352 0.62611 0.53362 0.0
C630 C 0.20501 0.64267 0.5214 0.0
C631 C 0.17213 0.6279 0.51158 0.0
C632 C 0.15864 0.59602 0.51381 0.0
C633 C 0.17818 0.57928 0.52601 0.0
C634 C 0.21081 0.59519 0.53517 0.0
H635 H 0.21529 0.66683 0.51873 0.0
O636 O 0.27321 0.69958 0.61473 0.0
O637 O 0.27526 0.65601 0.58512 0.0
O638 O 0.30898 0.71345 0.56537 0.0
O639 O 0.27314 0.678 0.52713 0.0
C640 C 0.16664 0.54732 0.52914 0.0
C641 C 0.18758 0.53178 0.5413 0.0
H642 H 0.23523 0.50969 0.56509 0.0
H643 H 0.29256 0.54113 0.57792 0.0
H644 H 0.15729 0.64095 0.50198 0.0
H645 H 0.1333 0.58466 0.50608 0.0
H646 H 0.14176 0.5344 0.5223 0.0
H647 H 0.17822 0.50725 0.5438 0.0
Mn648 Mn 0.47577 0.54127 0.78681 0.0
Mn649 Mn 0.42008 0.53094 0.83558 0.0
C650 C 0.44319 0.49011 0.78972 0.0
C651 C 0.49202 0.55062 0.73645 0.0
C652 C 0.49116 0.54945 0.85997 0.0
O653 O 0.46831 0.58505 0.79576 0.0
O654 O 0.42713 0.57256 0.82264 0.0
C655 C 0.3624 0.52876 0.79223 0.0
N656 N 0.37749 0.51532 0.81291 0.0
C657 C 0.32899 0.47349 0.81196 0.0
C658 C 0.31291 0.48686 0.79061 0.0
C659 C 0.32973 0.51451 0.78058 0.0
C660 C 0.36161 0.48855 0.82248 0.0
H661 H 0.3752 0.55029 0.78489 0.0
C662 C 0.44608 0.59161 0.80901 0.0
O663 O 0.51201 0.55788 0.76267 0.0
O664 O 0.46249 0.53826 0.73934 0.0
N665 N 0.41081 0.49136 0.85021 0.0
C666 C 0.43012 0.48071 0.86984 0.0
C667 C 0.41715 0.45292 0.88157 0.0
C668 C 0.38438 0.43665 0.87344 0.0
C669 C 0.36492 0.44824 0.85351 0.0
C670 C 0.37922 0.47599 0.84245 0.0
H671 H 0.45521 0.49333 0.87666 0.0
O672 O 0.47011 0.49407 0.77948 0.0
O673 O 0.4363 0.51581 0.79818 0.0
O674 O 0.50052 0.54699 0.83314 0.0
O675 O 0.46227 0.54642 0.8625 0.0
C676 C 0.33194 0.43318 0.8439 0.0
C677 C 0.31402 0.44569 0.82301 0.0
H678 H 0.28768 0.47604 0.78168 0.0
H679 H 0.31746 0.52496 0.76412 0.0
H680 H 0.43234 0.44421 0.89701 0.0
H681 H 0.37445 0.4152 0.88251 0.0
H682 H 0.32021 0.41172 0.85211 0.0
H683 H 0.28877 0.43362 0.81541 0.0
Mn684 Mn 0.69255 0.07532 0.75624 0.0
Mn685 Mn 0.75645 0.10996 0.81374 0.0
C686 C 0.71672 0.1286 0.76344 0.0
C687 C 0.66914 0.04996 0.70659 0.0
C688 C 0.68889 0.09149 0.82526 0.0
O689 O 0.70508 0.03808 0.76678 0.0
O690 O 0.74853 0.06396 0.80341 0.0
C691 C 0.80485 0.09877 0.77639 0.0
N692 N 0.79408 0.11894 0.7951 0.0
C693 C 0.83992 0.16302 0.79395 0.0
C694 C 0.85167 0.14268 0.77491 0.0
C695 C 0.83395 0.11045 0.76592 0.0
C696 C 0.81059 0.15008 0.80331 0.0
H697 H 0.79129 0.074 0.76952 0.0
C698 C 0.7286 0.03884 0.78672 0.0
O699 O 0.6535 0.04685 0.72985 0.0
O700 O 0.69928 0.06607 0.71267 0.0
N701 N 0.76761 0.15476 0.82702 0.0
C702 C 0.75288 0.1712 0.84541 0.0
C703 C 0.76776 0.2036 0.85705 0.0
C704 C 0.79786 0.21869 0.85011 0.0
C705 C 0.81273 0.20121 0.83147 0.0
C706 C 0.79692 0.1689 0.82089 0.0
H707 H 0.72999 0.15966 0.85132 0.0
O708 O 0.68763 0.11639 0.74868 0.0
O709 O 0.73134 0.10937 0.77299 0.0
O710 O 0.67588 0.08042 0.79683 0.0
O711 O 0.71889 0.10247 0.83473 0.0
C712 C 0.84243 0.21466 0.82268 0.0
C713 C 0.85596 0.19565 0.80379 0.0
H714 H 0.87416 0.15157 0.7669 0.0
H715 H 0.84276 0.09465 0.75106 0.0
H716 H 0.75606 0.21684 0.87139 0.0
H717 H 0.8093 0.24366 0.85911 0.0
H718 H 0.85473 0.23968 0.82984 0.0
H719 H 0.87868 0.20639 0.79692 0.0
Mn720 Mn 0.78357 0.7346 0.04667 0.0
Mn721 Mn 0.76778 0.67281 0.98637 0.0
C722 C 0.73129 0.70059 0.028 0.0
C723 C 0.79249 0.75421 0.10252 0.0
C724 C 0.7889 0.74175 0.97702 0.0
O725 O 0.82658 0.72535 0.04783 0.0
O726 O 0.81154 0.68165 1.00936 0.0
C727 C 0.76981 0.61867 0.01784 0.0
N728 N 0.75328 0.6326 0.99902 0.0
C729 C 0.70749 0.58584 0.98723 0.0
C730 C 0.72397 0.57106 1.00664 0.0
C731 C 0.75526 0.58755 0.02199 0.0
C732 C 0.72332 0.61677 0.98376 0.0
H733 H 0.79397 0.63115 0.02943 0.0
C734 C 0.83194 0.70168 0.03166 0.0
O735 O 0.80005 0.77294 0.08243 0.0
O736 O 0.78117 0.72442 0.09041 0.0
N737 N 0.72538 0.66272 0.96367 0.0
C738 C 0.71215 0.68104 0.94734 0.0
C739 C 0.6805 0.66854 0.93158 0.0
C740 C 0.66278 0.63735 0.9328 0.0
C741 C 0.6768 0.61907 0.95004 0.0
C742 C 0.70843 0.63283 0.9653 0.0
H743 H 0.72555 0.7051 0.9465 0.0
O744 O 0.73622 0.72966 0.04148 0.0
O745 O 0.75681 0.69351 0.02376 0.0
O746 O 0.78958 0.75501 1.00541 0.0
O747 O 0.78187 0.71185 0.96928 0.0
C748 C 0.66049 0.58788 0.95302 0.0
C749 C 0.67588 0.57122 0.97149 0.0
H750 H 0.71281 0.5471 1.00998 0.0
H751 H 0.76816 0.57624 0.0369 0.0
H752 H 0.66979 0.68291 0.91855 0.0
H753 H 0.63834 0.6278 0.92065 0.0
H754 H 0.63605 0.57655 0.94138 0.0
H755 H 0.66304 0.5473 0.97372 0.0
Mn756 Mn 0.93105 0.56363 0.83988 0.0
Mn757 Mn 0.87562 0.54641 0.88643 0.0
C758 C 0.91454 0.51462 0.85296 0.0
C759 C 0.94672 0.5636 0.79196 0.0
C760 C 0.94451 0.58465 0.9104 0.0
O761 O 0.91055 0.5977 0.83642 0.0
O762 O 0.87446 0.58422 0.8685 0.0
C763 C 0.81824 0.52966 0.83734 0.0
N764 N 0.83595 0.5215 0.86071 0.0
C765 C 0.79758 0.46972 0.8537 0.0
C766 C 0.77897 0.47759 0.82958 0.0
C767 C 0.78938 0.5077 0.82136 0.0
C768 C 0.82625 0.49254 0.86867 0.0
H769 H 0.82605 0.55274 0.83089 0.0
C770 C 0.88745 0.60136 0.84953 0.0
O771 O 0.96481 0.58252 0.81687 0.0
O772 O 0.91819 0.54702 0.7944 0.0
N773 N 0.87369 0.50928 0.9046 0.0
C774 C 0.89423 0.50535 0.92855 0.0
C775 C 0.8869 0.47668 0.94001 0.0
C776 C 0.85839 0.45247 0.92699 0.0
C777 C 0.83744 0.45717 0.90265 0.0
C778 C 0.84596 0.48625 0.89224 0.0
H779 H 0.91621 0.52376 0.93857 0.0
O780 O 0.94248 0.52467 0.84521 0.0
O781 O 0.89777 0.53386 0.85366 0.0
O782 O 0.95331 0.58463 0.88382 0.0
O783 O 0.91603 0.57098 0.91413 0.0
C784 C 0.80851 0.43406 0.88821 0.0
C785 C 0.78873 0.44018 0.86354 0.0
H786 H 0.75663 0.46074 0.81724 0.0
H787 H 0.77515 0.51398 0.80279 0.0
H788 H 0.90328 0.47318 0.9587 0.0
H789 H 0.85293 0.4303 0.93569 0.0
H790 H 0.80123 0.41157 0.89603 0.0
H791 H 0.76664 0.4221 0.85247 0.0
Mn792 Mn 0.8227 0.4529 0.52941 0.0
Mn793 Mn 0.83502 0.50066 0.47523 0.0
C794 C 0.87213 0.47256 0.51765 0.0
C795 C 0.82004 0.44221 0.57917 0.0
C796 C 0.80531 0.42982 0.4596 0.0
O797 O 0.7841 0.46748 0.52632 0.0
O798 O 0.79537 0.501 0.49173 0.0
C799 C 0.8455 0.56341 0.51449 0.0
N800 N 0.85626 0.54378 0.4951 0.0
C801 C 0.90549 0.58515 0.49724 0.0
C802 C 0.89493 0.60569 0.51734 0.0
C803 C 0.86478 0.59477 0.52595 0.0
C804 C 0.88508 0.55421 0.48628 0.0
H805 H 0.82233 0.55529 0.52108 0.0
C806 C 0.77819 0.48783 0.51076 0.0
O807 O 0.80465 0.42135 0.55447 0.0
O808 O 0.83518 0.47053 0.57507 0.0
N809 N 0.87361 0.50285 0.45878 0.0
C810 C 0.88114 0.47961 0.4407 0.0
C811 C 0.91099 0.48647 0.43095 0.0
C812 C 0.93275 0.51712 0.43975 0.0
C813 C 0.92445 0.54069 0.4582 0.0
C814 C 0.89429 0.53254 0.46709 0.0
H815 H 0.86464 0.45593 0.43401 0.0
O816 O 0.86493 0.44671 0.52933 0.0
O817 O 0.8502 0.48606 0.513 0.0
O818 O 0.80701 0.42497 0.48749 0.0
O819 O 0.81413 0.45708 0.45191 0.0
C820 C 0.94521 0.57178 0.46867 0.0
C821 C 0.93572 0.594 0.48814 0.0
H822 H 0.90982 0.62984 0.52642 0.0
H823 H 0.85641 0.6105 0.54141 0.0
H824 H 0.91728 0.46811 0.4168 0.0
H825 H 0.95586 0.52223 0.43242 0.0
H826 H 0.96867 0.57874 0.46218 0.0
H827 H 0.95202 0.61773 0.49631 0.0
Mn828 Mn 0.64291 0.59017 0.3128 0.0
Mn829 Mn 0.70517 0.60612 0.37277 0.0
C830 C 0.67534 0.64233 0.33317 0.0
C831 C 0.62218 0.58174 0.25725 0.0
C832 C 0.63605 0.58192 0.3823 0.0
O833 O 0.65447 0.54853 0.30963 0.0
O834 O 0.69814 0.56329 0.34818 0.0
C835 C 0.75919 0.60844 0.33847 0.0
N836 N 0.7449 0.62307 0.35905 0.0
C837 C 0.78884 0.67138 0.36832 0.0
C838 C 0.80395 0.65682 0.34719 0.0
C839 C 0.78908 0.62521 0.33223 0.0
C840 C 0.75924 0.65337 0.37392 0.0
H841 H 0.74783 0.58417 0.32686 0.0
C842 C 0.67855 0.54347 0.32518 0.0
O843 O 0.60416 0.57227 0.27762 0.0
O844 O 0.65211 0.59482 0.26872 0.0
N845 N 0.71373 0.64769 0.39675 0.0
C846 C 0.69491 0.65902 0.41458 0.0
C847 C 0.70565 0.69072 0.43002 0.0
C848 C 0.7356 0.71047 0.42696 0.0
C849 C 0.75453 0.69833 0.40841 0.0
C850 C 0.74262 0.66648 0.3937 0.0
H851 H 0.67178 0.64408 0.41681 0.0
O852 O 0.64598 0.63681 0.31989 0.0
O853 O 0.68331 0.61727 0.33635 0.0
O854 O 0.62321 0.58224 0.35416 0.0
O855 O 0.66613 0.58949 0.39076 0.0
C856 C 0.78436 0.71682 0.4033 0.0
C857 C 0.80156 0.70332 0.38336 0.0
H858 H 0.82684 0.66977 0.34204 0.0
H859 H 0.80058 0.61383 0.31585 0.0
H860 H 0.69079 0.69995 0.44411 0.0
H861 H 0.74368 0.735 0.43867 0.0
H862 H 0.79412 0.74155 0.41427 0.0
H863 H 0.82429 0.71788 0.37931 0.0
Dy864 Dy 0.09061 0.0868 0.07518 0.0
Dy865 Dy 0.02752 0.04276 0.03687 0.0
C866 C 0.08214 0.06414 0.99814 0.0
O867 O 0.06825 0.12623 0.06617 0.0
O868 O 0.02808 0.09391 0.0282 0.0
O869 O 0.13474 0.12456 0.07816 0.0
O870 O 0.12962 0.09518 0.11363 0.0
O871 O 1.02012 0.04653 0.08868 0.0
O872 O 0.06182 0.08907 0.11365 0.0
O873 O 0.04778 1.00309 0.04777 0.0
O874 O 0.09247 0.03539 0.08046 0.0
O875 O 0.98251 1.00638 0.0343 0.0
O876 O 0.99087 0.03136 0.99566 0.0
C877 C 0.04481 0.12335 0.04276 0.0
O878 O 0.09439 0.08633 0.02329 0.0
O879 O 0.05827 0.03951 0.99984 0.0
C880 C 0.17234 0.09874 0.08761 0.0
C881 C 0.20894 0.062 0.06549 0.0
C882 C 0.17959 0.0593 0.04803 0.0
C883 C 0.16154 0.07727 0.05909 0.0
C884 C 0.2017 0.10153 0.1056 0.0
C885 C 0.2201 0.08304 0.09448 0.0
C886 C 0.14947 0.11323 0.09921 0.0
C887 C 0.0353 0.06707 0.11457 0.0
C888 C 0.07348 1.006 0.06824 0.0
C889 C 0.94784 0.03317 0.01907 0.0
C890 C 0.91432 0.07555 0.03297 0.0
C891 C 0.94428 0.08037 0.05033 0.0
C892 C 0.96064 0.05933 0.04354 0.0
C893 C 0.91768 0.02775 1.00155 0.0
C894 C 0.9007 0.04896 1.0087 0.0
C895 C 0.96958 0.016 1.01065 0.0
H896 H 0.17009 0.04257 0.02611 0.0
H897 H 0.13835 0.07314 0.04576 0.0
H898 H 0.20988 0.11717 0.12822 0.0
H899 H 0.24279 0.08506 0.10834 0.0
H900 H 0.95571 0.10107 0.06848 0.0
H901 H 0.98429 0.06472 0.05654 0.0
H902 H 0.90782 1.00798 0.98218 0.0
H903 H 0.87733 0.04491 0.99515 0.0
Dy904 Dy 0.33896 0.81848 0.28093 0.0
Dy905 Dy 0.29368 0.82208 0.33252 0.0
C906 C 0.34321 0.88193 0.32289 0.0
O907 O 0.36901 0.81209 0.32458 0.0
O908 O 0.33381 0.80804 0.35913 0.0
O909 O 0.38624 0.83597 0.27055 0.0
O910 O 0.34853 0.80271 0.2351 0.0
O911 O 0.26979 0.7794 0.29594 0.0
O912 O 0.31327 0.76859 0.28097 0.0
O913 O 0.27188 0.84233 0.29353 0.0
O914 O 0.29337 0.82256 0.25299 0.0
O915 O 0.25469 0.79662 0.35305 0.0
O916 O 0.27679 0.84707 0.36943 0.0
C917 C 0.36189 0.80743 0.35251 0.0
O918 O 0.33922 0.86808 0.29381 0.0
O919 O 0.33423 0.86577 0.34456 0.0
C920 C 0.38122 0.84677 0.21942 0.0
C921 C 0.37024 0.88555 0.17705 0.0
C922 C 0.37697 0.89751 0.20932 0.0
C923 C 0.3823 0.87818 0.23046 0.0
C924 C 0.37743 0.83591 0.18709 0.0
C925 C 0.3719 0.85522 0.16595 0.0
C926 C 0.37674 0.82386 0.24072 0.0
C927 C 0.28289 0.75987 0.28217 0.0
C928 C 0.27201 0.83539 0.26298 0.0
C929 C 0.26789 0.81411 0.40686 0.0
C930 C 0.28455 0.79799 0.46483 0.0
C931 C 0.29744 0.78855 0.43891 0.0
C932 C 0.28859 0.7959 0.41017 0.0
C933 C 0.25625 0.82528 0.43309 0.0
C934 C 0.26419 0.81674 0.46208 0.0
C935 C 0.25908 0.82057 0.37561 0.0
H936 H 0.37567 0.92082 0.21822 0.0
H937 H 0.38489 0.88713 0.25535 0.0
H938 H 0.37629 0.81174 0.17821 0.0
H939 H 0.36707 0.84583 0.14094 0.0
H940 H 0.31215 0.77302 0.44011 0.0
H941 H 0.29656 0.78559 0.39016 0.0
H942 H 0.24022 0.83935 0.43086 0.0
H943 H 0.25351 0.82354 0.48188 0.0
Dy944 Dy 0.52321 0.06575 0.57522 0.0
Dy945 Dy 0.59706 0.07899 0.54678 0.0
C946 C 0.54381 0.08322 0.50441 0.0
O947 O 0.52327 0.01456 0.5579 0.0
O948 O 0.57158 0.02519 0.53914 0.0
O949 O 0.47264 0.0523 0.558 0.0
O950 O 0.49193 0.07691 0.60626 0.0
O951 O 0.58951 0.08606 0.59608 0.0
O952 O 0.55107 0.05011 0.61113 0.0
O953 O 0.59221 0.12944 0.55804 0.0
O954 O 0.54993 0.11973 0.58655 0.0
O955 O 0.64582 0.08967 0.56987 0.0
O956 O 0.63356 0.07316 0.51966 0.0
C957 C 0.54526 1.00464 0.54476 0.0
O958 O 0.53615 0.07668 0.53094 0.0
O959 O 0.5733 0.08692 0.50176 0.0
C960 C 0.45228 0.09326 0.57805 0.0
C961 C 0.42166 0.13907 0.56672 0.0
C962 C 0.44115 0.13077 0.5462 0.0
C963 C 0.4567 0.10866 0.55216 0.0
C964 C 0.43408 0.10256 0.59949 0.0
C965 C 0.41907 0.12545 0.59401 0.0
C966 C 0.46762 0.06855 0.58321 0.0
C967 C 0.58126 0.06269 0.61127 0.0
C968 C 0.57324 0.13984 0.57576 0.0
C969 C 0.67009 0.05253 0.54782 0.0
C970 C 0.69886 1.00375 0.55238 0.0
C971 C 0.68422 1.01398 0.57687 0.0
C972 C 0.66986 0.03786 0.57451 0.0
C973 C 0.68456 0.04224 0.52331 0.0
C974 C 0.69868 0.01817 0.5255 0.0
C975 C 0.65474 0.07781 0.54482 0.0
H976 H 0.44416 0.14117 0.52527 0.0
H977 H 0.47215 0.10366 0.53641 0.0
H978 H 0.43112 0.0918 0.62023 0.0
H979 H 0.40429 0.1314 0.61036 0.0
H980 H 0.68359 1.00336 0.59781 0.0
H981 H 0.65847 0.04465 0.59358 0.0
H982 H 0.68502 0.05291 0.50239 0.0
H983 H 0.71014 1.01139 0.50633 0.0
Dy984 Dy 0.33966 0.30038 0.80723 0.0
Dy985 Dy 0.27993 0.32921 0.80173 0.0
C986 C 0.34981 0.37154 0.79663 0.0
O987 O 0.33105 0.3081 0.85797 0.0
O988 O 0.30588 0.34543 0.85146 0.0
O989 O 0.38881 0.30476 0.82452 0.0
O990 O 0.36032 0.26489 0.78884 0.0
O991 O 0.26489 0.2859 0.82303 0.0
O992 O 0.29605 0.2582 0.80347 0.0
O993 O 0.27657 0.3021 0.75263 0.0
O994 O 0.32943 0.30651 0.75668 0.0
O995 O 0.22944 0.32173 0.78839 0.0
O996 O 0.25967 0.36661 0.81559 0.0
C997 C 0.31903 0.33004 0.86995 0.0
O998 O 0.35995 0.3528 0.81304 0.0
O999 O 0.31921 0.36493 0.78542 0.0
C1000 C 0.413 0.28915 0.78191 0.0
C1001 C 0.45472 0.30137 0.73754 0.0
C1002 C 0.44226 0.32486 0.75037 0.0
C1003 C 0.42137 0.31871 0.77208 0.0
C1004 C 0.42573 0.26585 0.76942 0.0
C1005 C 0.44626 0.27183 0.74738 0.0
C1006 C 0.38902 0.2816 0.80292 0.0
C1007 C 0.27035 0.25902 0.81523 0.0
C1008 C 0.30127 0.30024 0.73929 0.0
C1009 C 0.21033 0.3438 0.83155 0.0
C1010 C 0.17192 0.33485 0.87924 0.0
C1011 C 0.19274 0.31696 0.87455 0.0
C1012 C 0.21198 0.32176 0.85135 0.0
C1013 C 0.18977 0.36195 0.83628 0.0
C1014 C 0.17088 0.35766 0.86001 0.0
C1015 C 0.2305 0.34782 0.8066 0.0
H1016 H 0.44803 0.3477 0.74299 0.0
H1017 H 0.41134 0.3369 0.78077 0.0
H1018 H 0.41936 0.24279 0.77632 0.0
H1019 H 0.45562 0.25334 0.73805 0.0
H1020 H 0.19446 0.29952 0.8891 0.0
H1021 H 0.22832 0.30826 0.849 0.0
H1022 H 0.18824 0.37935 0.82161 0.0
H1023 H 0.15495 0.37174 0.86287 0.0
Dy1024 Dy 0.07813 0.03478 0.55373 0.0
Dy1025 Dy 0.04736 0.09294 0.56123 0.0
C1026 C 1.00648 0.02299 0.56555 0.0
O1027 O 0.06917 0.04202 0.5031 0.0
O1028 O 0.03304 0.06914 0.51025 0.0
O1029 O 0.0749 0.98614 0.53635 0.0
O1030 O 0.11478 0.01546 0.57159 0.0
O1031 O 0.08975 0.10967 0.53866 0.0
O1032 O 0.1192 0.07936 0.55631 0.0
O1033 O 0.07583 0.09645 0.60966 0.0
O1034 O 0.07206 0.04418 0.60436 0.0
O1035 O 0.05245 0.14202 0.57846 0.0
O1036 O 1.00916 0.11223 0.54784 0.0
C1037 C 0.04769 0.05463 0.49153 0.0
O1038 O 0.02547 1.01344 0.54857 0.0
O1039 O 1.01253 0.05321 0.57717 0.0
C1040 C 0.09091 0.96335 0.57918 0.0
C1041 C 0.07915 0.92281 0.62417 0.0
C1042 C 0.05728 0.9386 0.61498 0.0
C1043 C 0.06321 0.95881 0.59292 0.0
C1044 C 0.1125 0.94729 0.58793 0.0
C1045 C 0.10673 0.92729 0.61021 0.0
C1046 C 0.09838 0.98664 0.55781 0.0
C1047 C 0.11717 0.10471 0.54501 0.0
C1048 C 0.07833 0.07191 0.62239 0.0
C1049 C 0.03222 0.16313 0.53619 0.0
C1050 C 0.04232 0.20258 0.49002 0.0
C1051 C 0.06717 0.19281 0.50428 0.0
C1052 C 0.06223 0.1736 0.5271 0.0
C1053 C 1.00701 0.17201 0.52143 0.0
C1054 C 1.01201 0.19161 0.49861 0.0
C1055 C 0.0271 0.14121 0.55923 0.0
H1056 H 0.03603 0.93601 0.62551 0.0
H1057 H 0.0464 0.97136 0.58701 0.0
H1058 H 0.13411 0.9506 0.57789 0.0
H1059 H 0.12393 0.9153 0.61655 0.0
H1060 H 0.09067 0.2002 0.49794 0.0
H1061 H 0.08208 0.16698 0.53773 0.0
H1062 H 0.98351 0.16389 0.52763 0.0
H1063 H 0.99236 0.19881 0.48831 0.0
Dy1064 Dy 0.31877 0.85612 0.79092 0.0
Dy1065 Dy 0.30773 0.78691 0.81061 0.0
C1066 C 0.29657 0.841 0.85562 0.0
O1067 O 0.36819 0.86009 0.81873 0.0
O1068 O 0.36231 0.80714 0.8117 0.0
O1069 O 0.33683 0.90703 0.80381 0.0
O1070 O 0.30931 0.88528 0.75728 0.0
O1071 O 0.29544 0.78728 0.7603 0.0
O1072 O 0.33649 0.82744 0.75557 0.0
O1073 O 0.2557 0.78976 0.80384 0.0
O1074 O 0.26462 0.8305 0.77549 0.0
O1075 O 0.29491 0.73687 0.79209 0.0
O1076 O 0.31375 0.754 0.8415 0.0
C1077 C 0.38133 0.83692 0.81978 0.0
O1078 O 0.29343 0.85457 0.83131 0.0
O1079 O 0.30861 0.81759 0.85516 0.0
C1080 C 0.29614 0.92766 0.78517 0.0
C1081 C 0.24964 0.95786 0.7973 0.0
C1082 C 0.25893 0.93941 0.8181 0.0
C1083 C 0.28186 0.92465 0.81216 0.0
C1084 C 0.28642 0.94529 0.76383 0.0
C1085 C 0.26346 0.96032 0.76986 0.0
C1086 C 0.31972 0.91093 0.77886 0.0
C1087 C 0.31875 0.79819 0.74567 0.0
C1088 C 0.24423 0.80783 0.78639 0.0
C1089 C 0.33164 0.71365 0.8157 0.0
C1090 C 0.37832 0.68181 0.81191 0.0
C1091 C 0.3703 0.69734 0.78759 0.0
C1092 C 0.34744 0.71322 0.78956 0.0
C1093 C 0.33973 0.69837 0.84007 0.0
C1094 C 0.36276 0.68268 0.83824 0.0
C1095 C 0.30734 0.73041 0.8181 0.0
H1096 H 0.24864 0.93644 0.83921 0.0
H1097 H 0.28855 0.91098 0.82893 0.0
H1098 H 0.29675 0.94765 0.74266 0.0
H1099 H 0.25726 0.9746 0.75344 0.0
H1100 H 0.3819 0.69751 0.7671 0.0
H1101 H 0.34229 0.72527 0.77063 0.0
H1102 H 0.32811 0.69845 0.86054 0.0
H1103 H 0.36783 0.67062 0.85725 0.0
Dy1104 Dy 0.56561 0.0981 0.03247 0.0
Dy1105 Dy 0.56347 0.05083 0.08127 0.0
C1106 C 0.57483 0.02767 1.01 0.0
O1107 O 0.5214 0.05884 0.01456 0.0
O1108 O 0.5153 0.05301 0.06437 0.0
O1109 O 0.54594 0.12216 0.9992 0.0
O1110 O 0.59727 0.13423 0.01392 0.0
O1111 O 0.55855 0.0954 0.11058 0.0
O1112 O 0.54412 0.12031 0.07103 0.0
O1113 O 0.61475 0.07328 0.08055 0.0
O1114 O 0.60506 0.11854 0.07277 0.0
O1115 O 0.57857 0.03954 0.12612 0.0
O1116 O 0.54062 1.00495 0.09199 0.0
C1117 C 0.50363 0.04821 0.0346 0.0
O1118 O 0.57936 0.05731 1.00554 0.0
O1119 O 0.56627 0.01966 0.03652 0.0
C1120 C 0.57976 0.13084 0.96169 0.0
C1121 C 0.60974 0.11612 0.91203 0.0
C1122 C 0.58761 0.09189 0.92195 0.0
C1123 C 0.57246 0.09924 0.94664 0.0
C1124 C 0.60026 0.15524 0.95025 0.0
C1125 C 0.61518 0.14787 0.92526 0.0
C1126 C 0.57428 0.1368 0.99377 0.0
C1127 C 0.5479 0.1181 0.10126 0.0
C1128 C 0.62484 0.1039 0.08218 0.0
C1129 C 0.53186 0.01491 0.14316 0.0
C1130 C 0.4944 0.02548 0.18765 0.0
C1131 C 0.49491 0.04067 0.16173 0.0
C1132 C 0.51337 0.03526 0.13957 0.0
C1133 C 0.5304 0.99853 0.1684 0.0
C1134 C 0.51139 1.00368 0.19065 0.0
C1135 C 0.55414 1.01387 0.12149 0.0
H1136 H 0.58332 0.06732 0.91164 0.0
H1137 H 0.55716 0.08009 0.95567 0.0
H1138 H 0.60673 0.17959 0.96223 0.0
H1139 H 0.63242 0.16667 0.9176 0.0
H1140 H 0.48184 0.05749 0.1592 0.0
H1141 H 0.51411 0.04802 0.12023 0.0
H1142 H 0.54459 0.98279 0.17141 0.0
H1143 H 0.5111 0.99193 0.21085 0.0
Dy1144 Dy 0.28618 0.2848 0.28626 0.0
Dy1145 Dy 0.33017 0.35027 0.32163 0.0
C1146 C 0.31139 0.29549 0.36272 0.0
O1147 O 0.24773 0.30409 0.30565 0.0
O1148 O 0.27876 0.35523 0.32252 0.0
O1149 O 0.24599 0.24242 0.28142 0.0
O1150 O 0.27884 0.24526 0.24865 0.0
O1151 O 0.32783 0.35307 0.26948 0.0
O1152 O 0.28189 0.31398 0.24822 0.0
O1153 O 0.36879 0.32564 0.31399 0.0
O1154 O 0.33658 0.28609 0.27551 0.0
O1155 O 0.36897 0.39269 0.32177 0.0
O1156 O 0.34277 0.3899 0.36028 0.0
C1157 C 0.2501 0.33346 0.31856 0.0
O1158 O 0.30011 0.27589 0.33552 0.0
O1159 O 0.32427 0.32581 0.36331 0.0
C1160 C 0.26753 0.20033 0.27194 0.0
C1161 C 0.30523 0.16547 0.29632 0.0
C1162 C 0.29059 0.18184 0.31629 0.0
C1163 C 0.27174 0.19892 0.30422 0.0
C1164 C 0.28024 0.18202 0.25159 0.0
C1165 C 0.29894 0.16461 0.2637 0.0
C1166 C 0.25774 0.22653 0.26139 0.0
C1167 C 0.30513 0.33879 0.24522 0.0
C1168 C 0.36593 0.30232 0.29035 0.0
C1169 C 0.3452 0.43133 0.33392 0.0
C1170 C 0.30416 0.46579 0.31874 0.0
C1171 C 0.30015 0.43653 0.30045 0.0
C1172 C 0.32058 0.41975 0.30785 0.0
C1173 C 0.34999 0.461 0.35212 0.0
C1174 C 0.32957 0.47847 0.34431 0.0
C1175 C 0.35992 0.40853 0.3442 0.0
H1176 H 0.29433 0.18204 0.3414 0.0
H1177 H 0.26213 0.21261 0.32055 0.0
H1178 H 0.27761 0.18296 0.22669 0.0
H1179 H 0.3098 0.15187 0.24777 0.0
H1180 H 0.28032 0.42582 0.28121 0.0
H1181 H 0.31542 0.39652 0.29428 0.0
H1182 H 0.36841 0.46994 0.37278 0.0
H1183 H 0.33311 0.50137 0.35855 0.0
Dy1184 Dy 0.57643 0.53493 0.05172 0.0
Dy1185 Dy 0.54647 0.59369 0.06049 0.0
C1186 C 0.50501 0.52348 0.06451 0.0
O1187 O 0.56738 0.5433 1.00135 0.0
O1188 O 0.53137 0.57018 1.00963 0.0
O1189 O 0.57216 0.48613 0.03382 0.0
O1190 O 0.61297 0.51492 0.06835 0.0
O1191 O 0.59028 0.61168 0.03994 0.0
O1192 O 0.61816 0.57802 0.05238 0.0
O1193 O 0.57312 0.59664 0.10951 0.0
O1194 O 0.5733 0.54523 0.10326 0.0
O1195 O 0.55237 0.64335 0.07567 0.0
O1196 O 0.50756 0.61237 0.04866 0.0
C1197 C 0.54595 0.55627 0.99037 0.0
O1198 O 0.52378 0.51384 0.04729 0.0
O1199 O 0.5115 0.55373 0.07643 0.0
C1200 C 0.58906 0.46281 0.07604 0.0
C1201 C 0.57728 0.42072 0.11985 0.0
C1202 C 0.55344 0.43298 0.10744 0.0
C1203 C 0.55935 0.45391 0.08606 0.0
C1204 C 0.61299 0.45101 0.0885 0.0
C1205 C 0.60726 0.43037 0.1102 0.0
C1206 C 0.59597 0.48625 0.05471 0.0
C1207 C 0.61692 0.60463 0.0434 0.0
C1208 C 0.57765 0.57246 0.12166 0.0
C1209 C 0.52795 0.6627 0.03484 0.0
C1210 C 0.53598 0.70508 0.99135 0.0
C1211 C 0.54933 0.68015 0.98885 0.0
C1212 C 0.54543 0.65927 1.01043 0.0
C1213 C 0.51365 0.68681 0.03673 0.0
C1214 C 0.51763 0.70778 0.01525 0.0
C1215 C 0.52546 0.64164 0.05856 0.0
H1216 H 0.52991 0.42605 0.11372 0.0
H1217 H 0.5406 0.46318 0.07738 0.0
H1218 H 0.63631 0.45805 0.08172 0.0
H1219 H 0.62659 0.42225 0.11958 0.0
H1220 H 0.56381 0.67752 0.97099 0.0
H1221 H 0.5566 0.64076 1.0084 0.0
H1222 H 0.49987 0.68979 0.05514 0.0
H1223 H 0.50672 0.72652 0.01764 0.0
Dy1224 Dy 0.82115 0.35543 0.29342 0.0
Dy1225 Dy 0.8121 0.28535 0.31105 0.0
C1226 C 0.80034 0.33824 0.3571 0.0
O1227 O 0.87053 0.35894 0.32105 0.0
O1228 O 0.8659 0.30628 0.31095 0.0
O1229 O 0.83703 0.40602 0.30934 0.0
O1230 O 0.81305 0.38624 0.2611 0.0
O1231 O 0.79834 0.28717 0.26134 0.0
O1232 O 0.83843 0.32816 0.25638 0.0
O1233 O 0.75966 0.28517 0.30224 0.0
O1234 O 0.76708 0.32946 0.27855 0.0
O1235 O 0.80333 0.23639 0.2908 0.0
O1236 O 0.81529 0.25113 0.34123 0.0
C1237 C 0.88423 0.33606 0.32046 0.0
O1238 O 0.79411 0.35019 0.33237 0.0
O1239 O 0.8146 0.31644 0.35619 0.0
C1240 C 0.79776 0.42788 0.28825 0.0
C1241 C 0.75036 0.4584 0.29578 0.0
C1242 C 0.76598 0.44963 0.32166 0.0
C1243 C 0.78912 0.43441 0.31792 0.0
C1244 C 0.78212 0.43632 0.26237 0.0
C1245 C 0.75862 0.45113 0.266 0.0
C1246 C 0.8217 0.41094 0.28381 0.0
C1247 C 0.82095 0.29885 0.24619 0.0
C1248 C 0.74765 0.30412 0.28672 0.0
C1249 C 0.83842 0.21368 0.31714 0.0
C1250 C 0.88723 0.18441 0.3157 0.0
C1251 C 0.86349 0.17895 0.28918 0.0
C1252 C 0.83945 0.19338 0.28991 0.0
C1253 C 0.86247 0.21974 0.34342 0.0
C1254 C 0.88663 0.20546 0.34264 0.0
C1255 C 0.81282 0.22897 0.31737 0.0
H1256 H 0.76097 0.45508 0.34512 0.0
H1257 H 0.80029 0.42788 0.33843 0.0
H1258 H 0.78791 0.43121 0.23916 0.0
H1259 H 0.74686 0.4567 0.24526 0.0
H1260 H 0.86267 0.16261 0.26814 0.0
H1261 H 0.82139 0.18835 0.26915 0.0
H1262 H 0.86267 0.23548 0.36469 0.0
H1263 H 0.9047 0.21077 0.36338 0.0
Dy1264 Dy 0.06251 0.59064 0.53221 0.0
Dy1265 Dy 0.06794 0.54504 0.5819 0.0
C1266 C 0.07939 0.52265 0.51176 0.0
O1267 O 1.01408 0.57059 0.54163 0.0
O1268 O 1.02286 0.52456 0.54801 0.0
O1269 O 0.03548 0.60012 0.4921 0.0
O1270 O 0.08321 0.63118 0.51161 0.0
O1271 O 0.05465 0.58638 0.60931 0.0
O1272 O 0.05198 0.61923 0.57352 0.0
O1273 O 0.1184 0.57208 0.58418 0.0
O1274 O 0.10947 0.61344 0.56286 0.0
O1275 O 0.08381 0.53572 0.62759 0.0
O1276 O 0.04786 0.49909 0.59388 0.0
C1277 C 1.00346 0.54036 0.54098 0.0
O1278 O 0.06985 0.54653 0.50385 0.0
O1279 O 0.08441 0.5199 0.54168 0.0
C1280 C 0.07002 0.61845 0.45754 0.0
C1281 C 0.10517 0.61098 0.40983 0.0
C1282 C 0.08668 0.58431 0.41992 0.0
C1283 C 0.06911 0.58802 0.44357 0.0
C1284 C 0.08676 0.64498 0.44611 0.0
C1285 C 0.1042 0.64125 0.42219 0.0
C1286 C 0.05982 0.62275 0.48787 0.0
C1287 C 0.05032 0.61299 0.60208 0.0
C1288 C 0.12795 0.60128 0.57945 0.0
C1289 C 0.0381 0.50835 0.64481 0.0
C1290 C 1.0009 0.51843 0.69003 0.0
C1291 C 0.99653 0.5286 0.66126 0.0
C1292 C 1.01499 0.52355 0.6388 0.0
C1293 C 0.04123 0.49638 0.67265 0.0
C1294 C 1.02252 0.50128 0.6952 0.0
C1295 C 0.06087 0.50899 0.62332 0.0
H1296 H 0.08727 0.56078 0.41087 0.0
H1297 H 0.05642 0.56725 0.45223 0.0
H1298 H 0.08793 0.66861 0.45696 0.0
H1299 H 0.11798 0.66209 0.41428 0.0
H1300 H 0.98038 0.54224 0.65692 0.0
H1301 H 1.01232 0.53298 0.61732 0.0
H1302 H 0.05897 0.4846 0.6775 0.0
H1303 H 0.02595 0.493 0.71724 0.0
Dy1304 Dy 0.84064 0.79693 0.30882 0.0
Dy1305 Dy 0.78148 0.82787 0.30131 0.0
C1306 C 0.85101 0.8681 0.29334 0.0
O1307 O 0.83116 0.80688 0.35912 0.0
O1308 O 0.81092 0.8466 0.34934 0.0
O1309 O 0.89044 0.80388 0.32619 0.0
O1310 O 0.86267 0.7615 0.29328 0.0
O1311 O 0.76209 0.78155 0.31723 0.0
O1312 O 0.79966 0.7557 0.31298 0.0
O1313 O 0.78175 0.81013 0.25018 0.0
O1314 O 0.82363 0.78949 0.25649 0.0
O1315 O 0.73176 0.82306 0.28662 0.0
O1316 O 0.76204 0.86477 0.31901 0.0
C1317 C 0.82116 0.83088 0.36949 0.0
O1318 O 0.86153 0.84856 0.3083 0.0
O1319 O 0.82028 0.86303 0.28435 0.0
C1320 C 0.91445 0.78677 0.28358 0.0
C1321 C 0.95481 0.79917 0.23769 0.0
C1322 C 0.95122 0.82416 0.25877 0.0
C1323 C 0.93123 0.81807 0.28129 0.0
C1324 C 0.91816 0.76181 0.26264 0.0
C1325 C 0.93797 0.7679 0.23993 0.0
C1326 C 0.89124 0.78002 0.30577 0.0
C1327 C 0.77124 0.75627 0.31799 0.0
C1328 C 0.80104 0.7958 0.23843 0.0
C1329 C 0.71086 0.84104 0.33086 0.0
C1330 C 0.67204 0.82963 0.37823 0.0
C1331 C 0.68157 0.80523 0.36238 0.0
C1332 C 0.7005 0.81083 0.33898 0.0
C1333 C 0.70171 0.86556 0.3467 0.0
C1334 C 0.68242 0.85993 0.36994 0.0
C1335 C 0.73281 0.84732 0.30755 0.0
H1336 H 0.96346 0.84854 0.25752 0.0
H1337 H 0.92866 0.83796 0.29663 0.0
H1338 H 0.90539 0.73748 0.26358 0.0
H1339 H 0.94037 0.74805 0.22433 0.0
H1340 H 0.6746 0.78169 0.36812 0.0
H1341 H 0.70714 0.79143 0.32726 0.0
H1342 H 0.7095 0.88913 0.34111 0.0
H1343 H 0.67522 0.87929 0.38098 0.0
Dy1344 Dy 0.83823 0.32004 0.78245 0.0
Dy1345 Dy 0.79495 0.32663 0.83486 0.0
C1346 C 0.84492 0.3843 0.82295 0.0
O1347 O 0.86711 0.31275 0.82668 0.0
O1348 O 0.83131 0.30741 0.8609 0.0
O1349 O 0.88529 0.33888 0.77175 0.0
O1350 O 0.84829 0.30412 0.73686 0.0
O1351 O 0.77317 0.27801 0.80761 0.0
O1352 O 0.81307 0.26993 0.78199 0.0
O1353 O 0.7734 0.34551 0.79441 0.0
O1354 O 0.79163 0.32111 0.75434 0.0
O1355 O 0.74947 0.31315 0.8506 0.0
O1356 O 0.78825 0.35241 0.87765 0.0
C1357 C 0.85947 0.30682 0.85424 0.0
O1358 O 0.83828 0.36977 0.79393 0.0
O1359 O 0.83741 0.36849 0.84513 0.0
C1360 C 0.87838 0.34904 0.72032 0.0
C1361 C 0.8632 0.38614 0.67768 0.0
C1362 C 0.8703 0.39837 0.70994 0.0
C1363 C 0.87782 0.37994 0.73115 0.0
C1364 C 0.87411 0.338 0.68795 0.0
C1365 C 0.86655 0.35647 0.66671 0.0
C1366 C 0.87574 0.3264 0.74199 0.0
C1367 C 0.78503 0.25974 0.79001 0.0
C1368 C 0.77155 0.33575 0.76396 0.0
C1369 C 0.76234 0.31432 0.90393 0.0
C1370 C 0.77667 0.2864 0.95472 0.0
C1371 C 0.78141 0.27473 0.92492 0.0
C1372 C 0.77391 0.28832 0.89968 0.0
C1373 C 0.75741 0.32614 0.9337 0.0
C1374 C 0.7641 0.31175 0.95914 0.0
C1375 C 0.76128 0.3313 0.87797 0.0
H1376 H 0.86784 0.42119 0.71885 0.0
H1377 H 0.88088 0.3891 0.75604 0.0
H1378 H 0.87425 0.31423 0.67917 0.0
H1379 H 0.86169 0.3469 0.64175 0.0
H1380 H 0.79046 0.25473 0.92108 0.0
H1381 H 0.77795 0.27898 0.87683 0.0
H1382 H 0.74909 0.34662 0.93729 0.0
H1383 H 0.75998 0.32055 0.98217 0.0
Dy1384 Dy 0.78938 0.79074 0.78811 0.0
Dy1385 Dy 0.83202 0.85669 0.82496 0.0
C1386 C 0.81129 0.80202 0.86534 0.0
O1387 O 0.74881 0.81035 0.80265 0.0
O1388 O 0.78017 0.85938 0.82831 0.0
O1389 O 0.75146 0.74661 0.78401 0.0
O1390 O 0.78313 0.75163 0.75021 0.0
O1391 O 0.82674 0.86238 0.77318 0.0
O1392 O 0.78588 0.81841 0.74926 0.0
O1393 O 0.87259 0.83622 0.81419 0.0
O1394 O 0.84171 0.78989 0.78329 0.0
O1395 O 0.87311 0.89826 0.82996 0.0
O1396 O 0.83996 0.89639 0.86241 0.0
C1397 C 0.75103 0.83824 0.8197 0.0
O1398 O 0.7924 0.78565 0.83924 0.0
O1399 O 0.83227 0.82932 0.86496 0.0
C1400 C 0.77667 0.70827 0.77507 0.0
C1401 C 0.80872 0.66854 0.79809 0.0
C1402 C 0.81378 0.69868 0.81508 0.0
C1403 C 0.79842 0.7184 0.80336 0.0
C1404 C 0.7713 0.67795 0.75774 0.0
C1405 C 0.78762 0.65807 0.76919 0.0
C1406 C 0.76361 0.73187 0.76346 0.0
C1407 C 0.80681 0.84535 0.74761 0.0
C1408 C 0.87088 0.80996 0.7949 0.0
C1409 C 0.85206 0.94028 0.83854 0.0
C1410 C 0.80602 0.96697 0.81603 0.0
C1411 C 0.81821 0.94895 0.79496 0.0
C1412 C 0.84179 0.93669 0.80606 0.0
C1413 C 0.84239 0.96083 0.85943 0.0
C1414 C 0.81978 0.97452 0.84816 0.0
C1415 C 0.86166 0.91461 0.84983 0.0
H1416 H 0.83074 0.70757 0.83687 0.0
H1417 H 0.8048 0.74217 0.81596 0.0
H1418 H 0.75538 0.67011 0.73531 0.0
H1419 H 0.78404 0.63485 0.75559 0.0
H1420 H 0.80839 0.94261 0.7701 0.0
H1421 H 0.84942 0.92155 0.78934 0.0
H1422 H 0.85001 0.96392 0.88459 0.0
H1423 H 0.81203 0.98971 0.86485 0.0
Dy1424 Dy 0.59071 0.5863 0.57389 0.0
Dy1425 Dy 0.52764 0.54228 0.53638 0.0
C1426 C 0.58294 0.56113 0.49775 0.0
O1427 O 0.5675 0.62525 0.56541 0.0
O1428 O 0.52848 0.59314 0.52656 0.0
O1429 O 0.63293 0.62621 0.57708 0.0
O1430 O 0.63097 0.59495 0.61083 0.0
O1431 O 0.52004 0.54635 0.58803 0.0
O1432 O 0.56241 0.58822 0.61298 0.0
O1433 O 0.5478 0.50265 0.54763 0.0
O1434 O 0.59258 0.53509 0.58023 0.0
O1435 O 0.48216 0.50667 0.53407 0.0
O1436 O 0.49114 0.53095 0.49504 0.0
C1437 C 0.54458 0.62252 0.54161 0.0
O1438 O 0.59562 0.58418 0.52209 0.0
O1439 O 0.5591 0.53693 0.5005 0.0
C1440 C 0.67534 0.60535 0.58609 0.0
C1441 C 0.70966 0.56674 0.56177 0.0
C1442 C 0.69292 0.58055 0.54155 0.0
C1443 C 0.67592 0.59969 0.55357 0.0
C1444 C 0.69394 0.59343 0.60652 0.0
C1445 C 0.71082 0.57408 0.59445 0.0
C1446 C 0.64932 0.61537 0.59716 0.0
C1447 C 0.53555 0.56668 0.61391 0.0
C1448 C 0.57353 0.50565 0.56813 0.0
C1449 C 0.44816 0.5341 0.51821 0.0
C1450 C 0.41519 0.57729 0.5316 0.0
C1451 C 0.44495 0.58164 0.54924 0.0
C1452 C 0.46101 0.56022 0.54272 0.0
C1453 C 0.41826 0.52921 0.50033 0.0
C1454 C 0.40159 0.5508 0.50721 0.0
C1455 C 0.46959 0.51627 0.51018 0.0
H1456 H 0.69227 0.57594 0.51635 0.0
H1457 H 0.66163 0.6083 0.53706 0.0
H1458 H 0.69338 0.597 0.63154 0.0
H1459 H 0.72344 0.56362 0.61062 0.0
H1460 H 0.45643 0.60222 0.56752 0.0
H1461 H 0.48447 0.56522 0.55604 0.0
H1462 H 0.40835 0.50948 0.48092 0.0
H1463 H 0.3784 0.54704 0.49341 0.0
Dy1464 Dy 0.02448 0.5653 0.07205 0.0
Dy1465 Dy 0.09618 0.57889 0.04995 0.0
C1466 C 0.03851 0.57993 1.00608 0.0
O1467 O 0.02504 0.51388 0.06097 0.0
O1468 O 0.0716 0.52473 0.03999 0.0
O1469 O 0.97345 0.5513 0.05704 0.0
O1470 O 0.99411 0.57616 0.10448 0.0
O1471 O 0.09211 0.58828 0.09997 0.0
O1472 O 0.05185 0.54923 0.10862 0.0
O1473 O 0.0949 0.63019 0.05945 0.0
O1474 O 0.04905 0.61973 0.08173 0.0
O1475 O 0.14585 0.58978 0.07009 0.0
O1476 O 0.13031 0.57167 0.0202 0.0
C1477 C 0.04621 0.5039 0.04675 0.0
O1478 O 0.02612 0.55744 0.02116 0.0
O1479 O 0.06927 0.59347 1.01148 0.0
C1480 C 0.95297 0.59166 0.07766 0.0
C1481 C 0.92137 0.63684 0.0662 0.0
C1482 C 0.94591 0.63354 0.04988 0.0
C1483 C 0.96225 0.61211 0.05637 0.0
C1484 C 0.92867 0.595 0.09434 0.0
C1485 C 0.91329 0.61768 0.08898 0.0
C1486 C 0.96895 0.56733 0.08249 0.0
C1487 C 0.08197 0.56505 0.11475 0.0
C1488 C 0.0741 0.64038 0.07416 0.0
C1489 C 0.16853 0.55162 0.04703 0.0
C1490 C 0.19764 0.50285 0.0513 0.0
C1491 C 0.18502 0.51458 0.07674 0.0
C1492 C 0.17061 0.53848 0.07458 0.0
C1493 C 0.18105 0.53992 0.0216 0.0
C1494 C 0.19536 0.51591 0.02366 0.0
C1495 C 0.15295 0.5769 0.04435 0.0
H1496 H 0.9526 0.64777 0.03216 0.0
H1497 H 0.98222 0.61159 0.04473 0.0
H1498 H 0.92147 0.57997 0.11136 0.0
H1499 H 0.89431 0.61941 0.10184 0.0
H1500 H 0.18597 0.50511 0.09834 0.0
H1501 H 0.16099 0.5465 0.09454 0.0
H1502 H 0.17987 0.54945 1.00004 0.0
H1503 H 0.20528 0.50811 1.0037 0.0
C1504 C 0.04398 0.21224 0.03963 0.0
C1505 C 0.02563 0.21102 1.00988 0.0
H1506 H 0.06467 0.18819 0.07272 0.0
C1507 C 1.01366 0.17991 0.99142 0.0
H1508 H 0.05425 0.23491 0.05521 0.0
C1509 C 1.01918 0.15232 1.00203 0.0
C1510 C 0.03775 0.15358 0.03169 0.0
H1511 H 0.99954 0.17664 0.96842 0.0
H1512 H 1.00902 0.12967 0.9864 0.0
C1513 C 0.05011 0.18478 0.04993 0.0
C1514 C 0.22033 0.83831 0.18493 0.0
C1515 C 0.19622 0.84985 0.19547 0.0
H1516 H 0.26265 0.82485 0.1971 0.0
C1517 C 0.19832 0.85751 0.22845 0.0
H1518 H 0.21969 0.83166 0.15994 0.0
C1519 C 0.22289 0.85338 0.24985 0.0
C1520 C 0.24671 0.84134 0.23945 0.0
H1521 H 0.18032 0.86604 0.23797 0.0
H1522 H 0.22275 0.85917 0.2748 0.0
C1523 C 0.24506 0.8342 0.20645 0.0
C1524 C 0.5611 0.92703 0.50878 0.0
C1525 C 0.53653 0.90149 0.51502 0.0
H1526 H 0.58287 0.97706 0.51223 0.0
C1527 C 0.51467 0.91058 0.53261 0.0
H1528 H 0.57824 0.92202 0.49484 0.0
C1529 C 0.51713 0.94338 0.5426 0.0
C1530 C 0.54151 0.96873 0.5354 0.0
H1531 H 0.49465 0.89239 0.53735 0.0
H1532 H 0.49947 0.9488 0.5555 0.0
C1533 C 0.56359 0.9593 0.51865 0.0
C1534 C 0.49069 0.29051 0.66341 0.0
C1535 C 0.51821 0.31704 0.66921 0.0
H1536 H 0.44959 0.26447 0.68063 0.0
C1537 C 0.52396 0.33913 0.69721 0.0
H1538 H 0.4854 0.27302 0.64219 0.0
C1539 C 0.5029 0.33458 0.71896 0.0
C1540 C 0.47612 0.30737 0.71366 0.0
H1541 H 0.54484 0.35989 0.70237 0.0
H1542 H 0.50807 0.35189 0.74039 0.0
C1543 C 0.47019 0.2855 0.68554 0.0
C1544 C 0.03952 0.86 0.67047 0.0
C1545 C 0.06458 0.8627 0.69485 0.0
H1546 H 0.02417 0.87724 0.62944 0.0
C1547 C 0.09409 0.8857 0.69606 0.0
H1548 H 1.01654 0.8424 0.6688 0.0
C1549 C 0.0987 0.90505 0.6732 0.0
C1550 C 0.07374 0.90241 0.64877 0.0
H1551 H 0.11407 0.8881 0.71403 0.0
H1552 H 0.12191 0.92221 0.67469 0.0
C1553 C 0.04389 0.87995 0.64797 0.0
C1554 C 0.4696 0.87463 0.86618 0.0
C1555 C 0.48741 0.85613 0.85257 0.0
H1556 H 0.4247 0.88475 0.86646 0.0
C1557 C 0.46944 0.83142 0.82732 0.0
H1558 H 0.48138 0.89324 0.88625 0.0
C1559 C 0.43586 0.82539 0.81682 0.0
C1560 C 0.41819 0.84421 0.83028 0.0
H1561 H 0.48103 0.81559 0.81645 0.0
H1562 H 0.42359 0.80558 0.79801 0.0
C1563 C 0.43645 0.8695 0.85484 0.0
C1564 C 0.52436 0.15914 0.1756 0.0
C1565 C 0.53088 0.19098 0.17126 0.0
H1566 H 0.52455 0.11165 0.15778 0.0
C1567 C 0.54417 0.19826 0.14424 0.0
H1568 H 0.5151 0.15235 0.19637 0.0
C1569 C 0.54858 0.17474 0.12152 0.0
C1570 C 0.54163 0.14285 0.12547 0.0
H1571 H 0.55167 0.22256 0.14071 0.0
H1572 H 0.55842 0.18185 0.1011 0.0
C1573 C 0.52983 0.13564 0.1533 0.0
C1574 C 0.16755 0.32619 0.34982 0.0
C1575 C 0.16241 0.35628 0.35041 0.0
H1576 H 0.1963 0.29537 0.33928 0.0
C1577 C 0.18719 0.37878 0.33992 0.0
H1578 H 0.14987 0.30744 0.357 0.0
C1579 C 0.21507 0.37197 0.33042 0.0
C1580 C 0.21986 0.34166 0.32932 0.0
H1581 H 0.1853 0.40225 0.33932 0.0
H1582 H 0.23283 0.39069 0.32328 0.0
C1583 C 0.19477 0.31905 0.33923 0.0
C1584 C 0.98239 0.04137 0.17698 0.0
C1585 C 1.00334 0.05503 0.20586 0.0
H1586 H 0.9756 0.03399 0.12618 0.0
C1587 C 0.03451 0.07351 0.20411 0.0
H1588 H 0.95822 0.02694 0.17698 0.0
C1589 C 0.04435 0.07807 0.17485 0.0
C1590 C 0.02365 0.06387 0.14591 0.0
H1591 H 0.05154 0.08454 0.22552 0.0
H1592 H 0.06864 0.09225 0.17495 0.0
C1593 C 0.99242 0.04543 0.14763 0.0
C1594 C 0.31777 0.75484 0.52025 0.0
C1595 C 0.28956 0.73181 0.52261 0.0
H1596 H 0.33824 0.79556 0.50028 0.0
C1597 C 0.25997 0.73498 0.51147 0.0
H1598 H 0.34082 0.75297 0.52944 0.0
C1599 C 0.25848 0.75979 0.496 0.0
C1600 C 0.28661 0.78129 0.49116 0.0
H1601 H 0.23802 0.71816 0.51433 0.0
H1602 H 0.23537 0.76056 0.48553 0.0
C1603 C 0.31632 0.77943 0.50435 0.0
C1604 C 0.62057 0.02346 0.66748 0.0
C1605 C 0.65109 0.04571 0.67544 0.0
H1606 H 0.57387 1.01151 0.64026 0.0
C1607 C 0.65951 0.07097 0.65921 0.0
H1608 H 0.61365 1.00409 0.68025 0.0
C1609 C 0.63653 0.07629 0.6382 0.0
C1610 C 0.6054 0.05535 0.63173 0.0
H1611 H 0.68268 0.08886 0.66549 0.0
H1612 H 0.64289 0.09774 0.62836 0.0
C1613 C 0.59776 0.02813 0.64537 0.0
C1614 C 0.29585 0.36313 0.94583 0.0
C1615 C 0.31988 0.36237 0.96964 0.0
H1616 H 0.27666 0.35344 0.89679 0.0
C1617 C 0.34248 0.3477 0.96073 0.0
H1618 H 0.27838 0.37466 0.95156 0.0
C1619 C 0.34175 0.33552 0.92864 0.0
C1620 C 0.31866 0.3382 0.90473 0.0
H1621 H 0.36197 0.34758 0.97823 0.0
H1622 H 0.36027 0.32573 0.92245 0.0
C1623 C 0.29519 0.35126 0.91416 0.0
C1624 C 0.02804 0.02706 0.40121 0.0
C1625 C 1.01544 0.05046 0.39136 0.0
H1626 H 0.04843 1.00984 0.44029 0.0
C1627 C 1.01646 0.07613 0.41441 0.0
H1628 H 0.02656 1.00631 0.38441 0.0
C1629 C 0.02817 0.07778 0.4463 0.0
C1630 C 0.03935 0.05376 0.45661 0.0
H1631 H 1.0063 0.09416 0.40799 0.0
H1632 H 0.02742 0.09758 0.46316 0.0
C1633 C 0.04019 0.02887 0.4334 0.0
C1634 C 0.31881 0.72071 0.70062 0.0
C1635 C 0.34386 0.73042 0.68401 0.0
H1636 H 0.28957 0.73504 0.73069 0.0
C1637 C 0.36377 0.76207 0.69119 0.0
H1638 H 0.30285 0.69661 0.69544 0.0
C1639 C 0.35633 0.78444 0.71197 0.0
C1640 C 0.32882 0.77526 0.72546 0.0
H1641 H 0.38318 0.77009 0.67843 0.0
H1642 H 0.37102 0.80899 0.7161 0.0
C1643 C 0.31079 0.74306 0.72039 0.0
C1644 C 0.64117 0.1048 0.83726 0.0
C1645 C 0.66783 0.09556 0.84741 0.0
H1646 H 0.60194 0.11916 0.85054 0.0
C1647 C 0.67485 0.09229 0.8788 0.0
H1648 H 0.63574 0.10798 0.81317 0.0
C1649 C 0.65524 0.09826 0.89989 0.0
C1650 C 0.62909 0.10815 0.88968 0.0
H1651 H 0.69539 0.08525 0.8869 0.0
H1652 H 0.66075 0.09583 0.92421 0.0
C1653 C 0.62203 0.11135 0.85842 0.0
C1654 C 0.33064 0.39179 0.18375 0.0
C1655 C 0.31675 0.37147 0.1546 0.0
H1656 H 0.33812 0.39775 0.23436 0.0
C1657 C 0.2977 0.34044 0.15573 0.0
H1658 H 0.34543 0.4158 0.18426 0.0
C1659 C 0.29294 0.33015 0.18475 0.0
C1660 C 0.30755 0.35026 0.21389 0.0
H1661 H 0.28646 0.32391 0.13404 0.0
H1662 H 0.27847 0.30604 0.1843 0.0
C1663 C 0.3264 0.38133 0.21271 0.0
C1664 C 0.24657 0.02098 1.00807 0.0
C1665 C 0.25868 1.00232 0.02647 0.0
H1666 H 0.22249 0.0557 1.00678 0.0
C1667 C 0.25337 1.00249 0.05769 0.0
H1668 H 0.25036 0.02127 0.98397 0.0
C1669 C 0.23768 0.02249 0.07083 0.0
C1670 C 0.22699 0.04215 0.05276 0.0
H1671 H 0.26274 0.98849 0.07247 0.0
H1672 H 0.23395 0.02264 0.09498 0.0
C1673 C 0.231 0.04088 0.02119 0.0
C1674 C 0.67143 0.67836 0.02088 0.0
C1675 C 0.70166 0.67538 0.02972 0.0
H1676 H 0.621 0.65817 0.01768 0.0
C1677 C 0.70383 0.64886 0.04289 0.0
H1678 H 0.66906 0.69879 1.01124 0.0
C1679 C 0.67646 0.62531 0.04626 0.0
C1680 C 0.64611 0.62817 0.03751 0.0
H1681 H 0.72689 0.64655 0.05116 0.0
H1682 H 0.67918 0.60531 0.05651 0.0
C1683 C 0.64396 0.65497 0.0246 0.0
C1684 C 0.70529 0.51855 0.28747 0.0
C1685 C 0.68888 0.51635 0.31303 0.0
H1686 H 0.7383 0.50331 0.26274 0.0
C1687 C 0.69029 0.49307 0.33123 0.0
H1688 H 0.70553 0.53712 0.27381 0.0
C1689 C 0.70859 0.47293 0.32451 0.0
C1690 C 0.72693 0.47644 0.30014 0.0
H1691 H 0.6784 0.49141 0.35152 0.0
H1692 H 0.70917 0.45537 0.3392 0.0
C1693 C 0.72426 0.49909 0.28125 0.0
C1694 C 0.92704 0.47537 0.51089 0.0
C1695 C 0.90529 0.49042 0.52021 0.0
H1696 H 0.97617 0.48017 0.51004 0.0
C1697 C 0.91582 0.522 0.53576 0.0
H1698 H 0.91909 0.45074 0.49947 0.0
C1699 C 0.94793 0.53889 0.54113 0.0
C1700 C 0.96977 0.52377 0.53227 0.0
H1701 H 0.89929 0.53341 0.54438 0.0
H1702 H 0.95577 0.56323 0.55342 0.0
C1703 C 0.95935 0.49207 0.51695 0.0
C1704 C 0.34372 0.10271 0.30962 0.0
C1705 C 0.36535 0.11731 0.33748 0.0
H1706 H 0.30712 0.10637 0.27508 0.0
C1707 C 0.3689 0.14848 0.35097 0.0
H1708 H 0.34123 0.07869 0.29875 0.0
C1709 C 0.34988 0.16464 0.33702 0.0
C1710 C 0.32708 0.1495 0.30975 0.0
H1711 H 0.38602 0.16009 0.37219 0.0
H1712 H 0.35276 0.1888 0.34766 0.0
C1713 C 0.32453 0.11858 0.29595 0.0
C1714 C 0.36345 0.16838 0.51818 0.0
C1715 C 0.35643 0.18992 0.54066 0.0
H1716 H 0.38861 0.13517 0.50896 0.0
C1717 C 0.37401 0.1977 0.57134 0.0
H1718 H 0.3505 0.16189 0.49427 0.0
C1719 C 0.39637 0.18223 0.57983 0.0
C1720 C 0.40158 0.15902 0.55769 0.0
H1721 H 0.36912 0.21415 0.58919 0.0
H1722 H 0.40881 0.18768 0.60389 0.0
C1723 C 0.38552 0.15307 0.52659 0.0
C1724 C 0.69908 0.70193 0.34363 0.0
C1725 C 0.70018 0.6719 0.33089 0.0
H1726 H 0.72161 0.75215 0.35083 0.0
C1727 C 0.72499 0.66984 0.31427 0.0
H1728 H 0.68016 0.70421 0.35636 0.0
C1729 C 0.74868 0.69709 0.31109 0.0
C1730 C 0.74774 0.72722 0.32379 0.0
H1731 H 0.72598 0.64698 0.30346 0.0
H1732 H 0.76727 0.69455 0.29797 0.0
C1733 C 0.72277 0.72931 0.34032 0.0
C1734 C 0.87582 0.46967 0.81722 0.0
C1735 C 0.89787 0.4812 0.84531 0.0
H1736 H 0.84205 0.4289 0.78749 0.0
C1737 C 0.90258 0.46103 0.86578 0.0
H1738 H 0.8721 0.48536 0.80124 0.0
C1739 C 0.88327 0.42977 0.85933 0.0
C1740 C 0.8623 0.41775 0.83071 0.0
H1741 H 0.91976 0.46978 0.88735 0.0
H1742 H 0.88414 0.41517 0.87685 0.0
C1743 C 0.85865 0.43775 0.8095 0.0
C1744 C 0.06077 0.91645 0.0773 0.0
C1745 C 0.08849 0.91547 0.09699 0.0
H1746 H 0.03447 0.94295 0.05355 0.0
C1747 C 0.11195 0.94582 0.10717 0.0
H1748 H 0.04146 0.89467 0.06852 0.0
C1749 C 0.10774 0.97465 0.09811 0.0
C1750 C 0.07981 0.97521 0.07822 0.0
H1751 H 0.1339 0.94745 0.1221 0.0
H1752 H 0.12668 0.99671 0.10679 0.0
C1753 C 0.05661 0.9449 0.06837 0.0
C1754 C 0.91103 0.30573 0.93361 0.0
C1755 C 0.93501 0.29344 0.92383 0.0
H1756 H 0.86902 0.31954 0.92026 0.0
C1757 C 0.93123 0.28221 0.89119 0.0
H1758 H 0.91234 0.31425 0.95838 0.0
C1759 C 0.9069 0.28614 0.86911 0.0
C1760 C 0.88393 0.30011 0.87856 0.0
H1761 H 0.9481 0.27141 0.88241 0.0
H1762 H 0.90652 0.27865 0.84432 0.0
C1763 C 0.88601 0.30888 0.9115 0.0
C1764 C 0.59688 0.23213 0.57752 0.0
C1765 C 0.58707 0.24377 0.60532 0.0
H1766 H 0.60086 0.19165 0.54652 0.0
C1767 C 0.57321 0.22057 0.6229 0.0
H1768 H 0.60844 0.24872 0.56344 0.0
C1769 C 0.56844 0.18769 0.61299 0.0
C1770 C 0.57845 0.17586 0.58547 0.0
H1771 H 0.5658 0.22794 0.64472 0.0
H1772 H 0.55737 0.17141 0.62759 0.0
C1773 C 0.59282 0.19906 0.56793 0.0
C1774 C 0.6022 0.78956 0.41708 0.0
C1775 C 0.6023 0.81412 0.44089 0.0
H1776 H 0.62323 0.77523 0.37835 0.0
C1777 C 0.62786 0.84238 0.44661 0.0
H1778 H 0.58212 0.76804 0.41121 0.0
C1779 C 0.6516 0.84677 0.4276 0.0
C1780 C 0.65008 0.82316 0.40197 0.0
H1781 H 0.628 0.86215 0.46404 0.0
H1782 H 0.67026 0.86932 0.4321 0.0
C1783 C 0.62572 0.79397 0.3979 0.0
C1784 C 0.08365 0.27464 0.45661 0.0
C1785 C 0.06165 0.27327 0.42999 0.0
H1786 H 0.09472 0.25408 0.49623 0.0
C1787 C 0.0336 0.24732 0.42188 0.0
H1788 H 0.10539 0.2944 0.46362 0.0
C1789 C 0.02723 0.22394 0.44096 0.0
C1790 C 0.04902 0.22593 0.4682 0.0
H1791 H 1.01598 0.24587 0.40173 0.0
H1792 H 1.00514 0.20456 0.43462 0.0
C1793 C 0.07752 0.25136 0.47533 0.0
C1794 C 0.65885 0.26667 0.24508 0.0
C1795 C 0.64279 0.28687 0.25879 0.0
H1796 H 0.70286 0.25518 0.24341 0.0
C1797 C 0.6619 0.31235 0.28263 0.0
H1798 H 0.64558 0.24672 0.22675 0.0
C1799 C 0.69537 0.31779 0.29157 0.0
C1800 C 0.71128 0.29735 0.27805 0.0
H1801 H 0.65113 0.32876 0.29389 0.0
H1802 H 0.70891 0.33818 0.30932 0.0
C1803 C 0.69204 0.27147 0.2548 0.0
C1804 C 0.58055 0.94739 0.96759 0.0
C1805 C 0.58786 0.95305 0.93765 0.0
H1806 H 0.57061 0.96496 0.01259 0.0
C1807 C 0.59158 0.98435 0.9322 0.0
H1808 H 0.577 0.92397 0.97331 0.0
C1809 C 0.58794 1.00842 0.95533 0.0
C1810 C 0.57991 1.00238 0.98496 0.0
H1811 H 0.59691 0.99026 0.90974 0.0
H1812 H 0.59106 0.03182 0.94976 0.0
C1813 C 0.57661 0.97124 0.99044 0.0
C1814 C 0.96273 0.82186 0.78957 0.0
C1815 C 0.96432 0.79521 0.76839 0.0
H1816 H 0.93521 0.8473 0.81388 0.0
C1817 C 0.93356 0.7728 0.75614 0.0
H1818 H 0.98466 0.84037 0.80012 0.0
C1819 C 0.90401 0.77693 0.76455 0.0
C1820 C 0.90277 0.80381 0.78581 0.0
H1821 H 0.9321 0.75173 0.73986 0.0
H1822 H 0.88184 0.75875 0.75404 0.0
C1823 C 0.9335 0.82599 0.79779 0.0
C1824 C 0.13653 0.0995 0.94174 0.0
C1825 C 0.12166 0.08176 0.91155 0.0
H1826 H 0.13645 0.10803 0.99123 0.0
C1827 C 0.09271 0.05739 0.90991 0.0
H1828 H 0.15888 0.11827 0.9447 0.0
C1829 C 0.07974 0.05096 0.93766 0.0
C1830 C 0.09515 0.06894 0.96778 0.0
H1831 H 0.08059 0.04274 0.88744 0.0
H1832 H 0.05766 0.03196 0.9355 0.0
C1833 C 0.1236 0.09343 0.96894 0.0
C1834 C 0.85214 0.44932 0.6322 0.0
C1835 C 0.82592 0.43148 0.60903 0.0
H1836 H 0.88503 0.44853 0.67226 0.0
C1837 C 0.80974 0.40014 0.61126 0.0
H1838 H 0.86507 0.47352 0.63094 0.0
C1839 C 0.82148 0.38583 0.63429 0.0
C1840 C 0.84935 0.40273 0.6557 0.0
H1841 H 0.78928 0.38591 0.59388 0.0
H1842 H 0.80939 0.36118 0.63469 0.0
C1843 C 0.86377 0.43499 0.65554 0.0
C1844 C 0.50138 0.10384 0.4337 0.0
C1845 C 0.46946 0.09187 0.43824 0.0
H1846 H 0.55073 0.11057 0.4514 0.0
C1847 C 0.46336 0.08033 0.46582 0.0
H1848 H 0.50687 0.11316 0.41264 0.0
C1849 C 0.48778 0.07617 0.48579 0.0
C1850 C 0.51941 0.08693 0.48098 0.0
H1851 H 0.43935 0.07163 0.47064 0.0
H1852 H 0.48156 0.06365 0.50476 0.0
C1853 C 0.52639 0.10171 0.45529 0.0
C1854 C 0.79541 0.7966 0.1495 0.0
C1855 C 0.79515 0.76566 0.13731 0.0
H1856 H 0.79641 0.83017 0.19057 0.0
C1857 C 0.79595 0.74485 0.15877 0.0
H1858 H 0.79457 0.81328 0.13381 0.0
C1859 C 0.79767 0.75474 0.19125 0.0
C1860 C 0.79753 0.78545 0.20344 0.0
H1861 H 0.79561 0.72083 0.15049 0.0
H1862 H 0.79883 0.73811 0.20694 0.0
C1863 C 0.79613 0.80622 0.18204 0.0
C1864 C 0.09365 0.04902 0.70384 0.0
C1865 C 0.11059 0.07824 0.7233 0.0
H1866 H 0.07092 0.02405 0.65723 0.0
C1867 C 0.11594 0.10568 0.70949 0.0
H1868 H 0.0893 0.02739 0.71348 0.0
C1869 C 0.1046 0.10398 0.67726 0.0
C1870 C 0.08838 0.07462 0.65749 0.0
H1871 H 0.12885 0.12863 0.72376 0.0
H1872 H 0.1093 0.12563 0.66766 0.0
C1873 C 0.08314 0.04719 0.67144 0.0
C1874 C 0.77571 0.39584 0.40931 0.0
C1875 C 0.7992 0.40212 0.43569 0.0
H1876 H 0.75603 0.36786 0.36383 0.0
C1877 C 0.81884 0.38271 0.43868 0.0
H1878 H 0.76021 0.41047 0.40709 0.0
C1879 C 0.81691 0.35873 0.414 0.0
C1880 C 0.79514 0.35409 0.38644 0.0
H1881 H 0.83721 0.3876 0.45916 0.0
H1882 H 0.83424 0.34597 0.41541 0.0
C1883 C 0.77326 0.37141 0.38495 0.0
C1884 C 0.47685 0.07537 0.25491 0.0
C1885 C 0.45014 0.0539 0.26234 0.0
H1886 H 0.5118 0.08273 0.22467 0.0
C1887 C 0.43701 0.02339 0.24403 0.0
H1888 H 0.4874 0.0989 0.2689 0.0
C1889 C 0.45148 1.01391 0.21956 0.0
C1890 C 0.47868 0.03512 0.21286 0.0
H1891 H 0.41664 1.00627 0.24969 0.0
H1892 H 0.4418 0.99006 0.20617 0.0
C1893 C 0.49087 0.0661 0.22999 0.0
C1894 C 0.81204 0.79222 0.95311 0.0
C1895 C 0.79494 0.75971 0.94992 0.0
H1896 H 0.83138 0.8313 0.92935 0.0
C1897 C 0.78431 0.7423 0.91892 0.0
H1898 H 0.82092 0.80659 0.97633 0.0
C1899 C 0.79029 0.75617 0.89247 0.0
C1900 C 0.8074 0.78837 0.89521 0.0
H1901 H 0.77105 0.71731 0.9147 0.0
H1902 H 0.7813 0.74123 0.86953 0.0
C1903 C 0.81834 0.80633 0.92608 0.0
C1904 C 0.88307 0.1336 0.07873 0.0
C1905 C 0.86623 0.14257 0.05426 0.0
H1906 H 0.90998 0.10333 0.0909 0.0
C1907 C 0.86763 0.13196 0.02282 0.0
H1908 H 0.88151 0.14109 0.10308 0.0
C1909 C 0.88375 0.11034 0.01577 0.0
C1910 C 0.89834 0.09919 0.04015 0.0
H1911 H 0.85436 0.13867 1.00377 0.0
H1912 H 0.88405 0.10171 0.99136 0.0
C1913 C 0.89877 0.11165 0.07169 0.0
C1914 C 0.42493 0.48506 0.08842 0.0
C1915 C 0.41734 0.45355 0.07276 0.0
H1916 H 0.45831 0.53203 0.098 0.0
C1917 C 0.4402 0.44448 0.05764 0.0
H1918 H 0.40796 0.49245 0.10099 0.0
C1919 C 0.4689 0.46711 0.05571 0.0
C1920 C 0.47564 0.49929 0.06931 0.0
H1921 H 0.43516 0.42025 0.04584 0.0
H1922 H 0.48535 0.45944 0.04259 0.0
C1923 C 0.45376 0.50773 0.0867 0.0
C1924 C 0.42027 0.62406 0.77966 0.0
C1925 C 0.43872 0.62147 0.80718 0.0
H1926 H 0.38631 0.64467 0.75956 0.0
C1927 C 0.44034 0.64176 0.83532 0.0
H1928 H 0.41765 0.60787 0.75792 0.0
C1929 C 0.42233 0.66279 0.83641 0.0
C1930 C 0.40176 0.66365 0.80947 0.0
H1931 H 0.45373 0.63966 0.85703 0.0
H1932 H 0.42337 0.67727 0.85879 0.0
C1933 C 0.40199 0.64495 0.78076 0.0
C1934 C 0.20239 0.67071 0.59389 0.0
C1935 C 0.22531 0.6557 0.60046 0.0
H1936 H 0.15283 0.66475 0.5818 0.0
C1937 C 0.21621 0.62461 0.60631 0.0
H1938 H 0.20926 0.695 0.59007 0.0
C1939 C 0.18408 0.60726 0.60181 0.0
C1940 C 0.161 0.62096 0.59118 0.0
H1941 H 0.23395 0.61314 0.61242 0.0
H1942 H 0.17757 0.58258 0.60428 0.0
C1943 C 0.17026 0.65332 0.58904 0.0
C1944 C 0.75502 1.0023 0.76631 0.0
C1945 C 0.73673 1.01022 0.78805 0.0
H1946 H 0.79299 0.98398 0.75887 0.0
C1947 C 0.73638 0.99849 0.81618 0.0
H1948 H 0.75565 1.0118 0.74467 0.0
C1949 C 0.75718 0.98179 0.82419 0.0
C1950 C 0.77917 0.97788 0.80456 0.0
H1951 H 0.72233 1.00483 0.83316 0.0
H1952 H 0.75753 0.97399 0.84669 0.0
C1953 C 0.77658 0.98659 0.7747 0.0
C1954 C 0.73526 0.93836 0.52985 0.0
C1955 C 0.75615 0.9407 0.55764 0.0
H1956 H 0.70022 0.95573 0.50651 0.0
C1957 C 0.75481 0.96068 0.58489 0.0
H1958 H 0.73646 0.92381 0.5083 0.0
C1959 C 0.7347 0.97975 0.58374 0.0
C1960 C 0.71561 0.97934 0.55523 0.0
H1961 H 0.77151 0.96382 0.6063 0.0
H1962 H 0.73603 0.99655 0.60462 0.0
C1963 C 0.71505 0.95725 0.5287 0.0
C1964 C 0.38849 0.45096 0.77295 0.0
C1965 C 0.42024 0.4583 0.78811 0.0
H1966 H 0.34109 0.41802 0.76387 0.0
C1967 C 0.4293 0.43557 0.8028 0.0
H1968 H 0.38114 0.46786 0.76066 0.0
C1969 C 0.40644 0.40723 0.80485 0.0
C1970 C 0.37403 0.40071 0.79179 0.0
H1971 H 0.45371 0.44042 0.81417 0.0
H1972 H 0.41418 0.39086 0.81762 0.0
C1973 C 0.36556 0.42245 0.77478 0.0
C1974 C 0.21542 0.6846 0.27112 0.0
C1975 C 0.23032 0.66279 0.26004 0.0
H1976 H 0.22086 0.7332 0.28711 0.0
C1977 C 0.25973 0.6731 0.25004 0.0
H1978 H 0.19219 0.67676 0.27799 0.0
C1979 C 0.27617 0.7053 0.255 0.0
C1980 C 0.26314 0.72714 0.27003 0.0
H1981 H 0.27078 0.65622 0.24019 0.0
H1982 H 0.29988 0.71281 0.24914 0.0
C1983 C 0.23186 0.71677 0.27627 0.0
C1984 C 0.51354 0.67965 0.49088 0.0
C1985 C 0.52538 0.71062 0.50966 0.0
H1986 H 0.50901 0.62939 0.48528 0.0
C1987 C 0.54353 0.71151 0.53942 0.0
H1988 H 0.49956 0.67662 0.46785 0.0
C1989 C 0.54962 0.68391 0.5494 0.0
C1990 C 0.53747 0.65286 0.53081 0.0
H1991 H 0.55368 0.73403 0.55526 0.0
H1992 H 0.56404 0.68708 0.57224 0.0
C1993 C 0.51906 0.6519 0.50115 0.0
C1994 C 0.71896 0.33653 0.68564 0.0
C1995 C 0.69583 0.34976 0.69594 0.0
H1996 H 0.76037 0.32174 0.69813 0.0
C1997 C 0.69883 0.35914 0.72884 0.0
H1998 H 0.71759 0.32851 0.66075 0.0
C1999 C 0.72335 0.35511 0.7504 0.0
C2000 C 0.74614 0.34133 0.74025 0.0
H2001 H 0.6816 0.36905 0.73819 0.0
H2002 H 0.724 0.36235 0.7753 0.0
C2003 C 0.74357 0.33242 0.7073 0.0
C2004 C 0.06148 0.42604 1.01097 0.0
C2005 C 0.03551 0.40086 0.01551 0.0
H2006 H 0.08511 0.47604 0.01648 0.0
C2007 C 1.01302 0.41023 0.03186 0.0
H2008 H 0.07902 0.42069 0.9978 0.0
C2009 C 1.01632 0.44304 0.0425 0.0
C2010 C 0.04217 0.46809 0.03716 0.0
H2011 H 0.99188 0.39231 0.03496 0.0
H2012 H 0.99804 0.44874 0.05422 0.0
C2013 C 0.0648 0.4584 0.02152 0.0
C2014 C 0.02758 0.83371 0.20039 0.0
C2015 C 1.01871 0.81646 0.1694 0.0
H2016 H 1.01463 0.84192 0.24593 0.0
C2017 C 0.98805 0.79422 0.16076 0.0
H2018 H 0.05093 0.85105 0.208 0.0
C2019 C 0.9673 0.78874 0.18273 0.0
C2020 C 0.97641 0.80567 0.21384 0.0
H2021 H 0.9803 0.78042 0.1372 0.0
H2022 H 0.94404 0.77119 0.17534 0.0
C2023 C 1.00668 0.82856 0.22219 0.0
C2024 C 0.57672 0.349 0.15869 0.0
C2025 C 0.55347 0.34837 0.17788 0.0
H2026 H 0.60161 0.37118 0.1248 0.0
C2027 C 0.53952 0.3728 0.17976 0.0
H2028 H 0.58706 0.32984 0.15607 0.0
C2029 C 0.54828 0.39713 0.16219 0.0
C2030 C 0.5705 0.39703 0.14159 0.0
H2031 H 0.52104 0.37246 0.19391 0.0
H2032 H 0.53697 0.41555 0.16424 0.0
C2033 C 0.585 0.37283 0.14067 0.0
C2034 C 0.97164 0.33016 0.32768 0.0
C2035 C 0.98945 0.35439 0.3533 0.0
H2036 H 0.92597 0.30502 0.29802 0.0
C2037 C 0.97193 0.373 0.3672 0.0
H2038 H 0.98318 0.31437 0.31661 0.0
C2039 C 0.93897 0.36829 0.35578 0.0
C2040 C 0.92087 0.34341 0.33085 0.0
H2041 H 0.9838 0.39132 0.38748 0.0
H2042 H 0.92725 0.38347 0.36757 0.0
C2043 C 0.93829 0.32456 0.31709 0.0
C2044 C 0.04364 0.66239 0.68091 0.0
C2045 C 0.0334 0.68714 0.67065 0.0
H2046 H 0.05654 0.61973 0.66822 0.0
C2047 C 0.02768 0.6859 0.63775 0.0
H2048 H 0.0488 0.66232 0.70586 0.0
C2049 C 0.03263 0.66185 0.61624 0.0
C2050 C 0.0433 0.63732 0.62625 0.0
H2051 H 1.02014 0.70428 0.62837 0.0
H2052 H 0.02837 0.66283 0.59141 0.0
C2053 C 0.04823 0.63783 0.65915 0.0
C2054 C 0.68762 0.8829 0.84243 0.0
C2055 C 0.66204 0.85982 0.85131 0.0
H2056 H 0.73404 0.89565 0.82733 0.0
C2057 C 0.6668 0.82938 0.84907 0.0
H2058 H 0.68622 0.9067 0.84312 0.0
C2059 C 0.69427 0.82254 0.83842 0.0
C2060 C 0.72014 0.84576 0.83014 0.0
H2061 H 0.64862 0.81014 0.85496 0.0
H2062 H 0.6954 0.7986 0.83722 0.0
C2063 C 0.71573 0.87637 0.83302 0.0
C2064 C 0.48204 0.54134 0.67596 0.0
C2065 C 0.50256 0.55567 0.70495 0.0
H2066 H 0.47592 0.53312 0.6252 0.0
C2067 C 0.53367 0.5745 0.70339 0.0
H2068 H 0.45795 0.52662 0.67581 0.0
C2069 C 0.54387 0.5787 0.6742 0.0
C2070 C 0.5236 0.56384 0.64517 0.0
H2071 H 0.55036 0.58608 0.72488 0.0
H2072 H 0.56807 0.59319 0.67446 0.0
C2073 C 0.49243 0.54508 0.64671 0.0
C2074 C 0.75857 0.23061 1.01043 0.0
C2075 C 0.78728 0.22361 0.01533 0.0
H2076 H 0.73312 0.2576 0.98761 0.0
C2077 C 0.81405 0.24075 1.00427 0.0
H2078 H 0.73819 0.2183 0.02013 0.0
C2079 C 0.81137 0.26348 0.98626 0.0
C2080 C 0.78205 0.26934 0.97988 0.0
H2081 H 0.83655 0.23589 1.00877 0.0
H2082 H 0.83161 0.27546 0.97613 0.0
C2083 C 0.75595 0.25353 0.99274 0.0
C2084 C 0.11936 0.52328 0.17032 0.0
C2085 C 0.15075 0.54396 0.17705 0.0
H2086 H 0.07219 0.51378 0.14472 0.0
C2087 C 0.15987 0.56855 0.16015 0.0
H2088 H 0.11193 0.50429 0.18343 0.0
C2089 C 0.13709 0.57526 0.14022 0.0
C2090 C 0.10519 0.55621 0.13511 0.0
H2091 H 0.18377 0.58517 0.16514 0.0
H2092 H 0.14451 0.59629 0.12987 0.0
C2093 C 0.09659 0.52919 0.14899 0.0
C2094 C 0.80926 0.88027 0.44285 0.0
C2095 C 0.82156 0.86857 0.46843 0.0
H2096 H 0.80014 0.87865 0.39355 0.0
C2097 C 0.83275 0.84231 0.4612 0.0
H2098 H 0.80028 0.90028 0.44685 0.0
C2099 C 0.83258 0.82928 0.42932 0.0
C2100 C 0.82149 0.84239 0.40402 0.0
H2101 H 0.84278 0.83272 0.48004 0.0
H2102 H 0.8417 0.80947 0.42459 0.0
C2103 C 0.80939 0.86775 0.41172 0.0
C2104 C 0.52793 0.53272 0.89938 0.0
C2105 C 0.51314 0.55513 0.89082 0.0
H2106 H 0.55007 0.51519 0.93724 0.0
C2107 C 0.51218 0.57893 0.91496 0.0
H2108 H 0.52817 0.51337 0.88168 0.0
C2109 C 0.52395 0.57957 0.94655 0.0
C2110 C 0.53728 0.55641 0.95563 0.0
H2111 H 0.50053 0.59624 0.90954 0.0
H2112 H 0.52148 0.59786 0.96412 0.0
C2113 C 0.5401 0.5335 0.93138 0.0
C2114 C 0.82128 0.22224 0.19967 0.0
C2115 C 0.84397 0.23269 0.18072 0.0
H2116 H 0.79402 0.23535 0.23246 0.0
C2117 C 0.86258 0.26481 0.18648 0.0
H2118 H 0.80629 0.19779 0.19559 0.0
C2119 C 0.85604 0.28671 0.2086 0.0
C2120 C 0.83058 0.27659 0.22469 0.0
H2121 H 0.88016 0.27339 0.17193 0.0
H2122 H 0.86957 0.31156 0.21176 0.0
C2123 C 0.81397 0.24408 0.22067 0.0
C2124 C 0.13859 0.57891 0.34216 0.0
C2125 C 0.16992 0.59964 0.34809 0.0
H2126 H 0.09323 0.56671 0.3569 0.0
C2127 C 0.18003 0.62363 0.37481 0.0
H2128 H 0.13026 0.55998 0.32186 0.0
C2129 C 0.15878 0.62749 0.39474 0.0
C2130 C 0.12725 0.60729 0.38831 0.0
H2131 H 0.2041 0.63982 0.38004 0.0
H2132 H 0.16709 0.6461 0.41531 0.0
C2133 C 0.11741 0.58271 0.36215 0.0
C2134 C 0.80017 0.84335 0.65762 0.0
C2135 C 0.81877 0.87415 0.65543 0.0
H2136 H 0.78134 0.81037 0.68754 0.0
C2137 C 0.83247 0.89556 0.68401 0.0
H2138 H 0.78915 0.82601 0.63641 0.0
C2139 C 0.82826 0.88647 0.71351 0.0
C2140 C 0.80967 0.85572 0.71583 0.0
H2141 H 0.84702 0.91945 0.68367 0.0
H2142 H 0.83984 0.9037 0.73459 0.0
C2143 C 0.79554 0.83439 0.68718 0.0
C2144 C 0.72843 0.50307 0.50804 0.0
C2145 C 0.75841 0.50506 0.52383 0.0
H2146 H 0.6885 0.52065 0.50861 0.0
C2147 C 0.7718 0.5262 0.55221 0.0
H2148 H 0.71802 0.48673 0.48605 0.0
C2149 C 0.75589 0.54617 0.56443 0.0
C2150 C 0.72589 0.54474 0.54884 0.0
H2151 H 0.79529 0.52811 0.56433 0.0
H2152 H 0.76751 0.56328 0.58566 0.0
C2153 C 0.71194 0.52264 0.52077 0.0
C2154 C 0.16932 0.17771 0.51951 0.0
C2155 C 0.19977 0.17932 0.53395 0.0
H2156 H 0.11963 0.15171 0.51009 0.0
C2157 C 0.20302 0.15623 0.55202 0.0
H2158 H 0.1662 0.19507 0.50537 0.0
C2159 C 0.17647 0.13152 0.55504 0.0
C2160 C 0.14594 0.12947 0.54025 0.0
H2161 H 0.22633 0.15716 0.56371 0.0
H2162 H 0.17987 0.11425 0.56919 0.0
C2163 C 0.14273 0.15281 0.52231 0.0
C2164 C 0.2127 1.01099 0.8449 0.0
C2165 C 0.19273 0.01851 0.82155 0.0
H2166 H 0.24663 0.98711 0.85567 0.0
C2167 C 0.1885 1.00285 0.79034 0.0
H2168 H 0.21651 0.02256 0.86922 0.0
C2169 C 0.20586 0.98199 0.78244 0.0
C2170 C 0.22769 0.97637 0.80561 0.0
H2171 H 0.17346 1.00825 0.77175 0.0
H2172 H 0.20293 0.97108 0.75805 0.0
C2173 C 0.23 0.99042 0.83708 0.0
C2174 C 0.42937 0.98321 0.99852 0.0
C2175 C 0.40769 0.99301 0.01485 0.0
H2176 H 0.4779 0.99496 0.99101 0.0
C2177 C 0.41729 0.02199 0.03574 0.0
H2178 H 0.42206 0.96066 0.98261 0.0
C2179 C 0.44857 0.04104 0.04068 0.0
C2180 C 0.47034 0.03131 0.02458 0.0
H2181 H 0.40073 0.02951 0.04887 0.0
H2182 H 0.45599 0.0629 0.05773 0.0
C2183 C 0.46079 1.00278 1.00299 0.0
C2184 C 0.84907 0.63125 0.85526 0.0
C2185 C 0.87036 0.62193 0.83778 0.0
H2186 H 0.81173 0.65239 0.85556 0.0
C2187 C 0.87062 0.62728 0.80672 0.0
H2188 H 0.84827 0.62714 0.87917 0.0
C2189 C 0.84923 0.64102 0.79306 0.0
C2190 C 0.82769 0.64978 0.81043 0.0
H2191 H 0.88645 0.61976 0.79258 0.0
H2192 H 0.84991 0.64537 0.76922 0.0
C2193 C 0.82787 0.64509 0.84166 0.0
C2194 C 0.87273 0.67656 0.01783 0.0
C2195 C 0.86122 0.69325 0.04097 0.0
H2196 H 0.90009 0.64547 1.00758 0.0
C2197 C 0.87294 0.6947 0.07281 0.0
H2198 H 0.86403 0.67489 0.99308 0.0
C2199 C 0.89356 0.67741 0.08123 0.0
C2200 C 0.90307 0.65871 0.05795 0.0
H2201 H 0.86427 0.70709 0.09116 0.0
H2202 H 0.90114 0.67775 0.10593 0.0
C2203 C 0.89337 0.65957 0.02618 0.0
C2204 C 0.22511 0.17204 0.81133 0.0
C2205 C 0.19943 0.17375 0.8268 0.0
H2206 H 0.26796 0.19724 0.79623 0.0
C2207 C 0.19691 0.20355 0.83795 0.0
H2208 H 0.22722 0.14927 0.80177 0.0
C2209 C 0.22028 0.23112 0.83469 0.0
C2210 C 0.24644 0.22951 0.81974 0.0
H2211 H 0.17724 0.20555 0.84966 0.0
H2212 H 0.21773 0.2537 0.84397 0.0
C2213 C 0.24848 0.19953 0.80808 0.0
C2214 C 0.37174 0.96796 0.31959 0.0
C2215 C 0.39488 0.979 0.34694 0.0
H2216 H 0.33743 0.92751 0.28989 0.0
C2217 C 0.40097 0.9582 0.36615 0.0
H2218 H 0.36705 0.98405 0.30449 0.0
C2219 C 0.38199 0.92676 0.35925 0.0
C2220 C 0.35988 0.91543 0.33142 0.0
H2221 H 0.4191 0.9665 0.38703 0.0
H2222 H 0.38401 0.91119 0.37557 0.0
C2223 C 0.35482 0.93601 0.31137 0.0
C2224 C 0.56312 0.41555 0.57331 0.0
C2225 C 0.58854 0.41496 0.59646 0.0
H2226 H 0.5387 0.44178 0.54685 0.0
C2227 C 0.60977 0.44576 0.61016 0.0
H2228 H 0.54564 0.39341 0.56158 0.0
C2229 C 0.60563 0.47465 0.6012 0.0
C2230 C 0.57996 0.47484 0.57797 0.0
H2231 H 0.62978 0.44773 0.62804 0.0
H2232 H 0.6227 0.49707 0.61285 0.0
C2233 C 0.559 0.44408 0.56453 0.0
C2234 C 0.43294 0.78269 0.39087 0.0
C2235 C 0.43634 0.7942 0.42339 0.0
H2236 H 0.40902 0.77904 0.34367 0.0
C2237 C 0.41256 0.80708 0.43262 0.0
H2238 H 0.4497 0.77148 0.38253 0.0
C2239 C 0.38803 0.8104 0.41006 0.0
C2240 C 0.38633 0.80126 0.37722 0.0
H2241 H 0.41361 0.81583 0.45729 0.0
H2242 H 0.37106 0.82134 0.41838 0.0
C2243 C 0.40911 0.7868 0.36833 0.0
C2244 C 0.07247 0.72057 0.12121 0.0
C2245 C 0.08751 0.74411 0.10449 0.0
H2246 H 0.05566 0.67111 0.1248 0.0
C2247 C 0.09868 0.73286 0.07743 0.0
H2248 H 0.06406 0.72764 0.14251 0.0
C2249 C 0.09477 0.69986 0.06766 0.0
C2250 C 0.07906 0.67631 0.08416 0.0
H2251 H 0.11119 0.74972 0.0641 0.0
H2252 H 0.10394 0.69278 0.04688 0.0
C2253 C 0.06771 0.68771 0.11098 0.0
C2254 C 0.12399 0.35021 0.9429 0.0
C2255 C 0.10343 0.31968 0.94264 0.0
H2256 H 0.16144 0.37899 0.92299 0.0
C2257 C 0.10859 0.29372 0.92458 0.0
H2258 H 0.11997 0.37076 0.95582 0.0
C2259 C 0.13225 0.29846 0.90541 0.0
C2260 C 0.15079 0.32931 0.90352 0.0
H2261 H 0.09239 0.27007 0.9229 0.0
H2262 H 0.13431 0.27813 0.89026 0.0
C2263 C 0.14726 0.355 0.92351 0.0
C2264 C 0.54875 0.74669 0.92016 0.0
C2265 C 0.5582 0.77873 0.93472 0.0
H2266 H 0.53469 0.69798 0.92666 0.0
C2267 C 0.56019 0.78582 0.96758 0.0
H2268 H 0.54696 0.74041 0.89493 0.0
C2269 C 0.55275 0.76191 0.98542 0.0
C2270 C 0.54336 0.72992 0.9712 0.0
H2271 H 0.56715 0.81013 0.97977 0.0
H2272 H 0.55475 0.7686 1.01063 0.0
C2273 C 0.54178 0.72247 0.93833 0.0
C2274 C 0.15081 0.78428 0.78643 0.0
C2275 C 0.13899 0.79662 0.76069 0.0
H2276 H 0.19144 0.77715 0.8144 0.0
C2277 C 0.16256 0.81232 0.74411 0.0
H2278 H 0.1341 0.77121 0.79966 0.0
C2279 C 0.1957 0.8162 0.75287 0.0
C2280 C 0.20769 0.80339 0.77806 0.0
H2281 H 0.15526 0.82179 0.72384 0.0
H2282 H 0.21206 0.82887 0.73909 0.0
C2283 C 0.18415 0.7874 0.79474 0.0
C2284 C 0.08654 0.47812 0.43053 0.0
C2285 C 0.09107 0.4495 0.43735 0.0
H2286 H 0.07904 0.52258 0.44743 0.0
C2287 C 0.0929 0.44616 0.46943 0.0
H2288 H 0.08483 0.48222 0.40653 0.0
C2289 C 0.08983 0.46976 0.49317 0.0
C2290 C 0.08432 0.49791 0.48618 0.0
H2291 H 0.09614 0.42479 0.4763 0.0
H2292 H 0.09114 0.4655 0.51714 0.0
C2293 C 0.08306 0.50156 0.45427 0.0
C2294 C 0.454 0.29787 0.28261 0.0
C2295 C 0.45017 0.27954 0.25207 0.0
H2296 H 0.43255 0.31975 0.31838 0.0
C2297 C 0.41809 0.26907 0.23565 0.0
H2298 H 0.47759 0.30723 0.29668 0.0
C2299 C 0.39206 0.276 0.24827 0.0
C2300 C 0.3956 0.29456 0.27836 0.0
H2301 H 0.41272 0.25521 0.21216 0.0
H2302 H 0.36871 0.26702 0.23366 0.0
C2303 C 0.42764 0.30534 0.29521 0.0
C2304 C 0.61029 0.59898 0.42747 0.0
C2305 C 0.61648 0.57444 0.40796 0.0
H2306 H 0.59557 0.61419 0.47068 0.0
C2307 C 0.61032 0.54477 0.41781 0.0
H2308 H 0.6153 0.62231 0.42123 0.0
C2309 C 0.59837 0.53988 0.44614 0.0
C2310 C 0.59346 0.56488 0.46624 0.0
H2311 H 0.61577 0.52557 0.40408 0.0
H2312 H 0.59436 0.51688 0.45301 0.0
C2313 C 0.59929 0.59438 0.45615 0.0
C2314 C 0.31767 0.90201 0.11195 0.0
C2315 C 0.33586 0.93224 0.10845 0.0
H2316 H 0.31489 0.86341 0.13646 0.0
C2317 C 0.36348 0.94895 0.1304 0.0
H2318 H 0.29605 0.88878 0.09554 0.0
C2319 C 0.3743 0.93426 0.15383 0.0
C2320 C 0.35762 0.90284 0.15517 0.0
H2321 H 0.37789 0.9723 0.12809 0.0
H2322 H 0.3965 0.94666 0.16966 0.0
C2323 C 0.32858 0.88734 0.13504 0.0
C2324 C 0.96178 0.58472 0.96599 0.0
C2325 C 0.9698 0.5942 0.93805 0.0
H2326 H 0.97674 0.56932 1.00687 0.0
C2327 C 1.00227 0.60493 0.93491 0.0
H2328 H 0.93727 0.57692 0.96966 0.0
C2329 C 0.02582 0.60253 0.95808 0.0
C2330 C 1.01664 0.5885 0.98369 0.0
H2331 H 1.0092 0.61279 0.91361 0.0
H2332 H 0.05048 0.60923 0.95476 0.0
C2333 C 0.98469 0.58053 0.98769 0.0
C2334 C 0.27079 0.25373 0.6549 0.0
C2335 C 0.29417 0.26887 0.638 0.0
H2336 H 0.25394 0.25225 0.69926 0.0
C2337 C 0.31926 0.29533 0.65468 0.0
H2338 H 0.25102 0.23337 0.64299 0.0
C2339 C 0.32142 0.30556 0.68735 0.0
C2340 C 0.29787 0.29052 0.70412 0.0
H2341 H 0.33772 0.30762 0.64267 0.0
H2342 H 0.34157 0.32542 0.69953 0.0
C2343 C 0.2723 0.2647 0.68722 0.0
C2344 C 0.60759 0.60622 0.21039 0.0
C2345 C 0.60936 0.5792 0.22295 0.0
H2346 H 0.59579 0.62553 0.16936 0.0
C2347 C 0.59996 0.55008 0.20207 0.0
H2348 H 0.61468 0.62908 0.22576 0.0
C2349 C 0.58957 0.54807 0.16962 0.0
C2350 C 0.58776 0.57506 0.15682 0.0
H2351 H 0.60126 0.52885 0.21075 0.0
H2352 H 0.58312 0.52514 0.15448 0.0
C2353 C 0.5967 0.60416 0.17795 0.0
C2354 C 0.27424 0.90041 0.90757 0.0
C2355 C 0.2953 0.90319 0.93506 0.0
H2356 H 0.25593 0.87546 0.86068 0.0
C2357 C 0.3108 0.88024 0.93853 0.0
H2358 H 0.26169 0.91762 0.90493 0.0
C2359 C 0.30823 0.85675 0.91322 0.0
C2360 C 0.28992 0.8561 0.88456 0.0
H2361 H 0.32717 0.88216 0.95986 0.0
H2362 H 0.32301 0.84139 0.91521 0.0
C2363 C 0.27096 0.87634 0.88255 0.0
C2364 C 0.99288 0.55718 0.76916 0.0
C2365 C 0.96057 0.55532 0.76462 0.0
H2366 H 0.03061 0.546 0.74917 0.0
C2367 C 0.94117 0.54084 0.73544 0.0
H2368 H 1.00813 0.56749 0.79175 0.0
C2369 C 0.95407 0.52836 0.71101 0.0
C2370 C 0.98629 0.52964 0.71588 0.0
H2371 H 0.91604 0.53876 0.73172 0.0
H2372 H 0.93886 0.51736 0.68852 0.0
C2373 C 1.00557 0.54424 0.74507 0.0
C2374 C 0.30554 0.28942 0.4504 0.0
C2375 C 0.29567 0.25629 0.44924 0.0
H2376 H 0.3186 0.32796 0.42453 0.0
C2377 C 0.29295 0.2372 0.41963 0.0
H2378 H 0.30816 0.30519 0.4724 0.0
C2379 C 0.29898 0.25009 0.39257 0.0
C2380 C 0.30812 0.28284 0.39324 0.0
H2381 H 0.28572 0.21162 0.41688 0.0
H2382 H 0.29618 0.23403 0.37081 0.0
C2383 C 0.31171 0.30248 0.42281 0.0
C2384 C 0.3685 0.63409 0.5219 0.0
C2385 C 0.36743 0.64492 0.55341 0.0
H2386 H 0.38459 0.60366 0.4902 0.0
C2387 C 0.38438 0.6357 0.57768 0.0
H2388 H 0.3553 0.64096 0.50293 0.0
C2389 C 0.39984 0.61355 0.57046 0.0
C2390 C 0.39926 0.60109 0.53888 0.0
H2391 H 0.38322 0.64324 0.60213 0.0
H2392 H 0.41106 0.60516 0.5896 0.0
C2393 C 0.38447 0.6123 0.51465 0.0
C2394 C 0.94152 0.94436 0.55834 0.0
C2395 C 0.91919 0.95358 0.5742 0.0
H2396 H 0.98633 0.95919 0.54263 0.0
C2397 C 0.92736 0.98479 0.59068 0.0
H2398 H 0.93596 0.92028 0.54593 0.0
C2399 C 0.95618 1.00727 0.58886 0.0
C2400 C 0.9774 0.99884 0.57056 0.0
H2401 H 0.91079 0.99217 0.60388 0.0
H2402 H 0.96118 0.03145 0.60073 0.0
C2403 C 0.97026 0.96681 0.55634 0.0
C2404 C 0.93813 0.13336 0.28863 0.0
C2405 C 0.94385 0.12064 0.31572 0.0
H2406 H 0.91619 0.16416 0.26736 0.0
C2407 C 0.93541 0.1329 0.34371 0.0
H2408 H 0.94404 0.1241 0.26665 0.0
C2409 C 0.91877 0.15494 0.34401 0.0
C2410 C 0.91034 0.16577 0.31635 0.0
H2411 H 0.93933 0.12337 0.36494 0.0
H2412 H 0.91046 0.16151 0.36551 0.0
C2413 C 0.92156 0.15582 0.28897 0.0
C2414 C 0.70089 0.17052 0.09169 0.0
C2415 C 0.72324 0.15498 0.09866 0.0
H2416 H 0.65172 0.16618 0.08089 0.0
C2417 C 0.71349 0.12439 0.10577 0.0
H2418 H 0.70825 0.19444 0.08688 0.0
C2419 C 0.68113 0.10798 0.10231 0.0
C2420 C 0.65852 0.12233 0.09201 0.0
H2421 H 0.73083 0.11263 0.11235 0.0
H2422 H 0.67392 0.08364 0.10592 0.0
C2423 C 0.66863 0.15424 0.08826 0.0
C2424 C 0.2498 0.50019 0.27269 0.0
C2425 C 0.24056 0.51704 0.29722 0.0
H2426 H 0.27919 0.47195 0.26065 0.0
C2427 C 0.24886 0.51405 0.32845 0.0
H2428 H 0.24393 0.50294 0.24851 0.0
C2429 C 0.26894 0.49645 0.3355 0.0
C2430 C 0.28093 0.48211 0.31129 0.0
H2431 H 0.24178 0.52727 0.34749 0.0
H2432 H 0.27603 0.49507 0.35985 0.0
C2433 C 0.27029 0.483 0.27973 0.0
C2434 C 0.25376 0.45917 0.08286 0.0
C2435 C 0.25409 0.43854 0.05566 0.0
H2436 H 0.23637 0.49601 0.10283 0.0
C2437 C 0.23265 0.43619 0.02825 0.0
H2438 H 0.27089 0.46237 0.10397 0.0
C2439 C 0.21282 0.45552 0.02743 0.0
C2440 C 0.21438 0.47824 0.05385 0.0
H2441 H 0.23301 0.42112 1.0067 0.0
H2442 H 0.1974 0.45372 1.00553 0.0
C2443 C 0.23416 0.47878 0.08201 0.0
C2444 C 0.93062 0.93212 0.29986 0.0
C2445 C 0.92149 0.95566 0.2867 0.0
H2446 H 0.91558 0.88666 0.31305 0.0
C2447 C 0.88959 0.94891 0.27221 0.0
H2448 H 0.95512 0.93653 0.31073 0.0
C2449 C 0.86664 0.92012 0.27329 0.0
C2450 C 0.87525 0.89747 0.2888 0.0
H2451 H 0.88215 0.96645 0.26109 0.0
H2452 H 0.84206 0.91618 0.26303 0.0
C2453 C 0.90777 0.90352 0.30117 0.0
C2454 C 0.76143 0.17303 0.75607 0.0
C2455 C 0.73243 0.16222 0.76667 0.0
H2456 H 0.80128 0.21305 0.75526 0.0
C2457 C 0.7185 0.18365 0.78056 0.0
H2458 H 0.77171 0.15649 0.74418 0.0
C2459 C 0.73527 0.21574 0.78714 0.0
C2460 C 0.76584 0.22658 0.77929 0.0
H2461 H 0.69559 0.17542 0.788 0.0
H2462 H 0.72478 0.23177 0.7995 0.0
C2463 C 0.77814 0.20522 0.76229 0.0
loop_
_geom_bond_atom_site_label_1
_geom_bond_atom_site_label_2
_geom_bond_distance
_geom_bond_site_symmetry_2
_ccdc_geom_bond_type
Mn0 O5 2.095 . S
Mn0 O15 2.162 . S
Mn0 O16 2.297 . S
Mn0 O24 2.385 1_455 S
Mn0 O25 2.209 . S
Mn0 O26 2.094 . S
Mn1 O6 2.121 . S
Mn1 N8 2.257 . S
Mn1 N17 2.282 . S
Mn1 O25 2.215 . S
Mn1 O27 2.117 . S
C2 O24 1.234 . S
C2 O25 1.283 1_655 S
C3 O15 1.281 . S
C3 O16 1.236 . S
C4 O26 1.240 . S
C4 O27 1.264 . S
O5 Mn0 2.095 . S
O5 C14 1.250 . S
O6 Mn1 2.121 . S
O6 C14 1.258 . S
C7 N8 1.326 . S
C7 C11 1.460 . S
C7 H13 0.929 . S
N8 Mn1 2.257 . S
N8 C7 1.326 . S
N8 C12 1.360 . S
C9 C10 1.258 . S
C9 C12 1.432 1_655 S
C9 C29 1.449 . S
C10 C9 1.258 . S
C10 C11 1.477 1_655 S
C10 H30 0.931 . S
C11 C7 1.460 . S
C11 C10 1.477 1_455 S
C11 H31 0.930 . S
C12 N8 1.360 . S
C12 C9 1.432 1_455 S
C12 C22 1.478 1_455 S
H13 C7 0.929 . S
C14 O5 1.250 . S
C14 O6 1.258 . S
O15 Mn0 2.162 . S
O15 C3 1.281 . S
O16 Mn0 2.297 . S
O16 C3 1.236 . S
N17 Mn1 2.282 . S
N17 C18 1.328 1_455 S
N17 C22 1.318 1_455 S
C18 N17 1.328 1_655 S
C18 C19 1.457 . S
C18 H23 0.937 . S
C19 C18 1.457 . S
C19 C20 1.291 . S
C19 H32 0.931 . S
C20 C19 1.291 . S
C20 C21 1.373 . S
C20 H33 0.929 . S
C21 C20 1.373 . S
C21 C22 1.396 . S
C21 C28 1.403 . S
C22 C12 1.478 1_655 S
C22 N17 1.318 1_655 S
C22 C21 1.396 . S
H23 C18 0.937 . S
O24 Mn0 2.385 1_655 S
O24 C2 1.234 . S
O25 Mn0 2.209 . S
O25 Mn1 2.215 . S
O25 C2 1.283 1_455 S
O26 Mn0 2.094 . S
O26 C4 1.240 . S
O27 Mn1 2.117 . S
O27 C4 1.264 . S
C28 C21 1.403 . S
C28 C29 1.399 . S
C28 H34 0.929 . S
C29 C9 1.449 . S
C29 C28 1.399 . S
C29 H35 0.930 . S
H30 C10 0.931 . S
H31 C11 0.930 . S
H32 C19 0.931 . S
H33 C20 0.929 . S
H34 C28 0.929 . S
H35 C29 0.930 . S
Mn36 O41 2.095 1_455 S
Mn36 O51 2.162 . S
Mn36 O52 2.297 . S
Mn36 O60 2.385 . S
Mn36 O61 2.209 . S
Mn36 O62 2.094 . S
Mn37 O42 2.121 . S
Mn37 N44 2.257 . S
Mn37 N53 2.282 . S
Mn37 O61 2.215 . S
Mn37 O63 2.117 . S
C38 O60 1.234 . S
C38 O61 1.283 . S
C39 O51 1.281 . S
C39 O52 1.236 . S
C40 O62 1.240 . S
C40 O63 1.264 . S
O41 Mn36 2.095 1_655 S
O41 C50 1.250 . S
O42 Mn37 2.121 . S
O42 C50 1.258 1_455 S
C43 N44 1.326 . S
C43 C47 1.460 . S
C43 H49 0.929 . S
N44 Mn37 2.257 . S
N44 C43 1.326 . S
N44 C48 1.362 . S
C45 C46 1.258 . S
C45 C48 1.431 . S
C45 C65 1.449 . S
C46 C45 1.258 . S
C46 C47 1.477 . S
C46 H66 0.931 . S
C47 C43 1.460 . S
C47 C46 1.477 . S
C47 H67 0.930 . S
C48 N44 1.362 . S
C48 C45 1.431 . S
C48 C58 1.476 . S
H49 C43 0.929 . S
C50 O41 1.250 . S
C50 O42 1.258 1_655 S
O51 Mn36 2.162 . S
O51 C39 1.281 . S
O52 Mn36 2.297 . S
O52 C39 1.236 . S
N53 Mn37 2.282 . S
N53 C54 1.328 . S
N53 C58 1.318 . S
C54 N53 1.328 . S
C54 C55 1.457 . S
C54 H59 0.929 . S
C55 C54 1.457 . S
C55 C56 1.291 . S
C55 H68 0.931 . S
C56 C55 1.291 . S
C56 C57 1.373 . S
C56 H69 0.929 . S
C57 C56 1.373 . S
C57 C58 1.396 . S
C57 C64 1.403 . S
C58 C48 1.476 . S
C58 N53 1.318 . S
C58 C57 1.396 . S
H59 C54 0.929 . S
O60 Mn36 2.385 . S
O60 C38 1.234 . S
O61 Mn36 2.209 . S
O61 Mn37 2.215 . S
O61 C38 1.283 . S
O62 Mn36 2.094 . S
O62 C40 1.240 . S
O63 Mn37 2.117 . S
O63 C40 1.264 . S
C64 C57 1.403 . S
C64 C65 1.399 . S
C64 H70 0.929 . S
C65 C45 1.449 . S
C65 C64 1.399 . S
C65 H71 0.930 . S
H66 C46 0.931 . S
H67 C47 0.930 . S
H68 C55 0.931 . S
H69 C56 0.929 . S
H70 C64 0.929 . S
H71 C65 0.930 . S
Mn72 O77 2.095 . S
Mn72 O87 2.162 . S
Mn72 O88 2.297 . S
Mn72 O96 2.385 . S
Mn72 O97 2.209 . S
Mn72 O98 2.094 . S
Mn73 O78 2.121 . S
Mn73 N80 2.257 . S
Mn73 N89 2.282 . S
Mn73 O97 2.215 . S
Mn73 O99 2.117 . S
C74 O96 1.234 . S
C74 O97 1.283 . S
C75 O87 1.281 . S
C75 O88 1.236 . S
C76 O98 1.240 . S
C76 O99 1.264 . S
O77 Mn72 2.095 . S
O77 C86 1.250 . S
O78 Mn73 2.121 . S
O78 C86 1.258 . S
C79 N80 1.326 . S
C79 C83 1.460 . S
C79 H85 0.929 . S
N80 Mn73 2.257 . S
N80 C79 1.326 . S
N80 C84 1.362 . S
C81 C82 1.258 . S
C81 C84 1.431 . S
C81 C101 1.449 . S
C82 C81 1.258 . S
C82 C83 1.477 . S
C82 H102 0.931 . S
C83 C79 1.460 . S
C83 C82 1.477 . S
C83 H103 0.930 . S
C84 N80 1.362 . S
C84 C81 1.431 . S
C84 C94 1.476 . S
H85 C79 0.929 . S
C86 O77 1.250 . S
C86 O78 1.258 . S
O87 Mn72 2.162 . S
O87 C75 1.281 . S
O88 Mn72 2.297 . S
O88 C75 1.236 . S
N89 Mn73 2.282 . S
N89 C90 1.328 . S
N89 C94 1.318 . S
C90 N89 1.328 . S
C90 C91 1.457 . S
C90 H95 0.929 . S
C91 C90 1.457 . S
C91 C92 1.291 . S
C91 H104 0.931 . S
C92 C91 1.291 . S
C92 C93 1.373 . S
C92 H105 0.929 . S
C93 C92 1.373 . S
C93 C94 1.396 . S
C93 C100 1.403 . S
C94 C84 1.476 . S
C94 N89 1.318 . S
C94 C93 1.396 . S
H95 C90 0.929 . S
O96 Mn72 2.385 . S
O96 C74 1.234 . S
O97 Mn72 2.209 . S
O97 Mn73 2.215 . S
O97 C74 1.283 . S
O98 Mn72 2.094 . S
O98 C76 1.240 . S
O99 Mn73 2.117 . S
O99 C76 1.264 . S
C100 C93 1.403 . S
C100 C101 1.399 . S
C100 H106 0.929 . S
C101 C81 1.449 . S
C101 C100 1.399 . S
C101 H107 0.930 . S
H102 C82 0.931 . S
H103 C83 0.930 . S
H104 C91 0.931 . S
H105 C92 0.929 . S
H106 C100 0.929 . S
H107 C101 0.930 . S
Mn108 O113 2.095 . S
Mn108 O123 2.162 . S
Mn108 O124 2.297 . S
Mn108 O132 2.385 . S
Mn108 O133 2.209 . S
Mn108 O134 2.094 . S
Mn109 O114 2.121 . S
Mn109 N116 2.257 . S
Mn109 N125 2.282 . S
Mn109 O133 2.215 . S
Mn109 O135 2.117 . S
C110 O132 1.234 . S
C110 O133 1.283 . S
C111 O123 1.281 . S
C111 O124 1.236 . S
C112 O134 1.240 . S
C112 O135 1.264 . S
O113 Mn108 2.095 . S
O113 C122 1.250 . S
O114 Mn109 2.121 . S
O114 C122 1.258 . S
C115 N116 1.326 . S
C115 C119 1.460 . S
C115 H121 0.929 . S
N116 Mn109 2.257 . S
N116 C115 1.326 . S
N116 C120 1.362 . S
C117 C118 1.258 . S
C117 C120 1.431 . S
C117 C137 1.449 . S
C118 C117 1.258 . S
C118 C119 1.477 . S
C118 H138 0.931 . S
C119 C115 1.460 . S
C119 C118 1.477 . S
C119 H139 0.930 . S
C120 N116 1.362 . S
C120 C117 1.431 . S
C120 C130 1.476 . S
H121 C115 0.929 . S
C122 O113 1.250 . S
C122 O114 1.258 . S
O123 Mn108 2.162 . S
O123 C111 1.281 . S
O124 Mn108 2.297 . S
O124 C111 1.236 . S
N125 Mn109 2.282 . S
N125 C126 1.328 . S
N125 C130 1.318 . S
C126 N125 1.328 . S
C126 C127 1.457 . S
C126 H131 0.929 . S
C127 C126 1.457 . S
C127 C128 1.291 . S
C127 H140 0.931 . S
C128 C127 1.291 . S
C128 C129 1.373 . S
C128 H141 0.929 . S
C129 C128 1.373 . S
C129 C130 1.396 . S
C129 C136 1.403 . S
C130 C120 1.476 . S
C130 N125 1.318 . S
C130 C129 1.396 . S
H131 C126 0.929 . S
O132 Mn108 2.385 . S
O132 C110 1.234 . S
O133 Mn108 2.209 . S
O133 Mn109 2.215 . S
O133 C110 1.283 . S
O134 Mn108 2.094 . S
O134 C112 1.240 . S
O135 Mn109 2.117 . S
O135 C112 1.264 . S
C136 C129 1.403 . S
C136 C137 1.399 . S
C136 H142 0.929 . S
C137 C117 1.449 . S
C137 C136 1.399 . S
C137 H143 0.930 . S
H138 C118 0.931 . S
H139 C119 0.930 . S
H140 C127 0.931 . S
H141 C128 0.929 . S
H142 C136 0.929 . S
H143 C137 0.930 . S
Mn144 O149 2.095 . S
Mn144 O159 2.162 . S
Mn144 O160 2.297 . S
Mn144 O168 2.385 . S
Mn144 O169 2.209 . S
Mn144 O170 2.094 . S
Mn145 O150 2.121 . S
Mn145 N152 2.257 . S
Mn145 N161 2.282 1_455 S
Mn145 O169 2.215 . S
Mn145 O171 2.117 . S
C146 O168 1.234 . S
C146 O169 1.283 . S
C147 O159 1.281 . S
C147 O160 1.236 . S
C148 O170 1.240 . S
C148 O171 1.264 . S
O149 Mn144 2.095 . S
O149 C158 1.250 . S
O150 Mn145 2.121 . S
O150 C158 1.258 . S
C151 N152 1.326 1_556 S
C151 C155 1.460 . S
C151 H157 0.929 . S
N152 Mn145 2.257 . S
N152 C151 1.326 1_554 S
N152 C156 1.362 1_554 S
C153 C154 1.258 . S
C153 C156 1.431 . S
C153 C173 1.449 1_455 S
C154 C153 1.258 . S
C154 C155 1.477 . S
C154 H174 0.931 . S
C155 C151 1.460 . S
C155 C154 1.477 . S
C155 H175 0.930 . S
C156 N152 1.362 1_556 S
C156 C153 1.431 . S
C156 C166 1.476 1_456 S
H157 C151 0.929 . S
C158 O149 1.250 . S
C158 O150 1.258 . S
O159 Mn144 2.162 . S
O159 C147 1.281 . S
O160 Mn144 2.297 . S
O160 C147 1.236 . S
N161 Mn145 2.282 1_655 S
N161 C162 1.328 . S
N161 C166 1.318 . S
C162 N161 1.328 . S
C162 C163 1.457 . S
C162 H167 0.929 . S
C163 C162 1.457 . S
C163 C164 1.291 . S
C163 H176 0.931 . S
C164 C163 1.291 . S
C164 C165 1.373 . S
C164 H177 0.929 . S
C165 C164 1.373 . S
C165 C166 1.396 . S
C165 C172 1.403 1_554 S
C166 C156 1.476 1_654 S
C166 N161 1.318 . S
C166 C165 1.396 . S
H167 C162 0.929 . S
O168 Mn144 2.385 . S
O168 C146 1.234 . S
O169 Mn144 2.209 . S
O169 Mn145 2.215 . S
O169 C146 1.283 . S
O170 Mn144 2.094 . S
O170 C148 1.240 . S
O171 Mn145 2.117 . S
O171 C148 1.264 . S
C172 C165 1.403 1_556 S
C172 C173 1.399 . S
C172 H178 0.929 . S
C173 C153 1.449 1_655 S
C173 C172 1.399 . S
C173 H179 0.930 . S
H174 C154 0.931 . S
H175 C155 0.930 . S
H176 C163 0.931 . S
H177 C164 0.929 . S
H178 C172 0.929 . S
H179 C173 0.930 . S
Mn180 O185 2.095 . S
Mn180 O195 2.162 . S
Mn180 O196 2.297 . S
Mn180 O204 2.385 . S
Mn180 O205 2.209 . S
Mn180 O206 2.094 . S
Mn181 O186 2.121 . S
Mn181 N188 2.257 . S
Mn181 N197 2.282 . S
Mn181 O205 2.215 . S
Mn181 O207 2.117 . S
C182 O204 1.234 . S
C182 O205 1.283 . S
C183 O195 1.281 . S
C183 O196 1.236 . S
C184 O206 1.240 . S
C184 O207 1.264 . S
O185 Mn180 2.095 . S
O185 C194 1.250 . S
O186 Mn181 2.121 . S
O186 C194 1.258 . S
C187 N188 1.326 . S
C187 C191 1.460 . S
C187 H193 0.929 . S
N188 Mn181 2.257 . S
N188 C187 1.326 . S
N188 C192 1.362 . S
C189 C190 1.258 . S
C189 C192 1.431 . S
C189 C209 1.449 . S
C190 C189 1.258 . S
C190 C191 1.477 . S
C190 H210 0.931 . S
C191 C187 1.460 . S
C191 C190 1.477 . S
C191 H211 0.930 . S
C192 N188 1.362 . S
C192 C189 1.431 . S
C192 C202 1.476 . S
H193 C187 0.929 . S
C194 O185 1.250 . S
C194 O186 1.258 . S
O195 Mn180 2.162 . S
O195 C183 1.281 . S
O196 Mn180 2.297 . S
O196 C183 1.236 . S
N197 Mn181 2.282 . S
N197 C198 1.328 . S
N197 C202 1.318 . S
C198 N197 1.328 . S
C198 C199 1.457 . S
C198 H203 0.929 . S
C199 C198 1.457 . S
C199 C200 1.291 . S
C199 H212 0.931 . S
C200 C199 1.291 . S
C200 C201 1.373 . S
C200 H213 0.929 . S
C201 C200 1.373 . S
C201 C202 1.396 . S
C201 C208 1.403 . S
C202 C192 1.476 . S
C202 N197 1.318 . S
C202 C201 1.396 . S
H203 C198 0.929 . S
O204 Mn180 2.385 . S
O204 C182 1.234 . S
O205 Mn180 2.209 . S
O205 Mn181 2.215 . S
O205 C182 1.283 . S
O206 Mn180 2.094 . S
O206 C184 1.240 . S
O207 Mn181 2.117 . S
O207 C184 1.264 . S
C208 C201 1.403 . S
C208 C209 1.399 . S
C208 H214 0.929 . S
C209 C189 1.449 . S
C209 C208 1.399 . S
C209 H215 0.930 . S
H210 C190 0.931 . S
H211 C191 0.930 . S
H212 C199 0.931 . S
H213 C200 0.929 . S
H214 C208 0.929 . S
H215 C209 0.930 . S
Mn216 O221 2.095 . S
Mn216 O231 2.162 . S
Mn216 O232 2.297 . S
Mn216 O240 2.385 . S
Mn216 O241 2.209 . S
Mn216 O242 2.094 . S
Mn217 O222 2.121 . S
Mn217 N224 2.257 . S
Mn217 N233 2.282 . S
Mn217 O241 2.215 . S
Mn217 O243 2.117 . S
C218 O240 1.234 . S
C218 O241 1.283 . S
C219 O231 1.281 . S
C219 O232 1.236 . S
C220 O242 1.240 . S
C220 O243 1.264 . S
O221 Mn216 2.095 . S
O221 C230 1.250 . S
O222 Mn217 2.121 . S
O222 C230 1.258 . S
C223 N224 1.326 . S
C223 C227 1.460 . S
C223 H229 0.929 . S
N224 Mn217 2.257 . S
N224 C223 1.326 . S
N224 C228 1.362 . S
C225 C226 1.258 . S
C225 C228 1.431 . S
C225 C245 1.449 . S
C226 C225 1.258 . S
C226 C227 1.477 . S
C226 H246 0.931 . S
C227 C223 1.460 . S
C227 C226 1.477 . S
C227 H247 0.930 . S
C228 N224 1.362 . S
C228 C225 1.431 . S
C228 C238 1.476 . S
H229 C223 0.929 . S
C230 O221 1.250 . S
C230 O222 1.258 . S
O231 Mn216 2.162 . S
O231 C219 1.281 . S
O232 Mn216 2.297 . S
O232 C219 1.236 . S
N233 Mn217 2.282 . S
N233 C234 1.328 . S
N233 C238 1.318 . S
C234 N233 1.328 . S
C234 C235 1.457 . S
C234 H239 0.929 . S
C235 C234 1.457 . S
C235 C236 1.291 . S
C235 H248 0.931 . S
C236 C235 1.291 . S
C236 C237 1.373 . S
C236 H249 0.929 . S
C237 C236 1.373 . S
C237 C238 1.396 . S
C237 C244 1.403 . S
C238 C228 1.476 . S
C238 N233 1.318 . S
C238 C237 1.396 . S
H239 C234 0.929 . S
O240 Mn216 2.385 . S
O240 C218 1.234 . S
O241 Mn216 2.209 . S
O241 Mn217 2.215 . S
O241 C218 1.283 . S
O242 Mn216 2.094 . S
O242 C220 1.240 . S
O243 Mn217 2.117 . S
O243 C220 1.264 . S
C244 C237 1.403 . S
C244 C245 1.399 . S
C244 H250 0.929 . S
C245 C225 1.449 . S
C245 C244 1.399 . S
C245 H251 0.930 . S
H246 C226 0.931 . S
H247 C227 0.930 . S
H248 C235 0.931 . S
H249 C236 0.929 . S
H250 C244 0.929 . S
H251 C245 0.930 . S
Mn252 O257 2.074 1_655 S
Mn252 O267 2.156 1_656 S
Mn252 O268 2.293 . S
Mn252 O276 2.408 . S
Mn252 O277 2.219 . S
Mn252 O278 2.098 1_656 S
Mn253 O258 2.113 1_655 S
Mn253 N260 2.258 . S
Mn253 N269 2.290 . S
Mn253 O277 2.217 . S
Mn253 O279 2.118 1_655 S
C254 O276 1.234 . S
C254 O277 1.283 . S
C255 O267 1.283 1_655 S
C255 O268 1.236 1_554 S
C256 O278 1.240 . S
C256 O279 1.264 1_554 S
O257 Mn252 2.074 1_455 S
O257 C266 1.250 . S
O258 Mn253 2.113 1_455 S
O258 C266 1.258 . S
C259 N260 1.326 . S
C259 C263 1.460 . S
C259 H265 0.929 1_655 S
N260 Mn253 2.258 . S
N260 C259 1.326 . S
N260 C264 1.362 . S
C261 C262 1.258 . S
C261 C264 1.431 . S
C261 C281 1.449 . S
C262 C261 1.258 . S
C262 C263 1.477 . S
C262 H282 0.931 . S
C263 C259 1.460 . S
C263 C262 1.477 . S
C263 H283 0.930 . S
C264 N260 1.362 . S
C264 C261 1.431 . S
C264 C274 1.476 . S
H265 C259 0.929 1_455 S
C266 O257 1.250 . S
C266 O258 1.258 . S
O267 Mn252 2.156 1_454 S
O267 C255 1.283 1_455 S
O268 Mn252 2.293 . S
O268 C255 1.236 1_556 S
N269 Mn253 2.290 . S
N269 C270 1.328 . S
N269 C274 1.318 . S
C270 N269 1.328 . S
C270 C271 1.457 . S
C270 H275 0.929 . S
C271 C270 1.457 . S
C271 C272 1.291 . S
C271 H284 0.931 . S
C272 C271 1.291 . S
C272 C273 1.373 . S
C272 H285 0.929 . S
C273 C272 1.373 . S
C273 C274 1.396 . S
C273 C280 1.403 . S
C274 C264 1.476 . S
C274 N269 1.318 . S
C274 C273 1.396 . S
H275 C270 0.929 . S
O276 Mn252 2.408 . S
O276 C254 1.234 . S
O277 Mn252 2.219 . S
O277 Mn253 2.217 . S
O277 C254 1.283 . S
O278 Mn252 2.098 1_454 S
O278 C256 1.240 . S
O279 Mn253 2.118 1_455 S
O279 C256 1.264 1_556 S
C280 C273 1.403 . S
C280 C281 1.399 . S
C280 H286 0.929 . S
C281 C261 1.449 . S
C281 C280 1.399 . S
C281 H287 0.930 . S
H282 C262 0.931 . S
H283 C263 0.930 . S
H284 C271 0.931 . S
H285 C272 0.929 . S
H286 C280 0.929 . S
H287 C281 0.930 . S
Mn288 O293 2.095 . S
Mn288 O303 2.162 . S
Mn288 O304 2.297 1_545 S
Mn288 O312 2.385 1_545 S
Mn288 O313 2.209 1_545 S
Mn288 O314 2.094 . S
Mn289 O294 2.121 1_565 S
Mn289 N296 2.257 . S
Mn289 N305 2.282 . S
Mn289 O313 2.215 . S
Mn289 O315 2.117 1_565 S
C290 O312 1.234 . S
C290 O313 1.283 . S
C291 O303 1.281 . S
C291 O304 1.236 1_545 S
C292 O314 1.240 . S
C292 O315 1.264 . S
O293 Mn288 2.095 . S
O293 C302 1.250 . S
O294 Mn289 2.121 1_545 S
O294 C302 1.258 . S
C295 N296 1.326 . S
C295 C299 1.460 . S
C295 H301 0.929 . S
N296 Mn289 2.257 . S
N296 C295 1.326 . S
N296 C300 1.362 . S
C297 C298 1.258 . S
C297 C300 1.431 . S
C297 C317 1.449 . S
C298 C297 1.258 . S
C298 C299 1.477 . S
C298 H318 0.931 . S
C299 C295 1.460 . S
C299 C298 1.477 . S
C299 H319 0.930 . S
C300 N296 1.362 . S
C300 C297 1.431 . S
C300 C310 1.476 . S
H301 C295 0.929 . S
C302 O293 1.250 . S
C302 O294 1.258 . S
O303 Mn288 2.162 . S
O303 C291 1.281 . S
O304 Mn288 2.297 1_565 S
O304 C291 1.236 1_565 S
N305 Mn289 2.282 . S
N305 C306 1.328 . S
N305 C310 1.318 . S
C306 N305 1.328 . S
C306 C307 1.457 . S
C306 H311 0.929 . S
C307 C306 1.457 . S
C307 C308 1.291 . S
C307 H320 0.931 . S
C308 C307 1.291 . S
C308 C309 1.373 . S
C308 H321 0.929 . S
C309 C308 1.373 . S
C309 C310 1.396 . S
C309 C316 1.403 . S
C310 C300 1.476 . S
C310 N305 1.318 . S
C310 C309 1.396 . S
H311 C306 0.929 . S
O312 Mn288 2.385 1_565 S
O312 C290 1.234 . S
O313 Mn288 2.209 1_565 S
O313 Mn289 2.215 . S
O313 C290 1.283 . S
O314 Mn288 2.094 . S
O314 C292 1.240 . S
O315 Mn289 2.117 1_545 S
O315 C292 1.264 . S
C316 C309 1.403 . S
C316 C317 1.399 . S
C316 H322 0.929 . S
C317 C297 1.449 . S
C317 C316 1.399 . S
C317 H323 0.930 . S
H318 C298 0.931 . S
H319 C299 0.930 . S
H320 C307 0.931 . S
H321 C308 0.929 . S
H322 C316 0.929 . S
H323 C317 0.930 . S
Mn324 O329 2.095 . S
Mn324 O339 2.162 . S
Mn324 O340 2.297 . S
Mn324 O348 2.385 . S
Mn324 O349 2.209 . S
Mn324 O350 2.094 . S
Mn325 O330 2.121 . S
Mn325 N332 2.257 . S
Mn325 N341 2.282 . S
Mn325 O349 2.215 . S
Mn325 O351 2.117 . S
C326 O348 1.234 . S
C326 O349 1.283 . S
C327 O339 1.281 . S
C327 O340 1.236 . S
C328 O350 1.240 . S
C328 O351 1.264 . S
O329 Mn324 2.095 . S
O329 C338 1.250 . S
O330 Mn325 2.121 . S
O330 C338 1.258 . S
C331 N332 1.326 . S
C331 C335 1.460 . S
C331 H337 0.929 . S
N332 Mn325 2.257 . S
N332 C331 1.326 . S
N332 C336 1.362 . S
C333 C334 1.258 . S
C333 C336 1.431 . S
C333 C353 1.449 . S
C334 C333 1.258 . S
C334 C335 1.477 . S
C334 H354 0.931 . S
C335 C331 1.460 . S
C335 C334 1.477 . S
C335 H355 0.930 . S
C336 N332 1.362 . S
C336 C333 1.431 . S
C336 C346 1.476 . S
H337 C331 0.929 . S
C338 O329 1.250 . S
C338 O330 1.258 . S
O339 Mn324 2.162 . S
O339 C327 1.281 . S
O340 Mn324 2.297 . S
O340 C327 1.236 . S
N341 Mn325 2.282 . S
N341 C342 1.328 . S
N341 C346 1.318 . S
C342 N341 1.328 . S
C342 C343 1.457 . S
C342 H347 0.929 . S
C343 C342 1.457 . S
C343 C344 1.291 . S
C343 H356 0.931 . S
C344 C343 1.291 . S
C344 C345 1.373 . S
C344 H357 0.929 . S
C345 C344 1.373 . S
C345 C346 1.396 . S
C345 C352 1.403 . S
C346 C336 1.476 . S
C346 N341 1.318 . S
C346 C345 1.396 . S
H347 C342 0.929 . S
O348 Mn324 2.385 . S
O348 C326 1.234 . S
O349 Mn324 2.209 . S
O349 Mn325 2.215 . S
O349 C326 1.283 . S
O350 Mn324 2.094 . S
O350 C328 1.240 . S
O351 Mn325 2.117 . S
O351 C328 1.264 . S
C352 C345 1.403 . S
C352 C353 1.399 . S
C352 H358 0.929 . S
C353 C333 1.449 . S
C353 C352 1.399 . S
C353 H359 0.930 . S
H354 C334 0.931 . S
H355 C335 0.930 . S
H356 C343 0.931 . S
H357 C344 0.929 . S
H358 C352 0.929 . S
H359 C353 0.930 . S
Mn360 O365 2.095 . S
Mn360 O375 2.162 . S
Mn360 O376 2.297 . S
Mn360 O384 2.385 . S
Mn360 O385 2.209 . S
Mn360 O386 2.094 . S
Mn361 O366 2.121 . S
Mn361 N368 2.257 . S
Mn361 N377 2.282 . S
Mn361 O385 2.215 . S
Mn361 O387 2.117 . S
C362 O384 1.234 . S
C362 O385 1.283 . S
C363 O375 1.281 . S
C363 O376 1.236 . S
C364 O386 1.240 . S
C364 O387 1.264 . S
O365 Mn360 2.095 . S
O365 C374 1.250 . S
O366 Mn361 2.121 . S
O366 C374 1.258 . S
C367 N368 1.326 . S
C367 C371 1.460 . S
C367 H373 0.929 . S
N368 Mn361 2.257 . S
N368 C367 1.326 . S
N368 C372 1.362 . S
C369 C370 1.258 . S
C369 C372 1.431 . S
C369 C389 1.449 . S
C370 C369 1.258 . S
C370 C371 1.477 . S
C370 H390 0.931 . S
C371 C367 1.460 . S
C371 C370 1.477 . S
C371 H391 0.930 . S
C372 N368 1.362 . S
C372 C369 1.431 . S
C372 C382 1.476 . S
H373 C367 0.929 . S
C374 O365 1.250 . S
C374 O366 1.258 . S
O375 Mn360 2.162 . S
O375 C363 1.281 . S
O376 Mn360 2.297 . S
O376 C363 1.236 . S
N377 Mn361 2.282 . S
N377 C378 1.328 . S
N377 C382 1.318 . S
C378 N377 1.328 . S
C378 C379 1.457 . S
C378 H383 0.929 . S
C379 C378 1.457 . S
C379 C380 1.291 . S
C379 H392 0.931 . S
C380 C379 1.291 . S
C380 C381 1.373 . S
C380 H393 0.929 . S
C381 C380 1.373 . S
C381 C382 1.396 . S
C381 C388 1.403 . S
C382 C372 1.476 . S
C382 N377 1.318 . S
C382 C381 1.396 . S
H383 C378 0.929 . S
O384 Mn360 2.385 . S
O384 C362 1.234 . S
O385 Mn360 2.209 . S
O385 Mn361 2.215 . S
O385 C362 1.283 . S
O386 Mn360 2.094 . S
O386 C364 1.240 . S
O387 Mn361 2.117 . S
O387 C364 1.264 . S
C388 C381 1.403 . S
C388 C389 1.399 . S
C388 H394 0.929 . S
C389 C369 1.449 . S
C389 C388 1.399 . S
C389 H395 0.930 . S
H390 C370 0.931 . S
H391 C371 0.930 . S
H392 C379 0.931 . S
H393 C380 0.929 . S
H394 C388 0.929 . S
H395 C389 0.930 . S
Mn396 O401 2.095 1_554 S
Mn396 O411 2.162 . S
Mn396 O412 2.297 . S
Mn396 O420 2.385 . S
Mn396 O421 2.209 . S
Mn396 O422 2.094 1_554 S
Mn397 O402 2.121 . S
Mn397 N404 2.257 1_565 S
Mn397 N413 2.282 . S
Mn397 O421 2.215 1_556 S
Mn397 O423 2.117 . S
C398 O420 1.234 . S
C398 O421 1.283 . S
C399 O411 1.281 . S
C399 O412 1.236 . S
C400 O422 1.240 . S
C400 O423 1.264 . S
O401 Mn396 2.095 1_556 S
O401 C410 1.250 . S
O402 Mn397 2.121 . S
O402 C410 1.258 . S
C403 N404 1.326 . S
C403 C407 1.460 . S
C403 H409 0.929 . S
N404 Mn397 2.257 1_545 S
N404 C403 1.326 . S
N404 C408 1.362 . S
C405 C406 1.258 . S
C405 C408 1.431 . S
C405 C425 1.449 . S
C406 C405 1.258 . S
C406 C407 1.477 . S
C406 H426 0.931 . S
C407 C403 1.460 . S
C407 C406 1.477 . S
C407 H427 0.930 1_556 S
C408 N404 1.362 . S
C408 C405 1.431 . S
C408 C418 1.476 . S
H409 C403 0.929 . S
C410 O401 1.250 . S
C410 O402 1.258 . S
O411 Mn396 2.162 . S
O411 C399 1.281 . S
O412 Mn396 2.297 . S
O412 C399 1.236 . S
N413 Mn397 2.282 . S
N413 C414 1.328 . S
N413 C418 1.318 1_565 S
C414 N413 1.328 . S
C414 C415 1.457 . S
C414 H419 0.929 . S
C415 C414 1.457 . S
C415 C416 1.291 1_565 S
C415 H428 0.931 . S
C416 C415 1.291 1_545 S
C416 C417 1.373 . S
C416 H429 0.929 . S
C417 C416 1.373 . S
C417 C418 1.396 . S
C417 C424 1.403 . S
C418 C408 1.476 . S
C418 N413 1.318 1_545 S
C418 C417 1.396 . S
H419 C414 0.929 . S
O420 Mn396 2.385 . S
O420 C398 1.234 . S
O421 Mn396 2.209 . S
O421 Mn397 2.215 1_554 S
O421 C398 1.283 . S
O422 Mn396 2.094 1_556 S
O422 C400 1.240 . S
O423 Mn397 2.117 . S
O423 C400 1.264 . S
C424 C417 1.403 . S
C424 C425 1.399 . S
C424 H430 0.929 . S
C425 C405 1.449 . S
C425 C424 1.399 . S
C425 H431 0.930 . S
H426 C406 0.931 . S
H427 C407 0.930 1_554 S
H428 C415 0.931 . S
H429 C416 0.929 . S
H430 C424 0.929 . S
H431 C425 0.930 . S
Mn432 O437 2.095 . S
Mn432 O447 2.162 . S
Mn432 O448 2.297 . S
Mn432 O456 2.385 . S
Mn432 O457 2.209 . S
Mn432 O458 2.094 . S
Mn433 O438 2.121 . S
Mn433 N440 2.257 . S
Mn433 N449 2.282 1_554 S
Mn433 O457 2.215 . S
Mn433 O459 2.117 1_554 S
C434 O456 1.234 . S
C434 O457 1.283 . S
C435 O447 1.281 . S
C435 O448 1.236 . S
C436 O458 1.240 1_556 S
C436 O459 1.264 . S
O437 Mn432 2.095 . S
O437 C446 1.250 . S
O438 Mn433 2.121 . S
O438 C446 1.258 . S
C439 N440 1.326 . S
C439 C443 1.460 . S
C439 H445 0.929 . S
N440 Mn433 2.257 . S
N440 C439 1.326 . S
N440 C444 1.362 . S
C441 C442 1.258 . S
C441 C444 1.431 . S
C441 C461 1.449 . S
C442 C441 1.258 . S
C442 C443 1.477 . S
C442 H462 0.931 . S
C443 C439 1.460 . S
C443 C442 1.477 . S
C443 H463 0.930 . S
C444 N440 1.362 . S
C444 C441 1.431 . S
C444 C454 1.476 1_554 S
H445 C439 0.929 . S
C446 O437 1.250 . S
C446 O438 1.258 . S
O447 Mn432 2.162 . S
O447 C435 1.281 . S
O448 Mn432 2.297 . S
O448 C435 1.236 . S
N449 Mn433 2.282 1_556 S
N449 C450 1.328 . S
N449 C454 1.318 . S
C450 N449 1.328 . S
C450 C451 1.457 . S
C450 H455 0.929 . S
C451 C450 1.457 . S
C451 C452 1.291 . S
C451 H464 0.931 . S
C452 C451 1.291 . S
C452 C453 1.373 . S
C452 H465 0.929 . S
C453 C452 1.373 . S
C453 C454 1.396 . S
C453 C460 1.403 . S
C454 C444 1.476 1_556 S
C454 N449 1.318 . S
C454 C453 1.396 . S
H455 C450 0.929 . S
O456 Mn432 2.385 . S
O456 C434 1.234 . S
O457 Mn432 2.209 . S
O457 Mn433 2.215 . S
O457 C434 1.283 . S
O458 Mn432 2.094 . S
O458 C436 1.240 1_554 S
O459 Mn433 2.117 1_556 S
O459 C436 1.264 . S
C460 C453 1.403 . S
C460 C461 1.399 1_556 S
C460 H466 0.929 . S
C461 C441 1.449 . S
C461 C460 1.399 1_554 S
C461 H467 0.930 . S
H462 C442 0.931 . S
H463 C443 0.930 . S
H464 C451 0.931 . S
H465 C452 0.929 . S
H466 C460 0.929 . S
H467 C461 0.930 . S
Mn468 O473 2.095 . S
Mn468 O483 2.162 . S
Mn468 O484 2.297 . S
Mn468 O492 2.385 . S
Mn468 O493 2.209 . S
Mn468 O494 2.094 . S
Mn469 O474 2.121 . S
Mn469 N476 2.257 . S
Mn469 N485 2.282 . S
Mn469 O493 2.215 . S
Mn469 O495 2.117 . S
C470 O492 1.234 . S
C470 O493 1.283 . S
C471 O483 1.281 . S
C471 O484 1.236 . S
C472 O494 1.240 . S
C472 O495 1.264 . S
O473 Mn468 2.095 . S
O473 C482 1.250 . S
O474 Mn469 2.121 . S
O474 C482 1.258 . S
C475 N476 1.326 . S
C475 C479 1.460 . S
C475 H481 0.929 . S
N476 Mn469 2.257 . S
N476 C475 1.326 . S
N476 C480 1.362 . S
C477 C478 1.258 . S
C477 C480 1.431 . S
C477 C497 1.446 1_554 S
C478 C477 1.258 . S
C478 C479 1.477 . S
C478 H498 0.931 1_545 S
C479 C475 1.460 . S
C479 C478 1.477 . S
C479 H499 0.930 . S
C480 N476 1.362 . S
C480 C477 1.431 . S
C480 C490 1.476 . S
H481 C475 0.929 . S
C482 O473 1.250 . S
C482 O474 1.258 . S
O483 Mn468 2.162 . S
O483 C471 1.281 . S
O484 Mn468 2.297 . S
O484 C471 1.236 . S
N485 Mn469 2.282 . S
N485 C486 1.318 1_554 S
N485 C490 1.318 . S
C486 N485 1.318 1_556 S
C486 C487 1.464 . S
C486 H491 0.933 1_556 S
C487 C486 1.464 . S
C487 C488 1.291 . S
C487 H500 0.931 . S
C488 C487 1.291 . S
C488 C489 1.373 . S
C488 H501 0.929 . S
C489 C488 1.373 . S
C489 C490 1.396 1_556 S
C489 C496 1.403 . S
C490 C480 1.476 . S
C490 N485 1.318 . S
C490 C489 1.396 1_554 S
H491 C486 0.933 1_554 S
O492 Mn468 2.385 . S
O492 C470 1.234 . S
O493 Mn468 2.209 . S
O493 Mn469 2.215 . S
O493 C470 1.283 . S
O494 Mn468 2.094 . S
O494 C472 1.240 . S
O495 Mn469 2.117 . S
O495 C472 1.264 . S
C496 C489 1.403 . S
C496 C497 1.403 . S
C496 H502 0.929 . S
C497 C477 1.446 1_556 S
C497 C496 1.403 . S
C497 H503 0.929 1_545 S
H498 C478 0.931 1_565 S
H499 C479 0.930 . S
H500 C487 0.931 . S
H501 C488 0.929 . S
H502 C496 0.929 . S
H503 C497 0.929 1_565 S
Mn504 O509 2.095 . S
Mn504 O519 2.162 . S
Mn504 O520 2.297 . S
Mn504 O528 2.385 . S
Mn504 O529 2.209 . S
Mn504 O530 2.094 . S
Mn505 O510 2.121 . S
Mn505 N512 2.257 . S
Mn505 N521 2.282 . S
Mn505 O529 2.215 . S
Mn505 O531 2.117 . S
C506 O528 1.234 . S
C506 O529 1.283 . S
C507 O519 1.281 . S
C507 O520 1.236 . S
C508 O530 1.240 . S
C508 O531 1.264 . S
O509 Mn504 2.095 . S
O509 C518 1.250 . S
O510 Mn505 2.121 . S
O510 C518 1.258 . S
C511 N512 1.326 . S
C511 C515 1.460 . S
C511 H517 0.929 . S
N512 Mn505 2.257 . S
N512 C511 1.326 . S
N512 C516 1.362 . S
C513 C514 1.258 . S
C513 C516 1.431 . S
C513 C533 1.449 . S
C514 C513 1.258 . S
C514 C515 1.477 . S
C514 H534 0.931 . S
C515 C511 1.460 . S
C515 C514 1.477 . S
C515 H535 0.930 . S
C516 N512 1.362 . S
C516 C513 1.431 . S
C516 C526 1.476 . S
H517 C511 0.929 . S
C518 O509 1.250 . S
C518 O510 1.258 . S
O519 Mn504 2.162 . S
O519 C507 1.281 . S
O520 Mn504 2.297 . S
O520 C507 1.236 . S
N521 Mn505 2.282 . S
N521 C522 1.328 . S
N521 C526 1.318 . S
C522 N521 1.328 . S
C522 C523 1.457 . S
C522 H527 0.929 . S
C523 C522 1.457 . S
C523 C524 1.291 . S
C523 H536 0.931 . S
C524 C523 1.291 . S
C524 C525 1.373 . S
C524 H537 0.929 . S
C525 C524 1.373 . S
C525 C526 1.396 . S
C525 C532 1.403 . S
C526 C516 1.476 . S
C526 N521 1.318 . S
C526 C525 1.396 . S
H527 C522 0.929 . S
O528 Mn504 2.385 . S
O528 C506 1.234 . S
O529 Mn504 2.209 . S
O529 Mn505 2.215 . S
O529 C506 1.283 . S
O530 Mn504 2.094 . S
O530 C508 1.240 . S
O531 Mn505 2.117 . S
O531 C508 1.264 . S
C532 C525 1.403 . S
C532 C533 1.399 . S
C532 H538 0.929 . S
C533 C513 1.449 . S
C533 C532 1.399 . S
C533 H539 0.930 . S
H534 C514 0.931 . S
H535 C515 0.930 . S
H536 C523 0.931 . S
H537 C524 0.929 . S
H538 C532 0.929 . S
H539 C533 0.930 . S
Mn540 O545 2.095 . S
Mn540 O555 2.162 . S
Mn540 O556 2.297 . S
Mn540 O564 2.385 . S
Mn540 O565 2.209 . S
Mn540 O566 2.094 . S
Mn541 O546 2.121 . S
Mn541 N548 2.257 . S
Mn541 N557 2.282 . S
Mn541 O565 2.215 . S
Mn541 O567 2.117 . S
C542 O564 1.234 . S
C542 O565 1.283 . S
C543 O555 1.281 . S
C543 O556 1.236 . S
C544 O566 1.240 . S
C544 O567 1.264 . S
O545 Mn540 2.095 . S
O545 C554 1.250 . S
O546 Mn541 2.121 . S
O546 C554 1.258 . S
C547 N548 1.326 1_545 S
C547 C551 1.460 . S
C547 H553 0.929 1_545 S
N548 Mn541 2.257 . S
N548 C547 1.326 1_565 S
N548 C552 1.362 . S
C549 C550 1.258 . S
C549 C552 1.431 1_545 S
C549 C569 1.449 . S
C550 C549 1.258 . S
C550 C551 1.477 . S
C550 H570 0.931 . S
C551 C547 1.460 . S
C551 C550 1.477 . S
C551 H571 0.930 . S
C552 N548 1.362 . S
C552 C549 1.431 1_565 S
C552 C562 1.476 . S
H553 C547 0.929 1_565 S
C554 O545 1.250 . S
C554 O546 1.258 . S
O555 Mn540 2.162 . S
O555 C543 1.281 . S
O556 Mn540 2.297 . S
O556 C543 1.236 . S
N557 Mn541 2.282 . S
N557 C558 1.328 . S
N557 C562 1.318 . S
C558 N557 1.328 . S
C558 C559 1.457 . S
C558 H563 0.929 . S
C559 C558 1.457 . S
C559 C560 1.291 . S
C559 H572 0.931 . S
C560 C559 1.291 . S
C560 C561 1.373 . S
C560 H573 0.929 . S
C561 C560 1.373 . S
C561 C562 1.396 . S
C561 C568 1.403 1_565 S
C562 C552 1.476 . S
C562 N557 1.318 . S
C562 C561 1.396 . S
H563 C558 0.929 . S
O564 Mn540 2.385 . S
O564 C542 1.234 . S
O565 Mn540 2.209 . S
O565 Mn541 2.215 . S
O565 C542 1.283 . S
O566 Mn540 2.094 . S
O566 C544 1.240 . S
O567 Mn541 2.117 . S
O567 C544 1.264 . S
C568 C561 1.403 1_545 S
C568 C569 1.399 . S
C568 H574 0.929 . S
C569 C549 1.449 . S
C569 C568 1.399 . S
C569 H575 0.930 . S
H570 C550 0.931 . S
H571 C551 0.930 . S
H572 C559 0.931 . S
H573 C560 0.929 . S
H574 C568 0.929 . S
H575 C569 0.930 . S
Mn576 O581 2.095 . S
Mn576 O591 2.162 . S
Mn576 O592 2.297 . S
Mn576 O600 2.385 1_545 S
Mn576 O601 2.212 . S
Mn576 O602 2.094 . S
Mn577 O582 2.121 . S
Mn577 N584 2.257 1_545 S
Mn577 N593 2.282 1_545 S
Mn577 O601 2.219 . S
Mn577 O603 2.117 . S
C578 O600 1.234 . S
C578 O601 1.273 1_565 S
C579 O591 1.281 . S
C579 O592 1.236 . S
C580 O602 1.240 . S
C580 O603 1.264 . S
O581 Mn576 2.095 . S
O581 C590 1.250 . S
O582 Mn577 2.121 . S
O582 C590 1.258 . S
C583 N584 1.326 1_545 S
C583 C587 1.460 1_545 S
C583 H589 0.929 . S
N584 Mn577 2.257 1_565 S
N584 C583 1.326 1_565 S
N584 C588 1.362 . S
C585 C586 1.258 . S
C585 C588 1.431 . S
C585 C605 1.449 . S
C586 C585 1.258 . S
C586 C587 1.477 . S
C586 H606 0.931 . S
C587 C583 1.460 1_565 S
C587 C586 1.477 . S
C587 H607 0.930 1_565 S
C588 N584 1.362 . S
C588 C585 1.431 . S
C588 C598 1.476 . S
H589 C583 0.929 . S
C590 O581 1.250 . S
C590 O582 1.258 . S
O591 Mn576 2.162 . S
O591 C579 1.281 . S
O592 Mn576 2.297 . S
O592 C579 1.236 . S
N593 Mn577 2.282 1_565 S
N593 C594 1.328 . S
N593 C598 1.318 . S
C594 N593 1.328 . S
C594 C595 1.457 . S
C594 H599 0.929 . S
C595 C594 1.457 . S
C595 C596 1.291 . S
C595 H608 0.931 . S
C596 C595 1.291 . S
C596 C597 1.373 . S
C596 H609 0.929 . S
C597 C596 1.373 . S
C597 C598 1.396 . S
C597 C604 1.403 . S
C598 C588 1.476 . S
C598 N593 1.318 . S
C598 C597 1.396 . S
H599 C594 0.929 . S
O600 Mn576 2.385 1_565 S
O600 C578 1.234 . S
O601 Mn576 2.212 . S
O601 Mn577 2.219 . S
O601 C578 1.273 1_545 S
O602 Mn576 2.094 . S
O602 C580 1.240 . S
O603 Mn577 2.117 . S
O603 C580 1.264 . S
C604 C597 1.403 . S
C604 C605 1.399 . S
C604 H610 0.929 . S
C605 C585 1.449 . S
C605 C604 1.399 . S
C605 H611 0.930 . S
H606 C586 0.931 . S
H607 C587 0.930 1_545 S
H608 C595 0.931 . S
H609 C596 0.929 . S
H610 C604 0.929 . S
H611 C605 0.930 . S
Mn612 O617 2.095 . S
Mn612 O627 2.162 . S
Mn612 O628 2.297 . S
Mn612 O636 2.385 . S
Mn612 O637 2.209 . S
Mn612 O638 2.094 . S
Mn613 O618 2.121 . S
Mn613 N620 2.257 . S
Mn613 N629 2.282 . S
Mn613 O637 2.215 . S
Mn613 O639 2.117 . S
C614 O636 1.234 . S
C614 O637 1.283 . S
C615 O627 1.281 . S
C615 O628 1.236 . S
C616 O638 1.240 . S
C616 O639 1.264 . S
O617 Mn612 2.095 . S
O617 C626 1.250 . S
O618 Mn613 2.121 . S
O618 C626 1.258 . S
C619 N620 1.326 . S
C619 C623 1.460 . S
C619 H625 0.929 . S
N620 Mn613 2.257 . S
N620 C619 1.326 . S
N620 C624 1.362 . S
C621 C622 1.258 . S
C621 C624 1.431 . S
C621 C641 1.449 . S
C622 C621 1.258 . S
C622 C623 1.477 . S
C622 H642 0.931 . S
C623 C619 1.460 . S
C623 C622 1.477 . S
C623 H643 0.930 . S
C624 N620 1.362 . S
C624 C621 1.431 . S
C624 C634 1.476 . S
H625 C619 0.929 . S
C626 O617 1.250 . S
C626 O618 1.258 . S
O627 Mn612 2.162 . S
O627 C615 1.281 . S
O628 Mn612 2.297 . S
O628 C615 1.236 . S
N629 Mn613 2.282 . S
N629 C630 1.328 . S
N629 C634 1.318 . S
C630 N629 1.328 . S
C630 C631 1.457 . S
C630 H635 0.929 . S
C631 C630 1.457 . S
C631 C632 1.291 . S
C631 H644 0.931 . S
C632 C631 1.291 . S
C632 C633 1.373 . S
C632 H645 0.929 . S
C633 C632 1.373 . S
C633 C634 1.396 . S
C633 C640 1.403 . S
C634 C624 1.476 . S
C634 N629 1.318 . S
C634 C633 1.396 . S
H635 C630 0.929 . S
O636 Mn612 2.385 . S
O636 C614 1.234 . S
O637 Mn612 2.209 . S
O637 Mn613 2.215 . S
O637 C614 1.283 . S
O638 Mn612 2.094 . S
O638 C616 1.240 . S
O639 Mn613 2.117 . S
O639 C616 1.264 . S
C640 C633 1.403 . S
C640 C641 1.399 . S
C640 H646 0.929 . S
C641 C621 1.449 . S
C641 C640 1.399 . S
C641 H647 0.930 . S
H642 C622 0.931 . S
H643 C623 0.930 . S
H644 C631 0.931 . S
H645 C632 0.929 . S
H646 C640 0.929 . S
H647 C641 0.930 . S
Mn648 O653 2.095 . S
Mn648 O663 2.162 . S
Mn648 O664 2.297 . S
Mn648 O672 2.385 . S
Mn648 O673 2.209 . S
Mn648 O674 2.094 . S
Mn649 O654 2.121 . S
Mn649 N656 2.257 . S
Mn649 N665 2.282 . S
Mn649 O673 2.215 . S
Mn649 O675 2.117 . S
C650 O672 1.234 . S
C650 O673 1.283 . S
C651 O663 1.281 . S
C651 O664 1.236 . S
C652 O674 1.240 . S
C652 O675 1.264 . S
O653 Mn648 2.095 . S
O653 C662 1.250 . S
O654 Mn649 2.121 . S
O654 C662 1.258 . S
C655 N656 1.326 . S
C655 C659 1.460 . S
C655 H661 0.929 . S
N656 Mn649 2.257 . S
N656 C655 1.326 . S
N656 C660 1.362 . S
C657 C658 1.258 . S
C657 C660 1.431 . S
C657 C677 1.449 . S
C658 C657 1.258 . S
C658 C659 1.477 . S
C658 H678 0.931 . S
C659 C655 1.460 . S
C659 C658 1.477 . S
C659 H679 0.930 . S
C660 N656 1.362 . S
C660 C657 1.431 . S
C660 C670 1.476 . S
H661 C655 0.929 . S
C662 O653 1.250 . S
C662 O654 1.258 . S
O663 Mn648 2.162 . S
O663 C651 1.281 . S
O664 Mn648 2.297 . S
O664 C651 1.236 . S
N665 Mn649 2.282 . S
N665 C666 1.328 . S
N665 C670 1.318 . S
C666 N665 1.328 . S
C666 C667 1.457 . S
C666 H671 0.929 . S
C667 C666 1.457 . S
C667 C668 1.291 . S
C667 H680 0.931 . S
C668 C667 1.291 . S
C668 C669 1.373 . S
C668 H681 0.929 . S
C669 C668 1.373 . S
C669 C670 1.396 . S
C669 C676 1.403 . S
C670 C660 1.476 . S
C670 N665 1.318 . S
C670 C669 1.396 . S
H671 C666 0.929 . S
O672 Mn648 2.385 . S
O672 C650 1.234 . S
O673 Mn648 2.209 . S
O673 Mn649 2.215 . S
O673 C650 1.283 . S
O674 Mn648 2.094 . S
O674 C652 1.240 . S
O675 Mn649 2.117 . S
O675 C652 1.264 . S
C676 C669 1.403 . S
C676 C677 1.399 . S
C676 H682 0.929 . S
C677 C657 1.449 . S
C677 C676 1.399 . S
C677 H683 0.930 . S
H678 C658 0.931 . S
H679 C659 0.930 . S
H680 C667 0.931 . S
H681 C668 0.929 . S
H682 C676 0.929 . S
H683 C677 0.930 . S
Mn684 O689 2.095 . S
Mn684 O699 2.162 . S
Mn684 O700 2.297 . S
Mn684 O708 2.385 . S
Mn684 O709 2.209 . S
Mn684 O710 2.094 . S
Mn685 O690 2.121 . S
Mn685 N692 2.257 . S
Mn685 N701 2.282 . S
Mn685 O709 2.215 . S
Mn685 O711 2.117 . S
C686 O708 1.234 . S
C686 O709 1.283 . S
C687 O699 1.281 . S
C687 O700 1.236 . S
C688 O710 1.240 . S
C688 O711 1.264 . S
O689 Mn684 2.095 . S
O689 C698 1.250 . S
O690 Mn685 2.121 . S
O690 C698 1.258 . S
C691 N692 1.326 . S
C691 C695 1.460 . S
C691 H697 0.929 . S
N692 Mn685 2.257 . S
N692 C691 1.326 . S
N692 C696 1.362 . S
C693 C694 1.258 . S
C693 C696 1.431 . S
C693 C713 1.449 . S
C694 C693 1.258 . S
C694 C695 1.477 . S
C694 H714 0.931 . S
C695 C691 1.460 . S
C695 C694 1.477 . S
C695 H715 0.930 . S
C696 N692 1.362 . S
C696 C693 1.431 . S
C696 C706 1.476 . S
H697 C691 0.929 . S
C698 O689 1.250 . S
C698 O690 1.258 . S
O699 Mn684 2.162 . S
O699 C687 1.281 . S
O700 Mn684 2.297 . S
O700 C687 1.236 . S
N701 Mn685 2.282 . S
N701 C702 1.328 . S
N701 C706 1.318 . S
C702 N701 1.328 . S
C702 C703 1.457 . S
C702 H707 0.929 . S
C703 C702 1.457 . S
C703 C704 1.291 . S
C703 H716 0.931 . S
C704 C703 1.291 . S
C704 C705 1.373 . S
C704 H717 0.929 . S
C705 C704 1.373 . S
C705 C706 1.396 . S
C705 C712 1.403 . S
C706 C696 1.476 . S
C706 N701 1.318 . S
C706 C705 1.396 . S
H707 C702 0.929 . S
O708 Mn684 2.385 . S
O708 C686 1.234 . S
O709 Mn684 2.209 . S
O709 Mn685 2.215 . S
O709 C686 1.283 . S
O710 Mn684 2.094 . S
O710 C688 1.240 . S
O711 Mn685 2.117 . S
O711 C688 1.264 . S
C712 C705 1.403 . S
C712 C713 1.399 . S
C712 H718 0.929 . S
C713 C693 1.449 . S
C713 C712 1.399 . S
C713 H719 0.930 . S
H714 C694 0.931 . S
H715 C695 0.930 . S
H716 C703 0.931 . S
H717 C704 0.929 . S
H718 C712 0.929 . S
H719 C713 0.930 . S
Mn720 O725 2.095 . S
Mn720 O735 2.162 . S
Mn720 O736 2.297 . S
Mn720 O744 2.385 . S
Mn720 O745 2.209 . S
Mn720 O746 2.094 . S
Mn721 O726 2.121 1_556 S
Mn721 N728 2.257 . S
Mn721 N737 2.282 . S
Mn721 O745 2.215 1_556 S
Mn721 O747 2.117 . S
C722 O744 1.234 . S
C722 O745 1.283 . S
C723 O735 1.281 . S
C723 O736 1.236 . S
C724 O746 1.240 1_556 S
C724 O747 1.264 . S
O725 Mn720 2.095 . S
O725 C734 1.250 . S
O726 Mn721 2.121 1_554 S
O726 C734 1.258 . S
C727 N728 1.326 . S
C727 C731 1.460 . S
C727 H733 0.929 1_556 S
N728 Mn721 2.257 . S
N728 C727 1.326 . S
N728 C732 1.362 . S
C729 C730 1.258 . S
C729 C732 1.431 . S
C729 C749 1.449 . S
C730 C729 1.258 . S
C730 C731 1.477 . S
C730 H750 0.931 . S
C731 C727 1.460 . S
C731 C730 1.477 . S
C731 H751 0.930 1_556 S
C732 N728 1.362 . S
C732 C729 1.431 . S
C732 C742 1.476 . S
H733 C727 0.929 1_554 S
C734 O725 1.250 . S
C734 O726 1.258 . S
O735 Mn720 2.162 . S
O735 C723 1.281 . S
O736 Mn720 2.297 . S
O736 C723 1.236 . S
N737 Mn721 2.282 . S
N737 C738 1.328 . S
N737 C742 1.318 . S
C738 N737 1.328 . S
C738 C739 1.457 . S
C738 H743 0.929 . S
C739 C738 1.457 . S
C739 C740 1.291 . S
C739 H752 0.931 . S
C740 C739 1.291 . S
C740 C741 1.373 . S
C740 H753 0.929 . S
C741 C740 1.373 . S
C741 C742 1.396 . S
C741 C748 1.403 . S
C742 C732 1.476 . S
C742 N737 1.318 . S
C742 C741 1.396 . S
H743 C738 0.929 . S
O744 Mn720 2.385 . S
O744 C722 1.234 . S
O745 Mn720 2.209 . S
O745 Mn721 2.215 1_554 S
O745 C722 1.283 . S
O746 Mn720 2.094 . S
O746 C724 1.240 1_554 S
O747 Mn721 2.117 . S
O747 C724 1.264 . S
C748 C741 1.403 . S
C748 C749 1.399 . S
C748 H754 0.929 . S
C749 C729 1.449 . S
C749 C748 1.399 . S
C749 H755 0.930 . S
H750 C730 0.931 . S
H751 C731 0.930 1_554 S
H752 C739 0.931 . S
H753 C740 0.929 . S
H754 C748 0.929 . S
H755 C749 0.930 . S
Mn756 O761 2.095 . S
Mn756 O771 2.162 . S
Mn756 O772 2.297 . S
Mn756 O780 2.385 . S
Mn756 O781 2.209 . S
Mn756 O782 2.094 . S
Mn757 O762 2.121 . S
Mn757 N764 2.257 . S
Mn757 N773 2.282 . S
Mn757 O781 2.215 . S
Mn757 O783 2.117 . S
C758 O780 1.234 . S
C758 O781 1.283 . S
C759 O771 1.281 . S
C759 O772 1.236 . S
C760 O782 1.240 . S
C760 O783 1.264 . S
O761 Mn756 2.095 . S
O761 C770 1.250 . S
O762 Mn757 2.121 . S
O762 C770 1.258 . S
C763 N764 1.326 . S
C763 C767 1.460 . S
C763 H769 0.929 . S
N764 Mn757 2.257 . S
N764 C763 1.326 . S
N764 C768 1.362 . S
C765 C766 1.258 . S
C765 C768 1.431 . S
C765 C785 1.449 . S
C766 C765 1.258 . S
C766 C767 1.477 . S
C766 H786 0.931 . S
C767 C763 1.460 . S
C767 C766 1.477 . S
C767 H787 0.930 . S
C768 N764 1.362 . S
C768 C765 1.431 . S
C768 C778 1.476 . S
H769 C763 0.929 . S
C770 O761 1.250 . S
C770 O762 1.258 . S
O771 Mn756 2.162 . S
O771 C759 1.281 . S
O772 Mn756 2.297 . S
O772 C759 1.236 . S
N773 Mn757 2.282 . S
N773 C774 1.328 . S
N773 C778 1.318 . S
C774 N773 1.328 . S
C774 C775 1.457 . S
C774 H779 0.929 . S
C775 C774 1.457 . S
C775 C776 1.291 . S
C775 H788 0.931 . S
C776 C775 1.291 . S
C776 C777 1.373 . S
C776 H789 0.929 . S
C777 C776 1.373 . S
C777 C778 1.396 . S
C777 C784 1.403 . S
C778 C768 1.476 . S
C778 N773 1.318 . S
C778 C777 1.396 . S
H779 C774 0.929 . S
O780 Mn756 2.385 . S
O780 C758 1.234 . S
O781 Mn756 2.209 . S
O781 Mn757 2.215 . S
O781 C758 1.283 . S
O782 Mn756 2.094 . S
O782 C760 1.240 . S
O783 Mn757 2.117 . S
O783 C760 1.264 . S
C784 C777 1.403 . S
C784 C785 1.399 . S
C784 H790 0.929 . S
C785 C765 1.449 . S
C785 C784 1.399 . S
C785 H791 0.930 . S
H786 C766 0.931 . S
H787 C767 0.930 . S
H788 C775 0.931 . S
H789 C776 0.929 . S
H790 C784 0.929 . S
H791 C785 0.930 . S
Mn792 O797 2.095 . S
Mn792 O807 2.162 . S
Mn792 O808 2.297 . S
Mn792 O816 2.385 . S
Mn792 O817 2.209 . S
Mn792 O818 2.094 . S
Mn793 O798 2.121 . S
Mn793 N800 2.257 . S
Mn793 N809 2.282 . S
Mn793 O817 2.215 . S
Mn793 O819 2.117 . S
C794 O816 1.234 . S
C794 O817 1.283 . S
C795 O807 1.281 . S
C795 O808 1.236 . S
C796 O818 1.240 . S
C796 O819 1.264 . S
O797 Mn792 2.095 . S
O797 C806 1.250 . S
O798 Mn793 2.121 . S
O798 C806 1.258 . S
C799 N800 1.326 . S
C799 C803 1.460 . S
C799 H805 0.929 . S
N800 Mn793 2.257 . S
N800 C799 1.326 . S
N800 C804 1.362 . S
C801 C802 1.258 . S
C801 C804 1.431 . S
C801 C821 1.449 . S
C802 C801 1.258 . S
C802 C803 1.477 . S
C802 H822 0.931 . S
C803 C799 1.460 . S
C803 C802 1.477 . S
C803 H823 0.930 . S
C804 N800 1.362 . S
C804 C801 1.431 . S
C804 C814 1.476 . S
H805 C799 0.929 . S
C806 O797 1.250 . S
C806 O798 1.258 . S
O807 Mn792 2.162 . S
O807 C795 1.281 . S
O808 Mn792 2.297 . S
O808 C795 1.236 . S
N809 Mn793 2.282 . S
N809 C810 1.328 . S
N809 C814 1.318 . S
C810 N809 1.328 . S
C810 C811 1.457 . S
C810 H815 0.929 . S
C811 C810 1.457 . S
C811 C812 1.291 . S
C811 H824 0.931 . S
C812 C811 1.291 . S
C812 C813 1.373 . S
C812 H825 0.929 . S
C813 C812 1.373 . S
C813 C814 1.396 . S
C813 C820 1.403 . S
C814 C804 1.476 . S
C814 N809 1.318 . S
C814 C813 1.396 . S
H815 C810 0.929 . S
O816 Mn792 2.385 . S
O816 C794 1.234 . S
O817 Mn792 2.209 . S
O817 Mn793 2.215 . S
O817 C794 1.283 . S
O818 Mn792 2.094 . S
O818 C796 1.240 . S
O819 Mn793 2.117 . S
O819 C796 1.264 . S
C820 C813 1.403 . S
C820 C821 1.399 . S
C820 H826 0.929 . S
C821 C801 1.449 . S
C821 C820 1.399 . S
C821 H827 0.930 . S
H822 C802 0.931 . S
H823 C803 0.930 . S
H824 C811 0.931 . S
H825 C812 0.929 . S
H826 C820 0.929 . S
H827 C821 0.930 . S
Mn828 O833 2.095 . S
Mn828 O843 2.162 . S
Mn828 O844 2.297 . S
Mn828 O852 2.385 . S
Mn828 O853 2.209 . S
Mn828 O854 2.094 . S
Mn829 O834 2.121 . S
Mn829 N836 2.257 . S
Mn829 N845 2.282 . S
Mn829 O853 2.215 . S
Mn829 O855 2.117 . S
C830 O852 1.234 . S
C830 O853 1.283 . S
C831 O843 1.281 . S
C831 O844 1.236 . S
C832 O854 1.240 . S
C832 O855 1.264 . S
O833 Mn828 2.095 . S
O833 C842 1.250 . S
O834 Mn829 2.121 . S
O834 C842 1.258 . S
C835 N836 1.326 . S
C835 C839 1.460 . S
C835 H841 0.929 . S
N836 Mn829 2.257 . S
N836 C835 1.326 . S
N836 C840 1.362 . S
C837 C838 1.258 . S
C837 C840 1.431 . S
C837 C857 1.449 . S
C838 C837 1.258 . S
C838 C839 1.477 . S
C838 H858 0.931 . S
C839 C835 1.460 . S
C839 C838 1.477 . S
C839 H859 0.930 . S
C840 N836 1.362 . S
C840 C837 1.431 . S
C840 C850 1.476 . S
H841 C835 0.929 . S
C842 O833 1.250 . S
C842 O834 1.258 . S
O843 Mn828 2.162 . S
O843 C831 1.281 . S
O844 Mn828 2.297 . S
O844 C831 1.236 . S
N845 Mn829 2.282 . S
N845 C846 1.328 . S
N845 C850 1.318 . S
C846 N845 1.328 . S
C846 C847 1.457 . S
C846 H851 0.929 . S
C847 C846 1.457 . S
C847 C848 1.291 . S
C847 H860 0.931 . S
C848 C847 1.291 . S
C848 C849 1.373 . S
C848 H861 0.929 . S
C849 C848 1.373 . S
C849 C850 1.396 . S
C849 C856 1.403 . S
C850 C840 1.476 . S
C850 N845 1.318 . S
C850 C849 1.396 . S
H851 C846 0.929 . S
O852 Mn828 2.385 . S
O852 C830 1.234 . S
O853 Mn828 2.209 . S
O853 Mn829 2.215 . S
O853 C830 1.283 . S
O854 Mn828 2.094 . S
O854 C832 1.240 . S
O855 Mn829 2.117 . S
O855 C832 1.264 . S
C856 C849 1.403 . S
C856 C857 1.399 . S
C856 H862 0.929 . S
C857 C837 1.449 . S
C857 C856 1.399 . S
C857 H863 0.930 . S
H858 C838 0.931 . S
H859 C839 0.930 . S
H860 C847 0.931 . S
H861 C848 0.929 . S
H862 C856 0.929 . S
H863 C857 0.930 . S
Dy864 O867 2.307 . S
Dy864 O869 2.395 . S
Dy864 O870 2.379 . S
Dy864 O872 2.339 . S
Dy864 O874 2.298 . S
Dy864 O878 2.275 . S
Dy864 C886 2.738 . S
Dy865 O868 2.298 1_655 S
Dy865 O871 2.275 1_655 S
Dy865 O873 2.307 1_645 S
Dy865 O875 2.395 . S
Dy865 O876 2.379 1_554 S
Dy865 O879 2.339 1_654 S
Dy865 C895 2.738 . S
C866 O878 1.254 1_556 S
C866 O879 1.257 . S
O867 Dy864 2.307 . S
O867 C877 1.266 . S
O868 Dy865 2.298 1_455 S
O868 C877 1.236 . S
O869 Dy864 2.395 . S
O869 C886 1.255 . S
O870 Dy864 2.379 . S
O870 C886 1.249 . S
O871 Dy865 2.275 1_455 S
O871 C887 1.254 . S
O872 Dy864 2.339 . S
O872 C887 1.257 . S
O873 Dy865 2.307 1_465 S
O873 C888 1.266 . S
O874 Dy864 2.298 . S
O874 C888 1.236 1_545 S
O875 Dy865 2.395 . S
O875 C895 1.255 . S
O876 Dy865 2.379 1_556 S
O876 C895 1.249 1_556 S
C877 O867 1.266 . S
C877 O868 1.236 . S
O878 Dy864 2.275 . S
O878 C866 1.254 1_554 S
O879 Dy865 2.339 1_456 S
O879 C866 1.257 . S
C880 C883 1.344 . S
C880 C884 1.328 . S
C880 C886 1.516 . S
C881 C882 1.304 . S
C881 C885 1.323 . S
C882 C881 1.304 . S
C882 C883 1.371 . S
C882 H896 0.930 . S
C883 C880 1.344 . S
C883 C882 1.371 . S
C883 H897 0.931 . S
C884 C880 1.328 . S
C884 C885 1.433 . S
C884 H898 0.931 . S
C885 C881 1.323 . S
C885 C884 1.433 . S
C885 H899 0.933 . S
C886 Dy864 2.738 . S
C886 O869 1.255 . S
C886 O870 1.249 . S
C886 C880 1.516 . S
C887 O871 1.254 . S
C887 O872 1.257 . S
C888 O873 1.266 . S
C888 O874 1.236 1_565 S
C889 C892 1.344 . S
C889 C893 1.328 1_554 S
C889 C895 1.516 . S
C890 C891 1.304 . S
C890 C894 1.323 1_554 S
C891 C890 1.304 . S
C891 C892 1.371 . S
C891 H900 0.930 . S
C892 C889 1.344 . S
C892 C891 1.371 . S
C892 H901 0.931 . S
C893 C889 1.328 1_556 S
C893 C894 1.433 . S
C893 H902 0.931 . S
C894 C890 1.323 1_556 S
C894 C893 1.433 . S
C894 H903 0.933 . S
C895 Dy865 2.738 . S
C895 O875 1.255 . S
C895 O876 1.249 1_554 S
C895 C889 1.516 . S
H896 C882 0.930 . S
H897 C883 0.931 . S
H898 C884 0.931 . S
H899 C885 0.933 . S
H900 C891 0.930 . S
H901 C892 0.931 . S
H902 C893 0.931 . S
H903 C894 0.933 . S
Dy904 O907 2.307 . S
Dy904 O909 2.395 . S
Dy904 O910 2.379 . S
Dy904 O912 2.339 . S
Dy904 O914 2.298 . S
Dy904 O918 2.275 . S
Dy904 C926 2.738 . S
Dy905 O908 2.298 . S
Dy905 O911 2.275 . S
Dy905 O913 2.307 . S
Dy905 O915 2.395 . S
Dy905 O916 2.379 . S
Dy905 O919 2.339 . S
Dy905 C935 2.738 . S
C906 O918 1.254 . S
C906 O919 1.257 . S
O907 Dy904 2.307 . S
O907 C917 1.266 . S
O908 Dy905 2.298 . S
O908 C917 1.236 . S
O909 Dy904 2.395 . S
O909 C926 1.255 . S
O910 Dy904 2.379 . S
O910 C926 1.249 . S
O911 Dy905 2.275 . S
O911 C927 1.254 . S
O912 Dy904 2.339 . S
O912 C927 1.257 . S
O913 Dy905 2.307 . S
O913 C928 1.266 . S
O914 Dy904 2.298 . S
O914 C928 1.236 . S
O915 Dy905 2.395 . S
O915 C935 1.255 . S
O916 Dy905 2.379 . S
O916 C935 1.249 . S
C917 O907 1.266 . S
C917 O908 1.236 . S
O918 Dy904 2.275 . S
O918 C906 1.254 . S
O919 Dy905 2.339 . S
O919 C906 1.257 . S
C920 C923 1.344 . S
C920 C924 1.328 . S
C920 C926 1.516 . S
C921 C922 1.304 . S
C921 C925 1.323 . S
C922 C921 1.304 . S
C922 C923 1.371 . S
C922 H936 0.930 . S
C923 C920 1.344 . S
C923 C922 1.371 . S
C923 H937 0.931 . S
C924 C920 1.328 . S
C924 C925 1.433 . S
C924 H938 0.931 . S
C925 C921 1.323 . S
C925 C924 1.433 . S
C925 H939 0.933 . S
C926 Dy904 2.738 . S
C926 O909 1.255 . S
C926 O910 1.249 . S
C926 C920 1.516 . S
C927 O911 1.254 . S
C927 O912 1.257 . S
C928 O913 1.266 . S
C928 O914 1.236 . S
C929 C932 1.344 . S
C929 C933 1.328 . S
C929 C935 1.516 . S
C930 C931 1.304 . S
C930 C934 1.323 . S
C931 C930 1.304 . S
C931 C932 1.371 . S
C931 H940 0.930 . S
C932 C929 1.344 . S
C932 C931 1.371 . S
C932 H941 0.931 . S
C933 C929 1.328 . S
C933 C934 1.433 . S
C933 H942 0.931 . S
C934 C930 1.323 . S
C934 C933 1.433 . S
C934 H943 0.933 . S
C935 Dy905 2.738 . S
C935 O915 1.255 . S
C935 O916 1.249 . S
C935 C929 1.516 . S
H936 C922 0.930 . S
H937 C923 0.931 . S
H938 C924 0.931 . S
H939 C925 0.933 . S
H940 C931 0.930 . S
H941 C932 0.931 . S
H942 C933 0.931 . S
H943 C934 0.933 . S
Dy944 O947 2.307 . S
Dy944 O949 2.395 . S
Dy944 O950 2.379 . S
Dy944 O952 2.339 . S
Dy944 O954 2.298 . S
Dy944 O958 2.275 . S
Dy944 C966 2.738 . S
Dy945 O948 2.298 . S
Dy945 O951 2.275 . S
Dy945 O953 2.307 . S
Dy945 O955 2.395 . S
Dy945 O956 2.379 . S
Dy945 O959 2.339 . S
Dy945 C975 2.738 . S
C946 O958 1.254 . S
C946 O959 1.257 . S
O947 Dy944 2.307 . S
O947 C957 1.259 1_545 S
O948 Dy945 2.298 . S
O948 C957 1.231 1_545 S
O949 Dy944 2.395 . S
O949 C966 1.255 . S
O950 Dy944 2.379 . S
O950 C966 1.249 . S
O951 Dy945 2.275 . S
O951 C967 1.254 . S
O952 Dy944 2.339 . S
O952 C967 1.257 . S
O953 Dy945 2.307 . S
O953 C968 1.266 . S
O954 Dy944 2.298 . S
O954 C968 1.236 . S
O955 Dy945 2.395 . S
O955 C975 1.255 . S
O956 Dy945 2.379 . S
O956 C975 1.249 . S
C957 O947 1.259 1_565 S
C957 O948 1.231 1_565 S
O958 Dy944 2.275 . S
O958 C946 1.254 . S
O959 Dy945 2.339 . S
O959 C946 1.257 . S
C960 C963 1.344 . S
C960 C964 1.328 . S
C960 C966 1.516 . S
C961 C962 1.304 . S
C961 C965 1.323 . S
C962 C961 1.304 . S
C962 C963 1.371 . S
C962 H976 0.930 . S
C963 C960 1.344 . S
C963 C962 1.371 . S
C963 H977 0.931 . S
C964 C960 1.328 . S
C964 C965 1.433 . S
C964 H978 0.931 . S
C965 C961 1.323 . S
C965 C964 1.433 . S
C965 H979 0.933 . S
C966 Dy944 2.738 . S
C966 O949 1.255 . S
C966 O950 1.249 . S
C966 C960 1.516 . S
C967 O951 1.254 . S
C967 O952 1.257 . S
C968 O953 1.266 . S
C968 O954 1.236 . S
C969 C972 1.344 . S
C969 C973 1.328 . S
C969 C975 1.516 . S
C970 C971 1.304 . S
C970 C974 1.323 . S
C971 C970 1.304 . S
C971 C972 1.371 1_565 S
C971 H980 0.930 . S
C972 C969 1.344 . S
C972 C971 1.371 1_545 S
C972 H981 0.931 . S
C973 C969 1.328 . S
C973 C974 1.433 1_545 S
C973 H982 0.931 . S
C974 C970 1.323 . S
C974 C973 1.433 1_565 S
C974 H983 0.933 . S
C975 Dy945 2.738 . S
C975 O955 1.255 . S
C975 O956 1.249 . S
C975 C969 1.516 . S
H976 C962 0.930 . S
H977 C963 0.931 . S
H978 C964 0.931 . S
H979 C965 0.933 . S
H980 C971 0.930 . S
H981 C972 0.931 . S
H982 C973 0.931 . S
H983 C974 0.933 . S
Dy984 O987 2.307 . S
Dy984 O989 2.395 . S
Dy984 O990 2.379 . S
Dy984 O992 2.339 . S
Dy984 O994 2.298 . S
Dy984 O998 2.275 . S
Dy984 C1006 2.738 . S
Dy985 O988 2.298 . S
Dy985 O991 2.275 . S
Dy985 O993 2.307 . S
Dy985 O995 2.395 . S
Dy985 O996 2.379 . S
Dy985 O999 2.339 . S
Dy985 C1015 2.738 . S
C986 O998 1.254 . S
C986 O999 1.257 . S
O987 Dy984 2.307 . S
O987 C997 1.266 . S
O988 Dy985 2.298 . S
O988 C997 1.236 . S
O989 Dy984 2.395 . S
O989 C1006 1.255 . S
O990 Dy984 2.379 . S
O990 C1006 1.249 . S
O991 Dy985 2.275 . S
O991 C1007 1.254 . S
O992 Dy984 2.339 . S
O992 C1007 1.257 . S
O993 Dy985 2.307 . S
O993 C1008 1.266 . S
O994 Dy984 2.298 . S
O994 C1008 1.236 . S
O995 Dy985 2.395 . S
O995 C1015 1.255 . S
O996 Dy985 2.379 . S
O996 C1015 1.249 . S
C997 O987 1.266 . S
C997 O988 1.236 . S
O998 Dy984 2.275 . S
O998 C986 1.254 . S
O999 Dy985 2.339 . S
O999 C986 1.257 . S
C1000 C1003 1.344 . S
C1000 C1004 1.328 . S
C1000 C1006 1.516 . S
C1001 C1002 1.304 . S
C1001 C1005 1.323 . S
C1002 C1001 1.304 . S
C1002 C1003 1.371 . S
C1002 H1016 0.930 . S
C1003 C1000 1.344 . S
C1003 C1002 1.371 . S
C1003 H1017 0.931 . S
C1004 C1000 1.328 . S
C1004 C1005 1.433 . S
C1004 H1018 0.931 . S
C1005 C1001 1.323 . S
C1005 C1004 1.433 . S
C1005 H1019 0.933 . S
C1006 Dy984 2.738 . S
C1006 O989 1.255 . S
C1006 O990 1.249 . S
C1006 C1000 1.516 . S
C1007 O991 1.254 . S
C1007 O992 1.257 . S
C1008 O993 1.266 . S
C1008 O994 1.236 . S
C1009 C1012 1.344 . S
C1009 C1013 1.328 . S
C1009 C1015 1.516 . S
C1010 C1011 1.304 . S
C1010 C1014 1.323 . S
C1011 C1010 1.304 . S
C1011 C1012 1.371 . S
C1011 H1020 0.930 . S
C1012 C1009 1.344 . S
C1012 C1011 1.371 . S
C1012 H1021 0.931 . S
C1013 C1009 1.328 . S
C1013 C1014 1.433 . S
C1013 H1022 0.931 . S
C1014 C1010 1.323 . S
C1014 C1013 1.433 . S
C1014 H1023 0.933 . S
C1015 Dy985 2.738 . S
C1015 O995 1.255 . S
C1015 O996 1.249 . S
C1015 C1009 1.516 . S
H1016 C1002 0.930 . S
H1017 C1003 0.931 . S
H1018 C1004 0.931 . S
H1019 C1005 0.933 . S
H1020 C1011 0.930 . S
H1021 C1012 0.931 . S
H1022 C1013 0.931 . S
H1023 C1014 0.933 . S
Dy1024 O1027 2.307 . S
Dy1024 O1029 2.395 1_545 S
Dy1024 O1030 2.379 1_545 S
Dy1024 O1032 2.339 . S
Dy1024 O1034 2.298 . S
Dy1024 O1038 2.275 . S
Dy1024 C1046 2.738 1_545 S
Dy1025 O1028 2.298 . S
Dy1025 O1031 2.275 . S
Dy1025 O1033 2.307 . S
Dy1025 O1035 2.395 . S
Dy1025 O1036 2.379 1_455 S
Dy1025 O1039 2.339 1_455 S
Dy1025 C1055 2.738 . S
C1026 O1038 1.254 1_655 S
C1026 O1039 1.257 . S
O1027 Dy1024 2.307 . S
O1027 C1037 1.266 . S
O1028 Dy1025 2.298 . S
O1028 C1037 1.236 . S
O1029 Dy1024 2.395 1_565 S
O1029 C1046 1.255 . S
O1030 Dy1024 2.379 1_565 S
O1030 C1046 1.249 . S
O1031 Dy1025 2.275 . S
O1031 C1047 1.254 . S
O1032 Dy1024 2.339 . S
O1032 C1047 1.257 . S
O1033 Dy1025 2.307 . S
O1033 C1048 1.266 . S
O1034 Dy1024 2.298 . S
O1034 C1048 1.236 . S
O1035 Dy1025 2.395 . S
O1035 C1055 1.255 . S
O1036 Dy1025 2.379 1_655 S
O1036 C1055 1.249 1_655 S
C1037 O1027 1.266 . S
C1037 O1028 1.236 . S
O1038 Dy1024 2.275 . S
O1038 C1026 1.254 1_455 S
O1039 Dy1025 2.339 1_655 S
O1039 C1026 1.257 . S
C1040 C1043 1.344 . S
C1040 C1044 1.328 . S
C1040 C1046 1.516 . S
C1041 C1042 1.304 . S
C1041 C1045 1.323 . S
C1042 C1041 1.304 . S
C1042 C1043 1.371 . S
C1042 H1056 0.930 . S
C1043 C1040 1.344 . S
C1043 C1042 1.371 . S
C1043 H1057 0.931 . S
C1044 C1040 1.328 . S
C1044 C1045 1.433 . S
C1044 H1058 0.931 . S
C1045 C1041 1.323 . S
C1045 C1044 1.433 . S
C1045 H1059 0.933 . S
C1046 Dy1024 2.738 1_565 S
C1046 O1029 1.255 . S
C1046 O1030 1.249 . S
C1046 C1040 1.516 . S
C1047 O1031 1.254 . S
C1047 O1032 1.257 . S
C1048 O1033 1.266 . S
C1048 O1034 1.236 . S
C1049 C1052 1.344 . S
C1049 C1053 1.328 1_455 S
C1049 C1055 1.516 . S
C1050 C1051 1.304 . S
C1050 C1054 1.323 1_455 S
C1051 C1050 1.304 . S
C1051 C1052 1.371 . S
C1051 H1060 0.930 . S
C1052 C1049 1.344 . S
C1052 C1051 1.371 . S
C1052 H1061 0.931 . S
C1053 C1049 1.328 1_655 S
C1053 C1054 1.433 . S
C1053 H1062 0.931 . S
C1054 C1050 1.323 1_655 S
C1054 C1053 1.433 . S
C1054 H1063 0.933 . S
C1055 Dy1025 2.738 . S
C1055 O1035 1.255 . S
C1055 O1036 1.249 1_455 S
C1055 C1049 1.516 . S
H1056 C1042 0.930 . S
H1057 C1043 0.931 . S
H1058 C1044 0.931 . S
H1059 C1045 0.933 . S
H1060 C1051 0.930 . S
H1061 C1052 0.931 . S
H1062 C1053 0.931 . S
H1063 C1054 0.933 . S
Dy1064 O1067 2.307 . S
Dy1064 O1069 2.395 . S
Dy1064 O1070 2.379 . S
Dy1064 O1072 2.339 . S
Dy1064 O1074 2.298 . S
Dy1064 O1078 2.275 . S
Dy1064 C1086 2.738 . S
Dy1065 O1068 2.298 . S
Dy1065 O1071 2.275 . S
Dy1065 O1073 2.307 . S
Dy1065 O1075 2.395 . S
Dy1065 O1076 2.379 . S
Dy1065 O1079 2.339 . S
Dy1065 C1095 2.738 . S
C1066 O1078 1.254 . S
C1066 O1079 1.257 . S
O1067 Dy1064 2.307 . S
O1067 C1077 1.266 . S
O1068 Dy1065 2.298 . S
O1068 C1077 1.236 . S
O1069 Dy1064 2.395 . S
O1069 C1086 1.255 . S
O1070 Dy1064 2.379 . S
O1070 C1086 1.249 . S
O1071 Dy1065 2.275 . S
O1071 C1087 1.254 . S
O1072 Dy1064 2.339 . S
O1072 C1087 1.257 . S
O1073 Dy1065 2.307 . S
O1073 C1088 1.266 . S
O1074 Dy1064 2.298 . S
O1074 C1088 1.236 . S
O1075 Dy1065 2.395 . S
O1075 C1095 1.255 . S
O1076 Dy1065 2.379 . S
O1076 C1095 1.249 . S
C1077 O1067 1.266 . S
C1077 O1068 1.236 . S
O1078 Dy1064 2.275 . S
O1078 C1066 1.254 . S
O1079 Dy1065 2.339 . S
O1079 C1066 1.257 . S
C1080 C1083 1.344 . S
C1080 C1084 1.328 . S
C1080 C1086 1.516 . S
C1081 C1082 1.304 . S
C1081 C1085 1.323 . S
C1082 C1081 1.304 . S
C1082 C1083 1.371 . S
C1082 H1096 0.930 . S
C1083 C1080 1.344 . S
C1083 C1082 1.371 . S
C1083 H1097 0.931 . S
C1084 C1080 1.328 . S
C1084 C1085 1.433 . S
C1084 H1098 0.931 . S
C1085 C1081 1.323 . S
C1085 C1084 1.433 . S
C1085 H1099 0.933 . S
C1086 Dy1064 2.738 . S
C1086 O1069 1.255 . S
C1086 O1070 1.249 . S
C1086 C1080 1.516 . S
C1087 O1071 1.254 . S
C1087 O1072 1.257 . S
C1088 O1073 1.266 . S
C1088 O1074 1.236 . S
C1089 C1092 1.344 . S
C1089 C1093 1.328 . S
C1089 C1095 1.516 . S
C1090 C1091 1.304 . S
C1090 C1094 1.323 . S
C1091 C1090 1.304 . S
C1091 C1092 1.371 . S
C1091 H1100 0.930 . S
C1092 C1089 1.344 . S
C1092 C1091 1.371 . S
C1092 H1101 0.931 . S
C1093 C1089 1.328 . S
C1093 C1094 1.433 . S
C1093 H1102 0.931 . S
C1094 C1090 1.323 . S
C1094 C1093 1.433 . S
C1094 H1103 0.933 . S
C1095 Dy1065 2.738 . S
C1095 O1075 1.255 . S
C1095 O1076 1.249 . S
C1095 C1089 1.516 . S
H1096 C1082 0.930 . S
H1097 C1083 0.931 . S
H1098 C1084 0.931 . S
H1099 C1085 0.933 . S
H1100 C1091 0.930 . S
H1101 C1092 0.931 . S
H1102 C1093 0.931 . S
H1103 C1094 0.933 . S
Dy1104 O1107 2.307 . S
Dy1104 O1109 2.395 1_554 S
Dy1104 O1110 2.379 1_554 S
Dy1104 O1112 2.339 . S
Dy1104 O1114 2.298 . S
Dy1104 O1118 2.275 . S
Dy1104 C1126 2.738 1_554 S
Dy1105 O1108 2.298 . S
Dy1105 O1111 2.275 . S
Dy1105 O1113 2.307 . S
Dy1105 O1115 2.395 . S
Dy1105 O1116 2.379 . S
Dy1105 O1119 2.347 . S
Dy1105 C1135 2.738 . S
C1106 O1118 1.254 . S
C1106 O1119 1.262 . S
O1107 Dy1104 2.307 . S
O1107 C1117 1.266 . S
O1108 Dy1105 2.298 . S
O1108 C1117 1.236 . S
O1109 Dy1104 2.395 1_556 S
O1109 C1126 1.255 . S
O1110 Dy1104 2.379 1_556 S
O1110 C1126 1.249 . S
O1111 Dy1105 2.275 . S
O1111 C1127 1.254 . S
O1112 Dy1104 2.339 . S
O1112 C1127 1.257 . S
O1113 Dy1105 2.307 . S
O1113 C1128 1.266 . S
O1114 Dy1104 2.298 . S
O1114 C1128 1.236 . S
O1115 Dy1105 2.395 . S
O1115 C1135 1.255 . S
O1116 Dy1105 2.379 . S
O1116 C1135 1.249 . S
C1117 O1107 1.266 . S
C1117 O1108 1.236 . S
O1118 Dy1104 2.275 . S
O1118 C1106 1.254 . S
O1119 Dy1105 2.347 . S
O1119 C1106 1.262 . S
C1120 C1123 1.344 . S
C1120 C1124 1.328 . S
C1120 C1126 1.516 . S
C1121 C1122 1.304 . S
C1121 C1125 1.323 . S
C1122 C1121 1.304 . S
C1122 C1123 1.371 . S
C1122 H1136 0.930 . S
C1123 C1120 1.344 . S
C1123 C1122 1.371 . S
C1123 H1137 0.931 . S
C1124 C1120 1.328 . S
C1124 C1125 1.433 . S
C1124 H1138 0.931 . S
C1125 C1121 1.323 . S
C1125 C1124 1.433 . S
C1125 H1139 0.933 . S
C1126 Dy1104 2.738 1_556 S
C1126 O1109 1.255 . S
C1126 O1110 1.249 . S
C1126 C1120 1.516 . S
C1127 O1111 1.254 . S
C1127 O1112 1.257 . S
C1128 O1113 1.266 . S
C1128 O1114 1.236 . S
C1129 C1132 1.344 . S
C1129 C1133 1.328 1_545 S
C1129 C1135 1.516 . S
C1130 C1131 1.304 1_565 S
C1130 C1134 1.323 . S
C1131 C1130 1.304 1_545 S
C1131 C1132 1.371 . S
C1131 H1140 0.930 . S
C1132 C1129 1.344 . S
C1132 C1131 1.371 . S
C1132 H1141 0.931 . S
C1133 C1129 1.328 1_565 S
C1133 C1134 1.433 . S
C1133 H1142 0.931 . S
C1134 C1130 1.323 . S
C1134 C1133 1.433 . S
C1134 H1143 0.933 . S
C1135 Dy1105 2.738 . S
C1135 O1115 1.255 . S
C1135 O1116 1.249 . S
C1135 C1129 1.516 . S
H1136 C1122 0.930 . S
H1137 C1123 0.931 . S
H1138 C1124 0.931 . S
H1139 C1125 0.933 . S
H1140 C1131 0.930 . S
H1141 C1132 0.931 . S
H1142 C1133 0.931 . S
H1143 C1134 0.933 . S
Dy1144 O1147 2.307 . S
Dy1144 O1149 2.395 . S
Dy1144 O1150 2.379 . S
Dy1144 O1152 2.339 . S
Dy1144 O1154 2.298 . S
Dy1144 O1158 2.275 . S
Dy1144 C1166 2.738 . S
Dy1145 O1148 2.298 . S
Dy1145 O1151 2.275 . S
Dy1145 O1153 2.307 . S
Dy1145 O1155 2.395 . S
Dy1145 O1156 2.379 . S
Dy1145 O1159 2.339 . S
Dy1145 C1175 2.738 . S
C1146 O1158 1.254 . S
C1146 O1159 1.257 . S
O1147 Dy1144 2.307 . S
O1147 C1157 1.266 . S
O1148 Dy1145 2.298 . S
O1148 C1157 1.236 . S
O1149 Dy1144 2.395 . S
O1149 C1166 1.255 . S
O1150 Dy1144 2.379 . S
O1150 C1166 1.249 . S
O1151 Dy1145 2.275 . S
O1151 C1167 1.254 . S
O1152 Dy1144 2.339 . S
O1152 C1167 1.257 . S
O1153 Dy1145 2.307 . S
O1153 C1168 1.266 . S
O1154 Dy1144 2.298 . S
O1154 C1168 1.236 . S
O1155 Dy1145 2.395 . S
O1155 C1175 1.255 . S
O1156 Dy1145 2.379 . S
O1156 C1175 1.249 . S
C1157 O1147 1.266 . S
C1157 O1148 1.236 . S
O1158 Dy1144 2.275 . S
O1158 C1146 1.254 . S
O1159 Dy1145 2.339 . S
O1159 C1146 1.257 . S
C1160 C1163 1.344 . S
C1160 C1164 1.328 . S
C1160 C1166 1.516 . S
C1161 C1162 1.304 . S
C1161 C1165 1.323 . S
C1162 C1161 1.304 . S
C1162 C1163 1.371 . S
C1162 H1176 0.930 . S
C1163 C1160 1.344 . S
C1163 C1162 1.371 . S
C1163 H1177 0.931 . S
C1164 C1160 1.328 . S
C1164 C1165 1.433 . S
C1164 H1178 0.931 . S
C1165 C1161 1.323 . S
C1165 C1164 1.433 . S
C1165 H1179 0.933 . S
C1166 Dy1144 2.738 . S
C1166 O1149 1.255 . S
C1166 O1150 1.249 . S
C1166 C1160 1.516 . S
C1167 O1151 1.254 . S
C1167 O1152 1.257 . S
C1168 O1153 1.266 . S
C1168 O1154 1.236 . S
C1169 C1172 1.344 . S
C1169 C1173 1.328 . S
C1169 C1175 1.516 . S
C1170 C1171 1.304 . S
C1170 C1174 1.323 . S
C1171 C1170 1.304 . S
C1171 C1172 1.371 . S
C1171 H1180 0.930 . S
C1172 C1169 1.344 . S
C1172 C1171 1.371 . S
C1172 H1181 0.931 . S
C1173 C1169 1.328 . S
C1173 C1174 1.433 . S
C1173 H1182 0.931 . S
C1174 C1170 1.323 . S
C1174 C1173 1.433 . S
C1174 H1183 0.933 . S
C1175 Dy1145 2.738 . S
C1175 O1155 1.255 . S
C1175 O1156 1.249 . S
C1175 C1169 1.516 . S
H1176 C1162 0.930 . S
H1177 C1163 0.931 . S
H1178 C1164 0.931 . S
H1179 C1165 0.933 . S
H1180 C1171 0.930 . S
H1181 C1172 0.931 . S
H1182 C1173 0.931 . S
H1183 C1174 0.933 . S
Dy1184 O1187 2.307 1_554 S
Dy1184 O1189 2.395 . S
Dy1184 O1190 2.379 . S
Dy1184 O1192 2.339 . S
Dy1184 O1194 2.298 . S
Dy1184 O1198 2.275 . S
Dy1184 C1206 2.738 . S
Dy1185 O1188 2.298 1_554 S
Dy1185 O1191 2.275 . S
Dy1185 O1193 2.307 . S
Dy1185 O1195 2.395 . S
Dy1185 O1196 2.379 . S
Dy1185 O1199 2.339 . S
Dy1185 C1215 2.738 . S
C1186 O1198 1.254 . S
C1186 O1199 1.257 . S
O1187 Dy1184 2.307 1_556 S
O1187 C1197 1.266 . S
O1188 Dy1185 2.298 1_556 S
O1188 C1197 1.236 . S
O1189 Dy1184 2.395 . S
O1189 C1206 1.255 . S
O1190 Dy1184 2.379 . S
O1190 C1206 1.249 . S
O1191 Dy1185 2.275 . S
O1191 C1207 1.254 . S
O1192 Dy1184 2.339 . S
O1192 C1207 1.257 . S
O1193 Dy1185 2.307 . S
O1193 C1208 1.266 . S
O1194 Dy1184 2.298 . S
O1194 C1208 1.236 . S
O1195 Dy1185 2.395 . S
O1195 C1215 1.255 . S
O1196 Dy1185 2.379 . S
O1196 C1215 1.249 . S
C1197 O1187 1.266 . S
C1197 O1188 1.236 . S
O1198 Dy1184 2.275 . S
O1198 C1186 1.254 . S
O1199 Dy1185 2.339 . S
O1199 C1186 1.257 . S
C1200 C1203 1.344 . S
C1200 C1204 1.328 . S
C1200 C1206 1.516 . S
C1201 C1202 1.304 . S
C1201 C1205 1.323 . S
C1202 C1201 1.304 . S
C1202 C1203 1.371 . S
C1202 H1216 0.930 . S
C1203 C1200 1.344 . S
C1203 C1202 1.371 . S
C1203 H1217 0.931 . S
C1204 C1200 1.328 . S
C1204 C1205 1.433 . S
C1204 H1218 0.931 . S
C1205 C1201 1.323 . S
C1205 C1204 1.433 . S
C1205 H1219 0.933 . S
C1206 Dy1184 2.738 . S
C1206 O1189 1.255 . S
C1206 O1190 1.249 . S
C1206 C1200 1.516 . S
C1207 O1191 1.254 . S
C1207 O1192 1.257 . S
C1208 O1193 1.266 . S
C1208 O1194 1.236 . S
C1209 C1212 1.344 . S
C1209 C1213 1.328 . S
C1209 C1215 1.516 1_556 S
C1210 C1211 1.304 . S
C1210 C1214 1.323 . S
C1211 C1210 1.304 . S
C1211 C1212 1.371 . S
C1211 H1220 0.930 . S
C1212 C1209 1.344 . S
C1212 C1211 1.371 . S
C1212 H1221 0.931 . S
C1213 C1209 1.328 . S
C1213 C1214 1.433 . S
C1213 H1222 0.931 1_556 S
C1214 C1210 1.323 . S
C1214 C1213 1.433 . S
C1214 H1223 0.933 . S
C1215 Dy1185 2.738 . S
C1215 O1195 1.255 . S
C1215 O1196 1.249 . S
C1215 C1209 1.516 1_554 S
H1216 C1202 0.930 . S
H1217 C1203 0.931 . S
H1218 C1204 0.931 . S
H1219 C1205 0.933 . S
H1220 C1211 0.930 . S
H1221 C1212 0.931 . S
H1222 C1213 0.931 1_554 S
H1223 C1214 0.933 . S
Dy1224 O1227 2.307 . S
Dy1224 O1229 2.395 . S
Dy1224 O1230 2.379 . S
Dy1224 O1232 2.339 . S
Dy1224 O1234 2.298 . S
Dy1224 O1238 2.275 . S
Dy1224 C1246 2.738 . S
Dy1225 O1228 2.298 . S
Dy1225 O1231 2.275 . S
Dy1225 O1233 2.307 . S
Dy1225 O1235 2.395 . S
Dy1225 O1236 2.379 . S
Dy1225 O1239 2.339 . S
Dy1225 C1255 2.738 . S
C1226 O1238 1.254 . S
C1226 O1239 1.257 . S
O1227 Dy1224 2.307 . S
O1227 C1237 1.266 . S
O1228 Dy1225 2.298 . S
O1228 C1237 1.236 . S
O1229 Dy1224 2.395 . S
O1229 C1246 1.255 . S
O1230 Dy1224 2.379 . S
O1230 C1246 1.249 . S
O1231 Dy1225 2.275 . S
O1231 C1247 1.254 . S
O1232 Dy1224 2.339 . S
O1232 C1247 1.257 . S
O1233 Dy1225 2.307 . S
O1233 C1248 1.266 . S
O1234 Dy1224 2.298 . S
O1234 C1248 1.236 . S
O1235 Dy1225 2.395 . S
O1235 C1255 1.255 . S
O1236 Dy1225 2.379 . S
O1236 C1255 1.249 . S
C1237 O1227 1.266 . S
C1237 O1228 1.236 . S
O1238 Dy1224 2.275 . S
O1238 C1226 1.254 . S
O1239 Dy1225 2.339 . S
O1239 C1226 1.257 . S
C1240 C1243 1.344 . S
C1240 C1244 1.328 . S
C1240 C1246 1.516 . S
C1241 C1242 1.304 . S
C1241 C1245 1.323 . S
C1242 C1241 1.304 . S
C1242 C1243 1.371 . S
C1242 H1256 0.930 . S
C1243 C1240 1.344 . S
C1243 C1242 1.371 . S
C1243 H1257 0.931 . S
C1244 C1240 1.328 . S
C1244 C1245 1.433 . S
C1244 H1258 0.931 . S
C1245 C1241 1.323 . S
C1245 C1244 1.433 . S
C1245 H1259 0.933 . S
C1246 Dy1224 2.738 . S
C1246 O1229 1.255 . S
C1246 O1230 1.249 . S
C1246 C1240 1.516 . S
C1247 O1231 1.254 . S
C1247 O1232 1.257 . S
C1248 O1233 1.266 . S
C1248 O1234 1.236 . S
C1249 C1252 1.344 . S
C1249 C1253 1.328 . S
C1249 C1255 1.516 . S
C1250 C1251 1.304 . S
C1250 C1254 1.323 . S
C1251 C1250 1.304 . S
C1251 C1252 1.371 . S
C1251 H1260 0.930 . S
C1252 C1249 1.344 . S
C1252 C1251 1.371 . S
C1252 H1261 0.931 . S
C1253 C1249 1.328 . S
C1253 C1254 1.433 . S
C1253 H1262 0.931 . S
C1254 C1250 1.323 . S
C1254 C1253 1.433 . S
C1254 H1263 0.933 . S
C1255 Dy1225 2.738 . S
C1255 O1235 1.255 . S
C1255 O1236 1.249 . S
C1255 C1249 1.516 . S
H1256 C1242 0.930 . S
H1257 C1243 0.931 . S
H1258 C1244 0.931 . S
H1259 C1245 0.933 . S
H1260 C1251 0.930 . S
H1261 C1252 0.931 . S
H1262 C1253 0.931 . S
H1263 C1254 0.933 . S
Dy1264 O1267 2.307 1_455 S
Dy1264 O1269 2.395 . S
Dy1264 O1270 2.379 . S
Dy1264 O1272 2.339 . S
Dy1264 O1274 2.298 . S
Dy1264 O1278 2.275 . S
Dy1264 C1286 2.738 . S
Dy1265 O1268 2.298 1_455 S
Dy1265 O1271 2.275 . S
Dy1265 O1273 2.307 . S
Dy1265 O1275 2.395 . S
Dy1265 O1276 2.379 . S
Dy1265 O1279 2.339 . S
Dy1265 C1295 2.738 . S
C1266 O1278 1.254 . S
C1266 O1279 1.257 . S
O1267 Dy1264 2.307 1_655 S
O1267 C1277 1.266 . S
O1268 Dy1265 2.298 1_655 S
O1268 C1277 1.236 . S
O1269 Dy1264 2.395 . S
O1269 C1286 1.255 . S
O1270 Dy1264 2.379 . S
O1270 C1286 1.249 . S
O1271 Dy1265 2.275 . S
O1271 C1287 1.254 . S
O1272 Dy1264 2.339 . S
O1272 C1287 1.257 . S
O1273 Dy1265 2.307 . S
O1273 C1288 1.266 . S
O1274 Dy1264 2.298 . S
O1274 C1288 1.236 . S
O1275 Dy1265 2.395 . S
O1275 C1295 1.255 . S
O1276 Dy1265 2.379 . S
O1276 C1295 1.249 . S
C1277 O1267 1.266 . S
C1277 O1268 1.236 . S
O1278 Dy1264 2.275 . S
O1278 C1266 1.254 . S
O1279 Dy1265 2.339 . S
O1279 C1266 1.257 . S
C1280 C1283 1.344 . S
C1280 C1284 1.328 . S
C1280 C1286 1.516 . S
C1281 C1282 1.304 . S
C1281 C1285 1.323 . S
C1282 C1281 1.304 . S
C1282 C1283 1.371 . S
C1282 H1296 0.930 . S
C1283 C1280 1.344 . S
C1283 C1282 1.371 . S
C1283 H1297 0.931 . S
C1284 C1280 1.328 . S
C1284 C1285 1.433 . S
C1284 H1298 0.931 . S
C1285 C1281 1.323 . S
C1285 C1284 1.433 . S
C1285 H1299 0.933 . S
C1286 Dy1264 2.738 . S
C1286 O1269 1.255 . S
C1286 O1270 1.249 . S
C1286 C1280 1.516 . S
C1287 O1271 1.254 . S
C1287 O1272 1.257 . S
C1288 O1273 1.266 . S
C1288 O1274 1.236 . S
C1289 C1292 1.344 . S
C1289 C1293 1.328 . S
C1289 C1295 1.516 1_655 S
C1290 C1291 1.304 . S
C1290 C1294 1.323 . S
C1291 C1290 1.304 . S
C1291 C1292 1.371 . S
C1291 H1300 0.930 . S
C1292 C1289 1.344 . S
C1292 C1291 1.371 . S
C1292 H1301 0.931 . S
C1293 C1289 1.328 . S
C1293 C1294 1.433 . S
C1293 H1302 0.931 . S
C1294 C1290 1.323 . S
C1294 C1293 1.433 . S
C1294 H1303 0.933 . S
C1295 Dy1265 2.738 . S
C1295 O1275 1.255 . S
C1295 O1276 1.249 . S
C1295 C1289 1.516 1_455 S
H1296 C1282 0.930 . S
H1297 C1283 0.931 . S
H1298 C1284 0.931 . S
H1299 C1285 0.933 . S
H1300 C1291 0.930 . S
H1301 C1292 0.931 . S
H1302 C1293 0.931 . S
H1303 C1294 0.933 . S
Dy1304 O1307 2.307 . S
Dy1304 O1309 2.395 . S
Dy1304 O1310 2.379 . S
Dy1304 O1312 2.339 . S
Dy1304 O1314 2.298 . S
Dy1304 O1318 2.275 . S
Dy1304 C1326 2.738 . S
Dy1305 O1308 2.298 . S
Dy1305 O1311 2.275 . S
Dy1305 O1313 2.307 . S
Dy1305 O1315 2.395 . S
Dy1305 O1316 2.379 . S
Dy1305 O1319 2.339 . S
Dy1305 C1335 2.738 . S
C1306 O1318 1.254 . S
C1306 O1319 1.257 . S
O1307 Dy1304 2.307 . S
O1307 C1317 1.266 . S
O1308 Dy1305 2.298 . S
O1308 C1317 1.236 . S
O1309 Dy1304 2.395 . S
O1309 C1326 1.255 . S
O1310 Dy1304 2.379 . S
O1310 C1326 1.249 . S
O1311 Dy1305 2.275 . S
O1311 C1327 1.254 . S
O1312 Dy1304 2.339 . S
O1312 C1327 1.257 . S
O1313 Dy1305 2.307 . S
O1313 C1328 1.266 . S
O1314 Dy1304 2.298 . S
O1314 C1328 1.236 . S
O1315 Dy1305 2.395 . S
O1315 C1335 1.255 . S
O1316 Dy1305 2.379 . S
O1316 C1335 1.249 . S
C1317 O1307 1.266 . S
C1317 O1308 1.236 . S
O1318 Dy1304 2.275 . S
O1318 C1306 1.254 . S
O1319 Dy1305 2.339 . S
O1319 C1306 1.257 . S
C1320 C1323 1.344 . S
C1320 C1324 1.328 . S
C1320 C1326 1.516 . S
C1321 C1322 1.304 . S
C1321 C1325 1.323 . S
C1322 C1321 1.304 . S
C1322 C1323 1.371 . S
C1322 H1336 0.930 . S
C1323 C1320 1.344 . S
C1323 C1322 1.371 . S
C1323 H1337 0.931 . S
C1324 C1320 1.328 . S
C1324 C1325 1.433 . S
C1324 H1338 0.931 . S
C1325 C1321 1.323 . S
C1325 C1324 1.433 . S
C1325 H1339 0.933 . S
C1326 Dy1304 2.738 . S
C1326 O1309 1.255 . S
C1326 O1310 1.249 . S
C1326 C1320 1.516 . S
C1327 O1311 1.254 . S
C1327 O1312 1.257 . S
C1328 O1313 1.266 . S
C1328 O1314 1.236 . S
C1329 C1332 1.344 . S
C1329 C1333 1.328 . S
C1329 C1335 1.516 . S
C1330 C1331 1.304 . S
C1330 C1334 1.323 . S
C1331 C1330 1.304 . S
C1331 C1332 1.371 . S
C1331 H1340 0.930 . S
C1332 C1329 1.344 . S
C1332 C1331 1.371 . S
C1332 H1341 0.931 . S
C1333 C1329 1.328 . S
C1333 C1334 1.433 . S
C1333 H1342 0.931 . S
C1334 C1330 1.323 . S
C1334 C1333 1.433 . S
C1334 H1343 0.933 . S
C1335 Dy1305 2.738 . S
C1335 O1315 1.255 . S
C1335 O1316 1.249 . S
C1335 C1329 1.516 . S
H1336 C1322 0.930 . S
H1337 C1323 0.931 . S
H1338 C1324 0.931 . S
H1339 C1325 0.933 . S
H1340 C1331 0.930 . S
H1341 C1332 0.931 . S
H1342 C1333 0.931 . S
H1343 C1334 0.933 . S
Dy1344 O1347 2.307 . S
Dy1344 O1349 2.395 . S
Dy1344 O1350 2.379 . S
Dy1344 O1352 2.339 . S
Dy1344 O1354 2.298 . S
Dy1344 O1358 2.275 . S
Dy1344 C1366 2.738 . S
Dy1345 O1348 2.298 . S
Dy1345 O1351 2.275 . S
Dy1345 O1353 2.307 . S
Dy1345 O1355 2.395 . S
Dy1345 O1356 2.379 . S
Dy1345 O1359 2.339 . S
Dy1345 C1375 2.738 . S
C1346 O1358 1.254 . S
C1346 O1359 1.257 . S
O1347 Dy1344 2.307 . S
O1347 C1357 1.266 . S
O1348 Dy1345 2.298 . S
O1348 C1357 1.236 . S
O1349 Dy1344 2.395 . S
O1349 C1366 1.255 . S
O1350 Dy1344 2.379 . S
O1350 C1366 1.249 . S
O1351 Dy1345 2.275 . S
O1351 C1367 1.254 . S
O1352 Dy1344 2.339 . S
O1352 C1367 1.257 . S
O1353 Dy1345 2.307 . S
O1353 C1368 1.266 . S
O1354 Dy1344 2.298 . S
O1354 C1368 1.236 . S
O1355 Dy1345 2.395 . S
O1355 C1375 1.255 . S
O1356 Dy1345 2.379 . S
O1356 C1375 1.249 . S
C1357 O1347 1.266 . S
C1357 O1348 1.236 . S
O1358 Dy1344 2.275 . S
O1358 C1346 1.254 . S
O1359 Dy1345 2.339 . S
O1359 C1346 1.257 . S
C1360 C1363 1.344 . S
C1360 C1364 1.328 . S
C1360 C1366 1.516 . S
C1361 C1362 1.304 . S
C1361 C1365 1.323 . S
C1362 C1361 1.304 . S
C1362 C1363 1.371 . S
C1362 H1376 0.930 . S
C1363 C1360 1.344 . S
C1363 C1362 1.371 . S
C1363 H1377 0.931 . S
C1364 C1360 1.328 . S
C1364 C1365 1.433 . S
C1364 H1378 0.931 . S
C1365 C1361 1.323 . S
C1365 C1364 1.433 . S
C1365 H1379 0.933 . S
C1366 Dy1344 2.738 . S
C1366 O1349 1.255 . S
C1366 O1350 1.249 . S
C1366 C1360 1.516 . S
C1367 O1351 1.254 . S
C1367 O1352 1.257 . S
C1368 O1353 1.266 . S
C1368 O1354 1.236 . S
C1369 C1372 1.344 . S
C1369 C1373 1.328 . S
C1369 C1375 1.516 . S
C1370 C1371 1.304 . S
C1370 C1374 1.323 . S
C1371 C1370 1.304 . S
C1371 C1372 1.371 . S
C1371 H1380 0.930 . S
C1372 C1369 1.344 . S
C1372 C1371 1.371 . S
C1372 H1381 0.931 . S
C1373 C1369 1.328 . S
C1373 C1374 1.433 . S
C1373 H1382 0.931 . S
C1374 C1370 1.323 . S
C1374 C1373 1.433 . S
C1374 H1383 0.933 . S
C1375 Dy1345 2.738 . S
C1375 O1355 1.255 . S
C1375 O1356 1.249 . S
C1375 C1369 1.516 . S
H1376 C1362 0.930 . S
H1377 C1363 0.931 . S
H1378 C1364 0.931 . S
H1379 C1365 0.933 . S
H1380 C1371 0.930 . S
H1381 C1372 0.931 . S
H1382 C1373 0.931 . S
H1383 C1374 0.933 . S
Dy1384 O1387 2.307 . S
Dy1384 O1389 2.395 . S
Dy1384 O1390 2.379 . S
Dy1384 O1392 2.339 . S
Dy1384 O1394 2.298 . S
Dy1384 O1398 2.275 . S
Dy1384 C1406 2.738 . S
Dy1385 O1388 2.298 . S
Dy1385 O1391 2.275 . S
Dy1385 O1393 2.307 . S
Dy1385 O1395 2.395 . S
Dy1385 O1396 2.379 . S
Dy1385 O1399 2.339 . S
Dy1385 C1415 2.738 . S
C1386 O1398 1.254 . S
C1386 O1399 1.257 . S
O1387 Dy1384 2.307 . S
O1387 C1397 1.266 . S
O1388 Dy1385 2.298 . S
O1388 C1397 1.236 . S
O1389 Dy1384 2.395 . S
O1389 C1406 1.255 . S
O1390 Dy1384 2.379 . S
O1390 C1406 1.249 . S
O1391 Dy1385 2.275 . S
O1391 C1407 1.254 . S
O1392 Dy1384 2.339 . S
O1392 C1407 1.257 . S
O1393 Dy1385 2.307 . S
O1393 C1408 1.266 . S
O1394 Dy1384 2.298 . S
O1394 C1408 1.236 . S
O1395 Dy1385 2.395 . S
O1395 C1415 1.255 . S
O1396 Dy1385 2.379 . S
O1396 C1415 1.249 . S
C1397 O1387 1.266 . S
C1397 O1388 1.236 . S
O1398 Dy1384 2.275 . S
O1398 C1386 1.254 . S
O1399 Dy1385 2.339 . S
O1399 C1386 1.257 . S
C1400 C1403 1.344 . S
C1400 C1404 1.328 . S
C1400 C1406 1.516 . S
C1401 C1402 1.304 . S
C1401 C1405 1.323 . S
C1402 C1401 1.304 . S
C1402 C1403 1.371 . S
C1402 H1416 0.930 . S
C1403 C1400 1.344 . S
C1403 C1402 1.371 . S
C1403 H1417 0.931 . S
C1404 C1400 1.328 . S
C1404 C1405 1.433 . S
C1404 H1418 0.931 . S
C1405 C1401 1.323 . S
C1405 C1404 1.433 . S
C1405 H1419 0.933 . S
C1406 Dy1384 2.738 . S
C1406 O1389 1.255 . S
C1406 O1390 1.249 . S
C1406 C1400 1.516 . S
C1407 O1391 1.254 . S
C1407 O1392 1.257 . S
C1408 O1393 1.266 . S
C1408 O1394 1.236 . S
C1409 C1412 1.344 . S
C1409 C1413 1.328 . S
C1409 C1415 1.516 . S
C1410 C1411 1.304 . S
C1410 C1414 1.323 . S
C1411 C1410 1.304 . S
C1411 C1412 1.371 . S
C1411 H1420 0.930 . S
C1412 C1409 1.344 . S
C1412 C1411 1.371 . S
C1412 H1421 0.931 . S
C1413 C1409 1.328 . S
C1413 C1414 1.433 . S
C1413 H1422 0.931 . S
C1414 C1410 1.323 . S
C1414 C1413 1.433 . S
C1414 H1423 0.933 . S
C1415 Dy1385 2.738 . S
C1415 O1395 1.255 . S
C1415 O1396 1.249 . S
C1415 C1409 1.516 . S
H1416 C1402 0.930 . S
H1417 C1403 0.931 . S
H1418 C1404 0.931 . S
H1419 C1405 0.933 . S
H1420 C1411 0.930 . S
H1421 C1412 0.931 . S
H1422 C1413 0.931 . S
H1423 C1414 0.933 . S
Dy1424 O1427 2.307 . S
Dy1424 O1429 2.395 . S
Dy1424 O1430 2.379 . S
Dy1424 O1432 2.339 . S
Dy1424 O1434 2.298 . S
Dy1424 O1438 2.275 . S
Dy1424 C1446 2.738 . S
Dy1425 O1428 2.298 . S
Dy1425 O1431 2.275 . S
Dy1425 O1433 2.307 . S
Dy1425 O1435 2.395 . S
Dy1425 O1436 2.379 . S
Dy1425 O1439 2.339 . S
Dy1425 C1455 2.738 . S
C1426 O1438 1.254 . S
C1426 O1439 1.257 . S
O1427 Dy1424 2.307 . S
O1427 C1437 1.266 . S
O1428 Dy1425 2.298 . S
O1428 C1437 1.236 . S
O1429 Dy1424 2.395 . S
O1429 C1446 1.255 . S
O1430 Dy1424 2.379 . S
O1430 C1446 1.249 . S
O1431 Dy1425 2.275 . S
O1431 C1447 1.254 . S
O1432 Dy1424 2.339 . S
O1432 C1447 1.257 . S
O1433 Dy1425 2.307 . S
O1433 C1448 1.266 . S
O1434 Dy1424 2.298 . S
O1434 C1448 1.236 . S
O1435 Dy1425 2.395 . S
O1435 C1455 1.255 . S
O1436 Dy1425 2.379 . S
O1436 C1455 1.249 . S
C1437 O1427 1.266 . S
C1437 O1428 1.236 . S
O1438 Dy1424 2.275 . S
O1438 C1426 1.254 . S
O1439 Dy1425 2.339 . S
O1439 C1426 1.257 . S
C1440 C1443 1.344 . S
C1440 C1444 1.328 . S
C1440 C1446 1.516 . S
C1441 C1442 1.304 . S
C1441 C1445 1.323 . S
C1442 C1441 1.304 . S
C1442 C1443 1.371 . S
C1442 H1456 0.930 . S
C1443 C1440 1.344 . S
C1443 C1442 1.371 . S
C1443 H1457 0.931 . S
C1444 C1440 1.328 . S
C1444 C1445 1.433 . S
C1444 H1458 0.931 . S
C1445 C1441 1.323 . S
C1445 C1444 1.433 . S
C1445 H1459 0.933 . S
C1446 Dy1424 2.738 . S
C1446 O1429 1.255 . S
C1446 O1430 1.249 . S
C1446 C1440 1.516 . S
C1447 O1431 1.254 . S
C1447 O1432 1.257 . S
C1448 O1433 1.266 . S
C1448 O1434 1.236 . S
C1449 C1452 1.344 . S
C1449 C1453 1.328 . S
C1449 C1455 1.516 . S
C1450 C1451 1.304 . S
C1450 C1454 1.323 . S
C1451 C1450 1.304 . S
C1451 C1452 1.371 . S
C1451 H1460 0.930 . S
C1452 C1449 1.344 . S
C1452 C1451 1.371 . S
C1452 H1461 0.931 . S
C1453 C1449 1.328 . S
C1453 C1454 1.433 . S
C1453 H1462 0.931 . S
C1454 C1450 1.323 . S
C1454 C1453 1.433 . S
C1454 H1463 0.933 . S
C1455 Dy1425 2.738 . S
C1455 O1435 1.255 . S
C1455 O1436 1.249 . S
C1455 C1449 1.516 . S
H1456 C1442 0.930 . S
H1457 C1443 0.931 . S
H1458 C1444 0.931 . S
H1459 C1445 0.933 . S
H1460 C1451 0.930 . S
H1461 C1452 0.931 . S
H1462 C1453 0.931 . S
H1463 C1454 0.933 . S
Dy1464 O1467 2.307 . S
Dy1464 O1469 2.395 1_455 S
Dy1464 O1470 2.379 1_455 S
Dy1464 O1472 2.339 . S
Dy1464 O1474 2.298 . S
Dy1464 O1478 2.275 . S
Dy1464 C1486 2.738 1_455 S
Dy1465 O1468 2.298 . S
Dy1465 O1471 2.275 . S
Dy1465 O1473 2.307 . S
Dy1465 O1475 2.395 . S
Dy1465 O1476 2.379 1_554 S
Dy1465 O1479 2.339 1_554 S
Dy1465 C1495 2.738 . S
C1466 O1478 1.254 1_556 S
C1466 O1479 1.257 . S
O1467 Dy1464 2.307 . S
O1467 C1477 1.266 . S
O1468 Dy1465 2.298 . S
O1468 C1477 1.236 . S
O1469 Dy1464 2.395 1_655 S
O1469 C1486 1.255 . S
O1470 Dy1464 2.379 1_655 S
O1470 C1486 1.249 . S
O1471 Dy1465 2.275 . S
O1471 C1487 1.254 . S
O1472 Dy1464 2.339 . S
O1472 C1487 1.257 . S
O1473 Dy1465 2.307 . S
O1473 C1488 1.266 . S
O1474 Dy1464 2.298 . S
O1474 C1488 1.236 . S
O1475 Dy1465 2.395 . S
O1475 C1495 1.255 . S
O1476 Dy1465 2.379 1_556 S
O1476 C1495 1.249 1_556 S
C1477 O1467 1.266 . S
C1477 O1468 1.236 . S
O1478 Dy1464 2.275 . S
O1478 C1466 1.254 1_554 S
O1479 Dy1465 2.339 1_556 S
O1479 C1466 1.257 . S
C1480 C1483 1.344 . S
C1480 C1484 1.328 . S
C1480 C1486 1.516 . S
C1481 C1482 1.304 . S
C1481 C1485 1.323 . S
C1482 C1481 1.304 . S
C1482 C1483 1.371 . S
C1482 H1496 0.930 . S
C1483 C1480 1.344 . S
C1483 C1482 1.371 . S
C1483 H1497 0.931 . S
C1484 C1480 1.328 . S
C1484 C1485 1.433 . S
C1484 H1498 0.931 . S
C1485 C1481 1.323 . S
C1485 C1484 1.433 . S
C1485 H1499 0.933 . S
C1486 Dy1464 2.738 1_655 S
C1486 O1469 1.255 . S
C1486 O1470 1.249 . S
C1486 C1480 1.516 . S
C1487 O1471 1.254 . S
C1487 O1472 1.257 . S
C1488 O1473 1.266 . S
C1488 O1474 1.236 . S
C1489 C1492 1.344 . S
C1489 C1493 1.328 1_554 S
C1489 C1495 1.516 . S
C1490 C1491 1.304 . S
C1490 C1494 1.323 1_554 S
C1491 C1490 1.304 . S
C1491 C1492 1.371 . S
C1491 H1500 0.930 . S
C1492 C1489 1.344 . S
C1492 C1491 1.371 . S
C1492 H1501 0.931 . S
C1493 C1489 1.328 1_556 S
C1493 C1494 1.433 . S
C1493 H1502 0.931 . S
C1494 C1490 1.323 1_556 S
C1494 C1493 1.433 . S
C1494 H1503 0.933 . S
C1495 Dy1465 2.738 . S
C1495 O1475 1.255 . S
C1495 O1476 1.249 1_554 S
C1495 C1489 1.516 . S
H1496 C1482 0.930 . S
H1497 C1483 0.931 . S
H1498 C1484 0.931 . S
H1499 C1485 0.933 . S
H1500 C1491 0.930 . S
H1501 C1492 0.931 . S
H1502 C1493 0.931 . S
H1503 C1494 0.933 . S
C1504 C1505 1.387 1_655 S
C1504 H1508 0.954 . S
C1504 C1513 1.387 1_655 S
C1505 C1504 1.387 1_455 S
C1505 C1507 1.374 1_554 S
H1506 C1513 0.950 . S
C1507 C1505 1.374 1_556 S
C1507 C1509 1.383 1_556 S
C1507 H1511 0.971 . S
H1508 C1504 0.954 . S
C1509 C1507 1.383 1_554 S
C1509 C1510 1.387 . S
C1509 H1512 0.950 1_554 S
C1510 C1509 1.387 . S
C1510 C1513 1.387 . S
H1511 C1507 0.971 . S
H1512 C1509 0.950 1_556 S
C1513 C1504 1.387 1_455 S
C1513 H1506 0.950 . S
C1513 C1510 1.387 . S
C1514 C1515 1.387 . S
C1514 H1518 0.950 . S
C1514 C1523 1.390 . S
C1515 C1514 1.387 . S
C1515 C1517 1.387 . S
H1516 C1523 0.950 . S
C1517 C1515 1.387 . S
C1517 C1519 1.390 . S
C1517 H1521 0.950 . S
H1518 C1514 0.950 . S
C1519 C1517 1.390 . S
C1519 C1520 1.387 . S
C1519 H1522 0.950 . S
C1520 C1519 1.387 . S
C1520 C1523 1.387 . S
H1521 C1517 0.950 . S
H1522 C1519 0.950 . S
C1523 C1514 1.390 . S
C1523 H1516 0.950 . S
C1523 C1520 1.387 . S
C1524 C1525 1.387 . S
C1524 H1528 0.950 . S
C1524 C1533 1.390 . S
C1525 C1524 1.387 . S
C1525 C1527 1.387 . S
H1526 C1533 0.950 . S
C1527 C1525 1.387 . S
C1527 C1529 1.390 . S
C1527 H1531 0.950 . S
H1528 C1524 0.950 . S
C1529 C1527 1.390 . S
C1529 C1530 1.387 . S
C1529 H1532 0.950 . S
C1530 C1529 1.387 . S
C1530 C1533 1.387 . S
H1531 C1527 0.950 . S
H1532 C1529 0.950 . S
C1533 C1524 1.390 . S
C1533 H1526 0.950 . S
C1533 C1530 1.387 . S
C1534 C1535 1.387 . S
C1534 H1538 0.950 . S
C1534 C1543 1.390 . S
C1535 C1534 1.387 . S
C1535 C1537 1.387 . S
H1536 C1543 0.950 . S
C1537 C1535 1.387 . S
C1537 C1539 1.390 . S
C1537 H1541 0.950 . S
H1538 C1534 0.950 . S
C1539 C1537 1.390 . S
C1539 C1540 1.387 . S
C1539 H1542 0.950 . S
C1540 C1539 1.387 . S
C1540 C1543 1.387 . S
H1541 C1537 0.950 . S
H1542 C1539 0.950 . S
C1543 C1534 1.390 . S
C1543 H1536 0.950 . S
C1543 C1540 1.387 . S
C1544 C1545 1.387 . S
C1544 H1548 0.950 . S
C1544 C1553 1.390 . S
C1545 C1544 1.387 . S
C1545 C1547 1.387 . S
H1546 C1553 0.950 . S
C1547 C1545 1.387 . S
C1547 C1549 1.390 . S
C1547 H1551 0.950 . S
H1548 C1544 0.950 . S
C1549 C1547 1.390 . S
C1549 C1550 1.387 . S
C1549 H1552 0.950 . S
C1550 C1549 1.387 . S
C1550 C1553 1.387 . S
H1551 C1547 0.950 . S
H1552 C1549 0.950 . S
C1553 C1544 1.390 . S
C1553 H1546 0.950 . S
C1553 C1550 1.387 . S
C1554 C1555 1.387 . S
C1554 H1558 0.950 . S
C1554 C1563 1.390 . S
C1555 C1554 1.387 . S
C1555 C1557 1.387 . S
H1556 C1563 0.950 . S
C1557 C1555 1.387 . S
C1557 C1559 1.390 . S
C1557 H1561 0.950 . S
H1558 C1554 0.950 . S
C1559 C1557 1.390 . S
C1559 C1560 1.387 . S
C1559 H1562 0.950 . S
C1560 C1559 1.387 . S
C1560 C1563 1.387 . S
H1561 C1557 0.950 . S
H1562 C1559 0.950 . S
C1563 C1554 1.390 . S
C1563 H1556 0.950 . S
C1563 C1560 1.387 . S
C1564 C1565 1.387 . S
C1564 H1568 0.950 . S
C1564 C1573 1.390 . S
C1565 C1564 1.387 . S
C1565 C1567 1.387 . S
H1566 C1573 0.950 . S
C1567 C1565 1.387 . S
C1567 C1569 1.390 . S
C1567 H1571 0.950 . S
H1568 C1564 0.950 . S
C1569 C1567 1.390 . S
C1569 C1570 1.387 . S
C1569 H1572 0.950 . S
C1570 C1569 1.387 . S
C1570 C1573 1.387 . S
H1571 C1567 0.950 . S
H1572 C1569 0.950 . S
C1573 C1564 1.390 . S
C1573 H1566 0.950 . S
C1573 C1570 1.387 . S
C1574 C1575 1.387 . S
C1574 H1578 0.950 . S
C1574 C1583 1.390 . S
C1575 C1574 1.387 . S
C1575 C1577 1.387 . S
H1576 C1583 0.950 . S
C1577 C1575 1.387 . S
C1577 C1579 1.390 . S
C1577 H1581 0.950 . S
H1578 C1574 0.950 . S
C1579 C1577 1.390 . S
C1579 C1580 1.387 . S
C1579 H1582 0.950 . S
C1580 C1579 1.387 . S
C1580 C1583 1.387 . S
H1581 C1577 0.950 . S
H1582 C1579 0.950 . S
C1583 C1574 1.390 . S
C1583 H1576 0.950 . S
C1583 C1580 1.387 . S
C1584 C1585 1.387 . S
C1584 H1588 0.950 1_545 S
C1584 C1593 1.390 . S
C1585 C1584 1.387 . S
C1585 C1587 1.387 1_655 S
H1586 C1593 0.950 . S
C1587 C1585 1.387 1_455 S
C1587 C1589 1.390 . S
C1587 H1591 0.950 . S
H1588 C1584 0.950 1_565 S
C1589 C1587 1.390 . S
C1589 C1590 1.387 . S
C1589 H1592 0.950 . S
C1590 C1589 1.387 . S
C1590 C1593 1.387 1_455 S
H1591 C1587 0.950 . S
H1592 C1589 0.950 . S
C1593 C1584 1.390 . S
C1593 H1586 0.950 . S
C1593 C1590 1.387 1_655 S
C1594 C1595 1.387 . S
C1594 H1598 0.950 . S
C1594 C1603 1.390 . S
C1595 C1594 1.387 . S
C1595 C1597 1.387 . S
H1596 C1603 0.950 . S
C1597 C1595 1.387 . S
C1597 C1599 1.390 . S
C1597 H1601 0.950 . S
H1598 C1594 0.950 . S
C1599 C1597 1.390 . S
C1599 C1600 1.387 . S
C1599 H1602 0.950 . S
C1600 C1599 1.387 . S
C1600 C1603 1.387 . S
H1601 C1597 0.950 . S
H1602 C1599 0.950 . S
C1603 C1594 1.390 . S
C1603 H1596 0.950 . S
C1603 C1600 1.387 . S
C1604 C1605 1.387 . S
C1604 H1608 0.950 . S
C1604 C1613 1.390 . S
C1605 C1604 1.387 . S
C1605 C1607 1.387 . S
H1606 C1613 0.950 . S
C1607 C1605 1.387 . S
C1607 C1609 1.390 . S
C1607 H1611 0.950 . S
H1608 C1604 0.950 . S
C1609 C1607 1.390 . S
C1609 C1610 1.387 . S
C1609 H1612 0.950 . S
C1610 C1609 1.387 . S
C1610 C1613 1.387 . S
H1611 C1607 0.950 . S
H1612 C1609 0.950 . S
C1613 C1604 1.390 . S
C1613 H1606 0.950 . S
C1613 C1610 1.387 . S
C1614 C1615 1.387 . S
C1614 H1618 0.950 . S
C1614 C1623 1.390 . S
C1615 C1614 1.387 . S
C1615 C1617 1.387 . S
H1616 C1623 0.950 . S
C1617 C1615 1.387 . S
C1617 C1619 1.390 . S
C1617 H1621 0.950 . S
H1618 C1614 0.950 . S
C1619 C1617 1.390 . S
C1619 C1620 1.387 . S
C1619 H1622 0.950 . S
C1620 C1619 1.387 . S
C1620 C1623 1.387 . S
H1621 C1617 0.950 . S
H1622 C1619 0.950 . S
C1623 C1614 1.390 . S
C1623 H1616 0.950 . S
C1623 C1620 1.387 . S
C1624 C1625 1.387 . S
C1624 H1628 0.950 1_545 S
C1624 C1633 1.390 1_655 S
C1625 C1624 1.387 . S
C1625 C1627 1.387 1_655 S
H1626 C1633 0.951 1_565 S
C1627 C1625 1.387 1_455 S
C1627 C1629 1.390 . S
C1627 H1631 0.950 . S
H1628 C1624 0.950 1_565 S
C1629 C1627 1.390 . S
C1629 C1630 1.387 . S
C1629 H1632 0.950 . S
C1630 C1629 1.387 . S
C1630 C1633 1.387 . S
H1631 C1627 0.950 . S
H1632 C1629 0.950 . S
C1633 C1624 1.390 1_455 S
C1633 H1626 0.951 1_545 S
C1633 C1630 1.387 . S
C1634 C1635 1.387 . S
C1634 H1638 0.950 . S
C1634 C1643 1.390 . S
C1635 C1634 1.387 . S
C1635 C1637 1.387 . S
H1636 C1643 0.950 . S
C1637 C1635 1.387 . S
C1637 C1639 1.390 . S
C1637 H1641 0.950 . S
H1638 C1634 0.950 . S
C1639 C1637 1.390 . S
C1639 C1640 1.387 . S
C1639 H1642 0.950 . S
C1640 C1639 1.387 . S
C1640 C1643 1.387 . S
H1641 C1637 0.950 . S
H1642 C1639 0.950 . S
C1643 C1634 1.390 . S
C1643 H1636 0.950 . S
C1643 C1640 1.387 . S
C1644 C1645 1.387 . S
C1644 H1648 0.950 . S
C1644 C1653 1.390 . S
C1645 C1644 1.387 . S
C1645 C1647 1.387 . S
H1646 C1653 0.950 . S
C1647 C1645 1.387 . S
C1647 C1649 1.390 . S
C1647 H1651 0.950 . S
H1648 C1644 0.950 . S
C1649 C1647 1.390 . S
C1649 C1650 1.387 . S
C1649 H1652 0.950 . S
C1650 C1649 1.387 . S
C1650 C1653 1.387 . S
H1651 C1647 0.950 . S
H1652 C1649 0.950 . S
C1653 C1644 1.390 . S
C1653 H1646 0.950 . S
C1653 C1650 1.387 . S
C1654 C1655 1.387 . S
C1654 H1658 0.950 . S
C1654 C1663 1.390 . S
C1655 C1654 1.387 . S
C1655 C1657 1.387 . S
H1656 C1663 0.950 . S
C1657 C1655 1.387 . S
C1657 C1659 1.390 . S
C1657 H1661 0.950 . S
H1658 C1654 0.950 . S
C1659 C1657 1.390 . S
C1659 C1660 1.387 . S
C1659 H1662 0.950 . S
C1660 C1659 1.387 . S
C1660 C1663 1.387 . S
H1661 C1657 0.950 . S
H1662 C1659 0.950 . S
C1663 C1654 1.390 . S
C1663 H1656 0.950 . S
C1663 C1660 1.387 . S
C1664 C1665 1.387 . S
C1664 H1668 0.950 1_554 S
C1664 C1673 1.390 1_565 S
C1665 C1664 1.387 . S
C1665 C1667 1.387 . S
H1666 C1673 0.950 . S
C1667 C1665 1.387 . S
C1667 C1669 1.390 . S
C1667 H1671 0.950 . S
H1668 C1664 0.950 1_556 S
C1669 C1667 1.390 . S
C1669 C1670 1.387 1_565 S
C1669 H1672 0.950 . S
C1670 C1669 1.387 1_545 S
C1670 C1673 1.387 . S
H1671 C1667 0.950 . S
H1672 C1669 0.950 . S
C1673 C1664 1.390 1_545 S
C1673 H1666 0.950 . S
C1673 C1670 1.387 . S
C1674 C1675 1.387 . S
C1674 H1678 0.950 . S
C1674 C1683 1.390 . S
C1675 C1674 1.387 . S
C1675 C1677 1.387 . S
H1676 C1683 0.950 . S
C1677 C1675 1.387 . S
C1677 C1679 1.390 . S
C1677 H1681 0.950 1_554 S
H1678 C1674 0.950 . S
C1679 C1677 1.390 . S
C1679 C1680 1.387 . S
C1679 H1682 0.950 1_554 S
C1680 C1679 1.387 . S
C1680 C1683 1.387 . S
H1681 C1677 0.950 1_556 S
H1682 C1679 0.950 1_556 S
C1683 C1674 1.390 . S
C1683 H1676 0.950 . S
C1683 C1680 1.387 . S
C1684 C1685 1.387 . S
C1684 H1688 0.950 . S
C1684 C1693 1.390 . S
C1685 C1684 1.387 . S
C1685 C1687 1.387 . S
H1686 C1693 0.950 . S
C1687 C1685 1.387 . S
C1687 C1689 1.390 . S
C1687 H1691 0.950 . S
H1688 C1684 0.950 . S
C1689 C1687 1.390 . S
C1689 C1690 1.387 . S
C1689 H1692 0.950 . S
C1690 C1689 1.387 . S
C1690 C1693 1.387 . S
H1691 C1687 0.950 . S
H1692 C1689 0.950 . S
C1693 C1684 1.390 . S
C1693 H1686 0.950 . S
C1693 C1690 1.387 . S
C1694 C1695 1.387 . S
C1694 H1698 0.950 . S
C1694 C1703 1.390 . S
C1695 C1694 1.387 . S
C1695 C1697 1.387 . S
H1696 C1703 0.950 . S
C1697 C1695 1.387 . S
C1697 C1699 1.390 . S
C1697 H1701 0.950 . S
H1698 C1694 0.950 . S
C1699 C1697 1.390 . S
C1699 C1700 1.387 . S
C1699 H1702 0.950 . S
C1700 C1699 1.387 . S
C1700 C1703 1.387 . S
H1701 C1697 0.950 . S
H1702 C1699 0.950 . S
C1703 C1694 1.390 . S
C1703 H1696 0.950 . S
C1703 C1700 1.387 . S
C1704 C1705 1.387 . S
C1704 H1708 0.950 . S
C1704 C1713 1.390 . S
C1705 C1704 1.387 . S
C1705 C1707 1.387 . S
H1706 C1713 0.950 . S
C1707 C1705 1.387 . S
C1707 C1709 1.390 . S
C1707 H1711 0.950 . S
H1708 C1704 0.950 . S
C1709 C1707 1.390 . S
C1709 C1710 1.387 . S
C1709 H1712 0.950 . S
C1710 C1709 1.387 . S
C1710 C1713 1.387 . S
H1711 C1707 0.950 . S
H1712 C1709 0.950 . S
C1713 C1704 1.390 . S
C1713 H1706 0.950 . S
C1713 C1710 1.387 . S
C1714 C1715 1.387 . S
C1714 H1718 0.950 . S
C1714 C1723 1.390 . S
C1715 C1714 1.387 . S
C1715 C1717 1.387 . S
H1716 C1723 0.950 . S
C1717 C1715 1.387 . S
C1717 C1719 1.390 . S
C1717 H1721 0.950 . S
H1718 C1714 0.950 . S
C1719 C1717 1.390 . S
C1719 C1720 1.387 . S
C1719 H1722 0.950 . S
C1720 C1719 1.387 . S
C1720 C1723 1.387 . S
H1721 C1717 0.950 . S
H1722 C1719 0.950 . S
C1723 C1714 1.390 . S
C1723 H1716 0.950 . S
C1723 C1720 1.387 . S
C1724 C1725 1.387 . S
C1724 H1728 0.950 . S
C1724 C1733 1.390 . S
C1725 C1724 1.387 . S
C1725 C1727 1.387 . S
H1726 C1733 0.950 . S
C1727 C1725 1.387 . S
C1727 C1729 1.390 . S
C1727 H1731 0.950 . S
H1728 C1724 0.950 . S
C1729 C1727 1.390 . S
C1729 C1730 1.387 . S
C1729 H1732 0.950 . S
C1730 C1729 1.387 . S
C1730 C1733 1.387 . S
H1731 C1727 0.950 . S
H1732 C1729 0.950 . S
C1733 C1724 1.390 . S
C1733 H1726 0.950 . S
C1733 C1730 1.387 . S
C1734 C1735 1.387 . S
C1734 H1738 0.950 . S
C1734 C1743 1.390 . S
C1735 C1734 1.387 . S
C1735 C1737 1.387 . S
H1736 C1743 0.950 . S
C1737 C1735 1.387 . S
C1737 C1739 1.390 . S
C1737 H1741 0.950 . S
H1738 C1734 0.950 . S
C1739 C1737 1.390 . S
C1739 C1740 1.387 . S
C1739 H1742 0.950 . S
C1740 C1739 1.387 . S
C1740 C1743 1.387 . S
H1741 C1737 0.950 . S
H1742 C1739 0.950 . S
C1743 C1734 1.390 . S
C1743 H1736 0.950 . S
C1743 C1740 1.387 . S
C1744 C1745 1.387 . S
C1744 H1748 0.950 . S
C1744 C1753 1.390 . S
C1745 C1744 1.387 . S
C1745 C1747 1.387 . S
H1746 C1753 0.950 . S
C1747 C1745 1.387 . S
C1747 C1749 1.390 . S
C1747 H1751 0.950 . S
H1748 C1744 0.950 . S
C1749 C1747 1.390 . S
C1749 C1750 1.387 . S
C1749 H1752 0.950 . S
C1750 C1749 1.387 . S
C1750 C1753 1.387 . S
H1751 C1747 0.950 . S
H1752 C1749 0.950 . S
C1753 C1744 1.390 . S
C1753 H1746 0.950 . S
C1753 C1750 1.387 . S
C1754 C1755 1.387 . S
C1754 H1758 0.950 . S
C1754 C1763 1.390 . S
C1755 C1754 1.387 . S
C1755 C1757 1.387 . S
H1756 C1763 0.950 . S
C1757 C1755 1.387 . S
C1757 C1759 1.390 . S
C1757 H1761 0.950 . S
H1758 C1754 0.950 . S
C1759 C1757 1.390 . S
C1759 C1760 1.387 . S
C1759 H1762 0.950 . S
C1760 C1759 1.387 . S
C1760 C1763 1.387 . S
H1761 C1757 0.950 . S
H1762 C1759 0.950 . S
C1763 C1754 1.390 . S
C1763 H1756 0.950 . S
C1763 C1760 1.387 . S
C1764 C1765 1.387 . S
C1764 H1768 0.950 . S
C1764 C1773 1.390 . S
C1765 C1764 1.387 . S
C1765 C1767 1.387 . S
H1766 C1773 0.950 . S
C1767 C1765 1.387 . S
C1767 C1769 1.390 . S
C1767 H1771 0.950 . S
H1768 C1764 0.950 . S
C1769 C1767 1.390 . S
C1769 C1770 1.387 . S
C1769 H1772 0.950 . S
C1770 C1769 1.387 . S
C1770 C1773 1.387 . S
H1771 C1767 0.950 . S
H1772 C1769 0.950 . S
C1773 C1764 1.390 . S
C1773 H1766 0.950 . S
C1773 C1770 1.387 . S
C1774 C1775 1.387 . S
C1774 H1778 0.950 . S
C1774 C1783 1.390 . S
C1775 C1774 1.387 . S
C1775 C1777 1.387 . S
H1776 C1783 0.950 . S
C1777 C1775 1.387 . S
C1777 C1779 1.390 . S
C1777 H1781 0.950 . S
H1778 C1774 0.950 . S
C1779 C1777 1.390 . S
C1779 C1780 1.387 . S
C1779 H1782 0.950 . S
C1780 C1779 1.387 . S
C1780 C1783 1.387 . S
H1781 C1777 0.950 . S
H1782 C1779 0.950 . S
C1783 C1774 1.390 . S
C1783 H1776 0.950 . S
C1783 C1780 1.387 . S
C1784 C1785 1.387 . S
C1784 H1788 0.950 . S
C1784 C1793 1.390 . S
C1785 C1784 1.387 . S
C1785 C1787 1.387 1_455 S
H1786 C1793 0.950 . S
C1787 C1785 1.387 1_655 S
C1787 C1789 1.390 . S
C1787 H1791 0.950 . S
H1788 C1784 0.950 . S
C1789 C1787 1.390 . S
C1789 C1790 1.387 1_655 S
C1789 H1792 0.950 . S
C1790 C1789 1.387 1_455 S
C1790 C1793 1.387 . S
H1791 C1787 0.950 . S
H1792 C1789 0.950 . S
C1793 C1784 1.390 . S
C1793 H1786 0.950 . S
C1793 C1790 1.387 . S
C1794 C1795 1.387 . S
C1794 H1798 0.950 . S
C1794 C1803 1.390 . S
C1795 C1794 1.387 . S
C1795 C1797 1.387 . S
H1796 C1803 0.950 . S
C1797 C1795 1.387 . S
C1797 C1799 1.390 . S
C1797 H1801 0.950 . S
H1798 C1794 0.950 . S
C1799 C1797 1.390 . S
C1799 C1800 1.387 . S
C1799 H1802 0.950 . S
C1800 C1799 1.387 . S
C1800 C1803 1.387 . S
H1801 C1797 0.950 . S
H1802 C1799 0.950 . S
C1803 C1794 1.390 . S
C1803 H1796 0.950 . S
C1803 C1800 1.387 . S
C1804 C1805 1.387 . S
C1804 H1808 0.950 . S
C1804 C1813 1.390 . S
C1805 C1804 1.387 . S
C1805 C1807 1.387 . S
H1806 C1813 0.950 . S
C1807 C1805 1.387 . S
C1807 C1809 1.390 . S
C1807 H1811 0.950 . S
H1808 C1804 0.950 . S
C1809 C1807 1.390 . S
C1809 C1810 1.387 . S
C1809 H1812 0.950 1_565 S
C1810 C1809 1.387 . S
C1810 C1813 1.387 . S
H1811 C1807 0.950 . S
H1812 C1809 0.950 1_545 S
C1813 C1804 1.390 . S
C1813 H1806 0.950 . S
C1813 C1810 1.387 . S
C1814 C1815 1.387 . S
C1814 H1818 0.950 . S
C1814 C1823 1.390 . S
C1815 C1814 1.387 . S
C1815 C1817 1.387 . S
H1816 C1823 0.950 . S
C1817 C1815 1.387 . S
C1817 C1819 1.390 . S
C1817 H1821 0.950 . S
H1818 C1814 0.950 . S
C1819 C1817 1.390 . S
C1819 C1820 1.387 . S
C1819 H1822 0.950 . S
C1820 C1819 1.387 . S
C1820 C1823 1.387 . S
H1821 C1817 0.950 . S
H1822 C1819 0.950 . S
C1823 C1814 1.390 . S
C1823 H1816 0.950 . S
C1823 C1820 1.387 . S
C1824 C1825 1.387 . S
C1824 H1828 0.950 . S
C1824 C1833 1.390 . S
C1825 C1824 1.387 . S
C1825 C1827 1.387 . S
H1826 C1833 0.950 . S
C1827 C1825 1.387 . S
C1827 C1829 1.390 . S
C1827 H1831 0.950 . S
H1828 C1824 0.950 . S
C1829 C1827 1.390 . S
C1829 C1830 1.387 . S
C1829 H1832 0.950 . S
C1830 C1829 1.387 . S
C1830 C1833 1.387 . S
H1831 C1827 0.950 . S
H1832 C1829 0.950 . S
C1833 C1824 1.390 . S
C1833 H1826 0.950 . S
C1833 C1830 1.387 . S
C1834 C1835 1.387 . S
C1834 H1838 0.950 . S
C1834 C1843 1.390 . S
C1835 C1834 1.387 . S
C1835 C1837 1.387 . S
H1836 C1843 0.950 . S
C1837 C1835 1.387 . S
C1837 C1839 1.390 . S
C1837 H1841 0.950 . S
H1838 C1834 0.950 . S
C1839 C1837 1.390 . S
C1839 C1840 1.387 . S
C1839 H1842 0.950 . S
C1840 C1839 1.387 . S
C1840 C1843 1.387 . S
H1841 C1837 0.950 . S
H1842 C1839 0.950 . S
C1843 C1834 1.390 . S
C1843 H1836 0.950 . S
C1843 C1840 1.387 . S
C1844 C1845 1.387 . S
C1844 H1848 0.950 . S
C1844 C1853 1.390 . S
C1845 C1844 1.387 . S
C1845 C1847 1.387 . S
H1846 C1853 0.950 . S
C1847 C1845 1.387 . S
C1847 C1849 1.390 . S
C1847 H1851 0.950 1_545 S
H1848 C1844 0.950 . S
C1849 C1847 1.390 . S
C1849 C1850 1.387 . S
C1849 H1852 0.950 . S
C1850 C1849 1.387 . S
C1850 C1853 1.387 . S
H1851 C1847 0.950 1_565 S
H1852 C1849 0.950 . S
C1853 C1844 1.390 . S
C1853 H1846 0.950 . S
C1853 C1850 1.387 . S
C1854 C1855 1.387 . S
C1854 H1858 0.950 . S
C1854 C1863 1.390 . S
C1855 C1854 1.387 . S
C1855 C1857 1.387 . S
H1856 C1863 0.950 . S
C1857 C1855 1.387 . S
C1857 C1859 1.390 . S
C1857 H1861 0.950 . S
H1858 C1854 0.950 . S
C1859 C1857 1.390 . S
C1859 C1860 1.387 . S
C1859 H1862 0.950 . S
C1860 C1859 1.387 . S
C1860 C1863 1.387 . S
H1861 C1857 0.950 . S
H1862 C1859 0.950 . S
C1863 C1854 1.390 . S
C1863 H1856 0.950 . S
C1863 C1860 1.387 . S
C1864 C1865 1.387 . S
C1864 H1868 0.950 . S
C1864 C1873 1.390 . S
C1865 C1864 1.387 . S
C1865 C1867 1.387 . S
H1866 C1873 0.950 . S
C1867 C1865 1.387 . S
C1867 C1869 1.390 . S
C1867 H1871 0.950 . S
H1868 C1864 0.950 . S
C1869 C1867 1.390 . S
C1869 C1870 1.387 . S
C1869 H1872 0.950 . S
C1870 C1869 1.387 . S
C1870 C1873 1.387 . S
H1871 C1867 0.950 . S
H1872 C1869 0.950 . S
C1873 C1864 1.390 . S
C1873 H1866 0.950 . S
C1873 C1870 1.387 . S
C1874 C1875 1.387 . S
C1874 H1878 0.950 . S
C1874 C1883 1.390 . S
C1875 C1874 1.387 . S
C1875 C1877 1.387 . S
H1876 C1883 0.950 . S
C1877 C1875 1.387 . S
C1877 C1879 1.390 . S
C1877 H1881 0.950 . S
H1878 C1874 0.950 . S
C1879 C1877 1.390 . S
C1879 C1880 1.387 . S
C1879 H1882 0.950 . S
C1880 C1879 1.387 . S
C1880 C1883 1.387 . S
H1881 C1877 0.950 . S
H1882 C1879 0.950 . S
C1883 C1874 1.390 . S
C1883 H1876 0.950 . S
C1883 C1880 1.387 . S
C1884 C1885 1.387 1_545 S
C1884 H1888 0.950 . S
C1884 C1893 1.390 . S
C1885 C1884 1.387 1_565 S
C1885 C1887 1.387 . S
H1886 C1893 0.950 . S
C1887 C1885 1.387 . S
C1887 C1889 1.390 . S
C1887 H1891 0.950 . S
H1888 C1884 0.950 . S
C1889 C1887 1.390 . S
C1889 C1890 1.387 . S
C1889 H1892 0.950 . S
C1890 C1889 1.387 . S
C1890 C1893 1.387 1_565 S
H1891 C1887 0.950 . S
H1892 C1889 0.950 . S
C1893 C1884 1.390 . S
C1893 H1886 0.950 . S
C1893 C1890 1.387 1_545 S
C1894 C1895 1.387 . S
C1894 H1898 0.950 . S
C1894 C1903 1.390 . S
C1895 C1894 1.387 . S
C1895 C1897 1.387 . S
H1896 C1903 0.950 . S
C1897 C1895 1.387 . S
C1897 C1899 1.390 . S
C1897 H1901 0.950 . S
H1898 C1894 0.950 . S
C1899 C1897 1.390 . S
C1899 C1900 1.387 . S
C1899 H1902 0.950 . S
C1900 C1899 1.387 . S
C1900 C1903 1.387 . S
H1901 C1897 0.950 . S
H1902 C1899 0.950 . S
C1903 C1894 1.390 . S
C1903 H1896 0.950 . S
C1903 C1900 1.387 . S
C1904 C1905 1.387 . S
C1904 H1908 0.950 . S
C1904 C1913 1.390 . S
C1905 C1904 1.387 . S
C1905 C1907 1.387 . S
H1906 C1913 0.950 . S
C1907 C1905 1.387 . S
C1907 C1909 1.390 . S
C1907 H1911 0.950 . S
H1908 C1904 0.950 . S
C1909 C1907 1.390 . S
C1909 C1910 1.387 . S
C1909 H1912 0.950 . S
C1910 C1909 1.387 . S
C1910 C1913 1.387 . S
H1911 C1907 0.950 . S
H1912 C1909 0.950 . S
C1913 C1904 1.390 . S
C1913 H1906 0.950 . S
C1913 C1910 1.387 . S
C1914 C1915 1.387 . S
C1914 H1918 0.950 . S
C1914 C1923 1.390 . S
C1915 C1914 1.387 . S
C1915 C1917 1.387 . S
H1916 C1923 0.950 . S
C1917 C1915 1.387 . S
C1917 C1919 1.390 . S
C1917 H1921 0.950 . S
H1918 C1914 0.950 . S
C1919 C1917 1.390 . S
C1919 C1920 1.387 . S
C1919 H1922 0.950 . S
C1920 C1919 1.387 . S
C1920 C1923 1.387 . S
H1921 C1917 0.950 . S
H1922 C1919 0.950 . S
C1923 C1914 1.390 . S
C1923 H1916 0.950 . S
C1923 C1920 1.387 . S
C1924 C1925 1.387 . S
C1924 H1928 0.950 . S
C1924 C1933 1.390 . S
C1925 C1924 1.387 . S
C1925 C1927 1.387 . S
H1926 C1933 0.950 . S
C1927 C1925 1.387 . S
C1927 C1929 1.390 . S
C1927 H1931 0.950 . S
H1928 C1924 0.950 . S
C1929 C1927 1.390 . S
C1929 C1930 1.387 . S
C1929 H1932 0.950 . S
C1930 C1929 1.387 . S
C1930 C1933 1.387 . S
H1931 C1927 0.950 . S
H1932 C1929 0.950 . S
C1933 C1924 1.390 . S
C1933 H1926 0.950 . S
C1933 C1930 1.387 . S
C1934 C1935 1.387 . S
C1934 H1938 0.950 . S
C1934 C1943 1.390 . S
C1935 C1934 1.387 . S
C1935 C1937 1.387 . S
H1936 C1943 0.950 . S
C1937 C1935 1.387 . S
C1937 C1939 1.390 . S
C1937 H1941 0.950 . S
H1938 C1934 0.950 . S
C1939 C1937 1.390 . S
C1939 C1940 1.387 . S
C1939 H1942 0.950 . S
C1940 C1939 1.387 . S
C1940 C1943 1.387 . S
H1941 C1937 0.950 . S
H1942 C1939 0.950 . S
C1943 C1934 1.390 . S
C1943 H1936 0.950 . S
C1943 C1940 1.387 . S
C1944 C1945 1.387 . S
C1944 H1948 0.950 . S
C1944 C1953 1.390 . S
C1945 C1944 1.387 . S
C1945 C1947 1.387 . S
H1946 C1953 0.950 1_565 S
C1947 C1945 1.387 . S
C1947 C1949 1.390 . S
C1947 H1951 0.950 . S
H1948 C1944 0.950 . S
C1949 C1947 1.390 . S
C1949 C1950 1.387 . S
C1949 H1952 0.950 . S
C1950 C1949 1.387 . S
C1950 C1953 1.387 . S
H1951 C1947 0.950 . S
H1952 C1949 0.950 . S
C1953 C1944 1.390 . S
C1953 H1946 0.950 1_545 S
C1953 C1950 1.387 . S
C1954 C1955 1.387 . S
C1954 H1958 0.950 . S
C1954 C1963 1.390 . S
C1955 C1954 1.387 . S
C1955 C1957 1.387 . S
H1956 C1963 0.950 . S
C1957 C1955 1.387 . S
C1957 C1959 1.390 . S
C1957 H1961 0.950 . S
H1958 C1954 0.950 . S
C1959 C1957 1.390 . S
C1959 C1960 1.387 . S
C1959 H1962 0.950 . S
C1960 C1959 1.387 . S
C1960 C1963 1.387 . S
H1961 C1957 0.950 . S
H1962 C1959 0.950 . S
C1963 C1954 1.390 . S
C1963 H1956 0.950 . S
C1963 C1960 1.387 . S
C1964 C1965 1.387 . S
C1964 H1968 0.950 . S
C1964 C1973 1.390 . S
C1965 C1964 1.387 . S
C1965 C1967 1.387 . S
H1966 C1973 0.950 . S
C1967 C1965 1.387 . S
C1967 C1969 1.390 . S
C1967 H1971 0.950 . S
H1968 C1964 0.950 . S
C1969 C1967 1.390 . S
C1969 C1970 1.387 . S
C1969 H1972 0.950 . S
C1970 C1969 1.387 . S
C1970 C1973 1.387 . S
H1971 C1967 0.950 . S
H1972 C1969 0.950 . S
C1973 C1964 1.390 . S
C1973 H1966 0.950 . S
C1973 C1970 1.387 . S
C1974 C1975 1.387 . S
C1974 H1978 0.950 . S
C1974 C1983 1.390 . S
C1975 C1974 1.387 . S
C1975 C1977 1.387 . S
H1976 C1983 0.950 . S
C1977 C1975 1.387 . S
C1977 C1979 1.390 . S
C1977 H1981 0.950 . S
H1978 C1974 0.950 . S
C1979 C1977 1.390 . S
C1979 C1980 1.387 . S
C1979 H1982 0.950 . S
C1980 C1979 1.387 . S
C1980 C1983 1.387 . S
H1981 C1977 0.950 . S
H1982 C1979 0.950 . S
C1983 C1974 1.390 . S
C1983 H1976 0.950 . S
C1983 C1980 1.387 . S
C1984 C1985 1.387 . S
C1984 H1988 0.950 . S
C1984 C1993 1.390 . S
C1985 C1984 1.387 . S
C1985 C1987 1.387 . S
H1986 C1993 0.950 . S
C1987 C1985 1.387 . S
C1987 C1989 1.390 . S
C1987 H1991 0.950 . S
H1988 C1984 0.950 . S
C1989 C1987 1.390 . S
C1989 C1990 1.387 . S
C1989 H1992 0.950 . S
C1990 C1989 1.387 . S
C1990 C1993 1.387 . S
H1991 C1987 0.950 . S
H1992 C1989 0.950 . S
C1993 C1984 1.390 . S
C1993 H1986 0.950 . S
C1993 C1990 1.387 . S
C1994 C1995 1.387 . S
C1994 H1998 0.950 . S
C1994 C2003 1.390 . S
C1995 C1994 1.387 . S
C1995 C1997 1.387 . S
H1996 C2003 0.950 . S
C1997 C1995 1.387 . S
C1997 C1999 1.390 . S
C1997 H2001 0.950 . S
H1998 C1994 0.950 . S
C1999 C1997 1.390 . S
C1999 C2000 1.387 . S
C1999 H2002 0.950 . S
C2000 C1999 1.387 . S
C2000 C2003 1.387 . S
H2001 C1997 0.950 . S
H2002 C1999 0.950 . S
C2003 C1994 1.390 . S
C2003 H1996 0.950 . S
C2003 C2000 1.387 . S
C2004 C2005 1.387 . S
C2004 H2008 0.950 1_554 S
C2004 C2013 1.390 . S
C2005 C2004 1.387 . S
C2005 C2007 1.387 . S
H2006 C2013 0.950 1_556 S
C2007 C2005 1.387 . S
C2007 C2009 1.390 . S
C2007 H2011 0.950 . S
H2008 C2004 0.950 1_556 S
C2009 C2007 1.390 . S
C2009 C2010 1.387 . S
C2009 H2012 0.950 . S
C2010 C2009 1.387 . S
C2010 C2013 1.387 . S
H2011 C2007 0.950 . S
H2012 C2009 0.950 . S
C2013 C2004 1.390 . S
C2013 H2006 0.950 1_554 S
C2013 C2010 1.387 . S
C2014 C2015 1.387 1_455 S
C2014 H2018 0.950 . S
C2014 C2023 1.390 1_455 S
C2015 C2014 1.387 1_655 S
C2015 C2017 1.387 . S
H2016 C2023 0.950 . S
C2017 C2015 1.387 . S
C2017 C2019 1.390 . S
C2017 H2021 0.950 . S
H2018 C2014 0.950 . S
C2019 C2017 1.390 . S
C2019 C2020 1.387 . S
C2019 H2022 0.950 . S
C2020 C2019 1.387 . S
C2020 C2023 1.387 . S
H2021 C2017 0.950 . S
H2022 C2019 0.950 . S
C2023 C2014 1.390 1_655 S
C2023 H2016 0.950 . S
C2023 C2020 1.387 . S
C2024 C2025 1.387 . S
C2024 H2028 0.950 . S
C2024 C2033 1.390 . S
C2025 C2024 1.387 . S
C2025 C2027 1.387 . S
H2026 C2033 0.950 . S
C2027 C2025 1.387 . S
C2027 C2029 1.390 . S
C2027 H2031 0.950 . S
H2028 C2024 0.950 . S
C2029 C2027 1.390 . S
C2029 C2030 1.387 . S
C2029 H2032 0.950 . S
C2030 C2029 1.387 . S
C2030 C2033 1.387 . S
H2031 C2027 0.950 . S
H2032 C2029 0.950 . S
C2033 C2024 1.390 . S
C2033 H2026 0.950 . S
C2033 C2030 1.387 . S
C2034 C2035 1.387 . S
C2034 H2038 0.950 . S
C2034 C2043 1.390 . S
C2035 C2034 1.387 . S
C2035 C2037 1.387 . S
H2036 C2043 0.950 . S
C2037 C2035 1.387 . S
C2037 C2039 1.390 . S
C2037 H2041 0.950 . S
H2038 C2034 0.950 . S
C2039 C2037 1.390 . S
C2039 C2040 1.387 . S
C2039 H2042 0.950 . S
C2040 C2039 1.387 . S
C2040 C2043 1.387 . S
H2041 C2037 0.950 . S
H2042 C2039 0.950 . S
C2043 C2034 1.390 . S
C2043 H2036 0.950 . S
C2043 C2040 1.387 . S
C2044 C2045 1.387 . S
C2044 H2048 0.950 . S
C2044 C2053 1.390 . S
C2045 C2044 1.387 . S
C2045 C2047 1.387 . S
H2046 C2053 0.950 . S
C2047 C2045 1.387 . S
C2047 C2049 1.390 . S
C2047 H2051 0.950 1_455 S
H2048 C2044 0.950 . S
C2049 C2047 1.390 . S
C2049 C2050 1.387 . S
C2049 H2052 0.950 1_455 S
C2050 C2049 1.387 . S
C2050 C2053 1.387 . S
H2051 C2047 0.950 1_655 S
H2052 C2049 0.950 1_655 S
C2053 C2044 1.390 . S
C2053 H2046 0.950 . S
C2053 C2050 1.387 . S
C2054 C2055 1.387 . S
C2054 H2058 0.950 . S
C2054 C2063 1.390 . S
C2055 C2054 1.387 . S
C2055 C2057 1.387 . S
H2056 C2063 0.950 . S
C2057 C2055 1.387 . S
C2057 C2059 1.390 . S
C2057 H2061 0.950 . S
H2058 C2054 0.950 . S
C2059 C2057 1.390 . S
C2059 C2060 1.387 . S
C2059 H2062 0.950 . S
C2060 C2059 1.387 . S
C2060 C2063 1.387 . S
H2061 C2057 0.950 . S
H2062 C2059 0.950 . S
C2063 C2054 1.390 . S
C2063 H2056 0.950 . S
C2063 C2060 1.387 . S
C2064 C2065 1.387 . S
C2064 H2068 0.950 . S
C2064 C2073 1.390 . S
C2065 C2064 1.387 . S
C2065 C2067 1.387 . S
H2066 C2073 0.950 . S
C2067 C2065 1.387 . S
C2067 C2069 1.390 . S
C2067 H2071 0.950 . S
H2068 C2064 0.950 . S
C2069 C2067 1.390 . S
C2069 C2070 1.387 . S
C2069 H2072 0.950 . S
C2070 C2069 1.387 . S
C2070 C2073 1.387 . S
H2071 C2067 0.950 . S
H2072 C2069 0.950 . S
C2073 C2064 1.390 . S
C2073 H2066 0.950 . S
C2073 C2070 1.387 . S
C2074 C2075 1.387 . S
C2074 H2078 0.950 . S
C2074 C2083 1.390 . S
C2075 C2074 1.387 . S
C2075 C2077 1.386 1_554 S
H2076 C2083 0.950 . S
C2077 C2075 1.386 1_556 S
C2077 C2079 1.391 . S
C2077 H2081 0.950 . S
H2078 C2074 0.950 . S
C2079 C2077 1.391 . S
C2079 C2080 1.387 . S
C2079 H2082 0.950 . S
C2080 C2079 1.387 . S
C2080 C2083 1.387 1_556 S
H2081 C2077 0.950 . S
H2082 C2079 0.950 . S
C2083 C2074 1.390 . S
C2083 H2076 0.950 . S
C2083 C2080 1.387 1_554 S
C2084 C2085 1.387 . S
C2084 H2088 0.950 . S
C2084 C2093 1.390 . S
C2085 C2084 1.387 . S
C2085 C2087 1.387 . S
H2086 C2093 0.950 . S
C2087 C2085 1.387 . S
C2087 C2089 1.390 . S
C2087 H2091 0.950 . S
H2088 C2084 0.950 . S
C2089 C2087 1.390 . S
C2089 C2090 1.387 . S
C2089 H2092 0.950 . S
C2090 C2089 1.387 . S
C2090 C2093 1.387 . S
H2091 C2087 0.950 . S
H2092 C2089 0.950 . S
C2093 C2084 1.390 . S
C2093 H2086 0.950 . S
C2093 C2090 1.387 . S
C2094 C2095 1.387 . S
C2094 H2098 0.950 . S
C2094 C2103 1.390 . S
C2095 C2094 1.387 . S
C2095 C2097 1.387 . S
H2096 C2103 0.950 . S
C2097 C2095 1.387 . S
C2097 C2099 1.390 . S
C2097 H2101 0.950 . S
H2098 C2094 0.950 . S
C2099 C2097 1.390 . S
C2099 C2100 1.387 . S
C2099 H2102 0.950 . S
C2100 C2099 1.387 . S
C2100 C2103 1.387 . S
H2101 C2097 0.950 . S
H2102 C2099 0.950 . S
C2103 C2094 1.390 . S
C2103 H2096 0.950 . S
C2103 C2100 1.387 . S
C2104 C2105 1.387 . S
C2104 H2108 0.950 . S
C2104 C2113 1.390 . S
C2105 C2104 1.387 . S
C2105 C2107 1.387 . S
H2106 C2113 0.950 . S
C2107 C2105 1.387 . S
C2107 C2109 1.390 . S
C2107 H2111 0.950 . S
H2108 C2104 0.950 . S
C2109 C2107 1.390 . S
C2109 C2110 1.387 . S
C2109 H2112 0.950 . S
C2110 C2109 1.387 . S
C2110 C2113 1.387 . S
H2111 C2107 0.950 . S
H2112 C2109 0.950 . S
C2113 C2104 1.390 . S
C2113 H2106 0.950 . S
C2113 C2110 1.387 . S
C2114 C2115 1.387 . S
C2114 H2118 0.950 . S
C2114 C2123 1.390 . S
C2115 C2114 1.387 . S
C2115 C2117 1.387 . S
H2116 C2123 0.950 . S
C2117 C2115 1.387 . S
C2117 C2119 1.390 . S
C2117 H2121 0.950 . S
H2118 C2114 0.950 . S
C2119 C2117 1.390 . S
C2119 C2120 1.387 . S
C2119 H2122 0.950 . S
C2120 C2119 1.387 . S
C2120 C2123 1.387 . S
H2121 C2117 0.950 . S
H2122 C2119 0.950 . S
C2123 C2114 1.390 . S
C2123 H2116 0.950 . S
C2123 C2120 1.387 . S
C2124 C2125 1.387 . S
C2124 H2128 0.950 . S
C2124 C2133 1.390 . S
C2125 C2124 1.387 . S
C2125 C2127 1.387 . S
H2126 C2133 0.950 . S
C2127 C2125 1.387 . S
C2127 C2129 1.390 . S
C2127 H2131 0.950 . S
H2128 C2124 0.950 . S
C2129 C2127 1.390 . S
C2129 C2130 1.387 . S
C2129 H2132 0.950 . S
C2130 C2129 1.387 . S
C2130 C2133 1.387 . S
H2131 C2127 0.950 . S
H2132 C2129 0.950 . S
C2133 C2124 1.390 . S
C2133 H2126 0.950 . S
C2133 C2130 1.387 . S
C2134 C2135 1.387 . S
C2134 H2138 0.950 . S
C2134 C2143 1.390 . S
C2135 C2134 1.387 . S
C2135 C2137 1.387 . S
H2136 C2143 0.950 . S
C2137 C2135 1.387 . S
C2137 C2139 1.390 . S
C2137 H2141 0.950 . S
H2138 C2134 0.950 . S
C2139 C2137 1.390 . S
C2139 C2140 1.387 . S
C2139 H2142 0.950 . S
C2140 C2139 1.387 . S
C2140 C2143 1.387 . S
H2141 C2137 0.950 . S
H2142 C2139 0.950 . S
C2143 C2134 1.390 . S
C2143 H2136 0.950 . S
C2143 C2140 1.387 . S
C2144 C2145 1.387 . S
C2144 H2148 0.950 . S
C2144 C2153 1.390 . S
C2145 C2144 1.387 . S
C2145 C2147 1.387 . S
H2146 C2153 0.950 . S
C2147 C2145 1.387 . S
C2147 C2149 1.390 . S
C2147 H2151 0.950 . S
H2148 C2144 0.950 . S
C2149 C2147 1.390 . S
C2149 C2150 1.387 . S
C2149 H2152 0.950 . S
C2150 C2149 1.387 . S
C2150 C2153 1.387 . S
H2151 C2147 0.950 . S
H2152 C2149 0.950 . S
C2153 C2144 1.390 . S
C2153 H2146 0.950 . S
C2153 C2150 1.387 . S
C2154 C2155 1.387 . S
C2154 H2158 0.950 . S
C2154 C2163 1.390 . S
C2155 C2154 1.387 . S
C2155 C2157 1.387 . S
H2156 C2163 0.950 . S
C2157 C2155 1.387 . S
C2157 C2159 1.390 . S
C2157 H2161 0.950 . S
H2158 C2154 0.950 . S
C2159 C2157 1.390 . S
C2159 C2160 1.387 . S
C2159 H2162 0.950 . S
C2160 C2159 1.387 . S
C2160 C2163 1.387 . S
H2161 C2157 0.950 . S
H2162 C2159 0.950 . S
C2163 C2154 1.390 . S
C2163 H2156 0.950 . S
C2163 C2160 1.387 . S
C2164 C2165 1.387 1_565 S
C2164 H2168 0.950 . S
C2164 C2173 1.390 . S
C2165 C2164 1.387 1_545 S
C2165 C2167 1.387 . S
H2166 C2173 0.950 . S
C2167 C2165 1.387 . S
C2167 C2169 1.390 1_545 S
C2167 H2171 0.950 . S
H2168 C2164 0.950 . S
C2169 C2167 1.390 1_565 S
C2169 C2170 1.387 . S
C2169 H2172 0.950 . S
C2170 C2169 1.387 . S
C2170 C2173 1.387 . S
H2171 C2167 0.950 . S
H2172 C2169 0.950 . S
C2173 C2164 1.390 . S
C2173 H2166 0.950 . S
C2173 C2170 1.387 . S
C2174 C2175 1.387 1_556 S
C2174 H2178 0.950 . S
C2174 C2183 1.390 1_566 S
C2175 C2174 1.387 1_554 S
C2175 C2177 1.387 . S
H2176 C2183 0.950 1_556 S
C2177 C2175 1.387 . S
C2177 C2179 1.390 1_565 S
C2177 H2181 0.950 . S
H2178 C2174 0.950 . S
C2179 C2177 1.390 1_545 S
C2179 C2180 1.387 . S
C2179 H2182 0.950 . S
C2180 C2179 1.387 . S
C2180 C2183 1.387 . S
H2181 C2177 0.950 . S
H2182 C2179 0.950 . S
C2183 C2174 1.390 1_544 S
C2183 H2176 0.950 1_554 S
C2183 C2180 1.387 . S
C2184 C2185 1.387 . S
C2184 H2188 0.950 . S
C2184 C2193 1.390 . S
C2185 C2184 1.387 . S
C2185 C2187 1.387 . S
H2186 C2193 0.950 . S
C2187 C2185 1.387 . S
C2187 C2189 1.390 . S
C2187 H2191 0.950 . S
H2188 C2184 0.950 . S
C2189 C2187 1.390 . S
C2189 C2190 1.387 . S
C2189 H2192 0.950 . S
C2190 C2189 1.387 . S
C2190 C2193 1.387 . S
H2191 C2187 0.950 . S
H2192 C2189 0.950 . S
C2193 C2184 1.390 . S
C2193 H2186 0.950 . S
C2193 C2190 1.387 . S
C2194 C2195 1.387 . S
C2194 H2198 0.950 . S
C2194 C2203 1.390 . S
C2195 C2194 1.387 . S
C2195 C2197 1.387 . S
H2196 C2203 0.950 . S
C2197 C2195 1.387 . S
C2197 C2199 1.390 . S
C2197 H2201 0.950 . S
H2198 C2194 0.950 . S
C2199 C2197 1.390 . S
C2199 C2200 1.387 . S
C2199 H2202 0.950 . S
C2200 C2199 1.387 . S
C2200 C2203 1.387 . S
H2201 C2197 0.950 . S
H2202 C2199 0.950 . S
C2203 C2194 1.390 . S
C2203 H2196 0.950 . S
C2203 C2200 1.387 . S
C2204 C2205 1.387 . S
C2204 H2208 0.950 . S
C2204 C2213 1.390 . S
C2205 C2204 1.387 . S
C2205 C2207 1.387 . S
H2206 C2213 0.950 . S
C2207 C2205 1.387 . S
C2207 C2209 1.390 . S
C2207 H2211 0.950 . S
H2208 C2204 0.950 . S
C2209 C2207 1.390 . S
C2209 C2210 1.387 . S
C2209 H2212 0.950 . S
C2210 C2209 1.387 . S
C2210 C2213 1.387 . S
H2211 C2207 0.950 . S
H2212 C2209 0.950 . S
C2213 C2204 1.390 . S
C2213 H2206 0.950 . S
C2213 C2210 1.387 . S
C2214 C2215 1.387 . S
C2214 H2218 0.950 . S
C2214 C2223 1.390 . S
C2215 C2214 1.387 . S
C2215 C2217 1.387 . S
H2216 C2223 0.950 . S
C2217 C2215 1.387 . S
C2217 C2219 1.390 . S
C2217 H2221 0.950 . S
H2218 C2214 0.950 . S
C2219 C2217 1.390 . S
C2219 C2220 1.387 . S
C2219 H2222 0.950 . S
C2220 C2219 1.387 . S
C2220 C2223 1.387 . S
H2221 C2217 0.950 . S
H2222 C2219 0.950 . S
C2223 C2214 1.390 . S
C2223 H2216 0.950 . S
C2223 C2220 1.387 . S
C2224 C2225 1.387 . S
C2224 H2228 0.950 . S
C2224 C2233 1.390 . S
C2225 C2224 1.387 . S
C2225 C2227 1.387 . S
H2226 C2233 0.950 . S
C2227 C2225 1.387 . S
C2227 C2229 1.390 . S
C2227 H2231 0.950 . S
H2228 C2224 0.950 . S
C2229 C2227 1.390 . S
C2229 C2230 1.387 . S
C2229 H2232 0.950 . S
C2230 C2229 1.387 . S
C2230 C2233 1.387 . S
H2231 C2227 0.950 . S
H2232 C2229 0.950 . S
C2233 C2224 1.390 . S
C2233 H2226 0.950 . S
C2233 C2230 1.387 . S
C2234 C2235 1.387 . S
C2234 H2238 0.950 . S
C2234 C2243 1.390 . S
C2235 C2234 1.387 . S
C2235 C2237 1.387 . S
H2236 C2243 0.950 . S
C2237 C2235 1.387 . S
C2237 C2239 1.390 . S
C2237 H2241 0.950 . S
H2238 C2234 0.950 . S
C2239 C2237 1.390 . S
C2239 C2240 1.387 . S
C2239 H2242 0.950 . S
C2240 C2239 1.387 . S
C2240 C2243 1.387 . S
H2241 C2237 0.950 . S
H2242 C2239 0.950 . S
C2243 C2234 1.390 . S
C2243 H2236 0.950 . S
C2243 C2240 1.387 . S
C2244 C2245 1.387 . S
C2244 H2248 0.950 . S
C2244 C2253 1.390 . S
C2245 C2244 1.387 . S
C2245 C2247 1.387 . S
H2246 C2253 0.950 . S
C2247 C2245 1.387 . S
C2247 C2249 1.390 . S
C2247 H2251 0.950 . S
H2248 C2244 0.950 . S
C2249 C2247 1.390 . S
C2249 C2250 1.387 . S
C2249 H2252 0.950 . S
C2250 C2249 1.387 . S
C2250 C2253 1.387 . S
H2251 C2247 0.950 . S
H2252 C2249 0.950 . S
C2253 C2244 1.390 . S
C2253 H2246 0.950 . S
C2253 C2250 1.387 . S
C2254 C2255 1.387 . S
C2254 H2258 0.950 . S
C2254 C2263 1.390 . S
C2255 C2254 1.387 . S
C2255 C2257 1.387 . S
H2256 C2263 0.950 . S
C2257 C2255 1.387 . S
C2257 C2259 1.390 . S
C2257 H2261 0.950 . S
H2258 C2254 0.950 . S
C2259 C2257 1.390 . S
C2259 C2260 1.387 . S
C2259 H2262 0.950 . S
C2260 C2259 1.387 . S
C2260 C2263 1.387 . S
H2261 C2257 0.950 . S
H2262 C2259 0.950 . S
C2263 C2254 1.390 . S
C2263 H2256 0.950 . S
C2263 C2260 1.387 . S
C2264 C2265 1.387 . S
C2264 H2268 0.950 . S
C2264 C2273 1.390 . S
C2265 C2264 1.387 . S
C2265 C2267 1.387 . S
H2266 C2273 0.950 . S
C2267 C2265 1.387 . S
C2267 C2269 1.390 . S
C2267 H2271 0.950 . S
H2268 C2264 0.950 . S
C2269 C2267 1.390 . S
C2269 C2270 1.387 . S
C2269 H2272 0.950 . S
C2270 C2269 1.387 . S
C2270 C2273 1.387 . S
H2271 C2267 0.950 . S
H2272 C2269 0.950 . S
C2273 C2264 1.390 . S
C2273 H2266 0.950 . S
C2273 C2270 1.387 . S
C2274 C2275 1.387 . S
C2274 H2278 0.950 . S
C2274 C2283 1.390 . S
C2275 C2274 1.387 . S
C2275 C2277 1.387 . S
H2276 C2283 0.950 . S
C2277 C2275 1.387 . S
C2277 C2279 1.390 . S
C2277 H2281 0.950 . S
H2278 C2274 0.950 . S
C2279 C2277 1.390 . S
C2279 C2280 1.387 . S
C2279 H2282 0.950 . S
C2280 C2279 1.387 . S
C2280 C2283 1.387 . S
H2281 C2277 0.950 . S
H2282 C2279 0.950 . S
C2283 C2274 1.390 . S
C2283 H2276 0.950 . S
C2283 C2280 1.387 . S
C2284 C2285 1.387 . S
C2284 H2288 0.950 . S
C2284 C2293 1.390 . S
C2285 C2284 1.387 . S
C2285 C2287 1.387 . S
H2286 C2293 0.950 . S
C2287 C2285 1.387 . S
C2287 C2289 1.390 . S
C2287 H2291 0.950 . S
H2288 C2284 0.950 . S
C2289 C2287 1.390 . S
C2289 C2290 1.387 . S
C2289 H2292 0.950 . S
C2290 C2289 1.387 . S
C2290 C2293 1.387 . S
H2291 C2287 0.950 . S
H2292 C2289 0.950 . S
C2293 C2284 1.390 . S
C2293 H2286 0.950 . S
C2293 C2290 1.387 . S
C2294 C2295 1.387 . S
C2294 H2298 0.950 . S
C2294 C2303 1.390 . S
C2295 C2294 1.387 . S
C2295 C2297 1.387 . S
H2296 C2303 0.950 . S
C2297 C2295 1.387 . S
C2297 C2299 1.390 . S
C2297 H2301 0.950 . S
H2298 C2294 0.950 . S
C2299 C2297 1.390 . S
C2299 C2300 1.387 . S
C2299 H2302 0.950 . S
C2300 C2299 1.387 . S
C2300 C2303 1.387 . S
H2301 C2297 0.950 . S
H2302 C2299 0.950 . S
C2303 C2294 1.390 . S
C2303 H2296 0.950 . S
C2303 C2300 1.387 . S
C2304 C2305 1.387 . S
C2304 H2308 0.950 . S
C2304 C2313 1.390 . S
C2305 C2304 1.387 . S
C2305 C2307 1.387 . S
H2306 C2313 0.950 . S
C2307 C2305 1.387 . S
C2307 C2309 1.390 . S
C2307 H2311 0.950 . S
H2308 C2304 0.950 . S
C2309 C2307 1.390 . S
C2309 C2310 1.387 . S
C2309 H2312 0.950 . S
C2310 C2309 1.387 . S
C2310 C2313 1.387 . S
H2311 C2307 0.950 . S
H2312 C2309 0.950 . S
C2313 C2304 1.390 . S
C2313 H2306 0.950 . S
C2313 C2310 1.387 . S
C2314 C2315 1.387 . S
C2314 H2318 0.950 . S
C2314 C2323 1.390 . S
C2315 C2314 1.387 . S
C2315 C2317 1.387 . S
H2316 C2323 0.950 . S
C2317 C2315 1.387 . S
C2317 C2319 1.390 . S
C2317 H2321 0.950 . S
H2318 C2314 0.950 . S
C2319 C2317 1.390 . S
C2319 C2320 1.387 . S
C2319 H2322 0.950 . S
C2320 C2319 1.387 . S
C2320 C2323 1.387 . S
H2321 C2317 0.950 . S
H2322 C2319 0.950 . S
C2323 C2314 1.390 . S
C2323 H2316 0.950 . S
C2323 C2320 1.387 . S
C2324 C2325 1.387 . S
C2324 H2328 0.950 . S
C2324 C2333 1.390 . S
C2325 C2324 1.387 . S
C2325 C2327 1.387 . S
H2326 C2333 0.950 . S
C2327 C2325 1.387 . S
C2327 C2329 1.390 . S
C2327 H2331 0.950 . S
H2328 C2324 0.950 . S
C2329 C2327 1.390 . S
C2329 C2330 1.387 . S
C2329 H2332 0.950 . S
C2330 C2329 1.387 . S
C2330 C2333 1.387 . S
H2331 C2327 0.950 . S
H2332 C2329 0.950 . S
C2333 C2324 1.390 . S
C2333 H2326 0.950 . S
C2333 C2330 1.387 . S
C2334 C2335 1.387 . S
C2334 H2338 0.950 . S
C2334 C2343 1.390 . S
C2335 C2334 1.387 . S
C2335 C2337 1.387 . S
H2336 C2343 0.950 . S
C2337 C2335 1.387 . S
C2337 C2339 1.390 . S
C2337 H2341 0.950 . S
H2338 C2334 0.950 . S
C2339 C2337 1.390 . S
C2339 C2340 1.387 . S
C2339 H2342 0.950 . S
C2340 C2339 1.387 . S
C2340 C2343 1.387 . S
H2341 C2337 0.950 . S
H2342 C2339 0.950 . S
C2343 C2334 1.390 . S
C2343 H2336 0.950 . S
C2343 C2340 1.387 . S
C2344 C2345 1.387 . S
C2344 H2348 0.950 . S
C2344 C2353 1.390 . S
C2345 C2344 1.387 . S
C2345 C2347 1.387 . S
H2346 C2353 0.950 . S
C2347 C2345 1.387 . S
C2347 C2349 1.390 . S
C2347 H2351 0.950 . S
H2348 C2344 0.950 . S
C2349 C2347 1.390 . S
C2349 C2350 1.387 . S
C2349 H2352 0.950 . S
C2350 C2349 1.387 . S
C2350 C2353 1.387 . S
H2351 C2347 0.950 . S
H2352 C2349 0.950 . S
C2353 C2344 1.390 . S
C2353 H2346 0.950 . S
C2353 C2350 1.387 . S
C2354 C2355 1.387 . S
C2354 H2358 0.950 . S
C2354 C2363 1.390 . S
C2355 C2354 1.387 . S
C2355 C2357 1.387 . S
H2356 C2363 0.950 . S
C2357 C2355 1.387 . S
C2357 C2359 1.390 . S
C2357 H2361 0.950 . S
H2358 C2354 0.950 . S
C2359 C2357 1.390 . S
C2359 C2360 1.387 . S
C2359 H2362 0.950 . S
C2360 C2359 1.387 . S
C2360 C2363 1.387 . S
H2361 C2357 0.950 . S
H2362 C2359 0.950 . S
C2363 C2354 1.390 . S
C2363 H2356 0.950 . S
C2363 C2360 1.387 . S
C2364 C2365 1.387 . S
C2364 H2368 0.950 . S
C2364 C2373 1.390 . S
C2365 C2364 1.387 . S
C2365 C2367 1.387 . S
H2366 C2373 0.950 . S
C2367 C2365 1.387 . S
C2367 C2369 1.390 . S
C2367 H2371 0.950 . S
H2368 C2364 0.950 . S
C2369 C2367 1.390 . S
C2369 C2370 1.387 . S
C2369 H2372 0.950 . S
C2370 C2369 1.387 . S
C2370 C2373 1.387 . S
H2371 C2367 0.950 . S
H2372 C2369 0.950 . S
C2373 C2364 1.390 . S
C2373 H2366 0.950 . S
C2373 C2370 1.387 . S
C2374 C2375 1.387 . S
C2374 H2378 0.950 . S
C2374 C2383 1.390 . S
C2375 C2374 1.387 . S
C2375 C2377 1.387 . S
H2376 C2383 0.950 . S
C2377 C2375 1.387 . S
C2377 C2379 1.390 . S
C2377 H2381 0.950 . S
H2378 C2374 0.950 . S
C2379 C2377 1.390 . S
C2379 C2380 1.387 . S
C2379 H2382 0.950 . S
C2380 C2379 1.387 . S
C2380 C2383 1.387 . S
H2381 C2377 0.950 . S
H2382 C2379 0.950 . S
C2383 C2374 1.390 . S
C2383 H2376 0.950 . S
C2383 C2380 1.387 . S
C2384 C2385 1.387 . S
C2384 H2388 0.950 . S
C2384 C2393 1.390 . S
C2385 C2384 1.387 . S
C2385 C2387 1.387 . S
H2386 C2393 0.950 . S
C2387 C2385 1.387 . S
C2387 C2389 1.390 . S
C2387 H2391 0.950 . S
H2388 C2384 0.950 . S
C2389 C2387 1.390 . S
C2389 C2390 1.387 . S
C2389 H2392 0.950 . S
C2390 C2389 1.387 . S
C2390 C2393 1.387 . S
H2391 C2387 0.950 . S
H2392 C2389 0.950 . S
C2393 C2384 1.390 . S
C2393 H2386 0.950 . S
C2393 C2390 1.387 . S
C2394 C2395 1.387 . S
C2394 H2398 0.950 . S
C2394 C2403 1.390 . S
C2395 C2394 1.387 . S
C2395 C2397 1.387 . S
H2396 C2403 0.950 . S
C2397 C2395 1.387 . S
C2397 C2399 1.390 . S
C2397 H2401 0.950 . S
H2398 C2394 0.950 . S
C2399 C2397 1.390 . S
C2399 C2400 1.387 . S
C2399 H2402 0.950 1_565 S
C2400 C2399 1.387 . S
C2400 C2403 1.387 . S
H2401 C2397 0.950 . S
H2402 C2399 0.950 1_545 S
C2403 C2394 1.390 . S
C2403 H2396 0.950 . S
C2403 C2400 1.387 . S
C2404 C2405 1.387 . S
C2404 H2408 0.950 . S
C2404 C2413 1.390 . S
C2405 C2404 1.387 . S
C2405 C2407 1.387 . S
H2406 C2413 0.950 . S
C2407 C2405 1.387 . S
C2407 C2409 1.390 . S
C2407 H2411 0.950 . S
H2408 C2404 0.950 . S
C2409 C2407 1.390 . S
C2409 C2410 1.387 . S
C2409 H2412 0.950 . S
C2410 C2409 1.387 . S
C2410 C2413 1.387 . S
H2411 C2407 0.950 . S
H2412 C2409 0.950 . S
C2413 C2404 1.390 . S
C2413 H2406 0.950 . S
C2413 C2410 1.387 . S
C2414 C2415 1.387 . S
C2414 H2418 0.950 . S
C2414 C2423 1.390 . S
C2415 C2414 1.387 . S
C2415 C2417 1.387 . S
H2416 C2423 0.950 . S
C2417 C2415 1.387 . S
C2417 C2419 1.390 . S
C2417 H2421 0.950 . S
H2418 C2414 0.950 . S
C2419 C2417 1.390 . S
C2419 C2420 1.387 . S
C2419 H2422 0.950 . S
C2420 C2419 1.387 . S
C2420 C2423 1.387 . S
H2421 C2417 0.950 . S
H2422 C2419 0.950 . S
C2423 C2414 1.390 . S
C2423 H2416 0.950 . S
C2423 C2420 1.387 . S
C2424 C2425 1.387 . S
C2424 H2428 0.950 . S
C2424 C2433 1.390 . S
C2425 C2424 1.387 . S
C2425 C2427 1.387 . S
H2426 C2433 0.950 . S
C2427 C2425 1.387 . S
C2427 C2429 1.390 . S
C2427 H2431 0.950 . S
H2428 C2424 0.950 . S
C2429 C2427 1.390 . S
C2429 C2430 1.387 . S
C2429 H2432 0.950 . S
C2430 C2429 1.387 . S
C2430 C2433 1.387 . S
H2431 C2427 0.950 . S
H2432 C2429 0.950 . S
C2433 C2424 1.390 . S
C2433 H2426 0.950 . S
C2433 C2430 1.387 . S
C2434 C2435 1.387 . S
C2434 H2438 0.950 . S
C2434 C2443 1.390 . S
C2435 C2434 1.387 . S
C2435 C2437 1.387 . S
H2436 C2443 0.950 . S
C2437 C2435 1.387 . S
C2437 C2439 1.390 1_554 S
C2437 H2441 0.950 . S
H2438 C2434 0.950 . S
C2439 C2437 1.390 1_556 S
C2439 C2440 1.387 1_556 S
C2439 H2442 0.950 . S
C2440 C2439 1.387 1_554 S
C2440 C2443 1.387 . S
H2441 C2437 0.950 . S
H2442 C2439 0.950 . S
C2443 C2434 1.390 . S
C2443 H2436 0.950 . S
C2443 C2440 1.387 . S
C2444 C2445 1.387 . S
C2444 H2448 0.950 . S
C2444 C2453 1.390 . S
C2445 C2444 1.387 . S
C2445 C2447 1.387 . S
H2446 C2453 0.950 . S
C2447 C2445 1.387 . S
C2447 C2449 1.390 . S
C2447 H2451 0.950 . S
H2448 C2444 0.950 . S
C2449 C2447 1.390 . S
C2449 C2450 1.387 . S
C2449 H2452 0.950 . S
C2450 C2449 1.387 . S
C2450 C2453 1.387 . S
H2451 C2447 0.950 . S
H2452 C2449 0.950 . S
C2453 C2444 1.390 . S
C2453 H2446 0.950 . S
C2453 C2450 1.387 . S
C2454 C2455 1.387 . S
C2454 H2458 0.950 . S
C2454 C2463 1.390 . S
C2455 C2454 1.387 . S
C2455 C2457 1.387 . S
H2456 C2463 0.950 . S
C2457 C2455 1.387 . S
C2457 C2459 1.390 . S
C2457 H2461 0.950 . S
H2458 C2454 0.950 . S
C2459 C2457 1.390 . S
C2459 C2460 1.387 . S
C2459 H2462 0.950 . S
C2460 C2459 1.387 . S
C2460 C2463 1.387 . S
H2461 C2457 0.950 . S
H2462 C2459 0.950 . S
C2463 C2454 1.390 . S
C2463 H2456 0.950 . S
C2463 C2460 1.387 . S
C1505 C255 2.334 1_455 S
C1510 C877 2.344 . S
C1515 C147 2.104 . S
C1520 C928 2.152 . S
C1525 C184 1.696 . S
C1530 C957 1.743 . S
C1540 C1001 1.439 . S
C1535 C220 1.521 . S
C1545 C40 1.399 . S
C1550 C1041 1.317 . S
C1560 C1077 1.817 . S
C1555 C74 1.783 . S
C1570 C1127 2.041 . S
C1565 C110 2.015 . S
C1575 C14 2.495 . S
C1580 C1157 2.438 . S
C1590 C887 2.086 . S
C1585 C579 2.108 . S
C1595 C616 0.838 . S
C1600 C930 0.817 . S
C1610 C967 1.432 . S
C1605 C687 1.394 . S
C1620 C997 1.572 . S
C1615 C436 1.545 . S
C1625 C580 1.559 . S
C1630 C1037 1.582 . S
C1640 C1087 1.017 . S
C1635 C615 1.002 . S
C1650 C1121 1.020 . S
C1645 C688 1.083 . S
C1660 C1167 2.070 . S
C1655 C435 2.095 . S
C1670 C881 1.380 . S
C1665 C410 1.535 1_554 S
C1675 C722 1.819 . S
C1680 C1207 1.828 . S
C1690 C1241 1.533 . S
C1685 C842 1.625 . S
C1700 C1277 0.868 . S
C1695 C794 0.881 . S
C1705 C302 1.750 . S
C1710 C1161 1.575 . S
C1715 C338 1.665 . S
C1720 C961 1.554 . S
C1725 C830 1.747 . S
C1730 C1327 1.755 . S
C1740 C1346 0.469 . S
C1735 C758 0.492 . S
C1750 C888 2.352 . S
C1745 C158 2.210 . S
C1760 C1357 2.120 . S
C1755 C254 2.120 . S
C1765 C218 1.715 . S
C1770 C968 1.753 . S
C1775 C194 1.375 . S
C1780 C1330 1.434 . S
C1790 C1050 1.326 . S
C1785 C3 1.401 . S
C1795 C111 1.674 . S
C1800 C1248 1.652 . S
C1810 C1106 2.013 1_566 S
C1805 C76 1.962 . S
C1820 C1408 2.503 . S
C1815 C50 2.367 . S
C1830 C866 2.053 . S
C1825 C364 2.086 . S
C1840 C1361 0.847 . S
C1835 C795 0.874 . S
C1845 C292 1.402 . S
C1850 C946 1.400 . S
C1855 C723 1.509 . S
C1860 C1328 1.500 . S
C1865 C363 1.567 . S
C1870 C1048 1.555 . S
C1880 C1226 1.022 . S
C1875 C796 1.022 . S
C1885 C291 1.032 1_565 S
C1890 C1130 0.978 . S
C1895 C724 2.096 . S
C1900 C1386 2.066 . S
C1905 C482 1.336 . S
C1910 C890 1.440 . S
C1915 C434 1.768 . S
C1920 C1186 1.783 . S
C1925 C662 1.455 . S
C1930 C1090 1.528 . S
C1935 C614 0.887 . S
C1940 C1288 0.875 . S
C1950 C1410 1.566 1_545 S
C1945 C698 1.460 . S
C1955 C554 1.506 . S
C1960 C970 1.586 . S
C1970 C986 1.734 . S
C1965 C650 1.718 . S
C1980 C927 0.424 . S
C1975 C506 0.379 . S
C1985 C183 2.338 . S
C1990 C1437 2.349 . S
C2000 C1368 2.148 . S
C1995 C219 2.100 . S
C2005 C256 1.694 . S
C2010 C1477 1.728 . S
C2015 C148 1.519 1_655 S
C2020 C1321 1.435 . S
C2025 C122 1.421 . S
C2030 C1201 1.349 . S
C2040 C1237 1.751 . S
C2035 C2 1.720 . S
C2050 C1287 1.980 . S
C2045 C39 1.892 . S
C2060 C1397 2.493 . S
C2055 C86 2.549 . S
C2070 C1447 2.094 . S
C2065 C651 2.115 . S
C2075 C472 0.830 . S
C2080 C1370 0.814 . S
C2090 C1487 1.413 . S
C2085 C507 1.378 . S
C2100 C1317 1.575 . S
C2095 C544 1.548 . S
C2110 C1197 1.578 . S
C2105 C652 1.556 . S
C2115 C471 0.995 . S
C2120 C1247 1.009 . S
C2130 C1281 0.992 . S
C2125 C508 1.046 . S
C2135 C543 2.109 . S
C2140 C1407 2.084 . S
C2150 C1441 1.398 . S
C2145 C806 1.557 . S
C2155 C326 1.793 . S
C2160 C1047 1.800 . S
C2170 C1081 1.512 . S
C2165 C374 1.602 . S
C2180 C1117 0.891 . S
C2175 C398 0.904 . S
C2190 C1401 1.563 . S
C2185 C770 1.731 . S
C2195 C734 1.653 . S
C2200 C1481 1.544 . S
C2210 C1007 1.739 . S
C2205 C362 1.732 . S
C2220 C906 0.486 . S
C2215 C290 0.505 . S
C2225 C230 2.211 . S
C2230 C1448 2.351 . S
C2240 C917 2.125 . S
C2235 C182 2.125 . S
C2245 C146 1.714 . S
C2250 C1488 1.755 . S
C2255 C266 1.374 . S
C2260 C1010 1.434 . S
C2265 C75 1.419 . S
C2270 C1210 1.341 . S
C2280 C1088 1.807 . S
C2275 C38 1.776 . S
C2285 C4 1.916 . S
C2290 C1266 1.971 . S
C2295 C112 2.420 . S
C2300 C1168 2.399 . S
C2310 C1426 2.052 . S
C2305 C832 2.084 . S
C2315 C399 0.896 . S
C2320 C921 0.865 . S
C2330 C1466 1.402 1_655 S
C2325 C760 1.407 . S
C2335 C327 1.507 . S
C2340 C1008 1.498 . S
C2345 C831 1.588 . S
C2350 C1208 1.575 . S
C2360 C1066 1.032 . S
C2355 C400 1.038 . S
C2365 C759 1.083 . S
C2370 C1290 1.015 . S
C2380 C1146 2.067 . S
C2375 C328 2.095 . S
C2390 C1450 1.444 . S
C2385 C626 1.339 . S
C2400 C1026 1.797 1_565 S
C2395 C542 1.785 . S
C2405 C590 1.430 . S
C2410 C1250 1.504 . S
C2420 C1128 0.883 . S
C2415 C470 0.889 . S
C2425 C518 1.434 . S
C2430 C1170 1.543 . S
C2435 C446 1.504 . S
C2440 C1490 1.582 . S
C2450 C1306 1.750 . S
C2445 C578 1.736 . S
C2460 C1367 0.402 . S
C2455 C686 0.361 . S
