# Generated by pormake.
# Topology gar, (4,6)-cn, num edge types: 1
# Building blocks:
#     Node 0, Type 0, BuildingBlock: CEKHIL_clean_sbu_0, # of connection points: 4
#     Node 1, Type 0, BuildingBlock: CEKHIL_clean_sbu_0, # of connection points: 4
#     Node 2, Type 0, BuildingBlock: CEKHIL_clean_sbu_0, # of connection points: 4
#     Node 3, Type 0, BuildingBlock: CEKHIL_clean_sbu_0, # of connection points: 4
#     Node 4, Type 0, BuildingBlock: CEKHIL_clean_sbu_0, # of connection points: 4
#     Node 5, Type 0, BuildingBlock: CEKHIL_clean_sbu_0, # of connection points: 4
#     Node 6, Type 0, BuildingBlock: CEKHIL_clean_sbu_0, # of connection points: 4
#     Node 7, Type 0, BuildingBlock: CEKHIL_clean_sbu_0, # of connection points: 4
#     Node 8, Type 0, BuildingBlock: CEKHIL_clean_sbu_0, # of connection points: 4
#     Node 9, Type 0, BuildingBlock: CEKHIL_clean_sbu_0, # of connection points: 4
#     Node 10, Type 0, BuildingBlock: CEKHIL_clean_sbu_0, # of connection points: 4
#     Node 11, Type 0, BuildingBlock: CEKHIL_clean_sbu_0, # of connection points: 4
#     Node 12, Type 0, BuildingBlock: CEKHIL_clean_sbu_0, # of connection points: 4
#     Node 13, Type 0, BuildingBlock: CEKHIL_clean_sbu_0, # of connection points: 4
#     Node 14, Type 0, BuildingBlock: CEKHIL_clean_sbu_0, # of connection points: 4
#     Node 15, Type 0, BuildingBlock: CEKHIL_clean_sbu_0, # of connection points: 4
#     Node 16, Type 0, BuildingBlock: CEKHIL_clean_sbu_0, # of connection points: 4
#     Node 17, Type 0, BuildingBlock: CEKHIL_clean_sbu_0, # of connection points: 4
#     Node 18, Type 0, BuildingBlock: CEKHIL_clean_sbu_0, # of connection points: 4
#     Node 19, Type 0, BuildingBlock: CEKHIL_clean_sbu_0, # of connection points: 4
#     Node 20, Type 0, BuildingBlock: CEKHIL_clean_sbu_0, # of connection points: 4
#     Node 21, Type 0, BuildingBlock: CEKHIL_clean_sbu_0, # of connection points: 4
#     Node 22, Type 0, BuildingBlock: CEKHIL_clean_sbu_0, # of connection points: 4
#     Node 23, Type 0, BuildingBlock: CEKHIL_clean_sbu_0, # of connection points: 4
#     Node 24, Type 1, BuildingBlock: CUKXOW_clean_sbu_0, # of connection points: 6
#     Node 25, Type 1, BuildingBlock: CUKXOW_clean_sbu_0, # of connection points: 6
#     Node 26, Type 1, BuildingBlock: CUKXOW_clean_sbu_0, # of connection points: 6
#     Node 27, Type 1, BuildingBlock: CUKXOW_clean_sbu_0, # of connection points: 6
#     Node 28, Type 1, BuildingBlock: CUKXOW_clean_sbu_0, # of connection points: 6
#     Node 29, Type 1, BuildingBlock: CUKXOW_clean_sbu_0, # of connection points: 6
#     Node 30, Type 1, BuildingBlock: CUKXOW_clean_sbu_0, # of connection points: 6
#     Node 31, Type 1, BuildingBlock: CUKXOW_clean_sbu_0, # of connection points: 6
#     Node 32, Type 1, BuildingBlock: CUKXOW_clean_sbu_0, # of connection points: 6
#     Node 33, Type 1, BuildingBlock: CUKXOW_clean_sbu_0, # of connection points: 6
#     Node 34, Type 1, BuildingBlock: CUKXOW_clean_sbu_0, # of connection points: 6
#     Node 35, Type 1, BuildingBlock: CUKXOW_clean_sbu_0, # of connection points: 6
#     Node 36, Type 1, BuildingBlock: CUKXOW_clean_sbu_0, # of connection points: 6
#     Node 37, Type 1, BuildingBlock: CUKXOW_clean_sbu_0, # of connection points: 6
#     Node 38, Type 1, BuildingBlock: CUKXOW_clean_sbu_0, # of connection points: 6
#     Node 39, Type 1, BuildingBlock: CUKXOW_clean_sbu_0, # of connection points: 6
#     Edge 40, Type (0, 1), BuildingBlock: ZUJKAS_clean_linker_0, # of connection points: 2
#     Edge 41, Type (0, 1), BuildingBlock: ZUJKAS_clean_linker_0, # of connection points: 2
#     Edge 42, Type (0, 1), BuildingBlock: ZUJKAS_clean_linker_0, # of connection points: 2
#     Edge 43, Type (0, 1), BuildingBlock: ZUJKAS_clean_linker_0, # of connection points: 2
#     Edge 44, Type (0, 1), BuildingBlock: ZUJKAS_clean_linker_0, # of connection points: 2
#     Edge 45, Type (0, 1), BuildingBlock: ZUJKAS_clean_linker_0, # of connection points: 2
#     Edge 46, Type (0, 1), BuildingBlock: ZUJKAS_clean_linker_0, # of connection points: 2
#     Edge 47, Type (0, 1), BuildingBlock: ZUJKAS_clean_linker_0, # of connection points: 2
#     Edge 48, Type (0, 1), BuildingBlock: ZUJKAS_clean_linker_0, # of connection points: 2
#     Edge 49, Type (0, 1), BuildingBlock: ZUJKAS_clean_linker_0, # of connection points: 2
#     Edge 50, Type (0, 1), BuildingBlock: ZUJKAS_clean_linker_0, # of connection points: 2
#     Edge 51, Type (0, 1), BuildingBlock: ZUJKAS_clean_linker_0, # of connection points: 2
#     Edge 52, Type (0, 1), BuildingBlock: ZUJKAS_clean_linker_0, # of connection points: 2
#     Edge 53, Type (0, 1), BuildingBlock: ZUJKAS_clean_linker_0, # of connection points: 2
#     Edge 54, Type (0, 1), BuildingBlock: ZUJKAS_clean_linker_0, # of connection points: 2
#     Edge 55, Type (0, 1), BuildingBlock: ZUJKAS_clean_linker_0, # of connection points: 2
#     Edge 56, Type (0, 1), BuildingBlock: ZUJKAS_clean_linker_0, # of connection points: 2
#     Edge 57, Type (0, 1), BuildingBlock: ZUJKAS_clean_linker_0, # of connection points: 2
#     Edge 58, Type (0, 1), BuildingBlock: ZUJKAS_clean_linker_0, # of connection points: 2
#     Edge 59, Type (0, 1), BuildingBlock: ZUJKAS_clean_linker_0, # of connection points: 2
#     Edge 60, Type (0, 1), BuildingBlock: ZUJKAS_clean_linker_0, # of connection points: 2
#     Edge 61, Type (0, 1), BuildingBlock: ZUJKAS_clean_linker_0, # of connection points: 2
#     Edge 62, Type (0, 1), BuildingBlock: ZUJKAS_clean_linker_0, # of connection points: 2
#     Edge 63, Type (0, 1), BuildingBlock: ZUJKAS_clean_linker_0, # of connection points: 2
#     Edge 64, Type (0, 1), BuildingBlock: ZUJKAS_clean_linker_0, # of connection points: 2
#     Edge 65, Type (0, 1), BuildingBlock: ZUJKAS_clean_linker_0, # of connection points: 2
#     Edge 66, Type (0, 1), BuildingBlock: ZUJKAS_clean_linker_0, # of connection points: 2
#     Edge 67, Type (0, 1), BuildingBlock: ZUJKAS_clean_linker_0, # of connection points: 2
#     Edge 68, Type (0, 1), BuildingBlock: ZUJKAS_clean_linker_0, # of connection points: 2
#     Edge 69, Type (0, 1), BuildingBlock: ZUJKAS_clean_linker_0, # of connection points: 2
#     Edge 70, Type (0, 1), BuildingBlock: ZUJKAS_clean_linker_0, # of connection points: 2
#     Edge 71, Type (0, 1), BuildingBlock: ZUJKAS_clean_linker_0, # of connection points: 2
#     Edge 72, Type (0, 1), BuildingBlock: ZUJKAS_clean_linker_0, # of connection points: 2
#     Edge 73, Type (0, 1), BuildingBlock: ZUJKAS_clean_linker_0, # of connection points: 2
#     Edge 74, Type (0, 1), BuildingBlock: ZUJKAS_clean_linker_0, # of connection points: 2
#     Edge 75, Type (0, 1), BuildingBlock: ZUJKAS_clean_linker_0, # of connection points: 2
#     Edge 76, Type (0, 1), BuildingBlock: ZUJKAS_clean_linker_0, # of connection points: 2
#     Edge 77, Type (0, 1), BuildingBlock: ZUJKAS_clean_linker_0, # of connection points: 2
#     Edge 78, Type (0, 1), BuildingBlock: ZUJKAS_clean_linker_0, # of connection points: 2
#     Edge 79, Type (0, 1), BuildingBlock: ZUJKAS_clean_linker_0, # of connection points: 2
#     Edge 80, Type (0, 1), BuildingBlock: ZUJKAS_clean_linker_0, # of connection points: 2
#     Edge 81, Type (0, 1), BuildingBlock: ZUJKAS_clean_linker_0, # of connection points: 2
#     Edge 82, Type (0, 1), BuildingBlock: ZUJKAS_clean_linker_0, # of connection points: 2
#     Edge 83, Type (0, 1), BuildingBlock: ZUJKAS_clean_linker_0, # of connection points: 2
#     Edge 84, Type (0, 1), BuildingBlock: ZUJKAS_clean_linker_0, # of connection points: 2
#     Edge 85, Type (0, 1), BuildingBlock: ZUJKAS_clean_linker_0, # of connection points: 2
#     Edge 86, Type (0, 1), BuildingBlock: ZUJKAS_clean_linker_0, # of connection points: 2
#     Edge 87, Type (0, 1), BuildingBlock: ZUJKAS_clean_linker_0, # of connection points: 2
#     Edge 88, Type (0, 1), BuildingBlock: ZUJKAS_clean_linker_0, # of connection points: 2
#     Edge 89, Type (0, 1), BuildingBlock: ZUJKAS_clean_linker_0, # of connection points: 2
#     Edge 90, Type (0, 1), BuildingBlock: ZUJKAS_clean_linker_0, # of connection points: 2
#     Edge 91, Type (0, 1), BuildingBlock: ZUJKAS_clean_linker_0, # of connection points: 2
#     Edge 92, Type (0, 1), BuildingBlock: ZUJKAS_clean_linker_0, # of connection points: 2
#     Edge 93, Type (0, 1), BuildingBlock: ZUJKAS_clean_linker_0, # of connection points: 2
#     Edge 94, Type (0, 1), BuildingBlock: ZUJKAS_clean_linker_0, # of connection points: 2
#     Edge 95, Type (0, 1), BuildingBlock: ZUJKAS_clean_linker_0, # of connection points: 2
#     Edge 96, Type (0, 1), BuildingBlock: ZUJKAS_clean_linker_0, # of connection points: 2
#     Edge 97, Type (0, 1), BuildingBlock: ZUJKAS_clean_linker_0, # of connection points: 2
#     Edge 98, Type (0, 1), BuildingBlock: ZUJKAS_clean_linker_0, # of connection points: 2
#     Edge 99, Type (0, 1), BuildingBlock: ZUJKAS_clean_linker_0, # of connection points: 2
#     Edge 100, Type (0, 1), BuildingBlock: ZUJKAS_clean_linker_0, # of connection points: 2
#     Edge 101, Type (0, 1), BuildingBlock: ZUJKAS_clean_linker_0, # of connection points: 2
#     Edge 102, Type (0, 1), BuildingBlock: ZUJKAS_clean_linker_0, # of connection points: 2
#     Edge 103, Type (0, 1), BuildingBlock: ZUJKAS_clean_linker_0, # of connection points: 2
#     Edge 104, Type (0, 1), BuildingBlock: ZUJKAS_clean_linker_0, # of connection points: 2
#     Edge 105, Type (0, 1), BuildingBlock: ZUJKAS_clean_linker_0, # of connection points: 2
#     Edge 106, Type (0, 1), BuildingBlock: ZUJKAS_clean_linker_0, # of connection points: 2
#     Edge 107, Type (0, 1), BuildingBlock: ZUJKAS_clean_linker_0, # of connection points: 2
#     Edge 108, Type (0, 1), BuildingBlock: ZUJKAS_clean_linker_0, # of connection points: 2
#     Edge 109, Type (0, 1), BuildingBlock: ZUJKAS_clean_linker_0, # of connection points: 2
#     Edge 110, Type (0, 1), BuildingBlock: ZUJKAS_clean_linker_0, # of connection points: 2
#     Edge 111, Type (0, 1), BuildingBlock: ZUJKAS_clean_linker_0, # of connection points: 2
#     Edge 112, Type (0, 1), BuildingBlock: ZUJKAS_clean_linker_0, # of connection points: 2
#     Edge 113, Type (0, 1), BuildingBlock: ZUJKAS_clean_linker_0, # of connection points: 2
#     Edge 114, Type (0, 1), BuildingBlock: ZUJKAS_clean_linker_0, # of connection points: 2
#     Edge 115, Type (0, 1), BuildingBlock: ZUJKAS_clean_linker_0, # of connection points: 2
#     Edge 116, Type (0, 1), BuildingBlock: ZUJKAS_clean_linker_0, # of connection points: 2
#     Edge 117, Type (0, 1), BuildingBlock: ZUJKAS_clean_linker_0, # of connection points: 2
#     Edge 118, Type (0, 1), BuildingBlock: ZUJKAS_clean_linker_0, # of connection points: 2
#     Edge 119, Type (0, 1), BuildingBlock: ZUJKAS_clean_linker_0, # of connection points: 2
#     Edge 120, Type (0, 1), BuildingBlock: ZUJKAS_clean_linker_0, # of connection points: 2
#     Edge 121, Type (0, 1), BuildingBlock: ZUJKAS_clean_linker_0, # of connection points: 2
#     Edge 122, Type (0, 1), BuildingBlock: ZUJKAS_clean_linker_0, # of connection points: 2
#     Edge 123, Type (0, 1), BuildingBlock: ZUJKAS_clean_linker_0, # of connection points: 2
#     Edge 124, Type (0, 1), BuildingBlock: ZUJKAS_clean_linker_0, # of connection points: 2
#     Edge 125, Type (0, 1), BuildingBlock: ZUJKAS_clean_linker_0, # of connection points: 2
#     Edge 126, Type (0, 1), BuildingBlock: ZUJKAS_clean_linker_0, # of connection points: 2
#     Edge 127, Type (0, 1), BuildingBlock: ZUJKAS_clean_linker_0, # of connection points: 2
#     Edge 128, Type (0, 1), BuildingBlock: ZUJKAS_clean_linker_0, # of connection points: 2
#     Edge 129, Type (0, 1), BuildingBlock: ZUJKAS_clean_linker_0, # of connection points: 2
#     Edge 130, Type (0, 1), BuildingBlock: ZUJKAS_clean_linker_0, # of connection points: 2
#     Edge 131, Type (0, 1), BuildingBlock: ZUJKAS_clean_linker_0, # of connection points: 2
#     Edge 132, Type (0, 1), BuildingBlock: ZUJKAS_clean_linker_0, # of connection points: 2
#     Edge 133, Type (0, 1), BuildingBlock: ZUJKAS_clean_linker_0, # of connection points: 2
#     Edge 134, Type (0, 1), BuildingBlock: ZUJKAS_clean_linker_0, # of connection points: 2
#     Edge 135, Type (0, 1), BuildingBlock: ZUJKAS_clean_linker_0, # of connection points: 2
# Relax obj value: 0.103
# Max RMSD: 0.219
# Mean RMSD: 0.119
data_MOF--net-gar--node1-CEKHIL_clean_sbu_0--node2-CUKXOW_clean_sbu_0--edge1-ZUJKAS_clean_linker_0
_symmetry_space_group_name_H-M    P1
_symmetry_Int_Tables_number       1
_symmetry_cell_setting            triclinic
loop_
_symmetry_equiv_pos_as_xyz
'x, y, z'
_cell_length_a     71.484597
_cell_length_b     69.173881
_cell_length_c     68.854766
_cell_angle_alpha  93.510021
_cell_angle_beta   95.457311
_cell_angle_gamma 99.06551
loop_
_atom_site_label
_atom_site_type_symbol
_atom_site_fract_x
_atom_site_fract_y
_atom_site_fract_z
_atom_type_partial_charge
Co0 Co 0.03174 0.27892 0.41126 0.0
O1 O 0.05718 0.27315 0.41077 0.0
O2 O 0.03378 0.26534 0.38664 0.0
C3 C 0.04029 0.31019 0.4234 0.0
O4 O 1.00448 0.28294 0.40527 0.0
Co5 Co 0.01439 0.29105 0.44873 0.0
O6 O 0.99273 0.2966 0.43081 0.0
C7 C 0.0193 0.24981 0.44026 0.0
C8 C 0.05148 0.26546 0.39307 0.0
C9 C 0.99133 0.29054 0.41281 0.0
O10 O 0.02351 0.25346 0.42297 0.0
O11 O 0.01681 0.2631 0.4531 0.0
O12 O 0.04026 0.30569 0.40479 0.0
O13 O 0.03643 0.29572 0.43413 0.0
Co14 Co 0.99659 0.79703 0.62451 0.0
O15 O 0.96916 0.79265 0.62307 0.0
O16 O 0.98882 0.78771 0.64856 0.0
C17 C 0.99971 0.82632 0.6119 0.0
O18 O 0.02491 0.8006 0.63256 0.0
Co19 Co 0.01991 0.80208 0.58888 0.0
O20 O 0.04255 0.80974 0.60847 0.0
C21 C 0.99883 0.76315 0.59582 0.0
C22 C 0.97148 0.78753 0.64091 0.0
C23 C 0.04102 0.80643 0.62629 0.0
O24 O 0.9961 0.76948 0.61312 0.0
O25 O 0.00642 0.77429 0.58352 0.0
O26 O 0.99721 0.82515 0.63029 0.0
O27 O 0.99898 0.80992 0.60171 0.0
Co28 Co 0.53544 0.7782 0.9135 0.0
O29 O 0.56109 0.77261 0.91359 0.0
O30 O 0.538 0.76437 0.88923 0.0
C31 C 0.54323 0.80966 0.92559 0.0
O32 O 0.50821 0.7819 0.90668 0.0
Co33 Co 0.51678 0.79031 0.95019 0.0
O34 O 0.49577 0.79602 0.93147 0.0
C35 C 0.52301 0.74936 0.94273 0.0
C36 C 0.55559 0.7645 0.89598 0.0
C37 C 0.49486 0.7897 0.91358 0.0
O38 O 0.52716 0.75281 0.92536 0.0
O39 O 0.52011 0.76273 0.95527 0.0
O40 O 0.544 0.80507 0.9071 0.0
O41 O 0.53924 0.79515 0.93622 0.0
Co42 Co 0.49395 0.2964 0.11947 0.0
O43 O 0.46662 0.29273 0.11883 0.0
O44 O 0.48654 0.28594 0.14324 0.0
C45 C 0.49762 0.32658 0.10865 0.0
O46 O 0.52235 0.2989 0.12655 0.0
Co47 Co 0.51595 0.30253 0.08309 0.0
O48 O 0.53933 0.30807 0.10195 0.0
C49 C 0.4949 0.26335 0.08902 0.0
C50 C 0.46916 0.28657 0.13622 0.0
C51 C 0.53827 0.30425 0.11972 0.0
O52 O 0.49245 0.26921 0.10656 0.0
O53 O 0.50236 0.27486 0.07695 0.0
O54 O 0.4956 0.32435 0.127 0.0
O55 O 0.49603 0.31065 0.09741 0.0
Co56 Co 0.99326 0.77449 0.15893 0.0
O57 O 0.96572 0.7695 0.15477 0.0
O58 O 0.98251 0.76568 0.18243 0.0
C59 C 0.9964 0.80384 0.1456 0.0
O60 O 0.02176 0.77911 0.16927 0.0
Co61 Co 0.0182 0.77978 0.12417 0.0
O62 O 0.03952 0.78789 0.14494 0.0
C63 C 1.00131 0.73982 0.13332 0.0
C64 C 0.96583 0.76533 0.17289 0.0
C65 C 0.03798 0.78487 0.16283 0.0
O66 O 0.99453 0.74654 0.14862 0.0
O67 O 0.00997 0.75071 0.1215 0.0
O68 O 0.99265 0.80267 0.16362 0.0
O69 O 0.99685 0.78736 0.13602 0.0
Co70 Co 0.53429 0.80103 0.37392 0.0
O71 O 0.56185 0.80489 0.37653 0.0
O72 O 0.54357 0.79074 0.35029 0.0
C73 C 0.53213 0.83176 0.3862 0.0
O74 O 0.50536 0.7953 0.36543 0.0
Co75 Co 0.51219 0.80477 0.41057 0.0
O76 O 0.48965 0.80265 0.39101 0.0
C77 C 0.53142 0.77057 0.40375 0.0
C78 C 0.56071 0.79664 0.35894 0.0
C79 C 0.48981 0.79734 0.37297 0.0
O80 O 0.53356 0.77483 0.386 0.0
O81 O 0.52519 0.78184 0.41617 0.0
O82 O 0.53474 0.82866 0.36789 0.0
O83 O 0.53229 0.81679 0.39634 0.0
Co84 Co 0.48989 0.27601 0.65793 0.0
O85 O 0.46237 0.27247 0.65383 0.0
O86 O 0.47873 0.26591 0.68075 0.0
C87 C 0.49458 0.30629 0.64668 0.0
O88 O 0.51828 0.2788 0.66807 0.0
Co89 Co 0.51488 0.28215 0.62337 0.0
O90 O 0.53604 0.28995 0.64454 0.0
C91 C 0.49308 0.24301 0.62807 0.0
C92 C 0.46222 0.2669 0.67148 0.0
C93 C 0.53446 0.28562 0.66211 0.0
O94 O 0.48977 0.24854 0.6455 0.0
O95 O 0.50097 0.25476 0.61645 0.0
O96 O 0.49063 0.30423 0.66455 0.0
O97 O 0.49422 0.29021 0.63611 0.0
Co98 Co 0.02988 0.29684 0.87289 0.0
O99 O 0.05735 0.29879 0.87634 0.0
O100 O 0.03925 0.28752 0.84899 0.0
C101 C 0.0294 0.32723 0.88712 0.0
O102 O 1.00127 0.29323 0.86321 0.0
Co103 Co 0.00571 0.30025 0.90796 0.0
O104 O 0.98516 0.30305 0.88748 0.0
C105 C 0.02077 0.26342 0.89889 0.0
C106 C 0.05628 0.29179 0.85827 0.0
C107 C 0.98586 0.29743 0.86964 0.0
O108 O 0.02692 0.26967 0.88299 0.0
O109 O 0.01326 0.2739 0.91097 0.0
O110 O 0.03242 0.32509 0.86883 0.0
O111 O 0.0279 0.31143 0.89616 0.0
Co112 Co 0.40119 0.07572 0.25689 0.0
O113 O 0.40368 0.10408 0.25598 0.0
O114 O 0.37791 0.08299 0.2448 0.0
C115 C 0.41373 0.0761 0.28868 0.0
O116 O 0.39194 0.04611 0.25627 0.0
Co117 Co 0.43522 0.05348 0.26536 0.0
O118 O 0.4152 0.03125 0.2697 0.0
C119 C 0.42801 0.06815 0.22619 0.0
C120 C 0.38604 0.1012 0.24828 0.0
C121 C 0.39787 0.03097 0.26311 0.0
O122 O 0.41191 0.07273 0.23047 0.0
O123 O 0.43973 0.06201 0.23868 0.0
O124 O 0.3961 0.07826 0.28447 0.0
O125 O 0.42342 0.07536 0.27387 0.0
Co126 Co 0.27972 0.14604 0.48805 0.0
O127 O 0.30641 0.14622 0.49563 0.0
O128 O 0.28299 0.12263 0.5008 0.0
C129 C 0.28299 0.15556 0.45774 0.0
O130 O 0.25093 0.13989 0.48208 0.0
Co131 Co 0.26299 0.18316 0.47677 0.0
O132 O 0.23872 0.16486 0.46931 0.0
C133 C 0.27586 0.17848 0.51806 0.0
C134 C 0.30113 0.1294 0.5026 0.0
C135 C 0.23683 0.14733 0.4744 0.0
O136 O 0.27755 0.1605 0.51377 0.0
O137 O 0.27183 0.1902 0.50518 0.0
O138 O 0.2827 0.1372 0.46106 0.0
O139 O 0.28261 0.1674 0.47282 0.0
Co140 Co 0.15003 1.00083 0.79716 0.0
O141 O 0.14859 0.97258 0.79438 0.0
O142 O 0.17367 0.9941 0.78946 0.0
C143 C 0.13706 1.00181 0.82596 0.0
O144 O 0.15763 0.03076 0.799 0.0
Co145 Co 0.11433 0.02122 0.79895 0.0
O146 O 0.13285 0.04592 0.80454 0.0
C147 C 0.12202 1.00184 0.76175 0.0
C148 C 0.16598 0.97582 0.78982 0.0
C149 C 0.15043 0.04645 0.80236 0.0
O150 O 0.13912 1.00069 0.76891 0.0
O151 O 0.10958 0.0075 0.77203 0.0
O152 O 0.15504 1.00063 0.82582 0.0
O153 O 0.12759 1.0011 0.80901 0.0
Co154 Co 0.22281 0.89732 0.02201 0.0
O155 O 0.19534 0.89573 0.02167 0.0
O156 O 0.21629 0.92175 0.033 0.0
C157 C 0.22229 0.88426 0.9906 0.0
O158 O 0.25184 0.90565 0.02361 0.0
Co159 Co 0.2424 0.86075 0.01579 0.0
O160 O 0.26529 0.88028 0.01296 0.0
C161 C 0.22832 0.86913 0.05403 0.0
C162 C 0.19849 0.91384 0.029 0.0
C163 C 0.26637 0.89839 0.01848 0.0
O164 O 0.22484 0.88607 0.04896 0.0
O165 O 0.23362 0.85656 0.04219 0.0
O166 O 0.22107 0.90267 0.99413 0.0
O167 O 0.22227 0.87421 0.00576 0.0
Co168 Co 0.257 0.41948 0.03628 0.0
O169 O 0.23026 0.41708 0.02818 0.0
O170 O 0.24855 0.44425 0.04203 0.0
C171 C 0.26398 0.40448 0.00867 0.0
O172 O 0.28534 0.42783 0.04524 0.0
Co173 Co 0.27651 0.38246 0.04061 0.0
O174 O 0.30031 0.40162 0.04264 0.0
C175 C 0.25365 0.39493 0.07121 0.0
C176 C 0.2319 0.43551 0.03405 0.0
C177 C 0.30057 0.42 0.04576 0.0
O178 O 0.25138 0.41065 0.06285 0.0
O179 O 0.26216 0.38161 0.06411 0.0
O180 O 0.26242 0.42297 0.00937 0.0
O181 O 0.2599 0.39547 0.02396 0.0
Co182 Co 0.80341 0.16373 1.00166 0.0
O183 O 0.83103 0.16576 0.003 0.0
O184 O 0.81156 0.13915 0.00846 0.0
C185 C 0.79961 0.17795 0.97264 0.0
O186 O 0.77449 0.15511 1.00094 0.0
Co187 Co 0.78298 0.20024 1.00139 0.0
O188 O 0.75919 0.18073 0.99632 0.0
C189 C 0.80257 0.19056 0.03844 0.0
C190 C 0.82894 0.14749 0.00702 0.0
C191 C 0.75902 0.16248 0.9982 0.0
O192 O 0.80496 0.17381 0.03047 0.0
O193 O 0.79605 0.20372 0.02875 0.0
O194 O 0.80137 0.15954 0.97282 0.0
O195 O 0.80163 0.18729 0.98968 0.0
Co196 Co 0.12392 0.48805 0.28501 0.0
O197 O 0.12081 0.45948 0.28432 0.0
O198 O 0.14659 0.47872 0.27748 0.0
C199 C 0.11202 0.49238 0.31436 0.0
O200 O 0.13388 0.51746 0.28492 0.0
Co201 Co 0.0912 0.51249 0.28659 0.0
O202 O 0.1117 0.53574 0.29166 0.0
C203 C 0.09623 0.49099 0.24927 0.0
C204 C 0.13815 0.46105 0.2796 0.0
C205 C 0.12871 0.53422 0.28851 0.0
O206 O 0.11243 0.48697 0.25654 0.0
O207 O 0.08522 0.49926 0.2595 0.0
O208 O 0.12959 0.48977 0.31378 0.0
O209 O 0.10216 0.49122 0.29755 0.0
Co210 Co 0.74951 0.91892 0.53331 0.0
O211 O 0.72262 0.91925 0.52977 0.0
O212 O 0.74439 0.94407 0.54323 0.0
C213 C 0.7512 0.90579 0.50306 0.0
O214 O 0.7785 0.92442 0.53845 0.0
Co215 Co 0.76589 0.87986 0.52977 0.0
O216 O 0.79068 0.89738 0.53017 0.0
C217 C 0.74496 0.88932 0.56318 0.0
C218 C 0.7266 0.93723 0.53741 0.0
C219 C 0.7927 0.91564 0.53544 0.0
O220 O 0.74665 0.90746 0.55931 0.0
O221 O 0.74999 0.87598 0.55205 0.0
O222 O 0.75152 0.92459 0.50601 0.0
O223 O 0.74865 0.89572 0.51798 0.0
Co224 Co 0.87291 0.05878 0.24296 0.0
O225 O 0.87566 0.08706 0.2456 0.0
O226 O 0.84903 0.06722 0.23429 0.0
C227 C 0.88746 0.05604 0.27301 0.0
O228 O 0.86419 0.02885 0.23927 0.0
Co229 Co 0.90828 0.03751 0.24506 0.0
O230 O 0.88932 0.01374 0.24674 0.0
C231 C 0.89768 0.05695 0.20959 0.0
C232 C 0.85773 0.08507 0.23926 0.0
C233 C 0.87151 0.01324 0.24239 0.0
O234 O 0.88179 0.05985 0.2158 0.0
O235 O 0.91048 0.04969 0.21963 0.0
O236 O 0.8696 0.05794 0.27083 0.0
O237 O 0.8961 0.05728 0.25742 0.0
Co238 Co 0.30181 0.66285 0.50345 0.0
O239 O 0.32954 0.66594 0.50633 0.0
O240 O 0.31044 0.63868 0.51068 0.0
C241 C 0.29933 0.67712 0.47435 0.0
O242 O 0.27295 0.65294 0.50109 0.0
Co243 Co 0.27902 0.69752 0.50067 0.0
O244 O 0.25657 0.67688 0.4928 0.0
C245 C 0.29474 0.6874 0.53974 0.0
C246 C 0.32777 0.64757 0.51001 0.0
C247 C 0.25716 0.65904 0.49604 0.0
O248 O 0.30138 0.67263 0.53209 0.0
O249 O 0.28665 0.69923 0.52952 0.0
O250 O 0.30155 0.65886 0.47478 0.0
O251 O 0.29984 0.68634 0.49128 0.0
Co252 Co 0.37368 0.55759 0.74425 0.0
O253 O 0.37725 0.58595 0.7459 0.0
O254 O 0.35014 0.56655 0.73535 0.0
C255 C 0.38838 0.5557 0.77444 0.0
O256 O 0.36395 0.52779 0.74161 0.0
Co257 Co 0.40763 0.53445 0.74735 0.0
O258 O 0.38794 0.51223 0.75191 0.0
C259 C 0.3973 0.55197 0.71041 0.0
C260 C 0.3593 0.58431 0.73974 0.0
C261 C 0.37034 0.51218 0.74674 0.0
O262 O 0.38238 0.55723 0.71696 0.0
O263 O 0.40931 0.54375 0.72056 0.0
O264 O 0.37063 0.55799 0.77223 0.0
O265 O 0.39682 0.55582 0.7587 0.0
Co266 Co 0.62314 0.98873 0.78452 0.0
O267 O 0.62063 0.96023 0.78389 0.0
O268 O 0.64589 0.98 0.77657 0.0
C269 C 0.61176 0.99298 0.81412 0.0
O270 O 0.63246 0.01818 0.78432 0.0
Co271 Co 0.58983 0.01234 0.78654 0.0
O272 O 0.60998 0.03593 0.79139 0.0
C273 C 0.59493 0.99127 0.74903 0.0
C274 C 0.63789 0.96222 0.77888 0.0
C275 C 0.627 0.03476 0.78803 0.0
O276 O 0.61124 0.98746 0.75619 0.0
O277 O 0.58382 0.99928 0.75937 0.0
O278 O 0.62935 0.9906 0.81319 0.0
O279 O 0.60153 0.99151 0.79748 0.0
Co280 Co 0.78111 0.64768 0.98636 0.0
O281 O 0.80729 0.64843 0.99643 0.0
O282 O 0.78307 0.62617 0.00248 0.0
C283 C 0.78669 0.65282 0.95555 0.0
O284 O 0.75263 0.6413 0.97829 0.0
Co285 Co 0.76616 0.68331 0.96859 0.0
O286 O 0.74135 0.66552 0.96293 0.0
C287 C 0.77591 0.68365 0.01123 0.0
C288 C 0.80128 0.63267 0.00489 0.0
C289 C 0.73904 0.64848 0.96926 0.0
O290 O 0.77733 0.6653 0.00954 0.0
O291 O 0.77332 0.69374 0.99654 0.0
O292 O 0.78577 0.63521 0.96138 0.0
O293 O 0.78559 0.66666 0.96857 0.0
Co294 Co 0.90053 0.57588 0.75729 0.0
O295 O 0.90339 0.60417 0.75529 0.0
O296 O 0.87728 0.58311 0.74522 0.0
C297 C 0.91343 0.57729 0.78907 0.0
O298 O 0.89061 0.54655 0.75786 0.0
Co299 Co 0.9336 0.55265 0.76672 0.0
O300 O 0.9132 0.53111 0.77166 0.0
C301 C 0.92595 0.56479 0.72635 0.0
C302 C 0.88559 0.60129 0.74806 0.0
C303 C 0.89598 0.53131 0.76507 0.0
O304 O 0.9108 0.57149 0.73076 0.0
O305 O 0.93717 0.55826 0.73904 0.0
O306 O 0.89588 0.5797 0.78488 0.0
O307 O 0.92289 0.57561 0.77418 0.0
Co308 Co 0.72015 0.39759 0.51911 0.0
O309 O 0.69265 0.39589 0.51898 0.0
O310 O 0.71363 0.42196 0.53012 0.0
C311 C 0.71967 0.38443 0.48773 0.0
O312 O 0.74912 0.40618 0.52051 0.0
Co313 Co 0.74023 0.36132 0.51297 0.0
O314 O 0.76267 0.38113 0.5093 0.0
C315 C 0.72587 0.36947 0.5511 0.0
C316 C 0.69583 0.41402 0.52629 0.0
C317 C 0.76361 0.3992 0.5149 0.0
O318 O 0.72244 0.38645 0.54609 0.0
O319 O 0.73123 0.35694 0.53926 0.0
O320 O 0.71811 0.40276 0.49117 0.0
O321 O 0.71986 0.37449 0.50296 0.0
Co322 Co 0.6507 0.50286 0.29857 0.0
O323 O 0.64873 0.47456 0.2956 0.0
O324 O 0.67422 0.49573 0.29101 0.0
C325 C 0.63753 0.50386 0.32723 0.0
O326 O 0.65888 0.5327 0.3006 0.0
Co327 Co 0.61565 0.52418 0.30028 0.0
O328 O 0.63459 0.54852 0.30629 0.0
C329 C 0.62328 0.50496 0.2629 0.0
C330 C 0.66618 0.47754 0.29117 0.0
C331 C 0.65211 0.54862 0.30409 0.0
O332 O 0.6401 0.50302 0.27028 0.0
O333 O 0.61101 0.51116 0.27306 0.0
O334 O 0.65545 0.50239 0.32719 0.0
O335 O 0.6282 0.5035 0.31025 0.0
Tb336 Tb 0.02149 0.05386 0.01144 0.0
C337 C 0.02307 0.01712 0.98343 0.0
Tb338 Tb 0.01083 0.01329 0.02639 0.0
O339 O 0.05056 0.04853 0.00862 0.0
O340 O 0.03526 0.03533 0.02982 0.0
O341 O 0.02005 0.03557 0.98441 0.0
C342 C 0.0105 0.97815 0.04052 0.0
O343 O 0.02143 0.00601 0.99845 0.0
C344 C 0.98168 0.03115 0.01642 0.0
C345 C 0.0088 0.0502 0.05419 0.0
O346 O 0.02383 0.99324 0.04476 0.0
O347 O 0.99737 0.98274 0.02809 0.0
O348 O 0.98167 0.01815 0.02923 0.0
O349 O 0.99692 0.03188 0.00825 0.0
O350 O 0.01178 0.0317 0.05333 0.0
O351 O 0.01067 0.0613 0.03917 0.0
C352 C 0.02281 0.08876 0.99661 0.0
O353 O 0.00947 0.07371 0.99212 0.0
O354 O 0.03526 0.08434 0.0099 0.0
C355 C 0.0505 0.03587 0.02175 0.0
Tb356 Tb 0.26823 0.80508 0.27245 0.0
C357 C 0.29962 0.77785 0.27551 0.0
Tb358 Tb 0.25554 0.75968 0.26596 0.0
O359 O 0.27817 0.80317 0.30337 0.0
O360 O 0.25697 0.7817 0.28888 0.0
O361 O 0.29562 0.79533 0.2712 0.0
C362 C 0.24259 0.72202 0.27124 0.0
O363 O 0.28615 0.76222 0.2761 0.0
C364 C 0.25615 0.77872 0.23389 0.0
C365 C 0.22423 0.78747 0.26253 0.0
O366 O 0.25534 0.72792 0.25961 0.0
O367 O 0.23757 0.73726 0.27991 0.0
O368 O 0.24589 0.76164 0.23499 0.0
O369 O 0.26711 0.78289 0.24959 0.0
O370 O 0.22805 0.76962 0.26546 0.0
O371 O 0.23768 0.80328 0.26356 0.0
C372 C 0.27915 0.84332 0.26805 0.0
O373 O 0.27972 0.82893 0.25526 0.0
O374 O 0.27205 0.8362 0.28332 0.0
C375 C 0.26809 0.78601 0.30448 0.0
Tb376 Tb 0.53013 0.03473 0.51141 0.0
C377 C 0.52181 0.01732 0.55262 0.0
Tb378 Tb 0.48931 0.02889 0.52324 0.0
O379 O 0.53024 0.06672 0.51275 0.0
O380 O 0.5146 0.04895 0.53069 0.0
O381 O 0.53393 0.0212 0.53925 0.0
C382 C 0.45876 0.03898 0.53761 0.0
O383 O 0.5036 0.01966 0.54984 0.0
C384 C 0.49637 1.00125 0.49859 0.0
C385 C 0.49748 0.04309 0.48131 0.0
O386 O 0.46237 0.02106 0.5361 0.0
O387 O 0.47223 0.05079 0.53105 0.0
O388 O 0.47939 0.00533 0.5001 0.0
O389 O 0.50777 0.01088 0.51215 0.0
O390 O 0.48706 0.04412 0.49625 0.0
O391 O 0.51436 0.03728 0.48323 0.0
C392 C 0.56586 0.03121 0.50581 0.0
O393 O 0.56078 0.04362 0.51833 0.0
O394 O 0.55072 0.02096 0.49601 0.0
C395 C 0.5182 0.06618 0.52579 0.0
Tb396 Tb 0.26659 0.28315 0.78949 0.0
C397 C 0.27123 0.31744 0.75998 0.0
Tb398 Tb 0.25623 0.2728 0.74444 0.0
O399 O 0.29222 0.26932 0.78822 0.0
O400 O 0.28101 0.28189 0.76411 0.0
O401 O 0.27179 0.31237 0.77839 0.0
C402 C 0.26357 0.25863 0.70991 0.0
O403 O 0.26653 0.3044 0.7445 0.0
C404 C 0.22549 0.27698 0.76185 0.0
C405 C 0.24838 0.23994 0.77474 0.0
O406 O 0.25341 0.27247 0.71248 0.0
O407 O 0.2692 0.25269 0.72665 0.0
O408 O 0.22515 0.27313 0.74301 0.0
O409 O 0.24257 0.27837 0.76894 0.0
O410 O 0.25221 0.24399 0.75672 0.0
O411 O 0.25059 0.25367 0.78953 0.0
C412 C 0.26789 0.29881 0.8259 0.0
O413 O 0.27929 0.28739 0.81995 0.0
O414 O 0.25578 0.30131 0.81142 0.0
C415 C 0.29345 0.27192 0.76982 0.0
Tb416 Tb 0.00798 0.03091 0.49216 0.0
C417 C 0.98042 0.01966 0.52387 0.0
Tb418 Tb 0.02513 0.03354 0.53603 0.0
O419 O 1.00209 0.9987 0.49121 0.0
O420 O 0.0239 0.01481 0.51061 0.0
O421 O 0.98204 0.02651 0.50639 0.0
C422 C 0.04076 0.02479 0.57047 0.0
O423 O 0.99539 0.01921 0.53688 0.0
C424 C 0.01788 0.06636 0.52284 0.0
C425 C 0.05215 0.0466 0.50364 0.0
O426 O 0.02701 0.03501 0.56815 0.0
O427 O 0.04559 0.01957 0.5535 0.0
O428 O 0.03055 0.06566 0.53755 0.0
O429 O 0.00881 0.04941 0.51796 0.0
O430 O 0.05087 0.04123 0.52174 0.0
O431 O 0.03723 0.04499 0.49022 0.0
C432 C 0.99419 0.03739 0.45617 0.0
O433 O 0.99577 0.04955 0.47154 0.0
O434 O 1.00064 0.02164 0.46099 0.0
C435 C 0.01462 0.9979 0.50594 0.0
Tb436 Tb 0.28589 0.78425 0.77562 0.0
C437 C 0.2558 0.79329 0.80413 0.0
Tb438 Tb 0.2432 0.77748 0.75929 0.0
O439 O 0.28717 0.8163 0.77935 0.0
O440 O 0.26719 0.79928 0.75897 0.0
O441 O 0.27316 0.78912 0.80267 0.0
C442 C 0.20989 0.78401 0.74274 0.0
O443 O 0.24238 0.79099 0.78898 0.0
C444 C 0.25644 0.7452 0.76703 0.0
C445 C 0.27374 0.76645 0.7317 0.0
O446 O 0.21208 0.7744 0.75825 0.0
O447 O 0.22632 0.78975 0.73668 0.0
O448 O 0.24098 0.74562 0.75556 0.0
O449 O 0.26173 0.76213 0.77573 0.0
O450 O 0.25644 0.7711 0.73267 0.0
O451 O 0.28693 0.76906 0.74701 0.0
C452 C 0.32086 0.78109 0.79049 0.0
O453 O 0.31688 0.7914 0.77594 0.0
O454 O 0.3052 0.77251 0.79643 0.0
C455 C 0.27198 0.81626 0.76744 0.0
Tb456 Tb 0.49175 0.02293 0.01226 0.0
C457 C 0.52389 0.99731 0.01184 0.0
Tb458 Tb 0.53388 0.04393 0.0181 0.0
O459 O 0.49496 0.01159 0.98256 0.0
O460 O 0.51174 0.03758 0.99476 0.0
O461 O 0.50612 0.99777 0.01579 0.0
C462 C 0.57039 0.05853 0.01441 0.0
O463 O 0.53641 0.01341 0.01053 0.0
C464 C 0.51619 0.04224 0.05002 0.0
C465 C 0.50167 0.06953 0.01797 0.0
O466 O 0.56448 0.04818 0.02843 0.0
O467 O 0.55574 0.06065 0.00257 0.0
O468 O 0.53062 0.05553 0.04766 0.0
O469 O 0.51383 0.02944 0.03569 0.0
O470 O 0.51945 0.06898 0.01414 0.0
O471 O 0.48916 0.05348 0.01959 0.0
C472 C 0.45518 0.00816 0.0154 0.0
O473 O 0.46124 0.01906 1.00183 0.0
O474 O 0.46973 0.00568 0.02724 0.0
C475 C 0.50933 0.02498 0.98028 0.0
Tb476 Tb 0.2362 0.26653 0.26377 0.0
C477 C 0.27055 0.2654 0.29368 0.0
Tb478 Tb 0.27536 0.28388 0.2537 0.0
O479 O 0.24223 0.23642 0.26073 0.0
O480 O 0.25615 0.25774 0.24515 0.0
O481 O 0.253 0.26948 0.29204 0.0
C482 C 0.31082 0.28887 0.24353 0.0
O483 O 0.28151 0.26798 0.2793 0.0
C484 C 0.25614 0.31032 0.26737 0.0
C485 C 0.24006 0.28352 0.22301 0.0
O486 O 0.30569 0.28183 0.25957 0.0
O487 O 0.2961 0.29329 0.23347 0.0
O488 O 0.27047 0.31426 0.25726 0.0
O489 O 0.25553 0.29295 0.27229 0.0
O490 O 0.2584 0.28194 0.22535 0.0
O491 O 0.22866 0.27922 0.2367 0.0
C492 C 0.2009 0.25913 0.27401 0.0
O493 O 0.20759 0.27402 0.26475 0.0
O494 O 0.21401 0.24848 0.27739 0.0
C495 C 0.25604 0.24045 0.25001 0.0
Tb496 Tb 0.51241 0.53049 0.99168 0.0
C497 C 0.48692 0.51707 0.02443 0.0
Tb498 Tb 0.5317 0.53049 0.0341 0.0
O499 O 0.50524 0.49845 0.99011 0.0
O500 O 0.52934 0.51312 0.00744 0.0
O501 O 0.48743 0.52513 0.00743 0.0
C502 C 0.5463 0.52079 0.06857 0.0
O503 O 0.50256 0.51557 0.036 0.0
C504 C 0.52451 0.56437 0.02349 0.0
C505 C 0.55706 0.5453 1.0015 0.0
O506 O 0.53515 0.53377 0.06618 0.0
O507 O 0.5492 0.51335 0.0516 0.0
O508 O 0.53818 0.56258 0.03678 0.0
O509 O 0.5147 0.54778 0.01842 0.0
O510 O 0.5568 0.5383 0.01904 0.0
O511 O 0.54149 0.54505 0.98919 0.0
C512 C 0.49716 0.53816 0.95666 0.0
O513 O 0.50636 0.52376 0.95998 0.0
O514 O 0.49678 0.54837 0.97301 0.0
C515 C 0.5193 0.49656 0.00286 0.0
Tb516 Tb 0.78258 0.28376 0.27341 0.0
C517 C 0.752 0.29253 0.30141 0.0
Tb518 Tb 0.7403 0.27791 0.25615 0.0
O519 O 0.7842 0.31566 0.27846 0.0
O520 O 0.76455 0.2997 0.25691 0.0
O521 O 0.76923 0.28785 0.30026 0.0
C522 C 0.70682 0.28412 0.23972 0.0
O523 O 0.73903 0.29096 0.28591 0.0
C524 C 0.75332 0.24534 0.2633 0.0
C525 C 0.77128 0.26809 0.22868 0.0
O526 O 0.70907 0.27313 0.25415 0.0
O527 O 0.7233 0.29144 0.23462 0.0
O528 O 0.73855 0.24617 0.25101 0.0
O529 O 0.75817 0.26194 0.2727 0.0
O530 O 0.75399 0.27275 0.2296 0.0
O531 O 0.78418 0.26998 0.24422 0.0
C532 C 0.81723 0.27972 0.28856 0.0
O533 O 0.81362 0.29149 0.27521 0.0
O534 O 0.80138 0.27012 0.29314 0.0
C535 C 0.76941 0.31633 0.2662 0.0
Tb536 Tb 0.98857 0.52448 0.50995 0.0
C537 C 0.01968 0.49752 0.5092 0.0
Tb538 Tb 0.03176 0.54361 0.51792 0.0
O539 O 0.99117 0.51569 0.47921 0.0
O540 O 0.01018 0.53873 0.49401 0.0
O541 O 1.002 0.49872 0.51288 0.0
C542 C 0.06822 0.55861 0.5145 0.0
O543 O 0.03304 0.51313 0.50867 0.0
C544 C 0.01352 0.5408 0.5495 0.0
C545 C 1.00026 0.57031 0.51965 0.0
O546 O 0.06258 0.54408 0.52482 0.0
O547 O 0.05334 0.56465 0.50621 0.0
O548 O 0.02959 0.55235 0.5487 0.0
O549 O 0.0102 0.5295 0.53395 0.0
O550 O 0.01797 0.56939 0.51577 0.0
O551 O 0.98707 0.55454 0.51997 0.0
C552 C 0.95193 0.50928 0.51207 0.0
O553 O 0.9579 0.52374 0.50179 0.0
O554 O 0.96659 0.50349 0.52112 0.0
C555 C 0.00709 0.52746 0.47851 0.0
Tb556 Tb 0.76747 0.78439 0.28671 0.0
C557 C 0.77385 0.81689 0.25643 0.0
Tb558 Tb 0.75729 0.77263 0.24149 0.0
O559 O 0.79715 0.77773 0.28845 0.0
O560 O 0.78003 0.7747 0.26287 0.0
O561 O 0.77004 0.81289 0.27443 0.0
C562 C 0.76059 0.76213 0.2045 0.0
O563 O 0.77182 0.80308 0.24168 0.0
C564 C 0.72831 0.77755 0.26109 0.0
C565 C 0.75086 0.74023 0.2722 0.0
O566 O 0.75169 0.77615 0.2102 0.0
O567 O 0.76738 0.75407 0.21955 0.0
O568 O 0.72674 0.76706 0.24448 0.0
O569 O 0.7452 0.78667 0.26449 0.0
O570 O 0.75384 0.74401 0.25389 0.0
O571 O 0.75359 0.75404 0.28698 0.0
C572 C 0.76737 0.7991 0.3231 0.0
O573 O 0.75415 0.78563 0.31399 0.0
O574 O 0.78058 0.80396 0.31182 0.0
C575 C 0.79651 0.77326 0.26977 0.0
Tb576 Tb 0.76532 0.30589 0.77101 0.0
C577 C 0.7963 0.27801 0.77417 0.0
Tb578 Tb 0.75225 0.26033 0.76431 0.0
O579 O 0.77417 0.30426 0.80238 0.0
O580 O 0.75409 0.28243 0.78724 0.0
O581 O 0.79248 0.29561 0.77017 0.0
C582 C 0.73903 0.22292 0.7701 0.0
O583 O 0.78273 0.26242 0.77441 0.0
C584 C 0.75278 0.27911 0.73203 0.0
C585 C 0.72154 0.28858 0.75996 0.0
O586 O 0.75209 0.22853 0.75871 0.0
O587 O 0.73376 0.2383 0.77819 0.0
O588 O 0.74348 0.26152 0.73295 0.0
O589 O 0.76337 0.28373 0.74794 0.0
O590 O 0.72504 0.27092 0.76421 0.0
O591 O 0.73525 0.30401 0.75987 0.0
C592 C 0.77802 0.34385 0.76717 0.0
O593 O 0.76476 0.33732 0.77797 0.0
O594 O 0.7838 0.32905 0.7585 0.0
C595 C 0.76466 0.28677 0.80314 0.0
Tb596 Tb 0.73961 0.7718 0.76988 0.0
C597 C 0.77308 0.7725 0.80266 0.0
Tb598 Tb 0.77957 0.78782 0.76078 0.0
O599 O 0.7472 0.74245 0.77134 0.0
O600 O 0.75998 0.7618 0.75259 0.0
O601 O 0.75443 0.77166 0.79879 0.0
C602 C 0.81556 0.78944 0.75301 0.0
O603 O 0.78534 0.77803 0.78996 0.0
C604 C 0.75982 0.81485 0.7715 0.0
C605 C 0.74601 0.7886 0.72914 0.0
O606 O 0.80509 0.77449 0.75904 0.0
O607 O 0.80586 0.80373 0.75154 0.0
O608 O 0.77385 0.81795 0.76082 0.0
O609 O 0.75926 0.79797 0.77776 0.0
O610 O 0.76398 0.7858 0.73188 0.0
O611 O 0.73421 0.7855 0.74274 0.0
C612 C 0.70355 0.76634 0.77793 0.0
O613 O 0.71101 0.75421 0.76711 0.0
O614 O 0.71632 0.78146 0.78402 0.0
C615 C 0.76021 0.74528 0.75942 0.0
Tb616 Tb 0.52032 0.5557 0.51113 0.0
C617 C 0.52282 0.51856 0.48394 0.0
Tb618 Tb 0.51036 0.51519 0.52686 0.0
O619 O 0.54974 0.55111 0.50894 0.0
O620 O 0.53435 0.53773 0.5299 0.0
O621 O 0.51952 0.53692 0.48451 0.0
C622 C 0.51059 0.48052 0.54187 0.0
O623 O 0.52127 0.50771 0.49916 0.0
C624 C 0.48075 0.53216 0.51621 0.0
C625 C 0.50706 0.55239 0.55368 0.0
O626 O 0.4976 0.48448 0.52889 0.0
O627 O 0.5235 0.49597 0.54616 0.0
O628 O 0.48087 0.51923 0.52909 0.0
O629 O 0.49616 0.53323 0.50833 0.0
O630 O 0.5107 0.53412 0.55337 0.0
O631 O 0.50863 0.56313 0.53837 0.0
C632 C 0.52108 0.59033 0.49576 0.0
O633 O 0.53263 0.58679 0.51039 0.0
O634 O 0.50897 0.57452 0.49017 0.0
C635 C 0.54976 0.53851 0.52212 0.0
Tb636 Tb 0.02882 0.53121 0.01097 0.0
C637 C 0.02083 0.51532 0.05313 0.0
Tb638 Tb 0.98844 0.52593 0.0234 0.0
O639 O 0.0326 0.56326 0.01719 0.0
O640 O 0.01458 0.54435 0.03224 0.0
O641 O 0.03241 0.5179 0.03913 0.0
C642 C 0.95662 0.53741 0.03346 0.0
O643 O 1.00321 0.51943 0.05098 0.0
C644 C 0.99753 0.49498 0.00492 0.0
C645 C 0.99633 0.54118 0.98096 0.0
O646 O 0.95919 0.51922 0.03143 0.0
O647 O 0.97181 0.54883 0.02976 0.0
O648 O 0.98448 0.49387 0.01699 0.0
O649 O 1.00273 0.51272 0.00222 0.0
O650 O 0.9849 0.53938 0.99523 0.0
O651 O 0.01378 0.5365 0.98304 0.0
C652 C 0.06162 0.51956 0.00455 0.0
O653 O 0.05816 0.53736 0.00293 0.0
O654 O 0.04655 0.50859 0.00917 0.0
C655 C 0.0197 0.56207 0.0294 0.0
H656 H 0.99796 0.24112 0.92094 0.0
H657 H 1.00285 0.21047 0.93454 0.0
H658 H 0.05207 0.20918 0.90315 0.0
H659 H 0.04726 0.24032 0.88925 0.0
H660 H 0.02377 0.1706 0.90483 0.0
H661 H 0.05081 0.21114 0.97654 0.0
H662 H 0.02922 0.2178 0.96533 0.0
H663 H 0.05077 0.22277 0.95374 0.0
C664 C 0.00976 0.2343 0.91671 0.0
C665 C 0.02241 0.2433 0.90424 0.0
C666 C 0.01251 0.21677 0.92452 0.0
C667 C 0.028 0.20782 0.92014 0.0
C668 C 0.0401 0.21602 0.90678 0.0
H669 H 0.05385 0.11764 0.9983 0.0
H670 H 0.05783 0.14597 0.97842 0.0
C671 C 0.0373 0.23371 0.89882 0.0
C672 C 0.03171 0.19053 0.93057 0.0
H673 H 0.04002 0.17668 0.97689 0.0
C674 C 0.02769 0.17187 0.92052 0.0
C675 C 0.03706 0.19229 0.95098 0.0
C676 C 0.0424 0.21209 0.9623 0.0
C677 C 0.02781 0.15481 0.9306 0.0
C678 C 0.03164 0.15655 0.95128 0.0
C679 C 0.03682 0.17529 0.9611 0.0
C680 C 0.02939 0.13925 0.96313 0.0
C681 C 0.02361 0.13512 0.919 0.0
C682 C 0.01194 0.12638 0.96157 0.0
C683 C 0.0097 0.1102 0.97282 0.0
C684 C 0.02475 0.10679 0.98611 0.0
C685 C 0.04201 0.12 0.98819 0.0
C686 C 0.04431 0.1361 0.97678 0.0
H687 H 0.02754 0.13635 0.90384 0.0
H688 H 0.0314 0.12427 0.92604 0.0
H689 H 0.00811 0.12949 0.918 0.0
H690 H 1.0 0.12888 0.95168 0.0
H691 H 0.99621 0.1003 0.97102 0.0
H692 H 0.07323 0.78225 0.15244 0.0
H693 H 0.10305 0.78512 0.17324 0.0
H694 H 0.07413 0.79587 0.22407 0.0
H695 H 0.04371 0.79204 0.20314 0.0
H696 H 0.1232 0.814 0.19492 0.0
H697 H 0.10249 0.75446 0.24302 0.0
H698 H 0.08753 0.75821 0.22147 0.0
H699 H 0.08814 0.7735 0.24371 0.0
C700 C 0.0731 0.78519 0.16805 0.0
C701 C 0.056 0.78691 0.1761 0.0
C702 C 0.09027 0.78686 0.17998 0.0
C703 C 0.09099 0.79053 0.20033 0.0
C704 C 0.07398 0.79254 0.20848 0.0
H705 H 0.20786 0.82097 0.26161 0.0
H706 H 0.17514 0.82357 0.24915 0.0
C707 C 0.05659 0.79049 0.1965 0.0
C708 C 0.10973 0.79233 0.21256 0.0
H709 H 0.13349 0.77252 0.24986 0.0
C710 C 0.12541 0.80497 0.207 0.0
C711 C 0.11275 0.78047 0.22826 0.0
C712 C 0.0969 0.76576 0.23439 0.0
C713 C 0.14399 0.80554 0.21608 0.0
C714 C 0.147 0.79378 0.23186 0.0
C715 C 0.13123 0.78165 0.23788 0.0
C716 C 0.16649 0.79244 0.24112 0.0
C717 C 0.16029 0.81795 0.20787 0.0
C718 C 0.17237 0.77404 0.24175 0.0
C719 C 0.19088 0.77247 0.24932 0.0
C720 C 0.20411 0.7893 0.25634 0.0
C721 C 0.19811 0.80772 0.2562 0.0
C722 C 0.17941 0.80924 0.2489 0.0
H723 H 0.15617 0.82175 0.19278 0.0
H724 H 0.16465 0.83188 0.2172 0.0
H725 H 0.17278 0.81027 0.20755 0.0
H726 H 0.16277 0.76082 0.2359 0.0
H727 H 0.19495 0.75803 0.24906 0.0
H728 H 0.52777 0.86589 0.36863 0.0
H729 H 0.52174 0.8968 0.38466 0.0
H730 H 0.52319 0.87115 0.44021 0.0
H731 H 0.52878 0.8405 0.42445 0.0
H732 H 0.49261 0.88945 0.43368 0.0
H733 H 0.55882 0.93839 0.42016 0.0
H734 H 0.54491 0.92556 0.39875 0.0
H735 H 0.55606 0.91198 0.41664 0.0
C736 C 0.52684 0.86693 0.38426 0.0
C737 C 0.52872 0.85073 0.39524 0.0
C738 C 0.52352 0.88462 0.39343 0.0
C739 C 0.52221 0.88638 0.41371 0.0
C740 C 0.52414 0.87019 0.42458 0.0
H741 H 0.52875 0.98466 0.49929 0.0
H742 H 0.53489 0.95773 0.47712 0.0
C743 C 0.52735 0.85263 0.41549 0.0
C744 C 0.51822 0.90467 0.42387 0.0
H745 H 0.53657 0.95291 0.43695 0.0
C746 C 0.50216 0.90337 0.43428 0.0
C747 C 0.53083 0.92275 0.42486 0.0
C748 C 0.54872 0.92484 0.41466 0.0
C749 C 0.49849 0.91947 0.44588 0.0
C750 C 0.51097 0.93763 0.44674 0.0
C751 C 0.52695 0.93904 0.43617 0.0
C752 C 0.50794 0.95504 0.4591 0.0
C753 C 0.48166 0.91662 0.45771 0.0
C754 C 0.491 0.96282 0.45606 0.0
C755 C 0.48744 0.97805 0.46877 0.0
C756 C 0.50086 0.98599 0.48461 0.0
C757 C 0.51817 0.97881 0.48718 0.0
C758 C 0.52169 0.96345 0.47452 0.0
H759 H 0.47664 0.90084 0.45944 0.0
H760 H 0.48528 0.92445 0.47248 0.0
H761 H 0.4697 0.92261 0.4501 0.0
H762 H 0.48038 0.9569 0.44401 0.0
H763 H 0.47407 0.9835 0.46631 0.0
H764 H 0.42713 0.27386 0.65717 0.0
H765 H 0.39832 0.27199 0.67387 0.0
H766 H 0.42732 0.25037 0.72378 0.0
H767 H 0.4565 0.25291 0.70737 0.0
H768 H 0.37508 0.2435 0.68762 0.0
H769 H 0.40879 0.29584 0.74998 0.0
H770 H 0.42058 0.29173 0.72846 0.0
H771 H 0.42032 0.27476 0.74729 0.0
C772 C 0.4274 0.26861 0.67168 0.0
C773 C 0.44423 0.2637 0.68099 0.0
C774 C 0.41086 0.26754 0.68123 0.0
C775 C 0.41065 0.26147 0.70033 0.0
C776 C 0.4272 0.25568 0.70932 0.0
H777 H 0.32325 0.25357 0.78182 0.0
H778 H 0.35107 0.24955 0.76457 0.0
C779 C 0.44385 0.25696 0.69983 0.0
C780 C 0.39323 0.26158 0.71078 0.0
H781 H 0.37725 0.28015 0.7522 0.0
C782 C 0.37559 0.25153 0.70174 0.0
C783 C 0.39373 0.27217 0.72919 0.0
C784 C 0.41182 0.2844 0.73922 0.0
C785 C 0.35862 0.25162 0.7106 0.0
C786 C 0.35921 0.2621 0.72903 0.0
C787 C 0.37681 0.27199 0.73815 0.0
C788 C 0.34172 0.26347 0.73892 0.0
C789 C 0.34021 0.24034 0.70026 0.0
C790 C 0.32719 0.27269 0.7303 0.0
C791 C 0.31136 0.27512 0.74019 0.0
C792 C 0.30966 0.26831 0.75889 0.0
C793 C 0.32409 0.25889 0.7674 0.0
C794 C 0.34 0.25659 0.75756 0.0
H795 H 0.34278 0.22914 0.68899 0.0
H796 H 0.33124 0.23292 0.71081 0.0
H797 H 0.33208 0.25069 0.69282 0.0
H798 H 0.32833 0.2785 0.71613 0.0
H799 H 0.30063 0.2827 0.73335 0.0
H800 H 0.99985 0.86359 0.62825 0.0
H801 H 1.00423 0.89417 0.6115 0.0
H802 H 0.01298 0.86154 0.55867 0.0
H803 H 0.00856 0.83122 0.57499 0.0
H804 H 0.03684 0.91057 0.58877 0.0
H805 H 0.96632 0.89047 0.54475 0.0
H806 H 0.97224 0.87953 0.56721 0.0
H807 H 0.98102 0.87164 0.54497 0.0
C808 C 1.00285 0.86303 0.61312 0.0
C809 C 1.00368 0.84505 0.60286 0.0
C810 C 0.00536 0.88043 0.60362 0.0
C811 C 0.00865 0.87991 0.58385 0.0
C812 C 0.0102 0.8621 0.57387 0.0
H813 H 0.0126 0.95999 0.49186 0.0
H814 H 0.0129 0.93112 0.51101 0.0
C815 C 0.00768 0.84482 0.58326 0.0
C816 C 0.00982 0.89772 0.57312 0.0
H817 H 0.98718 0.91754 0.53533 0.0
C818 C 0.02597 0.91226 0.57718 0.0
C819 C 0.9956 0.89963 0.55798 0.0
C820 C 0.97772 0.88459 0.55351 0.0
C821 C 0.02853 0.9286 0.56604 0.0
C822 C 0.01436 0.93042 0.55074 0.0
C823 C 0.99811 0.91594 0.5469 0.0
C824 C 0.01552 0.94773 0.53913 0.0
C825 C 0.04656 0.94346 0.57049 0.0
C826 C 0.01657 0.9664 0.54858 0.0
C827 C 0.01655 0.98268 0.53772 0.0
C828 C 0.01533 0.98067 0.51726 0.0
C829 C 0.01385 0.96192 0.50769 0.0
C830 C 0.01405 0.94552 0.51858 0.0
H831 H 0.05825 0.93691 0.57798 0.0
H832 H 0.05143 0.94959 0.55696 0.0
H833 H 0.04383 0.95572 0.58042 0.0
H834 H 0.01685 0.96836 0.56434 0.0
H835 H 0.01659 0.99662 0.54542 0.0
H836 H 0.49023 0.78144 0.87407 0.0
H837 H 0.4619 0.78145 0.85156 0.0
H838 H 0.43231 0.80003 0.89931 0.0
H839 H 0.46086 0.80032 0.92216 0.0
H840 H 0.42699 0.75852 0.85306 0.0
H841 H 0.42147 0.8378 0.85735 0.0
H842 H 0.44289 0.82881 0.86605 0.0
H843 H 0.42324 0.82748 0.88064 0.0
C844 C 0.47779 0.78569 0.87988 0.0
C845 C 0.4778 0.79081 0.89999 0.0
C846 C 0.4616 0.78569 0.86693 0.0
C847 C 0.4451 0.79088 0.87375 0.0
C848 C 0.44506 0.7963 0.89374 0.0
H849 H 0.32981 0.76055 0.8213 0.0
H850 H 0.3609 0.76256 0.84006 0.0
C851 C 0.46133 0.79636 0.90677 0.0
C852 C 0.42768 0.78944 0.86 0.0
H853 H 0.39498 0.81588 0.84069 0.0
C854 C 0.42003 0.77107 0.85026 0.0
C855 C 0.41888 0.80592 0.85617 0.0
C856 C 0.42711 0.82617 0.86544 0.0
C857 C 0.40348 0.76862 0.83713 0.0
C858 C 0.39419 0.78491 0.83396 0.0
C859 C 0.40211 0.8034 0.84328 0.0
C860 C 0.37574 0.78287 0.82178 0.0
C861 C 0.39613 0.74865 0.82671 0.0
C862 C 0.37379 0.79376 0.80537 0.0
C863 C 0.35599 0.7927 0.79466 0.0
C864 C 0.33995 0.78086 0.80036 0.0
C865 C 0.342 0.76972 0.81656 0.0
C866 C 0.35975 0.77078 0.82723 0.0
H867 H 0.40758 0.73953 0.82621 0.0
H868 H 0.38481 0.74085 0.83469 0.0
H869 H 0.38994 0.74991 0.81152 0.0
H870 H 0.386 0.80324 0.80102 0.0
H871 H 0.3547 0.80149 0.78226 0.0
H872 H 0.49457 0.24623 0.05223 0.0
H873 H 0.48888 0.21142 0.04188 0.0
H874 H 0.47751 0.19754 0.10028 0.0
H875 H 0.48347 0.23262 0.111 0.0
H876 H 0.5042 0.17781 0.08586 0.0
H877 H 0.44116 0.17029 0.03124 0.0
H878 H 0.45911 0.19023 0.02673 0.0
H879 H 0.44783 0.19119 0.04899 0.0
C880 C 0.49062 0.23587 0.06289 0.0
C881 C 0.4896 0.24225 0.0825 0.0
C882 C 0.48716 0.21593 0.05686 0.0
C883 C 0.48245 0.20193 0.07022 0.0
C884 C 0.48094 0.20818 0.08971 0.0
H885 H 0.46802 0.07686 0.0304 0.0
H886 H 0.46124 0.10818 0.04403 0.0
C887 C 0.48437 0.2282 0.09579 0.0
C888 C 0.48132 0.18089 0.06412 0.0
H889 H 0.46186 0.14592 0.02757 0.0
C890 C 0.49467 0.17069 0.07337 0.0
C891 C 0.46873 0.17155 0.04798 0.0
C892 C 0.45326 0.18134 0.0383 0.0
C893 C 0.49663 0.15185 0.06608 0.0
C894 C 0.48514 0.14322 0.04894 0.0
C895 C 0.4709 0.15282 0.04048 0.0
C896 C 0.48845 0.12469 0.03915 0.0
C897 C 0.51128 0.1415 0.07646 0.0
C898 C 0.5057 0.12389 0.03126 0.0
C899 C 0.50963 0.10609 0.02339 0.0
C900 C 0.49632 0.0888 0.02325 0.0
C901 C 0.47861 0.08989 0.03027 0.0
C902 C 0.4747 0.10774 0.03813 0.0
H903 H 0.51518 0.14756 0.0919 0.0
H904 H 0.50599 0.1255 0.07629 0.0
H905 H 0.52439 0.14351 0.06887 0.0
H906 H 0.51634 0.13697 0.03163 0.0
H907 H 0.52336 0.10582 0.01805 0.0
H908 H 0.08945 0.26506 0.40191 0.0
H909 H 0.11251 0.25997 0.3788 0.0
H910 H 0.06708 0.24718 0.33167 0.0
H911 H 0.04388 0.25188 0.35468 0.0
H912 H 0.09564 0.22347 0.32906 0.0
H913 H 0.12516 0.30293 0.34095 0.0
H914 H 0.12519 0.29039 0.36302 0.0
H915 H 0.10293 0.29245 0.34941 0.0
C916 C 0.08433 0.26081 0.3867 0.0
C917 C 0.06492 0.25916 0.38003 0.0
C918 C 0.09751 0.258 0.37352 0.0
C919 C 0.09147 0.25367 0.35353 0.0
C920 C 0.07198 0.25067 0.34705 0.0
H921 H 0.17208 0.28031 0.26806 0.0
H922 H 0.14277 0.27728 0.28425 0.0
C923 C 0.05878 0.25339 0.36021 0.0
C924 C 0.10555 0.25375 0.33921 0.0
H925 H 0.14243 0.28319 0.32246 0.0
C926 C 0.10583 0.23652 0.32749 0.0
C927 C 0.1184 0.27098 0.33685 0.0
C928 C 0.11784 0.2903 0.34807 0.0
C929 C 0.11924 0.23586 0.31394 0.0
C930 C 0.13283 0.25279 0.31244 0.0
C931 C 0.13205 0.27019 0.32368 0.0
C932 C 0.14881 0.25263 0.30034 0.0
C933 C 0.11863 0.21708 0.30136 0.0
C934 C 0.16173 0.23961 0.30382 0.0
C935 C 0.17829 0.2412 0.29446 0.0
C936 C 0.18234 0.25604 0.28174 0.0
C937 C 0.16919 0.26872 0.27779 0.0
C938 C 0.1525 0.267 0.28701 0.0
H939 H 0.10405 0.20835 0.29926 0.0
H940 H 0.12337 0.22006 0.28678 0.0
H941 H 0.12822 0.20799 0.30872 0.0
H942 H 0.15947 0.22881 0.31445 0.0
H943 H 0.1883 0.23134 0.29784 0.0
H944 H 0.89536 0.03184 0.17761 0.0
H945 H 0.91267 0.03773 0.14893 0.0
H946 H 0.92917 0.09874 0.16956 0.0
H947 H 0.91179 0.09279 0.19834 0.0
H948 H 0.91452 0.06531 0.11826 0.0
H949 H 0.97949 0.07494 0.17171 0.0
H950 H 0.95622 0.06491 0.17808 0.0
H951 H 0.96239 0.09081 0.17591 0.0
C952 C 0.90195 0.04667 0.17551 0.0
C953 C 0.90203 0.06194 0.18991 0.0
C954 C 0.91194 0.05001 0.15922 0.0
C955 C 0.92241 0.06861 0.15726 0.0
C956 C 0.92127 0.08426 0.17087 0.0
H957 H 0.99147 0.08273 0.05773 0.0
H958 H 0.97133 0.09062 0.08293 0.0
C959 C 0.91117 0.08092 0.18715 0.0
C960 C 0.93637 0.07073 0.14258 0.0
H961 H 0.98406 0.07466 0.13846 0.0
C962 C 0.92974 0.06768 0.12261 0.0
C963 C 0.95621 0.07352 0.14836 0.0
C964 C 0.96412 0.0761 0.16966 0.0
C965 C 0.94243 0.06689 0.10826 0.0
C966 C 0.96226 0.06936 0.1141 0.0
C967 C 0.96888 0.07293 0.13404 0.0
C968 C 0.97617 0.06628 0.09997 0.0
C969 C 0.93445 0.06245 0.08707 0.0
C970 C 0.98636 0.05061 0.10173 0.0
C971 C 0.99803 0.04616 0.08749 0.0
C972 C 0.99983 0.05737 0.0712 0.0
C973 C 0.99051 0.07382 0.0701 0.0
C974 C 0.97878 0.07823 0.08437 0.0
H975 H 0.91882 0.05731 0.08542 0.0
H976 H 0.93729 0.07596 0.0792 0.0
H977 H 0.94142 0.05107 0.07991 0.0
H978 H 0.98466 0.04127 0.11373 0.0
H979 H 0.00499 0.03341 0.08884 0.0
H980 H 0.29639 0.71558 0.47072 0.0
H981 H 0.29079 0.73205 0.44083 0.0
H982 H 0.28839 0.67748 0.40623 0.0
H983 H 0.29404 0.66078 0.43625 0.0
H984 H 0.31356 0.73454 0.40855 0.0
H985 H 0.23901 0.69803 0.38564 0.0
H986 H 0.25023 0.69791 0.41026 0.0
H987 H 0.25623 0.68219 0.39091 0.0
C988 C 0.2946 0.70699 0.45678 0.0
C989 C 0.29563 0.6868 0.45593 0.0
C990 C 0.29142 0.71648 0.43967 0.0
C991 C 0.28897 0.70603 0.42124 0.0
C992 C 0.28996 0.68583 0.42028 0.0
H993 H 0.26558 0.7459 0.30395 0.0
H994 H 0.27051 0.72608 0.33168 0.0
C995 C 0.29327 0.67631 0.43745 0.0
C996 C 0.28589 0.71653 0.40317 0.0
H997 H 0.25297 0.72069 0.36482 0.0
C998 C 0.30032 0.73149 0.39897 0.0
C999 C 0.26868 0.71249 0.39056 0.0
C1000 C 0.25254 0.69689 0.39453 0.0
C1001 C 0.29804 0.74246 0.38259 0.0
C1002 C 0.2806 0.73883 0.37027 0.0
C1003 C 0.2663 0.72361 0.37426 0.0
C1004 C 0.27686 0.75084 0.35338 0.0
C1005 C 0.31454 0.75758 0.37846 0.0
C1006 C 0.2784 0.77137 0.35618 0.0
C1007 C 0.27537 0.78266 0.34028 0.0
C1008 C 0.27028 0.77368 0.32124 0.0
C1009 C 0.26854 0.75316 0.31846 0.0
C1010 C 0.27168 0.74185 0.33434 0.0
H1011 H 0.32833 0.75432 0.38522 0.0
H1012 H 0.3153 0.75835 0.36249 0.0
H1013 H 0.3127 0.77221 0.3848 0.0
H1014 H 0.28195 0.77872 0.37071 0.0
H1015 H 0.27693 0.79846 0.3429 0.0
H1016 H 0.61692 0.99179 0.71806 0.0
H1017 H 0.60571 0.99311 0.68325 0.0
H1018 H 0.54762 0.98495 0.69718 0.0
H1019 H 0.55857 0.98373 0.73163 0.0
H1020 H 0.57691 0.96693 0.6547 0.0
H1021 H 0.55636 0.03934 0.67344 0.0
H1022 H 0.57233 0.02834 0.68963 0.0
H1023 H 0.54704 0.02017 0.68805 0.0
C1024 C 0.60175 0.98979 0.71359 0.0
C1025 C 0.58866 0.98787 0.72767 0.0
C1026 C 0.59536 0.99065 0.69372 0.0
C1027 C 0.57583 0.98956 0.68768 0.0
C1028 C 0.56276 0.98621 0.70153 0.0
H1029 H 0.50313 0.01008 0.58527 0.0
H1030 H 0.51654 1.00204 0.61726 0.0
C1031 C 0.56908 0.98545 0.72124 0.0
C1032 C 0.56891 0.99324 0.66734 0.0
H1033 H 0.54556 0.0246 0.64154 0.0
C1034 C 0.5702 0.97961 0.65176 0.0
C1035 C 0.56012 0.00978 0.6635 0.0
C1036 C 0.55899 0.02536 0.67948 0.0
C1037 C 0.56239 0.98177 0.63256 0.0
C1038 C 0.55332 0.99818 0.6288 0.0
C1039 C 0.55233 0.01193 0.64438 0.0
C1040 C 0.5449 1.00161 0.60886 0.0
C1041 C 0.5634 0.96614 0.6166 0.0
C1042 C 0.5563 0.00405 0.5934 0.0
C1043 C 0.54866 0.00861 0.57506 0.0
C1044 C 0.52942 0.011 0.57173 0.0
C1045 C 0.51795 0.0083 0.58719 0.0
C1046 C 0.52563 0.00373 0.60554 0.0
H1047 H 0.5659 0.95215 0.62268 0.0
H1048 H 0.55008 0.96325 0.60644 0.0
H1049 H 0.5754 0.97121 0.60807 0.0
H1050 H 0.57129 0.00296 0.59563 0.0
H1051 H 0.55802 0.01067 0.56362 0.0
H1052 H 0.2681 0.41819 0.97273 0.0
H1053 H 0.27211 0.39907 0.9427 0.0
H1054 H 0.27511 0.34808 0.97518 0.0
H1055 H 0.27084 0.36694 0.00515 0.0
H1056 H 0.30043 0.37606 0.93229 0.0
H1057 H 0.22861 0.33162 0.9336 0.0
H1058 H 0.23654 0.35424 0.94866 0.0
H1059 H 0.24473 0.33207 0.95536 0.0
C1060 C 0.26987 0.40299 0.9735 0.0
C1061 C 0.2689 0.39395 0.99116 0.0
C1062 C 0.27218 0.39212 0.95638 0.0
C1063 C 0.27357 0.37214 0.95678 0.0
C1064 C 0.27373 0.36341 0.9746 0.0
H1065 H 0.29397 0.29665 0.85691 0.0
H1066 H 0.29638 0.31387 0.88953 0.0
C1067 C 0.27133 0.37422 0.99168 0.0
C1068 C 0.27351 0.36014 0.93835 0.0
H1069 H 0.24645 0.3231 0.90825 0.0
C1070 C 0.28872 0.36441 0.92703 0.0
C1071 C 0.25804 0.34513 0.93156 0.0
C1072 C 0.24096 0.34053 0.9428 0.0
C1073 C 0.28883 0.35402 0.90891 0.0
C1074 C 0.27342 0.33893 0.90221 0.0
C1075 C 0.25829 0.3346 0.9136 0.0
C1076 C 0.27205 0.32829 0.88281 0.0
C1077 C 0.30508 0.35963 0.8968 0.0
C1078 C 0.25732 0.33041 0.86855 0.0
C1079 C 0.25587 0.32058 0.85007 0.0
C1080 C 0.26909 0.30842 0.84565 0.0
C1081 C 0.28366 0.30602 0.86002 0.0
C1082 C 0.28511 0.3159 0.87855 0.0
H1083 H 0.31394 0.37391 0.90238 0.0
H1084 H 0.31435 0.34818 0.89721 0.0
H1085 H 0.29962 0.36057 0.8813 0.0
H1086 H 0.24707 0.33986 0.87167 0.0
H1087 H 0.24449 0.32262 0.83921 0.0
H1088 H 0.87489 0.05888 0.30924 0.0
H1089 H 0.89297 0.05646 0.34088 0.0
H1090 H 0.94065 0.04382 0.31119 0.0
H1091 H 0.92293 0.04668 0.2797 0.0
H1092 H 0.90901 0.02629 0.35602 0.0
H1093 H 0.96501 0.09001 0.34922 0.0
H1094 H 0.94304 0.08491 0.33319 0.0
H1095 H 0.96232 0.07182 0.329 0.0
C1096 C 0.8892 0.05553 0.3095 0.0
C1097 C 0.89757 0.05315 0.29204 0.0
C1098 C 0.89951 0.05418 0.32755 0.0
C1099 C 0.9183 0.05041 0.32837 0.0
C1100 C 0.92637 0.04729 0.3109 0.0
H1101 H 0.98562 0.01079 0.42453 0.0
H1102 H 0.96701 0.01437 0.39355 0.0
C1103 C 0.91616 0.04879 0.29291 0.0
C1104 C 0.9295 0.04964 0.34746 0.0
H1105 H 0.97124 0.06947 0.37487 0.0
C1106 C 0.92256 0.0358 0.3602 0.0
C1107 C 0.94705 0.06227 0.35301 0.0
C1108 C 0.95472 0.07823 0.34048 0.0
C1109 C 0.93295 0.03388 0.37812 0.0
C1110 C 0.95089 0.0459 0.38322 0.0
C1111 C 0.9576 0.0601 0.37075 0.0
C1112 C 0.96284 0.04403 0.40154 0.0
C1113 C 0.92458 0.01916 0.39154 0.0
C1114 C 0.96719 0.05976 0.41595 0.0
C1115 C 0.97786 0.05778 0.43359 0.0
C1116 C 0.98446 0.04008 0.43696 0.0
C1117 C 0.98066 0.02457 0.42227 0.0
C1118 C 0.96992 0.02654 0.40467 0.0
H1119 H 0.90895 0.01477 0.38786 0.0
H1120 H 0.93125 0.00577 0.39005 0.0
H1121 H 0.92742 0.02518 0.40705 0.0
H1122 H 0.96197 0.07342 0.41372 0.0
H1123 H 0.98065 0.06995 0.4447 0.0
H1124 H 0.26773 0.70136 0.55866 0.0
H1125 H 0.26803 0.71057 0.59332 0.0
H1126 H 0.32202 0.69094 0.60501 0.0
H1127 H 0.32179 0.68146 0.56973 0.0
H1128 H 0.27108 0.68704 0.62679 0.0
H1129 H 0.33042 0.75011 0.62824 0.0
H1130 H 0.31715 0.73908 0.60558 0.0
H1131 H 0.33385 0.72632 0.61843 0.0
C1132 C 0.27971 0.69887 0.56853 0.0
C1133 C 0.29486 0.69084 0.56134 0.0
C1134 C 0.27979 0.70411 0.58842 0.0
C1135 C 0.29511 0.70169 0.60179 0.0
C1136 C 0.31011 0.69313 0.5949 0.0
H1137 H 0.30647 0.75233 0.72428 0.0
H1138 H 0.31297 0.73505 0.69418 0.0
C1139 C 0.30993 0.68759 0.57479 0.0
C1140 C 0.29511 0.70884 0.6227 0.0
H1141 H 0.31375 0.74746 0.65599 0.0
C1142 C 0.28062 0.70006 0.6333 0.0
C1143 C 0.30752 0.72585 0.63123 0.0
C1144 C 0.32311 0.73605 0.62037 0.0
C1145 C 0.27785 0.70815 0.65187 0.0
C1146 C 0.28956 0.7258 0.65992 0.0
C1147 C 0.30465 0.73404 0.64976 0.0
C1148 C 0.28569 0.73642 0.67829 0.0
C1149 C 0.26224 0.69781 0.66263 0.0
C1150 C 0.26829 0.74328 0.67936 0.0
C1151 C 0.26453 0.75326 0.69653 0.0
C1152 C 0.27813 0.75675 0.71307 0.0
C1153 C 0.29566 0.75007 0.71185 0.0
C1154 C 0.29942 0.74012 0.69464 0.0
H1155 H 0.25849 0.682 0.65752 0.0
H1156 H 0.26651 0.69909 0.67866 0.0
H1157 H 0.24928 0.70462 0.65989 0.0
H1158 H 0.25759 0.74098 0.66684 0.0
H1159 H 0.25088 0.75814 0.69683 0.0
H1160 H 0.57517 0.99718 0.81865 0.0
H1161 H 0.56142 0.00475 0.84868 0.0
H1162 H 0.61619 0.0077 0.88189 0.0
H1163 H 0.63009 0.99965 0.85166 0.0
H1164 H 0.58802 0.98745 0.89999 0.0
H1165 H 0.56605 0.05705 0.87922 0.0
H1166 H 0.55658 0.0373 0.86115 0.0
H1167 H 0.58198 0.04502 0.86574 0.0
C1168 C 0.58439 0.99953 0.8323 0.0
C1169 C 0.6038 0.99792 0.83269 0.0
C1170 C 0.57649 0.00402 0.84951 0.0
C1171 C 0.58779 0.00727 0.8676 0.0
C1172 C 0.60717 0.00545 0.86812 0.0
H1173 H 0.53656 0.05351 0.96884 0.0
H1174 H 0.55814 0.04992 0.94358 0.0
C1175 C 0.61512 1.00086 0.85082 0.0
C1176 C 0.57905 0.01189 0.88588 0.0
H1177 H 0.55071 0.04188 0.90535 0.0
C1178 C 0.58006 0.99951 0.90125 0.0
C1179 C 0.56896 0.02786 0.88785 0.0
C1180 C 0.5685 0.04269 0.87269 0.0
C1181 C 0.57053 1.00207 0.918 0.0
C1182 C 0.55927 0.01716 0.91927 0.0
C1183 C 0.55905 0.03012 0.90435 0.0
C1184 C 0.54696 0.01923 0.93544 0.0
C1185 C 0.57271 0.98855 0.93417 0.0
C1186 C 0.53331 0.00334 0.93925 0.0
C1187 C 0.52126 0.00533 0.95386 0.0
C1188 C 0.52236 0.02332 0.96492 0.0
C1189 C 0.53577 0.03934 0.96096 0.0
C1190 C 0.54796 0.03732 0.94638 0.0
H1191 H 0.58644 0.9829 0.93432 0.0
H1192 H 0.57203 0.99607 0.94874 0.0
H1193 H 0.56107 0.97572 0.93171 0.0
H1194 H 0.53174 0.9894 0.93071 0.0
H1195 H 0.511 0.99271 0.95647 0.0
H1196 H 0.27302 0.38596 0.10384 0.0
H1197 H 0.25946 0.37136 0.13179 0.0
H1198 H 0.20347 0.37984 0.10824 0.0
H1199 H 0.21721 0.39489 0.08013 0.0
H1200 H 0.23299 0.38208 0.16061 0.0
H1201 H 0.20453 0.31835 0.10649 0.0
H1202 H 0.22285 0.3376 0.10078 0.0
H1203 H 0.19905 0.34236 0.1021 0.0
C1204 C 0.25793 0.38537 0.10501 0.0
C1205 C 0.24609 0.39142 0.08996 0.0
C1206 C 0.2502 0.37707 0.12095 0.0
C1207 C 0.23047 0.37439 0.12192 0.0
C1208 C 0.21873 0.38182 0.10767 0.0
H1209 H 0.20692 0.29844 0.21792 0.0
H1210 H 0.19827 0.32001 0.19289 0.0
C1211 C 0.22657 0.39046 0.09175 0.0
C1212 C 0.22258 0.36108 0.13613 0.0
H1213 H 0.20895 0.31196 0.13949 0.0
C1214 C 0.227 0.36689 0.15612 0.0
C1215 C 0.21495 0.34126 0.13008 0.0
C1216 C 0.21004 0.33435 0.10871 0.0
C1217 C 0.22548 0.35302 0.17015 0.0
C1218 C 0.21948 0.33297 0.16389 0.0
C1219 C 0.21353 0.32739 0.14411 0.0
C1220 C 0.22261 0.31756 0.1771 0.0
C1221 C 0.2319 0.35956 0.19138 0.0
C1222 C 0.23878 0.30857 0.17597 0.0
C1223 C 0.24385 0.29633 0.19023 0.0
C1224 C 0.23271 0.29279 0.20577 0.0
C1225 C 0.21577 0.30077 0.20607 0.0
C1226 C 0.21081 0.31317 0.19187 0.0
H1227 H 0.23629 0.37574 0.19381 0.0
H1228 H 0.22016 0.355 0.20043 0.0
H1229 H 0.24409 0.35238 0.19656 0.0
H1230 H 0.24803 0.31187 0.1646 0.0
H1231 H 0.25695 0.2904 0.18958 0.0
H1232 H 0.19999 0.95012 0.04839 0.0
H1233 H 0.17436 0.9697 0.04998 0.0
H1234 H 0.13577 0.92386 0.01468 0.0
H1235 H 0.16107 0.90395 0.01383 0.0
H1236 H 0.15588 0.98575 0.02357 0.0
H1237 H 0.10173 0.93416 0.05462 0.0
H1238 H 0.12585 0.92978 0.05379 0.0
H1239 H 0.10855 0.92331 0.03264 0.0
C1240 C 0.18595 0.94406 0.04125 0.0
C1241 C 0.18262 0.92533 0.03114 0.0
C1242 C 0.17125 0.95533 0.04211 0.0
C1243 C 0.15282 0.94828 0.03276 0.0
C1244 C 0.14953 0.92955 0.02261 0.0
H1245 H 0.07357 0.02591 0.99502 0.0
H1246 H 0.09753 0.00446 0.99809 0.0
C1247 C 0.16414 0.91816 0.02201 0.0
C1248 C 0.13748 0.96095 0.03263 0.0
H1249 H 0.09056 0.96109 0.03935 0.0
C1250 C 0.14167 0.98032 0.02721 0.0
C1251 C 0.11886 0.95425 0.03767 0.0
C1252 C 0.11354 0.93432 0.04521 0.0
C1253 C 0.12789 0.99286 0.02625 0.0
C1254 C 0.10897 0.98576 0.0301 0.0
C1255 C 0.10488 0.96658 0.03605 0.0
C1256 C 0.09331 0.99795 0.0279 0.0
C1257 C 0.13402 0.01378 0.02149 0.0
C1258 C 0.0819 1.00073 0.04314 0.0
C1259 C 0.06771 0.01272 0.04119 0.0
C1260 C 0.06467 0.02225 0.02398 0.0
C1261 C 0.07573 0.01905 0.00861 0.0
C1262 C 0.08961 0.00686 0.01042 0.0
H1263 H 0.14953 0.01867 0.02563 0.0
H1264 H 0.13122 0.01477 0.00549 0.0
H1265 H 0.12617 0.02403 0.02915 0.0
H1266 H 0.08423 0.99395 0.05674 0.0
H1267 H 0.05949 0.01495 0.05332 0.0
H1268 H 0.72925 0.60877 0.96357 0.0
H1269 H 0.69759 0.58928 0.9637 0.0
H1270 H 0.67412 0.64254 0.97288 0.0
H1271 H 0.7055 0.662 0.97144 0.0
H1272 H 0.67762 0.58548 0.99181 0.0
H1273 H 0.63385 0.61449 0.93373 0.0
H1274 H 0.65949 0.62045 0.93664 0.0
H1275 H 0.64542 0.63415 0.95098 0.0
C1276 C 0.7172 0.61627 0.96514 0.0
C1277 C 0.71973 0.63686 0.96736 0.0
C1278 C 0.69913 0.60515 0.96526 0.0
C1279 C 0.68332 0.61439 0.96801 0.0
C1280 C 0.68587 0.63501 0.97004 0.0
H1281 H 0.58775 0.56401 0.02543 0.0
H1282 H 0.61819 0.57987 0.01613 0.0
C1283 C 0.70385 0.64615 0.96937 0.0
C1284 C 0.66466 0.60247 0.97067 0.0
H1285 H 0.6167 0.59815 0.95837 0.0
C1286 C 0.66435 0.58806 0.98421 0.0
C1287 C 0.64727 0.6055 0.96058 0.0
C1288 C 0.64656 0.61934 0.94452 0.0
C1289 C 0.64719 0.5771 0.98842 0.0
C1290 C 0.62974 0.58129 0.97955 0.0
C1291 C 0.63005 0.59516 0.96546 0.0
C1292 C 0.61107 0.57186 0.98508 0.0
C1293 C 0.64808 0.56102 0.00219 0.0
C1294 C 0.59653 0.56291 0.97066 0.0
C1295 C 0.57886 0.55433 0.97594 0.0
C1296 C 0.57558 0.55432 0.99573 0.0
C1297 C 0.59006 0.56343 0.0101 0.0
C1298 C 0.60751 0.57238 0.00479 0.0
H1299 H 0.66159 0.55503 1.0018 0.0
H1300 H 0.64763 0.56713 0.01738 0.0
H1301 H 0.63599 0.54875 0.99852 0.0
H1302 H 0.59887 0.56247 0.95534 0.0
H1303 H 0.56788 0.54746 0.96458 0.0
H1304 H 0.70378 0.47956 0.28552 0.0
H1305 H 0.72111 0.45228 0.27954 0.0
H1306 H 0.66955 0.41096 0.28135 0.0
H1307 H 0.6521 0.43815 0.2874 0.0
H1308 H 0.72371 0.41999 0.30496 0.0
H1309 H 0.69109 0.39447 0.22934 0.0
H1310 H 0.69045 0.41878 0.24021 0.0
H1311 H 0.67487 0.39798 0.24718 0.0
C1312 C 0.69608 0.46468 0.28452 0.0
C1313 C 0.67654 0.46104 0.28691 0.0
C1314 C 0.70602 0.44911 0.28113 0.0
C1315 C 0.69659 0.42961 0.27981 0.0
C1316 C 0.67706 0.42591 0.28205 0.0
H1317 H 0.73073 0.31557 0.26221 0.0
H1318 H 0.71356 0.34319 0.26476 0.0
C1319 C 0.66713 0.44147 0.28559 0.0
C1320 C 0.70735 0.41315 0.27683 0.0
H1321 H 0.71187 0.37511 0.24448 0.0
C1322 C 0.72122 0.41022 0.2917 0.0
C1323 C 0.70392 0.40033 0.25961 0.0
C1324 C 0.68938 0.40303 0.24306 0.0
C1325 C 0.73155 0.39461 0.28998 0.0
C1326 C 0.72836 0.38193 0.27261 0.0
C1327 C 0.71444 0.38488 0.25773 0.0
C1328 C 0.73895 0.36523 0.2698 0.0
C1329 C 0.74529 0.39149 0.3071 0.0
C1330 C 0.75897 0.36829 0.27129 0.0
C1331 C 0.76879 0.35236 0.26967 0.0
C1332 C 0.7588 0.33309 0.26603 0.0
C1333 C 0.73882 0.33013 0.26406 0.0
C1334 C 0.72898 0.346 0.26585 0.0
H1335 H 0.74202 0.39865 0.32098 0.0
H1336 H 0.74501 0.37561 0.30894 0.0
H1337 H 0.75995 0.39806 0.30452 0.0
H1338 H 0.76703 0.383 0.27388 0.0
H1339 H 0.78422 0.35508 0.27138 0.0
H1340 H 0.77273 0.43878 0.52642 0.0
H1341 H 0.80343 0.46027 0.52582 0.0
H1342 H 0.82739 0.4112 0.5032 0.0
H1343 H 0.79695 0.38975 0.50353 0.0
H1344 H 0.83939 0.45802 0.54475 0.0
H1345 H 0.84072 0.45222 0.46435 0.0
H1346 H 0.81937 0.44463 0.47584 0.0
H1347 H 0.83691 0.42873 0.47436 0.0
C1348 C 0.78451 0.43255 0.52126 0.0
C1349 C 0.78223 0.41248 0.51493 0.0
C1350 C 0.80207 0.44488 0.52094 0.0
C1351 C 0.81766 0.43744 0.51414 0.0
C1352 C 0.81549 0.4174 0.50809 0.0
H1353 H 0.93861 0.47931 0.53354 0.0
H1354 H 0.90556 0.46367 0.53446 0.0
C1355 C 0.79802 0.4051 0.50842 0.0
C1356 C 0.83637 0.45039 0.5137 0.0
H1357 H 0.87025 0.46519 0.48344 0.0
C1358 C 0.84606 0.45974 0.53132 0.0
C1359 C 0.84499 0.45293 0.49614 0.0
C1360 C 0.83489 0.44427 0.47657 0.0
C1361 C 0.86441 0.47088 0.53196 0.0
C1362 C 0.87347 0.47248 0.51456 0.0
C1363 C 0.86345 0.4638 0.49683 0.0
C1364 C 0.89352 0.48255 0.5145 0.0
C1365 C 0.87391 0.48086 0.55128 0.0
C1366 C 0.89791 0.49815 0.50265 0.0
C1367 C 0.91687 0.50705 0.50201 0.0
C1368 C 0.9318 0.5004 0.51308 0.0
C1369 C 0.9274 0.48482 0.52492 0.0
C1370 C 0.90848 0.47595 0.52557 0.0
H1371 H 0.86328 0.48327 0.56157 0.0
H1372 H 0.88343 0.47139 0.55812 0.0
H1373 H 0.88262 0.49523 0.54928 0.0
H1374 H 0.88665 0.50343 0.49387 0.0
H1375 H 0.91984 0.519 0.49271 0.0
H1376 H 0.3498 0.09951 0.23044 0.0
H1377 H 0.33069 0.1259 0.22887 0.0
H1378 H 0.37803 0.16664 0.25869 0.0
H1379 H 0.39726 0.14026 0.26032 0.0
H1380 H 0.34403 0.16791 0.27525 0.0
H1381 H 0.33279 0.17302 0.19516 0.0
H1382 H 0.32691 0.14845 0.20235 0.0
H1383 H 0.35115 0.16093 0.20652 0.0
C1384 C 0.35628 0.11414 0.23639 0.0
C1385 C 0.37514 0.11772 0.24543 0.0
C1386 C 0.34533 0.12928 0.23541 0.0
C1387 C 0.35292 0.1484 0.24346 0.0
C1388 C 0.37184 0.15208 0.25226 0.0
H1389 H 0.28886 0.24786 0.23151 0.0
H1390 H 0.31403 0.22733 0.23013 0.0
C1391 C 0.38286 0.13697 0.25311 0.0
C1392 C 0.34072 0.16413 0.24378 0.0
H1393 H 0.31229 0.18838 0.21445 0.0
C1394 C 0.33726 0.17251 0.26194 0.0
C1395 C 0.33205 0.17045 0.22645 0.0
C1396 C 0.33603 0.16291 0.2065 0.0
C1397 C 0.32479 0.18631 0.26324 0.0
C1398 C 0.31526 0.19179 0.24593 0.0
C1399 C 0.31938 0.18409 0.22775 0.0
C1400 C 0.30016 0.20449 0.24652 0.0
C1401 C 0.32189 0.19486 0.28322 0.0
C1402 C 0.28384 0.19843 0.25586 0.0
C1403 C 0.26959 0.21008 0.25666 0.0
C1404 C 0.27113 0.22809 0.24802 0.0
C1405 C 0.28728 0.23409 0.23834 0.0
C1406 C 0.30165 0.22235 0.23754 0.0
H1407 H 0.3342 0.19412 0.29413 0.0
H1408 H 0.31975 0.2104 0.28284 0.0
H1409 H 0.30904 0.18629 0.2883 0.0
H1410 H 0.28207 0.18456 0.26251 0.0
H1411 H 0.25733 0.20498 0.2642 0.0
H1412 H 0.33969 0.14046 0.50926 0.0
H1413 H 0.36302 0.12126 0.52295 0.0
H1414 H 0.3177 0.07422 0.53073 0.0
H1415 H 0.29421 0.09329 0.51698 0.0
H1416 H 0.36544 0.10271 0.56092 0.0
H1417 H 0.35361 0.04997 0.49463 0.0
H1418 H 0.34626 0.07377 0.49434 0.0
H1419 H 0.33313 0.05459 0.50637 0.0
C1420 C 0.33467 0.12608 0.51399 0.0
C1421 C 0.31514 0.1183 0.51188 0.0
C1422 C 0.34799 0.11518 0.52188 0.0
C1423 C 0.34204 0.09631 0.52769 0.0
C1424 C 0.32254 0.08871 0.52616 0.0
H1425 H 0.42479 0.01605 0.54255 0.0
H1426 H 0.39432 0.02761 0.54575 0.0
C1427 C 0.30917 0.09963 0.51831 0.0
C1428 C 0.35644 0.08431 0.53426 0.0
H1429 H 0.37856 0.04709 0.51821 0.0
C1430 C 0.36816 0.09033 0.55178 0.0
C1431 C 0.35975 0.06805 0.5224 0.0
C1432 C 0.34764 0.06116 0.50332 0.0
C1433 C 0.3837 0.08102 0.55733 0.0
C1434 C 0.38783 0.06563 0.54477 0.0
C1435 C 0.37537 0.05885 0.52786 0.0
C1436 C 0.40635 0.05848 0.54704 0.0
C1437 C 0.39577 0.0881 0.57637 0.0
C1438 C 0.42322 0.07197 0.54714 0.0
C1439 C 0.44046 0.06543 0.54538 0.0
C1440 C 0.44118 0.04526 0.54326 0.0
C1441 C 0.42457 0.03168 0.54425 0.0
C1442 C 0.4072 0.03827 0.54604 0.0
H1443 H 0.38702 0.0935 0.58738 0.0
H1444 H 0.40291 0.07632 0.58248 0.0
H1445 H 0.40684 0.10058 0.57384 0.0
H1446 H 0.42292 0.08759 0.54734 0.0
H1447 H 0.45309 0.07622 0.54467 0.0
H1448 H 0.68861 0.556 0.29363 0.0
H1449 H 0.70747 0.58793 0.28953 0.0
H1450 H 0.66295 0.61697 0.30959 0.0
H1451 H 0.64389 0.58521 0.31347 0.0
H1452 H 0.67431 0.62989 0.27519 0.0
H1453 H 0.73738 0.63063 0.32903 0.0
H1454 H 0.73212 0.60933 0.31195 0.0
H1455 H 0.71555 0.61351 0.3292 0.0
C1456 C 0.68294 0.56917 0.2975 0.0
C1457 C 0.66466 0.56795 0.30386 0.0
C1458 C 0.6938 0.58746 0.2952 0.0
C1459 C 0.68671 0.6049 0.29939 0.0
C1460 C 0.66873 0.60373 0.30626 0.0
H1461 H 0.74245 0.72627 0.30735 0.0
H1462 H 0.72775 0.69317 0.31346 0.0
C1463 C 0.65785 0.58551 0.30851 0.0
C1464 C 0.69735 0.62432 0.29545 0.0
H1465 H 0.73913 0.65621 0.30743 0.0
C1466 C 0.68848 0.63563 0.28225 0.0
C1467 C 0.71579 0.6319 0.30476 0.0
C1468 C 0.72575 0.62082 0.31967 0.0
C1469 C 0.69751 0.65424 0.27809 0.0
C1470 C 0.7161 0.66166 0.28709 0.0
C1471 C 0.72496 0.65042 0.30038 0.0
C1472 C 0.72621 0.68139 0.28342 0.0
C1473 C 0.68687 0.666 0.26443 0.0
C1474 C 0.73066 0.6857 0.26456 0.0
C1475 C 0.73907 0.70467 0.26098 0.0
C1476 C 0.74328 0.71972 0.27621 0.0
C1477 C 0.73937 0.71513 0.29522 0.0
C1478 C 0.73098 0.69617 0.29878 0.0
H1479 H 0.67132 0.66035 0.26247 0.0
H1480 H 0.68912 0.6817 0.26995 0.0
H1481 H 0.69224 0.66509 0.24985 0.0
H1482 H 0.72743 0.67443 0.25255 0.0
H1483 H 0.74195 0.70757 0.24618 0.0
H1484 H 0.85748 0.52577 0.75353 0.0
H1485 H 0.83415 0.49595 0.75453 0.0
H1486 H 0.8787 0.46599 0.77812 0.0
H1487 H 0.90203 0.49569 0.7775 0.0
H1488 H 0.83215 0.45954 0.73601 0.0
H1489 H 0.83918 0.45435 0.81615 0.0
H1490 H 0.8487 0.47624 0.80503 0.0
H1491 H 0.86167 0.45597 0.8063 0.0
C1492 C 0.86234 0.51288 0.75903 0.0
C1493 C 0.88169 0.51323 0.76552 0.0
C1494 C 0.84895 0.49583 0.75959 0.0
C1495 C 0.85459 0.47882 0.76675 0.0
C1496 C 0.8739 0.47906 0.77301 0.0
H1497 H 0.80568 0.35768 0.74487 0.0
H1498 H 0.82193 0.3914 0.74443 0.0
C1499 C 0.88728 0.49607 0.7725 0.0
C1500 C 0.8405 0.46056 0.76699 0.0
H1501 H 0.82397 0.42521 0.79658 0.0
C1502 C 0.8302 0.45216 0.7493 0.0
C1503 C 0.83763 0.45107 0.78438 0.0
C1504 C 0.84723 0.45997 0.80407 0.0
C1505 C 0.81783 0.4341 0.74836 0.0
C1506 C 0.81596 0.42398 0.76552 0.0
C1507 C 0.82555 0.43284 0.78337 0.0
C1508 C 0.80513 0.40371 0.76506 0.0
C1509 C 0.80695 0.42603 0.72896 0.0
C1510 C 0.79043 0.39924 0.77708 0.0
C1511 C 0.78115 0.37984 0.77746 0.0
C1512 C 0.78656 0.36459 0.76594 0.0
C1513 C 0.80111 0.36914 0.75381 0.0
C1514 C 0.81035 0.38845 0.75344 0.0
H1515 H 0.80495 0.43795 0.71924 0.0
H1516 H 0.81512 0.41599 0.72147 0.0
H1517 H 0.79275 0.41767 0.73092 0.0
H1518 H 0.78626 0.41075 0.78629 0.0
H1519 H 0.77004 0.37672 0.78702 0.0
H1520 H 0.98562 0.83871 0.15699 0.0
H1521 H 0.98779 0.86847 0.13912 0.0
H1522 H 0.01689 0.84107 0.09563 0.0
H1523 H 0.01397 0.81115 0.11287 0.0
H1524 H 0.01594 0.89394 0.12908 0.0
H1525 H 0.97483 0.85696 0.06123 0.0
H1526 H 0.97664 0.84496 0.08369 0.0
H1527 H 0.99536 0.84594 0.06782 0.0
C1528 C 0.99253 0.83911 0.14365 0.0
C1529 C 0.99942 0.82255 0.13619 0.0
C1530 C 0.99374 0.85609 0.13343 0.0
C1531 C 1.00201 0.85683 0.1157 0.0
C1532 C 0.00981 0.84063 0.10886 0.0
H1533 H 0.03943 0.96454 0.06109 0.0
H1534 H 0.0374 0.93491 0.07901 0.0
C1535 C 0.0083 0.82358 0.11884 0.0
C1536 C 1.00253 0.87448 0.10434 0.0
H1537 H 0.99188 0.88914 0.05868 0.0
C1538 C 0.01055 0.89291 0.11372 0.0
C1539 C 0.99514 0.87324 0.08437 0.0
C1540 C 0.98482 0.85424 0.07376 0.0
C1541 C 0.01178 0.91004 0.10363 0.0
C1542 C 0.00543 0.90861 0.08337 0.0
C1543 C 0.99704 0.89023 0.07411 0.0
C1544 C 0.00699 0.92601 0.07159 0.0
C1545 C 0.01944 0.9295 0.11496 0.0
C1546 C 0.99082 0.93031 0.06048 0.0
C1547 C 0.99209 0.94691 0.04976 0.0
C1548 C 0.00951 0.95961 0.05013 0.0
C1549 C 0.02579 0.95506 0.06075 0.0
C1550 C 0.02459 0.93826 0.07117 0.0
H1551 H 0.01778 0.92879 0.1308 0.0
H1552 H 0.03488 0.93339 0.11353 0.0
H1553 H 0.01212 0.94138 0.10939 0.0
H1554 H 0.97711 0.92102 0.06042 0.0
H1555 H 0.97933 0.95014 0.04169 0.0
H1556 H 0.95361 0.31248 0.87539 0.0
H1557 H 0.92272 0.3053 0.85597 0.0
H1558 H 0.94536 0.26809 0.81476 0.0
H1559 H 0.97672 0.27556 0.83409 0.0
H1560 H 0.92179 0.29042 0.79631 0.0
H1561 H 0.88584 0.25458 0.85537 0.0
H1562 H 0.89774 0.27892 0.86347 0.0
H1563 H 0.91144 0.26043 0.85636 0.0
C1564 C 0.95214 0.3028 0.86217 0.0
C1565 C 0.96769 0.29443 0.85646 0.0
C1566 C 0.93435 0.29858 0.85113 0.0
C1567 C 0.93148 0.28566 0.8342 0.0
C1568 C 0.94714 0.27791 0.82791 0.0
H1569 H 0.81142 0.24604 0.78687 0.0
H1570 H 0.84468 0.24505 0.79891 0.0
C1571 C 0.96509 0.28225 0.83894 0.0
C1572 C 0.91211 0.2805 0.82322 0.0
H1573 H 0.86542 0.265 0.82964 0.0
C1574 C 0.9095 0.28461 0.80352 0.0
C1575 C 0.89603 0.27243 0.8324 0.0
C1576 C 0.89791 0.26613 0.853 0.0
C1577 C 0.89121 0.28195 0.79314 0.0
C1578 C 0.87499 0.27544 0.80284 0.0
C1579 C 0.87773 0.27026 0.8222 0.0
C1580 C 0.85511 0.27524 0.79379 0.0
C1581 C 0.8895 0.28623 0.77189 0.0
C1582 C 0.84978 0.29246 0.78686 0.0
C1583 C 0.83089 0.29301 0.77985 0.0
C1584 C 0.81664 0.27642 0.77981 0.0
C1585 C 0.82199 0.25905 0.78653 0.0
C1586 C 0.84101 0.25849 0.79348 0.0
H1587 H 0.90247 0.28383 0.76499 0.0
H1588 H 0.87692 0.2769 0.76348 0.0
H1589 H 0.88801 0.30187 0.77081 0.0
H1590 H 0.86014 0.30577 0.78746 0.0
H1591 H 0.82742 0.30673 0.77497 0.0
H1592 H 0.47843 0.22797 0.59166 0.0
H1593 H 0.47868 0.19495 0.57709 0.0
H1594 H 0.50013 0.17789 0.63304 0.0
H1595 H 0.49968 0.21112 0.64785 0.0
H1596 H 0.52314 0.17317 0.60095 0.0
H1597 H 0.44752 0.13937 0.58096 0.0
H1598 H 0.45338 0.16423 0.57453 0.0
H1599 H 0.45483 0.15918 0.59986 0.0
C1600 C 0.48261 0.217 0.60101 0.0
C1601 C 0.48898 0.22205 0.62089 0.0
C1602 C 0.48271 0.19812 0.59266 0.0
C1603 C 0.48933 0.18394 0.60398 0.0
C1604 C 0.49482 0.18861 0.6241 0.0
H1605 H 0.50015 0.06619 0.55879 0.0
H1606 H 0.49261 0.09436 0.57791 0.0
C1607 C 0.49444 0.20751 0.63257 0.0
C1608 C 0.49276 0.16533 0.59413 0.0
H1609 H 0.47074 0.1248 0.56501 0.0
C1610 C 0.51168 0.16246 0.59329 0.0
C1611 C 0.47779 0.15144 0.5841 0.0
C1612 C 0.45721 0.15355 0.58499 0.0
C1613 C 0.51606 0.14636 0.5822 0.0
C1614 C 0.50113 0.13287 0.57157 0.0
C1615 C 0.48217 0.13535 0.57294 0.0
C1616 C 0.50499 0.11586 0.55929 0.0
C1617 C 0.53663 0.1439 0.58186 0.0
C1618 C 0.5142 0.11861 0.54228 0.0
C1619 C 0.5183 0.10246 0.53111 0.0
C1620 C 0.51325 0.08336 0.53683 0.0
C1621 C 0.50394 0.08071 0.55381 0.0
C1622 C 0.49969 0.09678 0.56482 0.0
H1623 H 0.54605 0.15323 0.59375 0.0
H1624 H 0.53826 0.12833 0.5833 0.0
H1625 H 0.54147 0.14814 0.56764 0.0
H1626 H 0.51826 0.13325 0.53769 0.0
H1627 H 0.52552 0.10492 0.51813 0.0
H1628 H 0.56351 0.77747 0.32332 0.0
H1629 H 0.59258 0.7743 0.30791 0.0
H1630 H 0.62647 0.80849 0.35711 0.0
H1631 H 0.59766 0.81124 0.37274 0.0
H1632 H 0.61917 0.80152 0.29583 0.0
H1633 H 0.65436 0.76276 0.35324 0.0
H1634 H 0.62975 0.76587 0.3528 0.0
H1635 H 0.64848 0.78557 0.36256 0.0
C1636 C 0.57717 0.78418 0.33092 0.0
C1637 C 0.57821 0.79448 0.34936 0.0
C1638 C 0.59381 0.78238 0.32208 0.0
C1639 C 0.61188 0.79081 0.33147 0.0
C1640 C 0.61286 0.80134 0.34975 0.0
H1641 H 0.72749 0.80233 0.29393 0.0
H1642 H 0.69972 0.80607 0.31162 0.0
C1643 C 0.59628 0.80302 0.35863 0.0
C1644 C 0.62959 0.78918 0.32189 0.0
H1645 H 0.67339 0.77488 0.32864 0.0
C1646 C 0.63095 0.7956 0.30301 0.0
C1647 C 0.64512 0.78152 0.33119 0.0
C1648 C 0.64433 0.77336 0.35098 0.0
C1649 C 0.64734 0.79473 0.29333 0.0
C1650 C 0.66283 0.78713 0.30265 0.0
C1651 C 0.66159 0.78085 0.32156 0.0
C1652 C 0.67993 0.78461 0.29249 0.0
C1653 C 0.64805 0.80215 0.27322 0.0
C1654 C 0.67816 0.77107 0.27613 0.0
C1655 C 0.69397 0.76876 0.26623 0.0
C1656 C 0.71198 0.77995 0.27239 0.0
C1657 C 0.71386 0.79338 0.28892 0.0
C1658 C 0.69798 0.79558 0.29898 0.0
H1659 H 0.63712 0.81161 0.26997 0.0
H1660 H 0.66232 0.81061 0.27173 0.0
H1661 H 0.64534 0.78945 0.2621 0.0
H1662 H 0.66448 0.76224 0.271 0.0
H1663 H 0.69203 0.75822 0.25361 0.0
H1664 H 0.01732 0.2372 0.47682 0.0
H1665 H 0.01433 0.20365 0.48626 0.0
H1666 H 0.01296 0.18228 0.42587 0.0
H1667 H 0.01648 0.21607 0.41622 0.0
H1668 H 0.98614 0.17248 0.47583 0.0
H1669 H 0.05518 0.15716 0.45258 0.0
H1670 H 0.04923 0.18156 0.45401 0.0
H1671 H 0.03898 0.16428 0.4338 0.0
C1672 C 0.0164 0.22542 0.46548 0.0
C1673 C 0.01724 0.22933 0.44577 0.0
C1674 C 0.01465 0.20623 0.47092 0.0
C1675 C 0.01361 0.19053 0.45679 0.0
C1676 C 0.0141 0.19426 0.43703 0.0
H1677 H 0.98737 0.07246 0.49861 0.0
H1678 H 0.985 0.10085 0.47944 0.0
C1679 C 0.01605 0.21355 0.43156 0.0
C1680 C 0.0122 0.17039 0.46314 0.0
H1681 H 0.03685 0.13225 0.46756 0.0
C1682 C 0.99711 0.16355 0.4739 0.0
C1683 C 0.02661 0.15891 0.4606 0.0
C1684 C 0.04351 0.16584 0.44976 0.0
C1685 C 0.9965 0.14594 0.48302 0.0
C1686 C 0.0111 0.13462 0.48078 0.0
C1687 C 0.0257 0.14101 0.46924 0.0
C1688 C 0.01249 0.11702 0.49161 0.0
C1689 C 0.98081 0.14024 0.49581 0.0
C1690 C 0.0289 0.1165 0.50438 0.0
C1691 C 0.03051 0.10006 0.51476 0.0
C1692 C 0.01573 0.08392 0.51252 0.0
C1693 C 0.99916 0.08456 0.50008 0.0
C1694 C 0.99767 0.10087 0.48941 0.0
H1695 H 0.97359 0.15281 0.49973 0.0
H1696 H 0.96993 0.12852 0.4878 0.0
H1697 H 0.98644 0.13453 0.50952 0.0
H1698 H 0.04046 0.12886 0.50635 0.0
H1699 H 0.04342 0.09989 0.52433 0.0
H1700 H 0.5748 0.30482 0.11026 0.0
H1701 H 0.60315 0.30304 0.13272 0.0
H1702 H 0.5698 0.30371 0.18165 0.0
H1703 H 0.54149 0.30549 0.15951 0.0
H1704 H 0.60756 0.32942 0.18634 0.0
H1705 H 0.60805 0.25136 0.16172 0.0
H1706 H 0.60666 0.26806 0.14278 0.0
H1707 H 0.58727 0.26298 0.15744 0.0
C1708 C 0.57356 0.30481 0.12581 0.0
C1709 C 0.55587 0.3051 0.13308 0.0
C1710 C 0.58971 0.30371 0.13858 0.0
C1711 C 0.5884 0.30302 0.15874 0.0
C1712 C 0.571 0.30414 0.16611 0.0
H1713 H 0.67095 0.26573 0.24436 0.0
H1714 H 0.64092 0.27103 0.22651 0.0
C1715 C 0.55485 0.30509 0.1534 0.0
C1716 C 0.60498 0.30037 0.17215 0.0
H1717 H 0.6338 0.26712 0.18422 0.0
C1718 C 0.61332 0.31582 0.18594 0.0
C1719 C 0.6121 0.28244 0.17177 0.0
C1720 C 0.60302 0.26515 0.15776 0.0
C1721 C 0.6291 0.31399 0.19904 0.0
C1722 C 0.63664 0.2963 0.19817 0.0
C1723 C 0.62794 0.28066 0.18477 0.0
C1724 C 0.65431 0.29412 0.21013 0.0
C1725 C 0.63759 0.33094 0.21369 0.0
C1726 C 0.6716 0.30536 0.20673 0.0
C1727 C 0.68863 0.30226 0.21671 0.0
C1728 C 0.68861 0.28789 0.23024 0.0
C1729 C 0.67126 0.27691 0.23399 0.0
C1730 C 0.65418 0.27992 0.22385 0.0
H1731 H 0.62743 0.3413 0.21584 0.0
H1732 H 0.64196 0.3256 0.22805 0.0
H1733 H 0.65046 0.33914 0.20831 0.0
H1734 H 0.67198 0.31616 0.19597 0.0
H1735 H 0.70184 0.31094 0.2136 0.0
H1736 H 0.54245 0.82192 0.96359 0.0
H1737 H 0.54211 0.85512 0.97738 0.0
H1738 H 0.54646 0.87687 0.92032 0.0
H1739 H 0.54655 0.84338 0.90622 0.0
H1740 H 0.56873 0.88973 0.97738 0.0
H1741 H 0.49809 0.89513 0.93834 0.0
H1742 H 0.50681 0.8721 0.93985 0.0
H1743 H 0.51596 0.88936 0.92325 0.0
C1744 C 0.54341 0.83375 0.95393 0.0
C1745 C 0.54438 0.83005 0.93379 0.0
C1746 C 0.54327 0.85271 0.96187 0.0
C1747 C 0.54405 0.86836 0.94983 0.0
C1748 C 0.54558 0.86489 0.92978 0.0
H1749 H 0.55551 0.99075 0.99475 0.0
H1750 H 0.5616 0.95973 0.97996 0.0
C1751 C 0.54572 0.84582 0.92178 0.0
C1752 C 0.54266 0.8881 0.95846 0.0
H1753 H 0.51314 0.92229 0.9595 0.0
C1754 C 0.55667 0.89697 0.97339 0.0
C1755 C 0.52675 0.89727 0.95336 0.0
C1756 C 0.51093 0.88798 0.93794 0.0
C1757 C 0.55508 0.91473 0.98357 0.0
C1758 C 0.53918 0.92389 0.97847 0.0
C1759 C 0.52531 0.91516 0.96335 0.0
C1760 C 0.53638 0.94238 0.98883 0.0
C1761 C 0.57008 0.92321 1.0001 0.0
C1762 C 0.52019 0.94288 0.99875 0.0
C1763 C 0.51658 0.96061 0.00719 0.0
C1764 C 0.52912 0.97817 0.00578 0.0
C1765 C 0.54567 0.97748 0.99636 0.0
C1766 C 0.5492 0.95976 0.98787 0.0
H1767 H 0.57887 0.9122 0.00508 0.0
H1768 H 0.57971 0.93565 0.99503 0.0
H1769 H 0.56346 0.92888 0.01276 0.0
H1770 H 0.51011 0.92957 0.9996 0.0
H1771 H 0.50368 0.96062 0.01426 0.0
H1772 H 0.97258 0.77527 0.67773 0.0
H1773 H 0.94687 0.77206 0.69885 0.0
H1774 H 0.90856 0.78743 0.65221 0.0
H1775 H 0.93417 0.79046 0.63085 0.0
H1776 H 0.92849 0.80295 0.70951 0.0
H1777 H 0.87715 0.73971 0.67298 0.0
H1778 H 0.90172 0.74465 0.66794 0.0
H1779 H 0.88458 0.7582 0.65684 0.0
C1780 C 0.9586 0.77763 0.67184 0.0
C1781 C 0.95537 0.78318 0.65266 0.0
C1782 C 0.94395 0.77581 0.68394 0.0
C1783 C 0.92584 0.77939 0.67703 0.0
C1784 C 0.92238 0.78427 0.65768 0.0
H1785 H 0.83745 0.81851 0.73653 0.0
H1786 H 0.86603 0.8157 0.72028 0.0
C1787 C 0.93703 0.78608 0.64553 0.0
C1788 C 0.91106 0.77969 0.69056 0.0
H1789 H 0.86551 0.75993 0.69692 0.0
C1790 C 0.91478 0.7934 0.7069 0.0
C1791 C 0.89333 0.76707 0.68719 0.0
C1792 C 0.88897 0.75144 0.67039 0.0
C1793 C 0.90092 0.7953 0.71965 0.0
C1794 C 0.88286 0.78335 0.71573 0.0
C1795 C 0.87937 0.76916 0.69978 0.0
C1796 C 0.86705 0.78581 0.72746 0.0
C1797 C 0.90569 0.8101 0.73715 0.0
C1798 C 0.85828 0.76996 0.73689 0.0
C1799 C 0.84197 0.77152 0.74609 0.0
C1800 C 0.83416 0.78891 0.74584 0.0
C1801 C 0.84332 0.80501 0.73701 0.0
C1802 C 0.85964 0.80343 0.7278 0.0
H1803 H 0.92133 0.81392 0.74116 0.0
H1804 H 0.90024 0.82376 0.73359 0.0
H1805 H 0.89895 0.80447 0.75002 0.0
H1806 H 0.86377 0.75622 0.73667 0.0
H1807 H 0.83508 0.75887 0.75275 0.0
H1808 H 0.14811 0.99141 0.86279 0.0
H1809 H 0.12918 0.98994 0.89092 0.0
H1810 H 0.08558 0.0144 0.85767 0.0
H1811 H 0.10393 0.01532 0.82966 0.0
H1812 H 0.11468 0.01731 0.9131 0.0
H1813 H 0.05519 0.96471 0.87325 0.0
H1814 H 0.07808 0.97027 0.86404 0.0
H1815 H 0.06061 0.9862 0.86023 0.0
C1816 C 0.13456 0.99661 0.86161 0.0
C1817 C 0.12739 0.00324 0.84395 0.0
C1818 C 0.12373 0.9957 0.87763 0.0
C1819 C 0.10566 1.00147 0.87618 0.0
C1820 C 0.09913 0.00919 0.85893 0.0
H1821 H 0.02328 0.03208 0.94762 0.0
H1822 H 0.04346 0.02533 0.92208 0.0
C1823 C 0.10975 0.00987 0.84295 0.0
C1824 C 0.09339 0.9995 0.89246 0.0
H1825 H 0.04786 0.98252 0.90203 0.0
C1826 C 0.1002 0.0094 0.9108 0.0
C1827 C 0.07451 0.98898 0.88955 0.0
C1828 C 0.06674 0.97677 0.87076 0.0
C1829 C 0.08827 0.00999 0.92587 0.0
C1830 C 0.06911 1.00051 0.92245 0.0
C1831 C 0.06253 0.98991 0.90448 0.0
C1832 C 0.05541 0.00271 0.93692 0.0
C1833 C 0.0959 0.02137 0.94514 0.0
C1834 C 0.05497 0.99167 0.95333 0.0
C1835 C 0.04323 0.99529 0.96786 0.0
C1836 C 0.03194 0.01019 0.96627 0.0
C1837 C 0.03177 0.02051 0.94929 0.0
C1838 C 0.04334 0.01673 0.93472 0.0
H1839 H 0.11102 0.02838 0.94533 0.0
H1840 H 0.08718 0.03294 0.94816 0.0
H1841 H 0.09478 0.01139 0.95715 0.0
H1842 H 0.06418 0.98075 0.95522 0.0
H1843 H 0.0439 0.98723 0.98084 0.0
H1844 H 0.73447 0.39277 0.58607 0.0
H1845 H 0.73904 0.38115 0.61914 0.0
H1846 H 0.71996 0.32152 0.59517 0.0
H1847 H 0.71557 0.33286 0.56249 0.0
H1848 H 0.71457 0.35571 0.6433 0.0
H1849 H 0.77504 0.32177 0.62052 0.0
H1850 H 0.7652 0.33998 0.60689 0.0
H1851 H 0.75355 0.3148 0.60422 0.0
C1852 C 0.73081 0.37726 0.58797 0.0
C1853 C 0.72481 0.36375 0.57158 0.0
C1854 C 0.73354 0.3706 0.60686 0.0
C1855 C 0.73028 0.35038 0.60961 0.0
C1856 C 0.72299 0.33712 0.59343 0.0
H1857 H 0.74032 0.26579 0.69444 0.0
H1858 H 0.73549 0.28478 0.66606 0.0
C1859 C 0.72039 0.34368 0.57472 0.0
C1860 C 0.73544 0.34264 0.62889 0.0
H1861 H 0.76283 0.31157 0.64995 0.0
C1862 C 0.72531 0.34631 0.64488 0.0
C1863 C 0.74951 0.33037 0.63104 0.0
C1864 C 0.7616 0.32662 0.61483 0.0
C1865 C 0.72824 0.33727 0.66255 0.0
C1866 C 0.74182 0.32441 0.66437 0.0
C1867 C 0.75235 0.32131 0.64859 0.0
C1868 C 0.74467 0.31315 0.68201 0.0
C1869 C 0.71622 0.34088 0.67883 0.0
C1870 C 0.7516 0.32266 0.70053 0.0
C1871 C 0.75451 0.31173 0.71681 0.0
C1872 C 0.75064 0.2911 0.71493 0.0
C1873 C 0.74361 0.28166 0.6964 0.0
C1874 C 0.74082 0.29252 0.68014 0.0
H1875 H 0.70394 0.34802 0.67381 0.0
H1876 H 0.71077 0.32688 0.68501 0.0
H1877 H 0.7251 0.35064 0.69076 0.0
H1878 H 0.75484 0.33853 0.70241 0.0
H1879 H 0.75926 0.31944 0.73091 0.0
H1880 H 0.44942 0.06874 0.29997 0.0
H1881 H 0.4631 0.06341 0.33271 0.0
H1882 H 0.41068 0.07169 0.35579 0.0
H1883 H 0.39673 0.07665 0.32287 0.0
H1884 H 0.46975 0.08756 0.3661 0.0
H1885 H 0.41958 0.02055 0.37774 0.0
H1886 H 0.42089 0.03025 0.35408 0.0
H1887 H 0.40808 0.04106 0.37199 0.0
C1888 C 0.44073 0.06934 0.31197 0.0
C1889 C 0.42191 0.07303 0.30874 0.0
C1890 C 0.44861 0.06632 0.33074 0.0
C1891 C 0.43788 0.06684 0.34677 0.0
C1892 C 0.41914 0.07075 0.34364 0.0
H1893 H 0.46284 0.05417 0.47136 0.0
H1894 H 0.44897 0.06048 0.43901 0.0
C1895 C 0.41121 0.07372 0.32481 0.0
C1896 C 0.44655 0.0637 0.36673 0.0
H1897 H 0.44117 0.03477 0.40505 0.0
C1898 C 0.46352 0.07597 0.37457 0.0
C1899 C 0.43849 0.04856 0.37785 0.0
C1900 C 0.42086 0.03422 0.36995 0.0
C1901 C 0.47244 0.07372 0.39325 0.0
C1902 C 0.46435 0.05861 0.40437 0.0
C1903 C 0.44737 0.04638 0.39657 0.0
C1904 C 0.47323 0.05527 0.42415 0.0
C1905 C 0.49025 0.0878 0.40108 0.0
C1906 C 0.49153 0.05014 0.42666 0.0
C1907 C 0.49956 0.04651 0.44522 0.0
C1908 C 0.48945 0.04787 0.4617 0.0
C1909 C 0.47114 0.05306 0.4591 0.0
C1910 C 0.46312 0.05663 0.44055 0.0
H1911 H 0.4919 0.10134 0.3931 0.0
H1912 H 0.49016 0.09201 0.41689 0.0
H1913 H 0.50286 0.08058 0.39932 0.0
H1914 H 0.4995 0.04862 0.4142 0.0
H1915 H 0.5136 0.04239 0.44657 0.0
H1916 H 0.76973 0.72091 0.02056 0.0
H1917 H 0.7694 0.73684 0.05307 0.0
H1918 H 0.78336 0.68517 0.07922 0.0
H1919 H 0.78376 0.66894 0.04668 0.0
H1920 H 0.74461 0.72024 0.08136 0.0
H1921 H 0.82166 0.73283 0.10858 0.0
H1922 H 0.81316 0.72909 0.08284 0.0
H1923 H 0.81191 0.70859 0.0977 0.0
C1924 C 0.77291 0.71292 0.03318 0.0
C1925 C 0.7767 0.69357 0.031 0.0
C1926 C 0.77272 0.72209 0.05173 0.0
C1927 C 0.77651 0.7122 0.06842 0.0
C1928 C 0.78065 0.69307 0.06642 0.0
H1929 H 0.77566 0.7308 0.19187 0.0
H1930 H 0.77954 0.72025 0.15822 0.0
C1931 C 0.78075 0.68381 0.04783 0.0
C1932 C 0.77483 0.72143 0.08788 0.0
H1933 H 0.80015 0.7386 0.13163 0.0
C1934 C 0.75673 0.72442 0.09236 0.0
C1935 C 0.79073 0.7268 0.10202 0.0
C1936 C 0.81053 0.72434 0.09759 0.0
C1937 C 0.75395 0.73203 0.11099 0.0
C1938 C 0.76983 0.73722 0.12528 0.0
C1939 C 0.78802 0.73462 0.12061 0.0
C1940 C 0.76771 0.74415 0.14555 0.0
C1941 C 0.73395 0.73367 0.11541 0.0
C1942 C 0.75995 0.76121 0.14955 0.0
C1943 C 0.75745 0.76711 0.16879 0.0
C1944 C 0.763 0.75618 0.1842 0.0
C1945 C 0.77118 0.73941 0.1802 0.0
C1946 C 0.77347 0.73342 0.16102 0.0
H1947 H 0.72306 0.72465 0.10453 0.0
H1948 H 0.73145 0.72897 0.13021 0.0
H1949 H 0.73185 0.74919 0.11496 0.0
H1950 H 0.75583 0.76994 0.13784 0.0
H1951 H 0.75132 0.78023 0.17161 0.0
H1952 H 0.14463 0.006 0.73164 0.0
H1953 H 0.13358 0.00569 0.69666 0.0
H1954 H 0.07553 0.98907 0.70922 0.0
H1955 H 0.08635 0.98924 0.74388 0.0
H1956 H 0.08454 0.97026 0.67368 0.0
H1957 H 0.10549 0.05164 0.68019 0.0
H1958 H 0.12382 0.03751 0.68703 0.0
H1959 H 0.10408 0.03749 0.70131 0.0
C1960 C 0.12958 1.0018 0.72683 0.0
C1961 C 0.11632 0.99793 0.7405 0.0
C1962 C 0.12329 1.00175 0.70691 0.0
C1963 C 0.10372 0.99767 0.70047 0.0
C1964 C 0.09067 0.99234 0.71391 0.0
H1965 H 0.03412 0.03686 0.60732 0.0
H1966 H 0.04994 0.02899 0.63838 0.0
C1967 C 0.09689 0.99253 0.73372 0.0
C1968 C 0.09639 1.0008 0.68027 0.0
H1969 H 0.08948 0.03711 0.65026 0.0
C1970 C 0.08582 0.98481 0.6684 0.0
C1971 C 0.09777 0.01989 0.67367 0.0
C1972 C 0.10827 0.0377 0.68619 0.0
C1973 C 0.07639 0.98745 0.65014 0.0
C1974 C 0.07773 0.00657 0.64361 0.0
C1975 C 0.08853 0.02249 0.65535 0.0
C1976 C 0.06765 0.01053 0.62485 0.0
C1977 C 0.0645 0.96992 0.63831 0.0
C1978 C 0.07239 0.00276 0.60703 0.0
C1979 C 0.06342 0.00726 0.58936 0.0
C1980 C 0.04962 0.01966 0.58923 0.0
C1981 C 0.04472 0.02728 0.60705 0.0
C1982 C 0.05375 0.02281 0.62475 0.0
H1983 H 0.06154 0.95716 0.64724 0.0
H1984 H 0.05074 0.97362 0.632 0.0
H1985 H 0.07228 0.96546 0.62603 0.0
H1986 H 0.08328 0.99351 0.60678 0.0
H1987 H 0.06742 1.00116 0.57578 0.0
H1988 H 0.72436 0.34676 0.47803 0.0
H1989 H 0.72934 0.33203 0.44616 0.0
H1990 H 0.72611 0.38705 0.42088 0.0
H1991 H 0.72138 0.40204 0.45294 0.0
H1992 H 0.70656 0.3269 0.41138 0.0
H1993 H 0.77547 0.37356 0.40286 0.0
H1994 H 0.76525 0.37284 0.42584 0.0
H1995 H 0.75648 0.38699 0.40697 0.0
C1996 C 0.72477 0.35581 0.46573 0.0
C1997 C 0.72255 0.37565 0.46812 0.0
C1998 C 0.72759 0.34731 0.44746 0.0
C1999 C 0.72836 0.35842 0.43106 0.0
C2000 C 0.72596 0.37822 0.43333 0.0
H2001 H 0.71981 0.30734 0.30967 0.0
H2002 H 0.71362 0.32325 0.34061 0.0
C2003 C 0.72314 0.38676 0.45167 0.0
C2004 C 0.73139 0.34906 0.41166 0.0
H2005 H 0.76157 0.35149 0.37581 0.0
C2006 C 0.71857 0.33232 0.40359 0.0
C2007 C 0.7472 0.35591 0.40154 0.0
C2008 C 0.76201 0.3732 0.40978 0.0
C2009 C 0.72105 0.32237 0.38577 0.0
C2010 C 0.73665 0.32943 0.37547 0.0
C2011 C 0.74952 0.34611 0.38357 0.0
C2012 C 0.74019 0.31943 0.35658 0.0
C2013 C 0.7072 0.30403 0.37841 0.0
C2014 C 0.75732 0.31217 0.35501 0.0
C2015 C 0.76093 0.30306 0.3373 0.0
C2016 C 0.74754 0.30105 0.3206 0.0
C2017 C 0.73038 0.30834 0.32221 0.0
C2018 C 0.72678 0.31745 0.33996 0.0
H2019 H 0.69908 0.29782 0.3902 0.0
H2020 H 0.69683 0.30764 0.3667 0.0
H2021 H 0.71471 0.29261 0.37216 0.0
H2022 H 0.76794 0.31354 0.36755 0.0
H2023 H 0.77436 0.29779 0.33668 0.0
H2024 H 0.46382 0.07522 0.21548 0.0
H2025 H 0.47409 0.07053 0.18308 0.0
H2026 H 0.41549 0.05666 0.15812 0.0
H2027 H 0.405 0.06164 0.19089 0.0
H2028 H 0.46663 0.03548 0.16059 0.0
H2029 H 0.43955 0.09414 0.11985 0.0
H2030 H 0.44142 0.09462 0.14622 0.0
H2031 H 0.42238 0.07846 0.13174 0.0
C2032 C 0.45303 0.07153 0.20309 0.0
C2033 C 0.43355 0.06878 0.20585 0.0
C2034 C 0.45896 0.06878 0.18452 0.0
C2035 C 0.44564 0.06316 0.16805 0.0
C2036 C 0.4261 0.06121 0.17052 0.0
H2037 H 0.48912 0.01383 0.06221 0.0
H2038 H 0.46917 0.01744 0.08903 0.0
C2039 C 0.42009 0.06411 0.18926 0.0
C2040 C 0.45261 0.05821 0.14882 0.0
H2041 H 0.45604 0.07293 0.10254 0.0
C2042 C 0.46414 0.04355 0.14783 0.0
C2043 C 0.44948 0.06876 0.13216 0.0
C2044 C 0.43766 0.08499 0.13245 0.0
C2045 C 0.47305 0.03956 0.13099 0.0
C2046 C 0.47012 0.05026 0.11438 0.0
C2047 C 0.45819 0.0646 0.11517 0.0
C2048 C 0.48075 0.04809 0.09688 0.0
C2049 C 0.48627 0.02456 0.1315 0.0
C2050 C 0.49345 0.06418 0.09186 0.0
C2051 C 0.50468 0.06215 0.07651 0.0
C2052 C 0.50342 0.04401 0.06564 0.0
C2053 C 0.49031 0.028 0.07022 0.0
C2054 C 0.47904 0.03003 0.08567 0.0
H2055 H 0.49005 0.02065 0.14662 0.0
H2056 H 0.47919 0.01097 0.12267 0.0
H2057 H 0.49961 0.0301 0.12514 0.0
H2058 H 0.49505 0.07826 0.10017 0.0
H2059 H 0.5145 0.07484 0.07325 0.0
H2060 H 0.81932 0.66246 0.93925 0.0
H2061 H 0.82267 0.68138 0.91038 0.0
H2062 H 0.76151 0.67425 0.89894 0.0
H2063 H 0.75817 0.65541 0.92781 0.0
H2064 H 0.79049 0.67444 0.86368 0.0
H2065 H 0.79887 0.73668 0.92108 0.0
H2066 H 0.8109 0.71602 0.92516 0.0
H2067 H 0.78549 0.71299 0.92459 0.0
C2068 C 0.80666 0.66412 0.92994 0.0
C2069 C 0.78851 0.65737 0.93537 0.0
C2070 C 0.80858 0.67497 0.91359 0.0
C2071 C 0.79233 0.67915 0.90269 0.0
C2072 C 0.77417 0.67094 0.90714 0.0
H2073 H 0.75407 0.76414 0.83446 0.0
H2074 H 0.76246 0.74283 0.85975 0.0
C2075 C 0.77227 0.66016 0.92352 0.0
C2076 C 0.79406 0.6948 0.88914 0.0
H2077 H 0.7962 0.74435 0.88832 0.0
C2078 C 0.79208 0.68977 0.86896 0.0
C2079 C 0.79598 0.71468 0.89629 0.0
C2080 C 0.79791 0.72059 0.91795 0.0
C2081 C 0.79141 0.70424 0.85561 0.0
C2082 C 0.7928 0.72409 0.86279 0.0
C2083 C 0.79531 0.72912 0.88298 0.0
C2084 C 0.78956 0.73945 0.84957 0.0
C2085 C 0.78829 0.69816 0.83396 0.0
C2086 C 0.80251 0.74532 0.83619 0.0
C2087 C 0.79784 0.75762 0.82179 0.0
C2088 C 0.78007 0.76406 0.82056 0.0
C2089 C 0.7678 0.75933 0.83496 0.0
C2090 C 0.77255 0.74714 0.84939 0.0
H2091 H 0.785 0.68195 0.83093 0.0
H2092 H 0.77643 0.70472 0.82686 0.0
H2093 H 0.80134 0.70364 0.8271 0.0
H2094 H 0.81583 0.73967 0.83634 0.0
H2095 H 0.8076 0.76096 0.8109 0.0
H2096 H 0.82828 0.10811 0.01124 0.0
H2097 H 0.85511 0.0899 0.01259 0.0
H2098 H 0.89374 0.14346 0.00774 0.0
H2099 H 0.86699 0.16176 0.0064 0.0
H2100 H 0.88111 0.08607 0.98462 0.0
H2101 H 0.91892 0.12049 0.05545 0.0
H2102 H 0.89446 0.12245 0.04782 0.0
H2103 H 0.91351 0.1375 0.03785 0.0
C2104 C 0.84249 0.11608 0.01062 0.0
C2105 C 0.8454 0.13648 0.00881 0.0
C2106 C 0.85786 0.1056 0.01132 0.0
C2107 C 0.87659 0.11525 0.01047 0.0
C2108 C 0.87954 0.13564 0.00875 0.0
H2109 H 0.97366 0.05471 0.98656 0.0
H2110 H 0.94914 0.07609 0.98448 0.0
C2111 C 0.86417 0.14611 0.00792 0.0
C2112 C 0.8929 0.10391 0.01095 0.0
H2113 H 0.93474 0.09901 0.03744 0.0
C2114 C 0.89286 0.08896 0.99614 0.0
C2115 C 0.90823 0.10747 0.02605 0.0
C2116 C 0.90881 0.12272 0.04281 0.0
C2117 C 0.90765 0.07761 0.99598 0.0
C2118 C 0.92312 0.08134 0.01093 0.0
C2119 C 0.92309 0.09624 0.0258 0.0
C2120 C 0.93875 0.06912 0.01219 0.0
C2121 C 0.90627 0.06129 0.98008 0.0
C2122 C 0.9416 0.05846 0.02864 0.0
C2123 C 0.95561 0.04639 0.02986 0.0
C2124 C 0.96741 0.04475 0.01477 0.0
C2125 C 0.96494 0.05575 0.99848 0.0
C2126 C 0.95075 0.06781 0.9972 0.0
H2127 H 0.89166 0.05747 0.97235 0.0
H2128 H 0.91616 0.06603 0.96915 0.0
H2129 H 0.91042 0.0479 0.98619 0.0
H2130 H 0.9327 0.0592 0.04046 0.0
H2131 H 0.9572 0.03828 0.04272 0.0
H2132 H 0.33354 0.41035 0.06231 0.0
H2133 H 0.3655 0.4294 0.06403 0.0
H2134 H 0.34228 0.47677 0.0378 0.0
H2135 H 0.3101 0.458 0.03672 0.0
H2136 H 0.38234 0.43934 0.0329 0.0
H2137 H 0.38062 0.50713 0.07943 0.0
H2138 H 0.36229 0.4858 0.07834 0.0
H2139 H 0.36197 0.50276 0.05955 0.0
C2140 C 0.33521 0.42501 0.0573 0.0
C2141 C 0.31936 0.4327 0.04933 0.0
C2142 C 0.35347 0.43588 0.0583 0.0
C2143 C 0.35631 0.45457 0.05117 0.0
C2144 C 0.34043 0.46259 0.04383 0.0
H2145 H 0.45224 0.52509 0.01033 0.0
H2146 H 0.42096 0.51041 0.0188 0.0
C2147 C 0.32205 0.45182 0.04313 0.0
C2148 C 0.37595 0.46454 0.04943 0.0
H2149 H 0.40685 0.5077 0.06001 0.0
C2150 C 0.38776 0.45419 0.03908 0.0
C2151 C 0.38299 0.48396 0.0574 0.0
C2152 C 0.37137 0.49549 0.06947 0.0
C2153 C 0.40624 0.46284 0.03615 0.0
C2154 C 0.4131 0.48233 0.04378 0.0
C2155 C 0.40145 0.49271 0.05423 0.0
C2156 C 0.43209 0.49234 0.04015 0.0
C2157 C 0.41818 0.4513 0.02447 0.0
C2158 C 0.44863 0.48714 0.04959 0.0
C2159 C 0.46656 0.49553 0.04485 0.0
C2160 C 0.46814 0.50913 0.03048 0.0
C2161 C 0.4515 0.51458 0.02138 0.0
C2162 C 0.43362 0.50631 0.02626 0.0
H2163 H 0.40989 0.43724 0.01751 0.0
H2164 H 0.42418 0.46012 0.0129 0.0
H2165 H 0.4303 0.44794 0.03428 0.0
H2166 H 0.44764 0.47633 0.06035 0.0
H2167 H 0.47911 0.49095 0.05203 0.0
H2168 H 0.3755 0.62291 0.74711 0.0
H2169 H 0.35929 0.65136 0.75097 0.0
H2170 H 0.30492 0.61387 0.73703 0.0
H2171 H 0.32101 0.58525 0.73299 0.0
H2172 H 0.32587 0.663 0.72051 0.0
H2173 H 0.31001 0.64613 0.79592 0.0
H2174 H 0.33043 0.63911 0.78546 0.0
H2175 H 0.30703 0.6262 0.77714 0.0
C2176 C 0.3601 0.62071 0.74457 0.0
C2177 C 0.34955 0.60177 0.73975 0.0
C2178 C 0.35087 0.63701 0.74681 0.0
C2179 C 0.33093 0.63468 0.7444 0.0
C2180 C 0.32034 0.61593 0.73901 0.0
H2181 H 0.25135 0.71621 0.73791 0.0
H2182 H 0.27039 0.69048 0.73275 0.0
C2183 C 0.32956 0.59962 0.73664 0.0
C2184 C 0.32118 0.65171 0.74836 0.0
H2185 H 0.29777 0.67282 0.78286 0.0
C2186 C 0.31974 0.66521 0.73413 0.0
C2187 C 0.31352 0.6547 0.76628 0.0
C2188 C 0.31531 0.64088 0.78221 0.0
C2189 C 0.31042 0.68144 0.73718 0.0
C2190 C 0.30211 0.68407 0.75487 0.0
C2191 C 0.30405 0.67081 0.7693 0.0
C2192 C 0.2906 0.69991 0.75828 0.0
C2193 C 0.30976 0.69573 0.7215 0.0
C2194 C 0.29507 0.71342 0.77485 0.0
C2195 C 0.28391 0.72809 0.77804 0.0
C2196 C 0.26814 0.72948 0.76471 0.0
C2197 C 0.26349 0.71566 0.74843 0.0
C2198 C 0.27452 0.70103 0.7453 0.0
H2199 H 0.32158 0.69533 0.71219 0.0
H2200 H 0.29616 0.69169 0.71187 0.0
H2201 H 0.31058 0.71099 0.72796 0.0
H2202 H 0.30722 0.71265 0.78528 0.0
H2203 H 0.28743 0.73809 0.791 0.0
H2204 H 0.22174 0.66502 0.48136 0.0
H2205 H 0.19105 0.64458 0.48373 0.0
H2206 H 0.21957 0.6018 0.51207 0.0
H2207 H 0.2505 0.62227 0.50988 0.0
H2208 H 0.17639 0.60469 0.4698 0.0
H2209 H 0.18205 0.61592 0.551 0.0
H2210 H 0.19728 0.63113 0.53652 0.0
H2211 H 0.20148 0.60676 0.54079 0.0
C2212 C 0.22159 0.6512 0.48799 0.0
C2213 C 0.23869 0.64541 0.49556 0.0
C2214 C 0.20397 0.6395 0.48931 0.0
C2215 C 0.20295 0.6218 0.49836 0.0
C2216 C 0.21998 0.61557 0.50531 0.0
H2217 H 0.10081 0.54636 0.52977 0.0
H2218 H 0.13386 0.55996 0.52525 0.0
C2219 C 0.23768 0.62723 0.50391 0.0
C2220 C 0.18398 0.61029 0.50086 0.0
H2221 H 0.15412 0.59645 0.53532 0.0
C2222 C 0.17155 0.60279 0.48413 0.0
C2223 C 0.17767 0.60772 0.51956 0.0
C2224 C 0.1902 0.61589 0.53804 0.0
C2225 C 0.153 0.59293 0.48557 0.0
C2226 C 0.14645 0.59094 0.50425 0.0
C2227 C 0.15906 0.598 0.521 0.0
C2228 C 0.12637 0.58235 0.50672 0.0
C2229 C 0.14067 0.5846 0.46701 0.0
C2230 C 0.11112 0.59053 0.49807 0.0
C2231 C 0.09228 0.58275 0.50059 0.0
C2232 C 0.08825 0.56675 0.51201 0.0
C2233 C 0.10349 0.55868 0.52087 0.0
C2234 C 0.12237 0.56645 0.51829 0.0
H2235 H 0.14942 0.58166 0.45501 0.0
H2236 H 0.13124 0.57075 0.46933 0.0
H2237 H 0.1316 0.59541 0.46219 0.0
H2238 H 0.11377 0.60311 0.48952 0.0
H2239 H 0.08085 0.58935 0.49367 0.0
H2240 H 0.62743 0.92436 0.78874 0.0
H2241 H 0.64655 0.89781 0.78881 0.0
H2242 H 0.69146 0.93541 0.76523 0.0
H2243 H 0.67269 0.96203 0.76554 0.0
H2244 H 0.66185 0.8779 0.76031 0.0
H2245 H 0.72024 0.9187 0.81287 0.0
H2246 H 0.69763 0.92696 0.80822 0.0
H2247 H 0.71564 0.93186 0.79176 0.0
C2248 C 0.64135 0.92694 0.78347 0.0
C2249 C 0.64856 0.94541 0.77728 0.0
C2250 C 0.65229 0.91174 0.78355 0.0
C2251 C 0.67071 0.91468 0.77748 0.0
C2252 C 0.67757 0.93287 0.77054 0.0
H2253 H 0.75364 0.84388 0.74822 0.0
H2254 H 0.73087 0.86663 0.75072 0.0
C2255 C 0.66672 0.94808 0.77057 0.0
C2256 C 0.6828 0.89887 0.77842 0.0
H2257 H 0.72684 0.88975 0.7958 0.0
C2258 C 0.67596 0.88045 0.76826 0.0
C2259 C 0.70121 0.902 0.78896 0.0
C2260 C 0.70905 0.92088 0.80123 0.0
C2261 C 0.68729 0.86551 0.76773 0.0
C2262 C 0.7059 0.869 0.77759 0.0
C2263 C 0.71256 0.88713 0.7882 0.0
C2264 C 0.71913 0.8545 0.77598 0.0
C2265 C 0.67958 0.84617 0.75628 0.0
C2266 C 0.72011 0.84006 0.78939 0.0
C2267 C 0.73323 0.82698 0.78803 0.0
C2268 C 0.74555 0.82817 0.77324 0.0
C2269 C 0.74442 0.84262 0.75984 0.0
C2270 C 0.73136 0.8556 0.76119 0.0
H2271 H 0.66455 0.84538 0.74998 0.0
H2272 H 0.68845 0.84396 0.7442 0.0
H2273 H 0.68044 0.83396 0.76591 0.0
H2274 H 0.71087 0.83905 0.801 0.0
H2275 H 0.73401 0.81625 0.79876 0.0
H2276 H 0.73118 0.9773 0.54225 0.0
H2277 H 0.70614 0.99774 0.53817 0.0
H2278 H 0.66347 0.94564 0.52876 0.0
H2279 H 0.68828 0.92516 0.53261 0.0
H2280 H 0.67796 0.99263 0.50145 0.0
H2281 H 0.64524 0.98391 0.57118 0.0
H2282 H 0.66952 0.98061 0.56874 0.0
H2283 H 0.6501 0.96179 0.55894 0.0
C2284 C 0.71643 0.97024 0.53966 0.0
C2285 C 0.71165 0.94966 0.53772 0.0
C2286 C 0.7022 0.98191 0.53725 0.0
C2287 C 0.68304 0.97313 0.53323 0.0
C2288 C 0.6782 0.95264 0.53201 0.0
H2289 H 0.57798 1.00218 0.48405 0.0
H2290 H 0.60873 0.99076 0.48954 0.0
C2291 C 0.69239 0.94098 0.53419 0.0
C2292 C 0.66806 0.98516 0.52905 0.0
H2293 H 0.62778 0.99744 0.54577 0.0
C2294 C 0.6671 0.99394 0.51121 0.0
C2295 C 0.65401 0.98678 0.54187 0.0
C2296 C 0.65474 0.97791 0.56134 0.0
C2297 C 0.65194 0.00375 0.50554 0.0
C2298 C 0.63753 0.00473 0.51805 0.0
C2299 C 0.63888 0.99657 0.5362 0.0
C2300 C 0.62046 0.01349 0.51242 0.0
C2301 C 0.65128 0.01282 0.48618 0.0
C2302 C 0.61714 0.03023 0.52318 0.0
C2303 C 0.59971 0.0368 0.52 0.0
C2304 C 0.58527 0.02656 0.50617 0.0
C2305 C 0.58894 0.01038 0.4947 0.0
C2306 C 0.60647 0.00387 0.49781 0.0
H2307 H 0.66522 0.01419 0.48006 0.0
H2308 H 0.64043 0.00345 0.47556 0.0
H2309 H 0.64708 0.02758 0.48777 0.0
H2310 H 0.62777 0.03775 0.53456 0.0
H2311 H 0.59721 0.0493 0.52907 0.0
H2312 H 0.37924 0.47714 0.75754 0.0
H2313 H 0.35849 0.44565 0.75646 0.0
H2314 H 0.31076 0.47167 0.73382 0.0
H2315 H 0.33159 0.50373 0.73502 0.0
H2316 H 0.30227 0.44673 0.76366 0.0
H2317 H 0.33758 0.4096 0.70759 0.0
H2318 H 0.35425 0.42128 0.72759 0.0
H2319 H 0.34134 0.43598 0.71225 0.0
C2320 C 0.36436 0.47632 0.75224 0.0
C2321 C 0.35718 0.49309 0.74621 0.0
C2322 C 0.3525 0.45817 0.75153 0.0
C2323 C 0.33315 0.45614 0.74465 0.0
C2324 C 0.32572 0.47285 0.73899 0.0
H2325 H 0.27127 0.33494 0.72513 0.0
H2326 H 0.28336 0.36918 0.72 0.0
C2327 C 0.33764 0.49116 0.73969 0.0
C2328 C 0.32087 0.43654 0.74392 0.0
H2329 H 0.31864 0.38856 0.72736 0.0
C2330 C 0.30565 0.43404 0.75549 0.0
C2331 C 0.32501 0.42 0.733 0.0
C2332 C 0.34031 0.42185 0.71924 0.0
C2333 C 0.29516 0.41533 0.75725 0.0
C2334 C 0.30028 0.39859 0.7475 0.0
C2335 C 0.31482 0.40127 0.73509 0.0
C2336 C 0.29152 0.37814 0.7507 0.0
C2337 C 0.27875 0.41372 0.76963 0.0
C2338 C 0.29208 0.37164 0.76965 0.0
C2339 C 0.28508 0.35212 0.77264 0.0
C2340 C 0.27757 0.33846 0.75673 0.0
C2341 C 0.27692 0.345 0.73775 0.0
C2342 C 0.28384 0.36461 0.73478 0.0
H2343 H 0.27259 0.42749 0.77026 0.0
H2344 H 0.2673 0.40135 0.76393 0.0
H2345 H 0.28397 0.41117 0.78481 0.0
H2346 H 0.29843 0.38155 0.78215 0.0
H2347 H 0.286 0.34767 0.78747 0.0
H2348 H 0.16381 0.53815 0.27463 0.0
H2349 H 0.18607 0.56851 0.27226 0.0
H2350 H 0.14782 0.60205 0.29856 0.0
H2351 H 0.12542 0.57188 0.3009 0.0
H2352 H 0.17663 0.60319 0.25196 0.0
H2353 H 0.2015 0.62007 0.33097 0.0
H2354 H 0.19088 0.59568 0.32076 0.0
H2355 H 0.17612 0.61392 0.32498 0.0
C2356 C 0.16017 0.55195 0.28008 0.0
C2357 C 0.14278 0.5525 0.288 0.0
C2358 C 0.17291 0.5693 0.27864 0.0
C2359 C 0.16868 0.58752 0.28537 0.0
C2360 C 0.15147 0.58813 0.29347 0.0
H2361 H 0.21412 0.71006 0.29322 0.0
H2362 H 0.19789 0.67675 0.29599 0.0
C2363 C 0.13864 0.57084 0.29474 0.0
C2364 C 0.18187 0.60603 0.28336 0.0
H2365 H 0.2098 0.6452 0.30992 0.0
C2366 C 0.18408 0.61232 0.26459 0.0
C2367 C 0.19152 0.61788 0.29986 0.0
C2368 C 0.19008 0.61155 0.32031 0.0
C2369 C 0.19501 0.63057 0.26191 0.0
C2370 C 0.20443 0.64265 0.27846 0.0
C2371 C 0.20263 0.63601 0.29721 0.0
C2372 C 0.21501 0.66281 0.27687 0.0
C2373 C 0.19557 0.63713 0.24144 0.0
C2374 C 0.23035 0.66621 0.26541 0.0
C2375 C 0.2396 0.68543 0.26365 0.0
C2376 C 0.23383 0.7015 0.27353 0.0
C2377 C 0.21889 0.69799 0.28539 0.0
C2378 C 0.20959 0.67891 0.28701 0.0
H2379 H 0.18392 0.62852 0.23108 0.0
H2380 H 0.1944 0.65293 0.24117 0.0
H2381 H 0.20932 0.63499 0.23611 0.0
H2382 H 0.23515 0.65404 0.25782 0.0
H2383 H 0.25115 0.6877 0.25451 0.0
H2384 H 0.54161 0.76267 0.44093 0.0
H2385 H 0.54188 0.73065 0.45365 0.0
H2386 H 0.52942 0.70283 0.39509 0.0
H2387 H 0.52913 0.73519 0.38205 0.0
H2388 H 0.50736 0.70086 0.44576 0.0
H2389 H 0.57317 0.67582 0.42367 0.0
H2390 H 0.571 0.70152 0.4261 0.0
H2391 H 0.55833 0.68604 0.40568 0.0
C2392 C 0.53925 0.74981 0.43064 0.0
C2393 C 0.53514 0.75145 0.41047 0.0
C2394 C 0.53944 0.73151 0.43797 0.0
C2395 C 0.5356 0.7144 0.42535 0.0
C2396 C 0.53256 0.71593 0.40506 0.0
H2397 H 0.49718 0.59878 0.46551 0.0
H2398 H 0.50049 0.62831 0.44737 0.0
C2399 C 0.53243 0.73439 0.39763 0.0
C2400 C 0.53291 0.69514 0.4339 0.0
H2401 H 0.55379 0.65484 0.44216 0.0
C2402 C 0.5174 0.69069 0.44484 0.0
C2403 C 0.54615 0.68207 0.43279 0.0
C2404 C 0.5632 0.6865 0.42152 0.0
C2405 C 0.5149 0.67363 0.45494 0.0
C2406 C 0.52818 0.66056 0.45394 0.0
C2407 C 0.54362 0.66489 0.44284 0.0
C2408 C 0.52639 0.64255 0.46469 0.0
C2409 C 0.49838 0.66997 0.46709 0.0
C2410 C 0.53992 0.64075 0.48036 0.0
C2411 C 0.538 0.62394 0.49081 0.0
C2412 C 0.52261 0.60862 0.48562 0.0
C2413 C 0.50912 0.61044 0.4699 0.0
C2414 C 0.511 0.62726 0.45952 0.0
H2415 H 0.49175 0.68329 0.46948 0.0
H2416 H 0.48733 0.65818 0.45944 0.0
H2417 H 0.50305 0.66504 0.48154 0.0
H2418 H 0.55188 0.65242 0.48458 0.0
H2419 H 0.54867 0.62283 0.50279 0.0
H2420 H 0.56883 0.30777 0.65816 0.0
H2421 H 0.59901 0.30929 0.67848 0.0
H2422 H 0.57127 0.26983 0.71693 0.0
H2423 H 0.54075 0.26826 0.69664 0.0
H2424 H 0.60831 0.31938 0.72216 0.0
H2425 H 0.6165 0.24373 0.69577 0.0
H2426 H 0.60101 0.25767 0.68234 0.0
H2427 H 0.59413 0.24722 0.7043 0.0
C2428 C 0.56903 0.29948 0.67101 0.0
C2429 C 0.55232 0.28776 0.67566 0.0
C2430 C 0.58633 0.30044 0.68265 0.0
C2431 C 0.58743 0.28956 0.6991 0.0
C2432 C 0.57074 0.27825 0.70419 0.0
H2433 H 0.68911 0.26455 0.76705 0.0
H2434 H 0.65629 0.26582 0.75427 0.0
C2435 C 0.5533 0.27744 0.69263 0.0
C2436 C 0.60626 0.28953 0.71032 0.0
H2437 H 0.64128 0.26158 0.71762 0.0
C2438 C 0.6155 0.30672 0.72132 0.0
C2439 C 0.6156 0.273 0.70917 0.0
C2440 C 0.60645 0.25433 0.6972 0.0
C2441 C 0.63384 0.3078 0.73126 0.0
C2442 C 0.64345 0.29143 0.72968 0.0
C2443 C 0.63401 0.27415 0.71887 0.0
C2444 C 0.66335 0.29186 0.7388 0.0
C2445 C 0.64255 0.32639 0.7436 0.0
C2446 C 0.67839 0.30615 0.73455 0.0
C2447 C 0.69722 0.30562 0.74209 0.0
C2448 C 0.70147 0.29055 0.75376 0.0
C2449 C 0.68638 0.27638 0.75814 0.0
C2450 C 0.66757 0.27707 0.7508 0.0
H2451 H 0.63143 0.33462 0.7484 0.0
H2452 H 0.65144 0.3232 0.75676 0.0
H2453 H 0.65171 0.33605 0.73479 0.0
H2454 H 0.67569 0.3174 0.72488 0.0
H2455 H 0.70852 0.31656 0.73813 0.0
H2456 H 0.02534 0.3623 0.87137 0.0
H2457 H 0.02079 0.39298 0.88919 0.0
H2458 H 0.02343 0.365 0.94339 0.0
H2459 H 0.02776 0.3346 0.92593 0.0
H2460 H 0.98971 0.39634 0.91708 0.0
H2461 H 0.06435 0.41771 0.95128 0.0
H2462 H 0.05809 0.40185 0.92898 0.0
H2463 H 0.05397 0.39237 0.95216 0.0
C2464 C 0.02499 0.36277 0.88708 0.0
C2465 C 0.02693 0.34605 0.89723 0.0
C2466 C 0.02237 0.38024 0.89721 0.0
C2467 C 0.02195 0.38124 0.91762 0.0
C2468 C 0.02389 0.36458 0.92769 0.0
H2469 H 0.98287 0.45597 0.00482 0.0
H2470 H 0.9887 0.42896 0.98254 0.0
C2471 C 0.02631 0.34719 0.91763 0.0
C2472 C 0.01914 0.39944 0.92868 0.0
H2473 H 0.04114 0.43443 0.96425 0.0
C2474 C 1.00098 0.40484 0.92723 0.0
C2475 C 0.03389 0.41046 0.94189 0.0
C2476 C 0.05375 0.40547 0.94366 0.0
C2477 C 0.99703 0.42064 0.93913 0.0
C2478 C 0.01161 0.43118 0.9529 0.0
C2479 C 0.02994 0.4262 0.95383 0.0
C2480 C 0.0081 0.44742 0.96648 0.0
C2481 C 0.9773 0.42592 0.93698 0.0
C2482 C 0.01739 0.46664 0.9651 0.0
C2483 C 0.01405 0.48203 0.97774 0.0
C2484 C 1.00156 0.47846 0.99219 0.0
C2485 C 0.99254 0.45915 0.99381 0.0
C2486 C 0.99578 0.44375 0.98104 0.0
H2487 H 0.96905 0.41938 0.92299 0.0
H2488 H 0.96948 0.42032 0.94919 0.0
H2489 H 0.978 0.44211 0.93765 0.0
H2490 H 0.02702 0.46977 0.95404 0.0
H2491 H 0.02114 0.49678 0.97606 0.0
H2492 H 0.92965 0.76642 0.15656 0.0
H2493 H 0.90071 0.76541 0.173 0.0
H2494 H 0.93213 0.75644 0.22741 0.0
H2495 H 0.96131 0.75788 0.21111 0.0
H2496 H 0.88022 0.73809 0.19296 0.0
H2497 H 0.90921 0.8043 0.24276 0.0
H2498 H 0.92101 0.79703 0.22214 0.0
H2499 H 0.92331 0.78507 0.24452 0.0
C2500 C 0.93043 0.76409 0.17201 0.0
C2501 C 0.9479 0.76238 0.18253 0.0
C2502 C 0.91381 0.76351 0.1814 0.0
C2503 C 0.91423 0.76127 0.20157 0.0
C2504 C 0.93148 0.75869 0.21195 0.0
H2505 H 0.83007 0.76388 0.28507 0.0
H2506 H 0.85799 0.75969 0.26816 0.0
C2507 C 0.94815 0.75934 0.20257 0.0
C2508 C 0.89672 0.76207 0.21168 0.0
H2509 H 0.87906 0.78717 0.24826 0.0
C2510 C 0.87997 0.74884 0.20504 0.0
C2511 C 0.89627 0.77618 0.22738 0.0
C2512 C 0.91334 0.79158 0.23453 0.0
C2513 C 0.86299 0.74909 0.21386 0.0
C2514 C 0.86261 0.76312 0.22963 0.0
C2515 C 0.87934 0.77633 0.23625 0.0
C2516 C 0.84507 0.76445 0.23951 0.0
C2517 C 0.84571 0.73408 0.20646 0.0
C2518 C 0.82842 0.76859 0.22912 0.0
C2519 C 0.81241 0.77096 0.2388 0.0
C2520 C 0.81272 0.76925 0.25905 0.0
C2521 C 0.82934 0.76508 0.26941 0.0
C2522 C 0.84532 0.76271 0.25976 0.0
H2523 H 0.84961 0.72136 0.19803 0.0
H2524 H 0.83788 0.72862 0.21874 0.0
H2525 H 0.83594 0.74099 0.1966 0.0
H2526 H 0.828 0.77057 0.21361 0.0
H2527 H 0.80011 0.7749 0.23057 0.0
H2528 H 0.49927 0.33395 0.07068 0.0
H2529 H 0.50697 0.36553 0.05722 0.0
H2530 H 0.5148 0.39466 0.11533 0.0
H2531 H 0.50659 0.36279 0.12904 0.0
H2532 H 0.49371 0.41303 0.0895 0.0
H2533 H 0.55861 0.39893 0.05758 0.0
H2534 H 0.53917 0.37951 0.04965 0.0
H2535 H 0.54788 0.3837 0.07525 0.0
C2536 C 0.50274 0.34702 0.08067 0.0
C2537 C 0.50245 0.34591 0.10093 0.0
C2538 C 0.50728 0.36507 0.07294 0.0
C2539 C 0.51194 0.38236 0.08531 0.0
C2540 C 0.51147 0.38141 0.10558 0.0
H2541 H 0.54979 0.48659 0.02409 0.0
H2542 H 0.54945 0.46113 0.04738 0.0
C2543 C 0.50677 0.36325 0.11337 0.0
C2544 C 0.51631 0.40135 0.07663 0.0
H2545 H 0.54209 0.42313 0.04238 0.0
C2546 C 0.50453 0.41547 0.07949 0.0
C2547 C 0.53074 0.40474 0.06396 0.0
C2548 C 0.54494 0.39099 0.06162 0.0
C2549 C 0.50593 0.43223 0.0689 0.0
C2550 C 0.51904 0.43453 0.05471 0.0
C2551 C 0.53173 0.42114 0.05293 0.0
C2552 C 0.51926 0.45013 0.04094 0.0
C2553 C 0.4932 0.44716 0.07291 0.0
C2554 C 0.50256 0.45199 0.02919 0.0
C2555 C 0.50269 0.46674 0.01625 0.0
C2556 C 0.51959 0.47967 0.0147 0.0
C2557 C 0.5365 0.47713 0.02558 0.0
C2558 C 0.53632 0.46256 0.03875 0.0
H2559 H 0.4894 0.44706 0.08818 0.0
H2560 H 0.50011 0.46223 0.07046 0.0
H2561 H 0.47976 0.44344 0.06299 0.0
H2562 H 0.48939 0.44208 0.03007 0.0
H2563 H 0.48949 0.46834 0.00786 0.0
H2564 H 0.95649 0.2968 0.42331 0.0
H2565 H 0.92697 0.29516 0.4015 0.0
H2566 H 0.9572 0.28499 0.35154 0.0
H2567 H 0.98653 0.28633 0.37303 0.0
H2568 H 0.91791 0.31688 0.36941 0.0
H2569 H 0.91392 0.23783 0.34667 0.0
H2570 H 0.9295 0.24998 0.36751 0.0
H2571 H 0.93612 0.2527 0.34315 0.0
C2572 C 0.95685 0.29435 0.40767 0.0
C2573 C 0.97378 0.29142 0.39993 0.0
C2574 C 0.94001 0.2934 0.39526 0.0
C2575 C 0.93989 0.28952 0.37499 0.0
C2576 C 0.95693 0.2875 0.36719 0.0
H2577 H 0.85096 0.30247 0.28365 0.0
H2578 H 0.88135 0.30463 0.30413 0.0
C2579 C 0.97368 0.28834 0.37952 0.0
C2580 C 0.92196 0.28727 0.3619 0.0
H2581 H 0.89238 0.25483 0.32887 0.0
C2582 C 0.91226 0.30332 0.36059 0.0
C2583 C 0.9146 0.26946 0.35059 0.0
C2584 C 0.92396 0.25143 0.35214 0.0
C2585 C 0.89545 0.30212 0.34797 0.0
C2586 C 0.88843 0.28451 0.33619 0.0
C2587 C 0.89799 0.26838 0.33774 0.0
C2588 C 0.87069 0.28226 0.32281 0.0
C2589 C 0.88517 0.31957 0.34759 0.0
C2590 C 0.855 0.26836 0.32604 0.0
C2591 C 0.83776 0.267 0.3143 0.0
C2592 C 0.83602 0.27947 0.29913 0.0
C2593 C 0.85197 0.29275 0.29532 0.0
C2594 C 0.86924 0.29411 0.30708 0.0
H2595 H 0.88991 0.33009 0.36063 0.0
H2596 H 0.88814 0.32743 0.33437 0.0
H2597 H 0.86953 0.31481 0.34695 0.0
H2598 H 0.85592 0.25899 0.33802 0.0
H2599 H 0.82565 0.25659 0.31748 0.0
H2600 H 0.99727 0.74558 0.55912 0.0
H2601 H 0.99067 0.71073 0.54908 0.0
H2602 H 0.98132 0.69766 0.60818 0.0
H2603 H 0.98815 0.73284 0.61859 0.0
H2604 H 0.00706 0.67708 0.59219 0.0
H2605 H 0.94177 0.67075 0.54084 0.0
H2606 H 0.95952 0.69056 0.5356 0.0
H2607 H 0.9495 0.69149 0.55862 0.0
C2608 C 0.99362 0.7354 0.57003 0.0
C2609 C 0.99336 0.74201 0.5897 0.0
C2610 C 0.98962 0.71545 0.56418 0.0
C2611 C 0.98516 0.70168 0.57781 0.0
C2612 C 0.98452 0.70815 0.59742 0.0
H2613 H 0.96734 0.57773 0.53365 0.0
H2614 H 0.96167 0.60859 0.54937 0.0
C2615 C 0.98846 0.72821 0.60332 0.0
C2616 C 0.98333 0.68061 0.5717 0.0
H2617 H 0.96208 0.64629 0.53532 0.0
C2618 C 0.99695 0.67016 0.58006 0.0
C2619 C 0.96997 0.67155 0.55605 0.0
C2620 C 0.95424 0.68163 0.54741 0.0
C2621 C 0.99845 0.6514 0.57219 0.0
C2622 C 0.98624 0.64313 0.55538 0.0
C2623 C 0.97168 0.65291 0.54796 0.0
C2624 C 0.98908 0.62486 0.54475 0.0
C2625 C 0.01343 0.64079 0.58159 0.0
C2626 C 0.00608 0.62411 0.53633 0.0
C2627 C 0.00939 0.60656 0.52728 0.0
C2628 C 0.99566 0.5895 0.52642 0.0
C2629 C 0.97823 0.5906 0.53403 0.0
C2630 C 0.97496 0.60817 0.5431 0.0
H2631 H 0.01767 0.6463 0.59714 0.0
H2632 H 0.00828 0.62473 0.5809 0.0
H2633 H 0.02631 0.6433 0.57368 0.0
H2634 H 0.01696 0.63703 0.5371 0.0
H2635 H 0.02292 0.60627 0.52149 0.0
H2636 H 0.54687 0.74384 0.86051 0.0
H2637 H 0.56898 0.73632 0.83729 0.0
H2638 H 0.61644 0.76187 0.87928 0.0
H2639 H 0.5944 0.76916 0.90273 0.0
H2640 H 0.59277 0.76508 0.82283 0.0
H2641 H 0.63451 0.71296 0.85726 0.0
H2642 H 0.61208 0.7174 0.86519 0.0
H2643 H 0.63375 0.73402 0.87354 0.0
C2644 C 0.56203 0.74746 0.86497 0.0
C2645 C 0.56894 0.75721 0.88338 0.0
C2646 C 0.57462 0.74312 0.85169 0.0
C2647 C 0.59432 0.7484 0.85661 0.0
C2648 C 0.60129 0.75729 0.87534 0.0
H2649 H 0.68579 0.79246 0.79675 0.0
H2650 H 0.65649 0.78545 0.81246 0.0
C2651 C 0.58869 0.76156 0.88869 0.0
C2652 C 0.60745 0.74702 0.84143 0.0
H2653 H 0.64915 0.73178 0.8326 0.0
C2654 C 0.60489 0.75745 0.82477 0.0
C2655 C 0.62309 0.73688 0.84384 0.0
C2656 C 0.62593 0.72451 0.86084 0.0
C2657 C 0.61825 0.75906 0.8111 0.0
C2658 C 0.63463 0.75019 0.81434 0.0
C2659 C 0.63659 0.73869 0.83028 0.0
C2660 C 0.65089 0.75453 0.80273 0.0
C2661 C 0.61505 0.77075 0.79365 0.0
C2662 C 0.65729 0.73946 0.79195 0.0
C2663 C 0.674 0.74347 0.78285 0.0
C2664 C 0.68459 0.76252 0.78477 0.0
C2665 C 0.67782 0.77767 0.79505 0.0
C2666 C 0.66108 0.7737 0.80395 0.0
H2667 H 0.59971 0.77153 0.79013 0.0
H2668 H 0.62283 0.78597 0.79698 0.0
H2669 H 0.62046 0.76427 0.78056 0.0
H2670 H 0.64964 0.72456 0.79101 0.0
H2671 H 0.67906 0.73155 0.77508 0.0
H2672 H 0.40532 0.52573 0.68318 0.0
H2673 H 0.42109 0.53294 0.65386 0.0
H2674 H 0.41687 0.59417 0.66388 0.0
H2675 H 0.40068 0.58688 0.69329 0.0
H2676 H 0.41195 0.55529 0.61829 0.0
H2677 H 0.47606 0.58819 0.6691 0.0
H2678 H 0.45665 0.57178 0.67727 0.0
H2679 H 0.45367 0.59626 0.67209 0.0
C2680 C 0.40713 0.54061 0.67872 0.0
C2681 C 0.40172 0.55574 0.69037 0.0
C2682 C 0.41618 0.54472 0.66202 0.0
C2683 C 0.4203 0.56409 0.65683 0.0
C2684 C 0.41382 0.57912 0.6677 0.0
H2685 H 0.48567 0.58193 0.55488 0.0
H2686 H 0.46483 0.58885 0.57978 0.0
C2687 C 0.40445 0.57494 0.68435 0.0
C2688 C 0.43325 0.56841 0.6415 0.0
H2689 H 0.48038 0.58238 0.63604 0.0
C2690 C 0.42681 0.56165 0.62202 0.0
C2691 C 0.45269 0.57646 0.64655 0.0
C2692 C 0.46035 0.58357 0.66737 0.0
C2693 C 0.43947 0.56207 0.60756 0.0
C2694 C 0.45905 0.56944 0.61278 0.0
C2695 C 0.46535 0.57687 0.6321 0.0
C2696 C 0.4734 0.56742 0.5989 0.0
C2697 C 0.43204 0.55371 0.58703 0.0
C2698 C 0.48568 0.55368 0.60181 0.0
C2699 C 0.49762 0.54968 0.58765 0.0
C2700 C 0.49763 0.55952 0.57037 0.0
C2701 C 0.48617 0.5742 0.56808 0.0
C2702 C 0.47409 0.57806 0.5822 0.0
H2703 H 0.41702 0.54616 0.586 0.0
H2704 H 0.43277 0.56579 0.57712 0.0
H2705 H 0.44097 0.54314 0.58173 0.0
H2706 H 0.48539 0.54536 0.61464 0.0
H2707 H 0.50624 0.5383 0.58988 0.0
H2708 H 0.79298 0.16183 0.93446 0.0
H2709 H 0.78668 0.17877 0.9047 0.0
H2710 H 0.79 0.23313 0.93993 0.0
H2711 H 0.79631 0.21644 0.96952 0.0
H2712 H 0.75696 0.20092 0.89389 0.0
H2713 H 0.82821 0.24739 0.89991 0.0
H2714 H 0.82332 0.22593 0.91343 0.0
H2715 H 0.81637 0.24866 0.9217 0.0
C2716 C 0.79236 0.17739 0.93585 0.0
C2717 C 0.79527 0.18777 0.95441 0.0
C2718 C 0.78874 0.18706 0.91882 0.0
C2719 C 0.78815 0.20734 0.91999 0.0
C2720 C 0.79073 0.21759 0.93854 0.0
H2721 H 0.77378 0.29889 0.84165 0.0
H2722 H 0.77869 0.27889 0.86929 0.0
C2723 C 0.79426 0.20796 0.9555 0.0
C2724 C 0.78481 0.2179 0.90196 0.0
H2725 H 0.80454 0.25581 0.87684 0.0
C2726 C 0.76741 0.21282 0.89005 0.0
C2727 C 0.79842 0.23346 0.8969 0.0
C2728 C 0.81771 0.23911 0.90853 0.0
C2729 C 0.763 0.22328 0.87371 0.0
C2730 C 0.77653 0.23906 0.86881 0.0
C2731 C 0.79407 0.24386 0.88055 0.0
C2732 C 0.77277 0.25106 0.85186 0.0
C2733 C 0.74359 0.21776 0.8623 0.0
C2734 C 0.76797 0.24228 0.83268 0.0
C2735 C 0.76498 0.25376 0.81688 0.0
C2736 C 0.76681 0.27427 0.81982 0.0
C2737 C 0.77198 0.28308 0.83892 0.0
C2738 C 0.77483 0.27163 0.85474 0.0
H2739 H 0.7332 0.20945 0.87101 0.0
H2740 H 0.73793 0.23098 0.8576 0.0
H2741 H 0.74472 0.20824 0.84904 0.0
H2742 H 0.767 0.22657 0.82981 0.0
H2743 H 0.76209 0.24662 0.80232 0.0
H2744 H 0.05987 0.48406 0.23196 0.0
H2745 H 0.04891 0.48501 0.19752 0.0
H2746 H 0.10692 0.49171 0.18339 0.0
H2747 H 0.11814 0.49071 0.21823 0.0
H2748 H 0.06062 0.51869 0.17714 0.0
H2749 H 0.0768 0.45044 0.14 0.0
H2750 H 0.07488 0.45294 0.16599 0.0
H2751 H 0.09565 0.46506 0.1563 0.0
C2752 C 0.07035 0.48534 0.22154 0.0
C2753 C 0.08993 0.48742 0.22792 0.0
C2754 C 0.06402 0.4859 0.2018 0.0
C2755 C 0.07704 0.48848 0.18782 0.0
C2756 C 0.09657 0.48949 0.19388 0.0
H2757 H 0.05717 0.50891 0.0639 0.0
H2758 H 0.07096 0.50221 0.09612 0.0
C2759 C 0.10298 0.48887 0.21379 0.0
C2760 C 0.07002 0.49199 0.16745 0.0
H2761 H 0.06341 0.47238 0.12 0.0
C2762 C 0.06126 0.50856 0.16464 0.0
C2763 C 0.07098 0.47889 0.15112 0.0
C2764 C 0.07996 0.46074 0.15337 0.0
C2765 C 0.05338 0.51236 0.14605 0.0
C2766 C 0.05377 0.49895 0.12976 0.0
C2767 C 0.06291 0.48257 0.13247 0.0
C2768 C 0.04492 0.50185 0.10982 0.0
C2769 C 0.04501 0.53095 0.14402 0.0
C2770 C 0.02551 0.50341 0.10654 0.0
C2771 C 0.01754 0.50738 0.08808 0.0
C2772 C 0.02877 0.50968 0.07241 0.0
C2773 C 0.04804 0.50734 0.07558 0.0
C2774 C 0.05599 0.50347 0.09404 0.0
H2775 H 0.05071 0.54215 0.1563 0.0
H2776 H 0.048 0.53741 0.13005 0.0
H2777 H 0.02934 0.52753 0.14421 0.0
H2778 H 0.01651 0.50174 0.11832 0.0
H2779 H 1.00264 0.5089 0.0862 0.0
H2780 H 0.75864 0.92283 0.46904 0.0
H2781 H 0.76259 0.90583 0.43764 0.0
H2782 H 0.75347 0.85022 0.46333 0.0
H2783 H 0.74983 0.8669 0.49451 0.0
H2784 H 0.78486 0.85522 0.44213 0.0
H2785 H 0.71953 0.8719 0.40026 0.0
H2786 H 0.73581 0.89268 0.4121 0.0
H2787 H 0.72351 0.87515 0.42663 0.0
C2788 C 0.75751 0.90699 0.46792 0.0
C2789 C 0.75392 0.89617 0.48415 0.0
C2790 C 0.75966 0.89732 0.45002 0.0
C2791 C 0.75811 0.87679 0.44823 0.0
C2792 C 0.75469 0.86607 0.46448 0.0
H2793 H 0.73889 0.79356 0.34688 0.0
H2794 H 0.7372 0.81241 0.3779 0.0
C2795 C 0.75261 0.87566 0.48227 0.0
C2796 C 0.76018 0.86615 0.42958 0.0
H2797 H 0.73876 0.85349 0.38319 0.0
C2798 C 0.77486 0.8549 0.42918 0.0
C2799 C 0.7469 0.8656 0.41292 0.0
C2800 C 0.73043 0.87683 0.41292 0.0
C2801 C 0.77655 0.84293 0.41253 0.0
C2802 C 0.76341 0.84255 0.39579 0.0
C2803 C 0.74879 0.85388 0.39612 0.0
C2804 C 0.76473 0.83064 0.37766 0.0
C2805 C 0.79207 0.83042 0.41316 0.0
C2806 C 0.78075 0.83472 0.36746 0.0
C2807 C 0.78178 0.82396 0.34995 0.0
C2808 C 0.76672 0.80909 0.34233 0.0
C2809 C 0.75072 0.80488 0.35261 0.0
C2810 C 0.74972 0.81565 0.37019 0.0
H2811 H 0.79763 0.82851 0.42843 0.0
H2812 H 0.78682 0.8157 0.40549 0.0
H2813 H 0.80409 0.83764 0.40572 0.0
H2814 H 0.7923 0.84647 0.37286 0.0
H2815 H 0.7942 0.82757 0.34219 0.0
H2816 H 0.37452 0.55486 0.81023 0.0
H2817 H 0.39243 0.55257 0.84205 0.0
H2818 H 0.44302 0.54881 0.81353 0.0
H2819 H 0.42539 0.55114 0.78186 0.0
H2820 H 0.41381 0.52233 0.85439 0.0
H2821 H 0.45907 0.59553 0.85578 0.0
H2822 H 0.43721 0.58855 0.83975 0.0
H2823 H 0.45861 0.58008 0.83373 0.0
C2824 C 0.38944 0.55348 0.81077 0.0
C2825 C 0.39858 0.5533 0.79359 0.0
C2826 C 0.39963 0.55219 0.82892 0.0
C2827 C 0.41909 0.55086 0.83011 0.0
C2828 C 0.42809 0.55019 0.81293 0.0
H2829 H 0.49406 0.51549 0.9224 0.0
H2830 H 0.47474 0.51894 0.89183 0.0
C2831 C 0.41795 0.55143 0.79484 0.0
C2832 C 0.43013 0.5501 0.84925 0.0
H2833 H 0.46819 0.57439 0.87967 0.0
C2834 C 0.42562 0.53375 0.86001 0.0
C2835 C 0.44539 0.56514 0.85658 0.0
C2836 C 0.4503 0.58342 0.84598 0.0
C2837 C 0.43636 0.53177 0.87772 0.0
C2838 C 0.45209 0.54645 0.88466 0.0
C2839 C 0.45625 0.56307 0.87417 0.0
C2840 C 0.46439 0.54482 0.90283 0.0
C2841 C 0.43074 0.51406 0.88892 0.0
C2842 C 0.46547 0.55864 0.91885 0.0
C2843 C 0.47656 0.55676 0.93626 0.0
C2844 C 0.48682 0.5411 0.93782 0.0
C2845 C 0.48622 0.52765 0.92157 0.0
C2846 C 0.4751 0.52952 0.90418 0.0
H2847 H 0.41585 0.50681 0.88423 0.0
H2848 H 0.44029 0.50322 0.88624 0.0
H2849 H 0.43216 0.51819 0.90489 0.0
H2850 H 0.45741 0.57064 0.91801 0.0
H2851 H 0.47683 0.56734 0.9486 0.0
H2852 H 0.8212 0.22414 0.05832 0.0
H2853 H 0.81915 0.23519 0.09231 0.0
H2854 H 0.78642 0.17897 0.10081 0.0
H2855 H 0.78924 0.16762 0.06688 0.0
H2856 H 0.78782 0.2406 0.10591 0.0
H2857 H 0.81876 0.18845 0.15213 0.0
H2858 H 0.82216 0.18953 0.12655 0.0
H2859 H 0.80047 0.17634 0.13379 0.0
C2860 C 0.81422 0.21387 0.06768 0.0
C2861 C 0.80561 0.19492 0.06 0.0
C2862 C 0.81289 0.22026 0.0871 0.0
C2863 C 0.80263 0.208 0.09934 0.0
C2864 C 0.79479 0.18866 0.09197 0.0
H2865 H 0.74763 0.25736 0.19463 0.0
H2866 H 0.7551 0.24219 0.16398 0.0
C2867 C 0.79644 0.18212 0.07253 0.0
C2868 C 0.79846 0.21633 0.1188 0.0
H2869 H 0.80012 0.2094 0.16773 0.0
C2870 C 0.79067 0.23378 0.11941 0.0
C2871 C 0.80222 0.20765 0.13659 0.0
C2872 C 0.81154 0.18957 0.13732 0.0
C2873 C 0.78649 0.2427 0.13704 0.0
C2874 C 0.78955 0.23364 0.15472 0.0
C2875 C 0.79754 0.21629 0.15422 0.0
C2876 C 0.78477 0.24212 0.17382 0.0
C2877 C 0.77927 0.26205 0.13653 0.0
C2878 C 0.7987 0.24653 0.19001 0.0
C2879 C 0.79439 0.25505 0.20772 0.0
C2880 C 0.77603 0.25942 0.20972 0.0
C2881 C 0.76202 0.25462 0.1936 0.0
C2882 C 0.7663 0.24596 0.17597 0.0
H2883 H 0.78332 0.26982 0.12351 0.0
H2884 H 0.76349 0.25932 0.13567 0.0
H2885 H 0.78491 0.27186 0.14986 0.0
H2886 H 0.81301 0.2436 0.18887 0.0
H2887 H 0.80551 0.25827 0.21984 0.0
H2888 H 0.1297 0.50012 0.35217 0.0
H2889 H 0.11468 0.50681 0.38213 0.0
H2890 H 0.06012 0.50103 0.34794 0.0
H2891 H 0.07488 0.4946 0.31818 0.0
H2892 H 0.08893 0.53843 0.38892 0.0
H2893 H 0.05423 0.46129 0.39304 0.0
H2894 H 0.07502 0.46765 0.38026 0.0
H2895 H 0.05198 0.47078 0.36933 0.0
C2896 C 0.11452 0.50032 0.35107 0.0
C2897 C 0.10351 0.49677 0.33275 0.0
C2898 C 0.10597 0.50417 0.36818 0.0
C2899 C 0.08624 0.50427 0.36729 0.0
C2900 C 0.07532 0.50088 0.34902 0.0
H2901 H 0.99672 0.5125 0.44104 0.0
H2902 H 0.01714 0.50781 0.41516 0.0
C2903 C 0.08383 0.49724 0.33199 0.0
C2904 C 0.07676 0.5078 0.38527 0.0
H2905 H 0.04399 0.48556 0.41335 0.0
C2906 C 0.07927 0.52686 0.39446 0.0
C2907 C 0.06409 0.49272 0.39241 0.0
C2908 C 0.0612 0.47189 0.3834 0.0
C2909 C 0.06885 0.5314 0.41006 0.0
C2910 C 0.05583 0.51635 0.41697 0.0
C2911 C 0.05381 0.49717 0.40808 0.0
C2912 C 0.04353 0.52018 0.43276 0.0
C2913 C 0.07127 0.55244 0.41837 0.0
C2914 C 0.05139 0.52868 0.45144 0.0
C2915 C 0.03961 0.53162 0.4662 0.0
C2916 C 0.01977 0.52593 0.46273 0.0
C2917 C 0.01195 0.51725 0.44414 0.0
C2918 C 0.02365 0.51449 0.42934 0.0
H2919 H 0.07765 0.56281 0.40817 0.0
H2920 H 0.05742 0.55648 0.42167 0.0
H2921 H 0.08096 0.55434 0.43218 0.0
H2922 H 0.06668 0.53261 0.45479 0.0
H2923 H 0.04611 0.53753 0.4805 0.0
H2924 H 0.73029 0.85239 0.57081 0.0
H2925 H 0.72232 0.84079 0.60189 0.0
H2926 H 0.73406 0.90025 0.62826 0.0
H2927 H 0.74262 0.91212 0.59683 0.0
H2928 H 0.75382 0.877 0.6479 0.0
H2929 H 0.6797 0.83915 0.63545 0.0
H2930 H 0.6923 0.83108 0.61605 0.0
H2931 H 0.68954 0.85655 0.61908 0.0
C2932 C 0.7309 0.86313 0.58308 0.0
C2933 C 0.73739 0.88317 0.58144 0.0
C2934 C 0.72601 0.85646 0.60083 0.0
C2935 C 0.72725 0.86966 0.61734 0.0
C2936 C 0.7328 0.88985 0.6156 0.0
H2937 H 0.71469 0.80645 0.72358 0.0
H2938 H 0.70809 0.82843 0.69827 0.0
C2939 C 0.7377 0.8966 0.59769 0.0
C2940 C 0.72587 0.86167 0.63668 0.0
H2941 H 0.70113 0.82394 0.65812 0.0
C2942 C 0.74204 0.86582 0.65042 0.0
C2943 C 0.71039 0.84734 0.64022 0.0
C2944 C 0.69194 0.84348 0.62696 0.0
C2945 C 0.74391 0.85465 0.66656 0.0
C2946 C 0.72945 0.83867 0.66866 0.0
C2947 C 0.71247 0.83581 0.6561 0.0
C2948 C 0.73235 0.82409 0.68297 0.0
C2949 C 0.76169 0.85962 0.68079 0.0
C2950 C 0.74764 0.8137 0.68216 0.0
C2951 C 0.75149 0.80115 0.69657 0.0
C2952 C 0.73992 0.79858 0.71188 0.0
C2953 C 0.72384 0.80801 0.71191 0.0
C2954 C 0.7201 0.82069 0.69755 0.0
H2955 H 0.76795 0.8754 0.68102 0.0
H2956 H 0.75871 0.85619 0.69586 0.0
H2957 H 0.77249 0.85088 0.67619 0.0
H2958 H 0.75693 0.81572 0.67064 0.0
H2959 H 0.7639 0.794 0.69608 0.0
H2960 H 0.65827 0.40442 0.5113 0.0
H2961 H 0.63323 0.4248 0.51218 0.0
H2962 H 0.67227 0.46995 0.54788 0.0
H2963 H 0.69756 0.44998 0.54628 0.0
H2964 H 0.61477 0.43994 0.53879 0.0
H2965 H 0.65549 0.50204 0.50584 0.0
H2966 H 0.66357 0.47874 0.50741 0.0
H2967 H 0.66777 0.49656 0.52823 0.0
C2968 C 0.66152 0.41867 0.51941 0.0
C2969 C 0.68004 0.42559 0.52856 0.0
C2970 C 0.64714 0.43036 0.51991 0.0
C2971 C 0.65082 0.44927 0.52968 0.0
C2972 C 0.66908 0.45578 0.53964 0.0
H2973 H 0.55886 0.51729 0.55339 0.0
H2974 H 0.58275 0.49536 0.55602 0.0
C2975 C 0.68355 0.44422 0.53889 0.0
C2976 C 0.63569 0.46219 0.52914 0.0
H2977 H 0.62701 0.50788 0.51846 0.0
C2978 C 0.61747 0.45478 0.53429 0.0
C2979 C 0.63888 0.48153 0.52293 0.0
C2980 C 0.65741 0.49012 0.51559 0.0
C2981 C 0.60258 0.46606 0.53356 0.0
C2982 C 0.60603 0.48566 0.52807 0.0
C2983 C 0.62423 0.49301 0.52287 0.0
C2984 C 0.59093 0.49861 0.52671 0.0
C2985 C 0.58314 0.45653 0.53803 0.0
C2986 C 0.58772 0.50838 0.50967 0.0
C2987 C 0.57442 0.52124 0.50838 0.0
C2988 C 0.56363 0.52454 0.52395 0.0
C2989 C 0.56665 0.51475 0.54099 0.0
C2990 C 0.58028 0.50209 0.54244 0.0
H2991 H 0.58136 0.44026 0.53595 0.0
H2992 H 0.5814 0.46048 0.55354 0.0
H2993 H 0.57164 0.46153 0.52859 0.0
H2994 H 0.59557 0.50609 0.49725 0.0
H2995 H 0.57246 0.52852 0.49501 0.0
H2996 H 0.20277 0.15837 0.46171 0.0
H2997 H 0.17078 0.1402 0.4633 0.0
H2998 H 0.1949 0.09174 0.4859 0.0
H2999 H 0.22692 0.10959 0.4842 0.0
H3000 H 0.16259 0.08049 0.45741 0.0
H3001 H 0.1499 0.13337 0.51697 0.0
H3002 H 0.15666 0.14402 0.495 0.0
H3003 H 0.17329 0.13244 0.50952 0.0
C3004 C 0.20131 0.14375 0.46679 0.0
C3005 C 0.21747 0.13555 0.47304 0.0
C3006 C 0.18301 0.13344 0.46776 0.0
C3007 C 0.18053 0.1148 0.47503 0.0
C3008 C 0.19654 0.10616 0.48034 0.0
H3009 H 0.08585 0.05409 0.52729 0.0
H3010 H 0.11681 0.06985 0.51913 0.0
C3011 C 0.21485 0.11643 0.47938 0.0
C3012 C 0.16134 0.1047 0.47816 0.0
H3013 H 0.12446 0.10797 0.50558 0.0
C3014 C 0.15417 0.0865 0.46785 0.0
C3015 C 0.1506 0.1125 0.49204 0.0
C3016 C 0.15801 0.13157 0.50417 0.0
C3017 C 0.13643 0.0759 0.47101 0.0
C3018 C 0.1256 0.08384 0.48469 0.0
C3019 C 0.13279 0.10202 0.49501 0.0
C3020 C 0.10699 0.07331 0.48905 0.0
C3021 C 0.1296 0.05608 0.46009 0.0
C3022 C 0.09123 0.07004 0.47479 0.0
C3023 C 0.07345 0.06105 0.4794 0.0
C3024 C 0.07114 0.05521 0.49837 0.0
C3025 C 0.08707 0.05834 0.51253 0.0
C3026 C 0.1048 0.06737 0.50791 0.0
H3027 H 0.14125 0.0503 0.45321 0.0
H3028 H 0.12351 0.0453 0.47005 0.0
H3029 H 0.11822 0.05741 0.44835 0.0
H3030 H 0.09259 0.07482 0.46023 0.0
H3031 H 0.06148 0.05894 0.46815 0.0
H3032 H 0.15293 0.93624 0.78774 0.0
H3033 H 0.171 0.90944 0.7822 0.0
H3034 H 0.22119 0.95161 0.77706 0.0
H3035 H 0.20327 0.97848 0.78262 0.0
H3036 H 0.19214 0.90093 0.74954 0.0
H3037 H 0.23814 0.91662 0.82024 0.0
H3038 H 0.2162 0.92623 0.81566 0.0
H3039 H 0.23729 0.93721 0.80565 0.0
C3040 C 0.1678 0.93982 0.7854 0.0
C3041 C 0.17668 0.95952 0.78573 0.0
C3042 C 0.1781 0.92448 0.7822 0.0
C3043 C 0.1975 0.92852 0.77946 0.0
C3044 C 0.2063 0.94815 0.77943 0.0
H3045 H 0.28584 0.85536 0.77087 0.0
H3046 H 0.26782 0.88274 0.77209 0.0
C3047 C 0.19601 0.9635 0.78253 0.0
C3048 C 0.20858 0.91222 0.7768 0.0
H3049 H 0.24541 0.89218 0.7981 0.0
C3050 C 0.20378 0.89897 0.76014 0.0
C3051 C 0.22378 0.90971 0.79064 0.0
C3052 C 0.22913 0.92307 0.80915 0.0
C3053 C 0.214 0.88349 0.75675 0.0
C3054 C 0.22918 0.88089 0.77067 0.0
C3055 C 0.23391 0.89418 0.78734 0.0
C3056 C 0.24008 0.86429 0.76856 0.0
C3057 C 0.20865 0.87039 0.73805 0.0
C3058 C 0.23063 0.84476 0.76632 0.0
C3059 C 0.24094 0.8292 0.76534 0.0
C3060 C 0.26091 0.83269 0.76682 0.0
C3061 C 0.27042 0.8522 0.76937 0.0
C3062 C 0.26012 0.86784 0.77011 0.0
H3063 H 0.20144 0.87795 0.72646 0.0
H3064 H 0.22135 0.86551 0.73246 0.0
H3065 H 0.19856 0.8572 0.74088 0.0
H3066 H 0.21528 0.84148 0.76593 0.0
H3067 H 0.23326 0.81448 0.76452 0.0
H3068 H 0.27497 0.93874 0.0253 0.0
H3069 H 0.30601 0.95966 0.0248 0.0
H3070 H 0.33153 0.90835 0.01278 0.0
H3071 H 0.30076 0.88748 0.01289 0.0
H3072 H 0.34054 0.9612 0.04694 0.0
H3073 H 0.34798 0.94176 0.96921 0.0
H3074 H 0.32577 0.93575 0.97964 0.0
H3075 H 0.34391 0.92055 0.98293 0.0
C3076 C 0.28718 0.9319 0.02253 0.0
C3077 C 0.28522 0.91137 0.01895 0.0
C3078 C 0.30494 0.9439 0.02226 0.0
C3079 C 0.32108 0.93565 0.01834 0.0
C3080 C 0.31924 0.91516 0.0153 0.0
H3081 H 0.44133 0.98385 0.04234 0.0
H3082 H 0.4084 0.96775 0.04339 0.0
C3083 C 0.30157 0.9032 0.01549 0.0
C3084 C 0.33994 0.94827 0.01759 0.0
H3085 H 0.37619 0.95784 0.98877 0.0
C3086 C 0.34827 0.96059 0.03416 0.0
C3087 C 0.34996 0.94778 1.00082 0.0
C3088 C 0.34137 0.93591 0.98207 0.0
C3089 C 0.36656 0.97186 0.03464 0.0
C3090 C 0.37699 0.97053 0.01824 0.0
C3091 C 0.36837 0.95873 1.00145 0.0
C3092 C 0.39692 0.98101 0.01818 0.0
C3093 C 0.37444 0.98523 0.05267 0.0
C3094 C 0.40165 0.99356 0.00344 0.0
C3095 C 0.42052 0.00262 0.00271 0.0
C3096 C 0.4351 0.99925 0.01665 0.0
C3097 C 0.43038 0.98681 0.03146 0.0
C3098 C 0.41151 0.97771 0.03216 0.0
H3099 H 0.36287 0.98917 0.06107 0.0
H3100 H 0.38365 0.97757 0.06237 0.0
H3101 H 0.38312 0.99895 0.04882 0.0
H3102 H 0.39071 0.99628 0.99242 0.0
H3103 H 0.42373 0.0121 0.9911 0.0
H3104 H 0.89837 0.64106 0.75479 0.0
H3105 H 0.87925 0.66755 0.7543 0.0
H3106 H 0.82862 0.6253 0.73593 0.0
H3107 H 0.84766 0.5989 0.73593 0.0
H3108 H 0.82815 0.65831 0.71694 0.0
H3109 H 0.846 0.67858 0.79652 0.0
H3110 H 0.86634 0.68024 0.78294 0.0
H3111 H 0.85202 0.65672 0.78475 0.0
C3112 C 0.88321 0.63743 0.7504 0.0
C3113 C 0.87459 0.61777 0.7455 0.0
C3114 C 0.87223 0.65261 0.75031 0.0
C3115 C 0.85234 0.64847 0.74553 0.0
C3116 C 0.84387 0.62896 0.7398 0.0
H3117 H 0.76624 0.71424 0.78013 0.0
H3118 H 0.78908 0.69195 0.77576 0.0
C3119 C 0.85483 0.61382 0.7398 0.0
C3120 C 0.84018 0.6642 0.74697 0.0
H3121 H 0.82693 0.698 0.77912 0.0
C3122 C 0.82796 0.66705 0.73052 0.0
C3123 C 0.83966 0.67551 0.76475 0.0
C3124 C 0.85155 0.67254 0.78331 0.0
C3125 C 0.81521 0.68065 0.73138 0.0
C3126 C 0.81486 0.69211 0.74909 0.0
C3127 C 0.82723 0.6894 0.76548 0.0
C3128 C 0.80095 0.70601 0.75142 0.0
C3129 C 0.80172 0.68201 0.71346 0.0
C3130 C 0.79993 0.72159 0.7393 0.0
C3131 C 0.7866 0.73429 0.74164 0.0
C3132 C 0.77425 0.73189 0.75637 0.0
C3133 C 0.77545 0.71646 0.76857 0.0
C3134 C 0.78862 0.70373 0.76615 0.0
H3135 H 0.80037 0.6689 0.70294 0.0
H3136 H 0.78733 0.68356 0.71749 0.0
H3137 H 0.80723 0.6951 0.70589 0.0
H3138 H 0.80952 0.72406 0.72812 0.0
H3139 H 0.786 0.74601 0.73198 0.0
H3140 H 0.79354 0.59651 0.01899 0.0
H3141 H 0.81662 0.57694 0.03263 0.0
H3142 H 0.86232 0.62467 0.02806 0.0
H3143 H 0.83943 0.6443 0.01447 0.0
H3144 H 0.8457 0.56726 0.01086 0.0
H3145 H 0.87599 0.6058 0.08242 0.0
H3146 H 0.85325 0.60909 0.07036 0.0
H3147 H 0.87503 0.62202 0.06311 0.0
C3148 C 0.80847 0.60299 0.02129 0.0
C3149 C 0.81472 0.62189 0.01556 0.0
C3150 C 0.8216 0.5918 0.0291 0.0
C3151 C 0.84112 0.59946 0.03156 0.0
C3152 C 0.84728 0.61864 0.02665 0.0
H3153 H 0.95094 0.57508 0.03649 0.0
H3154 H 0.92105 0.58713 0.03959 0.0
C3155 C 0.83419 0.62978 0.01874 0.0
C3156 C 0.85533 0.58673 0.03667 0.0
H3157 H 0.89558 0.58527 0.067 0.0
C3158 C 0.85637 0.57083 0.0234 0.0
C3159 C 0.86916 0.59149 0.05302 0.0
C3160 C 0.86823 0.60793 0.06815 0.0
C3161 C 0.87178 0.56053 0.02513 0.0
C3162 C 0.88623 0.56602 0.04091 0.0
C3163 C 0.88448 0.58109 0.05492 0.0
C3164 C 0.90448 0.55839 0.04146 0.0
C3165 C 0.87314 0.54492 0.00925 0.0
C3166 C 0.90522 0.53824 0.04202 0.0
C3167 C 0.92234 0.53126 0.03998 0.0
C3168 C 0.93891 0.5444 0.0376 0.0
C3169 C 0.93832 0.56461 0.03815 0.0
C3170 C 0.92127 0.57153 0.04002 0.0
H3171 H 0.86253 0.54496 0.99638 0.0
H3172 H 0.88759 0.54701 0.00425 0.0
H3173 H 0.87049 0.53026 0.01511 0.0
H3174 H 0.89249 0.52791 0.04351 0.0
H3175 H 0.92252 0.51562 0.03978 0.0
H3176 H 0.18736 0.05476 0.79317 0.0
H3177 H 0.2058 0.08706 0.78957 0.0
H3178 H 0.15951 0.1148 0.80717 0.0
H3179 H 0.1409 0.0827 0.8106 0.0
H3180 H 0.17244 0.12807 0.77322 0.0
H3181 H 0.23304 0.13016 0.8305 0.0
H3182 H 0.22891 0.10885 0.81342 0.0
H3183 H 0.2113 0.11268 0.8296 0.0
C3184 C 0.18118 0.06772 0.79657 0.0
C3185 C 0.16258 0.06603 0.80217 0.0
C3186 C 0.1918 0.08622 0.79456 0.0
C3187 C 0.18412 0.1034 0.79825 0.0
C3188 C 0.16576 0.10177 0.80425 0.0
H3189 H 0.23752 0.22571 0.80902 0.0
H3190 H 0.22265 0.19239 0.81425 0.0
C3191 C 0.15514 0.08334 0.80624 0.0
C3192 C 0.19464 0.12304 0.7948 0.0
H3193 H 0.23528 0.15595 0.80919 0.0
C3194 C 0.18618 0.13415 0.78109 0.0
C3195 C 0.21251 0.13106 0.80517 0.0
C3196 C 0.22195 0.12018 0.82063 0.0
C3197 C 0.19508 0.15299 0.77744 0.0
C3198 C 0.21311 0.16087 0.78754 0.0
C3199 C 0.22155 0.14982 0.80133 0.0
C3200 C 0.22308 0.18083 0.78442 0.0
C3201 C 0.18488 0.16449 0.76312 0.0
C3202 C 0.22864 0.18536 0.76599 0.0
C3203 C 0.23714 0.20444 0.76291 0.0
C3204 C 0.24035 0.2194 0.77824 0.0
C3205 C 0.23524 0.21464 0.79683 0.0
C3206 C 0.22675 0.19556 0.79989 0.0
H3207 H 0.16945 0.15841 0.76022 0.0
H3208 H 0.18645 0.18014 0.76865 0.0
H3209 H 0.19117 0.16385 0.74902 0.0
H3210 H 0.22627 0.17416 0.75392 0.0
H3211 H 0.24098 0.20749 0.74843 0.0
H3212 H 0.40349 0.9978 0.28108 0.0
H3213 H 0.38131 0.96713 0.28086 0.0
H3214 H 0.33913 0.99084 0.24479 0.0
H3215 H 0.36112 0.02189 0.24531 0.0
H3216 H 0.32341 0.97103 0.27366 0.0
H3217 H 0.3681 0.92529 0.23618 0.0
H3218 H 0.38051 0.93843 0.2581 0.0
H3219 H 0.37306 0.95176 0.23788 0.0
C3220 C 0.38953 0.99654 0.27302 0.0
C3221 C 0.38421 0.01233 0.26305 0.0
C3222 C 0.37687 0.9789 0.27283 0.0
C3223 C 0.35867 0.97647 0.26245 0.0
C3224 C 0.35314 0.9923 0.25279 0.0
H3225 H 0.29117 0.85973 0.23559 0.0
H3226 H 0.30846 0.89287 0.23342 0.0
C3227 C 0.36576 0.01005 0.25308 0.0
C3228 C 0.34544 0.95745 0.26185 0.0
H3229 H 0.34219 0.90812 0.25094 0.0
C3230 C 0.32745 0.95728 0.26855 0.0
C3231 C 0.35052 0.93951 0.25487 0.0
C3232 C 0.36901 0.93873 0.24616 0.0
C3233 C 0.31466 0.93964 0.26896 0.0
C3234 C 0.32017 0.9216 0.26292 0.0
C3235 C 0.33797 0.92187 0.25576 0.0
C3236 C 0.30789 0.90221 0.26393 0.0
C3237 C 0.29529 0.94059 0.27558 0.0
C3238 C 0.30152 0.8964 0.28173 0.0
C3239 C 0.29138 0.87751 0.28291 0.0
C3240 C 0.28772 0.86397 0.2664 0.0
C3241 C 0.29377 0.86988 0.24854 0.0
C3242 C 0.3037 0.88881 0.24731 0.0
H3243 H 0.29106 0.95519 0.27357 0.0
H3244 H 0.2842 0.92913 0.26745 0.0
H3245 H 0.29572 0.93823 0.2914 0.0
H3246 H 0.30496 0.90621 0.29489 0.0
H3247 H 0.28707 0.87326 0.29691 0.0
H3248 H 0.48335 0.34089 0.65836 0.0
H3249 H 0.48637 0.37118 0.64119 0.0
H3250 H 0.51849 0.34529 0.59956 0.0
H3251 H 0.51477 0.31493 0.61603 0.0
H3252 H 0.51494 0.39765 0.63223 0.0
H3253 H 0.47664 0.35967 0.56344 0.0
H3254 H 0.47784 0.34788 0.58605 0.0
H3255 H 0.49724 0.34915 0.57102 0.0
C3256 C 0.49118 0.34179 0.64564 0.0
C3257 C 0.49859 0.3255 0.63835 0.0
C3258 C 0.49287 0.35905 0.63581 0.0
C3259 C 0.50215 0.36029 0.6187 0.0
C3260 C 0.51065 0.34445 0.61227 0.0
H3261 H 0.53941 0.46805 0.56385 0.0
H3262 H 0.53743 0.43884 0.58244 0.0
C3263 C 0.50866 0.32715 0.62181 0.0
C3264 C 0.50268 0.3779 0.60728 0.0
H3265 H 0.49324 0.39206 0.5612 0.0
C3266 C 0.51008 0.39646 0.61672 0.0
C3267 C 0.49595 0.37642 0.58712 0.0
C3268 C 0.48628 0.35723 0.57638 0.0
C3269 C 0.51136 0.41351 0.60648 0.0
C3270 C 0.50568 0.41187 0.58607 0.0
C3271 C 0.49789 0.39334 0.57675 0.0
C3272 C 0.50724 0.42916 0.57413 0.0
C3273 C 0.51838 0.43311 0.61779 0.0
C3274 C 0.49122 0.43289 0.56237 0.0
C3275 C 0.49248 0.44924 0.5513 0.0
C3276 C 0.50973 0.46226 0.55195 0.0
C3277 C 0.52588 0.45831 0.56328 0.0
C3278 C 0.52471 0.44175 0.57408 0.0
H3279 H 0.51626 0.43245 0.63353 0.0
H3280 H 0.53387 0.43732 0.61681 0.0
H3281 H 0.51095 0.44475 0.61183 0.0
H3282 H 0.47762 0.42334 0.56202 0.0
H3283 H 0.47981 0.45201 0.5427 0.0
H3284 H 0.45444 0.79413 0.38548 0.0
H3285 H 0.42358 0.78835 0.36617 0.0
H3286 H 0.45096 0.78553 0.31316 0.0
H3287 H 0.48229 0.791 0.3326 0.0
H3288 H 0.40998 0.81119 0.3401 0.0
H3289 H 0.40959 0.73717 0.30385 0.0
H3290 H 0.42673 0.74757 0.32423 0.0
H3291 H 0.42962 0.75526 0.30008 0.0
C3292 C 0.45406 0.7922 0.36972 0.0
C3293 C 0.47103 0.79312 0.36066 0.0
C3294 C 0.43628 0.78885 0.35866 0.0
C3295 C 0.4348 0.78632 0.33817 0.0
C3296 C 0.45164 0.78705 0.32896 0.0
H3297 H 0.33112 0.80313 0.26823 0.0
H3298 H 0.36409 0.8041 0.28179 0.0
C3299 C 0.46958 0.79031 0.3401 0.0
C3300 C 0.41557 0.784 0.3268 0.0
H3301 H 0.38338 0.75301 0.29444 0.0
C3302 C 0.40423 0.79847 0.33008 0.0
C3303 C 0.40788 0.76729 0.31389 0.0
C3304 C 0.41897 0.75082 0.31037 0.0
C3305 C 0.38553 0.79675 0.32095 0.0
C3306 C 0.37795 0.78027 0.30773 0.0
C3307 C 0.38922 0.76571 0.30444 0.0
C3308 C 0.35828 0.77803 0.29745 0.0
C3309 C 0.37388 0.8124 0.32599 0.0
C3310 C 0.34408 0.76247 0.3009 0.0
C3311 C 0.32509 0.76174 0.29297 0.0
C3312 C 0.31997 0.77659 0.28143 0.0
C3313 C 0.33445 0.79154 0.2772 0.0
C3314 C 0.35336 0.79218 0.28501 0.0
H3315 H 0.37983 0.82112 0.33991 0.0
H3316 H 0.37386 0.82262 0.31418 0.0
H3317 H 0.35889 0.80583 0.32732 0.0
H3318 H 0.34753 0.75132 0.3104 0.0
H3319 H 0.31432 0.75007 0.29662 0.0
H3320 H 0.03053 0.72133 0.12624 0.0
H3321 H 0.02902 0.68786 0.11208 0.0
H3322 H 0.96833 0.67678 0.11522 0.0
H3323 H 0.96986 0.71065 0.12964 0.0
H3324 H 0.01471 0.64978 0.1241 0.0
H3325 H 0.97554 0.66848 0.05573 0.0
H3326 H 0.98754 0.6871 0.07421 0.0
H3327 H 0.96548 0.67239 0.07836 0.0
C3328 C 0.01692 0.71161 0.12437 0.0
C3329 C 1.00031 0.7185 0.12901 0.0
C3330 C 0.01607 0.6925 0.11626 0.0
C3331 C 0.99855 0.67992 0.11235 0.0
C3332 C 0.98198 0.68636 0.11797 0.0
H3333 H 0.99931 0.56038 0.06092 0.0
H3334 H 0.99179 0.5878 0.08126 0.0
C3335 C 0.98287 0.70557 0.12636 0.0
C3336 C 0.9979 0.66082 0.10102 0.0
H3337 H 0.98619 0.63808 0.055 0.0
C3338 C 0.00818 0.64701 0.10911 0.0
C3339 C 0.98967 0.65746 0.08134 0.0
C3340 C 0.97901 0.67212 0.07174 0.0
C3341 C 0.01089 0.6302 0.0979 0.0
C3342 C 1.00294 0.62702 0.07811 0.0
C3343 C 0.99223 0.64055 0.07017 0.0
C3344 C 0.00651 0.61031 0.06515 0.0
C3345 C 0.023 0.61646 0.10705 0.0
C3346 C 0.01683 0.61384 0.04898 0.0
C3347 C 0.02101 0.59817 0.0372 0.0
C3348 C 0.01483 0.57872 0.04134 0.0
C3349 C 1.00421 0.57522 0.05732 0.0
C3350 C 1.00001 0.59087 0.06905 0.0
H3351 H 0.03126 0.6231 0.121 0.0
H3352 H 0.01367 0.60288 0.11022 0.0
H3353 H 0.03311 0.61225 0.09688 0.0
H3354 H 0.02195 0.62874 0.04568 0.0
H3355 H 0.02918 0.60127 0.02497 0.0
H3356 H 0.09291 0.29585 0.87552 0.0
H3357 H 0.12176 0.29287 0.85994 0.0
H3358 H 0.08831 0.27973 0.80385 0.0
H3359 H 0.05924 0.28216 0.81948 0.0
H3360 H 0.11456 0.25595 0.80829 0.0
H3361 H 0.15016 0.33256 0.82868 0.0
H3362 H 0.14392 0.3195 0.84946 0.0
H3363 H 0.12544 0.32436 0.83166 0.0
C3364 C 0.09166 0.29232 0.85985 0.0
C3365 C 0.07373 0.28937 0.84874 0.0
C3366 C 0.10824 0.29078 0.85092 0.0
C3367 C 0.10738 0.28654 0.83059 0.0
C3368 C 0.08943 0.28317 0.81952 0.0
H3369 H 0.18926 0.27721 0.74603 0.0
H3370 H 0.16093 0.27911 0.76299 0.0
C3371 C 0.0728 0.28457 0.82848 0.0
C3372 C 0.12512 0.28533 0.82095 0.0
H3373 H 0.16902 0.31093 0.81495 0.0
C3374 C 0.12641 0.26803 0.80969 0.0
C3375 C 0.1407 0.30106 0.82273 0.0
C3376 C 0.13996 0.32049 0.83362 0.0
C3377 C 0.1428 0.26594 0.80043 0.0
C3378 C 0.15835 0.28162 0.80229 0.0
C3379 C 0.15716 0.29887 0.81361 0.0
C3380 C 0.17572 0.28058 0.79208 0.0
C3381 C 0.14348 0.24683 0.78893 0.0
C3382 C 0.1936 0.28112 0.80275 0.0
C3383 C 0.20986 0.27999 0.79304 0.0
C3384 C 0.2086 0.27862 0.77248 0.0
C3385 C 0.19072 0.27828 0.76188 0.0
C3386 C 0.17448 0.27928 0.77155 0.0
H3387 H 0.13253 0.23477 0.79269 0.0
H3388 H 0.14076 0.24871 0.77308 0.0
H3389 H 0.15774 0.24244 0.7916 0.0
H3390 H 0.19492 0.28212 0.8186 0.0
H3391 H 0.22331 0.27986 0.8016 0.0
H3392 H 0.52331 0.73779 0.97981 0.0
H3393 H 0.52158 0.70461 0.99013 0.0
H3394 H 0.51728 0.68169 0.92988 0.0
H3395 H 0.51961 0.71512 0.91936 0.0
H3396 H 0.49379 0.67339 0.98234 0.0
H3397 H 0.56053 0.65705 0.9544 0.0
H3398 H 0.55451 0.68142 0.95557 0.0
H3399 H 0.54335 0.6635 0.93622 0.0
C3400 C 0.52201 0.72574 0.9687 0.0
C3401 C 0.52167 0.7291 0.94875 0.0
C3402 C 0.52101 0.70676 0.97464 0.0
C3403 C 0.51952 0.69073 0.9608 0.0
C3404 C 0.51884 0.69392 0.94083 0.0
H3405 H 0.49341 0.57245 1.00149 0.0
H3406 H 0.49107 0.60182 0.98383 0.0
C3407 C 0.52008 0.71301 0.93484 0.0
C3408 C 0.51863 0.67077 0.9676 0.0
H3409 H 0.54265 0.63196 0.96976 0.0
C3410 C 0.5044 0.66425 0.97952 0.0
C3411 C 0.53259 0.659 0.96397 0.0
C3412 C 0.54872 0.66561 0.95199 0.0
C3413 C 0.5041 0.64657 0.98846 0.0
C3414 C 0.51807 0.63481 0.98486 0.0
C3415 C 0.53194 0.64102 0.97243 0.0
C3416 C 0.51941 0.61669 0.99486 0.0
C3417 C 0.48937 0.64117 0.0024 0.0
C3418 C 0.53626 0.6151 0.00647 0.0
C3419 C 0.53779 0.59813 0.01601 0.0
C3420 C 0.5225 0.58248 0.01407 0.0
C3421 C 0.50555 0.58415 0.00272 0.0
C3422 C 0.5041 0.60103 0.99293 0.0
H3423 H 0.48304 0.65405 0.00737 0.0
H3424 H 0.47767 0.62999 0.99486 0.0
H3425 H 0.49564 0.63489 0.01547 0.0
H3426 H 0.54823 0.62704 0.00819 0.0
H3427 H 0.55102 0.59715 0.02469 0.0
H3428 H 0.07851 0.8141 0.61896 0.0
H3429 H 0.10667 0.81367 0.64216 0.0
H3430 H 0.07075 0.80249 0.68843 0.0
H3431 H 0.04263 0.80291 0.66561 0.0
H3432 H 0.11821 0.83628 0.68349 0.0
H3433 H 0.10161 0.7546 0.68112 0.0
H3434 H 0.09252 0.76825 0.66181 0.0
H3435 H 0.0826 0.76824 0.68477 0.0
C3436 C 0.07662 0.8118 0.63411 0.0
C3437 C 0.0583 0.80828 0.64035 0.0
C3438 C 0.09269 0.8116 0.64732 0.0
C3439 C 0.09063 0.80787 0.66685 0.0
C3440 C 0.07252 0.80525 0.67333 0.0
H3441 H 0.17425 0.77479 0.75442 0.0
H3442 H 0.14441 0.78254 0.73835 0.0
C3443 C 0.05648 0.80546 0.66022 0.0
C3444 C 0.10726 0.80531 0.6802 0.0
H3445 H 0.12872 0.7701 0.70144 0.0
C3446 C 0.12055 0.82186 0.68751 0.0
C3447 C 0.10997 0.78648 0.68554 0.0
C3448 C 0.09602 0.76829 0.67788 0.0
C3449 C 0.13677 0.82 0.69996 0.0
C3450 C 0.13988 0.80105 0.70471 0.0
C3451 C 0.12626 0.78459 0.69779 0.0
C3452 C 0.15785 0.79773 0.71543 0.0
C3453 C 0.15036 0.83832 0.70796 0.0
C3454 C 0.17514 0.80354 0.70773 0.0
C3455 C 0.19203 0.79917 0.71683 0.0
C3456 C 0.1919 0.78868 0.73364 0.0
C3457 C 0.17464 0.78287 0.74143 0.0
C3458 C 0.15768 0.78733 0.73233 0.0
H3459 H 0.14298 0.8513 0.70866 0.0
H3460 H 0.15716 0.83664 0.72281 0.0
H3461 H 0.16173 0.84132 0.69812 0.0
H3462 H 0.17552 0.81106 0.6944 0.0
H3463 H 0.20517 0.80379 0.71052 0.0
H3464 H 0.05353 0.32398 0.46052 0.0
H3465 H 0.05377 0.35687 0.47575 0.0
H3466 H 0.03077 0.37471 0.42067 0.0
H3467 H 0.03147 0.34199 0.40512 0.0
H3468 H 0.056 0.4038 0.43984 0.0
H3469 H 0.00533 0.3729 0.49042 0.0
H3470 H 0.0271 0.36305 0.49292 0.0
H3471 H 0.01171 0.3583 0.47027 0.0
C3472 C 0.04876 0.33503 0.45163 0.0
C3473 C 0.04229 0.33052 0.43175 0.0
C3474 C 0.04879 0.35373 0.46036 0.0
C3475 C 0.04173 0.36801 0.44948 0.0
C3476 C 0.03613 0.36382 0.42935 0.0
H3477 H 0.99424 0.46453 0.49697 0.0
H3478 H 1.00087 0.43363 0.4827 0.0
C3479 C 0.03653 0.34519 0.42049 0.0
C3480 C 0.03934 0.38694 0.45933 0.0
H3481 H 0.01852 0.4066 0.49671 0.0
C3482 C 0.04778 0.40446 0.45225 0.0
C3483 C 0.02828 0.38771 0.47528 0.0
C3484 C 0.01742 0.36949 0.48253 0.0
C3485 C 0.04551 0.4228 0.46075 0.0
C3486 C 0.03512 0.42353 0.47722 0.0
C3487 C 0.02673 0.40599 0.48427 0.0
C3488 C 0.03154 0.44224 0.48656 0.0
C3489 C 0.05368 0.4411 0.45155 0.0
C3490 C 0.04661 0.45721 0.49393 0.0
C3491 C 0.04285 0.47509 0.50191 0.0
C3492 C 0.02397 0.47805 0.50305 0.0
C3493 C 0.00897 0.46269 0.49647 0.0
C3494 C 0.01272 0.44501 0.48822 0.0
H3495 H 0.05646 0.43779 0.43619 0.0
H3496 H 0.04392 0.4521 0.45167 0.0
H3497 H 0.06743 0.44776 0.45997 0.0
H3498 H 0.06126 0.45516 0.49334 0.0
H3499 H 0.0547 0.48664 0.50696 0.0
H3500 H 0.47068 0.27369 0.17289 0.0
H3501 H 0.44498 0.26947 0.19407 0.0
H3502 H 0.40629 0.28532 0.14804 0.0
H3503 H 0.4318 0.28932 0.12669 0.0
H3504 H 0.42595 0.29908 0.20593 0.0
H3505 H 0.37518 0.23698 0.16704 0.0
H3506 H 0.39974 0.24244 0.16206 0.0
H3507 H 0.3823 0.25582 0.15119 0.0
C3508 C 0.45661 0.27593 0.16715 0.0
C3509 C 0.45323 0.28186 0.14814 0.0
C3510 C 0.44198 0.27353 0.17928 0.0
C3511 C 0.42373 0.27687 0.17253 0.0
C3512 C 0.42019 0.28226 0.15337 0.0
H3513 H 0.32183 0.30273 0.20986 0.0
H3514 H 0.351 0.29894 0.19523 0.0
C3515 C 0.4348 0.28465 0.14123 0.0
C3516 C 0.40879 0.2765 0.18596 0.0
H3517 H 0.36227 0.25805 0.18965 0.0
C3518 C 0.41214 0.28983 0.20263 0.0
C3519 C 0.39087 0.26433 0.18164 0.0
C3520 C 0.38685 0.24894 0.16461 0.0
C3521 C 0.39758 0.29215 0.21443 0.0
C3522 C 0.37938 0.28081 0.20937 0.0
C3523 C 0.37629 0.26679 0.19332 0.0
C3524 C 0.36285 0.2845 0.21936 0.0
C3525 C 0.40135 0.30738 0.23158 0.0
C3526 C 0.36017 0.27791 0.23791 0.0
C3527 C 0.34349 0.28008 0.24632 0.0
C3528 C 0.32942 0.28882 0.2362 0.0
C3529 C 0.3325 0.29597 0.21795 0.0
C3530 C 0.34908 0.29379 0.20957 0.0
H3531 H 0.41609 0.31572 0.23295 0.0
H3532 H 0.39113 0.31787 0.23001 0.0
H3533 H 0.39912 0.30011 0.24529 0.0
H3534 H 0.37068 0.27061 0.24556 0.0
H3535 H 0.34133 0.27434 0.26037 0.0
H3536 H 0.64827 0.49276 0.36384 0.0
H3537 H 0.62916 0.49081 0.39182 0.0
H3538 H 0.58583 0.51593 0.35886 0.0
H3539 H 0.60438 0.51733 0.33099 0.0
H3540 H 0.61478 0.51779 0.41435 0.0
H3541 H 0.55506 0.46616 0.37369 0.0
H3542 H 0.57799 0.47175 0.36455 0.0
H3543 H 0.56064 0.48785 0.361 0.0
C3544 C 0.63474 0.498 0.3627 0.0
C3545 C 0.62772 0.50497 0.34516 0.0
C3546 C 0.6238 0.49681 0.37863 0.0
C3547 C 0.60576 0.50264 0.37721 0.0
C3548 C 0.59936 0.51067 0.36008 0.0
H3549 H 0.5229 0.53285 0.44781 0.0
H3550 H 0.54311 0.52578 0.42242 0.0
C3551 C 0.61009 0.51163 0.34419 0.0
C3552 C 0.59342 0.50047 0.39342 0.0
H3553 H 0.54772 0.48376 0.40262 0.0
C3554 C 0.60025 0.51003 0.41191 0.0
C3555 C 0.57448 0.49013 0.39032 0.0
C3556 C 0.56669 0.47822 0.37137 0.0
C3557 C 0.58827 0.51053 0.42694 0.0
C3558 C 0.56904 0.50128 0.42334 0.0
C3559 C 0.56245 0.49098 0.40522 0.0
C3560 C 0.55527 0.50356 0.43772 0.0
C3561 C 0.59592 0.5216 0.44635 0.0
C3562 C 0.55492 0.49283 0.45435 0.0
C3563 C 0.54315 0.49662 0.46879 0.0
C3564 C 0.53176 0.51141 0.46692 0.0
C3565 C 0.53148 0.52139 0.44973 0.0
C3566 C 0.54307 0.51743 0.43523 0.0
H3567 H 0.611 0.52874 0.44656 0.0
H3568 H 0.58714 0.53302 0.44971 0.0
H3569 H 0.59496 0.51135 0.45814 0.0
H3570 H 0.56422 0.48202 0.45646 0.0
H3571 H 0.54386 0.48879 0.48192 0.0
H3572 H 0.23358 0.89307 0.0887 0.0
H3573 H 0.23813 0.88249 0.1222 0.0
H3574 H 0.22646 0.822 0.09916 0.0
H3575 H 0.22185 0.83226 0.0661 0.0
H3576 H 0.21328 0.85266 0.14465 0.0
H3577 H 0.28235 0.83165 0.12875 0.0
H3578 H 0.27095 0.8486 0.1147 0.0
H3579 H 0.26276 0.82263 0.11045 0.0
C3580 C 0.23154 0.87753 0.09085 0.0
C3581 C 0.22752 0.86356 0.07462 0.0
C3582 C 0.23425 0.87149 0.10999 0.0
C3583 C 0.23299 0.85142 0.11317 0.0
C3584 C 0.22782 0.83755 0.0971 0.0
H3585 H 0.22453 0.7769 0.20828 0.0
H3586 H 0.21951 0.79697 0.18085 0.0
C3587 C 0.22514 0.8435 0.07815 0.0
C3588 C 0.23802 0.84457 0.13288 0.0
H3589 H 0.26929 0.81917 0.15688 0.0
C3590 C 0.22567 0.84558 0.14746 0.0
C3591 C 0.25429 0.83551 0.1367 0.0
C3592 C 0.26848 0.83463 0.12192 0.0
C3593 C 0.2287 0.83699 0.16534 0.0
C3594 C 0.24437 0.82686 0.16866 0.0
C3595 C 0.2572 0.82674 0.15442 0.0
C3596 C 0.2472 0.81539 0.18619 0.0
C3597 C 0.215 0.83881 0.18047 0.0
C3598 C 0.26466 0.81853 0.19821 0.0
C3599 C 0.26765 0.80683 0.21386 0.0
C3600 C 0.25326 0.7917 0.21779 0.0
C3601 C 0.23587 0.78852 0.20573 0.0
C3602 C 0.23289 0.80017 0.19013 0.0
H3603 H 0.2081 0.85201 0.1788 0.0
H3604 H 0.20359 0.82575 0.17854 0.0
H3605 H 0.22229 0.83966 0.19555 0.0
H3606 H 0.27608 0.82994 0.19536 0.0
H3607 H 0.28137 0.80926 0.22252 0.0
H3608 H 0.94924 0.5704 0.80054 0.0
H3609 H 0.96283 0.56504 0.83331 0.0
H3610 H 0.91018 0.57282 0.85616 0.0
H3611 H 0.89634 0.57789 0.82322 0.0
H3612 H 0.96884 0.58919 0.8673 0.0
H3613 H 0.91941 0.52095 0.87698 0.0
H3614 H 0.9211 0.53107 0.85355 0.0
H3615 H 0.90778 0.54139 0.87126 0.0
C3616 C 0.94049 0.57092 0.8125 0.0
C3617 C 0.92164 0.57448 0.8092 0.0
C3618 C 0.94832 0.56788 0.83128 0.0
C3619 C 0.93749 0.56822 0.84723 0.0
C3620 C 0.91872 0.57206 0.84405 0.0
H3621 H 0.96122 0.5512 0.97105 0.0
H3622 H 0.94756 0.55851 0.93898 0.0
C3623 C 0.91086 0.57509 0.82522 0.0
C3624 C 0.94602 0.56481 0.86715 0.0
H3625 H 0.94083 0.53465 0.90452 0.0
C3626 C 0.96273 0.57723 0.87541 0.0
C3627 C 0.9381 0.54919 0.87779 0.0
C3628 C 0.92071 0.53476 0.86941 0.0
C3629 C 0.97155 0.57466 0.89405 0.0
C3630 C 0.96365 0.55903 0.90467 0.0
C3631 C 0.9469 0.54665 0.89644 0.0
C3632 C 0.97246 0.55525 0.92434 0.0
C3633 C 0.98903 0.58899 0.90237 0.0
C3634 C 0.99107 0.55091 0.9269 0.0
C3635 C 0.999 0.54673 0.94531 0.0
C3636 C 0.98845 0.54667 0.96158 0.0
C3637 C 0.96985 0.55112 0.95894 0.0
C3638 C 0.96195 0.55528 0.94056 0.0
H3639 H 0.99025 0.60289 0.89497 0.0
H3640 H 0.98886 0.59248 0.9183 0.0
H3641 H 1.00191 0.58235 0.90021 0.0
H3642 H 0.99937 0.55039 0.91457 0.0
H3643 H 0.01329 0.54324 0.9467 0.0
H3644 H 0.2896 0.16115 0.55009 0.0
H3645 H 0.29284 0.17399 0.58443 0.0
H3646 H 0.27072 0.22561 0.56717 0.0
H3647 H 0.26782 0.21326 0.53302 0.0
H3648 H 0.30188 0.23424 0.59498 0.0
H3649 H 0.24763 0.1745 0.61625 0.0
H3650 H 0.26745 0.1667 0.60559 0.0
H3651 H 0.2509 0.17835 0.59104 0.0
C3652 C 0.28544 0.17524 0.55362 0.0
C3653 C 0.2783 0.18609 0.53882 0.0
C3654 C 0.28727 0.18251 0.57323 0.0
C3655 C 0.28177 0.2006 0.57829 0.0
C3656 C 0.27504 0.21161 0.56353 0.0
H3657 H 0.25348 0.26979 0.67361 0.0
H3658 H 0.26105 0.25579 0.64224 0.0
C3659 C 0.27334 0.20447 0.54401 0.0
C3660 C 0.28233 0.20804 0.59892 0.0
H3661 H 0.26112 0.1994 0.64059 0.0
C3662 C 0.29313 0.22655 0.60503 0.0
C3663 C 0.27085 0.19794 0.61194 0.0
C3664 C 0.25842 0.17835 0.60591 0.0
C3665 C 0.29232 0.23547 0.62369 0.0
C3666 C 0.2804 0.22563 0.6364 0.0
C3667 C 0.27023 0.20682 0.63066 0.0
C3668 C 0.27727 0.23508 0.65527 0.0
C3669 C 0.30393 0.25547 0.62964 0.0
C3670 C 0.28392 0.22796 0.67278 0.0
C3671 C 0.27964 0.23589 0.6906 0.0
C3672 C 0.26846 0.25088 0.69108 0.0
C3673 C 0.26205 0.25819 0.67355 0.0
C3674 C 0.26644 0.25031 0.65571 0.0
H3675 H 0.31515 0.25939 0.61978 0.0
H3676 H 0.2944 0.26667 0.62907 0.0
H3677 H 0.31076 0.25606 0.64489 0.0
H3678 H 0.29224 0.21615 0.67261 0.0
H3679 H 0.28487 0.23012 0.70397 0.0
H3680 H 0.64646 0.50271 0.23334 0.0
H3681 H 0.63667 0.50046 0.19795 0.0
H3682 H 0.57789 0.49616 0.20919 0.0
H3683 H 0.58738 0.49813 0.2442 0.0
H3684 H 0.58367 0.47095 0.17712 0.0
H3685 H 0.61847 0.54844 0.17346 0.0
H3686 H 0.63326 0.53164 0.18284 0.0
H3687 H 0.61458 0.538 0.19641 0.0
C3688 C 0.63145 0.50095 0.22822 0.0
C3689 C 0.61774 0.50092 0.24159 0.0
C3690 C 0.62589 0.49976 0.20804 0.0
C3691 C 0.60658 0.49845 0.20102 0.0
C3692 C 0.59286 0.49724 0.21431 0.0
H3693 H 0.54375 0.53771 0.10473 0.0
H3694 H 0.55955 0.53055 0.13601 0.0
C3695 C 0.59836 0.49849 0.23435 0.0
C3696 C 0.60042 0.4999 0.18009 0.0
H3697 H 0.59989 0.53294 0.14527 0.0
C3698 C 0.58744 0.48436 0.16998 0.0
C3699 C 0.60518 0.51755 0.171 0.0
C3700 C 0.61853 0.53496 0.18144 0.0
C3701 C 0.57865 0.48622 0.15121 0.0
C3702 C 0.58312 0.50402 0.14233 0.0
C3703 C 0.59655 0.51932 0.15217 0.0
C3704 C 0.57314 0.50763 0.12341 0.0
C3705 C 0.56398 0.46953 0.1414 0.0
C3706 C 0.57553 0.49706 0.10603 0.0
C3707 C 0.56652 0.50115 0.08817 0.0
C3708 C 0.55505 0.51588 0.08747 0.0
C3709 C 0.55251 0.52628 0.1049 0.0
C3710 C 0.56154 0.52223 0.12273 0.0
H3711 H 0.55978 0.45817 0.15161 0.0
H3712 H 0.55103 0.47508 0.1354 0.0
H3713 H 0.56993 0.46245 0.12902 0.0
H3714 H 0.58459 0.4859 0.10624 0.0
H3715 H 0.5687 0.49293 0.07489 0.0
H3716 H 0.23272 0.90294 0.95816 0.0
H3717 H 0.23789 0.88779 0.92638 0.0
H3718 H 0.22192 0.83033 0.9467 0.0
H3719 H 0.21768 0.84539 0.97864 0.0
H3720 H 0.25125 0.82974 0.92841 0.0
H3721 H 0.20115 0.8644 0.88122 0.0
H3722 H 0.21896 0.8823 0.89526 0.0
H3723 H 0.20208 0.86656 0.90753 0.0
C3724 C 0.2302 0.88708 0.95577 0.0
C3725 C 0.22472 0.87539 0.97093 0.0
C3726 C 0.23301 0.87839 0.9375 0.0
C3727 C 0.22994 0.85781 0.9338 0.0
C3728 C 0.22438 0.8462 0.94899 0.0
H3729 H 0.22094 0.79682 0.8167 0.0
H3730 H 0.21458 0.81174 0.84812 0.0
C3731 C 0.22191 0.85485 0.9673 0.0
C3732 C 0.23322 0.84821 0.91454 0.0
H3733 H 0.22238 0.8473 0.86492 0.0
C3734 C 0.24481 0.83356 0.91456 0.0
C3735 C 0.22464 0.8528 0.89632 0.0
C3736 C 0.21086 0.86722 0.89505 0.0
C3737 C 0.24818 0.82358 0.89711 0.0
C3738 C 0.24039 0.82885 0.87885 0.0
C3739 C 0.2286 0.84333 0.8788 0.0
C3740 C 0.24425 0.81952 0.8597 0.0
C3741 C 0.25966 0.80708 0.8986 0.0
C3742 C 0.26303 0.81901 0.85544 0.0
C3743 C 0.26667 0.81013 0.83766 0.0
C3744 C 0.25165 0.80191 0.82336 0.0
C3745 C 0.23286 0.80284 0.82739 0.0
C3746 C 0.22921 0.81146 0.84537 0.0
H3747 H 0.25891 0.80061 0.91294 0.0
H3748 H 0.25461 0.79521 0.88682 0.0
H3749 H 0.27484 0.81291 0.89738 0.0
H3750 H 0.27498 0.8257 0.86581 0.0
H3751 H 0.28135 0.8101 0.83497 0.0
H3752 H 0.9533 0.54608 0.7125 0.0
H3753 H 0.96242 0.54321 0.6797 0.0
H3754 H 0.91959 0.5769 0.65955 0.0
H3755 H 0.91016 0.58007 0.69305 0.0
H3756 H 0.94029 0.52624 0.64528 0.0
H3757 H 0.96946 0.60501 0.63979 0.0
H3758 H 0.96501 0.59524 0.66294 0.0
H3759 H 0.94545 0.59908 0.6461 0.0
C3760 C 0.94571 0.55307 0.70129 0.0
C3761 C 0.93097 0.56349 0.7057 0.0
C3762 C 0.95098 0.55128 0.68237 0.0
C3763 C 0.94184 0.55988 0.66707 0.0
C3764 C 0.92703 0.57028 0.67115 0.0
H3765 H 0.97495 0.52758 0.54945 0.0
H3766 H 0.95495 0.53247 0.57578 0.0
C3767 C 0.92159 0.57202 0.69031 0.0
C3768 C 0.94829 0.55765 0.64713 0.0
H3769 H 0.97418 0.58257 0.61449 0.0
C3770 C 0.94741 0.53858 0.63834 0.0
C3771 C 0.9578 0.57372 0.63818 0.0
C3772 C 0.95967 0.59445 0.64718 0.0
C3773 C 0.95641 0.53507 0.62143 0.0
C3774 C 0.96636 0.55111 0.61273 0.0
C3775 C 0.96657 0.57025 0.62108 0.0
C3776 C 0.97807 0.54828 0.59615 0.0
C3777 C 0.95608 0.51409 0.61374 0.0
C3778 C 0.99763 0.55589 0.59841 0.0
C3779 C 0.00897 0.55315 0.58329 0.0
C3780 C 1.00112 0.54261 0.56549 0.0
C3781 C 0.98152 0.53516 0.56311 0.0
C3782 C 0.97008 0.53805 0.57821 0.0
H3783 H 0.95166 0.5035 0.62459 0.0
H3784 H 0.94575 0.51063 0.60043 0.0
H3785 H 0.97031 0.51186 0.60972 0.0
H3786 H 1.00423 0.56386 0.61201 0.0
H3787 H 0.02399 0.55927 0.58558 0.0
H3788 H 0.27885 0.19208 0.44831 0.0
H3789 H 0.28056 0.20558 0.41671 0.0
H3790 H 0.2896 0.14987 0.39089 0.0
H3791 H 0.28779 0.13593 0.42294 0.0
H3792 H 0.31451 0.204 0.39237 0.0
H3793 H 0.2423 0.16983 0.35742 0.0
H3794 H 0.24682 0.17382 0.38372 0.0
H3795 H 0.25733 0.15558 0.37102 0.0
C3796 C 0.28114 0.18257 0.43598 0.0
C3797 C 0.28322 0.16292 0.43811 0.0
C3798 C 0.28217 0.19036 0.41794 0.0
C3799 C 0.28531 0.17874 0.40162 0.0
C3800 C 0.28717 0.15901 0.40345 0.0
H3801 H 0.29959 0.244 0.29642 0.0
H3802 H 0.30564 0.2211 0.32106 0.0
C3803 C 0.28609 0.1511 0.42166 0.0
C3804 C 0.28654 0.18785 0.38291 0.0
H3805 H 0.25811 0.19694 0.34308 0.0
C3806 C 0.30245 0.20214 0.38122 0.0
C3807 C 0.27066 0.1854 0.36866 0.0
C3808 C 0.25323 0.17034 0.37012 0.0
C3809 C 0.30238 0.21498 0.36623 0.0
C3810 C 0.28601 0.21329 0.35265 0.0
C3811 C 0.2706 0.19818 0.35363 0.0
C3812 C 0.2837 0.2282 0.33855 0.0
C3813 C 0.31921 0.23107 0.36581 0.0
C3814 C 0.26956 0.23992 0.34045 0.0
C3815 C 0.26604 0.25298 0.32644 0.0
C3816 C 0.27662 0.25454 0.31028 0.0
C3817 C 0.29136 0.24337 0.30886 0.0
C3818 C 0.2948 0.2302 0.32286 0.0
H3819 H 0.32971 0.23189 0.37893 0.0
H3820 H 0.32652 0.22833 0.35264 0.0
H3821 H 0.31438 0.24551 0.36487 0.0
H3822 H 0.26092 0.2386 0.35256 0.0
H3823 H 0.25458 0.26135 0.32791 0.0
H3824 H 0.36576 0.66264 0.51007 0.0
H3825 H 0.39278 0.6447 0.51036 0.0
H3826 H 0.35475 0.5904 0.51378 0.0
H3827 H 0.3277 0.60821 0.51347 0.0
H3828 H 0.40696 0.62038 0.53789 0.0
H3829 H 0.3831 0.57855 0.46619 0.0
H3830 H 0.37323 0.59981 0.47416 0.0
H3831 H 0.36552 0.57639 0.48327 0.0
C3832 C 0.36313 0.64689 0.511 0.0
C3833 C 0.34446 0.63692 0.5117 0.0
C3834 C 0.37864 0.63663 0.51114 0.0
C3835 C 0.37587 0.61609 0.51174 0.0
C3836 C 0.3573 0.60617 0.51291 0.0
H3837 H 0.45543 0.53796 0.54201 0.0
H3838 H 0.43134 0.55933 0.54032 0.0
C3839 C 0.34182 0.61642 0.51289 0.0
C3840 C 0.39233 0.60508 0.51124 0.0
H3841 H 0.40896 0.56864 0.4853 0.0
C3842 C 0.40742 0.60916 0.52632 0.0
C3843 C 0.39322 0.59059 0.49601 0.0
C3844 C 0.37801 0.58615 0.47887 0.0
C3845 C 0.42292 0.59875 0.52694 0.0
C3846 C 0.42339 0.58368 0.51215 0.0
C3847 C 0.40864 0.58007 0.49671 0.0
C3848 C 0.43852 0.5709 0.51302 0.0
C3849 C 0.43867 0.604 0.54349 0.0
C3850 C 0.4505 0.5698 0.498 0.0
C3851 C 0.46442 0.55742 0.49891 0.0
C3852 C 0.46646 0.54574 0.51474 0.0
C3853 C 0.45431 0.54675 0.52959 0.0
C3854 C 0.44058 0.55914 0.52875 0.0
H3855 H 0.43935 0.61927 0.54989 0.0
H3856 H 0.4359 0.59398 0.55523 0.0
H3857 H 0.45275 0.60245 0.53856 0.0
H3858 H 0.44911 0.57855 0.48559 0.0
H3859 H 0.47328 0.55671 0.48708 0.0
H3860 H 0.80325 0.9556 0.54236 0.0
H3861 H 0.83526 0.97466 0.54312 0.0
H3862 H 0.85824 0.92116 0.53438 0.0
H3863 H 0.82642 0.90199 0.53336 0.0
H3864 H 0.87013 0.97366 0.56691 0.0
H3865 H 0.87434 0.95308 0.48842 0.0
H3866 H 0.85226 0.94927 0.49942 0.0
H3867 H 0.86894 0.93254 0.50282 0.0
C3868 C 0.81511 0.94785 0.54074 0.0
C3869 C 0.81219 0.92725 0.53758 0.0
C3870 C 0.8334 0.95878 0.54121 0.0
C3871 C 0.84903 0.94931 0.5385 0.0
C3872 C 0.84629 0.92876 0.53615 0.0
H3873 H 0.97044 0.99582 0.55292 0.0
H3874 H 0.93831 0.97993 0.55798 0.0
C3875 C 0.82806 0.91783 0.53562 0.0
C3876 C 0.86811 0.96088 0.53732 0.0
H3877 H 0.90262 0.96995 0.50657 0.0
C3878 C 0.87726 0.97293 0.55373 0.0
C3879 C 0.8772 0.96008 0.52 0.0
C3880 C 0.86764 0.9482 0.50159 0.0
C3881 C 0.8955 0.98395 0.55336 0.0
C3882 C 0.90482 0.98265 0.53622 0.0
C3883 C 0.89551 0.97081 0.51975 0.0
C3884 C 0.9241 0.99367 0.5347 0.0
C3885 C 0.90448 0.99713 0.57116 0.0
C3886 C 0.92676 0.00662 0.51994 0.0
C3887 C 0.94503 0.01554 0.5169 0.0
C3888 C 0.96107 0.0117 0.52858 0.0
C3889 C 0.95836 0.99921 0.54379 0.0
C3890 C 0.94001 0.99018 0.54675 0.0
H3891 H 0.89373 1.00029 0.58103 0.0
H3892 H 0.91502 0.98977 0.57949 0.0
H3893 H 0.91207 0.01125 0.56688 0.0
H3894 H 0.91468 0.0095 0.51046 0.0
H3895 H 0.94657 0.02516 0.50512 0.0
H3896 H 0.87317 0.1238 0.2469 0.0
H3897 H 0.8564 0.15176 0.25091 0.0
H3898 H 0.80257 0.11333 0.23661 0.0
H3899 H 0.81926 0.08518 0.23262 0.0
H3900 H 0.83 0.16695 0.22469 0.0
H3901 H 0.79802 0.14094 0.29078 0.0
H3902 H 0.81755 0.13105 0.28132 0.0
H3903 H 0.79367 0.12345 0.2698 0.0
C3904 C 0.85776 0.12128 0.24443 0.0
C3905 C 0.84755 0.10221 0.23952 0.0
C3906 C 0.8482 0.13731 0.24674 0.0
C3907 C 0.82823 0.13461 0.24439 0.0
C3908 C 0.81799 0.11571 0.23883 0.0
H3909 H 0.75262 0.21956 0.23198 0.0
H3910 H 0.77194 0.19379 0.22799 0.0
C3911 C 0.82756 0.09965 0.23641 0.0
C3912 C 0.81818 0.15154 0.2481 0.0
H3913 H 0.7877 0.16886 0.27766 0.0
C3914 C 0.82079 0.1674 0.2363 0.0
C3915 C 0.80644 0.15229 0.26348 0.0
C3916 C 0.80383 0.13613 0.27722 0.0
C3917 C 0.81153 0.18371 0.2391 0.0
C3918 C 0.79924 0.18411 0.25403 0.0
C3919 C 0.79706 0.16851 0.26618 0.0
C3920 C 0.78781 0.20011 0.25663 0.0
C3921 C 0.81505 0.20042 0.2261 0.0
C3922 C 0.78995 0.21201 0.27428 0.0
C3923 C 0.77878 0.22681 0.27665 0.0
C3924 C 0.76523 0.22978 0.26146 0.0
C3925 C 0.76296 0.21764 0.24397 0.0
C3926 C 0.77413 0.20301 0.24158 0.0
H3927 H 0.82858 0.20053 0.21935 0.0
H3928 H 0.80325 0.19876 0.21411 0.0
H3929 H 0.81558 0.21481 0.23442 0.0
H3930 H 0.80027 0.20986 0.2862 0.0
H3931 H 0.78049 0.23564 0.29041 0.0
H3932 H 0.72367 0.17333 0.99495 0.0
H3933 H 0.69296 0.15324 0.99771 0.0
H3934 H 0.72026 0.1025 0.0049 0.0
H3935 H 0.75133 0.12257 0.00217 0.0
H3936 H 0.68497 0.09613 0.97808 0.0
H3937 H 0.67679 0.1324 0.05021 0.0
H3938 H 0.68246 0.149 0.03174 0.0
H3939 H 0.69946 0.13406 0.04033 0.0
C3940 C 0.72328 0.15789 0.99703 0.0
C3941 C 0.74015 0.14967 0.99846 0.0
C3942 C 0.70563 0.14642 0.9987 0.0
C3943 C 0.70431 0.12643 1.00182 0.0
C3944 C 0.72096 0.11794 0.00262 0.0
H3945 H 0.60207 0.05756 0.03977 0.0
H3946 H 0.6351 0.07236 0.03664 0.0
C3947 C 0.73872 0.12945 1.00105 0.0
C3948 C 0.68552 0.11463 0.00448 0.0
H3949 H 0.64933 0.11184 0.03381 0.0
C3950 C 0.67723 0.09945 0.99033 0.0
C3951 C 0.6755 0.11879 0.0206 0.0
C3952 C 0.68403 0.13433 0.03671 0.0
C3953 C 0.65892 0.0888 0.99153 0.0
C3954 C 0.64855 0.09356 0.00721 0.0
C3955 C 0.65715 0.10828 0.0217 0.0
C3956 C 0.62862 0.08379 0.00866 0.0
C3957 C 0.65086 0.07248 0.97603 0.0
C3958 C 0.61392 0.08538 0.99407 0.0
C3959 C 0.59505 0.07701 0.99588 0.0
C3960 C 0.59047 0.06691 0.01235 0.0
C3961 C 0.60517 0.06522 0.0269 0.0
C3962 C 0.62405 0.07368 0.02513 0.0
H3963 H 0.66226 0.06712 0.96836 0.0
H3964 H 0.64261 0.05993 0.98246 0.0
H3965 H 0.64112 0.07805 0.96499 0.0
H3966 H 0.61698 0.09342 0.98142 0.0
H3967 H 0.58402 0.07859 0.98444 0.0
H3968 H 0.12587 0.42277 0.28733 0.0
H3969 H 0.14399 0.3954 0.28716 0.0
H3970 H 0.19155 0.43297 0.26786 0.0
H3971 H 0.17375 0.46035 0.26835 0.0
H3972 H 0.16036 0.37627 0.25865 0.0
H3973 H 0.21671 0.41264 0.31575 0.0
H3974 H 0.19466 0.42183 0.31044 0.0
H3975 H 0.21385 0.42736 0.29546 0.0
C3976 C 0.14017 0.42518 0.28297 0.0
C3977 C 0.14838 0.44386 0.278 0.0
C3978 C 0.15053 0.40949 0.2829 0.0
C3979 C 0.16937 0.41214 0.27794 0.0
C3980 C 0.17728 0.4306 0.27228 0.0
H3981 H 0.25714 0.3465 0.25435 0.0
H3982 H 0.23491 0.36946 0.25832 0.0
C3983 C 0.16699 0.44626 0.27242 0.0
C3984 C 0.18084 0.39578 0.27871 0.0
H3985 H 0.22369 0.38464 0.29731 0.0
C3986 C 0.17407 0.378 0.26733 0.0
C3987 C 0.19872 0.39784 0.29017 0.0
C3988 C 0.20634 0.41586 0.3038 0.0
C3989 C 0.18507 0.36276 0.2664 0.0
C3990 C 0.20326 0.36526 0.27718 0.0
C3991 C 0.20976 0.38273 0.28901 0.0
C3992 C 0.21648 0.35074 0.27502 0.0
C3993 C 0.17759 0.34438 0.25327 0.0
C3994 C 0.21369 0.33251 0.28329 0.0
C3995 C 0.22663 0.31928 0.28122 0.0
C3996 C 0.24245 0.32404 0.27069 0.0
C3997 C 0.24514 0.34233 0.26257 0.0
C3998 C 0.2324 0.35551 0.26478 0.0
H3999 H 0.16377 0.34521 0.24476 0.0
H4000 H 0.18809 0.34175 0.24292 0.0
H4001 H 0.17561 0.33158 0.26226 0.0
H4002 H 0.20159 0.32857 0.29143 0.0
H4003 H 0.22428 0.30543 0.28784 0.0
H4004 H 0.22498 0.46861 0.05426 0.0
H4005 H 0.19704 0.48498 0.0486 0.0
H4006 H 0.17547 0.44339 0.9992 0.0
H4007 H 0.20258 0.42645 0.00549 0.0
H4008 H 0.18241 0.50313 0.01947 0.0
H4009 H 0.13086 0.43702 0.02965 0.0
H4010 H 0.15616 0.43811 0.03508 0.0
H4011 H 0.14504 0.43238 0.01033 0.0
C4012 C 0.21417 0.46296 0.0423 0.0
C4013 C 0.21568 0.44606 0.03057 0.0
C4014 C 0.19828 0.47233 0.03901 0.0
C4015 C 0.18389 0.4651 0.02377 0.0
C4016 C 0.18599 0.44882 0.01147 0.0
H4017 H 0.09152 0.52832 0.98242 0.0
H4018 H 0.12216 0.51614 0.98628 0.0
C4019 C 0.20154 0.4392 0.01504 0.0
C4020 C 0.16647 0.4742 0.02087 0.0
H4021 H 0.11801 0.46315 0.01536 0.0
C4022 C 0.1683 0.49446 0.01875 0.0
C4023 C 0.14806 0.46292 0.02019 0.0
C4024 C 0.14491 0.44147 0.02415 0.0
C4025 C 0.1522 0.50374 0.01589 0.0
C4026 C 0.1338 0.49226 0.01436 0.0
C4027 C 0.13207 0.47199 0.01637 0.0
C4028 C 0.11596 0.50082 0.01208 0.0
C4029 C 0.15514 0.52575 0.01514 0.0
C4030 C 0.10214 0.49594 0.02492 0.0
C4031 C 0.08456 0.5021 0.02218 0.0
C4032 C 0.08054 0.51378 0.00688 0.0
C4033 C 0.09445 0.51936 0.99435 0.0
C4034 C 0.11198 0.51259 0.99671 0.0
H4035 H 0.16943 0.53274 0.0222 0.0
H4036 H 0.15415 0.52935 0.99963 0.0
H4037 H 0.14416 0.53225 0.02248 0.0
H4038 H 0.10484 0.48704 0.03698 0.0
H4039 H 0.0741 0.49782 0.03219 0.0
H4040 H 0.88254 0.97739 0.2386 0.0
H4041 H 0.86329 0.94515 0.23875 0.0
H4042 H 0.81322 0.97188 0.24375 0.0
H4043 H 0.8325 0.00454 0.24322 0.0
H4044 H 0.84421 0.93163 0.26826 0.0
H4045 H 0.79401 0.92797 0.20093 0.0
H4046 H 0.81526 0.94623 0.20575 0.0
H4047 H 0.79447 0.94899 0.21774 0.0
C4048 C 0.8674 0.97653 0.23956 0.0
C4049 C 0.85911 0.99366 0.24098 0.0
C4050 C 0.85639 0.95799 0.23962 0.0
C4051 C 0.83676 0.95598 0.24115 0.0
C4052 C 0.82827 0.97299 0.24219 0.0
H4053 H 0.77497 0.84951 0.28134 0.0
H4054 H 0.78874 0.88333 0.27708 0.0
C4055 C 0.83932 0.99168 0.24198 0.0
C4056 C 0.82576 0.93609 0.24291 0.0
H4057 H 0.78877 0.90163 0.22134 0.0
C4058 C 0.83206 0.92511 0.258 0.0
C4059 C 0.81004 0.92745 0.22941 0.0
C4060 C 0.80309 0.93816 0.21242 0.0
C4061 C 0.8232 0.90582 0.25994 0.0
C4062 C 0.80724 0.8973 0.24671 0.0
C4063 C 0.80091 0.90821 0.23157 0.0
C4064 C 0.79721 0.87699 0.24835 0.0
C4065 C 0.83138 0.89456 0.27589 0.0
C4066 C 0.79664 0.86221 0.23326 0.0
C4067 C 0.78859 0.84273 0.23557 0.0
C4068 C 0.78095 0.83769 0.25304 0.0
C4069 C 0.78091 0.85272 0.26778 0.0
C4070 C 0.78884 0.87213 0.26541 0.0
H4071 H 0.84631 0.90113 0.28129 0.0
H4072 H 0.82275 0.89485 0.28844 0.0
H4073 H 0.83106 0.879 0.27066 0.0
H4074 H 0.80294 0.86563 0.21993 0.0
H4075 H 0.78884 0.83158 0.2239 0.0
H4076 H 0.62284 0.07243 0.79951 0.0
H4077 H 0.64497 0.1028 0.79704 0.0
H4078 H 0.68442 0.0695 0.77262 0.0
H4079 H 0.66248 0.03899 0.77509 0.0
H4080 H 0.68667 0.11231 0.8135 0.0
H4081 H 0.67335 0.11176 0.73241 0.0
H4082 H 0.65654 0.0984 0.74677 0.0
H4083 H 0.67816 0.08948 0.74262 0.0
C4084 C 0.63624 0.0715 0.79367 0.0
C4085 C 0.6408 0.0532 0.78744 0.0
C4086 C 0.64888 0.08889 0.7923 0.0
C4087 C 0.66624 0.0884 0.78448 0.0
C4088 C 0.67101 0.0702 0.77853 0.0
H4089 H 0.74751 0.18849 0.75371 0.0
H4090 H 0.73193 0.15487 0.75796 0.0
C4091 C 0.65845 0.05277 0.78004 0.0
C4092 C 0.67921 0.10698 0.78242 0.0
H4093 H 0.69501 0.1382 0.7487 0.0
C4094 C 0.68859 0.11795 0.79934 0.0
C4095 C 0.68185 0.11417 0.76391 0.0
C4096 C 0.67192 0.10297 0.74532 0.0
C4097 C 0.7004 0.13606 0.79829 0.0
C4098 C 0.70243 0.1437 0.77982 0.0
C4099 C 0.69345 0.13241 0.76285 0.0
C4100 C 0.71268 0.16387 0.7779 0.0
C4101 C 0.71067 0.14675 0.81699 0.0
C4102 C 0.70699 0.1801 0.78753 0.0
C4103 C 0.7159 0.19916 0.78521 0.0
C4104 C 0.73055 0.2025 0.77299 0.0
C4105 C 0.7363 0.18632 0.76329 0.0
C4106 C 0.7274 0.16715 0.76569 0.0
H4107 H 0.71305 0.13638 0.82833 0.0
H4108 H 0.72466 0.15523 0.8145 0.0
H4109 H 0.70183 0.15711 0.82286 0.0
H4110 H 0.69534 0.17808 0.79657 0.0
H4111 H 0.71105 0.21134 0.79278 0.0
loop_
_geom_bond_atom_site_label_1
_geom_bond_atom_site_label_2
_geom_bond_distance
_geom_bond_site_symmetry_2
_ccdc_geom_bond_type
Co0 O1 2.216 . S
Co0 O2 2.091 . S
Co0 O4 2.004 1_455 S
Co0 O10 2.021 . S
Co0 O12 2.137 . S
Co0 O13 2.244 . S
O1 Co0 2.216 . S
O1 C8 1.247 . S
O2 Co0 2.091 . S
O2 C8 1.261 . S
C3 O12 1.247 . S
C3 O13 1.272 . S
O4 Co0 2.004 1_655 S
O4 C9 1.259 . S
Co5 O6 2.061 . S
Co5 O11 2.052 1_655 S
Co5 O13 2.135 1_655 S
O6 Co5 2.061 . S
O6 C9 1.235 . S
C7 O10 1.238 . S
C7 O11 1.241 . S
C8 O1 1.247 . S
C8 O2 1.261 . S
C9 O4 1.259 . S
C9 O6 1.235 . S
O10 Co0 2.021 . S
O10 C7 1.238 . S
O11 Co5 2.052 1_455 S
O11 C7 1.241 . S
O12 Co0 2.137 . S
O12 C3 1.247 . S
O13 Co0 2.244 . S
O13 C3 1.272 . S
O13 Co5 2.135 1_455 S
Co14 O15 2.216 . S
Co14 O16 2.091 . S
Co14 O18 2.004 1_655 S
Co14 O24 2.021 . S
Co14 O26 2.137 . S
Co14 O27 2.244 1_655 S
O15 Co14 2.216 . S
O15 C22 1.247 . S
O16 Co14 2.091 . S
O16 C22 1.261 . S
C17 O26 1.247 1_455 S
C17 O27 1.272 . S
O18 Co14 2.004 1_455 S
O18 C23 1.259 . S
Co19 O20 2.061 . S
Co19 O25 2.052 . S
Co19 O27 2.135 . S
O20 Co19 2.061 . S
O20 C23 1.235 . S
C21 O24 1.253 . S
C21 O25 1.222 1_655 S
C22 O15 1.247 . S
C22 O16 1.261 . S
C23 O18 1.259 . S
C23 O20 1.235 . S
O24 Co14 2.021 . S
O24 C21 1.253 . S
O25 Co19 2.052 . S
O25 C21 1.222 1_455 S
O26 Co14 2.137 . S
O26 C17 1.247 1_655 S
O27 Co14 2.244 1_455 S
O27 C17 1.272 . S
O27 Co19 2.135 . S
Co28 O29 2.216 . S
Co28 O30 2.091 . S
Co28 O32 2.004 . S
Co28 O38 2.021 . S
Co28 O40 2.137 . S
Co28 O41 2.244 . S
O29 Co28 2.216 . S
O29 C36 1.247 . S
O30 Co28 2.091 . S
O30 C36 1.261 . S
C31 O40 1.247 . S
C31 O41 1.272 . S
O32 Co28 2.004 . S
O32 C37 1.259 . S
Co33 O34 2.061 . S
Co33 O39 2.052 . S
Co33 O41 2.135 . S
O34 Co33 2.061 . S
O34 C37 1.235 . S
C35 O38 1.238 . S
C35 O39 1.241 . S
C36 O29 1.247 . S
C36 O30 1.261 . S
C37 O32 1.259 . S
C37 O34 1.235 . S
O38 Co28 2.021 . S
O38 C35 1.238 . S
O39 Co33 2.052 . S
O39 C35 1.241 . S
O40 Co28 2.137 . S
O40 C31 1.247 . S
O41 Co28 2.244 . S
O41 C31 1.272 . S
O41 Co33 2.135 . S
Co42 O43 2.216 . S
Co42 O44 2.091 . S
Co42 O46 2.004 . S
Co42 O52 2.021 . S
Co42 O54 2.137 . S
Co42 O55 2.244 . S
O43 Co42 2.216 . S
O43 C50 1.247 . S
O44 Co42 2.091 . S
O44 C50 1.261 . S
C45 O54 1.247 . S
C45 O55 1.272 . S
O46 Co42 2.004 . S
O46 C51 1.259 . S
Co47 O48 2.061 . S
Co47 O53 2.052 . S
Co47 O55 2.135 . S
O48 Co47 2.061 . S
O48 C51 1.235 . S
C49 O52 1.238 . S
C49 O53 1.241 . S
C50 O43 1.247 . S
C50 O44 1.261 . S
C51 O46 1.259 . S
C51 O48 1.235 . S
O52 Co42 2.021 . S
O52 C49 1.238 . S
O53 Co47 2.052 . S
O53 C49 1.241 . S
O54 Co42 2.137 . S
O54 C45 1.247 . S
O55 Co42 2.244 . S
O55 C45 1.272 . S
O55 Co47 2.135 . S
Co56 O57 2.216 1_455 S
Co56 O58 2.091 1_455 S
Co56 O60 2.004 . S
Co56 O66 2.021 . S
Co56 O68 2.137 . S
Co56 O69 2.244 . S
O57 Co56 2.216 1_655 S
O57 C64 1.247 . S
O58 Co56 2.091 1_655 S
O58 C64 1.261 . S
C59 O68 1.247 . S
C59 O69 1.272 . S
O60 Co56 2.004 . S
O60 C65 1.259 . S
Co61 O62 2.061 . S
Co61 O67 2.052 . S
Co61 O69 2.135 . S
O62 Co61 2.061 . S
O62 C65 1.235 . S
C63 O66 1.238 . S
C63 O67 1.241 . S
C64 O57 1.247 . S
C64 O58 1.261 . S
C65 O60 1.259 . S
C65 O62 1.235 . S
O66 Co56 2.021 . S
O66 C63 1.238 . S
O67 Co61 2.052 . S
O67 C63 1.241 . S
O68 Co56 2.137 . S
O68 C59 1.247 . S
O69 Co56 2.244 . S
O69 C59 1.272 . S
O69 Co61 2.135 . S
Co70 O71 2.216 . S
Co70 O72 2.091 . S
Co70 O74 2.004 . S
Co70 O80 2.021 . S
Co70 O82 2.137 . S
Co70 O83 2.244 . S
O71 Co70 2.216 . S
O71 C78 1.247 . S
O72 Co70 2.091 . S
O72 C78 1.261 . S
C73 O82 1.247 . S
C73 O83 1.272 . S
O74 Co70 2.004 . S
O74 C79 1.259 . S
Co75 O76 2.061 . S
Co75 O81 2.052 . S
Co75 O83 2.135 . S
O76 Co75 2.061 . S
O76 C79 1.235 . S
C77 O80 1.238 . S
C77 O81 1.241 . S
C78 O71 1.247 . S
C78 O72 1.261 . S
C79 O74 1.259 . S
C79 O76 1.235 . S
O80 Co70 2.021 . S
O80 C77 1.238 . S
O81 Co75 2.052 . S
O81 C77 1.241 . S
O82 Co70 2.137 . S
O82 C73 1.247 . S
O83 Co70 2.244 . S
O83 C73 1.272 . S
O83 Co75 2.135 . S
Co84 O85 2.216 . S
Co84 O86 2.091 . S
Co84 O88 2.004 . S
Co84 O94 2.021 . S
Co84 O96 2.137 . S
Co84 O97 2.244 . S
O85 Co84 2.216 . S
O85 C92 1.247 . S
O86 Co84 2.091 . S
O86 C92 1.261 . S
C87 O96 1.247 . S
C87 O97 1.272 . S
O88 Co84 2.004 . S
O88 C93 1.259 . S
Co89 O90 2.061 . S
Co89 O95 2.052 . S
Co89 O97 2.135 . S
O90 Co89 2.061 . S
O90 C93 1.235 . S
C91 O94 1.238 . S
C91 O95 1.241 . S
C92 O85 1.247 . S
C92 O86 1.261 . S
C93 O88 1.259 . S
C93 O90 1.235 . S
O94 Co84 2.021 . S
O94 C91 1.238 . S
O95 Co89 2.052 . S
O95 C91 1.241 . S
O96 Co84 2.137 . S
O96 C87 1.247 . S
O97 Co84 2.244 . S
O97 C87 1.272 . S
O97 Co89 2.135 . S
Co98 O99 2.216 . S
Co98 O100 2.091 . S
Co98 O102 2.004 1_455 S
Co98 O108 2.021 . S
Co98 O110 2.137 . S
Co98 O111 2.244 . S
O99 Co98 2.216 . S
O99 C106 1.247 . S
O100 Co98 2.091 . S
O100 C106 1.261 . S
C101 O110 1.247 . S
C101 O111 1.272 . S
O102 Co98 2.004 1_655 S
O102 C107 1.259 . S
Co103 O104 2.061 . S
Co103 O109 2.052 . S
Co103 O111 2.135 1_655 S
O104 Co103 2.061 . S
O104 C107 1.235 . S
C105 O108 1.238 . S
C105 O109 1.241 1_455 S
C106 O99 1.247 . S
C106 O100 1.261 . S
C107 O102 1.259 . S
C107 O104 1.235 . S
O108 Co98 2.021 . S
O108 C105 1.238 . S
O109 Co103 2.052 . S
O109 C105 1.241 1_655 S
O110 Co98 2.137 . S
O110 C101 1.247 . S
O111 Co98 2.244 . S
O111 C101 1.272 . S
O111 Co103 2.135 1_455 S
Co112 O113 2.216 . S
Co112 O114 2.091 . S
Co112 O116 2.004 . S
Co112 O122 2.021 . S
Co112 O124 2.137 . S
Co112 O125 2.244 . S
O113 Co112 2.216 . S
O113 C120 1.247 . S
O114 Co112 2.091 . S
O114 C120 1.261 . S
C115 O124 1.247 . S
C115 O125 1.272 . S
O116 Co112 2.004 . S
O116 C121 1.259 . S
Co117 O118 2.061 . S
Co117 O123 2.052 . S
Co117 O125 2.135 . S
O118 Co117 2.061 . S
O118 C121 1.235 . S
C119 O122 1.238 . S
C119 O123 1.241 . S
C120 O113 1.247 . S
C120 O114 1.261 . S
C121 O116 1.259 . S
C121 O118 1.235 . S
O122 Co112 2.021 . S
O122 C119 1.238 . S
O123 Co117 2.052 . S
O123 C119 1.241 . S
O124 Co112 2.137 . S
O124 C115 1.247 . S
O125 Co112 2.244 . S
O125 C115 1.272 . S
O125 Co117 2.135 . S
Co126 O127 2.216 . S
Co126 O128 2.091 . S
Co126 O130 2.004 . S
Co126 O136 2.021 . S
Co126 O138 2.137 . S
Co126 O139 2.244 . S
O127 Co126 2.216 . S
O127 C134 1.247 . S
O128 Co126 2.091 . S
O128 C134 1.261 . S
C129 O138 1.247 . S
C129 O139 1.272 . S
O130 Co126 2.004 . S
O130 C135 1.259 . S
Co131 O132 2.061 . S
Co131 O137 2.052 . S
Co131 O139 2.135 . S
O132 Co131 2.061 . S
O132 C135 1.235 . S
C133 O136 1.238 . S
C133 O137 1.241 . S
C134 O127 1.247 . S
C134 O128 1.261 . S
C135 O130 1.259 . S
C135 O132 1.235 . S
O136 Co126 2.021 . S
O136 C133 1.238 . S
O137 Co131 2.052 . S
O137 C133 1.241 . S
O138 Co126 2.137 . S
O138 C129 1.247 . S
O139 Co126 2.244 . S
O139 C129 1.272 . S
O139 Co131 2.135 . S
Co140 O141 2.216 . S
Co140 O142 2.091 . S
Co140 O144 2.004 1_565 S
Co140 O150 2.021 . S
Co140 O152 2.137 . S
Co140 O153 2.244 1_565 S
O141 Co140 2.216 . S
O141 C148 1.247 . S
O142 Co140 2.091 . S
O142 C148 1.261 . S
C143 O152 1.243 1_545 S
C143 O153 1.275 . S
O144 Co140 2.004 1_545 S
O144 C149 1.259 . S
Co145 O146 2.061 . S
Co145 O151 2.052 . S
Co145 O153 2.135 . S
O146 Co145 2.061 . S
O146 C149 1.235 . S
C147 O150 1.238 1_545 S
C147 O151 1.241 . S
C148 O141 1.247 . S
C148 O142 1.261 . S
C149 O144 1.259 . S
C149 O146 1.235 . S
O150 Co140 2.021 . S
O150 C147 1.238 1_565 S
O151 Co145 2.052 . S
O151 C147 1.241 . S
O152 Co140 2.137 . S
O152 C143 1.243 1_565 S
O153 Co140 2.244 1_545 S
O153 C143 1.275 . S
O153 Co145 2.135 . S
Co154 O155 2.216 . S
Co154 O156 2.091 . S
Co154 O158 2.004 . S
Co154 O164 2.021 . S
Co154 O166 2.137 1_554 S
Co154 O167 2.244 . S
O155 Co154 2.216 . S
O155 C162 1.247 . S
O156 Co154 2.091 . S
O156 C162 1.261 . S
C157 O166 1.247 . S
C157 O167 1.272 1_556 S
O158 Co154 2.004 . S
O158 C163 1.259 . S
Co159 O160 2.061 . S
Co159 O165 2.052 . S
Co159 O167 2.135 . S
O160 Co159 2.061 . S
O160 C163 1.235 . S
C161 O164 1.238 . S
C161 O165 1.241 . S
C162 O155 1.247 . S
C162 O156 1.261 . S
C163 O158 1.259 . S
C163 O160 1.235 . S
O164 Co154 2.021 . S
O164 C161 1.238 . S
O165 Co159 2.052 . S
O165 C161 1.241 . S
O166 Co154 2.137 1_556 S
O166 C157 1.247 . S
O167 Co154 2.244 . S
O167 C157 1.272 1_554 S
O167 Co159 2.135 . S
Co168 O169 2.216 . S
Co168 O170 2.091 . S
Co168 O172 2.004 . S
Co168 O178 2.021 . S
Co168 O180 2.137 1_554 S
Co168 O181 2.244 . S
O169 Co168 2.216 . S
O169 C176 1.247 . S
O170 Co168 2.091 . S
O170 C176 1.261 . S
C171 O180 1.247 . S
C171 O181 1.272 1_556 S
O172 Co168 2.004 . S
O172 C177 1.259 . S
Co173 O174 2.061 . S
Co173 O179 2.052 . S
Co173 O181 2.135 . S
O174 Co173 2.061 . S
O174 C177 1.235 . S
C175 O178 1.238 . S
C175 O179 1.241 . S
C176 O169 1.247 . S
C176 O170 1.261 . S
C177 O172 1.259 . S
C177 O174 1.235 . S
O178 Co168 2.021 . S
O178 C175 1.238 . S
O179 Co173 2.052 . S
O179 C175 1.241 . S
O180 Co168 2.137 1_556 S
O180 C171 1.247 . S
O181 Co168 2.244 . S
O181 C171 1.272 1_554 S
O181 Co173 2.135 . S
Co182 O183 2.216 1_556 S
Co182 O184 2.091 1_556 S
Co182 O186 2.004 . S
Co182 O192 2.021 1_556 S
Co182 O194 2.137 . S
Co182 O195 2.244 . S
O183 Co182 2.216 1_554 S
O183 C190 1.248 . S
O184 Co182 2.091 1_554 S
O184 C190 1.262 . S
C185 O194 1.247 . S
C185 O195 1.272 . S
O186 Co182 2.004 . S
O186 C191 1.259 . S
Co187 O188 2.065 . S
Co187 O193 2.043 1_556 S
Co187 O195 2.141 . S
O188 Co187 2.065 . S
O188 C191 1.241 . S
C189 O192 1.238 . S
C189 O193 1.241 . S
C190 O183 1.248 . S
C190 O184 1.262 . S
C191 O186 1.259 . S
C191 O188 1.241 . S
O192 Co182 2.021 1_554 S
O192 C189 1.238 . S
O193 Co187 2.043 1_554 S
O193 C189 1.241 . S
O194 Co182 2.137 . S
O194 C185 1.247 . S
O195 Co182 2.244 . S
O195 C185 1.272 . S
O195 Co187 2.141 . S
Co196 O197 2.216 . S
Co196 O198 2.091 . S
Co196 O200 2.004 . S
Co196 O206 2.021 . S
Co196 O208 2.137 . S
Co196 O209 2.244 . S
O197 Co196 2.216 . S
O197 C204 1.247 . S
O198 Co196 2.091 . S
O198 C204 1.261 . S
C199 O208 1.247 . S
C199 O209 1.272 . S
O200 Co196 2.004 . S
O200 C205 1.259 . S
Co201 O202 2.061 . S
Co201 O207 2.052 . S
Co201 O209 2.135 . S
O202 Co201 2.061 . S
O202 C205 1.235 . S
C203 O206 1.238 . S
C203 O207 1.241 . S
C204 O197 1.247 . S
C204 O198 1.261 . S
C205 O200 1.259 . S
C205 O202 1.235 . S
O206 Co196 2.021 . S
O206 C203 1.238 . S
O207 Co201 2.052 . S
O207 C203 1.241 . S
O208 Co196 2.137 . S
O208 C199 1.247 . S
O209 Co196 2.244 . S
O209 C199 1.272 . S
O209 Co201 2.135 . S
Co210 O211 2.216 . S
Co210 O212 2.091 . S
Co210 O214 2.004 . S
Co210 O220 2.021 . S
Co210 O222 2.137 . S
Co210 O223 2.244 . S
O211 Co210 2.216 . S
O211 C218 1.247 . S
O212 Co210 2.091 . S
O212 C218 1.261 . S
C213 O222 1.247 . S
C213 O223 1.272 . S
O214 Co210 2.004 . S
O214 C219 1.259 . S
Co215 O216 2.061 . S
Co215 O221 2.052 . S
Co215 O223 2.135 . S
O216 Co215 2.061 . S
O216 C219 1.235 . S
C217 O220 1.238 . S
C217 O221 1.241 . S
C218 O211 1.247 . S
C218 O212 1.261 . S
C219 O214 1.259 . S
C219 O216 1.235 . S
O220 Co210 2.021 . S
O220 C217 1.238 . S
O221 Co215 2.052 . S
O221 C217 1.241 . S
O222 Co210 2.137 . S
O222 C213 1.247 . S
O223 Co210 2.244 . S
O223 C213 1.272 . S
O223 Co215 2.135 . S
Co224 O225 2.216 . S
Co224 O226 2.091 . S
Co224 O228 2.004 . S
Co224 O234 2.021 . S
Co224 O236 2.137 . S
Co224 O237 2.244 . S
O225 Co224 2.216 . S
O225 C232 1.247 . S
O226 Co224 2.091 . S
O226 C232 1.261 . S
C227 O236 1.247 . S
C227 O237 1.272 . S
O228 Co224 2.004 . S
O228 C233 1.259 . S
Co229 O230 2.061 . S
Co229 O235 2.052 . S
Co229 O237 2.135 . S
O230 Co229 2.061 . S
O230 C233 1.235 . S
C231 O234 1.238 . S
C231 O235 1.241 . S
C232 O225 1.247 . S
C232 O226 1.261 . S
C233 O228 1.259 . S
C233 O230 1.235 . S
O234 Co224 2.021 . S
O234 C231 1.238 . S
O235 Co229 2.052 . S
O235 C231 1.241 . S
O236 Co224 2.137 . S
O236 C227 1.247 . S
O237 Co224 2.244 . S
O237 C227 1.272 . S
O237 Co229 2.135 . S
Co238 O239 2.216 . S
Co238 O240 2.091 . S
Co238 O242 2.004 . S
Co238 O248 2.021 . S
Co238 O250 2.137 . S
Co238 O251 2.244 . S
O239 Co238 2.216 . S
O239 C246 1.247 . S
O240 Co238 2.091 . S
O240 C246 1.261 . S
C241 O250 1.247 . S
C241 O251 1.272 . S
O242 Co238 2.004 . S
O242 C247 1.259 . S
Co243 O244 2.061 . S
Co243 O249 2.052 . S
Co243 O251 2.135 . S
O244 Co243 2.061 . S
O244 C247 1.235 . S
C245 O248 1.238 . S
C245 O249 1.241 . S
C246 O239 1.247 . S
C246 O240 1.261 . S
C247 O242 1.259 . S
C247 O244 1.235 . S
O248 Co238 2.021 . S
O248 C245 1.238 . S
O249 Co243 2.052 . S
O249 C245 1.241 . S
O250 Co238 2.137 . S
O250 C241 1.247 . S
O251 Co238 2.244 . S
O251 C241 1.272 . S
O251 Co243 2.135 . S
Co252 O253 2.216 . S
Co252 O254 2.091 . S
Co252 O256 2.004 . S
Co252 O262 2.021 . S
Co252 O264 2.137 . S
Co252 O265 2.244 . S
O253 Co252 2.216 . S
O253 C260 1.247 . S
O254 Co252 2.091 . S
O254 C260 1.261 . S
C255 O264 1.247 . S
C255 O265 1.272 . S
O256 Co252 2.004 . S
O256 C261 1.259 . S
Co257 O258 2.061 . S
Co257 O263 2.052 . S
Co257 O265 2.135 . S
O258 Co257 2.061 . S
O258 C261 1.235 . S
C259 O262 1.238 . S
C259 O263 1.241 . S
C260 O253 1.247 . S
C260 O254 1.261 . S
C261 O256 1.259 . S
C261 O258 1.235 . S
O262 Co252 2.021 . S
O262 C259 1.238 . S
O263 Co257 2.052 . S
O263 C259 1.241 . S
O264 Co252 2.137 . S
O264 C255 1.247 . S
O265 Co252 2.244 . S
O265 C255 1.272 . S
O265 Co257 2.135 . S
Co266 O267 2.216 1_545 S
Co266 O268 2.091 1_545 S
Co266 O270 2.004 . S
Co266 O276 2.021 . S
Co266 O278 2.137 . S
Co266 O279 2.244 . S
O267 Co266 2.216 1_565 S
O267 C274 1.247 . S
O268 Co266 2.091 1_565 S
O268 C274 1.261 . S
C269 O278 1.247 . S
C269 O279 1.272 . S
O270 Co266 2.004 . S
O270 C275 1.259 . S
Co271 O272 2.061 . S
Co271 O277 2.052 . S
Co271 O279 2.135 . S
O272 Co271 2.061 . S
O272 C275 1.235 . S
C273 O276 1.238 . S
C273 O277 1.241 . S
C274 O267 1.247 . S
C274 O268 1.261 . S
C275 O270 1.259 . S
C275 O272 1.235 . S
O276 Co266 2.021 . S
O276 C273 1.238 . S
O277 Co271 2.052 . S
O277 C273 1.241 . S
O278 Co266 2.137 . S
O278 C269 1.247 . S
O279 Co266 2.244 . S
O279 C269 1.272 . S
O279 Co271 2.135 . S
Co280 O281 2.216 . S
Co280 O282 2.091 . S
Co280 O284 2.004 1_554 S
Co280 O290 2.021 . S
Co280 O292 2.137 1_554 S
Co280 O293 2.244 1_554 S
O281 Co280 2.216 . S
O281 C288 1.247 . S
O282 Co280 2.091 . S
O282 C288 1.261 . S
C283 O292 1.247 . S
C283 O293 1.272 . S
O284 Co280 2.004 1_556 S
O284 C289 1.259 1_556 S
Co285 O286 2.061 . S
Co285 O291 2.052 . S
Co285 O293 2.135 1_554 S
O286 Co285 2.061 . S
O286 C289 1.235 . S
C287 O290 1.238 . S
C287 O291 1.241 . S
C288 O281 1.247 . S
C288 O282 1.261 . S
C289 O284 1.259 1_554 S
C289 O286 1.235 . S
O290 Co280 2.021 . S
O290 C287 1.238 . S
O291 Co285 2.052 . S
O291 C287 1.241 . S
O292 Co280 2.137 1_556 S
O292 C283 1.247 . S
O293 Co280 2.244 1_556 S
O293 C283 1.272 . S
O293 Co285 2.135 1_556 S
Co294 O295 2.216 . S
Co294 O296 2.091 . S
Co294 O298 2.004 . S
Co294 O304 2.021 . S
Co294 O306 2.137 . S
Co294 O307 2.244 . S
O295 Co294 2.216 . S
O295 C302 1.247 . S
O296 Co294 2.091 . S
O296 C302 1.261 . S
C297 O306 1.247 . S
C297 O307 1.272 . S
O298 Co294 2.004 . S
O298 C303 1.259 . S
Co299 O300 2.061 . S
Co299 O305 2.052 . S
Co299 O307 2.135 . S
O300 Co299 2.061 . S
O300 C303 1.235 . S
C301 O304 1.238 . S
C301 O305 1.241 . S
C302 O295 1.247 . S
C302 O296 1.261 . S
C303 O298 1.259 . S
C303 O300 1.235 . S
O304 Co294 2.021 . S
O304 C301 1.238 . S
O305 Co299 2.052 . S
O305 C301 1.241 . S
O306 Co294 2.137 . S
O306 C297 1.247 . S
O307 Co294 2.244 . S
O307 C297 1.272 . S
O307 Co299 2.135 . S
Co308 O309 2.216 . S
Co308 O310 2.091 . S
Co308 O312 2.004 . S
Co308 O318 2.021 . S
Co308 O320 2.137 . S
Co308 O321 2.244 . S
O309 Co308 2.216 . S
O309 C316 1.247 . S
O310 Co308 2.091 . S
O310 C316 1.261 . S
C311 O320 1.247 . S
C311 O321 1.272 . S
O312 Co308 2.004 . S
O312 C317 1.259 . S
Co313 O314 2.061 . S
Co313 O319 2.052 . S
Co313 O321 2.135 . S
O314 Co313 2.061 . S
O314 C317 1.235 . S
C315 O318 1.238 . S
C315 O319 1.241 . S
C316 O309 1.247 . S
C316 O310 1.261 . S
C317 O312 1.259 . S
C317 O314 1.235 . S
O318 Co308 2.021 . S
O318 C315 1.238 . S
O319 Co313 2.052 . S
O319 C315 1.241 . S
O320 Co308 2.137 . S
O320 C311 1.247 . S
O321 Co308 2.244 . S
O321 C311 1.272 . S
O321 Co313 2.135 . S
Co322 O323 2.216 . S
Co322 O324 2.091 . S
Co322 O326 2.004 . S
Co322 O332 2.021 . S
Co322 O334 2.137 . S
Co322 O335 2.244 . S
O323 Co322 2.216 . S
O323 C330 1.247 . S
O324 Co322 2.091 . S
O324 C330 1.261 . S
C325 O334 1.247 . S
C325 O335 1.272 . S
O326 Co322 2.004 . S
O326 C331 1.259 . S
Co327 O328 2.061 . S
Co327 O333 2.052 . S
Co327 O335 2.135 . S
O328 Co327 2.061 . S
O328 C331 1.235 . S
C329 O332 1.238 . S
C329 O333 1.241 . S
C330 O323 1.247 . S
C330 O324 1.261 . S
C331 O326 1.259 . S
C331 O328 1.235 . S
O332 Co322 2.021 . S
O332 C329 1.238 . S
O333 Co327 2.052 . S
O333 C329 1.241 . S
O334 Co322 2.137 . S
O334 C325 1.247 . S
O335 Co322 2.244 . S
O335 C325 1.272 . S
O335 Co327 2.135 . S
Tb336 O339 2.453 . S
Tb336 O340 2.596 . S
Tb336 O341 2.374 1_554 S
Tb336 O349 2.343 1_455 S
Tb336 O351 2.353 . S
Tb336 O353 2.427 . S
Tb336 O354 2.513 1_554 S
C337 O341 1.251 . S
C337 O343 1.263 . S
Tb338 O340 2.343 1_655 S
Tb338 O343 2.353 1_654 S
Tb338 O346 2.427 1_645 S
Tb338 O347 2.513 1_645 S
Tb338 O348 2.453 . S
Tb338 O349 2.596 . S
Tb338 O350 2.374 . S
O339 Tb336 2.453 . S
O339 C355 1.245 . S
O340 Tb336 2.596 . S
O340 Tb338 2.343 1_455 S
O340 C355 1.259 . S
O341 Tb336 2.374 1_556 S
O341 C337 1.251 . S
C342 O346 1.275 . S
C342 O347 1.246 . S
O343 C337 1.263 . S
O343 Tb338 2.353 1_456 S
C344 O348 1.245 . S
C344 O349 1.259 . S
C345 O350 1.244 1_455 S
C345 O351 1.297 . S
O346 Tb338 2.427 1_465 S
O346 C342 1.275 . S
O347 Tb338 2.513 1_465 S
O347 C342 1.246 . S
O348 Tb338 2.453 . S
O348 C344 1.245 . S
O349 Tb336 2.343 1_655 S
O349 Tb338 2.596 . S
O349 C344 1.259 . S
O350 Tb338 2.374 . S
O350 C345 1.244 1_655 S
O351 Tb336 2.353 . S
O351 C345 1.297 . S
C352 O353 1.275 . S
C352 O354 1.246 1_554 S
O353 Tb336 2.427 . S
O353 C352 1.275 . S
O354 Tb336 2.513 1_556 S
O354 C352 1.246 1_556 S
C355 O339 1.245 . S
C355 O340 1.259 . S
Tb356 O359 2.453 . S
Tb356 O360 2.596 . S
Tb356 O361 2.374 . S
Tb356 O369 2.343 . S
Tb356 O371 2.353 . S
Tb356 O373 2.427 . S
Tb356 O374 2.513 . S
C357 O361 1.251 . S
C357 O363 1.263 . S
Tb358 O360 2.343 . S
Tb358 O363 2.353 . S
Tb358 O366 2.427 . S
Tb358 O367 2.513 . S
Tb358 O368 2.453 . S
Tb358 O369 2.596 . S
Tb358 O370 2.374 . S
O359 Tb356 2.453 . S
O359 C375 1.245 . S
O360 Tb356 2.596 . S
O360 Tb358 2.343 . S
O360 C375 1.259 . S
O361 Tb356 2.374 . S
O361 C357 1.251 . S
C362 O366 1.275 . S
C362 O367 1.246 . S
O363 C357 1.263 . S
O363 Tb358 2.353 . S
C364 O368 1.245 . S
C364 O369 1.259 . S
C365 O370 1.250 . S
C365 O371 1.263 . S
O366 Tb358 2.427 . S
O366 C362 1.275 . S
O367 Tb358 2.513 . S
O367 C362 1.246 . S
O368 Tb358 2.453 . S
O368 C364 1.245 . S
O369 Tb356 2.343 . S
O369 Tb358 2.596 . S
O369 C364 1.259 . S
O370 Tb358 2.374 . S
O370 C365 1.250 . S
O371 Tb356 2.353 . S
O371 C365 1.263 . S
C372 O373 1.275 . S
C372 O374 1.246 . S
O373 Tb356 2.427 . S
O373 C372 1.275 . S
O374 Tb356 2.513 . S
O374 C372 1.246 . S
C375 O359 1.245 . S
C375 O360 1.259 . S
Tb376 O379 2.453 . S
Tb376 O380 2.596 . S
Tb376 O381 2.374 . S
Tb376 O389 2.343 . S
Tb376 O391 2.353 . S
Tb376 O393 2.427 . S
Tb376 O394 2.513 . S
C377 O381 1.251 . S
C377 O383 1.263 . S
Tb378 O380 2.343 . S
Tb378 O383 2.353 . S
Tb378 O386 2.427 . S
Tb378 O387 2.513 . S
Tb378 O388 2.453 1_545 S
Tb378 O389 2.596 . S
Tb378 O390 2.374 . S
O379 Tb376 2.453 . S
O379 C395 1.245 . S
O380 Tb376 2.596 . S
O380 Tb378 2.343 . S
O380 C395 1.259 . S
O381 Tb376 2.374 . S
O381 C377 1.251 . S
C382 O386 1.275 . S
C382 O387 1.246 . S
O383 C377 1.263 . S
O383 Tb378 2.353 . S
C384 O388 1.245 . S
C384 O389 1.259 1_565 S
C385 O390 1.250 . S
C385 O391 1.263 . S
O386 Tb378 2.427 . S
O386 C382 1.275 . S
O387 Tb378 2.513 . S
O387 C382 1.246 . S
O388 Tb378 2.453 1_565 S
O388 C384 1.245 . S
O389 Tb376 2.343 . S
O389 Tb378 2.596 . S
O389 C384 1.259 1_545 S
O390 Tb378 2.374 . S
O390 C385 1.250 . S
O391 Tb376 2.353 . S
O391 C385 1.263 . S
C392 O393 1.275 . S
C392 O394 1.246 . S
O393 Tb376 2.427 . S
O393 C392 1.275 . S
O394 Tb376 2.513 . S
O394 C392 1.246 . S
C395 O379 1.245 . S
C395 O380 1.259 . S
Tb396 O399 2.453 . S
Tb396 O400 2.596 . S
Tb396 O401 2.374 . S
Tb396 O409 2.343 . S
Tb396 O411 2.353 . S
Tb396 O413 2.427 . S
Tb396 O414 2.513 . S
C397 O401 1.251 . S
C397 O403 1.263 . S
Tb398 O400 2.343 . S
Tb398 O403 2.353 . S
Tb398 O406 2.427 . S
Tb398 O407 2.513 . S
Tb398 O408 2.453 . S
Tb398 O409 2.596 . S
Tb398 O410 2.374 . S
O399 Tb396 2.453 . S
O399 C415 1.245 . S
O400 Tb396 2.596 . S
O400 Tb398 2.343 . S
O400 C415 1.259 . S
O401 Tb396 2.374 . S
O401 C397 1.251 . S
C402 O406 1.275 . S
C402 O407 1.246 . S
O403 C397 1.263 . S
O403 Tb398 2.353 . S
C404 O408 1.245 . S
C404 O409 1.259 . S
C405 O410 1.250 . S
C405 O411 1.263 . S
O406 Tb398 2.427 . S
O406 C402 1.275 . S
O407 Tb398 2.513 . S
O407 C402 1.246 . S
O408 Tb398 2.453 . S
O408 C404 1.245 . S
O409 Tb396 2.343 . S
O409 Tb398 2.596 . S
O409 C404 1.259 . S
O410 Tb398 2.374 . S
O410 C405 1.250 . S
O411 Tb396 2.353 . S
O411 C405 1.263 . S
C412 O413 1.275 . S
C412 O414 1.246 . S
O413 Tb396 2.427 . S
O413 C412 1.275 . S
O414 Tb396 2.513 . S
O414 C412 1.246 . S
C415 O399 1.245 . S
C415 O400 1.259 . S
Tb416 O419 2.453 1_545 S
Tb416 O420 2.596 . S
Tb416 O421 2.374 1_455 S
Tb416 O429 2.343 . S
Tb416 O431 2.353 . S
Tb416 O433 2.427 . S
Tb416 O434 2.513 1_455 S
C417 O421 1.251 . S
C417 O423 1.263 . S
Tb418 O420 2.343 . S
Tb418 O423 2.353 1_455 S
Tb418 O426 2.427 . S
Tb418 O427 2.513 . S
Tb418 O428 2.453 . S
Tb418 O429 2.596 . S
Tb418 O430 2.374 . S
O419 Tb416 2.453 1_565 S
O419 C435 1.245 . S
O420 Tb416 2.596 . S
O420 Tb418 2.343 . S
O420 C435 1.259 1_545 S
O421 Tb416 2.374 1_655 S
O421 C417 1.251 . S
C422 O426 1.275 . S
C422 O427 1.246 . S
O423 C417 1.263 . S
O423 Tb418 2.353 1_655 S
C424 O428 1.245 . S
C424 O429 1.259 . S
C425 O430 1.250 . S
C425 O431 1.263 . S
O426 Tb418 2.427 . S
O426 C422 1.275 . S
O427 Tb418 2.513 . S
O427 C422 1.246 . S
O428 Tb418 2.453 . S
O428 C424 1.245 . S
O429 Tb416 2.343 . S
O429 Tb418 2.596 . S
O429 C424 1.259 . S
O430 Tb418 2.374 . S
O430 C425 1.250 . S
O431 Tb416 2.353 . S
O431 C425 1.263 . S
C432 O433 1.275 1_655 S
C432 O434 1.246 . S
O433 Tb416 2.427 . S
O433 C432 1.275 1_455 S
O434 Tb416 2.513 1_655 S
O434 C432 1.246 . S
C435 O419 1.245 . S
C435 O420 1.259 1_565 S
Tb436 O439 2.453 . S
Tb436 O440 2.596 . S
Tb436 O441 2.374 . S
Tb436 O449 2.343 . S
Tb436 O451 2.353 . S
Tb436 O453 2.427 . S
Tb436 O454 2.513 . S
C437 O441 1.251 . S
C437 O443 1.263 . S
Tb438 O440 2.343 . S
Tb438 O443 2.353 . S
Tb438 O446 2.427 . S
Tb438 O447 2.513 . S
Tb438 O448 2.453 . S
Tb438 O449 2.596 . S
Tb438 O450 2.374 . S
O439 Tb436 2.453 . S
O439 C455 1.245 . S
O440 Tb436 2.596 . S
O440 Tb438 2.343 . S
O440 C455 1.259 . S
O441 Tb436 2.374 . S
O441 C437 1.251 . S
C442 O446 1.275 . S
C442 O447 1.246 . S
O443 C437 1.263 . S
O443 Tb438 2.353 . S
C444 O448 1.245 . S
C444 O449 1.259 . S
C445 O450 1.250 . S
C445 O451 1.263 . S
O446 Tb438 2.427 . S
O446 C442 1.275 . S
O447 Tb438 2.513 . S
O447 C442 1.246 . S
O448 Tb438 2.453 . S
O448 C444 1.245 . S
O449 Tb436 2.343 . S
O449 Tb438 2.596 . S
O449 C444 1.259 . S
O450 Tb438 2.374 . S
O450 C445 1.250 . S
O451 Tb436 2.353 . S
O451 C445 1.263 . S
C452 O453 1.275 . S
C452 O454 1.246 . S
O453 Tb436 2.427 . S
O453 C452 1.275 . S
O454 Tb436 2.513 . S
O454 C452 1.246 . S
C455 O439 1.245 . S
C455 O440 1.259 . S
Tb456 O459 2.453 . S
Tb456 O460 2.596 . S
Tb456 O461 2.374 1_545 S
Tb456 O469 2.343 1_556 S
Tb456 O471 2.353 1_556 S
Tb456 O473 2.427 1_556 S
Tb456 O474 2.513 1_556 S
C457 O461 1.251 1_554 S
C457 O463 1.253 1_565 S
Tb458 O460 2.343 1_554 S
Tb458 O463 2.387 . S
Tb458 O466 2.427 . S
Tb458 O467 2.513 . S
Tb458 O468 2.453 . S
Tb458 O469 2.596 . S
Tb458 O470 2.374 . S
O459 Tb456 2.453 . S
O459 C475 1.245 . S
O460 Tb456 2.596 . S
O460 Tb458 2.343 1_556 S
O460 C475 1.259 . S
O461 Tb456 2.374 1_565 S
O461 C457 1.251 1_556 S
C462 O466 1.275 . S
C462 O467 1.246 . S
O463 C457 1.253 1_545 S
O463 Tb458 2.387 . S
C464 O468 1.245 . S
C464 O469 1.259 . S
C465 O470 1.250 . S
C465 O471 1.263 . S
O466 Tb458 2.427 . S
O466 C462 1.275 . S
O467 Tb458 2.513 . S
O467 C462 1.246 . S
O468 Tb458 2.453 . S
O468 C464 1.245 . S
O469 Tb456 2.343 1_554 S
O469 Tb458 2.596 . S
O469 C464 1.259 . S
O470 Tb458 2.374 . S
O470 C465 1.250 . S
O471 Tb456 2.353 1_554 S
O471 C465 1.263 . S
C472 O473 1.275 . S
C472 O474 1.246 . S
O473 Tb456 2.427 1_554 S
O473 C472 1.275 . S
O474 Tb456 2.513 1_554 S
O474 C472 1.246 . S
C475 O459 1.245 . S
C475 O460 1.259 . S
Tb476 O479 2.453 . S
Tb476 O480 2.596 . S
Tb476 O481 2.374 . S
Tb476 O489 2.343 . S
Tb476 O491 2.353 . S
Tb476 O493 2.427 . S
Tb476 O494 2.513 . S
C477 O481 1.251 . S
C477 O483 1.263 . S
Tb478 O480 2.343 . S
Tb478 O483 2.353 . S
Tb478 O486 2.427 . S
Tb478 O487 2.513 . S
Tb478 O488 2.453 . S
Tb478 O489 2.596 . S
Tb478 O490 2.374 . S
O479 Tb476 2.453 . S
O479 C495 1.245 . S
O480 Tb476 2.596 . S
O480 Tb478 2.343 . S
O480 C495 1.259 . S
O481 Tb476 2.374 . S
O481 C477 1.251 . S
C482 O486 1.275 . S
C482 O487 1.246 . S
O483 C477 1.263 . S
O483 Tb478 2.353 . S
C484 O488 1.245 . S
C484 O489 1.259 . S
C485 O490 1.250 . S
C485 O491 1.263 . S
O486 Tb478 2.427 . S
O486 C482 1.275 . S
O487 Tb478 2.513 . S
O487 C482 1.246 . S
O488 Tb478 2.453 . S
O488 C484 1.245 . S
O489 Tb476 2.343 . S
O489 Tb478 2.596 . S
O489 C484 1.259 . S
O490 Tb478 2.374 . S
O490 C485 1.250 . S
O491 Tb476 2.353 . S
O491 C485 1.263 . S
C492 O493 1.275 . S
C492 O494 1.246 . S
O493 Tb476 2.427 . S
O493 C492 1.275 . S
O494 Tb476 2.513 . S
O494 C492 1.246 . S
C495 O479 1.245 . S
C495 O480 1.259 . S
Tb496 O499 2.453 1_556 S
Tb496 O500 2.596 1_556 S
Tb496 O501 2.374 1_556 S
Tb496 O509 2.327 1_556 S
Tb496 O511 2.353 . S
Tb496 O513 2.427 . S
Tb496 O514 2.513 . S
C497 O501 1.251 . S
C497 O503 1.263 . S
Tb498 O500 2.343 . S
Tb498 O503 2.353 . S
Tb498 O506 2.427 . S
Tb498 O507 2.513 . S
Tb498 O508 2.453 . S
Tb498 O509 2.643 . S
Tb498 O510 2.374 . S
O499 Tb496 2.453 1_554 S
O499 C515 1.245 . S
O500 Tb496 2.596 1_554 S
O500 Tb498 2.343 . S
O500 C515 1.259 . S
O501 Tb496 2.374 1_554 S
O501 C497 1.251 . S
C502 O506 1.275 . S
C502 O507 1.246 . S
O503 C497 1.263 . S
O503 Tb498 2.353 . S
C504 O508 1.245 . S
C504 O509 1.264 . S
C505 O510 1.250 . S
C505 O511 1.263 1_554 S
O506 Tb498 2.427 . S
O506 C502 1.275 . S
O507 Tb498 2.513 . S
O507 C502 1.246 . S
O508 Tb498 2.453 . S
O508 C504 1.245 . S
O509 Tb496 2.327 1_554 S
O509 Tb498 2.643 . S
O509 C504 1.264 . S
O510 Tb498 2.374 . S
O510 C505 1.250 . S
O511 Tb496 2.353 . S
O511 C505 1.263 1_556 S
C512 O513 1.275 . S
C512 O514 1.246 . S
O513 Tb496 2.427 . S
O513 C512 1.275 . S
O514 Tb496 2.513 . S
O514 C512 1.246 . S
C515 O499 1.245 . S
C515 O500 1.259 . S
Tb516 O519 2.453 . S
Tb516 O520 2.596 . S
Tb516 O521 2.374 . S
Tb516 O529 2.343 . S
Tb516 O531 2.353 . S
Tb516 O533 2.427 . S
Tb516 O534 2.513 . S
C517 O521 1.251 . S
C517 O523 1.263 . S
Tb518 O520 2.343 . S
Tb518 O523 2.353 . S
Tb518 O526 2.427 . S
Tb518 O527 2.513 . S
Tb518 O528 2.453 . S
Tb518 O529 2.596 . S
Tb518 O530 2.374 . S
O519 Tb516 2.453 . S
O519 C535 1.245 . S
O520 Tb516 2.596 . S
O520 Tb518 2.343 . S
O520 C535 1.259 . S
O521 Tb516 2.374 . S
O521 C517 1.251 . S
C522 O526 1.275 . S
C522 O527 1.246 . S
O523 C517 1.263 . S
O523 Tb518 2.353 . S
C524 O528 1.245 . S
C524 O529 1.259 . S
C525 O530 1.250 . S
C525 O531 1.263 . S
O526 Tb518 2.427 . S
O526 C522 1.275 . S
O527 Tb518 2.513 . S
O527 C522 1.246 . S
O528 Tb518 2.453 . S
O528 C524 1.245 . S
O529 Tb516 2.343 . S
O529 Tb518 2.596 . S
O529 C524 1.259 . S
O530 Tb518 2.374 . S
O530 C525 1.250 . S
O531 Tb516 2.353 . S
O531 C525 1.263 . S
C532 O533 1.275 . S
C532 O534 1.246 . S
O533 Tb516 2.427 . S
O533 C532 1.275 . S
O534 Tb516 2.513 . S
O534 C532 1.246 . S
C535 O519 1.245 . S
C535 O520 1.259 . S
Tb536 O539 2.423 1_655 S
Tb536 O540 2.596 1_655 S
Tb536 O541 2.374 . S
Tb536 O549 2.343 . S
Tb536 O551 2.353 . S
Tb536 O553 2.427 . S
Tb536 O554 2.513 . S
C537 O541 1.251 1_455 S
C537 O543 1.263 . S
Tb538 O540 2.343 . S
Tb538 O543 2.353 . S
Tb538 O546 2.427 . S
Tb538 O547 2.513 . S
Tb538 O548 2.453 . S
Tb538 O549 2.596 1_455 S
Tb538 O550 2.374 . S
O539 Tb536 2.423 1_455 S
O539 C555 1.291 . S
O540 Tb536 2.596 1_455 S
O540 Tb538 2.343 . S
O540 C555 1.259 . S
O541 Tb536 2.374 . S
O541 C537 1.251 1_655 S
C542 O546 1.275 . S
C542 O547 1.246 . S
O543 C537 1.263 . S
O543 Tb538 2.353 . S
C544 O548 1.245 1_655 S
C544 O549 1.259 . S
C545 O550 1.250 . S
C545 O551 1.263 1_455 S
O546 Tb538 2.427 . S
O546 C542 1.275 . S
O547 Tb538 2.513 . S
O547 C542 1.246 . S
O548 Tb538 2.453 . S
O548 C544 1.245 1_455 S
O549 Tb536 2.343 . S
O549 Tb538 2.596 1_655 S
O549 C544 1.259 . S
O550 Tb538 2.374 . S
O550 C545 1.250 . S
O551 Tb536 2.353 . S
O551 C545 1.263 1_655 S
C552 O553 1.275 . S
C552 O554 1.246 . S
O553 Tb536 2.427 . S
O553 C552 1.275 . S
O554 Tb536 2.513 . S
O554 C552 1.246 . S
C555 O539 1.291 . S
C555 O540 1.259 . S
Tb556 O559 2.453 . S
Tb556 O560 2.596 . S
Tb556 O561 2.374 . S
Tb556 O569 2.343 . S
Tb556 O571 2.353 . S
Tb556 O573 2.427 . S
Tb556 O574 2.513 . S
C557 O561 1.251 . S
C557 O563 1.263 . S
Tb558 O560 2.343 . S
Tb558 O563 2.353 . S
Tb558 O566 2.427 . S
Tb558 O567 2.513 . S
Tb558 O568 2.453 . S
Tb558 O569 2.596 . S
Tb558 O570 2.374 . S
O559 Tb556 2.453 . S
O559 C575 1.245 . S
O560 Tb556 2.596 . S
O560 Tb558 2.343 . S
O560 C575 1.259 . S
O561 Tb556 2.374 . S
O561 C557 1.251 . S
C562 O566 1.275 . S
C562 O567 1.246 . S
O563 C557 1.263 . S
O563 Tb558 2.353 . S
C564 O568 1.245 . S
C564 O569 1.259 . S
C565 O570 1.250 . S
C565 O571 1.263 . S
O566 Tb558 2.427 . S
O566 C562 1.275 . S
O567 Tb558 2.513 . S
O567 C562 1.246 . S
O568 Tb558 2.453 . S
O568 C564 1.245 . S
O569 Tb556 2.343 . S
O569 Tb558 2.596 . S
O569 C564 1.259 . S
O570 Tb558 2.374 . S
O570 C565 1.250 . S
O571 Tb556 2.353 . S
O571 C565 1.263 . S
C572 O573 1.275 . S
C572 O574 1.246 . S
O573 Tb556 2.427 . S
O573 C572 1.275 . S
O574 Tb556 2.513 . S
O574 C572 1.246 . S
C575 O559 1.245 . S
C575 O560 1.259 . S
Tb576 O579 2.453 . S
Tb576 O580 2.596 . S
Tb576 O581 2.374 . S
Tb576 O589 2.343 . S
Tb576 O591 2.353 . S
Tb576 O593 2.427 . S
Tb576 O594 2.513 . S
C577 O581 1.251 . S
C577 O583 1.263 . S
Tb578 O580 2.343 . S
Tb578 O583 2.353 . S
Tb578 O586 2.427 . S
Tb578 O587 2.513 . S
Tb578 O588 2.453 . S
Tb578 O589 2.596 . S
Tb578 O590 2.374 . S
O579 Tb576 2.453 . S
O579 C595 1.245 . S
O580 Tb576 2.596 . S
O580 Tb578 2.343 . S
O580 C595 1.259 . S
O581 Tb576 2.374 . S
O581 C577 1.251 . S
C582 O586 1.275 . S
C582 O587 1.246 . S
O583 C577 1.263 . S
O583 Tb578 2.353 . S
C584 O588 1.245 . S
C584 O589 1.259 . S
C585 O590 1.250 . S
C585 O591 1.263 . S
O586 Tb578 2.427 . S
O586 C582 1.275 . S
O587 Tb578 2.513 . S
O587 C582 1.246 . S
O588 Tb578 2.453 . S
O588 C584 1.245 . S
O589 Tb576 2.343 . S
O589 Tb578 2.596 . S
O589 C584 1.259 . S
O590 Tb578 2.374 . S
O590 C585 1.250 . S
O591 Tb576 2.353 . S
O591 C585 1.263 . S
C592 O593 1.275 . S
C592 O594 1.246 . S
O593 Tb576 2.427 . S
O593 C592 1.275 . S
O594 Tb576 2.513 . S
O594 C592 1.246 . S
C595 O579 1.245 . S
C595 O580 1.259 . S
Tb596 O599 2.453 . S
Tb596 O600 2.596 . S
Tb596 O601 2.374 . S
Tb596 O609 2.343 . S
Tb596 O611 2.353 . S
Tb596 O613 2.427 . S
Tb596 O614 2.513 . S
C597 O601 1.251 . S
C597 O603 1.263 . S
Tb598 O600 2.343 . S
Tb598 O603 2.353 . S
Tb598 O606 2.427 . S
Tb598 O607 2.513 . S
Tb598 O608 2.453 . S
Tb598 O609 2.596 . S
Tb598 O610 2.374 . S
O599 Tb596 2.453 . S
O599 C615 1.245 . S
O600 Tb596 2.596 . S
O600 Tb598 2.343 . S
O600 C615 1.259 . S
O601 Tb596 2.374 . S
O601 C597 1.251 . S
C602 O606 1.275 . S
C602 O607 1.246 . S
O603 C597 1.263 . S
O603 Tb598 2.353 . S
C604 O608 1.245 . S
C604 O609 1.259 . S
C605 O610 1.250 . S
C605 O611 1.263 . S
O606 Tb598 2.427 . S
O606 C602 1.275 . S
O607 Tb598 2.513 . S
O607 C602 1.246 . S
O608 Tb598 2.453 . S
O608 C604 1.245 . S
O609 Tb596 2.343 . S
O609 Tb598 2.596 . S
O609 C604 1.259 . S
O610 Tb598 2.374 . S
O610 C605 1.250 . S
O611 Tb596 2.353 . S
O611 C605 1.263 . S
C612 O613 1.275 . S
C612 O614 1.246 . S
O613 Tb596 2.427 . S
O613 C612 1.275 . S
O614 Tb596 2.513 . S
O614 C612 1.246 . S
C615 O599 1.245 . S
C615 O600 1.259 . S
Tb616 O619 2.453 . S
Tb616 O620 2.596 . S
Tb616 O621 2.374 . S
Tb616 O629 2.343 . S
Tb616 O631 2.353 . S
Tb616 O633 2.427 . S
Tb616 O634 2.513 . S
C617 O621 1.251 . S
C617 O623 1.263 . S
Tb618 O620 2.343 . S
Tb618 O623 2.353 . S
Tb618 O626 2.427 . S
Tb618 O627 2.513 . S
Tb618 O628 2.453 . S
Tb618 O629 2.596 . S
Tb618 O630 2.374 . S
O619 Tb616 2.453 . S
O619 C635 1.245 . S
O620 Tb616 2.596 . S
O620 Tb618 2.343 . S
O620 C635 1.259 . S
O621 Tb616 2.374 . S
O621 C617 1.251 . S
C622 O626 1.275 . S
C622 O627 1.246 . S
O623 C617 1.263 . S
O623 Tb618 2.353 . S
C624 O628 1.245 . S
C624 O629 1.259 . S
C625 O630 1.250 . S
C625 O631 1.263 . S
O626 Tb618 2.427 . S
O626 C622 1.275 . S
O627 Tb618 2.513 . S
O627 C622 1.246 . S
O628 Tb618 2.453 . S
O628 C624 1.245 . S
O629 Tb616 2.343 . S
O629 Tb618 2.596 . S
O629 C624 1.259 . S
O630 Tb618 2.374 . S
O630 C625 1.250 . S
O631 Tb616 2.353 . S
O631 C625 1.263 . S
C632 O633 1.275 . S
C632 O634 1.246 . S
O633 Tb616 2.427 . S
O633 C632 1.275 . S
O634 Tb616 2.513 . S
O634 C632 1.246 . S
C635 O619 1.245 . S
C635 O620 1.259 . S
Tb636 O639 2.453 . S
Tb636 O640 2.596 . S
Tb636 O641 2.374 . S
Tb636 O649 2.343 . S
Tb636 O651 2.353 1_554 S
Tb636 O653 2.427 1_554 S
Tb636 O654 2.513 . S
C637 O641 1.251 . S
C637 O643 1.263 1_455 S
Tb638 O640 2.343 1_655 S
Tb638 O643 2.353 . S
Tb638 O646 2.427 . S
Tb638 O647 2.513 . S
Tb638 O648 2.453 . S
Tb638 O649 2.596 1_655 S
Tb638 O650 2.374 1_554 S
O639 Tb636 2.453 . S
O639 C655 1.245 . S
O640 Tb636 2.596 . S
O640 Tb638 2.343 1_455 S
O640 C655 1.259 . S
O641 Tb636 2.374 . S
O641 C637 1.251 . S
C642 O646 1.275 . S
C642 O647 1.246 . S
O643 C637 1.263 1_655 S
O643 Tb638 2.353 . S
C644 O648 1.251 1_455 S
C644 O649 1.257 . S
C645 O650 1.250 . S
C645 O651 1.263 1_655 S
O646 Tb638 2.427 . S
O646 C642 1.275 . S
O647 Tb638 2.513 . S
O647 C642 1.246 . S
O648 Tb638 2.453 . S
O648 C644 1.251 1_655 S
O649 Tb636 2.343 . S
O649 Tb638 2.596 1_455 S
O649 C644 1.257 . S
O650 Tb638 2.374 1_556 S
O650 C645 1.250 . S
O651 Tb636 2.353 1_556 S
O651 C645 1.263 1_455 S
C652 O653 1.275 1_554 S
C652 O654 1.246 . S
O653 Tb636 2.427 1_556 S
O653 C652 1.275 1_556 S
O654 Tb636 2.513 . S
O654 C652 1.246 . S
C655 O639 1.245 . S
C655 O640 1.259 . S
H656 C664 0.929 1_655 S
H657 C666 0.930 1_655 S
H658 C668 0.930 . S
H659 C671 0.929 . S
H660 C674 0.930 . S
H661 C676 0.960 . S
H662 C676 0.960 . S
H663 C676 0.960 . S
C664 H656 0.929 1_455 S
C664 C665 1.377 . S
C664 C666 1.384 . S
C665 C664 1.377 . S
C665 C671 1.390 . S
C666 H657 0.930 1_455 S
C666 C664 1.384 . S
C666 C667 1.372 . S
C667 C666 1.372 . S
C667 C668 1.400 . S
C667 C672 1.490 . S
C668 H658 0.930 . S
C668 C667 1.400 . S
C668 C671 1.386 . S
H669 C685 0.930 . S
H670 C686 0.931 . S
C671 H659 0.929 . S
C671 C665 1.390 . S
C671 C668 1.386 . S
C672 C667 1.490 . S
C672 C674 1.395 1_455 S
C672 C675 1.403 . S
H673 C679 0.930 . S
C674 H660 0.930 . S
C674 C672 1.395 1_655 S
C674 C677 1.403 . S
C675 C672 1.403 . S
C675 C676 1.524 . S
C675 C679 1.400 . S
C676 H661 0.960 . S
C676 H662 0.960 . S
C676 H663 0.960 . S
C676 C675 1.524 . S
C677 C674 1.403 . S
C677 C678 1.392 1_655 S
C677 C681 1.495 . S
C678 C677 1.392 1_455 S
C678 C679 1.385 . S
C678 C680 1.478 . S
C679 H673 0.930 . S
C679 C675 1.400 . S
C679 C678 1.385 . S
C680 C678 1.478 . S
C680 C682 1.391 . S
C680 C686 1.383 . S
C681 C677 1.495 . S
C681 H687 0.959 . S
C681 H688 0.961 . S
C681 H689 0.960 . S
C682 C680 1.391 . S
C682 C683 1.400 1_556 S
C682 H690 0.915 1_456 S
C683 C682 1.400 1_554 S
C683 C684 1.383 1_554 S
C683 H691 0.927 . S
C684 C683 1.383 1_556 S
C684 C685 1.377 . S
C685 H669 0.930 . S
C685 C684 1.377 . S
C685 C686 1.379 . S
C686 H670 0.931 . S
C686 C680 1.383 . S
C686 C685 1.379 . S
H687 C681 0.959 . S
H688 C681 0.961 . S
H689 C681 0.960 . S
H690 C682 0.915 1_654 S
H691 C683 0.927 . S
H692 C700 0.929 . S
H693 C702 0.930 . S
H694 C704 0.930 . S
H695 C707 0.929 . S
H696 C710 0.930 . S
H697 C712 0.960 . S
H698 C712 0.960 . S
H699 C712 0.960 . S
C700 H692 0.929 . S
C700 C701 1.377 . S
C700 C702 1.384 . S
C701 C700 1.377 . S
C701 C707 1.390 . S
C702 H693 0.930 . S
C702 C700 1.384 . S
C702 C703 1.372 . S
C703 C702 1.372 . S
C703 C704 1.400 . S
C703 C708 1.490 . S
C704 H694 0.930 . S
C704 C703 1.400 . S
C704 C707 1.386 . S
H705 C721 0.930 . S
H706 C722 0.931 . S
C707 H695 0.929 . S
C707 C701 1.390 . S
C707 C704 1.386 . S
C708 C703 1.490 . S
C708 C710 1.395 . S
C708 C711 1.403 . S
H709 C715 0.930 . S
C710 H696 0.930 . S
C710 C708 1.395 . S
C710 C713 1.403 . S
C711 C708 1.403 . S
C711 C712 1.524 . S
C711 C715 1.400 . S
C712 H697 0.960 . S
C712 H698 0.960 . S
C712 H699 0.960 . S
C712 C711 1.524 . S
C713 C710 1.403 . S
C713 C714 1.392 . S
C713 C717 1.495 . S
C714 C713 1.392 . S
C714 C715 1.385 . S
C714 C716 1.478 . S
C715 H709 0.930 . S
C715 C711 1.400 . S
C715 C714 1.385 . S
C716 C714 1.478 . S
C716 C718 1.381 . S
C716 C722 1.383 . S
C717 C713 1.495 . S
C717 H723 0.959 . S
C717 H724 0.961 . S
C717 H725 0.960 . S
C718 C716 1.381 . S
C718 C719 1.394 . S
C718 H726 0.930 . S
C719 C718 1.394 . S
C719 C720 1.383 . S
C719 H727 0.929 . S
C720 C719 1.383 . S
C720 C721 1.377 . S
C721 H705 0.930 . S
C721 C720 1.377 . S
C721 C722 1.379 . S
C722 H706 0.931 . S
C722 C716 1.383 . S
C722 C721 1.379 . S
H723 C717 0.959 . S
H724 C717 0.961 . S
H725 C717 0.960 . S
H726 C718 0.930 . S
H727 C719 0.929 . S
H728 C736 0.929 . S
H729 C738 0.930 . S
H730 C740 0.930 . S
H731 C743 0.929 . S
H732 C746 0.930 . S
H733 C748 0.960 . S
H734 C748 0.960 . S
H735 C748 0.960 . S
C736 H728 0.929 . S
C736 C737 1.377 . S
C736 C738 1.384 . S
C737 C736 1.377 . S
C737 C743 1.390 . S
C738 H729 0.930 . S
C738 C736 1.384 . S
C738 C739 1.372 . S
C739 C738 1.372 . S
C739 C740 1.400 . S
C739 C744 1.490 . S
C740 H730 0.930 . S
C740 C739 1.400 . S
C740 C743 1.386 . S
H741 C757 0.930 . S
H742 C758 0.931 . S
C743 H731 0.929 . S
C743 C737 1.390 . S
C743 C740 1.386 . S
C744 C739 1.490 . S
C744 C746 1.395 . S
C744 C747 1.403 . S
H745 C751 0.930 . S
C746 H732 0.930 . S
C746 C744 1.395 . S
C746 C749 1.403 . S
C747 C744 1.403 . S
C747 C748 1.524 . S
C747 C751 1.400 . S
C748 H733 0.960 . S
C748 H734 0.960 . S
C748 H735 0.960 . S
C748 C747 1.524 . S
C749 C746 1.403 . S
C749 C750 1.392 . S
C749 C753 1.495 . S
C750 C749 1.392 . S
C750 C751 1.385 . S
C750 C752 1.478 . S
C751 H745 0.930 . S
C751 C747 1.400 . S
C751 C750 1.385 . S
C752 C750 1.478 . S
C752 C754 1.381 . S
C752 C758 1.383 . S
C753 C749 1.495 . S
C753 H759 0.959 . S
C753 H760 0.961 . S
C753 H761 0.960 . S
C754 C752 1.381 . S
C754 C755 1.394 . S
C754 H762 0.930 . S
C755 C754 1.394 . S
C755 C756 1.383 . S
C755 H763 0.929 . S
C756 C755 1.383 . S
C756 C757 1.377 . S
C757 H741 0.930 . S
C757 C756 1.377 . S
C757 C758 1.379 . S
C758 H742 0.931 . S
C758 C752 1.383 . S
C758 C757 1.379 . S
H759 C753 0.959 . S
H760 C753 0.961 . S
H761 C753 0.960 . S
H762 C754 0.930 . S
H763 C755 0.929 . S
H764 C772 0.929 . S
H765 C774 0.930 . S
H766 C776 0.930 . S
H767 C779 0.929 . S
H768 C782 0.930 . S
H769 C784 0.960 . S
H770 C784 0.960 . S
H771 C784 0.960 . S
C772 H764 0.929 . S
C772 C773 1.377 . S
C772 C774 1.384 . S
C773 C772 1.377 . S
C773 C779 1.390 . S
C774 H765 0.930 . S
C774 C772 1.384 . S
C774 C775 1.372 . S
C775 C774 1.372 . S
C775 C776 1.400 . S
C775 C780 1.490 . S
C776 H766 0.930 . S
C776 C775 1.400 . S
C776 C779 1.386 . S
H777 C793 0.930 . S
H778 C794 0.931 . S
C779 H767 0.929 . S
C779 C773 1.390 . S
C779 C776 1.386 . S
C780 C775 1.490 . S
C780 C782 1.395 . S
C780 C783 1.403 . S
H781 C787 0.930 . S
C782 H768 0.930 . S
C782 C780 1.395 . S
C782 C785 1.403 . S
C783 C780 1.403 . S
C783 C784 1.524 . S
C783 C787 1.400 . S
C784 H769 0.960 . S
C784 H770 0.960 . S
C784 H771 0.960 . S
C784 C783 1.524 . S
C785 C782 1.403 . S
C785 C786 1.392 . S
C785 C789 1.495 . S
C786 C785 1.392 . S
C786 C787 1.385 . S
C786 C788 1.478 . S
C787 H781 0.930 . S
C787 C783 1.400 . S
C787 C786 1.385 . S
C788 C786 1.478 . S
C788 C790 1.381 . S
C788 C794 1.383 . S
C789 C785 1.495 . S
C789 H795 0.959 . S
C789 H796 0.961 . S
C789 H797 0.960 . S
C790 C788 1.381 . S
C790 C791 1.394 . S
C790 H798 0.930 . S
C791 C790 1.394 . S
C791 C792 1.383 . S
C791 H799 0.929 . S
C792 C791 1.383 . S
C792 C793 1.377 . S
C793 H777 0.930 . S
C793 C792 1.377 . S
C793 C794 1.379 . S
C794 H778 0.931 . S
C794 C788 1.383 . S
C794 C793 1.379 . S
H795 C789 0.959 . S
H796 C789 0.961 . S
H797 C789 0.960 . S
H798 C790 0.930 . S
H799 C791 0.929 . S
H800 C808 0.929 . S
H801 C810 0.930 . S
H802 C812 0.930 . S
H803 C815 0.929 . S
H804 C818 0.930 . S
H805 C820 0.960 . S
H806 C820 0.960 1_655 S
H807 C820 0.960 . S
C808 H800 0.929 . S
C808 C809 1.377 1_655 S
C808 C810 1.384 . S
C809 C808 1.377 1_455 S
C809 C815 1.390 . S
C810 H801 0.930 . S
C810 C808 1.384 . S
C810 C811 1.372 1_655 S
C811 C810 1.372 1_455 S
C811 C812 1.400 . S
C811 C816 1.490 . S
C812 H802 0.930 . S
C812 C811 1.400 . S
C812 C815 1.386 . S
H813 C829 0.930 . S
H814 C830 0.931 . S
C815 H803 0.929 . S
C815 C809 1.390 . S
C815 C812 1.386 . S
C816 C811 1.490 . S
C816 C818 1.395 . S
C816 C819 1.403 . S
H817 C823 0.930 . S
C818 H804 0.930 . S
C818 C816 1.395 . S
C818 C821 1.403 . S
C819 C816 1.403 . S
C819 C820 1.524 . S
C819 C823 1.400 . S
C820 H805 0.960 . S
C820 H806 0.960 1_455 S
C820 H807 0.960 . S
C820 C819 1.524 . S
C821 C818 1.403 . S
C821 C822 1.392 . S
C821 C825 1.495 . S
C822 C821 1.392 . S
C822 C823 1.385 . S
C822 C824 1.478 . S
C823 H817 0.930 . S
C823 C819 1.400 . S
C823 C822 1.385 . S
C824 C822 1.478 . S
C824 C826 1.381 1_455 S
C824 C830 1.383 . S
C825 C821 1.495 . S
C825 H831 0.959 . S
C825 H832 0.961 . S
C825 H833 0.960 1_455 S
C826 C824 1.381 1_655 S
C826 C827 1.394 . S
C826 H834 0.930 . S
C827 C826 1.394 . S
C827 C828 1.383 1_655 S
C827 H835 0.929 . S
C828 C827 1.383 1_455 S
C828 C829 1.377 . S
C829 H813 0.930 . S
C829 C828 1.377 . S
C829 C830 1.379 . S
C830 H814 0.931 . S
C830 C824 1.383 . S
C830 C829 1.379 . S
H831 C825 0.959 . S
H832 C825 0.961 . S
H833 C825 0.960 1_655 S
H834 C826 0.930 . S
H835 C827 0.929 . S
H836 C844 0.929 . S
H837 C846 0.930 . S
H838 C848 0.930 . S
H839 C851 0.929 . S
H840 C854 0.930 . S
H841 C856 0.960 . S
H842 C856 0.960 . S
H843 C856 0.960 . S
C844 H836 0.929 . S
C844 C845 1.377 . S
C844 C846 1.384 . S
C845 C844 1.377 . S
C845 C851 1.390 . S
C846 H837 0.930 . S
C846 C844 1.384 . S
C846 C847 1.372 . S
C847 C846 1.372 . S
C847 C848 1.400 . S
C847 C852 1.490 . S
C848 H838 0.930 . S
C848 C847 1.400 . S
C848 C851 1.386 . S
H849 C865 0.930 . S
H850 C866 0.931 . S
C851 H839 0.929 . S
C851 C845 1.390 . S
C851 C848 1.386 . S
C852 C847 1.490 . S
C852 C854 1.395 . S
C852 C855 1.403 . S
H853 C859 0.930 . S
C854 H840 0.930 . S
C854 C852 1.395 . S
C854 C857 1.403 . S
C855 C852 1.403 . S
C855 C856 1.524 . S
C855 C859 1.400 . S
C856 H841 0.960 . S
C856 H842 0.960 . S
C856 H843 0.960 . S
C856 C855 1.524 . S
C857 C854 1.403 . S
C857 C858 1.392 . S
C857 C861 1.495 . S
C858 C857 1.392 . S
C858 C859 1.385 . S
C858 C860 1.478 . S
C859 H853 0.930 . S
C859 C855 1.400 . S
C859 C858 1.385 . S
C860 C858 1.478 . S
C860 C862 1.381 . S
C860 C866 1.383 . S
C861 C857 1.495 . S
C861 H867 0.959 . S
C861 H868 0.961 . S
C861 H869 0.960 . S
C862 C860 1.381 . S
C862 C863 1.394 . S
C862 H870 0.930 . S
C863 C862 1.394 . S
C863 C864 1.383 . S
C863 H871 0.929 . S
C864 C863 1.383 . S
C864 C865 1.377 . S
C865 H849 0.930 . S
C865 C864 1.377 . S
C865 C866 1.379 . S
C866 H850 0.931 . S
C866 C860 1.383 . S
C866 C865 1.379 . S
H867 C861 0.959 . S
H868 C861 0.961 . S
H869 C861 0.960 . S
H870 C862 0.930 . S
H871 C863 0.929 . S
H872 C880 0.929 . S
H873 C882 0.930 . S
H874 C884 0.930 . S
H875 C887 0.929 . S
H876 C890 0.930 . S
H877 C892 0.960 . S
H878 C892 0.960 . S
H879 C892 0.960 . S
C880 H872 0.929 . S
C880 C881 1.377 . S
C880 C882 1.384 . S
C881 C880 1.377 . S
C881 C887 1.390 . S
C882 H873 0.930 . S
C882 C880 1.384 . S
C882 C883 1.372 . S
C883 C882 1.372 . S
C883 C884 1.400 . S
C883 C888 1.490 . S
C884 H874 0.930 . S
C884 C883 1.400 . S
C884 C887 1.386 . S
H885 C901 0.930 . S
H886 C902 0.931 . S
C887 H875 0.929 . S
C887 C881 1.390 . S
C887 C884 1.386 . S
C888 C883 1.490 . S
C888 C890 1.395 . S
C888 C891 1.403 . S
H889 C895 0.930 . S
C890 H876 0.930 . S
C890 C888 1.395 . S
C890 C893 1.403 . S
C891 C888 1.403 . S
C891 C892 1.524 . S
C891 C895 1.400 . S
C892 H877 0.960 . S
C892 H878 0.960 . S
C892 H879 0.960 . S
C892 C891 1.524 . S
C893 C890 1.403 . S
C893 C894 1.392 . S
C893 C897 1.495 . S
C894 C893 1.392 . S
C894 C895 1.385 . S
C894 C896 1.478 . S
C895 H889 0.930 . S
C895 C891 1.400 . S
C895 C894 1.385 . S
C896 C894 1.478 . S
C896 C898 1.381 . S
C896 C902 1.383 . S
C897 C893 1.495 . S
C897 H903 0.959 . S
C897 H904 0.961 . S
C897 H905 0.960 . S
C898 C896 1.381 . S
C898 C899 1.394 . S
C898 H906 0.930 . S
C899 C898 1.394 . S
C899 C900 1.383 . S
C899 H907 0.929 . S
C900 C899 1.383 . S
C900 C901 1.377 . S
C901 H885 0.930 . S
C901 C900 1.377 . S
C901 C902 1.379 . S
C902 H886 0.931 . S
C902 C896 1.383 . S
C902 C901 1.379 . S
H903 C897 0.959 . S
H904 C897 0.961 . S
H905 C897 0.960 . S
H906 C898 0.930 . S
H907 C899 0.929 . S
H908 C916 0.929 . S
H909 C918 0.930 . S
H910 C920 0.930 . S
H911 C923 0.929 . S
H912 C926 0.930 . S
H913 C928 0.960 . S
H914 C928 0.960 . S
H915 C928 0.960 . S
C916 H908 0.929 . S
C916 C917 1.377 . S
C916 C918 1.384 . S
C917 C916 1.377 . S
C917 C923 1.390 . S
C918 H909 0.930 . S
C918 C916 1.384 . S
C918 C919 1.372 . S
C919 C918 1.372 . S
C919 C920 1.400 . S
C919 C924 1.490 . S
C920 H910 0.930 . S
C920 C919 1.400 . S
C920 C923 1.386 . S
H921 C937 0.930 . S
H922 C938 0.931 . S
C923 H911 0.929 . S
C923 C917 1.390 . S
C923 C920 1.386 . S
C924 C919 1.490 . S
C924 C926 1.395 . S
C924 C927 1.403 . S
H925 C931 0.930 . S
C926 H912 0.930 . S
C926 C924 1.395 . S
C926 C929 1.403 . S
C927 C924 1.403 . S
C927 C928 1.524 . S
C927 C931 1.400 . S
C928 H913 0.960 . S
C928 H914 0.960 . S
C928 H915 0.960 . S
C928 C927 1.524 . S
C929 C926 1.403 . S
C929 C930 1.392 . S
C929 C933 1.495 . S
C930 C929 1.392 . S
C930 C931 1.385 . S
C930 C932 1.478 . S
C931 H925 0.930 . S
C931 C927 1.400 . S
C931 C930 1.385 . S
C932 C930 1.478 . S
C932 C934 1.381 . S
C932 C938 1.383 . S
C933 C929 1.495 . S
C933 H939 0.959 . S
C933 H940 0.961 . S
C933 H941 0.960 . S
C934 C932 1.381 . S
C934 C935 1.394 . S
C934 H942 0.930 . S
C935 C934 1.394 . S
C935 C936 1.383 . S
C935 H943 0.929 . S
C936 C935 1.383 . S
C936 C937 1.377 . S
C937 H921 0.930 . S
C937 C936 1.377 . S
C937 C938 1.379 . S
C938 H922 0.931 . S
C938 C932 1.383 . S
C938 C937 1.379 . S
H939 C933 0.959 . S
H940 C933 0.961 . S
H941 C933 0.960 . S
H942 C934 0.930 . S
H943 C935 0.929 . S
H944 C952 0.929 . S
H945 C954 0.930 . S
H946 C956 0.930 . S
H947 C959 0.929 . S
H948 C962 0.930 . S
H949 C964 0.960 . S
H950 C964 0.960 . S
H951 C964 0.960 . S
C952 H944 0.929 . S
C952 C953 1.377 . S
C952 C954 1.384 . S
C953 C952 1.377 . S
C953 C959 1.390 . S
C954 H945 0.930 . S
C954 C952 1.384 . S
C954 C955 1.372 . S
C955 C954 1.372 . S
C955 C956 1.400 . S
C955 C960 1.490 . S
C956 H946 0.930 . S
C956 C955 1.400 . S
C956 C959 1.386 . S
H957 C973 0.930 1_455 S
H958 C974 0.931 . S
C959 H947 0.929 . S
C959 C953 1.390 . S
C959 C956 1.386 . S
C960 C955 1.490 . S
C960 C962 1.395 . S
C960 C963 1.403 . S
H961 C967 0.930 . S
C962 H948 0.930 . S
C962 C960 1.395 . S
C962 C965 1.403 . S
C963 C960 1.403 . S
C963 C964 1.524 . S
C963 C967 1.400 . S
C964 H949 0.960 . S
C964 H950 0.960 . S
C964 H951 0.960 . S
C964 C963 1.524 . S
C965 C962 1.403 . S
C965 C966 1.392 . S
C965 C969 1.495 . S
C966 C965 1.392 . S
C966 C967 1.385 . S
C966 C968 1.478 . S
C967 H961 0.930 . S
C967 C963 1.400 . S
C967 C966 1.385 . S
C968 C966 1.478 . S
C968 C970 1.381 . S
C968 C974 1.383 . S
C969 C965 1.495 . S
C969 H975 0.959 . S
C969 H976 0.961 . S
C969 H977 0.960 . S
C970 C968 1.381 . S
C970 C971 1.394 . S
C970 H978 0.930 . S
C971 C970 1.394 . S
C971 C972 1.383 . S
C971 H979 0.929 . S
C972 C971 1.383 . S
C972 C973 1.377 . S
C973 H957 0.930 1_655 S
C973 C972 1.377 . S
C973 C974 1.379 . S
C974 H958 0.931 . S
C974 C968 1.383 . S
C974 C973 1.379 . S
H975 C969 0.959 . S
H976 C969 0.961 . S
H977 C969 0.960 . S
H978 C970 0.930 . S
H979 C971 0.929 . S
H980 C988 0.929 . S
H981 C990 0.930 . S
H982 C992 0.930 . S
H983 C995 0.929 . S
H984 C998 0.930 . S
H985 C1000 0.960 . S
H986 C1000 0.960 . S
H987 C1000 0.960 . S
C988 H980 0.929 . S
C988 C989 1.377 . S
C988 C990 1.384 . S
C989 C988 1.377 . S
C989 C995 1.390 . S
C990 H981 0.930 . S
C990 C988 1.384 . S
C990 C991 1.372 . S
C991 C990 1.372 . S
C991 C992 1.400 . S
C991 C996 1.490 . S
C992 H982 0.930 . S
C992 C991 1.400 . S
C992 C995 1.386 . S
H993 C1009 0.930 . S
H994 C1010 0.931 . S
C995 H983 0.929 . S
C995 C989 1.390 . S
C995 C992 1.386 . S
C996 C991 1.490 . S
C996 C998 1.395 . S
C996 C999 1.403 . S
H997 C1003 0.930 . S
C998 H984 0.930 . S
C998 C996 1.395 . S
C998 C1001 1.403 . S
C999 C996 1.403 . S
C999 C1000 1.524 . S
C999 C1003 1.400 . S
C1000 H985 0.960 . S
C1000 H986 0.960 . S
C1000 H987 0.960 . S
C1000 C999 1.524 . S
C1001 C998 1.403 . S
C1001 C1002 1.392 . S
C1001 C1005 1.495 . S
C1002 C1001 1.392 . S
C1002 C1003 1.385 . S
C1002 C1004 1.478 . S
C1003 H997 0.930 . S
C1003 C999 1.400 . S
C1003 C1002 1.385 . S
C1004 C1002 1.478 . S
C1004 C1006 1.381 . S
C1004 C1010 1.383 . S
C1005 C1001 1.495 . S
C1005 H1011 0.959 . S
C1005 H1012 0.961 . S
C1005 H1013 0.960 . S
C1006 C1004 1.381 . S
C1006 C1007 1.394 . S
C1006 H1014 0.930 . S
C1007 C1006 1.394 . S
C1007 C1008 1.383 . S
C1007 H1015 0.929 . S
C1008 C1007 1.383 . S
C1008 C1009 1.377 . S
C1009 H993 0.930 . S
C1009 C1008 1.377 . S
C1009 C1010 1.379 . S
C1010 H994 0.931 . S
C1010 C1004 1.383 . S
C1010 C1009 1.379 . S
H1011 C1005 0.959 . S
H1012 C1005 0.961 . S
H1013 C1005 0.960 . S
H1014 C1006 0.930 . S
H1015 C1007 0.929 . S
H1016 C1024 0.929 . S
H1017 C1026 0.930 . S
H1018 C1028 0.930 . S
H1019 C1031 0.929 . S
H1020 C1034 0.930 1_565 S
H1021 C1036 0.960 . S
H1022 C1036 0.960 . S
H1023 C1036 0.960 . S
C1024 H1016 0.929 . S
C1024 C1025 1.377 . S
C1024 C1026 1.384 . S
C1025 C1024 1.377 . S
C1025 C1031 1.390 . S
C1026 H1017 0.930 . S
C1026 C1024 1.384 . S
C1026 C1027 1.372 . S
C1027 C1026 1.372 . S
C1027 C1028 1.400 . S
C1027 C1032 1.490 . S
C1028 H1018 0.930 . S
C1028 C1027 1.400 . S
C1028 C1031 1.386 . S
H1029 C1045 0.930 . S
H1030 C1046 0.931 . S
C1031 H1019 0.929 . S
C1031 C1025 1.390 . S
C1031 C1028 1.386 . S
C1032 C1027 1.490 . S
C1032 C1034 1.395 . S
C1032 C1035 1.403 . S
H1033 C1039 0.930 . S
C1034 H1020 0.930 1_545 S
C1034 C1032 1.395 . S
C1034 C1037 1.403 . S
C1035 C1032 1.403 . S
C1035 C1036 1.524 . S
C1035 C1039 1.400 . S
C1036 H1021 0.960 . S
C1036 H1022 0.960 . S
C1036 H1023 0.960 . S
C1036 C1035 1.524 . S
C1037 C1034 1.403 . S
C1037 C1038 1.392 . S
C1037 C1041 1.495 1_545 S
C1038 C1037 1.392 . S
C1038 C1039 1.385 . S
C1038 C1040 1.478 . S
C1039 H1033 0.930 . S
C1039 C1035 1.400 . S
C1039 C1038 1.385 . S
C1040 C1038 1.478 . S
C1040 C1042 1.381 . S
C1040 C1046 1.383 . S
C1041 C1037 1.495 1_565 S
C1041 H1047 0.959 . S
C1041 H1048 0.961 . S
C1041 H1049 0.960 . S
C1042 C1040 1.381 . S
C1042 C1043 1.394 . S
C1042 H1050 0.930 . S
C1043 C1042 1.394 . S
C1043 C1044 1.383 . S
C1043 H1051 0.929 . S
C1044 C1043 1.383 . S
C1044 C1045 1.377 . S
C1045 H1029 0.930 . S
C1045 C1044 1.377 . S
C1045 C1046 1.379 . S
C1046 H1030 0.931 . S
C1046 C1040 1.383 . S
C1046 C1045 1.379 . S
H1047 C1041 0.959 . S
H1048 C1041 0.961 . S
H1049 C1041 0.960 . S
H1050 C1042 0.930 . S
H1051 C1043 0.929 . S
H1052 C1060 0.929 . S
H1053 C1062 0.930 . S
H1054 C1064 0.930 . S
H1055 C1067 0.929 . S
H1056 C1070 0.930 . S
H1057 C1072 0.960 . S
H1058 C1072 0.960 . S
H1059 C1072 0.960 . S
C1060 H1052 0.929 . S
C1060 C1061 1.377 . S
C1060 C1062 1.384 . S
C1061 C1060 1.377 . S
C1061 C1067 1.390 . S
C1062 H1053 0.930 . S
C1062 C1060 1.384 . S
C1062 C1063 1.372 . S
C1063 C1062 1.372 . S
C1063 C1064 1.400 . S
C1063 C1068 1.490 . S
C1064 H1054 0.930 . S
C1064 C1063 1.400 . S
C1064 C1067 1.386 . S
H1065 C1081 0.930 . S
H1066 C1082 0.931 . S
C1067 H1055 0.929 . S
C1067 C1061 1.390 . S
C1067 C1064 1.386 . S
C1068 C1063 1.490 . S
C1068 C1070 1.395 . S
C1068 C1071 1.403 . S
H1069 C1075 0.930 . S
C1070 H1056 0.930 . S
C1070 C1068 1.395 . S
C1070 C1073 1.403 . S
C1071 C1068 1.403 . S
C1071 C1072 1.524 . S
C1071 C1075 1.400 . S
C1072 H1057 0.960 . S
C1072 H1058 0.960 . S
C1072 H1059 0.960 . S
C1072 C1071 1.524 . S
C1073 C1070 1.403 . S
C1073 C1074 1.392 . S
C1073 C1077 1.495 . S
C1074 C1073 1.392 . S
C1074 C1075 1.385 . S
C1074 C1076 1.478 . S
C1075 H1069 0.930 . S
C1075 C1071 1.400 . S
C1075 C1074 1.385 . S
C1076 C1074 1.478 . S
C1076 C1078 1.381 . S
C1076 C1082 1.383 . S
C1077 C1073 1.495 . S
C1077 H1083 0.959 . S
C1077 H1084 0.961 . S
C1077 H1085 0.960 . S
C1078 C1076 1.381 . S
C1078 C1079 1.394 . S
C1078 H1086 0.930 . S
C1079 C1078 1.394 . S
C1079 C1080 1.383 . S
C1079 H1087 0.929 . S
C1080 C1079 1.383 . S
C1080 C1081 1.377 . S
C1081 H1065 0.930 . S
C1081 C1080 1.377 . S
C1081 C1082 1.379 . S
C1082 H1066 0.931 . S
C1082 C1076 1.383 . S
C1082 C1081 1.379 . S
H1083 C1077 0.959 . S
H1084 C1077 0.961 . S
H1085 C1077 0.960 . S
H1086 C1078 0.930 . S
H1087 C1079 0.929 . S
H1088 C1096 0.929 . S
H1089 C1098 0.930 . S
H1090 C1100 0.930 . S
H1091 C1103 0.929 . S
H1092 C1106 0.930 . S
H1093 C1108 0.960 . S
H1094 C1108 0.960 . S
H1095 C1108 0.960 . S
C1096 H1088 0.929 . S
C1096 C1097 1.377 . S
C1096 C1098 1.384 . S
C1097 C1096 1.377 . S
C1097 C1103 1.390 . S
C1098 H1089 0.930 . S
C1098 C1096 1.384 . S
C1098 C1099 1.372 . S
C1099 C1098 1.372 . S
C1099 C1100 1.400 . S
C1099 C1104 1.490 . S
C1100 H1090 0.930 . S
C1100 C1099 1.400 . S
C1100 C1103 1.386 . S
H1101 C1117 0.930 . S
H1102 C1118 0.931 . S
C1103 H1091 0.929 . S
C1103 C1097 1.390 . S
C1103 C1100 1.386 . S
C1104 C1099 1.490 . S
C1104 C1106 1.395 . S
C1104 C1107 1.403 . S
H1105 C1111 0.930 . S
C1106 H1092 0.930 . S
C1106 C1104 1.395 . S
C1106 C1109 1.403 . S
C1107 C1104 1.403 . S
C1107 C1108 1.524 . S
C1107 C1111 1.400 . S
C1108 H1093 0.960 . S
C1108 H1094 0.960 . S
C1108 H1095 0.960 . S
C1108 C1107 1.524 . S
C1109 C1106 1.403 . S
C1109 C1110 1.392 . S
C1109 C1113 1.495 . S
C1110 C1109 1.392 . S
C1110 C1111 1.385 . S
C1110 C1112 1.478 . S
C1111 H1105 0.930 . S
C1111 C1107 1.400 . S
C1111 C1110 1.385 . S
C1112 C1110 1.478 . S
C1112 C1114 1.381 . S
C1112 C1118 1.383 . S
C1113 C1109 1.495 . S
C1113 H1119 0.959 . S
C1113 H1120 0.961 . S
C1113 H1121 0.960 . S
C1114 C1112 1.381 . S
C1114 C1115 1.394 . S
C1114 H1122 0.930 . S
C1115 C1114 1.394 . S
C1115 C1116 1.383 . S
C1115 H1123 0.945 . S
C1116 C1115 1.383 . S
C1116 C1117 1.377 . S
C1117 H1101 0.930 . S
C1117 C1116 1.377 . S
C1117 C1118 1.379 . S
C1118 H1102 0.931 . S
C1118 C1112 1.383 . S
C1118 C1117 1.379 . S
H1119 C1113 0.959 . S
H1120 C1113 0.961 . S
H1121 C1113 0.960 . S
H1122 C1114 0.930 . S
H1123 C1115 0.945 . S
H1124 C1132 0.929 . S
H1125 C1134 0.930 . S
H1126 C1136 0.930 . S
H1127 C1139 0.929 . S
H1128 C1142 0.930 . S
H1129 C1144 0.960 . S
H1130 C1144 0.960 . S
H1131 C1144 0.960 . S
C1132 H1124 0.929 . S
C1132 C1133 1.377 . S
C1132 C1134 1.384 . S
C1133 C1132 1.377 . S
C1133 C1139 1.390 . S
C1134 H1125 0.930 . S
C1134 C1132 1.384 . S
C1134 C1135 1.372 . S
C1135 C1134 1.372 . S
C1135 C1136 1.400 . S
C1135 C1140 1.490 . S
C1136 H1126 0.930 . S
C1136 C1135 1.400 . S
C1136 C1139 1.386 . S
H1137 C1153 0.930 . S
H1138 C1154 0.931 . S
C1139 H1127 0.929 . S
C1139 C1133 1.390 . S
C1139 C1136 1.386 . S
C1140 C1135 1.490 . S
C1140 C1142 1.395 . S
C1140 C1143 1.403 . S
H1141 C1147 0.930 . S
C1142 H1128 0.930 . S
C1142 C1140 1.395 . S
C1142 C1145 1.403 . S
C1143 C1140 1.403 . S
C1143 C1144 1.524 . S
C1143 C1147 1.400 . S
C1144 H1129 0.960 . S
C1144 H1130 0.960 . S
C1144 H1131 0.960 . S
C1144 C1143 1.524 . S
C1145 C1142 1.403 . S
C1145 C1146 1.392 . S
C1145 C1149 1.495 . S
C1146 C1145 1.392 . S
C1146 C1147 1.385 . S
C1146 C1148 1.478 . S
C1147 H1141 0.930 . S
C1147 C1143 1.400 . S
C1147 C1146 1.385 . S
C1148 C1146 1.478 . S
C1148 C1150 1.381 . S
C1148 C1154 1.383 . S
C1149 C1145 1.495 . S
C1149 H1155 0.959 . S
C1149 H1156 0.961 . S
C1149 H1157 0.960 . S
C1150 C1148 1.381 . S
C1150 C1151 1.394 . S
C1150 H1158 0.930 . S
C1151 C1150 1.394 . S
C1151 C1152 1.383 . S
C1151 H1159 0.929 . S
C1152 C1151 1.383 . S
C1152 C1153 1.377 . S
C1153 H1137 0.930 . S
C1153 C1152 1.377 . S
C1153 C1154 1.379 . S
C1154 H1138 0.931 . S
C1154 C1148 1.383 . S
C1154 C1153 1.379 . S
H1155 C1149 0.959 . S
H1156 C1149 0.961 . S
H1157 C1149 0.960 . S
H1158 C1150 0.930 . S
H1159 C1151 0.929 . S
H1160 C1168 0.937 . S
H1161 C1170 0.930 1_565 S
H1162 C1172 0.930 . S
H1163 C1175 0.929 . S
H1164 C1178 0.930 . S
H1165 C1180 0.960 . S
H1166 C1180 0.960 . S
H1167 C1180 0.960 . S
C1168 H1160 0.937 . S
C1168 C1169 1.371 1_565 S
C1168 C1170 1.383 1_565 S
C1169 C1168 1.371 1_545 S
C1169 C1175 1.390 . S
C1170 H1161 0.930 1_545 S
C1170 C1168 1.383 1_545 S
C1170 C1171 1.372 . S
C1171 C1170 1.372 . S
C1171 C1172 1.400 . S
C1171 C1176 1.490 . S
C1172 H1162 0.930 . S
C1172 C1171 1.400 . S
C1172 C1175 1.386 . S
H1173 C1189 0.930 . S
H1174 C1190 0.931 . S
C1175 H1163 0.929 . S
C1175 C1169 1.390 . S
C1175 C1172 1.386 . S
C1176 C1171 1.490 . S
C1176 C1178 1.395 . S
C1176 C1179 1.403 . S
H1177 C1183 0.930 . S
C1178 H1164 0.930 . S
C1178 C1176 1.395 . S
C1178 C1181 1.403 . S
C1179 C1176 1.403 . S
C1179 C1180 1.524 . S
C1179 C1183 1.400 . S
C1180 H1165 0.960 . S
C1180 H1166 0.960 . S
C1180 H1167 0.960 . S
C1180 C1179 1.524 . S
C1181 C1178 1.403 . S
C1181 C1182 1.392 . S
C1181 C1185 1.495 . S
C1182 C1181 1.392 . S
C1182 C1183 1.385 . S
C1182 C1184 1.478 . S
C1183 H1177 0.930 . S
C1183 C1179 1.400 . S
C1183 C1182 1.385 . S
C1184 C1182 1.478 . S
C1184 C1186 1.381 . S
C1184 C1190 1.383 . S
C1185 C1181 1.495 . S
C1185 H1191 0.946 1_545 S
C1185 H1192 0.961 . S
C1185 H1193 0.960 1_545 S
C1186 C1184 1.381 . S
C1186 C1187 1.394 . S
C1186 H1194 0.948 . S
C1187 C1186 1.394 . S
C1187 C1188 1.383 . S
C1187 H1195 0.929 . S
C1188 C1187 1.383 . S
C1188 C1189 1.377 . S
C1189 H1173 0.930 . S
C1189 C1188 1.377 . S
C1189 C1190 1.379 . S
C1190 H1174 0.931 . S
C1190 C1184 1.383 . S
C1190 C1189 1.379 . S
H1191 C1185 0.946 1_565 S
H1192 C1185 0.961 . S
H1193 C1185 0.960 1_565 S
H1194 C1186 0.948 . S
H1195 C1187 0.929 . S
H1196 C1204 0.929 . S
H1197 C1206 0.930 . S
H1198 C1208 0.930 . S
H1199 C1211 0.929 . S
H1200 C1214 0.930 . S
H1201 C1216 0.960 . S
H1202 C1216 0.960 . S
H1203 C1216 0.960 . S
C1204 H1196 0.929 . S
C1204 C1205 1.377 . S
C1204 C1206 1.384 . S
C1205 C1204 1.377 . S
C1205 C1211 1.390 . S
C1206 H1197 0.930 . S
C1206 C1204 1.384 . S
C1206 C1207 1.372 . S
C1207 C1206 1.372 . S
C1207 C1208 1.400 . S
C1207 C1212 1.490 . S
C1208 H1198 0.930 . S
C1208 C1207 1.400 . S
C1208 C1211 1.386 . S
H1209 C1225 0.930 . S
H1210 C1226 0.931 . S
C1211 H1199 0.929 . S
C1211 C1205 1.390 . S
C1211 C1208 1.386 . S
C1212 C1207 1.490 . S
C1212 C1214 1.395 . S
C1212 C1215 1.403 . S
H1213 C1219 0.930 . S
C1214 H1200 0.930 . S
C1214 C1212 1.395 . S
C1214 C1217 1.403 . S
C1215 C1212 1.403 . S
C1215 C1216 1.524 . S
C1215 C1219 1.400 . S
C1216 H1201 0.960 . S
C1216 H1202 0.960 . S
C1216 H1203 0.960 . S
C1216 C1215 1.524 . S
C1217 C1214 1.403 . S
C1217 C1218 1.392 . S
C1217 C1221 1.495 . S
C1218 C1217 1.392 . S
C1218 C1219 1.385 . S
C1218 C1220 1.478 . S
C1219 H1213 0.930 . S
C1219 C1215 1.400 . S
C1219 C1218 1.385 . S
C1220 C1218 1.478 . S
C1220 C1222 1.381 . S
C1220 C1226 1.383 . S
C1221 C1217 1.495 . S
C1221 H1227 0.959 . S
C1221 H1228 0.961 . S
C1221 H1229 0.960 . S
C1222 C1220 1.381 . S
C1222 C1223 1.394 . S
C1222 H1230 0.930 . S
C1223 C1222 1.394 . S
C1223 C1224 1.383 . S
C1223 H1231 0.929 . S
C1224 C1223 1.383 . S
C1224 C1225 1.377 . S
C1225 H1209 0.930 . S
C1225 C1224 1.377 . S
C1225 C1226 1.379 . S
C1226 H1210 0.931 . S
C1226 C1220 1.383 . S
C1226 C1225 1.379 . S
H1227 C1221 0.959 . S
H1228 C1221 0.961 . S
H1229 C1221 0.960 . S
H1230 C1222 0.930 . S
H1231 C1223 0.929 . S
H1232 C1240 0.929 . S
H1233 C1242 0.930 . S
H1234 C1244 0.918 1_556 S
H1235 C1247 0.893 1_556 S
H1236 C1250 0.930 . S
H1237 C1252 0.960 1_556 S
H1238 C1252 0.960 . S
H1239 C1252 0.960 1_556 S
C1240 H1232 0.929 . S
C1240 C1241 1.377 . S
C1240 C1242 1.384 . S
C1241 C1240 1.377 . S
C1241 C1247 1.390 . S
C1242 H1233 0.930 . S
C1242 C1240 1.384 . S
C1242 C1243 1.372 . S
C1243 C1242 1.372 . S
C1243 C1244 1.400 . S
C1243 C1248 1.490 . S
C1244 H1234 0.918 1_554 S
C1244 C1243 1.400 . S
C1244 C1247 1.386 . S
H1245 C1261 0.959 . S
H1246 C1262 0.931 . S
C1247 H1235 0.893 1_554 S
C1247 C1241 1.390 . S
C1247 C1244 1.386 . S
C1248 C1243 1.490 . S
C1248 C1250 1.395 . S
C1248 C1251 1.403 . S
H1249 C1255 0.930 . S
C1250 H1236 0.930 . S
C1250 C1248 1.395 . S
C1250 C1253 1.403 . S
C1251 C1248 1.403 . S
C1251 C1252 1.524 . S
C1251 C1255 1.400 . S
C1252 H1237 0.960 1_554 S
C1252 H1238 0.960 . S
C1252 H1239 0.960 1_554 S
C1252 C1251 1.524 . S
C1253 C1250 1.403 . S
C1253 C1254 1.392 . S
C1253 C1257 1.495 1_565 S
C1254 C1253 1.392 . S
C1254 C1255 1.385 . S
C1254 C1256 1.478 . S
C1255 H1249 0.930 . S
C1255 C1251 1.400 . S
C1255 C1254 1.385 . S
C1256 C1254 1.478 . S
C1256 C1258 1.381 . S
C1256 C1262 1.394 . S
C1257 C1253 1.495 1_545 S
C1257 H1263 0.959 . S
C1257 H1264 0.961 . S
C1257 H1265 0.960 . S
C1258 C1256 1.381 . S
C1258 C1259 1.387 1_565 S
C1258 H1266 0.930 . S
C1259 C1258 1.387 1_545 S
C1259 C1260 1.390 . S
C1259 H1267 0.929 . S
C1260 C1259 1.390 . S
C1260 C1261 1.377 . S
C1261 H1245 0.959 . S
C1261 C1260 1.377 . S
C1261 C1262 1.367 1_545 S
C1262 H1246 0.931 . S
C1262 C1256 1.394 . S
C1262 C1261 1.367 1_565 S
H1263 C1257 0.959 . S
H1264 C1257 0.961 . S
H1265 C1257 0.960 . S
H1266 C1258 0.930 . S
H1267 C1259 0.929 . S
H1268 C1276 0.929 . S
H1269 C1278 0.930 . S
H1270 C1280 0.930 . S
H1271 C1283 0.929 . S
H1272 C1286 0.930 . S
H1273 C1288 0.960 . S
H1274 C1288 0.960 . S
H1275 C1288 0.960 . S
C1276 H1268 0.929 . S
C1276 C1277 1.353 1_556 S
C1276 C1278 1.384 . S
C1277 C1276 1.353 1_554 S
C1277 C1283 1.422 . S
C1278 H1269 0.930 . S
C1278 C1276 1.384 . S
C1278 C1279 1.372 1_556 S
C1279 C1278 1.372 1_554 S
C1279 C1280 1.400 . S
C1279 C1284 1.490 . S
C1280 H1270 0.930 . S
C1280 C1279 1.400 . S
C1280 C1283 1.386 . S
H1281 C1297 0.930 . S
H1282 C1298 0.931 . S
C1283 H1271 0.929 . S
C1283 C1277 1.422 . S
C1283 C1280 1.386 . S
C1284 C1279 1.490 . S
C1284 C1286 1.395 . S
C1284 C1287 1.403 1_554 S
H1285 C1291 0.930 . S
C1286 H1272 0.930 . S
C1286 C1284 1.395 . S
C1286 C1289 1.403 . S
C1287 C1284 1.403 1_556 S
C1287 C1288 1.524 . S
C1287 C1291 1.400 . S
C1288 H1273 0.960 . S
C1288 H1274 0.960 . S
C1288 H1275 0.960 . S
C1288 C1287 1.524 . S
C1289 C1286 1.403 . S
C1289 C1290 1.392 . S
C1289 C1293 1.495 . S
C1290 C1289 1.392 . S
C1290 C1291 1.385 1_554 S
C1290 C1292 1.478 . S
C1291 H1285 0.930 . S
C1291 C1287 1.400 . S
C1291 C1290 1.385 1_556 S
C1292 C1290 1.478 . S
C1292 C1294 1.381 1_554 S
C1292 C1298 1.383 . S
C1293 C1289 1.495 . S
C1293 H1299 0.959 . S
C1293 H1300 0.961 . S
C1293 H1301 0.960 . S
C1294 C1292 1.381 1_556 S
C1294 C1295 1.394 . S
C1294 H1302 0.930 . S
C1295 C1294 1.394 . S
C1295 C1296 1.383 1_556 S
C1295 H1303 0.929 . S
C1296 C1295 1.383 1_554 S
C1296 C1297 1.377 . S
C1297 H1281 0.930 . S
C1297 C1296 1.377 . S
C1297 C1298 1.379 . S
C1298 H1282 0.931 . S
C1298 C1292 1.383 . S
C1298 C1297 1.379 . S
H1299 C1293 0.959 . S
H1300 C1293 0.961 . S
H1301 C1293 0.960 . S
H1302 C1294 0.930 . S
H1303 C1295 0.929 . S
H1304 C1312 0.929 . S
H1305 C1314 0.930 . S
H1306 C1316 0.930 . S
H1307 C1319 0.929 . S
H1308 C1322 0.930 . S
H1309 C1324 0.960 . S
H1310 C1324 0.960 . S
H1311 C1324 0.960 . S
C1312 H1304 0.929 . S
C1312 C1313 1.377 . S
C1312 C1314 1.384 . S
C1313 C1312 1.377 . S
C1313 C1319 1.390 . S
C1314 H1305 0.930 . S
C1314 C1312 1.384 . S
C1314 C1315 1.372 . S
C1315 C1314 1.372 . S
C1315 C1316 1.400 . S
C1315 C1320 1.490 . S
C1316 H1306 0.930 . S
C1316 C1315 1.400 . S
C1316 C1319 1.386 . S
H1317 C1333 0.930 . S
H1318 C1334 0.931 . S
C1319 H1307 0.929 . S
C1319 C1313 1.390 . S
C1319 C1316 1.386 . S
C1320 C1315 1.490 . S
C1320 C1322 1.395 . S
C1320 C1323 1.403 . S
H1321 C1327 0.930 . S
C1322 H1308 0.930 . S
C1322 C1320 1.395 . S
C1322 C1325 1.403 . S
C1323 C1320 1.403 . S
C1323 C1324 1.524 . S
C1323 C1327 1.400 . S
C1324 H1309 0.960 . S
C1324 H1310 0.960 . S
C1324 H1311 0.960 . S
C1324 C1323 1.524 . S
C1325 C1322 1.403 . S
C1325 C1326 1.392 . S
C1325 C1329 1.495 . S
C1326 C1325 1.392 . S
C1326 C1327 1.385 . S
C1326 C1328 1.478 . S
C1327 H1321 0.930 . S
C1327 C1323 1.400 . S
C1327 C1326 1.385 . S
C1328 C1326 1.478 . S
C1328 C1330 1.381 . S
C1328 C1334 1.383 . S
C1329 C1325 1.495 . S
C1329 H1335 0.959 . S
C1329 H1336 0.961 . S
C1329 H1337 0.960 . S
C1330 C1328 1.381 . S
C1330 C1331 1.394 . S
C1330 H1338 0.930 . S
C1331 C1330 1.394 . S
C1331 C1332 1.383 . S
C1331 H1339 0.929 . S
C1332 C1331 1.383 . S
C1332 C1333 1.377 . S
C1333 H1317 0.930 . S
C1333 C1332 1.377 . S
C1333 C1334 1.379 . S
C1334 H1318 0.931 . S
C1334 C1328 1.383 . S
C1334 C1333 1.379 . S
H1335 C1329 0.959 . S
H1336 C1329 0.961 . S
H1337 C1329 0.960 . S
H1338 C1330 0.930 . S
H1339 C1331 0.929 . S
H1340 C1348 0.929 . S
H1341 C1350 0.930 . S
H1342 C1352 0.930 . S
H1343 C1355 0.929 . S
H1344 C1358 0.930 . S
H1345 C1360 0.960 . S
H1346 C1360 0.960 . S
H1347 C1360 0.960 . S
C1348 H1340 0.929 . S
C1348 C1349 1.377 . S
C1348 C1350 1.384 . S
C1349 C1348 1.377 . S
C1349 C1355 1.390 . S
C1350 H1341 0.930 . S
C1350 C1348 1.384 . S
C1350 C1351 1.372 . S
C1351 C1350 1.372 . S
C1351 C1352 1.400 . S
C1351 C1356 1.490 . S
C1352 H1342 0.930 . S
C1352 C1351 1.400 . S
C1352 C1355 1.386 . S
H1353 C1369 0.930 . S
H1354 C1370 0.931 . S
C1355 H1343 0.929 . S
C1355 C1349 1.390 . S
C1355 C1352 1.386 . S
C1356 C1351 1.490 . S
C1356 C1358 1.395 . S
C1356 C1359 1.403 . S
H1357 C1363 0.930 . S
C1358 H1344 0.930 . S
C1358 C1356 1.395 . S
C1358 C1361 1.403 . S
C1359 C1356 1.403 . S
C1359 C1360 1.524 . S
C1359 C1363 1.400 . S
C1360 H1345 0.960 . S
C1360 H1346 0.960 . S
C1360 H1347 0.960 . S
C1360 C1359 1.524 . S
C1361 C1358 1.403 . S
C1361 C1362 1.392 . S
C1361 C1365 1.495 . S
C1362 C1361 1.392 . S
C1362 C1363 1.385 . S
C1362 C1364 1.478 . S
C1363 H1357 0.930 . S
C1363 C1359 1.400 . S
C1363 C1362 1.385 . S
C1364 C1362 1.478 . S
C1364 C1366 1.381 . S
C1364 C1370 1.383 . S
C1365 C1361 1.495 . S
C1365 H1371 0.959 . S
C1365 H1372 0.961 . S
C1365 H1373 0.960 . S
C1366 C1364 1.381 . S
C1366 C1367 1.394 . S
C1366 H1374 0.930 . S
C1367 C1366 1.394 . S
C1367 C1368 1.383 . S
C1367 H1375 0.929 . S
C1368 C1367 1.383 . S
C1368 C1369 1.377 . S
C1369 H1353 0.930 . S
C1369 C1368 1.377 . S
C1369 C1370 1.379 . S
C1370 H1354 0.931 . S
C1370 C1364 1.383 . S
C1370 C1369 1.379 . S
H1371 C1365 0.959 . S
H1372 C1365 0.961 . S
H1373 C1365 0.960 . S
H1374 C1366 0.930 . S
H1375 C1367 0.929 . S
H1376 C1384 0.929 . S
H1377 C1386 0.930 . S
H1378 C1388 0.930 . S
H1379 C1391 0.929 . S
H1380 C1394 0.930 . S
H1381 C1396 0.960 . S
H1382 C1396 0.960 . S
H1383 C1396 0.960 . S
C1384 H1376 0.929 . S
C1384 C1385 1.377 . S
C1384 C1386 1.384 . S
C1385 C1384 1.377 . S
C1385 C1391 1.390 . S
C1386 H1377 0.930 . S
C1386 C1384 1.384 . S
C1386 C1387 1.372 . S
C1387 C1386 1.372 . S
C1387 C1388 1.400 . S
C1387 C1392 1.490 . S
C1388 H1378 0.930 . S
C1388 C1387 1.400 . S
C1388 C1391 1.386 . S
H1389 C1405 0.930 . S
H1390 C1406 0.931 . S
C1391 H1379 0.929 . S
C1391 C1385 1.390 . S
C1391 C1388 1.386 . S
C1392 C1387 1.490 . S
C1392 C1394 1.395 . S
C1392 C1395 1.403 . S
H1393 C1399 0.930 . S
C1394 H1380 0.930 . S
C1394 C1392 1.395 . S
C1394 C1397 1.403 . S
C1395 C1392 1.403 . S
C1395 C1396 1.524 . S
C1395 C1399 1.400 . S
C1396 H1381 0.960 . S
C1396 H1382 0.960 . S
C1396 H1383 0.960 . S
C1396 C1395 1.524 . S
C1397 C1394 1.403 . S
C1397 C1398 1.392 . S
C1397 C1401 1.495 . S
C1398 C1397 1.392 . S
C1398 C1399 1.385 . S
C1398 C1400 1.478 . S
C1399 H1393 0.930 . S
C1399 C1395 1.400 . S
C1399 C1398 1.385 . S
C1400 C1398 1.478 . S
C1400 C1402 1.381 . S
C1400 C1406 1.383 . S
C1401 C1397 1.495 . S
C1401 H1407 0.959 . S
C1401 H1408 0.961 . S
C1401 H1409 0.960 . S
C1402 C1400 1.381 . S
C1402 C1403 1.394 . S
C1402 H1410 0.930 . S
C1403 C1402 1.394 . S
C1403 C1404 1.383 . S
C1403 H1411 0.929 . S
C1404 C1403 1.383 . S
C1404 C1405 1.377 . S
C1405 H1389 0.930 . S
C1405 C1404 1.377 . S
C1405 C1406 1.379 . S
C1406 H1390 0.931 . S
C1406 C1400 1.383 . S
C1406 C1405 1.379 . S
H1407 C1401 0.959 . S
H1408 C1401 0.961 . S
H1409 C1401 0.960 . S
H1410 C1402 0.930 . S
H1411 C1403 0.929 . S
H1412 C1420 0.929 . S
H1413 C1422 0.930 . S
H1414 C1424 0.930 . S
H1415 C1427 0.929 . S
H1416 C1430 0.930 . S
H1417 C1432 0.960 . S
H1418 C1432 0.960 . S
H1419 C1432 0.960 . S
C1420 H1412 0.929 . S
C1420 C1421 1.377 . S
C1420 C1422 1.384 . S
C1421 C1420 1.377 . S
C1421 C1427 1.390 . S
C1422 H1413 0.930 . S
C1422 C1420 1.384 . S
C1422 C1423 1.372 . S
C1423 C1422 1.372 . S
C1423 C1424 1.400 . S
C1423 C1428 1.490 . S
C1424 H1414 0.930 . S
C1424 C1423 1.400 . S
C1424 C1427 1.386 . S
H1425 C1441 0.930 . S
H1426 C1442 0.931 . S
C1427 H1415 0.929 . S
C1427 C1421 1.390 . S
C1427 C1424 1.386 . S
C1428 C1423 1.490 . S
C1428 C1430 1.395 . S
C1428 C1431 1.403 . S
H1429 C1435 0.930 . S
C1430 H1416 0.930 . S
C1430 C1428 1.395 . S
C1430 C1433 1.403 . S
C1431 C1428 1.403 . S
C1431 C1432 1.524 . S
C1431 C1435 1.400 . S
C1432 H1417 0.960 . S
C1432 H1418 0.960 . S
C1432 H1419 0.960 . S
C1432 C1431 1.524 . S
C1433 C1430 1.403 . S
C1433 C1434 1.392 . S
C1433 C1437 1.495 . S
C1434 C1433 1.392 . S
C1434 C1435 1.385 . S
C1434 C1436 1.478 . S
C1435 H1429 0.930 . S
C1435 C1431 1.400 . S
C1435 C1434 1.385 . S
C1436 C1434 1.478 . S
C1436 C1438 1.381 . S
C1436 C1442 1.383 . S
C1437 C1433 1.495 . S
C1437 H1443 0.959 . S
C1437 H1444 0.961 . S
C1437 H1445 0.960 . S
C1438 C1436 1.381 . S
C1438 C1439 1.394 . S
C1438 H1446 0.930 . S
C1439 C1438 1.394 . S
C1439 C1440 1.383 . S
C1439 H1447 0.929 . S
C1440 C1439 1.383 . S
C1440 C1441 1.377 . S
C1441 H1425 0.930 . S
C1441 C1440 1.377 . S
C1441 C1442 1.379 . S
C1442 H1426 0.931 . S
C1442 C1436 1.383 . S
C1442 C1441 1.379 . S
H1443 C1437 0.959 . S
H1444 C1437 0.961 . S
H1445 C1437 0.960 . S
H1446 C1438 0.930 . S
H1447 C1439 0.929 . S
H1448 C1456 0.929 . S
H1449 C1458 0.930 . S
H1450 C1460 0.930 . S
H1451 C1463 0.929 . S
H1452 C1466 0.930 . S
H1453 C1468 0.960 . S
H1454 C1468 0.960 . S
H1455 C1468 0.960 . S
C1456 H1448 0.929 . S
C1456 C1457 1.377 . S
C1456 C1458 1.384 . S
C1457 C1456 1.377 . S
C1457 C1463 1.390 . S
C1458 H1449 0.930 . S
C1458 C1456 1.384 . S
C1458 C1459 1.372 . S
C1459 C1458 1.372 . S
C1459 C1460 1.400 . S
C1459 C1464 1.490 . S
C1460 H1450 0.930 . S
C1460 C1459 1.400 . S
C1460 C1463 1.386 . S
H1461 C1477 0.930 . S
H1462 C1478 0.931 . S
C1463 H1451 0.929 . S
C1463 C1457 1.390 . S
C1463 C1460 1.386 . S
C1464 C1459 1.490 . S
C1464 C1466 1.395 . S
C1464 C1467 1.403 . S
H1465 C1471 0.930 . S
C1466 H1452 0.930 . S
C1466 C1464 1.395 . S
C1466 C1469 1.403 . S
C1467 C1464 1.403 . S
C1467 C1468 1.524 . S
C1467 C1471 1.400 . S
C1468 H1453 0.960 . S
C1468 H1454 0.960 . S
C1468 H1455 0.960 . S
C1468 C1467 1.524 . S
C1469 C1466 1.403 . S
C1469 C1470 1.392 . S
C1469 C1473 1.495 . S
C1470 C1469 1.392 . S
C1470 C1471 1.385 . S
C1470 C1472 1.478 . S
C1471 H1465 0.930 . S
C1471 C1467 1.400 . S
C1471 C1470 1.385 . S
C1472 C1470 1.478 . S
C1472 C1474 1.381 . S
C1472 C1478 1.383 . S
C1473 C1469 1.495 . S
C1473 H1479 0.959 . S
C1473 H1480 0.961 . S
C1473 H1481 0.960 . S
C1474 C1472 1.381 . S
C1474 C1475 1.394 . S
C1474 H1482 0.930 . S
C1475 C1474 1.394 . S
C1475 C1476 1.383 . S
C1475 H1483 0.929 . S
C1476 C1475 1.383 . S
C1476 C1477 1.377 . S
C1477 H1461 0.930 . S
C1477 C1476 1.377 . S
C1477 C1478 1.379 . S
C1478 H1462 0.931 . S
C1478 C1472 1.383 . S
C1478 C1477 1.379 . S
H1479 C1473 0.959 . S
H1480 C1473 0.961 . S
H1481 C1473 0.960 . S
H1482 C1474 0.930 . S
H1483 C1475 0.929 . S
H1484 C1492 0.929 . S
H1485 C1494 0.930 . S
H1486 C1496 0.930 . S
H1487 C1499 0.929 . S
H1488 C1502 0.930 . S
H1489 C1504 0.960 . S
H1490 C1504 0.960 . S
H1491 C1504 0.960 . S
C1492 H1484 0.929 . S
C1492 C1493 1.377 . S
C1492 C1494 1.384 . S
C1493 C1492 1.377 . S
C1493 C1499 1.390 . S
C1494 H1485 0.930 . S
C1494 C1492 1.384 . S
C1494 C1495 1.372 . S
C1495 C1494 1.372 . S
C1495 C1496 1.400 . S
C1495 C1500 1.490 . S
C1496 H1486 0.930 . S
C1496 C1495 1.400 . S
C1496 C1499 1.386 . S
H1497 C1513 0.930 . S
H1498 C1514 0.931 . S
C1499 H1487 0.929 . S
C1499 C1493 1.390 . S
C1499 C1496 1.386 . S
C1500 C1495 1.490 . S
C1500 C1502 1.395 . S
C1500 C1503 1.403 . S
H1501 C1507 0.930 . S
C1502 H1488 0.930 . S
C1502 C1500 1.395 . S
C1502 C1505 1.403 . S
C1503 C1500 1.403 . S
C1503 C1504 1.524 . S
C1503 C1507 1.400 . S
C1504 H1489 0.960 . S
C1504 H1490 0.960 . S
C1504 H1491 0.960 . S
C1504 C1503 1.524 . S
C1505 C1502 1.403 . S
C1505 C1506 1.392 . S
C1505 C1509 1.495 . S
C1506 C1505 1.392 . S
C1506 C1507 1.385 . S
C1506 C1508 1.478 . S
C1507 H1501 0.930 . S
C1507 C1503 1.400 . S
C1507 C1506 1.385 . S
C1508 C1506 1.478 . S
C1508 C1510 1.381 . S
C1508 C1514 1.383 . S
C1509 C1505 1.495 . S
C1509 H1515 0.959 . S
C1509 H1516 0.961 . S
C1509 H1517 0.960 . S
C1510 C1508 1.381 . S
C1510 C1511 1.394 . S
C1510 H1518 0.930 . S
C1511 C1510 1.394 . S
C1511 C1512 1.383 . S
C1511 H1519 0.929 . S
C1512 C1511 1.383 . S
C1512 C1513 1.377 . S
C1513 H1497 0.930 . S
C1513 C1512 1.377 . S
C1513 C1514 1.379 . S
C1514 H1498 0.931 . S
C1514 C1508 1.383 . S
C1514 C1513 1.379 . S
H1515 C1509 0.959 . S
H1516 C1509 0.961 . S
H1517 C1509 0.960 . S
H1518 C1510 0.930 . S
H1519 C1511 0.929 . S
H1520 C1528 0.929 . S
H1521 C1530 0.930 . S
H1522 C1532 0.930 . S
H1523 C1535 0.929 . S
H1524 C1538 0.930 . S
H1525 C1540 0.960 . S
H1526 C1540 0.960 1_655 S
H1527 C1540 0.960 . S
C1528 H1520 0.929 . S
C1528 C1529 1.377 1_655 S
C1528 C1530 1.384 . S
C1529 C1528 1.377 1_455 S
C1529 C1535 1.390 . S
C1530 H1521 0.930 . S
C1530 C1528 1.384 . S
C1530 C1531 1.372 1_655 S
C1531 C1530 1.372 1_455 S
C1531 C1532 1.400 . S
C1531 C1536 1.490 . S
C1532 H1522 0.930 . S
C1532 C1531 1.400 . S
C1532 C1535 1.386 . S
H1533 C1549 0.930 . S
H1534 C1550 0.931 . S
C1535 H1523 0.929 . S
C1535 C1529 1.390 . S
C1535 C1532 1.386 . S
C1536 C1531 1.490 . S
C1536 C1538 1.395 . S
C1536 C1539 1.403 . S
H1537 C1543 0.930 . S
C1538 H1524 0.930 . S
C1538 C1536 1.395 . S
C1538 C1541 1.403 . S
C1539 C1536 1.403 . S
C1539 C1540 1.524 . S
C1539 C1543 1.400 . S
C1540 H1525 0.960 . S
C1540 H1526 0.960 1_455 S
C1540 H1527 0.960 . S
C1540 C1539 1.524 . S
C1541 C1538 1.403 . S
C1541 C1542 1.392 . S
C1541 C1545 1.495 . S
C1542 C1541 1.392 . S
C1542 C1543 1.385 . S
C1542 C1544 1.478 . S
C1543 H1537 0.930 . S
C1543 C1539 1.400 . S
C1543 C1542 1.385 . S
C1544 C1542 1.478 . S
C1544 C1546 1.381 1_455 S
C1544 C1550 1.383 . S
C1545 C1541 1.495 . S
C1545 H1551 0.959 . S
C1545 H1552 0.961 . S
C1545 H1553 0.960 . S
C1546 C1544 1.381 1_655 S
C1546 C1547 1.394 . S
C1546 H1554 0.930 . S
C1547 C1546 1.394 . S
C1547 C1548 1.383 1_655 S
C1547 H1555 0.929 . S
C1548 C1547 1.383 1_455 S
C1548 C1549 1.377 . S
C1549 H1533 0.930 . S
C1549 C1548 1.377 . S
C1549 C1550 1.379 . S
C1550 H1534 0.931 . S
C1550 C1544 1.383 . S
C1550 C1549 1.379 . S
H1551 C1545 0.959 . S
H1552 C1545 0.961 . S
H1553 C1545 0.960 . S
H1554 C1546 0.930 . S
H1555 C1547 0.929 . S
H1556 C1564 0.929 . S
H1557 C1566 0.930 . S
H1558 C1568 0.930 . S
H1559 C1571 0.929 . S
H1560 C1574 0.930 . S
H1561 C1576 0.960 . S
H1562 C1576 0.960 . S
H1563 C1576 0.960 . S
C1564 H1556 0.929 . S
C1564 C1565 1.377 . S
C1564 C1566 1.384 . S
C1565 C1564 1.377 . S
C1565 C1571 1.390 . S
C1566 H1557 0.930 . S
C1566 C1564 1.384 . S
C1566 C1567 1.372 . S
C1567 C1566 1.372 . S
C1567 C1568 1.400 . S
C1567 C1572 1.490 . S
C1568 H1558 0.930 . S
C1568 C1567 1.400 . S
C1568 C1571 1.386 . S
H1569 C1585 0.930 . S
H1570 C1586 0.931 . S
C1571 H1559 0.929 . S
C1571 C1565 1.390 . S
C1571 C1568 1.386 . S
C1572 C1567 1.490 . S
C1572 C1574 1.395 . S
C1572 C1575 1.403 . S
H1573 C1579 0.930 . S
C1574 H1560 0.930 . S
C1574 C1572 1.395 . S
C1574 C1577 1.403 . S
C1575 C1572 1.403 . S
C1575 C1576 1.524 . S
C1575 C1579 1.400 . S
C1576 H1561 0.960 . S
C1576 H1562 0.960 . S
C1576 H1563 0.960 . S
C1576 C1575 1.524 . S
C1577 C1574 1.403 . S
C1577 C1578 1.392 . S
C1577 C1581 1.495 . S
C1578 C1577 1.392 . S
C1578 C1579 1.385 . S
C1578 C1580 1.478 . S
C1579 H1573 0.930 . S
C1579 C1575 1.400 . S
C1579 C1578 1.385 . S
C1580 C1578 1.478 . S
C1580 C1582 1.381 . S
C1580 C1586 1.383 . S
C1581 C1577 1.495 . S
C1581 H1587 0.959 . S
C1581 H1588 0.961 . S
C1581 H1589 0.960 . S
C1582 C1580 1.381 . S
C1582 C1583 1.394 . S
C1582 H1590 0.930 . S
C1583 C1582 1.394 . S
C1583 C1584 1.383 . S
C1583 H1591 0.929 . S
C1584 C1583 1.383 . S
C1584 C1585 1.377 . S
C1585 H1569 0.930 . S
C1585 C1584 1.377 . S
C1585 C1586 1.379 . S
C1586 H1570 0.931 . S
C1586 C1580 1.383 . S
C1586 C1585 1.379 . S
H1587 C1581 0.959 . S
H1588 C1581 0.961 . S
H1589 C1581 0.960 . S
H1590 C1582 0.930 . S
H1591 C1583 0.929 . S
H1592 C1600 0.929 . S
H1593 C1602 0.930 . S
H1594 C1604 0.930 . S
H1595 C1607 0.929 . S
H1596 C1610 0.930 . S
H1597 C1612 0.960 . S
H1598 C1612 0.960 . S
H1599 C1612 0.960 . S
C1600 H1592 0.929 . S
C1600 C1601 1.377 . S
C1600 C1602 1.384 . S
C1601 C1600 1.377 . S
C1601 C1607 1.390 . S
C1602 H1593 0.930 . S
C1602 C1600 1.384 . S
C1602 C1603 1.372 . S
C1603 C1602 1.372 . S
C1603 C1604 1.400 . S
C1603 C1608 1.490 . S
C1604 H1594 0.930 . S
C1604 C1603 1.400 . S
C1604 C1607 1.386 . S
H1605 C1621 0.930 . S
H1606 C1622 0.931 . S
C1607 H1595 0.929 . S
C1607 C1601 1.390 . S
C1607 C1604 1.386 . S
C1608 C1603 1.490 . S
C1608 C1610 1.395 . S
C1608 C1611 1.403 . S
H1609 C1615 0.930 . S
C1610 H1596 0.930 . S
C1610 C1608 1.395 . S
C1610 C1613 1.403 . S
C1611 C1608 1.403 . S
C1611 C1612 1.524 . S
C1611 C1615 1.400 . S
C1612 H1597 0.960 . S
C1612 H1598 0.960 . S
C1612 H1599 0.960 . S
C1612 C1611 1.524 . S
C1613 C1610 1.403 . S
C1613 C1614 1.392 . S
C1613 C1617 1.495 . S
C1614 C1613 1.392 . S
C1614 C1615 1.385 . S
C1614 C1616 1.478 . S
C1615 H1609 0.930 . S
C1615 C1611 1.400 . S
C1615 C1614 1.385 . S
C1616 C1614 1.478 . S
C1616 C1618 1.381 . S
C1616 C1622 1.383 . S
C1617 C1613 1.495 . S
C1617 H1623 0.959 . S
C1617 H1624 0.961 . S
C1617 H1625 0.960 . S
C1618 C1616 1.381 . S
C1618 C1619 1.394 . S
C1618 H1626 0.930 . S
C1619 C1618 1.394 . S
C1619 C1620 1.383 . S
C1619 H1627 0.929 . S
C1620 C1619 1.383 . S
C1620 C1621 1.377 . S
C1621 H1605 0.930 . S
C1621 C1620 1.377 . S
C1621 C1622 1.379 . S
C1622 H1606 0.931 . S
C1622 C1616 1.383 . S
C1622 C1621 1.379 . S
H1623 C1617 0.959 . S
H1624 C1617 0.961 . S
H1625 C1617 0.960 . S
H1626 C1618 0.930 . S
H1627 C1619 0.929 . S
H1628 C1636 0.929 . S
H1629 C1638 0.930 . S
H1630 C1640 0.930 . S
H1631 C1643 0.929 . S
H1632 C1646 0.930 . S
H1633 C1648 0.960 . S
H1634 C1648 0.960 . S
H1635 C1648 0.960 . S
C1636 H1628 0.929 . S
C1636 C1637 1.377 . S
C1636 C1638 1.384 . S
C1637 C1636 1.377 . S
C1637 C1643 1.390 . S
C1638 H1629 0.930 . S
C1638 C1636 1.384 . S
C1638 C1639 1.372 . S
C1639 C1638 1.372 . S
C1639 C1640 1.400 . S
C1639 C1644 1.490 . S
C1640 H1630 0.930 . S
C1640 C1639 1.400 . S
C1640 C1643 1.386 . S
H1641 C1657 0.930 . S
H1642 C1658 0.931 . S
C1643 H1631 0.929 . S
C1643 C1637 1.390 . S
C1643 C1640 1.386 . S
C1644 C1639 1.490 . S
C1644 C1646 1.395 . S
C1644 C1647 1.403 . S
H1645 C1651 0.930 . S
C1646 H1632 0.930 . S
C1646 C1644 1.395 . S
C1646 C1649 1.403 . S
C1647 C1644 1.403 . S
C1647 C1648 1.524 . S
C1647 C1651 1.400 . S
C1648 H1633 0.960 . S
C1648 H1634 0.960 . S
C1648 H1635 0.960 . S
C1648 C1647 1.524 . S
C1649 C1646 1.403 . S
C1649 C1650 1.392 . S
C1649 C1653 1.495 . S
C1650 C1649 1.392 . S
C1650 C1651 1.385 . S
C1650 C1652 1.478 . S
C1651 H1645 0.930 . S
C1651 C1647 1.400 . S
C1651 C1650 1.385 . S
C1652 C1650 1.478 . S
C1652 C1654 1.381 . S
C1652 C1658 1.383 . S
C1653 C1649 1.495 . S
C1653 H1659 0.959 . S
C1653 H1660 0.961 . S
C1653 H1661 0.960 . S
C1654 C1652 1.381 . S
C1654 C1655 1.394 . S
C1654 H1662 0.930 . S
C1655 C1654 1.394 . S
C1655 C1656 1.383 . S
C1655 H1663 0.929 . S
C1656 C1655 1.383 . S
C1656 C1657 1.377 . S
C1657 H1641 0.930 . S
C1657 C1656 1.377 . S
C1657 C1658 1.379 . S
C1658 H1642 0.931 . S
C1658 C1652 1.383 . S
C1658 C1657 1.379 . S
H1659 C1653 0.959 . S
H1660 C1653 0.961 . S
H1661 C1653 0.960 . S
H1662 C1654 0.930 . S
H1663 C1655 0.929 . S
H1664 C1672 0.929 . S
H1665 C1674 0.930 . S
H1666 C1676 0.930 . S
H1667 C1679 0.929 . S
H1668 C1682 0.930 . S
H1669 C1684 0.960 . S
H1670 C1684 0.960 . S
H1671 C1684 0.960 . S
C1672 H1664 0.929 . S
C1672 C1673 1.377 . S
C1672 C1674 1.384 . S
C1673 C1672 1.377 . S
C1673 C1679 1.390 . S
C1674 H1665 0.930 . S
C1674 C1672 1.384 . S
C1674 C1675 1.372 . S
C1675 C1674 1.372 . S
C1675 C1676 1.400 . S
C1675 C1680 1.490 . S
C1676 H1666 0.930 . S
C1676 C1675 1.400 . S
C1676 C1679 1.386 . S
H1677 C1693 0.932 1_655 S
H1678 C1694 0.927 1_655 S
C1679 H1667 0.929 . S
C1679 C1673 1.390 . S
C1679 C1676 1.386 . S
C1680 C1675 1.490 . S
C1680 C1682 1.395 1_455 S
C1680 C1683 1.403 . S
H1681 C1687 0.930 . S
C1682 H1668 0.930 . S
C1682 C1680 1.395 1_655 S
C1682 C1685 1.403 . S
C1683 C1680 1.403 . S
C1683 C1684 1.524 . S
C1683 C1687 1.400 . S
C1684 H1669 0.960 . S
C1684 H1670 0.960 . S
C1684 H1671 0.960 . S
C1684 C1683 1.524 . S
C1685 C1682 1.403 . S
C1685 C1686 1.392 1_655 S
C1685 C1689 1.495 . S
C1686 C1685 1.392 1_455 S
C1686 C1687 1.385 . S
C1686 C1688 1.478 . S
C1687 H1681 0.930 . S
C1687 C1683 1.400 . S
C1687 C1686 1.385 . S
C1688 C1686 1.478 . S
C1688 C1690 1.381 . S
C1688 C1694 1.384 . S
C1689 C1685 1.495 . S
C1689 H1695 0.959 . S
C1689 H1696 0.961 . S
C1689 H1697 0.960 . S
C1690 C1688 1.381 . S
C1690 C1691 1.394 . S
C1690 H1698 0.930 . S
C1691 C1690 1.394 . S
C1691 C1692 1.383 . S
C1691 H1699 0.929 . S
C1692 C1691 1.383 . S
C1692 C1693 1.385 . S
C1693 H1677 0.932 1_455 S
C1693 C1692 1.385 . S
C1693 C1694 1.378 . S
C1694 H1678 0.927 1_455 S
C1694 C1688 1.384 . S
C1694 C1693 1.378 . S
H1695 C1689 0.959 . S
H1696 C1689 0.961 . S
H1697 C1689 0.960 . S
H1698 C1690 0.930 . S
H1699 C1691 0.929 . S
H1700 C1708 0.929 . S
H1701 C1710 0.930 . S
H1702 C1712 0.930 . S
H1703 C1715 0.929 . S
H1704 C1718 0.930 . S
H1705 C1720 0.960 . S
H1706 C1720 0.960 . S
H1707 C1720 0.960 . S
C1708 H1700 0.929 . S
C1708 C1709 1.377 . S
C1708 C1710 1.384 . S
C1709 C1708 1.377 . S
C1709 C1715 1.390 . S
C1710 H1701 0.930 . S
C1710 C1708 1.384 . S
C1710 C1711 1.372 . S
C1711 C1710 1.372 . S
C1711 C1712 1.400 . S
C1711 C1716 1.490 . S
C1712 H1702 0.930 . S
C1712 C1711 1.400 . S
C1712 C1715 1.386 . S
H1713 C1729 0.930 . S
H1714 C1730 0.931 . S
C1715 H1703 0.929 . S
C1715 C1709 1.390 . S
C1715 C1712 1.386 . S
C1716 C1711 1.490 . S
C1716 C1718 1.395 . S
C1716 C1719 1.403 . S
H1717 C1723 0.930 . S
C1718 H1704 0.930 . S
C1718 C1716 1.395 . S
C1718 C1721 1.403 . S
C1719 C1716 1.403 . S
C1719 C1720 1.524 . S
C1719 C1723 1.400 . S
C1720 H1705 0.960 . S
C1720 H1706 0.960 . S
C1720 H1707 0.960 . S
C1720 C1719 1.524 . S
C1721 C1718 1.403 . S
C1721 C1722 1.392 . S
C1721 C1725 1.495 . S
C1722 C1721 1.392 . S
C1722 C1723 1.385 . S
C1722 C1724 1.478 . S
C1723 H1717 0.930 . S
C1723 C1719 1.400 . S
C1723 C1722 1.385 . S
C1724 C1722 1.478 . S
C1724 C1726 1.381 . S
C1724 C1730 1.383 . S
C1725 C1721 1.495 . S
C1725 H1731 0.959 . S
C1725 H1732 0.961 . S
C1725 H1733 0.960 . S
C1726 C1724 1.381 . S
C1726 C1727 1.394 . S
C1726 H1734 0.930 . S
C1727 C1726 1.394 . S
C1727 C1728 1.383 . S
C1727 H1735 0.929 . S
C1728 C1727 1.383 . S
C1728 C1729 1.377 . S
C1729 H1713 0.930 . S
C1729 C1728 1.377 . S
C1729 C1730 1.379 . S
C1730 H1714 0.931 . S
C1730 C1724 1.383 . S
C1730 C1729 1.379 . S
H1731 C1725 0.959 . S
H1732 C1725 0.961 . S
H1733 C1725 0.960 . S
H1734 C1726 0.930 . S
H1735 C1727 0.929 . S
H1736 C1744 0.929 . S
H1737 C1746 0.930 . S
H1738 C1748 0.930 . S
H1739 C1751 0.929 . S
H1740 C1754 0.930 . S
H1741 C1756 0.960 . S
H1742 C1756 0.960 . S
H1743 C1756 0.960 . S
C1744 H1736 0.929 . S
C1744 C1745 1.377 . S
C1744 C1746 1.384 . S
C1745 C1744 1.377 . S
C1745 C1751 1.390 . S
C1746 H1737 0.930 . S
C1746 C1744 1.384 . S
C1746 C1747 1.372 . S
C1747 C1746 1.372 . S
C1747 C1748 1.400 . S
C1747 C1752 1.490 . S
C1748 H1738 0.930 . S
C1748 C1747 1.400 . S
C1748 C1751 1.386 . S
H1749 C1765 0.930 . S
H1750 C1766 0.931 . S
C1751 H1739 0.929 . S
C1751 C1745 1.390 . S
C1751 C1748 1.386 . S
C1752 C1747 1.490 . S
C1752 C1754 1.395 . S
C1752 C1755 1.403 . S
H1753 C1759 0.930 . S
C1754 H1740 0.930 . S
C1754 C1752 1.395 . S
C1754 C1757 1.403 . S
C1755 C1752 1.403 . S
C1755 C1756 1.524 . S
C1755 C1759 1.400 . S
C1756 H1741 0.960 . S
C1756 H1742 0.960 . S
C1756 H1743 0.960 . S
C1756 C1755 1.524 . S
C1757 C1754 1.403 . S
C1757 C1758 1.392 . S
C1757 C1761 1.495 . S
C1758 C1757 1.392 . S
C1758 C1759 1.385 . S
C1758 C1760 1.478 . S
C1759 H1753 0.930 . S
C1759 C1755 1.400 . S
C1759 C1758 1.385 . S
C1760 C1758 1.478 . S
C1760 C1762 1.381 . S
C1760 C1766 1.383 . S
C1761 C1757 1.495 . S
C1761 H1767 0.959 . S
C1761 H1768 0.961 . S
C1761 H1769 0.960 . S
C1762 C1760 1.381 . S
C1762 C1763 1.376 1_556 S
C1762 H1770 0.930 . S
C1763 C1762 1.376 1_554 S
C1763 C1764 1.360 1_554 S
C1763 H1771 0.971 . S
C1764 C1763 1.360 1_556 S
C1764 C1765 1.377 . S
C1765 H1749 0.930 . S
C1765 C1764 1.377 . S
C1765 C1766 1.379 . S
C1766 H1750 0.931 . S
C1766 C1760 1.383 . S
C1766 C1765 1.379 . S
H1767 C1761 0.959 . S
H1768 C1761 0.961 . S
H1769 C1761 0.960 . S
H1770 C1762 0.930 . S
H1771 C1763 0.971 . S
H1772 C1780 0.929 . S
H1773 C1782 0.930 . S
H1774 C1784 0.930 . S
H1775 C1787 0.929 . S
H1776 C1790 0.930 . S
H1777 C1792 0.960 . S
H1778 C1792 0.960 . S
H1779 C1792 0.960 . S
C1780 H1772 0.929 . S
C1780 C1781 1.377 . S
C1780 C1782 1.384 . S
C1781 C1780 1.377 . S
C1781 C1787 1.390 . S
C1782 H1773 0.930 . S
C1782 C1780 1.384 . S
C1782 C1783 1.372 . S
C1783 C1782 1.372 . S
C1783 C1784 1.400 . S
C1783 C1788 1.490 . S
C1784 H1774 0.930 . S
C1784 C1783 1.400 . S
C1784 C1787 1.386 . S
H1785 C1801 0.930 . S
H1786 C1802 0.931 . S
C1787 H1775 0.929 . S
C1787 C1781 1.390 . S
C1787 C1784 1.386 . S
C1788 C1783 1.490 . S
C1788 C1790 1.395 . S
C1788 C1791 1.403 . S
H1789 C1795 0.930 . S
C1790 H1776 0.930 . S
C1790 C1788 1.395 . S
C1790 C1793 1.403 . S
C1791 C1788 1.403 . S
C1791 C1792 1.524 . S
C1791 C1795 1.400 . S
C1792 H1777 0.960 . S
C1792 H1778 0.960 . S
C1792 H1779 0.960 . S
C1792 C1791 1.524 . S
C1793 C1790 1.403 . S
C1793 C1794 1.392 . S
C1793 C1797 1.495 . S
C1794 C1793 1.392 . S
C1794 C1795 1.385 . S
C1794 C1796 1.478 . S
C1795 H1789 0.930 . S
C1795 C1791 1.400 . S
C1795 C1794 1.385 . S
C1796 C1794 1.478 . S
C1796 C1798 1.381 . S
C1796 C1802 1.383 . S
C1797 C1793 1.495 . S
C1797 H1803 0.959 . S
C1797 H1804 0.961 . S
C1797 H1805 0.960 . S
C1798 C1796 1.381 . S
C1798 C1799 1.394 . S
C1798 H1806 0.930 . S
C1799 C1798 1.394 . S
C1799 C1800 1.383 . S
C1799 H1807 0.929 . S
C1800 C1799 1.383 . S
C1800 C1801 1.377 . S
C1801 H1785 0.930 . S
C1801 C1800 1.377 . S
C1801 C1802 1.379 . S
C1802 H1786 0.931 . S
C1802 C1796 1.383 . S
C1802 C1801 1.379 . S
H1803 C1797 0.959 . S
H1804 C1797 0.961 . S
H1805 C1797 0.960 . S
H1806 C1798 0.930 . S
H1807 C1799 0.929 . S
H1808 C1816 0.929 . S
H1809 C1818 0.930 . S
H1810 C1820 0.930 . S
H1811 C1823 0.929 . S
H1812 C1826 0.930 . S
H1813 C1828 0.960 . S
H1814 C1828 0.960 . S
H1815 C1828 0.960 . S
C1816 H1808 0.929 . S
C1816 C1817 1.353 1_565 S
C1816 C1818 1.384 . S
C1817 C1816 1.353 1_545 S
C1817 C1823 1.420 . S
C1818 H1809 0.930 . S
C1818 C1816 1.384 . S
C1818 C1819 1.372 1_565 S
C1819 C1818 1.372 1_545 S
C1819 C1820 1.400 . S
C1819 C1824 1.490 . S
C1820 H1810 0.930 . S
C1820 C1819 1.400 . S
C1820 C1823 1.386 . S
H1821 C1837 0.930 . S
H1822 C1838 0.931 . S
C1823 H1811 0.929 . S
C1823 C1817 1.420 . S
C1823 C1820 1.386 . S
C1824 C1819 1.490 . S
C1824 C1826 1.395 . S
C1824 C1827 1.402 . S
H1825 C1831 0.927 1_565 S
C1826 H1812 0.930 . S
C1826 C1824 1.395 . S
C1826 C1829 1.403 . S
C1827 C1824 1.402 . S
C1827 C1828 1.525 1_545 S
C1827 C1831 1.399 . S
C1828 H1813 0.960 . S
C1828 H1814 0.960 . S
C1828 H1815 0.960 . S
C1828 C1827 1.525 1_565 S
C1829 C1826 1.403 . S
C1829 C1830 1.392 . S
C1829 C1833 1.495 . S
C1830 C1829 1.392 . S
C1830 C1831 1.385 . S
C1830 C1832 1.478 . S
C1831 H1825 0.927 1_545 S
C1831 C1827 1.399 . S
C1831 C1830 1.385 . S
C1832 C1830 1.478 . S
C1832 C1834 1.381 . S
C1832 C1838 1.383 . S
C1833 C1829 1.495 . S
C1833 H1839 0.959 . S
C1833 H1840 0.961 . S
C1833 H1841 0.960 . S
C1834 C1832 1.381 . S
C1834 C1835 1.394 . S
C1834 H1842 0.930 1_545 S
C1835 C1834 1.394 . S
C1835 C1836 1.383 . S
C1835 H1843 0.929 1_545 S
C1836 C1835 1.383 . S
C1836 C1837 1.377 . S
C1837 H1821 0.930 . S
C1837 C1836 1.377 . S
C1837 C1838 1.379 . S
C1838 H1822 0.931 . S
C1838 C1832 1.383 . S
C1838 C1837 1.379 . S
H1839 C1833 0.959 . S
H1840 C1833 0.961 . S
H1841 C1833 0.960 . S
H1842 C1834 0.930 1_565 S
H1843 C1835 0.929 1_565 S
H1844 C1852 0.929 . S
H1845 C1854 0.930 . S
H1846 C1856 0.930 . S
H1847 C1859 0.929 . S
H1848 C1862 0.930 . S
H1849 C1864 0.960 . S
H1850 C1864 0.960 . S
H1851 C1864 0.960 . S
C1852 H1844 0.929 . S
C1852 C1853 1.377 . S
C1852 C1854 1.384 . S
C1853 C1852 1.377 . S
C1853 C1859 1.390 . S
C1854 H1845 0.930 . S
C1854 C1852 1.384 . S
C1854 C1855 1.372 . S
C1855 C1854 1.372 . S
C1855 C1856 1.400 . S
C1855 C1860 1.490 . S
C1856 H1846 0.930 . S
C1856 C1855 1.400 . S
C1856 C1859 1.386 . S
H1857 C1873 0.930 . S
H1858 C1874 0.931 . S
C1859 H1847 0.929 . S
C1859 C1853 1.390 . S
C1859 C1856 1.386 . S
C1860 C1855 1.490 . S
C1860 C1862 1.395 . S
C1860 C1863 1.403 . S
H1861 C1867 0.930 . S
C1862 H1848 0.930 . S
C1862 C1860 1.395 . S
C1862 C1865 1.403 . S
C1863 C1860 1.403 . S
C1863 C1864 1.524 . S
C1863 C1867 1.400 . S
C1864 H1849 0.960 . S
C1864 H1850 0.960 . S
C1864 H1851 0.960 . S
C1864 C1863 1.524 . S
C1865 C1862 1.403 . S
C1865 C1866 1.392 . S
C1865 C1869 1.495 . S
C1866 C1865 1.392 . S
C1866 C1867 1.385 . S
C1866 C1868 1.478 . S
C1867 H1861 0.930 . S
C1867 C1863 1.400 . S
C1867 C1866 1.385 . S
C1868 C1866 1.478 . S
C1868 C1870 1.381 . S
C1868 C1874 1.383 . S
C1869 C1865 1.495 . S
C1869 H1875 0.959 . S
C1869 H1876 0.961 . S
C1869 H1877 0.960 . S
C1870 C1868 1.381 . S
C1870 C1871 1.394 . S
C1870 H1878 0.930 . S
C1871 C1870 1.394 . S
C1871 C1872 1.383 . S
C1871 H1879 0.929 . S
C1872 C1871 1.383 . S
C1872 C1873 1.377 . S
C1873 H1857 0.930 . S
C1873 C1872 1.377 . S
C1873 C1874 1.379 . S
C1874 H1858 0.931 . S
C1874 C1868 1.383 . S
C1874 C1873 1.379 . S
H1875 C1869 0.959 . S
H1876 C1869 0.961 . S
H1877 C1869 0.960 . S
H1878 C1870 0.930 . S
H1879 C1871 0.929 . S
H1880 C1888 0.929 . S
H1881 C1890 0.930 . S
H1882 C1892 0.930 . S
H1883 C1895 0.929 . S
H1884 C1898 0.930 . S
H1885 C1900 0.960 . S
H1886 C1900 0.960 . S
H1887 C1900 0.960 . S
C1888 H1880 0.929 . S
C1888 C1889 1.377 . S
C1888 C1890 1.384 . S
C1889 C1888 1.377 . S
C1889 C1895 1.390 . S
C1890 H1881 0.930 . S
C1890 C1888 1.384 . S
C1890 C1891 1.372 . S
C1891 C1890 1.372 . S
C1891 C1892 1.400 . S
C1891 C1896 1.490 . S
C1892 H1882 0.930 . S
C1892 C1891 1.400 . S
C1892 C1895 1.386 . S
H1893 C1909 0.930 . S
H1894 C1910 0.931 . S
C1895 H1883 0.929 . S
C1895 C1889 1.390 . S
C1895 C1892 1.386 . S
C1896 C1891 1.490 . S
C1896 C1898 1.395 . S
C1896 C1899 1.403 . S
H1897 C1903 0.930 . S
C1898 H1884 0.930 . S
C1898 C1896 1.395 . S
C1898 C1901 1.403 . S
C1899 C1896 1.403 . S
C1899 C1900 1.524 . S
C1899 C1903 1.400 . S
C1900 H1885 0.960 . S
C1900 H1886 0.960 . S
C1900 H1887 0.960 . S
C1900 C1899 1.524 . S
C1901 C1898 1.403 . S
C1901 C1902 1.392 . S
C1901 C1905 1.495 . S
C1902 C1901 1.392 . S
C1902 C1903 1.385 . S
C1902 C1904 1.478 . S
C1903 H1897 0.930 . S
C1903 C1899 1.400 . S
C1903 C1902 1.385 . S
C1904 C1902 1.478 . S
C1904 C1906 1.381 . S
C1904 C1910 1.383 . S
C1905 C1901 1.495 . S
C1905 H1911 0.959 . S
C1905 H1912 0.961 . S
C1905 H1913 0.960 . S
C1906 C1904 1.381 . S
C1906 C1907 1.394 . S
C1906 H1914 0.930 . S
C1907 C1906 1.394 . S
C1907 C1908 1.383 . S
C1907 H1915 0.929 . S
C1908 C1907 1.383 . S
C1908 C1909 1.377 . S
C1909 H1893 0.930 . S
C1909 C1908 1.377 . S
C1909 C1910 1.379 . S
C1910 H1894 0.931 . S
C1910 C1904 1.383 . S
C1910 C1909 1.379 . S
H1911 C1905 0.959 . S
H1912 C1905 0.961 . S
H1913 C1905 0.960 . S
H1914 C1906 0.930 . S
H1915 C1907 0.929 . S
H1916 C1924 0.929 . S
H1917 C1926 0.930 . S
H1918 C1928 0.930 . S
H1919 C1931 0.929 . S
H1920 C1934 0.930 . S
H1921 C1936 0.960 . S
H1922 C1936 0.960 . S
H1923 C1936 0.960 . S
C1924 H1916 0.929 . S
C1924 C1925 1.377 . S
C1924 C1926 1.384 . S
C1925 C1924 1.377 . S
C1925 C1931 1.390 . S
C1926 H1917 0.930 . S
C1926 C1924 1.384 . S
C1926 C1927 1.372 . S
C1927 C1926 1.372 . S
C1927 C1928 1.400 . S
C1927 C1932 1.490 . S
C1928 H1918 0.930 . S
C1928 C1927 1.400 . S
C1928 C1931 1.386 . S
H1929 C1945 0.930 . S
H1930 C1946 0.931 . S
C1931 H1919 0.929 . S
C1931 C1925 1.390 . S
C1931 C1928 1.386 . S
C1932 C1927 1.490 . S
C1932 C1934 1.395 . S
C1932 C1935 1.403 . S
H1933 C1939 0.930 . S
C1934 H1920 0.930 . S
C1934 C1932 1.395 . S
C1934 C1937 1.403 . S
C1935 C1932 1.403 . S
C1935 C1936 1.524 . S
C1935 C1939 1.400 . S
C1936 H1921 0.960 . S
C1936 H1922 0.960 . S
C1936 H1923 0.960 . S
C1936 C1935 1.524 . S
C1937 C1934 1.403 . S
C1937 C1938 1.392 . S
C1937 C1941 1.495 . S
C1938 C1937 1.392 . S
C1938 C1939 1.385 . S
C1938 C1940 1.478 . S
C1939 H1933 0.930 . S
C1939 C1935 1.400 . S
C1939 C1938 1.385 . S
C1940 C1938 1.478 . S
C1940 C1942 1.381 . S
C1940 C1946 1.383 . S
C1941 C1937 1.495 . S
C1941 H1947 0.959 . S
C1941 H1948 0.961 . S
C1941 H1949 0.960 . S
C1942 C1940 1.381 . S
C1942 C1943 1.394 . S
C1942 H1950 0.930 . S
C1943 C1942 1.394 . S
C1943 C1944 1.383 . S
C1943 H1951 0.929 . S
C1944 C1943 1.383 . S
C1944 C1945 1.377 . S
C1945 H1929 0.930 . S
C1945 C1944 1.377 . S
C1945 C1946 1.379 . S
C1946 H1930 0.931 . S
C1946 C1940 1.383 . S
C1946 C1945 1.379 . S
H1947 C1941 0.959 . S
H1948 C1941 0.961 . S
H1949 C1941 0.960 . S
H1950 C1942 0.930 . S
H1951 C1943 0.929 . S
H1952 C1960 0.929 . S
H1953 C1962 0.930 . S
H1954 C1964 0.925 . S
H1955 C1967 0.929 . S
H1956 C1970 0.930 . S
H1957 C1972 0.960 . S
H1958 C1972 0.960 . S
H1959 C1972 0.960 . S
C1960 H1952 0.929 . S
C1960 C1961 1.377 1_545 S
C1960 C1962 1.384 . S
C1961 C1960 1.377 1_565 S
C1961 C1967 1.390 . S
C1962 H1953 0.930 . S
C1962 C1960 1.384 . S
C1962 C1963 1.372 . S
C1963 C1962 1.372 . S
C1963 C1964 1.395 1_545 S
C1963 C1968 1.490 . S
C1964 H1954 0.925 . S
C1964 C1963 1.395 1_565 S
C1964 C1967 1.397 . S
H1965 C1981 0.930 . S
H1966 C1982 0.931 . S
C1967 H1955 0.929 . S
C1967 C1961 1.390 . S
C1967 C1964 1.397 . S
C1968 C1963 1.490 . S
C1968 C1970 1.395 1_545 S
C1968 C1971 1.403 . S
H1969 C1975 0.930 . S
C1970 H1956 0.930 . S
C1970 C1968 1.395 1_565 S
C1970 C1973 1.403 . S
C1971 C1968 1.403 . S
C1971 C1972 1.524 . S
C1971 C1975 1.400 . S
C1972 H1957 0.960 . S
C1972 H1958 0.960 . S
C1972 H1959 0.960 . S
C1972 C1971 1.524 . S
C1973 C1970 1.403 . S
C1973 C1974 1.392 1_565 S
C1973 C1977 1.495 . S
C1974 C1973 1.392 1_545 S
C1974 C1975 1.385 . S
C1974 C1976 1.478 . S
C1975 H1969 0.930 . S
C1975 C1971 1.400 . S
C1975 C1974 1.385 . S
C1976 C1974 1.478 . S
C1976 C1978 1.381 . S
C1976 C1982 1.383 . S
C1977 C1973 1.495 . S
C1977 H1983 0.959 . S
C1977 H1984 0.961 . S
C1977 H1985 0.960 . S
C1978 C1976 1.381 . S
C1978 C1979 1.394 . S
C1978 H1986 0.930 . S
C1979 C1978 1.394 . S
C1979 C1980 1.383 . S
C1979 H1987 0.929 . S
C1980 C1979 1.383 . S
C1980 C1981 1.377 . S
C1981 H1965 0.930 . S
C1981 C1980 1.377 . S
C1981 C1982 1.379 . S
C1982 H1966 0.931 . S
C1982 C1976 1.383 . S
C1982 C1981 1.379 . S
H1983 C1977 0.959 . S
H1984 C1977 0.961 . S
H1985 C1977 0.960 . S
H1986 C1978 0.930 . S
H1987 C1979 0.929 . S
H1988 C1996 0.929 . S
H1989 C1998 0.930 . S
H1990 C2000 0.930 . S
H1991 C2003 0.929 . S
H1992 C2006 0.930 . S
H1993 C2008 0.960 . S
H1994 C2008 0.960 . S
H1995 C2008 0.960 . S
C1996 H1988 0.929 . S
C1996 C1997 1.377 . S
C1996 C1998 1.384 . S
C1997 C1996 1.377 . S
C1997 C2003 1.390 . S
C1998 H1989 0.930 . S
C1998 C1996 1.384 . S
C1998 C1999 1.372 . S
C1999 C1998 1.372 . S
C1999 C2000 1.400 . S
C1999 C2004 1.490 . S
C2000 H1990 0.930 . S
C2000 C1999 1.400 . S
C2000 C2003 1.386 . S
H2001 C2017 0.930 . S
H2002 C2018 0.931 . S
C2003 H1991 0.929 . S
C2003 C1997 1.390 . S
C2003 C2000 1.386 . S
C2004 C1999 1.490 . S
C2004 C2006 1.395 . S
C2004 C2007 1.403 . S
H2005 C2011 0.930 . S
C2006 H1992 0.930 . S
C2006 C2004 1.395 . S
C2006 C2009 1.403 . S
C2007 C2004 1.403 . S
C2007 C2008 1.524 . S
C2007 C2011 1.400 . S
C2008 H1993 0.960 . S
C2008 H1994 0.960 . S
C2008 H1995 0.960 . S
C2008 C2007 1.524 . S
C2009 C2006 1.403 . S
C2009 C2010 1.392 . S
C2009 C2013 1.495 . S
C2010 C2009 1.392 . S
C2010 C2011 1.385 . S
C2010 C2012 1.478 . S
C2011 H2005 0.930 . S
C2011 C2007 1.400 . S
C2011 C2010 1.385 . S
C2012 C2010 1.478 . S
C2012 C2014 1.381 . S
C2012 C2018 1.383 . S
C2013 C2009 1.495 . S
C2013 H2019 0.959 . S
C2013 H2020 0.961 . S
C2013 H2021 0.960 . S
C2014 C2012 1.381 . S
C2014 C2015 1.394 . S
C2014 H2022 0.930 . S
C2015 C2014 1.394 . S
C2015 C2016 1.383 . S
C2015 H2023 0.929 . S
C2016 C2015 1.383 . S
C2016 C2017 1.377 . S
C2017 H2001 0.930 . S
C2017 C2016 1.377 . S
C2017 C2018 1.379 . S
C2018 H2002 0.931 . S
C2018 C2012 1.383 . S
C2018 C2017 1.379 . S
H2019 C2013 0.959 . S
H2020 C2013 0.961 . S
H2021 C2013 0.960 . S
H2022 C2014 0.930 . S
H2023 C2015 0.929 . S
H2024 C2032 0.929 . S
H2025 C2034 0.930 . S
H2026 C2036 0.930 . S
H2027 C2039 0.929 . S
H2028 C2042 0.930 . S
H2029 C2044 0.960 . S
H2030 C2044 0.960 . S
H2031 C2044 0.960 . S
C2032 H2024 0.929 . S
C2032 C2033 1.377 . S
C2032 C2034 1.384 . S
C2033 C2032 1.377 . S
C2033 C2039 1.390 . S
C2034 H2025 0.930 . S
C2034 C2032 1.384 . S
C2034 C2035 1.372 . S
C2035 C2034 1.372 . S
C2035 C2036 1.400 . S
C2035 C2040 1.490 . S
C2036 H2026 0.930 . S
C2036 C2035 1.400 . S
C2036 C2039 1.386 . S
H2037 C2053 0.930 1_565 S
H2038 C2054 0.931 . S
C2039 H2027 0.929 . S
C2039 C2033 1.390 . S
C2039 C2036 1.386 . S
C2040 C2035 1.490 . S
C2040 C2042 1.395 . S
C2040 C2043 1.403 . S
H2041 C2047 0.930 . S
C2042 H2028 0.930 . S
C2042 C2040 1.395 . S
C2042 C2045 1.403 . S
C2043 C2040 1.403 . S
C2043 C2044 1.524 . S
C2043 C2047 1.400 . S
C2044 H2029 0.960 . S
C2044 H2030 0.960 . S
C2044 H2031 0.960 . S
C2044 C2043 1.524 . S
C2045 C2042 1.403 . S
C2045 C2046 1.392 . S
C2045 C2049 1.495 . S
C2046 C2045 1.392 . S
C2046 C2047 1.385 . S
C2046 C2048 1.478 . S
C2047 H2041 0.930 . S
C2047 C2043 1.400 . S
C2047 C2046 1.385 . S
C2048 C2046 1.478 . S
C2048 C2050 1.381 . S
C2048 C2054 1.383 . S
C2049 C2045 1.495 . S
C2049 H2055 0.959 . S
C2049 H2056 0.961 . S
C2049 H2057 0.960 . S
C2050 C2048 1.381 . S
C2050 C2051 1.394 . S
C2050 H2058 0.930 . S
C2051 C2050 1.394 . S
C2051 C2052 1.383 . S
C2051 H2059 0.929 . S
C2052 C2051 1.383 . S
C2052 C2053 1.377 . S
C2053 H2037 0.930 1_545 S
C2053 C2052 1.377 . S
C2053 C2054 1.379 . S
C2054 H2038 0.931 . S
C2054 C2048 1.383 . S
C2054 C2053 1.379 . S
H2055 C2049 0.959 . S
H2056 C2049 0.961 . S
H2057 C2049 0.960 . S
H2058 C2050 0.930 . S
H2059 C2051 0.929 . S
H2060 C2068 0.929 . S
H2061 C2070 0.930 . S
H2062 C2072 0.930 . S
H2063 C2075 0.929 . S
H2064 C2078 0.930 . S
H2065 C2080 0.960 . S
H2066 C2080 0.960 . S
H2067 C2080 0.960 . S
C2068 H2060 0.929 . S
C2068 C2069 1.377 . S
C2068 C2070 1.384 . S
C2069 C2068 1.377 . S
C2069 C2075 1.390 . S
C2070 H2061 0.930 . S
C2070 C2068 1.384 . S
C2070 C2071 1.372 . S
C2071 C2070 1.372 . S
C2071 C2072 1.400 . S
C2071 C2076 1.490 . S
C2072 H2062 0.930 . S
C2072 C2071 1.400 . S
C2072 C2075 1.386 . S
H2073 C2089 0.930 . S
H2074 C2090 0.931 . S
C2075 H2063 0.929 . S
C2075 C2069 1.390 . S
C2075 C2072 1.386 . S
C2076 C2071 1.490 . S
C2076 C2078 1.395 . S
C2076 C2079 1.403 . S
H2077 C2083 0.930 . S
C2078 H2064 0.930 . S
C2078 C2076 1.395 . S
C2078 C2081 1.403 . S
C2079 C2076 1.403 . S
C2079 C2080 1.524 . S
C2079 C2083 1.400 . S
C2080 H2065 0.960 . S
C2080 H2066 0.960 . S
C2080 H2067 0.960 . S
C2080 C2079 1.524 . S
C2081 C2078 1.403 . S
C2081 C2082 1.392 . S
C2081 C2085 1.495 . S
C2082 C2081 1.392 . S
C2082 C2083 1.385 . S
C2082 C2084 1.478 . S
C2083 H2077 0.930 . S
C2083 C2079 1.400 . S
C2083 C2082 1.385 . S
C2084 C2082 1.478 . S
C2084 C2086 1.381 . S
C2084 C2090 1.383 . S
C2085 C2081 1.495 . S
C2085 H2091 0.959 . S
C2085 H2092 0.961 . S
C2085 H2093 0.960 . S
C2086 C2084 1.381 . S
C2086 C2087 1.394 . S
C2086 H2094 0.930 . S
C2087 C2086 1.394 . S
C2087 C2088 1.383 . S
C2087 H2095 0.929 . S
C2088 C2087 1.383 . S
C2088 C2089 1.377 . S
C2089 H2073 0.930 . S
C2089 C2088 1.377 . S
C2089 C2090 1.379 . S
C2090 H2074 0.931 . S
C2090 C2084 1.383 . S
C2090 C2089 1.379 . S
H2091 C2085 0.959 . S
H2092 C2085 0.961 . S
H2093 C2085 0.960 . S
H2094 C2086 0.930 . S
H2095 C2087 0.929 . S
H2096 C2104 0.929 . S
H2097 C2106 0.930 . S
H2098 C2108 0.930 . S
H2099 C2111 0.929 . S
H2100 C2114 0.930 . S
H2101 C2116 0.960 . S
H2102 C2116 0.960 . S
H2103 C2116 0.960 . S
C2104 H2096 0.929 . S
C2104 C2105 1.377 . S
C2104 C2106 1.384 . S
C2105 C2104 1.377 . S
C2105 C2111 1.390 . S
C2106 H2097 0.930 . S
C2106 C2104 1.384 . S
C2106 C2107 1.372 . S
C2107 C2106 1.372 . S
C2107 C2108 1.400 . S
C2107 C2112 1.490 . S
C2108 H2098 0.930 . S
C2108 C2107 1.400 . S
C2108 C2111 1.386 . S
H2109 C2125 0.930 . S
H2110 C2126 0.921 1_556 S
C2111 H2099 0.929 . S
C2111 C2105 1.390 . S
C2111 C2108 1.386 . S
C2112 C2107 1.490 . S
C2112 C2114 1.395 1_554 S
C2112 C2115 1.403 . S
H2113 C2119 0.930 . S
C2114 H2100 0.930 . S
C2114 C2112 1.395 1_556 S
C2114 C2117 1.403 . S
C2115 C2112 1.403 . S
C2115 C2116 1.524 . S
C2115 C2119 1.400 . S
C2116 H2101 0.960 . S
C2116 H2102 0.960 . S
C2116 H2103 0.960 . S
C2116 C2115 1.524 . S
C2117 C2114 1.403 . S
C2117 C2118 1.392 1_556 S
C2117 C2121 1.495 . S
C2118 C2117 1.392 1_554 S
C2118 C2119 1.385 . S
C2118 C2120 1.478 . S
C2119 H2113 0.930 . S
C2119 C2115 1.400 . S
C2119 C2118 1.385 . S
C2120 C2118 1.478 . S
C2120 C2122 1.381 . S
C2120 C2126 1.389 . S
C2121 C2117 1.495 . S
C2121 H2127 0.959 . S
C2121 H2128 0.961 . S
C2121 H2129 0.960 . S
C2122 C2120 1.381 . S
C2122 C2123 1.394 . S
C2122 H2130 0.930 . S
C2123 C2122 1.394 . S
C2123 C2124 1.383 . S
C2123 H2131 0.929 . S
C2124 C2123 1.383 . S
C2124 C2125 1.377 . S
C2125 H2109 0.930 . S
C2125 C2124 1.377 . S
C2125 C2126 1.381 . S
C2126 H2110 0.921 1_554 S
C2126 C2120 1.389 . S
C2126 C2125 1.381 . S
H2127 C2121 0.959 . S
H2128 C2121 0.961 . S
H2129 C2121 0.960 . S
H2130 C2122 0.930 . S
H2131 C2123 0.929 . S
H2132 C2140 0.929 . S
H2133 C2142 0.930 . S
H2134 C2144 0.883 1_556 S
H2135 C2147 0.887 1_556 S
H2136 C2150 0.930 . S
H2137 C2152 0.960 . S
H2138 C2152 0.960 . S
H2139 C2152 0.960 . S
C2140 H2132 0.929 . S
C2140 C2141 1.377 . S
C2140 C2142 1.384 . S
C2141 C2140 1.377 . S
C2141 C2147 1.390 . S
C2142 H2133 0.930 . S
C2142 C2140 1.384 . S
C2142 C2143 1.372 . S
C2143 C2142 1.372 . S
C2143 C2144 1.400 . S
C2143 C2148 1.490 . S
C2144 H2134 0.883 1_554 S
C2144 C2143 1.400 . S
C2144 C2147 1.386 . S
H2145 C2161 0.930 1_556 S
H2146 C2162 0.931 1_556 S
C2147 H2135 0.887 1_554 S
C2147 C2141 1.390 . S
C2147 C2144 1.386 . S
C2148 C2143 1.490 . S
C2148 C2150 1.395 . S
C2148 C2151 1.403 . S
H2149 C2155 0.930 . S
C2150 H2136 0.930 . S
C2150 C2148 1.395 . S
C2150 C2153 1.403 . S
C2151 C2148 1.403 . S
C2151 C2152 1.524 . S
C2151 C2155 1.400 . S
C2152 H2137 0.960 . S
C2152 H2138 0.960 . S
C2152 H2139 0.960 . S
C2152 C2151 1.524 . S
C2153 C2150 1.403 . S
C2153 C2154 1.392 . S
C2153 C2157 1.495 . S
C2154 C2153 1.392 . S
C2154 C2155 1.385 . S
C2154 C2156 1.478 . S
C2155 H2149 0.930 . S
C2155 C2151 1.400 . S
C2155 C2154 1.385 . S
C2156 C2154 1.478 . S
C2156 C2158 1.381 . S
C2156 C2162 1.383 . S
C2157 C2153 1.495 . S
C2157 H2163 0.959 . S
C2157 H2164 0.961 . S
C2157 H2165 0.960 . S
C2158 C2156 1.381 . S
C2158 C2159 1.394 . S
C2158 H2166 0.930 . S
C2159 C2158 1.394 . S
C2159 C2160 1.383 . S
C2159 H2167 0.929 . S
C2160 C2159 1.383 . S
C2160 C2161 1.377 . S
C2161 H2145 0.930 1_554 S
C2161 C2160 1.377 . S
C2161 C2162 1.379 . S
C2162 H2146 0.931 1_554 S
C2162 C2156 1.383 . S
C2162 C2161 1.379 . S
H2163 C2157 0.959 . S
H2164 C2157 0.961 . S
H2165 C2157 0.960 . S
H2166 C2158 0.930 . S
H2167 C2159 0.929 . S
H2168 C2176 0.929 . S
H2169 C2178 0.930 . S
H2170 C2180 0.930 . S
H2171 C2183 0.929 . S
H2172 C2186 0.930 . S
H2173 C2188 0.960 . S
H2174 C2188 0.960 . S
H2175 C2188 0.960 . S
C2176 H2168 0.929 . S
C2176 C2177 1.377 . S
C2176 C2178 1.384 . S
C2177 C2176 1.377 . S
C2177 C2183 1.390 . S
C2178 H2169 0.930 . S
C2178 C2176 1.384 . S
C2178 C2179 1.372 . S
C2179 C2178 1.372 . S
C2179 C2180 1.400 . S
C2179 C2184 1.490 . S
C2180 H2170 0.930 . S
C2180 C2179 1.400 . S
C2180 C2183 1.386 . S
H2181 C2197 0.930 . S
H2182 C2198 0.931 . S
C2183 H2171 0.929 . S
C2183 C2177 1.390 . S
C2183 C2180 1.386 . S
C2184 C2179 1.490 . S
C2184 C2186 1.395 . S
C2184 C2187 1.403 . S
H2185 C2191 0.930 . S
C2186 H2172 0.930 . S
C2186 C2184 1.395 . S
C2186 C2189 1.403 . S
C2187 C2184 1.403 . S
C2187 C2188 1.524 . S
C2187 C2191 1.400 . S
C2188 H2173 0.960 . S
C2188 H2174 0.960 . S
C2188 H2175 0.960 . S
C2188 C2187 1.524 . S
C2189 C2186 1.403 . S
C2189 C2190 1.392 . S
C2189 C2193 1.495 . S
C2190 C2189 1.392 . S
C2190 C2191 1.385 . S
C2190 C2192 1.478 . S
C2191 H2185 0.930 . S
C2191 C2187 1.400 . S
C2191 C2190 1.385 . S
C2192 C2190 1.478 . S
C2192 C2194 1.381 . S
C2192 C2198 1.383 . S
C2193 C2189 1.495 . S
C2193 H2199 0.959 . S
C2193 H2200 0.961 . S
C2193 H2201 0.960 . S
C2194 C2192 1.381 . S
C2194 C2195 1.394 . S
C2194 H2202 0.930 . S
C2195 C2194 1.394 . S
C2195 C2196 1.383 . S
C2195 H2203 0.929 . S
C2196 C2195 1.383 . S
C2196 C2197 1.377 . S
C2197 H2181 0.930 . S
C2197 C2196 1.377 . S
C2197 C2198 1.379 . S
C2198 H2182 0.931 . S
C2198 C2192 1.383 . S
C2198 C2197 1.379 . S
H2199 C2193 0.959 . S
H2200 C2193 0.961 . S
H2201 C2193 0.960 . S
H2202 C2194 0.930 . S
H2203 C2195 0.929 . S
H2204 C2212 0.929 . S
H2205 C2214 0.930 . S
H2206 C2216 0.930 . S
H2207 C2219 0.929 . S
H2208 C2222 0.930 . S
H2209 C2224 0.960 . S
H2210 C2224 0.960 . S
H2211 C2224 0.960 . S
C2212 H2204 0.929 . S
C2212 C2213 1.377 . S
C2212 C2214 1.384 . S
C2213 C2212 1.377 . S
C2213 C2219 1.390 . S
C2214 H2205 0.930 . S
C2214 C2212 1.384 . S
C2214 C2215 1.372 . S
C2215 C2214 1.372 . S
C2215 C2216 1.400 . S
C2215 C2220 1.490 . S
C2216 H2206 0.930 . S
C2216 C2215 1.400 . S
C2216 C2219 1.386 . S
H2217 C2233 0.930 . S
H2218 C2234 0.931 . S
C2219 H2207 0.929 . S
C2219 C2213 1.390 . S
C2219 C2216 1.386 . S
C2220 C2215 1.490 . S
C2220 C2222 1.395 . S
C2220 C2223 1.403 . S
H2221 C2227 0.930 . S
C2222 H2208 0.930 . S
C2222 C2220 1.395 . S
C2222 C2225 1.403 . S
C2223 C2220 1.403 . S
C2223 C2224 1.524 . S
C2223 C2227 1.400 . S
C2224 H2209 0.960 . S
C2224 H2210 0.960 . S
C2224 H2211 0.960 . S
C2224 C2223 1.524 . S
C2225 C2222 1.403 . S
C2225 C2226 1.392 . S
C2225 C2229 1.495 . S
C2226 C2225 1.392 . S
C2226 C2227 1.385 . S
C2226 C2228 1.478 . S
C2227 H2221 0.930 . S
C2227 C2223 1.400 . S
C2227 C2226 1.385 . S
C2228 C2226 1.478 . S
C2228 C2230 1.381 . S
C2228 C2234 1.383 . S
C2229 C2225 1.495 . S
C2229 H2235 0.959 . S
C2229 H2236 0.961 . S
C2229 H2237 0.960 . S
C2230 C2228 1.381 . S
C2230 C2231 1.394 . S
C2230 H2238 0.930 . S
C2231 C2230 1.394 . S
C2231 C2232 1.383 . S
C2231 H2239 0.929 . S
C2232 C2231 1.383 . S
C2232 C2233 1.377 . S
C2233 H2217 0.930 . S
C2233 C2232 1.377 . S
C2233 C2234 1.379 . S
C2234 H2218 0.931 . S
C2234 C2228 1.383 . S
C2234 C2233 1.379 . S
H2235 C2229 0.959 . S
H2236 C2229 0.961 . S
H2237 C2229 0.960 . S
H2238 C2230 0.930 . S
H2239 C2231 0.929 . S
H2240 C2248 0.929 . S
H2241 C2250 0.930 . S
H2242 C2252 0.930 . S
H2243 C2255 0.929 . S
H2244 C2258 0.930 . S
H2245 C2260 0.960 . S
H2246 C2260 0.960 . S
H2247 C2260 0.960 . S
C2248 H2240 0.929 . S
C2248 C2249 1.377 . S
C2248 C2250 1.384 . S
C2249 C2248 1.377 . S
C2249 C2255 1.390 . S
C2250 H2241 0.930 . S
C2250 C2248 1.384 . S
C2250 C2251 1.372 . S
C2251 C2250 1.372 . S
C2251 C2252 1.400 . S
C2251 C2256 1.490 . S
C2252 H2242 0.930 . S
C2252 C2251 1.400 . S
C2252 C2255 1.386 . S
H2253 C2269 0.930 . S
H2254 C2270 0.931 . S
C2255 H2243 0.929 . S
C2255 C2249 1.390 . S
C2255 C2252 1.386 . S
C2256 C2251 1.490 . S
C2256 C2258 1.395 . S
C2256 C2259 1.403 . S
H2257 C2263 0.930 . S
C2258 H2244 0.930 . S
C2258 C2256 1.395 . S
C2258 C2261 1.403 . S
C2259 C2256 1.403 . S
C2259 C2260 1.524 . S
C2259 C2263 1.400 . S
C2260 H2245 0.960 . S
C2260 H2246 0.960 . S
C2260 H2247 0.960 . S
C2260 C2259 1.524 . S
C2261 C2258 1.403 . S
C2261 C2262 1.392 . S
C2261 C2265 1.495 . S
C2262 C2261 1.392 . S
C2262 C2263 1.385 . S
C2262 C2264 1.478 . S
C2263 H2257 0.930 . S
C2263 C2259 1.400 . S
C2263 C2262 1.385 . S
C2264 C2262 1.478 . S
C2264 C2266 1.381 . S
C2264 C2270 1.383 . S
C2265 C2261 1.495 . S
C2265 H2271 0.959 . S
C2265 H2272 0.961 . S
C2265 H2273 0.960 . S
C2266 C2264 1.381 . S
C2266 C2267 1.394 . S
C2266 H2274 0.930 . S
C2267 C2266 1.394 . S
C2267 C2268 1.383 . S
C2267 H2275 0.929 . S
C2268 C2267 1.383 . S
C2268 C2269 1.377 . S
C2269 H2253 0.930 . S
C2269 C2268 1.377 . S
C2269 C2270 1.379 . S
C2270 H2254 0.931 . S
C2270 C2264 1.383 . S
C2270 C2269 1.379 . S
H2271 C2265 0.959 . S
H2272 C2265 0.961 . S
H2273 C2265 0.960 . S
H2274 C2266 0.930 . S
H2275 C2267 0.929 . S
H2276 C2284 0.929 . S
H2277 C2286 0.930 . S
H2278 C2288 0.930 . S
H2279 C2291 0.929 . S
H2280 C2294 0.930 . S
H2281 C2296 0.960 . S
H2282 C2296 0.960 . S
H2283 C2296 0.960 . S
C2284 H2276 0.929 . S
C2284 C2285 1.377 . S
C2284 C2286 1.384 . S
C2285 C2284 1.377 . S
C2285 C2291 1.390 . S
C2286 H2277 0.930 . S
C2286 C2284 1.384 . S
C2286 C2287 1.372 . S
C2287 C2286 1.372 . S
C2287 C2288 1.400 . S
C2287 C2292 1.490 . S
C2288 H2278 0.930 . S
C2288 C2287 1.400 . S
C2288 C2291 1.386 . S
H2289 C2305 0.930 . S
H2290 C2306 0.931 . S
C2291 H2279 0.929 . S
C2291 C2285 1.390 . S
C2291 C2288 1.386 . S
C2292 C2287 1.490 . S
C2292 C2294 1.395 . S
C2292 C2295 1.403 . S
H2293 C2299 0.930 . S
C2294 H2280 0.930 . S
C2294 C2292 1.395 . S
C2294 C2297 1.403 . S
C2295 C2292 1.403 . S
C2295 C2296 1.524 . S
C2295 C2299 1.400 . S
C2296 H2281 0.960 . S
C2296 H2282 0.960 . S
C2296 H2283 0.960 . S
C2296 C2295 1.524 . S
C2297 C2294 1.403 . S
C2297 C2298 1.392 . S
C2297 C2301 1.495 . S
C2298 C2297 1.392 . S
C2298 C2299 1.385 . S
C2298 C2300 1.478 . S
C2299 H2293 0.930 . S
C2299 C2295 1.400 . S
C2299 C2298 1.385 . S
C2300 C2298 1.478 . S
C2300 C2302 1.381 . S
C2300 C2306 1.383 . S
C2301 C2297 1.495 . S
C2301 H2307 0.959 . S
C2301 H2308 0.961 . S
C2301 H2309 0.960 . S
C2302 C2300 1.381 . S
C2302 C2303 1.394 1_565 S
C2302 H2310 0.930 1_565 S
C2303 C2302 1.394 1_545 S
C2303 C2304 1.383 1_545 S
C2303 H2311 0.929 . S
C2304 C2303 1.383 1_565 S
C2304 C2305 1.377 . S
C2305 H2289 0.930 . S
C2305 C2304 1.377 . S
C2305 C2306 1.379 . S
C2306 H2290 0.931 . S
C2306 C2300 1.383 . S
C2306 C2305 1.379 . S
H2307 C2301 0.959 . S
H2308 C2301 0.961 . S
H2309 C2301 0.960 . S
H2310 C2302 0.930 1_545 S
H2311 C2303 0.929 . S
H2312 C2320 0.929 . S
H2313 C2322 0.930 . S
H2314 C2324 0.930 . S
H2315 C2327 0.929 . S
H2316 C2330 0.930 . S
H2317 C2332 0.960 . S
H2318 C2332 0.960 . S
H2319 C2332 0.960 . S
C2320 H2312 0.929 . S
C2320 C2321 1.377 . S
C2320 C2322 1.384 . S
C2321 C2320 1.377 . S
C2321 C2327 1.390 . S
C2322 H2313 0.930 . S
C2322 C2320 1.384 . S
C2322 C2323 1.372 . S
C2323 C2322 1.372 . S
C2323 C2324 1.400 . S
C2323 C2328 1.490 . S
C2324 H2314 0.930 . S
C2324 C2323 1.400 . S
C2324 C2327 1.386 . S
H2325 C2341 0.930 . S
H2326 C2342 0.931 . S
C2327 H2315 0.929 . S
C2327 C2321 1.390 . S
C2327 C2324 1.386 . S
C2328 C2323 1.490 . S
C2328 C2330 1.395 . S
C2328 C2331 1.403 . S
H2329 C2335 0.930 . S
C2330 H2316 0.930 . S
C2330 C2328 1.395 . S
C2330 C2333 1.403 . S
C2331 C2328 1.403 . S
C2331 C2332 1.524 . S
C2331 C2335 1.400 . S
C2332 H2317 0.960 . S
C2332 H2318 0.960 . S
C2332 H2319 0.960 . S
C2332 C2331 1.524 . S
C2333 C2330 1.403 . S
C2333 C2334 1.392 . S
C2333 C2337 1.495 . S
C2334 C2333 1.392 . S
C2334 C2335 1.385 . S
C2334 C2336 1.478 . S
C2335 H2329 0.930 . S
C2335 C2331 1.400 . S
C2335 C2334 1.385 . S
C2336 C2334 1.478 . S
C2336 C2338 1.381 . S
C2336 C2342 1.383 . S
C2337 C2333 1.495 . S
C2337 H2343 0.959 . S
C2337 H2344 0.961 . S
C2337 H2345 0.960 . S
C2338 C2336 1.381 . S
C2338 C2339 1.394 . S
C2338 H2346 0.930 . S
C2339 C2338 1.394 . S
C2339 C2340 1.383 . S
C2339 H2347 0.929 . S
C2340 C2339 1.383 . S
C2340 C2341 1.377 . S
C2341 H2325 0.930 . S
C2341 C2340 1.377 . S
C2341 C2342 1.379 . S
C2342 H2326 0.931 . S
C2342 C2336 1.383 . S
C2342 C2341 1.379 . S
H2343 C2337 0.959 . S
H2344 C2337 0.961 . S
H2345 C2337 0.960 . S
H2346 C2338 0.930 . S
H2347 C2339 0.929 . S
H2348 C2356 0.929 . S
H2349 C2358 0.930 . S
H2350 C2360 0.930 . S
H2351 C2363 0.929 . S
H2352 C2366 0.930 . S
H2353 C2368 0.960 . S
H2354 C2368 0.960 . S
H2355 C2368 0.960 . S
C2356 H2348 0.929 . S
C2356 C2357 1.377 . S
C2356 C2358 1.384 . S
C2357 C2356 1.377 . S
C2357 C2363 1.390 . S
C2358 H2349 0.930 . S
C2358 C2356 1.384 . S
C2358 C2359 1.372 . S
C2359 C2358 1.372 . S
C2359 C2360 1.400 . S
C2359 C2364 1.490 . S
C2360 H2350 0.930 . S
C2360 C2359 1.400 . S
C2360 C2363 1.386 . S
H2361 C2377 0.930 . S
H2362 C2378 0.931 . S
C2363 H2351 0.929 . S
C2363 C2357 1.390 . S
C2363 C2360 1.386 . S
C2364 C2359 1.490 . S
C2364 C2366 1.395 . S
C2364 C2367 1.403 . S
H2365 C2371 0.930 . S
C2366 H2352 0.930 . S
C2366 C2364 1.395 . S
C2366 C2369 1.403 . S
C2367 C2364 1.403 . S
C2367 C2368 1.524 . S
C2367 C2371 1.400 . S
C2368 H2353 0.960 . S
C2368 H2354 0.960 . S
C2368 H2355 0.960 . S
C2368 C2367 1.524 . S
C2369 C2366 1.403 . S
C2369 C2370 1.392 . S
C2369 C2373 1.495 . S
C2370 C2369 1.392 . S
C2370 C2371 1.385 . S
C2370 C2372 1.478 . S
C2371 H2365 0.930 . S
C2371 C2367 1.400 . S
C2371 C2370 1.385 . S
C2372 C2370 1.478 . S
C2372 C2374 1.381 . S
C2372 C2378 1.383 . S
C2373 C2369 1.495 . S
C2373 H2379 0.959 . S
C2373 H2380 0.961 . S
C2373 H2381 0.960 . S
C2374 C2372 1.381 . S
C2374 C2375 1.394 . S
C2374 H2382 0.930 . S
C2375 C2374 1.394 . S
C2375 C2376 1.383 . S
C2375 H2383 0.929 . S
C2376 C2375 1.383 . S
C2376 C2377 1.377 . S
C2377 H2361 0.930 . S
C2377 C2376 1.377 . S
C2377 C2378 1.379 . S
C2378 H2362 0.931 . S
C2378 C2372 1.383 . S
C2378 C2377 1.379 . S
H2379 C2373 0.959 . S
H2380 C2373 0.961 . S
H2381 C2373 0.960 . S
H2382 C2374 0.930 . S
H2383 C2375 0.929 . S
H2384 C2392 0.929 . S
H2385 C2394 0.930 . S
H2386 C2396 0.930 . S
H2387 C2399 0.929 . S
H2388 C2402 0.930 . S
H2389 C2404 0.960 . S
H2390 C2404 0.960 . S
H2391 C2404 0.960 . S
C2392 H2384 0.929 . S
C2392 C2393 1.377 . S
C2392 C2394 1.384 . S
C2393 C2392 1.377 . S
C2393 C2399 1.390 . S
C2394 H2385 0.930 . S
C2394 C2392 1.384 . S
C2394 C2395 1.372 . S
C2395 C2394 1.372 . S
C2395 C2396 1.400 . S
C2395 C2400 1.490 . S
C2396 H2386 0.930 . S
C2396 C2395 1.400 . S
C2396 C2399 1.386 . S
H2397 C2413 0.930 . S
H2398 C2414 0.931 . S
C2399 H2387 0.929 . S
C2399 C2393 1.390 . S
C2399 C2396 1.386 . S
C2400 C2395 1.490 . S
C2400 C2402 1.395 . S
C2400 C2403 1.403 . S
H2401 C2407 0.930 . S
C2402 H2388 0.930 . S
C2402 C2400 1.395 . S
C2402 C2405 1.403 . S
C2403 C2400 1.403 . S
C2403 C2404 1.524 . S
C2403 C2407 1.400 . S
C2404 H2389 0.960 . S
C2404 H2390 0.960 . S
C2404 H2391 0.960 . S
C2404 C2403 1.524 . S
C2405 C2402 1.403 . S
C2405 C2406 1.392 . S
C2405 C2409 1.495 . S
C2406 C2405 1.392 . S
C2406 C2407 1.385 . S
C2406 C2408 1.478 . S
C2407 H2401 0.930 . S
C2407 C2403 1.400 . S
C2407 C2406 1.385 . S
C2408 C2406 1.478 . S
C2408 C2410 1.381 . S
C2408 C2414 1.383 . S
C2409 C2405 1.495 . S
C2409 H2415 0.959 . S
C2409 H2416 0.961 . S
C2409 H2417 0.960 . S
C2410 C2408 1.381 . S
C2410 C2411 1.394 . S
C2410 H2418 0.930 . S
C2411 C2410 1.394 . S
C2411 C2412 1.383 . S
C2411 H2419 0.929 . S
C2412 C2411 1.383 . S
C2412 C2413 1.377 . S
C2413 H2397 0.930 . S
C2413 C2412 1.377 . S
C2413 C2414 1.379 . S
C2414 H2398 0.931 . S
C2414 C2408 1.383 . S
C2414 C2413 1.379 . S
H2415 C2409 0.959 . S
H2416 C2409 0.961 . S
H2417 C2409 0.960 . S
H2418 C2410 0.930 . S
H2419 C2411 0.929 . S
H2420 C2428 0.929 . S
H2421 C2430 0.930 . S
H2422 C2432 0.930 . S
H2423 C2435 0.929 . S
H2424 C2438 0.930 . S
H2425 C2440 0.960 . S
H2426 C2440 0.960 . S
H2427 C2440 0.960 . S
C2428 H2420 0.929 . S
C2428 C2429 1.377 . S
C2428 C2430 1.384 . S
C2429 C2428 1.377 . S
C2429 C2435 1.390 . S
C2430 H2421 0.930 . S
C2430 C2428 1.384 . S
C2430 C2431 1.372 . S
C2431 C2430 1.372 . S
C2431 C2432 1.400 . S
C2431 C2436 1.490 . S
C2432 H2422 0.930 . S
C2432 C2431 1.400 . S
C2432 C2435 1.386 . S
H2433 C2449 0.930 . S
H2434 C2450 0.931 . S
C2435 H2423 0.929 . S
C2435 C2429 1.390 . S
C2435 C2432 1.386 . S
C2436 C2431 1.490 . S
C2436 C2438 1.395 . S
C2436 C2439 1.403 . S
H2437 C2443 0.930 . S
C2438 H2424 0.930 . S
C2438 C2436 1.395 . S
C2438 C2441 1.403 . S
C2439 C2436 1.403 . S
C2439 C2440 1.524 . S
C2439 C2443 1.400 . S
C2440 H2425 0.960 . S
C2440 H2426 0.960 . S
C2440 H2427 0.960 . S
C2440 C2439 1.524 . S
C2441 C2438 1.403 . S
C2441 C2442 1.392 . S
C2441 C2445 1.495 . S
C2442 C2441 1.392 . S
C2442 C2443 1.385 . S
C2442 C2444 1.478 . S
C2443 H2437 0.930 . S
C2443 C2439 1.400 . S
C2443 C2442 1.385 . S
C2444 C2442 1.478 . S
C2444 C2446 1.381 . S
C2444 C2450 1.383 . S
C2445 C2441 1.495 . S
C2445 H2451 0.959 . S
C2445 H2452 0.961 . S
C2445 H2453 0.960 . S
C2446 C2444 1.381 . S
C2446 C2447 1.394 . S
C2446 H2454 0.930 . S
C2447 C2446 1.394 . S
C2447 C2448 1.383 . S
C2447 H2455 0.929 . S
C2448 C2447 1.383 . S
C2448 C2449 1.377 . S
C2449 H2433 0.930 . S
C2449 C2448 1.377 . S
C2449 C2450 1.379 . S
C2450 H2434 0.931 . S
C2450 C2444 1.383 . S
C2450 C2449 1.379 . S
H2451 C2445 0.959 . S
H2452 C2445 0.961 . S
H2453 C2445 0.960 . S
H2454 C2446 0.930 . S
H2455 C2447 0.929 . S
H2456 C2464 0.929 . S
H2457 C2466 0.930 . S
H2458 C2468 0.930 . S
H2459 C2471 0.929 . S
H2460 C2474 0.930 . S
H2461 C2476 0.960 . S
H2462 C2476 0.960 . S
H2463 C2476 0.960 . S
C2464 H2456 0.929 . S
C2464 C2465 1.377 . S
C2464 C2466 1.384 . S
C2465 C2464 1.377 . S
C2465 C2471 1.390 . S
C2466 H2457 0.930 . S
C2466 C2464 1.384 . S
C2466 C2467 1.372 . S
C2467 C2466 1.372 . S
C2467 C2468 1.400 . S
C2467 C2472 1.490 . S
C2468 H2458 0.930 . S
C2468 C2467 1.400 . S
C2468 C2471 1.386 . S
H2469 C2485 0.930 . S
H2470 C2486 0.931 . S
C2471 H2459 0.929 . S
C2471 C2465 1.390 . S
C2471 C2468 1.386 . S
C2472 C2467 1.490 . S
C2472 C2474 1.395 1_455 S
C2472 C2475 1.403 . S
H2473 C2479 0.930 . S
C2474 H2460 0.930 . S
C2474 C2472 1.395 1_655 S
C2474 C2477 1.403 . S
C2475 C2472 1.403 . S
C2475 C2476 1.524 . S
C2475 C2479 1.400 . S
C2476 H2461 0.960 . S
C2476 H2462 0.960 . S
C2476 H2463 0.960 . S
C2476 C2475 1.524 . S
C2477 C2474 1.403 . S
C2477 C2478 1.392 1_655 S
C2477 C2481 1.495 . S
C2478 C2477 1.392 1_455 S
C2478 C2479 1.385 . S
C2478 C2480 1.478 . S
C2479 H2473 0.930 . S
C2479 C2475 1.400 . S
C2479 C2478 1.385 . S
C2480 C2478 1.478 . S
C2480 C2482 1.381 . S
C2480 C2486 1.383 . S
C2481 C2477 1.495 . S
C2481 H2487 0.959 . S
C2481 H2488 0.961 . S
C2481 H2489 0.960 . S
C2482 C2480 1.381 . S
C2482 C2483 1.394 . S
C2482 H2490 0.930 . S
C2483 C2482 1.394 . S
C2483 C2484 1.383 . S
C2483 H2491 0.929 . S
C2484 C2483 1.383 . S
C2484 C2485 1.377 1_556 S
C2485 H2469 0.930 . S
C2485 C2484 1.377 1_554 S
C2485 C2486 1.379 1_554 S
C2486 H2470 0.931 . S
C2486 C2480 1.383 . S
C2486 C2485 1.379 1_556 S
H2487 C2481 0.959 . S
H2488 C2481 0.961 . S
H2489 C2481 0.960 . S
H2490 C2482 0.930 . S
H2491 C2483 0.929 . S
H2492 C2500 0.929 . S
H2493 C2502 0.930 . S
H2494 C2504 0.930 . S
H2495 C2507 0.929 . S
H2496 C2510 0.930 . S
H2497 C2512 0.960 . S
H2498 C2512 0.960 . S
H2499 C2512 0.960 . S
C2500 H2492 0.929 . S
C2500 C2501 1.377 . S
C2500 C2502 1.384 . S
C2501 C2500 1.377 . S
C2501 C2507 1.390 . S
C2502 H2493 0.930 . S
C2502 C2500 1.384 . S
C2502 C2503 1.372 . S
C2503 C2502 1.372 . S
C2503 C2504 1.400 . S
C2503 C2508 1.490 . S
C2504 H2494 0.930 . S
C2504 C2503 1.400 . S
C2504 C2507 1.386 . S
H2505 C2521 0.930 . S
H2506 C2522 0.931 . S
C2507 H2495 0.929 . S
C2507 C2501 1.390 . S
C2507 C2504 1.386 . S
C2508 C2503 1.490 . S
C2508 C2510 1.395 . S
C2508 C2511 1.403 . S
H2509 C2515 0.930 . S
C2510 H2496 0.930 . S
C2510 C2508 1.395 . S
C2510 C2513 1.403 . S
C2511 C2508 1.403 . S
C2511 C2512 1.524 . S
C2511 C2515 1.400 . S
C2512 H2497 0.960 . S
C2512 H2498 0.960 . S
C2512 H2499 0.960 . S
C2512 C2511 1.524 . S
C2513 C2510 1.403 . S
C2513 C2514 1.392 . S
C2513 C2517 1.495 . S
C2514 C2513 1.392 . S
C2514 C2515 1.385 . S
C2514 C2516 1.478 . S
C2515 H2509 0.930 . S
C2515 C2511 1.400 . S
C2515 C2514 1.385 . S
C2516 C2514 1.478 . S
C2516 C2518 1.381 . S
C2516 C2522 1.383 . S
C2517 C2513 1.495 . S
C2517 H2523 0.959 . S
C2517 H2524 0.961 . S
C2517 H2525 0.960 . S
C2518 C2516 1.381 . S
C2518 C2519 1.394 . S
C2518 H2526 0.930 . S
C2519 C2518 1.394 . S
C2519 C2520 1.383 . S
C2519 H2527 0.929 . S
C2520 C2519 1.383 . S
C2520 C2521 1.377 . S
C2521 H2505 0.930 . S
C2521 C2520 1.377 . S
C2521 C2522 1.379 . S
C2522 H2506 0.931 . S
C2522 C2516 1.383 . S
C2522 C2521 1.379 . S
H2523 C2517 0.959 . S
H2524 C2517 0.961 . S
H2525 C2517 0.960 . S
H2526 C2518 0.930 . S
H2527 C2519 0.929 . S
H2528 C2536 0.929 . S
H2529 C2538 0.930 . S
H2530 C2540 0.930 . S
H2531 C2543 0.929 . S
H2532 C2546 0.930 . S
H2533 C2548 0.960 . S
H2534 C2548 0.960 . S
H2535 C2548 0.960 . S
C2536 H2528 0.929 . S
C2536 C2537 1.377 . S
C2536 C2538 1.384 . S
C2537 C2536 1.377 . S
C2537 C2543 1.390 . S
C2538 H2529 0.930 . S
C2538 C2536 1.384 . S
C2538 C2539 1.372 . S
C2539 C2538 1.372 . S
C2539 C2540 1.400 . S
C2539 C2544 1.490 . S
C2540 H2530 0.930 . S
C2540 C2539 1.400 . S
C2540 C2543 1.386 . S
H2541 C2557 0.930 . S
H2542 C2558 0.931 . S
C2543 H2531 0.929 . S
C2543 C2537 1.390 . S
C2543 C2540 1.386 . S
C2544 C2539 1.490 . S
C2544 C2546 1.395 . S
C2544 C2547 1.403 . S
H2545 C2551 0.930 . S
C2546 H2532 0.930 . S
C2546 C2544 1.395 . S
C2546 C2549 1.403 . S
C2547 C2544 1.403 . S
C2547 C2548 1.524 . S
C2547 C2551 1.400 . S
C2548 H2533 0.960 . S
C2548 H2534 0.960 . S
C2548 H2535 0.960 . S
C2548 C2547 1.524 . S
C2549 C2546 1.403 . S
C2549 C2550 1.392 . S
C2549 C2553 1.495 . S
C2550 C2549 1.392 . S
C2550 C2551 1.385 . S
C2550 C2552 1.478 . S
C2551 H2545 0.930 . S
C2551 C2547 1.400 . S
C2551 C2550 1.385 . S
C2552 C2550 1.478 . S
C2552 C2554 1.381 . S
C2552 C2558 1.383 . S
C2553 C2549 1.495 . S
C2553 H2559 0.959 . S
C2553 H2560 0.961 . S
C2553 H2561 0.960 . S
C2554 C2552 1.381 . S
C2554 C2555 1.394 . S
C2554 H2562 0.930 . S
C2555 C2554 1.394 . S
C2555 C2556 1.383 . S
C2555 H2563 0.929 . S
C2556 C2555 1.383 . S
C2556 C2557 1.377 . S
C2557 H2541 0.930 . S
C2557 C2556 1.377 . S
C2557 C2558 1.379 . S
C2558 H2542 0.931 . S
C2558 C2552 1.383 . S
C2558 C2557 1.379 . S
H2559 C2553 0.959 . S
H2560 C2553 0.961 . S
H2561 C2553 0.960 . S
H2562 C2554 0.930 . S
H2563 C2555 0.929 . S
H2564 C2572 0.929 . S
H2565 C2574 0.930 . S
H2566 C2576 0.930 . S
H2567 C2579 0.929 . S
H2568 C2582 0.930 . S
H2569 C2584 0.960 . S
H2570 C2584 0.960 . S
H2571 C2584 0.960 . S
C2572 H2564 0.929 . S
C2572 C2573 1.377 . S
C2572 C2574 1.384 . S
C2573 C2572 1.377 . S
C2573 C2579 1.390 . S
C2574 H2565 0.930 . S
C2574 C2572 1.384 . S
C2574 C2575 1.372 . S
C2575 C2574 1.372 . S
C2575 C2576 1.400 . S
C2575 C2580 1.490 . S
C2576 H2566 0.930 . S
C2576 C2575 1.400 . S
C2576 C2579 1.386 . S
H2577 C2593 0.930 . S
H2578 C2594 0.931 . S
C2579 H2567 0.929 . S
C2579 C2573 1.390 . S
C2579 C2576 1.386 . S
C2580 C2575 1.490 . S
C2580 C2582 1.395 . S
C2580 C2583 1.403 . S
H2581 C2587 0.930 . S
C2582 H2568 0.930 . S
C2582 C2580 1.395 . S
C2582 C2585 1.403 . S
C2583 C2580 1.403 . S
C2583 C2584 1.524 . S
C2583 C2587 1.400 . S
C2584 H2569 0.960 . S
C2584 H2570 0.960 . S
C2584 H2571 0.960 . S
C2584 C2583 1.524 . S
C2585 C2582 1.403 . S
C2585 C2586 1.392 . S
C2585 C2589 1.495 . S
C2586 C2585 1.392 . S
C2586 C2587 1.385 . S
C2586 C2588 1.478 . S
C2587 H2581 0.930 . S
C2587 C2583 1.400 . S
C2587 C2586 1.385 . S
C2588 C2586 1.478 . S
C2588 C2590 1.381 . S
C2588 C2594 1.383 . S
C2589 C2585 1.495 . S
C2589 H2595 0.959 . S
C2589 H2596 0.961 . S
C2589 H2597 0.960 . S
C2590 C2588 1.381 . S
C2590 C2591 1.394 . S
C2590 H2598 0.930 . S
C2591 C2590 1.394 . S
C2591 C2592 1.383 . S
C2591 H2599 0.929 . S
C2592 C2591 1.383 . S
C2592 C2593 1.377 . S
C2593 H2577 0.930 . S
C2593 C2592 1.377 . S
C2593 C2594 1.379 . S
C2594 H2578 0.931 . S
C2594 C2588 1.383 . S
C2594 C2593 1.379 . S
H2595 C2589 0.959 . S
H2596 C2589 0.961 . S
H2597 C2589 0.960 . S
H2598 C2590 0.930 . S
H2599 C2591 0.929 . S
H2600 C2608 0.929 . S
H2601 C2610 0.930 . S
H2602 C2612 0.930 . S
H2603 C2615 0.929 . S
H2604 C2618 0.930 . S
H2605 C2620 0.960 . S
H2606 C2620 0.960 . S
H2607 C2620 0.960 . S
C2608 H2600 0.929 . S
C2608 C2609 1.377 1_455 S
C2608 C2610 1.384 . S
C2609 C2608 1.377 1_655 S
C2609 C2615 1.390 . S
C2610 H2601 0.930 . S
C2610 C2608 1.384 . S
C2610 C2611 1.372 1_455 S
C2611 C2610 1.372 1_655 S
C2611 C2612 1.400 . S
C2611 C2616 1.490 . S
C2612 H2602 0.930 . S
C2612 C2611 1.400 . S
C2612 C2615 1.386 . S
H2613 C2629 0.930 . S
H2614 C2630 0.931 . S
C2615 H2603 0.929 . S
C2615 C2609 1.390 . S
C2615 C2612 1.386 . S
C2616 C2611 1.490 . S
C2616 C2618 1.395 1_655 S
C2616 C2619 1.403 . S
H2617 C2623 0.930 . S
C2618 H2604 0.930 . S
C2618 C2616 1.395 1_455 S
C2618 C2621 1.403 . S
C2619 C2616 1.403 . S
C2619 C2620 1.524 . S
C2619 C2623 1.400 . S
C2620 H2605 0.960 . S
C2620 H2606 0.960 . S
C2620 H2607 0.960 . S
C2620 C2619 1.524 . S
C2621 C2618 1.403 . S
C2621 C2622 1.392 . S
C2621 C2625 1.495 . S
C2622 C2621 1.392 . S
C2622 C2623 1.385 1_455 S
C2622 C2624 1.478 . S
C2623 H2617 0.930 . S
C2623 C2619 1.400 . S
C2623 C2622 1.385 1_655 S
C2624 C2622 1.478 . S
C2624 C2626 1.381 . S
C2624 C2630 1.383 1_455 S
C2625 C2621 1.495 . S
C2625 H2631 0.959 . S
C2625 H2632 0.961 . S
C2625 H2633 0.960 . S
C2626 C2624 1.381 . S
C2626 C2627 1.394 . S
C2626 H2634 0.930 . S
C2627 C2626 1.394 . S
C2627 C2628 1.383 . S
C2627 H2635 0.929 . S
C2628 C2627 1.383 . S
C2628 C2629 1.377 1_455 S
C2629 H2613 0.930 . S
C2629 C2628 1.377 1_655 S
C2629 C2630 1.379 . S
C2630 H2614 0.931 . S
C2630 C2624 1.383 1_655 S
C2630 C2629 1.379 . S
H2631 C2625 0.959 . S
H2632 C2625 0.961 . S
H2633 C2625 0.960 . S
H2634 C2626 0.930 . S
H2635 C2627 0.929 . S
H2636 C2644 0.929 . S
H2637 C2646 0.930 . S
H2638 C2648 0.930 . S
H2639 C2651 0.929 . S
H2640 C2654 0.930 . S
H2641 C2656 0.960 . S
H2642 C2656 0.960 . S
H2643 C2656 0.960 . S
C2644 H2636 0.929 . S
C2644 C2645 1.377 . S
C2644 C2646 1.384 . S
C2645 C2644 1.377 . S
C2645 C2651 1.390 . S
C2646 H2637 0.930 . S
C2646 C2644 1.384 . S
C2646 C2647 1.372 . S
C2647 C2646 1.372 . S
C2647 C2648 1.400 . S
C2647 C2652 1.490 . S
C2648 H2638 0.930 . S
C2648 C2647 1.400 . S
C2648 C2651 1.386 . S
H2649 C2665 0.930 . S
H2650 C2666 0.931 . S
C2651 H2639 0.929 . S
C2651 C2645 1.390 . S
C2651 C2648 1.386 . S
C2652 C2647 1.490 . S
C2652 C2654 1.395 . S
C2652 C2655 1.403 . S
H2653 C2659 0.930 . S
C2654 H2640 0.930 . S
C2654 C2652 1.395 . S
C2654 C2657 1.403 . S
C2655 C2652 1.403 . S
C2655 C2656 1.524 . S
C2655 C2659 1.400 . S
C2656 H2641 0.960 . S
C2656 H2642 0.960 . S
C2656 H2643 0.960 . S
C2656 C2655 1.524 . S
C2657 C2654 1.403 . S
C2657 C2658 1.392 . S
C2657 C2661 1.495 . S
C2658 C2657 1.392 . S
C2658 C2659 1.385 . S
C2658 C2660 1.478 . S
C2659 H2653 0.930 . S
C2659 C2655 1.400 . S
C2659 C2658 1.385 . S
C2660 C2658 1.478 . S
C2660 C2662 1.381 . S
C2660 C2666 1.383 . S
C2661 C2657 1.495 . S
C2661 H2667 0.959 . S
C2661 H2668 0.961 . S
C2661 H2669 0.960 . S
C2662 C2660 1.381 . S
C2662 C2663 1.394 . S
C2662 H2670 0.930 . S
C2663 C2662 1.394 . S
C2663 C2664 1.383 . S
C2663 H2671 0.929 . S
C2664 C2663 1.383 . S
C2664 C2665 1.377 . S
C2665 H2649 0.930 . S
C2665 C2664 1.377 . S
C2665 C2666 1.379 . S
C2666 H2650 0.931 . S
C2666 C2660 1.383 . S
C2666 C2665 1.379 . S
H2667 C2661 0.959 . S
H2668 C2661 0.961 . S
H2669 C2661 0.960 . S
H2670 C2662 0.930 . S
H2671 C2663 0.929 . S
H2672 C2680 0.929 . S
H2673 C2682 0.930 . S
H2674 C2684 0.930 . S
H2675 C2687 0.929 . S
H2676 C2690 0.930 . S
H2677 C2692 0.960 . S
H2678 C2692 0.960 . S
H2679 C2692 0.960 . S
C2680 H2672 0.929 . S
C2680 C2681 1.377 . S
C2680 C2682 1.384 . S
C2681 C2680 1.377 . S
C2681 C2687 1.390 . S
C2682 H2673 0.930 . S
C2682 C2680 1.384 . S
C2682 C2683 1.372 . S
C2683 C2682 1.372 . S
C2683 C2684 1.400 . S
C2683 C2688 1.490 . S
C2684 H2674 0.930 . S
C2684 C2683 1.400 . S
C2684 C2687 1.386 . S
H2685 C2701 0.930 . S
H2686 C2702 0.931 . S
C2687 H2675 0.929 . S
C2687 C2681 1.390 . S
C2687 C2684 1.386 . S
C2688 C2683 1.490 . S
C2688 C2690 1.395 . S
C2688 C2691 1.403 . S
H2689 C2695 0.930 . S
C2690 H2676 0.930 . S
C2690 C2688 1.395 . S
C2690 C2693 1.403 . S
C2691 C2688 1.403 . S
C2691 C2692 1.524 . S
C2691 C2695 1.400 . S
C2692 H2677 0.960 . S
C2692 H2678 0.960 . S
C2692 H2679 0.960 . S
C2692 C2691 1.524 . S
C2693 C2690 1.403 . S
C2693 C2694 1.392 . S
C2693 C2697 1.495 . S
C2694 C2693 1.392 . S
C2694 C2695 1.385 . S
C2694 C2696 1.478 . S
C2695 H2689 0.930 . S
C2695 C2691 1.400 . S
C2695 C2694 1.385 . S
C2696 C2694 1.478 . S
C2696 C2698 1.381 . S
C2696 C2702 1.383 . S
C2697 C2693 1.495 . S
C2697 H2703 0.959 . S
C2697 H2704 0.961 . S
C2697 H2705 0.960 . S
C2698 C2696 1.381 . S
C2698 C2699 1.394 . S
C2698 H2706 0.930 . S
C2699 C2698 1.394 . S
C2699 C2700 1.383 . S
C2699 H2707 0.929 . S
C2700 C2699 1.383 . S
C2700 C2701 1.377 . S
C2701 H2685 0.930 . S
C2701 C2700 1.377 . S
C2701 C2702 1.379 . S
C2702 H2686 0.931 . S
C2702 C2696 1.383 . S
C2702 C2701 1.379 . S
H2703 C2697 0.959 . S
H2704 C2697 0.961 . S
H2705 C2697 0.960 . S
H2706 C2698 0.930 . S
H2707 C2699 0.929 . S
H2708 C2716 0.929 . S
H2709 C2718 0.930 . S
H2710 C2720 0.930 . S
H2711 C2723 0.929 . S
H2712 C2726 0.930 . S
H2713 C2728 0.960 . S
H2714 C2728 0.960 . S
H2715 C2728 0.960 . S
C2716 H2708 0.929 . S
C2716 C2717 1.377 . S
C2716 C2718 1.384 . S
C2717 C2716 1.377 . S
C2717 C2723 1.390 . S
C2718 H2709 0.930 . S
C2718 C2716 1.384 . S
C2718 C2719 1.372 . S
C2719 C2718 1.372 . S
C2719 C2720 1.400 . S
C2719 C2724 1.490 . S
C2720 H2710 0.930 . S
C2720 C2719 1.400 . S
C2720 C2723 1.386 . S
H2721 C2737 0.930 . S
H2722 C2738 0.931 . S
C2723 H2711 0.929 . S
C2723 C2717 1.390 . S
C2723 C2720 1.386 . S
C2724 C2719 1.490 . S
C2724 C2726 1.395 . S
C2724 C2727 1.403 . S
H2725 C2731 0.930 . S
C2726 H2712 0.930 . S
C2726 C2724 1.395 . S
C2726 C2729 1.403 . S
C2727 C2724 1.403 . S
C2727 C2728 1.524 . S
C2727 C2731 1.400 . S
C2728 H2713 0.960 . S
C2728 H2714 0.960 . S
C2728 H2715 0.960 . S
C2728 C2727 1.524 . S
C2729 C2726 1.403 . S
C2729 C2730 1.392 . S
C2729 C2733 1.495 . S
C2730 C2729 1.392 . S
C2730 C2731 1.385 . S
C2730 C2732 1.478 . S
C2731 H2725 0.930 . S
C2731 C2727 1.400 . S
C2731 C2730 1.385 . S
C2732 C2730 1.478 . S
C2732 C2734 1.381 . S
C2732 C2738 1.383 . S
C2733 C2729 1.495 . S
C2733 H2739 0.959 . S
C2733 H2740 0.961 . S
C2733 H2741 0.960 . S
C2734 C2732 1.381 . S
C2734 C2735 1.394 . S
C2734 H2742 0.930 . S
C2735 C2734 1.394 . S
C2735 C2736 1.383 . S
C2735 H2743 0.929 . S
C2736 C2735 1.383 . S
C2736 C2737 1.377 . S
C2737 H2721 0.930 . S
C2737 C2736 1.377 . S
C2737 C2738 1.379 . S
C2738 H2722 0.931 . S
C2738 C2732 1.383 . S
C2738 C2737 1.379 . S
H2739 C2733 0.959 . S
H2740 C2733 0.961 . S
H2741 C2733 0.960 . S
H2742 C2734 0.930 . S
H2743 C2735 0.929 . S
H2744 C2752 0.929 . S
H2745 C2754 0.930 . S
H2746 C2756 0.930 . S
H2747 C2759 0.929 . S
H2748 C2762 0.930 . S
H2749 C2764 0.960 . S
H2750 C2764 0.960 . S
H2751 C2764 0.960 . S
C2752 H2744 0.929 . S
C2752 C2753 1.377 . S
C2752 C2754 1.384 . S
C2753 C2752 1.377 . S
C2753 C2759 1.390 . S
C2754 H2745 0.930 . S
C2754 C2752 1.384 . S
C2754 C2755 1.372 . S
C2755 C2754 1.372 . S
C2755 C2756 1.400 . S
C2755 C2760 1.490 . S
C2756 H2746 0.930 . S
C2756 C2755 1.400 . S
C2756 C2759 1.386 . S
H2757 C2773 0.930 . S
H2758 C2774 0.931 . S
C2759 H2747 0.929 . S
C2759 C2753 1.390 . S
C2759 C2756 1.386 . S
C2760 C2755 1.490 . S
C2760 C2762 1.395 . S
C2760 C2763 1.403 . S
H2761 C2767 0.930 . S
C2762 H2748 0.930 . S
C2762 C2760 1.395 . S
C2762 C2765 1.403 . S
C2763 C2760 1.403 . S
C2763 C2764 1.524 . S
C2763 C2767 1.400 . S
C2764 H2749 0.960 . S
C2764 H2750 0.960 . S
C2764 H2751 0.960 . S
C2764 C2763 1.524 . S
C2765 C2762 1.403 . S
C2765 C2766 1.392 . S
C2765 C2769 1.495 . S
C2766 C2765 1.392 . S
C2766 C2767 1.385 . S
C2766 C2768 1.478 . S
C2767 H2761 0.930 . S
C2767 C2763 1.400 . S
C2767 C2766 1.385 . S
C2768 C2766 1.478 . S
C2768 C2770 1.381 . S
C2768 C2774 1.383 . S
C2769 C2765 1.495 . S
C2769 H2775 0.959 . S
C2769 H2776 0.961 . S
C2769 H2777 0.960 . S
C2770 C2768 1.381 . S
C2770 C2771 1.394 . S
C2770 H2778 0.930 . S
C2771 C2770 1.394 . S
C2771 C2772 1.383 . S
C2771 H2779 0.939 . S
C2772 C2771 1.383 . S
C2772 C2773 1.377 . S
C2773 H2757 0.930 . S
C2773 C2772 1.377 . S
C2773 C2774 1.379 . S
C2774 H2758 0.931 . S
C2774 C2768 1.383 . S
C2774 C2773 1.379 . S
H2775 C2769 0.959 . S
H2776 C2769 0.961 . S
H2777 C2769 0.960 . S
H2778 C2770 0.930 . S
H2779 C2771 0.939 . S
H2780 C2788 0.929 . S
H2781 C2790 0.930 . S
H2782 C2792 0.930 . S
H2783 C2795 0.929 . S
H2784 C2798 0.930 . S
H2785 C2800 0.960 . S
H2786 C2800 0.960 . S
H2787 C2800 0.960 . S
C2788 H2780 0.929 . S
C2788 C2789 1.377 . S
C2788 C2790 1.384 . S
C2789 C2788 1.377 . S
C2789 C2795 1.390 . S
C2790 H2781 0.930 . S
C2790 C2788 1.384 . S
C2790 C2791 1.372 . S
C2791 C2790 1.372 . S
C2791 C2792 1.400 . S
C2791 C2796 1.490 . S
C2792 H2782 0.930 . S
C2792 C2791 1.400 . S
C2792 C2795 1.386 . S
H2793 C2809 0.930 . S
H2794 C2810 0.931 . S
C2795 H2783 0.929 . S
C2795 C2789 1.390 . S
C2795 C2792 1.386 . S
C2796 C2791 1.490 . S
C2796 C2798 1.395 . S
C2796 C2799 1.403 . S
H2797 C2803 0.930 . S
C2798 H2784 0.930 . S
C2798 C2796 1.395 . S
C2798 C2801 1.403 . S
C2799 C2796 1.403 . S
C2799 C2800 1.524 . S
C2799 C2803 1.400 . S
C2800 H2785 0.960 . S
C2800 H2786 0.960 . S
C2800 H2787 0.960 . S
C2800 C2799 1.524 . S
C2801 C2798 1.403 . S
C2801 C2802 1.392 . S
C2801 C2805 1.495 . S
C2802 C2801 1.392 . S
C2802 C2803 1.385 . S
C2802 C2804 1.478 . S
C2803 H2797 0.930 . S
C2803 C2799 1.400 . S
C2803 C2802 1.385 . S
C2804 C2802 1.478 . S
C2804 C2806 1.381 . S
C2804 C2810 1.383 . S
C2805 C2801 1.495 . S
C2805 H2811 0.959 . S
C2805 H2812 0.961 . S
C2805 H2813 0.960 . S
C2806 C2804 1.381 . S
C2806 C2807 1.394 . S
C2806 H2814 0.930 . S
C2807 C2806 1.394 . S
C2807 C2808 1.383 . S
C2807 H2815 0.929 . S
C2808 C2807 1.383 . S
C2808 C2809 1.377 . S
C2809 H2793 0.930 . S
C2809 C2808 1.377 . S
C2809 C2810 1.379 . S
C2810 H2794 0.931 . S
C2810 C2804 1.383 . S
C2810 C2809 1.379 . S
H2811 C2805 0.959 . S
H2812 C2805 0.961 . S
H2813 C2805 0.960 . S
H2814 C2806 0.930 . S
H2815 C2807 0.929 . S
H2816 C2824 0.929 . S
H2817 C2826 0.930 . S
H2818 C2828 0.930 . S
H2819 C2831 0.929 . S
H2820 C2834 0.930 . S
H2821 C2836 0.960 . S
H2822 C2836 0.960 . S
H2823 C2836 0.960 . S
C2824 H2816 0.929 . S
C2824 C2825 1.377 . S
C2824 C2826 1.384 . S
C2825 C2824 1.377 . S
C2825 C2831 1.390 . S
C2826 H2817 0.930 . S
C2826 C2824 1.384 . S
C2826 C2827 1.372 . S
C2827 C2826 1.372 . S
C2827 C2828 1.400 . S
C2827 C2832 1.490 . S
C2828 H2818 0.930 . S
C2828 C2827 1.400 . S
C2828 C2831 1.386 . S
H2829 C2845 0.930 . S
H2830 C2846 0.931 . S
C2831 H2819 0.929 . S
C2831 C2825 1.390 . S
C2831 C2828 1.386 . S
C2832 C2827 1.490 . S
C2832 C2834 1.395 . S
C2832 C2835 1.403 . S
H2833 C2839 0.930 . S
C2834 H2820 0.930 . S
C2834 C2832 1.395 . S
C2834 C2837 1.403 . S
C2835 C2832 1.403 . S
C2835 C2836 1.524 . S
C2835 C2839 1.400 . S
C2836 H2821 0.960 . S
C2836 H2822 0.960 . S
C2836 H2823 0.960 . S
C2836 C2835 1.524 . S
C2837 C2834 1.403 . S
C2837 C2838 1.392 . S
C2837 C2841 1.495 . S
C2838 C2837 1.392 . S
C2838 C2839 1.385 . S
C2838 C2840 1.478 . S
C2839 H2833 0.930 . S
C2839 C2835 1.400 . S
C2839 C2838 1.385 . S
C2840 C2838 1.478 . S
C2840 C2842 1.381 . S
C2840 C2846 1.383 . S
C2841 C2837 1.495 . S
C2841 H2847 0.959 . S
C2841 H2848 0.961 . S
C2841 H2849 0.960 . S
C2842 C2840 1.381 . S
C2842 C2843 1.394 . S
C2842 H2850 0.930 . S
C2843 C2842 1.394 . S
C2843 C2844 1.383 . S
C2843 H2851 0.929 . S
C2844 C2843 1.383 . S
C2844 C2845 1.377 . S
C2845 H2829 0.930 . S
C2845 C2844 1.377 . S
C2845 C2846 1.379 . S
C2846 H2830 0.931 . S
C2846 C2840 1.383 . S
C2846 C2845 1.379 . S
H2847 C2841 0.959 . S
H2848 C2841 0.961 . S
H2849 C2841 0.960 . S
H2850 C2842 0.930 . S
H2851 C2843 0.929 . S
H2852 C2860 0.929 . S
H2853 C2862 0.930 . S
H2854 C2864 0.930 . S
H2855 C2867 0.929 . S
H2856 C2870 0.930 . S
H2857 C2872 0.960 . S
H2858 C2872 0.960 . S
H2859 C2872 0.960 . S
C2860 H2852 0.929 . S
C2860 C2861 1.377 . S
C2860 C2862 1.384 . S
C2861 C2860 1.377 . S
C2861 C2867 1.390 . S
C2862 H2853 0.930 . S
C2862 C2860 1.384 . S
C2862 C2863 1.372 . S
C2863 C2862 1.372 . S
C2863 C2864 1.400 . S
C2863 C2868 1.490 . S
C2864 H2854 0.930 . S
C2864 C2863 1.400 . S
C2864 C2867 1.386 . S
H2865 C2881 0.930 . S
H2866 C2882 0.931 . S
C2867 H2855 0.929 . S
C2867 C2861 1.390 . S
C2867 C2864 1.386 . S
C2868 C2863 1.490 . S
C2868 C2870 1.395 . S
C2868 C2871 1.403 . S
H2869 C2875 0.930 . S
C2870 H2856 0.930 . S
C2870 C2868 1.395 . S
C2870 C2873 1.403 . S
C2871 C2868 1.403 . S
C2871 C2872 1.524 . S
C2871 C2875 1.400 . S
C2872 H2857 0.960 . S
C2872 H2858 0.960 . S
C2872 H2859 0.960 . S
C2872 C2871 1.524 . S
C2873 C2870 1.403 . S
C2873 C2874 1.392 . S
C2873 C2877 1.495 . S
C2874 C2873 1.392 . S
C2874 C2875 1.385 . S
C2874 C2876 1.478 . S
C2875 H2869 0.930 . S
C2875 C2871 1.400 . S
C2875 C2874 1.385 . S
C2876 C2874 1.478 . S
C2876 C2878 1.381 . S
C2876 C2882 1.383 . S
C2877 C2873 1.495 . S
C2877 H2883 0.959 . S
C2877 H2884 0.961 . S
C2877 H2885 0.960 . S
C2878 C2876 1.381 . S
C2878 C2879 1.394 . S
C2878 H2886 0.930 . S
C2879 C2878 1.394 . S
C2879 C2880 1.383 . S
C2879 H2887 0.929 . S
C2880 C2879 1.383 . S
C2880 C2881 1.377 . S
C2881 H2865 0.930 . S
C2881 C2880 1.377 . S
C2881 C2882 1.379 . S
C2882 H2866 0.931 . S
C2882 C2876 1.383 . S
C2882 C2881 1.379 . S
H2883 C2877 0.959 . S
H2884 C2877 0.961 . S
H2885 C2877 0.960 . S
H2886 C2878 0.930 . S
H2887 C2879 0.929 . S
H2888 C2896 0.929 . S
H2889 C2898 0.930 . S
H2890 C2900 0.930 . S
H2891 C2903 0.929 . S
H2892 C2906 0.930 . S
H2893 C2908 0.960 . S
H2894 C2908 0.960 . S
H2895 C2908 0.960 . S
C2896 H2888 0.929 . S
C2896 C2897 1.377 . S
C2896 C2898 1.384 . S
C2897 C2896 1.377 . S
C2897 C2903 1.390 . S
C2898 H2889 0.930 . S
C2898 C2896 1.384 . S
C2898 C2899 1.372 . S
C2899 C2898 1.372 . S
C2899 C2900 1.400 . S
C2899 C2904 1.490 . S
C2900 H2890 0.930 . S
C2900 C2899 1.400 . S
C2900 C2903 1.386 . S
H2901 C2917 0.930 . S
H2902 C2918 0.931 . S
C2903 H2891 0.929 . S
C2903 C2897 1.390 . S
C2903 C2900 1.386 . S
C2904 C2899 1.490 . S
C2904 C2906 1.395 . S
C2904 C2907 1.403 . S
H2905 C2911 0.930 . S
C2906 H2892 0.930 . S
C2906 C2904 1.395 . S
C2906 C2909 1.403 . S
C2907 C2904 1.403 . S
C2907 C2908 1.524 . S
C2907 C2911 1.400 . S
C2908 H2893 0.960 . S
C2908 H2894 0.960 . S
C2908 H2895 0.960 . S
C2908 C2907 1.524 . S
C2909 C2906 1.403 . S
C2909 C2910 1.392 . S
C2909 C2913 1.495 . S
C2910 C2909 1.392 . S
C2910 C2911 1.385 . S
C2910 C2912 1.478 . S
C2911 H2905 0.930 . S
C2911 C2907 1.400 . S
C2911 C2910 1.385 . S
C2912 C2910 1.478 . S
C2912 C2914 1.381 . S
C2912 C2918 1.383 . S
C2913 C2909 1.495 . S
C2913 H2919 0.959 . S
C2913 H2920 0.961 . S
C2913 H2921 0.960 . S
C2914 C2912 1.381 . S
C2914 C2915 1.394 . S
C2914 H2922 0.930 . S
C2915 C2914 1.394 . S
C2915 C2916 1.383 . S
C2915 H2923 0.929 . S
C2916 C2915 1.383 . S
C2916 C2917 1.377 . S
C2917 H2901 0.930 . S
C2917 C2916 1.377 . S
C2917 C2918 1.379 . S
C2918 H2902 0.931 . S
C2918 C2912 1.383 . S
C2918 C2917 1.379 . S
H2919 C2913 0.959 . S
H2920 C2913 0.961 . S
H2921 C2913 0.960 . S
H2922 C2914 0.930 . S
H2923 C2915 0.929 . S
H2924 C2932 0.929 . S
H2925 C2934 0.930 . S
H2926 C2936 0.930 . S
H2927 C2939 0.929 . S
H2928 C2942 0.930 . S
H2929 C2944 0.960 . S
H2930 C2944 0.960 . S
H2931 C2944 0.960 . S
C2932 H2924 0.929 . S
C2932 C2933 1.377 . S
C2932 C2934 1.384 . S
C2933 C2932 1.377 . S
C2933 C2939 1.390 . S
C2934 H2925 0.930 . S
C2934 C2932 1.384 . S
C2934 C2935 1.372 . S
C2935 C2934 1.372 . S
C2935 C2936 1.400 . S
C2935 C2940 1.490 . S
C2936 H2926 0.930 . S
C2936 C2935 1.400 . S
C2936 C2939 1.386 . S
H2937 C2953 0.930 . S
H2938 C2954 0.931 . S
C2939 H2927 0.929 . S
C2939 C2933 1.390 . S
C2939 C2936 1.386 . S
C2940 C2935 1.490 . S
C2940 C2942 1.395 . S
C2940 C2943 1.403 . S
H2941 C2947 0.930 . S
C2942 H2928 0.930 . S
C2942 C2940 1.395 . S
C2942 C2945 1.403 . S
C2943 C2940 1.403 . S
C2943 C2944 1.524 . S
C2943 C2947 1.400 . S
C2944 H2929 0.960 . S
C2944 H2930 0.960 . S
C2944 H2931 0.960 . S
C2944 C2943 1.524 . S
C2945 C2942 1.403 . S
C2945 C2946 1.392 . S
C2945 C2949 1.495 . S
C2946 C2945 1.392 . S
C2946 C2947 1.385 . S
C2946 C2948 1.478 . S
C2947 H2941 0.930 . S
C2947 C2943 1.400 . S
C2947 C2946 1.385 . S
C2948 C2946 1.478 . S
C2948 C2950 1.381 . S
C2948 C2954 1.383 . S
C2949 C2945 1.495 . S
C2949 H2955 0.959 . S
C2949 H2956 0.961 . S
C2949 H2957 0.960 . S
C2950 C2948 1.381 . S
C2950 C2951 1.394 . S
C2950 H2958 0.930 . S
C2951 C2950 1.394 . S
C2951 C2952 1.383 . S
C2951 H2959 0.929 . S
C2952 C2951 1.383 . S
C2952 C2953 1.377 . S
C2953 H2937 0.930 . S
C2953 C2952 1.377 . S
C2953 C2954 1.379 . S
C2954 H2938 0.931 . S
C2954 C2948 1.383 . S
C2954 C2953 1.379 . S
H2955 C2949 0.959 . S
H2956 C2949 0.961 . S
H2957 C2949 0.960 . S
H2958 C2950 0.930 . S
H2959 C2951 0.929 . S
H2960 C2968 0.929 . S
H2961 C2970 0.930 . S
H2962 C2972 0.930 . S
H2963 C2975 0.929 . S
H2964 C2978 0.930 . S
H2965 C2980 0.960 . S
H2966 C2980 0.960 . S
H2967 C2980 0.960 . S
C2968 H2960 0.929 . S
C2968 C2969 1.377 . S
C2968 C2970 1.384 . S
C2969 C2968 1.377 . S
C2969 C2975 1.390 . S
C2970 H2961 0.930 . S
C2970 C2968 1.384 . S
C2970 C2971 1.372 . S
C2971 C2970 1.372 . S
C2971 C2972 1.400 . S
C2971 C2976 1.490 . S
C2972 H2962 0.930 . S
C2972 C2971 1.400 . S
C2972 C2975 1.386 . S
H2973 C2989 0.930 . S
H2974 C2990 0.931 . S
C2975 H2963 0.929 . S
C2975 C2969 1.390 . S
C2975 C2972 1.386 . S
C2976 C2971 1.490 . S
C2976 C2978 1.395 . S
C2976 C2979 1.403 . S
H2977 C2983 0.930 . S
C2978 H2964 0.930 . S
C2978 C2976 1.395 . S
C2978 C2981 1.403 . S
C2979 C2976 1.403 . S
C2979 C2980 1.524 . S
C2979 C2983 1.400 . S
C2980 H2965 0.960 . S
C2980 H2966 0.960 . S
C2980 H2967 0.960 . S
C2980 C2979 1.524 . S
C2981 C2978 1.403 . S
C2981 C2982 1.392 . S
C2981 C2985 1.495 . S
C2982 C2981 1.392 . S
C2982 C2983 1.385 . S
C2982 C2984 1.478 . S
C2983 H2977 0.930 . S
C2983 C2979 1.400 . S
C2983 C2982 1.385 . S
C2984 C2982 1.478 . S
C2984 C2986 1.381 . S
C2984 C2990 1.383 . S
C2985 C2981 1.495 . S
C2985 H2991 0.959 . S
C2985 H2992 0.961 . S
C2985 H2993 0.960 . S
C2986 C2984 1.381 . S
C2986 C2987 1.394 . S
C2986 H2994 0.930 . S
C2987 C2986 1.394 . S
C2987 C2988 1.383 . S
C2987 H2995 0.929 . S
C2988 C2987 1.383 . S
C2988 C2989 1.377 . S
C2989 H2973 0.930 . S
C2989 C2988 1.377 . S
C2989 C2990 1.379 . S
C2990 H2974 0.931 . S
C2990 C2984 1.383 . S
C2990 C2989 1.379 . S
H2991 C2985 0.959 . S
H2992 C2985 0.961 . S
H2993 C2985 0.960 . S
H2994 C2986 0.930 . S
H2995 C2987 0.929 . S
H2996 C3004 0.929 . S
H2997 C3006 0.930 . S
H2998 C3008 0.930 . S
H2999 C3011 0.929 . S
H3000 C3014 0.930 . S
H3001 C3016 0.960 . S
H3002 C3016 0.960 . S
H3003 C3016 0.960 . S
C3004 H2996 0.929 . S
C3004 C3005 1.377 . S
C3004 C3006 1.384 . S
C3005 C3004 1.377 . S
C3005 C3011 1.390 . S
C3006 H2997 0.930 . S
C3006 C3004 1.384 . S
C3006 C3007 1.372 . S
C3007 C3006 1.372 . S
C3007 C3008 1.400 . S
C3007 C3012 1.490 . S
C3008 H2998 0.930 . S
C3008 C3007 1.400 . S
C3008 C3011 1.386 . S
H3009 C3025 0.930 . S
H3010 C3026 0.931 . S
C3011 H2999 0.929 . S
C3011 C3005 1.390 . S
C3011 C3008 1.386 . S
C3012 C3007 1.490 . S
C3012 C3014 1.395 . S
C3012 C3015 1.403 . S
H3013 C3019 0.930 . S
C3014 H3000 0.930 . S
C3014 C3012 1.395 . S
C3014 C3017 1.403 . S
C3015 C3012 1.403 . S
C3015 C3016 1.524 . S
C3015 C3019 1.400 . S
C3016 H3001 0.960 . S
C3016 H3002 0.960 . S
C3016 H3003 0.960 . S
C3016 C3015 1.524 . S
C3017 C3014 1.403 . S
C3017 C3018 1.392 . S
C3017 C3021 1.495 . S
C3018 C3017 1.392 . S
C3018 C3019 1.385 . S
C3018 C3020 1.478 . S
C3019 H3013 0.930 . S
C3019 C3015 1.400 . S
C3019 C3018 1.385 . S
C3020 C3018 1.478 . S
C3020 C3022 1.381 . S
C3020 C3026 1.383 . S
C3021 C3017 1.495 . S
C3021 H3027 0.959 . S
C3021 H3028 0.961 . S
C3021 H3029 0.960 . S
C3022 C3020 1.381 . S
C3022 C3023 1.394 . S
C3022 H3030 0.930 . S
C3023 C3022 1.394 . S
C3023 C3024 1.383 . S
C3023 H3031 0.929 . S
C3024 C3023 1.383 . S
C3024 C3025 1.377 . S
C3025 H3009 0.930 . S
C3025 C3024 1.377 . S
C3025 C3026 1.379 . S
C3026 H3010 0.931 . S
C3026 C3020 1.383 . S
C3026 C3025 1.379 . S
H3027 C3021 0.959 . S
H3028 C3021 0.961 . S
H3029 C3021 0.960 . S
H3030 C3022 0.930 . S
H3031 C3023 0.929 . S
H3032 C3040 0.929 . S
H3033 C3042 0.930 . S
H3034 C3044 0.930 . S
H3035 C3047 0.929 . S
H3036 C3050 0.930 . S
H3037 C3052 0.960 . S
H3038 C3052 0.960 . S
H3039 C3052 0.960 . S
C3040 H3032 0.929 . S
C3040 C3041 1.377 . S
C3040 C3042 1.384 . S
C3041 C3040 1.377 . S
C3041 C3047 1.390 . S
C3042 H3033 0.930 . S
C3042 C3040 1.384 . S
C3042 C3043 1.372 . S
C3043 C3042 1.372 . S
C3043 C3044 1.400 . S
C3043 C3048 1.490 . S
C3044 H3034 0.930 . S
C3044 C3043 1.400 . S
C3044 C3047 1.386 . S
H3045 C3061 0.930 . S
H3046 C3062 0.931 . S
C3047 H3035 0.929 . S
C3047 C3041 1.390 . S
C3047 C3044 1.386 . S
C3048 C3043 1.490 . S
C3048 C3050 1.395 . S
C3048 C3051 1.403 . S
H3049 C3055 0.930 . S
C3050 H3036 0.930 . S
C3050 C3048 1.395 . S
C3050 C3053 1.403 . S
C3051 C3048 1.403 . S
C3051 C3052 1.524 . S
C3051 C3055 1.400 . S
C3052 H3037 0.960 . S
C3052 H3038 0.960 . S
C3052 H3039 0.960 . S
C3052 C3051 1.524 . S
C3053 C3050 1.403 . S
C3053 C3054 1.392 . S
C3053 C3057 1.495 . S
C3054 C3053 1.392 . S
C3054 C3055 1.385 . S
C3054 C3056 1.478 . S
C3055 H3049 0.930 . S
C3055 C3051 1.400 . S
C3055 C3054 1.385 . S
C3056 C3054 1.478 . S
C3056 C3058 1.381 . S
C3056 C3062 1.383 . S
C3057 C3053 1.495 . S
C3057 H3063 0.959 . S
C3057 H3064 0.961 . S
C3057 H3065 0.960 . S
C3058 C3056 1.381 . S
C3058 C3059 1.394 . S
C3058 H3066 0.930 . S
C3059 C3058 1.394 . S
C3059 C3060 1.383 . S
C3059 H3067 0.929 . S
C3060 C3059 1.383 . S
C3060 C3061 1.377 . S
C3061 H3045 0.930 . S
C3061 C3060 1.377 . S
C3061 C3062 1.379 . S
C3062 H3046 0.931 . S
C3062 C3056 1.383 . S
C3062 C3061 1.379 . S
H3063 C3057 0.959 . S
H3064 C3057 0.961 . S
H3065 C3057 0.960 . S
H3066 C3058 0.930 . S
H3067 C3059 0.929 . S
H3068 C3076 0.929 . S
H3069 C3078 0.972 . S
H3070 C3080 0.930 . S
H3071 C3083 0.929 . S
H3072 C3086 0.930 . S
H3073 C3088 0.960 . S
H3074 C3088 0.960 . S
H3075 C3088 0.960 . S
C3076 H3068 0.929 . S
C3076 C3077 1.377 . S
C3076 C3078 1.384 . S
C3077 C3076 1.377 . S
C3077 C3083 1.390 . S
C3078 H3069 0.972 . S
C3078 C3076 1.384 . S
C3078 C3079 1.372 . S
C3079 C3078 1.372 . S
C3079 C3080 1.400 . S
C3079 C3084 1.490 . S
C3080 H3070 0.930 . S
C3080 C3079 1.400 . S
C3080 C3083 1.386 . S
H3081 C3097 0.930 . S
H3082 C3098 0.931 . S
C3083 H3071 0.929 . S
C3083 C3077 1.390 . S
C3083 C3080 1.386 . S
C3084 C3079 1.490 . S
C3084 C3086 1.395 . S
C3084 C3087 1.403 . S
H3085 C3091 0.930 . S
C3086 H3072 0.930 . S
C3086 C3084 1.395 . S
C3086 C3089 1.403 . S
C3087 C3084 1.403 . S
C3087 C3088 1.524 . S
C3087 C3091 1.400 . S
C3088 H3073 0.960 . S
C3088 H3074 0.960 . S
C3088 H3075 0.960 . S
C3088 C3087 1.524 . S
C3089 C3086 1.403 . S
C3089 C3090 1.392 . S
C3089 C3093 1.495 1_565 S
C3090 C3089 1.392 . S
C3090 C3091 1.385 . S
C3090 C3092 1.478 . S
C3091 H3085 0.930 . S
C3091 C3087 1.400 . S
C3091 C3090 1.385 . S
C3092 C3090 1.478 . S
C3092 C3094 1.372 1_565 S
C3092 C3098 1.383 . S
C3093 C3089 1.495 1_545 S
C3093 H3099 0.959 . S
C3093 H3100 0.961 . S
C3093 H3101 0.960 . S
C3094 C3092 1.372 1_545 S
C3094 C3095 1.401 . S
C3094 H3102 0.934 1_544 S
C3095 C3094 1.401 . S
C3095 C3096 1.383 . S
C3095 H3103 0.929 1_554 S
C3096 C3095 1.383 . S
C3096 C3097 1.377 . S
C3097 H3081 0.930 . S
C3097 C3096 1.377 . S
C3097 C3098 1.379 1_545 S
C3098 H3082 0.931 . S
C3098 C3092 1.383 . S
C3098 C3097 1.379 1_565 S
H3099 C3093 0.959 . S
H3100 C3093 0.961 . S
H3101 C3093 0.960 . S
H3102 C3094 0.934 1_566 S
H3103 C3095 0.929 1_556 S
H3104 C3112 0.929 . S
H3105 C3114 0.930 . S
H3106 C3116 0.930 . S
H3107 C3119 0.929 . S
H3108 C3122 0.930 . S
H3109 C3124 0.960 . S
H3110 C3124 0.960 . S
H3111 C3124 0.960 . S
C3112 H3104 0.929 . S
C3112 C3113 1.377 . S
C3112 C3114 1.384 . S
C3113 C3112 1.377 . S
C3113 C3119 1.390 . S
C3114 H3105 0.930 . S
C3114 C3112 1.384 . S
C3114 C3115 1.372 . S
C3115 C3114 1.372 . S
C3115 C3116 1.400 . S
C3115 C3120 1.490 . S
C3116 H3106 0.930 . S
C3116 C3115 1.400 . S
C3116 C3119 1.386 . S
H3117 C3133 0.930 . S
H3118 C3134 0.931 . S
C3119 H3107 0.929 . S
C3119 C3113 1.390 . S
C3119 C3116 1.386 . S
C3120 C3115 1.490 . S
C3120 C3122 1.395 . S
C3120 C3123 1.403 . S
H3121 C3127 0.930 . S
C3122 H3108 0.930 . S
C3122 C3120 1.395 . S
C3122 C3125 1.403 . S
C3123 C3120 1.403 . S
C3123 C3124 1.524 . S
C3123 C3127 1.400 . S
C3124 H3109 0.960 . S
C3124 H3110 0.960 . S
C3124 H3111 0.960 . S
C3124 C3123 1.524 . S
C3125 C3122 1.403 . S
C3125 C3126 1.392 . S
C3125 C3129 1.495 . S
C3126 C3125 1.392 . S
C3126 C3127 1.385 . S
C3126 C3128 1.478 . S
C3127 H3121 0.930 . S
C3127 C3123 1.400 . S
C3127 C3126 1.385 . S
C3128 C3126 1.478 . S
C3128 C3130 1.381 . S
C3128 C3134 1.383 . S
C3129 C3125 1.495 . S
C3129 H3135 0.959 . S
C3129 H3136 0.961 . S
C3129 H3137 0.960 . S
C3130 C3128 1.381 . S
C3130 C3131 1.394 . S
C3130 H3138 0.930 . S
C3131 C3130 1.394 . S
C3131 C3132 1.383 . S
C3131 H3139 0.929 . S
C3132 C3131 1.383 . S
C3132 C3133 1.377 . S
C3133 H3117 0.930 . S
C3133 C3132 1.377 . S
C3133 C3134 1.379 . S
C3134 H3118 0.931 . S
C3134 C3128 1.383 . S
C3134 C3133 1.379 . S
H3135 C3129 0.959 . S
H3136 C3129 0.961 . S
H3137 C3129 0.960 . S
H3138 C3130 0.930 . S
H3139 C3131 0.929 . S
H3140 C3148 0.929 . S
H3141 C3150 0.930 . S
H3142 C3152 0.930 . S
H3143 C3155 0.929 . S
H3144 C3158 0.930 . S
H3145 C3160 0.960 . S
H3146 C3160 0.960 . S
H3147 C3160 0.960 . S
C3148 H3140 0.929 . S
C3148 C3149 1.377 . S
C3148 C3150 1.384 . S
C3149 C3148 1.377 . S
C3149 C3155 1.390 1_554 S
C3150 H3141 0.930 . S
C3150 C3148 1.384 . S
C3150 C3151 1.372 . S
C3151 C3150 1.372 . S
C3151 C3152 1.400 1_554 S
C3151 C3156 1.490 . S
C3152 H3142 0.930 . S
C3152 C3151 1.400 1_556 S
C3152 C3155 1.386 . S
H3153 C3169 0.930 . S
H3154 C3170 0.931 1_556 S
C3155 H3143 0.929 . S
C3155 C3149 1.390 1_556 S
C3155 C3152 1.386 . S
C3156 C3151 1.490 . S
C3156 C3158 1.395 . S
C3156 C3159 1.403 . S
H3157 C3163 0.930 . S
C3158 H3144 0.930 . S
C3158 C3156 1.395 . S
C3158 C3161 1.403 . S
C3159 C3156 1.403 . S
C3159 C3160 1.524 . S
C3159 C3163 1.400 . S
C3160 H3145 0.960 . S
C3160 H3146 0.960 . S
C3160 H3147 0.960 . S
C3160 C3159 1.524 . S
C3161 C3158 1.403 . S
C3161 C3162 1.392 . S
C3161 C3165 1.495 . S
C3162 C3161 1.392 . S
C3162 C3163 1.385 . S
C3162 C3164 1.478 . S
C3163 H3157 0.930 . S
C3163 C3159 1.400 . S
C3163 C3162 1.385 . S
C3164 C3162 1.478 . S
C3164 C3166 1.381 . S
C3164 C3170 1.383 . S
C3165 C3161 1.495 . S
C3165 H3171 0.959 . S
C3165 H3172 0.961 . S
C3165 H3173 0.960 . S
C3166 C3164 1.381 . S
C3166 C3167 1.394 . S
C3166 H3174 0.930 . S
C3167 C3166 1.394 . S
C3167 C3168 1.383 . S
C3167 H3175 0.929 . S
C3168 C3167 1.383 . S
C3168 C3169 1.377 . S
C3169 H3153 0.930 . S
C3169 C3168 1.377 . S
C3169 C3170 1.379 . S
C3170 H3154 0.931 1_554 S
C3170 C3164 1.383 . S
C3170 C3169 1.379 . S
H3171 C3165 0.959 . S
H3172 C3165 0.961 . S
H3173 C3165 0.960 . S
H3174 C3166 0.930 . S
H3175 C3167 0.929 . S
H3176 C3184 0.929 . S
H3177 C3186 0.930 . S
H3178 C3188 0.930 . S
H3179 C3191 0.929 . S
H3180 C3194 0.930 . S
H3181 C3196 0.960 . S
H3182 C3196 0.960 . S
H3183 C3196 0.960 . S
C3184 H3176 0.929 . S
C3184 C3185 1.377 . S
C3184 C3186 1.384 . S
C3185 C3184 1.377 . S
C3185 C3191 1.390 . S
C3186 H3177 0.930 . S
C3186 C3184 1.384 . S
C3186 C3187 1.372 . S
C3187 C3186 1.372 . S
C3187 C3188 1.400 . S
C3187 C3192 1.490 . S
C3188 H3178 0.930 . S
C3188 C3187 1.400 . S
C3188 C3191 1.386 . S
H3189 C3205 0.930 . S
H3190 C3206 0.931 . S
C3191 H3179 0.929 . S
C3191 C3185 1.390 . S
C3191 C3188 1.386 . S
C3192 C3187 1.490 . S
C3192 C3194 1.395 . S
C3192 C3195 1.403 . S
H3193 C3199 0.930 . S
C3194 H3180 0.930 . S
C3194 C3192 1.395 . S
C3194 C3197 1.403 . S
C3195 C3192 1.403 . S
C3195 C3196 1.524 . S
C3195 C3199 1.400 . S
C3196 H3181 0.960 . S
C3196 H3182 0.960 . S
C3196 H3183 0.960 . S
C3196 C3195 1.524 . S
C3197 C3194 1.403 . S
C3197 C3198 1.392 . S
C3197 C3201 1.495 . S
C3198 C3197 1.392 . S
C3198 C3199 1.385 . S
C3198 C3200 1.478 . S
C3199 H3193 0.930 . S
C3199 C3195 1.400 . S
C3199 C3198 1.385 . S
C3200 C3198 1.478 . S
C3200 C3202 1.381 . S
C3200 C3206 1.383 . S
C3201 C3197 1.495 . S
C3201 H3207 0.959 . S
C3201 H3208 0.961 . S
C3201 H3209 0.960 . S
C3202 C3200 1.381 . S
C3202 C3203 1.394 . S
C3202 H3210 0.930 . S
C3203 C3202 1.394 . S
C3203 C3204 1.383 . S
C3203 H3211 0.929 . S
C3204 C3203 1.383 . S
C3204 C3205 1.377 . S
C3205 H3189 0.930 . S
C3205 C3204 1.377 . S
C3205 C3206 1.379 . S
C3206 H3190 0.931 . S
C3206 C3200 1.383 . S
C3206 C3205 1.379 . S
H3207 C3201 0.959 . S
H3208 C3201 0.961 . S
H3209 C3201 0.960 . S
H3210 C3202 0.930 . S
H3211 C3203 0.929 . S
H3212 C3220 0.929 . S
H3213 C3222 0.930 . S
H3214 C3224 0.930 . S
H3215 C3227 0.929 . S
H3216 C3230 0.930 . S
H3217 C3232 0.960 . S
H3218 C3232 0.960 . S
H3219 C3232 0.960 . S
C3220 H3212 0.929 . S
C3220 C3221 1.377 . S
C3220 C3222 1.384 . S
C3221 C3220 1.377 . S
C3221 C3227 1.390 . S
C3222 H3213 0.930 . S
C3222 C3220 1.384 . S
C3222 C3223 1.372 . S
C3223 C3222 1.372 . S
C3223 C3224 1.400 . S
C3223 C3228 1.490 . S
C3224 H3214 0.930 . S
C3224 C3223 1.400 . S
C3224 C3227 1.386 . S
H3225 C3241 0.930 . S
H3226 C3242 0.931 . S
C3227 H3215 0.929 . S
C3227 C3221 1.390 . S
C3227 C3224 1.386 . S
C3228 C3223 1.490 . S
C3228 C3230 1.395 . S
C3228 C3231 1.403 . S
H3229 C3235 0.930 . S
C3230 H3216 0.930 . S
C3230 C3228 1.395 . S
C3230 C3233 1.403 . S
C3231 C3228 1.403 . S
C3231 C3232 1.524 . S
C3231 C3235 1.400 . S
C3232 H3217 0.960 . S
C3232 H3218 0.960 . S
C3232 H3219 0.960 . S
C3232 C3231 1.524 . S
C3233 C3230 1.403 . S
C3233 C3234 1.392 . S
C3233 C3237 1.495 . S
C3234 C3233 1.392 . S
C3234 C3235 1.385 . S
C3234 C3236 1.478 . S
C3235 H3229 0.930 . S
C3235 C3231 1.400 . S
C3235 C3234 1.385 . S
C3236 C3234 1.478 . S
C3236 C3238 1.381 . S
C3236 C3242 1.383 . S
C3237 C3233 1.495 . S
C3237 H3243 0.959 . S
C3237 H3244 0.961 . S
C3237 H3245 0.960 . S
C3238 C3236 1.381 . S
C3238 C3239 1.394 . S
C3238 H3246 0.930 . S
C3239 C3238 1.394 . S
C3239 C3240 1.383 . S
C3239 H3247 0.929 . S
C3240 C3239 1.383 . S
C3240 C3241 1.377 . S
C3241 H3225 0.930 . S
C3241 C3240 1.377 . S
C3241 C3242 1.379 . S
C3242 H3226 0.931 . S
C3242 C3236 1.383 . S
C3242 C3241 1.379 . S
H3243 C3237 0.959 . S
H3244 C3237 0.961 . S
H3245 C3237 0.960 . S
H3246 C3238 0.930 . S
H3247 C3239 0.929 . S
H3248 C3256 0.929 . S
H3249 C3258 0.930 . S
H3250 C3260 0.930 . S
H3251 C3263 0.929 . S
H3252 C3266 0.930 . S
H3253 C3268 0.960 . S
H3254 C3268 0.960 . S
H3255 C3268 0.960 . S
C3256 H3248 0.929 . S
C3256 C3257 1.377 . S
C3256 C3258 1.384 . S
C3257 C3256 1.377 . S
C3257 C3263 1.390 . S
C3258 H3249 0.930 . S
C3258 C3256 1.384 . S
C3258 C3259 1.372 . S
C3259 C3258 1.372 . S
C3259 C3260 1.400 . S
C3259 C3264 1.490 . S
C3260 H3250 0.930 . S
C3260 C3259 1.400 . S
C3260 C3263 1.386 . S
H3261 C3277 0.930 . S
H3262 C3278 0.931 . S
C3263 H3251 0.929 . S
C3263 C3257 1.390 . S
C3263 C3260 1.386 . S
C3264 C3259 1.490 . S
C3264 C3266 1.395 . S
C3264 C3267 1.403 . S
H3265 C3271 0.930 . S
C3266 H3252 0.930 . S
C3266 C3264 1.395 . S
C3266 C3269 1.403 . S
C3267 C3264 1.403 . S
C3267 C3268 1.524 . S
C3267 C3271 1.400 . S
C3268 H3253 0.960 . S
C3268 H3254 0.960 . S
C3268 H3255 0.960 . S
C3268 C3267 1.524 . S
C3269 C3266 1.403 . S
C3269 C3270 1.392 . S
C3269 C3273 1.495 . S
C3270 C3269 1.392 . S
C3270 C3271 1.385 . S
C3270 C3272 1.478 . S
C3271 H3265 0.930 . S
C3271 C3267 1.400 . S
C3271 C3270 1.385 . S
C3272 C3270 1.478 . S
C3272 C3274 1.381 . S
C3272 C3278 1.383 . S
C3273 C3269 1.495 . S
C3273 H3279 0.959 . S
C3273 H3280 0.961 . S
C3273 H3281 0.960 . S
C3274 C3272 1.381 . S
C3274 C3275 1.394 . S
C3274 H3282 0.930 . S
C3275 C3274 1.394 . S
C3275 C3276 1.383 . S
C3275 H3283 0.929 . S
C3276 C3275 1.383 . S
C3276 C3277 1.377 . S
C3277 H3261 0.930 . S
C3277 C3276 1.377 . S
C3277 C3278 1.379 . S
C3278 H3262 0.931 . S
C3278 C3272 1.383 . S
C3278 C3277 1.379 . S
H3279 C3273 0.959 . S
H3280 C3273 0.961 . S
H3281 C3273 0.960 . S
H3282 C3274 0.930 . S
H3283 C3275 0.929 . S
H3284 C3292 0.929 . S
H3285 C3294 0.930 . S
H3286 C3296 0.930 . S
H3287 C3299 0.929 . S
H3288 C3302 0.930 . S
H3289 C3304 0.960 . S
H3290 C3304 0.960 . S
H3291 C3304 0.960 . S
C3292 H3284 0.929 . S
C3292 C3293 1.377 . S
C3292 C3294 1.384 . S
C3293 C3292 1.377 . S
C3293 C3299 1.390 . S
C3294 H3285 0.930 . S
C3294 C3292 1.384 . S
C3294 C3295 1.372 . S
C3295 C3294 1.372 . S
C3295 C3296 1.400 . S
C3295 C3300 1.490 . S
C3296 H3286 0.930 . S
C3296 C3295 1.400 . S
C3296 C3299 1.386 . S
H3297 C3313 0.930 . S
H3298 C3314 0.931 . S
C3299 H3287 0.929 . S
C3299 C3293 1.390 . S
C3299 C3296 1.386 . S
C3300 C3295 1.490 . S
C3300 C3302 1.395 . S
C3300 C3303 1.403 . S
H3301 C3307 0.930 . S
C3302 H3288 0.930 . S
C3302 C3300 1.395 . S
C3302 C3305 1.403 . S
C3303 C3300 1.403 . S
C3303 C3304 1.524 . S
C3303 C3307 1.400 . S
C3304 H3289 0.960 . S
C3304 H3290 0.960 . S
C3304 H3291 0.960 . S
C3304 C3303 1.524 . S
C3305 C3302 1.403 . S
C3305 C3306 1.392 . S
C3305 C3309 1.495 . S
C3306 C3305 1.392 . S
C3306 C3307 1.385 . S
C3306 C3308 1.478 . S
C3307 H3301 0.930 . S
C3307 C3303 1.400 . S
C3307 C3306 1.385 . S
C3308 C3306 1.478 . S
C3308 C3310 1.381 . S
C3308 C3314 1.383 . S
C3309 C3305 1.495 . S
C3309 H3315 0.959 . S
C3309 H3316 0.961 . S
C3309 H3317 0.960 . S
C3310 C3308 1.381 . S
C3310 C3311 1.394 . S
C3310 H3318 0.930 . S
C3311 C3310 1.394 . S
C3311 C3312 1.383 . S
C3311 H3319 0.929 . S
C3312 C3311 1.383 . S
C3312 C3313 1.377 . S
C3313 H3297 0.930 . S
C3313 C3312 1.377 . S
C3313 C3314 1.379 . S
C3314 H3298 0.931 . S
C3314 C3308 1.383 . S
C3314 C3313 1.379 . S
H3315 C3309 0.959 . S
H3316 C3309 0.961 . S
H3317 C3309 0.960 . S
H3318 C3310 0.930 . S
H3319 C3311 0.929 . S
H3320 C3328 0.929 . S
H3321 C3330 0.930 . S
H3322 C3332 0.930 . S
H3323 C3335 0.929 . S
H3324 C3338 0.930 . S
H3325 C3340 0.960 . S
H3326 C3340 0.960 . S
H3327 C3340 0.960 . S
C3328 H3320 0.929 . S
C3328 C3329 1.377 . S
C3328 C3330 1.384 . S
C3329 C3328 1.377 . S
C3329 C3335 1.390 1_455 S
C3330 H3321 0.930 . S
C3330 C3328 1.384 . S
C3330 C3331 1.372 . S
C3331 C3330 1.372 . S
C3331 C3332 1.400 1_455 S
C3331 C3336 1.490 . S
C3332 H3322 0.930 . S
C3332 C3331 1.400 1_655 S
C3332 C3335 1.386 . S
H3333 C3349 0.930 . S
H3334 C3350 0.931 . S
C3335 H3323 0.929 . S
C3335 C3329 1.390 1_655 S
C3335 C3332 1.386 . S
C3336 C3331 1.490 . S
C3336 C3338 1.395 . S
C3336 C3339 1.403 1_455 S
H3337 C3343 0.930 1_655 S
C3338 H3324 0.930 . S
C3338 C3336 1.395 . S
C3338 C3341 1.403 . S
C3339 C3336 1.403 1_655 S
C3339 C3340 1.524 . S
C3339 C3343 1.400 1_655 S
C3340 H3325 0.960 . S
C3340 H3326 0.960 . S
C3340 H3327 0.960 . S
C3340 C3339 1.524 . S
C3341 C3338 1.403 . S
C3341 C3342 1.392 . S
C3341 C3345 1.495 . S
C3342 C3341 1.392 . S
C3342 C3343 1.385 . S
C3342 C3344 1.478 . S
C3343 H3337 0.930 1_455 S
C3343 C3339 1.400 1_455 S
C3343 C3342 1.385 . S
C3344 C3342 1.478 . S
C3344 C3346 1.381 . S
C3344 C3350 1.383 1_455 S
C3345 C3341 1.495 . S
C3345 H3351 0.959 . S
C3345 H3352 0.961 . S
C3345 H3353 0.960 . S
C3346 C3344 1.381 . S
C3346 C3347 1.394 . S
C3346 H3354 0.930 . S
C3347 C3346 1.394 . S
C3347 C3348 1.383 . S
C3347 H3355 0.929 . S
C3348 C3347 1.383 . S
C3348 C3349 1.377 1_455 S
C3349 H3333 0.930 . S
C3349 C3348 1.377 1_655 S
C3349 C3350 1.379 . S
C3350 H3334 0.931 . S
C3350 C3344 1.383 1_655 S
C3350 C3349 1.379 . S
H3351 C3345 0.959 . S
H3352 C3345 0.961 . S
H3353 C3345 0.960 . S
H3354 C3346 0.930 . S
H3355 C3347 0.929 . S
H3356 C3364 0.929 . S
H3357 C3366 0.930 . S
H3358 C3368 0.930 . S
H3359 C3371 0.929 . S
H3360 C3374 0.930 . S
H3361 C3376 0.960 . S
H3362 C3376 0.960 . S
H3363 C3376 0.960 . S
C3364 H3356 0.929 . S
C3364 C3365 1.377 . S
C3364 C3366 1.384 . S
C3365 C3364 1.377 . S
C3365 C3371 1.390 . S
C3366 H3357 0.930 . S
C3366 C3364 1.384 . S
C3366 C3367 1.372 . S
C3367 C3366 1.372 . S
C3367 C3368 1.400 . S
C3367 C3372 1.490 . S
C3368 H3358 0.930 . S
C3368 C3367 1.400 . S
C3368 C3371 1.386 . S
H3369 C3385 0.930 . S
H3370 C3386 0.931 . S
C3371 H3359 0.929 . S
C3371 C3365 1.390 . S
C3371 C3368 1.386 . S
C3372 C3367 1.490 . S
C3372 C3374 1.395 . S
C3372 C3375 1.403 . S
H3373 C3379 0.930 . S
C3374 H3360 0.930 . S
C3374 C3372 1.395 . S
C3374 C3377 1.403 . S
C3375 C3372 1.403 . S
C3375 C3376 1.524 . S
C3375 C3379 1.400 . S
C3376 H3361 0.960 . S
C3376 H3362 0.960 . S
C3376 H3363 0.960 . S
C3376 C3375 1.524 . S
C3377 C3374 1.403 . S
C3377 C3378 1.392 . S
C3377 C3381 1.495 . S
C3378 C3377 1.392 . S
C3378 C3379 1.385 . S
C3378 C3380 1.478 . S
C3379 H3373 0.930 . S
C3379 C3375 1.400 . S
C3379 C3378 1.385 . S
C3380 C3378 1.478 . S
C3380 C3382 1.381 . S
C3380 C3386 1.383 . S
C3381 C3377 1.495 . S
C3381 H3387 0.959 . S
C3381 H3388 0.961 . S
C3381 H3389 0.960 . S
C3382 C3380 1.381 . S
C3382 C3383 1.394 . S
C3382 H3390 0.930 . S
C3383 C3382 1.394 . S
C3383 C3384 1.383 . S
C3383 H3391 0.929 . S
C3384 C3383 1.383 . S
C3384 C3385 1.377 . S
C3385 H3369 0.930 . S
C3385 C3384 1.377 . S
C3385 C3386 1.379 . S
C3386 H3370 0.931 . S
C3386 C3380 1.383 . S
C3386 C3385 1.379 . S
H3387 C3381 0.959 . S
H3388 C3381 0.961 . S
H3389 C3381 0.960 . S
H3390 C3382 0.930 . S
H3391 C3383 0.929 . S
H3392 C3400 0.929 . S
H3393 C3402 0.930 . S
H3394 C3404 0.930 . S
H3395 C3407 0.929 . S
H3396 C3410 0.930 . S
H3397 C3412 0.960 . S
H3398 C3412 0.960 . S
H3399 C3412 0.960 . S
C3400 H3392 0.929 . S
C3400 C3401 1.377 . S
C3400 C3402 1.384 . S
C3401 C3400 1.377 . S
C3401 C3407 1.390 . S
C3402 H3393 0.930 . S
C3402 C3400 1.384 . S
C3402 C3403 1.372 . S
C3403 C3402 1.372 . S
C3403 C3404 1.400 . S
C3403 C3408 1.490 . S
C3404 H3394 0.930 . S
C3404 C3403 1.400 . S
C3404 C3407 1.386 . S
H3405 C3421 0.930 . S
H3406 C3422 0.931 . S
C3407 H3395 0.929 . S
C3407 C3401 1.390 . S
C3407 C3404 1.386 . S
C3408 C3403 1.490 . S
C3408 C3410 1.395 . S
C3408 C3411 1.403 . S
H3409 C3415 0.930 . S
C3410 H3396 0.930 . S
C3410 C3408 1.395 . S
C3410 C3413 1.403 . S
C3411 C3408 1.403 . S
C3411 C3412 1.524 . S
C3411 C3415 1.400 . S
C3412 H3397 0.960 . S
C3412 H3398 0.960 . S
C3412 H3399 0.960 . S
C3412 C3411 1.524 . S
C3413 C3410 1.403 . S
C3413 C3414 1.392 . S
C3413 C3417 1.495 . S
C3414 C3413 1.392 . S
C3414 C3415 1.385 . S
C3414 C3416 1.478 . S
C3415 H3409 0.930 . S
C3415 C3411 1.400 . S
C3415 C3414 1.385 . S
C3416 C3414 1.478 . S
C3416 C3418 1.381 . S
C3416 C3422 1.383 . S
C3417 C3413 1.495 . S
C3417 H3423 0.959 . S
C3417 H3424 0.961 . S
C3417 H3425 0.960 . S
C3418 C3416 1.381 . S
C3418 C3419 1.394 . S
C3418 H3426 0.930 . S
C3419 C3418 1.394 . S
C3419 C3420 1.383 . S
C3419 H3427 0.929 1_556 S
C3420 C3419 1.383 . S
C3420 C3421 1.377 . S
C3421 H3405 0.930 . S
C3421 C3420 1.377 . S
C3421 C3422 1.379 . S
C3422 H3406 0.931 . S
C3422 C3416 1.383 . S
C3422 C3421 1.379 . S
H3423 C3417 0.959 . S
H3424 C3417 0.961 . S
H3425 C3417 0.960 . S
H3426 C3418 0.930 . S
H3427 C3419 0.929 1_554 S
H3428 C3436 0.929 . S
H3429 C3438 0.930 . S
H3430 C3440 0.930 . S
H3431 C3443 0.929 . S
H3432 C3446 0.930 . S
H3433 C3448 0.960 . S
H3434 C3448 0.960 . S
H3435 C3448 0.960 . S
C3436 H3428 0.929 . S
C3436 C3437 1.377 . S
C3436 C3438 1.384 . S
C3437 C3436 1.377 . S
C3437 C3443 1.390 . S
C3438 H3429 0.930 . S
C3438 C3436 1.384 . S
C3438 C3439 1.372 . S
C3439 C3438 1.372 . S
C3439 C3440 1.400 . S
C3439 C3444 1.490 . S
C3440 H3430 0.930 . S
C3440 C3439 1.400 . S
C3440 C3443 1.386 . S
H3441 C3457 0.930 . S
H3442 C3458 0.931 . S
C3443 H3431 0.929 . S
C3443 C3437 1.390 . S
C3443 C3440 1.386 . S
C3444 C3439 1.490 . S
C3444 C3446 1.395 . S
C3444 C3447 1.403 . S
H3445 C3451 0.930 . S
C3446 H3432 0.930 . S
C3446 C3444 1.395 . S
C3446 C3449 1.403 . S
C3447 C3444 1.403 . S
C3447 C3448 1.524 . S
C3447 C3451 1.400 . S
C3448 H3433 0.960 . S
C3448 H3434 0.960 . S
C3448 H3435 0.960 . S
C3448 C3447 1.524 . S
C3449 C3446 1.403 . S
C3449 C3450 1.392 . S
C3449 C3453 1.495 . S
C3450 C3449 1.392 . S
C3450 C3451 1.385 . S
C3450 C3452 1.478 . S
C3451 H3445 0.930 . S
C3451 C3447 1.400 . S
C3451 C3450 1.385 . S
C3452 C3450 1.478 . S
C3452 C3454 1.381 . S
C3452 C3458 1.383 . S
C3453 C3449 1.495 . S
C3453 H3459 0.959 . S
C3453 H3460 0.961 . S
C3453 H3461 0.960 . S
C3454 C3452 1.381 . S
C3454 C3455 1.394 . S
C3454 H3462 0.930 . S
C3455 C3454 1.394 . S
C3455 C3456 1.383 . S
C3455 H3463 0.929 . S
C3456 C3455 1.383 . S
C3456 C3457 1.377 . S
C3457 H3441 0.930 . S
C3457 C3456 1.377 . S
C3457 C3458 1.379 . S
C3458 H3442 0.931 . S
C3458 C3452 1.383 . S
C3458 C3457 1.379 . S
H3459 C3453 0.959 . S
H3460 C3453 0.961 . S
H3461 C3453 0.960 . S
H3462 C3454 0.930 . S
H3463 C3455 0.929 . S
H3464 C3472 0.929 . S
H3465 C3474 0.930 . S
H3466 C3476 0.930 1_655 S
H3467 C3479 0.929 1_655 S
H3468 C3482 0.930 . S
H3469 C3484 0.960 . S
H3470 C3484 0.960 . S
H3471 C3484 0.960 . S
C3472 H3464 0.929 . S
C3472 C3473 1.377 . S
C3472 C3474 1.384 . S
C3473 C3472 1.377 . S
C3473 C3479 1.390 . S
C3474 H3465 0.930 . S
C3474 C3472 1.384 . S
C3474 C3475 1.372 . S
C3475 C3474 1.372 . S
C3475 C3476 1.400 . S
C3475 C3480 1.490 . S
C3476 H3466 0.930 1_455 S
C3476 C3475 1.400 . S
C3476 C3479 1.386 . S
H3477 C3493 0.904 1_655 S
H3478 C3494 0.931 1_655 S
C3479 H3467 0.929 1_455 S
C3479 C3473 1.390 . S
C3479 C3476 1.386 . S
C3480 C3475 1.490 . S
C3480 C3482 1.395 . S
C3480 C3483 1.403 . S
H3481 C3487 0.930 1_655 S
C3482 H3468 0.930 . S
C3482 C3480 1.395 . S
C3482 C3485 1.403 . S
C3483 C3480 1.403 . S
C3483 C3484 1.524 1_455 S
C3483 C3487 1.400 . S
C3484 H3469 0.960 . S
C3484 H3470 0.960 . S
C3484 H3471 0.960 . S
C3484 C3483 1.524 1_655 S
C3485 C3482 1.403 . S
C3485 C3486 1.392 . S
C3485 C3489 1.495 . S
C3486 C3485 1.392 . S
C3486 C3487 1.385 . S
C3486 C3488 1.478 . S
C3487 H3481 0.930 1_455 S
C3487 C3483 1.400 . S
C3487 C3486 1.385 . S
C3488 C3486 1.478 . S
C3488 C3490 1.381 . S
C3488 C3494 1.383 . S
C3489 C3485 1.495 . S
C3489 H3495 0.959 . S
C3489 H3496 0.961 . S
C3489 H3497 0.960 . S
C3490 C3488 1.381 . S
C3490 C3491 1.394 . S
C3490 H3498 0.930 . S
C3491 C3490 1.394 . S
C3491 C3492 1.383 . S
C3491 H3499 0.929 . S
C3492 C3491 1.383 . S
C3492 C3493 1.394 . S
C3493 H3477 0.904 1_455 S
C3493 C3492 1.394 . S
C3493 C3494 1.388 . S
C3494 H3478 0.931 1_455 S
C3494 C3488 1.383 . S
C3494 C3493 1.388 . S
H3495 C3489 0.959 . S
H3496 C3489 0.961 . S
H3497 C3489 0.960 . S
H3498 C3490 0.930 . S
H3499 C3491 0.929 . S
H3500 C3508 0.929 . S
H3501 C3510 0.930 . S
H3502 C3512 0.930 . S
H3503 C3515 0.929 . S
H3504 C3518 0.930 . S
H3505 C3520 0.960 . S
H3506 C3520 0.960 . S
H3507 C3520 0.960 . S
C3508 H3500 0.929 . S
C3508 C3509 1.377 . S
C3508 C3510 1.384 . S
C3509 C3508 1.377 . S
C3509 C3515 1.390 . S
C3510 H3501 0.930 . S
C3510 C3508 1.384 . S
C3510 C3511 1.372 . S
C3511 C3510 1.372 . S
C3511 C3512 1.400 . S
C3511 C3516 1.490 . S
C3512 H3502 0.930 . S
C3512 C3511 1.400 . S
C3512 C3515 1.386 . S
H3513 C3529 0.930 . S
H3514 C3530 0.931 . S
C3515 H3503 0.929 . S
C3515 C3509 1.390 . S
C3515 C3512 1.386 . S
C3516 C3511 1.490 . S
C3516 C3518 1.395 . S
C3516 C3519 1.403 . S
H3517 C3523 0.930 . S
C3518 H3504 0.930 . S
C3518 C3516 1.395 . S
C3518 C3521 1.403 . S
C3519 C3516 1.403 . S
C3519 C3520 1.524 . S
C3519 C3523 1.400 . S
C3520 H3505 0.960 . S
C3520 H3506 0.960 . S
C3520 H3507 0.960 . S
C3520 C3519 1.524 . S
C3521 C3518 1.403 . S
C3521 C3522 1.392 . S
C3521 C3525 1.495 . S
C3522 C3521 1.392 . S
C3522 C3523 1.385 . S
C3522 C3524 1.478 . S
C3523 H3517 0.930 . S
C3523 C3519 1.400 . S
C3523 C3522 1.385 . S
C3524 C3522 1.478 . S
C3524 C3526 1.381 . S
C3524 C3530 1.383 . S
C3525 C3521 1.495 . S
C3525 H3531 0.959 . S
C3525 H3532 0.961 . S
C3525 H3533 0.960 . S
C3526 C3524 1.381 . S
C3526 C3527 1.394 . S
C3526 H3534 0.930 . S
C3527 C3526 1.394 . S
C3527 C3528 1.383 . S
C3527 H3535 0.929 . S
C3528 C3527 1.383 . S
C3528 C3529 1.377 . S
C3529 H3513 0.930 . S
C3529 C3528 1.377 . S
C3529 C3530 1.379 . S
C3530 H3514 0.931 . S
C3530 C3524 1.383 . S
C3530 C3529 1.379 . S
H3531 C3525 0.959 . S
H3532 C3525 0.961 . S
H3533 C3525 0.960 . S
H3534 C3526 0.930 . S
H3535 C3527 0.929 . S
H3536 C3544 0.929 . S
H3537 C3546 0.930 . S
H3538 C3548 0.930 . S
H3539 C3551 0.929 . S
H3540 C3554 0.930 . S
H3541 C3556 0.960 . S
H3542 C3556 0.960 . S
H3543 C3556 0.960 . S
C3544 H3536 0.929 . S
C3544 C3545 1.377 . S
C3544 C3546 1.384 . S
C3545 C3544 1.377 . S
C3545 C3551 1.390 . S
C3546 H3537 0.930 . S
C3546 C3544 1.384 . S
C3546 C3547 1.372 . S
C3547 C3546 1.372 . S
C3547 C3548 1.400 . S
C3547 C3552 1.490 . S
C3548 H3538 0.930 . S
C3548 C3547 1.400 . S
C3548 C3551 1.386 . S
H3549 C3565 0.930 . S
H3550 C3566 0.931 . S
C3551 H3539 0.929 . S
C3551 C3545 1.390 . S
C3551 C3548 1.386 . S
C3552 C3547 1.490 . S
C3552 C3554 1.395 . S
C3552 C3555 1.403 . S
H3553 C3559 0.930 . S
C3554 H3540 0.930 . S
C3554 C3552 1.395 . S
C3554 C3557 1.403 . S
C3555 C3552 1.403 . S
C3555 C3556 1.524 . S
C3555 C3559 1.400 . S
C3556 H3541 0.960 . S
C3556 H3542 0.960 . S
C3556 H3543 0.960 . S
C3556 C3555 1.524 . S
C3557 C3554 1.403 . S
C3557 C3558 1.392 . S
C3557 C3561 1.495 . S
C3558 C3557 1.392 . S
C3558 C3559 1.385 . S
C3558 C3560 1.478 . S
C3559 H3553 0.930 . S
C3559 C3555 1.400 . S
C3559 C3558 1.385 . S
C3560 C3558 1.478 . S
C3560 C3562 1.381 . S
C3560 C3566 1.383 . S
C3561 C3557 1.495 . S
C3561 H3567 0.959 . S
C3561 H3568 0.961 . S
C3561 H3569 0.960 . S
C3562 C3560 1.381 . S
C3562 C3563 1.394 . S
C3562 H3570 0.930 . S
C3563 C3562 1.394 . S
C3563 C3564 1.383 . S
C3563 H3571 0.929 . S
C3564 C3563 1.383 . S
C3564 C3565 1.377 . S
C3565 H3549 0.930 . S
C3565 C3564 1.377 . S
C3565 C3566 1.379 . S
C3566 H3550 0.931 . S
C3566 C3560 1.383 . S
C3566 C3565 1.379 . S
H3567 C3561 0.959 . S
H3568 C3561 0.961 . S
H3569 C3561 0.960 . S
H3570 C3562 0.930 . S
H3571 C3563 0.929 . S
H3572 C3580 0.929 . S
H3573 C3582 0.930 . S
H3574 C3584 0.930 . S
H3575 C3587 0.929 . S
H3576 C3590 0.930 . S
H3577 C3592 0.960 . S
H3578 C3592 0.960 . S
H3579 C3592 0.960 . S
C3580 H3572 0.929 . S
C3580 C3581 1.377 . S
C3580 C3582 1.384 . S
C3581 C3580 1.377 . S
C3581 C3587 1.390 . S
C3582 H3573 0.930 . S
C3582 C3580 1.384 . S
C3582 C3583 1.372 . S
C3583 C3582 1.372 . S
C3583 C3584 1.400 . S
C3583 C3588 1.490 . S
C3584 H3574 0.930 . S
C3584 C3583 1.400 . S
C3584 C3587 1.386 . S
H3585 C3601 0.930 . S
H3586 C3602 0.931 . S
C3587 H3575 0.929 . S
C3587 C3581 1.390 . S
C3587 C3584 1.386 . S
C3588 C3583 1.490 . S
C3588 C3590 1.395 . S
C3588 C3591 1.403 . S
H3589 C3595 0.930 . S
C3590 H3576 0.930 . S
C3590 C3588 1.395 . S
C3590 C3593 1.403 . S
C3591 C3588 1.403 . S
C3591 C3592 1.524 . S
C3591 C3595 1.400 . S
C3592 H3577 0.960 . S
C3592 H3578 0.960 . S
C3592 H3579 0.960 . S
C3592 C3591 1.524 . S
C3593 C3590 1.403 . S
C3593 C3594 1.392 . S
C3593 C3597 1.495 . S
C3594 C3593 1.392 . S
C3594 C3595 1.385 . S
C3594 C3596 1.478 . S
C3595 H3589 0.930 . S
C3595 C3591 1.400 . S
C3595 C3594 1.385 . S
C3596 C3594 1.478 . S
C3596 C3598 1.381 . S
C3596 C3602 1.383 . S
C3597 C3593 1.495 . S
C3597 H3603 0.959 . S
C3597 H3604 0.961 . S
C3597 H3605 0.960 . S
C3598 C3596 1.381 . S
C3598 C3599 1.394 . S
C3598 H3606 0.930 . S
C3599 C3598 1.394 . S
C3599 C3600 1.383 . S
C3599 H3607 0.929 . S
C3600 C3599 1.383 . S
C3600 C3601 1.377 . S
C3601 H3585 0.930 . S
C3601 C3600 1.377 . S
C3601 C3602 1.379 . S
C3602 H3586 0.931 . S
C3602 C3596 1.383 . S
C3602 C3601 1.379 . S
H3603 C3597 0.959 . S
H3604 C3597 0.961 . S
H3605 C3597 0.960 . S
H3606 C3598 0.930 . S
H3607 C3599 0.929 . S
H3608 C3616 0.929 . S
H3609 C3618 0.930 . S
H3610 C3620 0.930 . S
H3611 C3623 0.929 . S
H3612 C3626 0.930 . S
H3613 C3628 0.960 . S
H3614 C3628 0.960 . S
H3615 C3628 0.960 . S
C3616 H3608 0.929 . S
C3616 C3617 1.377 . S
C3616 C3618 1.384 . S
C3617 C3616 1.377 . S
C3617 C3623 1.390 . S
C3618 H3609 0.930 . S
C3618 C3616 1.384 . S
C3618 C3619 1.372 . S
C3619 C3618 1.372 . S
C3619 C3620 1.400 . S
C3619 C3624 1.490 . S
C3620 H3610 0.930 . S
C3620 C3619 1.400 . S
C3620 C3623 1.386 . S
H3621 C3637 0.930 . S
H3622 C3638 0.931 . S
C3623 H3611 0.929 . S
C3623 C3617 1.390 . S
C3623 C3620 1.386 . S
C3624 C3619 1.490 . S
C3624 C3626 1.395 . S
C3624 C3627 1.403 . S
H3625 C3631 0.930 . S
C3626 H3612 0.930 . S
C3626 C3624 1.395 . S
C3626 C3629 1.403 . S
C3627 C3624 1.403 . S
C3627 C3628 1.524 . S
C3627 C3631 1.400 . S
C3628 H3613 0.960 . S
C3628 H3614 0.960 . S
C3628 H3615 0.960 . S
C3628 C3627 1.524 . S
C3629 C3626 1.403 . S
C3629 C3630 1.392 . S
C3629 C3633 1.495 . S
C3630 C3629 1.392 . S
C3630 C3631 1.385 . S
C3630 C3632 1.478 . S
C3631 H3625 0.930 . S
C3631 C3627 1.400 . S
C3631 C3630 1.385 . S
C3632 C3630 1.478 . S
C3632 C3634 1.381 . S
C3632 C3638 1.383 . S
C3633 C3629 1.495 . S
C3633 H3639 0.959 . S
C3633 H3640 0.961 . S
C3633 H3641 0.960 . S
C3634 C3632 1.381 . S
C3634 C3635 1.394 1_655 S
C3634 H3642 0.930 1_655 S
C3635 C3634 1.394 1_455 S
C3635 C3636 1.383 1_455 S
C3635 H3643 0.929 . S
C3636 C3635 1.383 1_655 S
C3636 C3637 1.377 . S
C3637 H3621 0.930 . S
C3637 C3636 1.377 . S
C3637 C3638 1.379 . S
C3638 H3622 0.931 . S
C3638 C3632 1.383 . S
C3638 C3637 1.379 . S
H3639 C3633 0.959 . S
H3640 C3633 0.961 . S
H3641 C3633 0.960 . S
H3642 C3634 0.930 1_455 S
H3643 C3635 0.929 . S
H3644 C3652 0.929 . S
H3645 C3654 0.930 . S
H3646 C3656 0.930 . S
H3647 C3659 0.929 . S
H3648 C3662 0.930 . S
H3649 C3664 0.960 . S
H3650 C3664 0.960 . S
H3651 C3664 0.960 . S
C3652 H3644 0.929 . S
C3652 C3653 1.377 . S
C3652 C3654 1.384 . S
C3653 C3652 1.377 . S
C3653 C3659 1.390 . S
C3654 H3645 0.930 . S
C3654 C3652 1.384 . S
C3654 C3655 1.372 . S
C3655 C3654 1.372 . S
C3655 C3656 1.400 . S
C3655 C3660 1.490 . S
C3656 H3646 0.930 . S
C3656 C3655 1.400 . S
C3656 C3659 1.386 . S
H3657 C3673 0.930 . S
H3658 C3674 0.931 . S
C3659 H3647 0.929 . S
C3659 C3653 1.390 . S
C3659 C3656 1.386 . S
C3660 C3655 1.490 . S
C3660 C3662 1.395 . S
C3660 C3663 1.403 . S
H3661 C3667 0.930 . S
C3662 H3648 0.930 . S
C3662 C3660 1.395 . S
C3662 C3665 1.403 . S
C3663 C3660 1.403 . S
C3663 C3664 1.524 . S
C3663 C3667 1.400 . S
C3664 H3649 0.960 . S
C3664 H3650 0.960 . S
C3664 H3651 0.960 . S
C3664 C3663 1.524 . S
C3665 C3662 1.403 . S
C3665 C3666 1.392 . S
C3665 C3669 1.495 . S
C3666 C3665 1.392 . S
C3666 C3667 1.385 . S
C3666 C3668 1.478 . S
C3667 H3661 0.930 . S
C3667 C3663 1.400 . S
C3667 C3666 1.385 . S
C3668 C3666 1.478 . S
C3668 C3670 1.381 . S
C3668 C3674 1.383 . S
C3669 C3665 1.495 . S
C3669 H3675 0.959 . S
C3669 H3676 0.961 . S
C3669 H3677 0.960 . S
C3670 C3668 1.381 . S
C3670 C3671 1.394 . S
C3670 H3678 0.930 . S
C3671 C3670 1.394 . S
C3671 C3672 1.383 . S
C3671 H3679 0.929 . S
C3672 C3671 1.383 . S
C3672 C3673 1.377 . S
C3673 H3657 0.930 . S
C3673 C3672 1.377 . S
C3673 C3674 1.379 . S
C3674 H3658 0.931 . S
C3674 C3668 1.383 . S
C3674 C3673 1.379 . S
H3675 C3669 0.959 . S
H3676 C3669 0.961 . S
H3677 C3669 0.960 . S
H3678 C3670 0.930 . S
H3679 C3671 0.929 . S
H3680 C3688 0.929 . S
H3681 C3690 0.930 . S
H3682 C3692 0.930 . S
H3683 C3695 0.929 . S
H3684 C3698 0.930 . S
H3685 C3700 0.960 . S
H3686 C3700 0.960 . S
H3687 C3700 0.960 . S
C3688 H3680 0.929 . S
C3688 C3689 1.377 . S
C3688 C3690 1.384 . S
C3689 C3688 1.377 . S
C3689 C3695 1.390 . S
C3690 H3681 0.930 . S
C3690 C3688 1.384 . S
C3690 C3691 1.372 . S
C3691 C3690 1.372 . S
C3691 C3692 1.400 . S
C3691 C3696 1.490 . S
C3692 H3682 0.930 . S
C3692 C3691 1.400 . S
C3692 C3695 1.386 . S
H3693 C3709 0.930 . S
H3694 C3710 0.931 . S
C3695 H3683 0.929 . S
C3695 C3689 1.390 . S
C3695 C3692 1.386 . S
C3696 C3691 1.490 . S
C3696 C3698 1.395 . S
C3696 C3699 1.403 . S
H3697 C3703 0.930 . S
C3698 H3684 0.930 . S
C3698 C3696 1.395 . S
C3698 C3701 1.403 . S
C3699 C3696 1.403 . S
C3699 C3700 1.524 . S
C3699 C3703 1.400 . S
C3700 H3685 0.960 . S
C3700 H3686 0.960 . S
C3700 H3687 0.960 . S
C3700 C3699 1.524 . S
C3701 C3698 1.403 . S
C3701 C3702 1.392 . S
C3701 C3705 1.495 . S
C3702 C3701 1.392 . S
C3702 C3703 1.385 . S
C3702 C3704 1.478 . S
C3703 H3697 0.930 . S
C3703 C3699 1.400 . S
C3703 C3702 1.385 . S
C3704 C3702 1.478 . S
C3704 C3706 1.381 . S
C3704 C3710 1.383 . S
C3705 C3701 1.495 . S
C3705 H3711 0.959 . S
C3705 H3712 0.961 . S
C3705 H3713 0.960 . S
C3706 C3704 1.381 . S
C3706 C3707 1.394 . S
C3706 H3714 0.930 . S
C3707 C3706 1.394 . S
C3707 C3708 1.383 . S
C3707 H3715 0.929 . S
C3708 C3707 1.383 . S
C3708 C3709 1.377 . S
C3709 H3693 0.930 . S
C3709 C3708 1.377 . S
C3709 C3710 1.379 . S
C3710 H3694 0.931 . S
C3710 C3704 1.383 . S
C3710 C3709 1.379 . S
H3711 C3705 0.959 . S
H3712 C3705 0.961 . S
H3713 C3705 0.960 . S
H3714 C3706 0.930 . S
H3715 C3707 0.929 . S
H3716 C3724 0.929 . S
H3717 C3726 0.930 . S
H3718 C3728 0.930 . S
H3719 C3731 0.929 . S
H3720 C3734 0.930 . S
H3721 C3736 0.960 . S
H3722 C3736 0.960 . S
H3723 C3736 0.960 . S
C3724 H3716 0.929 . S
C3724 C3725 1.377 . S
C3724 C3726 1.384 . S
C3725 C3724 1.377 . S
C3725 C3731 1.390 . S
C3726 H3717 0.930 . S
C3726 C3724 1.384 . S
C3726 C3727 1.372 . S
C3727 C3726 1.372 . S
C3727 C3728 1.400 . S
C3727 C3732 1.490 . S
C3728 H3718 0.930 . S
C3728 C3727 1.400 . S
C3728 C3731 1.386 . S
H3729 C3745 0.930 . S
H3730 C3746 0.931 . S
C3731 H3719 0.929 . S
C3731 C3725 1.390 . S
C3731 C3728 1.386 . S
C3732 C3727 1.490 . S
C3732 C3734 1.395 . S
C3732 C3735 1.403 . S
H3733 C3739 0.930 . S
C3734 H3720 0.930 . S
C3734 C3732 1.395 . S
C3734 C3737 1.403 . S
C3735 C3732 1.403 . S
C3735 C3736 1.524 . S
C3735 C3739 1.400 . S
C3736 H3721 0.960 . S
C3736 H3722 0.960 . S
C3736 H3723 0.960 . S
C3736 C3735 1.524 . S
C3737 C3734 1.403 . S
C3737 C3738 1.392 . S
C3737 C3741 1.495 . S
C3738 C3737 1.392 . S
C3738 C3739 1.385 . S
C3738 C3740 1.478 . S
C3739 H3733 0.930 . S
C3739 C3735 1.400 . S
C3739 C3738 1.385 . S
C3740 C3738 1.478 . S
C3740 C3742 1.381 . S
C3740 C3746 1.383 . S
C3741 C3737 1.495 . S
C3741 H3747 0.959 . S
C3741 H3748 0.961 . S
C3741 H3749 0.960 . S
C3742 C3740 1.381 . S
C3742 C3743 1.394 . S
C3742 H3750 0.930 . S
C3743 C3742 1.394 . S
C3743 C3744 1.383 . S
C3743 H3751 0.929 . S
C3744 C3743 1.383 . S
C3744 C3745 1.377 . S
C3745 H3729 0.930 . S
C3745 C3744 1.377 . S
C3745 C3746 1.379 . S
C3746 H3730 0.931 . S
C3746 C3740 1.383 . S
C3746 C3745 1.379 . S
H3747 C3741 0.959 . S
H3748 C3741 0.961 . S
H3749 C3741 0.960 . S
H3750 C3742 0.930 . S
H3751 C3743 0.929 . S
H3752 C3760 0.929 . S
H3753 C3762 0.930 . S
H3754 C3764 0.930 . S
H3755 C3767 0.929 . S
H3756 C3770 0.930 . S
H3757 C3772 0.960 . S
H3758 C3772 0.960 . S
H3759 C3772 0.960 . S
C3760 H3752 0.929 . S
C3760 C3761 1.377 . S
C3760 C3762 1.384 . S
C3761 C3760 1.377 . S
C3761 C3767 1.390 . S
C3762 H3753 0.930 . S
C3762 C3760 1.384 . S
C3762 C3763 1.372 . S
C3763 C3762 1.372 . S
C3763 C3764 1.400 . S
C3763 C3768 1.490 . S
C3764 H3754 0.930 . S
C3764 C3763 1.400 . S
C3764 C3767 1.386 . S
H3765 C3781 0.930 . S
H3766 C3782 0.931 . S
C3767 H3755 0.929 . S
C3767 C3761 1.390 . S
C3767 C3764 1.386 . S
C3768 C3763 1.490 . S
C3768 C3770 1.395 . S
C3768 C3771 1.403 . S
H3769 C3775 0.930 . S
C3770 H3756 0.930 . S
C3770 C3768 1.395 . S
C3770 C3773 1.403 . S
C3771 C3768 1.403 . S
C3771 C3772 1.524 . S
C3771 C3775 1.400 . S
C3772 H3757 0.960 . S
C3772 H3758 0.960 . S
C3772 H3759 0.960 . S
C3772 C3771 1.524 . S
C3773 C3770 1.403 . S
C3773 C3774 1.392 . S
C3773 C3777 1.495 . S
C3774 C3773 1.392 . S
C3774 C3775 1.385 . S
C3774 C3776 1.478 . S
C3775 H3769 0.930 . S
C3775 C3771 1.400 . S
C3775 C3774 1.385 . S
C3776 C3774 1.478 . S
C3776 C3778 1.381 . S
C3776 C3782 1.383 . S
C3777 C3773 1.495 . S
C3777 H3783 0.959 . S
C3777 H3784 0.961 . S
C3777 H3785 0.960 . S
C3778 C3776 1.381 . S
C3778 C3779 1.394 . S
C3778 H3786 0.930 . S
C3779 C3778 1.394 . S
C3779 C3780 1.383 . S
C3779 H3787 0.929 . S
C3780 C3779 1.383 . S
C3780 C3781 1.377 . S
C3781 H3765 0.930 . S
C3781 C3780 1.377 . S
C3781 C3782 1.379 . S
C3782 H3766 0.931 . S
C3782 C3776 1.383 . S
C3782 C3781 1.379 . S
H3783 C3777 0.959 . S
H3784 C3777 0.961 . S
H3785 C3777 0.960 . S
H3786 C3778 0.930 . S
H3787 C3779 0.929 . S
H3788 C3796 0.929 . S
H3789 C3798 0.930 . S
H3790 C3800 0.930 . S
H3791 C3803 0.929 . S
H3792 C3806 0.930 . S
H3793 C3808 0.960 . S
H3794 C3808 0.960 . S
H3795 C3808 0.960 . S
C3796 H3788 0.929 . S
C3796 C3797 1.377 . S
C3796 C3798 1.384 . S
C3797 C3796 1.377 . S
C3797 C3803 1.390 . S
C3798 H3789 0.930 . S
C3798 C3796 1.384 . S
C3798 C3799 1.372 . S
C3799 C3798 1.372 . S
C3799 C3800 1.400 . S
C3799 C3804 1.490 . S
C3800 H3790 0.930 . S
C3800 C3799 1.400 . S
C3800 C3803 1.386 . S
H3801 C3817 0.930 . S
H3802 C3818 0.931 . S
C3803 H3791 0.929 . S
C3803 C3797 1.390 . S
C3803 C3800 1.386 . S
C3804 C3799 1.490 . S
C3804 C3806 1.395 . S
C3804 C3807 1.403 . S
H3805 C3811 0.930 . S
C3806 H3792 0.930 . S
C3806 C3804 1.395 . S
C3806 C3809 1.403 . S
C3807 C3804 1.403 . S
C3807 C3808 1.524 . S
C3807 C3811 1.400 . S
C3808 H3793 0.960 . S
C3808 H3794 0.960 . S
C3808 H3795 0.960 . S
C3808 C3807 1.524 . S
C3809 C3806 1.403 . S
C3809 C3810 1.392 . S
C3809 C3813 1.495 . S
C3810 C3809 1.392 . S
C3810 C3811 1.385 . S
C3810 C3812 1.478 . S
C3811 H3805 0.930 . S
C3811 C3807 1.400 . S
C3811 C3810 1.385 . S
C3812 C3810 1.478 . S
C3812 C3814 1.381 . S
C3812 C3818 1.383 . S
C3813 C3809 1.495 . S
C3813 H3819 0.959 . S
C3813 H3820 0.961 . S
C3813 H3821 0.960 . S
C3814 C3812 1.381 . S
C3814 C3815 1.394 . S
C3814 H3822 0.930 . S
C3815 C3814 1.394 . S
C3815 C3816 1.383 . S
C3815 H3823 0.929 . S
C3816 C3815 1.383 . S
C3816 C3817 1.377 . S
C3817 H3801 0.930 . S
C3817 C3816 1.377 . S
C3817 C3818 1.379 . S
C3818 H3802 0.931 . S
C3818 C3812 1.383 . S
C3818 C3817 1.379 . S
H3819 C3813 0.959 . S
H3820 C3813 0.961 . S
H3821 C3813 0.960 . S
H3822 C3814 0.930 . S
H3823 C3815 0.929 . S
H3824 C3832 0.929 . S
H3825 C3834 0.930 . S
H3826 C3836 0.930 . S
H3827 C3839 0.929 . S
H3828 C3842 0.930 . S
H3829 C3844 0.960 . S
H3830 C3844 0.960 . S
H3831 C3844 0.960 . S
C3832 H3824 0.929 . S
C3832 C3833 1.377 . S
C3832 C3834 1.384 . S
C3833 C3832 1.377 . S
C3833 C3839 1.390 . S
C3834 H3825 0.930 . S
C3834 C3832 1.384 . S
C3834 C3835 1.372 . S
C3835 C3834 1.372 . S
C3835 C3836 1.400 . S
C3835 C3840 1.490 . S
C3836 H3826 0.930 . S
C3836 C3835 1.400 . S
C3836 C3839 1.386 . S
H3837 C3853 0.930 . S
H3838 C3854 0.931 . S
C3839 H3827 0.929 . S
C3839 C3833 1.390 . S
C3839 C3836 1.386 . S
C3840 C3835 1.490 . S
C3840 C3842 1.395 . S
C3840 C3843 1.403 . S
H3841 C3847 0.930 . S
C3842 H3828 0.930 . S
C3842 C3840 1.395 . S
C3842 C3845 1.403 . S
C3843 C3840 1.403 . S
C3843 C3844 1.524 . S
C3843 C3847 1.400 . S
C3844 H3829 0.960 . S
C3844 H3830 0.960 . S
C3844 H3831 0.960 . S
C3844 C3843 1.524 . S
C3845 C3842 1.403 . S
C3845 C3846 1.392 . S
C3845 C3849 1.495 . S
C3846 C3845 1.392 . S
C3846 C3847 1.385 . S
C3846 C3848 1.478 . S
C3847 H3841 0.930 . S
C3847 C3843 1.400 . S
C3847 C3846 1.385 . S
C3848 C3846 1.478 . S
C3848 C3850 1.381 . S
C3848 C3854 1.383 . S
C3849 C3845 1.495 . S
C3849 H3855 0.959 . S
C3849 H3856 0.961 . S
C3849 H3857 0.960 . S
C3850 C3848 1.381 . S
C3850 C3851 1.394 . S
C3850 H3858 0.930 . S
C3851 C3850 1.394 . S
C3851 C3852 1.383 . S
C3851 H3859 0.929 . S
C3852 C3851 1.383 . S
C3852 C3853 1.377 . S
C3853 H3837 0.930 . S
C3853 C3852 1.377 . S
C3853 C3854 1.379 . S
C3854 H3838 0.931 . S
C3854 C3848 1.383 . S
C3854 C3853 1.379 . S
H3855 C3849 0.959 . S
H3856 C3849 0.961 . S
H3857 C3849 0.960 . S
H3858 C3850 0.930 . S
H3859 C3851 0.929 . S
H3860 C3868 0.929 . S
H3861 C3870 0.930 . S
H3862 C3872 0.930 . S
H3863 C3875 0.929 . S
H3864 C3878 0.930 . S
H3865 C3880 0.960 . S
H3866 C3880 0.960 . S
H3867 C3880 0.960 . S
C3868 H3860 0.929 . S
C3868 C3869 1.377 . S
C3868 C3870 1.384 . S
C3869 C3868 1.377 . S
C3869 C3875 1.390 . S
C3870 H3861 0.930 . S
C3870 C3868 1.384 . S
C3870 C3871 1.372 . S
C3871 C3870 1.372 . S
C3871 C3872 1.400 . S
C3871 C3876 1.490 . S
C3872 H3862 0.930 . S
C3872 C3871 1.400 . S
C3872 C3875 1.386 . S
H3873 C3889 0.930 . S
H3874 C3890 0.931 . S
C3875 H3863 0.929 . S
C3875 C3869 1.390 . S
C3875 C3872 1.386 . S
C3876 C3871 1.490 . S
C3876 C3878 1.395 . S
C3876 C3879 1.403 . S
H3877 C3883 0.930 . S
C3878 H3864 0.930 . S
C3878 C3876 1.395 . S
C3878 C3881 1.403 . S
C3879 C3876 1.403 . S
C3879 C3880 1.524 . S
C3879 C3883 1.400 . S
C3880 H3865 0.960 . S
C3880 H3866 0.960 . S
C3880 H3867 0.960 . S
C3880 C3879 1.524 . S
C3881 C3878 1.403 . S
C3881 C3882 1.392 . S
C3881 C3885 1.495 1_565 S
C3882 C3881 1.392 . S
C3882 C3883 1.385 . S
C3882 C3884 1.478 . S
C3883 H3877 0.930 . S
C3883 C3879 1.400 . S
C3883 C3882 1.385 . S
C3884 C3882 1.478 . S
C3884 C3886 1.381 . S
C3884 C3890 1.383 . S
C3885 C3881 1.495 1_545 S
C3885 H3891 0.959 . S
C3885 H3892 0.961 . S
C3885 H3893 0.960 . S
C3886 C3884 1.381 . S
C3886 C3887 1.394 1_565 S
C3886 H3894 0.930 1_565 S
C3887 C3886 1.394 1_545 S
C3887 C3888 1.383 . S
C3887 H3895 0.929 . S
C3888 C3887 1.383 . S
C3888 C3889 1.377 1_545 S
C3889 H3873 0.930 . S
C3889 C3888 1.377 1_565 S
C3889 C3890 1.379 . S
C3890 H3874 0.931 . S
C3890 C3884 1.383 . S
C3890 C3889 1.379 . S
H3891 C3885 0.959 . S
H3892 C3885 0.961 . S
H3893 C3885 0.960 . S
H3894 C3886 0.930 1_545 S
H3895 C3887 0.929 . S
H3896 C3904 0.929 . S
H3897 C3906 0.930 . S
H3898 C3908 0.930 . S
H3899 C3911 0.929 . S
H3900 C3914 0.930 . S
H3901 C3916 0.960 . S
H3902 C3916 0.960 . S
H3903 C3916 0.960 . S
C3904 H3896 0.929 . S
C3904 C3905 1.377 . S
C3904 C3906 1.384 . S
C3905 C3904 1.377 . S
C3905 C3911 1.390 . S
C3906 H3897 0.930 . S
C3906 C3904 1.384 . S
C3906 C3907 1.372 . S
C3907 C3906 1.372 . S
C3907 C3908 1.400 . S
C3907 C3912 1.490 . S
C3908 H3898 0.930 . S
C3908 C3907 1.400 . S
C3908 C3911 1.386 . S
H3909 C3925 0.930 . S
H3910 C3926 0.931 . S
C3911 H3899 0.929 . S
C3911 C3905 1.390 . S
C3911 C3908 1.386 . S
C3912 C3907 1.490 . S
C3912 C3914 1.395 . S
C3912 C3915 1.403 . S
H3913 C3919 0.930 . S
C3914 H3900 0.930 . S
C3914 C3912 1.395 . S
C3914 C3917 1.403 . S
C3915 C3912 1.403 . S
C3915 C3916 1.524 . S
C3915 C3919 1.400 . S
C3916 H3901 0.960 . S
C3916 H3902 0.960 . S
C3916 H3903 0.960 . S
C3916 C3915 1.524 . S
C3917 C3914 1.403 . S
C3917 C3918 1.392 . S
C3917 C3921 1.495 . S
C3918 C3917 1.392 . S
C3918 C3919 1.385 . S
C3918 C3920 1.478 . S
C3919 H3913 0.930 . S
C3919 C3915 1.400 . S
C3919 C3918 1.385 . S
C3920 C3918 1.478 . S
C3920 C3922 1.381 . S
C3920 C3926 1.383 . S
C3921 C3917 1.495 . S
C3921 H3927 0.959 . S
C3921 H3928 0.961 . S
C3921 H3929 0.960 . S
C3922 C3920 1.381 . S
C3922 C3923 1.394 . S
C3922 H3930 0.930 . S
C3923 C3922 1.394 . S
C3923 C3924 1.383 . S
C3923 H3931 0.929 . S
C3924 C3923 1.383 . S
C3924 C3925 1.377 . S
C3925 H3909 0.930 . S
C3925 C3924 1.377 . S
C3925 C3926 1.379 . S
C3926 H3910 0.931 . S
C3926 C3920 1.383 . S
C3926 C3925 1.379 . S
H3927 C3921 0.959 . S
H3928 C3921 0.961 . S
H3929 C3921 0.960 . S
H3930 C3922 0.930 . S
H3931 C3923 0.929 . S
H3932 C3940 0.929 . S
H3933 C3942 0.930 . S
H3934 C3944 0.930 . S
H3935 C3947 0.929 . S
H3936 C3950 0.930 . S
H3937 C3952 0.960 . S
H3938 C3952 0.960 . S
H3939 C3952 0.960 . S
C3940 H3932 0.929 . S
C3940 C3941 1.377 . S
C3940 C3942 1.384 . S
C3941 C3940 1.377 . S
C3941 C3947 1.390 1_556 S
C3942 H3933 0.930 . S
C3942 C3940 1.384 . S
C3942 C3943 1.372 . S
C3943 C3942 1.372 . S
C3943 C3944 1.400 1_556 S
C3943 C3948 1.501 . S
C3944 H3934 0.930 . S
C3944 C3943 1.400 1_554 S
C3944 C3947 1.386 . S
H3945 C3961 0.930 . S
H3946 C3962 0.931 . S
C3947 H3935 0.929 . S
C3947 C3941 1.390 1_554 S
C3947 C3944 1.386 . S
C3948 C3943 1.501 . S
C3948 C3950 1.430 . S
C3948 C3951 1.360 1_556 S
H3949 C3955 0.930 . S
C3950 H3936 0.930 . S
C3950 C3948 1.430 . S
C3950 C3953 1.403 . S
C3951 C3948 1.360 1_554 S
C3951 C3952 1.524 . S
C3951 C3955 1.400 . S
C3952 H3937 0.960 . S
C3952 H3938 0.960 . S
C3952 H3939 0.960 . S
C3952 C3951 1.524 . S
C3953 C3950 1.403 . S
C3953 C3954 1.397 . S
C3953 C3957 1.495 . S
C3954 C3953 1.397 . S
C3954 C3955 1.381 1_556 S
C3954 C3956 1.476 1_556 S
C3955 H3949 0.930 . S
C3955 C3951 1.400 . S
C3955 C3954 1.381 1_554 S
C3956 C3954 1.476 1_554 S
C3956 C3958 1.381 1_554 S
C3956 C3962 1.383 . S
C3957 C3953 1.495 . S
C3957 H3963 0.959 . S
C3957 H3964 0.961 . S
C3957 H3965 0.960 . S
C3958 C3956 1.381 1_556 S
C3958 C3959 1.394 . S
C3958 H3966 0.930 . S
C3959 C3958 1.394 . S
C3959 C3960 1.383 1_556 S
C3959 H3967 0.929 . S
C3960 C3959 1.383 1_554 S
C3960 C3961 1.377 . S
C3961 H3945 0.930 . S
C3961 C3960 1.377 . S
C3961 C3962 1.379 . S
C3962 H3946 0.931 . S
C3962 C3956 1.383 . S
C3962 C3961 1.379 . S
H3963 C3957 0.959 . S
H3964 C3957 0.961 . S
H3965 C3957 0.960 . S
H3966 C3958 0.930 . S
H3967 C3959 0.929 . S
H3968 C3976 0.929 . S
H3969 C3978 0.930 . S
H3970 C3980 0.930 . S
H3971 C3983 0.929 . S
H3972 C3986 0.930 . S
H3973 C3988 0.960 . S
H3974 C3988 0.960 . S
H3975 C3988 0.960 . S
C3976 H3968 0.929 . S
C3976 C3977 1.377 . S
C3976 C3978 1.384 . S
C3977 C3976 1.377 . S
C3977 C3983 1.390 . S
C3978 H3969 0.930 . S
C3978 C3976 1.384 . S
C3978 C3979 1.372 . S
C3979 C3978 1.372 . S
C3979 C3980 1.400 . S
C3979 C3984 1.490 . S
C3980 H3970 0.930 . S
C3980 C3979 1.400 . S
C3980 C3983 1.386 . S
H3981 C3997 0.930 . S
H3982 C3998 0.931 . S
C3983 H3971 0.929 . S
C3983 C3977 1.390 . S
C3983 C3980 1.386 . S
C3984 C3979 1.490 . S
C3984 C3986 1.395 . S
C3984 C3987 1.403 . S
H3985 C3991 0.930 . S
C3986 H3972 0.930 . S
C3986 C3984 1.395 . S
C3986 C3989 1.403 . S
C3987 C3984 1.403 . S
C3987 C3988 1.524 . S
C3987 C3991 1.400 . S
C3988 H3973 0.960 . S
C3988 H3974 0.960 . S
C3988 H3975 0.960 . S
C3988 C3987 1.524 . S
C3989 C3986 1.403 . S
C3989 C3990 1.392 . S
C3989 C3993 1.495 . S
C3990 C3989 1.392 . S
C3990 C3991 1.385 . S
C3990 C3992 1.478 . S
C3991 H3985 0.930 . S
C3991 C3987 1.400 . S
C3991 C3990 1.385 . S
C3992 C3990 1.478 . S
C3992 C3994 1.381 . S
C3992 C3998 1.383 . S
C3993 C3989 1.495 . S
C3993 H3999 0.959 . S
C3993 H4000 0.961 . S
C3993 H4001 0.960 . S
C3994 C3992 1.381 . S
C3994 C3995 1.394 . S
C3994 H4002 0.930 . S
C3995 C3994 1.394 . S
C3995 C3996 1.383 . S
C3995 H4003 0.929 . S
C3996 C3995 1.383 . S
C3996 C3997 1.377 . S
C3997 H3981 0.930 . S
C3997 C3996 1.377 . S
C3997 C3998 1.379 . S
C3998 H3982 0.931 . S
C3998 C3992 1.383 . S
C3998 C3997 1.379 . S
H3999 C3993 0.959 . S
H4000 C3993 0.961 . S
H4001 C3993 0.960 . S
H4002 C3994 0.930 . S
H4003 C3995 0.929 . S
H4004 C4012 0.929 . S
H4005 C4014 0.930 . S
H4006 C4016 0.930 1_556 S
H4007 C4019 0.929 1_556 S
H4008 C4022 0.930 . S
H4009 C4024 0.960 . S
H4010 C4024 0.960 . S
H4011 C4024 0.930 1_556 S
C4012 H4004 0.929 . S
C4012 C4013 1.377 . S
C4012 C4014 1.384 . S
C4013 C4012 1.377 . S
C4013 C4019 1.390 . S
C4014 H4005 0.930 . S
C4014 C4012 1.384 . S
C4014 C4015 1.372 . S
C4015 C4014 1.372 . S
C4015 C4016 1.400 . S
C4015 C4020 1.490 . S
C4016 H4006 0.930 1_554 S
C4016 C4015 1.400 . S
C4016 C4019 1.386 . S
H4017 C4033 0.930 . S
H4018 C4034 0.931 . S
C4019 H4007 0.929 1_554 S
C4019 C4013 1.390 . S
C4019 C4016 1.386 . S
C4020 C4015 1.490 . S
C4020 C4022 1.395 . S
C4020 C4023 1.403 . S
H4021 C4027 0.930 . S
C4022 H4008 0.930 . S
C4022 C4020 1.395 . S
C4022 C4025 1.403 . S
C4023 C4020 1.403 . S
C4023 C4024 1.524 . S
C4023 C4027 1.400 . S
C4024 H4009 0.960 . S
C4024 H4010 0.960 . S
C4024 H4011 0.930 1_554 S
C4024 C4023 1.524 . S
C4025 C4022 1.403 . S
C4025 C4026 1.392 . S
C4025 C4029 1.495 . S
C4026 C4025 1.392 . S
C4026 C4027 1.385 . S
C4026 C4028 1.478 . S
C4027 H4021 0.930 . S
C4027 C4023 1.400 . S
C4027 C4026 1.385 . S
C4028 C4026 1.478 . S
C4028 C4030 1.381 . S
C4028 C4034 1.383 1_554 S
C4029 C4025 1.495 . S
C4029 H4035 0.959 . S
C4029 H4036 0.961 . S
C4029 H4037 0.960 . S
C4030 C4028 1.381 . S
C4030 C4031 1.394 . S
C4030 H4038 0.930 . S
C4031 C4030 1.394 . S
C4031 C4032 1.391 . S
C4031 H4039 0.929 . S
C4032 C4031 1.391 . S
C4032 C4033 1.370 1_554 S
C4033 H4017 0.930 . S
C4033 C4032 1.370 1_556 S
C4033 C4034 1.379 . S
C4034 H4018 0.931 . S
C4034 C4028 1.383 1_556 S
C4034 C4033 1.379 . S
H4035 C4029 0.959 . S
H4036 C4029 0.961 . S
H4037 C4029 0.960 . S
H4038 C4030 0.930 . S
H4039 C4031 0.929 . S
H4040 C4048 0.929 . S
H4041 C4050 0.930 . S
H4042 C4052 0.930 . S
H4043 C4055 0.890 1_545 S
H4044 C4058 0.930 . S
H4045 C4060 0.960 . S
H4046 C4060 0.960 . S
H4047 C4060 0.960 . S
C4048 H4040 0.929 . S
C4048 C4049 1.377 . S
C4048 C4050 1.384 . S
C4049 C4048 1.377 . S
C4049 C4055 1.390 . S
C4050 H4041 0.930 . S
C4050 C4048 1.384 . S
C4050 C4051 1.372 . S
C4051 C4050 1.372 . S
C4051 C4052 1.400 . S
C4051 C4056 1.490 . S
C4052 H4042 0.930 . S
C4052 C4051 1.400 . S
C4052 C4055 1.386 . S
H4053 C4069 0.930 . S
H4054 C4070 0.931 . S
C4055 H4043 0.890 1_565 S
C4055 C4049 1.390 . S
C4055 C4052 1.386 . S
C4056 C4051 1.490 . S
C4056 C4058 1.395 . S
C4056 C4059 1.403 . S
H4057 C4063 0.930 . S
C4058 H4044 0.930 . S
C4058 C4056 1.395 . S
C4058 C4061 1.403 . S
C4059 C4056 1.403 . S
C4059 C4060 1.524 . S
C4059 C4063 1.400 . S
C4060 H4045 0.960 . S
C4060 H4046 0.960 . S
C4060 H4047 0.960 . S
C4060 C4059 1.524 . S
C4061 C4058 1.403 . S
C4061 C4062 1.392 . S
C4061 C4065 1.495 . S
C4062 C4061 1.392 . S
C4062 C4063 1.385 . S
C4062 C4064 1.478 . S
C4063 H4057 0.930 . S
C4063 C4059 1.400 . S
C4063 C4062 1.385 . S
C4064 C4062 1.478 . S
C4064 C4066 1.381 . S
C4064 C4070 1.383 . S
C4065 C4061 1.495 . S
C4065 H4071 0.959 . S
C4065 H4072 0.961 . S
C4065 H4073 0.960 . S
C4066 C4064 1.381 . S
C4066 C4067 1.394 . S
C4066 H4074 0.930 . S
C4067 C4066 1.394 . S
C4067 C4068 1.383 . S
C4067 H4075 0.929 . S
C4068 C4067 1.383 . S
C4068 C4069 1.377 . S
C4069 H4053 0.930 . S
C4069 C4068 1.377 . S
C4069 C4070 1.379 . S
C4070 H4054 0.931 . S
C4070 C4064 1.383 . S
C4070 C4069 1.379 . S
H4071 C4065 0.959 . S
H4072 C4065 0.961 . S
H4073 C4065 0.960 . S
H4074 C4066 0.930 . S
H4075 C4067 0.929 . S
H4076 C4084 0.929 . S
H4077 C4086 0.930 . S
H4078 C4088 0.930 . S
H4079 C4091 0.929 . S
H4080 C4094 0.930 . S
H4081 C4096 0.960 . S
H4082 C4096 0.960 . S
H4083 C4096 0.960 . S
C4084 H4076 0.929 . S
C4084 C4085 1.377 . S
C4084 C4086 1.384 . S
C4085 C4084 1.377 . S
C4085 C4091 1.390 . S
C4086 H4077 0.930 . S
C4086 C4084 1.384 . S
C4086 C4087 1.372 . S
C4087 C4086 1.372 . S
C4087 C4088 1.400 . S
C4087 C4092 1.490 . S
C4088 H4078 0.930 . S
C4088 C4087 1.400 . S
C4088 C4091 1.386 . S
H4089 C4105 0.930 . S
H4090 C4106 0.931 . S
C4091 H4079 0.929 . S
C4091 C4085 1.390 . S
C4091 C4088 1.386 . S
C4092 C4087 1.490 . S
C4092 C4094 1.395 . S
C4092 C4095 1.403 . S
H4093 C4099 0.930 . S
C4094 H4080 0.930 . S
C4094 C4092 1.395 . S
C4094 C4097 1.403 . S
C4095 C4092 1.403 . S
C4095 C4096 1.524 . S
C4095 C4099 1.400 . S
C4096 H4081 0.960 . S
C4096 H4082 0.960 . S
C4096 H4083 0.960 . S
C4096 C4095 1.524 . S
C4097 C4094 1.403 . S
C4097 C4098 1.392 . S
C4097 C4101 1.495 . S
C4098 C4097 1.392 . S
C4098 C4099 1.385 . S
C4098 C4100 1.478 . S
C4099 H4093 0.930 . S
C4099 C4095 1.400 . S
C4099 C4098 1.385 . S
C4100 C4098 1.478 . S
C4100 C4102 1.381 . S
C4100 C4106 1.383 . S
C4101 C4097 1.495 . S
C4101 H4107 0.959 . S
C4101 H4108 0.961 . S
C4101 H4109 0.960 . S
C4102 C4100 1.381 . S
C4102 C4103 1.394 . S
C4102 H4110 0.930 . S
C4103 C4102 1.394 . S
C4103 C4104 1.383 . S
C4103 H4111 0.929 . S
C4104 C4103 1.383 . S
C4104 C4105 1.377 . S
C4105 H4089 0.930 . S
C4105 C4104 1.377 . S
C4105 C4106 1.379 . S
C4106 H4090 0.931 . S
C4106 C4100 1.383 . S
C4106 C4105 1.379 . S
H4107 C4101 0.959 . S
H4108 C4101 0.961 . S
H4109 C4101 0.960 . S
H4110 C4102 0.930 . S
H4111 C4103 0.929 . S
C665 C105 1.172 . S
C684 C352 1.191 1_556 S
C701 C65 1.229 . S
C720 C365 1.234 . S
C737 C73 1.261 . S
C756 C384 1.219 . S
C792 C415 1.964 . S
C773 C92 2.005 . S
C809 C17 1.862 . S
C828 C435 1.839 . S
C864 C452 0.734 . S
C845 C37 0.727 . S
C900 C465 1.497 . S
C881 C49 1.453 . S
C917 C8 0.899 . S
C936 C492 0.857 . S
C972 C345 1.097 1_655 S
C953 C231 1.094 . S
C989 C241 1.379 . S
C1008 C375 1.325 . S
C1044 C377 1.660 . S
C1025 C273 1.675 . S
C1080 C412 0.712 . S
C1061 C171 0.745 . S
C1097 C227 1.023 . S
C1116 C432 1.007 . S
C1152 C445 1.776 . S
C1133 C245 1.729 . S
C1188 C475 1.188 . S
C1169 C269 1.196 . S
C1224 C485 1.133 . S
C1205 C175 1.131 . S
C1260 C355 1.547 . S
C1241 C162 1.592 . S
C1277 C289 1.857 . S
C1296 C505 1.838 . S
C1332 C535 1.576 . S
C1313 C330 1.601 . S
C1368 C552 1.121 . S
C1349 C317 1.106 . S
C1385 C120 1.953 . S
C1404 C495 1.918 . S
C1421 C134 1.204 . S
C1440 C382 1.199 . S
C1457 C331 1.876 . S
C1476 C565 1.859 . S
C1512 C592 0.818 . S
C1493 C303 0.787 . S
C1548 C342 1.180 . S
C1529 C59 1.232 . S
C1584 C577 1.240 . S
C1565 C107 1.261 . S
C1601 C91 1.270 . S
C1620 C395 1.269 . S
C1637 C78 2.054 . S
C1656 C564 1.990 . S
C1692 C424 1.856 . S
C1673 C7 1.866 . S
C1709 C51 0.758 . S
C1728 C522 0.798 . S
C1764 C457 1.533 1_556 S
C1745 C31 1.536 . S
C1800 C602 0.930 . S
C1781 C22 0.935 . S
C1836 C337 1.151 . S
C1817 C143 1.170 . S
C1872 C584 1.395 . S
C1853 C315 1.381 . S
C1889 C115 1.764 . S
C1908 C385 1.725 . S
C1925 C287 0.794 . S
C1944 C562 0.767 . S
C1961 C147 1.039 1_565 S
C1980 C422 1.072 . S
C2016 C517 1.816 . S
C1997 C311 1.820 . S
C2033 C119 1.208 . S
C2052 C464 1.183 . S
C2069 C283 1.195 . S
C2088 C597 1.190 . S
C2105 C190 1.632 . S
C2124 C344 1.590 . S
C2141 C177 1.894 . S
C2160 C497 1.887 . S
C2177 C260 1.633 . S
C2196 C444 1.617 . S
C2213 C247 1.155 . S
C2232 C542 1.139 . S
C2268 C604 1.978 . S
C2249 C274 1.994 . S
C2285 C218 1.227 . S
C2304 C392 1.212 1_565 S
C2340 C397 1.891 . S
C2321 C261 1.906 . S
C2376 C362 0.827 . S
C2357 C205 0.836 . S
C2393 C77 1.175 . S
C2412 C632 1.196 . S
C2448 C585 1.237 . S
C2429 C93 1.228 . S
C2465 C101 1.263 . S
C2484 C644 1.219 1_556 S
C2501 C64 2.003 . S
C2520 C575 1.980 . S
C2537 C45 1.862 . S
C2556 C515 1.835 . S
C2592 C532 0.699 . S
C2573 C9 0.728 . S
C2628 C545 1.487 . S
C2609 C21 1.459 . S
C2664 C612 0.902 . S
C2645 C36 0.899 . S
C2700 C625 1.117 . S
C2681 C259 1.093 . S
C2717 C185 1.380 . S
C2736 C595 1.362 . S
C2772 C637 1.701 . S
C2753 C203 1.681 . S
C2808 C572 0.718 . S
C2789 C213 0.740 . S
C2844 C512 0.990 . S
C2825 C255 1.020 . S
C2861 C189 1.737 . S
C2880 C525 1.774 . S
C2916 C555 1.195 . S
C2897 C199 1.196 . S
C2933 C217 1.137 . S
C2952 C605 1.111 . S
C2988 C635 1.581 . S
C2969 C316 1.589 . S
C3005 C135 1.861 . S
C3024 C425 1.845 . S
C3060 C455 1.608 . S
C3041 C148 1.607 . S
C3096 C472 1.108 . S
C3077 C163 1.103 . S
C3132 C615 1.942 . S
C3113 C302 1.950 . S
C3149 C288 1.204 . S
C3168 C642 1.158 . S
C3204 C405 1.856 . S
C3185 C149 1.872 . S
C3240 C372 0.797 . S
C3221 C121 0.784 1_565 S
C3257 C87 1.233 . S
C3276 C622 1.171 . S
C3312 C357 1.247 . S
C3293 C79 1.265 . S
C3329 C63 1.266 . S
C3348 C655 1.288 . S
C3365 C106 2.055 . S
C3384 C404 1.997 . S
C3401 C35 1.868 . S
C3420 C504 1.849 1_556 S
C3456 C442 0.762 . S
C3437 C23 0.760 . S
C3473 C3 1.537 . S
C3492 C537 1.534 . S
C3509 C50 0.934 . S
C3528 C482 0.932 . S
C3564 C617 1.153 . S
C3545 C325 1.172 . S
C3581 C161 1.378 . S
C3600 C364 1.406 . S
C3636 C645 1.711 . S
C3617 C297 1.765 . S
C3653 C133 0.796 . S
C3672 C402 0.829 . S
C3689 C329 1.048 . S
C3708 C502 1.087 . S
C3744 C437 1.803 . S
C3725 C157 1.821 . S
C3761 C301 1.196 . S
C3780 C544 1.234 . S
C3816 C477 1.182 . S
C3797 C129 1.194 . S
C3852 C624 1.614 . S
C3833 C246 1.632 . S
C3888 C417 1.883 . S
C3869 C219 1.891 . S
C3905 C232 1.628 . S
C3924 C524 1.641 . S
C3960 C462 1.166 . S
C3941 C191 1.153 . S
C3977 C204 1.995 . S
C3996 C484 1.969 . S
C4013 C176 1.229 . S
C4032 C652 1.188 . S
C4068 C557 1.895 . S
C4049 C233 1.907 1_565 S
C4104 C582 0.860 . S
C4085 C275 0.831 . S
