# Generated by pormake.
# Topology rtl, (3,6)-cn, num edge types: 1
# Building blocks:
#     Node 0, Type 0, BuildingBlock: WUSLED_clean_sbu_0, # of connection points: 3
#     Node 1, Type 0, BuildingBlock: WUSLED_clean_sbu_0, # of connection points: 3
#     Node 2, Type 0, BuildingBlock: WUSLED_clean_sbu_0, # of connection points: 3
#     Node 3, Type 0, BuildingBlock: WUSLED_clean_sbu_0, # of connection points: 3
#     Node 4, Type 1, BuildingBlock: LEVNOQ01_clean_sbu_1, # of connection points: 6
#     Node 5, Type 1, BuildingBlock: LEVNOQ01_clean_sbu_1, # of connection points: 6
#     Edge 6, Type (0, 1), BuildingBlock: KIFKEQ_clean_linker_1, # of connection points: 2
#     Edge 7, Type (0, 1), BuildingBlock: KIFKEQ_clean_linker_1, # of connection points: 2
#     Edge 8, Type (0, 1), BuildingBlock: KIFKEQ_clean_linker_1, # of connection points: 2
#     Edge 9, Type (0, 1), BuildingBlock: KIFKEQ_clean_linker_1, # of connection points: 2
#     Edge 10, Type (0, 1), BuildingBlock: KIFKEQ_clean_linker_1, # of connection points: 2
#     Edge 11, Type (0, 1), BuildingBlock: KIFKEQ_clean_linker_1, # of connection points: 2
#     Edge 12, Type (0, 1), BuildingBlock: KIFKEQ_clean_linker_1, # of connection points: 2
#     Edge 13, Type (0, 1), BuildingBlock: KIFKEQ_clean_linker_1, # of connection points: 2
#     Edge 14, Type (0, 1), BuildingBlock: KIFKEQ_clean_linker_1, # of connection points: 2
#     Edge 15, Type (0, 1), BuildingBlock: KIFKEQ_clean_linker_1, # of connection points: 2
#     Edge 16, Type (0, 1), BuildingBlock: KIFKEQ_clean_linker_1, # of connection points: 2
#     Edge 17, Type (0, 1), BuildingBlock: KIFKEQ_clean_linker_1, # of connection points: 2
# Relax obj value: 0.023
# Max RMSD: 0.059
# Mean RMSD: 0.042
data_MOF--net-rtl--node1-WUSLED_clean_sbu_0--node2-LEVNOQ01_clean_sbu_1--edge1-KIFKEQ_clean_linker_1
_symmetry_space_group_name_H-M    P1
_symmetry_Int_Tables_number       1
_symmetry_cell_setting            triclinic
loop_
_symmetry_equiv_pos_as_xyz
'x, y, z'
_cell_length_a     41.193688
_cell_length_b     45.370803
_cell_length_c     30.942025
_cell_angle_alpha  90.026147
_cell_angle_beta   98.154019
_cell_angle_gamma 89.758668
loop_
_atom_site_label
_atom_site_type_symbol
_atom_site_fract_x
_atom_site_fract_y
_atom_site_fract_z
_atom_type_partial_charge
C0 C 0.24158 0.90401 0.23519 0.0
C1 C 0.20951 0.91527 0.22691 0.0
C2 C 0.21421 0.93449 0.30125 0.0
C3 C 0.19592 0.93027 0.25965 0.0
C4 C 0.24679 0.92412 0.30868 0.0
C5 C 0.26027 0.90898 0.276 0.0
U6 U 0.24795 0.88207 0.11692 0.0
O7 O 0.25104 0.83823 0.08768 0.0
O8 O 0.29163 0.86939 0.08728 0.0
C9 C 0.28103 0.84239 0.07909 0.0
C10 C 0.25547 0.88609 0.20245 0.0
C11 C 0.30459 0.81846 0.09263 0.0
C12 C 0.32602 0.77987 0.14355 0.0
C13 C 0.30562 0.80442 0.13325 0.0
C14 C 0.34556 0.78399 0.07357 0.0
C15 C 0.34584 0.76905 0.1135 0.0
C16 C 0.3251 0.8084 0.06328 0.0
C17 C 0.19513 0.9235 0.02263 0.0
C18 C 0.16969 0.90783 0.95034 0.0
C19 C 0.18226 0.95934 0.96423 0.0
C20 C 0.19496 0.9526 1.0074 0.0
C21 C 0.16924 0.9371 0.93519 0.0
C22 C 0.18262 0.90106 0.99361 0.0
C23 C 0.20699 0.91765 0.06926 0.0
O24 O 0.23522 0.86749 0.18007 0.0
O25 O 0.27413 0.90017 0.17826 0.0
O26 O 0.23772 0.92449 0.08292 0.0
O27 O 0.19799 0.89269 0.08553 0.0
H28 H 0.19467 0.91181 0.19552 0.0
H29 H 0.17066 0.93757 0.25279 0.0
H30 H 0.2618 0.92737 0.33998 0.0
H31 H 0.28516 0.90065 0.28289 0.0
H32 H 0.32588 0.76906 0.17472 0.0
H33 H 0.29009 0.81197 0.15651 0.0
H34 H 0.36009 0.77607 0.04938 0.0
H35 H 0.3246 0.81892 0.03175 0.0
H36 H 0.16009 0.89017 0.92872 0.0
H37 H 0.18184 0.98217 0.95395 0.0
H38 H 0.20421 0.97031 0.02921 0.0
H39 H 0.18249 0.87836 1.00441 0.0
C40 C 0.67829 0.7009 0.72658 0.0
C41 C 0.65135 0.68337 0.71026 0.0
C42 C 0.64799 0.66503 0.78335 0.0
C43 C 0.63626 0.66568 0.73841 0.0
C44 C 0.67554 0.68207 0.79942 0.0
C45 C 0.69051 0.69997 0.77119 0.0
U46 U 0.68856 0.72221 0.61165 0.0
O47 O 0.69049 0.76564 0.58054 0.0
O48 O 0.73213 0.73503 0.58267 0.0
C49 C 0.72092 0.76181 0.5734 0.0
C50 C 0.6935 0.72008 0.697 0.0
C51 C 0.74353 0.78585 0.58837 0.0
C52 C 0.77923 0.81121 0.64581 0.0
C53 C 0.75696 0.78861 0.6325 0.0
C54 C 0.77416 0.82876 0.57119 0.0
C55 C 0.78822 0.83147 0.61522 0.0
C56 C 0.75204 0.80618 0.55795 0.0
C57 C 0.64096 0.67488 0.5202 0.0
C58 C 0.63567 0.6844 0.44212 0.0
C59 C 0.61998 0.63699 0.46849 0.0
C60 C 0.62848 0.64653 0.51145 0.0
C61 C 0.62379 0.65566 0.43331 0.0
C62 C 0.64439 0.69391 0.48535 0.0
C63 C 0.65086 0.68347 0.56597 0.0
O64 O 0.71434 0.70687 0.6749 0.0
O65 O 0.67307 0.73778 0.67282 0.0
O66 O 0.64009 0.70909 0.57802 0.0
O67 O 0.6817 0.67834 0.58162 0.0
H68 H 0.64183 0.68356 0.67576 0.0
H69 H 0.61539 0.65246 0.725 0.0
H70 H 0.68498 0.68211 0.83392 0.0
H71 H 0.71141 0.71327 0.78423 0.0
H72 H 0.78948 0.81277 0.67996 0.0
H73 H 0.75045 0.77314 0.65648 0.0
H74 H 0.781 0.84357 0.54659 0.0
H75 H 0.74192 0.80433 0.52377 0.0
H76 H 0.63905 0.69918 0.41565 0.0
H77 H 0.61047 0.61489 0.46279 0.0
H78 H 0.62559 0.63159 0.53795 0.0
H79 H 0.65414 0.71589 0.49157 0.0
C80 C 0.80062 0.16963 0.13072 0.0
C81 C 0.82835 0.15244 0.12623 0.0
C82 C 0.83466 0.13947 0.20356 0.0
C83 C 0.84527 0.13763 0.16229 0.0
C84 C 0.80674 0.1567 0.20773 0.0
C85 C 0.78995 0.17164 0.17166 0.0
U86 U 0.77583 0.17899 1.00792 0.0
O87 O 0.72876 0.19226 0.96992 0.0
O88 O 0.77271 0.21891 0.96719 0.0
C89 C 0.74083 0.21667 0.95591 0.0
C90 C 0.78269 0.18554 0.09309 0.0
C91 C 0.72183 0.24367 0.96104 0.0
C92 C 0.70322 0.28205 1.00658 0.0
C93 C 0.72092 0.25606 1.00236 0.0
C94 C 0.6869 0.28339 0.92824 0.0
C95 C 0.6861 0.29614 0.96954 0.0
C96 C 0.70465 0.25741 0.92407 0.0
C97 C 0.80853 0.1238 0.93068 0.0
C98 C 0.80549 0.13194 0.85261 0.0
C99 C 0.82857 0.08643 0.88466 0.0
C100 C 0.82261 0.09605 0.92579 0.0
C101 C 0.82066 0.1045 0.8477 0.0
C102 C 0.79944 0.1415 0.89375 0.0
C103 C 0.80505 0.13454 0.97466 0.0
O104 O 0.80103 0.19919 0.06798 0.0
O105 O 0.75807 0.17125 0.0709 0.0
O106 O 0.77553 0.13276 0.98591 0.0
O107 O 0.81958 0.15972 0.98568 0.0
H108 H 0.83699 0.15054 0.09486 0.0
H109 H 0.86688 0.12496 0.15786 0.0
H110 H 0.79749 0.15829 0.2387 0.0
H111 H 0.76851 0.1847 0.17572 0.0
H112 H 0.70272 0.29098 0.03895 0.0
H113 H 0.73395 0.24566 0.0313 0.0
H114 H 0.67429 0.29377 0.89904 0.0
H115 H 0.70515 0.24815 0.89189 0.0
H116 H 0.79876 0.14624 0.82472 0.0
H117 H 0.84062 0.06535 0.88216 0.0
H118 H 0.8298 0.08213 0.95399 0.0
H119 H 0.78837 0.16296 0.89691 0.0
C120 C 0.29449 0.36964 0.40469 0.0
C121 C 0.31789 0.39183 0.41512 0.0
C122 C 0.32194 0.39844 0.33794 0.0
C123 C 0.33146 0.40619 0.38196 0.0
C124 C 0.29761 0.37689 0.32773 0.0
C125 C 0.28402 0.36262 0.36088 0.0
U126 U 0.29338 0.34981 0.52461 0.0
O127 O 0.25149 0.33767 0.55784 0.0
O128 O 0.29169 0.30613 0.55475 0.0
C129 C 0.26197 0.31042 0.56445 0.0
C130 C 0.2822 0.35246 0.43904 0.0
C131 C 0.23792 0.28744 0.54938 0.0
C132 C 0.21411 0.25238 0.49441 0.0
C133 C 0.23717 0.27424 0.50814 0.0
C134 C 0.19193 0.25721 0.56256 0.0
C135 C 0.19118 0.24372 0.52146 0.0
C136 C 0.21513 0.27883 0.57638 0.0
C137 C 0.34751 0.39088 0.61596 0.0
C138 C 0.36547 0.37327 0.68987 0.0
C139 C 0.36389 0.42567 0.67464 0.0
C140 C 0.35267 0.41992 0.6307 0.0
C141 C 0.37036 0.40243 0.70476 0.0
C142 C 0.35394 0.36754 0.64587 0.0
C143 C 0.33523 0.38565 0.56945 0.0
O144 O 0.30368 0.3344 0.46061 0.0
O145 O 0.26482 0.36714 0.4644 0.0
O146 O 0.30429 0.39257 0.55705 0.0
O147 O 0.34394 0.36063 0.55281 0.0
H148 H 0.32629 0.39742 0.4489 0.0
H149 H 0.35042 0.42244 0.3909 0.0
H150 H 0.28952 0.37068 0.29414 0.0
H151 H 0.26589 0.34557 0.35235 0.0
H152 H 0.21394 0.24251 0.46249 0.0
H153 H 0.2544 0.28082 0.48658 0.0
H154 H 0.17487 0.25071 0.58438 0.0
H155 H 0.21531 0.28881 0.60824 0.0
H156 H 0.36995 0.35496 0.71239 0.0
H157 H 0.36776 0.44834 0.685 0.0
H158 H 0.34791 0.43822 0.60817 0.0
H159 H 0.34991 0.34491 0.63534 0.0
O160 O 0.96405 0.08207 0.61454 0.0
Mg161 Mg 0.01397 0.07541 0.61303 0.0
O162 O 0.95777 0.0357 0.59409 0.0
Mg163 Mg 0.00231 0.02131 0.55733 0.0
O164 O 0.02676 0.06742 0.55286 0.0
O165 O 0.03712 0.10982 0.58964 0.0
O166 O 0.04673 1.00586 0.52111 0.0
O167 O 0.96987 0.03504 0.49159 0.0
Mg168 Mg 0.98548 0.96775 0.49725 0.0
O169 O 0.97794 0.97533 0.56026 0.0
O170 O 0.03475 0.96259 0.4901 0.0
O171 O 0.95572 0.99516 0.45238 0.0
O172 O 0.96456 0.93323 0.5245 0.0
C173 C 0.04669 0.02218 0.65835 0.0
C174 C 0.94664 0.05918 0.60959 0.0
C175 C 0.03906 0.09384 0.5556 0.0
C176 C 0.05489 0.98322 0.50035 0.0
C177 C 0.95447 0.02286 0.45747 0.0
C178 C 0.96495 0.94921 0.5591 0.0
O179 O 0.04151 0.04958 0.66205 0.0
O180 O 0.03482 1.00832 0.62368 0.0
O181 O 0.5722 0.52104 0.16486 0.0
Mg182 Mg 0.54975 0.48335 0.13588 0.0
O183 O 0.53329 0.54845 0.12818 0.0
Mg184 Mg 0.50503 0.5196 0.07098 0.0
O185 O 0.54504 0.48254 0.0691 0.0
O186 O 0.5804 0.4542 0.11315 0.0
O187 O 0.48005 0.48827 1.01288 0.0
O188 O 0.53265 0.54527 0.02326 0.0
Mg189 Mg 0.45811 0.53831 1.01704 0.0
O190 O 0.46625 0.55932 0.0758 0.0
O191 O 0.42889 0.5003 1.01048 0.0
O192 O 0.4907 0.54825 0.97097 0.0
O193 O 0.42733 0.57229 1.02041 0.0
C194 C 0.48042 0.47488 0.14823 0.0
C195 C 0.55822 0.54575 0.15764 0.0
C196 C 0.56775 0.46222 0.07439 0.0
C197 C 0.44994 0.48257 1.00004 0.0
C198 C 0.52099 0.55196 0.98417 0.0
C199 C 0.44184 0.57629 0.05964 0.0
O200 O 0.50918 0.46557 0.16109 0.0
O201 O 0.47518 0.49415 0.11798 0.0
H202 H 0.20111 0.19029 0.48376 0.0
H203 H 0.12604 0.24451 0.52808 0.0
H204 H 0.16206 0.14963 0.47028 0.0
H205 H 0.08753 0.20407 0.51602 0.0
H206 H 0.01853 0.13549 0.49561 0.0
H207 H 0.05494 0.17096 0.46794 0.0
H208 H 0.13843 0.11741 0.51993 0.0
H209 H 0.10169 0.08157 0.54571 0.0
C210 C 0.1761 0.19369 0.4898 0.0
C211 C 0.16671 0.22041 0.5076 0.0
C212 C 0.1538 0.17038 0.48228 0.0
C213 C 0.12164 0.17346 0.49211 0.0
C214 C 0.11187 0.20089 0.50737 0.0
C215 C 0.13411 0.22403 0.515 0.0
C216 C 0.04452 0.13053 0.49862 0.0
C217 C 0.05746 0.10593 0.52258 0.0
C218 C 0.06545 0.15103 0.48344 0.0
C219 C 0.09968 0.14755 0.49303 0.0
C220 C 0.11225 0.12089 0.51196 0.0
C221 C 0.0912 0.10019 0.5266 0.0
H222 H 0.32601 0.71813 0.14902 0.0
H223 H 0.40785 0.75608 0.09586 0.0
H224 H 0.35248 0.6699 0.15107 0.0
H225 H 0.43388 0.70758 0.09679 0.0
H226 H 0.37915 0.59261 0.06118 0.0
H227 H 0.35929 0.63874 0.08765 0.0
H228 H 0.45854 0.66317 0.13903 0.0
H229 H 0.47851 0.61623 0.11247 0.0
C230 C 0.35001 0.71637 0.13877 0.0
C231 C 0.36458 0.74094 0.1217 0.0
C232 C 0.36508 0.68866 0.13968 0.0
C233 C 0.39511 0.68483 0.12364 0.0
C234 C 0.41085 0.70978 0.1096 0.0
C235 C 0.39572 0.73751 0.10855 0.0
C236 C 0.39666 0.60746 0.07922 0.0
C237 C 0.43033 0.60097 0.08468 0.0
C238 C 0.38527 0.63387 0.0946 0.0
C239 C 0.40733 0.65473 0.1153 0.0
C240 C 0.44098 0.64756 0.12299 0.0
C241 C 0.45239 0.62068 0.10817 0.0
H242 H 0.7885 0.8889 0.58825 0.0
H243 H 0.84586 0.82547 0.67097 0.0
H244 H 0.835 0.92217 0.59566 0.0
H245 H 0.89208 0.8594 0.68009 0.0
H246 H 0.96911 0.89455 0.59303 0.0
H247 H 0.92665 0.87014 0.62617 0.0
H248 H 0.87685 0.9536 0.63453 0.0
H249 H 0.9198 0.97801 0.60049 0.0
C250 C 0.81082 0.88236 0.60891 0.0
C251 C 0.81374 0.8542 0.62801 0.0
C252 C 0.8374 0.90169 0.6138 0.0
C253 C 0.86754 0.89334 0.63802 0.0
C254 C 0.86938 0.86634 0.66065 0.0
C255 C 0.84279 0.84694 0.65563 0.0
C256 C 0.94988 0.90787 0.60383 0.0
C257 C 0.94746 0.93802 0.59391 0.0
C258 C 0.92546 0.8939 0.62299 0.0
C259 C 0.89785 0.90977 0.63219 0.0
C260 C 0.89751 0.94066 0.6271 0.0
C261 C 0.92228 0.95474 0.60815 0.0
H262 H 0.62559 0.3127 0.92689 0.0
H263 H 0.7051 0.343 0.02248 0.0
H264 H 0.59482 0.35775 0.93724 0.0
H265 H 0.67406 0.38717 0.03409 0.0
H266 H 0.62431 0.47055 0.04168 0.0
H267 H 0.65263 0.43294 1.00443 0.0
H268 H 0.56621 0.37822 0.99345 0.0
H269 H 0.53778 0.41652 0.0292 0.0
C270 C 0.63665 0.32907 0.94981 0.0
C271 C 0.66774 0.3241 0.97413 0.0
C272 C 0.6189 0.35481 0.95594 0.0
C273 C 0.63191 0.37624 0.98638 0.0
C274 C 0.66339 0.37151 1.00977 0.0
C275 C 0.68104 0.34586 1.00368 0.0
C276 C 0.61092 0.45113 0.02911 0.0
C277 C 0.57883 0.44648 0.03769 0.0
C278 C 0.62727 0.42932 1.00852 0.0
C279 C 0.61204 0.40215 0.997 0.0
C280 C 0.57874 0.39883 1.00171 0.0
C281 C 0.56229 0.42084 1.02195 0.0
H282 H 0.22238 0.91805 0.38733 0.0
H283 H 0.17023 0.98063 0.29741 0.0
H284 H 0.19201 0.93515 0.44444 0.0
H285 H 0.13867 0.99674 0.3542 0.0
H286 H 0.09059 0.02722 0.46844 0.0
H287 H 0.13624 0.0202 0.4261 0.0
H288 H 0.13544 0.92671 0.45263 0.0
H289 H 0.09055 0.9338 0.4945 0.0
C290 C 0.20491 0.93585 0.37985 0.0
C291 C 0.19854 0.94767 0.33744 0.0
C292 C 0.18725 0.94549 0.41261 0.0
C293 C 0.1626 0.96707 0.40382 0.0
C294 C 0.15759 0.9802 0.36223 0.0
C295 C 0.17536 0.97062 0.32943 0.0
C296 C 0.10102 1.0054 0.46628 0.0
C297 C 0.087 0.98102 0.4845 0.0
C298 C 0.12687 1.00131 0.4417 0.0
C299 C 0.13935 0.97285 0.43565 0.0
C300 C 0.12679 0.94896 0.45685 0.0
C301 C 0.1009 0.95299 0.48077 0.0
H302 H 0.67485 0.62838 0.84949 0.0
H303 H 0.58227 0.66195 0.78503 0.0
H304 H 0.64587 0.59868 0.89771 0.0
H305 H 0.5534 0.63301 0.83347 0.0
H306 H 0.50729 0.55832 0.89595 0.0
H307 H 0.53956 0.58358 0.84754 0.0
H308 H 0.61408 0.60225 0.95703 0.0
H309 H 0.58216 0.57593 1.00535 0.0
C310 C 0.64833 0.62955 0.84588 0.0
C311 C 0.63079 0.64729 0.8133 0.0
C312 C 0.63173 0.6126 0.87351 0.0
C313 C 0.59726 0.61322 0.86928 0.0
C314 C 0.57988 0.63135 0.83701 0.0
C315 C 0.59642 0.64805 0.80929 0.0
C316 C 0.53068 0.56762 0.90968 0.0
C317 C 0.54203 0.56535 0.95456 0.0
C318 C 0.54911 0.58229 0.88195 0.0
C319 C 0.57921 0.5954 0.89844 0.0
C320 C 0.59112 0.59227 0.94314 0.0
C321 C 0.57276 0.57729 0.97089 0.0
H322 H 0.84702 0.15738 0.28934 0.0
H323 H 0.86242 0.08439 0.20471 0.0
H324 H 0.87451 0.1299 0.35187 0.0
H325 H 0.89144 0.05774 0.26654 0.0
H326 H 0.91035 1.00367 0.38932 0.0
H327 H 0.88106 0.03233 0.32989 0.0
H328 H 0.92695 0.11178 0.38573 0.0
H329 H 0.95564 0.083 0.44634 0.0
C330 C 0.85625 0.1355 0.28398 0.0
C331 C 0.85232 0.12314 0.24182 0.0
C332 C 0.87243 0.11988 0.31983 0.0
C333 C 0.88515 0.0915 0.31445 0.0
C334 C 0.88152 0.07932 0.2722 0.0
C335 C 0.86525 0.09484 0.23648 0.0
C336 C 0.91417 0.02727 0.38912 0.0
C337 C 0.93553 0.04098 0.42256 0.0
C338 C 0.89749 0.04374 0.35476 0.0
C339 C 0.90188 0.07439 0.35253 0.0
C340 C 0.92273 0.08826 0.38648 0.0
C341 C 0.9393 0.07175 0.42119 0.0
H342 H 0.34603 0.44369 0.7556 0.0
H343 H 0.42014 0.37578 0.75967 0.0
H344 H 0.36584 0.45644 0.83107 0.0
H345 H 0.43982 0.38829 0.83602 0.0
H346 H 0.48808 0.45547 0.94565 0.0
H347 H 0.4684 0.43088 0.87657 0.0
H348 H 0.36903 0.43675 0.90541 0.0
H349 H 0.38852 0.46162 0.97383 0.0
C350 C 0.36651 0.4314 0.77274 0.0
C351 C 0.38163 0.40886 0.75159 0.0
C352 C 0.37764 0.43845 0.8162 0.0
C353 C 0.4043 0.42324 0.8397 0.0
C354 C 0.41928 0.40044 0.81876 0.0
C355 C 0.40789 0.39317 0.7752 0.0
C356 C 0.46215 0.45074 0.93781 0.0
C357 C 0.43979 0.46097 0.96483 0.0
C358 C 0.45087 0.43666 0.89819 0.0
C359 C 0.41706 0.43251 0.88506 0.0
C360 C 0.39513 0.4403 0.91408 0.0
C361 C 0.40635 0.45438 0.95345 0.0
H362 H 0.58905 0.68282 0.36157 0.0
H363 H 0.64196 0.60297 0.40256 0.0
H364 H 0.57491 0.66226 0.28783 0.0
H365 H 0.62745 0.58236 0.33009 0.0
H366 H 0.62063 0.55641 0.19413 0.0
H367 H 0.63867 0.58844 0.25583 0.0
H368 H 0.5398 0.62154 0.25173 0.0
H369 H 0.52189 0.58986 0.18861 0.0
C370 C 0.59787 0.66104 0.35471 0.0
C371 C 0.61644 0.64442 0.38788 0.0
C372 C 0.58961 0.64921 0.31267 0.0
C373 C 0.60021 0.62075 0.30298 0.0
C374 C 0.61931 0.60453 0.33609 0.0
C375 C 0.62732 0.6162 0.37788 0.0
C376 C 0.6029 0.57111 0.20565 0.0
C377 C 0.56979 0.57036 0.18705 0.0
C378 C 0.61319 0.58932 0.24118 0.0
C379 C 0.59051 0.60693 0.25945 0.0
C380 C 0.55787 0.60818 0.23845 0.0
C381 C 0.54759 0.59008 0.20232 0.0
H382 H 0.84864 0.13913 0.79146 0.0
H383 H 0.81611 0.05004 0.80802 0.0
H384 H 0.87027 0.1246 0.72586 0.0
H385 H 0.83738 0.03534 0.74125 0.0
H386 H 0.92713 0.01822 0.66471 0.0
H387 H 0.88914 0.0272 0.71711 0.0
H388 H 0.86005 0.10967 0.65271 0.0
H389 H 0.89939 0.10124 0.60215 0.0
C390 C 0.84532 0.11654 0.78042 0.0
C391 C 0.83063 0.09578 0.80505 0.0
C392 C 0.85766 0.10814 0.7425 0.0
C393 C 0.85548 0.07873 0.72781 0.0
C394 C 0.83983 0.05809 0.75173 0.0
C395 C 0.82762 0.06651 0.78998 0.0
C396 C 0.91165 0.03768 0.66084 0.0
C397 C 0.91629 0.05916 0.6297 0.0
C398 C 0.8899 0.04295 0.691 0.0
C399 C 0.87215 0.06964 0.69005 0.0
C400 C 0.87412 0.08938 0.65544 0.0
C401 C 0.89628 0.08438 0.626 0.0
H402 H 0.34414 0.36891 0.27118 0.0
H403 H 0.33956 0.45593 0.32681 0.0
H404 H 0.37804 0.38783 0.21907 0.0
H405 H 0.37409 0.47478 0.27484 0.0
H406 H 0.42026 0.50037 0.15179 0.0
H407 H 0.37724 0.4826 0.19257 0.0
H408 H 0.43636 0.40608 0.23343 0.0
H409 H 0.4791 0.42371 0.19334 0.0
C410 C 0.34982 0.39221 0.27174 0.0
C411 C 0.33932 0.41091 0.30328 0.0
C412 C 0.36944 0.40297 0.2421 0.0
C413 C 0.37885 0.4327 0.24315 0.0
C414 C 0.36703 0.45179 0.27318 0.0
C415 C 0.34757 0.44095 0.30315 0.0
C416 C 0.42382 0.47961 0.16913 0.0
C417 C 0.45309 0.46348 0.16956 0.0
C418 C 0.39932 0.46955 0.19258 0.0
C419 C 0.40348 0.44295 0.21602 0.0
C420 C 0.43232 0.42649 0.21526 0.0
C421 C 0.4569 0.4367 0.19252 0.0
H422 H 0.11204 0.91646 0.88873 0.0
H423 H 0.19266 0.97549 0.87905 0.0
H424 H 0.08457 0.93399 0.81806 0.0
H425 H 0.16529 0.99294 0.8087 0.0
H426 H 0.0851 0.04735 0.72699 0.0
H427 H 0.11642 0.02358 0.78959 0.0
H428 H 0.086 0.93826 0.73714 0.0
H429 H 0.05398 0.96233 0.6737 0.0
C430 C 0.12421 0.93273 0.87115 0.0
C431 C 0.15434 0.9449 0.88988 0.0
C432 C 0.10847 0.94275 0.83063 0.0
C433 C 0.12252 0.96515 0.80802 0.0
C434 C 0.15346 0.9761 0.82569 0.0
C435 C 0.16914 0.96613 0.86607 0.0
C436 C 0.08506 0.0235 0.72845 0.0
C437 C 0.06688 1.00677 0.69523 0.0
C438 C 0.10333 1.00984 0.76433 0.0
C439 C 0.10394 0.979 0.76831 0.0
C440 C 0.08594 0.96209 0.73506 0.0
C441 C 0.06775 0.97585 0.69867 0.0
loop_
_geom_bond_atom_site_label_1
_geom_bond_atom_site_label_2
_geom_bond_distance
_geom_bond_site_symmetry_2
_ccdc_geom_bond_type
C0 C1 1.264 . S
C0 C5 1.479 . S
C0 C10 1.465 . S
C1 C0 1.264 . S
C1 C3 1.339 . S
C1 H28 0.931 . S
C2 C3 1.395 . S
C2 C4 1.320 . S
C3 C1 1.339 . S
C3 C2 1.395 . S
C3 H29 0.929 . S
C4 C2 1.320 . S
C4 C5 1.405 . S
C4 H30 0.930 . S
C5 C0 1.479 . S
C5 C4 1.405 . S
C5 H31 0.931 . S
U6 O7 2.454 . S
U6 O8 2.458 . S
U6 C9 2.984 . S
U6 C10 2.847 . S
U6 C23 2.882 . S
U6 O24 2.441 . S
U6 O25 2.420 . S
U6 O26 2.455 . S
U6 O27 2.449 . S
O7 U6 2.454 . S
O7 C9 1.353 . S
O8 U6 2.458 . S
O8 C9 1.286 . S
C9 U6 2.984 . S
C9 O7 1.353 . S
C9 O8 1.286 . S
C9 C11 1.363 . S
C10 C0 1.465 . S
C10 U6 2.847 . S
C10 O24 1.249 . S
C10 O25 1.202 . S
C11 C9 1.363 . S
C11 C13 1.408 . S
C11 C16 1.342 . S
C12 C13 1.310 . S
C12 C15 1.461 . S
C12 H32 0.932 . S
C13 C11 1.408 . S
C13 C12 1.310 . S
C13 H33 0.930 . S
C14 C15 1.474 . S
C14 C16 1.285 . S
C14 H34 0.929 . S
C15 C12 1.461 . S
C15 C14 1.474 . S
C16 C11 1.342 . S
C16 C14 1.285 . S
C16 H35 0.930 . S
C17 C20 1.424 . S
C17 C22 1.245 . S
C17 C23 1.428 1_556 S
C18 C21 1.260 . S
C18 C22 1.477 . S
C18 H36 0.932 . S
C19 C20 1.384 . S
C19 C21 1.479 . S
C19 H37 0.929 . S
C20 C17 1.424 . S
C20 C19 1.384 . S
C20 H38 0.928 1_556 S
C21 C18 1.260 . S
C21 C19 1.479 . S
C22 C17 1.245 . S
C22 C18 1.477 . S
C22 H39 0.932 . S
C23 U6 2.882 . S
C23 C17 1.428 1_554 S
C23 O26 1.301 . S
C23 O27 1.282 . S
O24 U6 2.441 . S
O24 C10 1.249 . S
O25 U6 2.420 . S
O25 C10 1.202 . S
O26 U6 2.455 . S
O26 C23 1.301 . S
O27 U6 2.449 . S
O27 C23 1.282 . S
H28 C1 0.931 . S
H29 C3 0.929 . S
H30 C4 0.930 . S
H31 C5 0.931 . S
H32 C12 0.932 . S
H33 C13 0.930 . S
H34 C14 0.929 . S
H35 C16 0.930 . S
H36 C18 0.932 . S
H37 C19 0.929 . S
H38 C20 0.928 1_554 S
H39 C22 0.932 . S
C40 C41 1.264 . S
C40 C45 1.479 . S
C40 C50 1.465 . S
C41 C40 1.264 . S
C41 C43 1.339 . S
C41 H68 0.931 . S
C42 C43 1.395 . S
C42 C44 1.320 . S
C43 C41 1.339 . S
C43 C42 1.395 . S
C43 H69 0.929 . S
C44 C42 1.320 . S
C44 C45 1.405 . S
C44 H70 0.930 . S
C45 C40 1.479 . S
C45 C44 1.405 . S
C45 H71 0.931 . S
U46 O47 2.454 . S
U46 O48 2.458 . S
U46 C49 2.984 . S
U46 C50 2.847 . S
U46 C63 2.882 . S
U46 O64 2.441 . S
U46 O65 2.420 . S
U46 O66 2.455 . S
U46 O67 2.449 . S
O47 U46 2.454 . S
O47 C49 1.353 . S
O48 U46 2.458 . S
O48 C49 1.286 . S
C49 U46 2.984 . S
C49 O47 1.353 . S
C49 O48 1.286 . S
C49 C51 1.363 . S
C50 C40 1.465 . S
C50 U46 2.847 . S
C50 O64 1.249 . S
C50 O65 1.202 . S
C51 C49 1.363 . S
C51 C53 1.408 . S
C51 C56 1.342 . S
C52 C53 1.310 . S
C52 C55 1.461 . S
C52 H72 0.932 . S
C53 C51 1.408 . S
C53 C52 1.310 . S
C53 H73 0.930 . S
C54 C55 1.474 . S
C54 C56 1.285 . S
C54 H74 0.929 . S
C55 C52 1.461 . S
C55 C54 1.474 . S
C56 C51 1.342 . S
C56 C54 1.285 . S
C56 H75 0.930 . S
C57 C60 1.424 . S
C57 C62 1.245 . S
C57 C63 1.428 . S
C58 C61 1.260 . S
C58 C62 1.477 . S
C58 H76 0.932 . S
C59 C60 1.384 . S
C59 C61 1.479 . S
C59 H77 0.929 . S
C60 C57 1.424 . S
C60 C59 1.384 . S
C60 H78 0.928 . S
C61 C58 1.260 . S
C61 C59 1.479 . S
C62 C57 1.245 . S
C62 C58 1.477 . S
C62 H79 0.932 . S
C63 U46 2.882 . S
C63 C57 1.428 . S
C63 O66 1.301 . S
C63 O67 1.282 . S
O64 U46 2.441 . S
O64 C50 1.249 . S
O65 U46 2.420 . S
O65 C50 1.202 . S
O66 U46 2.455 . S
O66 C63 1.301 . S
O67 U46 2.449 . S
O67 C63 1.282 . S
H68 C41 0.931 . S
H69 C43 0.929 . S
H70 C44 0.930 . S
H71 C45 0.931 . S
H72 C52 0.932 . S
H73 C53 0.930 . S
H74 C54 0.929 . S
H75 C56 0.930 . S
H76 C58 0.932 . S
H77 C59 0.929 . S
H78 C60 0.928 . S
H79 C62 0.932 . S
C80 C81 1.264 . S
C80 C85 1.479 . S
C80 C90 1.465 . S
C81 C80 1.264 . S
C81 C83 1.339 . S
C81 H108 0.931 . S
C82 C83 1.395 . S
C82 C84 1.320 . S
C83 C81 1.339 . S
C83 C82 1.395 . S
C83 H109 0.929 . S
C84 C82 1.320 . S
C84 C85 1.405 . S
C84 H110 0.930 . S
C85 C80 1.479 . S
C85 C84 1.405 . S
C85 H111 0.931 . S
U86 O87 2.454 . S
U86 O88 2.458 1_554 S
U86 C89 2.984 1_554 S
U86 C90 2.847 . S
U86 C103 2.882 1_554 S
U86 O104 2.441 . S
U86 O105 2.420 . S
U86 O106 2.455 1_554 S
U86 O107 2.449 1_554 S
O87 U86 2.454 . S
O87 C89 1.353 1_554 S
O88 U86 2.458 1_556 S
O88 C89 1.286 . S
C89 U86 2.984 1_556 S
C89 O87 1.353 1_556 S
C89 O88 1.286 . S
C89 C91 1.363 . S
C90 C80 1.465 . S
C90 U86 2.847 . S
C90 O104 1.249 . S
C90 O105 1.202 . S
C91 C89 1.363 . S
C91 C93 1.408 1_556 S
C91 C96 1.342 . S
C92 C93 1.310 . S
C92 C95 1.461 1_554 S
C92 H112 0.932 . S
C93 C91 1.408 1_554 S
C93 C92 1.310 . S
C93 H113 0.930 . S
C94 C95 1.474 . S
C94 C96 1.285 . S
C94 H114 0.929 . S
C95 C92 1.461 1_556 S
C95 C94 1.474 . S
C96 C91 1.342 . S
C96 C94 1.285 . S
C96 H115 0.930 . S
C97 C100 1.424 . S
C97 C102 1.245 . S
C97 C103 1.428 . S
C98 C101 1.260 . S
C98 C102 1.477 . S
C98 H116 0.932 . S
C99 C100 1.384 . S
C99 C101 1.479 . S
C99 H117 0.929 . S
C100 C97 1.424 . S
C100 C99 1.384 . S
C100 H118 0.928 . S
C101 C98 1.260 . S
C101 C99 1.479 . S
C102 C97 1.245 . S
C102 C98 1.477 . S
C102 H119 0.932 . S
C103 U86 2.882 1_556 S
C103 C97 1.428 . S
C103 O106 1.301 . S
C103 O107 1.282 . S
O104 U86 2.441 . S
O104 C90 1.249 . S
O105 U86 2.420 . S
O105 C90 1.202 . S
O106 U86 2.455 1_556 S
O106 C103 1.301 . S
O107 U86 2.449 1_556 S
O107 C103 1.282 . S
H108 C81 0.931 . S
H109 C83 0.929 . S
H110 C84 0.930 . S
H111 C85 0.931 . S
H112 C92 0.932 . S
H113 C93 0.930 . S
H114 C94 0.929 . S
H115 C96 0.930 . S
H116 C98 0.932 . S
H117 C99 0.929 . S
H118 C100 0.928 . S
H119 C102 0.932 . S
C120 C121 1.264 . S
C120 C125 1.479 . S
C120 C130 1.465 . S
C121 C120 1.264 . S
C121 C123 1.339 . S
C121 H148 0.931 . S
C122 C123 1.395 . S
C122 C124 1.320 . S
C123 C121 1.339 . S
C123 C122 1.395 . S
C123 H149 0.929 . S
C124 C122 1.320 . S
C124 C125 1.405 . S
C124 H150 0.930 . S
C125 C120 1.479 . S
C125 C124 1.405 . S
C125 H151 0.931 . S
U126 O127 2.454 . S
U126 O128 2.458 . S
U126 C129 2.984 . S
U126 C130 2.847 . S
U126 C143 2.882 . S
U126 O144 2.441 . S
U126 O145 2.420 . S
U126 O146 2.455 . S
U126 O147 2.449 . S
O127 U126 2.454 . S
O127 C129 1.353 . S
O128 U126 2.458 . S
O128 C129 1.286 . S
C129 U126 2.984 . S
C129 O127 1.353 . S
C129 O128 1.286 . S
C129 C131 1.363 . S
C130 C120 1.465 . S
C130 U126 2.847 . S
C130 O144 1.249 . S
C130 O145 1.202 . S
C131 C129 1.363 . S
C131 C133 1.408 . S
C131 C136 1.342 . S
C132 C133 1.310 . S
C132 C135 1.461 . S
C132 H152 0.932 . S
C133 C131 1.408 . S
C133 C132 1.310 . S
C133 H153 0.930 . S
C134 C135 1.474 . S
C134 C136 1.285 . S
C134 H154 0.929 . S
C135 C132 1.461 . S
C135 C134 1.474 . S
C136 C131 1.342 . S
C136 C134 1.285 . S
C136 H155 0.930 . S
C137 C140 1.424 . S
C137 C142 1.245 . S
C137 C143 1.428 . S
C138 C141 1.260 . S
C138 C142 1.477 . S
C138 H156 0.932 . S
C139 C140 1.384 . S
C139 C141 1.479 . S
C139 H157 0.929 . S
C140 C137 1.424 . S
C140 C139 1.384 . S
C140 H158 0.928 . S
C141 C138 1.260 . S
C141 C139 1.479 . S
C142 C137 1.245 . S
C142 C138 1.477 . S
C142 H159 0.932 . S
C143 U126 2.882 . S
C143 C137 1.428 . S
C143 O146 1.301 . S
C143 O147 1.282 . S
O144 U126 2.441 . S
O144 C130 1.249 . S
O145 U126 2.420 . S
O145 C130 1.202 . S
O146 U126 2.455 . S
O146 C143 1.301 . S
O147 U126 2.449 . S
O147 C143 1.282 . S
H148 C121 0.931 . S
H149 C123 0.929 . S
H150 C124 0.930 . S
H151 C125 0.931 . S
H152 C132 0.932 . S
H153 C133 0.930 . S
H154 C134 0.929 . S
H155 C136 0.930 . S
H156 C138 0.932 . S
H157 C139 0.929 . S
H158 C140 0.928 . S
H159 C142 0.932 . S
O160 Mg161 1.990 1_655 S
O160 C174 1.253 . S
Mg161 O160 1.990 1_455 S
Mg161 O164 2.180 . S
Mg161 O165 2.117 . S
Mg161 O179 2.030 . S
O162 Mg163 2.072 1_655 S
O162 C174 1.260 . S
Mg163 O162 2.072 1_455 S
Mg163 O164 2.099 . S
Mg163 O166 2.079 1_545 S
Mg163 O167 2.072 1_455 S
Mg163 O169 2.099 1_445 S
Mg163 O180 2.079 1_545 S
O164 Mg161 2.180 . S
O164 Mg163 2.099 . S
O164 C175 1.279 . S
O165 Mg161 2.117 . S
O165 C175 1.250 . S
O166 Mg163 2.079 1_565 S
O166 C176 1.264 . S
O167 Mg163 2.072 1_655 S
O167 C177 1.260 . S
Mg168 O169 2.180 . S
Mg168 O170 2.030 1_655 S
Mg168 O171 1.990 1_565 S
Mg168 O172 2.117 . S
O169 Mg163 2.099 1_665 S
O169 Mg168 2.180 . S
O169 C178 1.279 . S
O170 Mg168 2.030 1_455 S
O170 C176 1.248 . S
O171 Mg168 1.990 1_545 S
O171 C177 1.253 . S
O172 Mg168 2.117 . S
O172 C178 1.250 . S
C173 O179 1.248 1_565 S
C173 O180 1.264 . S
C174 O160 1.253 . S
C174 O162 1.260 . S
C175 O164 1.279 . S
C175 O165 1.250 . S
C176 O166 1.264 . S
C176 O170 1.248 . S
C177 O167 1.260 . S
C177 O171 1.253 . S
C178 O169 1.279 . S
C178 O172 1.250 . S
O179 Mg161 2.030 . S
O179 C173 1.248 1_545 S
O180 Mg163 2.079 1_565 S
O180 C173 1.264 . S
O181 Mg182 1.990 . S
O181 C195 1.253 . S
Mg182 O181 1.990 . S
Mg182 O185 2.180 . S
Mg182 O186 2.117 . S
Mg182 O200 2.030 . S
O183 Mg184 2.072 . S
O183 C195 1.260 . S
Mg184 O183 2.072 . S
Mg184 O185 2.099 . S
Mg184 O187 2.079 1_554 S
Mg184 O188 2.072 1_554 S
Mg184 O190 2.099 . S
Mg184 O201 2.079 . S
O185 Mg182 2.180 . S
O185 Mg184 2.099 . S
O185 C196 1.279 . S
O186 Mg182 2.117 . S
O186 C196 1.250 . S
O187 Mg184 2.079 1_556 S
O187 C197 1.264 . S
O188 Mg184 2.072 1_556 S
O188 C198 1.260 . S
Mg189 O190 2.180 1_556 S
Mg189 O191 2.030 . S
Mg189 O192 1.990 . S
Mg189 O193 2.117 1_556 S
O190 Mg184 2.099 . S
O190 Mg189 2.180 1_554 S
O190 C199 1.279 . S
O191 Mg189 2.030 . S
O191 C197 1.248 . S
O192 Mg189 1.990 . S
O192 C198 1.253 . S
O193 Mg189 2.117 1_554 S
O193 C199 1.250 . S
C194 O200 1.248 . S
C194 O201 1.264 . S
C195 O181 1.253 . S
C195 O183 1.260 . S
C196 O185 1.279 . S
C196 O186 1.250 . S
C197 O187 1.264 . S
C197 O191 1.248 . S
C198 O188 1.260 . S
C198 O192 1.253 . S
C199 O190 1.279 . S
C199 O193 1.250 . S
O200 Mg182 2.030 . S
O200 C194 1.248 . S
O201 Mg184 2.079 . S
O201 C194 1.264 . S
H202 C210 0.950 . S
H203 C215 0.950 . S
H204 C212 0.950 . S
H205 C214 0.950 . S
H206 C216 0.950 . S
H207 C218 0.950 . S
H208 C220 0.950 . S
H209 C221 0.950 . S
C210 H202 0.950 . S
C210 C211 1.386 . S
C210 C212 1.391 . S
C211 C210 1.386 . S
C211 C215 1.393 . S
C212 H204 0.950 . S
C212 C210 1.391 . S
C212 C213 1.400 . S
C213 C212 1.400 . S
C213 C214 1.398 . S
C213 C219 1.491 . S
C214 H205 0.950 . S
C214 C213 1.398 . S
C214 C215 1.391 . S
C215 H203 0.950 . S
C215 C211 1.393 . S
C215 C214 1.391 . S
C216 H206 0.950 . S
C216 C217 1.386 . S
C216 C218 1.391 . S
C217 C216 1.386 . S
C217 C221 1.393 . S
C218 H207 0.950 . S
C218 C216 1.391 . S
C218 C219 1.400 . S
C219 C213 1.491 . S
C219 C218 1.400 . S
C219 C220 1.398 . S
C220 H208 0.950 . S
C220 C219 1.398 . S
C220 C221 1.391 . S
C221 H209 0.950 . S
C221 C217 1.393 . S
C221 C220 1.391 . S
H222 C230 0.950 . S
H223 C235 0.950 . S
H224 C232 0.950 . S
H225 C234 0.950 . S
H226 C236 0.950 1_556 S
H227 C238 0.950 . S
H228 C240 0.950 . S
H229 C241 0.950 . S
C230 H222 0.950 . S
C230 C231 1.386 . S
C230 C232 1.391 . S
C231 C230 1.386 . S
C231 C235 1.393 . S
C232 H224 0.950 . S
C232 C230 1.391 . S
C232 C233 1.400 . S
C233 C232 1.400 . S
C233 C234 1.398 . S
C233 C239 1.491 . S
C234 H225 0.950 . S
C234 C233 1.398 . S
C234 C235 1.391 . S
C235 H223 0.950 . S
C235 C231 1.393 . S
C235 C234 1.391 . S
C236 H226 0.950 1_554 S
C236 C237 1.386 . S
C236 C238 1.391 . S
C237 C236 1.386 . S
C237 C241 1.393 . S
C238 H227 0.950 . S
C238 C236 1.391 . S
C238 C239 1.400 . S
C239 C233 1.491 . S
C239 C238 1.400 . S
C239 C240 1.398 . S
C240 H228 0.950 . S
C240 C239 1.398 . S
C240 C241 1.391 . S
C241 H229 0.950 . S
C241 C237 1.393 . S
C241 C240 1.391 . S
H242 C250 0.950 . S
H243 C255 0.950 . S
H244 C252 0.950 . S
H245 C254 0.950 . S
H246 C256 0.950 . S
H247 C258 0.950 . S
H248 C260 0.950 . S
H249 C261 0.950 . S
C250 H242 0.950 . S
C250 C251 1.386 . S
C250 C252 1.391 . S
C251 C250 1.386 . S
C251 C255 1.393 . S
C252 H244 0.950 . S
C252 C250 1.391 . S
C252 C253 1.400 . S
C253 C252 1.400 . S
C253 C254 1.398 . S
C253 C259 1.491 . S
C254 H245 0.950 . S
C254 C253 1.398 . S
C254 C255 1.391 . S
C255 H243 0.950 . S
C255 C251 1.393 . S
C255 C254 1.391 . S
C256 H246 0.950 . S
C256 C257 1.386 . S
C256 C258 1.391 . S
C257 C256 1.386 . S
C257 C261 1.393 . S
C258 H247 0.950 . S
C258 C256 1.391 . S
C258 C259 1.400 . S
C259 C253 1.491 . S
C259 C258 1.400 . S
C259 C260 1.398 . S
C260 H248 0.950 . S
C260 C259 1.398 . S
C260 C261 1.391 . S
C261 H249 0.950 . S
C261 C257 1.393 . S
C261 C260 1.391 . S
H262 C270 0.950 . S
H263 C275 0.950 . S
H264 C272 0.950 . S
H265 C274 0.950 . S
H266 C276 0.950 . S
H267 C278 0.950 . S
H268 C280 0.950 . S
H269 C281 0.950 1_556 S
C270 H262 0.950 . S
C270 C271 1.386 . S
C270 C272 1.391 . S
C271 C270 1.386 . S
C271 C275 1.393 1_556 S
C272 H264 0.950 . S
C272 C270 1.391 . S
C272 C273 1.400 1_556 S
C273 C272 1.400 1_554 S
C273 C274 1.398 . S
C273 C279 1.491 . S
C274 H265 0.950 . S
C274 C273 1.398 . S
C274 C275 1.391 . S
C275 H263 0.950 . S
C275 C271 1.393 1_554 S
C275 C274 1.391 . S
C276 H266 0.950 . S
C276 C277 1.386 . S
C276 C278 1.391 . S
C277 C276 1.386 . S
C277 C281 1.393 . S
C278 H267 0.950 . S
C278 C276 1.391 . S
C278 C279 1.400 . S
C279 C273 1.491 . S
C279 C278 1.400 . S
C279 C280 1.398 1_554 S
C280 H268 0.950 . S
C280 C279 1.398 1_556 S
C280 C281 1.391 1_556 S
C281 H269 0.950 1_554 S
C281 C277 1.393 . S
C281 C280 1.391 1_554 S
H282 C290 0.950 . S
H283 C295 0.950 . S
H284 C292 0.950 . S
H285 C294 0.950 1_545 S
H286 C296 0.950 . S
H287 C298 0.950 1_545 S
H288 C300 0.950 . S
H289 C301 0.950 . S
C290 H282 0.950 . S
C290 C291 1.386 . S
C290 C292 1.391 . S
C291 C290 1.386 . S
C291 C295 1.393 . S
C292 H284 0.950 . S
C292 C290 1.391 . S
C292 C293 1.400 . S
C293 C292 1.400 . S
C293 C294 1.398 . S
C293 C299 1.491 . S
C294 H285 0.950 1_565 S
C294 C293 1.398 . S
C294 C295 1.391 . S
C295 H283 0.950 . S
C295 C291 1.393 . S
C295 C294 1.391 . S
C296 H286 0.950 . S
C296 C297 1.386 1_545 S
C296 C298 1.391 1_545 S
C297 C296 1.386 1_565 S
C297 C301 1.393 . S
C298 H287 0.950 1_565 S
C298 C296 1.391 1_565 S
C298 C299 1.400 . S
C299 C293 1.491 . S
C299 C298 1.400 . S
C299 C300 1.398 . S
C300 H288 0.950 . S
C300 C299 1.398 . S
C300 C301 1.391 . S
C301 H289 0.950 . S
C301 C297 1.393 . S
C301 C300 1.391 . S
H302 C310 0.950 . S
H303 C315 0.950 . S
H304 C312 0.950 . S
H305 C314 0.950 . S
H306 C316 0.950 . S
H307 C318 0.950 . S
H308 C320 0.950 . S
H309 C321 0.950 . S
C310 H302 0.950 . S
C310 C311 1.386 . S
C310 C312 1.391 . S
C311 C310 1.386 . S
C311 C315 1.393 . S
C312 H304 0.950 . S
C312 C310 1.391 . S
C312 C313 1.400 . S
C313 C312 1.400 . S
C313 C314 1.398 . S
C313 C319 1.491 . S
C314 H305 0.950 . S
C314 C313 1.398 . S
C314 C315 1.391 . S
C315 H303 0.950 . S
C315 C311 1.393 . S
C315 C314 1.391 . S
C316 H306 0.950 . S
C316 C317 1.386 . S
C316 C318 1.391 . S
C317 C316 1.386 . S
C317 C321 1.393 . S
C318 H307 0.950 . S
C318 C316 1.391 . S
C318 C319 1.400 . S
C319 C313 1.491 . S
C319 C318 1.400 . S
C319 C320 1.398 . S
C320 H308 0.950 . S
C320 C319 1.398 . S
C320 C321 1.391 . S
C321 H309 0.950 . S
C321 C317 1.393 . S
C321 C320 1.391 . S
H322 C330 0.950 . S
H323 C335 0.950 . S
H324 C332 0.950 . S
H325 C334 0.950 . S
H326 C336 0.950 . S
H327 C338 0.950 . S
H328 C340 0.950 . S
H329 C341 0.950 . S
C330 H322 0.950 . S
C330 C331 1.386 . S
C330 C332 1.391 . S
C331 C330 1.386 . S
C331 C335 1.393 . S
C332 H324 0.950 . S
C332 C330 1.391 . S
C332 C333 1.400 . S
C333 C332 1.400 . S
C333 C334 1.398 . S
C333 C339 1.491 . S
C334 H325 0.950 . S
C334 C333 1.398 . S
C334 C335 1.391 . S
C335 H323 0.950 . S
C335 C331 1.393 . S
C335 C334 1.391 . S
C336 H326 0.950 . S
C336 C337 1.386 . S
C336 C338 1.391 . S
C337 C336 1.386 . S
C337 C341 1.393 . S
C338 H327 0.950 . S
C338 C336 1.391 . S
C338 C339 1.400 . S
C339 C333 1.491 . S
C339 C338 1.400 . S
C339 C340 1.398 . S
C340 H328 0.950 . S
C340 C339 1.398 . S
C340 C341 1.391 . S
C341 H329 0.950 . S
C341 C337 1.393 . S
C341 C340 1.391 . S
H342 C350 0.950 . S
H343 C355 0.950 . S
H344 C352 0.950 . S
H345 C354 0.950 . S
H346 C356 0.950 . S
H347 C358 0.950 . S
H348 C360 0.950 . S
H349 C361 0.950 . S
C350 H342 0.950 . S
C350 C351 1.386 . S
C350 C352 1.391 . S
C351 C350 1.386 . S
C351 C355 1.393 . S
C352 H344 0.950 . S
C352 C350 1.391 . S
C352 C353 1.400 . S
C353 C352 1.400 . S
C353 C354 1.398 . S
C353 C359 1.491 . S
C354 H345 0.950 . S
C354 C353 1.398 . S
C354 C355 1.391 . S
C355 H343 0.950 . S
C355 C351 1.393 . S
C355 C354 1.391 . S
C356 H346 0.950 . S
C356 C357 1.386 . S
C356 C358 1.391 . S
C357 C356 1.386 . S
C357 C361 1.393 . S
C358 H347 0.950 . S
C358 C356 1.391 . S
C358 C359 1.400 . S
C359 C353 1.491 . S
C359 C358 1.400 . S
C359 C360 1.398 . S
C360 H348 0.950 . S
C360 C359 1.398 . S
C360 C361 1.391 . S
C361 H349 0.950 . S
C361 C357 1.393 . S
C361 C360 1.391 . S
H362 C370 0.950 . S
H363 C375 0.950 . S
H364 C372 0.950 . S
H365 C374 0.950 . S
H366 C376 0.950 . S
H367 C378 0.950 . S
H368 C380 0.950 . S
H369 C381 0.950 . S
C370 H362 0.950 . S
C370 C371 1.386 . S
C370 C372 1.391 . S
C371 C370 1.386 . S
C371 C375 1.393 . S
C372 H364 0.950 . S
C372 C370 1.391 . S
C372 C373 1.400 . S
C373 C372 1.400 . S
C373 C374 1.398 . S
C373 C379 1.491 . S
C374 H365 0.950 . S
C374 C373 1.398 . S
C374 C375 1.391 . S
C375 H363 0.950 . S
C375 C371 1.393 . S
C375 C374 1.391 . S
C376 H366 0.950 . S
C376 C377 1.386 . S
C376 C378 1.391 . S
C377 C376 1.386 . S
C377 C381 1.393 . S
C378 H367 0.950 . S
C378 C376 1.391 . S
C378 C379 1.400 . S
C379 C373 1.491 . S
C379 C378 1.400 . S
C379 C380 1.398 . S
C380 H368 0.950 . S
C380 C379 1.398 . S
C380 C381 1.391 . S
C381 H369 0.950 . S
C381 C377 1.393 . S
C381 C380 1.391 . S
H382 C390 0.950 . S
H383 C395 0.950 . S
H384 C392 0.950 . S
H385 C394 0.950 . S
H386 C396 0.950 . S
H387 C398 0.950 . S
H388 C400 0.950 . S
H389 C401 0.950 . S
C390 H382 0.950 . S
C390 C391 1.386 . S
C390 C392 1.391 . S
C391 C390 1.386 . S
C391 C395 1.393 . S
C392 H384 0.950 . S
C392 C390 1.391 . S
C392 C393 1.400 . S
C393 C392 1.400 . S
C393 C394 1.398 . S
C393 C399 1.491 . S
C394 H385 0.950 . S
C394 C393 1.398 . S
C394 C395 1.391 . S
C395 H383 0.950 . S
C395 C391 1.393 . S
C395 C394 1.391 . S
C396 H386 0.950 . S
C396 C397 1.386 . S
C396 C398 1.391 . S
C397 C396 1.386 . S
C397 C401 1.393 . S
C398 H387 0.950 . S
C398 C396 1.391 . S
C398 C399 1.400 . S
C399 C393 1.491 . S
C399 C398 1.400 . S
C399 C400 1.398 . S
C400 H388 0.950 . S
C400 C399 1.398 . S
C400 C401 1.391 . S
C401 H389 0.950 . S
C401 C397 1.393 . S
C401 C400 1.391 . S
H402 C410 0.950 . S
H403 C415 0.950 . S
H404 C412 0.950 . S
H405 C414 0.950 . S
H406 C416 0.950 . S
H407 C418 0.950 . S
H408 C420 0.950 . S
H409 C421 0.950 . S
C410 H402 0.950 . S
C410 C411 1.386 . S
C410 C412 1.391 . S
C411 C410 1.386 . S
C411 C415 1.393 . S
C412 H404 0.950 . S
C412 C410 1.391 . S
C412 C413 1.400 . S
C413 C412 1.400 . S
C413 C414 1.398 . S
C413 C419 1.491 . S
C414 H405 0.950 . S
C414 C413 1.398 . S
C414 C415 1.391 . S
C415 H403 0.950 . S
C415 C411 1.393 . S
C415 C414 1.391 . S
C416 H406 0.950 . S
C416 C417 1.386 . S
C416 C418 1.391 . S
C417 C416 1.386 . S
C417 C421 1.393 . S
C418 H407 0.950 . S
C418 C416 1.391 . S
C418 C419 1.400 . S
C419 C413 1.491 . S
C419 C418 1.400 . S
C419 C420 1.398 . S
C420 H408 0.950 . S
C420 C419 1.398 . S
C420 C421 1.391 . S
C421 H409 0.950 . S
C421 C417 1.393 . S
C421 C420 1.391 . S
H422 C430 0.950 . S
H423 C435 0.950 . S
H424 C432 0.950 . S
H425 C434 0.950 . S
H426 C436 0.950 1_545 S
H427 C438 0.950 1_545 S
H428 C440 0.950 . S
H429 C441 0.950 . S
C430 H422 0.950 . S
C430 C431 1.386 . S
C430 C432 1.391 . S
C431 C430 1.386 . S
C431 C435 1.393 . S
C432 H424 0.950 . S
C432 C430 1.391 . S
C432 C433 1.400 . S
C433 C432 1.400 . S
C433 C434 1.398 . S
C433 C439 1.491 . S
C434 H425 0.950 . S
C434 C433 1.398 . S
C434 C435 1.391 . S
C435 H423 0.950 . S
C435 C431 1.393 . S
C435 C434 1.391 . S
C436 H426 0.950 1_565 S
C436 C437 1.386 . S
C436 C438 1.391 . S
C437 C436 1.386 . S
C437 C441 1.393 . S
C438 H427 0.950 1_565 S
C438 C436 1.391 . S
C438 C439 1.400 . S
C439 C433 1.491 . S
C439 C438 1.400 . S
C439 C440 1.398 . S
C440 H428 0.950 . S
C440 C439 1.398 . S
C440 C441 1.391 . S
C441 H429 0.950 . S
C441 C437 1.393 . S
C441 C440 1.391 . S
C217 C175 1.408 . S
C211 C135 1.547 . S
C231 C15 1.544 . S
C237 C199 1.382 . S
C251 C55 1.683 . S
C257 C178 1.471 . S
C271 C95 1.697 . S
C277 C196 1.530 . S
C297 C176 1.634 . S
C291 C2 1.660 . S
C317 C198 1.602 . S
C311 C42 1.578 . S
C331 C82 1.598 . S
C337 C177 1.509 . S
C351 C141 1.640 . S
C357 C197 1.534 . S
C377 C195 1.539 . S
C371 C61 1.576 . S
C397 C174 1.634 . S
C391 C101 1.658 . S
C417 C194 1.663 . S
C411 C122 1.686 . S
C431 C21 1.664 . S
C437 C173 1.566 . S
