# Generated by pormake.
# Topology iac, (4,6)-cn, num edge types: 1
# Building blocks:
#     Node 0, Type 0, BuildingBlock: AZAVOO_clean_sbu_0, # of connection points: 4
#     Node 1, Type 0, BuildingBlock: AZAVOO_clean_sbu_0, # of connection points: 4
#     Node 2, Type 0, BuildingBlock: AZAVOO_clean_sbu_0, # of connection points: 4
#     Node 3, Type 0, BuildingBlock: AZAVOO_clean_sbu_0, # of connection points: 4
#     Node 4, Type 0, BuildingBlock: AZAVOO_clean_sbu_0, # of connection points: 4
#     Node 5, Type 0, BuildingBlock: AZAVOO_clean_sbu_0, # of connection points: 4
#     Node 6, Type 0, BuildingBlock: AZAVOO_clean_sbu_0, # of connection points: 4
#     Node 7, Type 0, BuildingBlock: AZAVOO_clean_sbu_0, # of connection points: 4
#     Node 8, Type 0, BuildingBlock: AZAVOO_clean_sbu_0, # of connection points: 4
#     Node 9, Type 0, BuildingBlock: AZAVOO_clean_sbu_0, # of connection points: 4
#     Node 10, Type 0, BuildingBlock: AZAVOO_clean_sbu_0, # of connection points: 4
#     Node 11, Type 0, BuildingBlock: AZAVOO_clean_sbu_0, # of connection points: 4
#     Node 12, Type 0, BuildingBlock: AZAVOO_clean_sbu_0, # of connection points: 4
#     Node 13, Type 0, BuildingBlock: AZAVOO_clean_sbu_0, # of connection points: 4
#     Node 14, Type 0, BuildingBlock: AZAVOO_clean_sbu_0, # of connection points: 4
#     Node 15, Type 0, BuildingBlock: AZAVOO_clean_sbu_0, # of connection points: 4
#     Node 16, Type 0, BuildingBlock: AZAVOO_clean_sbu_0, # of connection points: 4
#     Node 17, Type 0, BuildingBlock: AZAVOO_clean_sbu_0, # of connection points: 4
#     Node 18, Type 0, BuildingBlock: AZAVOO_clean_sbu_0, # of connection points: 4
#     Node 19, Type 0, BuildingBlock: AZAVOO_clean_sbu_0, # of connection points: 4
#     Node 20, Type 0, BuildingBlock: AZAVOO_clean_sbu_0, # of connection points: 4
#     Node 21, Type 0, BuildingBlock: AZAVOO_clean_sbu_0, # of connection points: 4
#     Node 22, Type 0, BuildingBlock: AZAVOO_clean_sbu_0, # of connection points: 4
#     Node 23, Type 0, BuildingBlock: AZAVOO_clean_sbu_0, # of connection points: 4
#     Node 24, Type 1, BuildingBlock: VOLQOD_clean_sbu_1, # of connection points: 6
#     Node 25, Type 1, BuildingBlock: VOLQOD_clean_sbu_1, # of connection points: 6
#     Node 26, Type 1, BuildingBlock: VOLQOD_clean_sbu_1, # of connection points: 6
#     Node 27, Type 1, BuildingBlock: VOLQOD_clean_sbu_1, # of connection points: 6
#     Node 28, Type 1, BuildingBlock: VOLQOD_clean_sbu_1, # of connection points: 6
#     Node 29, Type 1, BuildingBlock: VOLQOD_clean_sbu_1, # of connection points: 6
#     Node 30, Type 1, BuildingBlock: VOLQOD_clean_sbu_1, # of connection points: 6
#     Node 31, Type 1, BuildingBlock: VOLQOD_clean_sbu_1, # of connection points: 6
#     Node 32, Type 1, BuildingBlock: VOLQOD_clean_sbu_1, # of connection points: 6
#     Node 33, Type 1, BuildingBlock: VOLQOD_clean_sbu_1, # of connection points: 6
#     Node 34, Type 1, BuildingBlock: VOLQOD_clean_sbu_1, # of connection points: 6
#     Node 35, Type 1, BuildingBlock: VOLQOD_clean_sbu_1, # of connection points: 6
#     Node 36, Type 1, BuildingBlock: VOLQOD_clean_sbu_1, # of connection points: 6
#     Node 37, Type 1, BuildingBlock: VOLQOD_clean_sbu_1, # of connection points: 6
#     Node 38, Type 1, BuildingBlock: VOLQOD_clean_sbu_1, # of connection points: 6
#     Node 39, Type 1, BuildingBlock: VOLQOD_clean_sbu_1, # of connection points: 6
#     Edge 40, Type (0, 1), BuildingBlock: OJICUG_clean_linker_0, # of connection points: 2
#     Edge 41, Type (0, 1), BuildingBlock: OJICUG_clean_linker_0, # of connection points: 2
#     Edge 42, Type (0, 1), BuildingBlock: OJICUG_clean_linker_0, # of connection points: 2
#     Edge 43, Type (0, 1), BuildingBlock: OJICUG_clean_linker_0, # of connection points: 2
#     Edge 44, Type (0, 1), BuildingBlock: OJICUG_clean_linker_0, # of connection points: 2
#     Edge 45, Type (0, 1), BuildingBlock: OJICUG_clean_linker_0, # of connection points: 2
#     Edge 46, Type (0, 1), BuildingBlock: OJICUG_clean_linker_0, # of connection points: 2
#     Edge 47, Type (0, 1), BuildingBlock: OJICUG_clean_linker_0, # of connection points: 2
#     Edge 48, Type (0, 1), BuildingBlock: OJICUG_clean_linker_0, # of connection points: 2
#     Edge 49, Type (0, 1), BuildingBlock: OJICUG_clean_linker_0, # of connection points: 2
#     Edge 50, Type (0, 1), BuildingBlock: OJICUG_clean_linker_0, # of connection points: 2
#     Edge 51, Type (0, 1), BuildingBlock: OJICUG_clean_linker_0, # of connection points: 2
#     Edge 52, Type (0, 1), BuildingBlock: OJICUG_clean_linker_0, # of connection points: 2
#     Edge 53, Type (0, 1), BuildingBlock: OJICUG_clean_linker_0, # of connection points: 2
#     Edge 54, Type (0, 1), BuildingBlock: OJICUG_clean_linker_0, # of connection points: 2
#     Edge 55, Type (0, 1), BuildingBlock: OJICUG_clean_linker_0, # of connection points: 2
#     Edge 56, Type (0, 1), BuildingBlock: OJICUG_clean_linker_0, # of connection points: 2
#     Edge 57, Type (0, 1), BuildingBlock: OJICUG_clean_linker_0, # of connection points: 2
#     Edge 58, Type (0, 1), BuildingBlock: OJICUG_clean_linker_0, # of connection points: 2
#     Edge 59, Type (0, 1), BuildingBlock: OJICUG_clean_linker_0, # of connection points: 2
#     Edge 60, Type (0, 1), BuildingBlock: OJICUG_clean_linker_0, # of connection points: 2
#     Edge 61, Type (0, 1), BuildingBlock: OJICUG_clean_linker_0, # of connection points: 2
#     Edge 62, Type (0, 1), BuildingBlock: OJICUG_clean_linker_0, # of connection points: 2
#     Edge 63, Type (0, 1), BuildingBlock: OJICUG_clean_linker_0, # of connection points: 2
#     Edge 64, Type (0, 1), BuildingBlock: OJICUG_clean_linker_0, # of connection points: 2
#     Edge 65, Type (0, 1), BuildingBlock: OJICUG_clean_linker_0, # of connection points: 2
#     Edge 66, Type (0, 1), BuildingBlock: OJICUG_clean_linker_0, # of connection points: 2
#     Edge 67, Type (0, 1), BuildingBlock: OJICUG_clean_linker_0, # of connection points: 2
#     Edge 68, Type (0, 1), BuildingBlock: OJICUG_clean_linker_0, # of connection points: 2
#     Edge 69, Type (0, 1), BuildingBlock: OJICUG_clean_linker_0, # of connection points: 2
#     Edge 70, Type (0, 1), BuildingBlock: OJICUG_clean_linker_0, # of connection points: 2
#     Edge 71, Type (0, 1), BuildingBlock: OJICUG_clean_linker_0, # of connection points: 2
#     Edge 72, Type (0, 1), BuildingBlock: OJICUG_clean_linker_0, # of connection points: 2
#     Edge 73, Type (0, 1), BuildingBlock: OJICUG_clean_linker_0, # of connection points: 2
#     Edge 74, Type (0, 1), BuildingBlock: OJICUG_clean_linker_0, # of connection points: 2
#     Edge 75, Type (0, 1), BuildingBlock: OJICUG_clean_linker_0, # of connection points: 2
#     Edge 76, Type (0, 1), BuildingBlock: OJICUG_clean_linker_0, # of connection points: 2
#     Edge 77, Type (0, 1), BuildingBlock: OJICUG_clean_linker_0, # of connection points: 2
#     Edge 78, Type (0, 1), BuildingBlock: OJICUG_clean_linker_0, # of connection points: 2
#     Edge 79, Type (0, 1), BuildingBlock: OJICUG_clean_linker_0, # of connection points: 2
#     Edge 80, Type (0, 1), BuildingBlock: OJICUG_clean_linker_0, # of connection points: 2
#     Edge 81, Type (0, 1), BuildingBlock: OJICUG_clean_linker_0, # of connection points: 2
#     Edge 82, Type (0, 1), BuildingBlock: OJICUG_clean_linker_0, # of connection points: 2
#     Edge 83, Type (0, 1), BuildingBlock: OJICUG_clean_linker_0, # of connection points: 2
#     Edge 84, Type (0, 1), BuildingBlock: OJICUG_clean_linker_0, # of connection points: 2
#     Edge 85, Type (0, 1), BuildingBlock: OJICUG_clean_linker_0, # of connection points: 2
#     Edge 86, Type (0, 1), BuildingBlock: OJICUG_clean_linker_0, # of connection points: 2
#     Edge 87, Type (0, 1), BuildingBlock: OJICUG_clean_linker_0, # of connection points: 2
#     Edge 88, Type (0, 1), BuildingBlock: OJICUG_clean_linker_0, # of connection points: 2
#     Edge 89, Type (0, 1), BuildingBlock: OJICUG_clean_linker_0, # of connection points: 2
#     Edge 90, Type (0, 1), BuildingBlock: OJICUG_clean_linker_0, # of connection points: 2
#     Edge 91, Type (0, 1), BuildingBlock: OJICUG_clean_linker_0, # of connection points: 2
#     Edge 92, Type (0, 1), BuildingBlock: OJICUG_clean_linker_0, # of connection points: 2
#     Edge 93, Type (0, 1), BuildingBlock: OJICUG_clean_linker_0, # of connection points: 2
#     Edge 94, Type (0, 1), BuildingBlock: OJICUG_clean_linker_0, # of connection points: 2
#     Edge 95, Type (0, 1), BuildingBlock: OJICUG_clean_linker_0, # of connection points: 2
#     Edge 96, Type (0, 1), BuildingBlock: OJICUG_clean_linker_0, # of connection points: 2
#     Edge 97, Type (0, 1), BuildingBlock: OJICUG_clean_linker_0, # of connection points: 2
#     Edge 98, Type (0, 1), BuildingBlock: OJICUG_clean_linker_0, # of connection points: 2
#     Edge 99, Type (0, 1), BuildingBlock: OJICUG_clean_linker_0, # of connection points: 2
#     Edge 100, Type (0, 1), BuildingBlock: OJICUG_clean_linker_0, # of connection points: 2
#     Edge 101, Type (0, 1), BuildingBlock: OJICUG_clean_linker_0, # of connection points: 2
#     Edge 102, Type (0, 1), BuildingBlock: OJICUG_clean_linker_0, # of connection points: 2
#     Edge 103, Type (0, 1), BuildingBlock: OJICUG_clean_linker_0, # of connection points: 2
#     Edge 104, Type (0, 1), BuildingBlock: OJICUG_clean_linker_0, # of connection points: 2
#     Edge 105, Type (0, 1), BuildingBlock: OJICUG_clean_linker_0, # of connection points: 2
#     Edge 106, Type (0, 1), BuildingBlock: OJICUG_clean_linker_0, # of connection points: 2
#     Edge 107, Type (0, 1), BuildingBlock: OJICUG_clean_linker_0, # of connection points: 2
#     Edge 108, Type (0, 1), BuildingBlock: OJICUG_clean_linker_0, # of connection points: 2
#     Edge 109, Type (0, 1), BuildingBlock: OJICUG_clean_linker_0, # of connection points: 2
#     Edge 110, Type (0, 1), BuildingBlock: OJICUG_clean_linker_0, # of connection points: 2
#     Edge 111, Type (0, 1), BuildingBlock: OJICUG_clean_linker_0, # of connection points: 2
#     Edge 112, Type (0, 1), BuildingBlock: OJICUG_clean_linker_0, # of connection points: 2
#     Edge 113, Type (0, 1), BuildingBlock: OJICUG_clean_linker_0, # of connection points: 2
#     Edge 114, Type (0, 1), BuildingBlock: OJICUG_clean_linker_0, # of connection points: 2
#     Edge 115, Type (0, 1), BuildingBlock: OJICUG_clean_linker_0, # of connection points: 2
#     Edge 116, Type (0, 1), BuildingBlock: OJICUG_clean_linker_0, # of connection points: 2
#     Edge 117, Type (0, 1), BuildingBlock: OJICUG_clean_linker_0, # of connection points: 2
#     Edge 118, Type (0, 1), BuildingBlock: OJICUG_clean_linker_0, # of connection points: 2
#     Edge 119, Type (0, 1), BuildingBlock: OJICUG_clean_linker_0, # of connection points: 2
#     Edge 120, Type (0, 1), BuildingBlock: OJICUG_clean_linker_0, # of connection points: 2
#     Edge 121, Type (0, 1), BuildingBlock: OJICUG_clean_linker_0, # of connection points: 2
#     Edge 122, Type (0, 1), BuildingBlock: OJICUG_clean_linker_0, # of connection points: 2
#     Edge 123, Type (0, 1), BuildingBlock: OJICUG_clean_linker_0, # of connection points: 2
#     Edge 124, Type (0, 1), BuildingBlock: OJICUG_clean_linker_0, # of connection points: 2
#     Edge 125, Type (0, 1), BuildingBlock: OJICUG_clean_linker_0, # of connection points: 2
#     Edge 126, Type (0, 1), BuildingBlock: OJICUG_clean_linker_0, # of connection points: 2
#     Edge 127, Type (0, 1), BuildingBlock: OJICUG_clean_linker_0, # of connection points: 2
#     Edge 128, Type (0, 1), BuildingBlock: OJICUG_clean_linker_0, # of connection points: 2
#     Edge 129, Type (0, 1), BuildingBlock: OJICUG_clean_linker_0, # of connection points: 2
#     Edge 130, Type (0, 1), BuildingBlock: OJICUG_clean_linker_0, # of connection points: 2
#     Edge 131, Type (0, 1), BuildingBlock: OJICUG_clean_linker_0, # of connection points: 2
#     Edge 132, Type (0, 1), BuildingBlock: OJICUG_clean_linker_0, # of connection points: 2
#     Edge 133, Type (0, 1), BuildingBlock: OJICUG_clean_linker_0, # of connection points: 2
#     Edge 134, Type (0, 1), BuildingBlock: OJICUG_clean_linker_0, # of connection points: 2
#     Edge 135, Type (0, 1), BuildingBlock: OJICUG_clean_linker_0, # of connection points: 2
# Relax obj value: 0.336
# Max RMSD: 0.295
# Mean RMSD: 0.201
data_MOF--net-iac--node1-AZAVOO_clean_sbu_0--node2-VOLQOD_clean_sbu_1--edge1-OJICUG_clean_linker_0
_symmetry_space_group_name_H-M    P1
_symmetry_Int_Tables_number       1
_symmetry_cell_setting            triclinic
loop_
_symmetry_equiv_pos_as_xyz
'x, y, z'
_cell_length_a     42.014497
_cell_length_b     39.424885
_cell_length_c     40.745107
_cell_angle_alpha  93.542185
_cell_angle_beta   89.933709
_cell_angle_gamma 92.359834
loop_
_atom_site_label
_atom_site_type_symbol
_atom_site_fract_x
_atom_site_fract_y
_atom_site_fract_z
_atom_type_partial_charge
Mg0 Mg 0.97023 0.26621 0.15264 0.0
O1 O 0.98001 0.22843 0.1098 0.0
O2 O 0.93962 0.22783 0.07413 0.0
Mg3 Mg 0.9036 0.26504 0.09602 0.0
C4 C 0.96641 0.21729 0.08306 0.0
C5 C 0.02937 0.28367 0.1945 0.0
O6 O 0.00702 0.29368 0.21504 0.0
O7 O 0.98033 0.31002 0.12178 0.0
O8 O 0.93826 0.31149 0.08875 0.0
O9 O 0.9477 0.22501 0.17943 0.0
O10 O 0.92208 0.25694 0.14598 0.0
C11 C 0.96512 0.32383 0.09961 0.0
C12 C 0.92146 0.23181 0.16493 0.0
O13 O 0.02164 0.26893 0.16695 0.0
Mg14 Mg 0.97648 0.69366 0.35002 0.0
O15 O 0.9702 0.74571 0.37801 0.0
O16 O 0.9266 0.74103 0.40941 0.0
Mg17 Mg 0.90457 0.68771 0.39989 0.0
C18 C 0.95068 0.75812 0.39919 0.0
C19 C 0.02839 0.7038 0.30266 0.0
O20 O 0.00754 0.68315 0.28678 0.0
O21 O -0.00529 0.67263 0.39701 0.0
O22 O 0.94915 0.66908 0.42527 0.0
O23 O 0.94888 0.70916 0.3086 0.0
O24 O 0.92744 0.68451 0.3513 0.0
C25 C 0.97917 0.66531 0.42271 0.0
C26 C 0.92377 0.69914 0.3241 0.0
O27 O 0.02461 0.71099 0.33321 0.0
Mg28 Mg 0.49028 0.77498 0.67103 0.0
O29 O 0.48245 0.72475 0.63877 0.0
O30 O 0.4373 0.73163 0.61071 0.0
Mg31 Mg 0.41575 0.78182 0.62679 0.0
C32 C 0.46119 0.71429 0.6175 0.0
C33 C 0.55217 0.79173 0.70203 0.0
O34 O 0.53126 0.81089 0.71734 0.0
O35 O 0.50382 0.8021 0.62608 0.0
O36 O 0.45783 0.80813 0.60019 0.0
O37 O 0.4653 0.7531 0.7131 0.0
O38 O 0.44196 0.77853 0.67306 0.0
C39 C 0.48808 0.81264 0.60243 0.0
C40 C 0.43942 0.76207 0.69939 0.0
O41 O 0.54247 0.76923 0.68023 0.0
Mg42 Mg 0.51756 0.21743 0.82835 0.0
O43 O 0.49445 0.25006 0.86973 0.0
O44 O 0.44172 0.24011 0.86543 0.0
Mg45 Mg 0.43249 0.1985 0.82441 0.0
C46 C 0.46599 0.25564 0.8791 0.0
C47 C 0.58541 0.20819 0.83413 0.0
O48 O 0.57316 0.18096 0.81777 0.0
O49 O 0.51129 0.17134 0.85794 0.0
O50 O 0.459 0.15944 0.85368 0.0
O51 O 0.51245 0.25922 0.79557 0.0
O52 O 0.47644 0.21693 0.80064 0.0
C53 C 0.4867 0.15288 0.86403 0.0
C54 C 0.4845 0.2457 0.78879 0.0
O55 O 0.56657 0.22874 0.84823 0.0
Mg56 Mg 0.1321 -0.00183 0.26399 0.0
O57 O 0.15503 0.05194 0.26505 0.0
O58 O 0.17975 0.06083 0.31372 0.0
Mg59 Mg 0.17296 0.01353 0.34287 0.0
C60 C 0.17151 0.07084 0.28587 0.0
C61 C 0.09859 0.97649 0.20132 0.0
O62 O 0.08274 0.96175 0.22474 0.0
O63 O 0.18 0.97593 0.25563 0.0
O64 O 0.20257 0.98128 0.3053 0.0
O65 O 0.08789 0.01804 0.2859 0.0
O66 O 0.12871 0.00224 0.31477 0.0
C67 C 0.20279 0.97063 0.27499 0.0
C68 C 0.10103 0.0152 0.31428 0.0
O69 O 0.12275 0.99576 0.20908 0.0
Mg70 Mg 0.27524 0.88516 0.51099 0.0
O71 O 0.26318 0.84366 0.47163 0.0
O72 O 0.30071 0.80523 0.46969 0.0
Mg73 Mg 0.3379 0.82447 0.50841 0.0
C74 C 0.27445 0.81608 0.45964 0.0
C75 C 0.21609 0.93021 0.51781 0.0
O76 O 0.23781 0.95392 0.52668 0.0
O77 O 0.26226 0.84944 0.54963 0.0
O78 O 0.30176 0.81344 0.55026 0.0
O79 O 0.30001 0.91537 0.47474 0.0
O80 O 0.32342 0.87793 0.50422 0.0
C81 C 0.27533 0.82434 0.5614 0.0
C82 C 0.32534 0.89944 0.48148 0.0
O83 O 0.2245 0.90035 0.50967 0.0
Mg84 Mg 0.42098 0.02843 0.76519 0.0
O85 O 0.37213 -0.0003 0.76957 0.0
O86 O 0.35479 0.01322 0.82068 0.0
Mg87 Mg 0.39 0.05045 0.84711 0.0
C88 C 0.35135 -0.00263 0.79252 0.0
C89 C 0.45162 0.03019 0.70151 0.0
O90 O 0.47164 0.04238 0.7245 0.0
O91 O 0.39468 0.07604 0.75913 0.0
O92 O 0.37544 0.0879 0.80941 0.0
O93 O 0.44552 0.98464 0.7836 0.0
O94 O 0.42584 0.02654 0.81521 0.0
C95 C 0.37828 0.09413 0.77914 0.0
C96 C 0.4381 -0.00301 0.81263 0.0
O97 O 0.42393 0.02005 0.71003 0.0
Mg98 Mg 0.28411 0.1291 0.97455 0.0
O99 O 0.27521 0.17141 0.01406 0.0
O100 O 0.3213 0.20131 0.02233 0.0
Mg101 Mg 0.35937 0.17713 0.98976 0.0
C102 C 0.29162 0.1963 0.02795 0.0
C103 C 0.2259 0.08377 0.96452 0.0
O104 O 0.2501 0.06366 0.96357 0.0
O105 O 0.28433 0.16963 0.9374 0.0
O106 O 0.33145 0.19698 0.94675 0.0
O107 O 0.29693 0.09377 0.01198 0.0
O108 O 0.33147 0.1286 0.98874 0.0
C109 C 0.30502 0.193 0.93119 0.0
C110 C 0.32587 0.10586 0.00976 0.0
O111 O 0.23144 0.11579 0.96793 0.0
Mg112 Mg 0.74783 0.43568 0.04093 0.0
O113 O 0.76505 0.40619 -0.00619 0.0
O114 O 0.81242 0.38528 0.00477 0.0
Mg115 Mg 0.82539 0.40144 0.05778 0.0
C116 C 0.78948 0.38937 0.98509 0.0
C117 C 0.68123 0.4613 0.03567 0.0
O118 O 0.69634 0.4851 0.05436 0.0
O119 O 0.73612 0.38631 0.0639 0.0
O120 O 0.78378 0.36696 0.07553 0.0
O121 O 0.7717 0.48365 0.0257 0.0
O122 O 0.79467 0.44494 0.05391 0.0
C123 C 0.75335 0.36423 0.07575 0.0
C124 C 0.79707 0.47269 0.03883 0.0
O125 O 0.69671 0.43657 0.02343 0.0
Mg126 Mg 0.86477 0.55236 0.32129 0.0
O127 O 0.85585 0.49562 0.30628 0.0
O128 O 0.81941 0.47607 0.34167 0.0
Mg129 Mg 0.80215 0.51939 0.37493 0.0
C130 C 0.83841 0.47167 0.31748 0.0
C131 C 0.92333 0.55362 0.27498 0.0
O132 O 0.93591 0.53913 0.29977 0.0
O133 O 0.81958 0.55971 0.29473 0.0
O134 O 0.78152 0.53906 0.32736 0.0
O135 O 0.90037 0.54 0.3565 0.0
O136 O 0.8489 0.54416 0.36831 0.0
C137 C 0.79053 0.55178 0.30057 0.0
C138 C 0.87682 0.53509 0.37635 0.0
O139 O 0.89408 0.56068 0.27583 0.0
Mg140 Mg 0.75624 0.58491 0.49862 0.0
O141 O 0.75805 0.63146 0.53633 0.0
O142 O 0.80482 0.65953 0.52883 0.0
Mg143 Mg 0.83197 0.6309 0.48836 0.0
C144 C 0.77799 0.65639 0.54335 0.0
C145 C 0.69205 0.54948 0.48631 0.0
O146 O 0.71214 0.52921 0.47114 0.0
O147 O 0.74727 0.62063 0.45877 0.0
O148 O 0.79377 0.64858 0.45234 0.0
O149 O 0.77648 0.55218 0.53503 0.0
O150 O 0.80549 0.5841 0.50257 0.0
C151 C 0.76436 0.64296 0.44495 0.0
C152 C 0.80426 0.5641 0.52666 0.0
O153 O 0.7029 0.5761 0.50242 0.0
Mg154 Mg 0.60906 0.50734 0.75442 0.0
O155 O 0.63142 0.56165 0.76276 0.0
O156 O 0.65197 0.56537 0.81373 0.0
Mg157 Mg 0.64439 0.51454 0.83654 0.0
C158 C 0.6461 0.57833 0.78655 0.0
C159 C 0.59811 0.48284 0.68342 0.0
O160 O 0.6056 0.45482 0.69692 0.0
O161 O 0.658 0.48823 0.74593 0.0
O162 O 0.6777 0.4908 0.79697 0.0
O163 O 0.5629 0.52228 0.77549 0.0
O164 O 0.60306 0.50485 0.80433 0.0
C165 C 0.68028 0.48351 0.76605 0.0
C166 C 0.57469 0.51598 0.80369 0.0
O167 O 0.60107 0.51105 0.70028 0.0
Mg168 Mg -0.00215 0.71919 0.86008 0.0
O169 O -0.00866 0.77478 0.87566 0.0
O170 O 0.94138 0.78083 0.89243 0.0
Mg171 Mg 0.91411 0.72984 0.88147 0.0
C172 C 0.96982 0.79273 0.88897 0.0
C173 C 0.06161 0.73162 0.83007 0.0
O174 O 0.04644 0.71192 0.80754 0.0
O175 O -0.00461 0.71035 0.91467 0.0
O176 O 0.94293 0.71342 0.92471 0.0
O177 O 0.98354 0.72566 0.80846 0.0
O178 O 0.9506 0.70986 0.84765 0.0
C179 C 0.97138 0.70884 0.93405 0.0
C180 C 0.95507 0.71685 0.81756 0.0
O181 O 0.04996 0.73458 0.85885 0.0
Mg182 Mg 0.02237 0.25874 0.63078 0.0
O183 O 0.00867 0.20138 0.62387 0.0
O184 O 0.95664 0.19283 0.61267 0.0
Mg185 Mg 0.93867 0.24559 0.60256 0.0
C186 C 0.98415 0.18152 0.61814 0.0
C187 C 0.08292 0.23565 0.66286 0.0
O188 O 0.06118 0.22234 0.68197 0.0
O189 O 0.02688 0.26131 0.57546 0.0
O190 O 0.97861 0.24371 0.56477 0.0
O191 O 0.00389 0.26287 0.682 0.0
O192 O 0.97451 0.27016 0.63811 0.0
C193 C -0.00052 0.2679 0.56503 0.0
C194 C 0.97689 0.27033 0.66964 0.0
O195 O 0.07423 0.24924 0.63708 0.0
Mg196 Mg 0.48606 0.23469 0.33 0.0
O197 O 0.47004 0.28074 0.36029 0.0
O198 O 0.42075 0.27315 0.37902 0.0
Mg199 Mg 0.40379 0.22037 0.35649 0.0
C200 C 0.44659 0.29108 0.37724 0.0
C201 C 0.53832 0.28906 0.32093 0.0
O202 O 0.5142 0.30177 0.3061 0.0
O203 O 0.49074 0.20707 0.3766 0.0
O204 O 0.43957 0.19484 0.38845 0.0
O205 O 0.46681 0.25185 0.28362 0.0
O206 O 0.44023 0.21887 0.3172 0.0
C207 C 0.46936 0.1924 0.39376 0.0
C208 C 0.4411 0.23443 0.29041 0.0
O209 O 0.5348 0.26036 0.3335 0.0
Mg210 Mg 0.4484 0.72549 0.15902 0.0
O211 O 0.43985 0.68312 0.11951 0.0
O212 O 0.38932 0.68428 0.1025 0.0
Mg213 Mg 0.36538 0.72579 0.1349 0.0
C214 C 0.417 0.672 0.10069 0.0
C215 C 0.51233 0.69614 0.16883 0.0
O216 O 0.49317 0.67057 0.1762 0.0
O217 O 0.44742 0.76333 0.11991 0.0
O218 O 0.39529 0.76789 0.11041 0.0
O219 O 0.43625 0.69214 0.19939 0.0
O220 O 0.40205 0.72153 0.17234 0.0
C221 C 0.42445 0.7772 0.10619 0.0
C222 C 0.40731 0.70023 0.19423 0.0
O223 O 0.50091 0.72142 0.1558 0.0
Mg224 Mg 0.93076 0.04073 0.7429 0.0
O225 O 0.89425 0.99581 0.73983 0.0
O226 O 0.87616 0.99023 0.79082 0.0
Mg227 Mg 0.90611 0.02542 0.82681 0.0
C228 C 0.87529 0.98199 0.76 0.0
C229 C 0.95691 0.03783 0.67746 0.0
O230 O 0.98072 0.04958 0.69635 0.0
O231 O 0.89077 0.07683 0.75327 0.0
O232 O 0.88222 0.07065 0.80712 0.0
O233 O 0.97144 0.00688 0.74991 0.0
O234 O 0.94264 0.03184 0.78945 0.0
C235 C 0.8776 0.08554 0.78069 0.0
C236 C 0.96524 0.01236 0.78081 0.0
O237 O 0.92876 0.04069 0.68831 0.0
Mg238 Mg 0.77846 0.1336 0.49814 0.0
O239 O 0.78802 0.15972 0.54834 0.0
O240 O 0.83624 0.18521 0.54674 0.0
Mg241 Mg 0.86133 0.16384 0.50021 0.0
C242 C 0.80958 0.18003 0.56098 0.0
C243 C 0.71845 0.11282 0.53402 0.0
O244 O 0.74098 0.10174 0.55243 0.0
O245 O 0.7782 0.18503 0.47687 0.0
O246 O 0.83039 0.19754 0.47082 0.0
O247 O 0.79342 0.08354 0.5118 0.0
O248 O 0.82518 0.12234 0.49003 0.0
C249 C 0.80112 0.20346 0.46591 0.0
C250 C 0.82103 0.09216 0.50007 0.0
O251 O 0.72623 0.13102 0.51032 0.0
Mg252 Mg 0.66071 0.96711 0.23161 0.0
O253 O 0.66183 0.02249 0.25137 0.0
O254 O 0.685 0.03021 0.30096 0.0
Mg255 Mg 0.70487 0.97881 0.31196 0.0
C256 C 0.67074 0.04156 0.2764 0.0
C257 C 0.61656 0.00014 0.18577 0.0
O258 O 0.60549 0.00745 0.21542 0.0
O259 O 0.71274 0.97614 0.21752 0.0
O260 O 0.73388 0.98649 0.26528 0.0
O261 O 0.61662 0.95501 0.25938 0.0
O262 O 0.66458 0.95418 0.2815 0.0
C263 C 0.72833 0.96525 0.24112 0.0
C264 C 0.63404 0.95212 0.2851 0.0
O265 O 0.64158 0.98307 0.18272 0.0
Mg266 Mg 0.76051 0.89616 0.03445 0.0
O267 O 0.77115 0.87322 0.98335 0.0
O268 O 0.81996 0.85316 0.98223 0.0
Mg269 Mg 0.84133 0.8652 0.03373 0.0
C270 C 0.79354 0.85811 0.96822 0.0
C271 C 0.70166 0.91457 -0.00429 0.0
O272 O 0.72454 0.93135 0.98081 0.0
O273 O 0.75492 0.84312 0.05254 0.0
O274 O 0.80529 0.827 0.05515 0.0
O275 O 0.78173 0.94665 0.0221 0.0
O276 O 0.80818 0.90645 0.04448 0.0
C277 C 0.77542 0.82169 0.05975 0.0
C278 C 0.80824 0.93618 0.03319 0.0
O279 O 0.70866 0.89678 0.01944 0.0
Mg280 Mg 0.2566 0.62274 0.98482 0.0
O281 O 0.26771 0.6468 0.03496 0.0
O282 O 0.31749 0.66771 0.03892 0.0
Mg283 Mg 0.34093 0.64838 0.9905 0.0
C284 C 0.28954 0.66399 0.05071 0.0
C285 C 0.19281 0.59269 0.00448 0.0
O286 O 0.20659 0.56686 0.98932 0.0
O287 O 0.25891 0.67625 0.96666 0.0
O288 O 0.31173 0.68782 0.96629 0.0
O289 O 0.27014 0.5721 -0.00213 0.0
O290 O 0.3033 0.60914 0.97549 0.0
C291 C 0.28312 0.69565 0.96044 0.0
C292 C 0.29787 0.57916 0.98572 0.0
O293 O 0.20532 0.62246 0.00246 0.0
Mg294 Mg 0.13116 0.5053 0.80958 0.0
O295 O 0.14586 0.56126 0.8096 0.0
O296 O 0.17452 0.57562 0.85488 0.0
Mg297 Mg 0.17791 0.52807 0.8841 0.0
C298 C 0.16168 0.58307 0.82801 0.0
C299 C 0.09278 0.52736 0.75239 0.0
O300 O 0.08131 0.54482 0.77789 0.0
O301 O 0.18121 0.49201 0.7959 0.0
O302 O 0.20794 0.50119 0.8433 0.0
O303 O 0.08748 0.5166 0.83699 0.0
O304 O 0.13334 0.50727 0.86086 0.0
C305 C 0.20654 0.49078 0.81295 0.0
C306 C 0.10408 0.51568 0.8636 0.0
O307 O 0.11555 0.50776 0.75652 0.0
Mg308 Mg 0.22813 0.3603 0.51647 0.0
O309 O 0.24525 0.36496 0.46354 0.0
O310 O 0.29735 0.35641 0.4571 0.0
Mg311 Mg 0.31191 0.3337 0.50477 0.0
C312 C 0.27035 0.36408 0.44581 0.0
C313 C 0.17385 0.3976 0.48752 0.0
O314 O 0.19948 0.41572 0.47999 0.0
O315 O 0.22229 0.30289 0.50524 0.0
O316 O 0.27078 0.29586 0.49039 0.0
O317 O 0.24783 0.41212 0.53041 0.0
O318 O 0.27673 0.36657 0.53172 0.0
C319 C 0.24931 0.29166 0.51181 0.0
C320 C 0.27521 0.39922 0.53469 0.0
O321 O 0.17718 0.37006 0.50163 0.0
Mg322 Mg 0.37577 0.5601 0.24478 0.0
O323 O 0.35511 0.50828 0.25412 0.0
O324 O 0.32579 0.50687 0.29951 0.0
Mg325 Mg 0.33306 0.56037 0.32392 0.0
C326 C 0.3364 0.49266 0.27303 0.0
C327 C 0.40839 0.51104 0.19594 0.0
O328 O 0.42261 0.5061 0.22379 0.0
O329 O 0.32466 0.57321 0.23093 0.0
O330 O 0.3029 0.57455 0.28125 0.0
O331 O 0.41982 0.55378 0.27361 0.0
O332 O 0.37585 0.57429 0.2951 0.0
C333 C 0.30087 0.57747 0.2503 0.0
C334 C 0.40452 0.56512 0.29922 0.0
O335 O 0.38803 0.53417 0.19497 0.0
O336 O 0.00931 0.08418 0.99122 0.0
Zn337 Zn 0.02776 0.04137 0.9702 0.0
O338 O 0.01716 0.00335 -0.00469 0.0
Zn339 Zn 0.05158 0.9723 -0.004 0.0
Zn340 Zn -0.00046 0.01633 0.03676 0.0
Zn341 Zn 0.98359 0.97899 0.97348 0.0
O342 O 0.03734 0.92767 0.9687 0.0
O343 O 0.98633 0.93068 0.98132 0.0
O344 O 0.07468 0.04788 0.97068 0.0
O345 O 0.09187 -0.00365 0.97877 0.0
O346 O 0.06075 0.96473 0.0442 0.0
O347 O 0.02506 -0.00358 0.07124 0.0
O348 O 0.95305 0.00059 0.04034 0.0
O349 O 0.01628 0.03043 0.92256 0.0
O350 O 0.94096 0.99363 0.98747 0.0
O351 O -0.01158 0.98179 0.926 0.0
C352 C 0.00339 0.09051 0.02168 0.0
C353 C 0.00902 0.91423 0.96854 0.0
C354 C 0.04828 0.97662 0.07093 0.0
C355 C 0.09721 0.02745 0.97233 0.0
C356 C 0.93244 -0.00373 0.01736 0.0
C357 C 0.00201 0.00403 0.90904 0.0
O358 O 0.0018 0.0672 0.04206 0.0
O359 O 0.21784 0.74745 0.16939 0.0
Zn360 Zn 0.19905 0.73426 0.21215 0.0
O361 O 0.22378 0.7535 0.24853 0.0
Zn362 Zn 0.22983 0.71658 0.2761 0.0
Zn363 Zn 0.26364 0.77137 0.23375 0.0
Zn364 Zn 0.2022 0.78698 0.27275 0.0
O365 O 0.22939 0.7322 0.32404 0.0
O366 O 0.2117 0.78416 0.32048 0.0
O367 O 0.20548 0.68439 0.21023 0.0
O368 O 0.19986 0.67714 0.26292 0.0
O369 O 0.27285 0.70049 0.2661 0.0
O370 O 0.29812 0.75008 0.25876 0.0
O371 O 0.26576 0.82337 0.23837 0.0
O372 O 0.1527 0.74206 0.22084 0.0
O373 O 0.21783 0.83236 0.26023 0.0
O374 O 0.15614 0.77804 0.26519 0.0
C375 C 0.2477 0.7465 0.16362 0.0
C376 C 0.22226 0.76095 0.3374 0.0
C377 C 0.29842 0.71837 0.26338 0.0
C378 C 0.20354 0.66462 0.23364 0.0
C379 C 0.24411 0.84328 0.24844 0.0
C380 C 0.13968 0.75939 0.24435 0.0
O381 O 0.26815 0.75371 0.18639 0.0
O382 O 0.52858 0.91073 0.48863 0.0
Zn383 Zn 0.51992 0.94826 0.45972 0.0
O384 O 0.52644 0.99146 0.48542 0.0
Zn385 Zn 0.48575 0.01222 0.49455 0.0
Zn386 Zn 0.54918 0.98507 0.5263 0.0
Zn387 Zn 0.55231 0.02136 0.46043 0.0
O388 O 0.48406 0.05827 0.47596 0.0
O389 O 0.52887 0.06082 0.44719 0.0
O390 O 0.4736 0.93884 0.44861 0.0
O391 O 0.45031 0.98227 0.47496 0.0
O392 O 0.47742 0.01771 0.54328 0.0
O393 O 0.52308 0.00233 0.56411 0.0
O394 O 0.59143 0.0119 0.53097 0.0
O395 O 0.54756 0.94537 0.41868 0.0
O396 O 0.58751 0.04215 0.48724 0.0
O397 O 0.57134 -0.00308 0.42146 0.0
C398 C 0.54071 0.90887 0.51702 0.0
C399 C 0.50297 0.07361 0.45685 0.0
C400 C 0.49524 0.01343 0.56779 0.0
C401 C 0.44874 0.95436 0.45749 0.0
C402 C 0.60129 0.03611 0.51378 0.0
C403 C 0.56733 0.96726 0.4076 0.0
O404 O 0.55197 0.93524 0.53342 0.0
O405 O 0.30585 0.29534 0.81353 0.0
Zn406 Zn 0.3133 0.31903 0.77143 0.0
O407 O 0.2902 0.29382 0.73638 0.0
Zn408 Zn 0.31868 0.27296 0.70456 0.0
Zn409 Zn 0.264 0.25894 0.75553 0.0
Zn410 Zn 0.2635 0.32232 0.71362 0.0
O411 O 0.30459 0.27916 0.65818 0.0
O412 O 0.27585 0.32492 0.66682 0.0
O413 O 0.36022 0.31617 0.7626 0.0
O414 O 0.363 0.29141 0.71218 0.0
O415 O 0.32295 0.22363 0.71275 0.0
O416 O 0.28636 0.21566 0.75103 0.0
O417 O 0.22123 0.2528 0.73429 0.0
O418 O 0.29872 0.36757 0.77693 0.0
O419 O 0.21934 0.30135 0.70962 0.0
O420 O 0.26366 0.36854 0.73607 0.0
C421 C 0.28273 0.27667 0.82342 0.0
C422 C 0.28875 0.30303 0.64742 0.0
C423 C 0.30938 0.20508 0.73355 0.0
C424 C 0.37639 0.30463 0.73819 0.0
C425 C 0.20659 0.27299 0.71706 0.0
C426 C 0.27863 0.38318 0.76055 0.0
O427 O 0.26003 0.26655 0.80413 0.0
O428 O 0.00861 0.99154 0.42908 0.0
Zn429 Zn 0.97966 0.96822 0.46003 0.0
O430 O -0.00116 0.97304 0.50273 0.0
Zn431 Zn 0.01518 0.93099 0.51671 0.0
Zn432 Zn 0.03212 0.00776 0.50649 0.0
Zn433 Zn 0.96557 0.98086 0.53378 0.0
O434 O 0.00683 0.92993 0.5658 0.0
O435 O 0.95765 0.93711 0.55414 0.0
O436 O 0.9743 0.91783 0.44668 0.0
O437 O -0.00548 0.89201 0.48894 0.0
O438 O 0.06233 0.9321 0.51151 0.0
O439 O 0.0735 0.9877 0.51842 0.0
O440 O 0.02031 0.04437 0.54091 0.0
O441 O 0.9374 0.99168 0.45998 0.0
O442 O 0.97703 0.02213 0.56458 0.0
O443 O 0.92612 0.99179 0.51315 0.0
C444 C 0.03086 0.01438 0.43302 0.0
C445 C 0.97865 0.93465 0.57581 0.0
C446 C 0.08235 0.95712 0.51593 0.0
C447 C 0.98041 0.89093 0.46109 0.0
C448 C -0.00147 0.04584 0.56284 0.0
C449 C 0.91853 -0.00266 0.48402 0.0
O450 O 0.04093 0.02509 0.46151 0.0
O451 O 0.31507 0.78974 0.77544 0.0
Zn452 Zn 0.27891 0.8114 0.79893 0.0
O453 O 0.24035 0.79519 0.77773 0.0
Zn454 Zn 0.21954 0.82859 0.75302 0.0
Zn455 Zn 0.24605 0.75473 0.74981 0.0
Zn456 Zn 0.21093 0.7885 0.81262 0.0
O457 O 0.17205 0.82362 0.76288 0.0
O458 O 0.18244 0.82715 0.81521 0.0
O459 O 0.28176 0.86154 0.79553 0.0
O460 O 0.24072 0.875 0.76443 0.0
O461 O 0.22578 0.81749 0.70508 0.0
O462 O 0.23822 0.76312 0.70222 0.0
O463 O 0.21769 0.71665 0.76602 0.0
O464 O 0.2817 0.79874 0.84622 0.0
O465 O 0.18867 0.74281 0.80518 0.0
O466 O 0.231 0.7863 0.85572 0.0
C467 C 0.317 0.76198 0.75799 0.0
C468 C 0.16206 0.82413 0.7924 0.0
C469 C 0.23231 0.79028 0.68841 0.0
C470 C 0.26567 0.88324 0.78148 0.0
C471 C 0.19556 0.71625 0.78756 0.0
C472 C 0.25958 0.7896 0.86553 0.0
O473 O 0.29243 0.74382 0.74883 0.0
O474 O 0.54462 0.01791 0.04553 0.0
Zn475 Zn 0.52883 0.00261 -0.0004 0.0
O476 O 0.4921 0.9729 0.00408 0.0
Zn477 Zn 0.50064 0.92805 0.98566 0.0
Zn478 Zn 0.47508 0.97358 0.04777 0.0
Zn479 Zn 0.45879 0.98556 0.97717 0.0
O480 O 0.48374 0.92461 0.93881 0.0
O481 O 0.43823 0.94404 0.95548 0.0
O482 O 0.56532 0.97578 0.98137 0.0
O483 O 0.54782 0.92209 0.98483 0.0
O484 O 0.47907 0.8941 0.01381 0.0
O485 O 0.45962 0.92546 0.05628 0.0
O486 O 0.4399 0.00758 0.05467 0.0
O487 O 0.51901 0.04003 0.96874 0.0
O488 O 0.42814 0.01291 0.00223 0.0
O489 O 0.47547 0.01656 0.94414 0.0
C490 C 0.53627 0.00786 0.07364 0.0
C491 C 0.45529 0.93195 0.93229 0.0
C492 C 0.46357 0.89674 0.04074 0.0
C493 C 0.57029 0.94406 0.98052 0.0
C494 C 0.4238 0.02052 0.03251 0.0
C495 C 0.49772 0.0395 0.94622 0.0
O496 O 0.51108 0.98935 0.07758 0.0
O497 O 0.17244 0.29471 0.24843 0.0
Zn498 Zn 0.2154 0.28173 0.26331 0.0
O499 O 0.24506 0.28751 0.22816 0.0
Zn500 Zn 0.25569 0.24424 0.20888 0.0
Zn501 Zn 0.22927 0.31715 0.1965 0.0
Zn502 Zn 0.28281 0.31166 0.24291 0.0
O503 O 0.30138 0.23327 0.21818 0.0
O504 O 0.31872 0.28245 0.24263 0.0
O505 O 0.21012 0.23175 0.27304 0.0
O506 O 0.22794 0.2076 0.22613 0.0
O507 O 0.25015 0.24491 0.161 0.0
O508 O 0.2418 0.2988 0.15042 0.0
O509 O 0.24694 0.36544 0.20908 0.0
O510 O 0.22955 0.31139 0.303 0.0
O511 O 0.29519 0.34698 0.2127 0.0
O512 O 0.27705 0.33272 0.28848 0.0
C513 C 0.16259 0.30629 0.22194 0.0
C514 C 0.32343 0.25239 0.23159 0.0
C515 C 0.24661 0.26791 0.14094 0.0
C516 C 0.2135 0.20561 0.25343 0.0
C517 C 0.27686 0.37148 0.2119 0.0
C518 C 0.2545 0.33024 0.30922 0.0
O519 O 0.18171 0.31523 0.19944 0.0
O520 O 0.48024 0.47339 0.91548 0.0
Zn521 Zn 0.44953 0.4538 0.94713 0.0
O522 O 0.4635 0.46596 0.99133 0.0
Zn523 Zn 0.47971 0.4296 0.01506 0.0
Zn524 Zn 0.49279 0.5043 -0.00755 0.0
Zn525 Zn 0.42387 0.47805 0.01008 0.0
O526 O 0.46116 0.43151 0.06237 0.0
O527 O 0.4198 0.46297 0.05393 0.0
O528 O 0.447 0.40271 0.94178 0.0
O529 O 0.46953 0.38548 0.98742 0.0
O530 O 0.52756 0.43723 0.01863 0.0
O531 O 0.53339 0.49324 0.01462 0.0
O532 O 0.47246 0.5451 0.01415 0.0
O533 O 0.40784 0.47622 0.93949 0.0
O534 O 0.42113 0.52893 0.01584 0.0
O535 O 0.38821 0.45637 0.98404 0.0
C536 C 0.50027 0.49849 0.91876 0.0
C537 C 0.43604 0.44604 0.07267 0.0
C538 C 0.54485 0.46468 0.02012 0.0
C539 C 0.45644 0.37915 0.95919 0.0
C540 C 0.44344 0.55172 0.01999 0.0
C541 C 0.38424 0.47229 0.95855 0.0
O542 O 0.50627 0.51388 0.94658 0.0
O543 O 0.80902 0.23885 0.24977 0.0
Zn544 Zn 0.78208 0.26962 0.2773 0.0
O545 O 0.7382 0.26617 0.26223 0.0
Zn546 Zn 0.72353 0.31019 0.25078 0.0
Zn547 Zn 0.73332 0.23276 0.2248 0.0
Zn548 Zn 0.71339 0.25131 0.29834 0.0
O549 O 0.68184 0.32234 0.27327 0.0
O550 O 0.67689 0.27956 0.30601 0.0
O551 O 0.79961 0.31689 0.27444 0.0
O552 O 0.75803 0.34647 0.26114 0.0
O553 O 0.71654 0.30889 0.20242 0.0
O554 O 0.71944 0.25477 0.18408 0.0
O555 O 0.7051 0.19224 0.23637 0.0
O556 O 0.78715 0.26057 0.32481 0.0
O557 O 0.69732 0.20357 0.28982 0.0
O558 O 0.73694 0.25424 0.34025 0.0
C559 C 0.80366 0.21947 0.22408 0.0
C560 C 0.66694 0.30677 0.29547 0.0
C561 C 0.71512 0.28583 0.17915 0.0
C562 C 0.78732 0.3449 0.26893 0.0
C563 C 0.69432 0.18373 0.26413 0.0
C564 C 0.76636 0.25705 0.34714 0.0
O565 O 0.776 0.21531 0.2115 0.0
O566 O 0.04252 0.52403 0.60132 0.0
Zn567 Zn 0.0304 0.51784 0.55335 0.0
O568 O -0.01124 0.49594 0.55264 0.0
Zn569 Zn 0.9845 0.45909 0.52023 0.0
Zn570 Zn 0.97082 0.48182 0.5937 0.0
Zn571 Zn 0.96047 0.53069 0.54547 0.0
O572 O 0.95086 0.46958 0.48809 0.0
O573 O 0.92653 0.51236 0.51452 0.0
O574 O 0.05983 0.4865 0.52926 0.0
O575 O 0.02773 0.44941 0.50025 0.0
O576 O 0.97157 0.41611 0.54097 0.0
O577 O 0.9723 0.43029 0.59465 0.0
O578 O 0.9239 0.49713 0.59565 0.0
O579 O 0.03247 0.56252 0.52934 0.0
O580 O 0.94298 0.54769 0.58783 0.0
O581 O 0.98065 0.56948 0.52533 0.0
C582 C 0.02805 0.51806 0.62815 0.0
C583 C 0.92788 0.48977 0.49089 0.0
C584 C 0.97031 0.40793 0.57066 0.0
C585 C 0.05552 0.46148 0.50817 0.0
C586 C 0.91897 0.52853 0.59288 0.0
C587 C 0.00913 0.57942 0.52029 0.0
O588 O 0.00011 0.50384 0.62882 0.0
O589 O 0.72725 0.74105 0.33051 0.0
Zn590 Zn 0.73863 0.75781 0.28632 0.0
O591 O 0.71894 0.72848 0.25094 0.0
Zn592 Zn 0.75073 0.70517 0.22392 0.0
Zn593 Zn 0.68881 0.696 0.26962 0.0
Zn594 Zn 0.69659 0.75588 0.2228 0.0
O595 O 0.75545 0.72192 0.17824 0.0
O596 O 0.71377 0.75435 0.17754 0.0
O597 O 0.78523 0.75075 0.28692 0.0
O598 O 0.7928 0.71109 0.24673 0.0
O599 O 0.74099 0.65504 0.22091 0.0
O600 O 0.69987 0.64928 0.25443 0.0
O601 O 0.64352 0.7007 0.25431 0.0
O602 O 0.73083 0.80811 0.28219 0.0
O603 O 0.6522 0.74051 0.21883 0.0
O604 O 0.69939 0.80418 0.23834 0.0
C605 C 0.71217 0.71443 0.3393 0.0
C606 C 0.73736 0.7409 0.1632 0.0
C607 C 0.72081 0.63633 0.23556 0.0
C608 C 0.80297 0.73009 0.27118 0.0
C609 C 0.63375 0.71914 0.23208 0.0
C610 C 0.71406 0.82195 0.26103 0.0
O611 O 0.69531 0.69565 0.31883 0.0
O612 O 0.76486 0.24373 0.70139 0.0
Zn613 Zn 0.76525 0.25066 0.75025 0.0
O614 O 0.78595 0.29314 0.7663 0.0
Zn615 Zn 0.82151 0.28531 0.796 0.0
Zn616 Zn 0.80007 0.31763 0.72844 0.0
Zn617 Zn 0.75492 0.31853 0.79024 0.0
O618 O 0.81785 0.31173 0.84095 0.0
O619 O 0.77057 0.33325 0.83437 0.0
O620 O 0.79051 0.21334 0.76363 0.0
O621 O 0.82424 0.23505 0.80207 0.0
O622 O 0.86284 0.2964 0.77267 0.0
O623 O 0.84707 0.32271 0.72922 0.0
O624 O 0.7807 0.36376 0.72682 0.0
O625 O 0.72224 0.24279 0.76961 0.0
O626 O 0.74711 0.36087 0.769 0.0
O627 O 0.71468 0.29163 0.79778 0.0
C628 C 0.77881 0.26015 0.67927 0.0
C629 C 0.79493 0.32953 0.85188 0.0
C630 C 0.86901 0.31101 0.74619 0.0
C631 C 0.81196 0.20979 0.78481 0.0
C632 C 0.75927 0.37645 0.74536 0.0
C633 C 0.70546 0.26141 0.78873 0.0
O634 O 0.7928 0.28897 0.68611 0.0
O635 O 0.69235 0.80282 0.75959 0.0
Zn636 Zn 0.72931 0.77961 0.77779 0.0
O637 O 0.76351 0.77908 0.7453 0.0
Zn638 Zn 0.77301 0.73272 0.73282 0.0
Zn639 Zn 0.75393 0.8039 0.70643 0.0
Zn640 Zn 0.80068 0.79971 0.76576 0.0
O641 O 0.81697 0.7211 0.74716 0.0
O642 O 0.83864 0.77311 0.75629 0.0
O643 O 0.71114 0.73182 0.78402 0.0
O644 O 0.74041 0.70042 0.74951 0.0
O645 O 0.77002 0.72506 0.68469 0.0
O646 O 0.76247 0.775 0.66386 0.0
O647 O 0.77758 0.85116 0.70795 0.0
O648 O 0.74384 0.80109 0.82225 0.0
O649 O 0.80888 0.84551 0.75106 0.0
O650 O 0.79606 0.80583 0.81444 0.0
C651 C 0.68562 0.8096 0.73027 0.0
C652 C 0.84119 0.74117 0.75242 0.0
C653 C 0.76642 0.74302 0.66028 0.0
C654 C 0.71741 0.70329 0.76957 0.0
C655 C 0.79884 0.86299 0.72848 0.0
C656 C 0.77196 0.80795 0.83322 0.0
O657 O 0.70649 0.80947 0.70749 0.0
O658 O 0.47892 0.58248 0.51883 0.0
Zn659 Zn 0.49022 0.54398 0.48704 0.0
O660 O 0.4729 0.50119 0.50133 0.0
Zn661 Zn 0.50616 0.46775 0.49879 0.0
Zn662 Zn 0.45682 0.50725 0.54558 0.0
Zn663 Zn 0.43715 0.48638 0.47423 0.0
O664 O 0.49114 0.42495 0.47139 0.0
O665 O 0.44359 0.43953 0.45428 0.0
O666 O 0.53764 0.54319 0.48517 0.0
O667 O 0.54678 0.48802 0.48006 0.0
O668 O 0.52092 0.45846 0.54481 0.0
O669 O 0.48911 0.49127 0.57527 0.0
O670 O 0.41414 0.48206 0.55101 0.0
O671 O 0.47387 0.55308 0.44221 0.0
O672 O 0.39678 0.48273 0.49957 0.0
O673 O 0.4318 0.51684 0.4378 0.0
C674 C 0.46504 0.5838 0.54663 0.0
C675 C 0.4654 0.41814 0.45514 0.0
C676 C 0.513 0.4726 0.57244 0.0
C677 C 0.55663 0.51907 0.48036 0.0
C678 C 0.39199 0.47747 0.52966 0.0
C679 C 0.44902 0.54102 0.42716 0.0
O680 O 0.45437 0.55706 0.55964 0.0
O681 O -0.00593 0.47325 0.04545 0.0
Zn682 Zn -0.00952 0.52066 0.03199 0.0
O683 O 0.00411 0.55213 0.06688 0.0
Zn684 Zn 0.96934 0.57876 0.08179 0.0
Zn685 Zn 0.02659 0.52974 0.10031 0.0
Zn686 Zn 0.03659 0.58251 0.05237 0.0
O687 O 0.97101 0.6251 0.06277 0.0
O688 O 0.01934 0.62533 0.04108 0.0
O689 O 0.94407 0.52328 0.02295 0.0
O690 O 0.92813 0.55534 0.06622 0.0
O691 O 0.97048 0.58081 0.1307 0.0
O692 O 0.00963 0.54758 0.14441 0.0
O693 O 0.07455 0.53872 0.09305 0.0
O694 O 0.01717 0.52715 -0.00751 0.0
O695 O 0.06767 0.59261 0.08821 0.0
O696 O 0.05686 0.56241 0.01114 0.0
C697 C 0.00381 0.46053 0.07135 0.0
C698 C -0.00684 0.63945 0.04656 0.0
C699 C 0.9869 0.56715 0.15228 0.0
C700 C 0.92201 0.5354 0.04101 0.0
C701 C 0.08645 0.56859 0.08982 0.0
C702 C 0.04403 0.54254 0.98857 0.0
O703 O 0.01651 0.47913 0.09494 0.0
C704 C 0.00132 0.16771 0.08019 0.0
C705 C 0.97999 0.18796 0.06444 0.0
H706 H 0.02508 0.12074 0.07886 0.0
C707 C 0.96931 0.1776 0.03251 0.0
H708 H 0.01004 0.17486 0.10476 0.0
C709 C 0.97854 0.14667 0.01739 0.0
C710 C -0.00209 0.12547 0.03436 0.0
H711 H 0.95297 0.19276 0.01972 0.0
H712 H 0.96907 0.13846 -0.00665 0.0
C713 C 0.00985 0.13661 0.06546 0.0
C714 C 0.06795 0.75165 0.2977 0.0
C715 C 0.05395 0.7209 0.2846 0.0
H716 H 0.10511 0.7895 0.29373 0.0
C717 C 0.06428 0.70702 0.25407 0.0
H718 H 0.05963 0.76352 0.32065 0.0
C719 C 0.09048 0.72188 0.23852 0.0
C720 C 0.10645 0.75094 0.25327 0.0
H721 H 0.05327 0.68369 0.24311 0.0
H722 H 0.09959 0.70912 0.21636 0.0
C723 C 0.0937 0.76679 0.28195 0.0
C724 C 0.53372 0.85085 0.58666 0.0
C725 C 0.50533 0.83235 0.57794 0.0
H726 H 0.5678 0.88966 0.57372 0.0
C727 C 0.49268 0.83453 0.54637 0.0
H728 H 0.54419 0.84937 0.61079 0.0
C729 C 0.50677 0.85679 0.52479 0.0
C730 C 0.53328 0.87797 0.53476 0.0
H731 H 0.47117 0.82005 0.53881 0.0
H732 H 0.49518 0.85939 0.50139 0.0
C733 C 0.54741 0.87374 0.56537 0.0
C734 C 0.45298 0.29698 0.78376 0.0
C735 C 0.46127 0.26453 0.77144 0.0
H736 H 0.41899 0.33598 0.78233 0.0
C737 C 0.44548 0.24906 0.74395 0.0
H738 H 0.46513 0.30922 0.80505 0.0
C739 C 0.42019 0.2649 0.73008 0.0
C740 C 0.40947 0.29578 0.74447 0.0
H741 H 0.45187 0.22411 0.73404 0.0
H742 H 0.40717 0.25119 0.71013 0.0
C743 C 0.42688 0.31237 0.77062 0.0
C744 C 0.95214 0.79899 0.44824 0.0
C745 C 0.95729 0.79256 0.41439 0.0
H746 H 0.95613 0.83516 0.48966 0.0
C747 C 0.96942 0.81894 0.39576 0.0
H748 H 0.94302 0.77896 0.46317 0.0
C749 C 0.976 0.85137 0.41078 0.0
C750 C 0.97161 0.85748 0.4448 0.0
H751 H 0.97355 0.81454 0.36962 0.0
H752 H 0.98536 0.87141 0.396 0.0
C753 C 0.95972 0.83101 0.4634 0.0
C754 C 0.4055 0.75821 0.74888 0.0
C755 C 0.40832 0.7554 0.71451 0.0
H756 H 0.37362 0.76282 0.78988 0.0
C757 C 0.38094 0.74953 0.69501 0.0
H758 H 0.42639 0.76283 0.76435 0.0
C759 C 0.35091 0.74832 0.70968 0.0
C760 C 0.34803 0.754 0.74388 0.0
H761 H 0.38268 0.747 0.66846 0.0
H762 H 0.32993 0.74554 0.69414 0.0
C763 C 0.37547 0.75814 0.76347 0.0
C764 C 0.46681 0.09693 0.88341 0.0
C765 C 0.49043 0.12315 0.88393 0.0
H766 H 0.45096 0.04976 0.90192 0.0
C767 C 0.51754 0.12081 0.90384 0.0
H768 H 0.44584 0.09774 0.86806 0.0
C769 C 0.52044 0.09332 0.92363 0.0
C770 C 0.49649 0.06741 0.92355 0.0
H771 H 0.53621 0.14063 0.90471 0.0
H772 H 0.54119 0.09264 0.93929 0.0
C773 C 0.4699 0.06929 0.90277 0.0
C774 C 0.08496 0.29474 0.17614 0.0
C775 C 0.06309 0.29176 0.20197 0.0
H776 H 0.13356 0.30276 0.16231 0.0
C777 C 0.07374 0.29668 0.23459 0.0
H778 H 0.07724 0.29159 0.15073 0.0
C779 C 0.10614 0.30278 0.24127 0.0
C780 C 0.12814 0.30481 0.21538 0.0
H781 H 0.05722 0.29473 0.25489 0.0
H782 H 0.11404 0.30522 0.26664 0.0
C783 C 0.11714 0.30155 0.18278 0.0
C784 C 0.05454 0.96389 0.16111 0.0
C785 C 0.08686 0.9725 0.16716 0.0
H786 H 0.01699 0.95849 0.12545 0.0
C787 C 0.1072 0.97837 0.14051 0.0
H788 H 0.03831 0.95919 0.18116 0.0
C789 C 0.09509 0.97686 0.10843 0.0
C790 C 0.06239 0.9703 0.1028 0.0
H791 H 0.13227 0.98479 0.14454 0.0
H792 H 0.11085 0.98287 0.08835 0.0
C793 C 0.04234 0.9633 0.12927 0.0
C794 C 0.2694 0.76799 0.41628 0.0
C795 C 0.25754 0.79783 0.43157 0.0
H796 H 0.26691 0.73227 0.37448 0.0
C797 C 0.23055 0.81181 0.41815 0.0
H798 H 0.28991 0.75635 0.4262 0.0
C799 C 0.21748 0.79809 0.38861 0.0
C800 C 0.23087 0.76989 0.372 0.0
H801 H 0.22043 0.83448 0.4295 0.0
H802 H 0.19787 0.81065 0.37793 0.0
C803 C 0.25606 0.75403 0.38679 0.0
C804 C 0.44003 0.02106 0.64112 0.0
C805 C 0.46203 0.02739 0.66695 0.0
H806 H 0.43332 0.01229 0.58904 0.0
C807 C 0.49463 0.03081 0.65966 0.0
H808 H 0.41474 0.01852 0.64609 0.0
C809 C 0.50519 0.02696 0.62733 0.0
C810 C 0.48336 0.02011 0.60149 0.0
H811 H 0.51217 0.03576 0.67901 0.0
H812 H 0.53055 0.0291 0.62259 0.0
C813 C 0.45062 0.01774 0.60855 0.0
C814 C 0.32025 0.24279 0.89818 0.0
C815 C 0.2979 0.2169 0.90579 0.0
H816 H 0.33265 0.28273 0.86678 0.0
C817 C 0.26867 0.21416 0.88891 0.0
H818 H 0.34284 0.246 0.91102 0.0
C819 C 0.26266 0.23553 0.86375 0.0
C820 C 0.2858 0.26007 0.8548 0.0
H821 H 0.25068 0.1949 0.89448 0.0
H822 H 0.24046 0.23166 0.8503 0.0
C823 C 0.31426 0.26416 0.87301 0.0
C824 C 0.09931 0.02663 0.37533 0.0
C825 C 0.0835 0.02338 0.34488 0.0
H826 H 0.09462 0.02755 0.42771 0.0
C827 C 0.05009 0.02376 0.34414 0.0
H828 H 0.12502 0.02683 0.37662 0.0
C829 C 0.03272 0.02372 0.37331 0.0
C830 C 0.0485 0.02413 0.40367 0.0
H831 H 0.03726 0.02146 0.32102 0.0
H832 H 0.00696 0.02131 0.37205 0.0
C833 C 0.0819 0.02738 0.40458 0.0
C834 C 0.2333 0.82479 0.60475 0.0
C835 C 0.26052 0.81 0.5908 0.0
H836 H 0.20281 0.82976 0.64668 0.0
C837 C 0.27476 0.78406 0.60703 0.0
H838 H 0.22133 0.84448 0.59278 0.0
C839 C 0.26356 0.77515 0.63784 0.0
C840 C 0.23825 0.79238 0.65297 0.0
H841 H 0.29555 0.77193 0.59682 0.0
H842 H 0.27626 0.75672 0.65085 0.0
C843 C 0.22248 0.81628 0.63562 0.0
C844 C 0.41716 0.97764 0.8656 0.0
C845 C 0.44062 0.97633 0.84121 0.0
H846 H 0.40237 0.96278 0.91274 0.0
C847 C 0.46639 0.95522 0.84442 0.0
H848 H 0.39648 0.99268 0.86321 0.0
C849 C 0.47009 0.93808 0.87316 0.0
C850 C 0.44768 0.9414 0.89872 0.0
H851 H 0.48451 0.95339 0.82552 0.0
H852 H 0.49132 0.92386 0.87607 0.0
C853 C 0.42038 0.95998 0.89383 0.0
C854 C 0.29167 0.25018 0.06395 0.0
C855 C 0.2761 0.21947 0.05231 0.0
H856 H 0.29327 0.2911 0.10124 0.0
C857 C 0.24656 0.20998 0.06588 0.0
H858 H 0.3142 0.2585 0.05357 0.0
C859 C 0.23464 0.22878 0.0929 0.0
C860 C 0.25173 0.25764 0.10635 0.0
H861 H 0.23377 0.18672 0.05724 0.0
H862 H 0.21341 0.2192 0.10499 0.0
C863 C 0.27945 0.26925 0.09078 0.0
C864 C 0.18734 0.03377 0.96634 0.0
C865 C 0.19299 0.06901 0.96421 0.0
H866 H 0.15268 0.99286 0.97067 0.0
C867 C 0.16696 0.09004 0.96317 0.0
H868 H 0.20695 0.01685 0.96718 0.0
C869 C 0.13594 0.07626 0.96497 0.0
C870 C 0.13021 0.04114 0.9681 0.0
H871 H 0.17052 0.11724 0.96141 0.0
H872 H 0.11647 0.09341 0.96459 0.0
C873 C 0.15625 0.01997 0.96839 0.0
C874 C 0.62843 0.43233 0.02153 0.0
C875 C 0.64638 0.46206 0.0314 0.0
H876 H 0.58208 0.40965 0.01099 0.0
C877 C 0.63059 0.49233 0.03859 0.0
H878 H 0.63994 0.40854 0.01614 0.0
C879 C 0.59754 0.49302 0.03547 0.0
C880 C 0.57952 0.46331 0.02564 0.0
H881 H 0.64379 0.51562 0.04636 0.0
H882 H 0.58609 0.51688 0.04073 0.0
C883 C 0.59527 0.43288 0.01895 0.0
C884 C 0.8134 0.43745 0.27159 0.0
C885 C 0.83442 0.43932 0.29841 0.0
H886 H 0.78139 0.40556 0.24125 0.0
C887 C 0.84353 0.40949 0.31204 0.0
H888 H 0.80562 0.46045 0.26133 0.0
C889 C 0.8301 0.37814 0.30031 0.0
C890 C 0.80658 0.37654 0.27564 0.0
H891 H 0.85915 0.41068 0.33326 0.0
H892 H 0.83611 0.35558 0.31248 0.0
C893 C 0.79927 0.40622 0.26045 0.0
C894 C 0.85964 0.57827 0.54725 0.0
C895 C 0.83284 0.55595 0.54542 0.0
H896 H 0.90705 0.58791 0.56488 0.0
C897 C 0.83336 0.52566 0.56203 0.0
H898 H 0.85981 0.60198 0.53518 0.0
C899 C 0.86074 0.51712 0.57887 0.0
C900 C 0.88793 0.5391 0.58004 0.0
H901 H 0.8129 0.508 0.56115 0.0
H902 H 0.8609 0.49298 0.59019 0.0
C903 C 0.88664 0.57019 0.56467 0.0
C904 C 0.18339 0.11402 0.24482 0.0
C905 C 0.18115 0.10572 0.27774 0.0
H906 H 0.19557 0.15218 0.21144 0.0
C907 C 0.18832 0.13101 0.30284 0.0
H908 H 0.17798 0.09508 0.22499 0.0
C909 C 0.19787 0.16394 0.2951 0.0
C910 C 0.20103 0.17187 0.26214 0.0
H911 H 0.18649 0.12537 0.32848 0.0
H912 H 0.2036 0.18288 0.31484 0.0
C913 C 0.19353 0.14667 0.2371 0.0
C914 C 0.36011 0.94182 0.45428 0.0
C915 C 0.35623 0.90958 0.46708 0.0
H916 H 0.39312 0.98156 0.44113 0.0
C917 C 0.38295 0.88975 0.47005 0.0
H918 H 0.33994 0.95768 0.4516 0.0
C919 C 0.41335 0.90313 0.46298 0.0
C920 C 0.41737 0.93677 0.45367 0.0
H921 H 0.3806 0.86476 0.47963 0.0
H922 H 0.43383 0.88836 0.46779 0.0
C923 C 0.3905 0.95551 0.44813 0.0
C924 C 0.77655 0.56941 0.24505 0.0
C925 C 0.76665 0.56047 0.27645 0.0
H926 H 0.7675 0.59972 0.20482 0.0
C927 C 0.73499 0.56522 0.28597 0.0
H928 H 0.80035 0.56438 0.23627 0.0
C929 C 0.71587 0.58501 0.26751 0.0
C930 C 0.72888 0.60089 0.24021 0.0
H931 H 0.72625 0.55729 0.30943 0.0
H932 H 0.69314 0.59223 0.27775 0.0
C933 C 0.75748 0.58922 0.22671 0.0
C934 C 0.70512 0.44334 0.72469 0.0
C935 C 0.70763 0.464 0.75412 0.0
H936 H 0.72094 0.3984 0.69822 0.0
C937 C 0.73384 0.46093 0.77488 0.0
H938 H 0.68532 0.44534 0.708 0.0
C939 C 0.75439 0.43448 0.76884 0.0
C940 C 0.74899 0.41091 0.74203 0.0
H941 H 0.73674 0.47688 0.79738 0.0
H942 H 0.77226 0.43017 0.78714 0.0
C943 C 0.72565 0.41665 0.71879 0.0
C944 C 0.95808 0.84233 0.92758 0.0
C945 C 0.97973 0.82552 0.90672 0.0
H946 H 0.95053 0.88214 0.96402 0.0
C947 C 0.0118 0.83776 0.9068 0.0
H948 H 0.93335 0.83354 0.92862 0.0
C949 C 0.0219 0.86595 0.9275 0.0
C950 C 0.00018 0.88235 0.94867 0.0
H951 H 0.02927 0.8252 0.89129 0.0
H952 H 0.04656 0.875 0.92673 0.0
C953 C 0.96816 0.87011 0.94832 0.0
C954 C 0.92904 0.30436 0.67816 0.0
C955 C 0.95086 0.28257 0.69078 0.0
H956 H 0.88729 0.33231 0.6865 0.0
C957 C 0.94845 0.27448 0.7238 0.0
H958 H 0.93095 0.3119 0.65307 0.0
C959 C 0.92309 0.28608 0.74319 0.0
C960 C 0.90017 0.30643 0.72992 0.0
H961 H 0.96545 0.25824 0.73424 0.0
H962 H 0.92061 0.27772 0.76792 0.0
C963 C 0.90428 0.31653 0.6976 0.0
C964 C 0.51083 0.15677 0.41618 0.0
C965 C 0.47914 0.16676 0.41621 0.0
H966 H 0.54309 0.11929 0.42881 0.0
C967 C 0.45605 0.14812 0.43351 0.0
H968 H 0.52928 0.17067 0.40336 0.0
C969 C 0.46398 0.11846 0.44805 0.0
C970 C 0.49508 0.10695 0.4454 0.0
H971 H 0.43144 0.15532 0.43426 0.0
H972 H 0.44543 0.10374 0.45988 0.0
C973 C 0.51868 0.12707 0.43049 0.0
C974 C 0.56306 0.72942 0.17808 0.0
C975 C 0.54426 0.70012 0.18347 0.0
H976 H 0.60516 0.75905 0.1903 0.0
C977 C 0.55455 0.67728 0.20605 0.0
H978 H 0.5557 0.74765 0.16105 0.0
C979 C 0.58316 0.68392 0.22314 0.0
C980 C 0.60177 0.71344 0.21779 0.0
H981 H 0.54029 0.65464 0.21095 0.0
H982 H 0.59092 0.66575 0.24003 0.0
C983 C 0.59131 0.73611 0.19518 0.0
C984 C 0.9627 0.12105 0.60944 0.0
C985 C -0.01113 0.14454 0.61165 0.0
H986 H 0.94541 0.07093 0.59305 0.0
C987 C 0.01915 0.13321 0.60253 0.0
H988 H 0.9391 0.12884 0.61647 0.0
C989 C 0.02264 0.10029 0.58851 0.0
C990 C -0.00393 0.07768 0.58392 0.0
H991 H 0.03989 0.1505 0.60395 0.0
H992 H 0.04593 0.0931 0.5798 0.0
C993 C 0.96634 0.08782 0.59604 0.0
C994 C 0.59258 0.30027 0.34331 0.0
C995 C 0.57029 0.30495 0.3187 0.0
H996 H 0.64181 0.29953 0.35562 0.0
C997 C 0.58015 0.32007 0.28982 0.0
H998 H 0.58532 0.28936 0.36606 0.0
C999 C 0.61264 0.32562 0.28362 0.0
C1000 C 0.63512 0.31628 0.30647 0.0
H1001 H 0.56315 0.3242 0.27064 0.0
H1002 H 0.62006 0.33333 0.25963 0.0
C1003 C 0.62481 0.30634 0.33739 0.0
C1004 C 0.41397 0.83557 0.08968 0.0
C1005 C 0.43214 0.80645 0.08654 0.0
H1006 H 0.41019 0.88763 0.07808 0.0
C1007 C 0.45951 0.80662 0.06681 0.0
H1008 H 0.39291 0.83604 0.10504 0.0
C1009 C 0.46893 0.83568 0.05089 0.0
C1010 C 0.45167 0.86538 0.05525 0.0
H1011 H 0.47388 0.78442 0.0641 0.0
H1012 H 0.49046 0.83531 0.03623 0.0
C1013 C 0.42395 0.86505 0.07452 0.0
C1014 C 0.92808 0.74099 0.77059 0.0
C1015 C 0.92786 0.71787 0.79536 0.0
H1016 H 0.89983 0.76638 0.73679 0.0
C1017 C 0.90036 0.69749 0.80063 0.0
H1018 H 0.94916 0.75674 0.76598 0.0
C1019 C 0.87254 0.7022 0.78325 0.0
C1020 C 0.87183 0.72794 0.76108 0.0
H1021 H 0.89993 0.67909 0.81933 0.0
H1022 H 0.85096 0.68801 0.78945 0.0
C1023 C 0.90004 0.74631 0.75379 0.0
C1024 C 0.00886 0.02152 0.81967 0.0
C1025 C 0.98431 -0.00031 0.80653 0.0
H1026 H 0.03353 0.04055 0.86329 0.0
C1027 C 0.97028 0.9749 0.82556 0.0
H1028 H 0.01944 0.04126 0.80525 0.0
C1029 C 0.97805 0.97457 0.85869 0.0
C1030 C -0.00051 -0.00046 0.87309 0.0
H1031 H 0.95079 0.9584 0.81583 0.0
H1032 H 0.96513 0.95671 0.87348 0.0
C1033 C 0.01635 0.02161 0.85296 0.0
C1034 C 0.81948 0.23082 0.60036 0.0
C1035 C 0.8017 0.20075 0.59123 0.0
H1036 H 0.8255 0.2739 0.6347 0.0
C1037 C 0.77471 0.19202 0.60985 0.0
H1038 H 0.8401 0.23858 0.58623 0.0
C1039 C 0.76621 0.21236 0.63749 0.0
C1040 C 0.78428 0.24214 0.64695 0.0
H1041 H 0.76026 0.16921 0.60331 0.0
H1042 H 0.74586 0.20435 0.65187 0.0
C1043 C 0.81075 0.25141 0.6278 0.0
C1044 C 0.58849 0.93607 0.32113 0.0
C1045 C 0.61896 0.95158 0.31773 0.0
H1046 H 0.54839 0.92806 0.35287 0.0
C1047 C 0.63331 0.96947 0.34499 0.0
H1048 H 0.57694 0.92213 0.30038 0.0
C1049 C 0.61679 0.97347 0.37459 0.0
C1050 C 0.5859 0.95899 0.3777 0.0
H1051 H 0.65648 0.98208 0.34304 0.0
H1052 H 0.62787 0.98867 0.39485 0.0
C1053 C 0.57223 0.93933 0.35108 0.0
C1054 C 0.73237 0.78769 0.08635 0.0
C1055 C 0.76481 0.79272 0.07897 0.0
H1056 H 0.69812 0.76642 0.11879 0.0
C1057 C 0.78726 0.77364 0.09466 0.0
H1058 H 0.71437 0.80136 0.07424 0.0
C1059 C 0.77786 0.75344 0.12025 0.0
C1060 C 0.74595 0.75216 0.13043 0.0
H1061 H 0.81242 0.77648 0.08916 0.0
H1062 H 0.79598 0.74149 0.1339 0.0
C1063 C 0.72304 0.76762 0.11191 0.0
C1064 C -0.00579 0.0032 0.64281 0.0
C1065 C 0.96287 0.01102 0.65166 0.0
H1066 H 0.02419 0.97167 0.6127 0.0
C1067 C 0.93742 0.99031 0.63855 0.0
H1068 H 0.01436 0.01838 0.65294 0.0
C1069 C 0.9431 0.96305 0.6163 0.0
C1070 C 0.97428 0.95618 0.60618 0.0
H1071 H 0.91302 0.99509 0.64541 0.0
H1072 H 0.92287 0.94836 0.60566 0.0
C1073 C -9e-05 0.97593 0.62035 0.0
C1074 C 0.81719 0.23763 0.41884 0.0
C1075 C 0.79358 0.22751 0.44113 0.0
H1076 H 0.82701 0.25492 0.37104 0.0
C1077 C 0.76171 0.23452 0.43515 0.0
H1078 H 0.84208 0.23307 0.42299 0.0
C1079 C 0.75312 0.247 0.40537 0.0
C1080 C 0.77628 0.25259 0.38116 0.0
H1081 H 0.74306 0.22771 0.45222 0.0
H1082 H 0.72806 0.24981 0.40048 0.0
C1083 C 0.80857 0.24996 0.38893 0.0
C1084 C 0.56541 0.01552 0.1609 0.0
C1085 C 0.59761 0.0078 0.15683 0.0
H1086 H 0.52065 0.02168 0.13741 0.0
C1087 C 0.61043 0.00515 0.12495 0.0
H1088 H 0.55481 0.01788 0.18514 0.0
C1089 C 0.59089 0.00829 0.09758 0.0
C1090 C 0.55819 0.01339 0.10176 0.0
H1091 H 0.63521 -0.00054 0.12113 0.0
H1092 H 0.60087 0.00433 0.07317 0.0
C1093 C 0.54582 0.01785 0.13362 0.0
C1094 C 0.75715 0.84367 0.92018 0.0
C1095 C 0.78804 0.84505 0.93373 0.0
H1096 H 0.72772 0.83046 0.87803 0.0
C1097 C 0.81335 0.83338 0.91416 0.0
H1098 H 0.73704 0.85226 0.93464 0.0
C1099 C 0.80798 0.82105 0.88168 0.0
C1100 C 0.77712 0.81976 0.86809 0.0
H1101 H 0.83739 0.83403 0.92382 0.0
H1102 H 0.8281 0.81254 0.8672 0.0
C1103 C 0.75172 0.83098 0.88778 0.0
C1104 C 0.8445 0.97728 0.00557 0.0
C1105 C 0.83823 0.95642 0.03165 0.0
H1106 H 0.87995 0.00658 0.98054 0.0
C1107 C 0.86177 0.95311 0.05552 0.0
H1108 H 0.8266 0.98024 0.98696 0.0
C1109 C 0.89182 0.9689 0.05245 0.0
C1110 C 0.89901 0.98747 0.02495 0.0
H1111 H 0.85725 0.93741 0.07608 0.0
H1112 H 0.91002 0.9645 0.07035 0.0
C1113 C 0.87489 0.99236 0.002 0.0
C1114 C 0.3469 0.55733 0.95852 0.0
C1115 C 0.3202 0.5519 0.97859 0.0
H1116 H 0.38762 0.53582 0.93509 0.0
C1117 C 0.31306 0.51912 0.98889 0.0
H1118 H 0.3527 0.58223 0.94977 0.0
C1119 C 0.3327 0.49247 0.98004 0.0
C1120 C 0.35983 0.49801 0.96065 0.0
H1121 H 0.29237 0.51401 0.00397 0.0
H1122 H 0.32728 0.46772 0.98935 0.0
C1123 C 0.36648 0.53057 0.94947 0.0
C1124 C 0.17132 0.62289 0.78353 0.0
C1125 C 0.16649 0.61771 0.81702 0.0
H1126 H 0.1847 0.65856 0.74777 0.0
C1127 C 0.16775 0.64569 0.83998 0.0
H1128 H 0.17041 0.6016 0.76537 0.0
C1129 C 0.1748 0.67827 0.82979 0.0
C1130 C 0.18171 0.68323 0.7966 0.0
H1131 H 0.16381 0.64229 0.86588 0.0
H1132 H 0.17671 0.69927 0.84823 0.0
C1133 C 0.17939 0.65537 0.77345 0.0
C1134 C 0.11414 0.39299 0.49067 0.0
C1135 C 0.14229 0.41264 0.48602 0.0
H1136 H 0.06392 0.39329 0.5004 0.0
C1137 C 0.14044 0.44794 0.4837 0.0
H1138 H 0.11485 0.36572 0.4924 0.0
C1139 C 0.11158 0.46364 0.48888 0.0
C1140 C 0.08385 0.44428 0.49553 0.0
H1141 H 0.16164 0.46383 0.48006 0.0
H1142 H 0.11119 0.49113 0.48913 0.0
C1143 C 0.08501 0.4087 0.49503 0.0
C1144 C 0.825 0.94714 0.76678 0.0
C1145 C 0.8517 0.95525 0.74759 0.0
H1146 H 0.78607 0.91184 0.77437 0.0
C1147 C 0.85635 0.93632 0.7176 0.0
H1148 H 0.8204 0.96153 0.78969 0.0
C1149 C 0.83636 0.90782 0.70871 0.0
C1150 C 0.81118 0.89841 0.72936 0.0
H1151 H 0.87663 0.94209 0.70217 0.0
H1152 H 0.84215 0.89166 0.68724 0.0
C1153 C 0.80496 0.91908 0.75771 0.0
C1154 C 0.67993 0.06754 0.55195 0.0
C1155 C 0.68607 0.09716 0.53495 0.0
H1156 H 0.64805 0.02451 0.55845 0.0
C1157 C 0.66235 0.1086 0.51471 0.0
H1158 H 0.69777 0.05818 0.56788 0.0
C1159 C 0.63422 0.08932 0.50924 0.0
C1160 C 0.62914 0.05818 0.52393 0.0
H1161 H 0.66619 0.13155 0.50166 0.0
H1162 H 0.61694 0.09828 0.49241 0.0
C1163 C 0.65158 0.04814 0.54647 0.0
C1164 C 0.23318 0.46306 0.76438 0.0
C1165 C 0.23285 0.47118 0.79841 0.0
H1166 H 0.24876 0.42897 0.72549 0.0
C1167 C 0.25389 0.45509 0.8187 0.0
H1168 H 0.21775 0.47551 0.74801 0.0
C1169 C 0.27173 0.42823 0.80573 0.0
C1170 C 0.2687 0.41726 0.77238 0.0
H1171 H 0.2544 0.46101 0.84501 0.0
H1172 H 0.28549 0.41419 0.82237 0.0
C1173 C 0.25095 0.43634 0.75148 0.0
C1174 C 0.26927 0.60761 0.20983 0.0
C1175 C 0.27045 0.58946 0.23827 0.0
H1176 H 0.24551 0.64546 0.18508 0.0
C1177 C 0.24356 0.58834 0.25893 0.0
H1178 H 0.28933 0.60839 0.19312 0.0
C1179 C 0.21861 0.6098 0.25463 0.0
C1180 C 0.22003 0.63232 0.22939 0.0
H1181 H 0.24324 0.5735 0.28045 0.0
H1182 H 0.20009 0.61141 0.27314 0.0
C1183 C 0.24398 0.62879 0.20524 0.0
C1184 C 0.4696 0.65185 0.61625 0.0
C1185 C 0.46376 0.68103 0.59956 0.0
H1186 H 0.47343 0.59762 0.61246 0.0
C1187 C 0.45793 0.67801 0.56556 0.0
H1188 H 0.47379 0.65364 0.64254 0.0
C1189 C 0.45831 0.64632 0.54834 0.0
C1190 C 0.46342 0.61698 0.56505 0.0
H1191 H 0.45325 0.70025 0.55225 0.0
H1192 H 0.45419 0.64468 0.52203 0.0
C1193 C 0.46896 0.61992 0.59916 0.0
C1194 C 0.62903 0.25312 0.83701 0.0
C1195 C 0.61833 0.21981 0.8272 0.0
H1196 H 0.6647 0.29263 0.83205 0.0
C1197 C 0.63746 0.19961 0.80632 0.0
H1198 H 0.61482 0.26932 0.85311 0.0
C1199 C 0.66585 0.21309 0.79393 0.0
C1200 C 0.67571 0.24699 0.8023 0.0
H1201 H 0.62989 0.1738 0.79839 0.0
H1202 H 0.67972 0.19709 0.77729 0.0
C1203 C 0.65744 0.26661 0.82462 0.0
C1204 C 0.96338 0.37296 0.06338 0.0
C1205 C 0.97779 0.35697 0.08902 0.0
H1206 H 0.96071 0.41819 0.03733 0.0
C1207 C 0.00309 0.37423 0.10656 0.0
H1208 H 0.94398 0.36032 0.04932 0.0
C1209 C 0.01244 0.40746 0.09998 0.0
C1210 C -0.00295 0.424 0.07539 0.0
H1211 H 0.01489 0.36266 0.12642 0.0
H1212 H 0.03112 0.42051 0.11478 0.0
C1213 C 0.97308 0.40609 0.05648 0.0
C1214 C 0.88798 0.70489 0.27693 0.0
C1215 C 0.89251 0.70634 0.31113 0.0
H1216 H 0.85575 0.71128 0.23733 0.0
C1217 C 0.86793 0.71689 0.3321 0.0
H1218 H 0.90681 0.69689 0.26034 0.0
C1219 C 0.83915 0.72617 0.3189 0.0
C1220 C 0.83446 0.72423 0.28463 0.0
H1221 H 0.87116 0.71865 0.35852 0.0
H1222 H 0.82027 0.73394 0.33551 0.0
C1223 C 0.859 0.7133 0.26376 0.0
C1224 C 0.48459 0.2938 0.92734 0.0
C1225 C 0.46088 0.28372 0.90403 0.0
H1226 H 0.50113 0.33165 0.96412 0.0
C1227 C 0.43358 0.30299 0.90241 0.0
H1228 H 0.50581 0.27931 0.92918 0.0
C1229 C 0.43123 0.33322 0.92187 0.0
C1230 C 0.4557 0.34421 0.94396 0.0
H1231 H 0.41495 0.29592 0.88462 0.0
H1232 H 0.41088 0.34871 0.91871 0.0
C1233 C 0.48181 0.32358 0.94747 0.0
C1234 C 0.8885 0.20315 0.20632 0.0
C1235 C 0.89094 0.21611 0.17502 0.0
H1236 H 0.85773 0.19387 0.24698 0.0
C1237 C 0.86312 0.22042 0.15698 0.0
H1238 H 0.90958 0.19925 0.22067 0.0
C1239 C 0.83336 0.21627 0.17178 0.0
C1240 C 0.83137 0.20862 0.20494 0.0
H1241 H 0.86439 0.22991 0.13262 0.0
H1242 H 0.81241 0.22317 0.15863 0.0
C1243 C 0.85885 0.19992 0.22141 0.0
C1244 C 0.98417 0.6565 0.48222 0.0
C1245 C -0.00452 0.65034 0.4501 0.0
H1246 H 0.98156 0.63929 0.53085 0.0
C1247 C 0.01894 0.62625 0.44419 0.0
H1248 H 0.96652 0.67534 0.48755 0.0
C1249 C 0.02768 0.6055 0.46922 0.0
C1250 C 0.0132 0.60904 0.50026 0.0
H1251 H 0.02811 0.62116 0.4196 0.0
H1252 H 0.04279 0.58439 0.46321 0.0
C1253 C -0.00687 0.63619 0.50712 0.0
C1254 C 0.59661 0.81398 0.73878 0.0
C1255 C 0.58635 0.79828 0.70854 0.0
H1256 H 0.63648 0.83022 0.76939 0.0
C1257 C 0.60892 0.78993 0.68429 0.0
H1258 H 0.57961 0.82095 0.75778 0.0
C1259 C 0.64134 0.79627 0.69053 0.0
C1260 C 0.65172 0.81034 0.72141 0.0
H1261 H 0.60155 0.77834 0.66056 0.0
H1262 H 0.65829 0.78843 0.67179 0.0
C1263 C 0.62907 0.81957 0.74532 0.0
C1264 C 0.57754 0.45094 0.63193 0.0
C1265 C 0.57894 0.48064 0.65303 0.0
H1266 H 0.55547 0.4249 0.58928 0.0
C1267 C 0.55895 0.50716 0.64701 0.0
H1268 H 0.59268 0.43005 0.63614 0.0
C1269 C 0.5372 0.5037 0.62129 0.0
C1270 C 0.5353 0.47394 0.6004 0.0
H1271 H 0.55924 0.53028 0.66284 0.0
H1272 H 0.52206 0.52473 0.61758 0.0
C1273 C 0.55614 0.44782 0.6054 0.0
C1274 C 0.76803 0.38036 0.92791 0.0
C1275 C 0.79161 0.37441 0.95092 0.0
H1276 H 0.75087 0.3714 0.87896 0.0
C1277 C 0.81727 0.35428 0.94083 0.0
H1278 H 0.74807 0.39588 0.93465 0.0
C1279 C 0.81897 0.34001 0.90853 0.0
C1280 C 0.79505 0.34567 0.88572 0.0
H1281 H 0.83597 0.34926 0.95794 0.0
H1282 H 0.83871 0.32427 0.90159 0.0
C1283 C 0.76975 0.36627 0.89581 0.0
C1284 C 0.932 0.58381 0.22375 0.0
C1285 C 0.94268 0.56102 0.24599 0.0
H1286 H 0.93845 0.60476 0.17715 0.0
C1287 C 0.97122 0.54451 0.23957 0.0
H1288 H 0.91048 0.59753 0.22848 0.0
C1289 C 0.98735 0.54853 0.20996 0.0
C1290 C 0.97524 0.56934 0.18652 0.0
H1291 H 0.9802 0.52712 0.25659 0.0
H1292 H 0.00817 0.53382 0.20471 0.0
C1293 C 0.94824 0.58813 0.19443 0.0
C1294 C 0.76382 0.69383 0.41071 0.0
C1295 C 0.74921 0.66329 0.42019 0.0
H1296 H 0.76286 0.73479 0.37884 0.0
C1297 C 0.71971 0.65242 0.40591 0.0
H1298 H 0.78625 0.70326 0.42156 0.0
C1299 C 0.70618 0.67052 0.3813 0.0
C1300 C 0.72157 0.70023 0.37068 0.0
H1301 H 0.70759 0.62916 0.41287 0.0
H1302 H 0.68439 0.66038 0.36957 0.0
C1303 C 0.75005 0.71222 0.3865 0.0
C1304 C 0.52212 0.51031 0.83068 0.0
C1305 C 0.555 0.51771 0.83341 0.0
H1306 H 0.47895 0.49781 0.85598 0.0
C1307 C 0.56905 0.52257 0.86465 0.0
H1308 H 0.51077 0.50632 0.80681 0.0
C1309 C 0.55069 0.51841 0.89278 0.0
C1310 C 0.51831 0.50844 0.88986 0.0
H1311 H 0.59431 0.52857 0.86731 0.0
H1312 H 0.56219 0.52103 0.91665 0.0
C1313 C 0.50397 0.50522 0.85871 0.0
C1314 C 0.7093 0.34475 0.11182 0.0
C1315 C 0.73773 0.33777 0.09493 0.0
H1316 H 0.67938 0.33295 0.15251 0.0
C1317 C 0.75342 0.30799 0.10089 0.0
H1318 H 0.6966 0.36747 0.10764 0.0
C1319 C 0.74278 0.28755 0.12581 0.0
C1320 C 0.71691 0.29727 0.14561 0.0
H1321 H 0.77519 0.30187 0.08795 0.0
H1322 H 0.75701 0.26653 0.132 0.0
C1323 C 0.69924 0.32491 0.13736 0.0
C1324 C 0.86972 0.52789 0.43599 0.0
C1325 C 0.8819 0.51645 0.4055 0.0
H1326 H 0.87472 0.52748 0.48814 0.0
C1327 C 0.90294 0.48975 0.40352 0.0
H1328 H 0.85305 0.54819 0.43777 0.0
C1329 C 0.91489 0.47747 0.43202 0.0
C1330 C 0.9065 0.49248 0.46276 0.0
H1331 H 0.91187 0.48005 0.37995 0.0
H1332 H 0.93313 0.45883 0.42973 0.0
C1333 C 0.88211 0.516 0.46467 0.0
C1334 C 0.74983 0.6726 0.59561 0.0
C1335 C 0.77107 0.68144 0.57068 0.0
H1336 H 0.73191 0.68565 0.64368 0.0
C1337 C 0.78772 0.7133 0.57362 0.0
H1338 H 0.73665 0.64836 0.5941 0.0
C1339 C 0.78451 0.73502 0.60186 0.0
C1340 C 0.76508 0.72483 0.62769 0.0
H1341 H 0.80406 0.72093 0.5546 0.0
H1342 H 0.79867 0.75863 0.60434 0.0
C1343 C 0.74714 0.69394 0.62398 0.0
C1344 C 0.64565 0.50953 0.47198 0.0
C1345 C 0.65743 0.54195 0.48359 0.0
H1346 H 0.60446 0.47678 0.46171 0.0
C1347 C 0.63584 0.56723 0.49216 0.0
H1348 H 0.66176 0.48957 0.46504 0.0
C1349 C 0.60311 0.5601 0.48969 0.0
C1350 C 0.59123 0.52738 0.47904 0.0
H1351 H 0.64422 0.59255 0.50086 0.0
H1352 H 0.58713 0.58004 0.49709 0.0
C1353 C 0.61285 0.50223 0.46995 0.0
C1354 C 0.15918 0.91084 0.51153 0.0
C1355 C 0.18199 0.93751 0.51779 0.0
H1356 H 0.10998 0.89606 0.50625 0.0
C1357 C 0.17183 0.97077 0.52402 0.0
H1358 H 0.16621 0.88487 0.50675 0.0
C1359 C 0.13939 0.97723 0.52367 0.0
C1360 C 0.1166 0.9505 0.51724 0.0
H1361 H 0.18889 0.99181 0.52895 0.0
H1362 H 0.13221 0.00316 0.52833 0.0
C1363 C 0.12687 0.91724 0.51133 0.0
C1364 C 0.30653 0.963 0.81561 0.0
C1365 C 0.32381 0.97301 0.78795 0.0
H1366 H 0.27386 0.92621 0.83495 0.0
C1367 C 0.31643 0.95706 0.75693 0.0
H1368 H 0.31142 0.97482 0.83989 0.0
C1369 C 0.29407 0.92976 0.75414 0.0
C1370 C 0.27924 0.91795 0.78237 0.0
H1371 H 0.32911 0.96441 0.73515 0.0
H1372 H 0.29048 0.91607 0.73046 0.0
C1373 C 0.28476 0.93538 0.81288 0.0
C1374 C 0.34568 0.06009 0.04326 0.0
C1375 C 0.35198 0.08996 0.02665 0.0
H1376 H 0.36461 0.01401 0.05906 0.0
C1377 C 0.38371 0.10047 0.02105 0.0
H1378 H 0.32144 0.05146 0.04821 0.0
C1379 C 0.40829 0.07924 0.0278 0.0
C1380 C 0.4015 0.04735 0.04033 0.0
H1381 H 0.38938 0.12345 0.00862 0.0
H1382 H 0.43224 0.0861 0.01995 0.0
C1383 C 0.37036 0.03874 0.04987 0.0
C1384 C 0.66544 0.63622 0.80842 0.0
C1385 C 0.66019 0.61247 0.78154 0.0
H1386 H 0.68734 0.68427 0.8256 0.0
C1387 C 0.67198 0.62002 0.75052 0.0
H1388 H 0.65654 0.63093 0.83262 0.0
C1389 C 0.69027 0.64985 0.74681 0.0
C1390 C 0.69641 0.67309 0.77385 0.0
H1391 H 0.66851 0.60208 0.72947 0.0
H1392 H 0.69997 0.65457 0.72278 0.0
C1393 C 0.68304 0.66661 0.80448 0.0
C1394 C 0.8542 0.47168 0.02437 0.0
C1395 C 0.8281 0.49022 0.03524 0.0
H1396 H 0.90446 0.47204 0.01664 0.0
C1397 C 0.83237 0.52487 0.0449 0.0
H1398 H 0.85125 0.44496 0.01663 0.0
C1399 C 0.86296 0.5403 0.04568 0.0
C1400 C 0.88931 0.52143 0.03574 0.0
H1401 H 0.81236 0.53947 0.05344 0.0
H1402 H 0.86613 0.56662 0.0548 0.0
C1403 C 0.88453 0.48729 0.02414 0.0
C1404 C 0.33331 0.13327 0.78368 0.0
C1405 C 0.35997 0.12153 0.76637 0.0
H1406 H 0.29569 0.1679 0.78622 0.0
C1407 C 0.36805 0.13522 0.73627 0.0
H1408 H 0.32612 0.12275 0.80663 0.0
C1409 C 0.35056 0.16128 0.72446 0.0
C1410 C 0.3244 0.1737 0.74232 0.0
H1411 H 0.38835 0.12638 0.72225 0.0
H1412 H 0.35808 0.17233 0.70189 0.0
C1413 C 0.31557 0.15885 0.77167 0.0
C1414 C 0.2237 0.93004 0.23144 0.0
C1415 C 0.226 0.94513 0.26366 0.0
H1416 H 0.22894 0.88448 0.20079 0.0
C1417 C 0.24485 0.92994 0.2867 0.0
H1418 H 0.20992 0.94138 0.21283 0.0
C1419 C 0.25618 0.89752 0.27943 0.0
C1420 C 0.24906 0.88022 0.24904 0.0
H1421 H 0.24757 0.94106 0.31157 0.0
H1422 H 0.2668 0.88433 0.29897 0.0
C1423 C 0.23493 0.89757 0.22428 0.0
C1424 C 0.48195 0.33647 0.4054 0.0
C1425 C 0.45098 0.32361 0.39725 0.0
H1426 H 0.51078 0.37593 0.4306 0.0
C1427 C 0.4248 0.34171 0.40902 0.0
H1428 H 0.50268 0.32298 0.39699 0.0
C1429 C 0.42955 0.37234 0.42797 0.0
C1430 C 0.46054 0.38511 0.43613 0.0
H1431 H 0.4007 0.33244 0.40325 0.0
H1432 H 0.4089 0.38597 0.43637 0.0
C1433 C 0.48667 0.36668 0.42489 0.0
C1434 C 0.38405 0.70523 0.24916 0.0
C1435 C 0.38203 0.69126 0.21669 0.0
H1436 H 0.35759 0.72558 0.29032 0.0
C1437 C 0.35292 0.67808 0.20395 0.0
H1438 H 0.40649 0.7159 0.25902 0.0
C1439 C 0.32532 0.68242 0.22227 0.0
C1440 C 0.32678 0.70104 0.25275 0.0
H1441 H 0.3511 0.66768 0.17873 0.0
H1442 H 0.3026 0.67546 0.21069 0.0
C1443 C 0.35627 0.7108 0.267 0.0
C1444 C 0.95015 0.68813 0.98678 0.0
C1445 C 0.97617 0.6997 0.96811 0.0
H1446 H 0.93513 0.66036 0.02787 0.0
C1447 C 0.00694 0.69976 0.98135 0.0
H1448 H 0.926 0.68857 0.97759 0.0
C1449 C 0.01203 0.68438 0.01061 0.0
C1450 C 0.9865 0.6681 0.02659 0.0
H1451 H 0.02732 0.7096 0.96807 0.0
H1452 H 0.03634 0.68211 0.01879 0.0
C1453 C 0.95529 0.67238 0.01591 0.0
C1454 C 0.13576 0.26624 0.66016 0.0
C1455 C 0.1158 0.2421 0.6749 0.0
H1456 H 0.17973 0.29536 0.66239 0.0
C1457 C 0.12634 0.22727 0.70321 0.0
H1458 H 0.12834 0.27824 0.63838 0.0
C1459 C 0.15602 0.23706 0.71697 0.0
C1460 C 0.17531 0.26225 0.70291 0.0
H1461 H 0.11141 0.20863 0.71511 0.0
H1462 H 0.16356 0.22549 0.73895 0.0
C1463 C 0.16506 0.27641 0.67418 0.0
C1464 C 0.45461 0.6359 0.06839 0.0
C1465 C 0.42309 0.64356 0.07648 0.0
H1466 H 0.48569 0.60146 0.04361 0.0
C1467 C 0.39798 0.62289 0.06249 0.0
H1468 H 0.4745 0.65166 0.07831 0.0
C1469 C 0.40444 0.59379 0.04255 0.0
C1470 C 0.4361 0.58515 0.03603 0.0
H1471 H 0.37342 0.62834 0.06805 0.0
H1472 H 0.38467 0.57747 0.03326 0.0
C1473 C 0.46104 0.60718 0.04826 0.0
C1474 C 0.09725 0.75533 0.78721 0.0
C1475 C 0.0868 0.75601 0.82004 0.0
H1476 H 0.1285 0.77734 0.75214 0.0
C1477 C 0.0985 0.7821 0.84236 0.0
H1478 H 0.08832 0.73583 0.76928 0.0
C1479 C 0.12102 0.80626 0.83236 0.0
C1480 C 0.13244 0.80482 0.79988 0.0
H1481 H 0.09045 0.78377 0.86766 0.0
H1482 H 0.13058 0.82527 0.85046 0.0
C1483 C 0.11978 0.77958 0.77717 0.0
C1484 C 0.96184 0.31323 0.55498 0.0
C1485 C -0.01162 0.30276 0.57202 0.0
H1486 H 0.93514 0.35535 0.54131 0.0
C1487 C 0.00547 0.32668 0.59303 0.0
H1488 H 0.9483 0.29536 0.53862 0.0
C1489 C -0.00285 0.36073 0.5955 0.0
C1490 C 0.9723 0.37158 0.57623 0.0
H1491 H 0.02599 0.31943 0.60661 0.0
H1492 H 0.01181 0.37902 0.61031 0.0
C1493 C 0.95417 0.34743 0.55667 0.0
C1494 C 0.38712 0.21081 0.2745 0.0
C1495 C 0.41277 0.23401 0.26947 0.0
H1496 H 0.33791 0.19771 0.26464 0.0
C1497 C 0.41031 0.25786 0.24562 0.0
H1498 H 0.38875 0.19164 0.29229 0.0
C1499 C 0.38141 0.261 0.22974 0.0
C1500 C 0.35493 0.24004 0.23723 0.0
H1501 H 0.42989 0.27564 0.24093 0.0
H1502 H 0.37897 0.28167 0.21368 0.0
C1503 C 0.35829 0.21373 0.25827 0.0
C1504 C 0.39957 0.57248 0.36023 0.0
C1505 C 0.41802 0.5638 0.33242 0.0
H1506 H 0.39513 0.57152 0.41255 0.0
C1507 C 0.44887 0.55225 0.33672 0.0
H1508 H 0.37622 0.58259 0.35791 0.0
C1509 C 0.46016 0.54734 0.36821 0.0
C1510 C 0.44052 0.55345 0.39555 0.0
H1511 H 0.46383 0.54583 0.31576 0.0
H1512 H 0.48335 0.5368 0.37103 0.0
C1513 C 0.4105 0.56668 0.39154 0.0
C1514 C 0.24764 0.68368 0.09012 0.0
C1515 C 0.27985 0.68465 0.08047 0.0
H1516 H 0.21218 0.70323 0.12272 0.0
C1517 C 0.30117 0.70806 0.0972 0.0
H1518 H 0.23029 0.66632 0.07769 0.0
C1519 C 0.2906 0.72946 0.12344 0.0
C1520 C 0.25837 0.72832 0.13294 0.0
H1521 H 0.3259 0.71 0.08984 0.0
H1522 H 0.30763 0.7467 0.13647 0.0
C1523 C 0.23703 0.70539 0.11572 0.0
C1524 C 0.108 0.53293 0.92383 0.0
C1525 C 0.08945 0.52403 0.89569 0.0
H1526 H 0.10797 0.54656 0.97564 0.0
C1527 C 0.05614 0.52243 0.89829 0.0
H1528 H 0.1337 0.5345 0.92251 0.0
C1529 C 0.04158 0.5287 0.92854 0.0
C1530 C 0.06 0.53733 0.95674 0.0
H1531 H 0.04123 0.51559 0.87703 0.0
H1532 H 0.01581 0.52682 0.92982 0.0
C1533 C 0.09331 0.53995 0.95416 0.0
C1534 C 0.28935 0.28312 0.55551 0.0
C1535 C 0.25989 0.29549 0.54644 0.0
H1536 H 0.32185 0.27587 0.59482 0.0
C1537 C 0.24074 0.31115 0.57074 0.0
H1538 H 0.30441 0.2706 0.5373 0.0
C1539 C 0.25111 0.31499 0.6032 0.0
C1540 C 0.28035 0.30228 0.61235 0.0
H1541 H 0.21776 0.32064 0.56477 0.0
H1542 H 0.23557 0.32687 0.62136 0.0
C1543 C 0.29939 0.28621 0.58828 0.0
C1544 C 0.39015 0.47831 0.14493 0.0
C1545 C 0.41482 0.48843 0.16684 0.0
H1546 H 0.37741 0.45367 0.0985 0.0
C1547 C 0.44557 0.47659 0.1608 0.0
H1548 H 0.36606 0.48611 0.14965 0.0
C1549 C 0.45227 0.45815 0.13125 0.0
C1550 C 0.42808 0.4509 0.10784 0.0
H1551 H 0.46484 0.48356 0.17786 0.0
H1552 H 0.47674 0.45248 0.12551 0.0
C1553 C 0.39661 0.45916 0.11601 0.0
C1554 C 0.304 0.74237 0.92656 0.0
C1555 C 0.27833 0.72665 0.94288 0.0
H1556 H 0.31827 0.77564 0.88923 0.0
C1557 C 0.24764 0.73852 0.93912 0.0
H1558 H 0.32809 0.73423 0.92943 0.0
C1559 C 0.24215 0.76275 0.91654 0.0
C1560 C 0.26718 0.77503 0.89692 0.0
H1561 H 0.22753 0.72757 0.95202 0.0
H1562 H 0.2178 0.76951 0.91244 0.0
C1563 C 0.29845 0.76635 0.90366 0.0
C1564 C 0.04469 0.53514 0.71859 0.0
C1565 C 0.07714 0.52808 0.7202 0.0
H1566 H 0.00352 0.53712 0.68791 0.0
C1567 C 0.09388 0.52039 0.69107 0.0
H1568 H 0.03123 0.54107 0.74075 0.0
C1569 C 0.07819 0.51906 0.66079 0.0
C1570 C 0.04538 0.52447 0.65937 0.0
H1571 H 0.11895 0.51504 0.69173 0.0
H1572 H 0.0914 0.51224 0.63867 0.0
C1573 C 0.02883 0.53286 0.68844 0.0
C1574 C 0.23586 0.36154 0.39591 0.0
C1575 C 0.26656 0.36502 0.40982 0.0
H1576 H 0.208 0.34746 0.35297 0.0
C1577 C 0.29318 0.36301 0.38897 0.0
H1578 H 0.21477 0.36331 0.41114 0.0
C1579 C 0.28919 0.35426 0.35544 0.0
C1580 C 0.25854 0.34694 0.3424 0.0
H1581 H 0.31713 0.36594 0.39885 0.0
H1582 H 0.31017 0.35075 0.34033 0.0
C1583 C 0.23191 0.35224 0.36257 0.0
C1584 C 0.30471 0.45406 0.5264 0.0
C1585 C 0.30423 0.42137 0.53832 0.0
H1586 H 0.33346 0.4977 0.51439 0.0
C1587 C 0.33212 0.40953 0.55185 0.0
H1588 H 0.28355 0.46381 0.51581 0.0
C1589 C 0.36043 0.42951 0.55205 0.0
C1590 C 0.36129 0.46114 0.53797 0.0
H1591 H 0.33224 0.38448 0.56137 0.0
H1592 H 0.38207 0.41922 0.56102 0.0
C1593 C 0.33314 0.47355 0.52576 0.0
C1594 C 0.84137 0.03475 0.5071 0.0
C1595 C 0.84515 0.06666 0.49386 0.0
H1596 H 0.86167 0.98667 0.51297 0.0
C1597 C 0.87072 0.07293 0.47247 0.0
H1598 H 0.82155 0.029 0.52314 0.0
C1599 C 0.89307 0.04823 0.46577 0.0
C1600 C 0.8903 0.01721 0.48075 0.0
H1601 H 0.87376 0.09709 0.4613 0.0
H1602 H 0.91372 0.05437 0.45097 0.0
C1603 C 0.86387 0.01029 0.50073 0.0
C1604 C 0.67472 0.10071 0.30222 0.0
C1605 C 0.66942 0.07869 0.27423 0.0
H1606 H 0.68612 0.15146 0.32099 0.0
C1607 C 0.66753 0.09244 0.24324 0.0
H1608 H 0.67601 0.0909 0.32643 0.0
C1609 C 0.6739 0.12709 0.23998 0.0
C1610 C 0.68164 0.14868 0.26772 0.0
H1611 H 0.66334 0.07615 0.22114 0.0
H1612 H 0.67419 0.13665 0.21562 0.0
C1613 C 0.6805 0.13544 0.29903 0.0
C1614 C 0.64396 0.89685 -0.00181 0.0
C1615 C 0.66805 0.91928 0.98743 0.0
H1616 H 0.59388 0.88669 0.0036 0.0
C1617 C 0.6596 0.94767 0.97067 0.0
H1618 H 0.64983 0.87459 0.01089 0.0
C1619 C 0.62761 0.95481 0.96682 0.0
C1620 C 0.60351 0.93335 0.9791 0.0
H1621 H 0.67768 0.96533 0.96197 0.0
H1622 H 0.62178 0.97779 0.95526 0.0
C1623 C 0.61194 0.90366 -0.00621 0.0
C1624 C 0.2899 0.45104 0.26691 0.0
C1625 C 0.32165 0.46027 0.25939 0.0
H1626 H 0.25005 0.41626 0.25642 0.0
C1627 C 0.33734 0.44149 0.23428 0.0
H1628 H 0.27696 0.46556 0.2856 0.0
C1629 C 0.3218 0.4139 0.21731 0.0
C1630 C 0.29011 0.4047 0.22472 0.0
H1631 H 0.36163 0.44831 0.22756 0.0
H1632 H 0.3348 0.39925 0.19874 0.0
C1633 C 0.27418 0.42355 0.24956 0.0
C1634 C 0.15487 0.61292 0.0482 0.0
C1635 C 0.1667 0.58624 0.02795 0.0
H1636 H 0.12094 0.62785 0.08492 0.0
C1637 C 0.1548 0.55283 0.03182 0.0
H1638 H 0.164 0.63883 0.04638 0.0
C1639 C 0.1305 0.54642 0.05433 0.0
C1640 C 0.11752 0.57336 0.07335 0.0
H1641 H 0.16377 0.53159 0.01694 0.0
H1642 H 0.12068 0.52068 0.05538 0.0
C1643 C 0.13057 0.60653 0.07068 0.0
C1644 C 0.73649 0.91584 0.27588 0.0
C1645 C 0.72205 0.9293 0.24862 0.0
H1646 H 0.74516 0.8712 0.30159 0.0
C1647 C 0.70309 0.90756 0.22742 0.0
H1648 H 0.7515 0.93192 0.2925 0.0
C1649 C 0.69898 0.87324 0.23299 0.0
C1650 C 0.71447 0.85935 0.25935 0.0
H1651 H 0.69181 0.9168 0.20601 0.0
H1652 H 0.68463 0.85735 0.21558 0.0
C1653 C 0.7328 0.88112 0.28117 0.0
C1654 C 0.85827 0.13672 0.81194 0.0
C1655 C 0.85819 0.11556 0.78284 0.0
H1656 H 0.8438 0.18377 0.83535 0.0
C1657 C 0.84093 0.12434 0.75553 0.0
H1658 H 0.87163 0.13043 0.83331 0.0
C1659 C 0.82451 0.15429 0.757 0.0
C1660 C 0.82579 0.17632 0.78555 0.0
H1661 H 0.84047 0.1083 0.73294 0.0
H1662 H 0.81198 0.16089 0.73521 0.0
C1663 C 0.84249 0.16717 0.81314 0.0
loop_
_geom_bond_atom_site_label_1
_geom_bond_atom_site_label_2
_geom_bond_distance
_geom_bond_site_symmetry_2
_ccdc_geom_bond_type
Mg0 O1 2.028 . S
Mg0 O7 1.986 . S
Mg0 O9 2.114 1_455 S
Mg0 O10 2.251 1_455 S
Mg0 O13 2.010 . S
O1 Mg0 2.028 . S
O1 C4 1.250 . S
O2 Mg3 2.028 . S
O2 C4 1.248 1_655 S
Mg3 O2 2.028 . S
Mg3 O8 2.032 . S
Mg3 O10 2.079 . S
C4 O1 1.250 . S
C4 O2 1.248 1_455 S
C5 O6 1.264 . S
C5 O13 1.249 . S
O6 C5 1.264 . S
O7 Mg0 1.986 . S
O7 C11 1.246 . S
O8 Mg3 2.032 . S
O8 C11 1.259 1_655 S
O9 Mg0 2.114 1_655 S
O9 C12 1.252 . S
O10 Mg0 2.251 1_655 S
O10 Mg3 2.079 . S
O10 C12 1.273 . S
C11 O7 1.246 . S
C11 O8 1.259 1_455 S
C12 O9 1.252 . S
C12 O10 1.273 . S
O13 Mg0 2.010 . S
O13 C5 1.249 . S
Mg14 O15 2.028 . S
Mg14 O21 1.986 . S
Mg14 O23 2.114 1_455 S
Mg14 O24 2.251 1_455 S
Mg14 O27 2.010 . S
O15 Mg14 2.028 . S
O15 C18 1.250 . S
O16 Mg17 2.028 . S
O16 C18 1.248 1_655 S
Mg17 O16 2.028 . S
Mg17 O22 2.032 . S
Mg17 O24 2.079 . S
C18 O15 1.250 . S
C18 O16 1.248 1_455 S
C19 O20 1.264 . S
C19 O27 1.249 . S
O20 C19 1.264 . S
O21 Mg14 1.986 . S
O21 C25 1.246 . S
O22 Mg17 2.032 . S
O22 C25 1.259 1_655 S
O23 Mg14 2.114 1_655 S
O23 C26 1.252 . S
O24 Mg14 2.251 1_655 S
O24 Mg17 2.079 . S
O24 C26 1.273 . S
C25 O21 1.246 . S
C25 O22 1.259 1_455 S
C26 O23 1.252 . S
C26 O24 1.273 . S
O27 Mg14 2.010 . S
O27 C19 1.249 . S
Mg28 O29 2.028 . S
Mg28 O35 1.986 . S
Mg28 O37 2.114 . S
Mg28 O38 2.251 . S
Mg28 O41 2.010 . S
O29 Mg28 2.028 . S
O29 C32 1.250 . S
O30 Mg31 2.028 . S
O30 C32 1.248 . S
Mg31 O30 2.028 . S
Mg31 O36 2.032 . S
Mg31 O38 2.079 . S
C32 O29 1.250 . S
C32 O30 1.248 . S
C33 O34 1.264 . S
C33 O41 1.249 . S
O34 C33 1.264 . S
O35 Mg28 1.986 . S
O35 C39 1.246 . S
O36 Mg31 2.032 . S
O36 C39 1.259 . S
O37 Mg28 2.114 . S
O37 C40 1.252 . S
O38 Mg28 2.251 . S
O38 Mg31 2.079 . S
O38 C40 1.273 . S
C39 O35 1.246 . S
C39 O36 1.259 . S
C40 O37 1.252 . S
C40 O38 1.273 . S
O41 Mg28 2.010 . S
O41 C33 1.249 . S
Mg42 O43 2.028 . S
Mg42 O49 1.986 . S
Mg42 O51 2.114 . S
Mg42 O52 2.251 . S
Mg42 O55 2.010 . S
O43 Mg42 2.028 . S
O43 C46 1.250 . S
O44 Mg45 2.028 . S
O44 C46 1.248 . S
Mg45 O44 2.028 . S
Mg45 O50 2.032 . S
Mg45 O52 2.079 . S
C46 O43 1.250 . S
C46 O44 1.248 . S
C47 O48 1.264 . S
C47 O55 1.249 . S
O48 C47 1.264 . S
O49 Mg42 1.986 . S
O49 C53 1.246 . S
O50 Mg45 2.032 . S
O50 C53 1.259 . S
O51 Mg42 2.114 . S
O51 C54 1.252 . S
O52 Mg42 2.251 . S
O52 Mg45 2.079 . S
O52 C54 1.273 . S
C53 O49 1.246 . S
C53 O50 1.259 . S
C54 O51 1.252 . S
C54 O52 1.273 . S
O55 Mg42 2.010 . S
O55 C47 1.249 . S
Mg56 O57 2.028 . S
Mg56 O63 1.986 1_545 S
Mg56 O65 2.114 . S
Mg56 O66 2.251 . S
Mg56 O69 2.010 . S
O57 Mg56 2.028 . S
O57 C60 1.250 . S
O58 Mg59 2.028 . S
O58 C60 1.248 . S
Mg59 O58 2.028 . S
Mg59 O64 2.032 1_545 S
Mg59 O66 2.079 . S
C60 O57 1.250 . S
C60 O58 1.248 . S
C61 O62 1.264 1_545 S
C61 O69 1.249 . S
O62 C61 1.264 1_565 S
O63 Mg56 1.986 1_565 S
O63 C67 1.246 . S
O64 Mg59 2.032 1_565 S
O64 C67 1.259 . S
O65 Mg56 2.114 . S
O65 C68 1.252 . S
O66 Mg56 2.251 . S
O66 Mg59 2.079 . S
O66 C68 1.273 . S
C67 O63 1.246 . S
C67 O64 1.259 . S
C68 O65 1.252 . S
C68 O66 1.273 . S
O69 Mg56 2.010 . S
O69 C61 1.249 . S
Mg70 O71 2.028 . S
Mg70 O77 1.986 . S
Mg70 O79 2.114 . S
Mg70 O80 2.251 . S
Mg70 O83 2.010 . S
O71 Mg70 2.028 . S
O71 C74 1.250 . S
O72 Mg73 2.028 . S
O72 C74 1.248 . S
Mg73 O72 2.028 . S
Mg73 O78 2.032 . S
Mg73 O80 2.079 . S
C74 O71 1.250 . S
C74 O72 1.248 . S
C75 O76 1.264 . S
C75 O83 1.249 . S
O76 C75 1.264 . S
O77 Mg70 1.986 . S
O77 C81 1.246 . S
O78 Mg73 2.032 . S
O78 C81 1.259 . S
O79 Mg70 2.114 . S
O79 C82 1.252 . S
O80 Mg70 2.251 . S
O80 Mg73 2.079 . S
O80 C82 1.273 . S
C81 O77 1.246 . S
C81 O78 1.259 . S
C82 O79 1.252 . S
C82 O80 1.273 . S
O83 Mg70 2.010 . S
O83 C75 1.249 . S
Mg84 O85 2.028 1_545 S
Mg84 O91 1.986 . S
Mg84 O93 2.114 1_545 S
Mg84 O94 2.251 . S
Mg84 O97 2.010 . S
O85 Mg84 2.028 1_565 S
O85 C88 1.250 . S
O86 Mg87 2.028 1_565 S
O86 C88 1.248 . S
Mg87 O86 2.028 1_545 S
Mg87 O92 2.032 . S
Mg87 O94 2.079 . S
C88 O85 1.250 . S
C88 O86 1.248 . S
C89 O90 1.264 . S
C89 O97 1.249 . S
O90 C89 1.264 . S
O91 Mg84 1.986 . S
O91 C95 1.246 . S
O92 Mg87 2.032 . S
O92 C95 1.259 . S
O93 Mg84 2.114 1_565 S
O93 C96 1.252 . S
O94 Mg84 2.251 . S
O94 Mg87 2.079 . S
O94 C96 1.273 1_545 S
C95 O91 1.246 . S
C95 O92 1.259 . S
C96 O93 1.252 . S
C96 O94 1.273 1_565 S
O97 Mg84 2.010 . S
O97 C89 1.249 . S
Mg98 O99 2.022 1_556 S
Mg98 O105 1.991 . S
Mg98 O107 2.110 1_556 S
Mg98 O108 2.251 1_556 S
Mg98 O111 2.010 . S
O99 Mg98 2.022 1_554 S
O99 C102 1.250 . S
O100 Mg101 2.028 . S
O100 C102 1.248 . S
Mg101 O100 2.028 . S
Mg101 O106 2.032 1_554 S
Mg101 O108 2.079 . S
C102 O99 1.250 . S
C102 O100 1.248 . S
C103 O104 1.264 1_554 S
C103 O111 1.249 1_554 S
O104 C103 1.264 1_556 S
O105 Mg98 1.991 . S
O105 C109 1.246 . S
O106 Mg101 2.032 1_556 S
O106 C109 1.259 . S
O107 Mg98 2.110 1_554 S
O107 C110 1.252 . S
O108 Mg98 2.251 1_554 S
O108 Mg101 2.079 . S
O108 C110 1.273 . S
C109 O105 1.246 . S
C109 O106 1.259 . S
C110 O107 1.252 . S
C110 O108 1.273 . S
O111 Mg98 2.010 . S
O111 C103 1.249 1_556 S
Mg112 O113 2.028 1_554 S
Mg112 O119 1.986 . S
Mg112 O121 2.100 1_554 S
Mg112 O122 2.251 . S
Mg112 O125 2.010 . S
O113 Mg112 2.028 1_556 S
O113 C116 1.250 . S
O114 Mg115 2.028 1_556 S
O114 C116 1.248 . S
Mg115 O114 2.028 1_554 S
Mg115 O120 2.032 . S
Mg115 O122 2.079 . S
C116 O113 1.250 . S
C116 O114 1.248 . S
C117 O118 1.264 . S
C117 O125 1.249 . S
O118 C117 1.264 . S
O119 Mg112 1.986 . S
O119 C123 1.246 . S
O120 Mg115 2.032 . S
O120 C123 1.259 . S
O121 Mg112 2.100 1_556 S
O121 C124 1.244 1_556 S
O122 Mg112 2.251 . S
O122 Mg115 2.079 . S
O122 C124 1.273 . S
C123 O119 1.246 . S
C123 O120 1.259 . S
C124 O121 1.244 1_554 S
C124 O122 1.273 . S
O125 Mg112 2.010 . S
O125 C117 1.249 . S
Mg126 O127 2.028 . S
Mg126 O133 1.986 . S
Mg126 O135 2.114 . S
Mg126 O136 2.251 . S
Mg126 O139 2.010 . S
O127 Mg126 2.028 . S
O127 C130 1.250 . S
O128 Mg129 2.028 . S
O128 C130 1.248 . S
Mg129 O128 2.028 . S
Mg129 O134 2.032 . S
Mg129 O136 2.079 . S
C130 O127 1.250 . S
C130 O128 1.248 . S
C131 O132 1.264 . S
C131 O139 1.249 . S
O132 C131 1.264 . S
O133 Mg126 1.986 . S
O133 C137 1.246 . S
O134 Mg129 2.032 . S
O134 C137 1.259 . S
O135 Mg126 2.114 . S
O135 C138 1.252 . S
O136 Mg126 2.251 . S
O136 Mg129 2.079 . S
O136 C138 1.273 . S
C137 O133 1.246 . S
C137 O134 1.259 . S
C138 O135 1.252 . S
C138 O136 1.273 . S
O139 Mg126 2.010 . S
O139 C131 1.249 . S
Mg140 O141 2.028 . S
Mg140 O147 1.986 . S
Mg140 O149 2.114 . S
Mg140 O150 2.251 . S
Mg140 O153 2.010 . S
O141 Mg140 2.028 . S
O141 C144 1.250 . S
O142 Mg143 2.028 . S
O142 C144 1.248 . S
Mg143 O142 2.028 . S
Mg143 O148 2.032 . S
Mg143 O150 2.079 . S
C144 O141 1.250 . S
C144 O142 1.248 . S
C145 O146 1.264 . S
C145 O153 1.249 . S
O146 C145 1.264 . S
O147 Mg140 1.986 . S
O147 C151 1.246 . S
O148 Mg143 2.032 . S
O148 C151 1.259 . S
O149 Mg140 2.114 . S
O149 C152 1.252 . S
O150 Mg140 2.251 . S
O150 Mg143 2.079 . S
O150 C152 1.273 . S
C151 O147 1.246 . S
C151 O148 1.259 . S
C152 O149 1.252 . S
C152 O150 1.273 . S
O153 Mg140 2.010 . S
O153 C145 1.249 . S
Mg154 O155 2.028 . S
Mg154 O161 1.986 . S
Mg154 O163 2.114 . S
Mg154 O164 2.251 . S
Mg154 O167 2.010 . S
O155 Mg154 2.028 . S
O155 C158 1.250 . S
O156 Mg157 2.028 . S
O156 C158 1.248 . S
Mg157 O156 2.028 . S
Mg157 O162 2.032 . S
Mg157 O164 2.079 . S
C158 O155 1.250 . S
C158 O156 1.248 . S
C159 O160 1.264 . S
C159 O167 1.249 . S
O160 C159 1.264 . S
O161 Mg154 1.986 . S
O161 C165 1.246 . S
O162 Mg157 2.032 . S
O162 C165 1.259 . S
O163 Mg154 2.114 . S
O163 C166 1.252 . S
O164 Mg154 2.251 . S
O164 Mg157 2.079 . S
O164 C166 1.273 . S
C165 O161 1.246 . S
C165 O162 1.259 . S
C166 O163 1.252 . S
C166 O164 1.273 . S
O167 Mg154 2.010 . S
O167 C159 1.249 . S
Mg168 O169 2.028 . S
Mg168 O175 1.986 . S
Mg168 O177 2.114 1_455 S
Mg168 O178 2.251 1_455 S
Mg168 O181 2.010 . S
O169 Mg168 2.028 . S
O169 C172 1.250 . S
O170 Mg171 2.028 . S
O170 C172 1.248 1_655 S
Mg171 O170 2.028 . S
Mg171 O176 2.032 . S
Mg171 O178 2.079 . S
C172 O169 1.250 . S
C172 O170 1.248 1_455 S
C173 O174 1.264 . S
C173 O181 1.249 . S
O174 C173 1.264 . S
O175 Mg168 1.986 . S
O175 C179 1.246 . S
O176 Mg171 2.032 . S
O176 C179 1.259 1_655 S
O177 Mg168 2.114 1_655 S
O177 C180 1.252 . S
O178 Mg168 2.251 1_655 S
O178 Mg171 2.079 . S
O178 C180 1.273 . S
C179 O175 1.246 . S
C179 O176 1.259 1_455 S
C180 O177 1.252 . S
C180 O178 1.273 . S
O181 Mg168 2.010 . S
O181 C173 1.249 . S
Mg182 O183 2.028 . S
Mg182 O189 1.986 . S
Mg182 O191 2.114 1_455 S
Mg182 O192 2.251 1_455 S
Mg182 O195 2.010 . S
O183 Mg182 2.028 . S
O183 C186 1.250 . S
O184 Mg185 2.028 . S
O184 C186 1.248 1_655 S
Mg185 O184 2.028 . S
Mg185 O190 2.032 . S
Mg185 O192 2.079 . S
C186 O183 1.250 . S
C186 O184 1.248 1_455 S
C187 O188 1.264 . S
C187 O195 1.249 . S
O188 C187 1.264 . S
O189 Mg182 1.986 . S
O189 C193 1.246 . S
O190 Mg185 2.032 . S
O190 C193 1.259 1_655 S
O191 Mg182 2.114 1_655 S
O191 C194 1.252 . S
O192 Mg182 2.251 1_655 S
O192 Mg185 2.079 . S
O192 C194 1.273 . S
C193 O189 1.246 . S
C193 O190 1.259 1_455 S
C194 O191 1.252 . S
C194 O192 1.273 . S
O195 Mg182 2.010 . S
O195 C187 1.249 . S
Mg196 O197 2.028 . S
Mg196 O203 1.986 . S
Mg196 O205 2.114 . S
Mg196 O206 2.251 . S
Mg196 O209 2.010 . S
O197 Mg196 2.028 . S
O197 C200 1.250 . S
O198 Mg199 2.028 . S
O198 C200 1.248 . S
Mg199 O198 2.028 . S
Mg199 O204 2.032 . S
Mg199 O206 2.079 . S
C200 O197 1.250 . S
C200 O198 1.248 . S
C201 O202 1.264 . S
C201 O209 1.249 . S
O202 C201 1.264 . S
O203 Mg196 1.986 . S
O203 C207 1.246 . S
O204 Mg199 2.032 . S
O204 C207 1.259 . S
O205 Mg196 2.114 . S
O205 C208 1.252 . S
O206 Mg196 2.251 . S
O206 Mg199 2.079 . S
O206 C208 1.273 . S
C207 O203 1.246 . S
C207 O204 1.259 . S
C208 O205 1.252 . S
C208 O206 1.273 . S
O209 Mg196 2.010 . S
O209 C201 1.249 . S
Mg210 O211 2.028 . S
Mg210 O217 1.986 . S
Mg210 O219 2.114 . S
Mg210 O220 2.251 . S
Mg210 O223 2.010 . S
O211 Mg210 2.028 . S
O211 C214 1.250 . S
O212 Mg213 2.028 . S
O212 C214 1.248 . S
Mg213 O212 2.028 . S
Mg213 O218 2.032 . S
Mg213 O220 2.079 . S
C214 O211 1.250 . S
C214 O212 1.248 . S
C215 O216 1.264 . S
C215 O223 1.249 . S
O216 C215 1.264 . S
O217 Mg210 1.986 . S
O217 C221 1.246 . S
O218 Mg213 2.032 . S
O218 C221 1.259 . S
O219 Mg210 2.114 . S
O219 C222 1.252 . S
O220 Mg210 2.251 . S
O220 Mg213 2.079 . S
O220 C222 1.273 . S
C221 O217 1.246 . S
C221 O218 1.259 . S
C222 O219 1.252 . S
C222 O220 1.273 . S
O223 Mg210 2.010 . S
O223 C215 1.249 . S
Mg224 O225 2.028 1_545 S
Mg224 O231 1.986 . S
Mg224 O233 2.114 . S
Mg224 O234 2.251 . S
Mg224 O237 2.010 . S
O225 Mg224 2.028 1_565 S
O225 C228 1.250 . S
O226 Mg227 2.028 1_565 S
O226 C228 1.248 . S
Mg227 O226 2.028 1_545 S
Mg227 O232 2.032 . S
Mg227 O234 2.079 . S
C228 O225 1.250 . S
C228 O226 1.248 . S
C229 O230 1.264 . S
C229 O237 1.249 . S
O230 C229 1.264 . S
O231 Mg224 1.986 . S
O231 C235 1.246 . S
O232 Mg227 2.032 . S
O232 C235 1.259 . S
O233 Mg224 2.114 . S
O233 C236 1.252 . S
O234 Mg224 2.251 . S
O234 Mg227 2.079 . S
O234 C236 1.273 . S
C235 O231 1.246 . S
C235 O232 1.259 . S
C236 O233 1.252 . S
C236 O234 1.273 . S
O237 Mg224 2.010 . S
O237 C229 1.249 . S
Mg238 O239 2.028 . S
Mg238 O245 1.986 . S
Mg238 O247 2.114 . S
Mg238 O248 2.251 . S
Mg238 O251 2.010 . S
O239 Mg238 2.028 . S
O239 C242 1.250 . S
O240 Mg241 2.028 . S
O240 C242 1.248 . S
Mg241 O240 2.028 . S
Mg241 O246 2.032 . S
Mg241 O248 2.079 . S
C242 O239 1.250 . S
C242 O240 1.248 . S
C243 O244 1.264 . S
C243 O251 1.249 . S
O244 C243 1.264 . S
O245 Mg238 1.986 . S
O245 C249 1.246 . S
O246 Mg241 2.032 . S
O246 C249 1.259 . S
O247 Mg238 2.114 . S
O247 C250 1.252 . S
O248 Mg238 2.251 . S
O248 Mg241 2.079 . S
O248 C250 1.273 . S
C249 O245 1.246 . S
C249 O246 1.259 . S
C250 O247 1.252 . S
C250 O248 1.273 . S
O251 Mg238 2.010 . S
O251 C243 1.249 . S
Mg252 O253 2.028 1_565 S
Mg252 O259 1.986 . S
Mg252 O261 2.114 1_565 S
Mg252 O262 2.251 . S
Mg252 O265 2.010 . S
O253 Mg252 2.028 1_545 S
O253 C256 1.250 . S
O254 Mg255 2.028 . S
O254 C256 1.248 . S
Mg255 O254 2.028 . S
Mg255 O260 2.032 1_545 S
Mg255 O262 2.079 1_545 S
C256 O253 1.250 . S
C256 O254 1.248 . S
C257 O258 1.264 . S
C257 O265 1.249 . S
O258 C257 1.264 . S
O259 Mg252 1.986 . S
O259 C263 1.246 . S
O260 Mg255 2.032 1_565 S
O260 C263 1.259 . S
O261 Mg252 2.114 1_545 S
O261 C264 1.252 . S
O262 Mg252 2.251 . S
O262 Mg255 2.079 1_565 S
O262 C264 1.273 1_565 S
C263 O259 1.246 . S
C263 O260 1.259 . S
C264 O261 1.252 . S
C264 O262 1.273 1_545 S
O265 Mg252 2.010 . S
O265 C257 1.249 . S
Mg266 O267 2.028 1_554 S
Mg266 O273 1.986 . S
Mg266 O275 2.114 1_554 S
Mg266 O276 2.251 . S
Mg266 O279 2.010 . S
O267 Mg266 2.028 1_556 S
O267 C270 1.250 . S
O268 Mg269 2.028 1_556 S
O268 C270 1.248 . S
Mg269 O268 2.028 1_554 S
Mg269 O274 2.032 . S
Mg269 O276 2.079 . S
C270 O267 1.250 . S
C270 O268 1.248 . S
C271 O272 1.264 . S
C271 O279 1.249 . S
O272 C271 1.264 . S
O273 Mg266 1.986 . S
O273 C277 1.246 . S
O274 Mg269 2.032 . S
O274 C277 1.259 . S
O275 Mg266 2.114 1_556 S
O275 C278 1.252 1_556 S
O276 Mg266 2.251 . S
O276 Mg269 2.079 . S
O276 C278 1.273 . S
C277 O273 1.246 . S
C277 O274 1.259 . S
C278 O275 1.252 1_554 S
C278 O276 1.273 . S
O279 Mg266 2.010 . S
O279 C271 1.249 . S
Mg280 O281 2.028 1_556 S
Mg280 O287 1.986 . S
Mg280 O289 2.114 1_556 S
Mg280 O290 2.251 . S
Mg280 O293 2.010 . S
O281 Mg280 2.028 1_554 S
O281 C284 1.250 . S
O282 Mg283 2.047 . S
O282 C284 1.248 . S
Mg283 O282 2.047 . S
Mg283 O288 2.015 1_554 S
Mg283 O290 2.077 1_554 S
C284 O281 1.250 . S
C284 O282 1.248 . S
C285 O286 1.264 . S
C285 O293 1.249 . S
O286 C285 1.264 . S
O287 Mg280 1.986 . S
O287 C291 1.246 . S
O288 Mg283 2.015 1_556 S
O288 C291 1.259 . S
O289 Mg280 2.114 1_554 S
O289 C292 1.252 . S
O290 Mg280 2.251 . S
O290 Mg283 2.077 1_556 S
O290 C292 1.273 1_556 S
C291 O287 1.246 . S
C291 O288 1.259 . S
C292 O289 1.252 . S
C292 O290 1.273 1_554 S
O293 Mg280 2.010 . S
O293 C285 1.249 . S
Mg294 O295 2.028 . S
Mg294 O301 1.986 . S
Mg294 O303 2.114 . S
Mg294 O304 2.251 . S
Mg294 O307 2.010 . S
O295 Mg294 2.028 . S
O295 C298 1.250 . S
O296 Mg297 2.028 . S
O296 C298 1.248 . S
Mg297 O296 2.028 . S
Mg297 O302 2.032 . S
Mg297 O304 2.079 . S
C298 O295 1.250 . S
C298 O296 1.248 . S
C299 O300 1.264 . S
C299 O307 1.249 . S
O300 C299 1.264 . S
O301 Mg294 1.986 . S
O301 C305 1.246 . S
O302 Mg297 2.032 . S
O302 C305 1.259 . S
O303 Mg294 2.114 . S
O303 C306 1.252 . S
O304 Mg294 2.251 . S
O304 Mg297 2.079 . S
O304 C306 1.273 . S
C305 O301 1.246 . S
C305 O302 1.259 . S
C306 O303 1.252 . S
C306 O304 1.273 . S
O307 Mg294 2.010 . S
O307 C299 1.249 . S
Mg308 O309 2.028 . S
Mg308 O315 1.986 . S
Mg308 O317 2.114 . S
Mg308 O318 2.251 . S
Mg308 O321 2.010 . S
O309 Mg308 2.028 . S
O309 C312 1.250 . S
O310 Mg311 2.028 . S
O310 C312 1.248 . S
Mg311 O310 2.028 . S
Mg311 O316 2.032 . S
Mg311 O318 2.079 . S
C312 O309 1.250 . S
C312 O310 1.248 . S
C313 O314 1.264 . S
C313 O321 1.249 . S
O314 C313 1.264 . S
O315 Mg308 1.986 . S
O315 C319 1.246 . S
O316 Mg311 2.032 . S
O316 C319 1.259 . S
O317 Mg308 2.114 . S
O317 C320 1.252 . S
O318 Mg308 2.251 . S
O318 Mg311 2.079 . S
O318 C320 1.273 . S
C319 O315 1.246 . S
C319 O316 1.259 . S
C320 O317 1.252 . S
C320 O318 1.273 . S
O321 Mg308 2.010 . S
O321 C313 1.249 . S
Mg322 O323 2.028 . S
Mg322 O329 1.986 . S
Mg322 O331 2.114 . S
Mg322 O332 2.251 . S
Mg322 O335 2.010 . S
O323 Mg322 2.028 . S
O323 C326 1.250 . S
O324 Mg325 2.028 . S
O324 C326 1.248 . S
Mg325 O324 2.028 . S
Mg325 O330 2.032 . S
Mg325 O332 2.079 . S
C326 O323 1.250 . S
C326 O324 1.248 . S
C327 O328 1.264 . S
C327 O335 1.249 . S
O328 C327 1.264 . S
O329 Mg322 1.986 . S
O329 C333 1.246 . S
O330 Mg325 2.032 . S
O330 C333 1.259 . S
O331 Mg322 2.114 . S
O331 C334 1.252 . S
O332 Mg322 2.251 . S
O332 Mg325 2.079 . S
O332 C334 1.273 . S
C333 O329 1.246 . S
C333 O330 1.259 . S
C334 O331 1.252 . S
C334 O332 1.273 . S
O335 Mg322 2.010 . S
O335 C327 1.249 . S
O336 Zn337 1.953 . S
O336 C352 1.225 1_455 S
Zn337 O336 1.953 . S
Zn337 O338 1.949 . S
Zn337 O344 1.919 1_554 S
Zn337 O349 1.924 1_454 S
O338 Zn337 1.949 . S
O338 Zn339 1.923 1_545 S
O338 Zn340 1.950 1_455 S
O338 Zn341 1.945 1_444 S
Zn339 O338 1.923 1_565 S
Zn339 O342 1.933 . S
Zn339 O345 1.941 1_565 S
Zn339 O346 1.965 . S
Zn340 O338 1.950 1_655 S
Zn340 O347 1.938 . S
Zn340 O348 1.906 1_545 S
Zn340 O358 1.953 . S
Zn341 O338 1.945 1_666 S
Zn341 O343 1.932 . S
Zn341 O350 1.977 1_556 S
Zn341 O351 1.910 1_565 S
O342 Zn339 1.933 . S
O342 C353 1.226 1_554 S
O343 Zn341 1.932 . S
O343 C353 1.307 1_655 S
O344 Zn337 1.919 1_556 S
O344 C355 1.253 1_556 S
O345 Zn339 1.941 1_545 S
O345 C355 1.283 . S
O346 Zn339 1.965 . S
O346 C354 1.288 1_565 S
O347 Zn340 1.938 . S
O347 C354 1.258 1_655 S
O348 Zn340 1.906 1_565 S
O348 C356 1.304 . S
O349 Zn337 1.924 1_656 S
O349 C357 1.311 . S
O350 Zn341 1.977 1_554 S
O350 C356 1.272 . S
O351 Zn341 1.910 1_545 S
O351 C357 1.231 . S
C352 O336 1.225 1_655 S
C352 O358 1.298 . S
C353 O342 1.226 1_556 S
C353 O343 1.307 1_455 S
C354 O346 1.288 1_545 S
C354 O347 1.258 1_455 S
C355 O344 1.253 1_554 S
C355 O345 1.283 . S
C356 O348 1.304 . S
C356 O350 1.272 . S
C357 O349 1.311 . S
C357 O351 1.231 . S
O358 Zn340 1.953 . S
O358 C352 1.298 . S
O359 Zn360 1.953 . S
O359 C375 1.225 . S
Zn360 O359 1.953 . S
Zn360 O361 1.949 . S
Zn360 O367 1.919 . S
Zn360 O372 1.924 . S
O361 Zn360 1.949 . S
O361 Zn362 1.923 . S
O361 Zn363 1.950 . S
O361 Zn364 1.945 . S
Zn362 O361 1.923 . S
Zn362 O365 1.933 . S
Zn362 O368 1.941 . S
Zn362 O369 1.965 . S
Zn363 O361 1.950 . S
Zn363 O370 1.938 . S
Zn363 O371 1.906 . S
Zn363 O381 1.953 . S
Zn364 O361 1.945 . S
Zn364 O366 1.932 . S
Zn364 O373 1.977 . S
Zn364 O374 1.910 . S
O365 Zn362 1.933 . S
O365 C376 1.226 . S
O366 Zn364 1.932 . S
O366 C376 1.307 . S
O367 Zn360 1.919 . S
O367 C378 1.253 . S
O368 Zn362 1.941 . S
O368 C378 1.283 . S
O369 Zn362 1.965 . S
O369 C377 1.303 . S
O370 Zn363 1.938 . S
O370 C377 1.247 . S
O371 Zn363 1.906 . S
O371 C379 1.304 . S
O372 Zn360 1.924 . S
O372 C380 1.311 . S
O373 Zn364 1.977 . S
O373 C379 1.272 . S
O374 Zn364 1.910 . S
O374 C380 1.231 . S
C375 O359 1.225 . S
C375 O381 1.298 . S
C376 O365 1.226 . S
C376 O366 1.307 . S
C377 O369 1.303 . S
C377 O370 1.247 . S
C378 O367 1.253 . S
C378 O368 1.283 . S
C379 O371 1.304 . S
C379 O373 1.272 . S
C380 O372 1.311 . S
C380 O374 1.231 . S
O381 Zn363 1.953 . S
O381 C375 1.298 . S
O382 Zn383 1.953 . S
O382 C398 1.225 . S
Zn383 O382 1.953 . S
Zn383 O384 1.949 1_565 S
Zn383 O390 1.919 . S
Zn383 O395 1.924 . S
O384 Zn383 1.949 1_545 S
O384 Zn385 1.923 . S
O384 Zn386 1.950 . S
O384 Zn387 1.945 . S
Zn385 O384 1.923 . S
Zn385 O388 1.933 . S
Zn385 O391 1.941 . S
Zn385 O392 1.965 . S
Zn386 O384 1.950 . S
Zn386 O393 1.938 . S
Zn386 O394 1.906 . S
Zn386 O404 1.953 1_545 S
Zn387 O384 1.945 . S
Zn387 O389 1.932 . S
Zn387 O396 1.977 . S
Zn387 O397 1.910 . S
O388 Zn385 1.933 . S
O388 C399 1.226 . S
O389 Zn387 1.932 . S
O389 C399 1.307 . S
O390 Zn383 1.919 . S
O390 C401 1.253 . S
O391 Zn385 1.941 . S
O391 C401 1.283 1_545 S
O392 Zn385 1.965 . S
O392 C400 1.303 . S
O393 Zn386 1.938 . S
O393 C400 1.247 . S
O394 Zn386 1.906 . S
O394 C402 1.304 . S
O395 Zn383 1.924 . S
O395 C403 1.311 . S
O396 Zn387 1.977 . S
O396 C402 1.272 . S
O397 Zn387 1.910 . S
O397 C403 1.231 1_545 S
C398 O382 1.225 . S
C398 O404 1.298 . S
C399 O388 1.226 . S
C399 O389 1.307 . S
C400 O392 1.303 . S
C400 O393 1.247 . S
C401 O390 1.253 . S
C401 O391 1.283 1_565 S
C402 O394 1.304 . S
C402 O396 1.272 . S
C403 O395 1.311 . S
C403 O397 1.231 1_565 S
O404 Zn386 1.953 1_565 S
O404 C398 1.298 . S
O405 Zn406 1.953 . S
O405 C421 1.225 . S
Zn406 O405 1.953 . S
Zn406 O407 1.949 . S
Zn406 O413 1.919 . S
Zn406 O418 1.924 . S
O407 Zn406 1.949 . S
O407 Zn408 1.923 . S
O407 Zn409 1.950 . S
O407 Zn410 1.945 . S
Zn408 O407 1.923 . S
Zn408 O411 1.933 . S
Zn408 O414 1.941 . S
Zn408 O415 1.965 . S
Zn409 O407 1.950 . S
Zn409 O416 1.938 . S
Zn409 O417 1.906 . S
Zn409 O427 1.953 . S
Zn410 O407 1.945 . S
Zn410 O412 1.932 . S
Zn410 O419 1.977 . S
Zn410 O420 1.910 . S
O411 Zn408 1.933 . S
O411 C422 1.226 . S
O412 Zn410 1.932 . S
O412 C422 1.307 . S
O413 Zn406 1.919 . S
O413 C424 1.253 . S
O414 Zn408 1.941 . S
O414 C424 1.283 . S
O415 Zn408 1.965 . S
O415 C423 1.303 . S
O416 Zn409 1.938 . S
O416 C423 1.247 . S
O417 Zn409 1.906 . S
O417 C425 1.304 . S
O418 Zn406 1.924 . S
O418 C426 1.311 . S
O419 Zn410 1.977 . S
O419 C425 1.272 . S
O420 Zn410 1.910 . S
O420 C426 1.231 . S
C421 O405 1.225 . S
C421 O427 1.298 . S
C422 O411 1.226 . S
C422 O412 1.307 . S
C423 O415 1.303 . S
C423 O416 1.247 . S
C424 O413 1.253 . S
C424 O414 1.283 . S
C425 O417 1.304 . S
C425 O419 1.272 . S
C426 O418 1.311 . S
C426 O420 1.231 . S
O427 Zn409 1.953 . S
O427 C421 1.298 . S
O428 Zn429 1.953 1_445 S
O428 C444 1.225 . S
Zn429 O428 1.953 1_665 S
Zn429 O430 1.949 1_665 S
Zn429 O436 1.919 . S
Zn429 O441 1.924 1_565 S
O430 Zn429 1.949 1_445 S
O430 Zn431 1.923 1_545 S
O430 Zn432 1.950 . S
O430 Zn433 1.945 1_455 S
Zn431 O430 1.923 1_565 S
Zn431 O434 1.933 . S
Zn431 O437 1.941 . S
Zn431 O438 1.965 . S
Zn432 O430 1.950 . S
Zn432 O439 1.938 . S
Zn432 O440 1.906 . S
Zn432 O450 1.953 . S
Zn433 O430 1.945 1_655 S
Zn433 O435 1.932 . S
Zn433 O442 1.977 1_655 S
Zn433 O443 1.910 . S
O434 Zn431 1.933 . S
O434 C445 1.226 1_455 S
O435 Zn433 1.932 . S
O435 C445 1.307 1_545 S
O436 Zn429 1.919 . S
O436 C447 1.253 . S
O437 Zn431 1.941 . S
O437 C447 1.283 1_455 S
O438 Zn431 1.965 . S
O438 C446 1.303 . S
O439 Zn432 1.938 . S
O439 C446 1.247 1_545 S
O440 Zn432 1.906 . S
O440 C448 1.304 . S
O441 Zn429 1.924 1_545 S
O441 C449 1.311 . S
O442 Zn433 1.977 1_455 S
O442 C448 1.272 . S
O443 Zn433 1.910 . S
O443 C449 1.231 . S
C444 O428 1.225 . S
C444 O450 1.298 . S
C445 O434 1.226 1_655 S
C445 O435 1.307 1_565 S
C446 O438 1.303 . S
C446 O439 1.247 1_565 S
C447 O436 1.253 . S
C447 O437 1.283 1_655 S
C448 O440 1.304 . S
C448 O442 1.272 . S
C449 O441 1.311 . S
C449 O443 1.231 . S
O450 Zn432 1.953 . S
O450 C444 1.298 . S
O451 Zn452 1.953 . S
O451 C467 1.225 . S
Zn452 O451 1.953 . S
Zn452 O453 1.949 . S
Zn452 O459 1.919 . S
Zn452 O464 1.924 . S
O453 Zn452 1.949 . S
O453 Zn454 1.923 . S
O453 Zn455 1.950 . S
O453 Zn456 1.945 . S
Zn454 O453 1.923 . S
Zn454 O457 1.933 . S
Zn454 O460 1.941 . S
Zn454 O461 1.965 . S
Zn455 O453 1.950 . S
Zn455 O462 1.938 . S
Zn455 O463 1.906 . S
Zn455 O473 1.953 . S
Zn456 O453 1.945 . S
Zn456 O458 1.932 . S
Zn456 O465 1.977 . S
Zn456 O466 1.910 . S
O457 Zn454 1.933 . S
O457 C468 1.226 . S
O458 Zn456 1.932 . S
O458 C468 1.307 . S
O459 Zn452 1.919 . S
O459 C470 1.253 . S
O460 Zn454 1.941 . S
O460 C470 1.283 . S
O461 Zn454 1.965 . S
O461 C469 1.303 . S
O462 Zn455 1.938 . S
O462 C469 1.247 . S
O463 Zn455 1.906 . S
O463 C471 1.304 . S
O464 Zn452 1.924 . S
O464 C472 1.311 . S
O465 Zn456 1.977 . S
O465 C471 1.272 . S
O466 Zn456 1.910 . S
O466 C472 1.231 . S
C467 O451 1.225 . S
C467 O473 1.298 . S
C468 O457 1.226 . S
C468 O458 1.307 . S
C469 O461 1.303 . S
C469 O462 1.247 . S
C470 O459 1.253 . S
C470 O460 1.283 . S
C471 O463 1.304 . S
C471 O465 1.272 . S
C472 O464 1.311 . S
C472 O466 1.231 . S
O473 Zn455 1.953 . S
O473 C467 1.298 . S
O474 Zn475 1.953 . S
O474 C490 1.225 . S
Zn475 O474 1.953 . S
Zn475 O476 1.949 . S
Zn475 O482 1.919 1_545 S
Zn475 O487 1.924 . S
O476 Zn475 1.949 . S
O476 Zn477 1.923 1_544 S
O476 Zn478 1.950 . S
O476 Zn479 1.945 1_554 S
Zn477 O476 1.923 1_566 S
Zn477 O480 1.933 . S
Zn477 O483 1.941 . S
Zn477 O484 1.965 1_556 S
Zn478 O476 1.950 . S
Zn478 O485 1.938 1_545 S
Zn478 O486 1.906 . S
Zn478 O496 1.953 . S
Zn479 O476 1.945 1_556 S
Zn479 O481 1.932 . S
Zn479 O488 1.977 1_556 S
Zn479 O489 1.910 . S
O480 Zn477 1.933 . S
O480 C491 1.226 . S
O481 Zn479 1.932 . S
O481 C491 1.307 1_545 S
O482 Zn475 1.919 1_565 S
O482 C493 1.253 1_554 S
O483 Zn477 1.941 . S
O483 C493 1.283 . S
O484 Zn477 1.965 1_554 S
O484 C492 1.303 . S
O485 Zn478 1.938 1_565 S
O485 C492 1.247 . S
O486 Zn478 1.906 . S
O486 C494 1.304 . S
O487 Zn475 1.924 . S
O487 C495 1.311 1_554 S
O488 Zn479 1.977 1_554 S
O488 C494 1.272 . S
O489 Zn479 1.910 . S
O489 C495 1.231 . S
C490 O474 1.225 . S
C490 O496 1.298 . S
C491 O480 1.226 . S
C491 O481 1.307 1_565 S
C492 O484 1.303 . S
C492 O485 1.247 . S
C493 O482 1.253 1_556 S
C493 O483 1.283 . S
C494 O486 1.304 . S
C494 O488 1.272 . S
C495 O487 1.311 1_556 S
C495 O489 1.231 . S
O496 Zn478 1.953 . S
O496 C490 1.298 . S
O497 Zn498 1.953 . S
O497 C513 1.225 . S
Zn498 O497 1.953 . S
Zn498 O499 1.949 . S
Zn498 O505 1.919 . S
Zn498 O510 1.924 . S
O499 Zn498 1.949 . S
O499 Zn500 1.923 . S
O499 Zn501 1.950 . S
O499 Zn502 1.945 . S
Zn500 O499 1.923 . S
Zn500 O503 1.933 . S
Zn500 O506 1.941 . S
Zn500 O507 1.965 . S
Zn501 O499 1.950 . S
Zn501 O508 1.938 . S
Zn501 O509 1.906 . S
Zn501 O519 1.953 . S
Zn502 O499 1.945 . S
Zn502 O504 1.932 . S
Zn502 O511 1.977 . S
Zn502 O512 1.910 . S
O503 Zn500 1.933 . S
O503 C514 1.226 . S
O504 Zn502 1.932 . S
O504 C514 1.307 . S
O505 Zn498 1.919 . S
O505 C516 1.253 . S
O506 Zn500 1.941 . S
O506 C516 1.283 . S
O507 Zn500 1.965 . S
O507 C515 1.303 . S
O508 Zn501 1.938 . S
O508 C515 1.247 . S
O509 Zn501 1.906 . S
O509 C517 1.304 . S
O510 Zn498 1.924 . S
O510 C518 1.311 . S
O511 Zn502 1.977 . S
O511 C517 1.272 . S
O512 Zn502 1.910 . S
O512 C518 1.231 . S
C513 O497 1.225 . S
C513 O519 1.298 . S
C514 O503 1.226 . S
C514 O504 1.307 . S
C515 O507 1.303 . S
C515 O508 1.247 . S
C516 O505 1.253 . S
C516 O506 1.283 . S
C517 O509 1.304 . S
C517 O511 1.272 . S
C518 O510 1.311 . S
C518 O512 1.231 . S
O519 Zn501 1.953 . S
O519 C513 1.298 . S
O520 Zn521 1.953 . S
O520 C536 1.225 . S
Zn521 O520 1.953 . S
Zn521 O522 1.949 1_556 S
Zn521 O528 1.919 . S
Zn521 O533 1.924 . S
O522 Zn521 1.949 1_554 S
O522 Zn523 1.923 . S
O522 Zn524 1.950 . S
O522 Zn525 1.945 . S
Zn523 O522 1.923 . S
Zn523 O526 1.933 . S
Zn523 O529 1.941 . S
Zn523 O530 1.965 . S
Zn524 O522 1.950 . S
Zn524 O531 1.938 . S
Zn524 O532 1.906 . S
Zn524 O542 1.953 1_554 S
Zn525 O522 1.945 . S
Zn525 O527 1.932 . S
Zn525 O534 1.977 . S
Zn525 O535 1.910 . S
O526 Zn523 1.933 . S
O526 C537 1.226 . S
O527 Zn525 1.932 . S
O527 C537 1.307 . S
O528 Zn521 1.919 . S
O528 C539 1.253 . S
O529 Zn523 1.941 . S
O529 C539 1.283 1_554 S
O530 Zn523 1.965 . S
O530 C538 1.303 . S
O531 Zn524 1.938 . S
O531 C538 1.247 . S
O532 Zn524 1.906 . S
O532 C540 1.304 . S
O533 Zn521 1.924 . S
O533 C541 1.311 . S
O534 Zn525 1.977 . S
O534 C540 1.272 . S
O535 Zn525 1.910 . S
O535 C541 1.231 1_554 S
C536 O520 1.225 . S
C536 O542 1.298 . S
C537 O526 1.226 . S
C537 O527 1.307 . S
C538 O530 1.303 . S
C538 O531 1.247 . S
C539 O528 1.253 . S
C539 O529 1.283 1_556 S
C540 O532 1.304 . S
C540 O534 1.272 . S
C541 O533 1.311 . S
C541 O535 1.231 1_556 S
O542 Zn524 1.953 1_556 S
O542 C536 1.298 . S
O543 Zn544 1.953 . S
O543 C559 1.225 . S
Zn544 O543 1.953 . S
Zn544 O545 1.949 . S
Zn544 O551 1.919 . S
Zn544 O556 1.924 . S
O545 Zn544 1.949 . S
O545 Zn546 1.923 . S
O545 Zn547 1.950 . S
O545 Zn548 1.945 . S
Zn546 O545 1.923 . S
Zn546 O549 1.933 . S
Zn546 O552 1.941 . S
Zn546 O553 1.965 . S
Zn547 O545 1.950 . S
Zn547 O554 1.938 . S
Zn547 O555 1.906 . S
Zn547 O565 1.953 . S
Zn548 O545 1.945 . S
Zn548 O550 1.932 . S
Zn548 O557 1.977 . S
Zn548 O558 1.910 . S
O549 Zn546 1.933 . S
O549 C560 1.226 . S
O550 Zn548 1.932 . S
O550 C560 1.307 . S
O551 Zn544 1.919 . S
O551 C562 1.253 . S
O552 Zn546 1.941 . S
O552 C562 1.283 . S
O553 Zn546 1.965 . S
O553 C561 1.303 . S
O554 Zn547 1.938 . S
O554 C561 1.247 . S
O555 Zn547 1.906 . S
O555 C563 1.304 . S
O556 Zn544 1.924 . S
O556 C564 1.311 . S
O557 Zn548 1.977 . S
O557 C563 1.272 . S
O558 Zn548 1.910 . S
O558 C564 1.231 . S
C559 O543 1.225 . S
C559 O565 1.298 . S
C560 O549 1.226 . S
C560 O550 1.307 . S
C561 O553 1.303 . S
C561 O554 1.247 . S
C562 O551 1.253 . S
C562 O552 1.283 . S
C563 O555 1.304 . S
C563 O557 1.272 . S
C564 O556 1.311 . S
C564 O558 1.231 . S
O565 Zn547 1.953 . S
O565 C559 1.298 . S
O566 Zn567 1.953 . S
O566 C582 1.225 . S
Zn567 O566 1.953 . S
Zn567 O568 1.945 1_455 S
Zn567 O574 1.919 . S
Zn567 O579 1.924 . S
O568 Zn567 1.945 1_655 S
O568 Zn569 1.922 1_655 S
O568 Zn570 1.952 . S
O568 Zn571 1.946 . S
Zn569 O568 1.922 1_455 S
Zn569 O572 1.921 1_455 S
Zn569 O575 1.971 . S
Zn569 O576 1.955 1_455 S
Zn570 O568 1.952 . S
Zn570 O577 1.938 . S
Zn570 O578 1.906 . S
Zn570 O588 1.953 1_655 S
Zn571 O568 1.946 . S
Zn571 O573 1.932 . S
Zn571 O580 1.977 . S
Zn571 O581 1.895 1_655 S
O572 Zn569 1.921 1_655 S
O572 C583 1.226 . S
O573 Zn571 1.932 . S
O573 C583 1.307 . S
O574 Zn567 1.919 . S
O574 C585 1.253 . S
O575 Zn569 1.971 . S
O575 C585 1.283 . S
O576 Zn569 1.955 1_655 S
O576 C584 1.303 . S
O577 Zn570 1.938 . S
O577 C584 1.247 . S
O578 Zn570 1.906 . S
O578 C586 1.304 . S
O579 Zn567 1.924 . S
O579 C587 1.311 . S
O580 Zn571 1.977 . S
O580 C586 1.272 . S
O581 Zn571 1.895 1_455 S
O581 C587 1.262 . S
C582 O566 1.225 . S
C582 O588 1.298 . S
C583 O572 1.226 . S
C583 O573 1.307 . S
C584 O576 1.303 . S
C584 O577 1.247 . S
C585 O574 1.253 . S
C585 O575 1.283 . S
C586 O578 1.304 . S
C586 O580 1.272 . S
C587 O579 1.311 . S
C587 O581 1.262 . S
O588 Zn570 1.953 1_455 S
O588 C582 1.298 . S
O589 Zn590 1.953 . S
O589 C605 1.225 . S
Zn590 O589 1.953 . S
Zn590 O591 1.949 . S
Zn590 O597 1.919 . S
Zn590 O602 1.924 . S
O591 Zn590 1.949 . S
O591 Zn592 1.923 . S
O591 Zn593 1.950 . S
O591 Zn594 1.945 . S
Zn592 O591 1.923 . S
Zn592 O595 1.933 . S
Zn592 O598 1.941 . S
Zn592 O599 1.965 . S
Zn593 O591 1.950 . S
Zn593 O600 1.938 . S
Zn593 O601 1.906 . S
Zn593 O611 1.953 . S
Zn594 O591 1.945 . S
Zn594 O596 1.932 . S
Zn594 O603 1.977 . S
Zn594 O604 1.910 . S
O595 Zn592 1.933 . S
O595 C606 1.226 . S
O596 Zn594 1.932 . S
O596 C606 1.307 . S
O597 Zn590 1.919 . S
O597 C608 1.253 . S
O598 Zn592 1.941 . S
O598 C608 1.283 . S
O599 Zn592 1.965 . S
O599 C607 1.303 . S
O600 Zn593 1.938 . S
O600 C607 1.247 . S
O601 Zn593 1.906 . S
O601 C609 1.304 . S
O602 Zn590 1.924 . S
O602 C610 1.311 . S
O603 Zn594 1.977 . S
O603 C609 1.272 . S
O604 Zn594 1.910 . S
O604 C610 1.231 . S
C605 O589 1.225 . S
C605 O611 1.298 . S
C606 O595 1.226 . S
C606 O596 1.307 . S
C607 O599 1.303 . S
C607 O600 1.247 . S
C608 O597 1.253 . S
C608 O598 1.283 . S
C609 O601 1.304 . S
C609 O603 1.272 . S
C610 O602 1.311 . S
C610 O604 1.231 . S
O611 Zn593 1.953 . S
O611 C605 1.298 . S
O612 Zn613 1.953 . S
O612 C628 1.225 . S
Zn613 O612 1.953 . S
Zn613 O614 1.949 . S
Zn613 O620 1.919 . S
Zn613 O625 1.924 . S
O614 Zn613 1.949 . S
O614 Zn615 1.923 . S
O614 Zn616 1.950 . S
O614 Zn617 1.945 . S
Zn615 O614 1.923 . S
Zn615 O618 1.933 . S
Zn615 O621 1.941 . S
Zn615 O622 1.965 . S
Zn616 O614 1.950 . S
Zn616 O623 1.938 . S
Zn616 O624 1.906 . S
Zn616 O634 1.953 . S
Zn617 O614 1.945 . S
Zn617 O619 1.932 . S
Zn617 O626 1.977 . S
Zn617 O627 1.910 . S
O618 Zn615 1.933 . S
O618 C629 1.226 . S
O619 Zn617 1.932 . S
O619 C629 1.307 . S
O620 Zn613 1.919 . S
O620 C631 1.253 . S
O621 Zn615 1.941 . S
O621 C631 1.283 . S
O622 Zn615 1.965 . S
O622 C630 1.303 . S
O623 Zn616 1.938 . S
O623 C630 1.247 . S
O624 Zn616 1.906 . S
O624 C632 1.304 . S
O625 Zn613 1.924 . S
O625 C633 1.311 . S
O626 Zn617 1.977 . S
O626 C632 1.272 . S
O627 Zn617 1.910 . S
O627 C633 1.231 . S
C628 O612 1.225 . S
C628 O634 1.298 . S
C629 O618 1.226 . S
C629 O619 1.307 . S
C630 O622 1.303 . S
C630 O623 1.247 . S
C631 O620 1.253 . S
C631 O621 1.283 . S
C632 O624 1.304 . S
C632 O626 1.272 . S
C633 O625 1.311 . S
C633 O627 1.231 . S
O634 Zn616 1.953 . S
O634 C628 1.298 . S
O635 Zn636 1.953 . S
O635 C651 1.225 . S
Zn636 O635 1.953 . S
Zn636 O637 1.949 . S
Zn636 O643 1.919 . S
Zn636 O648 1.924 . S
O637 Zn636 1.949 . S
O637 Zn638 1.923 . S
O637 Zn639 1.950 . S
O637 Zn640 1.945 . S
Zn638 O637 1.923 . S
Zn638 O641 1.933 . S
Zn638 O644 1.941 . S
Zn638 O645 1.965 . S
Zn639 O637 1.950 . S
Zn639 O646 1.938 . S
Zn639 O647 1.906 . S
Zn639 O657 1.953 . S
Zn640 O637 1.945 . S
Zn640 O642 1.932 . S
Zn640 O649 1.977 . S
Zn640 O650 1.910 . S
O641 Zn638 1.933 . S
O641 C652 1.226 . S
O642 Zn640 1.932 . S
O642 C652 1.307 . S
O643 Zn636 1.919 . S
O643 C654 1.253 . S
O644 Zn638 1.941 . S
O644 C654 1.283 . S
O645 Zn638 1.965 . S
O645 C653 1.303 . S
O646 Zn639 1.938 . S
O646 C653 1.247 . S
O647 Zn639 1.906 . S
O647 C655 1.304 . S
O648 Zn636 1.924 . S
O648 C656 1.311 . S
O649 Zn640 1.977 . S
O649 C655 1.272 . S
O650 Zn640 1.910 . S
O650 C656 1.231 . S
C651 O635 1.225 . S
C651 O657 1.298 . S
C652 O641 1.226 . S
C652 O642 1.307 . S
C653 O645 1.303 . S
C653 O646 1.247 . S
C654 O643 1.253 . S
C654 O644 1.283 . S
C655 O647 1.304 . S
C655 O649 1.272 . S
C656 O648 1.311 . S
C656 O650 1.231 . S
O657 Zn639 1.953 . S
O657 C651 1.298 . S
O658 Zn659 1.953 . S
O658 C674 1.225 . S
Zn659 O658 1.953 . S
Zn659 O660 1.949 . S
Zn659 O666 1.919 . S
Zn659 O671 1.924 . S
O660 Zn659 1.949 . S
O660 Zn661 1.923 . S
O660 Zn662 1.950 . S
O660 Zn663 1.945 . S
Zn661 O660 1.923 . S
Zn661 O664 1.933 . S
Zn661 O667 1.941 . S
Zn661 O668 1.965 . S
Zn662 O660 1.950 . S
Zn662 O669 1.938 . S
Zn662 O670 1.906 . S
Zn662 O680 1.953 . S
Zn663 O660 1.945 . S
Zn663 O665 1.932 . S
Zn663 O672 1.977 . S
Zn663 O673 1.910 . S
O664 Zn661 1.933 . S
O664 C675 1.226 . S
O665 Zn663 1.932 . S
O665 C675 1.307 . S
O666 Zn659 1.919 . S
O666 C677 1.253 . S
O667 Zn661 1.941 . S
O667 C677 1.283 . S
O668 Zn661 1.965 . S
O668 C676 1.303 . S
O669 Zn662 1.938 . S
O669 C676 1.247 . S
O670 Zn662 1.906 . S
O670 C678 1.304 . S
O671 Zn659 1.924 . S
O671 C679 1.311 . S
O672 Zn663 1.977 . S
O672 C678 1.272 . S
O673 Zn663 1.910 . S
O673 C679 1.231 . S
C674 O658 1.225 . S
C674 O680 1.298 . S
C675 O664 1.226 . S
C675 O665 1.307 . S
C676 O668 1.303 . S
C676 O669 1.247 . S
C677 O666 1.253 . S
C677 O667 1.283 . S
C678 O670 1.304 . S
C678 O672 1.272 . S
C679 O671 1.311 . S
C679 O673 1.231 . S
O680 Zn662 1.953 . S
O680 C674 1.298 . S
O681 Zn682 1.953 1_454 S
O681 C697 1.225 . S
Zn682 O681 1.953 1_656 S
Zn682 O683 1.949 1_656 S
Zn682 O689 1.919 . S
Zn682 O694 1.924 1_655 S
O683 Zn682 1.949 1_454 S
O683 Zn684 1.923 1_455 S
O683 Zn685 1.950 . S
O683 Zn686 1.945 1_554 S
Zn684 O683 1.923 1_655 S
Zn684 O687 1.933 . S
Zn684 O690 1.941 . S
Zn684 O691 1.965 . S
Zn685 O683 1.950 . S
Zn685 O692 1.938 . S
Zn685 O693 1.906 . S
Zn685 O703 1.953 . S
Zn686 O683 1.945 1_556 S
Zn686 O688 1.932 . S
Zn686 O695 1.977 1_556 S
Zn686 O696 1.910 . S
O687 Zn684 1.933 . S
O687 C698 1.226 1_554 S
O688 Zn686 1.932 . S
O688 C698 1.307 1_455 S
O689 Zn682 1.919 . S
O689 C700 1.253 . S
O690 Zn684 1.941 . S
O690 C700 1.283 1_554 S
O691 Zn684 1.965 . S
O691 C699 1.303 . S
O692 Zn685 1.938 . S
O692 C699 1.247 1_455 S
O693 Zn685 1.906 . S
O693 C701 1.304 . S
O694 Zn682 1.924 1_455 S
O694 C702 1.311 . S
O695 Zn686 1.977 1_554 S
O695 C701 1.272 . S
O696 Zn686 1.910 . S
O696 C702 1.231 . S
C697 O681 1.225 . S
C697 O703 1.298 . S
C698 O687 1.226 1_556 S
C698 O688 1.307 1_655 S
C699 O691 1.303 . S
C699 O692 1.247 1_655 S
C700 O689 1.253 . S
C700 O690 1.283 1_556 S
C701 O693 1.304 . S
C701 O695 1.272 . S
C702 O694 1.311 . S
C702 O696 1.231 . S
O703 Zn685 1.953 . S
O703 C697 1.298 . S
C704 C705 1.387 1_655 S
C704 H708 0.950 . S
C704 C713 1.390 . S
C705 C704 1.387 1_455 S
C705 C707 1.387 . S
H706 C713 0.950 . S
C707 C705 1.387 . S
C707 C709 1.390 1_455 S
C707 H711 0.950 . S
H708 C704 0.950 . S
C709 C707 1.390 1_655 S
C709 C710 1.387 . S
C709 H712 0.950 . S
C710 C709 1.387 . S
C710 C713 1.387 . S
H711 C707 0.950 . S
H712 C709 0.950 . S
C713 C704 1.390 . S
C713 H706 0.950 . S
C713 C710 1.387 . S
C714 C715 1.387 . S
C714 H718 0.950 . S
C714 C723 1.390 . S
C715 C714 1.387 . S
C715 C717 1.387 . S
H716 C723 0.950 . S
C717 C715 1.387 . S
C717 C719 1.390 . S
C717 H721 0.950 . S
H718 C714 0.950 . S
C719 C717 1.390 . S
C719 C720 1.387 . S
C719 H722 0.950 . S
C720 C719 1.387 . S
C720 C723 1.387 . S
H721 C717 0.950 . S
H722 C719 0.950 . S
C723 C714 1.390 . S
C723 H716 0.950 . S
C723 C720 1.387 . S
C724 C725 1.387 . S
C724 H728 0.950 . S
C724 C733 1.390 . S
C725 C724 1.387 . S
C725 C727 1.387 . S
H726 C733 0.950 . S
C727 C725 1.387 . S
C727 C729 1.390 . S
C727 H731 0.950 . S
H728 C724 0.950 . S
C729 C727 1.390 . S
C729 C730 1.387 . S
C729 H732 0.950 . S
C730 C729 1.387 . S
C730 C733 1.387 . S
H731 C727 0.950 . S
H732 C729 0.950 . S
C733 C724 1.390 . S
C733 H726 0.950 . S
C733 C730 1.387 . S
C734 C735 1.387 . S
C734 H738 0.950 . S
C734 C743 1.390 . S
C735 C734 1.387 . S
C735 C737 1.387 . S
H736 C743 0.950 . S
C737 C735 1.387 . S
C737 C739 1.390 . S
C737 H741 0.950 . S
H738 C734 0.950 . S
C739 C737 1.390 . S
C739 C740 1.387 . S
C739 H742 0.950 . S
C740 C739 1.387 . S
C740 C743 1.387 . S
H741 C737 0.950 . S
H742 C739 0.950 . S
C743 C734 1.390 . S
C743 H736 0.950 . S
C743 C740 1.387 . S
C744 C745 1.387 1_655 S
C744 H748 0.950 . S
C744 C753 1.390 . S
C745 C744 1.387 1_455 S
C745 C747 1.387 . S
H746 C753 0.950 . S
C747 C745 1.387 . S
C747 C749 1.390 . S
C747 H751 0.950 . S
H748 C744 0.950 . S
C749 C747 1.390 . S
C749 C750 1.387 1_455 S
C749 H752 0.950 . S
C750 C749 1.387 1_655 S
C750 C753 1.387 . S
H751 C747 0.950 . S
H752 C749 0.950 . S
C753 C744 1.390 . S
C753 H746 0.950 . S
C753 C750 1.387 . S
C754 C755 1.387 . S
C754 H758 0.950 . S
C754 C763 1.390 . S
C755 C754 1.387 . S
C755 C757 1.387 . S
H756 C763 0.950 . S
C757 C755 1.387 . S
C757 C759 1.390 . S
C757 H761 0.950 . S
H758 C754 0.950 . S
C759 C757 1.390 . S
C759 C760 1.387 . S
C759 H762 0.950 . S
C760 C759 1.387 . S
C760 C763 1.387 . S
H761 C757 0.950 . S
H762 C759 0.950 . S
C763 C754 1.390 . S
C763 H756 0.950 . S
C763 C760 1.387 . S
C764 C765 1.387 . S
C764 H768 0.950 . S
C764 C773 1.390 1_556 S
C765 C764 1.387 . S
C765 C767 1.387 . S
H766 C773 0.950 . S
C767 C765 1.387 . S
C767 C769 1.390 . S
C767 H771 0.950 . S
H768 C764 0.950 . S
C769 C767 1.390 . S
C769 C770 1.387 . S
C769 H772 0.950 . S
C770 C769 1.387 . S
C770 C773 1.387 1_556 S
H771 C767 0.950 . S
H772 C769 0.950 . S
C773 C764 1.390 1_554 S
C773 H766 0.950 . S
C773 C770 1.387 1_554 S
C774 C775 1.387 . S
C774 H778 0.950 . S
C774 C783 1.390 . S
C775 C774 1.387 . S
C775 C777 1.387 . S
H776 C783 0.950 . S
C777 C775 1.387 . S
C777 C779 1.390 . S
C777 H781 0.950 . S
H778 C774 0.950 . S
C779 C777 1.390 . S
C779 C780 1.387 . S
C779 H782 0.950 . S
C780 C779 1.387 . S
C780 C783 1.387 . S
H781 C777 0.950 . S
H782 C779 0.950 . S
C783 C774 1.390 . S
C783 H776 0.950 . S
C783 C780 1.387 . S
C784 C785 1.387 . S
C784 H788 0.950 . S
C784 C793 1.390 . S
C785 C784 1.387 . S
C785 C787 1.387 1_545 S
H786 C793 0.950 . S
C787 C785 1.387 1_565 S
C787 C789 1.390 . S
C787 H791 0.950 . S
H788 C784 0.950 . S
C789 C787 1.390 . S
C789 C790 1.387 1_565 S
C789 H792 0.950 . S
C790 C789 1.387 1_545 S
C790 C793 1.387 . S
H791 C787 0.950 . S
H792 C789 0.950 . S
C793 C784 1.390 . S
C793 H786 0.950 . S
C793 C790 1.387 . S
C794 C795 1.387 . S
C794 H798 0.950 . S
C794 C803 1.390 . S
C795 C794 1.387 . S
C795 C797 1.387 . S
H796 C803 0.950 . S
C797 C795 1.387 . S
C797 C799 1.390 . S
C797 H801 0.950 . S
H798 C794 0.950 . S
C799 C797 1.390 . S
C799 C800 1.387 . S
C799 H802 0.950 . S
C800 C799 1.387 . S
C800 C803 1.387 . S
H801 C797 0.950 . S
H802 C799 0.950 . S
C803 C794 1.390 . S
C803 H796 0.950 . S
C803 C800 1.387 . S
C804 C805 1.387 1_545 S
C804 H808 0.950 . S
C804 C813 1.390 . S
C805 C804 1.387 1_565 S
C805 C807 1.387 . S
H806 C813 0.950 . S
C807 C805 1.387 . S
C807 C809 1.390 . S
C807 H811 0.950 . S
H808 C804 0.950 . S
C809 C807 1.390 . S
C809 C810 1.387 1_565 S
C809 H812 0.950 . S
C810 C809 1.387 1_545 S
C810 C813 1.387 . S
H811 C807 0.950 . S
H812 C809 0.950 . S
C813 C804 1.390 . S
C813 H806 0.950 . S
C813 C810 1.387 . S
C814 C815 1.387 . S
C814 H818 0.950 . S
C814 C823 1.390 . S
C815 C814 1.387 . S
C815 C817 1.387 . S
H816 C823 0.950 . S
C817 C815 1.387 . S
C817 C819 1.390 . S
C817 H821 0.950 . S
H818 C814 0.950 . S
C819 C817 1.390 . S
C819 C820 1.387 . S
C819 H822 0.950 . S
C820 C819 1.387 . S
C820 C823 1.387 . S
H821 C817 0.950 . S
H822 C819 0.950 . S
C823 C814 1.390 . S
C823 H816 0.950 . S
C823 C820 1.387 . S
C824 C825 1.387 . S
C824 H828 0.950 1_545 S
C824 C833 1.390 . S
C825 C824 1.387 . S
C825 C827 1.387 . S
H826 C833 0.950 . S
C827 C825 1.387 . S
C827 C829 1.390 . S
C827 H831 0.950 . S
H828 C824 0.950 1_565 S
C829 C827 1.390 . S
C829 C830 1.387 . S
C829 H832 0.950 . S
C830 C829 1.387 . S
C830 C833 1.387 . S
H831 C827 0.950 . S
H832 C829 0.950 . S
C833 C824 1.390 . S
C833 H826 0.950 . S
C833 C830 1.387 . S
C834 C835 1.387 . S
C834 H838 0.950 . S
C834 C843 1.390 . S
C835 C834 1.387 . S
C835 C837 1.387 . S
H836 C843 0.950 . S
C837 C835 1.387 . S
C837 C839 1.390 . S
C837 H841 0.950 . S
H838 C834 0.950 . S
C839 C837 1.390 . S
C839 C840 1.387 . S
C839 H842 0.950 . S
C840 C839 1.387 . S
C840 C843 1.387 . S
H841 C837 0.950 . S
H842 C839 0.950 . S
C843 C834 1.390 . S
C843 H836 0.950 . S
C843 C840 1.387 . S
C844 C845 1.387 1_545 S
C844 H848 0.950 . S
C844 C853 1.390 . S
C845 C844 1.387 1_565 S
C845 C847 1.387 . S
H846 C853 0.950 . S
C847 C845 1.387 . S
C847 C849 1.390 . S
C847 H851 0.950 . S
H848 C844 0.950 . S
C849 C847 1.390 . S
C849 C850 1.387 . S
C849 H852 0.950 . S
C850 C849 1.387 . S
C850 C853 1.387 1_565 S
H851 C847 0.950 . S
H852 C849 0.950 . S
C853 C844 1.390 . S
C853 H846 0.950 . S
C853 C850 1.387 1_545 S
C854 C855 1.387 . S
C854 H858 0.950 . S
C854 C863 1.390 . S
C855 C854 1.387 . S
C855 C857 1.387 . S
H856 C863 0.950 . S
C857 C855 1.387 . S
C857 C859 1.390 . S
C857 H861 0.950 . S
H858 C854 0.950 . S
C859 C857 1.390 . S
C859 C860 1.387 . S
C859 H862 0.950 . S
C860 C859 1.387 . S
C860 C863 1.387 . S
H861 C857 0.950 . S
H862 C859 0.950 . S
C863 C854 1.390 . S
C863 H856 0.950 . S
C863 C860 1.387 . S
C864 C865 1.387 . S
C864 H868 0.950 . S
C864 C873 1.390 . S
C865 C864 1.387 . S
C865 C867 1.387 1_554 S
H866 C873 0.950 . S
C867 C865 1.387 1_556 S
C867 C869 1.390 . S
C867 H871 0.950 . S
H868 C864 0.950 . S
C869 C867 1.390 . S
C869 C870 1.387 . S
C869 H872 0.950 . S
C870 C869 1.387 . S
C870 C873 1.387 1_556 S
H871 C867 0.950 . S
H872 C869 0.950 . S
C873 C864 1.390 . S
C873 H866 0.950 . S
C873 C870 1.387 1_554 S
C874 C875 1.387 . S
C874 H878 0.950 . S
C874 C883 1.390 . S
C875 C874 1.387 . S
C875 C877 1.387 1_554 S
H876 C883 0.950 . S
C877 C875 1.387 1_556 S
C877 C879 1.390 . S
C877 H881 0.950 . S
H878 C874 0.950 . S
C879 C877 1.390 . S
C879 C880 1.387 1_556 S
C879 H882 0.950 . S
C880 C879 1.387 1_554 S
C880 C883 1.387 . S
H881 C877 0.950 . S
H882 C879 0.950 . S
C883 C874 1.390 . S
C883 H876 0.950 . S
C883 C880 1.387 . S
C884 C885 1.387 . S
C884 H888 0.950 . S
C884 C893 1.390 . S
C885 C884 1.387 . S
C885 C887 1.387 . S
H886 C893 0.950 . S
C887 C885 1.387 . S
C887 C889 1.390 . S
C887 H891 0.950 . S
H888 C884 0.950 . S
C889 C887 1.390 . S
C889 C890 1.387 . S
C889 H892 0.950 . S
C890 C889 1.387 . S
C890 C893 1.387 . S
H891 C887 0.950 . S
H892 C889 0.950 . S
C893 C884 1.390 . S
C893 H886 0.950 . S
C893 C890 1.387 . S
C894 C895 1.387 . S
C894 H898 0.950 . S
C894 C903 1.390 . S
C895 C894 1.387 . S
C895 C897 1.387 . S
H896 C903 0.950 . S
C897 C895 1.387 . S
C897 C899 1.390 . S
C897 H901 0.950 . S
H898 C894 0.950 . S
C899 C897 1.390 . S
C899 C900 1.387 . S
C899 H902 0.950 . S
C900 C899 1.387 . S
C900 C903 1.387 . S
H901 C897 0.950 . S
H902 C899 0.950 . S
C903 C894 1.390 . S
C903 H896 0.950 . S
C903 C900 1.387 . S
C904 C905 1.387 . S
C904 H908 0.950 . S
C904 C913 1.390 . S
C905 C904 1.387 . S
C905 C907 1.387 . S
H906 C913 0.950 . S
C907 C905 1.387 . S
C907 C909 1.390 . S
C907 H911 0.950 . S
H908 C904 0.950 . S
C909 C907 1.390 . S
C909 C910 1.387 . S
C909 H912 0.950 . S
C910 C909 1.387 . S
C910 C913 1.387 . S
H911 C907 0.950 . S
H912 C909 0.950 . S
C913 C904 1.390 . S
C913 H906 0.950 . S
C913 C910 1.387 . S
C914 C915 1.387 . S
C914 H918 0.950 . S
C914 C923 1.390 . S
C915 C914 1.387 . S
C915 C917 1.387 . S
H916 C923 0.950 1_545 S
C917 C915 1.387 . S
C917 C919 1.390 . S
C917 H921 0.950 . S
H918 C914 0.950 . S
C919 C917 1.390 . S
C919 C920 1.387 . S
C919 H922 0.950 . S
C920 C919 1.387 . S
C920 C923 1.387 . S
H921 C917 0.950 . S
H922 C919 0.950 . S
C923 C914 1.390 . S
C923 H916 0.950 1_565 S
C923 C920 1.387 . S
C924 C925 1.387 . S
C924 H928 0.950 . S
C924 C933 1.390 . S
C925 C924 1.387 . S
C925 C927 1.387 . S
H926 C933 0.950 . S
C927 C925 1.387 . S
C927 C929 1.390 . S
C927 H931 0.950 . S
H928 C924 0.950 . S
C929 C927 1.390 . S
C929 C930 1.387 . S
C929 H932 0.950 . S
C930 C929 1.387 . S
C930 C933 1.387 . S
H931 C927 0.950 . S
H932 C929 0.950 . S
C933 C924 1.390 . S
C933 H926 0.950 . S
C933 C930 1.387 . S
C934 C935 1.387 . S
C934 H938 0.950 . S
C934 C943 1.390 . S
C935 C934 1.387 . S
C935 C937 1.387 . S
H936 C943 0.950 . S
C937 C935 1.387 . S
C937 C939 1.390 . S
C937 H941 0.950 . S
H938 C934 0.950 . S
C939 C937 1.390 . S
C939 C940 1.387 . S
C939 H942 0.950 . S
C940 C939 1.387 . S
C940 C943 1.387 . S
H941 C937 0.950 . S
H942 C939 0.950 . S
C943 C934 1.390 . S
C943 H936 0.950 . S
C943 C940 1.387 . S
C944 C945 1.387 . S
C944 H948 0.950 . S
C944 C953 1.390 . S
C945 C944 1.387 . S
C945 C947 1.387 . S
H946 C953 0.950 1_554 S
C947 C945 1.387 . S
C947 C949 1.390 . S
C947 H951 0.950 . S
H948 C944 0.950 . S
C949 C947 1.390 . S
C949 C950 1.387 . S
C949 H952 0.950 . S
C950 C949 1.387 . S
C950 C953 1.387 . S
H951 C947 0.950 . S
H952 C949 0.950 . S
C953 C944 1.390 . S
C953 H946 0.950 1_556 S
C953 C950 1.387 . S
C954 C955 1.387 . S
C954 H958 0.950 . S
C954 C963 1.390 . S
C955 C954 1.387 . S
C955 C957 1.387 . S
H956 C963 0.950 . S
C957 C955 1.387 . S
C957 C959 1.390 . S
C957 H961 0.950 . S
H958 C954 0.950 . S
C959 C957 1.390 . S
C959 C960 1.387 . S
C959 H962 0.950 . S
C960 C959 1.387 . S
C960 C963 1.387 . S
H961 C957 0.950 . S
H962 C959 0.950 . S
C963 C954 1.390 . S
C963 H956 0.950 . S
C963 C960 1.387 . S
C964 C965 1.387 . S
C964 H968 0.950 . S
C964 C973 1.390 . S
C965 C964 1.387 . S
C965 C967 1.387 . S
H966 C973 0.950 . S
C967 C965 1.387 . S
C967 C969 1.390 . S
C967 H971 0.950 . S
H968 C964 0.950 . S
C969 C967 1.390 . S
C969 C970 1.387 . S
C969 H972 0.950 . S
C970 C969 1.387 . S
C970 C973 1.387 . S
H971 C967 0.950 . S
H972 C969 0.950 . S
C973 C964 1.390 . S
C973 H966 0.950 . S
C973 C970 1.387 . S
C974 C975 1.387 . S
C974 H978 0.950 . S
C974 C983 1.390 . S
C975 C974 1.387 . S
C975 C977 1.387 . S
H976 C983 0.950 . S
C977 C975 1.387 . S
C977 C979 1.390 . S
C977 H981 0.950 . S
H978 C974 0.950 . S
C979 C977 1.390 . S
C979 C980 1.387 . S
C979 H982 0.950 . S
C980 C979 1.387 . S
C980 C983 1.387 . S
H981 C977 0.950 . S
H982 C979 0.950 . S
C983 C974 1.390 . S
C983 H976 0.950 . S
C983 C980 1.387 . S
C984 C985 1.387 . S
C984 H988 0.950 1_455 S
C984 C993 1.390 . S
C985 C984 1.387 . S
C985 C987 1.387 . S
H986 C993 0.950 . S
C987 C985 1.387 . S
C987 C989 1.390 . S
C987 H991 0.950 . S
H988 C984 0.950 1_655 S
C989 C987 1.390 . S
C989 C990 1.387 . S
C989 H992 0.950 . S
C990 C989 1.387 . S
C990 C993 1.387 . S
H991 C987 0.950 . S
H992 C989 0.950 . S
C993 C984 1.390 . S
C993 H986 0.950 . S
C993 C990 1.387 . S
C994 C995 1.387 . S
C994 H998 0.950 . S
C994 C1003 1.390 . S
C995 C994 1.387 . S
C995 C997 1.387 . S
H996 C1003 0.950 . S
C997 C995 1.387 . S
C997 C999 1.390 . S
C997 H1001 0.950 . S
H998 C994 0.950 . S
C999 C997 1.390 . S
C999 C1000 1.387 . S
C999 H1002 0.950 . S
C1000 C999 1.387 . S
C1000 C1003 1.387 . S
H1001 C997 0.950 . S
H1002 C999 0.950 . S
C1003 C994 1.390 . S
C1003 H996 0.950 . S
C1003 C1000 1.387 . S
C1004 C1005 1.387 . S
C1004 H1008 0.950 . S
C1004 C1013 1.390 . S
C1005 C1004 1.387 . S
C1005 C1007 1.387 . S
H1006 C1013 0.950 . S
C1007 C1005 1.387 . S
C1007 C1009 1.390 . S
C1007 H1011 0.950 . S
H1008 C1004 0.950 . S
C1009 C1007 1.390 . S
C1009 C1010 1.387 . S
C1009 H1012 0.950 . S
C1010 C1009 1.387 . S
C1010 C1013 1.387 . S
H1011 C1007 0.950 . S
H1012 C1009 0.950 . S
C1013 C1004 1.390 . S
C1013 H1006 0.950 . S
C1013 C1010 1.387 . S
C1014 C1015 1.387 . S
C1014 H1018 0.950 . S
C1014 C1023 1.390 . S
C1015 C1014 1.387 . S
C1015 C1017 1.387 . S
H1016 C1023 0.950 . S
C1017 C1015 1.387 . S
C1017 C1019 1.390 . S
C1017 H1021 0.950 . S
H1018 C1014 0.950 . S
C1019 C1017 1.390 . S
C1019 C1020 1.387 . S
C1019 H1022 0.950 . S
C1020 C1019 1.387 . S
C1020 C1023 1.387 . S
H1021 C1017 0.950 . S
H1022 C1019 0.950 . S
C1023 C1014 1.390 . S
C1023 H1016 0.950 . S
C1023 C1020 1.387 . S
C1024 C1025 1.387 . S
C1024 H1028 0.950 . S
C1024 C1033 1.390 . S
C1025 C1024 1.387 . S
C1025 C1027 1.406 . S
H1026 C1033 0.950 . S
C1027 C1025 1.406 . S
C1027 C1029 1.401 . S
C1027 H1031 0.921 1_545 S
H1028 C1024 0.950 . S
C1029 C1027 1.401 . S
C1029 C1030 1.387 . S
C1029 H1032 0.950 . S
C1030 C1029 1.387 . S
C1030 C1033 1.387 . S
H1031 C1027 0.921 1_565 S
H1032 C1029 0.950 . S
C1033 C1024 1.390 . S
C1033 H1026 0.950 . S
C1033 C1030 1.387 . S
C1034 C1035 1.387 . S
C1034 H1038 0.950 . S
C1034 C1043 1.390 . S
C1035 C1034 1.387 . S
C1035 C1037 1.387 . S
H1036 C1043 0.950 . S
C1037 C1035 1.387 . S
C1037 C1039 1.390 . S
C1037 H1041 0.950 . S
H1038 C1034 0.950 . S
C1039 C1037 1.390 . S
C1039 C1040 1.387 . S
C1039 H1042 0.950 . S
C1040 C1039 1.387 . S
C1040 C1043 1.387 . S
H1041 C1037 0.950 . S
H1042 C1039 0.950 . S
C1043 C1034 1.390 . S
C1043 H1036 0.950 . S
C1043 C1040 1.387 . S
C1044 C1045 1.387 . S
C1044 H1048 0.950 . S
C1044 C1053 1.390 1_545 S
C1045 C1044 1.387 . S
C1045 C1047 1.387 1_545 S
H1046 C1053 0.950 1_545 S
C1047 C1045 1.387 1_565 S
C1047 C1049 1.390 . S
C1047 H1051 0.950 . S
H1048 C1044 0.950 . S
C1049 C1047 1.390 . S
C1049 C1050 1.387 . S
C1049 H1052 0.950 . S
C1050 C1049 1.387 . S
C1050 C1053 1.387 . S
H1051 C1047 0.950 . S
H1052 C1049 0.950 . S
C1053 C1044 1.390 1_565 S
C1053 H1046 0.950 1_565 S
C1053 C1050 1.387 . S
C1054 C1055 1.387 . S
C1054 H1058 0.950 . S
C1054 C1063 1.390 . S
C1055 C1054 1.387 . S
C1055 C1057 1.387 . S
H1056 C1063 0.950 . S
C1057 C1055 1.387 . S
C1057 C1059 1.390 . S
C1057 H1061 0.950 . S
H1058 C1054 0.950 . S
C1059 C1057 1.390 . S
C1059 C1060 1.387 . S
C1059 H1062 0.950 . S
C1060 C1059 1.387 . S
C1060 C1063 1.387 . S
H1061 C1057 0.950 . S
H1062 C1059 0.950 . S
C1063 C1054 1.390 . S
C1063 H1056 0.950 . S
C1063 C1060 1.387 . S
C1064 C1065 1.387 . S
C1064 H1068 0.950 . S
C1064 C1073 1.390 . S
C1065 C1064 1.387 . S
C1065 C1067 1.387 1_545 S
H1066 C1073 0.950 . S
C1067 C1065 1.387 1_565 S
C1067 C1069 1.390 . S
C1067 H1071 0.950 . S
H1068 C1064 0.950 . S
C1069 C1067 1.390 . S
C1069 C1070 1.387 . S
C1069 H1072 0.950 . S
C1070 C1069 1.387 . S
C1070 C1073 1.387 1_565 S
H1071 C1067 0.950 . S
H1072 C1069 0.950 . S
C1073 C1064 1.390 . S
C1073 H1066 0.950 . S
C1073 C1070 1.387 1_545 S
C1074 C1075 1.387 . S
C1074 H1078 0.950 . S
C1074 C1083 1.390 . S
C1075 C1074 1.387 . S
C1075 C1077 1.387 . S
H1076 C1083 0.950 . S
C1077 C1075 1.387 . S
C1077 C1079 1.390 . S
C1077 H1081 0.950 . S
H1078 C1074 0.950 . S
C1079 C1077 1.390 . S
C1079 C1080 1.387 . S
C1079 H1082 0.950 . S
C1080 C1079 1.387 . S
C1080 C1083 1.387 . S
H1081 C1077 0.950 . S
H1082 C1079 0.950 . S
C1083 C1074 1.390 . S
C1083 H1076 0.950 . S
C1083 C1080 1.387 . S
C1084 C1085 1.387 . S
C1084 H1088 0.950 . S
C1084 C1093 1.390 . S
C1085 C1084 1.387 . S
C1085 C1087 1.387 1_545 S
H1086 C1093 0.950 . S
C1087 C1085 1.387 1_565 S
C1087 C1089 1.379 1_565 S
C1087 H1091 0.950 . S
H1088 C1084 0.950 . S
C1089 C1087 1.379 1_545 S
C1089 C1090 1.420 . S
C1089 H1092 0.929 1_545 S
C1090 C1089 1.420 . S
C1090 C1093 1.387 . S
H1091 C1087 0.950 . S
H1092 C1089 0.929 1_565 S
C1093 C1084 1.390 . S
C1093 H1086 0.950 . S
C1093 C1090 1.387 . S
C1094 C1095 1.387 . S
C1094 H1098 0.950 . S
C1094 C1103 1.390 . S
C1095 C1094 1.387 . S
C1095 C1097 1.387 . S
H1096 C1103 0.950 . S
C1097 C1095 1.387 . S
C1097 C1099 1.390 . S
C1097 H1101 0.950 . S
H1098 C1094 0.950 . S
C1099 C1097 1.390 . S
C1099 C1100 1.387 . S
C1099 H1102 0.950 . S
C1100 C1099 1.387 . S
C1100 C1103 1.387 . S
H1101 C1097 0.950 . S
H1102 C1099 0.950 . S
C1103 C1094 1.390 . S
C1103 H1096 0.950 . S
C1103 C1100 1.387 . S
C1104 C1105 1.387 1_556 S
C1104 H1108 0.950 . S
C1104 C1113 1.390 1_556 S
C1105 C1104 1.387 1_554 S
C1105 C1107 1.387 . S
H1106 C1113 0.950 . S
C1107 C1105 1.387 . S
C1107 C1109 1.390 . S
C1107 H1111 0.950 . S
H1108 C1104 0.950 . S
C1109 C1107 1.390 . S
C1109 C1110 1.387 . S
C1109 H1112 0.950 . S
C1110 C1109 1.387 . S
C1110 C1113 1.387 . S
H1111 C1107 0.950 . S
H1112 C1109 0.950 . S
C1113 C1104 1.390 1_554 S
C1113 H1106 0.950 . S
C1113 C1110 1.387 . S
C1114 C1115 1.387 1_556 S
C1114 H1118 0.950 . S
C1114 C1123 1.390 . S
C1115 C1114 1.387 1_554 S
C1115 C1117 1.387 . S
H1116 C1123 0.950 . S
C1117 C1115 1.387 . S
C1117 C1119 1.390 . S
C1117 H1121 0.950 . S
H1118 C1114 0.950 . S
C1119 C1117 1.390 . S
C1119 C1120 1.387 1_554 S
C1119 H1122 0.950 . S
C1120 C1119 1.387 1_556 S
C1120 C1123 1.387 . S
H1121 C1117 0.950 . S
H1122 C1119 0.950 . S
C1123 C1114 1.390 . S
C1123 H1116 0.950 . S
C1123 C1120 1.387 . S
C1124 C1125 1.387 . S
C1124 H1128 0.950 . S
C1124 C1133 1.390 . S
C1125 C1124 1.387 . S
C1125 C1127 1.387 . S
H1126 C1133 0.950 . S
C1127 C1125 1.387 . S
C1127 C1129 1.390 . S
C1127 H1131 0.950 . S
H1128 C1124 0.950 . S
C1129 C1127 1.390 . S
C1129 C1130 1.387 . S
C1129 H1132 0.950 . S
C1130 C1129 1.387 . S
C1130 C1133 1.387 . S
H1131 C1127 0.950 . S
H1132 C1129 0.950 . S
C1133 C1124 1.390 . S
C1133 H1126 0.950 . S
C1133 C1130 1.387 . S
C1134 C1135 1.387 . S
C1134 H1138 0.950 . S
C1134 C1143 1.390 . S
C1135 C1134 1.387 . S
C1135 C1137 1.387 . S
H1136 C1143 0.950 . S
C1137 C1135 1.387 . S
C1137 C1139 1.390 . S
C1137 H1141 0.950 . S
H1138 C1134 0.950 . S
C1139 C1137 1.390 . S
C1139 C1140 1.387 . S
C1139 H1142 0.950 . S
C1140 C1139 1.387 . S
C1140 C1143 1.387 . S
H1141 C1137 0.950 . S
H1142 C1139 0.950 . S
C1143 C1134 1.390 . S
C1143 H1136 0.950 . S
C1143 C1140 1.387 . S
C1144 C1145 1.387 . S
C1144 H1148 0.950 . S
C1144 C1153 1.390 . S
C1145 C1144 1.387 . S
C1145 C1147 1.387 . S
H1146 C1153 0.950 . S
C1147 C1145 1.387 . S
C1147 C1149 1.390 . S
C1147 H1151 0.950 . S
H1148 C1144 0.950 . S
C1149 C1147 1.390 . S
C1149 C1150 1.387 . S
C1149 H1152 0.950 . S
C1150 C1149 1.387 . S
C1150 C1153 1.387 . S
H1151 C1147 0.950 . S
H1152 C1149 0.950 . S
C1153 C1144 1.390 . S
C1153 H1146 0.950 . S
C1153 C1150 1.387 . S
C1154 C1155 1.387 . S
C1154 H1158 0.950 . S
C1154 C1163 1.390 . S
C1155 C1154 1.387 . S
C1155 C1157 1.387 . S
H1156 C1163 0.950 . S
C1157 C1155 1.387 . S
C1157 C1159 1.390 . S
C1157 H1161 0.950 . S
H1158 C1154 0.950 . S
C1159 C1157 1.390 . S
C1159 C1160 1.387 . S
C1159 H1162 0.950 . S
C1160 C1159 1.387 . S
C1160 C1163 1.387 . S
H1161 C1157 0.950 . S
H1162 C1159 0.950 . S
C1163 C1154 1.390 . S
C1163 H1156 0.950 . S
C1163 C1160 1.387 . S
C1164 C1165 1.387 . S
C1164 H1168 0.950 . S
C1164 C1173 1.390 . S
C1165 C1164 1.387 . S
C1165 C1167 1.387 . S
H1166 C1173 0.950 . S
C1167 C1165 1.387 . S
C1167 C1169 1.390 . S
C1167 H1171 0.950 . S
H1168 C1164 0.950 . S
C1169 C1167 1.390 . S
C1169 C1170 1.387 . S
C1169 H1172 0.950 . S
C1170 C1169 1.387 . S
C1170 C1173 1.387 . S
H1171 C1167 0.950 . S
H1172 C1169 0.950 . S
C1173 C1164 1.390 . S
C1173 H1166 0.950 . S
C1173 C1170 1.387 . S
C1174 C1175 1.387 . S
C1174 H1178 0.950 . S
C1174 C1183 1.390 . S
C1175 C1174 1.387 . S
C1175 C1177 1.387 . S
H1176 C1183 0.950 . S
C1177 C1175 1.387 . S
C1177 C1179 1.390 . S
C1177 H1181 0.950 . S
H1178 C1174 0.950 . S
C1179 C1177 1.390 . S
C1179 C1180 1.387 . S
C1179 H1182 0.950 . S
C1180 C1179 1.387 . S
C1180 C1183 1.387 . S
H1181 C1177 0.950 . S
H1182 C1179 0.950 . S
C1183 C1174 1.390 . S
C1183 H1176 0.950 . S
C1183 C1180 1.387 . S
C1184 C1185 1.387 . S
C1184 H1188 0.950 . S
C1184 C1193 1.390 . S
C1185 C1184 1.387 . S
C1185 C1187 1.387 . S
H1186 C1193 0.950 . S
C1187 C1185 1.387 . S
C1187 C1189 1.390 . S
C1187 H1191 0.950 . S
H1188 C1184 0.950 . S
C1189 C1187 1.390 . S
C1189 C1190 1.387 . S
C1189 H1192 0.950 . S
C1190 C1189 1.387 . S
C1190 C1193 1.387 . S
H1191 C1187 0.950 . S
H1192 C1189 0.950 . S
C1193 C1184 1.390 . S
C1193 H1186 0.950 . S
C1193 C1190 1.387 . S
C1194 C1195 1.387 . S
C1194 H1198 0.950 . S
C1194 C1203 1.390 . S
C1195 C1194 1.387 . S
C1195 C1197 1.387 . S
H1196 C1203 0.950 . S
C1197 C1195 1.387 . S
C1197 C1199 1.390 . S
C1197 H1201 0.950 . S
H1198 C1194 0.950 . S
C1199 C1197 1.390 . S
C1199 C1200 1.387 . S
C1199 H1202 0.950 . S
C1200 C1199 1.387 . S
C1200 C1203 1.387 . S
H1201 C1197 0.950 . S
H1202 C1199 0.950 . S
C1203 C1194 1.390 . S
C1203 H1196 0.950 . S
C1203 C1200 1.387 . S
C1204 C1205 1.387 . S
C1204 H1208 0.950 1_455 S
C1204 C1213 1.390 . S
C1205 C1204 1.387 . S
C1205 C1207 1.387 . S
H1206 C1213 0.950 . S
C1207 C1205 1.387 . S
C1207 C1209 1.390 . S
C1207 H1211 0.950 . S
H1208 C1204 0.950 1_655 S
C1209 C1207 1.390 . S
C1209 C1210 1.387 . S
C1209 H1212 0.950 . S
C1210 C1209 1.387 . S
C1210 C1213 1.387 . S
H1211 C1207 0.950 . S
H1212 C1209 0.950 . S
C1213 C1204 1.390 . S
C1213 H1206 0.950 . S
C1213 C1210 1.387 . S
C1214 C1215 1.387 . S
C1214 H1218 0.950 . S
C1214 C1223 1.390 . S
C1215 C1214 1.387 . S
C1215 C1217 1.387 . S
H1216 C1223 0.950 . S
C1217 C1215 1.387 . S
C1217 C1219 1.390 . S
C1217 H1221 0.950 . S
H1218 C1214 0.950 . S
C1219 C1217 1.390 . S
C1219 C1220 1.387 . S
C1219 H1222 0.950 . S
C1220 C1219 1.387 . S
C1220 C1223 1.387 . S
H1221 C1217 0.950 . S
H1222 C1219 0.950 . S
C1223 C1214 1.390 . S
C1223 H1216 0.950 . S
C1223 C1220 1.387 . S
C1224 C1225 1.387 . S
C1224 H1228 0.950 . S
C1224 C1233 1.390 . S
C1225 C1224 1.387 . S
C1225 C1227 1.387 . S
H1226 C1233 0.950 1_554 S
C1227 C1225 1.387 . S
C1227 C1229 1.390 . S
C1227 H1231 0.950 . S
H1228 C1224 0.950 . S
C1229 C1227 1.390 . S
C1229 C1230 1.387 . S
C1229 H1232 0.950 . S
C1230 C1229 1.387 . S
C1230 C1233 1.387 . S
H1231 C1227 0.950 . S
H1232 C1229 0.950 . S
C1233 C1224 1.390 . S
C1233 H1226 0.950 1_556 S
C1233 C1230 1.387 . S
C1234 C1235 1.387 . S
C1234 H1238 0.950 . S
C1234 C1243 1.390 . S
C1235 C1234 1.387 . S
C1235 C1237 1.387 . S
H1236 C1243 0.950 . S
C1237 C1235 1.387 . S
C1237 C1239 1.390 . S
C1237 H1241 0.950 . S
H1238 C1234 0.950 . S
C1239 C1237 1.390 . S
C1239 C1240 1.387 . S
C1239 H1242 0.950 . S
C1240 C1239 1.387 . S
C1240 C1243 1.387 . S
H1241 C1237 0.950 . S
H1242 C1239 0.950 . S
C1243 C1234 1.390 . S
C1243 H1236 0.950 . S
C1243 C1240 1.387 . S
C1244 C1245 1.387 . S
C1244 H1248 0.941 1_455 S
C1244 C1253 1.390 . S
C1245 C1244 1.387 . S
C1245 C1247 1.387 . S
H1246 C1253 0.950 . S
C1247 C1245 1.387 . S
C1247 C1249 1.390 . S
C1247 H1251 0.950 . S
H1248 C1244 0.941 1_655 S
C1249 C1247 1.390 . S
C1249 C1250 1.387 . S
C1249 H1252 0.950 . S
C1250 C1249 1.387 . S
C1250 C1253 1.387 . S
H1251 C1247 0.950 . S
H1252 C1249 0.950 . S
C1253 C1244 1.390 . S
C1253 H1246 0.950 . S
C1253 C1250 1.387 . S
C1254 C1255 1.387 . S
C1254 H1258 0.950 . S
C1254 C1263 1.390 . S
C1255 C1254 1.387 . S
C1255 C1257 1.387 . S
H1256 C1263 0.950 . S
C1257 C1255 1.387 . S
C1257 C1259 1.390 . S
C1257 H1261 0.950 . S
H1258 C1254 0.950 . S
C1259 C1257 1.390 . S
C1259 C1260 1.387 . S
C1259 H1262 0.950 . S
C1260 C1259 1.387 . S
C1260 C1263 1.387 . S
H1261 C1257 0.950 . S
H1262 C1259 0.950 . S
C1263 C1254 1.390 . S
C1263 H1256 0.950 . S
C1263 C1260 1.387 . S
C1264 C1265 1.387 . S
C1264 H1268 0.950 . S
C1264 C1273 1.390 . S
C1265 C1264 1.387 . S
C1265 C1267 1.387 . S
H1266 C1273 0.950 . S
C1267 C1265 1.387 . S
C1267 C1269 1.390 . S
C1267 H1271 0.950 . S
H1268 C1264 0.950 . S
C1269 C1267 1.390 . S
C1269 C1270 1.387 . S
C1269 H1272 0.950 . S
C1270 C1269 1.387 . S
C1270 C1273 1.387 . S
H1271 C1267 0.950 . S
H1272 C1269 0.950 . S
C1273 C1264 1.390 . S
C1273 H1266 0.950 . S
C1273 C1270 1.387 . S
C1274 C1275 1.387 . S
C1274 H1278 0.950 . S
C1274 C1283 1.390 . S
C1275 C1274 1.387 . S
C1275 C1277 1.387 . S
H1276 C1283 0.950 . S
C1277 C1275 1.387 . S
C1277 C1279 1.390 . S
C1277 H1281 0.950 . S
H1278 C1274 0.950 . S
C1279 C1277 1.390 . S
C1279 C1280 1.387 . S
C1279 H1282 0.950 . S
C1280 C1279 1.387 . S
C1280 C1283 1.387 . S
H1281 C1277 0.950 . S
H1282 C1279 0.950 . S
C1283 C1274 1.390 . S
C1283 H1276 0.950 . S
C1283 C1280 1.387 . S
C1284 C1285 1.387 . S
C1284 H1288 0.950 . S
C1284 C1293 1.390 . S
C1285 C1284 1.387 . S
C1285 C1287 1.387 . S
H1286 C1293 0.950 . S
C1287 C1285 1.387 . S
C1287 C1289 1.390 . S
C1287 H1291 0.950 . S
H1288 C1284 0.950 . S
C1289 C1287 1.390 . S
C1289 C1290 1.387 . S
C1289 H1292 0.950 . S
C1290 C1289 1.387 . S
C1290 C1293 1.387 . S
H1291 C1287 0.950 . S
H1292 C1289 0.950 . S
C1293 C1284 1.390 . S
C1293 H1286 0.950 . S
C1293 C1290 1.387 . S
C1294 C1295 1.387 . S
C1294 H1298 0.950 . S
C1294 C1303 1.390 . S
C1295 C1294 1.387 . S
C1295 C1297 1.387 . S
H1296 C1303 0.950 . S
C1297 C1295 1.387 . S
C1297 C1299 1.390 . S
C1297 H1301 0.950 . S
H1298 C1294 0.950 . S
C1299 C1297 1.390 . S
C1299 C1300 1.387 . S
C1299 H1302 0.950 . S
C1300 C1299 1.387 . S
C1300 C1303 1.387 . S
H1301 C1297 0.950 . S
H1302 C1299 0.950 . S
C1303 C1294 1.390 . S
C1303 H1296 0.950 . S
C1303 C1300 1.387 . S
C1304 C1305 1.387 . S
C1304 H1308 0.950 . S
C1304 C1313 1.390 . S
C1305 C1304 1.387 . S
C1305 C1307 1.387 . S
H1306 C1313 0.950 . S
C1307 C1305 1.387 . S
C1307 C1309 1.390 . S
C1307 H1311 0.950 . S
H1308 C1304 0.950 . S
C1309 C1307 1.390 . S
C1309 C1310 1.387 . S
C1309 H1312 0.950 . S
C1310 C1309 1.387 . S
C1310 C1313 1.387 . S
H1311 C1307 0.950 . S
H1312 C1309 0.950 . S
C1313 C1304 1.390 . S
C1313 H1306 0.950 . S
C1313 C1310 1.387 . S
C1314 C1315 1.387 . S
C1314 H1318 0.950 . S
C1314 C1323 1.390 . S
C1315 C1314 1.387 . S
C1315 C1317 1.387 . S
H1316 C1323 0.950 . S
C1317 C1315 1.387 . S
C1317 C1319 1.390 . S
C1317 H1321 0.950 . S
H1318 C1314 0.950 . S
C1319 C1317 1.390 . S
C1319 C1320 1.387 . S
C1319 H1322 0.950 . S
C1320 C1319 1.387 . S
C1320 C1323 1.387 . S
H1321 C1317 0.950 . S
H1322 C1319 0.950 . S
C1323 C1314 1.390 . S
C1323 H1316 0.950 . S
C1323 C1320 1.387 . S
C1324 C1325 1.387 . S
C1324 H1328 0.950 . S
C1324 C1333 1.390 . S
C1325 C1324 1.387 . S
C1325 C1327 1.387 . S
H1326 C1333 0.950 . S
C1327 C1325 1.387 . S
C1327 C1329 1.390 . S
C1327 H1331 0.950 . S
H1328 C1324 0.950 . S
C1329 C1327 1.390 . S
C1329 C1330 1.387 . S
C1329 H1332 0.950 . S
C1330 C1329 1.387 . S
C1330 C1333 1.387 . S
H1331 C1327 0.950 . S
H1332 C1329 0.950 . S
C1333 C1324 1.390 . S
C1333 H1326 0.950 . S
C1333 C1330 1.387 . S
C1334 C1335 1.387 . S
C1334 H1338 0.950 . S
C1334 C1343 1.390 . S
C1335 C1334 1.387 . S
C1335 C1337 1.387 . S
H1336 C1343 0.950 . S
C1337 C1335 1.387 . S
C1337 C1339 1.390 . S
C1337 H1341 0.950 . S
H1338 C1334 0.950 . S
C1339 C1337 1.390 . S
C1339 C1340 1.387 . S
C1339 H1342 0.950 . S
C1340 C1339 1.387 . S
C1340 C1343 1.387 . S
H1341 C1337 0.950 . S
H1342 C1339 0.950 . S
C1343 C1334 1.390 . S
C1343 H1336 0.950 . S
C1343 C1340 1.387 . S
C1344 C1345 1.387 . S
C1344 H1348 0.950 . S
C1344 C1353 1.390 . S
C1345 C1344 1.387 . S
C1345 C1347 1.387 . S
H1346 C1353 0.950 . S
C1347 C1345 1.387 . S
C1347 C1349 1.390 . S
C1347 H1351 0.950 . S
H1348 C1344 0.950 . S
C1349 C1347 1.390 . S
C1349 C1350 1.387 . S
C1349 H1352 0.950 . S
C1350 C1349 1.387 . S
C1350 C1353 1.387 . S
H1351 C1347 0.950 . S
H1352 C1349 0.950 . S
C1353 C1344 1.390 . S
C1353 H1346 0.950 . S
C1353 C1350 1.387 . S
C1354 C1355 1.387 . S
C1354 H1358 0.950 . S
C1354 C1363 1.390 . S
C1355 C1354 1.387 . S
C1355 C1357 1.387 . S
H1356 C1363 0.950 . S
C1357 C1355 1.387 . S
C1357 C1359 1.390 . S
C1357 H1361 0.950 . S
H1358 C1354 0.950 . S
C1359 C1357 1.390 . S
C1359 C1360 1.387 . S
C1359 H1362 0.950 1_565 S
C1360 C1359 1.387 . S
C1360 C1363 1.387 . S
H1361 C1357 0.950 . S
H1362 C1359 0.950 1_545 S
C1363 C1354 1.390 . S
C1363 H1356 0.950 . S
C1363 C1360 1.387 . S
C1364 C1365 1.387 . S
C1364 H1368 0.950 . S
C1364 C1373 1.390 . S
C1365 C1364 1.387 . S
C1365 C1367 1.387 . S
H1366 C1373 0.950 . S
C1367 C1365 1.387 . S
C1367 C1369 1.390 . S
C1367 H1371 0.950 . S
H1368 C1364 0.950 . S
C1369 C1367 1.390 . S
C1369 C1370 1.387 . S
C1369 H1372 0.950 . S
C1370 C1369 1.387 . S
C1370 C1373 1.387 . S
H1371 C1367 0.950 . S
H1372 C1369 0.950 . S
C1373 C1364 1.390 . S
C1373 H1366 0.950 . S
C1373 C1370 1.387 . S
C1374 C1375 1.387 1_556 S
C1374 H1378 0.950 . S
C1374 C1383 1.390 . S
C1375 C1374 1.387 1_554 S
C1375 C1377 1.387 . S
H1376 C1383 0.950 . S
C1377 C1375 1.387 . S
C1377 C1379 1.390 . S
C1377 H1381 0.950 . S
H1378 C1374 0.950 . S
C1379 C1377 1.390 . S
C1379 C1380 1.387 . S
C1379 H1382 0.950 . S
C1380 C1379 1.387 . S
C1380 C1383 1.387 1_554 S
H1381 C1377 0.950 . S
H1382 C1379 0.950 . S
C1383 C1374 1.390 . S
C1383 H1376 0.950 . S
C1383 C1380 1.387 1_556 S
C1384 C1385 1.387 . S
C1384 H1388 0.950 . S
C1384 C1393 1.390 . S
C1385 C1384 1.387 . S
C1385 C1387 1.387 . S
H1386 C1393 0.950 . S
C1387 C1385 1.387 . S
C1387 C1389 1.390 . S
C1387 H1391 0.950 . S
H1388 C1384 0.950 . S
C1389 C1387 1.390 . S
C1389 C1390 1.387 . S
C1389 H1392 0.950 . S
C1390 C1389 1.387 . S
C1390 C1393 1.387 . S
H1391 C1387 0.950 . S
H1392 C1389 0.950 . S
C1393 C1384 1.390 . S
C1393 H1386 0.950 . S
C1393 C1390 1.387 . S
C1394 C1395 1.387 1_556 S
C1394 H1398 0.950 . S
C1394 C1403 1.390 . S
C1395 C1394 1.387 1_554 S
C1395 C1397 1.387 . S
H1396 C1403 0.950 . S
C1397 C1395 1.387 . S
C1397 C1399 1.390 . S
C1397 H1401 0.950 . S
H1398 C1394 0.950 . S
C1399 C1397 1.390 . S
C1399 C1400 1.387 1_554 S
C1399 H1402 0.950 . S
C1400 C1399 1.387 1_556 S
C1400 C1403 1.387 . S
H1401 C1397 0.950 . S
H1402 C1399 0.950 . S
C1403 C1394 1.390 . S
C1403 H1396 0.950 . S
C1403 C1400 1.387 . S
C1404 C1405 1.387 . S
C1404 H1408 0.950 . S
C1404 C1413 1.390 . S
C1405 C1404 1.387 . S
C1405 C1407 1.387 . S
H1406 C1413 0.950 . S
C1407 C1405 1.387 . S
C1407 C1409 1.390 . S
C1407 H1411 0.950 . S
H1408 C1404 0.950 . S
C1409 C1407 1.390 . S
C1409 C1410 1.387 . S
C1409 H1412 0.950 . S
C1410 C1409 1.387 . S
C1410 C1413 1.387 . S
H1411 C1407 0.950 . S
H1412 C1409 0.950 . S
C1413 C1404 1.390 . S
C1413 H1406 0.950 . S
C1413 C1410 1.387 . S
C1414 C1415 1.387 . S
C1414 H1418 0.950 . S
C1414 C1423 1.390 . S
C1415 C1414 1.387 . S
C1415 C1417 1.387 . S
H1416 C1423 0.950 . S
C1417 C1415 1.387 . S
C1417 C1419 1.390 . S
C1417 H1421 0.950 . S
H1418 C1414 0.950 . S
C1419 C1417 1.390 . S
C1419 C1420 1.387 . S
C1419 H1422 0.950 . S
C1420 C1419 1.387 . S
C1420 C1423 1.387 . S
H1421 C1417 0.950 . S
H1422 C1419 0.950 . S
C1423 C1414 1.390 . S
C1423 H1416 0.950 . S
C1423 C1420 1.387 . S
C1424 C1425 1.387 . S
C1424 H1428 0.950 . S
C1424 C1433 1.390 . S
C1425 C1424 1.387 . S
C1425 C1427 1.387 . S
H1426 C1433 0.950 . S
C1427 C1425 1.387 . S
C1427 C1429 1.390 . S
C1427 H1431 0.950 . S
H1428 C1424 0.950 . S
C1429 C1427 1.390 . S
C1429 C1430 1.387 . S
C1429 H1432 0.950 . S
C1430 C1429 1.387 . S
C1430 C1433 1.387 . S
H1431 C1427 0.950 . S
H1432 C1429 0.950 . S
C1433 C1424 1.390 . S
C1433 H1426 0.950 . S
C1433 C1430 1.387 . S
C1434 C1435 1.387 . S
C1434 H1438 0.950 . S
C1434 C1443 1.390 . S
C1435 C1434 1.387 . S
C1435 C1437 1.387 . S
H1436 C1443 0.950 . S
C1437 C1435 1.387 . S
C1437 C1439 1.390 . S
C1437 H1441 0.950 . S
H1438 C1434 0.950 . S
C1439 C1437 1.390 . S
C1439 C1440 1.387 . S
C1439 H1442 0.950 . S
C1440 C1439 1.387 . S
C1440 C1443 1.387 . S
H1441 C1437 0.950 . S
H1442 C1439 0.950 . S
C1443 C1434 1.390 . S
C1443 H1436 0.950 . S
C1443 C1440 1.387 . S
C1444 C1445 1.387 1_655 S
C1444 H1448 0.950 . S
C1444 C1453 1.390 . S
C1445 C1444 1.387 1_455 S
C1445 C1447 1.387 . S
H1446 C1453 0.950 . S
C1447 C1445 1.387 . S
C1447 C1449 1.390 . S
C1447 H1451 0.950 . S
H1448 C1444 0.950 . S
C1449 C1447 1.390 . S
C1449 C1450 1.387 1_455 S
C1449 H1452 0.950 1_556 S
C1450 C1449 1.387 1_655 S
C1450 C1453 1.387 . S
H1451 C1447 0.950 . S
H1452 C1449 0.950 1_554 S
C1453 C1444 1.390 . S
C1453 H1446 0.950 . S
C1453 C1450 1.387 . S
C1454 C1455 1.387 . S
C1454 H1458 0.950 . S
C1454 C1463 1.390 . S
C1455 C1454 1.387 . S
C1455 C1457 1.387 . S
H1456 C1463 0.950 . S
C1457 C1455 1.387 . S
C1457 C1459 1.390 . S
C1457 H1461 0.950 . S
H1458 C1454 0.950 . S
C1459 C1457 1.390 . S
C1459 C1460 1.387 . S
C1459 H1462 0.950 . S
C1460 C1459 1.387 . S
C1460 C1463 1.387 . S
H1461 C1457 0.950 . S
H1462 C1459 0.950 . S
C1463 C1454 1.390 . S
C1463 H1456 0.950 . S
C1463 C1460 1.387 . S
C1464 C1465 1.387 . S
C1464 H1468 0.950 . S
C1464 C1473 1.390 . S
C1465 C1464 1.387 . S
C1465 C1467 1.387 . S
H1466 C1473 0.950 . S
C1467 C1465 1.387 . S
C1467 C1469 1.390 . S
C1467 H1471 0.950 . S
H1468 C1464 0.950 . S
C1469 C1467 1.390 . S
C1469 C1470 1.387 . S
C1469 H1472 0.950 . S
C1470 C1469 1.387 . S
C1470 C1473 1.387 . S
H1471 C1467 0.950 . S
H1472 C1469 0.950 . S
C1473 C1464 1.390 . S
C1473 H1466 0.950 . S
C1473 C1470 1.387 . S
C1474 C1475 1.387 . S
C1474 H1478 0.950 . S
C1474 C1483 1.390 . S
C1475 C1474 1.387 . S
C1475 C1477 1.387 . S
H1476 C1483 0.950 . S
C1477 C1475 1.387 . S
C1477 C1479 1.390 . S
C1477 H1481 0.950 . S
H1478 C1474 0.950 . S
C1479 C1477 1.390 . S
C1479 C1480 1.387 . S
C1479 H1482 0.950 . S
C1480 C1479 1.387 . S
C1480 C1483 1.387 . S
H1481 C1477 0.950 . S
H1482 C1479 0.950 . S
C1483 C1474 1.390 . S
C1483 H1476 0.950 . S
C1483 C1480 1.387 . S
C1484 C1485 1.387 1_655 S
C1484 H1488 0.950 . S
C1484 C1493 1.390 . S
C1485 C1484 1.387 1_455 S
C1485 C1487 1.387 . S
H1486 C1493 0.950 . S
C1487 C1485 1.387 . S
C1487 C1489 1.390 . S
C1487 H1491 0.950 . S
H1488 C1484 0.950 . S
C1489 C1487 1.390 . S
C1489 C1490 1.387 1_455 S
C1489 H1492 0.950 . S
C1490 C1489 1.387 1_655 S
C1490 C1493 1.387 . S
H1491 C1487 0.950 . S
H1492 C1489 0.950 . S
C1493 C1484 1.390 . S
C1493 H1486 0.950 . S
C1493 C1490 1.387 . S
C1494 C1495 1.387 . S
C1494 H1498 0.950 . S
C1494 C1503 1.390 . S
C1495 C1494 1.387 . S
C1495 C1497 1.387 . S
H1496 C1503 0.950 . S
C1497 C1495 1.387 . S
C1497 C1499 1.390 . S
C1497 H1501 0.950 . S
H1498 C1494 0.950 . S
C1499 C1497 1.390 . S
C1499 C1500 1.387 . S
C1499 H1502 0.950 . S
C1500 C1499 1.387 . S
C1500 C1503 1.387 . S
H1501 C1497 0.950 . S
H1502 C1499 0.950 . S
C1503 C1494 1.390 . S
C1503 H1496 0.950 . S
C1503 C1500 1.387 . S
C1504 C1505 1.387 . S
C1504 H1508 0.950 . S
C1504 C1513 1.390 . S
C1505 C1504 1.387 . S
C1505 C1507 1.387 . S
H1506 C1513 0.950 . S
C1507 C1505 1.387 . S
C1507 C1509 1.390 . S
C1507 H1511 0.950 . S
H1508 C1504 0.950 . S
C1509 C1507 1.390 . S
C1509 C1510 1.387 . S
C1509 H1512 0.950 . S
C1510 C1509 1.387 . S
C1510 C1513 1.387 . S
H1511 C1507 0.950 . S
H1512 C1509 0.950 . S
C1513 C1504 1.390 . S
C1513 H1506 0.950 . S
C1513 C1510 1.387 . S
C1514 C1515 1.387 . S
C1514 H1518 0.950 . S
C1514 C1523 1.390 . S
C1515 C1514 1.387 . S
C1515 C1517 1.387 . S
H1516 C1523 0.950 . S
C1517 C1515 1.387 . S
C1517 C1519 1.390 . S
C1517 H1521 0.950 . S
H1518 C1514 0.950 . S
C1519 C1517 1.390 . S
C1519 C1520 1.387 . S
C1519 H1522 0.950 . S
C1520 C1519 1.387 . S
C1520 C1523 1.387 . S
H1521 C1517 0.950 . S
H1522 C1519 0.950 . S
C1523 C1514 1.390 . S
C1523 H1516 0.950 . S
C1523 C1520 1.387 . S
C1524 C1525 1.387 . S
C1524 H1528 0.950 . S
C1524 C1533 1.390 . S
C1525 C1524 1.387 . S
C1525 C1527 1.387 . S
H1526 C1533 0.950 . S
C1527 C1525 1.387 . S
C1527 C1529 1.390 . S
C1527 H1531 0.950 . S
H1528 C1524 0.950 . S
C1529 C1527 1.390 . S
C1529 C1530 1.387 . S
C1529 H1532 0.950 . S
C1530 C1529 1.387 . S
C1530 C1533 1.387 . S
H1531 C1527 0.950 . S
H1532 C1529 0.950 . S
C1533 C1524 1.390 . S
C1533 H1526 0.950 . S
C1533 C1530 1.387 . S
C1534 C1535 1.387 . S
C1534 H1538 0.950 . S
C1534 C1543 1.390 . S
C1535 C1534 1.387 . S
C1535 C1537 1.387 . S
H1536 C1543 0.950 . S
C1537 C1535 1.387 . S
C1537 C1539 1.390 . S
C1537 H1541 0.950 . S
H1538 C1534 0.950 . S
C1539 C1537 1.390 . S
C1539 C1540 1.387 . S
C1539 H1542 0.950 . S
C1540 C1539 1.387 . S
C1540 C1543 1.387 . S
H1541 C1537 0.950 . S
H1542 C1539 0.950 . S
C1543 C1534 1.390 . S
C1543 H1536 0.950 . S
C1543 C1540 1.387 . S
C1544 C1545 1.387 . S
C1544 H1548 0.950 . S
C1544 C1553 1.390 . S
C1545 C1544 1.387 . S
C1545 C1547 1.387 . S
H1546 C1553 0.950 . S
C1547 C1545 1.387 . S
C1547 C1549 1.390 . S
C1547 H1551 0.950 . S
H1548 C1544 0.950 . S
C1549 C1547 1.390 . S
C1549 C1550 1.387 . S
C1549 H1552 0.950 . S
C1550 C1549 1.387 . S
C1550 C1553 1.387 . S
H1551 C1547 0.950 . S
H1552 C1549 0.950 . S
C1553 C1544 1.390 . S
C1553 H1546 0.950 . S
C1553 C1550 1.387 . S
C1554 C1555 1.387 . S
C1554 H1558 0.950 . S
C1554 C1563 1.390 . S
C1555 C1554 1.387 . S
C1555 C1557 1.387 . S
H1556 C1563 0.950 . S
C1557 C1555 1.387 . S
C1557 C1559 1.390 . S
C1557 H1561 0.950 . S
H1558 C1554 0.950 . S
C1559 C1557 1.390 . S
C1559 C1560 1.387 . S
C1559 H1562 0.950 . S
C1560 C1559 1.387 . S
C1560 C1563 1.387 . S
H1561 C1557 0.950 . S
H1562 C1559 0.950 . S
C1563 C1554 1.390 . S
C1563 H1556 0.950 . S
C1563 C1560 1.387 . S
C1564 C1565 1.387 . S
C1564 H1568 0.950 . S
C1564 C1573 1.390 . S
C1565 C1564 1.387 . S
C1565 C1567 1.387 . S
H1566 C1573 0.950 . S
C1567 C1565 1.387 . S
C1567 C1569 1.390 . S
C1567 H1571 0.950 . S
H1568 C1564 0.950 . S
C1569 C1567 1.390 . S
C1569 C1570 1.387 . S
C1569 H1572 0.950 . S
C1570 C1569 1.387 . S
C1570 C1573 1.387 . S
H1571 C1567 0.950 . S
H1572 C1569 0.950 . S
C1573 C1564 1.390 . S
C1573 H1566 0.950 . S
C1573 C1570 1.387 . S
C1574 C1575 1.387 . S
C1574 H1578 0.950 . S
C1574 C1583 1.390 . S
C1575 C1574 1.387 . S
C1575 C1577 1.387 . S
H1576 C1583 0.950 . S
C1577 C1575 1.387 . S
C1577 C1579 1.390 . S
C1577 H1581 0.950 . S
H1578 C1574 0.950 . S
C1579 C1577 1.390 . S
C1579 C1580 1.387 . S
C1579 H1582 0.950 . S
C1580 C1579 1.387 . S
C1580 C1583 1.387 . S
H1581 C1577 0.950 . S
H1582 C1579 0.950 . S
C1583 C1574 1.390 . S
C1583 H1576 0.950 . S
C1583 C1580 1.387 . S
C1584 C1585 1.387 . S
C1584 H1588 0.950 . S
C1584 C1593 1.390 . S
C1585 C1584 1.387 . S
C1585 C1587 1.387 . S
H1586 C1593 0.950 . S
C1587 C1585 1.387 . S
C1587 C1589 1.390 . S
C1587 H1591 0.950 . S
H1588 C1584 0.950 . S
C1589 C1587 1.390 . S
C1589 C1590 1.387 . S
C1589 H1592 0.950 . S
C1590 C1589 1.387 . S
C1590 C1593 1.387 . S
H1591 C1587 0.950 . S
H1592 C1589 0.950 . S
C1593 C1584 1.390 . S
C1593 H1586 0.950 . S
C1593 C1590 1.387 . S
C1594 C1595 1.387 . S
C1594 H1598 0.950 . S
C1594 C1603 1.390 . S
C1595 C1594 1.387 . S
C1595 C1597 1.387 . S
H1596 C1603 0.950 . S
C1597 C1595 1.387 . S
C1597 C1599 1.390 . S
C1597 H1601 0.950 . S
H1598 C1594 0.950 . S
C1599 C1597 1.390 . S
C1599 C1600 1.387 . S
C1599 H1602 0.950 . S
C1600 C1599 1.387 . S
C1600 C1603 1.387 . S
H1601 C1597 0.950 . S
H1602 C1599 0.950 . S
C1603 C1594 1.390 . S
C1603 H1596 0.950 . S
C1603 C1600 1.387 . S
C1604 C1605 1.387 . S
C1604 H1608 0.950 . S
C1604 C1613 1.390 . S
C1605 C1604 1.387 . S
C1605 C1607 1.387 . S
H1606 C1613 0.950 . S
C1607 C1605 1.387 . S
C1607 C1609 1.390 . S
C1607 H1611 0.950 . S
H1608 C1604 0.950 . S
C1609 C1607 1.390 . S
C1609 C1610 1.387 . S
C1609 H1612 0.950 . S
C1610 C1609 1.387 . S
C1610 C1613 1.387 . S
H1611 C1607 0.950 . S
H1612 C1609 0.950 . S
C1613 C1604 1.390 . S
C1613 H1606 0.950 . S
C1613 C1610 1.387 . S
C1614 C1615 1.387 1_554 S
C1614 H1618 0.950 . S
C1614 C1623 1.390 . S
C1615 C1614 1.387 1_556 S
C1615 C1617 1.387 . S
H1616 C1623 0.950 . S
C1617 C1615 1.387 . S
C1617 C1619 1.390 . S
C1617 H1621 0.950 . S
H1618 C1614 0.950 . S
C1619 C1617 1.390 . S
C1619 C1620 1.387 . S
C1619 H1622 0.950 . S
C1620 C1619 1.387 . S
C1620 C1623 1.387 1_556 S
H1621 C1617 0.950 . S
H1622 C1619 0.950 . S
C1623 C1614 1.390 . S
C1623 H1616 0.950 . S
C1623 C1620 1.387 1_554 S
C1624 C1625 1.387 . S
C1624 H1628 0.950 . S
C1624 C1633 1.390 . S
C1625 C1624 1.387 . S
C1625 C1627 1.387 . S
H1626 C1633 0.950 . S
C1627 C1625 1.387 . S
C1627 C1629 1.390 . S
C1627 H1631 0.950 . S
H1628 C1624 0.950 . S
C1629 C1627 1.390 . S
C1629 C1630 1.387 . S
C1629 H1632 0.950 . S
C1630 C1629 1.387 . S
C1630 C1633 1.387 . S
H1631 C1627 0.950 . S
H1632 C1629 0.950 . S
C1633 C1624 1.390 . S
C1633 H1626 0.950 . S
C1633 C1630 1.387 . S
C1634 C1635 1.387 . S
C1634 H1638 0.950 . S
C1634 C1643 1.390 . S
C1635 C1634 1.387 . S
C1635 C1637 1.396 . S
H1636 C1643 0.950 . S
C1637 C1635 1.396 . S
C1637 C1639 1.396 . S
C1637 H1641 0.935 1_554 S
H1638 C1634 0.950 . S
C1639 C1637 1.396 . S
C1639 C1640 1.387 . S
C1639 H1642 0.938 1_554 S
C1640 C1639 1.387 . S
C1640 C1643 1.387 . S
H1641 C1637 0.935 1_556 S
H1642 C1639 0.938 1_556 S
C1643 C1634 1.390 . S
C1643 H1636 0.950 . S
C1643 C1640 1.387 . S
C1644 C1645 1.387 . S
C1644 H1648 0.950 . S
C1644 C1653 1.390 . S
C1645 C1644 1.387 . S
C1645 C1647 1.387 . S
H1646 C1653 0.950 . S
C1647 C1645 1.387 . S
C1647 C1649 1.390 . S
C1647 H1651 0.950 . S
H1648 C1644 0.950 . S
C1649 C1647 1.390 . S
C1649 C1650 1.387 . S
C1649 H1652 0.950 . S
C1650 C1649 1.387 . S
C1650 C1653 1.387 . S
H1651 C1647 0.950 . S
H1652 C1649 0.950 . S
C1653 C1644 1.390 . S
C1653 H1646 0.950 . S
C1653 C1650 1.387 . S
C1654 C1655 1.387 . S
C1654 H1658 0.950 . S
C1654 C1663 1.390 . S
C1655 C1654 1.387 . S
C1655 C1657 1.387 . S
H1656 C1663 0.950 . S
C1657 C1655 1.387 . S
C1657 C1659 1.390 . S
C1657 H1661 0.950 . S
H1658 C1654 0.950 . S
C1659 C1657 1.390 . S
C1659 C1660 1.387 . S
C1659 H1662 0.950 . S
C1660 C1659 1.387 . S
C1660 C1663 1.387 . S
H1661 C1657 0.950 . S
H1662 C1659 0.950 . S
C1663 C1654 1.390 . S
C1663 H1656 0.950 . S
C1663 C1660 1.387 . S
C710 C352 1.209 . S
C705 C4 1.187 . S
C715 C19 1.086 . S
C720 C380 1.320 . S
C725 C39 1.200 . S
C730 C398 1.158 . S
C740 C424 1.302 . S
C735 C54 1.476 . S
C745 C18 1.425 . S
C750 C447 1.329 . S
C760 C467 1.200 . S
C755 C40 1.234 . S
C770 C495 1.307 . S
C765 C53 1.435 . S
C775 C5 0.963 . S
C780 C513 1.186 . S
C785 C61 1.021 . S
C790 C354 1.333 . S
C795 C74 1.186 . S
C800 C376 1.214 . S
C810 C400 1.312 . S
C805 C89 0.998 1_565 S
C820 C421 1.188 . S
C815 C109 1.220 . S
C825 C68 1.193 . S
C830 C444 1.164 . S
C840 C469 1.405 . S
C835 C81 1.402 . S
C850 C491 1.112 . S
C845 C96 1.143 . S
C860 C515 1.458 . S
C855 C102 1.402 . S
C870 C355 1.016 1_556 S
C865 C103 0.889 . S
C880 C538 1.239 . S
C875 C117 1.010 . S
C885 C130 1.152 . S
C890 C562 1.078 . S
C900 C586 1.211 . S
C895 C152 1.231 . S
C905 C60 1.172 . S
C910 C516 1.089 . S
C920 C401 1.038 . S
C915 C82 1.150 . S
C925 C137 1.198 . S
C930 C607 1.196 . S
C940 C632 1.158 . S
C935 C165 1.182 . S
C945 C172 1.248 . S
C950 C353 1.235 . S
C960 C630 1.224 . S
C955 C194 1.208 . S
C965 C207 1.162 . S
C970 C399 1.165 . S
C975 C215 1.107 . S
C980 C609 1.122 . S
C990 C448 1.161 . S
C985 C186 1.228 . S
C1000 C560 1.205 . S
C995 C201 1.096 . S
C1010 C492 1.184 . S
C1005 C221 1.151 . S
C1020 C652 1.206 . S
C1015 C180 1.235 . S
C1030 C357 1.065 . S
C1025 C236 1.180 . S
C1035 C242 1.561 . S
C1040 C628 1.512 . S
C1050 C403 1.129 . S
C1045 C264 1.266 . S
C1055 C277 1.431 . S
C1060 C606 1.438 . S
C1065 C229 1.181 . S
C1070 C445 1.261 . S
C1075 C249 1.191 . S
C1080 C564 1.113 . S
C1090 C490 1.331 . S
C1085 C257 1.261 1_545 S
C1095 C270 1.288 . S
C1100 C656 1.165 . S
C1105 C278 1.383 . S
C1110 C356 1.316 . S
C1115 C292 1.422 . S
C1120 C541 1.292 . S
C1125 C298 1.564 . S
C1130 C471 1.462 . S
C1135 C313 1.282 . S
C1140 C585 1.258 . S
C1150 C655 1.399 . S
C1145 C228 1.482 . S
C1160 C402 1.316 . S
C1155 C243 1.301 . S
C1170 C426 1.226 . S
C1165 C305 1.309 . S
C1180 C378 1.152 . S
C1175 C333 1.251 . S
C1185 C32 1.187 . S
C1190 C674 1.209 . S
C1200 C633 1.321 . S
C1195 C47 1.089 . S
C1210 C697 1.155 . S
C1205 C11 1.200 . S
C1215 C26 1.475 . S
C1220 C608 1.297 . S
C1225 C46 1.424 . S
C1230 C539 1.327 . S
C1240 C559 1.200 . S
C1235 C12 1.234 . S
C1250 C587 1.306 . S
C1245 C25 1.435 . S
C1260 C651 1.183 . S
C1255 C33 0.955 . S
C1270 C676 1.330 . S
C1265 C159 1.020 . S
C1275 C116 1.189 . S
C1280 C629 1.215 . S
C1285 C131 0.998 . S
C1290 C699 1.313 . S
C1300 C605 1.190 . S
C1295 C151 1.220 . S
C1310 C536 1.164 . S
C1305 C166 1.193 . S
C1315 C123 1.402 . S
C1320 C561 1.405 . S
C1330 C583 1.111 . S
C1325 C138 1.142 . S
C1335 C144 1.403 . S
C1340 C653 1.458 . S
C1350 C677 1.016 . S
C1345 C145 0.887 . S
C1360 C446 1.239 . S
C1355 C75 1.011 . S
C1370 C470 1.084 . S
C1365 C88 1.157 . S
C1375 C110 1.232 . S
C1380 C494 1.208 . S
C1390 C654 1.094 . S
C1385 C158 1.175 . S
C1395 C124 1.151 . S
C1400 C700 1.045 . S
C1410 C423 1.197 . S
C1405 C95 1.195 . S
C1420 C379 1.158 . S
C1415 C67 1.182 . S
C1425 C200 1.249 . S
C1430 C675 1.233 . S
C1440 C377 1.225 . S
C1435 C222 1.210 . S
C1450 C698 1.162 . S
C1445 C179 1.160 . S
C1455 C187 1.105 . S
C1460 C425 1.125 . S
C1465 C214 1.228 . S
C1470 C540 1.159 . S
C1475 C173 1.096 . S
C1480 C468 1.205 . S
C1485 C193 1.150 . S
C1490 C584 1.185 . S
C1495 C208 1.235 . S
C1500 C514 1.205 . S
C1510 C679 1.064 . S
C1505 C334 1.179 . S
C1515 C284 1.562 . S
C1520 C375 1.509 . S
C1530 C702 1.127 . S
C1525 C306 1.265 . S
C1535 C319 1.433 . S
C1540 C422 1.440 . S
C1545 C327 1.184 . S
C1550 C537 1.259 . S
C1560 C472 1.113 . S
C1555 C291 1.191 . S
C1565 C299 1.261 . S
C1570 C582 1.331 . S
C1580 C518 1.164 . S
C1575 C312 1.289 . S
C1590 C678 1.317 . S
C1585 C320 1.383 . S
C1600 C449 1.294 . S
C1595 C250 1.423 . S
C1605 C256 1.565 . S
C1610 C563 1.458 . S
C1620 C493 1.259 . S
C1615 C271 1.283 1_556 S
C1630 C517 1.398 . S
C1625 C326 1.482 . S
C1635 C285 1.304 1_554 S
C1640 C701 1.314 . S
C1650 C610 1.227 . S
C1645 C263 1.309 . S
C1660 C631 1.151 . S
C1655 C235 1.251 . S
