# Generated by pormake.
# Topology rtl, (3,6)-cn, num edge types: 1
# Building blocks:
#     Node 0, Type 0, BuildingBlock: WUSLED_clean_sbu_0, # of connection points: 3
#     Node 1, Type 0, BuildingBlock: WUSLED_clean_sbu_0, # of connection points: 3
#     Node 2, Type 0, BuildingBlock: WUSLED_clean_sbu_0, # of connection points: 3
#     Node 3, Type 0, BuildingBlock: WUSLED_clean_sbu_0, # of connection points: 3
#     Node 4, Type 1, BuildingBlock: KUMBOL_clean_sbu_1, # of connection points: 6
#     Node 5, Type 1, BuildingBlock: KUMBOL_clean_sbu_1, # of connection points: 6
#     Edge 6, Type (0, 1), BuildingBlock: XUDNAN_clean_linker_2, # of connection points: 2
#     Edge 7, Type (0, 1), BuildingBlock: XUDNAN_clean_linker_2, # of connection points: 2
#     Edge 8, Type (0, 1), BuildingBlock: XUDNAN_clean_linker_2, # of connection points: 2
#     Edge 9, Type (0, 1), BuildingBlock: XUDNAN_clean_linker_2, # of connection points: 2
#     Edge 10, Type (0, 1), BuildingBlock: XUDNAN_clean_linker_2, # of connection points: 2
#     Edge 11, Type (0, 1), BuildingBlock: XUDNAN_clean_linker_2, # of connection points: 2
#     Edge 12, Type (0, 1), BuildingBlock: XUDNAN_clean_linker_2, # of connection points: 2
#     Edge 13, Type (0, 1), BuildingBlock: XUDNAN_clean_linker_2, # of connection points: 2
#     Edge 14, Type (0, 1), BuildingBlock: XUDNAN_clean_linker_2, # of connection points: 2
#     Edge 15, Type (0, 1), BuildingBlock: XUDNAN_clean_linker_2, # of connection points: 2
#     Edge 16, Type (0, 1), BuildingBlock: XUDNAN_clean_linker_2, # of connection points: 2
#     Edge 17, Type (0, 1), BuildingBlock: XUDNAN_clean_linker_2, # of connection points: 2
# Relax obj value: 0.016
# Max RMSD: 0.102
# Mean RMSD: 0.058
data_MOF--net-rtl--node1-WUSLED_clean_sbu_0--node2-KUMBOL_clean_sbu_1--edge1-XUDNAN_clean_linker_2
_symmetry_space_group_name_H-M    P1
_symmetry_Int_Tables_number       1
_symmetry_cell_setting            triclinic
loop_
_symmetry_equiv_pos_as_xyz
'x, y, z'
_cell_length_a     42.258879
_cell_length_b     42.884018
_cell_length_c     36.493967
_cell_angle_alpha  81.12806
_cell_angle_beta   98.933335
_cell_angle_gamma 91.022576
loop_
_atom_site_label
_atom_site_type_symbol
_atom_site_fract_x
_atom_site_fract_y
_atom_site_fract_z
_atom_type_partial_charge
C0 C 0.19396 0.83675 0.12098 0.0
C1 C 0.20135 0.86825 0.12518 0.0
C2 C 0.17032 0.86495 0.17664 0.0
C3 C 0.1897 0.88214 0.15274 0.0
C4 C 0.16243 0.83366 0.17194 0.0
C5 C 0.17427 0.81969 0.14455 0.0
U6 U 0.20428 0.82689 0.02043 0.0
O7 O 0.2477 0.81842 0.9972 0.0
O8 O 0.20906 0.7835 0.99605 0.0
C9 C 0.23863 0.79007 0.99052 0.0
C10 C 0.20775 0.82088 0.09367 0.0
C11 C 0.26247 0.76443 1.00413 0.0
C12 C 0.31129 0.74332 0.04404 0.0
C13 C 0.2881 0.76719 0.03297 0.0
C14 C 0.28321 0.71312 0.99838 0.0
C15 C 0.30926 0.71599 0.02681 0.0
C16 C 0.26016 0.73713 0.98711 0.0
C17 C 0.15923 0.88373 0.93738 0.0
C18 C 0.14665 0.87713 0.8716 0.0
C19 C 0.14866 0.92952 0.88889 0.0
C20 C 0.15619 0.91649 0.92669 0.0
C21 C 0.14389 0.91004 0.86087 0.0
C22 C 0.15445 0.86406 0.90956 0.0
C23 C 0.16736 0.87104 0.97764 0.0
O24 O 0.18772 0.80464 0.07269 0.0
O25 O 0.22843 0.83714 0.07501 0.0
O26 O 0.19681 0.87621 0.99309 0.0
O27 O 0.15717 0.84249 0.98872 0.0
H28 H 0.21642 0.88216 0.10751 0.0
H29 H 0.19588 0.90641 0.15533 0.0
H30 H 0.14781 0.81968 0.19014 0.0
H31 H 0.16841 0.79531 0.14215 0.0
H32 H 0.33119 0.74667 0.06562 0.0
H33 H 0.29051 0.78798 0.04667 0.0
H34 H 0.28049 0.69224 0.98488 0.0
H35 H 0.24057 0.73446 0.96487 0.0
H36 H 0.14333 0.86156 0.85062 0.0
H37 H 0.14626 0.95492 0.88161 0.0
H38 H 0.15965 0.93206 0.9477 0.0
H39 H 0.15683 0.83869 0.9171 0.0
C40 C 0.66051 0.654 0.70467 0.0
C41 C 0.6456 0.62493 0.71339 0.0
C42 C 0.63688 0.63817 0.77374 0.0
C43 C 0.63391 0.61708 0.74744 0.0
C44 C 0.65252 0.66714 0.7652 0.0
C45 C 0.66422 0.675 0.73097 0.0
U46 U 0.70637 0.70133 0.62908 0.0
O47 O 0.71128 0.74883 0.64509 0.0
O48 O 0.75143 0.71541 0.66147 0.0
C49 C 0.74187 0.74478 0.65876 0.0
C50 C 0.6703 0.66209 0.66723 0.0
C51 C 0.76373 0.76899 0.64338 0.0
C52 C 0.81173 0.80113 0.65202 0.0
C53 C 0.79005 0.77934 0.66684 0.0
C54 C 0.78066 0.80296 0.59017 0.0
C55 C 0.80753 0.81301 0.61336 0.0
C56 C 0.75918 0.7811 0.60493 0.0
C57 C 0.69582 0.68012 0.52728 0.0
C58 C 0.70494 0.66209 0.46983 0.0
C59 C 0.6522 0.65721 0.48818 0.0
C60 C 0.66371 0.67052 0.52054 0.0
C61 C 0.67257 0.65363 0.462 0.0
C62 C 0.71637 0.67517 0.50204 0.0
C63 C 0.70834 0.69771 0.55818 0.0
O64 O 0.70012 0.6558 0.66461 0.0
O65 O 0.6599 0.68925 0.64748 0.0
O66 O 0.68817 0.71599 0.56915 0.0
O67 O 0.72854 0.68262 0.58602 0.0
H68 H 0.64233 0.60846 0.6934 0.0
H69 H 0.6216 0.59484 0.75255 0.0
H70 H 0.65562 0.68383 0.7849 0.0
H71 H 0.67572 0.69757 0.72482 0.0
H72 H 0.83226 0.80797 0.67072 0.0
H73 H 0.79414 0.77016 0.69656 0.0
H74 H 0.77618 0.81193 0.56042 0.0
H75 H 0.73913 0.77343 0.58617 0.0
H76 H 0.72137 0.65914 0.45058 0.0
H77 H 0.62715 0.65092 0.48288 0.0
H78 H 0.64737 0.6741 0.53966 0.0
H79 H 0.74122 0.68233 0.50668 0.0
C80 C 0.84194 0.15662 0.16225 0.0
C81 C 0.87378 0.14963 0.15956 0.0
C82 C 0.88235 0.12389 0.22459 0.0
C83 C 0.89384 0.13361 0.19053 0.0
C84 C 0.84999 0.12929 0.22659 0.0
C85 C 0.82999 0.1457 0.19567 0.0
U86 U 0.81517 0.1853 0.05788 0.0
O87 O 0.76801 0.20139 0.02648 0.0
O88 O 0.80895 0.2337 0.02739 0.0
C89 C 0.77794 0.23046 0.01763 0.0
C90 C 0.82176 0.17692 0.13142 0.0
C91 C 0.75761 0.25666 0.02314 0.0
C92 C 0.70914 0.27673 0.04033 0.0
C93 C 0.72934 0.25139 0.0391 0.0
C94 C 0.74565 0.31293 1.01093 0.0
C95 C 0.71673 0.30771 0.02542 0.0
C96 C 0.76572 0.28774 1.00967 0.0
C97 C 0.85422 0.14564 0.98717 0.0
C98 C 0.87451 0.16518 0.929 0.0
C99 C 0.85868 0.11055 0.94172 0.0
C100 C 0.85032 0.11579 0.9759 0.0
C101 C 0.87142 0.13504 0.91808 0.0
C102 C 0.86597 0.17045 0.96312 0.0
C103 C 0.84836 0.14949 0.0252 0.0
O104 O 0.83717 0.19864 0.11167 0.0
O105 O 0.7996 0.16263 0.11067 0.0
O106 O 0.81971 0.14193 0.03341 0.0
O107 O 0.85984 0.17505 0.03817 0.0
H108 H 0.88348 0.15746 0.13391 0.0
H109 H 0.91861 0.12948 0.18816 0.0
H110 H 0.8406 0.12222 0.25258 0.0
H111 H 0.80548 0.15077 0.19827 0.0
H112 H 0.68695 0.27192 0.05147 0.0
H113 H 0.72237 0.2277 0.04972 0.0
H114 H 0.75249 0.33653 0.99977 0.0
H115 H 0.7873 0.29252 0.9972 0.0
H116 H 0.88455 0.18454 0.91181 0.0
H117 H 0.8554 0.08719 0.934 0.0
H118 H 0.84138 0.09626 0.99396 0.0
H119 H 0.86935 0.19375 0.97102 0.0
C120 C 0.35388 0.34875 0.36406 0.0
C121 C 0.38746 0.34955 0.37273 0.0
C122 C 0.39106 0.3812 0.31172 0.0
C123 C 0.40578 0.36541 0.34685 0.0
C124 C 0.35739 0.38038 0.30322 0.0
C125 C 0.33909 0.36429 0.32903 0.0
U126 U 0.33009 0.32981 0.46239 0.0
O127 O 0.28248 0.32307 0.48023 0.0
O128 O 0.3183 0.28493 0.49528 0.0
C129 C 0.28883 0.29378 0.49624 0.0
C130 C 0.33398 0.33173 0.39084 0.0
C131 C 0.26325 0.27026 0.49015 0.0
C132 C 0.24279 0.22229 0.46711 0.0
C133 C 0.26609 0.24593 0.46912 0.0
C134 C 0.21318 0.24725 0.50648 0.0
C135 C 0.21614 0.22246 0.48607 0.0
C136 C 0.23647 0.27082 0.50849 0.0
C137 C 0.37453 0.37188 0.54064 0.0
C138 C 0.36024 0.36642 0.60336 0.0
C139 C 0.40506 0.39919 0.58801 0.0
C140 C 0.39972 0.39178 0.55156 0.0
C141 C 0.38524 0.38683 0.61432 0.0
C142 C 0.35492 0.35903 0.5668 0.0
C143 C 0.36877 0.36539 0.5017 0.0
O144 O 0.34866 0.31032 0.41751 0.0
O145 O 0.31373 0.34917 0.40293 0.0
O146 O 0.34112 0.37535 0.482 0.0
O147 O 0.37648 0.33691 0.4969 0.0
H148 H 0.39966 0.33782 0.39947 0.0
H149 H 0.43159 0.36493 0.35434 0.0
H150 H 0.34505 0.39256 0.27681 0.0
H151 H 0.31325 0.36409 0.32165 0.0
H152 H 0.24611 0.20343 0.45145 0.0
H153 H 0.2866 0.2448 0.45488 0.0
H154 H 0.19281 0.24851 0.52091 0.0
H155 H 0.23383 0.28928 0.52502 0.0
H156 H 0.34432 0.35674 0.62274 0.0
H157 H 0.42481 0.41457 0.5956 0.0
H158 H 0.41519 0.40181 0.53177 0.0
H159 H 0.3353 0.34362 0.55881 0.0
C160 C 0.96825 0.10656 0.51107 0.0
C161 C 0.91702 0.09622 0.47476 0.0
C162 C 0.94396 0.08565 0.50147 0.0
C163 C 0.91487 0.128 0.45788 0.0
C164 C 0.96616 0.13849 0.49421 0.0
C165 C 0.93935 0.14907 0.4676 0.0
N166 N 0.99419 0.09556 0.53639 0.0
C167 C 0.01851 0.11528 0.54675 0.0
C168 C 0.99121 0.15879 0.50439 0.0
C169 C 0.01745 0.14714 0.53087 0.0
Gd170 Gd 0.0414 0.97588 0.5193 0.0
Gd171 Gd 0.99485 0.04145 0.55971 0.0
N172 N 0.94726 0.05474 0.51737 0.0
C173 C 0.89309 0.0745 0.46569 0.0
C174 C 0.92326 0.03385 0.50989 0.0
C175 C 0.89609 0.04328 0.48362 0.0
H176 H 0.92463 0.00999 0.52419 0.0
H177 H 0.87739 0.02646 0.47736 0.0
H178 H 0.11209 0.01613 0.52357 0.0
H179 H 0.03851 0.1065 0.56777 0.0
H180 H 0.16469 0.01251 0.56311 0.0
H181 H 0.87206 0.08167 0.44525 0.0
H182 H 0.89439 0.13651 0.43724 0.0
H183 H 1.0036 0.90922 0.54564 0.0
H184 H 0.99049 0.18347 0.49205 0.0
H185 H 0.03681 0.16269 0.53914 0.0
H186 H 0.16247 0.91388 0.64464 0.0
H187 H 0.93736 0.1735 0.45428 0.0
H188 H 0.06722 0.85176 0.63142 0.0
H189 H 0.01439 0.86008 0.59109 0.0
N190 N 0.04941 0.92856 0.56102 0.0
C191 C 0.0789 0.92424 0.58223 0.0
C192 C 0.02651 0.90587 0.56351 0.0
C193 C 0.06257 0.87334 0.61159 0.0
C194 C 0.03266 0.87799 0.58898 0.0
C195 C 0.08614 0.89656 0.60839 0.0
H196 H 0.12247 0.87186 0.65084 0.0
N197 N 0.09368 0.97486 0.55343 0.0
C198 C 0.10149 0.94815 0.57864 0.0
C199 C 0.15453 0.96843 0.59605 0.0
C200 C 0.13198 0.9445 0.601 0.0
C201 C 0.11653 0.99699 0.54652 0.0
C202 C 0.14693 0.99453 0.56828 0.0
O203 O 0.99438 0.04843 0.49719 0.0
O204 O 0.99842 0.99909 0.4803 0.0
O205 O 0.0707 0.97537 0.47538 0.0
O206 O 0.0393 0.93636 0.48827 0.0
O207 O 0.97557 0.99085 0.56567 0.0
O208 O 0.98848 0.9685 0.51598 0.0
O209 O 0.03631 0.97147 0.5811 0.0
O210 O 0.04161 0.0222 0.59225 0.0
O211 O 0.96627 0.02789 0.60415 0.0
O212 O 0.98946 0.07325 0.5994 0.0
O213 O 0.05575 0.02703 0.5057 0.0
O214 O 0.04759 0.05063 0.55642 0.0
C215 C 0.99152 0.02934 0.47212 0.0
C216 C 0.97131 0.96939 0.54292 0.0
C217 C 0.04736 0.94982 0.42525 0.0
C218 C 0.05846 0.94179 0.36354 0.0
C219 C 1.00592 0.96016 0.37078 0.0
C220 C 0.01601 0.95935 0.40919 0.0
C221 C 0.02691 0.95143 0.34806 0.0
C222 C 0.06849 0.94113 0.40236 0.0
C223 C 0.05843 0.94926 0.46566 0.0
C224 C 0.1392 0.91699 0.62718 0.0
C225 C 0.11642 0.89304 0.63071 0.0
H226 H 0.17818 0.96653 0.61271 0.0
C227 C 0.04759 0.99208 0.60274 0.0
C228 C 0.06077 0.05013 0.52595 0.0
C229 C 0.98212 0.04931 0.65999 0.0
C230 C 0.97318 0.06075 0.72129 0.0
C231 C 0.01814 0.02766 0.71617 0.0
C232 C 1.00907 0.0311 0.67733 0.0
C233 C 1.00048 0.04243 0.73803 0.0
C234 C 0.96418 0.06394 0.68199 0.0
C235 C 0.9726 0.0535 0.61899 0.0
H236 H 0.98175 0.96767 0.35856 0.0
H237 H 0.99931 0.96609 0.42628 0.0
H238 H 0.01858 0.95266 0.31826 0.0
H239 H 0.09261 0.93355 0.4149 0.0
H240 H 0.03909 0.01366 0.72934 0.0
H241 H 0.02308 0.01966 0.66086 0.0
H242 H 1.00856 0.03987 0.76798 0.0
H243 H 0.94308 0.07756 0.6684 0.0
C244 C 0.60868 0.55302 0.03706 0.0
C245 C 0.60117 0.60945 0.01719 0.0
C246 C 0.591 0.58033 0.03505 0.0
C247 C 0.62855 0.61042 0.99961 0.0
C248 C 0.63714 0.55423 0.02119 0.0
C249 C 0.64644 0.58284 1.0015 0.0
N250 N 0.59921 0.52579 0.05668 0.0
C251 C 0.6195 0.50039 0.06593 0.0
C252 C 0.65609 0.52696 0.02693 0.0
C253 C 0.64763 0.50016 0.0502 0.0
Gd254 Gd 0.48143 0.49113 1.00501 0.0
Gd255 Gd 0.54963 0.52814 0.07835 0.0
N256 N 0.56395 0.57846 0.05107 0.0
C257 C 0.58361 0.63672 0.01782 0.0
C258 C 0.54764 0.60507 0.05357 0.0
C259 C 0.557 0.63456 0.03657 0.0
H260 H 0.527 0.60327 0.06794 0.0
H261 H 0.54363 0.65557 0.03776 0.0
H262 H 0.52225 0.42975 0.9853 0.0
H263 H 0.61423 0.48023 0.08562 0.0
H264 H 0.5216 0.37183 0.9979 0.0
H265 H 0.59066 0.65955 1.00442 0.0
H266 H 0.63644 0.63247 0.98513 0.0
H267 H 0.41275 0.51541 0.02407 0.0
H268 H 0.67807 0.52686 0.0151 0.0
H269 H 0.66298 0.47948 0.05652 0.0
H270 H 0.42595 0.34774 0.05184 0.0
H271 H 0.66799 0.58411 0.98868 0.0
H272 H 0.35846 0.43421 0.06029 0.0
H273 H 0.3636 0.49224 0.046 0.0
N274 N 0.43533 0.47096 0.02769 0.0
C275 C 0.43264 0.4391 0.03416 0.0
C276 C 0.41074 0.49009 0.03083 0.0
C277 C 0.38008 0.44427 0.05098 0.0
C278 C 0.38291 0.47705 0.04301 0.0
C279 C 0.40502 0.42484 0.0464 0.0
H280 H 0.38218 0.38039 0.06308 0.0
N281 N 0.48236 0.43549 1.01302 0.0
C282 C 0.45722 0.42082 0.02745 0.0
C283 C 0.47902 0.36986 0.0238 0.0
C284 C 0.45489 0.3876 0.03328 0.0
C285 C 0.5044 0.41829 1.00075 0.0
C286 C 0.50362 0.3853 1.00693 0.0
O287 O 0.53104 0.55339 0.01947 0.0
O288 O 0.5255 0.51352 0.9846 0.0
O289 O 0.46125 0.47386 0.95291 0.0
O290 O 0.45385 0.52292 0.95971 0.0
O291 O 0.49904 0.545 0.07743 0.0
O292 O 0.47004 0.53909 0.01891 0.0
O293 O 0.47464 0.48502 0.0665 0.0
O294 O 0.52651 0.48179 0.09714 0.0
O295 O 0.54205 0.54466 0.13008 0.0
O296 O 0.58952 0.53235 0.12249 0.0
O297 O 0.53363 0.47836 1.00892 0.0
O298 O 0.55663 0.47701 0.07066 0.0
C299 C 0.53411 0.54244 0.98857 0.0
C300 C 0.47454 0.55173 0.05016 0.0
C301 C 0.42978 0.50763 0.90002 0.0
C302 C 0.41147 0.49261 0.83808 0.0
C303 C 0.39558 0.54309 0.85245 0.0
C304 C 0.41299 0.53632 0.88846 0.0
C305 C 0.39481 0.52151 0.82741 0.0
C306 C 0.42876 0.48569 0.87474 0.0
C307 C 0.44868 0.50126 0.93811 0.0
C308 C 0.42803 0.37322 0.04699 0.0
C309 C 0.40306 0.39179 0.05328 0.0
H310 H 0.47816 0.3443 0.02796 0.0
C311 C 0.49559 0.4779 0.0973 0.0
C312 C 0.55438 0.46647 0.03824 0.0
C313 C 0.58028 0.53004 0.18507 0.0
C314 C 0.59663 0.54109 0.24923 0.0
C315 C 0.59379 0.48694 0.2363 0.0
C316 C 0.58468 0.49768 0.19803 0.0
C317 C 0.59985 0.50841 0.26175 0.0
C318 C 0.58608 0.55157 0.21073 0.0
C319 C 0.57214 0.5423 0.14473 0.0
H320 H 0.38262 0.56522 0.84388 0.0
H321 H 0.41327 0.55358 0.90728 0.0
H322 H 0.38083 0.52732 0.79974 0.0
H323 H 0.44194 0.46365 0.88325 0.0
H324 H 0.59696 0.4619 0.24618 0.0
H325 H 0.58126 0.48078 0.17857 0.0
H326 H 0.60822 0.4994 0.29097 0.0
H327 H 0.583 0.57659 0.20042 0.0
H328 H 0.18478 0.19333 0.54328 0.0
H329 H 0.19191 0.19342 0.4258 0.0
H330 H 0.15261 0.15032 0.42356 0.0
H331 H 0.1775 0.11004 0.56851 0.0
H332 H 0.14882 0.11256 0.59972 0.0
H333 H 0.17712 0.14391 0.59221 0.0
H334 H 0.13038 0.18425 0.57215 0.0
H335 H 0.10186 0.153 0.57936 0.0
H336 H 0.09895 0.1781 0.53455 0.0
H337 H 0.11374 0.10658 0.43404 0.0
H338 H 0.07732 0.06507 0.45627 0.0
H339 H 0.09407 0.0931 0.56701 0.0
C340 C 0.17781 0.1846 0.51692 0.0
C341 C 0.19169 0.19685 0.4847 0.0
C342 C 0.18215 0.18424 0.45101 0.0
C343 C 0.15962 0.15986 0.44937 0.0
C344 C 0.14662 0.1483 0.4816 0.0
C345 C 0.15524 0.16025 0.51474 0.0
C346 C 0.13787 0.14317 0.54543 0.0
C347 C 0.16176 0.12643 0.57841 0.0
C348 C 0.11597 0.166 0.55865 0.0
C349 C 0.1184 0.11956 0.52442 0.0
C350 C 0.1238 0.12309 0.48761 0.0
C351 C 0.10918 0.10374 0.46274 0.0
C352 C 0.08851 0.08014 0.47574 0.0
C353 C 0.08239 0.07598 0.51332 0.0
C354 C 0.09766 0.09604 0.53795 0.0
H355 H 0.33444 0.67992 0.98168 0.0
H356 H 0.34121 0.69487 0.0977 0.0
H357 H 0.38416 0.65478 0.11614 0.0
H358 H 0.34641 0.59496 1.00246 0.0
H359 H 0.36925 0.59397 0.96485 0.0
H360 H 0.3391 0.62401 0.96071 0.0
H361 H 0.38143 0.66728 0.94834 0.0
H362 H 0.41169 0.63735 0.95259 0.0
H363 H 0.41757 0.6679 0.98177 0.0
H364 H 0.42749 0.61399 0.1218 0.0
H365 H 0.46644 0.57402 0.11458 0.0
H366 H 0.42959 0.58387 0.99542 0.0
C367 C 0.34456 0.67453 1.01108 0.0
C368 C 0.33441 0.69085 0.03816 0.0
C369 C 0.34886 0.68324 0.07623 0.0
C370 C 0.37316 0.66031 0.08707 0.0
C371 C 0.38267 0.6449 0.05962 0.0
C372 C 0.36866 0.65151 0.02245 0.0
C373 C 0.38325 0.6315 0.99849 0.0
C374 C 0.35799 0.60982 0.98058 0.0
C375 C 0.39945 0.65225 0.96854 0.0
C376 C 0.40773 0.61271 0.02798 0.0
C377 C 0.4071 0.62088 0.06303 0.0
C378 C 0.42806 0.60727 0.09452 0.0
C379 C 0.45018 0.58464 0.0901 0.0
C380 C 0.45107 0.57567 0.05447 0.0
C381 C 0.42941 0.58995 0.02311 0.0
H382 H 0.84151 0.86187 0.64316 0.0
H383 H 0.82873 0.813 0.54612 0.0
H384 H 0.86739 0.84865 0.51755 0.0
H385 H 0.85045 0.94022 0.59324 0.0
H386 H 0.88111 0.95182 0.62862 0.0
H387 H 0.85179 0.92291 0.64174 0.0
H388 H 0.89718 0.88329 0.67316 0.0
H389 H 0.92661 0.91216 0.66029 0.0
H390 H 0.92699 0.8737 0.64622 0.0
H391 H 0.9074 0.88887 0.49917 0.0
H392 H 0.94773 0.93051 0.49272 0.0
H393 H 0.93674 0.95358 0.60191 0.0
C394 C 0.84695 0.85852 0.616 0.0
C395 C 0.83154 0.83469 0.59678 0.0
C396 C 0.83941 0.83141 0.56115 0.0
C397 C 0.86159 0.85145 0.54472 0.0
C398 C 0.87603 0.87474 0.5642 0.0
C399 C 0.86923 0.87836 0.59912 0.0
C400 C 0.88871 0.90514 0.6141 0.0
C401 C 0.86669 0.93159 0.61975 0.0
C402 C 0.91121 0.89283 0.65061 0.0
C403 C 0.90746 0.9159 0.58212 0.0
C404 C 0.89963 0.89798 0.55367 0.0
C405 C 0.91376 0.90304 0.52129 0.0
C406 C 0.93673 0.92683 0.51793 0.0
C407 C 0.94562 0.94541 0.54682 0.0
C408 C 0.93046 0.93994 0.57924 0.0
H409 H 0.68067 0.32245 0.07799 0.0
H410 H 0.70012 0.35274 0.96454 0.0
H411 H 0.66222 0.39692 0.95713 0.0
H412 H 0.59615 0.34056 0.05841 0.0
H413 H 0.59483 0.35457 0.10225 0.0
H414 H 0.62417 0.32538 0.09953 0.0
H415 H 0.66956 0.3615 0.12495 0.0
H416 H 0.64028 0.39077 0.12766 0.0
H417 H 0.67252 0.4013 0.10116 0.0
H418 H 0.6215 0.43631 0.96029 0.0
H419 H 0.58001 0.47009 0.97434 0.0
H420 H 0.5862 0.41648 0.08628 0.0
C421 C 0.67689 0.3384 0.05163 0.0
C422 C 0.69369 0.33427 0.02196 0.0
C423 C 0.68809 0.35571 0.98792 0.0
C424 C 0.66645 0.38081 0.98333 0.0
C425 C 0.65049 0.38434 1.01304 0.0
C426 C 0.65537 0.36389 0.04659 0.0
C427 C 0.63468 0.37327 0.07377 0.0
C428 C 0.61106 0.34687 0.08409 0.0
C429 C 0.65551 0.38224 0.10897 0.0
C430 C 0.6173 0.40194 0.05001 0.0
C431 C 0.6269 0.40772 0.01508 0.0
C432 C 0.61387 0.43214 0.98758 0.0
C433 C 0.59022 0.45115 0.99582 0.0
C434 C 0.57993 0.44593 0.03139 0.0
C435 C 0.59385 0.42111 0.05898 0.0
H436 H 0.11031 0.86181 0.19747 0.0
H437 H 0.20517 0.90045 0.22463 0.0
H438 H 0.18708 0.92407 0.27547 0.0
H439 H 0.06649 0.92816 0.21399 0.0
H440 H 0.03602 0.90429 0.23392 0.0
H441 H 0.05646 0.89032 0.19975 0.0
H442 H 0.07308 0.83924 0.24634 0.0
H443 H 0.05266 0.85305 0.28064 0.0
H444 H 0.09443 0.84217 0.29245 0.0
H445 H 0.1588 0.94302 0.32392 0.0
H446 H 0.12189 0.95729 0.36504 0.0
H447 H 0.04559 0.906 0.30659 0.0
C448 C 0.12733 0.87509 0.21426 0.0
C449 C 0.15917 0.87932 0.20701 0.0
C450 C 0.18057 0.89721 0.22934 0.0
C451 C 0.17057 0.91056 0.25843 0.0
C452 C 0.13905 0.90593 0.26482 0.0
C453 C 0.1177 0.88873 0.24329 0.0
C454 C 0.08503 0.88762 0.25567 0.0
C455 C 0.0595 0.90355 0.22394 0.0
C456 C 0.07577 0.85349 0.26961 0.0
C457 C 0.09139 0.90675 0.28763 0.0
C458 C 0.12271 0.91704 0.29252 0.0
C459 C 0.13422 0.93506 0.32038 0.0
C460 C 0.11313 0.94288 0.34376 0.0
C461 C 0.08083 0.93277 0.33913 0.0
C462 C 0.07001 0.9144 0.31064 0.0
H463 H 0.63464 0.5803 0.81885 0.0
H464 H 0.60529 0.67823 0.80806 0.0
H465 H 0.57777 0.66487 0.86327 0.0
H466 H 0.56225 0.54661 0.84206 0.0
H467 H 0.5808 0.51412 0.8753 0.0
H468 H 0.60076 0.53174 0.83713 0.0
H469 H 0.6507 0.54203 0.88453 0.0
H470 H 0.63089 0.52457 0.923 0.0
H471 H 0.64642 0.56406 0.92176 0.0
H472 H 0.55042 0.64017 0.91763 0.0
H473 H 0.52651 0.60606 0.96723 0.0
H474 H 0.57242 0.52427 0.94152 0.0
C475 C 0.62254 0.59903 0.82809 0.0
C476 C 0.62232 0.63043 0.80892 0.0
C477 C 0.60638 0.65414 0.82243 0.0
C478 C 0.59046 0.64673 0.85371 0.0
C479 C 0.59069 0.61549 0.87142 0.0
C480 C 0.60649 0.59204 0.85924 0.0
C481 C 0.60219 0.56013 0.88243 0.0
C482 C 0.5855 0.53678 0.85775 0.0
C483 C 0.63447 0.54692 0.90422 0.0
C484 C 0.58074 0.56914 0.9088 0.0
C485 C 0.57468 0.60125 0.90234 0.0
C486 C 0.55519 0.61504 0.92302 0.0
C487 C 0.54172 0.59553 0.95112 0.0
C488 C 0.54775 0.56263 0.95825 0.0
C489 C 0.56733 0.54934 0.93658 0.0
H490 H 0.87578 0.0707 0.27615 0.0
H491 H 0.93922 0.14903 0.25061 0.0
H492 H 0.97573 0.13083 0.30929 0.0
H493 H 0.88452 0.07093 0.37424 0.0
H494 H 0.88449 0.02866 0.38719 0.0
H495 H 0.86384 0.04658 0.34215 0.0
H496 H 0.89681 0.01214 0.30911 0.0
H497 H 0.91767 0.99408 0.35406 0.0
H498 H 0.93995 0.01298 0.31858 0.0
H499 H 1.00181 0.10841 0.37305 0.0
H500 H 0.01891 0.07988 0.43693 0.0
H501 H 0.942 0.01288 0.42046 0.0
C502 C 0.89755 0.08374 0.28285 0.0
C503 C 0.90484 0.11117 0.25879 0.0
C504 C 0.93346 0.12772 0.2684 0.0
C505 C 0.95426 0.11764 0.30171 0.0
C506 C 0.94637 0.09067 0.3249 0.0
C507 C 0.91897 0.07364 0.31583 0.0
C508 C 0.91614 0.04571 0.34627 0.0
C509 C 0.88542 0.04813 0.36347 0.0
C510 C 0.91774 0.01437 0.33109 0.0
C511 C 0.94579 0.05025 0.37417 0.0
C512 C 0.96271 0.07649 0.36121 0.0
C513 C 0.98931 0.08735 0.38311 0.0
C514 C 0.99886 0.07102 0.41925 0.0
C515 C 0.98231 0.04381 0.43285 0.0
C516 C 0.95562 0.03304 0.40999 0.0
H517 H 0.39982 0.44538 0.63361 0.0
H518 H 0.38155 0.34903 0.68179 0.0
H519 H 0.38888 0.36473 0.74502 0.0
H520 H 0.46121 0.46211 0.70967 0.0
H521 H 0.44803 0.50236 0.70616 0.0
H522 H 0.4425 0.48307 0.66514 0.0
H523 H 0.38168 0.49553 0.65467 0.0
H524 H 0.387 0.51483 0.69561 0.0
H525 H 0.35879 0.483 0.69206 0.0
H526 H 0.39721 0.39182 0.80331 0.0
H527 H 0.40327 0.42821 0.85045 0.0
H528 H 0.41689 0.50618 0.76343 0.0
C529 C 0.39784 0.42741 0.65747 0.0
C530 C 0.39022 0.3959 0.65265 0.0
C531 C 0.38711 0.37336 0.68466 0.0
C532 C 0.39147 0.38201 0.72074 0.0
C533 C 0.39896 0.4133 0.72441 0.0
C534 C 0.40208 0.43562 0.69355 0.0
C535 C 0.40916 0.4679 0.70469 0.0
C536 C 0.44219 0.47953 0.69589 0.0
C537 C 0.38257 0.4917 0.68563 0.0
C538 C 0.40909 0.46043 0.74658 0.0
C539 C 0.40347 0.42879 0.75759 0.0
C540 C 0.40177 0.41661 0.79497 0.0
C541 C 0.40542 0.43741 0.8216 0.0
C542 C 0.41045 0.47007 0.81066 0.0
C543 C 0.41274 0.48142 0.77267 0.0
H544 H 0.63345 0.60275 0.44864 0.0
H545 H 0.68404 0.68046 0.39279 0.0
H546 H 0.66713 0.66189 0.33219 0.0
H547 H 0.65363 0.54526 0.3963 0.0
H548 H 0.61549 0.52554 0.39362 0.0
H549 H 0.6292 0.54615 0.43248 0.0
H550 H 0.5771 0.57966 0.41759 0.0
H551 H 0.56318 0.55905 0.37872 0.0
H552 H 0.56575 0.6015 0.37118 0.0
H553 H 0.64818 0.63352 0.27858 0.0
H554 H 0.62849 0.59676 0.23486 0.0
H555 H 0.58864 0.53732 0.32391 0.0
C556 C 0.64048 0.61609 0.42352 0.0
C557 C 0.66023 0.64299 0.4255 0.0
C558 C 0.66928 0.65958 0.39206 0.0
C559 C 0.65962 0.64934 0.35744 0.0
C560 C 0.64073 0.62248 0.3565 0.0
C561 C 0.63111 0.60606 0.38853 0.0
C562 C 0.61206 0.57704 0.37968 0.0
C563 C 0.62859 0.54671 0.40184 0.0
C564 C 0.57747 0.57947 0.38724 0.0
C565 C 0.61319 0.5794 0.33793 0.0
C566 C 0.62958 0.60601 0.32517 0.0
C567 C 0.63488 0.61284 0.28808 0.0
C568 C 0.62334 0.59184 0.26332 0.0
C569 C 0.60661 0.56417 0.27559 0.0
C570 C 0.60135 0.55815 0.31349 0.0
H571 H 0.90248 0.08222 0.90681 0.0
H572 H 0.8661 0.17394 0.84983 0.0
H573 H 0.88715 0.16464 0.79296 0.0
H574 H 0.97431 0.08352 0.86839 0.0
H575 H 0.97342 0.04225 0.86383 0.0
H576 H 0.95472 0.05571 0.89969 0.0
H577 H 0.90098 0.03086 0.87428 0.0
H578 H 0.91958 0.01712 0.83848 0.0
H579 H 0.88402 0.0414 0.82553 0.0
H580 H 0.91431 0.14606 0.74299 0.0
H581 H 0.94429 0.11938 0.70375 0.0
H582 H 0.96003 0.03859 0.79242 0.0
C583 C 0.89836 0.10019 0.88222 0.0
C584 C 0.88258 0.12887 0.88298 0.0
C585 C 0.87845 0.15195 0.85026 0.0
C586 C 0.89015 0.1468 0.81769 0.0
C587 C 0.90579 0.11838 0.8181 0.0
C588 C 0.90971 0.09538 0.84946 0.0
C589 C 0.92779 0.06707 0.84287 0.0
C590 C 0.95943 0.06185 0.87033 0.0
C591 C 0.90683 0.03736 0.84544 0.0
C592 C 0.93377 0.07786 0.80304 0.0
C593 C 0.92088 0.10749 0.78921 0.0
C594 C 0.92417 0.12268 0.7534 0.0
C595 C 0.9411 0.1072 0.73119 0.0
C596 C 0.95451 0.07671 0.74473 0.0
C597 C 0.95048 0.06196 0.78117 0.0
H598 H 0.3807 0.38715 0.23397 0.0
H599 H 0.44615 0.41516 0.32715 0.0
H600 H 0.4796 0.44247 0.2827 0.0
H601 H 0.43909 0.37396 0.17713 0.0
H602 H 0.41513 0.39029 0.1334 0.0
H603 H 0.39598 0.37262 0.17223 0.0
H604 H 0.36399 0.42406 0.16873 0.0
H605 H 0.38279 0.44219 0.12982 0.0
H606 H 0.38506 0.46081 0.1711 0.0
H607 H 0.50681 0.46608 0.2281 0.0
H608 H 0.52426 0.48552 0.16718 0.0
H609 H 0.44044 0.44462 0.10941 0.0
C610 C 0.40184 0.39929 0.24515 0.0
C611 C 0.41077 0.39857 0.28439 0.0
C612 C 0.43898 0.41459 0.29747 0.0
C613 C 0.45809 0.43045 0.27236 0.0
C614 C 0.44868 0.43045 0.23405 0.0
C615 C 0.42111 0.41549 0.22044 0.0
C616 C 0.41628 0.41935 0.17787 0.0
C617 C 0.41664 0.38713 0.16438 0.0
C618 C 0.38518 0.43769 0.16089 0.0
C619 C 0.44557 0.43858 0.16969 0.0
C620 C 0.464 0.44461 0.20254 0.0
C621 C 0.49253 0.46138 0.20226 0.0
C622 C 0.5025 0.4721 0.16757 0.0
C623 C 0.48416 0.4662 0.1335 0.0
C624 C 0.45509 0.44949 0.13476 0.0
H625 H 0.09801 0.89167 0.8061 0.0
H626 H 0.17242 0.96102 0.82505 0.0
H627 H 0.15797 0.98728 0.75963 0.0
H628 H 0.10742 0.88613 0.71003 0.0
H629 H 0.06513 0.88315 0.69343 0.0
H630 H 0.08112 0.86828 0.74154 0.0
H631 H 0.0424 0.90318 0.76574 0.0
H632 H 0.02504 0.91759 0.71802 0.0
H633 H 0.04056 0.94503 0.74904 0.0
H634 H 0.13287 0.00863 0.69453 0.0
H635 H 0.09935 0.02298 0.63262 0.0
H636 H 0.04257 0.93878 0.65384 0.0
C637 C 0.11162 0.91204 0.79624 0.0
C638 C 0.13633 0.92434 0.82071 0.0
C639 C 0.15319 0.95139 0.80694 0.0
C640 C 0.14529 0.96636 0.76977 0.0
C641 C 0.12054 0.95395 0.74657 0.0
C642 C 0.10397 0.92737 0.75913 0.0
C643 C 0.07744 0.91979 0.72876 0.0
C644 C 0.08311 0.88741 0.71775 0.0
C645 C 0.04441 0.92151 0.74114 0.0
C646 C 0.08157 0.94639 0.69732 0.0
C647 C 0.10654 0.96586 0.70833 0.0
C648 C 0.11355 0.99335 0.68538 0.0
C649 C 0.09433 1.00139 0.65041 0.0
C650 C 0.06865 0.98185 0.63858 0.0
C651 C 0.06248 0.95377 0.66208 0.0
loop_
_geom_bond_atom_site_label_1
_geom_bond_atom_site_label_2
_geom_bond_distance
_geom_bond_site_symmetry_2
_ccdc_geom_bond_type
C0 C1 1.264 . S
C0 C5 1.479 . S
C0 C10 1.465 . S
C1 C0 1.264 . S
C1 C3 1.339 . S
C1 H28 0.931 . S
C2 C3 1.395 . S
C2 C4 1.320 . S
C3 C1 1.339 . S
C3 C2 1.395 . S
C3 H29 0.929 . S
C4 C2 1.320 . S
C4 C5 1.405 . S
C4 H30 0.930 . S
C5 C0 1.479 . S
C5 C4 1.405 . S
C5 H31 0.931 . S
U6 O7 2.454 . S
U6 O8 2.453 1_554 S
U6 C9 2.984 . S
U6 C10 2.847 . S
U6 C23 2.882 1_554 S
U6 O24 2.441 . S
U6 O25 2.420 . S
U6 O26 2.455 1_554 S
U6 O27 2.449 1_554 S
O7 U6 2.454 . S
O7 C9 1.353 . S
O8 U6 2.453 1_556 S
O8 C9 1.280 1_556 S
C9 U6 2.984 . S
C9 O7 1.353 . S
C9 O8 1.280 1_554 S
C9 C11 1.363 . S
C10 C0 1.465 . S
C10 U6 2.847 . S
C10 O24 1.249 . S
C10 O25 1.202 . S
C11 C9 1.363 . S
C11 C13 1.408 . S
C11 C16 1.342 . S
C12 C13 1.310 . S
C12 C15 1.461 . S
C12 H32 0.932 . S
C13 C11 1.408 . S
C13 C12 1.310 . S
C13 H33 0.930 . S
C14 C15 1.474 . S
C14 C16 1.285 . S
C14 H34 0.929 1_554 S
C15 C12 1.461 . S
C15 C14 1.474 . S
C16 C11 1.342 . S
C16 C14 1.285 . S
C16 H35 0.930 1_554 S
C17 C20 1.424 . S
C17 C22 1.245 . S
C17 C23 1.428 . S
C18 C21 1.260 . S
C18 C22 1.477 . S
C18 H36 0.932 . S
C19 C20 1.384 . S
C19 C21 1.479 . S
C19 H37 0.929 . S
C20 C17 1.424 . S
C20 C19 1.384 . S
C20 H38 0.928 . S
C21 C18 1.260 . S
C21 C19 1.479 . S
C22 C17 1.245 . S
C22 C18 1.477 . S
C22 H39 0.932 . S
C23 U6 2.882 1_556 S
C23 C17 1.428 . S
C23 O26 1.301 . S
C23 O27 1.282 . S
O24 U6 2.441 . S
O24 C10 1.249 . S
O25 U6 2.420 . S
O25 C10 1.202 . S
O26 U6 2.455 1_556 S
O26 C23 1.301 . S
O27 U6 2.449 1_556 S
O27 C23 1.282 . S
H28 C1 0.931 . S
H29 C3 0.929 . S
H30 C4 0.930 . S
H31 C5 0.931 . S
H32 C12 0.932 . S
H33 C13 0.930 . S
H34 C14 0.929 1_556 S
H35 C16 0.930 1_556 S
H36 C18 0.932 . S
H37 C19 0.929 . S
H38 C20 0.928 . S
H39 C22 0.932 . S
C40 C41 1.264 . S
C40 C45 1.479 . S
C40 C50 1.465 . S
C41 C40 1.264 . S
C41 C43 1.339 . S
C41 H68 0.931 . S
C42 C43 1.395 . S
C42 C44 1.320 . S
C43 C41 1.339 . S
C43 C42 1.395 . S
C43 H69 0.929 . S
C44 C42 1.320 . S
C44 C45 1.405 . S
C44 H70 0.930 . S
C45 C40 1.479 . S
C45 C44 1.405 . S
C45 H71 0.931 . S
U46 O47 2.454 . S
U46 O48 2.458 . S
U46 C49 2.984 . S
U46 C50 2.847 . S
U46 C63 2.882 . S
U46 O64 2.441 . S
U46 O65 2.420 . S
U46 O66 2.455 . S
U46 O67 2.449 . S
O47 U46 2.454 . S
O47 C49 1.353 . S
O48 U46 2.458 . S
O48 C49 1.286 . S
C49 U46 2.984 . S
C49 O47 1.353 . S
C49 O48 1.286 . S
C49 C51 1.363 . S
C50 C40 1.465 . S
C50 U46 2.847 . S
C50 O64 1.249 . S
C50 O65 1.202 . S
C51 C49 1.363 . S
C51 C53 1.408 . S
C51 C56 1.342 . S
C52 C53 1.310 . S
C52 C55 1.461 . S
C52 H72 0.932 . S
C53 C51 1.408 . S
C53 C52 1.310 . S
C53 H73 0.930 . S
C54 C55 1.474 . S
C54 C56 1.285 . S
C54 H74 0.929 . S
C55 C52 1.461 . S
C55 C54 1.474 . S
C56 C51 1.342 . S
C56 C54 1.285 . S
C56 H75 0.930 . S
C57 C60 1.424 . S
C57 C62 1.245 . S
C57 C63 1.428 . S
C58 C61 1.260 . S
C58 C62 1.477 . S
C58 H76 0.932 . S
C59 C60 1.384 . S
C59 C61 1.479 . S
C59 H77 0.929 . S
C60 C57 1.424 . S
C60 C59 1.384 . S
C60 H78 0.928 . S
C61 C58 1.260 . S
C61 C59 1.479 . S
C62 C57 1.245 . S
C62 C58 1.477 . S
C62 H79 0.932 . S
C63 U46 2.882 . S
C63 C57 1.428 . S
C63 O66 1.301 . S
C63 O67 1.282 . S
O64 U46 2.441 . S
O64 C50 1.249 . S
O65 U46 2.420 . S
O65 C50 1.202 . S
O66 U46 2.455 . S
O66 C63 1.301 . S
O67 U46 2.449 . S
O67 C63 1.282 . S
H68 C41 0.931 . S
H69 C43 0.929 . S
H70 C44 0.930 . S
H71 C45 0.931 . S
H72 C52 0.932 . S
H73 C53 0.930 . S
H74 C54 0.929 . S
H75 C56 0.930 . S
H76 C58 0.932 . S
H77 C59 0.929 . S
H78 C60 0.928 . S
H79 C62 0.932 . S
C80 C81 1.264 . S
C80 C85 1.479 . S
C80 C90 1.465 . S
C81 C80 1.264 . S
C81 C83 1.339 . S
C81 H108 0.931 . S
C82 C83 1.395 . S
C82 C84 1.320 . S
C83 C81 1.339 . S
C83 C82 1.395 . S
C83 H109 0.929 . S
C84 C82 1.320 . S
C84 C85 1.405 . S
C84 H110 0.930 . S
C85 C80 1.479 . S
C85 C84 1.405 . S
C85 H111 0.931 . S
U86 O87 2.454 . S
U86 O88 2.465 . S
U86 C89 2.984 . S
U86 C90 2.847 . S
U86 C103 2.882 1_554 S
U86 O104 2.441 . S
U86 O105 2.420 . S
U86 O106 2.455 1_554 S
U86 O107 2.449 . S
O87 U86 2.454 . S
O87 C89 1.353 . S
O88 U86 2.465 . S
O88 C89 1.305 . S
C89 U86 2.984 . S
C89 O87 1.353 . S
C89 O88 1.305 . S
C89 C91 1.363 . S
C90 C80 1.465 . S
C90 U86 2.847 . S
C90 O104 1.249 . S
C90 O105 1.202 . S
C91 C89 1.363 . S
C91 C93 1.408 . S
C91 C96 1.342 1_554 S
C92 C93 1.310 . S
C92 C95 1.461 . S
C92 H112 0.932 . S
C93 C91 1.408 . S
C93 C92 1.310 . S
C93 H113 0.930 . S
C94 C95 1.474 1_556 S
C94 C96 1.285 . S
C94 H114 0.929 . S
C95 C92 1.461 . S
C95 C94 1.474 1_554 S
C96 C91 1.342 1_556 S
C96 C94 1.285 . S
C96 H115 0.930 . S
C97 C100 1.424 . S
C97 C102 1.245 . S
C97 C103 1.428 . S
C98 C101 1.260 . S
C98 C102 1.477 . S
C98 H116 0.932 . S
C99 C100 1.384 . S
C99 C101 1.479 . S
C99 H117 0.929 . S
C100 C97 1.424 . S
C100 C99 1.384 . S
C100 H118 0.928 . S
C101 C98 1.260 . S
C101 C99 1.479 . S
C102 C97 1.245 . S
C102 C98 1.477 . S
C102 H119 0.932 . S
C103 U86 2.882 1_556 S
C103 C97 1.428 . S
C103 O106 1.301 . S
C103 O107 1.282 1_556 S
O104 U86 2.441 . S
O104 C90 1.249 . S
O105 U86 2.420 . S
O105 C90 1.202 . S
O106 U86 2.455 1_556 S
O106 C103 1.301 . S
O107 U86 2.449 . S
O107 C103 1.282 1_554 S
H108 C81 0.931 . S
H109 C83 0.929 . S
H110 C84 0.930 . S
H111 C85 0.931 . S
H112 C92 0.932 . S
H113 C93 0.930 . S
H114 C94 0.929 . S
H115 C96 0.930 . S
H116 C98 0.932 . S
H117 C99 0.929 . S
H118 C100 0.928 . S
H119 C102 0.932 . S
C120 C121 1.264 . S
C120 C125 1.479 . S
C120 C130 1.465 . S
C121 C120 1.264 . S
C121 C123 1.339 . S
C121 H148 0.931 . S
C122 C123 1.395 . S
C122 C124 1.320 . S
C123 C121 1.339 . S
C123 C122 1.395 . S
C123 H149 0.929 . S
C124 C122 1.320 . S
C124 C125 1.405 . S
C124 H150 0.930 . S
C125 C120 1.479 . S
C125 C124 1.405 . S
C125 H151 0.931 . S
U126 O127 2.454 . S
U126 O128 2.458 . S
U126 C129 2.984 . S
U126 C130 2.847 . S
U126 C143 2.882 . S
U126 O144 2.441 . S
U126 O145 2.420 . S
U126 O146 2.455 . S
U126 O147 2.449 . S
O127 U126 2.454 . S
O127 C129 1.353 . S
O128 U126 2.458 . S
O128 C129 1.286 . S
C129 U126 2.984 . S
C129 O127 1.353 . S
C129 O128 1.286 . S
C129 C131 1.363 . S
C130 C120 1.465 . S
C130 U126 2.847 . S
C130 O144 1.249 . S
C130 O145 1.202 . S
C131 C129 1.363 . S
C131 C133 1.408 . S
C131 C136 1.342 . S
C132 C133 1.310 . S
C132 C135 1.461 . S
C132 H152 0.932 . S
C133 C131 1.408 . S
C133 C132 1.310 . S
C133 H153 0.930 . S
C134 C135 1.474 . S
C134 C136 1.285 . S
C134 H154 0.929 . S
C135 C132 1.461 . S
C135 C134 1.474 . S
C136 C131 1.342 . S
C136 C134 1.285 . S
C136 H155 0.930 . S
C137 C140 1.424 . S
C137 C142 1.245 . S
C137 C143 1.428 . S
C138 C141 1.260 . S
C138 C142 1.477 . S
C138 H156 0.932 . S
C139 C140 1.384 . S
C139 C141 1.479 . S
C139 H157 0.929 . S
C140 C137 1.424 . S
C140 C139 1.384 . S
C140 H158 0.928 . S
C141 C138 1.260 . S
C141 C139 1.479 . S
C142 C137 1.245 . S
C142 C138 1.477 . S
C142 H159 0.932 . S
C143 U126 2.882 . S
C143 C137 1.428 . S
C143 O146 1.301 . S
C143 O147 1.282 . S
O144 U126 2.441 . S
O144 C130 1.249 . S
O145 U126 2.420 . S
O145 C130 1.202 . S
O146 U126 2.455 . S
O146 C143 1.301 . S
O147 U126 2.449 . S
O147 C143 1.282 . S
H148 C121 0.931 . S
H149 C123 0.929 . S
H150 C124 0.930 . S
H151 C125 0.931 . S
H152 C132 0.932 . S
H153 C133 0.930 . S
H154 C134 0.929 . S
H155 C136 0.930 . S
H156 C138 0.932 . S
H157 C139 0.929 . S
H158 C140 0.928 . S
H159 C142 0.932 . S
C160 C162 1.422 . S
C160 C164 1.415 . S
C160 N166 1.369 . S
C161 C162 1.421 . S
C161 C163 1.417 . S
C161 C173 1.422 . S
C162 C160 1.422 . S
C162 C161 1.421 . S
C162 N172 1.359 . S
C163 C161 1.417 . S
C163 C165 1.329 . S
C163 H182 0.930 . S
C164 C160 1.415 . S
C164 C165 1.437 . S
C164 C168 1.413 . S
C165 C163 1.329 . S
C165 C164 1.437 . S
C165 H187 0.929 . S
N166 C160 1.369 . S
N166 C167 1.338 1_655 S
N166 Gd171 2.622 . S
C167 N166 1.338 1_455 S
C167 C169 1.378 1_455 S
C167 H179 0.929 . S
C168 C164 1.413 . S
C168 C169 1.348 . S
C168 H184 0.931 . S
C169 C167 1.378 1_655 S
C169 C168 1.348 . S
C169 H185 0.930 1_655 S
Gd170 N190 2.622 . S
Gd170 N197 2.570 . S
Gd170 O204 2.361 1_455 S
Gd170 O205 2.468 . S
Gd170 O206 2.427 . S
Gd170 O208 2.388 1_455 S
Gd170 O209 2.386 . S
Gd170 O213 2.307 1_565 S
Gd170 C223 2.805 . S
Gd171 N166 2.622 . S
Gd171 N172 2.570 . S
Gd171 O203 2.386 . S
Gd171 O207 2.307 1_545 S
Gd171 O210 2.353 1_655 S
Gd171 O211 2.468 . S
Gd171 O212 2.427 . S
Gd171 O214 2.388 1_655 S
Gd171 C235 2.805 . S
N172 C162 1.359 . S
N172 Gd171 2.570 . S
N172 C174 1.343 . S
C173 C161 1.422 . S
C173 C175 1.321 . S
C173 H181 0.931 . S
C174 N172 1.343 . S
C174 C175 1.390 . S
C174 H176 0.931 . S
C175 C173 1.321 . S
C175 C174 1.390 . S
C175 H177 0.930 . S
H176 C174 0.931 . S
H177 C175 0.930 . S
H178 C201 0.931 . S
H179 C167 0.929 . S
H180 C202 0.930 . S
H181 C173 0.931 . S
H182 C163 0.930 . S
H183 C192 0.929 1_655 S
H184 C168 0.931 . S
H185 C169 0.930 1_455 S
H186 C224 0.930 . S
H187 C165 0.929 . S
H188 C193 0.931 . S
H189 C194 0.930 1_655 S
N190 Gd170 2.622 . S
N190 C191 1.369 . S
N190 C192 1.338 . S
C191 N190 1.369 . S
C191 C195 1.415 . S
C191 C198 1.422 . S
C192 H183 0.929 1_455 S
C192 N190 1.338 . S
C192 C194 1.378 . S
C193 H188 0.931 . S
C193 C194 1.348 . S
C193 C195 1.413 . S
C194 H189 0.930 1_455 S
C194 C192 1.378 . S
C194 C193 1.348 . S
C195 C191 1.415 . S
C195 C193 1.413 . S
C195 C225 1.437 . S
H196 C225 0.929 . S
N197 Gd170 2.570 . S
N197 C198 1.359 . S
N197 C201 1.343 . S
C198 C191 1.422 . S
C198 N197 1.359 . S
C198 C200 1.421 . S
C199 C200 1.422 . S
C199 C202 1.321 . S
C199 H226 0.931 . S
C200 C198 1.421 . S
C200 C199 1.422 . S
C200 C224 1.417 . S
C201 H178 0.931 . S
C201 N197 1.343 . S
C201 C202 1.390 . S
C202 H180 0.930 . S
C202 C199 1.321 . S
C202 C201 1.390 . S
O203 Gd171 2.386 . S
O203 C215 1.265 . S
O204 Gd170 2.361 1_655 S
O204 C215 1.230 1_565 S
O205 Gd170 2.468 . S
O205 C223 1.263 . S
O206 Gd170 2.427 . S
O206 C223 1.252 . S
O207 Gd171 2.307 1_565 S
O207 C216 1.261 . S
O208 Gd170 2.388 1_655 S
O208 C216 1.252 . S
O209 Gd170 2.386 . S
O209 C227 1.265 . S
O210 Gd171 2.353 1_455 S
O210 C227 1.242 1_545 S
O211 Gd171 2.468 . S
O211 C235 1.263 . S
O212 Gd171 2.427 . S
O212 C235 1.252 . S
O213 Gd170 2.307 1_545 S
O213 C228 1.261 . S
O214 Gd171 2.388 1_455 S
O214 C228 1.252 . S
C215 O203 1.265 . S
C215 O204 1.230 1_545 S
C216 O207 1.261 . S
C216 O208 1.252 . S
C217 C220 1.394 . S
C217 C222 1.370 . S
C217 C223 1.500 . S
C218 C221 1.383 . S
C218 C222 1.395 . S
C219 C220 1.396 . S
C219 C221 1.365 . S
C219 H236 0.929 . S
C220 C217 1.394 . S
C220 C219 1.396 . S
C220 H237 0.930 . S
C221 C218 1.383 . S
C221 C219 1.365 . S
C221 H238 0.931 . S
C222 C217 1.370 . S
C222 C218 1.395 . S
C222 H239 0.930 . S
C223 Gd170 2.805 . S
C223 O205 1.263 . S
C223 O206 1.252 . S
C223 C217 1.500 . S
C224 H186 0.930 . S
C224 C200 1.417 . S
C224 C225 1.329 . S
C225 C195 1.437 . S
C225 H196 0.929 . S
C225 C224 1.329 . S
H226 C199 0.931 . S
C227 O209 1.265 . S
C227 O210 1.242 1_565 S
C228 O213 1.261 . S
C228 O214 1.252 . S
C229 C232 1.394 . S
C229 C234 1.370 . S
C229 C235 1.500 . S
C230 C233 1.383 . S
C230 C234 1.395 . S
C231 C232 1.396 . S
C231 C233 1.365 . S
C231 H240 0.929 . S
C232 C229 1.394 . S
C232 C231 1.396 . S
C232 H241 0.930 . S
C233 C230 1.383 . S
C233 C231 1.365 . S
C233 H242 0.931 . S
C234 C229 1.370 . S
C234 C230 1.395 . S
C234 H243 0.930 . S
C235 Gd171 2.805 . S
C235 O211 1.263 . S
C235 O212 1.252 . S
C235 C229 1.500 . S
H236 C219 0.929 . S
H237 C220 0.930 . S
H238 C221 0.931 . S
H239 C222 0.930 . S
H240 C231 0.929 . S
H241 C232 0.930 . S
H242 C233 0.931 . S
H243 C234 0.930 . S
C244 C246 1.422 . S
C244 C248 1.415 . S
C244 N250 1.369 . S
C245 C246 1.421 . S
C245 C247 1.417 . S
C245 C257 1.422 . S
C246 C244 1.422 . S
C246 C245 1.421 . S
C246 N256 1.359 . S
C247 C245 1.417 . S
C247 C249 1.329 . S
C247 H266 0.930 . S
C248 C244 1.415 . S
C248 C249 1.437 . S
C248 C252 1.413 . S
C249 C247 1.329 . S
C249 C248 1.437 . S
C249 H271 0.929 . S
N250 C244 1.369 . S
N250 C251 1.338 . S
N250 Gd255 2.622 . S
C251 N250 1.338 . S
C251 C253 1.378 . S
C251 H263 0.929 . S
C252 C248 1.413 . S
C252 C253 1.348 . S
C252 H268 0.931 . S
C253 C251 1.378 . S
C253 C252 1.348 . S
C253 H269 0.930 . S
Gd254 N274 2.622 . S
Gd254 N281 2.570 1_556 S
Gd254 O288 2.353 . S
Gd254 O289 2.468 . S
Gd254 O290 2.427 . S
Gd254 O292 2.388 . S
Gd254 O293 2.386 1_556 S
Gd254 O297 2.307 1_556 S
Gd254 C307 2.805 . S
Gd255 N250 2.622 . S
Gd255 N256 2.570 . S
Gd255 O287 2.386 1_554 S
Gd255 O291 2.307 . S
Gd255 O294 2.353 . S
Gd255 O295 2.468 . S
Gd255 O296 2.427 . S
Gd255 O298 2.388 . S
Gd255 C319 2.805 . S
N256 C246 1.359 . S
N256 Gd255 2.570 . S
N256 C258 1.343 . S
C257 C245 1.422 . S
C257 C259 1.321 . S
C257 H265 0.931 . S
C258 N256 1.343 . S
C258 C259 1.390 . S
C258 H260 0.931 . S
C259 C257 1.321 . S
C259 C258 1.390 . S
C259 H261 0.930 . S
H260 C258 0.931 . S
H261 C259 0.930 . S
H262 C285 0.931 . S
H263 C251 0.929 . S
H264 C286 0.930 . S
H265 C257 0.931 . S
H266 C247 0.930 . S
H267 C276 0.929 . S
H268 C252 0.931 . S
H269 C253 0.930 . S
H270 C308 0.930 . S
H271 C249 0.929 . S
H272 C277 0.931 . S
H273 C278 0.930 . S
N274 Gd254 2.622 . S
N274 C275 1.369 1_556 S
N274 C276 1.338 . S
C275 N274 1.369 1_554 S
C275 C279 1.415 . S
C275 C282 1.422 . S
C276 H267 0.929 . S
C276 N274 1.338 . S
C276 C278 1.378 . S
C277 H272 0.931 . S
C277 C278 1.348 1_554 S
C277 C279 1.413 . S
C278 H273 0.930 . S
C278 C276 1.378 . S
C278 C277 1.348 1_556 S
C279 C275 1.415 . S
C279 C277 1.413 . S
C279 C309 1.437 . S
H280 C309 0.929 . S
N281 Gd254 2.570 1_554 S
N281 C282 1.359 . S
N281 C285 1.343 . S
C282 C275 1.422 . S
C282 N281 1.359 . S
C282 C284 1.421 . S
C283 C284 1.422 . S
C283 C286 1.321 . S
C283 H310 0.931 . S
C284 C282 1.421 . S
C284 C283 1.422 . S
C284 C308 1.417 . S
C285 H262 0.931 . S
C285 N281 1.343 . S
C285 C286 1.390 . S
C286 H264 0.930 . S
C286 C283 1.321 . S
C286 C285 1.390 . S
O287 Gd255 2.386 1_556 S
O287 C299 1.265 . S
O288 Gd254 2.353 . S
O288 C299 1.242 . S
O289 Gd254 2.468 . S
O289 C307 1.263 . S
O290 Gd254 2.427 . S
O290 C307 1.252 . S
O291 Gd255 2.307 . S
O291 C300 1.261 . S
O292 Gd254 2.388 . S
O292 C300 1.252 1_556 S
O293 Gd254 2.386 1_554 S
O293 C311 1.265 . S
O294 Gd255 2.353 . S
O294 C311 1.242 . S
O295 Gd255 2.468 . S
O295 C319 1.263 . S
O296 Gd255 2.427 . S
O296 C319 1.252 . S
O297 Gd254 2.307 1_554 S
O297 C312 1.261 . S
O298 Gd255 2.388 . S
O298 C312 1.252 . S
C299 O287 1.265 . S
C299 O288 1.242 . S
C300 O291 1.261 . S
C300 O292 1.252 1_554 S
C301 C304 1.394 . S
C301 C306 1.370 . S
C301 C307 1.500 . S
C302 C305 1.383 . S
C302 C306 1.395 . S
C303 C304 1.396 . S
C303 C305 1.365 . S
C303 H320 0.929 . S
C304 C301 1.394 . S
C304 C303 1.396 . S
C304 H321 0.930 . S
C305 C302 1.383 . S
C305 C303 1.365 . S
C305 H322 0.931 . S
C306 C301 1.370 . S
C306 C302 1.395 . S
C306 H323 0.930 . S
C307 Gd254 2.805 . S
C307 O289 1.263 . S
C307 O290 1.252 . S
C307 C301 1.500 . S
C308 H270 0.930 . S
C308 C284 1.417 . S
C308 C309 1.329 . S
C309 C279 1.437 . S
C309 H280 0.929 . S
C309 C308 1.329 . S
H310 C283 0.931 . S
C311 O293 1.265 . S
C311 O294 1.242 . S
C312 O297 1.261 . S
C312 O298 1.252 . S
C313 C316 1.394 . S
C313 C318 1.370 . S
C313 C319 1.500 . S
C314 C317 1.383 . S
C314 C318 1.395 . S
C315 C316 1.396 . S
C315 C317 1.365 . S
C315 H324 0.929 . S
C316 C313 1.394 . S
C316 C315 1.396 . S
C316 H325 0.930 . S
C317 C314 1.383 . S
C317 C315 1.365 . S
C317 H326 0.931 . S
C318 C313 1.370 . S
C318 C314 1.395 . S
C318 H327 0.930 . S
C319 Gd255 2.805 . S
C319 O295 1.263 . S
C319 O296 1.252 . S
C319 C313 1.500 . S
H320 C303 0.929 . S
H321 C304 0.930 . S
H322 C305 0.931 . S
H323 C306 0.930 . S
H324 C315 0.929 . S
H325 C316 0.930 . S
H326 C317 0.931 . S
H327 C318 0.930 . S
H328 C340 0.930 . S
H329 C342 0.930 . S
H330 C343 0.930 . S
H331 C347 0.959 . S
H332 C347 0.959 . S
H333 C347 0.961 . S
H334 C348 0.960 . S
H335 C348 0.961 . S
H336 C348 0.959 . S
H337 C351 0.929 . S
H338 C352 0.931 . S
H339 C354 0.930 . S
C340 H328 0.930 . S
C340 C341 1.399 . S
C340 C345 1.399 . S
C341 C340 1.399 . S
C341 C342 1.376 . S
C342 H329 0.930 . S
C342 C341 1.376 . S
C342 C343 1.388 . S
C343 H330 0.930 . S
C343 C342 1.388 . S
C343 C344 1.390 . S
C344 C343 1.390 . S
C344 C345 1.394 . S
C344 C350 1.465 . S
C345 C340 1.399 . S
C345 C344 1.394 . S
C345 C346 1.516 . S
C346 C345 1.516 . S
C346 C347 1.502 . S
C346 C348 1.561 . S
C346 C349 1.526 . S
C347 H331 0.959 . S
C347 H332 0.959 . S
C347 H333 0.961 . S
C347 C346 1.502 . S
C348 H334 0.960 . S
C348 H335 0.961 . S
C348 H336 0.959 . S
C348 C346 1.561 . S
C349 C346 1.526 . S
C349 C350 1.396 . S
C349 C354 1.390 . S
C350 C344 1.465 . S
C350 C349 1.396 . S
C350 C351 1.399 . S
C351 H337 0.929 . S
C351 C350 1.399 . S
C351 C352 1.385 . S
C352 H338 0.931 . S
C352 C351 1.385 . S
C352 C353 1.389 . S
C353 C352 1.389 . S
C353 C354 1.387 . S
C354 H339 0.930 . S
C354 C349 1.390 . S
C354 C353 1.387 . S
H355 C367 0.930 1_556 S
H356 C369 0.930 . S
H357 C370 0.930 . S
H358 C374 0.959 . S
H359 C374 0.959 . S
H360 C374 0.961 . S
H361 C375 0.966 . S
H362 C375 0.985 . S
H363 C375 0.931 1_554 S
H364 C378 0.929 . S
H365 C379 0.931 . S
H366 C381 0.930 1_556 S
C367 H355 0.930 1_554 S
C367 C368 1.399 . S
C367 C372 1.399 . S
C368 C367 1.399 . S
C368 C369 1.376 . S
C369 H356 0.930 . S
C369 C368 1.376 . S
C369 C370 1.388 . S
C370 H357 0.930 . S
C370 C369 1.388 . S
C370 C371 1.390 . S
C371 C370 1.390 . S
C371 C372 1.394 . S
C371 C377 1.465 . S
C372 C367 1.399 . S
C372 C371 1.394 . S
C372 C373 1.516 1_554 S
C373 C372 1.516 1_556 S
C373 C374 1.502 . S
C373 C375 1.559 . S
C373 C376 1.526 1_556 S
C374 H358 0.959 . S
C374 H359 0.959 . S
C374 H360 0.961 . S
C374 C373 1.502 . S
C375 H361 0.966 . S
C375 H362 0.985 . S
C375 H363 0.931 1_556 S
C375 C373 1.559 . S
C376 C373 1.526 1_554 S
C376 C377 1.396 . S
C376 C381 1.390 . S
C377 C371 1.465 . S
C377 C376 1.396 . S
C377 C378 1.399 . S
C378 H364 0.929 . S
C378 C377 1.399 . S
C378 C379 1.385 . S
C379 H365 0.931 . S
C379 C378 1.385 . S
C379 C380 1.389 . S
C380 C379 1.389 . S
C380 C381 1.387 . S
C381 H366 0.930 1_554 S
C381 C376 1.390 . S
C381 C380 1.387 . S
H382 C394 0.930 . S
H383 C396 0.930 . S
H384 C397 0.930 . S
H385 C401 0.959 . S
H386 C401 0.959 . S
H387 C401 0.961 . S
H388 C402 0.960 . S
H389 C402 0.961 . S
H390 C402 0.959 . S
H391 C405 0.929 . S
H392 C406 0.931 . S
H393 C408 0.930 . S
C394 H382 0.930 . S
C394 C395 1.399 . S
C394 C399 1.399 . S
C395 C394 1.399 . S
C395 C396 1.376 . S
C396 H383 0.930 . S
C396 C395 1.376 . S
C396 C397 1.388 . S
C397 H384 0.930 . S
C397 C396 1.388 . S
C397 C398 1.390 . S
C398 C397 1.390 . S
C398 C399 1.394 . S
C398 C404 1.465 . S
C399 C394 1.399 . S
C399 C398 1.394 . S
C399 C400 1.516 . S
C400 C399 1.516 . S
C400 C401 1.502 . S
C400 C402 1.561 . S
C400 C403 1.526 . S
C401 H385 0.959 . S
C401 H386 0.959 . S
C401 H387 0.961 . S
C401 C400 1.502 . S
C402 H388 0.960 . S
C402 H389 0.961 . S
C402 H390 0.959 . S
C402 C400 1.561 . S
C403 C400 1.526 . S
C403 C404 1.396 . S
C403 C408 1.390 . S
C404 C398 1.465 . S
C404 C403 1.396 . S
C404 C405 1.399 . S
C405 H391 0.929 . S
C405 C404 1.399 . S
C405 C406 1.385 . S
C406 H392 0.931 . S
C406 C405 1.385 . S
C406 C407 1.389 . S
C407 C406 1.389 . S
C407 C408 1.387 . S
C408 H393 0.930 . S
C408 C403 1.390 . S
C408 C407 1.387 . S
H409 C421 0.930 . S
H410 C423 0.930 . S
H411 C424 0.930 . S
H412 C428 0.959 . S
H413 C428 0.959 . S
H414 C428 0.961 . S
H415 C429 0.960 . S
H416 C429 0.961 . S
H417 C429 0.959 . S
H418 C432 0.929 . S
H419 C433 0.931 . S
H420 C435 0.930 . S
C421 H409 0.930 . S
C421 C422 1.399 . S
C421 C426 1.399 . S
C422 C421 1.399 . S
C422 C423 1.376 1_554 S
C423 H410 0.930 . S
C423 C422 1.376 1_556 S
C423 C424 1.388 . S
C424 H411 0.930 . S
C424 C423 1.388 . S
C424 C425 1.390 . S
C425 C424 1.390 . S
C425 C426 1.394 1_556 S
C425 C431 1.465 . S
C426 C421 1.399 . S
C426 C425 1.394 1_554 S
C426 C427 1.516 . S
C427 C426 1.516 . S
C427 C428 1.502 . S
C427 C429 1.561 . S
C427 C430 1.526 . S
C428 H412 0.959 . S
C428 H413 0.959 . S
C428 H414 0.961 . S
C428 C427 1.502 . S
C429 H415 0.960 . S
C429 H416 0.961 . S
C429 H417 0.959 . S
C429 C427 1.561 . S
C430 C427 1.526 . S
C430 C431 1.396 1_554 S
C430 C435 1.390 . S
C431 C425 1.465 . S
C431 C430 1.396 1_556 S
C431 C432 1.399 . S
C432 H418 0.929 . S
C432 C431 1.399 . S
C432 C433 1.385 . S
C433 H419 0.931 . S
C433 C432 1.385 . S
C433 C434 1.389 1_556 S
C434 C433 1.389 1_554 S
C434 C435 1.387 . S
C435 H420 0.930 . S
C435 C430 1.390 . S
C435 C434 1.387 . S
H436 C448 0.930 . S
H437 C450 0.930 . S
H438 C451 0.930 . S
H439 C455 0.959 . S
H440 C455 0.959 . S
H441 C455 0.961 . S
H442 C456 0.960 . S
H443 C456 0.961 . S
H444 C456 0.959 . S
H445 C459 0.929 . S
H446 C460 0.931 1_545 S
H447 C462 0.930 . S
C448 H436 0.930 . S
C448 C449 1.399 . S
C448 C453 1.399 . S
C449 C448 1.399 . S
C449 C450 1.376 . S
C450 H437 0.930 . S
C450 C449 1.376 . S
C450 C451 1.388 . S
C451 H438 0.930 . S
C451 C450 1.388 . S
C451 C452 1.390 . S
C452 C451 1.390 . S
C452 C453 1.394 . S
C452 C458 1.465 . S
C453 C448 1.399 . S
C453 C452 1.394 . S
C453 C454 1.516 . S
C454 C453 1.516 . S
C454 C455 1.502 . S
C454 C456 1.561 . S
C454 C457 1.526 . S
C455 H439 0.959 . S
C455 H440 0.959 . S
C455 H441 0.961 . S
C455 C454 1.502 . S
C456 H442 0.960 . S
C456 H443 0.961 . S
C456 H444 0.959 . S
C456 C454 1.561 . S
C457 C454 1.526 . S
C457 C458 1.396 . S
C457 C462 1.390 . S
C458 C452 1.465 . S
C458 C457 1.396 . S
C458 C459 1.399 . S
C459 H445 0.929 . S
C459 C458 1.399 . S
C459 C460 1.385 . S
C460 H446 0.931 1_565 S
C460 C459 1.385 . S
C460 C461 1.389 . S
C461 C460 1.389 . S
C461 C462 1.387 . S
C462 H447 0.930 . S
C462 C457 1.390 . S
C462 C461 1.387 . S
H463 C475 0.930 . S
H464 C477 0.930 . S
H465 C478 0.930 . S
H466 C482 0.959 . S
H467 C482 0.959 . S
H468 C482 0.961 . S
H469 C483 0.960 . S
H470 C483 0.961 . S
H471 C483 0.959 . S
H472 C486 0.929 . S
H473 C487 0.931 . S
H474 C489 0.930 . S
C475 H463 0.930 . S
C475 C476 1.399 . S
C475 C480 1.399 . S
C476 C475 1.399 . S
C476 C477 1.376 . S
C477 H464 0.930 . S
C477 C476 1.376 . S
C477 C478 1.388 . S
C478 H465 0.930 . S
C478 C477 1.388 . S
C478 C479 1.390 . S
C479 C478 1.390 . S
C479 C480 1.394 . S
C479 C485 1.465 . S
C480 C475 1.399 . S
C480 C479 1.394 . S
C480 C481 1.516 . S
C481 C480 1.516 . S
C481 C482 1.502 . S
C481 C483 1.561 . S
C481 C484 1.526 . S
C482 H466 0.959 . S
C482 H467 0.959 . S
C482 H468 0.961 . S
C482 C481 1.502 . S
C483 H469 0.960 . S
C483 H470 0.961 . S
C483 H471 0.959 . S
C483 C481 1.561 . S
C484 C481 1.526 . S
C484 C485 1.396 . S
C484 C489 1.390 . S
C485 C479 1.465 . S
C485 C484 1.396 . S
C485 C486 1.399 . S
C486 H472 0.929 . S
C486 C485 1.399 . S
C486 C487 1.385 . S
C487 H473 0.931 . S
C487 C486 1.385 . S
C487 C488 1.389 . S
C488 C487 1.389 . S
C488 C489 1.387 . S
C489 H474 0.930 . S
C489 C484 1.390 . S
C489 C488 1.387 . S
H490 C502 0.930 . S
H491 C504 0.930 . S
H492 C505 0.930 . S
H493 C509 0.959 1_545 S
H494 C509 0.959 . S
H495 C509 0.961 . S
H496 C510 0.960 . S
H497 C510 0.961 . S
H498 C510 0.959 . S
H499 C513 0.929 . S
H500 C514 0.931 . S
H501 C516 0.930 1_565 S
C502 H490 0.930 . S
C502 C503 1.399 . S
C502 C507 1.399 . S
C503 C502 1.399 . S
C503 C504 1.376 . S
C504 H491 0.930 . S
C504 C503 1.376 . S
C504 C505 1.388 . S
C505 H492 0.930 . S
C505 C504 1.388 . S
C505 C506 1.390 . S
C506 C505 1.390 . S
C506 C507 1.394 . S
C506 C512 1.465 . S
C507 C502 1.399 . S
C507 C506 1.394 . S
C507 C508 1.516 . S
C508 C507 1.516 . S
C508 C509 1.502 1_545 S
C508 C510 1.561 1_545 S
C508 C511 1.526 . S
C509 H493 0.959 1_565 S
C509 H494 0.959 . S
C509 H495 0.961 . S
C509 C508 1.502 1_565 S
C510 H496 0.960 . S
C510 H497 0.961 . S
C510 H498 0.959 . S
C510 C508 1.561 1_565 S
C511 C508 1.526 . S
C511 C512 1.396 . S
C511 C516 1.390 . S
C512 C506 1.465 . S
C512 C511 1.396 . S
C512 C513 1.399 . S
C513 H499 0.929 . S
C513 C512 1.399 . S
C513 C514 1.385 . S
C514 H500 0.931 . S
C514 C513 1.385 . S
C514 C515 1.389 . S
C515 C514 1.389 . S
C515 C516 1.387 . S
C516 H501 0.930 1_545 S
C516 C511 1.390 . S
C516 C515 1.387 . S
H517 C529 0.930 . S
H518 C531 0.930 . S
H519 C532 0.930 . S
H520 C536 0.959 . S
H521 C536 0.959 . S
H522 C536 0.961 . S
H523 C537 0.960 . S
H524 C537 0.961 . S
H525 C537 0.959 . S
H526 C540 0.929 . S
H527 C541 0.931 . S
H528 C543 0.930 . S
C529 H517 0.930 . S
C529 C530 1.399 . S
C529 C534 1.399 . S
C530 C529 1.399 . S
C530 C531 1.376 . S
C531 H518 0.930 . S
C531 C530 1.376 . S
C531 C532 1.388 . S
C532 H519 0.930 . S
C532 C531 1.388 . S
C532 C533 1.390 . S
C533 C532 1.390 . S
C533 C534 1.394 . S
C533 C539 1.465 . S
C534 C529 1.399 . S
C534 C533 1.394 . S
C534 C535 1.516 . S
C535 C534 1.516 . S
C535 C536 1.502 . S
C535 C537 1.561 . S
C535 C538 1.526 . S
C536 H520 0.959 . S
C536 H521 0.959 . S
C536 H522 0.961 . S
C536 C535 1.502 . S
C537 H523 0.960 . S
C537 H524 0.961 . S
C537 H525 0.959 . S
C537 C535 1.561 . S
C538 C535 1.526 . S
C538 C539 1.396 . S
C538 C543 1.390 . S
C539 C533 1.465 . S
C539 C538 1.396 . S
C539 C540 1.399 . S
C540 H526 0.929 . S
C540 C539 1.399 . S
C540 C541 1.385 . S
C541 H527 0.931 . S
C541 C540 1.385 . S
C541 C542 1.389 . S
C542 C541 1.389 . S
C542 C543 1.387 . S
C543 H528 0.930 . S
C543 C538 1.390 . S
C543 C542 1.387 . S
H544 C556 0.930 . S
H545 C558 0.930 . S
H546 C559 0.930 . S
H547 C563 0.959 . S
H548 C563 0.959 . S
H549 C563 0.961 . S
H550 C564 0.960 . S
H551 C564 0.961 . S
H552 C564 0.959 . S
H553 C567 0.929 . S
H554 C568 0.931 . S
H555 C570 0.930 . S
C556 H544 0.930 . S
C556 C557 1.399 . S
C556 C561 1.399 . S
C557 C556 1.399 . S
C557 C558 1.376 . S
C558 H545 0.930 . S
C558 C557 1.376 . S
C558 C559 1.388 . S
C559 H546 0.930 . S
C559 C558 1.388 . S
C559 C560 1.390 . S
C560 C559 1.390 . S
C560 C561 1.394 . S
C560 C566 1.465 . S
C561 C556 1.399 . S
C561 C560 1.394 . S
C561 C562 1.516 . S
C562 C561 1.516 . S
C562 C563 1.502 . S
C562 C564 1.561 . S
C562 C565 1.526 . S
C563 H547 0.959 . S
C563 H548 0.959 . S
C563 H549 0.961 . S
C563 C562 1.502 . S
C564 H550 0.960 . S
C564 H551 0.961 . S
C564 H552 0.959 . S
C564 C562 1.561 . S
C565 C562 1.526 . S
C565 C566 1.396 . S
C565 C570 1.390 . S
C566 C560 1.465 . S
C566 C565 1.396 . S
C566 C567 1.399 . S
C567 H553 0.929 . S
C567 C566 1.399 . S
C567 C568 1.385 . S
C568 H554 0.931 . S
C568 C567 1.385 . S
C568 C569 1.389 . S
C569 C568 1.389 . S
C569 C570 1.387 . S
C570 H555 0.930 . S
C570 C565 1.390 . S
C570 C569 1.387 . S
H571 C583 0.930 . S
H572 C585 0.930 . S
H573 C586 0.930 . S
H574 C590 0.959 . S
H575 C590 0.959 . S
H576 C590 0.961 . S
H577 C591 0.960 1_565 S
H578 C591 0.961 1_565 S
H579 C591 0.959 1_565 S
H580 C594 0.929 . S
H581 C595 0.931 . S
H582 C597 0.930 . S
C583 H571 0.930 . S
C583 C584 1.399 . S
C583 C588 1.399 . S
C584 C583 1.399 . S
C584 C585 1.376 . S
C585 H572 0.930 . S
C585 C584 1.376 . S
C585 C586 1.388 . S
C586 H573 0.930 . S
C586 C585 1.388 . S
C586 C587 1.390 . S
C587 C586 1.390 . S
C587 C588 1.394 . S
C587 C593 1.465 . S
C588 C583 1.399 . S
C588 C587 1.394 . S
C588 C589 1.516 . S
C589 C588 1.516 . S
C589 C590 1.502 . S
C589 C591 1.561 . S
C589 C592 1.526 . S
C590 H574 0.959 . S
C590 H575 0.959 . S
C590 H576 0.961 . S
C590 C589 1.502 . S
C591 H577 0.960 1_545 S
C591 H578 0.961 1_545 S
C591 H579 0.959 1_545 S
C591 C589 1.561 . S
C592 C589 1.526 . S
C592 C593 1.396 . S
C592 C597 1.390 . S
C593 C587 1.465 . S
C593 C592 1.396 . S
C593 C594 1.399 . S
C594 H580 0.929 . S
C594 C593 1.399 . S
C594 C595 1.385 . S
C595 H581 0.931 . S
C595 C594 1.385 . S
C595 C596 1.389 . S
C596 C595 1.389 . S
C596 C597 1.387 . S
C597 H582 0.930 . S
C597 C592 1.390 . S
C597 C596 1.387 . S
H598 C610 0.930 . S
H599 C612 0.930 . S
H600 C613 0.930 . S
H601 C617 0.959 . S
H602 C617 0.959 . S
H603 C617 0.961 . S
H604 C618 0.960 . S
H605 C618 0.961 . S
H606 C618 0.959 . S
H607 C621 0.929 . S
H608 C622 0.931 . S
H609 C624 0.930 . S
C610 H598 0.930 . S
C610 C611 1.399 . S
C610 C615 1.399 . S
C611 C610 1.399 . S
C611 C612 1.376 . S
C612 H599 0.930 . S
C612 C611 1.376 . S
C612 C613 1.388 . S
C613 H600 0.930 . S
C613 C612 1.388 . S
C613 C614 1.390 . S
C614 C613 1.390 . S
C614 C615 1.394 . S
C614 C620 1.465 . S
C615 C610 1.399 . S
C615 C614 1.394 . S
C615 C616 1.516 . S
C616 C615 1.516 . S
C616 C617 1.502 . S
C616 C618 1.561 . S
C616 C619 1.526 . S
C617 H601 0.959 . S
C617 H602 0.959 . S
C617 H603 0.961 . S
C617 C616 1.502 . S
C618 H604 0.960 . S
C618 H605 0.961 . S
C618 H606 0.959 . S
C618 C616 1.561 . S
C619 C616 1.526 . S
C619 C620 1.396 . S
C619 C624 1.390 . S
C620 C614 1.465 . S
C620 C619 1.396 . S
C620 C621 1.399 . S
C621 H607 0.929 . S
C621 C620 1.399 . S
C621 C622 1.385 . S
C622 H608 0.931 . S
C622 C621 1.385 . S
C622 C623 1.389 . S
C623 C622 1.389 . S
C623 C624 1.387 . S
C624 H609 0.930 . S
C624 C619 1.390 . S
C624 C623 1.387 . S
H625 C637 0.930 . S
H626 C639 0.930 . S
H627 C640 0.930 1_545 S
H628 C644 0.959 . S
H629 C644 0.959 . S
H630 C644 0.961 . S
H631 C645 0.960 . S
H632 C645 0.961 . S
H633 C645 0.959 . S
H634 C648 0.929 . S
H635 C649 0.931 . S
H636 C651 0.930 . S
C637 H625 0.930 . S
C637 C638 1.399 . S
C637 C642 1.399 . S
C638 C637 1.399 . S
C638 C639 1.376 . S
C639 H626 0.930 . S
C639 C638 1.376 . S
C639 C640 1.388 . S
C640 H627 0.930 1_565 S
C640 C639 1.388 . S
C640 C641 1.390 . S
C641 C640 1.390 . S
C641 C642 1.394 . S
C641 C647 1.465 . S
C642 C637 1.399 . S
C642 C641 1.394 . S
C642 C643 1.516 . S
C643 C642 1.516 . S
C643 C644 1.502 . S
C643 C645 1.561 . S
C643 C646 1.526 . S
C644 H628 0.959 . S
C644 H629 0.959 . S
C644 H630 0.961 . S
C644 C643 1.502 . S
C645 H631 0.960 . S
C645 H632 0.961 . S
C645 H633 0.959 . S
C645 C643 1.561 . S
C646 C643 1.526 . S
C646 C647 1.396 . S
C646 C651 1.390 . S
C647 C641 1.465 . S
C647 C646 1.396 . S
C647 C648 1.399 1_565 S
C648 H634 0.929 . S
C648 C647 1.399 1_545 S
C648 C649 1.385 . S
C649 H635 0.931 . S
C649 C648 1.385 . S
C649 C650 1.389 1_545 S
C650 C649 1.389 1_565 S
C650 C651 1.387 . S
C651 H636 0.930 . S
C651 C646 1.390 . S
C651 C650 1.387 . S
C353 C228 1.676 . S
C341 C135 1.648 . S
C368 C15 1.649 . S
C380 C300 1.662 . S
C395 C55 1.627 . S
C407 C216 1.636 . S
C422 C95 1.654 . S
C434 C312 1.677 . S
C461 C218 1.470 . S
C449 C2 1.549 . S
C488 C299 1.609 . S
C476 C42 1.612 . S
C503 C82 1.606 . S
C515 C215 1.628 . S
C530 C141 1.503 . S
C542 C302 1.412 . S
C569 C314 1.463 . S
C557 C61 1.546 . S
C596 C230 1.440 . S
C584 C101 1.586 . S
C623 C311 1.640 . S
C611 C122 1.579 . S
C638 C21 1.654 . S
C650 C227 1.647 . S
