# Generated by pormake.
# Topology ssb, (4,4)-cn, num edge types: 1
# Building blocks:
#     Node 0, Type 0, BuildingBlock: NAWXER_clean_sbu_0, # of connection points: 4
#     Node 1, Type 0, BuildingBlock: NAWXER_clean_sbu_0, # of connection points: 4
#     Node 2, Type 0, BuildingBlock: NAWXER_clean_sbu_0, # of connection points: 4
#     Node 3, Type 0, BuildingBlock: NAWXER_clean_sbu_0, # of connection points: 4
#     Node 4, Type 0, BuildingBlock: NAWXER_clean_sbu_0, # of connection points: 4
#     Node 5, Type 0, BuildingBlock: NAWXER_clean_sbu_0, # of connection points: 4
#     Node 6, Type 0, BuildingBlock: NAWXER_clean_sbu_0, # of connection points: 4
#     Node 7, Type 0, BuildingBlock: NAWXER_clean_sbu_0, # of connection points: 4
#     Node 8, Type 1, BuildingBlock: NAWXER_clean_sbu_0, # of connection points: 4
#     Node 9, Type 1, BuildingBlock: NAWXER_clean_sbu_0, # of connection points: 4
#     Node 10, Type 1, BuildingBlock: NAWXER_clean_sbu_0, # of connection points: 4
#     Node 11, Type 1, BuildingBlock: NAWXER_clean_sbu_0, # of connection points: 4
#     Node 12, Type 1, BuildingBlock: NAWXER_clean_sbu_0, # of connection points: 4
#     Node 13, Type 1, BuildingBlock: NAWXER_clean_sbu_0, # of connection points: 4
#     Node 14, Type 1, BuildingBlock: NAWXER_clean_sbu_0, # of connection points: 4
#     Node 15, Type 1, BuildingBlock: NAWXER_clean_sbu_0, # of connection points: 4
#     Edge 16, Type (0, 1), BuildingBlock: XIVTED_clean_linker_0, # of connection points: 2
#     Edge 17, Type (0, 1), BuildingBlock: XIVTED_clean_linker_0, # of connection points: 2
#     Edge 18, Type (0, 1), BuildingBlock: XIVTED_clean_linker_0, # of connection points: 2
#     Edge 19, Type (0, 1), BuildingBlock: XIVTED_clean_linker_0, # of connection points: 2
#     Edge 20, Type (0, 1), BuildingBlock: XIVTED_clean_linker_0, # of connection points: 2
#     Edge 21, Type (0, 1), BuildingBlock: XIVTED_clean_linker_0, # of connection points: 2
#     Edge 22, Type (0, 1), BuildingBlock: XIVTED_clean_linker_0, # of connection points: 2
#     Edge 23, Type (0, 1), BuildingBlock: XIVTED_clean_linker_0, # of connection points: 2
#     Edge 24, Type (0, 1), BuildingBlock: XIVTED_clean_linker_0, # of connection points: 2
#     Edge 25, Type (0, 1), BuildingBlock: XIVTED_clean_linker_0, # of connection points: 2
#     Edge 26, Type (0, 1), BuildingBlock: XIVTED_clean_linker_0, # of connection points: 2
#     Edge 27, Type (0, 1), BuildingBlock: XIVTED_clean_linker_0, # of connection points: 2
#     Edge 28, Type (0, 1), BuildingBlock: XIVTED_clean_linker_0, # of connection points: 2
#     Edge 29, Type (0, 1), BuildingBlock: XIVTED_clean_linker_0, # of connection points: 2
#     Edge 30, Type (0, 1), BuildingBlock: XIVTED_clean_linker_0, # of connection points: 2
#     Edge 31, Type (0, 1), BuildingBlock: XIVTED_clean_linker_0, # of connection points: 2
#     Edge 32, Type (0, 1), BuildingBlock: XIVTED_clean_linker_0, # of connection points: 2
#     Edge 33, Type (0, 1), BuildingBlock: XIVTED_clean_linker_0, # of connection points: 2
#     Edge 34, Type (0, 1), BuildingBlock: XIVTED_clean_linker_0, # of connection points: 2
#     Edge 35, Type (0, 1), BuildingBlock: XIVTED_clean_linker_0, # of connection points: 2
#     Edge 36, Type (0, 1), BuildingBlock: XIVTED_clean_linker_0, # of connection points: 2
#     Edge 37, Type (0, 1), BuildingBlock: XIVTED_clean_linker_0, # of connection points: 2
#     Edge 38, Type (0, 1), BuildingBlock: XIVTED_clean_linker_0, # of connection points: 2
#     Edge 39, Type (0, 1), BuildingBlock: XIVTED_clean_linker_0, # of connection points: 2
#     Edge 40, Type (0, 1), BuildingBlock: XIVTED_clean_linker_0, # of connection points: 2
#     Edge 41, Type (0, 1), BuildingBlock: XIVTED_clean_linker_0, # of connection points: 2
#     Edge 42, Type (0, 1), BuildingBlock: XIVTED_clean_linker_0, # of connection points: 2
#     Edge 43, Type (0, 1), BuildingBlock: XIVTED_clean_linker_0, # of connection points: 2
#     Edge 44, Type (0, 1), BuildingBlock: XIVTED_clean_linker_0, # of connection points: 2
#     Edge 45, Type (0, 1), BuildingBlock: XIVTED_clean_linker_0, # of connection points: 2
#     Edge 46, Type (0, 1), BuildingBlock: XIVTED_clean_linker_0, # of connection points: 2
#     Edge 47, Type (0, 1), BuildingBlock: XIVTED_clean_linker_0, # of connection points: 2
# Relax obj value: 0.002
# Max RMSD: 0.009
# Mean RMSD: 0.008
data_MOF--net-ssb--node1-NAWXER_clean_sbu_0--node2-NAWXER_clean_sbu_0--edge1-XIVTED_clean_linker_0
_symmetry_space_group_name_H-M    P1
_symmetry_Int_Tables_number       1
_symmetry_cell_setting            triclinic
loop_
_symmetry_equiv_pos_as_xyz
'x, y, z'
_cell_length_a     44.790206
_cell_length_b     44.45215
_cell_length_c     37.633021
_cell_angle_alpha  89.558584
_cell_angle_beta   89.821799
_cell_angle_gamma 89.709985
loop_
_atom_site_label
_atom_site_type_symbol
_atom_site_fract_x
_atom_site_fract_y
_atom_site_fract_z
_atom_type_partial_charge
C0 C 0.21862 0.25424 0.32166 0.0
C1 C 0.30812 0.24391 0.24701 0.0
O2 O 0.2144 0.2397 0.29288 0.0
Zn3 Zn 0.23807 0.22736 0.24613 0.0
O4 O 0.24362 0.26696 0.32679 0.0
Zn5 Zn 0.26387 0.25332 0.28357 0.0
O6 O 0.24466 0.27912 0.24205 0.0
O7 O 0.21876 0.24977 0.20694 0.0
O8 O 0.30648 0.25988 0.27496 0.0
O9 O 0.28455 0.23181 0.23444 0.0
O10 O 0.23653 0.18342 0.25089 0.0
O11 O 0.26465 0.20569 0.29108 0.0
C12 C 0.22835 0.27585 0.21449 0.0
C13 C 0.25417 0.18168 0.27741 0.0
C14 C 0.73111 0.26256 0.2166 0.0
C15 C 0.81027 0.27439 0.30522 0.0
O16 O 0.72388 0.27865 0.2434 0.0
Zn17 Zn 0.7422 0.29391 0.29223 0.0
O18 O 0.75658 0.24966 0.21562 0.0
Zn19 Zn 0.771 0.26559 0.26062 0.0
O20 O 0.74349 0.24183 0.29727 0.0
O21 O 0.71709 0.27435 0.32842 0.0
O22 O 0.81143 0.2577 0.27792 0.0
O23 O 0.78603 0.28843 0.31258 0.0
O24 O 0.74085 0.33714 0.283 0.0
O25 O 0.77223 0.31268 0.24804 0.0
C26 C 0.72411 0.24724 0.32148 0.0
C27 C 0.75988 0.33738 0.25773 0.0
C28 C 0.75965 0.74181 0.19573 0.0
C29 C 0.77386 0.8401 0.2505 0.0
O30 O 0.74506 0.74462 0.22491 0.0
Zn31 Zn 0.73945 0.77789 0.2655 0.0
O32 O 0.77707 0.76274 0.18576 0.0
Zn33 Zn 0.76909 0.79092 0.22367 0.0
O34 O 0.79071 0.77196 0.26921 0.0
O35 O 0.75607 0.76094 0.30896 0.0
O36 O 0.78704 0.83081 0.22264 0.0
O37 O 0.75608 0.82283 0.2677 0.0
O38 O 0.69702 0.78568 0.26229 0.0
O39 O 0.72259 0.80167 0.21555 0.0
C40 C 0.78344 0.76215 0.30012 0.0
C41 C 0.69764 0.79862 0.232 0.0
C42 C 0.2731 0.67971 0.2636 0.0
C43 C 0.26193 0.77568 0.32611 0.0
O44 O 0.25597 0.6988 0.2481 0.0
Zn45 Zn 0.24118 0.74427 0.25371 0.0
O46 O 0.28677 0.68682 0.29191 0.0
Zn47 Zn 0.27011 0.72756 0.29458 0.0
O48 O 0.22327 0.71841 0.30158 0.0
O49 O 0.1985 0.73834 0.25634 0.0
O50 O 0.27851 0.7535 0.33472 0.0
O51 O 0.24763 0.77497 0.29665 0.0
O52 O 0.25891 0.76255 0.21159 0.0
O53 O 0.29267 0.74785 0.25069 0.0
C54 C 0.19855 0.72354 0.28544 0.0
C55 C 0.28611 0.75954 0.22049 0.0
C56 C 0.30351 0.76674 0.7914 0.0
C57 C 0.21619 0.7544 0.71448 0.0
O58 O 0.2791 0.77773 0.80361 0.0
Zn59 Zn 0.23281 0.78089 0.79087 0.0
O60 O 0.30328 0.75117 0.76308 0.0
Zn61 Zn 0.26061 0.75619 0.75353 0.0
O62 O 0.25958 0.80377 0.74689 0.0
O63 O 0.22967 0.8249 0.78658 0.0
O64 O 0.24179 0.74253 0.70962 0.0
O65 O 0.2108 0.76838 0.74344 0.0
O66 O 0.21369 0.75719 0.8292 0.0
O67 O 0.24173 0.72931 0.79422 0.0
C68 C 0.2479 0.82733 0.76058 0.0
C69 C 0.22472 0.7316 0.82145 0.0
C70 C 0.2686 0.22523 0.71119 0.0
C71 C 0.2814 0.31979 0.77566 0.0
O72 O 0.25437 0.22582 0.7408 0.0
Zn73 Zn 0.24879 0.25585 0.78472 0.0
O74 O 0.28582 0.24692 0.70314 0.0
Zn75 Zn 0.27798 0.27224 0.74413 0.0
O76 O 0.3003 0.25039 0.78736 0.0
O77 O 0.26602 0.23612 0.82606 0.0
O78 O 0.29501 0.31259 0.74721 0.0
O79 O 0.26406 0.30095 0.7911 0.0
O80 O 0.20624 0.26284 0.78276 0.0
O81 O 0.23117 0.28258 0.7375 0.0
C82 C 0.29331 0.23825 0.8172 0.0
C83 C 0.20641 0.27786 0.75382 0.0
C84 C 0.73427 0.20512 0.73121 0.0
C85 C 0.73691 0.29057 0.8127 0.0
O86 O 0.72035 0.23 0.72711 0.0
Zn87 Zn 0.73554 0.2484 0.76998 0.0
O88 O 0.75029 0.20064 0.75895 0.0
Zn89 Zn 0.76396 0.22394 0.80598 0.0
O90 O 0.7462 0.19863 0.84307 0.0
O91 O 0.71313 0.22155 0.80877 0.0
O92 O 0.75237 0.26793 0.8234 0.0
O93 O 0.72414 0.28947 0.78264 0.0
O94 O 0.78202 0.24885 0.75636 0.0
O95 O 0.80713 0.22481 0.79836 0.0
C96 C 0.71911 0.20365 0.83465 0.0
C97 C 0.80676 0.23863 0.76862 0.0
C98 C 0.79967 0.74757 0.71947 0.0
C99 C 0.71461 0.76839 0.79748 0.0
O100 O 0.77481 0.73715 0.70825 0.0
Zn101 Zn 0.72851 0.73694 0.7228 0.0
O102 O 0.8001 0.76399 0.74705 0.0
Zn103 Zn 0.75773 0.76133 0.75766 0.0
O104 O 0.75462 0.71434 0.76766 0.0
O105 O 0.72273 0.69354 0.73064 0.0
O106 O 0.74133 0.77712 0.80184 0.0
O107 O 0.70756 0.75422 0.76924 0.0
O108 O 0.70941 0.75924 0.68369 0.0
O109 O 0.73846 0.78794 0.71606 0.0
C110 C 0.7412 0.69103 0.75623 0.0
C111 C 0.72079 0.7849 0.68958 0.0
C112 C 0.96909 0.24356 0.58639 0.0
C113 C 0.05253 0.25143 0.50173 0.0
O114 O 0.97516 0.27061 0.57698 0.0
Zn115 Zn 0.00429 0.29378 0.54073 0.0
O116 O 0.9825 0.22165 0.57156 0.0
Zn117 Zn 0.00927 0.24568 0.54185 0.0
O118 O 0.03329 0.26998 0.58149 0.0
O119 O 0.02596 0.31894 0.57381 0.0
O120 O 0.0414 0.22727 0.51427 0.0
O121 O 0.0406 0.27677 0.50966 0.0
O122 O 0.97727 0.31125 0.50543 0.0
O123 O 0.98046 0.26193 0.50141 0.0
C124 C 0.03779 0.29719 0.59106 0.0
C125 C 0.96995 0.28702 0.49004 0.0
C126 C 0.73846 0.04733 0.54289 0.0
C127 C 0.753 0.9896 0.43469 0.0
O128 O 0.7633 0.03981 0.52893 0.0
Zn129 Zn 0.74682 0.01655 0.49088 0.0
O130 O 0.71397 0.03734 0.53002 0.0
Zn131 Zn 0.69964 0.00972 0.48655 0.0
O132 O 0.68254 0.97401 0.51034 0.0
O133 O 0.73091 0.97809 0.51899 0.0
O134 O 0.72553 0.99177 0.444 0.0
O135 O 0.77315 1.00021 0.45461 0.0
O136 O 0.7225 0.05145 0.4635 0.0
O137 O 0.67479 0.03896 0.46075 0.0
C138 C 0.70639 0.96411 0.52462 0.0
C139 C 0.69568 0.05753 0.45402 0.0
C140 C 0.97101 0.70951 0.55946 0.0
C141 C 0.03127 0.70256 0.45115 0.0
O142 O 0.97884 0.7349 0.54638 0.0
Zn143 Zn 0.00276 0.75263 0.50268 0.0
O144 O 0.97869 0.68532 0.54396 0.0
Zn145 Zn 1.00145 0.70408 0.50539 0.0
O146 O 0.03824 0.72408 0.5321 0.0
O147 O 0.03525 0.77347 0.52652 0.0
O148 O 0.02228 0.68035 0.46984 0.0
O149 O 0.02536 0.72952 0.46086 0.0
O150 O 0.97119 0.77407 0.47694 0.0
O151 O 0.96711 0.72463 0.47421 0.0
C152 C 0.04881 0.75023 0.53834 0.0
C153 C 0.95771 0.75093 0.46551 0.0
C154 C 0.23927 0.05294 0.54508 0.0
C155 C 0.23879 0.95326 0.48702 0.0
O156 O 0.26486 0.04131 0.53861 0.0
Zn157 Zn 0.28466 1.00218 0.51705 0.0
O158 O 0.21567 0.03872 0.53671 0.0
Zn159 Zn 0.23568 1.00318 0.51597 0.0
O160 O 0.25475 0.98436 0.56227 0.0
O161 O 0.30402 0.98455 0.55914 0.0
O162 O 0.21538 0.96845 0.49446 0.0
O163 O 0.2645 0.96383 0.49455 0.0
O164 O 0.30608 0.01919 0.47603 0.0
O165 O 0.25699 0.02131 0.47062 0.0
C166 C 0.28014 0.97858 0.57628 0.0
C167 C 0.28304 0.02616 0.45787 0.0
C168 C 0.46164 0.76555 0.056 0.0
C169 C 0.54903 0.76798 0.97652 0.0
O170 O 0.46908 0.79185 0.04522 0.0
Zn171 Zn 0.50095 0.81284 1.01119 0.0
O172 O 0.47624 0.7426 0.04545 0.0
Zn173 Zn 0.50577 0.76444 0.01689 0.0
O174 O 0.52784 0.79032 0.05594 0.0
O175 O 0.52235 0.83882 0.04403 0.0
O176 O 0.53943 0.74469 0.99274 0.0
O177 O 0.53638 0.79347 0.98152 0.0
O178 O 0.47565 0.82866 0.97324 0.0
O179 O 0.47919 0.77907 0.97339 0.0
C180 C 0.53276 0.81784 0.06368 0.0
C181 C 0.46926 0.80345 0.95936 0.0
C182 C 0.27283 0.5309 0.07215 0.0
C183 C 0.27569 0.47396 0.96142 0.0
O184 O 0.29589 0.52326 0.05453 0.0
Zn185 Zn 0.27507 0.50279 0.01658 0.0
O186 O 0.24684 0.52438 0.0603 0.0
Zn187 Zn 0.22728 0.5021 0.01563 0.0
O188 O 0.20586 0.46887 0.03864 0.0
O189 O 0.25478 0.466 0.04468 0.0
O190 O 0.24908 0.4799 0.97209 0.0
O191 O 0.29783 0.48261 0.97971 0.0
O192 O 0.25449 0.53918 0.98788 0.0
O193 O 0.20556 0.53491 0.99195 0.0
C194 C 0.22872 0.45545 0.0512 0.0
C195 C 0.22828 0.54908 0.98046 0.0
C196 C 0.54278 0.17804 0.98371 0.0
C197 C 0.478 0.20371 0.08391 0.0
O198 O 0.53651 0.20616 0.98567 0.0
Zn199 Zn 0.51181 0.23613 0.01938 0.0
O200 O 0.53184 0.15954 1.00616 0.0
Zn201 Zn 0.50947 0.18934 0.03283 0.0
O202 O 0.47632 0.20454 0.99546 0.0
O203 O 0.48214 0.2535 0.98791 0.0
O204 O 0.48604 0.17753 0.07427 0.0
O205 O 0.48629 0.22661 0.06568 0.0
O206 O 0.54376 0.26075 0.03823 0.0
O207 O 0.54618 0.21316 0.05526 0.0
C208 C 0.46813 0.22946 0.98099 0.0
C209 C 0.55707 0.23975 0.05516 0.0
C210 C 0.72793 0.56283 0.03921 0.0
C211 C 0.71865 0.46654 0.97571 0.0
O212 O 0.75252 0.55084 0.02909 0.0
Zn213 Zn 0.76892 0.51217 1.00283 0.0
O214 O 0.70335 0.54957 0.0329 0.0
Zn215 Zn 0.72042 0.51462 1.008 0.0
O216 O 0.74292 0.49244 0.05049 0.0
O217 O 0.79154 0.49188 0.04057 0.0
O218 O 0.69662 0.48212 0.9869 0.0
O219 O 0.74532 0.47572 0.98072 0.0
O220 O 0.78741 0.53005 0.96041 0.0
O221 O 0.73827 0.53428 0.96109 0.0
C222 C 0.76936 0.48522 0.06037 0.0
C223 C 0.76331 0.53873 0.94551 0.0
H224 H 0.17163 0.21585 0.32669 0.0
H225 H 0.091 0.29741 0.48765 0.0
H226 H 0.21164 0.29123 0.37986 0.0
H227 H 0.07401 0.20483 0.46107 0.0
H228 H 0.13267 0.29791 0.4455 0.0
H229 H 0.1329 0.21409 0.37227 0.0
C230 C 0.17222 0.23219 0.34788 0.0
C231 C 0.19491 0.25387 0.3493 0.0
C232 C 0.11996 0.27744 0.44907 0.0
C233 C 0.15035 0.25188 0.40174 0.0
C234 C 0.09609 0.27712 0.47301 0.0
C235 C 0.07889 0.25103 0.4778 0.0
C236 C 0.12642 0.25166 0.42918 0.0
C237 C 0.08668 0.22539 0.45828 0.0
C238 C 0.15017 0.23097 0.37406 0.0
C239 C 0.19458 0.27419 0.37768 0.0
N240 N 0.10967 0.22645 0.43453 0.0
N241 N 0.17249 0.27286 0.40265 0.0
H242 H 0.71147 0.19202 0.29538 0.0
H243 H 0.70948 0.11187 0.48065 0.0
H244 H 0.70746 0.24354 0.39188 0.0
H245 H 0.6704 0.07004 0.38913 0.0
H246 H 0.70872 0.16037 0.4493 0.0
H247 H 0.69634 0.14718 0.32877 0.0
C248 C 0.70701 0.19394 0.3236 0.0
C249 C 0.71087 0.22149 0.34097 0.0
C250 C 0.69971 0.14077 0.43629 0.0
C251 C 0.69411 0.17006 0.37947 0.0
C252 C 0.70015 0.11313 0.45413 0.0
C253 C 0.68984 0.08711 0.4374 0.0
C254 C 0.68977 0.14222 0.40099 0.0
C255 C 0.67826 0.08973 0.40297 0.0
C256 C 0.69826 0.16836 0.34259 0.0
C257 C 0.70468 0.22276 0.37749 0.0
N258 N 0.67907 0.11674 0.38558 0.0
N259 N 0.69717 0.19724 0.39571 0.0
H260 H 0.8377 0.73642 0.2879 0.0
H261 H 0.91359 0.79439 0.46364 0.0
H262 H 0.78409 0.776 0.37079 0.0
H263 H 0.9427 0.71255 0.41304 0.0
H264 H 0.86923 0.79508 0.42487 0.0
H265 H 0.87996 0.73352 0.32907 0.0
C266 C 0.83475 0.74408 0.31496 0.0
C267 C 0.80734 0.75609 0.32618 0.0
C268 C 0.88542 0.77703 0.42243 0.0
C269 C 0.85579 0.75399 0.37281 0.0
C270 C 0.91076 0.77678 0.44422 0.0
C271 C 0.93174 0.75337 0.44149 0.0
C272 C 0.88165 0.75417 0.39724 0.0
C273 C 0.92696 0.73093 0.41611 0.0
C274 C 0.85884 0.74254 0.33833 0.0
C275 C 0.80476 0.76611 0.36136 0.0
N276 N 0.9026 0.73203 0.39476 0.0
N277 N 0.82886 0.76527 0.38337 0.0
H278 H 0.22219 0.82252 0.31954 0.0
H279 H 0.27786 0.90687 0.49343 0.0
H280 H 0.29055 0.78725 0.38913 0.0
H281 H 0.19857 0.93388 0.43663 0.0
H282 H 0.28218 0.8627 0.45581 0.0
H283 H 0.21335 0.86357 0.36123 0.0
C284 C 0.23548 0.82344 0.3435 0.0
C285 C 0.25733 0.80138 0.35066 0.0
C286 C 0.2636 0.878 0.45171 0.0
C287 C 0.24707 0.84842 0.39873 0.0
C288 C 0.26106 0.90324 0.47328 0.0
C289 C 0.23781 0.92413 0.46814 0.0
C290 C 0.24302 0.87366 0.42422 0.0
C291 C 0.2167 0.91824 0.44165 0.0
C292 C 0.23023 0.84682 0.36742 0.0
C293 C 0.27359 0.80373 0.38234 0.0
N294 N 0.22002 0.89372 0.42034 0.0
N295 N 0.26822 0.82684 0.40506 0.0
H296 H 0.16805 0.79166 0.70917 0.0
H297 H 0.0914 0.70715 0.54909 0.0
H298 H 0.21148 0.71777 0.65572 0.0
H299 H 0.06835 0.79818 0.57769 0.0
H300 H 0.13398 0.70895 0.58947 0.0
H301 H 0.12963 0.79244 0.66352 0.0
C302 C 0.16948 0.77546 0.68787 0.0
C303 C 0.19297 0.75442 0.68646 0.0
C304 C 0.1198 0.72863 0.58667 0.0
C305 C 0.14878 0.7553 0.63389 0.0
C306 C 0.09542 0.72763 0.56371 0.0
C307 C 0.07617 0.75254 0.56016 0.0
C308 C 0.12474 0.75453 0.6068 0.0
C309 C 0.08261 0.7785 0.57958 0.0
C310 C 0.1476 0.77612 0.66163 0.0
C311 C 0.19375 0.7343 0.6579 0.0
N312 N 0.10614 0.77869 0.60242 0.0
N313 N 0.17178 0.73504 0.63289 0.0
H314 H 0.22763 0.1798 0.71685 0.0
H315 H 0.27851 0.09868 0.53809 0.0
H316 H 0.29611 0.21445 0.64698 0.0
H317 H 0.19982 0.07251 0.59662 0.0
H318 H 0.2842 0.14191 0.57689 0.0
H319 H 0.21696 0.14054 0.67364 0.0
C320 C 0.24057 0.17911 0.69251 0.0
C321 C 0.263 0.20046 0.68573 0.0
C322 C 0.26543 0.12704 0.58109 0.0
C323 C 0.25061 0.15549 0.63588 0.0
C324 C 0.26208 0.10238 0.55882 0.0
C325 C 0.23863 0.08197 0.56413 0.0
C326 C 0.24548 0.13122 0.60946 0.0
C327 C 0.21805 0.08784 0.59142 0.0
C328 C 0.23427 0.15675 0.66772 0.0
C329 C 0.27875 0.19847 0.65352 0.0
N330 N 0.22219 0.11172 0.61343 0.0
N331 N 0.27234 0.17635 0.62993 0.0
H332 H 0.86629 0.24832 0.78393 0.0
H333 H 0.92541 0.20064 0.59232 0.0
H334 H 0.80637 0.22608 0.6987 0.0
H335 H 0.9641 0.27582 0.64697 0.0
H336 H 0.88712 0.19708 0.63938 0.0
H337 H 0.90836 0.24658 0.74123 0.0
C338 C 0.86207 0.24301 0.75637 0.0
C339 C 0.83289 0.23787 0.74459 0.0
C340 C 0.90428 0.21409 0.64113 0.0
C341 C 0.8805 0.23469 0.69644 0.0
C342 C 0.92608 0.21603 0.61448 0.0
C343 C 0.94763 0.23872 0.61572 0.0
C344 C 0.9047 0.23441 0.66959 0.0
C345 C 0.94756 0.25824 0.64493 0.0
C346 C 0.88593 0.242 0.73214 0.0
C347 C 0.82851 0.23078 0.70867 0.0
N348 N 0.92647 0.2556 0.67081 0.0
N349 N 0.85204 0.22918 0.68593 0.0
H350 H 0.68128 0.79055 0.63314 0.0
H351 H 0.75014 0.94752 0.57067 0.0
H352 H 0.74841 0.83931 0.69085 0.0
H353 H 0.66341 0.91978 0.53394 0.0
H354 H 0.75164 0.9043 0.61043 0.0
H355 H 0.67562 0.83422 0.59281 0.0
C356 C 0.69471 0.81037 0.63746 0.0
C357 C 0.71543 0.81112 0.66547 0.0
C358 C 0.73218 0.90757 0.59381 0.0
C359 C 0.70928 0.86084 0.6193 0.0
C360 C 0.73134 0.93228 0.57086 0.0
C361 C 0.70659 0.93742 0.54879 0.0
C362 C 0.70826 0.8873 0.59472 0.0
C363 C 0.6829 0.91677 0.55055 0.0
C364 C 0.69141 0.83527 0.61449 0.0
C365 C 0.73217 0.83748 0.66975 0.0
N366 N 0.68438 0.89246 0.573 0.0
N367 N 0.72888 0.86101 0.64688 0.0
H368 H 0.80705 0.7018 0.67267 0.0
H369 H 0.96857 0.75142 0.61139 0.0
H370 H 0.85565 0.77273 0.72424 0.0
H371 H 0.92785 0.66859 0.57815 0.0
H372 H 0.92942 0.75763 0.65596 0.0
H373 H 0.85206 0.68792 0.64025 0.0
C374 C 0.82724 0.71452 0.67719 0.0
C375 C 0.82747 0.7388 0.70086 0.0
C376 C 0.92925 0.73781 0.63939 0.0
C377 C 0.87929 0.72283 0.6637 0.0
C378 C 0.95161 0.73423 0.61395 0.0
C379 C 0.95121 0.70959 0.59084 0.0
C380 C 0.90598 0.71689 0.64135 0.0
C381 C 0.92893 0.6879 0.59544 0.0
C382 C 0.85303 0.70637 0.65883 0.0
C383 C 0.85443 0.75404 0.70605 0.0
N384 N 0.90685 0.69233 0.61979 0.0
N385 N 0.87921 0.74602 0.68726 0.0
H386 H 0.30196 0.84212 0.73409 0.0
H387 H 0.2366 0.98147 0.62636 0.0
H388 H 0.21365 0.87848 0.75079 0.0
H389 H 0.32355 0.94264 0.60696 0.0
H390 H 0.23199 0.95091 0.68002 0.0
H391 H 0.31413 0.88532 0.69666 0.0
C392 C 0.28525 0.85958 0.73032 0.0
C393 C 0.25657 0.85658 0.74505 0.0
C394 C 0.25228 0.94931 0.6644 0.0
C395 C 0.27025 0.90593 0.70168 0.0
C396 C 0.25496 0.96673 0.63367 0.0
C397 C 0.28031 0.96415 0.61179 0.0
C398 C 0.27499 0.92883 0.67328 0.0
C399 C 0.30356 0.94515 0.62293 0.0
C400 C 0.29224 0.88422 0.7089 0.0
C401 C 0.23596 0.87994 0.7398 0.0
N402 N 0.30012 0.92781 0.65265 0.0
N403 N 0.24303 0.90345 0.71793 0.0
H404 H 0.19976 0.32044 0.70182 0.0
H405 H 0.03977 0.26356 0.65102 0.0
H406 H 0.14923 0.25924 0.76788 0.0
H407 H 0.0795 0.3414 0.60129 0.0
H408 H 0.0773 0.26533 0.6977 0.0
H409 H 0.15453 0.33222 0.6684 0.0
C410 C 0.17903 0.30974 0.70959 0.0
C411 C 0.17834 0.28842 0.7373 0.0
C412 C 0.07761 0.28241 0.67702 0.0
C413 C 0.12653 0.30168 0.69893 0.0
C414 C 0.05622 0.28136 0.65033 0.0
C415 C 0.05688 0.30217 0.62218 0.0
C416 C 0.1003 0.304 0.6751 0.0
C417 C 0.07837 0.32494 0.6226 0.0
C418 C 0.15318 0.31661 0.69056 0.0
C419 C 0.15082 0.27561 0.74652 0.0
N420 N 0.0997 0.32489 0.64831 0.0
N421 N 0.1261 0.28205 0.72696 0.0
H422 H 0.77483 0.16025 0.72272 0.0
H423 H 0.69 0.07953 0.56509 0.0
H424 H 0.69419 0.19694 0.67665 0.0
H425 H 0.78392 0.06625 0.58591 0.0
H426 H 0.68842 0.11832 0.61068 0.0
H427 H 0.77568 0.12155 0.67739 0.0
C428 C 0.75714 0.16008 0.70314 0.0
C429 C 0.73425 0.18178 0.70356 0.0
C430 C 0.70934 0.10688 0.60527 0.0
C431 C 0.73522 0.13736 0.65154 0.0
C432 C 0.71026 0.08457 0.57948 0.0
C433 C 0.73717 0.06953 0.57181 0.0
C434 C 0.73539 0.11394 0.62388 0.0
C435 C 0.76274 0.07725 0.591 0.0
C436 C 0.7578 0.13804 0.67715 0.0
C437 C 0.71221 0.18063 0.67725 0.0
N438 N 0.76119 0.09886 0.6163 0.0
N439 N 0.71311 0.15859 0.65234 0.0
H440 H 0.81903 0.31882 0.35334 0.0
H441 H 0.96052 0.24151 0.44328 0.0
H442 H 0.8607 0.23882 0.31135 0.0
H443 H 0.93213 0.33212 0.46696 0.0
H444 H 0.92416 0.23986 0.39524 0.0
H445 H 0.86001 0.32381 0.39525 0.0
C446 C 0.83689 0.3023 0.35285 0.0
C447 C 0.83629 0.27819 0.32894 0.0
C448 C 0.926 0.26019 0.41072 0.0
C449 C 0.88338 0.28378 0.3772 0.0
C450 C 0.94669 0.26116 0.4383 0.0
C451 C 0.94923 0.28696 0.45942 0.0
C452 C 0.90734 0.28506 0.40436 0.0
C453 C 0.93091 0.31177 0.45144 0.0
C454 C 0.86037 0.30527 0.37674 0.0
C455 C 0.86022 0.25771 0.32933 0.0
N456 N 0.91052 0.31009 0.42477 0.0
N457 N 0.88267 0.26079 0.35338 0.0
H458 H 0.8222 0.86173 0.28561 0.0
H459 H 0.71675 0.98219 0.37785 0.0
H460 H 0.73392 0.88548 0.24981 0.0
H461 H 0.80615 0.96319 0.41434 0.0
H462 H 0.72673 0.95334 0.3245 0.0
H463 H 0.82139 0.90525 0.32553 0.0
C464 C 0.80322 0.87694 0.28508 0.0
C465 C 0.77822 0.87047 0.26427 0.0
C466 C 0.74437 0.95562 0.3439 0.0
C467 C 0.77657 0.91928 0.31047 0.0
C468 C 0.73861 0.97202 0.37452 0.0
C469 C 0.76049 0.97464 0.40085 0.0
C470 C 0.77209 0.94116 0.33967 0.0
C471 C 0.78858 0.96148 0.39477 0.0
C472 C 0.80258 0.90151 0.30814 0.0
C473 C 0.75374 0.89009 0.26523 0.0
N474 N 0.79345 0.94483 0.36503 0.0
N475 N 0.75338 0.9134 0.28828 0.0
H476 H 0.19169 0.67975 0.33578 0.0
H477 H 0.03281 0.73828 0.39255 0.0
H478 H 0.14156 0.74425 0.2735 0.0
H479 H 0.07235 0.65801 0.43752 0.0
H480 H 0.0699 0.73746 0.34501 0.0
H481 H 0.14662 0.66803 0.36958 0.0
C482 C 0.17107 0.69121 0.32894 0.0
C483 C 0.17045 0.71337 0.30216 0.0
C484 C 0.07022 0.71967 0.36483 0.0
C485 C 0.11879 0.70021 0.34099 0.0
C486 C 0.04908 0.72015 0.39201 0.0
C487 C 0.04982 0.69837 0.41916 0.0
C488 C 0.09272 0.6976 0.3652 0.0
C489 C 0.07111 0.67524 0.41709 0.0
C490 C 0.1453 0.68439 0.34816 0.0
C491 C 0.14307 0.72718 0.29409 0.0
N492 N 0.09216 0.6758 0.39093 0.0
N493 N 0.11841 0.72075 0.31388 0.0
H494 H 0.30655 0.16926 0.31001 0.0
H495 H 0.24279 0.02314 0.40446 0.0
H496 H 0.22274 0.12854 0.28203 0.0
H497 H 0.32691 0.06361 0.43165 0.0
H498 H 0.23983 0.05542 0.35199 0.0
H499 H 0.31881 0.12538 0.34632 0.0
C500 C 0.29085 0.1508 0.31118 0.0
C501 C 0.26332 0.15271 0.29352 0.0
C502 C 0.2592 0.05699 0.36901 0.0
C503 C 0.27713 0.10242 0.3355 0.0
C504 C 0.26094 0.03855 0.39902 0.0
C505 C 0.28493 0.0411 0.42275 0.0
C506 C 0.28143 0.07848 0.36282 0.0
C507 C 0.30798 0.06106 0.41414 0.0
C508 C 0.29792 0.12572 0.33191 0.0
C509 C 0.2441 0.128 0.29541 0.0
N510 N 0.30539 0.07942 0.38516 0.0
N511 N 0.25115 0.10404 0.31663 0.0
H512 H 0.72163 0.76438 0.86984 0.0
H513 H 0.55147 0.79774 0.91402 0.0
H514 H 0.65543 0.7787 0.78842 0.0
H515 H 0.60204 0.73588 0.9793 0.0
H516 H 0.59269 0.79939 0.87151 0.0
H517 H 0.68135 0.76285 0.91471 0.0
C518 C 0.69871 0.76781 0.86156 0.0
C519 C 0.69175 0.77189 0.82549 0.0
C520 C 0.59477 0.78536 0.89504 0.0
C521 C 0.64601 0.77006 0.87622 0.0
C522 C 0.5713 0.78439 0.91929 0.0
C523 C 0.57337 0.76651 0.95006 0.0
C524 C 0.62091 0.76889 0.90189 0.0
C525 C 0.59954 0.74967 0.95565 0.0
C526 C 0.67583 0.76652 0.88701 0.0
C527 C 0.66171 0.77561 0.81597 0.0
N528 N 0.62256 0.7515 0.93189 0.0
N529 N 0.63999 0.77479 0.84118 0.0
H530 H 0.1892 0.72432 0.88177 0.0
H531 H 0.26985 0.57153 0.93515 0.0
H532 H 0.25127 0.67697 0.81395 0.0
H533 H 0.1803 0.58837 0.97299 0.0
H534 H 0.26612 0.61564 0.89684 0.0
H535 H 0.18731 0.67948 0.92099 0.0
C536 C 0.20219 0.70457 0.87495 0.0
C537 C 0.22055 0.70459 0.84454 0.0
C538 C 0.2472 0.60973 0.91344 0.0
C539 C 0.21883 0.6538 0.88936 0.0
C540 C 0.24935 0.58458 0.93551 0.0
C541 C 0.22532 0.57614 0.95732 0.0
C542 C 0.22099 0.62715 0.91333 0.0
C543 C 0.19929 0.594 0.95642 0.0
C544 C 0.20105 0.67905 0.89727 0.0
C545 C 0.23687 0.67829 0.83704 0.0
N546 N 0.19785 0.61889 0.93491 0.0
N547 N 0.23586 0.65427 0.85939 0.0
H548 H 0.34756 0.21252 0.80356 0.0
H549 H 0.42576 0.27355 0.97345 0.0
H550 H 0.29415 0.24965 0.8882 0.0
H551 H 0.45124 0.18614 0.93436 0.0
H552 H 0.38133 0.27242 0.93515 0.0
H553 H 0.39005 0.20852 0.84464 0.0
C554 C 0.34469 0.21934 0.83094 0.0
C555 C 0.3173 0.23106 0.84273 0.0
C556 C 0.39672 0.25354 0.93508 0.0
C557 C 0.36589 0.22786 0.88902 0.0
C558 C 0.4221 0.25428 0.95659 0.0
C559 C 0.4421 0.2299 0.95697 0.0
C560 C 0.3919 0.2287 0.91307 0.0
C561 C 0.43625 0.20532 0.93487 0.0
C562 C 0.36887 0.21715 0.85422 0.0
C563 C 0.31479 0.24003 0.8783 0.0
N564 N 0.41185 0.20549 0.91342 0.0
N565 N 0.33897 0.23878 0.90008 0.0
H566 H 0.76536 0.30072 0.87522 0.0
H567 H 0.6774 0.45274 0.92386 0.0
H568 H 0.69866 0.33941 0.80579 0.0
H569 H 0.7529 0.41679 0.98117 0.0
H570 H 0.67984 0.40908 0.88373 0.0
H571 H 0.75696 0.34127 0.91686 0.0
C572 C 0.74898 0.31786 0.86858 0.0
C573 C 0.73281 0.31662 0.83676 0.0
C574 C 0.69557 0.41064 0.90541 0.0
C575 C 0.72281 0.3635 0.88496 0.0
C576 C 0.69394 0.43531 0.92851 0.0
C577 C 0.71497 0.43827 0.95582 0.0
C578 C 0.71823 0.38889 0.91004 0.0
C579 C 0.73631 0.4154 0.96037 0.0
C580 C 0.74411 0.34108 0.89254 0.0
C581 C 0.7118 0.33957 0.82988 0.0
N582 N 0.73744 0.39186 0.93772 0.0
N583 N 0.70737 0.3621 0.85381 0.0
H584 H 0.72416 0.21667 0.16846 0.0
H585 H 0.58061 0.29345 0.07746 0.0
H586 H 0.68879 0.30342 0.1981 0.0
H587 H 0.59819 0.1979 0.07577 0.0
H588 H 0.62644 0.30032 0.11202 0.0
H589 H 0.68407 0.21234 0.1242 0.0
C590 C 0.70823 0.2349 0.16533 0.0
C591 C 0.7095 0.26022 0.18721 0.0
C592 C 0.62028 0.27789 0.10386 0.0
C593 C 0.66401 0.25562 0.13684 0.0
C594 C 0.59419 0.274 0.08413 0.0
C595 C 0.58537 0.24505 0.07419 0.0
C596 C 0.6378 0.25271 0.11323 0.0
C597 C 0.6039 0.22059 0.08338 0.0
C598 C 0.68533 0.2324 0.14027 0.0
C599 C 0.68832 0.28327 0.18212 0.0
N600 N 0.62918 0.22496 0.10243 0.0
N601 N 0.66645 0.28039 0.15757 0.0
H602 H 0.71771 0.69752 0.20423 0.0
H603 H 0.77119 0.60502 0.03436 0.0
H604 H 0.78899 0.72597 0.13441 0.0
H605 H 0.68896 0.5855 0.08967 0.0
H606 H 0.77811 0.6489 0.07161 0.0
H607 H 0.70756 0.65553 0.16442 0.0
C608 C 0.73137 0.69487 0.18066 0.0
C609 C 0.75437 0.71532 0.17278 0.0
C610 C 0.75839 0.63527 0.07553 0.0
C611 C 0.74264 0.6673 0.12695 0.0
C612 C 0.75438 0.61015 0.05422 0.0
C613 C 0.72947 0.59148 0.05897 0.0
C614 C 0.73756 0.64177 0.10233 0.0
C615 C 0.7084 0.59937 0.085 0.0
C616 C 0.72538 0.67098 0.15782 0.0
C617 C 0.77111 0.7108 0.14168 0.0
N618 N 0.71308 0.62378 0.10602 0.0
N619 N 0.76497 0.68727 0.12003 0.0
H620 H 0.34094 0.78268 0.23413 0.0
H621 H 0.41702 0.72316 0.05807 0.0
H622 H 0.2873 0.74696 0.14957 0.0
H623 H 0.44852 0.80296 0.11018 0.0
H624 H 0.37256 0.72373 0.09703 0.0
H625 H 0.38407 0.78378 0.19381 0.0
C626 C 0.33818 0.77557 0.20687 0.0
C627 C 0.31051 0.76517 0.19491 0.0
C628 C 0.38935 0.74099 0.09985 0.0
C629 C 0.35988 0.76505 0.14932 0.0
C630 C 0.41475 0.74047 0.07801 0.0
C631 C 0.43635 0.76302 0.08107 0.0
C632 C 0.38612 0.76374 0.12537 0.0
C633 C 0.43228 0.78522 0.10698 0.0
C634 C 0.36276 0.77602 0.184 0.0
C635 C 0.30817 0.75568 0.15953 0.0
N636 N 0.40779 0.7849 0.12831 0.0
N637 N 0.3327 0.75541 0.13804 0.0
H638 H 0.1948 0.28056 0.15252 0.0
H639 H 0.26937 0.43552 0.0991 0.0
H640 H 0.25101 0.33195 0.22234 0.0
H641 H 0.18231 0.41453 0.05747 0.0
H642 H 0.26615 0.39213 0.13852 0.0
H643 H 0.19191 0.32465 0.11223 0.0
C644 C 0.20627 0.30104 0.15956 0.0
C645 C 0.22336 0.30237 0.19082 0.0
C646 C 0.24766 0.39696 0.12085 0.0
C647 C 0.2205 0.35234 0.14482 0.0
C648 C 0.24954 0.42169 0.09813 0.0
C649 C 0.22605 0.42875 0.07491 0.0
C650 C 0.22231 0.37857 0.12023 0.0
C651 C 0.20085 0.40996 0.07511 0.0
C652 C 0.20456 0.32613 0.13662 0.0
C653 C 0.2377 0.32958 0.19858 0.0
N654 N 0.1997 0.38548 0.09729 0.0
N655 N 0.23622 0.35318 0.17564 0.0
H656 H 0.32276 0.19203 0.21449 0.0
H657 H 0.46653 0.25614 0.11884 0.0
H658 H 0.35869 0.279 0.24024 0.0
H659 H 0.44334 0.16202 0.11881 0.0
H660 H 0.42877 0.26498 0.1646 0.0
H661 H 0.36777 0.18058 0.18082 0.0
C662 C 0.34029 0.20873 0.21314 0.0
C663 C 0.33688 0.23669 0.22976 0.0
C664 C 0.4322 0.24234 0.15496 0.0
C665 C 0.38859 0.22373 0.1909 0.0
C666 C 0.45369 0.23724 0.12872 0.0
C667 C 0.45785 0.20831 0.11466 0.0
C668 C 0.41442 0.21842 0.1669 0.0
C669 C 0.4408 0.18468 0.12874 0.0
C670 C 0.36608 0.20208 0.19405 0.0
C671 C 0.36046 0.25724 0.22766 0.0
N672 N 0.41954 0.19035 0.15373 0.0
N673 N 0.38522 0.25054 0.20801 0.0
H674 H 0.72685 0.38968 0.25382 0.0
H675 H 0.81691 0.45048 0.08335 0.0
H676 H 0.80651 0.34741 0.21248 0.0
H677 H 0.72966 0.48219 0.11504 0.0
H678 H 0.81862 0.41895 0.13725 0.0
H679 H 0.73301 0.43044 0.21022 0.0
C680 C 0.74594 0.38927 0.23609 0.0
C681 C 0.76596 0.36491 0.23651 0.0
C682 C 0.79926 0.43309 0.13252 0.0
C683 C 0.77301 0.41124 0.18633 0.0
C684 C 0.79834 0.45113 0.10183 0.0
C685 C 0.77295 0.46865 0.09442 0.0
C686 C 0.77471 0.43281 0.156 0.0
C687 C 0.74951 0.46867 0.11936 0.0
C688 C 0.74937 0.41243 0.21103 0.0
C689 C 0.79029 0.36554 0.2128 0.0
N690 N 0.75087 0.45091 0.14881 0.0
N691 N 0.79296 0.38812 0.18848 0.0
H692 H 0.63988 0.78262 0.24747 0.0
H693 H 0.57457 0.86223 0.07227 0.0
H694 H 0.69225 0.83782 0.17623 0.0
H695 H 0.53392 0.78654 0.12555 0.0
H696 H 0.61214 0.86425 0.11977 0.0
H697 H 0.59538 0.79462 0.21227 0.0
C698 C 0.64193 0.79763 0.2248 0.0
C699 C 0.66987 0.80881 0.21439 0.0
C700 C 0.59461 0.84759 0.12133 0.0
C701 C 0.61917 0.82268 0.17416 0.0
C702 C 0.57312 0.84661 0.09443 0.0
C703 C 0.55147 0.82397 0.09491 0.0
C704 C 0.59404 0.82602 0.1489 0.0
C705 C 0.55057 0.80409 0.12403 0.0
C706 C 0.61657 0.80442 0.20468 0.0
C707 C 0.67122 0.82828 0.18484 0.0
N708 N 0.5717 0.80541 0.1497 0.0
N709 N 0.64629 0.83439 0.16557 0.0
H710 H 0.32449 0.65216 0.24069 0.0
H711 H 0.22882 0.54081 0.12068 0.0
H712 H 0.22904 0.64173 0.24631 0.0
H713 H 0.3223 0.55794 0.10155 0.0
H714 H 0.23133 0.57041 0.17453 0.0
H715 H 0.32693 0.61026 0.19822 0.0
C716 C 0.30425 0.64028 0.23396 0.0
C717 C 0.27654 0.65009 0.247 0.0
C718 C 0.25141 0.56764 0.15876 0.0
C719 C 0.27897 0.60301 0.19825 0.0
C720 C 0.24997 0.55076 0.12784 0.0
C721 C 0.27528 0.54726 0.10618 0.0
C722 C 0.27831 0.5815 0.16823 0.0
C723 C 0.30217 0.5603 0.1173 0.0
C724 C 0.30557 0.61669 0.20945 0.0
C725 C 0.25082 0.63463 0.23689 0.0
N726 N 0.30292 0.57718 0.14739 0.0
N727 N 0.25263 0.61206 0.21296 0.0
H728 H 0.31365 0.81659 0.83005 0.0
H729 H 0.46432 0.7561 0.91439 0.0
H730 H 0.35688 0.73524 0.79439 0.0
H731 H 0.42938 0.84527 0.93304 0.0
H732 H 0.42747 0.74928 0.86765 0.0
H733 H 0.35749 0.82856 0.86496 0.0
C734 C 0.3325 0.80122 0.82952 0.0
C735 C 0.33146 0.77458 0.80975 0.0
C736 C 0.42806 0.77048 0.8816 0.0
C737 C 0.38192 0.78823 0.84996 0.0
C738 C 0.44904 0.77441 0.90841 0.0
C739 C 0.44963 0.80119 0.92801 0.0
C740 C 0.40721 0.79334 0.87455 0.0
C741 C 0.42961 0.82423 0.91875 0.0
C742 C 0.35763 0.80821 0.84934 0.0
C743 C 0.35674 0.75588 0.80947 0.0
N744 N 0.40891 0.8196 0.893 0.0
N745 N 0.38085 0.76284 0.82978 0.0
H746 H 0.23734 0.36005 0.7859 0.0
H747 H 0.3272 0.4477 0.93529 0.0
H748 H 0.33119 0.34564 0.8042 0.0
H749 H 0.23373 0.46072 0.91182 0.0
H750 H 0.33167 0.41558 0.88266 0.0
H751 H 0.23829 0.40301 0.82575 0.0
C752 C 0.25837 0.36661 0.79765 0.0
C753 C 0.28427 0.34966 0.79164 0.0
C754 C 0.31029 0.42577 0.88889 0.0
C755 C 0.28541 0.39795 0.83866 0.0
C756 C 0.30772 0.44407 0.91893 0.0
C757 C 0.27995 0.45658 0.9283 0.0
C758 C 0.28493 0.42008 0.86811 0.0
C759 C 0.2555 0.45124 0.90603 0.0
C760 C 0.25891 0.39095 0.82067 0.0
C761 C 0.31088 0.35857 0.8079 0.0
N762 N 0.25854 0.43329 0.87724 0.0
N763 N 0.3107 0.38189 0.83123 0.0
H764 H 0.71877 0.17668 0.90119 0.0
H765 H 0.54309 0.19023 0.91334 0.0
H766 H 0.66178 0.1992 0.81251 0.0
H767 H 0.59471 0.1474 0.99598 0.0
H768 H 0.58625 0.18774 0.87385 0.0
H769 H 0.6744 0.16052 0.93487 0.0
C770 C 0.69706 0.17779 0.88864 0.0
C771 C 0.6939 0.18988 0.85429 0.0
C772 C 0.58814 0.1782 0.90031 0.0
C773 C 0.6433 0.17152 0.89241 0.0
C774 C 0.56338 0.17945 0.92271 0.0
C775 C 0.56543 0.16878 0.95767 0.0
C776 C 0.61548 0.16712 0.91337 0.0
C777 C 0.59228 0.15547 0.96891 0.0
C778 C 0.67177 0.16855 0.90782 0.0
C779 C 0.66527 0.19066 0.83921 0.0
N780 N 0.61657 0.15559 0.94703 0.0
N781 N 0.64116 0.18198 0.85846 0.0
H782 H 0.7932 0.67384 0.78676 0.0
H783 H 0.71676 0.54401 0.89975 0.0
H784 H 0.70358 0.64295 0.76784 0.0
H785 H 0.80895 0.56951 0.91205 0.0
H786 H 0.7136 0.57527 0.84649 0.0
H787 H 0.80151 0.63126 0.8267 0.0
C788 C 0.77537 0.65774 0.79063 0.0
C789 C 0.7475 0.6621 0.77433 0.0
C790 C 0.73465 0.57382 0.86049 0.0
C791 C 0.75675 0.61342 0.82062 0.0
C792 C 0.73649 0.55603 0.89105 0.0
C793 C 0.76308 0.55453 0.91074 0.0
C794 C 0.75948 0.59063 0.84959 0.0
C795 C 0.78799 0.57017 0.89782 0.0
C796 C 0.78016 0.63342 0.81348 0.0
C797 C 0.72536 0.64042 0.77993 0.0
N798 N 0.78545 0.58795 0.86832 0.0
N799 N 0.73029 0.61725 0.80315 0.0
loop_
_geom_bond_atom_site_label_1
_geom_bond_atom_site_label_2
_geom_bond_distance
_geom_bond_site_symmetry_2
_ccdc_geom_bond_type
C0 O2 1.247 . S
C0 O4 1.258 . S
C1 O8 1.247 . S
C1 O9 1.258 . S
O2 C0 1.247 . S
O2 Zn3 2.028 . S
Zn3 O2 2.028 . S
Zn3 O7 2.035 . S
Zn3 O9 2.035 . S
Zn3 O10 2.028 . S
O4 C0 1.258 . S
O4 Zn5 2.035 . S
Zn5 O4 2.035 . S
Zn5 O6 2.028 . S
Zn5 O8 2.028 . S
Zn5 O11 2.035 . S
O6 Zn5 2.028 . S
O6 C12 1.247 . S
O7 Zn3 2.035 . S
O7 C12 1.258 . S
O8 C1 1.247 . S
O8 Zn5 2.028 . S
O9 C1 1.258 . S
O9 Zn3 2.035 . S
O10 Zn3 2.028 . S
O10 C13 1.247 . S
O11 Zn5 2.035 . S
O11 C13 1.258 . S
C12 O6 1.247 . S
C12 O7 1.258 . S
C13 O10 1.247 . S
C13 O11 1.258 . S
C14 O16 1.247 . S
C14 O18 1.258 . S
C15 O22 1.247 . S
C15 O23 1.258 . S
O16 C14 1.247 . S
O16 Zn17 2.028 . S
Zn17 O16 2.028 . S
Zn17 O21 2.035 . S
Zn17 O23 2.035 . S
Zn17 O24 2.028 . S
O18 C14 1.258 . S
O18 Zn19 2.035 . S
Zn19 O18 2.035 . S
Zn19 O20 2.028 . S
Zn19 O22 2.028 . S
Zn19 O25 2.035 . S
O20 Zn19 2.028 . S
O20 C26 1.247 . S
O21 Zn17 2.035 . S
O21 C26 1.258 . S
O22 C15 1.247 . S
O22 Zn19 2.028 . S
O23 C15 1.258 . S
O23 Zn17 2.035 . S
O24 Zn17 2.028 . S
O24 C27 1.247 . S
O25 Zn19 2.035 . S
O25 C27 1.258 . S
C26 O20 1.247 . S
C26 O21 1.258 . S
C27 O24 1.247 . S
C27 O25 1.258 . S
C28 O30 1.247 . S
C28 O32 1.258 . S
C29 O36 1.247 . S
C29 O37 1.258 . S
O30 C28 1.247 . S
O30 Zn31 2.028 . S
Zn31 O30 2.028 . S
Zn31 O35 2.035 . S
Zn31 O37 2.035 . S
Zn31 O38 2.028 . S
O32 C28 1.258 . S
O32 Zn33 2.035 . S
Zn33 O32 2.035 . S
Zn33 O34 2.028 . S
Zn33 O36 2.028 . S
Zn33 O39 2.035 . S
O34 Zn33 2.028 . S
O34 C40 1.247 . S
O35 Zn31 2.035 . S
O35 C40 1.258 . S
O36 C29 1.247 . S
O36 Zn33 2.028 . S
O37 C29 1.258 . S
O37 Zn31 2.035 . S
O38 Zn31 2.028 . S
O38 C41 1.247 . S
O39 Zn33 2.035 . S
O39 C41 1.258 . S
C40 O34 1.247 . S
C40 O35 1.258 . S
C41 O38 1.247 . S
C41 O39 1.258 . S
C42 O44 1.247 . S
C42 O46 1.258 . S
C43 O50 1.247 . S
C43 O51 1.258 . S
O44 C42 1.247 . S
O44 Zn45 2.028 . S
Zn45 O44 2.028 . S
Zn45 O49 2.035 . S
Zn45 O51 2.035 . S
Zn45 O52 2.028 . S
O46 C42 1.258 . S
O46 Zn47 2.035 . S
Zn47 O46 2.035 . S
Zn47 O48 2.028 . S
Zn47 O50 2.028 . S
Zn47 O53 2.035 . S
O48 Zn47 2.028 . S
O48 C54 1.247 . S
O49 Zn45 2.035 . S
O49 C54 1.258 . S
O50 C43 1.247 . S
O50 Zn47 2.028 . S
O51 C43 1.258 . S
O51 Zn45 2.035 . S
O52 Zn45 2.028 . S
O52 C55 1.247 . S
O53 Zn47 2.035 . S
O53 C55 1.258 . S
C54 O48 1.247 . S
C54 O49 1.258 . S
C55 O52 1.247 . S
C55 O53 1.258 . S
C56 O58 1.247 . S
C56 O60 1.258 . S
C57 O64 1.247 . S
C57 O65 1.258 . S
O58 C56 1.247 . S
O58 Zn59 2.028 . S
Zn59 O58 2.028 . S
Zn59 O63 2.035 . S
Zn59 O65 2.035 . S
Zn59 O66 2.028 . S
O60 C56 1.258 . S
O60 Zn61 2.035 . S
Zn61 O60 2.035 . S
Zn61 O62 2.028 . S
Zn61 O64 2.028 . S
Zn61 O67 2.035 . S
O62 Zn61 2.028 . S
O62 C68 1.247 . S
O63 Zn59 2.035 . S
O63 C68 1.258 . S
O64 C57 1.247 . S
O64 Zn61 2.028 . S
O65 C57 1.258 . S
O65 Zn59 2.035 . S
O66 Zn59 2.028 . S
O66 C69 1.247 . S
O67 Zn61 2.035 . S
O67 C69 1.258 . S
C68 O62 1.247 . S
C68 O63 1.258 . S
C69 O66 1.247 . S
C69 O67 1.258 . S
C70 O72 1.247 . S
C70 O74 1.258 . S
C71 O78 1.247 . S
C71 O79 1.258 . S
O72 C70 1.247 . S
O72 Zn73 2.028 . S
Zn73 O72 2.028 . S
Zn73 O77 2.035 . S
Zn73 O79 2.035 . S
Zn73 O80 2.028 . S
O74 C70 1.258 . S
O74 Zn75 2.035 . S
Zn75 O74 2.035 . S
Zn75 O76 2.028 . S
Zn75 O78 2.028 . S
Zn75 O81 2.035 . S
O76 Zn75 2.028 . S
O76 C82 1.247 . S
O77 Zn73 2.035 . S
O77 C82 1.258 . S
O78 C71 1.247 . S
O78 Zn75 2.028 . S
O79 C71 1.258 . S
O79 Zn73 2.035 . S
O80 Zn73 2.028 . S
O80 C83 1.247 . S
O81 Zn75 2.035 . S
O81 C83 1.258 . S
C82 O76 1.247 . S
C82 O77 1.258 . S
C83 O80 1.247 . S
C83 O81 1.258 . S
C84 O86 1.247 . S
C84 O88 1.258 . S
C85 O92 1.247 . S
C85 O93 1.258 . S
O86 C84 1.247 . S
O86 Zn87 2.028 . S
Zn87 O86 2.028 . S
Zn87 O91 2.035 . S
Zn87 O93 2.035 . S
Zn87 O94 2.028 . S
O88 C84 1.258 . S
O88 Zn89 2.035 . S
Zn89 O88 2.035 . S
Zn89 O90 2.028 . S
Zn89 O92 2.028 . S
Zn89 O95 2.035 . S
O90 Zn89 2.028 . S
O90 C96 1.247 . S
O91 Zn87 2.035 . S
O91 C96 1.258 . S
O92 C85 1.247 . S
O92 Zn89 2.028 . S
O93 C85 1.258 . S
O93 Zn87 2.035 . S
O94 Zn87 2.028 . S
O94 C97 1.247 . S
O95 Zn89 2.035 . S
O95 C97 1.258 . S
C96 O90 1.247 . S
C96 O91 1.258 . S
C97 O94 1.247 . S
C97 O95 1.258 . S
C98 O100 1.247 . S
C98 O102 1.258 . S
C99 O106 1.247 . S
C99 O107 1.258 . S
O100 C98 1.247 . S
O100 Zn101 2.028 . S
Zn101 O100 2.028 . S
Zn101 O105 2.035 . S
Zn101 O107 2.035 . S
Zn101 O108 2.028 . S
O102 C98 1.258 . S
O102 Zn103 2.035 . S
Zn103 O102 2.035 . S
Zn103 O104 2.028 . S
Zn103 O106 2.028 . S
Zn103 O109 2.035 . S
O104 Zn103 2.028 . S
O104 C110 1.247 . S
O105 Zn101 2.035 . S
O105 C110 1.258 . S
O106 C99 1.247 . S
O106 Zn103 2.028 . S
O107 C99 1.258 . S
O107 Zn101 2.035 . S
O108 Zn101 2.028 . S
O108 C111 1.247 . S
O109 Zn103 2.035 . S
O109 C111 1.258 . S
C110 O104 1.247 . S
C110 O105 1.258 . S
C111 O108 1.247 . S
C111 O109 1.258 . S
C112 O114 1.247 . S
C112 O116 1.258 . S
C113 O120 1.247 . S
C113 O121 1.258 . S
O114 C112 1.247 . S
O114 Zn115 2.029 . S
Zn115 O114 2.029 . S
Zn115 O119 2.034 1_655 S
Zn115 O121 2.034 1_655 S
Zn115 O122 2.029 . S
O116 C112 1.258 . S
O116 Zn117 2.028 1_655 S
Zn117 O116 2.028 1_455 S
Zn117 O118 2.035 . S
Zn117 O120 2.035 . S
Zn117 O123 2.028 1_455 S
O118 Zn117 2.035 . S
O118 C124 1.247 . S
O119 Zn115 2.034 1_455 S
O119 C124 1.258 . S
O120 C113 1.247 . S
O120 Zn117 2.035 . S
O121 C113 1.258 . S
O121 Zn115 2.034 1_455 S
O122 Zn115 2.029 . S
O122 C125 1.247 . S
O123 Zn117 2.028 1_655 S
O123 C125 1.258 . S
C124 O118 1.247 . S
C124 O119 1.258 . S
C125 O122 1.247 . S
C125 O123 1.258 . S
C126 O128 1.247 . S
C126 O130 1.258 . S
C127 O134 1.247 . S
C127 O135 1.258 . S
O128 C126 1.247 . S
O128 Zn129 2.035 . S
Zn129 O128 2.035 . S
Zn129 O133 2.028 1_545 S
Zn129 O135 2.028 1_545 S
Zn129 O136 2.035 . S
O130 C126 1.258 . S
O130 Zn131 2.034 1_545 S
Zn131 O130 2.034 1_565 S
Zn131 O132 2.029 . S
Zn131 O134 2.029 . S
Zn131 O137 2.034 1_565 S
O132 Zn131 2.029 . S
O132 C138 1.247 . S
O133 Zn129 2.028 1_565 S
O133 C138 1.258 . S
O134 C127 1.247 . S
O134 Zn131 2.029 . S
O135 C127 1.258 . S
O135 Zn129 2.028 1_565 S
O136 Zn129 2.035 . S
O136 C139 1.247 . S
O137 Zn131 2.034 1_545 S
O137 C139 1.258 . S
C138 O132 1.247 . S
C138 O133 1.258 . S
C139 O136 1.247 . S
C139 O137 1.258 . S
C140 O142 1.247 . S
C140 O144 1.258 . S
C141 O148 1.247 . S
C141 O149 1.258 . S
O142 C140 1.247 . S
O142 Zn143 2.029 . S
Zn143 O142 2.029 . S
Zn143 O147 2.034 1_655 S
Zn143 O149 2.034 1_655 S
Zn143 O150 2.029 . S
O144 C140 1.258 . S
O144 Zn145 2.028 1_655 S
Zn145 O144 2.028 1_455 S
Zn145 O146 2.035 . S
Zn145 O148 2.035 . S
Zn145 O151 2.028 1_455 S
O146 Zn145 2.035 . S
O146 C152 1.247 . S
O147 Zn143 2.034 1_455 S
O147 C152 1.258 . S
O148 C141 1.247 . S
O148 Zn145 2.035 . S
O149 C141 1.258 . S
O149 Zn143 2.034 1_455 S
O150 Zn143 2.029 . S
O150 C153 1.247 . S
O151 Zn145 2.028 1_655 S
O151 C153 1.258 . S
C152 O146 1.247 . S
C152 O147 1.258 . S
C153 O150 1.247 . S
C153 O151 1.258 . S
C154 O156 1.247 . S
C154 O158 1.258 . S
C155 O162 1.247 . S
C155 O163 1.258 . S
O156 C154 1.247 . S
O156 Zn157 2.035 . S
Zn157 O156 2.035 . S
Zn157 O161 2.028 1_545 S
Zn157 O163 2.028 1_545 S
Zn157 O164 2.035 . S
O158 C154 1.258 . S
O158 Zn159 2.034 1_545 S
Zn159 O158 2.034 1_565 S
Zn159 O160 2.029 . S
Zn159 O162 2.029 . S
Zn159 O165 2.034 1_565 S
O160 Zn159 2.029 . S
O160 C166 1.247 . S
O161 Zn157 2.028 1_565 S
O161 C166 1.258 . S
O162 C155 1.247 . S
O162 Zn159 2.029 . S
O163 C155 1.258 . S
O163 Zn157 2.028 1_565 S
O164 Zn157 2.035 . S
O164 C167 1.247 . S
O165 Zn159 2.034 1_545 S
O165 C167 1.258 . S
C166 O160 1.247 . S
C166 O161 1.258 . S
C167 O164 1.247 . S
C167 O165 1.258 . S
C168 O170 1.247 . S
C168 O172 1.258 . S
C169 O176 1.247 . S
C169 O177 1.258 . S
O170 C168 1.247 . S
O170 Zn171 2.028 . S
Zn171 O170 2.028 . S
Zn171 O175 2.035 . S
Zn171 O177 2.035 1_554 S
Zn171 O178 2.028 1_554 S
O172 C168 1.258 . S
O172 Zn173 2.035 . S
Zn173 O172 2.035 . S
Zn173 O174 2.028 . S
Zn173 O176 2.028 1_554 S
Zn173 O179 2.035 1_554 S
O174 Zn173 2.028 . S
O174 C180 1.247 . S
O175 Zn171 2.035 . S
O175 C180 1.258 . S
O176 C169 1.247 . S
O176 Zn173 2.028 1_556 S
O177 C169 1.258 . S
O177 Zn171 2.035 1_556 S
O178 Zn171 2.028 1_556 S
O178 C181 1.247 . S
O179 Zn173 2.035 1_556 S
O179 C181 1.258 . S
C180 O174 1.247 . S
C180 O175 1.258 . S
C181 O178 1.247 . S
C181 O179 1.258 . S
C182 O184 1.247 . S
C182 O186 1.258 . S
C183 O190 1.247 . S
C183 O191 1.258 . S
O184 C182 1.247 . S
O184 Zn185 2.028 . S
Zn185 O184 2.028 . S
Zn185 O189 2.035 . S
Zn185 O191 2.035 1_554 S
Zn185 O192 2.028 1_554 S
O186 C182 1.258 . S
O186 Zn187 2.035 . S
Zn187 O186 2.035 . S
Zn187 O188 2.028 . S
Zn187 O190 2.028 1_554 S
Zn187 O193 2.035 1_554 S
O188 Zn187 2.028 . S
O188 C194 1.247 . S
O189 Zn185 2.035 . S
O189 C194 1.258 . S
O190 C183 1.247 . S
O190 Zn187 2.028 1_556 S
O191 C183 1.258 . S
O191 Zn185 2.035 1_556 S
O192 Zn185 2.028 1_556 S
O192 C195 1.247 . S
O193 Zn187 2.035 1_556 S
O193 C195 1.258 . S
C194 O188 1.247 . S
C194 O189 1.258 . S
C195 O192 1.247 . S
C195 O193 1.258 . S
C196 O198 1.247 . S
C196 O200 1.258 . S
C197 O204 1.247 . S
C197 O205 1.258 . S
O198 C196 1.247 . S
O198 Zn199 2.028 1_556 S
Zn199 O198 2.028 1_554 S
Zn199 O203 2.035 1_554 S
Zn199 O205 2.035 . S
Zn199 O206 2.028 . S
O200 C196 1.258 . S
O200 Zn201 2.035 1_556 S
Zn201 O200 2.035 1_554 S
Zn201 O202 2.028 1_554 S
Zn201 O204 2.028 . S
Zn201 O207 2.035 . S
O202 Zn201 2.028 1_556 S
O202 C208 1.247 . S
O203 Zn199 2.035 1_556 S
O203 C208 1.258 . S
O204 C197 1.247 . S
O204 Zn201 2.028 . S
O205 C197 1.258 . S
O205 Zn199 2.035 . S
O206 Zn199 2.028 . S
O206 C209 1.247 . S
O207 Zn201 2.035 . S
O207 C209 1.258 . S
C208 O202 1.247 . S
C208 O203 1.258 . S
C209 O206 1.247 . S
C209 O207 1.258 . S
C210 O212 1.247 . S
C210 O214 1.258 . S
C211 O218 1.247 . S
C211 O219 1.258 . S
O212 C210 1.247 . S
O212 Zn213 2.028 . S
Zn213 O212 2.028 . S
Zn213 O217 2.035 . S
Zn213 O219 2.035 1_554 S
Zn213 O220 2.028 1_554 S
O214 C210 1.258 . S
O214 Zn215 2.035 . S
Zn215 O214 2.035 . S
Zn215 O216 2.028 . S
Zn215 O218 2.028 1_554 S
Zn215 O221 2.035 1_554 S
O216 Zn215 2.028 . S
O216 C222 1.247 . S
O217 Zn213 2.035 . S
O217 C222 1.258 . S
O218 C211 1.247 . S
O218 Zn215 2.028 1_556 S
O219 C211 1.258 . S
O219 Zn213 2.035 1_556 S
O220 Zn213 2.028 1_556 S
O220 C223 1.247 . S
O221 Zn215 2.035 1_556 S
O221 C223 1.258 . S
C222 O216 1.247 . S
C222 O217 1.258 . S
C223 O220 1.247 . S
C223 O221 1.258 . S
H224 C230 0.930 . S
H225 C234 0.930 . S
H226 C239 0.929 . S
H227 C237 0.929 . S
H228 C232 0.929 . S
H229 C238 0.929 . S
C230 H224 0.930 . S
C230 C231 1.367 . S
C230 C238 1.378 . S
C231 C230 1.367 . S
C231 C239 1.433 . S
C232 H228 0.929 . S
C232 C234 1.378 . S
C232 C236 1.350 . S
C233 C236 1.463 . S
C233 C238 1.350 . S
C233 N241 1.427 . S
C234 H225 0.930 . S
C234 C232 1.378 . S
C234 C235 1.367 . S
C235 C234 1.367 . S
C235 C237 1.433 . S
C236 C232 1.350 . S
C236 C233 1.463 . S
C236 N240 1.427 . S
C237 H227 0.929 . S
C237 C235 1.433 . S
C237 N240 1.384 . S
C238 H229 0.929 . S
C238 C230 1.378 . S
C238 C233 1.350 . S
C239 H226 0.929 . S
C239 C231 1.433 . S
C239 N241 1.384 . S
N240 C236 1.427 . S
N240 C237 1.384 . S
N241 C233 1.427 . S
N241 C239 1.384 . S
H242 C248 0.930 . S
H243 C252 0.930 . S
H244 C257 0.929 . S
H245 C255 0.929 . S
H246 C250 0.929 . S
H247 C256 0.929 . S
C248 H242 0.930 . S
C248 C249 1.367 . S
C248 C256 1.378 . S
C249 C248 1.367 . S
C249 C257 1.433 . S
C250 H246 0.929 . S
C250 C252 1.378 . S
C250 C254 1.350 . S
C251 C254 1.463 . S
C251 C256 1.350 . S
C251 N259 1.427 . S
C252 H243 0.930 . S
C252 C250 1.378 . S
C252 C253 1.367 . S
C253 C252 1.367 . S
C253 C255 1.433 . S
C254 C250 1.350 . S
C254 C251 1.463 . S
C254 N258 1.427 . S
C255 H245 0.929 . S
C255 C253 1.433 . S
C255 N258 1.384 . S
C256 H247 0.929 . S
C256 C248 1.378 . S
C256 C251 1.350 . S
C257 H244 0.929 . S
C257 C249 1.433 . S
C257 N259 1.384 . S
N258 C254 1.427 . S
N258 C255 1.384 . S
N259 C251 1.427 . S
N259 C257 1.384 . S
H260 C266 0.930 . S
H261 C270 0.930 . S
H262 C275 0.929 . S
H263 C273 0.929 . S
H264 C268 0.929 . S
H265 C274 0.929 . S
C266 H260 0.930 . S
C266 C267 1.367 . S
C266 C274 1.378 . S
C267 C266 1.367 . S
C267 C275 1.433 . S
C268 H264 0.929 . S
C268 C270 1.378 . S
C268 C272 1.350 . S
C269 C272 1.463 . S
C269 C274 1.350 . S
C269 N277 1.427 . S
C270 H261 0.930 . S
C270 C268 1.378 . S
C270 C271 1.367 . S
C271 C270 1.367 . S
C271 C273 1.433 . S
C272 C268 1.350 . S
C272 C269 1.463 . S
C272 N276 1.427 . S
C273 H263 0.929 . S
C273 C271 1.433 . S
C273 N276 1.384 . S
C274 H265 0.929 . S
C274 C266 1.378 . S
C274 C269 1.350 . S
C275 H262 0.929 . S
C275 C267 1.433 . S
C275 N277 1.384 . S
N276 C272 1.427 . S
N276 C273 1.384 . S
N277 C269 1.427 . S
N277 C275 1.384 . S
H278 C284 0.930 . S
H279 C288 0.930 . S
H280 C293 0.929 . S
H281 C291 0.929 . S
H282 C286 0.929 . S
H283 C292 0.929 . S
C284 H278 0.930 . S
C284 C285 1.367 . S
C284 C292 1.378 . S
C285 C284 1.367 . S
C285 C293 1.433 . S
C286 H282 0.929 . S
C286 C288 1.378 . S
C286 C290 1.350 . S
C287 C290 1.463 . S
C287 C292 1.350 . S
C287 N295 1.427 . S
C288 H279 0.930 . S
C288 C286 1.378 . S
C288 C289 1.367 . S
C289 C288 1.367 . S
C289 C291 1.433 . S
C290 C286 1.350 . S
C290 C287 1.463 . S
C290 N294 1.427 . S
C291 H281 0.929 . S
C291 C289 1.433 . S
C291 N294 1.384 . S
C292 H283 0.929 . S
C292 C284 1.378 . S
C292 C287 1.350 . S
C293 H280 0.929 . S
C293 C285 1.433 . S
C293 N295 1.384 . S
N294 C290 1.427 . S
N294 C291 1.384 . S
N295 C287 1.427 . S
N295 C293 1.384 . S
H296 C302 0.930 . S
H297 C306 0.930 . S
H298 C311 0.929 . S
H299 C309 0.929 . S
H300 C304 0.929 . S
H301 C310 0.929 . S
C302 H296 0.930 . S
C302 C303 1.367 . S
C302 C310 1.378 . S
C303 C302 1.367 . S
C303 C311 1.433 . S
C304 H300 0.929 . S
C304 C306 1.378 . S
C304 C308 1.350 . S
C305 C308 1.463 . S
C305 C310 1.350 . S
C305 N313 1.427 . S
C306 H297 0.930 . S
C306 C304 1.378 . S
C306 C307 1.367 . S
C307 C306 1.367 . S
C307 C309 1.433 . S
C308 C304 1.350 . S
C308 C305 1.463 . S
C308 N312 1.427 . S
C309 H299 0.929 . S
C309 C307 1.433 . S
C309 N312 1.384 . S
C310 H301 0.929 . S
C310 C302 1.378 . S
C310 C305 1.350 . S
C311 H298 0.929 . S
C311 C303 1.433 . S
C311 N313 1.384 . S
N312 C308 1.427 . S
N312 C309 1.384 . S
N313 C305 1.427 . S
N313 C311 1.384 . S
H314 C320 0.930 . S
H315 C324 0.930 . S
H316 C329 0.929 . S
H317 C327 0.929 . S
H318 C322 0.929 . S
H319 C328 0.929 . S
C320 H314 0.930 . S
C320 C321 1.367 . S
C320 C328 1.378 . S
C321 C320 1.367 . S
C321 C329 1.433 . S
C322 H318 0.929 . S
C322 C324 1.378 . S
C322 C326 1.350 . S
C323 C326 1.463 . S
C323 C328 1.350 . S
C323 N331 1.427 . S
C324 H315 0.930 . S
C324 C322 1.378 . S
C324 C325 1.367 . S
C325 C324 1.367 . S
C325 C327 1.433 . S
C326 C322 1.350 . S
C326 C323 1.463 . S
C326 N330 1.427 . S
C327 H317 0.929 . S
C327 C325 1.433 . S
C327 N330 1.384 . S
C328 H319 0.929 . S
C328 C320 1.378 . S
C328 C323 1.350 . S
C329 H316 0.929 . S
C329 C321 1.433 . S
C329 N331 1.384 . S
N330 C326 1.427 . S
N330 C327 1.384 . S
N331 C323 1.427 . S
N331 C329 1.384 . S
H332 C338 0.930 . S
H333 C342 0.930 . S
H334 C347 0.929 . S
H335 C345 0.929 . S
H336 C340 0.929 . S
H337 C346 0.929 . S
C338 H332 0.930 . S
C338 C339 1.367 . S
C338 C346 1.378 . S
C339 C338 1.367 . S
C339 C347 1.433 . S
C340 H336 0.929 . S
C340 C342 1.378 . S
C340 C344 1.350 . S
C341 C344 1.463 . S
C341 C346 1.350 . S
C341 N349 1.427 . S
C342 H333 0.930 . S
C342 C340 1.378 . S
C342 C343 1.367 . S
C343 C342 1.367 . S
C343 C345 1.433 . S
C344 C340 1.350 . S
C344 C341 1.463 . S
C344 N348 1.427 . S
C345 H335 0.929 . S
C345 C343 1.433 . S
C345 N348 1.384 . S
C346 H337 0.929 . S
C346 C338 1.378 . S
C346 C341 1.350 . S
C347 H334 0.929 . S
C347 C339 1.433 . S
C347 N349 1.384 . S
N348 C344 1.427 . S
N348 C345 1.384 . S
N349 C341 1.427 . S
N349 C347 1.384 . S
H350 C356 0.930 . S
H351 C360 0.930 . S
H352 C365 0.929 . S
H353 C363 0.929 . S
H354 C358 0.929 . S
H355 C364 0.929 . S
C356 H350 0.930 . S
C356 C357 1.367 . S
C356 C364 1.378 . S
C357 C356 1.367 . S
C357 C365 1.433 . S
C358 H354 0.929 . S
C358 C360 1.378 . S
C358 C362 1.350 . S
C359 C362 1.463 . S
C359 C364 1.350 . S
C359 N367 1.427 . S
C360 H351 0.930 . S
C360 C358 1.378 . S
C360 C361 1.367 . S
C361 C360 1.367 . S
C361 C363 1.433 . S
C362 C358 1.350 . S
C362 C359 1.463 . S
C362 N366 1.427 . S
C363 H353 0.929 . S
C363 C361 1.433 . S
C363 N366 1.384 . S
C364 H355 0.929 . S
C364 C356 1.378 . S
C364 C359 1.350 . S
C365 H352 0.929 . S
C365 C357 1.433 . S
C365 N367 1.384 . S
N366 C362 1.427 . S
N366 C363 1.384 . S
N367 C359 1.427 . S
N367 C365 1.384 . S
H368 C374 0.930 . S
H369 C378 0.930 . S
H370 C383 0.929 . S
H371 C381 0.929 . S
H372 C376 0.929 . S
H373 C382 0.929 . S
C374 H368 0.930 . S
C374 C375 1.367 . S
C374 C382 1.378 . S
C375 C374 1.367 . S
C375 C383 1.433 . S
C376 H372 0.929 . S
C376 C378 1.378 . S
C376 C380 1.350 . S
C377 C380 1.463 . S
C377 C382 1.350 . S
C377 N385 1.427 . S
C378 H369 0.930 . S
C378 C376 1.378 . S
C378 C379 1.367 . S
C379 C378 1.367 . S
C379 C381 1.433 . S
C380 C376 1.350 . S
C380 C377 1.463 . S
C380 N384 1.427 . S
C381 H371 0.929 . S
C381 C379 1.433 . S
C381 N384 1.384 . S
C382 H373 0.929 . S
C382 C374 1.378 . S
C382 C377 1.350 . S
C383 H370 0.929 . S
C383 C375 1.433 . S
C383 N385 1.384 . S
N384 C380 1.427 . S
N384 C381 1.384 . S
N385 C377 1.427 . S
N385 C383 1.384 . S
H386 C392 0.930 . S
H387 C396 0.930 . S
H388 C401 0.929 . S
H389 C399 0.929 . S
H390 C394 0.929 . S
H391 C400 0.929 . S
C392 H386 0.930 . S
C392 C393 1.367 . S
C392 C400 1.378 . S
C393 C392 1.367 . S
C393 C401 1.433 . S
C394 H390 0.929 . S
C394 C396 1.378 . S
C394 C398 1.350 . S
C395 C398 1.463 . S
C395 C400 1.350 . S
C395 N403 1.427 . S
C396 H387 0.930 . S
C396 C394 1.378 . S
C396 C397 1.367 . S
C397 C396 1.367 . S
C397 C399 1.433 . S
C398 C394 1.350 . S
C398 C395 1.463 . S
C398 N402 1.427 . S
C399 H389 0.929 . S
C399 C397 1.433 . S
C399 N402 1.384 . S
C400 H391 0.929 . S
C400 C392 1.378 . S
C400 C395 1.350 . S
C401 H388 0.929 . S
C401 C393 1.433 . S
C401 N403 1.384 . S
N402 C398 1.427 . S
N402 C399 1.384 . S
N403 C395 1.427 . S
N403 C401 1.384 . S
H404 C410 0.930 . S
H405 C414 0.930 . S
H406 C419 0.929 . S
H407 C417 0.929 . S
H408 C412 0.929 . S
H409 C418 0.929 . S
C410 H404 0.930 . S
C410 C411 1.367 . S
C410 C418 1.378 . S
C411 C410 1.367 . S
C411 C419 1.433 . S
C412 H408 0.929 . S
C412 C414 1.378 . S
C412 C416 1.350 . S
C413 C416 1.463 . S
C413 C418 1.350 . S
C413 N421 1.427 . S
C414 H405 0.930 . S
C414 C412 1.378 . S
C414 C415 1.367 . S
C415 C414 1.367 . S
C415 C417 1.433 . S
C416 C412 1.350 . S
C416 C413 1.463 . S
C416 N420 1.427 . S
C417 H407 0.929 . S
C417 C415 1.433 . S
C417 N420 1.384 . S
C418 H409 0.929 . S
C418 C410 1.378 . S
C418 C413 1.350 . S
C419 H406 0.929 . S
C419 C411 1.433 . S
C419 N421 1.384 . S
N420 C416 1.427 . S
N420 C417 1.384 . S
N421 C413 1.427 . S
N421 C419 1.384 . S
H422 C428 0.930 . S
H423 C432 0.930 . S
H424 C437 0.929 . S
H425 C435 0.929 . S
H426 C430 0.929 . S
H427 C436 0.929 . S
C428 H422 0.930 . S
C428 C429 1.367 . S
C428 C436 1.378 . S
C429 C428 1.367 . S
C429 C437 1.433 . S
C430 H426 0.929 . S
C430 C432 1.378 . S
C430 C434 1.350 . S
C431 C434 1.463 . S
C431 C436 1.350 . S
C431 N439 1.427 . S
C432 H423 0.930 . S
C432 C430 1.378 . S
C432 C433 1.367 . S
C433 C432 1.367 . S
C433 C435 1.433 . S
C434 C430 1.350 . S
C434 C431 1.463 . S
C434 N438 1.427 . S
C435 H425 0.929 . S
C435 C433 1.433 . S
C435 N438 1.384 . S
C436 H427 0.929 . S
C436 C428 1.378 . S
C436 C431 1.350 . S
C437 H424 0.929 . S
C437 C429 1.433 . S
C437 N439 1.384 . S
N438 C434 1.427 . S
N438 C435 1.384 . S
N439 C431 1.427 . S
N439 C437 1.384 . S
H440 C446 0.930 . S
H441 C450 0.930 . S
H442 C455 0.929 . S
H443 C453 0.929 . S
H444 C448 0.929 . S
H445 C454 0.929 . S
C446 H440 0.930 . S
C446 C447 1.367 . S
C446 C454 1.378 . S
C447 C446 1.367 . S
C447 C455 1.433 . S
C448 H444 0.929 . S
C448 C450 1.378 . S
C448 C452 1.350 . S
C449 C452 1.463 . S
C449 C454 1.350 . S
C449 N457 1.427 . S
C450 H441 0.930 . S
C450 C448 1.378 . S
C450 C451 1.367 . S
C451 C450 1.367 . S
C451 C453 1.433 . S
C452 C448 1.350 . S
C452 C449 1.463 . S
C452 N456 1.427 . S
C453 H443 0.929 . S
C453 C451 1.433 . S
C453 N456 1.384 . S
C454 H445 0.929 . S
C454 C446 1.378 . S
C454 C449 1.350 . S
C455 H442 0.929 . S
C455 C447 1.433 . S
C455 N457 1.384 . S
N456 C452 1.427 . S
N456 C453 1.384 . S
N457 C449 1.427 . S
N457 C455 1.384 . S
H458 C464 0.930 . S
H459 C468 0.930 . S
H460 C473 0.929 . S
H461 C471 0.929 . S
H462 C466 0.929 . S
H463 C472 0.929 . S
C464 H458 0.930 . S
C464 C465 1.367 . S
C464 C472 1.378 . S
C465 C464 1.367 . S
C465 C473 1.433 . S
C466 H462 0.929 . S
C466 C468 1.378 . S
C466 C470 1.350 . S
C467 C470 1.463 . S
C467 C472 1.350 . S
C467 N475 1.427 . S
C468 H459 0.930 . S
C468 C466 1.378 . S
C468 C469 1.367 . S
C469 C468 1.367 . S
C469 C471 1.433 . S
C470 C466 1.350 . S
C470 C467 1.463 . S
C470 N474 1.427 . S
C471 H461 0.929 . S
C471 C469 1.433 . S
C471 N474 1.384 . S
C472 H463 0.929 . S
C472 C464 1.378 . S
C472 C467 1.350 . S
C473 H460 0.929 . S
C473 C465 1.433 . S
C473 N475 1.384 . S
N474 C470 1.427 . S
N474 C471 1.384 . S
N475 C467 1.427 . S
N475 C473 1.384 . S
H476 C482 0.930 . S
H477 C486 0.930 . S
H478 C491 0.929 . S
H479 C489 0.929 . S
H480 C484 0.929 . S
H481 C490 0.929 . S
C482 H476 0.930 . S
C482 C483 1.367 . S
C482 C490 1.378 . S
C483 C482 1.367 . S
C483 C491 1.433 . S
C484 H480 0.929 . S
C484 C486 1.378 . S
C484 C488 1.350 . S
C485 C488 1.463 . S
C485 C490 1.350 . S
C485 N493 1.427 . S
C486 H477 0.930 . S
C486 C484 1.378 . S
C486 C487 1.367 . S
C487 C486 1.367 . S
C487 C489 1.433 . S
C488 C484 1.350 . S
C488 C485 1.463 . S
C488 N492 1.427 . S
C489 H479 0.929 . S
C489 C487 1.433 . S
C489 N492 1.384 . S
C490 H481 0.929 . S
C490 C482 1.378 . S
C490 C485 1.350 . S
C491 H478 0.929 . S
C491 C483 1.433 . S
C491 N493 1.384 . S
N492 C488 1.427 . S
N492 C489 1.384 . S
N493 C485 1.427 . S
N493 C491 1.384 . S
H494 C500 0.930 . S
H495 C504 0.930 . S
H496 C509 0.929 . S
H497 C507 0.929 . S
H498 C502 0.929 . S
H499 C508 0.929 . S
C500 H494 0.930 . S
C500 C501 1.367 . S
C500 C508 1.378 . S
C501 C500 1.367 . S
C501 C509 1.433 . S
C502 H498 0.929 . S
C502 C504 1.378 . S
C502 C506 1.350 . S
C503 C506 1.463 . S
C503 C508 1.350 . S
C503 N511 1.427 . S
C504 H495 0.930 . S
C504 C502 1.378 . S
C504 C505 1.367 . S
C505 C504 1.367 . S
C505 C507 1.433 . S
C506 C502 1.350 . S
C506 C503 1.463 . S
C506 N510 1.427 . S
C507 H497 0.929 . S
C507 C505 1.433 . S
C507 N510 1.384 . S
C508 H499 0.929 . S
C508 C500 1.378 . S
C508 C503 1.350 . S
C509 H496 0.929 . S
C509 C501 1.433 . S
C509 N511 1.384 . S
N510 C506 1.427 . S
N510 C507 1.384 . S
N511 C503 1.427 . S
N511 C509 1.384 . S
H512 C518 0.930 . S
H513 C522 0.930 . S
H514 C527 0.929 . S
H515 C525 0.929 . S
H516 C520 0.929 . S
H517 C526 0.929 . S
C518 H512 0.930 . S
C518 C519 1.367 . S
C518 C526 1.378 . S
C519 C518 1.367 . S
C519 C527 1.433 . S
C520 H516 0.929 . S
C520 C522 1.378 . S
C520 C524 1.350 . S
C521 C524 1.463 . S
C521 C526 1.350 . S
C521 N529 1.427 . S
C522 H513 0.930 . S
C522 C520 1.378 . S
C522 C523 1.367 . S
C523 C522 1.367 . S
C523 C525 1.433 . S
C524 C520 1.350 . S
C524 C521 1.463 . S
C524 N528 1.427 . S
C525 H515 0.929 . S
C525 C523 1.433 . S
C525 N528 1.384 . S
C526 H517 0.929 . S
C526 C518 1.378 . S
C526 C521 1.350 . S
C527 H514 0.929 . S
C527 C519 1.433 . S
C527 N529 1.384 . S
N528 C524 1.427 . S
N528 C525 1.384 . S
N529 C521 1.427 . S
N529 C527 1.384 . S
H530 C536 0.930 . S
H531 C540 0.930 . S
H532 C545 0.929 . S
H533 C543 0.929 . S
H534 C538 0.929 . S
H535 C544 0.929 . S
C536 H530 0.930 . S
C536 C537 1.367 . S
C536 C544 1.378 . S
C537 C536 1.367 . S
C537 C545 1.433 . S
C538 H534 0.929 . S
C538 C540 1.378 . S
C538 C542 1.350 . S
C539 C542 1.463 . S
C539 C544 1.350 . S
C539 N547 1.427 . S
C540 H531 0.930 . S
C540 C538 1.378 . S
C540 C541 1.367 . S
C541 C540 1.367 . S
C541 C543 1.433 . S
C542 C538 1.350 . S
C542 C539 1.463 . S
C542 N546 1.427 . S
C543 H533 0.929 . S
C543 C541 1.433 . S
C543 N546 1.384 . S
C544 H535 0.929 . S
C544 C536 1.378 . S
C544 C539 1.350 . S
C545 H532 0.929 . S
C545 C537 1.433 . S
C545 N547 1.384 . S
N546 C542 1.427 . S
N546 C543 1.384 . S
N547 C539 1.427 . S
N547 C545 1.384 . S
H548 C554 0.930 . S
H549 C558 0.930 . S
H550 C563 0.929 . S
H551 C561 0.929 . S
H552 C556 0.929 . S
H553 C562 0.929 . S
C554 H548 0.930 . S
C554 C555 1.367 . S
C554 C562 1.378 . S
C555 C554 1.367 . S
C555 C563 1.433 . S
C556 H552 0.929 . S
C556 C558 1.378 . S
C556 C560 1.350 . S
C557 C560 1.463 . S
C557 C562 1.350 . S
C557 N565 1.427 . S
C558 H549 0.930 . S
C558 C556 1.378 . S
C558 C559 1.367 . S
C559 C558 1.367 . S
C559 C561 1.433 . S
C560 C556 1.350 . S
C560 C557 1.463 . S
C560 N564 1.427 . S
C561 H551 0.929 . S
C561 C559 1.433 . S
C561 N564 1.384 . S
C562 H553 0.929 . S
C562 C554 1.378 . S
C562 C557 1.350 . S
C563 H550 0.929 . S
C563 C555 1.433 . S
C563 N565 1.384 . S
N564 C560 1.427 . S
N564 C561 1.384 . S
N565 C557 1.427 . S
N565 C563 1.384 . S
H566 C572 0.930 . S
H567 C576 0.930 . S
H568 C581 0.929 . S
H569 C579 0.929 . S
H570 C574 0.929 . S
H571 C580 0.929 . S
C572 H566 0.930 . S
C572 C573 1.367 . S
C572 C580 1.378 . S
C573 C572 1.367 . S
C573 C581 1.433 . S
C574 H570 0.929 . S
C574 C576 1.378 . S
C574 C578 1.350 . S
C575 C578 1.463 . S
C575 C580 1.350 . S
C575 N583 1.427 . S
C576 H567 0.930 . S
C576 C574 1.378 . S
C576 C577 1.367 . S
C577 C576 1.367 . S
C577 C579 1.433 . S
C578 C574 1.350 . S
C578 C575 1.463 . S
C578 N582 1.427 . S
C579 H569 0.929 . S
C579 C577 1.433 . S
C579 N582 1.384 . S
C580 H571 0.929 . S
C580 C572 1.378 . S
C580 C575 1.350 . S
C581 H568 0.929 . S
C581 C573 1.433 . S
C581 N583 1.384 . S
N582 C578 1.427 . S
N582 C579 1.384 . S
N583 C575 1.427 . S
N583 C581 1.384 . S
H584 C590 0.930 . S
H585 C594 0.930 . S
H586 C599 0.929 . S
H587 C597 0.929 . S
H588 C592 0.929 . S
H589 C598 0.929 . S
C590 H584 0.930 . S
C590 C591 1.367 . S
C590 C598 1.378 . S
C591 C590 1.367 . S
C591 C599 1.433 . S
C592 H588 0.929 . S
C592 C594 1.378 . S
C592 C596 1.350 . S
C593 C596 1.463 . S
C593 C598 1.350 . S
C593 N601 1.427 . S
C594 H585 0.930 . S
C594 C592 1.378 . S
C594 C595 1.367 . S
C595 C594 1.367 . S
C595 C597 1.433 . S
C596 C592 1.350 . S
C596 C593 1.463 . S
C596 N600 1.427 . S
C597 H587 0.929 . S
C597 C595 1.433 . S
C597 N600 1.384 . S
C598 H589 0.929 . S
C598 C590 1.378 . S
C598 C593 1.350 . S
C599 H586 0.929 . S
C599 C591 1.433 . S
C599 N601 1.384 . S
N600 C596 1.427 . S
N600 C597 1.384 . S
N601 C593 1.427 . S
N601 C599 1.384 . S
H602 C608 0.930 . S
H603 C612 0.930 . S
H604 C617 0.929 . S
H605 C615 0.929 . S
H606 C610 0.929 . S
H607 C616 0.929 . S
C608 H602 0.930 . S
C608 C609 1.367 . S
C608 C616 1.378 . S
C609 C608 1.367 . S
C609 C617 1.433 . S
C610 H606 0.929 . S
C610 C612 1.378 . S
C610 C614 1.350 . S
C611 C614 1.463 . S
C611 C616 1.350 . S
C611 N619 1.427 . S
C612 H603 0.930 . S
C612 C610 1.378 . S
C612 C613 1.367 . S
C613 C612 1.367 . S
C613 C615 1.433 . S
C614 C610 1.350 . S
C614 C611 1.463 . S
C614 N618 1.427 . S
C615 H605 0.929 . S
C615 C613 1.433 . S
C615 N618 1.384 . S
C616 H607 0.929 . S
C616 C608 1.378 . S
C616 C611 1.350 . S
C617 H604 0.929 . S
C617 C609 1.433 . S
C617 N619 1.384 . S
N618 C614 1.427 . S
N618 C615 1.384 . S
N619 C611 1.427 . S
N619 C617 1.384 . S
H620 C626 0.930 . S
H621 C630 0.930 . S
H622 C635 0.929 . S
H623 C633 0.929 . S
H624 C628 0.929 . S
H625 C634 0.929 . S
C626 H620 0.930 . S
C626 C627 1.367 . S
C626 C634 1.378 . S
C627 C626 1.367 . S
C627 C635 1.433 . S
C628 H624 0.929 . S
C628 C630 1.378 . S
C628 C632 1.350 . S
C629 C632 1.463 . S
C629 C634 1.350 . S
C629 N637 1.427 . S
C630 H621 0.930 . S
C630 C628 1.378 . S
C630 C631 1.367 . S
C631 C630 1.367 . S
C631 C633 1.433 . S
C632 C628 1.350 . S
C632 C629 1.463 . S
C632 N636 1.427 . S
C633 H623 0.929 . S
C633 C631 1.433 . S
C633 N636 1.384 . S
C634 H625 0.929 . S
C634 C626 1.378 . S
C634 C629 1.350 . S
C635 H622 0.929 . S
C635 C627 1.433 . S
C635 N637 1.384 . S
N636 C632 1.427 . S
N636 C633 1.384 . S
N637 C629 1.427 . S
N637 C635 1.384 . S
H638 C644 0.930 . S
H639 C648 0.930 . S
H640 C653 0.929 . S
H641 C651 0.929 . S
H642 C646 0.929 . S
H643 C652 0.929 . S
C644 H638 0.930 . S
C644 C645 1.367 . S
C644 C652 1.378 . S
C645 C644 1.367 . S
C645 C653 1.433 . S
C646 H642 0.929 . S
C646 C648 1.378 . S
C646 C650 1.350 . S
C647 C650 1.463 . S
C647 C652 1.350 . S
C647 N655 1.427 . S
C648 H639 0.930 . S
C648 C646 1.378 . S
C648 C649 1.367 . S
C649 C648 1.367 . S
C649 C651 1.433 . S
C650 C646 1.350 . S
C650 C647 1.463 . S
C650 N654 1.427 . S
C651 H641 0.929 . S
C651 C649 1.433 . S
C651 N654 1.384 . S
C652 H643 0.929 . S
C652 C644 1.378 . S
C652 C647 1.350 . S
C653 H640 0.929 . S
C653 C645 1.433 . S
C653 N655 1.384 . S
N654 C650 1.427 . S
N654 C651 1.384 . S
N655 C647 1.427 . S
N655 C653 1.384 . S
H656 C662 0.930 . S
H657 C666 0.930 . S
H658 C671 0.929 . S
H659 C669 0.929 . S
H660 C664 0.929 . S
H661 C670 0.929 . S
C662 H656 0.930 . S
C662 C663 1.367 . S
C662 C670 1.378 . S
C663 C662 1.367 . S
C663 C671 1.433 . S
C664 H660 0.929 . S
C664 C666 1.378 . S
C664 C668 1.350 . S
C665 C668 1.463 . S
C665 C670 1.350 . S
C665 N673 1.427 . S
C666 H657 0.930 . S
C666 C664 1.378 . S
C666 C667 1.367 . S
C667 C666 1.367 . S
C667 C669 1.433 . S
C668 C664 1.350 . S
C668 C665 1.463 . S
C668 N672 1.427 . S
C669 H659 0.929 . S
C669 C667 1.433 . S
C669 N672 1.384 . S
C670 H661 0.929 . S
C670 C662 1.378 . S
C670 C665 1.350 . S
C671 H658 0.929 . S
C671 C663 1.433 . S
C671 N673 1.384 . S
N672 C668 1.427 . S
N672 C669 1.384 . S
N673 C665 1.427 . S
N673 C671 1.384 . S
H674 C680 0.930 . S
H675 C684 0.930 . S
H676 C689 0.929 . S
H677 C687 0.929 . S
H678 C682 0.929 . S
H679 C688 0.929 . S
C680 H674 0.930 . S
C680 C681 1.367 . S
C680 C688 1.378 . S
C681 C680 1.367 . S
C681 C689 1.433 . S
C682 H678 0.929 . S
C682 C684 1.378 . S
C682 C686 1.350 . S
C683 C686 1.463 . S
C683 C688 1.350 . S
C683 N691 1.427 . S
C684 H675 0.930 . S
C684 C682 1.378 . S
C684 C685 1.367 . S
C685 C684 1.367 . S
C685 C687 1.433 . S
C686 C682 1.350 . S
C686 C683 1.463 . S
C686 N690 1.427 . S
C687 H677 0.929 . S
C687 C685 1.433 . S
C687 N690 1.384 . S
C688 H679 0.929 . S
C688 C680 1.378 . S
C688 C683 1.350 . S
C689 H676 0.929 . S
C689 C681 1.433 . S
C689 N691 1.384 . S
N690 C686 1.427 . S
N690 C687 1.384 . S
N691 C683 1.427 . S
N691 C689 1.384 . S
H692 C698 0.930 . S
H693 C702 0.930 . S
H694 C707 0.929 . S
H695 C705 0.929 . S
H696 C700 0.929 . S
H697 C706 0.929 . S
C698 H692 0.930 . S
C698 C699 1.367 . S
C698 C706 1.378 . S
C699 C698 1.367 . S
C699 C707 1.433 . S
C700 H696 0.929 . S
C700 C702 1.378 . S
C700 C704 1.350 . S
C701 C704 1.463 . S
C701 C706 1.350 . S
C701 N709 1.427 . S
C702 H693 0.930 . S
C702 C700 1.378 . S
C702 C703 1.367 . S
C703 C702 1.367 . S
C703 C705 1.433 . S
C704 C700 1.350 . S
C704 C701 1.463 . S
C704 N708 1.427 . S
C705 H695 0.929 . S
C705 C703 1.433 . S
C705 N708 1.384 . S
C706 H697 0.929 . S
C706 C698 1.378 . S
C706 C701 1.350 . S
C707 H694 0.929 . S
C707 C699 1.433 . S
C707 N709 1.384 . S
N708 C704 1.427 . S
N708 C705 1.384 . S
N709 C701 1.427 . S
N709 C707 1.384 . S
H710 C716 0.930 . S
H711 C720 0.930 . S
H712 C725 0.929 . S
H713 C723 0.929 . S
H714 C718 0.929 . S
H715 C724 0.929 . S
C716 H710 0.930 . S
C716 C717 1.367 . S
C716 C724 1.378 . S
C717 C716 1.367 . S
C717 C725 1.433 . S
C718 H714 0.929 . S
C718 C720 1.378 . S
C718 C722 1.350 . S
C719 C722 1.463 . S
C719 C724 1.350 . S
C719 N727 1.427 . S
C720 H711 0.930 . S
C720 C718 1.378 . S
C720 C721 1.367 . S
C721 C720 1.367 . S
C721 C723 1.433 . S
C722 C718 1.350 . S
C722 C719 1.463 . S
C722 N726 1.427 . S
C723 H713 0.929 . S
C723 C721 1.433 . S
C723 N726 1.384 . S
C724 H715 0.929 . S
C724 C716 1.378 . S
C724 C719 1.350 . S
C725 H712 0.929 . S
C725 C717 1.433 . S
C725 N727 1.384 . S
N726 C722 1.427 . S
N726 C723 1.384 . S
N727 C719 1.427 . S
N727 C725 1.384 . S
H728 C734 0.930 . S
H729 C738 0.930 . S
H730 C743 0.929 . S
H731 C741 0.929 . S
H732 C736 0.929 . S
H733 C742 0.929 . S
C734 H728 0.930 . S
C734 C735 1.367 . S
C734 C742 1.378 . S
C735 C734 1.367 . S
C735 C743 1.433 . S
C736 H732 0.929 . S
C736 C738 1.378 . S
C736 C740 1.350 . S
C737 C740 1.463 . S
C737 C742 1.350 . S
C737 N745 1.427 . S
C738 H729 0.930 . S
C738 C736 1.378 . S
C738 C739 1.367 . S
C739 C738 1.367 . S
C739 C741 1.433 . S
C740 C736 1.350 . S
C740 C737 1.463 . S
C740 N744 1.427 . S
C741 H731 0.929 . S
C741 C739 1.433 . S
C741 N744 1.384 . S
C742 H733 0.929 . S
C742 C734 1.378 . S
C742 C737 1.350 . S
C743 H730 0.929 . S
C743 C735 1.433 . S
C743 N745 1.384 . S
N744 C740 1.427 . S
N744 C741 1.384 . S
N745 C737 1.427 . S
N745 C743 1.384 . S
H746 C752 0.930 . S
H747 C756 0.930 . S
H748 C761 0.929 . S
H749 C759 0.929 . S
H750 C754 0.929 . S
H751 C760 0.929 . S
C752 H746 0.930 . S
C752 C753 1.367 . S
C752 C760 1.378 . S
C753 C752 1.367 . S
C753 C761 1.433 . S
C754 H750 0.929 . S
C754 C756 1.378 . S
C754 C758 1.350 . S
C755 C758 1.463 . S
C755 C760 1.350 . S
C755 N763 1.427 . S
C756 H747 0.930 . S
C756 C754 1.378 . S
C756 C757 1.367 . S
C757 C756 1.367 . S
C757 C759 1.433 . S
C758 C754 1.350 . S
C758 C755 1.463 . S
C758 N762 1.427 . S
C759 H749 0.929 . S
C759 C757 1.433 . S
C759 N762 1.384 . S
C760 H751 0.929 . S
C760 C752 1.378 . S
C760 C755 1.350 . S
C761 H748 0.929 . S
C761 C753 1.433 . S
C761 N763 1.384 . S
N762 C758 1.427 . S
N762 C759 1.384 . S
N763 C755 1.427 . S
N763 C761 1.384 . S
H764 C770 0.930 . S
H765 C774 0.930 . S
H766 C779 0.929 . S
H767 C777 0.929 . S
H768 C772 0.929 . S
H769 C778 0.929 . S
C770 H764 0.930 . S
C770 C771 1.367 . S
C770 C778 1.378 . S
C771 C770 1.367 . S
C771 C779 1.433 . S
C772 H768 0.929 . S
C772 C774 1.378 . S
C772 C776 1.350 . S
C773 C776 1.463 . S
C773 C778 1.350 . S
C773 N781 1.427 . S
C774 H765 0.930 . S
C774 C772 1.378 . S
C774 C775 1.367 . S
C775 C774 1.367 . S
C775 C777 1.433 . S
C776 C772 1.350 . S
C776 C773 1.463 . S
C776 N780 1.427 . S
C777 H767 0.929 . S
C777 C775 1.433 . S
C777 N780 1.384 . S
C778 H769 0.929 . S
C778 C770 1.378 . S
C778 C773 1.350 . S
C779 H766 0.929 . S
C779 C771 1.433 . S
C779 N781 1.384 . S
N780 C776 1.427 . S
N780 C777 1.384 . S
N781 C773 1.427 . S
N781 C779 1.384 . S
H782 C788 0.930 . S
H783 C792 0.930 . S
H784 C797 0.929 . S
H785 C795 0.929 . S
H786 C790 0.929 . S
H787 C796 0.929 . S
C788 H782 0.930 . S
C788 C789 1.367 . S
C788 C796 1.378 . S
C789 C788 1.367 . S
C789 C797 1.433 . S
C790 H786 0.929 . S
C790 C792 1.378 . S
C790 C794 1.350 . S
C791 C794 1.463 . S
C791 C796 1.350 . S
C791 N799 1.427 . S
C792 H783 0.930 . S
C792 C790 1.378 . S
C792 C793 1.367 . S
C793 C792 1.367 . S
C793 C795 1.433 . S
C794 C790 1.350 . S
C794 C791 1.463 . S
C794 N798 1.427 . S
C795 H785 0.929 . S
C795 C793 1.433 . S
C795 N798 1.384 . S
C796 H787 0.929 . S
C796 C788 1.378 . S
C796 C791 1.350 . S
C797 H784 0.929 . S
C797 C789 1.433 . S
C797 N799 1.384 . S
N798 C794 1.427 . S
N798 C795 1.384 . S
N799 C791 1.427 . S
N799 C797 1.384 . S
C235 C113 1.555 . S
C231 C0 1.560 . S
C253 C139 1.550 . S
C249 C26 1.558 . S
C271 C153 1.549 . S
C267 C40 1.561 . S
C289 C155 1.553 . S
C285 C43 1.563 . S
C303 C57 1.563 . S
C307 C152 1.554 . S
C325 C154 1.555 . S
C321 C70 1.559 . S
C343 C112 1.552 . S
C339 C97 1.562 . S
C361 C138 1.550 . S
C357 C111 1.562 . S
C379 C140 1.552 . S
C375 C98 1.564 . S
C397 C166 1.549 . S
C393 C68 1.561 . S
C415 C124 1.548 . S
C411 C83 1.557 . S
C433 C126 1.555 . S
C429 C84 1.560 . S
C451 C125 1.550 . S
C447 C15 1.562 . S
C469 C127 1.553 . S
C465 C29 1.564 . S
C487 C141 1.549 . S
C483 C54 1.558 . S
C505 C167 1.550 . S
C501 C13 1.557 . S
C523 C169 1.553 . S
C519 C99 1.565 . S
C537 C69 1.559 . S
C541 C195 1.550 . S
C555 C82 1.559 . S
C559 C208 1.553 . S
C573 C85 1.561 . S
C577 C211 1.551 . S
C591 C14 1.559 . S
C595 C209 1.547 . S
C609 C28 1.561 . S
C613 C210 1.553 . S
C627 C55 1.559 . S
C631 C168 1.549 . S
C649 C194 1.550 . S
C645 C12 1.559 . S
C667 C197 1.550 . S
C663 C1 1.558 . S
C681 C27 1.563 . S
C685 C222 1.552 . S
C699 C41 1.563 . S
C703 C180 1.552 . S
C717 C42 1.562 . S
C721 C182 1.550 . S
C739 C181 1.550 . S
C735 C56 1.562 . S
C757 C183 1.552 . S
C753 C71 1.562 . S
C771 C96 1.559 . S
C775 C196 1.550 . S
C793 C223 1.550 . S
C789 C110 1.561 . S
