# Generated by pormake.
# Topology wbl, (4,4)-cn, num edge types: 1
# Building blocks:
#     Node 0, Type 0, BuildingBlock: MUDLON_clean_sbu_0, # of connection points: 4
#     Node 1, Type 0, BuildingBlock: MUDLON_clean_sbu_0, # of connection points: 4
#     Node 2, Type 0, BuildingBlock: MUDLON_clean_sbu_0, # of connection points: 4
#     Node 3, Type 0, BuildingBlock: MUDLON_clean_sbu_0, # of connection points: 4
#     Node 4, Type 0, BuildingBlock: MUDLON_clean_sbu_0, # of connection points: 4
#     Node 5, Type 0, BuildingBlock: MUDLON_clean_sbu_0, # of connection points: 4
#     Node 6, Type 0, BuildingBlock: MUDLON_clean_sbu_0, # of connection points: 4
#     Node 7, Type 0, BuildingBlock: MUDLON_clean_sbu_0, # of connection points: 4
#     Node 8, Type 1, BuildingBlock: GALJAG_clean_sbu_0, # of connection points: 4
#     Node 9, Type 1, BuildingBlock: GALJAG_clean_sbu_0, # of connection points: 4
#     Node 10, Type 1, BuildingBlock: GALJAG_clean_sbu_0, # of connection points: 4
#     Node 11, Type 1, BuildingBlock: GALJAG_clean_sbu_0, # of connection points: 4
#     Node 12, Type 1, BuildingBlock: GALJAG_clean_sbu_0, # of connection points: 4
#     Node 13, Type 1, BuildingBlock: GALJAG_clean_sbu_0, # of connection points: 4
#     Node 14, Type 1, BuildingBlock: GALJAG_clean_sbu_0, # of connection points: 4
#     Node 15, Type 1, BuildingBlock: GALJAG_clean_sbu_0, # of connection points: 4
#     Edge 16, Type (0, 1), BuildingBlock: CIFDUS_clean_linker_0, # of connection points: 2
#     Edge 17, Type (0, 1), BuildingBlock: CIFDUS_clean_linker_0, # of connection points: 2
#     Edge 18, Type (0, 1), BuildingBlock: CIFDUS_clean_linker_0, # of connection points: 2
#     Edge 19, Type (0, 1), BuildingBlock: CIFDUS_clean_linker_0, # of connection points: 2
#     Edge 20, Type (0, 1), BuildingBlock: CIFDUS_clean_linker_0, # of connection points: 2
#     Edge 21, Type (0, 1), BuildingBlock: CIFDUS_clean_linker_0, # of connection points: 2
#     Edge 22, Type (0, 1), BuildingBlock: CIFDUS_clean_linker_0, # of connection points: 2
#     Edge 23, Type (0, 1), BuildingBlock: CIFDUS_clean_linker_0, # of connection points: 2
#     Edge 24, Type (0, 1), BuildingBlock: CIFDUS_clean_linker_0, # of connection points: 2
#     Edge 25, Type (0, 1), BuildingBlock: CIFDUS_clean_linker_0, # of connection points: 2
#     Edge 26, Type (0, 1), BuildingBlock: CIFDUS_clean_linker_0, # of connection points: 2
#     Edge 27, Type (0, 1), BuildingBlock: CIFDUS_clean_linker_0, # of connection points: 2
#     Edge 28, Type (0, 1), BuildingBlock: CIFDUS_clean_linker_0, # of connection points: 2
#     Edge 29, Type (0, 1), BuildingBlock: CIFDUS_clean_linker_0, # of connection points: 2
#     Edge 30, Type (0, 1), BuildingBlock: CIFDUS_clean_linker_0, # of connection points: 2
#     Edge 31, Type (0, 1), BuildingBlock: CIFDUS_clean_linker_0, # of connection points: 2
#     Edge 32, Type (0, 1), BuildingBlock: CIFDUS_clean_linker_0, # of connection points: 2
#     Edge 33, Type (0, 1), BuildingBlock: CIFDUS_clean_linker_0, # of connection points: 2
#     Edge 34, Type (0, 1), BuildingBlock: CIFDUS_clean_linker_0, # of connection points: 2
#     Edge 35, Type (0, 1), BuildingBlock: CIFDUS_clean_linker_0, # of connection points: 2
#     Edge 36, Type (0, 1), BuildingBlock: CIFDUS_clean_linker_0, # of connection points: 2
#     Edge 37, Type (0, 1), BuildingBlock: CIFDUS_clean_linker_0, # of connection points: 2
#     Edge 38, Type (0, 1), BuildingBlock: CIFDUS_clean_linker_0, # of connection points: 2
#     Edge 39, Type (0, 1), BuildingBlock: CIFDUS_clean_linker_0, # of connection points: 2
#     Edge 40, Type (0, 1), BuildingBlock: CIFDUS_clean_linker_0, # of connection points: 2
#     Edge 41, Type (0, 1), BuildingBlock: CIFDUS_clean_linker_0, # of connection points: 2
#     Edge 42, Type (0, 1), BuildingBlock: CIFDUS_clean_linker_0, # of connection points: 2
#     Edge 43, Type (0, 1), BuildingBlock: CIFDUS_clean_linker_0, # of connection points: 2
#     Edge 44, Type (0, 1), BuildingBlock: CIFDUS_clean_linker_0, # of connection points: 2
#     Edge 45, Type (0, 1), BuildingBlock: CIFDUS_clean_linker_0, # of connection points: 2
#     Edge 46, Type (0, 1), BuildingBlock: CIFDUS_clean_linker_0, # of connection points: 2
#     Edge 47, Type (0, 1), BuildingBlock: CIFDUS_clean_linker_0, # of connection points: 2
# Relax obj value: 0.157
# Max RMSD: 0.185
# Mean RMSD: 0.147
data_MOF--net-wbl--node1-MUDLON_clean_sbu_0--node2-GALJAG_clean_sbu_0--edge1-CIFDUS_clean_linker_0
_symmetry_space_group_name_H-M    P1
_symmetry_Int_Tables_number       1
_symmetry_cell_setting            triclinic
loop_
_symmetry_equiv_pos_as_xyz
'x, y, z'
_cell_length_a     30.014928
_cell_length_b     30.198343
_cell_length_c     71.369011
_cell_angle_alpha  90.098673
_cell_angle_beta   90.024502
_cell_angle_gamma 89.809089
loop_
_atom_site_label
_atom_site_type_symbol
_atom_site_fract_x
_atom_site_fract_y
_atom_site_fract_z
_atom_type_partial_charge
Mg0 Mg 0.9957 0.99844 0.33709 0.0
C1 C 0.00625 0.92808 0.36542 0.0
O2 O 0.04318 0.92347 0.35573 0.0
C3 C 0.90879 0.99692 0.31504 0.0
O4 O 0.91268 0.95431 0.31839 0.0
C5 C 0.08111 0.98958 0.31369 0.0
O6 O 0.0842 0.03215 0.31727 0.0
O7 O 0.04769 0.96829 0.31985 0.0
O8 O 0.97577 0.95314 0.35902 0.0
O9 O 0.02057 0.04818 0.35627 0.0
C10 C 0.99154 0.07432 0.3631 0.0
O11 O 0.95296 0.078 0.35453 0.0
O12 O 0.93892 0.02295 0.32097 0.0
Mg13 Mg 0.02247 0.48807 0.5955 0.0
C14 C 0.10771 0.50042 0.61709 0.0
O15 O 0.11521 0.52894 0.60359 0.0
C16 C 0.03197 0.40185 0.57356 0.0
O17 O 0.074 0.40647 0.57831 0.0
C18 C 0.01811 0.57458 0.57299 0.0
O19 O 0.97623 0.57478 0.57835 0.0
O20 O 0.04329 0.54279 0.57793 0.0
O21 O 0.07467 0.47445 0.61565 0.0
O22 O 0.96971 0.5049 0.61502 0.0
C23 C 0.94151 0.47523 0.61922 0.0
O24 O 0.93962 0.43928 0.60887 0.0
O25 O 0.00387 0.4309 0.57879 0.0
Mg26 Mg 0.49447 0.47575 0.85149 0.0
C27 C 0.46775 0.55486 0.87464 0.0
O28 O 0.43158 0.54989 0.86451 0.0
C29 C 0.5763 0.4923 0.82602 0.0
O30 O 0.56896 0.53425 0.82988 0.0
C31 C 0.43162 0.51686 0.82372 0.0
O32 O 0.46589 0.54364 0.82241 0.0
O33 O 0.43403 0.48406 0.83487 0.0
O34 O 0.50173 0.53113 0.87092 0.0
O35 O 0.4916 0.42184 0.87154 0.0
C36 C 0.52134 0.39176 0.87165 0.0
O37 O 0.54865 0.38859 0.85733 0.0
O38 O 0.55104 0.46308 0.83308 0.0
Mg39 Mg 0.49269 0.01129 0.10677 0.0
C40 C 0.48695 0.09473 0.12924 0.0
O41 O 0.50726 0.1107 0.11444 0.0
C42 C 0.46 0.96226 0.0742 0.0
O43 O 0.50259 0.96837 0.07087 0.0
C44 C 0.57734 0.05931 0.09119 0.0
O45 O 0.59706 0.04904 0.10704 0.0
O46 O 0.53771 0.04642 0.0882 0.0
O47 O 0.46869 0.05695 0.128 0.0
O48 O 0.52037 0.96262 0.12587 0.0
C49 C 0.50035 0.92572 0.12711 0.0
O50 O 0.47515 0.91304 0.11306 0.0
O51 O 0.44339 0.97899 0.08903 0.0
Mg52 Mg 0.99373 0.51318 0.90997 0.0
C53 C 0.01997 0.59557 0.88869 0.0
O54 O 0.05221 0.59622 0.90112 0.0
C55 C 0.9363 0.47178 0.93888 0.0
O56 O 0.97299 0.44821 0.94045 0.0
C57 C 0.05105 0.55199 0.93968 0.0
O58 O 0.01511 0.57678 0.94103 0.0
O59 O 0.05181 0.52083 0.92768 0.0
O60 O 0.98817 0.56834 0.89075 0.0
O61 O 0.99973 0.46025 0.88954 0.0
C62 C 0.9709 0.42972 0.88809 0.0
O63 O 0.94096 0.42506 0.90133 0.0
O64 O 0.9351 0.50328 0.92709 0.0
Mg65 Mg 0.51691 0.51103 0.15592 0.0
C66 C 0.44556 0.54662 0.13112 0.0
O67 O 0.4549 0.58184 0.14119 0.0
C68 C 0.5312 0.44873 0.18855 0.0
O69 O 0.52763 0.48581 0.19807 0.0
C70 C 0.47282 0.5688 0.18451 0.0
O71 O 0.44132 0.53953 0.18147 0.0
O72 O 0.50919 0.56557 0.17546 0.0
O73 O 0.46346 0.50986 0.13547 0.0
O74 O 0.5729 0.51725 0.13711 0.0
C75 C 0.6044 0.48906 0.13735 0.0
O76 O 0.60883 0.4632 0.15202 0.0
O77 O 0.52575 0.44927 0.17088 0.0
Mg78 Mg 0.4995 0.01656 0.42337 0.0
C79 C 0.52358 0.10008 0.40244 0.0
O80 O 0.55454 0.10231 0.41542 0.0
C81 C 0.43232 0.9728 0.44872 0.0
O82 O 0.46384 0.94252 0.44922 0.0
C83 C 0.58904 0.00012 0.44169 0.0
O84 O 0.58585 0.96281 0.43229 0.0
O85 O 0.5571 0.02776 0.44101 0.0
O86 O 0.49362 0.07063 0.40374 0.0
O87 O 0.50969 0.96242 0.40382 0.0
C88 C 0.47632 0.94035 0.39816 0.0
O89 O 0.43769 0.94624 0.40645 0.0
O90 O 0.43868 0.00789 0.43929 0.0
Mg91 Mg 0.99397 0.98959 0.66074 0.0
C92 C 0.07908 0.98169 0.63924 0.0
O93 O 0.0825 0.94668 0.65003 0.0
C94 C 0.98434 0.06934 0.68771 0.0
O95 O 0.02771 0.06523 0.68951 0.0
C96 C 0.04636 0.93719 0.68941 0.0
O97 O 0.06762 0.9751 0.69034 0.0
O98 O 0.01327 0.93371 0.67835 0.0
O99 O 0.04842 0.00972 0.64261 0.0
O100 O 0.94843 0.97144 0.63843 0.0
C101 C 0.9133 0.99414 0.63577 0.0
O102 O 0.89963 0.02091 0.64912 0.0
O103 O 0.96354 0.04302 0.67692 0.0
In104 In 0.34265 0.68268 1.00179 0.0
O105 O 0.33286 0.7545 0.0114 0.0
O106 O 0.39879 0.73201 0.00581 0.0
C107 C 0.26024 0.65711 0.99168 0.0
C108 C 0.35335 0.64366 0.03552 0.0
C109 C 0.38131 0.66781 0.96823 0.0
O110 O 0.27004 0.69732 0.99435 0.0
O111 O 0.29167 0.6301 0.99453 0.0
O112 O 0.39329 0.64719 0.98284 0.0
O113 O 0.35103 0.69632 0.97079 0.0
C114 C 0.37399 0.76326 0.0113 0.0
O115 O 0.37475 0.63073 0.02124 0.0
O116 O 0.32657 0.67505 0.03253 0.0
In117 In 0.38207 0.84965 0.26246 0.0
O118 O 0.35551 0.78357 0.25164 0.0
O119 O 0.42506 0.78916 0.257 0.0
C120 C 0.30514 0.89508 0.26809 0.0
C121 C 0.41979 0.88276 0.23122 0.0
C122 C 0.41286 0.84987 0.29799 0.0
O123 O 0.30653 0.85339 0.26688 0.0
O124 O 0.34218 0.91386 0.26566 0.0
O125 O 0.43089 0.87242 0.28518 0.0
O126 O 0.38048 0.82651 0.29269 0.0
C127 C 0.39356 0.76555 0.25093 0.0
O128 O 0.43501 0.8913 0.24735 0.0
O129 O 0.38453 0.86014 0.23109 0.0
In130 In 0.11989 0.86908 0.50316 0.0
O131 O 0.08866 0.92758 0.51928 0.0
O132 O 0.14149 0.89137 0.53199 0.0
C133 C 0.0828 0.86935 0.46868 0.0
C134 C 0.08416 0.79546 0.5183 0.0
C135 C 0.20412 0.88661 0.49262 0.0
O136 O 0.07364 0.8989 0.4807 0.0
O137 O 0.10964 0.84 0.47428 0.0
O138 O 0.19262 0.84914 0.49881 0.0
O139 O 0.1732 0.91502 0.49189 0.0
C140 C 0.11369 0.92257 0.53341 0.0
O141 O 0.12515 0.79849 0.51448 0.0
O142 O 0.06132 0.82929 0.51426 0.0
In143 In 0.14094 0.62961 0.75206 0.0
O144 O 0.0858 0.59923 0.76984 0.0
O145 O 0.12017 0.65502 0.78081 0.0
C146 C 0.13954 0.57573 0.72185 0.0
C147 C 0.22126 0.60902 0.76692 0.0
C148 C 0.10931 0.70498 0.73642 0.0
O149 O 0.1141 0.57034 0.73575 0.0
O150 O 0.16614 0.60782 0.72336 0.0
O151 O 0.14805 0.70257 0.74333 0.0
O152 O 0.08704 0.66978 0.73755 0.0
C153 C 0.09042 0.62618 0.78325 0.0
O154 O 0.18877 0.58266 0.7668 0.0
O155 O 0.21356 0.64604 0.75929 0.0
In156 In 0.88612 0.12905 0.50139 0.0
O157 O 0.8739 0.19825 0.51334 0.0
O158 O 0.94019 0.17314 0.5137 0.0
C159 C 0.80457 0.10473 0.48961 0.0
C160 C 0.89417 0.07444 0.53109 0.0
C161 C 0.92458 0.13306 0.46722 0.0
O162 O 0.81234 0.14298 0.49605 0.0
O163 O 0.83783 0.07904 0.48924 0.0
O164 O 0.93516 0.1035 0.47899 0.0
O165 O 0.89594 0.16052 0.47298 0.0
C166 C 0.91415 0.20463 0.51776 0.0
O167 O 0.92104 0.07269 0.51743 0.0
O168 O 0.86392 0.10326 0.52955 0.0
In169 In 0.8544 0.35968 0.75243 0.0
O170 O 0.87957 0.41139 0.73152 0.0
O171 O 0.82978 0.36612 0.72251 0.0
C172 C 0.90199 0.37745 0.78345 0.0
C173 C 0.89203 0.28204 0.74206 0.0
C174 C 0.77436 0.38196 0.76711 0.0
O175 O 0.90511 0.40077 0.76878 0.0
O176 O 0.87536 0.34527 0.78227 0.0
O177 O 0.78585 0.34201 0.7646 0.0
O178 O 0.80249 0.41004 0.76164 0.0
C179 C 0.8551 0.39783 0.71828 0.0
O180 O 0.8502 0.28654 0.74341 0.0
O181 O 0.91412 0.31607 0.74627 0.0
In182 In 0.65187 0.33622 0.00617 0.0
O183 O 0.67065 0.27165 0.02128 0.0
O184 O 0.60322 0.28109 0.01333 0.0
C185 C 0.73056 0.36119 0.99138 0.0
C186 C 0.642 0.39038 0.03611 0.0
C187 C 0.60074 0.34189 0.97515 0.0
O188 O 0.69933 0.38797 0.9948 0.0
O189 O 0.72232 0.32137 0.99547 0.0
O190 O 0.59208 0.36286 0.99005 0.0
O191 O 0.63488 0.31736 0.97599 0.0
C192 C 0.63153 0.25654 0.02123 0.0
O193 O 0.61782 0.3933 0.02171 0.0
O194 O 0.67092 0.36009 0.03543 0.0
In195 In 0.61931 0.16222 0.26356 0.0
O196 O 0.56754 0.12917 0.28208 0.0
O197 O 0.60723 0.18028 0.29408 0.0
C198 C 0.58096 0.12924 0.23224 0.0
C199 C 0.70123 0.12863 0.27186 0.0
C200 C 0.60581 0.24673 0.25286 0.0
O201 O 0.56699 0.11955 0.2484 0.0
O202 O 0.61553 0.15276 0.23205 0.0
O203 O 0.63643 0.2228 0.24619 0.0
O204 O 0.58336 0.22897 0.26573 0.0
C205 C 0.57683 0.15199 0.29641 0.0
O206 O 0.69245 0.16944 0.27212 0.0
O207 O 0.6691 0.1046 0.26682 0.0
H208 H 0.15682 0.02478 0.29879 0.0
H209 H 0.08736 0.90101 0.30601 0.0
H210 H 0.14911 0.86128 0.29134 0.0
H211 H 0.22474 0.861 0.27806 0.0
H212 H 0.29471 0.98452 0.27134 0.0
H213 H 0.23079 0.02491 0.28401 0.0
C214 C 0.155 0.98915 0.29706 0.0
C215 C 0.11749 0.96599 0.30363 0.0
C216 C 0.19082 0.96637 0.28869 0.0
C217 C 0.11578 0.91978 0.30116 0.0
C218 C 0.15115 0.89696 0.29277 0.0
C219 C 0.22579 0.89681 0.27916 0.0
C220 C 0.26451 0.91967 0.2738 0.0
C221 C 0.18909 0.91981 0.2867 0.0
C222 C 0.26536 0.96607 0.27537 0.0
C223 C 0.22884 0.98921 0.28268 0.0
H224 H 0.97411 0.64724 0.55976 0.0
H225 H 0.10403 0.58551 0.56139 0.0
H226 H 0.13557 0.64759 0.54418 0.0
H227 H 0.12692 0.72046 0.52937 0.0
H228 H 0.99727 0.78251 0.52785 0.0
H229 H 0.96508 0.71927 0.5442 0.0
C230 C 0.00929 0.64727 0.5563 0.0
C231 C 0.03659 0.61174 0.56193 0.0
C232 C 0.02735 0.6832 0.54641 0.0
C233 C 0.08214 0.61237 0.55727 0.0
C234 C 0.1003 0.64791 0.54742 0.0
C235 C 0.09158 0.72003 0.53254 0.0
C236 C 0.06457 0.75616 0.52744 0.0
C237 C 0.0733 0.68364 0.54203 0.0
C238 C 0.01883 0.75512 0.53164 0.0
C239 C 1.00038 0.71898 0.54102 0.0
H240 H 0.41304 0.58945 0.80251 0.0
H241 H 0.35627 0.46635 0.82161 0.0
H242 H 0.28679 0.48361 0.8053 0.0
H243 H 0.24157 0.53432 0.78623 0.0
H244 H 0.29758 0.65814 0.7677 0.0
H245 H 0.36802 0.63986 0.78317 0.0
C246 C 0.38558 0.56624 0.80305 0.0
C247 C 0.38996 0.52661 0.81329 0.0
C248 C 0.34555 0.57656 0.79378 0.0
C249 C 0.35388 0.49709 0.81387 0.0
C250 C 0.31409 0.50694 0.80454 0.0
C251 C 0.26925 0.55725 0.78551 0.0
C252 C 0.26435 0.59754 0.77582 0.0
C253 C 0.30948 0.54668 0.79455 0.0
C254 C 0.30048 0.62693 0.77507 0.0
C255 C 0.34076 0.6165 0.78392 0.0
H256 H 0.48998 0.9176 0.04383 0.0
H257 H 0.37225 0.93761 0.07753 0.0
H258 H 0.33317 0.88072 0.05943 0.0
H259 H 0.33505 0.82054 0.03587 0.0
H260 H 0.45513 0.79827 0.00397 0.0
H261 H 0.49058 0.86113 0.01941 0.0
C262 C 0.4556 0.90997 0.04714 0.0
C263 C 0.4342 0.93167 0.06212 0.0
C264 C 0.43382 0.87664 0.03701 0.0
C265 C 0.38958 0.92132 0.06612 0.0
C266 C 0.36726 0.88871 0.0558 0.0
C267 C 0.36867 0.83005 0.03209 0.0
C268 C 0.39251 0.80488 0.01881 0.0
C269 C 0.38938 0.86548 0.04147 0.0
C270 C 0.43621 0.81711 0.01418 0.0
C271 C 0.45652 0.85296 0.02303 0.0
H272 H 0.0681 0.62855 0.95827 0.0
H273 H 0.125 0.50075 0.94514 0.0
H274 H 0.19374 0.52115 0.96131 0.0
H275 H 0.23896 0.57659 0.97768 0.0
H276 H 0.18373 0.70587 0.98921 0.0
H277 H 0.11282 0.68349 0.97524 0.0
C278 C 0.09536 0.60498 0.9591 0.0
C279 C 0.09146 0.56319 0.95051 0.0
C280 C 0.13509 0.61726 0.96807 0.0
C281 C 0.12724 0.53318 0.95158 0.0
C282 C 0.16654 0.54481 0.96082 0.0
C283 C 0.21125 0.59972 0.9773 0.0
C284 C 0.21648 0.6428 0.98447 0.0
C285 C 0.17102 0.58695 0.96889 0.0
C286 C 0.18047 0.67255 0.98375 0.0
C287 C 0.13998 0.65978 0.97576 0.0
H288 H 0.3954 0.59246 0.20164 0.0
H289 H 0.53467 0.62675 0.19798 0.0
H290 H 0.52292 0.68804 0.21978 0.0
H291 H 0.47257 0.73417 0.23851 0.0
H292 H 0.33254 0.70295 0.24083 0.0
H293 H 0.34523 0.63764 0.22114 0.0
C294 C 0.42325 0.61317 0.2057 0.0
C295 C 0.46582 0.60513 0.19813 0.0
C296 C 0.41614 0.64876 0.21804 0.0
C297 C 0.50151 0.63237 0.2035 0.0
C298 C 0.49485 0.66736 0.216 0.0
C299 C 0.44492 0.71267 0.23496 0.0
C300 C 0.40171 0.72317 0.24117 0.0
C301 C 0.45226 0.67612 0.2232 0.0
C302 C 0.36613 0.69541 0.23625 0.0
C303 C 0.37334 0.65823 0.22493 0.0
H304 H 0.40412 0.8973 0.46576 0.0
H305 H 0.36185 0.02982 0.45144 0.0
H306 H 0.28809 0.01512 0.46428 0.0
H307 H 0.23475 0.96398 0.47852 0.0
H308 H 0.27617 0.83107 0.49243 0.0
H309 H 0.35116 0.84665 0.48083 0.0
C310 C 0.3789 0.92309 0.46556 0.0
C311 C 0.38855 0.96457 0.4576 0.0
C312 C 0.33633 0.9143 0.47282 0.0
C313 C 0.35537 0.99755 0.45743 0.0
C314 C 0.31311 0.98918 0.46476 0.0
C315 C 0.26023 0.93846 0.47909 0.0
C316 C 0.2499 0.8964 0.48627 0.0
C317 C 0.30311 0.94756 0.47231 0.0
C318 C 0.28328 0.86371 0.48693 0.0
C319 C 0.32614 0.87258 0.4803 0.0
H320 H 0.00775 0.85603 0.69255 0.0
H321 H 0.12301 0.93075 0.70989 0.0
H322 H 0.1527 0.86586 0.72604 0.0
H323 H 0.14681 0.7871 0.73472 0.0
H324 H 0.03082 0.71312 0.71773 0.0
H325 H 1.00072 0.77833 0.70203 0.0
C326 C 0.03929 0.8582 0.69991 0.0
C327 C 0.0631 0.89823 0.69994 0.0
C328 C 0.0562 0.82076 0.70922 0.0
C329 C 0.10387 0.90041 0.70963 0.0
C330 C 0.12099 0.86325 0.71885 0.0
C331 C 0.11494 0.78533 0.7276 0.0
C332 C 0.09122 0.74526 0.72734 0.0
C333 C 0.09759 0.82314 0.71865 0.0
C334 C 0.04982 0.74354 0.71814 0.0
C335 C 0.03254 0.78083 0.70913 0.0
H336 H 0.59966 0.40866 0.81523 0.0
H337 H 0.63786 0.54565 0.80922 0.0
H338 H 0.701 0.52357 0.78974 0.0
H339 H 0.74678 0.46541 0.77526 0.0
H340 H 0.70947 0.32837 0.78148 0.0
H341 H 0.64432 0.35051 0.79991 0.0
C342 C 0.62169 0.43376 0.80963 0.0
C343 C 0.61401 0.47881 0.81379 0.0
C344 C 0.65807 0.42083 0.79845 0.0
C345 C 0.64293 0.51078 0.80633 0.0
C346 C 0.67909 0.49817 0.79516 0.0
C347 C 0.72422 0.44036 0.78051 0.0
C348 C 0.733 0.39527 0.777 0.0
C349 C 0.68714 0.45331 0.79124 0.0
C350 C 0.70345 0.36328 0.78395 0.0
C351 C 0.66628 0.37593 0.79454 0.0
H352 H 0.53985 0.09409 0.05994 0.0
H353 H 0.66044 0.09708 0.09289 0.0
H354 H 0.68987 0.15602 0.07294 0.0
H355 H 0.67845 0.21093 0.04768 0.0
H356 H 0.55549 0.20974 0.01633 0.0
H357 H 0.53 0.14569 0.03407 0.0
C358 C 0.57281 0.1072 0.0627 0.0
C359 C 0.59776 0.09129 0.078 0.0
C360 C 0.58898 0.14166 0.0515 0.0
C361 C 0.64042 0.10876 0.08127 0.0
C362 C 0.65722 0.14257 0.06989 0.0
C363 C 0.64637 0.19619 0.04459 0.0
C364 C 0.61881 0.21507 0.03076 0.0
C365 C 0.6314 0.15991 0.05519 0.0
C366 C 0.57719 0.19593 0.02697 0.0
C367 C 0.56257 0.15933 0.03712 0.0
H368 H 0.88911 0.08309 0.30687 0.0
H369 H 0.83825 0.9502 0.30114 0.0
H370 H 0.77078 0.9789 0.28636 0.0
H371 H 0.72455 0.04198 0.27624 0.0
H372 H 0.77496 0.17483 0.28242 0.0
H373 H 0.8442 0.14588 0.29566 0.0
C374 C 0.86341 0.06034 0.30231 0.0
C375 C 0.86881 0.01452 0.30523 0.0
C376 C 0.82447 0.07708 0.29387 0.0
C377 C 0.83506 0.98562 0.29916 0.0
C378 C 0.79637 0.002 0.29068 0.0
C379 C 0.75087 0.06455 0.28032 0.0
C380 C 0.74452 0.11051 0.27836 0.0
C381 C 0.7905 0.04769 0.28813 0.0
C382 C 0.77892 0.13932 0.28378 0.0
C383 C 0.81853 0.12279 0.2914 0.0
H384 H 0.94807 0.38339 0.56135 0.0
H385 H 0.08276 0.33271 0.5609 0.0
H386 H 0.05833 0.26784 0.54326 0.0
H387 H 0.99854 0.22475 0.52847 0.0
H388 H 0.86392 0.27534 0.52895 0.0
H389 H 0.88859 0.34107 0.54603 0.0
C390 C 0.97216 0.35823 0.55738 0.0
C391 C 0.0172 0.36294 0.56251 0.0
C392 C 0.9579 0.32096 0.54724 0.0
C393 C 0.04789 0.32998 0.55718 0.0
C394 C 0.03395 0.29282 0.54709 0.0
C395 C 0.97463 0.25024 0.53225 0.0
C396 C 0.92945 0.24514 0.52747 0.0
C397 C 0.98902 0.28787 0.54211 0.0
C398 C 0.89888 0.27847 0.53246 0.0
C399 C 0.91296 0.31603 0.54225 0.0
H400 H 0.6094 0.07795 0.45893 0.0
H401 H 0.66287 0.94827 0.44647 0.0
H402 H 0.73371 0.96887 0.46079 0.0
H403 H 0.78145 0.02456 0.47563 0.0
H404 H 0.72861 0.15457 0.48771 0.0
H405 H 0.65643 0.13289 0.47477 0.0
C406 C 0.63641 0.05403 0.45947 0.0
C407 C 0.63082 0.01164 0.45158 0.0
C408 C 0.67722 0.06622 0.46756 0.0
C409 C 0.66624 0.98114 0.45239 0.0
C410 C 0.70682 0.99291 0.46055 0.0
C411 C 0.75408 0.04811 0.47551 0.0
C412 C 0.76039 0.09116 0.48255 0.0
C413 C 0.71283 0.0355 0.46797 0.0
C414 C 0.7246 0.12125 0.48234 0.0
C415 C 0.68335 0.10889 0.47493 0.0
H416 H 0.01827 0.13138 0.71144 0.0
H417 H 0.8949 0.08718 0.68668 0.0
H418 H 0.85471 0.14704 0.70239 0.0
H419 H 0.85505 0.21431 0.7221 0.0
H420 H 0.97906 0.25942 0.74587 0.0
H421 H 0.01825 0.19672 0.73184 0.0
C422 C 0.98257 0.13468 0.70952 0.0
C423 C 0.95979 0.10486 0.6978 0.0
C424 C 0.95964 0.1694 0.71848 0.0
C425 C 0.91343 0.10968 0.69556 0.0
C426 C 0.89033 0.14394 0.70456 0.0
C427 C 0.89053 0.21003 0.72438 0.0
C428 C 0.91411 0.24146 0.73499 0.0
C429 C 0.91314 0.17427 0.71593 0.0
C430 C 0.96017 0.23575 0.73769 0.0
C431 C 0.98266 0.19994 0.72965 0.0
H432 H 0.92042 0.39358 0.95625 0.0
H433 H 0.86088 0.5208 0.9444 0.0
H434 H 0.79245 0.49809 0.96019 0.0
H435 H 0.74892 0.44145 0.97653 0.0
H436 H 0.80705 0.31303 0.98711 0.0
H437 H 0.87682 0.33687 0.97261 0.0
C438 C 0.89261 0.41649 0.95726 0.0
C439 C 0.89575 0.45887 0.94922 0.0
C440 C 0.85311 0.40291 0.96603 0.0
C441 C 0.85925 0.48797 0.95046 0.0
C442 C 0.82013 0.47501 0.95947 0.0
C443 C 0.77693 0.41873 0.97573 0.0
C444 C 0.77294 0.37557 0.98289 0.0
C445 C 0.81659 0.43245 0.96717 0.0
C446 C 0.80935 0.3464 0.98166 0.0
C447 C 0.84921 0.36003 0.9734 0.0
H448 H 0.52817 0.42991 0.22577 0.0
H449 H 0.56895 0.37607 0.17236 0.0
H450 H 0.59875 0.31045 0.18789 0.0
H451 H 0.61302 0.26821 0.21652 0.0
H452 H 0.5671 0.31832 0.26972 0.0
H453 H 0.54004 0.38604 0.25446 0.0
C454 C 0.5435 0.40374 0.21755 0.0
C455 C 0.5464 0.40787 0.19796 0.0
C456 C 0.56006 0.36578 0.22655 0.0
C457 C 0.56602 0.37358 0.18745 0.0
C458 C 0.58335 0.33617 0.19632 0.0
C459 C 0.59765 0.2943 0.22479 0.0
C460 C 0.5927 0.28896 0.24421 0.0
C461 C 0.58071 0.33203 0.21584 0.0
C462 C 0.5716 0.32219 0.25475 0.0
C463 C 0.556 0.36068 0.24603 0.0
H464 H 0.05311 0.86175 0.38151 0.0
H465 H 0.96126 0.96765 0.39431 0.0
H466 H 0.97494 0.95755 0.4278 0.0
H467 H 0.01925 0.92349 0.45329 0.0
H468 H 0.11025 0.81697 0.44002 0.0
H469 H 0.0905 0.82228 0.40702 0.0
C470 C 0.03534 0.88192 0.39166 0.0
C471 C 0.00635 0.91538 0.38543 0.0
C472 C 0.04365 0.8762 0.41086 0.0
C473 C 0.98344 0.94129 0.39873 0.0
C474 C 0.99161 0.93586 0.4179 0.0
C475 C 0.03432 0.90116 0.44319 0.0
C476 C 0.06657 0.87028 0.4491 0.0
C477 C 0.02263 0.90422 0.42411 0.0
C478 C 0.08551 0.84124 0.43586 0.0
C479 C 0.07428 0.84424 0.41695 0.0
H480 H 0.07893 0.46943 0.65073 0.0
H481 H 0.18138 0.5495 0.62541 0.0
H482 H 0.20394 0.57616 0.65631 0.0
H483 H 0.18745 0.58478 0.68983 0.0
H484 H 0.08209 0.50794 0.71478 0.0
H485 H 0.06786 0.4719 0.68471 0.0
C486 C 0.10694 0.49186 0.65197 0.0
C487 C 0.12815 0.5078 0.63573 0.0
C488 C 0.11869 0.50826 0.6697 0.0
C489 C 0.1643 0.53693 0.63765 0.0
C490 C 0.17704 0.55241 0.65532 0.0
C491 C 0.16186 0.55962 0.68876 0.0
C492 C 0.1355 0.54943 0.70445 0.0
C493 C 0.15332 0.53964 0.67134 0.0
C494 C 0.10263 0.5166 0.70287 0.0
C495 C 0.09444 0.49602 0.68567 0.0
H496 H 0.41027 0.62107 0.8832 0.0
H497 H 0.51798 0.54367 0.90633 0.0
H498 H 0.50268 0.574 0.93748 0.0
H499 H 0.45309 0.61641 0.9587 0.0
H500 H 0.34648 0.69464 0.93504 0.0
H501 H 0.36702 0.67026 0.90365 0.0
C502 C 0.43092 0.61146 0.89501 0.0
C503 C 0.46491 0.57989 0.89247 0.0
C504 C 0.42175 0.62878 0.91287 0.0
C505 C 0.49167 0.56804 0.90787 0.0
C506 C 0.48268 0.58508 0.92574 0.0
C507 C 0.43477 0.6285 0.94664 0.0
C508 C 0.39796 0.65684 0.94924 0.0
C509 C 0.44693 0.61448 0.9285 0.0
C510 C 0.37482 0.67264 0.93347 0.0
C511 C 0.38647 0.65865 0.91548 0.0
H512 H 0.5229 0.9596 0.16146 0.0
H513 H 0.4583 0.84829 0.13492 0.0
H514 H 0.42833 0.82505 0.16503 0.0
H515 H 0.41385 0.84055 0.19812 0.0
H516 H 0.47923 0.95014 0.2253 0.0
H517 H 0.51576 0.96972 0.19569 0.0
C518 C 0.50319 0.92964 0.16231 0.0
C519 C 0.49242 0.90606 0.14584 0.0
C520 C 0.48536 0.91674 0.1797 0.0
C521 C 0.46685 0.86729 0.14729 0.0
C522 C 0.44937 0.85412 0.1645 0.0
C523 C 0.43599 0.86886 0.19755 0.0
C524 C 0.44304 0.89457 0.2137 0.0
C525 C 0.45709 0.87948 0.18063 0.0
C526 C 0.47281 0.9303 0.21294 0.0
C527 C 0.49365 0.94145 0.19604 0.0
H528 H 0.98599 0.56868 0.85537 0.0
H529 H 0.07313 0.66579 0.88025 0.0
H530 H 0.09901 0.68765 0.84913 0.0
H531 H 0.10408 0.67213 0.81541 0.0
H532 H 0.02138 0.57063 0.79099 0.0
H533 H 0.98645 0.55752 0.82139 0.0
C534 C 0.00975 0.59547 0.85398 0.0
C535 C 0.0277 0.61559 0.8701 0.0
C536 C 0.02586 0.60646 0.83614 0.0
C537 C 0.05889 0.6498 0.86804 0.0
C538 C 0.0739 0.66209 0.85027 0.0
C539 C 0.07793 0.64762 0.81669 0.0
C540 C 0.06559 0.62211 0.80103 0.0
C541 C 0.0588 0.63952 0.83429 0.0
C542 C 0.03167 0.59047 0.80288 0.0
C543 C 0.01169 0.58296 0.82025 0.0
H544 H 0.3874 0.61093 0.12128 0.0
H545 H 0.45555 0.49581 0.09964 0.0
H546 H 0.43121 0.51428 0.06787 0.0
H547 H 0.39683 0.56777 0.04588 0.0
H548 H 0.32724 0.68158 0.06812 0.0
H549 H 0.34575 0.65899 0.09992 0.0
C550 C 0.39622 0.58946 0.10965 0.0
C551 C 0.42344 0.55232 0.11277 0.0
C552 C 0.38232 0.60037 0.09146 0.0
C553 C 0.43438 0.52452 0.09761 0.0
C554 C 0.42083 0.5353 0.07941 0.0
C555 C 0.3854 0.58728 0.05772 0.0
C556 C 0.36122 0.62656 0.05463 0.0
C557 C 0.39583 0.57387 0.0761 0.0
C558 C 0.34609 0.65128 0.0701 0.0
C559 C 0.3567 0.63846 0.08831 0.0
H560 H 0.4184 0.87919 0.38495 0.0
H561 H 0.53745 0.95075 0.37015 0.0
H562 H 0.53071 0.92549 0.33776 0.0
H563 H 0.48537 0.89106 0.31289 0.0
H564 H 0.36684 0.81892 0.32796 0.0
H565 H 0.37923 0.83607 0.36094 0.0
C566 C 0.44336 0.88851 0.37471 0.0
C567 C 0.47798 0.91723 0.37989 0.0
C568 C 0.43908 0.8742 0.35608 0.0
C569 C 0.5104 0.92866 0.36654 0.0
C570 C 0.50639 0.91452 0.34795 0.0
C571 C 0.46271 0.87852 0.32344 0.0
C572 C 0.42491 0.85436 0.31797 0.0
C573 C 0.46999 0.88854 0.34244 0.0
C574 C 0.39606 0.83785 0.33179 0.0
C575 C 0.40302 0.84775 0.35067 0.0
H576 H 0.04855 0.01802 0.60671 0.0
H577 H 0.15606 0.93999 0.62975 0.0
H578 H 0.18007 0.91956 0.59822 0.0
H579 H 0.16314 0.9141 0.56482 0.0
H580 H 0.05285 0.98789 0.54166 0.0
H581 H 0.03825 0.02094 0.57245 0.0
C582 C 0.07811 0.99775 0.60482 0.0
C583 C 0.10036 0.98025 0.62056 0.0
C584 C 0.09072 0.98472 0.58663 0.0
C585 C 0.1383 0.95366 0.61786 0.0
C586 C 0.15183 0.94171 0.59984 0.0
C587 C 0.13616 0.9378 0.56643 0.0
C588 C 0.1086 0.9479 0.55106 0.0
C589 C 0.12704 0.95538 0.58422 0.0
C590 C 0.07422 0.97914 0.55332 0.0
C591 C 0.0657 0.99783 0.57094 0.0
H592 H 0.48847 0.40918 0.90645 0.0
H593 H 0.58056 0.32402 0.87692 0.0
H594 H 0.6105 0.29752 0.9067 0.0
H595 H 0.6168 0.30551 0.94091 0.0
H596 H 0.52695 0.39337 0.9702 0.0
H597 H 0.48984 0.41168 0.94076 0.0
C598 C 0.51442 0.3841 0.90649 0.0
C599 C 0.53252 0.36895 0.88944 0.0
C600 C 0.5324 0.36997 0.92365 0.0
C601 C 0.56619 0.33648 0.88982 0.0
C602 C 0.58352 0.32146 0.90685 0.0
C603 C 0.58869 0.32817 0.94087 0.0
C604 C 0.57497 0.34841 0.95769 0.0
C605 C 0.56793 0.33911 0.92383 0.0
C606 C 0.53839 0.37757 0.95743 0.0
C607 C 0.51715 0.3881 0.94059 0.0
H608 H 0.46961 0.05799 0.16351 0.0
H609 H 0.53228 0.17047 0.1372 0.0
H610 H 0.56681 0.19073 0.16688 0.0
H611 H 0.58476 0.17291 0.19945 0.0
H612 H 0.52111 0.06223 0.22641 0.0
H613 H 0.48125 0.04494 0.19728 0.0
C614 C 0.49003 0.0875 0.16433 0.0
C615 C 0.49869 0.11236 0.14802 0.0
C616 C 0.51039 0.09871 0.18144 0.0
C617 C 0.52519 0.15054 0.14944 0.0
C618 C 0.54529 0.162 0.16639 0.0
C619 C 0.56237 0.14479 0.19892 0.0
C620 C 0.55663 0.11819 0.21487 0.0
C621 C 0.53926 0.13553 0.18229 0.0
C622 C 0.52653 0.08273 0.21419 0.0
C623 C 0.50376 0.07291 0.19757 0.0
H624 H 0.94814 0.14218 0.37988 0.0
H625 H 0.03993 0.0353 0.39109 0.0
H626 H 0.02997 0.04598 0.42477 0.0
H627 H 0.98785 0.07991 0.45095 0.0
H628 H 0.89664 0.18723 0.4393 0.0
H629 H 0.914 0.18242 0.40605 0.0
C630 C 0.96682 0.12201 0.38971 0.0
C631 C 0.99454 0.08799 0.38298 0.0
C632 C 0.96058 0.12801 0.40905 0.0
C633 C 0.01866 0.06207 0.39588 0.0
C634 C 0.0126 0.06782 0.41517 0.0
C635 C 0.97234 0.10264 0.44115 0.0
C636 C 0.94053 0.13344 0.44759 0.0
C637 C 0.98251 0.09976 0.42192 0.0
C638 C 0.921 0.16296 0.43474 0.0
C639 C 0.93084 0.16023 0.41567 0.0
H640 H 0.87423 0.42295 0.63139 0.0
H641 H 0.96316 0.52653 0.64953 0.0
H642 H 0.94112 0.51439 0.68203 0.0
H643 H 0.90386 0.46772 0.7056 0.0
H644 H 0.81514 0.36417 0.68723 0.0
H645 H 0.82959 0.38314 0.65462 0.0
C646 C 0.8881 0.4435 0.64241 0.0
C647 C 0.92065 0.47519 0.63803 0.0
C648 C 0.87575 0.43596 0.66111 0.0
C649 C 0.938 0.50186 0.65247 0.0
C650 C 0.9257 0.4947 0.67111 0.0
C651 C 0.88718 0.44981 0.69445 0.0
C652 C 0.85899 0.41419 0.69883 0.0
C653 C 0.89577 0.46079 0.67565 0.0
C654 C 0.83726 0.39154 0.68425 0.0
C655 C 0.84556 0.40229 0.66557 0.0
H656 H 0.48394 0.08133 0.36919 0.0
H657 H 0.57923 0.16927 0.39494 0.0
H658 H 0.601 0.19668 0.36407 0.0
H659 H 0.59926 0.18896 0.32978 0.0
H660 H 0.50742 0.09719 0.30426 0.0
H661 H 0.47795 0.078 0.33507 0.0
C662 C 0.50881 0.10719 0.36813 0.0
C663 C 0.53016 0.12303 0.38436 0.0
C664 C 0.52226 0.12159 0.35034 0.0
C665 C 0.56244 0.15638 0.38266 0.0
C666 C 0.57507 0.17189 0.36501 0.0
C667 C 0.57238 0.16521 0.33096 0.0
C668 C 0.5558 0.14421 0.31481 0.0
C669 C 0.55625 0.15365 0.34875 0.0
C670 C 0.52095 0.11356 0.31651 0.0
C671 C 0.50409 0.10257 0.33412 0.0
H672 H 0.95312 0.96923 0.60299 0.0
H673 H 0.83656 0.03529 0.62508 0.0
H674 H 0.81791 0.06217 0.59383 0.0
H675 H 0.84024 0.07542 0.56139 0.0
H676 H 0.95844 0.01254 0.53933 0.0
H677 H 0.97004 0.97475 0.56931 0.0
C678 C 0.92297 0.98852 0.60091 0.0
C679 C 0.89652 0.00066 0.61644 0.0
C680 C 0.91313 0.00502 0.58296 0.0
C681 C 0.85768 0.02577 0.61344 0.0
C682 C 0.84713 0.04139 0.59558 0.0
C683 C 0.86843 0.05321 0.56306 0.0
C684 C 0.89888 0.0474 0.54826 0.0
C685 C 0.87559 0.03271 0.58042 0.0
C686 C 0.93483 0.01801 0.55058 0.0
C687 C 0.94161 0.99661 0.56774 0.0
H688 H 0.99798 0.45858 0.85394 0.0
H689 H 0.92604 0.35318 0.88114 0.0
H690 H 0.90182 0.3251 0.85066 0.0
H691 H 0.8943 0.33548 0.81677 0.0
H692 H 0.96189 0.44388 0.78973 0.0
H693 H 0.99473 0.46584 0.81971 0.0
C694 C 0.97788 0.42883 0.85319 0.0
C695 C 0.96379 0.40794 0.86978 0.0
C696 C 0.96274 0.41389 0.83568 0.0
C697 C 0.93726 0.36983 0.86856 0.0
C698 C 0.92322 0.35392 0.85116 0.0
C699 C 0.91664 0.36361 0.81738 0.0
C700 C 0.92539 0.38824 0.80109 0.0
C701 C 0.93462 0.3765 0.83469 0.0
C702 C 0.95445 0.42453 0.80211 0.0
C703 C 0.97322 0.4371 0.81923 0.0
H704 H 0.57856 0.51256 0.10228 0.0
H705 H 0.67629 0.43467 0.13212 0.0
H706 H 0.69962 0.39992 0.10274 0.0
H707 H 0.68557 0.385 0.06938 0.0
H708 H 0.5842 0.45949 0.04018 0.0
H709 H 0.56883 0.50215 0.06857 0.0
C710 C 0.60571 0.48876 0.10235 0.0
C711 C 0.62548 0.47602 0.11941 0.0
C712 C 0.61767 0.46767 0.08556 0.0
C713 C 0.66043 0.44495 0.11919 0.0
C714 C 0.67356 0.42483 0.10242 0.0
C715 C 0.66047 0.41092 0.06918 0.0
C716 C 0.6357 0.41878 0.05277 0.0
C717 C 0.65129 0.43479 0.08564 0.0
C718 C 0.60344 0.45257 0.05269 0.0
C719 C 0.59468 0.47701 0.0689 0.0
loop_
_geom_bond_atom_site_label_1
_geom_bond_atom_site_label_2
_geom_bond_distance
_geom_bond_site_symmetry_2
_ccdc_geom_bond_type
Mg0 O7 2.141 1_545 S
Mg0 O8 2.048 1_545 S
Mg0 O9 2.048 1_455 S
Mg0 O12 2.141 1_455 S
C1 O2 1.313 . S
C1 O8 1.195 . S
O2 C1 1.313 . S
C3 O4 1.245 . S
C3 O12 1.289 . S
O4 C3 1.245 . S
C5 O6 1.245 . S
C5 O7 1.289 . S
O6 C5 1.245 . S
O7 Mg0 2.141 1_565 S
O7 C5 1.289 . S
O8 Mg0 2.048 1_565 S
O8 C1 1.195 . S
O9 Mg0 2.048 1_655 S
O9 C10 1.195 . S
C10 O9 1.195 . S
C10 O11 1.313 1_545 S
O11 C10 1.313 1_565 S
O12 Mg0 2.141 1_655 S
O12 C3 1.289 . S
Mg13 O20 2.141 1_655 S
Mg13 O21 2.048 1_655 S
Mg13 O22 2.048 . S
Mg13 O25 2.141 . S
C14 O15 1.313 . S
C14 O21 1.195 . S
O15 C14 1.313 . S
C16 O17 1.245 . S
C16 O25 1.289 . S
O17 C16 1.245 . S
C18 O19 1.245 . S
C18 O20 1.289 . S
O19 C18 1.245 . S
O20 Mg13 2.141 1_455 S
O20 C18 1.289 . S
O21 Mg13 2.048 1_455 S
O21 C14 1.195 . S
O22 Mg13 2.048 . S
O22 C23 1.195 . S
C23 O22 1.195 . S
C23 O24 1.313 1_655 S
O24 C23 1.313 1_455 S
O25 Mg13 2.141 . S
O25 C16 1.289 . S
Mg26 O33 2.141 . S
Mg26 O34 2.048 . S
Mg26 O35 2.048 . S
Mg26 O38 2.141 . S
C27 O28 1.313 . S
C27 O34 1.195 . S
O28 C27 1.313 . S
C29 O30 1.245 . S
C29 O38 1.289 . S
O30 C29 1.245 . S
C31 O32 1.245 . S
C31 O33 1.289 . S
O32 C31 1.245 . S
O33 Mg26 2.141 . S
O33 C31 1.289 . S
O34 Mg26 2.048 . S
O34 C27 1.195 . S
O35 Mg26 2.048 . S
O35 C36 1.195 . S
C36 O35 1.195 . S
C36 O37 1.313 . S
O37 C36 1.313 . S
O38 Mg26 2.141 . S
O38 C29 1.289 . S
Mg39 O46 2.141 . S
Mg39 O47 2.048 . S
Mg39 O48 2.048 1_545 S
Mg39 O51 2.141 1_545 S
C40 O41 1.313 . S
C40 O47 1.195 . S
O41 C40 1.313 . S
C42 O43 1.245 . S
C42 O51 1.289 . S
O43 C42 1.245 . S
C44 O45 1.245 . S
C44 O46 1.289 . S
O45 C44 1.245 . S
O46 Mg39 2.141 . S
O46 C44 1.289 . S
O47 Mg39 2.048 . S
O47 C40 1.195 . S
O48 Mg39 2.048 1_565 S
O48 C49 1.195 . S
C49 O48 1.195 . S
C49 O50 1.313 . S
O50 C49 1.313 . S
O51 Mg39 2.141 1_565 S
O51 C42 1.289 . S
Mg52 O59 2.141 . S
Mg52 O60 2.048 . S
Mg52 O61 2.048 1_455 S
Mg52 O64 2.141 1_455 S
C53 O54 1.313 . S
C53 O60 1.195 . S
O54 C53 1.313 . S
C55 O56 1.245 . S
C55 O64 1.289 . S
O56 C55 1.245 . S
C57 O58 1.245 . S
C57 O59 1.289 . S
O58 C57 1.245 . S
O59 Mg52 2.141 . S
O59 C57 1.289 . S
O60 Mg52 2.048 . S
O60 C53 1.195 . S
O61 Mg52 2.048 1_655 S
O61 C62 1.195 . S
C62 O61 1.195 . S
C62 O63 1.313 . S
O63 C62 1.313 . S
O64 Mg52 2.141 1_655 S
O64 C55 1.289 . S
Mg65 O72 2.141 . S
Mg65 O73 2.048 . S
Mg65 O74 2.048 . S
Mg65 O77 2.141 . S
C66 O67 1.313 . S
C66 O73 1.195 . S
O67 C66 1.313 . S
C68 O69 1.245 . S
C68 O77 1.289 . S
O69 C68 1.245 . S
C70 O71 1.245 . S
C70 O72 1.289 . S
O71 C70 1.245 . S
O72 Mg65 2.141 . S
O72 C70 1.289 . S
O73 Mg65 2.048 . S
O73 C66 1.195 . S
O74 Mg65 2.048 . S
O74 C75 1.195 . S
C75 O74 1.195 . S
C75 O76 1.313 . S
O76 C75 1.313 . S
O77 Mg65 2.141 . S
O77 C68 1.289 . S
Mg78 O85 2.141 1_565 S
Mg78 O86 2.048 1_565 S
Mg78 O87 2.048 . S
Mg78 O90 2.141 . S
C79 O80 1.313 . S
C79 O86 1.195 . S
O80 C79 1.313 . S
C81 O82 1.245 . S
C81 O90 1.289 . S
O82 C81 1.245 . S
C83 O84 1.245 . S
C83 O85 1.289 . S
O84 C83 1.245 . S
O85 Mg78 2.141 1_545 S
O85 C83 1.289 . S
O86 Mg78 2.048 1_545 S
O86 C79 1.195 . S
O87 Mg78 2.048 . S
O87 C88 1.195 . S
C88 O87 1.195 . S
C88 O89 1.313 1_565 S
O89 C88 1.313 1_545 S
O90 Mg78 2.141 . S
O90 C81 1.289 . S
Mg91 O98 2.141 1_655 S
Mg91 O99 2.048 1_655 S
Mg91 O100 2.048 1_565 S
Mg91 O103 2.141 1_565 S
C92 O93 1.313 . S
C92 O99 1.195 . S
O93 C92 1.313 . S
C94 O95 1.245 . S
C94 O103 1.289 . S
O95 C94 1.245 . S
C96 O97 1.245 . S
C96 O98 1.289 . S
O97 C96 1.245 . S
O98 Mg91 2.141 1_455 S
O98 C96 1.289 . S
O99 Mg91 2.048 1_455 S
O99 C92 1.195 . S
O100 Mg91 2.048 1_545 S
O100 C101 1.195 . S
C101 O100 1.195 . S
C101 O102 1.313 1_655 S
O102 C101 1.313 1_455 S
O103 Mg91 2.141 1_545 S
O103 C94 1.289 . S
In104 O105 2.294 . S
In104 O106 2.326 . S
In104 O110 2.266 1_554 S
In104 O111 2.326 1_554 S
In104 O112 2.266 1_554 S
In104 O113 2.326 1_554 S
In104 O115 2.294 . S
In104 O116 2.326 . S
O105 In104 2.294 . S
O105 C114 1.240 . S
O106 In104 2.326 . S
O106 C114 1.252 . S
C107 O110 1.252 . S
C107 O111 1.260 . S
C108 O115 1.240 . S
C108 O116 1.252 . S
C109 O112 1.252 . S
C109 O113 1.260 . S
O110 In104 2.266 1_556 S
O110 C107 1.252 . S
O111 In104 2.326 1_556 S
O111 C107 1.260 . S
O112 In104 2.266 1_556 S
O112 C109 1.252 . S
O113 In104 2.326 1_556 S
O113 C109 1.260 . S
C114 O105 1.240 . S
C114 O106 1.252 . S
O115 In104 2.294 . S
O115 C108 1.240 . S
O116 In104 2.326 . S
O116 C108 1.252 . S
In117 O118 2.294 . S
In117 O119 2.326 . S
In117 O123 2.266 . S
In117 O124 2.326 . S
In117 O125 2.266 . S
In117 O126 2.326 . S
In117 O128 2.294 . S
In117 O129 2.326 . S
O118 In117 2.294 . S
O118 C127 1.240 . S
O119 In117 2.326 . S
O119 C127 1.252 . S
C120 O123 1.252 . S
C120 O124 1.260 . S
C121 O128 1.240 . S
C121 O129 1.252 . S
C122 O125 1.252 . S
C122 O126 1.260 . S
O123 In117 2.266 . S
O123 C120 1.252 . S
O124 In117 2.326 . S
O124 C120 1.260 . S
O125 In117 2.266 . S
O125 C122 1.252 . S
O126 In117 2.326 . S
O126 C122 1.260 . S
C127 O118 1.240 . S
C127 O119 1.252 . S
O128 In117 2.294 . S
O128 C121 1.240 . S
O129 In117 2.326 . S
O129 C121 1.252 . S
In130 O131 2.294 . S
In130 O132 2.326 . S
In130 O136 2.266 . S
In130 O137 2.326 . S
In130 O138 2.266 . S
In130 O139 2.326 . S
In130 O141 2.294 . S
In130 O142 2.326 . S
O131 In130 2.294 . S
O131 C140 1.240 . S
O132 In130 2.326 . S
O132 C140 1.252 . S
C133 O136 1.252 . S
C133 O137 1.260 . S
C134 O141 1.240 . S
C134 O142 1.252 . S
C135 O138 1.252 . S
C135 O139 1.260 . S
O136 In130 2.266 . S
O136 C133 1.252 . S
O137 In130 2.326 . S
O137 C133 1.260 . S
O138 In130 2.266 . S
O138 C135 1.252 . S
O139 In130 2.326 . S
O139 C135 1.260 . S
C140 O131 1.240 . S
C140 O132 1.252 . S
O141 In130 2.294 . S
O141 C134 1.240 . S
O142 In130 2.326 . S
O142 C134 1.252 . S
In143 O144 2.294 . S
In143 O145 2.326 . S
In143 O149 2.266 . S
In143 O150 2.326 . S
In143 O151 2.266 . S
In143 O152 2.326 . S
In143 O154 2.294 . S
In143 O155 2.326 . S
O144 In143 2.294 . S
O144 C153 1.240 . S
O145 In143 2.326 . S
O145 C153 1.252 . S
C146 O149 1.252 . S
C146 O150 1.260 . S
C147 O154 1.240 . S
C147 O155 1.252 . S
C148 O151 1.252 . S
C148 O152 1.260 . S
O149 In143 2.266 . S
O149 C146 1.252 . S
O150 In143 2.326 . S
O150 C146 1.260 . S
O151 In143 2.266 . S
O151 C148 1.252 . S
O152 In143 2.326 . S
O152 C148 1.260 . S
C153 O144 1.240 . S
C153 O145 1.252 . S
O154 In143 2.294 . S
O154 C147 1.240 . S
O155 In143 2.326 . S
O155 C147 1.252 . S
In156 O157 2.294 . S
In156 O158 2.326 . S
In156 O162 2.266 . S
In156 O163 2.326 . S
In156 O164 2.266 . S
In156 O165 2.326 . S
In156 O167 2.294 . S
In156 O168 2.326 . S
O157 In156 2.294 . S
O157 C166 1.240 . S
O158 In156 2.326 . S
O158 C166 1.252 . S
C159 O162 1.252 . S
C159 O163 1.260 . S
C160 O167 1.240 . S
C160 O168 1.252 . S
C161 O164 1.252 . S
C161 O165 1.260 . S
O162 In156 2.266 . S
O162 C159 1.252 . S
O163 In156 2.326 . S
O163 C159 1.260 . S
O164 In156 2.266 . S
O164 C161 1.252 . S
O165 In156 2.326 . S
O165 C161 1.260 . S
C166 O157 1.240 . S
C166 O158 1.252 . S
O167 In156 2.294 . S
O167 C160 1.240 . S
O168 In156 2.326 . S
O168 C160 1.252 . S
In169 O170 2.294 . S
In169 O171 2.326 . S
In169 O175 2.266 . S
In169 O176 2.326 . S
In169 O177 2.266 . S
In169 O178 2.326 . S
In169 O180 2.294 . S
In169 O181 2.326 . S
O170 In169 2.294 . S
O170 C179 1.240 . S
O171 In169 2.326 . S
O171 C179 1.252 . S
C172 O175 1.252 . S
C172 O176 1.260 . S
C173 O180 1.240 . S
C173 O181 1.252 . S
C174 O177 1.252 . S
C174 O178 1.260 . S
O175 In169 2.266 . S
O175 C172 1.252 . S
O176 In169 2.326 . S
O176 C172 1.260 . S
O177 In169 2.266 . S
O177 C174 1.252 . S
O178 In169 2.326 . S
O178 C174 1.260 . S
C179 O170 1.240 . S
C179 O171 1.252 . S
O180 In169 2.294 . S
O180 C173 1.240 . S
O181 In169 2.326 . S
O181 C173 1.252 . S
In182 O183 2.294 . S
In182 O184 2.326 . S
In182 O188 2.266 1_554 S
In182 O189 2.326 1_554 S
In182 O190 2.266 1_554 S
In182 O191 2.326 1_554 S
In182 O193 2.294 . S
In182 O194 2.326 . S
O183 In182 2.294 . S
O183 C192 1.240 . S
O184 In182 2.326 . S
O184 C192 1.252 . S
C185 O188 1.252 . S
C185 O189 1.260 . S
C186 O193 1.240 . S
C186 O194 1.252 . S
C187 O190 1.252 . S
C187 O191 1.260 . S
O188 In182 2.266 1_556 S
O188 C185 1.252 . S
O189 In182 2.326 1_556 S
O189 C185 1.260 . S
O190 In182 2.266 1_556 S
O190 C187 1.252 . S
O191 In182 2.326 1_556 S
O191 C187 1.260 . S
C192 O183 1.240 . S
C192 O184 1.252 . S
O193 In182 2.294 . S
O193 C186 1.240 . S
O194 In182 2.326 . S
O194 C186 1.252 . S
In195 O196 2.294 . S
In195 O197 2.326 . S
In195 O201 2.266 . S
In195 O202 2.326 . S
In195 O203 2.266 . S
In195 O204 2.326 . S
In195 O206 2.294 . S
In195 O207 2.326 . S
O196 In195 2.294 . S
O196 C205 1.240 . S
O197 In195 2.326 . S
O197 C205 1.252 . S
C198 O201 1.252 . S
C198 O202 1.260 . S
C199 O206 1.240 . S
C199 O207 1.252 . S
C200 O203 1.252 . S
C200 O204 1.260 . S
O201 In195 2.266 . S
O201 C198 1.252 . S
O202 In195 2.326 . S
O202 C198 1.260 . S
O203 In195 2.266 . S
O203 C200 1.252 . S
O204 In195 2.326 . S
O204 C200 1.260 . S
C205 O196 1.240 . S
C205 O197 1.252 . S
O206 In195 2.294 . S
O206 C199 1.240 . S
O207 In195 2.326 . S
O207 C199 1.252 . S
H208 C214 0.930 . S
H209 C217 0.930 . S
H210 C218 0.930 . S
H211 C219 0.930 . S
H212 C222 0.930 . S
H213 C223 0.930 . S
C214 H208 0.930 . S
C214 C215 1.355 . S
C214 C216 1.415 . S
C215 C214 1.355 . S
C215 C217 1.419 . S
C216 C214 1.415 . S
C216 C221 1.425 . S
C216 C223 1.409 . S
C217 H209 0.930 . S
C217 C215 1.419 . S
C217 C218 1.362 . S
C218 H210 0.930 . S
C218 C217 1.362 . S
C218 C221 1.409 . S
C219 H211 0.930 . S
C219 C220 1.355 . S
C219 C221 1.415 . S
C220 C219 1.355 . S
C220 C222 1.419 . S
C221 C216 1.425 . S
C221 C218 1.409 . S
C221 C219 1.415 . S
C222 H212 0.930 . S
C222 C220 1.419 . S
C222 C223 1.362 . S
C223 H213 0.930 . S
C223 C216 1.409 . S
C223 C222 1.362 . S
H224 C230 0.930 . S
H225 C233 0.930 . S
H226 C234 0.930 . S
H227 C235 0.930 . S
H228 C238 0.930 . S
H229 C239 0.930 . S
C230 H224 0.930 . S
C230 C231 1.355 . S
C230 C232 1.415 . S
C231 C230 1.355 . S
C231 C233 1.419 . S
C232 C230 1.415 . S
C232 C237 1.425 . S
C232 C239 1.409 . S
C233 H225 0.930 . S
C233 C231 1.419 . S
C233 C234 1.362 . S
C234 H226 0.930 . S
C234 C233 1.362 . S
C234 C237 1.409 . S
C235 H227 0.930 . S
C235 C236 1.355 . S
C235 C237 1.415 . S
C236 C235 1.355 . S
C236 C238 1.419 . S
C237 C232 1.425 . S
C237 C234 1.409 . S
C237 C235 1.415 . S
C238 H228 0.930 . S
C238 C236 1.419 . S
C238 C239 1.362 . S
C239 H229 0.930 . S
C239 C232 1.409 . S
C239 C238 1.362 . S
H240 C246 0.930 . S
H241 C249 0.930 . S
H242 C250 0.930 . S
H243 C251 0.930 . S
H244 C254 0.930 . S
H245 C255 0.930 . S
C246 H240 0.930 . S
C246 C247 1.355 . S
C246 C248 1.415 . S
C247 C246 1.355 . S
C247 C249 1.419 . S
C248 C246 1.415 . S
C248 C253 1.425 . S
C248 C255 1.409 . S
C249 H241 0.930 . S
C249 C247 1.419 . S
C249 C250 1.362 . S
C250 H242 0.930 . S
C250 C249 1.362 . S
C250 C253 1.409 . S
C251 H243 0.930 . S
C251 C252 1.355 . S
C251 C253 1.415 . S
C252 C251 1.355 . S
C252 C254 1.419 . S
C253 C248 1.425 . S
C253 C250 1.409 . S
C253 C251 1.415 . S
C254 H244 0.930 . S
C254 C252 1.419 . S
C254 C255 1.362 . S
C255 H245 0.930 . S
C255 C248 1.409 . S
C255 C254 1.362 . S
H256 C262 0.930 . S
H257 C265 0.930 . S
H258 C266 0.930 . S
H259 C267 0.930 . S
H260 C270 0.930 . S
H261 C271 0.930 . S
C262 H256 0.930 . S
C262 C263 1.355 . S
C262 C264 1.415 . S
C263 C262 1.355 . S
C263 C265 1.419 . S
C264 C262 1.415 . S
C264 C269 1.425 . S
C264 C271 1.409 . S
C265 H257 0.930 . S
C265 C263 1.419 . S
C265 C266 1.362 . S
C266 H258 0.930 . S
C266 C265 1.362 . S
C266 C269 1.409 . S
C267 H259 0.930 . S
C267 C268 1.355 . S
C267 C269 1.415 . S
C268 C267 1.355 . S
C268 C270 1.419 . S
C269 C264 1.425 . S
C269 C266 1.409 . S
C269 C267 1.415 . S
C270 H260 0.930 . S
C270 C268 1.419 . S
C270 C271 1.362 . S
C271 H261 0.930 . S
C271 C264 1.409 . S
C271 C270 1.362 . S
H272 C278 0.930 . S
H273 C281 0.930 . S
H274 C282 0.930 . S
H275 C283 0.930 . S
H276 C286 0.930 . S
H277 C287 0.930 . S
C278 H272 0.930 . S
C278 C279 1.355 . S
C278 C280 1.415 . S
C279 C278 1.355 . S
C279 C281 1.419 . S
C280 C278 1.415 . S
C280 C285 1.425 . S
C280 C287 1.409 . S
C281 H273 0.930 . S
C281 C279 1.419 . S
C281 C282 1.362 . S
C282 H274 0.930 . S
C282 C281 1.362 . S
C282 C285 1.409 . S
C283 H275 0.930 . S
C283 C284 1.355 . S
C283 C285 1.415 . S
C284 C283 1.355 . S
C284 C286 1.419 . S
C285 C280 1.425 . S
C285 C282 1.409 . S
C285 C283 1.415 . S
C286 H276 0.930 . S
C286 C284 1.419 . S
C286 C287 1.362 . S
C287 H277 0.930 . S
C287 C280 1.409 . S
C287 C286 1.362 . S
H288 C294 0.930 . S
H289 C297 0.930 . S
H290 C298 0.930 . S
H291 C299 0.930 . S
H292 C302 0.930 . S
H293 C303 0.930 . S
C294 H288 0.930 . S
C294 C295 1.355 . S
C294 C296 1.415 . S
C295 C294 1.355 . S
C295 C297 1.419 . S
C296 C294 1.415 . S
C296 C301 1.425 . S
C296 C303 1.409 . S
C297 H289 0.930 . S
C297 C295 1.419 . S
C297 C298 1.362 . S
C298 H290 0.930 . S
C298 C297 1.362 . S
C298 C301 1.409 . S
C299 H291 0.930 . S
C299 C300 1.355 . S
C299 C301 1.415 . S
C300 C299 1.355 . S
C300 C302 1.419 . S
C301 C296 1.425 . S
C301 C298 1.409 . S
C301 C299 1.415 . S
C302 H292 0.930 . S
C302 C300 1.419 . S
C302 C303 1.362 . S
C303 H293 0.930 . S
C303 C296 1.409 . S
C303 C302 1.362 . S
H304 C310 0.930 . S
H305 C313 0.930 . S
H306 C314 0.930 . S
H307 C315 0.930 . S
H308 C318 0.930 . S
H309 C319 0.930 . S
C310 H304 0.930 . S
C310 C311 1.355 . S
C310 C312 1.415 . S
C311 C310 1.355 . S
C311 C313 1.419 . S
C312 C310 1.415 . S
C312 C317 1.425 . S
C312 C319 1.409 . S
C313 H305 0.930 . S
C313 C311 1.419 . S
C313 C314 1.362 . S
C314 H306 0.930 . S
C314 C313 1.362 . S
C314 C317 1.409 . S
C315 H307 0.930 . S
C315 C316 1.355 . S
C315 C317 1.415 . S
C316 C315 1.355 . S
C316 C318 1.419 . S
C317 C312 1.425 . S
C317 C314 1.409 . S
C317 C315 1.415 . S
C318 H308 0.930 . S
C318 C316 1.419 . S
C318 C319 1.362 . S
C319 H309 0.930 . S
C319 C312 1.409 . S
C319 C318 1.362 . S
H320 C326 0.930 . S
H321 C329 0.930 . S
H322 C330 0.930 . S
H323 C331 0.930 . S
H324 C334 0.930 . S
H325 C335 0.930 . S
C326 H320 0.930 . S
C326 C327 1.355 . S
C326 C328 1.415 . S
C327 C326 1.355 . S
C327 C329 1.419 . S
C328 C326 1.415 . S
C328 C333 1.425 . S
C328 C335 1.409 . S
C329 H321 0.930 . S
C329 C327 1.419 . S
C329 C330 1.362 . S
C330 H322 0.930 . S
C330 C329 1.362 . S
C330 C333 1.409 . S
C331 H323 0.930 . S
C331 C332 1.355 . S
C331 C333 1.415 . S
C332 C331 1.355 . S
C332 C334 1.419 . S
C333 C328 1.425 . S
C333 C330 1.409 . S
C333 C331 1.415 . S
C334 H324 0.930 . S
C334 C332 1.419 . S
C334 C335 1.362 . S
C335 H325 0.930 . S
C335 C328 1.409 . S
C335 C334 1.362 . S
H336 C342 0.930 . S
H337 C345 0.930 . S
H338 C346 0.930 . S
H339 C347 0.930 . S
H340 C350 0.930 . S
H341 C351 0.930 . S
C342 H336 0.930 . S
C342 C343 1.355 . S
C342 C344 1.415 . S
C343 C342 1.355 . S
C343 C345 1.419 . S
C344 C342 1.415 . S
C344 C349 1.425 . S
C344 C351 1.409 . S
C345 H337 0.930 . S
C345 C343 1.419 . S
C345 C346 1.362 . S
C346 H338 0.930 . S
C346 C345 1.362 . S
C346 C349 1.409 . S
C347 H339 0.930 . S
C347 C348 1.355 . S
C347 C349 1.415 . S
C348 C347 1.355 . S
C348 C350 1.419 . S
C349 C344 1.425 . S
C349 C346 1.409 . S
C349 C347 1.415 . S
C350 H340 0.930 . S
C350 C348 1.419 . S
C350 C351 1.362 . S
C351 H341 0.930 . S
C351 C344 1.409 . S
C351 C350 1.362 . S
H352 C358 0.930 . S
H353 C361 0.930 . S
H354 C362 0.930 . S
H355 C363 0.930 . S
H356 C366 0.930 . S
H357 C367 0.930 . S
C358 H352 0.930 . S
C358 C359 1.355 . S
C358 C360 1.415 . S
C359 C358 1.355 . S
C359 C361 1.419 . S
C360 C358 1.415 . S
C360 C365 1.425 . S
C360 C367 1.409 . S
C361 H353 0.930 . S
C361 C359 1.419 . S
C361 C362 1.362 . S
C362 H354 0.930 . S
C362 C361 1.362 . S
C362 C365 1.409 . S
C363 H355 0.930 . S
C363 C364 1.355 . S
C363 C365 1.415 . S
C364 C363 1.355 . S
C364 C366 1.419 . S
C365 C360 1.425 . S
C365 C362 1.409 . S
C365 C363 1.415 . S
C366 H356 0.930 . S
C366 C364 1.419 . S
C366 C367 1.362 . S
C367 H357 0.930 . S
C367 C360 1.409 . S
C367 C366 1.362 . S
H368 C374 0.930 . S
H369 C377 0.930 . S
H370 C378 0.930 . S
H371 C379 0.930 . S
H372 C382 0.930 . S
H373 C383 0.930 . S
C374 H368 0.930 . S
C374 C375 1.355 . S
C374 C376 1.415 . S
C375 C374 1.355 . S
C375 C377 1.419 . S
C376 C374 1.415 . S
C376 C381 1.425 . S
C376 C383 1.409 . S
C377 H369 0.930 . S
C377 C375 1.419 . S
C377 C378 1.362 . S
C378 H370 0.930 . S
C378 C377 1.362 . S
C378 C381 1.409 . S
C379 H371 0.930 . S
C379 C380 1.355 . S
C379 C381 1.415 . S
C380 C379 1.355 . S
C380 C382 1.419 . S
C381 C376 1.425 . S
C381 C378 1.409 . S
C381 C379 1.415 . S
C382 H372 0.930 . S
C382 C380 1.419 . S
C382 C383 1.362 . S
C383 H373 0.930 . S
C383 C376 1.409 . S
C383 C382 1.362 . S
H384 C390 0.930 . S
H385 C393 0.930 . S
H386 C394 0.930 . S
H387 C395 0.930 . S
H388 C398 0.930 . S
H389 C399 0.930 . S
C390 H384 0.930 . S
C390 C391 1.355 . S
C390 C392 1.415 . S
C391 C390 1.355 . S
C391 C393 1.419 . S
C392 C390 1.415 . S
C392 C397 1.425 . S
C392 C399 1.409 . S
C393 H385 0.930 . S
C393 C391 1.419 . S
C393 C394 1.362 . S
C394 H386 0.930 . S
C394 C393 1.362 . S
C394 C397 1.409 . S
C395 H387 0.930 . S
C395 C396 1.355 . S
C395 C397 1.415 . S
C396 C395 1.355 . S
C396 C398 1.419 . S
C397 C392 1.425 . S
C397 C394 1.409 . S
C397 C395 1.415 . S
C398 H388 0.930 . S
C398 C396 1.419 . S
C398 C399 1.362 . S
C399 H389 0.930 . S
C399 C392 1.409 . S
C399 C398 1.362 . S
H400 C406 0.930 . S
H401 C409 0.930 . S
H402 C410 0.930 . S
H403 C411 0.930 . S
H404 C414 0.930 . S
H405 C415 0.930 . S
C406 H400 0.930 . S
C406 C407 1.355 . S
C406 C408 1.415 . S
C407 C406 1.355 . S
C407 C409 1.419 . S
C408 C406 1.415 . S
C408 C413 1.425 . S
C408 C415 1.409 . S
C409 H401 0.930 . S
C409 C407 1.419 . S
C409 C410 1.362 . S
C410 H402 0.930 . S
C410 C409 1.362 . S
C410 C413 1.409 . S
C411 H403 0.930 . S
C411 C412 1.355 . S
C411 C413 1.415 . S
C412 C411 1.355 . S
C412 C414 1.419 . S
C413 C408 1.425 . S
C413 C410 1.409 . S
C413 C411 1.415 . S
C414 H404 0.930 . S
C414 C412 1.419 . S
C414 C415 1.362 . S
C415 H405 0.930 . S
C415 C408 1.409 . S
C415 C414 1.362 . S
H416 C422 0.930 . S
H417 C425 0.930 . S
H418 C426 0.930 . S
H419 C427 0.930 . S
H420 C430 0.930 . S
H421 C431 0.930 . S
C422 H416 0.930 . S
C422 C423 1.355 . S
C422 C424 1.415 . S
C423 C422 1.355 . S
C423 C425 1.419 . S
C424 C422 1.415 . S
C424 C429 1.425 . S
C424 C431 1.409 . S
C425 H417 0.930 . S
C425 C423 1.419 . S
C425 C426 1.362 . S
C426 H418 0.930 . S
C426 C425 1.362 . S
C426 C429 1.409 . S
C427 H419 0.930 . S
C427 C428 1.355 . S
C427 C429 1.415 . S
C428 C427 1.355 . S
C428 C430 1.419 . S
C429 C424 1.425 . S
C429 C426 1.409 . S
C429 C427 1.415 . S
C430 H420 0.930 . S
C430 C428 1.419 . S
C430 C431 1.362 . S
C431 H421 0.930 . S
C431 C424 1.409 . S
C431 C430 1.362 . S
H432 C438 0.930 . S
H433 C441 0.930 . S
H434 C442 0.930 . S
H435 C443 0.930 . S
H436 C446 0.930 1_554 S
H437 C447 0.930 . S
C438 H432 0.930 . S
C438 C439 1.355 . S
C438 C440 1.415 . S
C439 C438 1.355 . S
C439 C441 1.419 . S
C440 C438 1.415 . S
C440 C445 1.425 . S
C440 C447 1.409 . S
C441 H433 0.930 . S
C441 C439 1.419 . S
C441 C442 1.362 . S
C442 H434 0.930 . S
C442 C441 1.362 . S
C442 C445 1.409 . S
C443 H435 0.930 . S
C443 C444 1.355 . S
C443 C445 1.415 . S
C444 C443 1.355 . S
C444 C446 1.419 . S
C445 C440 1.425 . S
C445 C442 1.409 . S
C445 C443 1.415 . S
C446 H436 0.930 1_556 S
C446 C444 1.419 . S
C446 C447 1.362 . S
C447 H437 0.930 . S
C447 C440 1.409 . S
C447 C446 1.362 . S
H448 C454 0.930 . S
H449 C457 0.930 . S
H450 C458 0.930 . S
H451 C459 0.930 . S
H452 C462 0.930 . S
H453 C463 0.930 . S
C454 H448 0.930 . S
C454 C455 1.355 . S
C454 C456 1.415 . S
C455 C454 1.355 . S
C455 C457 1.419 . S
C456 C454 1.415 . S
C456 C461 1.425 . S
C456 C463 1.409 . S
C457 H449 0.930 . S
C457 C455 1.419 . S
C457 C458 1.362 . S
C458 H450 0.930 . S
C458 C457 1.362 . S
C458 C461 1.409 . S
C459 H451 0.930 . S
C459 C460 1.355 . S
C459 C461 1.415 . S
C460 C459 1.355 . S
C460 C462 1.419 . S
C461 C456 1.425 . S
C461 C458 1.409 . S
C461 C459 1.415 . S
C462 H452 0.930 . S
C462 C460 1.419 . S
C462 C463 1.362 . S
C463 H453 0.930 . S
C463 C456 1.409 . S
C463 C462 1.362 . S
H464 C470 0.930 . S
H465 C473 0.930 . S
H466 C474 0.930 . S
H467 C475 0.930 . S
H468 C478 0.930 . S
H469 C479 0.930 . S
C470 H464 0.930 . S
C470 C471 1.355 . S
C470 C472 1.415 . S
C471 C470 1.355 . S
C471 C473 1.419 . S
C472 C470 1.415 . S
C472 C477 1.425 . S
C472 C479 1.409 . S
C473 H465 0.930 . S
C473 C471 1.419 . S
C473 C474 1.362 . S
C474 H466 0.930 . S
C474 C473 1.362 . S
C474 C477 1.409 . S
C475 H467 0.930 . S
C475 C476 1.355 . S
C475 C477 1.415 . S
C476 C475 1.355 . S
C476 C478 1.419 . S
C477 C472 1.425 . S
C477 C474 1.409 . S
C477 C475 1.415 . S
C478 H468 0.930 . S
C478 C476 1.419 . S
C478 C479 1.362 . S
C479 H469 0.930 . S
C479 C472 1.409 . S
C479 C478 1.362 . S
H480 C486 0.930 . S
H481 C489 0.930 . S
H482 C490 0.930 . S
H483 C491 0.930 . S
H484 C494 0.930 . S
H485 C495 0.930 . S
C486 H480 0.930 . S
C486 C487 1.355 . S
C486 C488 1.415 . S
C487 C486 1.355 . S
C487 C489 1.419 . S
C488 C486 1.415 . S
C488 C493 1.425 . S
C488 C495 1.409 . S
C489 H481 0.930 . S
C489 C487 1.419 . S
C489 C490 1.362 . S
C490 H482 0.930 . S
C490 C489 1.362 . S
C490 C493 1.409 . S
C491 H483 0.930 . S
C491 C492 1.355 . S
C491 C493 1.415 . S
C492 C491 1.355 . S
C492 C494 1.419 . S
C493 C488 1.425 . S
C493 C490 1.409 . S
C493 C491 1.415 . S
C494 H484 0.930 . S
C494 C492 1.419 . S
C494 C495 1.362 . S
C495 H485 0.930 . S
C495 C488 1.409 . S
C495 C494 1.362 . S
H496 C502 0.930 . S
H497 C505 0.930 . S
H498 C506 0.930 . S
H499 C507 0.930 . S
H500 C510 0.930 . S
H501 C511 0.930 . S
C502 H496 0.930 . S
C502 C503 1.355 . S
C502 C504 1.415 . S
C503 C502 1.355 . S
C503 C505 1.419 . S
C504 C502 1.415 . S
C504 C509 1.425 . S
C504 C511 1.409 . S
C505 H497 0.930 . S
C505 C503 1.419 . S
C505 C506 1.362 . S
C506 H498 0.930 . S
C506 C505 1.362 . S
C506 C509 1.409 . S
C507 H499 0.930 . S
C507 C508 1.355 . S
C507 C509 1.415 . S
C508 C507 1.355 . S
C508 C510 1.419 . S
C509 C504 1.425 . S
C509 C506 1.409 . S
C509 C507 1.415 . S
C510 H500 0.930 . S
C510 C508 1.419 . S
C510 C511 1.362 . S
C511 H501 0.930 . S
C511 C504 1.409 . S
C511 C510 1.362 . S
H512 C518 0.930 . S
H513 C521 0.930 . S
H514 C522 0.930 . S
H515 C523 0.930 . S
H516 C526 0.930 . S
H517 C527 0.930 . S
C518 H512 0.930 . S
C518 C519 1.355 . S
C518 C520 1.415 . S
C519 C518 1.355 . S
C519 C521 1.419 . S
C520 C518 1.415 . S
C520 C525 1.425 . S
C520 C527 1.409 . S
C521 H513 0.930 . S
C521 C519 1.419 . S
C521 C522 1.362 . S
C522 H514 0.930 . S
C522 C521 1.362 . S
C522 C525 1.409 . S
C523 H515 0.930 . S
C523 C524 1.355 . S
C523 C525 1.415 . S
C524 C523 1.355 . S
C524 C526 1.419 . S
C525 C520 1.425 . S
C525 C522 1.409 . S
C525 C523 1.415 . S
C526 H516 0.930 . S
C526 C524 1.419 . S
C526 C527 1.362 . S
C527 H517 0.930 . S
C527 C520 1.409 . S
C527 C526 1.362 . S
H528 C534 0.930 . S
H529 C537 0.930 . S
H530 C538 0.930 . S
H531 C539 0.930 . S
H532 C542 0.930 . S
H533 C543 0.930 . S
C534 H528 0.930 . S
C534 C535 1.355 . S
C534 C536 1.415 . S
C535 C534 1.355 . S
C535 C537 1.419 . S
C536 C534 1.415 . S
C536 C541 1.425 . S
C536 C543 1.409 . S
C537 H529 0.930 . S
C537 C535 1.419 . S
C537 C538 1.362 . S
C538 H530 0.930 . S
C538 C537 1.362 . S
C538 C541 1.409 . S
C539 H531 0.930 . S
C539 C540 1.355 . S
C539 C541 1.415 . S
C540 C539 1.355 . S
C540 C542 1.419 . S
C541 C536 1.425 . S
C541 C538 1.409 . S
C541 C539 1.415 . S
C542 H532 0.930 . S
C542 C540 1.419 . S
C542 C543 1.362 . S
C543 H533 0.930 . S
C543 C536 1.409 . S
C543 C542 1.362 . S
H544 C550 0.930 . S
H545 C553 0.930 . S
H546 C554 0.930 . S
H547 C555 0.930 . S
H548 C558 0.930 . S
H549 C559 0.930 . S
C550 H544 0.930 . S
C550 C551 1.355 . S
C550 C552 1.415 . S
C551 C550 1.355 . S
C551 C553 1.419 . S
C552 C550 1.415 . S
C552 C557 1.425 . S
C552 C559 1.409 . S
C553 H545 0.930 . S
C553 C551 1.419 . S
C553 C554 1.362 . S
C554 H546 0.930 . S
C554 C553 1.362 . S
C554 C557 1.409 . S
C555 H547 0.930 . S
C555 C556 1.355 . S
C555 C557 1.415 . S
C556 C555 1.355 . S
C556 C558 1.419 . S
C557 C552 1.425 . S
C557 C554 1.409 . S
C557 C555 1.415 . S
C558 H548 0.930 . S
C558 C556 1.419 . S
C558 C559 1.362 . S
C559 H549 0.930 . S
C559 C552 1.409 . S
C559 C558 1.362 . S
H560 C566 0.930 . S
H561 C569 0.930 . S
H562 C570 0.930 . S
H563 C571 0.930 . S
H564 C574 0.930 . S
H565 C575 0.930 . S
C566 H560 0.930 . S
C566 C567 1.355 . S
C566 C568 1.415 . S
C567 C566 1.355 . S
C567 C569 1.419 . S
C568 C566 1.415 . S
C568 C573 1.425 . S
C568 C575 1.409 . S
C569 H561 0.930 . S
C569 C567 1.419 . S
C569 C570 1.362 . S
C570 H562 0.930 . S
C570 C569 1.362 . S
C570 C573 1.409 . S
C571 H563 0.930 . S
C571 C572 1.355 . S
C571 C573 1.415 . S
C572 C571 1.355 . S
C572 C574 1.419 . S
C573 C568 1.425 . S
C573 C570 1.409 . S
C573 C571 1.415 . S
C574 H564 0.930 . S
C574 C572 1.419 . S
C574 C575 1.362 . S
C575 H565 0.930 . S
C575 C568 1.409 . S
C575 C574 1.362 . S
H576 C582 0.930 . S
H577 C585 0.930 . S
H578 C586 0.930 . S
H579 C587 0.930 . S
H580 C590 0.930 . S
H581 C591 0.930 . S
C582 H576 0.930 . S
C582 C583 1.355 . S
C582 C584 1.415 . S
C583 C582 1.355 . S
C583 C585 1.419 . S
C584 C582 1.415 . S
C584 C589 1.425 . S
C584 C591 1.409 . S
C585 H577 0.930 . S
C585 C583 1.419 . S
C585 C586 1.362 . S
C586 H578 0.930 . S
C586 C585 1.362 . S
C586 C589 1.409 . S
C587 H579 0.930 . S
C587 C588 1.355 . S
C587 C589 1.415 . S
C588 C587 1.355 . S
C588 C590 1.419 . S
C589 C584 1.425 . S
C589 C586 1.409 . S
C589 C587 1.415 . S
C590 H580 0.930 . S
C590 C588 1.419 . S
C590 C591 1.362 . S
C591 H581 0.930 . S
C591 C584 1.409 . S
C591 C590 1.362 . S
H592 C598 0.930 . S
H593 C601 0.930 . S
H594 C602 0.930 . S
H595 C603 0.930 . S
H596 C606 0.930 . S
H597 C607 0.930 . S
C598 H592 0.930 . S
C598 C599 1.355 . S
C598 C600 1.415 . S
C599 C598 1.355 . S
C599 C601 1.419 . S
C600 C598 1.415 . S
C600 C605 1.425 . S
C600 C607 1.409 . S
C601 H593 0.930 . S
C601 C599 1.419 . S
C601 C602 1.362 . S
C602 H594 0.930 . S
C602 C601 1.362 . S
C602 C605 1.409 . S
C603 H595 0.930 . S
C603 C604 1.355 . S
C603 C605 1.415 . S
C604 C603 1.355 . S
C604 C606 1.419 . S
C605 C600 1.425 . S
C605 C602 1.409 . S
C605 C603 1.415 . S
C606 H596 0.930 . S
C606 C604 1.419 . S
C606 C607 1.362 . S
C607 H597 0.930 . S
C607 C600 1.409 . S
C607 C606 1.362 . S
H608 C614 0.930 . S
H609 C617 0.930 . S
H610 C618 0.930 . S
H611 C619 0.930 . S
H612 C622 0.930 . S
H613 C623 0.930 . S
C614 H608 0.930 . S
C614 C615 1.355 . S
C614 C616 1.415 . S
C615 C614 1.355 . S
C615 C617 1.419 . S
C616 C614 1.415 . S
C616 C621 1.425 . S
C616 C623 1.409 . S
C617 H609 0.930 . S
C617 C615 1.419 . S
C617 C618 1.362 . S
C618 H610 0.930 . S
C618 C617 1.362 . S
C618 C621 1.409 . S
C619 H611 0.930 . S
C619 C620 1.355 . S
C619 C621 1.415 . S
C620 C619 1.355 . S
C620 C622 1.419 . S
C621 C616 1.425 . S
C621 C618 1.409 . S
C621 C619 1.415 . S
C622 H612 0.930 . S
C622 C620 1.419 . S
C622 C623 1.362 . S
C623 H613 0.930 . S
C623 C616 1.409 . S
C623 C622 1.362 . S
H624 C630 0.930 . S
H625 C633 0.930 . S
H626 C634 0.930 . S
H627 C635 0.930 . S
H628 C638 0.930 . S
H629 C639 0.930 . S
C630 H624 0.930 . S
C630 C631 1.355 . S
C630 C632 1.415 . S
C631 C630 1.355 . S
C631 C633 1.419 . S
C632 C630 1.415 . S
C632 C637 1.425 . S
C632 C639 1.409 . S
C633 H625 0.930 . S
C633 C631 1.419 . S
C633 C634 1.362 . S
C634 H626 0.930 . S
C634 C633 1.362 . S
C634 C637 1.409 . S
C635 H627 0.930 . S
C635 C636 1.355 . S
C635 C637 1.415 . S
C636 C635 1.355 . S
C636 C638 1.419 . S
C637 C632 1.425 . S
C637 C634 1.409 . S
C637 C635 1.415 . S
C638 H628 0.930 . S
C638 C636 1.419 . S
C638 C639 1.362 . S
C639 H629 0.930 . S
C639 C632 1.409 . S
C639 C638 1.362 . S
H640 C646 0.930 . S
H641 C649 0.930 . S
H642 C650 0.930 . S
H643 C651 0.930 . S
H644 C654 0.930 . S
H645 C655 0.930 . S
C646 H640 0.930 . S
C646 C647 1.355 . S
C646 C648 1.415 . S
C647 C646 1.355 . S
C647 C649 1.419 . S
C648 C646 1.415 . S
C648 C653 1.425 . S
C648 C655 1.409 . S
C649 H641 0.930 . S
C649 C647 1.419 . S
C649 C650 1.362 . S
C650 H642 0.930 . S
C650 C649 1.362 . S
C650 C653 1.409 . S
C651 H643 0.930 . S
C651 C652 1.355 . S
C651 C653 1.415 . S
C652 C651 1.355 . S
C652 C654 1.419 . S
C653 C648 1.425 . S
C653 C650 1.409 . S
C653 C651 1.415 . S
C654 H644 0.930 . S
C654 C652 1.419 . S
C654 C655 1.362 . S
C655 H645 0.930 . S
C655 C648 1.409 . S
C655 C654 1.362 . S
H656 C662 0.930 . S
H657 C665 0.930 . S
H658 C666 0.930 . S
H659 C667 0.930 . S
H660 C670 0.930 . S
H661 C671 0.930 . S
C662 H656 0.930 . S
C662 C663 1.355 . S
C662 C664 1.415 . S
C663 C662 1.355 . S
C663 C665 1.419 . S
C664 C662 1.415 . S
C664 C669 1.425 . S
C664 C671 1.409 . S
C665 H657 0.930 . S
C665 C663 1.419 . S
C665 C666 1.362 . S
C666 H658 0.930 . S
C666 C665 1.362 . S
C666 C669 1.409 . S
C667 H659 0.930 . S
C667 C668 1.355 . S
C667 C669 1.415 . S
C668 C667 1.355 . S
C668 C670 1.419 . S
C669 C664 1.425 . S
C669 C666 1.409 . S
C669 C667 1.415 . S
C670 H660 0.930 . S
C670 C668 1.419 . S
C670 C671 1.362 . S
C671 H661 0.930 . S
C671 C664 1.409 . S
C671 C670 1.362 . S
H672 C678 0.930 . S
H673 C681 0.930 . S
H674 C682 0.930 . S
H675 C683 0.930 . S
H676 C686 0.930 . S
H677 C687 0.930 . S
C678 H672 0.930 . S
C678 C679 1.355 . S
C678 C680 1.415 . S
C679 C678 1.355 . S
C679 C681 1.419 . S
C680 C678 1.415 . S
C680 C685 1.425 . S
C680 C687 1.409 . S
C681 H673 0.930 . S
C681 C679 1.419 . S
C681 C682 1.362 . S
C682 H674 0.930 . S
C682 C681 1.362 . S
C682 C685 1.409 . S
C683 H675 0.930 . S
C683 C684 1.355 . S
C683 C685 1.415 . S
C684 C683 1.355 . S
C684 C686 1.419 . S
C685 C680 1.425 . S
C685 C682 1.409 . S
C685 C683 1.415 . S
C686 H676 0.930 . S
C686 C684 1.419 . S
C686 C687 1.362 . S
C687 H677 0.930 . S
C687 C680 1.409 . S
C687 C686 1.362 . S
H688 C694 0.930 . S
H689 C697 0.930 . S
H690 C698 0.930 . S
H691 C699 0.930 . S
H692 C702 0.930 . S
H693 C703 0.930 . S
C694 H688 0.930 . S
C694 C695 1.355 . S
C694 C696 1.415 . S
C695 C694 1.355 . S
C695 C697 1.419 . S
C696 C694 1.415 . S
C696 C701 1.425 . S
C696 C703 1.409 . S
C697 H689 0.930 . S
C697 C695 1.419 . S
C697 C698 1.362 . S
C698 H690 0.930 . S
C698 C697 1.362 . S
C698 C701 1.409 . S
C699 H691 0.930 . S
C699 C700 1.355 . S
C699 C701 1.415 . S
C700 C699 1.355 . S
C700 C702 1.419 . S
C701 C696 1.425 . S
C701 C698 1.409 . S
C701 C699 1.415 . S
C702 H692 0.930 . S
C702 C700 1.419 . S
C702 C703 1.362 . S
C703 H693 0.930 . S
C703 C696 1.409 . S
C703 C702 1.362 . S
H704 C710 0.930 . S
H705 C713 0.930 . S
H706 C714 0.930 . S
H707 C715 0.930 . S
H708 C718 0.930 . S
H709 C719 0.930 . S
C710 H704 0.930 . S
C710 C711 1.355 . S
C710 C712 1.415 . S
C711 C710 1.355 . S
C711 C713 1.419 . S
C712 C710 1.415 . S
C712 C717 1.425 . S
C712 C719 1.409 . S
C713 H705 0.930 . S
C713 C711 1.419 . S
C713 C714 1.362 . S
C714 H706 0.930 . S
C714 C713 1.362 . S
C714 C717 1.409 . S
C715 H707 0.930 . S
C715 C716 1.355 . S
C715 C717 1.415 . S
C716 C715 1.355 . S
C716 C718 1.419 . S
C717 C712 1.425 . S
C717 C714 1.409 . S
C717 C715 1.415 . S
C718 H708 0.930 . S
C718 C716 1.419 . S
C718 C719 1.362 . S
C719 H709 0.930 . S
C719 C712 1.409 . S
C719 C718 1.362 . S
C220 C120 1.316 . S
C215 C5 1.296 . S
C236 C134 1.301 . S
C231 C18 1.289 . S
C252 C147 1.324 . S
C247 C31 1.302 . S
C263 C42 1.327 . S
C268 C114 1.287 . S
C279 C57 1.333 . S
C284 C107 1.322 . S
C295 C70 1.317 . S
C300 C127 1.331 . S
C316 C135 1.315 . S
C311 C81 1.297 . S
C332 C148 1.284 . S
C327 C96 1.303 . S
C343 C29 1.287 . S
C348 C174 1.310 . S
C364 C192 1.274 . S
C359 C44 1.301 . S
C375 C3 1.277 . S
C380 C199 1.328 . S
C396 C166 1.300 . S
C391 C16 1.299 . S
C407 C83 1.331 . S
C412 C159 1.299 . S
C423 C94 1.327 . S
C428 C173 1.290 . S
C444 C185 1.307 . S
C439 C55 1.306 . S
C455 C68 1.297 . S
C460 C200 1.317 . S
C476 C133 1.564 . S
C471 C1 1.538 . S
C492 C146 1.523 . S
C487 C14 1.542 . S
C503 C27 1.504 . S
C508 C109 1.529 . S
C519 C49 1.573 . S
C524 C121 1.530 . S
C535 C53 1.522 . S
C540 C153 1.497 . S
C556 C108 1.548 . S
C551 C66 1.525 . S
C572 C122 1.550 . S
C567 C88 1.552 . S
C588 C140 1.504 . S
C583 C92 1.530 . S
C604 C187 1.538 . S
C599 C36 1.580 . S
C620 C198 1.520 . S
C615 C40 1.537 . S
C631 C10 1.552 . S
C636 C161 1.534 . S
C652 C179 1.532 . S
C647 C23 1.549 . S
C668 C205 1.505 . S
C663 C79 1.534 . S
C679 C101 1.566 . S
C684 C160 1.498 . S
C700 C172 1.536 . S
C695 C62 1.577 . S
C716 C186 1.513 . S
C711 C75 1.575 . S
