# Generated by pormake.
# Topology ibd, (4,6)-cn, num edge types: 1
# Building blocks:
#     Node 0, Type 0, BuildingBlock: CEKHIL_clean_sbu_0, # of connection points: 4
#     Node 1, Type 0, BuildingBlock: CEKHIL_clean_sbu_0, # of connection points: 4
#     Node 2, Type 0, BuildingBlock: CEKHIL_clean_sbu_0, # of connection points: 4
#     Node 3, Type 0, BuildingBlock: CEKHIL_clean_sbu_0, # of connection points: 4
#     Node 4, Type 0, BuildingBlock: CEKHIL_clean_sbu_0, # of connection points: 4
#     Node 5, Type 0, BuildingBlock: CEKHIL_clean_sbu_0, # of connection points: 4
#     Node 6, Type 0, BuildingBlock: CEKHIL_clean_sbu_0, # of connection points: 4
#     Node 7, Type 0, BuildingBlock: CEKHIL_clean_sbu_0, # of connection points: 4
#     Node 8, Type 0, BuildingBlock: CEKHIL_clean_sbu_0, # of connection points: 4
#     Node 9, Type 0, BuildingBlock: CEKHIL_clean_sbu_0, # of connection points: 4
#     Node 10, Type 0, BuildingBlock: CEKHIL_clean_sbu_0, # of connection points: 4
#     Node 11, Type 0, BuildingBlock: CEKHIL_clean_sbu_0, # of connection points: 4
#     Node 12, Type 0, BuildingBlock: CEKHIL_clean_sbu_0, # of connection points: 4
#     Node 13, Type 0, BuildingBlock: CEKHIL_clean_sbu_0, # of connection points: 4
#     Node 14, Type 0, BuildingBlock: CEKHIL_clean_sbu_0, # of connection points: 4
#     Node 15, Type 0, BuildingBlock: CEKHIL_clean_sbu_0, # of connection points: 4
#     Node 16, Type 0, BuildingBlock: CEKHIL_clean_sbu_0, # of connection points: 4
#     Node 17, Type 0, BuildingBlock: CEKHIL_clean_sbu_0, # of connection points: 4
#     Node 18, Type 0, BuildingBlock: CEKHIL_clean_sbu_0, # of connection points: 4
#     Node 19, Type 0, BuildingBlock: CEKHIL_clean_sbu_0, # of connection points: 4
#     Node 20, Type 0, BuildingBlock: CEKHIL_clean_sbu_0, # of connection points: 4
#     Node 21, Type 0, BuildingBlock: CEKHIL_clean_sbu_0, # of connection points: 4
#     Node 22, Type 0, BuildingBlock: CEKHIL_clean_sbu_0, # of connection points: 4
#     Node 23, Type 0, BuildingBlock: CEKHIL_clean_sbu_0, # of connection points: 4
#     Node 24, Type 1, BuildingBlock: IZENUY_clean_sbu_0, # of connection points: 6
#     Node 25, Type 1, BuildingBlock: IZENUY_clean_sbu_0, # of connection points: 6
#     Node 26, Type 1, BuildingBlock: IZENUY_clean_sbu_0, # of connection points: 6
#     Node 27, Type 1, BuildingBlock: IZENUY_clean_sbu_0, # of connection points: 6
#     Node 28, Type 1, BuildingBlock: IZENUY_clean_sbu_0, # of connection points: 6
#     Node 29, Type 1, BuildingBlock: IZENUY_clean_sbu_0, # of connection points: 6
#     Node 30, Type 1, BuildingBlock: IZENUY_clean_sbu_0, # of connection points: 6
#     Node 31, Type 1, BuildingBlock: IZENUY_clean_sbu_0, # of connection points: 6
#     Node 32, Type 1, BuildingBlock: IZENUY_clean_sbu_0, # of connection points: 6
#     Node 33, Type 1, BuildingBlock: IZENUY_clean_sbu_0, # of connection points: 6
#     Node 34, Type 1, BuildingBlock: IZENUY_clean_sbu_0, # of connection points: 6
#     Node 35, Type 1, BuildingBlock: IZENUY_clean_sbu_0, # of connection points: 6
#     Node 36, Type 1, BuildingBlock: IZENUY_clean_sbu_0, # of connection points: 6
#     Node 37, Type 1, BuildingBlock: IZENUY_clean_sbu_0, # of connection points: 6
#     Node 38, Type 1, BuildingBlock: IZENUY_clean_sbu_0, # of connection points: 6
#     Node 39, Type 1, BuildingBlock: IZENUY_clean_sbu_0, # of connection points: 6
#     Edge 40, Type (0, 1), BuildingBlock: CIFDUS_clean_linker_0, # of connection points: 2
#     Edge 41, Type (0, 1), BuildingBlock: CIFDUS_clean_linker_0, # of connection points: 2
#     Edge 42, Type (0, 1), BuildingBlock: CIFDUS_clean_linker_0, # of connection points: 2
#     Edge 43, Type (0, 1), BuildingBlock: CIFDUS_clean_linker_0, # of connection points: 2
#     Edge 44, Type (0, 1), BuildingBlock: CIFDUS_clean_linker_0, # of connection points: 2
#     Edge 45, Type (0, 1), BuildingBlock: CIFDUS_clean_linker_0, # of connection points: 2
#     Edge 46, Type (0, 1), BuildingBlock: CIFDUS_clean_linker_0, # of connection points: 2
#     Edge 47, Type (0, 1), BuildingBlock: CIFDUS_clean_linker_0, # of connection points: 2
#     Edge 48, Type (0, 1), BuildingBlock: CIFDUS_clean_linker_0, # of connection points: 2
#     Edge 49, Type (0, 1), BuildingBlock: CIFDUS_clean_linker_0, # of connection points: 2
#     Edge 50, Type (0, 1), BuildingBlock: CIFDUS_clean_linker_0, # of connection points: 2
#     Edge 51, Type (0, 1), BuildingBlock: CIFDUS_clean_linker_0, # of connection points: 2
#     Edge 52, Type (0, 1), BuildingBlock: CIFDUS_clean_linker_0, # of connection points: 2
#     Edge 53, Type (0, 1), BuildingBlock: CIFDUS_clean_linker_0, # of connection points: 2
#     Edge 54, Type (0, 1), BuildingBlock: CIFDUS_clean_linker_0, # of connection points: 2
#     Edge 55, Type (0, 1), BuildingBlock: CIFDUS_clean_linker_0, # of connection points: 2
#     Edge 56, Type (0, 1), BuildingBlock: CIFDUS_clean_linker_0, # of connection points: 2
#     Edge 57, Type (0, 1), BuildingBlock: CIFDUS_clean_linker_0, # of connection points: 2
#     Edge 58, Type (0, 1), BuildingBlock: CIFDUS_clean_linker_0, # of connection points: 2
#     Edge 59, Type (0, 1), BuildingBlock: CIFDUS_clean_linker_0, # of connection points: 2
#     Edge 60, Type (0, 1), BuildingBlock: CIFDUS_clean_linker_0, # of connection points: 2
#     Edge 61, Type (0, 1), BuildingBlock: CIFDUS_clean_linker_0, # of connection points: 2
#     Edge 62, Type (0, 1), BuildingBlock: CIFDUS_clean_linker_0, # of connection points: 2
#     Edge 63, Type (0, 1), BuildingBlock: CIFDUS_clean_linker_0, # of connection points: 2
#     Edge 64, Type (0, 1), BuildingBlock: CIFDUS_clean_linker_0, # of connection points: 2
#     Edge 65, Type (0, 1), BuildingBlock: CIFDUS_clean_linker_0, # of connection points: 2
#     Edge 66, Type (0, 1), BuildingBlock: CIFDUS_clean_linker_0, # of connection points: 2
#     Edge 67, Type (0, 1), BuildingBlock: CIFDUS_clean_linker_0, # of connection points: 2
#     Edge 68, Type (0, 1), BuildingBlock: CIFDUS_clean_linker_0, # of connection points: 2
#     Edge 69, Type (0, 1), BuildingBlock: CIFDUS_clean_linker_0, # of connection points: 2
#     Edge 70, Type (0, 1), BuildingBlock: CIFDUS_clean_linker_0, # of connection points: 2
#     Edge 71, Type (0, 1), BuildingBlock: CIFDUS_clean_linker_0, # of connection points: 2
#     Edge 72, Type (0, 1), BuildingBlock: CIFDUS_clean_linker_0, # of connection points: 2
#     Edge 73, Type (0, 1), BuildingBlock: CIFDUS_clean_linker_0, # of connection points: 2
#     Edge 74, Type (0, 1), BuildingBlock: CIFDUS_clean_linker_0, # of connection points: 2
#     Edge 75, Type (0, 1), BuildingBlock: CIFDUS_clean_linker_0, # of connection points: 2
#     Edge 76, Type (0, 1), BuildingBlock: CIFDUS_clean_linker_0, # of connection points: 2
#     Edge 77, Type (0, 1), BuildingBlock: CIFDUS_clean_linker_0, # of connection points: 2
#     Edge 78, Type (0, 1), BuildingBlock: CIFDUS_clean_linker_0, # of connection points: 2
#     Edge 79, Type (0, 1), BuildingBlock: CIFDUS_clean_linker_0, # of connection points: 2
#     Edge 80, Type (0, 1), BuildingBlock: CIFDUS_clean_linker_0, # of connection points: 2
#     Edge 81, Type (0, 1), BuildingBlock: CIFDUS_clean_linker_0, # of connection points: 2
#     Edge 82, Type (0, 1), BuildingBlock: CIFDUS_clean_linker_0, # of connection points: 2
#     Edge 83, Type (0, 1), BuildingBlock: CIFDUS_clean_linker_0, # of connection points: 2
#     Edge 84, Type (0, 1), BuildingBlock: CIFDUS_clean_linker_0, # of connection points: 2
#     Edge 85, Type (0, 1), BuildingBlock: CIFDUS_clean_linker_0, # of connection points: 2
#     Edge 86, Type (0, 1), BuildingBlock: CIFDUS_clean_linker_0, # of connection points: 2
#     Edge 87, Type (0, 1), BuildingBlock: CIFDUS_clean_linker_0, # of connection points: 2
#     Edge 88, Type (0, 1), BuildingBlock: CIFDUS_clean_linker_0, # of connection points: 2
#     Edge 89, Type (0, 1), BuildingBlock: CIFDUS_clean_linker_0, # of connection points: 2
#     Edge 90, Type (0, 1), BuildingBlock: CIFDUS_clean_linker_0, # of connection points: 2
#     Edge 91, Type (0, 1), BuildingBlock: CIFDUS_clean_linker_0, # of connection points: 2
#     Edge 92, Type (0, 1), BuildingBlock: CIFDUS_clean_linker_0, # of connection points: 2
#     Edge 93, Type (0, 1), BuildingBlock: CIFDUS_clean_linker_0, # of connection points: 2
#     Edge 94, Type (0, 1), BuildingBlock: CIFDUS_clean_linker_0, # of connection points: 2
#     Edge 95, Type (0, 1), BuildingBlock: CIFDUS_clean_linker_0, # of connection points: 2
#     Edge 96, Type (0, 1), BuildingBlock: CIFDUS_clean_linker_0, # of connection points: 2
#     Edge 97, Type (0, 1), BuildingBlock: CIFDUS_clean_linker_0, # of connection points: 2
#     Edge 98, Type (0, 1), BuildingBlock: CIFDUS_clean_linker_0, # of connection points: 2
#     Edge 99, Type (0, 1), BuildingBlock: CIFDUS_clean_linker_0, # of connection points: 2
#     Edge 100, Type (0, 1), BuildingBlock: CIFDUS_clean_linker_0, # of connection points: 2
#     Edge 101, Type (0, 1), BuildingBlock: CIFDUS_clean_linker_0, # of connection points: 2
#     Edge 102, Type (0, 1), BuildingBlock: CIFDUS_clean_linker_0, # of connection points: 2
#     Edge 103, Type (0, 1), BuildingBlock: CIFDUS_clean_linker_0, # of connection points: 2
#     Edge 104, Type (0, 1), BuildingBlock: CIFDUS_clean_linker_0, # of connection points: 2
#     Edge 105, Type (0, 1), BuildingBlock: CIFDUS_clean_linker_0, # of connection points: 2
#     Edge 106, Type (0, 1), BuildingBlock: CIFDUS_clean_linker_0, # of connection points: 2
#     Edge 107, Type (0, 1), BuildingBlock: CIFDUS_clean_linker_0, # of connection points: 2
#     Edge 108, Type (0, 1), BuildingBlock: CIFDUS_clean_linker_0, # of connection points: 2
#     Edge 109, Type (0, 1), BuildingBlock: CIFDUS_clean_linker_0, # of connection points: 2
#     Edge 110, Type (0, 1), BuildingBlock: CIFDUS_clean_linker_0, # of connection points: 2
#     Edge 111, Type (0, 1), BuildingBlock: CIFDUS_clean_linker_0, # of connection points: 2
#     Edge 112, Type (0, 1), BuildingBlock: CIFDUS_clean_linker_0, # of connection points: 2
#     Edge 113, Type (0, 1), BuildingBlock: CIFDUS_clean_linker_0, # of connection points: 2
#     Edge 114, Type (0, 1), BuildingBlock: CIFDUS_clean_linker_0, # of connection points: 2
#     Edge 115, Type (0, 1), BuildingBlock: CIFDUS_clean_linker_0, # of connection points: 2
#     Edge 116, Type (0, 1), BuildingBlock: CIFDUS_clean_linker_0, # of connection points: 2
#     Edge 117, Type (0, 1), BuildingBlock: CIFDUS_clean_linker_0, # of connection points: 2
#     Edge 118, Type (0, 1), BuildingBlock: CIFDUS_clean_linker_0, # of connection points: 2
#     Edge 119, Type (0, 1), BuildingBlock: CIFDUS_clean_linker_0, # of connection points: 2
#     Edge 120, Type (0, 1), BuildingBlock: CIFDUS_clean_linker_0, # of connection points: 2
#     Edge 121, Type (0, 1), BuildingBlock: CIFDUS_clean_linker_0, # of connection points: 2
#     Edge 122, Type (0, 1), BuildingBlock: CIFDUS_clean_linker_0, # of connection points: 2
#     Edge 123, Type (0, 1), BuildingBlock: CIFDUS_clean_linker_0, # of connection points: 2
#     Edge 124, Type (0, 1), BuildingBlock: CIFDUS_clean_linker_0, # of connection points: 2
#     Edge 125, Type (0, 1), BuildingBlock: CIFDUS_clean_linker_0, # of connection points: 2
#     Edge 126, Type (0, 1), BuildingBlock: CIFDUS_clean_linker_0, # of connection points: 2
#     Edge 127, Type (0, 1), BuildingBlock: CIFDUS_clean_linker_0, # of connection points: 2
#     Edge 128, Type (0, 1), BuildingBlock: CIFDUS_clean_linker_0, # of connection points: 2
#     Edge 129, Type (0, 1), BuildingBlock: CIFDUS_clean_linker_0, # of connection points: 2
#     Edge 130, Type (0, 1), BuildingBlock: CIFDUS_clean_linker_0, # of connection points: 2
#     Edge 131, Type (0, 1), BuildingBlock: CIFDUS_clean_linker_0, # of connection points: 2
#     Edge 132, Type (0, 1), BuildingBlock: CIFDUS_clean_linker_0, # of connection points: 2
#     Edge 133, Type (0, 1), BuildingBlock: CIFDUS_clean_linker_0, # of connection points: 2
#     Edge 134, Type (0, 1), BuildingBlock: CIFDUS_clean_linker_0, # of connection points: 2
#     Edge 135, Type (0, 1), BuildingBlock: CIFDUS_clean_linker_0, # of connection points: 2
# Relax obj value: 0.305
# Max RMSD: 0.284
# Mean RMSD: 0.259
data_MOF--net-ibd--node1-CEKHIL_clean_sbu_0--node2-IZENUY_clean_sbu_0--edge1-CIFDUS_clean_linker_0
_symmetry_space_group_name_H-M    P1
_symmetry_Int_Tables_number       1
_symmetry_cell_setting            triclinic
loop_
_symmetry_equiv_pos_as_xyz
'x, y, z'
_cell_length_a     42.79037
_cell_length_b     42.783972
_cell_length_c     42.81076
_cell_angle_alpha  90.335284
_cell_angle_beta   90.34275
_cell_angle_gamma 90.871929
loop_
_atom_site_label
_atom_site_type_symbol
_atom_site_fract_x
_atom_site_fract_y
_atom_site_fract_z
_atom_type_partial_charge
Co0 Co -0.00078 0.26168 0.38341 0.0
O1 O 0.99657 0.29313 0.35198 0.0
O2 O 0.95886 0.25873 0.36338 0.0
C3 C 0.02034 0.29366 0.41951 0.0
O4 O 0.99228 0.22737 0.41529 0.0
Co5 Co 0.06245 0.24156 0.41234 0.0
O6 O 0.03616 0.21861 0.44269 0.0
C7 C 0.04517 0.22219 0.34826 0.0
C8 C 0.96844 0.28242 0.34696 0.0
C9 C 0.00705 0.21415 0.43772 0.0
O10 O 0.01715 0.2318 0.35227 0.0
O11 O 0.0671 0.22604 0.36845 0.0
O12 O 0.99019 0.29287 0.41532 0.0
O13 O 0.03648 0.27652 0.40095 0.0
Co14 Co 0.98127 0.7617 0.6197 0.0
O15 O 0.95453 0.76107 0.65558 0.0
O16 O 0.98245 0.80204 0.63964 0.0
C17 C 0.94776 0.73761 0.58659 0.0
O18 O 0.00989 0.77244 0.5836 0.0
Co19 Co 0.00456 0.70158 0.58683 0.0
O20 O 0.01277 0.73063 0.55184 0.0
C21 C 0.03076 0.7206 0.64814 0.0
C22 C 0.96281 0.79021 0.65951 0.0
C23 C 0.01655 0.75973 0.55728 0.0
O24 O 0.0172 0.74718 0.64624 0.0
O25 O 0.02688 0.69872 0.6279 0.0
O26 O 0.94514 0.76734 0.59234 0.0
O27 O 0.96849 0.72325 0.6029 0.0
Co28 Co 0.49263 0.77046 0.86888 0.0
O29 O 0.49598 0.80596 0.84187 0.0
O30 O 0.4562 0.7719 0.8426 0.0
C31 C 0.50841 0.79504 0.91258 0.0
O32 O 0.47958 0.73255 0.89387 0.0
Co33 Co 0.55013 0.74265 0.90233 0.0
O34 O 0.5187 0.71689 0.92491 0.0
C35 C 0.54275 0.73517 0.83457 0.0
C36 C 0.4692 0.79659 0.83044 0.0
C37 C 0.49034 0.7153 0.91572 0.0
O38 O 0.51438 0.74435 0.83682 0.0
O39 O 0.56187 0.73515 0.85766 0.0
O40 O 0.47943 0.79707 0.90347 0.0
O41 O 0.52691 0.78049 0.89399 0.0
Co42 Co 0.47628 0.23098 0.13676 0.0
O43 O 0.44779 0.22308 0.17056 0.0
O44 O 0.47321 0.26785 0.16236 0.0
C45 C 0.44619 0.21016 0.09874 0.0
O46 O 0.5061 0.24883 0.1044 0.0
Co47 Co 0.5051 0.17711 0.09764 0.0
O48 O 0.52411 0.21109 0.0727 0.0
C49 C 0.52714 0.1893 0.16192 0.0
C50 C 0.45336 0.25189 0.17897 0.0
C51 C 0.52232 0.23963 0.081 0.0
O52 O 0.51196 0.21505 0.16283 0.0
O53 O 0.5251 0.16982 0.13919 0.0
O54 O 0.44129 0.23846 0.10857 0.0
O55 O 0.46698 0.19471 0.11388 0.0
Co56 Co 0.01414 0.74597 0.12509 0.0
O57 O 0.0147 0.77892 0.0947 0.0
O58 O 0.97682 0.74341 0.09982 0.0
C59 C 0.02824 0.77535 0.16622 0.0
O60 O 0.00398 0.71013 0.15426 0.0
Co61 Co 0.07398 0.72578 0.1603 0.0
O62 O 0.04506 0.69942 0.18523 0.0
C63 C 0.06527 0.70835 0.09433 0.0
C64 C 0.98759 0.76806 0.08563 0.0
C65 C 0.0166 0.69546 0.17705 0.0
O66 O 0.03688 0.7178 0.09537 0.0
O67 O 0.08467 0.712 0.11696 0.0
O68 O -0.00071 0.77453 0.1569 0.0
O69 O 0.04809 0.76094 0.1489 0.0
Co70 Co 0.49297 0.74279 0.36143 0.0
O71 O 0.4572 0.74974 0.38701 0.0
O72 O 0.49879 0.78138 0.38411 0.0
C73 C 0.46605 0.72911 0.31867 0.0
O74 O 0.53299 0.7448 0.33656 0.0
Co75 Co 0.50779 0.67771 0.33389 0.0
O76 O 0.53694 0.70165 0.30691 0.0
C77 C 0.5198 0.69017 0.40031 0.0
C78 C 0.47132 0.77547 0.39567 0.0
C79 C 0.54564 0.72934 0.3143 0.0
O80 O 0.51333 0.71908 0.39606 0.0
O81 O 0.51753 0.66927 0.3789 0.0
O82 O 0.47066 0.75852 0.3253 0.0
O83 O 0.4758 0.70922 0.33903 0.0
Co84 Co 0.5154 0.26536 0.63161 0.0
O85 O 0.51273 0.29194 0.59575 0.0
O86 O 0.47693 0.25663 0.60933 0.0
C87 C 0.53007 0.30266 0.66566 0.0
O88 O 0.50864 0.23524 0.6674 0.0
Co89 Co 0.57771 0.25524 0.66767 0.0
O90 O 0.55119 0.23292 0.69837 0.0
C91 C 0.56642 0.22305 0.60744 0.0
C92 C 0.48562 0.2788 0.59049 0.0
C93 C 0.52282 0.22583 0.69207 0.0
O94 O 0.5381 0.23281 0.60672 0.0
O95 O 0.58636 0.23146 0.62837 0.0
O96 O 0.50075 0.29886 0.65831 0.0
O97 O 0.54966 0.28592 0.65034 0.0
Co98 Co 0.97907 0.24319 0.88742 0.0
O99 O 0.94682 0.23868 0.9181 0.0
O100 O 0.97965 0.27921 0.91435 0.0
C101 C 0.94949 0.22831 0.84669 0.0
O102 O 0.01353 0.25761 0.85847 0.0
Co103 Co 0.0028 0.18757 0.84735 0.0
O104 O 0.02324 0.22077 0.82241 0.0
C105 C 0.02369 0.19485 0.91267 0.0
C106 C 0.95596 0.26606 0.92817 0.0
C107 C 0.02675 0.24838 0.8333 0.0
O108 O 0.00948 0.22104 0.91518 0.0
O109 O 0.02262 0.1774 0.88832 0.0
O110 O 0.94833 0.25697 0.85685 0.0
O111 O 0.96651 0.20947 0.86262 0.0
Co112 Co 0.3832 0.00568 0.23744 0.0
O113 O 0.42042 0.01552 0.21436 0.0
O114 O 0.4082 0.96894 0.23377 0.0
C115 C 0.34992 0.02916 0.20473 0.0
O116 O 0.34669 0.98589 0.26079 0.0
Co117 Co 0.34139 0.05689 0.26622 0.0
O118 O 0.30993 0.02242 0.2667 0.0
C119 C 0.40214 0.04242 0.29557 0.0
C120 C 0.42731 0.98625 0.21763 0.0
C121 C 0.31861 0.9941 0.26685 0.0
O122 O 0.40491 0.01844 0.27752 0.0
O123 O 0.37957 0.06162 0.29333 0.0
O124 O 0.35971 0.00121 0.19853 0.0
O125 O 0.36243 0.04278 0.22885 0.0
Co126 Co 0.24864 0.13565 0.52643 0.0
O127 O 0.25415 0.10604 0.55935 0.0
O128 O 0.2874 0.11401 0.52046 0.0
C129 C 0.23347 0.17538 0.55685 0.0
O130 O 0.25175 0.16507 0.4896 0.0
Co131 Co 0.1832 0.16338 0.51226 0.0
O132 O 0.20728 0.19194 0.48457 0.0
C133 C 0.19606 0.09803 0.49701 0.0
C134 C 0.2802 0.09899 0.54581 0.0
C135 C 0.23556 0.1868 0.47708 0.0
O136 O 0.22553 0.10324 0.50062 0.0
O137 O 0.17507 0.11782 0.50393 0.0
O138 O 0.26312 0.16977 0.55387 0.0
O139 O 0.21462 0.1554 0.54385 0.0
Co140 Co 0.13212 0.99506 0.7143 0.0
O141 O 0.16166 -0.00181 0.68093 0.0
O142 O 0.15345 0.95598 0.70993 0.0
C143 C 0.09376 0.01833 0.68796 0.0
O144 O 0.10267 0.98208 0.74935 0.0
Co145 Co 0.10274 0.05339 0.74533 0.0
O146 O 0.07556 0.02292 0.76728 0.0
C147 C 0.16936 0.03912 0.75485 0.0
C148 C 0.16849 0.96944 0.68726 0.0
C149 C 0.08133 0.9938 0.76672 0.0
O150 O 0.16485 0.01116 0.74436 0.0
O151 O 0.14827 0.06002 0.75443 0.0
O152 O 0.09825 0.98854 0.68396 0.0
O153 O 0.113 0.03276 0.70642 0.0
Co154 Co 0.24221 0.86807 0.01404 0.0
O155 O 0.23285 0.83229 0.03929 0.0
O156 O 0.27999 0.8459 0.02212 0.0
C157 C 0.2149 0.90249 0.04169 0.0
O158 O 0.26133 0.90376 0.98927 0.0
Co159 Co 0.19031 0.90105 0.97684 0.0
O160 O 0.22365 0.9316 0.96595 0.0
C161 C 0.2112 0.8392 0.95655 0.0
C162 C 0.26257 0.82666 0.038 0.0
C163 C 0.25217 0.927 0.97294 0.0
O164 O 0.23454 0.84206 0.9754 0.0
O165 O 0.1892 0.85912 0.95537 0.0
O166 O 0.24271 0.89461 0.05066 0.0
O167 O 0.20313 0.8871 0.01815 0.0
Co168 Co 0.25072 0.36865 0.9819 0.0
O169 O 0.2802 0.33605 0.97714 0.0
O170 O 0.24188 0.34564 0.94352 0.0
C171 C 0.28606 0.4055 0.99505 0.0
O172 O 0.21743 0.40219 0.97916 0.0
Co173 Co 0.24325 0.39947 0.04759 0.0
O174 O 0.22046 0.4312 0.0232 0.0
C175 C 0.2182 0.33627 0.0357 0.0
C176 C 0.2662 0.32925 0.95103 0.0
C177 C 0.21027 0.42647 0.99548 0.0
O178 O 0.2223 0.33988 0.00617 0.0
O179 O 0.22784 0.35601 0.05631 0.0
O180 O 0.2811 0.39892 0.96574 0.0
O181 O 0.27182 0.38782 0.01485 0.0
Co182 Co 0.74632 0.12163 0.0032 0.0
O183 O 0.77378 0.08678 0.00896 0.0
O184 O 0.74723 0.09707 0.96565 0.0
C185 C 0.77844 0.15802 0.02398 0.0
O186 O 0.71806 0.15547 0.98669 0.0
Co187 Co 0.72001 0.16139 0.0578 0.0
O188 O 0.70372 0.18878 0.02466 0.0
C189 C 0.69666 0.09712 0.04702 0.0
C190 C 0.76729 0.0797 0.98002 0.0
C191 C 0.70454 0.18032 0.99614 0.0
O192 O 0.7101 0.0963 0.02015 0.0
O193 O 0.70016 0.11985 0.06633 0.0
O194 O 0.78237 0.14885 0.99528 0.0
O195 O 0.75715 0.14337 0.03958 0.0
Co196 Co 0.12918 0.4855 0.24038 0.0
O197 O 0.16207 0.45626 0.23184 0.0
O198 O 0.15807 0.48511 0.27482 0.0
C199 C 0.08901 0.45436 0.22593 0.0
O200 O 0.09886 0.51629 0.25925 0.0
Co201 Co 0.08432 0.51081 0.18917 0.0
O202 O 0.06263 0.53125 0.22427 0.0
C203 C 0.15017 0.53102 0.19081 0.0
C204 C 0.17285 0.46376 0.25941 0.0
C205 C 0.07418 0.53125 0.25173 0.0
O206 O 0.15349 0.51976 0.21852 0.0
O207 O 0.12548 0.5269 0.17425 0.0
O208 O 0.10165 0.45117 0.2534 0.0
O209 O 0.10263 0.47396 0.20753 0.0
Co210 Co 0.78664 0.87695 0.47737 0.0
O211 O 0.81926 0.84816 0.46919 0.0
O212 O 0.77917 0.85679 0.43731 0.0
C213 C 0.81781 0.91615 0.49385 0.0
O214 O 0.74986 0.9067 0.47783 0.0
Co215 Co 0.77662 0.90122 0.54542 0.0
O216 O 0.75026 0.93222 0.524 0.0
C217 C 0.75449 0.83815 0.52775 0.0
C218 C 0.80504 0.84215 0.44299 0.0
C219 C 0.74015 0.9285 0.49612 0.0
O220 O 0.76151 0.8433 0.499 0.0
O221 O 0.76072 0.8574 0.54998 0.0
O222 O 0.81347 0.91175 0.46404 0.0
O223 O 0.80597 0.89512 0.51185 0.0
Co224 Co 0.86794 0.99576 0.26516 0.0
O225 O 0.89999 0.96593 0.27219 0.0
O226 O 0.8881 0.00456 0.30485 0.0
C227 C 0.83151 0.96113 0.24885 0.0
O228 O 0.83544 0.02971 0.26619 0.0
Co229 Co 0.8412 0.0056 0.19821 0.0
O230 O 0.80976 0.03119 0.22024 0.0
C231 C 0.90403 0.02883 0.21453 0.0
C232 C 0.90519 0.98052 0.29837 0.0
C233 C 0.81342 0.03993 0.24858 0.0
O234 O 0.89848 0.02416 0.24358 0.0
O235 O 0.88566 0.01991 0.19243 0.0
O236 O 0.83619 0.96556 0.27861 0.0
O237 O 0.8506 0.97552 0.23048 0.0
Co238 Co 0.24813 0.62564 0.5044 0.0
O239 O 0.27523 0.59029 0.51056 0.0
O240 O 0.25237 0.60314 0.46595 0.0
C241 C 0.27737 0.66186 0.52938 0.0
O242 O 0.22153 0.66024 0.48687 0.0
Co243 Co 0.21584 0.66239 0.55768 0.0
O244 O 0.2043 0.69231 0.52459 0.0
C245 C 0.19522 0.59819 0.54236 0.0
C246 C 0.27096 0.58472 0.48087 0.0
C247 C 0.20798 0.6852 0.49597 0.0
O248 O 0.21066 0.59925 0.51661 0.0
O249 O 0.1966 0.61994 0.56297 0.0
O250 O 0.28436 0.6534 0.50106 0.0
O251 O 0.25522 0.64607 0.5426 0.0
Co252 Co 0.37284 0.49418 0.74026 0.0
O253 O 0.40481 0.46403 0.7472 0.0
O254 O 0.38958 0.49918 0.78209 0.0
C255 C 0.33833 0.46086 0.71807 0.0
O256 O 0.33927 0.52734 0.74248 0.0
Co257 Co 0.34961 0.5108 0.67351 0.0
O258 O 0.31417 0.52939 0.6963 0.0
C259 C 0.41073 0.53456 0.69599 0.0
C260 C 0.40725 0.47571 0.77517 0.0
C261 C 0.31633 0.53625 0.72525 0.0
O262 O 0.40457 0.52477 0.72366 0.0
O263 O 0.39284 0.52938 0.67239 0.0
O264 O 0.34096 0.46239 0.74833 0.0
O265 O 0.35831 0.47732 0.7025 0.0
Co266 Co 0.63544 0.98815 0.74655 0.0
O267 O 0.67396 0.96782 0.7362 0.0
O268 O 0.66077 0.98369 0.78362 0.0
C269 C 0.60387 0.95532 0.71961 0.0
O270 O 0.59769 0.00813 0.76705 0.0
Co271 Co 0.59102 0.01691 0.69687 0.0
O272 O 0.55997 0.01187 0.73058 0.0
C273 C 0.65081 0.04858 0.71319 0.0
C274 C 0.68075 0.96973 0.76579 0.0
C275 C 0.56895 0.01144 0.75894 0.0
O276 O 0.65493 0.03012 0.73655 0.0
O277 O 0.62796 0.04572 0.69392 0.0
O278 O 0.61369 0.94764 0.7473 0.0
O279 O 0.61531 0.98095 0.70855 0.0
Co280 Co 0.76359 0.62703 0.01145 0.0
O281 O 0.76512 0.59413 0.04142 0.0
O282 O 0.8003 0.60207 0.00431 0.0
C283 C 0.75154 0.66415 0.0462 0.0
O284 O 0.7705 0.65982 0.97766 0.0
Co285 Co 0.70179 0.66301 -0.00018 0.0
O286 O 0.72923 0.69181 0.97629 0.0
C287 C 0.7092 0.59985 0.97367 0.0
C288 C 0.79086 0.5858 0.02816 0.0
C289 C 0.75668 0.68449 0.96786 0.0
O290 O 0.73798 0.5994 0.98255 0.0
O291 O 0.69056 0.62212 0.97973 0.0
O292 O 0.78062 0.65663 0.04241 0.0
O293 O 0.73118 0.6479 0.03058 0.0
Co294 Co 0.86013 0.50523 0.75749 0.0
O295 O 0.89734 0.51733 0.73566 0.0
O296 O 0.88089 0.46845 0.74281 0.0
C297 C 0.82905 0.54 0.73471 0.0
O298 O 0.82233 0.48386 0.77747 0.0
Co299 Co 0.82812 0.55155 0.80264 0.0
O300 O 0.79296 0.52091 0.79992 0.0
C301 C 0.89072 0.52715 0.81636 0.0
C302 C 0.90169 0.48765 0.73141 0.0
C303 C 0.79696 0.49302 0.79036 0.0
O304 O 0.88487 0.50446 0.79738 0.0
O305 O 0.87192 0.54988 0.82009 0.0
O306 O 0.83511 0.51381 0.72063 0.0
O307 O 0.84387 0.54537 0.76062 0.0
Co308 Co 0.75325 0.37824 0.52804 0.0
O309 O 0.75508 0.34455 0.55723 0.0
O310 O 0.79374 0.35947 0.52604 0.0
C311 C 0.73181 0.41295 0.56064 0.0
O312 O 0.76104 0.41272 0.49652 0.0
Co313 Co 0.69064 0.40617 0.50616 0.0
O314 O 0.71802 0.44199 0.49417 0.0
C315 C 0.70966 0.34455 0.48221 0.0
C316 C 0.78365 0.34097 0.54787 0.0
C317 C 0.747 0.43796 0.48909 0.0
O318 O 0.73672 0.34869 0.49491 0.0
O319 O 0.6873 0.36383 0.48562 0.0
O320 O 0.7617 0.40806 0.56141 0.0
O321 O 0.71556 0.39476 0.54231 0.0
Co322 Co 0.6171 0.49317 0.24217 0.0
O323 O 0.64645 0.48777 0.20932 0.0
O324 O 0.6331 0.45125 0.24376 0.0
C325 C 0.58181 0.51651 0.21214 0.0
O326 O 0.58632 0.49007 0.27789 0.0
Co327 Co 0.59706 0.55981 0.26285 0.0
O328 O 0.56501 0.53687 0.28738 0.0
C329 C 0.65988 0.53689 0.27723 0.0
C330 C 0.64909 0.45937 0.21927 0.0
C331 C 0.5665 0.5075 0.29189 0.0
O332 O 0.65112 0.50874 0.27082 0.0
O333 O 0.64304 0.56083 0.27224 0.0
O334 O 0.58304 0.48615 0.21259 0.0
O335 O 0.60292 0.53138 0.22812 0.0
Fe336 Fe 0.12999 0.09045 0.16049 0.0
Fe337 Fe 0.09818 0.14924 0.13703 0.0
O338 O 0.12672 0.12028 0.13251 0.0
Fe339 Fe 0.15207 0.12102 0.10015 0.0
O340 O 0.13813 0.08296 0.0869 0.0
O341 O 0.14371 0.06097 0.13268 0.0
O342 O 0.09072 0.07657 0.15198 0.0
C343 C 0.06702 0.09351 0.15433 0.0
C344 C 0.19112 0.1039 0.1505 0.0
O345 O 0.06962 0.12302 0.15575 0.0
C346 C 0.15095 0.18282 0.11503 0.0
O347 O 0.1168 0.11436 0.19351 0.0
O348 O 0.1145 0.16159 0.17404 0.0
O349 O 0.18526 0.10408 0.12143 0.0
O350 O 0.16936 0.10301 0.17017 0.0
C351 C 0.09387 0.13981 0.07466 0.0
O352 O 0.1217 0.18041 0.11882 0.0
O353 O 0.16751 0.15901 0.11149 0.0
C354 C 0.11643 0.14371 0.19717 0.0
O355 O 0.08002 0.1387 0.10044 0.0
O356 O 0.12341 0.13825 0.0733 0.0
C357 C 0.14038 0.05875 0.10332 0.0
Fe358 Fe 0.08993 0.86376 0.3762 0.0
Fe359 Fe 0.12934 0.91442 0.3445 0.0
O360 O 0.12425 0.88698 0.37477 0.0
Fe361 Fe 0.15337 0.8829 0.40392 0.0
O362 O 0.15906 0.84218 0.39344 0.0
O363 O 0.10902 0.83006 0.39394 0.0
O364 O 0.09769 0.8464 0.3387 0.0
C365 C 0.10176 0.86178 0.31404 0.0
C366 C 0.09666 0.87556 0.43774 0.0
O367 O 0.1085 0.89071 0.31483 0.0
C368 C 0.15262 0.94606 0.39831 0.0
O369 O 0.06465 0.8931 0.35886 0.0
O370 O 0.09426 0.93517 0.35517 0.0
O371 O 0.12585 0.87188 0.43512 0.0
O372 O 0.08009 0.87995 0.41383 0.0
C373 C 0.18865 0.89382 0.34861 0.0
O374 O 0.15131 0.94286 0.36887 0.0
O375 O 0.14893 0.92301 0.41616 0.0
C376 C 0.06757 0.92249 0.35709 0.0
O377 O 0.16449 0.89553 0.33186 0.0
O378 O 0.18635 0.89338 0.37814 0.0
C379 C 0.13733 0.82201 0.39585 0.0
Fe380 Fe 0.38665 0.9073 0.63688 0.0
Fe381 Fe 0.36056 0.88151 0.57518 0.0
O382 O 0.3883 0.88019 0.60579 0.0
Fe383 Fe 0.4178 0.85173 0.60543 0.0
O384 O 0.40395 0.83512 0.64193 0.0
O385 O 0.40202 0.8805 0.66606 0.0
O386 O 0.34798 0.89356 0.64759 0.0
C387 C 0.32481 0.89365 0.62928 0.0
C388 C 0.44925 0.90547 0.62878 0.0
O389 O 0.32855 0.89495 0.59998 0.0
C390 C 0.4174 0.86798 0.54427 0.0
O391 O 0.37072 0.939 0.61338 0.0
O392 O 0.3719 0.92126 0.56526 0.0
O393 O 0.44676 0.87614 0.62593 0.0
O394 O 0.42544 0.92247 0.62809 0.0
C395 C 0.36515 0.81863 0.5816 0.0
O396 O 0.3878 0.86835 0.54521 0.0
O397 O 0.43336 0.86672 0.5691 0.0
C398 C 0.37046 0.9438 0.58425 0.0
O399 O 0.34732 0.84178 0.5829 0.0
O400 O 0.39437 0.82205 0.58471 0.0
C401 C 0.40281 0.85097 0.66687 0.0
Fe402 Fe 0.41179 0.1465 0.87736 0.0
Fe403 Fe 0.38144 0.09246 0.8406 0.0
O404 O 0.37996 0.1205 0.871 0.0
Fe405 Fe 0.34687 0.12249 0.89524 0.0
O406 O 0.33956 0.16231 0.88368 0.0
O407 O 0.38771 0.17883 0.89167 0.0
O408 O 0.40736 0.16272 0.83873 0.0
C409 C 0.40887 0.14666 0.81407 0.0
C410 C 0.39733 0.13284 0.93724 0.0
O411 O 0.40527 0.11722 0.81462 0.0
C412 C 0.35148 0.05951 0.88971 0.0
O413 O 0.44172 0.11905 0.86402 0.0
O414 O 0.41567 0.07496 0.85765 0.0
O415 O 0.36873 0.13535 0.93013 0.0
O416 O 0.41789 0.13166 0.91637 0.0
C417 C 0.32119 0.1105 0.83522 0.0
O418 O 0.35781 0.06294 0.86106 0.0
O419 O 0.35203 0.08261 0.90816 0.0
C420 C 0.44125 0.08953 0.8613 0.0
O421 O 0.34714 0.10798 0.82175 0.0
O422 O 0.31919 0.11031 0.86468 0.0
C423 C 0.35893 0.18442 0.88775 0.0
Fe424 Fe 0.56756 0.35748 0.90013 0.0
Fe425 Fe 0.60322 0.41078 0.86769 0.0
O426 O 0.60179 0.38076 0.89587 0.0
Fe427 Fe 0.63448 0.37359 0.92014 0.0
O428 O 0.63748 0.33408 0.905 0.0
O429 O 0.58818 0.32236 0.91283 0.0
O430 O 0.57032 0.343 0.86068 0.0
C431 C 0.57162 0.36021 0.83689 0.0
C432 C 0.58268 0.36463 0.96091 0.0
O433 O 0.57946 0.3889 0.83879 0.0
C434 C 0.63489 0.43711 0.92072 0.0
O435 O 0.54049 0.38763 0.88768 0.0
O436 O 0.5693 0.43 0.88383 0.0
O437 O 0.611 0.3604 0.9536 0.0
O438 O 0.56286 0.37093 0.94005 0.0
C439 C 0.66287 0.39008 0.86239 0.0
O440 O 0.62752 0.43727 0.89195 0.0
O441 O 0.63343 0.4124 0.93656 0.0
C442 C 0.54277 0.41695 0.88504 0.0
O443 O 0.63706 0.39434 0.84896 0.0
O444 O 0.66406 0.3858 0.89157 0.0
C445 C 0.61616 0.31388 0.9092 0.0
Fe446 Fe 0.83611 0.3721 0.10656 0.0
Fe447 Fe 0.86357 0.39664 0.16795 0.0
O448 O 0.86474 0.37038 0.1362 0.0
Fe449 Fe 0.89448 0.34235 0.13419 0.0
O450 O 0.90853 0.35845 0.09779 0.0
O451 O 0.86226 0.35905 0.07538 0.0
O452 O 0.84737 0.41189 0.09696 0.0
C453 C 0.84658 0.43411 0.11639 0.0
C454 C 0.84091 0.30936 0.11264 0.0
O455 O 0.84653 0.42871 0.14547 0.0
C456 C 0.88139 0.33972 0.19594 0.0
O457 O 0.80491 0.38508 0.13265 0.0
O458 O 0.82562 0.38187 0.17948 0.0
O459 O 0.87032 0.31276 0.11377 0.0
O460 O 0.82324 0.33254 0.11454 0.0
C461 C 0.9258 0.39629 0.15727 0.0
O462 O 0.88031 0.3693 0.19602 0.0
O463 O 0.88208 0.32472 0.17053 0.0
C464 C 0.80193 0.38198 0.16192 0.0
O465 O 0.90161 0.41266 0.15819 0.0
O466 O 0.92398 0.36689 0.15422 0.0
C467 C 0.89181 0.3593 0.07349 0.0
Fe468 Fe 0.84932 0.62097 0.3961 0.0
Fe469 Fe 0.91096 0.64686 0.37127 0.0
O470 O 0.88217 0.61705 0.37179 0.0
Fe471 Fe 0.88632 0.58357 0.34791 0.0
O472 O 0.85028 0.59156 0.32738 0.0
O473 O 0.8226 0.5997 0.36975 0.0
O474 O 0.83762 0.65645 0.37666 0.0
C475 C 0.85468 0.68066 0.3758 0.0
C476 C 0.85992 0.55931 0.40398 0.0
O477 O 0.88393 0.67869 0.37989 0.0
C478 C 0.94659 0.59146 0.36533 0.0
O479 O 0.87046 0.64292 0.42688 0.0
O480 O 0.91961 0.64109 0.41225 0.0
O481 O 0.86632 0.55675 0.37518 0.0
O482 O 0.85876 0.5858 0.41689 0.0
C483 C 0.90674 0.6334 0.30941 0.0
O484 O 0.9433 0.62066 0.36221 0.0
O485 O 0.92283 0.57376 0.36693 0.0
C486 C 0.89938 0.64409 0.4333 0.0
O487 O 0.90353 0.65395 0.33032 0.0
O488 O 0.90668 0.60459 0.31625 0.0
C489 C 0.82437 0.59458 0.34072 0.0
Fe490 Fe 0.9176 0.85349 0.8808 0.0
Fe491 Fe 0.85935 0.87803 0.91284 0.0
O492 O 0.88736 0.88096 0.88303 0.0
Fe493 Fe 0.88511 0.91118 0.85542 0.0
O494 O 0.9231 0.92616 0.86688 0.0
O495 O 0.94657 0.88106 0.86373 0.0
O496 O 0.9323 0.86497 0.9189 0.0
C497 C 0.91615 0.86203 0.94324 0.0
C498 C 0.90174 0.85826 0.81965 0.0
O499 O 0.88651 0.86105 0.94159 0.0
C500 C 0.82345 0.89736 0.86017 0.0
O501 O 0.89414 0.82081 0.89713 0.0
O502 O 0.84689 0.83997 0.89885 0.0
O503 O 0.90124 0.88775 0.82303 0.0
O504 O 0.90417 0.84061 0.84291 0.0
C505 C 0.86806 0.94066 0.91254 0.0
O506 O 0.82707 0.89455 0.88948 0.0
O507 O 0.84685 0.89807 0.84249 0.0
C508 C 0.86469 0.81679 0.89787 0.0
O509 O 0.87043 0.91602 0.92827 0.0
O510 O 0.86835 0.93966 0.8829 0.0
C511 C 0.94776 0.91073 0.86444 0.0
Fe512 Fe 0.87403 0.09202 0.65493 0.0
Fe513 Fe 0.8424 0.12784 0.60242 0.0
O514 O 0.87416 0.12316 0.62826 0.0
Fe515 Fe 0.90615 0.14943 0.62753 0.0
O516 O 0.89949 0.16107 0.66752 0.0
O517 O 0.89678 0.11304 0.68501 0.0
O518 O 0.83975 0.10664 0.67361 0.0
C519 C 0.81414 0.11046 0.65974 0.0
C520 C 0.93397 0.09047 0.63573 0.0
O521 O 0.81303 0.11231 0.6301 0.0
C522 C 0.89554 0.14246 0.56542 0.0
O523 O 0.85126 0.06546 0.62972 0.0
O524 O 0.8488 0.08992 0.58496 0.0
O525 O 0.93503 0.12 0.63886 0.0
O526 O 0.90838 0.07583 0.63749 0.0
C527 C 0.85391 0.18817 0.6189 0.0
O528 O 0.86637 0.14449 0.57039 0.0
O529 O 0.91434 0.13905 0.58778 0.0
C530 C 0.84948 0.06488 0.60023 0.0
O531 O 0.83448 0.16582 0.61856 0.0
O532 O 0.88288 0.18335 0.61572 0.0
C533 C 0.89934 0.14217 0.68994 0.0
Fe534 Fe 0.6262 0.09569 0.3548 0.0
Fe535 Fe 0.65537 0.12567 0.41337 0.0
O536 O 0.6243 0.12269 0.38607 0.0
Fe537 Fe 0.59137 0.14672 0.39009 0.0
O538 O 0.59795 0.16437 0.35246 0.0
O539 O 0.60459 0.12014 0.32725 0.0
O540 O 0.66141 0.11411 0.34031 0.0
C541 C 0.68651 0.11617 0.35571 0.0
C542 C 0.56493 0.08858 0.36997 0.0
O543 O 0.68607 0.11545 0.38529 0.0
C544 C 0.60127 0.13288 0.45088 0.0
O545 O 0.64829 0.0664 0.37681 0.0
O546 O 0.64993 0.08528 0.42464 0.0
O547 O 0.5635 0.11793 0.37364 0.0
O548 O 0.59094 0.0755 0.36709 0.0
C549 C 0.64216 0.18727 0.40633 0.0
O550 O 0.63037 0.13633 0.44635 0.0
O551 O 0.58266 0.13068 0.42806 0.0
C552 C 0.65166 0.06247 0.40596 0.0
O553 O 0.66258 0.16641 0.40387 0.0
O554 O 0.61335 0.17996 0.40706 0.0
C555 C 0.59939 0.14922 0.32724 0.0
Fe556 Fe 0.60069 0.8359 0.12693 0.0
Fe557 Fe 0.65803 0.8663 0.09721 0.0
O558 O 0.62888 0.86637 0.12615 0.0
Fe559 Fe 0.62809 0.89654 0.15431 0.0
O560 O 0.58922 0.90737 0.14268 0.0
O561 O 0.56938 0.85989 0.14346 0.0
O562 O 0.58639 0.84602 0.08848 0.0
C563 C 0.60359 0.84612 0.06466 0.0
C564 C 0.61447 0.84165 0.18878 0.0
O565 O 0.63311 0.84713 0.06751 0.0
C566 C 0.69076 0.88799 0.1509 0.0
O567 O 0.62691 0.80617 0.11114 0.0
O568 O 0.67283 0.82959 0.11103 0.0
O569 O 0.61353 0.87117 0.18605 0.0
O570 O 0.61375 0.8242 0.16502 0.0
C571 C 0.64312 0.92767 0.09764 0.0
O572 O 0.68816 0.88574 0.12151 0.0
O573 O 0.6669 0.88768 0.16788 0.0
C574 C 0.65648 0.80492 0.11204 0.0
O575 O 0.64486 0.90287 0.08187 0.0
O576 O 0.64251 0.92694 0.12732 0.0
C577 C 0.56589 0.88924 0.14422 0.0
Fe578 Fe 0.40668 0.64071 0.11051 0.0
Fe579 Fe 0.3459 0.61633 0.08079 0.0
O580 O 0.37457 0.61453 0.11042 0.0
Fe581 Fe 0.37127 0.58636 0.14 0.0
O582 O 0.40736 0.5687 0.1284 0.0
O583 O 0.43384 0.61296 0.12808 0.0
O584 O 0.41918 0.62614 0.07325 0.0
C585 C 0.40288 0.62663 0.04874 0.0
C586 C 0.39387 0.63987 0.17231 0.0
O587 O 0.37342 0.62953 0.05019 0.0
C588 C 0.31114 0.60423 0.13597 0.0
O589 O 0.38517 0.67311 0.09274 0.0
O590 O 0.33662 0.65578 0.09169 0.0
O591 O 0.39063 0.61048 0.17008 0.0
O592 O 0.39596 0.65643 0.14816 0.0
C593 C 0.35162 0.55352 0.08602 0.0
O594 O 0.3135 0.60352 0.10637 0.0
O595 O 0.3351 0.60262 0.15299 0.0
C596 C 0.35607 0.67814 0.09193 0.0
O597 O 0.35364 0.57682 0.06828 0.0
O598 O 0.35131 0.55708 0.11537 0.0
C599 C 0.43305 0.58334 0.1283 0.0
Fe600 Fe 0.11894 0.59017 0.83487 0.0
Fe601 Fe 0.15329 0.62389 0.889 0.0
O602 O 0.12194 0.62168 0.86186 0.0
Fe603 Fe 0.09321 0.65092 0.86165 0.0
O604 O 0.10256 0.66145 0.82196 0.0
O605 O 0.10075 0.61334 0.80388 0.0
O606 O 0.15628 0.60043 0.81789 0.0
C607 C 0.18168 0.60265 0.83292 0.0
C608 C 0.05807 0.59557 0.85265 0.0
O609 O 0.18187 0.60644 0.86234 0.0
C610 C 0.10076 0.64296 0.92425 0.0
O611 O 0.13693 0.56133 0.86067 0.0
O612 O 0.14282 0.58621 0.90533 0.0
O613 O 0.06138 0.62475 0.84918 0.0
O614 O 0.08123 0.57781 0.85037 0.0
C615 C 0.1489 0.68561 0.87389 0.0
O616 O 0.13006 0.64159 0.92024 0.0
O617 O 0.08219 0.64219 0.90131 0.0
C618 C 0.14083 0.56102 0.88998 0.0
O619 O 0.16618 0.662 0.87498 0.0
O620 O 0.11951 0.68253 0.87433 0.0
C621 C 0.10124 0.64258 0.79929 0.0
Fe622 Fe 0.13742 0.38486 0.60795 0.0
Fe623 Fe 0.08145 0.35005 0.63528 0.0
O624 O 0.10987 0.38014 0.63806 0.0
Fe625 Fe 0.11064 0.40516 0.67093 0.0
O626 O 0.14976 0.39373 0.68092 0.0
O627 O 0.16905 0.39918 0.63383 0.0
O628 O 0.15227 0.34599 0.61398 0.0
C629 C 0.13553 0.32162 0.61187 0.0
C630 C 0.12443 0.44562 0.62005 0.0
O631 O 0.10604 0.32332 0.61289 0.0
C632 C 0.04803 0.39988 0.66181 0.0
O633 O 0.11041 0.3715 0.57685 0.0
O634 O 0.06516 0.36692 0.60043 0.0
O635 O 0.12467 0.43972 0.64911 0.0
O636 O 0.12431 0.42382 0.60019 0.0
C637 C 0.09859 0.34519 0.69605 0.0
O638 O 0.05148 0.37089 0.65735 0.0
O639 O 0.07142 0.41806 0.66297 0.0
C640 C 0.08073 0.37077 0.57586 0.0
O641 O 0.09661 0.33191 0.66981 0.0
O642 O 0.09699 0.37474 0.69839 0.0
C643 C 0.17287 0.39621 0.66305 0.0
Fe644 Fe 0.65948 0.62849 0.58913 0.0
Fe645 Fe 0.63171 0.60947 0.65254 0.0
O646 O 0.63201 0.63404 0.61946 0.0
Fe647 Fe 0.60467 0.66441 0.61637 0.0
O648 O 0.60245 0.66293 0.57394 0.0
O649 O 0.62846 0.6213 0.56054 0.0
O650 O 0.662 0.58643 0.59416 0.0
C651 C 0.6444 0.56658 0.60716 0.0
C652 C 0.65693 0.69405 0.59521 0.0
O653 O 0.62615 0.57441 0.62872 0.0
C654 C 0.6188 0.66473 0.68105 0.0
O655 O 0.69228 0.63491 0.61558 0.0
O656 O 0.67399 0.60502 0.65337 0.0
O657 O 0.6358 0.69371 0.61568 0.0
O658 O 0.66235 0.66992 0.57901 0.0
C659 C 0.5675 0.61737 0.63852 0.0
O660 O 0.63733 0.64223 0.67926 0.0
O661 O 0.60142 0.67138 0.65821 0.0
C662 C 0.6961 0.62024 0.6408 0.0
O663 O 0.58925 0.61003 0.65714 0.0
O664 O 0.57208 0.63682 0.6169 0.0
C665 C 0.6072 0.64069 0.55513 0.0
Fe666 Fe 0.40168 0.34521 0.38234 0.0
Fe667 Fe 0.3734 0.40512 0.35737 0.0
O668 O 0.37336 0.37456 0.3847 0.0
Fe669 Fe 0.34505 0.37336 0.4144 0.0
O670 O 0.33025 0.33622 0.40038 0.0
O671 O 0.376 0.31393 0.39806 0.0
O672 O 0.38823 0.33367 0.34391 0.0
C673 C 0.3889 0.35183 0.32087 0.0
C674 C 0.4006 0.35465 0.4449 0.0
O675 O 0.38896 0.38125 0.32503 0.0
C676 C 0.35758 0.43547 0.41441 0.0
O677 O 0.43249 0.37115 0.36636 0.0
O678 O 0.41197 0.41773 0.3696 0.0
O679 O 0.37095 0.35481 0.44355 0.0
O680 O 0.41668 0.35542 0.42043 0.0
C681 C 0.31114 0.39406 0.36109 0.0
O682 O 0.35779 0.43447 0.38475 0.0
O683 O 0.35828 0.41063 0.42999 0.0
C684 C 0.43563 0.40069 0.36766 0.0
O685 O 0.33481 0.39409 0.34375 0.0
O686 O 0.31416 0.39168 0.39053 0.0
C687 C 0.34638 0.31191 0.39909 0.0
H688 H 0.09373 0.18405 0.33632 0.0
H689 H 0.0145 0.22799 0.29275 0.0
H690 H 0.0307 0.20837 0.24183 0.0
H691 H 0.06812 0.18027 0.20963 0.0
H692 H 0.14542 0.13337 0.25287 0.0
H693 H 0.12949 0.15304 0.30433 0.0
C694 C 0.07996 0.18921 0.31568 0.0
C695 C 0.05313 0.20762 0.31819 0.0
C696 C 0.08929 0.17776 0.28656 0.0
C697 C 0.03521 0.21378 0.2914 0.0
C698 C 0.04455 0.20279 0.26227 0.0
C699 C 0.08163 0.17473 0.23036 0.0
C700 C 0.10826 0.15624 0.2278 0.0
C701 C 0.07174 0.18516 0.25959 0.0
C702 C 0.1251 0.14808 0.25461 0.0
C703 C 0.11593 0.15917 0.28386 0.0
H704 H 0.05512 0.81051 0.56251 0.0
H705 H 0.0034 0.75384 0.49574 0.0
H706 H 0.02064 0.78785 0.45344 0.0
H707 H 0.05164 0.83205 0.43531 0.0
H708 H 0.1092 0.88521 0.49994 0.0
H709 H 0.08797 0.85462 0.54366 0.0
C710 C 0.04766 0.80577 0.53866 0.0
C711 C 0.0281 0.77983 0.53206 0.0
C712 C 0.05837 0.82494 0.51435 0.0
C713 C 0.01873 0.77355 0.50118 0.0
C714 C 0.02837 0.79307 0.47709 0.0
C715 C 0.05898 0.83744 0.45908 0.0
C716 C 0.08121 0.86129 0.46474 0.0
C717 C 0.04821 0.8187 0.48343 0.0
C718 C 0.09159 0.86729 0.49534 0.0
C719 C 0.07969 0.84966 0.52015 0.0
H720 H 0.43315 0.76982 0.78536 0.0
H721 H 0.47561 0.85746 0.81438 0.0
H722 H 0.45646 0.88241 0.76693 0.0
H723 H 0.43052 0.87854 0.71646 0.0
H724 H 0.39183 0.79022 0.68437 0.0
H725 H 0.40667 0.76603 0.73406 0.0
C726 C 0.43774 0.79448 0.78141 0.0
C727 C 0.45546 0.81197 0.80324 0.0
C728 C 0.42757 0.80834 0.75362 0.0
C729 C 0.46194 0.84368 0.79778 0.0
C730 C 0.45105 0.85789 0.77073 0.0
C731 C 0.42489 0.85407 0.72042 0.0
C732 C 0.40987 0.83617 0.69698 0.0
C733 C 0.43424 0.84032 0.74837 0.0
C734 C 0.40337 0.80438 0.70219 0.0
C735 C 0.41183 0.79062 0.73051 0.0
H736 H 0.46461 0.16026 0.06504 0.0
H737 H 0.3944 0.23152 0.06889 0.0
H738 H 0.37081 0.21114 0.02055 0.0
H739 H 0.37231 0.17522 0.97581 0.0
H740 H 0.4457 0.10757 0.96933 0.0
H741 H 0.46597 0.1242 0.02055 0.0
C742 C 0.44406 0.17125 0.05541 0.0
C743 C 0.43125 0.19736 0.07035 0.0
C744 C 0.43126 0.15999 0.02732 0.0
C745 C 0.40471 0.21146 0.0576 0.0
C746 C 0.39122 0.1998 0.03008 0.0
C747 C 0.39237 0.16374 0.98597 0.0
C748 C 0.40738 0.13999 0.9693 0.0
C749 C 0.40454 0.17433 0.01459 0.0
C750 C 0.4338 0.12578 0.98207 0.0
C751 C 0.44539 0.13535 0.01117 0.0
H752 H 0.08187 0.80687 0.17862 0.0
H753 H 0.99521 0.77598 0.21995 0.0
H754 H 0.01123 0.79892 0.27018 0.0
H755 H 0.04983 0.82794 0.30202 0.0
H756 H 0.13403 0.86374 0.25961 0.0
H757 H 0.11919 0.83876 0.2098 0.0
C758 C 0.06662 0.80524 0.19872 0.0
C759 C 0.03758 0.7898 0.19597 0.0
C760 C 0.07557 0.81929 0.2271 0.0
C761 C 0.01763 0.78799 0.22177 0.0
C762 C 0.02681 0.80097 0.2504 0.0
C763 C 0.06492 0.83005 0.28183 0.0
C764 C 0.09309 0.84708 0.28422 0.0
C765 C 0.05571 0.81665 0.25329 0.0
C766 C 0.11229 0.85049 0.25801 0.0
C767 C 0.10383 0.83625 0.22969 0.0
H768 H 0.50046 0.8146 0.43684 0.0
H769 H 0.4095 0.78307 0.40471 0.0
H770 H 0.38456 0.81399 0.4453 0.0
H771 H 0.38882 0.84466 0.49286 0.0
H772 H 0.47958 0.87189 0.5293 0.0
H773 H 0.50452 0.84855 0.48358 0.0
C774 C 0.47519 0.81499 0.43854 0.0
C775 C 0.45674 0.79658 0.41815 0.0
C776 C 0.46107 0.83194 0.46264 0.0
C777 C 0.42407 0.7969 0.4205 0.0
C778 C 0.40983 0.81459 0.4436 0.0
C779 C 0.41404 0.84616 0.49059 0.0
C780 C 0.43237 0.85982 0.51448 0.0
C781 C 0.42814 0.83148 0.46524 0.0
C782 C 0.46501 0.86133 0.51121 0.0
C783 C 0.47925 0.84786 0.4852 0.0
H784 H 0.46152 0.22979 0.70571 0.0
H785 H 0.54481 0.17886 0.72833 0.0
H786 H 0.51551 0.1473 0.76598 0.0
H787 H 0.46678 0.13605 0.79419 0.0
H788 H 0.38509 0.19066 0.7757 0.0
H789 H 0.41293 0.21887 0.73425 0.0
C790 C 0.47312 0.21158 0.71871 0.0
C791 C 0.50514 0.20645 0.71428 0.0
C792 C 0.45637 0.19424 0.74087 0.0
C793 C 0.52016 0.18322 0.73156 0.0
C794 C 0.50343 0.16515 0.75295 0.0
C795 C 0.45508 0.1538 0.7806 0.0
C796 C 0.42399 0.16113 0.78719 0.0
C797 C 0.47162 0.17067 0.75797 0.0
C798 C 0.40898 0.1846 0.7704 0.0
C799 C 0.42491 0.20073 0.74695 0.0
H800 H 0.0066 0.19831 0.97278 0.0
H801 H 0.07935 0.16519 0.91234 0.0
H802 H 0.10764 0.14444 0.95739 0.0
H803 H 0.11142 0.13594 0.014 0.0
H804 H 0.03641 0.16615 0.07358 0.0
H805 H 0.00897 0.18736 0.02873 0.0
C806 C 0.02878 0.18674 0.96963 0.0
C807 C 0.04122 0.1835 0.93965 0.0
C808 C 0.04425 0.17406 0.99534 0.0
C809 C 0.06955 0.16794 0.93545 0.0
C810 C 0.08563 0.15607 0.9611 0.0
C811 C 0.08898 0.14699 0.01707 0.0
C812 C 0.07606 0.14955 0.047 0.0
C813 C 0.07312 0.15892 0.99115 0.0
C814 C 0.04683 0.16371 0.05071 0.0
C815 C 0.03118 0.17606 0.02514 0.0
H816 H 0.31542 0.07826 0.22307 0.0
H817 H 0.32446 0.01003 0.14918 0.0
H818 H 0.27764 0.03007 0.12361 0.0
H819 H 0.23195 0.06419 0.12467 0.0
H820 H 0.2202 0.1283 0.20163 0.0
H821 H 0.27054 0.11286 0.22369 0.0
C822 C 0.3073 0.06791 0.20127 0.0
C823 C 0.32319 0.04263 0.18808 0.0
C824 C 0.27992 0.07883 0.18735 0.0
C825 C 0.31243 0.02943 0.15983 0.0
C826 C 0.28571 0.04087 0.14522 0.0
C827 C 0.24082 0.07516 0.14593 0.0
C828 C 0.22285 0.09749 0.16149 0.0
C829 C 0.269 0.06519 0.15908 0.0
C830 C 0.23394 0.11112 0.18936 0.0
C831 C 0.26257 0.10225 0.20195 0.0
H832 H 0.21497 0.07307 0.44262 0.0
H833 H 0.15331 0.05751 0.52038 0.0
H834 H 0.13447 0.00842 0.49669 0.0
H835 H 0.13543 0.97036 0.45362 0.0
H836 H 0.1935 0.98829 0.37351 0.0
H837 H 0.21371 0.03637 0.39804 0.0
C838 C 0.19758 0.05869 0.45432 0.0
C839 C 0.18571 0.06828 0.4832 0.0
C840 C 0.18608 0.03127 0.44002 0.0
C841 C 0.16273 0.05016 0.49812 0.0
C842 C 0.15198 0.02226 0.4846 0.0
C843 C 0.15245 0.98491 0.44158 0.0
C844 C 0.1631 0.97597 0.41199 0.0
C845 C 0.16342 0.01268 0.45551 0.0
C846 C 0.18486 0.99499 0.39629 0.0
C847 C 0.19654 0.0223 0.41036 0.0
H848 H 0.20613 0.92409 0.70894 0.0
H849 H 0.18696 0.98019 0.62787 0.0
H850 H 0.23186 0.95816 0.60109 0.0
H851 H 0.27904 0.92693 0.60265 0.0
H852 H 0.30177 0.87494 0.68555 0.0
H853 H 0.25277 0.89105 0.70972 0.0
C854 C 0.21157 0.93101 0.68523 0.0
C855 C 0.19345 0.95361 0.67029 0.0
C856 C 0.23807 0.91911 0.67045 0.0
C857 C 0.2008 0.96287 0.63977 0.0
C858 C 0.22641 0.9503 0.62449 0.0
C859 C 0.27296 0.9186 0.62576 0.0
C860 C 0.29376 0.89971 0.64232 0.0
C861 C 0.24556 0.92896 0.63986 0.0
C862 C 0.28598 0.88954 0.67245 0.0
C863 C 0.25807 0.8988 0.68625 0.0
H864 H 0.25985 0.9466 0.91397 0.0
H865 H 0.29673 0.95739 0.0073 0.0
H866 H 0.33268 -0.00125 0.98954 0.0
H867 H 0.35067 0.03426 0.94781 0.0
H868 H 0.31581 0.02046 0.85384 0.0
H869 H 0.28239 0.97745 0.87128 0.0
C870 C 0.27601 0.95791 0.93025 0.0
C871 C 0.27562 0.94955 0.96182 0.0
C872 C 0.29694 0.98097 0.91973 0.0
C873 C 0.2968 0.96375 0.98284 0.0
C874 C 0.31721 0.98735 0.97272 0.0
C875 C 0.33609 0.02146 0.93117 0.0
C876 C 0.33553 0.03056 0.8997 0.0
C877 C 0.31711 0.9965 0.94128 0.0
C878 C 0.31679 0.01373 0.87819 0.0
C879 C 0.29747 0.9893 0.88815 0.0
H880 H 0.31861 0.95499 0.31636 0.0
H881 H 0.26611 0.98065 0.23449 0.0
H882 H 0.22312 0.94583 0.2499 0.0
H883 H 0.19811 0.91419 0.28965 0.0
H884 H 0.24721 0.89361 0.37533 0.0
H885 H 0.29429 0.91952 0.35516 0.0
C886 C 0.29793 0.95232 0.30175 0.0
C887 C 0.2952 0.97007 0.27443 0.0
C888 C 0.27278 0.93332 0.31152 0.0
C889 C 0.26838 0.96707 0.25566 0.0
C890 C 0.2439 0.94724 0.26447 0.0
C891 C 0.21923 0.91472 0.30379 0.0
C892 C 0.21897 0.90228 0.33416 0.0
C893 C 0.24547 0.93107 0.29282 0.0
C894 C 0.2467 0.90317 0.35196 0.0
C895 C 0.27355 0.91819 0.34053 0.0
H896 H 0.32017 0.06199 0.51386 0.0
H897 H 0.28359 0.07995 0.60583 0.0
H898 H 0.31183 0.03543 0.62649 0.0
H899 H 0.34275 0.98913 0.61763 0.0
H900 H 0.37586 0.96752 0.52507 0.0
H901 H 0.35346 0.01602 0.5054 0.0
C902 C 0.31884 0.05635 0.53849 0.0
C903 C 0.29987 0.07407 0.55834 0.0
C904 C 0.33436 0.03007 0.55002 0.0
C905 C 0.29795 0.06646 0.59012 0.0
C906 C 0.31408 0.04106 0.60194 0.0
C907 C 0.34561 0.99521 0.59324 0.0
C908 C 0.36094 0.97476 0.57283 0.0
C909 C 0.33177 0.02235 0.58198 0.0
C910 C 0.36407 0.98288 0.54123 0.0
C911 C 0.35121 0.01053 0.52998 0.0
H912 H 0.18429 0.09143 0.78771 0.0
H913 H 0.22443 0.00784 0.74877 0.0
H914 H 0.27622 0.02494 0.76701 0.0
H915 H 0.30957 0.0628 0.79574 0.0
H916 H 0.26843 0.1442 0.83747 0.0
H917 H 0.21734 0.12927 0.8155 0.0
C918 C 0.20432 0.0769 0.78309 0.0
C919 C 0.20049 0.04836 0.76699 0.0
C920 C 0.23381 0.08678 0.79367 0.0
C921 C 0.22671 0.02978 0.7614 0.0
C922 C 0.25633 0.03965 0.77159 0.0
C923 C 0.28948 0.07759 0.79921 0.0
C924 C 0.29247 0.10483 0.81743 0.0
C925 C 0.26011 0.06807 0.78777 0.0
C926 C 0.26639 0.12341 0.82296 0.0
C927 C 0.23729 0.11472 0.8107 0.0
H928 H 0.17494 0.94468 0.01694 0.0
H929 H 0.21837 0.91587 0.10305 0.0
H930 H 0.19552 0.95992 0.13058 0.0
H931 H 0.16758 0.00874 0.12926 0.0
H932 H 0.12794 0.04137 0.04266 0.0
H933 H 0.14462 0.99355 0.01619 0.0
C934 C 0.17888 0.94792 0.0418 0.0
C935 C 0.19822 0.9273 0.05807 0.0
C936 C 0.16657 0.974 0.05727 0.0
C937 C 0.20365 0.93171 0.09015 0.0
C938 C 0.19061 0.95683 0.10587 0.0
C939 C 0.16208 0.00526 0.10469 0.0
C940 C 0.14662 0.02857 0.08791 0.0
C941 C 0.17266 0.97846 0.08953 0.0
C942 C 0.13996 0.02376 0.05603 0.0
C943 C 0.14954 0.99649 0.0409 0.0
H944 H 0.22657 0.30689 0.0907 0.0
H945 H 0.17319 0.30221 0.00491 0.0
H946 H 0.14575 0.25529 0.02333 0.0
H947 H 0.13803 0.21491 0.06334 0.0
H948 H 0.19477 0.21681 0.14678 0.0
H949 H 0.21979 0.26592 0.13006 0.0
C950 C 0.20878 0.29568 0.07614 0.0
C951 C 0.20171 0.30797 0.04661 0.0
C952 C 0.19374 0.26841 0.08655 0.0
C953 C 0.17904 0.29303 0.0277 0.0
C954 C 0.16331 0.26633 0.03825 0.0
C955 C 0.15564 0.22644 0.07789 0.0
C956 C 0.16444 0.21302 0.10634 0.0
C957 C 0.17057 0.25379 0.06755 0.0
C958 C 0.18766 0.22728 0.12492 0.0
C959 C 0.20193 0.25514 0.11532 0.0
H960 H 0.64498 0.1995 0.99376 0.0
H961 H 0.73343 0.20662 0.94665 0.0
H962 H 0.71255 0.24669 0.91188 0.0
H963 H 0.67091 0.28386 0.89957 0.0
H964 H 0.58157 0.27435 0.94528 0.0
H965 H 0.60063 0.23033 0.97514 0.0
C966 C 0.65938 0.20957 0.9755 0.0
C967 C 0.69063 0.2008 0.9728 0.0
C968 C 0.64707 0.23202 0.95537 0.0
C969 C 0.70924 0.21338 0.94898 0.0
C970 C 0.69736 0.23624 0.92924 0.0
C971 C 0.65543 0.27167 0.91554 0.0
C972 C 0.62513 0.28276 0.92059 0.0
C973 C 0.66655 0.24635 0.93282 0.0
C974 C 0.6051 0.26644 0.94099 0.0
C975 C 0.61604 0.2414 0.95836 0.0
H976 H 0.04793 0.47462 0.18308 0.0
H977 H 0.06334 0.40047 0.24898 0.0
H978 H 0.01427 0.37491 0.23226 0.0
H979 H 0.96725 0.37408 0.19868 0.0
H980 H 0.95027 0.45098 0.13648 0.0
H981 H 0.00017 0.47543 0.15201 0.0
C982 C 0.04064 0.4529 0.19385 0.0
C983 C 0.05922 0.43926 0.21704 0.0
C984 C 0.01232 0.43896 0.18469 0.0
C985 C 0.04927 0.41132 0.23106 0.0
C986 C 0.02136 0.39672 0.22146 0.0
C987 C 0.97474 0.39607 0.18843 0.0
C988 C 0.95574 0.41068 0.16618 0.0
C989 C 0.0028 0.41033 0.19821 0.0
C990 C 0.9649 0.43946 0.15351 0.0
C991 C 0.99328 0.45334 0.16237 0.0
H992 H 0.77344 0.79605 0.41183 0.0
H993 H 0.8655 0.83524 0.42824 0.0
H994 H 0.88911 0.79013 0.4031 0.0
H995 H 0.8839 0.73656 0.38452 0.0
H996 H 0.79226 0.69443 0.37251 0.0
H997 H 0.76812 0.74375 0.38722 0.0
C998 C 0.79857 0.79497 0.40897 0.0
C999 C 0.81783 0.81864 0.42177 0.0
C1000 C 0.81204 0.76825 0.39573 0.0
C1001 C 0.85038 0.81705 0.41854 0.0
C1002 C 0.86385 0.79126 0.40431 0.0
C1003 C 0.85863 0.73823 0.38451 0.0
C1004 C 0.83996 0.71166 0.37804 0.0
C1005 C 0.84497 0.76618 0.39406 0.0
C1006 C 0.80723 0.71443 0.37781 0.0
C1007 C 0.79338 0.7426 0.38633 0.0
H1008 H 0.9428 0.01465 0.1674 0.0
H1009 H 0.93022 0.0791 0.24394 0.0
H1010 H 0.9791 0.10625 0.23068 0.0
H1011 H 0.02581 0.11074 0.19797 0.0
H1012 H 0.04131 0.04289 0.12509 0.0
H1013 H 0.99072 0.01775 0.1361 0.0
C1014 C 0.95078 0.03477 0.18096 0.0
C1015 C 0.9331 0.0452 0.20633 0.0
C1016 C 0.97929 0.04946 0.17388 0.0
C1017 C 0.94368 0.07083 0.22427 0.0
C1018 C 0.97149 0.08632 0.21669 0.0
C1019 C 0.01788 0.09057 0.18444 0.0
C1020 C 0.03673 0.07869 0.16062 0.0
C1021 C 0.98951 0.07573 0.19164 0.0
C1022 C 0.02687 0.05226 0.14352 0.0
C1023 C -0.00193 0.03799 0.14978 0.0
H1024 H 0.33077 0.69214 0.51361 0.0
H1025 H 0.25315 0.69587 0.5773 0.0
H1026 H 0.27286 0.74538 0.5986 0.0
H1027 H 0.31191 0.78835 0.59849 0.0
H1028 H 0.39157 0.78231 0.53766 0.0
H1029 H 0.37142 0.73308 0.51587 0.0
C1030 C 0.31827 0.70379 0.53221 0.0
C1031 C 0.29043 0.69062 0.5436 0.0
C1032 C 0.33009 0.73187 0.54484 0.0
C1033 C 0.2746 0.70564 0.568 0.0
C1034 C 0.28581 0.73399 0.58019 0.0
C1035 C 0.32473 0.77609 0.58051 0.0
C1036 C 0.35299 0.78868 0.56959 0.0
C1037 C 0.31343 0.74743 0.56865 0.0
C1038 C 0.36979 0.77272 0.54652 0.0
C1039 C 0.35828 0.74469 0.53399 0.0
H1040 H 0.04634 0.50694 0.30244 0.0
H1041 H 0.06493 0.5935 0.25463 0.0
H1042 H 0.03193 0.6215 0.29164 0.0
H1043 H 0.99192 0.61963 0.33161 0.0
H1044 H 0.96717 0.53188 0.3749 0.0
H1045 H 0.00891 0.50601 0.34619 0.0
C1046 C 0.04348 0.53203 0.30067 0.0
C1047 C 0.05777 0.54838 0.27615 0.0
C1048 C 0.02325 0.54757 0.32102 0.0
C1049 C 0.05393 0.5807 0.27347 0.0
C1050 C 0.03512 0.5966 0.29455 0.0
C1051 C 0.99615 0.59502 0.33554 0.0
C1052 C 0.97633 0.57763 0.35523 0.0
C1053 C 0.01878 0.58006 0.31764 0.0
C1054 C 0.98206 0.54572 0.35977 0.0
C1055 C 0.00572 0.5309 0.34317 0.0
H1056 H 0.44727 0.50453 0.81644 0.0
H1057 H 0.41293 0.41428 0.78527 0.0
H1058 H 0.44855 0.38838 0.8211 0.0
H1059 H 0.49218 0.3911 0.8571 0.0
H1060 H 0.53258 0.4804 0.88386 0.0
H1061 H 0.4915 0.50714 0.85449 0.0
C1062 C 0.44749 0.47924 0.81793 0.0
C1063 C 0.4277 0.46118 0.7984 0.0
C1064 C 0.46902 0.46444 0.83775 0.0
C1065 C 0.42822 0.42848 0.80002 0.0
C1066 C 0.44847 0.41371 0.82053 0.0
C1067 C 0.49174 0.41646 0.85721 0.0
C1068 C 0.51533 0.43375 0.87285 0.0
C1069 C 0.46935 0.43143 0.83899 0.0
C1070 C 0.51458 0.46658 0.87213 0.0
C1071 C 0.49125 0.48183 0.85516 0.0
H1072 H 0.9227 0.77099 0.70422 0.0
H1073 H 0.97621 0.85134 0.67359 0.0
H1074 H 0.95881 0.88115 0.71898 0.0
H1075 H 0.93171 0.88285 0.76957 0.0
H1076 H 0.88061 0.80133 0.80095 0.0
H1077 H 0.89329 0.77365 0.75277 0.0
C1078 C 0.93039 0.7951 0.70733 0.0
C1079 C 0.9509 0.80885 0.68579 0.0
C1080 C 0.92063 0.81191 0.73357 0.0
C1081 C 0.96055 0.84015 0.69003 0.0
C1082 C 0.95059 0.85723 0.71594 0.0
C1083 C 0.92284 0.85928 0.76546 0.0
C1084 C 0.90533 0.84405 0.7886 0.0
C1085 C 0.93104 0.84317 0.73813 0.0
C1086 C 0.89427 0.81338 0.78337 0.0
C1087 C 0.90158 0.79753 0.75594 0.0
H1088 H 0.94385 0.21042 0.44525 0.0
H1089 H 0.03056 0.17205 0.47879 0.0
H1090 H 0.00227 0.14236 0.51819 0.0
H1091 H 0.95428 0.13178 0.54649 0.0
H1092 H 0.86773 0.17271 0.51624 0.0
H1093 H 0.89448 0.1961 0.47143 0.0
C1094 C 0.95651 0.19522 0.46089 0.0
C1095 C 0.98935 0.19377 0.4593 0.0
C1096 C 0.94014 0.17866 0.48401 0.0
C1097 C 0.00537 0.17394 0.47974 0.0
C1098 C 0.98921 0.15688 0.50224 0.0
C1099 C 0.94109 0.14548 0.52988 0.0
C1100 C 0.90917 0.15091 0.53493 0.0
C1101 C 0.95678 0.15974 0.50509 0.0
C1102 C 0.89233 0.16823 0.51291 0.0
C1103 C 0.90769 0.18185 0.48747 0.0
H1104 H 0.53369 0.2202 0.21757 0.0
H1105 H 0.56527 0.13902 0.16687 0.0
H1106 H 0.59302 0.12121 0.21296 0.0
H1107 H 0.60421 0.12588 0.26868 0.0
H1108 H 0.57227 0.20634 0.32007 0.0
H1109 H 0.54927 0.2274 0.27247 0.0
C1110 C 0.54693 0.19881 0.21646 0.0
C1111 C 0.5469 0.18077 0.1889 0.0
C1112 C 0.5627 0.18844 0.24319 0.0
C1113 C 0.56446 0.15323 0.18786 0.0
C1114 C 0.5804 0.14296 0.21422 0.0
C1115 C 0.59247 0.14818 0.26945 0.0
C1116 C 0.58949 0.16421 0.29794 0.0
C1117 C 0.57899 0.15995 0.24218 0.0
C1118 C 0.5747 0.19336 0.29844 0.0
C1119 C 0.56142 0.20538 0.27127 0.0
H1120 H 0.56813 0.80774 0.92719 0.0
H1121 H 0.47487 0.811 0.96458 0.0
H1122 H 0.49607 0.82879 0.01518 0.0
H1123 H 0.54167 0.84059 0.04917 0.0
H1124 H 0.63452 0.83756 0.01008 0.0
H1125 H 0.61275 0.82268 0.95953 0.0
C1126 C 0.55239 0.81242 0.94639 0.0
C1127 C 0.5201 0.8078 0.94245 0.0
C1128 C 0.56467 0.82262 0.97503 0.0
C1129 C 0.49989 0.81439 0.96724 0.0
C1130 C 0.512 0.82445 0.99611 0.0
C1131 C 0.55711 0.83686 0.02954 0.0
C1132 C 0.58971 0.83981 0.03356 0.0
C1133 C 0.54444 0.82824 0.00036 0.0
C1134 C 0.60937 0.83524 0.00778 0.0
C1135 C 0.59697 0.82667 0.97882 0.0
H1136 H 0.93911 0.16916 0.82864 0.0
H1137 H 0.92855 0.26449 0.79854 0.0
H1138 H 0.91049 0.24598 0.74709 0.0
H1139 H 0.90121 0.20253 0.71006 0.0
H1140 H 0.91235 0.10741 0.74126 0.0
H1141 H 0.92671 0.12616 0.79321 0.0
C1142 C 0.93268 0.18591 0.81087 0.0
C1143 C 0.9354 0.21805 0.81703 0.0
C1144 C 0.92266 0.17516 0.78164 0.0
C1145 C 0.9266 0.23957 0.79413 0.0
C1146 C 0.91646 0.22901 0.76477 0.0
C1147 C 0.90671 0.18593 0.72827 0.0
C1148 C 0.90616 0.15367 0.72172 0.0
C1149 C 0.91498 0.19684 0.75813 0.0
C1150 C 0.91283 0.13238 0.74563 0.0
C1151 C 0.92105 0.14304 0.77534 0.0
H1152 H 0.53085 0.19426 0.56237 0.0
H1153 H 0.62566 0.20271 0.59719 0.0
H1154 H 0.64396 0.17066 0.55416 0.0
H1155 H 0.63414 0.14553 0.50381 0.0
H1156 H 0.53984 0.13833 0.46765 0.0
H1157 H 0.52025 0.16375 0.51462 0.0
C1158 C 0.55548 0.18895 0.56069 0.0
C1159 C 0.57686 0.20144 0.58268 0.0
C1160 C 0.566 0.1706 0.53573 0.0
C1161 C 0.60865 0.19379 0.58042 0.0
C1162 C 0.6192 0.17538 0.55583 0.0
C1163 C 0.60922 0.14896 0.50639 0.0
C1164 C 0.58861 0.14066 0.48194 0.0
C1165 C 0.59822 0.16439 0.53294 0.0
C1166 C 0.55632 0.14482 0.48595 0.0
C1167 C 0.54509 0.15958 0.51271 0.0
H1168 H 0.55891 0.79161 0.31336 0.0
H1169 H 0.58365 0.70399 0.27006 0.0
H1170 H 0.61267 0.73212 0.22994 0.0
H1171 H 0.62324 0.781 0.20274 0.0
H1172 H 0.5948 0.86858 0.24342 0.0
H1173 H 0.57567 0.84098 0.28955 0.0
C1174 C 0.57121 0.77858 0.29558 0.0
C1175 C 0.56859 0.74573 0.29436 0.0
C1176 C 0.58693 0.7949 0.27198 0.0
C1177 C 0.58488 0.72927 0.27126 0.0
C1178 C 0.60143 0.74534 0.24827 0.0
C1179 C 0.6133 0.79416 0.22191 0.0
C1180 C 0.6097 0.82667 0.21937 0.0
C1181 C 0.60136 0.77809 0.24767 0.0
C1182 C 0.59751 0.84348 0.24468 0.0
C1183 C 0.58639 0.82769 0.27095 0.0
H1184 H 0.00671 0.81606 0.04894 0.0
H1185 H 0.92762 0.75519 0.06719 0.0
H1186 H 0.89736 0.78135 0.02676 0.0
H1187 H 0.89414 0.81999 0.98481 0.0
H1188 H 0.97419 0.87865 0.96433 0.0
H1189 H 0.00322 0.85526 0.0075 0.0
C1190 C 0.98283 0.80856 0.04412 0.0
C1191 C 0.96946 0.78367 0.06095 0.0
C1192 C 0.96569 0.8235 0.02067 0.0
C1193 C 0.93851 0.77418 0.05442 0.0
C1194 C 0.92115 0.7892 0.0314 0.0
C1195 C 0.91771 0.82809 0.99025 0.0
C1196 C 0.93197 0.85122 0.97176 0.0
C1197 C 0.93456 0.81377 0.01429 0.0
C1198 C 0.96277 0.86099 0.97846 0.0
C1199 C 0.97938 0.84751 0.00298 0.0
H1200 H 0.69364 0.95712 0.82666 0.0
H1201 H 0.7312 0.94906 0.73368 0.0
H1202 H 0.77758 0.92374 0.75452 0.0
H1203 H 0.80797 0.90515 0.79909 0.0
H1204 H 0.77061 0.9129 0.89225 0.0
H1205 H 0.72332 0.93644 0.87127 0.0
C1206 C 0.71205 0.94993 0.81099 0.0
C1207 C 0.70913 0.95521 0.7787 0.0
C1208 C 0.73849 0.93501 0.8231 0.0
C1209 C 0.73295 0.94538 0.75864 0.0
C1210 C 0.75943 0.93082 0.77052 0.0
C1211 C 0.78939 0.91168 0.81485 0.0
C1212 C 0.79297 0.90731 0.84724 0.0
C1213 C 0.76247 0.92559 0.8027 0.0
C1214 C 0.7685 0.91582 0.86722 0.0
C1215 C 0.74152 0.92954 0.85526 0.0
H1216 H 0.8338 0.92654 0.55342 0.0
H1217 H 0.82661 0.97227 0.46418 0.0
H1218 H 0.83711 0.02301 0.48939 0.0
H1219 H 0.84395 0.0543 0.53758 0.0
H1220 H 0.8489 0.00729 0.62658 0.0
H1221 H 0.84322 0.95693 0.60052 0.0
C1222 C 0.83483 0.94758 0.53939 0.0
C1223 C 0.82921 0.94588 0.50714 0.0
C1224 C 0.83995 0.97638 0.55404 0.0
C1225 C 0.83096 0.97314 0.48912 0.0
C1226 C 0.83667 0.0021 0.50355 0.0
C1227 C 0.84379 0.03303 0.55125 0.0
C1228 C 0.84637 0.03458 0.584 0.0
C1229 C 0.84041 0.00402 0.53613 0.0
C1230 C 0.84655 0.00681 0.60137 0.0
C1231 C 0.84344 0.97797 0.58652 0.0
H1232 H 0.81296 0.06349 0.30781 0.0
H1233 H 0.76173 0.06448 0.22051 0.0
H1234 H 0.71987 0.09326 0.24537 0.0
H1235 H 0.69491 0.11172 0.29303 0.0
H1236 H 0.74482 0.10832 0.38092 0.0
H1237 H 0.79044 0.08765 0.35436 0.0
C1238 C 0.79285 0.0703 0.29405 0.0
C1239 C 0.79029 0.06124 0.26246 0.0
C1240 C 0.76856 0.08639 0.30859 0.0
C1241 C 0.76422 0.07074 0.24496 0.0
C1242 C 0.7402 0.08722 0.25915 0.0
C1243 C 0.71593 0.107 0.30637 0.0
C1244 C 0.71617 0.11094 0.33903 0.0
C1245 C 0.74169 0.09421 0.29116 0.0
C1246 C 0.74382 0.10519 0.35581 0.0
C1247 C 0.76988 0.09317 0.34067 0.0
H1248 H 0.68759 0.04143 0.01671 0.0
H1249 H 0.66489 0.09076 0.1018 0.0
H1250 H 0.64335 0.04298 0.12391 0.0
H1251 H 0.63684 0.98609 0.1217 0.0
H1252 H 0.6595 0.93664 0.03675 0.0
H1253 H 0.67469 0.98561 0.01205 0.0
C1254 C 0.67746 0.04189 0.03987 0.0
C1255 C 0.67853 0.06954 0.05772 0.0
C1256 C 0.66533 0.01421 0.05272 0.0
C1257 C 0.66489 0.06973 0.0876 0.0
C1258 C 0.65257 0.04237 0.10039 0.0
C1259 C 0.64476 0.98607 0.09767 0.0
C1260 C 0.64765 0.95772 0.0814 0.0
C1261 C 0.65367 0.01428 0.08358 0.0
C1262 C 0.65737 0.95813 0.05003 0.0
C1263 C 0.66616 0.98612 0.03583 0.0
H1264 H 0.70648 0.05846 0.74311 0.0
H1265 H 0.65147 0.08992 0.6647 0.0
H1266 H 0.69723 0.11574 0.64277 0.0
H1267 H 0.75438 0.12115 0.64113 0.0
H1268 H 0.80918 0.08969 0.71963 0.0
H1269 H 0.76197 0.07254 0.74617 0.0
C1270 C 0.70427 0.07159 0.72163 0.0
C1271 C 0.67582 0.0713 0.70514 0.0
C1272 C 0.7308 0.08599 0.70875 0.0
C1273 C 0.67327 0.08907 0.67764 0.0
C1274 C 0.69948 0.10379 0.66491 0.0
C1275 C 0.75591 0.11101 0.66425 0.0
C1276 C 0.78525 0.10585 0.67788 0.0
C1277 C 0.72865 0.101 0.67945 0.0
C1278 C 0.78689 0.09343 0.70824 0.0
C1279 C 0.75989 0.08354 0.72352 0.0
H1280 H 0.72197 0.93785 0.43563 0.0
H1281 H 0.70783 0.97137 0.52983 0.0
H1282 H 0.67654 0.01403 0.5102 0.0
H1283 H 0.65755 0.04477 0.46639 0.0
H1284 H 0.67238 0.01254 0.37196 0.0
H1285 H 0.69855 0.96625 0.39168 0.0
C1286 C 0.71165 0.95419 0.4519 0.0
C1287 C 0.71765 0.95156 0.48413 0.0
C1288 C 0.69393 0.97908 0.44045 0.0
C1289 C 0.70398 0.97297 0.50486 0.0
C1290 C 0.68604 0.99744 0.49369 0.0
C1291 C 0.6662 0.02748 0.45008 0.0
C1292 C 0.66339 0.03238 0.41777 0.0
C1293 C 0.6816 0.0012 0.46152 0.0
C1294 C 0.67436 0.00948 0.39699 0.0
C1295 C 0.68946 0.98304 0.40824 0.0
H1296 H 0.82234 0.9429 0.18917 0.0
H1297 H 0.78072 0.93894 0.28066 0.0
H1298 H 0.73421 0.91301 0.2585 0.0
H1299 H 0.7041 0.89542 0.21263 0.0
H1300 H 0.74579 0.9003 0.12105 0.0
H1301 H 0.79394 0.92156 0.14397 0.0
C1302 C 0.80316 0.93618 0.2043 0.0
C1303 C 0.80467 0.9431 0.23638 0.0
C1304 C 0.77661 0.92152 0.19142 0.0
C1305 C 0.77994 0.93394 0.25583 0.0
C1306 C 0.75337 0.91919 0.24318 0.0
C1307 C 0.72381 0.90085 0.19767 0.0
C1308 C 0.72118 0.89672 0.16512 0.0
C1309 C 0.75125 0.91344 0.21092 0.0
C1310 C 0.74708 0.90347 0.14615 0.0
C1311 C 0.7746 0.91573 0.15921 0.0
H1312 H 0.81286 0.04221 0.00256 0.0
H1313 H 0.75882 0.06148 0.91956 0.0
H1314 H 0.78773 0.02232 0.89055 0.0
H1315 H 0.82732 0.98185 0.88897 0.0
H1316 H 0.8798 0.96029 0.97222 0.0
H1317 H 0.853 0.00166 0.00083 0.0
C1318 C 0.80735 0.03774 0.97817 0.0
C1319 C 0.78367 0.05464 0.96328 0.0
C1320 C 0.82409 0.01516 0.96157 0.0
C1321 C 0.77686 0.04869 0.93162 0.0
C1322 C 0.79348 0.02643 0.91494 0.0
C1323 C 0.83339 0.98667 0.91319 0.0
C1324 C 0.85576 0.96844 0.92842 0.0
C1325 C 0.81715 0.00959 0.92966 0.0
C1326 C 0.8628 0.97431 0.96002 0.0
C1327 C 0.84735 0.99775 0.97639 0.0
H1328 H 0.81975 0.69167 0.96015 0.0
H1329 H 0.73088 0.72654 0.92853 0.0
H1330 H 0.75732 0.76813 0.90003 0.0
H1331 H 0.8047 0.79839 0.88965 0.0
H1332 H 0.89379 0.76591 0.92289 0.0
H1333 H 0.86836 0.71925 0.94451 0.0
C1334 C 0.80625 0.70802 0.94652 0.0
C1335 C 0.77338 0.70629 0.94688 0.0
C1336 C 0.82162 0.73243 0.93061 0.0
C1337 C 0.75619 0.72764 0.92908 0.0
C1338 C 0.77127 0.75144 0.91272 0.0
C1339 C 0.81865 0.78085 0.90119 0.0
C1340 C 0.85096 0.78579 0.90506 0.0
C1341 C 0.80384 0.75466 0.91421 0.0
C1342 C 0.86883 0.76267 0.91964 0.0
C1343 C 0.85426 0.73611 0.93223 0.0
H1344 H 0.32376 0.81206 0.04338 0.0
H1345 H 0.23081 0.77941 0.06658 0.0
H1346 H 0.25221 0.7316 0.08817 0.0
H1347 H 0.29663 0.69765 0.09678 0.0
H1348 H 0.38967 0.72948 0.07291 0.0
H1349 H 0.36889 0.77948 0.05575 0.0
C1350 C 0.30823 0.79456 0.05334 0.0
C1351 C 0.27578 0.79902 0.05308 0.0
C1352 C 0.32066 0.76709 0.06558 0.0
C1353 C 0.2559 0.77638 0.06636 0.0
C1354 C 0.26809 0.74905 0.07868 0.0
C1355 C 0.31243 0.71561 0.08805 0.0
C1356 C 0.34454 0.70975 0.08567 0.0
C1357 C 0.30033 0.74396 0.07786 0.0
C1358 C 0.3648 0.73341 0.07484 0.0
C1359 C 0.35293 0.7619 0.06487 0.0
H1360 H 0.91357 0.57308 0.85452 0.0
H1361 H 0.93996 0.48754 0.80831 0.0
H1362 H 0.9949 0.49922 0.81932 0.0
H1363 H 0.03577 0.53794 0.8345 0.0
H1364 H 0.00848 0.62475 0.87751 0.0
H1365 H 0.9538 0.60828 0.87543 0.0
C1366 C 0.93121 0.55659 0.84743 0.0
C1367 C 0.92255 0.52979 0.83012 0.0
C1368 C 0.96281 0.56396 0.85279 0.0
C1369 C 0.94585 0.50854 0.82148 0.0
C1370 C 0.97739 0.5153 0.82755 0.0
C1371 C 0.01786 0.55291 0.84394 0.0
C1372 C 0.02603 0.58274 0.85555 0.0
C1373 C 0.98622 0.54361 0.84197 0.0
C1374 C 0.00265 0.60191 0.86785 0.0
C1375 C 0.97138 0.59251 0.86675 0.0
H1376 H 0.17392 0.18634 0.57168 0.0
H1377 H 0.26592 0.22898 0.5731 0.0
H1378 H 0.24374 0.2782 0.59176 0.0
H1379 H 0.19756 0.30954 0.60467 0.0
H1380 H 0.10586 0.26572 0.60222 0.0
H1381 H 0.12874 0.21634 0.58688 0.0
C1382 C 0.1892 0.20635 0.5762 0.0
C1383 C 0.22142 0.20424 0.57083 0.0
C1384 C 0.17632 0.23432 0.58653 0.0
C1385 C 0.241 0.23016 0.57711 0.0
C1386 C 0.22831 0.25826 0.58762 0.0
C1387 C 0.1826 0.28915 0.6009 0.0
C1388 C 0.14999 0.29145 0.60426 0.0
C1389 C 0.1959 0.26071 0.59194 0.0
C1390 C 0.13098 0.26473 0.59957 0.0
C1391 C 0.14402 0.23644 0.5908 0.0
H1392 H 0.04438 0.00972 0.81543 0.0
H1393 H 0.07487 0.93009 0.76195 0.0
H1394 H 0.03891 0.8961 0.79074 0.0
H1395 H 0.99483 0.89013 0.82729 0.0
H1396 H 0.96389 0.97047 0.87937 0.0
H1397 H 0.00439 0.00287 0.85535 0.0
C1398 C 0.04338 0.98489 0.81018 0.0
C1399 C 0.06199 0.97261 0.78624 0.0
C1400 C 0.02257 0.96555 0.82666 0.0
C1401 C 0.0607 0.94025 0.78015 0.0
C1402 C 0.0401 0.92077 0.79658 0.0
C1403 C 0.99752 0.91453 0.83396 0.0
C1404 C 0.97631 0.92795 0.85495 0.0
C1405 C 0.02041 0.93329 0.81941 0.0
C1406 C 0.97985 0.95967 0.86313 0.0
C1407 C 0.00289 0.97825 0.8493 0.0
H1408 H 0.65582 0.32653 0.45247 0.0
H1409 H 0.74986 0.29638 0.47171 0.0
H1410 H 0.73816 0.246 0.44706 0.0
H1411 H 0.69996 0.20887 0.42416 0.0
H1412 H 0.60557 0.23877 0.40658 0.0
H1413 H 0.6189 0.2909 0.42619 0.0
C1414 C 0.67392 0.30912 0.45105 0.0
C1415 C 0.70359 0.31527 0.46426 0.0
C1416 C 0.66696 0.28 0.43723 0.0
C1417 C 0.72674 0.29235 0.46193 0.0
C1418 C 0.72007 0.26344 0.44787 0.0
C1419 C 0.68243 0.22691 0.42417 0.0
C1420 C 0.65173 0.21978 0.41419 0.0
C1421 C 0.69007 0.25677 0.43602 0.0
C1422 C 0.62931 0.24349 0.41439 0.0
C1423 C 0.63688 0.27333 0.42565 0.0
H1424 H 0.91412 0.42813 0.71385 0.0
H1425 H 0.95208 0.5222 0.713 0.0
H1426 H 2e-05 0.5035 0.68932 0.0
H1427 H 0.03219 0.46024 0.67168 0.0
H1428 H 0.99456 0.36599 0.67266 0.0
H1429 H 0.94526 0.38509 0.69309 0.0
C1430 C 0.93283 0.44452 0.70833 0.0
C1431 C 0.9297 0.47641 0.71537 0.0
C1432 C 0.96036 0.43363 0.69476 0.0
C1433 C 0.95398 0.49748 0.70786 0.0
C1434 C 0.98142 0.48683 0.69436 0.0
C1435 C 0.01316 0.44386 0.67616 0.0
C1436 C 0.01719 0.41172 0.67101 0.0
C1437 C 0.98501 0.45492 0.68812 0.0
C1438 C 0.99215 0.39087 0.67658 0.0
C1439 C 0.96396 0.40173 0.68836 0.0
H1440 H 0.53381 0.49149 0.17843 0.0
H1441 H 0.57701 0.57928 0.20626 0.0
H1442 H 0.53662 0.6078 0.17873 0.0
H1443 H 0.48717 0.60784 0.15061 0.0
H1444 H 0.44204 0.5204 0.12479 0.0
H1445 H 0.48561 0.49161 0.14709 0.0
C1446 C 0.5344 0.51684 0.1783 0.0
C1447 C 0.55799 0.5333 0.19457 0.0
C1448 C 0.51096 0.53311 0.1627 0.0
C1449 C 0.55878 0.56613 0.19412 0.0
C1450 C 0.53581 0.58246 0.17831 0.0
C1451 C 0.48708 0.5825 0.14934 0.0
C1452 C 0.46137 0.56623 0.13644 0.0
C1453 C 0.51154 0.56619 0.16301 0.0
C1454 C 0.46156 0.5334 0.13493 0.0
C1455 C 0.48634 0.51694 0.14777 0.0
H1456 H 0.59626 0.70401 0.82116 0.0
H1457 H 0.51439 0.74393 0.77832 0.0
H1458 H 0.53262 0.72809 0.72702 0.0
H1459 H 0.57029 0.70172 0.69467 0.0
H1460 H 0.65109 0.65897 0.73646 0.0
H1461 H 0.63499 0.67783 0.78799 0.0
C1462 C 0.58244 0.70929 0.8006 0.0
C1463 C 0.5539 0.72496 0.80365 0.0
C1464 C 0.59292 0.69988 0.77105 0.0
C1465 C 0.53626 0.73159 0.77675 0.0
C1466 C 0.54673 0.72271 0.74735 0.0
C1467 C 0.58471 0.69673 0.71492 0.0
C1468 C 0.61187 0.67893 0.71171 0.0
C1469 C 0.57487 0.70672 0.7443 0.0
C1470 C 0.63006 0.67263 0.73831 0.0
C1471 C 0.62079 0.68327 0.76775 0.0
H1472 H 0.50354 0.29745 0.06421 0.0
H1473 H 0.5804 0.23377 0.05728 0.0
H1474 H 0.60873 0.27067 0.02415 0.0
H1475 H 0.60901 0.31767 0.99265 0.0
H1476 H 0.52944 0.3784 0.99312 0.0
H1477 H 0.50499 0.34648 0.03391 0.0
C1478 C 0.52666 0.29197 0.05569 0.0
C1479 C 0.53992 0.26303 0.06293 0.0
C1480 C 0.54223 0.31274 0.03557 0.0
C1481 C 0.5697 0.25585 0.05165 0.0
C1482 C 0.5859 0.27693 0.03282 0.0
C1483 C 0.58667 0.32447 0.0022 0.0
C1484 C 0.57106 0.35043 0.99002 0.0
C1485 C 0.57205 0.30504 0.02402 0.0
C1486 C 0.5419 0.35856 0.00228 0.0
C1487 C 0.52784 0.34017 0.02536 0.0
H1488 H 0.93235 0.25377 0.30294 0.0
H1489 H 0.96056 0.34407 0.33937 0.0
H1490 H 0.93143 0.36992 0.29791 0.0
H1491 H 0.90307 0.36675 0.24886 0.0
H1492 H 0.87961 0.27682 0.20811 0.0
H1493 H 0.90145 0.25071 0.25391 0.0
C1494 C 0.93157 0.27907 0.30189 0.0
C1495 C 0.94836 0.2972 0.32383 0.0
C1496 C 0.91589 0.2937 0.27722 0.0
C1497 C 0.94781 0.32989 0.32238 0.0
C1498 C 0.9312 0.3446 0.29879 0.0
C1499 C 0.90218 0.34143 0.25013 0.0
C1500 C 0.88988 0.32373 0.22511 0.0
C1501 C 0.91587 0.32673 0.27568 0.0
C1502 C 0.88911 0.29094 0.22709 0.0
C1503 C 0.90166 0.27603 0.25319 0.0
H1504 H 0.96296 0.68251 0.56016 0.0
H1505 H 0.89838 0.75859 0.55221 0.0
H1506 H 0.87559 0.73443 0.50512 0.0
H1507 H 0.87644 0.69325 0.46462 0.0
H1508 H 0.94556 0.62117 0.46965 0.0
H1509 H 0.96456 0.64232 0.5197 0.0
C1510 C 0.94388 0.69386 0.54823 0.0
C1511 C 0.93244 0.72236 0.55952 0.0
C1512 C 0.9319 0.68058 0.52068 0.0
C1513 C 0.90762 0.73667 0.54383 0.0
C1514 C 0.89464 0.72291 0.51695 0.0
C1515 C 0.8954 0.68205 0.47701 0.0
C1516 C 0.90951 0.65561 0.46402 0.0
C1517 C 0.90692 0.69509 0.50496 0.0
C1518 C 0.93445 0.64152 0.47956 0.0
C1519 C 0.94525 0.65359 0.50803 0.0
H1520 H 0.50356 0.29715 0.72185 0.0
H1521 H 0.57916 0.34272 0.67313 0.0
H1522 H 0.59808 0.36632 0.72221 0.0
H1523 H 0.59409 0.37191 0.77934 0.0
H1524 H 0.52184 0.32121 0.82837 0.0
H1525 H 0.50052 0.30138 0.77887 0.0
C1526 C 0.52385 0.31269 0.72208 0.0
C1527 C 0.53973 0.31891 0.69426 0.0
C1528 C 0.5353 0.3248 0.75039 0.0
C1529 C 0.56655 0.33812 0.69453 0.0
C1530 C 0.57737 0.35142 0.72248 0.0
C1531 C 0.57366 0.35656 0.77901 0.0
C1532 C 0.5595 0.34788 0.80715 0.0
C1533 C 0.56213 0.3446 0.7506 0.0
C1534 C 0.53323 0.32783 0.80681 0.0
C1535 C 0.52095 0.31667 0.77859 0.0
H1536 H 0.97716 0.31449 0.96388 0.0
H1537 H 0.89709 0.25367 0.94831 0.0
H1538 H 0.86856 0.28072 0.98929 0.0
H1539 H 0.86734 0.3196 0.03103 0.0
H1540 H 0.94902 0.37665 0.05108 0.0
H1541 H 0.97586 0.35375 0.00613 0.0
C1542 C 0.95343 0.30728 0.96944 0.0
C1543 C 0.93921 0.28215 0.95326 0.0
C1544 C 0.93744 0.32248 0.99348 0.0
C1545 C 0.90857 0.27281 0.9607 0.0
C1546 C 0.89219 0.28836 0.98396 0.0
C1547 C 0.8908 0.32746 0.02517 0.0
C1548 C 0.90618 0.34995 0.04392 0.0
C1549 C 0.90649 0.31303 0.00061 0.0
C1550 C 0.93678 0.3595 0.03664 0.0
C1551 C 0.95213 0.34626 0.01118 0.0
H1552 H 0.95867 0.70872 0.19599 0.0
H1553 H 0.02984 0.6388 0.20246 0.0
H1554 H -0.0019 0.60952 0.24012 0.0
H1555 H 0.95419 0.60842 0.27694 0.0
H1556 H 0.88681 0.68231 0.27512 0.0
H1557 H 0.91291 0.70563 0.22998 0.0
C1558 C 0.96693 0.68678 0.20533 0.0
C1559 C 0.99637 0.67577 0.19663 0.0
C1560 C 0.9495 0.6712 0.22821 0.0
C1561 C 0.00724 0.64767 0.2091 0.0
C1562 C 0.98923 0.6311 0.2307 0.0
C1563 C 0.94482 0.62915 0.26606 0.0
C1564 C 0.91864 0.64368 0.27901 0.0
C1565 C 0.96087 0.64324 0.24125 0.0
C1566 C 0.90696 0.67085 0.26531 0.0
C1567 C 0.92194 0.68421 0.23969 0.0
H1568 H 0.55968 0.64352 0.41549 0.0
H1569 H 0.50336 0.71649 0.45516 0.0
H1570 H 0.52305 0.70454 0.50713 0.0
H1571 H 0.55863 0.67664 0.54034 0.0
H1572 H 0.61873 0.60624 0.50175 0.0
H1573 H 0.59459 0.6134 0.45017 0.0
C1574 C 0.55155 0.6565 0.43562 0.0
C1575 C 0.53035 0.68099 0.43161 0.0
C1576 C 0.56361 0.65004 0.46543 0.0
C1577 C 0.51999 0.6978 0.45772 0.0
C1578 C 0.53114 0.69094 0.4874 0.0
C1579 C 0.56652 0.66269 0.52074 0.0
C1580 C 0.59081 0.64132 0.52473 0.0
C1581 C 0.55339 0.66763 0.49136 0.0
C1582 C 0.6002 0.62302 0.4992 0.0
C1583 C 0.58652 0.62722 0.46974 0.0
H1584 H 0.81829 0.55176 0.67395 0.0
H1585 H 0.78994 0.57767 0.76692 0.0
H1586 H 0.74814 0.60961 0.74536 0.0
H1587 H 0.71591 0.62433 0.70017 0.0
H1588 H 0.74541 0.60018 0.60718 0.0
H1589 H 0.79129 0.57403 0.62847 0.0
C1590 C 0.8031 0.56472 0.68938 0.0
C1591 C 0.80646 0.56195 0.72186 0.0
C1592 C 0.77967 0.58345 0.6768 0.0
C1593 C 0.78737 0.57929 0.74181 0.0
C1594 C 0.76356 0.59752 0.72951 0.0
C1595 C 0.73307 0.61425 0.68465 0.0
C1596 C 0.72762 0.61405 0.65232 0.0
C1597 C 0.75902 0.59906 0.69708 0.0
C1598 C 0.7496 0.60091 0.63216 0.0
C1599 C 0.7755 0.58558 0.64435 0.0
H1600 H 0.71571 0.54009 0.99074 0.0
H1601 H 0.67181 0.5987 0.92228 0.0
H1602 H 0.64482 0.55308 0.89934 0.0
H1603 H 0.63234 0.49688 0.90029 0.0
H1604 H 0.67306 0.43927 0.97185 0.0
H1605 H 0.70226 0.48424 0.99247 0.0
C1606 C 0.7006 0.54264 0.97048 0.0
C1607 C 0.69594 0.5723 0.95778 0.0
C1608 C 0.6842 0.51667 0.95843 0.0
C1609 C 0.67578 0.57581 0.93211 0.0
C1610 C 0.66028 0.54985 0.91918 0.0
C1611 C 0.64753 0.49424 0.92045 0.0
C1612 C 0.65048 0.46487 0.93453 0.0
C1613 C 0.66398 0.52024 0.93244 0.0
C1614 C 0.67012 0.46174 0.96075 0.0
C1615 C 0.68704 0.48736 0.97243 0.0
H1616 H 0.68899 0.41884 0.24588 0.0
H1617 H 0.65682 0.45362 0.15723 0.0
H1618 H 0.69904 0.42694 0.13044 0.0
H1619 H 0.74932 0.40151 0.13342 0.0
H1620 H 0.78523 0.37148 0.2226 0.0
H1621 H 0.73717 0.38797 0.24801 0.0
C1622 C 0.69089 0.41974 0.22064 0.0
C1623 C 0.67025 0.43811 0.2034 0.0
C1624 C 0.71611 0.40561 0.20561 0.0
C1625 C 0.67282 0.43966 0.1708 0.0
C1626 C 0.69693 0.42452 0.15554 0.0
C1627 C 0.74643 0.39795 0.15831 0.0
C1628 C 0.77098 0.38589 0.1762 0.0
C1629 C 0.71943 0.40861 0.17287 0.0
C1630 C 0.76678 0.38122 0.2084 0.0
C1631 C 0.73936 0.39068 0.22296 0.0
H1632 H 0.79981 0.4338 0.45412 0.0
H1633 H 0.73552 0.49995 0.4934 0.0
H1634 H 0.76667 0.54321 0.47276 0.0
H1635 H 0.81121 0.56223 0.44294 0.0
H1636 H 0.87344 0.49705 0.39926 0.0
H1637 H 0.84425 0.45321 0.42257 0.0
C1638 C 0.79268 0.45771 0.4581 0.0
C1639 C 0.76539 0.46371 0.47518 0.0
C1640 C 0.81043 0.48252 0.44564 0.0
C1641 C 0.75624 0.49474 0.48003 0.0
C1642 C 0.77413 0.51948 0.46842 0.0
C1643 C 0.81875 0.53845 0.43894 0.0
C1644 C 0.84478 0.53278 0.41999 0.0
C1645 C 0.8012 0.51363 0.45123 0.0
C1646 C 0.85367 0.50186 0.41413 0.0
C1647 C 0.83691 0.47689 0.4273 0.0
H1648 H 0.79608 0.441 0.82617 0.0
H1649 H 0.73962 0.49633 0.76463 0.0
H1650 H 0.69343 0.46456 0.77724 0.0
H1651 H 0.66811 0.42629 0.81101 0.0
H1652 H 0.72298 0.37491 0.87758 0.0
H1653 H 0.77087 0.39926 0.85745 0.0
C1654 C 0.77373 0.44547 0.8151 0.0
C1655 C 0.77097 0.47068 0.79448 0.0
C1656 C 0.74703 0.42796 0.82357 0.0
C1657 C 0.74202 0.47689 0.78054 0.0
C1658 C 0.71569 0.45882 0.78781 0.0
C1659 C 0.69059 0.41974 0.82061 0.0
C1660 C 0.69196 0.39887 0.84584 0.0
C1661 C 0.71773 0.43498 0.81004 0.0
C1662 C 0.7213 0.39097 0.85819 0.0
C1663 C 0.74866 0.40504 0.84683 0.0
H1664 H 0.79282 0.56647 0.08749 0.0
H1665 H 0.82698 0.54478 0.9955 0.0
H1666 H 0.84931 0.4961 0.01518 0.0
H1667 H 0.85494 0.45787 0.05796 0.0
H1668 H 0.82171 0.48156 0.15007 0.0
H1669 H 0.80344 0.53154 0.13096 0.0
C1670 C 0.80542 0.55119 0.07182 0.0
C1671 C 0.80796 0.55877 0.04009 0.0
C1672 C 0.81821 0.52363 0.0833 0.0
C1673 C 0.82476 0.53923 0.02005 0.0
C1674 C 0.83735 0.5114 0.03127 0.0
C1675 C 0.84398 0.47414 0.07386 0.0
C1676 C 0.83933 0.46581 0.10528 0.0
C1677 C 0.83359 0.50305 0.06274 0.0
C1678 C 0.82552 0.4873 0.12577 0.0
C1679 C 0.81493 0.51587 0.11485 0.0
H1680 H 0.70202 0.58063 0.26059 0.0
H1681 H 0.68654 0.50437 0.32431 0.0
H1682 H 0.73695 0.51558 0.34979 0.0
H1683 H 0.78415 0.54868 0.35504 0.0
H1684 H 0.80176 0.62204 0.28862 0.0
H1685 H 0.75159 0.61041 0.2626 0.0
C1686 C 0.70987 0.5665 0.28 0.0
C1687 C 0.69081 0.54209 0.29105 0.0
C1688 C 0.739 0.5726 0.29385 0.0
C1689 C 0.70109 0.52335 0.31569 0.0
C1690 C 0.72973 0.52979 0.33022 0.0
C1691 C 0.77689 0.56189 0.33474 0.0
C1692 C 0.79589 0.5863 0.3237 0.0
C1693 C 0.74865 0.55457 0.31969 0.0
C1694 C 0.78705 0.60318 0.29726 0.0
C1695 C 0.75851 0.5966 0.28256 0.0
H1696 H 0.67083 0.43048 0.56082 0.0
H1697 H 0.76265 0.45703 0.59517 0.0
H1698 H 0.74214 0.5056 0.61597 0.0
H1699 H 0.69972 0.54269 0.61965 0.0
H1700 H 0.60788 0.51803 0.58501 0.0
H1701 H 0.62656 0.46607 0.56946 0.0
C1702 C 0.68621 0.44676 0.57318 0.0
C1703 C 0.71828 0.44041 0.57609 0.0
C1704 C 0.67428 0.47484 0.58496 0.0
C1705 C 0.73794 0.46151 0.59239 0.0
C1706 C 0.72627 0.48929 0.60429 0.0
C1707 C 0.68371 0.52562 0.6092 0.0
C1708 C 0.65267 0.53377 0.60323 0.0
C1709 C 0.69473 0.49646 0.60002 0.0
C1710 C 0.63188 0.51185 0.58986 0.0
C1711 C 0.64264 0.4824 0.5808 0.0
H1712 H 0.72103 0.82646 0.58004 0.0
H1713 H 0.74995 0.7844 0.4931 0.0
H1714 H 0.72223 0.73607 0.50663 0.0
H1715 H 0.69023 0.70598 0.54306 0.0
H1716 H 0.66 0.74828 0.62938 0.0
H1717 H 0.68796 0.79665 0.61603 0.0
C1718 C 0.72142 0.80668 0.56408 0.0
C1719 C 0.7377 0.80893 0.53569 0.0
C1720 C 0.70522 0.77917 0.57184 0.0
C1721 C 0.73757 0.78327 0.51508 0.0
C1722 C 0.72179 0.75564 0.52281 0.0
C1723 C 0.68977 0.72573 0.55905 0.0
C1724 C 0.67319 0.72354 0.58725 0.0
C1725 C 0.7056 0.75337 0.55113 0.0
C1726 C 0.67256 0.74944 0.60751 0.0
C1727 C 0.68858 0.77703 0.59992 0.0
H1728 H 0.15062 0.70918 0.4875 0.0
H1729 H 0.24436 0.71088 0.45141 0.0
H1730 H 0.2304 0.75218 0.41467 0.0
H1731 H 0.19238 0.79075 0.39612 0.0
H1732 H 0.09758 0.78596 0.43003 0.0
H1733 H 0.11083 0.7426 0.46373 0.0
C1734 C 0.16776 0.71848 0.4713 0.0
C1735 C 0.19842 0.70759 0.47215 0.0
C1736 C 0.15937 0.74155 0.44984 0.0
C1737 C 0.22056 0.71921 0.45096 0.0
C1738 C 0.21263 0.74278 0.43007 0.0
C1739 C 0.17454 0.77978 0.41044 0.0
C1740 C 0.14422 0.79186 0.41081 0.0
C1741 C 0.18222 0.75453 0.4297 0.0
C1742 C 0.12118 0.77722 0.42926 0.0
C1743 C 0.12875 0.7525 0.44878 0.0
H1744 H 0.57216 0.97604 0.66944 0.0
H1745 H 0.5747 0.90039 0.7357 0.0
H1746 H 0.52735 0.87747 0.71192 0.0
H1747 H 0.4844 0.88047 0.67381 0.0
H1748 H 0.479 0.95934 0.61183 0.0
H1749 H 0.52854 0.98019 0.63303 0.0
C1750 C 0.56242 0.95458 0.67884 0.0
C1751 C 0.57678 0.93996 0.7044 0.0
C1752 C 0.53474 0.94242 0.66598 0.0
C1753 C 0.56398 0.91202 0.71605 0.0
C1754 C 0.53694 0.89903 0.70255 0.0
C1755 C 0.4943 0.90212 0.66483 0.0
C1756 C 0.47866 0.91834 0.64112 0.0
C1757 C 0.52202 0.91424 0.67774 0.0
C1758 C 0.49097 0.94663 0.63004 0.0
C1759 C 0.51916 0.9584 0.64208 0.0
H1760 H 0.32627 0.31481 0.94482 0.0
H1761 H 0.2339 0.28781 0.91322 0.0
H1762 H 0.25525 0.24125 0.8876 0.0
H1763 H 0.2996 0.20573 0.87965 0.0
H1764 H 0.39175 0.23408 0.91183 0.0
H1765 H 0.37105 0.283 0.93145 0.0
C1766 C 0.31087 0.29889 0.93198 0.0
C1767 C 0.2786 0.30423 0.9312 0.0
C1768 C 0.32325 0.27246 0.91762 0.0
C1769 C 0.25885 0.28396 0.91409 0.0
C1770 C 0.27104 0.25734 0.89966 0.0
C1771 C 0.31522 0.22281 0.89058 0.0
C1772 C 0.3471 0.21597 0.89474 0.0
C1773 C 0.30311 0.25093 0.90207 0.0
C1774 C 0.3671 0.23855 0.9085 0.0
C1775 C 0.35528 0.26652 0.91986 0.0
H1776 H 0.42935 0.565 0.64346 0.0
H1777 H 0.45926 0.54222 0.73714 0.0
H1778 H 0.51 0.56669 0.72755 0.0
H1779 H 0.54648 0.59223 0.69216 0.0
H1780 H 0.51727 0.61555 0.59856 0.0
H1781 H 0.46534 0.5931 0.60867 0.0
C1782 C 0.44689 0.56548 0.66186 0.0
C1783 C 0.44054 0.55156 0.6909 0.0
C1784 C 0.4761 0.57949 0.65619 0.0
C1785 C 0.46347 0.55271 0.71455 0.0
C1786 C 0.49255 0.5666 0.70908 0.0
C1787 C 0.5288 0.59239 0.6739 0.0
C1788 C 0.53575 0.60517 0.64454 0.0
C1789 C 0.49921 0.57964 0.67989 0.0
C1790 C 0.51244 0.60574 0.62133 0.0
C1791 C 0.48283 0.59288 0.62708 0.0
H1792 H 0.76153 0.19122 0.07445 0.0
H1793 H 0.83268 0.18546 0.00374 0.0
H1794 H 0.86018 0.23059 0.02714 0.0
H1795 H 0.86274 0.27243 0.06687 0.0
H1796 H 0.78834 0.28091 0.13375 0.0
H1797 H 0.76322 0.23336 0.11287 0.0
C1798 C 0.78306 0.19976 0.06414 0.0
C1799 C 0.79516 0.18513 0.0375 0.0
C1800 C 0.7981 0.22596 0.07715 0.0
C1801 C 0.82295 0.19654 0.02424 0.0
C1802 C 0.83867 0.22221 0.03764 0.0
C1803 C 0.84122 0.26354 0.07701 0.0
C1804 C 0.8274 0.2796 0.10192 0.0
C1805 C 0.82634 0.23714 0.06402 0.0
C1806 C 0.79927 0.26855 0.11464 0.0
C1807 C 0.78495 0.24156 0.10267 0.0
H1808 H 0.57116 0.0541 0.80591 0.0
H1809 H 0.51363 0.98126 0.76444 0.0
H1810 H 0.47013 0.99539 0.79818 0.0
H1811 H 0.44645 0.0331 0.83307 0.0
H1812 H 0.50154 0.11039 0.86991 0.0
H1813 H 0.54821 0.08958 0.84505 0.0
C1814 C 0.54928 0.04097 0.80495 0.0
C1815 C 0.5453 0.01681 0.78291 0.0
C1816 C 0.52394 0.05022 0.82336 0.0
C1817 C 0.5169 6e-05 0.78128 0.0
C1818 C 0.49211 0.00815 0.80048 0.0
C1819 C 0.46877 0.04507 0.83635 0.0
C1820 C 0.47043 0.07346 0.85303 0.0
C1821 C 0.49501 0.03391 0.82073 0.0
C1822 C 0.4996 0.0886 0.85698 0.0
C1823 C 0.52625 0.07682 0.84261 0.0
H1824 H 0.96007 0.00991 0.31078 0.0
H1825 H 0.90606 0.92651 0.3299 0.0
H1826 H 0.95157 0.9026 0.35431 0.0
H1827 H 0.00774 0.90274 0.36319 0.0
H1828 H 0.06355 0.9842 0.34013 0.0
H1829 H 0.01632 0.01186 0.32466 0.0
C1830 C 0.95826 0.98692 0.32124 0.0
C1831 C 0.93003 0.96993 0.31909 0.0
C1832 C 0.98489 0.97287 0.33394 0.0
C1833 C 0.9277 0.93991 0.3318 0.0
C1834 C 0.9537 0.92622 0.34547 0.0
C1835 C 0.00964 0.92668 0.35511 0.0
C1836 C 0.03918 0.94115 0.35222 0.0
C1837 C 0.98263 0.94203 0.34556 0.0
C1838 C 0.04111 0.97238 0.34225 0.0
C1839 C 0.01412 0.98818 0.33334 0.0
H1840 H 0.44818 0.31357 0.19241 0.0
H1841 H 0.42255 0.22172 0.22566 0.0
H1842 H 0.39761 0.24491 0.27127 0.0
H1843 H 0.38582 0.29096 0.303 0.0
H1844 H 0.4111 0.38297 0.26973 0.0
H1845 H 0.43279 0.36001 0.22237 0.0
C1846 C 0.4371 0.29866 0.20965 0.0
C1847 C 0.43752 0.266 0.20595 0.0
C1848 C 0.42256 0.31215 0.23562 0.0
C1849 C 0.42265 0.24694 0.22812 0.0
C1850 C 0.40837 0.26017 0.25416 0.0
C1851 C 0.39575 0.30605 0.28524 0.0
C1852 C 0.39712 0.3386 0.29007 0.0
C1853 C 0.40852 0.29271 0.25831 0.0
C1854 C 0.40973 0.35783 0.26664 0.0
C1855 C 0.42237 0.34471 0.23965 0.0
H1856 H 0.50399 0.666 0.95276 0.0
H1857 H 0.42668 0.71857 0.91635 0.0
H1858 H 0.39085 0.69097 0.95103 0.0
H1859 H 0.38318 0.65825 0.99749 0.0
H1860 H 0.46095 0.60688 0.03453 0.0
H1861 H 0.49463 0.62705 0.99336 0.0
C1862 C 0.47923 0.67107 0.95207 0.0
C1863 C 0.46817 0.69474 0.93253 0.0
C1864 C 0.45878 0.65537 0.97228 0.0
C1865 C 0.43591 0.70062 0.93142 0.0
C1866 C 0.41535 0.68491 0.95132 0.0
C1867 C 0.40722 0.65072 0.99592 0.0
C1868 C 0.41975 0.63163 0.01927 0.0
C1869 C 0.42674 0.66311 0.97268 0.0
C1870 C 0.45094 0.62199 0.017 0.0
C1871 C 0.47026 0.63362 0.99359 0.0
H1872 H 0.06194 0.6673 0.66054 0.0
H1873 H 0.0414 0.75804 0.69954 0.0
H1874 H 0.06486 0.7428 0.74919 0.0
H1875 H 0.08545 0.70173 0.78304 0.0
H1876 H 0.10302 0.61022 0.74437 0.0
H1877 H 0.0865 0.62795 0.69292 0.0
C1878 C 0.06287 0.68399 0.67971 0.0
C1879 C 0.04947 0.71363 0.67638 0.0
C1880 C 0.07556 0.67483 0.70836 0.0
C1881 C 0.05132 0.73498 0.70145 0.0
C1882 C 0.06461 0.72624 0.72992 0.0
C1883 C 0.08605 0.68576 0.76329 0.0
C1884 C 0.09497 0.65455 0.76763 0.0
C1885 C 0.0759 0.6959 0.73389 0.0
C1886 C 0.09581 0.63423 0.74175 0.0
C1887 C 0.0864 0.64435 0.71232 0.0
H1888 H 0.99287 0.32487 0.46721 0.0
H1889 H 0.08245 0.3045 0.42656 0.0
H1890 H 0.10906 0.33176 0.46931 0.0
H1891 H 0.10716 0.35583 0.52076 0.0
H1892 H 0.01806 0.3735 0.56369 0.0
H1893 H 0.99097 0.35365 0.51709 0.0
C1894 C 0.01818 0.32672 0.46763 0.0
C1895 C 0.03571 0.31232 0.44417 0.0
C1896 C 0.03342 0.34198 0.4926 0.0
C1897 C 0.06847 0.31501 0.44471 0.0
C1898 C 0.08374 0.33069 0.46905 0.0
C1899 C 0.08182 0.35598 0.51973 0.0
C1900 C 0.06464 0.36562 0.54576 0.0
C1901 C 0.06647 0.34349 0.4935 0.0
C1902 C 0.03181 0.3658 0.544 0.0
C1903 C 0.0163 0.35431 0.51747 0.0
H1904 H 0.43988 0.67273 0.3078 0.0
H1905 H 0.45735 0.76237 0.26517 0.0
H1906 H 0.43373 0.74336 0.21624 0.0
H1907 H 0.41136 0.70008 0.18502 0.0
H1908 H 0.39398 0.61063 0.22857 0.0
H1909 H 0.41391 0.63107 0.27807 0.0
C1910 C 0.43845 0.68812 0.2878 0.0
C1911 C 0.4506 0.71866 0.28974 0.0
C1912 C 0.4248 0.67714 0.26007 0.0
C1913 C 0.4482 0.73864 0.26399 0.0
C1914 C 0.43474 0.7278 0.2361 0.0
C1915 C 0.41159 0.68516 0.20541 0.0
C1916 C 0.40167 0.65375 0.20298 0.0
C1917 C 0.42338 0.69693 0.23378 0.0
C1918 C 0.40182 0.63481 0.2297 0.0
C1919 C 0.41328 0.64641 0.25801 0.0
H1920 H 0.03057 0.69073 0.04355 0.0
H1921 H 0.12486 0.69122 0.08032 0.0
H1922 H 0.14366 0.66867 0.03172 0.0
H1923 H 0.13399 0.6519 0.97784 0.0
H1924 H 0.03986 0.65181 0.94074 0.0
H1925 H 0.0204 0.67078 0.99068 0.0
C1926 C 0.05522 0.68581 0.04103 0.0
C1927 C 0.07626 0.69299 0.06549 0.0
C1928 C 0.06596 0.67291 0.01299 0.0
C1929 C 0.10809 0.6861 0.06187 0.0
C1930 C 0.11892 0.6732 0.03406 0.0
C1931 C 0.10916 0.65573 0.98071 0.0
C1932 C 0.08851 0.6508 0.95546 0.0
C1933 C 0.09814 0.66695 0.00933 0.0
C1934 C 0.05637 0.65565 0.95972 0.0
C1935 C 0.04519 0.66658 0.98825 0.0
H1936 H 0.06811 0.23647 0.78727 0.0
H1937 H 0.02635 0.31204 0.83873 0.0
H1938 H 0.04968 0.34993 0.80309 0.0
H1939 H 0.07523 0.3607 0.75292 0.0
H1940 H 0.11527 0.28458 0.70087 0.0
H1941 H 0.09981 0.24792 0.74147 0.0
C1942 C 0.06444 0.26125 0.79095 0.0
C1943 C 0.04502 0.27136 0.81515 0.0
C1944 C 0.07751 0.28284 0.77018 0.0
C1945 C 0.04101 0.3036 0.82005 0.0
C1946 C 0.05425 0.32531 0.79963 0.0
C1947 C 0.08127 0.33623 0.7509 0.0
C1948 C 0.09577 0.32521 0.72376 0.0
C1949 C 0.0716 0.3151 0.77396 0.0
C1950 C 0.10359 0.29348 0.7214 0.0
C1951 C 0.09471 0.27249 0.74453 0.0
H1952 H 0.49722 0.32643 0.55088 0.0
H1953 H 0.42741 0.25663 0.57402 0.0
H1954 H 0.39298 0.27637 0.53301 0.0
H1955 H 0.38383 0.31223 0.48888 0.0
H1956 H 0.45509 0.38015 0.46498 0.0
H1957 H 0.48761 0.36289 0.50847 0.0
C1958 C 0.47449 0.31548 0.54697 0.0
C1959 C 0.46498 0.28998 0.56529 0.0
C1960 C 0.45493 0.32691 0.52347 0.0
C1961 C 0.43537 0.27619 0.56005 0.0
C1962 C 0.41561 0.28755 0.53672 0.0
C1963 C 0.40617 0.32363 0.49377 0.0
C1964 C 0.41706 0.34757 0.47415 0.0
C1965 C 0.42521 0.31283 0.51818 0.0
C1966 C 0.4463 0.36178 0.48005 0.0
C1967 C 0.46494 0.35179 0.50471 0.0
H1968 H 0.18642 0.45899 0.32088 0.0
H1969 H 0.21873 0.43175 0.22957 0.0
H1970 H 0.26338 0.40554 0.25333 0.0
H1971 H 0.29424 0.39251 0.29991 0.0
H1972 H 0.26102 0.41872 0.39128 0.0
H1973 H 0.21522 0.44264 0.36762 0.0
C1974 C 0.2033 0.44737 0.30618 0.0
C1975 C 0.19964 0.44766 0.27352 0.0
C1976 C 0.22849 0.43195 0.32002 0.0
C1977 C 0.22124 0.43199 0.25477 0.0
C1978 C 0.24669 0.41698 0.26834 0.0
C1979 C 0.2768 0.40315 0.31468 0.0
C1980 C 0.28115 0.40401 0.3473 0.0
C1981 C 0.25066 0.41705 0.30092 0.0
C1982 C 0.2582 0.41761 0.36614 0.0
C1983 C 0.23214 0.43154 0.3526 0.0
H1984 H 0.30687 0.41732 0.05307 0.0
H1985 H 0.30384 0.45615 0.96036 0.0
H1986 H 0.32682 0.50526 0.98014 0.0
H1987 H 0.34298 0.53827 0.02473 0.0
H1988 H 0.34458 0.49884 0.11746 0.0
H1989 H 0.32707 0.44854 0.09654 0.0
C1990 C 0.3115 0.43645 0.03714 0.0
C1991 C 0.30341 0.43347 0.00549 0.0
C1992 C 0.32423 0.46444 0.04868 0.0
C1993 C 0.30988 0.45811 0.98491 0.0
C1994 C 0.32285 0.48615 0.99622 0.0
C1995 C 0.33979 0.5186 0.04032 0.0
C1996 C 0.34452 0.52243 0.07265 0.0
C1997 C 0.32939 0.48978 0.02821 0.0
C1998 C 0.34067 0.49663 0.09251 0.0
C1999 C 0.33067 0.46785 0.08061 0.0
H2000 H 0.31208 0.55599 0.78578 0.0
H2001 H 0.26216 0.55553 0.69773 0.0
H2002 H 0.21709 0.5786 0.72292 0.0
H2003 H 0.19023 0.59472 0.77051 0.0
H2004 H 0.23961 0.59446 0.85879 0.0
H2005 H 0.28657 0.57624 0.83274 0.0
C2006 C 0.2915 0.56122 0.77198 0.0
C2007 C 0.29052 0.55366 0.73993 0.0
C2008 C 0.26545 0.57425 0.78665 0.0
C2009 C 0.26364 0.56089 0.72246 0.0
C2010 C 0.23775 0.57404 0.73685 0.0
C2011 C 0.21133 0.59097 0.78407 0.0
C2012 C 0.2112 0.59556 0.81663 0.0
C2013 C 0.23815 0.58016 0.76904 0.0
C2014 C 0.23892 0.59095 0.83372 0.0
C2015 C 0.2658 0.58042 0.81886 0.0
H2016 H 0.1669 0.58456 0.59732 0.0
H2017 H 0.18254 0.54736 0.50473 0.0
H2018 H 0.15817 0.49782 0.51998 0.0
H2019 H 0.13765 0.46372 0.56085 0.0
H2020 H 0.12545 0.49985 0.65437 0.0
H2021 H 0.143 0.55154 0.6372 0.0
C2022 C 0.16467 0.56583 0.58024 0.0
C2023 C 0.17686 0.56965 0.54995 0.0
C2024 C 0.15144 0.5372 0.58938 0.0
C2025 C 0.1736 0.54505 0.52823 0.0
C2026 C 0.15971 0.51668 0.53696 0.0
C2027 C 0.13839 0.48294 0.57748 0.0
C2028 C 0.13057 0.47781 0.60899 0.0
C2029 C 0.14934 0.51228 0.56769 0.0
C2030 C 0.13157 0.50308 0.63007 0.0
C2031 C 0.14168 0.53261 0.62028 0.0
H2032 H 0.2004 0.55848 0.21991 0.0
H2033 H 0.15816 0.54328 0.12908 0.0
H2034 H 0.2026 0.56863 0.10419 0.0
H2035 H 0.25563 0.59032 0.10767 0.0
H2036 H 0.29821 0.60562 0.19829 0.0
H2037 H 0.25122 0.58575 0.22366 0.0
C2038 C 0.20087 0.56091 0.19471 0.0
C2039 C 0.17623 0.54862 0.17645 0.0
C2040 C 0.22652 0.57561 0.1804 0.0
C2041 C 0.1769 0.5524 0.14379 0.0
C2042 C 0.20232 0.56689 0.12944 0.0
C2043 C 0.25443 0.5899 0.13296 0.0
C2044 C 0.28059 0.59883 0.15097 0.0
C2045 C 0.22755 0.57797 0.14746 0.0
C2046 C 0.27852 0.59842 0.18379 0.0
C2047 C 0.25171 0.58693 0.19838 0.0
H2048 H 0.19108 0.43102 0.93464 0.0
H2049 H 0.18695 0.47831 0.02396 0.0
H2050 H 0.16257 0.52298 -0.0005 0.0
H2051 H 0.14707 0.55079 0.95229 0.0
H2052 H 0.15162 0.50421 0.86273 0.0
H2053 H 0.17073 0.45711 0.88788 0.0
C2054 C 0.18442 0.45086 0.94886 0.0
C2055 C 0.19129 0.45133 0.98105 0.0
C2056 C 0.17065 0.47681 0.9346 0.0
C2057 C 0.18232 0.4773 -0.00093 0.0
C2058 C 0.16837 0.50298 0.98511 0.0
C2059 C 0.15193 0.53025 0.93827 0.0
C2060 C 0.14833 0.53125 0.90564 0.0
C2061 C 0.16321 0.50333 0.9528 0.0
C2062 C 0.15435 0.50422 0.8879 0.0
C2063 C 0.16539 0.47726 0.90224 0.0
H2064 H 0.29053 0.4295 0.74554 0.0
H2065 H 0.32621 0.45746 0.65567 0.0
H2066 H 0.27911 0.43678 0.63013 0.0
H2067 H 0.22599 0.41525 0.63392 0.0
H2068 H 0.18975 0.38855 0.72404 0.0
H2069 H 0.23911 0.40386 0.74879 0.0
C2070 C 0.28812 0.43075 0.72034 0.0
C2071 C 0.31154 0.4453 0.70256 0.0
C2072 C 0.26087 0.41916 0.70585 0.0
C2073 C 0.3083 0.44659 0.66991 0.0
C2074 C 0.28139 0.43479 0.65527 0.0
C2075 C 0.22901 0.41237 0.65891 0.0
C2076 C 0.20408 0.40124 0.67713 0.0
C2077 C 0.25723 0.4217 0.6731 0.0
C2078 C 0.20846 0.39745 0.70948 0.0
C2079 C 0.23666 0.40623 0.7237 0.0
H2080 H 0.30985 0.5408 0.50506 0.0
H2081 H 0.2685 0.57216 0.4187 0.0
H2082 H 0.29456 0.53086 0.39011 0.0
H2083 H 0.32676 0.48431 0.38971 0.0
H2084 H 0.36643 0.45078 0.47589 0.0
H2085 H 0.34388 0.49473 0.5043 0.0
C2086 C 0.30662 0.53859 0.47999 0.0
C2087 C 0.28709 0.55941 0.46412 0.0
C2088 C 0.32156 0.51454 0.46357 0.0
C2089 C 0.28322 0.55632 0.43159 0.0
C2090 C 0.29821 0.53277 0.41513 0.0
C2091 C 0.33102 0.48693 0.4146 0.0
C2092 C 0.34832 0.46441 0.43065 0.0
C2093 C 0.31722 0.51161 0.43089 0.0
C2094 C 0.35318 0.46788 0.46301 0.0
C2095 C 0.34017 0.49289 0.47929 0.0
H2096 H 0.29728 0.18898 0.46165 0.0
H2097 H 0.20901 0.23291 0.44234 0.0
H2098 H 0.23575 0.27303 0.41196 0.0
H2099 H 0.28432 0.29923 0.39682 0.0
H2100 H 0.37294 0.25731 0.41844 0.0
H2101 H 0.34577 0.21233 0.44127 0.0
C2102 C 0.28377 0.20702 0.45041 0.0
C2103 C 0.25119 0.20817 0.45478 0.0
C2104 C 0.29936 0.23045 0.43347 0.0
C2105 C 0.23413 0.23163 0.43978 0.0
C2106 C 0.2494 0.25463 0.42238 0.0
C2107 C 0.29775 0.28004 0.40609 0.0
C2108 C 0.33061 0.28188 0.40644 0.0
C2109 C 0.28205 0.25483 0.41999 0.0
C2110 C 0.34763 0.25657 0.41801 0.0
C2111 C 0.3321 0.23095 0.4313 0.0
H2112 H 0.76939 0.30301 0.59595 0.0
H2113 H 0.84252 0.32474 0.53018 0.0
H2114 H 0.87352 0.28163 0.55027 0.0
H2115 H 0.87703 0.23446 0.58262 0.0
H2116 H 0.80219 0.2114 0.64589 0.0
H2117 H 0.77488 0.25889 0.63122 0.0
C2118 C 0.79222 0.29848 0.58615 0.0
C2119 C 0.80348 0.31665 0.56135 0.0
C2120 C 0.80963 0.27356 0.5975 0.0
C2121 C 0.83324 0.3108 0.54913 0.0
C2122 C 0.85098 0.28622 0.56061 0.0
C2123 C 0.85518 0.24038 0.59378 0.0
C2124 C 0.8415 0.21969 0.61522 0.0
C2125 C 0.83907 0.26702 0.58432 0.0
C2126 C 0.81299 0.22715 0.62926 0.0
C2127 C 0.79733 0.25411 0.62075 0.0
H2128 H 0.45762 0.01255 0.30304 0.0
H2129 H 0.40404 0.08954 0.33893 0.0
H2130 H 0.44912 0.1081 0.36894 0.0
H2131 H 0.50534 0.10678 0.37907 0.0
H2132 H 0.55954 0.03079 0.34235 0.0
H2133 H 0.51245 0.00728 0.3192 0.0
C2134 C 0.45558 0.03306 0.31785 0.0
C2135 C 0.4276 0.04995 0.31812 0.0
C2136 C 0.48179 0.04398 0.33477 0.0
C2137 C 0.42537 0.07629 0.33779 0.0
C2138 C 0.45118 0.08701 0.35499 0.0
C2139 C 0.50679 0.08479 0.36645 0.0
C2140 C 0.53599 0.07094 0.36191 0.0
C2141 C 0.47978 0.07172 0.35271 0.0
C2142 C 0.53739 0.04214 0.346 0.0
C2143 C 0.51049 0.02874 0.33257 0.0
H2144 H 0.6957 0.67059 0.07254 0.0
H2145 H 0.78503 0.71714 0.0618 0.0
H2146 H 0.76406 0.76472 0.08558 0.0
H2147 H 0.71838 0.7944 0.10278 0.0
H2148 H 0.62883 0.74721 0.11155 0.0
H2149 H 0.65209 0.69815 0.0955 0.0
C2150 C 0.71069 0.69106 0.07578 0.0
C2151 C 0.74158 0.69081 0.06507 0.0
C2152 C 0.69839 0.71811 0.08886 0.0
C2153 C 0.76108 0.71705 0.06985 0.0
C2154 C 0.74905 0.7442 0.08324 0.0
C2155 C 0.70404 0.7733 0.10163 0.0
C2156 C 0.67176 0.77459 0.10762 0.0
C2157 C 0.71743 0.74525 0.09184 0.0
C2158 C 0.65361 0.74697 0.10652 0.0
C2159 C 0.66686 0.71891 0.09733 0.0
H2160 H 0.56078 0.44566 0.30597 0.0
H2161 H 0.52002 0.53559 0.3249 0.0
H2162 H 0.47801 0.51026 0.3539 0.0
H2163 H 0.44989 0.46262 0.36874 0.0
H2164 H 0.48919 0.37251 0.34803 0.0
H2165 H 0.53513 0.39806 0.32546 0.0
C2166 C 0.54294 0.45982 0.31672 0.0
C2167 C 0.54335 0.49248 0.31277 0.0
C2168 C 0.51853 0.44509 0.33299 0.0
C2169 C 0.52017 0.51039 0.32721 0.0
C2170 C 0.49608 0.49594 0.34382 0.0
C2171 C 0.46867 0.4485 0.35967 0.0
C2172 C 0.46583 0.4157 0.35957 0.0
C2173 C 0.49458 0.46329 0.34606 0.0
C2174 C 0.49064 0.39781 0.3482 0.0
C2175 C 0.51685 0.4124 0.33512 0.0
H2176 H 0.16868 0.82589 0.91059 0.0
H2177 H 0.24782 0.78733 0.95927 0.0
H2178 H 0.23848 0.73698 0.93371 0.0
H2179 H 0.20348 0.70202 0.90329 0.0
H2180 H 0.12326 0.74039 0.85651 0.0
H2181 H 0.13776 0.79264 0.87508 0.0
C2182 C 0.18419 0.80664 0.91531 0.0
C2183 C 0.20856 0.81037 0.93725 0.0
C2184 C 0.17843 0.77754 0.90093 0.0
C2185 C 0.22867 0.78518 0.94269 0.0
C2186 C 0.22332 0.75626 0.92814 0.0
C2187 C 0.1897 0.72195 0.89647 0.0
C2188 C 0.16216 0.71733 0.87888 0.0
C2189 C 0.19766 0.75189 0.908 0.0
C2190 C 0.14441 0.74336 0.87033 0.0
C2191 C 0.1526 0.77322 0.88104 0.0
H2192 H 0.43866 0.92503 0.20689 0.0
H2193 H 0.47695 0.01779 0.19298 0.0
H2194 H 0.52199 0.99587 0.16634 0.0
H2195 H 0.5512 0.9505 0.14882 0.0
H2196 H 0.51312 0.85754 0.16261 0.0
H2197 H 0.46677 0.87955 0.18679 0.0
C2198 C 0.45694 0.94041 0.19813 0.0
C2199 C 0.45474 0.97291 0.20218 0.0
C2200 C 0.48254 0.92768 0.18252 0.0
C2201 C 0.47827 0.99265 0.19028 0.0
C2202 C 0.50395 0.98016 0.17498 0.0
C2203 C 0.53265 0.93499 0.15681 0.0
C2204 C 0.53578 0.9024 0.15415 0.0
C2205 C 0.50638 0.94772 0.17113 0.0
C2206 C 0.51135 0.88272 0.16438 0.0
C2207 C 0.48494 0.89526 0.17843 0.0
H2208 H 0.04031 0.99455 0.66168 0.0
H2209 H 0.09068 0.08075 0.6811 0.0
H2210 H 0.04685 0.11085 0.66215 0.0
H2211 H 0.99251 0.11293 0.64587 0.0
H2212 H 0.94033 0.02728 0.62883 0.0
H2213 H 0.9867 0.9968 0.64039 0.0
C2214 C 0.04171 0.01988 0.6613 0.0
C2215 C 0.0683 0.03545 0.67317 0.0
C2216 C 0.01611 0.03718 0.65095 0.0
C2217 C 0.0701 0.06828 0.67253 0.0
C2218 C 0.04513 0.08555 0.66163 0.0
C2219 C 0.99135 0.08762 0.64419 0.0
C2220 C 0.96295 0.07241 0.63713 0.0
C2221 C 0.01772 0.07027 0.65167 0.0
C2222 C 0.96191 0.03958 0.63472 0.0
C2223 C 0.98836 0.0221 0.64139 0.0
loop_
_geom_bond_atom_site_label_1
_geom_bond_atom_site_label_2
_geom_bond_distance
_geom_bond_site_symmetry_2
_ccdc_geom_bond_type
Co0 O1 2.216 1_655 S
Co0 O2 2.091 . S
Co0 O4 2.004 . S
Co0 O10 2.021 1_655 S
Co0 O12 2.140 . S
Co0 O13 2.244 1_655 S
O1 Co0 2.216 1_455 S
O1 C8 1.247 1_455 S
O2 Co0 2.091 . S
O2 C8 1.261 . S
C3 O12 1.227 1_455 S
C3 O13 1.272 . S
O4 Co0 2.004 . S
O4 C9 1.259 . S
Co5 O6 2.061 . S
Co5 O11 2.052 . S
Co5 O13 2.135 . S
O6 Co5 2.061 . S
O6 C9 1.235 1_455 S
C7 O10 1.238 . S
C7 O11 1.241 . S
C8 O1 1.247 1_655 S
C8 O2 1.261 . S
C9 O4 1.259 . S
C9 O6 1.235 1_655 S
O10 Co0 2.021 1_455 S
O10 C7 1.238 . S
O11 Co5 2.052 . S
O11 C7 1.241 . S
O12 Co0 2.140 . S
O12 C3 1.227 1_655 S
O13 Co0 2.244 1_455 S
O13 C3 1.272 . S
O13 Co5 2.135 . S
Co14 O15 2.216 . S
Co14 O16 2.091 . S
Co14 O18 2.004 1_655 S
Co14 O24 2.021 1_655 S
Co14 O26 2.137 . S
Co14 O27 2.244 . S
O15 Co14 2.216 . S
O15 C22 1.247 . S
O16 Co14 2.091 . S
O16 C22 1.261 . S
C17 O26 1.247 . S
C17 O27 1.272 . S
O18 Co14 2.004 1_455 S
O18 C23 1.259 . S
Co19 O20 2.061 . S
Co19 O25 2.052 . S
Co19 O27 2.135 1_455 S
O20 Co19 2.061 . S
O20 C23 1.235 . S
C21 O24 1.238 . S
C21 O25 1.241 . S
C22 O15 1.247 . S
C22 O16 1.261 . S
C23 O18 1.259 . S
C23 O20 1.235 . S
O24 Co14 2.021 1_455 S
O24 C21 1.238 . S
O25 Co19 2.052 . S
O25 C21 1.241 . S
O26 Co14 2.137 . S
O26 C17 1.247 . S
O27 Co14 2.244 . S
O27 C17 1.272 . S
O27 Co19 2.135 1_655 S
Co28 O29 2.216 . S
Co28 O30 2.091 . S
Co28 O32 2.004 . S
Co28 O38 2.021 . S
Co28 O40 2.137 . S
Co28 O41 2.244 . S
O29 Co28 2.216 . S
O29 C36 1.247 . S
O30 Co28 2.091 . S
O30 C36 1.261 . S
C31 O40 1.247 . S
C31 O41 1.272 . S
O32 Co28 2.004 . S
O32 C37 1.259 . S
Co33 O34 2.061 . S
Co33 O39 2.052 . S
Co33 O41 2.135 . S
O34 Co33 2.061 . S
O34 C37 1.235 . S
C35 O38 1.238 . S
C35 O39 1.241 . S
C36 O29 1.247 . S
C36 O30 1.261 . S
C37 O32 1.259 . S
C37 O34 1.235 . S
O38 Co28 2.021 . S
O38 C35 1.238 . S
O39 Co33 2.052 . S
O39 C35 1.241 . S
O40 Co28 2.137 . S
O40 C31 1.247 . S
O41 Co28 2.244 . S
O41 C31 1.272 . S
O41 Co33 2.135 . S
Co42 O43 2.216 . S
Co42 O44 2.091 . S
Co42 O46 2.004 . S
Co42 O52 2.021 . S
Co42 O54 2.137 . S
Co42 O55 2.244 . S
O43 Co42 2.216 . S
O43 C50 1.247 . S
O44 Co42 2.091 . S
O44 C50 1.261 . S
C45 O54 1.247 . S
C45 O55 1.272 . S
O46 Co42 2.004 . S
O46 C51 1.259 . S
Co47 O48 2.061 . S
Co47 O53 2.052 . S
Co47 O55 2.135 . S
O48 Co47 2.061 . S
O48 C51 1.235 . S
C49 O52 1.238 . S
C49 O53 1.241 . S
C50 O43 1.247 . S
C50 O44 1.261 . S
C51 O46 1.259 . S
C51 O48 1.235 . S
O52 Co42 2.021 . S
O52 C49 1.238 . S
O53 Co47 2.052 . S
O53 C49 1.241 . S
O54 Co42 2.137 . S
O54 C45 1.247 . S
O55 Co42 2.244 . S
O55 C45 1.272 . S
O55 Co47 2.135 . S
Co56 O57 2.216 1_655 S
Co56 O58 2.091 . S
Co56 O60 2.004 . S
Co56 O66 2.021 1_655 S
Co56 O68 2.137 . S
Co56 O69 2.244 1_655 S
O57 Co56 2.216 1_455 S
O57 C64 1.247 1_455 S
O58 Co56 2.091 . S
O58 C64 1.261 . S
C59 O68 1.247 1_455 S
C59 O69 1.272 . S
O60 Co56 2.004 . S
O60 C65 1.259 . S
Co61 O62 2.061 . S
Co61 O67 2.052 . S
Co61 O69 2.135 . S
O62 Co61 2.061 . S
O62 C65 1.235 1_455 S
C63 O66 1.238 . S
C63 O67 1.241 . S
C64 O57 1.247 1_655 S
C64 O58 1.261 . S
C65 O60 1.259 . S
C65 O62 1.235 1_655 S
O66 Co56 2.021 1_455 S
O66 C63 1.238 . S
O67 Co61 2.052 . S
O67 C63 1.241 . S
O68 Co56 2.137 . S
O68 C59 1.247 1_655 S
O69 Co56 2.244 1_455 S
O69 C59 1.272 . S
O69 Co61 2.135 . S
Co70 O71 2.216 . S
Co70 O72 2.091 . S
Co70 O74 2.004 . S
Co70 O80 2.021 . S
Co70 O82 2.137 . S
Co70 O83 2.244 . S
O71 Co70 2.216 . S
O71 C78 1.247 . S
O72 Co70 2.091 . S
O72 C78 1.261 . S
C73 O82 1.247 . S
C73 O83 1.272 . S
O74 Co70 2.004 . S
O74 C79 1.259 . S
Co75 O76 2.061 . S
Co75 O81 2.052 . S
Co75 O83 2.135 . S
O76 Co75 2.061 . S
O76 C79 1.235 . S
C77 O80 1.238 . S
C77 O81 1.241 . S
C78 O71 1.247 . S
C78 O72 1.261 . S
C79 O74 1.259 . S
C79 O76 1.235 . S
O80 Co70 2.021 . S
O80 C77 1.238 . S
O81 Co75 2.052 . S
O81 C77 1.241 . S
O82 Co70 2.137 . S
O82 C73 1.247 . S
O83 Co70 2.244 . S
O83 C73 1.272 . S
O83 Co75 2.135 . S
Co84 O85 2.216 . S
Co84 O86 2.091 . S
Co84 O88 2.004 . S
Co84 O94 2.021 . S
Co84 O96 2.137 . S
Co84 O97 2.244 . S
O85 Co84 2.216 . S
O85 C92 1.247 . S
O86 Co84 2.091 . S
O86 C92 1.261 . S
C87 O96 1.247 . S
C87 O97 1.272 . S
O88 Co84 2.004 . S
O88 C93 1.259 . S
Co89 O90 2.061 . S
Co89 O95 2.052 . S
Co89 O97 2.135 . S
O90 Co89 2.061 . S
O90 C93 1.235 . S
C91 O94 1.238 . S
C91 O95 1.241 . S
C92 O85 1.247 . S
C92 O86 1.261 . S
C93 O88 1.259 . S
C93 O90 1.235 . S
O94 Co84 2.021 . S
O94 C91 1.238 . S
O95 Co89 2.052 . S
O95 C91 1.241 . S
O96 Co84 2.137 . S
O96 C87 1.247 . S
O97 Co84 2.244 . S
O97 C87 1.272 . S
O97 Co89 2.135 . S
Co98 O99 2.216 . S
Co98 O100 2.091 . S
Co98 O102 2.004 1_655 S
Co98 O108 2.021 1_655 S
Co98 O110 2.137 . S
Co98 O111 2.244 . S
O99 Co98 2.216 . S
O99 C106 1.247 . S
O100 Co98 2.091 . S
O100 C106 1.261 . S
C101 O110 1.247 . S
C101 O111 1.272 . S
O102 Co98 2.004 1_455 S
O102 C107 1.259 . S
Co103 O104 2.061 . S
Co103 O109 2.052 . S
Co103 O111 2.135 1_455 S
O104 Co103 2.061 . S
O104 C107 1.235 . S
C105 O108 1.238 . S
C105 O109 1.241 . S
C106 O99 1.247 . S
C106 O100 1.261 . S
C107 O102 1.259 . S
C107 O104 1.235 . S
O108 Co98 2.021 1_455 S
O108 C105 1.238 . S
O109 Co103 2.052 . S
O109 C105 1.241 . S
O110 Co98 2.137 . S
O110 C101 1.247 . S
O111 Co98 2.244 . S
O111 C101 1.272 . S
O111 Co103 2.135 1_655 S
Co112 O113 2.216 1_565 S
Co112 O114 2.091 . S
Co112 O116 2.004 . S
Co112 O122 2.021 1_565 S
Co112 O124 2.137 . S
Co112 O125 2.244 1_565 S
O113 Co112 2.216 1_545 S
O113 C120 1.247 1_545 S
O114 Co112 2.091 . S
O114 C120 1.261 . S
C115 O124 1.247 1_545 S
C115 O125 1.272 . S
O116 Co112 2.004 . S
O116 C121 1.259 . S
Co117 O118 2.061 . S
Co117 O123 2.052 . S
Co117 O125 2.135 . S
O118 Co117 2.061 . S
O118 C121 1.235 1_545 S
C119 O122 1.238 . S
C119 O123 1.241 . S
C120 O113 1.247 1_565 S
C120 O114 1.261 . S
C121 O116 1.259 . S
C121 O118 1.235 1_565 S
O122 Co112 2.021 1_545 S
O122 C119 1.238 . S
O123 Co117 2.052 . S
O123 C119 1.241 . S
O124 Co112 2.137 . S
O124 C115 1.247 1_565 S
O125 Co112 2.244 1_545 S
O125 C115 1.272 . S
O125 Co117 2.135 . S
Co126 O127 2.216 . S
Co126 O128 2.091 . S
Co126 O130 2.004 . S
Co126 O136 2.021 . S
Co126 O138 2.137 . S
Co126 O139 2.244 . S
O127 Co126 2.216 . S
O127 C134 1.247 . S
O128 Co126 2.091 . S
O128 C134 1.261 . S
C129 O138 1.247 . S
C129 O139 1.272 . S
O130 Co126 2.004 . S
O130 C135 1.259 . S
Co131 O132 2.061 . S
Co131 O137 2.052 . S
Co131 O139 2.135 . S
O132 Co131 2.061 . S
O132 C135 1.235 . S
C133 O136 1.238 . S
C133 O137 1.241 . S
C134 O127 1.247 . S
C134 O128 1.261 . S
C135 O130 1.259 . S
C135 O132 1.235 . S
O136 Co126 2.021 . S
O136 C133 1.238 . S
O137 Co131 2.052 . S
O137 C133 1.241 . S
O138 Co126 2.137 . S
O138 C129 1.247 . S
O139 Co126 2.244 . S
O139 C129 1.272 . S
O139 Co131 2.135 . S
Co140 O141 2.216 1_565 S
Co140 O142 2.091 . S
Co140 O144 2.004 . S
Co140 O150 2.021 1_565 S
Co140 O152 2.137 . S
Co140 O153 2.244 1_565 S
O141 Co140 2.216 1_545 S
O141 C148 1.247 1_545 S
O142 Co140 2.091 . S
O142 C148 1.261 . S
C143 O152 1.247 1_545 S
C143 O153 1.272 . S
O144 Co140 2.004 . S
O144 C149 1.259 . S
Co145 O146 2.061 . S
Co145 O151 2.052 . S
Co145 O153 2.135 . S
O146 Co145 2.061 . S
O146 C149 1.235 1_545 S
C147 O150 1.238 . S
C147 O151 1.241 . S
C148 O141 1.247 1_565 S
C148 O142 1.261 . S
C149 O144 1.259 . S
C149 O146 1.235 1_565 S
O150 Co140 2.021 1_545 S
O150 C147 1.238 . S
O151 Co145 2.052 . S
O151 C147 1.241 . S
O152 Co140 2.137 . S
O152 C143 1.247 1_565 S
O153 Co140 2.244 1_545 S
O153 C143 1.272 . S
O153 Co145 2.135 . S
Co154 O155 2.216 . S
Co154 O156 2.091 . S
Co154 O158 2.004 1_554 S
Co154 O164 2.021 1_554 S
Co154 O166 2.137 . S
Co154 O167 2.244 . S
O155 Co154 2.216 . S
O155 C162 1.247 . S
O156 Co154 2.091 . S
O156 C162 1.261 . S
C157 O166 1.247 . S
C157 O167 1.272 . S
O158 Co154 2.004 1_556 S
O158 C163 1.259 . S
Co159 O160 2.061 . S
Co159 O165 2.052 . S
Co159 O167 2.135 1_556 S
O160 Co159 2.061 . S
O160 C163 1.235 . S
C161 O164 1.238 . S
C161 O165 1.241 . S
C162 O155 1.247 . S
C162 O156 1.261 . S
C163 O158 1.259 . S
C163 O160 1.235 . S
O164 Co154 2.021 1_556 S
O164 C161 1.238 . S
O165 Co159 2.052 . S
O165 C161 1.241 . S
O166 Co154 2.137 . S
O166 C157 1.247 . S
O167 Co154 2.244 . S
O167 C157 1.272 . S
O167 Co159 2.135 1_554 S
Co168 O169 2.216 1_556 S
Co168 O170 2.091 . S
Co168 O172 2.004 . S
Co168 O178 2.021 1_556 S
Co168 O180 2.137 . S
Co168 O181 2.244 1_556 S
O169 Co168 2.216 1_554 S
O169 C176 1.247 1_554 S
O170 Co168 2.091 . S
O170 C176 1.261 . S
C171 O180 1.247 1_554 S
C171 O181 1.272 . S
O172 Co168 2.004 . S
O172 C177 1.259 . S
Co173 O174 2.061 . S
Co173 O179 2.052 . S
Co173 O181 2.135 . S
O174 Co173 2.061 . S
O174 C177 1.235 1_554 S
C175 O178 1.238 . S
C175 O179 1.241 . S
C176 O169 1.247 1_556 S
C176 O170 1.261 . S
C177 O172 1.259 . S
C177 O174 1.235 1_556 S
O178 Co168 2.021 1_554 S
O178 C175 1.238 . S
O179 Co173 2.052 . S
O179 C175 1.241 . S
O180 Co168 2.137 . S
O180 C171 1.247 1_556 S
O181 Co168 2.244 1_554 S
O181 C171 1.272 . S
O181 Co173 2.135 . S
Co182 O183 2.216 1_556 S
Co182 O184 2.091 . S
Co182 O186 2.004 . S
Co182 O192 2.021 1_556 S
Co182 O194 2.137 . S
Co182 O195 2.244 1_556 S
O183 Co182 2.216 1_554 S
O183 C190 1.247 1_554 S
O184 Co182 2.091 . S
O184 C190 1.261 . S
C185 O194 1.247 1_554 S
C185 O195 1.272 . S
O186 Co182 2.004 . S
O186 C191 1.259 . S
Co187 O188 2.061 . S
Co187 O193 2.052 . S
Co187 O195 2.135 . S
O188 Co187 2.061 . S
O188 C191 1.235 1_554 S
C189 O192 1.238 . S
C189 O193 1.241 . S
C190 O183 1.247 1_556 S
C190 O184 1.261 . S
C191 O186 1.259 . S
C191 O188 1.235 1_556 S
O192 Co182 2.021 1_554 S
O192 C189 1.238 . S
O193 Co187 2.052 . S
O193 C189 1.241 . S
O194 Co182 2.137 . S
O194 C185 1.247 1_556 S
O195 Co182 2.244 1_554 S
O195 C185 1.272 . S
O195 Co187 2.135 . S
Co196 O197 2.216 . S
Co196 O198 2.091 . S
Co196 O200 2.004 . S
Co196 O206 2.021 . S
Co196 O208 2.137 . S
Co196 O209 2.244 . S
O197 Co196 2.216 . S
O197 C204 1.247 . S
O198 Co196 2.091 . S
O198 C204 1.261 . S
C199 O208 1.247 . S
C199 O209 1.272 . S
O200 Co196 2.004 . S
O200 C205 1.259 . S
Co201 O202 2.061 . S
Co201 O207 2.052 . S
Co201 O209 2.135 . S
O202 Co201 2.061 . S
O202 C205 1.235 . S
C203 O206 1.238 . S
C203 O207 1.241 . S
C204 O197 1.247 . S
C204 O198 1.261 . S
C205 O200 1.259 . S
C205 O202 1.235 . S
O206 Co196 2.021 . S
O206 C203 1.238 . S
O207 Co201 2.052 . S
O207 C203 1.241 . S
O208 Co196 2.137 . S
O208 C199 1.247 . S
O209 Co196 2.244 . S
O209 C199 1.272 . S
O209 Co201 2.135 . S
Co210 O211 2.216 . S
Co210 O212 2.091 . S
Co210 O214 2.004 . S
Co210 O220 2.021 . S
Co210 O222 2.137 . S
Co210 O223 2.244 . S
O211 Co210 2.216 . S
O211 C218 1.247 . S
O212 Co210 2.091 . S
O212 C218 1.261 . S
C213 O222 1.247 . S
C213 O223 1.272 . S
O214 Co210 2.004 . S
O214 C219 1.259 . S
Co215 O216 2.061 . S
Co215 O221 2.052 . S
Co215 O223 2.135 . S
O216 Co215 2.061 . S
O216 C219 1.235 . S
C217 O220 1.238 . S
C217 O221 1.241 . S
C218 O211 1.247 . S
C218 O212 1.261 . S
C219 O214 1.259 . S
C219 O216 1.235 . S
O220 Co210 2.021 . S
O220 C217 1.238 . S
O221 Co215 2.052 . S
O221 C217 1.241 . S
O222 Co210 2.137 . S
O222 C213 1.247 . S
O223 Co210 2.244 . S
O223 C213 1.272 . S
O223 Co215 2.135 . S
Co224 O225 2.216 1_545 S
Co224 O226 2.091 1_545 S
Co224 O228 2.004 . S
Co224 O234 2.021 . S
Co224 O236 2.137 1_545 S
Co224 O237 2.244 1_545 S
O225 Co224 2.216 1_565 S
O225 C232 1.247 . S
O226 Co224 2.091 1_565 S
O226 C232 1.261 . S
C227 O236 1.247 . S
C227 O237 1.272 . S
O228 Co224 2.004 . S
O228 C233 1.259 . S
Co229 O230 2.061 . S
Co229 O235 2.052 . S
Co229 O237 2.135 1_545 S
O230 Co229 2.061 . S
O230 C233 1.235 . S
C231 O234 1.238 . S
C231 O235 1.241 . S
C232 O225 1.247 . S
C232 O226 1.261 . S
C233 O228 1.259 . S
C233 O230 1.235 . S
O234 Co224 2.021 . S
O234 C231 1.238 . S
O235 Co229 2.052 . S
O235 C231 1.241 . S
O236 Co224 2.137 1_565 S
O236 C227 1.247 . S
O237 Co224 2.244 1_565 S
O237 C227 1.272 . S
O237 Co229 2.135 1_565 S
Co238 O239 2.216 . S
Co238 O240 2.091 . S
Co238 O242 2.004 . S
Co238 O248 2.021 . S
Co238 O250 2.137 . S
Co238 O251 2.244 . S
O239 Co238 2.216 . S
O239 C246 1.247 . S
O240 Co238 2.091 . S
O240 C246 1.261 . S
C241 O250 1.247 . S
C241 O251 1.272 . S
O242 Co238 2.004 . S
O242 C247 1.259 . S
Co243 O244 2.061 . S
Co243 O249 2.052 . S
Co243 O251 2.135 . S
O244 Co243 2.061 . S
O244 C247 1.235 . S
C245 O248 1.238 . S
C245 O249 1.241 . S
C246 O239 1.247 . S
C246 O240 1.261 . S
C247 O242 1.259 . S
C247 O244 1.235 . S
O248 Co238 2.021 . S
O248 C245 1.238 . S
O249 Co243 2.052 . S
O249 C245 1.241 . S
O250 Co238 2.137 . S
O250 C241 1.247 . S
O251 Co238 2.244 . S
O251 C241 1.272 . S
O251 Co243 2.135 . S
Co252 O253 2.216 . S
Co252 O254 2.091 . S
Co252 O256 2.004 . S
Co252 O262 2.021 . S
Co252 O264 2.137 . S
Co252 O265 2.244 . S
O253 Co252 2.216 . S
O253 C260 1.247 . S
O254 Co252 2.091 . S
O254 C260 1.261 . S
C255 O264 1.247 . S
C255 O265 1.272 . S
O256 Co252 2.004 . S
O256 C261 1.259 . S
Co257 O258 2.061 . S
Co257 O263 2.052 . S
Co257 O265 2.135 . S
O258 Co257 2.061 . S
O258 C261 1.235 . S
C259 O262 1.238 . S
C259 O263 1.241 . S
C260 O253 1.247 . S
C260 O254 1.261 . S
C261 O256 1.259 . S
C261 O258 1.235 . S
O262 Co252 2.021 . S
O262 C259 1.238 . S
O263 Co257 2.052 . S
O263 C259 1.241 . S
O264 Co252 2.137 . S
O264 C255 1.247 . S
O265 Co252 2.244 . S
O265 C255 1.272 . S
O265 Co257 2.135 . S
Co266 O267 2.216 . S
Co266 O268 2.091 . S
Co266 O270 2.004 1_565 S
Co266 O276 2.021 1_565 S
Co266 O278 2.137 . S
Co266 O279 2.244 . S
O267 Co266 2.216 . S
O267 C274 1.247 . S
O268 Co266 2.091 . S
O268 C274 1.261 . S
C269 O278 1.247 . S
C269 O279 1.272 . S
O270 Co266 2.004 1_545 S
O270 C275 1.259 . S
Co271 O272 2.061 . S
Co271 O277 2.052 . S
Co271 O279 2.135 1_545 S
O272 Co271 2.061 . S
O272 C275 1.235 . S
C273 O276 1.238 . S
C273 O277 1.241 . S
C274 O267 1.247 . S
C274 O268 1.261 . S
C275 O270 1.259 . S
C275 O272 1.235 . S
O276 Co266 2.021 1_545 S
O276 C273 1.238 . S
O277 Co271 2.052 . S
O277 C273 1.241 . S
O278 Co266 2.137 . S
O278 C269 1.247 . S
O279 Co266 2.244 . S
O279 C269 1.272 . S
O279 Co271 2.135 1_565 S
Co280 O281 2.216 . S
Co280 O282 2.091 . S
Co280 O284 2.004 1_554 S
Co280 O290 2.021 1_554 S
Co280 O292 2.137 . S
Co280 O293 2.244 . S
O281 Co280 2.216 . S
O281 C288 1.247 . S
O282 Co280 2.091 . S
O282 C288 1.261 . S
C283 O292 1.247 . S
C283 O293 1.272 . S
O284 Co280 2.004 1_556 S
O284 C289 1.259 . S
Co285 O286 2.061 . S
Co285 O291 2.052 . S
Co285 O293 2.135 1_556 S
O286 Co285 2.061 . S
O286 C289 1.235 . S
C287 O290 1.238 . S
C287 O291 1.241 . S
C288 O281 1.247 . S
C288 O282 1.261 . S
C289 O284 1.259 . S
C289 O286 1.235 . S
O290 Co280 2.021 1_556 S
O290 C287 1.238 . S
O291 Co285 2.052 . S
O291 C287 1.241 . S
O292 Co280 2.137 . S
O292 C283 1.247 . S
O293 Co280 2.244 . S
O293 C283 1.272 . S
O293 Co285 2.135 1_554 S
Co294 O295 2.216 . S
Co294 O296 2.091 . S
Co294 O298 2.004 . S
Co294 O304 2.021 . S
Co294 O306 2.137 . S
Co294 O307 2.244 . S
O295 Co294 2.216 . S
O295 C302 1.247 . S
O296 Co294 2.091 . S
O296 C302 1.261 . S
C297 O306 1.247 . S
C297 O307 1.272 . S
O298 Co294 2.004 . S
O298 C303 1.259 . S
Co299 O300 2.061 . S
Co299 O305 2.052 . S
Co299 O307 2.135 . S
O300 Co299 2.061 . S
O300 C303 1.235 . S
C301 O304 1.238 . S
C301 O305 1.241 . S
C302 O295 1.247 . S
C302 O296 1.261 . S
C303 O298 1.259 . S
C303 O300 1.235 . S
O304 Co294 2.021 . S
O304 C301 1.238 . S
O305 Co299 2.052 . S
O305 C301 1.241 . S
O306 Co294 2.137 . S
O306 C297 1.247 . S
O307 Co294 2.244 . S
O307 C297 1.272 . S
O307 Co299 2.135 . S
Co308 O309 2.216 . S
Co308 O310 2.091 . S
Co308 O312 2.004 . S
Co308 O318 2.021 . S
Co308 O320 2.137 . S
Co308 O321 2.244 . S
O309 Co308 2.216 . S
O309 C316 1.247 . S
O310 Co308 2.091 . S
O310 C316 1.261 . S
C311 O320 1.247 . S
C311 O321 1.272 . S
O312 Co308 2.004 . S
O312 C317 1.259 . S
Co313 O314 2.061 . S
Co313 O319 2.052 . S
Co313 O321 2.135 . S
O314 Co313 2.061 . S
O314 C317 1.235 . S
C315 O318 1.238 . S
C315 O319 1.241 . S
C316 O309 1.247 . S
C316 O310 1.261 . S
C317 O312 1.259 . S
C317 O314 1.235 . S
O318 Co308 2.021 . S
O318 C315 1.238 . S
O319 Co313 2.052 . S
O319 C315 1.241 . S
O320 Co308 2.137 . S
O320 C311 1.247 . S
O321 Co308 2.244 . S
O321 C311 1.272 . S
O321 Co313 2.135 . S
Co322 O323 2.216 . S
Co322 O324 2.091 . S
Co322 O326 2.004 . S
Co322 O332 2.021 . S
Co322 O334 2.137 . S
Co322 O335 2.244 . S
O323 Co322 2.216 . S
O323 C330 1.247 . S
O324 Co322 2.091 . S
O324 C330 1.261 . S
C325 O334 1.247 . S
C325 O335 1.272 . S
O326 Co322 2.004 . S
O326 C331 1.259 . S
Co327 O328 2.061 . S
Co327 O333 2.052 . S
Co327 O335 2.135 . S
O328 Co327 2.061 . S
O328 C331 1.235 . S
C329 O332 1.238 . S
C329 O333 1.241 . S
C330 O323 1.247 . S
C330 O324 1.261 . S
C331 O326 1.259 . S
C331 O328 1.235 . S
O332 Co322 2.021 . S
O332 C329 1.238 . S
O333 Co327 2.052 . S
O333 C329 1.241 . S
O334 Co322 2.137 . S
O334 C325 1.247 . S
O335 Co322 2.244 . S
O335 C325 1.272 . S
O335 Co327 2.135 . S
Fe336 O338 1.918 . S
Fe336 O341 1.997 . S
Fe336 O342 2.002 . S
Fe336 O347 1.976 . S
Fe336 O350 1.996 . S
Fe337 O338 1.918 . S
Fe337 O345 1.997 . S
Fe337 O348 1.996 . S
Fe337 O352 1.976 . S
Fe337 O355 2.002 . S
O338 Fe336 1.918 . S
O338 Fe337 1.918 . S
O338 Fe339 1.918 . S
Fe339 O338 1.918 . S
Fe339 O340 2.002 . S
Fe339 O349 1.976 . S
Fe339 O353 1.996 . S
Fe339 O356 1.997 . S
O340 Fe339 2.002 . S
O340 C357 1.295 . S
O341 Fe336 1.997 . S
O341 C357 1.235 . S
O342 Fe336 2.002 . S
O342 C343 1.295 . S
C343 O342 1.295 . S
C343 O345 1.235 . S
C344 O349 1.287 . S
C344 O350 1.255 . S
O345 Fe337 1.997 . S
O345 C343 1.235 . S
C346 O352 1.287 . S
C346 O353 1.255 . S
O347 Fe336 1.976 . S
O347 C354 1.287 . S
O348 Fe337 1.996 . S
O348 C354 1.255 . S
O349 Fe339 1.976 . S
O349 C344 1.287 . S
O350 Fe336 1.996 . S
O350 C344 1.255 . S
C351 O355 1.295 . S
C351 O356 1.235 . S
O352 Fe337 1.976 . S
O352 C346 1.287 . S
O353 Fe339 1.996 . S
O353 C346 1.255 . S
C354 O347 1.287 . S
C354 O348 1.255 . S
O355 Fe337 2.002 . S
O355 C351 1.295 . S
O356 Fe339 1.997 . S
O356 C351 1.235 . S
C357 O340 1.295 . S
C357 O341 1.235 . S
Fe358 O360 1.918 . S
Fe358 O363 1.997 . S
Fe358 O364 2.002 . S
Fe358 O369 1.976 . S
Fe358 O372 1.996 . S
Fe359 O360 1.918 . S
Fe359 O367 1.997 . S
Fe359 O370 1.996 . S
Fe359 O374 1.976 . S
Fe359 O377 2.002 . S
O360 Fe358 1.918 . S
O360 Fe359 1.918 . S
O360 Fe361 1.918 . S
Fe361 O360 1.918 . S
Fe361 O362 2.002 . S
Fe361 O371 1.976 . S
Fe361 O375 1.996 . S
Fe361 O378 1.997 . S
O362 Fe361 2.002 . S
O362 C379 1.295 . S
O363 Fe358 1.997 . S
O363 C379 1.235 . S
O364 Fe358 2.002 . S
O364 C365 1.295 . S
C365 O364 1.295 . S
C365 O367 1.235 . S
C366 O371 1.287 . S
C366 O372 1.255 . S
O367 Fe359 1.997 . S
O367 C365 1.235 . S
C368 O374 1.287 . S
C368 O375 1.255 . S
O369 Fe358 1.976 . S
O369 C376 1.287 . S
O370 Fe359 1.996 . S
O370 C376 1.255 . S
O371 Fe361 1.976 . S
O371 C366 1.287 . S
O372 Fe358 1.996 . S
O372 C366 1.255 . S
C373 O377 1.295 . S
C373 O378 1.235 . S
O374 Fe359 1.976 . S
O374 C368 1.287 . S
O375 Fe361 1.996 . S
O375 C368 1.255 . S
C376 O369 1.287 . S
C376 O370 1.255 . S
O377 Fe359 2.002 . S
O377 C373 1.295 . S
O378 Fe361 1.997 . S
O378 C373 1.235 . S
C379 O362 1.295 . S
C379 O363 1.235 . S
Fe380 O382 1.918 . S
Fe380 O385 1.997 . S
Fe380 O386 2.002 . S
Fe380 O391 1.976 . S
Fe380 O394 1.996 . S
Fe381 O382 1.918 . S
Fe381 O389 1.997 . S
Fe381 O392 1.996 . S
Fe381 O396 1.976 . S
Fe381 O399 2.002 . S
O382 Fe380 1.918 . S
O382 Fe381 1.918 . S
O382 Fe383 1.918 . S
Fe383 O382 1.918 . S
Fe383 O384 2.002 . S
Fe383 O393 1.976 . S
Fe383 O397 1.996 . S
Fe383 O400 1.997 . S
O384 Fe383 2.002 . S
O384 C401 1.295 . S
O385 Fe380 1.997 . S
O385 C401 1.235 . S
O386 Fe380 2.002 . S
O386 C387 1.295 . S
C387 O386 1.295 . S
C387 O389 1.235 . S
C388 O393 1.287 . S
C388 O394 1.255 . S
O389 Fe381 1.997 . S
O389 C387 1.235 . S
C390 O396 1.287 . S
C390 O397 1.255 . S
O391 Fe380 1.976 . S
O391 C398 1.287 . S
O392 Fe381 1.996 . S
O392 C398 1.255 . S
O393 Fe383 1.976 . S
O393 C388 1.287 . S
O394 Fe380 1.996 . S
O394 C388 1.255 . S
C395 O399 1.295 . S
C395 O400 1.235 . S
O396 Fe381 1.976 . S
O396 C390 1.287 . S
O397 Fe383 1.996 . S
O397 C390 1.255 . S
C398 O391 1.287 . S
C398 O392 1.255 . S
O399 Fe381 2.002 . S
O399 C395 1.295 . S
O400 Fe383 1.997 . S
O400 C395 1.235 . S
C401 O384 1.295 . S
C401 O385 1.235 . S
Fe402 O404 1.918 . S
Fe402 O407 1.997 . S
Fe402 O408 2.002 . S
Fe402 O413 1.976 . S
Fe402 O416 1.996 . S
Fe403 O404 1.918 . S
Fe403 O411 1.997 . S
Fe403 O414 1.996 . S
Fe403 O418 1.976 . S
Fe403 O421 2.002 . S
O404 Fe402 1.918 . S
O404 Fe403 1.918 . S
O404 Fe405 1.918 . S
Fe405 O404 1.918 . S
Fe405 O406 2.002 . S
Fe405 O415 1.976 . S
Fe405 O419 1.996 . S
Fe405 O422 1.997 . S
O406 Fe405 2.002 . S
O406 C423 1.295 . S
O407 Fe402 1.997 . S
O407 C423 1.235 . S
O408 Fe402 2.002 . S
O408 C409 1.295 . S
C409 O408 1.295 . S
C409 O411 1.235 . S
C410 O415 1.287 . S
C410 O416 1.255 . S
O411 Fe403 1.997 . S
O411 C409 1.235 . S
C412 O418 1.287 . S
C412 O419 1.255 . S
O413 Fe402 1.976 . S
O413 C420 1.287 . S
O414 Fe403 1.996 . S
O414 C420 1.255 . S
O415 Fe405 1.976 . S
O415 C410 1.287 . S
O416 Fe402 1.996 . S
O416 C410 1.255 . S
C417 O421 1.295 . S
C417 O422 1.235 . S
O418 Fe403 1.976 . S
O418 C412 1.287 . S
O419 Fe405 1.996 . S
O419 C412 1.255 . S
C420 O413 1.287 . S
C420 O414 1.255 . S
O421 Fe403 2.002 . S
O421 C417 1.295 . S
O422 Fe405 1.997 . S
O422 C417 1.235 . S
C423 O406 1.295 . S
C423 O407 1.235 . S
Fe424 O426 1.918 . S
Fe424 O429 1.997 . S
Fe424 O430 2.002 . S
Fe424 O435 1.976 . S
Fe424 O438 1.996 . S
Fe425 O426 1.918 . S
Fe425 O433 1.997 . S
Fe425 O436 1.996 . S
Fe425 O440 1.976 . S
Fe425 O443 2.002 . S
O426 Fe424 1.918 . S
O426 Fe425 1.918 . S
O426 Fe427 1.918 . S
Fe427 O426 1.918 . S
Fe427 O428 2.002 . S
Fe427 O437 1.976 . S
Fe427 O441 1.996 . S
Fe427 O444 1.997 . S
O428 Fe427 2.002 . S
O428 C445 1.295 . S
O429 Fe424 1.997 . S
O429 C445 1.235 . S
O430 Fe424 2.002 . S
O430 C431 1.295 . S
C431 O430 1.295 . S
C431 O433 1.235 . S
C432 O437 1.287 . S
C432 O438 1.255 . S
O433 Fe425 1.997 . S
O433 C431 1.235 . S
C434 O440 1.287 . S
C434 O441 1.255 . S
O435 Fe424 1.976 . S
O435 C442 1.287 . S
O436 Fe425 1.996 . S
O436 C442 1.255 . S
O437 Fe427 1.976 . S
O437 C432 1.287 . S
O438 Fe424 1.996 . S
O438 C432 1.255 . S
C439 O443 1.295 . S
C439 O444 1.235 . S
O440 Fe425 1.976 . S
O440 C434 1.287 . S
O441 Fe427 1.996 . S
O441 C434 1.255 . S
C442 O435 1.287 . S
C442 O436 1.255 . S
O443 Fe425 2.002 . S
O443 C439 1.295 . S
O444 Fe427 1.997 . S
O444 C439 1.235 . S
C445 O428 1.295 . S
C445 O429 1.235 . S
Fe446 O448 1.918 . S
Fe446 O451 1.997 . S
Fe446 O452 2.002 . S
Fe446 O457 1.976 . S
Fe446 O460 1.996 . S
Fe447 O448 1.918 . S
Fe447 O455 1.997 . S
Fe447 O458 1.996 . S
Fe447 O462 1.976 . S
Fe447 O465 2.002 . S
O448 Fe446 1.918 . S
O448 Fe447 1.918 . S
O448 Fe449 1.918 . S
Fe449 O448 1.918 . S
Fe449 O450 2.002 . S
Fe449 O459 1.976 . S
Fe449 O463 1.996 . S
Fe449 O466 1.997 . S
O450 Fe449 2.002 . S
O450 C467 1.295 . S
O451 Fe446 1.997 . S
O451 C467 1.235 . S
O452 Fe446 2.002 . S
O452 C453 1.295 . S
C453 O452 1.295 . S
C453 O455 1.235 . S
C454 O459 1.287 . S
C454 O460 1.255 . S
O455 Fe447 1.997 . S
O455 C453 1.235 . S
C456 O462 1.287 . S
C456 O463 1.255 . S
O457 Fe446 1.976 . S
O457 C464 1.287 . S
O458 Fe447 1.996 . S
O458 C464 1.255 . S
O459 Fe449 1.976 . S
O459 C454 1.287 . S
O460 Fe446 1.996 . S
O460 C454 1.255 . S
C461 O465 1.295 . S
C461 O466 1.235 . S
O462 Fe447 1.976 . S
O462 C456 1.287 . S
O463 Fe449 1.996 . S
O463 C456 1.255 . S
C464 O457 1.287 . S
C464 O458 1.255 . S
O465 Fe447 2.002 . S
O465 C461 1.295 . S
O466 Fe449 1.997 . S
O466 C461 1.235 . S
C467 O450 1.295 . S
C467 O451 1.235 . S
Fe468 O470 1.918 . S
Fe468 O473 1.997 . S
Fe468 O474 2.002 . S
Fe468 O479 1.976 . S
Fe468 O482 1.996 . S
Fe469 O470 1.918 . S
Fe469 O477 1.997 . S
Fe469 O480 1.996 . S
Fe469 O484 1.976 . S
Fe469 O487 2.002 . S
O470 Fe468 1.918 . S
O470 Fe469 1.918 . S
O470 Fe471 1.918 . S
Fe471 O470 1.918 . S
Fe471 O472 2.002 . S
Fe471 O481 1.976 . S
Fe471 O485 1.996 . S
Fe471 O488 1.997 . S
O472 Fe471 2.002 . S
O472 C489 1.295 . S
O473 Fe468 1.997 . S
O473 C489 1.235 . S
O474 Fe468 2.002 . S
O474 C475 1.295 . S
C475 O474 1.295 . S
C475 O477 1.235 . S
C476 O481 1.287 . S
C476 O482 1.255 . S
O477 Fe469 1.997 . S
O477 C475 1.235 . S
C478 O484 1.287 . S
C478 O485 1.255 . S
O479 Fe468 1.976 . S
O479 C486 1.287 . S
O480 Fe469 1.996 . S
O480 C486 1.255 . S
O481 Fe471 1.976 . S
O481 C476 1.287 . S
O482 Fe468 1.996 . S
O482 C476 1.255 . S
C483 O487 1.295 . S
C483 O488 1.235 . S
O484 Fe469 1.976 . S
O484 C478 1.287 . S
O485 Fe471 1.996 . S
O485 C478 1.255 . S
C486 O479 1.287 . S
C486 O480 1.255 . S
O487 Fe469 2.002 . S
O487 C483 1.295 . S
O488 Fe471 1.997 . S
O488 C483 1.235 . S
C489 O472 1.295 . S
C489 O473 1.235 . S
Fe490 O492 1.918 . S
Fe490 O495 1.997 . S
Fe490 O496 2.002 . S
Fe490 O501 1.976 . S
Fe490 O504 1.996 . S
Fe491 O492 1.918 . S
Fe491 O499 1.997 . S
Fe491 O502 1.996 . S
Fe491 O506 1.976 . S
Fe491 O509 2.002 . S
O492 Fe490 1.918 . S
O492 Fe491 1.918 . S
O492 Fe493 1.918 . S
Fe493 O492 1.918 . S
Fe493 O494 2.002 . S
Fe493 O503 1.976 . S
Fe493 O507 1.996 . S
Fe493 O510 1.997 . S
O494 Fe493 2.002 . S
O494 C511 1.295 . S
O495 Fe490 1.997 . S
O495 C511 1.235 . S
O496 Fe490 2.002 . S
O496 C497 1.295 . S
C497 O496 1.295 . S
C497 O499 1.235 . S
C498 O503 1.287 . S
C498 O504 1.255 . S
O499 Fe491 1.997 . S
O499 C497 1.235 . S
C500 O506 1.287 . S
C500 O507 1.255 . S
O501 Fe490 1.976 . S
O501 C508 1.287 . S
O502 Fe491 1.996 . S
O502 C508 1.255 . S
O503 Fe493 1.976 . S
O503 C498 1.287 . S
O504 Fe490 1.996 . S
O504 C498 1.255 . S
C505 O509 1.295 . S
C505 O510 1.235 . S
O506 Fe491 1.976 . S
O506 C500 1.287 . S
O507 Fe493 1.996 . S
O507 C500 1.255 . S
C508 O501 1.287 . S
C508 O502 1.255 . S
O509 Fe491 2.002 . S
O509 C505 1.295 . S
O510 Fe493 1.997 . S
O510 C505 1.235 . S
C511 O494 1.295 . S
C511 O495 1.235 . S
Fe512 O514 1.918 . S
Fe512 O517 1.997 . S
Fe512 O518 2.002 . S
Fe512 O523 1.976 . S
Fe512 O526 1.996 . S
Fe513 O514 1.918 . S
Fe513 O521 1.997 . S
Fe513 O524 1.996 . S
Fe513 O528 1.976 . S
Fe513 O531 2.002 . S
O514 Fe512 1.918 . S
O514 Fe513 1.918 . S
O514 Fe515 1.918 . S
Fe515 O514 1.918 . S
Fe515 O516 2.002 . S
Fe515 O525 1.976 . S
Fe515 O529 1.996 . S
Fe515 O532 1.997 . S
O516 Fe515 2.002 . S
O516 C533 1.295 . S
O517 Fe512 1.997 . S
O517 C533 1.235 . S
O518 Fe512 2.002 . S
O518 C519 1.295 . S
C519 O518 1.295 . S
C519 O521 1.235 . S
C520 O525 1.287 . S
C520 O526 1.255 . S
O521 Fe513 1.997 . S
O521 C519 1.235 . S
C522 O528 1.287 . S
C522 O529 1.255 . S
O523 Fe512 1.976 . S
O523 C530 1.287 . S
O524 Fe513 1.996 . S
O524 C530 1.255 . S
O525 Fe515 1.976 . S
O525 C520 1.287 . S
O526 Fe512 1.996 . S
O526 C520 1.255 . S
C527 O531 1.295 . S
C527 O532 1.235 . S
O528 Fe513 1.976 . S
O528 C522 1.287 . S
O529 Fe515 1.996 . S
O529 C522 1.255 . S
C530 O523 1.287 . S
C530 O524 1.255 . S
O531 Fe513 2.002 . S
O531 C527 1.295 . S
O532 Fe515 1.997 . S
O532 C527 1.235 . S
C533 O516 1.295 . S
C533 O517 1.235 . S
Fe534 O536 1.918 . S
Fe534 O539 1.997 . S
Fe534 O540 2.002 . S
Fe534 O545 1.976 . S
Fe534 O548 1.996 . S
Fe535 O536 1.918 . S
Fe535 O543 1.997 . S
Fe535 O546 1.996 . S
Fe535 O550 1.976 . S
Fe535 O553 2.002 . S
O536 Fe534 1.918 . S
O536 Fe535 1.918 . S
O536 Fe537 1.918 . S
Fe537 O536 1.918 . S
Fe537 O538 2.002 . S
Fe537 O547 1.976 . S
Fe537 O551 1.996 . S
Fe537 O554 1.997 . S
O538 Fe537 2.002 . S
O538 C555 1.295 . S
O539 Fe534 1.997 . S
O539 C555 1.235 . S
O540 Fe534 2.002 . S
O540 C541 1.295 . S
C541 O540 1.295 . S
C541 O543 1.235 . S
C542 O547 1.287 . S
C542 O548 1.255 . S
O543 Fe535 1.997 . S
O543 C541 1.235 . S
C544 O550 1.287 . S
C544 O551 1.255 . S
O545 Fe534 1.976 . S
O545 C552 1.287 . S
O546 Fe535 1.996 . S
O546 C552 1.255 . S
O547 Fe537 1.976 . S
O547 C542 1.287 . S
O548 Fe534 1.996 . S
O548 C542 1.255 . S
C549 O553 1.295 . S
C549 O554 1.235 . S
O550 Fe535 1.976 . S
O550 C544 1.287 . S
O551 Fe537 1.996 . S
O551 C544 1.255 . S
C552 O545 1.287 . S
C552 O546 1.255 . S
O553 Fe535 2.002 . S
O553 C549 1.295 . S
O554 Fe537 1.997 . S
O554 C549 1.235 . S
C555 O538 1.295 . S
C555 O539 1.235 . S
Fe556 O558 1.918 . S
Fe556 O561 1.997 . S
Fe556 O562 2.002 . S
Fe556 O567 1.976 . S
Fe556 O570 1.996 . S
Fe557 O558 1.918 . S
Fe557 O565 1.997 . S
Fe557 O568 1.996 . S
Fe557 O572 1.976 . S
Fe557 O575 2.002 . S
O558 Fe556 1.918 . S
O558 Fe557 1.918 . S
O558 Fe559 1.918 . S
Fe559 O558 1.918 . S
Fe559 O560 2.002 . S
Fe559 O569 1.976 . S
Fe559 O573 1.996 . S
Fe559 O576 1.997 . S
O560 Fe559 2.002 . S
O560 C577 1.295 . S
O561 Fe556 1.997 . S
O561 C577 1.235 . S
O562 Fe556 2.002 . S
O562 C563 1.295 . S
C563 O562 1.295 . S
C563 O565 1.235 . S
C564 O569 1.287 . S
C564 O570 1.255 . S
O565 Fe557 1.997 . S
O565 C563 1.235 . S
C566 O572 1.287 . S
C566 O573 1.255 . S
O567 Fe556 1.976 . S
O567 C574 1.287 . S
O568 Fe557 1.996 . S
O568 C574 1.255 . S
O569 Fe559 1.976 . S
O569 C564 1.287 . S
O570 Fe556 1.996 . S
O570 C564 1.255 . S
C571 O575 1.295 . S
C571 O576 1.235 . S
O572 Fe557 1.976 . S
O572 C566 1.287 . S
O573 Fe559 1.996 . S
O573 C566 1.255 . S
C574 O567 1.287 . S
C574 O568 1.255 . S
O575 Fe557 2.002 . S
O575 C571 1.295 . S
O576 Fe559 1.997 . S
O576 C571 1.235 . S
C577 O560 1.295 . S
C577 O561 1.235 . S
Fe578 O580 1.918 . S
Fe578 O583 1.997 . S
Fe578 O584 2.002 . S
Fe578 O589 1.976 . S
Fe578 O592 1.996 . S
Fe579 O580 1.918 . S
Fe579 O587 1.997 . S
Fe579 O590 1.996 . S
Fe579 O594 1.976 . S
Fe579 O597 2.002 . S
O580 Fe578 1.918 . S
O580 Fe579 1.918 . S
O580 Fe581 1.918 . S
Fe581 O580 1.918 . S
Fe581 O582 2.002 . S
Fe581 O591 1.976 . S
Fe581 O595 1.996 . S
Fe581 O598 1.997 . S
O582 Fe581 2.002 . S
O582 C599 1.295 . S
O583 Fe578 1.997 . S
O583 C599 1.235 . S
O584 Fe578 2.002 . S
O584 C585 1.295 . S
C585 O584 1.295 . S
C585 O587 1.235 . S
C586 O591 1.287 . S
C586 O592 1.255 . S
O587 Fe579 1.997 . S
O587 C585 1.235 . S
C588 O594 1.287 . S
C588 O595 1.255 . S
O589 Fe578 1.976 . S
O589 C596 1.287 . S
O590 Fe579 1.996 . S
O590 C596 1.255 . S
O591 Fe581 1.976 . S
O591 C586 1.287 . S
O592 Fe578 1.996 . S
O592 C586 1.255 . S
C593 O597 1.295 . S
C593 O598 1.235 . S
O594 Fe579 1.976 . S
O594 C588 1.287 . S
O595 Fe581 1.996 . S
O595 C588 1.255 . S
C596 O589 1.287 . S
C596 O590 1.255 . S
O597 Fe579 2.002 . S
O597 C593 1.295 . S
O598 Fe581 1.997 . S
O598 C593 1.235 . S
C599 O582 1.295 . S
C599 O583 1.235 . S
Fe600 O602 1.918 . S
Fe600 O605 1.997 . S
Fe600 O606 2.002 . S
Fe600 O611 1.976 . S
Fe600 O614 1.996 . S
Fe601 O602 1.918 . S
Fe601 O609 1.997 . S
Fe601 O612 1.996 . S
Fe601 O616 1.976 . S
Fe601 O619 2.002 . S
O602 Fe600 1.918 . S
O602 Fe601 1.918 . S
O602 Fe603 1.918 . S
Fe603 O602 1.918 . S
Fe603 O604 2.002 . S
Fe603 O613 1.976 . S
Fe603 O617 1.996 . S
Fe603 O620 1.997 . S
O604 Fe603 2.002 . S
O604 C621 1.295 . S
O605 Fe600 1.997 . S
O605 C621 1.235 . S
O606 Fe600 2.002 . S
O606 C607 1.295 . S
C607 O606 1.295 . S
C607 O609 1.235 . S
C608 O613 1.287 . S
C608 O614 1.255 . S
O609 Fe601 1.997 . S
O609 C607 1.235 . S
C610 O616 1.287 . S
C610 O617 1.255 . S
O611 Fe600 1.976 . S
O611 C618 1.287 . S
O612 Fe601 1.996 . S
O612 C618 1.255 . S
O613 Fe603 1.976 . S
O613 C608 1.287 . S
O614 Fe600 1.996 . S
O614 C608 1.255 . S
C615 O619 1.295 . S
C615 O620 1.235 . S
O616 Fe601 1.976 . S
O616 C610 1.287 . S
O617 Fe603 1.996 . S
O617 C610 1.255 . S
C618 O611 1.287 . S
C618 O612 1.255 . S
O619 Fe601 2.002 . S
O619 C615 1.295 . S
O620 Fe603 1.997 . S
O620 C615 1.235 . S
C621 O604 1.295 . S
C621 O605 1.235 . S
Fe622 O624 1.918 . S
Fe622 O627 1.997 . S
Fe622 O628 2.002 . S
Fe622 O633 1.976 . S
Fe622 O636 1.996 . S
Fe623 O624 1.918 . S
Fe623 O631 1.997 . S
Fe623 O634 1.996 . S
Fe623 O638 1.976 . S
Fe623 O641 2.002 . S
O624 Fe622 1.918 . S
O624 Fe623 1.918 . S
O624 Fe625 1.918 . S
Fe625 O624 1.918 . S
Fe625 O626 2.002 . S
Fe625 O635 1.976 . S
Fe625 O639 1.996 . S
Fe625 O642 1.997 . S
O626 Fe625 2.002 . S
O626 C643 1.295 . S
O627 Fe622 1.997 . S
O627 C643 1.235 . S
O628 Fe622 2.002 . S
O628 C629 1.295 . S
C629 O628 1.295 . S
C629 O631 1.235 . S
C630 O635 1.287 . S
C630 O636 1.255 . S
O631 Fe623 1.997 . S
O631 C629 1.235 . S
C632 O638 1.287 . S
C632 O639 1.255 . S
O633 Fe622 1.976 . S
O633 C640 1.287 . S
O634 Fe623 1.996 . S
O634 C640 1.255 . S
O635 Fe625 1.976 . S
O635 C630 1.287 . S
O636 Fe622 1.996 . S
O636 C630 1.255 . S
C637 O641 1.295 . S
C637 O642 1.235 . S
O638 Fe623 1.976 . S
O638 C632 1.287 . S
O639 Fe625 1.996 . S
O639 C632 1.255 . S
C640 O633 1.287 . S
C640 O634 1.255 . S
O641 Fe623 2.002 . S
O641 C637 1.295 . S
O642 Fe625 1.997 . S
O642 C637 1.235 . S
C643 O626 1.295 . S
C643 O627 1.235 . S
Fe644 O646 1.918 . S
Fe644 O649 1.997 . S
Fe644 O650 2.002 . S
Fe644 O655 1.976 . S
Fe644 O658 1.996 . S
Fe645 O646 1.918 . S
Fe645 O653 1.997 . S
Fe645 O656 1.996 . S
Fe645 O660 1.976 . S
Fe645 O663 2.002 . S
O646 Fe644 1.918 . S
O646 Fe645 1.918 . S
O646 Fe647 1.918 . S
Fe647 O646 1.918 . S
Fe647 O648 2.002 . S
Fe647 O657 1.976 . S
Fe647 O661 1.996 . S
Fe647 O664 1.997 . S
O648 Fe647 2.002 . S
O648 C665 1.295 . S
O649 Fe644 1.997 . S
O649 C665 1.235 . S
O650 Fe644 2.002 . S
O650 C651 1.295 . S
C651 O650 1.295 . S
C651 O653 1.235 . S
C652 O657 1.287 . S
C652 O658 1.255 . S
O653 Fe645 1.997 . S
O653 C651 1.235 . S
C654 O660 1.287 . S
C654 O661 1.255 . S
O655 Fe644 1.976 . S
O655 C662 1.287 . S
O656 Fe645 1.996 . S
O656 C662 1.255 . S
O657 Fe647 1.976 . S
O657 C652 1.287 . S
O658 Fe644 1.996 . S
O658 C652 1.255 . S
C659 O663 1.295 . S
C659 O664 1.235 . S
O660 Fe645 1.976 . S
O660 C654 1.287 . S
O661 Fe647 1.996 . S
O661 C654 1.255 . S
C662 O655 1.287 . S
C662 O656 1.255 . S
O663 Fe645 2.002 . S
O663 C659 1.295 . S
O664 Fe647 1.997 . S
O664 C659 1.235 . S
C665 O648 1.295 . S
C665 O649 1.235 . S
Fe666 O668 1.918 . S
Fe666 O671 1.997 . S
Fe666 O672 2.002 . S
Fe666 O677 1.976 . S
Fe666 O680 1.996 . S
Fe667 O668 1.918 . S
Fe667 O675 1.997 . S
Fe667 O678 1.996 . S
Fe667 O682 1.976 . S
Fe667 O685 2.002 . S
O668 Fe666 1.918 . S
O668 Fe667 1.918 . S
O668 Fe669 1.918 . S
Fe669 O668 1.918 . S
Fe669 O670 2.002 . S
Fe669 O679 1.976 . S
Fe669 O683 1.996 . S
Fe669 O686 1.997 . S
O670 Fe669 2.002 . S
O670 C687 1.295 . S
O671 Fe666 1.997 . S
O671 C687 1.235 . S
O672 Fe666 2.002 . S
O672 C673 1.295 . S
C673 O672 1.295 . S
C673 O675 1.235 . S
C674 O679 1.287 . S
C674 O680 1.255 . S
O675 Fe667 1.997 . S
O675 C673 1.235 . S
C676 O682 1.287 . S
C676 O683 1.255 . S
O677 Fe666 1.976 . S
O677 C684 1.287 . S
O678 Fe667 1.996 . S
O678 C684 1.255 . S
O679 Fe669 1.976 . S
O679 C674 1.287 . S
O680 Fe666 1.996 . S
O680 C674 1.255 . S
C681 O685 1.295 . S
C681 O686 1.235 . S
O682 Fe667 1.976 . S
O682 C676 1.287 . S
O683 Fe669 1.996 . S
O683 C676 1.255 . S
C684 O677 1.287 . S
C684 O678 1.255 . S
O685 Fe667 2.002 . S
O685 C681 1.295 . S
O686 Fe669 1.997 . S
O686 C681 1.235 . S
C687 O670 1.295 . S
C687 O671 1.235 . S
H688 C694 0.930 . S
H689 C697 0.930 1_655 S
H690 C698 0.930 . S
H691 C699 0.930 . S
H692 C702 0.930 . S
H693 C703 0.930 . S
C694 H688 0.930 . S
C694 C695 1.355 . S
C694 C696 1.415 . S
C695 C694 1.355 . S
C695 C697 1.419 . S
C696 C694 1.415 . S
C696 C701 1.425 . S
C696 C703 1.409 . S
C697 H689 0.930 1_455 S
C697 C695 1.419 . S
C697 C698 1.362 . S
C698 H690 0.930 . S
C698 C697 1.362 . S
C698 C701 1.409 . S
C699 H691 0.930 . S
C699 C700 1.355 . S
C699 C701 1.415 . S
C700 C699 1.355 . S
C700 C702 1.419 . S
C701 C696 1.425 . S
C701 C698 1.409 . S
C701 C699 1.415 . S
C702 H692 0.930 . S
C702 C700 1.419 . S
C702 C703 1.362 . S
C703 H693 0.930 . S
C703 C696 1.409 . S
C703 C702 1.362 . S
H704 C710 0.930 . S
H705 C713 0.930 . S
H706 C714 0.930 . S
H707 C715 0.930 . S
H708 C718 0.930 . S
H709 C719 0.930 . S
C710 H704 0.930 . S
C710 C711 1.355 . S
C710 C712 1.415 . S
C711 C710 1.355 . S
C711 C713 1.419 . S
C712 C710 1.415 . S
C712 C717 1.425 . S
C712 C719 1.409 . S
C713 H705 0.930 . S
C713 C711 1.419 . S
C713 C714 1.362 . S
C714 H706 0.930 . S
C714 C713 1.362 . S
C714 C717 1.409 . S
C715 H707 0.930 . S
C715 C716 1.355 . S
C715 C717 1.415 . S
C716 C715 1.355 . S
C716 C718 1.419 . S
C717 C712 1.425 . S
C717 C714 1.409 . S
C717 C715 1.415 . S
C718 H708 0.930 . S
C718 C716 1.419 . S
C718 C719 1.362 . S
C719 H709 0.930 . S
C719 C712 1.409 . S
C719 C718 1.362 . S
H720 C726 0.930 . S
H721 C729 0.930 . S
H722 C730 0.930 . S
H723 C731 0.930 . S
H724 C734 0.930 . S
H725 C735 0.930 . S
C726 H720 0.930 . S
C726 C727 1.355 . S
C726 C728 1.415 . S
C727 C726 1.355 . S
C727 C729 1.419 . S
C728 C726 1.415 . S
C728 C733 1.425 . S
C728 C735 1.409 . S
C729 H721 0.930 . S
C729 C727 1.419 . S
C729 C730 1.362 . S
C730 H722 0.930 . S
C730 C729 1.362 . S
C730 C733 1.409 . S
C731 H723 0.930 . S
C731 C732 1.355 . S
C731 C733 1.415 . S
C732 C731 1.355 . S
C732 C734 1.419 . S
C733 C728 1.425 . S
C733 C730 1.409 . S
C733 C731 1.415 . S
C734 H724 0.930 . S
C734 C732 1.419 . S
C734 C735 1.362 . S
C735 H725 0.930 . S
C735 C728 1.409 . S
C735 C734 1.362 . S
H736 C742 0.930 . S
H737 C745 0.930 . S
H738 C746 0.930 . S
H739 C747 0.930 . S
H740 C750 0.930 . S
H741 C751 0.930 . S
C742 H736 0.930 . S
C742 C743 1.355 . S
C742 C744 1.415 . S
C743 C742 1.355 . S
C743 C745 1.419 . S
C744 C742 1.415 . S
C744 C749 1.425 . S
C744 C751 1.409 1_554 S
C745 H737 0.930 . S
C745 C743 1.419 . S
C745 C746 1.362 . S
C746 H738 0.930 . S
C746 C745 1.362 . S
C746 C749 1.409 . S
C747 H739 0.930 . S
C747 C748 1.355 1_554 S
C747 C749 1.415 . S
C748 C747 1.355 1_556 S
C748 C750 1.419 . S
C749 C744 1.425 . S
C749 C746 1.409 . S
C749 C747 1.415 . S
C750 H740 0.930 . S
C750 C748 1.419 . S
C750 C751 1.362 . S
C751 H741 0.930 . S
C751 C744 1.409 1_556 S
C751 C750 1.362 . S
H752 C758 0.930 . S
H753 C761 0.930 1_655 S
H754 C762 0.930 . S
H755 C763 0.930 . S
H756 C766 0.930 . S
H757 C767 0.930 . S
C758 H752 0.930 . S
C758 C759 1.355 . S
C758 C760 1.415 . S
C759 C758 1.355 . S
C759 C761 1.419 . S
C760 C758 1.415 . S
C760 C765 1.425 . S
C760 C767 1.409 . S
C761 H753 0.930 1_455 S
C761 C759 1.419 . S
C761 C762 1.362 . S
C762 H754 0.930 . S
C762 C761 1.362 . S
C762 C765 1.409 . S
C763 H755 0.930 . S
C763 C764 1.355 . S
C763 C765 1.415 . S
C764 C763 1.355 . S
C764 C766 1.419 . S
C765 C760 1.425 . S
C765 C762 1.409 . S
C765 C763 1.415 . S
C766 H756 0.930 . S
C766 C764 1.419 . S
C766 C767 1.362 . S
C767 H757 0.930 . S
C767 C760 1.409 . S
C767 C766 1.362 . S
H768 C774 0.930 . S
H769 C777 0.930 . S
H770 C778 0.930 . S
H771 C779 0.930 . S
H772 C782 0.930 . S
H773 C783 0.930 . S
C774 H768 0.930 . S
C774 C775 1.355 . S
C774 C776 1.415 . S
C775 C774 1.355 . S
C775 C777 1.419 . S
C776 C774 1.415 . S
C776 C781 1.425 . S
C776 C783 1.409 . S
C777 H769 0.930 . S
C777 C775 1.419 . S
C777 C778 1.362 . S
C778 H770 0.930 . S
C778 C777 1.362 . S
C778 C781 1.409 . S
C779 H771 0.930 . S
C779 C780 1.355 . S
C779 C781 1.415 . S
C780 C779 1.355 . S
C780 C782 1.419 . S
C781 C776 1.425 . S
C781 C778 1.409 . S
C781 C779 1.415 . S
C782 H772 0.930 . S
C782 C780 1.419 . S
C782 C783 1.362 . S
C783 H773 0.930 . S
C783 C776 1.409 . S
C783 C782 1.362 . S
H784 C790 0.930 . S
H785 C793 0.930 . S
H786 C794 0.930 . S
H787 C795 0.930 . S
H788 C798 0.930 . S
H789 C799 0.930 . S
C790 H784 0.930 . S
C790 C791 1.355 . S
C790 C792 1.415 . S
C791 C790 1.355 . S
C791 C793 1.419 . S
C792 C790 1.415 . S
C792 C797 1.425 . S
C792 C799 1.409 . S
C793 H785 0.930 . S
C793 C791 1.419 . S
C793 C794 1.362 . S
C794 H786 0.930 . S
C794 C793 1.362 . S
C794 C797 1.409 . S
C795 H787 0.930 . S
C795 C796 1.355 . S
C795 C797 1.415 . S
C796 C795 1.355 . S
C796 C798 1.419 . S
C797 C792 1.425 . S
C797 C794 1.409 . S
C797 C795 1.415 . S
C798 H788 0.930 . S
C798 C796 1.419 . S
C798 C799 1.362 . S
C799 H789 0.930 . S
C799 C792 1.409 . S
C799 C798 1.362 . S
H800 C806 0.930 . S
H801 C809 0.930 . S
H802 C810 0.930 . S
H803 C811 0.930 1_556 S
H804 C814 0.930 . S
H805 C815 0.930 . S
C806 H800 0.930 . S
C806 C807 1.355 . S
C806 C808 1.415 . S
C807 C806 1.355 . S
C807 C809 1.419 . S
C808 C806 1.415 . S
C808 C813 1.425 . S
C808 C815 1.409 1_556 S
C809 H801 0.930 . S
C809 C807 1.419 . S
C809 C810 1.362 . S
C810 H802 0.930 . S
C810 C809 1.362 . S
C810 C813 1.409 . S
C811 H803 0.930 1_554 S
C811 C812 1.355 . S
C811 C813 1.415 1_554 S
C812 C811 1.355 . S
C812 C814 1.419 . S
C813 C808 1.425 . S
C813 C810 1.409 . S
C813 C811 1.415 1_556 S
C814 H804 0.930 . S
C814 C812 1.419 . S
C814 C815 1.362 . S
C815 H805 0.930 . S
C815 C808 1.409 1_554 S
C815 C814 1.362 . S
H816 C822 0.930 . S
H817 C825 0.930 . S
H818 C826 0.930 . S
H819 C827 0.930 . S
H820 C830 0.930 . S
H821 C831 0.930 . S
C822 H816 0.930 . S
C822 C823 1.355 . S
C822 C824 1.415 . S
C823 C822 1.355 . S
C823 C825 1.419 . S
C824 C822 1.415 . S
C824 C829 1.425 . S
C824 C831 1.409 . S
C825 H817 0.930 . S
C825 C823 1.419 . S
C825 C826 1.362 . S
C826 H818 0.930 . S
C826 C825 1.362 . S
C826 C829 1.409 . S
C827 H819 0.930 . S
C827 C828 1.355 . S
C827 C829 1.415 . S
C828 C827 1.355 . S
C828 C830 1.419 . S
C829 C824 1.425 . S
C829 C826 1.409 . S
C829 C827 1.415 . S
C830 H820 0.930 . S
C830 C828 1.419 . S
C830 C831 1.362 . S
C831 H821 0.930 . S
C831 C824 1.409 . S
C831 C830 1.362 . S
H832 C838 0.930 . S
H833 C841 0.930 . S
H834 C842 0.930 . S
H835 C843 0.930 . S
H836 C846 0.930 . S
H837 C847 0.930 . S
C838 H832 0.930 . S
C838 C839 1.355 . S
C838 C840 1.415 . S
C839 C838 1.355 . S
C839 C841 1.419 . S
C840 C838 1.415 . S
C840 C845 1.425 . S
C840 C847 1.409 1_545 S
C841 H833 0.930 . S
C841 C839 1.419 . S
C841 C842 1.362 . S
C842 H834 0.930 . S
C842 C841 1.362 . S
C842 C845 1.409 . S
C843 H835 0.930 . S
C843 C844 1.355 . S
C843 C845 1.415 1_565 S
C844 C843 1.355 . S
C844 C846 1.419 . S
C845 C840 1.425 . S
C845 C842 1.409 . S
C845 C843 1.415 1_545 S
C846 H836 0.930 . S
C846 C844 1.419 . S
C846 C847 1.362 . S
C847 H837 0.930 . S
C847 C840 1.409 1_565 S
C847 C846 1.362 . S
H848 C854 0.930 . S
H849 C857 0.930 . S
H850 C858 0.930 . S
H851 C859 0.930 . S
H852 C862 0.930 . S
H853 C863 0.930 . S
C854 H848 0.930 . S
C854 C855 1.355 . S
C854 C856 1.415 . S
C855 C854 1.355 . S
C855 C857 1.419 . S
C856 C854 1.415 . S
C856 C861 1.425 . S
C856 C863 1.409 . S
C857 H849 0.930 . S
C857 C855 1.419 . S
C857 C858 1.362 . S
C858 H850 0.930 . S
C858 C857 1.362 . S
C858 C861 1.409 . S
C859 H851 0.930 . S
C859 C860 1.355 . S
C859 C861 1.415 . S
C860 C859 1.355 . S
C860 C862 1.419 . S
C861 C856 1.425 . S
C861 C858 1.409 . S
C861 C859 1.415 . S
C862 H852 0.930 . S
C862 C860 1.419 . S
C862 C863 1.362 . S
C863 H853 0.930 . S
C863 C856 1.409 . S
C863 C862 1.362 . S
H864 C870 0.930 . S
H865 C873 0.930 . S
H866 C874 0.930 . S
H867 C875 0.930 . S
H868 C878 0.930 . S
H869 C879 0.928 1_565 S
C870 H864 0.930 . S
C870 C871 1.355 . S
C870 C872 1.415 . S
C871 C870 1.355 . S
C871 C873 1.419 . S
C872 C870 1.415 . S
C872 C877 1.425 . S
C872 C879 1.401 1_565 S
C873 H865 0.930 . S
C873 C871 1.419 . S
C873 C874 1.362 . S
C874 H866 0.930 . S
C874 C873 1.362 . S
C874 C877 1.409 . S
C875 H867 0.930 . S
C875 C876 1.355 . S
C875 C877 1.415 1_545 S
C876 C875 1.355 . S
C876 C878 1.419 . S
C877 C872 1.425 . S
C877 C874 1.409 . S
C877 C875 1.415 1_565 S
C878 H868 0.930 . S
C878 C876 1.419 . S
C878 C879 1.374 . S
C879 H869 0.928 1_545 S
C879 C872 1.401 1_545 S
C879 C878 1.374 . S
H880 C886 0.930 . S
H881 C889 0.930 1_545 S
H882 C890 0.930 . S
H883 C891 0.930 . S
H884 C894 0.930 . S
H885 C895 0.930 . S
C886 H880 0.930 . S
C886 C887 1.355 . S
C886 C888 1.415 . S
C887 C886 1.355 . S
C887 C889 1.419 . S
C888 C886 1.415 . S
C888 C893 1.425 . S
C888 C895 1.409 . S
C889 H881 0.930 1_565 S
C889 C887 1.419 . S
C889 C890 1.362 . S
C890 H882 0.930 . S
C890 C889 1.362 . S
C890 C893 1.409 . S
C891 H883 0.930 . S
C891 C892 1.355 . S
C891 C893 1.415 . S
C892 C891 1.355 . S
C892 C894 1.419 . S
C893 C888 1.425 . S
C893 C890 1.409 . S
C893 C891 1.415 . S
C894 H884 0.930 . S
C894 C892 1.419 . S
C894 C895 1.362 . S
C895 H885 0.930 . S
C895 C888 1.409 . S
C895 C894 1.362 . S
H896 C902 0.930 . S
H897 C905 0.930 . S
H898 C906 0.930 . S
H899 C907 0.930 . S
H900 C910 0.930 . S
H901 C911 0.930 . S
C902 H896 0.930 . S
C902 C903 1.355 . S
C902 C904 1.415 . S
C903 C902 1.355 . S
C903 C905 1.419 . S
C904 C902 1.415 . S
C904 C909 1.425 . S
C904 C911 1.409 . S
C905 H897 0.930 . S
C905 C903 1.419 . S
C905 C906 1.362 . S
C906 H898 0.930 . S
C906 C905 1.362 . S
C906 C909 1.409 . S
C907 H899 0.930 . S
C907 C908 1.355 . S
C907 C909 1.415 1_565 S
C908 C907 1.355 . S
C908 C910 1.419 . S
C909 C904 1.425 . S
C909 C906 1.409 . S
C909 C907 1.415 1_545 S
C910 H900 0.930 . S
C910 C908 1.419 . S
C910 C911 1.362 1_565 S
C911 H901 0.930 . S
C911 C904 1.409 . S
C911 C910 1.362 1_545 S
H912 C918 0.930 . S
H913 C921 0.930 . S
H914 C922 0.930 . S
H915 C923 0.930 . S
H916 C926 0.930 . S
H917 C927 0.930 . S
C918 H912 0.930 . S
C918 C919 1.355 . S
C918 C920 1.415 . S
C919 C918 1.355 . S
C919 C921 1.419 . S
C920 C918 1.415 . S
C920 C925 1.425 . S
C920 C927 1.409 . S
C921 H913 0.930 . S
C921 C919 1.419 . S
C921 C922 1.362 . S
C922 H914 0.930 . S
C922 C921 1.362 . S
C922 C925 1.409 . S
C923 H915 0.930 . S
C923 C924 1.355 . S
C923 C925 1.415 . S
C924 C923 1.355 . S
C924 C926 1.419 . S
C925 C920 1.425 . S
C925 C922 1.409 . S
C925 C923 1.415 . S
C926 H916 0.930 . S
C926 C924 1.419 . S
C926 C927 1.362 . S
C927 H917 0.930 . S
C927 C920 1.409 . S
C927 C926 1.362 . S
H928 C934 0.930 . S
H929 C937 0.930 . S
H930 C938 0.930 . S
H931 C939 0.930 . S
H932 C942 0.930 . S
H933 C943 0.930 . S
C934 H928 0.930 . S
C934 C935 1.355 . S
C934 C936 1.415 . S
C935 C934 1.355 . S
C935 C937 1.419 . S
C936 C934 1.415 . S
C936 C941 1.425 . S
C936 C943 1.409 1_565 S
C937 H929 0.930 . S
C937 C935 1.419 . S
C937 C938 1.362 . S
C938 H930 0.930 . S
C938 C937 1.362 . S
C938 C941 1.409 . S
C939 H931 0.930 . S
C939 C940 1.355 . S
C939 C941 1.415 1_545 S
C940 C939 1.355 . S
C940 C942 1.419 . S
C941 C936 1.425 . S
C941 C938 1.409 . S
C941 C939 1.415 1_565 S
C942 H932 0.930 . S
C942 C940 1.419 . S
C942 C943 1.362 . S
C943 H933 0.930 . S
C943 C936 1.409 1_545 S
C943 C942 1.362 . S
H944 C950 0.930 . S
H945 C953 0.930 . S
H946 C954 0.930 . S
H947 C955 0.930 . S
H948 C958 0.930 . S
H949 C959 0.930 . S
C950 H944 0.930 . S
C950 C951 1.355 . S
C950 C952 1.415 . S
C951 C950 1.355 . S
C951 C953 1.419 . S
C952 C950 1.415 . S
C952 C957 1.425 . S
C952 C959 1.409 . S
C953 H945 0.930 . S
C953 C951 1.419 . S
C953 C954 1.362 . S
C954 H946 0.930 . S
C954 C953 1.362 . S
C954 C957 1.409 . S
C955 H947 0.930 . S
C955 C956 1.355 . S
C955 C957 1.415 . S
C956 C955 1.355 . S
C956 C958 1.419 . S
C957 C952 1.425 . S
C957 C954 1.409 . S
C957 C955 1.415 . S
C958 H948 0.930 . S
C958 C956 1.419 . S
C958 C959 1.362 . S
C959 H949 0.930 . S
C959 C952 1.409 . S
C959 C958 1.362 . S
H960 C966 0.930 . S
H961 C969 0.930 . S
H962 C970 0.930 . S
H963 C971 0.930 . S
H964 C974 0.930 . S
H965 C975 0.930 . S
C966 H960 0.930 . S
C966 C967 1.355 . S
C966 C968 1.415 . S
C967 C966 1.355 . S
C967 C969 1.419 . S
C968 C966 1.415 . S
C968 C973 1.425 . S
C968 C975 1.409 . S
C969 H961 0.930 . S
C969 C967 1.419 . S
C969 C970 1.362 . S
C970 H962 0.930 . S
C970 C969 1.362 . S
C970 C973 1.409 . S
C971 H963 0.930 . S
C971 C972 1.355 . S
C971 C973 1.415 . S
C972 C971 1.355 . S
C972 C974 1.419 . S
C973 C968 1.425 . S
C973 C970 1.409 . S
C973 C971 1.415 . S
C974 H964 0.930 . S
C974 C972 1.419 . S
C974 C975 1.362 . S
C975 H965 0.930 . S
C975 C968 1.409 . S
C975 C974 1.362 . S
H976 C982 0.930 . S
H977 C985 0.930 . S
H978 C986 0.930 . S
H979 C987 0.923 1_455 S
H980 C990 0.930 . S
H981 C991 0.930 . S
C982 H976 0.930 . S
C982 C983 1.355 . S
C982 C984 1.415 . S
C983 C982 1.355 . S
C983 C985 1.419 . S
C984 C982 1.415 . S
C984 C989 1.425 . S
C984 C991 1.409 1_455 S
C985 H977 0.930 . S
C985 C983 1.419 . S
C985 C986 1.362 . S
C986 H978 0.930 . S
C986 C985 1.362 . S
C986 C989 1.409 . S
C987 H979 0.923 1_655 S
C987 C988 1.379 . S
C987 C989 1.397 1_655 S
C988 C987 1.379 . S
C988 C990 1.419 . S
C989 C984 1.425 . S
C989 C986 1.409 . S
C989 C987 1.397 1_455 S
C990 H980 0.930 . S
C990 C988 1.419 . S
C990 C991 1.362 . S
C991 H981 0.930 . S
C991 C984 1.409 1_655 S
C991 C990 1.362 . S
H992 C998 0.930 . S
H993 C1001 0.930 . S
H994 C1002 0.930 . S
H995 C1003 0.930 . S
H996 C1006 0.930 . S
H997 C1007 0.930 . S
C998 H992 0.930 . S
C998 C999 1.355 . S
C998 C1000 1.415 . S
C999 C998 1.355 . S
C999 C1001 1.419 . S
C1000 C998 1.415 . S
C1000 C1005 1.425 . S
C1000 C1007 1.409 . S
C1001 H993 0.930 . S
C1001 C999 1.419 . S
C1001 C1002 1.362 . S
C1002 H994 0.930 . S
C1002 C1001 1.362 . S
C1002 C1005 1.409 . S
C1003 H995 0.930 . S
C1003 C1004 1.355 . S
C1003 C1005 1.415 . S
C1004 C1003 1.355 . S
C1004 C1006 1.419 . S
C1005 C1000 1.425 . S
C1005 C1002 1.409 . S
C1005 C1003 1.415 . S
C1006 H996 0.930 . S
C1006 C1004 1.419 . S
C1006 C1007 1.362 . S
C1007 H997 0.930 . S
C1007 C1000 1.409 . S
C1007 C1006 1.362 . S
H1008 C1014 0.930 . S
H1009 C1017 0.930 . S
H1010 C1018 0.930 . S
H1011 C1019 0.930 . S
H1012 C1022 0.930 . S
H1013 C1023 0.930 . S
C1014 H1008 0.930 . S
C1014 C1015 1.355 . S
C1014 C1016 1.415 . S
C1015 C1014 1.355 . S
C1015 C1017 1.419 . S
C1016 C1014 1.415 . S
C1016 C1021 1.425 . S
C1016 C1023 1.409 1_655 S
C1017 H1009 0.930 . S
C1017 C1015 1.419 . S
C1017 C1018 1.362 . S
C1018 H1010 0.930 . S
C1018 C1017 1.362 . S
C1018 C1021 1.409 . S
C1019 H1011 0.930 . S
C1019 C1020 1.355 . S
C1019 C1021 1.415 1_455 S
C1020 C1019 1.355 . S
C1020 C1022 1.419 . S
C1021 C1016 1.425 . S
C1021 C1018 1.409 . S
C1021 C1019 1.415 1_655 S
C1022 H1012 0.930 . S
C1022 C1020 1.419 . S
C1022 C1023 1.362 . S
C1023 H1013 0.930 . S
C1023 C1016 1.409 1_455 S
C1023 C1022 1.362 . S
H1024 C1030 0.930 . S
H1025 C1033 0.930 . S
H1026 C1034 0.930 . S
H1027 C1035 0.930 . S
H1028 C1038 0.930 . S
H1029 C1039 0.930 . S
C1030 H1024 0.930 . S
C1030 C1031 1.355 . S
C1030 C1032 1.415 . S
C1031 C1030 1.355 . S
C1031 C1033 1.419 . S
C1032 C1030 1.415 . S
C1032 C1037 1.425 . S
C1032 C1039 1.409 . S
C1033 H1025 0.930 . S
C1033 C1031 1.419 . S
C1033 C1034 1.362 . S
C1034 H1026 0.930 . S
C1034 C1033 1.362 . S
C1034 C1037 1.409 . S
C1035 H1027 0.930 . S
C1035 C1036 1.355 . S
C1035 C1037 1.415 . S
C1036 C1035 1.355 . S
C1036 C1038 1.419 . S
C1037 C1032 1.425 . S
C1037 C1034 1.409 . S
C1037 C1035 1.415 . S
C1038 H1028 0.930 . S
C1038 C1036 1.419 . S
C1038 C1039 1.362 . S
C1039 H1029 0.930 . S
C1039 C1032 1.409 . S
C1039 C1038 1.362 . S
H1040 C1046 0.930 . S
H1041 C1049 0.930 . S
H1042 C1050 0.930 1_655 S
H1043 C1051 0.930 . S
H1044 C1054 0.930 . S
H1045 C1055 0.930 . S
C1046 H1040 0.930 . S
C1046 C1047 1.355 . S
C1046 C1048 1.415 . S
C1047 C1046 1.355 . S
C1047 C1049 1.419 . S
C1048 C1046 1.415 . S
C1048 C1053 1.425 . S
C1048 C1055 1.409 . S
C1049 H1041 0.930 . S
C1049 C1047 1.419 . S
C1049 C1050 1.362 . S
C1050 H1042 0.930 1_455 S
C1050 C1049 1.362 . S
C1050 C1053 1.409 . S
C1051 H1043 0.930 . S
C1051 C1052 1.355 . S
C1051 C1053 1.415 1_655 S
C1052 C1051 1.355 . S
C1052 C1054 1.419 . S
C1053 C1048 1.425 . S
C1053 C1050 1.409 . S
C1053 C1051 1.415 1_455 S
C1054 H1044 0.930 . S
C1054 C1052 1.419 . S
C1054 C1055 1.362 1_655 S
C1055 H1045 0.930 . S
C1055 C1048 1.409 . S
C1055 C1054 1.362 1_455 S
H1056 C1062 0.930 . S
H1057 C1065 0.930 . S
H1058 C1066 0.930 . S
H1059 C1067 0.930 . S
H1060 C1070 0.930 . S
H1061 C1071 0.930 . S
C1062 H1056 0.930 . S
C1062 C1063 1.355 . S
C1062 C1064 1.415 . S
C1063 C1062 1.355 . S
C1063 C1065 1.419 . S
C1064 C1062 1.415 . S
C1064 C1069 1.425 . S
C1064 C1071 1.409 . S
C1065 H1057 0.930 . S
C1065 C1063 1.419 . S
C1065 C1066 1.362 . S
C1066 H1058 0.930 . S
C1066 C1065 1.362 . S
C1066 C1069 1.409 . S
C1067 H1059 0.930 . S
C1067 C1068 1.355 . S
C1067 C1069 1.415 . S
C1068 C1067 1.355 . S
C1068 C1070 1.419 . S
C1069 C1064 1.425 . S
C1069 C1066 1.409 . S
C1069 C1067 1.415 . S
C1070 H1060 0.930 . S
C1070 C1068 1.419 . S
C1070 C1071 1.362 . S
C1071 H1061 0.930 . S
C1071 C1064 1.409 . S
C1071 C1070 1.362 . S
H1072 C1078 0.930 . S
H1073 C1081 0.930 . S
H1074 C1082 0.930 . S
H1075 C1083 0.930 . S
H1076 C1086 0.930 . S
H1077 C1087 0.930 . S
C1078 H1072 0.930 . S
C1078 C1079 1.355 . S
C1078 C1080 1.415 . S
C1079 C1078 1.355 . S
C1079 C1081 1.419 . S
C1080 C1078 1.415 . S
C1080 C1085 1.425 . S
C1080 C1087 1.409 . S
C1081 H1073 0.930 . S
C1081 C1079 1.419 . S
C1081 C1082 1.362 . S
C1082 H1074 0.930 . S
C1082 C1081 1.362 . S
C1082 C1085 1.409 . S
C1083 H1075 0.930 . S
C1083 C1084 1.355 . S
C1083 C1085 1.415 . S
C1084 C1083 1.355 . S
C1084 C1086 1.419 . S
C1085 C1080 1.425 . S
C1085 C1082 1.409 . S
C1085 C1083 1.415 . S
C1086 H1076 0.930 . S
C1086 C1084 1.419 . S
C1086 C1087 1.362 . S
C1087 H1077 0.930 . S
C1087 C1080 1.409 . S
C1087 C1086 1.362 . S
H1088 C1094 0.930 . S
H1089 C1097 0.930 1_455 S
H1090 C1098 0.930 . S
H1091 C1099 0.930 . S
H1092 C1102 0.930 . S
H1093 C1103 0.930 . S
C1094 H1088 0.930 . S
C1094 C1095 1.355 . S
C1094 C1096 1.415 . S
C1095 C1094 1.355 . S
C1095 C1097 1.419 . S
C1096 C1094 1.415 . S
C1096 C1101 1.425 . S
C1096 C1103 1.409 . S
C1097 H1089 0.930 1_655 S
C1097 C1095 1.419 . S
C1097 C1098 1.362 . S
C1098 H1090 0.930 . S
C1098 C1097 1.362 . S
C1098 C1101 1.409 . S
C1099 H1091 0.930 . S
C1099 C1100 1.355 . S
C1099 C1101 1.415 . S
C1100 C1099 1.355 . S
C1100 C1102 1.419 . S
C1101 C1096 1.425 . S
C1101 C1098 1.409 . S
C1101 C1099 1.415 . S
C1102 H1092 0.930 . S
C1102 C1100 1.419 . S
C1102 C1103 1.362 . S
C1103 H1093 0.930 . S
C1103 C1096 1.409 . S
C1103 C1102 1.362 . S
H1104 C1110 0.930 . S
H1105 C1113 0.930 . S
H1106 C1114 0.930 . S
H1107 C1115 0.930 . S
H1108 C1118 0.930 . S
H1109 C1119 0.930 . S
C1110 H1104 0.930 . S
C1110 C1111 1.355 . S
C1110 C1112 1.415 . S
C1111 C1110 1.355 . S
C1111 C1113 1.419 . S
C1112 C1110 1.415 . S
C1112 C1117 1.425 . S
C1112 C1119 1.409 . S
C1113 H1105 0.930 . S
C1113 C1111 1.419 . S
C1113 C1114 1.362 . S
C1114 H1106 0.930 . S
C1114 C1113 1.362 . S
C1114 C1117 1.409 . S
C1115 H1107 0.930 . S
C1115 C1116 1.355 . S
C1115 C1117 1.415 . S
C1116 C1115 1.355 . S
C1116 C1118 1.419 . S
C1117 C1112 1.425 . S
C1117 C1114 1.409 . S
C1117 C1115 1.415 . S
C1118 H1108 0.930 . S
C1118 C1116 1.419 . S
C1118 C1119 1.362 . S
C1119 H1109 0.930 . S
C1119 C1112 1.409 . S
C1119 C1118 1.362 . S
H1120 C1126 0.930 . S
H1121 C1129 0.930 . S
H1122 C1130 0.930 . S
H1123 C1131 0.930 . S
H1124 C1134 0.930 . S
H1125 C1135 0.930 . S
C1126 H1120 0.930 . S
C1126 C1127 1.355 . S
C1126 C1128 1.415 . S
C1127 C1126 1.355 . S
C1127 C1129 1.419 . S
C1128 C1126 1.415 . S
C1128 C1133 1.425 . S
C1128 C1135 1.409 . S
C1129 H1121 0.930 . S
C1129 C1127 1.419 . S
C1129 C1130 1.362 . S
C1130 H1122 0.930 . S
C1130 C1129 1.362 . S
C1130 C1133 1.409 . S
C1131 H1123 0.930 . S
C1131 C1132 1.355 . S
C1131 C1133 1.415 1_554 S
C1132 C1131 1.355 . S
C1132 C1134 1.419 . S
C1133 C1128 1.425 . S
C1133 C1130 1.409 . S
C1133 C1131 1.415 1_556 S
C1134 H1124 0.930 . S
C1134 C1132 1.419 . S
C1134 C1135 1.362 1_554 S
C1135 H1125 0.930 . S
C1135 C1128 1.409 . S
C1135 C1134 1.362 1_556 S
H1136 C1142 0.930 . S
H1137 C1145 0.930 . S
H1138 C1146 0.930 . S
H1139 C1147 0.930 . S
H1140 C1150 0.930 . S
H1141 C1151 0.930 . S
C1142 H1136 0.930 . S
C1142 C1143 1.355 . S
C1142 C1144 1.415 . S
C1143 C1142 1.355 . S
C1143 C1145 1.419 . S
C1144 C1142 1.415 . S
C1144 C1149 1.425 . S
C1144 C1151 1.409 . S
C1145 H1137 0.930 . S
C1145 C1143 1.419 . S
C1145 C1146 1.362 . S
C1146 H1138 0.930 . S
C1146 C1145 1.362 . S
C1146 C1149 1.409 . S
C1147 H1139 0.930 . S
C1147 C1148 1.355 . S
C1147 C1149 1.415 . S
C1148 C1147 1.355 . S
C1148 C1150 1.419 . S
C1149 C1144 1.425 . S
C1149 C1146 1.409 . S
C1149 C1147 1.415 . S
C1150 H1140 0.930 . S
C1150 C1148 1.419 . S
C1150 C1151 1.362 . S
C1151 H1141 0.930 . S
C1151 C1144 1.409 . S
C1151 C1150 1.362 . S
H1152 C1158 0.930 . S
H1153 C1161 0.930 . S
H1154 C1162 0.930 . S
H1155 C1163 0.930 . S
H1156 C1166 0.930 . S
H1157 C1167 0.930 . S
C1158 H1152 0.930 . S
C1158 C1159 1.355 . S
C1158 C1160 1.415 . S
C1159 C1158 1.355 . S
C1159 C1161 1.419 . S
C1160 C1158 1.415 . S
C1160 C1165 1.425 . S
C1160 C1167 1.409 . S
C1161 H1153 0.930 . S
C1161 C1159 1.419 . S
C1161 C1162 1.362 . S
C1162 H1154 0.930 . S
C1162 C1161 1.362 . S
C1162 C1165 1.409 . S
C1163 H1155 0.930 . S
C1163 C1164 1.355 . S
C1163 C1165 1.415 . S
C1164 C1163 1.355 . S
C1164 C1166 1.419 . S
C1165 C1160 1.425 . S
C1165 C1162 1.409 . S
C1165 C1163 1.415 . S
C1166 H1156 0.930 . S
C1166 C1164 1.419 . S
C1166 C1167 1.362 . S
C1167 H1157 0.930 . S
C1167 C1160 1.409 . S
C1167 C1166 1.362 . S
H1168 C1174 0.930 . S
H1169 C1177 0.930 . S
H1170 C1178 0.930 . S
H1171 C1179 0.930 . S
H1172 C1182 0.930 . S
H1173 C1183 0.930 . S
C1174 H1168 0.930 . S
C1174 C1175 1.355 . S
C1174 C1176 1.415 . S
C1175 C1174 1.355 . S
C1175 C1177 1.419 . S
C1176 C1174 1.415 . S
C1176 C1181 1.425 . S
C1176 C1183 1.409 . S
C1177 H1169 0.930 . S
C1177 C1175 1.419 . S
C1177 C1178 1.362 . S
C1178 H1170 0.930 . S
C1178 C1177 1.362 . S
C1178 C1181 1.409 . S
C1179 H1171 0.930 . S
C1179 C1180 1.355 . S
C1179 C1181 1.415 . S
C1180 C1179 1.355 . S
C1180 C1182 1.419 . S
C1181 C1176 1.425 . S
C1181 C1178 1.409 . S
C1181 C1179 1.415 . S
C1182 H1172 0.930 . S
C1182 C1180 1.419 . S
C1182 C1183 1.362 . S
C1183 H1173 0.930 . S
C1183 C1176 1.409 . S
C1183 C1182 1.362 . S
H1184 C1190 0.930 . S
H1185 C1193 0.930 . S
H1186 C1194 0.930 . S
H1187 C1195 0.930 1_554 S
H1188 C1198 0.930 . S
H1189 C1199 0.930 . S
C1190 H1184 0.930 . S
C1190 C1191 1.355 . S
C1190 C1192 1.415 . S
C1191 C1190 1.355 . S
C1191 C1193 1.419 . S
C1192 C1190 1.415 . S
C1192 C1197 1.425 . S
C1192 C1199 1.409 1_554 S
C1193 H1185 0.930 . S
C1193 C1191 1.419 . S
C1193 C1194 1.362 . S
C1194 H1186 0.930 . S
C1194 C1193 1.362 . S
C1194 C1197 1.409 . S
C1195 H1187 0.930 1_556 S
C1195 C1196 1.355 . S
C1195 C1197 1.415 1_556 S
C1196 C1195 1.355 . S
C1196 C1198 1.419 . S
C1197 C1192 1.425 . S
C1197 C1194 1.409 . S
C1197 C1195 1.415 1_554 S
C1198 H1188 0.930 . S
C1198 C1196 1.419 . S
C1198 C1199 1.362 . S
C1199 H1189 0.930 . S
C1199 C1192 1.409 1_556 S
C1199 C1198 1.362 . S
H1200 C1206 0.930 . S
H1201 C1209 0.930 . S
H1202 C1210 0.930 . S
H1203 C1211 0.930 . S
H1204 C1214 0.930 . S
H1205 C1215 0.930 . S
C1206 H1200 0.930 . S
C1206 C1207 1.355 . S
C1206 C1208 1.415 . S
C1207 C1206 1.355 . S
C1207 C1209 1.419 . S
C1208 C1206 1.415 . S
C1208 C1213 1.425 . S
C1208 C1215 1.409 . S
C1209 H1201 0.930 . S
C1209 C1207 1.419 . S
C1209 C1210 1.362 . S
C1210 H1202 0.930 . S
C1210 C1209 1.362 . S
C1210 C1213 1.409 . S
C1211 H1203 0.930 . S
C1211 C1212 1.355 . S
C1211 C1213 1.415 . S
C1212 C1211 1.355 . S
C1212 C1214 1.419 . S
C1213 C1208 1.425 . S
C1213 C1210 1.409 . S
C1213 C1211 1.415 . S
C1214 H1204 0.930 . S
C1214 C1212 1.419 . S
C1214 C1215 1.362 . S
C1215 H1205 0.930 . S
C1215 C1208 1.409 . S
C1215 C1214 1.362 . S
H1216 C1222 0.930 . S
H1217 C1225 0.930 . S
H1218 C1226 0.930 . S
H1219 C1227 0.934 . S
H1220 C1230 0.930 . S
H1221 C1231 0.930 . S
C1222 H1216 0.930 . S
C1222 C1223 1.355 . S
C1222 C1224 1.415 . S
C1223 C1222 1.355 . S
C1223 C1225 1.419 . S
C1224 C1222 1.415 . S
C1224 C1229 1.425 . S
C1224 C1231 1.409 1_565 S
C1225 H1217 0.930 . S
C1225 C1223 1.419 . S
C1225 C1226 1.362 . S
C1226 H1218 0.930 . S
C1226 C1225 1.362 . S
C1226 C1229 1.409 . S
C1227 H1219 0.934 . S
C1227 C1228 1.355 . S
C1227 C1229 1.415 1_545 S
C1228 C1227 1.355 . S
C1228 C1230 1.419 . S
C1229 C1224 1.425 . S
C1229 C1226 1.409 . S
C1229 C1227 1.415 1_565 S
C1230 H1220 0.930 . S
C1230 C1228 1.419 . S
C1230 C1231 1.362 . S
C1231 H1221 0.930 . S
C1231 C1224 1.409 1_545 S
C1231 C1230 1.362 . S
H1232 C1238 0.930 . S
H1233 C1241 0.930 . S
H1234 C1242 0.930 . S
H1235 C1243 0.930 . S
H1236 C1246 0.930 . S
H1237 C1247 0.930 . S
C1238 H1232 0.930 . S
C1238 C1239 1.355 . S
C1238 C1240 1.415 . S
C1239 C1238 1.355 . S
C1239 C1241 1.419 . S
C1240 C1238 1.415 . S
C1240 C1245 1.425 . S
C1240 C1247 1.409 . S
C1241 H1233 0.930 . S
C1241 C1239 1.419 . S
C1241 C1242 1.362 . S
C1242 H1234 0.930 . S
C1242 C1241 1.362 . S
C1242 C1245 1.409 . S
C1243 H1235 0.930 . S
C1243 C1244 1.355 . S
C1243 C1245 1.415 . S
C1244 C1243 1.355 . S
C1244 C1246 1.419 . S
C1245 C1240 1.425 . S
C1245 C1242 1.409 . S
C1245 C1243 1.415 . S
C1246 H1236 0.930 . S
C1246 C1244 1.419 . S
C1246 C1247 1.362 . S
C1247 H1237 0.930 . S
C1247 C1240 1.409 . S
C1247 C1246 1.362 . S
H1248 C1254 0.930 . S
H1249 C1257 0.930 . S
H1250 C1258 0.930 . S
H1251 C1259 0.930 1_545 S
H1252 C1262 0.930 . S
H1253 C1263 0.930 . S
C1254 H1248 0.930 . S
C1254 C1255 1.355 . S
C1254 C1256 1.415 . S
C1255 C1254 1.355 . S
C1255 C1257 1.419 . S
C1256 C1254 1.415 . S
C1256 C1261 1.425 . S
C1256 C1263 1.409 1_545 S
C1257 H1249 0.930 . S
C1257 C1255 1.419 . S
C1257 C1258 1.362 . S
C1258 H1250 0.930 . S
C1258 C1257 1.362 . S
C1258 C1261 1.409 . S
C1259 H1251 0.930 1_565 S
C1259 C1260 1.355 . S
C1259 C1261 1.415 1_565 S
C1260 C1259 1.355 . S
C1260 C1262 1.419 . S
C1261 C1256 1.425 . S
C1261 C1258 1.409 . S
C1261 C1259 1.415 1_545 S
C1262 H1252 0.930 . S
C1262 C1260 1.419 . S
C1262 C1263 1.362 . S
C1263 H1253 0.930 . S
C1263 C1256 1.409 1_565 S
C1263 C1262 1.362 . S
H1264 C1270 0.930 . S
H1265 C1273 0.930 . S
H1266 C1274 0.930 . S
H1267 C1275 0.930 . S
H1268 C1278 0.930 . S
H1269 C1279 0.930 . S
C1270 H1264 0.930 . S
C1270 C1271 1.355 . S
C1270 C1272 1.415 . S
C1271 C1270 1.355 . S
C1271 C1273 1.419 . S
C1272 C1270 1.415 . S
C1272 C1277 1.425 . S
C1272 C1279 1.409 . S
C1273 H1265 0.930 . S
C1273 C1271 1.419 . S
C1273 C1274 1.362 . S
C1274 H1266 0.930 . S
C1274 C1273 1.362 . S
C1274 C1277 1.409 . S
C1275 H1267 0.930 . S
C1275 C1276 1.355 . S
C1275 C1277 1.415 . S
C1276 C1275 1.355 . S
C1276 C1278 1.419 . S
C1277 C1272 1.425 . S
C1277 C1274 1.409 . S
C1277 C1275 1.415 . S
C1278 H1268 0.930 . S
C1278 C1276 1.419 . S
C1278 C1279 1.362 . S
C1279 H1269 0.930 . S
C1279 C1272 1.409 . S
C1279 C1278 1.362 . S
H1280 C1286 0.930 . S
H1281 C1289 0.930 . S
H1282 C1290 0.930 . S
H1283 C1291 0.930 . S
H1284 C1294 0.930 . S
H1285 C1295 0.930 . S
C1286 H1280 0.930 . S
C1286 C1287 1.355 . S
C1286 C1288 1.415 . S
C1287 C1286 1.355 . S
C1287 C1289 1.419 . S
C1288 C1286 1.415 . S
C1288 C1293 1.425 . S
C1288 C1295 1.409 1_565 S
C1289 H1281 0.930 . S
C1289 C1287 1.419 . S
C1289 C1290 1.362 . S
C1290 H1282 0.930 . S
C1290 C1289 1.362 . S
C1290 C1293 1.409 . S
C1291 H1283 0.930 . S
C1291 C1292 1.355 . S
C1291 C1293 1.415 1_545 S
C1292 C1291 1.355 . S
C1292 C1294 1.419 . S
C1293 C1288 1.425 . S
C1293 C1290 1.409 . S
C1293 C1291 1.415 1_565 S
C1294 H1284 0.930 . S
C1294 C1292 1.419 . S
C1294 C1295 1.362 . S
C1295 H1285 0.930 . S
C1295 C1288 1.409 1_545 S
C1295 C1294 1.362 . S
H1296 C1302 0.930 . S
H1297 C1305 0.930 . S
H1298 C1306 0.930 . S
H1299 C1307 0.930 . S
H1300 C1310 0.930 . S
H1301 C1311 0.930 . S
C1302 H1296 0.930 . S
C1302 C1303 1.355 . S
C1302 C1304 1.415 . S
C1303 C1302 1.355 . S
C1303 C1305 1.419 . S
C1304 C1302 1.415 . S
C1304 C1309 1.425 . S
C1304 C1311 1.409 . S
C1305 H1297 0.930 . S
C1305 C1303 1.419 . S
C1305 C1306 1.362 . S
C1306 H1298 0.930 . S
C1306 C1305 1.362 . S
C1306 C1309 1.409 . S
C1307 H1299 0.930 . S
C1307 C1308 1.355 . S
C1307 C1309 1.415 . S
C1308 C1307 1.355 . S
C1308 C1310 1.419 . S
C1309 C1304 1.425 . S
C1309 C1306 1.409 . S
C1309 C1307 1.415 . S
C1310 H1300 0.930 . S
C1310 C1308 1.419 . S
C1310 C1311 1.362 . S
C1311 H1301 0.930 . S
C1311 C1304 1.409 . S
C1311 C1310 1.362 . S
H1312 C1318 0.930 . S
H1313 C1321 0.930 . S
H1314 C1322 0.930 . S
H1315 C1323 0.930 . S
H1316 C1326 0.930 . S
H1317 C1327 0.930 1_545 S
C1318 H1312 0.930 . S
C1318 C1319 1.355 . S
C1318 C1320 1.415 . S
C1319 C1318 1.355 . S
C1319 C1321 1.419 . S
C1320 C1318 1.415 . S
C1320 C1325 1.425 . S
C1320 C1327 1.409 1_545 S
C1321 H1313 0.930 . S
C1321 C1319 1.419 . S
C1321 C1322 1.362 . S
C1322 H1314 0.930 . S
C1322 C1321 1.362 . S
C1322 C1325 1.409 . S
C1323 H1315 0.930 . S
C1323 C1324 1.355 . S
C1323 C1325 1.415 1_565 S
C1324 C1323 1.355 . S
C1324 C1326 1.419 . S
C1325 C1320 1.425 . S
C1325 C1322 1.409 . S
C1325 C1323 1.415 1_545 S
C1326 H1316 0.930 . S
C1326 C1324 1.419 . S
C1326 C1327 1.362 . S
C1327 H1317 0.930 1_565 S
C1327 C1320 1.409 1_565 S
C1327 C1326 1.362 . S
H1328 C1334 0.930 . S
H1329 C1337 0.930 . S
H1330 C1338 0.930 . S
H1331 C1339 0.930 . S
H1332 C1342 0.930 . S
H1333 C1343 0.930 . S
C1334 H1328 0.930 . S
C1334 C1335 1.355 . S
C1334 C1336 1.415 . S
C1335 C1334 1.355 . S
C1335 C1337 1.419 . S
C1336 C1334 1.415 . S
C1336 C1341 1.425 . S
C1336 C1343 1.409 . S
C1337 H1329 0.930 . S
C1337 C1335 1.419 . S
C1337 C1338 1.362 . S
C1338 H1330 0.930 . S
C1338 C1337 1.362 . S
C1338 C1341 1.409 . S
C1339 H1331 0.930 . S
C1339 C1340 1.355 . S
C1339 C1341 1.415 . S
C1340 C1339 1.355 . S
C1340 C1342 1.419 . S
C1341 C1336 1.425 . S
C1341 C1338 1.409 . S
C1341 C1339 1.415 . S
C1342 H1332 0.930 . S
C1342 C1340 1.419 . S
C1342 C1343 1.362 . S
C1343 H1333 0.930 . S
C1343 C1336 1.409 . S
C1343 C1342 1.362 . S
H1344 C1350 0.930 . S
H1345 C1353 0.930 . S
H1346 C1354 0.930 . S
H1347 C1355 0.930 . S
H1348 C1358 0.930 . S
H1349 C1359 0.930 . S
C1350 H1344 0.930 . S
C1350 C1351 1.355 . S
C1350 C1352 1.415 . S
C1351 C1350 1.355 . S
C1351 C1353 1.419 . S
C1352 C1350 1.415 . S
C1352 C1357 1.425 . S
C1352 C1359 1.409 . S
C1353 H1345 0.930 . S
C1353 C1351 1.419 . S
C1353 C1354 1.362 . S
C1354 H1346 0.930 . S
C1354 C1353 1.362 . S
C1354 C1357 1.409 . S
C1355 H1347 0.930 . S
C1355 C1356 1.355 . S
C1355 C1357 1.415 . S
C1356 C1355 1.355 . S
C1356 C1358 1.419 . S
C1357 C1352 1.425 . S
C1357 C1354 1.409 . S
C1357 C1355 1.415 . S
C1358 H1348 0.930 . S
C1358 C1356 1.419 . S
C1358 C1359 1.362 . S
C1359 H1349 0.930 . S
C1359 C1352 1.409 . S
C1359 C1358 1.362 . S
H1360 C1366 0.930 . S
H1361 C1369 0.930 . S
H1362 C1370 0.930 1_455 S
H1363 C1371 0.930 . S
H1364 C1374 0.929 1_455 S
H1365 C1375 0.930 . S
C1366 H1360 0.930 . S
C1366 C1367 1.355 . S
C1366 C1368 1.415 . S
C1367 C1366 1.355 . S
C1367 C1369 1.419 . S
C1368 C1366 1.415 . S
C1368 C1373 1.425 . S
C1368 C1375 1.409 . S
C1369 H1361 0.930 . S
C1369 C1367 1.419 . S
C1369 C1370 1.362 . S
C1370 H1362 0.930 1_655 S
C1370 C1369 1.362 . S
C1370 C1373 1.409 . S
C1371 H1363 0.930 . S
C1371 C1372 1.355 . S
C1371 C1373 1.415 1_455 S
C1372 C1371 1.355 . S
C1372 C1374 1.419 1_455 S
C1373 C1368 1.425 . S
C1373 C1370 1.409 . S
C1373 C1371 1.415 1_655 S
C1374 H1364 0.929 1_655 S
C1374 C1372 1.419 1_655 S
C1374 C1375 1.362 . S
C1375 H1365 0.930 . S
C1375 C1368 1.409 . S
C1375 C1374 1.362 . S
H1376 C1382 0.930 . S
H1377 C1385 0.930 . S
H1378 C1386 0.930 . S
H1379 C1387 0.930 . S
H1380 C1390 0.930 . S
H1381 C1391 0.930 . S
C1382 H1376 0.930 . S
C1382 C1383 1.355 . S
C1382 C1384 1.415 . S
C1383 C1382 1.355 . S
C1383 C1385 1.419 . S
C1384 C1382 1.415 . S
C1384 C1389 1.425 . S
C1384 C1391 1.409 . S
C1385 H1377 0.930 . S
C1385 C1383 1.419 . S
C1385 C1386 1.362 . S
C1386 H1378 0.930 . S
C1386 C1385 1.362 . S
C1386 C1389 1.409 . S
C1387 H1379 0.930 . S
C1387 C1388 1.355 . S
C1387 C1389 1.415 . S
C1388 C1387 1.355 . S
C1388 C1390 1.419 . S
C1389 C1384 1.425 . S
C1389 C1386 1.409 . S
C1389 C1387 1.415 . S
C1390 H1380 0.930 . S
C1390 C1388 1.419 . S
C1390 C1391 1.362 . S
C1391 H1381 0.930 . S
C1391 C1384 1.409 . S
C1391 C1390 1.362 . S
H1392 C1398 0.930 . S
H1393 C1401 0.930 . S
H1394 C1402 0.930 . S
H1395 C1403 0.930 1_455 S
H1396 C1406 0.930 . S
H1397 C1407 0.930 . S
C1398 H1392 0.930 . S
C1398 C1399 1.355 . S
C1398 C1400 1.415 . S
C1399 C1398 1.355 . S
C1399 C1401 1.419 . S
C1400 C1398 1.415 . S
C1400 C1405 1.425 . S
C1400 C1407 1.409 1_455 S
C1401 H1393 0.930 . S
C1401 C1399 1.419 . S
C1401 C1402 1.362 . S
C1402 H1394 0.930 . S
C1402 C1401 1.362 . S
C1402 C1405 1.409 . S
C1403 H1395 0.930 1_655 S
C1403 C1404 1.355 . S
C1403 C1405 1.415 1_655 S
C1404 C1403 1.355 . S
C1404 C1406 1.419 . S
C1405 C1400 1.425 . S
C1405 C1402 1.409 . S
C1405 C1403 1.415 1_455 S
C1406 H1396 0.930 . S
C1406 C1404 1.419 . S
C1406 C1407 1.362 . S
C1407 H1397 0.930 . S
C1407 C1400 1.409 1_655 S
C1407 C1406 1.362 . S
H1408 C1414 0.930 . S
H1409 C1417 0.930 . S
H1410 C1418 0.930 . S
H1411 C1419 0.930 . S
H1412 C1422 0.930 . S
H1413 C1423 0.930 . S
C1414 H1408 0.930 . S
C1414 C1415 1.355 . S
C1414 C1416 1.415 . S
C1415 C1414 1.355 . S
C1415 C1417 1.419 . S
C1416 C1414 1.415 . S
C1416 C1421 1.425 . S
C1416 C1423 1.409 . S
C1417 H1409 0.930 . S
C1417 C1415 1.419 . S
C1417 C1418 1.362 . S
C1418 H1410 0.930 . S
C1418 C1417 1.362 . S
C1418 C1421 1.409 . S
C1419 H1411 0.930 . S
C1419 C1420 1.355 . S
C1419 C1421 1.415 . S
C1420 C1419 1.355 . S
C1420 C1422 1.419 . S
C1421 C1416 1.425 . S
C1421 C1418 1.409 . S
C1421 C1419 1.415 . S
C1422 H1412 0.930 . S
C1422 C1420 1.419 . S
C1422 C1423 1.362 . S
C1423 H1413 0.930 . S
C1423 C1416 1.409 . S
C1423 C1422 1.362 . S
H1424 C1430 0.930 . S
H1425 C1433 0.930 . S
H1426 C1434 0.930 1_455 S
H1427 C1435 0.930 . S
H1428 C1438 0.930 . S
H1429 C1439 0.930 . S
C1430 H1424 0.930 . S
C1430 C1431 1.355 . S
C1430 C1432 1.415 . S
C1431 C1430 1.355 . S
C1431 C1433 1.419 . S
C1432 C1430 1.415 . S
C1432 C1437 1.443 . S
C1432 C1439 1.409 . S
C1433 H1425 0.930 . S
C1433 C1431 1.419 . S
C1433 C1434 1.362 . S
C1434 H1426 0.930 1_655 S
C1434 C1433 1.362 . S
C1434 C1437 1.413 . S
C1435 H1427 0.930 . S
C1435 C1436 1.355 . S
C1435 C1437 1.394 1_455 S
C1436 C1435 1.355 . S
C1436 C1438 1.419 . S
C1437 C1432 1.443 . S
C1437 C1434 1.413 . S
C1437 C1435 1.394 1_655 S
C1438 H1428 0.930 . S
C1438 C1436 1.419 . S
C1438 C1439 1.362 1_455 S
C1439 H1429 0.930 . S
C1439 C1432 1.409 . S
C1439 C1438 1.362 1_655 S
H1440 C1446 0.930 . S
H1441 C1449 0.930 . S
H1442 C1450 0.930 . S
H1443 C1451 0.930 . S
H1444 C1454 0.930 . S
H1445 C1455 0.930 . S
C1446 H1440 0.930 . S
C1446 C1447 1.355 . S
C1446 C1448 1.415 . S
C1447 C1446 1.355 . S
C1447 C1449 1.419 . S
C1448 C1446 1.415 . S
C1448 C1453 1.425 . S
C1448 C1455 1.409 . S
C1449 H1441 0.930 . S
C1449 C1447 1.419 . S
C1449 C1450 1.362 . S
C1450 H1442 0.930 . S
C1450 C1449 1.362 . S
C1450 C1453 1.409 . S
C1451 H1443 0.930 . S
C1451 C1452 1.355 . S
C1451 C1453 1.415 . S
C1452 C1451 1.355 . S
C1452 C1454 1.419 . S
C1453 C1448 1.425 . S
C1453 C1450 1.409 . S
C1453 C1451 1.415 . S
C1454 H1444 0.930 . S
C1454 C1452 1.419 . S
C1454 C1455 1.362 . S
C1455 H1445 0.930 . S
C1455 C1448 1.409 . S
C1455 C1454 1.362 . S
H1456 C1462 0.930 . S
H1457 C1465 0.930 . S
H1458 C1466 0.930 . S
H1459 C1467 0.930 . S
H1460 C1470 0.930 . S
H1461 C1471 0.930 . S
C1462 H1456 0.930 . S
C1462 C1463 1.355 . S
C1462 C1464 1.415 . S
C1463 C1462 1.355 . S
C1463 C1465 1.419 . S
C1464 C1462 1.415 . S
C1464 C1469 1.425 . S
C1464 C1471 1.409 . S
C1465 H1457 0.930 . S
C1465 C1463 1.419 . S
C1465 C1466 1.362 . S
C1466 H1458 0.930 . S
C1466 C1465 1.362 . S
C1466 C1469 1.409 . S
C1467 H1459 0.930 . S
C1467 C1468 1.355 . S
C1467 C1469 1.415 . S
C1468 C1467 1.355 . S
C1468 C1470 1.419 . S
C1469 C1464 1.425 . S
C1469 C1466 1.409 . S
C1469 C1467 1.415 . S
C1470 H1460 0.930 . S
C1470 C1468 1.419 . S
C1470 C1471 1.362 . S
C1471 H1461 0.930 . S
C1471 C1464 1.409 . S
C1471 C1470 1.362 . S
H1472 C1478 0.930 . S
H1473 C1481 0.930 . S
H1474 C1482 0.930 . S
H1475 C1483 0.931 . S
H1476 C1486 0.930 . S
H1477 C1487 0.930 . S
C1478 H1472 0.930 . S
C1478 C1479 1.355 . S
C1478 C1480 1.415 . S
C1479 C1478 1.355 . S
C1479 C1481 1.419 . S
C1480 C1478 1.415 . S
C1480 C1485 1.425 . S
C1480 C1487 1.409 1_554 S
C1481 H1473 0.930 . S
C1481 C1479 1.419 . S
C1481 C1482 1.362 . S
C1482 H1474 0.930 . S
C1482 C1481 1.362 . S
C1482 C1485 1.409 . S
C1483 H1475 0.931 . S
C1483 C1484 1.345 1_554 S
C1483 C1485 1.423 . S
C1484 C1483 1.345 1_556 S
C1484 C1486 1.419 . S
C1485 C1480 1.425 . S
C1485 C1482 1.409 . S
C1485 C1483 1.423 . S
C1486 H1476 0.930 . S
C1486 C1484 1.419 . S
C1486 C1487 1.362 . S
C1487 H1477 0.930 . S
C1487 C1480 1.409 1_556 S
C1487 C1486 1.362 . S
H1488 C1494 0.930 . S
H1489 C1497 0.930 . S
H1490 C1498 0.930 . S
H1491 C1499 0.930 . S
H1492 C1502 0.930 . S
H1493 C1503 0.930 . S
C1494 H1488 0.930 . S
C1494 C1495 1.355 . S
C1494 C1496 1.415 . S
C1495 C1494 1.355 . S
C1495 C1497 1.419 . S
C1496 C1494 1.415 . S
C1496 C1501 1.425 . S
C1496 C1503 1.409 . S
C1497 H1489 0.930 . S
C1497 C1495 1.419 . S
C1497 C1498 1.362 . S
C1498 H1490 0.930 . S
C1498 C1497 1.362 . S
C1498 C1501 1.409 . S
C1499 H1491 0.930 . S
C1499 C1500 1.355 . S
C1499 C1501 1.415 . S
C1500 C1499 1.355 . S
C1500 C1502 1.419 . S
C1501 C1496 1.425 . S
C1501 C1498 1.409 . S
C1501 C1499 1.415 . S
C1502 H1492 0.930 . S
C1502 C1500 1.419 . S
C1502 C1503 1.362 . S
C1503 H1493 0.930 . S
C1503 C1496 1.409 . S
C1503 C1502 1.362 . S
H1504 C1510 0.930 . S
H1505 C1513 0.930 . S
H1506 C1514 0.930 . S
H1507 C1515 0.930 . S
H1508 C1518 0.930 . S
H1509 C1519 0.930 . S
C1510 H1504 0.930 . S
C1510 C1511 1.355 . S
C1510 C1512 1.415 . S
C1511 C1510 1.355 . S
C1511 C1513 1.419 . S
C1512 C1510 1.415 . S
C1512 C1517 1.425 . S
C1512 C1519 1.409 . S
C1513 H1505 0.930 . S
C1513 C1511 1.419 . S
C1513 C1514 1.362 . S
C1514 H1506 0.930 . S
C1514 C1513 1.362 . S
C1514 C1517 1.409 . S
C1515 H1507 0.930 . S
C1515 C1516 1.355 . S
C1515 C1517 1.415 . S
C1516 C1515 1.355 . S
C1516 C1518 1.419 . S
C1517 C1512 1.425 . S
C1517 C1514 1.409 . S
C1517 C1515 1.415 . S
C1518 H1508 0.930 . S
C1518 C1516 1.419 . S
C1518 C1519 1.362 . S
C1519 H1509 0.930 . S
C1519 C1512 1.409 . S
C1519 C1518 1.362 . S
H1520 C1526 0.930 . S
H1521 C1529 0.930 . S
H1522 C1530 0.930 . S
H1523 C1531 0.930 . S
H1524 C1534 0.930 . S
H1525 C1535 0.930 . S
C1526 H1520 0.930 . S
C1526 C1527 1.355 . S
C1526 C1528 1.415 . S
C1527 C1526 1.355 . S
C1527 C1529 1.419 . S
C1528 C1526 1.415 . S
C1528 C1533 1.425 . S
C1528 C1535 1.409 . S
C1529 H1521 0.930 . S
C1529 C1527 1.419 . S
C1529 C1530 1.362 . S
C1530 H1522 0.930 . S
C1530 C1529 1.362 . S
C1530 C1533 1.409 . S
C1531 H1523 0.930 . S
C1531 C1532 1.355 . S
C1531 C1533 1.415 . S
C1532 C1531 1.355 . S
C1532 C1534 1.419 . S
C1533 C1528 1.425 . S
C1533 C1530 1.409 . S
C1533 C1531 1.415 . S
C1534 H1524 0.930 . S
C1534 C1532 1.419 . S
C1534 C1535 1.362 . S
C1535 H1525 0.930 . S
C1535 C1528 1.409 . S
C1535 C1534 1.362 . S
H1536 C1542 0.930 . S
H1537 C1545 0.930 . S
H1538 C1546 0.930 . S
H1539 C1547 0.930 . S
H1540 C1550 0.930 . S
H1541 C1551 0.930 . S
C1542 H1536 0.930 . S
C1542 C1543 1.355 . S
C1542 C1544 1.415 . S
C1543 C1542 1.355 . S
C1543 C1545 1.419 . S
C1544 C1542 1.415 . S
C1544 C1549 1.425 . S
C1544 C1551 1.409 1_556 S
C1545 H1537 0.930 . S
C1545 C1543 1.419 . S
C1545 C1546 1.362 . S
C1546 H1538 0.930 . S
C1546 C1545 1.362 . S
C1546 C1549 1.409 . S
C1547 H1539 0.930 . S
C1547 C1548 1.355 . S
C1547 C1549 1.415 1_554 S
C1548 C1547 1.355 . S
C1548 C1550 1.419 . S
C1549 C1544 1.425 . S
C1549 C1546 1.409 . S
C1549 C1547 1.415 1_556 S
C1550 H1540 0.930 . S
C1550 C1548 1.419 . S
C1550 C1551 1.362 . S
C1551 H1541 0.930 . S
C1551 C1544 1.409 1_554 S
C1551 C1550 1.362 . S
H1552 C1558 0.930 . S
H1553 C1561 0.930 . S
H1554 C1562 0.930 . S
H1555 C1563 0.930 . S
H1556 C1566 0.930 . S
H1557 C1567 0.930 . S
C1558 H1552 0.930 . S
C1558 C1559 1.355 . S
C1558 C1560 1.415 . S
C1559 C1558 1.355 . S
C1559 C1561 1.419 . S
C1560 C1558 1.415 . S
C1560 C1565 1.425 . S
C1560 C1567 1.409 . S
C1561 H1553 0.930 . S
C1561 C1559 1.419 . S
C1561 C1562 1.362 . S
C1562 H1554 0.930 . S
C1562 C1561 1.362 . S
C1562 C1565 1.409 . S
C1563 H1555 0.930 . S
C1563 C1564 1.355 . S
C1563 C1565 1.415 . S
C1564 C1563 1.355 . S
C1564 C1566 1.419 . S
C1565 C1560 1.425 . S
C1565 C1562 1.409 . S
C1565 C1563 1.415 . S
C1566 H1556 0.930 . S
C1566 C1564 1.419 . S
C1566 C1567 1.362 . S
C1567 H1557 0.930 . S
C1567 C1560 1.409 . S
C1567 C1566 1.362 . S
H1568 C1574 0.930 . S
H1569 C1577 0.930 . S
H1570 C1578 0.930 . S
H1571 C1579 0.930 . S
H1572 C1582 0.930 . S
H1573 C1583 0.930 . S
C1574 H1568 0.930 . S
C1574 C1575 1.355 . S
C1574 C1576 1.415 . S
C1575 C1574 1.355 . S
C1575 C1577 1.419 . S
C1576 C1574 1.415 . S
C1576 C1581 1.425 . S
C1576 C1583 1.409 . S
C1577 H1569 0.930 . S
C1577 C1575 1.419 . S
C1577 C1578 1.362 . S
C1578 H1570 0.930 . S
C1578 C1577 1.362 . S
C1578 C1581 1.409 . S
C1579 H1571 0.930 . S
C1579 C1580 1.355 . S
C1579 C1581 1.415 . S
C1580 C1579 1.355 . S
C1580 C1582 1.419 . S
C1581 C1576 1.425 . S
C1581 C1578 1.409 . S
C1581 C1579 1.415 . S
C1582 H1572 0.930 . S
C1582 C1580 1.419 . S
C1582 C1583 1.362 . S
C1583 H1573 0.930 . S
C1583 C1576 1.409 . S
C1583 C1582 1.362 . S
H1584 C1590 0.930 . S
H1585 C1593 0.930 . S
H1586 C1594 0.930 . S
H1587 C1595 0.930 . S
H1588 C1598 0.930 . S
H1589 C1599 0.930 . S
C1590 H1584 0.930 . S
C1590 C1591 1.355 . S
C1590 C1592 1.415 . S
C1591 C1590 1.355 . S
C1591 C1593 1.419 . S
C1592 C1590 1.415 . S
C1592 C1597 1.425 . S
C1592 C1599 1.409 . S
C1593 H1585 0.930 . S
C1593 C1591 1.419 . S
C1593 C1594 1.362 . S
C1594 H1586 0.930 . S
C1594 C1593 1.362 . S
C1594 C1597 1.409 . S
C1595 H1587 0.930 . S
C1595 C1596 1.355 . S
C1595 C1597 1.415 . S
C1596 C1595 1.355 . S
C1596 C1598 1.419 . S
C1597 C1592 1.425 . S
C1597 C1594 1.409 . S
C1597 C1595 1.415 . S
C1598 H1588 0.930 . S
C1598 C1596 1.419 . S
C1598 C1599 1.362 . S
C1599 H1589 0.930 . S
C1599 C1592 1.409 . S
C1599 C1598 1.362 . S
H1600 C1606 0.930 . S
H1601 C1609 0.930 . S
H1602 C1610 0.930 . S
H1603 C1611 0.930 . S
H1604 C1614 0.930 . S
H1605 C1615 0.930 . S
C1606 H1600 0.930 . S
C1606 C1607 1.355 . S
C1606 C1608 1.415 . S
C1607 C1606 1.355 . S
C1607 C1609 1.419 . S
C1608 C1606 1.415 . S
C1608 C1613 1.425 . S
C1608 C1615 1.409 . S
C1609 H1601 0.930 . S
C1609 C1607 1.419 . S
C1609 C1610 1.362 . S
C1610 H1602 0.930 . S
C1610 C1609 1.362 . S
C1610 C1613 1.409 . S
C1611 H1603 0.930 . S
C1611 C1612 1.355 . S
C1611 C1613 1.415 . S
C1612 C1611 1.355 . S
C1612 C1614 1.419 . S
C1613 C1608 1.425 . S
C1613 C1610 1.409 . S
C1613 C1611 1.415 . S
C1614 H1604 0.930 . S
C1614 C1612 1.419 . S
C1614 C1615 1.362 . S
C1615 H1605 0.930 . S
C1615 C1608 1.409 . S
C1615 C1614 1.362 . S
H1616 C1622 0.930 . S
H1617 C1625 0.930 . S
H1618 C1626 0.930 . S
H1619 C1627 0.930 . S
H1620 C1630 0.930 . S
H1621 C1631 0.930 . S
C1622 H1616 0.930 . S
C1622 C1623 1.355 . S
C1622 C1624 1.415 . S
C1623 C1622 1.355 . S
C1623 C1625 1.419 . S
C1624 C1622 1.415 . S
C1624 C1629 1.425 . S
C1624 C1631 1.409 . S
C1625 H1617 0.930 . S
C1625 C1623 1.419 . S
C1625 C1626 1.362 . S
C1626 H1618 0.930 . S
C1626 C1625 1.362 . S
C1626 C1629 1.409 . S
C1627 H1619 0.930 . S
C1627 C1628 1.355 . S
C1627 C1629 1.415 . S
C1628 C1627 1.355 . S
C1628 C1630 1.419 . S
C1629 C1624 1.425 . S
C1629 C1626 1.409 . S
C1629 C1627 1.415 . S
C1630 H1620 0.930 . S
C1630 C1628 1.419 . S
C1630 C1631 1.362 . S
C1631 H1621 0.930 . S
C1631 C1624 1.409 . S
C1631 C1630 1.362 . S
H1632 C1638 0.930 . S
H1633 C1641 0.930 . S
H1634 C1642 0.930 . S
H1635 C1643 0.930 . S
H1636 C1646 0.930 . S
H1637 C1647 0.930 . S
C1638 H1632 0.930 . S
C1638 C1639 1.355 . S
C1638 C1640 1.415 . S
C1639 C1638 1.355 . S
C1639 C1641 1.419 . S
C1640 C1638 1.415 . S
C1640 C1645 1.425 . S
C1640 C1647 1.409 . S
C1641 H1633 0.930 . S
C1641 C1639 1.419 . S
C1641 C1642 1.362 . S
C1642 H1634 0.930 . S
C1642 C1641 1.362 . S
C1642 C1645 1.409 . S
C1643 H1635 0.930 . S
C1643 C1644 1.355 . S
C1643 C1645 1.415 . S
C1644 C1643 1.355 . S
C1644 C1646 1.419 . S
C1645 C1640 1.425 . S
C1645 C1642 1.409 . S
C1645 C1643 1.415 . S
C1646 H1636 0.930 . S
C1646 C1644 1.419 . S
C1646 C1647 1.362 . S
C1647 H1637 0.930 . S
C1647 C1640 1.409 . S
C1647 C1646 1.362 . S
H1648 C1654 0.930 . S
H1649 C1657 0.930 . S
H1650 C1658 0.930 . S
H1651 C1659 0.930 . S
H1652 C1662 0.930 . S
H1653 C1663 0.930 . S
C1654 H1648 0.930 . S
C1654 C1655 1.355 . S
C1654 C1656 1.415 . S
C1655 C1654 1.355 . S
C1655 C1657 1.419 . S
C1656 C1654 1.415 . S
C1656 C1661 1.425 . S
C1656 C1663 1.409 . S
C1657 H1649 0.930 . S
C1657 C1655 1.419 . S
C1657 C1658 1.362 . S
C1658 H1650 0.930 . S
C1658 C1657 1.362 . S
C1658 C1661 1.409 . S
C1659 H1651 0.930 . S
C1659 C1660 1.355 . S
C1659 C1661 1.415 . S
C1660 C1659 1.355 . S
C1660 C1662 1.419 . S
C1661 C1656 1.425 . S
C1661 C1658 1.409 . S
C1661 C1659 1.415 . S
C1662 H1652 0.930 . S
C1662 C1660 1.419 . S
C1662 C1663 1.362 . S
C1663 H1653 0.930 . S
C1663 C1656 1.409 . S
C1663 C1662 1.362 . S
H1664 C1670 0.930 . S
H1665 C1673 0.930 . S
H1666 C1674 0.930 . S
H1667 C1675 0.930 . S
H1668 C1678 0.930 . S
H1669 C1679 0.930 . S
C1670 H1664 0.930 . S
C1670 C1671 1.355 . S
C1670 C1672 1.415 . S
C1671 C1670 1.355 . S
C1671 C1673 1.419 . S
C1672 C1670 1.415 . S
C1672 C1677 1.425 . S
C1672 C1679 1.409 . S
C1673 H1665 0.930 . S
C1673 C1671 1.419 . S
C1673 C1674 1.362 . S
C1674 H1666 0.930 . S
C1674 C1673 1.362 . S
C1674 C1677 1.409 . S
C1675 H1667 0.930 . S
C1675 C1676 1.355 . S
C1675 C1677 1.415 . S
C1676 C1675 1.355 . S
C1676 C1678 1.419 . S
C1677 C1672 1.425 . S
C1677 C1674 1.409 . S
C1677 C1675 1.415 . S
C1678 H1668 0.930 . S
C1678 C1676 1.419 . S
C1678 C1679 1.362 . S
C1679 H1669 0.930 . S
C1679 C1672 1.409 . S
C1679 C1678 1.362 . S
H1680 C1686 0.930 . S
H1681 C1689 0.930 . S
H1682 C1690 0.930 . S
H1683 C1691 0.930 . S
H1684 C1694 0.930 . S
H1685 C1695 0.930 . S
C1686 H1680 0.930 . S
C1686 C1687 1.355 . S
C1686 C1688 1.415 . S
C1687 C1686 1.355 . S
C1687 C1689 1.419 . S
C1688 C1686 1.415 . S
C1688 C1693 1.425 . S
C1688 C1695 1.409 . S
C1689 H1681 0.930 . S
C1689 C1687 1.419 . S
C1689 C1690 1.362 . S
C1690 H1682 0.930 . S
C1690 C1689 1.362 . S
C1690 C1693 1.409 . S
C1691 H1683 0.930 . S
C1691 C1692 1.355 . S
C1691 C1693 1.415 . S
C1692 C1691 1.355 . S
C1692 C1694 1.419 . S
C1693 C1688 1.425 . S
C1693 C1690 1.409 . S
C1693 C1691 1.415 . S
C1694 H1684 0.930 . S
C1694 C1692 1.419 . S
C1694 C1695 1.362 . S
C1695 H1685 0.930 . S
C1695 C1688 1.409 . S
C1695 C1694 1.362 . S
H1696 C1702 0.930 . S
H1697 C1705 0.930 . S
H1698 C1706 0.930 . S
H1699 C1707 0.930 . S
H1700 C1710 0.930 . S
H1701 C1711 0.930 . S
C1702 H1696 0.930 . S
C1702 C1703 1.355 . S
C1702 C1704 1.415 . S
C1703 C1702 1.355 . S
C1703 C1705 1.419 . S
C1704 C1702 1.415 . S
C1704 C1709 1.425 . S
C1704 C1711 1.409 . S
C1705 H1697 0.930 . S
C1705 C1703 1.419 . S
C1705 C1706 1.362 . S
C1706 H1698 0.930 . S
C1706 C1705 1.362 . S
C1706 C1709 1.409 . S
C1707 H1699 0.930 . S
C1707 C1708 1.355 . S
C1707 C1709 1.415 . S
C1708 C1707 1.355 . S
C1708 C1710 1.419 . S
C1709 C1704 1.425 . S
C1709 C1706 1.409 . S
C1709 C1707 1.415 . S
C1710 H1700 0.930 . S
C1710 C1708 1.419 . S
C1710 C1711 1.362 . S
C1711 H1701 0.930 . S
C1711 C1704 1.409 . S
C1711 C1710 1.362 . S
H1712 C1718 0.930 . S
H1713 C1721 0.930 . S
H1714 C1722 0.930 . S
H1715 C1723 0.930 . S
H1716 C1726 0.930 . S
H1717 C1727 0.930 . S
C1718 H1712 0.930 . S
C1718 C1719 1.355 . S
C1718 C1720 1.415 . S
C1719 C1718 1.355 . S
C1719 C1721 1.419 . S
C1720 C1718 1.415 . S
C1720 C1725 1.425 . S
C1720 C1727 1.409 . S
C1721 H1713 0.930 . S
C1721 C1719 1.419 . S
C1721 C1722 1.362 . S
C1722 H1714 0.930 . S
C1722 C1721 1.362 . S
C1722 C1725 1.409 . S
C1723 H1715 0.930 . S
C1723 C1724 1.355 . S
C1723 C1725 1.415 . S
C1724 C1723 1.355 . S
C1724 C1726 1.419 . S
C1725 C1720 1.425 . S
C1725 C1722 1.409 . S
C1725 C1723 1.415 . S
C1726 H1716 0.930 . S
C1726 C1724 1.419 . S
C1726 C1727 1.362 . S
C1727 H1717 0.930 . S
C1727 C1720 1.409 . S
C1727 C1726 1.362 . S
H1728 C1734 0.930 . S
H1729 C1737 0.930 . S
H1730 C1738 0.930 . S
H1731 C1739 0.930 . S
H1732 C1742 0.930 . S
H1733 C1743 0.930 . S
C1734 H1728 0.930 . S
C1734 C1735 1.355 . S
C1734 C1736 1.415 . S
C1735 C1734 1.355 . S
C1735 C1737 1.419 . S
C1736 C1734 1.415 . S
C1736 C1741 1.425 . S
C1736 C1743 1.409 . S
C1737 H1729 0.930 . S
C1737 C1735 1.419 . S
C1737 C1738 1.362 . S
C1738 H1730 0.930 . S
C1738 C1737 1.362 . S
C1738 C1741 1.409 . S
C1739 H1731 0.930 . S
C1739 C1740 1.355 . S
C1739 C1741 1.415 . S
C1740 C1739 1.355 . S
C1740 C1742 1.419 . S
C1741 C1736 1.425 . S
C1741 C1738 1.409 . S
C1741 C1739 1.415 . S
C1742 H1732 0.930 . S
C1742 C1740 1.419 . S
C1742 C1743 1.362 . S
C1743 H1733 0.930 . S
C1743 C1736 1.409 . S
C1743 C1742 1.362 . S
H1744 C1750 0.930 . S
H1745 C1753 0.930 . S
H1746 C1754 0.930 . S
H1747 C1755 0.930 . S
H1748 C1758 0.930 . S
H1749 C1759 0.930 . S
C1750 H1744 0.930 . S
C1750 C1751 1.355 . S
C1750 C1752 1.415 . S
C1751 C1750 1.355 . S
C1751 C1753 1.419 . S
C1752 C1750 1.415 . S
C1752 C1757 1.425 . S
C1752 C1759 1.409 . S
C1753 H1745 0.930 . S
C1753 C1751 1.419 . S
C1753 C1754 1.362 . S
C1754 H1746 0.930 . S
C1754 C1753 1.362 . S
C1754 C1757 1.409 . S
C1755 H1747 0.930 . S
C1755 C1756 1.355 . S
C1755 C1757 1.415 . S
C1756 C1755 1.355 . S
C1756 C1758 1.419 . S
C1757 C1752 1.425 . S
C1757 C1754 1.409 . S
C1757 C1755 1.415 . S
C1758 H1748 0.930 . S
C1758 C1756 1.419 . S
C1758 C1759 1.362 . S
C1759 H1749 0.930 . S
C1759 C1752 1.409 . S
C1759 C1758 1.362 . S
H1760 C1766 0.930 . S
H1761 C1769 0.930 . S
H1762 C1770 0.930 . S
H1763 C1771 0.930 . S
H1764 C1774 0.930 . S
H1765 C1775 0.930 . S
C1766 H1760 0.930 . S
C1766 C1767 1.355 . S
C1766 C1768 1.415 . S
C1767 C1766 1.355 . S
C1767 C1769 1.419 . S
C1768 C1766 1.415 . S
C1768 C1773 1.425 . S
C1768 C1775 1.409 . S
C1769 H1761 0.930 . S
C1769 C1767 1.419 . S
C1769 C1770 1.362 . S
C1770 H1762 0.930 . S
C1770 C1769 1.362 . S
C1770 C1773 1.409 . S
C1771 H1763 0.930 . S
C1771 C1772 1.355 . S
C1771 C1773 1.415 . S
C1772 C1771 1.355 . S
C1772 C1774 1.419 . S
C1773 C1768 1.425 . S
C1773 C1770 1.409 . S
C1773 C1771 1.415 . S
C1774 H1764 0.930 . S
C1774 C1772 1.419 . S
C1774 C1775 1.362 . S
C1775 H1765 0.930 . S
C1775 C1768 1.409 . S
C1775 C1774 1.362 . S
H1776 C1782 0.930 . S
H1777 C1785 0.930 . S
H1778 C1786 0.930 . S
H1779 C1787 0.930 . S
H1780 C1790 0.930 . S
H1781 C1791 0.930 . S
C1782 H1776 0.930 . S
C1782 C1783 1.355 . S
C1782 C1784 1.415 . S
C1783 C1782 1.355 . S
C1783 C1785 1.419 . S
C1784 C1782 1.415 . S
C1784 C1789 1.425 . S
C1784 C1791 1.409 . S
C1785 H1777 0.930 . S
C1785 C1783 1.419 . S
C1785 C1786 1.362 . S
C1786 H1778 0.930 . S
C1786 C1785 1.362 . S
C1786 C1789 1.409 . S
C1787 H1779 0.930 . S
C1787 C1788 1.355 . S
C1787 C1789 1.415 . S
C1788 C1787 1.355 . S
C1788 C1790 1.419 . S
C1789 C1784 1.425 . S
C1789 C1786 1.409 . S
C1789 C1787 1.415 . S
C1790 H1780 0.930 . S
C1790 C1788 1.419 . S
C1790 C1791 1.362 . S
C1791 H1781 0.930 . S
C1791 C1784 1.409 . S
C1791 C1790 1.362 . S
H1792 C1798 0.930 . S
H1793 C1801 0.930 . S
H1794 C1802 0.930 . S
H1795 C1803 0.930 . S
H1796 C1806 0.930 . S
H1797 C1807 0.930 . S
C1798 H1792 0.930 . S
C1798 C1799 1.355 . S
C1798 C1800 1.415 . S
C1799 C1798 1.355 . S
C1799 C1801 1.419 . S
C1800 C1798 1.415 . S
C1800 C1805 1.425 . S
C1800 C1807 1.409 . S
C1801 H1793 0.930 . S
C1801 C1799 1.419 . S
C1801 C1802 1.362 . S
C1802 H1794 0.930 . S
C1802 C1801 1.362 . S
C1802 C1805 1.409 . S
C1803 H1795 0.930 . S
C1803 C1804 1.355 . S
C1803 C1805 1.415 . S
C1804 C1803 1.355 . S
C1804 C1806 1.419 . S
C1805 C1800 1.425 . S
C1805 C1802 1.409 . S
C1805 C1803 1.415 . S
C1806 H1796 0.930 . S
C1806 C1804 1.419 . S
C1806 C1807 1.362 . S
C1807 H1797 0.930 . S
C1807 C1800 1.409 . S
C1807 C1806 1.362 . S
H1808 C1814 0.930 . S
H1809 C1817 0.930 . S
H1810 C1818 0.930 . S
H1811 C1819 0.930 . S
H1812 C1822 0.930 . S
H1813 C1823 0.930 . S
C1814 H1808 0.930 . S
C1814 C1815 1.355 . S
C1814 C1816 1.415 . S
C1815 C1814 1.355 . S
C1815 C1817 1.419 . S
C1816 C1814 1.415 . S
C1816 C1821 1.425 . S
C1816 C1823 1.409 . S
C1817 H1809 0.930 . S
C1817 C1815 1.419 . S
C1817 C1818 1.362 . S
C1818 H1810 0.930 . S
C1818 C1817 1.362 . S
C1818 C1821 1.409 . S
C1819 H1811 0.930 . S
C1819 C1820 1.355 . S
C1819 C1821 1.415 . S
C1820 C1819 1.355 . S
C1820 C1822 1.419 . S
C1821 C1816 1.425 . S
C1821 C1818 1.409 . S
C1821 C1819 1.415 . S
C1822 H1812 0.930 . S
C1822 C1820 1.419 . S
C1822 C1823 1.362 . S
C1823 H1813 0.930 . S
C1823 C1816 1.409 . S
C1823 C1822 1.362 . S
H1824 C1830 0.930 . S
H1825 C1833 0.930 . S
H1826 C1834 0.930 . S
H1827 C1835 0.921 1_655 S
H1828 C1838 0.930 . S
H1829 C1839 0.930 . S
C1830 H1824 0.930 . S
C1830 C1831 1.355 . S
C1830 C1832 1.415 . S
C1831 C1830 1.355 . S
C1831 C1833 1.419 . S
C1832 C1830 1.415 . S
C1832 C1837 1.425 . S
C1832 C1839 1.409 1_655 S
C1833 H1825 0.930 . S
C1833 C1831 1.419 . S
C1833 C1834 1.362 . S
C1834 H1826 0.930 . S
C1834 C1833 1.362 . S
C1834 C1837 1.409 . S
C1835 H1827 0.921 1_455 S
C1835 C1836 1.355 . S
C1835 C1837 1.415 1_455 S
C1836 C1835 1.355 . S
C1836 C1838 1.419 . S
C1837 C1832 1.425 . S
C1837 C1834 1.409 . S
C1837 C1835 1.415 1_655 S
C1838 H1828 0.930 . S
C1838 C1836 1.419 . S
C1838 C1839 1.362 . S
C1839 H1829 0.930 . S
C1839 C1832 1.409 1_455 S
C1839 C1838 1.362 . S
H1840 C1846 0.930 . S
H1841 C1849 0.930 . S
H1842 C1850 0.930 . S
H1843 C1851 0.930 . S
H1844 C1854 0.930 . S
H1845 C1855 0.930 . S
C1846 H1840 0.930 . S
C1846 C1847 1.355 . S
C1846 C1848 1.415 . S
C1847 C1846 1.355 . S
C1847 C1849 1.419 . S
C1848 C1846 1.415 . S
C1848 C1853 1.425 . S
C1848 C1855 1.409 . S
C1849 H1841 0.930 . S
C1849 C1847 1.419 . S
C1849 C1850 1.362 . S
C1850 H1842 0.930 . S
C1850 C1849 1.362 . S
C1850 C1853 1.409 . S
C1851 H1843 0.930 . S
C1851 C1852 1.355 . S
C1851 C1853 1.415 . S
C1852 C1851 1.355 . S
C1852 C1854 1.419 . S
C1853 C1848 1.425 . S
C1853 C1850 1.409 . S
C1853 C1851 1.415 . S
C1854 H1844 0.930 . S
C1854 C1852 1.419 . S
C1854 C1855 1.362 . S
C1855 H1845 0.930 . S
C1855 C1848 1.409 . S
C1855 C1854 1.362 . S
H1856 C1862 0.930 . S
H1857 C1865 0.930 . S
H1858 C1866 0.930 . S
H1859 C1867 0.930 . S
H1860 C1870 0.930 . S
H1861 C1871 0.930 1_556 S
C1862 H1856 0.930 . S
C1862 C1863 1.355 . S
C1862 C1864 1.415 . S
C1863 C1862 1.355 . S
C1863 C1865 1.419 . S
C1864 C1862 1.415 . S
C1864 C1869 1.425 . S
C1864 C1871 1.409 1_556 S
C1865 H1857 0.930 . S
C1865 C1863 1.419 . S
C1865 C1866 1.362 . S
C1866 H1858 0.930 . S
C1866 C1865 1.362 . S
C1866 C1869 1.409 . S
C1867 H1859 0.930 . S
C1867 C1868 1.355 . S
C1867 C1869 1.415 1_554 S
C1868 C1867 1.355 . S
C1868 C1870 1.419 . S
C1869 C1864 1.425 . S
C1869 C1866 1.409 . S
C1869 C1867 1.415 1_556 S
C1870 H1860 0.930 . S
C1870 C1868 1.419 . S
C1870 C1871 1.362 . S
C1871 H1861 0.930 1_554 S
C1871 C1864 1.409 1_554 S
C1871 C1870 1.362 . S
H1872 C1878 0.930 . S
H1873 C1881 0.930 . S
H1874 C1882 0.930 . S
H1875 C1883 0.930 . S
H1876 C1886 0.930 . S
H1877 C1887 0.930 . S
C1878 H1872 0.930 . S
C1878 C1879 1.355 . S
C1878 C1880 1.415 . S
C1879 C1878 1.355 . S
C1879 C1881 1.419 . S
C1880 C1878 1.415 . S
C1880 C1885 1.425 . S
C1880 C1887 1.409 . S
C1881 H1873 0.930 . S
C1881 C1879 1.419 . S
C1881 C1882 1.362 . S
C1882 H1874 0.930 . S
C1882 C1881 1.362 . S
C1882 C1885 1.409 . S
C1883 H1875 0.930 . S
C1883 C1884 1.355 . S
C1883 C1885 1.415 . S
C1884 C1883 1.355 . S
C1884 C1886 1.419 . S
C1885 C1880 1.425 . S
C1885 C1882 1.409 . S
C1885 C1883 1.415 . S
C1886 H1876 0.930 . S
C1886 C1884 1.419 . S
C1886 C1887 1.362 . S
C1887 H1877 0.930 . S
C1887 C1880 1.409 . S
C1887 C1886 1.362 . S
H1888 C1894 0.930 . S
H1889 C1897 0.930 . S
H1890 C1898 0.930 . S
H1891 C1899 0.930 . S
H1892 C1902 0.930 . S
H1893 C1903 0.930 . S
C1894 H1888 0.930 . S
C1894 C1895 1.355 . S
C1894 C1896 1.415 . S
C1895 C1894 1.355 . S
C1895 C1897 1.419 . S
C1896 C1894 1.415 . S
C1896 C1901 1.425 . S
C1896 C1903 1.409 . S
C1897 H1889 0.930 . S
C1897 C1895 1.419 . S
C1897 C1898 1.362 . S
C1898 H1890 0.930 . S
C1898 C1897 1.362 . S
C1898 C1901 1.409 . S
C1899 H1891 0.930 . S
C1899 C1900 1.355 . S
C1899 C1901 1.415 . S
C1900 C1899 1.355 . S
C1900 C1902 1.419 . S
C1901 C1896 1.425 . S
C1901 C1898 1.409 . S
C1901 C1899 1.415 . S
C1902 H1892 0.930 . S
C1902 C1900 1.419 . S
C1902 C1903 1.362 . S
C1903 H1893 0.930 . S
C1903 C1896 1.409 . S
C1903 C1902 1.362 . S
H1904 C1910 0.930 . S
H1905 C1913 0.930 . S
H1906 C1914 0.930 . S
H1907 C1915 0.930 . S
H1908 C1918 0.930 . S
H1909 C1919 0.930 . S
C1910 H1904 0.930 . S
C1910 C1911 1.355 . S
C1910 C1912 1.415 . S
C1911 C1910 1.355 . S
C1911 C1913 1.419 . S
C1912 C1910 1.415 . S
C1912 C1917 1.425 . S
C1912 C1919 1.409 . S
C1913 H1905 0.930 . S
C1913 C1911 1.419 . S
C1913 C1914 1.362 . S
C1914 H1906 0.930 . S
C1914 C1913 1.362 . S
C1914 C1917 1.409 . S
C1915 H1907 0.930 . S
C1915 C1916 1.355 . S
C1915 C1917 1.415 . S
C1916 C1915 1.355 . S
C1916 C1918 1.419 . S
C1917 C1912 1.425 . S
C1917 C1914 1.409 . S
C1917 C1915 1.415 . S
C1918 H1908 0.930 . S
C1918 C1916 1.419 . S
C1918 C1919 1.362 . S
C1919 H1909 0.930 . S
C1919 C1912 1.409 . S
C1919 C1918 1.362 . S
H1920 C1926 0.930 . S
H1921 C1929 0.930 . S
H1922 C1930 0.930 . S
H1923 C1931 0.930 . S
H1924 C1934 0.930 . S
H1925 C1935 0.930 . S
C1926 H1920 0.930 . S
C1926 C1927 1.355 . S
C1926 C1928 1.415 . S
C1927 C1926 1.355 . S
C1927 C1929 1.419 . S
C1928 C1926 1.415 . S
C1928 C1933 1.425 . S
C1928 C1935 1.409 1_554 S
C1929 H1921 0.930 . S
C1929 C1927 1.419 . S
C1929 C1930 1.362 . S
C1930 H1922 0.930 . S
C1930 C1929 1.362 . S
C1930 C1933 1.409 . S
C1931 H1923 0.930 . S
C1931 C1932 1.355 1_554 S
C1931 C1933 1.415 . S
C1932 C1931 1.355 1_556 S
C1932 C1934 1.419 . S
C1933 C1928 1.425 . S
C1933 C1930 1.409 . S
C1933 C1931 1.415 . S
C1934 H1924 0.930 . S
C1934 C1932 1.419 . S
C1934 C1935 1.362 . S
C1935 H1925 0.930 . S
C1935 C1928 1.409 1_556 S
C1935 C1934 1.362 . S
H1936 C1942 0.930 . S
H1937 C1945 0.930 . S
H1938 C1946 0.930 . S
H1939 C1947 0.930 . S
H1940 C1950 0.930 . S
H1941 C1951 0.930 . S
C1942 H1936 0.930 . S
C1942 C1943 1.355 . S
C1942 C1944 1.415 . S
C1943 C1942 1.355 . S
C1943 C1945 1.419 . S
C1944 C1942 1.415 . S
C1944 C1949 1.425 . S
C1944 C1951 1.409 . S
C1945 H1937 0.930 . S
C1945 C1943 1.419 . S
C1945 C1946 1.362 . S
C1946 H1938 0.930 . S
C1946 C1945 1.362 . S
C1946 C1949 1.409 . S
C1947 H1939 0.930 . S
C1947 C1948 1.355 . S
C1947 C1949 1.415 . S
C1948 C1947 1.355 . S
C1948 C1950 1.419 . S
C1949 C1944 1.425 . S
C1949 C1946 1.409 . S
C1949 C1947 1.415 . S
C1950 H1940 0.930 . S
C1950 C1948 1.419 . S
C1950 C1951 1.362 . S
C1951 H1941 0.930 . S
C1951 C1944 1.409 . S
C1951 C1950 1.362 . S
H1952 C1958 0.930 . S
H1953 C1961 0.930 . S
H1954 C1962 0.930 . S
H1955 C1963 0.930 . S
H1956 C1966 0.930 . S
H1957 C1967 0.930 . S
C1958 H1952 0.930 . S
C1958 C1959 1.355 . S
C1958 C1960 1.415 . S
C1959 C1958 1.355 . S
C1959 C1961 1.419 . S
C1960 C1958 1.415 . S
C1960 C1965 1.425 . S
C1960 C1967 1.409 . S
C1961 H1953 0.930 . S
C1961 C1959 1.419 . S
C1961 C1962 1.362 . S
C1962 H1954 0.930 . S
C1962 C1961 1.362 . S
C1962 C1965 1.409 . S
C1963 H1955 0.930 . S
C1963 C1964 1.355 . S
C1963 C1965 1.415 . S
C1964 C1963 1.355 . S
C1964 C1966 1.419 . S
C1965 C1960 1.425 . S
C1965 C1962 1.409 . S
C1965 C1963 1.415 . S
C1966 H1956 0.930 . S
C1966 C1964 1.419 . S
C1966 C1967 1.362 . S
C1967 H1957 0.930 . S
C1967 C1960 1.409 . S
C1967 C1966 1.362 . S
H1968 C1974 0.930 . S
H1969 C1977 0.930 . S
H1970 C1978 0.930 . S
H1971 C1979 0.930 . S
H1972 C1982 0.930 . S
H1973 C1983 0.930 . S
C1974 H1968 0.930 . S
C1974 C1975 1.355 . S
C1974 C1976 1.415 . S
C1975 C1974 1.355 . S
C1975 C1977 1.419 . S
C1976 C1974 1.415 . S
C1976 C1981 1.425 . S
C1976 C1983 1.409 . S
C1977 H1969 0.930 . S
C1977 C1975 1.419 . S
C1977 C1978 1.362 . S
C1978 H1970 0.930 . S
C1978 C1977 1.362 . S
C1978 C1981 1.409 . S
C1979 H1971 0.930 . S
C1979 C1980 1.355 . S
C1979 C1981 1.415 . S
C1980 C1979 1.355 . S
C1980 C1982 1.419 . S
C1981 C1976 1.425 . S
C1981 C1978 1.409 . S
C1981 C1979 1.415 . S
C1982 H1972 0.930 . S
C1982 C1980 1.419 . S
C1982 C1983 1.362 . S
C1983 H1973 0.930 . S
C1983 C1976 1.409 . S
C1983 C1982 1.362 . S
H1984 C1990 0.930 . S
H1985 C1993 0.930 . S
H1986 C1994 0.930 . S
H1987 C1995 0.930 . S
H1988 C1998 0.930 . S
H1989 C1999 0.930 . S
C1990 H1984 0.930 . S
C1990 C1991 1.355 . S
C1990 C1992 1.415 . S
C1991 C1990 1.355 . S
C1991 C1993 1.419 . S
C1992 C1990 1.415 . S
C1992 C1997 1.425 . S
C1992 C1999 1.409 . S
C1993 H1985 0.930 . S
C1993 C1991 1.419 . S
C1993 C1994 1.362 . S
C1994 H1986 0.930 . S
C1994 C1993 1.362 . S
C1994 C1997 1.409 . S
C1995 H1987 0.930 . S
C1995 C1996 1.355 . S
C1995 C1997 1.415 . S
C1996 C1995 1.355 . S
C1996 C1998 1.419 . S
C1997 C1992 1.425 . S
C1997 C1994 1.409 . S
C1997 C1995 1.415 . S
C1998 H1988 0.930 . S
C1998 C1996 1.419 . S
C1998 C1999 1.362 . S
C1999 H1989 0.930 . S
C1999 C1992 1.409 . S
C1999 C1998 1.362 . S
H2000 C2006 0.930 . S
H2001 C2009 0.930 . S
H2002 C2010 0.930 . S
H2003 C2011 0.930 . S
H2004 C2014 0.930 . S
H2005 C2015 0.930 . S
C2006 H2000 0.930 . S
C2006 C2007 1.355 . S
C2006 C2008 1.415 . S
C2007 C2006 1.355 . S
C2007 C2009 1.419 . S
C2008 C2006 1.415 . S
C2008 C2013 1.425 . S
C2008 C2015 1.409 . S
C2009 H2001 0.930 . S
C2009 C2007 1.419 . S
C2009 C2010 1.362 . S
C2010 H2002 0.930 . S
C2010 C2009 1.362 . S
C2010 C2013 1.409 . S
C2011 H2003 0.930 . S
C2011 C2012 1.355 . S
C2011 C2013 1.415 . S
C2012 C2011 1.355 . S
C2012 C2014 1.419 . S
C2013 C2008 1.425 . S
C2013 C2010 1.409 . S
C2013 C2011 1.415 . S
C2014 H2004 0.930 . S
C2014 C2012 1.419 . S
C2014 C2015 1.362 . S
C2015 H2005 0.930 . S
C2015 C2008 1.409 . S
C2015 C2014 1.362 . S
H2016 C2022 0.930 . S
H2017 C2025 0.930 . S
H2018 C2026 0.930 . S
H2019 C2027 0.930 . S
H2020 C2030 0.930 . S
H2021 C2031 0.930 . S
C2022 H2016 0.930 . S
C2022 C2023 1.355 . S
C2022 C2024 1.415 . S
C2023 C2022 1.355 . S
C2023 C2025 1.419 . S
C2024 C2022 1.415 . S
C2024 C2029 1.425 . S
C2024 C2031 1.409 . S
C2025 H2017 0.930 . S
C2025 C2023 1.419 . S
C2025 C2026 1.362 . S
C2026 H2018 0.930 . S
C2026 C2025 1.362 . S
C2026 C2029 1.409 . S
C2027 H2019 0.930 . S
C2027 C2028 1.355 . S
C2027 C2029 1.415 . S
C2028 C2027 1.355 . S
C2028 C2030 1.419 . S
C2029 C2024 1.425 . S
C2029 C2026 1.409 . S
C2029 C2027 1.415 . S
C2030 H2020 0.930 . S
C2030 C2028 1.419 . S
C2030 C2031 1.362 . S
C2031 H2021 0.930 . S
C2031 C2024 1.409 . S
C2031 C2030 1.362 . S
H2032 C2038 0.930 . S
H2033 C2041 0.930 . S
H2034 C2042 0.930 . S
H2035 C2043 0.930 . S
H2036 C2046 0.930 . S
H2037 C2047 0.930 . S
C2038 H2032 0.930 . S
C2038 C2039 1.355 . S
C2038 C2040 1.415 . S
C2039 C2038 1.355 . S
C2039 C2041 1.419 . S
C2040 C2038 1.415 . S
C2040 C2045 1.425 . S
C2040 C2047 1.409 . S
C2041 H2033 0.930 . S
C2041 C2039 1.419 . S
C2041 C2042 1.362 . S
C2042 H2034 0.930 . S
C2042 C2041 1.362 . S
C2042 C2045 1.409 . S
C2043 H2035 0.930 . S
C2043 C2044 1.355 . S
C2043 C2045 1.415 . S
C2044 C2043 1.355 . S
C2044 C2046 1.419 . S
C2045 C2040 1.425 . S
C2045 C2042 1.409 . S
C2045 C2043 1.415 . S
C2046 H2036 0.930 . S
C2046 C2044 1.419 . S
C2046 C2047 1.362 . S
C2047 H2037 0.930 . S
C2047 C2040 1.409 . S
C2047 C2046 1.362 . S
H2048 C2054 0.930 . S
H2049 C2057 0.930 . S
H2050 C2058 0.930 . S
H2051 C2059 0.930 . S
H2052 C2062 0.930 . S
H2053 C2063 0.930 . S
C2054 H2048 0.930 . S
C2054 C2055 1.355 . S
C2054 C2056 1.415 . S
C2055 C2054 1.355 . S
C2055 C2057 1.419 . S
C2056 C2054 1.415 . S
C2056 C2061 1.425 . S
C2056 C2063 1.409 . S
C2057 H2049 0.930 . S
C2057 C2055 1.419 . S
C2057 C2058 1.362 . S
C2058 H2050 0.930 . S
C2058 C2057 1.362 . S
C2058 C2061 1.409 . S
C2059 H2051 0.930 . S
C2059 C2060 1.355 . S
C2059 C2061 1.415 . S
C2060 C2059 1.355 . S
C2060 C2062 1.419 . S
C2061 C2056 1.425 . S
C2061 C2058 1.409 . S
C2061 C2059 1.415 . S
C2062 H2052 0.930 . S
C2062 C2060 1.419 . S
C2062 C2063 1.362 . S
C2063 H2053 0.930 . S
C2063 C2056 1.409 . S
C2063 C2062 1.362 . S
H2064 C2070 0.930 . S
H2065 C2073 0.930 . S
H2066 C2074 0.930 . S
H2067 C2075 0.930 . S
H2068 C2078 0.930 . S
H2069 C2079 0.930 . S
C2070 H2064 0.930 . S
C2070 C2071 1.355 . S
C2070 C2072 1.415 . S
C2071 C2070 1.355 . S
C2071 C2073 1.419 . S
C2072 C2070 1.415 . S
C2072 C2077 1.425 . S
C2072 C2079 1.409 . S
C2073 H2065 0.930 . S
C2073 C2071 1.419 . S
C2073 C2074 1.362 . S
C2074 H2066 0.930 . S
C2074 C2073 1.362 . S
C2074 C2077 1.409 . S
C2075 H2067 0.930 . S
C2075 C2076 1.355 . S
C2075 C2077 1.415 . S
C2076 C2075 1.355 . S
C2076 C2078 1.419 . S
C2077 C2072 1.425 . S
C2077 C2074 1.409 . S
C2077 C2075 1.415 . S
C2078 H2068 0.930 . S
C2078 C2076 1.419 . S
C2078 C2079 1.362 . S
C2079 H2069 0.930 . S
C2079 C2072 1.409 . S
C2079 C2078 1.362 . S
H2080 C2086 0.930 . S
H2081 C2089 0.930 . S
H2082 C2090 0.930 . S
H2083 C2091 0.930 . S
H2084 C2094 0.930 . S
H2085 C2095 0.930 . S
C2086 H2080 0.930 . S
C2086 C2087 1.355 . S
C2086 C2088 1.415 . S
C2087 C2086 1.355 . S
C2087 C2089 1.419 . S
C2088 C2086 1.415 . S
C2088 C2093 1.425 . S
C2088 C2095 1.409 . S
C2089 H2081 0.930 . S
C2089 C2087 1.419 . S
C2089 C2090 1.362 . S
C2090 H2082 0.930 . S
C2090 C2089 1.362 . S
C2090 C2093 1.409 . S
C2091 H2083 0.930 . S
C2091 C2092 1.355 . S
C2091 C2093 1.415 . S
C2092 C2091 1.355 . S
C2092 C2094 1.419 . S
C2093 C2088 1.425 . S
C2093 C2090 1.409 . S
C2093 C2091 1.415 . S
C2094 H2084 0.930 . S
C2094 C2092 1.419 . S
C2094 C2095 1.362 . S
C2095 H2085 0.930 . S
C2095 C2088 1.409 . S
C2095 C2094 1.362 . S
H2096 C2102 0.930 . S
H2097 C2105 0.930 . S
H2098 C2106 0.930 . S
H2099 C2107 0.930 . S
H2100 C2110 0.930 . S
H2101 C2111 0.930 . S
C2102 H2096 0.930 . S
C2102 C2103 1.355 . S
C2102 C2104 1.415 . S
C2103 C2102 1.355 . S
C2103 C2105 1.419 . S
C2104 C2102 1.415 . S
C2104 C2109 1.425 . S
C2104 C2111 1.409 . S
C2105 H2097 0.930 . S
C2105 C2103 1.419 . S
C2105 C2106 1.362 . S
C2106 H2098 0.930 . S
C2106 C2105 1.362 . S
C2106 C2109 1.409 . S
C2107 H2099 0.930 . S
C2107 C2108 1.355 . S
C2107 C2109 1.415 . S
C2108 C2107 1.355 . S
C2108 C2110 1.419 . S
C2109 C2104 1.425 . S
C2109 C2106 1.409 . S
C2109 C2107 1.415 . S
C2110 H2100 0.930 . S
C2110 C2108 1.419 . S
C2110 C2111 1.362 . S
C2111 H2101 0.930 . S
C2111 C2104 1.409 . S
C2111 C2110 1.362 . S
H2112 C2118 0.930 . S
H2113 C2121 0.930 . S
H2114 C2122 0.930 . S
H2115 C2123 0.930 . S
H2116 C2126 0.930 . S
H2117 C2127 0.930 . S
C2118 H2112 0.930 . S
C2118 C2119 1.355 . S
C2118 C2120 1.415 . S
C2119 C2118 1.355 . S
C2119 C2121 1.419 . S
C2120 C2118 1.415 . S
C2120 C2125 1.425 . S
C2120 C2127 1.409 . S
C2121 H2113 0.930 . S
C2121 C2119 1.419 . S
C2121 C2122 1.362 . S
C2122 H2114 0.930 . S
C2122 C2121 1.362 . S
C2122 C2125 1.409 . S
C2123 H2115 0.930 . S
C2123 C2124 1.355 . S
C2123 C2125 1.415 . S
C2124 C2123 1.355 . S
C2124 C2126 1.419 . S
C2125 C2120 1.425 . S
C2125 C2122 1.409 . S
C2125 C2123 1.415 . S
C2126 H2116 0.930 . S
C2126 C2124 1.419 . S
C2126 C2127 1.362 . S
C2127 H2117 0.930 . S
C2127 C2120 1.409 . S
C2127 C2126 1.362 . S
H2128 C2134 0.930 . S
H2129 C2137 0.930 . S
H2130 C2138 0.930 . S
H2131 C2139 0.930 . S
H2132 C2142 0.930 . S
H2133 C2143 0.930 . S
C2134 H2128 0.930 . S
C2134 C2135 1.355 . S
C2134 C2136 1.415 . S
C2135 C2134 1.355 . S
C2135 C2137 1.419 . S
C2136 C2134 1.415 . S
C2136 C2141 1.425 . S
C2136 C2143 1.409 . S
C2137 H2129 0.930 . S
C2137 C2135 1.419 . S
C2137 C2138 1.362 . S
C2138 H2130 0.930 . S
C2138 C2137 1.362 . S
C2138 C2141 1.409 . S
C2139 H2131 0.930 . S
C2139 C2140 1.355 . S
C2139 C2141 1.415 . S
C2140 C2139 1.355 . S
C2140 C2142 1.419 . S
C2141 C2136 1.425 . S
C2141 C2138 1.409 . S
C2141 C2139 1.415 . S
C2142 H2132 0.930 . S
C2142 C2140 1.419 . S
C2142 C2143 1.362 . S
C2143 H2133 0.930 . S
C2143 C2136 1.409 . S
C2143 C2142 1.362 . S
H2144 C2150 0.930 . S
H2145 C2153 0.930 . S
H2146 C2154 0.930 . S
H2147 C2155 0.930 . S
H2148 C2158 0.930 . S
H2149 C2159 0.930 . S
C2150 H2144 0.930 . S
C2150 C2151 1.355 . S
C2150 C2152 1.415 . S
C2151 C2150 1.355 . S
C2151 C2153 1.419 . S
C2152 C2150 1.415 . S
C2152 C2157 1.425 . S
C2152 C2159 1.409 . S
C2153 H2145 0.930 . S
C2153 C2151 1.419 . S
C2153 C2154 1.362 . S
C2154 H2146 0.930 . S
C2154 C2153 1.362 . S
C2154 C2157 1.409 . S
C2155 H2147 0.930 . S
C2155 C2156 1.355 . S
C2155 C2157 1.415 . S
C2156 C2155 1.355 . S
C2156 C2158 1.419 . S
C2157 C2152 1.425 . S
C2157 C2154 1.409 . S
C2157 C2155 1.415 . S
C2158 H2148 0.930 . S
C2158 C2156 1.419 . S
C2158 C2159 1.362 . S
C2159 H2149 0.930 . S
C2159 C2152 1.409 . S
C2159 C2158 1.362 . S
H2160 C2166 0.930 . S
H2161 C2169 0.930 . S
H2162 C2170 0.930 . S
H2163 C2171 0.930 . S
H2164 C2174 0.930 . S
H2165 C2175 0.930 . S
C2166 H2160 0.930 . S
C2166 C2167 1.355 . S
C2166 C2168 1.415 . S
C2167 C2166 1.355 . S
C2167 C2169 1.419 . S
C2168 C2166 1.415 . S
C2168 C2173 1.425 . S
C2168 C2175 1.409 . S
C2169 H2161 0.930 . S
C2169 C2167 1.419 . S
C2169 C2170 1.362 . S
C2170 H2162 0.930 . S
C2170 C2169 1.362 . S
C2170 C2173 1.409 . S
C2171 H2163 0.930 . S
C2171 C2172 1.355 . S
C2171 C2173 1.415 . S
C2172 C2171 1.355 . S
C2172 C2174 1.419 . S
C2173 C2168 1.425 . S
C2173 C2170 1.409 . S
C2173 C2171 1.415 . S
C2174 H2164 0.930 . S
C2174 C2172 1.419 . S
C2174 C2175 1.362 . S
C2175 H2165 0.930 . S
C2175 C2168 1.409 . S
C2175 C2174 1.362 . S
H2176 C2182 0.930 . S
H2177 C2185 0.930 . S
H2178 C2186 0.930 . S
H2179 C2187 0.930 . S
H2180 C2190 0.930 . S
H2181 C2191 0.930 . S
C2182 H2176 0.930 . S
C2182 C2183 1.355 . S
C2182 C2184 1.415 . S
C2183 C2182 1.355 . S
C2183 C2185 1.419 . S
C2184 C2182 1.415 . S
C2184 C2189 1.425 . S
C2184 C2191 1.409 . S
C2185 H2177 0.930 . S
C2185 C2183 1.419 . S
C2185 C2186 1.362 . S
C2186 H2178 0.930 . S
C2186 C2185 1.362 . S
C2186 C2189 1.409 . S
C2187 H2179 0.930 . S
C2187 C2188 1.355 . S
C2187 C2189 1.415 . S
C2188 C2187 1.355 . S
C2188 C2190 1.419 . S
C2189 C2184 1.425 . S
C2189 C2186 1.409 . S
C2189 C2187 1.415 . S
C2190 H2180 0.930 . S
C2190 C2188 1.419 . S
C2190 C2191 1.362 . S
C2191 H2181 0.930 . S
C2191 C2184 1.409 . S
C2191 C2190 1.362 . S
H2192 C2198 0.930 . S
H2193 C2201 0.930 . S
H2194 C2202 0.930 . S
H2195 C2203 0.930 . S
H2196 C2206 0.930 . S
H2197 C2207 0.930 . S
C2198 H2192 0.930 . S
C2198 C2199 1.355 . S
C2198 C2200 1.415 . S
C2199 C2198 1.355 . S
C2199 C2201 1.419 . S
C2200 C2198 1.415 . S
C2200 C2205 1.425 . S
C2200 C2207 1.409 . S
C2201 H2193 0.930 . S
C2201 C2199 1.419 . S
C2201 C2202 1.362 . S
C2202 H2194 0.930 . S
C2202 C2201 1.362 . S
C2202 C2205 1.409 . S
C2203 H2195 0.930 . S
C2203 C2204 1.355 . S
C2203 C2205 1.415 . S
C2204 C2203 1.355 . S
C2204 C2206 1.419 . S
C2205 C2200 1.425 . S
C2205 C2202 1.409 . S
C2205 C2203 1.415 . S
C2206 H2196 0.930 . S
C2206 C2204 1.419 . S
C2206 C2207 1.362 . S
C2207 H2197 0.930 . S
C2207 C2200 1.409 . S
C2207 C2206 1.362 . S
H2208 C2214 0.930 . S
H2209 C2217 0.930 . S
H2210 C2218 0.930 . S
H2211 C2219 0.930 . S
H2212 C2222 0.930 . S
H2213 C2223 0.929 1_455 S
C2214 H2208 0.930 . S
C2214 C2215 1.355 . S
C2214 C2216 1.415 . S
C2215 C2214 1.355 . S
C2215 C2217 1.419 . S
C2216 C2214 1.415 . S
C2216 C2221 1.425 . S
C2216 C2223 1.403 1_455 S
C2217 H2209 0.930 . S
C2217 C2215 1.419 . S
C2217 C2218 1.362 . S
C2218 H2210 0.930 . S
C2218 C2217 1.362 . S
C2218 C2221 1.409 . S
C2219 H2211 0.930 . S
C2219 C2220 1.355 . S
C2219 C2221 1.415 1_655 S
C2220 C2219 1.355 . S
C2220 C2222 1.419 . S
C2221 C2216 1.425 . S
C2221 C2218 1.409 . S
C2221 C2219 1.415 1_455 S
C2222 H2212 0.930 . S
C2222 C2220 1.419 . S
C2222 C2223 1.370 . S
C2223 H2213 0.929 1_655 S
C2223 C2216 1.403 1_655 S
C2223 C2222 1.370 . S
C700 C354 1.285 . S
C695 C7 1.283 . S
C711 C23 1.192 . S
C716 C366 1.244 . S
C732 C401 1.121 . S
C727 C36 1.191 . S
C748 C410 1.184 . S
C743 C45 1.241 . S
C764 C365 1.261 . S
C759 C59 1.244 . S
C775 C78 1.189 . S
C780 C390 1.185 . S
C796 C409 1.221 . S
C791 C93 1.262 . S
C807 C105 1.311 . S
C812 C351 1.267 . S
C823 C115 1.324 . S
C828 C344 1.282 . S
C844 C368 1.187 . S
C839 C133 1.199 . S
C860 C387 1.205 . S
C855 C148 1.252 . S
C876 C412 1.151 . S
C871 C163 1.188 . S
C892 C373 1.202 . S
C887 C121 1.157 . S
C908 C398 1.217 . S
C903 C134 1.201 . S
C919 C147 1.242 . S
C924 C417 1.224 . S
C940 C357 1.233 . S
C935 C157 1.320 . S
C951 C175 1.293 . S
C956 C346 1.289 . S
C967 C191 1.227 . S
C972 C445 1.214 . S
C988 C461 1.168 . S
C983 C199 1.245 . S
C1004 C475 1.138 . S
C999 C218 1.202 . S
C1015 C231 1.315 . S
C1020 C343 1.288 . S
C1031 C241 1.227 . S
C1036 C395 1.164 . S
C1052 C478 1.267 . S
C1047 C205 1.218 . S
C1068 C442 1.167 . S
C1063 C260 1.211 . S
C1084 C498 1.072 . S
C1079 C22 1.125 . S
C1100 C522 1.228 . S
C1095 C9 1.199 . S
C1111 C49 1.274 . S
C1116 C555 1.209 . S
C1127 C31 1.208 . S
C1132 C563 1.187 . S
C1143 C101 1.220 . S
C1148 C533 1.158 . S
C1159 C91 1.241 . S
C1164 C544 1.223 . S
C1180 C564 1.266 . S
C1175 C79 1.201 . S
C1191 C64 1.162 . S
C1196 C497 1.090 . S
C1207 C274 1.075 . S
C1212 C500 1.121 . S
C1228 C530 1.152 . S
C1223 C213 1.195 . S
C1244 C541 1.295 . S
C1239 C233 1.239 . S
C1260 C571 1.210 . S
C1255 C189 1.253 . S
C1276 C519 1.207 . S
C1271 C273 1.267 . S
C1292 C552 1.228 . S
C1287 C219 1.241 . S
C1308 C566 1.209 . S
C1303 C227 1.176 . S
C1319 C190 1.140 . S
C1324 C505 1.140 . S
C1340 C508 1.084 . S
C1335 C289 1.136 . S
C1351 C162 1.219 . S
C1356 C596 1.246 . S
C1372 C608 1.223 . S
C1367 C301 1.215 . S
C1383 C129 1.257 . S
C1388 C629 1.274 . S
C1404 C511 1.137 . S
C1399 C149 1.202 . S
C1420 C549 1.190 . S
C1415 C315 1.225 . S
C1436 C632 1.203 . S
C1431 C302 1.170 . S
C1447 C325 1.267 . S
C1452 C599 1.210 . S
C1463 C35 1.291 . S
C1468 C654 1.292 . S
C1479 C51 1.235 . S
C1484 C432 1.176 . S
C1500 C456 1.096 . S
C1495 C8 1.139 . S
C1511 C17 1.253 . S
C1516 C486 1.228 . S
C1527 C87 1.259 . S
C1532 C431 1.179 . S
C1543 C106 1.216 . S
C1548 C467 1.189 . S
C1564 C483 1.255 . S
C1559 C65 1.268 . S
C1580 C665 1.247 . S
C1575 C77 1.282 . S
C1596 C662 1.270 . S
C1591 C297 1.258 . S
C1612 C434 1.217 . S
C1607 C287 1.232 . S
C1628 C464 1.185 . S
C1623 C330 1.227 . S
C1639 C317 1.230 . S
C1644 C476 1.167 . S
C1660 C439 1.168 . S
C1655 C303 1.158 . S
C1671 C288 1.198 . S
C1676 C453 1.129 . S
C1692 C489 1.241 . S
C1687 C329 1.256 . S
C1703 C311 1.297 . S
C1708 C651 1.292 . S
C1724 C652 1.275 . S
C1719 C217 1.274 . S
C1735 C247 1.272 . S
C1740 C379 1.179 . S
C1756 C388 1.207 . S
C1751 C269 1.189 . S
C1767 C176 1.156 . S
C1772 C423 1.108 . S
C1788 C659 1.270 . S
C1783 C259 1.289 . S
C1804 C454 1.206 . S
C1799 C185 1.236 . S
C1820 C420 1.255 . S
C1815 C275 1.201 . S
C1836 C376 1.146 . S
C1831 C232 1.191 . S
C1847 C50 1.118 . S
C1852 C673 1.161 . S
C1863 C37 1.253 . S
C1868 C585 1.260 . S
C1879 C21 1.280 . S
C1884 C621 1.245 . S
C1900 C640 1.132 . S
C1895 C3 1.184 . S
C1916 C586 1.192 . S
C1911 C73 1.153 . S
C1927 C63 1.246 . S
C1932 C610 1.228 . S
C1948 C637 1.268 . S
C1943 C107 1.281 . S
C1959 C92 1.112 . S
C1964 C674 1.128 . S
C1980 C681 1.125 . S
C1975 C204 1.145 . S
C1991 C171 1.177 . S
C1996 C593 1.212 . S
C2007 C261 1.238 . S
C2012 C607 1.293 . S
C2028 C630 1.246 . S
C2023 C245 1.231 . S
C2044 C588 1.224 . S
C2039 C203 1.208 . S
C2055 C177 1.250 . S
C2060 C618 1.221 . S
C2076 C643 1.221 . S
C2071 C255 1.200 . S
C2092 C676 1.097 . S
C2087 C246 1.149 . S
C2108 C687 1.151 . S
C2103 C135 1.097 . S
C2124 C527 1.280 . S
C2119 C316 1.249 . S
C2135 C119 1.193 . S
C2140 C542 1.169 . S
C2151 C283 1.231 . S
C2156 C574 1.244 . S
C2172 C684 1.133 . S
C2167 C331 1.147 . S
C2188 C615 1.208 . S
C2183 C161 1.210 . S
C2204 C577 1.241 . S
C2199 C120 1.213 . S
C2220 C520 1.223 . S
C2215 C143 1.239 . S
