# Generated by pormake.
# Topology soc, (4,6)-cn, num edge types: 1
# Building blocks:
#     Node 0, Type 0, BuildingBlock: ESEHIV_clean_sbu_0, # of connection points: 4
#     Node 1, Type 0, BuildingBlock: ESEHIV_clean_sbu_0, # of connection points: 4
#     Node 2, Type 0, BuildingBlock: ESEHIV_clean_sbu_0, # of connection points: 4
#     Node 3, Type 0, BuildingBlock: ESEHIV_clean_sbu_0, # of connection points: 4
#     Node 4, Type 0, BuildingBlock: ESEHIV_clean_sbu_0, # of connection points: 4
#     Node 5, Type 0, BuildingBlock: ESEHIV_clean_sbu_0, # of connection points: 4
#     Node 6, Type 0, BuildingBlock: ESEHIV_clean_sbu_0, # of connection points: 4
#     Node 7, Type 0, BuildingBlock: ESEHIV_clean_sbu_0, # of connection points: 4
#     Node 8, Type 0, BuildingBlock: ESEHIV_clean_sbu_0, # of connection points: 4
#     Node 9, Type 0, BuildingBlock: ESEHIV_clean_sbu_0, # of connection points: 4
#     Node 10, Type 0, BuildingBlock: ESEHIV_clean_sbu_0, # of connection points: 4
#     Node 11, Type 0, BuildingBlock: ESEHIV_clean_sbu_0, # of connection points: 4
#     Node 12, Type 1, BuildingBlock: CUKXOW_clean_sbu_0, # of connection points: 6
#     Node 13, Type 1, BuildingBlock: CUKXOW_clean_sbu_0, # of connection points: 6
#     Node 14, Type 1, BuildingBlock: CUKXOW_clean_sbu_0, # of connection points: 6
#     Node 15, Type 1, BuildingBlock: CUKXOW_clean_sbu_0, # of connection points: 6
#     Node 16, Type 1, BuildingBlock: CUKXOW_clean_sbu_0, # of connection points: 6
#     Node 17, Type 1, BuildingBlock: CUKXOW_clean_sbu_0, # of connection points: 6
#     Node 18, Type 1, BuildingBlock: CUKXOW_clean_sbu_0, # of connection points: 6
#     Node 19, Type 1, BuildingBlock: CUKXOW_clean_sbu_0, # of connection points: 6
#     Edge 20, Type (0, 1), BuildingBlock: EZIPEK_clean_linker_0, # of connection points: 2
#     Edge 21, Type (0, 1), BuildingBlock: EZIPEK_clean_linker_0, # of connection points: 2
#     Edge 22, Type (0, 1), BuildingBlock: EZIPEK_clean_linker_0, # of connection points: 2
#     Edge 23, Type (0, 1), BuildingBlock: EZIPEK_clean_linker_0, # of connection points: 2
#     Edge 24, Type (0, 1), BuildingBlock: EZIPEK_clean_linker_0, # of connection points: 2
#     Edge 25, Type (0, 1), BuildingBlock: EZIPEK_clean_linker_0, # of connection points: 2
#     Edge 26, Type (0, 1), BuildingBlock: EZIPEK_clean_linker_0, # of connection points: 2
#     Edge 27, Type (0, 1), BuildingBlock: EZIPEK_clean_linker_0, # of connection points: 2
#     Edge 28, Type (0, 1), BuildingBlock: EZIPEK_clean_linker_0, # of connection points: 2
#     Edge 29, Type (0, 1), BuildingBlock: EZIPEK_clean_linker_0, # of connection points: 2
#     Edge 30, Type (0, 1), BuildingBlock: EZIPEK_clean_linker_0, # of connection points: 2
#     Edge 31, Type (0, 1), BuildingBlock: EZIPEK_clean_linker_0, # of connection points: 2
#     Edge 32, Type (0, 1), BuildingBlock: EZIPEK_clean_linker_0, # of connection points: 2
#     Edge 33, Type (0, 1), BuildingBlock: EZIPEK_clean_linker_0, # of connection points: 2
#     Edge 34, Type (0, 1), BuildingBlock: EZIPEK_clean_linker_0, # of connection points: 2
#     Edge 35, Type (0, 1), BuildingBlock: EZIPEK_clean_linker_0, # of connection points: 2
#     Edge 36, Type (0, 1), BuildingBlock: EZIPEK_clean_linker_0, # of connection points: 2
#     Edge 37, Type (0, 1), BuildingBlock: EZIPEK_clean_linker_0, # of connection points: 2
#     Edge 38, Type (0, 1), BuildingBlock: EZIPEK_clean_linker_0, # of connection points: 2
#     Edge 39, Type (0, 1), BuildingBlock: EZIPEK_clean_linker_0, # of connection points: 2
#     Edge 40, Type (0, 1), BuildingBlock: EZIPEK_clean_linker_0, # of connection points: 2
#     Edge 41, Type (0, 1), BuildingBlock: EZIPEK_clean_linker_0, # of connection points: 2
#     Edge 42, Type (0, 1), BuildingBlock: EZIPEK_clean_linker_0, # of connection points: 2
#     Edge 43, Type (0, 1), BuildingBlock: EZIPEK_clean_linker_0, # of connection points: 2
#     Edge 44, Type (0, 1), BuildingBlock: EZIPEK_clean_linker_0, # of connection points: 2
#     Edge 45, Type (0, 1), BuildingBlock: EZIPEK_clean_linker_0, # of connection points: 2
#     Edge 46, Type (0, 1), BuildingBlock: EZIPEK_clean_linker_0, # of connection points: 2
#     Edge 47, Type (0, 1), BuildingBlock: EZIPEK_clean_linker_0, # of connection points: 2
#     Edge 48, Type (0, 1), BuildingBlock: EZIPEK_clean_linker_0, # of connection points: 2
#     Edge 49, Type (0, 1), BuildingBlock: EZIPEK_clean_linker_0, # of connection points: 2
#     Edge 50, Type (0, 1), BuildingBlock: EZIPEK_clean_linker_0, # of connection points: 2
#     Edge 51, Type (0, 1), BuildingBlock: EZIPEK_clean_linker_0, # of connection points: 2
#     Edge 52, Type (0, 1), BuildingBlock: EZIPEK_clean_linker_0, # of connection points: 2
#     Edge 53, Type (0, 1), BuildingBlock: EZIPEK_clean_linker_0, # of connection points: 2
#     Edge 54, Type (0, 1), BuildingBlock: EZIPEK_clean_linker_0, # of connection points: 2
#     Edge 55, Type (0, 1), BuildingBlock: EZIPEK_clean_linker_0, # of connection points: 2
#     Edge 56, Type (0, 1), BuildingBlock: EZIPEK_clean_linker_0, # of connection points: 2
#     Edge 57, Type (0, 1), BuildingBlock: EZIPEK_clean_linker_0, # of connection points: 2
#     Edge 58, Type (0, 1), BuildingBlock: EZIPEK_clean_linker_0, # of connection points: 2
#     Edge 59, Type (0, 1), BuildingBlock: EZIPEK_clean_linker_0, # of connection points: 2
#     Edge 60, Type (0, 1), BuildingBlock: EZIPEK_clean_linker_0, # of connection points: 2
#     Edge 61, Type (0, 1), BuildingBlock: EZIPEK_clean_linker_0, # of connection points: 2
#     Edge 62, Type (0, 1), BuildingBlock: EZIPEK_clean_linker_0, # of connection points: 2
#     Edge 63, Type (0, 1), BuildingBlock: EZIPEK_clean_linker_0, # of connection points: 2
#     Edge 64, Type (0, 1), BuildingBlock: EZIPEK_clean_linker_0, # of connection points: 2
#     Edge 65, Type (0, 1), BuildingBlock: EZIPEK_clean_linker_0, # of connection points: 2
#     Edge 66, Type (0, 1), BuildingBlock: EZIPEK_clean_linker_0, # of connection points: 2
#     Edge 67, Type (0, 1), BuildingBlock: EZIPEK_clean_linker_0, # of connection points: 2
# Relax obj value: 0.101
# Max RMSD: 0.176
# Mean RMSD: 0.149
data_MOF--net-soc--node1-ESEHIV_clean_sbu_0--node2-CUKXOW_clean_sbu_0--edge1-EZIPEK_clean_linker_0
_symmetry_space_group_name_H-M    P1
_symmetry_Int_Tables_number       1
_symmetry_cell_setting            triclinic
loop_
_symmetry_equiv_pos_as_xyz
'x, y, z'
_cell_length_a     33.12625
_cell_length_b     33.050761
_cell_length_c     33.660023
_cell_angle_alpha  97.424953
_cell_angle_beta   94.64712
_cell_angle_gamma 86.654152
loop_
_atom_site_label
_atom_site_type_symbol
_atom_site_fract_x
_atom_site_fract_y
_atom_site_fract_z
_atom_type_partial_charge
Cu0 Cu 0.04894 0.0585 0.28853 0.0
N1 N 0.07335 0.0986 0.26199 0.0
N2 N 0.11758 0.14976 0.26312 0.0
C3 C 0.11303 0.10884 0.26402 0.0
C4 C 0.07901 0.16525 0.26008 0.0
C5 C 0.05261 0.13437 0.25842 0.0
O6 O 0.09442 0.02883 0.31673 0.0
C7 C 0.97056 0.09605 0.31004 0.0
O8 O 0.9547 0.06196 0.29338 0.0
H9 H 0.13806 0.08728 0.26904 0.0
H10 H 1.02026 0.13903 0.26003 0.0
N11 N 1.01752 1.01533 0.25898 0.0
N12 N 0.97595 0.96188 0.24882 0.0
C13 C 0.99976 0.98603 0.2758 0.0
C14 C 1.00486 1.00876 0.21972 0.0
C15 C 0.97958 0.97601 0.21342 0.0
C16 C 0.11825 1.0068 0.29347 0.0
O17 O 0.11131 1.0067 0.2545 0.0
H18 H 1.00294 0.9835 0.30765 0.0
H19 H 1.01249 0.0272 0.19735 0.0
O20 O 1.00912 0.09646 0.31856 0.0
H21 H 0.07009 0.19744 0.26188 0.0
H22 H 0.96414 0.96417 0.1851 0.0
Cu23 Cu 0.04897 0.02437 0.7462 0.0
N24 N 1.00833 0.98909 0.71943 0.0
N25 N 0.95668 0.9461 0.7135 0.0
C26 C 0.98113 0.97107 0.7388 0.0
C27 C 0.96884 0.94882 0.67662 0.0
C28 C 1.0003 0.97534 0.68028 0.0
O29 O 1.01589 0.06989 0.77617 0.0
C30 C 0.10585 0.95808 0.7412 0.0
O31 O 0.08735 0.95553 0.70503 0.0
H32 H 0.9799 0.97544 0.77112 0.0
H33 H 1.01669 0.98334 0.65612 0.0
N34 N 0.08165 0.05488 0.71785 0.0
N35 N 0.13022 0.09873 0.71186 0.0
C36 C 0.11312 0.07639 0.73651 0.0
C37 C 0.07874 0.06414 0.67989 0.0
C38 C 0.10848 0.09117 0.6762 0.0
C39 C 0.98715 0.08535 0.75362 0.0
O40 O 0.98165 0.0681 0.71632 0.0
H41 H 0.12225 0.07699 0.76818 0.0
H42 H 0.05577 0.05331 0.65693 0.0
O43 O 0.09236 0.98602 0.76805 0.0
H44 H 0.95629 0.9322 0.64898 0.0
H45 H 0.11284 0.10536 0.64972 0.0
Cu46 Cu 0.33001 1.01321 0.02514 0.0
N47 N 0.35308 0.96371 0.00077 0.0
N48 N 0.35776 0.90843 0.95486 0.0
C49 C 0.33343 0.93931 0.97102 0.0
C50 C 0.39422 0.91321 0.97532 0.0
C51 C 0.39125 0.94733 0.00369 0.0
O52 O 0.27589 1.00245 0.03878 0.0
C53 C 0.32328 0.05063 0.95004 0.0
O54 O 0.3127 1.01535 0.9307 0.0
H55 H 0.30239 0.94538 0.95985 0.0
H56 H 0.41581 0.96034 0.02337 0.0
N57 N 0.35708 0.03913 0.07153 0.0
N58 N 0.3686 0.09229 0.11863 0.0
C59 C 0.34183 0.07448 0.09047 0.0
C60 C 0.39515 0.03448 0.08823 0.0
C61 C 0.40231 0.06731 0.11749 0.0
C62 C 0.26502 0.98108 0.06492 0.0
O63 O 0.2261 0.97817 0.06817 0.0
H64 H 0.31202 0.08772 0.08269 0.0
H65 H 0.41677 1.01009 0.07889 0.0
O66 O 0.32965 0.0548 0.98818 0.0
H67 H 0.4215 0.89479 0.96863 0.0
H68 H 0.43019 0.07281 0.13602 0.0
Cu69 Cu 1.0319 0.33703 0.99241 0.0
N70 N 0.05712 0.30591 0.95052 0.0
N71 N 0.09966 0.2933 0.90201 0.0
C72 C 0.09146 0.31638 0.93656 0.0
C73 C 0.06938 0.26723 0.8937 0.0
C74 C 0.04302 0.27515 0.92377 0.0
O75 O 0.07429 0.36053 0.03142 0.0
C76 C 0.96109 0.3494 0.94792 0.0
O77 O 0.95987 0.31112 0.95403 0.0
H78 H 0.10986 0.34081 0.95119 0.0
H79 H 1.01524 0.26007 0.92547 0.0
N80 N 1.00341 0.30853 0.02406 0.0
N81 N 0.96331 0.30428 0.07294 0.0
C82 C 0.97952 0.32915 0.05082 0.0
C83 C 1.00236 0.26887 0.02927 0.0
C84 C 0.97736 0.26616 0.05986 0.0
C85 C 0.10089 0.33351 0.04204 0.0
O86 O 0.09988 0.29637 0.02271 0.0
H87 H 0.97488 0.36209 0.05468 0.0
H88 H 1.01928 0.24407 0.01288 0.0
O89 O 0.99056 0.37042 0.96469 0.0
H90 H 0.06696 0.24384 0.86806 0.0
H91 H 0.97069 0.23877 0.07205 0.0
Cu92 Cu 0.75252 0.0835 0.04867 0.0
N93 N 0.7158 0.12307 0.03149 0.0
N94 N 0.69808 0.17327 0.99471 0.0
C95 C 0.72852 0.14923 0.00857 0.0
C96 C 0.66451 0.1629 0.01049 0.0
C97 C 0.67563 0.13137 0.0333 0.0
O98 O 0.79939 0.11359 0.07369 0.0
C99 C 0.74498 0.0396 0.96735 0.0
O100 O 0.7194 0.06967 0.95893 0.0
H101 H 0.75939 0.14878 2e-05 0.0
H102 H 0.65577 0.11472 0.04858 0.0
N103 N 0.73685 0.05261 0.08651 0.0
N104 N 0.72889 0.99292 0.10789 0.0
C105 C 0.71968 1.01626 0.07809 0.0
C106 C 0.75721 0.05186 0.12273 0.0
C107 C 0.75164 1.01555 0.13631 0.0
C108 C 0.80738 0.14647 0.09737 0.0
O109 O 0.84589 0.15413 0.10521 0.0
H110 H 0.70629 1.00491 0.04864 0.0
H111 H 0.77922 0.07358 0.13584 0.0
O112 O 0.76423 0.04181 0.00214 0.0
H113 H 0.63414 0.17552 0.00414 0.0
H114 H 0.76751 1.00439 0.16246 0.0
Cu115 Cu 0.06268 0.72119 0.01861 0.0
N116 N 1.01869 0.72712 0.98032 0.0
N117 N 0.96748 0.73812 0.9347 0.0
C118 C 0.9986 0.75511 0.95888 0.0
C119 C 0.96831 0.69879 0.94089 0.0
C120 C 0.99968 0.69219 0.96847 0.0
O121 O 0.03534 0.69736 0.05972 0.0
C122 C 0.11641 0.71557 0.96127 0.0
O123 O 0.10019 0.75285 0.96205 0.0
H124 H 1.00653 0.78663 0.96061 0.0
H125 H 1.00838 0.6634 0.97955 0.0
N126 N 0.09104 0.76383 0.04899 0.0
N127 N 0.13823 0.78646 0.09714 0.0
C128 C 0.12501 0.75437 0.0716 0.0
C129 C 0.08233 0.80371 0.06061 0.0
C130 C 0.1115 0.81776 0.09047 0.0
C131 C 1.00655 0.72161 0.0735 0.0
O132 O 1.00024 0.75718 0.06007 0.0
H133 H 0.13817 0.72358 0.07136 0.0
H134 H 0.05545 0.82061 0.05017 0.0
O135 O 0.10452 0.6924 0.98539 0.0
H136 H 0.94783 0.67631 0.9259 0.0
H137 H 0.11167 0.84782 0.1076 0.0
Cu138 Cu 0.5511 0.52938 0.79194 0.0
N139 N 0.58512 0.57295 0.81771 0.0
N140 N 0.62848 0.62499 0.82235 0.0
C141 C 0.60095 0.60189 0.79853 0.0
C142 C 0.62967 0.61021 0.85805 0.0
C143 C 0.60327 0.57854 0.85517 0.0
O144 O 0.58811 0.48645 0.76573 0.0
C145 C 0.48615 0.58208 0.78603 0.0
O146 O 0.49485 0.58281 0.82487 0.0
H147 H 0.59406 0.60447 0.76695 0.0
H148 H 0.59908 0.55971 0.87837 0.0
N149 N 0.51952 0.49638 0.82043 0.0
N150 N 0.47544 0.44751 0.82753 0.0
C151 C 0.48897 0.47252 0.80274 0.0
C152 C 0.52546 0.48577 0.85785 0.0
C153 C 0.49853 0.45613 0.86229 0.0
C154 C 0.62675 0.48863 0.76811 0.0
O155 O 0.64268 0.52434 0.7769 0.0
H156 H 0.47785 0.47238 0.77159 0.0
H157 H 0.54877 0.49752 0.87999 0.0
O158 O 0.50827 0.55911 0.7619 0.0
H159 H 0.6494 0.62063 0.88413 0.0
H160 H 0.49678 0.44125 0.88887 0.0
Cu161 Cu 0.55106 0.55546 0.2486 0.0
N162 N 0.51581 0.51496 0.22248 0.0
N163 N 0.47139 0.46476 0.21756 0.0
C164 C 0.4862 0.4985 0.2401 0.0
C165 C 0.49246 0.45997 0.18441 0.0
C166 C 0.51961 0.49075 0.18748 0.0
O167 O 0.51428 0.60226 0.27212 0.0
C168 C 0.61503 0.49684 0.25786 0.0
O169 O 0.61079 0.49683 0.21875 0.0
H170 H 0.47682 0.51006 0.26968 0.0
H171 H 0.54184 0.49408 0.16645 0.0
N172 N 0.58451 0.58122 0.21695 0.0
N173 N 0.63631 0.61881 0.20569 0.0
C174 C 0.62231 0.59356 0.22959 0.0
C175 C 0.57442 0.59921 0.18361 0.0
C176 C 0.60616 0.62225 0.17663 0.0
C177 C 0.48642 0.61709 0.24808 0.0
O178 O 0.48184 0.59919 0.21097 0.0
H179 H 0.63847 0.58593 0.25704 0.0
H180 H 0.54532 0.59742 0.16661 0.0
O181 O 0.59174 0.52163 0.27975 0.0
H182 H 0.48897 0.4354 0.15998 0.0
H183 H 0.60662 0.64105 0.15263 0.0
Cu184 Cu 0.84524 0.49972 0.49269 0.0
N185 N 0.83136 0.51584 0.44266 0.0
N186 N 0.83269 0.55607 0.39487 0.0
C187 C 0.85048 0.54569 0.42957 0.0
C188 C 0.80096 0.53198 0.38549 0.0
C189 C 0.80029 0.50678 0.41521 0.0
O190 O 0.83614 0.54776 0.53211 0.0
C191 C 0.9147 0.44553 0.47377 0.0
O192 O 0.95322 0.43436 0.47936 0.0
H193 H 0.87577 0.56098 0.44627 0.0
H194 H 0.77787 0.48486 0.41754 0.0
N195 N 0.81587 0.45835 0.50596 0.0
N196 N 0.80757 0.41001 0.54429 0.0
C197 C 0.83383 0.43363 0.53118 0.0
C198 C 0.77619 0.45056 0.50294 0.0
C199 C 0.77093 0.42035 0.5269 0.0
C200 C 0.85345 0.55358 0.56741 0.0
O201 O 0.88102 0.5267 0.57938 0.0
H202 H 0.86519 0.43559 0.54274 0.0
H203 H 0.75262 0.46743 0.48694 0.0
O204 O 0.90128 0.47833 0.49404 0.0
H205 H 0.77911 0.53377 0.36006 0.0
H206 H 0.74246 0.40876 0.53295 0.0
Cu207 Cu 0.55945 0.8392 0.49521 0.0
N208 N 0.59542 0.83608 0.45299 0.0
N209 N 0.64147 0.82886 0.4062 0.0
C210 C 0.62292 0.81015 0.43329 0.0
C211 C 0.62532 0.86721 0.40912 0.0
C212 C 0.59757 0.87146 0.43753 0.0
O213 O 0.58911 0.86072 0.5465 0.0
C214 C 0.49252 0.84759 0.44322 0.0
O215 O 0.50737 0.81061 0.43168 0.0
H216 H 0.62987 0.77897 0.43914 0.0
H217 H 0.58043 0.89931 0.44728 0.0
N218 N 0.53277 0.79642 0.51212 0.0
N219 N 0.48676 0.77668 0.5504 0.0
C220 C 0.50282 0.80815 0.53666 0.0
C221 C 0.53619 0.75539 0.51029 0.0
C222 C 0.50773 0.7431 0.53414 0.0
C223 C 0.62087 0.83928 0.55683 0.0
O224 O 0.63375 0.80923 0.53074 0.0
H225 H 0.49363 0.83983 0.54531 0.0
H226 H 0.55849 0.73603 0.49417 0.0
O227 O 0.51128 0.86931 0.47267 0.0
H228 H 0.63368 0.89079 0.39223 0.0
H229 H 0.50354 0.71221 0.53988 0.0
Cu230 Cu 0.26154 0.56168 0.52699 0.0
N231 N 0.2288 0.60476 0.50965 0.0
N232 N 0.21334 0.65707 0.47448 0.0
C233 C 0.24197 0.62903 0.48479 0.0
C234 C 0.18036 0.65016 0.49319 0.0
C235 C 0.1901 0.61773 0.51517 0.0
O236 O 0.31494 0.58389 0.54035 0.0
C237 C 0.27684 0.51511 0.44938 0.0
O238 O 0.29706 0.54629 0.44271 0.0
H239 H 0.27192 0.62566 0.47372 0.0
H240 H 0.17018 0.60408 0.53302 0.0
N241 N 0.24552 0.54024 0.57176 0.0
N242 N 0.24519 0.49653 0.6172 0.0
C243 C 0.25921 0.5036 0.58235 0.0
C244 C 0.22164 0.55676 0.60076 0.0
C245 C 0.22143 0.52978 0.62895 0.0
C246 C 0.32552 0.6148 0.56536 0.0
O247 O 0.36329 0.62537 0.56729 0.0
H248 H 0.27969 0.4828 0.56522 0.0
H249 H 0.20634 0.58666 0.60187 0.0
O250 O 0.26085 0.51619 0.48278 0.0
H251 H 0.15132 0.66674 0.49046 0.0
H252 H 0.20547 0.5343 0.65612 0.0
Cu253 Cu 0.5613 0.20479 0.54128 0.0
N254 N 0.59255 0.17411 0.50392 0.0
N255 N 0.63467 0.17015 0.45514 0.0
C256 C 0.62312 0.19124 0.4895 0.0
C257 C 0.61076 0.13796 0.4476 0.0
C258 C 0.58461 0.14045 0.47801 0.0
O259 O 0.59994 0.23081 0.58232 0.0
C260 C 0.49677 0.22245 0.48799 0.0
O261 O 0.49082 0.18418 0.49157 0.0
H262 H 0.63318 0.22133 0.50116 0.0
H263 H 0.55904 0.12173 0.47874 0.0
N264 N 0.5286 0.17473 0.56772 0.0
N265 N 0.48182 0.16491 0.60886 0.0
C266 C 0.501 0.19254 0.59233 0.0
C267 C 0.52703 0.13424 0.56882 0.0
C268 C 0.49793 0.12805 0.59445 0.0
C269 C 0.62547 0.20597 0.59821 0.0
O270 O 0.62378 0.16668 0.58593 0.0
H271 H 0.49549 0.22528 0.5985 0.0
H272 H 0.54604 0.11104 0.55273 0.0
O273 O 0.52587 0.24013 0.50944 0.0
H274 H 0.60965 0.11668 0.42029 0.0
H275 H 0.48976 0.09908 0.60247 0.0
Tb276 Tb 0.33055 0.29403 0.30245 0.0
C277 C 0.33062 0.24249 0.22021 0.0
Tb278 Tb 0.27458 0.32323 0.2399 0.0
O279 O 0.29811 0.2382 0.30308 0.0
O280 O 0.26573 0.28877 0.2876 0.0
O281 O 0.35452 0.25586 0.2518 0.0
C282 C 0.21917 0.33601 0.17902 0.0
O283 O 0.29503 0.26171 0.21218 0.0
C284 C 0.34203 0.36488 0.25158 0.0
C285 C 0.28005 0.37573 0.32459 0.0
O286 O 0.25804 0.33221 0.17667 0.0
O287 O 0.21148 0.33176 0.21533 0.0
O288 O 0.30606 0.37952 0.24175 0.0
O289 O 0.33945 0.32669 0.25249 0.0
O290 O 0.2553 0.36529 0.29218 0.0
O291 O 0.31449 0.35476 0.33131 0.0
C292 C 0.38754 0.28047 0.36161 0.0
O293 O 0.34923 0.28817 0.36586 0.0
O294 O 0.39378 0.28065 0.32411 0.0
C295 C 0.2629 0.25059 0.28869 0.0
Tb296 Tb 0.77227 0.28326 0.30587 0.0
C297 C 0.85811 0.23836 0.29527 0.0
Tb298 Tb 0.82662 0.32027 0.26193 0.0
O299 O 0.73487 0.26554 0.24963 0.0
O300 O 0.79638 0.26564 0.24859 0.0
O301 O 0.82663 0.24359 0.31763 0.0
C302 C 0.86478 0.34653 0.20301 0.0
O303 O 0.86118 0.26185 0.26656 0.0
C304 C 0.84188 0.34038 0.33969 0.0
C305 C 0.74096 0.36772 0.28118 0.0
O306 O 0.87792 0.34788 0.24041 0.0
O307 O 0.82973 0.33058 0.19941 0.0
O308 O 0.86876 0.33319 0.31351 0.0
O309 O 0.80672 0.33737 0.3214 0.0
O310 O 0.77169 0.36309 0.25725 0.0
O311 O 0.73869 0.34234 0.30821 0.0
C312 C 0.73062 0.24626 0.35446 0.0
O313 O 0.71744 0.25569 0.31951 0.0
O314 O 0.76722 0.25828 0.3627 0.0
C315 C 0.76438 0.2603 0.22641 0.0
Tb316 Tb 0.80351 0.79366 0.20963 0.0
C317 C 0.76834 0.79912 0.29576 0.0
Tb318 Tb 0.85036 0.75163 0.27417 0.0
O319 O 0.75721 0.74953 0.18761 0.0
O320 O 0.79866 0.73888 0.23433 0.0
O321 O 0.76884 0.81681 0.26239 0.0
C322 C 0.8711 0.69033 0.31669 0.0
O323 O 0.79621 0.77111 0.305 0.0
C324 C 0.87318 0.82811 0.27149 0.0
C325 C 0.886 0.74094 0.18877 0.0
O326 O 0.877 0.72857 0.32919 0.0
O327 O 0.85679 0.68684 0.2796 0.0
O328 O 0.87533 0.80951 0.30353 0.0
O329 O 0.86121 0.80203 0.24251 0.0
O330 O 0.88861 0.72871 0.22509 0.0
O331 O 0.85659 0.76739 0.17729 0.0
C332 C 0.77433 0.84755 0.16191 0.0
O333 O 0.78399 0.80961 0.14992 0.0
O334 O 0.78164 0.85536 0.20054 0.0
C335 C 0.76776 0.72456 0.21363 0.0
Tb336 Tb 0.32453 0.84406 0.24926 0.0
C337 C 0.36678 0.75728 0.26584 0.0
Tb338 Tb 0.2889 0.79594 0.30596 0.0
O339 O 0.38124 0.85143 0.28582 0.0
O340 O 0.32823 0.84662 0.31374 0.0
O341 O 0.3587 0.78337 0.23848 0.0
C342 C 0.25874 0.76096 0.3641 0.0
O343 O 0.34625 0.76066 0.29832 0.0
C344 C 0.26236 0.77901 0.22811 0.0
C345 C 0.24949 0.88393 0.2986 0.0
O346 O 0.2969 0.76369 0.35951 0.0
O347 O 0.23756 0.77768 0.33598 0.0
O348 O 0.26702 0.75273 0.2537 0.0
O349 O 0.27107 0.81251 0.24778 0.0
O350 O 0.25402 0.85356 0.3212 0.0
O351 O 0.27259 0.88546 0.26818 0.0
C352 C 0.33349 0.88689 0.18707 0.0
O353 O 0.3364 0.90057 0.22513 0.0
O354 O 0.32558 0.84848 0.18447 0.0
C355 C 0.36652 0.84867 0.31991 0.0
Tb356 Tb 0.2639 0.7417 0.77631 0.0
C357 C 0.35316 0.70143 0.7659 0.0
Tb358 Tb 0.32214 0.78141 0.72778 0.0
O359 O 0.22932 0.71901 0.71957 0.0
O360 O 0.29034 0.72724 0.72057 0.0
O361 O 0.32112 0.70528 0.78805 0.0
C362 C 0.36577 0.79906 0.66761 0.0
O363 O 0.35657 0.7246 0.73707 0.0
C364 C 0.33105 0.80238 0.80642 0.0
C365 C 0.23434 0.82656 0.74427 0.0
O366 O 0.37518 0.80612 0.70602 0.0
O367 O 0.33055 0.78277 0.66348 0.0
O368 O 0.35936 0.80289 0.78194 0.0
O369 O 0.29843 0.79489 0.78519 0.0
O370 O 0.26825 0.82516 0.72458 0.0
O371 O 0.22691 0.79734 0.76618 0.0
C372 C 0.22312 0.71777 0.83533 0.0
O373 O 0.22382 0.69977 0.79866 0.0
O374 O 0.24647 0.74845 0.83885 0.0
C375 C 0.25982 0.71794 0.69729 0.0
Tb376 Tb 0.29148 0.29051 0.74014 0.0
C377 C 0.24635 0.28871 0.81998 0.0
Tb378 Tb 0.3296 0.24039 0.80582 0.0
O379 O 0.24286 0.25189 0.71221 0.0
O380 O 0.28002 0.23465 0.76066 0.0
O381 O 0.24985 0.30803 0.78815 0.0
C382 C 0.34457 0.18029 0.85273 0.0
O383 O 0.27414 0.26192 0.83186 0.0
C384 C 0.36044 0.31492 0.80703 0.0
C385 C 0.36508 0.22551 0.7209 0.0
O386 O 0.34753 0.21907 0.86435 0.0
O387 O 0.33527 0.17532 0.81431 0.0
O388 O 0.3606 0.29449 0.83761 0.0
O389 O 0.34688 0.29067 0.77726 0.0
O390 O 0.36585 0.21367 0.75724 0.0
O391 O 0.34023 0.25544 0.70859 0.0
C392 C 0.27742 0.35565 0.7012 0.0
O393 O 0.2762 0.31791 0.68469 0.0
O394 O 0.28706 0.35683 0.73956 0.0
C395 C 0.24916 0.22443 0.73676 0.0
Tb396 Tb 0.82217 0.30265 0.743 0.0
C397 C 0.86478 0.22224 0.77253 0.0
Tb398 Tb 0.78253 0.26817 0.80211 0.0
O399 O 0.83729 0.35595 0.78607 0.0
O400 O 0.83721 0.29911 0.80553 0.0
O401 O 0.86827 0.25351 0.75196 0.0
C402 C 0.75595 0.24397 0.86753 0.0
O403 O 0.83264 0.22073 0.79377 0.0
C404 C 0.74149 0.25778 0.73091 0.0
C405 C 0.74484 0.35012 0.77379 0.0
O406 O 0.76138 0.22077 0.834 0.0
O407 O 0.76674 0.28044 0.86452 0.0
O408 O 0.72574 0.26258 0.76516 0.0
O409 O 0.77971 0.25547 0.73756 0.0
O410 O 0.75217 0.3298 0.80532 0.0
O411 O 0.76573 0.34039 0.742 0.0
C412 C 0.85056 0.31999 0.67455 0.0
O413 O 0.85503 0.34085 0.70975 0.0
O414 O 0.83104 0.28826 0.67873 0.0
C415 C 0.84255 0.33639 0.81719 0.0
Tb416 Tb 0.79523 0.76333 0.73105 0.0
C417 C 0.83891 0.77316 0.81724 0.0
Tb418 Tb 0.76358 0.82835 0.79142 0.0
O419 O 0.85369 0.79126 0.733 0.0
O420 O 0.8023 0.82852 0.74308 0.0
O421 O 0.8281 0.74619 0.78616 0.0
C422 C 0.75353 0.89784 0.84275 0.0
O423 O 0.82085 0.80993 0.82206 0.0
C424 C 0.73678 0.75324 0.79661 0.0
C425 C 0.72062 0.82163 0.70334 0.0
O426 O 0.72679 0.87022 0.83262 0.0
O427 O 0.78471 0.887 0.82223 0.0
O428 O 0.74265 0.78211 0.82619 0.0
O429 O 0.74302 0.76891 0.76524 0.0
O430 O 0.72293 0.84343 0.73965 0.0
O431 O 0.74444 0.7884 0.69422 0.0
C432 C 0.80916 0.697 0.67777 0.0
O433 O 0.8127 0.73463 0.67185 0.0
O434 O 0.7972 0.69669 0.71353 0.0
C435 C 0.84082 0.82853 0.74314 0.0
C436 C 0.18881 0.16362 0.29407 0.0
C437 C 0.1543 0.17408 0.26892 0.0
C438 C 0.18656 0.23944 0.26591 0.0
C439 C 0.22487 0.22461 0.28254 0.0
N440 N 0.26145 0.16198 0.30071 0.0
N441 N 0.1281 0.21974 0.22124 0.0
C442 C 0.22591 0.18351 0.29294 0.0
C443 C 0.15555 0.21132 0.25182 0.0
N444 N 0.18614 0.137 0.32134 0.0
N445 N 0.1782 0.28015 0.26504 0.0
H446 H 0.1092 0.19782 0.20593 0.0
H447 H 0.12775 0.24662 0.20813 0.0
H448 H 0.19699 0.30236 0.27964 0.0
H449 H 0.14972 0.29182 0.25521 0.0
H450 H 0.21031 0.13057 0.34181 0.0
H451 H 0.15852 0.12672 0.32767 0.0
H452 H 0.26204 0.13159 0.30627 0.0
H453 H 0.28978 0.17107 0.29568 0.0
C454 C 0.93682 0.16315 0.34127 0.0
C455 C 0.94515 0.1351 0.30688 0.0
C456 C 0.89453 0.17313 0.26602 0.0
C457 C 0.88825 0.20294 0.29959 0.0
N458 N 0.90852 0.22992 0.36784 0.0
N459 N 0.93906 0.12003 0.23448 0.0
C460 C 0.91084 0.19892 0.33691 0.0
C461 C 0.9261 0.14214 0.26869 0.0
N462 N 0.95253 0.15491 0.3783 0.0
N463 N 0.86896 0.17293 0.232 0.0
H464 H 0.96276 0.09785 0.23463 0.0
H465 H 0.9294 0.12678 0.20574 0.0
H466 H 0.84463 0.19405 0.22901 0.0
H467 H 0.86918 0.14929 0.20831 0.0
H468 H 0.94407 0.17143 0.40506 0.0
H469 H 0.97204 0.1296 0.38235 0.0
H470 H 0.92713 0.23093 0.39436 0.0
H471 H 0.89028 0.25647 0.36568 0.0
C472 C 0.90721 0.93475 0.25318 0.0
C473 C 0.95029 0.92918 0.25625 0.0
C474 C 0.94328 0.85889 0.27255 0.0
C475 C 0.89999 0.86332 0.26713 0.0
N476 N 0.84086 0.90789 0.25872 0.0
N477 N 1.00909 0.88423 0.26303 0.0
C478 C 0.88206 0.90196 0.25883 0.0
C479 C 0.96813 0.89084 0.2647 0.0
N480 N 0.89052 0.9718 0.24489 0.0
N481 N 0.96098 0.82463 0.28663 0.0
H482 H 1.02785 0.90678 0.25736 0.0
H483 H 1.02414 0.85578 0.26388 0.0
H484 H 0.94481 0.79999 0.29172 0.0
H485 H 0.99158 0.8216 0.2961 0.0
H486 H 0.85974 0.97822 0.23873 0.0
H487 H 0.90804 0.99672 0.24349 0.0
H488 H 0.82482 0.93514 0.2545 0.0
H489 H 0.82225 0.88558 0.26519 0.0
C490 C 0.19255 0.98916 0.31063 0.0
C491 C 0.15152 0.97806 0.30787 0.0
C492 C 0.17461 0.90549 0.30412 0.0
C493 C 0.21588 0.91637 0.30587 0.0
N494 N 0.26421 0.96889 0.32037 0.0
N495 N 0.10397 0.92725 0.31267 0.0
C496 C 0.22483 0.9584 0.31204 0.0
C497 C 0.14288 0.93668 0.30839 0.0
N498 N 0.2005 0.02925 0.31101 0.0
N499 N 0.1653 0.86545 0.29547 0.0
H500 H 0.08039 0.94953 0.31568 0.0
H501 H 0.09579 0.89835 0.3172 0.0
H502 H 0.18713 0.84168 0.29174 0.0
H503 H 0.13587 0.85583 0.2888 0.0
H504 H 0.22896 0.03951 0.30755 0.0
H505 H 0.17774 0.05231 0.314 0.0
H506 H 0.27288 0.99875 0.32857 0.0
H507 H 0.28824 0.94723 0.32247 0.0
C508 C 0.15173 0.90801 0.78046 0.0
C509 C 0.14347 0.92995 0.74683 0.0
C510 C 0.19431 0.88408 0.71089 0.0
C511 C 0.20471 0.86381 0.74535 0.0
N512 N 0.20238 0.86887 0.8176 0.0
N513 N 0.16979 0.94759 0.68676 0.0
C514 C 0.18609 0.87943 0.78157 0.0
C515 C 0.16889 0.92069 0.71422 0.0
N516 N 0.12629 0.91292 0.81081 0.0
N517 N 0.20659 0.86765 0.67425 0.0
H518 H 0.15408 0.976 0.6897 0.0
H519 H 0.1901 0.9439 0.66431 0.0
H520 H 0.2227 0.83967 0.66949 0.0
H521 H 0.19659 0.8796 0.64779 0.0
H522 H 0.12871 0.89441 0.83382 0.0
H523 H 0.10086 0.93298 0.81122 0.0
H524 H 0.19194 0.88189 0.84499 0.0
H525 H 0.22953 0.85153 0.82055 0.0
C526 C 0.20278 0.11812 0.72029 0.0
C527 C 0.16083 0.1292 0.7227 0.0
C528 C 0.17768 0.20147 0.74004 0.0
C529 C 0.21996 0.19072 0.73735 0.0
N530 N 0.27315 0.1382 0.73026 0.0
N531 N 0.10893 0.17961 0.74218 0.0
C532 C 0.23262 0.14872 0.72947 0.0
C533 C 0.1486 0.1704 0.73484 0.0
N534 N 0.21372 0.0783 0.7079 0.0
N535 N 0.1651 0.24173 0.74702 0.0
H536 H 0.08698 0.15777 0.73758 0.0
H537 H 0.09812 0.20788 0.75558 0.0
H538 H 0.18499 0.26522 0.75459 0.0
H539 H 0.13495 0.25232 0.74401 0.0
H540 H 0.24303 0.06777 0.70178 0.0
H541 H 0.19253 0.05572 0.70194 0.0
H542 H 0.28512 0.10827 0.72797 0.0
H543 H 0.29527 0.15982 0.73562 0.0
C544 C 0.93944 0.132 0.79961 0.0
C545 C 0.96184 0.1245 0.76482 0.0
C546 C 0.91813 0.17722 0.73474 0.0
C547 C 0.898 0.18806 0.77072 0.0
N548 N 0.89922 0.18155 0.84167 0.0
N549 N 0.98111 0.15238 0.70672 0.0
C550 C 0.91143 0.16711 0.8045 0.0
C551 C 0.95401 0.15133 0.73501 0.0
N552 N 0.9436 0.10518 0.8274 0.0
N553 N 0.90176 0.18897 0.6992 0.0
H554 H 1.00878 0.13554 0.70719 0.0
H555 H 0.97821 0.17363 0.68616 0.0
H556 H 0.87311 0.20348 0.69596 0.0
H557 H 0.91411 0.17908 0.67188 0.0
H558 H 0.92484 0.10668 0.85101 0.0
H559 H 0.96383 0.07978 0.82513 0.0
H560 H 0.91077 0.16954 0.86765 0.0
H561 H 0.88139 0.20838 0.84728 0.0
C562 C 0.93674 0.88927 0.7493 0.0
C563 C 0.92606 0.91957 0.72357 0.0
C564 C 0.85754 0.89192 0.71084 0.0
C565 C 0.86716 0.86397 0.73956 0.0
N566 N 0.91374 0.84465 0.79345 0.0
N567 N 0.87308 0.95535 0.68705 0.0
C568 C 0.90611 0.86542 0.76099 0.0
C569 C 0.88539 0.9226 0.70661 0.0
N570 N 0.97659 0.88142 0.76086 0.0
N571 N 0.82324 0.88779 0.68562 0.0
H572 H 0.89237 0.97854 0.68438 0.0
H573 H 0.84296 0.96149 0.67726 0.0
H574 H 0.80311 0.86491 0.68623 0.0
H575 H 0.81684 0.90458 0.66153 0.0
H576 H 0.98663 0.85687 0.77622 0.0
H577 H 1.00004 0.89659 0.7513 0.0
H578 H 0.94013 0.8473 0.81248 0.0
H579 H 0.89158 0.82873 0.80399 0.0
C580 C 0.3564 0.1676 0.12744 0.0
C581 C 0.36199 0.13035 0.14427 0.0
C582 C 0.35363 0.16728 0.2114 0.0
C583 C 0.34329 0.20422 0.19419 0.0
N584 N 0.33494 0.23957 0.13533 0.0
N585 N 0.36037 0.09335 0.20075 0.0
C586 C 0.3445 0.20429 0.15196 0.0
C587 C 0.35941 0.12995 0.18587 0.0
N588 N 0.36429 0.16795 0.08827 0.0
N589 N 0.35848 0.16738 0.25211 0.0
H590 H 0.36505 0.06557 0.18293 0.0
H591 H 0.35308 0.09021 0.22969 0.0
H592 H 0.35257 0.19263 0.27279 0.0
H593 H 0.37145 0.1427 0.26577 0.0
H594 H 0.36461 0.19438 0.07455 0.0
H595 H 0.37396 0.1417 0.07019 0.0
H596 H 0.33003 0.2407 0.10456 0.0
H597 H 0.33057 0.26792 0.15237 0.0
C598 C 0.95701 0.33181 0.14362 0.0
C599 C 0.93838 0.31768 0.10549 0.0
C600 C 0.87187 0.34098 0.12893 0.0
C601 C 0.89003 0.34859 0.16866 0.0
N602 N 0.95183 0.36713 0.20932 0.0
N603 N 0.87896 0.31024 0.05996 0.0
C604 C 0.9329 0.34892 0.1748 0.0
C605 C 0.89595 0.32297 0.09751 0.0
N606 N 0.99821 0.32935 0.15017 0.0
N607 N 0.83231 0.3534 0.12117 0.0
H608 H 0.89632 0.29762 0.03649 0.0
H609 H 0.84786 0.31 0.05251 0.0
H610 H 0.81557 0.37016 0.14322 0.0
H611 H 0.81751 0.35129 0.09256 0.0
H612 H 1.01314 0.33926 0.17794 0.0
H613 H 1.01708 0.3168 0.12799 0.0
H614 H 0.93676 0.38472 0.2321 0.0
H615 H 0.93676 0.38472 0.2321 0.0
C616 C 0.76119 0.92549 0.08872 0.0
C617 C 0.72862 0.94941 0.10593 0.0
C618 C 0.71679 0.89565 0.1462 0.0
C619 C 0.7549 0.87703 0.13641 0.0
N620 N 0.81268 0.87127 0.09643 0.0
N621 N 0.67207 0.95662 0.14641 0.0
C622 C 0.77636 0.89027 0.10613 0.0
C623 C 0.70465 0.93354 0.13242 0.0
N624 N 0.77843 0.93754 0.05695 0.0
N625 N 0.69273 0.87713 0.16886 0.0
H626 H 0.66248 0.98394 0.13527 0.0
H627 H 0.65554 0.94957 0.1694 0.0
H628 H 0.70102 0.84894 0.17876 0.0
H629 H 0.66339 0.88773 0.17494 0.0
H630 H 0.8002 0.9199 0.04093 0.0
H631 H 0.76813 0.96347 0.04394 0.0
H632 H 0.83228 0.88252 0.0783 0.0
H633 H 0.82445 0.84501 0.10816 0.0
C634 C 0.21053 0.78714 0.12325 0.0
C635 C 0.16917 0.78448 0.13002 0.0
C636 C 0.18848 0.77541 0.20067 0.0
C637 C 0.23031 0.77667 0.19367 0.0
N638 N 0.28126 0.77574 0.14651 0.0
N639 N 0.11873 0.76959 0.17255 0.0
C640 C 0.24132 0.78034 0.15437 0.0
C641 C 0.15822 0.77671 0.16803 0.0
N642 N 0.22011 0.79694 0.08708 0.0
N643 N 0.17736 0.7744 0.23872 0.0
H644 H 0.0958 0.77172 0.14969 0.0
H645 H 0.10901 0.75883 0.19771 0.0
H646 H 0.19802 0.77211 0.26336 0.0
H647 H 0.14756 0.77863 0.24668 0.0
H648 H 0.24915 0.80364 0.08105 0.0
H649 H 0.19807 0.80125 0.06383 0.0
H650 H 0.29145 0.77462 0.11792 0.0
H651 H 0.30419 0.76952 0.16832 0.0
C652 C 0.34693 0.89765 0.88078 0.0
C653 C 0.34895 0.88174 0.91801 0.0
C654 C 0.33666 0.81325 0.88247 0.0
C655 C 0.3327 0.82974 0.84531 0.0
N656 N 0.32458 0.88916 0.81005 0.0
N657 N 0.33989 0.82649 0.95555 0.0
C658 C 0.33481 0.87247 0.84481 0.0
C659 C 0.34198 0.84006 0.91919 0.0
N660 N 0.35864 0.93638 0.87971 0.0
N661 N 0.33665 0.77194 0.88254 0.0
H662 H 0.34441 0.84556 0.9826 0.0
H663 H 0.33098 0.79751 0.95892 0.0
H664 H 0.33183 0.75179 0.85632 0.0
H665 H 0.34352 0.75748 0.90812 0.0
H666 H 0.3619 0.94861 0.8532 0.0
H667 H 0.36898 0.95493 0.90548 0.0
H668 H 0.32147 0.92052 0.80879 0.0
H669 H 0.31534 0.87182 0.78309 0.0
C670 C 0.14624 0.32823 0.86482 0.0
C671 C 0.13599 0.29314 0.88129 0.0
C672 C 0.19324 0.25465 0.8519 0.0
C673 C 0.20745 0.2911 0.84004 0.0
N674 N 0.20015 0.36466 0.84293 0.0
N675 N 0.15663 0.22704 0.90043 0.0
C676 C 0.18462 0.3286 0.84847 0.0
C677 C 0.16161 0.25764 0.87785 0.0
N678 N 0.11895 0.36071 0.86397 0.0
N679 N 0.20802 0.21672 0.837 0.0
H680 H 0.13489 0.22906 0.92142 0.0
H681 H 0.17711 0.20197 0.90164 0.0
H682 H 0.2295 0.21147 0.81594 0.0
H683 H 0.1952 0.18992 0.84202 0.0
H684 H 0.12318 0.38566 0.84901 0.0
H685 H 0.0904 0.36078 0.875 0.0
H686 H 0.18614 0.39302 0.85202 0.0
H687 H 0.22899 0.36654 0.83326 0.0
C688 C 0.72954 0.23097 0.97334 0.0
C689 C 0.70249 0.19899 0.96421 0.0
C690 C 0.70162 0.20687 0.89301 0.0
C691 C 0.73538 0.232 0.90145 0.0
N692 N 0.78367 0.26617 0.95064 0.0
N693 N 0.66575 0.15299 0.91448 0.0
C694 C 0.74955 0.24436 0.94197 0.0
C695 C 0.68877 0.18632 0.92384 0.0
N696 N 0.73682 0.24736 0.01241 0.0
N697 N 0.68102 0.2035 0.85596 0.0
H698 H 0.65578 0.13675 0.93602 0.0
H699 H 0.65921 0.13963 0.88505 0.0
H700 H 0.68781 0.22015 0.83327 0.0
H701 H 0.6542 0.18816 0.8495 0.0
H702 H 0.75372 0.27305 0.02118 0.0
H703 H 0.72246 0.23731 0.0356 0.0
H704 H 0.79744 0.2723 0.97957 0.0
H705 H 0.80057 0.27509 0.92878 0.0
C706 C 0.9012 0.77135 0.91792 0.0
C707 C 0.93912 0.75489 0.90561 0.0
C708 C 0.91245 0.75041 0.83487 0.0
C709 C 0.87308 0.76362 0.84729 0.0
N710 N 0.82888 0.77998 0.90136 0.0
N711 N 0.98129 0.72626 0.85364 0.0
C712 C 0.86728 0.77272 0.88909 0.0
C713 C 0.94486 0.74414 0.86434 0.0
N714 N 0.89773 0.7849 0.95762 0.0
N715 N 0.91951 0.74506 0.79507 0.0
H716 H 1.00615 0.72382 0.87447 0.0
H717 H 0.98644 0.71221 0.82488 0.0
H718 H 0.89685 0.74662 0.77215 0.0
H719 H 0.94837 0.74128 0.78459 0.0
H720 H 0.87219 0.8009 0.96873 0.0
H721 H 0.9221 0.78314 0.97912 0.0
H722 H 0.82205 0.78325 0.93127 0.0
H723 H 0.8031 0.7786 0.88144 0.0
C724 C 0.12786 0.30983 0.10687 0.0
C725 C 0.12781 0.33957 0.07992 0.0
C726 C 0.18554 0.3707 0.12107 0.0
C727 C 0.18832 0.33765 0.14452 0.0
N728 N 0.16853 0.27015 0.15189 0.0
N729 N 0.15971 0.39605 0.05869 0.0
C730 C 0.16117 0.30576 0.13538 0.0
C731 C 0.15733 0.36971 0.08642 0.0
N732 N 0.09551 0.28582 0.10591 0.0
N733 N 0.20929 0.40326 0.13228 0.0
H734 H 0.13946 0.39631 0.03333 0.0
H735 H 0.18331 0.41565 0.05936 0.0
H736 H 0.23044 0.40465 0.15708 0.0
H737 H 0.20591 0.43009 0.11891 0.0
H738 H 0.0925 0.26635 0.12742 0.0
H739 H 0.06967 0.28882 0.0865 0.0
H740 H 0.15253 0.24405 0.14193 0.0
H741 H 0.19326 0.26515 0.1722 0.0
C742 C 0.18781 0.70953 0.93956 0.0
C743 C 0.1461 0.70228 0.93045 0.0
C744 C 0.15516 0.70084 0.85839 0.0
C745 C 0.19722 0.70791 0.86728 0.0
N746 N 0.25517 0.70792 0.91553 0.0
N747 N 0.09256 0.68039 0.88154 0.0
C748 C 0.21403 0.70877 0.90769 0.0
C749 C 0.13086 0.694 0.88986 0.0
N750 N 0.20199 0.71892 0.97873 0.0
N751 N 0.13737 0.70408 0.82077 0.0
H752 H 0.07424 0.67556 0.90416 0.0
H753 H 0.08063 0.6701 0.85266 0.0
H754 H 0.15296 0.71091 0.79706 0.0
H755 H 0.10616 0.7039 0.81386 0.0
H756 H 0.23068 0.72975 0.98741 0.0
H757 H 0.18402 0.71773 0.0026 0.0
H758 H 0.26949 0.705 0.94378 0.0
H759 H 0.27522 0.70595 0.89292 0.0
C760 C 0.36213 0.08112 0.9005 0.0
C761 C 0.33038 0.08506 0.92707 0.0
C762 C 0.30868 0.15184 0.90559 0.0
C763 C 0.34103 0.14842 0.87976 0.0
N764 N 0.40145 0.11286 0.85586 0.0
N765 N 0.27732 0.12652 0.95967 0.0
C766 C 0.36845 0.11374 0.87796 0.0
C767 C 0.30506 0.12129 0.93123 0.0
N768 N 0.38652 0.04621 0.89716 0.0
N769 N 0.27979 0.18301 0.90381 0.0
H770 H 0.27153 0.10389 0.97704 0.0
H771 H 0.26179 0.15422 0.96802 0.0
H772 H 0.28088 0.20596 0.88553 0.0
H773 H 0.25285 0.18458 0.91796 0.0
H774 H 0.40662 0.03855 0.87488 0.0
H775 H 0.38597 0.02395 0.91635 0.0
H776 H 0.42498 0.09061 0.85591 0.0
H777 H 0.40687 0.13622 0.83918 0.0
C778 C 0.88888 0.36174 0.9244 0.0
C779 C 0.93039 0.36371 0.91757 0.0
C780 C 0.91375 0.35271 0.84484 0.0
C781 C 0.87216 0.34962 0.85151 0.0
N782 N 0.81884 0.35947 0.89689 0.0
N783 N 0.98062 0.37317 0.87244 0.0
C784 C 0.85929 0.35707 0.89113 0.0
C785 C 0.94205 0.36378 0.87809 0.0
N786 N 0.8783 0.36222 0.96288 0.0
N787 N 0.92692 0.34205 0.80725 0.0
H788 H 1.0019 0.38109 0.89631 0.0
H789 H 0.9902 0.37728 0.84458 0.0
H790 H 0.90781 0.33257 0.78208 0.0
H791 H 0.95741 0.33906 0.80143 0.0
H792 H 0.84972 0.35546 0.97022 0.0
H793 H 0.8991 0.36808 0.98771 0.0
H794 H 0.8071 0.36847 0.9246 0.0
H795 H 0.79663 0.35511 0.87324 0.0
C796 C 0.71158 0.98578 0.91674 0.0
C797 C 0.7477 1.00167 0.93732 0.0
C798 C 0.78642 0.94453 0.90123 0.0
C799 C 0.75126 0.93332 0.87567 0.0
N800 N 0.68134 0.95021 0.85519 0.0
N801 N 0.82093 0.99928 0.94285 0.0
C802 C 0.71407 0.95587 0.88235 0.0
C803 C 0.78557 0.9819 0.92784 0.0
N804 N 0.67471 0.99764 0.93104 0.0
N805 N 0.82008 0.91862 0.90205 0.0
H806 H 0.82186 0.02713 0.96127 0.0
H807 H 0.84915 0.98806 0.93355 0.0
H808 H 0.82122 0.88951 0.88596 0.0
H809 H 0.84496 0.92391 0.92272 0.0
H810 H 0.64793 0.98423 0.91913 0.0
H811 H 0.67148 1.01693 0.95778 0.0
H812 H 0.65483 0.96877 0.85693 0.0
H813 H 0.68215 0.93027 0.82861 0.0
C814 C 0.93666 0.70748 0.09066 0.0
C815 C 0.97838 0.71176 0.10312 0.0
C816 C 0.96057 0.73063 0.17281 0.0
C817 C 0.91851 0.7268 0.16042 0.0
N818 N 0.86848 0.69985 0.10939 0.0
N819 N 1.03068 0.71571 0.15678 0.0
C820 C 0.9072 0.71152 0.11985 0.0
C821 C 0.99045 0.71903 0.14456 0.0
N822 N 0.92503 0.70091 0.05059 0.0
N823 N 0.97211 0.74843 0.21058 0.0
H824 H 0.05287 0.70753 0.13652 0.0
H825 H 0.0415 0.71684 0.18681 0.0
H826 H 0.95163 0.75865 0.23184 0.0
H827 H 1.00165 0.75649 0.21974 0.0
H828 H 0.89497 0.70305 0.039 0.0
H829 H 0.94595 0.69498 0.02879 0.0
H830 H 0.85919 0.68504 0.08121 0.0
H831 H 0.8466 0.70124 0.13019 0.0
C832 C 0.30496 0.97897 0.13164 0.0
C833 C 0.29415 0.9595 0.09237 0.0
C834 C 0.32364 0.89413 0.11234 0.0
C835 C 0.32948 0.91267 0.15276 0.0
N836 N 0.34446 0.97522 0.19511 0.0
N837 N 0.29159 0.89815 0.0453 0.0
C838 C 0.32595 0.95596 0.16069 0.0
C839 C 0.30382 0.91707 0.0825 0.0
N840 N 0.29285 0.01892 0.14201 0.0
N841 N 0.33918 0.85532 0.10213 0.0
H842 H 0.27789 0.91407 0.02258 0.0
H843 H 0.29266 0.86659 0.03764 0.0
H844 H 0.35722 0.83957 0.12248 0.0
H845 H 0.33882 0.84079 0.07277 0.0
H846 H 0.29484 0.03341 0.17141 0.0
H847 H 0.27801 0.03689 0.1215 0.0
H848 H 0.34392 1.00673 0.20253 0.0
H849 H 0.36519 0.95999 0.21364 0.0
C850 C 0.75435 0.16639 0.14741 0.0
C851 C 0.77737 0.17731 0.1173 0.0
C852 C 0.77266 0.24779 0.15171 0.0
C853 C 0.76323 0.23283 0.18734 0.0
N854 N 0.74496 0.17479 0.21823 0.0
N855 N 0.80304 0.23221 0.08786 0.0
C856 C 0.75395 0.1912 0.18505 0.0
C857 C 0.78429 0.21948 0.1183 0.0
N858 N 0.72769 0.13656 0.13804 0.0
N859 N 0.76875 0.28863 0.14913 0.0
H860 H 0.80942 0.21245 0.06208 0.0
H861 H 0.81301 0.26169 0.089 0.0
H862 H 0.75819 0.30944 0.1725 0.0
H863 H 0.77125 0.3008 0.12244 0.0
H864 H 0.70773 0.12926 0.1582 0.0
H865 H 0.72168 0.12472 0.10822 0.0
H866 H 0.74065 0.14364 0.21735 0.0
H867 H 0.74493 0.19137 0.24675 0.0
C868 C 0.63903 0.69646 0.80779 0.0
C869 C 0.65462 0.65601 0.81168 0.0
C870 C 0.72368 0.67858 0.80405 0.0
C871 C 0.70804 0.71884 0.79863 0.0
N872 N 0.64937 0.7643 0.79011 0.0
N873 N 0.71078 0.60703 0.80665 0.0
C874 C 0.6652 0.72708 0.79882 0.0
C875 C 0.6967 0.64678 0.80775 0.0
N876 N 0.59932 0.70603 0.81453 0.0
N877 N 0.76468 0.67094 0.8072 0.0
H878 H 0.69198 0.58353 0.80961 0.0
H879 H 0.73993 0.59679 0.79954 0.0
H880 H 0.78509 0.69278 0.80381 0.0
H881 H 0.77861 0.64407 0.81582 0.0
H882 H 0.58627 0.73556 0.81654 0.0
H883 H 0.57988 0.68438 0.82091 0.0
H884 H 0.61845 0.7713 0.7855 0.0
H885 H 0.66735 0.78751 0.78452 0.0
C886 C 0.46005 0.6525 0.77577 0.0
C887 C 0.45256 0.61043 0.77275 0.0
C888 C 0.37907 0.62721 0.76446 0.0
C889 C 0.38656 0.66962 0.77164 0.0
N890 N 0.43412 0.72225 0.79174 0.0
N891 N 0.40521 0.55721 0.7674 0.0
C892 C 0.42711 0.68212 0.77914 0.0
C893 C 0.41208 0.59762 0.76776 0.0
N894 N 0.49892 0.66408 0.77528 0.0
N895 N 0.34062 0.61515 0.75337 0.0
H896 H 0.42867 0.53474 0.76751 0.0
H897 H 0.37665 0.54615 0.76887 0.0
H898 H 0.31569 0.63572 0.75214 0.0
H899 H 0.3337 0.58509 0.74314 0.0
H900 H 0.50633 0.69396 0.77353 0.0
H901 H 0.52349 0.64295 0.77253 0.0
H902 H 0.46267 0.73284 0.80155 0.0
H903 H 0.41078 0.74441 0.79662 0.0
C904 C 0.40988 0.41929 0.84206 0.0
C905 C 0.44435 0.41659 0.81907 0.0
C906 C 0.41729 0.35348 0.78004 0.0
C907 C 0.38635 0.35238 0.80727 0.0
N908 N 0.35391 0.38613 0.86507 0.0
N909 N 0.48382 0.3765 0.77008 0.0
C910 C 0.38306 0.3859 0.83854 0.0
C911 C 0.44861 0.38256 0.78893 0.0
N912 N 0.40178 0.45482 0.86622 0.0
N913 N 0.41678 0.32759 0.74505 0.0
H914 H 0.50766 0.39612 0.77653 0.0
H915 H 0.49104 0.34996 0.75124 0.0
H916 H 0.39419 0.30726 0.7361 0.0
H917 H 0.43609 0.32972 0.72255 0.0
H918 H 0.37524 0.46103 0.88094 0.0
H919 H 0.41996 0.47986 0.86837 0.0
H920 H 0.35315 0.40618 0.89156 0.0
H921 H 0.33118 0.36513 0.86141 0.0
C922 C 0.6548 0.41902 0.73823 0.0
C923 C 0.65422 0.45115 0.77042 0.0
C924 C 0.714 0.41823 0.80398 0.0
C925 C 0.71265 0.38428 0.77353 0.0
N926 N 0.67492 0.34866 0.71654 0.0
N927 N 0.67638 0.47479 0.83928 0.0
C928 C 0.6811 0.38367 0.74196 0.0
C929 C 0.68177 0.44877 0.80491 0.0
N930 N 0.63126 0.42268 0.70351 0.0
N931 N 0.74706 0.42268 0.83088 0.0
H932 H 0.65205 0.4962 0.84205 0.0
H933 H 0.69326 0.47189 0.86635 0.0
H934 H 0.77221 0.40226 0.82988 0.0
H935 H 0.75141 0.44892 0.8512 0.0
H936 H 0.63381 0.40236 0.67736 0.0
H937 H 0.61154 0.4479 0.69979 0.0
H938 H 0.65024 0.34498 0.69538 0.0
H939 H 0.69194 0.32181 0.71983 0.0
C940 C 0.685 0.47508 0.28662 0.0
C941 C 0.64464 0.46486 0.2734 0.0
C942 C 0.66663 0.39139 0.26874 0.0
C943 C 0.70793 0.40157 0.27816 0.0
N944 N 0.75643 0.4536 0.29579 0.0
N945 N 0.59683 0.41345 0.25045 0.0
C946 C 0.71701 0.44365 0.28708 0.0
C947 C 0.63545 0.42297 0.26459 0.0
N948 N 0.69246 0.5151 0.29918 0.0
N949 N 0.65706 0.35126 0.26333 0.0
H950 H 0.57295 0.43542 0.24954 0.0
H951 H 0.58853 0.38436 0.23809 0.0
H952 H 0.67875 0.32712 0.2619 0.0
H953 H 0.62759 0.3416 0.26195 0.0
H954 H 0.72028 0.52543 0.31167 0.0
H955 H 0.66946 0.53805 0.30001 0.0
H956 H 0.76643 0.4831 0.29808 0.0
H957 H 0.77987 0.43168 0.29891 0.0
C958 C 0.70037 0.63519 0.17832 0.0
C959 C 0.67458 0.6394 0.21048 0.0
C960 C 0.7248 0.68293 0.25065 0.0
C961 C 0.74486 0.68679 0.21587 0.0
N962 N 0.7533 0.66377 0.14613 0.0
N963 N 0.66051 0.67284 0.27642 0.0
C964 C 0.73318 0.66177 0.1796 0.0
C965 C 0.68652 0.66443 0.2467 0.0
N966 N 0.69417 0.60493 0.14713 0.0
N967 N 0.74276 0.69586 0.2875 0.0
H968 H 0.63126 0.66233 0.27368 0.0
H969 H 0.66649 0.69391 0.30176 0.0
H970 H 0.77285 0.70385 0.2906 0.0
H971 H 0.73049 0.69216 0.31428 0.0
H972 H 0.7138 0.59788 0.1243 0.0
H973 H 0.67159 0.58407 0.14641 0.0
H974 H 0.74331 0.65051 0.11753 0.0
H975 H 0.77952 0.68002 0.14706 0.0
C976 C 0.41636 0.64775 0.26259 0.0
C977 C 0.45807 0.6539 0.25962 0.0
C978 C 0.44081 0.72846 0.26158 0.0
C979 C 0.39851 0.72176 0.26062 0.0
N980 N 0.34621 0.67316 0.25417 0.0
N981 N 0.50953 0.70008 0.25198 0.0
C982 C 0.38649 0.68083 0.25975 0.0
C983 C 0.47012 0.69435 0.25813 0.0
N984 N 0.40529 0.60997 0.26871 0.0
N985 N 0.4533 0.76755 0.26722 0.0
H986 H 0.53186 0.67643 0.25111 0.0
H987 H 0.51965 0.72759 0.24555 0.0
H988 H 0.4331 0.79292 0.26881 0.0
H989 H 0.48352 0.77488 0.27312 0.0
H990 H 0.37627 0.60388 0.27536 0.0
H991 H 0.42627 0.5854 0.27096 0.0
H992 H 0.33523 0.64393 0.24898 0.0
H993 H 0.32369 0.69602 0.25071 0.0
C994 C 0.40523 0.43236 0.19935 0.0
C995 C 0.44003 0.43855 0.22644 0.0
C996 C 0.4124 0.39346 0.27002 0.0
C997 C 0.37891 0.38539 0.2414 0.0
N998 N 0.35137 0.38764 0.17312 0.0
N999 N 0.48078 0.41772 0.28344 0.0
C1000 C 0.37775 0.40203 0.20435 0.0
C1001 C 0.44475 0.41702 0.2607 0.0
N1002 N 0.39737 0.4568 0.16962 0.0
N1003 N 0.41284 0.37967 0.30656 0.0
H1004 H 0.50513 0.43365 0.27686 0.0
H1005 H 0.48777 0.39961 0.30642 0.0
H1006 H 0.3905 0.36146 0.31372 0.0
H1007 H 0.43385 0.3883 0.33043 0.0
H1008 H 0.37044 0.45646 0.15132 0.0
H1009 H 0.41577 0.48047 0.1662 0.0
H1010 H 0.35152 0.39607 0.14435 0.0
H1011 H 0.33288 0.36349 0.17465 0.0
C1012 C 0.80336 0.59376 0.61161 0.0
C1013 C 0.84187 0.59043 0.59537 0.0
C1014 C 0.86006 0.65505 0.63587 0.0
C1015 C 0.82033 0.66018 0.64947 0.0
N1016 N 0.75211 0.63751 0.64583 0.0
N1017 N 0.9045 0.62071 0.58685 0.0
C1018 C 0.79144 0.63028 0.63624 0.0
C1019 C 0.86956 0.62188 0.60607 0.0
N1020 N 0.77866 0.56148 0.6045 0.0
N1021 N 0.88941 0.68067 0.65286 0.0
H1022 H 0.91263 0.59683 0.56512 0.0
H1023 H 0.9237 0.64495 0.58987 0.0
H1024 H 0.88411 0.7047 0.67541 0.0
H1025 H 0.91992 0.67587 0.64744 0.0
H1026 H 0.75238 0.56001 0.61916 0.0
H1027 H 0.78602 0.53456 0.58619 0.0
H1028 H 0.72862 0.61913 0.63355 0.0
H1029 H 0.74215 0.66389 0.66352 0.0
C1030 C 0.41527 0.77292 0.56708 0.0
C1031 C 0.45629 0.7807 0.5796 0.0
C1032 C 0.43546 0.81151 0.64585 0.0
C1033 C 0.39499 0.7996 0.63515 0.0
N1034 N 0.34433 0.7854 0.58031 0.0
N1035 N 0.50646 0.80224 0.63224 0.0
C1036 C 0.38421 0.78451 0.59425 0.0
C1037 C 0.46654 0.79858 0.61941 0.0
N1038 N 0.40618 0.75399 0.52918 0.0
N1039 N 0.4436 0.83852 0.67945 0.0
H1040 H 0.5297 0.79271 0.61357 0.0
H1041 H 0.51656 0.81082 0.6621 0.0
H1042 H 0.42083 0.8538 0.69599 0.0
H1043 H 0.47184 0.85072 0.6873 0.0
H1044 H 0.37785 0.74298 0.51917 0.0
H1045 H 0.42807 0.74662 0.50849 0.0
H1046 H 0.33445 0.77858 0.55019 0.0
H1047 H 0.32138 0.79881 0.59773 0.0
C1048 C 0.22297 0.43271 0.63779 0.0
C1049 C 0.25368 0.46069 0.63755 0.0
C1050 C 0.30097 0.41802 0.67657 0.0
C1051 C 0.2692 0.39184 0.67945 0.0
N1052 N 0.19864 0.3765 0.66758 0.0
N1053 N 0.32083 0.48235 0.65883 0.0
C1054 C 0.22982 0.39968 0.66121 0.0
C1055 C 0.29244 0.45389 0.65749 0.0
N1056 N 0.18774 0.43709 0.61435 0.0
N1057 N 0.33964 0.40768 0.69061 0.0
H1058 H 0.31618 0.5074 0.64311 0.0
H1059 H 0.34779 0.48244 0.67701 0.0
H1060 H 0.34705 0.38172 0.70484 0.0
H1061 H 0.365 0.42296 0.68566 0.0
H1062 H 0.16555 0.4156 0.60971 0.0
H1063 H 0.18221 0.46083 0.59669 0.0
H1064 H 0.16842 0.38326 0.65876 0.0
H1065 H 0.20249 0.35213 0.68459 0.0
C1066 C 0.6865 0.24633 0.62516 0.0
C1067 C 0.65612 0.21972 0.63129 0.0
C1068 C 0.69119 0.20883 0.6964 0.0
C1069 C 0.71758 0.24043 0.69343 0.0
N1070 N 0.73802 0.29182 0.65531 0.0
N1071 N 0.62596 0.18053 0.6759 0.0
C1072 C 0.71491 0.2596 0.65768 0.0
C1073 C 0.65757 0.2022 0.66776 0.0
N1074 N 0.68915 0.25796 0.58798 0.0
N1075 N 0.699 0.18422 0.72605 0.0
H1076 H 0.60011 0.17605 0.65632 0.0
H1077 H 0.62352 0.17069 0.70376 0.0
H1078 H 0.72467 0.18679 0.74619 0.0
H1079 H 0.68287 0.15841 0.72764 0.0
H1080 H 0.71348 0.27332 0.58048 0.0
H1081 H 0.6688 0.24921 0.56356 0.0
H1082 H 0.73393 0.31035 0.63237 0.0
H1083 H 0.75942 0.30174 0.678 0.0
C1084 C 0.88566 0.43393 0.40227 0.0
C1085 C 0.88933 0.42154 0.44128 0.0
C1086 C 0.85492 0.35822 0.41461 0.0
C1087 C 0.85165 0.3706 0.3757 0.0
N1088 N 0.85806 0.42262 0.33301 0.0
N1089 N 0.88639 0.36755 0.48268 0.0
C1090 C 0.86515 0.40929 0.36985 0.0
C1091 C 0.87592 0.38265 0.44711 0.0
N1092 N 0.90542 0.46724 0.39532 0.0
N1093 N 0.83811 0.32283 0.42028 0.0
H1094 H 0.9031 0.3837 0.50651 0.0
H1095 H 0.88139 0.33794 0.48782 0.0
H1096 H 0.82351 0.30422 0.39676 0.0
H1097 H 0.83584 0.31341 0.44829 0.0
H1098 H 0.91089 0.4733 0.36673 0.0
H1099 H 0.91985 0.4869 0.41812 0.0
H1100 H 0.86321 0.45198 0.32744 0.0
H1101 H 0.84413 0.40522 0.30821 0.0
C1102 C 0.66312 0.80367 0.33823 0.0
C1103 C 0.67338 0.8146 0.3798 0.0
C1104 C 0.74447 0.82088 0.36524 0.0
C1105 C 0.73464 0.80824 0.32365 0.0
N1106 N 0.68536 0.78131 0.27158 0.0
N1107 N 0.72399 0.82859 0.43393 0.0
C1108 C 0.69409 0.798 0.3104 0.0
C1109 C 0.71429 0.82138 0.39352 0.0
N1110 N 0.62321 0.79995 0.32531 0.0
N1111 N 0.78233 0.83424 0.3774 0.0
H1112 H 0.70222 0.82973 0.45484 0.0
H1113 H 0.75354 0.83018 0.4469 0.0
H1114 H 0.80458 0.8356 0.35744 0.0
H1115 H 0.79082 0.84727 0.40645 0.0
H1116 H 0.61247 0.79706 0.2952 0.0
H1117 H 0.60041 0.80186 0.34524 0.0
H1118 H 0.65793 0.76842 0.26127 0.0
H1119 H 0.70651 0.7778 0.25001 0.0
C1120 C 0.21977 0.6696 0.40491 0.0
C1121 C 0.21739 0.68521 0.44584 0.0
C1122 C 0.23516 0.75276 0.4316 0.0
C1123 C 0.24233 0.73567 0.39175 0.0
N1124 N 0.24349 0.67776 0.34019 0.0
N1125 N 0.22214 0.74072 0.49917 0.0
C1126 C 0.23482 0.69412 0.37817 0.0
C1127 C 0.2244 0.72677 0.45939 0.0
N1128 N 0.20687 0.63133 0.3918 0.0
N1129 N 0.23842 0.79381 0.44258 0.0
H1130 H 0.21325 0.72246 0.51966 0.0
H1131 H 0.23076 0.76942 0.5124 0.0
H1132 H 0.24691 0.81332 0.42302 0.0
H1133 H 0.23038 0.80912 0.46999 0.0
H1134 H 0.2043 0.61885 0.36175 0.0
H1135 H 0.19526 0.61325 0.411 0.0
H1136 H 0.24308 0.64671 0.32988 0.0
H1137 H 0.25358 0.69498 0.31939 0.0
C1138 C 0.47168 0.21985 0.41559 0.0
C1139 C 0.47306 0.24146 0.45499 0.0
C1140 C 0.42332 0.29281 0.43102 0.0
C1141 C 0.41807 0.26804 0.39333 0.0
N1142 N 0.4321 0.20375 0.35262 0.0
N1143 N 0.44697 0.29648 0.50158 0.0
C1144 C 0.44111 0.2306 0.38621 0.0
C1145 C 0.44827 0.27767 0.46306 0.0
N1146 N 0.50005 0.18919 0.40592 0.0
N1147 N 0.40531 0.33123 0.4359 0.0
H1148 H 0.46485 0.28648 0.52568 0.0
H1149 H 0.42607 0.32014 0.51014 0.0
H1150 H 0.38726 0.34342 0.41306 0.0
H1151 H 0.41117 0.3523 0.46121 0.0
H1152 H 0.50339 0.17559 0.3766 0.0
H1153 H 0.52293 0.18012 0.42647 0.0
H1154 H 0.44484 0.17408 0.34827 0.0
H1155 H 0.40883 0.20919 0.33096 0.0
C1156 C 0.6358 0.80615 0.62022 0.0
C1157 C 0.63859 0.84083 0.59963 0.0
C1158 C 0.68973 0.86801 0.65246 0.0
C1159 C 0.68839 0.83217 0.67164 0.0
N1160 N 0.65244 0.77324 0.68043 0.0
N1161 N 0.66169 0.90842 0.59993 0.0
C1162 C 0.65894 0.80319 0.65749 0.0
C1163 C 0.66327 0.87313 0.61724 0.0
N1164 N 0.61182 0.77524 0.60339 0.0
N1165 N 0.71758 0.8962 0.66687 0.0
H1166 H 0.64329 0.91243 0.57395 0.0
H1167 H 0.67613 0.93467 0.61252 0.0
H1168 H 0.73561 0.89442 0.69348 0.0
H1169 H 0.72394 0.92059 0.6521 0.0
H1170 H 0.61255 0.7467 0.61344 0.0
H1171 H 0.59195 0.77758 0.57808 0.0
H1172 H 0.62872 0.75353 0.67436 0.0
H1173 H 0.66863 0.77049 0.70793 0.0
C1174 C 0.6985 0.17208 0.42259 0.0
C1175 C 0.65797 0.18655 0.42728 0.0
C1176 C 0.66697 0.24254 0.38836 0.0
C1177 C 0.70658 0.22627 0.38081 0.0
N1178 N 0.758 0.17172 0.38503 0.0
N1179 N 0.60091 0.23044 0.40898 0.0
C1180 C 0.72196 0.19 0.39646 0.0
C1181 C 0.64139 0.22019 0.40826 0.0
N1182 N 0.71471 0.14194 0.44405 0.0
N1183 N 0.65453 0.28044 0.37854 0.0
H1184 H 0.58151 0.21479 0.42371 0.0
H1185 H 0.586 0.25184 0.3921 0.0
H1186 H 0.67299 0.29878 0.36555 0.0
H1187 H 0.62753 0.29557 0.38704 0.0
H1188 H 0.74538 0.13289 0.44556 0.0
H1189 H 0.69766 0.12784 0.46261 0.0
H1190 H 0.76873 0.14314 0.39227 0.0
H1191 H 0.77576 0.18346 0.36545 0.0
C1192 C 0.8281 0.62999 0.39085 0.0
C1193 C 0.84253 0.59033 0.3759 0.0
C1194 C 0.88416 0.61877 0.33057 0.0
C1195 C 0.86639 0.65809 0.34222 0.0
N1196 N 0.81566 0.70019 0.37889 0.0
N1197 N 0.87922 0.54564 0.32821 0.0
C1198 C 0.83714 0.66372 0.37153 0.0
C1199 C 0.86926 0.58437 0.34484 0.0
N1200 N 0.80555 0.63529 0.42352 0.0
N1201 N 0.91555 0.61453 0.30614 0.0
H1202 H 0.86737 0.52039 0.33772 0.0
H1203 H 0.89574 0.53877 0.30297 0.0
H1204 H 0.92742 0.63944 0.29572 0.0
H1205 H 0.93218 0.58715 0.29927 0.0
H1206 H 0.79836 0.66382 0.43903 0.0
H1207 H 0.79621 0.61089 0.43673 0.0
H1208 H 0.79043 0.70401 0.3958 0.0
H1209 H 0.8206 0.72611 0.36584 0.0
C1210 C 0.41787 0.84121 0.42464 0.0
C1211 C 0.45406 0.86138 0.42132 0.0
C1212 C 0.42263 0.88777 0.36052 0.0
C1213 C 0.39034 0.861 0.35947 0.0
N1214 N 0.34799 0.82921 0.39983 0.0
N1215 N 0.49027 0.9061 0.38757 0.0
C1216 C 0.38497 0.84286 0.39448 0.0
C1217 C 0.45582 0.88616 0.3902 0.0
N1218 N 0.41584 0.81897 0.45585 0.0
N1219 N 0.42016 0.91644 0.33449 0.0
H1220 H 0.51405 0.9072 0.40989 0.0
H1221 H 0.496 0.92004 0.36271 0.0
H1222 H 0.39439 0.92077 0.31523 0.0
H1223 H 0.44091 0.93907 0.3354 0.0
H1224 H 0.39301 0.79912 0.4577 0.0
H1225 H 0.43818 0.81956 0.47956 0.0
H1226 H 0.34093 0.81785 0.42572 0.0
H1227 H 0.32269 0.83424 0.38038 0.0
C1228 C 0.2819 0.4386 0.42714 0.0
C1229 C 0.27238 0.4789 0.41763 0.0
C1230 C 0.2626 0.45146 0.34586 0.0
C1231 C 0.27035 0.41103 0.35574 0.0
N1232 N 0.27478 0.36612 0.40709 0.0
N1233 N 0.24252 0.52176 0.3691 0.0
C1234 C 0.27588 0.40471 0.39686 0.0
C1235 C 0.25934 0.48473 0.37731 0.0
N1236 N 0.29911 0.43249 0.46432 0.0
N1237 N 0.26035 0.45868 0.30669 0.0
H1238 H 0.23825 0.54631 0.39136 0.0
H1239 H 0.22888 0.52675 0.34105 0.0
H1240 H 0.26171 0.43555 0.2827 0.0
H1241 H 0.25998 0.48792 0.29818 0.0
H1242 H 0.31066 0.40404 0.4713 0.0
H1243 H 0.3058 0.45623 0.48699 0.0
H1244 H 0.27498 0.35998 0.4367 0.0
H1245 H 0.269 0.34081 0.38583 0.0
C1246 C 0.41063 0.17354 0.62611 0.0
C1247 C 0.45245 0.17433 0.63828 0.0
C1248 C 0.4374 0.20801 0.70491 0.0
C1249 C 0.39522 0.20597 0.69329 0.0
N1250 N 0.34162 0.17903 0.64619 0.0
N1251 N 0.50602 0.18426 0.6903 0.0
C1252 C 0.38177 0.18641 0.65481 0.0
C1253 C 0.46586 0.18893 0.67817 0.0
N1254 N 0.39871 0.16189 0.58671 0.0
N1255 N 0.45038 0.23012 0.74036 0.0
H1256 H 0.52731 0.17048 0.67097 0.0
H1257 H 0.5176 0.19056 0.72001 0.0
H1258 H 0.43079 0.24504 0.76081 0.0
H1259 H 0.48058 0.2366 0.74817 0.0
H1260 H 0.36888 0.1649 0.57472 0.0
H1261 H 0.41936 0.15159 0.56537 0.0
H1262 H 0.33049 0.1615 0.6201 0.0
H1263 H 0.31976 0.18735 0.66678 0.0
C1264 C 0.81774 0.3424 0.56863 0.0
C1265 C 0.8176 0.38558 0.57636 0.0
C1266 C 0.85737 0.3806 0.6398 0.0
C1267 C 0.85012 0.33859 0.63651 0.0
N1268 N 0.83013 0.27716 0.59458 0.0
N1269 N 0.8312 0.44609 0.62239 0.0
C1270 C 0.83235 0.31863 0.59979 0.0
C1271 C 0.83565 0.40473 0.61296 0.0
N1272 N 0.80548 0.32442 0.53111 0.0
N1273 N 0.88593 0.39716 0.66776 0.0
H1274 H 0.81356 0.46445 0.60403 0.0
H1275 H 0.84124 0.46125 0.65022 0.0
H1276 H 0.9051 0.37909 0.68519 0.0
H1277 H 0.89413 0.42735 0.66955 0.0
H1278 H 0.80826 0.29315 0.522 0.0
H1279 H 0.79451 0.34134 0.50809 0.0
H1280 H 0.8126 0.26118 0.57134 0.0
H1281 H 0.84661 0.25866 0.61361 0.0
C1282 C 0.28534 0.67933 0.5899 0.0
C1283 C 0.29796 0.6381 0.59435 0.0
C1284 C 0.27187 0.64706 0.66149 0.0
C1285 C 0.26418 0.68936 0.65931 0.0
N1286 N 0.2549 0.74451 0.61926 0.0
N1287 N 0.31073 0.58594 0.63806 0.0
C1288 C 0.2682 0.70509 0.62263 0.0
C1289 C 0.29256 0.62263 0.63084 0.0
N1290 N 0.29226 0.69434 0.55522 0.0
N1291 N 0.25903 0.62985 0.6927 0.0
H1292 H 0.3261 0.56679 0.61656 0.0
H1293 H 0.31341 0.57635 0.66649 0.0
H1294 H 0.24395 0.64654 0.71592 0.0
H1295 H 0.25997 0.59838 0.69351 0.0
H1296 H 0.28753 0.72475 0.55064 0.0
H1297 H 0.30405 0.67615 0.53078 0.0
H1298 H 0.25443 0.7582 0.59311 0.0
H1299 H 0.24182 0.76318 0.6427 0.0
loop_
_geom_bond_atom_site_label_1
_geom_bond_atom_site_label_2
_geom_bond_distance
_geom_bond_site_symmetry_2
_ccdc_geom_bond_type
Cu0 N1 1.999 . S
Cu0 O6 1.974 1_545 S
Cu0 N11 1.985 1_445 S
Cu0 O20 1.959 1_455 S
N1 Cu0 1.999 . S
N1 C3 1.263 . S
N1 C5 1.389 . S
N2 C3 1.358 . S
N2 C4 1.400 . S
C3 N1 1.263 . S
C3 N2 1.358 . S
C3 H9 0.930 . S
C4 N2 1.400 . S
C4 C5 1.351 . S
C4 H21 0.930 . S
C5 N1 1.389 . S
C5 C4 1.351 . S
C5 H10 0.930 . S
O6 Cu0 1.974 1_565 S
O6 C16 1.282 . S
C7 O8 1.261 . S
C7 O20 1.251 . S
O8 C7 1.261 . S
H9 C3 0.930 . S
H10 C5 0.930 . S
N11 Cu0 1.985 1_665 S
N11 C13 1.335 . S
N11 C14 1.390 . S
N12 C13 1.345 . S
N12 C15 1.336 . S
C13 N11 1.335 . S
C13 N12 1.345 . S
C13 H18 0.930 1_565 S
C14 N11 1.390 . S
C14 C15 1.346 . S
C14 H19 0.930 1_655 S
C15 N12 1.336 . S
C15 C14 1.346 . S
C15 H22 0.929 . S
C16 O6 1.282 . S
C16 O17 1.216 . S
O17 C16 1.216 . S
H18 C13 0.930 1_545 S
H19 C14 0.930 1_455 S
O20 Cu0 1.959 1_655 S
O20 C7 1.251 . S
H21 C4 0.930 . S
H22 C15 0.929 . S
Cu23 N24 1.999 1_445 S
Cu23 O29 1.974 1_455 S
Cu23 N34 1.985 . S
Cu23 O43 1.959 1_545 S
N24 Cu23 1.999 1_665 S
N24 C26 1.263 . S
N24 C28 1.389 . S
N25 C26 1.358 . S
N25 C27 1.400 . S
C26 N24 1.263 . S
C26 N25 1.358 . S
C26 H32 0.930 . S
C27 N25 1.400 . S
C27 C28 1.351 . S
C27 H44 0.930 . S
C28 N24 1.389 . S
C28 C27 1.351 . S
C28 H33 0.930 1_655 S
O29 Cu23 1.974 1_655 S
O29 C39 1.282 . S
C30 O31 1.261 . S
C30 O43 1.251 . S
O31 C30 1.261 . S
H32 C26 0.930 . S
H33 C28 0.930 1_455 S
N34 Cu23 1.985 . S
N34 C36 1.335 . S
N34 C37 1.390 . S
N35 C36 1.345 . S
N35 C38 1.336 . S
C36 N34 1.335 . S
C36 N35 1.345 . S
C36 H41 0.930 . S
C37 N34 1.390 . S
C37 C38 1.346 . S
C37 H42 0.930 . S
C38 N35 1.336 . S
C38 C37 1.346 . S
C38 H45 0.929 . S
C39 O29 1.282 . S
C39 O40 1.216 . S
O40 C39 1.216 . S
H41 C36 0.930 . S
H42 C37 0.930 . S
O43 Cu23 1.959 1_565 S
O43 C30 1.251 . S
H44 C27 0.930 . S
H45 C38 0.929 . S
Cu46 N47 2.000 1_544 S
Cu46 O52 1.974 1_545 S
Cu46 N57 1.984 . S
Cu46 O66 1.959 1_554 S
N47 Cu46 2.000 1_566 S
N47 C49 1.263 . S
N47 C51 1.389 . S
N48 C49 1.358 . S
N48 C50 1.400 . S
C49 N47 1.263 . S
C49 N48 1.358 . S
C49 H55 0.930 . S
C50 N48 1.400 . S
C50 C51 1.351 . S
C50 H67 0.930 . S
C51 N47 1.389 . S
C51 C50 1.351 . S
C51 H56 0.930 . S
O52 Cu46 1.974 1_565 S
O52 C62 1.282 . S
C53 O54 1.261 . S
C53 O66 1.251 . S
O54 C53 1.261 . S
H55 C49 0.930 . S
H56 C51 0.930 . S
N57 Cu46 1.984 . S
N57 C59 1.335 . S
N57 C60 1.390 . S
N58 C59 1.345 . S
N58 C61 1.336 . S
C59 N57 1.335 . S
C59 N58 1.345 . S
C59 H64 0.930 . S
C60 N57 1.390 . S
C60 C61 1.346 . S
C60 H65 0.930 . S
C61 N58 1.336 . S
C61 C60 1.346 . S
C61 H68 0.929 . S
C62 O52 1.282 . S
C62 O63 1.216 . S
O63 C62 1.216 . S
H64 C59 0.930 . S
H65 C60 0.930 . S
O66 Cu46 1.959 1_556 S
O66 C53 1.251 . S
H67 C50 0.930 . S
H68 C61 0.929 . S
Cu69 N70 1.999 1_554 S
Cu69 O75 1.974 . S
Cu69 N80 1.985 1_455 S
Cu69 O89 1.959 1_454 S
N70 Cu69 1.999 1_556 S
N70 C72 1.263 . S
N70 C74 1.389 . S
N71 C72 1.358 . S
N71 C73 1.400 . S
C72 N70 1.263 . S
C72 N71 1.358 . S
C72 H78 0.930 . S
C73 N71 1.400 . S
C73 C74 1.351 . S
C73 H90 0.930 . S
C74 N70 1.389 . S
C74 C73 1.351 . S
C74 H79 0.930 . S
O75 Cu69 1.974 . S
O75 C85 1.282 . S
C76 O77 1.261 . S
C76 O89 1.251 . S
O77 C76 1.261 . S
H78 C72 0.930 . S
H79 C74 0.930 . S
N80 Cu69 1.985 1_655 S
N80 C82 1.335 . S
N80 C83 1.390 . S
N81 C82 1.345 . S
N81 C84 1.336 . S
C82 N80 1.335 . S
C82 N81 1.345 . S
C82 H87 0.930 . S
C83 N80 1.390 . S
C83 C84 1.346 . S
C83 H88 0.930 1_655 S
C84 N81 1.336 . S
C84 C83 1.346 . S
C84 H91 0.929 . S
C85 O75 1.282 . S
C85 O86 1.216 . S
O86 C85 1.216 . S
H87 C82 0.930 . S
H88 C83 0.930 1_455 S
O89 Cu69 1.959 1_656 S
O89 C76 1.251 . S
H90 C73 0.930 . S
H91 C84 0.929 . S
Cu92 N93 1.999 1_554 S
Cu92 O98 1.974 . S
Cu92 N103 1.985 . S
Cu92 O112 1.959 1_554 S
N93 Cu92 1.999 1_556 S
N93 C95 1.263 . S
N93 C97 1.389 . S
N94 C95 1.358 . S
N94 C96 1.400 . S
C95 N93 1.263 . S
C95 N94 1.358 . S
C95 H101 0.930 1_556 S
C96 N94 1.400 . S
C96 C97 1.351 . S
C96 H113 0.930 . S
C97 N93 1.389 . S
C97 C96 1.351 . S
C97 H102 0.930 . S
O98 Cu92 1.974 . S
O98 C108 1.282 . S
C99 O100 1.261 1_565 S
C99 O112 1.251 1_565 S
O100 C99 1.261 1_545 S
H101 C95 0.930 1_554 S
H102 C97 0.930 . S
N103 Cu92 1.985 . S
N103 C105 1.335 1_545 S
N103 C106 1.390 . S
N104 C105 1.345 . S
N104 C107 1.336 . S
C105 N103 1.335 1_565 S
C105 N104 1.345 . S
C105 H110 0.930 . S
C106 N103 1.390 . S
C106 C107 1.346 1_545 S
C106 H111 0.930 . S
C107 N104 1.336 . S
C107 C106 1.346 1_565 S
C107 H114 0.929 . S
C108 O98 1.282 . S
C108 O109 1.216 . S
O109 C108 1.216 . S
H110 C105 0.930 . S
H111 C106 0.930 . S
O112 Cu92 1.959 1_556 S
O112 C99 1.251 1_545 S
H113 C96 0.930 . S
H114 C107 0.929 . S
Cu115 N116 1.999 1_454 S
Cu115 O121 1.974 1_455 S
Cu115 N126 1.985 . S
Cu115 O135 1.959 1_554 S
N116 Cu115 1.999 1_656 S
N116 C118 1.263 . S
N116 C120 1.389 . S
N117 C118 1.358 . S
N117 C119 1.400 . S
C118 N116 1.263 . S
C118 N117 1.358 . S
C118 H124 0.930 . S
C119 N117 1.400 . S
C119 C120 1.351 . S
C119 H136 0.930 . S
C120 N116 1.389 . S
C120 C119 1.351 . S
C120 H125 0.930 1_655 S
O121 Cu115 1.974 1_655 S
O121 C131 1.282 . S
C122 O123 1.261 . S
C122 O135 1.251 . S
O123 C122 1.261 . S
H124 C118 0.930 . S
H125 C120 0.930 1_455 S
N126 Cu115 1.985 . S
N126 C128 1.335 . S
N126 C129 1.390 . S
N127 C128 1.345 . S
N127 C130 1.336 . S
C128 N126 1.335 . S
C128 N127 1.345 . S
C128 H133 0.930 . S
C129 N126 1.390 . S
C129 C130 1.346 . S
C129 H134 0.930 . S
C130 N127 1.336 . S
C130 C129 1.346 . S
C130 H137 0.929 . S
C131 O121 1.282 . S
C131 O132 1.216 . S
O132 C131 1.216 . S
H133 C128 0.930 . S
H134 C129 0.930 . S
O135 Cu115 1.959 1_556 S
O135 C122 1.251 . S
H136 C119 0.930 . S
H137 C130 0.929 . S
Cu138 N139 1.999 . S
Cu138 O144 1.974 . S
Cu138 N149 1.985 . S
Cu138 O158 1.959 . S
N139 Cu138 1.999 . S
N139 C141 1.263 . S
N139 C143 1.389 . S
N140 C141 1.358 . S
N140 C142 1.400 . S
C141 N139 1.263 . S
C141 N140 1.358 . S
C141 H147 0.930 . S
C142 N140 1.400 . S
C142 C143 1.351 . S
C142 H159 0.930 . S
C143 N139 1.389 . S
C143 C142 1.351 . S
C143 H148 0.930 . S
O144 Cu138 1.974 . S
O144 C154 1.282 . S
C145 O146 1.261 . S
C145 O158 1.251 . S
O146 C145 1.261 . S
H147 C141 0.930 . S
H148 C143 0.930 . S
N149 Cu138 1.985 . S
N149 C151 1.335 . S
N149 C152 1.390 . S
N150 C151 1.345 . S
N150 C153 1.336 . S
C151 N149 1.335 . S
C151 N150 1.345 . S
C151 H156 0.930 . S
C152 N149 1.390 . S
C152 C153 1.346 . S
C152 H157 0.930 . S
C153 N150 1.336 . S
C153 C152 1.346 . S
C153 H160 0.929 . S
C154 O144 1.282 . S
C154 O155 1.216 . S
O155 C154 1.216 . S
H156 C151 0.930 . S
H157 C152 0.930 . S
O158 Cu138 1.959 . S
O158 C145 1.251 . S
H159 C142 0.930 . S
H160 C153 0.929 . S
Cu161 N162 1.999 . S
Cu161 O167 1.974 . S
Cu161 N172 1.985 . S
Cu161 O181 1.959 . S
N162 Cu161 1.999 . S
N162 C164 1.263 . S
N162 C166 1.389 . S
N163 C164 1.358 . S
N163 C165 1.400 . S
C164 N162 1.263 . S
C164 N163 1.358 . S
C164 H170 0.930 . S
C165 N163 1.400 . S
C165 C166 1.351 . S
C165 H182 0.930 . S
C166 N162 1.389 . S
C166 C165 1.351 . S
C166 H171 0.930 . S
O167 Cu161 1.974 . S
O167 C177 1.282 . S
C168 O169 1.261 . S
C168 O181 1.251 . S
O169 C168 1.261 . S
H170 C164 0.930 . S
H171 C166 0.930 . S
N172 Cu161 1.985 . S
N172 C174 1.335 . S
N172 C175 1.390 . S
N173 C174 1.345 . S
N173 C176 1.336 . S
C174 N172 1.335 . S
C174 N173 1.345 . S
C174 H179 0.930 . S
C175 N172 1.390 . S
C175 C176 1.346 . S
C175 H180 0.930 . S
C176 N173 1.336 . S
C176 C175 1.346 . S
C176 H183 0.929 . S
C177 O167 1.282 . S
C177 O178 1.216 . S
O178 C177 1.216 . S
H179 C174 0.930 . S
H180 C175 0.930 . S
O181 Cu161 1.959 . S
O181 C168 1.251 . S
H182 C165 0.930 . S
H183 C176 0.929 . S
Cu184 N185 1.999 . S
Cu184 O190 1.974 . S
Cu184 N195 1.985 . S
Cu184 O204 1.959 . S
N185 Cu184 1.999 . S
N185 C187 1.263 . S
N185 C189 1.389 . S
N186 C187 1.358 . S
N186 C188 1.400 . S
C187 N185 1.263 . S
C187 N186 1.358 . S
C187 H193 0.930 . S
C188 N186 1.400 . S
C188 C189 1.351 . S
C188 H205 0.930 . S
C189 N185 1.389 . S
C189 C188 1.351 . S
C189 H194 0.930 . S
O190 Cu184 1.974 . S
O190 C200 1.282 . S
C191 O192 1.261 . S
C191 O204 1.251 . S
O192 C191 1.261 . S
H193 C187 0.930 . S
H194 C189 0.930 . S
N195 Cu184 1.985 . S
N195 C197 1.335 . S
N195 C198 1.390 . S
N196 C197 1.345 . S
N196 C199 1.336 . S
C197 N195 1.335 . S
C197 N196 1.345 . S
C197 H202 0.930 . S
C198 N195 1.390 . S
C198 C199 1.346 . S
C198 H203 0.930 . S
C199 N196 1.336 . S
C199 C198 1.346 . S
C199 H206 0.929 . S
C200 O190 1.282 . S
C200 O201 1.216 . S
O201 C200 1.216 . S
H202 C197 0.930 . S
H203 C198 0.930 . S
O204 Cu184 1.959 . S
O204 C191 1.251 . S
H205 C188 0.930 . S
H206 C199 0.929 . S
Cu207 N208 1.999 . S
Cu207 O213 1.974 . S
Cu207 N218 1.985 . S
Cu207 O227 1.959 . S
N208 Cu207 1.999 . S
N208 C210 1.263 . S
N208 C212 1.389 . S
N209 C210 1.358 . S
N209 C211 1.400 . S
C210 N208 1.263 . S
C210 N209 1.358 . S
C210 H216 0.930 . S
C211 N209 1.400 . S
C211 C212 1.351 . S
C211 H228 0.930 . S
C212 N208 1.389 . S
C212 C211 1.351 . S
C212 H217 0.930 . S
O213 Cu207 1.974 . S
O213 C223 1.282 . S
C214 O215 1.261 . S
C214 O227 1.251 . S
O215 C214 1.261 . S
H216 C210 0.930 . S
H217 C212 0.930 . S
N218 Cu207 1.985 . S
N218 C220 1.335 . S
N218 C221 1.390 . S
N219 C220 1.345 . S
N219 C222 1.336 . S
C220 N218 1.335 . S
C220 N219 1.345 . S
C220 H225 0.930 . S
C221 N218 1.390 . S
C221 C222 1.346 . S
C221 H226 0.930 . S
C222 N219 1.336 . S
C222 C221 1.346 . S
C222 H229 0.929 . S
C223 O213 1.282 . S
C223 O224 1.216 . S
O224 C223 1.216 . S
H225 C220 0.930 . S
H226 C221 0.930 . S
O227 Cu207 1.959 . S
O227 C214 1.251 . S
H228 C211 0.930 . S
H229 C222 0.929 . S
Cu230 N231 1.999 . S
Cu230 O236 1.974 . S
Cu230 N241 1.985 . S
Cu230 O250 1.959 . S
N231 Cu230 1.999 . S
N231 C233 1.263 . S
N231 C235 1.389 . S
N232 C233 1.358 . S
N232 C234 1.400 . S
C233 N231 1.263 . S
C233 N232 1.358 . S
C233 H239 0.930 . S
C234 N232 1.400 . S
C234 C235 1.351 . S
C234 H251 0.930 . S
C235 N231 1.389 . S
C235 C234 1.351 . S
C235 H240 0.930 . S
O236 Cu230 1.974 . S
O236 C246 1.282 . S
C237 O238 1.261 . S
C237 O250 1.251 . S
O238 C237 1.261 . S
H239 C233 0.930 . S
H240 C235 0.930 . S
N241 Cu230 1.985 . S
N241 C243 1.335 . S
N241 C244 1.390 . S
N242 C243 1.345 . S
N242 C245 1.336 . S
C243 N241 1.335 . S
C243 N242 1.345 . S
C243 H248 0.930 . S
C244 N241 1.390 . S
C244 C245 1.346 . S
C244 H249 0.930 . S
C245 N242 1.336 . S
C245 C244 1.346 . S
C245 H252 0.929 . S
C246 O236 1.282 . S
C246 O247 1.216 . S
O247 C246 1.216 . S
H248 C243 0.930 . S
H249 C244 0.930 . S
O250 Cu230 1.959 . S
O250 C237 1.251 . S
H251 C234 0.930 . S
H252 C245 0.929 . S
Cu253 N254 1.999 . S
Cu253 O259 1.974 . S
Cu253 N264 1.985 . S
Cu253 O273 1.959 . S
N254 Cu253 1.999 . S
N254 C256 1.263 . S
N254 C258 1.389 . S
N255 C256 1.358 . S
N255 C257 1.400 . S
C256 N254 1.263 . S
C256 N255 1.358 . S
C256 H262 0.930 . S
C257 N255 1.400 . S
C257 C258 1.351 . S
C257 H274 0.930 . S
C258 N254 1.389 . S
C258 C257 1.351 . S
C258 H263 0.930 . S
O259 Cu253 1.974 . S
O259 C269 1.282 . S
C260 O261 1.261 . S
C260 O273 1.251 . S
O261 C260 1.261 . S
H262 C256 0.930 . S
H263 C258 0.930 . S
N264 Cu253 1.985 . S
N264 C266 1.335 . S
N264 C267 1.390 . S
N265 C266 1.345 . S
N265 C268 1.336 . S
C266 N264 1.335 . S
C266 N265 1.345 . S
C266 H271 0.930 . S
C267 N264 1.390 . S
C267 C268 1.346 . S
C267 H272 0.930 . S
C268 N265 1.336 . S
C268 C267 1.346 . S
C268 H275 0.929 . S
C269 O259 1.282 . S
C269 O270 1.216 . S
O270 C269 1.216 . S
H271 C266 0.930 . S
H272 C267 0.930 . S
O273 Cu253 1.959 . S
O273 C260 1.251 . S
H274 C257 0.930 . S
H275 C268 0.929 . S
Tb276 O279 2.453 . S
Tb276 O280 2.596 . S
Tb276 O281 2.374 . S
Tb276 O289 2.343 . S
Tb276 O291 2.353 . S
Tb276 O293 2.427 . S
Tb276 O294 2.513 . S
C277 O281 1.251 . S
C277 O283 1.263 . S
Tb278 O280 2.343 . S
Tb278 O283 2.353 . S
Tb278 O286 2.427 . S
Tb278 O287 2.513 . S
Tb278 O288 2.453 . S
Tb278 O289 2.596 . S
Tb278 O290 2.374 . S
O279 Tb276 2.453 . S
O279 C295 1.245 . S
O280 Tb276 2.596 . S
O280 Tb278 2.343 . S
O280 C295 1.259 . S
O281 Tb276 2.374 . S
O281 C277 1.251 . S
C282 O286 1.275 . S
C282 O287 1.246 . S
O283 C277 1.263 . S
O283 Tb278 2.353 . S
C284 O288 1.245 . S
C284 O289 1.259 . S
C285 O290 1.250 . S
C285 O291 1.263 . S
O286 Tb278 2.427 . S
O286 C282 1.275 . S
O287 Tb278 2.513 . S
O287 C282 1.246 . S
O288 Tb278 2.453 . S
O288 C284 1.245 . S
O289 Tb276 2.343 . S
O289 Tb278 2.596 . S
O289 C284 1.259 . S
O290 Tb278 2.374 . S
O290 C285 1.250 . S
O291 Tb276 2.353 . S
O291 C285 1.263 . S
C292 O293 1.275 . S
C292 O294 1.246 . S
O293 Tb276 2.427 . S
O293 C292 1.275 . S
O294 Tb276 2.513 . S
O294 C292 1.246 . S
C295 O279 1.245 . S
C295 O280 1.259 . S
Tb296 O299 2.453 . S
Tb296 O300 2.596 . S
Tb296 O301 2.374 . S
Tb296 O309 2.343 . S
Tb296 O311 2.353 . S
Tb296 O313 2.427 . S
Tb296 O314 2.513 . S
C297 O301 1.251 . S
C297 O303 1.263 . S
Tb298 O300 2.343 . S
Tb298 O303 2.353 . S
Tb298 O306 2.427 . S
Tb298 O307 2.513 . S
Tb298 O308 2.453 . S
Tb298 O309 2.596 . S
Tb298 O310 2.374 . S
O299 Tb296 2.453 . S
O299 C315 1.245 . S
O300 Tb296 2.596 . S
O300 Tb298 2.343 . S
O300 C315 1.259 . S
O301 Tb296 2.374 . S
O301 C297 1.251 . S
C302 O306 1.275 . S
C302 O307 1.246 . S
O303 C297 1.263 . S
O303 Tb298 2.353 . S
C304 O308 1.245 . S
C304 O309 1.259 . S
C305 O310 1.250 . S
C305 O311 1.263 . S
O306 Tb298 2.427 . S
O306 C302 1.275 . S
O307 Tb298 2.513 . S
O307 C302 1.246 . S
O308 Tb298 2.453 . S
O308 C304 1.245 . S
O309 Tb296 2.343 . S
O309 Tb298 2.596 . S
O309 C304 1.259 . S
O310 Tb298 2.374 . S
O310 C305 1.250 . S
O311 Tb296 2.353 . S
O311 C305 1.263 . S
C312 O313 1.275 . S
C312 O314 1.246 . S
O313 Tb296 2.427 . S
O313 C312 1.275 . S
O314 Tb296 2.513 . S
O314 C312 1.246 . S
C315 O299 1.245 . S
C315 O300 1.259 . S
Tb316 O319 2.453 . S
Tb316 O320 2.596 . S
Tb316 O321 2.374 . S
Tb316 O329 2.343 . S
Tb316 O331 2.353 . S
Tb316 O333 2.427 . S
Tb316 O334 2.513 . S
C317 O321 1.251 . S
C317 O323 1.263 . S
Tb318 O320 2.343 . S
Tb318 O323 2.353 . S
Tb318 O326 2.427 . S
Tb318 O327 2.513 . S
Tb318 O328 2.453 . S
Tb318 O329 2.596 . S
Tb318 O330 2.374 . S
O319 Tb316 2.453 . S
O319 C335 1.245 . S
O320 Tb316 2.596 . S
O320 Tb318 2.343 . S
O320 C335 1.259 . S
O321 Tb316 2.374 . S
O321 C317 1.251 . S
C322 O326 1.275 . S
C322 O327 1.246 . S
O323 C317 1.263 . S
O323 Tb318 2.353 . S
C324 O328 1.245 . S
C324 O329 1.259 . S
C325 O330 1.250 . S
C325 O331 1.263 . S
O326 Tb318 2.427 . S
O326 C322 1.275 . S
O327 Tb318 2.513 . S
O327 C322 1.246 . S
O328 Tb318 2.453 . S
O328 C324 1.245 . S
O329 Tb316 2.343 . S
O329 Tb318 2.596 . S
O329 C324 1.259 . S
O330 Tb318 2.374 . S
O330 C325 1.250 . S
O331 Tb316 2.353 . S
O331 C325 1.263 . S
C332 O333 1.275 . S
C332 O334 1.246 . S
O333 Tb316 2.427 . S
O333 C332 1.275 . S
O334 Tb316 2.513 . S
O334 C332 1.246 . S
C335 O319 1.245 . S
C335 O320 1.259 . S
Tb336 O339 2.453 . S
Tb336 O340 2.596 . S
Tb336 O341 2.374 . S
Tb336 O349 2.343 . S
Tb336 O351 2.353 . S
Tb336 O353 2.427 . S
Tb336 O354 2.513 . S
C337 O341 1.251 . S
C337 O343 1.263 . S
Tb338 O340 2.343 . S
Tb338 O343 2.353 . S
Tb338 O346 2.427 . S
Tb338 O347 2.513 . S
Tb338 O348 2.453 . S
Tb338 O349 2.596 . S
Tb338 O350 2.374 . S
O339 Tb336 2.453 . S
O339 C355 1.245 . S
O340 Tb336 2.596 . S
O340 Tb338 2.343 . S
O340 C355 1.259 . S
O341 Tb336 2.374 . S
O341 C337 1.251 . S
C342 O346 1.275 . S
C342 O347 1.246 . S
O343 C337 1.263 . S
O343 Tb338 2.353 . S
C344 O348 1.245 . S
C344 O349 1.259 . S
C345 O350 1.250 . S
C345 O351 1.263 . S
O346 Tb338 2.427 . S
O346 C342 1.275 . S
O347 Tb338 2.513 . S
O347 C342 1.246 . S
O348 Tb338 2.453 . S
O348 C344 1.245 . S
O349 Tb336 2.343 . S
O349 Tb338 2.596 . S
O349 C344 1.259 . S
O350 Tb338 2.374 . S
O350 C345 1.250 . S
O351 Tb336 2.353 . S
O351 C345 1.263 . S
C352 O353 1.275 . S
C352 O354 1.246 . S
O353 Tb336 2.427 . S
O353 C352 1.275 . S
O354 Tb336 2.513 . S
O354 C352 1.246 . S
C355 O339 1.245 . S
C355 O340 1.259 . S
Tb356 O359 2.453 . S
Tb356 O360 2.596 . S
Tb356 O361 2.374 . S
Tb356 O369 2.343 . S
Tb356 O371 2.353 . S
Tb356 O373 2.427 . S
Tb356 O374 2.513 . S
C357 O361 1.251 . S
C357 O363 1.263 . S
Tb358 O360 2.343 . S
Tb358 O363 2.353 . S
Tb358 O366 2.427 . S
Tb358 O367 2.513 . S
Tb358 O368 2.453 . S
Tb358 O369 2.596 . S
Tb358 O370 2.374 . S
O359 Tb356 2.453 . S
O359 C375 1.245 . S
O360 Tb356 2.596 . S
O360 Tb358 2.343 . S
O360 C375 1.259 . S
O361 Tb356 2.374 . S
O361 C357 1.251 . S
C362 O366 1.275 . S
C362 O367 1.246 . S
O363 C357 1.263 . S
O363 Tb358 2.353 . S
C364 O368 1.245 . S
C364 O369 1.259 . S
C365 O370 1.250 . S
C365 O371 1.263 . S
O366 Tb358 2.427 . S
O366 C362 1.275 . S
O367 Tb358 2.513 . S
O367 C362 1.246 . S
O368 Tb358 2.453 . S
O368 C364 1.245 . S
O369 Tb356 2.343 . S
O369 Tb358 2.596 . S
O369 C364 1.259 . S
O370 Tb358 2.374 . S
O370 C365 1.250 . S
O371 Tb356 2.353 . S
O371 C365 1.263 . S
C372 O373 1.275 . S
C372 O374 1.246 . S
O373 Tb356 2.427 . S
O373 C372 1.275 . S
O374 Tb356 2.513 . S
O374 C372 1.246 . S
C375 O359 1.245 . S
C375 O360 1.259 . S
Tb376 O379 2.453 . S
Tb376 O380 2.596 . S
Tb376 O381 2.374 . S
Tb376 O389 2.343 . S
Tb376 O391 2.353 . S
Tb376 O393 2.427 . S
Tb376 O394 2.513 . S
C377 O381 1.251 . S
C377 O383 1.263 . S
Tb378 O380 2.343 . S
Tb378 O383 2.353 . S
Tb378 O386 2.427 . S
Tb378 O387 2.513 . S
Tb378 O388 2.453 . S
Tb378 O389 2.596 . S
Tb378 O390 2.374 . S
O379 Tb376 2.453 . S
O379 C395 1.245 . S
O380 Tb376 2.596 . S
O380 Tb378 2.343 . S
O380 C395 1.259 . S
O381 Tb376 2.374 . S
O381 C377 1.251 . S
C382 O386 1.275 . S
C382 O387 1.246 . S
O383 C377 1.263 . S
O383 Tb378 2.353 . S
C384 O388 1.245 . S
C384 O389 1.259 . S
C385 O390 1.250 . S
C385 O391 1.263 . S
O386 Tb378 2.427 . S
O386 C382 1.275 . S
O387 Tb378 2.513 . S
O387 C382 1.246 . S
O388 Tb378 2.453 . S
O388 C384 1.245 . S
O389 Tb376 2.343 . S
O389 Tb378 2.596 . S
O389 C384 1.259 . S
O390 Tb378 2.374 . S
O390 C385 1.250 . S
O391 Tb376 2.353 . S
O391 C385 1.263 . S
C392 O393 1.275 . S
C392 O394 1.246 . S
O393 Tb376 2.427 . S
O393 C392 1.275 . S
O394 Tb376 2.513 . S
O394 C392 1.246 . S
C395 O379 1.245 . S
C395 O380 1.259 . S
Tb396 O399 2.453 . S
Tb396 O400 2.596 . S
Tb396 O401 2.374 . S
Tb396 O409 2.343 . S
Tb396 O411 2.353 . S
Tb396 O413 2.427 . S
Tb396 O414 2.513 . S
C397 O401 1.251 . S
C397 O403 1.263 . S
Tb398 O400 2.343 . S
Tb398 O403 2.353 . S
Tb398 O406 2.427 . S
Tb398 O407 2.513 . S
Tb398 O408 2.453 . S
Tb398 O409 2.596 . S
Tb398 O410 2.374 . S
O399 Tb396 2.453 . S
O399 C415 1.245 . S
O400 Tb396 2.596 . S
O400 Tb398 2.343 . S
O400 C415 1.259 . S
O401 Tb396 2.374 . S
O401 C397 1.251 . S
C402 O406 1.275 . S
C402 O407 1.246 . S
O403 C397 1.263 . S
O403 Tb398 2.353 . S
C404 O408 1.245 . S
C404 O409 1.259 . S
C405 O410 1.250 . S
C405 O411 1.263 . S
O406 Tb398 2.427 . S
O406 C402 1.275 . S
O407 Tb398 2.513 . S
O407 C402 1.246 . S
O408 Tb398 2.453 . S
O408 C404 1.245 . S
O409 Tb396 2.343 . S
O409 Tb398 2.596 . S
O409 C404 1.259 . S
O410 Tb398 2.374 . S
O410 C405 1.250 . S
O411 Tb396 2.353 . S
O411 C405 1.263 . S
C412 O413 1.275 . S
C412 O414 1.246 . S
O413 Tb396 2.427 . S
O413 C412 1.275 . S
O414 Tb396 2.513 . S
O414 C412 1.246 . S
C415 O399 1.245 . S
C415 O400 1.259 . S
Tb416 O419 2.453 . S
Tb416 O420 2.596 . S
Tb416 O421 2.374 . S
Tb416 O429 2.343 . S
Tb416 O431 2.353 . S
Tb416 O433 2.427 . S
Tb416 O434 2.513 . S
C417 O421 1.251 . S
C417 O423 1.263 . S
Tb418 O420 2.343 . S
Tb418 O423 2.353 . S
Tb418 O426 2.427 . S
Tb418 O427 2.513 . S
Tb418 O428 2.453 . S
Tb418 O429 2.596 . S
Tb418 O430 2.374 . S
O419 Tb416 2.453 . S
O419 C435 1.245 . S
O420 Tb416 2.596 . S
O420 Tb418 2.343 . S
O420 C435 1.259 . S
O421 Tb416 2.374 . S
O421 C417 1.251 . S
C422 O426 1.275 . S
C422 O427 1.246 . S
O423 C417 1.263 . S
O423 Tb418 2.353 . S
C424 O428 1.245 . S
C424 O429 1.259 . S
C425 O430 1.250 . S
C425 O431 1.263 . S
O426 Tb418 2.427 . S
O426 C422 1.275 . S
O427 Tb418 2.513 . S
O427 C422 1.246 . S
O428 Tb418 2.453 . S
O428 C424 1.245 . S
O429 Tb416 2.343 . S
O429 Tb418 2.596 . S
O429 C424 1.259 . S
O430 Tb418 2.374 . S
O430 C425 1.250 . S
O431 Tb416 2.353 . S
O431 C425 1.263 . S
C432 O433 1.275 . S
C432 O434 1.246 . S
O433 Tb416 2.427 . S
O433 C432 1.275 . S
O434 Tb416 2.513 . S
O434 C432 1.246 . S
C435 O419 1.245 . S
C435 O420 1.259 . S
C436 C437 1.363 . S
C436 C442 1.379 . S
C436 N444 1.356 . S
C437 C436 1.363 . S
C437 C443 1.363 . S
C438 C439 1.363 . S
C438 C443 1.379 . S
C438 N445 1.356 . S
C439 C438 1.363 . S
C439 C442 1.363 . S
N440 C442 1.356 . S
N440 H452 0.984 . S
N440 H453 0.985 . S
N441 C443 1.356 . S
N441 H446 0.984 . S
N441 H447 0.985 . S
C442 C436 1.379 . S
C442 C439 1.363 . S
C442 N440 1.356 . S
C443 C437 1.363 . S
C443 C438 1.379 . S
C443 N441 1.356 . S
N444 C436 1.356 . S
N444 H450 0.984 . S
N444 H451 0.984 . S
N445 C438 1.356 . S
N445 H448 0.984 . S
N445 H449 0.985 . S
H446 N441 0.984 . S
H447 N441 0.985 . S
H448 N445 0.984 . S
H449 N445 0.985 . S
H450 N444 0.984 . S
H451 N444 0.984 . S
H452 N440 0.984 . S
H453 N440 0.985 . S
C454 C455 1.363 . S
C454 C460 1.379 . S
C454 N462 1.356 . S
C455 C454 1.363 . S
C455 C461 1.363 . S
C456 C457 1.363 . S
C456 C461 1.379 . S
C456 N463 1.356 . S
C457 C456 1.363 . S
C457 C460 1.363 . S
N458 C460 1.356 . S
N458 H470 0.984 . S
N458 H471 0.985 . S
N459 C461 1.356 . S
N459 H464 0.984 . S
N459 H465 0.985 . S
C460 C454 1.379 . S
C460 C457 1.363 . S
C460 N458 1.356 . S
C461 C455 1.363 . S
C461 C456 1.379 . S
C461 N459 1.356 . S
N462 C454 1.356 . S
N462 H468 0.984 . S
N462 H469 0.984 . S
N463 C456 1.356 . S
N463 H466 0.984 . S
N463 H467 0.985 . S
H464 N459 0.984 . S
H465 N459 0.985 . S
H466 N463 0.984 . S
H467 N463 0.985 . S
H468 N462 0.984 . S
H469 N462 0.984 . S
H470 N458 0.984 . S
H471 N458 0.985 . S
C472 C473 1.363 . S
C472 C478 1.379 . S
C472 N480 1.356 . S
C473 C472 1.363 . S
C473 C479 1.363 . S
C474 C475 1.363 . S
C474 C479 1.379 . S
C474 N481 1.356 . S
C475 C474 1.363 . S
C475 C478 1.363 . S
N476 C478 1.356 . S
N476 H488 0.984 . S
N476 H489 0.985 . S
N477 C479 1.356 . S
N477 H482 0.984 . S
N477 H483 0.985 . S
C478 C472 1.379 . S
C478 C475 1.363 . S
C478 N476 1.356 . S
C479 C473 1.363 . S
C479 C474 1.379 . S
C479 N477 1.356 . S
N480 C472 1.356 . S
N480 H486 0.984 . S
N480 H487 0.984 . S
N481 C474 1.356 . S
N481 H484 0.984 . S
N481 H485 0.985 . S
H482 N477 0.984 . S
H483 N477 0.985 . S
H484 N481 0.984 . S
H485 N481 0.985 . S
H486 N480 0.984 . S
H487 N480 0.984 . S
H488 N476 0.984 . S
H489 N476 0.985 . S
C490 C491 1.363 . S
C490 C496 1.379 . S
C490 N498 1.356 . S
C491 C490 1.363 . S
C491 C497 1.363 . S
C492 C493 1.363 . S
C492 C497 1.379 . S
C492 N499 1.356 . S
C493 C492 1.363 . S
C493 C496 1.363 . S
N494 C496 1.356 . S
N494 H506 0.984 . S
N494 H507 0.985 . S
N495 C497 1.356 . S
N495 H500 0.984 . S
N495 H501 0.985 . S
C496 C490 1.379 . S
C496 C493 1.363 . S
C496 N494 1.356 . S
C497 C491 1.363 . S
C497 C492 1.379 . S
C497 N495 1.356 . S
N498 C490 1.356 . S
N498 H504 1.001 . S
N498 H505 0.987 . S
N499 C492 1.356 . S
N499 H502 0.984 . S
N499 H503 0.985 . S
H500 N495 0.984 . S
H501 N495 0.985 . S
H502 N499 0.984 . S
H503 N499 0.985 . S
H504 N498 1.001 . S
H505 N498 0.987 . S
H506 N494 0.984 . S
H507 N494 0.985 . S
C508 C509 1.363 . S
C508 C514 1.379 . S
C508 N516 1.356 . S
C509 C508 1.363 . S
C509 C515 1.363 . S
C510 C511 1.363 . S
C510 C515 1.379 . S
C510 N517 1.356 . S
C511 C510 1.363 . S
C511 C514 1.363 . S
N512 C514 1.356 . S
N512 H524 0.984 . S
N512 H525 0.985 . S
N513 C515 1.356 . S
N513 H518 0.984 . S
N513 H519 0.985 . S
C514 C508 1.379 . S
C514 C511 1.363 . S
C514 N512 1.356 . S
C515 C509 1.363 . S
C515 C510 1.379 . S
C515 N513 1.356 . S
N516 C508 1.356 . S
N516 H522 0.984 . S
N516 H523 0.984 . S
N517 C510 1.356 . S
N517 H520 0.984 . S
N517 H521 0.985 . S
H518 N513 0.984 . S
H519 N513 0.985 . S
H520 N517 0.984 . S
H521 N517 0.985 . S
H522 N516 0.984 . S
H523 N516 0.984 . S
H524 N512 0.984 . S
H525 N512 0.985 . S
C526 C527 1.363 . S
C526 C532 1.379 . S
C526 N534 1.356 . S
C527 C526 1.363 . S
C527 C533 1.363 . S
C528 C529 1.363 . S
C528 C533 1.379 . S
C528 N535 1.356 . S
C529 C528 1.363 . S
C529 C532 1.363 . S
N530 C532 1.356 . S
N530 H542 0.984 . S
N530 H543 0.985 . S
N531 C533 1.356 . S
N531 H536 0.984 . S
N531 H537 0.985 . S
C532 C526 1.379 . S
C532 C529 1.363 . S
C532 N530 1.356 . S
C533 C527 1.363 . S
C533 C528 1.379 . S
C533 N531 1.356 . S
N534 C526 1.356 . S
N534 H540 0.984 . S
N534 H541 0.984 . S
N535 C528 1.356 . S
N535 H538 0.984 . S
N535 H539 0.985 . S
H536 N531 0.984 . S
H537 N531 0.985 . S
H538 N535 0.984 . S
H539 N535 0.985 . S
H540 N534 0.984 . S
H541 N534 0.984 . S
H542 N530 0.984 . S
H543 N530 0.985 . S
C544 C545 1.363 . S
C544 C550 1.379 . S
C544 N552 1.356 . S
C545 C544 1.363 . S
C545 C551 1.363 . S
C546 C547 1.363 . S
C546 C551 1.379 . S
C546 N553 1.356 . S
C547 C546 1.363 . S
C547 C550 1.363 . S
N548 C550 1.356 . S
N548 H560 0.984 . S
N548 H561 0.985 . S
N549 C551 1.356 . S
N549 H554 0.984 . S
N549 H555 0.985 . S
C550 C544 1.379 . S
C550 C547 1.363 . S
C550 N548 1.356 . S
C551 C545 1.363 . S
C551 C546 1.379 . S
C551 N549 1.356 . S
N552 C544 1.356 . S
N552 H558 0.984 . S
N552 H559 0.984 . S
N553 C546 1.356 . S
N553 H556 0.984 . S
N553 H557 0.985 . S
H554 N549 0.984 . S
H555 N549 0.985 . S
H556 N553 0.984 . S
H557 N553 0.985 . S
H558 N552 0.984 . S
H559 N552 0.984 . S
H560 N548 0.984 . S
H561 N548 0.985 . S
C562 C563 1.363 . S
C562 C568 1.379 . S
C562 N570 1.356 . S
C563 C562 1.363 . S
C563 C569 1.363 . S
C564 C565 1.363 . S
C564 C569 1.379 . S
C564 N571 1.356 . S
C565 C564 1.363 . S
C565 C568 1.363 . S
N566 C568 1.356 . S
N566 H578 0.984 . S
N566 H579 0.985 . S
N567 C569 1.356 . S
N567 H572 0.984 . S
N567 H573 0.985 . S
C568 C562 1.379 . S
C568 C565 1.363 . S
C568 N566 1.356 . S
C569 C563 1.363 . S
C569 C564 1.379 . S
C569 N567 1.356 . S
N570 C562 1.356 . S
N570 H576 0.984 . S
N570 H577 0.984 . S
N571 C564 1.356 . S
N571 H574 0.984 . S
N571 H575 0.985 . S
H572 N567 0.984 . S
H573 N567 0.985 . S
H574 N571 0.984 . S
H575 N571 0.985 . S
H576 N570 0.984 . S
H577 N570 0.984 . S
H578 N566 0.984 . S
H579 N566 0.985 . S
C580 C581 1.363 . S
C580 C586 1.379 . S
C580 N588 1.356 . S
C581 C580 1.363 . S
C581 C587 1.363 . S
C582 C583 1.363 . S
C582 C587 1.379 . S
C582 N589 1.356 . S
C583 C582 1.363 . S
C583 C586 1.363 . S
N584 C586 1.356 . S
N584 H596 0.984 . S
N584 H597 0.985 . S
N585 C587 1.356 . S
N585 H590 0.984 . S
N585 H591 0.985 . S
C586 C580 1.379 . S
C586 C583 1.363 . S
C586 N584 1.356 . S
C587 C581 1.363 . S
C587 C582 1.379 . S
C587 N585 1.356 . S
N588 C580 1.356 . S
N588 H594 0.984 . S
N588 H595 0.984 . S
N589 C582 1.356 . S
N589 H592 0.984 . S
N589 H593 0.985 . S
H590 N585 0.984 . S
H591 N585 0.985 . S
H592 N589 0.984 . S
H593 N589 0.985 . S
H594 N588 0.984 . S
H595 N588 0.984 . S
H596 N584 0.984 . S
H597 N584 0.985 . S
C598 C599 1.363 . S
C598 C604 1.379 . S
C598 N606 1.356 . S
C599 C598 1.363 . S
C599 C605 1.363 . S
C600 C601 1.363 . S
C600 C605 1.379 . S
C600 N607 1.356 . S
C601 C600 1.363 . S
C601 C604 1.363 . S
N602 C604 1.356 . S
N602 H614 0.984 . S
N602 H615 0.985 . S
N603 C605 1.356 . S
N603 H608 0.984 . S
N603 H609 0.985 . S
C604 C598 1.379 . S
C604 C601 1.363 . S
C604 N602 1.356 . S
C605 C599 1.363 . S
C605 C600 1.379 . S
C605 N603 1.356 . S
N606 C598 1.356 . S
N606 H612 0.984 . S
N606 H613 0.984 . S
N607 C600 1.356 . S
N607 H610 0.984 . S
N607 H611 0.985 . S
H608 N603 0.984 . S
H609 N603 0.985 . S
H610 N607 0.984 . S
H611 N607 0.985 . S
H612 N606 0.984 . S
H613 N606 0.984 . S
H614 N602 0.984 . S
H615 N602 0.985 . S
C616 C617 1.363 . S
C616 C622 1.379 . S
C616 N624 1.356 . S
C617 C616 1.363 . S
C617 C623 1.363 . S
C618 C619 1.363 . S
C618 C623 1.379 . S
C618 N625 1.356 . S
C619 C618 1.363 . S
C619 C622 1.363 . S
N620 C622 1.356 . S
N620 H632 0.984 . S
N620 H633 0.985 . S
N621 C623 1.356 . S
N621 H626 0.984 . S
N621 H627 0.985 . S
C622 C616 1.379 . S
C622 C619 1.363 . S
C622 N620 1.356 . S
C623 C617 1.363 . S
C623 C618 1.379 . S
C623 N621 1.356 . S
N624 C616 1.356 . S
N624 H630 0.984 . S
N624 H631 0.984 . S
N625 C618 1.356 . S
N625 H628 0.984 . S
N625 H629 0.985 . S
H626 N621 0.984 . S
H627 N621 0.985 . S
H628 N625 0.984 . S
H629 N625 0.985 . S
H630 N624 0.984 . S
H631 N624 0.984 . S
H632 N620 0.984 . S
H633 N620 0.985 . S
C634 C635 1.363 . S
C634 C640 1.379 . S
C634 N642 1.356 . S
C635 C634 1.363 . S
C635 C641 1.363 . S
C636 C637 1.363 . S
C636 C641 1.379 . S
C636 N643 1.356 . S
C637 C636 1.363 . S
C637 C640 1.363 . S
N638 C640 1.356 . S
N638 H650 0.984 . S
N638 H651 0.985 . S
N639 C641 1.356 . S
N639 H644 0.984 . S
N639 H645 0.985 . S
C640 C634 1.379 . S
C640 C637 1.363 . S
C640 N638 1.356 . S
C641 C635 1.363 . S
C641 C636 1.379 . S
C641 N639 1.356 . S
N642 C634 1.356 . S
N642 H648 0.984 . S
N642 H649 0.984 . S
N643 C636 1.356 . S
N643 H646 0.984 . S
N643 H647 0.985 . S
H644 N639 0.984 . S
H645 N639 0.985 . S
H646 N643 0.984 . S
H647 N643 0.985 . S
H648 N642 0.984 . S
H649 N642 0.984 . S
H650 N638 0.984 . S
H651 N638 0.985 . S
C652 C653 1.363 . S
C652 C658 1.379 . S
C652 N660 1.356 . S
C653 C652 1.363 . S
C653 C659 1.363 . S
C654 C655 1.363 . S
C654 C659 1.379 . S
C654 N661 1.356 . S
C655 C654 1.363 . S
C655 C658 1.363 . S
N656 C658 1.356 . S
N656 H668 0.984 . S
N656 H669 0.985 . S
N657 C659 1.356 . S
N657 H662 0.984 . S
N657 H663 0.985 . S
C658 C652 1.379 . S
C658 C655 1.363 . S
C658 N656 1.356 . S
C659 C653 1.363 . S
C659 C654 1.379 . S
C659 N657 1.356 . S
N660 C652 1.356 . S
N660 H666 0.984 . S
N660 H667 0.984 . S
N661 C654 1.356 . S
N661 H664 0.984 . S
N661 H665 0.985 . S
H662 N657 0.984 . S
H663 N657 0.985 . S
H664 N661 0.984 . S
H665 N661 0.985 . S
H666 N660 0.984 . S
H667 N660 0.984 . S
H668 N656 0.984 . S
H669 N656 0.985 . S
C670 C671 1.363 . S
C670 C676 1.379 . S
C670 N678 1.356 . S
C671 C670 1.363 . S
C671 C677 1.363 . S
C672 C673 1.363 . S
C672 C677 1.379 . S
C672 N679 1.356 . S
C673 C672 1.363 . S
C673 C676 1.363 . S
N674 C676 1.356 . S
N674 H686 0.984 . S
N674 H687 0.985 . S
N675 C677 1.356 . S
N675 H680 0.984 . S
N675 H681 0.985 . S
C676 C670 1.379 . S
C676 C673 1.363 . S
C676 N674 1.356 . S
C677 C671 1.363 . S
C677 C672 1.379 . S
C677 N675 1.356 . S
N678 C670 1.356 . S
N678 H684 0.984 . S
N678 H685 0.984 . S
N679 C672 1.356 . S
N679 H682 0.984 . S
N679 H683 0.985 . S
H680 N675 0.984 . S
H681 N675 0.985 . S
H682 N679 0.984 . S
H683 N679 0.985 . S
H684 N678 0.984 . S
H685 N678 0.984 . S
H686 N674 0.984 . S
H687 N674 0.985 . S
C688 C689 1.363 . S
C688 C694 1.379 . S
C688 N696 1.350 1_556 S
C689 C688 1.363 . S
C689 C695 1.363 . S
C690 C691 1.363 . S
C690 C695 1.379 . S
C690 N697 1.356 . S
C691 C690 1.363 . S
C691 C694 1.363 . S
N692 C694 1.356 . S
N692 H704 0.984 . S
N692 H705 0.985 . S
N693 C695 1.356 . S
N693 H698 0.984 . S
N693 H699 0.985 . S
C694 C688 1.379 . S
C694 C691 1.363 . S
C694 N692 1.356 . S
C695 C689 1.363 . S
C695 C690 1.379 . S
C695 N693 1.356 . S
N696 C688 1.350 1_554 S
N696 H702 0.987 . S
N696 H703 0.988 . S
N697 C690 1.356 . S
N697 H700 0.984 . S
N697 H701 0.985 . S
H698 N693 0.984 . S
H699 N693 0.985 . S
H700 N697 0.984 . S
H701 N697 0.985 . S
H702 N696 0.987 . S
H703 N696 0.988 . S
H704 N692 0.984 . S
H705 N692 0.985 . S
C706 C707 1.363 . S
C706 C712 1.379 . S
C706 N714 1.356 . S
C707 C706 1.363 . S
C707 C713 1.363 . S
C708 C709 1.363 . S
C708 C713 1.379 . S
C708 N715 1.356 . S
C709 C708 1.363 . S
C709 C712 1.363 . S
N710 C712 1.356 . S
N710 H722 0.984 . S
N710 H723 0.985 . S
N711 C713 1.356 . S
N711 H716 0.984 . S
N711 H717 0.985 . S
C712 C706 1.379 . S
C712 C709 1.363 . S
C712 N710 1.356 . S
C713 C707 1.363 . S
C713 C708 1.379 . S
C713 N711 1.356 . S
N714 C706 1.356 . S
N714 H720 0.984 . S
N714 H721 0.984 . S
N715 C708 1.356 . S
N715 H718 0.984 . S
N715 H719 0.985 . S
H716 N711 0.984 . S
H717 N711 0.985 . S
H718 N715 0.984 . S
H719 N715 0.985 . S
H720 N714 0.984 . S
H721 N714 0.984 . S
H722 N710 0.984 . S
H723 N710 0.985 . S
C724 C725 1.363 . S
C724 C730 1.379 . S
C724 N732 1.356 . S
C725 C724 1.363 . S
C725 C731 1.363 . S
C726 C727 1.363 . S
C726 C731 1.379 . S
C726 N733 1.356 . S
C727 C726 1.363 . S
C727 C730 1.363 . S
N728 C730 1.356 . S
N728 H740 0.984 . S
N728 H741 0.985 . S
N729 C731 1.356 . S
N729 H734 0.984 . S
N729 H735 0.985 . S
C730 C724 1.379 . S
C730 C727 1.363 . S
C730 N728 1.356 . S
C731 C725 1.363 . S
C731 C726 1.379 . S
C731 N729 1.356 . S
N732 C724 1.356 . S
N732 H738 0.984 . S
N732 H739 0.984 . S
N733 C726 1.356 . S
N733 H736 0.984 . S
N733 H737 0.985 . S
H734 N729 0.984 . S
H735 N729 0.985 . S
H736 N733 0.984 . S
H737 N733 0.985 . S
H738 N732 0.984 . S
H739 N732 0.984 . S
H740 N728 0.984 . S
H741 N728 0.985 . S
C742 C743 1.363 . S
C742 C748 1.379 . S
C742 N750 1.356 . S
C743 C742 1.363 . S
C743 C749 1.363 . S
C744 C745 1.363 . S
C744 C749 1.379 . S
C744 N751 1.356 . S
C745 C744 1.363 . S
C745 C748 1.363 . S
N746 C748 1.356 . S
N746 H758 0.984 . S
N746 H759 0.985 . S
N747 C749 1.356 . S
N747 H752 0.984 . S
N747 H753 0.985 . S
C748 C742 1.379 . S
C748 C745 1.363 . S
C748 N746 1.356 . S
C749 C743 1.363 . S
C749 C744 1.379 . S
C749 N747 1.356 . S
N750 C742 1.356 . S
N750 H756 0.984 . S
N750 H757 0.984 . S
N751 C744 1.356 . S
N751 H754 0.984 . S
N751 H755 0.985 . S
H752 N747 0.984 . S
H753 N747 0.985 . S
H754 N751 0.984 . S
H755 N751 0.985 . S
H756 N750 0.984 . S
H757 N750 0.984 . S
H758 N746 0.984 . S
H759 N746 0.985 . S
C760 C761 1.363 . S
C760 C766 1.379 . S
C760 N768 1.356 . S
C761 C760 1.363 . S
C761 C767 1.363 . S
C762 C763 1.363 . S
C762 C767 1.379 . S
C762 N769 1.356 . S
C763 C762 1.363 . S
C763 C766 1.363 . S
N764 C766 1.356 . S
N764 H776 0.984 . S
N764 H777 0.985 . S
N765 C767 1.356 . S
N765 H770 0.984 . S
N765 H771 0.985 . S
C766 C760 1.379 . S
C766 C763 1.363 . S
C766 N764 1.356 . S
C767 C761 1.363 . S
C767 C762 1.379 . S
C767 N765 1.356 . S
N768 C760 1.356 . S
N768 H774 0.984 . S
N768 H775 0.984 . S
N769 C762 1.356 . S
N769 H772 0.984 . S
N769 H773 0.985 . S
H770 N765 0.984 . S
H771 N765 0.985 . S
H772 N769 0.984 . S
H773 N769 0.985 . S
H774 N768 0.984 . S
H775 N768 0.984 . S
H776 N764 0.984 . S
H777 N764 0.985 . S
C778 C779 1.363 . S
C778 C784 1.379 . S
C778 N786 1.356 . S
C779 C778 1.363 . S
C779 C785 1.363 . S
C780 C781 1.363 . S
C780 C785 1.379 . S
C780 N787 1.356 . S
C781 C780 1.363 . S
C781 C784 1.363 . S
N782 C784 1.356 . S
N782 H794 0.984 . S
N782 H795 0.985 . S
N783 C785 1.356 . S
N783 H788 0.984 . S
N783 H789 0.985 . S
C784 C778 1.379 . S
C784 C781 1.363 . S
C784 N782 1.356 . S
C785 C779 1.363 . S
C785 C780 1.379 . S
C785 N783 1.356 . S
N786 C778 1.356 . S
N786 H792 0.984 . S
N786 H793 0.984 . S
N787 C780 1.356 . S
N787 H790 0.984 . S
N787 H791 0.985 . S
H788 N783 0.984 . S
H789 N783 0.985 . S
H790 N787 0.984 . S
H791 N787 0.985 . S
H792 N786 0.984 . S
H793 N786 0.984 . S
H794 N782 0.984 . S
H795 N782 0.985 . S
C796 C797 1.363 . S
C796 C802 1.379 . S
C796 N804 1.335 1_565 S
C797 C796 1.363 . S
C797 C803 1.363 . S
C798 C799 1.363 . S
C798 C803 1.379 . S
C798 N805 1.356 . S
C799 C798 1.363 . S
C799 C802 1.363 . S
N800 C802 1.356 . S
N800 H812 0.984 . S
N800 H813 0.985 . S
N801 C803 1.356 . S
N801 H806 0.984 . S
N801 H807 0.985 . S
C802 C796 1.379 . S
C802 C799 1.363 . S
C802 N800 1.356 . S
C803 C797 1.363 . S
C803 C798 1.379 . S
C803 N801 1.356 . S
N804 C796 1.335 1_545 S
N804 H810 0.999 . S
N804 H811 0.992 . S
N805 C798 1.356 . S
N805 H808 0.984 . S
N805 H809 0.985 . S
H806 N801 0.984 . S
H807 N801 0.985 . S
H808 N805 0.984 . S
H809 N805 0.985 . S
H810 N804 0.999 . S
H811 N804 0.992 . S
H812 N800 0.984 . S
H813 N800 0.985 . S
C814 C815 1.363 . S
C814 C820 1.379 . S
C814 N822 1.356 . S
C815 C814 1.363 . S
C815 C821 1.363 . S
C816 C817 1.363 . S
C816 C821 1.379 . S
C816 N823 1.356 . S
C817 C816 1.363 . S
C817 C820 1.363 . S
N818 C820 1.356 . S
N818 H830 0.984 . S
N818 H831 0.985 . S
N819 C821 1.356 . S
N819 H824 0.984 . S
N819 H825 0.985 . S
C820 C814 1.379 . S
C820 C817 1.363 . S
C820 N818 1.356 . S
C821 C815 1.363 . S
C821 C816 1.379 . S
C821 N819 1.356 . S
N822 C814 1.356 . S
N822 H828 0.984 . S
N822 H829 0.984 . S
N823 C816 1.356 . S
N823 H826 0.984 . S
N823 H827 0.985 . S
H824 N819 0.984 . S
H825 N819 0.985 . S
H826 N823 0.984 . S
H827 N823 0.985 . S
H828 N822 0.984 . S
H829 N822 0.984 . S
H830 N818 0.984 . S
H831 N818 0.985 . S
C832 C833 1.363 . S
C832 C838 1.379 . S
C832 N840 1.356 . S
C833 C832 1.363 . S
C833 C839 1.363 . S
C834 C835 1.363 . S
C834 C839 1.379 . S
C834 N841 1.356 . S
C835 C834 1.363 . S
C835 C838 1.363 . S
N836 C838 1.356 . S
N836 H848 0.984 . S
N836 H849 0.985 . S
N837 C839 1.356 . S
N837 H842 0.984 . S
N837 H843 0.985 . S
C838 C832 1.379 . S
C838 C835 1.363 . S
C838 N836 1.356 . S
C839 C833 1.363 . S
C839 C834 1.379 . S
C839 N837 1.356 . S
N840 C832 1.356 . S
N840 H846 0.984 . S
N840 H847 0.984 . S
N841 C834 1.356 . S
N841 H844 0.984 . S
N841 H845 0.985 . S
H842 N837 0.984 . S
H843 N837 0.985 . S
H844 N841 0.984 . S
H845 N841 0.985 . S
H846 N840 0.984 . S
H847 N840 0.984 . S
H848 N836 0.984 . S
H849 N836 0.985 . S
C850 C851 1.363 . S
C850 C856 1.379 . S
C850 N858 1.356 . S
C851 C850 1.363 . S
C851 C857 1.363 . S
C852 C853 1.363 . S
C852 C857 1.379 . S
C852 N859 1.356 . S
C853 C852 1.363 . S
C853 C856 1.363 . S
N854 C856 1.356 . S
N854 H866 0.984 . S
N854 H867 0.985 . S
N855 C857 1.356 . S
N855 H860 0.984 . S
N855 H861 0.985 . S
C856 C850 1.379 . S
C856 C853 1.363 . S
C856 N854 1.356 . S
C857 C851 1.363 . S
C857 C852 1.379 . S
C857 N855 1.356 . S
N858 C850 1.356 . S
N858 H864 0.984 . S
N858 H865 0.984 . S
N859 C852 1.356 . S
N859 H862 0.984 . S
N859 H863 0.985 . S
H860 N855 0.984 . S
H861 N855 0.985 . S
H862 N859 0.984 . S
H863 N859 0.985 . S
H864 N858 0.984 . S
H865 N858 0.984 . S
H866 N854 0.984 . S
H867 N854 0.985 . S
C868 C869 1.363 . S
C868 C874 1.379 . S
C868 N876 1.356 . S
C869 C868 1.363 . S
C869 C875 1.363 . S
C870 C871 1.363 . S
C870 C875 1.379 . S
C870 N877 1.356 . S
C871 C870 1.363 . S
C871 C874 1.363 . S
N872 C874 1.356 . S
N872 H884 0.984 . S
N872 H885 0.985 . S
N873 C875 1.356 . S
N873 H878 0.984 . S
N873 H879 0.985 . S
C874 C868 1.379 . S
C874 C871 1.363 . S
C874 N872 1.356 . S
C875 C869 1.363 . S
C875 C870 1.379 . S
C875 N873 1.356 . S
N876 C868 1.356 . S
N876 H882 0.984 . S
N876 H883 0.984 . S
N877 C870 1.356 . S
N877 H880 0.984 . S
N877 H881 0.985 . S
H878 N873 0.984 . S
H879 N873 0.985 . S
H880 N877 0.984 . S
H881 N877 0.985 . S
H882 N876 0.984 . S
H883 N876 0.984 . S
H884 N872 0.984 . S
H885 N872 0.985 . S
C886 C887 1.363 . S
C886 C892 1.379 . S
C886 N894 1.356 . S
C887 C886 1.363 . S
C887 C893 1.363 . S
C888 C889 1.363 . S
C888 C893 1.379 . S
C888 N895 1.356 . S
C889 C888 1.363 . S
C889 C892 1.363 . S
N890 C892 1.356 . S
N890 H902 0.984 . S
N890 H903 0.985 . S
N891 C893 1.356 . S
N891 H896 0.984 . S
N891 H897 0.985 . S
C892 C886 1.379 . S
C892 C889 1.363 . S
C892 N890 1.356 . S
C893 C887 1.363 . S
C893 C888 1.379 . S
C893 N891 1.356 . S
N894 C886 1.356 . S
N894 H900 0.984 . S
N894 H901 0.984 . S
N895 C888 1.356 . S
N895 H898 0.984 . S
N895 H899 0.985 . S
H896 N891 0.984 . S
H897 N891 0.985 . S
H898 N895 0.984 . S
H899 N895 0.985 . S
H900 N894 0.984 . S
H901 N894 0.984 . S
H902 N890 0.984 . S
H903 N890 0.985 . S
C904 C905 1.363 . S
C904 C910 1.379 . S
C904 N912 1.356 . S
C905 C904 1.363 . S
C905 C911 1.363 . S
C906 C907 1.363 . S
C906 C911 1.379 . S
C906 N913 1.356 . S
C907 C906 1.363 . S
C907 C910 1.363 . S
N908 C910 1.356 . S
N908 H920 0.984 . S
N908 H921 0.985 . S
N909 C911 1.356 . S
N909 H914 0.984 . S
N909 H915 0.985 . S
C910 C904 1.379 . S
C910 C907 1.363 . S
C910 N908 1.356 . S
C911 C905 1.363 . S
C911 C906 1.379 . S
C911 N909 1.356 . S
N912 C904 1.356 . S
N912 H918 0.984 . S
N912 H919 0.984 . S
N913 C906 1.356 . S
N913 H916 0.984 . S
N913 H917 0.985 . S
H914 N909 0.984 . S
H915 N909 0.985 . S
H916 N913 0.984 . S
H917 N913 0.985 . S
H918 N912 0.984 . S
H919 N912 0.984 . S
H920 N908 0.984 . S
H921 N908 0.985 . S
C922 C923 1.363 . S
C922 C928 1.379 . S
C922 N930 1.356 . S
C923 C922 1.363 . S
C923 C929 1.363 . S
C924 C925 1.363 . S
C924 C929 1.379 . S
C924 N931 1.356 . S
C925 C924 1.363 . S
C925 C928 1.363 . S
N926 C928 1.356 . S
N926 H938 0.984 . S
N926 H939 0.985 . S
N927 C929 1.356 . S
N927 H932 0.984 . S
N927 H933 0.985 . S
C928 C922 1.379 . S
C928 C925 1.363 . S
C928 N926 1.356 . S
C929 C923 1.363 . S
C929 C924 1.379 . S
C929 N927 1.356 . S
N930 C922 1.356 . S
N930 H936 0.984 . S
N930 H937 0.984 . S
N931 C924 1.356 . S
N931 H934 0.984 . S
N931 H935 0.985 . S
H932 N927 0.984 . S
H933 N927 0.985 . S
H934 N931 0.984 . S
H935 N931 0.985 . S
H936 N930 0.984 . S
H937 N930 0.984 . S
H938 N926 0.984 . S
H939 N926 0.985 . S
C940 C941 1.363 . S
C940 C946 1.379 . S
C940 N948 1.356 . S
C941 C940 1.363 . S
C941 C947 1.363 . S
C942 C943 1.363 . S
C942 C947 1.379 . S
C942 N949 1.356 . S
C943 C942 1.363 . S
C943 C946 1.363 . S
N944 C946 1.356 . S
N944 H956 0.984 . S
N944 H957 0.985 . S
N945 C947 1.356 . S
N945 H950 0.984 . S
N945 H951 0.985 . S
C946 C940 1.379 . S
C946 C943 1.363 . S
C946 N944 1.356 . S
C947 C941 1.363 . S
C947 C942 1.379 . S
C947 N945 1.356 . S
N948 C940 1.356 . S
N948 H954 0.984 . S
N948 H955 0.984 . S
N949 C942 1.356 . S
N949 H952 0.984 . S
N949 H953 0.985 . S
H950 N945 0.984 . S
H951 N945 0.985 . S
H952 N949 0.984 . S
H953 N949 0.985 . S
H954 N948 0.984 . S
H955 N948 0.984 . S
H956 N944 0.984 . S
H957 N944 0.985 . S
C958 C959 1.363 . S
C958 C964 1.379 . S
C958 N966 1.356 . S
C959 C958 1.363 . S
C959 C965 1.363 . S
C960 C961 1.363 . S
C960 C965 1.379 . S
C960 N967 1.356 . S
C961 C960 1.363 . S
C961 C964 1.363 . S
N962 C964 1.356 . S
N962 H974 0.984 . S
N962 H975 0.985 . S
N963 C965 1.356 . S
N963 H968 0.984 . S
N963 H969 0.985 . S
C964 C958 1.379 . S
C964 C961 1.363 . S
C964 N962 1.356 . S
C965 C959 1.363 . S
C965 C960 1.379 . S
C965 N963 1.356 . S
N966 C958 1.356 . S
N966 H972 0.984 . S
N966 H973 0.984 . S
N967 C960 1.356 . S
N967 H970 0.984 . S
N967 H971 0.985 . S
H968 N963 0.984 . S
H969 N963 0.985 . S
H970 N967 0.984 . S
H971 N967 0.985 . S
H972 N966 0.984 . S
H973 N966 0.984 . S
H974 N962 0.984 . S
H975 N962 0.985 . S
C976 C977 1.363 . S
C976 C982 1.379 . S
C976 N984 1.356 . S
C977 C976 1.363 . S
C977 C983 1.363 . S
C978 C979 1.363 . S
C978 C983 1.379 . S
C978 N985 1.356 . S
C979 C978 1.363 . S
C979 C982 1.363 . S
N980 C982 1.356 . S
N980 H992 0.984 . S
N980 H993 0.985 . S
N981 C983 1.356 . S
N981 H986 0.984 . S
N981 H987 0.985 . S
C982 C976 1.379 . S
C982 C979 1.363 . S
C982 N980 1.356 . S
C983 C977 1.363 . S
C983 C978 1.379 . S
C983 N981 1.356 . S
N984 C976 1.356 . S
N984 H990 0.984 . S
N984 H991 0.984 . S
N985 C978 1.356 . S
N985 H988 0.984 . S
N985 H989 0.985 . S
H986 N981 0.984 . S
H987 N981 0.985 . S
H988 N985 0.984 . S
H989 N985 0.985 . S
H990 N984 0.984 . S
H991 N984 0.984 . S
H992 N980 0.984 . S
H993 N980 0.985 . S
C994 C995 1.363 . S
C994 C1000 1.379 . S
C994 N1002 1.356 . S
C995 C994 1.363 . S
C995 C1001 1.363 . S
C996 C997 1.363 . S
C996 C1001 1.379 . S
C996 N1003 1.356 . S
C997 C996 1.363 . S
C997 C1000 1.363 . S
N998 C1000 1.356 . S
N998 H1010 0.984 . S
N998 H1011 0.985 . S
N999 C1001 1.356 . S
N999 H1004 0.984 . S
N999 H1005 0.985 . S
C1000 C994 1.379 . S
C1000 C997 1.363 . S
C1000 N998 1.356 . S
C1001 C995 1.363 . S
C1001 C996 1.379 . S
C1001 N999 1.356 . S
N1002 C994 1.356 . S
N1002 H1008 0.984 . S
N1002 H1009 0.984 . S
N1003 C996 1.356 . S
N1003 H1006 0.984 . S
N1003 H1007 0.985 . S
H1004 N999 0.984 . S
H1005 N999 0.985 . S
H1006 N1003 0.984 . S
H1007 N1003 0.985 . S
H1008 N1002 0.984 . S
H1009 N1002 0.984 . S
H1010 N998 0.984 . S
H1011 N998 0.985 . S
C1012 C1013 1.363 . S
C1012 C1018 1.379 . S
C1012 N1020 1.356 . S
C1013 C1012 1.363 . S
C1013 C1019 1.363 . S
C1014 C1015 1.363 . S
C1014 C1019 1.379 . S
C1014 N1021 1.356 . S
C1015 C1014 1.363 . S
C1015 C1018 1.363 . S
N1016 C1018 1.356 . S
N1016 H1028 0.984 . S
N1016 H1029 0.985 . S
N1017 C1019 1.356 . S
N1017 H1022 0.984 . S
N1017 H1023 0.985 . S
C1018 C1012 1.379 . S
C1018 C1015 1.363 . S
C1018 N1016 1.356 . S
C1019 C1013 1.363 . S
C1019 C1014 1.379 . S
C1019 N1017 1.356 . S
N1020 C1012 1.356 . S
N1020 H1026 0.984 . S
N1020 H1027 0.984 . S
N1021 C1014 1.356 . S
N1021 H1024 0.984 . S
N1021 H1025 0.985 . S
H1022 N1017 0.984 . S
H1023 N1017 0.985 . S
H1024 N1021 0.984 . S
H1025 N1021 0.985 . S
H1026 N1020 0.984 . S
H1027 N1020 0.984 . S
H1028 N1016 0.984 . S
H1029 N1016 0.985 . S
C1030 C1031 1.363 . S
C1030 C1036 1.379 . S
C1030 N1038 1.356 . S
C1031 C1030 1.363 . S
C1031 C1037 1.363 . S
C1032 C1033 1.363 . S
C1032 C1037 1.379 . S
C1032 N1039 1.356 . S
C1033 C1032 1.363 . S
C1033 C1036 1.363 . S
N1034 C1036 1.356 . S
N1034 H1046 0.984 . S
N1034 H1047 0.985 . S
N1035 C1037 1.356 . S
N1035 H1040 0.984 . S
N1035 H1041 0.985 . S
C1036 C1030 1.379 . S
C1036 C1033 1.363 . S
C1036 N1034 1.356 . S
C1037 C1031 1.363 . S
C1037 C1032 1.379 . S
C1037 N1035 1.356 . S
N1038 C1030 1.356 . S
N1038 H1044 0.984 . S
N1038 H1045 0.984 . S
N1039 C1032 1.356 . S
N1039 H1042 0.984 . S
N1039 H1043 0.985 . S
H1040 N1035 0.984 . S
H1041 N1035 0.985 . S
H1042 N1039 0.984 . S
H1043 N1039 0.985 . S
H1044 N1038 0.984 . S
H1045 N1038 0.984 . S
H1046 N1034 0.984 . S
H1047 N1034 0.985 . S
C1048 C1049 1.363 . S
C1048 C1054 1.379 . S
C1048 N1056 1.356 . S
C1049 C1048 1.363 . S
C1049 C1055 1.363 . S
C1050 C1051 1.363 . S
C1050 C1055 1.379 . S
C1050 N1057 1.356 . S
C1051 C1050 1.363 . S
C1051 C1054 1.363 . S
N1052 C1054 1.356 . S
N1052 H1064 0.984 . S
N1052 H1065 0.985 . S
N1053 C1055 1.356 . S
N1053 H1058 0.984 . S
N1053 H1059 0.985 . S
C1054 C1048 1.379 . S
C1054 C1051 1.363 . S
C1054 N1052 1.356 . S
C1055 C1049 1.363 . S
C1055 C1050 1.379 . S
C1055 N1053 1.356 . S
N1056 C1048 1.356 . S
N1056 H1062 0.984 . S
N1056 H1063 0.984 . S
N1057 C1050 1.356 . S
N1057 H1060 0.984 . S
N1057 H1061 0.985 . S
H1058 N1053 0.984 . S
H1059 N1053 0.985 . S
H1060 N1057 0.984 . S
H1061 N1057 0.985 . S
H1062 N1056 0.984 . S
H1063 N1056 0.984 . S
H1064 N1052 0.984 . S
H1065 N1052 0.985 . S
C1066 C1067 1.363 . S
C1066 C1072 1.379 . S
C1066 N1074 1.356 . S
C1067 C1066 1.363 . S
C1067 C1073 1.363 . S
C1068 C1069 1.363 . S
C1068 C1073 1.379 . S
C1068 N1075 1.356 . S
C1069 C1068 1.363 . S
C1069 C1072 1.363 . S
N1070 C1072 1.356 . S
N1070 H1082 0.984 . S
N1070 H1083 0.985 . S
N1071 C1073 1.356 . S
N1071 H1076 0.984 . S
N1071 H1077 0.985 . S
C1072 C1066 1.379 . S
C1072 C1069 1.363 . S
C1072 N1070 1.356 . S
C1073 C1067 1.363 . S
C1073 C1068 1.379 . S
C1073 N1071 1.356 . S
N1074 C1066 1.356 . S
N1074 H1080 0.984 . S
N1074 H1081 0.984 . S
N1075 C1068 1.356 . S
N1075 H1078 0.984 . S
N1075 H1079 0.985 . S
H1076 N1071 0.984 . S
H1077 N1071 0.985 . S
H1078 N1075 0.984 . S
H1079 N1075 0.985 . S
H1080 N1074 0.984 . S
H1081 N1074 0.984 . S
H1082 N1070 0.984 . S
H1083 N1070 0.985 . S
C1084 C1085 1.363 . S
C1084 C1090 1.379 . S
C1084 N1092 1.356 . S
C1085 C1084 1.363 . S
C1085 C1091 1.363 . S
C1086 C1087 1.363 . S
C1086 C1091 1.379 . S
C1086 N1093 1.356 . S
C1087 C1086 1.363 . S
C1087 C1090 1.363 . S
N1088 C1090 1.356 . S
N1088 H1100 0.984 . S
N1088 H1101 0.985 . S
N1089 C1091 1.356 . S
N1089 H1094 0.984 . S
N1089 H1095 0.985 . S
C1090 C1084 1.379 . S
C1090 C1087 1.363 . S
C1090 N1088 1.356 . S
C1091 C1085 1.363 . S
C1091 C1086 1.379 . S
C1091 N1089 1.356 . S
N1092 C1084 1.356 . S
N1092 H1098 0.984 . S
N1092 H1099 0.984 . S
N1093 C1086 1.356 . S
N1093 H1096 0.984 . S
N1093 H1097 0.985 . S
H1094 N1089 0.984 . S
H1095 N1089 0.985 . S
H1096 N1093 0.984 . S
H1097 N1093 0.985 . S
H1098 N1092 0.984 . S
H1099 N1092 0.984 . S
H1100 N1088 0.984 . S
H1101 N1088 0.985 . S
C1102 C1103 1.363 . S
C1102 C1108 1.379 . S
C1102 N1110 1.356 . S
C1103 C1102 1.363 . S
C1103 C1109 1.363 . S
C1104 C1105 1.363 . S
C1104 C1109 1.379 . S
C1104 N1111 1.356 . S
C1105 C1104 1.363 . S
C1105 C1108 1.363 . S
N1106 C1108 1.356 . S
N1106 H1118 0.984 . S
N1106 H1119 0.985 . S
N1107 C1109 1.356 . S
N1107 H1112 0.984 . S
N1107 H1113 0.985 . S
C1108 C1102 1.379 . S
C1108 C1105 1.363 . S
C1108 N1106 1.356 . S
C1109 C1103 1.363 . S
C1109 C1104 1.379 . S
C1109 N1107 1.356 . S
N1110 C1102 1.356 . S
N1110 H1116 0.984 . S
N1110 H1117 0.984 . S
N1111 C1104 1.356 . S
N1111 H1114 0.984 . S
N1111 H1115 0.985 . S
H1112 N1107 0.984 . S
H1113 N1107 0.985 . S
H1114 N1111 0.984 . S
H1115 N1111 0.985 . S
H1116 N1110 0.984 . S
H1117 N1110 0.984 . S
H1118 N1106 0.984 . S
H1119 N1106 0.985 . S
C1120 C1121 1.363 . S
C1120 C1126 1.379 . S
C1120 N1128 1.356 . S
C1121 C1120 1.363 . S
C1121 C1127 1.363 . S
C1122 C1123 1.363 . S
C1122 C1127 1.379 . S
C1122 N1129 1.356 . S
C1123 C1122 1.363 . S
C1123 C1126 1.363 . S
N1124 C1126 1.356 . S
N1124 H1136 0.984 . S
N1124 H1137 0.985 . S
N1125 C1127 1.356 . S
N1125 H1130 0.984 . S
N1125 H1131 0.985 . S
C1126 C1120 1.379 . S
C1126 C1123 1.363 . S
C1126 N1124 1.356 . S
C1127 C1121 1.363 . S
C1127 C1122 1.379 . S
C1127 N1125 1.356 . S
N1128 C1120 1.356 . S
N1128 H1134 0.984 . S
N1128 H1135 0.984 . S
N1129 C1122 1.356 . S
N1129 H1132 0.984 . S
N1129 H1133 0.985 . S
H1130 N1125 0.984 . S
H1131 N1125 0.985 . S
H1132 N1129 0.984 . S
H1133 N1129 0.985 . S
H1134 N1128 0.984 . S
H1135 N1128 0.984 . S
H1136 N1124 0.984 . S
H1137 N1124 0.985 . S
C1138 C1139 1.363 . S
C1138 C1144 1.379 . S
C1138 N1146 1.356 . S
C1139 C1138 1.363 . S
C1139 C1145 1.363 . S
C1140 C1141 1.363 . S
C1140 C1145 1.379 . S
C1140 N1147 1.356 . S
C1141 C1140 1.363 . S
C1141 C1144 1.363 . S
N1142 C1144 1.356 . S
N1142 H1154 0.984 . S
N1142 H1155 0.985 . S
N1143 C1145 1.356 . S
N1143 H1148 0.984 . S
N1143 H1149 0.985 . S
C1144 C1138 1.379 . S
C1144 C1141 1.363 . S
C1144 N1142 1.356 . S
C1145 C1139 1.363 . S
C1145 C1140 1.379 . S
C1145 N1143 1.356 . S
N1146 C1138 1.356 . S
N1146 H1152 0.984 . S
N1146 H1153 0.984 . S
N1147 C1140 1.356 . S
N1147 H1150 0.984 . S
N1147 H1151 0.985 . S
H1148 N1143 0.984 . S
H1149 N1143 0.985 . S
H1150 N1147 0.984 . S
H1151 N1147 0.985 . S
H1152 N1146 0.984 . S
H1153 N1146 0.984 . S
H1154 N1142 0.984 . S
H1155 N1142 0.985 . S
C1156 C1157 1.363 . S
C1156 C1162 1.379 . S
C1156 N1164 1.356 . S
C1157 C1156 1.363 . S
C1157 C1163 1.363 . S
C1158 C1159 1.363 . S
C1158 C1163 1.379 . S
C1158 N1165 1.356 . S
C1159 C1158 1.363 . S
C1159 C1162 1.363 . S
N1160 C1162 1.356 . S
N1160 H1172 0.984 . S
N1160 H1173 0.985 . S
N1161 C1163 1.356 . S
N1161 H1166 0.984 . S
N1161 H1167 0.985 . S
C1162 C1156 1.379 . S
C1162 C1159 1.363 . S
C1162 N1160 1.356 . S
C1163 C1157 1.363 . S
C1163 C1158 1.379 . S
C1163 N1161 1.356 . S
N1164 C1156 1.356 . S
N1164 H1170 0.984 . S
N1164 H1171 0.984 . S
N1165 C1158 1.356 . S
N1165 H1168 0.984 . S
N1165 H1169 0.985 . S
H1166 N1161 0.984 . S
H1167 N1161 0.985 . S
H1168 N1165 0.984 . S
H1169 N1165 0.985 . S
H1170 N1164 0.984 . S
H1171 N1164 0.984 . S
H1172 N1160 0.984 . S
H1173 N1160 0.985 . S
C1174 C1175 1.363 . S
C1174 C1180 1.379 . S
C1174 N1182 1.356 . S
C1175 C1174 1.363 . S
C1175 C1181 1.363 . S
C1176 C1177 1.363 . S
C1176 C1181 1.379 . S
C1176 N1183 1.356 . S
C1177 C1176 1.363 . S
C1177 C1180 1.363 . S
N1178 C1180 1.356 . S
N1178 H1190 0.984 . S
N1178 H1191 0.985 . S
N1179 C1181 1.356 . S
N1179 H1184 0.984 . S
N1179 H1185 0.985 . S
C1180 C1174 1.379 . S
C1180 C1177 1.363 . S
C1180 N1178 1.356 . S
C1181 C1175 1.363 . S
C1181 C1176 1.379 . S
C1181 N1179 1.356 . S
N1182 C1174 1.356 . S
N1182 H1188 0.984 . S
N1182 H1189 0.984 . S
N1183 C1176 1.356 . S
N1183 H1186 0.984 . S
N1183 H1187 0.985 . S
H1184 N1179 0.984 . S
H1185 N1179 0.985 . S
H1186 N1183 0.984 . S
H1187 N1183 0.985 . S
H1188 N1182 0.984 . S
H1189 N1182 0.984 . S
H1190 N1178 0.984 . S
H1191 N1178 0.985 . S
C1192 C1193 1.363 . S
C1192 C1198 1.379 . S
C1192 N1200 1.356 . S
C1193 C1192 1.363 . S
C1193 C1199 1.363 . S
C1194 C1195 1.363 . S
C1194 C1199 1.379 . S
C1194 N1201 1.356 . S
C1195 C1194 1.363 . S
C1195 C1198 1.363 . S
N1196 C1198 1.356 . S
N1196 H1208 0.984 . S
N1196 H1209 0.985 . S
N1197 C1199 1.356 . S
N1197 H1202 0.984 . S
N1197 H1203 0.985 . S
C1198 C1192 1.379 . S
C1198 C1195 1.363 . S
C1198 N1196 1.356 . S
C1199 C1193 1.363 . S
C1199 C1194 1.379 . S
C1199 N1197 1.356 . S
N1200 C1192 1.356 . S
N1200 H1206 0.984 . S
N1200 H1207 0.984 . S
N1201 C1194 1.356 . S
N1201 H1204 0.984 . S
N1201 H1205 0.985 . S
H1202 N1197 0.984 . S
H1203 N1197 0.985 . S
H1204 N1201 0.984 . S
H1205 N1201 0.985 . S
H1206 N1200 0.984 . S
H1207 N1200 0.984 . S
H1208 N1196 0.984 . S
H1209 N1196 0.985 . S
C1210 C1211 1.363 . S
C1210 C1216 1.379 . S
C1210 N1218 1.356 . S
C1211 C1210 1.363 . S
C1211 C1217 1.363 . S
C1212 C1213 1.363 . S
C1212 C1217 1.379 . S
C1212 N1219 1.356 . S
C1213 C1212 1.363 . S
C1213 C1216 1.363 . S
N1214 C1216 1.356 . S
N1214 H1226 0.984 . S
N1214 H1227 0.985 . S
N1215 C1217 1.356 . S
N1215 H1220 0.984 . S
N1215 H1221 0.985 . S
C1216 C1210 1.379 . S
C1216 C1213 1.363 . S
C1216 N1214 1.356 . S
C1217 C1211 1.363 . S
C1217 C1212 1.379 . S
C1217 N1215 1.356 . S
N1218 C1210 1.356 . S
N1218 H1224 0.984 . S
N1218 H1225 0.984 . S
N1219 C1212 1.356 . S
N1219 H1222 0.984 . S
N1219 H1223 0.985 . S
H1220 N1215 0.984 . S
H1221 N1215 0.985 . S
H1222 N1219 0.984 . S
H1223 N1219 0.985 . S
H1224 N1218 0.984 . S
H1225 N1218 0.984 . S
H1226 N1214 0.984 . S
H1227 N1214 0.985 . S
C1228 C1229 1.363 . S
C1228 C1234 1.379 . S
C1228 N1236 1.356 . S
C1229 C1228 1.363 . S
C1229 C1235 1.363 . S
C1230 C1231 1.363 . S
C1230 C1235 1.379 . S
C1230 N1237 1.356 . S
C1231 C1230 1.363 . S
C1231 C1234 1.363 . S
N1232 C1234 1.356 . S
N1232 H1244 0.984 . S
N1232 H1245 0.985 . S
N1233 C1235 1.356 . S
N1233 H1238 0.984 . S
N1233 H1239 0.985 . S
C1234 C1228 1.379 . S
C1234 C1231 1.363 . S
C1234 N1232 1.356 . S
C1235 C1229 1.363 . S
C1235 C1230 1.379 . S
C1235 N1233 1.356 . S
N1236 C1228 1.356 . S
N1236 H1242 0.984 . S
N1236 H1243 0.984 . S
N1237 C1230 1.356 . S
N1237 H1240 0.984 . S
N1237 H1241 0.985 . S
H1238 N1233 0.984 . S
H1239 N1233 0.985 . S
H1240 N1237 0.984 . S
H1241 N1237 0.985 . S
H1242 N1236 0.984 . S
H1243 N1236 0.984 . S
H1244 N1232 0.984 . S
H1245 N1232 0.985 . S
C1246 C1247 1.363 . S
C1246 C1252 1.379 . S
C1246 N1254 1.356 . S
C1247 C1246 1.363 . S
C1247 C1253 1.363 . S
C1248 C1249 1.363 . S
C1248 C1253 1.379 . S
C1248 N1255 1.356 . S
C1249 C1248 1.363 . S
C1249 C1252 1.363 . S
N1250 C1252 1.356 . S
N1250 H1262 0.984 . S
N1250 H1263 0.985 . S
N1251 C1253 1.356 . S
N1251 H1256 0.984 . S
N1251 H1257 0.985 . S
C1252 C1246 1.379 . S
C1252 C1249 1.363 . S
C1252 N1250 1.356 . S
C1253 C1247 1.363 . S
C1253 C1248 1.379 . S
C1253 N1251 1.356 . S
N1254 C1246 1.356 . S
N1254 H1260 0.984 . S
N1254 H1261 0.984 . S
N1255 C1248 1.356 . S
N1255 H1258 0.984 . S
N1255 H1259 0.985 . S
H1256 N1251 0.984 . S
H1257 N1251 0.985 . S
H1258 N1255 0.984 . S
H1259 N1255 0.985 . S
H1260 N1254 0.984 . S
H1261 N1254 0.984 . S
H1262 N1250 0.984 . S
H1263 N1250 0.985 . S
C1264 C1265 1.363 . S
C1264 C1270 1.379 . S
C1264 N1272 1.356 . S
C1265 C1264 1.363 . S
C1265 C1271 1.363 . S
C1266 C1267 1.363 . S
C1266 C1271 1.379 . S
C1266 N1273 1.356 . S
C1267 C1266 1.363 . S
C1267 C1270 1.363 . S
N1268 C1270 1.356 . S
N1268 H1280 0.984 . S
N1268 H1281 0.985 . S
N1269 C1271 1.356 . S
N1269 H1274 0.984 . S
N1269 H1275 0.985 . S
C1270 C1264 1.379 . S
C1270 C1267 1.363 . S
C1270 N1268 1.356 . S
C1271 C1265 1.363 . S
C1271 C1266 1.379 . S
C1271 N1269 1.356 . S
N1272 C1264 1.356 . S
N1272 H1278 0.984 . S
N1272 H1279 0.984 . S
N1273 C1266 1.356 . S
N1273 H1276 0.984 . S
N1273 H1277 0.985 . S
H1274 N1269 0.984 . S
H1275 N1269 0.985 . S
H1276 N1273 0.984 . S
H1277 N1273 0.985 . S
H1278 N1272 0.984 . S
H1279 N1272 0.984 . S
H1280 N1268 0.984 . S
H1281 N1268 0.985 . S
C1282 C1283 1.363 . S
C1282 C1288 1.379 . S
C1282 N1290 1.356 . S
C1283 C1282 1.363 . S
C1283 C1289 1.363 . S
C1284 C1285 1.363 . S
C1284 C1289 1.379 . S
C1284 N1291 1.356 . S
C1285 C1284 1.363 . S
C1285 C1288 1.363 . S
N1286 C1288 1.356 . S
N1286 H1298 0.984 . S
N1286 H1299 0.985 . S
N1287 C1289 1.356 . S
N1287 H1292 0.984 . S
N1287 H1293 0.985 . S
C1288 C1282 1.379 . S
C1288 C1285 1.363 . S
C1288 N1286 1.356 . S
C1289 C1283 1.363 . S
C1289 C1284 1.379 . S
C1289 N1287 1.356 . S
N1290 C1282 1.356 . S
N1290 H1296 0.984 . S
N1290 H1297 0.984 . S
N1291 C1284 1.356 . S
N1291 H1294 0.984 . S
N1291 H1295 0.985 . S
H1292 N1287 0.984 . S
H1293 N1287 0.985 . S
H1294 N1291 0.984 . S
H1295 N1291 0.985 . S
H1296 N1290 0.984 . S
H1297 N1290 0.984 . S
H1298 N1286 0.984 . S
H1299 N1286 0.985 . S
C439 C295 1.834 . S
C437 N2 1.997 . S
C457 C297 1.876 . S
C455 C7 1.866 . S
C475 C324 1.733 . S
C473 N12 1.712 . S
C491 C16 2.093 . S
C493 C345 2.122 . S
C511 C365 2.021 . S
C509 C30 2.008 . S
C529 C395 1.578 . S
C527 N35 1.623 . S
C545 C39 2.041 . S
C547 C397 2.035 . S
C565 C435 1.751 . S
C563 N25 1.757 . S
C583 C277 1.379 . S
C581 N58 1.310 . S
C599 N81 1.220 . S
C601 C302 1.258 . S
C619 C332 1.097 . S
C617 N104 1.084 . S
C635 N127 1.681 . S
C637 C344 1.579 . S
C655 C364 1.058 . S
C653 N48 1.176 . S
C673 C377 1.592 . S
C671 N71 1.591 . S
C689 N94 0.753 . S
C691 C402 0.753 . S
C709 C417 1.700 . S
C707 N117 1.683 . S
C725 C85 1.677 . S
C727 C282 1.627 . S
C743 C122 1.663 . S
C745 C372 1.598 . S
C761 C53 1.562 . S
C763 C382 1.524 . S
C781 C415 1.572 . S
C779 C76 1.670 . S
C799 C422 1.567 . S
C797 C99 1.611 . S
C817 C325 1.914 . S
C815 C131 1.886 . S
C835 C352 1.169 . S
C833 C62 1.206 . S
C851 C108 1.078 . S
C853 C315 1.061 . S
C871 C424 1.920 . S
C869 N140 2.083 . S
C887 C145 1.972 . S
C889 C357 1.981 . S
C907 C384 1.645 . S
C905 N150 1.625 . S
C923 C154 1.977 . S
C925 C405 2.003 . S
C943 C305 1.895 . S
C941 C168 1.879 . S
C959 N173 1.546 . S
C961 C335 1.573 . S
C979 C337 2.139 . S
C977 C177 2.145 . S
C997 C284 1.786 . S
C995 N163 1.842 . S
C1015 C432 1.459 . S
C1013 C200 1.527 . S
C1033 C362 1.620 . S
C1031 N219 1.625 . S
C1049 N242 1.266 . S
C1051 C392 1.293 . S
C1069 C404 1.558 . S
C1067 C269 1.724 . S
C1087 C304 0.961 . S
C1085 C191 1.016 . S
C1103 N209 1.790 . S
C1105 C317 1.807 . S
C1121 N232 1.208 . S
C1123 C342 1.140 . S
C1139 C260 1.800 . S
C1141 C292 1.713 . S
C1157 C223 1.752 . S
C1159 C425 1.784 . S
C1175 N255 1.141 . S
C1177 C312 1.202 . S
C1193 N186 1.248 . S
C1195 C322 1.251 . S
C1213 C355 1.584 . S
C1211 C214 1.704 . S
C1231 C285 1.642 . S
C1229 C237 1.638 . S
C1249 C385 1.515 . S
C1247 N265 1.470 . S
C1267 C412 0.850 . S
C1265 N196 0.822 . S
C1285 C375 1.046 . S
C1283 C246 1.082 . S
