# Generated by pormake.
# Topology iac, (4,6)-cn, num edge types: 1
# Building blocks:
#     Node 0, Type 0, BuildingBlock: CEKHIL_clean_sbu_0, # of connection points: 4
#     Node 1, Type 0, BuildingBlock: CEKHIL_clean_sbu_0, # of connection points: 4
#     Node 2, Type 0, BuildingBlock: CEKHIL_clean_sbu_0, # of connection points: 4
#     Node 3, Type 0, BuildingBlock: CEKHIL_clean_sbu_0, # of connection points: 4
#     Node 4, Type 0, BuildingBlock: CEKHIL_clean_sbu_0, # of connection points: 4
#     Node 5, Type 0, BuildingBlock: CEKHIL_clean_sbu_0, # of connection points: 4
#     Node 6, Type 0, BuildingBlock: CEKHIL_clean_sbu_0, # of connection points: 4
#     Node 7, Type 0, BuildingBlock: CEKHIL_clean_sbu_0, # of connection points: 4
#     Node 8, Type 0, BuildingBlock: CEKHIL_clean_sbu_0, # of connection points: 4
#     Node 9, Type 0, BuildingBlock: CEKHIL_clean_sbu_0, # of connection points: 4
#     Node 10, Type 0, BuildingBlock: CEKHIL_clean_sbu_0, # of connection points: 4
#     Node 11, Type 0, BuildingBlock: CEKHIL_clean_sbu_0, # of connection points: 4
#     Node 12, Type 0, BuildingBlock: CEKHIL_clean_sbu_0, # of connection points: 4
#     Node 13, Type 0, BuildingBlock: CEKHIL_clean_sbu_0, # of connection points: 4
#     Node 14, Type 0, BuildingBlock: CEKHIL_clean_sbu_0, # of connection points: 4
#     Node 15, Type 0, BuildingBlock: CEKHIL_clean_sbu_0, # of connection points: 4
#     Node 16, Type 0, BuildingBlock: CEKHIL_clean_sbu_0, # of connection points: 4
#     Node 17, Type 0, BuildingBlock: CEKHIL_clean_sbu_0, # of connection points: 4
#     Node 18, Type 0, BuildingBlock: CEKHIL_clean_sbu_0, # of connection points: 4
#     Node 19, Type 0, BuildingBlock: CEKHIL_clean_sbu_0, # of connection points: 4
#     Node 20, Type 0, BuildingBlock: CEKHIL_clean_sbu_0, # of connection points: 4
#     Node 21, Type 0, BuildingBlock: CEKHIL_clean_sbu_0, # of connection points: 4
#     Node 22, Type 0, BuildingBlock: CEKHIL_clean_sbu_0, # of connection points: 4
#     Node 23, Type 0, BuildingBlock: CEKHIL_clean_sbu_0, # of connection points: 4
#     Node 24, Type 1, BuildingBlock: VOLQOD_clean_sbu_1, # of connection points: 6
#     Node 25, Type 1, BuildingBlock: VOLQOD_clean_sbu_1, # of connection points: 6
#     Node 26, Type 1, BuildingBlock: VOLQOD_clean_sbu_1, # of connection points: 6
#     Node 27, Type 1, BuildingBlock: VOLQOD_clean_sbu_1, # of connection points: 6
#     Node 28, Type 1, BuildingBlock: VOLQOD_clean_sbu_1, # of connection points: 6
#     Node 29, Type 1, BuildingBlock: VOLQOD_clean_sbu_1, # of connection points: 6
#     Node 30, Type 1, BuildingBlock: VOLQOD_clean_sbu_1, # of connection points: 6
#     Node 31, Type 1, BuildingBlock: VOLQOD_clean_sbu_1, # of connection points: 6
#     Node 32, Type 1, BuildingBlock: VOLQOD_clean_sbu_1, # of connection points: 6
#     Node 33, Type 1, BuildingBlock: VOLQOD_clean_sbu_1, # of connection points: 6
#     Node 34, Type 1, BuildingBlock: VOLQOD_clean_sbu_1, # of connection points: 6
#     Node 35, Type 1, BuildingBlock: VOLQOD_clean_sbu_1, # of connection points: 6
#     Node 36, Type 1, BuildingBlock: VOLQOD_clean_sbu_1, # of connection points: 6
#     Node 37, Type 1, BuildingBlock: VOLQOD_clean_sbu_1, # of connection points: 6
#     Node 38, Type 1, BuildingBlock: VOLQOD_clean_sbu_1, # of connection points: 6
#     Node 39, Type 1, BuildingBlock: VOLQOD_clean_sbu_1, # of connection points: 6
#     Edge 40, Type (0, 1), None
#     Edge 41, Type (0, 1), None
#     Edge 42, Type (0, 1), None
#     Edge 43, Type (0, 1), None
#     Edge 44, Type (0, 1), None
#     Edge 45, Type (0, 1), None
#     Edge 46, Type (0, 1), None
#     Edge 47, Type (0, 1), None
#     Edge 48, Type (0, 1), None
#     Edge 49, Type (0, 1), None
#     Edge 50, Type (0, 1), None
#     Edge 51, Type (0, 1), None
#     Edge 52, Type (0, 1), None
#     Edge 53, Type (0, 1), None
#     Edge 54, Type (0, 1), None
#     Edge 55, Type (0, 1), None
#     Edge 56, Type (0, 1), None
#     Edge 57, Type (0, 1), None
#     Edge 58, Type (0, 1), None
#     Edge 59, Type (0, 1), None
#     Edge 60, Type (0, 1), None
#     Edge 61, Type (0, 1), None
#     Edge 62, Type (0, 1), None
#     Edge 63, Type (0, 1), None
#     Edge 64, Type (0, 1), None
#     Edge 65, Type (0, 1), None
#     Edge 66, Type (0, 1), None
#     Edge 67, Type (0, 1), None
#     Edge 68, Type (0, 1), None
#     Edge 69, Type (0, 1), None
#     Edge 70, Type (0, 1), None
#     Edge 71, Type (0, 1), None
#     Edge 72, Type (0, 1), None
#     Edge 73, Type (0, 1), None
#     Edge 74, Type (0, 1), None
#     Edge 75, Type (0, 1), None
#     Edge 76, Type (0, 1), None
#     Edge 77, Type (0, 1), None
#     Edge 78, Type (0, 1), None
#     Edge 79, Type (0, 1), None
#     Edge 80, Type (0, 1), None
#     Edge 81, Type (0, 1), None
#     Edge 82, Type (0, 1), None
#     Edge 83, Type (0, 1), None
#     Edge 84, Type (0, 1), None
#     Edge 85, Type (0, 1), None
#     Edge 86, Type (0, 1), None
#     Edge 87, Type (0, 1), None
#     Edge 88, Type (0, 1), None
#     Edge 89, Type (0, 1), None
#     Edge 90, Type (0, 1), None
#     Edge 91, Type (0, 1), None
#     Edge 92, Type (0, 1), None
#     Edge 93, Type (0, 1), None
#     Edge 94, Type (0, 1), None
#     Edge 95, Type (0, 1), None
#     Edge 96, Type (0, 1), None
#     Edge 97, Type (0, 1), None
#     Edge 98, Type (0, 1), None
#     Edge 99, Type (0, 1), None
#     Edge 100, Type (0, 1), None
#     Edge 101, Type (0, 1), None
#     Edge 102, Type (0, 1), None
#     Edge 103, Type (0, 1), None
#     Edge 104, Type (0, 1), None
#     Edge 105, Type (0, 1), None
#     Edge 106, Type (0, 1), None
#     Edge 107, Type (0, 1), None
#     Edge 108, Type (0, 1), None
#     Edge 109, Type (0, 1), None
#     Edge 110, Type (0, 1), None
#     Edge 111, Type (0, 1), None
#     Edge 112, Type (0, 1), None
#     Edge 113, Type (0, 1), None
#     Edge 114, Type (0, 1), None
#     Edge 115, Type (0, 1), None
#     Edge 116, Type (0, 1), None
#     Edge 117, Type (0, 1), None
#     Edge 118, Type (0, 1), None
#     Edge 119, Type (0, 1), None
#     Edge 120, Type (0, 1), None
#     Edge 121, Type (0, 1), None
#     Edge 122, Type (0, 1), None
#     Edge 123, Type (0, 1), None
#     Edge 124, Type (0, 1), None
#     Edge 125, Type (0, 1), None
#     Edge 126, Type (0, 1), None
#     Edge 127, Type (0, 1), None
#     Edge 128, Type (0, 1), None
#     Edge 129, Type (0, 1), None
#     Edge 130, Type (0, 1), None
#     Edge 131, Type (0, 1), None
#     Edge 132, Type (0, 1), None
#     Edge 133, Type (0, 1), None
#     Edge 134, Type (0, 1), None
#     Edge 135, Type (0, 1), None
# Relax obj value: 0.304
# Max RMSD: 0.291
# Mean RMSD: 0.141
data_MOF--net-iac--node1-CEKHIL_clean_sbu_0--node2-VOLQOD_clean_sbu_1--edge1-none
_symmetry_space_group_name_H-M    P1
_symmetry_Int_Tables_number       1
_symmetry_cell_setting            triclinic
loop_
_symmetry_equiv_pos_as_xyz
'x, y, z'
_cell_length_a     26.698892
_cell_length_b     26.466485
_cell_length_c     25.873814
_cell_angle_alpha  89.815155
_cell_angle_beta   90.088741
_cell_angle_gamma 90.498908
loop_
_atom_site_label
_atom_site_type_symbol
_atom_site_fract_x
_atom_site_fract_y
_atom_site_fract_z
_atom_type_partial_charge
Co0 Co 0.99242 0.25073 0.13282 0.0
O1 O 0.92029 0.24515 0.12711 0.0
O2 O 0.96464 0.22458 0.19649 0.0
C3 C 0.00746 0.32706 0.09594 0.0
O4 O 0.06486 0.25231 0.15657 0.0
Co5 Co 0.06441 0.25542 0.03909 0.0
O6 O 0.11155 0.28416 0.09235 0.0
C7 C 0.99101 0.17238 0.05465 0.0
C8 C 0.92166 0.22489 0.17315 0.0
C9 C 0.10368 0.27665 0.14047 0.0
O10 O 0.99451 0.1806 0.10344 0.0
O11 O 0.01408 0.20031 0.02164 0.0
O12 O 0.9921 0.32466 0.14385 0.0
O13 O 0.00644 0.28516 0.07127 0.0
Co14 Co 0.01515 0.7573 0.36869 0.0
O15 O 0.0867 0.75505 0.37713 0.0
O16 O 0.04644 0.73345 0.30551 0.0
C17 C -0.00042 0.83241 0.40702 0.0
O18 O 0.94373 0.75705 0.3423 0.0
Co19 Co 0.94128 0.75773 0.46099 0.0
O20 O 0.89419 0.78358 0.40629 0.0
C21 C 0.01096 0.67388 0.44422 0.0
C22 C 0.08852 0.7369 0.33041 0.0
C23 C 0.90287 0.77682 0.35824 0.0
O24 O 0.01144 0.68631 0.39612 0.0
O25 O 0.98816 0.70015 0.47823 0.0
O26 O 0.01567 0.83149 0.35936 0.0
O27 O -0.00065 0.78974 0.43048 0.0
Co28 Co 0.49242 0.75073 0.63282 0.0
O29 O 0.42029 0.74516 0.62711 0.0
O30 O 0.46464 0.72458 0.69649 0.0
C31 C 0.50746 0.82706 0.59594 0.0
O32 O 0.56486 0.75231 0.65657 0.0
Co33 Co 0.56442 0.75542 0.53908 0.0
O34 O 0.61155 0.78416 0.59235 0.0
C35 C 0.49101 0.67239 0.55465 0.0
C36 C 0.42166 0.72489 0.67315 0.0
C37 C 0.60369 0.77665 0.64047 0.0
O38 O 0.49452 0.6806 0.60344 0.0
O39 O 0.51408 0.70031 0.52164 0.0
O40 O 0.4921 0.82466 0.64385 0.0
O41 O 0.50644 0.78516 0.57127 0.0
Co42 Co 0.51515 0.2573 0.86869 0.0
O43 O 0.5867 0.25505 0.87713 0.0
O44 O 0.54644 0.23345 0.80551 0.0
C45 C 0.49958 0.33241 0.90702 0.0
O46 O 0.44372 0.25705 0.8423 0.0
Co47 Co 0.44128 0.25773 0.96099 0.0
O48 O 0.39419 0.28358 0.9063 0.0
C49 C 0.51096 0.17388 0.94422 0.0
C50 C 0.58852 0.2369 0.83041 0.0
C51 C 0.40287 0.27682 0.85824 0.0
O52 O 0.51144 0.18631 0.89612 0.0
O53 O 0.48816 0.20015 0.97823 0.0
O54 O 0.51567 0.33149 0.85936 0.0
O55 O 0.49935 0.28974 0.93048 0.0
Co56 Co 0.13261 -0.01104 0.25283 0.0
O57 O 0.123 0.91694 0.2482 0.0
O58 O 0.19277 0.95754 0.22628 0.0
C59 C 0.0966 0.00219 0.33073 0.0
O60 O 0.1602 0.06084 0.25461 0.0
Co61 Co 0.04589 0.06645 0.26064 0.0
O62 O 0.1011 0.11039 0.28815 0.0
C63 C 0.05665 -0.00316 0.17206 0.0
C64 C 0.16799 0.91526 0.22881 0.0
C65 C 0.14698 0.10112 0.27836 0.0
O66 O 0.10397 -0.00559 0.18121 0.0
O67 O 0.02656 0.02042 0.20185 0.0
O68 O 0.14262 0.98589 0.3284 0.0
O69 O 0.07351 0.00483 0.28757 0.0
Co70 Co 0.24731 0.87604 0.48944 0.0
O71 O 0.17522 0.86798 0.49386 0.0
O72 O 0.218 0.93628 0.51743 0.0
C73 C 0.2613 0.84364 0.40952 0.0
O74 O 0.31857 0.90304 0.48983 0.0
Co75 Co 0.32306 0.78874 0.48048 0.0
O76 O 0.36935 0.84446 0.45737 0.0
C77 C 0.25373 0.79754 0.56931 0.0
C78 C 0.17531 0.91296 0.51444 0.0
C79 C 0.35985 0.89035 0.46847 0.0
O80 O 0.25158 0.84528 0.56048 0.0
O81 O 0.27746 0.76756 0.53936 0.0
O82 O 0.24477 0.88963 0.41465 0.0
O83 O 0.26313 0.81764 0.45142 0.0
Co84 Co 0.36473 0.00268 0.76366 0.0
O85 O 0.37486 0.07522 0.75801 0.0
O86 O 0.3052 0.03456 0.7365 0.0
C87 C 0.39914 -0.01084 0.84302 0.0
O88 O 0.33598 0.93101 0.76498 0.0
Co89 Co 0.45039 0.92482 0.77172 0.0
O90 O 0.39484 0.87896 0.79531 0.0
C91 C 0.44108 -0.00424 0.68383 0.0
C92 C 0.32981 0.0769 0.73855 0.0
C93 C 0.34909 0.88878 0.78525 0.0
O94 O 0.39367 -0.00321 0.69239 0.0
O95 O 0.47125 0.97205 0.7137 0.0
O96 O 0.35373 0.00667 0.83868 0.0
O97 O 0.42335 0.98586 0.80046 0.0
Co98 Co 0.25869 0.11662 -0.00692 0.0
O99 O 0.32963 0.12838 -0.0063 0.0
O100 O 0.29166 0.05611 0.0154 0.0
C101 C 0.23836 0.1553 0.9168 0.0
O102 O 0.18886 0.08729 -0.00431 0.0
Co103 Co 0.18244 0.20291 -0.00194 0.0
O104 O 0.13807 0.14843 0.96855 0.0
C105 C 0.25786 0.18726 0.08014 0.0
C106 C 0.33247 0.08289 0.01301 0.0
C107 C 0.14822 0.10164 0.97432 0.0
O108 O 0.25828 0.14053 0.06715 0.0
O109 O 0.23224 0.2198 0.05481 0.0
O110 O 0.25596 0.10941 0.91681 0.0
O111 O 0.23946 0.17729 0.96096 0.0
Co112 Co 0.74731 0.37604 -0.01056 0.0
O113 O 0.67522 0.36798 -0.00614 0.0
O114 O 0.718 0.43628 0.01743 0.0
C115 C 0.7613 0.34364 0.90952 0.0
O116 O 0.81857 0.40304 -0.01017 0.0
Co117 Co 0.82306 0.28874 0.98048 0.0
O118 O 0.86935 0.34446 0.95737 0.0
C119 C 0.75373 0.29754 0.06931 0.0
C120 C 0.67531 0.41296 0.01444 0.0
C121 C 0.85985 0.39035 0.96847 0.0
O122 O 0.75158 0.34529 0.06048 0.0
O123 O 0.77745 0.26756 0.03936 0.0
O124 O 0.74477 0.38963 0.91465 0.0
O125 O 0.76313 0.31764 0.95142 0.0
Co126 Co 0.86473 0.50268 0.26366 0.0
O127 O 0.87486 0.57523 0.25801 0.0
O128 O 0.8052 0.53456 0.2365 0.0
C129 C 0.89914 0.48916 0.34302 0.0
O130 O 0.83598 0.43102 0.26498 0.0
Co131 Co 0.95039 0.42482 0.27172 0.0
O132 O 0.89484 0.37897 0.29532 0.0
C133 C 0.94108 0.49576 0.18383 0.0
C134 C 0.82981 0.5769 0.23855 0.0
C135 C 0.84909 0.38878 0.28525 0.0
O136 O 0.89368 0.49679 0.19239 0.0
O137 O 0.97125 0.47205 0.2137 0.0
O138 O 0.85373 0.50668 0.33868 0.0
O139 O 0.92335 0.48586 0.30046 0.0
Co140 Co 0.75869 0.61662 0.49308 0.0
O141 O 0.82963 0.62838 0.49369 0.0
O142 O 0.79166 0.55611 0.5154 0.0
C143 C 0.73837 0.6553 0.4168 0.0
O144 O 0.68886 0.58729 0.49569 0.0
Co145 Co 0.68244 0.70291 0.49806 0.0
O146 O 0.63807 0.64843 0.46855 0.0
C147 C 0.75786 0.68726 0.58014 0.0
C148 C 0.83247 0.58289 0.51301 0.0
C149 C 0.64822 0.60164 0.47432 0.0
O150 O 0.75828 0.64053 0.56715 0.0
O151 O 0.73224 0.7198 0.55481 0.0
O152 O 0.75596 0.60941 0.41681 0.0
O153 O 0.73946 0.67729 0.46096 0.0
Co154 Co 0.63261 0.48896 0.75283 0.0
O155 O 0.623 0.41694 0.7482 0.0
O156 O 0.69277 0.45754 0.72628 0.0
C157 C 0.59661 0.50219 0.83073 0.0
O158 O 0.6602 0.56084 0.75461 0.0
Co159 Co 0.54589 0.56645 0.76065 0.0
O160 O 0.6011 0.61039 0.78815 0.0
C161 C 0.55665 0.49684 0.67207 0.0
C162 C 0.66799 0.41526 0.72881 0.0
C163 C 0.64698 0.60112 0.77836 0.0
O164 O 0.60397 0.49441 0.68121 0.0
O165 O 0.52656 0.52042 0.70186 0.0
O166 O 0.64262 0.48589 0.8284 0.0
O167 O 0.57351 0.50483 0.78758 0.0
Co168 Co 0.01173 0.75957 0.87344 0.0
O169 O 0.08385 0.76431 0.88205 0.0
O170 O 0.04696 0.74212 0.80954 0.0
C171 C 0.00978 0.83903 0.9074 0.0
O172 O 0.93894 0.74926 0.84593 0.0
Co173 Co 0.93937 0.77133 0.95972 0.0
O174 O 0.88694 0.74473 0.91317 0.0
C175 C 0.97693 0.66948 0.93885 0.0
C176 C 0.08773 0.75641 0.83304 0.0
C177 C 0.89603 0.73702 0.8657 0.0
O178 O 0.00693 0.68791 0.90363 0.0
O179 O 0.94814 0.69682 0.96612 0.0
O180 O 0.0124 0.83171 0.85811 0.0
O181 O 0.00269 0.79909 0.93554 0.0
Co182 Co -0.0028 0.25799 0.62736 0.0
O183 O 0.92548 0.25775 0.62095 0.0
O184 O 0.96629 0.24155 0.69352 0.0
C185 C 0.99496 0.33337 0.58626 0.0
O186 O 0.06967 0.25435 0.65328 0.0
Co187 Co 0.07028 0.27323 0.53739 0.0
O188 O 0.12078 0.24613 0.58568 0.0
C189 C 0.03591 0.1698 0.56661 0.0
C190 C 0.92448 0.25323 0.67081 0.0
C191 C 0.1111 0.23956 0.63333 0.0
O192 O 0.00607 0.18607 0.60249 0.0
O193 O 0.06134 0.19844 0.53648 0.0
O194 O 0.99203 0.33072 0.6362 0.0
O195 O 0.00522 0.29203 0.56256 0.0
Co196 Co 0.51173 0.25958 0.37344 0.0
O197 O 0.58385 0.26431 0.38205 0.0
O198 O 0.54696 0.24212 0.30954 0.0
C199 C 0.50978 0.33903 0.40741 0.0
O200 O 0.43894 0.24926 0.34593 0.0
Co201 Co 0.43937 0.27133 0.45972 0.0
O202 O 0.38694 0.24474 0.41318 0.0
C203 C 0.47693 0.16949 0.43885 0.0
C204 C 0.58773 0.25642 0.33304 0.0
C205 C 0.39603 0.23702 0.36571 0.0
O206 O 0.50693 0.18792 0.40364 0.0
O207 O 0.44814 0.19682 0.46612 0.0
O208 O 0.5124 0.33171 0.35811 0.0
O209 O 0.50268 0.2991 0.43554 0.0
Co210 Co 0.4972 0.75799 0.12736 0.0
O211 O 0.42548 0.75775 0.12095 0.0
O212 O 0.46629 0.74155 0.19352 0.0
C213 C 0.49496 0.83337 0.08626 0.0
O214 O 0.56967 0.75434 0.15328 0.0
Co215 Co 0.57028 0.77322 0.03739 0.0
O216 O 0.62078 0.74613 0.08568 0.0
C217 C 0.53591 0.6698 0.06661 0.0
C218 C 0.42448 0.75323 0.17081 0.0
C219 C 0.6111 0.73956 0.13333 0.0
O220 O 0.50607 0.68606 0.10249 0.0
O221 O 0.56134 0.69844 0.03648 0.0
O222 O 0.49203 0.83072 0.1362 0.0
O223 O 0.50522 0.79202 0.06256 0.0
Co224 Co 0.86732 0.00913 0.75761 0.0
O225 O 0.87106 0.08126 0.76112 0.0
O226 O 0.80406 0.03799 0.73544 0.0
C227 C 0.89819 0.00671 0.83696 0.0
O228 O 0.84819 0.93582 0.74996 0.0
Co229 Co 0.95969 0.94051 0.77901 0.0
O230 O 0.91353 0.88432 0.76325 0.0
C231 C 0.93431 0.97359 0.67197 0.0
C232 C 0.82347 0.0805 0.75146 0.0
C233 C 0.86873 0.89235 0.74888 0.0
O234 O 0.89873 0.00358 0.68677 0.0
O235 O 0.96201 0.94805 0.70251 0.0
O236 O 0.85024 0.00965 0.8304 0.0
O237 O 0.92576 0.00184 0.79663 0.0
Co238 Co 0.76378 0.10833 0.48306 0.0
O239 O 0.83299 0.12602 0.46936 0.0
O240 O 0.80828 0.0555 0.50776 0.0
C241 C 0.74886 0.12711 0.39979 0.0
O242 O 0.69662 0.07555 0.50414 0.0
Co243 Co 0.67946 0.18472 0.45998 0.0
O244 O 0.63892 0.13657 0.50085 0.0
C245 C 0.73333 0.19012 0.55916 0.0
C246 C 0.84374 0.08087 0.48449 0.0
C247 C 0.65342 0.09331 0.51615 0.0
O248 O 0.75972 0.15005 0.54925 0.0
O249 O 0.7044 0.21181 0.52685 0.0
O250 O 0.7609 0.08153 0.41275 0.0
O251 O 0.74206 0.1582 0.43704 0.0
Co252 Co 0.62631 0.98129 0.27077 0.0
O253 O 0.60638 0.91162 0.28008 0.0
O254 O 0.67454 0.93836 0.23863 0.0
C255 C 0.61301 -0.00657 0.35543 0.0
O256 O 0.6615 0.04814 0.25332 0.0
Co257 Co 0.55534 0.06787 0.29849 0.0
O258 O 0.60368 0.10866 0.25774 0.0
C259 C 0.54535 0.01931 0.19762 0.0
C260 C 0.64919 0.9014 0.25947 0.0
C261 C 0.64587 0.0926 0.24217 0.0
O262 O 0.58394 -0.0089 0.20648 0.0
O263 O 0.52516 0.04799 0.23105 0.0
O264 O 0.65625 0.97806 0.33962 0.0
O265 O 0.58029 0.00314 0.32022 0.0
Co266 Co 0.73586 0.88787 -0.01035 0.0
O267 O 0.66426 0.88027 -0.00946 0.0
O268 O 0.70562 0.94953 0.01402 0.0
C269 C 0.73469 0.85729 0.90783 0.0
O270 O 0.80726 0.91428 -0.00695 0.0
Co271 Co 0.80735 0.80129 0.96818 0.0
O272 O 0.85938 0.84875 -0.00648 0.0
C273 C 0.77988 0.82229 0.0765 0.0
C274 C 0.66357 0.92824 0.00049 0.0
C275 C 0.84995 0.89487 0.00277 0.0
O276 O 0.74796 0.85663 0.06162 0.0
O277 O 0.80503 0.7954 0.04511 0.0
O278 O 0.72948 0.90506 0.91631 0.0
O279 O 0.74364 0.82934 0.94775 0.0
Co280 Co 0.26379 0.60833 0.98306 0.0
O281 O 0.33299 0.62601 0.96936 0.0
O282 O 0.30828 0.5555 0.00776 0.0
C283 C 0.24887 0.6271 0.89979 0.0
O284 O 0.19662 0.57555 0.00414 0.0
Co285 Co 0.17946 0.68471 0.95998 0.0
O286 O 0.13892 0.63656 0.00085 0.0
C287 C 0.23333 0.69012 0.05916 0.0
C288 C 0.34374 0.58087 0.98449 0.0
C289 C 0.15342 0.5933 0.01615 0.0
O290 O 0.25972 0.65005 0.04925 0.0
O291 O 0.2044 0.71181 0.02685 0.0
O292 O 0.2609 0.58152 0.91275 0.0
O293 O 0.24206 0.6582 0.93704 0.0
Co294 Co 0.12631 0.48128 0.77077 0.0
O295 O 0.10638 0.41162 0.78008 0.0
O296 O 0.17454 0.43835 0.73863 0.0
C297 C 0.11301 0.49342 0.85543 0.0
O298 O 0.1615 0.54813 0.75332 0.0
Co299 Co 0.05535 0.56787 0.79849 0.0
O300 O 0.10369 0.60866 0.75774 0.0
C301 C 0.04535 0.51931 0.69762 0.0
C302 C 0.14919 0.4014 0.75947 0.0
C303 C 0.14587 0.5926 0.74217 0.0
O304 O 0.08394 0.4911 0.70648 0.0
O305 O 0.02516 0.54799 0.73105 0.0
O306 O 0.15625 0.47806 0.83962 0.0
O307 O 0.08029 0.50314 0.82022 0.0
Co308 Co 0.23586 0.38787 0.48965 0.0
O309 O 0.16426 0.38027 0.49054 0.0
O310 O 0.20563 0.44953 0.51403 0.0
C311 C 0.23469 0.35729 0.40783 0.0
O312 O 0.30726 0.41428 0.49305 0.0
Co313 Co 0.30735 0.30129 0.46819 0.0
O314 O 0.35939 0.34875 0.49352 0.0
C315 C 0.27988 0.32229 0.57651 0.0
C316 C 0.16358 0.42824 0.50049 0.0
C317 C 0.34995 0.39487 0.50277 0.0
O318 O 0.24796 0.35663 0.56162 0.0
O319 O 0.30503 0.2954 0.54511 0.0
O320 O 0.22948 0.40506 0.41631 0.0
O321 O 0.24364 0.32934 0.44776 0.0
Co322 Co 0.36732 0.50913 0.25761 0.0
O323 O 0.37106 0.58126 0.26112 0.0
O324 O 0.30406 0.53798 0.23544 0.0
C325 C 0.39819 0.50671 0.33696 0.0
O326 O 0.34819 0.43581 0.24996 0.0
Co327 Co 0.45969 0.44051 0.27901 0.0
O328 O 0.41353 0.38432 0.26325 0.0
C329 C 0.43431 0.47358 0.17197 0.0
C330 C 0.32347 0.5805 0.25146 0.0
C331 C 0.36873 0.39235 0.24889 0.0
O332 O 0.39873 0.50358 0.18678 0.0
O333 O 0.46201 0.44805 0.20251 0.0
O334 O 0.35024 0.50965 0.3304 0.0
O335 O 0.42576 0.50184 0.29663 0.0
O336 O 0.96864 0.11877 0.98654 0.0
Zn337 Zn -0.00204 0.05959 0.95237 0.0
O338 O -0.0027 0.00524 -0.00238 0.0
Zn339 Zn 0.05661 0.96912 0.00738 0.0
Zn340 Zn 0.95315 0.01358 0.05323 0.0
Zn341 Zn 0.95984 0.9608 0.96046 0.0
O342 O 0.04406 0.89675 0.9719 0.0
O343 O -0.00207 0.92603 0.90805 0.0
O344 O 0.06764 0.0816 0.94654 0.0
O345 O 0.1113 0.01967 0.9842 0.0
O346 O 0.06609 0.97045 0.08513 0.0
O347 O 0.98955 -0.01154 0.11482 0.0
O348 O 0.88705 0.97272 0.03511 0.0
O349 O 0.96331 0.03996 0.88682 0.0
O350 O 0.93483 0.91106 0.00859 0.0
O351 O 0.90454 -0.00573 0.92529 0.0
C352 C 0.96738 0.12559 0.03514 0.0
C353 C 0.01984 0.88957 0.92938 0.0
C354 C 0.03619 0.98082 0.12202 0.0
C355 C 0.10812 0.06438 0.96506 0.0
C356 C 0.89193 0.92694 0.01958 0.0
C357 C 0.92129 0.01679 0.88587 0.0
O358 O 0.95713 0.08949 0.06631 0.0
O359 O 0.21376 0.6848 0.14766 0.0
Zn360 Zn 0.21179 0.69298 0.22491 0.0
O361 O 0.25442 0.74946 0.23941 0.0
Zn362 Zn 0.30856 0.73786 0.28509 0.0
Zn363 Zn 0.26875 0.79233 0.18276 0.0
Zn364 Zn 0.21384 0.79037 0.27829 0.0
O365 O 0.29418 0.77739 0.35509 0.0
O366 O 0.25121 0.83969 0.31999 0.0
O367 O 0.25025 0.63016 0.24219 0.0
O368 O 0.31586 0.66237 0.28512 0.0
O369 O 0.37312 0.75243 0.24634 0.0
O370 O 0.34298 0.78594 0.17347 0.0
O371 O 0.23517 0.86298 0.19695 0.0
O372 O 0.1418 0.70512 0.26185 0.0
O373 O 0.1689 0.8277 0.23327 0.0
O374 O 0.17416 0.74984 0.32583 0.0
C375 C 0.23257 0.71125 0.11117 0.0
C376 C 0.27263 0.82065 0.35886 0.0
C377 C 0.37836 0.76559 0.19916 0.0
C378 C 0.29386 0.62597 0.26166 0.0
C379 C 0.19068 0.86652 0.21548 0.0
C380 C 0.13721 0.72724 0.3058 0.0
O381 O 0.24762 0.75661 0.11786 0.0
O382 O 0.527 0.87437 0.52076 0.0
Zn383 Zn 0.51294 0.93301 0.47248 0.0
O384 O 0.5084 -0.00762 0.51105 0.0
Zn385 Zn 0.44516 0.02219 0.51871 0.0
Zn386 Zn 0.54729 0.98494 0.57347 0.0
Zn387 Zn 0.54818 0.0429 0.48186 0.0
O388 O 0.44903 0.09626 0.48715 0.0
O389 O 0.51548 0.09073 0.43637 0.0
O390 O 0.44376 0.91249 0.45188 0.0
O391 O 0.39548 0.97025 0.48973 0.0
O392 O 0.4322 0.01733 0.59564 0.0
O393 O 0.50897 0.018 0.63008 0.0
O394 O 0.61912 0.01676 0.55691 0.0
O395 O 0.55952 0.94959 0.41186 0.0
O396 O 0.57147 0.08079 0.5417 0.0
O397 O 0.60366 0.01518 0.44116 0.0
C398 C 0.52666 0.87329 0.57013 0.0
C399 C 0.47878 0.11543 0.45292 0.0
C400 C 0.46137 0.01496 0.63467 0.0
C401 C 0.40109 0.92776 0.4669 0.0
C402 C 0.61503 0.06341 0.54457 0.0
C403 C 0.59519 0.98205 0.40711 0.0
O404 O 0.53729 0.91237 0.59655 0.0
O405 O 0.22682 0.23174 0.87068 0.0
Zn406 Zn 0.24828 0.28078 0.81421 0.0
O407 O 0.25377 0.24497 0.75181 0.0
Zn408 Zn 0.31769 0.23973 0.72155 0.0
Zn409 Zn 0.21517 0.18344 0.7519 0.0
Zn410 Zn 0.21955 0.28273 0.7019 0.0
O411 O 0.31209 0.27154 0.64649 0.0
O412 O 0.25899 0.33228 0.66407 0.0
O413 O 0.31839 0.29379 0.83886 0.0
O414 O 0.36733 0.26657 0.77475 0.0
O415 O 0.33282 0.1651 0.72417 0.0
O416 O 0.25796 0.12704 0.72288 0.0
O417 O 0.14817 0.20141 0.71071 0.0
O418 O 0.20547 0.34442 0.79938 0.0
O419 O 0.19597 0.23505 0.65089 0.0
O420 O 0.16336 0.32048 0.72927 0.0
C421 C 0.22337 0.18356 0.86958 0.0
C422 C 0.28651 0.31017 0.63201 0.0
C423 C 0.3058 0.12518 0.72487 0.0
C424 C 0.36132 0.2824 0.82104 0.0
C425 C 0.15299 0.22211 0.66593 0.0
C426 C 0.17131 0.35167 0.7652 0.0
O427 O 0.21542 0.15993 0.8274 0.0
O428 O 0.02312 0.02179 0.37841 0.0
Zn429 Zn 0.97672 -0.00739 0.43404 0.0
O430 O 0.01131 -0.00406 0.49818 0.0
Zn431 Zn 0.01532 0.93246 0.53098 0.0
Zn432 Zn 0.07514 0.02755 0.49349 0.0
Zn433 Zn 0.97308 0.03983 0.54042 0.0
O434 O 0.98358 0.94181 0.60299 0.0
O435 O 0.92998 0.00402 0.58801 0.0
O436 O 0.98026 0.91983 0.41059 0.0
O437 O 0.98783 0.87758 0.48459 0.0
O438 O 0.08818 0.91338 0.52933 0.0
O439 O 0.12867 0.98706 0.52858 0.0
O440 O 0.06614 0.10043 0.51812 0.0
O441 O 0.90422 0.02258 0.44885 0.0
O442 O 0.0131 0.08568 0.58217 0.0
O443 O 0.92917 0.0835 0.50145 0.0
C444 C 0.07098 0.01713 0.37862 0.0
C445 C 0.94813 0.97105 0.61762 0.0
C446 C 0.12873 0.93888 0.52813 0.0
C447 C 0.98606 0.87868 0.43525 0.0
C448 C 0.04044 0.11578 0.55675 0.0
C449 C 0.89462 0.06121 0.47724 0.0
O450 O 0.09614 0.01899 0.42018 0.0
O451 O 0.37222 0.71489 0.74781 0.0
Zn452 Zn 0.31137 0.73295 0.78909 0.0
O453 O 0.25642 0.73452 0.74465 0.0
Zn454 Zn 0.22174 0.79564 0.73476 0.0
Zn455 Zn 0.26391 0.69092 0.68685 0.0
Zn456 Zn 0.20867 0.69486 0.77562 0.0
O457 O 0.14817 0.78607 0.7686 0.0
O458 O 0.16976 0.72912 0.82693 0.0
O459 O 0.32842 0.80463 0.80558 0.0
O460 O 0.27086 0.84971 0.763 0.0
O461 O 0.22703 0.80651 0.65658 0.0
O462 O 0.23983 0.72892 0.62525 0.0
O463 O 0.2241 0.62283 0.70376 0.0
O464 O 0.2916 0.68753 0.84979 0.0
O465 O 0.16403 0.6752 0.71973 0.0
O466 O 0.2373 0.63616 0.8114 0.0
C467 C 0.37584 0.70719 0.69939 0.0
C468 C 0.13737 0.75808 0.80808 0.0
C469 C 0.23606 0.77662 0.61899 0.0
C470 C 0.31248 0.84649 0.78768 0.0
C471 C 0.17812 0.63023 0.71554 0.0
C472 C 0.26353 0.64799 0.85017 0.0
O473 O 0.33824 0.69379 0.67203 0.0
O474 O 0.55726 0.03382 0.10938 0.0
Zn475 Zn 0.55271 0.03956 0.03276 0.0
O476 O 0.49574 0.00105 0.01367 0.0
Zn477 Zn 0.50601 0.94579 0.96903 0.0
Zn478 Zn 0.45197 -0.01175 0.06972 0.0
Zn479 Zn 0.45942 0.04584 0.97397 0.0
O480 O 0.46516 0.95736 0.89885 0.0
O481 O 0.41096 0.01319 0.92816 0.0
O482 O 0.61374 0.00046 0.01383 0.0
O483 O 0.58102 0.93596 0.96887 0.0
O484 O 0.49036 0.88295 0.01012 0.0
O485 O 0.46061 0.91478 0.08365 0.0
O486 O 0.38349 0.01776 0.04897 0.0
O487 O 0.54289 0.11243 0.00346 0.0
O488 O 0.41933 0.08754 0.0193 0.0
O489 O 0.50463 0.08772 0.93229 0.0
C490 C 0.52633 0.023 0.14507 0.0
C491 C 0.4249 0.98347 0.89322 0.0
C492 C 0.47976 0.87883 0.05802 0.0
C493 C 0.61746 0.95718 -0.00713 0.0
C494 C 0.3802 0.06282 0.03102 0.0
C495 C 0.52494 0.12236 0.95858 0.0
O496 O 0.48004 0.01504 0.13611 0.0
O497 O 0.13792 0.2756 0.22521 0.0
Zn498 Zn 0.18726 0.25638 0.28175 0.0
O499 O 0.24903 0.2513 0.24858 0.0
Zn500 Zn 0.28297 0.18861 0.24591 0.0
Zn501 Zn 0.25562 0.29246 0.18943 0.0
Zn502 Zn 0.29058 0.28589 0.29225 0.0
O503 O 0.35251 0.20067 0.28937 0.0
O504 O 0.31081 0.24213 0.34812 0.0
O505 O 0.16533 0.18598 0.29478 0.0
O506 O 0.22913 0.1372 0.27 0.0
O507 O 0.28292 0.17428 0.16773 0.0
O508 O 0.28692 0.25186 0.13438 0.0
O509 O 0.29702 0.35495 0.20928 0.0
O510 O 0.19701 0.29865 0.3492 0.0
O511 O 0.34909 0.3073 0.25348 0.0
O512 O 0.26087 0.34572 0.32326 0.0
C513 C 0.14426 0.28759 0.1777 0.0
C514 C 0.35154 0.22343 0.3334 0.0
C515 C 0.28128 0.20435 0.12897 0.0
C516 C 0.18349 0.14286 0.28441 0.0
C517 C 0.33844 0.34931 0.23344 0.0
C518 C 0.22782 0.33542 0.35645 0.0
O519 O 0.18693 0.30067 0.15995 0.0
O520 O 0.52312 0.52179 0.87842 0.0
Zn521 Zn 0.47672 0.49261 0.93404 0.0
O522 O 0.51131 0.49594 -0.00182 0.0
Zn523 Zn 0.51532 0.43246 0.03098 0.0
Zn524 Zn 0.57514 0.52755 -0.00651 0.0
Zn525 Zn 0.47308 0.53983 0.04043 0.0
O526 O 0.48358 0.4418 0.10299 0.0
O527 O 0.42998 0.50402 0.08801 0.0
O528 O 0.48026 0.41983 0.91059 0.0
O529 O 0.48783 0.37758 0.9846 0.0
O530 O 0.58818 0.41337 0.02933 0.0
O531 O 0.62867 0.48706 0.02858 0.0
O532 O 0.56614 0.60043 0.01812 0.0
O533 O 0.40422 0.52258 0.94886 0.0
O534 O 0.5131 0.58568 0.08217 0.0
O535 O 0.42918 0.5835 0.00145 0.0
C536 C 0.57098 0.51713 0.87862 0.0
C537 C 0.44813 0.47105 0.11762 0.0
C538 C 0.62873 0.43888 0.02813 0.0
C539 C 0.48606 0.37867 0.93525 0.0
C540 C 0.54044 0.61578 0.05675 0.0
C541 C 0.39462 0.56121 0.97725 0.0
O542 O 0.59614 0.51899 0.92018 0.0
O543 O 0.87222 0.21489 0.24781 0.0
Zn544 Zn 0.81136 0.23295 0.28909 0.0
O545 O 0.75642 0.23453 0.24465 0.0
Zn546 Zn 0.72174 0.29564 0.23476 0.0
Zn547 Zn 0.7639 0.19092 0.18685 0.0
Zn548 Zn 0.70867 0.19487 0.27563 0.0
O549 O 0.64816 0.28607 0.2686 0.0
O550 O 0.66976 0.22913 0.32693 0.0
O551 O 0.82842 0.30463 0.30558 0.0
O552 O 0.77086 0.34972 0.263 0.0
O553 O 0.72702 0.30651 0.15658 0.0
O554 O 0.73983 0.22893 0.12525 0.0
O555 O 0.7241 0.12284 0.20376 0.0
O556 O 0.79159 0.18754 0.34979 0.0
O557 O 0.66402 0.1752 0.21974 0.0
O558 O 0.7373 0.13616 0.3114 0.0
C559 C 0.87583 0.20719 0.19939 0.0
C560 C 0.63737 0.25808 0.30809 0.0
C561 C 0.73606 0.27662 0.11899 0.0
C562 C 0.81248 0.3465 0.28769 0.0
C563 C 0.67812 0.13023 0.21554 0.0
C564 C 0.76353 0.14799 0.35017 0.0
O565 O 0.83824 0.19379 0.17203 0.0
O566 O 0.05726 0.53382 0.60938 0.0
Zn567 Zn 0.05271 0.53956 0.53276 0.0
O568 O -0.00425 0.50105 0.51367 0.0
Zn569 Zn 0.00601 0.44579 0.46903 0.0
Zn570 Zn 0.95197 0.48825 0.56972 0.0
Zn571 Zn 0.95943 0.54584 0.47397 0.0
O572 O 0.96516 0.45736 0.39885 0.0
O573 O 0.91097 0.5132 0.42816 0.0
O574 O 0.11374 0.50047 0.51383 0.0
O575 O 0.08102 0.43596 0.46887 0.0
O576 O 0.99036 0.38296 0.51012 0.0
O577 O 0.96061 0.41478 0.58365 0.0
O578 O 0.88349 0.51777 0.54897 0.0
O579 O 0.04289 0.61243 0.50346 0.0
O580 O 0.91933 0.58754 0.5193 0.0
O581 O 0.00463 0.58773 0.43229 0.0
C582 C 0.02633 0.523 0.64508 0.0
C583 C 0.9249 0.48347 0.39322 0.0
C584 C 0.97976 0.37884 0.55802 0.0
C585 C 0.11746 0.45718 0.49287 0.0
C586 C 0.8802 0.56283 0.53102 0.0
C587 C 0.02494 0.62236 0.45858 0.0
O588 O 0.98004 0.51505 0.63611 0.0
O589 O 0.72682 0.73175 0.37068 0.0
Zn590 Zn 0.74828 0.78078 0.31421 0.0
O591 O 0.75377 0.74497 0.25181 0.0
Zn592 Zn 0.81769 0.73974 0.22155 0.0
Zn593 Zn 0.71518 0.68344 0.2519 0.0
Zn594 Zn 0.71955 0.78274 0.2019 0.0
O595 O 0.8121 0.77154 0.14649 0.0
O596 O 0.75899 0.83228 0.16407 0.0
O597 O 0.81839 0.79379 0.33885 0.0
O598 O 0.86733 0.76657 0.27475 0.0
O599 O 0.83282 0.6651 0.22417 0.0
O600 O 0.75796 0.62704 0.22288 0.0
O601 O 0.64817 0.70142 0.21071 0.0
O602 O 0.70548 0.84442 0.29938 0.0
O603 O 0.69597 0.73505 0.15088 0.0
O604 O 0.66336 0.82048 0.22927 0.0
C605 C 0.72337 0.68356 0.36958 0.0
C606 C 0.78651 0.81017 0.13201 0.0
C607 C 0.8058 0.62518 0.22487 0.0
C608 C 0.86132 0.7824 0.32104 0.0
C609 C 0.65299 0.72212 0.16593 0.0
C610 C 0.67131 0.85167 0.2652 0.0
O611 O 0.71542 0.65993 0.3274 0.0
O612 O 0.71376 0.1848 0.64766 0.0
Zn613 Zn 0.71179 0.19298 0.72491 0.0
O614 O 0.75441 0.24946 0.73941 0.0
Zn615 Zn 0.80856 0.23787 0.78509 0.0
Zn616 Zn 0.76875 0.29233 0.68276 0.0
Zn617 Zn 0.71384 0.29037 0.77829 0.0
O618 O 0.79418 0.27739 0.85509 0.0
O619 O 0.75121 0.33969 0.81999 0.0
O620 O 0.75025 0.13016 0.74219 0.0
O621 O 0.81586 0.16237 0.78512 0.0
O622 O 0.87312 0.25243 0.74634 0.0
O623 O 0.84298 0.28594 0.67347 0.0
O624 O 0.73517 0.36298 0.69695 0.0
O625 O 0.64179 0.20512 0.76185 0.0
O626 O 0.6689 0.3277 0.73327 0.0
O627 O 0.67416 0.24984 0.82583 0.0
C628 C 0.73257 0.21125 0.61117 0.0
C629 C 0.77263 0.32065 0.85886 0.0
C630 C 0.87836 0.2656 0.69916 0.0
C631 C 0.79386 0.12597 0.76166 0.0
C632 C 0.69068 0.36652 0.71548 0.0
C633 C 0.63721 0.22724 0.8058 0.0
O634 O 0.74762 0.25661 0.61786 0.0
O635 O 0.63792 0.7756 0.72521 0.0
Zn636 Zn 0.68726 0.75638 0.78175 0.0
O637 O 0.74903 0.75131 0.74858 0.0
Zn638 Zn 0.78297 0.68861 0.74591 0.0
Zn639 Zn 0.75562 0.79246 0.68943 0.0
Zn640 Zn 0.79058 0.78589 0.79225 0.0
O641 O 0.85252 0.70067 0.78937 0.0
O642 O 0.81081 0.74213 0.84812 0.0
O643 O 0.66533 0.68598 0.79478 0.0
O644 O 0.72914 0.6372 0.77 0.0
O645 O 0.78292 0.67428 0.66773 0.0
O646 O 0.78692 0.75186 0.63437 0.0
O647 O 0.79702 0.85495 0.70928 0.0
O648 O 0.69701 0.79865 0.8492 0.0
O649 O 0.84909 0.8073 0.75347 0.0
O650 O 0.76088 0.84572 0.82326 0.0
C651 C 0.64426 0.7876 0.67769 0.0
C652 C 0.85154 0.72343 0.8334 0.0
C653 C 0.78128 0.70435 0.62897 0.0
C654 C 0.68349 0.64286 0.78441 0.0
C655 C 0.83844 0.84931 0.73344 0.0
C656 C 0.72782 0.83542 0.85645 0.0
O657 O 0.68693 0.80067 0.65994 0.0
O658 O 0.46865 0.61877 0.48653 0.0
Zn659 Zn 0.49796 0.55959 0.45236 0.0
O660 O 0.4973 0.50524 0.49762 0.0
Zn661 Zn 0.55661 0.46912 0.50738 0.0
Zn662 Zn 0.45315 0.51358 0.55323 0.0
Zn663 Zn 0.45984 0.46081 0.46046 0.0
O664 O 0.54406 0.39675 0.47191 0.0
O665 O 0.49793 0.42604 0.40805 0.0
O666 O 0.56764 0.5816 0.44654 0.0
O667 O 0.6113 0.51967 0.4842 0.0
O668 O 0.56609 0.47045 0.58513 0.0
O669 O 0.48955 0.48846 0.61482 0.0
O670 O 0.38705 0.47272 0.53511 0.0
O671 O 0.46331 0.53996 0.38681 0.0
O672 O 0.43483 0.41106 0.50859 0.0
O673 O 0.40454 0.49427 0.42529 0.0
C674 C 0.46738 0.6256 0.53514 0.0
C675 C 0.51984 0.38958 0.42938 0.0
C676 C 0.53619 0.48082 0.62202 0.0
C677 C 0.60812 0.56438 0.46506 0.0
C678 C 0.39193 0.42695 0.51959 0.0
C679 C 0.42129 0.51679 0.38587 0.0
O680 O 0.45713 0.58949 0.56631 0.0
O681 O 0.027 0.37437 0.02076 0.0
Zn682 Zn 0.01294 0.43301 0.97248 0.0
O683 O 0.00841 0.49238 0.01105 0.0
Zn684 Zn 0.94516 0.52219 0.01871 0.0
Zn685 Zn 0.04729 0.48494 0.07347 0.0
Zn686 Zn 0.04818 0.54289 0.98186 0.0
O687 O 0.94903 0.59626 0.98715 0.0
O688 O 0.01548 0.59073 0.93637 0.0
O689 O 0.94376 0.41249 0.95188 0.0
O690 O 0.89548 0.47025 -0.01027 0.0
O691 O 0.93221 0.51733 0.09564 0.0
O692 O 0.00898 0.518 0.13008 0.0
O693 O 0.11912 0.51676 0.05691 0.0
O694 O 0.05952 0.44959 0.91186 0.0
O695 O 0.07147 0.58079 0.0417 0.0
O696 O 0.10366 0.51518 0.94116 0.0
C697 C 0.02666 0.37329 0.07012 0.0
C698 C 0.97878 0.61543 0.95292 0.0
C699 C 0.96137 0.51496 0.13467 0.0
C700 C 0.9011 0.42776 0.9669 0.0
C701 C 0.11503 0.5634 0.04457 0.0
C702 C 0.09519 0.48204 0.90711 0.0
O703 O 0.03729 0.41237 0.09655 0.0
loop_
_geom_bond_atom_site_label_1
_geom_bond_atom_site_label_2
_geom_bond_distance
_geom_bond_site_symmetry_2
_ccdc_geom_bond_type
Co0 O1 2.216 . S
Co0 O2 2.091 . S
Co0 O4 2.004 1_655 S
Co0 O10 2.021 1_655 S
Co0 O12 2.137 . S
Co0 O13 2.244 1_655 S
O1 Co0 2.216 . S
O1 C8 1.247 . S
O2 Co0 2.091 . S
O2 C8 1.261 . S
C3 O12 1.247 1_455 S
C3 O13 1.272 . S
O4 Co0 2.004 1_455 S
O4 C9 1.259 . S
Co5 O6 2.061 . S
Co5 O11 2.052 . S
Co5 O13 2.135 . S
O6 Co5 2.061 . S
O6 C9 1.235 . S
C7 O10 1.238 . S
C7 O11 1.241 . S
C8 O1 1.247 . S
C8 O2 1.261 . S
C9 O4 1.259 . S
C9 O6 1.235 . S
O10 Co0 2.021 1_455 S
O10 C7 1.238 . S
O11 Co5 2.052 . S
O11 C7 1.241 . S
O12 Co0 2.137 . S
O12 C3 1.247 1_655 S
O13 Co0 2.244 1_455 S
O13 C3 1.272 . S
O13 Co5 2.135 . S
Co14 O15 2.216 . S
Co14 O16 2.091 . S
Co14 O18 2.004 1_455 S
Co14 O24 2.021 . S
Co14 O26 2.137 . S
Co14 O27 2.244 1_455 S
O15 Co14 2.216 . S
O15 C22 1.247 . S
O16 Co14 2.091 . S
O16 C22 1.261 . S
C17 O26 1.247 . S
C17 O27 1.272 1_455 S
O18 Co14 2.004 1_655 S
O18 C23 1.259 . S
Co19 O20 2.061 . S
Co19 O25 2.052 . S
Co19 O27 2.135 . S
O20 Co19 2.061 . S
O20 C23 1.235 . S
C21 O24 1.238 1_655 S
C21 O25 1.241 . S
C22 O15 1.247 . S
C22 O16 1.261 . S
C23 O18 1.259 . S
C23 O20 1.235 . S
O24 Co14 2.021 . S
O24 C21 1.238 1_455 S
O25 Co19 2.052 . S
O25 C21 1.241 . S
O26 Co14 2.137 . S
O26 C17 1.247 . S
O27 Co14 2.244 1_655 S
O27 C17 1.272 1_655 S
O27 Co19 2.135 . S
Co28 O29 2.216 . S
Co28 O30 2.091 . S
Co28 O32 2.004 . S
Co28 O38 2.021 . S
Co28 O40 2.137 . S
Co28 O41 2.244 . S
O29 Co28 2.216 . S
O29 C36 1.247 . S
O30 Co28 2.091 . S
O30 C36 1.261 . S
C31 O40 1.247 . S
C31 O41 1.272 . S
O32 Co28 2.004 . S
O32 C37 1.259 . S
Co33 O34 2.061 . S
Co33 O39 2.052 . S
Co33 O41 2.135 . S
O34 Co33 2.061 . S
O34 C37 1.235 . S
C35 O38 1.238 . S
C35 O39 1.241 . S
C36 O29 1.247 . S
C36 O30 1.261 . S
C37 O32 1.259 . S
C37 O34 1.235 . S
O38 Co28 2.021 . S
O38 C35 1.238 . S
O39 Co33 2.052 . S
O39 C35 1.241 . S
O40 Co28 2.137 . S
O40 C31 1.247 . S
O41 Co28 2.244 . S
O41 C31 1.272 . S
O41 Co33 2.135 . S
Co42 O43 2.216 . S
Co42 O44 2.091 . S
Co42 O46 2.004 . S
Co42 O52 2.021 . S
Co42 O54 2.137 . S
Co42 O55 2.244 . S
O43 Co42 2.216 . S
O43 C50 1.247 . S
O44 Co42 2.091 . S
O44 C50 1.261 . S
C45 O54 1.247 . S
C45 O55 1.272 . S
O46 Co42 2.004 . S
O46 C51 1.259 . S
Co47 O48 2.061 . S
Co47 O53 2.052 . S
Co47 O55 2.135 . S
O48 Co47 2.061 . S
O48 C51 1.235 . S
C49 O52 1.238 . S
C49 O53 1.241 . S
C50 O43 1.247 . S
C50 O44 1.261 . S
C51 O46 1.259 . S
C51 O48 1.235 . S
O52 Co42 2.021 . S
O52 C49 1.238 . S
O53 Co47 2.052 . S
O53 C49 1.241 . S
O54 Co42 2.137 . S
O54 C45 1.247 . S
O55 Co42 2.244 . S
O55 C45 1.272 . S
O55 Co47 2.135 . S
Co56 O57 2.216 1_545 S
Co56 O58 2.091 1_545 S
Co56 O60 2.004 . S
Co56 O66 2.021 . S
Co56 O68 2.137 . S
Co56 O69 2.244 . S
O57 Co56 2.216 1_565 S
O57 C64 1.247 . S
O58 Co56 2.091 1_565 S
O58 C64 1.261 . S
C59 O68 1.247 . S
C59 O69 1.272 . S
O60 Co56 2.004 . S
O60 C65 1.259 . S
Co61 O62 2.061 . S
Co61 O67 2.052 . S
Co61 O69 2.135 . S
O62 Co61 2.061 . S
O62 C65 1.235 . S
C63 O66 1.238 . S
C63 O67 1.241 . S
C64 O57 1.247 . S
C64 O58 1.261 . S
C65 O60 1.259 . S
C65 O62 1.235 . S
O66 Co56 2.021 . S
O66 C63 1.238 . S
O67 Co61 2.052 . S
O67 C63 1.241 . S
O68 Co56 2.137 . S
O68 C59 1.247 . S
O69 Co56 2.244 . S
O69 C59 1.272 . S
O69 Co61 2.135 . S
Co70 O71 2.216 . S
Co70 O72 2.091 . S
Co70 O74 2.004 . S
Co70 O80 2.021 . S
Co70 O82 2.137 . S
Co70 O83 2.244 . S
O71 Co70 2.216 . S
O71 C78 1.247 . S
O72 Co70 2.091 . S
O72 C78 1.261 . S
C73 O82 1.247 . S
C73 O83 1.272 . S
O74 Co70 2.004 . S
O74 C79 1.259 . S
Co75 O76 2.061 . S
Co75 O81 2.052 . S
Co75 O83 2.135 . S
O76 Co75 2.061 . S
O76 C79 1.235 . S
C77 O80 1.238 . S
C77 O81 1.241 . S
C78 O71 1.247 . S
C78 O72 1.261 . S
C79 O74 1.259 . S
C79 O76 1.235 . S
O80 Co70 2.021 . S
O80 C77 1.238 . S
O81 Co75 2.052 . S
O81 C77 1.241 . S
O82 Co70 2.137 . S
O82 C73 1.247 . S
O83 Co70 2.244 . S
O83 C73 1.272 . S
O83 Co75 2.135 . S
Co84 O85 2.216 . S
Co84 O86 2.091 . S
Co84 O88 2.004 1_545 S
Co84 O94 2.021 . S
Co84 O96 2.137 . S
Co84 O97 2.244 1_545 S
O85 Co84 2.216 . S
O85 C92 1.247 . S
O86 Co84 2.091 . S
O86 C92 1.261 . S
C87 O96 1.247 1_565 S
C87 O97 1.272 . S
O88 Co84 2.004 1_565 S
O88 C93 1.259 . S
Co89 O90 2.061 . S
Co89 O95 2.052 . S
Co89 O97 2.135 . S
O90 Co89 2.061 . S
O90 C93 1.235 . S
C91 O94 1.238 1_565 S
C91 O95 1.241 . S
C92 O85 1.247 . S
C92 O86 1.261 . S
C93 O88 1.259 . S
C93 O90 1.235 . S
O94 Co84 2.021 . S
O94 C91 1.238 1_545 S
O95 Co89 2.052 . S
O95 C91 1.241 . S
O96 Co84 2.137 . S
O96 C87 1.247 1_545 S
O97 Co84 2.244 1_565 S
O97 C87 1.272 . S
O97 Co89 2.135 . S
Co98 O99 2.216 . S
Co98 O100 2.091 . S
Co98 O102 2.004 . S
Co98 O108 2.021 . S
Co98 O110 2.137 1_554 S
Co98 O111 2.244 1_554 S
O99 Co98 2.216 . S
O99 C106 1.247 . S
O100 Co98 2.091 . S
O100 C106 1.261 . S
C101 O110 1.247 . S
C101 O111 1.272 . S
O102 Co98 2.004 . S
O102 C107 1.259 . S
Co103 O104 2.061 . S
Co103 O109 2.052 . S
Co103 O111 2.135 1_554 S
O104 Co103 2.061 . S
O104 C107 1.235 . S
C105 O108 1.238 . S
C105 O109 1.241 . S
C106 O99 1.247 . S
C106 O100 1.261 . S
C107 O102 1.259 . S
C107 O104 1.235 . S
O108 Co98 2.021 . S
O108 C105 1.238 . S
O109 Co103 2.052 . S
O109 C105 1.241 . S
O110 Co98 2.137 1_556 S
O110 C101 1.247 . S
O111 Co98 2.244 1_556 S
O111 C101 1.272 . S
O111 Co103 2.135 1_556 S
Co112 O113 2.216 . S
Co112 O114 2.092 . S
Co112 O116 2.004 . S
Co112 O122 2.025 . S
Co112 O124 2.133 1_554 S
Co112 O125 2.242 1_554 S
O113 Co112 2.216 . S
O113 C120 1.247 . S
O114 Co112 2.092 . S
O114 C120 1.261 . S
C115 O124 1.247 . S
C115 O125 1.272 . S
O116 Co112 2.004 . S
O116 C121 1.259 . S
Co117 O118 2.061 . S
Co117 O123 2.052 . S
Co117 O125 2.135 1_554 S
O118 Co117 2.061 . S
O118 C121 1.235 . S
C119 O122 1.238 . S
C119 O123 1.241 . S
C120 O113 1.247 . S
C120 O114 1.261 . S
C121 O116 1.259 . S
C121 O118 1.235 . S
O122 Co112 2.025 . S
O122 C119 1.238 . S
O123 Co117 2.052 . S
O123 C119 1.241 . S
O124 Co112 2.133 1_556 S
O124 C115 1.247 . S
O125 Co112 2.242 1_556 S
O125 C115 1.272 . S
O125 Co117 2.135 1_556 S
Co126 O127 2.216 . S
Co126 O128 2.091 . S
Co126 O130 2.004 . S
Co126 O136 2.021 . S
Co126 O138 2.137 . S
Co126 O139 2.244 . S
O127 Co126 2.216 . S
O127 C134 1.247 . S
O128 Co126 2.091 . S
O128 C134 1.261 . S
C129 O138 1.247 . S
C129 O139 1.272 . S
O130 Co126 2.004 . S
O130 C135 1.259 . S
Co131 O132 2.061 . S
Co131 O137 2.052 . S
Co131 O139 2.135 . S
O132 Co131 2.061 . S
O132 C135 1.235 . S
C133 O136 1.238 . S
C133 O137 1.241 . S
C134 O127 1.247 . S
C134 O128 1.261 . S
C135 O130 1.259 . S
C135 O132 1.235 . S
O136 Co126 2.021 . S
O136 C133 1.238 . S
O137 Co131 2.052 . S
O137 C133 1.241 . S
O138 Co126 2.137 . S
O138 C129 1.247 . S
O139 Co126 2.244 . S
O139 C129 1.272 . S
O139 Co131 2.135 . S
Co140 O141 2.216 . S
Co140 O142 2.091 . S
Co140 O144 2.004 . S
Co140 O150 2.021 . S
Co140 O152 2.137 . S
Co140 O153 2.244 . S
O141 Co140 2.216 . S
O141 C148 1.247 . S
O142 Co140 2.091 . S
O142 C148 1.261 . S
C143 O152 1.247 . S
C143 O153 1.272 . S
O144 Co140 2.004 . S
O144 C149 1.259 . S
Co145 O146 2.061 . S
Co145 O151 2.052 . S
Co145 O153 2.135 . S
O146 Co145 2.061 . S
O146 C149 1.235 . S
C147 O150 1.238 . S
C147 O151 1.241 . S
C148 O141 1.247 . S
C148 O142 1.261 . S
C149 O144 1.259 . S
C149 O146 1.235 . S
O150 Co140 2.021 . S
O150 C147 1.238 . S
O151 Co145 2.052 . S
O151 C147 1.241 . S
O152 Co140 2.137 . S
O152 C143 1.247 . S
O153 Co140 2.244 . S
O153 C143 1.272 . S
O153 Co145 2.135 . S
Co154 O155 2.216 . S
Co154 O156 2.091 . S
Co154 O158 2.004 . S
Co154 O164 2.021 . S
Co154 O166 2.137 . S
Co154 O167 2.244 . S
O155 Co154 2.216 . S
O155 C162 1.247 . S
O156 Co154 2.091 . S
O156 C162 1.261 . S
C157 O166 1.247 . S
C157 O167 1.272 . S
O158 Co154 2.004 . S
O158 C163 1.259 . S
Co159 O160 2.061 . S
Co159 O165 2.052 . S
Co159 O167 2.135 . S
O160 Co159 2.061 . S
O160 C163 1.235 . S
C161 O164 1.238 . S
C161 O165 1.241 . S
C162 O155 1.247 . S
C162 O156 1.261 . S
C163 O158 1.259 . S
C163 O160 1.235 . S
O164 Co154 2.021 . S
O164 C161 1.238 . S
O165 Co159 2.052 . S
O165 C161 1.241 . S
O166 Co154 2.137 . S
O166 C157 1.247 . S
O167 Co154 2.244 . S
O167 C157 1.272 . S
O167 Co159 2.135 . S
Co168 O169 2.216 . S
Co168 O170 2.091 . S
Co168 O172 2.004 1_455 S
Co168 O178 2.021 . S
Co168 O180 2.137 . S
Co168 O181 2.244 1_455 S
O169 Co168 2.216 . S
O169 C176 1.247 . S
O170 Co168 2.091 . S
O170 C176 1.261 . S
C171 O180 1.247 . S
C171 O181 1.272 1_455 S
O172 Co168 2.004 1_655 S
O172 C177 1.259 . S
Co173 O174 2.061 . S
Co173 O179 2.052 . S
Co173 O181 2.135 . S
O174 Co173 2.061 . S
O174 C177 1.235 . S
C175 O178 1.238 1_655 S
C175 O179 1.241 . S
C176 O169 1.247 . S
C176 O170 1.261 . S
C177 O172 1.259 . S
C177 O174 1.235 . S
O178 Co168 2.021 . S
O178 C175 1.238 1_455 S
O179 Co173 2.052 . S
O179 C175 1.241 . S
O180 Co168 2.137 . S
O180 C171 1.247 . S
O181 Co168 2.244 1_655 S
O181 C171 1.272 1_655 S
O181 Co173 2.135 . S
Co182 O183 2.216 . S
Co182 O184 2.091 . S
Co182 O186 2.004 1_655 S
Co182 O192 2.021 1_655 S
Co182 O194 2.137 . S
Co182 O195 2.244 1_655 S
O183 Co182 2.216 . S
O183 C190 1.247 . S
O184 Co182 2.091 . S
O184 C190 1.261 . S
C185 O194 1.247 1_455 S
C185 O195 1.272 . S
O186 Co182 2.004 1_455 S
O186 C191 1.259 . S
Co187 O188 2.061 . S
Co187 O193 2.052 . S
Co187 O195 2.135 . S
O188 Co187 2.061 . S
O188 C191 1.235 . S
C189 O192 1.238 . S
C189 O193 1.241 . S
C190 O183 1.247 . S
C190 O184 1.261 . S
C191 O186 1.259 . S
C191 O188 1.235 . S
O192 Co182 2.021 1_455 S
O192 C189 1.238 . S
O193 Co187 2.052 . S
O193 C189 1.241 . S
O194 Co182 2.137 . S
O194 C185 1.247 1_655 S
O195 Co182 2.244 1_455 S
O195 C185 1.272 . S
O195 Co187 2.135 . S
Co196 O197 2.216 . S
Co196 O198 2.091 . S
Co196 O200 2.004 . S
Co196 O206 2.021 . S
Co196 O208 2.137 . S
Co196 O209 2.244 . S
O197 Co196 2.216 . S
O197 C204 1.247 . S
O198 Co196 2.091 . S
O198 C204 1.261 . S
C199 O208 1.247 . S
C199 O209 1.272 . S
O200 Co196 2.004 . S
O200 C205 1.259 . S
Co201 O202 2.061 . S
Co201 O207 2.052 . S
Co201 O209 2.135 . S
O202 Co201 2.061 . S
O202 C205 1.235 . S
C203 O206 1.238 . S
C203 O207 1.241 . S
C204 O197 1.247 . S
C204 O198 1.261 . S
C205 O200 1.259 . S
C205 O202 1.235 . S
O206 Co196 2.021 . S
O206 C203 1.238 . S
O207 Co201 2.052 . S
O207 C203 1.241 . S
O208 Co196 2.137 . S
O208 C199 1.247 . S
O209 Co196 2.244 . S
O209 C199 1.272 . S
O209 Co201 2.135 . S
Co210 O211 2.216 . S
Co210 O212 2.091 . S
Co210 O214 2.004 . S
Co210 O220 2.021 . S
Co210 O222 2.137 . S
Co210 O223 2.244 . S
O211 Co210 2.216 . S
O211 C218 1.247 . S
O212 Co210 2.091 . S
O212 C218 1.261 . S
C213 O222 1.247 . S
C213 O223 1.272 . S
O214 Co210 2.004 . S
O214 C219 1.259 . S
Co215 O216 2.061 . S
Co215 O221 2.052 . S
Co215 O223 2.135 . S
O216 Co215 2.061 . S
O216 C219 1.235 . S
C217 O220 1.238 . S
C217 O221 1.241 . S
C218 O211 1.247 . S
C218 O212 1.261 . S
C219 O214 1.259 . S
C219 O216 1.235 . S
O220 Co210 2.021 . S
O220 C217 1.238 . S
O221 Co215 2.052 . S
O221 C217 1.241 . S
O222 Co210 2.137 . S
O222 C213 1.247 . S
O223 Co210 2.244 . S
O223 C213 1.272 . S
O223 Co215 2.135 . S
Co224 O225 2.216 . S
Co224 O226 2.091 . S
Co224 O228 2.004 1_545 S
Co224 O234 2.021 . S
Co224 O236 2.137 . S
Co224 O237 2.244 . S
O225 Co224 2.216 . S
O225 C232 1.247 . S
O226 Co224 2.091 . S
O226 C232 1.261 . S
C227 O236 1.247 . S
C227 O237 1.272 . S
O228 Co224 2.004 1_565 S
O228 C233 1.259 . S
Co229 O230 2.061 . S
Co229 O235 2.052 . S
Co229 O237 2.135 1_565 S
O230 Co229 2.061 . S
O230 C233 1.235 . S
C231 O234 1.238 . S
C231 O235 1.241 1_545 S
C232 O225 1.247 . S
C232 O226 1.261 . S
C233 O228 1.259 . S
C233 O230 1.235 . S
O234 Co224 2.021 . S
O234 C231 1.238 . S
O235 Co229 2.052 . S
O235 C231 1.241 1_565 S
O236 Co224 2.137 . S
O236 C227 1.247 . S
O237 Co224 2.244 . S
O237 C227 1.272 . S
O237 Co229 2.135 1_545 S
Co238 O239 2.216 . S
Co238 O240 2.091 . S
Co238 O242 2.004 . S
Co238 O248 2.021 . S
Co238 O250 2.137 . S
Co238 O251 2.244 . S
O239 Co238 2.216 . S
O239 C246 1.247 . S
O240 Co238 2.091 . S
O240 C246 1.261 . S
C241 O250 1.247 . S
C241 O251 1.272 . S
O242 Co238 2.004 . S
O242 C247 1.259 . S
Co243 O244 2.061 . S
Co243 O249 2.052 . S
Co243 O251 2.135 . S
O244 Co243 2.061 . S
O244 C247 1.235 . S
C245 O248 1.238 . S
C245 O249 1.241 . S
C246 O239 1.247 . S
C246 O240 1.261 . S
C247 O242 1.259 . S
C247 O244 1.235 . S
O248 Co238 2.021 . S
O248 C245 1.238 . S
O249 Co243 2.052 . S
O249 C245 1.241 . S
O250 Co238 2.137 . S
O250 C241 1.247 . S
O251 Co238 2.244 . S
O251 C241 1.272 . S
O251 Co243 2.135 . S
Co252 O253 2.216 . S
Co252 O254 2.091 . S
Co252 O256 2.004 1_565 S
Co252 O262 2.021 . S
Co252 O264 2.137 . S
Co252 O265 2.244 1_565 S
O253 Co252 2.216 . S
O253 C260 1.247 . S
O254 Co252 2.091 . S
O254 C260 1.261 . S
C255 O264 1.247 1_545 S
C255 O265 1.272 . S
O256 Co252 2.004 1_545 S
O256 C261 1.259 . S
Co257 O258 2.061 . S
Co257 O263 2.052 . S
Co257 O265 2.135 . S
O258 Co257 2.061 . S
O258 C261 1.235 . S
C259 O262 1.238 1_545 S
C259 O263 1.241 . S
C260 O253 1.247 . S
C260 O254 1.261 . S
C261 O256 1.259 . S
C261 O258 1.235 . S
O262 Co252 2.021 . S
O262 C259 1.238 1_565 S
O263 Co257 2.052 . S
O263 C259 1.241 . S
O264 Co252 2.137 . S
O264 C255 1.247 1_565 S
O265 Co252 2.244 1_545 S
O265 C255 1.272 . S
O265 Co257 2.135 . S
Co266 O267 2.216 . S
Co266 O268 2.091 1_556 S
Co266 O270 2.004 . S
Co266 O276 2.021 1_556 S
Co266 O278 2.137 . S
Co266 O279 2.244 . S
O267 Co266 2.216 . S
O267 C274 1.247 1_556 S
O268 Co266 2.091 1_554 S
O268 C274 1.261 . S
C269 O278 1.247 . S
C269 O279 1.272 . S
O270 Co266 2.004 . S
O270 C275 1.256 1_556 S
Co271 O272 2.061 1_556 S
Co271 O277 2.042 1_556 S
Co271 O279 2.141 . S
O272 Co271 2.061 1_554 S
O272 C275 1.237 . S
C273 O276 1.238 . S
C273 O277 1.241 . S
C274 O267 1.247 1_554 S
C274 O268 1.261 . S
C275 O270 1.256 1_554 S
C275 O272 1.237 . S
O276 Co266 2.021 1_554 S
O276 C273 1.238 . S
O277 Co271 2.042 1_554 S
O277 C273 1.241 . S
O278 Co266 2.137 . S
O278 C269 1.247 . S
O279 Co266 2.244 . S
O279 C269 1.272 . S
O279 Co271 2.141 . S
Co280 O281 2.216 . S
Co280 O282 2.091 1_556 S
Co280 O284 2.004 . S
Co280 O290 2.021 1_556 S
Co280 O292 2.137 . S
Co280 O293 2.244 . S
O281 Co280 2.216 . S
O281 C288 1.245 1_556 S
O282 Co280 2.091 1_554 S
O282 C288 1.262 . S
C283 O292 1.247 . S
C283 O293 1.272 . S
O284 Co280 2.004 . S
O284 C289 1.261 . S
Co285 O286 2.061 1_556 S
Co285 O291 2.052 1_556 S
Co285 O293 2.135 . S
O286 Co285 2.061 1_554 S
O286 C289 1.234 1_554 S
C287 O290 1.238 . S
C287 O291 1.241 . S
C288 O281 1.245 1_554 S
C288 O282 1.262 . S
C289 O284 1.261 . S
C289 O286 1.234 1_556 S
O290 Co280 2.021 1_554 S
O290 C287 1.238 . S
O291 Co285 2.052 1_554 S
O291 C287 1.241 . S
O292 Co280 2.137 . S
O292 C283 1.247 . S
O293 Co280 2.244 . S
O293 C283 1.272 . S
O293 Co285 2.135 . S
Co294 O295 2.216 . S
Co294 O296 2.091 . S
Co294 O298 2.004 . S
Co294 O304 2.021 . S
Co294 O306 2.137 . S
Co294 O307 2.244 . S
O295 Co294 2.216 . S
O295 C302 1.247 . S
O296 Co294 2.091 . S
O296 C302 1.261 . S
C297 O306 1.247 . S
C297 O307 1.272 . S
O298 Co294 2.004 . S
O298 C303 1.259 . S
Co299 O300 2.061 . S
Co299 O305 2.052 . S
Co299 O307 2.135 . S
O300 Co299 2.061 . S
O300 C303 1.235 . S
C301 O304 1.238 . S
C301 O305 1.241 . S
C302 O295 1.247 . S
C302 O296 1.261 . S
C303 O298 1.259 . S
C303 O300 1.235 . S
O304 Co294 2.021 . S
O304 C301 1.238 . S
O305 Co299 2.052 . S
O305 C301 1.241 . S
O306 Co294 2.137 . S
O306 C297 1.247 . S
O307 Co294 2.244 . S
O307 C297 1.272 . S
O307 Co299 2.135 . S
Co308 O309 2.216 . S
Co308 O310 2.091 . S
Co308 O312 2.004 . S
Co308 O318 2.021 . S
Co308 O320 2.137 . S
Co308 O321 2.244 . S
O309 Co308 2.216 . S
O309 C316 1.247 . S
O310 Co308 2.091 . S
O310 C316 1.261 . S
C311 O320 1.247 . S
C311 O321 1.272 . S
O312 Co308 2.004 . S
O312 C317 1.259 . S
Co313 O314 2.061 . S
Co313 O319 2.052 . S
Co313 O321 2.135 . S
O314 Co313 2.061 . S
O314 C317 1.235 . S
C315 O318 1.238 . S
C315 O319 1.241 . S
C316 O309 1.247 . S
C316 O310 1.261 . S
C317 O312 1.259 . S
C317 O314 1.235 . S
O318 Co308 2.021 . S
O318 C315 1.238 . S
O319 Co313 2.052 . S
O319 C315 1.241 . S
O320 Co308 2.137 . S
O320 C311 1.247 . S
O321 Co308 2.244 . S
O321 C311 1.272 . S
O321 Co313 2.135 . S
Co322 O323 2.216 . S
Co322 O324 2.091 . S
Co322 O326 2.004 . S
Co322 O332 2.021 . S
Co322 O334 2.137 . S
Co322 O335 2.244 . S
O323 Co322 2.216 . S
O323 C330 1.247 . S
O324 Co322 2.091 . S
O324 C330 1.261 . S
C325 O334 1.247 . S
C325 O335 1.272 . S
O326 Co322 2.004 . S
O326 C331 1.259 . S
Co327 O328 2.061 . S
Co327 O333 2.052 . S
Co327 O335 2.135 . S
O328 Co327 2.061 . S
O328 C331 1.235 . S
C329 O332 1.238 . S
C329 O333 1.241 . S
C330 O323 1.247 . S
C330 O324 1.261 . S
C331 O326 1.259 . S
C331 O328 1.235 . S
O332 Co322 2.021 . S
O332 C329 1.238 . S
O333 Co327 2.052 . S
O333 C329 1.241 . S
O334 Co322 2.137 . S
O334 C325 1.247 . S
O335 Co322 2.244 . S
O335 C325 1.272 . S
O335 Co327 2.135 . S
O336 Zn337 1.953 1_554 S
O336 C352 1.225 1_455 S
Zn337 O336 1.953 1_556 S
Zn337 O338 1.949 1_556 S
Zn337 O344 1.919 . S
Zn337 O349 1.924 1_455 S
O338 Zn337 1.949 1_554 S
O338 Zn339 1.923 1_545 S
O338 Zn340 1.950 1_455 S
O338 Zn341 1.945 1_444 S
Zn339 O338 1.923 1_565 S
Zn339 O342 1.933 . S
Zn339 O345 1.941 1_565 S
Zn339 O346 1.965 . S
Zn340 O338 1.950 1_655 S
Zn340 O347 1.938 . S
Zn340 O348 1.906 1_545 S
Zn340 O358 1.953 . S
Zn341 O338 1.945 1_666 S
Zn341 O343 1.932 . S
Zn341 O350 1.977 . S
Zn341 O351 1.910 1_565 S
O342 Zn339 1.933 . S
O342 C353 1.226 1_554 S
O343 Zn341 1.932 . S
O343 C353 1.307 1_655 S
O344 Zn337 1.919 . S
O344 C355 1.253 . S
O345 Zn339 1.941 1_545 S
O345 C355 1.283 1_554 S
O346 Zn339 1.965 . S
O346 C354 1.303 . S
O347 Zn340 1.938 . S
O347 C354 1.247 1_645 S
O348 Zn340 1.906 1_565 S
O348 C356 1.304 . S
O349 Zn337 1.924 1_655 S
O349 C357 1.311 . S
O350 Zn341 1.977 . S
O350 C356 1.272 1_556 S
O351 Zn341 1.910 1_545 S
O351 C357 1.231 . S
C352 O336 1.225 1_655 S
C352 O358 1.298 . S
C353 O342 1.226 1_556 S
C353 O343 1.307 1_455 S
C354 O346 1.303 . S
C354 O347 1.247 1_465 S
C355 O344 1.253 . S
C355 O345 1.283 1_556 S
C356 O348 1.304 . S
C356 O350 1.272 1_554 S
C357 O349 1.311 . S
C357 O351 1.231 . S
O358 Zn340 1.953 . S
O358 C352 1.298 . S
O359 Zn360 1.953 . S
O359 C375 1.225 . S
Zn360 O359 1.953 . S
Zn360 O361 1.949 . S
Zn360 O367 1.919 . S
Zn360 O372 1.924 . S
O361 Zn360 1.949 . S
O361 Zn362 1.923 . S
O361 Zn363 1.950 . S
O361 Zn364 1.945 . S
Zn362 O361 1.923 . S
Zn362 O365 1.933 . S
Zn362 O368 1.941 . S
Zn362 O369 1.965 . S
Zn363 O361 1.950 . S
Zn363 O370 1.938 . S
Zn363 O371 1.906 . S
Zn363 O381 1.953 . S
Zn364 O361 1.945 . S
Zn364 O366 1.932 . S
Zn364 O373 1.977 . S
Zn364 O374 1.910 . S
O365 Zn362 1.933 . S
O365 C376 1.226 . S
O366 Zn364 1.932 . S
O366 C376 1.307 . S
O367 Zn360 1.919 . S
O367 C378 1.253 . S
O368 Zn362 1.941 . S
O368 C378 1.283 . S
O369 Zn362 1.965 . S
O369 C377 1.303 . S
O370 Zn363 1.938 . S
O370 C377 1.247 . S
O371 Zn363 1.906 . S
O371 C379 1.304 . S
O372 Zn360 1.924 . S
O372 C380 1.311 . S
O373 Zn364 1.977 . S
O373 C379 1.272 . S
O374 Zn364 1.910 . S
O374 C380 1.231 . S
C375 O359 1.225 . S
C375 O381 1.298 . S
C376 O365 1.226 . S
C376 O366 1.307 . S
C377 O369 1.303 . S
C377 O370 1.247 . S
C378 O367 1.253 . S
C378 O368 1.283 . S
C379 O371 1.304 . S
C379 O373 1.272 . S
C380 O372 1.311 . S
C380 O374 1.231 . S
O381 Zn363 1.953 . S
O381 C375 1.298 . S
O382 Zn383 1.953 . S
O382 C398 1.225 . S
Zn383 O382 1.953 . S
Zn383 O384 1.949 1_565 S
Zn383 O390 1.919 . S
Zn383 O395 1.924 . S
O384 Zn383 1.949 1_545 S
O384 Zn385 1.923 . S
O384 Zn386 1.950 1_545 S
O384 Zn387 1.945 . S
Zn385 O384 1.923 . S
Zn385 O388 1.933 . S
Zn385 O391 1.941 . S
Zn385 O392 1.965 . S
Zn386 O384 1.950 1_565 S
Zn386 O393 1.938 1_565 S
Zn386 O394 1.906 1_565 S
Zn386 O404 1.953 . S
Zn387 O384 1.945 . S
Zn387 O389 1.932 . S
Zn387 O396 1.977 . S
Zn387 O397 1.910 . S
O388 Zn385 1.933 . S
O388 C399 1.226 . S
O389 Zn387 1.932 . S
O389 C399 1.307 . S
O390 Zn383 1.919 . S
O390 C401 1.253 . S
O391 Zn385 1.941 . S
O391 C401 1.283 1_545 S
O392 Zn385 1.965 . S
O392 C400 1.303 . S
O393 Zn386 1.938 1_545 S
O393 C400 1.247 . S
O394 Zn386 1.906 1_545 S
O394 C402 1.304 . S
O395 Zn383 1.924 . S
O395 C403 1.311 . S
O396 Zn387 1.977 . S
O396 C402 1.272 . S
O397 Zn387 1.910 . S
O397 C403 1.231 1_545 S
C398 O382 1.225 . S
C398 O404 1.298 . S
C399 O388 1.226 . S
C399 O389 1.307 . S
C400 O392 1.303 . S
C400 O393 1.247 . S
C401 O390 1.253 . S
C401 O391 1.283 1_565 S
C402 O394 1.304 . S
C402 O396 1.272 . S
C403 O395 1.311 . S
C403 O397 1.231 1_565 S
O404 Zn386 1.953 . S
O404 C398 1.298 . S
O405 Zn406 1.953 . S
O405 C421 1.225 . S
Zn406 O405 1.953 . S
Zn406 O407 1.949 . S
Zn406 O413 1.919 . S
Zn406 O418 1.924 . S
O407 Zn406 1.949 . S
O407 Zn408 1.923 . S
O407 Zn409 1.950 . S
O407 Zn410 1.945 . S
Zn408 O407 1.923 . S
Zn408 O411 1.933 . S
Zn408 O414 1.941 . S
Zn408 O415 1.965 . S
Zn409 O407 1.950 . S
Zn409 O416 1.938 . S
Zn409 O417 1.906 . S
Zn409 O427 1.953 . S
Zn410 O407 1.945 . S
Zn410 O412 1.932 . S
Zn410 O419 1.977 . S
Zn410 O420 1.910 . S
O411 Zn408 1.933 . S
O411 C422 1.226 . S
O412 Zn410 1.932 . S
O412 C422 1.307 . S
O413 Zn406 1.919 . S
O413 C424 1.253 . S
O414 Zn408 1.941 . S
O414 C424 1.283 . S
O415 Zn408 1.965 . S
O415 C423 1.303 . S
O416 Zn409 1.938 . S
O416 C423 1.247 . S
O417 Zn409 1.906 . S
O417 C425 1.304 . S
O418 Zn406 1.924 . S
O418 C426 1.311 . S
O419 Zn410 1.977 . S
O419 C425 1.272 . S
O420 Zn410 1.910 . S
O420 C426 1.231 . S
C421 O405 1.225 . S
C421 O427 1.298 . S
C422 O411 1.226 . S
C422 O412 1.307 . S
C423 O415 1.303 . S
C423 O416 1.247 . S
C424 O413 1.253 . S
C424 O414 1.283 . S
C425 O417 1.304 . S
C425 O419 1.272 . S
C426 O418 1.311 . S
C426 O420 1.231 . S
O427 Zn409 1.953 . S
O427 C421 1.298 . S
O428 Zn429 1.953 1_445 S
O428 C444 1.225 . S
Zn429 O428 1.953 1_665 S
Zn429 O430 1.949 1_665 S
Zn429 O436 1.919 . S
Zn429 O441 1.924 1_565 S
O430 Zn429 1.949 1_445 S
O430 Zn431 1.923 1_545 S
O430 Zn432 1.950 . S
O430 Zn433 1.945 1_455 S
Zn431 O430 1.923 1_565 S
Zn431 O434 1.933 1_455 S
Zn431 O437 1.941 . S
Zn431 O438 1.965 . S
Zn432 O430 1.950 . S
Zn432 O439 1.938 . S
Zn432 O440 1.906 . S
Zn432 O450 1.953 . S
Zn433 O430 1.945 1_655 S
Zn433 O435 1.932 . S
Zn433 O442 1.977 . S
Zn433 O443 1.910 . S
O434 Zn431 1.933 1_655 S
O434 C445 1.226 . S
O435 Zn433 1.932 . S
O435 C445 1.307 1_545 S
O436 Zn429 1.919 . S
O436 C447 1.253 . S
O437 Zn431 1.941 . S
O437 C447 1.283 1_455 S
O438 Zn431 1.965 . S
O438 C446 1.303 . S
O439 Zn432 1.938 . S
O439 C446 1.247 1_545 S
O440 Zn432 1.906 . S
O440 C448 1.304 . S
O441 Zn429 1.924 1_545 S
O441 C449 1.311 . S
O442 Zn433 1.977 . S
O442 C448 1.272 1_655 S
O443 Zn433 1.910 . S
O443 C449 1.231 . S
C444 O428 1.225 . S
C444 O450 1.298 . S
C445 O434 1.226 . S
C445 O435 1.307 1_565 S
C446 O438 1.303 . S
C446 O439 1.247 1_565 S
C447 O436 1.253 . S
C447 O437 1.283 1_655 S
C448 O440 1.304 . S
C448 O442 1.272 1_455 S
C449 O441 1.311 . S
C449 O443 1.231 . S
O450 Zn432 1.953 . S
O450 C444 1.298 . S
O451 Zn452 1.953 . S
O451 C467 1.225 . S
Zn452 O451 1.953 . S
Zn452 O453 1.949 . S
Zn452 O459 1.919 . S
Zn452 O464 1.924 . S
O453 Zn452 1.949 . S
O453 Zn454 1.923 . S
O453 Zn455 1.950 . S
O453 Zn456 1.945 . S
Zn454 O453 1.923 . S
Zn454 O457 1.933 . S
Zn454 O460 1.941 . S
Zn454 O461 1.965 . S
Zn455 O453 1.950 . S
Zn455 O462 1.938 . S
Zn455 O463 1.906 . S
Zn455 O473 1.953 . S
Zn456 O453 1.945 . S
Zn456 O458 1.932 . S
Zn456 O465 1.977 . S
Zn456 O466 1.910 . S
O457 Zn454 1.933 . S
O457 C468 1.226 . S
O458 Zn456 1.932 . S
O458 C468 1.307 . S
O459 Zn452 1.919 . S
O459 C470 1.253 . S
O460 Zn454 1.941 . S
O460 C470 1.283 . S
O461 Zn454 1.965 . S
O461 C469 1.303 . S
O462 Zn455 1.938 . S
O462 C469 1.247 . S
O463 Zn455 1.906 . S
O463 C471 1.304 . S
O464 Zn452 1.924 . S
O464 C472 1.311 . S
O465 Zn456 1.977 . S
O465 C471 1.272 . S
O466 Zn456 1.910 . S
O466 C472 1.231 . S
C467 O451 1.225 . S
C467 O473 1.298 . S
C468 O457 1.226 . S
C468 O458 1.307 . S
C469 O461 1.303 . S
C469 O462 1.247 . S
C470 O459 1.253 . S
C470 O460 1.283 . S
C471 O463 1.304 . S
C471 O465 1.272 . S
C472 O464 1.311 . S
C472 O466 1.231 . S
O473 Zn455 1.953 . S
O473 C467 1.298 . S
O474 Zn475 1.953 . S
O474 C490 1.225 . S
Zn475 O474 1.953 . S
Zn475 O476 1.949 . S
Zn475 O482 1.919 1_544 S
Zn475 O487 1.924 . S
O476 Zn475 1.949 . S
O476 Zn477 1.923 1_544 S
O476 Zn478 1.950 . S
O476 Zn479 1.945 1_554 S
Zn477 O476 1.923 1_566 S
Zn477 O480 1.933 . S
Zn477 O483 1.941 . S
Zn477 O484 1.965 1_556 S
Zn478 O476 1.950 . S
Zn478 O485 1.938 1_545 S
Zn478 O486 1.906 . S
Zn478 O496 1.953 . S
Zn479 O476 1.945 1_556 S
Zn479 O481 1.932 . S
Zn479 O488 1.977 . S
Zn479 O489 1.910 . S
O480 Zn477 1.933 . S
O480 C491 1.226 . S
O481 Zn479 1.932 . S
O481 C491 1.307 1_545 S
O482 Zn475 1.919 1_566 S
O482 C493 1.253 . S
O483 Zn477 1.941 . S
O483 C493 1.283 . S
O484 Zn477 1.965 1_554 S
O484 C492 1.303 . S
O485 Zn478 1.938 1_565 S
O485 C492 1.247 . S
O486 Zn478 1.906 . S
O486 C494 1.304 . S
O487 Zn475 1.924 . S
O487 C495 1.311 1_554 S
O488 Zn479 1.977 . S
O488 C494 1.272 1_556 S
O489 Zn479 1.910 . S
O489 C495 1.231 . S
C490 O474 1.225 . S
C490 O496 1.298 . S
C491 O480 1.226 . S
C491 O481 1.307 1_565 S
C492 O484 1.303 . S
C492 O485 1.247 . S
C493 O482 1.253 . S
C493 O483 1.283 . S
C494 O486 1.304 . S
C494 O488 1.272 1_554 S
C495 O487 1.311 1_556 S
C495 O489 1.231 . S
O496 Zn478 1.953 . S
O496 C490 1.298 . S
O497 Zn498 1.953 . S
O497 C513 1.225 . S
Zn498 O497 1.953 . S
Zn498 O499 1.949 . S
Zn498 O505 1.919 . S
Zn498 O510 1.924 . S
O499 Zn498 1.949 . S
O499 Zn500 1.923 . S
O499 Zn501 1.950 . S
O499 Zn502 1.945 . S
Zn500 O499 1.923 . S
Zn500 O503 1.933 . S
Zn500 O506 1.941 . S
Zn500 O507 1.965 . S
Zn501 O499 1.950 . S
Zn501 O508 1.938 . S
Zn501 O509 1.906 . S
Zn501 O519 1.953 . S
Zn502 O499 1.945 . S
Zn502 O504 1.932 . S
Zn502 O511 1.977 . S
Zn502 O512 1.910 . S
O503 Zn500 1.933 . S
O503 C514 1.226 . S
O504 Zn502 1.932 . S
O504 C514 1.307 . S
O505 Zn498 1.919 . S
O505 C516 1.253 . S
O506 Zn500 1.941 . S
O506 C516 1.283 . S
O507 Zn500 1.965 . S
O507 C515 1.303 . S
O508 Zn501 1.938 . S
O508 C515 1.247 . S
O509 Zn501 1.906 . S
O509 C517 1.304 . S
O510 Zn498 1.924 . S
O510 C518 1.311 . S
O511 Zn502 1.977 . S
O511 C517 1.272 . S
O512 Zn502 1.910 . S
O512 C518 1.231 . S
C513 O497 1.225 . S
C513 O519 1.298 . S
C514 O503 1.226 . S
C514 O504 1.307 . S
C515 O507 1.303 . S
C515 O508 1.247 . S
C516 O505 1.253 . S
C516 O506 1.283 . S
C517 O509 1.304 . S
C517 O511 1.272 . S
C518 O510 1.311 . S
C518 O512 1.231 . S
O519 Zn501 1.953 . S
O519 C513 1.298 . S
O520 Zn521 1.953 . S
O520 C536 1.225 . S
Zn521 O520 1.953 . S
Zn521 O522 1.949 1_556 S
Zn521 O528 1.919 . S
Zn521 O533 1.924 . S
O522 Zn521 1.949 1_554 S
O522 Zn523 1.923 . S
O522 Zn524 1.952 . S
O522 Zn525 1.945 . S
Zn523 O522 1.923 . S
Zn523 O526 1.933 . S
Zn523 O529 1.941 . S
Zn523 O530 1.965 . S
Zn524 O522 1.952 . S
Zn524 O531 1.940 . S
Zn524 O532 1.910 . S
Zn524 O542 1.946 1_554 S
Zn525 O522 1.945 . S
Zn525 O527 1.932 . S
Zn525 O534 1.977 . S
Zn525 O535 1.910 . S
O526 Zn523 1.933 . S
O526 C537 1.226 . S
O527 Zn525 1.932 . S
O527 C537 1.307 . S
O528 Zn521 1.919 . S
O528 C539 1.253 . S
O529 Zn523 1.941 . S
O529 C539 1.283 1_554 S
O530 Zn523 1.965 . S
O530 C538 1.303 . S
O531 Zn524 1.940 . S
O531 C538 1.247 . S
O532 Zn524 1.910 . S
O532 C540 1.304 . S
O533 Zn521 1.924 . S
O533 C541 1.311 . S
O534 Zn525 1.977 . S
O534 C540 1.272 . S
O535 Zn525 1.910 . S
O535 C541 1.231 1_554 S
C536 O520 1.225 . S
C536 O542 1.298 . S
C537 O526 1.226 . S
C537 O527 1.307 . S
C538 O530 1.303 . S
C538 O531 1.247 . S
C539 O528 1.253 . S
C539 O529 1.283 1_556 S
C540 O532 1.304 . S
C540 O534 1.272 . S
C541 O533 1.311 . S
C541 O535 1.231 1_556 S
O542 Zn524 1.946 1_556 S
O542 C536 1.298 . S
O543 Zn544 1.953 . S
O543 C559 1.225 . S
Zn544 O543 1.953 . S
Zn544 O545 1.949 . S
Zn544 O551 1.919 . S
Zn544 O556 1.924 . S
O545 Zn544 1.949 . S
O545 Zn546 1.923 . S
O545 Zn547 1.950 . S
O545 Zn548 1.945 . S
Zn546 O545 1.923 . S
Zn546 O549 1.933 . S
Zn546 O552 1.941 . S
Zn546 O553 1.965 . S
Zn547 O545 1.950 . S
Zn547 O554 1.938 . S
Zn547 O555 1.906 . S
Zn547 O565 1.953 . S
Zn548 O545 1.945 . S
Zn548 O550 1.932 . S
Zn548 O557 1.977 . S
Zn548 O558 1.910 . S
O549 Zn546 1.933 . S
O549 C560 1.226 . S
O550 Zn548 1.932 . S
O550 C560 1.307 . S
O551 Zn544 1.919 . S
O551 C562 1.253 . S
O552 Zn546 1.941 . S
O552 C562 1.283 . S
O553 Zn546 1.965 . S
O553 C561 1.303 . S
O554 Zn547 1.938 . S
O554 C561 1.247 . S
O555 Zn547 1.906 . S
O555 C563 1.304 . S
O556 Zn544 1.924 . S
O556 C564 1.311 . S
O557 Zn548 1.977 . S
O557 C563 1.272 . S
O558 Zn548 1.910 . S
O558 C564 1.231 . S
C559 O543 1.225 . S
C559 O565 1.298 . S
C560 O549 1.226 . S
C560 O550 1.307 . S
C561 O553 1.303 . S
C561 O554 1.247 . S
C562 O551 1.253 . S
C562 O552 1.283 . S
C563 O555 1.304 . S
C563 O557 1.272 . S
C564 O556 1.311 . S
C564 O558 1.231 . S
O565 Zn547 1.953 . S
O565 C559 1.298 . S
O566 Zn567 1.953 . S
O566 C582 1.225 . S
Zn567 O566 1.953 . S
Zn567 O568 1.949 . S
Zn567 O574 1.919 . S
Zn567 O579 1.924 . S
O568 Zn567 1.949 . S
O568 Zn569 1.923 . S
O568 Zn570 1.950 1_455 S
O568 Zn571 1.945 1_455 S
Zn569 O568 1.923 . S
Zn569 O572 1.933 1_455 S
Zn569 O575 1.941 . S
Zn569 O576 1.965 1_455 S
Zn570 O568 1.950 1_655 S
Zn570 O577 1.938 . S
Zn570 O578 1.906 . S
Zn570 O588 1.953 1_655 S
Zn571 O568 1.945 1_655 S
Zn571 O573 1.932 . S
Zn571 O580 1.977 . S
Zn571 O581 1.910 1_655 S
O572 Zn569 1.933 1_655 S
O572 C583 1.226 . S
O573 Zn571 1.932 . S
O573 C583 1.307 . S
O574 Zn567 1.919 . S
O574 C585 1.253 . S
O575 Zn569 1.941 . S
O575 C585 1.283 . S
O576 Zn569 1.965 1_655 S
O576 C584 1.303 . S
O577 Zn570 1.938 . S
O577 C584 1.247 . S
O578 Zn570 1.906 . S
O578 C586 1.304 . S
O579 Zn567 1.924 . S
O579 C587 1.311 . S
O580 Zn571 1.977 . S
O580 C586 1.272 . S
O581 Zn571 1.910 1_455 S
O581 C587 1.231 . S
C582 O566 1.225 . S
C582 O588 1.298 . S
C583 O572 1.226 . S
C583 O573 1.307 . S
C584 O576 1.303 . S
C584 O577 1.247 . S
C585 O574 1.253 . S
C585 O575 1.283 . S
C586 O578 1.304 . S
C586 O580 1.272 . S
C587 O579 1.311 . S
C587 O581 1.231 . S
O588 Zn570 1.953 1_455 S
O588 C582 1.298 . S
O589 Zn590 1.953 . S
O589 C605 1.225 . S
Zn590 O589 1.953 . S
Zn590 O591 1.949 . S
Zn590 O597 1.919 . S
Zn590 O602 1.924 . S
O591 Zn590 1.949 . S
O591 Zn592 1.923 . S
O591 Zn593 1.950 . S
O591 Zn594 1.945 . S
Zn592 O591 1.923 . S
Zn592 O595 1.933 . S
Zn592 O598 1.941 . S
Zn592 O599 1.965 . S
Zn593 O591 1.950 . S
Zn593 O600 1.938 . S
Zn593 O601 1.906 . S
Zn593 O611 1.953 . S
Zn594 O591 1.945 . S
Zn594 O596 1.932 . S
Zn594 O603 1.977 . S
Zn594 O604 1.910 . S
O595 Zn592 1.933 . S
O595 C606 1.226 . S
O596 Zn594 1.932 . S
O596 C606 1.307 . S
O597 Zn590 1.919 . S
O597 C608 1.253 . S
O598 Zn592 1.941 . S
O598 C608 1.283 . S
O599 Zn592 1.965 . S
O599 C607 1.303 . S
O600 Zn593 1.938 . S
O600 C607 1.247 . S
O601 Zn593 1.906 . S
O601 C609 1.304 . S
O602 Zn590 1.924 . S
O602 C610 1.311 . S
O603 Zn594 1.977 . S
O603 C609 1.272 . S
O604 Zn594 1.910 . S
O604 C610 1.231 . S
C605 O589 1.225 . S
C605 O611 1.298 . S
C606 O595 1.226 . S
C606 O596 1.307 . S
C607 O599 1.303 . S
C607 O600 1.247 . S
C608 O597 1.253 . S
C608 O598 1.283 . S
C609 O601 1.304 . S
C609 O603 1.272 . S
C610 O602 1.311 . S
C610 O604 1.231 . S
O611 Zn593 1.953 . S
O611 C605 1.298 . S
O612 Zn613 1.953 . S
O612 C628 1.225 . S
Zn613 O612 1.953 . S
Zn613 O614 1.949 . S
Zn613 O620 1.919 . S
Zn613 O625 1.924 . S
O614 Zn613 1.949 . S
O614 Zn615 1.923 . S
O614 Zn616 1.950 . S
O614 Zn617 1.945 . S
Zn615 O614 1.923 . S
Zn615 O618 1.933 . S
Zn615 O621 1.941 . S
Zn615 O622 1.965 . S
Zn616 O614 1.950 . S
Zn616 O623 1.938 . S
Zn616 O624 1.906 . S
Zn616 O634 1.953 . S
Zn617 O614 1.945 . S
Zn617 O619 1.932 . S
Zn617 O626 1.977 . S
Zn617 O627 1.910 . S
O618 Zn615 1.933 . S
O618 C629 1.226 . S
O619 Zn617 1.932 . S
O619 C629 1.307 . S
O620 Zn613 1.919 . S
O620 C631 1.253 . S
O621 Zn615 1.941 . S
O621 C631 1.283 . S
O622 Zn615 1.965 . S
O622 C630 1.303 . S
O623 Zn616 1.938 . S
O623 C630 1.247 . S
O624 Zn616 1.906 . S
O624 C632 1.304 . S
O625 Zn613 1.924 . S
O625 C633 1.311 . S
O626 Zn617 1.977 . S
O626 C632 1.272 . S
O627 Zn617 1.910 . S
O627 C633 1.231 . S
C628 O612 1.225 . S
C628 O634 1.298 . S
C629 O618 1.226 . S
C629 O619 1.307 . S
C630 O622 1.303 . S
C630 O623 1.247 . S
C631 O620 1.253 . S
C631 O621 1.283 . S
C632 O624 1.304 . S
C632 O626 1.272 . S
C633 O625 1.311 . S
C633 O627 1.231 . S
O634 Zn616 1.953 . S
O634 C628 1.298 . S
O635 Zn636 1.953 . S
O635 C651 1.225 . S
Zn636 O635 1.953 . S
Zn636 O637 1.949 . S
Zn636 O643 1.919 . S
Zn636 O648 1.924 . S
O637 Zn636 1.949 . S
O637 Zn638 1.923 . S
O637 Zn639 1.950 . S
O637 Zn640 1.945 . S
Zn638 O637 1.923 . S
Zn638 O641 1.933 . S
Zn638 O644 1.941 . S
Zn638 O645 1.965 . S
Zn639 O637 1.950 . S
Zn639 O646 1.938 . S
Zn639 O647 1.906 . S
Zn639 O657 1.953 . S
Zn640 O637 1.945 . S
Zn640 O642 1.932 . S
Zn640 O649 1.977 . S
Zn640 O650 1.910 . S
O641 Zn638 1.933 . S
O641 C652 1.226 . S
O642 Zn640 1.932 . S
O642 C652 1.307 . S
O643 Zn636 1.919 . S
O643 C654 1.253 . S
O644 Zn638 1.941 . S
O644 C654 1.283 . S
O645 Zn638 1.965 . S
O645 C653 1.303 . S
O646 Zn639 1.938 . S
O646 C653 1.247 . S
O647 Zn639 1.906 . S
O647 C655 1.304 . S
O648 Zn636 1.924 . S
O648 C656 1.311 . S
O649 Zn640 1.977 . S
O649 C655 1.272 . S
O650 Zn640 1.910 . S
O650 C656 1.231 . S
C651 O635 1.225 . S
C651 O657 1.298 . S
C652 O641 1.226 . S
C652 O642 1.307 . S
C653 O645 1.303 . S
C653 O646 1.247 . S
C654 O643 1.253 . S
C654 O644 1.283 . S
C655 O647 1.304 . S
C655 O649 1.272 . S
C656 O648 1.311 . S
C656 O650 1.231 . S
O657 Zn639 1.953 . S
O657 C651 1.298 . S
O658 Zn659 1.953 . S
O658 C674 1.225 . S
Zn659 O658 1.953 . S
Zn659 O660 1.949 . S
Zn659 O666 1.919 . S
Zn659 O671 1.924 . S
O660 Zn659 1.949 . S
O660 Zn661 1.923 . S
O660 Zn662 1.950 . S
O660 Zn663 1.945 . S
Zn661 O660 1.923 . S
Zn661 O664 1.933 . S
Zn661 O667 1.941 . S
Zn661 O668 1.965 . S
Zn662 O660 1.950 . S
Zn662 O669 1.938 . S
Zn662 O670 1.906 . S
Zn662 O680 1.953 . S
Zn663 O660 1.945 . S
Zn663 O665 1.932 . S
Zn663 O672 1.977 . S
Zn663 O673 1.910 . S
O664 Zn661 1.933 . S
O664 C675 1.226 . S
O665 Zn663 1.932 . S
O665 C675 1.307 . S
O666 Zn659 1.919 . S
O666 C677 1.253 . S
O667 Zn661 1.941 . S
O667 C677 1.283 . S
O668 Zn661 1.965 . S
O668 C676 1.303 . S
O669 Zn662 1.938 . S
O669 C676 1.247 . S
O670 Zn662 1.906 . S
O670 C678 1.304 . S
O671 Zn659 1.924 . S
O671 C679 1.311 . S
O672 Zn663 1.977 . S
O672 C678 1.272 . S
O673 Zn663 1.910 . S
O673 C679 1.231 . S
C674 O658 1.225 . S
C674 O680 1.298 . S
C675 O664 1.226 . S
C675 O665 1.307 . S
C676 O668 1.303 . S
C676 O669 1.247 . S
C677 O666 1.253 . S
C677 O667 1.283 . S
C678 O670 1.304 . S
C678 O672 1.272 . S
C679 O671 1.311 . S
C679 O673 1.231 . S
O680 Zn662 1.953 . S
O680 C674 1.298 . S
O681 Zn682 1.953 1_454 S
O681 C697 1.225 . S
Zn682 O681 1.953 1_656 S
Zn682 O683 1.949 1_656 S
Zn682 O689 1.919 . S
Zn682 O694 1.924 1_655 S
O683 Zn682 1.949 1_454 S
O683 Zn684 1.923 1_455 S
O683 Zn685 1.950 . S
O683 Zn686 1.945 1_554 S
Zn684 O683 1.923 1_655 S
Zn684 O687 1.933 . S
Zn684 O690 1.941 . S
Zn684 O691 1.965 . S
Zn685 O683 1.950 . S
Zn685 O692 1.938 . S
Zn685 O693 1.906 . S
Zn685 O703 1.953 . S
Zn686 O683 1.945 1_556 S
Zn686 O688 1.932 . S
Zn686 O695 1.977 . S
Zn686 O696 1.910 . S
O687 Zn684 1.933 . S
O687 C698 1.226 1_554 S
O688 Zn686 1.932 . S
O688 C698 1.307 1_455 S
O689 Zn682 1.919 . S
O689 C700 1.253 . S
O690 Zn684 1.941 . S
O690 C700 1.283 1_554 S
O691 Zn684 1.965 . S
O691 C699 1.303 . S
O692 Zn685 1.938 . S
O692 C699 1.247 1_455 S
O693 Zn685 1.906 . S
O693 C701 1.304 . S
O694 Zn682 1.924 1_455 S
O694 C702 1.311 . S
O695 Zn686 1.977 . S
O695 C701 1.272 1_556 S
O696 Zn686 1.910 . S
O696 C702 1.231 . S
C697 O681 1.225 . S
C697 O703 1.298 . S
C698 O687 1.226 1_556 S
C698 O688 1.307 1_655 S
C699 O691 1.303 . S
C699 O692 1.247 1_655 S
C700 O689 1.253 . S
C700 O690 1.283 1_556 S
C701 O693 1.304 . S
C701 O695 1.272 1_554 S
C702 O694 1.311 . S
C702 O696 1.231 . S
O703 Zn685 1.953 . S
O703 C697 1.298 . S
C352 C7 1.564 1_655 S
C22 C380 1.876 . S
C31 C398 1.471 . S
C424 C51 1.893 . S
C17 C447 1.836 1_455 S
C467 C36 1.452 . S
C495 C49 1.959 . S
C9 C513 1.520 . S
C63 C354 1.833 1_545 S
C73 C376 1.539 . S
C400 C91 1.842 1_545 S
C421 C101 1.529 . S
C59 C444 1.566 . S
C469 C77 1.820 . S
C491 C87 1.539 . S
C515 C105 1.824 . S
C355 C107 1.512 1_556 S
C538 C120 1.496 . S
C135 C562 1.591 . S
C586 C148 1.316 . S
C65 C516 1.558 . S
C401 C79 1.558 . S
C134 C607 1.477 . S
C632 C162 1.309 . S
C171 C353 1.512 . S
C630 C190 1.422 . S
C203 C399 1.295 . S
C219 C609 1.311 . S
C448 C189 1.125 . S
C560 C204 1.441 . S
C492 C213 1.491 . S
C652 C177 1.611 . S
C357 C227 1.483 . S
C245 C628 1.509 . S
C403 C255 1.498 1_565 S
C273 C606 1.508 . S
C231 C445 1.523 1_545 S
C241 C564 1.494 . S
C490 C259 1.501 . S
C269 C656 1.476 . S
C275 C356 1.681 . S
C288 C541 1.655 1_554 S
C303 C471 1.676 . S
C316 C585 1.464 . S
C655 C233 1.656 . S
C402 C247 1.693 . S
C426 C302 1.646 . S
C378 C330 1.448 . S
C35 C674 1.564 . S
C633 C50 1.876 . S
C697 C3 1.471 . S
C23 C608 1.893 . S
C45 C539 1.837 . S
C559 C8 1.452 . S
C587 C21 1.959 1_455 S
C651 C37 1.520 . S
C676 C161 1.833 . S
C115 C629 1.539 . S
C133 C699 1.842 . S
C605 C143 1.529 . S
C536 C157 1.566 . S
C119 C561 1.820 . S
C583 C129 1.539 . S
C147 C653 1.824 . S
C677 C149 1.512 . S
C446 C78 1.496 . S
C470 C93 1.591 . S
C106 C494 1.316 . S
C654 C163 1.558 . S
C121 C700 1.559 1_554 S
C423 C92 1.477 . S
C379 C64 1.309 . S
C199 C675 1.513 . S
C377 C218 1.422 . S
C698 C175 1.295 . S
C191 C425 1.311 . S
C217 C540 1.125 . S
C176 C468 1.441 . S
C185 C584 1.491 1_455 S
C205 C514 1.610 . S
C679 C325 1.483 . S
C287 C375 1.509 . S
C702 C297 1.498 . S
C315 C422 1.508 . S
C329 C537 1.523 . S
C472 C283 1.494 . S
C301 C582 1.501 . S
C518 C311 1.476 . S
C678 C317 1.668 . S
C449 C246 1.665 . S
C261 C563 1.676 . S
C493 C274 1.464 1_556 S
C517 C331 1.656 . S
C289 C701 1.687 1_556 S
C610 C260 1.646 . S
C631 C232 1.448 . S
