# Generated by pormake.
# Topology zzz, (3,6)-cn, num edge types: 1
# Building blocks:
#     Node 0, Type 0, BuildingBlock: OLANEW_clean_sbu_2, # of connection points: 3
#     Node 1, Type 0, BuildingBlock: OLANEW_clean_sbu_2, # of connection points: 3
#     Node 2, Type 0, BuildingBlock: OLANEW_clean_sbu_2, # of connection points: 3
#     Node 3, Type 0, BuildingBlock: OLANEW_clean_sbu_2, # of connection points: 3
#     Node 4, Type 0, BuildingBlock: OLANEW_clean_sbu_2, # of connection points: 3
#     Node 5, Type 0, BuildingBlock: OLANEW_clean_sbu_2, # of connection points: 3
#     Node 6, Type 0, BuildingBlock: OLANEW_clean_sbu_2, # of connection points: 3
#     Node 7, Type 0, BuildingBlock: OLANEW_clean_sbu_2, # of connection points: 3
#     Node 8, Type 1, BuildingBlock: FUNLAD_clean_sbu_0, # of connection points: 6
#     Node 9, Type 1, BuildingBlock: FUNLAD_clean_sbu_0, # of connection points: 6
#     Node 10, Type 1, BuildingBlock: FUNLAD_clean_sbu_0, # of connection points: 6
#     Node 11, Type 1, BuildingBlock: FUNLAD_clean_sbu_0, # of connection points: 6
#     Edge 12, Type (0, 1), BuildingBlock: UVAHIK_clean_linker_0, # of connection points: 2
#     Edge 13, Type (0, 1), BuildingBlock: UVAHIK_clean_linker_0, # of connection points: 2
#     Edge 14, Type (0, 1), BuildingBlock: UVAHIK_clean_linker_0, # of connection points: 2
#     Edge 15, Type (0, 1), BuildingBlock: UVAHIK_clean_linker_0, # of connection points: 2
#     Edge 16, Type (0, 1), BuildingBlock: UVAHIK_clean_linker_0, # of connection points: 2
#     Edge 17, Type (0, 1), BuildingBlock: UVAHIK_clean_linker_0, # of connection points: 2
#     Edge 18, Type (0, 1), BuildingBlock: UVAHIK_clean_linker_0, # of connection points: 2
#     Edge 19, Type (0, 1), BuildingBlock: UVAHIK_clean_linker_0, # of connection points: 2
#     Edge 20, Type (0, 1), BuildingBlock: UVAHIK_clean_linker_0, # of connection points: 2
#     Edge 21, Type (0, 1), BuildingBlock: UVAHIK_clean_linker_0, # of connection points: 2
#     Edge 22, Type (0, 1), BuildingBlock: UVAHIK_clean_linker_0, # of connection points: 2
#     Edge 23, Type (0, 1), BuildingBlock: UVAHIK_clean_linker_0, # of connection points: 2
#     Edge 24, Type (0, 1), BuildingBlock: UVAHIK_clean_linker_0, # of connection points: 2
#     Edge 25, Type (0, 1), BuildingBlock: UVAHIK_clean_linker_0, # of connection points: 2
#     Edge 26, Type (0, 1), BuildingBlock: UVAHIK_clean_linker_0, # of connection points: 2
#     Edge 27, Type (0, 1), BuildingBlock: UVAHIK_clean_linker_0, # of connection points: 2
#     Edge 28, Type (0, 1), BuildingBlock: UVAHIK_clean_linker_0, # of connection points: 2
#     Edge 29, Type (0, 1), BuildingBlock: UVAHIK_clean_linker_0, # of connection points: 2
#     Edge 30, Type (0, 1), BuildingBlock: UVAHIK_clean_linker_0, # of connection points: 2
#     Edge 31, Type (0, 1), BuildingBlock: UVAHIK_clean_linker_0, # of connection points: 2
#     Edge 32, Type (0, 1), BuildingBlock: UVAHIK_clean_linker_0, # of connection points: 2
#     Edge 33, Type (0, 1), BuildingBlock: UVAHIK_clean_linker_0, # of connection points: 2
#     Edge 34, Type (0, 1), BuildingBlock: UVAHIK_clean_linker_0, # of connection points: 2
#     Edge 35, Type (0, 1), BuildingBlock: UVAHIK_clean_linker_0, # of connection points: 2
# Relax obj value: 0.119
# Max RMSD: 0.174
# Mean RMSD: 0.093
data_MOF--net-zzz--node1-OLANEW_clean_sbu_2--node2-FUNLAD_clean_sbu_0--edge1-UVAHIK_clean_linker_0
_symmetry_space_group_name_H-M    P1
_symmetry_Int_Tables_number       1
_symmetry_cell_setting            triclinic
loop_
_symmetry_equiv_pos_as_xyz
'x, y, z'
_cell_length_a     68.575821
_cell_length_b     73.646516
_cell_length_c     24.173043
_cell_angle_alpha  86.60984
_cell_angle_beta   86.712744
_cell_angle_gamma 90.493684
loop_
_atom_site_label
_atom_site_type_symbol
_atom_site_fract_x
_atom_site_fract_y
_atom_site_fract_z
_atom_type_partial_charge
O0 O 0.81605 0.40956 0.01925 0.0
Cd1 Cd 0.78458 0.40418 0.07021 0.0
O2 O 0.82711 0.41971 0.09498 0.0
Cd3 Cd 0.84819 0.43351 0.14336 0.0
O4 O 0.87095 0.44467 0.19159 0.0
C5 C 0.86999 0.46075 0.20781 0.0
O6 O 0.85502 0.47086 0.19497 0.0
C7 C 0.82993 0.41642 0.04407 0.0
C8 C 0.75374 0.41151 0.00234 0.0
O9 O 0.75946 0.39516 0.01196 0.0
O10 O 0.76255 0.42433 0.02487 0.0
O11 O 0.89305 0.80586 0.86264 0.0
Cd12 Cd 0.87316 0.77906 0.8929 0.0
O13 O 0.90143 0.80793 0.94833 0.0
Cd14 Cd 0.91541 0.82297 0.01077 0.0
O15 O 0.92845 0.84233 0.0631 0.0
C16 C 0.93066 0.85888 0.04557 0.0
O17 O 0.92507 0.86396 0.99597 0.0
C18 C 0.90266 0.81382 0.89773 0.0
C19 C 0.89249 0.74719 0.86749 0.0
O20 O 0.88117 0.75503 0.83331 0.0
O21 O 0.89458 0.7544 0.91381 0.0
O22 O 0.74166 0.04068 0.9858 0.0
Cd23 Cd 0.77195 0.03979 0.03393 0.0
O24 O 0.72621 0.0448 0.06581 0.0
Cd25 Cd 0.69965 0.04467 0.12003 0.0
O26 O 0.67376 0.03915 0.17508 0.0
C27 C 0.66849 0.02268 0.18577 0.0
O28 O 0.67864 0.00977 0.16276 0.0
C29 C 0.72574 0.04267 0.01411 0.0
C30 C 0.80454 0.03876 0.96023 0.0
O31 O 0.79481 0.02424 0.97581 0.0
O32 O 0.79887 0.0538 0.9795 0.0
O33 O 0.62488 0.68093 0.93199 0.0
Cd34 Cd 0.64435 0.70721 0.9536 0.0
O35 O 0.61164 0.67949 0.01698 0.0
Cd36 Cd 0.59426 0.66499 0.0845 0.0
O37 O 0.58136 0.64613 0.14975 0.0
C38 C 0.59119 0.63234 0.16495 0.0
O39 O 0.60858 0.63003 0.14084 0.0
C40 C 0.61308 0.67334 0.96889 0.0
C41 C 0.62604 0.73973 0.92449 0.0
O42 O 0.63779 0.73222 0.88983 0.0
O43 O 0.62298 0.73186 0.97297 0.0
O44 O 0.23351 0.63295 0.33719 0.0
Cd45 Cd 0.22847 0.64112 0.43354 0.0
O46 O 0.228 0.61679 0.26634 0.0
Cd47 Cd 0.21125 0.59713 0.22334 0.0
O48 O 0.19299 0.57941 0.17821 0.0
C49 C 0.17457 0.58133 0.18209 0.0
O50 O 0.16714 0.59368 0.21399 0.0
C51 C 0.22353 0.62084 0.31585 0.0
C52 C 0.25854 0.62636 0.49396 0.0
O53 O 0.26047 0.64196 0.4677 0.0
O54 O 0.24217 0.61789 0.49277 0.0
O55 O 0.13824 0.21597 0.42554 0.0
Cd56 Cd 0.15937 0.24242 0.40073 0.0
O57 O 0.1497 0.20301 0.35109 0.0
Cd58 Cd 0.14873 0.18113 0.29387 0.0
O59 O 0.14096 0.15809 0.24643 0.0
C60 C 0.12329 0.15259 0.24997 0.0
O61 O 0.11053 0.16092 0.28194 0.0
C62 C 0.13851 0.20251 0.39499 0.0
C63 C 0.14392 0.27412 0.44236 0.0
O64 O 0.13974 0.2691 0.39452 0.0
O65 O 0.15542 0.26412 0.47062 0.0
O66 O 0.29957 0.88702 0.48689 0.0
Cd67 Cd 0.27017 0.87568 0.44807 0.0
O68 O 0.30154 0.90767 0.4176 0.0
Cd69 Cd 0.31727 0.92902 0.36596 0.0
O70 O 0.33911 0.94396 0.31164 0.0
C71 C 0.35689 0.9398 0.3167 0.0
O72 O 0.36116 0.92737 0.35525 0.0
C73 C 0.30825 0.90073 0.46196 0.0
C74 C 0.23855 0.89685 0.47998 0.0
O75 O 0.24249 0.88218 0.50812 0.0
O76 O 0.24943 0.90137 0.43637 0.0
O77 O 0.39878 0.29261 0.48884 0.0
Cd78 Cd 0.38172 0.26461 0.46986 0.0
O79 O 0.39049 0.30505 0.40899 0.0
Cd80 Cd 0.39232 0.32685 0.34331 0.0
O81 O 0.39962 0.34846 0.2796 0.0
C82 C 0.41755 0.35263 0.2696 0.0
O83 O 0.43069 0.34392 0.29814 0.0
C84 C 0.39903 0.30623 0.45401 0.0
C85 C 0.40055 0.23366 0.51102 0.0
O86 O 0.40474 0.24051 0.46174 0.0
O87 O 0.38748 0.24149 0.54093 0.0
C88 C 0.01495 0.97262 0.70032 0.0
N89 N 0.01379 0.99226 0.53474 0.0
C90 C 0.02063 0.97568 0.52151 0.0
C91 C 0.01542 0.96805 0.47305 0.0
C92 C 0.00288 0.97745 0.43783 0.0
C93 C 0.99599 0.99455 0.45229 0.0
C94 C 0.00176 0.0018 0.50114 0.0
Zn95 Zn 0.02176 0.00174 0.60813 0.0
C96 C 0.98925 0.01828 0.67174 0.0
N97 N 0.03946 0.01911 0.76326 0.0
C98 C 0.05134 0.00909 0.79612 0.0
C99 C 0.03356 0.03596 0.77669 0.0
C100 C 0.03979 0.04347 0.82435 0.0
C101 C 0.0524 0.03365 0.85838 0.0
C102 C 0.0581 0.01619 0.844 0.0
Zn103 Zn 0.03112 0.00976 0.69003 0.0
O104 O 0.01395 0.97624 0.64852 0.0
C105 C 0.06349 0.99276 0.62653 0.0
O106 O 0.02168 0.98454 0.7303 0.0
H107 H 0.02431 0.0438 0.74974 0.0
H108 H 0.02996 0.96818 0.54902 0.0
H109 H 0.05584 0.99572 0.78471 0.0
O110 O 0.05041 0.99261 0.59147 0.0
O111 O 0.05952 -0.0008 0.67345 0.0
H112 H 0.99649 0.01495 0.51249 0.0
O113 O 0.04018 0.0348 0.64882 0.0
O114 O 0.02975 0.02749 0.56881 0.0
O115 O 0.00268 0.02002 0.70523 0.0
O116 O 0.99304 0.01081 0.62635 0.0
C117 C 0.03778 0.03896 0.5979 0.0
H118 H 0.02076 0.95468 0.46402 0.0
H119 H 0.98632 0.00222 0.42609 0.0
H120 H 0.03529 0.05709 0.83347 0.0
H121 H 0.06773 0.00815 0.86938 0.0
C122 C 0.47727 0.97394 0.70112 0.0
N123 N 0.49448 0.02769 0.72434 0.0
C124 C 0.48853 0.03186 0.67243 0.0
C125 C 0.48225 0.04933 0.65768 0.0
C126 C 0.48202 0.06272 0.69667 0.0
C127 C 0.48799 0.05802 0.75025 0.0
C128 C 0.49427 0.04033 0.76323 0.0
Zn129 Zn 0.50423 0.0019 0.7413 0.0
C130 C 0.48937 0.98575 0.8503 0.0
N131 N 0.52479 0.94785 0.7705 0.0
C132 C 0.52426 0.93556 0.73073 0.0
C133 C 0.53198 0.94337 0.82073 0.0
C134 C 0.53911 0.92596 0.83246 0.0
C135 C 0.53886 0.91301 0.79211 0.0
C136 C 0.53127 0.91799 0.74069 0.0
Zn137 Zn 0.51489 0.97362 0.75474 0.0
O138 O 0.47973 0.99101 0.70348 0.0
C139 C 0.52985 0.98973 0.64591 0.0
O140 O 0.48985 0.96319 0.72083 0.0
H141 H 0.53233 0.95337 0.85169 0.0
H142 H 0.48872 0.02161 0.64218 0.0
H143 H 0.51843 0.9394 0.69114 0.0
O144 O 0.52056 0.00324 0.66385 0.0
O145 O 0.52975 0.9749 0.67557 0.0
H146 H 0.49911 0.03672 0.80421 0.0
O147 O 0.53991 0.98437 0.78781 0.0
O148 O 0.52901 0.01228 0.77935 0.0
O149 O 0.4999 0.97275 0.83397 0.0
O150 O 0.48809 0.00011 0.81893 0.0
C151 C 0.5422 0.00124 0.79395 0.0
H152 H 0.47746 0.05227 0.61621 0.0
H153 H 0.48814 0.06798 0.78145 0.0
H154 H 0.54507 0.92279 0.87237 0.0
H155 H 0.5306 0.90837 0.70864 0.0
C156 C 0.48839 0.46468 0.65171 0.0
N157 N 0.46044 0.51228 0.69975 0.0
C158 C 0.45445 0.51425 0.64709 0.0
C159 C 0.43703 0.52302 0.63632 0.0
C160 C 0.42536 0.52966 0.6802 0.0
C161 C 0.43184 0.52733 0.73433 0.0
C162 C 0.44954 0.51862 0.74318 0.0
Zn163 Zn 0.48642 0.49956 0.71114 0.0
C164 C 0.48501 0.47359 0.80854 0.0
N165 N 0.54105 0.47284 0.72803 0.0
C166 C 0.55297 0.46819 0.68422 0.0
C167 C 0.54653 0.47012 0.78112 0.0
C168 C 0.56449 0.4624 0.79182 0.0
C169 C 0.5772 0.45785 0.74749 0.0
C170 C 0.57136 0.46081 0.69306 0.0
Zn171 Zn 0.51485 0.48531 0.71647 0.0
O172 O 0.47758 0.47813 0.66237 0.0
C173 C 0.51609 0.51149 0.61925 0.0
O174 O 0.50545 0.46397 0.66966 0.0
H175 H 0.53712 0.47426 0.81539 0.0
H176 H 0.46327 0.5091 0.6131 0.0
H177 H 0.54838 0.47046 0.64235 0.0
O178 O 0.49887 0.51406 0.6393 0.0
O179 O 0.52666 0.49967 0.64309 0.0
H180 H 0.45457 0.51689 0.78474 0.0
O181 O 0.52396 0.5068 0.76296 0.0
O182 O 0.49586 0.52075 0.76005 0.0
O183 O 0.50243 0.47126 0.78964 0.0
O184 O 0.47432 0.48496 0.78327 0.0
C185 C 0.51327 0.52011 0.77556 0.0
H186 H 0.43295 0.52479 0.59375 0.0
H187 H 0.42327 0.53202 0.76958 0.0
H188 H 0.5687 0.46055 0.8343 0.0
H189 H 0.58091 0.45748 0.65794 0.0
C190 C 0.06024 0.53111 0.62222 0.0
N191 N 0.05081 0.47537 0.66182 0.0
C192 C 0.05675 0.47306 0.60806 0.0
C193 C 0.0646 0.45659 0.59268 0.0
C194 C 0.06632 0.44222 0.6329 0.0
C195 C 0.06042 0.44506 0.68835 0.0
C196 C 0.05264 0.46184 0.70196 0.0
Zn197 Zn 0.03808 0.49951 0.67963 0.0
C198 C 0.05285 0.51552 0.77854 0.0
N199 N 0.01099 0.55016 0.71105 0.0
C200 C 0.00896 0.56315 0.66945 0.0
C201 C 0.0044 0.55283 0.76408 0.0
C202 C 0.99531 0.56905 0.77694 0.0
C203 C 0.99296 0.58271 0.73485 0.0
C204 C -4e-05 0.5796 0.68048 0.0
Zn205 Zn 0.02393 0.52605 0.69418 0.0
O206 O 0.06021 0.51387 0.62943 0.0
C207 C 0.00888 0.51003 0.59572 0.0
O208 O 0.04652 0.54003 0.64501 0.0
H209 H 0.00611 0.5423 0.79653 0.0
H210 H 0.0552 0.48398 0.57675 0.0
H211 H 0.01434 0.56076 0.6276 0.0
O212 O 0.02078 0.49772 0.61007 0.0
O213 O 0.00724 0.52407 0.62366 0.0
H214 H 0.04778 0.46395 0.74443 0.0
O215 O 0.00166 0.51176 0.74306 0.0
O216 O 0.01565 0.48555 0.73009 0.0
O217 O 0.04064 0.52759 0.76451 0.0
O218 O 0.05516 0.50172 0.74971 0.0
C219 C 0.00173 0.49457 0.75159 0.0
H220 H 0.06927 0.45513 0.54963 0.0
H221 H 0.06136 0.43432 0.72062 0.0
H222 H 0.9899 0.57074 0.81927 0.0
H223 H -0.00132 0.58983 0.64687 0.0
C224 C 0.20833 0.90193 0.53992 0.0
C225 C 0.22194 0.90828 0.49738 0.0
C226 C 0.19247 0.91262 0.55576 0.0
C227 C 0.16297 0.95111 0.50393 0.0
H228 H 0.14251 0.94985 0.65703 0.0
C229 C 0.08609 0.97613 0.56325 0.0
C230 C 0.08286 0.98501 0.61277 0.0
C231 C 0.10407 0.96826 0.55034 0.0
C232 C 0.14818 0.95057 0.61421 0.0
H233 H 0.2299 0.931 0.43903 0.0
H234 H 0.2025 0.94982 0.46748 0.0
H235 H 0.17242 0.9337 0.63341 0.0
H236 H 0.0961 0.99282 0.68732 0.0
H237 H 0.12776 0.97931 0.66421 0.0
H238 H 0.139 0.96825 0.48482 0.0
C239 C 0.20379 0.93641 0.48779 0.0
C240 C 0.16519 0.94109 0.60052 0.0
C241 C 0.21955 0.92566 0.47161 0.0
C242 C 0.09812 0.98602 0.64891 0.0
C243 C 0.11622 0.9782 0.6358 0.0
C244 C 0.14607 0.96068 0.51765 0.0
C245 C 0.18996 0.92997 0.52976 0.0
C246 C 0.17263 0.94101 0.54507 0.0
C247 C 0.11936 0.96917 0.58641 0.0
C248 C 0.13827 0.96027 0.57279 0.0
H249 H 0.20975 0.88858 0.56048 0.0
H250 H 0.18195 0.90708 0.58758 0.0
H251 H 0.16815 0.95125 0.46074 0.0
H252 H 0.07461 0.97498 0.53462 0.0
H253 H 0.10581 0.96111 0.51252 0.0
C254 C 0.40542 0.20943 0.58618 0.0
C255 C 0.4103 0.21703 0.53239 0.0
C256 C 0.41421 0.19341 0.60565 0.0
C257 C 0.43922 0.15295 0.55547 0.0
H258 H 0.45512 0.14642 0.70669 0.0
C259 C 0.48138 0.08977 0.62885 0.0
C260 C 0.47553 0.08142 0.68103 0.0
C261 C 0.4744 0.10688 0.61241 0.0
C262 C 0.45059 0.14798 0.66451 0.0
H263 H 0.42854 0.21394 0.45727 0.0
H264 H 0.44396 0.18611 0.49137 0.0
H265 H 0.4411 0.17529 0.67467 0.0
H266 H 0.45807 0.08469 0.75736 0.0
H267 H 0.44577 0.1146 0.72851 0.0
H268 H 0.44851 0.12567 0.54526 0.0
C269 C 0.43314 0.19239 0.51824 0.0
C270 C 0.44256 0.16452 0.64616 0.0
C271 C 0.42437 0.2084 0.49881 0.0
C272 C 0.46297 0.09082 0.71707 0.0
C273 C 0.45593 0.10796 0.70054 0.0
C274 C 0.44721 0.13645 0.57378 0.0
C275 C 0.42805 0.18463 0.57172 0.0
C276 C 0.4368 0.16718 0.59139 0.0
C277 C 0.46136 0.11607 0.64768 0.0
C278 C 0.45302 0.13376 0.62848 0.0
H279 H 0.39463 0.21574 0.61311 0.0
H280 H 0.40982 0.18769 0.64683 0.0
H281 H 0.43459 0.15442 0.51336 0.0
H282 H 0.49136 0.08304 0.60058 0.0
H283 H 0.47921 0.11291 0.57191 0.0
C284 C 0.29411 0.625 0.51122 0.0
C285 C 0.27508 0.61796 0.52223 0.0
C286 C 0.31002 0.61614 0.53369 0.0
C287 C 0.33945 0.58565 0.54984 0.0
H288 H 0.34172 0.56981 0.70531 0.0
C289 C 0.3952 0.53362 0.62656 0.0
C290 C 0.40678 0.53915 0.66891 0.0
C291 C 0.37864 0.54335 0.61259 0.0
C292 C 0.34124 0.57421 0.66185 0.0
H293 H 0.2577 0.59659 0.56741 0.0
H294 H 0.2856 0.58128 0.60755 0.0
H295 H 0.31365 0.5874 0.67425 0.0
H296 H 0.40944 0.55903 0.73105 0.0
H297 H 0.38005 0.57566 0.70757 0.0
H298 H 0.36675 0.5722 0.53703 0.0
C299 C 0.28813 0.59358 0.58121 0.0
C300 C 0.32521 0.58417 0.64411 0.0
C301 C 0.27221 0.60229 0.55803 0.0
C302 C 0.40082 0.55423 0.6986 0.0
C303 C 0.38404 0.56382 0.68509 0.0
C304 C 0.35525 0.57546 0.56735 0.0
C305 C 0.3072 0.60023 0.56829 0.0
C306 C 0.32422 0.59 0.58793 0.0
C307 C 0.37305 0.55867 0.64122 0.0
C308 C 0.35629 0.56962 0.62345 0.0
H309 H 0.29681 0.63704 0.48381 0.0
H310 H 0.32459 0.62159 0.52345 0.0
H311 H 0.33895 0.58985 0.50623 0.0
H312 H 0.39897 0.5218 0.60378 0.0
H313 H 0.37022 0.53895 0.57914 0.0
C314 C 0.12283 0.3016 0.4332 0.0
C315 C 0.13581 0.29103 0.46407 0.0
C316 C 0.11536 0.3177 0.45318 0.0
C317 C 0.10715 0.34235 0.58133 0.0
H318 H 0.10291 0.38412 0.47747 0.0
C319 C 0.08685 0.41444 0.64943 0.0
C320 C 0.07392 0.42436 0.61646 0.0
C321 C 0.09443 0.39793 0.63254 0.0
C322 C 0.10381 0.37253 0.50692 0.0
H323 H 0.15104 0.28905 0.54038 0.0
H324 H 0.13817 0.31728 0.57497 0.0
H325 H 0.11613 0.35586 0.44476 0.0
H326 H 0.05818 0.42429 0.54112 0.0
H327 H 0.07142 0.39564 0.5117 0.0
H328 H 0.09485 0.35914 0.64353 0.0
C329 C 0.13358 0.31299 0.53559 0.0
C330 C 0.11138 0.35631 0.48815 0.0
C331 C 0.14104 0.29686 0.51561 0.0
C332 C 0.06845 0.41721 0.56688 0.0
C333 C 0.07603 0.40078 0.55001 0.0
C334 C 0.0996 0.35861 0.60015 0.0
C335 C 0.12072 0.32365 0.50448 0.0
C336 C 0.11302 0.34098 0.52501 0.0
C337 C 0.08924 0.39102 0.58233 0.0
C338 C 0.09772 0.37384 0.56304 0.0
H339 H 0.11841 0.29745 0.39348 0.0
H340 H 0.10524 0.32542 0.42857 0.0
H341 H 0.10802 0.33073 0.61069 0.0
H342 H 0.09148 0.41964 0.68761 0.0
H343 H 0.1047 0.39081 0.65813 0.0
C344 C 0.82467 0.02351 0.88743 0.0
C345 C 0.82201 0.03809 0.92182 0.0
C346 C 0.84145 0.02263 0.85211 0.0
C347 C 0.88477 0.05018 0.79316 0.0
H348 H 0.90685 0.00254 0.77335 0.0
C349 C 0.96563 0.03581 0.72962 0.0
C350 C 0.9691 0.02349 0.68805 0.0
C351 C 0.94659 0.03911 0.74989 0.0
C352 C 0.9007 0.01591 0.77797 0.0
H353 H 0.83473 0.0632 0.94638 0.0
H354 H 0.86442 0.06126 0.88706 0.0
H355 H 0.87581 0.00504 0.82614 0.0
H356 H 0.95539 0.00537 0.63389 0.0
H357 H 0.92207 0.0108 0.67063 0.0
H358 H 0.91049 0.06094 0.7475 0.0
C359 C 0.85332 0.05079 0.88555 0.0
C360 C 0.88284 0.01738 0.80803 0.0
C361 C 0.83635 0.05185 0.92 0.0
C362 C 0.95314 0.01499 0.66578 0.0
C363 C 0.93412 0.01802 0.68689 0.0
C364 C 0.90283 0.04869 0.76402 0.0
C365 C 0.85616 0.03612 0.85125 0.0
C366 C 0.87468 0.03455 0.81647 0.0
C367 C 0.93074 0.02989 0.72969 0.0
C368 C 0.91098 0.03155 0.7565 0.0
H369 H 0.81373 0.01281 0.88757 0.0
H370 H 0.84283 0.01134 0.82551 0.0
H371 H 0.8788 0.06361 0.79762 0.0
H372 H 0.97767 0.04257 0.74743 0.0
H373 H 0.94433 0.04824 0.78316 0.0
C374 C 0.61971 0.7655 0.85568 0.0
C375 C 0.61636 0.75704 0.90907 0.0
C376 C 0.61073 0.78194 0.84132 0.0
C377 C 0.56939 0.81115 0.8823 0.0
H378 H 0.59989 0.84908 0.79835 0.0
C379 C 0.54307 0.88525 0.85558 0.0
C380 C 0.54674 0.89452 0.80344 0.0
C381 C 0.55096 0.86809 0.8668 0.0
C382 C 0.59109 0.83855 0.82118 0.0
H383 H 0.60087 0.75916 0.98919 0.0
H384 H 0.58537 0.78793 0.96431 0.0
H385 H 0.61482 0.81988 0.82107 0.0
H386 H 0.56152 0.89296 0.72212 0.0
H387 H 0.57503 0.86287 0.74143 0.0
H388 H 0.5457 0.8299 0.88273 0.0
C389 C 0.59475 0.78175 0.9333 0.0
C390 C 0.59965 0.82181 0.83421 0.0
C391 C 0.60373 0.76531 0.94767 0.0
C392 C 0.55828 0.88613 0.76255 0.0
C393 C 0.5662 0.86897 0.77381 0.0
C394 C 0.56083 0.8279 0.86929 0.0
C395 C 0.59819 0.79028 0.88001 0.0
C396 C 0.58893 0.80793 0.86512 0.0
C397 C 0.56271 0.8598 0.82616 0.0
C398 C 0.57161 0.84182 0.83877 0.0
H399 H 0.6293 0.75944 0.82489 0.0
H400 H 0.61349 0.78804 0.79969 0.0
H401 H 0.56064 0.80065 0.90541 0.0
H402 H 0.53406 0.89126 0.88777 0.0
H403 H 0.54813 0.86146 0.90771 0.0
C404 C 0.73545 0.43285 0.94058 0.0
C405 C 0.7373 0.41549 0.96683 0.0
C406 C 0.71965 0.43679 0.90807 0.0
C407 C 0.67792 0.41496 0.8418 0.0
H408 H 0.6566 0.46349 0.84596 0.0
C409 C 0.5988 0.43545 0.79462 0.0
C410 C 0.5968 0.45094 0.75877 0.0
C411 C 0.61722 0.43022 0.81112 0.0
C412 C 0.66256 0.44995 0.84389 0.0
H413 H 0.72415 0.38862 0.97973 0.0
H414 H 0.69604 0.39569 0.92568 0.0
H415 H 0.68607 0.4563 0.89369 0.0
H416 H 0.61227 0.47292 0.71107 0.0
H417 H 0.64459 0.46405 0.74138 0.0
H418 H 0.65343 0.40851 0.79471 0.0
C419 C 0.70708 0.40615 0.9282 0.0
C420 C 0.67954 0.4458 0.87102 0.0
C421 C 0.72314 0.4021 0.95966 0.0
C422 C 0.61354 0.46083 0.73837 0.0
C423 C 0.63193 0.45583 0.75585 0.0
C424 C 0.66068 0.41904 0.81567 0.0
C425 C 0.70504 0.4236 0.90212 0.0
C426 C 0.68743 0.42821 0.87071 0.0
C427 C 0.63386 0.44064 0.79301 0.0
C428 C 0.65284 0.43655 0.81674 0.0
H429 H 0.7463 0.44337 0.94485 0.0
H430 H 0.71894 0.45024 0.88766 0.0
H431 H 0.68371 0.40138 0.83945 0.0
H432 H 0.58604 0.42768 0.81094 0.0
H433 H 0.61836 0.41854 0.84014 0.0
C434 C 0.91582 0.72225 0.89068 0.0
C435 C 0.90291 0.73037 0.85377 0.0
C436 C 0.92574 0.70642 0.87758 0.0
C437 C 0.9412 0.67931 0.75909 0.0
H438 H 0.94708 0.64094 0.87365 0.0
C439 C 0.97004 0.60808 0.71107 0.0
C440 C 0.98313 0.60001 0.74763 0.0
C441 C 0.96051 0.62415 0.72366 0.0
C442 C 0.94575 0.65161 0.84133 0.0
H443 H 0.89021 0.72819 0.77423 0.0
H444 H 0.90731 0.70047 0.75173 0.0
H445 H 0.92984 0.66858 0.89642 0.0
H446 H 0.99679 0.60278 0.8255 0.0
H447 H 0.9801 0.63077 0.84751 0.0
H448 H 0.95704 0.66227 0.70396 0.0
C449 C 0.91 0.70647 0.79045 0.0
C450 C 0.93588 0.66746 0.85438 0.0
C451 C 0.9001 0.72231 0.80351 0.0
C452 C 0.98655 0.60847 0.79688 0.0
C453 C 0.977 0.62451 0.8095 0.0
C454 C 0.95105 0.66344 0.74602 0.0
C455 C 0.92295 0.69834 0.82731 0.0
C456 C 0.93348 0.6815 0.81342 0.0
C457 C 0.96382 0.63251 0.77313 0.0
C458 C 0.95344 0.64941 0.787 0.0
H459 H 0.91837 0.72815 0.92965 0.0
H460 H 0.9358 0.70066 0.90658 0.0
H461 H 0.93989 0.68997 0.72675 0.0
H462 H 0.96684 0.60178 0.6732 0.0
H463 H 0.95024 0.62983 0.69514 0.0
C464 C 0.13265 0.16892 0.40286 0.0
C465 C 0.12576 0.18654 0.41022 0.0
C466 C 0.12073 0.15377 0.41806 0.0
C467 C 0.0897 0.12407 0.42935 0.0
H468 H 0.05984 0.12378 0.57052 0.0
C469 C 0.04312 0.06166 0.51642 0.0
C470 C 0.04485 0.05684 0.57305 0.0
C471 C 0.05066 0.07831 0.49313 0.0
C472 C 0.06812 0.12362 0.53103 0.0
H473 H 0.10117 0.20225 0.43982 0.0
H474 H 0.08016 0.17576 0.46602 0.0
H475 H 0.07783 0.15111 0.53575 0.0
H476 H 0.0556 0.06584 0.64976 0.0
H477 H 0.06891 0.09453 0.6092 0.0
H478 H 0.08073 0.09627 0.42602 0.0
C479 C 0.09481 0.17361 0.44866 0.0
C480 C 0.07825 0.13938 0.51074 0.0
C481 C 0.10679 0.18877 0.4336 0.0
C482 C 0.05397 0.06911 0.606 0.0
C483 C 0.06149 0.08568 0.58279 0.0
C484 C 0.07962 0.10827 0.44978 0.0
C485 C 0.10167 0.15592 0.44125 0.0
C486 C 0.08946 0.1397 0.46015 0.0
C487 C 0.06004 0.09046 0.52604 0.0
C488 C 0.06903 0.10775 0.50142 0.0
H489 H 0.14747 0.16679 0.38681 0.0
H490 H 0.12668 0.14035 0.41306 0.0
H491 H 0.09794 0.12395 0.38978 0.0
H492 H 0.03612 0.05252 0.48995 0.0
H493 H 0.04914 0.08167 0.44937 0.0
C494 C 0.33909 0.89664 0.51107 0.0
C495 C 0.32607 0.90821 0.48392 0.0
C496 C 0.35575 0.90373 0.53308 0.0
C497 C 0.38788 0.94461 0.52609 0.0
H498 H 0.40279 0.9249 0.66969 0.0
C499 C 0.44662 0.97831 0.65029 0.0
C500 C 0.46001 0.96659 0.67558 0.0
C501 C 0.43038 0.97126 0.62603 0.0
C502 C 0.39892 0.93042 0.62932 0.0
H503 H 0.31964 0.93632 0.46107 0.0
H504 H 0.34874 0.94873 0.49905 0.0
H505 H 0.37439 0.91235 0.62857 0.0
H506 H 0.46686 0.93829 0.69508 0.0
H507 H 0.43857 0.92606 0.65276 0.0
H508 H 0.41237 0.96281 0.52726 0.0
C509 C 0.34645 0.93413 0.5019 0.0
C510 C 0.38268 0.92321 0.60567 0.0
C511 C 0.32983 0.92702 0.47982 0.0
C512 C 0.4568 0.9477 0.67609 0.0
C513 C 0.44054 0.94068 0.65209 0.0
C514 C 0.4041 0.95187 0.54986 0.0
C515 C 0.35959 0.92257 0.52891 0.0
C516 C 0.37698 0.93019 0.55374 0.0
C517 C 0.42714 0.95237 0.62684 0.0
C518 C 0.40982 0.94483 0.60169 0.0
H519 H 0.33648 0.88208 0.51493 0.0
H520 H 0.36567 0.89443 0.55307 0.0
H521 H 0.38404 0.95013 0.48568 0.0
H522 H 0.44868 0.99293 0.64919 0.0
H523 H 0.4202 0.98061 0.60733 0.0
C524 C 0.42663 0.3223 0.49417 0.0
C525 C 0.40932 0.32312 0.46588 0.0
C526 C 0.43604 0.33827 0.50727 0.0
C527 C 0.42601 0.3855 0.53558 0.0
H528 H 0.48215 0.39225 0.51486 0.0
C529 C 0.46314 0.4514 0.59455 0.0
C530 C 0.48074 0.44956 0.62125 0.0
C531 C 0.45515 0.4367 0.56928 0.0
C532 C 0.46648 0.39051 0.52144 0.0
H533 H 0.38786 0.34119 0.43088 0.0
H534 H 0.40437 0.36911 0.45334 0.0
H535 H 0.46682 0.36499 0.48309 0.0
H536 H 0.504 0.43096 0.64131 0.0
H537 H 0.48983 0.40519 0.59868 0.0
H538 H 0.42557 0.41059 0.57556 0.0
C539 C 0.4108 0.35614 0.46475 0.0
C540 C 0.45771 0.37492 0.50307 0.0
C541 C 0.4015 0.34017 0.45122 0.0
C542 C 0.49045 0.43284 0.6209 0.0
C543 C 0.48235 0.41808 0.59613 0.0
C544 C 0.43476 0.40098 0.55443 0.0
C545 C 0.42812 0.35535 0.49313 0.0
C546 C 0.4374 0.37222 0.51024 0.0
C547 C 0.46446 0.41974 0.57064 0.0
C548 C 0.45513 0.40366 0.54792 0.0
H549 H 0.43289 0.3093 0.50623 0.0
H550 H 0.44924 0.33725 0.52978 0.0
H551 H 0.41035 0.38365 0.54238 0.0
H552 H 0.4554 0.46417 0.59364 0.0
H553 H 0.44158 0.43861 0.54903 0.0
C554 C 0.20346 0.59304 0.34455 0.0
C555 C 0.20692 0.61173 0.34795 0.0
C556 C 0.18743 0.58451 0.37389 0.0
C557 C 0.15135 0.59025 0.4917 0.0
H558 H 0.12255 0.55305 0.42237 0.0
C559 C 0.07821 0.55969 0.58738 0.0
C560 C 0.07636 0.54064 0.58866 0.0
C561 C 0.09385 0.56861 0.55724 0.0
C562 C 0.13054 0.56332 0.44239 0.0
H563 H 0.19649 0.6362 0.38464 0.0
H564 H 0.16834 0.62142 0.43558 0.0
H565 H 0.15046 0.5682 0.37163 0.0
H566 H 0.08933 0.51605 0.55858 0.0
H567 H 0.11654 0.53164 0.50579 0.0
H568 H 0.13122 0.58545 0.56224 0.0
C569 C 0.17813 0.61323 0.41097 0.0
C570 C 0.14658 0.57197 0.41343 0.0
C571 C 0.19423 0.62172 0.38179 0.0
C572 C 0.09033 0.53074 0.55849 0.0
C573 C 0.10587 0.53967 0.528 0.0
C574 C 0.13522 0.58168 0.52049 0.0
C575 C 0.17448 0.59452 0.40722 0.0
C576 C 0.15725 0.58548 0.43782 0.0
C577 C 0.10787 0.55868 0.52736 0.0
C578 C 0.1247 0.56808 0.49624 0.0
H579 H 0.21332 0.58493 0.31986 0.0
H580 H 0.18533 0.57001 0.37098 0.0
H581 H 0.1594 0.60037 0.51213 0.0
H582 H 0.06769 0.56772 0.61016 0.0
H583 H 0.09492 0.5833 0.55704 0.0
C584 C 0.93337 0.83212 0.90056 0.0
C585 C 0.91483 0.82994 0.87997 0.0
C586 C 0.94504 0.84727 0.88314 0.0
C587 C 0.96293 0.88504 0.86201 0.0
H588 H 0.96189 0.90372 0.70897 0.0
C589 C -0.00025 0.95348 0.78081 0.0
C590 C 0.00697 0.95512 0.72518 0.0
C591 C 0.98974 0.93767 0.80177 0.0
C592 C 0.96264 0.89857 0.75167 0.0
H593 H 0.89389 0.84169 0.82501 0.0
H594 H 0.91391 0.86848 0.79573 0.0
H595 H 0.94215 0.8773 0.74059 0.0
H596 H 0.01059 0.94114 0.64891 0.0
H597 H 0.99401 0.91335 0.6859 0.0
H598 H 0.98405 0.90596 0.87236 0.0
C599 C 0.9197 0.85837 0.82451 0.0
C600 C 0.95098 0.88355 0.77012 0.0
C601 C 0.90816 0.84309 0.84143 0.0
C602 C 0.00496 0.94033 0.6918 0.0
C603 C 0.99528 0.92445 0.71294 0.0
C604 C 0.97479 0.89997 0.84334 0.0
C605 C 0.93835 0.86062 0.84494 0.0
C606 C 0.95089 0.87662 0.82557 0.0
C607 C 0.98701 0.92309 0.76768 0.0
C608 C 0.97479 0.90695 0.78788 0.0
H609 H 0.93905 0.82189 0.9292 0.0
H610 H 0.95945 0.84831 0.89888 0.0
H611 H 0.96306 0.88023 0.9052 0.0
H612 H 0.00099 0.96472 0.80737 0.0
H613 H 0.98346 0.93721 0.84396 0.0
C614 C 0.70462 0.02837 0.94797 0.0
C615 C 0.70694 0.04113 0.98798 0.0
C616 C 0.6866 0.02618 0.92493 0.0
C617 C 0.63378 0.03561 0.95026 0.0
H618 H 0.63164 0.02088 0.79931 0.0
C619 C 0.56188 0.02511 0.83685 0.0
C620 C 0.56053 0.00781 0.81562 0.0
C621 C 0.57947 0.03106 0.85685 0.0
C622 C 0.63206 0.02505 0.84148 0.0
H623 H 0.69273 0.06237 0.03298 0.0
H624 H 0.66131 0.05891 0.99187 0.0
H625 H 0.66307 0.02838 0.83484 0.0
H626 H 0.57652 0.98329 0.7981 0.0
H627 H 0.60718 0.99387 0.83174 0.0
H628 H 0.60257 0.03243 0.95607 0.0
C629 C 0.67315 0.05009 0.97966 0.0
C630 C 0.65006 0.02921 0.86207 0.0
C631 C 0.69113 0.05209 0.00326 0.0
C632 C 0.57707 0.99667 0.81439 0.0
C633 C 0.59465 0.00274 0.8333 0.0
C634 C 0.61572 0.03172 0.92926 0.0
C635 C 0.67058 0.03697 0.94058 0.0
C636 C 0.65123 0.03415 0.91716 0.0
C637 C 0.59602 0.01996 0.85472 0.0
C638 C 0.61478 0.02604 0.8751 0.0
H639 H 0.7166 0.01971 0.93566 0.0
H640 H 0.68516 0.0157 0.89582 0.0
H641 H 0.63407 0.03913 0.99306 0.0
H642 H 0.54935 0.03396 0.83836 0.0
H643 H 0.58023 0.04441 0.87323 0.0
C644 C 0.61028 0.64383 0.92431 0.0
C645 C 0.60165 0.65722 0.9563 0.0
C646 C 0.59946 0.62857 0.91206 0.0
C647 C 0.55079 0.61308 0.88874 0.0
H648 H 0.57082 0.56467 0.91899 0.0
C649 C 0.50992 0.54891 0.82624 0.0
C650 C 0.52167 0.53509 0.80513 0.0
C651 C 0.51836 0.56342 0.85173 0.0
C652 C 0.56509 0.57808 0.90961 0.0
H653 H 0.57485 0.66564 0.99879 0.0
H654 H 0.55575 0.63903 0.97625 0.0
H655 H 0.58843 0.59098 0.94838 0.0
H656 H 0.55147 0.52565 0.79429 0.0
H657 H 0.56611 0.55101 0.83642 0.0
H658 H 0.52802 0.60042 0.84737 0.0
C659 C 0.57098 0.6402 0.96177 0.0
C660 C 0.57515 0.59311 0.9268 0.0
C661 C 0.58192 0.65529 0.97498 0.0
C662 C 0.54194 0.53598 0.81051 0.0
C663 C 0.55036 0.55052 0.8352 0.0
C664 C 0.54089 0.59806 0.87059 0.0
C665 C 0.5797 0.62668 0.93045 0.0
C666 C 0.56823 0.61074 0.91587 0.0
C667 C 0.53873 0.56449 0.85605 0.0
C668 C 0.5481 0.58036 0.87997 0.0
H669 H 0.62545 0.64508 0.90927 0.0
H670 H 0.60643 0.61839 0.88737 0.0
H671 H 0.54525 0.6266 0.87963 0.0
H672 H 0.49424 0.54856 0.82289 0.0
H673 H 0.5089 0.57378 0.86795 0.0
C674 C 0.84831 0.42753 0.95643 0.0
C675 C 0.84845 0.42168 0.01275 0.0
C676 C 0.86547 0.43383 0.92737 0.0
C677 C 0.91948 0.43476 0.93109 0.0
H678 H 0.91486 0.47868 0.8363 0.0
C679 C 0.98376 0.46617 0.78884 0.0
C680 C 0.98534 0.48525 0.78459 0.0
C681 C 0.96758 0.45755 0.81738 0.0
C682 C 0.91645 0.46649 0.86291 0.0
H683 H 0.86698 0.41617 0.08128 0.0
H684 H 0.89682 0.42789 0.03135 0.0
H685 H 0.88579 0.46487 0.88406 0.0
H686 H 0.97152 0.51022 0.80866 0.0
H687 H 0.94357 0.49523 0.85892 0.0
H688 H 0.9503 0.43674 0.9109 0.0
C689 C 0.88344 0.42773 0.00965 0.0
C690 C 0.89973 0.45842 0.88971 0.0
C691 C 0.86626 0.42137 0.03866 0.0
C692 C 0.97068 0.4955 0.81068 0.0
C693 C 0.95458 0.4869 0.83924 0.0
C694 C 0.93626 0.44286 0.90422 0.0
C695 C 0.88316 0.43436 0.95393 0.0
C696 C 0.90102 0.44249 0.92425 0.0
C697 C 0.95268 0.46785 0.84227 0.0
C698 C 0.93493 0.4589 0.87013 0.0
H699 H 0.83482 0.42771 0.93518 0.0
H700 H 0.86482 0.43846 0.88415 0.0
H701 H 0.92096 0.42241 0.95704 0.0
H702 H 0.99481 0.45789 0.76916 0.0
H703 H 0.96649 0.44285 0.81864 0.0
C704 C 0.13069 0.12778 0.18543 0.0
C705 C 0.11696 0.13758 0.21676 0.0
C706 C 0.12459 0.11417 0.15213 0.0
C707 C 0.08173 0.08511 0.12564 0.0
H708 H 0.1076 0.08348 0.97914 0.0
C709 C 0.04783 0.05182 0.94257 0.0
C710 C 0.06018 0.04206 0.90697 0.0
C711 C 0.05544 0.06119 0.98524 0.0
C712 C 0.10041 0.08356 0.02021 0.0
H713 H 0.08607 0.14049 0.2386 0.0
H714 H 0.0754 0.11713 0.17959 0.0
H715 H 0.11967 0.10425 0.04435 0.0
H716 H 0.09013 0.03409 0.88899 0.0
H717 H 0.10345 0.05047 0.96368 0.0
H718 H 0.06205 0.06481 0.10039 0.0
C719 C 0.09092 0.11969 0.18141 0.0
C720 C 0.10734 0.09546 0.05771 0.0
C721 C 0.09703 0.1332 0.21498 0.0
C722 C 0.08023 0.04139 0.91601 0.0
C723 C 0.08788 0.0509 0.9584 0.0
C724 C 0.07471 0.0733 0.08793 0.0
C725 C 0.1046 0.11011 0.14911 0.0
C726 C 0.09797 0.09654 0.11071 0.0
C727 C 0.0756 0.06111 0.99294 0.0
C728 C 0.08386 0.07255 0.03462 0.0
H729 H 0.14617 0.13071 0.18626 0.0
H730 H 0.13555 0.10687 0.12861 0.0
H731 H 0.07436 0.08533 0.16642 0.0
H732 H 0.03229 0.05245 0.93686 0.0
H733 H 0.04563 0.06904 0.01091 0.0
C734 C 0.39127 0.94035 0.27598 0.0
C735 C 0.37232 0.94748 0.27651 0.0
C736 C 0.40538 0.94627 0.23474 0.0
C737 C 0.41878 0.98266 0.12802 0.0
H738 H 0.44456 0.94391 0.05149 0.0
C739 C 0.46203 0.99483 0.91592 0.0
C740 C 0.4781 0.98369 0.90433 0.0
C741 C 0.45038 0.99172 0.96505 0.0
C742 C 0.43784 0.95496 0.07294 0.0
H743 H 0.35361 0.96708 0.23579 0.0
H744 H 0.37836 0.9775 0.16388 0.0
H745 H 0.42228 0.93646 0.13151 0.0
H746 H 0.49524 0.96124 0.9364 0.0
H747 H 0.47542 0.95624 0.02273 0.0
H748 H 0.43444 0.00119 0.06956 0.0
C749 C 0.38224 0.9673 0.19537 0.0
C750 C 0.425 0.95065 0.11877 0.0
C751 C 0.36805 0.96126 0.23637 0.0
C752 C 0.48279 0.96991 0.94383 0.0
C753 C 0.47133 0.96697 0.99321 0.0
C754 C 0.43184 0.98701 0.08241 0.0
C755 C 0.4009 0.95956 0.19347 0.0
C756 C 0.41524 0.96443 0.14657 0.0
C757 C 0.4547 0.97755 0.00394 0.0
C758 C 0.44144 0.97318 0.05405 0.0
H759 H 0.39509 0.9298 0.30645 0.0
H760 H 0.41973 0.94023 0.23462 0.0
H761 H 0.41153 0.99356 0.14898 0.0
H762 H 0.45803 0.00553 0.88616 0.0
H763 H 0.43759 3e-05 0.97152 0.0
C764 C 0.44356 0.36988 0.21093 0.0
C765 C 0.42365 0.36668 0.22551 0.0
C766 C 0.4494 0.38275 0.16833 0.0
C767 C 0.43143 0.40766 0.04437 0.0
H768 H 0.4782 0.43693 0.05507 0.0
C769 C 0.45736 0.46325 0.87591 0.0
C770 C 0.47731 0.46291 0.859 0.0
C771 C 0.45011 0.45266 0.92265 0.0
C772 C 0.46516 0.42879 0.0514 0.0
H773 H 0.39423 0.37476 0.2074 0.0
H774 H 0.40443 0.39747 0.13363 0.0
H775 H 0.46669 0.4165 0.13341 0.0
H776 H 0.50533 0.45144 0.87844 0.0
H777 H 0.49267 0.43306 0.9599 0.0
H778 H 0.42997 0.42 0.96223 0.0
C779 C 0.41554 0.38978 0.15449 0.0
C780 C 0.45858 0.41704 0.09622 0.0
C781 C 0.40969 0.37682 0.19698 0.0
C782 C 0.48988 0.452 0.89029 0.0
C783 C 0.48266 0.44155 0.93719 0.0
C784 C 0.43795 0.4195 -0.00034 0.0
C785 C 0.43547 0.39283 0.13943 0.0
C786 C 0.44178 0.40615 0.093 0.0
C787 C 0.46268 0.44167 0.95371 0.0
C788 C 0.45503 0.43001 0.00245 0.0
H789 H 0.45469 0.36226 0.23191 0.0
H790 H 0.46485 0.38452 0.15729 0.0
H791 H 0.4186 0.39931 0.04013 0.0
H792 H 0.4473 0.47152 0.8527 0.0
H793 H 0.43467 0.45313 0.93468 0.0
C794 C 0.16947 0.55666 0.11693 0.0
C795 C 0.1618 0.57065 0.14848 0.0
C796 C 0.1576 0.54735 0.0826 0.0
C797 C 0.10559 0.53938 0.05247 0.0
H798 H 0.12763 0.53065 0.90519 0.0
C799 C 0.05924 0.53122 0.86457 0.0
C800 C 0.06459 0.51803 0.82702 0.0
C801 C 0.07086 0.53457 0.90846 0.0
C802 C 0.12134 0.53271 0.94646 0.0
H803 H 0.13553 0.58554 0.1697 0.0
H804 H 0.11501 0.56969 0.10902 0.0
H805 H 0.1485 0.54229 0.97357 0.0
H806 H 0.08611 0.49768 0.80679 0.0
H807 H 0.10665 0.50376 0.88343 0.0
H808 H 0.07823 0.5305 0.02424 0.0
C809 C 0.13008 0.56561 0.11145 0.0
C810 C 0.13331 0.53936 0.98577 0.0
C811 C 0.14191 0.57482 0.14602 0.0
C812 C 0.08161 0.50794 0.83506 0.0
C813 C 0.0934 0.51146 0.87871 0.0
C814 C 0.0936 0.53287 0.013 0.0
C815 C 0.13782 0.55189 0.0788 0.0
C816 C 0.12551 0.54311 0.03895 0.0
C817 C 0.08821 0.52493 0.91554 0.0
C818 C 0.10129 0.52979 0.95929 0.0
H819 H 0.18471 0.55301 0.11824 0.0
H820 H 0.16398 0.53667 0.05876 0.0
H821 H 0.09917 0.54173 0.09336 0.0
H822 H 0.04617 0.53918 0.85965 0.0
H823 H 0.06659 0.54516 0.93579 0.0
C824 C 0.94431 0.86699 0.13487 0.0
C825 C 0.9391 0.8723 0.08097 0.0
C826 C 0.95202 0.87966 0.16866 0.0
C827 C 0.95481 0.92882 0.18869 0.0
H828 H 0.99686 0.9144 0.28187 0.0
C829 C 0.97672 0.96852 0.37589 0.0
C830 C 0.99653 0.96888 0.38773 0.0
C831 C 0.97046 0.95842 0.33285 0.0
C832 C 0.98529 0.91877 0.25563 0.0
H833 H 0.93805 0.89509 0.0201 0.0
H834 H 0.95167 0.91721 0.07913 0.0
H835 H 0.98492 0.8933 0.21757 0.0
H836 H 0.02549 0.96005 0.36147 0.0
H837 H 0.01464 0.94263 0.286 0.0
H838 H 0.95531 0.95437 0.22674 0.0
C839 C 0.94956 0.90327 0.09541 0.0
C840 C 0.97827 0.90656 0.21928 0.0
C841 C 0.94185 0.89057 0.06152 0.0
C842 C 0.01008 0.95974 0.3539 0.0
C843 C 0.00385 0.94973 0.31079 0.0
C844 C 0.96185 0.94106 0.22517 0.0
C845 C 0.95473 0.89795 0.14938 0.0
C846 C 0.96281 0.91136 0.18582 0.0
C847 C 0.98391 0.94855 0.30068 0.0
C848 C 0.97707 0.93611 0.25939 0.0
H849 H 0.94232 0.85304 0.15123 0.0
H850 H 0.95558 0.87517 0.21032 0.0
H851 H 0.94279 0.93289 0.16373 0.0
H852 H 0.96593 0.97531 0.40156 0.0
H853 H 0.95497 0.95768 0.32649 0.0
C854 C 0.64754 -0.00021 0.24296 0.0
C855 C 0.6518 0.01803 0.22576 0.0
C856 C 0.63252 0.99545 0.2832 0.0
C857 C 0.58819 0.01348 0.35338 0.0
H858 H 0.60088 0.97994 0.47545 0.0
C859 C 0.54342 0.00856 0.56282 0.0
C860 C 0.54131 0.99154 0.59213 0.0
C861 C 0.55527 0.01057 0.51388 0.0
C862 C 0.59692 0.98907 0.44124 0.0
H863 H 0.64324 0.04598 0.23603 0.0
H864 H 0.61704 0.03838 0.3063 0.0
H865 H 0.62443 0.98562 0.39698 0.0
H866 H 0.54939 0.96312 0.59194 0.0
H867 H 0.5698 0.96658 0.50591 0.0
H868 H 0.56074 0.01705 0.39783 0.0
C869 C 0.62527 0.02744 0.28847 0.0
C870 C 0.61045 0.99235 0.39629 0.0
C871 C 0.64036 0.0318 0.24848 0.0
C872 C 0.55084 0.97645 0.57055 0.0
C873 C 0.56261 0.97845 0.52139 0.0
C874 C 0.5746 0.01013 0.3982 0.0
C875 C 0.62136 0.00924 0.30679 0.0
C876 C 0.60635 0.00478 0.35227 0.0
C877 C 0.5652 0.99559 0.4929 0.0
C878 C 0.57892 0.99808 0.44308 0.0
H879 H 0.65602 0.98885 0.22612 0.0
H880 H 0.62969 0.98129 0.29611 0.0
H881 H 0.58453 0.02295 0.31964 0.0
H882 H 0.5363 0.02047 0.57836 0.0
H883 H 0.55713 0.02402 0.49349 0.0
C884 C 0.56438 0.62115 0.23373 0.0
C885 C 0.58334 0.61925 0.20973 0.0
C886 C 0.55712 0.60896 0.27663 0.0
C887 C 0.56499 0.5632 0.34341 0.0
H888 H 0.53451 0.58226 0.46656 0.0
C889 C 0.5429 0.52046 0.5473 0.0
C890 C 0.52376 0.5227 0.56978 0.0
C891 C 0.55025 0.5317 0.50205 0.0
C892 C 0.54283 0.5767 0.4322 0.0
H893 H 0.60953 0.60295 0.21179 0.0
H894 H 0.59699 0.58187 0.28718 0.0
H895 H 0.54712 0.60292 0.39027 0.0
H896 H 0.49721 0.53824 0.56151 0.0
H897 H 0.51001 0.55771 0.48276 0.0
H898 H 0.56078 0.53695 0.3859 0.0
C899 C 0.58761 0.59262 0.27231 0.0
C900 C 0.55003 0.58853 0.38841 0.0
C901 C 0.59484 0.60479 0.22929 0.0
C902 C 0.51206 0.5362 0.54546 0.0
C903 C 0.51942 0.54744 0.50049 0.0
C904 C 0.55782 0.55135 0.3874 0.0
C905 C 0.56869 0.59461 0.29668 0.0
C906 C 0.56113 0.58193 0.34334 0.0
C907 C 0.53865 0.54545 0.47859 0.0
C908 C 0.54658 0.55796 0.43214 0.0
H909 H 0.55509 0.63208 0.21941 0.0
H910 H 0.54238 0.61071 0.29384 0.0
H911 H 0.57328 0.55763 0.30903 0.0
H912 H 0.55229 0.51018 0.56508 0.0
H913 H 0.56517 0.52992 0.48628 0.0
C914 C 0.88378 0.48519 0.26279 0.0
C915 C 0.88531 0.46781 0.24191 0.0
C916 C 0.89796 0.49158 0.29641 0.0
C917 C 0.94871 0.48395 0.33638 0.0
H918 H 0.9313 0.50696 0.47043 0.0
C919 C 0.99794 0.49169 0.519 0.0
C920 C 0.99639 0.5075 0.54874 0.0
C921 C 0.98526 0.48859 0.47729 0.0
C922 C 0.93646 0.50084 0.43272 0.0
H923 H 0.90312 0.44363 0.23933 0.0
H924 H 0.92773 0.45471 0.29819 0.0
H925 H 0.90746 0.49833 0.40546 0.0
H926 H 0.98065 0.53273 0.55677 0.0
H927 H 0.9586 0.52736 0.4835 0.0
H928 H 0.97768 0.48622 0.36405 0.0
C929 C 0.91568 0.46349 0.28815 0.0
C930 C 0.92278 0.49588 0.39549 0.0
C931 C 0.90149 0.45708 0.2547 0.0
C932 C 0.98219 0.52037 0.5348 0.0
C933 C 0.96948 0.51725 0.49304 0.0
C934 C 0.96239 0.48893 0.37357 0.0
C935 C 0.91403 0.48076 0.3097 0.0
C936 C 0.92871 0.48716 0.34727 0.0
C937 C 0.97071 0.50122 0.46427 0.0
C938 C 0.9564 0.49721 0.42257 0.0
H939 H 0.87153 0.49382 0.25359 0.0
H940 H 0.89638 0.50502 0.31188 0.0
H941 H 0.95379 0.47754 0.29912 0.0
H942 H 0.00871 0.48148 0.52868 0.0
H943 H 0.98647 0.47599 0.45646 0.0
loop_
_geom_bond_atom_site_label_1
_geom_bond_atom_site_label_2
_geom_bond_distance
_geom_bond_site_symmetry_2
_ccdc_geom_bond_type
O0 Cd1 2.300 . S
O0 C7 1.275 . S
Cd1 O0 2.300 . S
Cd1 O9 2.381 . S
Cd1 O10 2.378 . S
O2 Cd3 2.385 . S
O2 C7 1.255 . S
Cd3 O2 2.385 . S
Cd3 O4 2.317 . S
O4 Cd3 2.317 . S
O4 C5 1.232 . S
C5 O4 1.232 . S
C5 O6 1.218 . S
O6 C5 1.218 . S
C7 O0 1.275 . S
C7 O2 1.255 . S
C8 O9 1.258 . S
C8 O10 1.256 . S
O9 Cd1 2.381 . S
O9 C8 1.258 . S
O10 Cd1 2.378 . S
O10 C8 1.256 . S
O11 Cd12 2.300 . S
O11 C18 1.275 . S
Cd12 O11 2.300 . S
Cd12 O20 2.381 . S
Cd12 O21 2.378 . S
O13 Cd14 2.385 1_656 S
O13 C18 1.255 . S
Cd14 O13 2.385 1_454 S
Cd14 O15 2.317 1_455 S
O15 Cd14 2.317 1_655 S
O15 C16 1.232 . S
C16 O15 1.232 . S
C16 O17 1.218 . S
O17 C16 1.218 . S
C18 O11 1.275 . S
C18 O13 1.255 . S
C19 O20 1.258 . S
C19 O21 1.256 . S
O20 Cd12 2.381 . S
O20 C19 1.258 . S
O21 Cd12 2.378 . S
O21 C19 1.256 . S
O22 Cd23 2.300 1_566 S
O22 C29 1.275 1_566 S
Cd23 O22 2.300 1_544 S
Cd23 O31 2.381 1_544 S
Cd23 O32 2.378 . S
O24 Cd25 2.385 . S
O24 C29 1.255 . S
Cd25 O24 2.385 . S
Cd25 O26 2.317 . S
O26 Cd25 2.317 . S
O26 C27 1.232 . S
C27 O26 1.232 . S
C27 O28 1.218 . S
O28 C27 1.218 . S
C29 O22 1.275 1_544 S
C29 O24 1.255 . S
C30 O31 1.258 1_544 S
C30 O32 1.256 . S
O31 Cd23 2.381 1_566 S
O31 C30 1.258 1_566 S
O32 Cd23 2.378 . S
O32 C30 1.256 . S
O33 Cd34 2.300 1_556 S
O33 C40 1.275 1_556 S
Cd34 O33 2.300 1_554 S
Cd34 O42 2.381 1_554 S
Cd34 O43 2.378 . S
O35 Cd36 2.385 . S
O35 C40 1.255 . S
Cd36 O35 2.385 . S
Cd36 O37 2.317 . S
O37 Cd36 2.317 . S
O37 C38 1.232 . S
C38 O37 1.232 . S
C38 O39 1.218 . S
O39 C38 1.218 . S
C40 O33 1.275 1_554 S
C40 O35 1.255 . S
C41 O42 1.258 1_554 S
C41 O43 1.256 . S
O42 Cd34 2.381 1_556 S
O42 C41 1.258 1_556 S
O43 Cd34 2.378 . S
O43 C41 1.256 . S
O44 Cd45 2.300 . S
O44 C51 1.275 . S
Cd45 O44 2.300 . S
Cd45 O53 2.381 . S
Cd45 O54 2.378 . S
O46 Cd47 2.385 . S
O46 C51 1.255 . S
Cd47 O46 2.385 . S
Cd47 O48 2.317 . S
O48 Cd47 2.317 . S
O48 C49 1.232 . S
C49 O48 1.232 . S
C49 O50 1.218 . S
O50 C49 1.218 . S
C51 O44 1.275 . S
C51 O46 1.255 . S
C52 O53 1.258 . S
C52 O54 1.256 . S
O53 Cd45 2.381 . S
O53 C52 1.258 . S
O54 Cd45 2.378 . S
O54 C52 1.256 . S
O55 Cd56 2.300 . S
O55 C62 1.275 . S
Cd56 O55 2.300 . S
Cd56 O64 2.381 . S
Cd56 O65 2.378 . S
O57 Cd58 2.385 . S
O57 C62 1.255 . S
Cd58 O57 2.385 . S
Cd58 O59 2.317 . S
O59 Cd58 2.317 . S
O59 C60 1.232 . S
C60 O59 1.232 . S
C60 O61 1.218 . S
O61 C60 1.218 . S
C62 O55 1.275 . S
C62 O57 1.255 . S
C63 O64 1.258 . S
C63 O65 1.256 . S
O64 Cd56 2.381 . S
O64 C63 1.258 . S
O65 Cd56 2.378 . S
O65 C63 1.256 . S
O66 Cd67 2.300 1_565 S
O66 C73 1.275 1_565 S
Cd67 O66 2.300 1_545 S
Cd67 O75 2.381 1_545 S
Cd67 O76 2.378 . S
O68 Cd69 2.385 . S
O68 C73 1.255 . S
Cd69 O68 2.385 . S
Cd69 O70 2.317 . S
O70 Cd69 2.317 . S
O70 C71 1.232 . S
C71 O70 1.232 . S
C71 O72 1.218 . S
O72 C71 1.218 . S
C73 O66 1.275 1_545 S
C73 O68 1.255 . S
C74 O75 1.258 1_545 S
C74 O76 1.256 . S
O75 Cd67 2.381 1_565 S
O75 C74 1.258 1_565 S
O76 Cd67 2.378 . S
O76 C74 1.256 . S
O77 Cd78 2.300 . S
O77 C84 1.275 . S
Cd78 O77 2.300 . S
Cd78 O86 2.381 . S
Cd78 O87 2.378 . S
O79 Cd80 2.385 . S
O79 C84 1.255 . S
Cd80 O79 2.385 . S
Cd80 O81 2.317 . S
O81 Cd80 2.317 . S
O81 C82 1.232 . S
C82 O81 1.232 . S
C82 O83 1.218 . S
O83 C82 1.218 . S
C84 O77 1.275 . S
C84 O79 1.255 . S
C85 O86 1.258 . S
C85 O87 1.256 . S
O86 Cd78 2.381 . S
O86 C85 1.258 . S
O87 Cd78 2.378 . S
O87 C85 1.256 . S
C88 O104 1.251 . S
C88 O106 1.254 . S
N89 C90 1.333 . S
N89 C94 1.307 1_455 S
N89 Zn95 2.020 . S
C90 N89 1.333 . S
C90 C91 1.379 . S
C90 H108 0.952 . S
C91 C90 1.379 . S
C91 C92 1.390 1_455 S
C91 H118 0.949 . S
C92 C91 1.390 1_655 S
C92 C93 1.357 . S
C93 C92 1.357 . S
C93 C94 1.370 . S
C93 H119 0.950 . S
C94 N89 1.307 1_655 S
C94 C93 1.370 . S
C94 H112 0.948 . S
Zn95 N89 2.020 . S
Zn95 O104 2.039 . S
Zn95 O110 2.034 . S
Zn95 O114 2.025 1_565 S
Zn95 O116 2.024 1_455 S
C96 O115 1.246 . S
C96 O116 1.249 1_545 S
N97 C98 1.307 . S
N97 C99 1.333 . S
N97 Zn103 2.020 . S
C98 N97 1.307 . S
C98 C102 1.370 . S
C98 H109 0.948 . S
C99 N97 1.333 . S
C99 C100 1.379 . S
C99 H107 0.952 . S
C100 C99 1.379 . S
C100 C101 1.390 . S
C100 H120 0.949 . S
C101 C100 1.390 . S
C101 C102 1.357 . S
C102 C98 1.370 . S
C102 C101 1.357 . S
C102 H121 0.950 . S
Zn103 N97 2.020 . S
Zn103 O106 2.025 1_545 S
Zn103 O111 2.024 . S
Zn103 O113 2.039 . S
Zn103 O115 2.034 1_455 S
O104 C88 1.251 . S
O104 Zn95 2.039 . S
C105 O110 1.246 . S
C105 O111 1.249 1_565 S
O106 C88 1.254 . S
O106 Zn103 2.025 1_565 S
H107 C99 0.952 . S
H108 C90 0.952 . S
H109 C98 0.948 . S
O110 Zn95 2.034 . S
O110 C105 1.246 . S
O111 Zn103 2.024 . S
O111 C105 1.249 1_545 S
H112 C94 0.948 . S
O113 Zn103 2.039 . S
O113 C117 1.251 . S
O114 Zn95 2.025 1_545 S
O114 C117 1.254 . S
O115 C96 1.246 . S
O115 Zn103 2.034 1_655 S
O116 Zn95 2.024 1_655 S
O116 C96 1.249 1_565 S
C117 O113 1.251 . S
C117 O114 1.254 . S
H118 C91 0.949 . S
H119 C93 0.950 . S
H120 C100 0.949 . S
H121 C102 0.950 . S
C122 O138 1.251 1_565 S
C122 O140 1.254 . S
N123 C124 1.333 . S
N123 C128 1.307 . S
N123 Zn129 2.020 . S
C124 N123 1.333 . S
C124 C125 1.379 . S
C124 H142 0.952 . S
C125 C124 1.379 . S
C125 C126 1.390 . S
C125 H152 0.949 . S
C126 C125 1.390 . S
C126 C127 1.357 . S
C127 C126 1.357 . S
C127 C128 1.370 . S
C127 H153 0.950 . S
C128 N123 1.307 . S
C128 C127 1.370 . S
C128 H146 0.948 . S
Zn129 N123 2.020 . S
Zn129 O138 2.039 . S
Zn129 O144 2.034 . S
Zn129 O148 2.025 . S
Zn129 O150 2.024 . S
C130 O149 1.246 1_545 S
C130 O150 1.249 . S
N131 C132 1.307 . S
N131 C133 1.333 . S
N131 Zn137 2.020 . S
C132 N131 1.307 . S
C132 C136 1.370 . S
C132 H143 0.948 . S
C133 N131 1.333 . S
C133 C134 1.379 . S
C133 H141 0.952 . S
C134 C133 1.379 . S
C134 C135 1.390 . S
C134 H154 0.949 . S
C135 C134 1.390 . S
C135 C136 1.357 . S
C136 C132 1.370 . S
C136 C135 1.357 . S
C136 H155 0.950 . S
Zn137 N131 2.020 . S
Zn137 O140 2.025 . S
Zn137 O145 2.024 . S
Zn137 O147 2.039 . S
Zn137 O149 2.034 . S
O138 C122 1.251 1_545 S
O138 Zn129 2.039 . S
C139 O144 1.246 1_565 S
C139 O145 1.249 . S
O140 C122 1.254 . S
O140 Zn137 2.025 . S
H141 C133 0.952 . S
H142 C124 0.952 . S
H143 C132 0.948 . S
O144 Zn129 2.034 . S
O144 C139 1.246 1_545 S
O145 Zn137 2.024 . S
O145 C139 1.249 . S
H146 C128 0.948 . S
O147 Zn137 2.039 . S
O147 C151 1.251 1_565 S
O148 Zn129 2.025 . S
O148 C151 1.254 . S
O149 C130 1.246 1_565 S
O149 Zn137 2.034 . S
O150 Zn129 2.024 . S
O150 C130 1.249 . S
C151 O147 1.251 1_545 S
C151 O148 1.254 . S
H152 C125 0.949 . S
H153 C127 0.950 . S
H154 C134 0.949 . S
H155 C136 0.950 . S
C156 O172 1.251 . S
C156 O174 1.254 . S
N157 C158 1.333 . S
N157 C162 1.307 . S
N157 Zn163 2.020 . S
C158 N157 1.333 . S
C158 C159 1.379 . S
C158 H176 0.952 . S
C159 C158 1.379 . S
C159 C160 1.390 . S
C159 H186 0.949 . S
C160 C159 1.390 . S
C160 C161 1.357 . S
C161 C160 1.357 . S
C161 C162 1.370 . S
C161 H187 0.950 . S
C162 N157 1.307 . S
C162 C161 1.370 . S
C162 H180 0.948 . S
Zn163 N157 2.020 . S
Zn163 O172 2.039 . S
Zn163 O178 2.034 . S
Zn163 O182 2.025 . S
Zn163 O184 2.024 . S
C164 O183 1.246 . S
C164 O184 1.249 . S
N165 C166 1.307 . S
N165 C167 1.333 . S
N165 Zn171 2.020 . S
C166 N165 1.307 . S
C166 C170 1.370 . S
C166 H177 0.948 . S
C167 N165 1.333 . S
C167 C168 1.379 . S
C167 H175 0.952 . S
C168 C167 1.379 . S
C168 C169 1.390 . S
C168 H188 0.949 . S
C169 C168 1.390 . S
C169 C170 1.357 . S
C170 C166 1.370 . S
C170 C169 1.357 . S
C170 H189 0.950 . S
Zn171 N165 2.020 . S
Zn171 O174 2.025 . S
Zn171 O179 2.024 . S
Zn171 O181 2.039 . S
Zn171 O183 2.034 . S
O172 C156 1.251 . S
O172 Zn163 2.039 . S
C173 O178 1.246 . S
C173 O179 1.249 . S
O174 C156 1.254 . S
O174 Zn171 2.025 . S
H175 C167 0.952 . S
H176 C158 0.952 . S
H177 C166 0.948 . S
O178 Zn163 2.034 . S
O178 C173 1.246 . S
O179 Zn171 2.024 . S
O179 C173 1.249 . S
H180 C162 0.948 . S
O181 Zn171 2.039 . S
O181 C185 1.251 . S
O182 Zn163 2.025 . S
O182 C185 1.254 . S
O183 C164 1.246 . S
O183 Zn171 2.034 . S
O184 Zn163 2.024 . S
O184 C164 1.249 . S
C185 O181 1.251 . S
C185 O182 1.254 . S
H186 C159 0.949 . S
H187 C161 0.950 . S
H188 C168 0.949 . S
H189 C170 0.950 . S
C190 O206 1.251 . S
C190 O208 1.254 . S
N191 C192 1.333 . S
N191 C196 1.307 . S
N191 Zn197 2.020 . S
C192 N191 1.333 . S
C192 C193 1.379 . S
C192 H210 0.952 . S
C193 C192 1.379 . S
C193 C194 1.390 . S
C193 H220 0.949 . S
C194 C193 1.390 . S
C194 C195 1.357 . S
C195 C194 1.357 . S
C195 C196 1.370 . S
C195 H221 0.950 . S
C196 N191 1.307 . S
C196 C195 1.370 . S
C196 H214 0.948 . S
Zn197 N191 2.020 . S
Zn197 O206 2.039 . S
Zn197 O212 2.034 . S
Zn197 O216 2.025 1_455 S
Zn197 O218 2.024 . S
C198 O217 1.246 . S
C198 O218 1.249 . S
N199 C200 1.307 . S
N199 C201 1.333 . S
N199 Zn205 2.020 . S
C200 N199 1.307 . S
C200 C204 1.370 . S
C200 H211 0.948 . S
C201 N199 1.333 . S
C201 C202 1.379 . S
C201 H209 0.961 . S
C202 C201 1.379 . S
C202 C203 1.390 . S
C202 H222 0.949 1_455 S
C203 C202 1.390 . S
C203 C204 1.357 . S
C204 C200 1.370 . S
C204 C203 1.357 . S
C204 H223 0.950 . S
Zn205 N199 2.020 . S
Zn205 O208 2.025 . S
Zn205 O213 2.024 1_455 S
Zn205 O215 2.039 1_455 S
Zn205 O217 2.034 . S
O206 C190 1.251 . S
O206 Zn197 2.039 . S
C207 O212 1.246 1_655 S
C207 O213 1.249 . S
O208 C190 1.254 . S
O208 Zn205 2.025 . S
H209 C201 0.961 . S
H210 C192 0.952 . S
H211 C200 0.948 . S
O212 Zn197 2.034 . S
O212 C207 1.246 1_455 S
O213 Zn205 2.024 1_655 S
O213 C207 1.249 . S
H214 C196 0.948 . S
O215 Zn205 2.039 1_655 S
O215 C219 1.251 . S
O216 Zn197 2.025 1_655 S
O216 C219 1.254 . S
O217 C198 1.246 . S
O217 Zn205 2.034 . S
O218 Zn197 2.024 . S
O218 C198 1.249 . S
C219 O215 1.251 . S
C219 O216 1.254 . S
H220 C193 0.949 . S
H221 C195 0.950 . S
H222 C202 0.949 1_655 S
H223 C204 0.950 . S
C224 C225 1.353 . S
C224 C226 1.327 . S
C224 H249 0.950 . S
C225 C224 1.353 . S
C225 C241 1.345 1_565 S
C226 C224 1.327 . S
C226 C245 1.469 . S
C226 H250 0.950 . S
C227 C244 1.574 . S
C227 C246 1.368 1_545 S
C227 H251 0.949 . S
H228 C232 0.949 . S
C229 C230 1.349 1_545 S
C229 C231 1.327 . S
C229 H252 0.950 . S
C230 C229 1.349 1_565 S
C230 C242 1.349 . S
C231 C229 1.327 . S
C231 C247 1.429 1_545 S
C231 H253 0.950 . S
C232 H228 0.949 . S
C232 C240 1.574 . S
C232 C248 1.368 . S
H233 C241 0.950 . S
H234 C239 0.950 . S
H235 C240 0.949 . S
H236 C242 0.950 . S
H237 C243 0.950 . S
H238 C244 0.949 . S
C239 H234 0.950 . S
C239 C241 1.327 . S
C239 C245 1.391 1_545 S
C240 C232 1.574 . S
C240 H235 0.949 . S
C240 C246 1.368 . S
C241 C225 1.345 1_545 S
C241 H233 0.950 . S
C241 C239 1.327 . S
C242 C230 1.349 . S
C242 H236 0.950 . S
C242 C243 1.327 . S
C243 H237 0.950 . S
C243 C242 1.327 . S
C243 C247 1.429 . S
C244 C227 1.574 . S
C244 H238 0.949 . S
C244 C248 1.368 1_545 S
C245 C226 1.469 . S
C245 C239 1.391 1_565 S
C245 C246 1.523 . S
C246 C227 1.368 1_565 S
C246 C240 1.368 . S
C246 C245 1.523 . S
C247 C231 1.429 1_565 S
C247 C243 1.429 . S
C247 C248 1.523 . S
C248 C232 1.368 . S
C248 C244 1.368 1_565 S
C248 C247 1.523 . S
H249 C224 0.950 . S
H250 C226 0.950 . S
H251 C227 0.949 . S
H252 C229 0.950 . S
H253 C231 0.950 . S
C254 C255 1.349 . S
C254 C256 1.327 . S
C254 H279 0.950 . S
C255 C254 1.349 . S
C255 C271 1.349 . S
C256 C254 1.327 . S
C256 C275 1.429 . S
C256 H280 0.950 . S
C257 C274 1.574 . S
C257 C276 1.368 . S
C257 H281 0.949 . S
H258 C262 0.949 . S
C259 C260 1.349 . S
C259 C261 1.327 . S
C259 H282 0.950 . S
C260 C259 1.349 . S
C260 C272 1.349 . S
C261 C259 1.327 . S
C261 C277 1.429 . S
C261 H283 0.950 . S
C262 H258 0.949 . S
C262 C270 1.574 . S
C262 C278 1.368 . S
H263 C271 0.950 . S
H264 C269 0.950 . S
H265 C270 0.949 . S
H266 C272 0.950 . S
H267 C273 0.950 . S
H268 C274 0.949 . S
C269 H264 0.950 . S
C269 C271 1.327 . S
C269 C275 1.429 . S
C270 C262 1.574 . S
C270 H265 0.949 . S
C270 C276 1.368 . S
C271 C255 1.349 . S
C271 H263 0.950 . S
C271 C269 1.327 . S
C272 C260 1.349 . S
C272 H266 0.950 . S
C272 C273 1.327 . S
C273 H267 0.950 . S
C273 C272 1.327 . S
C273 C277 1.429 . S
C274 C257 1.574 . S
C274 H268 0.949 . S
C274 C278 1.368 . S
C275 C256 1.429 . S
C275 C269 1.429 . S
C275 C276 1.523 . S
C276 C257 1.368 . S
C276 C270 1.368 . S
C276 C275 1.523 . S
C277 C261 1.429 . S
C277 C273 1.429 . S
C277 C278 1.523 . S
C278 C262 1.368 . S
C278 C274 1.368 . S
C278 C277 1.523 . S
H279 C254 0.950 . S
H280 C256 0.950 . S
H281 C257 0.949 . S
H282 C259 0.950 . S
H283 C261 0.950 . S
C284 C285 1.349 . S
C284 C286 1.327 . S
C284 H309 0.950 . S
C285 C284 1.349 . S
C285 C301 1.349 . S
C286 C284 1.327 . S
C286 C305 1.429 . S
C286 H310 0.950 . S
C287 C304 1.574 . S
C287 C306 1.368 . S
C287 H311 0.949 . S
H288 C292 0.949 . S
C289 C290 1.349 . S
C289 C291 1.327 . S
C289 H312 0.950 . S
C290 C289 1.349 . S
C290 C302 1.349 . S
C291 C289 1.327 . S
C291 C307 1.429 . S
C291 H313 0.950 . S
C292 H288 0.949 . S
C292 C300 1.574 . S
C292 C308 1.368 . S
H293 C301 0.950 . S
H294 C299 0.950 . S
H295 C300 0.949 . S
H296 C302 0.950 . S
H297 C303 0.950 . S
H298 C304 0.949 . S
C299 H294 0.950 . S
C299 C301 1.327 . S
C299 C305 1.429 . S
C300 C292 1.574 . S
C300 H295 0.949 . S
C300 C306 1.368 . S
C301 C285 1.349 . S
C301 H293 0.950 . S
C301 C299 1.327 . S
C302 C290 1.349 . S
C302 H296 0.950 . S
C302 C303 1.327 . S
C303 H297 0.950 . S
C303 C302 1.327 . S
C303 C307 1.429 . S
C304 C287 1.574 . S
C304 H298 0.949 . S
C304 C308 1.368 . S
C305 C286 1.429 . S
C305 C299 1.429 . S
C305 C306 1.523 . S
C306 C287 1.368 . S
C306 C300 1.368 . S
C306 C305 1.523 . S
C307 C291 1.429 . S
C307 C303 1.429 . S
C307 C308 1.523 . S
C308 C292 1.368 . S
C308 C304 1.368 . S
C308 C307 1.523 . S
H309 C284 0.950 . S
H310 C286 0.950 . S
H311 C287 0.949 . S
H312 C289 0.950 . S
H313 C291 0.950 . S
C314 C315 1.349 . S
C314 C316 1.327 . S
C314 H339 0.950 . S
C315 C314 1.349 . S
C315 C331 1.349 . S
C316 C314 1.327 . S
C316 C335 1.429 . S
C316 H340 0.950 . S
C317 C334 1.574 . S
C317 C336 1.368 . S
C317 H341 0.949 . S
H318 C322 0.949 . S
C319 C320 1.349 . S
C319 C321 1.327 . S
C319 H342 0.950 . S
C320 C319 1.349 . S
C320 C332 1.349 . S
C321 C319 1.327 . S
C321 C337 1.429 . S
C321 H343 0.950 . S
C322 H318 0.949 . S
C322 C330 1.574 . S
C322 C338 1.368 . S
H323 C331 0.950 . S
H324 C329 0.950 . S
H325 C330 0.949 . S
H326 C332 0.950 . S
H327 C333 0.950 . S
H328 C334 0.949 . S
C329 H324 0.950 . S
C329 C331 1.327 . S
C329 C335 1.429 . S
C330 C322 1.574 . S
C330 H325 0.949 . S
C330 C336 1.368 . S
C331 C315 1.349 . S
C331 H323 0.950 . S
C331 C329 1.327 . S
C332 C320 1.349 . S
C332 H326 0.950 . S
C332 C333 1.327 . S
C333 H327 0.950 . S
C333 C332 1.327 . S
C333 C337 1.429 . S
C334 C317 1.574 . S
C334 H328 0.949 . S
C334 C338 1.368 . S
C335 C316 1.429 . S
C335 C329 1.429 . S
C335 C336 1.523 . S
C336 C317 1.368 . S
C336 C330 1.368 . S
C336 C335 1.523 . S
C337 C321 1.429 . S
C337 C333 1.429 . S
C337 C338 1.523 . S
C338 C322 1.368 . S
C338 C334 1.368 . S
C338 C337 1.523 . S
H339 C314 0.950 . S
H340 C316 0.950 . S
H341 C317 0.949 . S
H342 C319 0.950 . S
H343 C321 0.950 . S
C344 C345 1.334 1_565 S
C344 C346 1.327 . S
C344 H369 0.950 . S
C345 C344 1.334 1_545 S
C345 C361 1.363 . S
C346 C344 1.327 . S
C346 C365 1.429 1_565 S
C346 H370 0.950 . S
C347 C364 1.574 . S
C347 C366 1.368 . S
C347 H371 0.949 . S
H348 C352 0.949 . S
C349 C350 1.349 . S
C349 C351 1.327 . S
C349 H372 0.950 . S
C350 C349 1.349 . S
C350 C362 1.349 1_545 S
C351 C349 1.327 . S
C351 C367 1.429 . S
C351 H373 0.950 . S
C352 H348 0.949 . S
C352 C360 1.574 . S
C352 C368 1.368 1_565 S
H353 C361 0.950 1_554 S
H354 C359 0.950 . S
H355 C360 0.949 . S
H356 C362 0.950 . S
H357 C363 0.950 . S
H358 C364 0.949 . S
C359 H354 0.950 . S
C359 C361 1.327 . S
C359 C365 1.429 . S
C360 C352 1.574 . S
C360 H355 0.949 . S
C360 C366 1.368 1_565 S
C361 C345 1.363 . S
C361 H353 0.950 1_556 S
C361 C359 1.327 . S
C362 C350 1.349 1_565 S
C362 H356 0.950 . S
C362 C363 1.327 . S
C363 H357 0.950 . S
C363 C362 1.327 . S
C363 C367 1.429 1_565 S
C364 C347 1.574 . S
C364 H358 0.949 . S
C364 C368 1.368 . S
C365 C346 1.429 1_545 S
C365 C359 1.429 . S
C365 C366 1.523 . S
C366 C347 1.368 . S
C366 C360 1.368 1_545 S
C366 C365 1.523 . S
C367 C351 1.429 . S
C367 C363 1.429 1_545 S
C367 C368 1.523 . S
C368 C352 1.368 1_545 S
C368 C364 1.368 . S
C368 C367 1.523 . S
H369 C344 0.950 . S
H370 C346 0.950 . S
H371 C347 0.949 . S
H372 C349 0.950 . S
H373 C351 0.950 . S
C374 C375 1.349 . S
C374 C376 1.327 . S
C374 H399 0.950 1_556 S
C375 C374 1.349 . S
C375 C391 1.349 . S
C376 C374 1.327 . S
C376 C395 1.429 . S
C376 H400 0.950 . S
C377 C394 1.574 . S
C377 C396 1.368 . S
C377 H401 0.949 . S
H378 C382 0.949 . S
C379 C380 1.349 . S
C379 C381 1.327 . S
C379 H402 0.950 . S
C380 C379 1.349 . S
C380 C392 1.349 . S
C381 C379 1.327 . S
C381 C397 1.429 . S
C381 H403 0.950 . S
C382 H378 0.949 . S
C382 C390 1.574 . S
C382 C398 1.368 . S
H383 C391 0.950 . S
H384 C389 0.950 . S
H385 C390 0.949 . S
H386 C392 0.950 . S
H387 C393 0.950 . S
H388 C394 0.949 . S
C389 H384 0.950 . S
C389 C391 1.327 . S
C389 C395 1.429 . S
C390 C382 1.574 . S
C390 H385 0.949 . S
C390 C396 1.368 . S
C391 C375 1.349 . S
C391 H383 0.950 . S
C391 C389 1.327 . S
C392 C380 1.349 . S
C392 H386 0.950 . S
C392 C393 1.327 . S
C393 H387 0.950 . S
C393 C392 1.327 . S
C393 C397 1.429 . S
C394 C377 1.574 . S
C394 H388 0.949 . S
C394 C398 1.368 . S
C395 C376 1.429 . S
C395 C389 1.429 . S
C395 C396 1.523 . S
C396 C377 1.368 . S
C396 C390 1.368 . S
C396 C395 1.523 . S
C397 C381 1.429 . S
C397 C393 1.429 . S
C397 C398 1.523 . S
C398 C382 1.368 . S
C398 C394 1.368 . S
C398 C397 1.523 . S
H399 C374 0.950 1_554 S
H400 C376 0.950 . S
H401 C377 0.949 . S
H402 C379 0.950 . S
H403 C381 0.950 . S
C404 C405 1.349 . S
C404 C406 1.327 1_554 S
C404 H429 0.950 1_554 S
C405 C404 1.349 . S
C405 C421 1.349 . S
C406 C404 1.327 1_556 S
C406 C425 1.429 . S
C406 H430 0.950 . S
C407 C424 1.574 . S
C407 C426 1.368 . S
C407 H431 0.949 . S
H408 C412 0.949 . S
C409 C410 1.349 . S
C409 C411 1.327 . S
C409 H432 0.950 . S
C410 C409 1.349 . S
C410 C422 1.349 . S
C411 C409 1.327 . S
C411 C427 1.429 . S
C411 H433 0.950 . S
C412 H408 0.949 . S
C412 C420 1.574 . S
C412 C428 1.368 . S
H413 C421 0.950 . S
H414 C419 0.950 . S
H415 C420 0.949 . S
H416 C422 0.950 . S
H417 C423 0.950 . S
H418 C424 0.949 . S
C419 H414 0.950 . S
C419 C421 1.327 . S
C419 C425 1.429 1_554 S
C420 C412 1.574 . S
C420 H415 0.949 . S
C420 C426 1.368 . S
C421 C405 1.349 . S
C421 H413 0.950 . S
C421 C419 1.327 . S
C422 C410 1.349 . S
C422 H416 0.950 . S
C422 C423 1.327 . S
C423 H417 0.950 . S
C423 C422 1.327 . S
C423 C427 1.429 . S
C424 C407 1.574 . S
C424 H418 0.949 . S
C424 C428 1.368 . S
C425 C406 1.429 . S
C425 C419 1.429 1_556 S
C425 C426 1.523 . S
C426 C407 1.368 . S
C426 C420 1.368 . S
C426 C425 1.523 . S
C427 C411 1.429 . S
C427 C423 1.429 . S
C427 C428 1.523 . S
C428 C412 1.368 . S
C428 C424 1.368 . S
C428 C427 1.523 . S
H429 C404 0.950 1_556 S
H430 C406 0.950 . S
H431 C407 0.949 . S
H432 C409 0.950 . S
H433 C411 0.950 . S
C434 C435 1.349 . S
C434 C436 1.327 . S
C434 H459 0.951 . S
C435 C434 1.349 . S
C435 C451 1.349 . S
C436 C434 1.327 . S
C436 C455 1.429 . S
C436 H460 0.950 1_655 S
C437 C454 1.574 . S
C437 C456 1.368 . S
C437 H461 0.949 . S
H438 C442 0.949 . S
C439 C440 1.349 1_655 S
C439 C441 1.327 . S
C439 H462 0.950 . S
C440 C439 1.349 1_455 S
C440 C452 1.349 . S
C441 C439 1.327 . S
C441 C457 1.429 . S
C441 H463 0.950 . S
C442 H438 0.949 . S
C442 C450 1.574 . S
C442 C458 1.368 1_455 S
H443 C451 0.950 . S
H444 C449 0.950 . S
H445 C450 0.949 . S
H446 C452 0.950 . S
H447 C453 0.950 . S
H448 C454 0.949 . S
C449 H444 0.950 . S
C449 C451 1.327 . S
C449 C455 1.429 . S
C450 C442 1.574 . S
C450 H445 0.949 . S
C450 C456 1.368 1_455 S
C451 C435 1.349 . S
C451 H443 0.950 . S
C451 C449 1.327 . S
C452 C440 1.349 . S
C452 H446 0.950 . S
C452 C453 1.327 . S
C453 H447 0.950 . S
C453 C452 1.327 . S
C453 C457 1.429 1_455 S
C454 C437 1.574 . S
C454 H448 0.949 . S
C454 C458 1.368 . S
C455 C436 1.429 . S
C455 C449 1.429 . S
C455 C456 1.523 . S
C456 C437 1.368 . S
C456 C450 1.368 1_655 S
C456 C455 1.523 . S
C457 C441 1.429 . S
C457 C453 1.429 1_655 S
C457 C458 1.523 . S
C458 C442 1.368 1_655 S
C458 C454 1.368 . S
C458 C457 1.523 . S
H459 C434 0.951 . S
H460 C436 0.950 1_455 S
H461 C437 0.949 . S
H462 C439 0.950 . S
H463 C441 0.950 . S
C464 C465 1.349 . S
C464 C466 1.327 . S
C464 H489 0.950 . S
C465 C464 1.349 . S
C465 C481 1.349 . S
C466 C464 1.327 . S
C466 C485 1.429 . S
C466 H490 0.950 . S
C467 C484 1.574 . S
C467 C486 1.368 . S
C467 H491 0.949 . S
H468 C472 0.949 . S
C469 C470 1.349 . S
C469 C471 1.327 . S
C469 H492 0.950 . S
C470 C469 1.349 . S
C470 C482 1.349 . S
C471 C469 1.327 . S
C471 C487 1.429 . S
C471 H493 0.950 . S
C472 H468 0.949 . S
C472 C480 1.574 . S
C472 C488 1.368 . S
H473 C481 0.950 . S
H474 C479 0.950 . S
H475 C480 0.949 . S
H476 C482 0.950 . S
H477 C483 0.950 . S
H478 C484 0.949 . S
C479 H474 0.950 . S
C479 C481 1.327 . S
C479 C485 1.429 . S
C480 C472 1.574 . S
C480 H475 0.949 . S
C480 C486 1.368 . S
C481 C465 1.349 . S
C481 H473 0.950 . S
C481 C479 1.327 . S
C482 C470 1.349 . S
C482 H476 0.950 . S
C482 C483 1.327 . S
C483 H477 0.950 . S
C483 C482 1.327 . S
C483 C487 1.429 . S
C484 C467 1.574 . S
C484 H478 0.949 . S
C484 C488 1.368 . S
C485 C466 1.429 . S
C485 C479 1.429 . S
C485 C486 1.523 . S
C486 C467 1.368 . S
C486 C480 1.368 . S
C486 C485 1.523 . S
C487 C471 1.429 . S
C487 C483 1.429 . S
C487 C488 1.523 . S
C488 C472 1.368 . S
C488 C484 1.368 . S
C488 C487 1.523 . S
H489 C464 0.950 . S
H490 C466 0.950 . S
H491 C467 0.949 . S
H492 C469 0.950 . S
H493 C471 0.950 . S
C494 C495 1.348 1_565 S
C494 C496 1.327 . S
C494 H519 0.950 . S
C495 C494 1.348 1_545 S
C495 C511 1.349 . S
C496 C494 1.327 . S
C496 C515 1.429 . S
C496 H520 0.950 . S
C497 C514 1.574 . S
C497 C516 1.368 1_545 S
C497 H521 0.949 . S
H498 C502 0.949 . S
C499 C500 1.349 1_545 S
C499 C501 1.327 . S
C499 H522 0.950 . S
C500 C499 1.349 1_565 S
C500 C512 1.349 . S
C501 C499 1.327 . S
C501 C517 1.429 1_545 S
C501 H523 0.950 . S
C502 H498 0.949 . S
C502 C510 1.574 . S
C502 C518 1.368 . S
H503 C511 0.950 . S
H504 C509 0.950 . S
H505 C510 0.949 . S
H506 C512 0.950 . S
H507 C513 0.950 . S
H508 C514 0.949 . S
C509 H504 0.950 . S
C509 C511 1.327 . S
C509 C515 1.429 1_545 S
C510 C502 1.574 . S
C510 H505 0.949 . S
C510 C516 1.368 . S
C511 C495 1.349 . S
C511 H503 0.950 . S
C511 C509 1.327 . S
C512 C500 1.349 . S
C512 H506 0.950 . S
C512 C513 1.327 . S
C513 H507 0.950 . S
C513 C512 1.327 . S
C513 C517 1.429 . S
C514 C497 1.574 . S
C514 H508 0.949 . S
C514 C518 1.368 1_545 S
C515 C496 1.429 . S
C515 C509 1.429 1_565 S
C515 C516 1.523 . S
C516 C497 1.368 1_565 S
C516 C510 1.368 . S
C516 C515 1.523 . S
C517 C501 1.429 1_565 S
C517 C513 1.429 . S
C517 C518 1.523 . S
C518 C502 1.368 . S
C518 C514 1.368 1_565 S
C518 C517 1.523 . S
H519 C494 0.950 . S
H520 C496 0.950 . S
H521 C497 0.949 . S
H522 C499 0.950 . S
H523 C501 0.950 . S
C524 C525 1.349 . S
C524 C526 1.327 . S
C524 H549 0.950 . S
C525 C524 1.349 . S
C525 C541 1.349 . S
C526 C524 1.327 . S
C526 C545 1.429 . S
C526 H550 0.950 . S
C527 C544 1.574 . S
C527 C546 1.368 . S
C527 H551 0.949 . S
H528 C532 0.949 . S
C529 C530 1.349 . S
C529 C531 1.327 . S
C529 H552 0.950 . S
C530 C529 1.349 . S
C530 C542 1.349 . S
C531 C529 1.327 . S
C531 C547 1.429 . S
C531 H553 0.950 . S
C532 H528 0.949 . S
C532 C540 1.574 . S
C532 C548 1.368 . S
H533 C541 0.950 . S
H534 C539 0.950 . S
H535 C540 0.949 . S
H536 C542 0.950 . S
H537 C543 0.950 . S
H538 C544 0.949 . S
C539 H534 0.950 . S
C539 C541 1.327 . S
C539 C545 1.429 . S
C540 C532 1.574 . S
C540 H535 0.949 . S
C540 C546 1.368 . S
C541 C525 1.349 . S
C541 H533 0.950 . S
C541 C539 1.327 . S
C542 C530 1.349 . S
C542 H536 0.950 . S
C542 C543 1.327 . S
C543 H537 0.950 . S
C543 C542 1.327 . S
C543 C547 1.429 . S
C544 C527 1.574 . S
C544 H538 0.949 . S
C544 C548 1.368 . S
C545 C526 1.429 . S
C545 C539 1.429 . S
C545 C546 1.523 . S
C546 C527 1.368 . S
C546 C540 1.368 . S
C546 C545 1.523 . S
C547 C531 1.429 . S
C547 C543 1.429 . S
C547 C548 1.523 . S
C548 C532 1.368 . S
C548 C544 1.368 . S
C548 C547 1.523 . S
H549 C524 0.950 . S
H550 C526 0.950 . S
H551 C527 0.949 . S
H552 C529 0.950 . S
H553 C531 0.950 . S
C554 C555 1.349 . S
C554 C556 1.327 . S
C554 H579 0.950 . S
C555 C554 1.349 . S
C555 C571 1.349 . S
C556 C554 1.327 . S
C556 C575 1.429 . S
C556 H580 0.950 . S
C557 C574 1.574 . S
C557 C576 1.368 . S
C557 H581 0.949 . S
H558 C562 0.949 . S
C559 C560 1.349 . S
C559 C561 1.327 . S
C559 H582 0.950 . S
C560 C559 1.349 . S
C560 C572 1.349 . S
C561 C559 1.327 . S
C561 C577 1.429 . S
C561 H583 0.950 . S
C562 H558 0.949 . S
C562 C570 1.574 . S
C562 C578 1.368 . S
H563 C571 0.950 . S
H564 C569 0.950 . S
H565 C570 0.949 . S
H566 C572 0.950 . S
H567 C573 0.950 . S
H568 C574 0.949 . S
C569 H564 0.950 . S
C569 C571 1.327 . S
C569 C575 1.429 . S
C570 C562 1.574 . S
C570 H565 0.949 . S
C570 C576 1.368 . S
C571 C555 1.349 . S
C571 H563 0.950 . S
C571 C569 1.327 . S
C572 C560 1.349 . S
C572 H566 0.950 . S
C572 C573 1.327 . S
C573 H567 0.950 . S
C573 C572 1.327 . S
C573 C577 1.429 . S
C574 C557 1.574 . S
C574 H568 0.949 . S
C574 C578 1.368 . S
C575 C556 1.429 . S
C575 C569 1.429 . S
C575 C576 1.523 . S
C576 C557 1.368 . S
C576 C570 1.368 . S
C576 C575 1.523 . S
C577 C561 1.429 . S
C577 C573 1.429 . S
C577 C578 1.523 . S
C578 C562 1.368 . S
C578 C574 1.368 . S
C578 C577 1.523 . S
H579 C554 0.950 . S
H580 C556 0.950 . S
H581 C557 0.949 . S
H582 C559 0.950 . S
H583 C561 0.950 . S
C584 C585 1.349 . S
C584 C586 1.327 . S
C584 H609 0.950 . S
C585 C584 1.349 . S
C585 C601 1.349 . S
C586 C584 1.327 . S
C586 C605 1.429 . S
C586 H610 0.950 . S
C587 C604 1.574 1_655 S
C587 C606 1.368 . S
C587 H611 0.949 . S
H588 C592 0.949 . S
C589 C590 1.349 . S
C589 C591 1.327 . S
C589 H612 0.950 . S
C590 C589 1.349 . S
C590 C602 1.349 . S
C591 C589 1.327 . S
C591 C607 1.429 . S
C591 H613 0.950 . S
C592 H588 0.949 . S
C592 C600 1.574 . S
C592 C608 1.368 . S
H593 C601 0.950 1_554 S
H594 C599 0.950 . S
H595 C600 0.949 . S
H596 C602 0.950 . S
H597 C603 0.950 1_655 S
H598 C604 0.949 . S
C599 H594 0.950 . S
C599 C601 1.327 . S
C599 C605 1.429 . S
C600 C592 1.574 . S
C600 H595 0.949 . S
C600 C606 1.368 . S
C601 C585 1.349 . S
C601 H593 0.950 1_556 S
C601 C599 1.327 . S
C602 C590 1.349 . S
C602 H596 0.950 . S
C602 C603 1.327 . S
C603 H597 0.950 1_455 S
C603 C602 1.327 . S
C603 C607 1.429 . S
C604 C587 1.574 1_455 S
C604 H598 0.949 . S
C604 C608 1.368 1_455 S
C605 C586 1.429 . S
C605 C599 1.429 . S
C605 C606 1.523 . S
C606 C587 1.368 . S
C606 C600 1.368 . S
C606 C605 1.523 . S
C607 C591 1.429 . S
C607 C603 1.429 . S
C607 C608 1.523 1_455 S
C608 C592 1.368 . S
C608 C604 1.368 1_655 S
C608 C607 1.523 1_655 S
H609 C584 0.950 . S
H610 C586 0.950 . S
H611 C587 0.949 . S
H612 C589 0.950 . S
H613 C591 0.950 . S
C614 C615 1.350 1_564 S
C614 C616 1.327 1_554 S
C614 H639 0.950 . S
C615 C614 1.350 1_546 S
C615 C631 1.348 . S
C616 C614 1.327 1_556 S
C616 C635 1.429 1_565 S
C616 H640 0.950 . S
C617 C634 1.574 . S
C617 C636 1.368 . S
C617 H641 0.949 . S
H618 C622 0.949 . S
C619 C620 1.349 . S
C619 C621 1.327 . S
C619 H642 0.950 . S
C620 C619 1.349 . S
C620 C632 1.349 1_545 S
C621 C619 1.327 . S
C621 C637 1.429 . S
C621 H643 0.950 . S
C622 H618 0.949 . S
C622 C630 1.574 . S
C622 C638 1.368 1_565 S
H623 C631 0.950 . S
H624 C629 0.950 . S
H625 C630 0.949 . S
H626 C632 0.950 . S
H627 C633 0.950 . S
H628 C634 0.949 . S
C629 H624 0.950 . S
C629 C631 1.327 . S
C629 C635 1.429 . S
C630 C622 1.574 . S
C630 H625 0.949 . S
C630 C636 1.368 1_565 S
C631 C615 1.348 . S
C631 H623 0.950 . S
C631 C629 1.327 . S
C632 C620 1.349 1_565 S
C632 H626 0.950 . S
C632 C633 1.327 . S
C633 H627 0.950 . S
C633 C632 1.327 . S
C633 C637 1.429 1_565 S
C634 C617 1.574 . S
C634 H628 0.949 . S
C634 C638 1.368 . S
C635 C616 1.429 1_545 S
C635 C629 1.429 . S
C635 C636 1.523 . S
C636 C617 1.368 . S
C636 C630 1.368 1_545 S
C636 C635 1.523 . S
C637 C621 1.429 . S
C637 C633 1.429 1_545 S
C637 C638 1.523 . S
C638 C622 1.368 1_545 S
C638 C634 1.368 . S
C638 C637 1.523 . S
H639 C614 0.950 . S
H640 C616 0.950 . S
H641 C617 0.949 . S
H642 C619 0.950 . S
H643 C621 0.950 . S
C644 C645 1.352 . S
C644 C646 1.327 . S
C644 H669 0.950 . S
C645 C644 1.352 . S
C645 C661 1.348 1_556 S
C646 C644 1.327 . S
C646 C665 1.429 . S
C646 H670 0.950 . S
C647 C664 1.574 . S
C647 C666 1.368 . S
C647 H671 0.949 . S
H648 C652 0.949 . S
C649 C650 1.349 . S
C649 C651 1.327 . S
C649 H672 0.950 . S
C650 C649 1.349 . S
C650 C662 1.349 . S
C651 C649 1.327 . S
C651 C667 1.429 . S
C651 H673 0.950 . S
C652 H648 0.949 . S
C652 C660 1.574 . S
C652 C668 1.368 . S
H653 C661 0.950 . S
H654 C659 0.950 1_554 S
H655 C660 0.949 . S
H656 C662 0.950 . S
H657 C663 0.950 . S
H658 C664 0.949 . S
C659 H654 0.950 1_556 S
C659 C661 1.327 1_556 S
C659 C665 1.429 . S
C660 C652 1.574 . S
C660 H655 0.949 . S
C660 C666 1.368 . S
C661 C645 1.348 1_554 S
C661 H653 0.950 . S
C661 C659 1.327 1_554 S
C662 C650 1.349 . S
C662 H656 0.950 . S
C662 C663 1.327 . S
C663 H657 0.950 . S
C663 C662 1.327 . S
C663 C667 1.429 . S
C664 C647 1.574 . S
C664 H658 0.949 . S
C664 C668 1.368 . S
C665 C646 1.429 . S
C665 C659 1.429 . S
C665 C666 1.523 . S
C666 C647 1.368 . S
C666 C660 1.368 . S
C666 C665 1.523 . S
C667 C651 1.429 . S
C667 C663 1.429 . S
C667 C668 1.523 . S
C668 C652 1.368 . S
C668 C664 1.368 . S
C668 C667 1.523 . S
H669 C644 0.950 . S
H670 C646 0.950 . S
H671 C647 0.949 . S
H672 C649 0.950 . S
H673 C651 0.950 . S
C674 C675 1.349 . S
C674 C676 1.327 . S
C674 H699 0.950 . S
C675 C674 1.349 . S
C675 C691 1.349 . S
C676 C674 1.327 . S
C676 C695 1.429 1_554 S
C676 H700 0.950 . S
C677 C694 1.574 . S
C677 C696 1.368 . S
C677 H701 0.949 . S
H678 C682 0.949 . S
C679 C680 1.349 . S
C679 C681 1.327 . S
C679 H702 0.950 . S
C680 C679 1.349 . S
C680 C692 1.349 . S
C681 C679 1.327 . S
C681 C697 1.429 . S
C681 H703 0.950 . S
C682 H678 0.949 . S
C682 C690 1.574 . S
C682 C698 1.368 . S
H683 C691 0.950 . S
H684 C689 0.950 . S
H685 C690 0.949 . S
H686 C692 0.950 . S
H687 C693 0.950 . S
H688 C694 0.949 . S
C689 H684 0.950 . S
C689 C691 1.327 1_556 S
C689 C695 1.429 . S
C690 C682 1.574 . S
C690 H685 0.949 . S
C690 C696 1.368 . S
C691 C675 1.349 . S
C691 H683 0.950 . S
C691 C689 1.327 1_554 S
C692 C680 1.349 . S
C692 H686 0.950 . S
C692 C693 1.327 . S
C693 H687 0.950 . S
C693 C692 1.327 . S
C693 C697 1.429 . S
C694 C677 1.574 . S
C694 H688 0.949 . S
C694 C698 1.368 . S
C695 C676 1.429 1_556 S
C695 C689 1.429 . S
C695 C696 1.523 . S
C696 C677 1.368 . S
C696 C690 1.368 . S
C696 C695 1.523 . S
C697 C681 1.429 . S
C697 C693 1.429 . S
C697 C698 1.523 . S
C698 C682 1.368 . S
C698 C694 1.368 . S
C698 C697 1.523 . S
H699 C674 0.950 . S
H700 C676 0.950 . S
H701 C677 0.949 . S
H702 C679 0.950 . S
H703 C681 0.950 . S
C704 C705 1.349 . S
C704 C706 1.327 . S
C704 H729 0.950 . S
C705 C704 1.349 . S
C705 C721 1.349 . S
C706 C704 1.327 . S
C706 C725 1.429 . S
C706 H730 0.950 . S
C707 C724 1.574 . S
C707 C726 1.368 . S
C707 H731 0.949 . S
H708 C712 0.949 1_556 S
C709 C710 1.349 . S
C709 C711 1.327 1_556 S
C709 H732 0.950 1_556 S
C710 C709 1.349 . S
C710 C722 1.349 . S
C711 C709 1.327 1_554 S
C711 C727 1.429 . S
C711 H733 0.950 . S
C712 H708 0.949 1_554 S
C712 C720 1.574 . S
C712 C728 1.368 . S
H713 C721 0.950 . S
H714 C719 0.950 . S
H715 C720 0.949 . S
H716 C722 0.950 . S
H717 C723 0.950 . S
H718 C724 0.949 . S
C719 H714 0.950 . S
C719 C721 1.327 . S
C719 C725 1.429 . S
C720 C712 1.574 . S
C720 H715 0.949 . S
C720 C726 1.368 . S
C721 C705 1.349 . S
C721 H713 0.950 . S
C721 C719 1.327 . S
C722 C710 1.349 . S
C722 H716 0.950 . S
C722 C723 1.327 . S
C723 H717 0.950 . S
C723 C722 1.327 . S
C723 C727 1.429 1_556 S
C724 C707 1.574 . S
C724 H718 0.949 . S
C724 C728 1.368 . S
C725 C706 1.429 . S
C725 C719 1.429 . S
C725 C726 1.523 . S
C726 C707 1.368 . S
C726 C720 1.368 . S
C726 C725 1.523 . S
C727 C711 1.429 . S
C727 C723 1.429 1_554 S
C727 C728 1.523 . S
C728 C712 1.368 . S
C728 C724 1.368 . S
C728 C727 1.523 . S
H729 C704 0.950 . S
H730 C706 0.950 . S
H731 C707 0.949 . S
H732 C709 0.950 1_554 S
H733 C711 0.950 . S
C734 C735 1.334 1_565 S
C734 C736 1.327 . S
C734 H759 0.950 . S
C735 C734 1.334 1_545 S
C735 C751 1.364 . S
C736 C734 1.327 . S
C736 C755 1.429 1_565 S
C736 H760 0.950 . S
C737 C754 1.574 1_554 S
C737 C756 1.368 . S
C737 H761 0.949 . S
H738 C742 0.949 . S
C739 C740 1.349 . S
C739 C741 1.327 . S
C739 H762 0.950 . S
C740 C739 1.349 . S
C740 C752 1.349 1_545 S
C741 C739 1.327 . S
C741 C757 1.429 . S
C741 H763 0.950 . S
C742 H738 0.949 . S
C742 C750 1.574 1_556 S
C742 C758 1.368 1_565 S
H743 C751 0.950 . S
H744 C749 0.950 . S
H745 C750 0.949 . S
H746 C752 0.950 . S
H747 C753 0.950 . S
H748 C754 0.949 . S
C749 H744 0.950 . S
C749 C751 1.327 . S
C749 C755 1.429 . S
C750 C742 1.574 1_554 S
C750 H745 0.949 . S
C750 C756 1.368 1_565 S
C751 C735 1.364 . S
C751 H743 0.950 . S
C751 C749 1.327 . S
C752 C740 1.349 1_565 S
C752 H746 0.950 . S
C752 C753 1.327 . S
C753 H747 0.950 . S
C753 C752 1.327 . S
C753 C757 1.429 1_565 S
C754 C737 1.574 1_556 S
C754 H748 0.949 . S
C754 C758 1.368 . S
C755 C736 1.429 1_545 S
C755 C749 1.429 . S
C755 C756 1.523 . S
C756 C737 1.368 . S
C756 C750 1.368 1_545 S
C756 C755 1.523 . S
C757 C741 1.429 . S
C757 C753 1.429 1_545 S
C757 C758 1.523 . S
C758 C742 1.368 1_545 S
C758 C754 1.368 . S
C758 C757 1.523 . S
H759 C734 0.950 . S
H760 C736 0.950 . S
H761 C737 0.949 . S
H762 C739 0.950 . S
H763 C741 0.950 . S
C764 C765 1.349 . S
C764 C766 1.327 . S
C764 H789 0.950 . S
C765 C764 1.349 . S
C765 C781 1.349 . S
C766 C764 1.327 . S
C766 C785 1.429 . S
C766 H790 0.950 . S
C767 C784 1.574 . S
C767 C786 1.368 1_556 S
C767 H791 0.949 . S
H768 C772 0.949 . S
C769 C770 1.349 . S
C769 C771 1.327 . S
C769 H792 0.950 . S
C770 C769 1.349 . S
C770 C782 1.349 . S
C771 C769 1.327 . S
C771 C787 1.429 . S
C771 H793 0.950 . S
C772 H768 0.949 . S
C772 C780 1.574 . S
C772 C788 1.368 1_554 S
H773 C781 0.950 . S
H774 C779 0.950 . S
H775 C780 0.949 . S
H776 C782 0.950 . S
H777 C783 0.950 . S
H778 C784 0.949 . S
C779 H774 0.950 . S
C779 C781 1.327 . S
C779 C785 1.429 . S
C780 C772 1.574 . S
C780 H775 0.949 . S
C780 C786 1.368 . S
C781 C765 1.349 . S
C781 H773 0.950 . S
C781 C779 1.327 . S
C782 C770 1.349 . S
C782 H776 0.950 . S
C782 C783 1.327 . S
C783 H777 0.950 . S
C783 C782 1.327 . S
C783 C787 1.429 . S
C784 C767 1.574 . S
C784 H778 0.949 . S
C784 C788 1.368 . S
C785 C766 1.429 . S
C785 C779 1.429 . S
C785 C786 1.523 . S
C786 C767 1.368 1_554 S
C786 C780 1.368 . S
C786 C785 1.523 . S
C787 C771 1.429 . S
C787 C783 1.429 . S
C787 C788 1.523 . S
C788 C772 1.368 1_556 S
C788 C784 1.368 . S
C788 C787 1.523 . S
H789 C764 0.950 . S
H790 C766 0.950 . S
H791 C767 0.949 . S
H792 C769 0.950 . S
H793 C771 0.950 . S
C794 C795 1.349 . S
C794 C796 1.327 . S
C794 H819 0.950 . S
C795 C794 1.349 . S
C795 C811 1.349 . S
C796 C794 1.327 . S
C796 C815 1.429 . S
C796 H820 0.950 . S
C797 C814 1.574 1_554 S
C797 C816 1.368 . S
C797 H821 0.949 . S
H798 C802 0.949 . S
C799 C800 1.349 . S
C799 C801 1.327 . S
C799 H822 0.950 . S
C800 C799 1.349 . S
C800 C812 1.349 . S
C801 C799 1.327 . S
C801 C817 1.429 . S
C801 H823 0.950 . S
C802 H798 0.949 . S
C802 C810 1.574 . S
C802 C818 1.368 . S
H803 C811 0.950 . S
H804 C809 0.950 . S
H805 C810 0.949 . S
H806 C812 0.950 . S
H807 C813 0.950 . S
H808 C814 0.949 . S
C809 H804 0.950 . S
C809 C811 1.327 . S
C809 C815 1.429 . S
C810 C802 1.574 . S
C810 H805 0.949 . S
C810 C816 1.368 1_556 S
C811 C795 1.349 . S
C811 H803 0.950 . S
C811 C809 1.327 . S
C812 C800 1.349 . S
C812 H806 0.950 . S
C812 C813 1.327 . S
C813 H807 0.950 . S
C813 C812 1.327 . S
C813 C817 1.429 . S
C814 C797 1.574 1_556 S
C814 H808 0.949 . S
C814 C818 1.368 . S
C815 C796 1.429 . S
C815 C809 1.429 . S
C815 C816 1.523 . S
C816 C797 1.368 . S
C816 C810 1.368 1_554 S
C816 C815 1.523 . S
C817 C801 1.429 . S
C817 C813 1.429 . S
C817 C818 1.523 . S
C818 C802 1.368 . S
C818 C814 1.368 . S
C818 C817 1.523 . S
H819 C794 0.950 . S
H820 C796 0.950 . S
H821 C797 0.949 . S
H822 C799 0.950 . S
H823 C801 0.950 . S
C824 C825 1.349 . S
C824 C826 1.327 . S
C824 H849 0.950 . S
C825 C824 1.349 . S
C825 C841 1.349 . S
C826 C824 1.327 . S
C826 C845 1.429 . S
C826 H850 0.950 . S
C827 C844 1.574 . S
C827 C846 1.368 . S
C827 H851 0.949 . S
H828 C832 0.949 1_455 S
C829 C830 1.349 . S
C829 C831 1.327 . S
C829 H852 0.950 . S
C830 C829 1.349 . S
C830 C842 1.349 1_655 S
C831 C829 1.327 . S
C831 C847 1.429 . S
C831 H853 0.950 . S
C832 H828 0.949 1_655 S
C832 C840 1.574 . S
C832 C848 1.368 . S
H833 C841 0.950 . S
H834 C839 0.950 . S
H835 C840 0.949 . S
H836 C842 0.950 . S
H837 C843 0.950 . S
H838 C844 0.949 . S
C839 H834 0.950 . S
C839 C841 1.327 . S
C839 C845 1.429 . S
C840 C832 1.574 . S
C840 H835 0.949 . S
C840 C846 1.368 . S
C841 C825 1.349 . S
C841 H833 0.950 . S
C841 C839 1.327 . S
C842 C830 1.349 1_455 S
C842 H836 0.950 . S
C842 C843 1.327 . S
C843 H837 0.950 . S
C843 C842 1.327 . S
C843 C847 1.429 1_455 S
C844 C827 1.574 . S
C844 H838 0.949 . S
C844 C848 1.368 . S
C845 C826 1.429 . S
C845 C839 1.429 . S
C845 C846 1.523 . S
C846 C827 1.368 . S
C846 C840 1.368 . S
C846 C845 1.523 . S
C847 C831 1.429 . S
C847 C843 1.429 1_655 S
C847 C848 1.523 . S
C848 C832 1.368 . S
C848 C844 1.368 . S
C848 C847 1.523 . S
H849 C824 0.950 . S
H850 C826 0.950 . S
H851 C827 0.949 . S
H852 C829 0.950 . S
H853 C831 0.950 . S
C854 C855 1.353 . S
C854 C856 1.327 . S
C854 H879 0.950 . S
C855 C854 1.353 . S
C855 C871 1.345 1_565 S
C856 C854 1.327 . S
C856 C875 1.473 . S
C856 H880 0.950 . S
C857 C874 1.574 . S
C857 C876 1.368 1_545 S
C857 H881 0.949 . S
H858 C862 0.949 . S
C859 C860 1.349 1_545 S
C859 C861 1.327 . S
C859 H882 0.950 . S
C860 C859 1.349 1_565 S
C860 C872 1.349 . S
C861 C859 1.327 . S
C861 C877 1.429 1_545 S
C861 H883 0.950 . S
C862 H858 0.949 . S
C862 C870 1.574 . S
C862 C878 1.368 . S
H863 C871 0.950 . S
H864 C869 0.950 . S
H865 C870 0.949 . S
H866 C872 0.950 . S
H867 C873 0.950 . S
H868 C874 0.949 . S
C869 H864 0.950 . S
C869 C871 1.327 . S
C869 C875 1.388 1_545 S
C870 C862 1.574 . S
C870 H865 0.949 . S
C870 C876 1.368 . S
C871 C855 1.345 1_545 S
C871 H863 0.950 . S
C871 C869 1.327 . S
C872 C860 1.349 . S
C872 H866 0.950 . S
C872 C873 1.327 . S
C873 H867 0.950 . S
C873 C872 1.327 . S
C873 C877 1.429 . S
C874 C857 1.574 . S
C874 H868 0.949 . S
C874 C878 1.368 1_545 S
C875 C856 1.473 . S
C875 C869 1.388 1_565 S
C875 C876 1.522 . S
C876 C857 1.368 1_565 S
C876 C870 1.368 . S
C876 C875 1.522 . S
C877 C861 1.429 1_565 S
C877 C873 1.429 . S
C877 C878 1.523 . S
C878 C862 1.368 . S
C878 C874 1.368 1_565 S
C878 C877 1.523 . S
H879 C854 0.950 . S
H880 C856 0.950 . S
H881 C857 0.949 . S
H882 C859 0.950 . S
H883 C861 0.950 . S
C884 C885 1.349 . S
C884 C886 1.327 . S
C884 H909 0.950 . S
C885 C884 1.349 . S
C885 C901 1.349 . S
C886 C884 1.327 . S
C886 C905 1.429 . S
C886 H910 0.950 . S
C887 C904 1.574 . S
C887 C906 1.368 . S
C887 H911 0.949 . S
H888 C892 0.949 . S
C889 C890 1.349 . S
C889 C891 1.327 . S
C889 H912 0.950 . S
C890 C889 1.349 . S
C890 C902 1.349 . S
C891 C889 1.327 . S
C891 C907 1.429 . S
C891 H913 0.950 . S
C892 H888 0.949 . S
C892 C900 1.574 . S
C892 C908 1.368 . S
H893 C901 0.950 . S
H894 C899 0.950 . S
H895 C900 0.949 . S
H896 C902 0.950 . S
H897 C903 0.950 . S
H898 C904 0.949 . S
C899 H894 0.950 . S
C899 C901 1.327 . S
C899 C905 1.429 . S
C900 C892 1.574 . S
C900 H895 0.949 . S
C900 C906 1.368 . S
C901 C885 1.349 . S
C901 H893 0.950 . S
C901 C899 1.327 . S
C902 C890 1.349 . S
C902 H896 0.950 . S
C902 C903 1.327 . S
C903 H897 0.950 . S
C903 C902 1.327 . S
C903 C907 1.429 . S
C904 C887 1.574 . S
C904 H898 0.949 . S
C904 C908 1.368 . S
C905 C886 1.429 . S
C905 C899 1.429 . S
C905 C906 1.523 . S
C906 C887 1.368 . S
C906 C900 1.368 . S
C906 C905 1.523 . S
C907 C891 1.429 . S
C907 C903 1.429 . S
C907 C908 1.523 . S
C908 C892 1.368 . S
C908 C904 1.368 . S
C908 C907 1.523 . S
H909 C884 0.950 . S
H910 C886 0.950 . S
H911 C887 0.949 . S
H912 C889 0.950 . S
H913 C891 0.950 . S
C914 C915 1.349 . S
C914 C916 1.327 . S
C914 H939 0.950 . S
C915 C914 1.349 . S
C915 C931 1.349 . S
C916 C914 1.327 . S
C916 C935 1.429 . S
C916 H940 0.950 . S
C917 C934 1.574 . S
C917 C936 1.368 . S
C917 H941 0.949 . S
H918 C922 0.949 . S
C919 C920 1.349 . S
C919 C921 1.327 . S
C919 H942 0.950 . S
C920 C919 1.349 . S
C920 C932 1.349 . S
C921 C919 1.327 . S
C921 C937 1.429 . S
C921 H943 0.950 . S
C922 H918 0.949 . S
C922 C930 1.574 . S
C922 C938 1.368 . S
H923 C931 0.950 . S
H924 C929 0.950 . S
H925 C930 0.949 . S
H926 C932 0.950 . S
H927 C933 0.950 . S
H928 C934 0.949 . S
C929 H924 0.950 . S
C929 C931 1.327 . S
C929 C935 1.429 . S
C930 C922 1.574 . S
C930 H925 0.949 . S
C930 C936 1.368 . S
C931 C915 1.349 . S
C931 H923 0.950 . S
C931 C929 1.327 . S
C932 C920 1.349 . S
C932 H926 0.950 . S
C932 C933 1.327 . S
C933 H927 0.950 . S
C933 C932 1.327 . S
C933 C937 1.429 . S
C934 C917 1.574 . S
C934 H928 0.949 . S
C934 C938 1.368 . S
C935 C916 1.429 . S
C935 C929 1.429 . S
C935 C936 1.523 . S
C936 C917 1.368 . S
C936 C930 1.368 . S
C936 C935 1.523 . S
C937 C921 1.429 . S
C937 C933 1.429 . S
C937 C938 1.523 . S
C938 C922 1.368 . S
C938 C934 1.368 . S
C938 C937 1.523 . S
H939 C914 0.950 . S
H940 C916 0.950 . S
H941 C917 0.949 . S
H942 C919 0.950 . S
H943 C921 0.950 . S
C225 C74 1.809 1_565 S
C230 C105 1.825 . S
C260 C126 1.530 . S
C255 C85 1.519 . S
C290 C160 1.288 . S
C285 C52 1.274 . S
C320 C194 1.539 . S
C315 C63 1.540 . S
C350 C96 1.825 . S
C345 C30 1.807 1_556 S
C375 C41 1.503 1_556 S
C380 C135 1.537 . S
C405 C8 1.277 . S
C410 C169 1.288 . S
C435 C19 1.506 . S
C440 C203 1.539 . S
C470 C117 0.274 . S
C465 C62 0.192 . S
C500 C122 0.725 . S
C495 C73 0.727 . S
C530 C156 0.676 . S
C525 C84 0.676 . S
C555 C51 0.336 . S
C560 C190 0.182 . S
C585 C18 0.459 . S
C590 C88 0.278 . S
C620 C151 0.725 . S
C615 C29 0.722 1_556 S
C650 C185 0.676 . S
C645 C40 0.686 1_556 S
C675 C7 0.317 . S
C680 C219 0.183 . S
C705 C60 1.126 . S
C710 C101 1.281 . S
C735 C71 1.471 . S
C740 C130 1.749 . S
C770 C164 1.538 . S
C765 C82 1.333 . S
C800 C198 1.590 . S
C795 C49 1.299 . S
C825 C16 1.036 . S
C830 C92 1.291 . S
C860 C139 1.749 . S
C855 C27 1.471 1_565 S
C890 C173 1.538 . S
C885 C38 1.252 . S
C915 C5 1.357 . S
C920 C207 1.590 . S
