# Generated by pormake.
# Topology ssa, (4,4)-cn, num edge types: 1
# Building blocks:
#     Node 0, Type 0, BuildingBlock: ESEHIV_clean_sbu_0, # of connection points: 4
#     Node 1, Type 0, BuildingBlock: ESEHIV_clean_sbu_0, # of connection points: 4
#     Node 2, Type 0, BuildingBlock: ESEHIV_clean_sbu_0, # of connection points: 4
#     Node 3, Type 0, BuildingBlock: ESEHIV_clean_sbu_0, # of connection points: 4
#     Node 4, Type 0, BuildingBlock: ESEHIV_clean_sbu_0, # of connection points: 4
#     Node 5, Type 0, BuildingBlock: ESEHIV_clean_sbu_0, # of connection points: 4
#     Node 6, Type 1, BuildingBlock: MUDLON_clean_sbu_0, # of connection points: 4
#     Node 7, Type 1, BuildingBlock: MUDLON_clean_sbu_0, # of connection points: 4
#     Node 8, Type 1, BuildingBlock: MUDLON_clean_sbu_0, # of connection points: 4
#     Node 9, Type 1, BuildingBlock: MUDLON_clean_sbu_0, # of connection points: 4
#     Node 10, Type 1, BuildingBlock: MUDLON_clean_sbu_0, # of connection points: 4
#     Node 11, Type 1, BuildingBlock: MUDLON_clean_sbu_0, # of connection points: 4
#     Edge 12, Type (0, 1), BuildingBlock: CIFDUS_clean_linker_0, # of connection points: 2
#     Edge 13, Type (0, 1), BuildingBlock: CIFDUS_clean_linker_0, # of connection points: 2
#     Edge 14, Type (0, 1), BuildingBlock: CIFDUS_clean_linker_0, # of connection points: 2
#     Edge 15, Type (0, 1), BuildingBlock: CIFDUS_clean_linker_0, # of connection points: 2
#     Edge 16, Type (0, 1), BuildingBlock: CIFDUS_clean_linker_0, # of connection points: 2
#     Edge 17, Type (0, 1), BuildingBlock: CIFDUS_clean_linker_0, # of connection points: 2
#     Edge 18, Type (0, 1), BuildingBlock: CIFDUS_clean_linker_0, # of connection points: 2
#     Edge 19, Type (0, 1), BuildingBlock: CIFDUS_clean_linker_0, # of connection points: 2
#     Edge 20, Type (0, 1), BuildingBlock: CIFDUS_clean_linker_0, # of connection points: 2
#     Edge 21, Type (0, 1), BuildingBlock: CIFDUS_clean_linker_0, # of connection points: 2
#     Edge 22, Type (0, 1), BuildingBlock: CIFDUS_clean_linker_0, # of connection points: 2
#     Edge 23, Type (0, 1), BuildingBlock: CIFDUS_clean_linker_0, # of connection points: 2
#     Edge 24, Type (0, 1), BuildingBlock: CIFDUS_clean_linker_0, # of connection points: 2
#     Edge 25, Type (0, 1), BuildingBlock: CIFDUS_clean_linker_0, # of connection points: 2
#     Edge 26, Type (0, 1), BuildingBlock: CIFDUS_clean_linker_0, # of connection points: 2
#     Edge 27, Type (0, 1), BuildingBlock: CIFDUS_clean_linker_0, # of connection points: 2
#     Edge 28, Type (0, 1), BuildingBlock: CIFDUS_clean_linker_0, # of connection points: 2
#     Edge 29, Type (0, 1), BuildingBlock: CIFDUS_clean_linker_0, # of connection points: 2
#     Edge 30, Type (0, 1), BuildingBlock: CIFDUS_clean_linker_0, # of connection points: 2
#     Edge 31, Type (0, 1), BuildingBlock: CIFDUS_clean_linker_0, # of connection points: 2
#     Edge 32, Type (0, 1), BuildingBlock: CIFDUS_clean_linker_0, # of connection points: 2
#     Edge 33, Type (0, 1), BuildingBlock: CIFDUS_clean_linker_0, # of connection points: 2
#     Edge 34, Type (0, 1), BuildingBlock: CIFDUS_clean_linker_0, # of connection points: 2
#     Edge 35, Type (0, 1), BuildingBlock: CIFDUS_clean_linker_0, # of connection points: 2
# Relax obj value: 0.024
# Max RMSD: 0.110
# Mean RMSD: 0.059
data_MOF--net-ssa--node1-ESEHIV_clean_sbu_0--node2-MUDLON_clean_sbu_0--edge1-CIFDUS_clean_linker_0
_symmetry_space_group_name_H-M    P1
_symmetry_Int_Tables_number       1
_symmetry_cell_setting            triclinic
loop_
_symmetry_equiv_pos_as_xyz
'x, y, z'
_cell_length_a     38.345134
_cell_length_b     41.746391
_cell_length_c     36.639263
_cell_angle_alpha  88.284664
_cell_angle_beta   90.898596
_cell_angle_gamma 123.84129
loop_
_atom_site_label
_atom_site_type_symbol
_atom_site_fract_x
_atom_site_fract_y
_atom_site_fract_z
_atom_type_partial_charge
Cu0 Cu 0.01777 0.54769 0.02248 0.0
N1 N 0.03581 0.5322 0.9835 0.0
N2 N 0.03068 0.49019 0.9435 0.0
C3 C 1.01342 0.49545 0.9726 0.0
C4 C 0.06568 0.52534 0.93578 0.0
C5 C 0.06889 0.55122 0.96066 0.0
O6 O 0.96104 0.53418 1.01069 0.0
C7 C 0.05925 0.53123 0.07136 0.0
O8 O 0.08892 0.55629 0.04874 0.0
H9 H 0.98398 0.47329 0.9852 0.0
H10 H 0.09327 0.58165 0.96169 0.0
N11 N 0.0527 0.59974 0.03546 0.0
N12 N 0.09145 0.64559 0.07626 0.0
C13 C 0.0581 0.60933 0.07083 0.0
C14 C 0.0831 0.63165 1.01737 0.0
C15 C 0.10703 0.66009 0.04257 0.0
C16 C 0.95302 0.53694 0.9772 0.0
O17 O 0.98318 0.55028 0.95294 0.0
H18 H 0.03999 0.58875 0.09266 0.0
H19 H 0.08959 0.63323 0.98854 0.0
O20 O 0.02143 0.52036 0.06477 0.0
H21 H 0.08733 0.53199 0.91372 0.0
H22 H 0.13581 0.68784 0.03688 0.0
Cu23 Cu 0.571 0.04878 0.52602 0.0
N24 N 0.59736 0.03963 0.48917 0.0
N25 N 0.60404 1.00293 0.45051 0.0
C26 C 0.58986 1.00458 0.48338 0.0
C27 C 0.62147 0.03836 0.43501 0.0
C28 C 0.6174 0.06102 0.45899 0.0
O29 O 0.51138 1.00936 0.51815 0.0
C30 C 0.63174 0.06803 0.57889 0.0
O31 O 0.65592 0.08585 0.55029 0.0
H32 H 0.57159 0.97997 0.50178 0.0
H33 H 0.62644 0.09029 0.45382 0.0
N34 N 0.5822 0.09856 0.52392 0.0
N35 N 0.59026 0.15179 0.5457 0.0
C36 C 0.58428 0.11738 0.55394 0.0
C37 C 0.58739 0.12205 0.4955 0.0
C38 C 0.59205 0.15483 0.50888 0.0
C39 C 0.48817 0.016 0.4985 0.0
O40 O 0.50169 0.0518 0.48963 0.0
H41 H 0.57938 0.10513 0.58133 0.0
H42 H 0.58597 0.11518 0.46708 0.0
O43 O 0.59214 0.04598 0.57399 0.0
H44 H 0.6351 0.04688 0.40793 0.0
H45 H 0.59534 0.17853 0.49277 0.0
Cu46 Cu 0.48644 0.48778 0.04745 0.0
N47 N 0.49264 0.44714 0.03906 0.0
N48 N 0.49808 0.40668 1.00456 0.0
C49 C 0.48629 0.43165 1.00593 0.0
C50 C 0.5124 0.40628 0.03834 0.0
C51 C 0.50889 0.43122 0.05965 0.0
O52 O 0.5096 0.52016 1.00363 0.0
C53 C 0.41095 0.449 0.08506 0.0
O54 O 0.43135 0.43757 0.10456 0.0
H55 H 0.47487 0.4399 0.98273 0.0
H56 H 0.51839 0.43779 0.08782 0.0
N57 N 0.51485 0.51704 0.08821 0.0
N58 N 0.53253 0.56083 0.13087 0.0
C59 C 0.50785 0.54254 0.10188 0.0
C60 C 0.54501 0.51902 0.10925 0.0
C61 C 0.55602 0.54607 0.1356 0.0
C62 C 0.54941 0.54228 1.00052 0.0
O63 O 0.57268 0.54751 0.02932 0.0
H64 H 0.48577 0.54825 0.08996 0.0
H65 H 0.5587 0.5027 0.10535 0.0
O66 O 0.42808 0.4691 0.05597 0.0
H67 H 0.52457 0.38929 0.04697 0.0
H68 H 0.57965 0.55428 0.15646 0.0
Cu69 Cu 1.00275 0.53148 0.5237 0.0
N70 N 0.98329 0.50455 0.4803 0.0
N71 N 0.98762 0.47874 0.4293 0.0
C72 C 0.99937 0.48675 0.46453 0.0
C73 C 0.96187 0.49089 0.4231 0.0
C74 C 0.95926 0.50676 0.45461 0.0
O75 O 0.05975 0.57587 0.5131 0.0
C76 C 0.98818 0.49645 0.59517 0.0
O77 O 0.99316 0.52817 0.60693 0.0
H78 H 0.02243 0.48307 0.47755 0.0
H79 H 0.94385 0.52175 0.4576 0.0
N80 N 0.97033 0.5504 0.53608 0.0
N81 N 0.92455 0.55666 0.56688 0.0
C82 C 0.93521 0.53233 0.55663 0.0
C83 C 0.98171 0.58718 0.53238 0.0
C84 C 0.95359 0.59116 0.55134 0.0
C85 C 0.08965 0.57404 0.50117 0.0
O86 O 0.08609 0.54089 0.50266 0.0
H87 H 0.91981 0.5027 0.56631 0.0
H88 H 1.00986 0.61 0.51862 0.0
O89 O 0.99599 0.49478 0.56182 0.0
H90 H 0.94839 0.49097 0.39695 0.0
H91 H 0.95536 0.61771 0.55455 0.0
Cu92 Cu 0.54262 1.0054 0.02394 0.0
N93 N 0.50308 0.99492 0.98773 0.0
N94 N 0.48033 0.01161 0.93882 0.0
C95 C 0.51356 0.01452 0.95557 0.0
C96 C 0.44737 0.98876 0.96119 0.0
C97 C 0.46152 0.97853 0.9914 0.0
O98 O 0.58596 0.05996 1.01448 0.0
C99 C 0.4919 0.95658 0.08103 0.0
O100 O 0.48509 0.93086 0.05711 0.0
H101 H 0.54578 0.03405 0.94666 0.0
H102 H 0.44358 0.96332 1.01573 0.0
N103 N 0.56528 0.97606 0.01867 0.0
N104 N 0.59241 0.94213 0.0347 0.0
C105 C 0.5797 0.96447 0.04625 0.0
C106 C 0.56927 0.9609 0.98842 0.0
C107 C 0.58588 0.9398 0.99824 0.0
C108 C 0.62462 0.07307 1.01007 0.0
O109 O 0.63842 0.05166 0.02049 0.0
H110 H 0.5792 0.97108 0.0745 0.0
H111 H 0.56004 0.96437 0.96131 0.0
O112 O 0.5159 0.99236 0.07209 0.0
H113 H 0.41596 0.98205 0.95721 0.0
H114 H 0.59214 0.92365 0.98 0.0
Cu115 Cu 0.50743 0.50268 0.51717 0.0
N116 N 0.55149 0.5391 0.4868 0.0
N117 N 0.58762 0.58926 0.44758 0.0
C118 C 0.54925 0.56017 0.4595 0.0
C119 C 0.61513 0.58584 0.46791 0.0
C120 C 0.59274 0.5549 0.49204 0.0
O121 O 0.45407 0.49147 0.4983 0.0
C122 C 0.50576 0.5001 0.59417 0.0
O123 O 0.47352 0.46436 0.59036 0.0
H124 H 0.52008 0.55575 0.45013 0.0
H125 H 0.60562 0.54588 0.5133 0.0
N126 N 0.5052 0.45684 0.52013 0.0
N127 N 0.50867 0.41157 0.55085 0.0
C128 C 0.52674 0.44973 0.54469 0.0
C129 C 0.47321 0.422 0.50932 0.0
C130 C 0.47528 0.39399 0.5282 0.0
C131 C 0.44533 0.51633 0.4914 0.0
O132 O 0.47228 0.55248 0.5 0.0
H133 H 0.5518 0.47197 0.56119 0.0
H134 H 0.44774 0.41722 0.49195 0.0
O135 O 0.52033 0.5226 0.56617 0.0
H136 H 0.64897 0.60512 0.4665 0.0
H137 H 0.45218 0.3632 0.52736 0.0
Mg138 Mg 0.22027 0.47131 0.28102 0.0
C139 C 0.16977 0.48423 0.22981 0.0
O140 O 0.14542 0.44759 0.23955 0.0
C141 C 0.27236 0.48098 0.34401 0.0
O142 O 0.24197 0.44413 0.34401 0.0
C143 C 0.15581 0.46584 0.32456 0.0
O144 O 0.182 0.50224 0.31475 0.0
O145 O 0.1638 0.44142 0.31515 0.0
O146 O 0.20661 0.50438 0.24325 0.0
O147 O 0.23692 0.43922 0.24704 0.0
C148 C 0.24924 0.4524 0.21458 0.0
O149 O 0.24721 0.48131 0.20272 0.0
O150 O 0.27238 0.50297 0.31913 0.0
Mg151 Mg 0.82042 0.26298 0.79181 0.0
C152 C 0.76208 0.19139 0.75029 0.0
O153 O 0.73616 0.19352 0.77148 0.0
C154 C 0.91507 0.32166 0.80284 0.0
O155 O 0.91493 0.32657 0.7673 0.0
C156 C 0.78857 0.22105 0.86077 0.0
O157 O 0.82262 0.22233 0.8528 0.0
O158 O 0.77694 0.23746 0.83854 0.0
O159 O 0.80147 0.21582 0.75426 0.0
O160 O 0.82712 0.31056 0.75819 0.0
C161 C 0.84105 0.31282 0.72616 0.0
O162 O 0.84233 0.28385 0.71511 0.0
O163 O 0.88222 0.29347 0.81827 0.0
Mg164 Mg 0.59215 0.79881 0.26904 0.0
C165 C 0.63092 0.83611 0.19601 0.0
O166 O 0.61223 0.79976 0.18746 0.0
C167 C 0.58008 0.74252 0.32055 0.0
O168 O 0.54415 0.73849 0.31339 0.0
C169 C 0.57978 0.83572 0.33171 0.0
O170 O 0.60513 0.82687 0.34593 0.0
O171 O 0.56524 0.82426 0.29978 0.0
O172 O 0.63338 0.84433 0.22956 0.0
O173 O 0.55386 0.74758 0.23681 0.0
C174 C 0.5177 0.72279 0.22438 0.0
O175 O 0.48591 0.72567 0.23049 0.0
O176 O 0.61353 0.77212 0.30731 0.0
Mg177 Mg 0.73321 0.53299 0.79391 0.0
C178 C 0.67259 0.52485 0.74166 0.0
O179 O 0.70155 0.56183 0.74492 0.0
C180 C 0.76276 0.5115 0.86212 0.0
O181 O 0.7521 0.53312 0.87697 0.0
C182 C 0.68156 0.55006 0.83694 0.0
O183 O 0.65439 0.51653 0.82263 0.0
O184 O 0.72037 0.56663 0.82938 0.0
O185 O 0.67689 0.50086 0.76009 0.0
O186 O 0.78262 0.56259 0.7527 0.0
C187 C 0.78031 0.53814 0.73104 0.0
O188 O 0.75056 0.50151 0.73666 0.0
O189 O 0.75412 0.5031 0.82857 0.0
Mg190 Mg 0.28535 0.79813 0.30847 0.0
C191 C 0.22353 0.75429 0.25332 0.0
O192 O 0.23627 0.73309 0.26719 0.0
C193 C 0.33664 0.84046 0.36935 0.0
O194 O 0.33945 0.81093 0.36433 0.0
C195 C 0.25818 0.71923 0.35137 0.0
O196 O 0.28524 0.71689 0.33207 0.0
O197 O 0.25421 0.74723 0.34551 0.0
O198 O 0.23789 0.7871 0.26717 0.0
O199 O 0.33764 0.81336 0.27226 0.0
C200 C 0.35623 0.84827 0.26056 0.0
O201 O 0.34493 0.86998 0.27411 0.0
O202 O 0.31317 0.84495 0.34773 0.0
Mg203 Mg 0.52261 0.2528 0.78221 0.0
C204 C 0.55113 0.23904 0.71494 0.0
O205 O 0.51196 0.22757 0.70931 0.0
C206 C 0.51467 0.29595 0.83903 0.0
O207 O 0.47855 0.27751 0.82172 0.0
C208 C 0.50423 0.17682 0.80838 0.0
O209 O 0.54162 0.19365 0.79359 0.0
O210 O 0.4856 0.19434 0.80666 0.0
O211 O 0.56783 0.25319 0.74573 0.0
O212 O 0.4923 0.27141 0.74423 0.0
C213 C 0.51946 0.30392 0.72929 0.0
O214 O 0.55844 0.322 0.7409 0.0
O215 O 0.54358 0.2922 0.82804 0.0
H216 H 0.13577 0.56791 0.10243 0.0
H217 H 1.00994 0.4664 0.11463 0.0
H218 H 0.033 0.44389 0.16636 0.0
H219 H 0.08997 0.45151 0.20531 0.0
H220 H 0.21553 0.55358 0.19283 0.0
H221 H 0.19129 0.57771 0.14389 0.0
C222 C 0.11329 0.54081 0.11639 0.0
C223 C 0.07132 0.51846 0.10439 0.0
C224 C 0.12675 0.52826 0.1459 0.0
C225 C 0.04242 0.48396 0.12327 0.0
C226 C 0.05565 0.47109 0.15273 0.0
C227 C 0.11205 0.47912 0.19199 0.0
C228 C 0.15466 0.50053 0.20239 0.0
C229 C 0.0979 0.49273 0.16384 0.0
C230 C 0.18267 0.53649 0.18525 0.0
C231 C 0.16885 0.55023 0.15721 0.0
H232 H 0.71429 0.11059 0.598 0.0
H233 H 0.58971 0.05505 0.64325 0.0
H234 H 0.61956 0.08583 0.70155 0.0
H235 H 0.68058 0.13373 0.7375 0.0
H236 H 0.80511 0.19011 0.69187 0.0
H237 H 0.77572 0.15349 0.63612 0.0
C238 C 0.69362 0.10467 0.62078 0.0
C239 C 0.64972 0.08067 0.61604 0.0
C240 C 0.71101 0.12292 0.65413 0.0
C241 C 0.62354 0.07324 0.64601 0.0
C242 C 0.64062 0.09108 0.67935 0.0
C243 C 0.70143 0.13768 0.71558 0.0
C244 C 0.74507 0.16501 0.71885 0.0
C245 C 0.68425 0.11678 0.6834 0.0
C246 C 0.77148 0.1694 0.6902 0.0
C247 C 0.75464 0.14856 0.65819 0.0
H248 H 0.47148 0.57423 0.1387 0.0
H249 H 0.59964 0.61706 0.16783 0.0
H250 H 0.60552 0.67025 0.19951 0.0
H251 H 0.57553 0.7055 0.2176 0.0
H252 H 0.44781 0.6645 0.18875 0.0
H253 H 0.44074 0.60985 0.15776 0.0
C254 C 0.50079 0.59532 0.15175 0.0
C255 C 0.53513 0.5915 0.15072 0.0
C256 C 0.50413 0.62626 0.16975 0.0
C257 C 0.57256 0.61881 0.16846 0.0
C258 C 0.57607 0.64949 0.18639 0.0
C259 C 0.54603 0.68478 0.20448 0.0
C260 C 0.51229 0.68936 0.20533 0.0
C261 C 0.54221 0.6536 0.18699 0.0
C262 C 0.47432 0.66183 0.18844 0.0
C263 C 0.47029 0.63057 0.17074 0.0
H264 H 0.92569 0.60661 0.61335 0.0
H265 H 0.85186 0.48801 0.58038 0.0
H266 H 0.80046 0.47235 0.62789 0.0
H267 H 0.7776 0.49158 0.67971 0.0
H268 H 0.85057 0.60988 0.71358 0.0
H269 H 0.901 0.62657 0.66433 0.0
C270 C 0.89805 0.57748 0.61614 0.0
C271 C 0.89279 0.54848 0.59325 0.0
C272 C 0.86857 0.56861 0.64372 0.0
C273 C 0.85701 0.51076 0.59779 0.0
C274 C 0.82751 0.5018 0.62491 0.0
C275 C 0.80444 0.52112 0.67639 0.0
C276 C 0.81036 0.54941 0.70051 0.0
C277 C 0.83323 0.53038 0.64825 0.0
C278 C 0.84526 0.58752 0.69549 0.0
C279 C 0.87411 0.59705 0.66735 0.0
H280 H 0.45389 0.88456 0.1117 0.0
H281 H 0.485 0.99882 0.13287 0.0
H282 H 0.44845 0.9757 0.19162 0.0
H283 H 0.40437 0.92239 0.23513 0.0
H284 H 0.37317 0.80808 0.2141 0.0
H285 H 0.41372 0.83209 0.15728 0.0
C286 C 0.4528 0.9045 0.12916 0.0
C287 C 0.4718 0.94336 0.11762 0.0
C288 C 0.43184 0.89101 0.16295 0.0
C289 C 0.47055 0.96881 0.14093 0.0
C290 C 0.44961 0.95557 0.17452 0.0
C291 C 0.40671 0.9027 0.21835 0.0
C292 C 0.38542 0.86334 0.22883 0.0
C293 C 0.4297 0.91664 0.18557 0.0
C294 C 0.3892 0.83845 0.20681 0.0
C295 C 0.41219 0.85215 0.17418 0.0
H296 H 0.45242 0.3478 0.59057 0.0
H297 H 0.58421 0.43779 0.58111 0.0
H298 H 0.5988 0.41291 0.6363 0.0
H299 H 0.57417 0.36651 0.68747 0.0
H300 H 0.44257 0.27569 0.69728 0.0
H301 H 0.42777 0.30014 0.64164 0.0
C302 C 0.48442 0.36154 0.60018 0.0
C303 C 0.51729 0.3945 0.58152 0.0
C304 C 0.49251 0.34721 0.63217 0.0
C305 C 0.55843 0.41245 0.59495 0.0
C306 C 0.56676 0.39823 0.62648 0.0
C307 C 0.54214 0.35199 0.67761 0.0
C308 C 0.50948 0.31933 0.69668 0.0
C309 C 0.53401 0.36586 0.64547 0.0
C310 C 0.46827 0.30094 0.68326 0.0
C311 C 0.45984 0.31484 0.65136 0.0
H312 H 0.57965 0.97919 0.3817 0.0
H313 H 0.61466 0.95068 0.48368 0.0
H314 H 0.60703 0.89415 0.45658 0.0
H315 H 0.5941 0.85502 0.40297 0.0
H316 H 0.55623 0.88171 0.30129 0.0
H317 H 0.56038 0.93625 0.32924 0.0
C318 C 0.58565 0.96054 0.39781 0.0
C319 C 0.59837 0.96927 0.43443 0.0
C320 C 0.58036 0.92769 0.38218 0.0
C321 C 0.60506 0.94449 0.45542 0.0
C322 C 0.60069 0.91226 0.43993 0.0
C323 C 0.58624 0.87247 0.38702 0.0
C324 C 0.5752 0.86444 0.35 0.0
C325 C 0.58879 0.90381 0.40323 0.0
C326 C 0.56471 0.88713 0.32985 0.0
C327 C 0.56743 0.91855 0.34574 0.0
H328 H 0.63292 0.58588 0.9847 0.0
H329 H 0.51065 0.5215 0.93393 0.0
H330 H 0.54284 0.52416 0.87607 0.0
H331 H 0.60374 0.5346 0.84341 0.0
H332 H 0.72567 0.59624 0.89448 0.0
H333 H 0.6957 0.60541 0.94858 0.0
C334 C 0.61334 0.57318 0.96079 0.0
C335 C 0.5693 0.55279 0.96391 0.0
C336 C 0.63199 0.57391 0.92779 0.0
C337 C 0.54454 0.53705 0.93248 0.0
C338 C 0.56292 0.53833 0.89939 0.0
C339 C 0.62393 0.55076 0.86611 0.0
C340 C 0.66667 0.56414 0.86532 0.0
C341 C 0.60631 0.55508 0.89726 0.0
C342 C 0.69266 0.58558 0.89453 0.0
C343 C 0.67543 0.59053 0.92556 0.0
H344 H 0.1476 0.57479 0.45784 0.0
H345 H 0.10821 0.64737 0.49429 0.0
H346 H 0.15767 0.69878 0.45208 0.0
H347 H 0.20876 0.72177 0.40218 0.0
H348 H 0.24802 0.64943 0.36491 0.0
H349 H 0.20196 0.5994 0.41002 0.0
C350 C 0.15025 0.60206 0.45701 0.0
C351 C 0.12401 0.60704 0.47933 0.0
C352 C 0.17841 0.63144 0.43216 0.0
C353 C 0.12787 0.64259 0.47755 0.0
C354 C 0.15607 0.67201 0.45324 0.0
C355 C 0.20741 0.69512 0.40391 0.0
C356 C 0.23167 0.68935 0.37984 0.0
C357 C 0.18088 0.66649 0.42994 0.0
C358 C 0.2297 0.65471 0.38291 0.0
C359 C 0.20331 0.62604 0.40874 0.0
H360 H 0.4353 0.04316 0.92818 0.0
H361 H 0.53163 0.03415 0.88077 0.0
H362 H 0.54441 0.08208 0.8336 0.0
H363 H 0.53314 0.13074 0.80959 0.0
H364 H 0.43856 0.14212 0.8574 0.0
H365 H 0.41942 0.08842 0.90015 0.0
C366 C 0.45836 0.05103 0.90702 0.0
C367 C 0.48273 0.03527 0.90813 0.0
C368 C 0.46602 0.07919 0.88023 0.0
C369 C 0.51286 0.04617 0.88073 0.0
C370 C 0.52016 0.07356 0.85377 0.0
C371 C 0.50797 0.12128 0.82906 0.0
C372 C 0.48765 0.14077 0.83053 0.0
C373 C 0.49774 0.09099 0.85386 0.0
C374 C 0.45479 0.12772 0.85569 0.0
C375 C 0.44399 0.09712 0.88028 0.0
H376 H 0.43301 0.56233 0.44611 0.0
H377 H 0.37356 0.44491 0.48635 0.0
H378 H 0.31406 0.42438 0.44567 0.0
H379 H 0.28082 0.4388 0.39655 0.0
H380 H 0.34077 0.55525 0.35339 0.0
H381 H 0.39818 0.57716 0.39735 0.0
C382 C 0.4067 0.53237 0.44634 0.0
C383 C 0.40763 0.50517 0.46935 0.0
C384 C 0.37292 0.52054 0.42212 0.0
C385 C 0.37363 0.46637 0.46891 0.0
C386 C 0.33963 0.4546 0.4456 0.0
C387 C 0.30626 0.46907 0.39677 0.0
C388 C 0.30646 0.4953 0.37155 0.0
C389 C 0.33927 0.48129 0.42171 0.0
C390 C 0.33981 0.5344 0.37241 0.0
C391 C 0.37265 0.54694 0.39756 0.0
H392 H 0.04222 0.48276 0.87215 0.0
H393 H 0.97875 0.41722 0.97034 0.0
H394 H 0.94066 0.35808 0.93599 0.0
H395 H 0.91989 0.32586 0.87718 0.0
H396 H 0.98323 0.39105 0.77875 0.0
H397 H 0.02754 0.44886 0.81422 0.0
C398 C 0.02072 0.4555 0.8862 0.0
C399 C 1.01281 0.45482 0.92374 0.0
C400 C 0.99872 0.42132 0.86619 0.0
C401 C 0.98468 0.41898 0.94134 0.0
C402 C 0.963 0.38498 0.92173 0.0
C403 C 0.94393 0.35248 0.86349 0.0
C404 C 0.94772 0.35402 0.82521 0.0
C405 C 0.96889 0.38593 0.88397 0.0
C406 C 0.97931 0.38888 0.80813 0.0
C407 C 1.00459 0.42214 0.82839 0.0
H408 H 0.9171 0.50665 0.91255 0.0
H409 H 0.89483 0.543 1.01344 0.0
H410 H 0.83059 0.53426 0.98777 0.0
H411 H 0.78551 0.52321 0.93407 0.0
H412 H 0.80809 0.48568 0.83381 0.0
H413 H 0.867 0.48728 0.86206 0.0
C414 C 0.89787 0.51221 0.92909 0.0
C415 C 0.91094 0.52602 0.96462 0.0
C416 C 0.86113 0.50701 0.91419 0.0
C417 C 0.88543 0.53243 0.986 0.0
C418 C 0.84885 0.52762 0.97123 0.0
C419 C 0.80284 0.51471 0.91858 0.0
C420 C 0.79263 0.50488 0.88162 0.0
C421 C 0.83703 0.51592 0.93499 0.0
C422 C 0.8152 0.49354 0.86217 0.0
C423 C 0.84914 0.49467 0.87826 0.0
H424 H 0.46525 0.94175 0.49258 0.0
H425 H 0.42932 0.01931 0.45857 0.0
H426 H 0.37725 0.97124 0.41689 0.0
H427 H 0.34633 0.90911 0.38569 0.0
H428 H 0.38444 0.83302 0.41969 0.0
H429 H 0.43082 0.87835 0.4653 0.0
C430 C 0.44547 0.94791 0.47665 0.0
C431 C 0.45144 0.98424 0.47871 0.0
C432 C 0.4162 0.92048 0.45209 0.0
C433 C 0.42559 0.99166 0.45753 0.0
C434 C 0.39588 0.96422 0.43348 0.0
C435 C 0.36448 0.90234 0.40333 0.0
C436 C 0.36204 0.86776 0.3988 0.0
C437 C 0.39165 0.92886 0.42976 0.0
C438 C 0.38577 0.85947 0.42211 0.0
C439 C 0.41241 0.88541 0.44841 0.0
H440 H 0.55301 0.38856 0.98516 0.0
H441 H 0.43839 0.37778 0.95275 0.0
H442 H 0.43439 0.34363 0.89838 0.0
H443 H 0.46265 0.3164 0.86027 0.0
H444 H 0.57791 0.32731 0.89052 0.0
H445 H 0.58268 0.362 0.94531 0.0
C446 C 0.52707 0.37844 0.96627 0.0
C447 C 0.49594 0.38565 0.97307 0.0
C448 C 0.52521 0.35904 0.93461 0.0
C449 C 0.46286 0.3729 0.94804 0.0
C450 C 0.4605 0.35327 0.91698 0.0
C451 C 0.48895 0.32635 0.87875 0.0
C452 C 0.51978 0.31903 0.8713 0.0
C453 C 0.49146 0.34621 0.90998 0.0
C454 C 0.55376 0.33255 0.8955 0.0
C455 C 0.55638 0.35226 0.92693 0.0
H456 H 0.01916 0.43502 0.43853 0.0
H457 H 1.00517 0.50581 0.35942 0.0
H458 H 0.05253 0.50353 0.3179 0.0
H459 H 0.10531 0.48925 0.30753 0.0
H460 H 0.12085 0.41886 0.38549 0.0
H461 H 0.06543 0.41289 0.42399 0.0
C462 C 0.02603 0.44941 0.41196 0.0
C463 C 1.00886 0.47088 0.40236 0.0
C464 C 0.05392 0.4484 0.38821 0.0
C465 C 0.01754 0.48888 0.36757 0.0
C466 C 0.04503 0.48792 0.34387 0.0
C467 C 0.0959 0.47196 0.33264 0.0
C468 C 0.11714 0.45479 0.344 0.0
C469 C 0.06443 0.46892 0.35443 0.0
C470 C 0.10466 0.43215 0.37627 0.0
C471 C 0.07327 0.42905 0.39834 0.0
H472 H 0.70869 0.11188 0.99969 0.0
H473 H 0.60014 0.11084 0.96477 0.0
H474 H 0.64178 0.15899 0.91675 0.0
H475 H 0.70787 0.19666 0.8805 0.0
H476 H 0.81515 0.19576 0.91638 0.0
H477 H 0.77536 0.15355 0.96784 0.0
C478 C 0.69423 0.12262 0.982 0.0
C479 C 0.65127 0.10747 0.98581 0.0
C480 C 0.71814 0.14982 0.95411 0.0
C481 C 0.6332 0.12199 0.96265 0.0
C482 C 0.65696 0.14938 0.93492 0.0
C483 C 0.72262 0.18764 0.89988 0.0
C484 C 0.76437 0.19907 0.8941 0.0
C485 C 0.69927 0.16279 0.92972 0.0
C486 C 0.78297 0.18711 0.91966 0.0
C487 C 0.76024 0.16292 0.94928 0.0
H488 H 0.53707 0.587 0.39459 0.0
H489 H 0.65816 0.66251 0.44439 0.0
H490 H 0.6688 0.71678 0.40707 0.0
H491 H 0.64062 0.74413 0.36368 0.0
H492 H 0.51699 0.66766 0.31836 0.0
H493 H 0.51028 0.61295 0.35085 0.0
C494 C 0.56576 0.61529 0.39752 0.0
C495 C 0.59638 0.6205 0.42274 0.0
C496 C 0.5711 0.64655 0.37691 0.0
C497 C 0.63396 0.65736 0.42517 0.0
C498 C 0.63997 0.68861 0.404 0.0
C499 C 0.61249 0.71541 0.36079 0.0
C500 C 0.57918 0.71009 0.33902 0.0
C501 C 0.60833 0.68376 0.38029 0.0
C502 C 0.54283 0.67271 0.33544 0.0
C503 C 0.53896 0.64127 0.35389 0.0
H504 H 0.61955 0.16629 0.61479 0.0
H505 H 0.5558 0.19254 0.53356 0.0
H506 H 0.54297 0.22678 0.57859 0.0
H507 H 0.54236 0.24231 0.6424 0.0
H508 H 0.60582 0.21668 0.7244 0.0
H509 H 0.62692 0.1896 0.67773 0.0
C510 C 0.60327 0.17991 0.60697 0.0
C511 C 0.5882 0.17651 0.57098 0.0
C512 C 0.59589 0.1995 0.63314 0.0
C513 C 0.56783 0.19485 0.56096 0.0
C514 C 0.56025 0.21422 0.58678 0.0
C515 C 0.56157 0.2315 0.6499 0.0
C516 C 0.57229 0.23114 0.68671 0.0
C517 C 0.5731 0.21577 0.6231 0.0
C518 C 0.59744 0.21743 0.69616 0.0
C519 C 0.6091 0.20162 0.66954 0.0
H520 H 0.37008 0.41157 0.14826 0.0
H521 H 0.3676 0.47882 0.05763 0.0
H522 H 0.31367 0.48201 0.08846 0.0
H523 H 0.27313 0.47187 0.14371 0.0
H524 H 0.27692 0.4064 0.23529 0.0
H525 H 0.32401 0.39592 0.20125 0.0
C526 C 0.35732 0.42643 0.13493 0.0
C527 C 0.37331 0.44527 0.10075 0.0
C528 C 0.32674 0.42872 0.15312 0.0
C529 C 0.3561 0.46417 0.08391 0.0
C530 C 0.32534 0.46616 0.10162 0.0
C531 C 0.28376 0.45484 0.15613 0.0
C532 C 0.27182 0.44032 0.19223 0.0
C533 C 0.31134 0.44949 0.13665 0.0
C534 C 0.28562 0.41799 0.20764 0.0
C535 C 0.31275 0.41217 0.18823 0.0
H536 H 0.94325 0.48265 0.65768 0.0
H537 H 0.98037 0.42863 0.58308 0.0
H538 H 0.93638 0.36709 0.61595 0.0
H539 H 0.88666 0.32836 0.66468 0.0
H540 H 0.8494 0.38128 0.74043 0.0
H541 H 0.89363 0.44344 0.70777 0.0
C542 C 0.9422 0.45755 0.64891 0.0
C543 C 0.96539 0.46042 0.61798 0.0
C544 C 0.91626 0.42194 0.66771 0.0
C545 C 0.96308 0.42738 0.60678 0.0
C546 C 0.93771 0.39209 0.62546 0.0
C547 C 0.8878 0.35333 0.67405 0.0
C548 C 0.86436 0.34995 0.70491 0.0
C549 C 0.91385 0.38895 0.65566 0.0
C550 C 0.86677 0.38289 0.71663 0.0
C551 C 0.89231 0.4185 0.6981 0.0
H552 H 0.63109 0.96356 0.1002 0.0
H553 H 0.58294 0.8743 0.02063 0.0
H554 H 0.59702 0.83596 0.06203 0.0
H555 H 0.61507 0.8244 0.12329 0.0
H556 H 0.66006 0.91222 0.20416 0.0
H557 H 0.65561 0.95457 0.15969 0.0
C558 C 0.62378 0.93578 0.09186 0.0
C559 C 0.60539 0.92168 0.05746 0.0
C560 C 0.63132 0.91353 0.11611 0.0
C561 C 0.59717 0.88601 0.04679 0.0
C562 C 0.605 0.86391 0.0706 0.0
C563 C 0.62471 0.85308 0.13109 0.0
C564 C 0.63739 0.86483 0.16726 0.0
C565 C 0.62101 0.87692 0.10567 0.0
C566 C 0.64997 0.90225 0.17664 0.0
C567 C 0.64716 0.92644 0.15126 0.0
H568 H 0.51184 0.45121 0.64056 0.0
H569 H 0.56308 0.57183 0.61884 0.0
H570 H 0.61816 0.58965 0.66397 0.0
H571 H 0.65505 0.57138 0.70516 0.0
H572 H 0.60633 0.45114 0.72595 0.0
H573 H 0.54648 0.43273 0.68582 0.0
C574 C 0.53439 0.48137 0.64641 0.0
C575 C 0.53325 0.51024 0.6265 0.0
C576 C 0.5668 0.49144 0.67163 0.0
C577 C 0.56322 0.54915 0.63388 0.0
C578 C 0.59487 0.55934 0.65947 0.0
C579 C 0.63143 0.54105 0.70101 0.0
C580 C 0.6355 0.51269 0.71825 0.0
C581 C 0.59761 0.53078 0.6777 0.0
C582 C 0.60421 0.47358 0.71278 0.0
C583 C 0.57003 0.46305 0.6898 0.0
H584 H 0.13223 0.71945 0.0992 0.0
H585 H 0.09781 0.6051 0.13133 0.0
H586 H 0.13295 0.62851 0.18959 0.0
H587 H 0.1754 0.68118 0.23079 0.0
H588 H 0.21119 0.7964 0.20121 0.0
H589 H 0.17313 0.77304 0.14313 0.0
C590 C 0.13244 0.69984 0.11911 0.0
C591 C 0.11206 0.66048 0.11092 0.0
C592 C 0.15277 0.71359 0.15313 0.0
C593 C 0.1125 0.6353 0.13703 0.0
C594 C 0.13281 0.64871 0.17038 0.0
C595 C 0.1747 0.70128 0.21183 0.0
C596 C 0.1963 0.74054 0.22033 0.0
C597 C 0.15316 0.68773 0.17866 0.0
C598 C 0.19464 0.76599 0.19549 0.0
C599 C 0.17314 0.75266 0.16214 0.0
loop_
_geom_bond_atom_site_label_1
_geom_bond_atom_site_label_2
_geom_bond_distance
_geom_bond_site_symmetry_2
_ccdc_geom_bond_type
Cu0 N1 1.999 1_454 S
Cu0 O6 1.974 1_454 S
Cu0 N11 1.985 . S
Cu0 O20 1.959 . S
N1 Cu0 1.999 1_656 S
N1 C3 1.263 . S
N1 C5 1.389 1_556 S
N2 C3 1.358 . S
N2 C4 1.400 . S
C3 N1 1.263 . S
C3 N2 1.358 . S
C3 H9 0.930 . S
C4 N2 1.400 . S
C4 C5 1.351 1_556 S
C4 H21 0.930 . S
C5 N1 1.389 1_554 S
C5 C4 1.351 1_554 S
C5 H10 0.930 . S
O6 Cu0 1.974 1_656 S
O6 C16 1.282 1_655 S
C7 O8 1.261 . S
C7 O20 1.251 . S
O8 C7 1.261 . S
H9 C3 0.930 . S
H10 C5 0.930 . S
N11 Cu0 1.985 . S
N11 C13 1.335 . S
N11 C14 1.390 . S
N12 C13 1.345 . S
N12 C15 1.336 . S
C13 N11 1.335 . S
C13 N12 1.345 . S
C13 H18 0.930 . S
C14 N11 1.390 . S
C14 C15 1.346 . S
C14 H19 0.941 . S
C15 N12 1.336 . S
C15 C14 1.346 . S
C15 H22 0.929 . S
C16 O6 1.282 1_455 S
C16 O17 1.216 . S
O17 C16 1.216 . S
H18 C13 0.930 . S
H19 C14 0.941 . S
O20 Cu0 1.959 . S
O20 C7 1.251 . S
H21 C4 0.930 . S
H22 C15 0.929 . S
Cu23 N24 1.999 . S
Cu23 O29 1.974 . S
Cu23 N34 1.985 1_565 S
Cu23 O43 1.959 1_565 S
N24 Cu23 1.999 . S
N24 C26 1.263 . S
N24 C28 1.389 . S
N25 C26 1.358 . S
N25 C27 1.400 . S
C26 N24 1.263 . S
C26 N25 1.358 . S
C26 H32 0.930 . S
C27 N25 1.400 . S
C27 C28 1.351 . S
C27 H44 0.930 . S
C28 N24 1.389 . S
C28 C27 1.351 . S
C28 H33 0.930 . S
O29 Cu23 1.974 . S
O29 C39 1.282 . S
C30 O31 1.261 . S
C30 O43 1.251 . S
O31 C30 1.261 . S
H32 C26 0.930 . S
H33 C28 0.930 . S
N34 Cu23 1.985 1_545 S
N34 C36 1.335 . S
N34 C37 1.390 . S
N35 C36 1.345 . S
N35 C38 1.336 . S
C36 N34 1.335 . S
C36 N35 1.345 . S
C36 H41 0.930 . S
C37 N34 1.390 . S
C37 C38 1.346 . S
C37 H42 0.930 . S
C38 N35 1.336 . S
C38 C37 1.346 . S
C38 H45 0.929 . S
C39 O29 1.282 . S
C39 O40 1.216 1_565 S
O40 C39 1.216 1_545 S
H41 C36 0.930 . S
H42 C37 0.930 . S
O43 Cu23 1.959 1_545 S
O43 C30 1.251 . S
H44 C27 0.930 . S
H45 C38 0.929 . S
Cu46 N47 1.999 1_554 S
Cu46 O52 1.974 1_554 S
Cu46 N57 1.985 . S
Cu46 O66 1.959 . S
N47 Cu46 1.999 1_556 S
N47 C49 1.263 . S
N47 C51 1.389 . S
N48 C49 1.358 . S
N48 C50 1.400 . S
C49 N47 1.263 . S
C49 N48 1.358 . S
C49 H55 0.930 . S
C50 N48 1.400 . S
C50 C51 1.351 . S
C50 H67 0.930 . S
C51 N47 1.389 . S
C51 C50 1.351 . S
C51 H56 0.930 . S
O52 Cu46 1.974 1_556 S
O52 C62 1.282 . S
C53 O54 1.261 . S
C53 O66 1.251 . S
O54 C53 1.261 . S
H55 C49 0.930 . S
H56 C51 0.930 . S
N57 Cu46 1.985 . S
N57 C59 1.335 . S
N57 C60 1.390 . S
N58 C59 1.345 . S
N58 C61 1.336 . S
C59 N57 1.335 . S
C59 N58 1.345 . S
C59 H64 0.930 . S
C60 N57 1.390 . S
C60 C61 1.346 . S
C60 H65 0.930 . S
C61 N58 1.336 . S
C61 C60 1.346 . S
C61 H68 0.929 . S
C62 O52 1.282 . S
C62 O63 1.216 1_556 S
O63 C62 1.216 1_554 S
H64 C59 0.930 . S
H65 C60 0.930 . S
O66 Cu46 1.959 . S
O66 C53 1.251 . S
H67 C50 0.930 . S
H68 C61 0.929 . S
Cu69 N70 1.999 1_655 S
Cu69 O75 1.974 1_655 S
Cu69 N80 1.985 . S
Cu69 O89 1.959 . S
N70 Cu69 1.999 1_455 S
N70 C72 1.263 . S
N70 C74 1.389 1_455 S
N71 C72 1.358 . S
N71 C73 1.412 . S
C72 N70 1.263 . S
C72 N71 1.358 . S
C72 H78 0.930 . S
C73 N71 1.412 . S
C73 C74 1.332 1_455 S
C73 H90 0.937 1_455 S
C74 N70 1.389 1_655 S
C74 C73 1.332 1_655 S
C74 H79 0.930 . S
O75 Cu69 1.974 1_455 S
O75 C85 1.282 . S
C76 O77 1.261 1_655 S
C76 O89 1.251 . S
O77 C76 1.261 1_455 S
H78 C72 0.930 . S
H79 C74 0.930 . S
N80 Cu69 1.985 . S
N80 C82 1.335 . S
N80 C83 1.390 . S
N81 C82 1.345 . S
N81 C84 1.336 . S
C82 N80 1.335 . S
C82 N81 1.345 . S
C82 H87 0.930 . S
C83 N80 1.390 . S
C83 C84 1.346 . S
C83 H88 0.930 1_655 S
C84 N81 1.336 . S
C84 C83 1.346 . S
C84 H91 0.929 . S
C85 O75 1.282 . S
C85 O86 1.216 . S
O86 C85 1.216 . S
H87 C82 0.930 . S
H88 C83 0.930 1_455 S
O89 Cu69 1.959 . S
O89 C76 1.251 . S
H90 C73 0.937 1_655 S
H91 C84 0.929 . S
Cu92 N93 1.999 1_554 S
Cu92 O98 1.974 1_554 S
Cu92 N103 1.985 1_545 S
Cu92 O112 1.959 1_545 S
N93 Cu92 1.999 1_556 S
N93 C95 1.263 . S
N93 C97 1.389 1_556 S
N94 C95 1.358 . S
N94 C96 1.400 . S
C95 N93 1.263 . S
C95 N94 1.358 . S
C95 H101 0.930 . S
C96 N94 1.400 . S
C96 C97 1.351 1_556 S
C96 H113 0.930 . S
C97 N93 1.389 1_554 S
C97 C96 1.351 1_554 S
C97 H102 0.930 . S
O98 Cu92 1.974 1_556 S
O98 C108 1.282 . S
C99 O100 1.261 . S
C99 O112 1.251 . S
O100 C99 1.261 . S
H101 C95 0.930 . S
H102 C97 0.930 . S
N103 Cu92 1.985 1_565 S
N103 C105 1.335 . S
N103 C106 1.390 . S
N104 C105 1.345 . S
N104 C107 1.336 . S
C105 N103 1.335 . S
C105 N104 1.345 . S
C105 H110 0.930 . S
C106 N103 1.390 . S
C106 C107 1.346 . S
C106 H111 0.930 . S
C107 N104 1.336 . S
C107 C106 1.346 . S
C107 H114 0.929 . S
C108 O98 1.282 . S
C108 O109 1.216 1_545 S
O109 C108 1.216 1_565 S
H110 C105 0.930 . S
H111 C106 0.930 . S
O112 Cu92 1.959 1_565 S
O112 C99 1.251 . S
H113 C96 0.930 . S
H114 C107 0.929 . S
Cu115 N116 1.999 . S
Cu115 O121 1.974 . S
Cu115 N126 1.985 . S
Cu115 O135 1.959 . S
N116 Cu115 1.999 . S
N116 C118 1.263 . S
N116 C120 1.389 . S
N117 C118 1.358 . S
N117 C119 1.400 . S
C118 N116 1.263 . S
C118 N117 1.358 . S
C118 H124 0.930 . S
C119 N117 1.400 . S
C119 C120 1.351 . S
C119 H136 0.930 . S
C120 N116 1.389 . S
C120 C119 1.351 . S
C120 H125 0.930 . S
O121 Cu115 1.974 . S
O121 C131 1.282 . S
C122 O123 1.261 . S
C122 O135 1.251 . S
O123 C122 1.261 . S
H124 C118 0.930 . S
H125 C120 0.930 . S
N126 Cu115 1.985 . S
N126 C128 1.335 . S
N126 C129 1.390 . S
N127 C128 1.345 . S
N127 C130 1.336 . S
C128 N126 1.335 . S
C128 N127 1.345 . S
C128 H133 0.930 . S
C129 N126 1.390 . S
C129 C130 1.346 . S
C129 H134 0.930 . S
C130 N127 1.336 . S
C130 C129 1.346 . S
C130 H137 0.929 . S
C131 O121 1.282 . S
C131 O132 1.216 . S
O132 C131 1.216 . S
H133 C128 0.930 . S
H134 C129 0.930 . S
O135 Cu115 1.959 . S
O135 C122 1.251 . S
H136 C119 0.930 . S
H137 C130 0.929 . S
Mg138 O145 2.141 . S
Mg138 O146 2.048 . S
Mg138 O147 2.048 . S
Mg138 O150 2.141 . S
C139 O140 1.313 . S
C139 O146 1.195 . S
O140 C139 1.313 . S
C141 O142 1.245 . S
C141 O150 1.289 . S
O142 C141 1.245 . S
C143 O144 1.245 . S
C143 O145 1.289 . S
O144 C143 1.245 . S
O145 Mg138 2.141 . S
O145 C143 1.289 . S
O146 Mg138 2.048 . S
O146 C139 1.195 . S
O147 Mg138 2.048 . S
O147 C148 1.195 . S
C148 O147 1.195 . S
C148 O149 1.313 . S
O149 C148 1.313 . S
O150 Mg138 2.141 . S
O150 C141 1.289 . S
Mg151 O158 2.141 . S
Mg151 O159 2.048 . S
Mg151 O160 2.048 . S
Mg151 O163 2.141 . S
C152 O153 1.313 . S
C152 O159 1.195 . S
O153 C152 1.313 . S
C154 O155 1.245 . S
C154 O163 1.289 . S
O155 C154 1.245 . S
C156 O157 1.245 . S
C156 O158 1.289 . S
O157 C156 1.245 . S
O158 Mg151 2.141 . S
O158 C156 1.289 . S
O159 Mg151 2.048 . S
O159 C152 1.195 . S
O160 Mg151 2.048 . S
O160 C161 1.195 . S
C161 O160 1.195 . S
C161 O162 1.313 . S
O162 C161 1.313 . S
O163 Mg151 2.141 . S
O163 C154 1.289 . S
Mg164 O171 2.141 . S
Mg164 O172 2.048 . S
Mg164 O173 2.048 . S
Mg164 O176 2.141 . S
C165 O166 1.313 . S
C165 O172 1.195 . S
O166 C165 1.313 . S
C167 O168 1.245 . S
C167 O176 1.289 . S
O168 C167 1.245 . S
C169 O170 1.245 . S
C169 O171 1.289 . S
O170 C169 1.245 . S
O171 Mg164 2.141 . S
O171 C169 1.289 . S
O172 Mg164 2.048 . S
O172 C165 1.195 . S
O173 Mg164 2.048 . S
O173 C174 1.195 . S
C174 O173 1.195 . S
C174 O175 1.313 . S
O175 C174 1.313 . S
O176 Mg164 2.141 . S
O176 C167 1.289 . S
Mg177 O184 2.141 . S
Mg177 O185 2.048 . S
Mg177 O186 2.048 . S
Mg177 O189 2.141 . S
C178 O179 1.313 . S
C178 O185 1.195 . S
O179 C178 1.313 . S
C180 O181 1.245 . S
C180 O189 1.289 . S
O181 C180 1.245 . S
C182 O183 1.245 . S
C182 O184 1.289 . S
O183 C182 1.245 . S
O184 Mg177 2.141 . S
O184 C182 1.289 . S
O185 Mg177 2.048 . S
O185 C178 1.195 . S
O186 Mg177 2.048 . S
O186 C187 1.195 . S
C187 O186 1.195 . S
C187 O188 1.313 . S
O188 C187 1.313 . S
O189 Mg177 2.141 . S
O189 C180 1.289 . S
Mg190 O197 2.141 . S
Mg190 O198 2.048 . S
Mg190 O199 2.048 . S
Mg190 O202 2.141 . S
C191 O192 1.313 . S
C191 O198 1.195 . S
O192 C191 1.313 . S
C193 O194 1.245 . S
C193 O202 1.289 . S
O194 C193 1.245 . S
C195 O196 1.245 . S
C195 O197 1.289 . S
O196 C195 1.245 . S
O197 Mg190 2.141 . S
O197 C195 1.289 . S
O198 Mg190 2.048 . S
O198 C191 1.195 . S
O199 Mg190 2.048 . S
O199 C200 1.195 . S
C200 O199 1.195 . S
C200 O201 1.313 . S
O201 C200 1.313 . S
O202 Mg190 2.141 . S
O202 C193 1.289 . S
Mg203 O210 2.141 . S
Mg203 O211 2.048 . S
Mg203 O212 2.048 . S
Mg203 O215 2.141 . S
C204 O205 1.313 . S
C204 O211 1.195 . S
O205 C204 1.313 . S
C206 O207 1.245 . S
C206 O215 1.289 . S
O207 C206 1.245 . S
C208 O209 1.245 . S
C208 O210 1.289 . S
O209 C208 1.245 . S
O210 Mg203 2.141 . S
O210 C208 1.289 . S
O211 Mg203 2.048 . S
O211 C204 1.195 . S
O212 Mg203 2.048 . S
O212 C213 1.195 . S
C213 O212 1.195 . S
C213 O214 1.313 . S
O214 C213 1.313 . S
O215 Mg203 2.141 . S
O215 C206 1.289 . S
H216 C222 0.930 . S
H217 C225 0.930 . S
H218 C226 0.930 . S
H219 C227 0.930 . S
H220 C230 0.930 . S
H221 C231 0.930 . S
C222 H216 0.930 . S
C222 C223 1.355 . S
C222 C224 1.415 . S
C223 C222 1.355 . S
C223 C225 1.419 . S
C224 C222 1.415 . S
C224 C229 1.425 . S
C224 C231 1.409 . S
C225 H217 0.930 . S
C225 C223 1.419 . S
C225 C226 1.362 . S
C226 H218 0.930 . S
C226 C225 1.362 . S
C226 C229 1.409 . S
C227 H219 0.930 . S
C227 C228 1.355 . S
C227 C229 1.415 . S
C228 C227 1.355 . S
C228 C230 1.419 . S
C229 C224 1.425 . S
C229 C226 1.409 . S
C229 C227 1.415 . S
C230 H220 0.930 . S
C230 C228 1.419 . S
C230 C231 1.362 . S
C231 H221 0.930 . S
C231 C224 1.409 . S
C231 C230 1.362 . S
H232 C238 0.930 . S
H233 C241 0.930 . S
H234 C242 0.930 . S
H235 C243 0.930 . S
H236 C246 0.930 . S
H237 C247 0.930 . S
C238 H232 0.930 . S
C238 C239 1.355 . S
C238 C240 1.415 . S
C239 C238 1.355 . S
C239 C241 1.419 . S
C240 C238 1.415 . S
C240 C245 1.425 . S
C240 C247 1.409 . S
C241 H233 0.930 . S
C241 C239 1.419 . S
C241 C242 1.362 . S
C242 H234 0.930 . S
C242 C241 1.362 . S
C242 C245 1.409 . S
C243 H235 0.930 . S
C243 C244 1.355 . S
C243 C245 1.415 . S
C244 C243 1.355 . S
C244 C246 1.419 . S
C245 C240 1.425 . S
C245 C242 1.409 . S
C245 C243 1.415 . S
C246 H236 0.930 . S
C246 C244 1.419 . S
C246 C247 1.362 . S
C247 H237 0.930 . S
C247 C240 1.409 . S
C247 C246 1.362 . S
H248 C254 0.930 . S
H249 C257 0.930 . S
H250 C258 0.930 . S
H251 C259 0.930 . S
H252 C262 0.930 . S
H253 C263 0.930 . S
C254 H248 0.930 . S
C254 C255 1.355 . S
C254 C256 1.415 . S
C255 C254 1.355 . S
C255 C257 1.419 . S
C256 C254 1.415 . S
C256 C261 1.425 . S
C256 C263 1.409 . S
C257 H249 0.930 . S
C257 C255 1.419 . S
C257 C258 1.362 . S
C258 H250 0.930 . S
C258 C257 1.362 . S
C258 C261 1.409 . S
C259 H251 0.930 . S
C259 C260 1.355 . S
C259 C261 1.415 . S
C260 C259 1.355 . S
C260 C262 1.419 . S
C261 C256 1.425 . S
C261 C258 1.409 . S
C261 C259 1.415 . S
C262 H252 0.930 . S
C262 C260 1.419 . S
C262 C263 1.362 . S
C263 H253 0.930 . S
C263 C256 1.409 . S
C263 C262 1.362 . S
H264 C270 0.930 . S
H265 C273 0.930 . S
H266 C274 0.930 . S
H267 C275 0.930 . S
H268 C278 0.930 . S
H269 C279 0.930 . S
C270 H264 0.930 . S
C270 C271 1.355 . S
C270 C272 1.415 . S
C271 C270 1.355 . S
C271 C273 1.419 . S
C272 C270 1.415 . S
C272 C277 1.425 . S
C272 C279 1.409 . S
C273 H265 0.930 . S
C273 C271 1.419 . S
C273 C274 1.362 . S
C274 H266 0.930 . S
C274 C273 1.362 . S
C274 C277 1.409 . S
C275 H267 0.930 . S
C275 C276 1.355 . S
C275 C277 1.415 . S
C276 C275 1.355 . S
C276 C278 1.419 . S
C277 C272 1.425 . S
C277 C274 1.409 . S
C277 C275 1.415 . S
C278 H268 0.930 . S
C278 C276 1.419 . S
C278 C279 1.362 . S
C279 H269 0.930 . S
C279 C272 1.409 . S
C279 C278 1.362 . S
H280 C286 0.930 . S
H281 C289 0.930 . S
H282 C290 0.930 . S
H283 C291 0.930 . S
H284 C294 0.930 . S
H285 C295 0.930 . S
C286 H280 0.930 . S
C286 C287 1.355 . S
C286 C288 1.415 . S
C287 C286 1.355 . S
C287 C289 1.419 . S
C288 C286 1.415 . S
C288 C293 1.425 . S
C288 C295 1.409 . S
C289 H281 0.930 . S
C289 C287 1.419 . S
C289 C290 1.362 . S
C290 H282 0.930 . S
C290 C289 1.362 . S
C290 C293 1.409 . S
C291 H283 0.930 . S
C291 C292 1.355 . S
C291 C293 1.415 . S
C292 C291 1.355 . S
C292 C294 1.419 . S
C293 C288 1.425 . S
C293 C290 1.409 . S
C293 C291 1.415 . S
C294 H284 0.930 . S
C294 C292 1.419 . S
C294 C295 1.362 . S
C295 H285 0.930 . S
C295 C288 1.409 . S
C295 C294 1.362 . S
H296 C302 0.930 . S
H297 C305 0.930 . S
H298 C306 0.930 . S
H299 C307 0.930 . S
H300 C310 0.930 . S
H301 C311 0.930 . S
C302 H296 0.930 . S
C302 C303 1.355 . S
C302 C304 1.415 . S
C303 C302 1.355 . S
C303 C305 1.419 . S
C304 C302 1.415 . S
C304 C309 1.425 . S
C304 C311 1.409 . S
C305 H297 0.930 . S
C305 C303 1.419 . S
C305 C306 1.362 . S
C306 H298 0.930 . S
C306 C305 1.362 . S
C306 C309 1.409 . S
C307 H299 0.930 . S
C307 C308 1.355 . S
C307 C309 1.415 . S
C308 C307 1.355 . S
C308 C310 1.419 . S
C309 C304 1.425 . S
C309 C306 1.409 . S
C309 C307 1.415 . S
C310 H300 0.930 . S
C310 C308 1.419 . S
C310 C311 1.362 . S
C311 H301 0.930 . S
C311 C304 1.409 . S
C311 C310 1.362 . S
H312 C318 0.930 . S
H313 C321 0.930 . S
H314 C322 0.930 . S
H315 C323 0.930 . S
H316 C326 0.930 . S
H317 C327 0.930 . S
C318 H312 0.930 . S
C318 C319 1.355 . S
C318 C320 1.415 . S
C319 C318 1.355 . S
C319 C321 1.419 . S
C320 C318 1.415 . S
C320 C325 1.425 . S
C320 C327 1.409 . S
C321 H313 0.930 . S
C321 C319 1.419 . S
C321 C322 1.362 . S
C322 H314 0.930 . S
C322 C321 1.362 . S
C322 C325 1.409 . S
C323 H315 0.930 . S
C323 C324 1.355 . S
C323 C325 1.415 . S
C324 C323 1.355 . S
C324 C326 1.419 . S
C325 C320 1.425 . S
C325 C322 1.409 . S
C325 C323 1.415 . S
C326 H316 0.930 . S
C326 C324 1.419 . S
C326 C327 1.362 . S
C327 H317 0.930 . S
C327 C320 1.409 . S
C327 C326 1.362 . S
H328 C334 0.930 . S
H329 C337 0.930 . S
H330 C338 0.930 . S
H331 C339 0.930 . S
H332 C342 0.930 . S
H333 C343 0.930 . S
C334 H328 0.930 . S
C334 C335 1.355 . S
C334 C336 1.415 . S
C335 C334 1.355 . S
C335 C337 1.419 . S
C336 C334 1.415 . S
C336 C341 1.425 . S
C336 C343 1.409 . S
C337 H329 0.930 . S
C337 C335 1.419 . S
C337 C338 1.362 . S
C338 H330 0.930 . S
C338 C337 1.362 . S
C338 C341 1.409 . S
C339 H331 0.930 . S
C339 C340 1.355 . S
C339 C341 1.415 . S
C340 C339 1.355 . S
C340 C342 1.419 . S
C341 C336 1.425 . S
C341 C338 1.409 . S
C341 C339 1.415 . S
C342 H332 0.930 . S
C342 C340 1.419 . S
C342 C343 1.362 . S
C343 H333 0.930 . S
C343 C336 1.409 . S
C343 C342 1.362 . S
H344 C350 0.930 . S
H345 C353 0.930 . S
H346 C354 0.930 . S
H347 C355 0.930 . S
H348 C358 0.930 . S
H349 C359 0.930 . S
C350 H344 0.930 . S
C350 C351 1.355 . S
C350 C352 1.415 . S
C351 C350 1.355 . S
C351 C353 1.419 . S
C352 C350 1.415 . S
C352 C357 1.425 . S
C352 C359 1.409 . S
C353 H345 0.930 . S
C353 C351 1.419 . S
C353 C354 1.362 . S
C354 H346 0.930 . S
C354 C353 1.362 . S
C354 C357 1.409 . S
C355 H347 0.930 . S
C355 C356 1.355 . S
C355 C357 1.415 . S
C356 C355 1.355 . S
C356 C358 1.419 . S
C357 C352 1.425 . S
C357 C354 1.409 . S
C357 C355 1.415 . S
C358 H348 0.930 . S
C358 C356 1.419 . S
C358 C359 1.362 . S
C359 H349 0.930 . S
C359 C352 1.409 . S
C359 C358 1.362 . S
H360 C366 0.930 . S
H361 C369 0.930 . S
H362 C370 0.930 . S
H363 C371 0.930 . S
H364 C374 0.930 . S
H365 C375 0.930 . S
C366 H360 0.930 . S
C366 C367 1.355 . S
C366 C368 1.415 . S
C367 C366 1.355 . S
C367 C369 1.419 . S
C368 C366 1.415 . S
C368 C373 1.425 . S
C368 C375 1.409 . S
C369 H361 0.930 . S
C369 C367 1.419 . S
C369 C370 1.362 . S
C370 H362 0.930 . S
C370 C369 1.362 . S
C370 C373 1.409 . S
C371 H363 0.930 . S
C371 C372 1.355 . S
C371 C373 1.415 . S
C372 C371 1.355 . S
C372 C374 1.419 . S
C373 C368 1.425 . S
C373 C370 1.409 . S
C373 C371 1.415 . S
C374 H364 0.930 . S
C374 C372 1.419 . S
C374 C375 1.362 . S
C375 H365 0.930 . S
C375 C368 1.409 . S
C375 C374 1.362 . S
H376 C382 0.930 . S
H377 C385 0.930 . S
H378 C386 0.930 . S
H379 C387 0.930 . S
H380 C390 0.930 . S
H381 C391 0.930 . S
C382 H376 0.930 . S
C382 C383 1.355 . S
C382 C384 1.415 . S
C383 C382 1.355 . S
C383 C385 1.419 . S
C384 C382 1.415 . S
C384 C389 1.425 . S
C384 C391 1.409 . S
C385 H377 0.930 . S
C385 C383 1.419 . S
C385 C386 1.362 . S
C386 H378 0.930 . S
C386 C385 1.362 . S
C386 C389 1.409 . S
C387 H379 0.930 . S
C387 C388 1.355 . S
C387 C389 1.415 . S
C388 C387 1.355 . S
C388 C390 1.419 . S
C389 C384 1.425 . S
C389 C386 1.409 . S
C389 C387 1.415 . S
C390 H380 0.930 . S
C390 C388 1.419 . S
C390 C391 1.362 . S
C391 H381 0.930 . S
C391 C384 1.409 . S
C391 C390 1.362 . S
H392 C398 0.930 . S
H393 C401 0.930 . S
H394 C402 0.930 . S
H395 C403 0.930 . S
H396 C406 0.930 . S
H397 C407 0.930 . S
C398 H392 0.930 . S
C398 C399 1.355 . S
C398 C400 1.415 . S
C399 C398 1.355 . S
C399 C401 1.419 . S
C400 C398 1.415 . S
C400 C405 1.425 . S
C400 C407 1.409 . S
C401 H393 0.930 . S
C401 C399 1.419 . S
C401 C402 1.362 . S
C402 H394 0.930 . S
C402 C401 1.362 . S
C402 C405 1.409 . S
C403 H395 0.930 . S
C403 C404 1.355 . S
C403 C405 1.415 . S
C404 C403 1.355 . S
C404 C406 1.419 . S
C405 C400 1.425 . S
C405 C402 1.409 . S
C405 C403 1.415 . S
C406 H396 0.930 . S
C406 C404 1.419 . S
C406 C407 1.362 . S
C407 H397 0.930 . S
C407 C400 1.409 . S
C407 C406 1.362 . S
H408 C414 0.930 . S
H409 C417 0.930 . S
H410 C418 0.930 . S
H411 C419 0.930 . S
H412 C422 0.930 . S
H413 C423 0.930 . S
C414 H408 0.930 . S
C414 C415 1.355 . S
C414 C416 1.415 . S
C415 C414 1.355 . S
C415 C417 1.419 . S
C416 C414 1.415 . S
C416 C421 1.425 . S
C416 C423 1.409 . S
C417 H409 0.930 . S
C417 C415 1.419 . S
C417 C418 1.362 . S
C418 H410 0.930 . S
C418 C417 1.362 . S
C418 C421 1.409 . S
C419 H411 0.930 . S
C419 C420 1.355 . S
C419 C421 1.415 . S
C420 C419 1.355 . S
C420 C422 1.419 . S
C421 C416 1.425 . S
C421 C418 1.409 . S
C421 C419 1.415 . S
C422 H412 0.930 . S
C422 C420 1.419 . S
C422 C423 1.362 . S
C423 H413 0.930 . S
C423 C416 1.409 . S
C423 C422 1.362 . S
H424 C430 0.930 . S
H425 C433 0.930 . S
H426 C434 0.930 . S
H427 C435 0.930 . S
H428 C438 0.930 . S
H429 C439 0.930 . S
C430 H424 0.930 . S
C430 C431 1.355 . S
C430 C432 1.415 . S
C431 C430 1.355 . S
C431 C433 1.419 . S
C432 C430 1.415 . S
C432 C437 1.425 . S
C432 C439 1.409 . S
C433 H425 0.930 . S
C433 C431 1.419 . S
C433 C434 1.362 . S
C434 H426 0.930 . S
C434 C433 1.362 . S
C434 C437 1.409 . S
C435 H427 0.930 . S
C435 C436 1.355 . S
C435 C437 1.415 . S
C436 C435 1.355 . S
C436 C438 1.419 . S
C437 C432 1.425 . S
C437 C434 1.409 . S
C437 C435 1.415 . S
C438 H428 0.930 . S
C438 C436 1.419 . S
C438 C439 1.362 . S
C439 H429 0.930 . S
C439 C432 1.409 . S
C439 C438 1.362 . S
H440 C446 0.930 . S
H441 C449 0.930 . S
H442 C450 0.930 . S
H443 C451 0.930 . S
H444 C454 0.930 . S
H445 C455 0.930 . S
C446 H440 0.930 . S
C446 C447 1.355 . S
C446 C448 1.415 . S
C447 C446 1.355 . S
C447 C449 1.419 . S
C448 C446 1.415 . S
C448 C453 1.425 . S
C448 C455 1.409 . S
C449 H441 0.930 . S
C449 C447 1.419 . S
C449 C450 1.362 . S
C450 H442 0.930 . S
C450 C449 1.362 . S
C450 C453 1.409 . S
C451 H443 0.930 . S
C451 C452 1.355 . S
C451 C453 1.415 . S
C452 C451 1.355 . S
C452 C454 1.419 . S
C453 C448 1.425 . S
C453 C450 1.409 . S
C453 C451 1.415 . S
C454 H444 0.930 . S
C454 C452 1.419 . S
C454 C455 1.362 . S
C455 H445 0.930 . S
C455 C448 1.409 . S
C455 C454 1.362 . S
H456 C462 0.930 . S
H457 C465 0.930 . S
H458 C466 0.930 . S
H459 C467 0.930 . S
H460 C470 0.930 . S
H461 C471 0.930 . S
C462 H456 0.930 . S
C462 C463 1.355 . S
C462 C464 1.415 . S
C463 C462 1.355 . S
C463 C465 1.419 . S
C464 C462 1.415 . S
C464 C469 1.425 . S
C464 C471 1.409 . S
C465 H457 0.930 . S
C465 C463 1.419 . S
C465 C466 1.362 . S
C466 H458 0.930 . S
C466 C465 1.362 . S
C466 C469 1.409 . S
C467 H459 0.930 . S
C467 C468 1.355 . S
C467 C469 1.415 . S
C468 C467 1.355 . S
C468 C470 1.419 . S
C469 C464 1.425 . S
C469 C466 1.409 . S
C469 C467 1.415 . S
C470 H460 0.930 . S
C470 C468 1.419 . S
C470 C471 1.362 . S
C471 H461 0.930 . S
C471 C464 1.409 . S
C471 C470 1.362 . S
H472 C478 0.930 . S
H473 C481 0.930 . S
H474 C482 0.930 . S
H475 C483 0.930 . S
H476 C486 0.930 . S
H477 C487 0.930 . S
C478 H472 0.930 . S
C478 C479 1.355 . S
C478 C480 1.415 . S
C479 C478 1.355 . S
C479 C481 1.419 . S
C480 C478 1.415 . S
C480 C485 1.425 . S
C480 C487 1.409 . S
C481 H473 0.930 . S
C481 C479 1.419 . S
C481 C482 1.362 . S
C482 H474 0.930 . S
C482 C481 1.362 . S
C482 C485 1.409 . S
C483 H475 0.930 . S
C483 C484 1.355 . S
C483 C485 1.415 . S
C484 C483 1.355 . S
C484 C486 1.419 . S
C485 C480 1.425 . S
C485 C482 1.409 . S
C485 C483 1.415 . S
C486 H476 0.930 . S
C486 C484 1.419 . S
C486 C487 1.362 . S
C487 H477 0.930 . S
C487 C480 1.409 . S
C487 C486 1.362 . S
H488 C494 0.930 . S
H489 C497 0.930 . S
H490 C498 0.930 . S
H491 C499 0.930 . S
H492 C502 0.930 . S
H493 C503 0.930 . S
C494 H488 0.930 . S
C494 C495 1.355 . S
C494 C496 1.415 . S
C495 C494 1.355 . S
C495 C497 1.419 . S
C496 C494 1.415 . S
C496 C501 1.425 . S
C496 C503 1.409 . S
C497 H489 0.930 . S
C497 C495 1.419 . S
C497 C498 1.362 . S
C498 H490 0.930 . S
C498 C497 1.362 . S
C498 C501 1.409 . S
C499 H491 0.930 . S
C499 C500 1.355 . S
C499 C501 1.415 . S
C500 C499 1.355 . S
C500 C502 1.419 . S
C501 C496 1.425 . S
C501 C498 1.409 . S
C501 C499 1.415 . S
C502 H492 0.930 . S
C502 C500 1.419 . S
C502 C503 1.362 . S
C503 H493 0.930 . S
C503 C496 1.409 . S
C503 C502 1.362 . S
H504 C510 0.930 . S
H505 C513 0.930 . S
H506 C514 0.930 . S
H507 C515 0.930 . S
H508 C518 0.930 . S
H509 C519 0.930 . S
C510 H504 0.930 . S
C510 C511 1.355 . S
C510 C512 1.415 . S
C511 C510 1.355 . S
C511 C513 1.419 . S
C512 C510 1.415 . S
C512 C517 1.425 . S
C512 C519 1.409 . S
C513 H505 0.930 . S
C513 C511 1.419 . S
C513 C514 1.362 . S
C514 H506 0.930 . S
C514 C513 1.362 . S
C514 C517 1.409 . S
C515 H507 0.930 . S
C515 C516 1.355 . S
C515 C517 1.415 . S
C516 C515 1.355 . S
C516 C518 1.419 . S
C517 C512 1.425 . S
C517 C514 1.409 . S
C517 C515 1.415 . S
C518 H508 0.930 . S
C518 C516 1.419 . S
C518 C519 1.362 . S
C519 H509 0.930 . S
C519 C512 1.409 . S
C519 C518 1.362 . S
H520 C526 0.930 . S
H521 C529 0.930 . S
H522 C530 0.930 . S
H523 C531 0.930 . S
H524 C534 0.930 . S
H525 C535 0.930 . S
C526 H520 0.930 . S
C526 C527 1.355 . S
C526 C528 1.415 . S
C527 C526 1.355 . S
C527 C529 1.419 . S
C528 C526 1.415 . S
C528 C533 1.425 . S
C528 C535 1.409 . S
C529 H521 0.930 . S
C529 C527 1.419 . S
C529 C530 1.362 . S
C530 H522 0.930 . S
C530 C529 1.362 . S
C530 C533 1.409 . S
C531 H523 0.930 . S
C531 C532 1.355 . S
C531 C533 1.415 . S
C532 C531 1.355 . S
C532 C534 1.419 . S
C533 C528 1.425 . S
C533 C530 1.409 . S
C533 C531 1.415 . S
C534 H524 0.930 . S
C534 C532 1.419 . S
C534 C535 1.362 . S
C535 H525 0.930 . S
C535 C528 1.409 . S
C535 C534 1.362 . S
H536 C542 0.930 . S
H537 C545 0.930 . S
H538 C546 0.930 . S
H539 C547 0.930 . S
H540 C550 0.930 . S
H541 C551 0.930 . S
C542 H536 0.930 . S
C542 C543 1.355 . S
C542 C544 1.415 . S
C543 C542 1.355 . S
C543 C545 1.419 . S
C544 C542 1.415 . S
C544 C549 1.425 . S
C544 C551 1.409 . S
C545 H537 0.930 . S
C545 C543 1.419 . S
C545 C546 1.362 . S
C546 H538 0.930 . S
C546 C545 1.362 . S
C546 C549 1.409 . S
C547 H539 0.930 . S
C547 C548 1.355 . S
C547 C549 1.415 . S
C548 C547 1.355 . S
C548 C550 1.419 . S
C549 C544 1.425 . S
C549 C546 1.409 . S
C549 C547 1.415 . S
C550 H540 0.930 . S
C550 C548 1.419 . S
C550 C551 1.362 . S
C551 H541 0.930 . S
C551 C544 1.409 . S
C551 C550 1.362 . S
H552 C558 0.930 . S
H553 C561 0.930 . S
H554 C562 0.930 . S
H555 C563 0.930 . S
H556 C566 0.930 . S
H557 C567 0.930 . S
C558 H552 0.930 . S
C558 C559 1.355 . S
C558 C560 1.415 . S
C559 C558 1.355 . S
C559 C561 1.419 . S
C560 C558 1.415 . S
C560 C565 1.425 . S
C560 C567 1.409 . S
C561 H553 0.930 . S
C561 C559 1.419 . S
C561 C562 1.362 . S
C562 H554 0.930 . S
C562 C561 1.362 . S
C562 C565 1.409 . S
C563 H555 0.930 . S
C563 C564 1.355 . S
C563 C565 1.415 . S
C564 C563 1.355 . S
C564 C566 1.419 . S
C565 C560 1.425 . S
C565 C562 1.409 . S
C565 C563 1.415 . S
C566 H556 0.930 . S
C566 C564 1.419 . S
C566 C567 1.362 . S
C567 H557 0.930 . S
C567 C560 1.409 . S
C567 C566 1.362 . S
H568 C574 0.930 . S
H569 C577 0.930 . S
H570 C578 0.930 . S
H571 C579 0.930 . S
H572 C582 0.930 . S
H573 C583 0.930 . S
C574 H568 0.930 . S
C574 C575 1.355 . S
C574 C576 1.415 . S
C575 C574 1.355 . S
C575 C577 1.419 . S
C576 C574 1.415 . S
C576 C581 1.425 . S
C576 C583 1.409 . S
C577 H569 0.930 . S
C577 C575 1.419 . S
C577 C578 1.362 . S
C578 H570 0.930 . S
C578 C577 1.362 . S
C578 C581 1.409 . S
C579 H571 0.930 . S
C579 C580 1.355 . S
C579 C581 1.415 . S
C580 C579 1.355 . S
C580 C582 1.419 . S
C581 C576 1.425 . S
C581 C578 1.409 . S
C581 C579 1.415 . S
C582 H572 0.930 . S
C582 C580 1.419 . S
C582 C583 1.362 . S
C583 H573 0.930 . S
C583 C576 1.409 . S
C583 C582 1.362 . S
H584 C590 0.930 . S
H585 C593 0.930 . S
H586 C594 0.930 . S
H587 C595 0.930 . S
H588 C598 0.930 . S
H589 C599 0.930 . S
C590 H584 0.930 . S
C590 C591 1.355 . S
C590 C592 1.415 . S
C591 C590 1.355 . S
C591 C593 1.419 . S
C592 C590 1.415 . S
C592 C597 1.425 . S
C592 C599 1.409 . S
C593 H585 0.930 . S
C593 C591 1.419 . S
C593 C594 1.362 . S
C594 H586 0.930 . S
C594 C593 1.362 . S
C594 C597 1.409 . S
C595 H587 0.930 . S
C595 C596 1.355 . S
C595 C597 1.415 . S
C596 C595 1.355 . S
C596 C598 1.419 . S
C597 C592 1.425 . S
C597 C594 1.409 . S
C597 C595 1.415 . S
C598 H588 0.930 . S
C598 C596 1.419 . S
C598 C599 1.362 . S
C599 H589 0.930 . S
C599 C592 1.409 . S
C599 C598 1.362 . S
C223 C7 1.830 . S
C228 C139 1.827 . S
C239 C30 1.626 . S
C244 C152 1.621 . S
C260 C174 1.587 . S
C255 N58 1.612 . S
C276 C187 1.465 . S
C271 N81 1.464 . S
C292 C200 1.725 . S
C287 C99 1.795 . S
C308 C213 1.394 . S
C303 N127 1.423 . S
C319 N25 1.621 . S
C324 C169 1.596 . S
C335 C62 1.620 . S
C340 C182 1.574 . S
C356 C195 1.667 . S
C351 C85 1.756 . S
C372 C208 1.419 . S
C367 N94 1.475 . S
C383 C131 1.795 . S
C388 C141 1.798 . S
C404 C154 1.499 . S
C399 N2 1.448 . S
C420 C180 1.698 . S
C415 C16 1.771 1_655 S
C431 C39 1.574 . S
C436 C193 1.490 . S
C452 C206 1.633 . S
C447 N48 1.656 . S
C463 N71 1.412 . S
C468 C143 1.480 . S
C479 C108 1.779 . S
C484 C156 1.787 . S
C495 N117 1.391 . S
C500 C167 1.345 . S
C511 N35 1.599 . S
C516 C204 1.578 . S
C532 C148 1.606 . S
C527 C53 1.615 . S
C543 C76 1.808 . S
C548 C161 1.809 . S
C559 N104 1.435 . S
C564 C165 1.437 . S
C575 C122 1.774 . S
C580 C178 1.708 . S
C591 N12 1.436 . S
C596 C191 1.408 . S
