# Generated by pormake.
# Topology pth, (4,4)-cn, num edge types: 1
# Building blocks:
#     Node 0, Type 0, BuildingBlock: UXUYUI_clean_sbu_0, # of connection points: 4
#     Node 1, Type 0, BuildingBlock: UXUYUI_clean_sbu_0, # of connection points: 4
#     Node 2, Type 0, BuildingBlock: UXUYUI_clean_sbu_0, # of connection points: 4
#     Node 3, Type 1, BuildingBlock: MUDLON_clean_sbu_0, # of connection points: 4
#     Node 4, Type 1, BuildingBlock: MUDLON_clean_sbu_0, # of connection points: 4
#     Node 5, Type 1, BuildingBlock: MUDLON_clean_sbu_0, # of connection points: 4
#     Edge 6, Type (0, 1), BuildingBlock: CIFDUS_clean_linker_0, # of connection points: 2
#     Edge 7, Type (0, 1), BuildingBlock: CIFDUS_clean_linker_0, # of connection points: 2
#     Edge 8, Type (0, 1), BuildingBlock: CIFDUS_clean_linker_0, # of connection points: 2
#     Edge 9, Type (0, 1), BuildingBlock: CIFDUS_clean_linker_0, # of connection points: 2
#     Edge 10, Type (0, 1), BuildingBlock: CIFDUS_clean_linker_0, # of connection points: 2
#     Edge 11, Type (0, 1), BuildingBlock: CIFDUS_clean_linker_0, # of connection points: 2
#     Edge 12, Type (0, 1), BuildingBlock: CIFDUS_clean_linker_0, # of connection points: 2
#     Edge 13, Type (0, 1), BuildingBlock: CIFDUS_clean_linker_0, # of connection points: 2
#     Edge 14, Type (0, 1), BuildingBlock: CIFDUS_clean_linker_0, # of connection points: 2
#     Edge 15, Type (0, 1), BuildingBlock: CIFDUS_clean_linker_0, # of connection points: 2
#     Edge 16, Type (0, 1), BuildingBlock: CIFDUS_clean_linker_0, # of connection points: 2
#     Edge 17, Type (0, 1), BuildingBlock: CIFDUS_clean_linker_0, # of connection points: 2
# Relax obj value: 0.110
# Max RMSD: 0.229
# Mean RMSD: 0.139
data_MOF--net-pth--node1-UXUYUI_clean_sbu_0--node2-MUDLON_clean_sbu_0--edge1-CIFDUS_clean_linker_0
_symmetry_space_group_name_H-M    P1
_symmetry_Int_Tables_number       1
_symmetry_cell_setting            triclinic
loop_
_symmetry_equiv_pos_as_xyz
'x, y, z'
_cell_length_a     24.98493
_cell_length_b     24.910622
_cell_length_c     65.595724
_cell_angle_alpha  90.010759
_cell_angle_beta   90.001356
_cell_angle_gamma 119.82009
loop_
_atom_site_label
_atom_site_type_symbol
_atom_site_fract_x
_atom_site_fract_y
_atom_site_fract_z
_atom_type_partial_charge
Li0 Li 0.05841 0.04544 0.09819 0.0
Li1 Li 0.99521 0.05227 0.12575 0.0
Li2 Li 0.02053 0.96839 0.12557 0.0
Li3 Li 0.9445 0.96541 0.10149 0.0
C4 C 0.12265 0.12015 0.1312 0.0
N5 N 0.20943 0.24268 0.13809 0.0
C6 C 0.12131 0.16696 0.11987 0.0
C7 C 0.1681 0.13568 0.14606 0.0
C8 C 0.16554 0.22861 0.12357 0.0
C9 C 0.2116 0.19789 0.14931 0.0
C10 C 0.95966 0.09022 0.08878 0.0
C11 C 0.87316 0.10731 0.08519 0.0
N12 N 0.90981 0.16085 0.075 0.0
C13 C 0.99633 0.1452 0.07811 0.0
C14 C 0.89746 0.07092 0.09222 0.0
C15 C 0.97032 0.18033 0.07134 0.0
C16 C 0.10117 0.09105 0.05931 0.0
N17 N 0.1213 0.08877 0.07834 0.0
C18 C 0.22641 0.14529 0.06723 0.0
C19 C 0.18254 0.11488 0.08257 0.0
C20 C 0.20692 0.14852 0.04737 0.0
C21 C 0.14323 0.12102 0.04359 0.0
H22 H 0.05217 0.06958 0.05637 0.0
H23 H 0.19736 0.11178 0.0978 0.0
C24 C 0.98049 0.09667 0.16362 0.0
N25 N 0.98488 0.10859 0.14328 0.0
C26 C 0.9745 0.13617 0.17744 0.0
C27 C 0.97656 0.199 0.14912 0.0
C28 C 0.98342 0.15887 0.13591 0.0
C29 C 0.97258 0.18845 0.17028 0.0
H30 H 0.98241 0.05673 0.16913 0.0
H31 H 0.98834 0.16869 0.11983 0.0
C32 C 0.04061 0.9165 0.09292 0.0
N33 N 0.09007 0.83961 0.08876 0.0
C34 C 1.00278 0.85453 0.08749 0.0
C35 C 0.1036 0.93952 0.09614 0.0
C36 C 0.02868 0.81635 0.08548 0.0
C37 C 0.12772 0.89986 0.09399 0.0
C38 C 0.88056 0.9347 0.13828 0.0
C39 C 0.85084 0.87281 0.14446 0.0
C40 C 0.84882 0.96767 0.13905 0.0
C41 C 0.78937 0.84449 0.15079 0.0
C42 C 0.78742 0.93776 0.14551 0.0
N43 N 0.75917 0.87726 0.15116 0.0
C44 C 0.08969 0.9371 0.15343 0.0
C45 C 0.99882 0.85301 0.1398 0.0
C46 C 0.10223 0.89643 0.16446 0.0
N47 N 0.03864 0.91477 0.14141 0.0
C48 C 1.00972 0.81083 0.1504 0.0
C49 C 0.06209 0.83225 0.16292 0.0
H50 H 0.12085 0.98642 0.15434 0.0
H51 H 0.95873 0.83647 0.13008 0.0
C52 C 0.85561 0.93209 0.06954 0.0
N53 N 0.87201 0.9111 0.08621 0.0
C54 C 0.80406 0.89187 0.05796 0.0
C55 C 0.78851 0.80854 0.08042 0.0
C56 C 0.83997 0.8505 0.09166 0.0
C57 C 0.76971 0.82893 0.06327 0.0
H58 H 0.88306 0.97988 0.06497 0.0
H59 H 0.85534 0.83437 0.10446 0.0
O60 O 0.07952 0.05942 0.12795 0.0
O61 O 0.98459 0.05548 0.09564 0.0
O62 O 0.0159 0.95417 0.09551 0.0
O63 O 0.94079 0.96306 0.13202 0.0
H64 H 0.08653 0.15589 0.10836 0.0
H65 H 0.16975 0.10009 0.15503 0.0
H66 H 0.16496 0.26525 0.1149 0.0
H67 H 0.24704 0.21056 0.16076 0.0
H68 H 0.8251 0.09286 0.08776 0.0
H69 H 0.04449 0.16086 0.07519 0.0
H70 H 0.868 0.02786 0.09997 0.0
H71 H 0.99826 0.2231 0.06316 0.0
H72 H 0.27491 0.16521 0.07082 0.0
H73 H 0.1259 0.12318 0.02866 0.0
H74 H 0.97288 0.12649 0.19359 0.0
H75 H 0.97454 0.238 0.14273 0.0
H76 H 0.95388 0.83604 0.08501 0.0
H77 H 0.13332 0.98727 0.10054 0.0
H78 H 0.99995 0.76821 0.08137 0.0
H79 H 0.17632 0.91691 0.09655 0.0
H80 H 0.87485 0.84675 0.14426 0.0
H81 H 0.87131 0.01593 0.13485 0.0
H82 H 0.76572 0.79647 0.15545 0.0
H83 H 0.7623 0.96272 0.14608 0.0
H84 H 0.14333 0.91492 0.17381 0.0
H85 H 0.977 0.76187 0.14896 0.0
H86 H 0.79153 0.91 0.04494 0.0
H87 H 0.76487 0.76027 0.08482 0.0
Li88 Li 0.9937 0.95758 0.43221 0.0
Li89 Li 0.06253 0.03444 0.45923 0.0
Li90 Li 0.9477 0.99829 0.45548 0.0
Li91 Li 0.02061 0.06505 0.43058 0.0
C92 C 0.98114 0.89189 0.46542 0.0
N93 N 0.96769 0.77543 0.46982 0.0
C94 C 0.03066 0.88531 0.47213 0.0
C95 C 0.92456 0.83915 0.46116 0.0
C96 C 0.02298 0.82606 0.47423 0.0
C97 C 0.91875 0.78072 0.46341 0.0
C98 C 0.11765 0.06432 0.41487 0.0
C99 C 0.21285 0.15204 0.40363 0.0
N100 N 0.19535 0.13569 0.38392 0.0
C101 C 0.10073 0.04806 0.39453 0.0
C102 C 0.17421 0.11647 0.41952 0.0
C103 C 0.14061 0.08489 0.37909 0.0
C104 C 0.93357 0.85732 0.40398 0.0
N105 N 0.98232 0.88707 0.41687 0.0
C106 C 0.01741 0.81614 0.40866 0.0
C107 C 0.02445 0.86811 0.41914 0.0
C108 C 0.96693 0.78372 0.39548 0.0
C109 C 0.92488 0.80525 0.39311 0.0
H110 H 0.90145 0.87405 0.40206 0.0
H111 H 0.06357 0.89339 0.42913 0.0
C112 C 0.1172 0.07399 0.49741 0.0
N113 N 0.12609 0.05505 0.47894 0.0
C114 C 0.15763 0.08387 0.51349 0.0
C115 C 0.21624 0.05496 0.49128 0.0
C116 C 0.17509 0.04664 0.47546 0.0
C117 C 0.20709 0.07263 0.51079 0.0
H118 H 0.0777 0.08011 0.49976 0.0
H119 H 0.18067 0.03089 0.46065 0.0
C120 C 0.87824 0.97489 0.4239 0.0
N121 N 0.75514 0.94234 0.42222 0.0
C122 C 0.86148 0.01945 0.41943 0.0
C123 C 0.83226 0.91374 0.42747 0.0
C124 C 0.79904 1.00207 0.41863 0.0
C125 C 0.77034 0.89823 0.42659 0.0
C126 C 0.03599 0.14431 0.46063 0.0
C127 C 0.99583 0.16386 0.45341 0.0
C128 C 0.09375 0.18788 0.46829 0.0
C129 C 0.01425 0.22677 0.45388 0.0
C130 C 0.1104 0.25037 0.46855 0.0
N131 N 0.07067 0.26836 0.46139 0.0
C132 C 0.85826 0.93042 0.4856 0.0
C133 C 0.84705 0.01139 0.47119 0.0
C134 C 0.80922 0.91548 0.49895 0.0
N135 N 0.87635 0.97776 0.47209 0.0
C136 C 0.79748 0.99777 0.48416 0.0
C137 C 0.77839 0.94967 0.49845 0.0
H138 H 0.88274 0.90497 0.48638 0.0
H139 H 0.86266 0.04952 0.46067 0.0
C140 C 1.00673 0.11757 0.39418 0.0
N141 N 0.04221 0.13171 0.41121 0.0
C142 C 0.01829 0.16282 0.37956 0.0
C143 C 0.10491 0.23622 0.39963 0.0
C144 C 0.09156 0.18943 0.4139 0.0
C145 C 0.06771 0.22338 0.3822 0.0
H146 H 0.96923 0.07093 0.3919 0.0
H147 H 0.12099 0.19923 0.42704 0.0
O148 O 0.98819 0.94961 0.46283 0.0
O149 O 0.07852 0.02988 0.43016 0.0
O150 O 0.93921 0.99107 0.42499 0.0
O151 O 0.01886 0.08291 0.46029 0.0
H152 H 0.07468 0.92543 0.47556 0.0
H153 H 0.88566 0.84326 0.45605 0.0
H154 H 0.06104 0.82035 0.4793 0.0
H155 H 0.87535 0.73957 0.46002 0.0
H156 H 0.25662 0.19278 0.40697 0.0
H157 H 0.05693 0.00784 0.39074 0.0
H158 H 0.18772 0.12967 0.43522 0.0
H159 H 0.12798 0.07319 0.36327 0.0
H160 H 0.05173 0.8021 0.41064 0.0
H161 H 0.88532 0.78176 0.38313 0.0
H162 H 0.14926 0.09889 0.52804 0.0
H163 H 0.25307 0.04495 0.48844 0.0
H164 H 0.89615 0.0672 0.41692 0.0
H165 H 0.84417 0.87865 0.43103 0.0
H166 H 0.78549 0.03618 0.41529 0.0
H167 H 0.73437 0.85112 0.42941 0.0
H168 H 0.95142 0.13102 0.44717 0.0
H169 H 0.12572 0.17378 0.47375 0.0
H170 H 0.98379 0.24255 0.44821 0.0
H171 H 0.15504 0.28459 0.47437 0.0
H172 H 0.79595 0.8779 0.50968 0.0
H173 H 0.77579 0.02607 0.48348 0.0
H174 H 0.98806 0.15053 0.36646 0.0
H175 H 0.14438 0.28173 0.40211 0.0
Li176 Li 0.06048 0.99401 0.76878 0.0
Li177 Li 0.05551 0.06524 0.79298 0.0
Li178 Li 0.98563 0.95602 0.79653 0.0
Li179 Li 0.97262 0.01404 0.76876 0.0
C180 C 0.09616 0.95848 0.80337 0.0
N181 N 0.13549 0.87568 0.81313 0.0
C182 C 0.14361 0.97466 0.81753 0.0
C183 C 0.0691 0.90029 0.79407 0.0
C184 C 0.16274 0.93213 0.82229 0.0
C185 C 0.08951 0.85906 0.79924 0.0
C186 C 0.10751 0.13 0.75827 0.0
C187 C 0.14484 0.23077 0.74323 0.0
N188 N 0.20258 0.24807 0.75009 0.0
C189 C 0.16719 0.14874 0.76514 0.0
C190 C 0.09614 0.17127 0.74722 0.0
C191 C 0.21464 0.20864 0.76086 0.0
C192 C 0.09112 0.93903 0.73585 0.0
N193 N 0.11366 0.97735 0.75223 0.0
C194 C 0.2149 0.99371 0.74592 0.0
C195 C 0.17412 1.00408 0.75752 0.0
C196 C 0.19331 0.95429 0.72885 0.0
C197 C 0.13022 0.92656 0.72394 0.0
H198 H 0.04272 0.91798 0.73206 0.0
H199 H 0.19082 0.03352 0.77081 0.0
C200 C 0.12552 0.12343 0.82662 0.0
N201 N 0.1043 0.13706 0.80944 0.0
C202 C 0.16596 0.17033 0.8396 0.0
C203 C 0.15896 0.24499 0.8179 0.0
C204 C 0.11894 0.19634 0.80509 0.0
C205 C 0.18391 0.23198 0.83512 0.0
H206 H 0.11174 0.07591 0.83007 0.0
H207 H 0.10093 0.20616 0.79149 0.0
C208 C 0.91013 0.88648 0.76416 0.0
N209 N 0.78913 0.79547 0.75773 0.0
C210 C 0.86343 0.88173 0.77706 0.0
C211 C 0.89526 0.84481 0.74802 0.0
C212 C 0.80257 0.83545 0.77355 0.0
C213 C 0.83382 0.79915 0.74501 0.0
C214 C 0.94829 0.06681 0.80255 0.0
C215 C 0.91218 0.06025 0.81965 0.0
C216 C 0.96606 0.11727 0.78952 0.0
C217 C 0.89464 0.10453 0.82348 0.0
C218 C 0.94763 0.16056 0.79387 0.0
N219 N 0.9126 0.15336 0.81063 0.0
C220 C 0.94126 0.91728 0.83545 0.0
C221 C 0.92567 0.83307 0.81459 0.0
C222 C 0.91418 0.87791 0.85203 0.0
N223 N 0.94625 0.89448 0.81719 0.0
C224 C 0.89878 0.7919 0.8309 0.0
C225 C 0.89267 0.81416 0.85 0.0
H226 H 0.95838 0.96636 0.8371 0.0
H227 H 0.93034 0.81606 0.79991 0.0
C228 C 0.92925 0.0364 0.73154 0.0
N229 N 0.91395 0.01957 0.75134 0.0
C230 C 0.88554 0.03538 0.71795 0.0
C231 C 0.81151 1.00052 0.74549 0.0
C232 C 0.85678 1.003 0.75857 0.0
C233 C 0.82538 0.0159 0.72481 0.0
H234 H 0.97492 0.0489 0.72616 0.0
H235 H 0.84573 0.98998 0.77438 0.0
O236 O 0.07741 1.00004 0.79845 0.0
O237 O 0.06026 0.07177 0.76248 0.0
O238 O 0.97012 0.93165 0.76716 0.0
O239 O 0.9658 0.02378 0.79865 0.0
H240 H 0.16575 0.01973 0.82471 0.0
H241 H 0.03293 0.88699 0.7829 0.0
H242 H 0.19936 0.94407 0.83323 0.0
H243 H 0.06886 0.81388 0.79217 0.0
H244 H 0.13671 0.26322 0.73472 0.0
H245 H 0.17646 0.11793 0.77411 0.0
H246 H 0.05017 0.15757 0.74183 0.0
H247 H 0.26096 0.22391 0.76623 0.0
H248 H 0.26311 0.01729 0.75021 0.0
H249 H 0.11099 0.89517 0.71116 0.0
H250 H 0.1839 0.15866 0.85288 0.0
H251 H 0.17205 0.29221 0.81402 0.0
H252 H 0.87384 0.91348 0.78963 0.0
H253 H 0.93079 0.84774 0.73789 0.0
H254 H 0.766 0.83138 0.7834 0.0
H255 H 0.82167 0.76665 0.73256 0.0
H256 H 0.89778 0.0213 0.82985 0.0
H257 H 0.9937 0.12297 0.77619 0.0
H258 H 0.86673 0.10004 0.83667 0.0
H259 H 0.96115 0.19987 0.78392 0.0
H260 H 0.9094 0.89738 0.8662 0.0
H261 H 0.88354 0.74337 0.82859 0.0
H262 H 0.89782 0.04695 0.70208 0.0
H263 H 0.76573 0.9856 0.75138 0.0
Mg264 Mg 0.02357 0.51926 0.27926 0.0
C265 C 0.09492 0.5049 0.31604 0.0
O266 O 0.10296 0.55861 0.32221 0.0
C267 C 0.07933 0.59908 0.24193 0.0
O268 O 0.05313 0.54414 0.23339 0.0
C269 C 0.95223 0.3884 0.26213 0.0
O270 O 0.95119 0.37345 0.28139 0.0
O271 O 0.97368 0.44497 0.25741 0.0
O272 O 0.06904 0.48336 0.29895 0.0
O273 O 0.96893 0.54778 0.29752 0.0
C274 C 0.95771 0.53623 0.31643 0.0
O275 O 0.97015 0.49623 0.32514 0.0
O276 O 0.08077 0.60258 0.26131 0.0
Mg277 Mg 0.50737 1.00099 0.60837 0.0
C278 C 0.43918 0.06396 0.59289 0.0
O279 O 0.40905 0.0398 0.6099 0.0
C280 C 0.59487 1.00091 0.63751 0.0
O281 O 0.55533 0.94252 0.6336 0.0
C282 C 0.42845 0.95968 0.64629 0.0
O283 O 0.48262 0.99718 0.65428 0.0
O284 O 0.42484 0.94831 0.62724 0.0
O285 O 0.48825 0.06188 0.5894 0.0
O286 O 0.52948 0.94852 0.58674 0.0
C287 C 0.51593 0.94686 0.56796 0.0
O288 O 0.47931 0.96798 0.56241 0.0
O289 O 0.58789 0.0423 0.62848 0.0
Mg290 Mg 0.52671 0.50541 0.9459 0.0
C291 C 0.4646 0.43833 0.9092 0.0
O292 O 0.5124 0.43054 0.91187 0.0
C293 C 0.5411 0.59057 0.98084 0.0
O294 O 0.50872 0.53706 0.99006 0.0
C295 C 0.45092 0.38042 0.96673 0.0
O296 O 0.42456 0.36596 0.94872 0.0
O297 O 0.49791 0.43372 0.96934 0.0
O298 O 0.45578 0.47153 0.92205 0.0
O299 O 0.61073 0.52894 0.92896 0.0
C300 C 0.66108 0.57891 0.93211 0.0
O301 O 0.6664 0.61141 0.94852 0.0
O302 O 0.54879 0.59118 0.96164 0.0
H303 H 0.90994 0.16362 0.20662 0.0
H304 H 0.02803 0.3146 0.16669 0.0
H305 H 0.02498 0.38814 0.19031 0.0
H306 H 0.99549 0.41107 0.22333 0.0
H307 H 0.88605 0.26221 0.26497 0.0
H308 H 0.87942 0.18669 0.23974 0.0
C309 C 0.93543 0.2126 0.2031 0.0
C310 C 0.96898 0.23302 0.18472 0.0
C311 C 0.93514 0.25527 0.21711 0.0
C312 C 1.00071 0.29687 0.18041 0.0
C313 C 0.99949 0.3393 0.19404 0.0
C314 C 0.96928 0.36205 0.22679 0.0
C315 C 0.94106 0.34232 0.24599 0.0
C316 C 0.96747 0.31914 0.21252 0.0
C317 C 0.90811 0.27863 0.25029 0.0
C318 C 0.90453 0.23545 0.2359 0.0
H319 H 0.66864 0.94564 0.49175 0.0
H320 H 0.77831 0.92784 0.53924 0.0
H321 H 0.70266 0.91762 0.56473 0.0
H322 H 0.61052 0.92351 0.57394 0.0
H323 H 0.50213 0.94426 0.52659 0.0
H324 H 0.57165 0.94292 0.50073 0.0
C325 C 0.67583 0.93932 0.50767 0.0
C326 C 0.72932 0.93796 0.51356 0.0
C327 C 0.63239 0.93409 0.52232 0.0
C328 C 0.7374 0.92863 0.53423 0.0
C329 C 0.6943 0.92313 0.54886 0.0
C330 C 0.6014 0.92667 0.55795 0.0
C331 C 0.5514 0.9346 0.55229 0.0
C332 C 0.64224 0.92702 0.54314 0.0
C333 C 0.54039 0.93846 0.53145 0.0
C334 C 0.58034 0.93801 0.51662 0.0
H335 H 0.79513 0.69545 0.84944 0.0
H336 H 0.92286 0.8367 0.89053 0.0
H337 H 0.86572 0.77366 0.91966 0.0
H338 H 0.77401 0.68295 0.93349 0.0
H339 H 0.64848 0.54004 0.89248 0.0
H340 H 0.7117 0.59824 0.86345 0.0
C341 C 0.8115 0.71204 0.86472 0.0
C342 C 0.86259 0.77167 0.86764 0.0
C343 C 0.77882 0.67514 0.88152 0.0
C344 C 0.88258 0.79201 0.8877 0.0
C345 C 0.8502 0.75573 0.90444 0.0
C346 C 0.76104 0.66395 0.91824 0.0
C347 C 0.70606 0.60757 0.91521 0.0
C348 C 0.7973 0.69795 0.90153 0.0
C349 C 0.69039 0.58341 0.89533 0.0
C350 C 0.72633 0.61691 0.87865 0.0
H351 H 0.10029 0.83958 0.20245 0.0
H352 H 0.05031 0.7238 0.14891 0.0
H353 H 0.05834 0.64439 0.16819 0.0
H354 H 0.07038 0.60397 0.20078 0.0
H355 H 0.11799 0.71785 0.25474 0.0
H356 H 0.12186 0.80237 0.23464 0.0
C357 C 0.09223 0.79744 0.19492 0.0
C358 C 0.0738 0.78736 0.17432 0.0
C359 C 0.0965 0.75154 0.20617 0.0
C360 C 0.06325 0.73226 0.16485 0.0
C361 C 0.06814 0.68691 0.17584 0.0
C362 C 0.08259 0.64756 0.20815 0.0
C363 C 0.09327 0.65413 0.22932 0.0
C364 C 0.08329 0.69542 0.19661 0.0
C365 C 0.10936 0.71126 0.2385 0.0
C366 C 0.1112 0.75957 0.22702 0.0
H367 H 0.33125 0.11067 0.51183 0.0
H368 H 0.16909 0.03776 0.55005 0.0
H369 H 0.22872 0.03665 0.57905 0.0
H370 H 0.32408 0.04875 0.59324 0.0
H371 H 0.48525 0.11338 0.55511 0.0
H372 H 0.42886 0.12529 0.52654 0.0
C373 C 0.30886 0.09438 0.52647 0.0
C374 C 0.24552 0.0748 0.5286 0.0
C375 C 0.34325 0.09224 0.54319 0.0
C376 C 0.21783 0.05454 0.54787 0.0
C377 C 0.25183 0.0533 0.56453 0.0
C378 C 0.3474 0.06632 0.57879 0.0
C379 C 0.40893 0.08012 0.57638 0.0
C380 C 0.31427 0.07129 0.56232 0.0
C381 C 0.43799 0.10249 0.55744 0.0
C382 C 0.40561 0.10898 0.54105 0.0
H383 H 0.29944 0.25481 0.84035 0.0
H384 H 0.17537 0.31931 0.85822 0.0
H385 H 0.25271 0.39246 0.88238 0.0
H386 H 0.35363 0.43206 0.90015 0.0
H387 H 0.47606 0.36596 0.88082 0.0
H388 H 0.40172 0.29995 0.85554 0.0
C389 C 0.28975 0.28546 0.84941 0.0
C390 C 0.23208 0.28171 0.84774 0.0
C391 C 0.33404 0.32681 0.86312 0.0
C392 C 0.21979 0.32175 0.85933 0.0
C393 C 0.26381 0.36319 0.87317 0.0
C394 C 0.36416 0.40368 0.89026 0.0
C395 C 0.4202 0.40359 0.89265 0.0
C396 C 0.32082 0.36531 0.87549 0.0
C397 C 0.43323 0.36674 0.87957 0.0
C398 C 0.39069 0.32878 0.86502 0.0
H399 H 0.82717 0.09589 0.69578 0.0
H400 H 0.71275 0.91378 0.72109 0.0
H401 H 0.63163 0.89397 0.69656 0.0
H402 H 0.59404 0.92674 0.66752 0.0
H403 H 0.70464 0.10966 0.64241 0.0
H404 H 0.78639 0.13106 0.66728 0.0
C405 C 0.78437 0.05201 0.69588 0.0
C406 C 0.77591 1.00635 0.71024 0.0
C407 C 0.7374 0.04108 0.68178 0.0
C408 C 0.72009 0.94985 0.71035 0.0
C409 C 0.67381 0.93837 0.69626 0.0
C410 C 0.63603 0.97138 0.66745 0.0
C411 C 0.64356 0.01634 0.65301 0.0
C412 C 0.68211 0.98342 0.68186 0.0
C413 C 0.69779 0.07426 0.65337 0.0
C414 C 0.74455 0.08639 0.66754 0.0
H415 H 0.75713 0.82756 0.02174 0.0
H416 H 0.66153 0.72913 0.0762 0.0
H417 H 0.57921 0.64982 0.05547 0.0
H418 H 0.53853 0.60405 0.02193 0.0
H419 H 0.63306 0.70325 0.96748 0.0
H420 H 0.71018 0.78767 0.98824 0.0
C421 C 0.71774 0.7896 0.02917 0.0
C422 C 0.71639 0.78416 0.05059 0.0
C423 C 0.67007 0.74421 0.01714 0.0
C424 C 0.66491 0.73394 0.05977 0.0
C425 C 0.61743 0.68868 0.04792 0.0
C426 C 0.57538 0.64458 1.01456 0.0
C427 C 0.58022 0.64679 0.99315 0.0
C428 C 0.62019 0.69263 0.02659 0.0
C429 C 0.62812 0.70002 0.98391 0.0
C430 C 0.67259 0.74824 0.99579 0.0
H431 H 0.93294 0.7537 0.35569 0.0
H432 H 0.98367 0.68979 0.40953 0.0
H433 H 0.97885 0.60361 0.39027 0.0
H434 H 0.96763 0.55079 0.35764 0.0
H435 H 0.91959 0.61623 0.30356 0.0
H436 H 0.91426 0.69619 0.32354 0.0
C437 C 0.94193 0.72035 0.36331 0.0
C438 C 0.95923 0.72867 0.38401 0.0
C439 C 0.93943 0.67099 0.3521 0.0
C440 C 0.97137 0.68525 0.39354 0.0
C441 C 0.96827 0.63569 0.38256 0.0
C442 C 0.95484 0.58175 0.35026 0.0
C443 C 0.94423 0.57752 0.32908 0.0
C444 C 0.9534 0.6287 0.36175 0.0
C445 C 0.92816 0.61846 0.31981 0.0
C446 C 0.92538 0.66445 0.33121 0.0
H447 H 0.19136 0.93715 0.68739 0.0
H448 H 0.29391 0.94673 0.74165 0.0
H449 H 0.37306 0.94394 0.72087 0.0
H450 H 0.41802 0.94836 0.68726 0.0
H451 H 0.31393 0.93315 0.63301 0.0
H452 H 0.22947 0.92606 0.65389 0.0
C453 C 0.23016 0.93719 0.69478 0.0
C454 C 0.23704 0.9439 0.71614 0.0
C455 C 0.27533 0.93437 0.68273 0.0
C456 C 0.28812 0.94395 0.72526 0.0
C457 C 0.33334 0.94174 0.71338 0.0
C458 C 0.37635 0.94236 0.68002 0.0
C459 C 0.37253 0.942 0.65864 0.0
C460 C 0.32821 0.9386 0.6921 0.0
C461 C 0.31802 0.9335 0.64945 0.0
C462 C 0.26992 0.92997 0.66139 0.0
H463 H 0.31786 0.25634 0.04932 0.0
H464 H 0.1979 0.11242 1.00757 0.0
H465 H 0.26566 0.16917 0.97927 0.0
H466 H 0.35447 0.26288 0.96592 0.0
H467 H 0.47558 0.40685 1.0074 0.0
H468 H 0.41291 0.34595 0.03626 0.0
C469 C 0.30707 0.2368 0.03411 0.0
C470 C 0.2521 0.18058 0.03061 0.0
C471 C 0.34651 0.26966 0.0178 0.0
C472 C 0.23893 0.1563 1.0107 0.0
C473 C 0.27791 0.18853 0.99448 0.0
C474 C 0.36772 0.2807 0.98129 0.0
C475 C 0.41936 0.33967 0.98442 0.0
C476 C 0.33108 0.24583 0.99778 0.0
C477 C 0.43605 0.36166 1.00449 0.0
C478 C 0.39998 0.32699 0.02102 0.0
H479 H 0.10319 0.34495 0.38928 0.0
H480 H 0.05894 0.21258 0.34064 0.0
H481 H 0.06819 0.28948 0.31579 0.0
H482 H 0.08188 0.39175 0.30805 0.0
H483 H 0.12692 0.52492 0.35645 0.0
H484 H 0.12612 0.45085 0.38104 0.0
C485 C 0.09666 0.33317 0.37321 0.0
C486 C 0.07945 0.27253 0.36695 0.0
C487 C 0.10229 0.37784 0.3589 0.0
C488 C 0.07074 0.25826 0.34602 0.0
C489 C 0.07643 0.30239 0.33174 0.0
C490 C 0.09236 0.40502 0.32393 0.0
C491 C 0.104 0.46383 0.33036 0.0
C492 C 0.09103 0.36193 0.33805 0.0
C493 C 0.11777 0.48008 0.35101 0.0
C494 C 0.11698 0.43755 0.36514 0.0
loop_
_geom_bond_atom_site_label_1
_geom_bond_atom_site_label_2
_geom_bond_distance
_geom_bond_site_symmetry_2
_ccdc_geom_bond_type
Li0 N17 1.990 . S
Li0 O60 1.956 . S
Li0 O61 1.970 1_455 S
Li0 O62 1.961 1_545 S
Li1 N25 1.990 . S
Li1 O60 1.970 1_655 S
Li1 O61 1.956 . S
Li1 O63 1.961 1_545 S
Li2 N47 1.990 . S
Li2 O60 1.961 1_565 S
Li2 O62 1.956 . S
Li2 O63 1.970 1_455 S
Li3 N53 1.990 . S
Li3 O61 1.961 1_565 S
Li3 O62 1.970 1_655 S
Li3 O63 1.956 . S
C4 C6 1.348 . S
C4 C7 1.356 . S
C4 O60 1.325 . S
N5 C8 1.314 . S
N5 C9 1.279 . S
C6 C4 1.348 . S
C6 C8 1.353 . S
C6 H64 0.929 . S
C7 C4 1.356 . S
C7 C9 1.358 . S
C7 H65 0.930 . S
C8 N5 1.314 . S
C8 C6 1.353 . S
C8 H66 0.930 . S
C9 N5 1.279 . S
C9 C7 1.358 . S
C9 H67 0.930 . S
C10 C13 1.348 1_655 S
C10 C14 1.356 . S
C10 O61 1.325 . S
C11 N12 1.279 . S
C11 C14 1.358 . S
C11 H68 0.930 . S
N12 C11 1.279 . S
N12 C15 1.314 . S
C13 C10 1.348 1_455 S
C13 C15 1.353 1_455 S
C13 H69 0.929 . S
C14 C10 1.356 . S
C14 C11 1.358 . S
C14 H70 0.930 . S
C15 N12 1.314 . S
C15 C13 1.353 1_655 S
C15 H71 0.930 1_655 S
C16 N17 1.314 . S
C16 C21 1.353 . S
C16 H22 0.930 . S
N17 Li0 1.990 . S
N17 C16 1.314 . S
N17 C19 1.279 . S
C18 C19 1.358 . S
C18 C20 1.356 . S
C18 H72 0.930 . S
C19 N17 1.279 . S
C19 C18 1.358 . S
C19 H23 0.930 . S
C20 C18 1.356 . S
C20 C21 1.348 . S
C21 C16 1.353 . S
C21 C20 1.348 . S
C21 H73 0.929 . S
H22 C16 0.930 . S
H23 C19 0.930 . S
C24 N25 1.314 . S
C24 C26 1.353 . S
C24 H30 0.930 . S
N25 Li1 1.990 . S
N25 C24 1.314 . S
N25 C28 1.279 . S
C26 C24 1.353 . S
C26 C29 1.348 . S
C26 H74 0.929 . S
C27 C28 1.358 . S
C27 C29 1.356 . S
C27 H75 0.930 . S
C28 N25 1.279 . S
C28 C27 1.358 . S
C28 H31 0.930 . S
C29 C26 1.348 . S
C29 C27 1.356 . S
H30 C24 0.930 . S
H31 C28 0.930 . S
C32 C34 1.348 1_455 S
C32 C35 1.356 . S
C32 O62 1.325 . S
N33 C36 1.314 . S
N33 C37 1.279 . S
C34 C32 1.348 1_655 S
C34 C36 1.353 1_655 S
C34 H76 0.929 . S
C35 C32 1.356 . S
C35 C37 1.358 . S
C35 H77 0.930 . S
C36 N33 1.314 . S
C36 C34 1.353 1_455 S
C36 H78 0.930 1_455 S
C37 N33 1.279 . S
C37 C35 1.358 . S
C37 H79 0.930 . S
C38 C39 1.348 . S
C38 C40 1.356 . S
C38 O63 1.325 . S
C39 C38 1.348 . S
C39 C41 1.353 . S
C39 H80 0.929 . S
C40 C38 1.356 . S
C40 C42 1.358 . S
C40 H81 0.930 . S
C41 C39 1.353 . S
C41 N43 1.314 . S
C41 H82 0.930 . S
C42 C40 1.358 . S
C42 N43 1.279 . S
C42 H83 0.930 . S
N43 C41 1.314 . S
N43 C42 1.279 . S
C44 C46 1.353 . S
C44 N47 1.314 . S
C44 H50 0.930 . S
C45 N47 1.279 . S
C45 C48 1.358 . S
C45 H51 0.930 . S
C46 C44 1.353 . S
C46 C49 1.348 . S
C46 H84 0.929 . S
N47 Li2 1.990 . S
N47 C44 1.314 . S
N47 C45 1.279 . S
C48 C45 1.358 . S
C48 C49 1.356 . S
C48 H85 0.930 . S
C49 C46 1.348 . S
C49 C48 1.356 . S
H50 C44 0.930 . S
H51 C45 0.930 . S
C52 N53 1.314 . S
C52 C54 1.353 . S
C52 H58 0.930 . S
N53 Li3 1.990 . S
N53 C52 1.314 . S
N53 C56 1.279 . S
C54 C52 1.353 . S
C54 C57 1.348 . S
C54 H86 0.929 . S
C55 C56 1.358 . S
C55 C57 1.356 . S
C55 H87 0.930 . S
C56 N53 1.279 . S
C56 C55 1.358 . S
C56 H59 0.930 . S
C57 C54 1.348 . S
C57 C55 1.356 . S
H58 C52 0.930 . S
H59 C56 0.930 . S
O60 Li0 1.956 . S
O60 Li1 1.970 1_455 S
O60 Li2 1.961 1_545 S
O60 C4 1.325 . S
O61 Li0 1.970 1_655 S
O61 Li1 1.956 . S
O61 Li3 1.961 1_545 S
O61 C10 1.325 . S
O62 Li0 1.961 1_565 S
O62 Li2 1.956 . S
O62 Li3 1.970 1_455 S
O62 C32 1.325 . S
O63 Li1 1.961 1_565 S
O63 Li2 1.970 1_655 S
O63 Li3 1.956 . S
O63 C38 1.325 . S
H64 C6 0.929 . S
H65 C7 0.930 . S
H66 C8 0.930 . S
H67 C9 0.930 . S
H68 C11 0.930 . S
H69 C13 0.929 . S
H70 C14 0.930 . S
H71 C15 0.930 1_455 S
H72 C18 0.930 . S
H73 C21 0.929 . S
H74 C26 0.929 . S
H75 C27 0.930 . S
H76 C34 0.929 . S
H77 C35 0.930 . S
H78 C36 0.930 1_655 S
H79 C37 0.930 . S
H80 C39 0.929 . S
H81 C40 0.930 . S
H82 C41 0.930 . S
H83 C42 0.930 . S
H84 C46 0.929 . S
H85 C48 0.930 . S
H86 C54 0.929 . S
H87 C55 0.930 . S
Li88 N105 1.990 . S
Li88 O148 1.956 . S
Li88 O149 1.970 1_665 S
Li88 O150 1.961 . S
Li89 N113 1.990 . S
Li89 O148 1.970 1_445 S
Li89 O149 1.956 . S
Li89 O151 1.961 . S
Li90 N135 1.990 . S
Li90 O148 1.961 . S
Li90 O150 1.956 . S
Li90 O151 1.970 1_665 S
Li91 N141 1.990 . S
Li91 O149 1.961 . S
Li91 O150 1.970 1_445 S
Li91 O151 1.956 . S
C92 C94 1.348 1_655 S
C92 C95 1.356 . S
C92 O148 1.325 . S
N93 C96 1.314 . S
N93 C97 1.279 . S
C94 C92 1.348 1_455 S
C94 C96 1.353 1_455 S
C94 H152 0.929 . S
C95 C92 1.356 . S
C95 C97 1.358 . S
C95 H153 0.930 . S
C96 N93 1.314 . S
C96 C94 1.353 1_655 S
C96 H154 0.930 1_655 S
C97 N93 1.279 . S
C97 C95 1.358 . S
C97 H155 0.930 . S
C98 C101 1.348 1_545 S
C98 C102 1.356 . S
C98 O149 1.325 . S
C99 N100 1.279 . S
C99 C102 1.358 . S
C99 H156 0.930 . S
N100 C99 1.279 . S
N100 C103 1.314 . S
C101 C98 1.348 1_565 S
C101 C103 1.353 1_565 S
C101 H157 0.929 . S
C102 C98 1.356 . S
C102 C99 1.358 . S
C102 H158 0.930 . S
C103 N100 1.314 . S
C103 C101 1.353 1_545 S
C103 H159 0.930 1_545 S
C104 N105 1.314 . S
C104 C109 1.353 . S
C104 H110 0.930 . S
N105 Li88 1.990 . S
N105 C104 1.314 . S
N105 C107 1.279 . S
C106 C107 1.358 . S
C106 C108 1.356 . S
C106 H160 0.930 . S
C107 N105 1.279 . S
C107 C106 1.358 . S
C107 H111 0.930 . S
C108 C106 1.356 . S
C108 C109 1.348 . S
C109 C104 1.353 . S
C109 C108 1.348 . S
C109 H161 0.929 . S
H110 C104 0.930 . S
H111 C107 0.930 . S
C112 N113 1.314 . S
C112 C114 1.353 . S
C112 H118 0.930 . S
N113 Li89 1.990 . S
N113 C112 1.314 . S
N113 C116 1.279 . S
C114 C112 1.353 . S
C114 C117 1.348 . S
C114 H162 0.929 . S
C115 C116 1.358 . S
C115 C117 1.356 . S
C115 H163 0.930 . S
C116 N113 1.279 . S
C116 C115 1.358 . S
C116 H119 0.930 . S
C117 C114 1.348 . S
C117 C115 1.356 . S
H118 C112 0.930 . S
H119 C116 0.930 . S
C120 C122 1.348 1_565 S
C120 C123 1.356 . S
C120 O150 1.325 . S
N121 C124 1.314 . S
N121 C125 1.279 . S
C122 C120 1.348 1_545 S
C122 C124 1.353 1_545 S
C122 H164 0.929 . S
C123 C120 1.356 . S
C123 C125 1.358 . S
C123 H165 0.930 . S
C124 N121 1.314 . S
C124 C122 1.353 1_565 S
C124 H166 0.930 1_565 S
C125 N121 1.279 . S
C125 C123 1.358 . S
C125 H167 0.930 . S
C126 C127 1.348 1_455 S
C126 C128 1.356 . S
C126 O151 1.325 . S
C127 C126 1.348 1_655 S
C127 C129 1.353 1_655 S
C127 H168 0.929 . S
C128 C126 1.356 . S
C128 C130 1.358 . S
C128 H169 0.930 . S
C129 C127 1.353 1_455 S
C129 N131 1.314 . S
C129 H170 0.930 1_455 S
C130 C128 1.358 . S
C130 N131 1.279 . S
C130 H171 0.930 . S
N131 C129 1.314 . S
N131 C130 1.279 . S
C132 C134 1.353 . S
C132 N135 1.314 . S
C132 H138 0.930 . S
C133 N135 1.279 . S
C133 C136 1.358 . S
C133 H139 0.930 . S
C134 C132 1.353 . S
C134 C137 1.348 . S
C134 H172 0.929 . S
N135 Li90 1.990 . S
N135 C132 1.314 . S
N135 C133 1.279 . S
C136 C133 1.358 . S
C136 C137 1.356 . S
C136 H173 0.930 . S
C137 C134 1.348 . S
C137 C136 1.356 . S
H138 C132 0.930 . S
H139 C133 0.930 . S
C140 N141 1.314 . S
C140 C142 1.353 . S
C140 H146 0.930 . S
N141 Li91 1.990 . S
N141 C140 1.314 . S
N141 C144 1.279 . S
C142 C140 1.353 . S
C142 C145 1.348 . S
C142 H174 0.929 . S
C143 C144 1.358 . S
C143 C145 1.356 . S
C143 H175 0.930 . S
C144 N141 1.279 . S
C144 C143 1.358 . S
C144 H147 0.930 . S
C145 C142 1.348 . S
C145 C143 1.356 . S
H146 C140 0.930 . S
H147 C144 0.930 . S
O148 Li88 1.956 . S
O148 Li89 1.970 1_665 S
O148 Li90 1.961 . S
O148 C92 1.325 . S
O149 Li88 1.970 1_445 S
O149 Li89 1.956 . S
O149 Li91 1.961 . S
O149 C98 1.325 . S
O150 Li88 1.961 . S
O150 Li90 1.956 . S
O150 Li91 1.970 1_665 S
O150 C120 1.325 . S
O151 Li89 1.961 . S
O151 Li90 1.970 1_445 S
O151 Li91 1.956 . S
O151 C126 1.325 . S
H152 C94 0.929 . S
H153 C95 0.930 . S
H154 C96 0.930 1_455 S
H155 C97 0.930 . S
H156 C99 0.930 . S
H157 C101 0.929 . S
H158 C102 0.930 . S
H159 C103 0.930 1_565 S
H160 C106 0.930 . S
H161 C109 0.929 . S
H162 C114 0.929 . S
H163 C115 0.930 . S
H164 C122 0.929 . S
H165 C123 0.930 . S
H166 C124 0.930 1_545 S
H167 C125 0.930 . S
H168 C127 0.929 . S
H169 C128 0.930 . S
H170 C129 0.930 1_655 S
H171 C130 0.930 . S
H172 C134 0.929 . S
H173 C136 0.930 . S
H174 C142 0.929 . S
H175 C143 0.930 . S
Li176 N193 1.990 . S
Li176 O236 1.956 . S
Li176 O237 1.970 1_565 S
Li176 O238 1.961 1_455 S
Li177 N201 1.990 . S
Li177 O236 1.970 1_545 S
Li177 O237 1.956 . S
Li177 O239 1.961 1_455 S
Li178 N223 1.990 . S
Li178 O236 1.961 1_655 S
Li178 O238 1.956 . S
Li178 O239 1.970 1_565 S
Li179 N229 1.990 . S
Li179 O237 1.961 1_655 S
Li179 O238 1.970 1_545 S
Li179 O239 1.956 . S
C180 C182 1.348 1_565 S
C180 C183 1.356 . S
C180 O236 1.325 . S
N181 C184 1.314 . S
N181 C185 1.279 . S
C182 C180 1.348 1_545 S
C182 C184 1.353 1_545 S
C182 H240 0.929 . S
C183 C180 1.356 . S
C183 C185 1.358 . S
C183 H241 0.930 . S
C184 N181 1.314 . S
C184 C182 1.353 1_565 S
C184 H242 0.930 1_565 S
C185 N181 1.279 . S
C185 C183 1.358 . S
C185 H243 0.930 . S
C186 C189 1.348 . S
C186 C190 1.356 . S
C186 O237 1.325 . S
C187 N188 1.279 . S
C187 C190 1.358 . S
C187 H244 0.930 . S
N188 C187 1.279 . S
N188 C191 1.314 . S
C189 C186 1.348 . S
C189 C191 1.353 . S
C189 H245 0.929 . S
C190 C186 1.356 . S
C190 C187 1.358 . S
C190 H246 0.930 . S
C191 N188 1.314 . S
C191 C189 1.353 . S
C191 H247 0.930 . S
C192 N193 1.314 . S
C192 C197 1.353 . S
C192 H198 0.930 . S
N193 Li176 1.990 . S
N193 C192 1.314 . S
N193 C195 1.279 . S
C194 C195 1.358 . S
C194 C196 1.356 . S
C194 H248 0.930 . S
C195 N193 1.279 . S
C195 C194 1.358 . S
C195 H199 0.930 . S
C196 C194 1.356 . S
C196 C197 1.348 . S
C197 C192 1.353 . S
C197 C196 1.348 . S
C197 H249 0.929 . S
H198 C192 0.930 . S
H199 C195 0.930 . S
C200 N201 1.314 . S
C200 C202 1.353 . S
C200 H206 0.930 . S
N201 Li177 1.990 . S
N201 C200 1.314 . S
N201 C204 1.279 . S
C202 C200 1.353 . S
C202 C205 1.348 . S
C202 H250 0.929 . S
C203 C204 1.358 . S
C203 C205 1.356 . S
C203 H251 0.930 . S
C204 N201 1.279 . S
C204 C203 1.358 . S
C204 H207 0.930 . S
C205 C202 1.348 . S
C205 C203 1.356 . S
H206 C200 0.930 . S
H207 C204 0.930 . S
C208 C210 1.348 . S
C208 C211 1.356 . S
C208 O238 1.325 . S
N209 C212 1.314 . S
N209 C213 1.279 . S
C210 C208 1.348 . S
C210 C212 1.353 . S
C210 H252 0.929 . S
C211 C208 1.356 . S
C211 C213 1.358 . S
C211 H253 0.930 . S
C212 N209 1.314 . S
C212 C210 1.353 . S
C212 H254 0.930 . S
C213 N209 1.279 . S
C213 C211 1.358 . S
C213 H255 0.930 . S
C214 C215 1.348 1_545 S
C214 C216 1.356 . S
C214 O239 1.325 . S
C215 C214 1.348 1_565 S
C215 C217 1.353 1_565 S
C215 H256 0.929 . S
C216 C214 1.356 . S
C216 C218 1.358 . S
C216 H257 0.930 . S
C217 C215 1.353 1_545 S
C217 N219 1.314 . S
C217 H258 0.930 1_545 S
C218 C216 1.358 . S
C218 N219 1.279 . S
C218 H259 0.930 . S
N219 C217 1.314 . S
N219 C218 1.279 . S
C220 C222 1.353 . S
C220 N223 1.314 . S
C220 H226 0.930 . S
C221 N223 1.279 . S
C221 C224 1.358 . S
C221 H227 0.930 . S
C222 C220 1.353 . S
C222 C225 1.348 . S
C222 H260 0.929 . S
N223 Li178 1.990 . S
N223 C220 1.314 . S
N223 C221 1.279 . S
C224 C221 1.358 . S
C224 C225 1.356 . S
C224 H261 0.930 . S
C225 C222 1.348 . S
C225 C224 1.356 . S
H226 C220 0.930 . S
H227 C221 0.930 . S
C228 N229 1.314 . S
C228 C230 1.353 . S
C228 H234 0.930 . S
N229 Li179 1.990 . S
N229 C228 1.314 . S
N229 C232 1.279 . S
C230 C228 1.353 . S
C230 C233 1.348 . S
C230 H262 0.929 . S
C231 C232 1.358 . S
C231 C233 1.356 . S
C231 H263 0.930 . S
C232 N229 1.279 . S
C232 C231 1.358 . S
C232 H235 0.930 . S
C233 C230 1.348 . S
C233 C231 1.356 . S
H234 C228 0.930 . S
H235 C232 0.930 . S
O236 Li176 1.956 . S
O236 Li177 1.970 1_565 S
O236 Li178 1.961 1_455 S
O236 C180 1.325 . S
O237 Li176 1.970 1_545 S
O237 Li177 1.956 . S
O237 Li179 1.961 1_455 S
O237 C186 1.325 . S
O238 Li176 1.961 1_655 S
O238 Li178 1.956 . S
O238 Li179 1.970 1_565 S
O238 C208 1.325 . S
O239 Li177 1.961 1_655 S
O239 Li178 1.970 1_545 S
O239 Li179 1.956 . S
O239 C214 1.325 . S
H240 C182 0.929 . S
H241 C183 0.930 . S
H242 C184 0.930 1_545 S
H243 C185 0.930 . S
H244 C187 0.930 . S
H245 C189 0.929 . S
H246 C190 0.930 . S
H247 C191 0.930 . S
H248 C194 0.930 . S
H249 C197 0.929 . S
H250 C202 0.929 . S
H251 C203 0.930 . S
H252 C210 0.929 . S
H253 C211 0.930 . S
H254 C212 0.930 . S
H255 C213 0.930 . S
H256 C215 0.929 . S
H257 C216 0.930 . S
H258 C217 0.930 1_565 S
H259 C218 0.930 . S
H260 C222 0.929 . S
H261 C224 0.930 . S
H262 C230 0.929 . S
H263 C231 0.930 . S
Mg264 O271 2.141 . S
Mg264 O272 2.048 . S
Mg264 O273 2.048 . S
Mg264 O276 2.141 . S
C265 O266 1.313 . S
C265 O272 1.195 1_655 S
O266 C265 1.313 . S
C267 O268 1.245 . S
C267 O276 1.289 1_655 S
O268 C267 1.245 . S
C269 O270 1.245 . S
C269 O271 1.289 1_655 S
O270 C269 1.245 . S
O271 Mg264 2.141 . S
O271 C269 1.289 1_455 S
O272 Mg264 2.048 . S
O272 C265 1.195 1_455 S
O273 Mg264 2.048 . S
O273 C274 1.195 1_455 S
C274 O273 1.195 1_655 S
C274 O275 1.313 . S
O275 C274 1.313 . S
O276 Mg264 2.141 . S
O276 C267 1.289 1_455 S
Mg277 O284 2.141 . S
Mg277 O285 2.048 . S
Mg277 O286 2.048 . S
Mg277 O289 2.141 . S
C278 O279 1.313 . S
C278 O285 1.195 1_565 S
O279 C278 1.313 . S
C280 O281 1.245 . S
C280 O289 1.289 1_565 S
O281 C280 1.245 . S
C282 O283 1.245 . S
C282 O284 1.289 1_565 S
O283 C282 1.245 . S
O284 Mg277 2.141 . S
O284 C282 1.289 1_545 S
O285 Mg277 2.048 . S
O285 C278 1.195 1_545 S
O286 Mg277 2.048 . S
O286 C287 1.195 1_545 S
C287 O286 1.195 1_565 S
C287 O288 1.313 . S
O288 C287 1.313 . S
O289 Mg277 2.141 . S
O289 C280 1.289 1_545 S
Mg290 O297 2.141 . S
Mg290 O298 2.048 . S
Mg290 O299 2.048 . S
Mg290 O302 2.141 . S
C291 O292 1.313 . S
C291 O298 1.195 . S
O292 C291 1.313 . S
C293 O294 1.245 . S
C293 O302 1.289 . S
O294 C293 1.245 . S
C295 O296 1.245 . S
C295 O297 1.289 . S
O296 C295 1.245 . S
O297 Mg290 2.141 . S
O297 C295 1.289 . S
O298 Mg290 2.048 . S
O298 C291 1.195 . S
O299 Mg290 2.048 . S
O299 C300 1.195 . S
C300 O299 1.195 . S
C300 O301 1.313 . S
O301 C300 1.313 . S
O302 Mg290 2.141 . S
O302 C293 1.289 . S
H303 C309 0.930 . S
H304 C312 0.930 . S
H305 C313 0.930 . S
H306 C314 0.930 . S
H307 C317 0.930 . S
H308 C318 0.930 . S
C309 H303 0.930 . S
C309 C310 1.355 . S
C309 C311 1.415 . S
C310 C309 1.355 . S
C310 C312 1.419 1_655 S
C311 C309 1.415 . S
C311 C316 1.425 . S
C311 C318 1.409 . S
C312 H304 0.930 . S
C312 C310 1.419 1_455 S
C312 C313 1.362 . S
C313 H305 0.930 . S
C313 C312 1.362 . S
C313 C316 1.409 1_455 S
C314 H306 0.930 . S
C314 C315 1.355 1_455 S
C314 C316 1.415 1_455 S
C315 C314 1.355 1_655 S
C315 C317 1.419 . S
C316 C311 1.425 . S
C316 C313 1.409 1_655 S
C316 C314 1.415 1_655 S
C317 H307 0.930 . S
C317 C315 1.419 . S
C317 C318 1.362 . S
C318 H308 0.930 . S
C318 C311 1.409 . S
C318 C317 1.362 . S
H319 C325 0.930 . S
H320 C328 0.930 . S
H321 C329 0.930 . S
H322 C330 0.930 . S
H323 C333 0.930 . S
H324 C334 0.930 . S
C325 H319 0.930 . S
C325 C326 1.355 . S
C325 C327 1.415 . S
C326 C325 1.355 . S
C326 C328 1.419 . S
C327 C325 1.415 . S
C327 C332 1.425 . S
C327 C334 1.409 . S
C328 H320 0.930 . S
C328 C326 1.419 . S
C328 C329 1.362 1_565 S
C329 H321 0.930 . S
C329 C328 1.362 1_545 S
C329 C332 1.409 1_545 S
C330 H322 0.930 . S
C330 C331 1.355 1_545 S
C330 C332 1.415 1_545 S
C331 C330 1.355 1_565 S
C331 C333 1.419 . S
C332 C327 1.425 . S
C332 C329 1.409 1_565 S
C332 C330 1.415 1_565 S
C333 H323 0.930 . S
C333 C331 1.419 . S
C333 C334 1.362 . S
C334 H324 0.930 . S
C334 C327 1.409 . S
C334 C333 1.362 . S
H335 C341 0.930 . S
H336 C344 0.930 . S
H337 C345 0.930 . S
H338 C346 0.930 . S
H339 C349 0.930 . S
H340 C350 0.930 . S
C341 H335 0.930 . S
C341 C342 1.355 . S
C341 C343 1.415 . S
C342 C341 1.355 . S
C342 C344 1.419 . S
C343 C341 1.415 . S
C343 C348 1.425 . S
C343 C350 1.409 . S
C344 H336 0.930 . S
C344 C342 1.419 . S
C344 C345 1.362 . S
C345 H337 0.930 . S
C345 C344 1.362 . S
C345 C348 1.409 . S
C346 H338 0.930 . S
C346 C347 1.355 . S
C346 C348 1.415 . S
C347 C346 1.355 . S
C347 C349 1.419 . S
C348 C343 1.425 . S
C348 C345 1.409 . S
C348 C346 1.415 . S
C349 H339 0.930 . S
C349 C347 1.419 . S
C349 C350 1.362 . S
C350 H340 0.930 . S
C350 C343 1.409 . S
C350 C349 1.362 . S
H351 C357 0.930 . S
H352 C360 0.930 . S
H353 C361 0.930 . S
H354 C362 0.930 . S
H355 C365 0.930 . S
H356 C366 0.930 1_655 S
C357 H351 0.930 . S
C357 C358 1.355 . S
C357 C359 1.415 . S
C358 C357 1.355 . S
C358 C360 1.419 . S
C359 C357 1.415 . S
C359 C364 1.425 . S
C359 C366 1.409 . S
C360 H352 0.930 . S
C360 C358 1.419 . S
C360 C361 1.362 . S
C361 H353 0.930 . S
C361 C360 1.362 . S
C361 C364 1.409 . S
C362 H354 0.930 . S
C362 C363 1.355 . S
C362 C364 1.415 . S
C363 C362 1.355 . S
C363 C365 1.419 1_455 S
C364 C359 1.425 . S
C364 C361 1.409 . S
C364 C362 1.415 . S
C365 H355 0.930 . S
C365 C363 1.419 1_655 S
C365 C366 1.362 1_655 S
C366 H356 0.930 1_455 S
C366 C359 1.409 . S
C366 C365 1.362 1_455 S
H367 C373 0.930 . S
H368 C376 0.930 . S
H369 C377 0.930 . S
H370 C378 0.930 1_565 S
H371 C381 0.930 . S
H372 C382 0.930 . S
C373 H367 0.930 . S
C373 C374 1.355 . S
C373 C375 1.415 . S
C374 C373 1.355 . S
C374 C376 1.419 . S
C375 C373 1.415 . S
C375 C380 1.425 . S
C375 C382 1.409 . S
C376 H368 0.930 . S
C376 C374 1.419 . S
C376 C377 1.362 . S
C377 H369 0.930 . S
C377 C376 1.362 . S
C377 C380 1.409 . S
C378 H370 0.930 1_545 S
C378 C379 1.355 . S
C378 C380 1.415 . S
C379 C378 1.355 . S
C379 C381 1.419 . S
C380 C375 1.425 . S
C380 C377 1.409 . S
C380 C378 1.415 . S
C381 H371 0.930 . S
C381 C379 1.419 . S
C381 C382 1.362 . S
C382 H372 0.930 . S
C382 C375 1.409 . S
C382 C381 1.362 . S
H383 C389 0.930 . S
H384 C392 0.930 . S
H385 C393 0.930 . S
H386 C394 0.930 . S
H387 C397 0.930 . S
H388 C398 0.930 . S
C389 H383 0.930 . S
C389 C390 1.355 . S
C389 C391 1.415 . S
C390 C389 1.355 . S
C390 C392 1.419 . S
C391 C389 1.415 . S
C391 C396 1.425 . S
C391 C398 1.409 . S
C392 H384 0.930 . S
C392 C390 1.419 . S
C392 C393 1.362 . S
C393 H385 0.930 . S
C393 C392 1.362 . S
C393 C396 1.409 . S
C394 H386 0.930 . S
C394 C395 1.355 . S
C394 C396 1.415 . S
C395 C394 1.355 . S
C395 C397 1.419 . S
C396 C391 1.425 . S
C396 C393 1.409 . S
C396 C394 1.415 . S
C397 H387 0.930 . S
C397 C395 1.419 . S
C397 C398 1.362 . S
C398 H388 0.930 . S
C398 C391 1.409 . S
C398 C397 1.362 . S
H399 C405 0.930 . S
H400 C408 0.930 . S
H401 C409 0.930 1_565 S
H402 C410 0.930 . S
H403 C413 0.930 . S
H404 C414 0.930 . S
C405 H399 0.930 . S
C405 C406 1.355 . S
C405 C407 1.415 . S
C406 C405 1.355 . S
C406 C408 1.419 . S
C407 C405 1.415 . S
C407 C412 1.425 . S
C407 C414 1.409 . S
C408 H400 0.930 . S
C408 C406 1.419 . S
C408 C409 1.362 . S
C409 H401 0.930 1_545 S
C409 C408 1.362 . S
C409 C412 1.409 . S
C410 H402 0.930 . S
C410 C411 1.355 1_565 S
C410 C412 1.415 1_565 S
C411 C410 1.355 1_545 S
C411 C413 1.419 . S
C412 C407 1.425 . S
C412 C409 1.409 . S
C412 C410 1.415 1_545 S
C413 H403 0.930 . S
C413 C411 1.419 . S
C413 C414 1.362 . S
C414 H404 0.930 . S
C414 C407 1.409 . S
C414 C413 1.362 . S
H415 C421 0.930 . S
H416 C424 0.930 . S
H417 C425 0.930 . S
H418 C426 0.930 . S
H419 C429 0.930 . S
H420 C430 0.930 . S
C421 H415 0.930 . S
C421 C422 1.355 . S
C421 C423 1.454 . S
C422 C421 1.355 . S
C422 C424 1.419 . S
C423 C421 1.454 . S
C423 C428 1.429 . S
C423 C430 1.369 1_554 S
C424 H416 0.930 . S
C424 C422 1.419 . S
C424 C425 1.362 . S
C425 H417 0.930 . S
C425 C424 1.362 . S
C425 C428 1.409 . S
C426 H418 0.930 . S
C426 C427 1.355 . S
C426 C428 1.415 1_556 S
C427 C426 1.355 . S
C427 C429 1.419 . S
C428 C423 1.429 . S
C428 C425 1.409 . S
C428 C426 1.415 1_554 S
C429 H419 0.930 . S
C429 C427 1.419 . S
C429 C430 1.362 . S
C430 H420 0.930 . S
C430 C423 1.369 1_556 S
C430 C429 1.362 . S
H431 C437 0.930 1_455 S
H432 C440 0.930 . S
H433 C441 0.930 . S
H434 C442 0.930 . S
H435 C445 0.930 . S
H436 C446 0.930 . S
C437 H431 0.930 1_655 S
C437 C438 1.355 . S
C437 C439 1.415 . S
C438 C437 1.355 . S
C438 C440 1.419 . S
C439 C437 1.415 . S
C439 C444 1.425 . S
C439 C446 1.409 1_655 S
C440 H432 0.930 . S
C440 C438 1.419 . S
C440 C441 1.362 . S
C441 H433 0.930 . S
C441 C440 1.362 . S
C441 C444 1.409 . S
C442 H434 0.930 . S
C442 C443 1.355 . S
C442 C444 1.415 . S
C443 C442 1.355 . S
C443 C445 1.419 1_655 S
C444 C439 1.425 . S
C444 C441 1.409 . S
C444 C442 1.415 . S
C445 H435 0.930 . S
C445 C443 1.419 1_455 S
C445 C446 1.362 . S
C446 H436 0.930 . S
C446 C439 1.409 1_455 S
C446 C445 1.362 . S
H447 C453 0.930 . S
H448 C456 0.930 . S
H449 C457 0.930 . S
H450 C458 0.930 . S
H451 C461 0.930 . S
H452 C462 0.930 . S
C453 H447 0.930 . S
C453 C454 1.355 . S
C453 C455 1.415 . S
C454 C453 1.355 . S
C454 C456 1.419 . S
C455 C453 1.415 . S
C455 C460 1.425 . S
C455 C462 1.409 1_565 S
C456 H448 0.930 . S
C456 C454 1.419 . S
C456 C457 1.362 . S
C457 H449 0.930 . S
C457 C456 1.362 . S
C457 C460 1.409 . S
C458 H450 0.930 . S
C458 C459 1.355 . S
C458 C460 1.415 . S
C459 C458 1.355 . S
C459 C461 1.419 1_565 S
C460 C455 1.425 . S
C460 C457 1.409 . S
C460 C458 1.415 . S
C461 H451 0.930 . S
C461 C459 1.419 1_545 S
C461 C462 1.362 . S
C462 H452 0.930 . S
C462 C455 1.409 1_545 S
C462 C461 1.362 . S
H463 C469 0.930 . S
H464 C472 0.930 . S
H465 C473 0.930 . S
H466 C474 0.930 . S
H467 C477 0.930 . S
H468 C478 0.930 . S
C469 H463 0.930 . S
C469 C470 1.355 . S
C469 C471 1.415 . S
C470 C469 1.355 . S
C470 C472 1.419 . S
C471 C469 1.415 . S
C471 C476 1.425 1_554 S
C471 C478 1.409 . S
C472 H464 0.930 . S
C472 C470 1.419 . S
C472 C473 1.362 1_554 S
C473 H465 0.930 . S
C473 C472 1.362 1_556 S
C473 C476 1.409 . S
C474 H466 0.930 . S
C474 C475 1.355 . S
C474 C476 1.415 . S
C475 C474 1.355 . S
C475 C477 1.419 . S
C476 C471 1.425 1_556 S
C476 C473 1.409 . S
C476 C474 1.415 . S
C477 H467 0.930 . S
C477 C475 1.419 . S
C477 C478 1.362 1_556 S
C478 H468 0.930 . S
C478 C471 1.409 . S
C478 C477 1.362 1_554 S
H479 C485 0.930 . S
H480 C488 0.930 . S
H481 C489 0.930 . S
H482 C490 0.930 . S
H483 C493 0.930 . S
H484 C494 0.930 . S
C485 H479 0.930 . S
C485 C486 1.355 . S
C485 C487 1.415 . S
C486 C485 1.355 . S
C486 C488 1.419 . S
C487 C485 1.415 . S
C487 C492 1.425 . S
C487 C494 1.409 1_455 S
C488 H480 0.930 . S
C488 C486 1.419 . S
C488 C489 1.362 . S
C489 H481 0.930 . S
C489 C488 1.362 . S
C489 C492 1.409 . S
C490 H482 0.930 . S
C490 C491 1.355 . S
C490 C492 1.415 . S
C491 C490 1.355 . S
C491 C493 1.419 1_455 S
C492 C487 1.425 . S
C492 C489 1.409 . S
C492 C490 1.415 . S
C493 H483 0.930 . S
C493 C491 1.419 1_655 S
C493 C494 1.362 . S
C494 H484 0.930 . S
C494 C487 1.409 1_655 S
C494 C493 1.362 . S
C315 C269 1.399 . S
C310 C29 1.409 . S
C326 C137 1.464 . S
C331 C287 1.471 . S
C342 C225 1.504 . S
C347 C300 1.511 . S
C358 C49 1.452 . S
C363 C267 1.468 1_455 S
C379 C278 1.519 1_545 S
C374 C117 1.467 . S
C390 C205 1.520 . S
C395 C291 1.529 . S
C411 C280 1.463 1_545 S
C406 C233 1.429 . S
C422 C57 1.457 . S
C427 C293 1.464 . S
C443 C274 1.521 . S
C438 C108 1.521 . S
C459 C282 1.445 . S
C454 C196 1.449 . S
C475 C295 1.423 . S
C470 C20 1.421 . S
C486 C145 1.490 . S
C491 C265 1.519 1_455 S
