# Generated by pormake.
# Topology gar, (4,6)-cn, num edge types: 1
# Building blocks:
#     Node 0, Type 0, BuildingBlock: KUFVIS_clean_sbu_0, # of connection points: 4
#     Node 1, Type 0, BuildingBlock: KUFVIS_clean_sbu_0, # of connection points: 4
#     Node 2, Type 0, BuildingBlock: KUFVIS_clean_sbu_0, # of connection points: 4
#     Node 3, Type 0, BuildingBlock: KUFVIS_clean_sbu_0, # of connection points: 4
#     Node 4, Type 0, BuildingBlock: KUFVIS_clean_sbu_0, # of connection points: 4
#     Node 5, Type 0, BuildingBlock: KUFVIS_clean_sbu_0, # of connection points: 4
#     Node 6, Type 0, BuildingBlock: KUFVIS_clean_sbu_0, # of connection points: 4
#     Node 7, Type 0, BuildingBlock: KUFVIS_clean_sbu_0, # of connection points: 4
#     Node 8, Type 0, BuildingBlock: KUFVIS_clean_sbu_0, # of connection points: 4
#     Node 9, Type 0, BuildingBlock: KUFVIS_clean_sbu_0, # of connection points: 4
#     Node 10, Type 0, BuildingBlock: KUFVIS_clean_sbu_0, # of connection points: 4
#     Node 11, Type 0, BuildingBlock: KUFVIS_clean_sbu_0, # of connection points: 4
#     Node 12, Type 0, BuildingBlock: KUFVIS_clean_sbu_0, # of connection points: 4
#     Node 13, Type 0, BuildingBlock: KUFVIS_clean_sbu_0, # of connection points: 4
#     Node 14, Type 0, BuildingBlock: KUFVIS_clean_sbu_0, # of connection points: 4
#     Node 15, Type 0, BuildingBlock: KUFVIS_clean_sbu_0, # of connection points: 4
#     Node 16, Type 0, BuildingBlock: KUFVIS_clean_sbu_0, # of connection points: 4
#     Node 17, Type 0, BuildingBlock: KUFVIS_clean_sbu_0, # of connection points: 4
#     Node 18, Type 0, BuildingBlock: KUFVIS_clean_sbu_0, # of connection points: 4
#     Node 19, Type 0, BuildingBlock: KUFVIS_clean_sbu_0, # of connection points: 4
#     Node 20, Type 0, BuildingBlock: KUFVIS_clean_sbu_0, # of connection points: 4
#     Node 21, Type 0, BuildingBlock: KUFVIS_clean_sbu_0, # of connection points: 4
#     Node 22, Type 0, BuildingBlock: KUFVIS_clean_sbu_0, # of connection points: 4
#     Node 23, Type 0, BuildingBlock: KUFVIS_clean_sbu_0, # of connection points: 4
#     Node 24, Type 1, BuildingBlock: CUKXOW_clean_sbu_0, # of connection points: 6
#     Node 25, Type 1, BuildingBlock: CUKXOW_clean_sbu_0, # of connection points: 6
#     Node 26, Type 1, BuildingBlock: CUKXOW_clean_sbu_0, # of connection points: 6
#     Node 27, Type 1, BuildingBlock: CUKXOW_clean_sbu_0, # of connection points: 6
#     Node 28, Type 1, BuildingBlock: CUKXOW_clean_sbu_0, # of connection points: 6
#     Node 29, Type 1, BuildingBlock: CUKXOW_clean_sbu_0, # of connection points: 6
#     Node 30, Type 1, BuildingBlock: CUKXOW_clean_sbu_0, # of connection points: 6
#     Node 31, Type 1, BuildingBlock: CUKXOW_clean_sbu_0, # of connection points: 6
#     Node 32, Type 1, BuildingBlock: CUKXOW_clean_sbu_0, # of connection points: 6
#     Node 33, Type 1, BuildingBlock: CUKXOW_clean_sbu_0, # of connection points: 6
#     Node 34, Type 1, BuildingBlock: CUKXOW_clean_sbu_0, # of connection points: 6
#     Node 35, Type 1, BuildingBlock: CUKXOW_clean_sbu_0, # of connection points: 6
#     Node 36, Type 1, BuildingBlock: CUKXOW_clean_sbu_0, # of connection points: 6
#     Node 37, Type 1, BuildingBlock: CUKXOW_clean_sbu_0, # of connection points: 6
#     Node 38, Type 1, BuildingBlock: CUKXOW_clean_sbu_0, # of connection points: 6
#     Node 39, Type 1, BuildingBlock: CUKXOW_clean_sbu_0, # of connection points: 6
#     Edge 40, Type (0, 1), BuildingBlock: XIVTED_clean_linker_0, # of connection points: 2
#     Edge 41, Type (0, 1), BuildingBlock: XIVTED_clean_linker_0, # of connection points: 2
#     Edge 42, Type (0, 1), BuildingBlock: XIVTED_clean_linker_0, # of connection points: 2
#     Edge 43, Type (0, 1), BuildingBlock: XIVTED_clean_linker_0, # of connection points: 2
#     Edge 44, Type (0, 1), BuildingBlock: XIVTED_clean_linker_0, # of connection points: 2
#     Edge 45, Type (0, 1), BuildingBlock: XIVTED_clean_linker_0, # of connection points: 2
#     Edge 46, Type (0, 1), BuildingBlock: XIVTED_clean_linker_0, # of connection points: 2
#     Edge 47, Type (0, 1), BuildingBlock: XIVTED_clean_linker_0, # of connection points: 2
#     Edge 48, Type (0, 1), BuildingBlock: XIVTED_clean_linker_0, # of connection points: 2
#     Edge 49, Type (0, 1), BuildingBlock: XIVTED_clean_linker_0, # of connection points: 2
#     Edge 50, Type (0, 1), BuildingBlock: XIVTED_clean_linker_0, # of connection points: 2
#     Edge 51, Type (0, 1), BuildingBlock: XIVTED_clean_linker_0, # of connection points: 2
#     Edge 52, Type (0, 1), BuildingBlock: XIVTED_clean_linker_0, # of connection points: 2
#     Edge 53, Type (0, 1), BuildingBlock: XIVTED_clean_linker_0, # of connection points: 2
#     Edge 54, Type (0, 1), BuildingBlock: XIVTED_clean_linker_0, # of connection points: 2
#     Edge 55, Type (0, 1), BuildingBlock: XIVTED_clean_linker_0, # of connection points: 2
#     Edge 56, Type (0, 1), BuildingBlock: XIVTED_clean_linker_0, # of connection points: 2
#     Edge 57, Type (0, 1), BuildingBlock: XIVTED_clean_linker_0, # of connection points: 2
#     Edge 58, Type (0, 1), BuildingBlock: XIVTED_clean_linker_0, # of connection points: 2
#     Edge 59, Type (0, 1), BuildingBlock: XIVTED_clean_linker_0, # of connection points: 2
#     Edge 60, Type (0, 1), BuildingBlock: XIVTED_clean_linker_0, # of connection points: 2
#     Edge 61, Type (0, 1), BuildingBlock: XIVTED_clean_linker_0, # of connection points: 2
#     Edge 62, Type (0, 1), BuildingBlock: XIVTED_clean_linker_0, # of connection points: 2
#     Edge 63, Type (0, 1), BuildingBlock: XIVTED_clean_linker_0, # of connection points: 2
#     Edge 64, Type (0, 1), BuildingBlock: XIVTED_clean_linker_0, # of connection points: 2
#     Edge 65, Type (0, 1), BuildingBlock: XIVTED_clean_linker_0, # of connection points: 2
#     Edge 66, Type (0, 1), BuildingBlock: XIVTED_clean_linker_0, # of connection points: 2
#     Edge 67, Type (0, 1), BuildingBlock: XIVTED_clean_linker_0, # of connection points: 2
#     Edge 68, Type (0, 1), BuildingBlock: XIVTED_clean_linker_0, # of connection points: 2
#     Edge 69, Type (0, 1), BuildingBlock: XIVTED_clean_linker_0, # of connection points: 2
#     Edge 70, Type (0, 1), BuildingBlock: XIVTED_clean_linker_0, # of connection points: 2
#     Edge 71, Type (0, 1), BuildingBlock: XIVTED_clean_linker_0, # of connection points: 2
#     Edge 72, Type (0, 1), BuildingBlock: XIVTED_clean_linker_0, # of connection points: 2
#     Edge 73, Type (0, 1), BuildingBlock: XIVTED_clean_linker_0, # of connection points: 2
#     Edge 74, Type (0, 1), BuildingBlock: XIVTED_clean_linker_0, # of connection points: 2
#     Edge 75, Type (0, 1), BuildingBlock: XIVTED_clean_linker_0, # of connection points: 2
#     Edge 76, Type (0, 1), BuildingBlock: XIVTED_clean_linker_0, # of connection points: 2
#     Edge 77, Type (0, 1), BuildingBlock: XIVTED_clean_linker_0, # of connection points: 2
#     Edge 78, Type (0, 1), BuildingBlock: XIVTED_clean_linker_0, # of connection points: 2
#     Edge 79, Type (0, 1), BuildingBlock: XIVTED_clean_linker_0, # of connection points: 2
#     Edge 80, Type (0, 1), BuildingBlock: XIVTED_clean_linker_0, # of connection points: 2
#     Edge 81, Type (0, 1), BuildingBlock: XIVTED_clean_linker_0, # of connection points: 2
#     Edge 82, Type (0, 1), BuildingBlock: XIVTED_clean_linker_0, # of connection points: 2
#     Edge 83, Type (0, 1), BuildingBlock: XIVTED_clean_linker_0, # of connection points: 2
#     Edge 84, Type (0, 1), BuildingBlock: XIVTED_clean_linker_0, # of connection points: 2
#     Edge 85, Type (0, 1), BuildingBlock: XIVTED_clean_linker_0, # of connection points: 2
#     Edge 86, Type (0, 1), BuildingBlock: XIVTED_clean_linker_0, # of connection points: 2
#     Edge 87, Type (0, 1), BuildingBlock: XIVTED_clean_linker_0, # of connection points: 2
#     Edge 88, Type (0, 1), BuildingBlock: XIVTED_clean_linker_0, # of connection points: 2
#     Edge 89, Type (0, 1), BuildingBlock: XIVTED_clean_linker_0, # of connection points: 2
#     Edge 90, Type (0, 1), BuildingBlock: XIVTED_clean_linker_0, # of connection points: 2
#     Edge 91, Type (0, 1), BuildingBlock: XIVTED_clean_linker_0, # of connection points: 2
#     Edge 92, Type (0, 1), BuildingBlock: XIVTED_clean_linker_0, # of connection points: 2
#     Edge 93, Type (0, 1), BuildingBlock: XIVTED_clean_linker_0, # of connection points: 2
#     Edge 94, Type (0, 1), BuildingBlock: XIVTED_clean_linker_0, # of connection points: 2
#     Edge 95, Type (0, 1), BuildingBlock: XIVTED_clean_linker_0, # of connection points: 2
#     Edge 96, Type (0, 1), BuildingBlock: XIVTED_clean_linker_0, # of connection points: 2
#     Edge 97, Type (0, 1), BuildingBlock: XIVTED_clean_linker_0, # of connection points: 2
#     Edge 98, Type (0, 1), BuildingBlock: XIVTED_clean_linker_0, # of connection points: 2
#     Edge 99, Type (0, 1), BuildingBlock: XIVTED_clean_linker_0, # of connection points: 2
#     Edge 100, Type (0, 1), BuildingBlock: XIVTED_clean_linker_0, # of connection points: 2
#     Edge 101, Type (0, 1), BuildingBlock: XIVTED_clean_linker_0, # of connection points: 2
#     Edge 102, Type (0, 1), BuildingBlock: XIVTED_clean_linker_0, # of connection points: 2
#     Edge 103, Type (0, 1), BuildingBlock: XIVTED_clean_linker_0, # of connection points: 2
#     Edge 104, Type (0, 1), BuildingBlock: XIVTED_clean_linker_0, # of connection points: 2
#     Edge 105, Type (0, 1), BuildingBlock: XIVTED_clean_linker_0, # of connection points: 2
#     Edge 106, Type (0, 1), BuildingBlock: XIVTED_clean_linker_0, # of connection points: 2
#     Edge 107, Type (0, 1), BuildingBlock: XIVTED_clean_linker_0, # of connection points: 2
#     Edge 108, Type (0, 1), BuildingBlock: XIVTED_clean_linker_0, # of connection points: 2
#     Edge 109, Type (0, 1), BuildingBlock: XIVTED_clean_linker_0, # of connection points: 2
#     Edge 110, Type (0, 1), BuildingBlock: XIVTED_clean_linker_0, # of connection points: 2
#     Edge 111, Type (0, 1), BuildingBlock: XIVTED_clean_linker_0, # of connection points: 2
#     Edge 112, Type (0, 1), BuildingBlock: XIVTED_clean_linker_0, # of connection points: 2
#     Edge 113, Type (0, 1), BuildingBlock: XIVTED_clean_linker_0, # of connection points: 2
#     Edge 114, Type (0, 1), BuildingBlock: XIVTED_clean_linker_0, # of connection points: 2
#     Edge 115, Type (0, 1), BuildingBlock: XIVTED_clean_linker_0, # of connection points: 2
#     Edge 116, Type (0, 1), BuildingBlock: XIVTED_clean_linker_0, # of connection points: 2
#     Edge 117, Type (0, 1), BuildingBlock: XIVTED_clean_linker_0, # of connection points: 2
#     Edge 118, Type (0, 1), BuildingBlock: XIVTED_clean_linker_0, # of connection points: 2
#     Edge 119, Type (0, 1), BuildingBlock: XIVTED_clean_linker_0, # of connection points: 2
#     Edge 120, Type (0, 1), BuildingBlock: XIVTED_clean_linker_0, # of connection points: 2
#     Edge 121, Type (0, 1), BuildingBlock: XIVTED_clean_linker_0, # of connection points: 2
#     Edge 122, Type (0, 1), BuildingBlock: XIVTED_clean_linker_0, # of connection points: 2
#     Edge 123, Type (0, 1), BuildingBlock: XIVTED_clean_linker_0, # of connection points: 2
#     Edge 124, Type (0, 1), BuildingBlock: XIVTED_clean_linker_0, # of connection points: 2
#     Edge 125, Type (0, 1), BuildingBlock: XIVTED_clean_linker_0, # of connection points: 2
#     Edge 126, Type (0, 1), BuildingBlock: XIVTED_clean_linker_0, # of connection points: 2
#     Edge 127, Type (0, 1), BuildingBlock: XIVTED_clean_linker_0, # of connection points: 2
#     Edge 128, Type (0, 1), BuildingBlock: XIVTED_clean_linker_0, # of connection points: 2
#     Edge 129, Type (0, 1), BuildingBlock: XIVTED_clean_linker_0, # of connection points: 2
#     Edge 130, Type (0, 1), BuildingBlock: XIVTED_clean_linker_0, # of connection points: 2
#     Edge 131, Type (0, 1), BuildingBlock: XIVTED_clean_linker_0, # of connection points: 2
#     Edge 132, Type (0, 1), BuildingBlock: XIVTED_clean_linker_0, # of connection points: 2
#     Edge 133, Type (0, 1), BuildingBlock: XIVTED_clean_linker_0, # of connection points: 2
#     Edge 134, Type (0, 1), BuildingBlock: XIVTED_clean_linker_0, # of connection points: 2
#     Edge 135, Type (0, 1), BuildingBlock: XIVTED_clean_linker_0, # of connection points: 2
# Relax obj value: 0.106
# Max RMSD: 0.220
# Mean RMSD: 0.117
data_MOF--net-gar--node1-KUFVIS_clean_sbu_0--node2-CUKXOW_clean_sbu_0--edge1-XIVTED_clean_linker_0
_symmetry_space_group_name_H-M    P1
_symmetry_Int_Tables_number       1
_symmetry_cell_setting            triclinic
loop_
_symmetry_equiv_pos_as_xyz
'x, y, z'
_cell_length_a     54.614666
_cell_length_b     53.402483
_cell_length_c     54.645337
_cell_angle_alpha  93.674918
_cell_angle_beta   95.214011
_cell_angle_gamma 98.979356
loop_
_atom_site_label
_atom_site_type_symbol
_atom_site_fract_x
_atom_site_fract_y
_atom_site_fract_z
_atom_type_partial_charge
Mn0 Mn 0.02446 0.27322 0.42766 0.0
Mn1 Mn 0.01726 0.30967 0.38004 0.0
C2 C 0.98526 0.27947 0.41235 0.0
C3 C 0.0274 0.23478 0.44421 0.0
C4 C 0.03525 0.33139 0.43217 0.0
O5 O 0.05755 0.27427 0.4127 0.0
O6 O 0.04975 0.29789 0.38098 0.0
C7 C 0.01492 0.26973 0.33933 0.0
N8 N 0.00453 0.28822 0.35087 0.0
C9 C 0.96954 0.282 0.31977 0.0
C10 C 0.9799 0.26295 0.3075 0.0
C11 C 1.00263 0.25671 0.31738 0.0
C12 C 0.98251 0.29413 0.3417 0.0
H13 H 0.03244 0.26495 0.34681 0.0
C14 C 0.06365 0.28508 0.39345 0.0
O15 O 0.03676 0.25632 0.45635 0.0
O16 O 0.01711 0.23546 0.42193 0.0
N17 N 0.98629 0.32225 0.37668 0.0
C18 C 0.97867 0.34085 0.39096 0.0
C19 C 0.95636 0.3495 0.38353 0.0
C20 C 0.94231 0.33918 0.36137 0.0
C21 C 0.95058 0.32016 0.34691 0.0
C22 C 0.97302 0.3124 0.35519 0.0
H23 H 0.98959 0.34914 0.40781 0.0
O24 O 0.98906 0.27315 0.43475 0.0
O25 O 1.0044 0.28217 0.39983 0.0
O26 O 0.03402 0.31013 0.44163 0.0
O27 O 0.02983 0.33347 0.40925 0.0
C28 C 0.93746 0.3086 0.32462 0.0
C29 C 0.94681 0.28936 0.31117 0.0
H30 H 0.97053 0.25293 0.29052 0.0
H31 H 0.01072 0.24199 0.30805 0.0
H32 H 0.95011 0.36421 0.39476 0.0
H33 H 0.92521 0.34604 0.35562 0.0
H34 H 0.92002 0.31417 0.31776 0.0
H35 H 0.93638 0.28037 0.29424 0.0
Mn36 Mn 1.00415 0.79127 0.60098 0.0
Mn37 Mn 0.02738 0.8335 0.64953 0.0
C38 C 0.04393 0.79215 0.61917 0.0
C39 C 0.98298 0.75232 0.58357 0.0
C40 C 0.02239 0.84767 0.59694 0.0
O41 O 0.97301 0.80218 0.61292 0.0
O42 O 0.99053 0.82867 0.64586 0.0
C43 C 0.00884 0.80295 0.68939 0.0
N44 N 0.02812 0.81628 0.67913 0.0
C45 C 0.05742 0.80973 0.7128 0.0
C46 C 0.03787 0.79601 0.72379 0.0
C47 C 0.01349 0.79253 0.71198 0.0
C48 C 0.05168 0.81952 0.6902 0.0
H49 H 0.99007 0.8003 0.68041 0.0
C50 C 0.97158 0.81708 0.63179 0.0
O51 O 0.98522 0.77229 0.57112 0.0
O52 O 0.99204 0.75524 0.60659 0.0
N53 N 0.06296 0.83994 0.65558 0.0
C54 C 0.07982 0.85305 0.64221 0.0
C55 C 0.10511 0.85808 0.65141 0.0
C56 C 0.11276 0.8499 0.67439 0.0
C57 C 0.09503 0.83675 0.68796 0.0
C58 C 0.07009 0.83234 0.67788 0.0
H59 H 0.07403 0.85962 0.62467 0.0
O60 O 0.03782 0.78255 0.59662 0.0
O61 O 0.02674 0.80097 0.63034 0.0
O62 O 0.01355 0.82543 0.58733 0.0
O63 O 0.02798 0.85301 0.62006 0.0
C64 C 0.10117 0.82755 0.71095 0.0
C65 C 0.08241 0.81388 0.72327 0.0
H66 H 0.04136 0.78798 0.74123 0.0
H67 H 0.99831 0.7819 0.72031 0.0
H68 H 0.11867 0.86827 0.64084 0.0
H69 H 0.13229 0.85369 0.68136 0.0
H70 H 0.12033 0.83054 0.71914 0.0
H71 H 0.08743 0.80656 0.74074 0.0
Mn72 Mn 0.51999 0.76846 0.93518 0.0
Mn73 Mn 0.51224 0.80445 0.88729 0.0
C74 C 0.48063 0.77274 0.91905 0.0
C75 C 0.52482 0.73051 0.95149 0.0
C76 C 0.52802 0.82649 0.93962 0.0
O77 O 0.55373 0.77175 0.9216 0.0
O78 O 0.54578 0.79497 0.8896 0.0
C79 C 0.51339 0.76487 0.84711 0.0
N80 N 0.50153 0.78257 0.85798 0.0
C81 C 0.46771 0.77463 0.8256 0.0
C82 C 0.47959 0.75638 0.814 0.0
C83 C 0.50248 0.7514 0.82487 0.0
C84 C 0.47934 0.78724 0.84788 0.0
H85 H 0.53104 0.76109 0.85536 0.0
C86 C 0.56009 0.78328 0.90286 0.0
O87 O 0.53267 0.75217 0.96406 0.0
O88 O 0.51481 0.73089 0.92905 0.0
N89 N 0.48044 0.81517 0.88259 0.0
C90 C 0.47139 0.83328 0.89621 0.0
C91 C 0.44875 0.84072 0.88776 0.0
C92 C 0.43586 0.82976 0.86525 0.0
C93 C 0.44569 0.81139 0.8514 0.0
C94 C 0.46835 0.80479 0.86073 0.0
H95 H 0.48143 0.84208 0.91332 0.0
O96 O 0.48426 0.76632 0.94144 0.0
O97 O 0.50001 0.77647 0.90688 0.0
O98 O 0.52744 0.80535 0.94918 0.0
O99 O 0.52281 0.82849 0.91665 0.0
C100 C 0.4339 0.79935 0.82873 0.0
C101 C 0.44477 0.7808 0.81597 0.0
H102 H 0.4713 0.74605 0.79678 0.0
H103 H 0.51174 0.7373 0.81606 0.0
H104 H 0.44132 0.85496 0.89851 0.0
H105 H 0.41843 0.83559 0.85878 0.0
H106 H 0.41636 0.80405 0.82104 0.0
H107 H 0.43536 0.77144 0.79872 0.0
Mn108 Mn 0.49607 0.29497 0.1123 0.0
Mn109 Mn 0.44863 0.28153 0.06692 0.0
C110 C 0.48023 0.25348 0.09808 0.0
C111 C 0.53755 0.30334 0.12792 0.0
C112 C 0.4418 0.29868 0.11894 0.0
O113 O 0.49787 0.32816 0.09621 0.0
O114 O 0.46505 0.31751 0.06711 0.0
C115 C 0.47788 0.28666 0.02393 0.0
N116 N 0.46143 0.27232 0.03677 0.0
C117 C 0.4576 0.2366 1.0067 0.0
C118 C 0.47441 0.25104 0.99311 0.0
C119 C 0.4846 0.27617 1.00177 0.0
C120 C 0.4514 0.24815 0.02852 0.0
H121 H 0.48587 0.30595 0.03054 0.0
C122 C 0.48348 0.33333 0.07815 0.0
O123 O 0.52032 0.3107 0.14008 0.0
O124 O 0.53088 0.29183 0.10609 0.0
N125 N 0.43198 0.24701 0.06471 0.0
C126 C 0.41769 0.23499 0.08099 0.0
C127 C 0.40689 0.20937 0.07557 0.0
C128 C 0.41092 0.19637 0.0535 0.0
C129 C 0.42573 0.20913 0.03705 0.0
C130 C 0.43581 0.23474 0.04332 0.0
H131 H 0.41482 0.24479 0.0981 0.0
O132 O 0.49092 0.25855 0.12047 0.0
O133 O 0.47818 0.27284 0.08538 0.0
O134 O 0.46468 0.30145 0.12681 0.0
O135 O 0.43311 0.29024 0.09701 0.0
C136 C 0.43136 0.19726 0.01495 0.0
C137 C 0.44727 0.21099 0.99977 0.0
H138 H 0.47982 0.24295 0.97613 0.0
H139 H 0.49768 0.2874 0.99145 0.0
H140 H 0.39563 0.19961 0.08846 0.0
H141 H 0.40278 0.17653 0.04952 0.0
H142 H 0.42389 0.17745 0.00965 0.0
H143 H 0.45177 0.20154 0.98302 0.0
Mn144 Mn 0.99563 0.764 0.16711 0.0
Mn145 Mn 0.94987 0.7425 0.12134 0.0
C146 C 0.98835 0.72166 0.15172 0.0
C147 C 0.03728 0.78034 0.18088 0.0
C148 C 0.93986 0.75571 0.17399 0.0
O149 O 0.9894 0.79653 0.15164 0.0
O150 O 0.95999 0.77978 0.12061 0.0
C151 C 0.97829 0.7523 0.07832 0.0
N152 N 0.96428 0.73572 0.09148 0.0
C153 C 0.96686 0.70057 0.06248 0.0
C154 C 0.98121 0.7173 0.04858 0.0
C155 C 0.98697 0.74327 0.05656 0.0
C156 C 0.95859 0.7107 0.08394 0.0
H157 H 0.98288 0.77226 0.08443 0.0
C158 C 0.97477 0.7986 0.13244 0.0
O159 O 0.01947 0.78305 0.19453 0.0
O160 O 0.03076 0.76924 0.15893 0.0
N161 N 0.93922 0.70647 0.12001 0.0
C162 C 0.92657 0.6926 0.13632 0.0
C163 C 0.91992 0.66615 0.13137 0.0
C164 C 0.92633 0.65424 0.10972 0.0
C165 C 0.93934 0.6689 0.09321 0.0
C166 C 0.94526 0.69521 0.099 0.0
H167 H 0.9217 0.70164 0.15303 0.0
O168 O 0.99902 0.72796 0.17395 0.0
O169 O 0.98143 0.74007 0.14002 0.0
O170 O 0.96264 0.7618 0.18274 0.0
O171 O 0.93308 0.74834 0.15133 0.0
C172 C 0.94714 0.65836 0.07152 0.0
C173 C 0.96091 0.67418 0.05617 0.0
H174 H 0.9881 0.71038 0.03188 0.0
H175 H 0.99814 0.75628 0.046 0.0
H176 H 0.90997 0.65496 0.14425 0.0
H177 H 0.92136 0.63381 0.10608 0.0
H178 H 0.94304 0.63806 0.06667 0.0
H179 H 0.96715 0.66579 0.03975 0.0
Mn180 Mn 0.52306 0.79081 0.3824 0.0
Mn181 Mn 0.51423 0.82687 0.33477 0.0
C182 C 0.48309 0.79222 0.36511 0.0
C183 C 0.53042 0.75408 0.40041 0.0
C184 C 0.52543 0.84874 0.38776 0.0
O185 O 0.5572 0.79632 0.36954 0.0
O186 O 0.54944 0.82044 0.33826 0.0
C187 C 0.52064 0.78924 0.29456 0.0
N188 N 0.50652 0.80506 0.30501 0.0
C189 C 0.4734 0.79321 0.2722 0.0
C190 C 0.48767 0.77693 0.26102 0.0
C191 C 0.51136 0.7749 0.27229 0.0
C192 C 0.48361 0.80701 0.2944 0.0
H193 H 0.53883 0.78753 0.30316 0.0
C194 C 0.56391 0.80859 0.35132 0.0
O195 O 0.53651 0.77635 0.41213 0.0
O196 O 0.52076 0.75307 0.37763 0.0
N197 N 0.48117 0.83441 0.32865 0.0
C198 C 0.46966 0.85081 0.34189 0.0
C199 C 0.44577 0.85499 0.3331 0.0
C200 C 0.43409 0.84251 0.31069 0.0
C201 C 0.44646 0.82607 0.29719 0.0
C202 C 0.47033 0.82281 0.30676 0.0
H203 H 0.47854 0.86056 0.35909 0.0
O204 O 0.48698 0.78613 0.38759 0.0
O205 O 0.50271 0.79738 0.35329 0.0
O206 O 0.52736 0.82757 0.39647 0.0
O207 O 0.52108 0.85104 0.36472 0.0
C208 C 0.43593 0.81258 0.27473 0.0
C209 C 0.44935 0.79609 0.2623 0.0
H210 H 0.48057 0.76581 0.24386 0.0
H211 H 0.52244 0.76229 0.26383 0.0
H212 H 0.43637 0.86777 0.3436 0.0
H213 H 0.41561 0.84566 0.30405 0.0
H214 H 0.41742 0.81458 0.26698 0.0
H215 H 0.44097 0.78564 0.24516 0.0
Mn216 Mn 0.49567 0.26162 0.66794 0.0
Mn217 Mn 0.45018 0.24045 0.6218 0.0
C218 C 0.48907 0.21955 0.65154 0.0
C219 C 0.537 0.27826 0.68279 0.0
C220 C 0.43978 0.25258 0.67453 0.0
O221 O 0.48918 0.29439 0.65296 0.0
O222 O 0.46003 0.27783 0.62159 0.0
C223 C 0.47849 0.25117 0.57888 0.0
N224 N 0.46468 0.23426 0.59186 0.0
C225 C 0.46742 0.19959 0.56236 0.0
C226 C 0.48159 0.21666 0.54864 0.0
C227 C 0.48717 0.24255 0.55695 0.0
C228 C 0.45917 0.2093 0.58401 0.0
H229 H 0.48292 0.27107 0.58522 0.0
C230 C 0.47461 0.29661 0.63373 0.0
O231 O 0.51874 0.28037 0.69599 0.0
O232 O 0.53114 0.26762 0.66056 0.0
N233 N 0.43989 0.20435 0.62006 0.0
C234 C 0.42744 0.19012 0.63624 0.0
C235 C 0.42107 0.16368 0.63101 0.0
C236 C 0.42754 0.15215 0.60921 0.0
C237 C 0.44035 0.16718 0.59282 0.0
C238 C 0.44602 0.19346 0.59892 0.0
H239 H 0.42248 0.19887 0.65306 0.0
O240 O 0.49944 0.22543 0.67395 0.0
O241 O 0.48192 0.23813 0.64031 0.0
O242 O 0.46255 0.25856 0.68331 0.0
O243 O 0.4331 0.24568 0.65178 0.0
C244 C 0.44812 0.15705 0.57093 0.0
C245 C 0.46166 0.17324 0.55572 0.0
H246 H 0.48848 0.21007 0.53181 0.0
H247 H 0.4982 0.25583 0.54652 0.0
H248 H 0.41126 0.1522 0.64379 0.0
H249 H 0.42277 0.13173 0.60533 0.0
H250 H 0.4441 0.13679 0.5658 0.0
H251 H 0.46787 0.16517 0.53913 0.0
Mn252 Mn 0.02224 0.29368 0.88232 0.0
Mn253 Mn 0.01699 0.33102 0.83508 0.0
C254 C 0.98337 0.29548 0.86246 0.0
C255 C 0.02863 0.25654 0.9001 0.0
C256 C 0.0247 0.35154 0.88858 0.0
O257 O 0.05749 0.29979 0.87207 0.0
O258 O 0.05202 0.32438 0.84065 0.0
C259 C 0.02579 0.29429 0.79513 0.0
N260 N 0.01103 0.30989 0.80484 0.0
C261 C 0.97972 0.29862 0.77031 0.0
C262 C 0.99466 0.28257 0.75988 0.0
C263 C 0.01777 0.28037 0.77238 0.0
C264 C 0.98869 0.31203 0.79303 0.0
H265 H 0.04352 0.29242 0.8047 0.0
C266 C 0.06559 0.31237 0.85455 0.0
O267 O 0.03366 0.27854 0.91243 0.0
O268 O 0.02041 0.25601 0.87692 0.0
N269 N 0.98427 0.33878 0.82712 0.0
C270 C 0.97197 0.35492 0.83975 0.0
C271 C 0.94851 0.3592 0.82974 0.0
C272 C 0.93804 0.34705 0.80678 0.0
C273 C 0.95124 0.33092 0.79391 0.0
C274 C 0.97466 0.32757 0.80469 0.0
H275 H 0.97991 0.36437 0.85739 0.0
O276 O 0.98558 0.28867 0.88484 0.0
O277 O 1.00398 0.30101 0.85225 0.0
O278 O 0.02558 0.33007 0.89701 0.0
O279 O 0.02212 0.35449 0.86552 0.0
C280 C 0.94196 0.31782 0.77092 0.0
C281 C 0.95615 0.30161 0.75918 0.0
H282 H 0.98852 0.27175 0.74236 0.0
H283 H 0.02937 0.26793 0.7645 0.0
H284 H 0.93848 0.37175 0.83976 0.0
H285 H 0.91983 0.3502 0.79924 0.0
H286 H 0.92384 0.31989 0.76223 0.0
H287 H 0.94872 0.29146 0.74162 0.0
Mn288 Mn 0.41311 0.07466 0.25943 0.0
Mn289 Mn 0.36401 0.07079 0.29373 0.0
C290 C 0.39147 0.03542 0.26677 0.0
C291 C 0.43055 0.07631 0.22137 0.0
C292 C 0.41779 0.08204 0.3164 0.0
O293 O 0.40343 0.1104 0.25846 0.0
O294 O 0.37074 0.10493 0.28123 0.0
C295 C 0.32432 0.07489 0.25417 0.0
N296 N 0.33345 0.06211 0.27282 0.0
C297 C 0.29637 0.03056 0.26811 0.0
C298 C 0.28651 0.04347 0.24896 0.0
C299 C 0.3006 0.06567 0.2419 0.0
C300 C 0.32013 0.04063 0.27964 0.0
H301 H 0.33505 0.092 0.24874 0.0
C302 C 0.38534 0.11833 0.26831 0.0
O303 O 0.44372 0.08437 0.24216 0.0
O304 O 0.40698 0.06864 0.22252 0.0
N305 N 0.35493 0.0387 0.30694 0.0
C306 C 0.36772 0.02769 0.32475 0.0
C307 C 0.35657 0.00484 0.33331 0.0
C308 C 0.33227 0.99375 0.32377 0.0
C309 C 0.31935 0.00562 0.30572 0.0
C310 C 0.33142 0.02835 0.29787 0.0
H311 H 0.38633 0.0362 0.33229 0.0
O312 O 0.41426 0.03758 0.26119 0.0
O313 O 0.38193 0.05621 0.26808 0.0
O314 O 0.42788 0.08148 0.29615 0.0
O315 O 0.39425 0.07904 0.31717 0.0
C316 C 0.29511 0.99557 0.29492 0.0
C317 C 0.28369 0.00794 0.27602 0.0
H318 H 0.26822 0.03641 0.23943 0.0
H319 H 0.29316 0.07568 0.22706 0.0
H320 H 0.36666 0.9958 0.34725 0.0
H321 H 0.32377 0.97605 0.33032 0.0
H322 H 0.28526 0.97809 0.30071 0.0
H323 H 0.26523 0.99976 0.26754 0.0
Mn324 Mn 0.26636 0.16188 0.50039 0.0
Mn325 Mn 0.2541 0.1196 0.45071 0.0
C326 C 0.2261 0.14962 0.48269 0.0
C327 C 0.27251 0.17231 0.54224 0.0
C328 C 0.2771 0.1747 0.44885 0.0
O329 O 0.29728 0.14533 0.50089 0.0
O330 O 0.28603 0.11523 0.46924 0.0
C331 C 0.24634 0.07163 0.47543 0.0
N332 N 0.23758 0.08773 0.45968 0.0
C333 C 0.19799 0.06013 0.4515 0.0
C334 C 0.20666 0.04318 0.46747 0.0
C335 C 0.23094 0.04897 0.47949 0.0
C336 C 0.21429 0.08228 0.44792 0.0
H337 H 0.26488 0.07609 0.48493 0.0
C338 C 0.30097 0.12589 0.48778 0.0
O339 O 0.28215 0.18754 0.52685 0.0
O340 O 0.25978 0.15049 0.53335 0.0
N341 N 0.22316 0.12173 0.43203 0.0
C342 C 0.21699 0.14092 0.41866 0.0
C343 C 0.19299 0.13854 0.40621 0.0
C344 C 0.17559 0.11649 0.40765 0.0
C345 C 0.18236 0.09698 0.4215 0.0
C346 C 0.20664 0.10029 0.43328 0.0
H347 H 0.2302 0.15801 0.41763 0.0
O348 O 0.23225 0.17111 0.49601 0.0
O349 O 0.24377 0.1363 0.48013 0.0
O350 O 0.27604 0.18106 0.4714 0.0
O351 O 0.27046 0.15197 0.43913 0.0
C352 C 0.16578 0.07466 0.42453 0.0
C353 C 0.17358 0.05624 0.43951 0.0
H354 H 0.19475 0.02581 0.47086 0.0
H355 H 0.23771 0.03607 0.49198 0.0
H356 H 0.18787 0.15374 0.39565 0.0
H357 H 0.157 0.11486 0.39826 0.0
H358 H 0.14685 0.07163 0.41572 0.0
H359 H 0.16054 0.03933 0.442 0.0
Mn360 Mn 0.14774 0.00988 0.79222 0.0
Mn361 Mn 0.19183 0.02385 0.84061 0.0
C362 C 0.16354 0.05188 0.80543 0.0
C363 C 0.13524 1.00104 0.75025 0.0
C364 C 0.13723 0.00612 0.84615 0.0
O365 O 0.16155 0.97661 0.79477 0.0
O366 O 0.19162 0.98856 0.82632 0.0
C367 C 0.23659 0.02306 0.81396 0.0
N368 N 0.2232 0.03575 0.82893 0.0
C369 C 0.25396 0.07363 0.83164 0.0
C370 C 0.26815 0.06091 0.81639 0.0
C371 C 0.25941 0.03552 0.8075 0.0
C372 C 0.23146 0.06017 0.83763 0.0
H373 H 0.22989 0.0036 0.80693 0.0
C374 C 0.17985 0.97227 0.80931 0.0
O375 O 0.12056 0.99384 0.76676 0.0
O376 O 0.15755 0.01256 0.75816 0.0
N377 N 0.19418 0.05769 0.85556 0.0
C378 C 0.17769 0.06765 0.86905 0.0
C379 C 0.18338 0.09308 0.87883 0.0
C380 C 0.20595 0.108 0.87467 0.0
C381 C 0.22269 0.0973 0.86086 0.0
C382 C 0.21615 0.07175 0.85182 0.0
H383 H 0.16025 0.05633 0.8722 0.0
O384 O 0.14175 0.046 0.79299 0.0
O385 O 0.17518 0.03297 0.8099 0.0
O386 O 0.12989 0.00449 0.82322 0.0
O387 O 0.16008 0.01248 0.85471 0.0
C388 C 0.2454 0.11111 0.85532 0.0
C389 C 0.26101 0.0993 0.84071 0.0
H390 H 0.28567 0.07051 0.8112 0.0
H391 H 0.27019 0.02562 0.79561 0.0
H392 H 0.17034 0.10122 0.88943 0.0
H393 H 0.21014 0.12769 0.88201 0.0
H394 H 0.25089 0.13093 0.86195 0.0
H395 H 0.27828 0.11021 0.83633 0.0
Mn396 Mn 0.22622 0.89034 0.03424 0.0
Mn397 Mn 0.23647 0.93976 0.99837 0.0
C398 C 0.26668 0.90877 0.02864 0.0
C399 C 0.22234 0.87287 0.07295 0.0
C400 C 0.22175 0.88502 0.97697 0.0
O401 O 0.19234 0.9038 0.03255 0.0
O402 O 0.20211 0.93569 1.00822 0.0
C403 C 0.23342 0.98151 0.0358 0.0
N404 N 0.24617 0.97082 0.01872 0.0
C405 C 0.27954 0.00653 0.02467 0.0
C406 C 0.2667 0.01799 0.04222 0.0
C407 C 0.24359 0.00537 0.04788 0.0
C408 C 0.26849 0.98272 0.01327 0.0
H409 H 0.21561 0.97194 0.04013 0.0
C410 C 0.18686 0.92267 0.02086 0.0
O411 O 0.21372 0.85985 0.05225 0.0
O412 O 0.23139 0.89657 0.07131 0.0
N413 N 0.26904 0.94641 0.98751 0.0
C414 C 0.27966 0.93214 0.97119 0.0
C415 C 0.30323 0.94167 0.9642 0.0
C416 C 0.31545 0.96591 0.97375 0.0
C417 C 0.30399 0.98039 0.99023 0.0
C418 C 0.28051 0.96988 0.99657 0.0
H419 H 0.27028 0.91357 0.96365 0.0
O420 O 0.26194 0.88561 0.03481 0.0
O421 O 0.24766 0.92059 0.02569 0.0
O422 O 0.21985 0.87502 0.99759 0.0
O423 O 0.2273 0.90894 0.97549 0.0
C424 C 0.31511 0.00467 1.00092 0.0
C425 C 0.30297 0.01767 0.01824 0.0
H426 H 0.27449 0.03639 0.05159 0.0
H427 H 0.23362 0.01405 0.06146 0.0
H428 H 0.31195 0.93038 0.95146 0.0
H429 H 0.33369 0.97314 0.96841 0.0
H430 H 0.33319 0.01335 0.99625 0.0
H431 H 0.31192 0.03613 0.02666 0.0
Mn432 Mn 0.26969 0.42175 0.05266 0.0
Mn433 Mn 0.29601 0.47474 0.02813 0.0
C434 C 0.31199 0.42943 0.05056 0.0
C435 C 0.25531 0.39897 0.08454 0.0
C436 C 0.27177 0.42742 0.99728 0.0
O437 O 0.24215 0.44294 0.05238 0.0
O438 O 0.26057 0.47539 0.03288 0.0
C439 C 0.29389 0.50879 0.07262 0.0
N440 N 0.30725 0.49961 0.05521 0.0
C441 C 0.34472 0.52722 0.07262 0.0
C442 C 0.33134 0.53704 0.09066 0.0
C443 C 0.30583 0.52769 0.09072 0.0
C444 C 0.3319 0.50809 0.05531 0.0
H445 H 0.27427 0.50177 0.07271 0.0
C446 C 0.24188 0.46367 0.04224 0.0
O447 O 0.24684 0.39199 0.06179 0.0
O448 O 0.27122 0.41994 0.08887 0.0
N449 N 0.33029 0.47827 0.02196 0.0
C450 C 0.34008 0.46821 1.00223 0.0
C451 C 0.36503 0.47667 0.99853 0.0
C452 C 0.37959 0.49571 0.01493 0.0
C453 C 0.36904 0.50617 0.03482 0.0
C454 C 0.34395 0.49726 0.03733 0.0
H455 H 0.32891 0.45389 0.98935 0.0
O456 O 0.30059 0.40658 0.05246 0.0
O457 O 0.29857 0.44761 0.05067 0.0
O458 O 0.26362 0.41588 0.01533 0.0
O459 O 0.28543 0.44936 0.99961 0.0
C460 C 0.38232 0.52543 0.05198 0.0
C461 C 0.37022 0.53579 0.07102 0.0
H462 H 0.34043 0.55178 0.10452 0.0
H463 H 0.29538 0.53514 0.10461 0.0
H464 H 0.37299 0.4686 0.98303 0.0
H465 H 0.39881 0.50227 0.01199 0.0
H466 H 0.40182 0.53249 0.05065 0.0
H467 H 0.38062 0.55059 0.08412 0.0
Mn468 Mn 0.80169 0.17969 0.01706 0.0
Mn469 Mn 0.78597 0.13119 0.9726 0.0
C470 C 0.76033 0.16166 1.00606 0.0
C471 C 0.80945 0.19588 0.05905 0.0
C472 C 0.79765 0.18633 0.96091 0.0
O473 O 0.83473 0.16553 0.01571 0.0
O474 O 0.82244 0.13625 0.98349 0.0
C475 C 0.79663 0.08994 1.00387 0.0
N476 N 0.78038 0.1002 0.98861 0.0
C477 C 0.74739 0.06551 0.99251 0.0
C478 C 0.76383 0.05458 1.00814 0.0
C479 C 0.78854 0.06687 0.01386 0.0
C480 C 0.75652 0.08853 0.98306 0.0
H481 H 0.81562 0.09926 1.00849 0.0
C482 C 0.83899 0.14794 1.00026 0.0
O483 O 0.81656 0.20961 0.04139 0.0
O484 O 0.80002 0.17238 0.05246 0.0
N485 N 0.7513 0.12328 0.96065 0.0
C486 C 0.73783 0.13591 0.94484 0.0
C487 C 0.7127 0.12611 0.93734 0.0
C488 C 0.70175 0.10314 0.94581 0.0
C489 C 0.71617 0.08998 0.96136 0.0
C490 C 0.74119 0.10062 0.96808 0.0
H491 H 0.74624 0.1532 0.93783 0.0
O492 O 0.76606 0.18486 0.01582 0.0
O493 O 0.7789 0.14984 1.0025 0.0
O494 O 0.80458 0.19546 0.98321 0.0
O495 O 0.79015 0.16264 0.95494 0.0
C496 C 0.70666 0.06676 0.97052 0.0
C497 C 0.72224 0.05458 0.98614 0.0
H498 H 0.75765 0.03682 0.01594 0.0
H499 H 0.80133 0.05861 0.02599 0.0
H500 H 0.70183 0.13617 0.92498 0.0
H501 H 0.68233 0.09569 0.94008 0.0
H502 H 0.68736 0.05818 0.96577 0.0
H503 H 0.71467 0.03681 0.99321 0.0
Mn504 Mn 0.11448 0.49784 0.28329 0.0
Mn505 Mn 0.16401 0.51639 0.32603 0.0
C506 C 0.13336 0.54009 0.28962 0.0
C507 C 0.09717 0.4861 0.24217 0.0
C508 C 0.11087 0.50481 0.33946 0.0
O509 O 0.12745 0.46409 0.28845 0.0
O510 O 0.15963 0.47924 0.31721 0.0
C511 C 0.20377 0.50575 0.2953 0.0
N512 N 0.19374 0.52236 0.30981 0.0
C513 C 0.22747 0.55617 0.30564 0.0
C514 C 0.23821 0.53938 0.29077 0.0
C515 C 0.22627 0.51408 0.28554 0.0
C516 C 0.20504 0.54677 0.31489 0.0
H517 H 0.19467 0.4863 0.29117 0.0
C518 C 0.14635 0.46109 0.30308 0.0
O519 O 0.08422 0.48152 0.26066 0.0
O520 O 0.12048 0.49559 0.24768 0.0
N521 N 0.17072 0.5521 0.33583 0.0
C522 C 0.15735 0.56624 0.34947 0.0
C523 C 0.16656 0.59208 0.35599 0.0
C524 C 0.18944 0.60313 0.34849 0.0
C525 C 0.20295 0.58819 0.33458 0.0
C526 C 0.19296 0.56247 0.32885 0.0
H527 H 0.13966 0.55794 0.35513 0.0
O528 O 0.11031 0.53427 0.28037 0.0
O529 O 0.14441 0.52124 0.29548 0.0
O530 O 0.10053 0.4982 0.3175 0.0
O531 O 0.13437 0.51162 0.34441 0.0
C532 C 0.22572 0.59794 0.32582 0.0
C533 C 0.23794 0.58195 0.31131 0.0
H534 H 0.25552 0.54575 0.28313 0.0
H535 H 0.23439 0.50104 0.27398 0.0
H536 H 0.15599 0.60349 0.36667 0.0
H537 H 0.19636 0.62313 0.35333 0.0
H538 H 0.23382 0.61779 0.32984 0.0
H539 H 0.25526 0.58975 0.30439 0.0
Mn540 Mn 0.76809 0.91098 0.55808 0.0
Mn541 Mn 0.7937 0.96481 0.53402 0.0
C542 C 0.81067 0.92411 0.56465 0.0
C543 C 0.74639 0.88884 0.58685 0.0
C544 C 0.77743 0.91434 0.50433 0.0
O545 O 0.73828 0.92803 0.54798 0.0
O546 O 0.75822 0.96525 0.53748 0.0
C547 C 0.78999 1.00109 0.57627 0.0
N548 N 0.80386 0.99137 0.55967 0.0
C549 C 0.8399 0.02235 0.57436 0.0
C550 C 0.82601 0.03277 0.59161 0.0
C551 C 0.80099 0.02197 0.59268 0.0
C552 C 0.82808 1.00118 0.55891 0.0
H553 H 0.77067 0.99299 0.5769 0.0
C554 C 0.73847 0.95052 0.54139 0.0
O555 O 0.74557 0.88001 0.56415 0.0
O556 O 0.75987 0.91108 0.59314 0.0
N557 N 0.82819 0.96829 0.52884 0.0
C558 C 0.83868 0.95657 0.5105 0.0
C559 C 0.86313 0.96605 0.50584 0.0
C560 C 0.87641 0.98774 0.51975 0.0
C561 C 0.8653 0.9995 0.53851 0.0
C562 C 0.84075 0.98943 0.54205 0.0
H563 H 0.82833 0.9404 0.49916 0.0
O564 O 0.80101 0.9009 0.56784 0.0
O565 O 0.79512 0.93953 0.55897 0.0
O566 O 0.77182 0.90171 0.52246 0.0
O567 O 0.78432 0.93842 0.50603 0.0
C568 C 0.87751 0.02103 0.5536 0.0
C569 C 0.86492 0.03224 0.57175 0.0
H570 H 0.83434 0.04908 0.60408 0.0
H571 H 0.79015 0.02989 0.60594 0.0
H572 H 0.87159 0.95688 0.49132 0.0
H573 H 0.89512 0.99524 0.51586 0.0
H574 H 0.8966 0.02906 0.55144 0.0
H575 H 0.87454 0.04868 0.58336 0.0
Mn576 Mn 0.8677 0.05032 0.23728 0.0
Mn577 Mn 0.81826 0.03148 0.26883 0.0
C578 C 0.85389 0.0073 0.24009 0.0
C579 C 0.8864 0.0618 0.20183 0.0
C580 C 0.86999 0.04986 0.29385 0.0
O581 O 0.85188 0.08257 0.24024 0.0
O582 O 0.82075 0.06795 0.26253 0.0
C583 C 0.77967 0.03605 0.2284 0.0
N584 N 0.78973 0.02184 0.24526 0.0
C585 C 0.75804 0.98561 0.23242 0.0
C586 C 0.74725 0.99991 0.21501 0.0
C587 C 0.75817 0.02521 0.21294 0.0
C588 C 0.77956 0.99739 0.24719 0.0
H589 H 0.78801 0.0555 0.22675 0.0
C590 C 0.8333 0.0857 0.25203 0.0
O591 O 0.89735 0.06906 0.22374 0.0
O592 O 0.864 0.04892 0.20046 0.0
N593 N 0.8128 0.99683 0.27687 0.0
C594 C 0.82505 0.98594 0.29514 0.0
C595 C 0.81618 0.96081 0.30003 0.0
C596 C 0.79459 0.9473 0.28639 0.0
C597 C 0.78192 0.95914 0.26814 0.0
C598 C 0.7915 0.98431 0.26427 0.0
H599 H 0.84149 0.99632 0.30589 0.0
O600 O 0.87646 0.01535 0.23531 0.0
O601 O 0.83969 0.02456 0.24279 0.0
O602 O 0.87993 0.05506 0.27414 0.0
O603 O 0.84703 0.04048 0.29413 0.0
C604 C 0.76018 0.94695 0.2536 0.0
C605 C 0.74833 0.96013 0.23565 0.0
H606 H 0.73063 0.99164 0.20309 0.0
H607 H 0.75001 0.03634 0.19949 0.0
H608 H 0.82597 0.95187 0.31427 0.0
H609 H 0.78789 0.92787 0.2901 0.0
H610 H 0.75248 0.92741 0.25601 0.0
H611 H 0.7317 0.95052 0.2245 0.0
Mn612 Mn 0.29912 0.67956 0.51663 0.0
Mn613 Mn 0.28164 0.62982 0.4737 0.0
C614 C 0.25731 0.66192 0.50732 0.0
C615 C 0.30909 0.69732 0.55797 0.0
C616 C 0.29506 0.68429 0.46007 0.0
O617 O 0.33193 0.66473 0.51441 0.0
O618 O 0.31778 0.63262 0.48511 0.0
C619 C 0.28858 0.58829 0.50584 0.0
N620 N 0.2736 0.59942 0.49005 0.0
C621 C 0.2386 0.56672 0.49333 0.0
C622 C 0.25371 0.55484 0.50948 0.0
C623 C 0.2788 0.56571 0.51579 0.0
C624 C 0.24941 0.58913 0.48389 0.0
H625 H 0.30784 0.5966 0.51088 0.0
C626 C 0.33509 0.64534 0.50052 0.0
O627 O 0.31495 0.71016 0.53937 0.0
O628 O 0.29935 0.67364 0.55269 0.0
N629 N 0.24708 0.62441 0.4614 0.0
C630 C 0.23476 0.63862 0.44618 0.0
C631 C 0.20938 0.6305 0.43838 0.0
C632 C 0.19695 0.60784 0.44621 0.0
C633 C 0.21007 0.59338 0.46163 0.0
C634 C 0.23542 0.60225 0.46856 0.0
H635 H 0.24416 0.65609 0.44012 0.0
O636 O 0.26366 0.68522 0.51662 0.0
O637 O 0.27555 0.64972 0.50335 0.0
O638 O 0.30067 0.69433 0.48223 0.0
O639 O 0.28851 0.66034 0.45508 0.0
C640 C 0.19889 0.5707 0.47067 0.0
C641 C 0.21313 0.55741 0.48655 0.0
H642 H 0.24621 0.53749 0.5173 0.0
H643 H 0.29055 0.55672 0.52835 0.0
H644 H 0.1994 0.64175 0.42645 0.0
H645 H 0.17731 0.60177 0.44036 0.0
H646 H 0.17928 0.56346 0.46574 0.0
H647 H 0.20425 0.54014 0.4936 0.0
Mn648 Mn 0.36926 0.55016 0.74121 0.0
Mn649 Mn 0.32095 0.53329 0.77482 0.0
C650 C 0.35458 0.50753 0.74497 0.0
C651 C 0.38703 0.56078 0.70514 0.0
C652 C 0.37356 0.55088 0.79788 0.0
O653 O 0.35433 0.58289 0.74421 0.0
O654 O 0.32395 0.56953 0.76784 0.0
C655 C 0.28133 0.53801 0.73545 0.0
N656 N 0.29156 0.52391 0.75232 0.0
C657 C 0.2586 0.48838 0.74141 0.0
C658 C 0.24763 0.50257 0.72402 0.0
C659 C 0.25911 0.52746 0.72096 0.0
C660 C 0.28087 0.49983 0.75514 0.0
H661 H 0.29008 0.55715 0.73307 0.0
C662 C 0.33635 0.58672 0.75657 0.0
O663 O 0.39866 0.56801 0.72677 0.0
O664 O 0.36452 0.54824 0.70437 0.0
N665 N 0.31506 0.49892 0.7836 0.0
C666 C 0.32766 0.48807 0.80167 0.0
C667 C 0.31831 0.46339 0.8075 0.0
C668 C 0.29587 0.45031 0.79506 0.0
C669 C 0.28292 0.46208 0.77696 0.0
C670 C 0.29304 0.48679 0.77209 0.0
H671 H 0.34471 0.49818 0.81157 0.0
O672 O 0.37704 0.51478 0.73939 0.0
O673 O 0.34105 0.52532 0.74795 0.0
O674 O 0.38272 0.55536 0.77766 0.0
O675 O 0.35061 0.54209 0.79915 0.0
C676 C 0.26039 0.45026 0.76353 0.0
C677 C 0.24833 0.46333 0.74564 0.0
H678 H 0.23043 0.49453 0.71288 0.0
H679 H 0.25081 0.5385 0.70752 0.0
H680 H 0.32834 0.45449 0.8216 0.0
H681 H 0.28875 0.43126 0.79957 0.0
H682 H 0.25225 0.43106 0.76673 0.0
H683 H 0.2311 0.45399 0.73532 0.0
Mn684 Mn 0.61723 0.99881 0.78401 0.0
Mn685 Mn 0.66669 0.01216 0.82752 0.0
C686 C 0.63736 0.04032 0.79373 0.0
C687 C 0.60012 0.98989 0.74248 0.0
C688 C 0.61315 1.00077 0.84021 0.0
O689 O 0.62914 0.96421 0.78616 0.0
O690 O 0.66203 0.97574 0.81504 0.0
C691 C 0.70658 0.00457 0.79581 0.0
N692 N 0.69662 0.01976 0.81185 0.0
C693 C 0.7305 0.0542 0.8104 0.0
C694 C 0.74118 0.03885 0.794 0.0
C695 C 0.72914 0.01395 0.78664 0.0
C696 C 0.70802 0.04379 0.81899 0.0
H697 H 0.69739 0.98545 0.79 0.0
C698 C 0.6482 0.95934 0.79944 0.0
O699 O 0.58689 0.98458 0.76061 0.0
O700 O 0.62347 0.99898 0.74846 0.0
N701 N 0.67374 0.04697 0.8407 0.0
C702 C 0.66052 0.05971 0.85584 0.0
C703 C 0.66992 0.08499 0.86465 0.0
C704 C 0.69281 0.09691 0.85786 0.0
C705 C 0.70615 0.08339 0.84238 0.0
C706 C 0.69601 0.05812 0.83442 0.0
H707 H 0.64287 0.05075 0.86106 0.0
O708 O 0.61438 0.03586 0.78402 0.0
O709 O 0.64761 0.0205 0.79792 0.0
O710 O 0.60288 0.99699 0.81796 0.0
O711 O 0.63677 0.00565 0.8455 0.0
C712 C 0.72893 0.09411 0.83425 0.0
C713 C 0.74106 0.07956 0.81822 0.0
H714 H 0.75853 0.04605 0.78679 0.0
H715 H 0.73721 1.00203 0.77389 0.0
H716 H 0.6595 0.0953 0.87658 0.0
H717 H 0.69987 0.11648 0.86449 0.0
H718 H 0.73714 0.11365 0.83998 0.0
H719 H 0.75841 0.08812 0.81185 0.0
Mn720 Mn 0.77233 0.66912 0.98849 0.0
Mn721 Mn 0.7631 0.62434 0.94096 0.0
C722 C 0.73249 0.65353 0.97043 0.0
C723 C 0.77563 0.68201 0.03001 0.0
C724 C 0.78629 0.67916 0.93714 0.0
O725 O 0.804 0.65343 0.99172 0.0
O726 O 0.79419 0.62137 0.96155 0.0
C727 C 0.75485 0.57713 0.96682 0.0
N728 N 0.74634 0.59283 0.95049 0.0
C729 C 0.70681 0.56513 0.94223 0.0
C730 C 0.71517 0.54868 0.95893 0.0
C731 C 0.7393 0.5547 0.97125 0.0
C732 C 0.72325 0.58706 0.9383 0.0
H733 H 0.77329 0.58176 0.97653 0.0
C734 C 0.80829 0.63318 0.98018 0.0
O735 O 0.78558 0.69667 0.01432 0.0
O736 O 0.76462 0.65931 0.02174 0.0
N737 N 0.73273 0.62563 0.92093 0.0
C738 C 0.72688 0.64436 0.90675 0.0
C739 C 0.70306 0.64171 0.89388 0.0
C740 C 0.68547 0.61991 0.89578 0.0
C741 C 0.69188 0.60093 0.91055 0.0
C742 C 0.71599 0.60449 0.92277 0.0
H743 H 0.74022 0.66128 0.90542 0.0
O744 O 0.73739 0.67616 0.98174 0.0
O745 O 0.75143 0.64184 0.96897 0.0
O746 O 0.78311 0.68692 0.95885 0.0
O747 O 0.78015 0.65597 0.92863 0.0
C748 C 0.67512 0.57887 0.91403 0.0
C749 C 0.68259 0.56097 0.92982 0.0
H750 H 0.70313 0.53151 0.96263 0.0
H751 H 0.74585 0.54216 0.98426 0.0
H752 H 0.6982 0.65651 0.88262 0.0
H753 H 0.66704 0.61805 0.886 0.0
H754 H 0.65634 0.57564 0.90486 0.0
H755 H 0.66944 0.54424 0.93258 0.0
Mn756 Mn 0.90851 0.57284 0.75964 0.0
Mn757 Mn 0.85857 0.56575 0.79277 0.0
C758 C 0.88827 0.53263 0.76621 0.0
C759 C 0.92621 0.57553 0.72172 0.0
C760 C 0.91185 0.57867 0.81673 0.0
O761 O 0.89746 0.60819 0.75916 0.0
O762 O 0.86472 0.60044 0.78155 0.0
C763 C 0.8202 0.56951 0.75182 0.0
N764 N 0.82901 0.55649 0.77043 0.0
C765 C 0.79384 0.52279 0.76221 0.0
C766 C 0.78432 0.5359 0.74305 0.0
C767 C 0.7976 0.55932 0.73779 0.0
C768 C 0.81651 0.53382 0.77548 0.0
H769 H 0.83035 0.58751 0.74769 0.0
C770 C 0.87897 0.61499 0.76926 0.0
O771 O 0.93911 0.58396 0.74257 0.0
O772 O 0.90277 0.56715 0.72274 0.0
N773 N 0.84989 0.53305 0.80495 0.0
C774 C 0.86155 0.52288 0.82413 0.0
C775 C 0.85052 0.49959 0.83196 0.0
C776 C 0.82749 0.48717 0.82022 0.0
C777 C 0.8156 0.49824 0.80085 0.0
C778 C 0.82737 0.5216 0.79402 0.0
H779 H 0.87914 0.53243 0.83341 0.0
O780 O 0.91115 0.53587 0.76089 0.0
O781 O 0.8779 0.55286 0.7676 0.0
O782 O 0.92241 0.57948 0.79669 0.0
O783 O 0.88821 0.57432 0.81708 0.0
C784 C 0.79262 0.48693 0.78795 0.0
C785 C 0.78182 0.49912 0.76854 0.0
H786 H 0.76688 0.52812 0.73219 0.0
H787 H 0.79042 0.56951 0.72297 0.0
H788 H 0.85976 0.49124 0.84699 0.0
H789 H 0.81913 0.46913 0.82619 0.0
H790 H 0.7832 0.46875 0.79267 0.0
H791 H 0.76427 0.49012 0.75861 0.0
Mn792 Mn 0.72414 0.388 0.53481 0.0
Mn793 Mn 0.73565 0.43762 0.49948 0.0
C794 C 0.76482 0.40508 0.52872 0.0
C795 C 0.72038 0.37104 0.57369 0.0
C796 C 0.71933 0.38318 0.47756 0.0
O797 O 0.69077 0.40251 0.53344 0.0
O798 O 0.70145 0.43462 0.50966 0.0
C799 C 0.73465 0.47867 0.53833 0.0
N800 N 0.74678 0.46786 0.52079 0.0
C801 C 0.7824 0.50105 0.52912 0.0
C802 C 0.77022 0.51261 0.54717 0.0
C803 C 0.74627 0.50132 0.55184 0.0
C804 C 0.76992 0.47844 0.51631 0.0
H805 H 0.71626 0.47006 0.54203 0.0
C806 C 0.68586 0.42181 0.52212 0.0
O807 O 0.71111 0.3579 0.5532 0.0
O808 O 0.72987 0.39453 0.5717 0.0
N809 N 0.76813 0.44334 0.48828 0.0
C810 C 0.7773 0.42984 0.47019 0.0
C811 C 0.801 0.43873 0.46312 0.0
C812 C 0.81488 0.46153 0.47447 0.0
C813 C 0.80489 0.47531 0.49273 0.0
C814 C 0.78107 0.46565 0.49884 0.0
H815 H 0.76665 0.41242 0.46122 0.0
O816 O 0.75955 0.38204 0.53504 0.0
O817 O 0.74624 0.41751 0.52612 0.0
O818 O 0.71729 0.37302 0.49811 0.0
O819 O 0.72524 0.40713 0.47618 0.0
C820 C 0.81769 0.49819 0.50519 0.0
C821 C 0.80651 0.51098 0.52347 0.0
H822 H 0.77912 0.53009 0.55763 0.0
H823 H 0.73679 0.51008 0.56581 0.0
H824 H 0.80853 0.42804 0.44893 0.0
H825 H 0.83317 0.4683 0.469 0.0
H826 H 0.83623 0.50599 0.501 0.0
H827 H 0.81662 0.52843 0.53308 0.0
Mn828 Mn 0.64557 0.51203 0.29497 0.0
Mn829 Mn 0.69109 0.52606 0.34198 0.0
C830 C 0.66207 0.55409 0.30723 0.0
C831 C 0.63156 0.50189 0.25353 0.0
C832 C 0.63681 0.5088 0.34929 0.0
O833 O 0.65901 0.47861 0.29754 0.0
O834 O 0.69055 0.49064 0.32765 0.0
C835 C 0.73502 0.52503 0.31412 0.0
N836 N 0.72204 0.53783 0.32944 0.0
C837 C 0.75281 0.57565 0.33138 0.0
C838 C 0.76658 0.56281 0.31577 0.0
C839 C 0.75763 0.5374 0.3071 0.0
C840 C 0.73052 0.56227 0.33795 0.0
H841 H 0.72815 0.50556 0.30725 0.0
C842 C 0.67793 0.47427 0.31117 0.0
O843 O 0.61751 0.49572 0.27082 0.0
O844 O 0.6541 0.51352 0.26033 0.0
N845 N 0.69378 0.55999 0.3568 0.0
C846 C 0.67756 0.57013 0.3705 0.0
C847 C 0.68338 0.59566 0.37997 0.0
C848 C 0.70581 0.61048 0.37527 0.0
C849 C 0.72227 0.5996 0.36123 0.0
C850 C 0.71559 0.57398 0.3525 0.0
H851 H 0.66021 0.55889 0.37404 0.0
O852 O 0.63997 0.54824 0.29542 0.0
O853 O 0.67367 0.5351 0.31158 0.0
O854 O 0.6288 0.50749 0.32658 0.0
O855 O 0.65989 0.51474 0.35715 0.0
C856 C 0.74479 0.61332 0.35514 0.0
C857 C 0.76005 0.60135 0.34024 0.0
H858 H 0.78392 0.57234 0.31014 0.0
H859 H 0.76808 0.5274 0.29493 0.0
H860 H 0.67055 0.60394 0.39073 0.0
H861 H 0.7101 0.63025 0.38238 0.0
H862 H 0.75039 0.63319 0.36156 0.0
H863 H 0.77717 0.61219 0.33542 0.0
Tb864 Tb 0.01853 0.05925 0.01625 0.0
C865 C 0.0236 0.0144 0.97751 0.0
Tb866 Tb 1.00128 0.00407 0.02805 0.0
O867 O 0.05737 0.05351 0.01639 0.0
O868 O 0.03356 0.03173 0.03711 0.0
O869 O 0.02097 0.03863 0.98103 0.0
C870 C 0.99896 0.95786 0.04425 0.0
O871 O 0.01866 0.99767 0.99411 0.0
C872 C 0.96553 0.03016 0.01407 0.0
C873 C 0.99567 0.04817 0.06669 0.0
O874 O 0.98392 0.9639 0.02652 0.0
O875 O 0.01532 0.97759 0.05223 0.0
O876 O 0.96268 0.01163 0.02837 0.0
O877 O 0.98685 0.03128 1.00664 0.0
O878 O 0.99947 0.02433 0.06326 0.0
O879 O 1.00075 0.06522 0.05033 0.0
C880 C 0.01911 0.1045 0.99828 0.0
O881 O 0.0339 0.09999 0.017 0.0
O882 O 1.00398 0.08386 0.99045 0.0
C883 C 0.05496 0.03395 0.02947 0.0
Tb884 Tb 0.268 0.81702 0.27643 0.0
C885 C 0.30934 0.78206 0.28436 0.0
Tb886 Tb 0.25298 0.75817 0.26843 0.0
O887 O 0.27713 0.8166 0.31667 0.0
O888 O 0.25358 0.78675 0.29704 0.0
O889 O 0.30401 0.80449 0.27867 0.0
C890 C 0.23392 0.71081 0.2765 0.0
O891 O 0.29227 0.76116 0.28292 0.0
C892 C 0.25432 0.7816 0.22716 0.0
C893 C 0.21193 0.79358 0.25936 0.0
O894 O 0.25131 0.71679 0.26204 0.0
O895 O 0.22788 0.73135 0.28644 0.0
O896 O 0.24284 0.75861 0.22866 0.0
O897 O 0.26748 0.7884 0.24753 0.0
O898 O 0.21689 0.77092 0.2649 0.0
O899 O 0.22921 0.81428 0.26092 0.0
C900 C 0.28767 0.86455 0.26967 0.0
O901 O 0.26757 0.8583 0.28056 0.0
O902 O 0.29598 0.84425 0.26243 0.0
C903 C 0.26613 0.79336 0.31768 0.0
Tb904 Tb 0.53892 0.03536 0.51926 0.0
C905 C 0.52621 0.01183 0.57098 0.0
Tb906 Tb 0.48577 0.02747 0.53304 0.0
O907 O 0.54318 0.0766 0.52798 0.0
O908 O 0.51948 0.05116 0.54616 0.0
O909 O 0.54225 0.01649 0.55413 0.0
C910 C 0.44197 0.0395 0.54282 0.0
O911 O 0.50291 0.01636 0.56754 0.0
C912 C 0.49904 0.9889 0.50863 0.0
C913 C 0.49888 0.05249 0.48228 0.0
O914 O 0.4452 0.01805 0.53198 0.0
O915 O 0.46346 0.05365 0.54869 0.0
O916 O 0.48267 0.98618 0.52459 0.0
O917 O 0.50514 0.01212 0.50589 0.0
O918 O 0.48345 0.04914 0.49983 0.0
O919 O 0.5214 0.04584 0.48469 0.0
C920 C 0.58121 0.02053 0.50883 0.0
O921 O 0.57867 0.04395 0.51455 0.0
O922 O 0.55993 0.00586 0.50854 0.0
C923 C 0.52619 0.07431 0.54334 0.0
Tb924 Tb 0.26709 0.28812 0.80599 0.0
C925 C 0.2784 0.32913 0.76789 0.0
Tb926 Tb 0.25415 0.27159 0.75198 0.0
O927 O 0.30711 0.29205 0.802 0.0
O928 O 0.28164 0.26541 0.77937 0.0
O929 O 0.27499 0.32499 0.79112 0.0
C930 C 0.25703 0.25751 0.70503 0.0
O931 O 0.27211 0.31102 0.74955 0.0
C932 C 0.21719 0.28397 0.77492 0.0
C933 C 0.24525 0.23044 0.79016 0.0
O934 O 0.27496 0.27068 0.71983 0.0
O935 O 0.23722 0.25286 0.71645 0.0
O936 O 0.21425 0.26755 0.75593 0.0
O937 O 0.23965 0.29453 0.77837 0.0
O938 O 0.25123 0.23477 0.76761 0.0
O939 O 0.24802 0.24902 0.80805 0.0
C940 C 0.26437 0.30431 0.8525 0.0
O941 O 0.2457 0.299 0.83561 0.0
O942 O 0.28447 0.2997 0.84338 0.0
C943 C 0.30414 0.27576 0.78287 0.0
Tb944 Tb 1.00024 0.0393 0.49387 0.0
C945 C 0.97418 0.01129 0.53622 0.0
Tb946 Tb 0.03108 0.03666 0.5443 0.0
O947 O 0.99789 0.99826 0.48518 0.0
O948 O 0.02741 0.01869 0.50837 0.0
O949 O 0.97103 0.02115 0.51463 0.0
C950 C 0.05705 0.02239 0.58336 0.0
O951 O 0.99569 0.01426 0.55026 0.0
C952 C 0.0149 0.08003 0.53865 0.0
C953 C 0.05708 0.06131 0.50141 0.0
O954 O 0.03614 0.00996 0.57257 0.0
O955 O 0.06323 0.0428 0.57222 0.0
O956 O 0.03272 0.07705 0.55505 0.0
O957 O 0.00465 0.05821 0.52966 0.0
O958 O 0.05922 0.04561 0.51913 0.0
O959 O 0.03507 0.06504 0.49127 0.0
C960 C 0.97556 0.05156 0.45313 0.0
O961 O 0.99646 0.04279 0.45408 0.0
O962 O 0.96862 0.0536 0.47517 0.0
C963 C 0.01738 0.99671 0.5001 0.0
Tb964 Tb 0.28891 0.78516 0.78313 0.0
C965 C 0.24559 0.79546 0.81489 0.0
Tb966 Tb 0.23698 0.78272 0.75654 0.0
O967 O 0.29145 0.82542 0.79453 0.0
O968 O 0.26969 0.80988 0.76248 0.0
O969 O 0.26722 0.78691 0.81492 0.0
C970 C 0.19372 0.78927 0.73386 0.0
O971 O 0.23162 0.7974 0.79398 0.0
C972 C 0.25114 0.73868 0.76324 0.0
C973 C 0.28083 0.77414 0.72456 0.0
O974 O 0.19646 0.77304 0.75018 0.0
O975 O 0.21521 0.80225 0.73093 0.0
O976 O 0.23573 0.74255 0.74497 0.0
O977 O 0.25584 0.75848 0.77779 0.0
O978 O 0.25858 0.7813 0.72472 0.0
O979 O 0.29532 0.77279 0.74526 0.0
C980 C 0.33089 0.7757 0.80634 0.0
O981 O 0.31046 0.75952 0.80178 0.0
O982 O 0.32792 0.79701 0.7973 0.0
C983 C 0.27506 0.82961 0.77722 0.0
Tb984 Tb 0.48742 0.02293 0.02338 0.0
C985 C 0.53162 0.99272 0.02592 0.0
Tb986 Tb 0.54088 0.05222 0.02762 0.0
O987 O 0.48931 0.00626 0.98578 0.0
O988 O 0.51203 0.03998 0.99872 0.0
O989 O 0.50915 0.99354 0.03299 0.0
C990 C 0.5871 0.0738 0.02092 0.0
O991 O 0.54613 0.01317 0.01993 0.0
C992 C 0.51968 0.05315 0.06922 0.0
C993 C 0.49695 0.08268 0.02578 0.0
O994 O 0.58147 0.05638 0.03592 0.0
O995 O 0.56676 0.07903 0.00977 0.0
O996 O 0.53818 0.06981 0.06437 0.0
O997 O 0.51626 0.0351 0.05247 0.0
O998 O 0.5194 0.0818 0.01877 0.0
O999 O 0.48224 0.0622 0.03158 0.0
C1000 C 0.44106 1.00104 0.0296 0.0
O1001 O 0.44684 0.02204 0.01919 0.0
O1002 O 0.4613 0.99255 0.03663 0.0
C1003 C 0.50835 0.02249 0.98147 0.0
Tb1004 Tb 0.24198 0.27539 0.27262 0.0
C1005 C 0.28051 0.29219 0.32075 0.0
Tb1006 Tb 0.29294 0.30704 0.26948 0.0
O1007 O 0.25318 0.24182 0.25383 0.0
O1008 O 0.2791 0.26899 0.27533 0.0
O1009 O 0.2568 0.28704 0.31123 0.0
C1010 C 0.33825 0.31936 0.2551 0.0
O1011 O 0.29902 0.29854 0.30719 0.0
C1012 C 0.2583 0.3329 0.28197 0.0
C1013 C 0.25515 0.29 0.22102 0.0
O1014 O 0.32125 0.33389 0.25452 0.0
O1015 O 0.32993 0.29865 0.26482 0.0
O1016 O 0.28196 0.34014 0.28903 0.0
O1017 O 0.25573 0.31355 0.26696 0.0
O1018 O 0.27858 0.296 0.23103 0.0
O1019 O 0.23638 0.28328 0.23426 0.0
C1020 C 0.19662 0.26203 0.28674 0.0
O1021 O 0.21524 0.25 0.29108 0.0
O1022 O 0.20342 0.28087 0.27373 0.0
C1023 C 0.27681 0.24935 0.26079 0.0
Tb1024 Tb 0.51222 0.53518 0.98936 0.0
C1025 C 0.48221 0.50094 0.02502 0.0
Tb1026 Tb 0.53776 0.52702 0.04118 0.0
O1027 O 0.51041 0.49555 0.97578 0.0
O1028 O 0.53656 0.51168 1.00434 0.0
O1029 O 0.48078 0.51508 1.00595 0.0
C1030 C 0.55744 0.51085 0.08253 0.0
O1031 O 0.503 0.50069 0.03943 0.0
C1032 C 0.5232 0.57124 0.03695 0.0
C1033 C 0.56871 0.55868 1.00474 0.0
O1034 O 0.56808 0.51275 0.06229 0.0
O1035 O 0.53582 0.518 0.07944 0.0
O1036 O 0.54083 0.56737 0.05312 0.0
O1037 O 0.51306 0.55012 0.0263 0.0
O1038 O 0.56945 0.54348 0.02305 0.0
O1039 O 0.5478 0.56073 0.99108 0.0
C1040 C 0.48871 0.552 0.95033 0.0
O1041 O 0.50945 0.54293 0.95039 0.0
O1042 O 0.48151 0.55191 0.97228 0.0
C1043 C 0.52683 0.4908 0.99284 0.0
Tb1044 Tb 0.78695 0.28688 0.28213 0.0
C1045 C 0.7437 0.29407 0.31551 0.0
Tb1046 Tb 0.73386 0.28245 0.257 0.0
O1047 O 0.78813 0.32671 0.29394 0.0
O1048 O 0.76584 0.31068 0.26229 0.0
O1049 O 0.76624 0.28758 0.31478 0.0
C1050 C 0.69035 0.29054 0.23582 0.0
O1051 O 0.7285 0.2946 0.29511 0.0
C1052 C 0.75014 0.23931 0.26291 0.0
C1053 C 0.77708 0.2752 0.22354 0.0
O1054 O 0.69386 0.27041 0.24692 0.0
O1055 O 0.71117 0.30618 0.23706 0.0
O1056 O 0.73366 0.24254 0.24525 0.0
O1057 O 0.75466 0.2591 0.27755 0.0
O1058 O 0.75413 0.28051 0.22437 0.0
O1059 O 0.79289 0.27579 0.24375 0.0
C1060 C 0.83046 0.27992 0.30423 0.0
O1061 O 0.81078 0.26261 0.30002 0.0
O1062 O 0.82585 0.30082 0.29535 0.0
C1063 C 0.77091 0.33034 0.27723 0.0
Tb1064 Tb 0.98509 0.52033 0.52325 0.0
C1065 C 0.03059 0.49236 0.52649 0.0
Tb1066 Tb 0.03672 0.5525 0.52774 0.0
O1067 O 0.99097 0.50154 0.48799 0.0
O1068 O 0.00893 0.53853 0.49829 0.0
O1069 O 0.00755 0.49153 0.53263 0.0
C1070 C 0.08342 0.57458 0.52272 0.0
O1071 O 0.04429 0.51381 0.52139 0.0
C1072 C 0.01454 0.55367 0.56864 0.0
C1073 C 0.9905 0.57997 0.522 0.0
O1074 O 0.07709 0.55819 0.5385 0.0
O1075 O 0.06345 0.57859 0.50987 0.0
O1076 O 0.03169 0.57139 0.56305 0.0
O1077 O 0.01285 0.53471 0.55297 0.0
O1078 O 0.01407 0.58096 0.51746 0.0
O1079 O 0.97644 0.55874 0.527 0.0
C1080 C 0.9385 0.49704 0.52648 0.0
O1081 O 0.94703 0.50574 0.50679 0.0
O1082 O 0.95613 0.50166 0.54453 0.0
C1083 C 0.00742 0.5199 0.48235 0.0
Tb1084 Tb 0.76255 0.79061 0.29878 0.0
C1085 C 0.77871 0.82793 0.25905 0.0
Tb1086 Tb 0.75175 0.77085 0.24455 0.0
O1087 O 0.803 0.79565 0.29671 0.0
O1088 O 0.77894 0.76802 0.27376 0.0
O1089 O 0.77299 0.82586 0.28196 0.0
C1090 C 0.75493 0.75286 0.19866 0.0
O1091 O 0.77412 0.80846 0.24192 0.0
C1092 C 0.71332 0.7822 0.26586 0.0
C1093 C 0.73875 0.7328 0.28485 0.0
O1094 O 0.74475 0.77254 0.20452 0.0
O1095 O 0.76311 0.74353 0.21846 0.0
O1096 O 0.71146 0.76506 0.24752 0.0
O1097 O 0.73546 0.79357 0.2695 0.0
O1098 O 0.74451 0.73533 0.26196 0.0
O1099 O 0.74166 0.7524 0.30174 0.0
C1100 C 0.7588 0.81038 0.34376 0.0
O1101 O 0.74658 0.81546 0.32375 0.0
O1102 O 0.77285 0.79363 0.33859 0.0
C1103 C 0.80122 0.77897 0.27799 0.0
Tb1104 Tb 0.76775 0.31503 0.77518 0.0
C1105 C 0.81101 0.28264 0.77835 0.0
Tb1106 Tb 0.75413 0.25715 0.76913 0.0
O1107 O 0.78371 0.31307 0.81319 0.0
O1108 O 0.75412 0.28576 0.79767 0.0
O1109 O 0.80439 0.3046 0.77268 0.0
C1110 C 0.74082 0.20914 0.77974 0.0
O1111 O 0.79449 0.26167 0.77927 0.0
C1112 C 0.75217 0.27942 0.72742 0.0
C1113 C 0.71091 0.28994 0.76344 0.0
O1114 O 0.75064 0.21592 0.75985 0.0
O1115 O 0.73921 0.2293 0.79355 0.0
O1116 O 0.73947 0.25738 0.73056 0.0
O1117 O 0.76752 0.28637 0.74641 0.0
O1118 O 0.71716 0.26755 0.76806 0.0
O1119 O 0.7275 0.31117 0.76463 0.0
C1120 C 0.78046 0.36468 0.7702 0.0
O1121 O 0.77426 0.35482 0.7903 0.0
O1122 O 0.77868 0.34664 0.75282 0.0
C1123 C 0.76984 0.29179 0.81643 0.0
Tb1124 Tb 0.73995 0.7784 0.77707 0.0
C1125 C 0.79191 0.78898 0.80717 0.0
Tb1126 Tb 0.78515 0.79654 0.7508 0.0
O1127 O 0.75243 0.74239 0.78387 0.0
O1128 O 0.76232 0.76109 0.7531 0.0
O1129 O 0.7682 0.79155 0.80772 0.0
C1130 C 0.82585 0.80259 0.72731 0.0
O1131 O 0.80223 0.7876 0.78618 0.0
C1132 C 0.75847 0.83156 0.76362 0.0
C1133 C 0.7332 0.78512 0.71991 0.0
O1134 O 0.82043 0.81911 0.74359 0.0
O1135 O 0.80875 0.78263 0.72481 0.0
O1136 O 0.77035 0.83186 0.74411 0.0
O1137 O 0.76348 0.81334 0.77563 0.0
O1138 O 0.75751 0.78621 0.71939 0.0
O1139 O 0.72219 0.78345 0.74054 0.0
C1140 C 0.69915 0.77587 0.80054 0.0
O1141 O 0.71157 0.75735 0.79727 0.0
O1142 O 0.70928 0.79535 0.79005 0.0
C1143 C 0.76613 0.74272 0.76568 0.0
Tb1144 Tb 0.51623 0.5579 0.51797 0.0
C1145 C 0.5207 0.51325 0.47891 0.0
Tb1146 Tb 0.49927 0.50272 0.52979 0.0
O1147 O 0.55497 0.55206 0.51723 0.0
O1148 O 0.53168 0.53032 0.53848 0.0
O1149 O 0.51773 0.53735 0.48255 0.0
C1150 C 0.49717 0.45652 0.54614 0.0
O1151 O 0.51633 0.49647 0.49559 0.0
C1152 C 0.46322 0.52887 0.51667 0.0
C1153 C 0.49442 0.54683 0.56878 0.0
O1154 O 0.48209 0.46247 0.52839 0.0
O1155 O 0.51346 0.47633 0.55403 0.0
O1156 O 0.46073 0.51026 0.53089 0.0
O1157 O 0.48436 0.53003 0.50879 0.0
O1158 O 0.49815 0.52299 0.56517 0.0
O1159 O 0.49923 0.56392 0.55243 0.0
C1160 C 0.51661 0.60319 0.50012 0.0
O1161 O 0.50082 0.5828 0.49303 0.0
O1162 O 0.53217 0.59842 0.51808 0.0
C1163 C 0.55288 0.53256 0.53039 0.0
Tb1164 Tb 0.03678 0.53711 0.01972 0.0
C1165 C 0.02515 0.5132 0.07159 0.0
Tb1166 Tb 0.98408 0.52911 0.03474 0.0
O1167 O 0.04051 0.57833 0.02758 0.0
O1168 O 0.0179 0.55309 0.04703 0.0
O1169 O 0.04078 0.51796 0.05439 0.0
C1170 C 0.9409 0.54195 0.04571 0.0
O1171 O 1.00185 0.51781 0.06877 0.0
C1172 C 0.99703 0.49042 0.01023 0.0
C1173 C 0.99563 0.5531 0.98309 0.0
O1174 O 0.94356 0.5204 0.03463 0.0
O1175 O 0.96266 0.55568 0.05121 0.0
O1176 O 0.98086 0.48775 0.02641 0.0
O1177 O 1.00296 0.5136 1.0073 0.0
O1178 O 0.98071 0.55004 1.0011 0.0
O1179 O 0.01826 0.54666 0.98517 0.0
C1180 C 0.07988 0.52429 0.00909 0.0
O1181 O 0.05903 0.50882 0.00856 0.0
O1182 O 0.07638 0.54733 0.01505 0.0
C1183 C 0.02418 0.57616 0.04358 0.0
H1184 H 0.00831 0.20736 0.88406 0.0
H1185 H 0.05159 0.14941 0.00959 0.0
H1186 H 0.05242 0.25291 0.94544 0.0
H1187 H 0.99163 0.11203 0.9565 0.0
H1188 H 0.05618 0.18625 0.9846 0.0
H1189 H 0.00698 0.17013 0.90817 0.0
C1190 C 0.01799 0.20944 0.90245 0.0
C1191 C 0.03034 0.23324 0.91283 0.0
C1192 C 0.04198 0.16998 0.97852 0.0
C1193 C 0.02875 0.19093 0.94055 0.0
C1194 C 0.03931 0.14908 0.9928 0.0
C1195 C 0.02118 0.12779 0.98508 0.0
C1196 C 0.02658 0.16931 0.95631 0.0
C1197 C 0.00583 0.12814 0.96312 0.0
C1198 C 0.01707 0.18827 0.91628 0.0
C1199 C 0.04252 0.23492 0.9368 0.0
N1200 N 0.00896 0.1485 0.94945 0.0
N1201 N 0.04136 0.21407 0.94989 0.0
H1202 H 0.07702 0.76491 0.16123 0.0
H1203 H 0.1845 0.83288 0.26261 0.0
H1204 H 0.05818 0.80997 0.22306 0.0
H1205 H 0.18163 0.75662 0.22996 0.0
H1206 H 0.14199 0.83285 0.2426 0.0
H1207 H 0.12007 0.77072 0.17998 0.0
C1208 C 0.082 0.77639 0.17856 0.0
C1209 C 0.06391 0.78682 0.19069 0.0
C1210 C 0.15081 0.8162 0.23996 0.0
C1211 C 0.11327 0.79363 0.21214 0.0
C1212 C 0.17496 0.81621 0.25128 0.0
C1213 C 0.18641 0.79459 0.24819 0.0
C1214 C 0.13861 0.79478 0.22485 0.0
C1215 C 0.17335 0.77353 0.2332 0.0
C1216 C 0.10655 0.77956 0.18929 0.0
C1217 C 0.07153 0.80148 0.21318 0.0
N1218 N 0.1503 0.77424 0.22195 0.0
N1219 N 0.0957 0.80446 0.22325 0.0
H1220 H 0.52466 0.899 0.37884 0.0
H1221 H 0.49194 0.93769 0.5138 0.0
H1222 H 0.52578 0.84895 0.43785 0.0
H1223 H 0.51951 0.99365 0.46518 0.0
H1224 H 0.50102 0.90414 0.48475 0.0
H1225 H 0.5201 0.93371 0.40891 0.0
C1226 C 0.52425 0.89533 0.39808 0.0
C1227 C 0.52561 0.87092 0.40572 0.0
C1228 C 0.5052 0.92379 0.48053 0.0
C1229 C 0.51987 0.9104 0.44007 0.0
C1230 C 0.49995 0.94287 0.49705 0.0
C1231 C 0.50499 0.96839 0.49186 0.0
C1232 C 0.51516 0.9303 0.45849 0.0
C1233 C 0.51539 0.97416 0.4699 0.0
C1234 C 0.5216 0.91514 0.41522 0.0
C1235 C 0.52485 0.86737 0.43097 0.0
N1236 N 0.51994 0.95526 0.45391 0.0
N1237 N 0.52176 0.88675 0.44712 0.0
H1238 H 0.44494 0.27602 0.72134 0.0
H1239 H 0.30118 0.24005 0.74381 0.0
H1240 H 0.3896 0.23362 0.66632 0.0
H1241 H 0.35251 0.29944 0.78717 0.0
H1242 H 0.33409 0.2335 0.71747 0.0
H1243 H 0.41218 0.28054 0.74813 0.0
C1244 C 0.42594 0.26751 0.71491 0.0
C1245 C 0.42011 0.25447 0.69142 0.0
C1246 C 0.33815 0.24795 0.73276 0.0
C1247 C 0.38237 0.25959 0.7222 0.0
C1248 C 0.31936 0.25175 0.74774 0.0
C1249 C 0.32403 0.27058 0.76747 0.0
C1250 C 0.36194 0.26276 0.73786 0.0
C1251 C 0.34807 0.28481 0.77207 0.0
C1252 C 0.40721 0.27021 0.73021 0.0
C1253 C 0.39503 0.24395 0.68418 0.0
N1254 N 0.36611 0.2806 0.75741 0.0
N1255 N 0.37713 0.2467 0.6995 0.0
H1256 H 1.00378 0.84615 0.54872 0.0
H1257 H 0.05636 0.99139 0.53298 0.0
H1258 H 0.04812 0.89619 0.60717 0.0
H1259 H 0.99051 0.94921 0.49085 0.0
H1260 H 0.06114 0.95367 0.55513 0.0
H1261 H 0.00661 0.88116 0.52215 0.0
C1262 C 0.01431 0.86444 0.55594 0.0
C1263 C 0.02549 0.86834 0.58033 0.0
C1264 C 0.04583 0.95266 0.54085 0.0
C1265 C 0.02883 0.90835 0.54991 0.0
C1266 C 0.04308 0.97408 0.52828 0.0
C1267 C 0.0227 0.97339 0.51059 0.0
C1268 C 0.02833 0.9304 0.53519 0.0
C1269 C 0.00632 0.95049 0.50461 0.0
C1270 C 0.01585 0.88439 0.54074 0.0
C1271 C 0.03895 0.89244 0.58859 0.0
N1272 N 0.0094 0.92986 0.51705 0.0
N1273 N 0.04016 0.91164 0.57339 0.0
H1274 H 0.44185 0.79606 0.93099 0.0
H1275 H 0.34946 0.73217 0.81458 0.0
H1276 H 0.46256 0.74066 0.87929 0.0
H1277 H 0.35806 0.81175 0.839 0.0
H1278 H 0.38315 0.72737 0.84628 0.0
H1279 H 0.4016 0.79334 0.90579 0.0
C1280 C 0.43763 0.78304 0.91457 0.0
C1281 C 0.4555 0.76925 0.90646 0.0
C1282 C 0.3774 0.74576 0.84472 0.0
C1283 C 0.40998 0.76542 0.87845 0.0
C1284 C 0.35849 0.74854 0.82663 0.0
C1285 C 0.35161 0.77248 0.82405 0.0
C1286 C 0.38856 0.76688 0.8607 0.0
C1287 C 0.36335 0.79312 0.8402 0.0
C1288 C 0.41486 0.78147 0.90031 0.0
C1289 C 0.4493 0.75215 0.88551 0.0
N1290 N 0.3812 0.78981 0.85804 0.0
N1291 N 0.42703 0.75085 0.87197 0.0
H1292 H 0.49964 0.24486 0.0557 0.0
H1293 H 0.5184 0.12751 0.01033 0.0
H1294 H 0.46193 0.20583 0.11167 0.0
H1295 H 0.46083 0.09553 0.05378 0.0
H1296 H 0.51345 0.16955 0.0255 0.0
H1297 H 0.49956 0.20469 0.03289 0.0
C1298 C 0.49132 0.22759 0.06317 0.0
C1299 C 0.48017 0.22855 0.08518 0.0
C1300 C 0.50115 0.15364 0.03123 0.0
C1301 C 0.48188 0.18182 0.06015 0.0
C1302 C 0.50417 0.1294 0.02261 0.0
C1303 C 0.49009 0.10796 0.03085 0.0
C1304 C 0.48371 0.1566 0.0482 0.0
C1305 C 0.47201 0.11159 0.04685 0.0
C1306 C 0.49172 0.20445 0.05033 0.0
C1307 C 0.47042 0.20573 0.09453 0.0
N1308 N 0.46955 0.1355 0.05526 0.0
N1309 N 0.47146 0.18316 0.08188 0.0
H1310 H 0.08803 0.24355 0.39484 0.0
H1311 H 0.1586 0.28854 0.28052 0.0
H1312 H 0.09122 0.31775 0.36709 0.0
H1313 H 0.18539 0.23246 0.32481 0.0
H1314 H 0.12742 0.29317 0.30883 0.0
H1315 H 0.1202 0.23468 0.36805 0.0
C1316 C 0.09593 0.25816 0.38364 0.0
C1317 C 0.08681 0.2813 0.38292 0.0
C1318 C 0.13997 0.27968 0.31231 0.0
C1319 C 0.12255 0.27103 0.35201 0.0
C1320 C 0.15756 0.27682 0.29598 0.0
C1321 C 0.17461 0.26023 0.30049 0.0
C1322 C 0.13937 0.26586 0.33331 0.0
C1323 C 0.17248 0.24547 0.32079 0.0
C1324 C 0.114 0.25299 0.36822 0.0
C1325 C 0.09745 0.29951 0.36794 0.0
N1326 N 0.15522 0.24876 0.3367 0.0
N1327 N 0.11446 0.29385 0.35287 0.0
H1328 H 0.87497 0.03581 0.15656 0.0
H1329 H 0.99104 0.09493 0.08981 0.0
H1330 H 0.92961 0.09449 0.19709 0.0
H1331 H 0.9657 0.01418 0.08992 0.0
H1332 H 0.96304 0.10221 0.12184 0.0
H1333 H 0.90167 0.0357 0.12293 0.0
C1334 C 0.89229 0.04909 0.15818 0.0
C1335 C 0.90017 0.06502 0.17977 0.0
C1336 C 0.96388 0.08298 0.11477 0.0
C1337 C 0.93067 0.06504 0.14127 0.0
C1338 C 0.97985 0.07881 0.09665 0.0
C1339 C 0.98107 0.0539 0.08741 0.0
C1340 C 0.9485 0.06215 0.12284 0.0
C1341 C 0.96584 0.03371 0.09669 0.0
C1342 C 0.90756 0.04889 0.13905 0.0
C1343 C 0.92294 0.08176 0.18082 0.0
N1344 N 0.95007 0.03829 0.11359 0.0
N1345 N 0.93751 0.08129 0.16186 0.0
H1346 H 0.28566 0.66959 0.41051 0.0
H1347 H 0.28037 0.80964 0.36608 0.0
H1348 H 0.30047 0.73708 0.46084 0.0
H1349 H 0.26355 0.74114 0.31771 0.0
H1350 H 0.28899 0.78409 0.40073 0.0
H1351 H 0.27902 0.69588 0.37645 0.0
C1352 C 0.2878 0.68999 0.4145 0.0
C1353 C 0.29374 0.70094 0.4389 0.0
C1354 C 0.28314 0.77457 0.38258 0.0
C1355 C 0.28578 0.73153 0.39933 0.0
C1356 C 0.27815 0.78916 0.36273 0.0
C1357 C 0.27033 0.7775 0.33888 0.0
C1358 C 0.28066 0.74796 0.37864 0.0
C1359 C 0.26828 0.75093 0.33574 0.0
C1360 C 0.28386 0.70505 0.39488 0.0
C1361 C 0.29607 0.72762 0.4425 0.0
N1362 N 0.27338 0.73714 0.35525 0.0
N1363 N 0.29201 0.7419 0.42303 0.0
H1364 H 0.62414 0.99548 0.7008 0.0
H1365 H 0.50072 1.00179 0.6116 0.0
H1366 H 0.55042 0.98151 0.7246 0.0
H1367 H 0.5738 0.0049 0.58665 0.0
H1368 H 0.51798 0.99315 0.65263 0.0
H1369 H 0.60567 0.99768 0.6587 0.0
C1370 C 0.60403 0.9926 0.69715 0.0
C1371 C 0.58886 0.9883 0.71639 0.0
C1372 C 0.53019 0.99552 0.63811 0.0
C1373 C 0.56743 0.99119 0.66795 0.0
C1374 C 0.52033 1.00044 0.6146 0.0
C1375 C 0.53577 0.00421 0.59547 0.0
C1376 C 0.55577 0.9945 0.64271 0.0
C1377 C 0.56108 1.00223 0.60068 0.0
C1378 C 0.59346 0.9939 0.67304 0.0
C1379 C 0.56288 0.98477 0.7104 0.0
N1380 N 0.57025 0.99772 0.62373 0.0
N1381 N 0.55302 0.98652 0.68682 0.0
H1382 H 0.29993 0.43227 0.95829 0.0
H1383 H 0.2239 0.31299 0.87542 0.0
H1384 H 0.23357 0.389 0.98135 0.0
H1385 H 0.30399 0.3326 0.88021 0.0
H1386 H 0.22346 0.34536 0.90934 0.0
H1387 H 0.29715 0.40149 0.92265 0.0
C1388 C 0.28455 0.41661 0.95566 0.0
C1389 C 0.26727 0.41287 0.97306 0.0
C1390 C 0.24109 0.34235 0.90302 0.0
C1391 C 0.26399 0.37783 0.93249 0.0
C1392 C 0.24138 0.32384 0.88391 0.0
C1393 C 0.26403 0.32013 0.87529 0.0
C1394 C 0.26355 0.35751 0.91296 0.0
C1395 C 0.28617 0.33478 0.88656 0.0
C1396 C 0.28311 0.39896 0.93547 0.0
C1397 C 0.24753 0.39232 0.96855 0.0
N1398 N 0.28537 0.35311 0.90468 0.0
N1399 N 0.24648 0.37543 0.94872 0.0
H1400 H 0.92104 0.06014 0.30095 0.0
H1401 H 0.92797 0.06162 0.44799 0.0
H1402 H 0.85592 0.04872 0.3408 0.0
H1403 H 0.9895 0.05071 0.4065 0.0
H1404 H 0.9024 0.06445 0.4093 0.0
H1405 H 0.94739 0.0641 0.34003 0.0
C1406 C 0.91224 0.05867 0.3179 0.0
C1407 C 0.88617 0.05393 0.31752 0.0
C1408 C 0.92155 0.06161 0.40869 0.0
C1409 C 0.91632 0.05851 0.36235 0.0
C1410 C 0.93615 0.0601 0.43073 0.0
C1411 C 0.96077 0.05577 0.43032 0.0
C1412 C 0.93177 0.05898 0.38617 0.0
C1413 C 0.97052 0.05393 0.40753 0.0
C1414 C 0.92733 0.06086 0.3402 0.0
C1415 C 0.87591 0.05219 0.34014 0.0
N1416 N 0.95597 0.05548 0.38633 0.0
N1417 N 0.89101 0.05444 0.36162 0.0
H1418 H 0.31056 0.67542 0.60227 0.0
H1419 H 0.26773 0.7889 0.67853 0.0
H1420 H 0.30819 0.7475 0.57166 0.0
H1421 H 0.31125 0.73884 0.71507 0.0
H1422 H 0.27783 0.77158 0.63862 0.0
H1423 H 0.30668 0.69554 0.64325 0.0
C1424 C 0.30954 0.69553 0.60419 0.0
C1425 C 0.30992 0.70979 0.58343 0.0
C1426 C 0.28535 0.76455 0.65539 0.0
C1427 C 0.30461 0.73277 0.63024 0.0
C1428 C 0.27957 0.77441 0.67821 0.0
C1429 C 0.28875 0.76548 0.70032 0.0
C1430 C 0.29981 0.74498 0.65445 0.0
C1431 C 0.30393 0.74653 0.69859 0.0
C1432 C 0.3073 0.70699 0.62759 0.0
C1433 C 0.30827 0.73578 0.58711 0.0
N1434 N 0.30865 0.73666 0.67612 0.0
N1435 N 0.3053 0.74629 0.60988 0.0
H1436 H 0.62844 0.01552 0.88897 0.0
H1437 H 0.49385 0.99359 0.93802 0.0
H1438 H 0.56163 0.98918 0.83981 0.0
H1439 H 0.55669 0.04409 0.97628 0.0
H1440 H 0.5186 0.98732 0.90343 0.0
H1441 H 0.60291 0.02111 0.92258 0.0
C1442 C 0.60839 0.01067 0.88515 0.0
C1443 C 0.59732 1.00188 0.86121 0.0
C1444 C 0.52694 0.99993 0.91932 0.0
C1445 C 0.56774 0.00827 0.90024 0.0
C1446 C 0.51283 0.00354 0.9391 0.0
C1447 C 0.5231 0.01975 0.96004 0.0
C1448 C 0.55178 0.01218 0.92062 0.0
C1449 C 0.54785 0.0319 0.96044 0.0
C1450 C 0.5938 0.01405 0.90447 0.0
C1451 C 0.57112 0.99601 0.8578 0.0
N1452 N 0.56137 0.02775 0.94118 0.0
N1453 N 0.55727 0.99924 0.87706 0.0
H1454 H 0.21571 0.3605 0.08535 0.0
H1455 H 0.28805 0.29542 0.18659 0.0
H1456 H 0.28389 0.39759 0.12744 0.0
H1457 H 0.2115 0.30019 0.19748 0.0
H1458 H 0.28448 0.32021 0.15088 0.0
H1459 H 0.21171 0.32794 0.11549 0.0
C1460 C 0.2296 0.36196 0.10106 0.0
C1461 C 0.25014 0.38174 0.10404 0.0
C1462 C 0.26831 0.3152 0.16077 0.0
C1463 C 0.24618 0.34442 0.1374 0.0
C1464 C 0.27023 0.30096 0.18103 0.0
C1465 C 0.25021 0.2963 0.19537 0.0
C1466 C 0.24616 0.32447 0.15461 0.0
C1467 C 0.22745 0.30361 0.18704 0.0
C1468 C 0.22733 0.34341 0.11804 0.0
C1469 C 0.2677 0.38278 0.12456 0.0
N1470 N 0.22612 0.31787 0.16731 0.0
N1471 N 0.26554 0.36411 0.14024 0.0
H1472 H 0.1579 0.92535 0.06028 0.0
H1473 H 0.08672 0.02719 0.99541 0.0
H1474 H 0.16083 0.9426 0.98452 0.0
H1475 H 0.06266 0.9969 0.06205 0.0
H1476 H 0.11505 0.99651 0.99308 0.0
H1477 H 0.12334 0.95011 0.06298 0.0
C1478 C 0.15089 0.93369 0.04406 0.0
C1479 C 0.16243 0.93188 0.02214 0.0
C1480 C 0.10354 0.99628 1.00821 0.0
C1481 C 0.12343 0.96075 0.02528 0.0
C1482 C 0.08734 0.01399 0.00962 0.0
C1483 C 0.07192 0.0145 0.02877 0.0
C1484 C 0.1051 0.979 0.02643 0.0
C1485 C 0.07376 0.99683 0.04664 0.0
C1486 C 0.13131 0.94803 0.04568 0.0
C1487 C 0.15275 0.94354 1.00187 0.0
N1488 N 0.09019 0.97992 0.04518 0.0
N1489 N 0.1342 0.95755 1.00403 0.0
H1490 H 0.72336 0.60933 0.99095 0.0
H1491 H 0.61349 0.56485 0.03238 0.0
H1492 H 0.68596 0.66436 0.95484 0.0
H1493 H 0.57781 0.58722 0.96525 0.0
H1494 H 0.65285 0.58797 0.02302 0.0
H1495 H 0.68349 0.58532 0.99744 0.0
C1496 C 0.7066 0.61614 0.984 0.0
C1497 C 0.70785 0.63843 0.97171 0.0
C1498 C 0.63655 0.58742 0.01002 0.0
C1499 C 0.66196 0.61224 0.98126 0.0
C1500 C 0.61396 0.57438 0.01548 0.0
C1501 C 0.59238 0.57362 0.99932 0.0
C1502 C 0.63781 0.59959 0.98803 0.0
C1503 C 0.5941 0.58703 0.97804 0.0
C1504 C 0.68382 0.60274 0.98829 0.0
C1505 C 0.6856 0.64701 0.9641 0.0
N1506 N 0.61655 0.59946 0.97291 0.0
N1507 N 0.66335 0.63382 0.96901 0.0
H1508 H 0.66872 0.44092 0.26947 0.0
H1509 H 0.76607 0.35449 0.321 0.0
H1510 H 0.70929 0.45247 0.34193 0.0
H1511 H 0.73918 0.35033 0.24393 0.0
H1512 H 0.74043 0.38657 0.32958 0.0
H1513 H 0.68912 0.40393 0.26064 0.0
C1514 C 0.68158 0.43548 0.28366 0.0
C1515 C 0.68735 0.44994 0.30648 0.0
C1516 C 0.73996 0.37868 0.31076 0.0
C1517 C 0.71079 0.40777 0.29639 0.0
C1518 C 0.75468 0.36033 0.30579 0.0
C1519 C 0.75464 0.34955 0.28168 0.0
C1520 C 0.72513 0.38678 0.29145 0.0
C1521 C 0.73935 0.35779 0.26283 0.0
C1522 C 0.69334 0.41448 0.27851 0.0
C1523 C 0.70434 0.44207 0.32404 0.0
N1524 N 0.72523 0.37605 0.26808 0.0
N1525 N 0.71544 0.42165 0.3186 0.0
H1526 H 0.78733 0.44682 0.55791 0.0
H1527 H 0.90779 0.47011 0.48871 0.0
H1528 H 0.80165 0.39071 0.50314 0.0
H1529 H 0.91219 0.49139 0.56663 0.0
H1530 H 0.8662 0.44559 0.49067 0.0
H1531 H 0.83078 0.46814 0.5591 0.0
C1532 C 0.7997 0.43909 0.54611 0.0
C1533 C 0.79094 0.41753 0.52984 0.0
C1534 C 0.87629 0.45565 0.50731 0.0
C1535 C 0.84024 0.4416 0.53111 0.0
C1536 C 0.89989 0.46971 0.50619 0.0
C1537 C 0.91331 0.48272 0.52756 0.0
C1538 C 0.86575 0.4553 0.52978 0.0
C1539 C 0.90238 0.48152 0.54979 0.0
C1540 C 0.82442 0.45109 0.54694 0.0
C1541 C 0.80771 0.40766 0.5155 0.0
N1542 N 0.87901 0.4683 0.55029 0.0
N1543 N 0.83151 0.42011 0.51604 0.0
H1544 H 0.36399 0.13122 0.22505 0.0
H1545 H 0.32136 0.25441 0.28907 0.0
H1546 H 0.3877 0.15998 0.30026 0.0
H1547 H 0.27741 0.20799 0.22825 0.0
H1548 H 0.35277 0.22647 0.28786 0.0
H1549 H 0.33979 0.16613 0.22039 0.0
C1550 C 0.36498 0.14556 0.24022 0.0
C1551 C 0.37827 0.14311 0.26291 0.0
C1552 C 0.33639 0.22253 0.27461 0.0
C1553 C 0.35018 0.18255 0.25798 0.0
C1554 C 0.31847 0.23852 0.27521 0.0
C1555 C 0.29666 0.23347 0.25876 0.0
C1556 C 0.3327 0.20138 0.25727 0.0
C1557 C 0.29388 0.21247 0.24135 0.0
C1558 C 0.35084 0.16519 0.23769 0.0
C1559 C 0.37811 0.16155 0.28233 0.0
N1560 N 0.31166 0.19715 0.24107 0.0
N1561 N 0.36423 0.18043 0.27946 0.0
H1562 H 0.31135 0.07994 0.4702 0.0
H1563 H 0.43362 0.08506 0.56254 0.0
H1564 H 0.33837 0.14256 0.52495 0.0
H1565 H 0.39761 0.01757 0.51782 0.0
H1566 H 0.39826 0.10614 0.55047 0.0
H1567 H 0.34337 0.05719 0.4873 0.0
C1568 C 0.32415 0.08906 0.48566 0.0
C1569 C 0.32213 0.11327 0.49611 0.0
C1570 C 0.39788 0.08658 0.54361 0.0
C1571 C 0.35869 0.08706 0.516 0.0
C1572 C 0.41795 0.0745 0.55066 0.0
C1573 C 0.41849 0.04966 0.54098 0.0
C1574 C 0.37847 0.07375 0.52658 0.0
C1575 C 0.39786 0.03678 0.52563 0.0
C1576 C 0.34229 0.0759 0.49558 0.0
C1577 C 0.33921 0.12397 0.51625 0.0
N1578 N 0.3788 0.04913 0.51857 0.0
N1579 N 0.3568 0.11079 0.52553 0.0
H1580 H 0.70552 0.56975 0.28859 0.0
H1581 H 0.70901 0.71873 0.32148 0.0
H1582 H 0.64795 0.59805 0.32576 0.0
H1583 H 0.74625 0.68775 0.26306 0.0
H1584 H 0.69149 0.6751 0.32985 0.0
H1585 H 0.72601 0.61347 0.28601 0.0
C1586 C 0.69747 0.58526 0.29661 0.0
C1587 C 0.67541 0.58041 0.30794 0.0
C1588 C 0.70359 0.67797 0.3153 0.0
C1589 C 0.6983 0.63053 0.30446 0.0
C1590 C 0.71368 0.70279 0.31059 0.0
C1591 C 0.729 0.70688 0.29145 0.0
C1592 C 0.70927 0.65718 0.30103 0.0
C1593 C 0.73435 0.68555 0.27784 0.0
C1594 C 0.70901 0.6102 0.29494 0.0
C1595 C 0.66519 0.60113 0.31724 0.0
N1596 N 0.72456 0.66171 0.28292 0.0
N1597 N 0.6768 0.62538 0.31542 0.0
H1598 H 0.89753 0.49361 0.79368 0.0
H1599 H 0.78588 0.39089 0.72931 0.0
H1600 H 0.84688 0.51338 0.73567 0.0
H1601 H 0.8065 0.39652 0.80778 0.0
H1602 H 0.81337 0.43158 0.72673 0.0
H1603 H 0.87054 0.45209 0.7938 0.0
C1604 C 0.88084 0.48902 0.78086 0.0
C1605 C 0.87375 0.50699 0.76528 0.0
C1606 C 0.81169 0.4239 0.74448 0.0
C1607 C 0.84352 0.45985 0.76478 0.0
C1608 C 0.79596 0.40088 0.74599 0.0
C1609 C 0.79383 0.3906 0.76881 0.0
C1610 C 0.82591 0.4361 0.76582 0.0
C1611 C 0.80745 0.40403 0.78989 0.0
C1612 C 0.86549 0.46552 0.78098 0.0
C1613 C 0.8524 0.50013 0.74849 0.0
N1614 N 0.82323 0.42596 0.78785 0.0
N1615 N 0.8379 0.47706 0.74871 0.0
H1616 H 0.94331 0.81215 0.09554 0.0
H1617 H 0.02958 0.94482 0.08152 0.0
H1618 H 0.01021 0.84141 0.14372 0.0
H1619 H 0.96158 0.91677 0.03481 0.0
H1620 H 0.0229 0.90692 0.10433 0.0
H1621 H 0.94916 0.85067 0.07378 0.0
C1622 C 0.95913 0.82678 0.10175 0.0
C1623 C 0.97637 0.82341 0.1215 0.0
C1624 C 0.00945 0.90896 0.08907 0.0
C1625 C 0.98329 0.86759 0.09631 0.0
C1626 C 0.01332 0.93052 0.07595 0.0
C1627 C 0.99609 0.93384 0.05627 0.0
C1628 C 0.98816 0.89055 0.08247 0.0
C1629 C 0.97534 0.91483 0.04983 0.0
C1630 C 0.96248 0.84876 0.0892 0.0
C1631 C 0.99641 0.84314 0.12867 0.0
N1632 N 0.9719 0.89399 0.06296 0.0
N1633 N 0.99941 0.8643 0.11597 0.0
H1634 H 0.96702 0.26614 0.81973 0.0
H1635 H 0.83711 0.24236 0.77996 0.0
H1636 H 0.94314 0.31616 0.87446 0.0
H1637 H 0.84491 0.32323 0.7983 0.0
H1638 H 0.87993 0.24343 0.79914 0.0
H1639 H 0.92513 0.26038 0.79711 0.0
C1640 C 0.95293 0.27598 0.82685 0.0
C1641 C 0.95853 0.29219 0.84854 0.0
C1642 C 0.87227 0.26092 0.79857 0.0
C1643 C 0.91092 0.2855 0.82316 0.0
C1644 C 0.8479 0.26034 0.78769 0.0
C1645 C 0.83752 0.28278 0.78724 0.0
C1646 C 0.88595 0.28398 0.80964 0.0
C1647 C 0.85224 0.30552 0.79785 0.0
C1648 C 0.92907 0.27247 0.81414 0.0
C1649 C 0.93957 0.30391 0.85752 0.0
N1650 N 0.87551 0.30546 0.80893 0.0
N1651 N 0.91671 0.30077 0.84451 0.0
H1652 H 0.51448 0.22142 0.61177 0.0
H1653 H 0.50139 0.07067 0.58453 0.0
H1654 H 0.47842 0.16835 0.6586 0.0
H1655 H 0.53795 0.12543 0.53947 0.0
H1656 H 0.49242 0.10556 0.61179 0.0
H1657 H 0.52364 0.1861 0.58567 0.0
C1658 C 0.50846 0.20217 0.61649 0.0
C1659 C 0.49516 0.19764 0.63694 0.0
C1660 C 0.50238 0.10996 0.59594 0.0
C1661 C 0.50582 0.15697 0.60725 0.0
C1662 C 0.50737 0.09007 0.58027 0.0
C1663 C 0.52028 0.09523 0.5596 0.0
C1664 C 0.5105 0.1352 0.59099 0.0
C1665 C 0.52794 0.12065 0.55519 0.0
C1666 C 0.51376 0.182 0.60162 0.0
C1667 C 0.4884 0.17249 0.64272 0.0
N1668 N 0.52293 0.13968 0.57075 0.0
N1669 N 0.49358 0.15298 0.62775 0.0
H1670 H 0.59387 0.8439 0.32832 0.0
H1671 H 0.67427 0.74736 0.27563 0.0
H1672 H 0.59 0.76898 0.35438 0.0
H1673 H 0.70616 0.82657 0.29013 0.0
H1674 H 0.6399 0.75463 0.29981 0.0
H1675 H 0.63227 0.83821 0.30995 0.0
C1676 C 0.60127 0.8264 0.33044 0.0
C1677 C 0.58878 0.80693 0.343 0.0
C1678 C 0.6545 0.77038 0.2978 0.0
C1679 C 0.63215 0.80005 0.32141 0.0
C1680 C 0.67397 0.76629 0.2839 0.0
C1681 C 0.69296 0.78643 0.2809 0.0
C1682 C 0.65363 0.79494 0.30815 0.0
C1683 C 0.69186 0.81055 0.29213 0.0
C1684 C 0.62315 0.8232 0.31999 0.0
C1685 C 0.59914 0.78458 0.34508 0.0
N1686 N 0.67229 0.81426 0.30498 0.0
N1687 N 0.61997 0.78157 0.33402 0.0
H1688 H 0.99818 0.18869 0.42991 0.0
H1689 H 0.05113 0.12144 0.54493 0.0
H1690 H 0.05456 0.2267 0.48634 0.0
H1691 H 0.9802 0.09234 0.50379 0.0
H1692 H 0.05495 0.15832 0.52081 0.0
H1693 H 0.99428 0.15068 0.45318 0.0
C1694 C 0.00994 0.18891 0.44701 0.0
C1695 C 0.02669 0.21083 0.45628 0.0
C1696 C 0.0385 0.14391 0.517 0.0
C1697 C 0.02221 0.16773 0.4829 0.0
C1698 C 0.03622 0.12289 0.53087 0.0
C1699 C 0.01546 0.10358 0.52595 0.0
C1700 C 0.01989 0.14568 0.49804 0.0
C1701 C 0.9968 0.10643 0.5075 0.0
C1702 C 0.00754 0.16734 0.46035 0.0
C1703 C 0.04135 0.21022 0.47859 0.0
N1704 N 0.9995 0.12707 0.49402 0.0
N1705 N 0.03876 0.18903 0.49112 0.0
H1706 H 0.56209 0.34007 0.16214 0.0
H1707 H 0.65327 0.25308 0.21547 0.0
H1708 H 0.56966 0.26975 0.12233 0.0
H1709 H 0.6766 0.3344 0.22089 0.0
H1710 H 0.61776 0.25789 0.18626 0.0
H1711 H 0.60076 0.33817 0.18809 0.0
C1712 C 0.57219 0.32451 0.1586 0.0
C1713 C 0.56288 0.30508 0.14011 0.0
C1714 C 0.63068 0.27464 0.19391 0.0
C1715 C 0.60619 0.30233 0.17009 0.0
C1716 C 0.65067 0.27195 0.21073 0.0
C1717 C 0.66766 0.29341 0.22052 0.0
C1718 C 0.62746 0.29898 0.1874 0.0
C1719 C 0.66377 0.31744 0.21366 0.0
C1720 C 0.59411 0.32342 0.1734 0.0
C1721 C 0.57644 0.28521 0.13628 0.0
N1722 N 0.64386 0.31965 0.19761 0.0
N1723 N 0.59724 0.28405 0.15153 0.0
H1724 H 0.52202 0.83231 0.98861 0.0
H1725 H 0.56794 0.98197 0.99776 0.0
H1726 H 0.54815 0.87384 0.92824 0.0
H1727 H 0.5111 0.94647 0.04028 0.0
H1728 H 0.57272 0.94005 0.98033 0.0
H1729 H 0.52928 0.87221 0.01492 0.0
C1730 C 0.52961 0.84976 0.981 0.0
C1731 C 0.53422 0.84992 0.95615 0.0
C1732 C 0.55959 0.94148 0.99386 0.0
C1733 C 0.54286 0.8952 0.98614 0.0
C1734 C 0.55693 0.96535 1.00397 0.0
C1735 C 0.53876 0.9677 0.0202 0.0
C1736 C 0.54418 0.91987 1.00022 0.0
C1737 C 0.52506 0.94549 0.02755 0.0
C1738 C 0.5337 0.87243 0.996 0.0
C1739 C 0.54402 0.873 0.9472 0.0
N1740 N 0.52784 0.92241 0.01726 0.0
N1741 N 0.54797 0.89478 0.9622 0.0
H1742 H 0.9276 0.78455 0.61901 0.0
H1743 H 0.86174 0.84449 0.72835 0.0
H1744 H 0.95964 0.8535 0.66379 0.0
H1745 H 0.83581 0.77036 0.69055 0.0
H1746 H 0.89469 0.85135 0.70076 0.0
H1747 H 0.88981 0.78312 0.63996 0.0
C1748 C 0.92649 0.79969 0.63284 0.0
C1749 C 0.94693 0.81892 0.63999 0.0
C1750 C 0.88174 0.83362 0.69848 0.0
C1751 C 0.90406 0.81716 0.66424 0.0
C1752 C 0.8631 0.82967 0.71428 0.0
C1753 C 0.84634 0.80677 0.71176 0.0
C1754 C 0.88347 0.81451 0.68008 0.0
C1755 C 0.84858 0.78822 0.69315 0.0
C1756 C 0.90501 0.79873 0.64495 0.0
C1757 C 0.94446 0.83806 0.65802 0.0
N1758 N 0.86687 0.79247 0.67802 0.0
N1759 N 0.92353 0.83652 0.66975 0.0
H1760 H 0.0882 0.01134 0.83854 0.0
H1761 H 0.05309 0.9777 0.97248 0.0
H1762 H 0.14254 0.99273 0.89393 0.0
H1763 H 0.02241 0.03498 0.93298 0.0
H1764 H 0.07958 0.97202 0.93919 0.0
H1765 H 0.05764 0.00902 0.86875 0.0
C1766 C 0.09362 0.00637 0.85694 0.0
C1767 C 0.11805 1.00233 0.86374 0.0
C1768 C 0.06672 0.9855 0.93771 0.0
C1769 C 0.08299 0.99939 0.89825 0.0
C1770 C 0.05146 0.98862 0.95654 0.0
C1771 C 0.03566 0.00699 0.95556 0.0
C1772 C 0.06557 1.00031 0.91745 0.0
C1773 C 0.03445 0.02073 0.93455 0.0
C1774 C 0.07618 0.00518 0.87416 0.0
C1775 C 0.12399 0.99615 0.88794 0.0
N1776 N 0.0492 0.01711 0.91632 0.0
N1777 N 0.10656 0.99482 0.90435 0.0
H1778 H 0.74937 0.39067 0.61642 0.0
H1779 H 0.71268 0.26903 0.6923 0.0
H1780 H 0.69851 0.32379 0.5856 0.0
H1781 H 0.78049 0.32236 0.71175 0.0
H1782 H 0.70392 0.29173 0.65588 0.0
H1783 H 0.7572 0.36927 0.65411 0.0
C1784 C 0.73955 0.37161 0.61765 0.0
C1785 C 0.72313 0.35911 0.59767 0.0
C1786 C 0.72066 0.29862 0.66814 0.0
C1787 C 0.73217 0.33438 0.64104 0.0
C1788 C 0.72573 0.28564 0.68902 0.0
C1789 C 0.74724 0.29395 0.70546 0.0
C1790 C 0.73708 0.32037 0.6635 0.0
C1791 C 0.76336 0.31565 0.70008 0.0
C1792 C 0.74423 0.35933 0.63916 0.0
C1793 C 0.71125 0.33427 0.60043 0.0
N1794 N 0.75792 0.32814 0.67967 0.0
N1795 N 0.71593 0.32282 0.62163 0.0
H1796 H 0.46634 0.07319 0.32606 0.0
H1797 H 0.45586 0.07194 0.47165 0.0
H1798 H 0.40448 0.09362 0.36232 0.0
H1799 H 0.51992 0.05319 0.43812 0.0
H1800 H 0.43864 0.08303 0.43181 0.0
H1801 H 0.4882 0.06924 0.36668 0.0
C1802 C 0.45752 0.07733 0.34249 0.0
C1803 C 0.4334 0.08365 0.34059 0.0
C1804 C 0.45656 0.07667 0.4331 0.0
C1805 C 0.45822 0.0788 0.38722 0.0
C1806 C 0.46645 0.0703 0.45596 0.0
C1807 C 0.4894 0.06147 0.4584 0.0
C1808 C 0.4695 0.07408 0.41221 0.0
C1809 C 0.50218 0.05991 0.43723 0.0
C1810 C 0.46996 0.07488 0.3657 0.0
C1811 C 0.42292 0.08852 0.36267 0.0
N1812 N 0.49199 0.06593 0.41504 0.0
N1813 N 0.43525 0.08582 0.38486 0.0
H1814 H 0.76457 0.65484 0.06946 0.0
H1815 H 0.74923 0.77564 0.15559 0.0
H1816 H 0.7839 0.73144 0.04846 0.0
H1817 H 0.76674 0.70689 0.18534 0.0
H1818 H 0.75549 0.75816 0.11434 0.0
H1819 H 0.75951 0.67217 0.11103 0.0
C1820 C 0.76793 0.67526 0.07367 0.0
C1821 C 0.77473 0.69176 0.05562 0.0
C1822 C 0.75794 0.74697 0.12996 0.0
C1823 C 0.76845 0.71156 0.10261 0.0
C1824 C 0.75424 0.75684 0.15335 0.0
C1825 C 0.75752 0.74262 0.17368 0.0
C1826 C 0.76448 0.72261 0.12703 0.0
C1827 C 0.76411 0.71842 0.17002 0.0
C1828 C 0.76504 0.6851 0.0973 0.0
C1829 C 0.77879 0.71807 0.06193 0.0
N1830 N 0.76724 0.70906 0.14706 0.0
N1831 N 0.77533 0.7272 0.08488 0.0
H1832 H 0.09096 0.97476 0.72792 0.0
H1833 H 0.10267 0.04508 0.60478 0.0
H1834 H 0.1583 0.02236 0.71245 0.0
H1835 H 0.04274 0.98412 0.61256 0.0
H1836 H 0.12398 0.03581 0.64363 0.0
H1837 H 0.07361 0.97625 0.68527 0.0
C1838 C 0.10223 0.98524 0.71546 0.0
C1839 C 0.12603 0.99865 0.72379 0.0
C1840 C 0.10629 0.02426 0.63677 0.0
C1841 C 0.10616 1.00072 0.67509 0.0
C1842 C 0.09411 0.0296 0.61463 0.0
C1843 C 0.07086 0.01547 0.60566 0.0
C1844 C 0.09498 0.00486 0.65019 0.0
C1845 C 0.06061 0.99554 0.619 0.0
C1846 C 0.09231 0.98608 0.69111 0.0
C1847 C 0.13984 0.01183 0.70683 0.0
N1848 N 0.07261 0.991 0.64079 0.0
N1849 N 0.12957 0.01281 0.68338 0.0
H1850 H 0.70365 0.39463 0.43129 0.0
H1851 H 0.70396 0.31821 0.32368 0.0
H1852 H 0.73194 0.33531 0.46951 0.0
H1853 H 0.76633 0.29228 0.36276 0.0
H1854 H 0.69411 0.33753 0.3625 0.0
H1855 H 0.70673 0.37148 0.39202 0.0
C1856 C 0.70999 0.3764 0.43145 0.0
C1857 C 0.71719 0.36682 0.4539 0.0
C1858 C 0.71001 0.3277 0.36266 0.0
C1859 C 0.72105 0.33998 0.4085 0.0
C1860 C 0.71551 0.31632 0.34043 0.0
C1861 C 0.73612 0.30354 0.3397 0.0
C1862 C 0.72513 0.32638 0.38466 0.0
C1863 C 0.75033 0.30197 0.36225 0.0
C1864 C 0.71168 0.36308 0.40891 0.0
C1865 C 0.72571 0.34324 0.45275 0.0
N1866 N 0.74458 0.31321 0.38373 0.0
N1867 N 0.72776 0.33085 0.43048 0.0
H1868 H 0.41024 0.0502 0.17724 0.0
H1869 H 0.53255 0.08794 0.10831 0.0
H1870 H 0.47788 0.09629 0.21197 0.0
H1871 H 0.47531 0.02506 0.08041 0.0
H1872 H 0.51038 0.09407 0.1444 0.0
H1873 H 0.43116 0.04383 0.13987 0.0
C1874 C 0.4294 0.05921 0.17696 0.0
C1875 C 0.44228 0.0739 0.19786 0.0
C1876 C 0.50261 0.07885 0.1305 0.0
C1877 C 0.46635 0.06658 0.15504 0.0
C1878 C 0.51528 0.07531 0.1098 0.0
C1879 C 0.50591 0.0558 0.09132 0.0
C1880 C 0.48003 0.06299 0.13285 0.0
C1881 C 0.48333 0.04018 0.09429 0.0
C1882 C 0.44137 0.05539 0.15565 0.0
C1883 C 0.46716 0.08486 0.19639 0.0
N1884 N 0.47109 0.04417 0.11462 0.0
N1885 N 0.47828 0.08105 0.17543 0.0
H1886 H 0.79555 0.73077 0.94691 0.0
H1887 H 0.82683 0.75767 0.8108 0.0
H1888 H 0.80086 0.67177 0.8906 0.0
H1889 H 0.78517 0.80243 0.85471 0.0
H1890 H 0.83432 0.73278 0.84607 0.0
H1891 H 0.80814 0.76268 0.91866 0.0
C1892 C 0.79967 0.72444 0.92873 0.0
C1893 C 0.79658 0.69844 0.92093 0.0
C1894 C 0.82425 0.7486 0.84814 0.0
C1895 C 0.81139 0.73509 0.88875 0.0
C1896 C 0.82012 0.76293 0.82814 0.0
C1897 C 0.80471 0.78156 0.82974 0.0
C1898 C 0.81347 0.7536 0.8699 0.0
C1899 C 0.7967 0.78783 0.85264 0.0
C1900 C 0.80696 0.74275 0.9127 0.0
C1901 C 0.80254 0.69156 0.89724 0.0
N1902 N 0.80084 0.77358 0.87179 0.0
N1903 N 0.80942 0.70982 0.88183 0.0
H1904 H 0.86591 0.13947 0.0432 0.0
H1905 H 0.95794 0.06007 0.9758 0.0
H1906 H 0.8649 0.12995 0.9642 0.0
H1907 H 0.93546 0.04534 0.04773 0.0
H1908 H 0.9306 0.09256 0.97314 0.0
H1909 H 0.89856 0.11254 0.04716 0.0
C1910 C 0.87309 0.13243 0.02672 0.0
C1911 C 0.86273 0.13724 1.00333 0.0
C1912 C 0.93177 0.08233 0.98958 0.0
C1913 C 0.89994 0.10603 1.00772 0.0
C1914 C 0.94749 0.06388 0.99115 0.0
C1915 C 0.94914 0.05005 0.01206 0.0
C1916 C 0.91779 0.08732 0.00923 0.0
C1917 C 0.93475 0.05548 0.03122 0.0
C1918 C 0.89149 0.11673 0.02898 0.0
C1919 C 0.8724 0.12692 0.98261 0.0
N1920 N 0.91984 0.07372 0.02942 0.0
N1921 N 0.89035 0.11188 0.98527 0.0
H1922 H 0.33859 0.4065 0.01891 0.0
H1923 H 0.46739 0.49394 0.07044 0.0
H1924 H 0.34637 0.46118 0.08175 0.0
H1925 H 0.44622 0.47136 0.99329 0.0
H1926 H 0.42796 0.46968 0.08015 0.0
H1927 H 0.38353 0.4175 0.01546 0.0
C1928 C 0.34994 0.42056 0.03214 0.0
C1929 C 0.33898 0.43392 0.0499 0.0
C1930 C 0.43221 0.4697 0.06117 0.0
C1931 C 0.38985 0.44579 0.04668 0.0
C1932 C 0.45454 0.48354 0.05562 0.0
C1933 C 0.45958 0.48495 0.03101 0.0
C1934 C 0.41526 0.45673 0.04201 0.0
C1935 C 0.4426 0.47109 0.01243 0.0
C1936 C 0.37542 0.42672 0.03024 0.0
C1937 C 0.35425 0.45132 0.06721 0.0
N1938 N 0.42109 0.45748 0.01832 0.0
N1939 N 0.379 0.45704 0.065 0.0
H1940 H 0.32137 0.61007 0.79668 0.0
H1941 H 0.26178 0.712 0.72264 0.0
H1942 H 0.33357 0.62061 0.7209 0.0
H1943 H 0.27425 0.71832 0.80198 0.0
H1944 H 0.28669 0.6777 0.72121 0.0
H1945 H 0.30346 0.64916 0.79891 0.0
C1946 C 0.32049 0.62083 0.78056 0.0
C1947 C 0.32883 0.61209 0.75852 0.0
C1948 C 0.28418 0.68671 0.73893 0.0
C1949 C 0.30789 0.65662 0.76082 0.0
C1950 C 0.26982 0.70613 0.73978 0.0
C1951 C 0.26612 0.718 0.76249 0.0
C1952 C 0.29439 0.67868 0.76099 0.0
C1953 C 0.27693 0.70977 0.78411 0.0
C1954 C 0.31031 0.64316 0.78187 0.0
C1955 C 0.32741 0.62679 0.73824 0.0
N1956 N 0.29043 0.69044 0.78286 0.0
N1957 N 0.31672 0.64818 0.73974 0.0
H1958 H 0.21399 0.67596 0.48796 0.0
H1959 H 0.12691 0.56429 0.54556 0.0
H1960 H 0.24237 0.61917 0.52982 0.0
H1961 H 0.09832 0.61256 0.49343 0.0
H1962 H 0.16932 0.58511 0.54104 0.0
H1963 H 0.17131 0.65427 0.49091 0.0
C1964 C 0.21115 0.6588 0.49761 0.0
C1965 C 0.23157 0.64879 0.50798 0.0
C1966 C 0.1538 0.59116 0.53055 0.0
C1967 C 0.18307 0.62432 0.51208 0.0
C1968 C 0.12959 0.5793 0.53317 0.0
C1969 C 0.10913 0.5868 0.51992 0.0
C1970 C 0.15757 0.61086 0.51473 0.0
C1971 C 0.11363 0.60626 0.50403 0.0
C1972 C 0.18687 0.64643 0.4993 0.0
C1973 C 0.22704 0.62697 0.52089 0.0
N1974 N 0.13736 0.61772 0.50196 0.0
N1975 N 0.2033 0.61543 0.52255 0.0
H1976 H 0.64715 0.93177 0.75507 0.0
H1977 H 0.7397 0.8403 0.8077 0.0
H1978 H 0.67265 0.93284 0.8322 0.0
H1979 H 0.73566 0.86124 0.73276 0.0
H1980 H 0.70875 0.86759 0.81648 0.0
H1981 H 0.67221 0.89847 0.7461 0.0
C1982 C 0.65736 0.92445 0.7702 0.0
C1983 C 0.6577 0.93507 0.79444 0.0
C1984 C 0.71455 0.86612 0.79808 0.0
C1985 C 0.68674 0.89728 0.78427 0.0
C1986 C 0.73218 0.85053 0.79306 0.0
C1987 C 0.74011 0.84833 0.76941 0.0
C1988 C 0.70462 0.87953 0.77927 0.0
C1989 C 0.72999 0.86229 0.75122 0.0
C1990 C 0.67195 0.90571 0.76503 0.0
C1991 C 0.67179 0.92519 0.81325 0.0
N1992 N 0.71271 0.87717 0.75647 0.0
N1993 N 0.68577 0.90697 0.80777 0.0
H1994 H 0.69083 0.92365 0.53416 0.0
H1995 H 0.6282 0.04786 0.5164 0.0
H1996 H 0.73239 0.99983 0.53795 0.0
H1997 H 0.58781 0.97139 0.50211 0.0
H1998 H 0.6669 0.03053 0.52367 0.0
H1999 H 0.65255 0.94074 0.52323 0.0
C2000 C 0.69187 0.94394 0.53289 0.0
C2001 C 0.71481 0.9603 0.53688 0.0
C2002 C 0.64961 0.01754 0.51867 0.0
C2003 C 0.67133 0.9799 0.52418 0.0
C2004 C 0.6276 0.02745 0.51437 0.0
C2005 C 0.60493 0.01098 0.50879 0.0
C2006 C 0.64875 0.99103 0.51756 0.0
C2007 C 0.605 0.98469 0.50647 0.0
C2008 C 0.67009 0.95366 0.52645 0.0
C2009 C 0.71514 0.98645 0.53485 0.0
N2010 N 0.62658 0.97548 0.51113 0.0
N2011 N 0.69374 0.99541 0.52864 0.0
H2012 H 0.31347 0.48019 0.71801 0.0
H2013 H 0.31056 0.36328 0.79908 0.0
H2014 H 0.37446 0.47285 0.77139 0.0
H2015 H 0.27392 0.35329 0.72495 0.0
H2016 H 0.33121 0.40532 0.79075 0.0
H2017 H 0.29631 0.43509 0.72065 0.0
C2018 C 0.3232 0.46899 0.73025 0.0
C2019 C 0.34481 0.48026 0.74524 0.0
C2020 C 0.31875 0.3939 0.77625 0.0
C2021 C 0.32552 0.42908 0.7483 0.0
C2022 C 0.30674 0.37 0.78106 0.0
C2023 C 0.29038 0.35481 0.76271 0.0
C2024 C 0.31398 0.40306 0.75309 0.0
C2025 C 0.2864 0.36441 0.7396 0.0
C2026 C 0.31357 0.4433 0.73158 0.0
C2027 C 0.35735 0.4649 0.76008 0.0
N2028 N 0.29789 0.38812 0.73551 0.0
N2029 N 0.34721 0.44021 0.7617 0.0
H2030 H 0.17475 0.5498 0.26603 0.0
H2031 H 0.19761 0.69852 0.3062 0.0
H2032 H 0.12364 0.58689 0.30515 0.0
H2033 H 0.23967 0.66511 0.2534 0.0
H2034 H 0.17255 0.65697 0.30865 0.0
H2035 H 0.20008 0.59124 0.26254 0.0
C2036 C 0.16896 0.5668 0.27392 0.0
C2037 C 0.14767 0.56512 0.2866 0.0
C2038 C 0.18723 0.65866 0.29651 0.0
C2039 C 0.17622 0.61239 0.28251 0.0
C2040 C 0.20165 0.68234 0.2952 0.0
C2041 C 0.22063 0.68519 0.27947 0.0
C2042 C 0.19181 0.63762 0.28198 0.0
C2043 C 0.22517 0.66364 0.26573 0.0
C2044 C 0.18331 0.59039 0.27183 0.0
C2045 C 0.1403 0.58753 0.29573 0.0
N2046 N 0.21077 0.64068 0.26726 0.0
N2047 N 0.1548 0.61032 0.29383 0.0
H2048 H 0.55686 0.75078 0.44453 0.0
H2049 H 0.48686 0.61138 0.46011 0.0
H2050 H 0.50714 0.70531 0.38681 0.0
H2051 H 0.5513 0.64687 0.50874 0.0
H2052 H 0.49232 0.64729 0.43468 0.0
H2053 H 0.55443 0.71408 0.46926 0.0
C2054 C 0.54568 0.73296 0.43693 0.0
C2055 C 0.53208 0.73108 0.41362 0.0
C2056 C 0.50529 0.64729 0.4509 0.0
C2057 C 0.52888 0.68923 0.44201 0.0
C2058 C 0.50208 0.6269 0.46555 0.0
C2059 C 0.51867 0.62624 0.48655 0.0
C2060 C 0.52515 0.66734 0.45737 0.0
C2061 C 0.53807 0.64677 0.49272 0.0
C2062 C 0.54428 0.71205 0.45108 0.0
C2063 C 0.51795 0.70756 0.40465 0.0
N2064 N 0.54078 0.66659 0.47817 0.0
N2065 N 0.51648 0.68761 0.419 0.0
H2066 H 0.55651 0.30921 0.7245 0.0
H2067 H 0.67952 0.25071 0.73799 0.0
H2068 H 0.57736 0.26116 0.66603 0.0
H2069 H 0.68325 0.32933 0.76419 0.0
H2070 H 0.63807 0.25088 0.71751 0.0
H2071 H 0.59953 0.31463 0.7445 0.0
C2072 C 0.57017 0.30008 0.71572 0.0
C2073 C 0.56334 0.28468 0.69356 0.0
C2074 C 0.64789 0.26807 0.72784 0.0
C2075 C 0.61206 0.29025 0.71662 0.0
C2076 C 0.67147 0.26795 0.73981 0.0
C2077 C 0.68485 0.29001 0.75307 0.0
C2078 C 0.63716 0.29021 0.72946 0.0
C2079 C 0.67353 0.3119 0.75425 0.0
C2080 C 0.59464 0.30322 0.72712 0.0
C2081 C 0.58177 0.27326 0.68302 0.0
N2082 N 0.65014 0.31141 0.74278 0.0
N2083 N 0.60513 0.27591 0.69485 0.0
H2084 H 0.02495 0.40212 0.88043 0.0
H2085 H 0.98938 0.43907 0.01496 0.0
H2086 H 0.02267 0.35061 0.93833 0.0
H2087 H 0.01788 0.4954 0.96708 0.0
H2088 H 0.99845 0.40568 0.9857 0.0
H2089 H 0.01982 0.43639 0.91071 0.0
C2090 C 0.02364 0.39803 0.89947 0.0
C2091 C 0.02425 0.37337 0.90673 0.0
C2092 C 1.00283 0.42538 0.9817 0.0
C2093 C 0.01791 0.41234 0.94132 0.0
C2094 C 0.99759 0.44437 0.99834 0.0
C2095 C 1.00291 0.46994 0.99341 0.0
C2096 C 0.01307 0.43207 0.95983 0.0
C2097 C 0.01355 0.47587 0.97161 0.0
C2098 C 0.02067 0.41759 0.91674 0.0
C2099 C 0.02234 0.36925 0.93174 0.0
N2100 N 0.01812 0.45707 0.95553 0.0
N2101 N 0.01902 0.38842 0.94801 0.0
H2102 H 0.94404 0.78283 0.21904 0.0
H2103 H 0.80238 0.7391 0.2443 0.0
H2104 H 0.89059 0.73369 0.16701 0.0
H2105 H 0.84768 0.8072 0.28 0.0
H2106 H 0.8362 0.73275 0.2192 0.0
H2107 H 0.91074 0.78769 0.24527 0.0
C2108 C 0.92537 0.7729 0.21319 0.0
C2109 C 0.92015 0.75787 0.1907 0.0
C2110 C 0.83871 0.74914 0.23245 0.0
C2111 C 0.88197 0.7633 0.22075 0.0
C2112 C 0.81931 0.7529 0.24659 0.0
C2113 C 0.82198 0.77407 0.26372 0.0
C2114 C 0.86117 0.76642 0.23586 0.0
C2115 C 0.84481 0.79071 0.26684 0.0
C2116 C 0.90636 0.7758 0.22813 0.0
C2117 C 0.89551 0.74558 0.18409 0.0
N2118 N 0.86353 0.78655 0.25304 0.0
N2119 N 0.87739 0.7485 0.19905 0.0
H2120 H 0.45496 0.35379 0.04367 0.0
H2121 H 0.5565 0.47567 0.03044 0.0
H2122 H 0.52592 0.36899 0.08836 0.0
H2123 H 0.49094 0.45002 0.97965 0.0
H2124 H 0.54591 0.43797 0.05334 0.0
H2125 H 0.4672 0.39155 0.02244 0.0
C2126 C 0.47308 0.36516 0.04916 0.0
C2127 C 0.48953 0.35804 0.06768 0.0
C2128 C 0.53399 0.44058 0.03707 0.0
C2129 C 0.50384 0.40126 0.04309 0.0
C2130 C 0.54003 0.46203 0.02411 0.0
C2131 C 0.52427 0.46617 1.00362 0.0
C2132 C 0.5121 0.42332 0.02925 0.0
C2133 C 0.50352 0.44765 0.9955 0.0
C2134 C 0.48013 0.38668 0.0369 0.0
C2135 C 0.51267 0.37374 0.07414 0.0
N2136 N 0.4979 0.42718 1.00851 0.0
N2137 N 0.51924 0.3946 0.06172 0.0
H2138 H 0.96679 0.24675 0.37322 0.0
H2139 H 0.85656 0.31744 0.33608 0.0
H2140 H 0.94665 0.3037 0.4236 0.0
H2141 H 0.85244 0.23822 0.3122 0.0
H2142 H 0.89091 0.31398 0.367 0.0
H2143 H 0.9262 0.24365 0.34924 0.0
C2144 C 0.95359 0.25841 0.37929 0.0
C2145 C 0.96001 0.276 0.39986 0.0
C2146 C 0.88256 0.2974 0.35493 0.0
C2147 C 0.91396 0.27265 0.37272 0.0
C2148 C 0.86321 0.29941 0.33717 0.0
C2149 C 0.85211 0.27815 0.32147 0.0
C2150 C 0.89148 0.27425 0.35625 0.0
C2151 C 0.86086 0.25506 0.32389 0.0
C2152 C 0.93046 0.2565 0.36577 0.0
C2153 C 0.94232 0.29029 0.4075 0.0
N2154 N 0.88046 0.25381 0.34072 0.0
N2155 N 0.92016 0.28878 0.39351 0.0
H2156 H 0.97838 0.73869 0.53427 0.0
H2157 H 0.95515 0.59019 0.55147 0.0
H2158 H 0.96817 0.70797 0.60449 0.0
H2159 H 1.00435 0.62454 0.50103 0.0
H2160 H 0.94519 0.63213 0.56332 0.0
H2161 H 0.9728 0.69536 0.51477 0.0
C2162 C 0.97428 0.72285 0.54548 0.0
C2163 C 0.9741 0.72684 0.5711 0.0
C2164 C 0.9577 0.6303 0.54925 0.0
C2165 C 0.96754 0.67752 0.54886 0.0
C2166 C 0.9633 0.60644 0.54235 0.0
C2167 C 0.98076 0.60401 0.52537 0.0
C2168 C 0.9693 0.65172 0.53876 0.0
C2169 C 0.99097 0.62569 0.51435 0.0
C2170 C 0.97123 0.6982 0.53433 0.0
C2171 C 0.96875 0.70565 0.58473 0.0
N2172 N 0.98519 0.64875 0.52135 0.0
N2173 N 0.96588 0.68181 0.57345 0.0
H2174 H 0.58593 0.74321 0.9004 0.0
H2175 H 0.6759 0.81563 0.81125 0.0
H2176 H 0.58969 0.82209 0.88597 0.0
H2177 H 0.67846 0.73802 0.82751 0.0
H2178 H 0.64554 0.81829 0.84074 0.0
H2179 H 0.62229 0.74113 0.87729 0.0
C2180 C 0.59487 0.76021 0.89295 0.0
C2181 C 0.58484 0.78278 0.89475 0.0
C2182 C 0.65267 0.80062 0.83796 0.0
C2183 C 0.62565 0.7805 0.86818 0.0
C2184 C 0.66986 0.79906 0.82096 0.0
C2185 C 0.67943 0.77652 0.8169 0.0
C2186 C 0.64486 0.77942 0.85095 0.0
C2187 C 0.67124 0.75566 0.83008 0.0
C2188 C 0.61538 0.75898 0.87959 0.0
C2189 C 0.59678 0.80426 0.88466 0.0
N2190 N 0.65427 0.75756 0.84655 0.0
N2191 N 0.61639 0.80251 0.87161 0.0
H2192 H 0.37512 0.53385 0.66037 0.0
H2193 H 0.48945 0.5936 0.59149 0.0
H2194 H 0.42933 0.59407 0.69917 0.0
H2195 H 0.46539 0.51276 0.59282 0.0
H2196 H 0.46158 0.60088 0.6236 0.0
H2197 H 0.40127 0.53357 0.62626 0.0
C2198 C 0.39221 0.54743 0.66147 0.0
C2199 C 0.40019 0.56383 0.68272 0.0
C2200 C 0.46267 0.58163 0.61677 0.0
C2201 C 0.43002 0.56367 0.64376 0.0
C2202 C 0.47858 0.57746 0.59862 0.0
C2203 C 0.4801 0.55253 0.58969 0.0
C2204 C 0.44766 0.56076 0.62519 0.0
C2205 C 0.46528 0.53231 0.59935 0.0
C2206 C 0.40717 0.54713 0.6421 0.0
C2207 C 0.42263 0.58096 0.68318 0.0
N2208 N 0.44955 0.53688 0.61628 0.0
N2209 N 0.43689 0.58039 0.664 0.0
H2210 H 0.75402 0.19622 0.93904 0.0
H2211 H 0.81342 0.29246 0.84532 0.0
H2212 H 0.83331 0.21681 0.93803 0.0
H2213 H 0.73668 0.25597 0.8362 0.0
H2214 H 0.821 0.26789 0.88091 0.0
H2215 H 0.7473 0.22094 0.90363 0.0
C2216 C 0.77007 0.20582 0.93122 0.0
C2217 C 0.79426 0.20398 0.94124 0.0
C2218 C 0.80253 0.26514 0.8711 0.0
C2219 C 0.78669 0.23307 0.90072 0.0
C2220 C 0.79814 0.27922 0.85079 0.0
C2221 C 0.77438 0.27615 0.83758 0.0
C2222 C 0.78292 0.24806 0.87869 0.0
C2223 C 0.75536 0.25868 0.84553 0.0
C2224 C 0.7662 0.22009 0.91102 0.0
C2225 C 0.81434 0.21768 0.93088 0.0
N2226 N 0.75999 0.24544 0.86558 0.0
N2227 N 0.81012 0.23161 0.91118 0.0
H2228 H 0.04727 0.47756 0.22505 0.0
H2229 H 0.0727 0.50514 0.08588 0.0
H2230 H 0.12045 0.49138 0.19999 0.0
H2231 H 1.00041 0.50242 0.11256 0.0
H2232 H 0.08947 0.49481 0.12628 0.0
H2233 H 0.02894 0.48101 0.18291 0.0
C2234 C 0.05949 0.48088 0.21065 0.0
C2235 C 0.08549 0.4842 0.21619 0.0
C2236 C 0.0699 0.49632 0.1233 0.0
C2237 C 0.06458 0.48844 0.16781 0.0
C2238 C 0.06023 0.50219 0.10012 0.0
C2239 C 0.03503 0.50484 0.09564 0.0
C2240 C 0.05434 0.49295 0.14237 0.0
C2241 C 0.01995 0.50069 0.11504 0.0
C2242 C 0.049 0.48303 0.18659 0.0
C2243 C 0.10033 0.4887 0.1967 0.0
N2244 N 0.02983 0.49508 0.1375 0.0
N2245 N 0.08971 0.49079 0.17352 0.0
H2246 H 0.78446 0.86554 0.49658 0.0
H2247 H 0.73816 0.85251 0.35376 0.0
H2248 H 0.76727 0.92966 0.45793 0.0
H2249 H 0.78223 0.80123 0.38765 0.0
H2250 H 0.74357 0.87889 0.39281 0.0
H2251 H 0.77934 0.83982 0.45751 0.0
C2252 C 0.77964 0.87422 0.4798 0.0
C2253 C 0.77612 0.89971 0.48041 0.0
C2254 C 0.752 0.86184 0.39167 0.0
C2255 C 0.77007 0.87028 0.43571 0.0
C2256 C 0.74875 0.84669 0.36954 0.0
C2257 C 0.75979 0.82473 0.36767 0.0
C2258 C 0.76609 0.85471 0.41202 0.0
C2259 C 0.77343 0.81804 0.38846 0.0
C2260 C 0.77681 0.85953 0.45753 0.0
C2261 C 0.77019 0.91008 0.45815 0.0
N2262 N 0.77617 0.83298 0.40988 0.0
N2263 N 0.76708 0.8952 0.4366 0.0
H2264 H 0.36173 0.55047 0.84567 0.0
H2265 H 0.50129 0.55274 0.90312 0.0
H2266 H 0.42461 0.5608 0.80266 0.0
H2267 H 0.44148 0.56275 0.94731 0.0
H2268 H 0.47367 0.55615 0.86598 0.0
H2269 H 0.3906 0.55498 0.88315 0.0
C2270 C 0.38158 0.55383 0.84408 0.0
C2271 C 0.39071 0.55513 0.82091 0.0
C2272 C 0.46668 0.55791 0.88382 0.0
C2273 C 0.42386 0.56016 0.86378 0.0
C2274 C 0.48243 0.55599 0.90498 0.0
C2275 C 0.47355 0.55735 0.9282 0.0
C2276 C 0.4418 0.56084 0.88596 0.0
C2277 C 0.449 0.56155 0.92969 0.0
C2278 C 0.39806 0.55649 0.86551 0.0
C2279 C 0.41666 0.55963 0.82007 0.0
N2280 N 0.43386 0.56285 0.90882 0.0
N2281 N 0.4323 0.56174 0.84116 0.0
H2282 H 0.78007 0.17642 0.09329 0.0
H2283 H 0.82383 0.27835 0.2066 0.0
H2284 H 0.83489 0.2413 0.08305 0.0
H2285 H 0.7462 0.24901 0.18521 0.0
H2286 H 0.83396 0.25964 0.1669 0.0
H2287 H 0.77359 0.19664 0.13311 0.0
C2288 C 0.79112 0.19473 0.09956 0.0
C2289 C 0.80811 0.20711 0.08464 0.0
C2290 C 0.81474 0.25752 0.17096 0.0
C2291 C 0.80081 0.23033 0.13068 0.0
C2292 C 0.80893 0.26814 0.19358 0.0
C2293 C 0.78406 0.26555 0.19922 0.0
C2294 C 0.79566 0.2434 0.15428 0.0
C2295 C 0.76557 0.25189 0.18163 0.0
C2296 C 0.78723 0.20634 0.12227 0.0
C2297 C 0.82162 0.23103 0.09387 0.0
N2298 N 0.77176 0.24109 0.16025 0.0
N2299 N 0.8178 0.24181 0.11635 0.0
H2300 H 0.12474 0.52907 0.3855 0.0
H2301 H 1.0004 0.48212 0.44526 0.0
H2302 H 0.06117 0.48441 0.3417 0.0
H2303 H 0.04705 0.55366 0.46956 0.0
H2304 H 0.02464 0.47824 0.40997 0.0
H2305 H 0.09913 0.53356 0.41925 0.0
C2306 C 0.1054 0.5201 0.38288 0.0
C2307 C 0.09518 0.5064 0.36042 0.0
C2308 C 0.02953 0.49482 0.423 0.0
C2309 C 0.0657 0.51128 0.39965 0.0
C2310 C 0.01576 0.49707 0.4432 0.0
C2311 C 0.02179 0.51826 0.46056 0.0
C2312 C 0.04989 0.51364 0.42031 0.0
C2313 C 0.04189 0.53696 0.45687 0.0
C2314 C 0.09076 0.52281 0.40226 0.0
C2315 C 0.06992 0.49521 0.35852 0.0
N2316 N 0.05538 0.5341 0.43733 0.0
N2317 N 0.05611 0.49772 0.37792 0.0
H2318 H 0.71857 0.84176 0.57724 0.0
H2319 H 0.73501 0.76717 0.67261 0.0
H2320 H 0.74538 0.89938 0.6368 0.0
H2321 H 0.70337 0.82106 0.71691 0.0
H2322 H 0.72835 0.79147 0.63693 0.0
H2323 H 0.70364 0.81246 0.60711 0.0
C2324 C 0.72103 0.84842 0.59658 0.0
C2325 C 0.73385 0.8729 0.60463 0.0
C2326 C 0.7219 0.79747 0.6542 0.0
C2327 C 0.71664 0.83938 0.63874 0.0
C2328 C 0.72557 0.78348 0.67449 0.0
C2329 C 0.71978 0.79224 0.69762 0.0
C2330 C 0.71317 0.82073 0.65737 0.0
C2331 C 0.70807 0.81378 0.6993 0.0
C2332 C 0.71247 0.83163 0.61355 0.0
C2333 C 0.73601 0.88055 0.62987 0.0
N2334 N 0.70604 0.82795 0.67963 0.0
N2335 N 0.72774 0.86368 0.64614 0.0
H2336 H 0.6558 0.42342 0.5609 0.0
H2337 H 0.58556 0.52689 0.49699 0.0
H2338 H 0.66131 0.44394 0.48634 0.0
H2339 H 0.56064 0.4952 0.5627 0.0
H2340 H 0.61444 0.49677 0.4948 0.0
H2341 H 0.62126 0.44824 0.56358 0.0
C2342 C 0.64942 0.43255 0.54493 0.0
C2343 C 0.66167 0.43159 0.52338 0.0
C2344 C 0.60263 0.4961 0.5097 0.0
C2345 C 0.62262 0.46048 0.52652 0.0
C2346 C 0.58609 0.51349 0.51103 0.0
C2347 C 0.57024 0.51344 0.52984 0.0
C2348 C 0.60406 0.47853 0.52767 0.0
C2349 C 0.57203 0.49554 0.54751 0.0
C2350 C 0.62984 0.44691 0.54655 0.0
C2351 C 0.65273 0.44421 0.50344 0.0
N2352 N 0.58875 0.47891 0.54612 0.0
N2353 N 0.63413 0.45816 0.50559 0.0
H2354 H 0.18499 0.16729 0.46189 0.0
H2355 H 0.06422 0.10602 0.4789 0.0
H2356 H 0.20844 0.10468 0.49853 0.0
H2357 H 0.10197 0.04571 0.50397 0.0
H2358 H 0.10401 0.12894 0.46901 0.0
H2359 H 0.14149 0.14625 0.46045 0.0
C2360 C 0.18084 0.149 0.46941 0.0
C2361 C 0.20007 0.13725 0.47976 0.0
C2362 C 0.10364 0.11055 0.47624 0.0
C2363 C 0.15082 0.11348 0.47904 0.0
C2364 C 0.08086 0.09745 0.48189 0.0
C2365 C 0.07998 0.07416 0.49255 0.0
C2366 C 0.12546 0.09999 0.4812 0.0
C2367 C 0.10191 0.06384 0.49617 0.0
C2368 C 0.15606 0.137 0.46871 0.0
C2369 C 0.19408 0.11393 0.48974 0.0
N2370 N 0.1237 0.07689 0.49064 0.0
N2371 N 0.17004 0.10283 0.48907 0.0
H2372 H 0.20884 0.95028 0.84212 0.0
H2373 H 0.24157 0.84613 0.7433 0.0
H2374 H 0.17411 0.93958 0.76722 0.0
H2375 H 0.27304 0.85865 0.81918 0.0
H2376 H 0.21485 0.87833 0.75128 0.0
H2377 H 0.23005 0.91431 0.83402 0.0
C2378 C 0.20547 0.9402 0.82398 0.0
C2379 C 0.18975 0.94812 0.8053 0.0
C2380 C 0.22754 0.87388 0.76616 0.0
C2381 C 0.2145 0.90687 0.79566 0.0
C2382 C 0.24267 0.85545 0.76162 0.0
C2383 C 0.25937 0.84957 0.78061 0.0
C2384 C 0.22929 0.88645 0.78985 0.0
C2385 C 0.26057 0.86266 0.8039 0.0
C2386 C 0.21768 0.91963 0.81932 0.0
C2387 C 0.18602 0.93411 0.7822 0.0
N2388 N 0.24576 0.88036 0.80783 0.0
N2389 N 0.19853 0.91432 0.77793 0.0
H2390 H 0.30586 0.89106 0.00982 0.0
H2391 H 0.39867 0.02181 0.03267 0.0
H2392 H 0.28687 0.95499 0.05186 0.0
H2393 H 0.42572 0.95015 0.03038 0.0
H2394 H 0.35633 0.99891 0.0348 0.0
H2395 H 0.34906 0.91331 0.01181 0.0
C2396 C 0.31082 0.90985 0.01934 0.0
C2397 C 0.2927 0.92178 0.02975 0.0
C2398 C 0.37152 0.98823 0.03367 0.0
C2399 C 0.34178 0.9471 0.03234 0.0
C2400 C 0.39562 1.00126 0.03249 0.0
C2401 C 0.41558 0.98778 0.03137 0.0
C2402 C 0.36731 0.96154 0.03273 0.0
C2403 C 0.41076 0.96119 0.03133 0.0
C2404 C 0.33539 0.92247 0.02054 0.0
C2405 C 0.30013 0.94575 0.04258 0.0
N2406 N 0.38704 0.94888 0.03162 0.0
N2407 N 0.32404 0.95785 0.04319 0.0
H2408 H 0.87533 0.64954 0.8063 0.0
H2409 H 0.79296 0.73286 0.72617 0.0
H2410 H 0.86437 0.63697 0.72717 0.0
H2411 H 0.78496 0.71649 0.80152 0.0
H2412 H 0.8261 0.70609 0.72555 0.0
H2413 H 0.85102 0.68414 0.80421 0.0
C2414 C 0.86853 0.65473 0.78837 0.0
C2415 C 0.87213 0.64057 0.76688 0.0
C2416 C 0.81715 0.70863 0.74221 0.0
C2417 C 0.84322 0.67962 0.76433 0.0
C2418 C 0.79835 0.72394 0.74261 0.0
C2419 C 0.7863 0.72709 0.76399 0.0
C2420 C 0.82413 0.69685 0.7635 0.0
C2421 C 0.79367 0.71467 0.78462 0.0
C2422 C 0.85433 0.67425 0.78719 0.0
C2423 C 0.8624 0.64776 0.74414 0.0
N2424 N 0.8121 0.70035 0.7839 0.0
N2425 N 0.84806 0.6666 0.74344 0.0
H2426 H 0.82097 0.58817 0.96332 0.0
H2427 H 0.93371 0.58823 0.06496 0.0
H2428 H 0.8415 0.64874 0.0214 0.0
H2429 H 0.89643 0.52116 0.02039 0.0
H2430 H 0.9001 0.61095 0.05078 0.0
H2431 H 0.85017 0.56445 0.98368 0.0
C2432 C 0.83179 0.59667 0.98024 0.0
C2433 C 0.82867 0.62057 0.99064 0.0
C2434 C 0.89905 0.59113 0.0445 0.0
C2435 C 0.86208 0.59311 0.01429 0.0
C2436 C 0.91807 0.57811 0.05273 0.0
C2437 C 0.91787 0.55292 0.04355 0.0
C2438 C 0.88005 0.57888 0.02676 0.0
C2439 C 0.8973 0.54062 0.02778 0.0
C2440 C 0.84828 0.58291 0.99202 0.0
C2441 C 0.8433 0.63043 0.01266 0.0
N2442 N 0.87941 0.55389 0.01949 0.0
N2443 N 0.85944 0.61665 0.02376 0.0
H2444 H 0.14916 0.09527 0.82483 0.0
H2445 H 0.25328 0.18667 0.76603 0.0
H2446 H 0.20713 0.06814 0.78736 0.0
H2447 H 0.21505 0.21405 0.82544 0.0
H2448 H 0.23474 0.14319 0.77213 0.0
H2449 H 0.17091 0.13921 0.82384 0.0
C2450 C 0.16659 0.09864 0.81665 0.0
C2451 C 0.1768 0.07822 0.80674 0.0
C2452 C 0.23054 0.15865 0.784 0.0
C2453 C 0.20124 0.12803 0.80482 0.0
C2454 C 0.24107 0.1835 0.78048 0.0
C2455 C 0.23568 0.204 0.79525 0.0
C2456 C 0.21403 0.1542 0.80208 0.0
C2457 C 0.2198 0.19875 0.81375 0.0
C2458 C 0.179 0.12359 0.81613 0.0
C2459 C 0.19906 0.08342 0.79577 0.0
N2460 N 0.20926 0.17435 0.81647 0.0
N2461 N 0.21049 0.10779 0.79502 0.0
H2462 H 0.40397 0.99481 0.28972 0.0
H2463 H 0.27003 0.90974 0.26475 0.0
H2464 H 0.34566 0.01834 0.24249 0.0
H2465 H 0.3375 0.87721 0.27294 0.0
H2466 H 0.29553 0.95179 0.26242 0.0
H2467 H 0.37805 0.9529 0.29005 0.0
C2468 C 0.38564 0.9911 0.27954 0.0
C2469 C 0.37638 0.01015 0.2669 0.0
C2470 C 0.30464 0.93542 0.26499 0.0
C2471 C 0.34689 0.96264 0.267 0.0
C2472 C 0.29016 0.91157 0.26632 0.0
C2473 C 0.3018 0.8902 0.269 0.0
C2474 C 0.33078 0.93779 0.26736 0.0
C2475 C 0.32788 0.89332 0.27075 0.0
C2476 C 0.37091 0.9673 0.2797 0.0
C2477 C 0.35287 0.00435 0.25335 0.0
N2478 N 0.34153 0.91672 0.2702 0.0
N2479 N 0.33869 0.98115 0.25401 0.0
H2480 H 0.4426 0.3105 0.59754 0.0
H2481 H 0.52801 0.4437 0.58339 0.0
H2482 H 0.51007 0.33949 0.64495 0.0
H2483 H 0.45998 0.41519 0.53689 0.0
H2484 H 0.52172 0.40573 0.60618 0.0
H2485 H 0.44801 0.34921 0.57606 0.0
C2486 C 0.45846 0.32511 0.60365 0.0
C2487 C 0.47598 0.3216 0.62309 0.0
C2488 C 0.50818 0.40768 0.59097 0.0
C2489 C 0.48241 0.36604 0.5982 0.0
C2490 C 0.51182 0.42929 0.57787 0.0
C2491 C 0.49448 0.4325 0.55823 0.0
C2492 C 0.487 0.38912 0.58442 0.0
C2493 C 0.47383 0.41335 0.55187 0.0
C2494 C 0.46156 0.34722 0.59125 0.0
C2495 C 0.49605 0.34133 0.63014 0.0
N2496 N 0.47062 0.39247 0.56498 0.0
N2497 N 0.49881 0.36262 0.61758 0.0
H2498 H 0.46339 0.76265 0.3232 0.0
H2499 H 0.3399 0.82114 0.31069 0.0
H2500 H 0.44431 0.81292 0.3807 0.0
H2501 H 0.33718 0.74272 0.28431 0.0
H2502 H 0.38156 0.82165 0.33085 0.0
H2503 H 0.4202 0.75749 0.30358 0.0
C2504 C 0.45008 0.77268 0.33156 0.0
C2505 C 0.45742 0.78894 0.35306 0.0
C2506 C 0.3719 0.80433 0.32062 0.0
C2507 C 0.40844 0.78298 0.33105 0.0
C2508 C 0.34817 0.80403 0.30889 0.0
C2509 C 0.33504 0.78185 0.2956 0.0
C2510 C 0.38304 0.78249 0.31873 0.0
C2511 C 0.34667 0.76019 0.29434 0.0
C2512 C 0.42551 0.76951 0.32055 0.0
C2513 C 0.43943 0.80075 0.36378 0.0
N2514 N 0.37023 0.76111 0.30556 0.0
N2515 N 0.41588 0.79797 0.35239 0.0
H2516 H 0.97669 0.67094 0.1601 0.0
H2517 H 0.0335 0.62671 0.03693 0.0
H2518 H 0.01351 0.72188 0.11187 0.0
H2519 H 1.00202 0.5737 0.08645 0.0
H2520 H 0.02493 0.66177 0.0641 0.0
H2521 H 0.98517 0.63459 0.13378 0.0
C2522 C 0.98662 0.67437 0.14406 0.0
C2523 C 0.99386 0.6992 0.13763 0.0
C2524 C 0.01988 0.64248 0.06909 0.0
C2525 C 1.00386 0.65829 0.10787 0.0
C2526 C 0.02475 0.6225 0.05353 0.0
C2527 C 0.01839 0.59737 0.05945 0.0
C2528 C 0.00873 0.63729 0.09083 0.0
C2529 C 0.00702 0.59288 0.08115 0.0
C2530 C 0.99143 0.65376 0.12905 0.0
C2531 C 0.00706 0.7029 0.117 0.0
N2532 N 1.00257 0.61266 0.09611 0.0
N2533 N 0.01149 0.6827 0.10279 0.0
H2534 H 0.09731 0.34769 0.83326 0.0
H2535 H 0.17707 0.25026 0.78357 0.0
H2536 H 0.0915 0.27289 0.8599 0.0
H2537 H 0.21176 0.32837 0.80069 0.0
H2538 H 0.14257 0.25828 0.80712 0.0
H2539 H 0.13685 0.34178 0.81726 0.0
C2540 C 0.10452 0.33019 0.83605 0.0
C2541 C 0.09111 0.31077 0.84799 0.0
C2542 C 0.15782 0.27361 0.80588 0.0
C2543 C 0.1358 0.30369 0.82913 0.0
C2544 C 0.17739 0.2691 0.79235 0.0
C2545 C 0.19716 0.28873 0.79017 0.0
C2546 C 0.15761 0.29812 0.81667 0.0
C2547 C 0.1968 0.31277 0.802 0.0
C2548 C 0.12706 0.32689 0.82697 0.0
C2549 C 0.10129 0.28844 0.851 0.0
N2550 N 0.17707 0.31695 0.81444 0.0
N2551 N 0.12276 0.28531 0.84121 0.0
H2552 H 0.49832 0.6836 0.93603 0.0
H2553 H 0.55909 0.61309 0.04378 0.0
H2554 H 0.55272 0.72318 0.99347 0.0
H2555 H 0.48573 0.58526 1.00712 0.0
H2556 H 0.56005 0.65201 0.02246 0.0
H2557 H 0.49717 0.64485 0.95791 0.0
C2558 C 0.51021 0.68404 0.95309 0.0
C2559 C 0.52562 0.70654 0.96304 0.0
C2560 C 0.54372 0.63739 0.0191 0.0
C2561 C 0.52429 0.66261 0.98803 0.0
C2562 C 0.5431 0.61528 0.03133 0.0
C2563 C 0.52248 0.59581 0.02662 0.0
C2564 C 0.52366 0.63988 1.002 0.0
C2565 C 0.50229 0.59951 0.01038 0.0
C2566 C 0.50936 0.66205 0.96564 0.0
C2567 C 0.54052 0.7062 0.98526 0.0
N2568 N 0.50344 0.62108 0.99837 0.0
N2569 N 0.53954 0.68452 0.99701 0.0
H2570 H 0.09183 0.80486 0.60833 0.0
H2571 H 0.14787 0.76151 0.73627 0.0
H2572 H 0.04693 0.76738 0.66034 0.0
H2573 H 0.18876 0.81537 0.69319 0.0
H2574 H 0.11182 0.75746 0.70537 0.0
H2575 H 0.12949 0.80108 0.63519 0.0
C2576 C 0.09006 0.79556 0.62527 0.0
C2577 C 0.06662 0.78734 0.6329 0.0
C2578 C 0.12871 0.77013 0.70269 0.0
C2579 C 0.10891 0.78263 0.66319 0.0
C2580 C 0.14912 0.77262 0.7204 0.0
C2581 C 0.1711 0.78889 0.71722 0.0
C2582 C 0.13051 0.78384 0.68166 0.0
C2583 C 0.172 0.80274 0.69631 0.0
C2584 C 0.11139 0.79344 0.64056 0.0
C2585 C 0.06491 0.77475 0.65449 0.0
N2586 N 0.15195 0.79985 0.67922 0.0
N2587 N 0.08584 0.77304 0.66913 0.0
H2588 H 0.05309 0.37951 0.42062 0.0
H2589 H 0.07108 0.48568 0.50229 0.0
H2590 H 0.03085 0.33676 0.48161 0.0
H2591 H 0.00912 0.44376 0.53402 0.0
H2592 H 0.07853 0.44607 0.4818 0.0
H2593 H 0.05859 0.41866 0.4476 0.0
C2594 C 0.04978 0.37833 0.43979 0.0
C2595 C 0.04149 0.35486 0.44887 0.0
C2596 C 0.06345 0.44556 0.49341 0.0
C2597 C 0.04787 0.39953 0.47989 0.0
C2598 C 0.05933 0.46811 0.50541 0.0
C2599 C 0.03907 0.46815 0.51953 0.0
C2600 C 0.04726 0.42289 0.49562 0.0
C2601 C 0.02468 0.4447 0.523 0.0
C2602 C 0.05318 0.40066 0.45526 0.0
C2603 C 0.0374 0.35445 0.47388 0.0
N2604 N 0.0289 0.42299 0.51088 0.0
N2605 N 0.04016 0.37653 0.48842 0.0
H2606 H 0.39804 0.2705 0.12823 0.0
H2607 H 0.35712 0.35959 0.22986 0.0
H2608 H 0.44781 0.34082 0.15061 0.0
H2609 H 0.36324 0.28161 0.24203 0.0
H2610 H 0.38265 0.35698 0.19506 0.0
H2611 H 0.37443 0.27818 0.16338 0.0
C2612 C 0.4036 0.28779 0.14019 0.0
C2613 C 0.42485 0.30501 0.13679 0.0
C2614 C 0.37857 0.34069 0.20572 0.0
C2615 C 0.39812 0.3139 0.17641 0.0
C2616 C 0.36431 0.3422 0.22557 0.0
C2617 C 0.35814 0.32078 0.23871 0.0
C2618 C 0.38581 0.31742 0.19878 0.0
C2619 C 0.36761 0.29857 0.23236 0.0
C2620 C 0.39034 0.29203 0.16025 0.0
C2621 C 0.43152 0.32709 0.15289 0.0
N2622 N 0.38055 0.29727 0.21246 0.0
N2623 N 0.41812 0.33101 0.17211 0.0
H2624 H 0.64359 0.49634 0.39737 0.0
H2625 H 0.5178 0.5334 0.43432 0.0
H2626 H 0.58735 0.51237 0.34249 0.0
H2627 H 0.5521 0.47833 0.47377 0.0
H2628 H 0.5445 0.52837 0.40135 0.0
H2629 H 0.61239 0.49243 0.42723 0.0
C2630 C 0.6247 0.49888 0.39155 0.0
C2631 C 0.61812 0.50473 0.36737 0.0
C2632 C 0.54592 0.51709 0.41704 0.0
C2633 C 0.58257 0.50061 0.40145 0.0
C2634 C 0.53065 0.5199 0.43583 0.0
C2635 C 0.53278 0.50631 0.45684 0.0
C2636 C 0.56399 0.50115 0.41959 0.0
C2637 C 0.54982 0.48913 0.45785 0.0
C2638 C 0.60691 0.49649 0.40854 0.0
C2639 C 0.5933 0.50775 0.36086 0.0
N2640 N 0.5652 0.48743 0.43974 0.0
N2641 N 0.57657 0.50603 0.37786 0.0
H2642 H 0.20403 0.82381 0.08223 0.0
H2643 H 0.27374 0.83181 0.21969 0.0
H2644 H 0.24664 0.89338 0.11803 0.0
H2645 H 0.22456 0.76578 0.18476 0.0
H2646 H 0.26472 0.85501 0.18324 0.0
H2647 H 0.21151 0.80268 0.11998 0.0
C2648 C 0.21475 0.83477 0.0981 0.0
C2649 C 0.22459 0.86053 0.09679 0.0
C2650 C 0.2559 0.83544 0.18359 0.0
C2651 C 0.23369 0.83613 0.14042 0.0
C2652 C 0.2611 0.82218 0.20446 0.0
C2653 C 0.25001 0.79673 0.20544 0.0
C2654 C 0.23953 0.82314 0.16342 0.0
C2655 C 0.2337 0.78531 0.18494 0.0
C2656 C 0.21913 0.82263 0.11973 0.0
C2657 C 0.23852 0.87356 0.1181 0.0
N2658 N 0.22906 0.79847 0.16494 0.0
N2659 N 0.24276 0.86124 0.13889 0.0
H2660 H 0.96146 0.57345 0.82678 0.0
H2661 H 0.95127 0.57016 0.97246 0.0
H2662 H 0.89706 0.58711 0.86268 0.0
H2663 H 0.01628 0.55454 0.9387 0.0
H2664 H 0.93299 0.58 0.93254 0.0
H2665 H 0.98365 0.57032 0.86745 0.0
C2666 C 0.9521 0.57624 0.84315 0.0
C2667 C 0.92723 0.58047 0.84111 0.0
C2668 C 0.95133 0.57458 0.9338 0.0
C2669 C 0.95249 0.57661 0.88782 0.0
C2670 C 0.96185 0.56895 0.95671 0.0
C2671 C 0.98541 0.56136 0.95912 0.0
C2672 C 0.96428 0.57256 0.91283 0.0
C2673 C 0.9981 0.56029 0.93785 0.0
C2674 C 0.96474 0.57427 0.86639 0.0
C2675 C 0.91611 0.58366 0.86311 0.0
N2676 N 0.98734 0.56563 0.91563 0.0
N2677 N 0.92869 0.58153 0.88534 0.0
H2678 H 0.24272 0.15311 0.57634 0.0
H2679 H 0.29802 0.26478 0.68001 0.0
H2680 H 0.30451 0.2117 0.56717 0.0
H2681 H 0.22367 0.22211 0.67635 0.0
H2682 H 0.30443 0.24121 0.64183 0.0
H2683 H 0.24008 0.17308 0.61739 0.0
C2684 C 0.25603 0.16987 0.58318 0.0
C2685 C 0.27367 0.181 0.56837 0.0
C2686 C 0.28669 0.23712 0.64936 0.0
C2687 C 0.2706 0.20393 0.61485 0.0
C2688 C 0.28298 0.25063 0.67097 0.0
C2689 C 0.26021 0.24545 0.68101 0.0
C2690 C 0.26757 0.21818 0.63802 0.0
C2691 C 0.2414 0.22676 0.66894 0.0
C2692 C 0.25436 0.18137 0.60644 0.0
C2693 C 0.29045 0.20273 0.57798 0.0
N2694 N 0.24553 0.21368 0.64804 0.0
N2695 N 0.28841 0.21363 0.60063 0.0
H2696 H 0.58408 0.48183 0.23479 0.0
H2697 H 0.60617 0.50663 0.09505 0.0
H2698 H 0.656 0.51213 0.21266 0.0
H2699 H 0.53453 0.50002 0.12353 0.0
H2700 H 0.62522 0.49979 0.13606 0.0
H2701 H 0.56635 0.47922 0.19193 0.0
C2702 C 0.59622 0.48768 0.22087 0.0
C2703 C 0.62151 0.4975 0.22734 0.0
C2704 C 0.6053 0.4996 0.13322 0.0
C2705 C 0.60127 0.49459 0.17822 0.0
C2706 C 0.59445 0.5034 0.10987 0.0
C2707 C 0.56883 0.50408 0.1061 0.0
C2708 C 0.59031 0.49618 0.1527 0.0
C2709 C 0.5544 0.49982 0.1258 0.0
C2710 C 0.58605 0.48625 0.19641 0.0
C2711 C 0.63636 0.50465 0.20849 0.0
N2712 N 0.56536 0.49613 0.14829 0.0
N2713 N 0.62597 0.50321 0.18475 0.0
H2714 H 0.20629 0.89683 0.93085 0.0
H2715 H 0.20745 0.82233 0.82227 0.0
H2716 H 0.23371 0.83678 0.96862 0.0
H2717 H 0.26634 0.79187 0.86242 0.0
H2718 H 0.19744 0.84172 0.861 0.0
H2719 H 0.2091 0.87392 0.8915 0.0
C2720 C 0.21239 0.87848 0.93089 0.0
C2721 C 0.21949 0.86868 0.95327 0.0
C2722 C 0.21267 0.83095 0.86144 0.0
C2723 C 0.22286 0.84195 0.90766 0.0
C2724 C 0.21823 0.81953 0.83923 0.0
C2725 C 0.2379 0.80542 0.83884 0.0
C2726 C 0.22685 0.82841 0.88373 0.0
C2727 C 0.2511 0.80264 0.86164 0.0
C2728 C 0.21389 0.86525 0.90826 0.0
C2729 C 0.22761 0.84491 0.95194 0.0
N2730 N 0.24537 0.814 0.88305 0.0
N2731 N 0.22942 0.83257 0.92958 0.0
H2732 H 0.90796 0.54529 0.67944 0.0
H2733 H 0.02066 0.59418 0.60234 0.0
H2734 H 0.97182 0.5995 0.71066 0.0
H2735 H 0.97786 0.51906 0.58643 0.0
H2736 H 0.99901 0.59973 0.63894 0.0
H2737 H 0.92901 0.53897 0.64218 0.0
C2738 C 0.92629 0.5561 0.67839 0.0
C2739 C 0.93807 0.57308 0.69827 0.0
C2740 C 0.99426 0.58202 0.62745 0.0
C2741 C 0.96223 0.56592 0.65549 0.0
C2742 C 0.00661 0.57879 0.60645 0.0
C2743 C 1.00099 0.55612 0.591 0.0
C2744 C 0.97569 0.56264 0.63311 0.0
C2745 C 0.98253 0.53697 0.59746 0.0
C2746 C 0.93835 0.55229 0.65716 0.0
C2747 C 0.96197 0.58628 0.69585 0.0
N2748 N 0.97041 0.54072 0.61791 0.0
N2749 N 0.97314 0.58256 0.67486 0.0
H2750 H 0.29664 0.17246 0.40429 0.0
H2751 H 0.25252 0.29165 0.35972 0.0
H2752 H 0.2724 0.22419 0.45756 0.0
H2753 H 0.3215 0.27281 0.33689 0.0
H2754 H 0.25736 0.26642 0.39526 0.0
H2755 H 0.30378 0.20737 0.37724 0.0
C2756 C 0.29311 0.19115 0.41037 0.0
C2757 C 0.28388 0.19546 0.43308 0.0
C2758 C 0.27174 0.26846 0.38278 0.0
C2759 C 0.29158 0.23493 0.40241 0.0
C2760 C 0.26903 0.28287 0.36264 0.0
C2761 C 0.28657 0.28416 0.34541 0.0
C2762 C 0.29162 0.25471 0.38502 0.0
C2763 C 0.30758 0.27231 0.34983 0.0
C2764 C 0.29735 0.21102 0.3951 0.0
C2765 C 0.27962 0.22007 0.44019 0.0
N2766 N 0.30918 0.25739 0.36888 0.0
N2767 N 0.28303 0.23879 0.42468 0.0
H2768 H 0.36054 0.62742 0.46419 0.0
H2769 H 0.4336 0.54359 0.55094 0.0
H2770 H 0.36231 0.63642 0.54324 0.0
H2771 H 0.45435 0.55881 0.47852 0.0
H2772 H 0.40589 0.5756 0.54811 0.0
H2773 H 0.3937 0.6014 0.46851 0.0
C2774 C 0.36834 0.62443 0.48252 0.0
C2775 C 0.35882 0.63456 0.50339 0.0
C2776 C 0.41664 0.57212 0.5329 0.0
C2777 C 0.39628 0.60363 0.50848 0.0
C2778 C 0.43239 0.55372 0.53444 0.0
C2779 C 0.44654 0.54859 0.515 0.0
C2780 C 0.41437 0.58517 0.51146 0.0
C2781 C 0.44411 0.56236 0.49408 0.0
C2782 C 0.3872 0.6094 0.48496 0.0
C2783 C 0.36937 0.62951 0.52665 0.0
N2784 N 0.4282 0.57975 0.49276 0.0
N2785 N 0.38719 0.61412 0.52855 0.0
H2786 H 0.84329 0.90163 0.54012 0.0
H2787 H 0.95496 0.01639 0.58017 0.0
H2788 H 0.83938 0.96247 0.59455 0.0
H2789 H 0.94646 0.96902 0.51213 0.0
H2790 H 0.91857 0.98947 0.5935 0.0
H2791 H 0.88762 0.91797 0.53869 0.0
C2792 C 0.852 0.91821 0.55206 0.0
C2793 C 0.83776 0.93158 0.56658 0.0
C2794 C 0.92493 0.98476 0.57584 0.0
C2795 C 0.88809 0.95004 0.56541 0.0
C2796 C 0.94545 1.00018 0.56818 0.0
C2797 C 0.95296 0.99518 0.54479 0.0
C2798 C 0.9124 0.96394 0.56015 0.0
C2799 C 0.9406 0.97379 0.53001 0.0
C2800 C 0.8772 0.9275 0.55128 0.0
C2801 C 0.84976 0.95241 0.58236 0.0
N2802 N 0.92086 0.95892 0.53794 0.0
N2803 N 0.87428 0.96134 0.58107 0.0
H2804 H 0.81659 0.10741 0.29212 0.0
H2805 H 0.75997 0.21296 0.22176 0.0
H2806 H 0.83194 0.12131 0.21773 0.0
H2807 H 0.77501 0.21921 0.30091 0.0
H2808 H 0.7842 0.17815 0.21934 0.0
H2809 H 0.79959 0.14705 0.29547 0.0
C2810 C 0.81653 0.11896 0.27652 0.0
C2811 C 0.82557 0.11103 0.25455 0.0
C2812 C 0.78242 0.18727 0.23722 0.0
C2813 C 0.80572 0.15626 0.25816 0.0
C2814 C 0.76847 0.20702 0.23865 0.0
C2815 C 0.76551 0.21892 0.2616 0.0
C2816 C 0.79297 0.1789 0.25896 0.0
C2817 C 0.77698 0.21058 0.28287 0.0
C2818 C 0.80692 0.14162 0.2785 0.0
C2819 C 0.82521 0.12679 0.235 0.0
N2820 N 0.78996 0.19084 0.28108 0.0
N2821 N 0.81504 0.14849 0.23711 0.0
H2822 H 0.74687 0.11839 0.02797 0.0
H2823 H 0.60047 0.11212 0.99169 0.0
H2824 H 0.71636 0.17454 0.98688 0.0
H2825 H 0.63132 0.06342 0.04197 0.0
H2826 H 0.64273 0.13316 0.98678 0.0
H2827 H 0.70468 0.09602 0.03054 0.0
C2828 C 0.73117 0.12578 0.01922 0.0
C2829 C 0.73493 0.14783 1.00658 0.0
C2830 C 0.64027 0.11787 0.99888 0.0
C2831 C 0.68662 0.12282 0.00997 0.0
C2832 C 0.61618 0.10585 1.00165 0.0
C2833 C 0.61248 0.08612 0.01735 0.0
C2834 C 0.66078 0.11003 0.01185 0.0
C2835 C 0.63341 0.07864 0.02977 0.0
C2836 C 0.70711 0.11315 0.02085 0.0
C2837 C 0.71409 0.15728 0.99638 0.0
N2838 N 0.65667 0.09062 0.02676 0.0
N2839 N 0.69076 0.14459 0.99812 0.0
H2840 H 0.17462 0.44334 0.33956 0.0
H2841 H 0.21254 0.32994 0.25561 0.0
H2842 H 0.14144 0.42341 0.26477 0.0
H2843 H 0.25892 0.37069 0.31814 0.0
H2844 H 0.18097 0.35726 0.26204 0.0
H2845 H 0.19917 0.40925 0.33563 0.0
C2846 C 0.1721 0.43146 0.3224 0.0
C2847 C 0.15605 0.43652 0.30236 0.0
C2848 C 0.19798 0.36007 0.27443 0.0
C2849 C 0.1846 0.39736 0.29767 0.0
C2850 C 0.21595 0.34445 0.27086 0.0
C2851 C 0.23842 0.34814 0.28636 0.0
C2852 C 0.20236 0.37924 0.29388 0.0
C2853 C 0.24194 0.3673 0.30569 0.0
C2854 C 0.18631 0.41206 0.32014 0.0
C2855 C 0.15351 0.42022 0.28071 0.0
N2856 N 0.22413 0.38207 0.30891 0.0
N2857 N 0.16788 0.40153 0.27882 0.0
H2858 H 0.23588 0.51229 0.03383 0.0
H2859 H 0.08868 0.47584 1.00322 0.0
H2860 H 0.19446 0.43819 0.04262 0.0
H2861 H 0.12603 0.55356 0.01672 0.0
H2862 H 0.12861 0.46132 0.01156 0.0
H2863 H 0.19668 0.52758 0.02324 0.0
C2864 C 0.21852 0.4993 0.03374 0.0
C2865 C 0.21839 0.47391 0.03907 0.0
C2866 C 0.1281 0.48156 0.01253 0.0
C2867 C 0.17365 0.49117 0.02656 0.0
C2868 C 0.1054 0.48985 1.00754 0.0
C2869 C 0.10419 0.5159 0.00944 0.0
C2870 C 0.1497 0.49948 0.01934 0.0
C2871 C 0.12629 0.53329 0.0151 0.0
C2872 C 0.1962 0.50804 0.02764 0.0
C2873 C 0.1954 0.45793 0.03878 0.0
N2874 N 0.14824 0.52475 0.02001 0.0
N2875 N 0.17392 0.46679 0.03239 0.0
H2876 H 0.87476 0.97356 0.26684 0.0
H2877 H 0.77499 0.85098 0.21543 0.0
H2878 H 0.81415 0.97841 0.21209 0.0
H2879 H 0.81206 0.8617 0.28935 0.0
H2880 H 0.79542 0.89396 0.20781 0.0
H2881 H 0.8588 0.92816 0.26848 0.0
C2882 C 0.85814 0.96494 0.25509 0.0
C2883 C 0.84504 0.97977 0.24015 0.0
C2884 C 0.79916 0.88671 0.22558 0.0
C2885 C 0.82716 0.92793 0.24128 0.0
C2886 C 0.78761 0.86225 0.22991 0.0
C2887 C 0.79172 0.85291 0.25311 0.0
C2888 C 0.81542 0.90147 0.24437 0.0
C2889 C 0.80816 0.86828 0.27129 0.0
C2890 C 0.84906 0.93912 0.256 0.0
C2891 C 0.82412 0.96766 0.22459 0.0
N2892 N 0.81947 0.89169 0.26651 0.0
N2893 N 0.81564 0.94241 0.22568 0.0
H2894 H 0.62916 0.08615 0.81367 0.0
H2895 H 0.71839 0.19487 0.82009 0.0
H2896 H 0.67879 0.05143 0.77039 0.0
H2897 H 0.73523 0.16516 0.74938 0.0
H2898 H 0.69308 0.15396 0.82515 0.0
H2899 H 0.65541 0.12766 0.81204 0.0
C2900 C 0.64571 0.08736 0.80401 0.0
C2901 C 0.65246 0.06548 0.79291 0.0
C2902 C 0.70209 0.15643 0.80842 0.0
C2903 C 0.68243 0.11247 0.79083 0.0
C2904 C 0.71683 0.17964 0.80566 0.0
C2905 C 0.72865 0.18342 0.78414 0.0
C2906 C 0.69906 0.13688 0.78945 0.0
C2907 C 0.72627 0.16301 0.76618 0.0
C2908 C 0.66082 0.11091 0.80326 0.0
C2909 C 0.67356 0.06792 0.77987 0.0
N2910 N 0.71165 0.14055 0.7692 0.0
N2911 N 0.68784 0.09103 0.77917 0.0
loop_
_geom_bond_atom_site_label_1
_geom_bond_atom_site_label_2
_geom_bond_distance
_geom_bond_site_symmetry_2
_ccdc_geom_bond_type
Mn0 O5 2.095 . S
Mn0 O15 2.162 . S
Mn0 O16 2.297 . S
Mn0 O24 2.385 1_455 S
Mn0 O25 2.209 1_455 S
Mn0 O26 2.094 . S
Mn1 O6 2.121 . S
Mn1 N8 2.257 . S
Mn1 N17 2.282 1_455 S
Mn1 O25 2.215 1_455 S
Mn1 O27 2.117 . S
C2 O24 1.234 . S
C2 O25 1.283 . S
C3 O15 1.281 . S
C3 O16 1.236 . S
C4 O26 1.240 . S
C4 O27 1.264 . S
O5 Mn0 2.095 . S
O5 C14 1.250 . S
O6 Mn1 2.121 . S
O6 C14 1.258 . S
C7 N8 1.326 . S
C7 C11 1.460 . S
C7 H13 0.929 . S
N8 Mn1 2.257 . S
N8 C7 1.326 . S
N8 C12 1.362 1_455 S
C9 C10 1.258 . S
C9 C12 1.431 . S
C9 C29 1.449 . S
C10 C9 1.258 . S
C10 C11 1.477 1_655 S
C10 H30 0.931 . S
C11 C7 1.460 . S
C11 C10 1.477 1_455 S
C11 H31 0.930 . S
C12 N8 1.362 1_655 S
C12 C9 1.431 . S
C12 C22 1.476 . S
H13 C7 0.929 . S
C14 O5 1.250 . S
C14 O6 1.258 . S
O15 Mn0 2.162 . S
O15 C3 1.281 . S
O16 Mn0 2.297 . S
O16 C3 1.236 . S
N17 Mn1 2.282 1_655 S
N17 C18 1.328 . S
N17 C22 1.318 . S
C18 N17 1.328 . S
C18 C19 1.457 . S
C18 H23 0.929 . S
C19 C18 1.457 . S
C19 C20 1.291 . S
C19 H32 0.931 . S
C20 C19 1.291 . S
C20 C21 1.373 . S
C20 H33 0.929 . S
C21 C20 1.373 . S
C21 C22 1.396 . S
C21 C28 1.403 . S
C22 C12 1.476 . S
C22 N17 1.318 . S
C22 C21 1.396 . S
H23 C18 0.929 . S
O24 Mn0 2.385 1_655 S
O24 C2 1.234 . S
O25 Mn0 2.209 1_655 S
O25 Mn1 2.215 1_655 S
O25 C2 1.283 . S
O26 Mn0 2.094 . S
O26 C4 1.240 . S
O27 Mn1 2.117 . S
O27 C4 1.264 . S
C28 C21 1.403 . S
C28 C29 1.399 . S
C28 H34 0.929 . S
C29 C9 1.449 . S
C29 C28 1.399 . S
C29 H35 0.930 . S
H30 C10 0.931 . S
H31 C11 0.930 . S
H32 C19 0.931 . S
H33 C20 0.929 . S
H34 C28 0.929 . S
H35 C29 0.930 . S
Mn36 O41 2.074 1_455 S
Mn36 O51 2.162 1_455 S
Mn36 O52 2.299 1_455 S
Mn36 O60 2.407 . S
Mn36 O61 2.218 . S
Mn36 O62 2.093 . S
Mn37 O42 2.121 1_455 S
Mn37 N44 2.257 . S
Mn37 N53 2.282 . S
Mn37 O61 2.215 . S
Mn37 O63 2.117 . S
C38 O60 1.234 . S
C38 O61 1.283 . S
C39 O51 1.281 . S
C39 O52 1.236 . S
C40 O62 1.240 . S
C40 O63 1.264 . S
O41 Mn36 2.074 1_655 S
O41 C50 1.250 . S
O42 Mn37 2.121 1_655 S
O42 C50 1.258 . S
C43 N44 1.326 . S
C43 C47 1.460 . S
C43 H49 0.929 1_455 S
N44 Mn37 2.257 . S
N44 C43 1.326 . S
N44 C48 1.362 . S
C45 C46 1.258 . S
C45 C48 1.431 . S
C45 C65 1.449 . S
C46 C45 1.258 . S
C46 C47 1.477 . S
C46 H66 0.931 . S
C47 C43 1.460 . S
C47 C46 1.477 . S
C47 H67 0.930 . S
C48 N44 1.362 . S
C48 C45 1.431 . S
C48 C58 1.476 . S
H49 C43 0.929 1_655 S
C50 O41 1.250 . S
C50 O42 1.258 . S
O51 Mn36 2.162 1_655 S
O51 C39 1.281 . S
O52 Mn36 2.299 1_655 S
O52 C39 1.236 . S
N53 Mn37 2.282 . S
N53 C54 1.328 . S
N53 C58 1.318 . S
C54 N53 1.328 . S
C54 C55 1.457 . S
C54 H59 0.929 . S
C55 C54 1.457 . S
C55 C56 1.291 . S
C55 H68 0.931 . S
C56 C55 1.291 . S
C56 C57 1.373 . S
C56 H69 0.929 . S
C57 C56 1.373 . S
C57 C58 1.396 . S
C57 C64 1.403 . S
C58 C48 1.476 . S
C58 N53 1.318 . S
C58 C57 1.396 . S
H59 C54 0.929 . S
O60 Mn36 2.407 . S
O60 C38 1.234 . S
O61 Mn36 2.218 . S
O61 Mn37 2.215 . S
O61 C38 1.283 . S
O62 Mn36 2.093 . S
O62 C40 1.240 . S
O63 Mn37 2.117 . S
O63 C40 1.264 . S
C64 C57 1.403 . S
C64 C65 1.399 . S
C64 H70 0.929 . S
C65 C45 1.449 . S
C65 C64 1.399 . S
C65 H71 0.930 . S
H66 C46 0.931 . S
H67 C47 0.930 . S
H68 C55 0.931 . S
H69 C56 0.929 . S
H70 C64 0.929 . S
H71 C65 0.930 . S
Mn72 O77 2.095 . S
Mn72 O87 2.162 . S
Mn72 O88 2.297 . S
Mn72 O96 2.385 . S
Mn72 O97 2.209 . S
Mn72 O98 2.094 . S
Mn73 O78 2.121 . S
Mn73 N80 2.257 . S
Mn73 N89 2.282 . S
Mn73 O97 2.215 . S
Mn73 O99 2.117 . S
C74 O96 1.234 . S
C74 O97 1.283 . S
C75 O87 1.281 . S
C75 O88 1.236 . S
C76 O98 1.240 . S
C76 O99 1.264 . S
O77 Mn72 2.095 . S
O77 C86 1.250 . S
O78 Mn73 2.121 . S
O78 C86 1.258 . S
C79 N80 1.326 . S
C79 C83 1.460 . S
C79 H85 0.929 . S
N80 Mn73 2.257 . S
N80 C79 1.326 . S
N80 C84 1.362 . S
C81 C82 1.258 . S
C81 C84 1.431 . S
C81 C101 1.449 . S
C82 C81 1.258 . S
C82 C83 1.477 . S
C82 H102 0.931 . S
C83 C79 1.460 . S
C83 C82 1.477 . S
C83 H103 0.930 . S
C84 N80 1.362 . S
C84 C81 1.431 . S
C84 C94 1.476 . S
H85 C79 0.929 . S
C86 O77 1.250 . S
C86 O78 1.258 . S
O87 Mn72 2.162 . S
O87 C75 1.281 . S
O88 Mn72 2.297 . S
O88 C75 1.236 . S
N89 Mn73 2.282 . S
N89 C90 1.328 . S
N89 C94 1.318 . S
C90 N89 1.328 . S
C90 C91 1.457 . S
C90 H95 0.929 . S
C91 C90 1.457 . S
C91 C92 1.291 . S
C91 H104 0.931 . S
C92 C91 1.291 . S
C92 C93 1.373 . S
C92 H105 0.929 . S
C93 C92 1.373 . S
C93 C94 1.396 . S
C93 C100 1.403 . S
C94 C84 1.476 . S
C94 N89 1.318 . S
C94 C93 1.396 . S
H95 C90 0.929 . S
O96 Mn72 2.385 . S
O96 C74 1.234 . S
O97 Mn72 2.209 . S
O97 Mn73 2.215 . S
O97 C74 1.283 . S
O98 Mn72 2.094 . S
O98 C76 1.240 . S
O99 Mn73 2.117 . S
O99 C76 1.264 . S
C100 C93 1.403 . S
C100 C101 1.399 . S
C100 H106 0.929 . S
C101 C81 1.449 . S
C101 C100 1.399 . S
C101 H107 0.930 . S
H102 C82 0.931 . S
H103 C83 0.930 . S
H104 C91 0.931 . S
H105 C92 0.929 . S
H106 C100 0.929 . S
H107 C101 0.930 . S
Mn108 O113 2.095 . S
Mn108 O123 2.162 . S
Mn108 O124 2.297 . S
Mn108 O132 2.385 . S
Mn108 O133 2.209 . S
Mn108 O134 2.094 . S
Mn109 O114 2.121 . S
Mn109 N116 2.257 . S
Mn109 N125 2.282 . S
Mn109 O133 2.215 . S
Mn109 O135 2.117 . S
C110 O132 1.234 . S
C110 O133 1.283 . S
C111 O123 1.281 . S
C111 O124 1.236 . S
C112 O134 1.240 . S
C112 O135 1.264 . S
O113 Mn108 2.095 . S
O113 C122 1.250 . S
O114 Mn109 2.121 . S
O114 C122 1.258 . S
C115 N116 1.326 . S
C115 C119 1.460 . S
C115 H121 0.929 . S
N116 Mn109 2.257 . S
N116 C115 1.326 . S
N116 C120 1.362 . S
C117 C118 1.258 . S
C117 C120 1.431 . S
C117 C137 1.449 . S
C118 C117 1.258 . S
C118 C119 1.477 . S
C118 H138 0.929 1_554 S
C119 C115 1.460 . S
C119 C118 1.477 . S
C119 H139 0.930 . S
C120 N116 1.362 . S
C120 C117 1.431 . S
C120 C130 1.476 . S
H121 C115 0.929 . S
C122 O113 1.250 . S
C122 O114 1.258 . S
O123 Mn108 2.162 . S
O123 C111 1.281 . S
O124 Mn108 2.297 . S
O124 C111 1.236 . S
N125 Mn109 2.282 . S
N125 C126 1.328 . S
N125 C130 1.318 . S
C126 N125 1.328 . S
C126 C127 1.457 . S
C126 H131 0.929 . S
C127 C126 1.457 . S
C127 C128 1.291 . S
C127 H140 0.931 . S
C128 C127 1.291 . S
C128 C129 1.373 . S
C128 H141 0.929 . S
C129 C128 1.373 . S
C129 C130 1.396 . S
C129 C136 1.403 . S
C130 C120 1.476 . S
C130 N125 1.318 . S
C130 C129 1.396 . S
H131 C126 0.929 . S
O132 Mn108 2.385 . S
O132 C110 1.234 . S
O133 Mn108 2.209 . S
O133 Mn109 2.215 . S
O133 C110 1.283 . S
O134 Mn108 2.094 . S
O134 C112 1.240 . S
O135 Mn109 2.117 . S
O135 C112 1.264 . S
C136 C129 1.403 . S
C136 C137 1.399 . S
C136 H142 0.929 . S
C137 C117 1.449 . S
C137 C136 1.399 . S
C137 H143 0.930 . S
H138 C118 0.929 1_556 S
H139 C119 0.930 . S
H140 C127 0.931 . S
H141 C128 0.929 . S
H142 C136 0.929 . S
H143 C137 0.930 . S
Mn144 O149 2.095 . S
Mn144 O159 2.162 . S
Mn144 O160 2.297 . S
Mn144 O168 2.385 . S
Mn144 O169 2.208 1_455 S
Mn144 O170 2.094 1_455 S
Mn145 O150 2.121 . S
Mn145 N152 2.257 . S
Mn145 N161 2.282 . S
Mn145 O169 2.220 . S
Mn145 O171 2.117 . S
C146 O168 1.234 . S
C146 O169 1.282 1_455 S
C147 O159 1.281 . S
C147 O160 1.236 . S
C148 O170 1.240 . S
C148 O171 1.264 . S
O149 Mn144 2.095 . S
O149 C158 1.250 . S
O150 Mn145 2.121 . S
O150 C158 1.258 1_655 S
C151 N152 1.326 . S
C151 C155 1.460 . S
C151 H157 0.929 . S
N152 Mn145 2.257 . S
N152 C151 1.326 . S
N152 C156 1.362 . S
C153 C154 1.258 . S
C153 C156 1.431 . S
C153 C173 1.449 . S
C154 C153 1.258 . S
C154 C155 1.477 . S
C154 H174 0.931 1_554 S
C155 C151 1.460 . S
C155 C154 1.477 . S
C155 H175 0.930 . S
C156 N152 1.362 . S
C156 C153 1.431 . S
C156 C166 1.476 . S
H157 C151 0.929 . S
C158 O149 1.250 . S
C158 O150 1.258 1_455 S
O159 Mn144 2.162 . S
O159 C147 1.281 . S
O160 Mn144 2.297 . S
O160 C147 1.236 . S
N161 Mn145 2.282 . S
N161 C162 1.328 . S
N161 C166 1.318 . S
C162 N161 1.328 . S
C162 C163 1.457 . S
C162 H167 0.929 . S
C163 C162 1.457 . S
C163 C164 1.291 . S
C163 H176 0.931 . S
C164 C163 1.291 . S
C164 C165 1.373 . S
C164 H177 0.929 . S
C165 C164 1.373 . S
C165 C166 1.396 . S
C165 C172 1.403 . S
C166 C156 1.476 . S
C166 N161 1.318 . S
C166 C165 1.396 . S
H167 C162 0.929 . S
O168 Mn144 2.385 . S
O168 C146 1.234 . S
O169 Mn144 2.208 1_655 S
O169 Mn145 2.220 . S
O169 C146 1.282 1_655 S
O170 Mn144 2.094 1_655 S
O170 C148 1.240 . S
O171 Mn145 2.117 . S
O171 C148 1.264 . S
C172 C165 1.403 . S
C172 C173 1.399 . S
C172 H178 0.929 . S
C173 C153 1.449 . S
C173 C172 1.399 . S
C173 H179 0.930 . S
H174 C154 0.931 1_556 S
H175 C155 0.930 . S
H176 C163 0.931 . S
H177 C164 0.929 . S
H178 C172 0.929 . S
H179 C173 0.930 . S
Mn180 O185 2.095 . S
Mn180 O195 2.162 . S
Mn180 O196 2.297 . S
Mn180 O204 2.385 . S
Mn180 O205 2.209 . S
Mn180 O206 2.094 . S
Mn181 O186 2.121 . S
Mn181 N188 2.257 . S
Mn181 N197 2.282 . S
Mn181 O205 2.215 . S
Mn181 O207 2.117 . S
C182 O204 1.234 . S
C182 O205 1.283 . S
C183 O195 1.281 . S
C183 O196 1.236 . S
C184 O206 1.240 . S
C184 O207 1.264 . S
O185 Mn180 2.095 . S
O185 C194 1.250 . S
O186 Mn181 2.121 . S
O186 C194 1.258 . S
C187 N188 1.326 . S
C187 C191 1.460 . S
C187 H193 0.929 . S
N188 Mn181 2.257 . S
N188 C187 1.326 . S
N188 C192 1.362 . S
C189 C190 1.258 . S
C189 C192 1.431 . S
C189 C209 1.449 . S
C190 C189 1.258 . S
C190 C191 1.477 . S
C190 H210 0.931 . S
C191 C187 1.460 . S
C191 C190 1.477 . S
C191 H211 0.930 . S
C192 N188 1.362 . S
C192 C189 1.431 . S
C192 C202 1.476 . S
H193 C187 0.929 . S
C194 O185 1.250 . S
C194 O186 1.258 . S
O195 Mn180 2.162 . S
O195 C183 1.281 . S
O196 Mn180 2.297 . S
O196 C183 1.236 . S
N197 Mn181 2.282 . S
N197 C198 1.328 . S
N197 C202 1.318 . S
C198 N197 1.328 . S
C198 C199 1.457 . S
C198 H203 0.929 . S
C199 C198 1.457 . S
C199 C200 1.291 . S
C199 H212 0.931 . S
C200 C199 1.291 . S
C200 C201 1.373 . S
C200 H213 0.929 . S
C201 C200 1.373 . S
C201 C202 1.396 . S
C201 C208 1.403 . S
C202 C192 1.476 . S
C202 N197 1.318 . S
C202 C201 1.396 . S
H203 C198 0.929 . S
O204 Mn180 2.385 . S
O204 C182 1.234 . S
O205 Mn180 2.209 . S
O205 Mn181 2.215 . S
O205 C182 1.283 . S
O206 Mn180 2.094 . S
O206 C184 1.240 . S
O207 Mn181 2.117 . S
O207 C184 1.264 . S
C208 C201 1.403 . S
C208 C209 1.399 . S
C208 H214 0.929 . S
C209 C189 1.449 . S
C209 C208 1.399 . S
C209 H215 0.930 . S
H210 C190 0.931 . S
H211 C191 0.930 . S
H212 C199 0.931 . S
H213 C200 0.929 . S
H214 C208 0.929 . S
H215 C209 0.930 . S
Mn216 O221 2.095 . S
Mn216 O231 2.162 . S
Mn216 O232 2.297 . S
Mn216 O240 2.385 . S
Mn216 O241 2.209 . S
Mn216 O242 2.094 . S
Mn217 O222 2.121 . S
Mn217 N224 2.257 . S
Mn217 N233 2.282 . S
Mn217 O241 2.215 . S
Mn217 O243 2.117 . S
C218 O240 1.234 . S
C218 O241 1.283 . S
C219 O231 1.281 . S
C219 O232 1.236 . S
C220 O242 1.240 . S
C220 O243 1.264 . S
O221 Mn216 2.095 . S
O221 C230 1.250 . S
O222 Mn217 2.121 . S
O222 C230 1.258 . S
C223 N224 1.326 . S
C223 C227 1.460 . S
C223 H229 0.929 . S
N224 Mn217 2.257 . S
N224 C223 1.326 . S
N224 C228 1.362 . S
C225 C226 1.258 . S
C225 C228 1.431 . S
C225 C245 1.449 . S
C226 C225 1.258 . S
C226 C227 1.477 . S
C226 H246 0.931 . S
C227 C223 1.460 . S
C227 C226 1.477 . S
C227 H247 0.930 . S
C228 N224 1.362 . S
C228 C225 1.431 . S
C228 C238 1.476 . S
H229 C223 0.929 . S
C230 O221 1.250 . S
C230 O222 1.258 . S
O231 Mn216 2.162 . S
O231 C219 1.281 . S
O232 Mn216 2.297 . S
O232 C219 1.236 . S
N233 Mn217 2.282 . S
N233 C234 1.328 . S
N233 C238 1.318 . S
C234 N233 1.328 . S
C234 C235 1.457 . S
C234 H239 0.929 . S
C235 C234 1.457 . S
C235 C236 1.291 . S
C235 H248 0.931 . S
C236 C235 1.291 . S
C236 C237 1.373 . S
C236 H249 0.929 . S
C237 C236 1.373 . S
C237 C238 1.396 . S
C237 C244 1.403 . S
C238 C228 1.476 . S
C238 N233 1.318 . S
C238 C237 1.396 . S
H239 C234 0.929 . S
O240 Mn216 2.385 . S
O240 C218 1.234 . S
O241 Mn216 2.209 . S
O241 Mn217 2.215 . S
O241 C218 1.283 . S
O242 Mn216 2.094 . S
O242 C220 1.240 . S
O243 Mn217 2.117 . S
O243 C220 1.264 . S
C244 C237 1.403 . S
C244 C245 1.399 . S
C244 H250 0.929 . S
C245 C225 1.449 . S
C245 C244 1.399 . S
C245 H251 0.930 . S
H246 C226 0.931 . S
H247 C227 0.930 . S
H248 C235 0.931 . S
H249 C236 0.929 . S
H250 C244 0.929 . S
H251 C245 0.930 . S
Mn252 O257 2.095 . S
Mn252 O267 2.162 . S
Mn252 O268 2.297 . S
Mn252 O276 2.385 1_455 S
Mn252 O277 2.209 1_455 S
Mn252 O278 2.094 . S
Mn253 O258 2.121 . S
Mn253 N260 2.257 1_455 S
Mn253 N269 2.282 1_455 S
Mn253 O277 2.215 1_455 S
Mn253 O279 2.117 . S
C254 O276 1.234 . S
C254 O277 1.283 . S
C255 O267 1.281 . S
C255 O268 1.236 . S
C256 O278 1.240 . S
C256 O279 1.264 . S
O257 Mn252 2.095 . S
O257 C266 1.250 . S
O258 Mn253 2.121 . S
O258 C266 1.258 . S
C259 N260 1.326 1_455 S
C259 C263 1.460 1_455 S
C259 H265 0.929 . S
N260 Mn253 2.257 1_655 S
N260 C259 1.326 1_655 S
N260 C264 1.362 . S
C261 C262 1.258 . S
C261 C264 1.431 . S
C261 C281 1.449 . S
C262 C261 1.258 . S
C262 C263 1.477 . S
C262 H282 0.931 . S
C263 C259 1.460 1_655 S
C263 C262 1.477 . S
C263 H283 0.930 1_655 S
C264 N260 1.362 . S
C264 C261 1.431 . S
C264 C274 1.476 . S
H265 C259 0.929 . S
C266 O257 1.250 . S
C266 O258 1.258 . S
O267 Mn252 2.162 . S
O267 C255 1.281 . S
O268 Mn252 2.297 . S
O268 C255 1.236 . S
N269 Mn253 2.282 1_655 S
N269 C270 1.328 . S
N269 C274 1.318 . S
C270 N269 1.328 . S
C270 C271 1.457 . S
C270 H275 0.929 . S
C271 C270 1.457 . S
C271 C272 1.291 . S
C271 H284 0.931 . S
C272 C271 1.291 . S
C272 C273 1.373 . S
C272 H285 0.929 . S
C273 C272 1.373 . S
C273 C274 1.396 . S
C273 C280 1.403 . S
C274 C264 1.476 . S
C274 N269 1.318 . S
C274 C273 1.396 . S
H275 C270 0.929 . S
O276 Mn252 2.385 1_655 S
O276 C254 1.234 . S
O277 Mn252 2.209 1_655 S
O277 Mn253 2.215 1_655 S
O277 C254 1.283 . S
O278 Mn252 2.094 . S
O278 C256 1.240 . S
O279 Mn253 2.117 . S
O279 C256 1.264 . S
C280 C273 1.403 . S
C280 C281 1.399 . S
C280 H286 0.929 . S
C281 C261 1.449 . S
C281 C280 1.399 . S
C281 H287 0.930 . S
H282 C262 0.931 . S
H283 C263 0.930 1_455 S
H284 C271 0.931 . S
H285 C272 0.929 . S
H286 C280 0.929 . S
H287 C281 0.930 . S
Mn288 O293 2.095 . S
Mn288 O303 2.162 . S
Mn288 O304 2.297 . S
Mn288 O312 2.385 . S
Mn288 O313 2.209 . S
Mn288 O314 2.094 . S
Mn289 O294 2.121 . S
Mn289 N296 2.257 . S
Mn289 N305 2.282 . S
Mn289 O313 2.215 . S
Mn289 O315 2.117 . S
C290 O312 1.234 . S
C290 O313 1.283 . S
C291 O303 1.281 . S
C291 O304 1.236 . S
C292 O314 1.240 . S
C292 O315 1.264 . S
O293 Mn288 2.095 . S
O293 C302 1.250 . S
O294 Mn289 2.121 . S
O294 C302 1.258 . S
C295 N296 1.326 . S
C295 C299 1.460 . S
C295 H301 0.929 . S
N296 Mn289 2.257 . S
N296 C295 1.326 . S
N296 C300 1.362 . S
C297 C298 1.258 1_565 S
C297 C300 1.431 1_565 S
C297 C317 1.449 . S
C298 C297 1.258 1_545 S
C298 C299 1.477 . S
C298 H318 0.931 1_545 S
C299 C295 1.460 . S
C299 C298 1.477 . S
C299 H319 0.930 . S
C300 N296 1.362 . S
C300 C297 1.431 1_545 S
C300 C310 1.476 1_545 S
H301 C295 0.929 . S
C302 O293 1.250 . S
C302 O294 1.258 . S
O303 Mn288 2.162 . S
O303 C291 1.281 . S
O304 Mn288 2.297 . S
O304 C291 1.236 . S
N305 Mn289 2.282 . S
N305 C306 1.328 1_545 S
N305 C310 1.318 1_545 S
C306 N305 1.328 1_565 S
C306 C307 1.457 . S
C306 H311 0.929 1_565 S
C307 C306 1.457 . S
C307 C308 1.291 . S
C307 H320 0.931 . S
C308 C307 1.291 . S
C308 C309 1.373 . S
C308 H321 0.929 . S
C309 C308 1.373 . S
C309 C310 1.396 . S
C309 C316 1.403 . S
C310 C300 1.476 1_565 S
C310 N305 1.318 1_565 S
C310 C309 1.396 . S
H311 C306 0.929 1_545 S
O312 Mn288 2.385 . S
O312 C290 1.234 . S
O313 Mn288 2.209 . S
O313 Mn289 2.215 . S
O313 C290 1.283 . S
O314 Mn288 2.094 . S
O314 C292 1.240 . S
O315 Mn289 2.117 . S
O315 C292 1.264 . S
C316 C309 1.403 . S
C316 C317 1.399 . S
C316 H322 0.929 . S
C317 C297 1.449 . S
C317 C316 1.399 . S
C317 H323 0.930 . S
H318 C298 0.931 1_565 S
H319 C299 0.930 . S
H320 C307 0.931 . S
H321 C308 0.929 . S
H322 C316 0.929 . S
H323 C317 0.930 . S
Mn324 O329 2.095 . S
Mn324 O339 2.162 . S
Mn324 O340 2.297 . S
Mn324 O348 2.385 . S
Mn324 O349 2.209 . S
Mn324 O350 2.094 . S
Mn325 O330 2.121 . S
Mn325 N332 2.257 . S
Mn325 N341 2.282 . S
Mn325 O349 2.215 . S
Mn325 O351 2.117 . S
C326 O348 1.234 . S
C326 O349 1.283 . S
C327 O339 1.281 . S
C327 O340 1.236 . S
C328 O350 1.240 . S
C328 O351 1.264 . S
O329 Mn324 2.095 . S
O329 C338 1.250 . S
O330 Mn325 2.121 . S
O330 C338 1.258 . S
C331 N332 1.326 . S
C331 C335 1.460 . S
C331 H337 0.929 . S
N332 Mn325 2.257 . S
N332 C331 1.326 . S
N332 C336 1.362 . S
C333 C334 1.258 . S
C333 C336 1.431 . S
C333 C353 1.449 . S
C334 C333 1.258 . S
C334 C335 1.477 . S
C334 H354 0.931 . S
C335 C331 1.460 . S
C335 C334 1.477 . S
C335 H355 0.930 . S
C336 N332 1.362 . S
C336 C333 1.431 . S
C336 C346 1.476 . S
H337 C331 0.929 . S
C338 O329 1.250 . S
C338 O330 1.258 . S
O339 Mn324 2.162 . S
O339 C327 1.281 . S
O340 Mn324 2.297 . S
O340 C327 1.236 . S
N341 Mn325 2.282 . S
N341 C342 1.328 . S
N341 C346 1.318 . S
C342 N341 1.328 . S
C342 C343 1.457 . S
C342 H347 0.929 . S
C343 C342 1.457 . S
C343 C344 1.291 . S
C343 H356 0.931 . S
C344 C343 1.291 . S
C344 C345 1.373 . S
C344 H357 0.929 . S
C345 C344 1.373 . S
C345 C346 1.396 . S
C345 C352 1.403 . S
C346 C336 1.476 . S
C346 N341 1.318 . S
C346 C345 1.396 . S
H347 C342 0.929 . S
O348 Mn324 2.385 . S
O348 C326 1.234 . S
O349 Mn324 2.209 . S
O349 Mn325 2.215 . S
O349 C326 1.283 . S
O350 Mn324 2.094 . S
O350 C328 1.240 . S
O351 Mn325 2.117 . S
O351 C328 1.264 . S
C352 C345 1.403 . S
C352 C353 1.399 . S
C352 H358 0.929 . S
C353 C333 1.449 . S
C353 C352 1.399 . S
C353 H359 0.930 . S
H354 C334 0.931 . S
H355 C335 0.930 . S
H356 C343 0.931 . S
H357 C344 0.929 . S
H358 C352 0.929 . S
H359 C353 0.930 . S
Mn360 O365 2.092 1_545 S
Mn360 O375 2.162 1_545 S
Mn360 O376 2.297 . S
Mn360 O384 2.389 . S
Mn360 O385 2.210 . S
Mn360 O386 2.094 1_545 S
Mn361 O366 2.121 1_545 S
Mn361 N368 2.257 . S
Mn361 N377 2.282 . S
Mn361 O385 2.215 . S
Mn361 O387 2.117 . S
C362 O384 1.234 . S
C362 O385 1.283 . S
C363 O375 1.281 . S
C363 O376 1.236 1_565 S
C364 O386 1.240 1_545 S
C364 O387 1.264 . S
O365 Mn360 2.092 1_565 S
O365 C374 1.250 . S
O366 Mn361 2.121 1_565 S
O366 C374 1.258 . S
C367 N368 1.326 . S
C367 C371 1.460 . S
C367 H373 0.929 1_545 S
N368 Mn361 2.257 . S
N368 C367 1.326 . S
N368 C372 1.362 . S
C369 C370 1.258 . S
C369 C372 1.431 . S
C369 C389 1.449 . S
C370 C369 1.258 . S
C370 C371 1.477 . S
C370 H390 0.931 . S
C371 C367 1.460 . S
C371 C370 1.477 . S
C371 H391 0.930 . S
C372 N368 1.362 . S
C372 C369 1.431 . S
C372 C382 1.476 . S
H373 C367 0.929 1_565 S
C374 O365 1.250 . S
C374 O366 1.258 . S
O375 Mn360 2.162 1_565 S
O375 C363 1.281 . S
O376 Mn360 2.297 . S
O376 C363 1.236 1_545 S
N377 Mn361 2.282 . S
N377 C378 1.328 . S
N377 C382 1.318 . S
C378 N377 1.328 . S
C378 C379 1.457 . S
C378 H383 0.929 . S
C379 C378 1.457 . S
C379 C380 1.291 . S
C379 H392 0.931 . S
C380 C379 1.291 . S
C380 C381 1.373 . S
C380 H393 0.929 . S
C381 C380 1.373 . S
C381 C382 1.396 . S
C381 C388 1.403 . S
C382 C372 1.476 . S
C382 N377 1.318 . S
C382 C381 1.396 . S
H383 C378 0.929 . S
O384 Mn360 2.389 . S
O384 C362 1.234 . S
O385 Mn360 2.210 . S
O385 Mn361 2.215 . S
O385 C362 1.283 . S
O386 Mn360 2.094 1_565 S
O386 C364 1.240 1_565 S
O387 Mn361 2.117 . S
O387 C364 1.264 . S
C388 C381 1.403 . S
C388 C389 1.399 . S
C388 H394 0.929 . S
C389 C369 1.449 . S
C389 C388 1.399 . S
C389 H395 0.930 . S
H390 C370 0.931 . S
H391 C371 0.930 . S
H392 C379 0.931 . S
H393 C380 0.929 . S
H394 C388 0.929 . S
H395 C389 0.930 . S
Mn396 O401 2.095 . S
Mn396 O411 2.162 . S
Mn396 O412 2.297 . S
Mn396 O420 2.385 . S
Mn396 O421 2.209 . S
Mn396 O422 2.094 1_554 S
Mn397 O402 2.121 1_556 S
Mn397 N404 2.257 . S
Mn397 N413 2.282 . S
Mn397 O421 2.215 1_556 S
Mn397 O423 2.117 . S
C398 O420 1.234 . S
C398 O421 1.283 . S
C399 O411 1.281 . S
C399 O412 1.236 . S
C400 O422 1.240 . S
C400 O423 1.264 . S
O401 Mn396 2.095 . S
O401 C410 1.250 . S
O402 Mn397 2.121 1_554 S
O402 C410 1.258 . S
C403 N404 1.326 1_554 S
C403 C407 1.460 1_565 S
C403 H409 0.929 . S
N404 Mn397 2.257 . S
N404 C403 1.326 1_556 S
N404 C408 1.362 . S
C405 C406 1.258 1_556 S
C405 C408 1.431 1_545 S
C405 C425 1.449 . S
C406 C405 1.258 1_554 S
C406 C407 1.477 . S
C406 H426 0.931 . S
C407 C403 1.460 1_545 S
C407 C406 1.477 . S
C407 H427 0.930 . S
C408 N404 1.362 . S
C408 C405 1.431 1_565 S
C408 C418 1.476 . S
H409 C403 0.929 . S
C410 O401 1.250 . S
C410 O402 1.258 . S
O411 Mn396 2.162 . S
O411 C399 1.281 . S
O412 Mn396 2.297 . S
O412 C399 1.236 . S
N413 Mn397 2.282 . S
N413 C414 1.328 . S
N413 C418 1.318 . S
C414 N413 1.328 . S
C414 C415 1.457 . S
C414 H419 0.929 . S
C415 C414 1.457 . S
C415 C416 1.291 . S
C415 H428 0.931 . S
C416 C415 1.291 . S
C416 C417 1.373 . S
C416 H429 0.929 . S
C417 C416 1.373 . S
C417 C418 1.396 . S
C417 C424 1.403 1_565 S
C418 C408 1.476 . S
C418 N413 1.318 . S
C418 C417 1.396 . S
H419 C414 0.929 . S
O420 Mn396 2.385 . S
O420 C398 1.234 . S
O421 Mn396 2.209 . S
O421 Mn397 2.215 1_554 S
O421 C398 1.283 . S
O422 Mn396 2.094 1_556 S
O422 C400 1.240 . S
O423 Mn397 2.117 . S
O423 C400 1.264 . S
C424 C417 1.403 1_545 S
C424 C425 1.399 . S
C424 H430 0.929 . S
C425 C405 1.449 . S
C425 C424 1.399 . S
C425 H431 0.930 . S
H426 C406 0.931 . S
H427 C407 0.930 . S
H428 C415 0.931 . S
H429 C416 0.929 . S
H430 C424 0.929 . S
H431 C425 0.930 . S
Mn432 O437 2.095 . S
Mn432 O447 2.162 . S
Mn432 O448 2.297 . S
Mn432 O456 2.385 . S
Mn432 O457 2.209 . S
Mn432 O458 2.094 1_554 S
Mn433 O438 2.121 1_556 S
Mn433 N440 2.257 . S
Mn433 N449 2.282 . S
Mn433 O457 2.215 1_556 S
Mn433 O459 2.117 . S
C434 O456 1.234 . S
C434 O457 1.283 . S
C435 O447 1.281 . S
C435 O448 1.236 . S
C436 O458 1.240 . S
C436 O459 1.264 . S
O437 Mn432 2.095 . S
O437 C446 1.250 . S
O438 Mn433 2.121 1_554 S
O438 C446 1.258 . S
C439 N440 1.326 1_554 S
C439 C443 1.460 . S
C439 H445 0.929 . S
N440 Mn433 2.257 . S
N440 C439 1.326 1_556 S
N440 C444 1.362 . S
C441 C442 1.241 1_556 S
C441 C444 1.431 . S
C441 C461 1.449 . S
C442 C441 1.241 1_554 S
C442 C443 1.498 . S
C442 H462 0.929 . S
C443 C439 1.460 . S
C443 C442 1.498 . S
C443 H463 0.930 . S
C444 N440 1.362 . S
C444 C441 1.431 . S
C444 C454 1.476 . S
H445 C439 0.929 . S
C446 O437 1.250 . S
C446 O438 1.258 . S
O447 Mn432 2.162 . S
O447 C435 1.281 . S
O448 Mn432 2.297 . S
O448 C435 1.236 . S
N449 Mn433 2.282 . S
N449 C450 1.328 . S
N449 C454 1.318 . S
C450 N449 1.328 . S
C450 C451 1.457 . S
C450 H455 0.929 . S
C451 C450 1.457 . S
C451 C452 1.291 . S
C451 H464 0.931 . S
C452 C451 1.291 . S
C452 C453 1.373 . S
C452 H465 0.929 . S
C453 C452 1.373 . S
C453 C454 1.396 . S
C453 C460 1.403 . S
C454 C444 1.476 . S
C454 N449 1.318 . S
C454 C453 1.396 . S
H455 C450 0.929 . S
O456 Mn432 2.385 . S
O456 C434 1.234 . S
O457 Mn432 2.209 . S
O457 Mn433 2.215 1_554 S
O457 C434 1.283 . S
O458 Mn432 2.094 1_556 S
O458 C436 1.240 . S
O459 Mn433 2.117 . S
O459 C436 1.264 . S
C460 C453 1.403 . S
C460 C461 1.399 . S
C460 H466 0.929 . S
C461 C441 1.449 . S
C461 C460 1.399 . S
C461 H467 0.930 . S
H462 C442 0.929 . S
H463 C443 0.930 . S
H464 C451 0.931 . S
H465 C452 0.929 . S
H466 C460 0.929 . S
H467 C461 0.930 . S
Mn468 O473 2.095 1_554 S
Mn468 O483 2.162 . S
Mn468 O484 2.297 . S
Mn468 O492 2.385 . S
Mn468 O493 2.209 1_554 S
Mn468 O494 2.094 1_554 S
Mn469 O474 2.121 . S
Mn469 N476 2.257 . S
Mn469 N485 2.282 . S
Mn469 O493 2.215 . S
Mn469 O495 2.117 . S
C470 O492 1.234 1_556 S
C470 O493 1.283 . S
C471 O483 1.281 . S
C471 O484 1.236 . S
C472 O494 1.240 . S
C472 O495 1.264 . S
O473 Mn468 2.095 1_556 S
O473 C482 1.250 . S
O474 Mn469 2.121 . S
O474 C482 1.258 . S
C475 N476 1.326 . S
C475 C479 1.460 . S
C475 H481 0.929 . S
N476 Mn469 2.257 . S
N476 C475 1.326 . S
N476 C480 1.362 . S
C477 C478 1.258 . S
C477 C480 1.431 . S
C477 C497 1.449 . S
C478 C477 1.258 . S
C478 C479 1.477 . S
C478 H498 0.931 . S
C479 C475 1.460 . S
C479 C478 1.477 . S
C479 H499 0.930 . S
C480 N476 1.362 . S
C480 C477 1.431 . S
C480 C490 1.476 . S
H481 C475 0.929 . S
C482 O473 1.250 . S
C482 O474 1.258 . S
O483 Mn468 2.162 . S
O483 C471 1.281 . S
O484 Mn468 2.297 . S
O484 C471 1.236 . S
N485 Mn469 2.282 . S
N485 C486 1.328 . S
N485 C490 1.318 . S
C486 N485 1.328 . S
C486 C487 1.457 . S
C486 H491 0.929 . S
C487 C486 1.457 . S
C487 C488 1.291 . S
C487 H500 0.931 . S
C488 C487 1.291 . S
C488 C489 1.373 . S
C488 H501 0.929 . S
C489 C488 1.373 . S
C489 C490 1.396 . S
C489 C496 1.403 . S
C490 C480 1.476 . S
C490 N485 1.318 . S
C490 C489 1.396 . S
H491 C486 0.929 . S
O492 Mn468 2.385 . S
O492 C470 1.234 1_554 S
O493 Mn468 2.209 1_556 S
O493 Mn469 2.215 . S
O493 C470 1.283 . S
O494 Mn468 2.094 1_556 S
O494 C472 1.240 . S
O495 Mn469 2.117 . S
O495 C472 1.264 . S
C496 C489 1.403 . S
C496 C497 1.399 . S
C496 H502 0.929 . S
C497 C477 1.449 . S
C497 C496 1.399 . S
C497 H503 0.930 . S
H498 C478 0.931 . S
H499 C479 0.930 . S
H500 C487 0.931 . S
H501 C488 0.929 . S
H502 C496 0.929 . S
H503 C497 0.930 . S
Mn504 O509 2.095 . S
Mn504 O519 2.162 . S
Mn504 O520 2.297 . S
Mn504 O528 2.385 . S
Mn504 O529 2.209 . S
Mn504 O530 2.094 . S
Mn505 O510 2.121 . S
Mn505 N512 2.257 . S
Mn505 N521 2.282 . S
Mn505 O529 2.215 . S
Mn505 O531 2.117 . S
C506 O528 1.234 . S
C506 O529 1.283 . S
C507 O519 1.281 . S
C507 O520 1.236 . S
C508 O530 1.240 . S
C508 O531 1.264 . S
O509 Mn504 2.095 . S
O509 C518 1.250 . S
O510 Mn505 2.121 . S
O510 C518 1.258 . S
C511 N512 1.326 . S
C511 C515 1.460 . S
C511 H517 0.929 . S
N512 Mn505 2.257 . S
N512 C511 1.326 . S
N512 C516 1.362 . S
C513 C514 1.258 . S
C513 C516 1.431 . S
C513 C533 1.449 . S
C514 C513 1.258 . S
C514 C515 1.477 . S
C514 H534 0.931 . S
C515 C511 1.460 . S
C515 C514 1.477 . S
C515 H535 0.930 . S
C516 N512 1.362 . S
C516 C513 1.431 . S
C516 C526 1.476 . S
H517 C511 0.929 . S
C518 O509 1.250 . S
C518 O510 1.258 . S
O519 Mn504 2.162 . S
O519 C507 1.281 . S
O520 Mn504 2.297 . S
O520 C507 1.236 . S
N521 Mn505 2.282 . S
N521 C522 1.328 . S
N521 C526 1.318 . S
C522 N521 1.328 . S
C522 C523 1.457 . S
C522 H527 0.929 . S
C523 C522 1.457 . S
C523 C524 1.291 . S
C523 H536 0.931 . S
C524 C523 1.291 . S
C524 C525 1.373 . S
C524 H537 0.929 . S
C525 C524 1.373 . S
C525 C526 1.396 . S
C525 C532 1.403 . S
C526 C516 1.476 . S
C526 N521 1.318 . S
C526 C525 1.396 . S
H527 C522 0.929 . S
O528 Mn504 2.385 . S
O528 C506 1.234 . S
O529 Mn504 2.209 . S
O529 Mn505 2.215 . S
O529 C506 1.283 . S
O530 Mn504 2.094 . S
O530 C508 1.240 . S
O531 Mn505 2.117 . S
O531 C508 1.264 . S
C532 C525 1.403 . S
C532 C533 1.399 . S
C532 H538 0.929 . S
C533 C513 1.449 . S
C533 C532 1.399 . S
C533 H539 0.930 . S
H534 C514 0.931 . S
H535 C515 0.930 . S
H536 C523 0.931 . S
H537 C524 0.929 . S
H538 C532 0.929 . S
H539 C533 0.930 . S
Mn540 O545 2.095 . S
Mn540 O555 2.162 . S
Mn540 O556 2.297 . S
Mn540 O564 2.385 . S
Mn540 O565 2.209 . S
Mn540 O566 2.094 . S
Mn541 O546 2.121 . S
Mn541 N548 2.257 . S
Mn541 N557 2.282 . S
Mn541 O565 2.215 . S
Mn541 O567 2.117 . S
C542 O564 1.234 . S
C542 O565 1.283 . S
C543 O555 1.281 . S
C543 O556 1.236 . S
C544 O566 1.240 . S
C544 O567 1.264 . S
O545 Mn540 2.095 . S
O545 C554 1.250 . S
O546 Mn541 2.121 . S
O546 C554 1.258 . S
C547 N548 1.326 . S
C547 C551 1.460 1_565 S
C547 H553 0.929 . S
N548 Mn541 2.257 . S
N548 C547 1.326 . S
N548 C552 1.362 . S
C549 C550 1.258 . S
C549 C552 1.431 1_545 S
C549 C569 1.449 . S
C550 C549 1.258 . S
C550 C551 1.477 . S
C550 H570 0.931 . S
C551 C547 1.460 1_545 S
C551 C550 1.477 . S
C551 H571 0.930 . S
C552 N548 1.362 . S
C552 C549 1.431 1_565 S
C552 C562 1.476 . S
H553 C547 0.929 . S
C554 O545 1.250 . S
C554 O546 1.258 . S
O555 Mn540 2.162 . S
O555 C543 1.281 . S
O556 Mn540 2.297 . S
O556 C543 1.236 . S
N557 Mn541 2.282 . S
N557 C558 1.328 . S
N557 C562 1.318 . S
C558 N557 1.328 . S
C558 C559 1.457 . S
C558 H563 0.929 . S
C559 C558 1.457 . S
C559 C560 1.291 . S
C559 H572 0.931 . S
C560 C559 1.291 . S
C560 C561 1.373 . S
C560 H573 0.929 . S
C561 C560 1.373 . S
C561 C562 1.396 . S
C561 C568 1.403 . S
C562 C552 1.476 . S
C562 N557 1.318 . S
C562 C561 1.396 . S
H563 C558 0.929 . S
O564 Mn540 2.385 . S
O564 C542 1.234 . S
O565 Mn540 2.209 . S
O565 Mn541 2.215 . S
O565 C542 1.283 . S
O566 Mn540 2.094 . S
O566 C544 1.240 . S
O567 Mn541 2.117 . S
O567 C544 1.264 . S
C568 C561 1.403 . S
C568 C569 1.399 1_565 S
C568 H574 0.929 . S
C569 C549 1.449 . S
C569 C568 1.399 1_545 S
C569 H575 0.930 . S
H570 C550 0.931 . S
H571 C551 0.930 . S
H572 C559 0.931 . S
H573 C560 0.929 . S
H574 C568 0.929 . S
H575 C569 0.930 . S
Mn576 O581 2.095 . S
Mn576 O591 2.162 . S
Mn576 O592 2.297 . S
Mn576 O600 2.385 . S
Mn576 O601 2.209 . S
Mn576 O602 2.094 . S
Mn577 O582 2.121 . S
Mn577 N584 2.257 . S
Mn577 N593 2.282 . S
Mn577 O601 2.215 . S
Mn577 O603 2.117 . S
C578 O600 1.234 . S
C578 O601 1.283 . S
C579 O591 1.281 . S
C579 O592 1.236 . S
C580 O602 1.240 . S
C580 O603 1.264 . S
O581 Mn576 2.095 . S
O581 C590 1.250 . S
O582 Mn577 2.121 . S
O582 C590 1.258 . S
C583 N584 1.326 . S
C583 C587 1.460 . S
C583 H589 0.929 . S
N584 Mn577 2.257 . S
N584 C583 1.326 . S
N584 C588 1.362 . S
C585 C586 1.258 . S
C585 C588 1.431 . S
C585 C605 1.449 1_545 S
C586 C585 1.258 . S
C586 C587 1.477 . S
C586 H606 0.931 . S
C587 C583 1.460 . S
C587 C586 1.477 . S
C587 H607 0.930 . S
C588 N584 1.362 . S
C588 C585 1.431 . S
C588 C598 1.476 . S
H589 C583 0.929 . S
C590 O581 1.250 . S
C590 O582 1.258 . S
O591 Mn576 2.162 . S
O591 C579 1.281 . S
O592 Mn576 2.297 . S
O592 C579 1.236 . S
N593 Mn577 2.282 . S
N593 C594 1.328 . S
N593 C598 1.318 . S
C594 N593 1.328 . S
C594 C595 1.457 1_545 S
C594 H599 0.929 . S
C595 C594 1.457 1_565 S
C595 C596 1.291 . S
C595 H608 0.931 . S
C596 C595 1.291 . S
C596 C597 1.373 . S
C596 H609 0.929 . S
C597 C596 1.373 . S
C597 C598 1.396 1_565 S
C597 C604 1.403 . S
C598 C588 1.476 . S
C598 N593 1.318 . S
C598 C597 1.396 1_545 S
H599 C594 0.929 . S
O600 Mn576 2.385 . S
O600 C578 1.234 . S
O601 Mn576 2.209 . S
O601 Mn577 2.215 . S
O601 C578 1.283 . S
O602 Mn576 2.094 . S
O602 C580 1.240 . S
O603 Mn577 2.117 . S
O603 C580 1.264 . S
C604 C597 1.403 . S
C604 C605 1.399 . S
C604 H610 0.929 . S
C605 C585 1.449 1_565 S
C605 C604 1.399 . S
C605 H611 0.930 . S
H606 C586 0.931 . S
H607 C587 0.930 . S
H608 C595 0.931 . S
H609 C596 0.929 . S
H610 C604 0.929 . S
H611 C605 0.930 . S
Mn612 O617 2.095 . S
Mn612 O627 2.162 . S
Mn612 O628 2.297 . S
Mn612 O636 2.385 . S
Mn612 O637 2.209 . S
Mn612 O638 2.094 . S
Mn613 O618 2.121 . S
Mn613 N620 2.257 . S
Mn613 N629 2.282 . S
Mn613 O637 2.215 . S
Mn613 O639 2.117 . S
C614 O636 1.234 . S
C614 O637 1.283 . S
C615 O627 1.281 . S
C615 O628 1.236 . S
C616 O638 1.240 . S
C616 O639 1.264 . S
O617 Mn612 2.095 . S
O617 C626 1.250 . S
O618 Mn613 2.121 . S
O618 C626 1.258 . S
C619 N620 1.326 . S
C619 C623 1.460 . S
C619 H625 0.929 . S
N620 Mn613 2.257 . S
N620 C619 1.326 . S
N620 C624 1.362 . S
C621 C622 1.258 . S
C621 C624 1.431 . S
C621 C641 1.449 . S
C622 C621 1.258 . S
C622 C623 1.477 . S
C622 H642 0.931 . S
C623 C619 1.460 . S
C623 C622 1.477 . S
C623 H643 0.930 . S
C624 N620 1.362 . S
C624 C621 1.431 . S
C624 C634 1.476 . S
H625 C619 0.929 . S
C626 O617 1.250 . S
C626 O618 1.258 . S
O627 Mn612 2.162 . S
O627 C615 1.281 . S
O628 Mn612 2.297 . S
O628 C615 1.236 . S
N629 Mn613 2.282 . S
N629 C630 1.328 . S
N629 C634 1.318 . S
C630 N629 1.328 . S
C630 C631 1.457 . S
C630 H635 0.929 . S
C631 C630 1.457 . S
C631 C632 1.291 . S
C631 H644 0.931 . S
C632 C631 1.291 . S
C632 C633 1.373 . S
C632 H645 0.929 . S
C633 C632 1.373 . S
C633 C634 1.396 . S
C633 C640 1.403 . S
C634 C624 1.476 . S
C634 N629 1.318 . S
C634 C633 1.396 . S
H635 C630 0.929 . S
O636 Mn612 2.385 . S
O636 C614 1.234 . S
O637 Mn612 2.209 . S
O637 Mn613 2.215 . S
O637 C614 1.283 . S
O638 Mn612 2.094 . S
O638 C616 1.240 . S
O639 Mn613 2.117 . S
O639 C616 1.264 . S
C640 C633 1.403 . S
C640 C641 1.399 . S
C640 H646 0.929 . S
C641 C621 1.449 . S
C641 C640 1.399 . S
C641 H647 0.930 . S
H642 C622 0.931 . S
H643 C623 0.930 . S
H644 C631 0.931 . S
H645 C632 0.929 . S
H646 C640 0.929 . S
H647 C641 0.930 . S
Mn648 O653 2.095 . S
Mn648 O663 2.162 . S
Mn648 O664 2.297 . S
Mn648 O672 2.385 . S
Mn648 O673 2.209 . S
Mn648 O674 2.094 . S
Mn649 O654 2.121 . S
Mn649 N656 2.257 . S
Mn649 N665 2.282 . S
Mn649 O673 2.215 . S
Mn649 O675 2.117 . S
C650 O672 1.234 . S
C650 O673 1.283 . S
C651 O663 1.281 . S
C651 O664 1.236 . S
C652 O674 1.240 . S
C652 O675 1.264 . S
O653 Mn648 2.095 . S
O653 C662 1.250 . S
O654 Mn649 2.121 . S
O654 C662 1.258 . S
C655 N656 1.326 . S
C655 C659 1.460 . S
C655 H661 0.929 . S
N656 Mn649 2.257 . S
N656 C655 1.326 . S
N656 C660 1.362 . S
C657 C658 1.258 . S
C657 C660 1.431 . S
C657 C677 1.449 . S
C658 C657 1.258 . S
C658 C659 1.477 . S
C658 H678 0.931 . S
C659 C655 1.460 . S
C659 C658 1.477 . S
C659 H679 0.930 . S
C660 N656 1.362 . S
C660 C657 1.431 . S
C660 C670 1.476 . S
H661 C655 0.929 . S
C662 O653 1.250 . S
C662 O654 1.258 . S
O663 Mn648 2.162 . S
O663 C651 1.281 . S
O664 Mn648 2.297 . S
O664 C651 1.236 . S
N665 Mn649 2.282 . S
N665 C666 1.328 . S
N665 C670 1.318 . S
C666 N665 1.328 . S
C666 C667 1.457 . S
C666 H671 0.929 . S
C667 C666 1.457 . S
C667 C668 1.291 . S
C667 H680 0.931 . S
C668 C667 1.291 . S
C668 C669 1.373 . S
C668 H681 0.929 . S
C669 C668 1.373 . S
C669 C670 1.396 . S
C669 C676 1.403 . S
C670 C660 1.476 . S
C670 N665 1.318 . S
C670 C669 1.396 . S
H671 C666 0.929 . S
O672 Mn648 2.385 . S
O672 C650 1.234 . S
O673 Mn648 2.209 . S
O673 Mn649 2.215 . S
O673 C650 1.283 . S
O674 Mn648 2.094 . S
O674 C652 1.240 . S
O675 Mn649 2.117 . S
O675 C652 1.264 . S
C676 C669 1.403 . S
C676 C677 1.399 . S
C676 H682 0.929 . S
C677 C657 1.449 . S
C677 C676 1.399 . S
C677 H683 0.930 . S
H678 C658 0.931 . S
H679 C659 0.930 . S
H680 C667 0.931 . S
H681 C668 0.929 . S
H682 C676 0.929 . S
H683 C677 0.930 . S
Mn684 O689 2.095 1_545 S
Mn684 O699 2.162 . S
Mn684 O700 2.297 . S
Mn684 O708 2.385 . S
Mn684 O709 2.209 . S
Mn684 O710 2.094 . S
Mn685 O690 2.121 1_545 S
Mn685 N692 2.257 . S
Mn685 N701 2.282 . S
Mn685 O709 2.215 . S
Mn685 O711 2.117 . S
C686 O708 1.234 . S
C686 O709 1.283 . S
C687 O699 1.281 . S
C687 O700 1.236 . S
C688 O710 1.240 . S
C688 O711 1.264 . S
O689 Mn684 2.095 1_565 S
O689 C698 1.250 . S
O690 Mn685 2.121 1_565 S
O690 C698 1.258 . S
C691 N692 1.326 . S
C691 C695 1.460 . S
C691 H697 0.929 . S
N692 Mn685 2.257 . S
N692 C691 1.326 . S
N692 C696 1.362 . S
C693 C694 1.258 . S
C693 C696 1.431 . S
C693 C713 1.449 . S
C694 C693 1.258 . S
C694 C695 1.477 . S
C694 H714 0.931 . S
C695 C691 1.460 . S
C695 C694 1.477 . S
C695 H715 0.930 . S
C696 N692 1.362 . S
C696 C693 1.431 . S
C696 C706 1.476 . S
H697 C691 0.929 . S
C698 O689 1.250 . S
C698 O690 1.258 . S
O699 Mn684 2.162 . S
O699 C687 1.281 . S
O700 Mn684 2.297 . S
O700 C687 1.236 . S
N701 Mn685 2.282 . S
N701 C702 1.328 . S
N701 C706 1.318 . S
C702 N701 1.328 . S
C702 C703 1.457 . S
C702 H707 0.929 . S
C703 C702 1.457 . S
C703 C704 1.291 . S
C703 H716 0.931 . S
C704 C703 1.291 . S
C704 C705 1.373 . S
C704 H717 0.929 . S
C705 C704 1.373 . S
C705 C706 1.396 . S
C705 C712 1.403 . S
C706 C696 1.476 . S
C706 N701 1.318 . S
C706 C705 1.396 . S
H707 C702 0.929 . S
O708 Mn684 2.385 . S
O708 C686 1.234 . S
O709 Mn684 2.209 . S
O709 Mn685 2.215 . S
O709 C686 1.283 . S
O710 Mn684 2.094 . S
O710 C688 1.240 . S
O711 Mn685 2.117 . S
O711 C688 1.264 . S
C712 C705 1.403 . S
C712 C713 1.399 . S
C712 H718 0.929 . S
C713 C693 1.449 . S
C713 C712 1.399 . S
C713 H719 0.930 . S
H714 C694 0.931 . S
H715 C695 0.930 . S
H716 C703 0.931 . S
H717 C704 0.929 . S
H718 C712 0.929 . S
H719 C713 0.930 . S
Mn720 O725 2.088 1_554 S
Mn720 O735 2.162 . S
Mn720 O736 2.297 . S
Mn720 O744 2.385 . S
Mn720 O745 2.209 1_554 S
Mn720 O746 2.094 1_554 S
Mn721 O726 2.121 . S
Mn721 N728 2.257 . S
Mn721 N737 2.282 . S
Mn721 O745 2.215 . S
Mn721 O747 2.117 . S
C722 O744 1.234 1_556 S
C722 O745 1.283 . S
C723 O735 1.281 . S
C723 O736 1.236 . S
C724 O746 1.240 . S
C724 O747 1.264 . S
O725 Mn720 2.088 1_556 S
O725 C734 1.254 . S
O726 Mn721 2.121 . S
O726 C734 1.258 . S
C727 N728 1.326 . S
C727 C731 1.460 . S
C727 H733 0.929 . S
N728 Mn721 2.257 . S
N728 C727 1.326 . S
N728 C732 1.362 . S
C729 C730 1.258 . S
C729 C732 1.431 . S
C729 C749 1.449 . S
C730 C729 1.258 . S
C730 C731 1.477 . S
C730 H750 0.931 . S
C731 C727 1.460 . S
C731 C730 1.477 . S
C731 H751 0.930 . S
C732 N728 1.362 . S
C732 C729 1.431 . S
C732 C742 1.476 . S
H733 C727 0.929 . S
C734 O725 1.254 . S
C734 O726 1.258 . S
O735 Mn720 2.162 . S
O735 C723 1.281 . S
O736 Mn720 2.297 . S
O736 C723 1.236 . S
N737 Mn721 2.282 . S
N737 C738 1.328 . S
N737 C742 1.318 . S
C738 N737 1.328 . S
C738 C739 1.457 . S
C738 H743 0.929 . S
C739 C738 1.457 . S
C739 C740 1.291 . S
C739 H752 0.931 . S
C740 C739 1.291 . S
C740 C741 1.373 . S
C740 H753 0.929 . S
C741 C740 1.373 . S
C741 C742 1.396 . S
C741 C748 1.403 . S
C742 C732 1.476 . S
C742 N737 1.318 . S
C742 C741 1.396 . S
H743 C738 0.929 . S
O744 Mn720 2.385 . S
O744 C722 1.234 1_554 S
O745 Mn720 2.209 1_556 S
O745 Mn721 2.215 . S
O745 C722 1.283 . S
O746 Mn720 2.094 1_556 S
O746 C724 1.240 . S
O747 Mn721 2.117 . S
O747 C724 1.264 . S
C748 C741 1.403 . S
C748 C749 1.399 . S
C748 H754 0.929 . S
C749 C729 1.449 . S
C749 C748 1.399 . S
C749 H755 0.930 . S
H750 C730 0.931 . S
H751 C731 0.930 . S
H752 C739 0.931 . S
H753 C740 0.929 . S
H754 C748 0.929 . S
H755 C749 0.930 . S
Mn756 O761 2.095 . S
Mn756 O771 2.162 . S
Mn756 O772 2.297 . S
Mn756 O780 2.385 . S
Mn756 O781 2.209 . S
Mn756 O782 2.094 . S
Mn757 O762 2.121 . S
Mn757 N764 2.257 . S
Mn757 N773 2.282 . S
Mn757 O781 2.215 . S
Mn757 O783 2.117 . S
C758 O780 1.234 . S
C758 O781 1.283 . S
C759 O771 1.281 . S
C759 O772 1.236 . S
C760 O782 1.240 . S
C760 O783 1.264 . S
O761 Mn756 2.095 . S
O761 C770 1.250 . S
O762 Mn757 2.121 . S
O762 C770 1.258 . S
C763 N764 1.326 . S
C763 C767 1.460 . S
C763 H769 0.929 . S
N764 Mn757 2.257 . S
N764 C763 1.326 . S
N764 C768 1.362 . S
C765 C766 1.258 . S
C765 C768 1.431 . S
C765 C785 1.449 . S
C766 C765 1.258 . S
C766 C767 1.477 . S
C766 H786 0.931 . S
C767 C763 1.460 . S
C767 C766 1.477 . S
C767 H787 0.930 . S
C768 N764 1.362 . S
C768 C765 1.431 . S
C768 C778 1.476 . S
H769 C763 0.929 . S
C770 O761 1.250 . S
C770 O762 1.258 . S
O771 Mn756 2.162 . S
O771 C759 1.281 . S
O772 Mn756 2.297 . S
O772 C759 1.236 . S
N773 Mn757 2.282 . S
N773 C774 1.328 . S
N773 C778 1.318 . S
C774 N773 1.328 . S
C774 C775 1.457 . S
C774 H779 0.929 . S
C775 C774 1.457 . S
C775 C776 1.291 . S
C775 H788 0.931 . S
C776 C775 1.291 . S
C776 C777 1.373 . S
C776 H789 0.929 . S
C777 C776 1.373 . S
C777 C778 1.396 . S
C777 C784 1.403 . S
C778 C768 1.476 . S
C778 N773 1.318 . S
C778 C777 1.396 . S
H779 C774 0.929 . S
O780 Mn756 2.385 . S
O780 C758 1.234 . S
O781 Mn756 2.209 . S
O781 Mn757 2.215 . S
O781 C758 1.283 . S
O782 Mn756 2.094 . S
O782 C760 1.240 . S
O783 Mn757 2.117 . S
O783 C760 1.264 . S
C784 C777 1.403 . S
C784 C785 1.399 . S
C784 H790 0.929 . S
C785 C765 1.449 . S
C785 C784 1.399 . S
C785 H791 0.930 . S
H786 C766 0.931 . S
H787 C767 0.930 . S
H788 C775 0.931 . S
H789 C776 0.929 . S
H790 C784 0.929 . S
H791 C785 0.930 . S
Mn792 O797 2.095 . S
Mn792 O807 2.162 . S
Mn792 O808 2.297 . S
Mn792 O816 2.385 . S
Mn792 O817 2.209 . S
Mn792 O818 2.094 . S
Mn793 O798 2.121 . S
Mn793 N800 2.257 . S
Mn793 N809 2.282 . S
Mn793 O817 2.215 . S
Mn793 O819 2.117 . S
C794 O816 1.234 . S
C794 O817 1.283 . S
C795 O807 1.281 . S
C795 O808 1.236 . S
C796 O818 1.240 . S
C796 O819 1.264 . S
O797 Mn792 2.095 . S
O797 C806 1.250 . S
O798 Mn793 2.121 . S
O798 C806 1.258 . S
C799 N800 1.326 . S
C799 C803 1.460 . S
C799 H805 0.929 . S
N800 Mn793 2.257 . S
N800 C799 1.326 . S
N800 C804 1.362 . S
C801 C802 1.258 . S
C801 C804 1.431 . S
C801 C821 1.449 . S
C802 C801 1.258 . S
C802 C803 1.477 . S
C802 H822 0.931 . S
C803 C799 1.460 . S
C803 C802 1.477 . S
C803 H823 0.930 . S
C804 N800 1.362 . S
C804 C801 1.431 . S
C804 C814 1.476 . S
H805 C799 0.929 . S
C806 O797 1.250 . S
C806 O798 1.258 . S
O807 Mn792 2.162 . S
O807 C795 1.281 . S
O808 Mn792 2.297 . S
O808 C795 1.236 . S
N809 Mn793 2.282 . S
N809 C810 1.328 . S
N809 C814 1.318 . S
C810 N809 1.328 . S
C810 C811 1.457 . S
C810 H815 0.929 . S
C811 C810 1.457 . S
C811 C812 1.291 . S
C811 H824 0.931 . S
C812 C811 1.291 . S
C812 C813 1.373 . S
C812 H825 0.929 . S
C813 C812 1.373 . S
C813 C814 1.396 . S
C813 C820 1.403 . S
C814 C804 1.476 . S
C814 N809 1.318 . S
C814 C813 1.396 . S
H815 C810 0.929 . S
O816 Mn792 2.385 . S
O816 C794 1.234 . S
O817 Mn792 2.209 . S
O817 Mn793 2.215 . S
O817 C794 1.283 . S
O818 Mn792 2.094 . S
O818 C796 1.240 . S
O819 Mn793 2.117 . S
O819 C796 1.264 . S
C820 C813 1.403 . S
C820 C821 1.399 . S
C820 H826 0.929 . S
C821 C801 1.449 . S
C821 C820 1.399 . S
C821 H827 0.930 . S
H822 C802 0.931 . S
H823 C803 0.930 . S
H824 C811 0.931 . S
H825 C812 0.929 . S
H826 C820 0.929 . S
H827 C821 0.930 . S
Mn828 O833 2.095 . S
Mn828 O843 2.162 . S
Mn828 O844 2.297 . S
Mn828 O852 2.385 . S
Mn828 O853 2.209 . S
Mn828 O854 2.094 . S
Mn829 O834 2.121 . S
Mn829 N836 2.257 . S
Mn829 N845 2.282 . S
Mn829 O853 2.215 . S
Mn829 O855 2.117 . S
C830 O852 1.234 . S
C830 O853 1.283 . S
C831 O843 1.281 . S
C831 O844 1.236 . S
C832 O854 1.240 . S
C832 O855 1.264 . S
O833 Mn828 2.095 . S
O833 C842 1.250 . S
O834 Mn829 2.121 . S
O834 C842 1.258 . S
C835 N836 1.326 . S
C835 C839 1.460 . S
C835 H841 0.929 . S
N836 Mn829 2.257 . S
N836 C835 1.326 . S
N836 C840 1.362 . S
C837 C838 1.258 . S
C837 C840 1.431 . S
C837 C857 1.449 . S
C838 C837 1.258 . S
C838 C839 1.477 . S
C838 H858 0.931 . S
C839 C835 1.460 . S
C839 C838 1.477 . S
C839 H859 0.930 . S
C840 N836 1.362 . S
C840 C837 1.431 . S
C840 C850 1.476 . S
H841 C835 0.929 . S
C842 O833 1.250 . S
C842 O834 1.258 . S
O843 Mn828 2.162 . S
O843 C831 1.281 . S
O844 Mn828 2.297 . S
O844 C831 1.236 . S
N845 Mn829 2.282 . S
N845 C846 1.328 . S
N845 C850 1.318 . S
C846 N845 1.328 . S
C846 C847 1.457 . S
C846 H851 0.929 . S
C847 C846 1.457 . S
C847 C848 1.291 . S
C847 H860 0.931 . S
C848 C847 1.291 . S
C848 C849 1.373 . S
C848 H861 0.929 . S
C849 C848 1.373 . S
C849 C850 1.396 . S
C849 C856 1.403 . S
C850 C840 1.476 . S
C850 N845 1.318 . S
C850 C849 1.396 . S
H851 C846 0.929 . S
O852 Mn828 2.385 . S
O852 C830 1.234 . S
O853 Mn828 2.209 . S
O853 Mn829 2.215 . S
O853 C830 1.283 . S
O854 Mn828 2.094 . S
O854 C832 1.240 . S
O855 Mn829 2.117 . S
O855 C832 1.264 . S
C856 C849 1.403 . S
C856 C857 1.399 . S
C856 H862 0.929 . S
C857 C837 1.449 . S
C857 C856 1.399 . S
C857 H863 0.930 . S
H858 C838 0.931 . S
H859 C839 0.930 . S
H860 C847 0.931 . S
H861 C848 0.929 . S
H862 C856 0.929 . S
H863 C857 0.930 . S
Tb864 O867 2.453 . S
Tb864 O868 2.596 . S
Tb864 O869 2.374 1_554 S
Tb864 O877 2.343 1_455 S
Tb864 O879 2.353 . S
Tb864 O881 2.427 . S
Tb864 O882 2.513 1_554 S
C865 O869 1.251 . S
C865 O871 1.263 1_445 S
Tb866 O868 2.343 1_665 S
Tb866 O871 2.353 1_554 S
Tb866 O874 2.427 . S
Tb866 O875 2.513 . S
Tb866 O876 2.453 1_564 S
Tb866 O877 2.596 1_565 S
Tb866 O878 2.374 1_565 S
O867 Tb864 2.453 . S
O867 C883 1.245 . S
O868 Tb864 2.596 . S
O868 Tb866 2.343 1_445 S
O868 C883 1.259 . S
O869 Tb864 2.374 1_556 S
O869 C865 1.251 . S
C870 O874 1.273 1_455 S
C870 O875 1.238 1_455 S
O871 C865 1.263 1_665 S
O871 Tb866 2.353 1_556 S
C872 O876 1.245 . S
C872 O877 1.259 1_556 S
C873 O878 1.250 . S
C873 O879 1.263 1_655 S
O874 Tb866 2.427 . S
O874 C870 1.273 1_655 S
O875 Tb866 2.513 . S
O875 C870 1.238 1_655 S
O876 Tb866 2.453 1_546 S
O876 C872 1.245 . S
O877 Tb864 2.343 1_655 S
O877 Tb866 2.596 1_545 S
O877 C872 1.259 1_554 S
O878 Tb866 2.374 1_545 S
O878 C873 1.250 . S
O879 Tb864 2.353 . S
O879 C873 1.263 1_455 S
C880 O881 1.275 1_556 S
C880 O882 1.246 . S
O881 Tb864 2.427 . S
O881 C880 1.275 1_554 S
O882 Tb864 2.513 1_556 S
O882 C880 1.246 . S
C883 O867 1.245 . S
C883 O868 1.259 . S
Tb884 O887 2.453 . S
Tb884 O888 2.596 . S
Tb884 O889 2.374 . S
Tb884 O897 2.343 . S
Tb884 O899 2.353 . S
Tb884 O901 2.427 . S
Tb884 O902 2.513 . S
C885 O889 1.251 . S
C885 O891 1.263 . S
Tb886 O888 2.343 . S
Tb886 O891 2.353 . S
Tb886 O894 2.427 . S
Tb886 O895 2.513 . S
Tb886 O896 2.453 . S
Tb886 O897 2.596 . S
Tb886 O898 2.374 . S
O887 Tb884 2.453 . S
O887 C903 1.245 . S
O888 Tb884 2.596 . S
O888 Tb886 2.343 . S
O888 C903 1.259 . S
O889 Tb884 2.374 . S
O889 C885 1.251 . S
C890 O894 1.275 . S
C890 O895 1.246 . S
O891 C885 1.263 . S
O891 Tb886 2.353 . S
C892 O896 1.245 . S
C892 O897 1.259 . S
C893 O898 1.250 . S
C893 O899 1.263 . S
O894 Tb886 2.427 . S
O894 C890 1.275 . S
O895 Tb886 2.513 . S
O895 C890 1.246 . S
O896 Tb886 2.453 . S
O896 C892 1.245 . S
O897 Tb884 2.343 . S
O897 Tb886 2.596 . S
O897 C892 1.259 . S
O898 Tb886 2.374 . S
O898 C893 1.250 . S
O899 Tb884 2.353 . S
O899 C893 1.263 . S
C900 O901 1.275 . S
C900 O902 1.246 . S
O901 Tb884 2.427 . S
O901 C900 1.275 . S
O902 Tb884 2.513 . S
O902 C900 1.246 . S
C903 O887 1.245 . S
C903 O888 1.259 . S
Tb904 O907 2.453 . S
Tb904 O908 2.596 . S
Tb904 O909 2.374 . S
Tb904 O917 2.343 . S
Tb904 O919 2.353 . S
Tb904 O921 2.427 . S
Tb904 O922 2.513 . S
C905 O909 1.251 . S
C905 O911 1.263 . S
Tb906 O908 2.343 . S
Tb906 O911 2.353 . S
Tb906 O914 2.427 . S
Tb906 O915 2.513 . S
Tb906 O916 2.453 1_545 S
Tb906 O917 2.596 . S
Tb906 O918 2.374 . S
O907 Tb904 2.453 . S
O907 C923 1.245 . S
O908 Tb904 2.596 . S
O908 Tb906 2.343 . S
O908 C923 1.259 . S
O909 Tb904 2.374 . S
O909 C905 1.251 . S
C910 O914 1.275 . S
C910 O915 1.246 . S
O911 C905 1.263 . S
O911 Tb906 2.353 . S
C912 O916 1.245 . S
C912 O917 1.259 1_565 S
C913 O918 1.250 . S
C913 O919 1.263 . S
O914 Tb906 2.427 . S
O914 C910 1.275 . S
O915 Tb906 2.513 . S
O915 C910 1.246 . S
O916 Tb906 2.453 1_565 S
O916 C912 1.245 . S
O917 Tb904 2.343 . S
O917 Tb906 2.596 . S
O917 C912 1.259 1_545 S
O918 Tb906 2.374 . S
O918 C913 1.250 . S
O919 Tb904 2.353 . S
O919 C913 1.263 . S
C920 O921 1.275 . S
C920 O922 1.246 . S
O921 Tb904 2.427 . S
O921 C920 1.275 . S
O922 Tb904 2.513 . S
O922 C920 1.246 . S
C923 O907 1.245 . S
C923 O908 1.259 . S
Tb924 O927 2.453 . S
Tb924 O928 2.596 . S
Tb924 O929 2.374 . S
Tb924 O937 2.343 . S
Tb924 O939 2.353 . S
Tb924 O941 2.427 . S
Tb924 O942 2.513 . S
C925 O929 1.251 . S
C925 O931 1.263 . S
Tb926 O928 2.343 . S
Tb926 O931 2.353 . S
Tb926 O934 2.427 . S
Tb926 O935 2.513 . S
Tb926 O936 2.453 . S
Tb926 O937 2.596 . S
Tb926 O938 2.374 . S
O927 Tb924 2.453 . S
O927 C943 1.245 . S
O928 Tb924 2.596 . S
O928 Tb926 2.343 . S
O928 C943 1.259 . S
O929 Tb924 2.374 . S
O929 C925 1.251 . S
C930 O934 1.275 . S
C930 O935 1.246 . S
O931 C925 1.263 . S
O931 Tb926 2.353 . S
C932 O936 1.245 . S
C932 O937 1.259 . S
C933 O938 1.250 . S
C933 O939 1.263 . S
O934 Tb926 2.427 . S
O934 C930 1.275 . S
O935 Tb926 2.513 . S
O935 C930 1.246 . S
O936 Tb926 2.453 . S
O936 C932 1.245 . S
O937 Tb924 2.343 . S
O937 Tb926 2.596 . S
O937 C932 1.259 . S
O938 Tb926 2.374 . S
O938 C933 1.250 . S
O939 Tb924 2.353 . S
O939 C933 1.263 . S
C940 O941 1.275 . S
C940 O942 1.246 . S
O941 Tb924 2.427 . S
O941 C940 1.275 . S
O942 Tb924 2.513 . S
O942 C940 1.246 . S
C943 O927 1.245 . S
C943 O928 1.259 . S
Tb944 O947 2.453 1_545 S
Tb944 O948 2.596 . S
Tb944 O949 2.374 1_455 S
Tb944 O957 2.343 . S
Tb944 O959 2.353 . S
Tb944 O961 2.427 . S
Tb944 O962 2.513 1_455 S
C945 O949 1.251 . S
C945 O951 1.263 . S
Tb946 O948 2.343 . S
Tb946 O951 2.353 1_455 S
Tb946 O954 2.427 . S
Tb946 O955 2.513 . S
Tb946 O956 2.452 . S
Tb946 O957 2.596 . S
Tb946 O958 2.374 . S
O947 Tb944 2.453 1_565 S
O947 C963 1.245 . S
O948 Tb944 2.596 . S
O948 Tb946 2.343 . S
O948 C963 1.259 1_545 S
O949 Tb944 2.374 1_655 S
O949 C945 1.251 . S
C950 O954 1.275 . S
C950 O955 1.246 . S
O951 C945 1.263 . S
O951 Tb946 2.353 1_655 S
C952 O956 1.244 . S
C952 O957 1.259 . S
C953 O958 1.250 . S
C953 O959 1.263 . S
O954 Tb946 2.427 . S
O954 C950 1.275 . S
O955 Tb946 2.513 . S
O955 C950 1.246 . S
O956 Tb946 2.452 . S
O956 C952 1.244 . S
O957 Tb944 2.343 . S
O957 Tb946 2.596 . S
O957 C952 1.259 . S
O958 Tb946 2.374 . S
O958 C953 1.250 . S
O959 Tb944 2.353 . S
O959 C953 1.263 . S
C960 O961 1.275 1_655 S
C960 O962 1.246 . S
O961 Tb944 2.427 . S
O961 C960 1.275 1_455 S
O962 Tb944 2.513 1_655 S
O962 C960 1.246 . S
C963 O947 1.245 . S
C963 O948 1.259 1_565 S
Tb964 O967 2.453 . S
Tb964 O968 2.596 . S
Tb964 O969 2.374 . S
Tb964 O977 2.343 . S
Tb964 O979 2.353 . S
Tb964 O981 2.427 . S
Tb964 O982 2.513 . S
C965 O969 1.251 . S
C965 O971 1.263 . S
Tb966 O968 2.343 . S
Tb966 O971 2.353 . S
Tb966 O974 2.427 . S
Tb966 O975 2.513 . S
Tb966 O976 2.453 . S
Tb966 O977 2.596 . S
Tb966 O978 2.374 . S
O967 Tb964 2.453 . S
O967 C983 1.245 . S
O968 Tb964 2.596 . S
O968 Tb966 2.343 . S
O968 C983 1.259 . S
O969 Tb964 2.374 . S
O969 C965 1.251 . S
C970 O974 1.275 . S
C970 O975 1.246 . S
O971 C965 1.263 . S
O971 Tb966 2.353 . S
C972 O976 1.245 . S
C972 O977 1.259 . S
C973 O978 1.250 . S
C973 O979 1.263 . S
O974 Tb966 2.427 . S
O974 C970 1.275 . S
O975 Tb966 2.513 . S
O975 C970 1.246 . S
O976 Tb966 2.453 . S
O976 C972 1.245 . S
O977 Tb964 2.343 . S
O977 Tb966 2.596 . S
O977 C972 1.259 . S
O978 Tb966 2.374 . S
O978 C973 1.250 . S
O979 Tb964 2.353 . S
O979 C973 1.263 . S
C980 O981 1.275 . S
C980 O982 1.246 . S
O981 Tb964 2.427 . S
O981 C980 1.275 . S
O982 Tb964 2.513 . S
O982 C980 1.246 . S
C983 O967 1.245 . S
C983 O968 1.259 . S
Tb984 O987 2.453 . S
Tb984 O988 2.596 . S
Tb984 O989 2.374 1_545 S
Tb984 O997 2.343 1_556 S
Tb984 O999 2.353 1_556 S
Tb984 O1001 2.427 1_556 S
Tb984 O1002 2.513 1_546 S
C985 O989 1.261 . S
C985 O991 1.231 1_556 S
Tb986 O988 2.343 1_554 S
Tb986 O991 2.353 1_545 S
Tb986 O994 2.427 . S
Tb986 O995 2.513 . S
Tb986 O996 2.453 . S
Tb986 O997 2.596 . S
Tb986 O998 2.374 . S
O987 Tb984 2.453 . S
O987 C1003 1.245 . S
O988 Tb984 2.596 . S
O988 Tb986 2.343 1_556 S
O988 C1003 1.259 . S
O989 Tb984 2.374 1_565 S
O989 C985 1.261 . S
C990 O994 1.275 . S
C990 O995 1.246 . S
O991 C985 1.231 1_554 S
O991 Tb986 2.353 1_565 S
C992 O996 1.245 . S
C992 O997 1.259 . S
C993 O998 1.250 . S
C993 O999 1.263 . S
O994 Tb986 2.427 . S
O994 C990 1.275 . S
O995 Tb986 2.513 . S
O995 C990 1.246 . S
O996 Tb986 2.453 . S
O996 C992 1.245 . S
O997 Tb984 2.343 1_554 S
O997 Tb986 2.596 . S
O997 C992 1.259 . S
O998 Tb986 2.374 . S
O998 C993 1.250 . S
O999 Tb984 2.353 1_554 S
O999 C993 1.263 . S
C1000 O1001 1.275 . S
C1000 O1002 1.246 1_545 S
O1001 Tb984 2.427 1_554 S
O1001 C1000 1.275 . S
O1002 Tb984 2.513 1_564 S
O1002 C1000 1.246 1_565 S
C1003 O987 1.245 . S
C1003 O988 1.259 . S
Tb1004 O1007 2.453 . S
Tb1004 O1008 2.596 . S
Tb1004 O1009 2.374 . S
Tb1004 O1017 2.343 . S
Tb1004 O1019 2.353 . S
Tb1004 O1021 2.427 . S
Tb1004 O1022 2.513 . S
C1005 O1009 1.251 . S
C1005 O1011 1.263 . S
Tb1006 O1008 2.343 . S
Tb1006 O1011 2.353 . S
Tb1006 O1014 2.427 . S
Tb1006 O1015 2.513 . S
Tb1006 O1016 2.453 . S
Tb1006 O1017 2.596 . S
Tb1006 O1018 2.374 . S
O1007 Tb1004 2.453 . S
O1007 C1023 1.245 . S
O1008 Tb1004 2.596 . S
O1008 Tb1006 2.343 . S
O1008 C1023 1.259 . S
O1009 Tb1004 2.374 . S
O1009 C1005 1.251 . S
C1010 O1014 1.275 . S
C1010 O1015 1.246 . S
O1011 C1005 1.263 . S
O1011 Tb1006 2.353 . S
C1012 O1016 1.245 . S
C1012 O1017 1.259 . S
C1013 O1018 1.250 . S
C1013 O1019 1.263 . S
O1014 Tb1006 2.427 . S
O1014 C1010 1.275 . S
O1015 Tb1006 2.513 . S
O1015 C1010 1.246 . S
O1016 Tb1006 2.453 . S
O1016 C1012 1.245 . S
O1017 Tb1004 2.343 . S
O1017 Tb1006 2.596 . S
O1017 C1012 1.259 . S
O1018 Tb1006 2.374 . S
O1018 C1013 1.250 . S
O1019 Tb1004 2.353 . S
O1019 C1013 1.263 . S
C1020 O1021 1.275 . S
C1020 O1022 1.246 . S
O1021 Tb1004 2.427 . S
O1021 C1020 1.275 . S
O1022 Tb1004 2.513 . S
O1022 C1020 1.246 . S
C1023 O1007 1.245 . S
C1023 O1008 1.259 . S
Tb1024 O1027 2.453 1_556 S
Tb1024 O1028 2.596 1_556 S
Tb1024 O1029 2.391 . S
Tb1024 O1037 2.343 . S
Tb1024 O1039 2.353 . S
Tb1024 O1041 2.427 . S
Tb1024 O1042 2.513 . S
C1025 O1029 1.220 1_554 S
C1025 O1031 1.263 . S
Tb1026 O1028 2.343 . S
Tb1026 O1031 2.353 . S
Tb1026 O1034 2.427 . S
Tb1026 O1035 2.513 . S
Tb1026 O1036 2.453 . S
Tb1026 O1037 2.596 1_554 S
Tb1026 O1038 2.374 . S
O1027 Tb1024 2.453 1_554 S
O1027 C1043 1.245 . S
O1028 Tb1024 2.596 1_554 S
O1028 Tb1026 2.343 . S
O1028 C1043 1.259 . S
O1029 Tb1024 2.391 . S
O1029 C1025 1.220 1_556 S
C1030 O1034 1.275 . S
C1030 O1035 1.246 . S
O1031 C1025 1.263 . S
O1031 Tb1026 2.353 . S
C1032 O1036 1.285 . S
C1032 O1037 1.257 1_554 S
C1033 O1038 1.250 . S
C1033 O1039 1.263 1_554 S
O1034 Tb1026 2.427 . S
O1034 C1030 1.275 . S
O1035 Tb1026 2.513 . S
O1035 C1030 1.246 . S
O1036 Tb1026 2.453 . S
O1036 C1032 1.285 . S
O1037 Tb1024 2.343 . S
O1037 Tb1026 2.596 1_556 S
O1037 C1032 1.257 1_556 S
O1038 Tb1026 2.374 . S
O1038 C1033 1.250 . S
O1039 Tb1024 2.353 . S
O1039 C1033 1.263 1_556 S
C1040 O1041 1.275 . S
C1040 O1042 1.246 . S
O1041 Tb1024 2.427 . S
O1041 C1040 1.275 . S
O1042 Tb1024 2.513 . S
O1042 C1040 1.246 . S
C1043 O1027 1.245 . S
C1043 O1028 1.259 . S
Tb1044 O1047 2.453 . S
Tb1044 O1048 2.596 . S
Tb1044 O1049 2.374 . S
Tb1044 O1057 2.343 . S
Tb1044 O1059 2.353 . S
Tb1044 O1061 2.427 . S
Tb1044 O1062 2.513 . S
C1045 O1049 1.251 . S
C1045 O1051 1.263 . S
Tb1046 O1048 2.343 . S
Tb1046 O1051 2.353 . S
Tb1046 O1054 2.427 . S
Tb1046 O1055 2.513 . S
Tb1046 O1056 2.453 . S
Tb1046 O1057 2.596 . S
Tb1046 O1058 2.374 . S
O1047 Tb1044 2.453 . S
O1047 C1063 1.245 . S
O1048 Tb1044 2.596 . S
O1048 Tb1046 2.343 . S
O1048 C1063 1.259 . S
O1049 Tb1044 2.374 . S
O1049 C1045 1.251 . S
C1050 O1054 1.275 . S
C1050 O1055 1.246 . S
O1051 C1045 1.263 . S
O1051 Tb1046 2.353 . S
C1052 O1056 1.245 . S
C1052 O1057 1.259 . S
C1053 O1058 1.250 . S
C1053 O1059 1.263 . S
O1054 Tb1046 2.427 . S
O1054 C1050 1.275 . S
O1055 Tb1046 2.513 . S
O1055 C1050 1.246 . S
O1056 Tb1046 2.453 . S
O1056 C1052 1.245 . S
O1057 Tb1044 2.343 . S
O1057 Tb1046 2.596 . S
O1057 C1052 1.259 . S
O1058 Tb1046 2.374 . S
O1058 C1053 1.250 . S
O1059 Tb1044 2.353 . S
O1059 C1053 1.263 . S
C1060 O1061 1.275 . S
C1060 O1062 1.246 . S
O1061 Tb1044 2.427 . S
O1061 C1060 1.275 . S
O1062 Tb1044 2.513 . S
O1062 C1060 1.246 . S
C1063 O1047 1.245 . S
C1063 O1048 1.259 . S
Tb1064 O1067 2.453 1_655 S
Tb1064 O1068 2.596 1_655 S
Tb1064 O1069 2.374 . S
Tb1064 O1077 2.343 . S
Tb1064 O1079 2.353 . S
Tb1064 O1081 2.427 . S
Tb1064 O1082 2.513 . S
C1065 O1069 1.251 1_455 S
C1065 O1071 1.263 . S
Tb1066 O1068 2.343 . S
Tb1066 O1071 2.353 . S
Tb1066 O1074 2.427 . S
Tb1066 O1075 2.513 . S
Tb1066 O1076 2.453 . S
Tb1066 O1077 2.596 1_455 S
Tb1066 O1078 2.374 . S
O1067 Tb1064 2.453 1_455 S
O1067 C1083 1.245 . S
O1068 Tb1064 2.596 1_455 S
O1068 Tb1066 2.343 . S
O1068 C1083 1.259 . S
O1069 Tb1064 2.374 . S
O1069 C1065 1.251 1_655 S
C1070 O1074 1.275 . S
C1070 O1075 1.246 . S
O1071 C1065 1.263 . S
O1071 Tb1066 2.353 . S
C1072 O1076 1.245 1_655 S
C1072 O1077 1.259 . S
C1073 O1078 1.250 . S
C1073 O1079 1.263 1_455 S
O1074 Tb1066 2.427 . S
O1074 C1070 1.275 . S
O1075 Tb1066 2.513 . S
O1075 C1070 1.246 . S
O1076 Tb1066 2.453 . S
O1076 C1072 1.245 1_455 S
O1077 Tb1064 2.343 . S
O1077 Tb1066 2.596 1_655 S
O1077 C1072 1.259 . S
O1078 Tb1066 2.374 . S
O1078 C1073 1.250 . S
O1079 Tb1064 2.353 . S
O1079 C1073 1.263 1_655 S
C1080 O1081 1.275 . S
C1080 O1082 1.246 . S
O1081 Tb1064 2.427 . S
O1081 C1080 1.275 . S
O1082 Tb1064 2.513 . S
O1082 C1080 1.246 . S
C1083 O1067 1.245 . S
C1083 O1068 1.259 . S
Tb1084 O1087 2.453 . S
Tb1084 O1088 2.596 . S
Tb1084 O1089 2.374 . S
Tb1084 O1097 2.343 . S
Tb1084 O1099 2.353 . S
Tb1084 O1101 2.427 . S
Tb1084 O1102 2.513 . S
C1085 O1089 1.251 . S
C1085 O1091 1.263 . S
Tb1086 O1088 2.343 . S
Tb1086 O1091 2.353 . S
Tb1086 O1094 2.427 . S
Tb1086 O1095 2.513 . S
Tb1086 O1096 2.453 . S
Tb1086 O1097 2.596 . S
Tb1086 O1098 2.374 . S
O1087 Tb1084 2.453 . S
O1087 C1103 1.245 . S
O1088 Tb1084 2.596 . S
O1088 Tb1086 2.343 . S
O1088 C1103 1.259 . S
O1089 Tb1084 2.374 . S
O1089 C1085 1.251 . S
C1090 O1094 1.275 . S
C1090 O1095 1.246 . S
O1091 C1085 1.263 . S
O1091 Tb1086 2.353 . S
C1092 O1096 1.245 . S
C1092 O1097 1.259 . S
C1093 O1098 1.250 . S
C1093 O1099 1.263 . S
O1094 Tb1086 2.427 . S
O1094 C1090 1.275 . S
O1095 Tb1086 2.513 . S
O1095 C1090 1.246 . S
O1096 Tb1086 2.453 . S
O1096 C1092 1.245 . S
O1097 Tb1084 2.343 . S
O1097 Tb1086 2.596 . S
O1097 C1092 1.259 . S
O1098 Tb1086 2.374 . S
O1098 C1093 1.250 . S
O1099 Tb1084 2.353 . S
O1099 C1093 1.263 . S
C1100 O1101 1.275 . S
C1100 O1102 1.246 . S
O1101 Tb1084 2.427 . S
O1101 C1100 1.275 . S
O1102 Tb1084 2.513 . S
O1102 C1100 1.246 . S
C1103 O1087 1.245 . S
C1103 O1088 1.259 . S
Tb1104 O1107 2.453 . S
Tb1104 O1108 2.596 . S
Tb1104 O1109 2.374 . S
Tb1104 O1117 2.343 . S
Tb1104 O1119 2.353 . S
Tb1104 O1121 2.427 . S
Tb1104 O1122 2.513 . S
C1105 O1109 1.251 . S
C1105 O1111 1.263 . S
Tb1106 O1108 2.343 . S
Tb1106 O1111 2.353 . S
Tb1106 O1114 2.427 . S
Tb1106 O1115 2.513 . S
Tb1106 O1116 2.453 . S
Tb1106 O1117 2.596 . S
Tb1106 O1118 2.374 . S
O1107 Tb1104 2.453 . S
O1107 C1123 1.245 . S
O1108 Tb1104 2.596 . S
O1108 Tb1106 2.343 . S
O1108 C1123 1.259 . S
O1109 Tb1104 2.374 . S
O1109 C1105 1.251 . S
C1110 O1114 1.275 . S
C1110 O1115 1.246 . S
O1111 C1105 1.263 . S
O1111 Tb1106 2.353 . S
C1112 O1116 1.245 . S
C1112 O1117 1.259 . S
C1113 O1118 1.250 . S
C1113 O1119 1.263 . S
O1114 Tb1106 2.427 . S
O1114 C1110 1.275 . S
O1115 Tb1106 2.513 . S
O1115 C1110 1.246 . S
O1116 Tb1106 2.453 . S
O1116 C1112 1.245 . S
O1117 Tb1104 2.343 . S
O1117 Tb1106 2.596 . S
O1117 C1112 1.259 . S
O1118 Tb1106 2.374 . S
O1118 C1113 1.250 . S
O1119 Tb1104 2.353 . S
O1119 C1113 1.263 . S
C1120 O1121 1.275 . S
C1120 O1122 1.246 . S
O1121 Tb1104 2.427 . S
O1121 C1120 1.275 . S
O1122 Tb1104 2.513 . S
O1122 C1120 1.246 . S
C1123 O1107 1.245 . S
C1123 O1108 1.259 . S
Tb1124 O1127 2.453 . S
Tb1124 O1128 2.596 . S
Tb1124 O1129 2.374 . S
Tb1124 O1137 2.343 . S
Tb1124 O1139 2.353 . S
Tb1124 O1141 2.427 . S
Tb1124 O1142 2.513 . S
C1125 O1129 1.251 . S
C1125 O1131 1.263 . S
Tb1126 O1128 2.343 . S
Tb1126 O1131 2.353 . S
Tb1126 O1134 2.427 . S
Tb1126 O1135 2.513 . S
Tb1126 O1136 2.453 . S
Tb1126 O1137 2.596 . S
Tb1126 O1138 2.374 . S
O1127 Tb1124 2.453 . S
O1127 C1143 1.245 . S
O1128 Tb1124 2.596 . S
O1128 Tb1126 2.343 . S
O1128 C1143 1.259 . S
O1129 Tb1124 2.374 . S
O1129 C1125 1.251 . S
C1130 O1134 1.275 . S
C1130 O1135 1.246 . S
O1131 C1125 1.263 . S
O1131 Tb1126 2.353 . S
C1132 O1136 1.245 . S
C1132 O1137 1.259 . S
C1133 O1138 1.250 . S
C1133 O1139 1.263 . S
O1134 Tb1126 2.427 . S
O1134 C1130 1.275 . S
O1135 Tb1126 2.513 . S
O1135 C1130 1.246 . S
O1136 Tb1126 2.453 . S
O1136 C1132 1.245 . S
O1137 Tb1124 2.343 . S
O1137 Tb1126 2.596 . S
O1137 C1132 1.259 . S
O1138 Tb1126 2.374 . S
O1138 C1133 1.250 . S
O1139 Tb1124 2.353 . S
O1139 C1133 1.263 . S
C1140 O1141 1.275 . S
C1140 O1142 1.246 . S
O1141 Tb1124 2.427 . S
O1141 C1140 1.275 . S
O1142 Tb1124 2.513 . S
O1142 C1140 1.246 . S
C1143 O1127 1.245 . S
C1143 O1128 1.259 . S
Tb1144 O1147 2.453 . S
Tb1144 O1148 2.596 . S
Tb1144 O1149 2.374 . S
Tb1144 O1157 2.343 . S
Tb1144 O1159 2.353 . S
Tb1144 O1161 2.427 . S
Tb1144 O1162 2.513 . S
C1145 O1149 1.251 . S
C1145 O1151 1.263 . S
Tb1146 O1148 2.343 . S
Tb1146 O1151 2.353 . S
Tb1146 O1154 2.427 . S
Tb1146 O1155 2.513 . S
Tb1146 O1156 2.453 . S
Tb1146 O1157 2.596 . S
Tb1146 O1158 2.374 . S
O1147 Tb1144 2.453 . S
O1147 C1163 1.245 . S
O1148 Tb1144 2.596 . S
O1148 Tb1146 2.343 . S
O1148 C1163 1.259 . S
O1149 Tb1144 2.374 . S
O1149 C1145 1.251 . S
C1150 O1154 1.275 . S
C1150 O1155 1.246 . S
O1151 C1145 1.263 . S
O1151 Tb1146 2.353 . S
C1152 O1156 1.245 . S
C1152 O1157 1.259 . S
C1153 O1158 1.250 . S
C1153 O1159 1.263 . S
O1154 Tb1146 2.427 . S
O1154 C1150 1.275 . S
O1155 Tb1146 2.513 . S
O1155 C1150 1.246 . S
O1156 Tb1146 2.453 . S
O1156 C1152 1.245 . S
O1157 Tb1144 2.343 . S
O1157 Tb1146 2.596 . S
O1157 C1152 1.259 . S
O1158 Tb1146 2.374 . S
O1158 C1153 1.250 . S
O1159 Tb1144 2.353 . S
O1159 C1153 1.263 . S
C1160 O1161 1.275 . S
C1160 O1162 1.246 . S
O1161 Tb1144 2.427 . S
O1161 C1160 1.275 . S
O1162 Tb1144 2.513 . S
O1162 C1160 1.246 . S
C1163 O1147 1.245 . S
C1163 O1148 1.259 . S
Tb1164 O1167 2.453 . S
Tb1164 O1168 2.596 . S
Tb1164 O1169 2.374 . S
Tb1164 O1177 2.343 . S
Tb1164 O1179 2.353 1_554 S
Tb1164 O1181 2.427 1_554 S
Tb1164 O1182 2.513 . S
C1165 O1169 1.251 . S
C1165 O1171 1.263 1_455 S
Tb1166 O1168 2.343 1_655 S
Tb1166 O1171 2.353 . S
Tb1166 O1174 2.427 . S
Tb1166 O1175 2.513 . S
Tb1166 O1176 2.453 . S
Tb1166 O1177 2.596 1_655 S
Tb1166 O1178 2.374 1_554 S
O1167 Tb1164 2.453 . S
O1167 C1183 1.245 . S
O1168 Tb1164 2.596 . S
O1168 Tb1166 2.343 1_455 S
O1168 C1183 1.259 . S
O1169 Tb1164 2.374 . S
O1169 C1165 1.251 . S
C1170 O1174 1.275 . S
C1170 O1175 1.246 . S
O1171 C1165 1.263 1_655 S
O1171 Tb1166 2.353 . S
C1172 O1176 1.245 1_456 S
C1172 O1177 1.259 1_556 S
C1173 O1178 1.250 1_455 S
C1173 O1179 1.263 . S
O1174 Tb1166 2.427 . S
O1174 C1170 1.275 . S
O1175 Tb1166 2.513 . S
O1175 C1170 1.246 . S
O1176 Tb1166 2.453 . S
O1176 C1172 1.245 1_654 S
O1177 Tb1164 2.343 . S
O1177 Tb1166 2.596 1_455 S
O1177 C1172 1.259 1_554 S
O1178 Tb1166 2.374 1_556 S
O1178 C1173 1.250 1_655 S
O1179 Tb1164 2.353 1_556 S
O1179 C1173 1.263 . S
C1180 O1181 1.275 . S
C1180 O1182 1.246 1_556 S
O1181 Tb1164 2.427 1_556 S
O1181 C1180 1.275 . S
O1182 Tb1164 2.513 . S
O1182 C1180 1.246 1_554 S
C1183 O1167 1.245 . S
C1183 O1168 1.259 . S
H1184 C1190 0.930 . S
H1185 C1194 0.930 1_554 S
H1186 C1199 0.929 . S
H1187 C1197 0.929 . S
H1188 C1192 0.929 . S
H1189 C1198 0.929 . S
C1190 H1184 0.930 . S
C1190 C1191 1.367 1_655 S
C1190 C1198 1.378 . S
C1191 C1190 1.367 1_455 S
C1191 C1199 1.433 . S
C1192 H1188 0.929 . S
C1192 C1194 1.378 . S
C1192 C1196 1.350 . S
C1193 C1196 1.463 . S
C1193 C1198 1.350 1_455 S
C1193 N1201 1.427 . S
C1194 H1185 0.930 1_556 S
C1194 C1192 1.378 . S
C1194 C1195 1.367 . S
C1195 C1194 1.367 . S
C1195 C1197 1.433 1_455 S
C1196 C1192 1.350 . S
C1196 C1193 1.463 . S
C1196 N1200 1.427 1_455 S
C1197 H1187 0.929 . S
C1197 C1195 1.433 1_655 S
C1197 N1200 1.384 . S
C1198 H1189 0.929 . S
C1198 C1190 1.378 . S
C1198 C1193 1.350 1_655 S
C1199 H1186 0.929 . S
C1199 C1191 1.433 . S
C1199 N1201 1.384 . S
N1200 C1196 1.427 1_655 S
N1200 C1197 1.384 . S
N1201 C1193 1.427 . S
N1201 C1199 1.384 . S
H1202 C1208 0.930 . S
H1203 C1212 0.930 . S
H1204 C1217 0.929 . S
H1205 C1215 0.929 . S
H1206 C1210 0.929 . S
H1207 C1216 0.929 . S
C1208 H1202 0.930 . S
C1208 C1209 1.367 . S
C1208 C1216 1.378 . S
C1209 C1208 1.367 . S
C1209 C1217 1.433 . S
C1210 H1206 0.929 . S
C1210 C1212 1.378 . S
C1210 C1214 1.350 . S
C1211 C1214 1.463 . S
C1211 C1216 1.350 . S
C1211 N1219 1.427 . S
C1212 H1203 0.930 . S
C1212 C1210 1.378 . S
C1212 C1213 1.367 . S
C1213 C1212 1.367 . S
C1213 C1215 1.433 . S
C1214 C1210 1.350 . S
C1214 C1211 1.463 . S
C1214 N1218 1.427 . S
C1215 H1205 0.929 . S
C1215 C1213 1.433 . S
C1215 N1218 1.384 . S
C1216 H1207 0.929 . S
C1216 C1208 1.378 . S
C1216 C1211 1.350 . S
C1217 H1204 0.929 . S
C1217 C1209 1.433 . S
C1217 N1219 1.384 . S
N1218 C1214 1.427 . S
N1218 C1215 1.384 . S
N1219 C1211 1.427 . S
N1219 C1217 1.384 . S
H1220 C1226 0.930 . S
H1221 C1230 0.930 . S
H1222 C1235 0.929 . S
H1223 C1233 0.929 . S
H1224 C1228 0.929 . S
H1225 C1234 0.929 . S
C1226 H1220 0.930 . S
C1226 C1227 1.367 . S
C1226 C1234 1.378 . S
C1227 C1226 1.367 . S
C1227 C1235 1.433 . S
C1228 H1224 0.929 . S
C1228 C1230 1.378 . S
C1228 C1232 1.350 . S
C1229 C1232 1.463 . S
C1229 C1234 1.350 . S
C1229 N1237 1.427 . S
C1230 H1221 0.930 . S
C1230 C1228 1.378 . S
C1230 C1231 1.367 . S
C1231 C1230 1.367 . S
C1231 C1233 1.433 . S
C1232 C1228 1.350 . S
C1232 C1229 1.463 . S
C1232 N1236 1.427 . S
C1233 H1223 0.929 . S
C1233 C1231 1.433 . S
C1233 N1236 1.384 . S
C1234 H1225 0.929 . S
C1234 C1226 1.378 . S
C1234 C1229 1.350 . S
C1235 H1222 0.929 . S
C1235 C1227 1.433 . S
C1235 N1237 1.384 . S
N1236 C1232 1.427 . S
N1236 C1233 1.384 . S
N1237 C1229 1.427 . S
N1237 C1235 1.384 . S
H1238 C1244 0.930 . S
H1239 C1248 0.930 . S
H1240 C1253 0.929 . S
H1241 C1251 0.929 . S
H1242 C1246 0.929 . S
H1243 C1252 0.929 . S
C1244 H1238 0.930 . S
C1244 C1245 1.367 . S
C1244 C1252 1.378 . S
C1245 C1244 1.367 . S
C1245 C1253 1.433 . S
C1246 H1242 0.929 . S
C1246 C1248 1.378 . S
C1246 C1250 1.350 . S
C1247 C1250 1.463 . S
C1247 C1252 1.350 . S
C1247 N1255 1.427 . S
C1248 H1239 0.930 . S
C1248 C1246 1.378 . S
C1248 C1249 1.367 . S
C1249 C1248 1.367 . S
C1249 C1251 1.433 . S
C1250 C1246 1.350 . S
C1250 C1247 1.463 . S
C1250 N1254 1.427 . S
C1251 H1241 0.929 . S
C1251 C1249 1.433 . S
C1251 N1254 1.384 . S
C1252 H1243 0.929 . S
C1252 C1244 1.378 . S
C1252 C1247 1.350 . S
C1253 H1240 0.929 . S
C1253 C1245 1.433 . S
C1253 N1255 1.384 . S
N1254 C1250 1.427 . S
N1254 C1251 1.384 . S
N1255 C1247 1.427 . S
N1255 C1253 1.384 . S
H1256 C1262 0.930 . S
H1257 C1266 0.930 . S
H1258 C1271 0.929 . S
H1259 C1269 0.929 . S
H1260 C1264 0.929 . S
H1261 C1270 0.929 . S
C1262 H1256 0.930 . S
C1262 C1263 1.367 . S
C1262 C1270 1.378 . S
C1263 C1262 1.367 . S
C1263 C1271 1.433 1_455 S
C1264 H1260 0.929 . S
C1264 C1266 1.378 . S
C1264 C1268 1.350 1_655 S
C1265 C1268 1.463 . S
C1265 C1270 1.350 . S
C1265 N1273 1.427 1_455 S
C1266 H1257 0.930 . S
C1266 C1264 1.378 . S
C1266 C1267 1.367 1_655 S
C1267 C1266 1.367 1_455 S
C1267 C1269 1.433 . S
C1268 C1264 1.350 1_455 S
C1268 C1265 1.463 . S
C1268 N1272 1.427 . S
C1269 H1259 0.929 . S
C1269 C1267 1.433 . S
C1269 N1272 1.384 . S
C1270 H1261 0.929 . S
C1270 C1262 1.378 . S
C1270 C1265 1.350 . S
C1271 H1258 0.929 . S
C1271 C1263 1.433 1_655 S
C1271 N1273 1.384 . S
N1272 C1268 1.427 . S
N1272 C1269 1.384 . S
N1273 C1265 1.427 1_655 S
N1273 C1271 1.384 . S
H1274 C1280 0.930 . S
H1275 C1284 0.930 . S
H1276 C1289 0.929 . S
H1277 C1287 0.929 . S
H1278 C1282 0.929 . S
H1279 C1288 0.929 . S
C1280 H1274 0.930 . S
C1280 C1281 1.367 . S
C1280 C1288 1.378 . S
C1281 C1280 1.367 . S
C1281 C1289 1.433 . S
C1282 H1278 0.929 . S
C1282 C1284 1.378 . S
C1282 C1286 1.350 . S
C1283 C1286 1.463 . S
C1283 C1288 1.350 . S
C1283 N1291 1.427 . S
C1284 H1275 0.930 . S
C1284 C1282 1.378 . S
C1284 C1285 1.367 . S
C1285 C1284 1.367 . S
C1285 C1287 1.433 . S
C1286 C1282 1.350 . S
C1286 C1283 1.463 . S
C1286 N1290 1.427 . S
C1287 H1277 0.929 . S
C1287 C1285 1.433 . S
C1287 N1290 1.384 . S
C1288 H1279 0.929 . S
C1288 C1280 1.378 . S
C1288 C1283 1.350 . S
C1289 H1276 0.929 . S
C1289 C1281 1.433 . S
C1289 N1291 1.384 . S
N1290 C1286 1.427 . S
N1290 C1287 1.384 . S
N1291 C1283 1.427 . S
N1291 C1289 1.384 . S
H1292 C1298 0.930 . S
H1293 C1302 0.930 . S
H1294 C1307 0.929 . S
H1295 C1305 0.929 . S
H1296 C1300 0.929 . S
H1297 C1306 0.929 . S
C1298 H1292 0.930 . S
C1298 C1299 1.367 . S
C1298 C1306 1.378 . S
C1299 C1298 1.367 . S
C1299 C1307 1.433 . S
C1300 H1296 0.929 . S
C1300 C1302 1.378 . S
C1300 C1304 1.350 . S
C1301 C1304 1.463 . S
C1301 C1306 1.350 . S
C1301 N1309 1.427 . S
C1302 H1293 0.930 . S
C1302 C1300 1.378 . S
C1302 C1303 1.367 . S
C1303 C1302 1.367 . S
C1303 C1305 1.433 . S
C1304 C1300 1.350 . S
C1304 C1301 1.463 . S
C1304 N1308 1.427 . S
C1305 H1295 0.929 . S
C1305 C1303 1.433 . S
C1305 N1308 1.384 . S
C1306 H1297 0.929 . S
C1306 C1298 1.378 . S
C1306 C1301 1.350 . S
C1307 H1294 0.929 . S
C1307 C1299 1.433 . S
C1307 N1309 1.384 . S
N1308 C1304 1.427 . S
N1308 C1305 1.384 . S
N1309 C1301 1.427 . S
N1309 C1307 1.384 . S
H1310 C1316 0.930 . S
H1311 C1320 0.930 . S
H1312 C1325 0.929 . S
H1313 C1323 0.929 . S
H1314 C1318 0.929 . S
H1315 C1324 0.929 . S
C1316 H1310 0.930 . S
C1316 C1317 1.367 . S
C1316 C1324 1.378 . S
C1317 C1316 1.367 . S
C1317 C1325 1.433 . S
C1318 H1314 0.929 . S
C1318 C1320 1.378 . S
C1318 C1322 1.350 . S
C1319 C1322 1.463 . S
C1319 C1324 1.350 . S
C1319 N1327 1.427 . S
C1320 H1311 0.930 . S
C1320 C1318 1.378 . S
C1320 C1321 1.367 . S
C1321 C1320 1.367 . S
C1321 C1323 1.433 . S
C1322 C1318 1.350 . S
C1322 C1319 1.463 . S
C1322 N1326 1.427 . S
C1323 H1313 0.929 . S
C1323 C1321 1.433 . S
C1323 N1326 1.384 . S
C1324 H1315 0.929 . S
C1324 C1316 1.378 . S
C1324 C1319 1.350 . S
C1325 H1312 0.929 . S
C1325 C1317 1.433 . S
C1325 N1327 1.384 . S
N1326 C1322 1.427 . S
N1326 C1323 1.384 . S
N1327 C1319 1.427 . S
N1327 C1325 1.384 . S
H1328 C1334 0.930 . S
H1329 C1338 0.948 . S
H1330 C1343 0.929 . S
H1331 C1341 0.929 . S
H1332 C1336 0.929 . S
H1333 C1342 0.929 . S
C1334 H1328 0.930 . S
C1334 C1335 1.367 . S
C1334 C1342 1.378 . S
C1335 C1334 1.367 . S
C1335 C1343 1.433 . S
C1336 H1332 0.929 . S
C1336 C1338 1.378 . S
C1336 C1340 1.350 . S
C1337 C1340 1.463 . S
C1337 C1342 1.350 . S
C1337 N1345 1.427 . S
C1338 H1329 0.948 . S
C1338 C1336 1.378 . S
C1338 C1339 1.367 . S
C1339 C1338 1.367 . S
C1339 C1341 1.433 . S
C1340 C1336 1.350 . S
C1340 C1337 1.463 . S
C1340 N1344 1.427 . S
C1341 H1331 0.929 . S
C1341 C1339 1.433 . S
C1341 N1344 1.384 . S
C1342 H1333 0.929 . S
C1342 C1334 1.378 . S
C1342 C1337 1.350 . S
C1343 H1330 0.929 . S
C1343 C1335 1.433 . S
C1343 N1345 1.384 . S
N1344 C1340 1.427 . S
N1344 C1341 1.384 . S
N1345 C1337 1.427 . S
N1345 C1343 1.384 . S
H1346 C1352 0.930 . S
H1347 C1356 0.930 . S
H1348 C1361 0.929 . S
H1349 C1359 0.929 . S
H1350 C1354 0.929 . S
H1351 C1360 0.929 . S
C1352 H1346 0.930 . S
C1352 C1353 1.367 . S
C1352 C1360 1.378 . S
C1353 C1352 1.367 . S
C1353 C1361 1.433 . S
C1354 H1350 0.929 . S
C1354 C1356 1.378 . S
C1354 C1358 1.350 . S
C1355 C1358 1.463 . S
C1355 C1360 1.350 . S
C1355 N1363 1.427 . S
C1356 H1347 0.930 . S
C1356 C1354 1.378 . S
C1356 C1357 1.367 . S
C1357 C1356 1.367 . S
C1357 C1359 1.433 . S
C1358 C1354 1.350 . S
C1358 C1355 1.463 . S
C1358 N1362 1.427 . S
C1359 H1349 0.929 . S
C1359 C1357 1.433 . S
C1359 N1362 1.384 . S
C1360 H1351 0.929 . S
C1360 C1352 1.378 . S
C1360 C1355 1.350 . S
C1361 H1348 0.929 . S
C1361 C1353 1.433 . S
C1361 N1363 1.384 . S
N1362 C1358 1.427 . S
N1362 C1359 1.384 . S
N1363 C1355 1.427 . S
N1363 C1361 1.384 . S
H1364 C1370 0.930 . S
H1365 C1374 0.930 . S
H1366 C1379 0.929 1_565 S
H1367 C1377 0.929 . S
H1368 C1372 0.929 . S
H1369 C1378 0.929 . S
C1370 H1364 0.930 . S
C1370 C1371 1.367 . S
C1370 C1378 1.378 . S
C1371 C1370 1.367 . S
C1371 C1379 1.433 . S
C1372 H1368 0.929 . S
C1372 C1374 1.378 . S
C1372 C1376 1.350 . S
C1373 C1376 1.463 . S
C1373 C1378 1.350 . S
C1373 N1381 1.427 . S
C1374 H1365 0.930 . S
C1374 C1372 1.378 . S
C1374 C1375 1.367 . S
C1375 C1374 1.367 . S
C1375 C1377 1.433 . S
C1376 C1372 1.350 . S
C1376 C1373 1.463 . S
C1376 N1380 1.427 . S
C1377 H1367 0.929 . S
C1377 C1375 1.433 . S
C1377 N1380 1.384 . S
C1378 H1369 0.929 . S
C1378 C1370 1.378 . S
C1378 C1373 1.350 . S
C1379 H1366 0.929 1_545 S
C1379 C1371 1.433 . S
C1379 N1381 1.384 . S
N1380 C1376 1.427 . S
N1380 C1377 1.384 . S
N1381 C1373 1.427 . S
N1381 C1379 1.384 . S
H1382 C1388 0.930 . S
H1383 C1392 0.930 . S
H1384 C1397 0.929 . S
H1385 C1395 0.929 . S
H1386 C1390 0.929 . S
H1387 C1396 0.929 . S
C1388 H1382 0.930 . S
C1388 C1389 1.367 . S
C1388 C1396 1.378 . S
C1389 C1388 1.367 . S
C1389 C1397 1.433 . S
C1390 H1386 0.929 . S
C1390 C1392 1.378 . S
C1390 C1394 1.350 . S
C1391 C1394 1.463 . S
C1391 C1396 1.350 . S
C1391 N1399 1.427 . S
C1392 H1383 0.930 . S
C1392 C1390 1.378 . S
C1392 C1393 1.367 . S
C1393 C1392 1.367 . S
C1393 C1395 1.433 . S
C1394 C1390 1.350 . S
C1394 C1391 1.463 . S
C1394 N1398 1.427 . S
C1395 H1385 0.929 . S
C1395 C1393 1.433 . S
C1395 N1398 1.384 . S
C1396 H1387 0.929 . S
C1396 C1388 1.378 . S
C1396 C1391 1.350 . S
C1397 H1384 0.929 . S
C1397 C1389 1.433 . S
C1397 N1399 1.384 . S
N1398 C1394 1.427 . S
N1398 C1395 1.384 . S
N1399 C1391 1.427 . S
N1399 C1397 1.384 . S
H1400 C1406 0.930 . S
H1401 C1410 0.930 . S
H1402 C1415 0.929 . S
H1403 C1413 0.929 . S
H1404 C1408 0.929 . S
H1405 C1414 0.929 . S
C1406 H1400 0.930 . S
C1406 C1407 1.367 . S
C1406 C1414 1.378 . S
C1407 C1406 1.367 . S
C1407 C1415 1.433 . S
C1408 H1404 0.929 . S
C1408 C1410 1.378 . S
C1408 C1412 1.350 . S
C1409 C1412 1.463 . S
C1409 C1414 1.350 . S
C1409 N1417 1.427 . S
C1410 H1401 0.930 . S
C1410 C1408 1.378 . S
C1410 C1411 1.367 . S
C1411 C1410 1.367 . S
C1411 C1413 1.433 . S
C1412 C1408 1.350 . S
C1412 C1409 1.463 . S
C1412 N1416 1.427 . S
C1413 H1403 0.929 . S
C1413 C1411 1.433 . S
C1413 N1416 1.384 . S
C1414 H1405 0.929 . S
C1414 C1406 1.378 . S
C1414 C1409 1.350 . S
C1415 H1402 0.929 . S
C1415 C1407 1.433 . S
C1415 N1417 1.384 . S
N1416 C1412 1.427 . S
N1416 C1413 1.384 . S
N1417 C1409 1.427 . S
N1417 C1415 1.384 . S
H1418 C1424 0.930 . S
H1419 C1428 0.930 . S
H1420 C1433 0.929 . S
H1421 C1431 0.929 . S
H1422 C1426 0.929 . S
H1423 C1432 0.929 . S
C1424 H1418 0.930 . S
C1424 C1425 1.367 . S
C1424 C1432 1.378 . S
C1425 C1424 1.367 . S
C1425 C1433 1.433 . S
C1426 H1422 0.929 . S
C1426 C1428 1.378 . S
C1426 C1430 1.350 . S
C1427 C1430 1.463 . S
C1427 C1432 1.350 . S
C1427 N1435 1.427 . S
C1428 H1419 0.930 . S
C1428 C1426 1.378 . S
C1428 C1429 1.367 . S
C1429 C1428 1.367 . S
C1429 C1431 1.433 . S
C1430 C1426 1.350 . S
C1430 C1427 1.463 . S
C1430 N1434 1.427 . S
C1431 H1421 0.929 . S
C1431 C1429 1.433 . S
C1431 N1434 1.384 . S
C1432 H1423 0.929 . S
C1432 C1424 1.378 . S
C1432 C1427 1.350 . S
C1433 H1420 0.929 . S
C1433 C1425 1.433 . S
C1433 N1435 1.384 . S
N1434 C1430 1.427 . S
N1434 C1431 1.384 . S
N1435 C1427 1.427 . S
N1435 C1433 1.384 . S
H1436 C1442 0.930 . S
H1437 C1446 0.930 . S
H1438 C1451 0.929 . S
H1439 C1449 0.929 . S
H1440 C1444 0.929 . S
H1441 C1450 0.929 . S
C1442 H1436 0.930 . S
C1442 C1443 1.367 . S
C1442 C1450 1.378 . S
C1443 C1442 1.367 . S
C1443 C1451 1.433 . S
C1444 H1440 0.929 . S
C1444 C1446 1.378 . S
C1444 C1448 1.350 . S
C1445 C1448 1.463 . S
C1445 C1450 1.350 . S
C1445 N1453 1.427 . S
C1446 H1437 0.930 . S
C1446 C1444 1.378 . S
C1446 C1447 1.367 . S
C1447 C1446 1.367 . S
C1447 C1449 1.433 . S
C1448 C1444 1.350 . S
C1448 C1445 1.463 . S
C1448 N1452 1.427 . S
C1449 H1439 0.929 . S
C1449 C1447 1.433 . S
C1449 N1452 1.384 . S
C1450 H1441 0.929 . S
C1450 C1442 1.378 . S
C1450 C1445 1.350 . S
C1451 H1438 0.929 . S
C1451 C1443 1.433 . S
C1451 N1453 1.384 . S
N1452 C1448 1.427 . S
N1452 C1449 1.384 . S
N1453 C1445 1.427 . S
N1453 C1451 1.384 . S
H1454 C1460 0.930 . S
H1455 C1464 0.930 . S
H1456 C1469 0.929 . S
H1457 C1467 0.929 . S
H1458 C1462 0.929 . S
H1459 C1468 0.929 . S
C1460 H1454 0.930 . S
C1460 C1461 1.367 . S
C1460 C1468 1.378 . S
C1461 C1460 1.367 . S
C1461 C1469 1.433 . S
C1462 H1458 0.929 . S
C1462 C1464 1.378 . S
C1462 C1466 1.350 . S
C1463 C1466 1.463 . S
C1463 C1468 1.350 . S
C1463 N1471 1.427 . S
C1464 H1455 0.930 . S
C1464 C1462 1.378 . S
C1464 C1465 1.367 . S
C1465 C1464 1.367 . S
C1465 C1467 1.433 . S
C1466 C1462 1.350 . S
C1466 C1463 1.463 . S
C1466 N1470 1.427 . S
C1467 H1457 0.929 . S
C1467 C1465 1.433 . S
C1467 N1470 1.384 . S
C1468 H1459 0.929 . S
C1468 C1460 1.378 . S
C1468 C1463 1.350 . S
C1469 H1456 0.929 . S
C1469 C1461 1.433 . S
C1469 N1471 1.384 . S
N1470 C1466 1.427 . S
N1470 C1467 1.384 . S
N1471 C1463 1.427 . S
N1471 C1469 1.384 . S
H1472 C1478 0.930 . S
H1473 C1482 0.930 1_556 S
H1474 C1487 0.929 1_556 S
H1475 C1485 0.929 . S
H1476 C1480 0.929 1_556 S
H1477 C1486 0.929 . S
C1478 H1472 0.930 . S
C1478 C1479 1.367 . S
C1478 C1486 1.378 . S
C1479 C1478 1.367 . S
C1479 C1487 1.433 . S
C1480 H1476 0.929 1_554 S
C1480 C1482 1.378 . S
C1480 C1484 1.350 . S
C1481 C1484 1.463 . S
C1481 C1486 1.350 . S
C1481 N1489 1.427 . S
C1482 H1473 0.930 1_554 S
C1482 C1480 1.378 . S
C1482 C1483 1.367 . S
C1483 C1482 1.367 . S
C1483 C1485 1.433 . S
C1484 C1480 1.350 . S
C1484 C1481 1.463 . S
C1484 N1488 1.427 . S
C1485 H1475 0.929 . S
C1485 C1483 1.433 . S
C1485 N1488 1.384 . S
C1486 H1477 0.929 . S
C1486 C1478 1.378 . S
C1486 C1481 1.350 . S
C1487 H1474 0.929 1_554 S
C1487 C1479 1.433 . S
C1487 N1489 1.384 . S
N1488 C1484 1.427 . S
N1488 C1485 1.384 . S
N1489 C1481 1.427 . S
N1489 C1487 1.384 . S
H1490 C1496 0.930 . S
H1491 C1500 0.930 . S
H1492 C1505 0.929 . S
H1493 C1503 0.929 . S
H1494 C1498 0.929 . S
H1495 C1504 0.929 . S
C1496 H1490 0.930 . S
C1496 C1497 1.367 . S
C1496 C1504 1.378 . S
C1497 C1496 1.367 . S
C1497 C1505 1.433 1_556 S
C1498 H1494 0.929 . S
C1498 C1500 1.378 . S
C1498 C1502 1.350 . S
C1499 C1502 1.456 1_556 S
C1499 C1504 1.376 . S
C1499 N1507 1.406 1_556 S
C1500 H1491 0.930 . S
C1500 C1498 1.378 . S
C1500 C1501 1.367 . S
C1501 C1500 1.367 . S
C1501 C1503 1.433 1_554 S
C1502 C1498 1.350 . S
C1502 C1499 1.456 1_554 S
C1502 N1506 1.427 1_554 S
C1503 H1493 0.929 . S
C1503 C1501 1.433 1_556 S
C1503 N1506 1.384 . S
C1504 H1495 0.929 . S
C1504 C1496 1.378 . S
C1504 C1499 1.376 . S
C1505 H1492 0.929 . S
C1505 C1497 1.433 1_554 S
C1505 N1507 1.384 . S
N1506 C1502 1.427 1_556 S
N1506 C1503 1.384 . S
N1507 C1499 1.406 1_554 S
N1507 C1505 1.384 . S
H1508 C1514 0.930 . S
H1509 C1518 0.930 . S
H1510 C1523 0.929 . S
H1511 C1521 0.929 . S
H1512 C1516 0.929 . S
H1513 C1522 0.929 . S
C1514 H1508 0.930 . S
C1514 C1515 1.367 . S
C1514 C1522 1.378 . S
C1515 C1514 1.367 . S
C1515 C1523 1.433 . S
C1516 H1512 0.929 . S
C1516 C1518 1.378 . S
C1516 C1520 1.350 . S
C1517 C1520 1.463 . S
C1517 C1522 1.350 . S
C1517 N1525 1.427 . S
C1518 H1509 0.930 . S
C1518 C1516 1.378 . S
C1518 C1519 1.367 . S
C1519 C1518 1.367 . S
C1519 C1521 1.433 . S
C1520 C1516 1.350 . S
C1520 C1517 1.463 . S
C1520 N1524 1.427 . S
C1521 H1511 0.929 . S
C1521 C1519 1.433 . S
C1521 N1524 1.384 . S
C1522 H1513 0.929 . S
C1522 C1514 1.378 . S
C1522 C1517 1.350 . S
C1523 H1510 0.929 . S
C1523 C1515 1.433 . S
C1523 N1525 1.384 . S
N1524 C1520 1.427 . S
N1524 C1521 1.384 . S
N1525 C1517 1.427 . S
N1525 C1523 1.384 . S
H1526 C1532 0.930 . S
H1527 C1536 0.930 . S
H1528 C1541 0.929 . S
H1529 C1539 0.929 . S
H1530 C1534 0.929 . S
H1531 C1540 0.929 . S
C1532 H1526 0.930 . S
C1532 C1533 1.367 . S
C1532 C1540 1.378 . S
C1533 C1532 1.367 . S
C1533 C1541 1.433 . S
C1534 H1530 0.929 . S
C1534 C1536 1.378 . S
C1534 C1538 1.350 . S
C1535 C1538 1.463 . S
C1535 C1540 1.350 . S
C1535 N1543 1.427 . S
C1536 H1527 0.930 . S
C1536 C1534 1.378 . S
C1536 C1537 1.367 . S
C1537 C1536 1.367 . S
C1537 C1539 1.433 . S
C1538 C1534 1.350 . S
C1538 C1535 1.463 . S
C1538 N1542 1.427 . S
C1539 H1529 0.929 . S
C1539 C1537 1.433 . S
C1539 N1542 1.384 . S
C1540 H1531 0.929 . S
C1540 C1532 1.378 . S
C1540 C1535 1.350 . S
C1541 H1528 0.929 . S
C1541 C1533 1.433 . S
C1541 N1543 1.384 . S
N1542 C1538 1.427 . S
N1542 C1539 1.384 . S
N1543 C1535 1.427 . S
N1543 C1541 1.384 . S
H1544 C1550 0.930 . S
H1545 C1554 0.930 . S
H1546 C1559 0.929 . S
H1547 C1557 0.929 . S
H1548 C1552 0.929 . S
H1549 C1558 0.929 . S
C1550 H1544 0.930 . S
C1550 C1551 1.367 . S
C1550 C1558 1.378 . S
C1551 C1550 1.367 . S
C1551 C1559 1.433 . S
C1552 H1548 0.929 . S
C1552 C1554 1.378 . S
C1552 C1556 1.350 . S
C1553 C1556 1.463 . S
C1553 C1558 1.350 . S
C1553 N1561 1.427 . S
C1554 H1545 0.930 . S
C1554 C1552 1.378 . S
C1554 C1555 1.367 . S
C1555 C1554 1.367 . S
C1555 C1557 1.433 . S
C1556 C1552 1.350 . S
C1556 C1553 1.463 . S
C1556 N1560 1.427 . S
C1557 H1547 0.929 . S
C1557 C1555 1.433 . S
C1557 N1560 1.384 . S
C1558 H1549 0.929 . S
C1558 C1550 1.378 . S
C1558 C1553 1.350 . S
C1559 H1546 0.929 . S
C1559 C1551 1.433 . S
C1559 N1561 1.384 . S
N1560 C1556 1.427 . S
N1560 C1557 1.384 . S
N1561 C1553 1.427 . S
N1561 C1559 1.384 . S
H1562 C1568 0.930 . S
H1563 C1572 0.930 . S
H1564 C1577 0.929 . S
H1565 C1575 0.929 . S
H1566 C1570 0.929 . S
H1567 C1576 0.929 . S
C1568 H1562 0.930 . S
C1568 C1569 1.367 . S
C1568 C1576 1.378 . S
C1569 C1568 1.367 . S
C1569 C1577 1.433 . S
C1570 H1566 0.929 . S
C1570 C1572 1.378 . S
C1570 C1574 1.350 . S
C1571 C1574 1.463 . S
C1571 C1576 1.350 . S
C1571 N1579 1.427 . S
C1572 H1563 0.930 . S
C1572 C1570 1.378 . S
C1572 C1573 1.367 . S
C1573 C1572 1.367 . S
C1573 C1575 1.433 . S
C1574 C1570 1.350 . S
C1574 C1571 1.463 . S
C1574 N1578 1.427 . S
C1575 H1565 0.929 . S
C1575 C1573 1.433 . S
C1575 N1578 1.384 . S
C1576 H1567 0.929 . S
C1576 C1568 1.378 . S
C1576 C1571 1.350 . S
C1577 H1564 0.929 . S
C1577 C1569 1.433 . S
C1577 N1579 1.384 . S
N1578 C1574 1.427 . S
N1578 C1575 1.384 . S
N1579 C1571 1.427 . S
N1579 C1577 1.384 . S
H1580 C1586 0.930 . S
H1581 C1590 0.930 . S
H1582 C1595 0.929 . S
H1583 C1593 0.929 . S
H1584 C1588 0.929 . S
H1585 C1594 0.929 . S
C1586 H1580 0.930 . S
C1586 C1587 1.367 . S
C1586 C1594 1.378 . S
C1587 C1586 1.367 . S
C1587 C1595 1.433 . S
C1588 H1584 0.929 . S
C1588 C1590 1.378 . S
C1588 C1592 1.350 . S
C1589 C1592 1.463 . S
C1589 C1594 1.350 . S
C1589 N1597 1.427 . S
C1590 H1581 0.930 . S
C1590 C1588 1.378 . S
C1590 C1591 1.367 . S
C1591 C1590 1.367 . S
C1591 C1593 1.433 . S
C1592 C1588 1.350 . S
C1592 C1589 1.463 . S
C1592 N1596 1.427 . S
C1593 H1583 0.929 . S
C1593 C1591 1.433 . S
C1593 N1596 1.384 . S
C1594 H1585 0.929 . S
C1594 C1586 1.378 . S
C1594 C1589 1.350 . S
C1595 H1582 0.929 . S
C1595 C1587 1.433 . S
C1595 N1597 1.384 . S
N1596 C1592 1.427 . S
N1596 C1593 1.384 . S
N1597 C1589 1.427 . S
N1597 C1595 1.384 . S
H1598 C1604 0.930 . S
H1599 C1608 0.930 . S
H1600 C1613 0.929 . S
H1601 C1611 0.929 . S
H1602 C1606 0.929 . S
H1603 C1612 0.929 . S
C1604 H1598 0.930 . S
C1604 C1605 1.367 . S
C1604 C1612 1.378 . S
C1605 C1604 1.367 . S
C1605 C1613 1.433 . S
C1606 H1602 0.929 . S
C1606 C1608 1.378 . S
C1606 C1610 1.350 . S
C1607 C1610 1.463 . S
C1607 C1612 1.350 . S
C1607 N1615 1.427 . S
C1608 H1599 0.930 . S
C1608 C1606 1.378 . S
C1608 C1609 1.367 . S
C1609 C1608 1.367 . S
C1609 C1611 1.433 . S
C1610 C1606 1.350 . S
C1610 C1607 1.463 . S
C1610 N1614 1.427 . S
C1611 H1601 0.929 . S
C1611 C1609 1.433 . S
C1611 N1614 1.384 . S
C1612 H1603 0.929 . S
C1612 C1604 1.378 . S
C1612 C1607 1.350 . S
C1613 H1600 0.929 . S
C1613 C1605 1.433 . S
C1613 N1615 1.384 . S
N1614 C1610 1.427 . S
N1614 C1611 1.384 . S
N1615 C1607 1.427 . S
N1615 C1613 1.384 . S
H1616 C1622 0.930 . S
H1617 C1626 0.930 . S
H1618 C1631 0.929 . S
H1619 C1629 0.929 . S
H1620 C1624 0.929 . S
H1621 C1630 0.929 . S
C1622 H1616 0.930 . S
C1622 C1623 1.367 1_655 S
C1622 C1630 1.378 . S
C1623 C1622 1.367 1_455 S
C1623 C1631 1.433 . S
C1624 H1620 0.929 . S
C1624 C1626 1.378 . S
C1624 C1628 1.350 . S
C1625 C1628 1.463 . S
C1625 C1630 1.350 1_455 S
C1625 N1633 1.427 . S
C1626 H1617 0.930 . S
C1626 C1624 1.378 . S
C1626 C1627 1.367 . S
C1627 C1626 1.367 . S
C1627 C1629 1.433 1_455 S
C1628 C1624 1.350 . S
C1628 C1625 1.463 . S
C1628 N1632 1.427 1_455 S
C1629 H1619 0.929 . S
C1629 C1627 1.433 1_655 S
C1629 N1632 1.384 . S
C1630 H1621 0.929 . S
C1630 C1622 1.378 . S
C1630 C1625 1.350 1_655 S
C1631 H1618 0.929 . S
C1631 C1623 1.433 . S
C1631 N1633 1.384 . S
N1632 C1628 1.427 1_655 S
N1632 C1629 1.384 . S
N1633 C1625 1.427 . S
N1633 C1631 1.384 . S
H1634 C1640 0.930 . S
H1635 C1644 0.930 . S
H1636 C1649 0.929 . S
H1637 C1647 0.929 . S
H1638 C1642 0.929 . S
H1639 C1648 0.929 . S
C1640 H1634 0.930 . S
C1640 C1641 1.367 . S
C1640 C1648 1.378 . S
C1641 C1640 1.367 . S
C1641 C1649 1.433 . S
C1642 H1638 0.929 . S
C1642 C1644 1.378 . S
C1642 C1646 1.350 . S
C1643 C1646 1.463 . S
C1643 C1648 1.350 . S
C1643 N1651 1.427 . S
C1644 H1635 0.930 . S
C1644 C1642 1.378 . S
C1644 C1645 1.367 . S
C1645 C1644 1.367 . S
C1645 C1647 1.433 . S
C1646 C1642 1.350 . S
C1646 C1643 1.463 . S
C1646 N1650 1.427 . S
C1647 H1637 0.929 . S
C1647 C1645 1.433 . S
C1647 N1650 1.384 . S
C1648 H1639 0.929 . S
C1648 C1640 1.378 . S
C1648 C1643 1.350 . S
C1649 H1636 0.929 . S
C1649 C1641 1.433 . S
C1649 N1651 1.384 . S
N1650 C1646 1.427 . S
N1650 C1647 1.384 . S
N1651 C1643 1.427 . S
N1651 C1649 1.384 . S
H1652 C1658 0.930 . S
H1653 C1662 0.930 . S
H1654 C1667 0.929 . S
H1655 C1665 0.929 . S
H1656 C1660 0.929 . S
H1657 C1666 0.929 . S
C1658 H1652 0.930 . S
C1658 C1659 1.367 . S
C1658 C1666 1.378 . S
C1659 C1658 1.367 . S
C1659 C1667 1.433 . S
C1660 H1656 0.929 . S
C1660 C1662 1.378 . S
C1660 C1664 1.350 . S
C1661 C1664 1.463 . S
C1661 C1666 1.350 . S
C1661 N1669 1.427 . S
C1662 H1653 0.930 . S
C1662 C1660 1.378 . S
C1662 C1663 1.367 . S
C1663 C1662 1.367 . S
C1663 C1665 1.433 . S
C1664 C1660 1.350 . S
C1664 C1661 1.463 . S
C1664 N1668 1.427 . S
C1665 H1655 0.929 . S
C1665 C1663 1.433 . S
C1665 N1668 1.384 . S
C1666 H1657 0.929 . S
C1666 C1658 1.378 . S
C1666 C1661 1.350 . S
C1667 H1654 0.929 . S
C1667 C1659 1.433 . S
C1667 N1669 1.384 . S
N1668 C1664 1.427 . S
N1668 C1665 1.384 . S
N1669 C1661 1.427 . S
N1669 C1667 1.384 . S
H1670 C1676 0.930 . S
H1671 C1680 0.930 . S
H1672 C1685 0.929 . S
H1673 C1683 0.929 . S
H1674 C1678 0.929 . S
H1675 C1684 0.929 . S
C1676 H1670 0.930 . S
C1676 C1677 1.367 . S
C1676 C1684 1.378 . S
C1677 C1676 1.367 . S
C1677 C1685 1.433 . S
C1678 H1674 0.929 . S
C1678 C1680 1.378 . S
C1678 C1682 1.350 . S
C1679 C1682 1.463 . S
C1679 C1684 1.350 . S
C1679 N1687 1.427 . S
C1680 H1671 0.930 . S
C1680 C1678 1.378 . S
C1680 C1681 1.367 . S
C1681 C1680 1.367 . S
C1681 C1683 1.433 . S
C1682 C1678 1.350 . S
C1682 C1679 1.463 . S
C1682 N1686 1.427 . S
C1683 H1673 0.929 . S
C1683 C1681 1.433 . S
C1683 N1686 1.384 . S
C1684 H1675 0.929 . S
C1684 C1676 1.378 . S
C1684 C1679 1.350 . S
C1685 H1672 0.929 . S
C1685 C1677 1.433 . S
C1685 N1687 1.384 . S
N1686 C1682 1.427 . S
N1686 C1683 1.384 . S
N1687 C1679 1.427 . S
N1687 C1685 1.384 . S
H1688 C1694 0.930 . S
H1689 C1698 0.935 . S
H1690 C1703 0.929 . S
H1691 C1701 0.929 . S
H1692 C1696 0.929 . S
H1693 C1702 0.929 . S
C1694 H1688 0.930 . S
C1694 C1695 1.367 . S
C1694 C1702 1.378 . S
C1695 C1694 1.367 . S
C1695 C1703 1.433 . S
C1696 H1692 0.929 . S
C1696 C1698 1.378 . S
C1696 C1700 1.350 . S
C1697 C1700 1.463 . S
C1697 C1702 1.350 . S
C1697 N1705 1.427 . S
C1698 H1689 0.935 . S
C1698 C1696 1.378 . S
C1698 C1699 1.367 . S
C1699 C1698 1.367 . S
C1699 C1701 1.433 . S
C1700 C1696 1.350 . S
C1700 C1697 1.463 . S
C1700 N1704 1.427 . S
C1701 H1691 0.929 . S
C1701 C1699 1.433 . S
C1701 N1704 1.384 . S
C1702 H1693 0.929 . S
C1702 C1694 1.378 . S
C1702 C1697 1.350 . S
C1703 H1690 0.929 . S
C1703 C1695 1.433 . S
C1703 N1705 1.384 . S
N1704 C1700 1.427 . S
N1704 C1701 1.384 . S
N1705 C1697 1.427 . S
N1705 C1703 1.384 . S
H1706 C1712 0.930 . S
H1707 C1716 0.930 . S
H1708 C1721 0.929 . S
H1709 C1719 0.929 . S
H1710 C1714 0.929 . S
H1711 C1720 0.929 . S
C1712 H1706 0.930 . S
C1712 C1713 1.367 . S
C1712 C1720 1.378 . S
C1713 C1712 1.367 . S
C1713 C1721 1.433 . S
C1714 H1710 0.929 . S
C1714 C1716 1.378 . S
C1714 C1718 1.350 . S
C1715 C1718 1.463 . S
C1715 C1720 1.350 . S
C1715 N1723 1.427 . S
C1716 H1707 0.930 . S
C1716 C1714 1.378 . S
C1716 C1717 1.367 . S
C1717 C1716 1.367 . S
C1717 C1719 1.433 . S
C1718 C1714 1.350 . S
C1718 C1715 1.463 . S
C1718 N1722 1.427 . S
C1719 H1709 0.929 . S
C1719 C1717 1.433 . S
C1719 N1722 1.384 . S
C1720 H1711 0.929 . S
C1720 C1712 1.378 . S
C1720 C1715 1.350 . S
C1721 H1708 0.929 . S
C1721 C1713 1.433 . S
C1721 N1723 1.384 . S
N1722 C1718 1.427 . S
N1722 C1719 1.384 . S
N1723 C1715 1.427 . S
N1723 C1721 1.384 . S
H1724 C1730 0.930 . S
H1725 C1734 0.917 1_554 S
H1726 C1739 0.929 . S
H1727 C1737 0.929 . S
H1728 C1732 0.929 . S
H1729 C1738 0.929 . S
C1730 H1724 0.930 . S
C1730 C1731 1.367 . S
C1730 C1738 1.378 . S
C1731 C1730 1.367 . S
C1731 C1739 1.433 . S
C1732 H1728 0.929 . S
C1732 C1734 1.378 . S
C1732 C1736 1.350 . S
C1733 C1736 1.463 . S
C1733 C1738 1.350 . S
C1733 N1741 1.427 . S
C1734 H1725 0.917 1_556 S
C1734 C1732 1.378 . S
C1734 C1735 1.367 . S
C1735 C1734 1.367 . S
C1735 C1737 1.433 . S
C1736 C1732 1.350 . S
C1736 C1733 1.463 . S
C1736 N1740 1.427 . S
C1737 H1727 0.929 . S
C1737 C1735 1.433 . S
C1737 N1740 1.384 . S
C1738 H1729 0.929 . S
C1738 C1730 1.378 . S
C1738 C1733 1.350 . S
C1739 H1726 0.929 . S
C1739 C1731 1.433 . S
C1739 N1741 1.384 . S
N1740 C1736 1.427 . S
N1740 C1737 1.384 . S
N1741 C1733 1.427 . S
N1741 C1739 1.384 . S
H1742 C1748 0.930 . S
H1743 C1752 0.930 . S
H1744 C1757 0.929 . S
H1745 C1755 0.929 . S
H1746 C1750 0.929 . S
H1747 C1756 0.929 . S
C1748 H1742 0.930 . S
C1748 C1749 1.367 . S
C1748 C1756 1.378 . S
C1749 C1748 1.367 . S
C1749 C1757 1.433 . S
C1750 H1746 0.929 . S
C1750 C1752 1.378 . S
C1750 C1754 1.350 . S
C1751 C1754 1.463 . S
C1751 C1756 1.350 . S
C1751 N1759 1.427 . S
C1752 H1743 0.930 . S
C1752 C1750 1.378 . S
C1752 C1753 1.367 . S
C1753 C1752 1.367 . S
C1753 C1755 1.433 . S
C1754 C1750 1.350 . S
C1754 C1751 1.463 . S
C1754 N1758 1.427 . S
C1755 H1745 0.929 . S
C1755 C1753 1.433 . S
C1755 N1758 1.384 . S
C1756 H1747 0.929 . S
C1756 C1748 1.378 . S
C1756 C1751 1.350 . S
C1757 H1744 0.929 . S
C1757 C1749 1.433 . S
C1757 N1759 1.384 . S
N1758 C1754 1.427 . S
N1758 C1755 1.384 . S
N1759 C1751 1.427 . S
N1759 C1757 1.384 . S
H1760 C1766 0.930 . S
H1761 C1770 0.930 . S
H1762 C1775 0.929 . S
H1763 C1773 0.929 . S
H1764 C1768 0.929 . S
H1765 C1774 0.929 . S
C1766 H1760 0.930 . S
C1766 C1767 1.340 1_545 S
C1766 C1774 1.378 . S
C1767 C1766 1.340 1_565 S
C1767 C1775 1.459 . S
C1768 H1764 0.929 . S
C1768 C1770 1.378 . S
C1768 C1772 1.350 1_565 S
C1769 C1772 1.463 . S
C1769 C1774 1.350 . S
C1769 N1777 1.427 1_545 S
C1770 H1761 0.930 . S
C1770 C1768 1.378 . S
C1770 C1771 1.367 1_565 S
C1771 C1770 1.367 1_545 S
C1771 C1773 1.433 . S
C1772 C1768 1.350 1_545 S
C1772 C1769 1.463 . S
C1772 N1776 1.427 . S
C1773 H1763 0.929 . S
C1773 C1771 1.433 . S
C1773 N1776 1.384 . S
C1774 H1765 0.929 . S
C1774 C1766 1.378 . S
C1774 C1769 1.350 . S
C1775 H1762 0.929 . S
C1775 C1767 1.459 . S
C1775 N1777 1.384 . S
N1776 C1772 1.427 . S
N1776 C1773 1.384 . S
N1777 C1769 1.427 1_565 S
N1777 C1775 1.384 . S
H1778 C1784 0.930 . S
H1779 C1788 0.930 . S
H1780 C1793 0.929 . S
H1781 C1791 0.929 . S
H1782 C1786 0.929 . S
H1783 C1792 0.929 . S
C1784 H1778 0.930 . S
C1784 C1785 1.367 . S
C1784 C1792 1.378 . S
C1785 C1784 1.367 . S
C1785 C1793 1.433 . S
C1786 H1782 0.929 . S
C1786 C1788 1.378 . S
C1786 C1790 1.350 . S
C1787 C1790 1.463 . S
C1787 C1792 1.350 . S
C1787 N1795 1.427 . S
C1788 H1779 0.930 . S
C1788 C1786 1.378 . S
C1788 C1789 1.367 . S
C1789 C1788 1.367 . S
C1789 C1791 1.433 . S
C1790 C1786 1.350 . S
C1790 C1787 1.463 . S
C1790 N1794 1.427 . S
C1791 H1781 0.929 . S
C1791 C1789 1.433 . S
C1791 N1794 1.384 . S
C1792 H1783 0.929 . S
C1792 C1784 1.378 . S
C1792 C1787 1.350 . S
C1793 H1780 0.929 . S
C1793 C1785 1.433 . S
C1793 N1795 1.384 . S
N1794 C1790 1.427 . S
N1794 C1791 1.384 . S
N1795 C1787 1.427 . S
N1795 C1793 1.384 . S
H1796 C1802 0.930 . S
H1797 C1806 0.930 . S
H1798 C1811 0.929 . S
H1799 C1809 0.929 . S
H1800 C1804 0.929 . S
H1801 C1810 0.929 . S
C1802 H1796 0.930 . S
C1802 C1803 1.367 . S
C1802 C1810 1.378 . S
C1803 C1802 1.367 . S
C1803 C1811 1.433 . S
C1804 H1800 0.929 . S
C1804 C1806 1.378 . S
C1804 C1808 1.350 . S
C1805 C1808 1.463 . S
C1805 C1810 1.350 . S
C1805 N1813 1.427 . S
C1806 H1797 0.930 . S
C1806 C1804 1.378 . S
C1806 C1807 1.367 . S
C1807 C1806 1.367 . S
C1807 C1809 1.433 . S
C1808 C1804 1.350 . S
C1808 C1805 1.463 . S
C1808 N1812 1.427 . S
C1809 H1799 0.929 . S
C1809 C1807 1.433 . S
C1809 N1812 1.384 . S
C1810 H1801 0.929 . S
C1810 C1802 1.378 . S
C1810 C1805 1.350 . S
C1811 H1798 0.929 . S
C1811 C1803 1.433 . S
C1811 N1813 1.384 . S
N1812 C1808 1.427 . S
N1812 C1809 1.384 . S
N1813 C1805 1.427 . S
N1813 C1811 1.384 . S
H1814 C1820 0.930 . S
H1815 C1824 0.930 . S
H1816 C1829 0.929 . S
H1817 C1827 0.929 . S
H1818 C1822 0.929 . S
H1819 C1828 0.929 . S
C1820 H1814 0.930 . S
C1820 C1821 1.367 . S
C1820 C1828 1.378 . S
C1821 C1820 1.367 . S
C1821 C1829 1.433 . S
C1822 H1818 0.929 . S
C1822 C1824 1.378 . S
C1822 C1826 1.350 . S
C1823 C1826 1.463 . S
C1823 C1828 1.350 . S
C1823 N1831 1.427 . S
C1824 H1815 0.930 . S
C1824 C1822 1.378 . S
C1824 C1825 1.367 . S
C1825 C1824 1.367 . S
C1825 C1827 1.433 . S
C1826 C1822 1.350 . S
C1826 C1823 1.463 . S
C1826 N1830 1.427 . S
C1827 H1817 0.929 . S
C1827 C1825 1.433 . S
C1827 N1830 1.384 . S
C1828 H1819 0.929 . S
C1828 C1820 1.378 . S
C1828 C1823 1.350 . S
C1829 H1816 0.929 . S
C1829 C1821 1.433 . S
C1829 N1831 1.384 . S
N1830 C1826 1.427 . S
N1830 C1827 1.384 . S
N1831 C1823 1.427 . S
N1831 C1829 1.384 . S
H1832 C1838 0.930 . S
H1833 C1842 0.930 . S
H1834 C1847 0.929 . S
H1835 C1845 0.929 1_565 S
H1836 C1840 0.929 . S
H1837 C1846 0.929 . S
C1838 H1832 0.930 . S
C1838 C1839 1.367 . S
C1838 C1846 1.378 . S
C1839 C1838 1.367 . S
C1839 C1847 1.433 1_565 S
C1840 H1836 0.929 . S
C1840 C1842 1.378 . S
C1840 C1844 1.350 . S
C1841 C1844 1.463 . S
C1841 C1846 1.350 1_545 S
C1841 N1849 1.427 . S
C1842 H1833 0.930 . S
C1842 C1840 1.378 . S
C1842 C1843 1.367 . S
C1843 C1842 1.367 . S
C1843 C1845 1.433 . S
C1844 C1840 1.350 . S
C1844 C1841 1.463 . S
C1844 N1848 1.427 1_545 S
C1845 H1835 0.929 1_545 S
C1845 C1843 1.433 . S
C1845 N1848 1.384 1_545 S
C1846 H1837 0.929 . S
C1846 C1838 1.378 . S
C1846 C1841 1.350 1_565 S
C1847 H1834 0.929 . S
C1847 C1839 1.433 1_545 S
C1847 N1849 1.384 . S
N1848 C1844 1.427 1_565 S
N1848 C1845 1.384 1_565 S
N1849 C1841 1.427 . S
N1849 C1847 1.384 . S
H1850 C1856 0.930 . S
H1851 C1860 0.930 . S
H1852 C1865 0.929 . S
H1853 C1863 0.929 . S
H1854 C1858 0.929 . S
H1855 C1864 0.929 . S
C1856 H1850 0.930 . S
C1856 C1857 1.367 . S
C1856 C1864 1.378 . S
C1857 C1856 1.367 . S
C1857 C1865 1.433 . S
C1858 H1854 0.929 . S
C1858 C1860 1.378 . S
C1858 C1862 1.350 . S
C1859 C1862 1.463 . S
C1859 C1864 1.350 . S
C1859 N1867 1.427 . S
C1860 H1851 0.930 . S
C1860 C1858 1.378 . S
C1860 C1861 1.367 . S
C1861 C1860 1.367 . S
C1861 C1863 1.433 . S
C1862 C1858 1.350 . S
C1862 C1859 1.463 . S
C1862 N1866 1.427 . S
C1863 H1853 0.929 . S
C1863 C1861 1.433 . S
C1863 N1866 1.384 . S
C1864 H1855 0.929 . S
C1864 C1856 1.378 . S
C1864 C1859 1.350 . S
C1865 H1852 0.929 . S
C1865 C1857 1.433 . S
C1865 N1867 1.384 . S
N1866 C1862 1.427 . S
N1866 C1863 1.384 . S
N1867 C1859 1.427 . S
N1867 C1865 1.384 . S
H1868 C1874 0.930 . S
H1869 C1878 0.930 . S
H1870 C1883 0.929 . S
H1871 C1881 0.929 1_565 S
H1872 C1876 0.929 . S
H1873 C1882 0.929 . S
C1874 H1868 0.930 . S
C1874 C1875 1.367 . S
C1874 C1882 1.378 . S
C1875 C1874 1.367 . S
C1875 C1883 1.433 . S
C1876 H1872 0.929 . S
C1876 C1878 1.378 . S
C1876 C1880 1.350 . S
C1877 C1880 1.463 . S
C1877 C1882 1.350 . S
C1877 N1885 1.427 . S
C1878 H1869 0.930 . S
C1878 C1876 1.378 . S
C1878 C1879 1.367 . S
C1879 C1878 1.367 . S
C1879 C1881 1.433 . S
C1880 C1876 1.350 . S
C1880 C1877 1.463 . S
C1880 N1884 1.427 . S
C1881 H1871 0.929 1_545 S
C1881 C1879 1.433 . S
C1881 N1884 1.384 . S
C1882 H1873 0.929 . S
C1882 C1874 1.378 . S
C1882 C1877 1.350 . S
C1883 H1870 0.929 . S
C1883 C1875 1.433 . S
C1883 N1885 1.384 . S
N1884 C1880 1.427 . S
N1884 C1881 1.384 . S
N1885 C1877 1.427 . S
N1885 C1883 1.384 . S
H1886 C1892 0.930 . S
H1887 C1896 0.930 . S
H1888 C1901 0.929 . S
H1889 C1899 0.929 . S
H1890 C1894 0.929 . S
H1891 C1900 0.929 . S
C1892 H1886 0.930 . S
C1892 C1893 1.367 . S
C1892 C1900 1.378 . S
C1893 C1892 1.367 . S
C1893 C1901 1.433 . S
C1894 H1890 0.929 . S
C1894 C1896 1.378 . S
C1894 C1898 1.350 . S
C1895 C1898 1.463 . S
C1895 C1900 1.350 . S
C1895 N1903 1.427 . S
C1896 H1887 0.930 . S
C1896 C1894 1.378 . S
C1896 C1897 1.367 . S
C1897 C1896 1.367 . S
C1897 C1899 1.433 . S
C1898 C1894 1.350 . S
C1898 C1895 1.463 . S
C1898 N1902 1.427 . S
C1899 H1889 0.929 . S
C1899 C1897 1.433 . S
C1899 N1902 1.384 . S
C1900 H1891 0.929 . S
C1900 C1892 1.378 . S
C1900 C1895 1.350 . S
C1901 H1888 0.929 . S
C1901 C1893 1.433 . S
C1901 N1903 1.384 . S
N1902 C1898 1.427 . S
N1902 C1899 1.384 . S
N1903 C1895 1.427 . S
N1903 C1901 1.384 . S
H1904 C1910 0.930 . S
H1905 C1914 0.930 . S
H1906 C1919 0.929 . S
H1907 C1917 0.929 . S
H1908 C1912 0.929 . S
H1909 C1918 0.929 . S
C1910 H1904 0.930 . S
C1910 C1911 1.373 . S
C1910 C1918 1.378 . S
C1911 C1910 1.373 . S
C1911 C1919 1.426 1_554 S
C1912 H1908 0.929 . S
C1912 C1914 1.378 . S
C1912 C1916 1.350 . S
C1913 C1916 1.465 . S
C1913 C1918 1.338 1_556 S
C1913 N1921 1.439 . S
C1914 H1905 0.930 . S
C1914 C1912 1.378 . S
C1914 C1915 1.367 . S
C1915 C1914 1.367 . S
C1915 C1917 1.433 1_556 S
C1916 C1912 1.350 . S
C1916 C1913 1.465 . S
C1916 N1920 1.427 1_556 S
C1917 H1907 0.929 . S
C1917 C1915 1.433 1_554 S
C1917 N1920 1.384 . S
C1918 H1909 0.929 . S
C1918 C1910 1.378 . S
C1918 C1913 1.338 1_554 S
C1919 H1906 0.929 . S
C1919 C1911 1.426 1_556 S
C1919 N1921 1.384 . S
N1920 C1916 1.427 1_554 S
N1920 C1917 1.384 . S
N1921 C1913 1.439 . S
N1921 C1919 1.384 . S
H1922 C1928 0.930 . S
H1923 C1932 0.930 . S
H1924 C1937 0.929 . S
H1925 C1935 0.929 . S
H1926 C1930 0.929 . S
H1927 C1936 0.929 . S
C1928 H1922 0.930 . S
C1928 C1929 1.367 . S
C1928 C1936 1.378 . S
C1929 C1928 1.367 . S
C1929 C1937 1.433 . S
C1930 H1926 0.929 . S
C1930 C1932 1.378 . S
C1930 C1934 1.350 . S
C1931 C1934 1.463 . S
C1931 C1936 1.350 . S
C1931 N1939 1.427 . S
C1932 H1923 0.930 . S
C1932 C1930 1.378 . S
C1932 C1933 1.367 . S
C1933 C1932 1.367 . S
C1933 C1935 1.433 . S
C1934 C1930 1.350 . S
C1934 C1931 1.463 . S
C1934 N1938 1.427 . S
C1935 H1925 0.929 . S
C1935 C1933 1.433 . S
C1935 N1938 1.384 . S
C1936 H1927 0.929 . S
C1936 C1928 1.378 . S
C1936 C1931 1.350 . S
C1937 H1924 0.929 . S
C1937 C1929 1.433 . S
C1937 N1939 1.384 . S
N1938 C1934 1.427 . S
N1938 C1935 1.384 . S
N1939 C1931 1.427 . S
N1939 C1937 1.384 . S
H1940 C1946 0.930 . S
H1941 C1950 0.930 . S
H1942 C1955 0.929 . S
H1943 C1953 0.929 . S
H1944 C1948 0.929 . S
H1945 C1954 0.929 . S
C1946 H1940 0.930 . S
C1946 C1947 1.367 . S
C1946 C1954 1.378 . S
C1947 C1946 1.367 . S
C1947 C1955 1.433 . S
C1948 H1944 0.929 . S
C1948 C1950 1.378 . S
C1948 C1952 1.350 . S
C1949 C1952 1.463 . S
C1949 C1954 1.350 . S
C1949 N1957 1.427 . S
C1950 H1941 0.930 . S
C1950 C1948 1.378 . S
C1950 C1951 1.367 . S
C1951 C1950 1.367 . S
C1951 C1953 1.433 . S
C1952 C1948 1.350 . S
C1952 C1949 1.463 . S
C1952 N1956 1.427 . S
C1953 H1943 0.929 . S
C1953 C1951 1.433 . S
C1953 N1956 1.384 . S
C1954 H1945 0.929 . S
C1954 C1946 1.378 . S
C1954 C1949 1.350 . S
C1955 H1942 0.929 . S
C1955 C1947 1.433 . S
C1955 N1957 1.384 . S
N1956 C1952 1.427 . S
N1956 C1953 1.384 . S
N1957 C1949 1.427 . S
N1957 C1955 1.384 . S
H1958 C1964 0.930 . S
H1959 C1968 0.930 . S
H1960 C1973 0.929 . S
H1961 C1971 0.929 . S
H1962 C1966 0.929 . S
H1963 C1972 0.929 . S
C1964 H1958 0.930 . S
C1964 C1965 1.367 . S
C1964 C1972 1.378 . S
C1965 C1964 1.367 . S
C1965 C1973 1.433 . S
C1966 H1962 0.929 . S
C1966 C1968 1.378 . S
C1966 C1970 1.350 . S
C1967 C1970 1.463 . S
C1967 C1972 1.350 . S
C1967 N1975 1.427 . S
C1968 H1959 0.930 . S
C1968 C1966 1.378 . S
C1968 C1969 1.367 . S
C1969 C1968 1.367 . S
C1969 C1971 1.433 . S
C1970 C1966 1.350 . S
C1970 C1967 1.463 . S
C1970 N1974 1.427 . S
C1971 H1961 0.929 . S
C1971 C1969 1.433 . S
C1971 N1974 1.384 . S
C1972 H1963 0.929 . S
C1972 C1964 1.378 . S
C1972 C1967 1.350 . S
C1973 H1960 0.929 . S
C1973 C1965 1.433 . S
C1973 N1975 1.384 . S
N1974 C1970 1.427 . S
N1974 C1971 1.384 . S
N1975 C1967 1.427 . S
N1975 C1973 1.384 . S
H1976 C1982 0.930 . S
H1977 C1986 0.930 . S
H1978 C1991 0.929 . S
H1979 C1989 0.929 . S
H1980 C1984 0.929 . S
H1981 C1990 0.929 . S
C1982 H1976 0.930 . S
C1982 C1983 1.367 . S
C1982 C1990 1.378 . S
C1983 C1982 1.367 . S
C1983 C1991 1.433 . S
C1984 H1980 0.929 . S
C1984 C1986 1.378 . S
C1984 C1988 1.350 . S
C1985 C1988 1.463 . S
C1985 C1990 1.350 . S
C1985 N1993 1.427 . S
C1986 H1977 0.930 . S
C1986 C1984 1.378 . S
C1986 C1987 1.367 . S
C1987 C1986 1.367 . S
C1987 C1989 1.433 . S
C1988 C1984 1.350 . S
C1988 C1985 1.463 . S
C1988 N1992 1.427 . S
C1989 H1979 0.929 . S
C1989 C1987 1.433 . S
C1989 N1992 1.384 . S
C1990 H1981 0.929 . S
C1990 C1982 1.378 . S
C1990 C1985 1.350 . S
C1991 H1978 0.929 . S
C1991 C1983 1.433 . S
C1991 N1993 1.384 . S
N1992 C1988 1.427 . S
N1992 C1989 1.384 . S
N1993 C1985 1.427 . S
N1993 C1991 1.384 . S
H1994 C2000 0.930 . S
H1995 C2004 0.930 . S
H1996 C2009 0.929 . S
H1997 C2007 0.929 . S
H1998 C2002 0.929 . S
H1999 C2008 0.929 . S
C2000 H1994 0.930 . S
C2000 C2001 1.367 . S
C2000 C2008 1.378 . S
C2001 C2000 1.367 . S
C2001 C2009 1.433 . S
C2002 H1998 0.929 . S
C2002 C2004 1.378 1_565 S
C2002 C2006 1.350 . S
C2003 C2006 1.463 . S
C2003 C2008 1.350 . S
C2003 N2011 1.427 . S
C2004 H1995 0.930 . S
C2004 C2002 1.378 1_545 S
C2004 C2005 1.367 1_545 S
C2005 C2004 1.367 1_565 S
C2005 C2007 1.433 . S
C2006 C2002 1.350 . S
C2006 C2003 1.463 . S
C2006 N2010 1.427 . S
C2007 H1997 0.929 . S
C2007 C2005 1.433 . S
C2007 N2010 1.384 . S
C2008 H1999 0.929 . S
C2008 C2000 1.378 . S
C2008 C2003 1.350 . S
C2009 H1996 0.929 . S
C2009 C2001 1.433 . S
C2009 N2011 1.384 . S
N2010 C2006 1.427 . S
N2010 C2007 1.384 . S
N2011 C2003 1.427 . S
N2011 C2009 1.384 . S
H2012 C2018 0.930 . S
H2013 C2022 0.930 . S
H2014 C2027 0.929 . S
H2015 C2025 0.929 . S
H2016 C2020 0.929 . S
H2017 C2026 0.929 . S
C2018 H2012 0.930 . S
C2018 C2019 1.367 . S
C2018 C2026 1.378 . S
C2019 C2018 1.367 . S
C2019 C2027 1.433 . S
C2020 H2016 0.929 . S
C2020 C2022 1.378 . S
C2020 C2024 1.350 . S
C2021 C2024 1.463 . S
C2021 C2026 1.350 . S
C2021 N2029 1.427 . S
C2022 H2013 0.930 . S
C2022 C2020 1.378 . S
C2022 C2023 1.367 . S
C2023 C2022 1.367 . S
C2023 C2025 1.433 . S
C2024 C2020 1.350 . S
C2024 C2021 1.463 . S
C2024 N2028 1.427 . S
C2025 H2015 0.929 . S
C2025 C2023 1.433 . S
C2025 N2028 1.384 . S
C2026 H2017 0.929 . S
C2026 C2018 1.378 . S
C2026 C2021 1.350 . S
C2027 H2014 0.929 . S
C2027 C2019 1.433 . S
C2027 N2029 1.384 . S
N2028 C2024 1.427 . S
N2028 C2025 1.384 . S
N2029 C2021 1.427 . S
N2029 C2027 1.384 . S
H2030 C2036 0.930 . S
H2031 C2040 0.930 . S
H2032 C2045 0.929 . S
H2033 C2043 0.929 . S
H2034 C2038 0.929 . S
H2035 C2044 0.929 . S
C2036 H2030 0.930 . S
C2036 C2037 1.367 . S
C2036 C2044 1.378 . S
C2037 C2036 1.367 . S
C2037 C2045 1.433 . S
C2038 H2034 0.929 . S
C2038 C2040 1.378 . S
C2038 C2042 1.350 . S
C2039 C2042 1.463 . S
C2039 C2044 1.350 . S
C2039 N2047 1.427 . S
C2040 H2031 0.930 . S
C2040 C2038 1.378 . S
C2040 C2041 1.367 . S
C2041 C2040 1.367 . S
C2041 C2043 1.433 . S
C2042 C2038 1.350 . S
C2042 C2039 1.463 . S
C2042 N2046 1.427 . S
C2043 H2033 0.929 . S
C2043 C2041 1.433 . S
C2043 N2046 1.384 . S
C2044 H2035 0.929 . S
C2044 C2036 1.378 . S
C2044 C2039 1.350 . S
C2045 H2032 0.929 . S
C2045 C2037 1.433 . S
C2045 N2047 1.384 . S
N2046 C2042 1.427 . S
N2046 C2043 1.384 . S
N2047 C2039 1.427 . S
N2047 C2045 1.384 . S
H2048 C2054 0.930 . S
H2049 C2058 0.930 . S
H2050 C2063 0.929 . S
H2051 C2061 0.929 . S
H2052 C2056 0.929 . S
H2053 C2062 0.929 . S
C2054 H2048 0.930 . S
C2054 C2055 1.367 . S
C2054 C2062 1.378 . S
C2055 C2054 1.367 . S
C2055 C2063 1.433 . S
C2056 H2052 0.929 . S
C2056 C2058 1.378 . S
C2056 C2060 1.350 . S
C2057 C2060 1.463 . S
C2057 C2062 1.350 . S
C2057 N2065 1.427 . S
C2058 H2049 0.930 . S
C2058 C2056 1.378 . S
C2058 C2059 1.367 . S
C2059 C2058 1.367 . S
C2059 C2061 1.433 . S
C2060 C2056 1.350 . S
C2060 C2057 1.463 . S
C2060 N2064 1.427 . S
C2061 H2051 0.929 . S
C2061 C2059 1.433 . S
C2061 N2064 1.384 . S
C2062 H2053 0.929 . S
C2062 C2054 1.378 . S
C2062 C2057 1.350 . S
C2063 H2050 0.929 . S
C2063 C2055 1.433 . S
C2063 N2065 1.384 . S
N2064 C2060 1.427 . S
N2064 C2061 1.384 . S
N2065 C2057 1.427 . S
N2065 C2063 1.384 . S
H2066 C2072 0.930 . S
H2067 C2076 0.930 . S
H2068 C2081 0.929 . S
H2069 C2079 0.929 . S
H2070 C2074 0.929 . S
H2071 C2080 0.929 . S
C2072 H2066 0.930 . S
C2072 C2073 1.367 . S
C2072 C2080 1.378 . S
C2073 C2072 1.367 . S
C2073 C2081 1.433 . S
C2074 H2070 0.929 . S
C2074 C2076 1.378 . S
C2074 C2078 1.350 . S
C2075 C2078 1.463 . S
C2075 C2080 1.350 . S
C2075 N2083 1.427 . S
C2076 H2067 0.930 . S
C2076 C2074 1.378 . S
C2076 C2077 1.367 . S
C2077 C2076 1.367 . S
C2077 C2079 1.433 . S
C2078 C2074 1.350 . S
C2078 C2075 1.463 . S
C2078 N2082 1.427 . S
C2079 H2069 0.929 . S
C2079 C2077 1.433 . S
C2079 N2082 1.384 . S
C2080 H2071 0.929 . S
C2080 C2072 1.378 . S
C2080 C2075 1.350 . S
C2081 H2068 0.929 . S
C2081 C2073 1.433 . S
C2081 N2083 1.384 . S
N2082 C2078 1.427 . S
N2082 C2079 1.384 . S
N2083 C2075 1.427 . S
N2083 C2081 1.384 . S
H2084 C2090 0.930 . S
H2085 C2094 0.930 . S
H2086 C2099 0.929 . S
H2087 C2097 0.929 . S
H2088 C2092 0.929 . S
H2089 C2098 0.929 . S
C2090 H2084 0.930 . S
C2090 C2091 1.367 . S
C2090 C2098 1.378 . S
C2091 C2090 1.367 . S
C2091 C2099 1.433 1_455 S
C2092 H2088 0.929 . S
C2092 C2094 1.378 . S
C2092 C2096 1.350 1_655 S
C2093 C2096 1.463 . S
C2093 C2098 1.350 . S
C2093 N2101 1.427 1_455 S
C2094 H2085 0.930 . S
C2094 C2092 1.378 . S
C2094 C2095 1.367 1_655 S
C2095 C2094 1.367 1_455 S
C2095 C2097 1.433 . S
C2096 C2092 1.350 1_455 S
C2096 C2093 1.463 . S
C2096 N2100 1.427 . S
C2097 H2087 0.929 . S
C2097 C2095 1.433 . S
C2097 N2100 1.384 . S
C2098 H2089 0.929 . S
C2098 C2090 1.378 . S
C2098 C2093 1.350 . S
C2099 H2086 0.929 . S
C2099 C2091 1.433 1_655 S
C2099 N2101 1.384 . S
N2100 C2096 1.427 . S
N2100 C2097 1.384 . S
N2101 C2093 1.427 1_655 S
N2101 C2099 1.384 . S
H2102 C2108 0.930 . S
H2103 C2112 0.930 . S
H2104 C2117 0.929 . S
H2105 C2115 0.929 . S
H2106 C2110 0.929 . S
H2107 C2116 0.929 . S
C2108 H2102 0.930 . S
C2108 C2109 1.367 . S
C2108 C2116 1.378 . S
C2109 C2108 1.367 . S
C2109 C2117 1.433 . S
C2110 H2106 0.929 . S
C2110 C2112 1.378 . S
C2110 C2114 1.350 . S
C2111 C2114 1.463 . S
C2111 C2116 1.350 . S
C2111 N2119 1.427 . S
C2112 H2103 0.930 . S
C2112 C2110 1.378 . S
C2112 C2113 1.367 . S
C2113 C2112 1.367 . S
C2113 C2115 1.433 . S
C2114 C2110 1.350 . S
C2114 C2111 1.463 . S
C2114 N2118 1.427 . S
C2115 H2105 0.929 . S
C2115 C2113 1.433 . S
C2115 N2118 1.384 . S
C2116 H2107 0.929 . S
C2116 C2108 1.378 . S
C2116 C2111 1.350 . S
C2117 H2104 0.929 . S
C2117 C2109 1.433 . S
C2117 N2119 1.384 . S
N2118 C2114 1.427 . S
N2118 C2115 1.384 . S
N2119 C2111 1.427 . S
N2119 C2117 1.384 . S
H2120 C2126 0.930 . S
H2121 C2130 0.930 . S
H2122 C2135 0.929 . S
H2123 C2133 0.929 . S
H2124 C2128 0.929 . S
H2125 C2134 0.929 . S
C2126 H2120 0.930 . S
C2126 C2127 1.367 . S
C2126 C2134 1.378 . S
C2127 C2126 1.367 . S
C2127 C2135 1.433 . S
C2128 H2124 0.929 . S
C2128 C2130 1.378 . S
C2128 C2132 1.350 . S
C2129 C2132 1.463 . S
C2129 C2134 1.350 . S
C2129 N2137 1.427 . S
C2130 H2121 0.930 . S
C2130 C2128 1.378 . S
C2130 C2131 1.367 . S
C2131 C2130 1.367 . S
C2131 C2133 1.433 . S
C2132 C2128 1.350 . S
C2132 C2129 1.463 . S
C2132 N2136 1.427 . S
C2133 H2123 0.929 . S
C2133 C2131 1.433 . S
C2133 N2136 1.384 . S
C2134 H2125 0.929 . S
C2134 C2126 1.378 . S
C2134 C2129 1.350 . S
C2135 H2122 0.929 . S
C2135 C2127 1.433 . S
C2135 N2137 1.384 . S
N2136 C2132 1.427 . S
N2136 C2133 1.384 . S
N2137 C2129 1.427 . S
N2137 C2135 1.384 . S
H2138 C2144 0.930 . S
H2139 C2148 0.930 . S
H2140 C2153 0.929 . S
H2141 C2151 0.929 . S
H2142 C2146 0.929 . S
H2143 C2152 0.929 . S
C2144 H2138 0.930 . S
C2144 C2145 1.367 . S
C2144 C2152 1.378 . S
C2145 C2144 1.367 . S
C2145 C2153 1.433 . S
C2146 H2142 0.929 . S
C2146 C2148 1.378 . S
C2146 C2150 1.350 . S
C2147 C2150 1.463 . S
C2147 C2152 1.350 . S
C2147 N2155 1.427 . S
C2148 H2139 0.930 . S
C2148 C2146 1.378 . S
C2148 C2149 1.367 . S
C2149 C2148 1.367 . S
C2149 C2151 1.433 . S
C2150 C2146 1.350 . S
C2150 C2147 1.463 . S
C2150 N2154 1.427 . S
C2151 H2141 0.929 . S
C2151 C2149 1.433 . S
C2151 N2154 1.384 . S
C2152 H2143 0.929 . S
C2152 C2144 1.378 . S
C2152 C2147 1.350 . S
C2153 H2140 0.929 . S
C2153 C2145 1.433 . S
C2153 N2155 1.384 . S
N2154 C2150 1.427 . S
N2154 C2151 1.384 . S
N2155 C2147 1.427 . S
N2155 C2153 1.384 . S
H2156 C2162 0.930 . S
H2157 C2166 0.930 . S
H2158 C2171 0.929 . S
H2159 C2169 0.929 . S
H2160 C2164 0.929 . S
H2161 C2170 0.929 . S
C2162 H2156 0.930 . S
C2162 C2163 1.367 1_455 S
C2162 C2170 1.378 . S
C2163 C2162 1.367 1_655 S
C2163 C2171 1.433 . S
C2164 H2160 0.929 . S
C2164 C2166 1.378 . S
C2164 C2168 1.350 . S
C2165 C2168 1.463 . S
C2165 C2170 1.350 1_655 S
C2165 N2173 1.427 . S
C2166 H2157 0.930 . S
C2166 C2164 1.378 . S
C2166 C2167 1.364 1_655 S
C2167 C2166 1.364 1_455 S
C2167 C2169 1.435 . S
C2168 C2164 1.350 . S
C2168 C2165 1.463 . S
C2168 N2172 1.427 1_655 S
C2169 H2159 0.929 . S
C2169 C2167 1.435 . S
C2169 N2172 1.384 . S
C2170 H2161 0.929 . S
C2170 C2162 1.378 . S
C2170 C2165 1.350 1_455 S
C2171 H2158 0.929 . S
C2171 C2163 1.433 . S
C2171 N2173 1.384 . S
N2172 C2168 1.427 1_455 S
N2172 C2169 1.384 . S
N2173 C2165 1.427 . S
N2173 C2171 1.384 . S
H2174 C2180 0.930 . S
H2175 C2184 0.930 . S
H2176 C2189 0.929 . S
H2177 C2187 0.929 . S
H2178 C2182 0.929 . S
H2179 C2188 0.929 . S
C2180 H2174 0.930 . S
C2180 C2181 1.367 . S
C2180 C2188 1.378 . S
C2181 C2180 1.367 . S
C2181 C2189 1.433 . S
C2182 H2178 0.929 . S
C2182 C2184 1.378 . S
C2182 C2186 1.350 . S
C2183 C2186 1.463 . S
C2183 C2188 1.350 . S
C2183 N2191 1.427 . S
C2184 H2175 0.930 . S
C2184 C2182 1.378 . S
C2184 C2185 1.367 . S
C2185 C2184 1.367 . S
C2185 C2187 1.433 . S
C2186 C2182 1.350 . S
C2186 C2183 1.463 . S
C2186 N2190 1.427 . S
C2187 H2177 0.929 . S
C2187 C2185 1.433 . S
C2187 N2190 1.384 . S
C2188 H2179 0.929 . S
C2188 C2180 1.378 . S
C2188 C2183 1.350 . S
C2189 H2176 0.929 . S
C2189 C2181 1.433 . S
C2189 N2191 1.384 . S
N2190 C2186 1.427 . S
N2190 C2187 1.384 . S
N2191 C2183 1.427 . S
N2191 C2189 1.384 . S
H2192 C2198 0.930 . S
H2193 C2202 0.930 . S
H2194 C2207 0.929 . S
H2195 C2205 0.929 . S
H2196 C2200 0.929 . S
H2197 C2206 0.929 . S
C2198 H2192 0.930 . S
C2198 C2199 1.367 . S
C2198 C2206 1.378 . S
C2199 C2198 1.367 . S
C2199 C2207 1.433 . S
C2200 H2196 0.929 . S
C2200 C2202 1.378 . S
C2200 C2204 1.350 . S
C2201 C2204 1.463 . S
C2201 C2206 1.350 . S
C2201 N2209 1.427 . S
C2202 H2193 0.930 . S
C2202 C2200 1.378 . S
C2202 C2203 1.367 . S
C2203 C2202 1.367 . S
C2203 C2205 1.433 . S
C2204 C2200 1.350 . S
C2204 C2201 1.463 . S
C2204 N2208 1.427 . S
C2205 H2195 0.929 . S
C2205 C2203 1.433 . S
C2205 N2208 1.384 . S
C2206 H2197 0.929 . S
C2206 C2198 1.378 . S
C2206 C2201 1.350 . S
C2207 H2194 0.929 . S
C2207 C2199 1.433 . S
C2207 N2209 1.384 . S
N2208 C2204 1.427 . S
N2208 C2205 1.384 . S
N2209 C2201 1.427 . S
N2209 C2207 1.384 . S
H2210 C2216 0.930 . S
H2211 C2220 0.930 . S
H2212 C2225 0.929 . S
H2213 C2223 0.929 . S
H2214 C2218 0.929 . S
H2215 C2224 0.929 . S
C2216 H2210 0.930 . S
C2216 C2217 1.367 . S
C2216 C2224 1.378 . S
C2217 C2216 1.367 . S
C2217 C2225 1.433 . S
C2218 H2214 0.929 . S
C2218 C2220 1.378 . S
C2218 C2222 1.350 . S
C2219 C2222 1.463 . S
C2219 C2224 1.350 . S
C2219 N2227 1.427 . S
C2220 H2211 0.930 . S
C2220 C2218 1.378 . S
C2220 C2221 1.367 . S
C2221 C2220 1.367 . S
C2221 C2223 1.433 . S
C2222 C2218 1.350 . S
C2222 C2219 1.463 . S
C2222 N2226 1.427 . S
C2223 H2213 0.929 . S
C2223 C2221 1.433 . S
C2223 N2226 1.384 . S
C2224 H2215 0.929 . S
C2224 C2216 1.378 . S
C2224 C2219 1.350 . S
C2225 H2212 0.929 . S
C2225 C2217 1.433 . S
C2225 N2227 1.384 . S
N2226 C2222 1.427 . S
N2226 C2223 1.384 . S
N2227 C2219 1.427 . S
N2227 C2225 1.384 . S
H2228 C2234 0.930 . S
H2229 C2238 0.930 . S
H2230 C2243 0.929 . S
H2231 C2241 0.929 1_655 S
H2232 C2236 0.929 . S
H2233 C2242 0.929 . S
C2234 H2228 0.930 . S
C2234 C2235 1.367 . S
C2234 C2242 1.378 . S
C2235 C2234 1.367 . S
C2235 C2243 1.433 . S
C2236 H2232 0.929 . S
C2236 C2238 1.378 . S
C2236 C2240 1.350 . S
C2237 C2240 1.463 . S
C2237 C2242 1.350 . S
C2237 N2245 1.427 . S
C2238 H2229 0.930 . S
C2238 C2236 1.378 . S
C2238 C2239 1.367 . S
C2239 C2238 1.367 . S
C2239 C2241 1.433 . S
C2240 C2236 1.350 . S
C2240 C2237 1.463 . S
C2240 N2244 1.427 . S
C2241 H2231 0.929 1_455 S
C2241 C2239 1.433 . S
C2241 N2244 1.384 . S
C2242 H2233 0.929 . S
C2242 C2234 1.378 . S
C2242 C2237 1.350 . S
C2243 H2230 0.929 . S
C2243 C2235 1.433 . S
C2243 N2245 1.384 . S
N2244 C2240 1.427 . S
N2244 C2241 1.384 . S
N2245 C2237 1.427 . S
N2245 C2243 1.384 . S
H2246 C2252 0.930 . S
H2247 C2256 0.930 . S
H2248 C2261 0.929 . S
H2249 C2259 0.929 . S
H2250 C2254 0.929 . S
H2251 C2260 0.929 . S
C2252 H2246 0.930 . S
C2252 C2253 1.367 . S
C2252 C2260 1.378 . S
C2253 C2252 1.367 . S
C2253 C2261 1.433 . S
C2254 H2250 0.929 . S
C2254 C2256 1.378 . S
C2254 C2258 1.350 . S
C2255 C2258 1.463 . S
C2255 C2260 1.350 . S
C2255 N2263 1.427 . S
C2256 H2247 0.930 . S
C2256 C2254 1.378 . S
C2256 C2257 1.367 . S
C2257 C2256 1.367 . S
C2257 C2259 1.433 . S
C2258 C2254 1.350 . S
C2258 C2255 1.463 . S
C2258 N2262 1.427 . S
C2259 H2249 0.929 . S
C2259 C2257 1.433 . S
C2259 N2262 1.384 . S
C2260 H2251 0.929 . S
C2260 C2252 1.378 . S
C2260 C2255 1.350 . S
C2261 H2248 0.929 . S
C2261 C2253 1.433 . S
C2261 N2263 1.384 . S
N2262 C2258 1.427 . S
N2262 C2259 1.384 . S
N2263 C2255 1.427 . S
N2263 C2261 1.384 . S
H2264 C2270 0.930 . S
H2265 C2274 0.930 . S
H2266 C2279 0.929 . S
H2267 C2277 0.929 . S
H2268 C2272 0.929 . S
H2269 C2278 0.929 . S
C2270 H2264 0.930 . S
C2270 C2271 1.367 . S
C2270 C2278 1.378 . S
C2271 C2270 1.367 . S
C2271 C2279 1.433 . S
C2272 H2268 0.929 . S
C2272 C2274 1.378 . S
C2272 C2276 1.350 . S
C2273 C2276 1.463 . S
C2273 C2278 1.350 . S
C2273 N2281 1.427 . S
C2274 H2265 0.930 . S
C2274 C2272 1.378 . S
C2274 C2275 1.367 . S
C2275 C2274 1.367 . S
C2275 C2277 1.433 . S
C2276 C2272 1.350 . S
C2276 C2273 1.463 . S
C2276 N2280 1.427 . S
C2277 H2267 0.929 . S
C2277 C2275 1.433 . S
C2277 N2280 1.384 . S
C2278 H2269 0.929 . S
C2278 C2270 1.378 . S
C2278 C2273 1.350 . S
C2279 H2266 0.929 . S
C2279 C2271 1.433 . S
C2279 N2281 1.384 . S
N2280 C2276 1.427 . S
N2280 C2277 1.384 . S
N2281 C2273 1.427 . S
N2281 C2279 1.384 . S
H2282 C2288 0.930 . S
H2283 C2292 0.930 . S
H2284 C2297 0.929 . S
H2285 C2295 0.929 . S
H2286 C2290 0.929 . S
H2287 C2296 0.929 . S
C2288 H2282 0.930 . S
C2288 C2289 1.367 . S
C2288 C2296 1.378 . S
C2289 C2288 1.367 . S
C2289 C2297 1.433 . S
C2290 H2286 0.929 . S
C2290 C2292 1.378 . S
C2290 C2294 1.350 . S
C2291 C2294 1.463 . S
C2291 C2296 1.350 . S
C2291 N2299 1.427 . S
C2292 H2283 0.930 . S
C2292 C2290 1.378 . S
C2292 C2293 1.367 . S
C2293 C2292 1.367 . S
C2293 C2295 1.433 . S
C2294 C2290 1.350 . S
C2294 C2291 1.463 . S
C2294 N2298 1.427 . S
C2295 H2285 0.929 . S
C2295 C2293 1.433 . S
C2295 N2298 1.384 . S
C2296 H2287 0.929 . S
C2296 C2288 1.378 . S
C2296 C2291 1.350 . S
C2297 H2284 0.929 . S
C2297 C2289 1.433 . S
C2297 N2299 1.384 . S
N2298 C2294 1.427 . S
N2298 C2295 1.384 . S
N2299 C2291 1.427 . S
N2299 C2297 1.384 . S
H2300 C2306 0.930 . S
H2301 C2310 0.930 . S
H2302 C2315 0.929 . S
H2303 C2313 0.929 . S
H2304 C2308 0.929 . S
H2305 C2314 0.929 . S
C2306 H2300 0.930 . S
C2306 C2307 1.367 . S
C2306 C2314 1.378 . S
C2307 C2306 1.367 . S
C2307 C2315 1.433 . S
C2308 H2304 0.929 . S
C2308 C2310 1.378 . S
C2308 C2312 1.350 . S
C2309 C2312 1.463 . S
C2309 C2314 1.350 . S
C2309 N2317 1.427 . S
C2310 H2301 0.930 . S
C2310 C2308 1.378 . S
C2310 C2311 1.367 . S
C2311 C2310 1.367 . S
C2311 C2313 1.433 . S
C2312 C2308 1.350 . S
C2312 C2309 1.463 . S
C2312 N2316 1.427 . S
C2313 H2303 0.929 . S
C2313 C2311 1.433 . S
C2313 N2316 1.384 . S
C2314 H2305 0.929 . S
C2314 C2306 1.378 . S
C2314 C2309 1.350 . S
C2315 H2302 0.929 . S
C2315 C2307 1.433 . S
C2315 N2317 1.384 . S
N2316 C2312 1.427 . S
N2316 C2313 1.384 . S
N2317 C2309 1.427 . S
N2317 C2315 1.384 . S
H2318 C2324 0.930 . S
H2319 C2328 0.930 . S
H2320 C2333 0.929 . S
H2321 C2331 0.929 . S
H2322 C2326 0.929 . S
H2323 C2332 0.929 . S
C2324 H2318 0.930 . S
C2324 C2325 1.367 . S
C2324 C2332 1.378 . S
C2325 C2324 1.367 . S
C2325 C2333 1.433 . S
C2326 H2322 0.929 . S
C2326 C2328 1.378 . S
C2326 C2330 1.350 . S
C2327 C2330 1.463 . S
C2327 C2332 1.350 . S
C2327 N2335 1.427 . S
C2328 H2319 0.930 . S
C2328 C2326 1.378 . S
C2328 C2329 1.367 . S
C2329 C2328 1.367 . S
C2329 C2331 1.433 . S
C2330 C2326 1.350 . S
C2330 C2327 1.463 . S
C2330 N2334 1.427 . S
C2331 H2321 0.929 . S
C2331 C2329 1.433 . S
C2331 N2334 1.384 . S
C2332 H2323 0.929 . S
C2332 C2324 1.378 . S
C2332 C2327 1.350 . S
C2333 H2320 0.929 . S
C2333 C2325 1.433 . S
C2333 N2335 1.384 . S
N2334 C2330 1.427 . S
N2334 C2331 1.384 . S
N2335 C2327 1.427 . S
N2335 C2333 1.384 . S
H2336 C2342 0.930 . S
H2337 C2346 0.930 . S
H2338 C2351 0.929 . S
H2339 C2349 0.929 . S
H2340 C2344 0.929 . S
H2341 C2350 0.929 . S
C2342 H2336 0.930 . S
C2342 C2343 1.367 . S
C2342 C2350 1.378 . S
C2343 C2342 1.367 . S
C2343 C2351 1.433 . S
C2344 H2340 0.929 . S
C2344 C2346 1.378 . S
C2344 C2348 1.350 . S
C2345 C2348 1.463 . S
C2345 C2350 1.350 . S
C2345 N2353 1.427 . S
C2346 H2337 0.930 . S
C2346 C2344 1.378 . S
C2346 C2347 1.367 . S
C2347 C2346 1.367 . S
C2347 C2349 1.433 . S
C2348 C2344 1.350 . S
C2348 C2345 1.463 . S
C2348 N2352 1.427 . S
C2349 H2339 0.929 . S
C2349 C2347 1.433 . S
C2349 N2352 1.384 . S
C2350 H2341 0.929 . S
C2350 C2342 1.378 . S
C2350 C2345 1.350 . S
C2351 H2338 0.929 . S
C2351 C2343 1.433 . S
C2351 N2353 1.384 . S
N2352 C2348 1.427 . S
N2352 C2349 1.384 . S
N2353 C2345 1.427 . S
N2353 C2351 1.384 . S
H2354 C2360 0.930 . S
H2355 C2364 0.930 . S
H2356 C2369 0.929 . S
H2357 C2367 0.929 . S
H2358 C2362 0.929 . S
H2359 C2368 0.929 . S
C2360 H2354 0.930 . S
C2360 C2361 1.367 . S
C2360 C2368 1.378 . S
C2361 C2360 1.367 . S
C2361 C2369 1.433 . S
C2362 H2358 0.929 . S
C2362 C2364 1.378 . S
C2362 C2366 1.350 . S
C2363 C2366 1.463 . S
C2363 C2368 1.350 . S
C2363 N2371 1.427 . S
C2364 H2355 0.930 . S
C2364 C2362 1.378 . S
C2364 C2365 1.367 . S
C2365 C2364 1.367 . S
C2365 C2367 1.433 . S
C2366 C2362 1.350 . S
C2366 C2363 1.463 . S
C2366 N2370 1.427 . S
C2367 H2357 0.929 . S
C2367 C2365 1.433 . S
C2367 N2370 1.384 . S
C2368 H2359 0.929 . S
C2368 C2360 1.378 . S
C2368 C2363 1.350 . S
C2369 H2356 0.929 . S
C2369 C2361 1.433 . S
C2369 N2371 1.384 . S
N2370 C2366 1.427 . S
N2370 C2367 1.384 . S
N2371 C2363 1.427 . S
N2371 C2369 1.384 . S
H2372 C2378 0.930 . S
H2373 C2382 0.930 . S
H2374 C2387 0.929 . S
H2375 C2385 0.929 . S
H2376 C2380 0.929 . S
H2377 C2386 0.929 . S
C2378 H2372 0.930 . S
C2378 C2379 1.367 . S
C2378 C2386 1.378 . S
C2379 C2378 1.367 . S
C2379 C2387 1.433 . S
C2380 H2376 0.929 . S
C2380 C2382 1.378 . S
C2380 C2384 1.350 . S
C2381 C2384 1.463 . S
C2381 C2386 1.350 . S
C2381 N2389 1.427 . S
C2382 H2373 0.930 . S
C2382 C2380 1.378 . S
C2382 C2383 1.367 . S
C2383 C2382 1.367 . S
C2383 C2385 1.433 . S
C2384 C2380 1.350 . S
C2384 C2381 1.463 . S
C2384 N2388 1.427 . S
C2385 H2375 0.929 . S
C2385 C2383 1.433 . S
C2385 N2388 1.384 . S
C2386 H2377 0.929 . S
C2386 C2378 1.378 . S
C2386 C2381 1.350 . S
C2387 H2374 0.929 . S
C2387 C2379 1.433 . S
C2387 N2389 1.384 . S
N2388 C2384 1.427 . S
N2388 C2385 1.384 . S
N2389 C2381 1.427 . S
N2389 C2387 1.384 . S
H2390 C2396 0.930 . S
H2391 C2400 0.930 . S
H2392 C2405 0.929 . S
H2393 C2403 0.929 . S
H2394 C2398 0.929 . S
H2395 C2404 0.929 . S
C2396 H2390 0.930 . S
C2396 C2397 1.367 . S
C2396 C2404 1.378 . S
C2397 C2396 1.367 . S
C2397 C2405 1.433 . S
C2398 H2394 0.929 . S
C2398 C2400 1.378 . S
C2398 C2402 1.350 1_545 S
C2399 C2402 1.463 . S
C2399 C2404 1.350 . S
C2399 N2407 1.427 . S
C2400 H2391 0.930 . S
C2400 C2398 1.378 . S
C2400 C2401 1.367 . S
C2401 C2400 1.367 . S
C2401 C2403 1.433 1_545 S
C2402 C2398 1.350 1_565 S
C2402 C2399 1.463 . S
C2402 N2406 1.427 . S
C2403 H2393 0.929 . S
C2403 C2401 1.433 1_565 S
C2403 N2406 1.384 . S
C2404 H2395 0.929 . S
C2404 C2396 1.378 . S
C2404 C2399 1.350 . S
C2405 H2392 0.929 . S
C2405 C2397 1.433 . S
C2405 N2407 1.384 . S
N2406 C2402 1.427 . S
N2406 C2403 1.384 . S
N2407 C2399 1.427 . S
N2407 C2405 1.384 . S
H2408 C2414 0.930 . S
H2409 C2418 0.930 . S
H2410 C2423 0.929 . S
H2411 C2421 0.929 . S
H2412 C2416 0.929 . S
H2413 C2422 0.929 . S
C2414 H2408 0.930 . S
C2414 C2415 1.367 . S
C2414 C2422 1.378 . S
C2415 C2414 1.367 . S
C2415 C2423 1.433 . S
C2416 H2412 0.929 . S
C2416 C2418 1.378 . S
C2416 C2420 1.350 . S
C2417 C2420 1.463 . S
C2417 C2422 1.350 . S
C2417 N2425 1.427 . S
C2418 H2409 0.930 . S
C2418 C2416 1.378 . S
C2418 C2419 1.367 . S
C2419 C2418 1.367 . S
C2419 C2421 1.433 . S
C2420 C2416 1.350 . S
C2420 C2417 1.463 . S
C2420 N2424 1.427 . S
C2421 H2411 0.929 . S
C2421 C2419 1.433 . S
C2421 N2424 1.384 . S
C2422 H2413 0.929 . S
C2422 C2414 1.378 . S
C2422 C2417 1.350 . S
C2423 H2410 0.929 . S
C2423 C2415 1.433 . S
C2423 N2425 1.384 . S
N2424 C2420 1.427 . S
N2424 C2421 1.384 . S
N2425 C2417 1.427 . S
N2425 C2423 1.384 . S
H2426 C2432 0.930 . S
H2427 C2436 0.930 . S
H2428 C2441 0.929 . S
H2429 C2439 0.929 . S
H2430 C2434 0.929 . S
H2431 C2440 0.929 1_556 S
C2432 H2426 0.930 . S
C2432 C2433 1.367 1_556 S
C2432 C2440 1.378 1_556 S
C2433 C2432 1.367 1_554 S
C2433 C2441 1.433 . S
C2434 H2430 0.929 . S
C2434 C2436 1.378 . S
C2434 C2438 1.350 . S
C2435 C2438 1.463 . S
C2435 C2440 1.350 . S
C2435 N2443 1.427 . S
C2436 H2427 0.930 . S
C2436 C2434 1.378 . S
C2436 C2437 1.367 . S
C2437 C2436 1.367 . S
C2437 C2439 1.433 . S
C2438 C2434 1.350 . S
C2438 C2435 1.463 . S
C2438 N2442 1.427 . S
C2439 H2429 0.929 . S
C2439 C2437 1.433 . S
C2439 N2442 1.384 . S
C2440 H2431 0.929 1_554 S
C2440 C2432 1.378 1_554 S
C2440 C2435 1.350 . S
C2441 H2428 0.929 . S
C2441 C2433 1.433 . S
C2441 N2443 1.384 . S
N2442 C2438 1.427 . S
N2442 C2439 1.384 . S
N2443 C2435 1.427 . S
N2443 C2441 1.384 . S
H2444 C2450 0.930 . S
H2445 C2454 0.930 . S
H2446 C2459 0.929 . S
H2447 C2457 0.929 . S
H2448 C2452 0.929 . S
H2449 C2458 0.929 . S
C2450 H2444 0.930 . S
C2450 C2451 1.367 . S
C2450 C2458 1.378 . S
C2451 C2450 1.367 . S
C2451 C2459 1.433 . S
C2452 H2448 0.929 . S
C2452 C2454 1.378 . S
C2452 C2456 1.350 . S
C2453 C2456 1.463 . S
C2453 C2458 1.350 . S
C2453 N2461 1.427 . S
C2454 H2445 0.930 . S
C2454 C2452 1.378 . S
C2454 C2455 1.367 . S
C2455 C2454 1.367 . S
C2455 C2457 1.433 . S
C2456 C2452 1.350 . S
C2456 C2453 1.463 . S
C2456 N2460 1.427 . S
C2457 H2447 0.929 . S
C2457 C2455 1.433 . S
C2457 N2460 1.384 . S
C2458 H2449 0.929 . S
C2458 C2450 1.378 . S
C2458 C2453 1.350 . S
C2459 H2446 0.929 . S
C2459 C2451 1.433 . S
C2459 N2461 1.384 . S
N2460 C2456 1.427 . S
N2460 C2457 1.384 . S
N2461 C2453 1.427 . S
N2461 C2459 1.384 . S
H2462 C2468 0.930 . S
H2463 C2472 0.930 . S
H2464 C2477 0.929 1_545 S
H2465 C2475 0.929 . S
H2466 C2470 0.929 . S
H2467 C2476 0.929 . S
C2468 H2462 0.930 . S
C2468 C2469 1.367 . S
C2468 C2476 1.378 . S
C2469 C2468 1.367 . S
C2469 C2477 1.433 . S
C2470 H2466 0.929 . S
C2470 C2472 1.378 . S
C2470 C2474 1.350 . S
C2471 C2474 1.463 . S
C2471 C2476 1.350 . S
C2471 N2479 1.427 . S
C2472 H2463 0.930 . S
C2472 C2470 1.378 . S
C2472 C2473 1.367 . S
C2473 C2472 1.367 . S
C2473 C2475 1.433 . S
C2474 C2470 1.350 . S
C2474 C2471 1.463 . S
C2474 N2478 1.427 . S
C2475 H2465 0.929 . S
C2475 C2473 1.433 . S
C2475 N2478 1.384 . S
C2476 H2467 0.929 . S
C2476 C2468 1.378 . S
C2476 C2471 1.350 . S
C2477 H2464 0.929 1_565 S
C2477 C2469 1.433 . S
C2477 N2479 1.384 . S
N2478 C2474 1.427 . S
N2478 C2475 1.384 . S
N2479 C2471 1.427 . S
N2479 C2477 1.384 . S
H2480 C2486 0.930 . S
H2481 C2490 0.930 . S
H2482 C2495 0.929 . S
H2483 C2493 0.929 . S
H2484 C2488 0.929 . S
H2485 C2494 0.929 . S
C2486 H2480 0.930 . S
C2486 C2487 1.367 . S
C2486 C2494 1.378 . S
C2487 C2486 1.367 . S
C2487 C2495 1.433 . S
C2488 H2484 0.929 . S
C2488 C2490 1.378 . S
C2488 C2492 1.350 . S
C2489 C2492 1.463 . S
C2489 C2494 1.350 . S
C2489 N2497 1.427 . S
C2490 H2481 0.930 . S
C2490 C2488 1.378 . S
C2490 C2491 1.367 . S
C2491 C2490 1.367 . S
C2491 C2493 1.433 . S
C2492 C2488 1.350 . S
C2492 C2489 1.463 . S
C2492 N2496 1.427 . S
C2493 H2483 0.929 . S
C2493 C2491 1.433 . S
C2493 N2496 1.384 . S
C2494 H2485 0.929 . S
C2494 C2486 1.378 . S
C2494 C2489 1.350 . S
C2495 H2482 0.929 . S
C2495 C2487 1.433 . S
C2495 N2497 1.384 . S
N2496 C2492 1.427 . S
N2496 C2493 1.384 . S
N2497 C2489 1.427 . S
N2497 C2495 1.384 . S
H2498 C2504 0.930 . S
H2499 C2508 0.930 . S
H2500 C2513 0.929 . S
H2501 C2511 0.929 . S
H2502 C2506 0.929 . S
H2503 C2512 0.929 . S
C2504 H2498 0.930 . S
C2504 C2505 1.367 . S
C2504 C2512 1.378 . S
C2505 C2504 1.367 . S
C2505 C2513 1.433 . S
C2506 H2502 0.929 . S
C2506 C2508 1.378 . S
C2506 C2510 1.350 . S
C2507 C2510 1.463 . S
C2507 C2512 1.350 . S
C2507 N2515 1.427 . S
C2508 H2499 0.930 . S
C2508 C2506 1.378 . S
C2508 C2509 1.367 . S
C2509 C2508 1.367 . S
C2509 C2511 1.433 . S
C2510 C2506 1.350 . S
C2510 C2507 1.463 . S
C2510 N2514 1.427 . S
C2511 H2501 0.929 . S
C2511 C2509 1.433 . S
C2511 N2514 1.384 . S
C2512 H2503 0.929 . S
C2512 C2504 1.378 . S
C2512 C2507 1.350 . S
C2513 H2500 0.929 . S
C2513 C2505 1.433 . S
C2513 N2515 1.384 . S
N2514 C2510 1.427 . S
N2514 C2511 1.384 . S
N2515 C2507 1.427 . S
N2515 C2513 1.384 . S
H2516 C2522 0.930 . S
H2517 C2526 0.930 . S
H2518 C2531 0.929 . S
H2519 C2529 0.929 . S
H2520 C2524 0.929 . S
H2521 C2530 0.929 . S
C2522 H2516 0.930 . S
C2522 C2523 1.367 1_655 S
C2522 C2530 1.378 . S
C2523 C2522 1.367 1_455 S
C2523 C2531 1.433 . S
C2524 H2520 0.929 . S
C2524 C2526 1.378 . S
C2524 C2528 1.350 . S
C2525 C2528 1.463 . S
C2525 C2530 1.350 1_455 S
C2525 N2533 1.427 . S
C2526 H2517 0.930 . S
C2526 C2524 1.378 . S
C2526 C2527 1.367 . S
C2527 C2526 1.367 . S
C2527 C2529 1.433 1_455 S
C2528 C2524 1.350 . S
C2528 C2525 1.463 . S
C2528 N2532 1.427 1_455 S
C2529 H2519 0.929 . S
C2529 C2527 1.433 1_655 S
C2529 N2532 1.384 . S
C2530 H2521 0.929 . S
C2530 C2522 1.378 . S
C2530 C2525 1.350 1_655 S
C2531 H2518 0.929 . S
C2531 C2523 1.433 . S
C2531 N2533 1.384 . S
N2532 C2528 1.427 1_655 S
N2532 C2529 1.384 . S
N2533 C2525 1.427 . S
N2533 C2531 1.384 . S
H2534 C2540 0.930 . S
H2535 C2544 0.930 . S
H2536 C2549 0.929 . S
H2537 C2547 0.929 . S
H2538 C2542 0.929 . S
H2539 C2548 0.929 . S
C2540 H2534 0.930 . S
C2540 C2541 1.367 . S
C2540 C2548 1.378 . S
C2541 C2540 1.367 . S
C2541 C2549 1.433 . S
C2542 H2538 0.929 . S
C2542 C2544 1.378 . S
C2542 C2546 1.350 . S
C2543 C2546 1.463 . S
C2543 C2548 1.350 . S
C2543 N2551 1.427 . S
C2544 H2535 0.930 . S
C2544 C2542 1.378 . S
C2544 C2545 1.367 . S
C2545 C2544 1.367 . S
C2545 C2547 1.433 . S
C2546 C2542 1.350 . S
C2546 C2543 1.463 . S
C2546 N2550 1.427 . S
C2547 H2537 0.929 . S
C2547 C2545 1.433 . S
C2547 N2550 1.384 . S
C2548 H2539 0.929 . S
C2548 C2540 1.378 . S
C2548 C2543 1.350 . S
C2549 H2536 0.929 . S
C2549 C2541 1.433 . S
C2549 N2551 1.384 . S
N2550 C2546 1.427 . S
N2550 C2547 1.384 . S
N2551 C2543 1.427 . S
N2551 C2549 1.384 . S
H2552 C2558 0.930 . S
H2553 C2562 0.930 . S
H2554 C2567 0.929 . S
H2555 C2565 0.929 . S
H2556 C2560 0.929 . S
H2557 C2566 0.929 . S
C2558 H2552 0.930 . S
C2558 C2559 1.367 . S
C2558 C2566 1.378 . S
C2559 C2558 1.367 . S
C2559 C2567 1.433 . S
C2560 H2556 0.929 . S
C2560 C2562 1.378 . S
C2560 C2564 1.350 . S
C2561 C2564 1.463 . S
C2561 C2566 1.350 . S
C2561 N2569 1.427 . S
C2562 H2553 0.930 . S
C2562 C2560 1.378 . S
C2562 C2563 1.367 . S
C2563 C2562 1.367 . S
C2563 C2565 1.433 . S
C2564 C2560 1.350 . S
C2564 C2561 1.463 . S
C2564 N2568 1.427 . S
C2565 H2555 0.929 . S
C2565 C2563 1.433 . S
C2565 N2568 1.384 . S
C2566 H2557 0.929 . S
C2566 C2558 1.378 . S
C2566 C2561 1.350 . S
C2567 H2554 0.929 . S
C2567 C2559 1.433 . S
C2567 N2569 1.384 . S
N2568 C2564 1.427 . S
N2568 C2565 1.384 . S
N2569 C2561 1.427 . S
N2569 C2567 1.384 . S
H2570 C2576 0.930 . S
H2571 C2580 0.930 . S
H2572 C2585 0.929 . S
H2573 C2583 0.929 . S
H2574 C2578 0.929 . S
H2575 C2584 0.929 . S
C2576 H2570 0.930 . S
C2576 C2577 1.367 . S
C2576 C2584 1.378 . S
C2577 C2576 1.367 . S
C2577 C2585 1.433 . S
C2578 H2574 0.929 . S
C2578 C2580 1.378 . S
C2578 C2582 1.350 . S
C2579 C2582 1.463 . S
C2579 C2584 1.350 . S
C2579 N2587 1.427 . S
C2580 H2571 0.930 . S
C2580 C2578 1.378 . S
C2580 C2581 1.367 . S
C2581 C2580 1.367 . S
C2581 C2583 1.433 . S
C2582 C2578 1.350 . S
C2582 C2579 1.463 . S
C2582 N2586 1.427 . S
C2583 H2573 0.929 . S
C2583 C2581 1.433 . S
C2583 N2586 1.384 . S
C2584 H2575 0.929 . S
C2584 C2576 1.378 . S
C2584 C2579 1.350 . S
C2585 H2572 0.929 . S
C2585 C2577 1.433 . S
C2585 N2587 1.384 . S
N2586 C2582 1.427 . S
N2586 C2583 1.384 . S
N2587 C2579 1.427 . S
N2587 C2585 1.384 . S
H2588 C2594 0.930 . S
H2589 C2598 0.930 . S
H2590 C2603 0.929 . S
H2591 C2601 0.929 . S
H2592 C2596 0.929 . S
H2593 C2602 0.929 . S
C2594 H2588 0.930 . S
C2594 C2595 1.367 . S
C2594 C2602 1.378 . S
C2595 C2594 1.367 . S
C2595 C2603 1.433 . S
C2596 H2592 0.929 . S
C2596 C2598 1.378 . S
C2596 C2600 1.350 . S
C2597 C2600 1.463 . S
C2597 C2602 1.350 . S
C2597 N2605 1.427 . S
C2598 H2589 0.930 . S
C2598 C2596 1.378 . S
C2598 C2599 1.367 . S
C2599 C2598 1.367 . S
C2599 C2601 1.433 . S
C2600 C2596 1.350 . S
C2600 C2597 1.463 . S
C2600 N2604 1.427 . S
C2601 H2591 0.929 . S
C2601 C2599 1.433 . S
C2601 N2604 1.384 . S
C2602 H2593 0.929 . S
C2602 C2594 1.378 . S
C2602 C2597 1.350 . S
C2603 H2590 0.929 . S
C2603 C2595 1.433 . S
C2603 N2605 1.384 . S
N2604 C2600 1.427 . S
N2604 C2601 1.384 . S
N2605 C2597 1.427 . S
N2605 C2603 1.384 . S
H2606 C2612 0.930 . S
H2607 C2616 0.930 . S
H2608 C2621 0.929 . S
H2609 C2619 0.929 . S
H2610 C2614 0.929 . S
H2611 C2620 0.929 . S
C2612 H2606 0.930 . S
C2612 C2613 1.367 . S
C2612 C2620 1.378 . S
C2613 C2612 1.367 . S
C2613 C2621 1.433 . S
C2614 H2610 0.929 . S
C2614 C2616 1.378 . S
C2614 C2618 1.350 . S
C2615 C2618 1.463 . S
C2615 C2620 1.350 . S
C2615 N2623 1.427 . S
C2616 H2607 0.930 . S
C2616 C2614 1.378 . S
C2616 C2617 1.367 . S
C2617 C2616 1.367 . S
C2617 C2619 1.433 . S
C2618 C2614 1.350 . S
C2618 C2615 1.463 . S
C2618 N2622 1.427 . S
C2619 H2609 0.929 . S
C2619 C2617 1.433 . S
C2619 N2622 1.384 . S
C2620 H2611 0.929 . S
C2620 C2612 1.378 . S
C2620 C2615 1.350 . S
C2621 H2608 0.929 . S
C2621 C2613 1.433 . S
C2621 N2623 1.384 . S
N2622 C2618 1.427 . S
N2622 C2619 1.384 . S
N2623 C2615 1.427 . S
N2623 C2621 1.384 . S
H2624 C2630 0.930 . S
H2625 C2634 0.930 . S
H2626 C2639 0.929 . S
H2627 C2637 0.929 . S
H2628 C2632 0.929 . S
H2629 C2638 0.929 . S
C2630 H2624 0.930 . S
C2630 C2631 1.367 . S
C2630 C2638 1.378 . S
C2631 C2630 1.367 . S
C2631 C2639 1.433 . S
C2632 H2628 0.929 . S
C2632 C2634 1.378 . S
C2632 C2636 1.350 . S
C2633 C2636 1.463 . S
C2633 C2638 1.350 . S
C2633 N2641 1.427 . S
C2634 H2625 0.930 . S
C2634 C2632 1.378 . S
C2634 C2635 1.367 . S
C2635 C2634 1.367 . S
C2635 C2637 1.433 . S
C2636 C2632 1.350 . S
C2636 C2633 1.463 . S
C2636 N2640 1.427 . S
C2637 H2627 0.929 . S
C2637 C2635 1.433 . S
C2637 N2640 1.384 . S
C2638 H2629 0.929 . S
C2638 C2630 1.378 . S
C2638 C2633 1.350 . S
C2639 H2626 0.929 . S
C2639 C2631 1.433 . S
C2639 N2641 1.384 . S
N2640 C2636 1.427 . S
N2640 C2637 1.384 . S
N2641 C2633 1.427 . S
N2641 C2639 1.384 . S
H2642 C2648 0.930 . S
H2643 C2652 0.930 . S
H2644 C2657 0.929 . S
H2645 C2655 0.929 . S
H2646 C2650 0.929 . S
H2647 C2656 0.929 . S
C2648 H2642 0.930 . S
C2648 C2649 1.367 . S
C2648 C2656 1.378 . S
C2649 C2648 1.367 . S
C2649 C2657 1.433 . S
C2650 H2646 0.929 . S
C2650 C2652 1.378 . S
C2650 C2654 1.350 . S
C2651 C2654 1.463 . S
C2651 C2656 1.350 . S
C2651 N2659 1.427 . S
C2652 H2643 0.930 . S
C2652 C2650 1.378 . S
C2652 C2653 1.367 . S
C2653 C2652 1.367 . S
C2653 C2655 1.433 . S
C2654 C2650 1.350 . S
C2654 C2651 1.463 . S
C2654 N2658 1.427 . S
C2655 H2645 0.929 . S
C2655 C2653 1.433 . S
C2655 N2658 1.384 . S
C2656 H2647 0.929 . S
C2656 C2648 1.378 . S
C2656 C2651 1.350 . S
C2657 H2644 0.929 . S
C2657 C2649 1.433 . S
C2657 N2659 1.384 . S
N2658 C2654 1.427 . S
N2658 C2655 1.384 . S
N2659 C2651 1.427 . S
N2659 C2657 1.384 . S
H2660 C2666 0.930 . S
H2661 C2670 0.930 . S
H2662 C2675 0.929 . S
H2663 C2673 0.929 . S
H2664 C2668 0.929 . S
H2665 C2674 0.929 . S
C2666 H2660 0.930 . S
C2666 C2667 1.367 . S
C2666 C2674 1.378 . S
C2667 C2666 1.367 . S
C2667 C2675 1.433 . S
C2668 H2664 0.929 . S
C2668 C2670 1.378 . S
C2668 C2672 1.350 . S
C2669 C2672 1.463 . S
C2669 C2674 1.350 . S
C2669 N2677 1.427 . S
C2670 H2661 0.930 . S
C2670 C2668 1.378 . S
C2670 C2671 1.367 . S
C2671 C2670 1.367 . S
C2671 C2673 1.433 . S
C2672 C2668 1.350 . S
C2672 C2669 1.463 . S
C2672 N2676 1.427 . S
C2673 H2663 0.929 . S
C2673 C2671 1.433 . S
C2673 N2676 1.384 . S
C2674 H2665 0.929 . S
C2674 C2666 1.378 . S
C2674 C2669 1.350 . S
C2675 H2662 0.929 . S
C2675 C2667 1.433 . S
C2675 N2677 1.384 . S
N2676 C2672 1.427 . S
N2676 C2673 1.384 . S
N2677 C2669 1.427 . S
N2677 C2675 1.384 . S
H2678 C2684 0.930 . S
H2679 C2688 0.930 . S
H2680 C2693 0.929 . S
H2681 C2691 0.929 . S
H2682 C2686 0.929 . S
H2683 C2692 0.929 . S
C2684 H2678 0.930 . S
C2684 C2685 1.367 . S
C2684 C2692 1.378 . S
C2685 C2684 1.367 . S
C2685 C2693 1.433 . S
C2686 H2682 0.929 . S
C2686 C2688 1.378 . S
C2686 C2690 1.350 . S
C2687 C2690 1.463 . S
C2687 C2692 1.350 . S
C2687 N2695 1.427 . S
C2688 H2679 0.930 . S
C2688 C2686 1.378 . S
C2688 C2689 1.367 . S
C2689 C2688 1.367 . S
C2689 C2691 1.433 . S
C2690 C2686 1.350 . S
C2690 C2687 1.463 . S
C2690 N2694 1.427 . S
C2691 H2681 0.929 . S
C2691 C2689 1.433 . S
C2691 N2694 1.384 . S
C2692 H2683 0.929 . S
C2692 C2684 1.378 . S
C2692 C2687 1.350 . S
C2693 H2680 0.929 . S
C2693 C2685 1.433 . S
C2693 N2695 1.384 . S
N2694 C2690 1.427 . S
N2694 C2691 1.384 . S
N2695 C2687 1.427 . S
N2695 C2693 1.384 . S
H2696 C2702 0.930 . S
H2697 C2706 0.930 . S
H2698 C2711 0.929 . S
H2699 C2709 0.929 . S
H2700 C2704 0.929 . S
H2701 C2710 0.929 . S
C2702 H2696 0.930 . S
C2702 C2703 1.367 . S
C2702 C2710 1.378 . S
C2703 C2702 1.367 . S
C2703 C2711 1.433 . S
C2704 H2700 0.929 . S
C2704 C2706 1.378 . S
C2704 C2708 1.350 . S
C2705 C2708 1.463 . S
C2705 C2710 1.350 . S
C2705 N2713 1.427 . S
C2706 H2697 0.930 . S
C2706 C2704 1.378 . S
C2706 C2707 1.367 . S
C2707 C2706 1.367 . S
C2707 C2709 1.433 . S
C2708 C2704 1.350 . S
C2708 C2705 1.463 . S
C2708 N2712 1.427 . S
C2709 H2699 0.929 . S
C2709 C2707 1.433 . S
C2709 N2712 1.384 . S
C2710 H2701 0.929 . S
C2710 C2702 1.378 . S
C2710 C2705 1.350 . S
C2711 H2698 0.929 . S
C2711 C2703 1.433 . S
C2711 N2713 1.384 . S
N2712 C2708 1.427 . S
N2712 C2709 1.384 . S
N2713 C2705 1.427 . S
N2713 C2711 1.384 . S
H2714 C2720 0.930 . S
H2715 C2724 0.930 . S
H2716 C2729 0.929 . S
H2717 C2727 0.929 . S
H2718 C2722 0.929 . S
H2719 C2728 0.929 . S
C2720 H2714 0.930 . S
C2720 C2721 1.367 . S
C2720 C2728 1.378 . S
C2721 C2720 1.367 . S
C2721 C2729 1.433 . S
C2722 H2718 0.929 . S
C2722 C2724 1.378 . S
C2722 C2726 1.350 . S
C2723 C2726 1.463 . S
C2723 C2728 1.350 . S
C2723 N2731 1.427 . S
C2724 H2715 0.930 . S
C2724 C2722 1.378 . S
C2724 C2725 1.367 . S
C2725 C2724 1.367 . S
C2725 C2727 1.433 . S
C2726 C2722 1.350 . S
C2726 C2723 1.463 . S
C2726 N2730 1.427 . S
C2727 H2717 0.929 . S
C2727 C2725 1.433 . S
C2727 N2730 1.384 . S
C2728 H2719 0.929 . S
C2728 C2720 1.378 . S
C2728 C2723 1.350 . S
C2729 H2716 0.929 . S
C2729 C2721 1.433 . S
C2729 N2731 1.384 . S
N2730 C2726 1.427 . S
N2730 C2727 1.384 . S
N2731 C2723 1.427 . S
N2731 C2729 1.384 . S
H2732 C2738 0.930 . S
H2733 C2742 0.930 . S
H2734 C2747 0.929 . S
H2735 C2745 0.929 . S
H2736 C2740 0.929 . S
H2737 C2746 0.929 . S
C2738 H2732 0.930 . S
C2738 C2739 1.367 . S
C2738 C2746 1.378 . S
C2739 C2738 1.367 . S
C2739 C2747 1.433 . S
C2740 H2736 0.929 . S
C2740 C2742 1.378 . S
C2740 C2744 1.350 . S
C2741 C2744 1.463 . S
C2741 C2746 1.350 . S
C2741 N2749 1.427 . S
C2742 H2733 0.930 . S
C2742 C2740 1.378 . S
C2742 C2743 1.367 . S
C2743 C2742 1.367 . S
C2743 C2745 1.433 . S
C2744 C2740 1.350 . S
C2744 C2741 1.463 . S
C2744 N2748 1.427 . S
C2745 H2735 0.929 . S
C2745 C2743 1.433 . S
C2745 N2748 1.384 . S
C2746 H2737 0.929 . S
C2746 C2738 1.378 . S
C2746 C2741 1.350 . S
C2747 H2734 0.929 . S
C2747 C2739 1.433 . S
C2747 N2749 1.384 . S
N2748 C2744 1.427 . S
N2748 C2745 1.384 . S
N2749 C2741 1.427 . S
N2749 C2747 1.384 . S
H2750 C2756 0.930 . S
H2751 C2760 0.930 . S
H2752 C2765 0.929 . S
H2753 C2763 0.929 . S
H2754 C2758 0.929 . S
H2755 C2764 0.929 . S
C2756 H2750 0.930 . S
C2756 C2757 1.367 . S
C2756 C2764 1.378 . S
C2757 C2756 1.367 . S
C2757 C2765 1.433 . S
C2758 H2754 0.929 . S
C2758 C2760 1.378 . S
C2758 C2762 1.350 . S
C2759 C2762 1.463 . S
C2759 C2764 1.350 . S
C2759 N2767 1.427 . S
C2760 H2751 0.930 . S
C2760 C2758 1.378 . S
C2760 C2761 1.367 . S
C2761 C2760 1.367 . S
C2761 C2763 1.433 . S
C2762 C2758 1.350 . S
C2762 C2759 1.463 . S
C2762 N2766 1.427 . S
C2763 H2753 0.929 . S
C2763 C2761 1.433 . S
C2763 N2766 1.384 . S
C2764 H2755 0.929 . S
C2764 C2756 1.378 . S
C2764 C2759 1.350 . S
C2765 H2752 0.929 . S
C2765 C2757 1.433 . S
C2765 N2767 1.384 . S
N2766 C2762 1.427 . S
N2766 C2763 1.384 . S
N2767 C2759 1.427 . S
N2767 C2765 1.384 . S
H2768 C2774 0.930 . S
H2769 C2778 0.930 . S
H2770 C2783 0.929 . S
H2771 C2781 0.929 . S
H2772 C2776 0.929 . S
H2773 C2782 0.929 . S
C2774 H2768 0.930 . S
C2774 C2775 1.367 . S
C2774 C2782 1.378 . S
C2775 C2774 1.367 . S
C2775 C2783 1.433 . S
C2776 H2772 0.929 . S
C2776 C2778 1.378 . S
C2776 C2780 1.350 . S
C2777 C2780 1.463 . S
C2777 C2782 1.350 . S
C2777 N2785 1.427 . S
C2778 H2769 0.930 . S
C2778 C2776 1.378 . S
C2778 C2779 1.367 . S
C2779 C2778 1.367 . S
C2779 C2781 1.433 . S
C2780 C2776 1.350 . S
C2780 C2777 1.463 . S
C2780 N2784 1.427 . S
C2781 H2771 0.929 . S
C2781 C2779 1.433 . S
C2781 N2784 1.384 . S
C2782 H2773 0.929 . S
C2782 C2774 1.378 . S
C2782 C2777 1.350 . S
C2783 H2770 0.929 . S
C2783 C2775 1.433 . S
C2783 N2785 1.384 . S
N2784 C2780 1.427 . S
N2784 C2781 1.384 . S
N2785 C2777 1.427 . S
N2785 C2783 1.384 . S
H2786 C2792 0.930 . S
H2787 C2796 0.930 . S
H2788 C2801 0.929 . S
H2789 C2799 0.929 . S
H2790 C2794 0.929 . S
H2791 C2800 0.929 . S
C2792 H2786 0.930 . S
C2792 C2793 1.367 . S
C2792 C2800 1.378 . S
C2793 C2792 1.367 . S
C2793 C2801 1.433 . S
C2794 H2790 0.929 . S
C2794 C2796 1.378 . S
C2794 C2798 1.350 . S
C2795 C2798 1.463 . S
C2795 C2800 1.350 . S
C2795 N2803 1.427 . S
C2796 H2787 0.930 . S
C2796 C2794 1.378 . S
C2796 C2797 1.367 . S
C2797 C2796 1.367 . S
C2797 C2799 1.433 . S
C2798 C2794 1.350 . S
C2798 C2795 1.463 . S
C2798 N2802 1.427 . S
C2799 H2789 0.929 . S
C2799 C2797 1.433 . S
C2799 N2802 1.384 . S
C2800 H2791 0.929 . S
C2800 C2792 1.378 . S
C2800 C2795 1.350 . S
C2801 H2788 0.929 . S
C2801 C2793 1.433 . S
C2801 N2803 1.384 . S
N2802 C2798 1.427 . S
N2802 C2799 1.384 . S
N2803 C2795 1.427 . S
N2803 C2801 1.384 . S
H2804 C2810 0.930 . S
H2805 C2814 0.930 . S
H2806 C2819 0.929 . S
H2807 C2817 0.929 . S
H2808 C2812 0.929 . S
H2809 C2818 0.929 . S
C2810 H2804 0.930 . S
C2810 C2811 1.367 . S
C2810 C2818 1.378 . S
C2811 C2810 1.367 . S
C2811 C2819 1.433 . S
C2812 H2808 0.929 . S
C2812 C2814 1.378 . S
C2812 C2816 1.350 . S
C2813 C2816 1.463 . S
C2813 C2818 1.350 . S
C2813 N2821 1.427 . S
C2814 H2805 0.930 . S
C2814 C2812 1.378 . S
C2814 C2815 1.367 . S
C2815 C2814 1.367 . S
C2815 C2817 1.433 . S
C2816 C2812 1.350 . S
C2816 C2813 1.463 . S
C2816 N2820 1.427 . S
C2817 H2807 0.929 . S
C2817 C2815 1.433 . S
C2817 N2820 1.384 . S
C2818 H2809 0.929 . S
C2818 C2810 1.378 . S
C2818 C2813 1.350 . S
C2819 H2806 0.929 . S
C2819 C2811 1.433 . S
C2819 N2821 1.384 . S
N2820 C2816 1.427 . S
N2820 C2817 1.384 . S
N2821 C2813 1.427 . S
N2821 C2819 1.384 . S
H2822 C2828 0.930 . S
H2823 C2832 0.930 . S
H2824 C2837 0.929 . S
H2825 C2835 0.929 . S
H2826 C2830 0.929 . S
H2827 C2836 0.929 . S
C2828 H2822 0.930 . S
C2828 C2829 1.367 1_554 S
C2828 C2836 1.378 . S
C2829 C2828 1.367 1_556 S
C2829 C2837 1.433 . S
C2830 H2826 0.929 . S
C2830 C2832 1.378 . S
C2830 C2834 1.350 1_556 S
C2831 C2834 1.470 . S
C2831 C2836 1.382 . S
C2831 N2839 1.387 1_554 S
C2832 H2823 0.930 . S
C2832 C2830 1.378 . S
C2832 C2833 1.367 1_556 S
C2833 C2832 1.367 1_554 S
C2833 C2835 1.433 . S
C2834 C2830 1.350 1_554 S
C2834 C2831 1.470 . S
C2834 N2838 1.427 . S
C2835 H2825 0.929 . S
C2835 C2833 1.433 . S
C2835 N2838 1.384 . S
C2836 H2827 0.929 . S
C2836 C2828 1.378 . S
C2836 C2831 1.382 . S
C2837 H2824 0.929 . S
C2837 C2829 1.433 . S
C2837 N2839 1.384 . S
N2838 C2834 1.427 . S
N2838 C2835 1.384 . S
N2839 C2831 1.387 1_556 S
N2839 C2837 1.384 . S
H2840 C2846 0.930 . S
H2841 C2850 0.930 . S
H2842 C2855 0.929 . S
H2843 C2853 0.929 . S
H2844 C2848 0.929 . S
H2845 C2854 0.929 . S
C2846 H2840 0.930 . S
C2846 C2847 1.367 . S
C2846 C2854 1.378 . S
C2847 C2846 1.367 . S
C2847 C2855 1.433 . S
C2848 H2844 0.929 . S
C2848 C2850 1.378 . S
C2848 C2852 1.350 . S
C2849 C2852 1.463 . S
C2849 C2854 1.350 . S
C2849 N2857 1.427 . S
C2850 H2841 0.930 . S
C2850 C2848 1.378 . S
C2850 C2851 1.367 . S
C2851 C2850 1.367 . S
C2851 C2853 1.433 . S
C2852 C2848 1.350 . S
C2852 C2849 1.463 . S
C2852 N2856 1.427 . S
C2853 H2843 0.929 . S
C2853 C2851 1.433 . S
C2853 N2856 1.384 . S
C2854 H2845 0.929 . S
C2854 C2846 1.378 . S
C2854 C2849 1.350 . S
C2855 H2842 0.929 . S
C2855 C2847 1.433 . S
C2855 N2857 1.384 . S
N2856 C2852 1.427 . S
N2856 C2853 1.384 . S
N2857 C2849 1.427 . S
N2857 C2855 1.384 . S
H2858 C2864 0.930 . S
H2859 C2868 0.930 . S
H2860 C2873 0.929 . S
H2861 C2871 0.929 . S
H2862 C2866 0.929 . S
H2863 C2872 0.929 . S
C2864 H2858 0.930 . S
C2864 C2865 1.367 . S
C2864 C2872 1.378 . S
C2865 C2864 1.367 . S
C2865 C2873 1.433 1_554 S
C2866 H2862 0.929 . S
C2866 C2868 1.378 . S
C2866 C2870 1.350 1_556 S
C2867 C2870 1.463 . S
C2867 C2872 1.350 . S
C2867 N2875 1.427 1_554 S
C2868 H2859 0.930 . S
C2868 C2866 1.378 . S
C2868 C2869 1.367 . S
C2869 C2868 1.367 . S
C2869 C2871 1.433 1_556 S
C2870 C2866 1.350 1_554 S
C2870 C2867 1.463 . S
C2870 N2874 1.427 . S
C2871 H2861 0.929 . S
C2871 C2869 1.433 1_554 S
C2871 N2874 1.384 . S
C2872 H2863 0.929 . S
C2872 C2864 1.378 . S
C2872 C2867 1.350 . S
C2873 H2860 0.929 . S
C2873 C2865 1.433 1_556 S
C2873 N2875 1.384 . S
N2874 C2870 1.427 . S
N2874 C2871 1.384 . S
N2875 C2867 1.427 1_556 S
N2875 C2873 1.384 . S
H2876 C2882 0.930 . S
H2877 C2886 0.930 . S
H2878 C2891 0.929 . S
H2879 C2889 0.929 . S
H2880 C2884 0.929 . S
H2881 C2890 0.929 . S
C2882 H2876 0.930 . S
C2882 C2883 1.367 . S
C2882 C2890 1.378 . S
C2883 C2882 1.367 . S
C2883 C2891 1.433 . S
C2884 H2880 0.929 . S
C2884 C2886 1.378 . S
C2884 C2888 1.350 . S
C2885 C2888 1.463 . S
C2885 C2890 1.350 . S
C2885 N2893 1.427 . S
C2886 H2877 0.930 . S
C2886 C2884 1.378 . S
C2886 C2887 1.367 . S
C2887 C2886 1.367 . S
C2887 C2889 1.433 . S
C2888 C2884 1.350 . S
C2888 C2885 1.463 . S
C2888 N2892 1.427 . S
C2889 H2879 0.929 . S
C2889 C2887 1.433 . S
C2889 N2892 1.384 . S
C2890 H2881 0.929 . S
C2890 C2882 1.378 . S
C2890 C2885 1.350 . S
C2891 H2878 0.929 . S
C2891 C2883 1.433 . S
C2891 N2893 1.384 . S
N2892 C2888 1.427 . S
N2892 C2889 1.384 . S
N2893 C2885 1.427 . S
N2893 C2891 1.384 . S
H2894 C2900 0.930 . S
H2895 C2904 0.930 . S
H2896 C2909 0.929 . S
H2897 C2907 0.929 . S
H2898 C2902 0.929 . S
H2899 C2908 0.929 . S
C2900 H2894 0.930 . S
C2900 C2901 1.367 . S
C2900 C2908 1.378 . S
C2901 C2900 1.367 . S
C2901 C2909 1.433 . S
C2902 H2898 0.929 . S
C2902 C2904 1.378 . S
C2902 C2906 1.350 . S
C2903 C2906 1.463 . S
C2903 C2908 1.350 . S
C2903 N2911 1.427 . S
C2904 H2895 0.930 . S
C2904 C2902 1.378 . S
C2904 C2905 1.367 . S
C2905 C2904 1.367 . S
C2905 C2907 1.433 . S
C2906 C2902 1.350 . S
C2906 C2903 1.463 . S
C2906 N2910 1.427 . S
C2907 H2897 0.929 . S
C2907 C2905 1.433 . S
C2907 N2910 1.384 . S
C2908 H2899 0.929 . S
C2908 C2900 1.378 . S
C2908 C2903 1.350 . S
C2909 H2896 0.929 . S
C2909 C2901 1.433 . S
C2909 N2911 1.384 . S
N2910 C2906 1.427 . S
N2910 C2907 1.384 . S
N2911 C2903 1.427 . S
N2911 C2909 1.384 . S
C1191 C255 1.227 . S
C1195 C880 1.194 . S
C1209 C147 1.284 . S
C1213 C893 1.268 . S
C1227 C184 1.302 . S
C1231 C912 1.286 . S
C1249 C943 1.888 . S
C1245 C220 1.932 . S
C1263 C40 1.682 . S
C1267 C963 1.658 . S
C1285 C980 0.898 . S
C1281 C74 0.906 . S
C1303 C993 1.499 . S
C1299 C110 1.503 . S
C1317 C14 0.949 . S
C1321 C1020 0.949 . S
C1339 C873 1.246 . S
C1335 C579 1.257 . S
C1353 C616 1.494 . S
C1357 C903 1.466 . S
C1375 C905 1.706 . S
C1371 C687 1.755 . S
C1393 C940 0.910 . S
C1389 C436 0.895 . S
C1407 C580 1.138 . S
C1411 C960 1.150 . S
C1429 C973 1.779 . S
C1425 C615 1.788 . S
C1447 C1003 1.302 . S
C1443 C688 1.331 . S
C1465 C1013 1.185 . S
C1461 C435 1.221 . S
C1483 C883 1.604 1_565 S
C1479 C410 1.599 . S
C1497 C722 1.826 . S
C1501 C1033 1.818 . S
C1519 C1063 1.675 . S
C1515 C842 1.662 . S
C1537 C1080 1.200 . S
C1533 C794 1.222 . S
C1551 C302 1.893 . S
C1555 C1023 1.943 . S
C1569 C338 1.241 . S
C1573 C910 1.219 . S
C1587 C830 1.922 . S
C1591 C1093 1.919 . S
C1609 C1120 1.010 . S
C1605 C758 1.017 . S
C1627 C870 1.165 . S
C1623 C158 1.136 . S
C1645 C1105 1.281 . S
C1641 C254 1.291 . S
C1659 C218 1.293 . S
C1663 C923 1.290 . S
C1677 C194 1.871 . S
C1681 C1092 1.866 . S
C1699 C952 1.633 . S
C1695 C3 1.660 . S
C1713 C111 0.790 . S
C1717 C1050 0.778 . S
C1735 C985 1.475 . S
C1731 C76 1.446 . S
C1753 C1130 0.980 . S
C1749 C50 0.988 . S
C1771 C865 1.198 . S
C1767 C364 1.209 1_565 S
C1789 C1112 1.437 . S
C1785 C795 1.474 . S
C1803 C292 1.687 . S
C1807 C913 1.650 . S
C1821 C723 0.848 . S
C1825 C1090 0.844 . S
C1839 C363 1.129 . S
C1843 C950 1.110 . S
C1861 C1045 1.771 . S
C1857 C796 1.754 . S
C1875 C291 1.319 . S
C1879 C992 1.284 . S
C1893 C724 1.222 . S
C1897 C1125 1.193 . S
C1911 C482 1.535 1_554 S
C1915 C872 1.579 . S
C1929 C434 1.812 . S
C1933 C1025 1.811 . S
C1947 C662 1.543 . S
C1951 C972 1.619 . S
C1965 C614 1.210 . S
C1969 C1070 1.189 . S
C1987 C1132 1.936 . S
C1983 C698 1.910 . S
C2001 C554 1.195 . S
C2005 C920 1.230 1_565 S
C2023 C925 1.863 . S
C2019 C650 1.864 . S
C2041 C890 0.990 . S
C2037 C506 1.006 . S
C2055 C183 1.219 . S
C2059 C1160 1.180 . S
C2077 C1113 1.262 . S
C2073 C219 1.284 . S
C2091 C256 1.302 . S
C2095 C1172 1.281 . S
C2109 C148 1.928 . S
C2113 C1103 1.884 . S
C2127 C122 1.680 . S
C2131 C1043 1.711 . S
C2149 C1060 0.841 . S
C2145 C2 0.839 . S
C2167 C1073 1.392 . S
C2163 C39 1.388 . S
C2185 C1140 1.010 . S
C2181 C86 1.011 . S
C2203 C1153 1.260 . S
C2199 C651 1.274 . S
C2217 C472 1.492 . S
C2221 C1123 1.469 . S
C2239 C1165 1.689 . S
C2235 C507 1.743 . S
C2257 C1100 0.915 . S
C2253 C544 0.898 . S
C2275 C1040 1.150 . S
C2271 C652 1.148 . S
C2289 C471 1.765 . S
C2293 C1053 1.756 . S
C2311 C1083 1.294 . S
C2307 C508 1.324 . S
C2325 C543 1.241 . S
C2329 C1133 1.207 . S
C2347 C1163 1.618 . S
C2343 C806 1.616 . S
C2361 C326 1.805 . S
C2365 C953 1.807 . S
C2383 C983 1.644 . S
C2379 C374 1.634 . S
C2401 C1000 1.233 . S
C2397 C398 1.238 . S
C2419 C1143 1.941 . S
C2415 C770 1.887 . S
C2433 C734 1.227 1_554 S
C2437 C1170 1.215 . S
C2455 C933 1.909 . S
C2451 C362 1.903 . S
C2473 C900 1.014 . S
C2469 C290 1.035 1_565 S
C2487 C230 1.135 . S
C2491 C1150 1.161 . S
C2509 C885 1.278 . S
C2505 C182 1.298 . S
C2523 C146 1.294 . S
C2527 C1183 1.279 . S
C2541 C266 1.868 . S
C2545 C932 1.864 . S
C2559 C75 1.723 . S
C2563 C1032 1.664 1_556 S
C2581 C970 0.890 . S
C2577 C38 0.877 . S
C2595 C4 1.385 . S
C2599 C1065 1.388 . S
C2613 C112 0.973 . S
C2617 C1010 0.941 . S
C2635 C1145 1.194 . S
C2631 C832 1.217 . S
C2649 C399 1.480 . S
C2653 C892 1.458 . S
C2671 C1173 1.644 1_655 S
C2667 C760 1.679 . S
C2685 C327 0.846 . S
C2689 C930 0.838 . S
C2703 C831 1.150 . S
C2707 C1030 1.132 . S
C2725 C965 1.764 . S
C2721 C400 1.752 . S
C2739 C759 1.323 . S
C2743 C1072 1.290 . S
C2761 C1005 1.199 . S
C2757 C328 1.223 . S
C2779 C1152 1.586 . S
C2775 C626 1.547 . S
C2797 C945 1.816 1_565 S
C2793 C542 1.815 . S
C2811 C590 1.520 . S
C2815 C1052 1.589 . S
C2833 C990 1.204 . S
C2829 C470 1.216 . S
C2847 C518 1.893 . S
C2851 C1012 1.921 . S
C2865 C446 1.195 . S
C2869 C1180 1.234 . S
C2887 C1085 1.874 . S
C2883 C578 1.873 1_565 S
C2905 C1110 0.976 . S
C2901 C686 0.984 . S
