# Generated by pormake.
# Topology pyr, (3,6)-cn, num edge types: 1
# Building blocks:
#     Node 0, Type 0, BuildingBlock: OLANEW_clean_sbu_2, # of connection points: 3
#     Node 1, Type 0, BuildingBlock: OLANEW_clean_sbu_2, # of connection points: 3
#     Node 2, Type 0, BuildingBlock: OLANEW_clean_sbu_2, # of connection points: 3
#     Node 3, Type 0, BuildingBlock: OLANEW_clean_sbu_2, # of connection points: 3
#     Node 4, Type 0, BuildingBlock: OLANEW_clean_sbu_2, # of connection points: 3
#     Node 5, Type 0, BuildingBlock: OLANEW_clean_sbu_2, # of connection points: 3
#     Node 6, Type 0, BuildingBlock: OLANEW_clean_sbu_2, # of connection points: 3
#     Node 7, Type 0, BuildingBlock: OLANEW_clean_sbu_2, # of connection points: 3
#     Node 8, Type 1, BuildingBlock: BETFEN_clean_sbu_0, # of connection points: 6
#     Node 9, Type 1, BuildingBlock: BETFEN_clean_sbu_0, # of connection points: 6
#     Node 10, Type 1, BuildingBlock: BETFEN_clean_sbu_0, # of connection points: 6
#     Node 11, Type 1, BuildingBlock: BETFEN_clean_sbu_0, # of connection points: 6
#     Edge 12, Type (0, 1), BuildingBlock: CIFDUS_clean_linker_0, # of connection points: 2
#     Edge 13, Type (0, 1), BuildingBlock: CIFDUS_clean_linker_0, # of connection points: 2
#     Edge 14, Type (0, 1), BuildingBlock: CIFDUS_clean_linker_0, # of connection points: 2
#     Edge 15, Type (0, 1), BuildingBlock: CIFDUS_clean_linker_0, # of connection points: 2
#     Edge 16, Type (0, 1), BuildingBlock: CIFDUS_clean_linker_0, # of connection points: 2
#     Edge 17, Type (0, 1), BuildingBlock: CIFDUS_clean_linker_0, # of connection points: 2
#     Edge 18, Type (0, 1), BuildingBlock: CIFDUS_clean_linker_0, # of connection points: 2
#     Edge 19, Type (0, 1), BuildingBlock: CIFDUS_clean_linker_0, # of connection points: 2
#     Edge 20, Type (0, 1), BuildingBlock: CIFDUS_clean_linker_0, # of connection points: 2
#     Edge 21, Type (0, 1), BuildingBlock: CIFDUS_clean_linker_0, # of connection points: 2
#     Edge 22, Type (0, 1), BuildingBlock: CIFDUS_clean_linker_0, # of connection points: 2
#     Edge 23, Type (0, 1), BuildingBlock: CIFDUS_clean_linker_0, # of connection points: 2
#     Edge 24, Type (0, 1), BuildingBlock: CIFDUS_clean_linker_0, # of connection points: 2
#     Edge 25, Type (0, 1), BuildingBlock: CIFDUS_clean_linker_0, # of connection points: 2
#     Edge 26, Type (0, 1), BuildingBlock: CIFDUS_clean_linker_0, # of connection points: 2
#     Edge 27, Type (0, 1), BuildingBlock: CIFDUS_clean_linker_0, # of connection points: 2
#     Edge 28, Type (0, 1), BuildingBlock: CIFDUS_clean_linker_0, # of connection points: 2
#     Edge 29, Type (0, 1), BuildingBlock: CIFDUS_clean_linker_0, # of connection points: 2
#     Edge 30, Type (0, 1), BuildingBlock: CIFDUS_clean_linker_0, # of connection points: 2
#     Edge 31, Type (0, 1), BuildingBlock: CIFDUS_clean_linker_0, # of connection points: 2
#     Edge 32, Type (0, 1), BuildingBlock: CIFDUS_clean_linker_0, # of connection points: 2
#     Edge 33, Type (0, 1), BuildingBlock: CIFDUS_clean_linker_0, # of connection points: 2
#     Edge 34, Type (0, 1), BuildingBlock: CIFDUS_clean_linker_0, # of connection points: 2
#     Edge 35, Type (0, 1), BuildingBlock: CIFDUS_clean_linker_0, # of connection points: 2
# Relax obj value: 0.187
# Max RMSD: 0.303
# Mean RMSD: 0.146
data_MOF--net-pyr--node1-OLANEW_clean_sbu_2--node2-BETFEN_clean_sbu_0--edge1-CIFDUS_clean_linker_0
_symmetry_space_group_name_H-M    P1
_symmetry_Int_Tables_number       1
_symmetry_cell_setting            triclinic
loop_
_symmetry_equiv_pos_as_xyz
'x, y, z'
_cell_length_a     35.245845
_cell_length_b     40.170556
_cell_length_c     36.547541
_cell_angle_alpha  95.122889
_cell_angle_beta   101.65957
_cell_angle_gamma 116.12869
loop_
_atom_site_label
_atom_site_type_symbol
_atom_site_fract_x
_atom_site_fract_y
_atom_site_fract_z
_atom_type_partial_charge
O0 O 0.44477 0.35735 0.24978 0.0
Cd1 Cd 0.43802 0.41453 0.26207 0.0
O2 O 0.37594 0.32918 0.2493 0.0
Cd3 Cd 0.30976 0.28765 0.24808 0.0
O4 O 0.2722 0.25871 0.28584 0.0
C5 C 0.29731 0.26009 0.31684 0.0
O6 O 0.33995 0.27754 0.32147 0.0
C7 C 0.40998 0.32673 0.2461 0.0
C8 C 0.36025 0.40533 0.21406 0.0
O9 O 0.39587 0.41752 0.20371 0.0
O10 O 0.36138 0.39764 0.24743 0.0
O11 O 0.27175 0.80147 0.80749 0.0
Cd12 Cd 0.24165 0.76177 0.74368 0.0
O13 O 0.22254 0.82059 0.81239 0.0
Cd14 Cd 0.18909 0.80654 0.75159 0.0
O15 O 0.16802 0.8334 0.70778 0.0
C16 C 0.1379 0.84167 0.7115 0.0
O17 O 0.11949 0.83141 0.73927 0.0
C18 C 0.25712 0.81851 0.82709 0.0
C19 C 0.2978 0.73333 0.72822 0.0
O20 O 0.30302 0.76577 0.722 0.0
O21 O 0.26579 0.71395 0.74171 0.0
O22 O 0.71532 0.37093 0.79418 0.0
Cd23 Cd 0.65992 0.35058 0.73189 0.0
O24 O 0.67864 0.32479 0.82153 0.0
Cd25 Cd 0.66059 0.28659 0.86255 0.0
O26 O 0.62168 0.24355 0.89262 0.0
C27 C 0.63326 0.22044 0.90656 0.0
O28 O 0.67053 0.222 0.90362 0.0
C29 C 0.71368 0.3547 0.82273 0.0
C30 C 0.63636 0.4028 0.70092 0.0
O31 O 0.61377 0.38035 0.72009 0.0
O32 O 0.67145 0.40195 0.69754 0.0
O33 O 0.9223 0.75301 0.3098 0.0
Cd34 Cd 0.90132 0.68972 0.2671 0.0
O35 O 0.87333 0.72683 0.34228 0.0
Cd36 Cd 0.83465 0.66552 0.33333 0.0
O37 O 0.79233 0.63549 0.36882 0.0
C38 C 0.76175 0.64362 0.37123 0.0
O39 O 0.75525 0.66652 0.35026 0.0
C40 C 0.90271 0.75611 0.33502 0.0
C41 C 0.93209 0.66607 0.20755 0.0
O42 O 0.90628 0.68081 0.20079 0.0
O43 O 0.94613 0.66508 0.24248 0.0
O44 O 0.67365 0.6821 0.71954 0.0
Cd45 Cd 0.63571 0.6269 0.74606 0.0
O46 O 0.69744 0.70749 0.78019 0.0
Cd47 Cd 0.72691 0.7554 0.82683 0.0
O48 O 0.69098 0.77669 0.85436 0.0
C49 C 0.66253 0.78301 0.83319 0.0
O50 O 0.65814 0.779 0.79627 0.0
C51 C 0.69837 0.71076 0.7462 0.0
C52 C 0.70042 0.63076 0.80672 0.0
O53 O 0.69684 0.61807 0.77213 0.0
O54 O 0.67172 0.64002 0.81358 0.0
O55 O 0.81457 0.19735 0.31273 0.0
Cd56 Cd 0.88949 0.22606 0.3541 0.0
O57 O 0.80151 0.24402 0.33104 0.0
Cd58 Cd 0.76129 0.27274 0.32834 0.0
O59 O 0.72023 0.2968 0.34232 0.0
C60 C 0.73047 0.33175 0.3473 0.0
O61 O 0.76795 0.35629 0.34246 0.0
C62 C 0.78895 0.21201 0.31032 0.0
C63 C 0.90754 0.17877 0.39808 0.0
O64 O 0.90458 0.17407 0.3623 0.0
O65 O 0.90122 0.2053 0.41311 0.0
O66 O 0.47078 0.80848 0.26566 0.0
Cd67 Cd 0.44712 0.7605 0.30901 0.0
O68 O 0.40585 0.80584 0.25755 0.0
Cd69 Cd 0.37608 0.7563 0.28197 0.0
O70 O 0.32135 0.70355 0.24789 0.0
C71 C 0.29947 0.7101 0.21998 0.0
O72 O 0.3108 0.74551 0.2175 0.0
C73 C 0.4435 0.82006 0.25137 0.0
C74 C 0.47769 0.71975 0.35663 0.0
O75 O 0.45887 0.70621 0.32084 0.0
O76 O 0.48556 0.75368 0.36932 0.0
O77 O 0.19895 0.43817 0.78659 0.0
Cd78 Cd 0.22194 0.40725 0.73831 0.0
O79 O 0.15978 0.38571 0.80576 0.0
Cd80 Cd 0.16293 0.34168 0.76674 0.0
O81 O 0.14695 0.2887 0.72737 0.0
C82 C 0.12914 0.25605 0.73569 0.0
O83 O 0.121 0.25357 0.76915 0.0
C84 C 0.17506 0.42143 0.80813 0.0
C85 C 0.29152 0.4425 0.7033 0.0
O86 O 0.25344 0.43959 0.68957 0.0
O87 O 0.29774 0.43123 0.73468 0.0
Pr88 Pr 0.96485 0.97952 0.55183 0.0
Pr89 Pr 0.04838 0.01732 0.54117 0.0
C90 C 0.88844 0.93329 0.56555 0.0
C91 C 0.87166 0.91606 0.59677 0.0
C92 C 0.84642 0.92821 0.61386 0.0
C93 C 0.82555 0.90908 0.63985 0.0
C94 C 0.82941 0.87733 0.64915 0.0
C95 C 0.8568 0.86656 0.63384 0.0
C96 C 0.87768 0.88569 0.60783 0.0
C97 C 0.01621 0.05119 0.60053 0.0
C98 C 0.0419 0.96096 0.59858 0.0
C99 C 0.12393 0.06797 0.52984 0.0
C100 C 0.13731 0.09319 0.50292 0.0
C101 C 0.15798 0.08528 0.47695 0.0
C102 C 0.17206 0.10903 0.45175 0.0
C103 C 0.16596 0.14129 0.45218 0.0
C104 C 0.14428 0.14888 0.47739 0.0
C105 C 0.13008 0.12499 0.50274 0.0
C106 C 1.00158 0.9464 0.49165 0.0
C107 C 0.96933 0.03263 0.49355 0.0
O108 O 0.91149 0.92099 0.55016 0.0
O109 O 0.90308 0.96976 0.56899 0.0
O110 O 0.02887 0.02672 0.59538 0.0
O111 O 0.97623 0.03912 0.58063 0.0
O112 O 0.07069 0.99156 0.59034 0.0
O113 O 0.9996 0.94858 0.58438 0.0
O114 O 0.10554 0.07634 0.55428 0.0
O115 O 0.10567 0.03177 0.51583 0.0
O116 O 0.98527 0.96848 0.49709 0.0
O117 O 0.04129 0.96026 0.51306 0.0
O118 O 0.94256 0.99892 0.49755 0.0
O119 O 0.01108 0.04867 0.51227 0.0
H120 H 0.84142 0.95165 0.60601 0.0
H121 H 0.80502 0.91821 0.65158 0.0
H122 H 0.86007 0.84197 0.64021 0.0
H123 H 0.89708 0.87569 0.59533 0.0
H124 H 0.16368 0.06086 0.47639 0.0
H125 H 0.18824 0.10243 0.43213 0.0
H126 H 0.13945 0.17374 0.47818 0.0
H127 H 0.11399 0.13167 0.52238 0.0
Pr128 Pr 0.48399 0.02881 0.08495 0.0
Pr129 Pr 0.55042 0.01026 0.05726 0.0
C130 C 0.43586 0.04701 0.12321 0.0
C131 C 0.43762 0.08247 0.13969 0.0
C132 C 0.45484 0.11458 0.1236 0.0
C133 C 0.45655 0.14822 0.13949 0.0
C134 C 0.44164 0.15053 0.17206 0.0
C135 C 0.42456 0.11829 0.18817 0.0
C136 C 0.42259 0.0845 0.17204 0.0
C137 C 0.52255 0.07168 0.03353 0.0
C138 C 0.59184 0.07813 0.13191 0.0
C139 C 0.59615 1.00293 0.01001 0.0
C140 C 0.5912 0.97135 0.9824 0.0
C141 C 0.61342 0.95073 0.99322 0.0
C142 C 0.60941 0.92133 0.96697 0.0
C143 C 0.58294 0.91183 0.92935 0.0
C144 C 0.56004 0.93199 0.91866 0.0
C145 C 0.5642 0.96156 0.94492 0.0
C146 C 0.51721 0.9584 0.1038 0.0
C147 C 0.44545 0.96495 0.00884 0.0
O148 O 0.46755 0.04039 0.13993 0.0
O149 O 0.42588 0.0386 0.086 0.0
O150 O 0.54114 0.06268 0.06088 0.0
O151 O 0.48172 0.06015 0.03274 0.0
O152 O 0.60082 0.06153 0.10465 0.0
O153 O 0.55094 0.06927 0.13238 0.0
O154 O 0.56634 0.01407 1.00102 0.0
O155 O 0.60721 1.00239 0.04642 0.0
O156 O 0.50542 0.98343 0.09708 0.0
O157 O 0.54611 0.95993 0.08614 0.0
O158 O 0.43453 0.97315 0.03953 0.0
O159 O 0.48663 0.98042 0.0081 0.0
H160 H 0.46684 0.11362 0.09867 0.0
H161 H 0.46914 0.17231 0.12597 0.0
H162 H 0.41326 0.11929 0.21348 0.0
H163 H 0.40951 0.05999 0.18491 0.0
H164 H 0.63455 0.95771 0.0218 0.0
H165 H 0.62842 0.90698 0.97588 0.0
H166 H 0.53934 0.92521 0.88992 0.0
H167 H 0.54655 0.97694 0.93566 0.0
Pr168 Pr 0.54838 0.59518 0.56818 0.0
Pr169 Pr 0.51608 0.5156 0.51542 0.0
C170 C 0.55554 0.65763 0.60883 0.0
C171 C 0.52849 0.66608 0.6298 0.0
C172 C 0.54825 0.69853 0.65864 0.0
C173 C 0.52246 0.70899 0.67634 0.0
C174 C 0.47645 0.68709 0.66539 0.0
C175 C 0.45696 0.65336 0.6379 0.0
C176 C 0.48281 0.64293 0.6202 0.0
C177 C 0.58518 0.55078 0.59579 0.0
C178 C 0.45345 0.51953 0.56935 0.0
C179 C 0.5227 0.45427 0.49002 0.0
C180 C 0.54942 0.4469 0.46744 0.0
C181 C 0.52999 0.41439 0.43865 0.0
C182 C 0.55573 0.40543 0.41935 0.0
C183 C 0.60151 0.42872 0.42876 0.0
C184 C 0.62065 0.46206 0.45668 0.0
C185 C 0.59485 0.47117 0.47571 0.0
C186 C 0.49191 0.5608 0.47099 0.0
C187 C 0.60327 0.59174 0.50825 0.0
O188 O 0.53956 0.64743 0.57173 0.0
O189 O 0.57353 0.63779 0.62351 0.0
O190 O 0.54519 0.53938 0.5796 0.0
O191 O 0.60858 0.58704 0.59833 0.0
O192 O 0.46007 0.4964 0.5464 0.0
O193 O 0.47953 0.55661 0.5786 0.0
O194 O 0.54442 0.47579 0.52392 0.0
O195 O 0.49147 0.46116 0.47225 0.0
O196 O 0.51167 0.56984 0.50604 0.0
O197 O 0.48101 0.52564 0.45823 0.0
O198 O 0.59079 0.6139 0.52547 0.0
O199 O 0.58602 0.55517 0.50834 0.0
H200 H 0.5835 0.71639 0.66666 0.0
H201 H 0.53841 0.73481 0.69788 0.0
H202 H 0.42163 0.63606 0.6287 0.0
H203 H 0.46699 0.61755 0.59809 0.0
H204 H 0.49503 0.3955 0.43165 0.0
H205 H 0.5398 0.37992 0.39742 0.0
H206 H 0.65577 0.48045 0.46491 0.0
H207 H 0.61078 0.49668 0.49766 0.0
Pr208 Pr 0.02924 0.54518 0.98169 0.0
Pr209 Pr 0.02928 0.4901 0.03026 0.0
C210 C 1.00514 0.5855 0.93638 0.0
C211 C 0.97538 0.60236 0.93341 0.0
C212 C 0.99096 0.64019 0.92967 0.0
C213 C 0.96208 0.65541 0.9223 0.0
C214 C 0.91694 0.63285 0.91809 0.0
C215 C 0.90203 0.59571 0.92449 0.0
C216 C 0.93099 0.58064 0.93222 0.0
C217 C 0.10956 0.57287 0.0358 0.0
C218 C 0.99705 0.54931 0.06183 0.0
C219 C 0.04336 0.44367 0.0737 0.0
C220 C 0.07574 0.43043 0.08541 0.0
C221 C 0.0635 0.39729 0.10005 0.0
C222 C 0.09482 0.3861 0.1148 0.0
C223 C 0.139 0.40803 0.11523 0.0
C224 C 0.15069 0.4405 0.09903 0.0
C225 C 0.11929 0.45157 0.08417 0.0
C226 C 0.9495 0.46503 0.97505 0.0
C227 C 0.07755 0.49627 0.9592 0.0
O228 O 0.98686 0.54851 0.92863 0.0
O229 O 0.04025 0.60121 0.96522 0.0
O230 O 0.07255 0.55457 0.04196 0.0
O231 O 0.10545 0.57757 1.00072 0.0
O232 O 0.01249 0.52592 0.07139 0.0
O233 O 0.99443 0.55731 0.0273 0.0
O234 O 0.05596 0.47929 0.08681 0.0
O235 O 0.02015 0.43191 0.03811 0.0
O236 O 0.98716 0.48106 0.96989 0.0
O237 O 0.9518 0.46125 0.0102 0.0
O238 O 0.0582 0.51581 0.94522 0.0
O239 O 0.07636 0.48806 0.99335 0.0
H240 H 0.02522 0.65755 0.93102 0.0
H241 H 0.97477 0.68433 0.9182 0.0
H242 H 0.8675 0.57735 0.92111 0.0
H243 H 0.91818 0.55147 0.93558 0.0
H244 H 0.02989 0.38059 0.10096 0.0
H245 H 0.0846 0.36068 0.12652 0.0
H246 H 0.18446 0.45832 0.09932 0.0
H247 H 0.12926 0.47725 0.07285 0.0
H248 H 0.21572 0.23812 0.3269 0.0
H249 H 0.33931 0.23937 0.37332 0.0
H250 H 0.30995 0.20474 0.42085 0.0
H251 H 0.2486 0.17141 0.44706 0.0
H252 H 0.12488 0.17005 0.40269 0.0
H253 H 0.15509 0.20834 0.35691 0.0
C254 C 0.23613 0.23085 0.34753 0.0
C255 C 0.27941 0.24086 0.34643 0.0
C256 C 0.21915 0.21118 0.37511 0.0
C257 C 0.30586 0.23188 0.37358 0.0
C258 C 0.28913 0.21206 0.40074 0.0
C259 C 0.22836 0.17963 0.42737 0.0
C260 C 0.18459 0.16762 0.42751 0.0
C261 C 0.24577 0.20118 0.40139 0.0
C262 C 0.15873 0.17902 0.40273 0.0
C263 C 0.17589 0.20063 0.37653 0.0
H264 H 0.34263 0.86506 0.84451 0.0
H265 H 0.23303 0.82535 0.8933 0.0
H266 H 0.28111 0.86737 0.95511 0.0
H267 H 0.35589 0.91629 0.99507 0.0
H268 H 0.46162 0.95734 0.94056 0.0
H269 H 0.4135 0.91474 0.88154 0.0
C270 C 0.32938 0.86533 0.86884 0.0
C271 C 0.28489 0.84183 0.86492 0.0
C272 C 0.35658 0.89026 0.90331 0.0
C273 C 0.26757 0.84312 0.89609 0.0
C274 C 0.295 0.8672 0.93127 0.0
C275 C 0.36818 0.91588 0.97022 0.0
C276 C 0.41277 0.93964 0.9729 0.0
C277 C 0.33978 0.89112 0.93525 0.0
C278 C 0.4279 0.93903 0.94008 0.0
C279 C 0.40035 0.9146 0.90594 0.0
H280 H 0.68365 0.46544 0.67369 0.0
H281 H 0.55388 0.39507 0.68468 0.0
H282 H 0.5264 0.4333 0.65144 0.0
H283 H 0.53887 0.48694 0.61968 0.0
H284 H 0.66912 0.56075 0.61256 0.0
H285 H 0.69671 0.52096 0.64348 0.0
C286 C 0.6494 0.45856 0.66885 0.0
C287 C 0.62091 0.4274 0.68175 0.0
C288 C 0.63384 0.48122 0.65026 0.0
C289 C 0.57664 0.41899 0.67536 0.0
C290 C 0.56079 0.44076 0.65618 0.0
C291 C 0.57328 0.49422 0.62479 0.0
C292 C 0.60194 0.52658 0.61378 0.0
C293 C 0.58904 0.47192 0.64355 0.0
C294 C 0.6465 0.53596 0.62091 0.0
C295 C 0.66224 0.51323 0.63857 0.0
H296 H 0.97253 0.6214 0.21144 0.0
H297 H 0.9149 0.67001 0.13156 0.0
H298 H 0.92921 0.63867 0.07931 0.0
H299 H 0.95802 0.59648 0.05582 0.0
H300 H 0.0127 0.54674 0.13708 0.0
H301 H 0.99959 0.57914 0.18838 0.0
C302 C 0.96336 0.62548 0.18269 0.0
C303 C 0.94301 0.64854 0.17582 0.0
C304 C 0.97097 0.60678 0.15256 0.0
C305 C 0.93089 0.65277 0.13802 0.0
C306 C 0.93897 0.63468 0.10797 0.0
C307 C 0.96688 0.59261 0.0847 0.0
C308 C 0.98626 0.56879 0.09209 0.0
C309 C 0.9589 0.61141 0.11478 0.0
C310 C 0.99749 0.56444 0.12998 0.0
C311 C 0.99015 0.58318 0.15968 0.0
H312 H 0.47362 0.31598 0.22559 0.0
H313 H 0.34771 0.25464 0.2479 0.0
H314 H 0.34706 0.19498 0.22804 0.0
H315 H 0.38055 0.16 0.20073 0.0
H316 H 0.50802 0.22204 0.1812 0.0
H317 H 0.50961 0.28167 0.20362 0.0
C318 C 0.44602 0.28965 0.22638 0.0
C319 C 0.41011 0.29004 0.23723 0.0
C320 C 0.44607 0.25545 0.21522 0.0
C321 C 0.37506 0.25551 0.23845 0.0
C322 C 0.37486 0.22121 0.22739 0.0
C323 C 0.40899 0.18655 0.20196 0.0
C324 C 0.44383 0.18653 0.18878 0.0
C325 C 0.40988 0.22084 0.2151 0.0
C326 C 0.48029 0.22123 0.19032 0.0
C327 C 0.48138 0.25536 0.20335 0.0
H328 H 0.06796 0.85454 0.70585 0.0
H329 H 0.181 0.88131 0.66253 0.0
H330 H 0.16297 0.92264 0.62534 0.0
H331 H 0.11466 0.95128 0.60515 0.0
H332 H 0.99977 0.92109 0.64641 0.0
H333 H 0.01925 0.88143 0.68476 0.0
C334 C 0.08867 0.86934 0.68824 0.0
C335 C 0.12582 0.86491 0.68707 0.0
C336 C 0.07796 0.89276 0.66681 0.0
C337 C 0.15209 0.88411 0.66385 0.0
C338 C 0.14193 0.90791 0.64272 0.0
C339 C 0.09428 0.93629 0.6229 0.0
C340 C 0.0561 0.93929 0.62332 0.0
C341 C 0.10503 0.9126 0.64412 0.0
C342 C 0.02939 0.91921 0.64576 0.0
C343 C 0.04043 0.89649 0.66761 0.0
H344 H 0.79778 0.39617 0.82166 0.0
H345 H 0.71858 0.35011 0.89826 0.0
H346 H 0.78446 0.38007 0.9524 0.0
H347 H 0.86503 0.42109 0.97815 0.0
H348 H 0.94278 0.46623 0.90015 0.0
H349 H 0.87715 0.43514 0.84658 0.0
C350 C 0.79483 0.39261 0.85021 0.0
C351 C 0.75322 0.3708 0.85584 0.0
C352 C 0.83272 0.41001 0.88106 0.0
C353 C 0.75017 0.36622 0.89298 0.0
C354 C 0.78786 0.38366 0.924 0.0
C355 C 0.86747 0.42414 0.94942 0.0
C356 C 0.90876 0.44622 0.94323 0.0
C357 C 0.82935 0.40587 0.91844 0.0
C358 C 0.91145 0.44968 0.9058 0.0
C359 C 0.87391 0.43181 0.87507 0.0
H360 H 0.69193 0.65279 0.37907 0.0
H361 H 0.77464 0.60535 0.42707 0.0
H362 H 0.73388 0.58604 0.47485 0.0
H363 H 0.67349 0.58177 0.50238 0.0
H364 H 0.59409 0.63246 0.45584 0.0
H365 H 0.63441 0.65099 0.40779 0.0
C366 C 0.70107 0.63815 0.3999 0.0
C367 C 0.73608 0.63027 0.39924 0.0
C368 C 0.67804 0.62773 0.42758 0.0
C369 C 0.7475 0.61139 0.42661 0.0
C370 C 0.72435 0.6005 0.45407 0.0
C371 C 0.66568 0.5974 0.48201 0.0
C372 C 0.63153 0.60637 0.48282 0.0
C373 C 0.68951 0.60849 0.45481 0.0
C374 C 0.62105 0.62616 0.45618 0.0
C375 C 0.64379 0.63642 0.42854 0.0
H376 H 0.28145 0.38538 0.22959 0.0
H377 H 0.34751 0.41679 0.14117 0.0
H378 H 0.28297 0.41644 0.10106 0.0
H379 H 0.2102 0.4124 0.09311 0.0
H380 H 0.14546 0.38389 0.18271 0.0
H381 H 0.20639 0.37691 0.21968 0.0
C382 C 0.28162 0.39186 0.20143 0.0
C383 C 0.31955 0.40167 0.18868 0.0
C384 C 0.24453 0.39208 0.17861 0.0
C385 C 0.31899 0.4096 0.15193 0.0
C386 C 0.28206 0.4094 0.12892 0.0
C387 C 0.20938 0.40459 0.1207 0.0
C388 C 0.17345 0.39907 0.1352 0.0
C389 C 0.24507 0.40158 0.14232 0.0
C390 C 0.17248 0.38806 0.17062 0.0
C391 C 0.20755 0.3844 0.19202 0.0
H392 H 0.65502 0.17624 0.9493 0.0
H393 H 0.54889 0.20158 0.90869 0.0
H394 H 0.50399 0.15628 0.94244 0.0
H395 H 0.49566 0.11048 0.98542 0.0
H396 H 0.60448 0.08923 0.02867 0.0
H397 H 0.64701 0.13129 0.9917 0.0
C398 C 0.62201 0.17182 0.94764 0.0
C399 C 0.6055 0.19243 0.92647 0.0
C400 C 0.59665 0.14621 0.9676 0.0
C401 C 0.56262 0.18629 0.92489 0.0
C402 C 0.53684 0.16031 0.94416 0.0
C403 C 0.52856 0.11494 0.98647 0.0
C404 C 0.54667 0.09642 0.00949 0.0
C405 C 0.5536 0.14025 0.96588 0.0
C406 C 0.58955 0.10281 0.01093 0.0
C407 C 0.61406 0.12703 0.9899 0.0
H408 H 0.98077 0.82365 0.35714 0.0
H409 H 0.84768 0.77188 0.36633 0.0
H410 H 0.86438 0.82692 0.41284 0.0
H411 H 0.91863 0.88803 0.45618 0.0
H412 H 0.05222 0.93884 0.44873 0.0
H413 H 0.0335 0.88722 0.39669 0.0
C414 C 0.95524 0.82479 0.36868 0.0
C415 C 0.9131 0.79329 0.35815 0.0
C416 C 0.96523 0.85666 0.39633 0.0
C417 C 0.88062 0.79541 0.37395 0.0
C418 C 0.89007 0.827 0.40076 0.0
C419 C 0.94332 0.88805 0.44262 0.0
C420 C 0.9868 0.91721 0.45652 0.0
C421 C 0.93254 0.85752 0.41297 0.0
C422 C 0.01853 0.91658 0.43885 0.0
C423 C 0.00788 0.88696 0.40899 0.0
H424 H 0.37407 0.7721 0.70994 0.0
H425 H 0.28886 0.66186 0.72751 0.0
H426 H 0.33725 0.6377 0.71081 0.0
H427 H 0.40298 0.64774 0.68915 0.0
H428 H 0.48749 0.75868 0.67241 0.0
H429 H 0.44045 0.78274 0.69132 0.0
C430 C 0.36603 0.74278 0.71019 0.0
C431 C 0.32772 0.71877 0.71963 0.0
C432 C 0.39402 0.72921 0.70083 0.0
C433 C 0.31811 0.68095 0.72021 0.0
C434 C 0.34573 0.66709 0.71063 0.0
C435 C 0.41106 0.67718 0.68978 0.0
C436 C 0.44883 0.70144 0.67959 0.0
C437 C 0.38363 0.69092 0.70056 0.0
C438 C 0.45907 0.73958 0.68076 0.0
C439 C 0.43198 0.75332 0.69125 0.0
H440 H 0.67768 0.7537 0.70161 0.0
H441 H 0.78665 0.74688 0.77225 0.0
H442 H 0.83843 0.80058 0.75081 0.0
H443 H 0.85173 0.84521 0.70689 0.0
H444 H 0.74223 0.85345 0.63853 0.0
H445 H 0.69176 0.80451 0.66514 0.0
C446 C 0.71281 0.76455 0.71269 0.0
C447 C 0.72865 0.74651 0.73796 0.0
C448 C 0.74221 0.79569 0.70075 0.0
C449 C 0.77406 0.76066 0.75267 0.0
C450 C 0.80356 0.79116 0.74032 0.0
C451 C 0.81688 0.83656 0.69825 0.0
C452 C 0.80067 0.85257 0.67048 0.0
C453 C 0.78791 0.80826 0.71359 0.0
C454 C 0.75556 0.84165 0.65997 0.0
C455 C 0.72658 0.81342 0.6749 0.0
H456 H 0.77562 0.20169 0.23485 0.0
H457 H 0.70754 0.17747 0.32226 0.0
H458 H 0.63809 0.13537 0.27385 0.0
H459 H 0.59872 0.10088 0.20685 0.0
H460 H 0.66925 0.12567 0.12069 0.0
H461 H 0.73542 0.17272 0.1681 0.0
C462 C 0.7453 0.18772 0.24306 0.0
C463 C 0.74622 0.19242 0.28167 0.0
C464 C 0.70605 0.16358 0.2153 0.0
C465 C 0.70714 0.1743 0.29243 0.0
C466 C 0.66764 0.15012 0.26483 0.0
C467 C 0.62846 0.11705 0.19855 0.0
C468 C 0.6294 0.10942 0.16058 0.0
C469 C 0.66691 0.14383 0.22621 0.0
C470 C 0.66802 0.13052 0.14998 0.0
C471 C 0.70588 0.15751 0.177 0.0
H472 H 0.45855 0.64531 0.33933 0.0
H473 H 0.51605 0.7401 0.43399 0.0
H474 H 0.5254 0.70011 0.478 0.0
H475 H 0.51596 0.63715 0.49009 0.0
H476 H 0.45695 0.54287 0.39467 0.0
H477 H 0.44975 0.58343 0.35107 0.0
C478 C 0.47353 0.65743 0.36952 0.0
C479 C 0.48676 0.69595 0.38302 0.0
C480 C 0.47833 0.63409 0.39488 0.0
C481 C 0.50575 0.71074 0.42248 0.0
C482 C 0.51096 0.68776 0.44782 0.0
C483 C 0.50127 0.6255 0.45981 0.0
C484 C 0.48661 0.58673 0.44588 0.0
C485 C 0.49706 0.64922 0.43447 0.0
C486 C 0.46814 0.57237 0.40641 0.0
C487 C 0.46413 0.59565 0.38128 0.0
H488 H 0.15525 0.40576 0.87518 0.0
H489 H 0.16506 0.48472 0.80062 0.0
H490 H 0.1361 0.51517 0.84021 0.0
H491 H 0.10434 0.51747 0.89486 0.0
H492 H 0.09998 0.44066 0.97128 0.0
H493 H 0.13049 0.41185 0.93256 0.0
C494 C 0.15142 0.42985 0.86771 0.0
C495 C 0.16215 0.44268 0.83466 0.0
C496 C 0.13541 0.44766 0.89102 0.0
C497 C 0.15731 0.47424 0.82586 0.0
C498 C 0.14047 0.49157 0.84844 0.0
C499 C 0.11026 0.49456 0.90315 0.0
C500 C 0.09925 0.48117 0.93599 0.0
C501 C 0.1288 0.47825 0.8809 0.0
C502 C 0.10783 0.4517 0.9463 0.0
C503 C 0.12528 0.435 0.92404 0.0
H504 H 0.63134 0.82985 0.80819 0.0
H505 H 0.63513 0.76589 0.89636 0.0
H506 H 0.60051 0.79481 0.93011 0.0
H507 H 0.58046 0.84509 0.9394 0.0
H508 H 0.586 0.91508 0.85554 0.0
H509 H 0.60369 0.87597 0.8144 0.0
C510 C 0.62385 0.82186 0.83446 0.0
C511 C 0.63639 0.79651 0.85034 0.0
C512 C 0.60567 0.83972 0.85444 0.0
C513 C 0.62649 0.78606 0.8842 0.0
C514 C 0.60663 0.80245 0.90339 0.0
C515 C 0.58518 0.85156 0.91196 0.0
C516 C 0.58302 0.88338 0.90095 0.0
C517 C 0.59792 0.83048 0.8896 0.0
C518 C 0.5876 0.89074 0.86476 0.0
C519 C 0.59826 0.86867 0.8414 0.0
H520 H 0.88196 0.10377 0.37932 0.0
H521 H 0.96216 0.20236 0.46951 0.0
H522 H 0.98951 0.16593 0.50672 0.0
H523 H 0.99233 0.10654 0.51256 0.0
H524 H 0.90718 0.0063 0.42542 0.0
H525 H 0.87948 0.04262 0.38805 0.0
C526 C 0.90519 0.11707 0.40724 0.0
C527 C 0.92045 0.15564 0.42164 0.0
C528 C 0.91982 0.0957 0.42886 0.0
C529 C 0.95001 0.17262 0.45801 0.0
C530 C 0.96578 0.15189 0.47916 0.0
C531 C 0.9678 0.09278 0.4853 0.0
C532 C 0.95215 0.0541 0.47127 0.0
C533 C 0.95129 0.11355 0.46466 0.0
C534 C 0.91965 0.03617 0.43651 0.0
C535 C 0.90393 0.0569 0.41521 0.0
H536 H 0.25121 0.71731 0.15685 0.0
H537 H 0.26888 0.63345 0.21372 0.0
H538 H 0.21183 0.58299 0.16109 0.0
H539 H 0.15618 0.56288 0.09871 0.0
H540 H 0.1427 0.64806 0.04166 0.0
H541 H 0.19871 0.69795 0.09476 0.0
C542 C 0.24261 0.68802 0.15791 0.0
C543 C 0.26407 0.67914 0.18926 0.0
C544 C 0.21058 0.65943 0.12745 0.0
C545 C 0.2526 0.64101 0.18999 0.0
C546 C 0.22011 0.61218 0.15988 0.0
C547 C 0.16615 0.59245 0.09795 0.0
C548 C 0.14621 0.6021 0.06638 0.0
C549 C 0.19889 0.62106 0.12841 0.0
C550 C 0.15856 0.64026 0.06548 0.0
C551 C 0.19024 0.66871 0.0959 0.0
H552 H 0.29015 0.47148 0.63802 0.0
H553 H 0.37143 0.44366 0.72129 0.0
H554 H 0.42707 0.46255 0.68605 0.0
H555 H 0.4535 0.4877 0.63159 0.0
H556 H 0.37407 0.51814 0.54996 0.0
H557 H 0.31694 0.4973 0.58409 0.0
C558 C 0.32009 0.46968 0.6486 0.0
C559 C 0.32638 0.4562 0.68252 0.0
C560 C 0.35226 0.48078 0.62817 0.0
C561 C 0.36555 0.45409 0.69553 0.0
C562 C 0.39744 0.46475 0.67526 0.0
C563 C 0.42335 0.48925 0.62112 0.0
C564 C 0.41743 0.50372 0.58795 0.0
C565 C 0.39117 0.47807 0.64149 0.0
C566 C 0.37887 0.50651 0.57508 0.0
C567 C 0.34638 0.49481 0.59474 0.0
H568 H 0.78386 0.66341 0.80429 0.0
H569 H 0.70174 0.61146 0.87687 0.0
H570 H 0.76455 0.61263 0.9221 0.0
H571 H 0.84034 0.62086 0.93573 0.0
H572 H 0.92055 0.67236 0.86113 0.0
H573 H 0.86162 0.68052 0.82298 0.0
C574 C 0.77996 0.65277 0.8303 0.0
C575 C 0.73843 0.6365 0.83704 0.0
C576 C 0.81594 0.6537 0.85587 0.0
C577 C 0.73359 0.62371 0.87112 0.0
C578 C 0.76939 0.62431 0.89681 0.0
C579 C 0.84506 0.63431 0.91142 0.0
C580 C 0.8847 0.64539 0.90106 0.0
C581 C 0.81038 0.63804 0.88873 0.0
C582 C 0.89068 0.66369 0.87005 0.0
C583 C 0.85671 0.66797 0.8478 0.0
H584 H 0.52067 0.86291 0.23232 0.0
H585 H 0.38526 0.83919 0.21008 0.0
H586 H 0.39553 0.88077 0.16462 0.0
H587 H 0.44226 0.923 0.12847 0.0
H588 H 0.57696 0.94542 0.14964 0.0
H589 H 0.56786 0.9066 0.19789 0.0
C590 C 0.49352 0.86702 0.21777 0.0
C591 C 0.45235 0.84769 0.2251 0.0
C592 C 0.49945 0.89123 0.19114 0.0
C593 C 0.41759 0.85361 0.20557 0.0
C594 C 0.42328 0.8775 0.17926 0.0
C595 C 0.46962 0.91967 0.14399 0.0
C596 C 0.51018 0.93707 0.13526 0.0
C597 C 0.46399 0.8964 0.17153 0.0
C598 C 0.54521 0.93212 0.15548 0.0
C599 C 0.5401 0.90983 0.1832 0.0
H600 H 0.08458 0.18272 0.74301 0.0
H601 H 0.14215 0.25012 0.66433 0.0
H602 H 0.11494 0.19257 0.61635 0.0
H603 H 0.07044 0.12279 0.59511 0.0
H604 H 0.01255 0.05604 0.67374 0.0
H605 H 0.04409 0.1134 0.72329 0.0
C606 C 0.09149 0.18494 0.71548 0.0
C607 C 0.11514 0.22093 0.70732 0.0
C608 C 0.07545 0.15168 0.68788 0.0
C609 C 0.12381 0.22296 0.67142 0.0
C610 C 0.10822 0.18999 0.6439 0.0
C611 C 0.06542 0.12097 0.62335 0.0
C612 C 0.03957 0.08543 0.63112 0.0
C613 C 0.08342 0.1542 0.65157 0.0
C614 C 0.03271 0.08318 0.66746 0.0
C615 C 0.05057 0.11596 0.69566 0.0
H616 H 0.74008 0.40357 0.35995 0.0
H617 H 0.65522 0.28819 0.36554 0.0
H618 H 0.60815 0.30818 0.39063 0.0
H619 H 0.59202 0.35799 0.41284 0.0
H620 H 0.67455 0.47346 0.40629 0.0
H621 H 0.72197 0.45385 0.38034 0.0
C622 C 0.71118 0.38281 0.36649 0.0
C623 C 0.7013 0.34444 0.36087 0.0
C624 C 0.68397 0.39446 0.38097 0.0
C625 C 0.66368 0.3179 0.3695 0.0
C626 C 0.63669 0.32927 0.38394 0.0
C627 C 0.61984 0.37886 0.40506 0.0
C628 C 0.62944 0.41706 0.41127 0.0
C629 C 0.6466 0.36741 0.38991 0.0
C630 C 0.66651 0.44384 0.40207 0.0
C631 C 0.69355 0.43264 0.38706 0.0
loop_
_geom_bond_atom_site_label_1
_geom_bond_atom_site_label_2
_geom_bond_distance
_geom_bond_site_symmetry_2
_ccdc_geom_bond_type
O0 Cd1 2.300 . S
O0 C7 1.275 . S
Cd1 O0 2.300 . S
Cd1 O9 2.381 . S
Cd1 O10 2.378 . S
O2 Cd3 2.385 . S
O2 C7 1.255 . S
Cd3 O2 2.385 . S
Cd3 O4 2.317 . S
O4 Cd3 2.317 . S
O4 C5 1.232 . S
C5 O4 1.232 . S
C5 O6 1.218 . S
O6 C5 1.218 . S
C7 O0 1.275 . S
C7 O2 1.255 . S
C8 O9 1.258 . S
C8 O10 1.256 . S
O9 Cd1 2.381 . S
O9 C8 1.258 . S
O10 Cd1 2.378 . S
O10 C8 1.256 . S
O11 Cd12 2.300 . S
O11 C18 1.275 . S
Cd12 O11 2.300 . S
Cd12 O20 2.381 . S
Cd12 O21 2.378 . S
O13 Cd14 2.385 . S
O13 C18 1.255 . S
Cd14 O13 2.385 . S
Cd14 O15 2.317 . S
O15 Cd14 2.317 . S
O15 C16 1.232 . S
C16 O15 1.232 . S
C16 O17 1.218 . S
O17 C16 1.218 . S
C18 O11 1.275 . S
C18 O13 1.255 . S
C19 O20 1.258 . S
C19 O21 1.256 . S
O20 Cd12 2.381 . S
O20 C19 1.258 . S
O21 Cd12 2.378 . S
O21 C19 1.256 . S
O22 Cd23 2.300 . S
O22 C29 1.275 . S
Cd23 O22 2.300 . S
Cd23 O31 2.381 . S
Cd23 O32 2.378 . S
O24 Cd25 2.385 . S
O24 C29 1.255 . S
Cd25 O24 2.385 . S
Cd25 O26 2.317 . S
O26 Cd25 2.317 . S
O26 C27 1.232 . S
C27 O26 1.232 . S
C27 O28 1.218 . S
O28 C27 1.218 . S
C29 O22 1.275 . S
C29 O24 1.255 . S
C30 O31 1.258 . S
C30 O32 1.256 . S
O31 Cd23 2.381 . S
O31 C30 1.258 . S
O32 Cd23 2.378 . S
O32 C30 1.256 . S
O33 Cd34 2.300 . S
O33 C40 1.275 . S
Cd34 O33 2.300 . S
Cd34 O42 2.381 . S
Cd34 O43 2.378 . S
O35 Cd36 2.385 . S
O35 C40 1.255 . S
Cd36 O35 2.385 . S
Cd36 O37 2.317 . S
O37 Cd36 2.317 . S
O37 C38 1.232 . S
C38 O37 1.232 . S
C38 O39 1.218 . S
O39 C38 1.218 . S
C40 O33 1.275 . S
C40 O35 1.255 . S
C41 O42 1.258 . S
C41 O43 1.256 . S
O42 Cd34 2.381 . S
O42 C41 1.258 . S
O43 Cd34 2.378 . S
O43 C41 1.256 . S
O44 Cd45 2.300 . S
O44 C51 1.275 . S
Cd45 O44 2.300 . S
Cd45 O53 2.381 . S
Cd45 O54 2.378 . S
O46 Cd47 2.385 . S
O46 C51 1.255 . S
Cd47 O46 2.385 . S
Cd47 O48 2.317 . S
O48 Cd47 2.317 . S
O48 C49 1.232 . S
C49 O48 1.232 . S
C49 O50 1.218 . S
O50 C49 1.218 . S
C51 O44 1.275 . S
C51 O46 1.255 . S
C52 O53 1.258 . S
C52 O54 1.256 . S
O53 Cd45 2.381 . S
O53 C52 1.258 . S
O54 Cd45 2.378 . S
O54 C52 1.256 . S
O55 Cd56 2.300 . S
O55 C62 1.275 . S
Cd56 O55 2.300 . S
Cd56 O64 2.381 . S
Cd56 O65 2.378 . S
O57 Cd58 2.385 . S
O57 C62 1.255 . S
Cd58 O57 2.385 . S
Cd58 O59 2.317 . S
O59 Cd58 2.317 . S
O59 C60 1.232 . S
C60 O59 1.232 . S
C60 O61 1.218 . S
O61 C60 1.218 . S
C62 O55 1.275 . S
C62 O57 1.255 . S
C63 O64 1.258 . S
C63 O65 1.256 . S
O64 Cd56 2.381 . S
O64 C63 1.258 . S
O65 Cd56 2.378 . S
O65 C63 1.256 . S
O66 Cd67 2.300 . S
O66 C73 1.275 . S
Cd67 O66 2.300 . S
Cd67 O75 2.381 . S
Cd67 O76 2.378 . S
O68 Cd69 2.385 . S
O68 C73 1.255 . S
Cd69 O68 2.385 . S
Cd69 O70 2.317 . S
O70 Cd69 2.317 . S
O70 C71 1.232 . S
C71 O70 1.232 . S
C71 O72 1.218 . S
O72 C71 1.218 . S
C73 O66 1.275 . S
C73 O68 1.255 . S
C74 O75 1.258 . S
C74 O76 1.256 . S
O75 Cd67 2.381 . S
O75 C74 1.258 . S
O76 Cd67 2.378 . S
O76 C74 1.256 . S
O77 Cd78 2.300 . S
O77 C84 1.275 . S
Cd78 O77 2.300 . S
Cd78 O86 2.381 . S
Cd78 O87 2.378 . S
O79 Cd80 2.385 . S
O79 C84 1.255 . S
Cd80 O79 2.385 . S
Cd80 O81 2.317 . S
O81 Cd80 2.317 . S
O81 C82 1.232 . S
C82 O81 1.232 . S
C82 O83 1.218 . S
O83 C82 1.218 . S
C84 O77 1.275 . S
C84 O79 1.255 . S
C85 O86 1.258 . S
C85 O87 1.256 . S
O86 Cd78 2.381 . S
O86 C85 1.258 . S
O87 Cd78 2.378 . S
O87 C85 1.256 . S
Pr88 C90 2.880 . S
Pr88 O108 2.562 . S
Pr88 O109 2.490 . S
Pr88 O110 2.695 1_665 S
Pr88 O111 2.512 1_665 S
Pr88 O113 2.437 1_655 S
Pr88 O116 2.436 . S
Pr88 O118 2.438 1_565 S
Pr89 C99 2.880 . S
Pr89 O110 2.436 . S
Pr89 O112 2.438 1_545 S
Pr89 O114 2.562 . S
Pr89 O115 2.490 . S
Pr89 O116 2.695 1_445 S
Pr89 O117 2.512 1_545 S
Pr89 O119 2.437 1_455 S
C90 Pr88 2.880 . S
C90 C91 1.491 . S
C90 O108 1.254 . S
C90 O109 1.225 . S
C91 C90 1.491 . S
C91 C92 1.392 . S
C91 C96 1.356 . S
C92 C91 1.392 . S
C92 C93 1.368 . S
C92 H120 0.929 . S
C93 C92 1.368 . S
C93 C94 1.386 . S
C93 H121 0.929 . S
C94 C93 1.386 . S
C94 C95 1.373 . S
C95 C94 1.373 . S
C95 C96 1.409 . S
C95 H122 0.931 . S
C96 C91 1.356 . S
C96 C95 1.409 . S
C96 H123 0.930 . S
C97 O110 1.270 . S
C97 O111 1.248 . S
C98 O112 1.267 . S
C98 O113 1.278 . S
C99 Pr89 2.880 . S
C99 C100 1.491 . S
C99 O114 1.254 . S
C99 O115 1.225 . S
C100 C99 1.491 . S
C100 C101 1.392 . S
C100 C105 1.356 . S
C101 C100 1.392 . S
C101 C102 1.368 . S
C101 H124 0.929 . S
C102 C101 1.368 . S
C102 C103 1.386 . S
C102 H125 0.929 . S
C103 C102 1.386 . S
C103 C104 1.373 . S
C104 C103 1.373 . S
C104 C105 1.409 . S
C104 H126 0.931 . S
C105 C100 1.356 . S
C105 C104 1.409 . S
C105 H127 0.930 . S
C106 O116 1.270 . S
C106 O117 1.248 1_655 S
C107 O118 1.267 . S
C107 O119 1.278 . S
O108 Pr88 2.562 . S
O108 C90 1.254 . S
O109 Pr88 2.490 . S
O109 C90 1.225 . S
O110 Pr88 2.695 1_445 S
O110 Pr89 2.436 . S
O110 C97 1.270 . S
O111 Pr88 2.512 1_445 S
O111 C97 1.248 . S
O112 Pr89 2.438 1_565 S
O112 C98 1.267 . S
O113 Pr88 2.437 1_455 S
O113 C98 1.278 . S
O114 Pr89 2.562 . S
O114 C99 1.254 . S
O115 Pr89 2.490 . S
O115 C99 1.225 . S
O116 Pr88 2.436 . S
O116 Pr89 2.695 1_665 S
O116 C106 1.270 . S
O117 Pr89 2.512 1_565 S
O117 C106 1.248 1_455 S
O118 Pr88 2.438 1_545 S
O118 C107 1.267 . S
O119 Pr89 2.437 1_655 S
O119 C107 1.278 . S
H120 C92 0.929 . S
H121 C93 0.929 . S
H122 C95 0.931 . S
H123 C96 0.930 . S
H124 C101 0.929 . S
H125 C102 0.929 . S
H126 C104 0.931 . S
H127 C105 0.930 . S
Pr128 C130 2.880 . S
Pr128 O148 2.562 . S
Pr128 O149 2.490 . S
Pr128 O150 2.695 . S
Pr128 O151 2.512 . S
Pr128 O153 2.437 . S
Pr128 O156 2.436 . S
Pr128 O158 2.438 1_544 S
Pr129 C139 2.880 1_544 S
Pr129 O150 2.436 . S
Pr129 O152 2.438 . S
Pr129 O154 2.562 1_544 S
Pr129 O155 2.490 1_545 S
Pr129 O156 2.695 . S
Pr129 O157 2.512 1_545 S
Pr129 O159 2.437 1_544 S
C130 Pr128 2.880 . S
C130 C131 1.491 . S
C130 O148 1.254 . S
C130 O149 1.225 . S
C131 C130 1.491 . S
C131 C132 1.392 . S
C131 C136 1.356 . S
C132 C131 1.392 . S
C132 C133 1.368 . S
C132 H160 0.929 . S
C133 C132 1.368 . S
C133 C134 1.386 . S
C133 H161 0.929 . S
C134 C133 1.386 . S
C134 C135 1.373 . S
C135 C134 1.373 . S
C135 C136 1.409 . S
C135 H162 0.931 . S
C136 C131 1.356 . S
C136 C135 1.409 . S
C136 H163 0.930 . S
C137 O150 1.270 1_556 S
C137 O151 1.248 1_556 S
C138 O152 1.267 . S
C138 O153 1.278 . S
C139 Pr129 2.880 1_566 S
C139 C140 1.491 . S
C139 O154 1.254 . S
C139 O155 1.225 1_556 S
C140 C139 1.491 . S
C140 C141 1.392 . S
C140 C145 1.356 . S
C141 C140 1.392 . S
C141 C142 1.368 . S
C141 H164 0.929 . S
C142 C141 1.368 . S
C142 C143 1.386 . S
C142 H165 0.929 . S
C143 C142 1.386 . S
C143 C144 1.373 . S
C144 C143 1.373 . S
C144 C145 1.409 . S
C144 H166 0.931 . S
C145 C140 1.356 . S
C145 C144 1.409 . S
C145 H167 0.930 . S
C146 O156 1.270 1_565 S
C146 O157 1.248 . S
C147 O158 1.267 . S
C147 O159 1.278 . S
O148 Pr128 2.562 . S
O148 C130 1.254 . S
O149 Pr128 2.490 . S
O149 C130 1.225 . S
O150 Pr128 2.695 . S
O150 Pr129 2.436 . S
O150 C137 1.270 1_554 S
O151 Pr128 2.512 . S
O151 C137 1.248 1_554 S
O152 Pr129 2.438 . S
O152 C138 1.267 . S
O153 Pr128 2.437 . S
O153 C138 1.278 . S
O154 Pr129 2.562 1_566 S
O154 C139 1.254 . S
O155 Pr129 2.490 1_565 S
O155 C139 1.225 1_554 S
O156 Pr128 2.436 . S
O156 Pr129 2.695 . S
O156 C146 1.270 1_545 S
O157 Pr129 2.512 1_565 S
O157 C146 1.248 . S
O158 Pr128 2.438 1_566 S
O158 C147 1.267 . S
O159 Pr129 2.437 1_566 S
O159 C147 1.278 . S
H160 C132 0.929 . S
H161 C133 0.929 . S
H162 C135 0.931 . S
H163 C136 0.930 . S
H164 C141 0.929 . S
H165 C142 0.929 . S
H166 C144 0.931 . S
H167 C145 0.930 . S
Pr168 C170 2.880 . S
Pr168 O188 2.562 . S
Pr168 O189 2.490 . S
Pr168 O190 2.695 . S
Pr168 O191 2.512 . S
Pr168 O193 2.437 . S
Pr168 O196 2.436 . S
Pr168 O198 2.438 . S
Pr169 C179 2.880 . S
Pr169 O190 2.436 . S
Pr169 O192 2.438 . S
Pr169 O194 2.562 . S
Pr169 O195 2.490 . S
Pr169 O196 2.695 . S
Pr169 O197 2.512 . S
Pr169 O199 2.437 . S
C170 Pr168 2.880 . S
C170 C171 1.491 . S
C170 O188 1.254 . S
C170 O189 1.225 . S
C171 C170 1.491 . S
C171 C172 1.392 . S
C171 C176 1.356 . S
C172 C171 1.392 . S
C172 C173 1.368 . S
C172 H200 0.929 . S
C173 C172 1.368 . S
C173 C174 1.386 . S
C173 H201 0.929 . S
C174 C173 1.386 . S
C174 C175 1.373 . S
C175 C174 1.373 . S
C175 C176 1.409 . S
C175 H202 0.931 . S
C176 C171 1.356 . S
C176 C175 1.409 . S
C176 H203 0.930 . S
C177 O190 1.270 . S
C177 O191 1.248 . S
C178 O192 1.267 . S
C178 O193 1.278 . S
C179 Pr169 2.880 . S
C179 C180 1.491 . S
C179 O194 1.254 . S
C179 O195 1.225 . S
C180 C179 1.491 . S
C180 C181 1.392 . S
C180 C185 1.356 . S
C181 C180 1.392 . S
C181 C182 1.368 . S
C181 H204 0.929 . S
C182 C181 1.368 . S
C182 C183 1.386 . S
C182 H205 0.929 . S
C183 C182 1.386 . S
C183 C184 1.373 . S
C184 C183 1.373 . S
C184 C185 1.409 . S
C184 H206 0.931 . S
C185 C180 1.356 . S
C185 C184 1.409 . S
C185 H207 0.930 . S
C186 O196 1.270 . S
C186 O197 1.248 . S
C187 O198 1.267 . S
C187 O199 1.278 . S
O188 Pr168 2.562 . S
O188 C170 1.254 . S
O189 Pr168 2.490 . S
O189 C170 1.225 . S
O190 Pr168 2.695 . S
O190 Pr169 2.436 . S
O190 C177 1.270 . S
O191 Pr168 2.512 . S
O191 C177 1.248 . S
O192 Pr169 2.438 . S
O192 C178 1.267 . S
O193 Pr168 2.437 . S
O193 C178 1.278 . S
O194 Pr169 2.562 . S
O194 C179 1.254 . S
O195 Pr169 2.490 . S
O195 C179 1.225 . S
O196 Pr168 2.436 . S
O196 Pr169 2.695 . S
O196 C186 1.270 . S
O197 Pr169 2.512 . S
O197 C186 1.248 . S
O198 Pr168 2.438 . S
O198 C187 1.267 . S
O199 Pr169 2.437 . S
O199 C187 1.278 . S
H200 C172 0.929 . S
H201 C173 0.929 . S
H202 C175 0.931 . S
H203 C176 0.930 . S
H204 C181 0.929 . S
H205 C182 0.929 . S
H206 C184 0.931 . S
H207 C185 0.930 . S
Pr208 C210 2.880 1_455 S
Pr208 O228 2.562 1_455 S
Pr208 O229 2.490 . S
Pr208 O230 2.695 1_556 S
Pr208 O231 2.512 1_556 S
Pr208 O233 2.437 1_556 S
Pr208 O236 2.436 1_455 S
Pr208 O238 2.438 . S
Pr209 C219 2.880 . S
Pr209 O230 2.436 . S
Pr209 O232 2.438 1_455 S
Pr209 O234 2.562 . S
Pr209 O235 2.490 . S
Pr209 O236 2.695 1_454 S
Pr209 O237 2.512 1_454 S
Pr209 O239 2.437 1_554 S
C210 Pr208 2.880 1_655 S
C210 C211 1.491 . S
C210 O228 1.254 . S
C210 O229 1.225 1_655 S
C211 C210 1.491 . S
C211 C212 1.392 . S
C211 C216 1.356 . S
C212 C211 1.392 . S
C212 C213 1.368 . S
C212 H240 0.929 1_655 S
C213 C212 1.368 . S
C213 C214 1.386 . S
C213 H241 0.929 . S
C214 C213 1.386 . S
C214 C215 1.373 . S
C215 C214 1.373 . S
C215 C216 1.409 . S
C215 H242 0.931 . S
C216 C211 1.356 . S
C216 C215 1.409 . S
C216 H243 0.930 . S
C217 O230 1.270 . S
C217 O231 1.248 . S
C218 O232 1.267 . S
C218 O233 1.278 1_655 S
C219 Pr209 2.880 . S
C219 C220 1.491 . S
C219 O234 1.254 . S
C219 O235 1.225 . S
C220 C219 1.491 . S
C220 C221 1.392 . S
C220 C225 1.356 . S
C221 C220 1.392 . S
C221 C222 1.368 . S
C221 H244 0.929 . S
C222 C221 1.368 . S
C222 C223 1.386 . S
C222 H245 0.929 . S
C223 C222 1.386 . S
C223 C224 1.373 . S
C224 C223 1.373 . S
C224 C225 1.409 . S
C224 H246 0.931 . S
C225 C220 1.356 . S
C225 C224 1.409 . S
C225 H247 0.930 . S
C226 O236 1.270 . S
C226 O237 1.248 . S
C227 O238 1.267 . S
C227 O239 1.278 . S
O228 Pr208 2.562 1_655 S
O228 C210 1.254 . S
O229 Pr208 2.490 . S
O229 C210 1.225 1_455 S
O230 Pr208 2.695 1_554 S
O230 Pr209 2.436 . S
O230 C217 1.270 . S
O231 Pr208 2.512 1_554 S
O231 C217 1.248 . S
O232 Pr209 2.438 1_655 S
O232 C218 1.267 . S
O233 Pr208 2.437 1_554 S
O233 C218 1.278 1_455 S
O234 Pr209 2.562 . S
O234 C219 1.254 . S
O235 Pr209 2.490 . S
O235 C219 1.225 . S
O236 Pr208 2.436 1_655 S
O236 Pr209 2.695 1_656 S
O236 C226 1.270 . S
O237 Pr209 2.512 1_656 S
O237 C226 1.248 . S
O238 Pr208 2.438 . S
O238 C227 1.267 . S
O239 Pr209 2.437 1_556 S
O239 C227 1.278 . S
H240 C212 0.929 1_455 S
H241 C213 0.929 . S
H242 C215 0.931 . S
H243 C216 0.930 . S
H244 C221 0.929 . S
H245 C222 0.929 . S
H246 C224 0.931 . S
H247 C225 0.930 . S
H248 C254 0.930 . S
H249 C257 0.930 . S
H250 C258 0.930 . S
H251 C259 0.930 . S
H252 C262 0.930 . S
H253 C263 0.930 . S
C254 H248 0.930 . S
C254 C255 1.355 . S
C254 C256 1.415 . S
C255 C254 1.355 . S
C255 C257 1.419 . S
C256 C254 1.415 . S
C256 C261 1.425 . S
C256 C263 1.409 . S
C257 H249 0.930 . S
C257 C255 1.419 . S
C257 C258 1.362 . S
C258 H250 0.930 . S
C258 C257 1.362 . S
C258 C261 1.409 . S
C259 H251 0.930 . S
C259 C260 1.355 . S
C259 C261 1.415 . S
C260 C259 1.355 . S
C260 C262 1.419 . S
C261 C256 1.425 . S
C261 C258 1.409 . S
C261 C259 1.415 . S
C262 H252 0.930 . S
C262 C260 1.419 . S
C262 C263 1.362 . S
C263 H253 0.930 . S
C263 C256 1.409 . S
C263 C262 1.362 . S
H264 C270 0.930 . S
H265 C273 0.930 . S
H266 C274 0.930 . S
H267 C275 0.930 . S
H268 C278 0.930 . S
H269 C279 0.930 . S
C270 H264 0.930 . S
C270 C271 1.355 . S
C270 C272 1.415 . S
C271 C270 1.355 . S
C271 C273 1.419 . S
C272 C270 1.415 . S
C272 C277 1.425 . S
C272 C279 1.409 . S
C273 H265 0.930 . S
C273 C271 1.419 . S
C273 C274 1.362 . S
C274 H266 0.930 . S
C274 C273 1.362 . S
C274 C277 1.409 . S
C275 H267 0.930 . S
C275 C276 1.355 . S
C275 C277 1.415 . S
C276 C275 1.355 . S
C276 C278 1.419 . S
C277 C272 1.425 . S
C277 C274 1.409 . S
C277 C275 1.415 . S
C278 H268 0.930 . S
C278 C276 1.419 . S
C278 C279 1.362 . S
C279 H269 0.930 . S
C279 C272 1.409 . S
C279 C278 1.362 . S
H280 C286 0.930 . S
H281 C289 0.930 . S
H282 C290 0.930 . S
H283 C291 0.930 . S
H284 C294 0.930 . S
H285 C295 0.930 . S
C286 H280 0.930 . S
C286 C287 1.355 . S
C286 C288 1.415 . S
C287 C286 1.355 . S
C287 C289 1.419 . S
C288 C286 1.415 . S
C288 C293 1.425 . S
C288 C295 1.409 . S
C289 H281 0.930 . S
C289 C287 1.419 . S
C289 C290 1.362 . S
C290 H282 0.930 . S
C290 C289 1.362 . S
C290 C293 1.409 . S
C291 H283 0.930 . S
C291 C292 1.355 . S
C291 C293 1.415 . S
C292 C291 1.355 . S
C292 C294 1.419 . S
C293 C288 1.425 . S
C293 C290 1.409 . S
C293 C291 1.415 . S
C294 H284 0.930 . S
C294 C292 1.419 . S
C294 C295 1.362 . S
C295 H285 0.930 . S
C295 C288 1.409 . S
C295 C294 1.362 . S
H296 C302 0.930 . S
H297 C305 0.930 . S
H298 C306 0.930 . S
H299 C307 0.930 . S
H300 C310 0.930 . S
H301 C311 0.930 . S
C302 H296 0.930 . S
C302 C303 1.355 . S
C302 C304 1.415 . S
C303 C302 1.355 . S
C303 C305 1.419 . S
C304 C302 1.415 . S
C304 C309 1.425 . S
C304 C311 1.409 . S
C305 H297 0.930 . S
C305 C303 1.419 . S
C305 C306 1.362 . S
C306 H298 0.930 . S
C306 C305 1.362 . S
C306 C309 1.409 . S
C307 H299 0.930 . S
C307 C308 1.355 . S
C307 C309 1.415 . S
C308 C307 1.355 . S
C308 C310 1.419 . S
C309 C304 1.425 . S
C309 C306 1.409 . S
C309 C307 1.415 . S
C310 H300 0.930 . S
C310 C308 1.419 . S
C310 C311 1.362 . S
C311 H301 0.930 . S
C311 C304 1.409 . S
C311 C310 1.362 . S
H312 C318 0.930 . S
H313 C321 0.930 . S
H314 C322 0.930 . S
H315 C323 0.930 . S
H316 C326 0.930 . S
H317 C327 0.930 . S
C318 H312 0.930 . S
C318 C319 1.355 . S
C318 C320 1.415 . S
C319 C318 1.355 . S
C319 C321 1.419 . S
C320 C318 1.415 . S
C320 C325 1.425 . S
C320 C327 1.409 . S
C321 H313 0.930 . S
C321 C319 1.419 . S
C321 C322 1.362 . S
C322 H314 0.930 . S
C322 C321 1.362 . S
C322 C325 1.409 . S
C323 H315 0.930 . S
C323 C324 1.355 . S
C323 C325 1.415 . S
C324 C323 1.355 . S
C324 C326 1.419 . S
C325 C320 1.425 . S
C325 C322 1.409 . S
C325 C323 1.415 . S
C326 H316 0.930 . S
C326 C324 1.419 . S
C326 C327 1.362 . S
C327 H317 0.930 . S
C327 C320 1.409 . S
C327 C326 1.362 . S
H328 C334 0.930 . S
H329 C337 0.930 . S
H330 C338 0.930 . S
H331 C339 0.930 . S
H332 C342 0.930 1_655 S
H333 C343 0.930 . S
C334 H328 0.930 . S
C334 C335 1.355 . S
C334 C336 1.415 . S
C335 C334 1.355 . S
C335 C337 1.419 . S
C336 C334 1.415 . S
C336 C341 1.425 . S
C336 C343 1.409 . S
C337 H329 0.930 . S
C337 C335 1.419 . S
C337 C338 1.362 . S
C338 H330 0.930 . S
C338 C337 1.362 . S
C338 C341 1.409 . S
C339 H331 0.930 . S
C339 C340 1.355 . S
C339 C341 1.415 . S
C340 C339 1.355 . S
C340 C342 1.419 . S
C341 C336 1.425 . S
C341 C338 1.409 . S
C341 C339 1.415 . S
C342 H332 0.930 1_455 S
C342 C340 1.419 . S
C342 C343 1.362 . S
C343 H333 0.930 . S
C343 C336 1.409 . S
C343 C342 1.362 . S
H344 C350 0.930 . S
H345 C353 0.930 . S
H346 C354 0.930 . S
H347 C355 0.930 . S
H348 C358 0.930 . S
H349 C359 0.930 . S
C350 H344 0.930 . S
C350 C351 1.355 . S
C350 C352 1.415 . S
C351 C350 1.355 . S
C351 C353 1.419 . S
C352 C350 1.415 . S
C352 C357 1.425 . S
C352 C359 1.409 . S
C353 H345 0.930 . S
C353 C351 1.419 . S
C353 C354 1.362 . S
C354 H346 0.930 . S
C354 C353 1.362 . S
C354 C357 1.409 . S
C355 H347 0.930 . S
C355 C356 1.355 . S
C355 C357 1.415 . S
C356 C355 1.355 . S
C356 C358 1.419 . S
C357 C352 1.425 . S
C357 C354 1.409 . S
C357 C355 1.415 . S
C358 H348 0.930 . S
C358 C356 1.419 . S
C358 C359 1.362 . S
C359 H349 0.930 . S
C359 C352 1.409 . S
C359 C358 1.362 . S
H360 C366 0.930 . S
H361 C369 0.930 . S
H362 C370 0.930 . S
H363 C371 0.930 . S
H364 C374 0.930 . S
H365 C375 0.930 . S
C366 H360 0.930 . S
C366 C367 1.355 . S
C366 C368 1.415 . S
C367 C366 1.355 . S
C367 C369 1.419 . S
C368 C366 1.415 . S
C368 C373 1.425 . S
C368 C375 1.409 . S
C369 H361 0.930 . S
C369 C367 1.419 . S
C369 C370 1.362 . S
C370 H362 0.930 . S
C370 C369 1.362 . S
C370 C373 1.409 . S
C371 H363 0.930 . S
C371 C372 1.355 . S
C371 C373 1.415 . S
C372 C371 1.355 . S
C372 C374 1.419 . S
C373 C368 1.425 . S
C373 C370 1.409 . S
C373 C371 1.415 . S
C374 H364 0.930 . S
C374 C372 1.419 . S
C374 C375 1.362 . S
C375 H365 0.930 . S
C375 C368 1.409 . S
C375 C374 1.362 . S
H376 C382 0.930 . S
H377 C385 0.930 . S
H378 C386 0.930 . S
H379 C387 0.930 . S
H380 C390 0.930 . S
H381 C391 0.930 . S
C382 H376 0.930 . S
C382 C383 1.355 . S
C382 C384 1.415 . S
C383 C382 1.355 . S
C383 C385 1.419 . S
C384 C382 1.415 . S
C384 C389 1.425 . S
C384 C391 1.409 . S
C385 H377 0.930 . S
C385 C383 1.419 . S
C385 C386 1.362 . S
C386 H378 0.930 . S
C386 C385 1.362 . S
C386 C389 1.409 . S
C387 H379 0.930 . S
C387 C388 1.355 . S
C387 C389 1.415 . S
C388 C387 1.355 . S
C388 C390 1.419 . S
C389 C384 1.425 . S
C389 C386 1.409 . S
C389 C387 1.415 . S
C390 H380 0.930 . S
C390 C388 1.419 . S
C390 C391 1.362 . S
C391 H381 0.930 . S
C391 C384 1.409 . S
C391 C390 1.362 . S
H392 C398 0.930 . S
H393 C401 0.930 . S
H394 C402 0.930 . S
H395 C403 0.930 . S
H396 C406 0.930 . S
H397 C407 0.930 . S
C398 H392 0.930 . S
C398 C399 1.355 . S
C398 C400 1.415 . S
C399 C398 1.355 . S
C399 C401 1.419 . S
C400 C398 1.415 . S
C400 C405 1.425 . S
C400 C407 1.409 . S
C401 H393 0.930 . S
C401 C399 1.419 . S
C401 C402 1.362 . S
C402 H394 0.930 . S
C402 C401 1.362 . S
C402 C405 1.409 . S
C403 H395 0.930 . S
C403 C404 1.355 . S
C403 C405 1.415 . S
C404 C403 1.355 . S
C404 C406 1.419 . S
C405 C400 1.425 . S
C405 C402 1.409 . S
C405 C403 1.415 . S
C406 H396 0.930 . S
C406 C404 1.419 . S
C406 C407 1.362 . S
C407 H397 0.930 . S
C407 C400 1.409 . S
C407 C406 1.362 . S
H408 C414 0.930 . S
H409 C417 0.930 . S
H410 C418 0.930 . S
H411 C419 0.930 . S
H412 C422 0.930 . S
H413 C423 0.930 . S
C414 H408 0.930 . S
C414 C415 1.355 . S
C414 C416 1.415 . S
C415 C414 1.355 . S
C415 C417 1.419 . S
C416 C414 1.415 . S
C416 C421 1.425 . S
C416 C423 1.409 . S
C417 H409 0.930 . S
C417 C415 1.419 . S
C417 C418 1.362 . S
C418 H410 0.930 . S
C418 C417 1.362 . S
C418 C421 1.409 . S
C419 H411 0.930 . S
C419 C420 1.355 . S
C419 C421 1.415 . S
C420 C419 1.355 . S
C420 C422 1.419 . S
C421 C416 1.425 . S
C421 C418 1.409 . S
C421 C419 1.415 . S
C422 H412 0.930 . S
C422 C420 1.419 . S
C422 C423 1.362 . S
C423 H413 0.930 . S
C423 C416 1.409 . S
C423 C422 1.362 . S
H424 C430 0.930 . S
H425 C433 0.930 . S
H426 C434 0.930 . S
H427 C435 0.930 . S
H428 C438 0.930 . S
H429 C439 0.930 . S
C430 H424 0.930 . S
C430 C431 1.355 . S
C430 C432 1.415 . S
C431 C430 1.355 . S
C431 C433 1.419 . S
C432 C430 1.415 . S
C432 C437 1.425 . S
C432 C439 1.409 . S
C433 H425 0.930 . S
C433 C431 1.419 . S
C433 C434 1.362 . S
C434 H426 0.930 . S
C434 C433 1.362 . S
C434 C437 1.409 . S
C435 H427 0.930 . S
C435 C436 1.355 . S
C435 C437 1.415 . S
C436 C435 1.355 . S
C436 C438 1.419 . S
C437 C432 1.425 . S
C437 C434 1.409 . S
C437 C435 1.415 . S
C438 H428 0.930 . S
C438 C436 1.419 . S
C438 C439 1.362 . S
C439 H429 0.930 . S
C439 C432 1.409 . S
C439 C438 1.362 . S
H440 C446 0.930 . S
H441 C449 0.930 . S
H442 C450 0.930 . S
H443 C451 0.930 . S
H444 C454 0.930 . S
H445 C455 0.930 . S
C446 H440 0.930 . S
C446 C447 1.355 . S
C446 C448 1.415 . S
C447 C446 1.355 . S
C447 C449 1.419 . S
C448 C446 1.415 . S
C448 C453 1.425 . S
C448 C455 1.409 . S
C449 H441 0.930 . S
C449 C447 1.419 . S
C449 C450 1.362 . S
C450 H442 0.930 . S
C450 C449 1.362 . S
C450 C453 1.409 . S
C451 H443 0.930 . S
C451 C452 1.355 . S
C451 C453 1.415 . S
C452 C451 1.355 . S
C452 C454 1.419 . S
C453 C448 1.425 . S
C453 C450 1.409 . S
C453 C451 1.415 . S
C454 H444 0.930 . S
C454 C452 1.419 . S
C454 C455 1.362 . S
C455 H445 0.930 . S
C455 C448 1.409 . S
C455 C454 1.362 . S
H456 C462 0.930 . S
H457 C465 0.930 . S
H458 C466 0.930 . S
H459 C467 0.930 . S
H460 C470 0.930 . S
H461 C471 0.930 . S
C462 H456 0.930 . S
C462 C463 1.355 . S
C462 C464 1.415 . S
C463 C462 1.355 . S
C463 C465 1.419 . S
C464 C462 1.415 . S
C464 C469 1.425 . S
C464 C471 1.409 . S
C465 H457 0.930 . S
C465 C463 1.419 . S
C465 C466 1.362 . S
C466 H458 0.930 . S
C466 C465 1.362 . S
C466 C469 1.409 . S
C467 H459 0.930 . S
C467 C468 1.355 . S
C467 C469 1.415 . S
C468 C467 1.355 . S
C468 C470 1.419 . S
C469 C464 1.425 . S
C469 C466 1.409 . S
C469 C467 1.415 . S
C470 H460 0.930 . S
C470 C468 1.419 . S
C470 C471 1.362 . S
C471 H461 0.930 . S
C471 C464 1.409 . S
C471 C470 1.362 . S
H472 C478 0.930 . S
H473 C481 0.930 . S
H474 C482 0.930 . S
H475 C483 0.930 . S
H476 C486 0.930 . S
H477 C487 0.930 . S
C478 H472 0.930 . S
C478 C479 1.355 . S
C478 C480 1.415 . S
C479 C478 1.355 . S
C479 C481 1.419 . S
C480 C478 1.415 . S
C480 C485 1.425 . S
C480 C487 1.409 . S
C481 H473 0.930 . S
C481 C479 1.419 . S
C481 C482 1.362 . S
C482 H474 0.930 . S
C482 C481 1.362 . S
C482 C485 1.409 . S
C483 H475 0.930 . S
C483 C484 1.355 . S
C483 C485 1.415 . S
C484 C483 1.355 . S
C484 C486 1.419 . S
C485 C480 1.425 . S
C485 C482 1.409 . S
C485 C483 1.415 . S
C486 H476 0.930 . S
C486 C484 1.419 . S
C486 C487 1.362 . S
C487 H477 0.930 . S
C487 C480 1.409 . S
C487 C486 1.362 . S
H488 C494 0.930 . S
H489 C497 0.930 . S
H490 C498 0.930 . S
H491 C499 0.930 . S
H492 C502 0.930 . S
H493 C503 0.930 . S
C494 H488 0.930 . S
C494 C495 1.355 . S
C494 C496 1.415 . S
C495 C494 1.355 . S
C495 C497 1.419 . S
C496 C494 1.415 . S
C496 C501 1.425 . S
C496 C503 1.409 . S
C497 H489 0.930 . S
C497 C495 1.419 . S
C497 C498 1.362 . S
C498 H490 0.930 . S
C498 C497 1.362 . S
C498 C501 1.409 . S
C499 H491 0.930 . S
C499 C500 1.355 . S
C499 C501 1.415 . S
C500 C499 1.355 . S
C500 C502 1.419 . S
C501 C496 1.425 . S
C501 C498 1.409 . S
C501 C499 1.415 . S
C502 H492 0.930 . S
C502 C500 1.419 . S
C502 C503 1.362 . S
C503 H493 0.930 . S
C503 C496 1.409 . S
C503 C502 1.362 . S
H504 C510 0.930 . S
H505 C513 0.930 . S
H506 C514 0.930 . S
H507 C515 0.930 . S
H508 C518 0.930 . S
H509 C519 0.930 . S
C510 H504 0.930 . S
C510 C511 1.355 . S
C510 C512 1.415 . S
C511 C510 1.355 . S
C511 C513 1.419 . S
C512 C510 1.415 . S
C512 C517 1.425 . S
C512 C519 1.409 . S
C513 H505 0.930 . S
C513 C511 1.419 . S
C513 C514 1.362 . S
C514 H506 0.930 . S
C514 C513 1.362 . S
C514 C517 1.409 . S
C515 H507 0.930 . S
C515 C516 1.355 . S
C515 C517 1.415 . S
C516 C515 1.355 . S
C516 C518 1.419 . S
C517 C512 1.425 . S
C517 C514 1.409 . S
C517 C515 1.415 . S
C518 H508 0.930 . S
C518 C516 1.419 . S
C518 C519 1.362 . S
C519 H509 0.930 . S
C519 C512 1.409 . S
C519 C518 1.362 . S
H520 C526 0.930 . S
H521 C529 0.930 . S
H522 C530 0.930 . S
H523 C531 0.930 . S
H524 C534 0.930 . S
H525 C535 0.930 . S
C526 H520 0.930 . S
C526 C527 1.355 . S
C526 C528 1.415 . S
C527 C526 1.355 . S
C527 C529 1.419 . S
C528 C526 1.415 . S
C528 C533 1.425 . S
C528 C535 1.409 . S
C529 H521 0.930 . S
C529 C527 1.419 . S
C529 C530 1.362 . S
C530 H522 0.930 . S
C530 C529 1.362 . S
C530 C533 1.409 . S
C531 H523 0.930 . S
C531 C532 1.355 . S
C531 C533 1.415 . S
C532 C531 1.355 . S
C532 C534 1.419 . S
C533 C528 1.425 . S
C533 C530 1.409 . S
C533 C531 1.415 . S
C534 H524 0.930 . S
C534 C532 1.419 . S
C534 C535 1.362 . S
C535 H525 0.930 . S
C535 C528 1.409 . S
C535 C534 1.362 . S
H536 C542 0.930 . S
H537 C545 0.930 . S
H538 C546 0.930 . S
H539 C547 0.930 . S
H540 C550 0.930 . S
H541 C551 0.930 . S
C542 H536 0.930 . S
C542 C543 1.355 . S
C542 C544 1.415 . S
C543 C542 1.355 . S
C543 C545 1.419 . S
C544 C542 1.415 . S
C544 C549 1.425 . S
C544 C551 1.409 . S
C545 H537 0.930 . S
C545 C543 1.419 . S
C545 C546 1.362 . S
C546 H538 0.930 . S
C546 C545 1.362 . S
C546 C549 1.409 . S
C547 H539 0.930 . S
C547 C548 1.355 . S
C547 C549 1.415 . S
C548 C547 1.355 . S
C548 C550 1.419 . S
C549 C544 1.425 . S
C549 C546 1.409 . S
C549 C547 1.415 . S
C550 H540 0.930 . S
C550 C548 1.419 . S
C550 C551 1.362 . S
C551 H541 0.930 . S
C551 C544 1.409 . S
C551 C550 1.362 . S
H552 C558 0.930 . S
H553 C561 0.930 . S
H554 C562 0.930 . S
H555 C563 0.930 . S
H556 C566 0.930 . S
H557 C567 0.930 . S
C558 H552 0.930 . S
C558 C559 1.355 . S
C558 C560 1.415 . S
C559 C558 1.355 . S
C559 C561 1.419 . S
C560 C558 1.415 . S
C560 C565 1.425 . S
C560 C567 1.409 . S
C561 H553 0.930 . S
C561 C559 1.419 . S
C561 C562 1.362 . S
C562 H554 0.930 . S
C562 C561 1.362 . S
C562 C565 1.409 . S
C563 H555 0.930 . S
C563 C564 1.355 . S
C563 C565 1.415 . S
C564 C563 1.355 . S
C564 C566 1.419 . S
C565 C560 1.425 . S
C565 C562 1.409 . S
C565 C563 1.415 . S
C566 H556 0.930 . S
C566 C564 1.419 . S
C566 C567 1.362 . S
C567 H557 0.930 . S
C567 C560 1.409 . S
C567 C566 1.362 . S
H568 C574 0.930 . S
H569 C577 0.930 . S
H570 C578 0.930 . S
H571 C579 0.930 . S
H572 C582 0.930 . S
H573 C583 0.930 . S
C574 H568 0.930 . S
C574 C575 1.355 . S
C574 C576 1.415 . S
C575 C574 1.355 . S
C575 C577 1.419 . S
C576 C574 1.415 . S
C576 C581 1.425 . S
C576 C583 1.409 . S
C577 H569 0.930 . S
C577 C575 1.419 . S
C577 C578 1.362 . S
C578 H570 0.930 . S
C578 C577 1.362 . S
C578 C581 1.409 . S
C579 H571 0.930 . S
C579 C580 1.355 . S
C579 C581 1.415 . S
C580 C579 1.355 . S
C580 C582 1.419 . S
C581 C576 1.425 . S
C581 C578 1.409 . S
C581 C579 1.415 . S
C582 H572 0.930 . S
C582 C580 1.419 . S
C582 C583 1.362 . S
C583 H573 0.930 . S
C583 C576 1.409 . S
C583 C582 1.362 . S
H584 C590 0.930 . S
H585 C593 0.930 . S
H586 C594 0.930 . S
H587 C595 0.930 . S
H588 C598 0.930 . S
H589 C599 0.930 . S
C590 H584 0.930 . S
C590 C591 1.355 . S
C590 C592 1.415 . S
C591 C590 1.355 . S
C591 C593 1.419 . S
C592 C590 1.415 . S
C592 C597 1.425 . S
C592 C599 1.409 . S
C593 H585 0.930 . S
C593 C591 1.419 . S
C593 C594 1.362 . S
C594 H586 0.930 . S
C594 C593 1.362 . S
C594 C597 1.409 . S
C595 H587 0.930 . S
C595 C596 1.355 . S
C595 C597 1.415 . S
C596 C595 1.355 . S
C596 C598 1.419 . S
C597 C592 1.425 . S
C597 C594 1.409 . S
C597 C595 1.415 . S
C598 H588 0.930 . S
C598 C596 1.419 . S
C598 C599 1.362 . S
C599 H589 0.930 . S
C599 C592 1.409 . S
C599 C598 1.362 . S
H600 C606 0.930 . S
H601 C609 0.930 . S
H602 C610 0.930 . S
H603 C611 0.930 . S
H604 C614 0.930 . S
H605 C615 0.930 . S
C606 H600 0.930 . S
C606 C607 1.355 . S
C606 C608 1.415 . S
C607 C606 1.355 . S
C607 C609 1.419 . S
C608 C606 1.415 . S
C608 C613 1.425 . S
C608 C615 1.409 . S
C609 H601 0.930 . S
C609 C607 1.419 . S
C609 C610 1.362 . S
C610 H602 0.930 . S
C610 C609 1.362 . S
C610 C613 1.409 . S
C611 H603 0.930 . S
C611 C612 1.355 . S
C611 C613 1.415 . S
C612 C611 1.355 . S
C612 C614 1.419 . S
C613 C608 1.425 . S
C613 C610 1.409 . S
C613 C611 1.415 . S
C614 H604 0.930 . S
C614 C612 1.419 . S
C614 C615 1.362 . S
C615 H605 0.930 . S
C615 C608 1.409 . S
C615 C614 1.362 . S
H616 C622 0.930 . S
H617 C625 0.930 . S
H618 C626 0.930 . S
H619 C627 0.930 . S
H620 C630 0.930 . S
H621 C631 0.930 . S
C622 H616 0.930 . S
C622 C623 1.355 . S
C622 C624 1.415 . S
C623 C622 1.355 . S
C623 C625 1.419 . S
C624 C622 1.415 . S
C624 C629 1.425 . S
C624 C631 1.409 . S
C625 H617 0.930 . S
C625 C623 1.419 . S
C625 C626 1.362 . S
C626 H618 0.930 . S
C626 C625 1.362 . S
C626 C629 1.409 . S
C627 H619 0.930 . S
C627 C628 1.355 . S
C627 C629 1.415 . S
C628 C627 1.355 . S
C628 C630 1.419 . S
C629 C624 1.425 . S
C629 C626 1.409 . S
C629 C627 1.415 . S
C630 H620 0.930 . S
C630 C628 1.419 . S
C630 C631 1.362 . S
C631 H621 0.930 . S
C631 C624 1.409 . S
C631 C630 1.362 . S
C255 C5 0.919 . S
C260 C103 1.196 . S
C271 C18 1.487 . S
C276 C147 1.526 . S
C292 C177 2.173 . S
C287 C30 2.152 . S
C303 C41 2.455 . S
C308 C218 2.418 . S
C324 C134 1.004 . S
C319 C7 0.899 . S
C340 C98 2.517 . S
C335 C16 2.434 . S
C356 C226 1.213 . S
C351 C29 1.213 . S
C372 C187 1.851 . S
C367 C38 1.470 . S
C383 C8 1.190 . S
C388 C223 1.278 . S
C404 C137 2.216 . S
C399 C27 2.098 . S
C415 C40 2.104 . S
C420 C106 2.053 . S
C431 C19 1.998 . S
C436 C174 1.955 . S
C452 C94 1.103 . S
C447 C51 0.909 . S
C463 C62 1.695 . S
C468 C138 1.642 . S
C479 C74 2.313 . S
C484 C186 2.344 . S
C495 C84 2.385 . S
C500 C227 2.413 . S
C511 C49 0.950 . S
C516 C143 1.185 . S
C532 C107 2.470 . S
C527 C63 2.458 . S
C548 C217 1.063 . S
C543 C71 1.094 . S
C564 C178 2.052 . S
C559 C85 2.095 . S
C575 C52 1.248 . S
C580 C214 1.348 . S
C596 C146 2.187 . S
C591 C73 2.322 . S
C612 C97 1.762 . S
C607 C82 1.724 . S
C623 C60 1.899 . S
C628 C183 1.976 . S
