# Generated by pormake.
# Topology ocu, (6,8)-cn, num edge types: 1
# Building blocks:
#     Node 0, Type 0, BuildingBlock: JUFBIX_clean_sbu_0, # of connection points: 6
#     Node 1, Type 0, BuildingBlock: JUFBIX_clean_sbu_0, # of connection points: 6
#     Node 2, Type 0, BuildingBlock: JUFBIX_clean_sbu_0, # of connection points: 6
#     Node 3, Type 0, BuildingBlock: JUFBIX_clean_sbu_0, # of connection points: 6
#     Node 4, Type 0, BuildingBlock: JUFBIX_clean_sbu_0, # of connection points: 6
#     Node 5, Type 0, BuildingBlock: JUFBIX_clean_sbu_0, # of connection points: 6
#     Node 6, Type 0, BuildingBlock: JUFBIX_clean_sbu_0, # of connection points: 6
#     Node 7, Type 0, BuildingBlock: JUFBIX_clean_sbu_0, # of connection points: 6
#     Node 8, Type 1, BuildingBlock: GIZVER_clean_sbu_0, # of connection points: 8
#     Node 9, Type 1, BuildingBlock: GIZVER_clean_sbu_0, # of connection points: 8
#     Node 10, Type 1, BuildingBlock: GIZVER_clean_sbu_0, # of connection points: 8
#     Node 11, Type 1, BuildingBlock: GIZVER_clean_sbu_0, # of connection points: 8
#     Node 12, Type 1, BuildingBlock: GIZVER_clean_sbu_0, # of connection points: 8
#     Node 13, Type 1, BuildingBlock: GIZVER_clean_sbu_0, # of connection points: 8
#     Edge 14, Type (0, 1), BuildingBlock: UVAHIK_clean_linker_0, # of connection points: 2
#     Edge 15, Type (0, 1), BuildingBlock: UVAHIK_clean_linker_0, # of connection points: 2
#     Edge 16, Type (0, 1), BuildingBlock: UVAHIK_clean_linker_0, # of connection points: 2
#     Edge 17, Type (0, 1), BuildingBlock: UVAHIK_clean_linker_0, # of connection points: 2
#     Edge 18, Type (0, 1), BuildingBlock: UVAHIK_clean_linker_0, # of connection points: 2
#     Edge 19, Type (0, 1), BuildingBlock: UVAHIK_clean_linker_0, # of connection points: 2
#     Edge 20, Type (0, 1), BuildingBlock: UVAHIK_clean_linker_0, # of connection points: 2
#     Edge 21, Type (0, 1), BuildingBlock: UVAHIK_clean_linker_0, # of connection points: 2
#     Edge 22, Type (0, 1), BuildingBlock: UVAHIK_clean_linker_0, # of connection points: 2
#     Edge 23, Type (0, 1), BuildingBlock: UVAHIK_clean_linker_0, # of connection points: 2
#     Edge 24, Type (0, 1), BuildingBlock: UVAHIK_clean_linker_0, # of connection points: 2
#     Edge 25, Type (0, 1), BuildingBlock: UVAHIK_clean_linker_0, # of connection points: 2
#     Edge 26, Type (0, 1), BuildingBlock: UVAHIK_clean_linker_0, # of connection points: 2
#     Edge 27, Type (0, 1), BuildingBlock: UVAHIK_clean_linker_0, # of connection points: 2
#     Edge 28, Type (0, 1), BuildingBlock: UVAHIK_clean_linker_0, # of connection points: 2
#     Edge 29, Type (0, 1), BuildingBlock: UVAHIK_clean_linker_0, # of connection points: 2
#     Edge 30, Type (0, 1), BuildingBlock: UVAHIK_clean_linker_0, # of connection points: 2
#     Edge 31, Type (0, 1), BuildingBlock: UVAHIK_clean_linker_0, # of connection points: 2
#     Edge 32, Type (0, 1), BuildingBlock: UVAHIK_clean_linker_0, # of connection points: 2
#     Edge 33, Type (0, 1), BuildingBlock: UVAHIK_clean_linker_0, # of connection points: 2
#     Edge 34, Type (0, 1), BuildingBlock: UVAHIK_clean_linker_0, # of connection points: 2
#     Edge 35, Type (0, 1), BuildingBlock: UVAHIK_clean_linker_0, # of connection points: 2
#     Edge 36, Type (0, 1), BuildingBlock: UVAHIK_clean_linker_0, # of connection points: 2
#     Edge 37, Type (0, 1), BuildingBlock: UVAHIK_clean_linker_0, # of connection points: 2
#     Edge 38, Type (0, 1), BuildingBlock: UVAHIK_clean_linker_0, # of connection points: 2
#     Edge 39, Type (0, 1), BuildingBlock: UVAHIK_clean_linker_0, # of connection points: 2
#     Edge 40, Type (0, 1), BuildingBlock: UVAHIK_clean_linker_0, # of connection points: 2
#     Edge 41, Type (0, 1), BuildingBlock: UVAHIK_clean_linker_0, # of connection points: 2
#     Edge 42, Type (0, 1), BuildingBlock: UVAHIK_clean_linker_0, # of connection points: 2
#     Edge 43, Type (0, 1), BuildingBlock: UVAHIK_clean_linker_0, # of connection points: 2
#     Edge 44, Type (0, 1), BuildingBlock: UVAHIK_clean_linker_0, # of connection points: 2
#     Edge 45, Type (0, 1), BuildingBlock: UVAHIK_clean_linker_0, # of connection points: 2
#     Edge 46, Type (0, 1), BuildingBlock: UVAHIK_clean_linker_0, # of connection points: 2
#     Edge 47, Type (0, 1), BuildingBlock: UVAHIK_clean_linker_0, # of connection points: 2
#     Edge 48, Type (0, 1), BuildingBlock: UVAHIK_clean_linker_0, # of connection points: 2
#     Edge 49, Type (0, 1), BuildingBlock: UVAHIK_clean_linker_0, # of connection points: 2
#     Edge 50, Type (0, 1), BuildingBlock: UVAHIK_clean_linker_0, # of connection points: 2
#     Edge 51, Type (0, 1), BuildingBlock: UVAHIK_clean_linker_0, # of connection points: 2
#     Edge 52, Type (0, 1), BuildingBlock: UVAHIK_clean_linker_0, # of connection points: 2
#     Edge 53, Type (0, 1), BuildingBlock: UVAHIK_clean_linker_0, # of connection points: 2
#     Edge 54, Type (0, 1), BuildingBlock: UVAHIK_clean_linker_0, # of connection points: 2
#     Edge 55, Type (0, 1), BuildingBlock: UVAHIK_clean_linker_0, # of connection points: 2
#     Edge 56, Type (0, 1), BuildingBlock: UVAHIK_clean_linker_0, # of connection points: 2
#     Edge 57, Type (0, 1), BuildingBlock: UVAHIK_clean_linker_0, # of connection points: 2
#     Edge 58, Type (0, 1), BuildingBlock: UVAHIK_clean_linker_0, # of connection points: 2
#     Edge 59, Type (0, 1), BuildingBlock: UVAHIK_clean_linker_0, # of connection points: 2
#     Edge 60, Type (0, 1), BuildingBlock: UVAHIK_clean_linker_0, # of connection points: 2
#     Edge 61, Type (0, 1), BuildingBlock: UVAHIK_clean_linker_0, # of connection points: 2
# Relax obj value: 0.241
# Max RMSD: 0.318
# Mean RMSD: 0.221
data_MOF--net-ocu--node1-JUFBIX_clean_sbu_0--node2-GIZVER_clean_sbu_0--edge1-UVAHIK_clean_linker_0
_symmetry_space_group_name_H-M    P1
_symmetry_Int_Tables_number       1
_symmetry_cell_setting            triclinic
loop_
_symmetry_equiv_pos_as_xyz
'x, y, z'
_cell_length_a     51.368119
_cell_length_b     54.301231
_cell_length_c     38.788603
_cell_angle_alpha  91.986031
_cell_angle_beta   93.109792
_cell_angle_gamma 98.674501
loop_
_atom_site_label
_atom_site_type_symbol
_atom_site_fract_x
_atom_site_fract_y
_atom_site_fract_z
_atom_type_partial_charge
Co0 Co 0.2405 0.24348 0.24635 0.0
C1 C 0.23404 0.28324 0.29193 0.0
Co2 Co 0.27475 0.27334 0.25126 0.0
C3 C 0.20939 0.19463 0.25115 0.0
C4 C 0.18651 0.22145 0.23145 0.0
N5 N 0.21121 0.21874 0.24268 0.0
N6 N 0.1846 0.18228 0.24547 0.0
C7 C 0.17019 0.19908 0.23297 0.0
H8 H 0.22581 0.18632 0.26163 0.0
H9 H 0.18049 0.23874 0.22352 0.0
C10 C 0.28097 0.23332 0.20563 0.0
N11 N 0.30379 0.29812 0.25473 0.0
C12 C 0.30452 0.32242 0.24803 0.0
C13 C 0.32914 0.29546 0.26212 0.0
N14 N 0.32933 0.33501 0.25052 0.0
C15 C 0.34487 0.3181 0.25961 0.0
C16 C 0.27924 0.23533 0.2969 0.0
O17 O 0.25761 0.22513 0.21357 0.0
O18 O 0.29196 0.25458 0.21831 0.0
O19 O 0.2902 0.25641 0.28763 0.0
O20 O 0.25655 0.22636 0.2831 0.0
O21 O 0.25738 0.29175 0.28416 0.0
H22 H 0.33587 0.27799 0.26762 0.0
H23 H 0.28721 0.33059 0.24058 0.0
O24 O 0.22335 0.26196 0.27912 0.0
O25 O 0.22504 0.26094 0.20974 0.0
O26 O 0.25915 0.29037 0.21472 0.0
C27 C 0.23646 0.28197 0.20075 0.0
H28 H 0.1491 0.19573 0.2269 0.0
H29 H 0.36621 0.32148 0.26228 0.0
Co30 Co 0.77354 0.26303 0.24634 0.0
C31 C 0.78686 0.29714 0.30322 0.0
Co32 Co 0.74642 0.2594 0.28849 0.0
C33 C 0.80906 0.29155 0.20532 0.0
C34 C 0.81222 0.25294 0.19795 0.0
N35 N 0.79801 0.26861 0.21346 0.0
N36 N 0.83026 0.29114 0.18655 0.0
C37 C 0.83216 0.26681 0.18128 0.0
H38 H 0.80255 0.30841 0.21492 0.0
H39 H 0.80946 0.23297 0.20069 0.0
C40 C 0.73358 0.2252 0.23121 0.0
N41 N 0.72186 0.25451 0.32169 0.0
C42 C 0.70659 0.23284 0.32759 0.0
C43 C 0.7126 0.2718 0.34143 0.0
N44 N 0.6877 0.23582 0.34957 0.0
C45 C 0.69158 0.26037 0.3586 0.0
C46 C 0.7328 0.29145 0.23807 0.0
O47 O 0.7543 0.23644 0.21898 0.0
O48 O 0.72699 0.23239 0.26057 0.0
O49 O 0.72616 0.28196 0.26642 0.0
O50 O 0.75318 0.28567 0.22456 0.0
O51 O 0.76605 0.28638 0.31577 0.0
H52 H 0.71977 0.2916 0.34196 0.0
H53 H 0.70829 0.21542 0.31419 0.0
O54 O 0.79302 0.28961 0.27393 0.0
O55 O 0.79368 0.24053 0.26828 0.0
O56 O 0.76691 0.23679 0.31056 0.0
C57 C 0.78737 0.2312 0.29685 0.0
H58 H 0.84793 0.25968 0.16864 0.0
H59 H 0.67959 0.26962 0.37539 0.0
Co60 Co 0.75938 0.75111 0.27786 0.0
C61 C 0.80251 0.78912 0.28947 0.0
Co62 Co 0.76586 0.77686 0.23564 0.0
C63 C 0.77424 0.71924 0.32956 0.0
C64 C 0.73522 0.72719 0.33613 0.0
N65 N 0.75534 0.73081 0.31491 0.0
N66 N 0.76694 0.70888 0.3592 0.0
C67 C 0.74248 0.71386 0.36376 0.0
H68 H 0.79365 0.71965 0.31981 0.0
H69 H 0.71695 0.73467 0.33259 0.0
C70 C 0.72261 0.73875 0.22431 0.0
N71 N 0.76991 0.79724 0.19869 0.0
C72 C 0.74992 0.80423 0.17951 0.0
C73 C 0.79189 0.8066 0.18316 0.0
N74 N 0.75828 0.81748 0.15238 0.0
C75 C 0.78478 0.81907 0.15455 0.0
C76 C 0.79188 0.7355 0.22863 0.0
O77 O 0.72878 0.73287 0.25474 0.0
O78 O 0.73642 0.75708 0.21125 0.0
O79 O 0.78861 0.75613 0.2158 0.0
O80 O 0.78049 0.7292 0.25603 0.0
O81 O 0.79509 0.79629 0.26022 0.0
H82 H 0.81168 0.80405 0.19163 0.0
H83 H 0.72943 0.79882 0.18479 0.0
O84 O 0.79006 0.76948 0.30118 0.0
O85 O 0.73846 0.77308 0.29905 0.0
O86 O 0.74305 0.79781 0.25578 0.0
C87 C 0.73354 0.79272 0.28477 0.0
H88 H 0.73102 0.70867 0.38571 0.0
H89 H 0.79806 0.82845 0.13677 0.0
Co90 Co 0.24864 0.77873 0.2566 0.0
C91 C 0.28483 0.79153 0.3127 0.0
Co92 Co 0.27738 0.75314 0.26248 0.0
C93 C 0.19859 0.79616 0.25007 0.0
C94 C 0.23108 0.82547 0.24622 0.0
N95 N 0.22513 0.8008 0.25071 0.0
N96 N 0.18769 0.81701 0.24562 0.0
C97 C 0.20815 0.83545 0.24304 0.0
H98 H 0.1875 0.77799 0.25394 0.0
H99 H 0.25084 0.83576 0.24657 0.0
C100 C 0.24057 0.74017 0.20676 0.0
N101 N 0.30091 0.73116 0.26767 0.0
C102 C 0.31382 0.72241 0.24188 0.0
C103 C 0.30626 0.71778 0.29514 0.0
N104 N 0.32663 0.70377 0.25175 0.0
C105 C 0.32192 0.70058 0.28523 0.0
C106 C 0.23065 0.73778 0.29721 0.0
O107 O 0.23256 0.76005 0.21682 0.0
O108 O 0.26071 0.73383 0.22255 0.0
O109 O 0.25339 0.73271 0.29092 0.0
O110 O 0.22421 0.75783 0.28538 0.0
O111 O 0.29359 0.77208 0.30225 0.0
H112 H 0.29809 0.71943 0.32009 0.0
H113 H 0.31211 0.72825 0.21554 0.0
O114 O 0.26466 0.79767 0.29672 0.0
O115 O 0.27304 0.7992 0.22807 0.0
O116 O 0.30177 0.77374 0.23371 0.0
C117 C 0.29567 0.79386 0.2218 0.0
H118 H 0.2068 0.8551 0.24166 0.0
H119 H 0.32834 0.68621 0.30082 0.0
Co120 Co 0.28164 0.75808 0.72022 0.0
C121 C 0.29622 0.79404 0.77351 0.0
Co122 Co 0.25538 0.75529 0.76333 0.0
C123 C 0.31715 0.78087 0.67186 0.0
C124 C 0.31446 0.74115 0.6697 0.0
N125 N 0.30471 0.7601 0.68529 0.0
N126 N 0.33451 0.77572 0.64877 0.0
C127 C 0.33291 0.75072 0.64731 0.0
H128 H 0.31441 0.79951 0.68013 0.0
H129 H 0.30909 0.72168 0.67508 0.0
C130 C 0.24076 0.71915 0.71058 0.0
N131 N 0.23225 0.75265 0.79809 0.0
C132 C 0.22104 0.73111 0.81079 0.0
C133 C 0.21973 0.77033 0.8121 0.0
N134 N 0.20155 0.73442 0.83148 0.0
C135 C 0.20058 0.75909 0.83248 0.0
C136 C 0.24068 0.78559 0.71067 0.0
O137 O 0.26082 0.7301 0.69659 0.0
O138 O 0.23489 0.72738 0.73967 0.0
O139 O 0.23484 0.77686 0.73975 0.0
O140 O 0.26095 0.77977 0.69678 0.0
O141 O 0.27593 0.78298 0.78694 0.0
H142 H 0.22315 0.78983 0.80616 0.0
H143 H 0.22559 0.71303 0.80269 0.0
O144 O 0.30236 0.78622 0.74421 0.0
O145 O 0.30222 0.73637 0.74394 0.0
O146 O 0.27594 0.73372 0.78664 0.0
C147 C 0.29614 0.72769 0.77298 0.0
H148 H 0.34454 0.74017 0.63167 0.0
H149 H 0.18624 0.76811 0.84555 0.0
Co150 Co 0.26366 0.25199 0.77539 0.0
C151 C 0.30708 0.2906 0.78133 0.0
Co152 Co 0.2682 0.27658 0.73135 0.0
C153 C 0.26522 0.21051 0.82069 0.0
C154 C 0.25924 0.24417 0.84721 0.0
N155 N 0.26156 0.2342 0.81537 0.0
N156 N 0.26557 0.20544 0.85464 0.0
C157 C 0.26157 0.22663 0.87122 0.0
H158 H 0.2688 0.19765 0.80019 0.0
H159 H 0.25773 0.26349 0.85306 0.0
C160 C 0.22488 0.2377 0.72548 0.0
N161 N 0.26946 0.29488 0.69204 0.0
C162 C 0.2482 0.30327 0.67779 0.0
C163 C 0.28801 0.29919 0.6687 0.0
N164 N 0.25235 0.3124 0.64644 0.0
C165 C 0.27741 0.30987 0.64036 0.0
C166 C 0.29425 0.23476 0.72552 0.0
O167 O 0.23311 0.23174 0.75506 0.0
O168 O 0.23724 0.25643 0.71153 0.0
O169 O 0.28915 0.25428 0.71095 0.0
O170 O 0.28524 0.22997 0.75493 0.0
O171 O 0.29912 0.29651 0.75155 0.0
H172 H 0.30739 0.29372 0.67127 0.0
H173 H 0.22925 0.30098 0.68918 0.0
O174 O 0.29434 0.27215 0.79549 0.0
O175 O 0.24209 0.27413 0.79499 0.0
O176 O 0.24722 0.29889 0.75201 0.0
C177 C 0.23753 0.29387 0.7808 0.0
H178 H 0.26241 0.22998 0.89895 0.0
H179 H 0.28704 0.31465 0.61684 0.0
Co180 Co 0.7535 0.26808 0.74797 0.0
C181 C 0.79066 0.28163 0.8033 0.0
Co182 Co 0.7825 0.24278 0.75394 0.0
C183 C 0.71624 0.2978 0.76913 0.0
C184 C 0.72363 0.30289 0.7159 0.0
N185 N 0.72945 0.28958 0.74326 0.0
N186 N 0.70275 0.316 0.75938 0.0
C187 C 0.70736 0.31949 0.72594 0.0
H188 H 0.7181 0.29186 0.7954 0.0
H189 H 0.7318 0.30154 0.6909 0.0
C190 C 0.74581 0.22952 0.69831 0.0
N191 N 0.80656 0.22125 0.75895 0.0
C192 C 0.83301 0.22687 0.7595 0.0
C193 C 0.80152 0.19627 0.76054 0.0
N194 N 0.84486 0.20632 0.76047 0.0
C195 C 0.82498 0.18705 0.76142 0.0
C196 C 0.73618 0.22712 0.78915 0.0
O197 O 0.73729 0.24916 0.70839 0.0
O198 O 0.766 0.22342 0.71429 0.0
O199 O 0.75904 0.22212 0.78334 0.0
O200 O 0.72969 0.24693 0.77671 0.0
O201 O 0.79898 0.2619 0.79322 0.0
H202 H 0.78202 0.18538 0.75929 0.0
H203 H 0.84323 0.24566 0.7577 0.0
O204 O 0.77014 0.28749 0.78785 0.0
O205 O 0.7769 0.28893 0.71942 0.0
O206 O 0.80609 0.2638 0.72429 0.0
C207 C 0.79952 0.28385 0.71264 0.0
H208 H 0.7004 0.33365 0.71045 0.0
H209 H 0.82694 0.16748 0.75998 0.0
Co210 Co 0.7515 0.74524 0.75254 0.0
C211 C 0.74474 0.78518 0.79791 0.0
Co212 Co 0.78517 0.77558 0.75688 0.0
C213 C 0.72294 0.69583 0.75653 0.0
C214 C 0.69739 0.72209 0.74279 0.0
N215 N 0.72295 0.72002 0.74972 0.0
N216 N 0.69837 0.68275 0.75459 0.0
C217 C 0.68224 0.69921 0.74572 0.0
H218 H 0.74059 0.68811 0.76369 0.0
H219 H 0.69014 0.73933 0.73733 0.0
C220 C 0.79212 0.73567 0.71161 0.0
N221 N 0.81391 0.80064 0.7598 0.0
C222 C 0.81457 0.82516 0.75455 0.0
C223 C 0.83929 0.7978 0.76639 0.0
N224 N 0.83942 0.83774 0.75748 0.0
C225 C 0.85499 0.82053 0.76503 0.0
C226 C 0.79043 0.73788 0.80301 0.0
O227 O 0.76895 0.72693 0.71974 0.0
O228 O 0.80251 0.75716 0.72398 0.0
O229 O 0.8014 0.75892 0.79349 0.0
O230 O 0.76782 0.72889 0.78926 0.0
O231 O 0.76793 0.79378 0.78976 0.0
H232 H 0.84605 0.78019 0.77088 0.0
H233 H 0.79718 0.83351 0.74817 0.0
O234 O 0.73412 0.76378 0.78536 0.0
O235 O 0.73535 0.76161 0.71608 0.0
O236 O 0.76848 0.79219 0.72016 0.0
C237 C 0.74581 0.78283 0.70665 0.0
H238 H 0.6609 0.69537 0.74353 0.0
H239 H 0.87632 0.82384 0.76771 0.0
Co240 Co 0.04026 0.95848 0.50792 0.0
Co241 Co 0.0519 0.98471 0.56302 0.0
Co242 Co 0.01454 0.01157 0.50976 0.0
O243 O 0.0447 0.99323 0.51879 0.0
H244 H 0.06063 1.00198 0.51004 0.0
O245 O 0.9845 0.03023 0.50115 0.0
Co246 Co 0.99046 0.06572 0.50668 0.0
Co247 Co 0.976 0.03492 0.45572 0.0
H248 H 0.96893 0.02277 0.51205 0.0
O249 O 0.08581 0.98143 0.57811 0.0
O250 O 0.05403 0.9511 0.55522 0.0
O251 O 0.02536 0.98955 0.59416 0.0
O252 O 0.99802 1.00351 0.55511 0.0
O253 O 0.0365 0.04154 0.53183 0.0
O254 O 0.99347 0.09818 0.51452 0.0
O255 O 0.95916 0.06824 0.52314 0.0
O256 O 0.02546 0.06731 0.49294 0.0
O257 O 0.0311 0.01963 0.46438 0.0
O258 O 1.00052 0.02603 0.42382 0.0
O259 O 0.97626 0.06933 0.45812 0.0
O260 O 0.9423 0.03906 0.44151 0.0
C261 C 0.06157 0.93609 0.48333 0.0
C262 C 0.98823 0.96038 0.50061 0.0
C263 C 1.00344 0.99643 0.58551 0.0
C264 C 0.07767 0.95801 0.56991 0.0
C265 C 0.97066 0.09137 0.52701 0.0
C266 C 0.04121 0.06225 0.51729 0.0
C267 C 0.0238 0.02265 0.43289 0.0
C268 C 0.95194 0.0626 0.44554 0.0
O269 O 0.0389 0.92682 0.49455 0.0
O270 O 0.07183 0.95915 0.49127 0.0
O271 O 0.99233 0.98164 0.48742 0.0
O272 O 1.00524 0.95397 0.52218 0.0
Co273 Co 0.54781 0.96288 0.97625 0.0
Co274 Co 0.54934 0.97412 0.04269 0.0
Co275 Co 0.51467 1.01009 1.00289 0.0
O276 O 0.54689 0.99325 0.00392 0.0
H277 H 0.56288 1.00504 1.00284 0.0
O278 O 0.48217 0.02636 1.00225 0.0
Co279 Co 0.4793 0.05638 0.02941 0.0
Co280 Co 0.48033 0.0455 0.96401 0.0
H281 H 0.46632 0.01426 1.00235 0.0
O282 O 0.5821 0.96785 0.059 0.0
O283 O 0.55421 0.94538 0.01883 0.0
O284 O 0.51853 0.96607 0.06849 0.0
O285 O 0.49236 0.98445 0.03329 0.0
O286 O 0.52989 0.03139 0.0441 0.0
O287 O 0.47446 0.08337 0.05411 0.0
O288 O 0.44363 0.05084 0.03689 0.0
O289 O 0.51623 0.0663 0.02705 0.0
O290 O 0.5373 0.03572 0.9726 0.0
O291 O 0.51125 0.05613 0.94044 0.0
O292 O 0.4708 0.0727 0.98605 0.0
O293 O 0.4479 0.04642 0.9444 0.0
C294 C 0.57612 0.94565 0.95206 0.0
C295 C 0.49502 0.9657 0.96213 0.0
C296 C 0.49563 0.96981 0.05832 0.0
C297 C 0.57652 0.94884 0.03719 0.0
C298 C 0.44994 0.07287 0.05268 0.0
C299 C 0.53306 0.05517 0.0433 0.0
C300 C 0.53411 0.05176 0.94937 0.0
C301 C 0.44937 0.06533 0.96631 0.0
O302 O 0.55137 0.93583 0.95072 0.0
O303 O 0.58337 0.96716 0.96889 0.0
O304 O 0.49925 0.98937 0.96119 0.0
O305 O 0.5109 0.95406 0.97893 0.0
Co306 Co 0.04717 0.46338 0.98404 0.0
Co307 Co 0.06003 0.4861 0.043 0.0
Co308 Co 0.01406 0.51272 0.00574 0.0
O309 O 0.04709 0.49705 1.00171 0.0
H310 H 0.06087 0.50849 0.99222 0.0
O311 O 0.98109 0.52843 0.00989 0.0
Co312 Co 0.98091 0.56248 0.02633 0.0
Co313 Co 0.96803 0.53839 0.96784 0.0
H314 H 0.9674 0.51716 0.01982 0.0
O315 O 0.09494 0.48173 0.0515 0.0
O316 O 0.06137 0.45286 0.02989 0.0
O317 O 0.03736 0.48638 0.08051 0.0
O318 O 1.00269 0.49437 0.04796 0.0
O319 O 0.03539 0.54055 0.03493 0.0
O320 O 0.97763 0.59282 0.04347 0.0
O321 O 0.94771 0.5579 0.04168 0.0
O322 O 0.01659 0.57173 0.01417 0.0
O323 O 0.0255 0.53112 0.96357 0.0
O324 O 0.99074 0.53791 0.93032 0.0
O325 O 0.96687 0.57179 0.97988 0.0
O326 O 0.93313 0.54284 0.9591 0.0
C327 C 0.07329 0.445 0.95831 0.0
C328 C 0.9921 0.46172 0.98126 0.0
C329 C 1.01285 0.48715 0.07597 0.0
C330 C 0.08557 0.45857 0.04329 0.0
C331 C 0.95442 0.58157 0.05047 0.0
C332 C 0.0361 0.56373 0.02951 0.0
C333 C 0.01534 0.5379 0.9353 0.0
C334 C 0.94262 0.56605 0.96678 0.0
O335 O 0.05012 0.43354 0.96511 0.0
O336 O 0.0803 0.46832 0.96875 0.0
O337 O 0.99259 0.48495 0.9764 0.0
O338 O 1.01171 0.4538 0.99638 0.0
Co339 Co 0.55234 0.4642 0.01334 0.0
Co340 Co 0.55124 0.49116 0.0688 0.0
Co341 Co 0.51578 0.51121 0.00628 0.0
O342 O 0.54799 0.49791 0.02266 0.0
H343 H 0.56353 0.50922 0.01741 0.0
O344 O 0.48334 0.52414 0.98991 0.0
Co345 Co 0.47764 0.55723 0.99962 0.0
Co346 Co 0.47991 0.53095 0.94393 0.0
H347 H 0.46801 0.51242 0.9948 0.0
O348 O 0.58362 0.48906 0.0924 0.0
O349 O 0.55631 0.45807 0.06355 0.0
O350 O 0.52028 0.49349 0.09282 0.0
O351 O 0.49427 0.49865 0.04624 0.0
O352 O 0.52971 0.54239 0.03363 0.0
O353 O 0.46834 0.5866 0.00986 0.0
O354 O 0.44287 0.54895 1.00165 0.0
O355 O 0.51424 0.56992 1.00027 0.0
O356 O 0.53722 0.52373 0.96627 0.0
O357 O 0.511 0.52916 0.91999 0.0
O358 O 0.47389 0.56368 0.9495 0.0
O359 O 0.4474 0.53236 0.92017 0.0
C360 C 0.58373 0.44758 1.00264 0.0
C361 C 0.49979 0.45826 0.98895 0.0
C362 C 0.49771 0.49468 0.07846 0.0
C363 C 0.57743 0.46552 0.08358 0.0
C364 C 0.44539 0.57263 0.0101 0.0
C365 C 0.53118 0.56432 0.02263 0.0
C366 C 0.53361 0.52779 0.93411 0.0
C367 C 0.45301 0.5559 0.92921 0.0
O368 O 0.56044 0.43431 1.00336 0.0
O369 O 0.58714 0.47134 0.01082 0.0
O370 O 0.50208 0.48034 0.97854 0.0
O371 O 0.51529 0.45254 0.01307 0.0
Co372 Co 0.05552 0.46583 0.50882 0.0
Co373 Co 0.05072 0.48295 0.44987 0.0
Co374 Co 0.0142 0.51014 0.503 0.0
O375 O 0.02787 0.47966 0.48478 0.0
H376 H 0.01327 0.46672 0.47786 0.0
O377 O 1.00049 0.54067 0.52113 0.0
Co378 Co 0.97101 0.5518 0.49767 0.0
Co379 Co 0.97924 0.53772 0.55794 0.0
H380 H 0.01478 0.55431 0.52596 0.0
O381 O 0.05186 0.4568 0.41796 0.0
O382 O 0.07727 0.46634 0.46716 0.0
O383 O 0.06426 0.51653 0.44093 0.0
O384 O 0.03972 0.53587 0.47604 0.0
O385 O 0.98777 0.50524 0.46287 0.0
O386 O 0.94598 0.5645 0.4755 0.0
O387 O 0.98287 0.58494 0.50401 0.0
O388 O 0.95475 0.51863 0.48804 0.0
O389 O 0.98878 0.48452 0.53014 0.0
O390 O 0.96671 0.50409 0.5683 0.0
O391 O 0.95112 0.5525 0.54074 0.0
O392 O 0.97749 0.5649 0.58827 0.0
C393 C 0.06295 0.43084 0.51773 0.0
C394 C 0.06484 0.51473 0.54102 0.0
C395 C 0.05799 0.53644 0.45397 0.0
C396 C 0.07169 0.45297 0.43827 0.0
C397 C 0.96092 0.58525 0.48557 0.0
C398 C 0.96327 0.50338 0.46757 0.0
C399 C 0.9718 0.48412 0.55389 0.0
C400 C 0.95692 0.56722 0.56833 0.0
O401 O 0.07863 0.4503 0.531 0.0
O402 O 0.04206 0.43353 0.49844 0.0
O403 O 0.04028 0.51494 0.54321 0.0
O404 O 0.07329 0.49807 0.52279 0.0
Co405 Co 0.56639 0.97715 0.52178 0.0
Co406 Co 0.54862 0.9806 0.46209 0.0
Co407 Co 0.51189 0.01092 0.50671 0.0
O408 O 0.53122 0.98088 0.50166 0.0
H409 H 0.51921 0.96543 0.50254 0.0
O410 O 0.49263 0.04097 0.51181 0.0
Co411 Co 0.45704 0.04391 0.49305 0.0
Co412 Co 0.47698 0.04267 0.55294 0.0
H413 H 0.50442 0.0563 0.509 0.0
O414 O 0.54753 0.95114 0.43796 0.0
O415 O 0.58033 0.9709 0.47504 0.0
O416 O 0.55104 0.01078 0.43809 0.0
O417 O 0.51321 0.01989 0.45666 0.0
O418 O 0.47864 0.98707 0.49565 0.0
O419 O 0.42607 0.04907 0.47444 0.0
O420 O 0.46268 0.07733 0.48385 0.0
O421 O 0.44557 1.00937 0.4984 0.0
O422 O 0.51019 1.00223 0.5568 0.0
O423 O 0.47268 0.01179 0.57527 0.0
O424 O 0.44486 0.0521 0.54009 0.0
O425 O 0.47788 0.07269 0.57603 0.0
C426 C 0.58502 0.94847 0.54114 0.0
C427 C 0.56968 0.03282 0.51996 0.0
C428 C 0.53265 0.02397 0.43729 0.0
C429 C 0.57149 0.95308 0.45167 0.0
C430 C 0.43798 0.07178 0.47216 0.0
C431 C 0.45414 0.98858 0.49633 0.0
C432 C 0.48961 0.99706 0.57393 0.0
C433 C 0.45394 0.07064 0.56222 0.0
O434 O 0.59683 0.97138 0.5413 0.0
O435 O 0.5606 0.94327 0.5282 0.0
O436 O 0.54522 0.03479 0.51778 0.0
O437 O 0.57783 0.01182 0.51945 0.0
C438 C 0.15317 0.14344 0.23552 0.0
C439 C 0.17443 0.1575 0.25506 0.0
C440 C 0.14027 0.12126 0.24769 0.0
C441 C 0.14173 0.07549 0.31732 0.0
H442 H 0.06623 0.07586 0.31102 0.0
C443 C 0.07066 0.03398 0.41751 0.0
C444 C 0.04396 0.02629 0.40698 0.0
C445 C 0.08877 0.04284 0.3935 0.0
C446 C 0.08717 0.07492 0.31242 0.0
H447 H 0.2 0.15867 0.30153 0.0
H448 H 0.17706 0.12024 0.32341 0.0
H449 H 0.09446 0.10475 0.27832 0.0
H450 H 0.01596 0.01906 0.36259 0.0
H451 H 0.04768 0.03383 0.32062 0.0
H452 H 0.1342 0.04623 0.35289 0.0
C453 C 0.17059 0.12603 0.29835 0.0
C454 C 0.10346 0.0916 0.29357 0.0
C455 C 0.18372 0.14811 0.2859 0.0
C456 C 0.0363 0.02531 0.37158 0.0
C457 C 0.05446 0.03387 0.34755 0.0
C458 C 0.12534 0.05871 0.3363 0.0
C459 C 0.1481 0.11285 0.27997 0.0
C460 C 0.13098 0.09251 0.29633 0.0
C461 C 0.08057 0.04392 0.35846 0.0
C462 C 0.0979 0.05864 0.33463 0.0
H463 H 0.14599 0.1501 0.21135 0.0
H464 H 0.12343 0.11124 0.23248 0.0
H465 H 0.16283 0.07552 0.31971 0.0
H466 H 0.07721 0.03491 0.44462 0.0
H467 H 0.10868 0.05051 0.40287 0.0
C468 C 0.82657 0.20841 0.29854 0.0
C469 C 0.80416 0.21456 0.31415 0.0
C470 C 0.84279 0.19322 0.3149 0.0
C471 C 0.84337 0.14659 0.38285 0.0
H472 H 0.91904 0.15922 0.37429 0.0
C473 C 0.91001 0.07351 0.41814 0.0
C474 C 0.93548 0.08143 0.43357 0.0
C475 C 0.89441 0.09072 0.40595 0.0
C476 C 0.89799 0.15554 0.37731 0.0
H477 H 0.78138 0.20945 0.3595 0.0
H478 H 0.80975 0.18313 0.38818 0.0
H479 H 0.89129 0.18745 0.34905 0.0
H480 H 0.96423 0.11399 0.44866 0.0
H481 H 0.93683 0.14418 0.42756 0.0
H482 H 0.85006 0.11489 0.41146 0.0
C483 C 0.81464 0.18982 0.36301 0.0
C484 C 0.88198 0.17159 0.36239 0.0
C485 C 0.79839 0.20503 0.3466 0.0
C486 C 0.9448 0.10718 0.43678 0.0
C487 C 0.9291 0.1245 0.42451 0.0
C488 C 0.85936 0.13057 0.39775 0.0
C489 C 0.83713 0.18371 0.34742 0.0
C490 C 0.85438 0.16722 0.36463 0.0
C491 C 0.90367 0.11648 0.40884 0.0
C492 C 0.88689 0.13461 0.39486 0.0
H493 H 0.83166 0.21533 0.27353 0.0
H494 H 0.8596 0.18863 0.30173 0.0
H495 H 0.82225 0.14242 0.38497 0.0
H496 H 0.90209 0.05386 0.41507 0.0
H497 H 0.87519 0.08372 0.39355 0.0
C498 C 0.83175 0.82962 0.304 0.0
C499 C 0.82369 0.80455 0.31126 0.0
C500 C 0.84924 0.84512 0.32704 0.0
C501 C 0.90028 0.84673 0.39637 0.0
H502 H 0.87793 0.90912 0.42455 0.0
C503 C 0.96362 0.91661 0.49451 0.0
C504 C 0.96624 0.9417 0.48558 0.0
C505 C 0.94459 0.89869 0.47698 0.0
C506 C 0.8846 0.89188 0.41676 0.0
H507 H 0.82861 0.77573 0.3474 0.0
H508 H 0.85972 0.80285 0.38731 0.0
H509 H 0.84959 0.88007 0.38431 0.0
H510 H 0.95016 0.96779 0.45232 0.0
H511 H 0.91772 0.93674 0.42151 0.0
H512 H 0.93576 0.85889 0.42772 0.0
C513 C 0.85224 0.81045 0.36397 0.0
C514 C 0.86834 0.87527 0.39375 0.0
C515 C 0.83443 0.795 0.34118 0.0
C516 C 0.94877 0.94863 0.45984 0.0
C517 C 0.92994 0.93078 0.44228 0.0
C518 C 0.91676 0.86353 0.41908 0.0
C519 C 0.85928 0.83577 0.35748 0.0
C520 C 0.8762 0.85273 0.38297 0.0
C521 C 0.92787 0.90553 0.4502 0.0
C522 C 0.90928 0.88649 0.42911 0.0
H523 H 0.82379 0.83752 0.28119 0.0
H524 H 0.85467 0.86455 0.3213 0.0
H525 H 0.90674 0.82943 0.38837 0.0
H526 H 0.97671 0.91069 0.51432 0.0
H527 H 0.94323 0.87945 0.48408 0.0
C528 C 0.15153 0.84172 0.24033 0.0
C529 C 0.16136 0.8207 0.25266 0.0
C530 C 0.1316 0.85113 0.25709 0.0
C531 C 0.08709 0.84618 0.32778 0.0
H532 H 0.13439 0.90406 0.367 0.0
C533 C 0.06744 0.89533 0.45572 0.0
C534 C 0.07395 0.92139 0.45833 0.0
C535 C 0.07541 0.88186 0.42793 0.0
C536 C 0.12054 0.88839 0.356 0.0
H537 H 0.15464 0.79032 0.28764 0.0
H538 H 0.11981 0.80675 0.31672 0.0
H539 H 0.14635 0.88188 0.3166 0.0
H540 H 0.09411 0.95386 0.43455 0.0
H541 H 0.10706 0.93074 0.38562 0.0
H542 H 0.06106 0.85289 0.36711 0.0
C543 C 0.12768 0.81609 0.29444 0.0
C544 C 0.12742 0.8757 0.32703 0.0
C545 C 0.14776 0.80675 0.2778 0.0
C546 C 0.08923 0.93372 0.43347 0.0
C547 C 0.09664 0.92038 0.40534 0.0
C548 C 0.07981 0.85932 0.35646 0.0
C549 C 0.12117 0.8394 0.28605 0.0
C550 C 0.11091 0.85441 0.31288 0.0
C551 C 0.08953 0.89432 0.40193 0.0
C552 C 0.09667 0.88042 0.37113 0.0
H553 H 0.16117 0.85236 0.22025 0.0
H554 H 0.12656 0.86904 0.25004 0.0
H555 H 0.07434 0.82953 0.31748 0.0
H556 H 0.05565 0.88543 0.47468 0.0
H557 H 0.07018 0.86176 0.42662 0.0
C558 C 0.20123 0.80799 0.70876 0.0
C559 C 0.22392 0.80226 0.69343 0.0
C560 C 0.18536 0.82367 0.69284 0.0
C561 C 0.18641 0.87277 0.6285 0.0
H562 H 0.11039 0.85933 0.63315 0.0
C563 C 0.11957 0.94678 0.59718 0.0
C564 C 0.09461 0.93913 0.58016 0.0
C565 C 0.13528 0.92929 0.60825 0.0
C566 C 0.13155 0.86327 0.63125 0.0
H567 H 0.24757 0.80864 0.64905 0.0
H568 H 0.21982 0.83591 0.62117 0.0
H569 H 0.13757 0.83018 0.65715 0.0
H570 H 0.06696 0.90682 0.56077 0.0
H571 H 0.09447 0.87624 0.57999 0.0
H572 H 0.18038 0.90577 0.6024 0.0
C573 C 0.21442 0.82842 0.64574 0.0
C574 C 0.14721 0.84667 0.64543 0.0
C575 C 0.23029 0.81266 0.66166 0.0
C576 C 0.08598 0.91343 0.57398 0.0
C577 C 0.10173 0.89587 0.58517 0.0
C578 C 0.17075 0.8894 0.6144 0.0
C579 C 0.1917 0.83416 0.66111 0.0
C580 C 0.1749 0.85129 0.64456 0.0
C581 C 0.12656 0.90357 0.60265 0.0
C582 C 0.14311 0.88503 0.61586 0.0
H583 H 0.1957 0.80042 0.73325 0.0
H584 H 0.16831 0.82792 0.70578 0.0
H585 H 0.20762 0.87711 0.62752 0.0
H586 H 0.12695 0.96638 0.60245 0.0
H587 H 0.15406 0.936 0.622 0.0
C588 C 0.19308 0.19806 0.71564 0.0
C589 C 0.20228 0.22238 0.70609 0.0
C590 C 0.17365 0.18272 0.69491 0.0
C591 C 0.1452 0.17522 0.60484 0.0
H592 H 0.09391 0.12579 0.64389 0.0
C593 C 0.06309 0.107 0.52493 0.0
C594 C 0.06102 0.08207 0.53453 0.0
C595 C 0.07966 0.12585 0.54453 0.0
C596 C 0.10817 0.13951 0.63267 0.0
H597 H 0.19742 0.2502 0.66836 0.0
H598 H 0.16305 0.2237 0.6328 0.0
H599 H 0.12258 0.15607 0.68215 0.0
H600 H 0.07589 0.05725 0.571 0.0
H601 H 0.10443 0.09 0.60493 0.0
H602 H 0.13054 0.15849 0.55528 0.0
C603 C 0.17133 0.21619 0.6557 0.0
C604 C 0.12466 0.15678 0.65455 0.0
C605 C 0.1909 0.23143 0.67623 0.0
C606 C 0.07671 0.07627 0.56308 0.0
C607 C 0.09298 0.09503 0.58269 0.0
C608 C 0.12849 0.15806 0.58291 0.0
C609 C 0.16284 0.19149 0.66439 0.0
C610 C 0.14373 0.17454 0.64097 0.0
C611 C 0.0942 0.12002 0.57409 0.0
C612 C 0.11023 0.13973 0.59671 0.0
H613 H 0.20159 0.19054 0.73839 0.0
H614 H 0.16784 0.1637 0.70218 0.0
H615 H 0.15989 0.18844 0.5935 0.0
H616 H 0.05133 0.11205 0.50302 0.0
H617 H 0.0804 0.14503 0.53734 0.0
C618 C 0.88152 0.18208 0.75663 0.0
C619 C 0.87149 0.20449 0.75204 0.0
C620 C 0.9029 0.17694 0.73856 0.0
C621 C 0.92514 0.19294 0.65384 0.0
H622 H 0.96342 0.13766 0.66942 0.0
C623 C 0.969 0.13496 0.54773 0.0
C624 C 0.95979 0.1093 0.5491 0.0
C625 C 0.9637 0.15151 0.57383 0.0
C626 C 0.95302 0.1533 0.66487 0.0
H627 H 0.87952 0.24107 0.73022 0.0
H628 H 0.91733 0.23243 0.70003 0.0
H629 H 0.95026 0.16097 0.71885 0.0
H630 H 0.93672 0.08094 0.57756 0.0
H631 H 0.9276 0.10992 0.62326 0.0
H632 H 0.9275 0.18474 0.59977 0.0
C633 C 0.90776 0.21828 0.71612 0.0
C634 C 0.94551 0.16663 0.69306 0.0
C635 C 0.88608 0.22329 0.73376 0.0
C636 C 0.94391 0.10064 0.57578 0.0
C637 C 0.93904 0.1171 0.60214 0.0
C638 C 0.93308 0.17987 0.62571 0.0
C639 C 0.91498 0.19435 0.71606 0.0
C640 C 0.93018 0.18569 0.68781 0.0
C641 C 0.94956 0.14248 0.60182 0.0
C642 C 0.94587 0.15923 0.6311 0.0
H643 H 0.87146 0.16762 0.77176 0.0
H644 H 0.90802 0.15835 0.73963 0.0
H645 H 0.91314 0.2073 0.64862 0.0
H646 H 0.98127 0.14208 0.52734 0.0
H647 H 0.97167 0.17111 0.57301 0.0
C648 C 0.83356 0.87544 0.72565 0.0
C649 C 0.84819 0.86328 0.74954 0.0
C650 C 0.84423 0.89859 0.71369 0.0
C651 C 0.88144 0.93166 0.67116 0.0
H652 H 0.93408 0.97972 0.72266 0.0
C653 C 0.98736 0.9854 0.64364 0.0
C654 C 0.98228 0.99339 0.61019 0.0
C655 C 0.96664 0.97807 0.66471 0.0
C656 C 0.91926 0.96659 0.70797 0.0
H657 H 0.8843 0.867 0.78216 0.0
H658 H 0.90325 0.90677 0.76063 0.0
H659 H 0.90376 0.95055 0.75367 0.0
H660 H 0.95161 1.00217 0.57394 0.0
H661 H 0.91548 0.98931 0.61081 0.0
H662 H 0.89767 0.94673 0.62553 0.0
C663 C 0.88348 0.89867 0.75118 0.0
C664 C 0.90194 0.94987 0.72569 0.0
C665 C 0.87279 0.87563 0.76318 0.0
C666 C 0.95623 0.99583 0.5994 0.0
C667 C 0.93549 0.98842 0.62047 0.0
C668 C 0.89864 0.94842 0.6535 0.0
C669 C 0.86975 0.91 0.72534 0.0
C670 C 0.88362 0.93148 0.70744 0.0
C671 C 0.9404 0.97856 0.65279 0.0
C672 C 0.91848 0.96533 0.67167 0.0
H673 H 0.81453 0.86651 0.71463 0.0
H674 H 0.83297 0.90701 0.69418 0.0
H675 H 0.86782 0.91762 0.65618 0.0
H676 H 1.0072 0.98352 0.65294 0.0
H677 H 0.97111 0.9704 0.68935 0.0
C678 C 0.28398 0.19359 0.17096 0.0
C679 C 0.296 0.21722 0.18458 0.0
C680 C 0.29862 0.17754 0.15382 0.0
C681 C 0.36314 0.17617 0.11289 0.0
H682 H 0.3485 0.10516 0.12687 0.0
C683 C 0.43848 0.11097 0.08312 0.0
C684 C 0.42991 0.08731 0.06682 0.0
C685 C 0.42051 0.12585 0.09482 0.0
C686 C 0.35265 0.12489 0.12228 0.0
H687 H 0.33311 0.24235 0.19039 0.0
H688 H 0.3586 0.21449 0.16111 0.0
H689 H 0.32077 0.13306 0.15208 0.0
H690 H 0.39515 0.06092 0.05032 0.0
H691 H 0.36349 0.08697 0.07136 0.0
H692 H 0.39537 0.16806 0.08381 0.0
C693 C 0.33769 0.20838 0.16301 0.0
C694 C 0.33669 0.14099 0.13676 0.0
C695 C 0.32303 0.22445 0.18002 0.0
C696 C 0.40255 0.07888 0.063 0.0
C697 C 0.3844 0.09385 0.07505 0.0
C698 C 0.37913 0.16012 0.09864 0.0
C699 C 0.32582 0.18453 0.14982 0.0
C700 C 0.34189 0.167 0.13273 0.0
C701 C 0.39319 0.1177 0.09086 0.0
C702 C 0.37443 0.13428 0.10354 0.0
H703 H 0.26322 0.18727 0.17393 0.0
H704 H 0.28852 0.15959 0.14369 0.0
H705 H 0.36754 0.19587 0.10828 0.0
H706 H 0.4593 0.11828 0.08669 0.0
H707 H 0.42816 0.14382 0.10735 0.0
C708 C 0.85285 0.33367 0.2024 0.0
C709 C 0.8494 0.31237 0.17992 0.0
C710 C 0.8713 0.35433 0.19636 0.0
C711 C 0.93148 0.37387 0.15168 0.0
H712 H 0.91073 0.43959 0.15928 0.0
C713 C 1.00452 0.46014 0.12634 0.0
C714 C 0.99486 0.47461 0.1006 0.0
C715 C 0.98716 0.44309 0.14338 0.0
C716 C 0.91682 0.42137 0.15728 0.0
H717 H 0.86287 0.29594 0.1338 0.0
H718 H 0.89536 0.33234 0.12304 0.0
H719 H 0.87945 0.40292 0.17165 0.0
H720 H 0.95933 0.48466 0.07555 0.0
H721 H 0.92918 0.4549 0.10517 0.0
H722 H 0.9685 0.39218 0.13615 0.0
C723 C 0.88375 0.33284 0.14548 0.0
C724 C 0.899 0.40041 0.16447 0.0
C725 C 0.86517 0.31207 0.15153 0.0
C726 C 0.96745 0.47358 0.09493 0.0
C727 C 0.95012 0.45658 0.11204 0.0
C728 C 0.94932 0.39482 0.14463 0.0
C729 C 0.88685 0.3542 0.16779 0.0
C730 C 0.90606 0.37644 0.16129 0.0
C731 C 0.95989 0.44036 0.13515 0.0
C732 C 0.94205 0.41874 0.14693 0.0
H733 H 0.84162 0.33432 0.22511 0.0
H734 H 0.87364 0.37033 0.21437 0.0
H735 H 0.93753 0.35564 0.14944 0.0
H736 H 0.02552 0.46065 0.13165 0.0
H737 H 0.99515 0.43113 0.16165 0.0
C738 C 0.7162 0.83079 0.13382 0.0
C739 C 0.74174 0.82687 0.12634 0.0
C740 C 0.69951 0.83882 0.10868 0.0
C741 C 0.66321 0.84408 0.04761 0.0
H742 H 0.68752 0.90891 0.01243 0.0
C743 C 0.58908 0.90874 0.01449 0.0
C744 C 0.59623 0.93217 0.03173 0.0
C745 C 0.60797 0.89312 0.00952 0.0
C746 C 0.68047 0.89063 0.02161 0.0
H747 H 0.76987 0.82875 0.08635 0.0
H748 H 0.74064 0.84386 0.04237 0.0
H749 H 0.71958 0.88426 0.03656 0.0
H750 H 0.62886 0.95804 0.05607 0.0
H751 H 0.66139 0.93058 0.04898 0.0
H752 H 0.62413 0.85133 0.03628 0.0
C753 C 0.73362 0.84011 0.06778 0.0
C754 C 0.69885 0.87642 0.03507 0.0
C755 C 0.75037 0.83171 0.09304 0.0
C756 C 0.62268 0.93997 0.04306 0.0
C757 C 0.64147 0.92437 0.03829 0.0
C758 C 0.64487 0.85831 0.03448 0.0
C759 C 0.70793 0.84345 0.07538 0.0
C760 C 0.69019 0.85386 0.05042 0.0
C761 C 0.63429 0.90056 0.02207 0.0
C762 C 0.65327 0.88251 0.0237 0.0
H763 H 0.70907 0.82804 0.15934 0.0
H764 H 0.68015 0.84209 0.11569 0.0
H765 H 0.65612 0.82643 0.05864 0.0
H766 H 0.56885 0.90235 0.00514 0.0
H767 H 0.60184 0.87499 0.99667 0.0
C768 C 0.22726 0.69784 0.17708 0.0
C769 C 0.22434 0.72314 0.18035 0.0
C770 C 0.20889 0.68091 0.15667 0.0
C771 C 0.13932 0.674 0.12164 0.0
H772 H 0.1564 0.61592 0.07194 0.0
C773 C 0.05986 0.60766 0.03903 0.0
C774 C 0.0596 0.5819 0.04235 0.0
C775 C 0.08118 0.6249 0.05293 0.0
C776 C 0.1513 0.63197 0.0859 0.0
H777 H 0.20078 0.75075 0.16284 0.0
H778 H 0.16942 0.72156 0.12653 0.0
H779 H 0.19182 0.64621 0.10031 0.0
H780 H 0.08216 0.55417 0.06212 0.0
H781 H 0.11931 0.58431 0.08647 0.0
H782 H 0.09889 0.6598 0.10743 0.0
C783 C 0.18535 0.71453 0.14055 0.0
C784 C 0.17162 0.64936 0.1022 0.0
C785 C 0.20354 0.73136 0.16114 0.0
C786 C 0.08161 0.57384 0.05912 0.0
C787 C 0.10301 0.59113 0.07294 0.0
C788 C 0.1191 0.65674 0.10525 0.0
C789 C 0.18725 0.68892 0.13886 0.0
C790 C 0.16591 0.67062 0.12036 0.0
C791 C 0.1029 0.61691 0.07046 0.0
C792 C 0.12476 0.63546 0.08721 0.0
H793 H 0.24296 0.69083 0.19169 0.0
H794 H 0.211 0.66136 0.15622 0.0
H795 H 0.13398 0.68974 0.13603 0.0
H796 H 0.04337 0.61461 0.02614 0.0
H797 H 0.08059 0.64458 0.05004 0.0
C798 C 0.33133 0.83151 0.77552 0.0
C799 C 0.31317 0.81494 0.79263 0.0
C800 C 0.34839 0.85039 0.79424 0.0
C801 C 0.38542 0.86149 0.874 0.0
H802 H 0.38896 0.93259 0.86295 0.0
C803 C 0.45832 0.93015 0.95992 0.0
C804 C 0.47093 0.95151 0.94495 0.0
C805 C 0.43664 0.91544 0.94264 0.0
C806 C 0.38851 0.9128 0.86604 0.0
H807 H 0.29826 0.80533 0.84251 0.0
H808 H 0.32876 0.83781 0.87521 0.0
H809 H 0.35583 0.90332 0.82855 0.0
H810 H 0.47063 0.97482 0.90083 0.0
H811 H 0.4337 0.94834 0.86945 0.0
H812 H 0.4187 0.87031 0.90978 0.0
C813 C 0.3294 0.83637 0.84735 0.0
C814 C 0.36945 0.89614 0.8465 0.0
C815 C 0.31201 0.81787 0.82863 0.0
C816 C 0.46111 0.95839 0.91285 0.0
C817 C 0.43984 0.94327 0.89503 0.0
C818 C 0.4048 0.87801 0.89292 0.0
C819 C 0.34783 0.85258 0.83032 0.0
C820 C 0.36775 0.87042 0.85057 0.0
C821 C 0.42761 0.92133 0.90945 0.0
C822 C 0.40654 0.90393 0.88942 0.0
H823 H 0.33254 0.82972 0.74776 0.0
H824 H 0.36264 0.86268 0.78075 0.0
H825 H 0.38457 0.84163 0.87714 0.0
H826 H 0.4653 0.92476 0.98501 0.0
H827 H 0.42724 0.89924 0.95519 0.0
C828 C 0.21578 0.30798 0.8329 0.0
C829 C 0.22155 0.31084 0.79807 0.0
C830 C 0.20103 0.32401 0.84952 0.0
C831 C 0.15155 0.36516 0.83315 0.0
H832 H 0.17296 0.39195 0.92613 0.0
C833 C 0.08142 0.40873 0.92082 0.0
C834 C 0.0914 0.43123 0.9393 0.0
C835 C 0.09811 0.39549 0.90277 0.0
C836 C 0.16681 0.38477 0.90009 0.0
H837 H 0.21607 0.33282 0.75339 0.0
H838 H 0.18985 0.36058 0.78232 0.0
H839 H 0.20068 0.36627 0.89611 0.0
H840 H 0.12693 0.45725 0.95362 0.0
H841 H 0.15628 0.4338 0.92248 0.0
H842 H 0.11747 0.38329 0.83734 0.0
C843 C 0.19691 0.34594 0.79676 0.0
C844 C 0.18257 0.36988 0.883 0.0
C845 C 0.21202 0.33009 0.78023 0.0
C846 C 0.1186 0.44006 0.9395 0.0
C847 C 0.13542 0.42656 0.92183 0.0
C848 C 0.13561 0.37975 0.85043 0.0
C849 C 0.19132 0.34315 0.83167 0.0
C850 C 0.17508 0.35979 0.84937 0.0
C851 C 0.12533 0.40417 0.90309 0.0
C852 C 0.14296 0.38963 0.88418 0.0
H853 H 0.2228 0.29339 0.84749 0.0
H854 H 0.19684 0.32115 0.87629 0.0
H855 H 0.14511 0.35757 0.80738 0.0
H856 H 0.06059 0.40135 0.92007 0.0
H857 H 0.08974 0.37818 0.88897 0.0
C858 C 0.68997 0.21186 0.80848 0.0
C859 C 0.71689 0.20929 0.80823 0.0
C860 C 0.67162 0.19433 0.82425 0.0
C861 C 0.66492 0.14329 0.8883 0.0
H862 H 0.59639 0.12379 0.84064 0.0
C863 C 0.58388 0.06568 0.94081 0.0
C864 C 0.55706 0.0677 0.93351 0.0
C865 C 0.60437 0.08186 0.926 0.0
C866 C 0.61514 0.12915 0.85502 0.0
H867 H 0.7452 0.18584 0.82549 0.0
H868 H 0.71348 0.15574 0.85342 0.0
H869 H 0.62891 0.15411 0.81585 0.0
H870 H 0.53164 0.08941 0.90488 0.0
H871 H 0.56623 0.11715 0.88083 0.0
H872 H 0.6509 0.11863 0.92789 0.0
C873 C 0.70647 0.17136 0.84129 0.0
C874 C 0.63407 0.14672 0.84045 0.0
C875 C 0.72478 0.18871 0.82506 0.0
C876 C 0.55175 0.0866 0.91116 0.0
C877 C 0.57196 0.10271 0.89681 0.0
C878 C 0.64578 0.12587 0.9032 0.0
C879 C 0.67941 0.17361 0.84086 0.0
C880 C 0.65932 0.15434 0.8568 0.0
C881 C 0.59881 0.10076 0.9035 0.0
C882 C 0.62027 0.11855 0.88707 0.0
H883 H 0.68288 0.22727 0.79588 0.0
H884 H 0.65118 0.19715 0.82352 0.0
H885 H 0.68398 0.14856 0.90201 0.0
H886 H 0.58909 0.05165 0.95797 0.0
H887 H 0.62458 0.07932 0.93203 0.0
C888 C 0.79409 0.69821 0.83369 0.0
C889 C 0.80492 0.72282 0.82683 0.0
C890 C 0.80877 0.68303 0.85289 0.0
C891 C 0.87826 0.6767 0.88051 0.0
H892 H 0.8442 0.62636 0.93858 0.0
C893 C 0.93758 0.61123 0.95842 0.0
C894 C 0.92654 0.58583 0.95714 0.0
C895 C 0.92287 0.62933 0.94613 0.0
C896 C 0.85406 0.64021 0.92232 0.0
H897 H 0.83967 0.75083 0.83586 0.0
H898 H 0.86498 0.72465 0.86992 0.0
H899 H 0.81845 0.65522 0.91097 0.0
H900 H 0.89083 0.55989 0.94301 0.0
H901 H 0.86541 0.59118 0.92188 0.0
H902 H 0.91386 0.66155 0.89184 0.0
C903 C 0.84528 0.71684 0.85989 0.0
C904 C 0.83922 0.6568 0.90633 0.0
C905 C 0.83061 0.73201 0.84058 0.0
C906 C 0.90012 0.57921 0.9444 0.0
C907 C 0.8854 0.59725 0.93239 0.0
C908 C 0.89313 0.66017 0.89665 0.0
C909 C 0.83475 0.69196 0.86597 0.0
C910 C 0.85097 0.67515 0.88477 0.0
C911 C 0.89662 0.62256 0.93255 0.0
C912 C 0.88119 0.64144 0.91744 0.0
H913 H 0.77447 0.69035 0.82336 0.0
H914 H 0.79995 0.66396 0.85645 0.0
H915 H 0.88809 0.69022 0.86379 0.0
H916 H 0.95781 0.61709 0.96816 0.0
H917 H 0.93211 0.64865 0.94713 0.0
C918 C 0.23405 0.32231 0.17119 0.0
C919 C 0.22231 0.29791 0.17779 0.0
C920 C 0.21973 0.33853 0.15347 0.0
C921 C 0.15892 0.34162 0.09703 0.0
H922 H 0.16835 0.40984 0.13382 0.0
C923 C 0.09048 0.41347 0.05316 0.0
C924 C 0.1017 0.43878 0.05288 0.0
C925 C 0.10531 0.39554 0.06583 0.0
C926 C 0.16567 0.39101 0.12268 0.0
H927 H 0.18628 0.27139 0.16968 0.0
H928 H 0.16139 0.29961 0.1387 0.0
H929 H 0.19391 0.38036 0.1597 0.0
H930 H 0.13793 0.46461 0.06407 0.0
H931 H 0.16369 0.43362 0.08508 0.0
H932 H 0.1306 0.35239 0.05996 0.0
C933 C 0.18177 0.30619 0.14711 0.0
C934 C 0.18042 0.37398 0.13768 0.0
C935 C 0.19608 0.28996 0.16499 0.0
C936 C 0.12842 0.44541 0.06423 0.0
C937 C 0.14322 0.42755 0.07664 0.0
C938 C 0.1442 0.35874 0.08187 0.0
C939 C 0.1932 0.33092 0.14167 0.0
C940 C 0.17738 0.34901 0.1251 0.0
C941 C 0.13182 0.40238 0.07843 0.0
C942 C 0.14739 0.38378 0.09438 0.0
H943 H 0.25417 0.3292 0.18056 0.0
H944 H 0.22946 0.35722 0.14931 0.0
H945 H 0.15613 0.32265 0.08636 0.0
H946 H 0.06999 0.40762 0.04465 0.0
H947 H 0.09566 0.37644 0.06682 0.0
C948 C 0.1904 0.69258 0.85372 0.0
C949 C 0.18245 0.71481 0.84286 0.0
C950 C 0.17169 0.67211 0.86014 0.0
C951 C 0.10078 0.65363 0.87475 0.0
H952 H 0.11541 0.58773 0.84826 0.0
C953 C 0.02398 0.56795 0.88847 0.0
C954 C 0.03329 0.55119 0.91123 0.0
C955 C 0.0417 0.58569 0.87311 0.0
C956 C 0.11108 0.60606 0.85557 0.0
H957 H 0.14886 0.73334 0.83056 0.0
H958 H 0.11602 0.69751 0.84108 0.0
H959 H 0.14741 0.62442 0.83796 0.0
H960 H 0.06836 0.5379 0.93237 0.0
H961 H 0.09925 0.56871 0.90509 0.0
H962 H 0.0644 0.63521 0.89215 0.0
C963 C 0.13669 0.69594 0.84545 0.0
C964 C 0.12946 0.62705 0.85005 0.0
C965 C 0.15546 0.71652 0.83951 0.0
C966 C 0.06058 0.55073 0.91524 0.0
C967 C 0.07829 0.56831 0.89955 0.0
C968 C 0.08229 0.6327 0.8798 0.0
C969 C 0.14459 0.67335 0.85532 0.0
C970 C 0.12468 0.65107 0.86004 0.0
C971 C 0.06897 0.58671 0.87983 0.0
C972 C 0.0874 0.60873 0.87062 0.0
H973 H 0.21115 0.69096 0.85664 0.0
H974 H 0.17849 0.65525 0.86857 0.0
H975 H 0.09659 0.67175 0.88327 0.0
H976 H 1.00308 0.56875 0.88466 0.0
H977 H 0.0341 0.59952 0.85757 0.0
C978 C 0.26947 0.17984 0.9056 0.0
C979 C 0.27435 0.18441 0.87083 0.0
C980 C 0.28213 0.16268 0.92343 0.0
C981 C 0.32013 0.11096 0.91203 0.0
H982 H 0.36176 0.13977 0.99415 0.0
C983 C 0.40086 0.06153 0.9664 0.0
C984 C 0.42552 0.07677 0.97027 0.0
C985 C 0.37777 0.072 0.96521 0.0
C986 C 0.35009 0.13141 0.97145 0.0
H987 H 0.29496 0.17297 0.82698 0.0
H988 H 0.31642 0.1428 0.85774 0.0
H989 H 0.32787 0.16169 0.96804 0.0
H990 H 0.44564 0.11458 0.97949 0.0
H991 H 0.4051 0.1333 0.97552 0.0
H992 H 0.34323 0.0816 0.91373 0.0
C993 C 0.30291 0.15262 0.87128 0.0
C994 C 0.33054 0.1438 0.95672 0.0
C995 C 0.29051 0.16995 0.85357 0.0
C996 C 0.42676 0.10256 0.97589 0.0
C997 C 0.40355 0.11317 0.97398 0.0
C998 C 0.33955 0.09861 0.92669 0.0
C999 C 0.29951 0.14943 0.90663 0.0
C1000 C 0.31608 0.13407 0.92616 0.0
C1001 C 0.37892 0.098 0.96697 0.0
C1002 C 0.35534 0.10908 0.9559 0.0
H1003 H 0.2566 0.19018 0.91946 0.0
H1004 H 0.27891 0.16026 0.95055 0.0
H1005 H 0.30909 0.10298 0.88865 0.0
H1006 H 0.39943 0.04145 0.96318 0.0
H1007 H 0.35907 0.05979 0.96091 0.0
C1008 C 0.80314 0.32418 0.83269 0.0
C1009 C 0.80688 0.29908 0.82928 0.0
C1010 C 0.8213 0.34157 0.85272 0.0
C1011 C 0.89132 0.35052 0.88668 0.0
H1012 H 0.87267 0.40759 0.93712 0.0
C1013 C 0.96921 0.41761 0.9705 0.0
C1014 C 0.96893 0.44335 0.96779 0.0
C1015 C 0.94828 0.40015 0.95607 0.0
C1016 C 0.8782 0.39184 0.92293 0.0
H1017 H 0.83176 0.27235 0.84609 0.0
H1018 H 0.86276 0.30232 0.88176 0.0
H1019 H 0.8379 0.37661 0.90877 0.0
H1020 H 0.94581 0.4708 0.94848 0.0
H1021 H 0.90928 0.44025 0.92323 0.0
H1022 H 0.93154 0.36568 0.90073 0.0
C1023 C 0.84633 0.30885 0.86813 0.0
C1024 C 0.85826 0.37405 0.90663 0.0
C1025 C 0.82835 0.29155 0.84792 0.0
C1026 C 0.94676 0.45115 0.95103 0.0
C1027 C 0.92573 0.43363 0.93669 0.0
C1028 C 0.91117 0.36818 0.90307 0.0
C1029 C 0.84355 0.33426 0.87001 0.0
C1030 C 0.86453 0.3531 0.88827 0.0
C1031 C 0.9264 0.40788 0.93859 0.0
C1032 C 0.90494 0.38908 0.92144 0.0
H1033 H 0.78692 0.33067 0.81852 0.0
H1034 H 0.8185 0.36094 0.8533 0.0
H1035 H 0.8971 0.33507 0.8721 0.0
H1036 H 0.98582 0.41083 0.98334 0.0
H1037 H 0.9493 0.38051 0.95855 0.0
C1038 C 0.74118 0.82416 0.83404 0.0
C1039 C 0.72931 0.80095 0.81878 0.0
C1040 C 0.72605 0.84007 0.85059 0.0
C1041 C 0.65786 0.85422 0.84963 0.0
H1042 H 0.67976 0.8912 0.93629 0.0
C1043 C 0.58614 0.90812 0.91879 0.0
C1044 C 0.59548 0.931 0.93673 0.0
C1045 C 0.60351 0.89311 0.90576 0.0
C1046 C 0.67348 0.88133 0.91181 0.0
H1047 H 0.69207 0.77624 0.80988 0.0
H1048 H 0.66582 0.80391 0.8384 0.0
H1049 H 0.70797 0.8632 0.91201 0.0
H1050 H 0.63094 0.95567 0.95543 0.0
H1051 H 0.66152 0.92964 0.93183 0.0
H1052 H 0.62381 0.87248 0.84867 0.0
C1053 C 0.68685 0.80989 0.83749 0.0
C1054 C 0.68965 0.86515 0.89794 0.0
C1055 C 0.70199 0.79389 0.82132 0.0
C1056 C 0.62298 0.93838 0.94132 0.0
C1057 C 0.64052 0.92326 0.92809 0.0
C1058 C 0.64191 0.8705 0.86321 0.0
C1059 C 0.69856 0.83338 0.85193 0.0
C1060 C 0.68189 0.85112 0.86682 0.0
C1061 C 0.631 0.90042 0.90985 0.0
C1062 C 0.64919 0.88411 0.89477 0.0
H1063 H 0.76213 0.83031 0.83256 0.0
H1064 H 0.73576 0.85803 0.86122 0.0
H1065 H 0.65146 0.84423 0.82525 0.0
H1066 H 0.56517 0.90147 0.91506 0.0
H1067 H 0.5952 0.87547 0.89282 0.0
C1068 C 0.80706 0.69376 0.21944 0.0
C1069 C 0.80826 0.71892 0.21119 0.0
C1070 C 0.82171 0.67802 0.20179 0.0
C1071 C 0.8591 0.67402 0.1215 0.0
H1072 H 0.88665 0.62059 0.16821 0.0
C1073 C 0.93939 0.62215 0.0662 0.0
C1074 C 0.93581 0.596 0.06744 0.0
C1075 C 0.92255 0.63611 0.08281 0.0
C1076 C 0.87887 0.63529 0.1547 0.0
H1077 H 0.82646 0.74733 0.17845 0.0
H1078 H 0.85265 0.72043 0.14886 0.0
H1079 H 0.8607 0.64711 0.19953 0.0
H1080 H 0.91151 0.56402 0.08705 0.0
H1081 H 0.88235 0.58853 0.11684 0.0
H1082 H 0.87813 0.66262 0.07706 0.0
C1083 C 0.83975 0.71241 0.16805 0.0
C1084 C 0.86386 0.65052 0.17264 0.0
C1085 C 0.82485 0.72801 0.18532 0.0
C1086 C 0.9148 0.58412 0.08558 0.0
C1087 C 0.8982 0.59817 0.10279 0.0
C1088 C 0.87441 0.65904 0.10379 0.0
C1089 C 0.83825 0.68705 0.17568 0.0
C1090 C 0.85383 0.67027 0.1564 0.0
C1091 C 0.90189 0.62435 0.10161 0.0
C1092 C 0.8846 0.63955 0.12017 0.0
H1093 H 0.79438 0.68607 0.23908 0.0
H1094 H 0.81959 0.65862 0.20826 0.0
H1095 H 0.85127 0.68848 0.10757 0.0
H1096 H 0.95525 0.63192 0.05229 0.0
H1097 H 0.92606 0.65622 0.08154 0.0
C1098 C 0.30932 0.83522 0.19337 0.0
C1099 C 0.31497 0.81154 0.20246 0.0
C1100 C 0.32768 0.85229 0.17684 0.0
C1101 C 0.40019 0.86532 0.15717 0.0
H1102 H 0.3768 0.91472 0.09799 0.0
C1103 C 0.47664 0.94476 0.10754 0.0
C1104 C 0.47257 0.95476 0.0749 0.0
C1105 C 0.45685 0.9282 0.12216 0.0
C1106 C 0.38392 0.901 0.11416 0.0
H1107 H 0.34497 0.78758 0.20021 0.0
H1108 H 0.37646 0.81668 0.17087 0.0
H1109 H 0.34442 0.88417 0.12339 0.0
H1110 H 0.44339 0.95483 0.03253 0.0
H1111 H 0.40891 0.92566 0.05765 0.0
H1112 H 0.43958 0.88146 0.14713 0.0
C1113 C 0.358 0.82254 0.17717 0.0
C1114 C 0.36511 0.88345 0.12933 0.0
C1115 C 0.33968 0.80553 0.1939 0.0
C1116 C 0.44741 0.9479 0.05781 0.0
C1117 C 0.42752 0.93099 0.07239 0.0
C1118 C 0.41893 0.88274 0.14193 0.0
C1119 C 0.35258 0.84646 0.16844 0.0
C1120 C 0.37278 0.86521 0.15138 0.0
C1121 C 0.43196 0.9204 0.10474 0.0
C1122 C 0.41134 0.9012 0.12027 0.0
H1123 H 0.29071 0.84085 0.19957 0.0
H1124 H 0.32242 0.87037 0.1714 0.0
H1125 H 0.40746 0.85211 0.17408 0.0
H1126 H 0.49551 0.94953 0.12192 0.0
H1127 H 0.46131 0.92148 0.14741 0.0
C1128 C 0.6939 0.19217 0.22515 0.0
C1129 C 0.7169 0.20436 0.2114 0.0
C1130 C 0.6774 0.17326 0.20592 0.0
C1131 C 0.65866 0.15154 0.11636 0.0
H1132 H 0.62155 0.0942 0.15949 0.0
C1133 C 0.57579 0.05865 0.07901 0.0
C1134 C 0.55715 0.07011 0.06008 0.0
C1135 C 0.59813 0.07302 0.09559 0.0
C1136 C 0.63201 0.10991 0.14692 0.0
H1137 H 0.74105 0.20575 0.1671 0.0
H1138 H 0.71219 0.17257 0.13353 0.0
H1139 H 0.65617 0.12227 0.19278 0.0
H1140 H 0.54768 0.10559 0.04313 0.0
H1141 H 0.58638 0.13052 0.07223 0.0
H1142 H 0.63438 0.1393 0.07059 0.0
C1143 C 0.70682 0.17788 0.15906 0.0
C1144 C 0.65164 0.12613 0.16609 0.0
C1145 C 0.72338 0.19682 0.17833 0.0
C1146 C 0.5616 0.09614 0.05754 0.0
C1147 C 0.58392 0.11045 0.07399 0.0
C1148 C 0.63903 0.13535 0.09721 0.0
C1149 C 0.68351 0.16609 0.17251 0.0
C1150 C 0.66479 0.1474 0.15122 0.0
C1151 C 0.60233 0.09909 0.09341 0.0
C1152 C 0.62512 0.11466 0.1125 0.0
H1153 H 0.68834 0.19751 0.25057 0.0
H1154 H 0.6594 0.16479 0.21684 0.0
H1155 H 0.66829 0.16785 0.10421 0.0
H1156 H 0.57303 0.03862 0.08132 0.0
H1157 H 0.61212 0.06374 0.11013 0.0
C1158 C 0.70547 0.64797 0.7917 0.0
C1159 C 0.69045 0.65784 0.76567 0.0
C1160 C 0.69558 0.62569 0.80657 0.0
C1161 C 0.64097 0.57188 0.7998 0.0
H1162 H 0.64056 0.58397 0.89885 0.0
C1163 C 0.58258 0.53442 0.92788 0.0
C1164 C 0.55678 0.5328 0.91291 0.0
C1165 C 0.60431 0.54193 0.90845 0.0
C1166 C 0.64098 0.57979 0.8714 0.0
H1167 H 0.65453 0.65092 0.73263 0.0
H1168 H 0.637 0.61232 0.75893 0.0
H1169 H 0.67022 0.61149 0.86565 0.0
H1170 H 0.53371 0.53606 0.86513 0.0
H1171 H 0.57132 0.54959 0.83177 0.0
H1172 H 0.61063 0.54088 0.80549 0.0
C1173 C 0.65645 0.62169 0.76782 0.0
C1174 C 0.65803 0.59563 0.85229 0.0
C1175 C 0.66631 0.64399 0.75303 0.0
C1176 C 0.55326 0.53735 0.87764 0.0
C1177 C 0.57492 0.54483 0.85831 0.0
C1178 C 0.62395 0.55594 0.81896 0.0
C1179 C 0.67054 0.61279 0.79562 0.0
C1180 C 0.65735 0.59252 0.81612 0.0
C1181 C 0.60067 0.54791 0.87371 0.0
C1182 C 0.62291 0.56046 0.85475 0.0
H1183 H 0.72412 0.65817 0.80212 0.0
H1184 H 0.70698 0.61914 0.82772 0.0
H1185 H 0.64036 0.56879 0.772 0.0
H1186 H 0.58601 0.53075 0.95489 0.0
H1187 H 0.62394 0.54383 0.92093 0.0
C1188 C 0.30429 0.69927 0.82106 0.0
C1189 C 0.31225 0.71062 0.79048 0.0
C1190 C 0.31928 0.68297 0.8373 0.0
C1191 C 0.38639 0.66533 0.84345 0.0
H1192 H 0.35097 0.60436 0.87973 0.0
C1193 C 0.44295 0.59965 0.92345 0.0
C1194 C 0.43619 0.5739 0.91562 0.0
C1195 C 0.42756 0.61661 0.90967 0.0
C1196 C 0.3612 0.62126 0.86964 0.0
H1197 H 0.3424 0.71368 0.75317 0.0
H1198 H 0.3685 0.6853 0.78146 0.0
H1199 H 0.32497 0.63321 0.85233 0.0
H1200 H 0.4075 0.54587 0.8876 0.0
H1201 H 0.3808 0.57538 0.86358 0.0
H1202 H 0.42263 0.65319 0.86029 0.0
C1203 C 0.35075 0.68915 0.79306 0.0
C1204 C 0.34626 0.63794 0.85421 0.0
C1205 C 0.33567 0.70534 0.7767 0.0
C1206 C 0.41337 0.56554 0.89418 0.0
C1207 C 0.39793 0.58249 0.88053 0.0
C1208 C 0.40132 0.64872 0.85907 0.0
C1209 C 0.34273 0.67768 0.82354 0.0
C1210 C 0.35865 0.66015 0.8407 0.0
C1211 C 0.40492 0.60828 0.88784 0.0
C1212 C 0.38894 0.62637 0.87221 0.0
H1213 H 0.28637 0.7029 0.83244 0.0
H1214 H 0.31263 0.67471 0.86092 0.0
H1215 H 0.39661 0.68235 0.83368 0.0
H1216 H 0.46028 0.60678 0.94003 0.0
H1217 H 0.43335 0.63629 0.91627 0.0
C1218 C 0.34047 0.32931 0.79064 0.0
C1219 C 0.33024 0.3053 0.80043 0.0
C1220 C 0.36092 0.34384 0.81081 0.0
C1221 C 0.39152 0.34989 0.89993 0.0
H1222 H 0.44474 0.39641 0.85912 0.0
C1223 C 0.47755 0.41373 0.97874 0.0
C1224 C 0.48058 0.43884 0.96979 0.0
C1225 C 0.46042 0.39556 0.95867 0.0
C1226 C 0.42997 0.38347 0.87084 0.0
H1227 H 0.33419 0.2772 0.83803 0.0
H1228 H 0.37021 0.3022 0.87253 0.0
H1229 H 0.41334 0.36785 0.82174 0.0
H1230 H 0.46743 0.46456 0.93325 0.0
H1231 H 0.43801 0.433 0.89857 0.0
H1232 H 0.40832 0.36569 0.94908 0.0
C1233 C 0.36203 0.31015 0.84993 0.0
C1234 C 0.41192 0.36721 0.84946 0.0
C1235 C 0.34147 0.29576 0.83 0.0
C1236 C 0.46579 0.4454 0.94087 0.0
C1237 C 0.44901 0.42731 0.92077 0.0
C1238 C 0.40977 0.36603 0.92133 0.0
C1239 C 0.37169 0.33453 0.84096 0.0
C1240 C 0.39216 0.35053 0.86371 0.0
C1241 C 0.44636 0.4022 0.92919 0.0
C1242 C 0.42881 0.38329 0.90694 0.0
H1243 H 0.33213 0.33718 0.76807 0.0
H1244 H 0.36766 0.36266 0.80335 0.0
H1245 H 0.37636 0.33753 0.91182 0.0
H1246 H 0.48864 0.40809 1.00087 0.0
H1247 H 0.45863 0.37627 0.9657 0.0
C1248 C 0.69712 0.35747 0.78226 0.0
C1249 C 0.69101 0.33144 0.78266 0.0
C1250 C 0.69015 0.37231 0.80933 0.0
C1251 C 0.67318 0.36779 0.90053 0.0
H1252 H 0.64559 0.4294 0.88549 0.0
C1253 C 0.60361 0.41005 0.98688 0.0
C1254 C 0.60569 0.43609 0.99 0.0
C1255 C 0.62126 0.39914 0.96757 0.0
C1256 C 0.65388 0.41253 0.89017 0.0
H1257 H 0.67153 0.30041 0.80972 0.0
H1258 H 0.65828 0.32624 0.85632 0.0
H1259 H 0.65977 0.40654 0.83661 0.0
H1260 H 0.62927 0.47118 0.97862 0.0
H1261 H 0.65989 0.45199 0.94432 0.0
H1262 H 0.66578 0.37317 0.95387 0.0
C1263 C 0.6693 0.33525 0.836 0.0
C1264 C 0.66189 0.3994 0.86218 0.0
C1265 C 0.6765 0.32049 0.80921 0.0
C1266 C 0.62713 0.45103 0.97638 0.0
C1267 C 0.64459 0.44011 0.95671 0.0
C1268 C 0.66492 0.3808 0.92846 0.0
C1269 C 0.67679 0.36125 0.83693 0.0
C1270 C 0.6709 0.37654 0.86694 0.0
C1271 C 0.64103 0.41415 0.95092 0.0
C1272 C 0.65461 0.40294 0.92333 0.0
H1273 H 0.70865 0.3662 0.7622 0.0
H1274 H 0.69622 0.3923 0.80937 0.0
H1275 H 0.68074 0.35054 0.90511 0.0
H1276 H 0.58743 0.39814 0.99755 0.0
H1277 H 0.61808 0.37905 0.96338 0.0
C1278 C 0.69341 0.31407 0.23462 0.0
C1279 C 0.71695 0.30895 0.22098 0.0
C1280 C 0.67846 0.33047 0.21849 0.0
C1281 C 0.68329 0.38226 0.15802 0.0
H1282 H 0.60691 0.36731 0.15185 0.0
C1283 C 0.61691 0.4553 0.11841 0.0
C1284 C 0.59393 0.44722 0.09713 0.0
C1285 C 0.63213 0.43815 0.13195 0.0
C1286 C 0.62822 0.37171 0.15307 0.0
H1287 H 0.74315 0.31723 0.1795 0.0
H1288 H 0.7171 0.34574 0.15141 0.0
H1289 H 0.63277 0.33791 0.17815 0.0
H1290 H 0.5693 0.41455 0.07298 0.0
H1291 H 0.59589 0.38465 0.09651 0.0
H1292 H 0.67875 0.41597 0.13275 0.0
C1293 C 0.71027 0.33722 0.17476 0.0
C1294 C 0.64308 0.35495 0.16855 0.0
C1295 C 0.72516 0.32072 0.1908 0.0
C1296 C 0.58677 0.42149 0.08941 0.0
C1297 C 0.60197 0.4043 0.10307 0.0
C1298 C 0.66844 0.39907 0.14272 0.0
C1299 C 0.68668 0.34232 0.18835 0.0
C1300 C 0.67083 0.36001 0.17135 0.0
C1301 C 0.6248 0.41238 0.12469 0.0
C1302 C 0.64068 0.39409 0.14012 0.0
H1303 H 0.68648 0.3054 0.25784 0.0
H1304 H 0.66062 0.33415 0.22999 0.0
H1305 H 0.70459 0.38693 0.15993 0.0
H1306 H 0.62309 0.47495 0.12492 0.0
H1307 H 0.64939 0.44509 0.14876 0.0
C1308 C 0.68246 0.70612 0.21896 0.0
C1309 C 0.70065 0.7236 0.20344 0.0
C1310 C 0.66284 0.69062 0.19876 0.0
C1311 C 0.62982 0.68129 0.11013 0.0
H1312 H 0.61414 0.61295 0.13756 0.0
C1313 C 0.54765 0.60899 0.04023 0.0
C1314 C 0.55165 0.58397 0.03865 0.0
C1315 C 0.56578 0.62702 0.05898 0.0
C1316 C 0.61851 0.63187 0.12919 0.0
H1317 H 0.71227 0.73896 0.15469 0.0
H1318 H 0.67874 0.71138 0.1194 0.0
H1319 H 0.64515 0.64261 0.17308 0.0
H1320 H 0.57844 0.55839 0.05346 0.0
H1321 H 0.61055 0.58987 0.08483 0.0
H1322 H 0.60406 0.67012 0.0653 0.0
C1323 C 0.67909 0.70997 0.14719 0.0
C1324 C 0.63596 0.64906 0.15 0.0
C1325 C 0.69846 0.7257 0.16743 0.0
C1326 C 0.57468 0.5775 0.05467 0.0
C1327 C 0.59297 0.59554 0.07289 0.0
C1328 C 0.61256 0.66398 0.08904 0.0
C1329 C 0.66124 0.69199 0.16254 0.0
C1330 C 0.64189 0.674 0.14077 0.0
C1331 C 0.58844 0.6204 0.07607 0.0
C1332 C 0.60677 0.63901 0.09826 0.0
H1333 H 0.68351 0.70427 0.2467 0.0
H1334 H 0.64906 0.67742 0.21158 0.0
H1335 H 0.63364 0.7004 0.10238 0.0
H1336 H 0.52998 0.61447 0.02826 0.0
H1337 H 0.56151 0.64592 0.06108 0.0
C1338 C 0.33101 0.66178 0.2294 0.0
C1339 C 0.3377 0.68776 0.2285 0.0
C1340 C 0.33727 0.64646 0.20238 0.0
C1341 C 0.35295 0.64969 0.11069 0.0
H1342 H 0.38157 0.58869 0.12632 0.0
C1343 C 0.42379 0.60921 0.02521 0.0
C1344 C 0.4228 0.58326 0.02244 0.0
C1345 C 0.40551 0.61948 0.04417 0.0
C1346 C 0.37294 0.60535 0.12145 0.0
H1347 H 0.35752 0.71814 0.20056 0.0
H1348 H 0.36941 0.69148 0.15397 0.0
H1349 H 0.36728 0.61165 0.17505 0.0
H1350 H 0.40052 0.5476 0.03408 0.0
H1351 H 0.36876 0.56569 0.06778 0.0
H1352 H 0.36012 0.64407 0.05733 0.0
C1353 C 0.35851 0.6829 0.1747 0.0
C1354 C 0.36488 0.61854 0.14937 0.0
C1355 C 0.35207 0.69813 0.20147 0.0
C1356 C 0.40181 0.56771 0.03605 0.0
C1357 C 0.3837 0.578 0.05538 0.0
C1358 C 0.36119 0.6366 0.08283 0.0
C1359 C 0.35043 0.657 0.1743 0.0
C1360 C 0.35567 0.64128 0.1444 0.0
C1361 C 0.38616 0.60394 0.06083 0.0
C1362 C 0.37201 0.61474 0.08818 0.0
H1363 H 0.31958 0.65349 0.24985 0.0
H1364 H 0.33084 0.62655 0.20276 0.0
H1365 H 0.34521 0.66684 0.10599 0.0
H1366 H 0.43961 0.62158 0.01454 0.0
H1367 H 0.40789 0.63957 0.0481 0.0
C1368 C 0.32371 0.37032 0.2137 0.0
C1369 C 0.33802 0.35991 0.23994 0.0
C1370 C 0.33429 0.39269 0.19955 0.0
C1371 C 0.37296 0.42345 0.15584 0.0
H1372 H 0.41951 0.47744 0.20557 0.0
C1373 C 0.44866 0.4874 0.084 0.0
C1374 C 0.47437 0.48916 0.09929 0.0
C1375 C 0.42681 0.47905 0.10282 0.0
C1376 C 0.40647 0.46258 0.19129 0.0
H1377 H 0.37344 0.3659 0.27397 0.0
H1378 H 0.39213 0.40467 0.24896 0.0
H1379 H 0.38942 0.44859 0.2373 0.0
H1380 H 0.49712 0.48531 0.14713 0.0
H1381 H 0.45933 0.47035 0.17944 0.0
H1382 H 0.39102 0.43629 0.11018 0.0
C1383 C 0.37272 0.39565 0.23935 0.0
C1384 C 0.38924 0.4461 0.20945 0.0
C1385 C 0.36219 0.37326 0.2534 0.0
C1386 C 0.47764 0.48396 0.13437 0.0
C1387 C 0.45587 0.47562 0.1531 0.0
C1388 C 0.39023 0.43983 0.13772 0.0
C1389 C 0.3593 0.40514 0.21145 0.0
C1390 C 0.37307 0.42578 0.19204 0.0
C1391 C 0.43025 0.47234 0.13728 0.0
C1392 C 0.40797 0.45894 0.15541 0.0
H1393 H 0.30507 0.3605 0.20264 0.0
H1394 H 0.32339 0.39969 0.17829 0.0
H1395 H 0.36096 0.40785 0.14166 0.0
H1396 H 0.4454 0.49156 0.05714 0.0
H1397 H 0.40728 0.47706 0.09005 0.0
C1398 C 0.79582 0.69809 0.67263 0.0
C1399 C 0.80786 0.72004 0.69099 0.0
C1400 C 0.81102 0.68244 0.65567 0.0
C1401 C 0.8804 0.67947 0.62851 0.0
H1402 H 0.85561 0.60832 0.62216 0.0
C1403 C 0.94836 0.60487 0.60332 0.0
C1404 C 0.93928 0.58548 0.57852 0.0
C1405 C 0.93191 0.62185 0.61362 0.0
C1406 C 0.86272 0.62817 0.62342 0.0
H1407 H 0.8456 0.7425 0.70585 0.0
H1408 H 0.87197 0.71508 0.6778 0.0
H1409 H 0.82809 0.63644 0.64683 0.0
H1410 H 0.90557 0.56908 0.54495 0.0
H1411 H 0.87655 0.59834 0.56381 0.0
H1412 H 0.91562 0.67077 0.60653 0.0
C1413 C 0.85074 0.71013 0.67521 0.0
C1414 C 0.84683 0.64447 0.63748 0.0
C1415 C 0.83552 0.72597 0.69161 0.0
C1416 C 0.91323 0.58367 0.56419 0.0
C1417 C 0.89657 0.6004 0.57506 0.0
C1418 C 0.89646 0.66311 0.61508 0.0
C1419 C 0.83884 0.68794 0.65703 0.0
C1420 C 0.85541 0.67047 0.64055 0.0
C1421 C 0.90568 0.6197 0.59999 0.0
C1422 C 0.88792 0.63722 0.61252 0.0
H1423 H 0.77458 0.69289 0.67152 0.0
H1424 H 0.80079 0.66597 0.64151 0.0
H1425 H 0.88773 0.69924 0.62932 0.0
H1426 H 0.96831 0.607 0.6148 0.0
H1427 H 0.93956 0.63638 0.63296 0.0
C1428 C 0.34612 0.81694 0.62462 0.0
C1429 C 0.35286 0.79359 0.63239 0.0
C1430 C 0.36472 0.83535 0.61221 0.0
C1431 C 0.4356 0.85606 0.61699 0.0
H1432 H 0.41547 0.90494 0.55425 0.0
C1433 C 0.49595 0.95218 0.57646 0.0
C1434 C 0.48239 0.97171 0.58652 0.0
C1435 C 0.48465 0.92732 0.5799 0.0
C1436 C 0.42146 0.8912 0.5714 0.0
H1437 H 0.38409 0.77082 0.63208 0.0
H1438 H 0.41675 0.80312 0.61014 0.0
H1439 H 0.38584 0.86581 0.55947 0.0
H1440 H 0.44786 0.98047 0.61154 0.0
H1441 H 0.4284 0.9373 0.61731 0.0
H1442 H 0.47091 0.88218 0.62964 0.0
C1443 C 0.39705 0.80715 0.61384 0.0
C1444 C 0.40452 0.86894 0.57454 0.0
C1445 C 0.37831 0.78863 0.62611 0.0
C1446 C 0.45871 0.96595 0.6031 0.0
C1447 C 0.44745 0.94127 0.60629 0.0
C1448 C 0.4527 0.87836 0.61362 0.0
C1449 C 0.39054 0.83084 0.60734 0.0
C1450 C 0.41088 0.85162 0.59847 0.0
C1451 C 0.4598 0.92186 0.59347 0.0
C1452 C 0.44518 0.89639 0.5918 0.0
H1453 H 0.32657 0.82115 0.62884 0.0
H1454 H 0.35916 0.85351 0.60788 0.0
H1455 H 0.44097 0.84313 0.63579 0.0
H1456 H 0.51435 0.956 0.56391 0.0
H1457 H 0.4945 0.91246 0.57013 0.0
C1458 C 0.23117 0.3143 0.58775 0.0
C1459 C 0.23228 0.31988 0.62355 0.0
C1460 C 0.20919 0.31827 0.56676 0.0
C1461 C 0.13918 0.32317 0.57368 0.0
H1462 H 0.14538 0.36853 0.49857 0.0
C1463 C 0.08013 0.40058 0.55532 0.0
C1464 C 0.07076 0.40627 0.52246 0.0
C1465 C 0.0939 0.38058 0.55925 0.0
C1466 C 0.14321 0.35512 0.51866 0.0
H1467 H 0.21243 0.33561 0.66493 0.0
H1468 H 0.17435 0.34239 0.62869 0.0
H1469 H 0.18447 0.35217 0.52139 0.0
H1470 H 0.06671 0.39488 0.46816 0.0
H1471 H 0.09261 0.36054 0.47474 0.0
H1472 H 0.09858 0.32795 0.57321 0.0
C1473 C 0.18996 0.33435 0.61689 0.0
C1474 C 0.16558 0.34587 0.53178 0.0
C1475 C 0.21181 0.33061 0.63759 0.0
C1476 C 0.07385 0.39073 0.49373 0.0
C1477 C 0.08857 0.37117 0.49747 0.0
C1478 C 0.11696 0.33246 0.56072 0.0
C1479 C 0.18807 0.32763 0.58149 0.0
C1480 C 0.16397 0.33108 0.56079 0.0
C1481 C 0.09922 0.36639 0.53023 0.0
C1482 C 0.11917 0.34967 0.53453 0.0
H1483 H 0.24666 0.3059 0.57631 0.0
H1484 H 0.20827 0.31328 0.53939 0.0
H1485 H 0.13742 0.3114 0.59569 0.0
H1486 H 0.07807 0.41245 0.57773 0.0
H1487 H 0.10219 0.37746 0.58473 0.0
C1488 C 0.7381 0.18943 0.66222 0.0
C1489 C 0.73073 0.21271 0.67074 0.0
C1490 C 0.72195 0.17229 0.6395 0.0
C1491 C 0.65222 0.15573 0.60877 0.0
H1492 H 0.67903 0.11133 0.54377 0.0
C1493 C 0.58156 0.07941 0.52918 0.0
C1494 C 0.58939 0.05568 0.52756 0.0
C1495 C 0.59952 0.10045 0.54084 0.0
C1496 C 0.67121 0.12349 0.56193 0.0
H1497 H 0.70119 0.23663 0.66063 0.0
H1498 H 0.67324 0.20687 0.62089 0.0
H1499 H 0.70943 0.14462 0.57501 0.0
H1500 H 0.62279 0.03585 0.53528 0.0
H1501 H 0.65378 0.07227 0.55599 0.0
H1502 H 0.61419 0.1343 0.59664 0.0
C1503 C 0.69129 0.2017 0.63218 0.0
C1504 C 0.68866 0.14259 0.57983 0.0
C1505 C 0.70743 0.21884 0.65482 0.0
C1506 C 0.61596 0.05377 0.53621 0.0
C1507 C 0.63386 0.07476 0.54796 0.0
C1508 C 0.63482 0.13662 0.59101 0.0
C1509 C 0.69803 0.178 0.62482 0.0
C1510 C 0.67942 0.15878 0.60378 0.0
C1511 C 0.62576 0.0983 0.55123 0.0
C1512 C 0.64409 0.12002 0.56766 0.0
H1513 H 0.75587 0.18407 0.67405 0.0
H1514 H 0.72767 0.15415 0.63463 0.0
H1515 H 0.64444 0.16757 0.62742 0.0
H1516 H 0.56135 0.08167 0.5224 0.0
H1517 H 0.5927 0.11836 0.54232 0.0
C1518 C 0.79614 0.32997 0.35138 0.0
C1519 C 0.80411 0.31814 0.32184 0.0
C1520 C 0.81261 0.35033 0.36795 0.0
C1521 C 0.86958 0.39837 0.35215 0.0
H1522 H 0.87737 0.40565 0.45213 0.0
C1523 C 0.95235 0.46756 0.42419 0.0
C1524 C 0.94469 0.48232 0.45115 0.0
C1525 C 0.93464 0.44765 0.40886 0.0
C1526 C 0.8752 0.40392 0.42418 0.0
H1527 H 0.83582 0.31788 0.28705 0.0
H1528 H 0.86451 0.35277 0.31614 0.0
H1529 H 0.847 0.37063 0.42467 0.0
H1530 H 0.91269 0.48745 0.48375 0.0
H1531 H 0.88188 0.45262 0.45701 0.0
H1532 H 0.89812 0.43139 0.3517 0.0
C1533 C 0.84536 0.3469 0.32611 0.0
C1534 C 0.85776 0.38395 0.40846 0.0
C1535 C 0.82893 0.32676 0.30953 0.0
C1536 C 0.91912 0.47656 0.4628 0.0
C1537 C 0.90153 0.45651 0.44772 0.0
C1538 C 0.88713 0.41817 0.36785 0.0
C1539 C 0.83734 0.35909 0.35531 0.0
C1540 C 0.85491 0.38085 0.37225 0.0
C1541 C 0.90907 0.44197 0.42049 0.0
C1542 C 0.89022 0.42106 0.40399 0.0
H1543 H 0.77709 0.32375 0.36138 0.0
H1544 H 0.80578 0.35946 0.39024 0.0
H1545 H 0.86744 0.39684 0.32419 0.0
H1546 H 0.97197 0.47147 0.41479 0.0
H1547 H 0.94102 0.43654 0.38812 0.0
C1548 C 0.70816 0.80434 0.33509 0.0
C1549 C 0.7176 0.80968 0.30234 0.0
C1550 C 0.69365 0.82045 0.35211 0.0
C1551 C 0.65323 0.87062 0.33612 0.0
H1552 H 0.66238 0.88232 0.43557 0.0
C1553 C 0.57954 0.9184 0.41106 0.0
C1554 C 0.58924 0.93623 0.43771 0.0
C1555 C 0.59606 0.90346 0.39587 0.0
C1556 C 0.65971 0.87944 0.40776 0.0
H1557 H 0.7191 0.83639 0.26197 0.0
H1558 H 0.6939 0.8645 0.29164 0.0
H1559 H 0.68978 0.85602 0.40627 0.0
H1560 H 0.62408 0.95153 0.47002 0.0
H1561 H 0.6531 0.92534 0.44331 0.0
H1562 H 0.6234 0.89417 0.33745 0.0
C1563 C 0.6975 0.84769 0.30408 0.0
C1564 C 0.67524 0.8641 0.39095 0.0
C1565 C 0.71207 0.83158 0.28706 0.0
C1566 C 0.61592 0.93812 0.44945 0.0
C1567 C 0.63254 0.92302 0.43421 0.0
C1568 C 0.63769 0.88585 0.35291 0.0
C1569 C 0.68807 0.84238 0.33689 0.0
C1570 C 0.67212 0.85933 0.35487 0.0
C1571 C 0.62289 0.90575 0.40677 0.0
C1572 C 0.64049 0.89032 0.38901 0.0
H1573 H 0.71199 0.78765 0.34771 0.0
H1574 H 0.68644 0.81547 0.37705 0.0
H1575 H 0.65002 0.8673 0.30842 0.0
H1576 H 0.55909 0.9161 0.40144 0.0
H1577 H 0.58769 0.89001 0.37546 0.0
C1578 C 0.18598 0.72377 0.32294 0.0
C1579 C 0.21184 0.71968 0.3166 0.0
C1580 C 0.16847 0.70608 0.33995 0.0
C1581 C 0.16744 0.64895 0.39443 0.0
H1582 H 0.09218 0.6384 0.37099 0.0
C1583 C 0.10021 0.55985 0.43375 0.0
C1584 C 0.07421 0.56049 0.44353 0.0
C1585 C 0.11571 0.58074 0.421 0.0
C1586 C 0.11309 0.64122 0.37828 0.0
H1587 H 0.23894 0.69303 0.32346 0.0
H1588 H 0.20891 0.66257 0.35212 0.0
H1589 H 0.12109 0.67111 0.34343 0.0
H1590 H 0.0446 0.58472 0.44745 0.0
H1591 H 0.07174 0.62149 0.42474 0.0
H1592 H 0.15963 0.61894 0.4288 0.0
C1593 C 0.20201 0.67964 0.34481 0.0
C1594 C 0.12986 0.66015 0.36234 0.0
C1595 C 0.21942 0.69725 0.32795 0.0
C1596 C 0.06447 0.58333 0.44048 0.0
C1597 C 0.08005 0.6044 0.42708 0.0
C1598 C 0.15078 0.63005 0.41013 0.0
C1599 C 0.17611 0.68357 0.35134 0.0
C1600 C 0.15753 0.6642 0.36967 0.0
C1601 C 0.10604 0.60346 0.41702 0.0
C1602 C 0.12329 0.62546 0.40208 0.0
H1603 H 0.17916 0.74066 0.31462 0.0
H1604 H 0.14897 0.71027 0.34447 0.0
H1605 H 0.18829 0.65157 0.402 0.0
H1606 H 0.10875 0.54284 0.43565 0.0
H1607 H 0.13527 0.57875 0.41334 0.0
C1608 C 0.32013 0.22994 0.33314 0.0
C1609 C 0.29428 0.22034 0.32022 0.0
C1610 C 0.33569 0.21502 0.35144 0.0
C1611 C 0.34166 0.14826 0.36378 0.0
H1612 H 0.3918 0.17472 0.43923 0.0
C1613 C 0.3959 0.08328 0.44617 0.0
C1614 C 0.42274 0.09055 0.45667 0.0
C1615 C 0.38106 0.09993 0.43066 0.0
C1616 C 0.37814 0.16707 0.41794 0.0
H1617 H 0.26441 0.18747 0.31764 0.0
H1618 H 0.29126 0.16163 0.35003 0.0
H1619 H 0.36371 0.20185 0.41157 0.0
H1620 H 0.45472 0.12163 0.45944 0.0
H1621 H 0.42867 0.15092 0.43203 0.0
H1622 H 0.35598 0.11356 0.37 0.0
C1623 C 0.29975 0.18063 0.34547 0.0
C1624 C 0.36193 0.18265 0.40204 0.0
C1625 C 0.28417 0.19557 0.32715 0.0
C1626 C 0.43416 0.11532 0.45166 0.0
C1627 C 0.41916 0.13214 0.43606 0.0
C1628 C 0.35779 0.13273 0.37964 0.0
C1629 C 0.32595 0.18997 0.35741 0.0
C1630 C 0.34328 0.17345 0.3748 0.0
C1631 C 0.39241 0.12455 0.42495 0.0
C1632 C 0.37616 0.14178 0.40718 0.0
H1633 H 0.32874 0.24886 0.32823 0.0
H1634 H 0.35575 0.22294 0.3598 0.0
H1635 H 0.32814 0.1405 0.3424 0.0
H1636 H 0.38615 0.06451 0.44978 0.0
H1637 H 0.36046 0.09342 0.42332 0.0
C1638 C 0.73988 0.82239 0.67645 0.0
C1639 C 0.73025 0.79754 0.68355 0.0
C1640 C 0.7239 0.83701 0.65816 0.0
C1641 C 0.65314 0.84123 0.63485 0.0
H1642 H 0.68292 0.89034 0.5721 0.0
C1643 C 0.58888 0.90395 0.55745 0.0
C1644 C 0.60022 0.92905 0.5549 0.0
C1645 C 0.60398 0.88642 0.57094 0.0
C1646 C 0.67423 0.87689 0.58977 0.0
H1647 H 0.69618 0.76855 0.67599 0.0
H1648 H 0.66865 0.79378 0.64387 0.0
H1649 H 0.71082 0.86313 0.59924 0.0
H1650 H 0.63659 0.95507 0.5646 0.0
H1651 H 0.6623 0.92507 0.58797 0.0
H1652 H 0.61657 0.85525 0.62558 0.0
C1653 C 0.68842 0.80219 0.65285 0.0
C1654 C 0.69033 0.86122 0.60543 0.0
C1655 C 0.70439 0.78758 0.67105 0.0
C1656 C 0.62699 0.93599 0.56599 0.0
C1657 C 0.64196 0.91861 0.57924 0.0
C1658 C 0.637 0.85695 0.61918 0.0
C1659 C 0.69776 0.82726 0.64648 0.0
C1660 C 0.68017 0.8433 0.62854 0.0
C1661 C 0.63083 0.89351 0.58196 0.0
C1662 C 0.64737 0.87529 0.59674 0.0
H1663 H 0.75955 0.83084 0.68588 0.0
H1664 H 0.73182 0.85626 0.65419 0.0
H1665 H 0.64454 0.82791 0.65275 0.0
H1666 H 0.56838 0.89787 0.54915 0.0
H1667 H 0.59468 0.86724 0.57238 0.0
C1668 C 0.66752 0.19171 0.35161 0.0
C1669 C 0.66583 0.21715 0.35692 0.0
C1670 C 0.64561 0.17362 0.35481 0.0
C1671 C 0.58623 0.1583 0.39831 0.0
H1672 H 0.56924 0.1072 0.32471 0.0
C1673 C 0.52209 0.06619 0.42348 0.0
C1674 C 0.53527 0.04597 0.41571 0.0
C1675 C 0.52963 0.08927 0.40912 0.0
C1676 C 0.57356 0.1214 0.34539 0.0
H1677 H 0.63972 0.24329 0.37134 0.0
H1678 H 0.60165 0.21129 0.37841 0.0
H1679 H 0.60058 0.14458 0.3157 0.0
H1680 H 0.56455 0.03325 0.38404 0.0
H1681 H 0.57774 0.07319 0.35931 0.0
H1682 H 0.56094 0.13435 0.42904 0.0
C1683 C 0.61999 0.20568 0.37096 0.0
C1684 C 0.59144 0.14276 0.3402 0.0
C1685 C 0.64188 0.22393 0.36719 0.0
C1686 C 0.5542 0.04854 0.3908 0.0
C1687 C 0.56162 0.07148 0.37638 0.0
C1688 C 0.56855 0.13677 0.40368 0.0
C1689 C 0.62159 0.18045 0.36402 0.0
C1690 C 0.59872 0.16084 0.3671 0.0
C1691 C 0.55029 0.09239 0.38656 0.0
C1692 C 0.56297 0.11759 0.37778 0.0
H1693 H 0.68573 0.18564 0.34469 0.0
H1694 H 0.64749 0.15418 0.35025 0.0
H1695 H 0.59163 0.17203 0.41941 0.0
H1696 H 0.5073 0.06474 0.44247 0.0
H1697 H 0.52028 0.10496 0.41706 0.0
C1698 C 0.78836 0.70573 0.41687 0.0
C1699 C 0.78347 0.69717 0.38221 0.0
C1700 C 0.80751 0.6966 0.4378 0.0
C1701 C 0.84245 0.64383 0.44746 0.0
H1702 H 0.90665 0.68977 0.47326 0.0
C1703 C 0.93854 0.61054 0.44588 0.0
C1704 C 0.95079 0.60847 0.47856 0.0
C1705 C 0.92014 0.62663 0.4415 0.0
C1706 C 0.88863 0.6769 0.467 0.0
H1707 H 0.79355 0.67214 0.34232 0.0
H1708 H 0.82624 0.65537 0.3791 0.0
H1709 H 0.8663 0.70604 0.45384 0.0
H1710 H 0.95607 0.62348 0.53134 0.0
H1711 H 0.92287 0.65147 0.52385 0.0
H1712 H 0.86493 0.61469 0.45844 0.0
C1713 C 0.81559 0.66924 0.39007 0.0
C1714 C 0.86565 0.68612 0.45603 0.0
C1715 C 0.79703 0.67875 0.36908 0.0
C1716 C 0.94674 0.62483 0.50594 0.0
C1717 C 0.92782 0.64076 0.5017 0.0
C1718 C 0.86521 0.63469 0.45849 0.0
C1719 C 0.82131 0.67838 0.42437 0.0
C1720 C 0.84281 0.66953 0.44472 0.0
C1721 C 0.91347 0.64063 0.46985 0.0
C1722 C 0.88872 0.6511 0.46675 0.0
H1723 H 0.77826 0.72024 0.42714 0.0
H1724 H 0.81176 0.70391 0.46418 0.0
H1725 H 0.82501 0.63076 0.43894 0.0
H1726 H 0.94144 0.59809 0.42445 0.0
H1727 H 0.90941 0.62653 0.41663 0.0
C1728 C 0.2914 0.83087 0.35032 0.0
C1729 C 0.29933 0.80797 0.34111 0.0
C1730 C 0.30677 0.84764 0.3743 0.0
C1731 C 0.37567 0.86435 0.40886 0.0
H1732 H 0.34605 0.90756 0.47266 0.0
C1733 C 0.44304 0.94183 0.49016 0.0
C1734 C 0.43475 0.96537 0.49009 0.0
C1735 C 0.42559 0.92032 0.47902 0.0
C1736 C 0.35465 0.8957 0.45491 0.0
H1737 H 0.3291 0.78429 0.35121 0.0
H1738 H 0.3557 0.81338 0.39321 0.0
H1739 H 0.31703 0.87416 0.43965 0.0
H1740 H 0.401 0.9844 0.48044 0.0
H1741 H 0.37085 0.94714 0.46062 0.0
H1742 H 0.41312 0.88623 0.42317 0.0
C1743 C 0.33781 0.81858 0.38147 0.0
C1744 C 0.338 0.87654 0.43596 0.0
C1745 C 0.32245 0.80182 0.35752 0.0
C1746 C 0.40815 0.96664 0.48076 0.0
C1747 C 0.39075 0.94516 0.46949 0.0
C1748 C 0.39228 0.8835 0.42772 0.0
C1749 C 0.33046 0.84193 0.38966 0.0
C1750 C 0.34825 0.86087 0.41226 0.0
C1751 C 0.39944 0.92181 0.46747 0.0
C1752 C 0.38197 0.89972 0.45058 0.0
H1753 H 0.27375 0.83626 0.33816 0.0
H1754 H 0.3006 0.86552 0.37968 0.0
H1755 H 0.38426 0.85293 0.39049 0.0
H1756 H 0.46326 0.94007 0.49776 0.0
H1757 H 0.4328 0.90257 0.47863 0.0
C1758 C 0.23049 0.32044 0.33187 0.0
C1759 C 0.21834 0.29894 0.31248 0.0
C1760 C 0.21526 0.33621 0.34858 0.0
C1761 C 0.15099 0.35721 0.34007 0.0
H1762 H 0.16211 0.37971 0.43637 0.0
C1763 C 0.07936 0.4164 0.40061 0.0
C1764 C 0.08865 0.43437 0.42717 0.0
C1765 C 0.09519 0.39928 0.38906 0.0
C1766 C 0.15888 0.37403 0.40928 0.0
H1767 H 0.18047 0.27726 0.29588 0.0
H1768 H 0.15412 0.30501 0.32412 0.0
H1769 H 0.19016 0.3517 0.41205 0.0
H1770 H 0.12202 0.44792 0.46287 0.0
H1771 H 0.15017 0.4189 0.44175 0.0
H1772 H 0.12076 0.3801 0.33626 0.0
C1773 C 0.17543 0.30951 0.32674 0.0
C1774 C 0.17497 0.35779 0.3954 0.0
C1775 C 0.1906 0.29351 0.31071 0.0
C1776 C 0.11421 0.43442 0.44227 0.0
C1777 C 0.13032 0.41753 0.43022 0.0
C1778 C 0.13532 0.37378 0.35364 0.0
C1779 C 0.1875 0.3312 0.34565 0.0
C1780 C 0.17103 0.34897 0.36068 0.0
C1781 C 0.12122 0.3998 0.40303 0.0
C1782 C 0.13868 0.38233 0.38863 0.0
H1783 H 0.25177 0.32527 0.33373 0.0
H1784 H 0.22518 0.35281 0.3628 0.0
H1785 H 0.14768 0.35111 0.31308 0.0
H1786 H 0.05963 0.41542 0.38875 0.0
H1787 H 0.08678 0.38555 0.36907 0.0
C1788 C 0.31381 0.19476 0.72149 0.0
C1789 C 0.3101 0.21775 0.70783 0.0
C1790 C 0.32832 0.17871 0.70416 0.0
C1791 C 0.37898 0.17846 0.63938 0.0
H1792 H 0.3563 0.10694 0.63376 0.0
C1793 C 0.44716 0.10913 0.5962 0.0
C1794 C 0.4364 0.08813 0.57492 0.0
C1795 C 0.43099 0.12494 0.61029 0.0
C1796 C 0.3628 0.12689 0.63482 0.0
H1797 H 0.31886 0.24172 0.66502 0.0
H1798 H 0.34406 0.21393 0.63511 0.0
H1799 H 0.32969 0.13415 0.66294 0.0
H1800 H 0.39991 0.06776 0.55123 0.0
H1801 H 0.37153 0.09543 0.57606 0.0
H1802 H 0.41205 0.1713 0.61133 0.0
C1803 C 0.33595 0.20831 0.65932 0.0
C1804 C 0.34769 0.14249 0.65193 0.0
C1805 C 0.32134 0.22425 0.67647 0.0
C1806 C 0.40891 0.08369 0.56757 0.0
C1807 C 0.39262 0.09947 0.582 0.0
C1808 C 0.39415 0.16289 0.62255 0.0
C1809 C 0.33967 0.1853 0.67286 0.0
C1810 C 0.35561 0.16851 0.65453 0.0
C1811 C 0.40346 0.12026 0.60373 0.0
C1812 C 0.38639 0.13686 0.62015 0.0
H1813 H 0.30542 0.18909 0.74553 0.0
H1814 H 0.33098 0.16128 0.71559 0.0
H1815 H 0.38588 0.19835 0.64105 0.0
H1816 H 0.46822 0.11328 0.60244 0.0
H1817 H 0.44008 0.14056 0.62712 0.0
C1818 C 0.84378 0.29757 0.68587 0.0
C1819 C 0.81813 0.30188 0.69294 0.0
C1820 C 0.86115 0.31517 0.66855 0.0
C1821 C 0.86195 0.37257 0.6147 0.0
H1822 H 0.93745 0.38219 0.6362 0.0
C1823 C 0.92969 0.46128 0.57508 0.0
C1824 C 0.95536 0.46025 0.56437 0.0
C1825 C 0.91409 0.44047 0.58789 0.0
C1826 C 0.91646 0.37963 0.62946 0.0
H1827 H 0.79122 0.32879 0.68707 0.0
H1828 H 0.82104 0.35913 0.6579 0.0
H1829 H 0.90865 0.34965 0.66418 0.0
H1830 H 0.9843 0.43548 0.55877 0.0
H1831 H 0.95701 0.39888 0.58165 0.0
H1832 H 0.86961 0.40272 0.58051 0.0
C1833 C 0.82787 0.34196 0.66486 0.0
C1834 C 0.89976 0.3608 0.64563 0.0
C1835 C 0.81058 0.32443 0.68201 0.0
C1836 C 0.96468 0.43715 0.56651 0.0
C1837 C 0.94903 0.41617 0.57999 0.0
C1838 C 0.87855 0.39139 0.59879 0.0
C1839 C 0.85357 0.33781 0.65761 0.0
C1840 C 0.87202 0.35709 0.63901 0.0
C1841 C 0.92337 0.4175 0.59102 0.0
C1842 C 0.90613 0.39562 0.60614 0.0
H1843 H 0.85055 0.28058 0.69385 0.0
H1844 H 0.88049 0.3108 0.66346 0.0
H1845 H 0.84102 0.37021 0.60767 0.0
H1846 H 0.92151 0.47851 0.57385 0.0
H1847 H 0.89478 0.44272 0.59628 0.0
C1848 C 0.22538 0.69162 0.65815 0.0
C1849 C 0.22442 0.69696 0.69367 0.0
C1850 C 0.20911 0.67097 0.64219 0.0
C1851 C 0.14808 0.62731 0.65557 0.0
H1852 H 0.17103 0.58987 0.579 0.0
C1853 C 0.07519 0.55633 0.57206 0.0
C1854 C 0.08377 0.53452 0.5596 0.0
C1855 C 0.09304 0.5755 0.58866 0.0
C1856 C 0.16441 0.59992 0.60064 0.0
H1857 H 0.20656 0.68448 0.74068 0.0
H1858 H 0.179 0.64805 0.71324 0.0
H1859 H 0.20155 0.62379 0.60819 0.0
H1860 H 0.11776 0.51555 0.55505 0.0
H1861 H 0.14887 0.54871 0.58522 0.0
H1862 H 0.11136 0.6029 0.64902 0.0
C1863 C 0.19153 0.66017 0.69733 0.0
C1864 C 0.1818 0.61963 0.61705 0.0
C1865 C 0.20745 0.68099 0.71313 0.0
C1866 C 0.11058 0.53219 0.56431 0.0
C1867 C 0.12843 0.55127 0.58138 0.0
C1868 C 0.13086 0.60744 0.63949 0.0
C1869 C 0.19187 0.65508 0.66158 0.0
C1870 C 0.17377 0.63367 0.64457 0.0
C1871 C 0.11986 0.57318 0.59369 0.0
C1872 C 0.1387 0.59365 0.6116 0.0
H1873 H 0.23826 0.7037 0.64255 0.0
H1874 H 0.20964 0.66783 0.61454 0.0
H1875 H 0.14103 0.6379 0.67632 0.0
H1876 H 0.05472 0.55884 0.5685 0.0
H1877 H 0.08582 0.59231 0.59709 0.0
loop_
_geom_bond_atom_site_label_1
_geom_bond_atom_site_label_2
_geom_bond_distance
_geom_bond_site_symmetry_2
_ccdc_geom_bond_type
Co0 N5 2.057 . S
Co0 O17 2.021 . S
Co0 O20 2.062 . S
Co0 O24 2.117 . S
Co0 O25 2.020 . S
C1 O21 1.259 . S
C1 O24 1.258 . S
Co2 N11 2.057 . S
Co2 O18 2.117 . S
Co2 O19 2.020 . S
Co2 O21 2.021 . S
Co2 O26 2.062 . S
C3 N5 1.316 . S
C3 N6 1.347 . S
C3 H8 0.931 . S
C4 N5 1.375 . S
C4 C7 1.350 . S
C4 H9 0.930 . S
N5 Co0 2.057 . S
N5 C3 1.316 . S
N5 C4 1.375 . S
N6 C3 1.347 . S
N6 C7 1.373 . S
C7 C4 1.350 . S
C7 N6 1.373 . S
C7 H28 0.931 . S
H8 C3 0.931 . S
H9 C4 0.930 . S
C10 O17 1.259 . S
C10 O18 1.258 . S
N11 Co2 2.057 . S
N11 C12 1.316 . S
N11 C13 1.375 . S
C12 N11 1.316 . S
C12 N14 1.347 . S
C12 H23 0.931 . S
C13 N11 1.375 . S
C13 C15 1.350 . S
C13 H22 0.930 . S
N14 C12 1.347 . S
N14 C15 1.373 . S
C15 C13 1.350 . S
C15 N14 1.373 . S
C15 H29 0.931 . S
C16 O19 1.256 . S
C16 O20 1.255 . S
O17 Co0 2.021 . S
O17 C10 1.259 . S
O18 Co2 2.117 . S
O18 C10 1.258 . S
O19 Co2 2.020 . S
O19 C16 1.256 . S
O20 Co0 2.062 . S
O20 C16 1.255 . S
O21 C1 1.259 . S
O21 Co2 2.021 . S
H22 C13 0.930 . S
H23 C12 0.931 . S
O24 Co0 2.117 . S
O24 C1 1.258 . S
O25 Co0 2.020 . S
O25 C27 1.256 . S
O26 Co2 2.062 . S
O26 C27 1.255 . S
C27 O25 1.256 . S
C27 O26 1.255 . S
H28 C7 0.931 . S
H29 C15 0.931 . S
Co30 N35 2.057 . S
Co30 O47 2.021 . S
Co30 O50 2.062 . S
Co30 O54 2.117 . S
Co30 O55 2.020 . S
C31 O51 1.259 . S
C31 O54 1.258 . S
Co32 N41 2.057 . S
Co32 O48 2.117 . S
Co32 O49 2.020 . S
Co32 O51 2.021 . S
Co32 O56 2.062 . S
C33 N35 1.316 . S
C33 N36 1.347 . S
C33 H38 0.931 . S
C34 N35 1.375 . S
C34 C37 1.350 . S
C34 H39 0.930 . S
N35 Co30 2.057 . S
N35 C33 1.316 . S
N35 C34 1.375 . S
N36 C33 1.347 . S
N36 C37 1.373 . S
C37 C34 1.350 . S
C37 N36 1.373 . S
C37 H58 0.931 . S
H38 C33 0.931 . S
H39 C34 0.930 . S
C40 O47 1.259 . S
C40 O48 1.258 . S
N41 Co32 2.057 . S
N41 C42 1.316 . S
N41 C43 1.375 . S
C42 N41 1.316 . S
C42 N44 1.347 . S
C42 H53 0.931 . S
C43 N41 1.375 . S
C43 C45 1.350 . S
C43 H52 0.930 . S
N44 C42 1.347 . S
N44 C45 1.373 . S
C45 C43 1.350 . S
C45 N44 1.373 . S
C45 H59 0.931 . S
C46 O49 1.256 . S
C46 O50 1.255 . S
O47 Co30 2.021 . S
O47 C40 1.259 . S
O48 Co32 2.117 . S
O48 C40 1.258 . S
O49 Co32 2.020 . S
O49 C46 1.256 . S
O50 Co30 2.062 . S
O50 C46 1.255 . S
O51 C31 1.259 . S
O51 Co32 2.021 . S
H52 C43 0.930 . S
H53 C42 0.931 . S
O54 Co30 2.117 . S
O54 C31 1.258 . S
O55 Co30 2.020 . S
O55 C57 1.256 . S
O56 Co32 2.062 . S
O56 C57 1.255 . S
C57 O55 1.256 . S
C57 O56 1.255 . S
H58 C37 0.931 . S
H59 C45 0.931 . S
Co60 N65 2.057 . S
Co60 O77 2.021 . S
Co60 O80 2.062 . S
Co60 O84 2.117 . S
Co60 O85 2.020 . S
C61 O81 1.259 . S
C61 O84 1.258 . S
Co62 N71 2.057 . S
Co62 O78 2.117 . S
Co62 O79 2.020 . S
Co62 O81 2.021 . S
Co62 O86 2.062 . S
C63 N65 1.316 . S
C63 N66 1.347 . S
C63 H68 0.931 . S
C64 N65 1.375 . S
C64 C67 1.350 . S
C64 H69 0.930 . S
N65 Co60 2.057 . S
N65 C63 1.316 . S
N65 C64 1.375 . S
N66 C63 1.347 . S
N66 C67 1.373 . S
C67 C64 1.350 . S
C67 N66 1.373 . S
C67 H88 0.931 . S
H68 C63 0.931 . S
H69 C64 0.930 . S
C70 O77 1.259 . S
C70 O78 1.258 . S
N71 Co62 2.057 . S
N71 C72 1.316 . S
N71 C73 1.375 . S
C72 N71 1.316 . S
C72 N74 1.347 . S
C72 H83 0.931 . S
C73 N71 1.375 . S
C73 C75 1.350 . S
C73 H82 0.930 . S
N74 C72 1.347 . S
N74 C75 1.373 . S
C75 C73 1.350 . S
C75 N74 1.373 . S
C75 H89 0.931 . S
C76 O79 1.256 . S
C76 O80 1.255 . S
O77 Co60 2.021 . S
O77 C70 1.259 . S
O78 Co62 2.117 . S
O78 C70 1.258 . S
O79 Co62 2.020 . S
O79 C76 1.256 . S
O80 Co60 2.062 . S
O80 C76 1.255 . S
O81 C61 1.259 . S
O81 Co62 2.021 . S
H82 C73 0.930 . S
H83 C72 0.931 . S
O84 Co60 2.117 . S
O84 C61 1.258 . S
O85 Co60 2.020 . S
O85 C87 1.256 . S
O86 Co62 2.062 . S
O86 C87 1.255 . S
C87 O85 1.256 . S
C87 O86 1.255 . S
H88 C67 0.931 . S
H89 C75 0.931 . S
Co90 N95 2.057 . S
Co90 O107 2.021 . S
Co90 O110 2.062 . S
Co90 O114 2.117 . S
Co90 O115 2.020 . S
C91 O111 1.259 . S
C91 O114 1.258 . S
Co92 N101 2.057 . S
Co92 O108 2.117 . S
Co92 O109 2.020 . S
Co92 O111 2.021 . S
Co92 O116 2.062 . S
C93 N95 1.316 . S
C93 N96 1.347 . S
C93 H98 0.931 . S
C94 N95 1.375 . S
C94 C97 1.350 . S
C94 H99 0.930 . S
N95 Co90 2.057 . S
N95 C93 1.316 . S
N95 C94 1.375 . S
N96 C93 1.347 . S
N96 C97 1.373 . S
C97 C94 1.350 . S
C97 N96 1.373 . S
C97 H118 0.931 . S
H98 C93 0.931 . S
H99 C94 0.930 . S
C100 O107 1.259 . S
C100 O108 1.258 . S
N101 Co92 2.057 . S
N101 C102 1.316 . S
N101 C103 1.375 . S
C102 N101 1.316 . S
C102 N104 1.347 . S
C102 H113 0.931 . S
C103 N101 1.375 . S
C103 C105 1.350 . S
C103 H112 0.930 . S
N104 C102 1.347 . S
N104 C105 1.373 . S
C105 C103 1.350 . S
C105 N104 1.373 . S
C105 H119 0.931 . S
C106 O109 1.256 . S
C106 O110 1.255 . S
O107 Co90 2.021 . S
O107 C100 1.259 . S
O108 Co92 2.117 . S
O108 C100 1.258 . S
O109 Co92 2.020 . S
O109 C106 1.256 . S
O110 Co90 2.062 . S
O110 C106 1.255 . S
O111 C91 1.259 . S
O111 Co92 2.021 . S
H112 C103 0.930 . S
H113 C102 0.931 . S
O114 Co90 2.117 . S
O114 C91 1.258 . S
O115 Co90 2.020 . S
O115 C117 1.256 . S
O116 Co92 2.062 . S
O116 C117 1.255 . S
C117 O115 1.256 . S
C117 O116 1.255 . S
H118 C97 0.931 . S
H119 C105 0.931 . S
Co120 N125 2.057 . S
Co120 O137 2.021 . S
Co120 O140 2.062 . S
Co120 O144 2.117 . S
Co120 O145 2.020 . S
C121 O141 1.259 . S
C121 O144 1.258 . S
Co122 N131 2.057 . S
Co122 O138 2.117 . S
Co122 O139 2.020 . S
Co122 O141 2.021 . S
Co122 O146 2.062 . S
C123 N125 1.316 . S
C123 N126 1.347 . S
C123 H128 0.931 . S
C124 N125 1.375 . S
C124 C127 1.350 . S
C124 H129 0.930 . S
N125 Co120 2.057 . S
N125 C123 1.316 . S
N125 C124 1.375 . S
N126 C123 1.347 . S
N126 C127 1.373 . S
C127 C124 1.350 . S
C127 N126 1.373 . S
C127 H148 0.931 . S
H128 C123 0.931 . S
H129 C124 0.930 . S
C130 O137 1.259 . S
C130 O138 1.258 . S
N131 Co122 2.057 . S
N131 C132 1.316 . S
N131 C133 1.375 . S
C132 N131 1.316 . S
C132 N134 1.347 . S
C132 H143 0.931 . S
C133 N131 1.375 . S
C133 C135 1.350 . S
C133 H142 0.930 . S
N134 C132 1.347 . S
N134 C135 1.373 . S
C135 C133 1.350 . S
C135 N134 1.373 . S
C135 H149 0.931 . S
C136 O139 1.256 . S
C136 O140 1.255 . S
O137 Co120 2.021 . S
O137 C130 1.259 . S
O138 Co122 2.117 . S
O138 C130 1.258 . S
O139 Co122 2.020 . S
O139 C136 1.256 . S
O140 Co120 2.062 . S
O140 C136 1.255 . S
O141 C121 1.259 . S
O141 Co122 2.021 . S
H142 C133 0.930 . S
H143 C132 0.931 . S
O144 Co120 2.117 . S
O144 C121 1.258 . S
O145 Co120 2.020 . S
O145 C147 1.256 . S
O146 Co122 2.062 . S
O146 C147 1.255 . S
C147 O145 1.256 . S
C147 O146 1.255 . S
H148 C127 0.931 . S
H149 C135 0.931 . S
Co150 N155 2.057 . S
Co150 O167 2.021 . S
Co150 O170 2.062 . S
Co150 O174 2.117 . S
Co150 O175 2.020 . S
C151 O171 1.259 . S
C151 O174 1.258 . S
Co152 N161 2.057 . S
Co152 O168 2.117 . S
Co152 O169 2.020 . S
Co152 O171 2.021 . S
Co152 O176 2.062 . S
C153 N155 1.316 . S
C153 N156 1.347 . S
C153 H158 0.931 . S
C154 N155 1.375 . S
C154 C157 1.350 . S
C154 H159 0.930 . S
N155 Co150 2.057 . S
N155 C153 1.316 . S
N155 C154 1.375 . S
N156 C153 1.347 . S
N156 C157 1.373 . S
C157 C154 1.350 . S
C157 N156 1.373 . S
C157 H178 0.931 . S
H158 C153 0.931 . S
H159 C154 0.930 . S
C160 O167 1.259 . S
C160 O168 1.258 . S
N161 Co152 2.057 . S
N161 C162 1.316 . S
N161 C163 1.375 . S
C162 N161 1.316 . S
C162 N164 1.347 . S
C162 H173 0.931 . S
C163 N161 1.375 . S
C163 C165 1.350 . S
C163 H172 0.930 . S
N164 C162 1.347 . S
N164 C165 1.373 . S
C165 C163 1.350 . S
C165 N164 1.373 . S
C165 H179 0.931 . S
C166 O169 1.256 . S
C166 O170 1.255 . S
O167 Co150 2.021 . S
O167 C160 1.259 . S
O168 Co152 2.117 . S
O168 C160 1.258 . S
O169 Co152 2.020 . S
O169 C166 1.256 . S
O170 Co150 2.062 . S
O170 C166 1.255 . S
O171 C151 1.259 . S
O171 Co152 2.021 . S
H172 C163 0.930 . S
H173 C162 0.931 . S
O174 Co150 2.117 . S
O174 C151 1.258 . S
O175 Co150 2.020 . S
O175 C177 1.256 . S
O176 Co152 2.062 . S
O176 C177 1.255 . S
C177 O175 1.256 . S
C177 O176 1.255 . S
H178 C157 0.931 . S
H179 C165 0.931 . S
Co180 N185 2.057 . S
Co180 O197 2.021 . S
Co180 O200 2.062 . S
Co180 O204 2.117 . S
Co180 O205 2.020 . S
C181 O201 1.259 . S
C181 O204 1.258 . S
Co182 N191 2.057 . S
Co182 O198 2.117 . S
Co182 O199 2.020 . S
Co182 O201 2.021 . S
Co182 O206 2.062 . S
C183 N185 1.316 . S
C183 N186 1.347 . S
C183 H188 0.931 . S
C184 N185 1.375 . S
C184 C187 1.350 . S
C184 H189 0.930 . S
N185 Co180 2.057 . S
N185 C183 1.316 . S
N185 C184 1.375 . S
N186 C183 1.347 . S
N186 C187 1.373 . S
C187 C184 1.350 . S
C187 N186 1.373 . S
C187 H208 0.931 . S
H188 C183 0.931 . S
H189 C184 0.930 . S
C190 O197 1.259 . S
C190 O198 1.258 . S
N191 Co182 2.057 . S
N191 C192 1.316 . S
N191 C193 1.375 . S
C192 N191 1.316 . S
C192 N194 1.347 . S
C192 H203 0.931 . S
C193 N191 1.375 . S
C193 C195 1.350 . S
C193 H202 0.930 . S
N194 C192 1.347 . S
N194 C195 1.373 . S
C195 C193 1.350 . S
C195 N194 1.373 . S
C195 H209 0.931 . S
C196 O199 1.256 . S
C196 O200 1.255 . S
O197 Co180 2.021 . S
O197 C190 1.259 . S
O198 Co182 2.117 . S
O198 C190 1.258 . S
O199 Co182 2.020 . S
O199 C196 1.256 . S
O200 Co180 2.062 . S
O200 C196 1.255 . S
O201 C181 1.259 . S
O201 Co182 2.021 . S
H202 C193 0.930 . S
H203 C192 0.931 . S
O204 Co180 2.117 . S
O204 C181 1.258 . S
O205 Co180 2.020 . S
O205 C207 1.256 . S
O206 Co182 2.062 . S
O206 C207 1.255 . S
C207 O205 1.256 . S
C207 O206 1.255 . S
H208 C187 0.931 . S
H209 C195 0.931 . S
Co210 N215 2.057 . S
Co210 O227 2.021 . S
Co210 O230 2.062 . S
Co210 O234 2.117 . S
Co210 O235 2.020 . S
C211 O231 1.259 . S
C211 O234 1.258 . S
Co212 N221 2.057 . S
Co212 O228 2.117 . S
Co212 O229 2.020 . S
Co212 O231 2.021 . S
Co212 O236 2.062 . S
C213 N215 1.316 . S
C213 N216 1.347 . S
C213 H218 0.931 . S
C214 N215 1.375 . S
C214 C217 1.350 . S
C214 H219 0.930 . S
N215 Co210 2.057 . S
N215 C213 1.316 . S
N215 C214 1.375 . S
N216 C213 1.347 . S
N216 C217 1.373 . S
C217 C214 1.350 . S
C217 N216 1.373 . S
C217 H238 0.931 . S
H218 C213 0.931 . S
H219 C214 0.930 . S
C220 O227 1.259 . S
C220 O228 1.258 . S
N221 Co212 2.057 . S
N221 C222 1.316 . S
N221 C223 1.375 . S
C222 N221 1.316 . S
C222 N224 1.347 . S
C222 H233 0.931 . S
C223 N221 1.375 . S
C223 C225 1.350 . S
C223 H232 0.930 . S
N224 C222 1.347 . S
N224 C225 1.373 . S
C225 C223 1.350 . S
C225 N224 1.373 . S
C225 H239 0.931 . S
C226 O229 1.256 . S
C226 O230 1.255 . S
O227 Co210 2.021 . S
O227 C220 1.259 . S
O228 Co212 2.117 . S
O228 C220 1.258 . S
O229 Co212 2.020 . S
O229 C226 1.256 . S
O230 Co210 2.062 . S
O230 C226 1.255 . S
O231 C211 1.259 . S
O231 Co212 2.021 . S
H232 C223 0.930 . S
H233 C222 0.931 . S
O234 Co210 2.117 . S
O234 C211 1.258 . S
O235 Co210 2.020 . S
O235 C237 1.256 . S
O236 Co212 2.062 . S
O236 C237 1.255 . S
C237 O235 1.256 . S
C237 O236 1.255 . S
H238 C217 0.931 . S
H239 C225 0.931 . S
Co240 O243 2.042 . S
Co240 O250 2.264 . S
Co240 O269 2.286 . S
Co240 O270 2.069 . S
Co240 O272 2.015 1_455 S
Co241 O243 2.122 . S
Co241 O249 2.073 . S
Co241 O250 2.327 . S
Co241 O251 1.976 1_455 S
Co242 O243 2.086 1_545 S
Co242 O245 2.088 1_455 S
Co242 O252 2.107 1_445 S
Co242 O253 2.148 . S
Co242 O257 2.116 . S
Co242 O271 2.139 1_445 S
O243 Co240 2.042 . S
O243 Co241 2.122 . S
O243 Co242 2.086 1_565 S
O243 H244 0.980 . S
H244 O243 0.980 . S
O245 Co242 2.088 1_655 S
O245 Co246 2.042 . S
O245 Co247 2.122 . S
O245 H248 0.980 . S
Co246 O245 2.042 . S
Co246 O254 2.286 . S
Co246 O255 2.069 . S
Co246 O256 2.015 1_655 S
Co246 O259 2.264 . S
Co247 O245 2.122 . S
Co247 O258 1.976 1_655 S
Co247 O259 2.327 . S
Co247 O260 2.073 . S
H248 O245 0.980 . S
O249 Co241 2.073 . S
O249 C264 1.245 . S
O250 Co240 2.264 . S
O250 Co241 2.327 . S
O250 C264 1.257 . S
O251 Co241 1.976 1_655 S
O251 C263 1.251 . S
O252 Co242 2.107 1_665 S
O252 C263 1.274 . S
O253 Co242 2.148 . S
O253 C266 1.246 . S
O254 Co246 2.286 . S
O254 C265 1.259 . S
O255 Co246 2.069 . S
O255 C265 1.289 . S
O256 Co246 2.015 1_455 S
O256 C266 1.257 . S
O257 Co242 2.116 . S
O257 C267 1.274 . S
O258 Co247 1.976 1_455 S
O258 C267 1.251 . S
O259 Co246 2.264 . S
O259 Co247 2.327 . S
O259 C268 1.257 . S
O260 Co247 2.073 . S
O260 C268 1.245 . S
C261 O269 1.259 . S
C261 O270 1.289 . S
C262 O271 1.246 . S
C262 O272 1.257 . S
C263 O251 1.251 . S
C263 O252 1.274 . S
C264 O249 1.245 . S
C264 O250 1.257 . S
C265 O254 1.259 . S
C265 O255 1.289 . S
C266 O253 1.246 . S
C266 O256 1.257 . S
C267 O257 1.274 . S
C267 O258 1.251 . S
C268 O259 1.257 . S
C268 O260 1.245 . S
O269 Co240 2.286 . S
O269 C261 1.259 . S
O270 Co240 2.069 . S
O270 C261 1.289 . S
O271 Co242 2.139 1_665 S
O271 C262 1.246 . S
O272 Co240 2.015 1_655 S
O272 C262 1.257 . S
Co273 O276 2.042 1_556 S
Co273 O283 2.264 1_556 S
Co273 O302 2.286 . S
Co273 O303 2.069 . S
Co273 O305 2.015 . S
Co274 O276 2.122 . S
Co274 O282 2.073 . S
Co274 O283 2.327 . S
Co274 O284 1.976 . S
Co275 O276 2.082 1_545 S
Co275 O278 2.092 1_554 S
Co275 O285 2.109 1_545 S
Co275 O286 2.147 . S
Co275 O290 2.113 1_554 S
Co275 O304 2.140 1_544 S
O276 Co273 2.042 1_554 S
O276 Co274 2.122 . S
O276 Co275 2.082 1_565 S
O276 H277 0.980 . S
H277 O276 0.980 . S
O278 Co275 2.092 1_556 S
O278 Co279 2.042 1_556 S
O278 Co280 2.122 . S
O278 H281 0.980 . S
Co279 O278 2.042 1_554 S
Co279 O287 2.286 . S
Co279 O288 2.069 . S
Co279 O289 2.015 . S
Co279 O292 2.264 1_554 S
Co280 O278 2.122 . S
Co280 O291 1.976 . S
Co280 O292 2.327 . S
Co280 O293 2.073 . S
H281 O278 0.980 . S
O282 Co274 2.073 . S
O282 C297 1.245 . S
O283 Co273 2.264 1_554 S
O283 Co274 2.327 . S
O283 C297 1.257 . S
O284 Co274 1.976 . S
O284 C296 1.251 . S
O285 Co275 2.109 1_565 S
O285 C296 1.274 . S
O286 Co275 2.147 . S
O286 C299 1.246 . S
O287 Co279 2.286 . S
O287 C298 1.259 . S
O288 Co279 2.069 . S
O288 C298 1.289 . S
O289 Co279 2.015 . S
O289 C299 1.257 . S
O290 Co275 2.113 1_556 S
O290 C300 1.274 . S
O291 Co280 1.976 . S
O291 C300 1.251 . S
O292 Co279 2.264 1_556 S
O292 Co280 2.327 . S
O292 C301 1.257 . S
O293 Co280 2.073 . S
O293 C301 1.245 . S
C294 O302 1.259 . S
C294 O303 1.289 . S
C295 O304 1.246 . S
C295 O305 1.257 . S
C296 O284 1.251 . S
C296 O285 1.274 . S
C297 O282 1.245 . S
C297 O283 1.257 . S
C298 O287 1.259 . S
C298 O288 1.289 . S
C299 O286 1.246 . S
C299 O289 1.257 . S
C300 O290 1.274 . S
C300 O291 1.251 . S
C301 O292 1.257 . S
C301 O293 1.245 . S
O302 Co273 2.286 . S
O302 C294 1.259 . S
O303 Co273 2.069 . S
O303 C294 1.289 . S
O304 Co275 2.140 1_566 S
O304 C295 1.246 . S
O305 Co273 2.015 . S
O305 C295 1.257 . S
Co306 O309 2.042 1_556 S
Co306 O316 2.264 1_556 S
Co306 O335 2.286 . S
Co306 O336 2.069 . S
Co306 O338 2.015 1_455 S
Co307 O309 2.122 . S
Co307 O315 2.073 . S
Co307 O316 2.327 . S
Co307 O317 1.976 1_455 S
Co308 O309 2.090 . S
Co308 O311 2.084 1_454 S
Co308 O318 2.109 1_455 S
Co308 O319 2.145 . S
Co308 O323 2.114 1_554 S
Co308 O337 2.142 1_454 S
O309 Co306 2.042 1_554 S
O309 Co307 2.122 . S
O309 Co308 2.090 . S
O309 H310 0.980 . S
H310 O309 0.980 . S
O311 Co308 2.084 1_656 S
O311 Co312 2.042 1_556 S
O311 Co313 2.122 . S
O311 H314 0.980 . S
Co312 O311 2.042 1_554 S
Co312 O320 2.286 . S
Co312 O321 2.069 . S
Co312 O322 2.015 1_655 S
Co312 O325 2.264 1_554 S
Co313 O311 2.122 . S
Co313 O324 1.976 1_655 S
Co313 O325 2.327 . S
Co313 O326 2.073 . S
H314 O311 0.980 . S
O315 Co307 2.073 . S
O315 C330 1.245 . S
O316 Co306 2.264 1_554 S
O316 Co307 2.327 . S
O316 C330 1.257 . S
O317 Co307 1.976 1_655 S
O317 C329 1.251 . S
O318 Co308 2.109 1_655 S
O318 C329 1.274 . S
O319 Co308 2.145 . S
O319 C332 1.246 . S
O320 Co312 2.286 . S
O320 C331 1.259 . S
O321 Co312 2.069 . S
O321 C331 1.289 . S
O322 Co312 2.015 1_455 S
O322 C332 1.257 . S
O323 Co308 2.114 1_556 S
O323 C333 1.274 . S
O324 Co313 1.976 1_455 S
O324 C333 1.251 . S
O325 Co312 2.264 1_556 S
O325 Co313 2.327 . S
O325 C334 1.257 . S
O326 Co313 2.073 . S
O326 C334 1.245 . S
C327 O335 1.259 . S
C327 O336 1.289 . S
C328 O337 1.246 . S
C328 O338 1.257 . S
C329 O317 1.251 . S
C329 O318 1.274 . S
C330 O315 1.245 . S
C330 O316 1.257 . S
C331 O320 1.259 . S
C331 O321 1.289 . S
C332 O319 1.246 . S
C332 O322 1.257 . S
C333 O323 1.274 . S
C333 O324 1.251 . S
C334 O325 1.257 . S
C334 O326 1.245 . S
O335 Co306 2.286 . S
O335 C327 1.259 . S
O336 Co306 2.069 . S
O336 C327 1.289 . S
O337 Co308 2.142 1_656 S
O337 C328 1.246 . S
O338 Co306 2.015 1_655 S
O338 C328 1.257 . S
Co339 O342 2.042 1_556 S
Co339 O349 2.264 1_556 S
Co339 O368 2.286 . S
Co339 O369 2.069 . S
Co339 O371 2.015 . S
Co340 O342 2.122 . S
Co340 O348 2.073 . S
Co340 O349 2.327 . S
Co340 O350 1.976 . S
Co341 O342 2.087 . S
Co341 O344 2.087 1_554 S
Co341 O351 2.111 . S
Co341 O352 2.143 . S
Co341 O356 2.111 1_554 S
Co341 O370 2.143 1_554 S
O342 Co339 2.042 1_554 S
O342 Co340 2.122 . S
O342 Co341 2.087 . S
O342 H343 0.980 . S
H343 O342 0.980 . S
O344 Co341 2.087 1_556 S
O344 Co345 2.042 1_556 S
O344 Co346 2.122 . S
O344 H347 0.980 . S
Co345 O344 2.042 1_554 S
Co345 O353 2.286 . S
Co345 O354 2.069 . S
Co345 O355 2.015 . S
Co345 O358 2.264 1_554 S
Co346 O344 2.122 . S
Co346 O357 1.976 . S
Co346 O358 2.327 . S
Co346 O359 2.073 . S
H347 O344 0.980 . S
O348 Co340 2.073 . S
O348 C363 1.245 . S
O349 Co339 2.264 1_554 S
O349 Co340 2.327 . S
O349 C363 1.257 . S
O350 Co340 1.976 . S
O350 C362 1.251 . S
O351 Co341 2.111 . S
O351 C362 1.274 . S
O352 Co341 2.143 . S
O352 C365 1.246 . S
O353 Co345 2.286 . S
O353 C364 1.259 . S
O354 Co345 2.069 . S
O354 C364 1.289 . S
O355 Co345 2.015 . S
O355 C365 1.257 . S
O356 Co341 2.111 1_556 S
O356 C366 1.274 . S
O357 Co346 1.976 . S
O357 C366 1.251 . S
O358 Co345 2.264 1_556 S
O358 Co346 2.327 . S
O358 C367 1.257 . S
O359 Co346 2.073 . S
O359 C367 1.245 . S
C360 O368 1.259 . S
C360 O369 1.289 . S
C361 O370 1.246 . S
C361 O371 1.257 . S
C362 O350 1.251 . S
C362 O351 1.274 . S
C363 O348 1.245 . S
C363 O349 1.257 . S
C364 O353 1.259 . S
C364 O354 1.289 . S
C365 O352 1.246 . S
C365 O355 1.257 . S
C366 O356 1.274 . S
C366 O357 1.251 . S
C367 O358 1.257 . S
C367 O359 1.245 . S
O368 Co339 2.286 . S
O368 C360 1.259 . S
O369 Co339 2.069 . S
O369 C360 1.289 . S
O370 Co341 2.143 1_556 S
O370 C361 1.246 . S
O371 Co339 2.015 . S
O371 C361 1.257 . S
Co372 O375 2.042 . S
Co372 O382 2.264 . S
Co372 O401 2.286 . S
Co372 O402 2.069 . S
Co372 O404 2.015 . S
Co373 O375 2.122 . S
Co373 O381 2.073 . S
Co373 O382 2.327 . S
Co373 O383 1.976 . S
Co374 O375 2.090 . S
Co374 O377 2.084 1_455 S
Co374 O384 2.113 . S
Co374 O385 2.141 1_455 S
Co374 O389 2.110 1_455 S
Co374 O403 2.146 . S
O375 Co372 2.042 . S
O375 Co373 2.122 . S
O375 Co374 2.090 . S
O375 H376 0.980 . S
H376 O375 0.980 . S
O377 Co374 2.084 1_655 S
O377 Co378 2.042 . S
O377 Co379 2.122 . S
O377 H380 0.980 . S
Co378 O377 2.042 . S
Co378 O386 2.286 . S
Co378 O387 2.069 . S
Co378 O388 2.015 . S
Co378 O391 2.264 . S
Co379 O377 2.122 . S
Co379 O390 1.976 . S
Co379 O391 2.327 . S
Co379 O392 2.073 . S
H380 O377 0.980 . S
O381 Co373 2.073 . S
O381 C396 1.245 . S
O382 Co372 2.264 . S
O382 Co373 2.327 . S
O382 C396 1.257 . S
O383 Co373 1.976 . S
O383 C395 1.251 . S
O384 Co374 2.113 . S
O384 C395 1.274 . S
O385 Co374 2.141 1_655 S
O385 C398 1.246 . S
O386 Co378 2.286 . S
O386 C397 1.259 . S
O387 Co378 2.069 . S
O387 C397 1.289 . S
O388 Co378 2.015 . S
O388 C398 1.257 . S
O389 Co374 2.110 1_655 S
O389 C399 1.274 . S
O390 Co379 1.976 . S
O390 C399 1.251 . S
O391 Co378 2.264 . S
O391 Co379 2.327 . S
O391 C400 1.257 . S
O392 Co379 2.073 . S
O392 C400 1.245 . S
C393 O401 1.259 . S
C393 O402 1.289 . S
C394 O403 1.246 . S
C394 O404 1.257 . S
C395 O383 1.251 . S
C395 O384 1.274 . S
C396 O381 1.245 . S
C396 O382 1.257 . S
C397 O386 1.259 . S
C397 O387 1.289 . S
C398 O385 1.246 . S
C398 O388 1.257 . S
C399 O389 1.274 . S
C399 O390 1.251 . S
C400 O391 1.257 . S
C400 O392 1.245 . S
O401 Co372 2.286 . S
O401 C393 1.259 . S
O402 Co372 2.069 . S
O402 C393 1.289 . S
O403 Co374 2.146 . S
O403 C394 1.246 . S
O404 Co372 2.015 . S
O404 C394 1.257 . S
Co405 O408 2.042 . S
Co405 O415 2.264 . S
Co405 O434 2.286 . S
Co405 O435 2.069 . S
Co405 O437 2.015 1_565 S
Co406 O408 2.122 . S
Co406 O414 2.073 . S
Co406 O415 2.327 . S
Co406 O416 1.976 1_565 S
Co407 O408 2.082 1_545 S
Co407 O410 2.091 . S
Co407 O417 2.115 . S
Co407 O418 2.141 1_545 S
Co407 O422 2.108 1_545 S
Co407 O436 2.146 . S
O408 Co405 2.042 . S
O408 Co406 2.122 . S
O408 Co407 2.082 1_565 S
O408 H409 0.980 . S
H409 O408 0.980 . S
O410 Co407 2.091 . S
O410 Co411 2.042 . S
O410 Co412 2.122 . S
O410 H413 0.980 . S
Co411 O410 2.042 . S
Co411 O419 2.286 . S
Co411 O420 2.069 . S
Co411 O421 2.015 1_545 S
Co411 O424 2.264 . S
Co412 O410 2.122 . S
Co412 O423 1.976 1_545 S
Co412 O424 2.327 . S
Co412 O425 2.073 . S
H413 O410 0.980 . S
O414 Co406 2.073 . S
O414 C429 1.245 . S
O415 Co405 2.264 . S
O415 Co406 2.327 . S
O415 C429 1.257 . S
O416 Co406 1.976 1_545 S
O416 C428 1.251 . S
O417 Co407 2.115 . S
O417 C428 1.274 . S
O418 Co407 2.141 1_565 S
O418 C431 1.246 . S
O419 Co411 2.286 . S
O419 C430 1.259 . S
O420 Co411 2.069 . S
O420 C430 1.289 . S
O421 Co411 2.015 1_565 S
O421 C431 1.257 . S
O422 Co407 2.108 1_565 S
O422 C432 1.274 . S
O423 Co412 1.976 1_565 S
O423 C432 1.251 . S
O424 Co411 2.264 . S
O424 Co412 2.327 . S
O424 C433 1.257 . S
O425 Co412 2.073 . S
O425 C433 1.245 . S
C426 O434 1.259 . S
C426 O435 1.289 . S
C427 O436 1.246 . S
C427 O437 1.257 . S
C428 O416 1.251 . S
C428 O417 1.274 . S
C429 O414 1.245 . S
C429 O415 1.257 . S
C430 O419 1.259 . S
C430 O420 1.289 . S
C431 O418 1.246 . S
C431 O421 1.257 . S
C432 O422 1.274 . S
C432 O423 1.251 . S
C433 O424 1.257 . S
C433 O425 1.245 . S
O434 Co405 2.286 . S
O434 C426 1.259 . S
O435 Co405 2.069 . S
O435 C426 1.289 . S
O436 Co407 2.146 . S
O436 C427 1.246 . S
O437 Co405 2.015 1_545 S
O437 C427 1.257 . S
C438 C439 1.349 . S
C438 C440 1.327 . S
C438 H463 0.950 . S
C439 C438 1.349 . S
C439 C455 1.349 . S
C440 C438 1.327 . S
C440 C459 1.429 . S
C440 H464 0.950 . S
C441 C458 1.574 . S
C441 C460 1.368 . S
C441 H465 0.949 . S
H442 C446 0.949 . S
C443 C444 1.349 . S
C443 C445 1.327 . S
C443 H466 0.950 . S
C444 C443 1.349 . S
C444 C456 1.349 . S
C445 C443 1.327 . S
C445 C461 1.429 . S
C445 H467 0.950 . S
C446 H442 0.949 . S
C446 C454 1.574 . S
C446 C462 1.368 . S
H447 C455 0.950 . S
H448 C453 0.950 . S
H449 C454 0.949 . S
H450 C456 0.950 . S
H451 C457 0.950 . S
H452 C458 0.949 . S
C453 H448 0.950 . S
C453 C455 1.327 . S
C453 C459 1.429 . S
C454 C446 1.574 . S
C454 H449 0.949 . S
C454 C460 1.368 . S
C455 C439 1.349 . S
C455 H447 0.950 . S
C455 C453 1.327 . S
C456 C444 1.349 . S
C456 H450 0.950 . S
C456 C457 1.327 . S
C457 H451 0.950 . S
C457 C456 1.327 . S
C457 C461 1.429 . S
C458 C441 1.574 . S
C458 H452 0.949 . S
C458 C462 1.368 . S
C459 C440 1.429 . S
C459 C453 1.429 . S
C459 C460 1.523 . S
C460 C441 1.368 . S
C460 C454 1.368 . S
C460 C459 1.523 . S
C461 C445 1.429 . S
C461 C457 1.429 . S
C461 C462 1.523 . S
C462 C446 1.368 . S
C462 C458 1.368 . S
C462 C461 1.523 . S
H463 C438 0.950 . S
H464 C440 0.950 . S
H465 C441 0.949 . S
H466 C443 0.950 . S
H467 C445 0.950 . S
C468 C469 1.349 . S
C468 C470 1.327 . S
C468 H493 0.950 . S
C469 C468 1.349 . S
C469 C485 1.349 . S
C470 C468 1.327 . S
C470 C489 1.429 . S
C470 H494 0.950 . S
C471 C488 1.574 . S
C471 C490 1.368 . S
C471 H495 0.949 . S
H472 C476 0.949 . S
C473 C474 1.349 . S
C473 C475 1.327 . S
C473 H496 0.950 . S
C474 C473 1.349 . S
C474 C486 1.349 . S
C475 C473 1.327 . S
C475 C491 1.429 . S
C475 H497 0.950 . S
C476 H472 0.949 . S
C476 C484 1.574 . S
C476 C492 1.368 . S
H477 C485 0.950 . S
H478 C483 0.950 . S
H479 C484 0.949 . S
H480 C486 0.950 . S
H481 C487 0.950 . S
H482 C488 0.949 . S
C483 H478 0.950 . S
C483 C485 1.327 . S
C483 C489 1.429 . S
C484 C476 1.574 . S
C484 H479 0.949 . S
C484 C490 1.368 . S
C485 C469 1.349 . S
C485 H477 0.950 . S
C485 C483 1.327 . S
C486 C474 1.349 . S
C486 H480 0.950 . S
C486 C487 1.327 . S
C487 H481 0.950 . S
C487 C486 1.327 . S
C487 C491 1.429 . S
C488 C471 1.574 . S
C488 H482 0.949 . S
C488 C492 1.368 . S
C489 C470 1.429 . S
C489 C483 1.429 . S
C489 C490 1.523 . S
C490 C471 1.368 . S
C490 C484 1.368 . S
C490 C489 1.523 . S
C491 C475 1.429 . S
C491 C487 1.429 . S
C491 C492 1.523 . S
C492 C476 1.368 . S
C492 C488 1.368 . S
C492 C491 1.523 . S
H493 C468 0.950 . S
H494 C470 0.950 . S
H495 C471 0.949 . S
H496 C473 0.950 . S
H497 C475 0.950 . S
C498 C499 1.349 . S
C498 C500 1.327 . S
C498 H523 0.950 . S
C499 C498 1.349 . S
C499 C515 1.349 . S
C500 C498 1.327 . S
C500 C519 1.429 . S
C500 H524 0.950 . S
C501 C518 1.574 . S
C501 C520 1.368 . S
C501 H525 0.949 . S
H502 C506 0.949 . S
C503 C504 1.349 . S
C503 C505 1.327 . S
C503 H526 0.950 . S
C504 C503 1.349 . S
C504 C516 1.349 . S
C505 C503 1.327 . S
C505 C521 1.429 . S
C505 H527 0.950 . S
C506 H502 0.949 . S
C506 C514 1.574 . S
C506 C522 1.368 . S
H507 C515 0.950 . S
H508 C513 0.950 . S
H509 C514 0.949 . S
H510 C516 0.950 . S
H511 C517 0.950 . S
H512 C518 0.949 . S
C513 H508 0.950 . S
C513 C515 1.327 . S
C513 C519 1.429 . S
C514 C506 1.574 . S
C514 H509 0.949 . S
C514 C520 1.368 . S
C515 C499 1.349 . S
C515 H507 0.950 . S
C515 C513 1.327 . S
C516 C504 1.349 . S
C516 H510 0.950 . S
C516 C517 1.327 . S
C517 H511 0.950 . S
C517 C516 1.327 . S
C517 C521 1.429 . S
C518 C501 1.574 . S
C518 H512 0.949 . S
C518 C522 1.368 . S
C519 C500 1.429 . S
C519 C513 1.429 . S
C519 C520 1.523 . S
C520 C501 1.368 . S
C520 C514 1.368 . S
C520 C519 1.523 . S
C521 C505 1.429 . S
C521 C517 1.429 . S
C521 C522 1.523 . S
C522 C506 1.368 . S
C522 C518 1.368 . S
C522 C521 1.523 . S
H523 C498 0.950 . S
H524 C500 0.950 . S
H525 C501 0.949 . S
H526 C503 0.950 . S
H527 C505 0.950 . S
C528 C529 1.349 . S
C528 C530 1.327 . S
C528 H553 0.950 . S
C529 C528 1.349 . S
C529 C545 1.349 . S
C530 C528 1.327 . S
C530 C549 1.429 . S
C530 H554 0.950 . S
C531 C548 1.574 . S
C531 C550 1.368 . S
C531 H555 0.949 . S
H532 C536 0.949 . S
C533 C534 1.349 . S
C533 C535 1.327 . S
C533 H556 0.950 . S
C534 C533 1.349 . S
C534 C546 1.349 . S
C535 C533 1.327 . S
C535 C551 1.429 . S
C535 H557 0.950 . S
C536 H532 0.949 . S
C536 C544 1.574 . S
C536 C552 1.368 . S
H537 C545 0.950 . S
H538 C543 0.950 . S
H539 C544 0.949 . S
H540 C546 0.950 . S
H541 C547 0.950 . S
H542 C548 0.949 . S
C543 H538 0.950 . S
C543 C545 1.327 . S
C543 C549 1.429 . S
C544 C536 1.574 . S
C544 H539 0.949 . S
C544 C550 1.368 . S
C545 C529 1.349 . S
C545 H537 0.950 . S
C545 C543 1.327 . S
C546 C534 1.349 . S
C546 H540 0.950 . S
C546 C547 1.327 . S
C547 H541 0.950 . S
C547 C546 1.327 . S
C547 C551 1.429 . S
C548 C531 1.574 . S
C548 H542 0.949 . S
C548 C552 1.368 . S
C549 C530 1.429 . S
C549 C543 1.429 . S
C549 C550 1.523 . S
C550 C531 1.368 . S
C550 C544 1.368 . S
C550 C549 1.523 . S
C551 C535 1.429 . S
C551 C547 1.429 . S
C551 C552 1.523 . S
C552 C536 1.368 . S
C552 C548 1.368 . S
C552 C551 1.523 . S
H553 C528 0.950 . S
H554 C530 0.950 . S
H555 C531 0.949 . S
H556 C533 0.950 . S
H557 C535 0.950 . S
C558 C559 1.349 . S
C558 C560 1.327 . S
C558 H583 0.950 . S
C559 C558 1.349 . S
C559 C575 1.349 . S
C560 C558 1.327 . S
C560 C579 1.429 . S
C560 H584 0.950 . S
C561 C578 1.574 . S
C561 C580 1.368 . S
C561 H585 0.949 . S
H562 C566 0.949 . S
C563 C564 1.349 . S
C563 C565 1.327 . S
C563 H586 0.950 . S
C564 C563 1.349 . S
C564 C576 1.349 . S
C565 C563 1.327 . S
C565 C581 1.429 . S
C565 H587 0.950 . S
C566 H562 0.949 . S
C566 C574 1.574 . S
C566 C582 1.368 . S
H567 C575 0.950 . S
H568 C573 0.950 . S
H569 C574 0.949 . S
H570 C576 0.950 . S
H571 C577 0.950 . S
H572 C578 0.949 . S
C573 H568 0.950 . S
C573 C575 1.327 . S
C573 C579 1.429 . S
C574 C566 1.574 . S
C574 H569 0.949 . S
C574 C580 1.368 . S
C575 C559 1.349 . S
C575 H567 0.950 . S
C575 C573 1.327 . S
C576 C564 1.349 . S
C576 H570 0.950 . S
C576 C577 1.327 . S
C577 H571 0.950 . S
C577 C576 1.327 . S
C577 C581 1.429 . S
C578 C561 1.574 . S
C578 H572 0.949 . S
C578 C582 1.368 . S
C579 C560 1.429 . S
C579 C573 1.429 . S
C579 C580 1.523 . S
C580 C561 1.368 . S
C580 C574 1.368 . S
C580 C579 1.523 . S
C581 C565 1.429 . S
C581 C577 1.429 . S
C581 C582 1.523 . S
C582 C566 1.368 . S
C582 C578 1.368 . S
C582 C581 1.523 . S
H583 C558 0.950 . S
H584 C560 0.950 . S
H585 C561 0.949 . S
H586 C563 0.950 . S
H587 C565 0.950 . S
C588 C589 1.349 . S
C588 C590 1.327 . S
C588 H613 0.950 . S
C589 C588 1.349 . S
C589 C605 1.349 . S
C590 C588 1.327 . S
C590 C609 1.429 . S
C590 H614 0.950 . S
C591 C608 1.574 . S
C591 C610 1.368 . S
C591 H615 0.949 . S
H592 C596 0.949 . S
C593 C594 1.349 . S
C593 C595 1.327 . S
C593 H616 0.950 . S
C594 C593 1.349 . S
C594 C606 1.349 . S
C595 C593 1.327 . S
C595 C611 1.429 . S
C595 H617 0.950 . S
C596 H592 0.949 . S
C596 C604 1.574 . S
C596 C612 1.368 . S
H597 C605 0.950 . S
H598 C603 0.950 . S
H599 C604 0.949 . S
H600 C606 0.950 . S
H601 C607 0.950 . S
H602 C608 0.949 . S
C603 H598 0.950 . S
C603 C605 1.327 . S
C603 C609 1.429 . S
C604 C596 1.574 . S
C604 H599 0.949 . S
C604 C610 1.368 . S
C605 C589 1.349 . S
C605 H597 0.950 . S
C605 C603 1.327 . S
C606 C594 1.349 . S
C606 H600 0.950 . S
C606 C607 1.327 . S
C607 H601 0.950 . S
C607 C606 1.327 . S
C607 C611 1.429 . S
C608 C591 1.574 . S
C608 H602 0.949 . S
C608 C612 1.368 . S
C609 C590 1.429 . S
C609 C603 1.429 . S
C609 C610 1.523 . S
C610 C591 1.368 . S
C610 C604 1.368 . S
C610 C609 1.523 . S
C611 C595 1.429 . S
C611 C607 1.429 . S
C611 C612 1.523 . S
C612 C596 1.368 . S
C612 C608 1.368 . S
C612 C611 1.523 . S
H613 C588 0.950 . S
H614 C590 0.950 . S
H615 C591 0.949 . S
H616 C593 0.950 . S
H617 C595 0.950 . S
C618 C619 1.349 . S
C618 C620 1.327 . S
C618 H643 0.950 . S
C619 C618 1.349 . S
C619 C635 1.349 . S
C620 C618 1.327 . S
C620 C639 1.429 . S
C620 H644 0.950 . S
C621 C638 1.574 . S
C621 C640 1.368 . S
C621 H645 0.949 . S
H622 C626 0.949 . S
C623 C624 1.349 . S
C623 C625 1.327 . S
C623 H646 0.950 . S
C624 C623 1.349 . S
C624 C636 1.349 . S
C625 C623 1.327 . S
C625 C641 1.429 . S
C625 H647 0.950 . S
C626 H622 0.949 . S
C626 C634 1.574 . S
C626 C642 1.368 . S
H627 C635 0.950 . S
H628 C633 0.950 . S
H629 C634 0.949 . S
H630 C636 0.950 . S
H631 C637 0.950 . S
H632 C638 0.949 . S
C633 H628 0.950 . S
C633 C635 1.327 . S
C633 C639 1.429 . S
C634 C626 1.574 . S
C634 H629 0.949 . S
C634 C640 1.368 . S
C635 C619 1.349 . S
C635 H627 0.950 . S
C635 C633 1.327 . S
C636 C624 1.349 . S
C636 H630 0.950 . S
C636 C637 1.327 . S
C637 H631 0.950 . S
C637 C636 1.327 . S
C637 C641 1.429 . S
C638 C621 1.574 . S
C638 H632 0.949 . S
C638 C642 1.368 . S
C639 C620 1.429 . S
C639 C633 1.429 . S
C639 C640 1.523 . S
C640 C621 1.368 . S
C640 C634 1.368 . S
C640 C639 1.523 . S
C641 C625 1.429 . S
C641 C637 1.429 . S
C641 C642 1.523 . S
C642 C626 1.368 . S
C642 C638 1.368 . S
C642 C641 1.523 . S
H643 C618 0.950 . S
H644 C620 0.950 . S
H645 C621 0.949 . S
H646 C623 0.950 . S
H647 C625 0.950 . S
C648 C649 1.349 . S
C648 C650 1.327 . S
C648 H673 0.950 . S
C649 C648 1.349 . S
C649 C665 1.349 . S
C650 C648 1.327 . S
C650 C669 1.429 . S
C650 H674 0.950 . S
C651 C668 1.574 . S
C651 C670 1.368 . S
C651 H675 0.949 . S
H652 C656 0.949 . S
C653 C654 1.349 . S
C653 C655 1.327 . S
C653 H676 0.950 . S
C654 C653 1.349 . S
C654 C666 1.349 . S
C655 C653 1.327 . S
C655 C671 1.429 . S
C655 H677 0.950 . S
C656 H652 0.949 . S
C656 C664 1.574 . S
C656 C672 1.368 . S
H657 C665 0.950 . S
H658 C663 0.950 . S
H659 C664 0.949 . S
H660 C666 0.950 . S
H661 C667 0.950 . S
H662 C668 0.949 . S
C663 H658 0.950 . S
C663 C665 1.327 . S
C663 C669 1.429 . S
C664 C656 1.574 . S
C664 H659 0.949 . S
C664 C670 1.368 . S
C665 C649 1.349 . S
C665 H657 0.950 . S
C665 C663 1.327 . S
C666 C654 1.349 . S
C666 H660 0.950 . S
C666 C667 1.327 . S
C667 H661 0.950 . S
C667 C666 1.327 . S
C667 C671 1.429 . S
C668 C651 1.574 . S
C668 H662 0.949 . S
C668 C672 1.368 . S
C669 C650 1.429 . S
C669 C663 1.429 . S
C669 C670 1.523 . S
C670 C651 1.368 . S
C670 C664 1.368 . S
C670 C669 1.523 . S
C671 C655 1.429 . S
C671 C667 1.429 . S
C671 C672 1.523 . S
C672 C656 1.368 . S
C672 C668 1.368 . S
C672 C671 1.523 . S
H673 C648 0.950 . S
H674 C650 0.950 . S
H675 C651 0.949 . S
H676 C653 0.950 . S
H677 C655 0.950 . S
C678 C679 1.349 . S
C678 C680 1.327 . S
C678 H703 0.950 . S
C679 C678 1.349 . S
C679 C695 1.349 . S
C680 C678 1.327 . S
C680 C699 1.429 . S
C680 H704 0.950 . S
C681 C698 1.574 . S
C681 C700 1.368 . S
C681 H705 0.949 . S
H682 C686 0.949 . S
C683 C684 1.349 . S
C683 C685 1.327 . S
C683 H706 0.950 . S
C684 C683 1.349 . S
C684 C696 1.349 . S
C685 C683 1.327 . S
C685 C701 1.429 . S
C685 H707 0.950 . S
C686 H682 0.949 . S
C686 C694 1.574 . S
C686 C702 1.368 . S
H687 C695 0.950 . S
H688 C693 0.950 . S
H689 C694 0.949 . S
H690 C696 0.950 . S
H691 C697 0.950 . S
H692 C698 0.949 . S
C693 H688 0.950 . S
C693 C695 1.327 . S
C693 C699 1.429 . S
C694 C686 1.574 . S
C694 H689 0.949 . S
C694 C700 1.368 . S
C695 C679 1.349 . S
C695 H687 0.950 . S
C695 C693 1.327 . S
C696 C684 1.349 . S
C696 H690 0.950 . S
C696 C697 1.327 . S
C697 H691 0.950 . S
C697 C696 1.327 . S
C697 C701 1.429 . S
C698 C681 1.574 . S
C698 H692 0.949 . S
C698 C702 1.368 . S
C699 C680 1.429 . S
C699 C693 1.429 . S
C699 C700 1.523 . S
C700 C681 1.368 . S
C700 C694 1.368 . S
C700 C699 1.523 . S
C701 C685 1.429 . S
C701 C697 1.429 . S
C701 C702 1.523 . S
C702 C686 1.368 . S
C702 C698 1.368 . S
C702 C701 1.523 . S
H703 C678 0.950 . S
H704 C680 0.950 . S
H705 C681 0.949 . S
H706 C683 0.950 . S
H707 C685 0.950 . S
C708 C709 1.349 . S
C708 C710 1.327 . S
C708 H733 0.950 . S
C709 C708 1.349 . S
C709 C725 1.349 . S
C710 C708 1.327 . S
C710 C729 1.429 . S
C710 H734 0.950 . S
C711 C728 1.574 . S
C711 C730 1.368 . S
C711 H735 0.949 . S
H712 C716 0.949 . S
C713 C714 1.349 . S
C713 C715 1.327 . S
C713 H736 0.950 . S
C714 C713 1.349 . S
C714 C726 1.349 . S
C715 C713 1.327 . S
C715 C731 1.429 . S
C715 H737 0.950 . S
C716 H712 0.949 . S
C716 C724 1.574 . S
C716 C732 1.368 . S
H717 C725 0.950 . S
H718 C723 0.950 . S
H719 C724 0.949 . S
H720 C726 0.950 . S
H721 C727 0.950 . S
H722 C728 0.949 . S
C723 H718 0.950 . S
C723 C725 1.327 . S
C723 C729 1.429 . S
C724 C716 1.574 . S
C724 H719 0.949 . S
C724 C730 1.368 . S
C725 C709 1.349 . S
C725 H717 0.950 . S
C725 C723 1.327 . S
C726 C714 1.349 . S
C726 H720 0.950 . S
C726 C727 1.327 . S
C727 H721 0.950 . S
C727 C726 1.327 . S
C727 C731 1.429 . S
C728 C711 1.574 . S
C728 H722 0.949 . S
C728 C732 1.368 . S
C729 C710 1.429 . S
C729 C723 1.429 . S
C729 C730 1.523 . S
C730 C711 1.368 . S
C730 C724 1.368 . S
C730 C729 1.523 . S
C731 C715 1.429 . S
C731 C727 1.429 . S
C731 C732 1.523 . S
C732 C716 1.368 . S
C732 C728 1.368 . S
C732 C731 1.523 . S
H733 C708 0.950 . S
H734 C710 0.950 . S
H735 C711 0.949 . S
H736 C713 0.950 . S
H737 C715 0.950 . S
C738 C739 1.349 . S
C738 C740 1.327 . S
C738 H763 0.950 . S
C739 C738 1.349 . S
C739 C755 1.349 . S
C740 C738 1.327 . S
C740 C759 1.429 . S
C740 H764 0.950 . S
C741 C758 1.574 . S
C741 C760 1.368 . S
C741 H765 0.949 . S
H742 C746 0.949 . S
C743 C744 1.349 . S
C743 C745 1.327 . S
C743 H766 0.950 . S
C744 C743 1.349 . S
C744 C756 1.349 . S
C745 C743 1.327 . S
C745 C761 1.429 . S
C745 H767 0.950 . S
C746 H742 0.949 . S
C746 C754 1.574 . S
C746 C762 1.368 . S
H747 C755 0.950 . S
H748 C753 0.950 . S
H749 C754 0.949 . S
H750 C756 0.950 . S
H751 C757 0.950 . S
H752 C758 0.949 . S
C753 H748 0.950 . S
C753 C755 1.327 . S
C753 C759 1.429 . S
C754 C746 1.574 . S
C754 H749 0.949 . S
C754 C760 1.368 . S
C755 C739 1.349 . S
C755 H747 0.950 . S
C755 C753 1.327 . S
C756 C744 1.349 . S
C756 H750 0.950 . S
C756 C757 1.327 . S
C757 H751 0.950 . S
C757 C756 1.327 . S
C757 C761 1.429 . S
C758 C741 1.574 . S
C758 H752 0.949 . S
C758 C762 1.368 . S
C759 C740 1.429 . S
C759 C753 1.429 . S
C759 C760 1.523 . S
C760 C741 1.368 . S
C760 C754 1.368 . S
C760 C759 1.523 . S
C761 C745 1.429 . S
C761 C757 1.429 . S
C761 C762 1.523 . S
C762 C746 1.368 . S
C762 C758 1.368 . S
C762 C761 1.523 . S
H763 C738 0.950 . S
H764 C740 0.950 . S
H765 C741 0.949 . S
H766 C743 0.950 . S
H767 C745 0.950 . S
C768 C769 1.349 . S
C768 C770 1.327 . S
C768 H793 0.950 . S
C769 C768 1.349 . S
C769 C785 1.349 . S
C770 C768 1.327 . S
C770 C789 1.429 . S
C770 H794 0.950 . S
C771 C788 1.574 . S
C771 C790 1.368 . S
C771 H795 0.949 . S
H772 C776 0.949 . S
C773 C774 1.349 . S
C773 C775 1.327 . S
C773 H796 0.950 . S
C774 C773 1.349 . S
C774 C786 1.349 . S
C775 C773 1.327 . S
C775 C791 1.429 . S
C775 H797 0.950 . S
C776 H772 0.949 . S
C776 C784 1.574 . S
C776 C792 1.368 . S
H777 C785 0.950 . S
H778 C783 0.950 . S
H779 C784 0.949 . S
H780 C786 0.950 . S
H781 C787 0.950 . S
H782 C788 0.949 . S
C783 H778 0.950 . S
C783 C785 1.327 . S
C783 C789 1.429 . S
C784 C776 1.574 . S
C784 H779 0.949 . S
C784 C790 1.368 . S
C785 C769 1.349 . S
C785 H777 0.950 . S
C785 C783 1.327 . S
C786 C774 1.349 . S
C786 H780 0.950 . S
C786 C787 1.327 . S
C787 H781 0.950 . S
C787 C786 1.327 . S
C787 C791 1.429 . S
C788 C771 1.574 . S
C788 H782 0.949 . S
C788 C792 1.368 . S
C789 C770 1.429 . S
C789 C783 1.429 . S
C789 C790 1.523 . S
C790 C771 1.368 . S
C790 C784 1.368 . S
C790 C789 1.523 . S
C791 C775 1.429 . S
C791 C787 1.429 . S
C791 C792 1.523 . S
C792 C776 1.368 . S
C792 C788 1.368 . S
C792 C791 1.523 . S
H793 C768 0.950 . S
H794 C770 0.950 . S
H795 C771 0.949 . S
H796 C773 0.950 . S
H797 C775 0.950 . S
C798 C799 1.349 . S
C798 C800 1.327 . S
C798 H823 0.950 . S
C799 C798 1.349 . S
C799 C815 1.349 . S
C800 C798 1.327 . S
C800 C819 1.429 . S
C800 H824 0.950 . S
C801 C818 1.574 . S
C801 C820 1.368 . S
C801 H825 0.949 . S
H802 C806 0.949 . S
C803 C804 1.349 . S
C803 C805 1.327 . S
C803 H826 0.950 . S
C804 C803 1.349 . S
C804 C816 1.349 . S
C805 C803 1.327 . S
C805 C821 1.429 . S
C805 H827 0.950 . S
C806 H802 0.949 . S
C806 C814 1.574 . S
C806 C822 1.368 . S
H807 C815 0.950 . S
H808 C813 0.950 . S
H809 C814 0.949 . S
H810 C816 0.950 . S
H811 C817 0.950 . S
H812 C818 0.949 . S
C813 H808 0.950 . S
C813 C815 1.327 . S
C813 C819 1.429 . S
C814 C806 1.574 . S
C814 H809 0.949 . S
C814 C820 1.368 . S
C815 C799 1.349 . S
C815 H807 0.950 . S
C815 C813 1.327 . S
C816 C804 1.349 . S
C816 H810 0.950 . S
C816 C817 1.327 . S
C817 H811 0.950 . S
C817 C816 1.327 . S
C817 C821 1.429 . S
C818 C801 1.574 . S
C818 H812 0.949 . S
C818 C822 1.368 . S
C819 C800 1.429 . S
C819 C813 1.429 . S
C819 C820 1.523 . S
C820 C801 1.368 . S
C820 C814 1.368 . S
C820 C819 1.523 . S
C821 C805 1.429 . S
C821 C817 1.429 . S
C821 C822 1.523 . S
C822 C806 1.368 . S
C822 C818 1.368 . S
C822 C821 1.523 . S
H823 C798 0.950 . S
H824 C800 0.950 . S
H825 C801 0.949 . S
H826 C803 0.950 . S
H827 C805 0.950 . S
C828 C829 1.349 . S
C828 C830 1.327 . S
C828 H853 0.950 . S
C829 C828 1.349 . S
C829 C845 1.349 . S
C830 C828 1.327 . S
C830 C849 1.429 . S
C830 H854 0.950 . S
C831 C848 1.574 . S
C831 C850 1.368 . S
C831 H855 0.949 . S
H832 C836 0.949 . S
C833 C834 1.349 . S
C833 C835 1.327 . S
C833 H856 0.950 . S
C834 C833 1.349 . S
C834 C846 1.349 . S
C835 C833 1.327 . S
C835 C851 1.429 . S
C835 H857 0.950 . S
C836 H832 0.949 . S
C836 C844 1.574 . S
C836 C852 1.368 . S
H837 C845 0.950 . S
H838 C843 0.950 . S
H839 C844 0.949 . S
H840 C846 0.950 . S
H841 C847 0.950 . S
H842 C848 0.949 . S
C843 H838 0.950 . S
C843 C845 1.327 . S
C843 C849 1.429 . S
C844 C836 1.574 . S
C844 H839 0.949 . S
C844 C850 1.368 . S
C845 C829 1.349 . S
C845 H837 0.950 . S
C845 C843 1.327 . S
C846 C834 1.349 . S
C846 H840 0.950 . S
C846 C847 1.327 . S
C847 H841 0.950 . S
C847 C846 1.327 . S
C847 C851 1.429 . S
C848 C831 1.574 . S
C848 H842 0.949 . S
C848 C852 1.368 . S
C849 C830 1.429 . S
C849 C843 1.429 . S
C849 C850 1.523 . S
C850 C831 1.368 . S
C850 C844 1.368 . S
C850 C849 1.523 . S
C851 C835 1.429 . S
C851 C847 1.429 . S
C851 C852 1.523 . S
C852 C836 1.368 . S
C852 C848 1.368 . S
C852 C851 1.523 . S
H853 C828 0.950 . S
H854 C830 0.950 . S
H855 C831 0.949 . S
H856 C833 0.950 . S
H857 C835 0.950 . S
C858 C859 1.349 . S
C858 C860 1.327 . S
C858 H883 0.950 . S
C859 C858 1.349 . S
C859 C875 1.349 . S
C860 C858 1.327 . S
C860 C879 1.429 . S
C860 H884 0.950 . S
C861 C878 1.574 . S
C861 C880 1.368 . S
C861 H885 0.949 . S
H862 C866 0.949 . S
C863 C864 1.349 . S
C863 C865 1.327 . S
C863 H886 0.950 . S
C864 C863 1.349 . S
C864 C876 1.349 . S
C865 C863 1.327 . S
C865 C881 1.429 . S
C865 H887 0.950 . S
C866 H862 0.949 . S
C866 C874 1.574 . S
C866 C882 1.368 . S
H867 C875 0.950 . S
H868 C873 0.950 . S
H869 C874 0.949 . S
H870 C876 0.950 . S
H871 C877 0.950 . S
H872 C878 0.949 . S
C873 H868 0.950 . S
C873 C875 1.327 . S
C873 C879 1.429 . S
C874 C866 1.574 . S
C874 H869 0.949 . S
C874 C880 1.368 . S
C875 C859 1.349 . S
C875 H867 0.950 . S
C875 C873 1.327 . S
C876 C864 1.349 . S
C876 H870 0.950 . S
C876 C877 1.327 . S
C877 H871 0.950 . S
C877 C876 1.327 . S
C877 C881 1.429 . S
C878 C861 1.574 . S
C878 H872 0.949 . S
C878 C882 1.368 . S
C879 C860 1.429 . S
C879 C873 1.429 . S
C879 C880 1.523 . S
C880 C861 1.368 . S
C880 C874 1.368 . S
C880 C879 1.523 . S
C881 C865 1.429 . S
C881 C877 1.429 . S
C881 C882 1.523 . S
C882 C866 1.368 . S
C882 C878 1.368 . S
C882 C881 1.523 . S
H883 C858 0.950 . S
H884 C860 0.950 . S
H885 C861 0.949 . S
H886 C863 0.950 . S
H887 C865 0.950 . S
C888 C889 1.349 . S
C888 C890 1.327 . S
C888 H913 0.950 . S
C889 C888 1.349 . S
C889 C905 1.349 . S
C890 C888 1.327 . S
C890 C909 1.429 . S
C890 H914 0.950 . S
C891 C908 1.574 . S
C891 C910 1.368 . S
C891 H915 0.949 . S
H892 C896 0.949 . S
C893 C894 1.349 . S
C893 C895 1.327 . S
C893 H916 0.950 . S
C894 C893 1.349 . S
C894 C906 1.349 . S
C895 C893 1.327 . S
C895 C911 1.429 . S
C895 H917 0.950 . S
C896 H892 0.949 . S
C896 C904 1.574 . S
C896 C912 1.368 . S
H897 C905 0.950 . S
H898 C903 0.950 . S
H899 C904 0.949 . S
H900 C906 0.950 . S
H901 C907 0.950 . S
H902 C908 0.949 . S
C903 H898 0.950 . S
C903 C905 1.327 . S
C903 C909 1.429 . S
C904 C896 1.574 . S
C904 H899 0.949 . S
C904 C910 1.368 . S
C905 C889 1.349 . S
C905 H897 0.950 . S
C905 C903 1.327 . S
C906 C894 1.349 . S
C906 H900 0.950 . S
C906 C907 1.327 . S
C907 H901 0.950 . S
C907 C906 1.327 . S
C907 C911 1.429 . S
C908 C891 1.574 . S
C908 H902 0.949 . S
C908 C912 1.368 . S
C909 C890 1.429 . S
C909 C903 1.429 . S
C909 C910 1.523 . S
C910 C891 1.368 . S
C910 C904 1.368 . S
C910 C909 1.523 . S
C911 C895 1.429 . S
C911 C907 1.429 . S
C911 C912 1.523 . S
C912 C896 1.368 . S
C912 C908 1.368 . S
C912 C911 1.523 . S
H913 C888 0.950 . S
H914 C890 0.950 . S
H915 C891 0.949 . S
H916 C893 0.950 . S
H917 C895 0.950 . S
C918 C919 1.349 . S
C918 C920 1.327 . S
C918 H943 0.950 . S
C919 C918 1.349 . S
C919 C935 1.349 . S
C920 C918 1.327 . S
C920 C939 1.429 . S
C920 H944 0.950 . S
C921 C938 1.574 . S
C921 C940 1.368 . S
C921 H945 0.949 . S
H922 C926 0.949 . S
C923 C924 1.349 . S
C923 C925 1.327 . S
C923 H946 0.950 . S
C924 C923 1.349 . S
C924 C936 1.349 . S
C925 C923 1.327 . S
C925 C941 1.429 . S
C925 H947 0.950 . S
C926 H922 0.949 . S
C926 C934 1.574 . S
C926 C942 1.368 . S
H927 C935 0.950 . S
H928 C933 0.950 . S
H929 C934 0.949 . S
H930 C936 0.950 . S
H931 C937 0.950 . S
H932 C938 0.949 . S
C933 H928 0.950 . S
C933 C935 1.327 . S
C933 C939 1.429 . S
C934 C926 1.574 . S
C934 H929 0.949 . S
C934 C940 1.368 . S
C935 C919 1.349 . S
C935 H927 0.950 . S
C935 C933 1.327 . S
C936 C924 1.349 . S
C936 H930 0.950 . S
C936 C937 1.327 . S
C937 H931 0.950 . S
C937 C936 1.327 . S
C937 C941 1.429 . S
C938 C921 1.574 . S
C938 H932 0.949 . S
C938 C942 1.368 . S
C939 C920 1.429 . S
C939 C933 1.429 . S
C939 C940 1.523 . S
C940 C921 1.368 . S
C940 C934 1.368 . S
C940 C939 1.523 . S
C941 C925 1.429 . S
C941 C937 1.429 . S
C941 C942 1.523 . S
C942 C926 1.368 . S
C942 C938 1.368 . S
C942 C941 1.523 . S
H943 C918 0.950 . S
H944 C920 0.950 . S
H945 C921 0.949 . S
H946 C923 0.950 . S
H947 C925 0.950 . S
C948 C949 1.349 . S
C948 C950 1.327 . S
C948 H973 0.950 . S
C949 C948 1.349 . S
C949 C965 1.349 . S
C950 C948 1.327 . S
C950 C969 1.429 . S
C950 H974 0.950 . S
C951 C968 1.574 . S
C951 C970 1.368 . S
C951 H975 0.949 . S
H952 C956 0.949 . S
C953 C954 1.349 . S
C953 C955 1.327 . S
C953 H976 0.950 . S
C954 C953 1.349 . S
C954 C966 1.349 . S
C955 C953 1.327 . S
C955 C971 1.429 . S
C955 H977 0.950 . S
C956 H952 0.949 . S
C956 C964 1.574 . S
C956 C972 1.368 . S
H957 C965 0.950 . S
H958 C963 0.950 . S
H959 C964 0.949 . S
H960 C966 0.950 . S
H961 C967 0.950 . S
H962 C968 0.949 . S
C963 H958 0.950 . S
C963 C965 1.327 . S
C963 C969 1.429 . S
C964 C956 1.574 . S
C964 H959 0.949 . S
C964 C970 1.368 . S
C965 C949 1.349 . S
C965 H957 0.950 . S
C965 C963 1.327 . S
C966 C954 1.349 . S
C966 H960 0.950 . S
C966 C967 1.327 . S
C967 H961 0.950 . S
C967 C966 1.327 . S
C967 C971 1.429 . S
C968 C951 1.574 . S
C968 H962 0.949 . S
C968 C972 1.368 . S
C969 C950 1.429 . S
C969 C963 1.429 . S
C969 C970 1.523 . S
C970 C951 1.368 . S
C970 C964 1.368 . S
C970 C969 1.523 . S
C971 C955 1.429 . S
C971 C967 1.429 . S
C971 C972 1.523 . S
C972 C956 1.368 . S
C972 C968 1.368 . S
C972 C971 1.523 . S
H973 C948 0.950 . S
H974 C950 0.950 . S
H975 C951 0.949 . S
H976 C953 0.950 . S
H977 C955 0.950 . S
C978 C979 1.349 . S
C978 C980 1.327 . S
C978 H1003 0.950 . S
C979 C978 1.349 . S
C979 C995 1.349 . S
C980 C978 1.327 . S
C980 C999 1.429 . S
C980 H1004 0.950 . S
C981 C998 1.574 . S
C981 C1000 1.368 . S
C981 H1005 0.949 . S
H982 C986 0.949 . S
C983 C984 1.349 . S
C983 C985 1.327 . S
C983 H1006 0.950 . S
C984 C983 1.349 . S
C984 C996 1.349 . S
C985 C983 1.327 . S
C985 C1001 1.429 . S
C985 H1007 0.950 . S
C986 H982 0.949 . S
C986 C994 1.574 . S
C986 C1002 1.368 . S
H987 C995 0.950 . S
H988 C993 0.950 . S
H989 C994 0.949 . S
H990 C996 0.950 . S
H991 C997 0.950 . S
H992 C998 0.949 . S
C993 H988 0.950 . S
C993 C995 1.327 . S
C993 C999 1.429 . S
C994 C986 1.574 . S
C994 H989 0.949 . S
C994 C1000 1.368 . S
C995 C979 1.349 . S
C995 H987 0.950 . S
C995 C993 1.327 . S
C996 C984 1.349 . S
C996 H990 0.950 . S
C996 C997 1.327 . S
C997 H991 0.950 . S
C997 C996 1.327 . S
C997 C1001 1.429 . S
C998 C981 1.574 . S
C998 H992 0.949 . S
C998 C1002 1.368 . S
C999 C980 1.429 . S
C999 C993 1.429 . S
C999 C1000 1.523 . S
C1000 C981 1.368 . S
C1000 C994 1.368 . S
C1000 C999 1.523 . S
C1001 C985 1.429 . S
C1001 C997 1.429 . S
C1001 C1002 1.523 . S
C1002 C986 1.368 . S
C1002 C998 1.368 . S
C1002 C1001 1.523 . S
H1003 C978 0.950 . S
H1004 C980 0.950 . S
H1005 C981 0.949 . S
H1006 C983 0.950 . S
H1007 C985 0.950 . S
C1008 C1009 1.349 . S
C1008 C1010 1.327 . S
C1008 H1033 0.950 . S
C1009 C1008 1.349 . S
C1009 C1025 1.349 . S
C1010 C1008 1.327 . S
C1010 C1029 1.429 . S
C1010 H1034 0.950 . S
C1011 C1028 1.574 . S
C1011 C1030 1.368 . S
C1011 H1035 0.949 . S
H1012 C1016 0.949 . S
C1013 C1014 1.349 . S
C1013 C1015 1.327 . S
C1013 H1036 0.950 . S
C1014 C1013 1.349 . S
C1014 C1026 1.349 . S
C1015 C1013 1.327 . S
C1015 C1031 1.429 . S
C1015 H1037 0.950 . S
C1016 H1012 0.949 . S
C1016 C1024 1.574 . S
C1016 C1032 1.368 . S
H1017 C1025 0.950 . S
H1018 C1023 0.950 . S
H1019 C1024 0.949 . S
H1020 C1026 0.950 . S
H1021 C1027 0.950 . S
H1022 C1028 0.949 . S
C1023 H1018 0.950 . S
C1023 C1025 1.327 . S
C1023 C1029 1.429 . S
C1024 C1016 1.574 . S
C1024 H1019 0.949 . S
C1024 C1030 1.368 . S
C1025 C1009 1.349 . S
C1025 H1017 0.950 . S
C1025 C1023 1.327 . S
C1026 C1014 1.349 . S
C1026 H1020 0.950 . S
C1026 C1027 1.327 . S
C1027 H1021 0.950 . S
C1027 C1026 1.327 . S
C1027 C1031 1.429 . S
C1028 C1011 1.574 . S
C1028 H1022 0.949 . S
C1028 C1032 1.368 . S
C1029 C1010 1.429 . S
C1029 C1023 1.429 . S
C1029 C1030 1.523 . S
C1030 C1011 1.368 . S
C1030 C1024 1.368 . S
C1030 C1029 1.523 . S
C1031 C1015 1.429 . S
C1031 C1027 1.429 . S
C1031 C1032 1.523 . S
C1032 C1016 1.368 . S
C1032 C1028 1.368 . S
C1032 C1031 1.523 . S
H1033 C1008 0.950 . S
H1034 C1010 0.950 . S
H1035 C1011 0.949 . S
H1036 C1013 0.950 . S
H1037 C1015 0.950 . S
C1038 C1039 1.349 . S
C1038 C1040 1.327 . S
C1038 H1063 0.950 . S
C1039 C1038 1.349 . S
C1039 C1055 1.349 . S
C1040 C1038 1.327 . S
C1040 C1059 1.429 . S
C1040 H1064 0.950 . S
C1041 C1058 1.574 . S
C1041 C1060 1.368 . S
C1041 H1065 0.949 . S
H1042 C1046 0.949 . S
C1043 C1044 1.349 . S
C1043 C1045 1.327 . S
C1043 H1066 0.950 . S
C1044 C1043 1.349 . S
C1044 C1056 1.349 . S
C1045 C1043 1.327 . S
C1045 C1061 1.429 . S
C1045 H1067 0.950 . S
C1046 H1042 0.949 . S
C1046 C1054 1.574 . S
C1046 C1062 1.368 . S
H1047 C1055 0.950 . S
H1048 C1053 0.950 . S
H1049 C1054 0.949 . S
H1050 C1056 0.950 . S
H1051 C1057 0.950 . S
H1052 C1058 0.949 . S
C1053 H1048 0.950 . S
C1053 C1055 1.327 . S
C1053 C1059 1.429 . S
C1054 C1046 1.574 . S
C1054 H1049 0.949 . S
C1054 C1060 1.368 . S
C1055 C1039 1.349 . S
C1055 H1047 0.950 . S
C1055 C1053 1.327 . S
C1056 C1044 1.349 . S
C1056 H1050 0.950 . S
C1056 C1057 1.327 . S
C1057 H1051 0.950 . S
C1057 C1056 1.327 . S
C1057 C1061 1.429 . S
C1058 C1041 1.574 . S
C1058 H1052 0.949 . S
C1058 C1062 1.368 . S
C1059 C1040 1.429 . S
C1059 C1053 1.429 . S
C1059 C1060 1.523 . S
C1060 C1041 1.368 . S
C1060 C1054 1.368 . S
C1060 C1059 1.523 . S
C1061 C1045 1.429 . S
C1061 C1057 1.429 . S
C1061 C1062 1.523 . S
C1062 C1046 1.368 . S
C1062 C1058 1.368 . S
C1062 C1061 1.523 . S
H1063 C1038 0.950 . S
H1064 C1040 0.950 . S
H1065 C1041 0.949 . S
H1066 C1043 0.950 . S
H1067 C1045 0.950 . S
C1068 C1069 1.349 . S
C1068 C1070 1.327 . S
C1068 H1093 0.950 . S
C1069 C1068 1.349 . S
C1069 C1085 1.349 . S
C1070 C1068 1.327 . S
C1070 C1089 1.429 . S
C1070 H1094 0.950 . S
C1071 C1088 1.574 . S
C1071 C1090 1.368 . S
C1071 H1095 0.949 . S
H1072 C1076 0.949 . S
C1073 C1074 1.349 . S
C1073 C1075 1.327 . S
C1073 H1096 0.950 . S
C1074 C1073 1.349 . S
C1074 C1086 1.349 . S
C1075 C1073 1.327 . S
C1075 C1091 1.429 . S
C1075 H1097 0.950 . S
C1076 H1072 0.949 . S
C1076 C1084 1.574 . S
C1076 C1092 1.368 . S
H1077 C1085 0.950 . S
H1078 C1083 0.950 . S
H1079 C1084 0.949 . S
H1080 C1086 0.950 . S
H1081 C1087 0.950 . S
H1082 C1088 0.949 . S
C1083 H1078 0.950 . S
C1083 C1085 1.327 . S
C1083 C1089 1.429 . S
C1084 C1076 1.574 . S
C1084 H1079 0.949 . S
C1084 C1090 1.368 . S
C1085 C1069 1.349 . S
C1085 H1077 0.950 . S
C1085 C1083 1.327 . S
C1086 C1074 1.349 . S
C1086 H1080 0.950 . S
C1086 C1087 1.327 . S
C1087 H1081 0.950 . S
C1087 C1086 1.327 . S
C1087 C1091 1.429 . S
C1088 C1071 1.574 . S
C1088 H1082 0.949 . S
C1088 C1092 1.368 . S
C1089 C1070 1.429 . S
C1089 C1083 1.429 . S
C1089 C1090 1.523 . S
C1090 C1071 1.368 . S
C1090 C1084 1.368 . S
C1090 C1089 1.523 . S
C1091 C1075 1.429 . S
C1091 C1087 1.429 . S
C1091 C1092 1.523 . S
C1092 C1076 1.368 . S
C1092 C1088 1.368 . S
C1092 C1091 1.523 . S
H1093 C1068 0.950 . S
H1094 C1070 0.950 . S
H1095 C1071 0.949 . S
H1096 C1073 0.950 . S
H1097 C1075 0.950 . S
C1098 C1099 1.349 . S
C1098 C1100 1.327 . S
C1098 H1123 0.950 . S
C1099 C1098 1.349 . S
C1099 C1115 1.349 . S
C1100 C1098 1.327 . S
C1100 C1119 1.429 . S
C1100 H1124 0.950 . S
C1101 C1118 1.574 . S
C1101 C1120 1.368 . S
C1101 H1125 0.949 . S
H1102 C1106 0.949 . S
C1103 C1104 1.349 . S
C1103 C1105 1.327 . S
C1103 H1126 0.950 . S
C1104 C1103 1.349 . S
C1104 C1116 1.349 . S
C1105 C1103 1.327 . S
C1105 C1121 1.429 . S
C1105 H1127 0.950 . S
C1106 H1102 0.949 . S
C1106 C1114 1.574 . S
C1106 C1122 1.368 . S
H1107 C1115 0.950 . S
H1108 C1113 0.950 . S
H1109 C1114 0.949 . S
H1110 C1116 0.950 . S
H1111 C1117 0.950 . S
H1112 C1118 0.949 . S
C1113 H1108 0.950 . S
C1113 C1115 1.327 . S
C1113 C1119 1.429 . S
C1114 C1106 1.574 . S
C1114 H1109 0.949 . S
C1114 C1120 1.368 . S
C1115 C1099 1.349 . S
C1115 H1107 0.950 . S
C1115 C1113 1.327 . S
C1116 C1104 1.349 . S
C1116 H1110 0.950 . S
C1116 C1117 1.327 . S
C1117 H1111 0.950 . S
C1117 C1116 1.327 . S
C1117 C1121 1.429 . S
C1118 C1101 1.574 . S
C1118 H1112 0.949 . S
C1118 C1122 1.368 . S
C1119 C1100 1.429 . S
C1119 C1113 1.429 . S
C1119 C1120 1.523 . S
C1120 C1101 1.368 . S
C1120 C1114 1.368 . S
C1120 C1119 1.523 . S
C1121 C1105 1.429 . S
C1121 C1117 1.429 . S
C1121 C1122 1.523 . S
C1122 C1106 1.368 . S
C1122 C1118 1.368 . S
C1122 C1121 1.523 . S
H1123 C1098 0.950 . S
H1124 C1100 0.950 . S
H1125 C1101 0.949 . S
H1126 C1103 0.950 . S
H1127 C1105 0.950 . S
C1128 C1129 1.349 . S
C1128 C1130 1.327 . S
C1128 H1153 0.950 . S
C1129 C1128 1.349 . S
C1129 C1145 1.349 . S
C1130 C1128 1.327 . S
C1130 C1149 1.429 . S
C1130 H1154 0.950 . S
C1131 C1148 1.574 . S
C1131 C1150 1.368 . S
C1131 H1155 0.949 . S
H1132 C1136 0.949 . S
C1133 C1134 1.349 . S
C1133 C1135 1.327 . S
C1133 H1156 0.950 . S
C1134 C1133 1.349 . S
C1134 C1146 1.349 . S
C1135 C1133 1.327 . S
C1135 C1151 1.429 . S
C1135 H1157 0.950 . S
C1136 H1132 0.949 . S
C1136 C1144 1.574 . S
C1136 C1152 1.368 . S
H1137 C1145 0.950 . S
H1138 C1143 0.950 . S
H1139 C1144 0.949 . S
H1140 C1146 0.950 . S
H1141 C1147 0.950 . S
H1142 C1148 0.949 . S
C1143 H1138 0.950 . S
C1143 C1145 1.327 . S
C1143 C1149 1.429 . S
C1144 C1136 1.574 . S
C1144 H1139 0.949 . S
C1144 C1150 1.368 . S
C1145 C1129 1.349 . S
C1145 H1137 0.950 . S
C1145 C1143 1.327 . S
C1146 C1134 1.349 . S
C1146 H1140 0.950 . S
C1146 C1147 1.327 . S
C1147 H1141 0.950 . S
C1147 C1146 1.327 . S
C1147 C1151 1.429 . S
C1148 C1131 1.574 . S
C1148 H1142 0.949 . S
C1148 C1152 1.368 . S
C1149 C1130 1.429 . S
C1149 C1143 1.429 . S
C1149 C1150 1.523 . S
C1150 C1131 1.368 . S
C1150 C1144 1.368 . S
C1150 C1149 1.523 . S
C1151 C1135 1.429 . S
C1151 C1147 1.429 . S
C1151 C1152 1.523 . S
C1152 C1136 1.368 . S
C1152 C1148 1.368 . S
C1152 C1151 1.523 . S
H1153 C1128 0.950 . S
H1154 C1130 0.950 . S
H1155 C1131 0.949 . S
H1156 C1133 0.950 . S
H1157 C1135 0.950 . S
C1158 C1159 1.349 . S
C1158 C1160 1.327 . S
C1158 H1183 0.950 . S
C1159 C1158 1.349 . S
C1159 C1175 1.349 . S
C1160 C1158 1.327 . S
C1160 C1179 1.429 . S
C1160 H1184 0.950 . S
C1161 C1178 1.574 . S
C1161 C1180 1.368 . S
C1161 H1185 0.949 . S
H1162 C1166 0.949 . S
C1163 C1164 1.349 . S
C1163 C1165 1.327 . S
C1163 H1186 0.950 . S
C1164 C1163 1.349 . S
C1164 C1176 1.349 . S
C1165 C1163 1.327 . S
C1165 C1181 1.429 . S
C1165 H1187 0.950 . S
C1166 H1162 0.949 . S
C1166 C1174 1.574 . S
C1166 C1182 1.368 . S
H1167 C1175 0.950 . S
H1168 C1173 0.950 . S
H1169 C1174 0.949 . S
H1170 C1176 0.950 . S
H1171 C1177 0.950 . S
H1172 C1178 0.949 . S
C1173 H1168 0.950 . S
C1173 C1175 1.327 . S
C1173 C1179 1.429 . S
C1174 C1166 1.574 . S
C1174 H1169 0.949 . S
C1174 C1180 1.368 . S
C1175 C1159 1.349 . S
C1175 H1167 0.950 . S
C1175 C1173 1.327 . S
C1176 C1164 1.349 . S
C1176 H1170 0.950 . S
C1176 C1177 1.327 . S
C1177 H1171 0.950 . S
C1177 C1176 1.327 . S
C1177 C1181 1.429 . S
C1178 C1161 1.574 . S
C1178 H1172 0.949 . S
C1178 C1182 1.368 . S
C1179 C1160 1.429 . S
C1179 C1173 1.429 . S
C1179 C1180 1.523 . S
C1180 C1161 1.368 . S
C1180 C1174 1.368 . S
C1180 C1179 1.523 . S
C1181 C1165 1.429 . S
C1181 C1177 1.429 . S
C1181 C1182 1.523 . S
C1182 C1166 1.368 . S
C1182 C1178 1.368 . S
C1182 C1181 1.523 . S
H1183 C1158 0.950 . S
H1184 C1160 0.950 . S
H1185 C1161 0.949 . S
H1186 C1163 0.950 . S
H1187 C1165 0.950 . S
C1188 C1189 1.349 . S
C1188 C1190 1.327 . S
C1188 H1213 0.950 . S
C1189 C1188 1.349 . S
C1189 C1205 1.349 . S
C1190 C1188 1.327 . S
C1190 C1209 1.429 . S
C1190 H1214 0.950 . S
C1191 C1208 1.574 . S
C1191 C1210 1.368 . S
C1191 H1215 0.949 . S
H1192 C1196 0.949 . S
C1193 C1194 1.349 . S
C1193 C1195 1.327 . S
C1193 H1216 0.950 . S
C1194 C1193 1.349 . S
C1194 C1206 1.349 . S
C1195 C1193 1.327 . S
C1195 C1211 1.429 . S
C1195 H1217 0.950 . S
C1196 H1192 0.949 . S
C1196 C1204 1.574 . S
C1196 C1212 1.368 . S
H1197 C1205 0.950 . S
H1198 C1203 0.950 . S
H1199 C1204 0.949 . S
H1200 C1206 0.950 . S
H1201 C1207 0.950 . S
H1202 C1208 0.949 . S
C1203 H1198 0.950 . S
C1203 C1205 1.327 . S
C1203 C1209 1.429 . S
C1204 C1196 1.574 . S
C1204 H1199 0.949 . S
C1204 C1210 1.368 . S
C1205 C1189 1.349 . S
C1205 H1197 0.950 . S
C1205 C1203 1.327 . S
C1206 C1194 1.349 . S
C1206 H1200 0.950 . S
C1206 C1207 1.327 . S
C1207 H1201 0.950 . S
C1207 C1206 1.327 . S
C1207 C1211 1.429 . S
C1208 C1191 1.574 . S
C1208 H1202 0.949 . S
C1208 C1212 1.368 . S
C1209 C1190 1.429 . S
C1209 C1203 1.429 . S
C1209 C1210 1.523 . S
C1210 C1191 1.368 . S
C1210 C1204 1.368 . S
C1210 C1209 1.523 . S
C1211 C1195 1.429 . S
C1211 C1207 1.429 . S
C1211 C1212 1.523 . S
C1212 C1196 1.368 . S
C1212 C1208 1.368 . S
C1212 C1211 1.523 . S
H1213 C1188 0.950 . S
H1214 C1190 0.950 . S
H1215 C1191 0.949 . S
H1216 C1193 0.950 . S
H1217 C1195 0.950 . S
C1218 C1219 1.349 . S
C1218 C1220 1.327 . S
C1218 H1243 0.950 . S
C1219 C1218 1.349 . S
C1219 C1235 1.349 . S
C1220 C1218 1.327 . S
C1220 C1239 1.429 . S
C1220 H1244 0.950 . S
C1221 C1238 1.574 . S
C1221 C1240 1.368 . S
C1221 H1245 0.949 . S
H1222 C1226 0.949 . S
C1223 C1224 1.349 . S
C1223 C1225 1.327 . S
C1223 H1246 0.950 . S
C1224 C1223 1.349 . S
C1224 C1236 1.349 . S
C1225 C1223 1.327 . S
C1225 C1241 1.429 . S
C1225 H1247 0.950 . S
C1226 H1222 0.949 . S
C1226 C1234 1.574 . S
C1226 C1242 1.368 . S
H1227 C1235 0.950 . S
H1228 C1233 0.950 . S
H1229 C1234 0.949 . S
H1230 C1236 0.950 . S
H1231 C1237 0.950 . S
H1232 C1238 0.949 . S
C1233 H1228 0.950 . S
C1233 C1235 1.327 . S
C1233 C1239 1.429 . S
C1234 C1226 1.574 . S
C1234 H1229 0.949 . S
C1234 C1240 1.368 . S
C1235 C1219 1.349 . S
C1235 H1227 0.950 . S
C1235 C1233 1.327 . S
C1236 C1224 1.349 . S
C1236 H1230 0.950 . S
C1236 C1237 1.327 . S
C1237 H1231 0.950 . S
C1237 C1236 1.327 . S
C1237 C1241 1.429 . S
C1238 C1221 1.574 . S
C1238 H1232 0.949 . S
C1238 C1242 1.368 . S
C1239 C1220 1.429 . S
C1239 C1233 1.429 . S
C1239 C1240 1.523 . S
C1240 C1221 1.368 . S
C1240 C1234 1.368 . S
C1240 C1239 1.523 . S
C1241 C1225 1.429 . S
C1241 C1237 1.429 . S
C1241 C1242 1.523 . S
C1242 C1226 1.368 . S
C1242 C1238 1.368 . S
C1242 C1241 1.523 . S
H1243 C1218 0.950 . S
H1244 C1220 0.950 . S
H1245 C1221 0.949 . S
H1246 C1223 0.950 . S
H1247 C1225 0.950 . S
C1248 C1249 1.349 . S
C1248 C1250 1.327 . S
C1248 H1273 0.950 . S
C1249 C1248 1.349 . S
C1249 C1265 1.349 . S
C1250 C1248 1.327 . S
C1250 C1269 1.429 . S
C1250 H1274 0.950 . S
C1251 C1268 1.574 . S
C1251 C1270 1.368 . S
C1251 H1275 0.949 . S
H1252 C1256 0.949 . S
C1253 C1254 1.349 . S
C1253 C1255 1.327 . S
C1253 H1276 0.950 . S
C1254 C1253 1.349 . S
C1254 C1266 1.349 . S
C1255 C1253 1.327 . S
C1255 C1271 1.429 . S
C1255 H1277 0.950 . S
C1256 H1252 0.949 . S
C1256 C1264 1.574 . S
C1256 C1272 1.368 . S
H1257 C1265 0.950 . S
H1258 C1263 0.950 . S
H1259 C1264 0.949 . S
H1260 C1266 0.950 . S
H1261 C1267 0.950 . S
H1262 C1268 0.949 . S
C1263 H1258 0.950 . S
C1263 C1265 1.327 . S
C1263 C1269 1.429 . S
C1264 C1256 1.574 . S
C1264 H1259 0.949 . S
C1264 C1270 1.368 . S
C1265 C1249 1.349 . S
C1265 H1257 0.950 . S
C1265 C1263 1.327 . S
C1266 C1254 1.349 . S
C1266 H1260 0.950 . S
C1266 C1267 1.327 . S
C1267 H1261 0.950 . S
C1267 C1266 1.327 . S
C1267 C1271 1.429 . S
C1268 C1251 1.574 . S
C1268 H1262 0.949 . S
C1268 C1272 1.368 . S
C1269 C1250 1.429 . S
C1269 C1263 1.429 . S
C1269 C1270 1.523 . S
C1270 C1251 1.368 . S
C1270 C1264 1.368 . S
C1270 C1269 1.523 . S
C1271 C1255 1.429 . S
C1271 C1267 1.429 . S
C1271 C1272 1.523 . S
C1272 C1256 1.368 . S
C1272 C1268 1.368 . S
C1272 C1271 1.523 . S
H1273 C1248 0.950 . S
H1274 C1250 0.950 . S
H1275 C1251 0.949 . S
H1276 C1253 0.950 . S
H1277 C1255 0.950 . S
C1278 C1279 1.349 . S
C1278 C1280 1.327 . S
C1278 H1303 0.950 . S
C1279 C1278 1.349 . S
C1279 C1295 1.349 . S
C1280 C1278 1.327 . S
C1280 C1299 1.429 . S
C1280 H1304 0.950 . S
C1281 C1298 1.574 . S
C1281 C1300 1.368 . S
C1281 H1305 0.949 . S
H1282 C1286 0.949 . S
C1283 C1284 1.349 . S
C1283 C1285 1.327 . S
C1283 H1306 0.950 . S
C1284 C1283 1.349 . S
C1284 C1296 1.349 . S
C1285 C1283 1.327 . S
C1285 C1301 1.429 . S
C1285 H1307 0.950 . S
C1286 H1282 0.949 . S
C1286 C1294 1.574 . S
C1286 C1302 1.368 . S
H1287 C1295 0.950 . S
H1288 C1293 0.950 . S
H1289 C1294 0.949 . S
H1290 C1296 0.950 . S
H1291 C1297 0.950 . S
H1292 C1298 0.949 . S
C1293 H1288 0.950 . S
C1293 C1295 1.327 . S
C1293 C1299 1.429 . S
C1294 C1286 1.574 . S
C1294 H1289 0.949 . S
C1294 C1300 1.368 . S
C1295 C1279 1.349 . S
C1295 H1287 0.950 . S
C1295 C1293 1.327 . S
C1296 C1284 1.349 . S
C1296 H1290 0.950 . S
C1296 C1297 1.327 . S
C1297 H1291 0.950 . S
C1297 C1296 1.327 . S
C1297 C1301 1.429 . S
C1298 C1281 1.574 . S
C1298 H1292 0.949 . S
C1298 C1302 1.368 . S
C1299 C1280 1.429 . S
C1299 C1293 1.429 . S
C1299 C1300 1.523 . S
C1300 C1281 1.368 . S
C1300 C1294 1.368 . S
C1300 C1299 1.523 . S
C1301 C1285 1.429 . S
C1301 C1297 1.429 . S
C1301 C1302 1.523 . S
C1302 C1286 1.368 . S
C1302 C1298 1.368 . S
C1302 C1301 1.523 . S
H1303 C1278 0.950 . S
H1304 C1280 0.950 . S
H1305 C1281 0.949 . S
H1306 C1283 0.950 . S
H1307 C1285 0.950 . S
C1308 C1309 1.349 . S
C1308 C1310 1.327 . S
C1308 H1333 0.950 . S
C1309 C1308 1.349 . S
C1309 C1325 1.349 . S
C1310 C1308 1.327 . S
C1310 C1329 1.429 . S
C1310 H1334 0.950 . S
C1311 C1328 1.574 . S
C1311 C1330 1.368 . S
C1311 H1335 0.949 . S
H1312 C1316 0.949 . S
C1313 C1314 1.349 . S
C1313 C1315 1.327 . S
C1313 H1336 0.950 . S
C1314 C1313 1.349 . S
C1314 C1326 1.349 . S
C1315 C1313 1.327 . S
C1315 C1331 1.429 . S
C1315 H1337 0.950 . S
C1316 H1312 0.949 . S
C1316 C1324 1.574 . S
C1316 C1332 1.368 . S
H1317 C1325 0.950 . S
H1318 C1323 0.950 . S
H1319 C1324 0.949 . S
H1320 C1326 0.950 . S
H1321 C1327 0.950 . S
H1322 C1328 0.949 . S
C1323 H1318 0.950 . S
C1323 C1325 1.327 . S
C1323 C1329 1.429 . S
C1324 C1316 1.574 . S
C1324 H1319 0.949 . S
C1324 C1330 1.368 . S
C1325 C1309 1.349 . S
C1325 H1317 0.950 . S
C1325 C1323 1.327 . S
C1326 C1314 1.349 . S
C1326 H1320 0.950 . S
C1326 C1327 1.327 . S
C1327 H1321 0.950 . S
C1327 C1326 1.327 . S
C1327 C1331 1.429 . S
C1328 C1311 1.574 . S
C1328 H1322 0.949 . S
C1328 C1332 1.368 . S
C1329 C1310 1.429 . S
C1329 C1323 1.429 . S
C1329 C1330 1.523 . S
C1330 C1311 1.368 . S
C1330 C1324 1.368 . S
C1330 C1329 1.523 . S
C1331 C1315 1.429 . S
C1331 C1327 1.429 . S
C1331 C1332 1.523 . S
C1332 C1316 1.368 . S
C1332 C1328 1.368 . S
C1332 C1331 1.523 . S
H1333 C1308 0.950 . S
H1334 C1310 0.950 . S
H1335 C1311 0.949 . S
H1336 C1313 0.950 . S
H1337 C1315 0.950 . S
C1338 C1339 1.349 . S
C1338 C1340 1.327 . S
C1338 H1363 0.950 . S
C1339 C1338 1.349 . S
C1339 C1355 1.349 . S
C1340 C1338 1.327 . S
C1340 C1359 1.429 . S
C1340 H1364 0.950 . S
C1341 C1358 1.574 . S
C1341 C1360 1.368 . S
C1341 H1365 0.949 . S
H1342 C1346 0.949 . S
C1343 C1344 1.349 . S
C1343 C1345 1.327 . S
C1343 H1366 0.950 . S
C1344 C1343 1.349 . S
C1344 C1356 1.349 . S
C1345 C1343 1.327 . S
C1345 C1361 1.429 . S
C1345 H1367 0.950 . S
C1346 H1342 0.949 . S
C1346 C1354 1.574 . S
C1346 C1362 1.368 . S
H1347 C1355 0.950 . S
H1348 C1353 0.950 . S
H1349 C1354 0.949 . S
H1350 C1356 0.950 . S
H1351 C1357 0.950 . S
H1352 C1358 0.949 . S
C1353 H1348 0.950 . S
C1353 C1355 1.327 . S
C1353 C1359 1.429 . S
C1354 C1346 1.574 . S
C1354 H1349 0.949 . S
C1354 C1360 1.368 . S
C1355 C1339 1.349 . S
C1355 H1347 0.950 . S
C1355 C1353 1.327 . S
C1356 C1344 1.349 . S
C1356 H1350 0.950 . S
C1356 C1357 1.327 . S
C1357 H1351 0.950 . S
C1357 C1356 1.327 . S
C1357 C1361 1.429 . S
C1358 C1341 1.574 . S
C1358 H1352 0.949 . S
C1358 C1362 1.368 . S
C1359 C1340 1.429 . S
C1359 C1353 1.429 . S
C1359 C1360 1.523 . S
C1360 C1341 1.368 . S
C1360 C1354 1.368 . S
C1360 C1359 1.523 . S
C1361 C1345 1.429 . S
C1361 C1357 1.429 . S
C1361 C1362 1.523 . S
C1362 C1346 1.368 . S
C1362 C1358 1.368 . S
C1362 C1361 1.523 . S
H1363 C1338 0.950 . S
H1364 C1340 0.950 . S
H1365 C1341 0.949 . S
H1366 C1343 0.950 . S
H1367 C1345 0.950 . S
C1368 C1369 1.349 . S
C1368 C1370 1.327 . S
C1368 H1393 0.950 . S
C1369 C1368 1.349 . S
C1369 C1385 1.349 . S
C1370 C1368 1.327 . S
C1370 C1389 1.429 . S
C1370 H1394 0.950 . S
C1371 C1388 1.574 . S
C1371 C1390 1.368 . S
C1371 H1395 0.949 . S
H1372 C1376 0.949 . S
C1373 C1374 1.349 . S
C1373 C1375 1.327 . S
C1373 H1396 0.950 . S
C1374 C1373 1.349 . S
C1374 C1386 1.349 . S
C1375 C1373 1.327 . S
C1375 C1391 1.429 . S
C1375 H1397 0.950 . S
C1376 H1372 0.949 . S
C1376 C1384 1.574 . S
C1376 C1392 1.368 . S
H1377 C1385 0.950 . S
H1378 C1383 0.950 . S
H1379 C1384 0.949 . S
H1380 C1386 0.950 . S
H1381 C1387 0.950 . S
H1382 C1388 0.949 . S
C1383 H1378 0.950 . S
C1383 C1385 1.327 . S
C1383 C1389 1.429 . S
C1384 C1376 1.574 . S
C1384 H1379 0.949 . S
C1384 C1390 1.368 . S
C1385 C1369 1.349 . S
C1385 H1377 0.950 . S
C1385 C1383 1.327 . S
C1386 C1374 1.349 . S
C1386 H1380 0.950 . S
C1386 C1387 1.327 . S
C1387 H1381 0.950 . S
C1387 C1386 1.327 . S
C1387 C1391 1.429 . S
C1388 C1371 1.574 . S
C1388 H1382 0.949 . S
C1388 C1392 1.368 . S
C1389 C1370 1.429 . S
C1389 C1383 1.429 . S
C1389 C1390 1.523 . S
C1390 C1371 1.368 . S
C1390 C1384 1.368 . S
C1390 C1389 1.523 . S
C1391 C1375 1.429 . S
C1391 C1387 1.429 . S
C1391 C1392 1.523 . S
C1392 C1376 1.368 . S
C1392 C1388 1.368 . S
C1392 C1391 1.523 . S
H1393 C1368 0.950 . S
H1394 C1370 0.950 . S
H1395 C1371 0.949 . S
H1396 C1373 0.950 . S
H1397 C1375 0.950 . S
C1398 C1399 1.349 . S
C1398 C1400 1.327 . S
C1398 H1423 0.950 . S
C1399 C1398 1.349 . S
C1399 C1415 1.349 . S
C1400 C1398 1.327 . S
C1400 C1419 1.429 . S
C1400 H1424 0.950 . S
C1401 C1418 1.574 . S
C1401 C1420 1.368 . S
C1401 H1425 0.949 . S
H1402 C1406 0.949 . S
C1403 C1404 1.349 . S
C1403 C1405 1.327 . S
C1403 H1426 0.950 . S
C1404 C1403 1.349 . S
C1404 C1416 1.349 . S
C1405 C1403 1.327 . S
C1405 C1421 1.429 . S
C1405 H1427 0.950 . S
C1406 H1402 0.949 . S
C1406 C1414 1.574 . S
C1406 C1422 1.368 . S
H1407 C1415 0.950 . S
H1408 C1413 0.950 . S
H1409 C1414 0.949 . S
H1410 C1416 0.950 . S
H1411 C1417 0.950 . S
H1412 C1418 0.949 . S
C1413 H1408 0.950 . S
C1413 C1415 1.327 . S
C1413 C1419 1.429 . S
C1414 C1406 1.574 . S
C1414 H1409 0.949 . S
C1414 C1420 1.368 . S
C1415 C1399 1.349 . S
C1415 H1407 0.950 . S
C1415 C1413 1.327 . S
C1416 C1404 1.349 . S
C1416 H1410 0.950 . S
C1416 C1417 1.327 . S
C1417 H1411 0.950 . S
C1417 C1416 1.327 . S
C1417 C1421 1.429 . S
C1418 C1401 1.574 . S
C1418 H1412 0.949 . S
C1418 C1422 1.368 . S
C1419 C1400 1.429 . S
C1419 C1413 1.429 . S
C1419 C1420 1.523 . S
C1420 C1401 1.368 . S
C1420 C1414 1.368 . S
C1420 C1419 1.523 . S
C1421 C1405 1.429 . S
C1421 C1417 1.429 . S
C1421 C1422 1.523 . S
C1422 C1406 1.368 . S
C1422 C1418 1.368 . S
C1422 C1421 1.523 . S
H1423 C1398 0.950 . S
H1424 C1400 0.950 . S
H1425 C1401 0.949 . S
H1426 C1403 0.950 . S
H1427 C1405 0.950 . S
C1428 C1429 1.349 . S
C1428 C1430 1.327 . S
C1428 H1453 0.950 . S
C1429 C1428 1.349 . S
C1429 C1445 1.349 . S
C1430 C1428 1.327 . S
C1430 C1449 1.429 . S
C1430 H1454 0.950 . S
C1431 C1448 1.574 . S
C1431 C1450 1.368 . S
C1431 H1455 0.949 . S
H1432 C1436 0.949 . S
C1433 C1434 1.349 . S
C1433 C1435 1.327 . S
C1433 H1456 0.950 . S
C1434 C1433 1.349 . S
C1434 C1446 1.349 . S
C1435 C1433 1.327 . S
C1435 C1451 1.429 . S
C1435 H1457 0.950 . S
C1436 H1432 0.949 . S
C1436 C1444 1.574 . S
C1436 C1452 1.368 . S
H1437 C1445 0.950 . S
H1438 C1443 0.950 . S
H1439 C1444 0.949 . S
H1440 C1446 0.950 . S
H1441 C1447 0.950 . S
H1442 C1448 0.949 . S
C1443 H1438 0.950 . S
C1443 C1445 1.327 . S
C1443 C1449 1.429 . S
C1444 C1436 1.574 . S
C1444 H1439 0.949 . S
C1444 C1450 1.368 . S
C1445 C1429 1.349 . S
C1445 H1437 0.950 . S
C1445 C1443 1.327 . S
C1446 C1434 1.349 . S
C1446 H1440 0.950 . S
C1446 C1447 1.327 . S
C1447 H1441 0.950 . S
C1447 C1446 1.327 . S
C1447 C1451 1.429 . S
C1448 C1431 1.574 . S
C1448 H1442 0.949 . S
C1448 C1452 1.368 . S
C1449 C1430 1.429 . S
C1449 C1443 1.429 . S
C1449 C1450 1.523 . S
C1450 C1431 1.368 . S
C1450 C1444 1.368 . S
C1450 C1449 1.523 . S
C1451 C1435 1.429 . S
C1451 C1447 1.429 . S
C1451 C1452 1.523 . S
C1452 C1436 1.368 . S
C1452 C1448 1.368 . S
C1452 C1451 1.523 . S
H1453 C1428 0.950 . S
H1454 C1430 0.950 . S
H1455 C1431 0.949 . S
H1456 C1433 0.950 . S
H1457 C1435 0.950 . S
C1458 C1459 1.349 . S
C1458 C1460 1.327 . S
C1458 H1483 0.950 . S
C1459 C1458 1.349 . S
C1459 C1475 1.349 . S
C1460 C1458 1.327 . S
C1460 C1479 1.429 . S
C1460 H1484 0.950 . S
C1461 C1478 1.574 . S
C1461 C1480 1.368 . S
C1461 H1485 0.949 . S
H1462 C1466 0.949 . S
C1463 C1464 1.349 . S
C1463 C1465 1.327 . S
C1463 H1486 0.950 . S
C1464 C1463 1.349 . S
C1464 C1476 1.349 . S
C1465 C1463 1.327 . S
C1465 C1481 1.429 . S
C1465 H1487 0.950 . S
C1466 H1462 0.949 . S
C1466 C1474 1.574 . S
C1466 C1482 1.368 . S
H1467 C1475 0.950 . S
H1468 C1473 0.950 . S
H1469 C1474 0.949 . S
H1470 C1476 0.950 . S
H1471 C1477 0.950 . S
H1472 C1478 0.949 . S
C1473 H1468 0.950 . S
C1473 C1475 1.327 . S
C1473 C1479 1.429 . S
C1474 C1466 1.574 . S
C1474 H1469 0.949 . S
C1474 C1480 1.368 . S
C1475 C1459 1.349 . S
C1475 H1467 0.950 . S
C1475 C1473 1.327 . S
C1476 C1464 1.349 . S
C1476 H1470 0.950 . S
C1476 C1477 1.327 . S
C1477 H1471 0.950 . S
C1477 C1476 1.327 . S
C1477 C1481 1.429 . S
C1478 C1461 1.574 . S
C1478 H1472 0.949 . S
C1478 C1482 1.368 . S
C1479 C1460 1.429 . S
C1479 C1473 1.429 . S
C1479 C1480 1.523 . S
C1480 C1461 1.368 . S
C1480 C1474 1.368 . S
C1480 C1479 1.523 . S
C1481 C1465 1.429 . S
C1481 C1477 1.429 . S
C1481 C1482 1.523 . S
C1482 C1466 1.368 . S
C1482 C1478 1.368 . S
C1482 C1481 1.523 . S
H1483 C1458 0.950 . S
H1484 C1460 0.950 . S
H1485 C1461 0.949 . S
H1486 C1463 0.950 . S
H1487 C1465 0.950 . S
C1488 C1489 1.349 . S
C1488 C1490 1.327 . S
C1488 H1513 0.950 . S
C1489 C1488 1.349 . S
C1489 C1505 1.349 . S
C1490 C1488 1.327 . S
C1490 C1509 1.429 . S
C1490 H1514 0.950 . S
C1491 C1508 1.574 . S
C1491 C1510 1.368 . S
C1491 H1515 0.949 . S
H1492 C1496 0.949 . S
C1493 C1494 1.349 . S
C1493 C1495 1.327 . S
C1493 H1516 0.950 . S
C1494 C1493 1.349 . S
C1494 C1506 1.349 . S
C1495 C1493 1.327 . S
C1495 C1511 1.429 . S
C1495 H1517 0.950 . S
C1496 H1492 0.949 . S
C1496 C1504 1.574 . S
C1496 C1512 1.368 . S
H1497 C1505 0.950 . S
H1498 C1503 0.950 . S
H1499 C1504 0.949 . S
H1500 C1506 0.950 . S
H1501 C1507 0.950 . S
H1502 C1508 0.949 . S
C1503 H1498 0.950 . S
C1503 C1505 1.327 . S
C1503 C1509 1.429 . S
C1504 C1496 1.574 . S
C1504 H1499 0.949 . S
C1504 C1510 1.368 . S
C1505 C1489 1.349 . S
C1505 H1497 0.950 . S
C1505 C1503 1.327 . S
C1506 C1494 1.349 . S
C1506 H1500 0.950 . S
C1506 C1507 1.327 . S
C1507 H1501 0.950 . S
C1507 C1506 1.327 . S
C1507 C1511 1.429 . S
C1508 C1491 1.574 . S
C1508 H1502 0.949 . S
C1508 C1512 1.368 . S
C1509 C1490 1.429 . S
C1509 C1503 1.429 . S
C1509 C1510 1.523 . S
C1510 C1491 1.368 . S
C1510 C1504 1.368 . S
C1510 C1509 1.523 . S
C1511 C1495 1.429 . S
C1511 C1507 1.429 . S
C1511 C1512 1.523 . S
C1512 C1496 1.368 . S
C1512 C1508 1.368 . S
C1512 C1511 1.523 . S
H1513 C1488 0.950 . S
H1514 C1490 0.950 . S
H1515 C1491 0.949 . S
H1516 C1493 0.950 . S
H1517 C1495 0.950 . S
C1518 C1519 1.349 . S
C1518 C1520 1.327 . S
C1518 H1543 0.950 . S
C1519 C1518 1.349 . S
C1519 C1535 1.349 . S
C1520 C1518 1.327 . S
C1520 C1539 1.429 . S
C1520 H1544 0.950 . S
C1521 C1538 1.574 . S
C1521 C1540 1.368 . S
C1521 H1545 0.949 . S
H1522 C1526 0.949 . S
C1523 C1524 1.349 . S
C1523 C1525 1.327 . S
C1523 H1546 0.950 . S
C1524 C1523 1.349 . S
C1524 C1536 1.349 . S
C1525 C1523 1.327 . S
C1525 C1541 1.429 . S
C1525 H1547 0.950 . S
C1526 H1522 0.949 . S
C1526 C1534 1.574 . S
C1526 C1542 1.368 . S
H1527 C1535 0.950 . S
H1528 C1533 0.950 . S
H1529 C1534 0.949 . S
H1530 C1536 0.950 . S
H1531 C1537 0.950 . S
H1532 C1538 0.949 . S
C1533 H1528 0.950 . S
C1533 C1535 1.327 . S
C1533 C1539 1.429 . S
C1534 C1526 1.574 . S
C1534 H1529 0.949 . S
C1534 C1540 1.368 . S
C1535 C1519 1.349 . S
C1535 H1527 0.950 . S
C1535 C1533 1.327 . S
C1536 C1524 1.349 . S
C1536 H1530 0.950 . S
C1536 C1537 1.327 . S
C1537 H1531 0.950 . S
C1537 C1536 1.327 . S
C1537 C1541 1.429 . S
C1538 C1521 1.574 . S
C1538 H1532 0.949 . S
C1538 C1542 1.368 . S
C1539 C1520 1.429 . S
C1539 C1533 1.429 . S
C1539 C1540 1.523 . S
C1540 C1521 1.368 . S
C1540 C1534 1.368 . S
C1540 C1539 1.523 . S
C1541 C1525 1.429 . S
C1541 C1537 1.429 . S
C1541 C1542 1.523 . S
C1542 C1526 1.368 . S
C1542 C1538 1.368 . S
C1542 C1541 1.523 . S
H1543 C1518 0.950 . S
H1544 C1520 0.950 . S
H1545 C1521 0.949 . S
H1546 C1523 0.950 . S
H1547 C1525 0.950 . S
C1548 C1549 1.349 . S
C1548 C1550 1.327 . S
C1548 H1573 0.950 . S
C1549 C1548 1.349 . S
C1549 C1565 1.349 . S
C1550 C1548 1.327 . S
C1550 C1569 1.429 . S
C1550 H1574 0.950 . S
C1551 C1568 1.574 . S
C1551 C1570 1.368 . S
C1551 H1575 0.949 . S
H1552 C1556 0.949 . S
C1553 C1554 1.349 . S
C1553 C1555 1.327 . S
C1553 H1576 0.950 . S
C1554 C1553 1.349 . S
C1554 C1566 1.349 . S
C1555 C1553 1.327 . S
C1555 C1571 1.429 . S
C1555 H1577 0.950 . S
C1556 H1552 0.949 . S
C1556 C1564 1.574 . S
C1556 C1572 1.368 . S
H1557 C1565 0.950 . S
H1558 C1563 0.950 . S
H1559 C1564 0.949 . S
H1560 C1566 0.950 . S
H1561 C1567 0.950 . S
H1562 C1568 0.949 . S
C1563 H1558 0.950 . S
C1563 C1565 1.327 . S
C1563 C1569 1.429 . S
C1564 C1556 1.574 . S
C1564 H1559 0.949 . S
C1564 C1570 1.368 . S
C1565 C1549 1.349 . S
C1565 H1557 0.950 . S
C1565 C1563 1.327 . S
C1566 C1554 1.349 . S
C1566 H1560 0.950 . S
C1566 C1567 1.327 . S
C1567 H1561 0.950 . S
C1567 C1566 1.327 . S
C1567 C1571 1.429 . S
C1568 C1551 1.574 . S
C1568 H1562 0.949 . S
C1568 C1572 1.368 . S
C1569 C1550 1.429 . S
C1569 C1563 1.429 . S
C1569 C1570 1.523 . S
C1570 C1551 1.368 . S
C1570 C1564 1.368 . S
C1570 C1569 1.523 . S
C1571 C1555 1.429 . S
C1571 C1567 1.429 . S
C1571 C1572 1.523 . S
C1572 C1556 1.368 . S
C1572 C1568 1.368 . S
C1572 C1571 1.523 . S
H1573 C1548 0.950 . S
H1574 C1550 0.950 . S
H1575 C1551 0.949 . S
H1576 C1553 0.950 . S
H1577 C1555 0.950 . S
C1578 C1579 1.349 . S
C1578 C1580 1.327 . S
C1578 H1603 0.950 . S
C1579 C1578 1.349 . S
C1579 C1595 1.349 . S
C1580 C1578 1.327 . S
C1580 C1599 1.429 . S
C1580 H1604 0.950 . S
C1581 C1598 1.574 . S
C1581 C1600 1.368 . S
C1581 H1605 0.949 . S
H1582 C1586 0.949 . S
C1583 C1584 1.349 . S
C1583 C1585 1.327 . S
C1583 H1606 0.950 . S
C1584 C1583 1.349 . S
C1584 C1596 1.349 . S
C1585 C1583 1.327 . S
C1585 C1601 1.429 . S
C1585 H1607 0.950 . S
C1586 H1582 0.949 . S
C1586 C1594 1.574 . S
C1586 C1602 1.368 . S
H1587 C1595 0.950 . S
H1588 C1593 0.950 . S
H1589 C1594 0.949 . S
H1590 C1596 0.950 . S
H1591 C1597 0.950 . S
H1592 C1598 0.949 . S
C1593 H1588 0.950 . S
C1593 C1595 1.327 . S
C1593 C1599 1.429 . S
C1594 C1586 1.574 . S
C1594 H1589 0.949 . S
C1594 C1600 1.368 . S
C1595 C1579 1.349 . S
C1595 H1587 0.950 . S
C1595 C1593 1.327 . S
C1596 C1584 1.349 . S
C1596 H1590 0.950 . S
C1596 C1597 1.327 . S
C1597 H1591 0.950 . S
C1597 C1596 1.327 . S
C1597 C1601 1.429 . S
C1598 C1581 1.574 . S
C1598 H1592 0.949 . S
C1598 C1602 1.368 . S
C1599 C1580 1.429 . S
C1599 C1593 1.429 . S
C1599 C1600 1.523 . S
C1600 C1581 1.368 . S
C1600 C1594 1.368 . S
C1600 C1599 1.523 . S
C1601 C1585 1.429 . S
C1601 C1597 1.429 . S
C1601 C1602 1.523 . S
C1602 C1586 1.368 . S
C1602 C1598 1.368 . S
C1602 C1601 1.523 . S
H1603 C1578 0.950 . S
H1604 C1580 0.950 . S
H1605 C1581 0.949 . S
H1606 C1583 0.950 . S
H1607 C1585 0.950 . S
C1608 C1609 1.349 . S
C1608 C1610 1.327 . S
C1608 H1633 0.950 . S
C1609 C1608 1.349 . S
C1609 C1625 1.349 . S
C1610 C1608 1.327 . S
C1610 C1629 1.429 . S
C1610 H1634 0.950 . S
C1611 C1628 1.574 . S
C1611 C1630 1.368 . S
C1611 H1635 0.949 . S
H1612 C1616 0.949 . S
C1613 C1614 1.349 . S
C1613 C1615 1.327 . S
C1613 H1636 0.950 . S
C1614 C1613 1.349 . S
C1614 C1626 1.349 . S
C1615 C1613 1.327 . S
C1615 C1631 1.429 . S
C1615 H1637 0.950 . S
C1616 H1612 0.949 . S
C1616 C1624 1.574 . S
C1616 C1632 1.368 . S
H1617 C1625 0.950 . S
H1618 C1623 0.950 . S
H1619 C1624 0.949 . S
H1620 C1626 0.950 . S
H1621 C1627 0.950 . S
H1622 C1628 0.949 . S
C1623 H1618 0.950 . S
C1623 C1625 1.327 . S
C1623 C1629 1.429 . S
C1624 C1616 1.574 . S
C1624 H1619 0.949 . S
C1624 C1630 1.368 . S
C1625 C1609 1.349 . S
C1625 H1617 0.950 . S
C1625 C1623 1.327 . S
C1626 C1614 1.349 . S
C1626 H1620 0.950 . S
C1626 C1627 1.327 . S
C1627 H1621 0.950 . S
C1627 C1626 1.327 . S
C1627 C1631 1.429 . S
C1628 C1611 1.574 . S
C1628 H1622 0.949 . S
C1628 C1632 1.368 . S
C1629 C1610 1.429 . S
C1629 C1623 1.429 . S
C1629 C1630 1.523 . S
C1630 C1611 1.368 . S
C1630 C1624 1.368 . S
C1630 C1629 1.523 . S
C1631 C1615 1.429 . S
C1631 C1627 1.429 . S
C1631 C1632 1.523 . S
C1632 C1616 1.368 . S
C1632 C1628 1.368 . S
C1632 C1631 1.523 . S
H1633 C1608 0.950 . S
H1634 C1610 0.950 . S
H1635 C1611 0.949 . S
H1636 C1613 0.950 . S
H1637 C1615 0.950 . S
C1638 C1639 1.349 . S
C1638 C1640 1.327 . S
C1638 H1663 0.950 . S
C1639 C1638 1.349 . S
C1639 C1655 1.349 . S
C1640 C1638 1.327 . S
C1640 C1659 1.429 . S
C1640 H1664 0.950 . S
C1641 C1658 1.574 . S
C1641 C1660 1.368 . S
C1641 H1665 0.949 . S
H1642 C1646 0.949 . S
C1643 C1644 1.349 . S
C1643 C1645 1.327 . S
C1643 H1666 0.950 . S
C1644 C1643 1.349 . S
C1644 C1656 1.349 . S
C1645 C1643 1.327 . S
C1645 C1661 1.429 . S
C1645 H1667 0.950 . S
C1646 H1642 0.949 . S
C1646 C1654 1.574 . S
C1646 C1662 1.368 . S
H1647 C1655 0.950 . S
H1648 C1653 0.950 . S
H1649 C1654 0.949 . S
H1650 C1656 0.950 . S
H1651 C1657 0.950 . S
H1652 C1658 0.949 . S
C1653 H1648 0.950 . S
C1653 C1655 1.327 . S
C1653 C1659 1.429 . S
C1654 C1646 1.574 . S
C1654 H1649 0.949 . S
C1654 C1660 1.368 . S
C1655 C1639 1.349 . S
C1655 H1647 0.950 . S
C1655 C1653 1.327 . S
C1656 C1644 1.349 . S
C1656 H1650 0.950 . S
C1656 C1657 1.327 . S
C1657 H1651 0.950 . S
C1657 C1656 1.327 . S
C1657 C1661 1.429 . S
C1658 C1641 1.574 . S
C1658 H1652 0.949 . S
C1658 C1662 1.368 . S
C1659 C1640 1.429 . S
C1659 C1653 1.429 . S
C1659 C1660 1.523 . S
C1660 C1641 1.368 . S
C1660 C1654 1.368 . S
C1660 C1659 1.523 . S
C1661 C1645 1.429 . S
C1661 C1657 1.429 . S
C1661 C1662 1.523 . S
C1662 C1646 1.368 . S
C1662 C1658 1.368 . S
C1662 C1661 1.523 . S
H1663 C1638 0.950 . S
H1664 C1640 0.950 . S
H1665 C1641 0.949 . S
H1666 C1643 0.950 . S
H1667 C1645 0.950 . S
C1668 C1669 1.349 . S
C1668 C1670 1.327 . S
C1668 H1693 0.950 . S
C1669 C1668 1.349 . S
C1669 C1685 1.349 . S
C1670 C1668 1.327 . S
C1670 C1689 1.429 . S
C1670 H1694 0.950 . S
C1671 C1688 1.574 . S
C1671 C1690 1.368 . S
C1671 H1695 0.949 . S
H1672 C1676 0.949 . S
C1673 C1674 1.349 . S
C1673 C1675 1.327 . S
C1673 H1696 0.950 . S
C1674 C1673 1.349 . S
C1674 C1686 1.349 . S
C1675 C1673 1.327 . S
C1675 C1691 1.429 . S
C1675 H1697 0.950 . S
C1676 H1672 0.949 . S
C1676 C1684 1.574 . S
C1676 C1692 1.368 . S
H1677 C1685 0.950 . S
H1678 C1683 0.950 . S
H1679 C1684 0.949 . S
H1680 C1686 0.950 . S
H1681 C1687 0.950 . S
H1682 C1688 0.949 . S
C1683 H1678 0.950 . S
C1683 C1685 1.327 . S
C1683 C1689 1.429 . S
C1684 C1676 1.574 . S
C1684 H1679 0.949 . S
C1684 C1690 1.368 . S
C1685 C1669 1.349 . S
C1685 H1677 0.950 . S
C1685 C1683 1.327 . S
C1686 C1674 1.349 . S
C1686 H1680 0.950 . S
C1686 C1687 1.327 . S
C1687 H1681 0.950 . S
C1687 C1686 1.327 . S
C1687 C1691 1.429 . S
C1688 C1671 1.574 . S
C1688 H1682 0.949 . S
C1688 C1692 1.368 . S
C1689 C1670 1.429 . S
C1689 C1683 1.429 . S
C1689 C1690 1.523 . S
C1690 C1671 1.368 . S
C1690 C1684 1.368 . S
C1690 C1689 1.523 . S
C1691 C1675 1.429 . S
C1691 C1687 1.429 . S
C1691 C1692 1.523 . S
C1692 C1676 1.368 . S
C1692 C1688 1.368 . S
C1692 C1691 1.523 . S
H1693 C1668 0.950 . S
H1694 C1670 0.950 . S
H1695 C1671 0.949 . S
H1696 C1673 0.950 . S
H1697 C1675 0.950 . S
C1698 C1699 1.349 . S
C1698 C1700 1.327 . S
C1698 H1723 0.950 . S
C1699 C1698 1.349 . S
C1699 C1715 1.349 . S
C1700 C1698 1.327 . S
C1700 C1719 1.429 . S
C1700 H1724 0.950 . S
C1701 C1718 1.574 . S
C1701 C1720 1.368 . S
C1701 H1725 0.949 . S
H1702 C1706 0.949 . S
C1703 C1704 1.349 . S
C1703 C1705 1.327 . S
C1703 H1726 0.950 . S
C1704 C1703 1.349 . S
C1704 C1716 1.349 . S
C1705 C1703 1.327 . S
C1705 C1721 1.429 . S
C1705 H1727 0.950 . S
C1706 H1702 0.949 . S
C1706 C1714 1.574 . S
C1706 C1722 1.368 . S
H1707 C1715 0.950 . S
H1708 C1713 0.950 . S
H1709 C1714 0.949 . S
H1710 C1716 0.950 . S
H1711 C1717 0.950 . S
H1712 C1718 0.949 . S
C1713 H1708 0.950 . S
C1713 C1715 1.327 . S
C1713 C1719 1.429 . S
C1714 C1706 1.574 . S
C1714 H1709 0.949 . S
C1714 C1720 1.368 . S
C1715 C1699 1.349 . S
C1715 H1707 0.950 . S
C1715 C1713 1.327 . S
C1716 C1704 1.349 . S
C1716 H1710 0.950 . S
C1716 C1717 1.327 . S
C1717 H1711 0.950 . S
C1717 C1716 1.327 . S
C1717 C1721 1.429 . S
C1718 C1701 1.574 . S
C1718 H1712 0.949 . S
C1718 C1722 1.368 . S
C1719 C1700 1.429 . S
C1719 C1713 1.429 . S
C1719 C1720 1.523 . S
C1720 C1701 1.368 . S
C1720 C1714 1.368 . S
C1720 C1719 1.523 . S
C1721 C1705 1.429 . S
C1721 C1717 1.429 . S
C1721 C1722 1.523 . S
C1722 C1706 1.368 . S
C1722 C1718 1.368 . S
C1722 C1721 1.523 . S
H1723 C1698 0.950 . S
H1724 C1700 0.950 . S
H1725 C1701 0.949 . S
H1726 C1703 0.950 . S
H1727 C1705 0.950 . S
C1728 C1729 1.349 . S
C1728 C1730 1.327 . S
C1728 H1753 0.950 . S
C1729 C1728 1.349 . S
C1729 C1745 1.349 . S
C1730 C1728 1.327 . S
C1730 C1749 1.429 . S
C1730 H1754 0.950 . S
C1731 C1748 1.574 . S
C1731 C1750 1.368 . S
C1731 H1755 0.949 . S
H1732 C1736 0.949 . S
C1733 C1734 1.349 . S
C1733 C1735 1.327 . S
C1733 H1756 0.950 . S
C1734 C1733 1.349 . S
C1734 C1746 1.349 . S
C1735 C1733 1.327 . S
C1735 C1751 1.429 . S
C1735 H1757 0.950 . S
C1736 H1732 0.949 . S
C1736 C1744 1.574 . S
C1736 C1752 1.368 . S
H1737 C1745 0.950 . S
H1738 C1743 0.950 . S
H1739 C1744 0.949 . S
H1740 C1746 0.950 . S
H1741 C1747 0.950 . S
H1742 C1748 0.949 . S
C1743 H1738 0.950 . S
C1743 C1745 1.327 . S
C1743 C1749 1.429 . S
C1744 C1736 1.574 . S
C1744 H1739 0.949 . S
C1744 C1750 1.368 . S
C1745 C1729 1.349 . S
C1745 H1737 0.950 . S
C1745 C1743 1.327 . S
C1746 C1734 1.349 . S
C1746 H1740 0.950 . S
C1746 C1747 1.327 . S
C1747 H1741 0.950 . S
C1747 C1746 1.327 . S
C1747 C1751 1.429 . S
C1748 C1731 1.574 . S
C1748 H1742 0.949 . S
C1748 C1752 1.368 . S
C1749 C1730 1.429 . S
C1749 C1743 1.429 . S
C1749 C1750 1.523 . S
C1750 C1731 1.368 . S
C1750 C1744 1.368 . S
C1750 C1749 1.523 . S
C1751 C1735 1.429 . S
C1751 C1747 1.429 . S
C1751 C1752 1.523 . S
C1752 C1736 1.368 . S
C1752 C1748 1.368 . S
C1752 C1751 1.523 . S
H1753 C1728 0.950 . S
H1754 C1730 0.950 . S
H1755 C1731 0.949 . S
H1756 C1733 0.950 . S
H1757 C1735 0.950 . S
C1758 C1759 1.349 . S
C1758 C1760 1.327 . S
C1758 H1783 0.950 . S
C1759 C1758 1.349 . S
C1759 C1775 1.349 . S
C1760 C1758 1.327 . S
C1760 C1779 1.429 . S
C1760 H1784 0.950 . S
C1761 C1778 1.574 . S
C1761 C1780 1.368 . S
C1761 H1785 0.949 . S
H1762 C1766 0.949 . S
C1763 C1764 1.349 . S
C1763 C1765 1.327 . S
C1763 H1786 0.950 . S
C1764 C1763 1.349 . S
C1764 C1776 1.349 . S
C1765 C1763 1.327 . S
C1765 C1781 1.429 . S
C1765 H1787 0.950 . S
C1766 H1762 0.949 . S
C1766 C1774 1.574 . S
C1766 C1782 1.368 . S
H1767 C1775 0.950 . S
H1768 C1773 0.950 . S
H1769 C1774 0.949 . S
H1770 C1776 0.950 . S
H1771 C1777 0.950 . S
H1772 C1778 0.949 . S
C1773 H1768 0.950 . S
C1773 C1775 1.327 . S
C1773 C1779 1.429 . S
C1774 C1766 1.574 . S
C1774 H1769 0.949 . S
C1774 C1780 1.368 . S
C1775 C1759 1.349 . S
C1775 H1767 0.950 . S
C1775 C1773 1.327 . S
C1776 C1764 1.349 . S
C1776 H1770 0.950 . S
C1776 C1777 1.327 . S
C1777 H1771 0.950 . S
C1777 C1776 1.327 . S
C1777 C1781 1.429 . S
C1778 C1761 1.574 . S
C1778 H1772 0.949 . S
C1778 C1782 1.368 . S
C1779 C1760 1.429 . S
C1779 C1773 1.429 . S
C1779 C1780 1.523 . S
C1780 C1761 1.368 . S
C1780 C1774 1.368 . S
C1780 C1779 1.523 . S
C1781 C1765 1.429 . S
C1781 C1777 1.429 . S
C1781 C1782 1.523 . S
C1782 C1766 1.368 . S
C1782 C1778 1.368 . S
C1782 C1781 1.523 . S
H1783 C1758 0.950 . S
H1784 C1760 0.950 . S
H1785 C1761 0.949 . S
H1786 C1763 0.950 . S
H1787 C1765 0.950 . S
C1788 C1789 1.349 . S
C1788 C1790 1.327 . S
C1788 H1813 0.950 . S
C1789 C1788 1.349 . S
C1789 C1805 1.349 . S
C1790 C1788 1.327 . S
C1790 C1809 1.429 . S
C1790 H1814 0.950 . S
C1791 C1808 1.574 . S
C1791 C1810 1.368 . S
C1791 H1815 0.949 . S
H1792 C1796 0.949 . S
C1793 C1794 1.349 . S
C1793 C1795 1.327 . S
C1793 H1816 0.950 . S
C1794 C1793 1.349 . S
C1794 C1806 1.349 . S
C1795 C1793 1.327 . S
C1795 C1811 1.429 . S
C1795 H1817 0.950 . S
C1796 H1792 0.949 . S
C1796 C1804 1.574 . S
C1796 C1812 1.368 . S
H1797 C1805 0.950 . S
H1798 C1803 0.950 . S
H1799 C1804 0.949 . S
H1800 C1806 0.950 . S
H1801 C1807 0.950 . S
H1802 C1808 0.949 . S
C1803 H1798 0.950 . S
C1803 C1805 1.327 . S
C1803 C1809 1.429 . S
C1804 C1796 1.574 . S
C1804 H1799 0.949 . S
C1804 C1810 1.368 . S
C1805 C1789 1.349 . S
C1805 H1797 0.950 . S
C1805 C1803 1.327 . S
C1806 C1794 1.349 . S
C1806 H1800 0.950 . S
C1806 C1807 1.327 . S
C1807 H1801 0.950 . S
C1807 C1806 1.327 . S
C1807 C1811 1.429 . S
C1808 C1791 1.574 . S
C1808 H1802 0.949 . S
C1808 C1812 1.368 . S
C1809 C1790 1.429 . S
C1809 C1803 1.429 . S
C1809 C1810 1.523 . S
C1810 C1791 1.368 . S
C1810 C1804 1.368 . S
C1810 C1809 1.523 . S
C1811 C1795 1.429 . S
C1811 C1807 1.429 . S
C1811 C1812 1.523 . S
C1812 C1796 1.368 . S
C1812 C1808 1.368 . S
C1812 C1811 1.523 . S
H1813 C1788 0.950 . S
H1814 C1790 0.950 . S
H1815 C1791 0.949 . S
H1816 C1793 0.950 . S
H1817 C1795 0.950 . S
C1818 C1819 1.349 . S
C1818 C1820 1.327 . S
C1818 H1843 0.950 . S
C1819 C1818 1.349 . S
C1819 C1835 1.349 . S
C1820 C1818 1.327 . S
C1820 C1839 1.429 . S
C1820 H1844 0.950 . S
C1821 C1838 1.574 . S
C1821 C1840 1.368 . S
C1821 H1845 0.949 . S
H1822 C1826 0.949 . S
C1823 C1824 1.349 . S
C1823 C1825 1.327 . S
C1823 H1846 0.950 . S
C1824 C1823 1.349 . S
C1824 C1836 1.349 . S
C1825 C1823 1.327 . S
C1825 C1841 1.429 . S
C1825 H1847 0.950 . S
C1826 H1822 0.949 . S
C1826 C1834 1.574 . S
C1826 C1842 1.368 . S
H1827 C1835 0.950 . S
H1828 C1833 0.950 . S
H1829 C1834 0.949 . S
H1830 C1836 0.950 . S
H1831 C1837 0.950 . S
H1832 C1838 0.949 . S
C1833 H1828 0.950 . S
C1833 C1835 1.327 . S
C1833 C1839 1.429 . S
C1834 C1826 1.574 . S
C1834 H1829 0.949 . S
C1834 C1840 1.368 . S
C1835 C1819 1.349 . S
C1835 H1827 0.950 . S
C1835 C1833 1.327 . S
C1836 C1824 1.349 . S
C1836 H1830 0.950 . S
C1836 C1837 1.327 . S
C1837 H1831 0.950 . S
C1837 C1836 1.327 . S
C1837 C1841 1.429 . S
C1838 C1821 1.574 . S
C1838 H1832 0.949 . S
C1838 C1842 1.368 . S
C1839 C1820 1.429 . S
C1839 C1833 1.429 . S
C1839 C1840 1.523 . S
C1840 C1821 1.368 . S
C1840 C1834 1.368 . S
C1840 C1839 1.523 . S
C1841 C1825 1.429 . S
C1841 C1837 1.429 . S
C1841 C1842 1.523 . S
C1842 C1826 1.368 . S
C1842 C1838 1.368 . S
C1842 C1841 1.523 . S
H1843 C1818 0.950 . S
H1844 C1820 0.950 . S
H1845 C1821 0.949 . S
H1846 C1823 0.950 . S
H1847 C1825 0.950 . S
C1848 C1849 1.349 . S
C1848 C1850 1.327 . S
C1848 H1873 0.950 . S
C1849 C1848 1.349 . S
C1849 C1865 1.349 . S
C1850 C1848 1.327 . S
C1850 C1869 1.429 . S
C1850 H1874 0.950 . S
C1851 C1868 1.574 . S
C1851 C1870 1.368 . S
C1851 H1875 0.949 . S
H1852 C1856 0.949 . S
C1853 C1854 1.349 . S
C1853 C1855 1.327 . S
C1853 H1876 0.950 . S
C1854 C1853 1.349 . S
C1854 C1866 1.349 . S
C1855 C1853 1.327 . S
C1855 C1871 1.429 . S
C1855 H1877 0.950 . S
C1856 H1852 0.949 . S
C1856 C1864 1.574 . S
C1856 C1872 1.368 . S
H1857 C1865 0.950 . S
H1858 C1863 0.950 . S
H1859 C1864 0.949 . S
H1860 C1866 0.950 . S
H1861 C1867 0.950 . S
H1862 C1868 0.949 . S
C1863 H1858 0.950 . S
C1863 C1865 1.327 . S
C1863 C1869 1.429 . S
C1864 C1856 1.574 . S
C1864 H1859 0.949 . S
C1864 C1870 1.368 . S
C1865 C1849 1.349 . S
C1865 H1857 0.950 . S
C1865 C1863 1.327 . S
C1866 C1854 1.349 . S
C1866 H1860 0.950 . S
C1866 C1867 1.327 . S
C1867 H1861 0.950 . S
C1867 C1866 1.327 . S
C1867 C1871 1.429 . S
C1868 C1851 1.574 . S
C1868 H1862 0.949 . S
C1868 C1872 1.368 . S
C1869 C1850 1.429 . S
C1869 C1863 1.429 . S
C1869 C1870 1.523 . S
C1870 C1851 1.368 . S
C1870 C1864 1.368 . S
C1870 C1869 1.523 . S
C1871 C1855 1.429 . S
C1871 C1867 1.429 . S
C1871 C1872 1.523 . S
C1872 C1856 1.368 . S
C1872 C1868 1.368 . S
C1872 C1871 1.523 . S
H1873 C1848 0.950 . S
H1874 C1850 0.950 . S
H1875 C1851 0.949 . S
H1876 C1853 0.950 . S
H1877 C1855 0.950 . S
C444 C267 0.682 . S
C439 N6 0.668 . S
C474 C268 2.167 . S
C469 C57 2.281 . S
C504 C262 1.216 . S
C499 C61 1.251 . S
C529 N96 0.485 . S
C534 C261 0.314 . S
C559 C136 2.281 . S
C564 C264 2.167 . S
C594 C266 1.216 . S
C589 C160 1.250 . S
C619 N194 0.485 . S
C624 C265 0.314 . S
C649 N224 0.668 . S
C654 C263 0.682 . S
C684 C298 1.965 . S
C679 C10 1.948 . S
C709 N36 0.835 . S
C714 C329 0.845 . S
C744 C297 0.573 . S
C739 N74 0.583 . S
C774 C332 1.107 . S
C769 C100 1.133 . S
C799 C121 1.396 . S
C804 C295 1.366 . S
C834 C327 1.900 . S
C829 C177 1.895 . S
C859 C196 1.962 . S
C864 C300 1.905 . S
C889 C226 1.924 . S
C894 C334 1.875 . S
C919 C27 1.924 . S
C924 C330 1.873 . S
C949 N134 0.835 . S
C954 C333 0.846 . S
C984 C301 0.573 . S
C979 N156 0.584 . S
C1014 C328 1.107 . S
C1009 C181 1.137 . S
C1039 C211 1.950 . S
C1044 C294 1.966 . S
C1069 C76 1.893 . S
C1074 C331 1.899 . S
C1104 C296 1.904 . S
C1099 C117 1.960 . S
C1129 C40 1.396 . S
C1134 C299 1.364 . S
C1159 N216 0.683 . S
C1164 C366 0.692 . S
C1189 C147 1.762 . S
C1194 C367 1.665 . S
C1224 C361 1.136 . S
C1219 C151 1.168 . S
C1254 C360 0.606 . S
C1249 N186 0.630 . S
C1279 C46 1.762 . S
C1284 C363 1.663 . S
C1314 C365 1.136 . S
C1309 C70 1.164 . S
C1339 N104 0.629 . S
C1344 C364 0.605 . S
C1369 N14 0.683 . S
C1374 C362 0.693 . S
C1399 C220 2.073 . S
C1404 C400 2.001 . S
C1434 C432 0.751 . S
C1429 N126 0.751 . S
C1459 N164 0.498 . S
C1464 C393 0.446 . S
C1489 C190 1.420 . S
C1494 C427 1.405 . S
C1524 C398 1.143 . S
C1519 C31 1.159 . S
C1549 C87 2.075 . S
C1554 C429 2.020 . S
C1584 C395 2.124 . S
C1579 C106 2.208 . S
C1614 C430 1.860 . S
C1609 C16 1.817 . S
C1644 C426 1.860 . S
C1639 C237 1.817 . S
C1669 N44 0.751 . S
C1674 C428 0.751 . S
C1699 N66 0.498 . S
C1704 C397 0.446 . S
C1734 C431 1.405 . S
C1729 C91 1.420 . S
C1759 C1 2.073 . S
C1764 C396 2.001 . S
C1789 C166 2.075 . S
C1794 C433 2.020 . S
C1824 C399 2.124 . S
C1819 C207 2.208 . S
C1854 C394 1.143 . S
C1849 C130 1.159 . S
