# Generated by pormake.
# Topology ibd, (4,6)-cn, num edge types: 1
# Building blocks:
#     Node 0, Type 0, BuildingBlock: QUQFOY_clean_sbu_3, # of connection points: 4
#     Node 1, Type 0, BuildingBlock: QUQFOY_clean_sbu_3, # of connection points: 4
#     Node 2, Type 0, BuildingBlock: QUQFOY_clean_sbu_3, # of connection points: 4
#     Node 3, Type 0, BuildingBlock: QUQFOY_clean_sbu_3, # of connection points: 4
#     Node 4, Type 0, BuildingBlock: QUQFOY_clean_sbu_3, # of connection points: 4
#     Node 5, Type 0, BuildingBlock: QUQFOY_clean_sbu_3, # of connection points: 4
#     Node 6, Type 0, BuildingBlock: QUQFOY_clean_sbu_3, # of connection points: 4
#     Node 7, Type 0, BuildingBlock: QUQFOY_clean_sbu_3, # of connection points: 4
#     Node 8, Type 0, BuildingBlock: QUQFOY_clean_sbu_3, # of connection points: 4
#     Node 9, Type 0, BuildingBlock: QUQFOY_clean_sbu_3, # of connection points: 4
#     Node 10, Type 0, BuildingBlock: QUQFOY_clean_sbu_3, # of connection points: 4
#     Node 11, Type 0, BuildingBlock: QUQFOY_clean_sbu_3, # of connection points: 4
#     Node 12, Type 0, BuildingBlock: QUQFOY_clean_sbu_3, # of connection points: 4
#     Node 13, Type 0, BuildingBlock: QUQFOY_clean_sbu_3, # of connection points: 4
#     Node 14, Type 0, BuildingBlock: QUQFOY_clean_sbu_3, # of connection points: 4
#     Node 15, Type 0, BuildingBlock: QUQFOY_clean_sbu_3, # of connection points: 4
#     Node 16, Type 0, BuildingBlock: QUQFOY_clean_sbu_3, # of connection points: 4
#     Node 17, Type 0, BuildingBlock: QUQFOY_clean_sbu_3, # of connection points: 4
#     Node 18, Type 0, BuildingBlock: QUQFOY_clean_sbu_3, # of connection points: 4
#     Node 19, Type 0, BuildingBlock: QUQFOY_clean_sbu_3, # of connection points: 4
#     Node 20, Type 0, BuildingBlock: QUQFOY_clean_sbu_3, # of connection points: 4
#     Node 21, Type 0, BuildingBlock: QUQFOY_clean_sbu_3, # of connection points: 4
#     Node 22, Type 0, BuildingBlock: QUQFOY_clean_sbu_3, # of connection points: 4
#     Node 23, Type 0, BuildingBlock: QUQFOY_clean_sbu_3, # of connection points: 4
#     Node 24, Type 1, BuildingBlock: IZENUY_clean_sbu_0, # of connection points: 6
#     Node 25, Type 1, BuildingBlock: IZENUY_clean_sbu_0, # of connection points: 6
#     Node 26, Type 1, BuildingBlock: IZENUY_clean_sbu_0, # of connection points: 6
#     Node 27, Type 1, BuildingBlock: IZENUY_clean_sbu_0, # of connection points: 6
#     Node 28, Type 1, BuildingBlock: IZENUY_clean_sbu_0, # of connection points: 6
#     Node 29, Type 1, BuildingBlock: IZENUY_clean_sbu_0, # of connection points: 6
#     Node 30, Type 1, BuildingBlock: IZENUY_clean_sbu_0, # of connection points: 6
#     Node 31, Type 1, BuildingBlock: IZENUY_clean_sbu_0, # of connection points: 6
#     Node 32, Type 1, BuildingBlock: IZENUY_clean_sbu_0, # of connection points: 6
#     Node 33, Type 1, BuildingBlock: IZENUY_clean_sbu_0, # of connection points: 6
#     Node 34, Type 1, BuildingBlock: IZENUY_clean_sbu_0, # of connection points: 6
#     Node 35, Type 1, BuildingBlock: IZENUY_clean_sbu_0, # of connection points: 6
#     Node 36, Type 1, BuildingBlock: IZENUY_clean_sbu_0, # of connection points: 6
#     Node 37, Type 1, BuildingBlock: IZENUY_clean_sbu_0, # of connection points: 6
#     Node 38, Type 1, BuildingBlock: IZENUY_clean_sbu_0, # of connection points: 6
#     Node 39, Type 1, BuildingBlock: IZENUY_clean_sbu_0, # of connection points: 6
#     Edge 40, Type (0, 1), BuildingBlock: ZUJKAS_clean_linker_0, # of connection points: 2
#     Edge 41, Type (0, 1), BuildingBlock: ZUJKAS_clean_linker_0, # of connection points: 2
#     Edge 42, Type (0, 1), BuildingBlock: ZUJKAS_clean_linker_0, # of connection points: 2
#     Edge 43, Type (0, 1), BuildingBlock: ZUJKAS_clean_linker_0, # of connection points: 2
#     Edge 44, Type (0, 1), BuildingBlock: ZUJKAS_clean_linker_0, # of connection points: 2
#     Edge 45, Type (0, 1), BuildingBlock: ZUJKAS_clean_linker_0, # of connection points: 2
#     Edge 46, Type (0, 1), BuildingBlock: ZUJKAS_clean_linker_0, # of connection points: 2
#     Edge 47, Type (0, 1), BuildingBlock: ZUJKAS_clean_linker_0, # of connection points: 2
#     Edge 48, Type (0, 1), BuildingBlock: ZUJKAS_clean_linker_0, # of connection points: 2
#     Edge 49, Type (0, 1), BuildingBlock: ZUJKAS_clean_linker_0, # of connection points: 2
#     Edge 50, Type (0, 1), BuildingBlock: ZUJKAS_clean_linker_0, # of connection points: 2
#     Edge 51, Type (0, 1), BuildingBlock: ZUJKAS_clean_linker_0, # of connection points: 2
#     Edge 52, Type (0, 1), BuildingBlock: ZUJKAS_clean_linker_0, # of connection points: 2
#     Edge 53, Type (0, 1), BuildingBlock: ZUJKAS_clean_linker_0, # of connection points: 2
#     Edge 54, Type (0, 1), BuildingBlock: ZUJKAS_clean_linker_0, # of connection points: 2
#     Edge 55, Type (0, 1), BuildingBlock: ZUJKAS_clean_linker_0, # of connection points: 2
#     Edge 56, Type (0, 1), BuildingBlock: ZUJKAS_clean_linker_0, # of connection points: 2
#     Edge 57, Type (0, 1), BuildingBlock: ZUJKAS_clean_linker_0, # of connection points: 2
#     Edge 58, Type (0, 1), BuildingBlock: ZUJKAS_clean_linker_0, # of connection points: 2
#     Edge 59, Type (0, 1), BuildingBlock: ZUJKAS_clean_linker_0, # of connection points: 2
#     Edge 60, Type (0, 1), BuildingBlock: ZUJKAS_clean_linker_0, # of connection points: 2
#     Edge 61, Type (0, 1), BuildingBlock: ZUJKAS_clean_linker_0, # of connection points: 2
#     Edge 62, Type (0, 1), BuildingBlock: ZUJKAS_clean_linker_0, # of connection points: 2
#     Edge 63, Type (0, 1), BuildingBlock: ZUJKAS_clean_linker_0, # of connection points: 2
#     Edge 64, Type (0, 1), BuildingBlock: ZUJKAS_clean_linker_0, # of connection points: 2
#     Edge 65, Type (0, 1), BuildingBlock: ZUJKAS_clean_linker_0, # of connection points: 2
#     Edge 66, Type (0, 1), BuildingBlock: ZUJKAS_clean_linker_0, # of connection points: 2
#     Edge 67, Type (0, 1), BuildingBlock: ZUJKAS_clean_linker_0, # of connection points: 2
#     Edge 68, Type (0, 1), BuildingBlock: ZUJKAS_clean_linker_0, # of connection points: 2
#     Edge 69, Type (0, 1), BuildingBlock: ZUJKAS_clean_linker_0, # of connection points: 2
#     Edge 70, Type (0, 1), BuildingBlock: ZUJKAS_clean_linker_0, # of connection points: 2
#     Edge 71, Type (0, 1), BuildingBlock: ZUJKAS_clean_linker_0, # of connection points: 2
#     Edge 72, Type (0, 1), BuildingBlock: ZUJKAS_clean_linker_0, # of connection points: 2
#     Edge 73, Type (0, 1), BuildingBlock: ZUJKAS_clean_linker_0, # of connection points: 2
#     Edge 74, Type (0, 1), BuildingBlock: ZUJKAS_clean_linker_0, # of connection points: 2
#     Edge 75, Type (0, 1), BuildingBlock: ZUJKAS_clean_linker_0, # of connection points: 2
#     Edge 76, Type (0, 1), BuildingBlock: ZUJKAS_clean_linker_0, # of connection points: 2
#     Edge 77, Type (0, 1), BuildingBlock: ZUJKAS_clean_linker_0, # of connection points: 2
#     Edge 78, Type (0, 1), BuildingBlock: ZUJKAS_clean_linker_0, # of connection points: 2
#     Edge 79, Type (0, 1), BuildingBlock: ZUJKAS_clean_linker_0, # of connection points: 2
#     Edge 80, Type (0, 1), BuildingBlock: ZUJKAS_clean_linker_0, # of connection points: 2
#     Edge 81, Type (0, 1), BuildingBlock: ZUJKAS_clean_linker_0, # of connection points: 2
#     Edge 82, Type (0, 1), BuildingBlock: ZUJKAS_clean_linker_0, # of connection points: 2
#     Edge 83, Type (0, 1), BuildingBlock: ZUJKAS_clean_linker_0, # of connection points: 2
#     Edge 84, Type (0, 1), BuildingBlock: ZUJKAS_clean_linker_0, # of connection points: 2
#     Edge 85, Type (0, 1), BuildingBlock: ZUJKAS_clean_linker_0, # of connection points: 2
#     Edge 86, Type (0, 1), BuildingBlock: ZUJKAS_clean_linker_0, # of connection points: 2
#     Edge 87, Type (0, 1), BuildingBlock: ZUJKAS_clean_linker_0, # of connection points: 2
#     Edge 88, Type (0, 1), BuildingBlock: ZUJKAS_clean_linker_0, # of connection points: 2
#     Edge 89, Type (0, 1), BuildingBlock: ZUJKAS_clean_linker_0, # of connection points: 2
#     Edge 90, Type (0, 1), BuildingBlock: ZUJKAS_clean_linker_0, # of connection points: 2
#     Edge 91, Type (0, 1), BuildingBlock: ZUJKAS_clean_linker_0, # of connection points: 2
#     Edge 92, Type (0, 1), BuildingBlock: ZUJKAS_clean_linker_0, # of connection points: 2
#     Edge 93, Type (0, 1), BuildingBlock: ZUJKAS_clean_linker_0, # of connection points: 2
#     Edge 94, Type (0, 1), BuildingBlock: ZUJKAS_clean_linker_0, # of connection points: 2
#     Edge 95, Type (0, 1), BuildingBlock: ZUJKAS_clean_linker_0, # of connection points: 2
#     Edge 96, Type (0, 1), BuildingBlock: ZUJKAS_clean_linker_0, # of connection points: 2
#     Edge 97, Type (0, 1), BuildingBlock: ZUJKAS_clean_linker_0, # of connection points: 2
#     Edge 98, Type (0, 1), BuildingBlock: ZUJKAS_clean_linker_0, # of connection points: 2
#     Edge 99, Type (0, 1), BuildingBlock: ZUJKAS_clean_linker_0, # of connection points: 2
#     Edge 100, Type (0, 1), BuildingBlock: ZUJKAS_clean_linker_0, # of connection points: 2
#     Edge 101, Type (0, 1), BuildingBlock: ZUJKAS_clean_linker_0, # of connection points: 2
#     Edge 102, Type (0, 1), BuildingBlock: ZUJKAS_clean_linker_0, # of connection points: 2
#     Edge 103, Type (0, 1), BuildingBlock: ZUJKAS_clean_linker_0, # of connection points: 2
#     Edge 104, Type (0, 1), BuildingBlock: ZUJKAS_clean_linker_0, # of connection points: 2
#     Edge 105, Type (0, 1), BuildingBlock: ZUJKAS_clean_linker_0, # of connection points: 2
#     Edge 106, Type (0, 1), BuildingBlock: ZUJKAS_clean_linker_0, # of connection points: 2
#     Edge 107, Type (0, 1), BuildingBlock: ZUJKAS_clean_linker_0, # of connection points: 2
#     Edge 108, Type (0, 1), BuildingBlock: ZUJKAS_clean_linker_0, # of connection points: 2
#     Edge 109, Type (0, 1), BuildingBlock: ZUJKAS_clean_linker_0, # of connection points: 2
#     Edge 110, Type (0, 1), BuildingBlock: ZUJKAS_clean_linker_0, # of connection points: 2
#     Edge 111, Type (0, 1), BuildingBlock: ZUJKAS_clean_linker_0, # of connection points: 2
#     Edge 112, Type (0, 1), BuildingBlock: ZUJKAS_clean_linker_0, # of connection points: 2
#     Edge 113, Type (0, 1), BuildingBlock: ZUJKAS_clean_linker_0, # of connection points: 2
#     Edge 114, Type (0, 1), BuildingBlock: ZUJKAS_clean_linker_0, # of connection points: 2
#     Edge 115, Type (0, 1), BuildingBlock: ZUJKAS_clean_linker_0, # of connection points: 2
#     Edge 116, Type (0, 1), BuildingBlock: ZUJKAS_clean_linker_0, # of connection points: 2
#     Edge 117, Type (0, 1), BuildingBlock: ZUJKAS_clean_linker_0, # of connection points: 2
#     Edge 118, Type (0, 1), BuildingBlock: ZUJKAS_clean_linker_0, # of connection points: 2
#     Edge 119, Type (0, 1), BuildingBlock: ZUJKAS_clean_linker_0, # of connection points: 2
#     Edge 120, Type (0, 1), BuildingBlock: ZUJKAS_clean_linker_0, # of connection points: 2
#     Edge 121, Type (0, 1), BuildingBlock: ZUJKAS_clean_linker_0, # of connection points: 2
#     Edge 122, Type (0, 1), BuildingBlock: ZUJKAS_clean_linker_0, # of connection points: 2
#     Edge 123, Type (0, 1), BuildingBlock: ZUJKAS_clean_linker_0, # of connection points: 2
#     Edge 124, Type (0, 1), BuildingBlock: ZUJKAS_clean_linker_0, # of connection points: 2
#     Edge 125, Type (0, 1), BuildingBlock: ZUJKAS_clean_linker_0, # of connection points: 2
#     Edge 126, Type (0, 1), BuildingBlock: ZUJKAS_clean_linker_0, # of connection points: 2
#     Edge 127, Type (0, 1), BuildingBlock: ZUJKAS_clean_linker_0, # of connection points: 2
#     Edge 128, Type (0, 1), BuildingBlock: ZUJKAS_clean_linker_0, # of connection points: 2
#     Edge 129, Type (0, 1), BuildingBlock: ZUJKAS_clean_linker_0, # of connection points: 2
#     Edge 130, Type (0, 1), BuildingBlock: ZUJKAS_clean_linker_0, # of connection points: 2
#     Edge 131, Type (0, 1), BuildingBlock: ZUJKAS_clean_linker_0, # of connection points: 2
#     Edge 132, Type (0, 1), BuildingBlock: ZUJKAS_clean_linker_0, # of connection points: 2
#     Edge 133, Type (0, 1), BuildingBlock: ZUJKAS_clean_linker_0, # of connection points: 2
#     Edge 134, Type (0, 1), BuildingBlock: ZUJKAS_clean_linker_0, # of connection points: 2
#     Edge 135, Type (0, 1), BuildingBlock: ZUJKAS_clean_linker_0, # of connection points: 2
# Relax obj value: 0.309
# Max RMSD: 0.288
# Mean RMSD: 0.261
data_MOF--net-ibd--node1-QUQFOY_clean_sbu_3--node2-IZENUY_clean_sbu_0--edge1-ZUJKAS_clean_linker_0
_symmetry_space_group_name_H-M    P1
_symmetry_Int_Tables_number       1
_symmetry_cell_setting            triclinic
loop_
_symmetry_equiv_pos_as_xyz
'x, y, z'
_cell_length_a     63.965004
_cell_length_b     63.91541
_cell_length_c     63.941771
_cell_angle_alpha  90.061617
_cell_angle_beta   90.114937
_cell_angle_gamma 91.074396
loop_
_atom_site_label
_atom_site_type_symbol
_atom_site_fract_x
_atom_site_fract_y
_atom_site_fract_z
_atom_type_partial_charge
C0 C 0.96626 0.20391 0.38859 0.0
O1 O 0.95138 0.21574 0.38343 0.0
Cd2 Cd 0.95333 0.24443 0.35991 0.0
O3 O 0.9843 0.20601 0.38029 0.0
Cd4 Cd -0.00021 0.22847 0.35227 0.0
C5 C -0.00574 0.27154 0.3824 0.0
O6 O 0.96926 0.22934 0.33005 0.0
O7 O -0.00646 0.25154 0.32205 0.0
O8 O 0.01949 0.19945 0.3381 0.0
C9 C 0.97599 0.24318 0.31756 0.0
O10 O 0.9748 0.27108 0.3781 0.0
C11 C 0.03676 0.20958 0.33738 0.0
O12 O 0.00621 0.25737 0.37569 0.0
O13 O 0.03692 0.22811 0.34453 0.0
C14 C 0.00163 0.79815 0.60419 0.0
O15 O 0.98305 0.80458 0.60592 0.0
Cd16 Cd 0.95585 0.78783 0.62545 0.0
O17 O 0.00736 0.78162 0.6136 0.0
Cd18 Cd -0.00861 0.75491 0.63716 0.0
C19 C 0.95607 0.74066 0.59996 0.0
O20 O 0.97155 0.77886 0.65789 0.0
O21 O 0.96344 0.74639 0.66264 0.0
O22 O 0.02308 0.75214 0.65827 0.0
C23 C 0.96099 0.76531 0.6679 0.0
O24 O 0.94629 0.75729 0.60425 0.0
C25 C 0.02476 0.73253 0.65576 0.0
O26 O 0.97335 0.73669 0.60887 0.0
O27 O 0.01128 0.72351 0.64408 0.0
C28 C 0.45547 0.73381 0.89925 0.0
O29 O 0.44754 0.75182 0.89759 0.0
Cd30 Cd 0.45283 0.77663 0.8701 0.0
O31 O 0.46883 0.72745 0.88602 0.0
Cd32 Cd 0.48644 0.74435 0.85581 0.0
C33 C 0.50258 0.78842 0.88214 0.0
O34 O 0.45407 0.75474 0.83982 0.0
O35 O 0.48188 0.76563 0.824 0.0
O36 O 0.4937 0.71114 0.83851 0.0
C37 C 0.46216 0.76334 0.82394 0.0
O38 O 0.4846 0.79617 0.87959 0.0
C39 C 0.51322 0.71485 0.83689 0.0
O40 O 0.50619 0.76983 0.87629 0.0
O41 O 0.52022 0.73169 0.84501 0.0
C42 C 0.50578 0.29962 0.10496 0.0
O43 O 0.48853 0.30874 0.10767 0.0
Cd44 Cd 0.45921 0.29184 0.12392 0.0
O45 O 0.50881 0.28153 0.11261 0.0
Cd46 Cd 0.49057 0.25588 0.13548 0.0
C47 C 0.45747 0.24567 0.09591 0.0
O48 O 0.47143 0.27975 0.15698 0.0
O49 O 0.45977 0.24785 0.15725 0.0
O50 O 0.52118 0.25165 0.15759 0.0
C51 C 0.45901 0.2662 0.16471 0.0
O52 O 0.449 0.26309 0.10008 0.0
C53 C 0.52211 0.23198 0.15509 0.0
O54 O 0.4735 0.23979 0.10592 0.0
O55 O 0.50855 0.2235 0.1431 0.0
C56 C 0.93513 0.71904 0.13469 0.0
O57 O 0.92495 0.73566 0.13183 0.0
Cd58 Cd 0.94037 0.76617 0.1163 0.0
O59 O 0.95348 0.71715 0.12728 0.0
Cd60 Cd 0.97834 0.73647 0.10437 0.0
C61 C 0.98642 0.76883 0.14497 0.0
O62 O 0.95319 0.75501 0.08335 0.0
O63 O 0.98496 0.76679 0.08186 0.0
O64 O 0.98286 0.70368 0.08551 0.0
C65 C 0.9663 0.76771 0.0753 0.0
O66 O 0.96865 0.77642 0.14057 0.0
C67 C 0.00256 0.70582 0.08382 0.0
O68 O -0.00654 0.75341 0.13473 0.0
O69 O 0.01102 0.72185 0.09229 0.0
C70 C 0.51618 0.77501 0.34144 0.0
O71 O 0.50161 0.78819 0.34274 0.0
Cd72 Cd 0.47222 0.7863 0.36553 0.0
O73 O 0.51657 0.75906 0.3534 0.0
Cd74 Cd 0.49528 0.74471 0.3827 0.0
C75 C 0.45277 0.73808 0.35106 0.0
O76 O 0.48825 0.7782 0.39803 0.0
O77 O 0.47172 0.7523 0.41224 0.0
O78 O 0.5258 0.73357 0.40229 0.0
C79 C 0.47604 0.77174 0.4122 0.0
O80 O 0.45044 0.75783 0.35111 0.0
C81 C 0.5202 0.7144 0.403 0.0
O82 O 0.46797 0.72987 0.36069 0.0
O83 O 0.5033 0.70928 0.39372 0.0
C84 C 0.43517 0.2228 0.6323 0.0
O85 O 0.42495 0.23911 0.62817 0.0
Cd86 Cd 0.4414 0.2679 0.61056 0.0
O87 O 0.45341 0.22036 0.62486 0.0
Cd88 Cd 0.47799 0.23734 0.60011 0.0
C89 C 0.48796 0.27114 0.63857 0.0
O90 O 0.4538 0.25537 0.57784 0.0
O91 O 0.48526 0.26825 0.57835 0.0
O92 O 0.47906 0.20496 0.58059 0.0
C93 C 0.46711 0.2682 0.57036 0.0
O94 O 0.47032 0.27885 0.63386 0.0
C95 C 0.49884 0.20392 0.58008 0.0
O96 O 0.49452 0.25493 0.62928 0.0
O97 O 0.50915 0.21841 0.58933 0.0
C98 C 0.02439 0.27576 0.84946 0.0
O99 O 0.01057 0.28877 0.8547 0.0
Cd100 Cd 0.98161 0.28188 0.87695 0.0
O101 O 0.02439 0.2573 0.85704 0.0
Cd102 Cd 0.00387 0.23763 0.88386 0.0
C103 C 0.96119 0.23798 0.85263 0.0
O104 O -0.00206 0.26686 0.90651 0.0
O105 O 0.97928 0.23948 0.91355 0.0
O106 O 0.03544 0.22406 0.89938 0.0
C107 C 0.98492 0.25794 0.9185 0.0
O108 O 0.95917 0.25723 0.85729 0.0
C109 C 0.02938 0.20503 0.89904 0.0
O110 O 0.97652 0.22765 0.85956 0.0
O111 O 0.01175 0.20103 0.89063 0.0
C112 C 0.39846 0.93445 0.20847 0.0
O113 O 0.39618 0.92108 0.223 0.0
Cd114 Cd 0.37627 0.92664 0.25388 0.0
O115 O 0.38948 0.95205 0.20947 0.0
Cd116 Cd 0.36508 0.96953 0.23376 0.0
C117 C 0.40069 0.9707 0.27299 0.0
O118 O 0.3435 0.93872 0.24083 0.0
O119 O 0.33739 0.96561 0.26011 0.0
O120 O 0.34635 0.9827 0.20366 0.0
C121 C 0.33186 0.94744 0.25408 0.0
O122 O 0.39701 0.9512 0.27524 0.0
C123 C 0.34652 0.00167 0.20955 0.0
O124 O 0.39176 0.9809 0.25854 0.0
O125 O 0.35618 0.00594 0.22643 0.0
C126 C 0.28716 0.0991 0.51064 0.0
O127 O 0.29432 0.10065 0.49219 0.0
Cd128 Cd 0.27565 0.1173 0.46485 0.0
O129 O 0.26919 0.10606 0.51517 0.0
Cd130 Cd 0.24026 0.12439 0.49784 0.0
C131 C 0.23182 0.0858 0.46288 0.0
O132 O 0.26373 0.14868 0.48121 0.0
O133 O 0.23202 0.14976 0.46979 0.0
O134 O 0.23546 0.14106 0.53159 0.0
C135 C 0.2502 0.15793 0.47042 0.0
O136 O 0.2483 0.09233 0.45363 0.0
C137 C 0.21564 0.13975 0.53142 0.0
O138 O 0.22615 0.09394 0.48004 0.0
O139 O 0.2072 0.13074 0.51575 0.0
C140 C 0.13907 0.93335 0.73995 0.0
O141 O 0.14099 0.9274 0.75879 0.0
Cd142 Cd 0.1285 0.94692 0.78807 0.0
O143 O 0.13045 0.95063 0.73565 0.0
Cd144 Cd 0.11394 0.97984 0.75408 0.0
C145 C 0.15673 -0.00757 0.78311 0.0
O146 O 0.09419 0.95772 0.77796 0.0
O147 O 0.09187 -0.00901 0.7831 0.0
O148 O 0.08996 0.98386 0.72473 0.0
C149 C 0.0859 0.97259 0.78785 0.0
O150 O 0.15346 0.97582 0.79365 0.0
C151 C 0.09457 0.00302 0.72163 0.0
O152 O 0.14525 -0.0032 0.76754 0.0
O153 O 0.10839 0.01124 0.73347 0.0
C154 C 0.27164 0.83176 0.02211 0.0
O155 O 0.28605 0.834 0.00863 0.0
Cd156 Cd 0.2825 0.85435 0.97759 0.0
O157 O 0.25436 0.84112 0.02002 0.0
Cd158 Cd 0.23877 0.86662 -0.00425 0.0
C159 C 0.23839 0.83188 0.95599 0.0
O160 O 0.27052 0.88719 -0.00953 0.0
O161 O 0.24462 0.89513 0.97052 0.0
O162 O 0.22584 0.88429 0.02629 0.0
C163 C 0.26287 0.89952 0.97715 0.0
O164 O 0.2581 0.83481 0.95493 0.0
C165 C 0.20694 0.88489 0.02033 0.0
O166 O 0.22774 0.84097 0.96996 0.0
O167 O 0.20251 0.87631 0.00291 0.0
C168 C 0.24534 0.33686 0.03626 0.0
O169 O 0.26375 0.34105 0.04265 0.0
Cd170 Cd 0.28748 0.3639 0.0247 0.0
O171 O 0.23788 0.34594 0.02022 0.0
Cd172 Cd 0.24867 0.3738 -0.00473 0.0
C173 C 0.28499 0.34207 0.97547 0.0
O174 O 0.26844 0.39513 0.01976 0.0
O175 O 0.27321 0.40294 0.98733 0.0
O176 O 0.21432 0.38956 -0.00214 0.0
C177 C 0.27658 0.40732 0.00638 0.0
O178 O 0.29562 0.34589 -0.00805 0.0
C179 C 0.21144 0.3907 0.97824 0.0
O180 O 0.26683 0.3495 0.97315 0.0
O181 O 0.22552 0.38314 0.96664 0.0
C182 C 0.69289 0.08659 0.01749 0.0
O183 O 0.70641 0.09284 0.03079 0.0
Cd184 Cd 0.73338 0.11839 0.02443 0.0
O185 O 0.69224 0.09457 -0.00074 0.0
Cd186 Cd 0.71082 0.12272 0.97989 0.0
C187 C 0.75619 0.09658 0.98129 0.0
O188 O 0.71621 0.147 0.00853 0.0
O189 O 0.7339 0.15373 0.98066 0.0
O190 O 0.67862 0.13608 0.96565 0.0
C191 C 0.72869 0.1592 -0.00106 0.0
O192 O 0.75793 0.10191 0.00043 0.0
C193 C 0.68419 0.13488 0.94664 0.0
O194 O 0.74 0.10114 0.97076 0.0
O195 O 0.70192 0.12704 0.94301 0.0
C196 C 0.14303 0.51751 0.22035 0.0
O197 O 0.13819 0.5037 0.20679 0.0
Cd198 Cd 0.11398 0.4751 0.21149 0.0
O199 O 0.13435 0.51753 0.23827 0.0
Cd200 Cd 0.10695 0.49647 0.2562 0.0
C201 C 0.13571 0.45269 0.25466 0.0
O202 O 0.08382 0.49043 0.22651 0.0
O203 O 0.07735 0.47199 0.25401 0.0
O204 O 0.09237 0.52722 0.2728 0.0
C205 C 0.07201 0.47728 0.23572 0.0
O206 O 0.13092 0.45062 0.23541 0.0
C207 C 0.09283 0.51965 0.29117 0.0
O208 O 0.13008 0.46862 0.26498 0.0
O209 O 0.10079 0.50174 0.29326 0.0
C210 C 0.74514 0.83265 0.53818 0.0
O211 O 0.76318 0.83505 0.54624 0.0
Cd212 Cd 0.79023 0.85633 0.53128 0.0
O213 O 0.73983 0.84296 0.52202 0.0
Cd214 Cd 0.7549 0.8712 0.49973 0.0
C215 C 0.79038 0.83808 0.48054 0.0
O216 O 0.77469 0.88961 0.52659 0.0
O217 O 0.782 0.89843 0.49485 0.0
O218 O 0.72287 0.89139 0.50021 0.0
C219 C 0.78456 0.90168 0.51425 0.0
O220 O 0.79949 0.83924 0.49825 0.0
C221 C 0.72063 0.89152 0.48047 0.0
O222 O 0.77348 0.84766 0.47717 0.0
O223 O 0.73398 0.88164 0.46984 0.0
C224 C 0.89048 0.00762 0.19886 0.0
O225 O 0.88724 -0.01062 0.19151 0.0
Cd226 Cd 0.8673 0.96293 0.20909 0.0
O227 O 0.88171 0.01346 0.21573 0.0
Cd228 Cd 0.85551 -0.00066 0.24091 0.0
C229 C 0.89132 0.96507 0.25738 0.0
O230 O 0.8349 0.97948 0.21577 0.0
O231 O 0.82811 0.97272 0.24805 0.0
O232 O 0.83957 0.0339 0.242 0.0
C233 C 0.82354 0.96992 0.22896 0.0
O234 O 0.8878 0.95482 0.24059 0.0
C235 C 0.83758 0.03396 0.26177 0.0
O236 O 0.88222 0.98223 0.26083 0.0
O237 O 0.84452 0.01831 0.27161 0.0
C238 C 0.21921 0.57929 0.50991 0.0
O239 O 0.23561 0.58378 0.52039 0.0
Cd240 Cd 0.25914 0.61296 0.51445 0.0
O241 O 0.21402 0.59031 0.49422 0.0
Cd242 Cd 0.22868 0.62095 0.47572 0.0
C243 C 0.27591 0.59949 0.4662 0.0
O244 O 0.23698 0.64154 0.50672 0.0
O245 O 0.24776 0.65432 0.4774 0.0
O246 O 0.19401 0.63279 0.46583 0.0
C247 C 0.24565 0.65656 0.49696 0.0
O248 O 0.28134 0.60367 0.48492 0.0
C249 C 0.19824 0.63429 0.44647 0.0
O250 O 0.25736 0.6026 0.45989 0.0
O251 O 0.21622 0.62848 0.44077 0.0
C252 C 0.39022 0.48757 0.69621 0.0
O253 O 0.38753 0.46921 0.68899 0.0
Cd254 Cd 0.36676 0.44292 0.70593 0.0
O255 O 0.38062 0.49352 0.71256 0.0
Cd256 Cd 0.35368 0.47975 0.73693 0.0
C257 C 0.38747 0.44444 0.75564 0.0
O258 O 0.33407 0.45949 0.71143 0.0
O259 O 0.32553 0.45391 0.74358 0.0
O260 O 0.33468 0.51253 0.73674 0.0
C261 C 0.32194 0.45052 0.72436 0.0
O262 O 0.38553 0.43464 0.73837 0.0
C263 C 0.33595 0.51532 0.75637 0.0
O264 O 0.37803 0.46147 0.75876 0.0
O265 O 0.34587 0.5018 0.76676 0.0
C266 C 0.65265 0.01582 0.71079 0.0
O267 O 0.64861 0.00095 0.69811 0.0
Cd268 Cd 0.62218 0.97421 0.70252 0.0
O269 O 0.64206 0.01787 0.7275 0.0
Cd270 Cd 0.61216 -0.00054 0.74415 0.0
C271 C 0.63725 0.9533 0.74885 0.0
O272 O 0.59137 -0.00757 0.71271 0.0
O273 O 0.58037 0.97843 0.74144 0.0
O274 O 0.59741 0.03166 0.75768 0.0
C275 C 0.57732 0.98196 0.72222 0.0
O276 O 0.63534 0.95035 0.72924 0.0
C277 C 0.59725 0.02559 0.77661 0.0
O278 O 0.63108 0.97006 0.75734 0.0
O279 O 0.60507 0.00788 0.78038 0.0
C280 C 0.79966 0.58601 -0.00221 0.0
O281 O 0.80678 0.58749 0.97934 0.0
Cd282 Cd 0.78596 0.60153 0.95178 0.0
O283 O 0.78193 0.59341 0.00249 0.0
Cd284 Cd 0.75398 0.61443 0.98706 0.0
C285 C 0.7393 0.57393 0.95667 0.0
O286 O 0.77643 0.63528 0.96442 0.0
O287 O 0.74324 0.6386 0.9596 0.0
O288 O 0.7555 0.63447 0.01934 0.0
C289 C 0.76172 0.64456 0.95522 0.0
O290 O 0.75614 0.57724 0.94647 0.0
C291 C 0.73591 0.63412 0.02243 0.0
O292 O 0.73499 0.58486 0.97264 0.0
O293 O 0.72468 0.62417 0.00922 0.0
C294 C 0.89241 0.45525 0.7139 0.0
O295 O 0.89055 0.44059 0.7272 0.0
Cd296 Cd 0.87119 0.44317 0.75888 0.0
O297 O 0.88337 0.47262 0.71668 0.0
Cd298 Cd 0.85929 0.48766 0.74275 0.0
C299 C 0.89531 0.48567 0.78141 0.0
O300 O 0.83829 0.45589 0.74669 0.0
O301 O 0.83093 0.4809 0.76789 0.0
O302 O 0.84312 0.5049 0.71318 0.0
C303 C 0.82618 0.46306 0.76044 0.0
O304 O 0.89198 0.46599 0.78219 0.0
C305 C 0.8418 0.5226 0.72206 0.0
O306 O 0.88604 0.49677 0.76792 0.0
O307 O 0.84921 0.52419 0.74043 0.0
C308 C 0.77253 0.3265 0.50799 0.0
O309 O 0.78281 0.32933 0.49122 0.0
Cd310 Cd 0.77396 0.35334 0.46421 0.0
O311 O 0.75604 0.33679 0.51158 0.0
Cd312 Cd 0.73575 0.36413 0.49364 0.0
C313 C 0.72577 0.33374 0.45094 0.0
O314 O 0.76631 0.3845 0.48326 0.0
O315 O 0.73686 0.39568 0.47168 0.0
O316 O 0.72868 0.38004 0.52729 0.0
C317 C 0.75639 0.39865 0.47391 0.0
O318 O 0.74473 0.33673 0.44559 0.0
C319 C 0.70898 0.38037 0.52497 0.0
O320 O 0.7189 0.3413 0.46795 0.0
O321 O 0.70156 0.37219 0.50837 0.0
C322 C 0.63444 0.45705 0.23253 0.0
O323 O 0.63034 0.45018 0.25071 0.0
Cd324 Cd 0.61275 0.47072 0.27575 0.0
O325 O 0.62851 0.47511 0.22686 0.0
Cd326 Cd 0.60769 0.50454 0.24019 0.0
C327 C 0.6445 0.51499 0.27614 0.0
O328 O 0.58268 0.48199 0.25682 0.0
O329 O 0.58108 0.51425 0.26651 0.0
O330 O 0.59338 0.50559 0.2051 0.0
C331 C 0.57301 0.496 0.26657 0.0
O332 O 0.63813 0.49843 0.2854 0.0
C333 C 0.59373 0.52538 0.20357 0.0
O334 O 0.63654 0.52052 0.25883 0.0
O335 O 0.60118 0.5356 0.219 0.0
Fe336 Fe 0.12587 0.0898 0.13909 0.0
Fe337 Fe 0.10915 0.12957 0.11852 0.0
O338 O 0.12685 0.10851 0.11861 0.0
Fe339 Fe 0.14551 0.10624 0.09828 0.0
O340 O 0.13542 0.08066 0.0909 0.0
O341 O 0.13358 0.06776 0.12273 0.0
O342 O 0.09909 0.08263 0.13299 0.0
C343 C 0.08423 0.09526 0.13223 0.0
C344 C 0.16815 0.09542 0.13456 0.0
O345 O 0.08764 0.11476 0.13077 0.0
C346 C 0.14699 0.14845 0.10504 0.0
O347 O 0.11785 0.10842 0.15916 0.0
O348 O 0.11895 0.139 0.14352 0.0
O349 O 0.16579 0.09516 0.11492 0.0
O350 O 0.15265 0.09563 0.14669 0.0
C351 C 0.1089 0.11849 0.07719 0.0
O352 O 0.12727 0.14826 0.10627 0.0
O353 O 0.15698 0.13168 0.10414 0.0
C354 C 0.11965 0.12815 0.15995 0.0
O355 O 0.0983 0.12155 0.09348 0.0
O356 O 0.12856 0.11688 0.078 0.0
C357 C 0.13296 0.06537 0.10311 0.0
Fe358 Fe 0.08294 0.84702 0.37335 0.0
Fe359 Fe 0.10438 0.88335 0.35004 0.0
O360 O 0.10494 0.86371 0.36945 0.0
Fe361 Fe 0.12751 0.86058 0.38503 0.0
O362 O 0.13072 0.83414 0.37547 0.0
O363 O 0.09821 0.82434 0.38137 0.0
O364 O 0.08448 0.83716 0.34687 0.0
C365 C 0.08424 0.84847 0.33072 0.0
C366 C 0.09443 0.85459 0.41366 0.0
O367 O 0.08791 0.868 0.33188 0.0
C368 C 0.12532 0.90312 0.38416 0.0
O369 O 0.06363 0.86647 0.36583 0.0
O370 O 0.08197 0.8955 0.36193 0.0
O371 O 0.11316 0.85156 0.40825 0.0
O372 O 0.08019 0.85599 0.40008 0.0
C373 C 0.14431 0.87007 0.34515 0.0
O374 O 0.1208 0.90204 0.36486 0.0
O375 O 0.12564 0.88686 0.39532 0.0
C376 C 0.06468 0.88623 0.36488 0.0
O377 O 0.12675 0.87265 0.3367 0.0
O378 O 0.14601 0.86915 0.36483 0.0
C379 C 0.11694 0.81988 0.37718 0.0
Fe380 Fe 0.34812 0.89051 0.63754 0.0
Fe381 Fe 0.33628 0.88202 0.59196 0.0
O382 O 0.35212 0.87667 0.61397 0.0
Fe383 Fe 0.37181 0.85773 0.61242 0.0
O384 O 0.36062 0.84265 0.63369 0.0
O385 O 0.35616 0.86928 0.65471 0.0
O386 O 0.32171 0.88017 0.63949 0.0
C387 C 0.30795 0.88256 0.62561 0.0
C388 C 0.39073 0.89096 0.63539 0.0
O389 O 0.31306 0.88845 0.60738 0.0
C390 C 0.37605 0.87549 0.57392 0.0
O391 O 0.33956 0.91452 0.62473 0.0
O392 O 0.34552 0.90895 0.59145 0.0
O393 O 0.39002 0.8719 0.62986 0.0
O394 O 0.37431 0.90149 0.63683 0.0
C395 C 0.33751 0.8394 0.59052 0.0
O396 O 0.35636 0.87628 0.57247 0.0
O397 O 0.38461 0.87128 0.59108 0.0
C398 C 0.3439 0.92137 0.60666 0.0
O399 O 0.32635 0.85543 0.59128 0.0
O400 O 0.35689 0.8404 0.59471 0.0
C401 C 0.35741 0.8498 0.65171 0.0
Fe402 Fe 0.39541 0.14059 0.86998 0.0
Fe403 Fe 0.37784 0.09841 0.85445 0.0
O404 O 0.37592 0.12058 0.87091 0.0
Fe405 Fe 0.35463 0.12281 0.88832 0.0
O406 O 0.34657 0.147 0.8763 0.0
O407 O 0.37772 0.16185 0.87652 0.0
O408 O 0.38983 0.14574 0.84279 0.0
C409 C 0.39015 0.13213 0.82852 0.0
C410 C 0.38926 0.13793 0.91201 0.0
O411 O 0.39016 0.11279 0.83278 0.0
C412 C 0.36267 0.08127 0.89256 0.0
O413 O 0.41673 0.12311 0.86327 0.0
O414 O 0.40283 0.0916 0.86576 0.0
O415 O 0.36975 0.13669 0.90862 0.0
O416 O 0.40212 0.1366 0.89717 0.0
C417 C 0.33603 0.10567 0.8517 0.0
O418 O 0.3656 0.08016 0.87302 0.0
O419 O 0.36116 0.09875 0.90152 0.0
C420 C 0.41864 0.10366 0.86607 0.0
O421 O 0.35303 0.10361 0.84208 0.0
O422 O 0.33574 0.10937 0.87115 0.0
C423 C 0.35806 0.16315 0.87499 0.0
Fe424 Fe 0.5821 0.34002 0.86919 0.0
Fe425 Fe 0.60172 0.37954 0.84963 0.0
O426 O 0.6031 0.3584 0.86744 0.0
Fe427 Fe 0.62554 0.3555 0.88347 0.0
O428 O 0.6308 0.33005 0.87238 0.0
O429 O 0.5986 0.31779 0.8753 0.0
O430 O 0.58474 0.3328 0.84198 0.0
C431 C 0.58411 0.34543 0.82689 0.0
C432 C 0.59207 0.34531 0.9104 0.0
O433 O 0.58668 0.36491 0.8298 0.0
C434 C 0.62061 0.39774 0.88569 0.0
O435 O 0.56173 0.35886 0.86323 0.0
O436 O 0.57824 0.38926 0.86168 0.0
O437 O 0.61119 0.34409 0.90559 0.0
O438 O 0.57812 0.3461 0.8965 0.0
C439 C 0.64259 0.36909 0.84483 0.0
O440 O 0.6165 0.39795 0.86631 0.0
O441 O 0.62187 0.38075 0.89556 0.0
C442 C 0.56162 0.37863 0.86398 0.0
O443 O 0.62508 0.37137 0.83617 0.0
O444 O 0.64395 0.36659 0.8644 0.0
C445 C 0.61776 0.31504 0.87162 0.0
Fe446 Fe 0.83632 0.37 0.09904 0.0
Fe447 Fe 0.85265 0.38427 0.14182 0.0
O448 O 0.85367 0.36703 0.1203 0.0
Fe449 Fe 0.87201 0.34679 0.12003 0.0
O450 O 0.88401 0.35714 0.09665 0.0
O451 O 0.85465 0.36036 0.07925 0.0
O452 O 0.84652 0.39591 0.09376 0.0
C453 C 0.84719 0.41056 0.10694 0.0
C454 C 0.83554 0.32773 0.1028 0.0
O455 O 0.84478 0.407 0.12628 0.0
C456 C 0.86012 0.34489 0.16065 0.0
O457 O 0.8149 0.38009 0.11496 0.0
O458 O 0.82595 0.37646 0.14724 0.0
O459 O 0.85523 0.32838 0.10512 0.0
O460 O 0.82515 0.34425 0.10321 0.0
C461 C 0.89468 0.38109 0.13735 0.0
O462 O 0.86067 0.36472 0.1612 0.0
O463 O 0.86102 0.33536 0.14344 0.0
C464 C 0.81119 0.37771 0.13426 0.0
O465 O 0.87924 0.39299 0.13752 0.0
O466 O 0.89215 0.36153 0.13485 0.0
C467 C 0.87442 0.35948 0.07963 0.0
Fe468 Fe 0.85236 0.62419 0.3905 0.0
Fe469 Fe 0.89328 0.64038 0.37084 0.0
O470 O 0.87332 0.62088 0.37283 0.0
Fe471 Fe 0.87451 0.59808 0.35712 0.0
O472 O 0.8497 0.6035 0.34482 0.0
O473 O 0.83289 0.61095 0.37384 0.0
O474 O 0.84478 0.64833 0.37813 0.0
C475 C 0.85667 0.66406 0.37581 0.0
C476 C 0.85909 0.58252 0.39578 0.0
O477 O 0.8763 0.66236 0.37679 0.0
C478 C 0.91546 0.60277 0.36842 0.0
O479 O 0.86823 0.63806 0.41022 0.0
O480 O 0.90036 0.63729 0.39807 0.0
O481 O 0.86199 0.58077 0.37631 0.0
O482 O 0.85821 0.60026 0.40428 0.0
C483 C 0.88735 0.63049 0.3298 0.0
O484 O 0.91403 0.62208 0.36453 0.0
O485 O 0.89938 0.59106 0.36857 0.0
C486 C 0.88783 0.639 0.41315 0.0
O487 O 0.88738 0.64463 0.34356 0.0
O488 O 0.88701 0.61133 0.33483 0.0
C489 C 0.83289 0.60656 0.35453 0.0
Fe490 Fe 0.87103 0.8624 0.87278 0.0
Fe491 Fe 0.83389 0.88299 0.89381 0.0
O492 O 0.85158 0.88154 0.87275 0.0
Fe493 Fe 0.84979 0.89928 0.8517 0.0
O494 O 0.87577 0.90947 0.85682 0.0
O495 O 0.89047 0.87875 0.85887 0.0
O496 O 0.88221 0.87268 0.89668 0.0
C497 C 0.8723 0.87434 0.91355 0.0
C498 C 0.85895 0.86091 0.83203 0.0
O499 O 0.85249 0.87375 0.91363 0.0
C500 C 0.80872 0.88986 0.85837 0.0
O501 O 0.85499 0.84267 0.88667 0.0
O502 O 0.82405 0.85689 0.88862 0.0
O503 O 0.85918 0.88076 0.83183 0.0
O504 O 0.86092 0.85109 0.84892 0.0
C505 C 0.84275 0.92421 0.88725 0.0
O506 O 0.81207 0.89234 0.87778 0.0
O507 O 0.82369 0.88997 0.8456 0.0
C508 C 0.83524 0.84092 0.88786 0.0
O509 O 0.84295 0.90917 0.89996 0.0
O510 O 0.84018 0.92097 0.86784 0.0
C511 C 0.89191 0.89852 0.85762 0.0
Fe512 Fe 0.88569 0.10086 0.64675 0.0
Fe513 Fe 0.86457 0.11862 0.60792 0.0
O514 O 0.88401 0.12048 0.62741 0.0
Fe515 Fe 0.90178 0.14196 0.62751 0.0
O516 O 0.89297 0.14995 0.65305 0.0
O517 O 0.89513 0.11883 0.66739 0.0
O518 O 0.85951 0.10596 0.65587 0.0
C519 C 0.84348 0.10512 0.6444 0.0
C520 C 0.92694 0.10768 0.63808 0.0
O521 O 0.84517 0.10534 0.62466 0.0
C522 C 0.90014 0.13316 0.58589 0.0
O523 O 0.87653 0.07942 0.6295 0.0
O524 O 0.87479 0.09425 0.5986 0.0
O525 O 0.92366 0.12718 0.63844 0.0
O526 O 0.91191 0.09468 0.63873 0.0
C527 C 0.86325 0.16016 0.61666 0.0
O528 O 0.88045 0.1315 0.5876 0.0
O529 O 0.91152 0.13509 0.6019 0.0
C530 C 0.87674 0.07816 0.6097 0.0
O531 O 0.85333 0.14297 0.61618 0.0
O532 O 0.88308 0.16061 0.61657 0.0
C533 C 0.8931 0.13846 0.66904 0.0
Fe534 Fe 0.61803 0.08669 0.34644 0.0
Fe535 Fe 0.63505 0.10898 0.3856 0.0
O536 O 0.61562 0.10603 0.36606 0.0
Fe537 Fe 0.59369 0.12248 0.36613 0.0
O538 O 0.60049 0.13275 0.34065 0.0
O539 O 0.60518 0.10209 0.32599 0.0
O540 O 0.64249 0.09798 0.33744 0.0
C541 C 0.65824 0.10159 0.34883 0.0
C542 C 0.57636 0.08307 0.35452 0.0
O543 O 0.6568 0.10165 0.36858 0.0
C544 C 0.59717 0.11424 0.40773 0.0
O545 O 0.63136 0.06795 0.36332 0.0
O546 O 0.63086 0.08235 0.39452 0.0
O547 O 0.57556 0.10285 0.35483 0.0
O548 O 0.5937 0.07407 0.35422 0.0
C549 C 0.62704 0.14989 0.37752 0.0
O550 O 0.61677 0.11701 0.40611 0.0
O551 O 0.58574 0.11309 0.39166 0.0
C552 C 0.63192 0.06636 0.38304 0.0
O553 O 0.64047 0.13574 0.37789 0.0
O554 O 0.60771 0.14524 0.37739 0.0
C555 C 0.60276 0.12167 0.32452 0.0
Fe556 Fe 0.59909 0.82763 0.10756 0.0
Fe557 Fe 0.63977 0.84905 0.09289 0.0
O558 O 0.61779 0.84827 0.10957 0.0
Fe559 Fe 0.61446 0.86821 0.12832 0.0
O560 O 0.59004 0.87563 0.11652 0.0
O561 O 0.57675 0.84374 0.11521 0.0
O562 O 0.59326 0.8344 0.08084 0.0
C563 C 0.60662 0.83602 0.06645 0.0
C564 C 0.6023 0.83147 0.14985 0.0
O565 O 0.62601 0.83708 0.07049 0.0
C566 C 0.65621 0.86195 0.13213 0.0
O567 O 0.61802 0.80794 0.09951 0.0
O568 O 0.64848 0.82409 0.10255 0.0
O569 O 0.60137 0.85112 0.14753 0.0
O570 O 0.60395 0.81962 0.13422 0.0
C571 C 0.62927 0.89015 0.09297 0.0
O572 O 0.6574 0.86135 0.11233 0.0
O573 O 0.6387 0.86188 0.1411 0.0
C574 C 0.63761 0.80744 0.10227 0.0
O575 O 0.63227 0.87398 0.08223 0.0
O576 O 0.62699 0.88894 0.11259 0.0
C577 C 0.57458 0.86339 0.11408 0.0
Fe578 Fe 0.38754 0.64511 0.12979 0.0
Fe579 Fe 0.34942 0.6236 0.10963 0.0
O580 O 0.37017 0.62337 0.12783 0.0
Fe581 Fe 0.3736 0.60136 0.14408 0.0
O582 O 0.39922 0.59703 0.1332 0.0
O583 O 0.41033 0.62953 0.13706 0.0
O584 O 0.39564 0.64219 0.10291 0.0
C585 C 0.38331 0.6417 0.08752 0.0
C586 C 0.38197 0.63564 0.1709 0.0
O587 O 0.36379 0.63916 0.09009 0.0
C588 C 0.33129 0.60512 0.14553 0.0
O589 O 0.36793 0.66453 0.12276 0.0
O590 O 0.33842 0.64649 0.1217 0.0
O591 O 0.38431 0.61653 0.16627 0.0
O592 O 0.38033 0.64922 0.15675 0.0
C593 C 0.36233 0.58354 0.10513 0.0
O594 O 0.33144 0.60792 0.12592 0.0
O595 O 0.34813 0.60457 0.15576 0.0
C596 C 0.34816 0.66366 0.12388 0.0
O597 O 0.35922 0.60086 0.09647 0.0
O598 O 0.36346 0.5822 0.12487 0.0
C599 C 0.41389 0.61046 0.13326 0.0
Fe600 Fe 0.12054 0.588 0.84727 0.0
Fe601 Fe 0.13769 0.60811 0.88727 0.0
O602 O 0.1194 0.60781 0.86654 0.0
Fe603 Fe 0.10009 0.62723 0.86498 0.0
O604 O 0.1094 0.63568 0.83963 0.0
O605 O 0.11062 0.6043 0.82588 0.0
O606 O 0.14659 0.59636 0.83965 0.0
C607 C 0.16191 0.59744 0.85206 0.0
C608 C 0.07854 0.5897 0.85385 0.0
O609 O 0.15903 0.59726 0.87167 0.0
C610 C 0.1 0.61967 0.90694 0.0
O611 O 0.13054 0.56788 0.86507 0.0
O612 O 0.12885 0.58256 0.89601 0.0
O613 O 0.08001 0.60954 0.85349 0.0
O614 O 0.09465 0.57866 0.85396 0.0
C615 C 0.13649 0.6497 0.87785 0.0
O616 O 0.11976 0.61905 0.90661 0.0
O617 O 0.08952 0.62024 0.89026 0.0
C618 C 0.12884 0.56639 0.88474 0.0
O619 O 0.14749 0.63366 0.87972 0.0
O620 O 0.11676 0.64817 0.87629 0.0
C621 C 0.11058 0.624 0.82383 0.0
Fe622 Fe 0.12162 0.3545 0.59065 0.0
Fe623 Fe 0.07954 0.34017 0.6089 0.0
O624 O 0.10104 0.35793 0.6086 0.0
Fe625 Fe 0.10189 0.37902 0.62637 0.0
O626 O 0.12565 0.36971 0.63797 0.0
O627 O 0.14217 0.36484 0.60832 0.0
O628 O 0.12705 0.32902 0.6013 0.0
C629 C 0.11394 0.31415 0.60241 0.0
C630 C 0.11793 0.39683 0.58908 0.0
O631 O 0.09458 0.31741 0.6004 0.0
C632 C 0.06098 0.3794 0.61509 0.0
O633 O 0.10457 0.34362 0.56985 0.0
O634 O 0.07282 0.34698 0.58244 0.0
O635 O 0.11618 0.39693 0.6088 0.0
O636 O 0.11748 0.37986 0.57905 0.0
C637 C 0.08665 0.3453 0.65054 0.0
O638 O 0.06054 0.35969 0.61736 0.0
O639 O 0.07808 0.38946 0.61568 0.0
C640 C 0.08507 0.34578 0.5671 0.0
O641 O 0.0853 0.33259 0.6355 0.0
O642 O 0.08793 0.36483 0.64721 0.0
C643 C 0.14227 0.36639 0.6281 0.0
Fe644 Fe 0.6389 0.6038 0.59982 0.0
Fe645 Fe 0.62061 0.58908 0.64165 0.0
O646 O 0.62002 0.60628 0.61994 0.0
Fe647 Fe 0.60076 0.62583 0.61846 0.0
O648 O 0.5911 0.61605 0.59363 0.0
O649 O 0.62165 0.61216 0.57867 0.0
O650 O 0.63038 0.57722 0.59425 0.0
C651 C 0.62989 0.56275 0.60759 0.0
C652 C 0.63766 0.64636 0.60382 0.0
O653 O 0.63072 0.56682 0.62694 0.0
C654 C 0.60981 0.62751 0.66023 0.0
O655 O 0.65978 0.59511 0.61735 0.0
O656 O 0.64655 0.59839 0.6488 0.0
O657 O 0.61797 0.64527 0.60581 0.0
O658 O 0.64863 0.63018 0.60394 0.0
C659 C 0.57871 0.59009 0.63374 0.0
O660 O 0.61049 0.6078 0.66048 0.0
O661 O 0.60874 0.63734 0.64322 0.0
C662 C 0.66213 0.59805 0.6368 0.0
O663 O 0.59468 0.57901 0.63586 0.0
O664 O 0.58024 0.60967 0.63079 0.0
C665 C 0.602 0.6135 0.57749 0.0
Fe666 Fe 0.37499 0.3638 0.37012 0.0
Fe667 Fe 0.35218 0.39771 0.3456 0.0
O668 O 0.3549 0.38234 0.36844 0.0
Fe669 Fe 0.33726 0.38563 0.38956 0.0
O670 O 0.32814 0.35893 0.38757 0.0
O671 O 0.35924 0.34476 0.38514 0.0
O672 O 0.36585 0.35008 0.34715 0.0
C673 C 0.3628 0.35817 0.32955 0.0
C674 C 0.37594 0.37878 0.40999 0.0
O675 O 0.36162 0.37777 0.32747 0.0
C676 C 0.34503 0.42605 0.37845 0.0
O677 O 0.3941 0.37972 0.35537 0.0
O678 O 0.37786 0.40914 0.34883 0.0
O679 O 0.35616 0.37905 0.41016 0.0
O680 O 0.38571 0.37602 0.39323 0.0
C681 C 0.31162 0.38745 0.35393 0.0
O682 O 0.34237 0.42071 0.35952 0.0
O683 O 0.34551 0.41254 0.39274 0.0
C684 C 0.39444 0.39911 0.35118 0.0
O685 O 0.32642 0.38688 0.34107 0.0
O686 O 0.31494 0.39257 0.37282 0.0
C687 C 0.33961 0.34314 0.38759 0.0
H688 H 0.07295 0.23047 0.32719 0.0
H689 H 0.09863 0.21967 0.30118 0.0
H690 H 0.06715 0.15971 0.29554 0.0
H691 H 0.04131 0.17035 0.32138 0.0
H692 H 0.11723 0.16352 0.29277 0.0
H693 H 0.06885 0.21286 0.24016 0.0
H694 H 0.0778 0.22318 0.2649 0.0
H695 H 0.05838 0.20261 0.26433 0.0
C696 C 0.07186 0.21474 0.3209 0.0
C697 C 0.05492 0.20135 0.32603 0.0
C698 C 0.08657 0.20862 0.3061 0.0
C699 C 0.08459 0.18901 0.29644 0.0
C700 C 0.06888 0.17491 0.30294 0.0
H701 H 0.11173 0.11038 0.19785 0.0
H702 H 0.10914 0.12776 0.23148 0.0
C703 C 0.05409 0.18104 0.31763 0.0
C704 C 0.09629 0.18441 0.27722 0.0
H705 H 0.09252 0.19043 0.22446 0.0
C706 C 0.11222 0.16968 0.27782 0.0
C707 C 0.08981 0.19274 0.25786 0.0
C708 C 0.07276 0.20871 0.25656 0.0
C709 C 0.12115 0.16223 0.25928 0.0
C710 C 0.11337 0.16921 0.23979 0.0
C711 C 0.09845 0.18502 0.23937 0.0
C712 C 0.11807 0.15846 0.21986 0.0
C713 C 0.13849 0.14663 0.2608 0.0
C714 C 0.12355 0.16997 0.20191 0.0
C715 C 0.12452 0.16011 0.18241 0.0
C716 C 0.12007 0.13856 0.18059 0.0
C717 C 0.11533 0.12698 0.1987 0.0
C718 C 0.11412 0.13687 0.21806 0.0
H719 H 0.14818 0.14957 0.27498 0.0
H720 H 0.13158 0.13064 0.26222 0.0
H721 H 0.14878 0.14718 0.24684 0.0
H722 H 0.12645 0.1867 0.2029 0.0
H723 H 0.12836 0.16941 0.16875 0.0
H724 H -0.00796 0.82825 0.57578 0.0
H725 H 0.01406 0.84172 0.5477 0.0
H726 H 0.06591 0.80643 0.57117 0.0
H727 H 0.04367 0.79215 0.59904 0.0
H728 H 0.05053 0.86358 0.54419 0.0
H729 H 0.05891 0.78279 0.51304 0.0
H730 H 0.04117 0.78876 0.53398 0.0
H731 H 0.06872 0.78675 0.53908 0.0
C732 C 0.0082 0.82351 0.57519 0.0
C733 C 0.016 0.80881 0.58942 0.0
C734 C 0.02079 0.8313 0.55913 0.0
C735 C 0.04146 0.82469 0.55707 0.0
C736 C 0.04981 0.81127 0.57218 0.0
H737 H 0.1194 0.84317 0.44624 0.0
H738 H 0.10933 0.83844 0.4828 0.0
C739 C 0.03712 0.80322 0.58813 0.0
C740 C 0.05339 0.83058 0.53811 0.0
H741 H 0.07397 0.81012 0.49351 0.0
C742 C 0.05588 0.85191 0.53321 0.0
C743 C 0.06022 0.81528 0.52375 0.0
C744 C 0.057 0.79212 0.52756 0.0
C745 C 0.06451 0.85831 0.51406 0.0
C746 C 0.07079 0.843 0.49958 0.0
C747 C 0.06915 0.82176 0.5048 0.0
C748 C 0.07756 0.84844 0.47823 0.0
C749 C 0.06651 0.88134 0.5092 0.0
C750 C 0.06296 0.8557 0.46368 0.0
C751 C 0.06854 0.8582 0.44272 0.0
C752 C 0.08884 0.85349 0.43604 0.0
C753 C 0.10362 0.84691 0.45087 0.0
C754 C 0.09795 0.84424 0.47176 0.0
H755 H 0.06531 0.8911 0.52352 0.0
H756 H 0.08165 0.88493 0.50138 0.0
H757 H 0.05377 0.88575 0.49834 0.0
H758 H 0.04704 0.8587 0.46841 0.0
H759 H 0.05685 0.8634 0.43171 0.0
H760 H 0.47479 0.78107 0.78705 0.0
H761 H 0.45244 0.79339 0.75863 0.0
H762 H 0.39755 0.77519 0.79377 0.0
H763 H 0.41968 0.76257 0.82204 0.0
H764 H 0.39578 0.76297 0.75185 0.0
H765 H 0.41806 0.84687 0.76072 0.0
H766 H 0.43994 0.83 0.7573 0.0
H767 H 0.42397 0.82754 0.78031 0.0
C768 C 0.45797 0.77976 0.78872 0.0
C769 C 0.44897 0.77101 0.80679 0.0
C770 C 0.44524 0.78683 0.77253 0.0
C771 C 0.42339 0.78541 0.7743 0.0
C772 C 0.4144 0.77645 0.79219 0.0
H773 H 0.34566 0.85755 0.69181 0.0
H774 H 0.35731 0.83914 0.72305 0.0
C775 C 0.42707 0.76933 0.80833 0.0
C776 C 0.40986 0.79335 0.75752 0.0
H777 H 0.39857 0.8375 0.73035 0.0
C778 C 0.39622 0.77929 0.7472 0.0
C779 C 0.41024 0.8147 0.75186 0.0
C780 C 0.42368 0.83071 0.76324 0.0
C781 C 0.38338 0.78596 0.73079 0.0
C782 C 0.38453 0.80712 0.72447 0.0
C783 C 0.39773 0.82125 0.73523 0.0
C784 C 0.37328 0.81496 0.70597 0.0
C785 C 0.36873 0.77033 0.72043 0.0
C786 C 0.37763 0.80689 0.68607 0.0
C787 C 0.37083 0.81727 0.66819 0.0
C788 C 0.35994 0.83608 0.67001 0.0
C789 C 0.35422 0.8432 0.68995 0.0
C790 C 0.36084 0.8327 0.7078 0.0
H791 H 0.36476 0.75714 0.73109 0.0
H792 H 0.35404 0.7778 0.71534 0.0
H793 H 0.37647 0.76375 0.70644 0.0
H794 H 0.38753 0.79344 0.68431 0.0
H795 H 0.3755 0.81142 0.65303 0.0
H796 H 0.47094 0.20719 0.08393 0.0
H797 H 0.45891 0.18628 0.05414 0.0
H798 H 0.41314 0.23273 0.03945 0.0
H799 H 0.42515 0.25397 0.06915 0.0
H800 H 0.4182 0.16975 0.04375 0.0
H801 H 0.44887 0.22718 0.98566 0.0
H802 H 0.4565 0.22779 0.01285 0.0
H803 H 0.43163 0.23776 0.00496 0.0
C804 C 0.45824 0.21297 0.07445 0.0
C805 C 0.44914 0.23238 0.07878 0.0
C806 C 0.45137 0.20094 0.05748 0.0
C807 C 0.43538 0.20814 0.04452 0.0
C808 C 0.42574 0.22711 0.04916 0.0
H809 H 0.36587 0.14552 0.94681 0.0
H810 H 0.37792 0.16031 0.97998 0.0
C811 C 0.43258 0.23917 0.06616 0.0
C812 C 0.42933 0.1961 0.0257 0.0
H813 H 0.4289 0.19855 0.97246 0.0
C814 C 0.42055 0.17597 0.02814 0.0
C815 C 0.4328 0.2042 0.00543 0.0
C816 C 0.44314 0.22534 0.00195 0.0
C817 C 0.41469 0.16385 0.01071 0.0
C818 C 0.41755 0.17225 -0.00955 0.0
C819 C 0.4267 0.19221 -0.01195 0.0
C820 C 0.41063 0.16097 0.97143 0.0
C821 C 0.40569 0.14213 0.01408 0.0
C822 C 0.42508 0.15643 0.95567 0.0
C823 C 0.41825 0.14812 0.9366 0.0
C824 C 0.39682 0.14438 0.93294 0.0
C825 C 0.38249 0.14823 0.9491 0.0
C826 C 0.38934 0.15655 0.96814 0.0
H827 H 0.40978 0.13597 0.02977 0.0
H828 H 0.3884 0.14262 0.01294 0.0
H829 H 0.41136 0.13113 0.00199 0.0
H830 H 0.44159 0.15983 0.95795 0.0
H831 H 0.42971 0.14525 0.92453 0.0
H832 H 0.02407 0.75559 0.15983 0.0
H833 H 0.04294 0.7683 0.19076 0.0
H834 H -0.00446 0.81422 0.20119 0.0
H835 H 0.97638 0.80153 0.17047 0.0
H836 H 0.05889 0.80865 0.20093 0.0
H837 H -0.00227 0.78133 0.25655 0.0
H838 H -0.00148 0.77271 0.22968 0.0
H839 H -0.01179 0.79788 0.23609 0.0
C840 C 0.01767 0.76845 0.16864 0.0
C841 C -0.0014 0.77742 0.16279 0.0
C842 C 0.0285 0.77569 0.18628 0.0
C843 C 0.02042 0.79192 0.19838 0.0
C844 C 0.00179 0.80138 0.19223 0.0
H845 H 0.07761 0.86876 0.29376 0.0
H846 H 0.06396 0.85389 0.26122 0.0
C847 C -0.00907 0.79416 0.17462 0.0
C848 C 0.03127 0.79876 0.21768 0.0
H849 H 0.02479 0.80325 0.2704 0.0
C850 C 0.05153 0.80739 0.21615 0.0
C851 C 0.02171 0.79671 0.2375 0.0
C852 C 0.00042 0.78647 0.24017 0.0
C853 C 0.06229 0.81465 0.23396 0.0
C854 C 0.05233 0.81345 0.25366 0.0
C855 C 0.03231 0.80427 0.25523 0.0
C856 C 0.06208 0.82212 0.27284 0.0
C857 C 0.08422 0.82339 0.23155 0.0
C858 C 0.0653 0.8092 0.29022 0.0
C859 C 0.07291 0.81767 0.30894 0.0
C860 C 0.07731 0.83925 0.31061 0.0
C861 C 0.07442 0.85207 0.29301 0.0
C862 C 0.06676 0.84359 0.27433 0.0
H863 H 0.09165 0.81773 0.21696 0.0
H864 H 0.08369 0.84071 0.23076 0.0
H865 H 0.09418 0.81908 0.24507 0.0
H866 H 0.06166 0.7926 0.28937 0.0
H867 H 0.07504 0.80735 0.32217 0.0
H868 H 0.45299 0.76258 0.44698 0.0
H869 H 0.43608 0.78731 0.47042 0.0
H870 H 0.45857 0.83882 0.43255 0.0
H871 H 0.47605 0.81424 0.40943 0.0
H872 H 0.4643 0.84683 0.47307 0.0
H873 H 0.38307 0.81873 0.46039 0.0
H874 H 0.39946 0.79775 0.46843 0.0
H875 H 0.40437 0.81078 0.4439 0.0
C876 C 0.45425 0.77916 0.44363 0.0
C877 C 0.46574 0.78649 0.42637 0.0
C878 C 0.44447 0.79326 0.45691 0.0
C879 C 0.4457 0.81486 0.45292 0.0
C880 C 0.45732 0.82221 0.4358 0.0
H881 H 0.36401 0.88564 0.5342 0.0
H882 H 0.38228 0.87719 0.50182 0.0
C883 C 0.46729 0.80814 0.42263 0.0
C884 C 0.43549 0.82976 0.46714 0.0
H885 H 0.38945 0.83858 0.49194 0.0
C886 C 0.44784 0.84529 0.47696 0.0
C887 C 0.41391 0.82818 0.47172 0.0
C888 C 0.39941 0.81311 0.46036 0.0
C889 C 0.43946 0.85834 0.49233 0.0
C890 C 0.41837 0.85534 0.49836 0.0
C891 C 0.4057 0.84077 0.4875 0.0
C892 C 0.40963 0.86511 0.51733 0.0
C893 C 0.4534 0.87494 0.50214 0.0
C894 C 0.4193 0.86189 0.53675 0.0
C895 C 0.40903 0.86692 0.55523 0.0
C896 C 0.38867 0.87481 0.55464 0.0
C897 C 0.3796 0.87939 0.53516 0.0
C898 C 0.39002 0.87459 0.51665 0.0
H899 H 0.46522 0.88084 0.49076 0.0
H900 H 0.44429 0.88836 0.50795 0.0
H901 H 0.462 0.86804 0.51547 0.0
H902 H 0.43417 0.85414 0.53774 0.0
H903 H 0.41648 0.86321 0.56996 0.0
H904 H 0.39432 0.21521 0.6429 0.0
H905 H 0.38151 0.1944 0.67254 0.0
H906 H 0.44481 0.17716 0.68713 0.0
H907 H 0.45748 0.1968 0.65696 0.0
H908 H 0.4192 0.14593 0.6955 0.0
H909 H 0.38726 0.21866 0.72965 0.0
H910 H 0.37546 0.2111 0.70527 0.0
H911 H 0.40267 0.21883 0.70612 0.0
C912 C 0.4054 0.20661 0.65223 0.0
C913 C 0.42691 0.20783 0.64784 0.0
C914 C 0.3981 0.19488 0.66923 0.0
C915 C 0.41228 0.18481 0.68245 0.0
C916 C 0.43358 0.18491 0.67723 0.0
H917 H 0.40822 0.16811 0.81397 0.0
H918 H 0.41194 0.17903 0.77757 0.0
C919 C 0.44082 0.19618 0.65998 0.0
C920 C 0.4055 0.1756 0.70262 0.0
H921 H 0.38396 0.18812 0.74966 0.0
C922 C 0.41138 0.15508 0.70733 0.0
C923 C 0.39551 0.18771 0.71811 0.0
C924 C 0.39002 0.21034 0.71466 0.0
C925 C 0.40834 0.14661 0.72735 0.0
C926 C 0.39833 0.15872 0.74279 0.0
C927 C 0.39162 0.17888 0.73778 0.0
C928 C 0.3961 0.15162 0.76472 0.0
C929 C 0.41694 0.12526 0.732 0.0
C930 C 0.38589 0.13263 0.76961 0.0
C931 C 0.38422 0.12613 0.7904 0.0
C932 C 0.39219 0.13883 0.80661 0.0
C933 C 0.40193 0.15805 0.80174 0.0
C934 C 0.40402 0.1643 0.78097 0.0
H935 H 0.42893 0.12068 0.7204 0.0
H936 H 0.42407 0.12479 0.74783 0.0
H937 H 0.40404 0.11344 0.73133 0.0
H938 H 0.3791 0.1229 0.75741 0.0
H939 H 0.37635 0.11138 0.79382 0.0
H940 H 0.06367 0.2107 0.92368 0.0
H941 H 0.07828 0.18575 0.948 0.0
H942 H 0.03625 0.13756 0.92449 0.0
H943 H 0.02087 0.1629 0.90053 0.0
H944 H 0.03327 0.13936 0.96464 0.0
H945 H 0.11717 0.13847 0.9471 0.0
H946 H 0.10974 0.16518 0.94975 0.0
H947 H 0.09855 0.1493 0.92904 0.0
C948 C 0.05788 0.19467 0.92325 0.0
C949 C 0.04102 0.1888 0.9103 0.0
C950 C 0.06641 0.18031 0.93708 0.0
C951 C 0.0586 0.15964 0.93791 0.0
C952 C 0.04259 0.15339 0.92406 0.0
H953 H 0.12077 0.09805 0.04209 0.0
H954 H 0.10646 0.10165 0.00682 0.0
C955 C 0.03385 0.16787 0.91036 0.0
C956 C 0.06513 0.14584 0.95526 0.0
H957 H 0.10797 0.13399 0.98428 0.0
C958 C 0.04964 0.13766 0.96865 0.0
C959 C 0.08642 0.14302 0.9603 0.0
C960 C 0.10385 0.14927 0.94559 0.0
C961 C 0.05486 0.1285 0.98783 0.0
C962 C 0.07608 0.12824 -0.00592 0.0
C963 C 0.09163 0.13463 0.97982 0.0
C964 C 0.0825 0.12337 0.01583 0.0
C965 C 0.03751 0.11963 0.0013 0.0
C966 C 0.07355 0.13404 0.03275 0.0
C967 C 0.08142 0.13164 0.05298 0.0
C968 C 0.0988 0.11906 0.0565 0.0
C969 C 0.10744 0.108 0.03971 0.0
C970 C 0.09926 0.11001 0.01958 0.0
H971 H 0.02461 0.11309 -0.00853 0.0
H972 H 0.04315 0.10713 0.01183 0.0
H973 H 0.03091 0.13235 0.01093 0.0
H974 H 0.06109 0.14499 0.03023 0.0
H975 H 0.07462 0.14049 0.06564 0.0
H976 H 0.31821 -0.00522 0.17849 0.0
H977 H 0.29369 0.01949 0.1641 0.0
H978 H 0.32223 0.06917 0.20067 0.0
H979 H 0.34638 0.04408 0.21599 0.0
H980 H 0.28248 0.06989 0.20564 0.0
H981 H 0.29531 0.06361 0.12107 0.0
H982 H 0.29117 0.03775 0.13109 0.0
H983 H 0.31356 0.05314 0.13971 0.0
C984 C 0.31961 0.01105 0.18316 0.0
C985 C 0.3342 0.01748 0.19841 0.0
C986 C 0.30567 0.02526 0.17474 0.0
C987 C 0.30633 0.04634 0.18095 0.0
C988 C 0.3215 0.05302 0.19554 0.0
H989 H 0.20444 0.11081 0.11828 0.0
H990 H 0.23998 0.1049 0.13086 0.0
C991 C 0.33531 0.03869 0.20425 0.0
C992 C 0.28954 0.06048 0.17405 0.0
H993 H 0.25929 0.0712 0.13165 0.0
C994 C 0.27771 0.07064 0.18938 0.0
C995 C 0.28357 0.06211 0.15281 0.0
C996 C 0.29679 0.05375 0.13528 0.0
C997 C 0.25914 0.08078 0.18422 0.0
C998 C 0.25178 0.07998 0.16334 0.0
C999 C 0.26455 0.07142 0.14779 0.0
C1000 C 0.23029 0.08618 0.15749 0.0
C1001 C 0.24755 0.09195 0.20133 0.0
C1002 C 0.21293 0.07794 0.1684 0.0
C1003 C 0.19263 0.08175 0.16152 0.0
C1004 C 0.18934 0.09326 0.14318 0.0
C1005 C 0.20662 0.10176 0.13241 0.0
C1006 C 0.2269 0.09841 0.1396 0.0
H1007 H 0.25864 0.09865 0.21305 0.0
H1008 H 0.2379 0.10477 0.19504 0.0
H1009 H 0.23722 0.08057 0.20962 0.0
H1010 H 0.21504 0.06782 0.18177 0.0
H1011 H 0.17956 0.07484 0.16995 0.0
H1012 H 0.23895 0.06444 0.42652 0.0
H1013 H 0.21867 0.03485 0.41233 0.0
H1014 H 0.17645 0.0378 0.46471 0.0
H1015 H 0.19638 0.0675 0.4789 0.0
H1016 H 0.2116 -0.00345 0.43192 0.0
H1017 H 0.13684 0.03562 0.41425 0.0
H1018 H 0.16095 0.05001 0.41902 0.0
H1019 H 0.14604 0.03957 0.44054 0.0
C1020 C 0.22525 0.05892 0.43494 0.0
C1021 C 0.21928 0.06835 0.45383 0.0
C1022 C 0.2137 0.04203 0.42681 0.0
C1023 C 0.19594 0.03437 0.43735 0.0
C1024 C 0.18987 0.04378 0.45613 0.0
H1025 H 0.13924 0.91094 0.42399 0.0
H1026 H 0.15544 0.94329 0.43724 0.0
C1027 C 0.20138 0.06067 0.46427 0.0
C1028 C 0.18444 0.01579 0.42932 0.0
H1029 H 0.13645 -0.00163 0.41268 0.0
C1030 C 0.19519 -0.00305 0.42762 0.0
C1031 C 0.16309 0.01647 0.42359 0.0
C1032 C 0.15106 0.03654 0.42424 0.0
C1033 C 0.18507 0.97861 0.42062 0.0
C1034 C 0.16357 0.97913 0.41554 0.0
C1035 C 0.15288 -0.00196 0.41688 0.0
C1036 C 0.15213 0.96024 0.40819 0.0
C1037 C 0.19755 0.95891 0.41842 0.0
C1038 C 0.14421 0.95944 0.38776 0.0
C1039 C 0.13488 0.94104 0.38015 0.0
C1040 C 0.13328 0.92315 0.3929 0.0
C1041 C 0.14041 0.92436 0.4137 0.0
C1042 C 0.14974 0.94278 0.42128 0.0
H1043 H 0.21465 0.9623 0.41827 0.0
H1044 H 0.1941 0.94843 0.43185 0.0
H1045 H 0.19324 0.95041 0.40384 0.0
H1046 H 0.14583 0.97285 0.3775 0.0
H1047 H 0.12941 0.94071 0.36411 0.0
H1048 H 0.13304 0.93779 0.69787 0.0
H1049 H 0.15273 0.92121 0.66987 0.0
H1050 H 0.18627 0.88525 0.71564 0.0
H1051 H 0.16627 0.90119 0.74355 0.0
H1052 H 0.19286 0.92811 0.66694 0.0
H1053 H 0.18076 0.84272 0.67014 0.0
H1054 H 0.16312 0.86056 0.68268 0.0
H1055 H 0.18658 0.85241 0.69583 0.0
C1056 C 0.14423 0.92593 0.70191 0.0
C1057 C 0.14832 0.92098 0.72293 0.0
C1058 C 0.15537 0.91639 0.68588 0.0
C1059 C 0.17082 0.90183 0.69061 0.0
C1060 C 0.17404 0.89599 0.71152 0.0
H1061 H 0.29149 0.87233 0.66368 0.0
H1062 H 0.25497 0.87398 0.67433 0.0
C1063 C 0.16275 0.90533 0.72753 0.0
C1064 C 0.18623 0.89583 0.67457 0.0
H1065 H 0.21571 0.85486 0.65867 0.0
C1066 C 0.19742 0.91203 0.66455 0.0
C1067 C 0.19215 0.87485 0.67143 0.0
C1068 C 0.17981 0.85668 0.68045 0.0
C1069 C 0.21554 0.90801 0.65312 0.0
C1070 C 0.22244 0.8872 0.6515 0.0
C1071 C 0.21039 0.87081 0.6601 0.0
C1072 C 0.24358 0.88278 0.64376 0.0
C1073 C 0.22807 0.92623 0.64433 0.0
C1074 C 0.24907 0.88663 0.6229 0.0
C1075 C 0.26999 0.8859 0.61677 0.0
C1076 C 0.28566 0.88128 0.63146 0.0
C1077 C 0.27985 0.87621 0.65205 0.0
C1078 C 0.25898 0.87697 0.65814 0.0
H1079 H 0.22176 0.94158 0.64914 0.0
H1080 H 0.24462 0.92549 0.64953 0.0
H1081 H 0.22786 0.92544 0.627 0.0
H1082 H 0.2373 0.89096 0.61158 0.0
H1083 H 0.27393 0.8896 0.60071 0.0
H1084 H 0.30048 0.91396 -0.00832 0.0
H1085 H 0.3199 0.94525 0.98055 0.0
H1086 H 0.27204 0.95806 0.93493 0.0
H1087 H 0.25222 0.927 0.94633 0.0
H1088 H 0.33633 0.95512 0.94281 0.0
H1089 H 0.27758 0.01346 0.96561 0.0
H1090 H 0.27606 0.98654 0.97406 0.0
H1091 H 0.26707 -0.00629 0.9484 0.0
C1092 C 0.29405 0.92346 0.9793 0.0
C1093 C 0.27478 0.91811 0.96993 0.0
C1094 C 0.30517 0.94133 0.97299 0.0
C1095 C 0.29722 0.95414 0.9572 0.0
C1096 C 0.27818 0.94864 0.94751 0.0
H1097 H 0.35869 0.04165 0.87699 0.0
H1098 H 0.3453 0.01069 0.89498 0.0
C1099 C 0.26696 0.93083 0.95393 0.0
C1100 C 0.30915 0.97299 0.9505 0.0
H1101 H 0.30512 0.02558 0.94321 0.0
C1102 C 0.3296 0.97057 0.94308 0.0
C1103 C 0.3005 -0.00684 0.95131 0.0
C1104 C 0.27918 -0.00305 0.96049 0.0
C1105 C 0.34135 0.98772 0.93564 0.0
C1106 C 0.33219 0.00768 0.93521 0.0
C1107 C 0.31206 0.01022 0.94341 0.0
C1108 C 0.34255 0.02588 0.9251 0.0
C1109 C 0.36343 0.98428 0.9283 0.0
C1110 C 0.34535 0.04478 0.93604 0.0
C1111 C 0.35277 0.06267 0.92571 0.0
C1112 C 0.35741 0.06194 0.90423 0.0
C1113 C 0.35533 0.04277 0.89355 0.0
C1114 C 0.34781 0.02497 0.90385 0.0
H1115 H 0.37034 0.97048 0.93608 0.0
H1116 H 0.36328 0.98123 0.91121 0.0
H1117 H 0.37362 -0.0018 0.93138 0.0
H1118 H 0.34128 0.0458 0.95245 0.0
H1119 H 0.35425 0.07718 0.93441 0.0
H1120 H 0.31494 0.91031 0.2408 0.0
H1121 H 0.28221 0.89364 0.25218 0.0
H1122 H 0.27279 0.94388 0.29608 0.0
H1123 H 0.30528 0.96093 0.28444 0.0
H1124 H 0.27041 0.87922 0.29027 0.0
H1125 H 0.2177 0.94194 0.26456 0.0
H1126 H 0.24468 0.94089 0.25647 0.0
H1127 H 0.23801 0.95157 0.28161 0.0
C1128 C 0.30589 0.91783 0.25287 0.0
C1129 C 0.31259 0.93699 0.26166 0.0
C1130 C 0.2872 0.90829 0.25932 0.0
C1131 C 0.27491 0.91774 0.27465 0.0
C1132 C 0.2818 0.93661 0.28383 0.0
H1133 H 0.18467 0.86981 0.35888 0.0
H1134 H 0.21603 0.87811 0.33891 0.0
C1135 C 0.30043 0.94625 0.27729 0.0
C1136 C 0.2551 0.90763 0.28143 0.0
H1137 H 0.20331 0.91686 0.28867 0.0
C1138 C 0.25567 0.88732 0.28969 0.0
C1139 C 0.23582 0.91803 0.28016 0.0
C1140 C 0.23393 0.93922 0.27001 0.0
C1141 C 0.23762 0.87754 0.29776 0.0
C1142 C 0.21868 0.8886 0.29794 0.0
C1143 C 0.2179 0.90847 0.28868 0.0
C1144 C 0.19997 0.88078 0.30923 0.0
C1145 C 0.23909 0.85556 0.30614 0.0
C1146 C 0.18045 0.87958 0.29918 0.0
C1147 C 0.16234 0.87511 0.31065 0.0
C1148 C 0.16349 0.87189 0.33238 0.0
C1149 C 0.18319 0.8722 0.34217 0.0
C1150 C 0.20122 0.87676 0.33074 0.0
H1151 H 0.25175 0.84689 0.29826 0.0
H1152 H 0.24287 0.85624 0.32308 0.0
H1153 H 0.22414 0.84669 0.30409 0.0
H1154 H 0.17917 0.88273 0.28259 0.0
H1155 H 0.14741 0.87492 0.30262 0.0
H1156 H 0.28145 0.09994 0.55296 0.0
H1157 H 0.29882 0.07838 0.57907 0.0
H1158 H 0.33692 0.05165 0.5306 0.0
H1159 H 0.32028 0.07364 0.5047 0.0
H1160 H 0.29428 0.03829 0.57854 0.0
H1161 H 0.37892 0.05451 0.57636 0.0
H1162 H 0.36031 0.07238 0.56537 0.0
H1163 H 0.36973 0.0507 0.55015 0.0
C1164 C 0.2939 0.08982 0.54799 0.0
C1165 C 0.29935 0.08825 0.52677 0.0
C1166 C 0.3039 0.07764 0.56293 0.0
C1167 C 0.31938 0.0636 0.55687 0.0
C1168 C 0.32552 0.06281 0.53582 0.0
H1169 H 0.35118 0.94173 0.56978 0.0
H1170 H 0.34851 0.9792 0.56313 0.0
C1171 C 0.31576 0.0752 0.52094 0.0
C1172 C 0.32618 0.04703 0.57135 0.0
H1173 H 0.36849 0.01766 0.58347 0.0
C1174 C 0.31057 0.03419 0.58028 0.0
C1175 C 0.34743 0.04171 0.57369 0.0
C1176 C 0.365 0.05576 0.56604 0.0
C1177 C 0.31546 0.01513 0.58963 0.0
C1178 C 0.33652 0.00891 0.59013 0.0
C1179 C 0.35233 0.02248 0.58281 0.0
C1180 C 0.34176 0.98721 0.59526 0.0
C1181 C 0.29792 0.00099 0.59732 0.0
C1182 C 0.33934 0.97956 0.61564 0.0
C1183 C 0.34068 0.95815 0.61948 0.0
C1184 C 0.34441 0.94413 0.60296 0.0
C1185 C 0.34801 0.95208 0.58278 0.0
C1186 C 0.34668 0.97347 0.57898 0.0
H1187 H 0.28225 0.00747 0.59407 0.0
H1188 H 0.29884 0.98536 0.58981 0.0
H1189 H 0.29946 -0.00123 0.61446 0.0
H1190 H 0.3356 -0.00996 0.62836 0.0
H1191 H 0.33813 0.95254 0.63526 0.0
H1192 H 0.19023 0.98465 0.80826 0.0
H1193 H 0.21843 0.009 0.81816 0.0
H1194 H 0.18971 0.05775 0.78207 0.0
H1195 H 0.16185 0.03326 0.77145 0.0
H1196 H 0.23042 0.05774 0.77555 0.0
H1197 H 0.21626 0.05489 0.86067 0.0
H1198 H 0.22028 0.02916 0.85045 0.0
H1199 H 0.19799 0.04382 0.84199 0.0
C1200 C 0.18988 0.00057 0.80249 0.0
C1201 C 0.17379 0.00708 0.78917 0.0
C1202 C 0.20591 0.01451 0.80828 0.0
C1203 C 0.20588 0.03532 0.80126 0.0
C1204 C 0.18994 0.0418 0.78778 0.0
H1205 H 0.29701 0.11833 0.86206 0.0
H1206 H 0.26378 0.10564 0.84739 0.0
C1207 C 0.17406 0.02778 0.78173 0.0
C1208 C 0.22285 0.05009 0.80752 0.0
H1209 H 0.25017 0.06775 0.84997 0.0
C1210 C 0.23458 0.0602 0.79183 0.0
C1211 C 0.22789 0.05377 0.82876 0.0
C1212 C 0.21477 0.04501 0.84641 0.0
C1213 C 0.25193 0.073 0.79682 0.0
C1214 C 0.25807 0.07515 0.81799 0.0
C1215 C 0.24567 0.06592 0.83369 0.0
C1216 C 0.27797 0.08557 0.82431 0.0
C1217 C 0.26345 0.08402 0.77932 0.0
C1218 C 0.29699 0.07892 0.81588 0.0
C1219 C 0.31596 0.08646 0.82397 0.0
C1220 C 0.31622 0.10032 0.84102 0.0
C1221 C 0.29722 0.10753 0.84899 0.0
C1222 C 0.27825 0.10031 0.84062 0.0
H1223 H 0.25274 0.08745 0.76611 0.0
H1224 H 0.27088 0.09892 0.7847 0.0
H1225 H 0.2758 0.07368 0.77326 0.0
H1226 H 0.29723 0.06711 0.80375 0.0
H1227 H 0.33038 0.08049 0.81765 0.0
H1228 H 0.16427 0.88505 0.01534 0.0
H1229 H 0.13979 0.9089 0.03218 0.0
H1230 H 0.19082 0.93644 0.06765 0.0
H1231 H 0.21484 0.9121 0.05196 0.0
H1232 H 0.15713 0.93484 0.09056 0.0
H1233 H 0.13664 0.96779 0.01264 0.0
H1234 H 0.1296 0.94085 0.01701 0.0
H1235 H 0.15673 0.94867 0.01562 0.0
C1236 C 0.1701 0.89597 0.02703 0.0
C1237 C 0.19149 0.89694 0.03215 0.0
C1238 C 0.15615 0.90968 0.03651 0.0
C1239 C 0.16355 0.92486 0.05075 0.0
C1240 C 0.18469 0.92492 0.05668 0.0
H1241 H 0.15238 0.05087 0.06843 0.0
H1242 H 0.15363 0.0147 0.05637 0.0
C1243 C 0.19847 0.91101 0.04762 0.0
C1244 C 0.15025 0.94197 0.05844 0.0
H1245 H 0.12722 0.98681 0.04203 0.0
C1246 C 0.15026 0.94609 0.08001 0.0
C1247 C 0.14116 0.95652 0.04459 0.0
C1248 C 0.14108 0.9534 0.02118 0.0
C1249 C 0.14363 0.96531 0.08794 0.0
C1250 C 0.13566 0.98038 0.07393 0.0
C1251 C 0.13353 0.9753 0.05266 0.0
C1252 C 0.13273 0.00246 0.08026 0.0
C1253 C 0.14706 0.96987 0.11089 0.0
C1254 C 0.12015 0.00776 0.09737 0.0
C1255 C 0.12002 0.02837 0.10469 0.0
C1256 C 0.13181 0.04406 0.09451 0.0
C1257 C 0.1432 0.03902 0.07656 0.0
C1258 C 0.14383 0.01837 0.06963 0.0
H1259 H 0.15735 0.95825 0.11842 0.0
H1260 H 0.15424 0.98566 0.11317 0.0
H1261 H 0.13182 0.96932 0.11912 0.0
H1262 H 0.11088 -0.00407 0.10537 0.0
H1263 H 0.1108 0.03203 0.11837 0.0
H1264 H 0.21455 0.31205 0.01957 0.0
H1265 H 0.19686 0.28225 0.03608 0.0
H1266 H 0.23004 0.29514 0.09368 0.0
H1267 H 0.24863 0.32432 0.07682 0.0
H1268 H 0.23229 0.25607 0.08535 0.0
H1269 H 0.14969 0.27727 0.0757 0.0
H1270 H 0.16244 0.27743 0.0508 0.0
H1271 H 0.1708 0.2957 0.0708 0.0
C1272 C 0.21781 0.30872 0.03585 0.0
C1273 C 0.23294 0.32045 0.04694 0.0
C1274 C 0.20757 0.29178 0.04534 0.0
C1275 C 0.2118 0.28667 0.06627 0.0
C1276 C 0.22647 0.29881 0.07754 0.0
H1277 H 0.13579 0.18596 0.1209 0.0
H1278 H 0.1527 0.22005 0.11494 0.0
C1279 C 0.23706 0.31547 0.06791 0.0
C1280 C 0.20229 0.26762 0.07575 0.0
H1281 H 0.15622 0.24046 0.08074 0.0
C1282 C 0.2156 0.25283 0.08467 0.0
C1283 C 0.18048 0.2635 0.0753 0.0
C1284 C 0.16506 0.27946 0.06784 0.0
C1285 C 0.20782 0.23367 0.09229 0.0
C1286 C 0.18626 0.22882 0.09013 0.0
C1287 C 0.17282 0.24399 0.08208 0.0
C1288 C 0.17732 0.20793 0.0954 0.0
C1289 C 0.22284 0.21896 0.10265 0.0
C1290 C 0.18564 0.18974 0.08658 0.0
C1291 C 0.17628 0.17021 0.09037 0.0
C1292 C 0.15805 0.16866 0.10248 0.0
C1293 C 0.14978 0.1868 0.11139 0.0
C1294 C 0.15942 0.20625 0.108 0.0
H1295 H 0.23616 0.2277 0.10992 0.0
H1296 H 0.21501 0.20935 0.1149 0.0
H1297 H 0.22937 0.20835 0.09068 0.0
H1298 H 0.19901 0.19068 0.07625 0.0
H1299 H 0.18279 0.15646 0.08314 0.0
H1300 H 0.65051 0.15961 0.95137 0.0
H1301 H 0.63589 0.18278 0.92551 0.0
H1302 H 0.67518 0.15611 0.87795 0.0
H1303 H 0.69082 0.13343 0.90432 0.0
H1304 H 0.68047 0.19513 0.87696 0.0
H1305 H 0.59571 0.18384 0.8794 0.0
H1306 H 0.60387 0.18661 0.90602 0.0
H1307 H 0.61295 0.16482 0.89064 0.0
C1308 C 0.65564 0.15819 0.9353 0.0
C1309 C 0.67198 0.14487 0.92993 0.0
C1310 C 0.64705 0.17135 0.92037 0.0
C1311 C 0.65417 0.17108 0.8996 0.0
C1312 C 0.66938 0.15659 0.89385 0.0
H1313 H 0.59844 0.28376 0.84995 0.0
H1314 H 0.60845 0.24702 0.8482 0.0
C1315 C 0.67828 0.14362 0.90892 0.0
C1316 C 0.64835 0.18836 0.88537 0.0
H1317 H 0.60802 0.22122 0.87682 0.0
C1318 C 0.6645 0.20048 0.87631 0.0
C1319 C 0.62751 0.19515 0.8836 0.0
C1320 C 0.60908 0.18168 0.89025 0.0
C1321 C 0.66064 0.2203 0.86794 0.0
C1322 C 0.64033 0.22854 0.86955 0.0
C1323 C 0.6238 0.21536 0.87619 0.0
C1324 C 0.63632 0.25123 0.86719 0.0
C1325 C 0.67857 0.23237 0.85811 0.0
C1326 C 0.64885 0.26601 0.87802 0.0
C1327 C 0.64347 0.28706 0.87851 0.0
C1328 C 0.62502 0.29356 0.86884 0.0
C1329 C 0.6127 0.27899 0.85764 0.0
C1330 C 0.61842 0.25804 0.85662 0.0
H1331 H 0.68897 0.22161 0.84951 0.0
H1332 H 0.67305 0.2445 0.8471 0.0
H1333 H 0.68812 0.23999 0.87057 0.0
H1334 H 0.66226 0.26117 0.88703 0.0
H1335 H 0.65306 0.29801 0.88744 0.0
H1336 H 0.04696 0.44563 0.25037 0.0
H1337 H 0.0189 0.42707 0.23161 0.0
H1338 H 0.02983 0.46603 0.17753 0.0
H1339 H 0.05817 0.48447 0.19604 0.0
H1340 H 0.98311 0.44401 0.21562 0.0
H1341 H 0.02938 0.40688 0.15283 0.0
H1342 H 0.04123 0.41795 0.1761 0.0
H1343 H 0.03356 0.43466 0.15494 0.0
C1344 C 0.04344 0.45019 0.23445 0.0
C1345 C 0.05476 0.46645 0.22463 0.0
C1346 C 0.02747 0.43955 0.22377 0.0
C1347 C 0.02261 0.44496 0.2031 0.0
C1348 C 0.03373 0.46131 0.19331 0.0
H1349 H 0.90641 0.42219 0.13938 0.0
H1350 H 0.93869 0.43691 0.15411 0.0
C1351 C 0.04975 0.47194 0.20396 0.0
C1352 C 0.00509 0.43427 0.19224 0.0
H1353 H -0.00775 0.40578 0.14873 0.0
C1354 C 0.98512 0.43554 0.20107 0.0
C1355 C 0.00788 0.42306 0.1734 0.0
C1356 C 0.0292 0.42034 0.16383 0.0
C1357 C 0.96769 0.42629 0.19128 0.0
C1358 C 0.97033 0.41585 0.17201 0.0
C1359 C -0.00965 0.41406 0.16341 0.0
C1360 C 0.95227 0.40687 0.16062 0.0
C1361 C 0.94659 0.4277 0.20169 0.0
C1362 C 0.94979 0.38512 0.15858 0.0
C1363 C 0.93137 0.37661 0.15009 0.0
C1364 C 0.91525 0.3898 0.1436 0.0
C1365 C 0.91841 0.41161 0.14456 0.0
C1366 C 0.9368 0.42006 0.15295 0.0
H1367 H 0.94804 0.43173 0.21854 0.0
H1368 H 0.93745 0.44009 0.19395 0.0
H1369 H 0.93768 0.41269 0.2002 0.0
H1370 H 0.9617 0.37476 0.16435 0.0
H1371 H 0.92942 0.35975 0.14945 0.0
H1372 H 0.81728 0.80587 0.485 0.0
H1373 H 0.8294 0.7822 0.45793 0.0
H1374 H 0.79581 0.81697 0.41124 0.0
H1375 H 0.78279 0.8402 0.43853 0.0
H1376 H 0.78853 0.7778 0.40555 0.0
H1377 H 0.87356 0.78706 0.41495 0.0
H1378 H 0.86258 0.78063 0.43989 0.0
H1379 H 0.85562 0.80475 0.42718 0.0
C1380 C 0.81271 0.80866 0.46894 0.0
C1381 C 0.79911 0.82488 0.46388 0.0
C1382 C 0.81981 0.79523 0.45341 0.0
C1383 C 0.81396 0.79809 0.43243 0.0
C1384 C 0.80067 0.81455 0.42728 0.0
H1385 H 0.87384 0.70024 0.36046 0.0
H1386 H 0.86193 0.73584 0.3669 0.0
C1387 C 0.79324 0.82778 0.44289 0.0
C1388 C 0.82023 0.78268 0.41639 0.0
H1389 H 0.86132 0.75275 0.40226 0.0
C1390 C 0.80455 0.77265 0.40442 0.0
C1391 C 0.84119 0.77639 0.41422 0.0
C1392 C 0.85917 0.78801 0.42459 0.0
C1393 C 0.809 0.75529 0.39189 0.0
C1394 C 0.82947 0.74726 0.39204 0.0
C1395 C 0.84548 0.7585 0.40244 0.0
C1396 C 0.83421 0.72609 0.38398 0.0
C1397 C 0.79158 0.74552 0.37904 0.0
C1398 C 0.82225 0.70874 0.39078 0.0
C1399 C 0.82876 0.68845 0.38668 0.0
C1400 C 0.84772 0.68513 0.37629 0.0
C1401 C 0.85921 0.70241 0.36862 0.0
C1402 C 0.85242 0.72273 0.37229 0.0
H1403 H 0.78089 0.75772 0.3732 0.0
H1404 H 0.79765 0.73668 0.36546 0.0
H1405 H 0.7822 0.73473 0.38903 0.0
H1406 H 0.80856 0.71078 0.40043 0.0
H1407 H 0.8197 0.67543 0.39298 0.0
H1408 H 0.89971 0.00995 0.15736 0.0
H1409 H 0.92922 0.02885 0.14134 0.0
H1410 H 0.94687 0.05368 0.20179 0.0
H1411 H 0.91667 0.0359 0.21757 0.0
H1412 H 0.95475 0.08157 0.17296 0.0
H1413 H 0.98607 0.00554 0.14663 0.0
H1414 H 0.96122 0.01132 0.13525 0.0
H1415 H 0.96333 0.00719 0.16304 0.0
C1416 C 0.90971 0.01978 0.1671 0.0
C1417 C 0.90614 0.02132 0.18871 0.0
C1418 C 0.92663 0.03041 0.15799 0.0
C1419 C 0.94067 0.04207 0.17048 0.0
C1420 C 0.93635 0.04463 0.19185 0.0
H1421 H 0.07186 0.06031 0.15347 0.0
H1422 H 0.03613 0.0487 0.16112 0.0
C1423 C 0.9191 0.03448 0.20087 0.0
C1424 C 0.96059 0.05043 0.1618 0.0
H1425 H 0.00555 0.03575 0.13769 0.0
C1426 C 0.96586 0.07159 0.16518 0.0
C1427 C 0.97518 0.03728 0.15192 0.0
C1428 C 0.97129 0.01405 0.14917 0.0
C1429 C 0.98552 0.07984 0.15952 0.0
C1430 C -4e-05 0.06675 0.14935 0.0
C1431 C -0.00559 0.04578 0.14538 0.0
C1432 C 0.02151 0.07388 0.14416 0.0
C1433 C -0.00909 0.10217 0.16545 0.0
C1434 C 0.0252 0.09172 0.13183 0.0
C1435 C 0.04565 0.09866 0.12786 0.0
C1436 C 0.0627 0.08749 0.13564 0.0
C1437 C 0.05899 0.06919 0.14725 0.0
C1438 C 0.03858 0.06255 0.15162 0.0
H1439 H 0.98058 0.10798 0.17806 0.0
H1440 H 0.00738 0.10374 0.17082 0.0
H1441 H -0.01117 0.11239 0.15162 0.0
H1442 H 0.0123 0.10032 0.12532 0.0
H1443 H 0.04813 0.11267 0.11861 0.0
H1444 H 0.26113 0.6927 0.48001 0.0
H1445 H 0.27739 0.7223 0.49847 0.0
H1446 H 0.26798 0.69057 0.55732 0.0
H1447 H 0.25114 0.66113 0.53902 0.0
H1448 H 0.25741 0.73101 0.5596 0.0
H1449 H 0.3355 0.72462 0.52324 0.0
H1450 H 0.31515 0.72689 0.50409 0.0
H1451 H 0.31565 0.70432 0.5209 0.0
C1452 C 0.26255 0.69203 0.49688 0.0
C1453 C 0.255 0.6746 0.50809 0.0
C1454 C 0.27197 0.70887 0.50738 0.0
C1455 C 0.27431 0.70837 0.52919 0.0
C1456 C 0.26646 0.69114 0.54046 0.0
H1457 H 0.3542 0.80046 0.5928 0.0
H1458 H 0.33868 0.76753 0.58019 0.0
C1459 C 0.25684 0.67438 0.52999 0.0
C1460 C 0.28445 0.72612 0.54027 0.0
H1461 H 0.32864 0.75675 0.54105 0.0
C1462 C 0.27307 0.73653 0.55572 0.0
C1463 C 0.30504 0.73298 0.53548 0.0
C1464 C 0.31863 0.72147 0.52019 0.0
C1465 C 0.28144 0.75418 0.56595 0.0
C1466 C 0.30147 0.76187 0.56013 0.0
C1467 C 0.31316 0.75097 0.54528 0.0
C1468 C 0.31035 0.78158 0.56869 0.0
C1469 C 0.26878 0.76433 0.58294 0.0
C1470 C 0.29961 0.80035 0.56624 0.0
C1471 C 0.30833 0.81912 0.57356 0.0
C1472 C 0.32814 0.81949 0.58311 0.0
C1473 C 0.33894 0.80068 0.58542 0.0
C1474 C 0.3301 0.78187 0.57828 0.0
H1475 H 0.25755 0.75299 0.59012 0.0
H1476 H 0.279 0.77097 0.59544 0.0
H1477 H 0.25961 0.77719 0.57606 0.0
H1478 H 0.28462 0.80055 0.55835 0.0
H1479 H 0.29969 0.83337 0.5714 0.0
H1480 H 0.08476 0.50348 0.32989 0.0
H1481 H 0.05924 0.51638 0.35505 0.0
H1482 H 0.05033 0.57117 0.31705 0.0
H1483 H 0.07565 0.55839 0.29172 0.0
H1484 H 0.0492 0.57368 0.36773 0.0
H1485 H -0.00286 0.51615 0.32609 0.0
H1486 H 0.02254 0.50839 0.33511 0.0
H1487 H 0.02053 0.52645 0.31382 0.0
C1488 C 0.07788 0.5186 0.32721 0.0
C1489 C 0.0819 0.52977 0.30865 0.0
C1490 C 0.06336 0.52593 0.34163 0.0
C1491 C 0.05292 0.54459 0.33774 0.0
C1492 C 0.05836 0.55674 0.32027 0.0
H1493 H 0.95279 0.62141 0.35877 0.0
H1494 H 0.98689 0.60546 0.35766 0.0
C1495 C 0.07275 0.54937 0.30579 0.0
C1496 C 0.03385 0.54966 0.34939 0.0
H1497 H 0.98125 0.54076 0.34747 0.0
C1498 C 0.03434 0.56625 0.36373 0.0
C1499 C 0.01462 0.53969 0.34427 0.0
C1500 C 0.01346 0.52168 0.32897 0.0
C1501 C 0.01578 0.57387 0.37229 0.0
C1502 C -0.00364 0.56509 0.36571 0.0
C1503 C -0.0039 0.54754 0.35249 0.0
C1504 C 0.97622 0.57544 0.36968 0.0
C1505 C 0.0172 0.59154 0.38792 0.0
C1506 C 0.95864 0.56381 0.37645 0.0
C1507 C 0.93887 0.57277 0.37655 0.0
C1508 C 0.9364 0.59355 0.36995 0.0
C1509 C 0.95415 0.60539 0.36401 0.0
C1510 C 0.97378 0.59635 0.36366 0.0
H1511 H 0.03158 0.59036 0.39758 0.0
H1512 H 0.01815 0.60666 0.37943 0.0
H1513 H 0.00342 0.59165 0.39845 0.0
H1514 H 0.96012 0.54757 0.38099 0.0
H1515 H 0.9255 0.56332 0.38137 0.0
H1516 H 0.41955 0.41733 0.75105 0.0
H1517 H 0.44446 0.40657 0.77769 0.0
H1518 H 0.4117 0.4424 0.82409 0.0
H1519 H 0.38721 0.45398 0.79725 0.0
H1520 H 0.45144 0.44994 0.82745 0.0
H1521 H 0.44052 0.36442 0.82308 0.0
H1522 H 0.44628 0.37437 0.79753 0.0
H1523 H 0.42266 0.38206 0.81063 0.0
C1524 C 0.41748 0.42268 0.76698 0.0
C1525 C 0.40143 0.43647 0.77208 0.0
C1526 C 0.43164 0.41639 0.78225 0.0
C1527 C 0.42969 0.4233 0.80302 0.0
C1528 C 0.41343 0.43678 0.80821 0.0
H1529 H 0.5245 0.36512 0.88025 0.0
H1530 H 0.48984 0.3784 0.87194 0.0
C1531 C 0.39947 0.44337 0.79286 0.0
C1532 C 0.44563 0.41771 0.81879 0.0
H1533 H 0.47452 0.37679 0.83555 0.0
C1534 C 0.45621 0.43388 0.82959 0.0
C1535 C 0.45147 0.39675 0.82217 0.0
C1536 C 0.43943 0.37844 0.8129 0.0
C1537 C 0.47348 0.42979 0.84239 0.0
C1538 C 0.4808 0.40909 0.84379 0.0
C1539 C 0.46922 0.39276 0.83427 0.0
C1540 C 0.50145 0.40412 0.85293 0.0
C1541 C 0.48381 0.44777 0.85399 0.0
C1542 C 0.51955 0.41464 0.84575 0.0
C1543 C 0.53933 0.40738 0.85092 0.0
C1544 C 0.54134 0.38908 0.86281 0.0
C1545 C 0.52333 0.37922 0.87097 0.0
C1546 C 0.50355 0.38678 0.8662 0.0
H1547 H 0.47209 0.45952 0.85861 0.0
H1548 H 0.49208 0.44243 0.86825 0.0
H1549 H 0.49525 0.45576 0.84353 0.0
H1550 H 0.51845 0.42763 0.83498 0.0
H1551 H 0.55294 0.41514 0.84422 0.0
H1552 H 0.95115 0.80491 0.67907 0.0
H1553 H 0.92532 0.81579 0.70463 0.0
H1554 H 0.90837 0.75123 0.71635 0.0
H1555 H 0.9345 0.74008 0.69076 0.0
H1556 H 0.88081 0.80693 0.707 0.0
H1557 H 0.92636 0.77545 0.77408 0.0
H1558 H 0.93779 0.77905 0.74853 0.0
H1559 H 0.91971 0.75776 0.75311 0.0
C1560 C 0.94192 0.79298 0.68702 0.0
C1561 C 0.94497 0.77163 0.68307 0.0
C1562 C 0.92708 0.79924 0.70151 0.0
C1563 C 0.91507 0.7843 0.71237 0.0
C1564 C 0.91767 0.76296 0.70818 0.0
H1565 H 0.85073 0.81937 0.82645 0.0
H1566 H 0.8584 0.79837 0.79558 0.0
C1567 C 0.93257 0.75664 0.69362 0.0
C1568 C 0.90085 0.7914 0.72894 0.0
H1569 H 0.89755 0.79589 0.78189 0.0
C1570 C 0.88417 0.80425 0.72341 0.0
C1571 C 0.9053 0.78774 0.75026 0.0
C1572 C 0.92331 0.77436 0.757 0.0
C1573 C 0.87232 0.81431 0.73873 0.0
C1574 C 0.87764 0.8117 0.76001 0.0
C1575 C 0.89352 0.79787 0.76553 0.0
C1576 C 0.86871 0.82472 0.77678 0.0
C1577 C 0.85456 0.82794 0.73195 0.0
C1578 C 0.87138 0.84658 0.77621 0.0
C1579 C 0.86691 0.85865 0.7938 0.0
C1580 C 0.86007 0.84897 0.81233 0.0
C1581 C 0.85623 0.82723 0.81244 0.0
C1582 C 0.86052 0.81521 0.79481 0.0
H1583 H 0.84781 0.82249 0.71683 0.0
H1584 H 0.84196 0.82817 0.74386 0.0
H1585 H 0.86055 0.84419 0.72967 0.0
H1586 H 0.87815 0.8542 0.76264 0.0
H1587 H 0.87006 0.87535 0.79329 0.0
H1588 H 0.92934 0.18593 0.40018 0.0
H1589 H 0.9219 0.16764 0.43289 0.0
H1590 H 0.98735 0.17049 0.44912 0.0
H1591 H -0.00494 0.18859 0.41607 0.0
H1592 H 0.96226 0.1314 0.4619 0.0
H1593 H 0.92884 0.20758 0.48526 0.0
H1594 H 0.91898 0.19722 0.46096 0.0
H1595 H 0.94606 0.20493 0.46312 0.0
C1596 C 0.94224 0.18221 0.41046 0.0
C1597 C 0.96272 0.18897 0.40581 0.0
C1598 C 0.93796 0.17173 0.42908 0.0
C1599 C 0.95404 0.1681 0.44345 0.0
C1600 C 0.97477 0.17324 0.43814 0.0
H1601 H 0.94169 0.1373 0.57595 0.0
H1602 H 0.95676 0.14334 0.54122 0.0
C1603 C 0.97913 0.18356 0.41931 0.0
C1604 C 0.94862 0.16179 0.46495 0.0
H1605 H 0.92221 0.1788 0.50779 0.0
C1606 C 0.9537 0.14176 0.47207 0.0
C1607 C 0.93765 0.17552 0.47815 0.0
C1608 C 0.9327 0.19759 0.47162 0.0
C1609 C 0.94722 0.1348 0.49192 0.0
C1610 C 0.93553 0.1483 0.50469 0.0
C1611 C 0.93105 0.16849 0.49778 0.0
C1612 C 0.92704 0.14176 0.52509 0.0
C1613 C 0.95225 0.11297 0.49895 0.0
C1614 C 0.9054 0.13882 0.52732 0.0
C1615 C 0.89674 0.13548 0.54704 0.0
C1616 C 0.90957 0.13524 0.56491 0.0
C1617 C 0.93137 0.13754 0.56251 0.0
C1618 C 0.94003 0.14082 0.54271 0.0
H1619 H 0.95992 0.10379 0.48645 0.0
H1620 H 0.96284 0.11381 0.51271 0.0
H1621 H 0.93772 0.10457 0.50389 0.0
H1622 H 0.89517 0.13968 0.51383 0.0
H1623 H 0.87992 0.13363 0.54829 0.0
H1624 H 0.54812 0.24504 0.18648 0.0
H1625 H 0.56864 0.22321 0.20968 0.0
H1626 H 0.55079 0.16855 0.17373 0.0
H1627 H 0.52965 0.19027 0.15075 0.0
H1628 H 0.54193 0.16362 0.21378 0.0
H1629 H 0.62323 0.19352 0.20801 0.0
H1630 H 0.6056 0.2144 0.21299 0.0
H1631 H 0.6035 0.19983 0.1889 0.0
C1632 C 0.54893 0.22844 0.18321 0.0
C1633 C 0.53714 0.21933 0.16691 0.0
C1634 C 0.56085 0.21599 0.19639 0.0
C1635 C 0.5615 0.19427 0.19328 0.0
C1636 C 0.5506 0.1853 0.17633 0.0
H1637 H 0.60096 0.10198 0.28648 0.0
H1638 H 0.59375 0.11778 0.25243 0.0
C1639 C 0.53851 0.19772 0.16325 0.0
C1640 C 0.57091 0.18079 0.20944 0.0
H1641 H 0.61408 0.17562 0.24036 0.0
C1642 C 0.55787 0.16588 0.21926 0.0
C1643 C 0.59169 0.18381 0.2166 0.0
C1644 C 0.60685 0.19862 0.2059 0.0
C1645 C 0.56464 0.1548 0.23681 0.0
C1646 C 0.58502 0.15863 0.24461 0.0
C1647 C 0.59841 0.17284 0.23432 0.0
C1648 C 0.59189 0.14931 0.2645 0.0
C1649 C 0.54957 0.1399 0.24758 0.0
C1650 C 0.59374 0.16196 0.28233 0.0
C1651 C 0.59776 0.15303 0.30179 0.0
C1652 C 0.60005 0.13128 0.3037 0.0
C1653 C 0.59909 0.11876 0.28558 0.0
C1654 C 0.59501 0.12773 0.26612 0.0
H1655 H 0.53345 0.14087 0.2412 0.0
H1656 H 0.55494 0.12362 0.24551 0.0
H1657 H 0.5491 0.14321 0.26463 0.0
H1658 H 0.59136 0.17867 0.28131 0.0
H1659 H 0.59862 0.16314 0.31539 0.0
H1660 H 0.5358 0.772 0.90233 0.0
H1661 H 0.55786 0.78902 0.9284 0.0
H1662 H 0.52872 0.84802 0.91554 0.0
H1663 H 0.50543 0.83061 0.89016 0.0
H1664 H 0.58559 0.81907 0.93194 0.0
H1665 H 0.51412 0.84187 0.97542 0.0
H1666 H 0.51277 0.82571 0.9524 0.0
H1667 H 0.51724 0.85351 0.9501 0.0
C1668 C 0.53423 0.78867 0.90478 0.0
C1669 C 0.51856 0.79988 0.89454 0.0
C1670 C 0.54695 0.79843 0.91968 0.0
C1671 C 0.54455 0.8197 0.92441 0.0
C1672 C 0.53033 0.83144 0.91271 0.0
H1673 H 0.62437 0.85562 0.03283 0.0
H1674 H 0.61089 0.85633 -0.00311 0.0
C1675 C 0.51715 0.82152 0.89811 0.0
C1676 C 0.55543 0.82847 0.94305 0.0
H1677 H 0.54604 0.84629 -0.00761 0.0
C1678 C 0.57702 0.82529 0.94511 0.0
C1679 C 0.54418 0.83657 0.96022 0.0
C1680 C 0.5208 0.8395 0.95959 0.0
C1681 C 0.58732 0.82829 0.96431 0.0
C1682 C 0.57585 0.83559 0.98166 0.0
C1683 C 0.55471 0.84052 0.97908 0.0
C1684 C 0.58442 0.83566 0.00321 0.0
C1685 C 0.60992 0.82214 0.96616 0.0
C1686 C 0.57377 0.82427 0.0188 0.0
C1687 C 0.58109 0.82432 0.03931 0.0
C1688 C 0.59946 0.83543 0.04459 0.0
C1689 C 0.61033 0.84665 0.02901 0.0
C1690 C 0.6027 0.847 0.0085 0.0
H1691 H 0.615 0.81255 0.95265 0.0
H1692 H 0.61996 0.83648 0.96668 0.0
H1693 H 0.6126 0.81313 0.98072 0.0
H1694 H 0.55969 0.81532 0.01509 0.0
H1695 H 0.57244 0.81553 0.05103 0.0
H1696 H 0.93164 0.2566 0.82823 0.0
H1697 H 0.91139 0.24038 0.79982 0.0
H1698 H 0.93763 0.18051 0.81458 0.0
H1699 H 0.95784 0.19646 0.84298 0.0
H1700 H 0.93306 0.22094 0.76695 0.0
H1701 H 0.87554 0.16601 0.80294 0.0
H1702 H 0.88736 0.1877 0.8171 0.0
H1703 H 0.90154 0.16398 0.8133 0.0
C1704 C 0.93272 0.23989 0.82576 0.0
C1705 C 0.94652 0.22785 0.8377 0.0
C1706 C 0.92111 0.23066 0.80956 0.0
C1707 C 0.92288 0.20924 0.80529 0.0
C1708 C 0.93574 0.19699 0.81791 0.0
H1709 H 0.9066 0.1219 0.70599 0.0
H1710 H 0.91059 0.14008 0.73951 0.0
C1711 C 0.94744 0.20619 0.834 0.0
C1712 C 0.91403 0.20029 0.78584 0.0
H1713 H 0.88363 0.16018 0.76677 0.0
C1714 C 0.92193 0.20792 0.76684 0.0
C1715 C 0.89974 0.18318 0.78588 0.0
C1716 C 0.89039 0.17483 0.8059 0.0
C1717 C 0.91672 0.19824 0.74784 0.0
C1718 C 0.90275 0.1808 0.74786 0.0
C1719 C 0.89431 0.17357 0.76684 0.0
C1720 C 0.89783 0.16918 0.72843 0.0
C1721 C 0.92714 0.20608 0.72809 0.0
C1722 C 0.88872 0.17935 0.71136 0.0
C1723 C 0.88674 0.16914 0.69216 0.0
C1724 C 0.8935 0.14847 0.68982 0.0
C1725 C 0.90138 0.13787 0.7073 0.0
C1726 C 0.90361 0.1482 0.72645 0.0
H1727 H 0.94109 0.21614 0.7315 0.0
H1728 H 0.93205 0.19285 0.71809 0.0
H1729 H 0.91591 0.21556 0.71907 0.0
H1730 H 0.88369 0.19538 0.71274 0.0
H1731 H 0.88023 0.17756 0.67904 0.0
H1732 H 0.48026 0.17172 0.55865 0.0
H1733 H 0.49667 0.14838 0.53356 0.0
H1734 H 0.55701 0.17606 0.54793 0.0
H1735 H 0.54074 0.19947 0.57318 0.0
H1736 H 0.51824 0.16703 0.49949 0.0
H1737 H 0.56875 0.11242 0.54317 0.0
H1738 H 0.54703 0.12558 0.55513 0.0
H1739 H 0.5713 0.13944 0.55075 0.0
C1740 C 0.49709 0.17253 0.55686 0.0
C1741 C 0.5092 0.18759 0.56771 0.0
C1742 C 0.50643 0.15912 0.54257 0.0
C1743 C 0.52803 0.16042 0.53903 0.0
C1744 C 0.54035 0.17458 0.55073 0.0
H1745 H 0.61476 0.12931 0.44379 0.0
H1746 H 0.59694 0.1371 0.47652 0.0
C1747 C 0.53101 0.18804 0.56503 0.0
C1748 C 0.53708 0.14951 0.52092 0.0
H1749 H 0.5745 0.11509 0.50635 0.0
C1750 C 0.53031 0.15541 0.50095 0.0
C1751 C 0.55295 0.1346 0.52299 0.0
C1752 C 0.56037 0.12746 0.54416 0.0
C1753 C 0.53956 0.14742 0.48289 0.0
C1754 C 0.55561 0.13261 0.48488 0.0
C1755 C 0.56209 0.12633 0.50489 0.0
C1756 C 0.56685 0.12481 0.46633 0.0
C1757 C 0.53276 0.15577 0.4619 0.0
C1758 C 0.55601 0.11457 0.45007 0.0
C1759 C 0.56606 0.1104 0.43119 0.0
C1760 C 0.58722 0.11606 0.42845 0.0
C1761 C 0.59841 0.12487 0.44535 0.0
C1762 C 0.58828 0.12928 0.46411 0.0
H1763 H 0.52403 0.17056 0.46344 0.0
H1764 H 0.54643 0.1587 0.45156 0.0
H1765 H 0.52227 0.14408 0.45418 0.0
H1766 H 0.53958 0.11052 0.4517 0.0
H1767 H 0.55712 0.10327 0.41857 0.0
H1768 H 0.52587 0.81073 0.32024 0.0
H1769 H 0.54867 0.81449 0.28989 0.0
H1770 H 0.56502 0.74953 0.29456 0.0
H1771 H 0.54223 0.74556 0.32522 0.0
H1772 H 0.59547 0.80101 0.28363 0.0
H1773 H 0.53349 0.76143 0.23543 0.0
H1774 H 0.52722 0.77401 0.25986 0.0
H1775 H 0.54143 0.75012 0.25995 0.0
C1776 C 0.53454 0.79729 0.31504 0.0
C1777 C 0.53209 0.77779 0.32496 0.0
C1778 C 0.54763 0.79951 0.29779 0.0
C1779 C 0.55836 0.78226 0.29006 0.0
C1780 C 0.5568 0.76298 0.30043 0.0
H1781 H 0.60224 0.79001 0.16067 0.0
H1782 H 0.59608 0.77497 0.19534 0.0
C1783 C 0.54382 0.76078 0.31789 0.0
C1784 C 0.56932 0.78428 0.26994 0.0
H1785 H 0.56057 0.7789 0.21763 0.0
C1786 C 0.58815 0.79581 0.26917 0.0
C1787 C 0.55968 0.77736 0.25122 0.0
C1788 C 0.53931 0.76506 0.25144 0.0
C1789 C 0.59714 0.80147 0.24995 0.0
C1790 C 0.58666 0.79587 0.2312 0.0
C1791 C 0.56853 0.78321 0.23204 0.0
C1792 C 0.59275 0.80486 0.21077 0.0
C1793 C 0.61747 0.81381 0.24993 0.0
C1794 C 0.59282 0.82663 0.20799 0.0
C1795 C 0.59627 0.83527 0.18826 0.0
C1796 C 0.59948 0.82227 0.17086 0.0
C1797 C 0.59972 0.80046 0.17374 0.0
C1798 C 0.5963 0.79183 0.19353 0.0
H1799 H 0.62694 0.81032 0.26405 0.0
H1800 H 0.62689 0.81041 0.2358 0.0
H1801 H 0.61409 0.83077 0.25015 0.0
H1802 H 0.58953 0.83696 0.22097 0.0
H1803 H 0.596 0.85213 0.18661 0.0
H1804 H 0.92667 0.77572 0.06245 0.0
H1805 H 0.91559 0.80255 0.03786 0.0
H1806 H 0.97952 0.82402 0.03099 0.0
H1807 H -0.00914 0.79708 0.05561 0.0
H1808 H 0.92345 0.8488 0.03885 0.0
H1809 H 0.95814 0.80703 0.97095 0.0
H1810 H 0.95314 0.79404 -0.00447 0.0
H1811 H 0.97452 0.81245 -0.0067 0.0
C1812 C 0.93839 0.78617 0.05577 0.0
C1813 C 0.95966 0.7842 0.06079 0.0
C1814 C 0.93201 0.80156 0.04186 0.0
C1815 C 0.94677 0.81514 0.03267 0.0
C1816 C 0.96796 0.81356 0.03793 0.0
H1817 H 0.91376 0.88264 0.91981 0.0
H1818 H 0.93431 0.87454 0.95092 0.0
C1819 C 0.97438 0.79817 0.05193 0.0
C1820 C 0.93985 0.82993 0.01655 0.0
H1821 H 0.93715 0.83561 0.96372 0.0
C1822 C 0.92669 0.84623 0.02241 0.0
C1823 C 0.94432 0.82654 -0.00478 0.0
C1824 C 0.95822 0.80904 -0.01179 0.0
C1825 C 0.91711 0.85875 0.00731 0.0
C1826 C 0.92046 0.85443 0.9859 0.0
C1827 C 0.9346 0.83891 0.98015 0.0
C1828 C 0.90773 0.86381 0.96914 0.0
C1829 C 0.90322 0.87617 0.01443 0.0
C1830 C 0.8859 0.86106 0.9693 0.0
C1831 C 0.8741 0.86582 0.95162 0.0
C1832 C 0.88403 0.87299 0.93335 0.0
C1833 C 0.90573 0.8769 0.93362 0.0
C1834 C 0.91748 0.87237 0.95139 0.0
H1835 H 0.90848 0.88253 0.02979 0.0
H1836 H 0.90295 0.88914 0.0029 0.0
H1837 H 0.88704 0.86993 0.01643 0.0
H1838 H 0.87808 0.85398 0.98261 0.0
H1839 H 0.85741 0.86261 0.95185 0.0
H1840 H 0.66676 0.92539 0.73697 0.0
H1841 H 0.68923 0.90536 0.76016 0.0
H1842 H 0.65387 0.92608 0.81349 0.0
H1843 H 0.63189 0.94675 0.79045 0.0
H1844 H 0.69336 0.93685 0.81694 0.0
H1845 H 0.68934 0.85331 0.79514 0.0
H1846 H 0.69373 0.86939 0.77258 0.0
H1847 H 0.66972 0.8716 0.78704 0.0
C1848 C 0.66342 0.92516 0.75357 0.0
C1849 C 0.64785 0.93784 0.76198 0.0
C1850 C 0.67614 0.91354 0.76681 0.0
C1851 C 0.67312 0.91409 0.78857 0.0
C1852 C 0.65644 0.92541 0.79676 0.0
H1853 H 0.77228 0.89135 0.88073 0.0
H1854 H 0.73669 0.89318 0.86675 0.0
C1855 C 0.64398 0.93728 0.7836 0.0
C1856 C 0.68956 0.9064 0.80276 0.0
H1857 H 0.72184 0.86543 0.81156 0.0
C1858 C 0.69922 0.92105 0.81619 0.0
C1859 C 0.69724 0.88584 0.80168 0.0
C1860 C 0.68679 0.8691 0.78847 0.0
C1861 C 0.71718 0.91615 0.82753 0.0
C1862 C 0.72553 0.89594 0.82556 0.0
C1863 C 0.71532 0.88091 0.81298 0.0
C1864 C 0.74622 0.89123 0.83437 0.0
C1865 C 0.72787 0.93308 0.8404 0.0
C1866 C 0.76313 0.88875 0.82077 0.0
C1867 C 0.7834 0.88773 0.82864 0.0
C1868 C 0.78709 0.8892 0.85028 0.0
C1869 C 0.76997 0.89051 0.86396 0.0
C1870 C 0.74965 0.89148 0.85604 0.0
H1871 H 0.72109 0.94872 0.83766 0.0
H1872 H 0.72617 0.92931 0.85726 0.0
H1873 H 0.74483 0.93398 0.83678 0.0
H1874 H 0.76073 0.88855 0.80399 0.0
H1875 H 0.79621 0.88642 0.81768 0.0
H1876 H 0.79279 0.91133 0.55493 0.0
H1877 H 0.81546 0.93945 0.56832 0.0
H1878 H 0.83228 0.95664 0.50527 0.0
H1879 H 0.80932 0.92866 0.49164 0.0
H1880 H 0.85895 0.94864 0.56253 0.0
H1881 H 0.8074 0.01011 0.53033 0.0
H1882 H 0.79918 0.98302 0.53206 0.0
H1883 H 0.81689 -0.00863 0.51184 0.0
C1884 C 0.80137 0.92103 0.54389 0.0
C1885 C 0.79911 0.91797 0.52223 0.0
C1886 C 0.81439 0.93699 0.55158 0.0
C1887 C 0.82533 0.95017 0.53776 0.0
C1888 C 0.82371 0.94674 0.51614 0.0
H1889 H 0.88397 0.06974 0.56866 0.0
H1890 H 0.87631 0.03709 0.55011 0.0
C1891 C 0.81063 0.93078 0.50841 0.0
C1892 C 0.83736 0.96824 0.54613 0.0
H1893 H 0.83667 0.0214 0.5496 0.0
C1894 C 0.85427 0.96459 0.55957 0.0
C1895 C 0.83111 -0.01104 0.5422 0.0
C1896 C 0.81257 -0.00628 0.52846 0.0
C1897 C 0.86496 0.98121 0.5695 0.0
C1898 C 0.85828 0.00187 0.56607 0.0
C1899 C 0.8418 0.00552 0.55211 0.0
C1900 C 0.86694 0.01997 0.57782 0.0
C1901 C 0.88318 0.97651 0.58364 0.0
C1902 C 0.86476 0.02095 0.59964 0.0
C1903 C 0.8692 0.03959 0.61033 0.0
C1904 C 0.87555 0.05758 0.59927 0.0
C1905 C 0.87886 0.05618 0.57758 0.0
C1906 C 0.87458 0.03754 0.56696 0.0
H1907 H 0.89036 0.96137 0.57949 0.0
H1908 H 0.89537 -0.01091 0.58286 0.0
H1909 H 0.87757 0.97537 0.60001 0.0
H1910 H 0.85847 0.00769 0.60826 0.0
H1911 H 0.86647 0.04021 0.62703 0.0
H1912 H 0.82932 0.07371 0.24845 0.0
H1913 H 0.80548 0.09849 0.26474 0.0
H1914 H 0.79368 0.05427 0.31458 0.0
H1915 H 0.81839 0.03047 0.29929 0.0
H1916 H 0.7673 0.09505 0.26801 0.0
H1917 H 0.7932 0.10441 0.34887 0.0
H1918 H 0.81 0.09301 0.32948 0.0
H1919 H 0.792 0.07681 0.34445 0.0
C1920 C 0.82208 0.06967 0.26324 0.0
C1921 C 0.8257 0.05022 0.27265 0.0
C1922 C 0.80846 0.08381 0.27254 0.0
C1923 C 0.79795 0.07852 0.29116 0.0
C1924 C 0.80212 0.05927 0.30076 0.0
H1925 H 0.67182 0.08109 0.31445 0.0
H1926 H 0.70691 0.08178 0.29981 0.0
C1927 C 0.81612 0.04546 0.29182 0.0
C1928 C 0.78034 0.09123 0.29894 0.0
H1929 H 0.75437 0.10162 0.3441 0.0
C1930 C 0.7648 0.09709 0.28465 0.0
C1931 C 0.77714 0.09491 0.32053 0.0
C1932 C 0.79418 0.09216 0.33658 0.0
C1933 C 0.74537 0.10415 0.29151 0.0
C1934 C 0.74097 0.10424 0.31319 0.0
C1935 C 0.75731 0.1008 0.32743 0.0
C1936 C 0.71925 0.10527 0.3213 0.0
C1937 C 0.72967 0.11088 0.27533 0.0
C1938 C 0.71454 0.11753 0.33888 0.0
C1939 C 0.69461 0.11643 0.34783 0.0
C1940 C 0.679 0.10337 0.3391 0.0
C1941 C 0.68353 0.09151 0.32128 0.0
C1942 C 0.70355 0.09214 0.31273 0.0
H1943 H 0.73768 0.11902 0.26216 0.0
H1944 H 0.72158 0.09684 0.26872 0.0
H1945 H 0.71787 0.1215 0.28201 0.0
H1946 H 0.72636 0.12767 0.34591 0.0
H1947 H 0.6914 0.12578 0.36156 0.0
H1948 H 0.67038 0.06136 -0.0092 0.0
H1949 H 0.65129 0.02899 -0.00034 0.0
H1950 H 0.66479 0.03932 0.065 0.0
H1951 H 0.68395 0.07152 0.05636 0.0
H1952 H 0.6733 -0.00371 0.02134 0.0
H1953 H 0.60206 0.02021 0.06371 0.0
H1954 H 0.61586 0.03726 0.04565 0.0
H1955 H 0.62558 0.0338 0.07178 0.0
C1956 C 0.66887 0.05698 0.00709 0.0
C1957 C 0.6788 0.06887 0.02289 0.0
C1958 C 0.65795 0.03852 0.0121 0.0
C1959 C 0.65649 0.03196 0.03297 0.0
C1960 C 0.66546 0.04435 0.04883 0.0
H1961 H 0.63527 0.92824 0.11158 0.0
H1962 H 0.6391 0.96221 0.09442 0.0
C1963 C 0.67655 0.06264 0.04384 0.0
C1964 C 0.64834 0.01087 0.03811 0.0
H1965 H 0.61337 0.98509 0.06942 0.0
C1966 C 0.65992 -0.0063 0.03148 0.0
C1967 C 0.63101 0.00775 0.05144 0.0
C1968 C 0.61777 0.02571 0.05844 0.0
C1969 C 0.65546 0.97351 0.03894 0.0
C1970 C 0.63856 0.97044 0.05293 0.0
C1971 C 0.62633 0.98752 0.05872 0.0
C1972 C 0.63452 0.95001 0.06311 0.0
C1973 C 0.66973 0.95597 0.03283 0.0
C1974 C 0.63025 0.93199 0.0512 0.0
C1975 C 0.62842 0.9125 0.06094 0.0
C1976 C 0.63044 0.91081 0.08277 0.0
C1977 C 0.63375 0.92903 0.09473 0.0
C1978 C 0.63586 0.94845 0.08496 0.0
H1979 H 0.68462 0.96193 0.02595 0.0
H1980 H 0.67348 0.94609 0.04655 0.0
H1981 H 0.66179 0.94593 0.02095 0.0
H1982 H 0.62864 0.93294 0.03437 0.0
H1983 H 0.62547 0.89876 0.05136 0.0
H1984 H 0.67451 0.01979 0.6744 0.0
H1985 H 0.70538 0.04186 0.66787 0.0
H1986 H 0.70195 0.06665 0.73045 0.0
H1987 H 0.67085 0.04466 0.73722 0.0
H1988 H 0.71049 0.09117 0.67699 0.0
H1989 H 0.76187 0.03586 0.71964 0.0
H1990 H 0.73759 0.02689 0.70794 0.0
H1991 H 0.73715 0.04328 0.73067 0.0
C1992 C 0.68016 0.03005 0.68675 0.0
C1993 C 0.67032 0.03036 0.70639 0.0
C1994 C 0.69773 0.04269 0.68294 0.0
C1995 C 0.70583 0.05575 0.69871 0.0
C1996 C 0.6958 0.05662 0.71814 0.0
H1997 H 0.83324 0.10644 0.68595 0.0
H1998 H 0.79909 0.09878 0.70166 0.0
C1999 C 0.67808 0.04406 0.72194 0.0
C2000 C 0.72558 0.06732 0.69498 0.0
H2001 H 0.77827 0.06229 0.69987 0.0
C2002 C 0.72535 0.08515 0.68226 0.0
C2003 C 0.74478 0.05944 0.70209 0.0
C2004 C 0.74559 0.0403 0.71584 0.0
C2005 C 0.74405 0.09488 0.67572 0.0
C2006 C 0.76334 0.08609 0.6816 0.0
C2007 C 0.76347 0.06895 0.6953 0.0
C2008 C 0.7834 0.09298 0.67214 0.0
C2009 C 0.74293 0.11423 0.66232 0.0
C2010 C 0.78589 0.09222 0.65036 0.0
C2011 C 0.8053 0.09664 0.64134 0.0
C2012 C 0.82272 0.10157 0.65397 0.0
C2013 C 0.82015 0.10258 0.67579 0.0
C2014 C 0.80065 0.09829 0.68479 0.0
H2015 H 0.72851 0.12307 0.66566 0.0
H2016 H 0.75672 0.12476 0.66482 0.0
H2017 H 0.7424 0.10956 0.64561 0.0
H2018 H 0.77297 0.08754 0.64032 0.0
H2019 H 0.80674 0.09563 0.6245 0.0
H2020 H 0.6955 0.92044 0.49852 0.0
H2021 H 0.67407 0.94605 0.48058 0.0
H2022 H 0.68812 0.91724 0.42132 0.0
H2023 H 0.71006 0.8919 0.43912 0.0
H2024 H 0.69829 0.95797 0.42185 0.0
H2025 H 0.61778 0.94781 0.4522 0.0
H2026 H 0.63677 0.95023 0.47278 0.0
H2027 H 0.63741 0.9281 0.45537 0.0
C2028 C 0.6936 0.91922 0.48173 0.0
C2029 C 0.70461 0.9043 0.4702 0.0
C2030 C 0.6812 0.93379 0.4715 0.0
C2031 C 0.67934 0.93345 0.44962 0.0
C2032 C 0.6893 0.91773 0.43822 0.0
H2033 H 0.63645 0.02891 0.36306 0.0
H2034 H 0.6457 -0.0046 0.37855 0.0
C2035 C 0.70184 0.90329 0.44841 0.0
C2036 C 0.66972 0.95117 0.43852 0.0
H2037 H 0.62603 0.98098 0.43599 0.0
C2038 C 0.68236 0.96277 0.42467 0.0
C2039 C 0.64901 0.95751 0.44238 0.0
C2040 C 0.6344 0.94513 0.45634 0.0
C2041 C 0.67512 0.98094 0.4151 0.0
C2042 C 0.65461 0.98755 0.41932 0.0
C2043 C 0.64177 0.97581 0.43286 0.0
C2044 C 0.64667 0.0071 0.41028 0.0
C2045 C 0.68973 -0.00663 0.40111 0.0
C2046 C 0.64358 0.02454 0.42314 0.0
C2047 C 0.63834 0.04375 0.41437 0.0
C2048 C 0.63607 0.04577 0.39258 0.0
C2049 C 0.63832 0.02797 0.37987 0.0
C2050 C 0.64357 0.0088 0.38866 0.0
H2051 H 0.70618 -0.01171 0.40259 0.0
H2052 H 0.68482 -0.00877 0.38457 0.0
H2053 H 0.68908 0.01032 0.40482 0.0
H2054 H 0.64591 0.02344 0.43989 0.0
H2055 H 0.63653 0.05709 0.42462 0.0
H2056 H 0.8135 0.95879 0.18907 0.0
H2057 H 0.78606 0.93433 0.17758 0.0
H2058 H 0.76932 0.92213 0.24178 0.0
H2059 H 0.79678 0.9468 0.25352 0.0
H2060 H 0.77958 0.89031 0.18868 0.0
H2061 H 0.71465 0.94208 0.21275 0.0
H2062 H 0.74119 0.95175 0.20994 0.0
H2063 H 0.73406 0.93601 0.23211 0.0
C2064 C 0.80402 0.95091 0.20079 0.0
C2065 C 0.80717 0.95481 0.2222 0.0
C2066 C 0.78844 0.93687 0.19418 0.0
C2067 C 0.77568 0.92658 0.20884 0.0
C2068 C 0.77896 0.93011 0.23026 0.0
H2069 H 0.65988 0.86081 0.17466 0.0
H2070 H 0.68996 0.87209 0.1957 0.0
C2071 C 0.79462 0.94417 0.23692 0.0
C2072 C 0.75844 0.91284 0.20139 0.0
H2073 H 0.7056 0.9114 0.19461 0.0
C2074 C 0.76335 0.8947 0.19019 0.0
C2075 C 0.73736 0.91865 0.20353 0.0
C2076 C 0.73136 0.93823 0.21511 0.0
C2077 C 0.74768 0.8825 0.18048 0.0
C2078 C 0.72669 0.88893 0.18168 0.0
C2079 C 0.72172 0.90652 0.19372 0.0
C2080 C 0.70983 0.87893 0.16913 0.0
C2081 C 0.75378 0.86302 0.16882 0.0
C2082 C 0.71117 0.87872 0.14722 0.0
C2083 C 0.69404 0.87223 0.13514 0.0
C2084 C 0.67517 0.86616 0.14478 0.0
C2085 C 0.67415 0.86558 0.16675 0.0
C2086 C 0.69133 0.87195 0.17881 0.0
H2087 H 0.7684 0.85645 0.17528 0.0
H2088 H 0.74122 0.85081 0.16949 0.0
H2089 H 0.75668 0.86702 0.15218 0.0
H2090 H 0.72512 0.88453 0.13941 0.0
H2091 H 0.69531 0.8729 0.11826 0.0
H2092 H 0.75766 0.08294 0.94086 0.0
H2093 H 0.78215 0.05838 0.9258 0.0
H2094 H 0.81651 0.05726 0.98386 0.0
H2095 H 0.7919 0.08173 -0.00072 0.0
H2096 H 0.82783 0.05712 0.9218 0.0
H2097 H 0.79316 -0.00336 0.97488 0.0
H2098 H 0.781 0.0215 0.97057 0.0
H2099 H 0.8038 0.01998 0.98686 0.0
C2100 C 0.77056 0.07773 0.9504 0.0
C2101 C 0.77259 0.08397 0.97141 0.0
C2102 C 0.78463 0.06381 0.94169 0.0
C2103 C 0.80093 0.05591 0.95383 0.0
C2104 C 0.80386 0.0631 0.97436 0.0
H2105 H 0.85833 0.93753 0.92459 0.0
H2106 H 0.85417 0.97184 0.94072 0.0
C2107 C 0.78977 0.07704 0.98312 0.0
C2108 C 0.81304 0.0383 0.94568 0.0
H2109 H 0.81669 0.98539 0.94967 0.0
C2110 C 0.82573 0.04144 0.92804 0.0
C2111 C 0.81018 0.01795 0.95392 0.0
C2112 C 0.79622 0.01365 0.97251 0.0
C2113 C 0.83525 0.02455 0.91804 0.0
C2114 C 0.83152 0.00407 0.92569 0.0
C2115 C 0.81958 0.00112 0.94387 0.0
C2116 C 0.83801 0.98515 0.91426 0.0
C2117 C 0.84895 0.02877 0.89929 0.0
C2118 C 0.83079 0.98145 0.8938 0.0
C2119 C 0.83331 0.96189 0.88447 0.0
C2120 C 0.84267 0.94565 0.89567 0.0
C2121 C 0.85079 0.94971 0.91572 0.0
C2122 C 0.84855 0.96932 0.92491 0.0
H2123 H 0.8562 0.04468 0.90008 0.0
H2124 H 0.86153 0.0171 0.89799 0.0
H2125 H 0.83924 0.02794 0.88491 0.0
H2126 H 0.82214 -0.00676 0.88549 0.0
H2127 H 0.82688 0.95916 0.869 0.0
H2128 H 0.73363 0.67149 0.93828 0.0
H2129 H 0.74162 0.70374 0.91895 0.0
H2130 H 0.8074 0.69031 0.9219 0.0
H2131 H 0.7996 0.65813 0.94098 0.0
H2132 H 0.76618 0.73513 0.93707 0.0
H2133 H 0.80036 0.71058 0.86171 0.0
H2134 H 0.7844 0.69324 0.87761 0.0
H2135 H 0.81165 0.69744 0.88367 0.0
C2136 C 0.74974 0.6752 0.93438 0.0
C2137 C 0.76602 0.66243 0.94127 0.0
C2138 C 0.75426 0.69356 0.92333 0.0
C2139 C 0.77506 0.69921 0.91879 0.0
C2140 C 0.79122 0.68598 0.92483 0.0
H2141 H 0.85418 0.80348 0.89449 0.0
H2142 H 0.83714 0.76928 0.89949 0.0
C2143 C 0.78674 0.66771 0.93593 0.0
C2144 C 0.7803 0.72019 0.91057 0.0
H2145 H 0.80957 0.74545 0.87355 0.0
C2146 C 0.77526 0.7375 0.92293 0.0
C2147 C 0.79225 0.72309 0.89221 0.0
C2148 C 0.79731 0.7051 0.87793 0.0
C2149 C 0.78295 0.75757 0.91812 0.0
C2150 C 0.79563 0.76035 0.90022 0.0
C2151 C 0.7999 0.74319 0.88731 0.0
C2152 C 0.80575 0.78071 0.89551 0.0
C2153 C 0.77842 0.77537 0.93289 0.0
C2154 C 0.79369 0.79827 0.89125 0.0
C2155 C 0.80333 0.81784 0.88864 0.0
C2156 C 0.82521 0.82008 0.89004 0.0
C2157 C 0.83729 0.80228 0.8935 0.0
C2158 C 0.82761 0.78274 0.89625 0.0
H2159 H 0.77216 0.76971 0.9481 0.0
H2160 H 0.79277 0.78496 0.93591 0.0
H2161 H 0.7666 0.78564 0.92572 0.0
H2162 H 0.77682 0.79689 0.89025 0.0
H2163 H 0.79361 0.83121 0.88563 0.0
H2164 H 0.24202 0.8141 0.0478 0.0
H2165 H 0.24774 0.78883 0.07601 0.0
H2166 H 0.31425 0.79331 0.06558 0.0
H2167 H 0.30875 0.81824 0.03735 0.0
H2168 H 0.26929 0.7502 0.06714 0.0
H2169 H 0.30762 0.7957 0.13065 0.0
H2170 H 0.29102 0.80747 0.11116 0.0
H2171 H 0.31776 0.80173 0.10513 0.0
C2172 C 0.25788 0.80994 0.05177 0.0
C2173 C 0.27495 0.81799 0.04027 0.0
C2174 C 0.26109 0.7956 0.0679 0.0
C2175 C 0.28141 0.78955 0.07304 0.0
C2176 C 0.29848 0.79816 0.0621 0.0
H2177 H 0.36282 0.7029 0.11487 0.0
H2178 H 0.34222 0.73383 0.10822 0.0
C2179 C 0.29529 0.81221 0.04583 0.0
C2180 C 0.28499 0.77211 0.0876 0.0
H2181 H 0.31532 0.75883 0.12919 0.0
C2182 C 0.27882 0.75199 0.08111 0.0
C2183 C 0.29739 0.77469 0.10573 0.0
C2184 C 0.30368 0.7961 0.11372 0.0
C2185 C 0.28652 0.73418 0.09104 0.0
C2186 C 0.30023 0.73673 0.10833 0.0
C2187 C 0.30487 0.75692 0.11592 0.0
C2188 C 0.31257 0.71907 0.11629 0.0
C2189 C 0.28142 0.71297 0.08169 0.0
C2190 C 0.30284 0.70077 0.12392 0.0
C2191 C 0.31458 0.68287 0.12734 0.0
C2192 C 0.33624 0.68319 0.12359 0.0
C2193 C 0.34614 0.70209 0.11775 0.0
C2194 C 0.33438 0.71983 0.11402 0.0
H2195 H 0.27355 0.71416 0.06625 0.0
H2196 H 0.29585 0.70378 0.07968 0.0
H2197 H 0.27079 0.70418 0.09234 0.0
H2198 H 0.28609 0.70005 0.12631 0.0
H2199 H 0.30659 0.6686 0.13223 0.0
H2200 H 0.92373 0.46665 0.80687 0.0
H2201 H 0.95271 0.4835 0.82595 0.0
H2202 H 0.93183 0.54403 0.80588 0.0
H2203 H 0.90284 0.52746 0.78694 0.0
H2204 H 0.98275 0.50802 0.80448 0.0
H2205 H 0.94606 0.55357 0.86802 0.0
H2206 H 0.9328 0.53199 0.85498 0.0
H2207 H 0.93439 0.55728 0.84275 0.0
C2208 C 0.92504 0.48357 0.8069 0.0
C2209 C 0.91109 0.49571 0.79526 0.0
C2210 C 0.94158 0.49315 0.81781 0.0
C2211 C 0.94424 0.51499 0.81748 0.0
C2212 C 0.92981 0.52718 0.80666 0.0
H2213 H 0.04153 0.60652 0.84108 0.0
H2214 H 0.00845 0.58768 0.83437 0.0
C2215 C 0.91335 0.51764 0.79568 0.0
C2216 C 0.96348 0.5249 0.82601 0.0
H2217 H 0.98149 0.56279 0.8595 0.0
C2218 C 0.98255 0.51976 0.81674 0.0
C2219 C 0.96304 0.54039 0.84179 0.0
C2220 C 0.94299 0.54604 0.85262 0.0
C2221 C 0.00118 0.5302 0.82232 0.0
C2222 C 0.00075 0.54585 0.83797 0.0
C2223 C 0.98172 0.55077 0.84752 0.0
C2224 C 0.01992 0.55757 0.84414 0.0
C2225 C 0.02099 0.52496 0.81078 0.0
C2226 C 0.03701 0.54697 0.85245 0.0
C2227 C 0.05591 0.55758 0.85605 0.0
C2228 C 0.05796 0.57909 0.85168 0.0
C2229 C 0.04045 0.58994 0.84448 0.0
C2230 C 0.02156 0.57922 0.84068 0.0
H2231 H 0.01766 0.51658 0.79587 0.0
H2232 H 0.03036 0.53932 0.80726 0.0
H2233 H 0.03062 0.51463 0.8207 0.0
H2234 H 0.03588 0.53035 0.85567 0.0
H2235 H 0.06901 0.54886 0.86198 0.0
H2236 H 0.22978 0.15976 0.5665 0.0
H2237 H 0.2103 0.18405 0.58819 0.0
H2238 H 0.15395 0.16882 0.55383 0.0
H2239 H 0.17326 0.14433 0.53217 0.0
H2240 H 0.19282 0.21713 0.56577 0.0
H2241 H 0.13269 0.17682 0.61444 0.0
H2242 H 0.15567 0.16385 0.60485 0.0
H2243 H 0.13384 0.16808 0.58774 0.0
C2244 C 0.2131 0.16107 0.56398 0.0
C2245 C 0.2031 0.15042 0.54741 0.0
C2246 C 0.20199 0.17488 0.57646 0.0
C2247 C 0.1807 0.17815 0.57264 0.0
C2248 C 0.17029 0.16623 0.55727 0.0
H2249 H 0.09534 0.27865 0.58658 0.0
H2250 H 0.1113 0.24425 0.58294 0.0
C2251 C 0.1814 0.15237 0.54478 0.0
C2252 C 0.17068 0.19682 0.58143 0.0
H2253 H 0.12862 0.21362 0.60913 0.0
C2254 C 0.17899 0.21639 0.57557 0.0
C2255 C 0.15245 0.19569 0.59383 0.0
C2256 C 0.14318 0.17499 0.60076 0.0
C2257 C 0.16922 0.23493 0.58119 0.0
C2258 C 0.15094 0.2339 0.59361 0.0
C2259 C 0.14273 0.21433 0.59976 0.0
C2260 C 0.13978 0.25312 0.59929 0.0
C2261 C 0.17808 0.25539 0.57293 0.0
C2262 C 0.15016 0.2691 0.61046 0.0
C2263 C 0.14133 0.2888 0.61213 0.0
C2264 C 0.12173 0.29264 0.60312 0.0
C2265 C 0.11053 0.2761 0.59355 0.0
C2266 C 0.11958 0.25646 0.59154 0.0
H2267 H 0.18875 0.25297 0.55948 0.0
H2268 H 0.16542 0.2659 0.56786 0.0
H2269 H 0.18719 0.26339 0.58548 0.0
H2270 H 0.16557 0.26665 0.61697 0.0
H2271 H 0.15009 0.3012 0.61995 0.0
H2272 H 0.06008 0.00108 0.80581 0.0
H2273 H 0.0285 -0.00653 0.82627 0.0
H2274 H 0.04134 0.92751 0.82338 0.0
H2275 H 0.07284 0.93494 0.80316 0.0
H2276 H -0.00333 0.96922 0.80883 0.0
H2277 H 0.02203 0.93467 0.88376 0.0
H2278 H 0.03928 0.95047 0.8676 0.0
H2279 H 0.03478 0.92321 0.86168 0.0
C2280 C 0.05642 0.98502 0.80999 0.0
C2281 C 0.06876 0.96857 0.80273 0.0
C2282 C 0.03844 0.98071 0.8217 0.0
C2283 C 0.03277 0.95997 0.82652 0.0
C2284 C 0.04569 0.94366 0.82022 0.0
H2285 H 0.92957 0.88017 0.85082 0.0
H2286 H 0.96352 0.89772 0.84603 0.0
C2287 C 0.06357 0.94792 0.80847 0.0
C2288 C 0.0119 0.95489 0.83508 0.0
H2289 H 0.98708 0.92525 0.8721 0.0
C2290 C -0.00554 0.96004 0.82294 0.0
C2291 C 0.0092 0.94281 0.8534 0.0
C2292 C 0.02732 0.93764 0.86747 0.0
C2293 C 0.97448 0.95225 0.82786 0.0
C2294 C 0.9719 0.93936 0.84567 0.0
C2295 C -0.01082 0.93507 0.85841 0.0
C2296 C 0.95169 0.92893 0.85031 0.0
C2297 C 0.95655 0.95682 0.81325 0.0
C2298 C 0.93397 0.94072 0.85467 0.0
C2299 C 0.91454 0.93079 0.85714 0.0
C2300 C 0.91258 0.90888 0.85553 0.0
C2301 C 0.93054 0.89707 0.85198 0.0
C2302 C 0.94994 0.90705 0.84935 0.0
H2303 H 0.96205 0.96334 0.79808 0.0
H2304 H 0.94707 0.94243 0.8101 0.0
H2305 H 0.94624 0.96847 0.82063 0.0
H2306 H 0.93512 0.9576 0.85585 0.0
H2307 H 0.90104 0.94029 0.86024 0.0
H2308 H 0.73715 0.30772 0.41921 0.0
H2309 H 0.71546 0.28117 0.40188 0.0
H2310 H 0.66161 0.30183 0.43621 0.0
H2311 H 0.6834 0.32807 0.45417 0.0
H2312 H 0.6666 0.26127 0.4405 0.0
H2313 H 0.67248 0.27984 0.35636 0.0
H2314 H 0.6979 0.27827 0.36803 0.0
H2315 H 0.68031 0.29831 0.37642 0.0
C2316 C 0.7206 0.30694 0.42277 0.0
C2317 C 0.71203 0.31991 0.43818 0.0
C2318 C 0.70816 0.29184 0.41269 0.0
C2319 C 0.68683 0.28969 0.41751 0.0
C2320 C 0.67802 0.30328 0.43217 0.0
H2321 H 0.60296 0.18378 0.38618 0.0
H2322 H 0.6151 0.21953 0.39394 0.0
C2323 C 0.6905 0.31825 0.44244 0.0
C2324 C 0.67452 0.27157 0.40936 0.0
H2325 H 0.66325 0.24384 0.36492 0.0
C2326 C 0.66546 0.25772 0.42394 0.0
C2327 C 0.67308 0.2669 0.38775 0.0
C2328 C 0.68128 0.28176 0.37126 0.0
C2329 C 0.65596 0.23884 0.41757 0.0
C2330 C 0.65546 0.23374 0.39609 0.0
C2331 C 0.66379 0.24785 0.3814 0.0
C2332 C 0.64776 0.21305 0.38895 0.0
C2333 C 0.64737 0.22398 0.4339 0.0
C2334 C 0.66214 0.19785 0.38313 0.0
C2335 C 0.65533 0.17742 0.37884 0.0
C2336 C 0.63398 0.17192 0.38019 0.0
C2337 C 0.61951 0.18749 0.38509 0.0
C2338 C 0.62638 0.2079 0.38951 0.0
H2339 H 0.65095 0.22935 0.45007 0.0
H2340 H 0.63014 0.22255 0.43215 0.0
H2341 H 0.65392 0.20816 0.43168 0.0
H2342 H 0.67872 0.20161 0.38266 0.0
H2343 H 0.66685 0.16585 0.37491 0.0
H2344 H 0.90942 0.48511 0.688 0.0
H2345 H 0.93425 0.47959 0.65939 0.0
H2346 H 0.9297 0.41292 0.66932 0.0
H2347 H 0.90515 0.41824 0.69781 0.0
H2348 H 0.97239 0.4595 0.66762 0.0
H2349 H 0.92855 0.41825 0.60501 0.0
H2350 H 0.91599 0.43427 0.62447 0.0
H2351 H 0.92277 0.40771 0.6304 0.0
C2352 C 0.91342 0.46927 0.68378 0.0
C2353 C 0.90553 0.4521 0.69526 0.0
C2354 C 0.9275 0.46616 0.66741 0.0
C2355 C 0.93348 0.44585 0.66206 0.0
C2356 C 0.92489 0.42869 0.6729 0.0
H2357 H 0.02224 0.36469 0.62597 0.0
H2358 H -0.00909 0.38507 0.63144 0.0
C2359 C 0.91107 0.43178 0.68936 0.0
C2360 C 0.95107 0.44235 0.64767 0.0
H2361 H 0.96556 0.41033 0.60783 0.0
C2362 C 0.97097 0.44931 0.6541 0.0
C2363 C 0.949 0.42911 0.63008 0.0
C2364 C 0.92788 0.42207 0.62195 0.0
C2365 C -0.01095 0.44152 0.64481 0.0
C2366 C 0.98702 0.42686 0.62828 0.0
C2367 C 0.96706 0.42147 0.62058 0.0
C2368 C 0.005 0.41443 0.62136 0.0
C2369 C 0.01004 0.44758 0.65411 0.0
C2370 C 0.02307 0.42404 0.61313 0.0
C2371 C 0.04117 0.41247 0.61036 0.0
C2372 C 0.0413 0.39106 0.61542 0.0
C2373 C 0.02269 0.38118 0.62209 0.0
C2374 C 0.00473 0.3928 0.62512 0.0
H2375 H 0.00852 0.45644 0.66897 0.0
H2376 H 0.01941 0.43346 0.65722 0.0
H2377 H 0.01882 0.45762 0.64289 0.0
H2378 H 0.02342 0.44062 0.60965 0.0
H2379 H 0.0552 0.42041 0.6048 0.0
H2380 H 0.57789 0.50735 0.16813 0.0
H2381 H 0.55298 0.52287 0.14398 0.0
H2382 H 0.56046 0.58226 0.17548 0.0
H2383 H 0.58559 0.56696 0.19948 0.0
H2384 H 0.51757 0.5364 0.16319 0.0
H2385 H 0.55128 0.60032 0.11485 0.0
H2386 H 0.56703 0.58008 0.12628 0.0
H2387 H 0.55905 0.60202 0.1418 0.0
C2388 C 0.5748 0.5239 0.16944 0.0
C2389 C 0.58335 0.53586 0.18594 0.0
C2390 C 0.56065 0.53276 0.15556 0.0
C2391 C 0.5549 0.5537 0.15793 0.0
C2392 C 0.56495 0.56617 0.17313 0.0
H2393 H 0.44921 0.62967 0.14855 0.0
H2394 H 0.48439 0.61536 0.14974 0.0
C2395 C 0.57918 0.55734 0.18698 0.0
C2396 C 0.5354 0.56101 0.14819 0.0
H2397 H 0.51411 0.60167 0.12156 0.0
C2398 C 0.51682 0.55039 0.15364 0.0
C2399 C 0.53452 0.5794 0.13602 0.0
C2400 C 0.55407 0.59102 0.12923 0.0
C2401 C 0.49728 0.55829 0.14835 0.0
C2402 C 0.49632 0.57705 0.13668 0.0
C2403 C 0.51492 0.58725 0.13044 0.0
C2404 C 0.4761 0.58714 0.13264 0.0
C2405 C 0.47791 0.54716 0.15653 0.0
C2406 C 0.46003 0.57636 0.12196 0.0
C2407 C 0.43984 0.58425 0.12171 0.0
C2408 C 0.43557 0.60329 0.13167 0.0
C2409 C 0.45205 0.61487 0.14089 0.0
C2410 C 0.47216 0.60678 0.14148 0.0
H2411 H 0.48162 0.53588 0.16916 0.0
H2412 H 0.46655 0.55851 0.16274 0.0
H2413 H 0.47029 0.53827 0.14361 0.0
H2414 H 0.4629 0.56142 0.11461 0.0
H2415 H 0.42749 0.57523 0.1141 0.0
H2416 H 0.55588 0.7146 0.83622 0.0
H2417 H 0.57795 0.69788 0.81009 0.0
H2418 H 0.52308 0.67014 0.78115 0.0
H2419 H 0.50107 0.68604 0.8077 0.0
H2420 H 0.55484 0.64399 0.78001 0.0
H2421 H 0.58165 0.72239 0.7524 0.0
H2422 H 0.58815 0.71697 0.77913 0.0
H2423 H 0.56118 0.71902 0.77148 0.0
C2424 C 0.54859 0.70457 0.82452 0.0
C2425 C 0.52675 0.70179 0.82382 0.0
C2426 C 0.56119 0.69521 0.8095 0.0
C2427 C 0.55209 0.68334 0.79328 0.0
C2428 C 0.53042 0.6794 0.79342 0.0
H2429 H 0.58789 0.66314 0.66682 0.0
H2430 H 0.57682 0.67704 0.70061 0.0
C2431 C 0.51785 0.68846 0.80863 0.0
C2432 C 0.56474 0.67601 0.77543 0.0
H2433 H 0.59493 0.69322 0.73471 0.0
C2434 C 0.56374 0.65471 0.77017 0.0
C2435 C 0.57609 0.69013 0.76246 0.0
C2436 C 0.57672 0.71342 0.76648 0.0
C2437 C 0.57327 0.64717 0.75201 0.0
C2438 C 0.5848 0.66125 0.73916 0.0
C2439 C 0.58627 0.68246 0.74471 0.0
C2440 C 0.5939 0.65458 0.71899 0.0
C2441 C 0.56992 0.62443 0.74625 0.0
C2442 C 0.60794 0.638 0.71815 0.0
C2443 C 0.61396 0.62982 0.69888 0.0
C2444 C 0.60648 0.63847 0.68017 0.0
C2445 C 0.59388 0.65619 0.68101 0.0
C2446 C 0.58753 0.6641 0.7003 0.0
H2447 H 0.55645 0.61727 0.75475 0.0
H2448 H 0.56711 0.62258 0.7292 0.0
H2449 H 0.58406 0.61557 0.75047 0.0
H2450 H 0.61361 0.63088 0.73238 0.0
H2451 H 0.62396 0.61633 0.69862 0.0
H2452 H 0.5339 0.27926 0.08106 0.0
H2453 H 0.55438 0.29376 0.05239 0.0
H2454 H 0.53387 0.35579 0.06815 0.0
H2455 H 0.51219 0.34103 0.09617 0.0
H2456 H 0.52722 0.35003 0.02999 0.0
H2457 H 0.60742 0.32387 0.04294 0.0
H2458 H 0.59046 0.30134 0.04425 0.0
H2459 H 0.58791 0.3221 0.06323 0.0
C2460 C 0.53419 0.29605 0.07878 0.0
C2461 C 0.52138 0.30902 0.09073 0.0
C2462 C 0.54611 0.30439 0.06246 0.0
C2463 C 0.54599 0.32596 0.05822 0.0
C2464 C 0.53425 0.33912 0.07111 0.0
H2465 H 0.61537 0.35804 0.94387 0.0
H2466 H 0.60516 0.35759 0.98074 0.0
C2467 C 0.52189 0.3307 0.08711 0.0
C2468 C 0.55541 0.33404 0.03857 0.0
H2469 H 0.59694 0.3275 0.00604 0.0
C2470 C 0.5427 0.34554 0.02501 0.0
C2471 C 0.57577 0.32873 0.03208 0.0
C2472 C 0.59119 0.31855 0.04657 0.0
C2473 C 0.54917 0.35048 0.00467 0.0
C2474 C 0.56846 0.34288 -0.00263 0.0
C2475 C 0.58186 0.33282 0.01141 0.0
C2476 C 0.5744 0.34402 0.97501 0.0
C2477 C 0.53509 0.36359 -0.00876 0.0
C2478 C 0.56062 0.33632 0.95955 0.0
C2479 C 0.56624 0.33695 0.9385 0.0
C2480 C 0.58604 0.34465 0.93259 0.0
C2481 C 0.60003 0.35191 0.94806 0.0
C2482 C 0.59421 0.35171 0.96909 0.0
H2483 H 0.526 0.37459 0.00096 0.0
H2484 H 0.54411 0.37278 0.97948 0.0
H2485 H 0.52369 0.35321 0.98296 0.0
H2486 H 0.54556 0.32956 0.96377 0.0
H2487 H 0.55527 0.33102 0.9269 0.0
H2488 H 0.98403 0.27657 0.292 0.0
H2489 H 0.96009 0.29232 0.26688 0.0
H2490 H 0.91325 0.24511 0.28126 0.0
H2491 H 0.93693 0.22942 0.30659 0.0
H2492 H 0.94103 0.27412 0.23179 0.0
H2493 H 0.88235 0.30041 0.2897 0.0
H2494 H 0.90828 0.29251 0.29711 0.0
H2495 H 0.8885 0.27312 0.291 0.0
C2496 C 0.96866 0.26952 0.28977 0.0
C2497 C 0.96228 0.25186 0.30134 0.0
C2498 C 0.95501 0.27854 0.27547 0.0
C2499 C 0.93482 0.27008 0.27259 0.0
C2500 C 0.92862 0.25212 0.28366 0.0
H2501 H 0.85831 0.30247 0.16574 0.0
H2502 H 0.87321 0.28278 0.19473 0.0
C2503 C 0.94222 0.24311 0.29798 0.0
C2504 C 0.92042 0.27986 0.25764 0.0
H2505 H 0.87393 0.305 0.25389 0.0
C2506 C 0.92633 0.28081 0.23658 0.0
C2507 C 0.90137 0.28871 0.26409 0.0
C2508 C 0.89476 0.28885 0.28673 0.0
C2509 C 0.91369 0.29047 0.22169 0.0
C2510 C 0.89447 0.29901 0.22805 0.0
C2511 C 0.88853 0.2981 0.24911 0.0
C2512 C 0.88121 0.31023 0.21308 0.0
C2513 C 0.92131 0.29202 0.19939 0.0
C2514 C 0.87957 0.33201 0.2146 0.0
C2515 C 0.87096 0.34332 0.19816 0.0
C2516 C 0.86401 0.33294 0.17995 0.0
C2517 C 0.86385 0.31093 0.17942 0.0
C2518 C 0.87237 0.29966 0.19592 0.0
H2519 H 0.93819 0.28846 0.19804 0.0
H2520 H 0.91241 0.28063 0.18955 0.0
H2521 H 0.91875 0.30792 0.19301 0.0
H2522 H 0.88623 0.34037 0.22786 0.0
H2523 H 0.87116 0.36024 0.19912 0.0
H2524 H 0.92046 0.74482 0.57676 0.0
H2525 H 0.90897 0.72341 0.54711 0.0
H2526 H 0.96183 0.68338 0.55564 0.0
H2527 H 0.97344 0.70459 0.58548 0.0
H2528 H 0.93426 0.71798 0.51122 0.0
H2529 H 0.9115 0.64207 0.54792 0.0
H2530 H 0.91357 0.6662 0.56259 0.0
H2531 H 0.93674 0.65263 0.55521 0.0
C2532 C 0.9295 0.73129 0.57257 0.0
C2533 C 0.94794 0.72648 0.58343 0.0
C2534 C 0.9229 0.71908 0.55563 0.0
C2535 C 0.93449 0.70179 0.54933 0.0
C2536 C 0.95251 0.6965 0.5605 0.0
H2537 H 0.92843 0.64772 0.42441 0.0
H2538 H 0.94101 0.66104 0.45815 0.0
C2539 C 0.95917 0.70872 0.57746 0.0
C2540 C 0.92869 0.69049 0.52998 0.0
H2541 H 0.91178 0.64324 0.51085 0.0
C2542 C 0.92937 0.70163 0.51111 0.0
C2543 C 0.92229 0.66921 0.53001 0.0
C2544 C 0.92079 0.65679 0.55001 0.0
C2545 C 0.92372 0.69206 0.49217 0.0
C2546 C 0.9175 0.67073 0.49214 0.0
C2547 C 0.9168 0.65954 0.511 0.0
C2548 C 0.91052 0.66027 0.47272 0.0
C2549 C 0.92394 0.70497 0.4724 0.0
C2550 C 0.88937 0.65481 0.47012 0.0
C2551 C 0.88211 0.64725 0.45092 0.0
C2552 C 0.89594 0.64497 0.43401 0.0
C2553 C 0.91734 0.64947 0.43704 0.0
C2554 C 0.92457 0.65709 0.45627 0.0
H2555 H 0.92536 0.722 0.47573 0.0
H2556 H 0.93746 0.70047 0.46264 0.0
H2557 H 0.90947 0.70201 0.46315 0.0
H2558 H 0.87834 0.65715 0.48272 0.0
H2559 H 0.86557 0.64373 0.44918 0.0
H2560 H 0.47908 0.30584 0.66173 0.0
H2561 H 0.49848 0.31977 0.69175 0.0
H2562 H 0.54423 0.27158 0.68464 0.0
H2563 H 0.52512 0.25764 0.65443 0.0
H2564 H 0.50588 0.29724 0.72805 0.0
H2565 H 0.58032 0.32493 0.69204 0.0
H2566 H 0.55695 0.31956 0.6769 0.0
H2567 H 0.57291 0.29843 0.68564 0.0
C2568 C 0.49341 0.29834 0.66635 0.0
C2569 C 0.50051 0.28058 0.65571 0.0
C2570 C 0.50447 0.30634 0.6835 0.0
C2571 C 0.52286 0.29682 0.69025 0.0
C2572 C 0.53027 0.27938 0.67942 0.0
H2573 H 0.57494 0.30506 0.81522 0.0
H2574 H 0.56141 0.29293 0.78145 0.0
C2575 C 0.51924 0.27137 0.66224 0.0
C2576 C 0.5333 0.3041 0.70962 0.0
H2577 H 0.57928 0.32379 0.72925 0.0
C2578 C 0.5219 0.30311 0.72831 0.0
C2579 C 0.55415 0.31184 0.70982 0.0
C2580 C 0.56679 0.31396 0.69001 0.0
C2581 C 0.53087 0.30949 0.74732 0.0
C2582 C 0.55188 0.31671 0.74762 0.0
C2583 C 0.56324 0.31798 0.72891 0.0
C2584 C 0.562 0.32364 0.76725 0.0
C2585 C 0.5177 0.30875 0.76688 0.0
C2586 C 0.56747 0.34478 0.77008 0.0
C2587 C 0.57521 0.35178 0.78932 0.0
C2588 C 0.57766 0.33771 0.80602 0.0
C2589 C 0.57303 0.31634 0.80277 0.0
C2590 C 0.56527 0.30938 0.78352 0.0
H2591 H 0.50075 0.30716 0.76324 0.0
H2592 H 0.5222 0.29508 0.77646 0.0
H2593 H 0.5203 0.32308 0.77645 0.0
H2594 H 0.5651 0.35597 0.75762 0.0
H2595 H 0.57878 0.36831 0.79124 0.0
H2596 H -0.00706 0.2982 0.93017 0.0
H2597 H 0.97458 0.31862 0.95641 0.0
H2598 H 0.93444 0.26538 0.96992 0.0
H2599 H 0.95288 0.24467 0.94377 0.0
H2600 H 0.93122 0.32757 0.95763 0.0
H2601 H 0.9581 0.28372 0.02742 0.0
H2602 H 0.97053 0.28157 0.0022 0.0
H2603 H 0.9463 0.26783 0.00725 0.0
C2604 C 0.98028 0.29077 0.93881 0.0
C2605 C 0.97436 0.26982 0.935 0.0
C2606 C 0.96979 0.30249 0.95371 0.0
C2607 C 0.95331 0.29342 0.9651 0.0
C2608 C 0.94734 0.27251 0.9614 0.0
H2609 H 0.85873 0.34829 0.04136 0.0
H2610 H 0.87869 0.33553 0.01158 0.0
C2611 C 0.95785 0.26074 0.94648 0.0
C2612 C 0.94233 0.30597 0.9808 0.0
H2613 H 0.932 0.30892 0.0329 0.0
C2614 C 0.93142 0.32361 0.97412 0.0
C2615 C 0.94294 0.30081 0.00224 0.0
C2616 C 0.95524 0.28256 0.01031 0.0
C2617 C 0.92068 0.33609 -0.01158 0.0
C2618 C 0.92079 0.33055 0.00979 0.0
C2619 C 0.93199 0.3131 0.01646 0.0
C2620 C 0.90892 0.34209 0.02564 0.0
C2621 C 0.90949 0.35513 0.98062 0.0
C2622 C 0.91936 0.35043 0.04314 0.0
C2623 C 0.90803 0.35751 0.06023 0.0
C2624 C 0.88608 0.35631 0.06008 0.0
C2625 C 0.87564 0.34944 0.04189 0.0
C2626 C 0.88701 0.34222 0.02483 0.0
H2627 H 0.91556 0.36037 0.96518 0.0
H2628 H 0.89261 0.35124 0.97879 0.0
H2629 H 0.91106 0.36829 -0.00809 0.0
H2630 H 0.93629 0.35045 0.04399 0.0
H2631 H 0.91649 0.36293 0.07397 0.0
H2632 H 0.89413 0.70956 0.14285 0.0
H2633 H 0.88067 0.68789 0.17158 0.0
H2634 H 0.9438 0.67227 0.18864 0.0
H2635 H 0.95717 0.69275 0.15928 0.0
H2636 H 0.91848 0.64057 0.19675 0.0
H2637 H 0.88392 0.71325 0.22834 0.0
H2638 H 0.87319 0.70498 0.2037 0.0
H2639 H 0.90019 0.71333 0.20541 0.0
C2640 C 0.90505 0.70106 0.15246 0.0
C2641 C 0.92669 0.70305 0.14909 0.0
C2642 C 0.89737 0.68883 0.16894 0.0
C2643 C 0.91127 0.6791 0.18271 0.0
C2644 C 0.93277 0.67978 0.17833 0.0
H2645 H 0.90513 0.66609 0.31404 0.0
H2646 H 0.90913 0.67567 0.27733 0.0
C2647 C 0.94041 0.69151 0.16154 0.0
C2648 C 0.90397 0.67008 0.2028 0.0
H2649 H 0.88096 0.68319 0.24896 0.0
C2650 C 0.91013 0.6498 0.20814 0.0
C2651 C 0.89328 0.68229 0.21772 0.0
C2652 C 0.88742 0.70472 0.21364 0.0
C2653 C 0.90674 0.64172 0.22828 0.0
C2654 C 0.89615 0.654 0.24318 0.0
C2655 C 0.88908 0.67384 0.23749 0.0
C2656 C 0.89385 0.64758 0.26532 0.0
C2657 C 0.9156 0.62067 0.23368 0.0
C2658 C 0.88388 0.62862 0.2708 0.0
C2659 C 0.88202 0.6229 0.29181 0.0
C2660 C 0.88957 0.63633 0.30765 0.0
C2661 C 0.89913 0.65547 0.30215 0.0
C2662 C 0.90139 0.66095 0.28119 0.0
H2663 H 0.92774 0.61587 0.22232 0.0
H2664 H 0.92261 0.62082 0.24957 0.0
H2665 H 0.90286 0.60866 0.23332 0.0
H2666 H 0.8774 0.61834 0.25889 0.0
H2667 H 0.87431 0.60818 0.29569 0.0
H2668 H 0.51753 0.67169 0.4011 0.0
H2669 H 0.53348 0.64678 0.42517 0.0
H2670 H 0.56358 0.69803 0.45821 0.0
H2671 H 0.54863 0.72276 0.43365 0.0
H2672 H 0.58867 0.66612 0.45612 0.0
H2673 H 0.51036 0.63753 0.48236 0.0
H2674 H 0.51581 0.6332 0.45521 0.0
H2675 H 0.51359 0.65948 0.46496 0.0
C2676 C 0.52781 0.67756 0.41334 0.0
C2677 C 0.53169 0.69916 0.41567 0.0
C2678 C 0.53676 0.66333 0.42717 0.0
C2679 C 0.54923 0.67057 0.44386 0.0
C2680 C 0.55392 0.69206 0.44552 0.0
H2681 H 0.56625 0.63398 0.56808 0.0
H2682 H 0.5537 0.64339 0.5334 0.0
C2683 C 0.54535 0.70621 0.43147 0.0
C2684 C 0.55663 0.65622 0.46039 0.0
H2685 H 0.53947 0.62428 0.4998 0.0
C2686 C 0.57796 0.65678 0.46557 0.0
C2687 C 0.54257 0.64412 0.47273 0.0
C2688 C 0.51929 0.64362 0.46871 0.0
C2689 C 0.58548 0.64669 0.48345 0.0
C2690 C 0.57136 0.63488 0.49601 0.0
C2691 C 0.55025 0.63327 0.4901 0.0
C2692 C 0.57754 0.62652 0.51669 0.0
C2693 C 0.60816 0.65005 0.48943 0.0
C2694 C 0.59461 0.61319 0.51886 0.0
C2695 C 0.60212 0.60819 0.53874 0.0
C2696 C 0.59228 0.61592 0.55673 0.0
C2697 C 0.57417 0.6278 0.55451 0.0
C2698 C 0.56698 0.63318 0.53467 0.0
H2699 H 0.61552 0.66331 0.48077 0.0
H2700 H 0.60979 0.65321 0.50644 0.0
H2701 H 0.61699 0.63576 0.48566 0.0
H2702 H 0.60257 0.60728 0.50522 0.0
H2703 H 0.61594 0.59872 0.54005 0.0
H2704 H 0.83058 0.55957 0.73997 0.0
H2705 H 0.80462 0.58388 0.72659 0.0
H2706 H 0.80009 0.54837 0.66935 0.0
H2707 H 0.82596 0.52402 0.68251 0.0
H2708 H 0.79661 0.59609 0.66659 0.0
H2709 H 0.74424 0.55502 0.72366 0.0
H2710 H 0.76846 0.56638 0.733 0.0
H2711 H 0.76886 0.54422 0.71578 0.0
C2712 C 0.82449 0.55728 0.7243 0.0
C2713 C 0.82998 0.53969 0.71242 0.0
C2714 C 0.80971 0.57119 0.7167 0.0
C2715 C 0.80037 0.56771 0.69713 0.0
C2716 C 0.8072 0.55127 0.6845 0.0
H2717 H 0.69835 0.586 0.6183 0.0
H2718 H 0.7329 0.58432 0.63419 0.0
C2719 C 0.82189 0.53732 0.6921 0.0
C2720 C 0.78124 0.5787 0.69113 0.0
H2721 H 0.72862 0.57649 0.69899 0.0
C2722 C 0.78174 0.59221 0.67388 0.0
C2723 C 0.76197 0.57363 0.70081 0.0
C2724 C 0.76065 0.55896 0.71929 0.0
C2725 C 0.76322 0.60015 0.66549 0.0
C2726 C 0.74379 0.59382 0.67424 0.0
C2727 C 0.74349 0.58132 0.69226 0.0
C2728 C 0.72357 0.59776 0.66379 0.0
C2729 C 0.76466 0.61491 0.64714 0.0
C2730 C 0.70668 0.60551 0.67524 0.0
C2731 C 0.68673 0.60595 0.66635 0.0
C2732 C 0.68338 0.59875 0.64582 0.0
C2733 C 0.70045 0.59173 0.63413 0.0
C2734 C 0.7203 0.59102 0.64312 0.0
H2735 H 0.77938 0.6244 0.64775 0.0
H2736 H 0.76485 0.60569 0.63242 0.0
H2737 H 0.75122 0.62564 0.64664 0.0
H2738 H 0.70881 0.61063 0.69127 0.0
H2739 H 0.67389 0.61164 0.67567 0.0
H2740 H 0.7471 0.54064 0.93125 0.0
H2741 H 0.72258 0.51293 0.92043 0.0
H2742 H 0.67339 0.54226 0.9553 0.0
H2743 H 0.69805 0.56958 0.96688 0.0
H2744 H 0.67239 0.50176 0.96174 0.0
H2745 H 0.67814 0.51545 0.87667 0.0
H2746 H 0.7034 0.51082 0.8877 0.0
H2747 H 0.6891 0.53355 0.89556 0.0
C2748 C 0.73104 0.54124 0.93652 0.0
C2749 C 0.72447 0.55732 0.94983 0.0
C2750 C 0.71699 0.52548 0.93021 0.0
C2751 C 0.69602 0.5258 0.93665 0.0
C2752 C 0.68947 0.54179 0.95004 0.0
H2753 H 0.61086 0.43747 0.87442 0.0
H2754 H 0.62539 0.47011 0.88882 0.0
C2755 C 0.70358 0.55737 0.95663 0.0
C2756 C 0.68116 0.50903 0.92999 0.0
H2757 H 0.66397 0.48198 0.88716 0.0
C2758 C 0.67031 0.4976 0.94541 0.0
C2759 C 0.678 0.50395 0.90867 0.0
C2760 C 0.6876 0.51676 0.89122 0.0
C2761 C 0.65715 0.48059 0.94012 0.0
C2762 C 0.6554 0.47444 0.91892 0.0
C2763 C 0.66549 0.48649 0.90346 0.0
C2764 C 0.64423 0.45499 0.91236 0.0
C2765 C 0.64527 0.4695 0.95734 0.0
C2766 C 0.64963 0.43566 0.92108 0.0
C2767 C 0.64104 0.41705 0.91315 0.0
C2768 C 0.62733 0.41741 0.89597 0.0
C2769 C 0.62148 0.43676 0.88761 0.0
C2770 C 0.62977 0.45539 0.89582 0.0
H2771 H 0.642 0.48033 0.97049 0.0
H2772 H 0.63022 0.46272 0.9516 0.0
H2773 H 0.65492 0.45668 0.96362 0.0
H2774 H 0.66121 0.43486 0.93341 0.0
H2775 H 0.646 0.40236 0.91977 0.0
H2776 H 0.64927 0.4178 0.23922 0.0
H2777 H 0.67481 0.39941 0.21803 0.0
H2778 H 0.67414 0.44916 0.17259 0.0
H2779 H 0.64861 0.46781 0.19362 0.0
H2780 H 0.67764 0.38838 0.17038 0.0
H2781 H 0.73423 0.44734 0.20304 0.0
H2782 H 0.70909 0.4421 0.21488 0.0
H2783 H 0.71078 0.45703 0.19119 0.0
C2784 C 0.65423 0.42468 0.22453 0.0
C2785 C 0.64726 0.44447 0.21829 0.0
C2786 C 0.66867 0.41405 0.21239 0.0
C2787 C 0.67629 0.42306 0.19391 0.0
C2788 C 0.66831 0.44205 0.18686 0.0
H2789 H 0.77596 0.38602 0.11165 0.0
H2790 H 0.74131 0.3937 0.12542 0.0
C2791 C 0.65385 0.4527 0.19896 0.0
C2792 C 0.69484 0.41432 0.18392 0.0
H2793 H 0.74746 0.42226 0.18004 0.0
C2794 C 0.69293 0.39574 0.17234 0.0
C2795 C 0.71467 0.42396 0.18689 0.0
C2796 C 0.7175 0.44364 0.19977 0.0
C2797 C 0.71059 0.38656 0.16344 0.0
C2798 C 0.73037 0.39632 0.16635 0.0
C2799 C 0.73219 0.41487 0.17794 0.0
C2800 C 0.74968 0.38779 0.15764 0.0
C2801 C 0.70815 0.36639 0.15136 0.0
C2802 C 0.76562 0.38168 0.17125 0.0
C2803 C 0.78544 0.37749 0.16351 0.0
C2804 C 0.78963 0.37951 0.14204 0.0
C2805 C 0.77325 0.38448 0.12829 0.0
C2806 C 0.75341 0.38869 0.13608 0.0
H2807 H 0.69247 0.35898 0.15363 0.0
H2808 H 0.71026 0.36963 0.13443 0.0
H2809 H 0.7203 0.35517 0.15615 0.0
H2810 H 0.76296 0.38103 0.18797 0.0
H2811 H 0.79765 0.37346 0.17448 0.0
H2812 H 0.79833 0.40629 0.47233 0.0
H2813 H 0.81633 0.43845 0.46145 0.0
H2814 H 0.75697 0.46684 0.44881 0.0
H2815 H 0.73878 0.43443 0.45921 0.0
H2816 H 0.78467 0.47347 0.41768 0.0
H2817 H 0.82202 0.49276 0.49367 0.0
H2818 H 0.82801 0.46693 0.48479 0.0
H2819 H 0.80144 0.47321 0.4911 0.0
C2820 C 0.78909 0.41938 0.46726 0.0
C2821 C 0.76714 0.4179 0.46668 0.0
C2822 C 0.7994 0.43781 0.46123 0.0
C2823 C 0.78796 0.45517 0.45483 0.0
C2824 C 0.76606 0.45365 0.45391 0.0
H2825 H 0.83798 0.58072 0.43298 0.0
H2826 H 0.82134 0.54968 0.44857 0.0
C2827 C 0.75571 0.43514 0.45979 0.0
C2828 C 0.79896 0.47459 0.44819 0.0
H2829 H 0.83509 0.51141 0.46381 0.0
C2830 C 0.79557 0.48186 0.42781 0.0
C2831 C 0.81293 0.48566 0.46157 0.0
C2832 C 0.81617 0.47938 0.48407 0.0
C2833 C 0.80622 0.4996 0.42022 0.0
C2834 C 0.82105 0.50999 0.43321 0.0
C2835 C 0.82399 0.50313 0.4538 0.0
C2836 C 0.83341 0.52817 0.4256 0.0
C2837 C 0.80132 0.50718 0.39842 0.0
C2838 C 0.84649 0.52611 0.4082 0.0
C2839 C 0.85589 0.54376 0.39919 0.0
C2840 C 0.85255 0.56373 0.40763 0.0
C2841 C 0.84079 0.56554 0.42608 0.0
C2842 C 0.83123 0.54786 0.43498 0.0
H2843 H 0.78587 0.50116 0.39289 0.0
H2844 H 0.80137 0.52454 0.39775 0.0
H2845 H 0.81339 0.50149 0.38746 0.0
H2846 H 0.84879 0.51093 0.4011 0.0
H2847 H 0.86512 0.54184 0.38516 0.0
H2848 H 0.81139 0.42593 0.74489 0.0
H2849 H 0.77971 0.4067 0.75526 0.0
H2850 H 0.7673 0.45362 0.80194 0.0
H2851 H 0.79874 0.47321 0.79136 0.0
H2852 H 0.7689 0.38956 0.79283 0.0
H2853 H 0.71239 0.45003 0.76991 0.0
H2854 H 0.73941 0.45098 0.76182 0.0
H2855 H 0.73214 0.45995 0.78744 0.0
C2856 C 0.8019 0.43219 0.75734 0.0
C2857 C 0.80745 0.45115 0.76724 0.0
C2858 C 0.78382 0.42117 0.76323 0.0
C2859 C 0.771 0.42895 0.77907 0.0
C2860 C 0.77674 0.44764 0.78931 0.0
H2861 H 0.68264 0.37095 0.85952 0.0
H2862 H 0.71381 0.38241 0.84073 0.0
C2863 C 0.79477 0.45873 0.78336 0.0
C2864 C 0.75183 0.4173 0.78523 0.0
H2865 H 0.69944 0.4228 0.79238 0.0
C2866 C 0.75365 0.39671 0.79251 0.0
C2867 C 0.73192 0.4265 0.78432 0.0
C2868 C 0.72877 0.448 0.77524 0.0
C2869 C 0.73619 0.38542 0.79991 0.0
C2870 C 0.71654 0.39518 0.80039 0.0
C2871 C 0.71456 0.41539 0.79215 0.0
C2872 C 0.69818 0.38554 0.81086 0.0
C2873 C 0.73899 0.36322 0.80724 0.0
C2874 C 0.67898 0.38354 0.80032 0.0
C2875 C 0.66097 0.37725 0.81112 0.0
C2876 C 0.66189 0.37296 0.83267 0.0
C2877 C 0.68135 0.37411 0.84293 0.0
C2878 C 0.69927 0.3805 0.83216 0.0
H2879 H 0.75238 0.35583 0.79924 0.0
H2880 H 0.74237 0.36329 0.82427 0.0
H2881 H 0.7247 0.35348 0.80443 0.0
H2882 H 0.67782 0.38747 0.78389 0.0
H2883 H 0.64624 0.37645 0.80274 0.0
H2884 H 0.84206 0.58322 0.00211 0.0
H2885 H 0.86091 0.56123 0.027 0.0
H2886 H 0.80198 0.53986 0.05294 0.0
H2887 H 0.7834 0.56285 0.02934 0.0
H2888 H 0.82962 0.54255 0.08257 0.0
H2889 H 0.86549 0.50097 0.01523 0.0
H2890 H 0.87295 0.52796 0.01838 0.0
H2891 H 0.84643 0.52095 0.01144 0.0
C2892 C 0.83326 0.574 0.01338 0.0
C2893 C 0.81132 0.57442 0.01369 0.0
C2894 C 0.844 0.56139 0.02749 0.0
C2895 C 0.83286 0.54841 0.04144 0.0
C2896 C 0.81098 0.5497 0.04235 0.0
H2897 H 0.83278 0.42533 0.07012 0.0
H2898 H 0.83479 0.46109 0.05725 0.0
C2899 C 0.80033 0.56275 0.02877 0.0
C2900 C 0.84322 0.53193 0.05377 0.0
H2901 H 0.86727 0.48516 0.04774 0.0
C2902 C 0.83815 0.5301 0.07507 0.0
C2903 C 0.85461 0.51586 0.04397 0.0
C2904 C 0.86011 0.51637 0.021 0.0
C2905 C 0.84191 0.51163 0.08617 0.0
C2906 C 0.85195 0.49501 0.07589 0.0
C2907 C 0.85932 0.49789 0.05542 0.0
C2908 C 0.85149 0.47343 0.08425 0.0
C2909 C 0.8334 0.50946 0.10809 0.0
C2910 C 0.86014 0.46844 0.10378 0.0
C2911 C 0.85846 0.44797 0.11144 0.0
C2912 C 0.84864 0.43222 0.09938 0.0
C2913 C 0.84047 0.43718 0.07969 0.0
C2914 C 0.8417 0.4576 0.0723 0.0
H2915 H 0.82297 0.5225 0.11233 0.0
H2916 H 0.82449 0.49449 0.10984 0.0
H2917 H 0.84658 0.50947 0.11939 0.0
H2918 H 0.86818 0.48027 0.11304 0.0
H2919 H 0.86515 0.44438 0.12657 0.0
H2920 H 0.67361 0.5026 0.30453 0.0
H2921 H 0.70373 0.52277 0.31748 0.0
H2922 H 0.68444 0.57612 0.28142 0.0
H2923 H 0.65475 0.55572 0.26771 0.0
H2924 H 0.7244 0.57027 0.27642 0.0
H2925 H 0.70755 0.56727 0.36103 0.0
H2926 H 0.70829 0.54141 0.35025 0.0
H2927 H 0.68852 0.55922 0.34163 0.0
C2928 C 0.67565 0.5187 0.29956 0.0
C2929 C 0.66182 0.52761 0.28515 0.0
C2930 C 0.6928 0.53027 0.30708 0.0
C2931 C 0.69611 0.5511 0.30075 0.0
C2932 C 0.68213 0.56011 0.28658 0.0
H2933 H 0.79492 0.62198 0.36476 0.0
H2934 H 0.76095 0.61202 0.34984 0.0
C2935 C 0.66518 0.54844 0.27878 0.0
C2936 C 0.71484 0.56302 0.30795 0.0
H2937 H 0.74318 0.5755 0.35153 0.0
C2938 C 0.72836 0.5717 0.29287 0.0
C2939 C 0.71981 0.56529 0.32941 0.0
C2940 C 0.70513 0.558 0.34648 0.0
C2941 C 0.74715 0.5818 0.29862 0.0
C2942 C 0.75289 0.58256 0.31999 0.0
C2943 C 0.73894 0.57468 0.33511 0.0
C2944 C 0.77359 0.59059 0.32708 0.0
C2945 C 0.76055 0.59157 0.28172 0.0
C2946 C 0.79201 0.58212 0.31902 0.0
C2947 C 0.81145 0.58809 0.32725 0.0
C2948 C 0.81274 0.60219 0.34407 0.0
C2949 C 0.79435 0.61098 0.35185 0.0
C2950 C 0.77495 0.60531 0.34335 0.0
H2951 H 0.75091 0.59639 0.26815 0.0
H2952 H 0.76944 0.60546 0.2876 0.0
H2953 H 0.77182 0.57988 0.27602 0.0
H2954 H 0.79135 0.57027 0.30691 0.0
H2955 H 0.82537 0.58091 0.3211 0.0
H2956 H 0.66629 0.37871 0.52864 0.0
H2957 H 0.64456 0.40325 0.54803 0.0
H2958 H 0.70025 0.43427 0.57177 0.0
H2959 H 0.72182 0.4092 0.55362 0.0
H2960 H 0.67101 0.43524 0.59997 0.0
H2961 H 0.63703 0.45979 0.5238 0.0
H2962 H 0.63134 0.43325 0.53124 0.0
H2963 H 0.65781 0.44126 0.52537 0.0
C2964 C 0.67382 0.39049 0.53842 0.0
C2965 C 0.69573 0.39227 0.53939 0.0
C2966 C 0.6614 0.40461 0.54932 0.0
C2967 C 0.67077 0.42106 0.56077 0.0
C2968 C 0.69262 0.42182 0.56294 0.0
H2969 H 0.64759 0.54841 0.5718 0.0
H2970 H 0.65335 0.51207 0.56206 0.0
C2971 C 0.70498 0.40747 0.5525 0.0
C2972 C 0.65844 0.4387 0.56895 0.0
H2973 H 0.6293 0.47998 0.55303 0.0
C2974 C 0.66166 0.44492 0.5898 0.0
C2975 C 0.64629 0.45134 0.55559 0.0
C2976 C 0.643 0.44623 0.53273 0.0
C2977 C 0.65447 0.46415 0.59723 0.0
C2978 C 0.64285 0.47706 0.58368 0.0
C2979 C 0.63826 0.47007 0.56334 0.0
C2980 C 0.63769 0.49891 0.5892 0.0
C2981 C 0.66078 0.47103 0.61899 0.0
C2982 C 0.62655 0.50364 0.60744 0.0
C2983 C 0.62374 0.52448 0.6133 0.0
C2984 C 0.63144 0.54085 0.60066 0.0
C2985 C 0.64149 0.53609 0.58182 0.0
C2986 C 0.64475 0.51531 0.57625 0.0
H2987 H 0.67365 0.46149 0.62539 0.0
H2988 H 0.66595 0.48771 0.61913 0.0
H2989 H 0.64719 0.46922 0.62962 0.0
H2990 H 0.62035 0.49128 0.61732 0.0
H2991 H 0.61563 0.52779 0.62776 0.0
H2992 H 0.7421 0.82017 0.57874 0.0
H2993 H 0.72098 0.79105 0.59256 0.0
H2994 H 0.69584 0.77925 0.53088 0.0
H2995 H 0.71598 0.80914 0.51728 0.0
H2996 H 0.66677 0.77273 0.55887 0.0
H2997 H 0.73826 0.73222 0.58451 0.0
H2998 H 0.73535 0.75703 0.59714 0.0
H2999 H 0.73931 0.75589 0.56927 0.0
C3000 C 0.73184 0.81149 0.56823 0.0
C3001 C 0.7308 0.81669 0.54692 0.0
C3002 C 0.71993 0.79478 0.57608 0.0
C3003 C 0.70737 0.78254 0.56262 0.0
C3004 C 0.70555 0.78837 0.54153 0.0
H3005 H 0.67315 0.65341 0.58137 0.0
H3006 H 0.68889 0.68713 0.57186 0.0
C3007 C 0.71705 0.80543 0.53377 0.0
C3008 C 0.69684 0.76316 0.5702 0.0
H3009 H 0.70595 0.71648 0.59403 0.0
C3010 C 0.67532 0.7604 0.56654 0.0
C3011 C 0.70811 0.74693 0.57987 0.0
C3012 C 0.73156 0.74804 0.58273 0.0
C3013 C 0.66477 0.74179 0.57211 0.0
C3014 C 0.67592 0.72587 0.58242 0.0
C3015 C 0.69738 0.72877 0.5863 0.0
C3016 C 0.66605 0.70556 0.58829 0.0
C3017 C 0.64204 0.73912 0.56611 0.0
C3018 C 0.64809 0.70467 0.60089 0.0
C3019 C 0.6388 0.68539 0.60594 0.0
C3020 C 0.64769 0.66669 0.59901 0.0
C3021 C 0.66602 0.66758 0.58699 0.0
C3022 C 0.67501 0.68684 0.58154 0.0
H3023 H 0.63773 0.74977 0.55313 0.0
H3024 H 0.63836 0.72279 0.56122 0.0
H3025 H 0.63213 0.74297 0.57975 0.0
H3026 H 0.64129 0.71886 0.60685 0.0
H3027 H 0.6248 0.68508 0.61545 0.0
H3028 H 0.20531 0.6431 0.40531 0.0
H3029 H 0.18799 0.66998 0.38477 0.0
H3030 H 0.14319 0.67824 0.43419 0.0
H3031 H 0.1604 0.65145 0.45496 0.0
H3032 H 0.13236 0.68263 0.3819 0.0
H3033 H 0.19513 0.7303 0.42114 0.0
H3034 H 0.20077 0.70476 0.41082 0.0
H3035 H 0.18446 0.70706 0.43342 0.0
C3036 C 0.19132 0.65007 0.41152 0.0
C3037 C 0.18445 0.6455 0.43193 0.0
C3038 C 0.18141 0.66535 0.3997 0.0
C3039 C 0.16448 0.67606 0.4081 0.0
C3040 C 0.15622 0.66999 0.4275 0.0
H3041 H 0.09424 0.78597 0.39069 0.0
H3042 H 0.10581 0.75002 0.39374 0.0
C3043 C 0.16614 0.65475 0.43936 0.0
C3044 C 0.15829 0.69614 0.39897 0.0
H3045 H 0.17028 0.74819 0.40169 0.0
C3046 C 0.1407 0.697 0.38596 0.0
C3047 C 0.16943 0.71469 0.40424 0.0
C3048 C 0.18851 0.71438 0.41818 0.0
C3049 C 0.13362 0.71625 0.37838 0.0
C3050 C 0.1442 0.73496 0.3845 0.0
C3051 C 0.16222 0.73387 0.39696 0.0
C3052 C 0.13614 0.75599 0.37975 0.0
C3053 C 0.11493 0.71635 0.36397 0.0
C3054 C 0.14943 0.77142 0.3711 0.0
C3055 C 0.14304 0.79214 0.36979 0.0
C3056 C 0.1232 0.79777 0.37705 0.0
C3057 C 0.10961 0.78214 0.38492 0.0
C3058 C 0.1161 0.76148 0.38644 0.0
H3059 H 0.11353 0.70148 0.35503 0.0
H3060 H 0.10051 0.7179 0.37342 0.0
H3061 H 0.11586 0.72959 0.35276 0.0
H3062 H 0.16501 0.76753 0.36596 0.0
H3063 H 0.15378 0.80381 0.36348 0.0
H3064 H 0.57064 0.97926 0.68006 0.0
H3065 H 0.54021 0.96361 0.66225 0.0
H3066 H 0.51186 0.9499 0.722 0.0
H3067 H 0.54239 0.96489 0.73984 0.0
H3068 H 0.50997 0.91676 0.69591 0.0
H3069 H 0.48266 0.98808 0.65532 0.0
H3070 H 0.50919 0.98137 0.64967 0.0
H3071 H 0.50216 -0.01095 0.67574 0.0
C3072 C 0.55784 0.97301 0.68936 0.0
C3073 C 0.55882 0.97329 0.71131 0.0
C3074 C 0.54045 0.96418 0.67918 0.0
C3075 C 0.5237 0.95587 0.69083 0.0
C3076 C 0.52465 0.95626 0.71274 0.0
H3077 H 0.39703 0.92726 0.65723 0.0
H3078 H 0.4303 0.94238 0.66911 0.0
C3079 C 0.54207 0.96484 0.7229 0.0
C3080 C 0.5053 0.9462 0.6804 0.0
H3081 H 0.46447 0.9564 0.64782 0.0
C3082 C 0.50003 0.92538 0.68534 0.0
C3083 C 0.49235 0.9576 0.66677 0.0
C3084 C 0.49671 0.98032 0.66167 0.0
C3085 C 0.48188 0.91572 0.67735 0.0
C3086 C 0.46903 0.92704 0.66354 0.0
C3087 C 0.47449 0.94775 0.6583 0.0
C3088 C 0.44914 0.91814 0.65545 0.0
C3089 C 0.47625 0.89381 0.68444 0.0
C3090 C 0.44879 0.89969 0.64357 0.0
C3091 C 0.42977 0.89083 0.637 0.0
C3092 C 0.41085 0.90051 0.64194 0.0
C3093 C 0.41133 0.91938 0.65325 0.0
C3094 C 0.43032 0.92807 0.66 0.0
H3095 H 0.48481 0.88947 0.69889 0.0
H3096 H 0.45921 0.89213 0.68745 0.0
H3097 H 0.48046 0.88253 0.672 0.0
H3098 H 0.4632 0.89208 0.63947 0.0
H3099 H 0.4299 0.87645 0.62802 0.0
H3100 H 0.32256 0.32243 0.9757 0.0
H3101 H 0.33413 0.29524 0.95177 0.0
H3102 H 0.27764 0.30141 0.91557 0.0
H3103 H 0.26591 0.32877 0.93932 0.0
H3104 H 0.30912 0.25807 0.94678 0.0
H3105 H 0.32524 0.29791 0.87099 0.0
H3106 H 0.32518 0.31175 0.89566 0.0
H3107 H 0.30094 0.30383 0.88364 0.0
C3108 C 0.31273 0.31831 0.96245 0.0
C3109 C 0.29321 0.32763 0.95954 0.0
C3110 C 0.3194 0.30281 0.94877 0.0
C3111 C 0.30677 0.29647 0.93189 0.0
C3112 C 0.28772 0.30635 0.92835 0.0
H3113 H 0.31646 0.17216 0.87827 0.0
H3114 H 0.30179 0.2058 0.88817 0.0
C3115 C 0.28101 0.32188 0.94203 0.0
C3116 C 0.31239 0.27782 0.9197 0.0
H3117 H 0.32722 0.26091 0.87138 0.0
C3118 C 0.31301 0.25865 0.93028 0.0
C3119 C 0.31741 0.27877 0.89821 0.0
C3120 C 0.31734 0.29916 0.88638 0.0
C3121 C 0.31881 0.24034 0.92001 0.0
C3122 C 0.32379 0.24121 0.89849 0.0
C3123 C 0.32308 0.26035 0.88781 0.0
C3124 C 0.33147 0.22255 0.8876 0.0
C3125 C 0.32017 0.22031 0.93241 0.0
C3126 C 0.35279 0.22126 0.88293 0.0
C3127 C 0.36124 0.20211 0.8773 0.0
C3128 C 0.34847 0.18397 0.87634 0.0
C3129 C 0.32677 0.18577 0.87915 0.0
C3130 C 0.31834 0.20496 0.88477 0.0
H3131 H 0.31928 0.22312 0.94953 0.0
H3132 H 0.30703 0.20964 0.92792 0.0
H3133 H 0.33501 0.21224 0.92897 0.0
H3134 H 0.36311 0.23474 0.88501 0.0
H3135 H 0.37798 0.20132 0.87495 0.0
H3136 H 0.40197 0.48856 0.65528 0.0
H3137 H 0.43077 0.5091 0.63998 0.0
H3138 H 0.4432 0.53757 0.70009 0.0
H3139 H 0.41369 0.51804 0.7151 0.0
H3140 H 0.44942 0.56506 0.67036 0.0
H3141 H 0.48951 0.49182 0.64888 0.0
H3142 H 0.46471 0.49458 0.63619 0.0
H3143 H 0.46592 0.49177 0.6642 0.0
C3144 C 0.41071 0.49944 0.66511 0.0
C3145 C 0.40584 0.50157 0.6864 0.0
C3146 C 0.42722 0.51103 0.65641 0.0
C3147 C 0.43955 0.52435 0.66905 0.0
C3148 C 0.43398 0.52728 0.69007 0.0
H3149 H 0.56902 0.55551 0.65677 0.0
H3150 H 0.5343 0.54069 0.66372 0.0
C3151 C 0.41714 0.51611 0.69864 0.0
C3152 C 0.45894 0.53433 0.66091 0.0
H3153 H 0.50629 0.52346 0.63944 0.0
C3154 C 0.46186 0.556 0.66354 0.0
C3155 C 0.47525 0.52239 0.65227 0.0
C3156 C 0.47383 0.49884 0.6504 0.0
C3157 C 0.48084 0.566 0.65832 0.0
C3158 C 0.497 0.5541 0.6494 0.0
C3159 C 0.49383 0.53256 0.64618 0.0
C3160 C 0.51792 0.56321 0.64475 0.0
C3161 C 0.48366 0.58896 0.66339 0.0
C3162 C 0.52028 0.58063 0.63156 0.0
C3163 C 0.5401 0.58941 0.62795 0.0
C3164 C 0.55789 0.58051 0.63699 0.0
C3165 C 0.55557 0.56264 0.64956 0.0
C3166 C 0.53574 0.55418 0.65354 0.0
H3167 H 0.47219 0.59419 0.67524 0.0
H3168 H 0.49965 0.59245 0.66939 0.0
H3169 H 0.48121 0.59828 0.649 0.0
H3170 H 0.50684 0.58746 0.62408 0.0
H3171 H 0.54154 0.60304 0.61796 0.0
H3172 H 0.76008 0.18452 0.98406 0.0
H3173 H 0.77947 0.21182 0.00318 0.0
H3174 H 0.74093 0.20054 0.05744 0.0
H3175 H 0.72168 0.17301 0.0386 0.0
H3176 H 0.76476 0.24793 0.02125 0.0
H3177 H 0.80039 0.1964 0.08076 0.0
H3178 H 0.78829 0.18639 0.05716 0.0
H3179 H 0.77244 0.19379 0.07905 0.0
C3180 C 0.75572 0.18788 4e-05 0.0
C3181 C 0.73947 0.17657 0.00989 0.0
C3182 C 0.76682 0.20341 0.01094 0.0
C3183 C 0.76186 0.20782 0.03182 0.0
C3184 C 0.74529 0.19696 0.0415 0.0
H3185 H 0.79362 0.31985 0.1002 0.0
H3186 H 0.77617 0.28965 0.08398 0.0
C3187 C 0.73423 0.18139 0.03065 0.0
C3188 C 0.77364 0.22424 0.04329 0.0
H3189 H 0.8036 0.23317 0.08672 0.0
C3190 C 0.77334 0.24471 0.0355 0.0
C3191 C 0.78502 0.21984 0.0617 0.0
C3192 C 0.78677 0.19788 0.07009 0.0
C3193 C 0.78377 0.2611 0.04594 0.0
C3194 C 0.79439 0.25686 0.06484 0.0
C3195 C 0.79516 0.23631 0.07237 0.0
C3196 C 0.80483 0.27372 0.07687 0.0
C3197 C 0.78348 0.28276 0.03657 0.0
C3198 C 0.82664 0.27413 0.07913 0.0
C3199 C 0.83669 0.2913 0.08852 0.0
C3200 C 0.82501 0.30827 0.09572 0.0
C3201 C 0.80306 0.30716 0.09452 0.0
C3202 C 0.79307 0.28998 0.08522 0.0
H3203 H 0.77925 0.28235 0.01971 0.0
H3204 H 0.77168 0.29221 0.04485 0.0
H3205 H 0.79894 0.29078 0.03832 0.0
H3206 H 0.83591 0.26157 0.07287 0.0
H3207 H 0.85361 0.29166 0.08931 0.0
H3208 H 0.59115 0.01409 0.8173 0.0
H3209 H 0.56471 0.02775 0.84101 0.0
H3210 H 0.55031 0.07587 0.79636 0.0
H3211 H 0.5766 0.06234 0.77247 0.0
H3212 H 0.55269 0.07309 0.85683 0.0
H3213 H 0.49865 0.03101 0.8022 0.0
H3214 H 0.5261 0.02518 0.80407 0.0
H3215 H 0.51788 0.04807 0.7903 0.0
C3216 C 0.58282 0.02798 0.81278 0.0
C3217 C 0.58566 0.03693 0.79286 0.0
C3218 C 0.56778 0.03577 0.82639 0.0
C3219 C 0.55552 0.05261 0.82025 0.0
C3220 C 0.55968 0.0628 0.80126 0.0
H3221 H 0.45589 0.12488 0.86295 0.0
H3222 H 0.49018 0.11024 0.85707 0.0
C3223 C 0.57467 0.05502 0.78764 0.0
C3224 C 0.53628 0.05734 0.83178 0.0
H3225 H 0.48334 0.05309 0.82726 0.0
C3226 C 0.53749 0.06859 0.85058 0.0
C3227 C 0.51659 0.05092 0.82376 0.0
C3228 C 0.51459 0.03797 0.80406 0.0
C3229 C 0.51925 0.07456 0.86106 0.0
C3230 C 0.49951 0.06931 0.85226 0.0
C3231 C 0.49846 0.05712 0.83402 0.0
C3232 C 0.47974 0.07798 0.86015 0.0
C3233 C 0.52129 0.08657 0.88129 0.0
C3234 C 0.46242 0.06471 0.86398 0.0
C3235 C 0.44261 0.07304 0.86698 0.0
C3236 C 0.43982 0.09479 0.8661 0.0
C3237 C 0.45744 0.10804 0.86359 0.0
C3238 C 0.47717 0.09971 0.86049 0.0
H3239 H 0.53602 0.08272 0.88957 0.0
H3240 H 0.52179 0.10358 0.87784 0.0
H3241 H 0.50788 0.08325 0.89185 0.0
H3242 H 0.46407 0.04787 0.86366 0.0
H3243 H 0.42939 0.06241 0.86906 0.0
H3244 H 0.90271 0.98315 0.29458 0.0
H3245 H 0.93083 0.97271 0.31806 0.0
H3246 H 0.94341 0.91988 0.27835 0.0
H3247 H 0.91547 0.93026 0.2546 0.0
H3248 H 0.93823 0.93447 0.33999 0.0
H3249 H -0.00059 0.95342 0.28121 0.0
H3250 H 0.97285 0.96219 0.2788 0.0
H3251 H 0.97927 0.93583 0.27181 0.0
C3252 C 0.91135 0.96922 0.29087 0.0
C3253 C 0.907 0.95766 0.27256 0.0
C3254 C 0.92737 0.96328 0.30435 0.0
C3255 C 0.93934 0.94576 0.29971 0.0
C3256 C 0.93451 0.93368 0.28196 0.0
H3257 H 0.02464 0.87067 0.36528 0.0
H3258 H -0.00659 0.88834 0.35347 0.0
C3259 C 0.9185 0.93959 0.26846 0.0
C3260 C 0.95743 0.94053 0.31295 0.0
H3261 H 0.01016 0.9343 0.31112 0.0
C3262 C 0.95401 0.9346 0.33381 0.0
C3263 C 0.978 0.94123 0.30494 0.0
C3264 C 0.9827 0.94871 0.28303 0.0
C3265 C 0.97063 0.92834 0.3466 0.0
C3266 C -0.00897 0.92781 0.33815 0.0
C3267 C -0.0055 0.93467 0.31758 0.0
C3268 C 0.00878 0.91852 0.34946 0.0
C3269 C 0.96617 0.92225 0.36895 0.0
C3270 C 0.02778 0.9297 0.35149 0.0
C3271 C 0.04581 0.91956 0.35799 0.0
C3272 C 0.04514 0.89801 0.36244 0.0
C3273 C 0.02575 0.88726 0.36189 0.0
C3274 C 0.00778 0.89739 0.3553 0.0
H3275 H 0.95207 0.93018 0.37496 0.0
H3276 H 0.96311 0.90512 0.36974 0.0
H3277 H 0.97962 0.92616 0.37933 0.0
H3278 H 0.02887 0.94603 0.347 0.0
H3279 H 0.06045 0.92834 0.3584 0.0
H3280 H 0.42128 0.24662 0.17225 0.0
H3281 H 0.39329 0.25897 0.19516 0.0
H3282 H 0.43245 0.3116 0.21358 0.0
H3283 H 0.45981 0.29994 0.19018 0.0
H3284 H 0.39049 0.26435 0.23526 0.0
H3285 H 0.38047 0.34145 0.19964 0.0
H3286 H 0.39516 0.32127 0.18688 0.0
H3287 H 0.40768 0.33887 0.20538 0.0
C3288 C 0.42379 0.26087 0.18117 0.0
C3289 C 0.44257 0.27249 0.17934 0.0
C3290 C 0.40779 0.26794 0.19415 0.0
C3291 C 0.4105 0.2866 0.20552 0.0
C3292 C 0.42962 0.29767 0.20425 0.0
H3293 H 0.38556 0.3233 0.32417 0.0
H3294 H 0.38981 0.30331 0.2922 0.0
C3295 C 0.44536 0.29086 0.19107 0.0
C3296 C 0.39413 0.29419 0.21982 0.0
H3297 H 0.37492 0.34001 0.23787 0.0
C3298 C 0.38656 0.28078 0.23554 0.0
C3299 C 0.38802 0.31534 0.2197 0.0
C3300 C 0.39308 0.32991 0.20178 0.0
C3301 C 0.37523 0.2886 0.2525 0.0
C3302 C 0.37234 0.31046 0.25416 0.0
C3303 C 0.37764 0.32333 0.23711 0.0
C3304 C 0.36711 0.32069 0.27427 0.0
C3305 C 0.36712 0.2734 0.26872 0.0
C3306 C 0.35339 0.33762 0.27489 0.0
C3307 C 0.35168 0.34971 0.29302 0.0
C3308 C 0.36333 0.34477 0.3109 0.0
C3309 C 0.37626 0.3273 0.31062 0.0
C3310 C 0.37843 0.31563 0.29238 0.0
H3311 H 0.36145 0.2587 0.26113 0.0
H3312 H 0.38005 0.26916 0.27942 0.0
H3313 H 0.35415 0.28 0.27801 0.0
H3314 H 0.34456 0.34194 0.26114 0.0
H3315 H 0.34147 0.36305 0.29299 0.0
H3316 H 0.43726 0.74605 0.93541 0.0
H3317 H 0.4257 0.72421 0.96444 0.0
H3318 H 0.44656 0.66921 0.93193 0.0
H3319 H 0.45893 0.69123 0.9029 0.0
H3320 H 0.39635 0.6938 0.96419 0.0
H3321 H 0.47277 0.66172 -0.01098 0.0
H3322 H 0.47089 0.68318 0.97085 0.0
H3323 H 0.46543 0.65685 0.96229 0.0
C3324 C 0.43951 0.72932 0.93443 0.0
C3325 C 0.44901 0.72034 0.91688 0.0
C3326 C 0.43288 0.71685 0.95103 0.0
C3327 C 0.43539 0.69511 0.95041 0.0
C3328 C 0.44484 0.686 0.9329 0.0
H3329 H 0.36657 0.62911 0.05032 0.0
H3330 H 0.37935 0.63763 0.01522 0.0
C3331 C 0.4518 0.69857 0.91632 0.0
C3332 C 0.42754 0.68234 0.9681 0.0
H3333 H 0.44321 0.65179 0.00872 0.0
C3334 C 0.40653 0.68443 0.97385 0.0
C3335 C 0.44092 0.67018 0.98061 0.0
C3336 C 0.4638 0.66791 0.97555 0.0
C3337 C 0.39875 0.67574 -0.00758 0.0
C3338 C 0.41221 0.66388 0.00518 0.0
C3339 C 0.43295 0.66085 -0.00114 0.0
C3340 C 0.4057 0.65644 0.02612 0.0
C3341 C 0.37661 0.68052 -0.00123 0.0
C3342 C 0.41691 0.66325 0.04384 0.0
C3343 C 0.40993 0.65801 0.06384 0.0
C3344 C 0.39144 0.64613 0.06644 0.0
C3345 C 0.38063 0.63868 0.0487 0.0
C3346 C 0.38788 0.64357 0.02868 0.0
H3347 H 0.37024 0.69386 -0.01019 0.0
H3348 H 0.3664 0.66663 -0.00432 0.0
H3349 H 0.37573 0.68431 0.01569 0.0
H3350 H 0.43074 0.67315 0.04222 0.0
H3351 H 0.41862 0.66385 0.07726 0.0
H3352 H 0.03475 0.69149 0.65041 0.0
H3353 H 0.05637 0.67023 0.67342 0.0
H3354 H 0.07082 0.72467 0.71105 0.0
H3355 H 0.04979 0.74614 0.68779 0.0
H3356 H 0.10455 0.69817 0.70722 0.0
H3357 H 0.03209 0.65439 0.72999 0.0
H3358 H 0.03833 0.65343 0.70266 0.0
H3359 H 0.03151 0.6779 0.71448 0.0
C3360 C 0.04284 0.699 0.66337 0.0
C3361 C 0.04033 0.72041 0.6675 0.0
C3362 C 0.05511 0.68682 0.67654 0.0
C3363 C 0.06475 0.69579 0.69421 0.0
C3364 C 0.06341 0.71743 0.69755 0.0
H3365 H 0.11201 0.66549 0.81357 0.0
H3366 H 0.10458 0.68108 0.77962 0.0
C3367 C 0.05134 0.72966 0.68426 0.0
C3368 C 0.07459 0.68254 0.71031 0.0
H3369 H 0.06309 0.6453 0.74694 0.0
C3370 C 0.09557 0.68644 0.71577 0.0
C3371 C 0.06279 0.66729 0.72148 0.0
C3372 C 0.03989 0.66306 0.71704 0.0
C3373 C 0.10496 0.67578 0.73242 0.0
C3374 C 0.09296 0.66102 0.74393 0.0
C3375 C 0.07226 0.65655 0.73796 0.0
C3376 C 0.10069 0.65149 0.76347 0.0
C3377 C 0.12753 0.68058 0.73773 0.0
C3378 C 0.101 0.62965 0.76565 0.0
C3379 C 0.10512 0.62065 0.7851 0.0
C3380 C 0.10872 0.63337 0.80276 0.0
C3381 C 0.1092 0.65524 0.80031 0.0
C3382 C 0.10517 0.6642 0.78086 0.0
H3383 H 0.13613 0.68706 0.72404 0.0
H3384 H 0.12823 0.69244 0.75041 0.0
H3385 H 0.13556 0.66636 0.74328 0.0
H3386 H 0.09739 0.61959 0.75243 0.0
H3387 H 0.10468 0.60376 0.78643 0.0
H3388 H 0.9729 0.29963 0.40628 0.0
H3389 H 0.98725 0.32159 0.43442 0.0
H3390 H 0.04937 0.30114 0.41958 0.0
H3391 H 0.03531 0.27945 0.39139 0.0
H3392 H 0.00732 0.30253 0.46707 0.0
H3393 H 0.05963 0.36293 0.43226 0.0
H3394 H 0.03963 0.34922 0.41732 0.0
H3395 H 0.0644 0.33723 0.42223 0.0
C3396 C -0.01033 0.30027 0.40863 0.0
C3397 C 0.00294 0.28759 0.39679 0.0
C3398 C -0.00216 0.31285 0.42468 0.0
C3399 C 0.01937 0.31312 0.42894 0.0
C3400 C 0.03276 0.30151 0.41629 0.0
H3401 H 0.10319 0.33127 0.53122 0.0
H3402 H 0.08639 0.32657 0.49699 0.0
C3403 C 0.02464 0.28892 0.40031 0.0
C3404 C 0.02749 0.32245 0.44855 0.0
H3405 H 0.06618 0.3542 0.46842 0.0
C3406 C 0.01988 0.31417 0.46741 0.0
C3407 C 0.04405 0.33741 0.44885 0.0
C3408 C 0.05227 0.34736 0.42907 0.0
C3409 C 0.02906 0.31966 0.48657 0.0
C3410 C 0.04599 0.3342 0.48687 0.0
C3411 C 0.05321 0.34303 0.46807 0.0
C3412 C 0.05691 0.33958 0.50656 0.0
C3413 C 0.02121 0.30902 0.50621 0.0
C3414 C 0.04605 0.34902 0.52295 0.0
C3415 C 0.05546 0.35144 0.5425 0.0
C3416 C 0.076 0.34472 0.5459 0.0
C3417 C 0.0873 0.33644 0.52909 0.0
C3418 C 0.07777 0.33382 0.50955 0.0
H3419 H 0.01145 0.29489 0.50267 0.0
H3420 H 0.03444 0.30434 0.51634 0.0
H3421 H 0.01146 0.32006 0.51517 0.0
H3422 H 0.03007 0.35393 0.52079 0.0
H3423 H 0.04649 0.35827 0.55505 0.0
H3424 H 0.44886 0.69545 0.35196 0.0
H3425 H 0.43056 0.67306 0.32659 0.0
H3426 H 0.40782 0.7277 0.29495 0.0
H3427 H 0.4256 0.75022 0.32053 0.0
H3428 H 0.37861 0.6943 0.29583 0.0
H3429 H 0.45692 0.66918 0.26867 0.0
H3430 H 0.45126 0.6641 0.2957 0.0
H3431 H 0.45371 0.69064 0.28663 0.0
C3432 C 0.43966 0.70271 0.33982 0.0
C3433 C 0.43897 0.72462 0.33802 0.0
C3434 C 0.42927 0.68988 0.32532 0.0
C3435 C 0.41829 0.69877 0.30865 0.0
C3436 C 0.41633 0.72057 0.30767 0.0
H3437 H 0.37503 0.67463 0.18649 0.0
H3438 H 0.38075 0.68691 0.22219 0.0
C3439 C 0.42653 0.73341 0.32229 0.0
C3440 C 0.41065 0.68567 0.29107 0.0
H3441 H 0.4278 0.65621 0.25026 0.0
C3442 C 0.3893 0.68576 0.28598 0.0
C3443 C 0.42468 0.67459 0.27826 0.0
C3444 C 0.44794 0.67468 0.28241 0.0
C3445 C 0.38167 0.67542 0.26808 0.0
C3446 C 0.39583 0.66497 0.25493 0.0
C3447 C 0.417 0.66416 0.26049 0.0
C3448 C 0.38964 0.6567 0.23421 0.0
C3449 C 0.35861 0.67602 0.2632 0.0
C3450 C 0.39287 0.63565 0.22913 0.0
C3451 C 0.38976 0.62858 0.20866 0.0
C3452 C 0.38365 0.64255 0.1929 0.0
C3453 C 0.37985 0.66349 0.19823 0.0
C3454 C 0.38288 0.6705 0.21868 0.0
H3455 H 0.34925 0.67874 0.27753 0.0
H3456 H 0.35569 0.68906 0.2522 0.0
H3457 H 0.3531 0.66122 0.25572 0.0
H3458 H 0.39831 0.62484 0.2409 0.0
H3459 H 0.39276 0.61235 0.20507 0.0
H3460 H 0.03794 0.71524 0.06232 0.0
H3461 H 0.05474 0.6939 0.03586 0.0
H3462 H 0.01223 0.64255 0.04988 0.0
H3463 H -0.00567 0.66457 0.07537 0.0
H3464 H 0.07482 0.65987 0.03374 0.0
H3465 H 0.00069 0.64765 -0.0104 0.0
H3466 H 0.0025 0.66472 0.01195 0.0
H3467 H 6e-05 0.63681 0.01543 0.0
C3468 C 0.03231 0.69933 0.0599 0.0
C3469 C 0.01468 0.69161 0.07063 0.0
C3470 C 0.04193 0.6871 0.04477 0.0
C3471 C 0.0344 0.66677 0.0404 0.0
C3472 C 0.01782 0.65845 0.05236 0.0
H3473 H 0.10921 0.60227 0.94463 0.0
H3474 H 0.0926 0.60944 0.97836 0.0
C3475 C 0.00774 0.67093 0.06706 0.0
C3476 C 0.04333 0.65506 0.02254 0.0
H3477 H 0.03071 0.63259 0.97562 0.0
C3478 C 0.06517 0.65383 0.02104 0.0
C3479 C 0.03072 0.64729 0.0059 0.0
C3480 C 0.00723 0.64933 0.00565 0.0
C3481 C 0.07482 0.64617 0.00297 0.0
C3482 C 0.06221 0.63839 0.98635 0.0
C3483 C 0.04036 0.63852 -0.01164 0.0
C3484 C 0.07114 0.63214 0.9659 0.0
C3485 C 0.09836 0.64781 0.00147 0.0
C3486 C 0.06375 0.64147 0.94747 0.0
C3487 C 0.07262 0.63675 0.92818 0.0
C3488 C 0.08937 0.62296 0.927 0.0
C3489 C 0.09647 0.61319 0.94527 0.0
C3490 C 0.08713 0.61743 0.96453 0.0
H3491 H 0.10503 0.65917 0.01296 0.0
H3492 H 0.10512 0.63232 0.00487 0.0
H3493 H 0.10337 0.65274 0.98558 0.0
H3494 H 0.05141 0.65284 0.94806 0.0
H3495 H 0.06693 0.64453 0.91431 0.0
H3496 H 0.04341 0.2504 0.82114 0.0
H3497 H 0.06132 0.2617 0.78916 0.0
H3498 H 0.05688 0.32609 0.80875 0.0
H3499 H 0.03849 0.31496 0.84033 0.0
H3500 H 0.03737 0.31794 0.77184 0.0
H3501 H 0.11756 0.28623 0.77033 0.0
H3502 H 0.09744 0.26718 0.77627 0.0
H3503 H 0.10259 0.28838 0.79415 0.0
C3504 C 0.04687 0.2669 0.81891 0.0
C3505 C 0.03933 0.28185 0.83299 0.0
C3506 C 0.0572 0.27333 0.8007 0.0
C3507 C 0.06045 0.29473 0.79664 0.0
C3508 C 0.0545 0.30951 0.81161 0.0
H3509 H 0.08807 0.36827 0.68654 0.0
H3510 H 0.08387 0.35558 0.72232 0.0
C3511 C 0.04395 0.30314 0.82959 0.0
C3512 C 0.06651 0.30194 0.77554 0.0
H3513 H 0.10433 0.29959 0.73806 0.0
C3514 C 0.05212 0.31411 0.76457 0.0
C3515 C 0.08562 0.29664 0.76601 0.0
C3516 C 0.10179 0.28403 0.77734 0.0
C3517 C 0.05623 0.32104 0.74425 0.0
C3518 C 0.07533 0.31584 0.73474 0.0
C3519 C 0.08974 0.30356 0.74556 0.0
C3520 C 0.08029 0.32306 0.71344 0.0
C3521 C 0.03993 0.33358 0.73294 0.0
C3522 C 0.08012 0.30882 0.69677 0.0
C3523 C 0.08243 0.31599 0.67627 0.0
C3524 C 0.08495 0.33753 0.67221 0.0
C3525 C 0.08588 0.35163 0.6891 0.0
C3526 C 0.08358 0.34443 0.70955 0.0
H3527 H 0.02448 0.33264 0.74083 0.0
H3528 H 0.04504 0.35026 0.73246 0.0
H3529 H 0.03803 0.32803 0.71657 0.0
H3530 H 0.07757 0.29225 0.69958 0.0
H3531 H 0.08188 0.30471 0.66362 0.0
H3532 H 0.43989 0.26419 0.53831 0.0
H3533 H 0.42663 0.29186 0.51591 0.0
H3534 H 0.46428 0.33753 0.54962 0.0
H3535 H 0.47872 0.30946 0.57107 0.0
H3536 H 0.40404 0.32324 0.52587 0.0
H3537 H 0.47807 0.35491 0.49192 0.0
H3538 H 0.47716 0.33111 0.50697 0.0
H3539 H 0.47661 0.35611 0.5199 0.0
C3540 C 0.44559 0.2801 0.54062 0.0
C3541 C 0.46043 0.28477 0.55614 0.0
C3542 C 0.43794 0.29593 0.52796 0.0
C3543 C 0.44455 0.31682 0.53094 0.0
C3544 C 0.45936 0.32152 0.5466 0.0
H3545 H 0.36457 0.39243 0.44902 0.0
H3546 H 0.38222 0.38481 0.48222 0.0
C3547 C 0.46753 0.30551 0.55888 0.0
C3548 C 0.43527 0.33336 0.51782 0.0
H3549 H 0.44692 0.36996 0.48065 0.0
C3550 C 0.4134 0.33356 0.51603 0.0
C3551 C 0.44753 0.34707 0.50531 0.0
C3552 C 0.47113 0.34725 0.50594 0.0
C3553 C 0.40349 0.34543 0.50065 0.0
C3554 C 0.41581 0.3585 0.48747 0.0
C3555 C 0.43753 0.35989 0.49072 0.0
C3556 C 0.40722 0.36743 0.46792 0.0
C3557 C 0.3802 0.34233 0.49761 0.0
C3558 C 0.41633 0.36178 0.44883 0.0
C3559 C 0.40678 0.36677 0.43 0.0
C3560 C 0.38762 0.37714 0.4298 0.0
C3561 C 0.37914 0.38407 0.44879 0.0
C3562 C 0.38912 0.37958 0.46773 0.0
H3563 H 0.37394 0.32867 0.5065 0.0
H3564 H 0.37201 0.35641 0.50321 0.0
H3565 H 0.37634 0.33991 0.48084 0.0
H3566 H 0.4303 0.35246 0.44847 0.0
H3567 H 0.4138 0.36128 0.41564 0.0
H3568 H 0.14866 0.45275 0.29525 0.0
H3569 H 0.17406 0.42993 0.31134 0.0
H3570 H 0.17755 0.39397 0.25438 0.0
H3571 H 0.15231 0.41712 0.23782 0.0
H3572 H 0.1781 0.38631 0.31808 0.0
H3573 H 0.23662 0.41912 0.2618 0.0
H3574 H 0.21107 0.43014 0.26479 0.0
H3575 H 0.21407 0.40597 0.25085 0.0
C3576 C 0.15459 0.43986 0.28614 0.0
C3577 C 0.14883 0.43704 0.26508 0.0
C3578 C 0.16899 0.42672 0.29546 0.0
C3579 C 0.17785 0.4105 0.28394 0.0
C3580 C 0.17105 0.40664 0.2634 0.0
H3581 H 0.29973 0.36531 0.31965 0.0
H3582 H 0.26523 0.36401 0.30331 0.0
C3583 C 0.15667 0.41988 0.25397 0.0
C3584 C 0.19603 0.39972 0.29277 0.0
H3585 H 0.24912 0.39924 0.28936 0.0
C3586 C 0.19363 0.38872 0.31163 0.0
C3587 C 0.21622 0.40299 0.28428 0.0
C3588 C 0.21981 0.41529 0.2644 0.0
C3589 C 0.21107 0.38164 0.32273 0.0
C3590 C 0.23129 0.38601 0.31483 0.0
C3591 C 0.23356 0.39589 0.29536 0.0
C3592 C 0.25048 0.38264 0.32717 0.0
C3593 C 0.20771 0.37003 0.34299 0.0
C3594 C 0.25345 0.39306 0.34634 0.0
C3595 C 0.27316 0.39373 0.35581 0.0
C3596 C 0.29019 0.38437 0.34596 0.0
C3597 C 0.2869 0.37296 0.3274 0.0
C3598 C 0.26719 0.37206 0.31812 0.0
H3599 H 0.19233 0.36164 0.34308 0.0
H3600 H 0.22023 0.35856 0.34579 0.0
H3601 H 0.20779 0.38141 0.35611 0.0
H3602 H 0.24089 0.40177 0.35334 0.0
H3603 H 0.27531 0.4026 0.37013 0.0
H3604 H 0.28809 0.41779 0.04602 0.0
H3605 H 0.31015 0.44727 0.05714 0.0
H3606 H 0.31933 0.46543 -0.00718 0.0
H3607 H 0.29696 0.4359 0.98141 0.0
H3608 H 0.3527 0.4588 0.0461 0.0
H3609 H 0.29374 0.51721 0.0217 0.0
H3610 H 0.28724 0.48973 0.02421 0.0
H3611 H 0.3023 0.49888 0.0023 0.0
C3612 C 0.29484 0.42798 0.03419 0.0
C3613 C 0.29065 0.42469 0.01285 0.0
C3614 C 0.30754 0.44473 0.0406 0.0
C3615 C 0.31621 0.4585 0.02581 0.0
C3616 C 0.31257 0.45499 0.00445 0.0
H3617 H 0.36564 0.58099 0.06272 0.0
H3618 H 0.35965 0.55012 0.04083 0.0
C3619 C 0.29983 0.43817 -0.00201 0.0
C3620 C 0.32793 0.47717 0.03317 0.0
H3621 H 0.32278 0.5296 0.04048 0.0
C3622 C 0.34641 0.47437 0.04461 0.0
C3623 C 0.31964 0.49739 0.03108 0.0
C3624 C 0.29958 0.50113 0.01928 0.0
C3625 C 0.35643 0.49125 0.05475 0.0
C3626 C 0.34745 0.51125 0.05367 0.0
C3627 C 0.32962 0.51422 0.04127 0.0
C3628 C 0.35484 0.52893 0.06682 0.0
C3629 C 0.37629 0.48742 0.06679 0.0
C3630 C 0.35452 0.52714 0.0887 0.0
C3631 C 0.35799 0.54473 0.10128 0.0
C3632 C 0.36149 0.56446 0.09214 0.0
C3633 C 0.36274 0.56602 0.07023 0.0
C3634 C 0.35943 0.54841 0.05769 0.0
H3635 H 0.38483 0.47395 0.06022 0.0
H3636 H 0.38682 0.50144 0.0667 0.0
H3637 H 0.37231 0.48363 0.08325 0.0
H3638 H 0.3505 0.51236 0.09607 0.0
H3639 H 0.3569 0.54304 0.1181 0.0
H3640 H 0.30657 0.54079 0.73965 0.0
H3641 H 0.28298 0.56341 0.75874 0.0
H3642 H 0.31611 0.55077 0.81607 0.0
H3643 H 0.33941 0.52756 0.79714 0.0
H3644 H 0.27606 0.54074 0.81914 0.0
H3645 H 0.28223 0.62016 0.7856 0.0
H3646 H 0.27861 0.60089 0.76547 0.0
H3647 H 0.30193 0.60073 0.78134 0.0
C3648 C 0.3092 0.54328 0.75622 0.0
C3649 C 0.32465 0.53221 0.76696 0.0
C3650 C 0.29581 0.5564 0.7671 0.0
C3651 C 0.29789 0.55895 0.78882 0.0
C3652 C 0.31428 0.54907 0.7993 0.0
H3653 H 0.19863 0.59813 0.87407 0.0
H3654 H 0.2338 0.59248 0.86051 0.0
C3655 C 0.32754 0.53578 0.78847 0.0
C3656 C 0.28093 0.56874 0.8009 0.0
H3657 H 0.24912 0.61102 0.80226 0.0
C3658 C 0.27049 0.55633 0.81582 0.0
C3659 C 0.27361 0.58901 0.79646 0.0
C3660 C 0.28484 0.60352 0.78149 0.0
C3661 C 0.25224 0.5631 0.82554 0.0
C3662 C 0.24436 0.58295 0.82036 0.0
C3663 C 0.25523 0.59578 0.80612 0.0
C3664 C 0.22388 0.58963 0.82826 0.0
C3665 C 0.24085 0.54847 0.84036 0.0
C3666 C 0.20688 0.59065 0.81447 0.0
C3667 C 0.18678 0.59386 0.82212 0.0
C3668 C 0.18338 0.59608 0.84373 0.0
C3669 C 0.20067 0.59617 0.85738 0.0
C3670 C 0.22077 0.593 0.84968 0.0
H3671 H 0.24716 0.53239 0.83994 0.0
H3672 H 0.24248 0.55451 0.85657 0.0
H3673 H 0.22392 0.54758 0.83652 0.0
H3674 H 0.20904 0.58808 0.79786 0.0
H3675 H 0.17385 0.59393 0.81116 0.0
H3676 H 0.22654 0.55127 0.54117 0.0
H3677 H 0.20543 0.5205 0.55052 0.0
H3678 H 0.16142 0.53472 0.50162 0.0
H3679 H 0.18238 0.56571 0.49214 0.0
H3680 H 0.14311 0.52432 0.5414 0.0
H3681 H 0.20079 0.4662 0.51514 0.0
H3682 H 0.21162 0.48591 0.53226 0.0
H3683 H 0.20184 0.49325 0.50698 0.0
C3684 C 0.21238 0.5479 0.53237 0.0
C3685 C 0.20621 0.56089 0.51582 0.0
C3686 C 0.2004 0.53026 0.53768 0.0
C3687 C 0.1821 0.52525 0.52653 0.0
C3688 C 0.17561 0.53832 0.51029 0.0
H3689 H 0.12386 0.40245 0.54706 0.0
H3690 H 0.13602 0.43428 0.52937 0.0
C3691 C 0.18762 0.55598 0.5049 0.0
C3692 C 0.16972 0.50638 0.53211 0.0
H3693 H 0.17352 0.45357 0.53755 0.0
C3694 C 0.14959 0.5088 0.54033 0.0
C3695 C 0.17812 0.48618 0.5303 0.0
C3696 C 0.1992 0.48263 0.5205 0.0
C3697 C 0.13803 0.49152 0.54784 0.0
C3698 C 0.14704 0.4715 0.54731 0.0
C3699 C 0.16672 0.46899 0.53808 0.0
C3700 C 0.13711 0.45312 0.55749 0.0
C3701 C 0.11643 0.4949 0.55646 0.0
C3702 C 0.13355 0.45327 0.57912 0.0
C3703 C 0.12663 0.43515 0.58929 0.0
C3704 C 0.12336 0.41646 0.57802 0.0
C3705 C 0.12634 0.41654 0.55622 0.0
C3706 C 0.13323 0.43471 0.54607 0.0
H3707 H 0.10934 0.50915 0.54976 0.0
H3708 H 0.10591 0.48125 0.55322 0.0
H3709 H 0.11748 0.49705 0.57366 0.0
H3710 H 0.13691 0.4672 0.5883 0.0
H3711 H 0.12448 0.43563 0.60608 0.0
H3712 H 0.16619 0.5412 0.24791 0.0
H3713 H 0.19687 0.56333 0.23989 0.0
H3714 H 0.18846 0.55053 0.17416 0.0
H3715 H 0.15801 0.52833 0.18196 0.0
H3716 H 0.23221 0.54547 0.21724 0.0
H3717 H 0.20006 0.61525 0.17801 0.0
H3718 H 0.1849 0.59908 0.1958 0.0
H3719 H 0.18895 0.59071 0.1693 0.0
C3720 C 0.17064 0.54345 0.23172 0.0
C3721 C 0.1598 0.53294 0.21556 0.0
C3722 C 0.18813 0.55607 0.2272 0.0
C3723 C 0.1947 0.55868 0.20645 0.0
C3724 C 0.18337 0.54895 0.19024 0.0
H3725 H 0.29374 0.59479 0.12766 0.0
H3726 H 0.261 0.58601 0.14538 0.0
C3727 C 0.1661 0.53615 0.19475 0.0
C3728 C 0.21476 0.56932 0.20165 0.0
H3729 H 0.23617 0.60822 0.17173 0.0
C3730 C 0.23321 0.55946 0.20767 0.0
C3731 C 0.21581 0.58745 0.1891 0.0
C3732 C 0.19638 0.59889 0.18279 0.0
C3733 C 0.25272 0.56645 0.20027 0.0
C3734 C 0.25374 0.58413 0.18696 0.0
C3735 C 0.23533 0.59465 0.18188 0.0
C3736 C 0.27342 0.59073 0.17659 0.0
C3737 C 0.27185 0.55403 0.20565 0.0
C3738 C 0.29117 0.5966 0.18827 0.0
C3739 C 0.31003 0.60131 0.17819 0.0
C3740 C 0.31131 0.60057 0.15624 0.0
C3741 C 0.29329 0.59542 0.14459 0.0
C3742 C 0.27454 0.59048 0.15468 0.0
H3743 H 0.26768 0.53838 0.21212 0.0
H3744 H 0.28182 0.55183 0.19165 0.0
H3745 H 0.2812 0.56263 0.21761 0.0
H3746 H 0.29048 0.59736 0.20517 0.0
H3747 H 0.32357 0.60556 0.18757 0.0
H3748 H 0.20365 0.39868 0.93706 0.0
H3749 H 0.18009 0.4249 0.92312 0.0
H3750 H 0.15635 0.43617 0.98509 0.0
H3751 H 0.18009 0.41014 -0.00072 0.0
H3752 H 0.13538 0.43425 0.92541 0.0
H3753 H 0.18751 0.49112 0.96752 0.0
H3754 H 0.1944 0.46414 0.96378 0.0
H3755 H 0.17534 0.47094 0.98309 0.0
C3756 C 0.19306 0.40634 0.94767 0.0
C3757 C 0.19402 0.40267 0.96933 0.0
C3758 C 0.17955 0.42126 0.93966 0.0
C3759 C 0.16681 0.43267 0.95315 0.0
C3760 C 0.1663 0.42766 0.9745 0.0
H3761 H 0.1205 0.55686 0.92553 0.0
H3762 H 0.12479 0.52322 0.94296 0.0
C3763 C 0.17986 0.41279 0.98256 0.0
C3764 C 0.1566 0.45166 0.94532 0.0
H3765 H 0.16154 0.50485 0.94616 0.0
C3766 C 0.14085 0.44972 0.9301 0.0
C3767 C 0.16388 0.47178 0.95147 0.0
C3768 C 0.18131 0.47477 0.96724 0.0
C3769 C 0.13237 0.46748 0.92061 0.0
C3770 C 0.14023 0.48756 0.92622 0.0
C3771 C 0.15547 0.48944 0.94194 0.0
C3772 C 0.1343 0.50683 0.91501 0.0
C3773 C 0.11519 0.46455 0.90462 0.0
C3774 C 0.13796 0.50872 0.89345 0.0
C3775 C 0.13544 0.52791 0.88342 0.0
C3776 C 0.12957 0.54564 0.89486 0.0
C3777 C 0.12525 0.54354 0.91632 0.0
C3778 C 0.12759 0.52431 0.92629 0.0
H3779 H 0.10619 0.44977 0.90736 0.0
H3780 H 0.10422 0.47781 0.90486 0.0
H3781 H 0.12223 0.46362 0.88881 0.0
H3782 H 0.1437 0.49561 0.88454 0.0
H3783 H 0.13892 0.52902 0.86688 0.0
H3784 H 0.31225 0.44004 0.68424 0.0
H3785 H 0.28279 0.41855 0.67197 0.0
H3786 H 0.26389 0.40718 0.73572 0.0
H3787 H 0.29331 0.42899 0.74824 0.0
H3788 H 0.27016 0.37611 0.68068 0.0
H3789 H 0.21295 0.43487 0.70796 0.0
H3790 H 0.24057 0.44078 0.70607 0.0
H3791 H 0.23073 0.42505 0.72725 0.0
C3792 C 0.30192 0.43289 0.69569 0.0
C3793 C 0.30492 0.43639 0.7172 0.0
C3794 C 0.28518 0.42053 0.68864 0.0
C3795 C 0.27113 0.41149 0.70295 0.0
C3796 C 0.27449 0.41427 0.72447 0.0
H3797 H 0.1478 0.36227 0.67008 0.0
H3798 H 0.17994 0.36845 0.68997 0.0
C3799 C 0.29126 0.42669 0.73157 0.0
C3800 C 0.25227 0.40045 0.69503 0.0
H3801 H 0.19971 0.40598 0.6894 0.0
C3802 C 0.25469 0.38243 0.68277 0.0
C3803 C 0.23218 0.40881 0.69784 0.0
C3804 C 0.22883 0.42851 0.71036 0.0
C3805 C 0.23749 0.37278 0.6728 0.0
C3806 C 0.21754 0.38167 0.67492 0.0
C3807 C 0.21505 0.39919 0.68786 0.0
C3808 C 0.1992 0.37422 0.66274 0.0
C3809 C 0.24086 0.35333 0.65997 0.0
C3810 C 0.19952 0.375 0.64079 0.0
C3811 C 0.18117 0.3714 0.62934 0.0
C3812 C 0.1622 0.36734 0.63972 0.0
C3813 C 0.16216 0.36562 0.66165 0.0
C3814 C 0.1805 0.36905 0.67304 0.0
H3815 H 0.25487 0.34483 0.66537 0.0
H3816 H 0.22706 0.34256 0.66067 0.0
H3817 H 0.24345 0.35784 0.6434 0.0
H3818 H 0.21369 0.37944 0.63255 0.0
H3819 H 0.18167 0.37286 0.61247 0.0
H3820 H 0.31874 0.60114 0.46771 0.0
H3821 H 0.34293 0.5815 0.44581 0.0
H3822 H 0.29038 0.55455 0.41207 0.0
H3823 H 0.26658 0.57499 0.43278 0.0
H3824 H 0.34781 0.54341 0.44542 0.0
H3825 H 0.32778 0.56039 0.36448 0.0
H3826 H 0.31898 0.57696 0.38546 0.0
H3827 H 0.30329 0.55472 0.3768 0.0
C3828 C 0.31249 0.5914 0.45521 0.0
C3829 C 0.29081 0.58953 0.45194 0.0
C3830 C 0.32631 0.58025 0.44267 0.0
C3831 C 0.31861 0.56681 0.4269 0.0
C3832 C 0.29693 0.56543 0.42341 0.0
H3833 H 0.3326 0.44336 0.41496 0.0
H3834 H 0.33343 0.48014 0.42457 0.0
C3835 C 0.28323 0.57692 0.43553 0.0
C3836 C 0.33238 0.55154 0.41651 0.0
H3837 H 0.33326 0.522 0.37221 0.0
C3838 C 0.34521 0.53921 0.42917 0.0
C3839 C 0.33009 0.54636 0.39509 0.0
C3840 C 0.31948 0.56057 0.37972 0.0
C3841 C 0.35315 0.52034 0.42177 0.0
C3842 C 0.3472 0.5132 0.40163 0.0
C3843 C 0.33707 0.52695 0.38801 0.0
C3844 C 0.34814 0.49078 0.39584 0.0
C3845 C 0.36694 0.50782 0.43604 0.0
C3846 C 0.35511 0.48449 0.37602 0.0
C3847 C 0.35389 0.4634 0.37018 0.0
C3848 C 0.34589 0.44833 0.38417 0.0
C3849 C 0.33905 0.45463 0.40397 0.0
C3850 C 0.33984 0.47566 0.40959 0.0
H3851 H 0.37755 0.51839 0.44511 0.0
H3852 H 0.35707 0.49915 0.4475 0.0
H3853 H 0.37653 0.49652 0.42723 0.0
H3854 H 0.36131 0.49589 0.36503 0.0
H3855 H 0.35939 0.45885 0.35485 0.0
H3856 H 0.27782 0.1879 0.4819 0.0
H3857 H 0.29062 0.2174 0.46123 0.0
H3858 H 0.25038 0.19827 0.41008 0.0
H3859 H 0.23658 0.16917 0.43144 0.0
H3860 H 0.3118 0.21564 0.42624 0.0
H3861 H 0.23875 0.25954 0.41239 0.0
H3862 H 0.24 0.23832 0.43088 0.0
H3863 H 0.23844 0.23295 0.40331 0.0
C3864 C 0.27148 0.1902 0.46636 0.0
C3865 C 0.25624 0.17644 0.45819 0.0
C3866 C 0.27884 0.20697 0.45453 0.0
C3867 C 0.27145 0.21006 0.43411 0.0
C3868 C 0.256 0.19642 0.42593 0.0
H3869 H 0.34909 0.30583 0.36986 0.0
H3870 H 0.33172 0.27187 0.37613 0.0
C3871 C 0.24819 0.17982 0.43807 0.0
C3872 C 0.28077 0.22729 0.42162 0.0
H3873 H 0.26992 0.2742 0.39919 0.0
C3874 C 0.30266 0.22841 0.42017 0.0
C3875 C 0.26874 0.24379 0.4136 0.0
C3876 C 0.2452 0.24377 0.41521 0.0
C3877 C 0.31299 0.24631 0.41253 0.0
C3878 C 0.30099 0.26312 0.40507 0.0
C3879 C 0.27905 0.26131 0.40501 0.0
C3880 C 0.31067 0.28362 0.39974 0.0
C3881 C 0.33656 0.24752 0.41402 0.0
C3882 C 0.30402 0.30161 0.41024 0.0
C3883 C 0.31344 0.32098 0.40621 0.0
C3884 C 0.32999 0.32263 0.39193 0.0
C3885 C 0.33662 0.30475 0.38128 0.0
C3886 C 0.32675 0.2854 0.38488 0.0
H3887 H 0.34282 0.23549 0.42475 0.0
H3888 H 0.34336 0.2448 0.39832 0.0
H3889 H 0.34198 0.26315 0.41965 0.0
H3890 H 0.29169 0.30062 0.42181 0.0
H3891 H 0.30804 0.33463 0.41453 0.0
H3892 H 0.75522 0.31642 0.54602 0.0
H3893 H 0.76714 0.28986 0.57077 0.0
H3894 H 0.81808 0.2752 0.52954 0.0
H3895 H 0.8064 0.30147 0.50476 0.0
H3896 H 0.79121 0.24028 0.54363 0.0
H3897 H 0.82225 0.291 0.60798 0.0
H3898 H 0.79674 0.29629 0.59743 0.0
H3899 H 0.81947 0.30052 0.58154 0.0
C3900 C 0.76903 0.30762 0.54228 0.0
C3901 C 0.77983 0.31101 0.52338 0.0
C3902 C 0.77584 0.29256 0.55648 0.0
C3903 C 0.79353 0.28077 0.55196 0.0
C3904 C 0.80442 0.28425 0.53326 0.0
H3905 H 0.8791 0.19882 0.60639 0.0
H3906 H 0.85937 0.22901 0.59466 0.0
C3907 C 0.79768 0.29926 0.51913 0.0
C3908 C 0.8003 0.26392 0.56598 0.0
H3909 H 0.82665 0.25464 0.61139 0.0
C3910 C 0.79868 0.24331 0.5586 0.0
C3911 C 0.81009 0.26814 0.58539 0.0
C3912 C 0.81241 0.29017 0.59365 0.0
C3913 C 0.80733 0.22676 0.56976 0.0
C3914 C 0.81756 0.23098 0.58899 0.0
C3915 C 0.81862 0.25153 0.59673 0.0
C3916 C 0.82904 0.21446 0.59999 0.0
C3917 C 0.80643 0.20509 0.56033 0.0
C3918 C 0.81844 0.19671 0.6077 0.0
C3919 C 0.82964 0.17936 0.6142 0.0
C3920 C 0.85162 0.17959 0.61323 0.0
C3921 C 0.86219 0.19808 0.60715 0.0
C3922 C 0.85095 0.21537 0.60052 0.0
H3923 H 0.80136 0.20528 0.5437 0.0
H3924 H 0.82195 0.19764 0.56125 0.0
H3925 H 0.7951 0.19521 0.5692 0.0
H3926 H 0.80151 0.19591 0.6077 0.0
H3927 H 0.82106 0.16546 0.61916 0.0
H3928 H 0.42865 0.95289 0.29974 0.0
H3929 H 0.45688 0.97054 0.31921 0.0
H3930 H 0.43663 0.03019 0.2961 0.0
H3931 H 0.40845 0.01276 0.2765 0.0
H3932 H 0.48799 -0.00288 0.29742 0.0
H3933 H 0.44628 0.03874 0.36077 0.0
H3934 H 0.4353 0.016 0.34762 0.0
H3935 H 0.43532 0.04105 0.33495 0.0
C3936 C 0.42998 0.96979 0.29906 0.0
C3937 C 0.41636 0.98142 0.28649 0.0
C3938 C 0.4461 0.97982 0.31019 0.0
C3939 C 0.44865 0.00163 0.30921 0.0
C3940 C 0.43469 0.01335 0.29728 0.0
H3941 H 0.53794 0.09704 0.34288 0.0
H3942 H 0.50697 0.07594 0.33395 0.0
C3943 C 0.41869 0.00334 0.28599 0.0
C3944 C 0.46709 0.012 0.31887 0.0
H3945 H 0.48191 0.04843 0.35527 0.0
C3946 C 0.48677 0.00814 0.31025 0.0
C3947 C 0.46527 0.02647 0.33543 0.0
C3948 C 0.44444 0.03077 0.3454 0.0
C3949 C 0.5047 0.019 0.31725 0.0
C3950 C 0.50293 0.03363 0.33376 0.0
C3951 C 0.48325 0.03714 0.34268 0.0
C3952 C 0.52113 0.0463 0.34111 0.0
C3953 C 0.52516 0.01539 0.30619 0.0
C3954 C 0.53916 0.03666 0.34871 0.0
C3955 C 0.557 0.04865 0.35356 0.0
C3956 C 0.55698 0.07053 0.35124 0.0
C3957 C 0.53851 0.08021 0.34475 0.0
C3958 C 0.52077 0.06819 0.33967 0.0
H3959 H 0.52276 0.00789 0.29065 0.0
H3960 H 0.53401 0.03032 0.30393 0.0
H3961 H 0.53487 0.00483 0.31578 0.0
H3962 H 0.53957 0.01983 0.35047 0.0
H3963 H 0.57089 0.04077 0.35883 0.0
H3964 H 0.69451 0.64122 0.02916 0.0
H3965 H 0.67981 0.66733 0.05261 0.0
H3966 H 0.74127 0.68112 0.07742 0.0
H3967 H 0.7562 0.65528 0.05378 0.0
H3968 H 0.68144 0.67702 0.09747 0.0
H3969 H 0.72309 0.73513 0.04682 0.0
H3970 H 0.72 0.70799 0.03951 0.0
H3971 H 0.73892 0.71564 0.05898 0.0
C3972 C 0.70484 0.64947 0.03993 0.0
C3973 C 0.72656 0.64654 0.03935 0.0
C3974 C 0.6964 0.6643 0.05337 0.0
C3975 C 0.70954 0.67633 0.06643 0.0
C3976 C 0.73096 0.67214 0.06721 0.0
H3977 H 0.67827 0.79997 0.11255 0.0
H3978 H 0.69666 0.76695 0.10936 0.0
C3979 C 0.73944 0.6574 0.0537 0.0
C3980 C 0.70125 0.69505 0.0768 0.0
H3981 H 0.70121 0.74819 0.07267 0.0
C3982 C 0.68591 0.69262 0.09231 0.0
C3983 C 0.70716 0.71534 0.06994 0.0
C3984 C 0.72308 0.71882 0.05281 0.0
C3985 C 0.67599 0.71006 0.10089 0.0
C3986 C 0.68132 0.73028 0.09339 0.0
C3987 C 0.69722 0.73268 0.07847 0.0
C3988 C 0.66945 0.74909 0.09909 0.0
C3989 C 0.65982 0.70665 0.11773 0.0
C3990 C 0.64798 0.7499 0.09468 0.0
C3991 C 0.63741 0.76871 0.09654 0.0
C3992 C 0.64823 0.78713 0.10249 0.0
C3993 C 0.66955 0.78609 0.1077 0.0
C3994 C 0.68006 0.76723 0.10601 0.0
H3995 H 0.66285 0.69214 0.12671 0.0
H3996 H 0.65948 0.72007 0.12876 0.0
H3997 H 0.64416 0.70486 0.11037 0.0
H3998 H 0.63959 0.73625 0.08877 0.0
H3999 H 0.62099 0.76899 0.09242 0.0
H4000 H 0.54321 0.46764 0.25662 0.0
H4001 H 0.51506 0.45433 0.27876 0.0
H4002 H 0.53469 0.49658 0.32809 0.0
H4003 H 0.56246 0.51079 0.30529 0.0
H4004 H 0.52032 0.43422 0.31478 0.0
H4005 H 0.47239 0.50489 0.32787 0.0
H4006 H 0.49259 0.50417 0.30826 0.0
H4007 H 0.49943 0.50688 0.33541 0.0
C4008 C 0.54125 0.47436 0.27204 0.0
C4009 C 0.55482 0.4902 0.27932 0.0
C4010 C 0.52527 0.4667 0.28472 0.0
C4011 C 0.52281 0.47443 0.30509 0.0
C4012 C 0.53611 0.49064 0.31231 0.0
H4013 H 0.43156 0.39264 0.37091 0.0
H4014 H 0.46455 0.41213 0.36563 0.0
C4015 C 0.55191 0.4987 0.29933 0.0
C4016 C 0.50673 0.46454 0.31858 0.0
H4017 H 0.45948 0.47308 0.34123 0.0
C4018 C 0.50708 0.4427 0.32081 0.0
C4019 C 0.48969 0.47576 0.32658 0.0
C4020 C 0.48831 0.4992 0.32435 0.0
C4021 C 0.48997 0.4315 0.32899 0.0
C4022 C 0.47244 0.44263 0.33611 0.0
C4023 C 0.47292 0.46463 0.33563 0.0
C4024 C 0.4524 0.43187 0.34108 0.0
C4025 C 0.49024 0.40788 0.3283 0.0
C4026 C 0.43447 0.43707 0.32966 0.0
C4027 C 0.41563 0.42641 0.33305 0.0
C4028 C 0.41446 0.41007 0.34763 0.0
C4029 C 0.43228 0.40493 0.35925 0.0
C4030 C 0.45107 0.41601 0.35624 0.0
H4031 H 0.50299 0.40201 0.31821 0.0
H4032 H 0.49278 0.40176 0.34431 0.0
H4033 H 0.47516 0.40137 0.32233 0.0
H4034 H 0.43513 0.44918 0.31782 0.0
H4035 H 0.40205 0.4307 0.32396 0.0
H4036 H 0.25668 0.80453 0.92897 0.0
H4037 H 0.23949 0.77617 0.90937 0.0
H4038 H 0.17946 0.79597 0.93172 0.0
H4039 H 0.19642 0.82436 0.95138 0.0
H4040 H 0.21449 0.74549 0.93188 0.0
H4041 H 0.16992 0.78355 0.86813 0.0
H4042 H 0.19223 0.79598 0.88074 0.0
H4043 H 0.16736 0.79499 0.89369 0.0
C4044 C 0.23979 0.80314 0.92939 0.0
C4045 C 0.22793 0.8166 0.94189 0.0
C4046 C 0.23001 0.78696 0.91816 0.0
C4047 C 0.20824 0.78415 0.91899 0.0
C4048 C 0.19626 0.79812 0.93062 0.0
H4049 H 0.11849 0.68661 0.88887 0.0
H4050 H 0.13648 0.71986 0.8968 0.0
C4051 C 0.20602 0.81423 0.94197 0.0
C4052 C 0.19833 0.7651 0.91008 0.0
H4053 H 0.1621 0.74758 0.87462 0.0
C4054 C 0.20322 0.74587 0.91919 0.0
C4055 C 0.18344 0.76583 0.89377 0.0
C4056 C 0.17797 0.78616 0.88335 0.0
C4057 C 0.19322 0.72728 0.91278 0.0
C4058 C 0.17837 0.72791 0.89636 0.0
C4059 C 0.17358 0.74716 0.88711 0.0
C4060 C 0.16727 0.70872 0.88913 0.0
C4061 C 0.19809 0.70729 0.92422 0.0
C4062 C 0.17857 0.69175 0.8815 0.0
C4063 C 0.16842 0.67271 0.87726 0.0
C4064 C 0.14672 0.67045 0.88022 0.0
C4065 C 0.13523 0.68788 0.88655 0.0
C4066 C 0.14547 0.70687 0.89105 0.0
H4067 H 0.20536 0.71043 0.93973 0.0
H4068 H 0.18374 0.69754 0.92658 0.0
H4069 H 0.20929 0.69813 0.91485 0.0
H4070 H 0.19534 0.69305 0.8794 0.0
H4071 H 0.17763 0.65965 0.87204 0.0
H4072 H 0.41561 0.89695 0.19896 0.0
H4073 H 0.44142 0.88974 0.17205 0.0
H4074 H 0.43854 0.95357 0.15065 0.0
H4075 H 0.41261 0.96108 0.17773 0.0
H4076 H 0.44198 0.89613 0.12597 0.0
H4077 H 0.50015 0.94443 0.17098 0.0
H4078 H 0.47593 0.93542 0.18259 0.0
H4079 H 0.47582 0.95605 0.1636 0.0
C4080 C 0.42025 0.90944 0.18842 0.0
C4081 C 0.4123 0.92968 0.19069 0.0
C4082 C 0.43488 0.90524 0.17295 0.0
C4083 C 0.44192 0.92117 0.15953 0.0
C4084 C 0.43331 0.94113 0.16099 0.0
H4085 H 0.56425 0.90328 0.10386 0.0
H4086 H 0.53022 0.91952 0.10796 0.0
C4087 C 0.41855 0.94537 0.17646 0.0
C4088 C 0.45986 0.91709 0.14577 0.0
H4089 H 0.51284 0.92301 0.14459 0.0
C4090 C 0.45746 0.90233 0.12965 0.0
C4091 C 0.47993 0.92535 0.15058 0.0
C4092 C 0.48331 0.94114 0.16791 0.0
C4093 C 0.47488 0.89473 0.11894 0.0
C4094 C 0.49512 0.90172 0.12494 0.0
C4095 C 0.49732 0.9176 0.14003 0.0
C4096 C 0.51431 0.89111 0.11804 0.0
C4097 C 0.47142 0.87891 0.1017 0.0
C4098 C 0.51654 0.86962 0.12182 0.0
C4099 C 0.53592 0.86026 0.11934 0.0
C4100 C 0.5535 0.87235 0.11346 0.0
C4101 C 0.55101 0.89362 0.10864 0.0
C4102 C 0.53157 0.90291 0.11088 0.0
H4103 H 0.4563 0.8815 0.0936 0.0
H4104 H 0.4842 0.87959 0.08998 0.0
H4105 H 0.47073 0.86298 0.10856 0.0
H4106 H 0.50363 0.8603 0.12793 0.0
H4107 H 0.53737 0.84386 0.12322 0.0
H4108 H 0.10269 0.04351 0.71009 0.0
H4109 H 0.08094 0.06563 0.68803 0.0
H4110 H 0.03897 0.01326 0.67654 0.0
H4111 H 0.06083 -0.00906 0.69812 0.0
H4112 H 0.0453 0.03939 0.64123 0.0
H4113 H 0.02544 0.08438 0.71301 0.0
H4114 H 0.05267 0.08348 0.70633 0.0
H4115 H 0.03903 0.05995 0.71414 0.0
C4116 C 0.08901 0.03663 0.70258 0.0
C4117 C 0.08325 0.01558 0.70609 0.0
C4118 C 0.07661 0.04929 0.69003 0.0
C4119 C 0.05817 0.04115 0.68103 0.0
C4120 C 0.05313 0.01983 0.68342 0.0
H4121 H 0.93947 0.06718 0.6362 0.0
H4122 H 0.97441 0.05401 0.64233 0.0
C4123 C 0.06559 0.00713 0.69582 0.0
C4124 C 0.04293 0.05502 0.67097 0.0
H4125 H 0.00712 0.09213 0.6825 0.0
C4126 C 0.03715 0.05118 0.65011 0.0
C4127 C 0.03241 0.07043 0.68262 0.0
C4128 C 0.03753 0.07479 0.7053 0.0
C4129 C 0.0205 0.06176 0.64085 0.0
C4130 C 0.00925 0.07627 0.6529 0.0
C4131 C 0.01584 0.08101 0.67331 0.0
C4132 C -0.01098 0.08464 0.64589 0.0
C4133 C 0.01478 0.05693 0.61844 0.0
C4134 C 0.9856 0.10626 0.64596 0.0
C4135 C 0.96552 0.11388 0.64269 0.0
C4136 C 0.94852 0.09994 0.63954 0.0
C4137 C 0.95219 0.07834 0.6387 0.0
C4138 C 0.97223 0.07077 0.64193 0.0
H4139 H 0.0286 0.0517 0.60948 0.0
H4140 H 0.00293 0.04403 0.61811 0.0
H4141 H 0.00811 0.07076 0.61053 0.0
H4142 H -0.00164 0.11719 0.64921 0.0
H4143 H 0.96323 0.13061 0.64333 0.0
loop_
_geom_bond_atom_site_label_1
_geom_bond_atom_site_label_2
_geom_bond_distance
_geom_bond_site_symmetry_2
_ccdc_geom_bond_type
C0 O1 1.306 . S
C0 O3 1.210 . S
O1 C0 1.306 . S
O1 Cd2 2.228 . S
Cd2 O1 2.228 . S
Cd2 O6 2.273 . S
Cd2 O10 2.310 . S
O3 C0 1.210 . S
O3 Cd4 2.190 1_655 S
Cd4 O3 2.190 1_455 S
Cd4 O6 2.411 1_455 S
Cd4 O7 2.333 . S
Cd4 O8 2.352 . S
Cd4 O12 2.277 . S
Cd4 O13 2.356 . S
C5 O10 1.175 1_455 S
C5 O12 1.226 . S
O6 Cd2 2.273 . S
O6 Cd4 2.411 1_655 S
O6 C9 1.320 . S
O7 Cd4 2.333 . S
O7 C9 1.214 1_455 S
O8 Cd4 2.352 . S
O8 C11 1.258 . S
C9 O6 1.320 . S
C9 O7 1.214 1_655 S
O10 Cd2 2.310 . S
O10 C5 1.175 1_655 S
C11 O8 1.258 . S
C11 O13 1.282 . S
O12 Cd4 2.277 . S
O12 C5 1.226 . S
O13 Cd4 2.356 . S
O13 C11 1.282 . S
C14 O15 1.306 . S
C14 O17 1.160 . S
O15 C14 1.306 . S
O15 Cd16 2.228 1_455 S
Cd16 O15 2.228 1_655 S
Cd16 O20 2.273 . S
Cd16 O24 2.277 . S
O17 C14 1.160 . S
O17 Cd18 2.203 . S
Cd18 O17 2.203 . S
Cd18 O20 2.411 1_455 S
Cd18 O21 2.333 1_455 S
Cd18 O22 2.352 . S
Cd18 O26 2.277 1_455 S
Cd18 O27 2.356 . S
C19 O24 1.209 . S
C19 O26 1.226 . S
O20 Cd16 2.273 . S
O20 Cd18 2.411 1_655 S
O20 C23 1.320 . S
O21 Cd18 2.333 1_655 S
O21 C23 1.214 . S
O22 Cd18 2.352 . S
O22 C25 1.258 . S
C23 O20 1.320 . S
C23 O21 1.214 . S
O24 Cd16 2.277 . S
O24 C19 1.209 . S
C25 O22 1.258 . S
C25 O27 1.282 . S
O26 Cd18 2.277 1_655 S
O26 C19 1.226 . S
O27 Cd18 2.356 . S
O27 C25 1.282 . S
C28 O29 1.306 . S
C28 O31 1.160 . S
O29 C28 1.306 . S
O29 Cd30 2.228 . S
Cd30 O29 2.228 . S
Cd30 O34 2.273 . S
Cd30 O38 2.277 . S
O31 C28 1.160 . S
O31 Cd32 2.203 . S
Cd32 O31 2.203 . S
Cd32 O34 2.411 . S
Cd32 O35 2.333 . S
Cd32 O36 2.352 . S
Cd32 O40 2.277 . S
Cd32 O41 2.356 . S
C33 O38 1.209 . S
C33 O40 1.226 . S
O34 Cd30 2.273 . S
O34 Cd32 2.411 . S
O34 C37 1.320 . S
O35 Cd32 2.333 . S
O35 C37 1.214 . S
O36 Cd32 2.352 . S
O36 C39 1.258 . S
C37 O34 1.320 . S
C37 O35 1.214 . S
O38 Cd30 2.277 . S
O38 C33 1.209 . S
C39 O36 1.258 . S
C39 O41 1.282 . S
O40 Cd32 2.277 . S
O40 C33 1.226 . S
O41 Cd32 2.356 . S
O41 C39 1.282 . S
C42 O43 1.306 . S
C42 O45 1.160 . S
O43 C42 1.306 . S
O43 Cd44 2.228 . S
Cd44 O43 2.228 . S
Cd44 O48 2.273 . S
Cd44 O52 2.277 . S
O45 C42 1.160 . S
O45 Cd46 2.203 . S
Cd46 O45 2.203 . S
Cd46 O48 2.411 . S
Cd46 O49 2.333 . S
Cd46 O50 2.352 . S
Cd46 O54 2.277 . S
Cd46 O55 2.356 . S
C47 O52 1.209 . S
C47 O54 1.226 . S
O48 Cd44 2.273 . S
O48 Cd46 2.411 . S
O48 C51 1.320 . S
O49 Cd46 2.333 . S
O49 C51 1.214 . S
O50 Cd46 2.352 . S
O50 C53 1.258 . S
C51 O48 1.320 . S
C51 O49 1.214 . S
O52 Cd44 2.277 . S
O52 C47 1.209 . S
C53 O50 1.258 . S
C53 O55 1.282 . S
O54 Cd46 2.277 . S
O54 C47 1.226 . S
O55 Cd46 2.356 . S
O55 C53 1.282 . S
C56 O57 1.306 . S
C56 O59 1.160 . S
O57 C56 1.306 . S
O57 Cd58 2.228 . S
Cd58 O57 2.228 . S
Cd58 O62 2.273 . S
Cd58 O66 2.277 . S
O59 C56 1.160 . S
O59 Cd60 2.203 1_655 S
Cd60 O59 2.203 1_455 S
Cd60 O62 2.411 1_455 S
Cd60 O63 2.333 . S
Cd60 O64 2.352 . S
Cd60 O68 2.277 . S
Cd60 O69 2.356 . S
C61 O66 1.209 1_455 S
C61 O68 1.226 . S
O62 Cd58 2.273 . S
O62 Cd60 2.411 1_655 S
O62 C65 1.320 . S
O63 Cd60 2.333 . S
O63 C65 1.214 1_455 S
O64 Cd60 2.352 . S
O64 C67 1.258 . S
C65 O62 1.320 . S
C65 O63 1.214 1_655 S
O66 Cd58 2.277 . S
O66 C61 1.209 1_655 S
C67 O64 1.258 . S
C67 O69 1.282 . S
O68 Cd60 2.277 . S
O68 C61 1.226 . S
O69 Cd60 2.356 . S
O69 C67 1.282 . S
C70 O71 1.306 . S
C70 O73 1.160 . S
O71 C70 1.306 . S
O71 Cd72 2.228 . S
Cd72 O71 2.228 . S
Cd72 O76 2.273 . S
Cd72 O80 2.277 . S
O73 C70 1.160 . S
O73 Cd74 2.203 . S
Cd74 O73 2.203 . S
Cd74 O76 2.411 . S
Cd74 O77 2.333 . S
Cd74 O78 2.352 . S
Cd74 O82 2.277 . S
Cd74 O83 2.356 . S
C75 O80 1.209 . S
C75 O82 1.226 . S
O76 Cd72 2.273 . S
O76 Cd74 2.411 . S
O76 C79 1.320 . S
O77 Cd74 2.333 . S
O77 C79 1.214 . S
O78 Cd74 2.352 . S
O78 C81 1.258 . S
C79 O76 1.320 . S
C79 O77 1.214 . S
O80 Cd72 2.277 . S
O80 C75 1.209 . S
C81 O78 1.258 . S
C81 O83 1.282 . S
O82 Cd74 2.277 . S
O82 C75 1.226 . S
O83 Cd74 2.356 . S
O83 C81 1.282 . S
C84 O85 1.306 . S
C84 O87 1.160 . S
O85 C84 1.306 . S
O85 Cd86 2.228 . S
Cd86 O85 2.228 . S
Cd86 O90 2.273 . S
Cd86 O94 2.277 . S
O87 C84 1.160 . S
O87 Cd88 2.203 . S
Cd88 O87 2.203 . S
Cd88 O90 2.411 . S
Cd88 O91 2.333 . S
Cd88 O92 2.352 . S
Cd88 O96 2.277 . S
Cd88 O97 2.356 . S
C89 O94 1.209 . S
C89 O96 1.226 . S
O90 Cd86 2.273 . S
O90 Cd88 2.411 . S
O90 C93 1.320 . S
O91 Cd88 2.333 . S
O91 C93 1.214 . S
O92 Cd88 2.352 . S
O92 C95 1.258 . S
C93 O90 1.320 . S
C93 O91 1.214 . S
O94 Cd86 2.277 . S
O94 C89 1.209 . S
C95 O92 1.258 . S
C95 O97 1.282 . S
O96 Cd88 2.277 . S
O96 C89 1.226 . S
O97 Cd88 2.356 . S
O97 C95 1.282 . S
C98 O99 1.306 . S
C98 O101 1.160 . S
O99 C98 1.306 . S
O99 Cd100 2.228 1_455 S
Cd100 O99 2.228 1_655 S
Cd100 O104 2.273 . S
Cd100 O108 2.277 . S
O101 C98 1.160 . S
O101 Cd102 2.203 . S
Cd102 O101 2.203 . S
Cd102 O104 2.411 1_455 S
Cd102 O105 2.333 1_455 S
Cd102 O106 2.352 . S
Cd102 O110 2.277 1_455 S
Cd102 O111 2.356 . S
C103 O108 1.209 . S
C103 O110 1.226 . S
O104 Cd100 2.273 . S
O104 Cd102 2.411 1_655 S
O104 C107 1.320 . S
O105 Cd102 2.333 1_655 S
O105 C107 1.214 . S
O106 Cd102 2.352 . S
O106 C109 1.258 . S
C107 O104 1.320 . S
C107 O105 1.214 . S
O108 Cd100 2.277 . S
O108 C103 1.209 . S
C109 O106 1.258 . S
C109 O111 1.282 . S
O110 Cd102 2.277 1_655 S
O110 C103 1.226 . S
O111 Cd102 2.356 . S
O111 C109 1.282 . S
C112 O113 1.306 . S
C112 O115 1.160 . S
O113 C112 1.306 . S
O113 Cd114 2.228 . S
Cd114 O113 2.228 . S
Cd114 O118 2.273 . S
Cd114 O122 2.277 . S
O115 C112 1.160 . S
O115 Cd116 2.203 1_565 S
Cd116 O115 2.203 1_545 S
Cd116 O118 2.411 1_545 S
Cd116 O119 2.333 . S
Cd116 O120 2.352 . S
Cd116 O124 2.277 . S
Cd116 O125 2.356 . S
C117 O122 1.209 1_545 S
C117 O124 1.226 . S
O118 Cd114 2.273 . S
O118 Cd116 2.411 1_565 S
O118 C121 1.320 . S
O119 Cd116 2.333 . S
O119 C121 1.214 1_545 S
O120 Cd116 2.352 . S
O120 C123 1.258 . S
C121 O118 1.320 . S
C121 O119 1.214 1_565 S
O122 Cd114 2.277 . S
O122 C117 1.209 1_565 S
C123 O120 1.258 . S
C123 O125 1.282 . S
O124 Cd116 2.277 . S
O124 C117 1.226 . S
O125 Cd116 2.356 . S
O125 C123 1.282 . S
C126 O127 1.306 . S
C126 O129 1.160 . S
O127 C126 1.306 . S
O127 Cd128 2.228 . S
Cd128 O127 2.228 . S
Cd128 O132 2.273 . S
Cd128 O136 2.277 . S
O129 C126 1.160 . S
O129 Cd130 2.203 . S
Cd130 O129 2.203 . S
Cd130 O132 2.411 . S
Cd130 O133 2.333 . S
Cd130 O134 2.352 . S
Cd130 O138 2.277 . S
Cd130 O139 2.356 . S
C131 O136 1.209 . S
C131 O138 1.226 . S
O132 Cd128 2.273 . S
O132 Cd130 2.411 . S
O132 C135 1.320 . S
O133 Cd130 2.333 . S
O133 C135 1.214 . S
O134 Cd130 2.352 . S
O134 C137 1.258 . S
C135 O132 1.320 . S
C135 O133 1.214 . S
O136 Cd128 2.277 . S
O136 C131 1.209 . S
C137 O134 1.258 . S
C137 O139 1.282 . S
O138 Cd130 2.277 . S
O138 C131 1.226 . S
O139 Cd130 2.356 . S
O139 C137 1.282 . S
C140 O141 1.306 . S
C140 O143 1.160 . S
O141 C140 1.306 . S
O141 Cd142 2.228 . S
Cd142 O141 2.228 . S
Cd142 O146 2.273 . S
Cd142 O150 2.277 . S
O143 C140 1.160 . S
O143 Cd144 2.203 1_565 S
Cd144 O143 2.203 1_545 S
Cd144 O146 2.411 1_545 S
Cd144 O147 2.333 . S
Cd144 O148 2.352 . S
Cd144 O152 2.277 . S
Cd144 O153 2.356 . S
C145 O150 1.209 1_545 S
C145 O152 1.226 . S
O146 Cd142 2.273 . S
O146 Cd144 2.411 1_565 S
O146 C149 1.320 . S
O147 Cd144 2.333 . S
O147 C149 1.214 1_545 S
O148 Cd144 2.352 . S
O148 C151 1.258 . S
C149 O146 1.320 . S
C149 O147 1.214 1_565 S
O150 Cd142 2.277 . S
O150 C145 1.209 1_565 S
C151 O148 1.258 . S
C151 O153 1.282 . S
O152 Cd144 2.277 . S
O152 C145 1.226 . S
O153 Cd144 2.356 . S
O153 C151 1.282 . S
C154 O155 1.306 . S
C154 O157 1.160 . S
O155 C154 1.306 . S
O155 Cd156 2.228 1_554 S
Cd156 O155 2.228 1_556 S
Cd156 O160 2.273 . S
Cd156 O164 2.277 . S
O157 C154 1.160 . S
O157 Cd158 2.203 . S
Cd158 O157 2.203 . S
Cd158 O160 2.411 1_554 S
Cd158 O161 2.333 1_554 S
Cd158 O162 2.352 . S
Cd158 O166 2.277 1_554 S
Cd158 O167 2.356 . S
C159 O164 1.209 . S
C159 O166 1.226 . S
O160 Cd156 2.273 . S
O160 Cd158 2.411 1_556 S
O160 C163 1.320 . S
O161 Cd158 2.333 1_556 S
O161 C163 1.214 . S
O162 Cd158 2.352 . S
O162 C165 1.258 . S
C163 O160 1.320 . S
C163 O161 1.214 . S
O164 Cd156 2.277 . S
O164 C159 1.209 . S
C165 O162 1.258 . S
C165 O167 1.282 . S
O166 Cd158 2.277 1_556 S
O166 C159 1.226 . S
O167 Cd158 2.356 . S
O167 C165 1.282 . S
C168 O169 1.306 . S
C168 O171 1.160 . S
O169 C168 1.306 . S
O169 Cd170 2.228 . S
Cd170 O169 2.228 . S
Cd170 O174 2.273 . S
Cd170 O178 2.277 . S
O171 C168 1.160 . S
O171 Cd172 2.203 1_554 S
Cd172 O171 2.203 1_556 S
Cd172 O174 2.411 1_556 S
Cd172 O175 2.335 . S
Cd172 O176 2.346 1_556 S
Cd172 O180 2.277 . S
Cd172 O181 2.356 . S
C173 O178 1.209 1_556 S
C173 O180 1.226 . S
O174 Cd170 2.273 . S
O174 Cd172 2.411 1_554 S
O174 C177 1.320 . S
O175 Cd172 2.335 . S
O175 C177 1.196 1_556 S
O176 Cd172 2.346 1_554 S
O176 C179 1.216 1_554 S
C177 O174 1.320 . S
C177 O175 1.196 1_554 S
O178 Cd170 2.277 . S
O178 C173 1.209 1_554 S
C179 O176 1.216 1_556 S
C179 O181 1.282 . S
O180 Cd172 2.277 . S
O180 C173 1.226 . S
O181 Cd172 2.356 . S
O181 C179 1.282 . S
C182 O183 1.306 . S
C182 O185 1.160 . S
O183 C182 1.306 . S
O183 Cd184 2.228 . S
Cd184 O183 2.228 . S
Cd184 O188 2.273 . S
Cd184 O192 2.277 . S
O185 C182 1.160 . S
O185 Cd186 2.203 1_554 S
Cd186 O185 2.203 1_556 S
Cd186 O188 2.411 1_556 S
Cd186 O189 2.333 . S
Cd186 O190 2.360 . S
Cd186 O194 2.277 . S
Cd186 O195 2.356 . S
C187 O192 1.209 1_556 S
C187 O194 1.226 . S
O188 Cd184 2.273 . S
O188 Cd186 2.411 1_554 S
O188 C191 1.320 . S
O189 Cd186 2.333 . S
O189 C191 1.214 1_556 S
O190 Cd186 2.360 . S
O190 C193 1.312 . S
C191 O188 1.320 . S
C191 O189 1.214 1_554 S
O192 Cd184 2.277 . S
O192 C187 1.209 1_554 S
C193 O190 1.312 . S
C193 O195 1.282 . S
O194 Cd186 2.277 . S
O194 C187 1.226 . S
O195 Cd186 2.356 . S
O195 C193 1.282 . S
C196 O197 1.306 . S
C196 O199 1.160 . S
O197 C196 1.306 . S
O197 Cd198 2.228 . S
Cd198 O197 2.228 . S
Cd198 O202 2.273 . S
Cd198 O206 2.277 . S
O199 C196 1.160 . S
O199 Cd200 2.203 . S
Cd200 O199 2.203 . S
Cd200 O202 2.411 . S
Cd200 O203 2.333 . S
Cd200 O204 2.352 . S
Cd200 O208 2.277 . S
Cd200 O209 2.356 . S
C201 O206 1.209 . S
C201 O208 1.226 . S
O202 Cd198 2.273 . S
O202 Cd200 2.411 . S
O202 C205 1.320 . S
O203 Cd200 2.333 . S
O203 C205 1.214 . S
O204 Cd200 2.352 . S
O204 C207 1.258 . S
C205 O202 1.320 . S
C205 O203 1.214 . S
O206 Cd198 2.277 . S
O206 C201 1.209 . S
C207 O204 1.258 . S
C207 O209 1.282 . S
O208 Cd200 2.277 . S
O208 C201 1.226 . S
O209 Cd200 2.356 . S
O209 C207 1.282 . S
C210 O211 1.306 . S
C210 O213 1.160 . S
O211 C210 1.306 . S
O211 Cd212 2.228 . S
Cd212 O211 2.228 . S
Cd212 O216 2.273 . S
Cd212 O220 2.277 . S
O213 C210 1.160 . S
O213 Cd214 2.203 . S
Cd214 O213 2.203 . S
Cd214 O216 2.411 . S
Cd214 O217 2.333 . S
Cd214 O218 2.352 . S
Cd214 O222 2.277 . S
Cd214 O223 2.356 . S
C215 O220 1.209 . S
C215 O222 1.226 . S
O216 Cd212 2.273 . S
O216 Cd214 2.411 . S
O216 C219 1.320 . S
O217 Cd214 2.333 . S
O217 C219 1.214 . S
O218 Cd214 2.352 . S
O218 C221 1.258 . S
C219 O216 1.320 . S
C219 O217 1.214 . S
O220 Cd212 2.277 . S
O220 C215 1.209 . S
C221 O218 1.258 . S
C221 O223 1.282 . S
O222 Cd214 2.277 . S
O222 C215 1.226 . S
O223 Cd214 2.356 . S
O223 C221 1.282 . S
C224 O225 1.306 . S
C224 O227 1.160 . S
O225 C224 1.306 . S
O225 Cd226 2.228 1_545 S
Cd226 O225 2.228 1_565 S
Cd226 O230 2.273 . S
Cd226 O234 2.277 . S
O227 C224 1.160 . S
O227 Cd228 2.203 . S
Cd228 O227 2.203 . S
Cd228 O230 2.411 1_545 S
Cd228 O231 2.333 1_545 S
Cd228 O232 2.352 . S
Cd228 O236 2.277 1_545 S
Cd228 O237 2.356 . S
C229 O234 1.209 . S
C229 O236 1.226 . S
O230 Cd226 2.273 . S
O230 Cd228 2.411 1_565 S
O230 C233 1.320 . S
O231 Cd228 2.333 1_565 S
O231 C233 1.214 . S
O232 Cd228 2.352 . S
O232 C235 1.258 . S
C233 O230 1.320 . S
C233 O231 1.214 . S
O234 Cd226 2.277 . S
O234 C229 1.209 . S
C235 O232 1.258 . S
C235 O237 1.282 . S
O236 Cd228 2.277 1_565 S
O236 C229 1.226 . S
O237 Cd228 2.356 . S
O237 C235 1.282 . S
C238 O239 1.306 . S
C238 O241 1.160 . S
O239 C238 1.306 . S
O239 Cd240 2.228 . S
Cd240 O239 2.228 . S
Cd240 O244 2.273 . S
Cd240 O248 2.277 . S
O241 C238 1.160 . S
O241 Cd242 2.203 . S
Cd242 O241 2.203 . S
Cd242 O244 2.411 . S
Cd242 O245 2.333 . S
Cd242 O246 2.352 . S
Cd242 O250 2.277 . S
Cd242 O251 2.356 . S
C243 O248 1.209 . S
C243 O250 1.226 . S
O244 Cd240 2.273 . S
O244 Cd242 2.411 . S
O244 C247 1.320 . S
O245 Cd242 2.333 . S
O245 C247 1.214 . S
O246 Cd242 2.352 . S
O246 C249 1.258 . S
C247 O244 1.320 . S
C247 O245 1.214 . S
O248 Cd240 2.277 . S
O248 C243 1.209 . S
C249 O246 1.258 . S
C249 O251 1.282 . S
O250 Cd242 2.277 . S
O250 C243 1.226 . S
O251 Cd242 2.356 . S
O251 C249 1.282 . S
C252 O253 1.306 . S
C252 O255 1.160 . S
O253 C252 1.306 . S
O253 Cd254 2.228 . S
Cd254 O253 2.228 . S
Cd254 O258 2.273 . S
Cd254 O262 2.277 . S
O255 C252 1.160 . S
O255 Cd256 2.203 . S
Cd256 O255 2.203 . S
Cd256 O258 2.411 . S
Cd256 O259 2.333 . S
Cd256 O260 2.352 . S
Cd256 O264 2.277 . S
Cd256 O265 2.356 . S
C257 O262 1.209 . S
C257 O264 1.226 . S
O258 Cd254 2.273 . S
O258 Cd256 2.411 . S
O258 C261 1.320 . S
O259 Cd256 2.333 . S
O259 C261 1.214 . S
O260 Cd256 2.352 . S
O260 C263 1.258 . S
C261 O258 1.320 . S
C261 O259 1.214 . S
O262 Cd254 2.277 . S
O262 C257 1.209 . S
C263 O260 1.258 . S
C263 O265 1.282 . S
O264 Cd256 2.277 . S
O264 C257 1.226 . S
O265 Cd256 2.356 . S
O265 C263 1.282 . S
C266 O267 1.306 . S
C266 O269 1.160 . S
O267 C266 1.306 . S
O267 Cd268 2.228 1_545 S
Cd268 O267 2.228 1_565 S
Cd268 O272 2.273 . S
Cd268 O276 2.277 . S
O269 C266 1.160 . S
O269 Cd270 2.203 . S
Cd270 O269 2.203 . S
Cd270 O272 2.411 1_545 S
Cd270 O273 2.333 1_545 S
Cd270 O274 2.352 . S
Cd270 O278 2.277 1_545 S
Cd270 O279 2.356 . S
C271 O276 1.209 . S
C271 O278 1.226 . S
O272 Cd268 2.273 . S
O272 Cd270 2.411 1_565 S
O272 C275 1.320 . S
O273 Cd270 2.333 1_565 S
O273 C275 1.214 . S
O274 Cd270 2.352 . S
O274 C277 1.258 . S
C275 O272 1.320 . S
C275 O273 1.214 . S
O276 Cd268 2.277 . S
O276 C271 1.209 . S
C277 O274 1.258 . S
C277 O279 1.282 . S
O278 Cd270 2.277 1_565 S
O278 C271 1.226 . S
O279 Cd270 2.356 . S
O279 C277 1.282 . S
C280 O281 1.306 . S
C280 O283 1.160 . S
O281 C280 1.306 . S
O281 Cd282 2.228 1_554 S
Cd282 O281 2.228 1_556 S
Cd282 O286 2.273 . S
Cd282 O290 2.277 . S
O283 C280 1.160 . S
O283 Cd284 2.203 . S
Cd284 O283 2.203 . S
Cd284 O286 2.411 1_554 S
Cd284 O287 2.333 1_554 S
Cd284 O288 2.352 . S
Cd284 O292 2.277 1_554 S
Cd284 O293 2.356 . S
C285 O290 1.209 . S
C285 O292 1.226 . S
O286 Cd282 2.273 . S
O286 Cd284 2.411 1_556 S
O286 C289 1.320 . S
O287 Cd284 2.333 1_556 S
O287 C289 1.214 . S
O288 Cd284 2.352 . S
O288 C291 1.258 . S
C289 O286 1.320 . S
C289 O287 1.214 . S
O290 Cd282 2.277 . S
O290 C285 1.209 . S
C291 O288 1.258 . S
C291 O293 1.282 . S
O292 Cd284 2.277 1_556 S
O292 C285 1.226 . S
O293 Cd284 2.356 . S
O293 C291 1.282 . S
C294 O295 1.306 . S
C294 O297 1.160 . S
O295 C294 1.306 . S
O295 Cd296 2.228 . S
Cd296 O295 2.228 . S
Cd296 O300 2.273 . S
Cd296 O304 2.277 . S
O297 C294 1.160 . S
O297 Cd298 2.203 . S
Cd298 O297 2.203 . S
Cd298 O300 2.411 . S
Cd298 O301 2.333 . S
Cd298 O302 2.352 . S
Cd298 O306 2.277 . S
Cd298 O307 2.356 . S
C299 O304 1.209 . S
C299 O306 1.226 . S
O300 Cd296 2.273 . S
O300 Cd298 2.411 . S
O300 C303 1.320 . S
O301 Cd298 2.333 . S
O301 C303 1.214 . S
O302 Cd298 2.352 . S
O302 C305 1.258 . S
C303 O300 1.320 . S
C303 O301 1.214 . S
O304 Cd296 2.277 . S
O304 C299 1.209 . S
C305 O302 1.258 . S
C305 O307 1.282 . S
O306 Cd298 2.277 . S
O306 C299 1.226 . S
O307 Cd298 2.356 . S
O307 C305 1.282 . S
C308 O309 1.306 . S
C308 O311 1.160 . S
O309 C308 1.306 . S
O309 Cd310 2.228 . S
Cd310 O309 2.228 . S
Cd310 O314 2.273 . S
Cd310 O318 2.277 . S
O311 C308 1.160 . S
O311 Cd312 2.203 . S
Cd312 O311 2.203 . S
Cd312 O314 2.411 . S
Cd312 O315 2.333 . S
Cd312 O316 2.352 . S
Cd312 O320 2.277 . S
Cd312 O321 2.356 . S
C313 O318 1.209 . S
C313 O320 1.226 . S
O314 Cd310 2.273 . S
O314 Cd312 2.411 . S
O314 C317 1.320 . S
O315 Cd312 2.333 . S
O315 C317 1.214 . S
O316 Cd312 2.352 . S
O316 C319 1.258 . S
C317 O314 1.320 . S
C317 O315 1.214 . S
O318 Cd310 2.277 . S
O318 C313 1.209 . S
C319 O316 1.258 . S
C319 O321 1.282 . S
O320 Cd312 2.277 . S
O320 C313 1.226 . S
O321 Cd312 2.356 . S
O321 C319 1.282 . S
C322 O323 1.306 . S
C322 O325 1.160 . S
O323 C322 1.306 . S
O323 Cd324 2.228 . S
Cd324 O323 2.228 . S
Cd324 O328 2.273 . S
Cd324 O332 2.277 . S
O325 C322 1.160 . S
O325 Cd326 2.203 . S
Cd326 O325 2.203 . S
Cd326 O328 2.411 . S
Cd326 O329 2.333 . S
Cd326 O330 2.352 . S
Cd326 O334 2.277 . S
Cd326 O335 2.356 . S
C327 O332 1.209 . S
C327 O334 1.226 . S
O328 Cd324 2.273 . S
O328 Cd326 2.411 . S
O328 C331 1.320 . S
O329 Cd326 2.333 . S
O329 C331 1.214 . S
O330 Cd326 2.352 . S
O330 C333 1.258 . S
C331 O328 1.320 . S
C331 O329 1.214 . S
O332 Cd324 2.277 . S
O332 C327 1.209 . S
C333 O330 1.258 . S
C333 O335 1.282 . S
O334 Cd326 2.277 . S
O334 C327 1.226 . S
O335 Cd326 2.356 . S
O335 C333 1.282 . S
Fe336 O338 1.918 . S
Fe336 O341 1.997 . S
Fe336 O342 2.002 . S
Fe336 O347 1.976 . S
Fe336 O350 1.996 . S
Fe337 O338 1.918 . S
Fe337 O345 1.997 . S
Fe337 O348 1.996 . S
Fe337 O352 1.976 . S
Fe337 O355 2.002 . S
O338 Fe336 1.918 . S
O338 Fe337 1.918 . S
O338 Fe339 1.918 . S
Fe339 O338 1.918 . S
Fe339 O340 2.002 . S
Fe339 O349 1.976 . S
Fe339 O353 1.996 . S
Fe339 O356 1.997 . S
O340 Fe339 2.002 . S
O340 C357 1.295 . S
O341 Fe336 1.997 . S
O341 C357 1.235 . S
O342 Fe336 2.002 . S
O342 C343 1.295 . S
C343 O342 1.295 . S
C343 O345 1.235 . S
C344 O349 1.287 . S
C344 O350 1.255 . S
O345 Fe337 1.997 . S
O345 C343 1.235 . S
C346 O352 1.287 . S
C346 O353 1.255 . S
O347 Fe336 1.976 . S
O347 C354 1.287 . S
O348 Fe337 1.996 . S
O348 C354 1.255 . S
O349 Fe339 1.976 . S
O349 C344 1.287 . S
O350 Fe336 1.996 . S
O350 C344 1.255 . S
C351 O355 1.295 . S
C351 O356 1.235 . S
O352 Fe337 1.976 . S
O352 C346 1.287 . S
O353 Fe339 1.996 . S
O353 C346 1.255 . S
C354 O347 1.287 . S
C354 O348 1.255 . S
O355 Fe337 2.002 . S
O355 C351 1.295 . S
O356 Fe339 1.997 . S
O356 C351 1.235 . S
C357 O340 1.295 . S
C357 O341 1.235 . S
Fe358 O360 1.918 . S
Fe358 O363 1.997 . S
Fe358 O364 2.002 . S
Fe358 O369 1.976 . S
Fe358 O372 1.996 . S
Fe359 O360 1.918 . S
Fe359 O367 1.997 . S
Fe359 O370 1.996 . S
Fe359 O374 1.976 . S
Fe359 O377 2.002 . S
O360 Fe358 1.918 . S
O360 Fe359 1.918 . S
O360 Fe361 1.918 . S
Fe361 O360 1.918 . S
Fe361 O362 2.002 . S
Fe361 O371 1.976 . S
Fe361 O375 1.996 . S
Fe361 O378 1.997 . S
O362 Fe361 2.002 . S
O362 C379 1.295 . S
O363 Fe358 1.997 . S
O363 C379 1.235 . S
O364 Fe358 2.002 . S
O364 C365 1.295 . S
C365 O364 1.295 . S
C365 O367 1.235 . S
C366 O371 1.287 . S
C366 O372 1.255 . S
O367 Fe359 1.997 . S
O367 C365 1.235 . S
C368 O374 1.287 . S
C368 O375 1.255 . S
O369 Fe358 1.976 . S
O369 C376 1.287 . S
O370 Fe359 1.996 . S
O370 C376 1.255 . S
O371 Fe361 1.976 . S
O371 C366 1.287 . S
O372 Fe358 1.996 . S
O372 C366 1.255 . S
C373 O377 1.295 . S
C373 O378 1.235 . S
O374 Fe359 1.976 . S
O374 C368 1.287 . S
O375 Fe361 1.996 . S
O375 C368 1.255 . S
C376 O369 1.287 . S
C376 O370 1.255 . S
O377 Fe359 2.002 . S
O377 C373 1.295 . S
O378 Fe361 1.997 . S
O378 C373 1.235 . S
C379 O362 1.295 . S
C379 O363 1.235 . S
Fe380 O382 1.918 . S
Fe380 O385 1.997 . S
Fe380 O386 2.002 . S
Fe380 O391 1.976 . S
Fe380 O394 1.996 . S
Fe381 O382 1.918 . S
Fe381 O389 1.997 . S
Fe381 O392 1.996 . S
Fe381 O396 1.976 . S
Fe381 O399 2.002 . S
O382 Fe380 1.918 . S
O382 Fe381 1.918 . S
O382 Fe383 1.918 . S
Fe383 O382 1.918 . S
Fe383 O384 2.002 . S
Fe383 O393 1.976 . S
Fe383 O397 1.996 . S
Fe383 O400 1.997 . S
O384 Fe383 2.002 . S
O384 C401 1.295 . S
O385 Fe380 1.997 . S
O385 C401 1.235 . S
O386 Fe380 2.002 . S
O386 C387 1.295 . S
C387 O386 1.295 . S
C387 O389 1.235 . S
C388 O393 1.287 . S
C388 O394 1.255 . S
O389 Fe381 1.997 . S
O389 C387 1.235 . S
C390 O396 1.287 . S
C390 O397 1.255 . S
O391 Fe380 1.976 . S
O391 C398 1.287 . S
O392 Fe381 1.996 . S
O392 C398 1.255 . S
O393 Fe383 1.976 . S
O393 C388 1.287 . S
O394 Fe380 1.996 . S
O394 C388 1.255 . S
C395 O399 1.295 . S
C395 O400 1.235 . S
O396 Fe381 1.976 . S
O396 C390 1.287 . S
O397 Fe383 1.996 . S
O397 C390 1.255 . S
C398 O391 1.287 . S
C398 O392 1.255 . S
O399 Fe381 2.002 . S
O399 C395 1.295 . S
O400 Fe383 1.997 . S
O400 C395 1.235 . S
C401 O384 1.295 . S
C401 O385 1.235 . S
Fe402 O404 1.918 . S
Fe402 O407 1.997 . S
Fe402 O408 2.002 . S
Fe402 O413 1.976 . S
Fe402 O416 1.996 . S
Fe403 O404 1.918 . S
Fe403 O411 1.997 . S
Fe403 O414 1.996 . S
Fe403 O418 1.976 . S
Fe403 O421 2.002 . S
O404 Fe402 1.918 . S
O404 Fe403 1.918 . S
O404 Fe405 1.918 . S
Fe405 O404 1.918 . S
Fe405 O406 2.002 . S
Fe405 O415 1.976 . S
Fe405 O419 1.996 . S
Fe405 O422 1.997 . S
O406 Fe405 2.002 . S
O406 C423 1.295 . S
O407 Fe402 1.997 . S
O407 C423 1.235 . S
O408 Fe402 2.002 . S
O408 C409 1.295 . S
C409 O408 1.295 . S
C409 O411 1.235 . S
C410 O415 1.287 . S
C410 O416 1.255 . S
O411 Fe403 1.997 . S
O411 C409 1.235 . S
C412 O418 1.287 . S
C412 O419 1.255 . S
O413 Fe402 1.976 . S
O413 C420 1.287 . S
O414 Fe403 1.996 . S
O414 C420 1.255 . S
O415 Fe405 1.976 . S
O415 C410 1.287 . S
O416 Fe402 1.996 . S
O416 C410 1.255 . S
C417 O421 1.295 . S
C417 O422 1.235 . S
O418 Fe403 1.976 . S
O418 C412 1.287 . S
O419 Fe405 1.996 . S
O419 C412 1.255 . S
C420 O413 1.287 . S
C420 O414 1.255 . S
O421 Fe403 2.002 . S
O421 C417 1.295 . S
O422 Fe405 1.997 . S
O422 C417 1.235 . S
C423 O406 1.295 . S
C423 O407 1.235 . S
Fe424 O426 1.918 . S
Fe424 O429 1.997 . S
Fe424 O430 2.002 . S
Fe424 O435 1.976 . S
Fe424 O438 1.996 . S
Fe425 O426 1.918 . S
Fe425 O433 1.997 . S
Fe425 O436 1.996 . S
Fe425 O440 1.976 . S
Fe425 O443 2.002 . S
O426 Fe424 1.918 . S
O426 Fe425 1.918 . S
O426 Fe427 1.918 . S
Fe427 O426 1.918 . S
Fe427 O428 2.002 . S
Fe427 O437 1.976 . S
Fe427 O441 1.996 . S
Fe427 O444 1.997 . S
O428 Fe427 2.002 . S
O428 C445 1.295 . S
O429 Fe424 1.997 . S
O429 C445 1.235 . S
O430 Fe424 2.002 . S
O430 C431 1.295 . S
C431 O430 1.295 . S
C431 O433 1.235 . S
C432 O437 1.287 . S
C432 O438 1.255 . S
O433 Fe425 1.997 . S
O433 C431 1.235 . S
C434 O440 1.287 . S
C434 O441 1.255 . S
O435 Fe424 1.976 . S
O435 C442 1.287 . S
O436 Fe425 1.996 . S
O436 C442 1.255 . S
O437 Fe427 1.976 . S
O437 C432 1.287 . S
O438 Fe424 1.996 . S
O438 C432 1.255 . S
C439 O443 1.295 . S
C439 O444 1.235 . S
O440 Fe425 1.976 . S
O440 C434 1.287 . S
O441 Fe427 1.996 . S
O441 C434 1.255 . S
C442 O435 1.287 . S
C442 O436 1.255 . S
O443 Fe425 2.002 . S
O443 C439 1.295 . S
O444 Fe427 1.997 . S
O444 C439 1.235 . S
C445 O428 1.295 . S
C445 O429 1.235 . S
Fe446 O448 1.918 . S
Fe446 O451 1.997 . S
Fe446 O452 2.002 . S
Fe446 O457 1.976 . S
Fe446 O460 1.996 . S
Fe447 O448 1.918 . S
Fe447 O455 1.997 . S
Fe447 O458 1.996 . S
Fe447 O462 1.976 . S
Fe447 O465 2.002 . S
O448 Fe446 1.918 . S
O448 Fe447 1.918 . S
O448 Fe449 1.918 . S
Fe449 O448 1.918 . S
Fe449 O450 2.002 . S
Fe449 O459 1.976 . S
Fe449 O463 1.996 . S
Fe449 O466 1.997 . S
O450 Fe449 2.002 . S
O450 C467 1.295 . S
O451 Fe446 1.997 . S
O451 C467 1.235 . S
O452 Fe446 2.002 . S
O452 C453 1.295 . S
C453 O452 1.295 . S
C453 O455 1.235 . S
C454 O459 1.287 . S
C454 O460 1.255 . S
O455 Fe447 1.997 . S
O455 C453 1.235 . S
C456 O462 1.287 . S
C456 O463 1.255 . S
O457 Fe446 1.976 . S
O457 C464 1.287 . S
O458 Fe447 1.996 . S
O458 C464 1.255 . S
O459 Fe449 1.976 . S
O459 C454 1.287 . S
O460 Fe446 1.996 . S
O460 C454 1.255 . S
C461 O465 1.295 . S
C461 O466 1.235 . S
O462 Fe447 1.976 . S
O462 C456 1.287 . S
O463 Fe449 1.996 . S
O463 C456 1.255 . S
C464 O457 1.287 . S
C464 O458 1.255 . S
O465 Fe447 2.002 . S
O465 C461 1.295 . S
O466 Fe449 1.997 . S
O466 C461 1.235 . S
C467 O450 1.295 . S
C467 O451 1.235 . S
Fe468 O470 1.918 . S
Fe468 O473 1.997 . S
Fe468 O474 2.002 . S
Fe468 O479 1.976 . S
Fe468 O482 1.996 . S
Fe469 O470 1.918 . S
Fe469 O477 1.997 . S
Fe469 O480 1.996 . S
Fe469 O484 1.976 . S
Fe469 O487 2.002 . S
O470 Fe468 1.918 . S
O470 Fe469 1.918 . S
O470 Fe471 1.918 . S
Fe471 O470 1.918 . S
Fe471 O472 2.002 . S
Fe471 O481 1.976 . S
Fe471 O485 1.996 . S
Fe471 O488 1.997 . S
O472 Fe471 2.002 . S
O472 C489 1.295 . S
O473 Fe468 1.997 . S
O473 C489 1.235 . S
O474 Fe468 2.002 . S
O474 C475 1.295 . S
C475 O474 1.295 . S
C475 O477 1.235 . S
C476 O481 1.287 . S
C476 O482 1.255 . S
O477 Fe469 1.997 . S
O477 C475 1.235 . S
C478 O484 1.287 . S
C478 O485 1.255 . S
O479 Fe468 1.976 . S
O479 C486 1.287 . S
O480 Fe469 1.996 . S
O480 C486 1.255 . S
O481 Fe471 1.976 . S
O481 C476 1.287 . S
O482 Fe468 1.996 . S
O482 C476 1.255 . S
C483 O487 1.295 . S
C483 O488 1.235 . S
O484 Fe469 1.976 . S
O484 C478 1.287 . S
O485 Fe471 1.996 . S
O485 C478 1.255 . S
C486 O479 1.287 . S
C486 O480 1.255 . S
O487 Fe469 2.002 . S
O487 C483 1.295 . S
O488 Fe471 1.997 . S
O488 C483 1.235 . S
C489 O472 1.295 . S
C489 O473 1.235 . S
Fe490 O492 1.918 . S
Fe490 O495 1.997 . S
Fe490 O496 2.002 . S
Fe490 O501 1.976 . S
Fe490 O504 1.996 . S
Fe491 O492 1.918 . S
Fe491 O499 1.997 . S
Fe491 O502 1.996 . S
Fe491 O506 1.976 . S
Fe491 O509 2.002 . S
O492 Fe490 1.918 . S
O492 Fe491 1.918 . S
O492 Fe493 1.918 . S
Fe493 O492 1.918 . S
Fe493 O494 2.002 . S
Fe493 O503 1.976 . S
Fe493 O507 1.996 . S
Fe493 O510 1.997 . S
O494 Fe493 2.002 . S
O494 C511 1.295 . S
O495 Fe490 1.997 . S
O495 C511 1.235 . S
O496 Fe490 2.002 . S
O496 C497 1.295 . S
C497 O496 1.295 . S
C497 O499 1.235 . S
C498 O503 1.287 . S
C498 O504 1.255 . S
O499 Fe491 1.997 . S
O499 C497 1.235 . S
C500 O506 1.287 . S
C500 O507 1.255 . S
O501 Fe490 1.976 . S
O501 C508 1.287 . S
O502 Fe491 1.996 . S
O502 C508 1.255 . S
O503 Fe493 1.976 . S
O503 C498 1.287 . S
O504 Fe490 1.996 . S
O504 C498 1.255 . S
C505 O509 1.295 . S
C505 O510 1.235 . S
O506 Fe491 1.976 . S
O506 C500 1.287 . S
O507 Fe493 1.996 . S
O507 C500 1.255 . S
C508 O501 1.287 . S
C508 O502 1.255 . S
O509 Fe491 2.002 . S
O509 C505 1.295 . S
O510 Fe493 1.997 . S
O510 C505 1.235 . S
C511 O494 1.295 . S
C511 O495 1.235 . S
Fe512 O514 1.918 . S
Fe512 O517 1.997 . S
Fe512 O518 2.002 . S
Fe512 O523 1.976 . S
Fe512 O526 1.996 . S
Fe513 O514 1.918 . S
Fe513 O521 1.997 . S
Fe513 O524 1.996 . S
Fe513 O528 1.976 . S
Fe513 O531 2.002 . S
O514 Fe512 1.918 . S
O514 Fe513 1.918 . S
O514 Fe515 1.918 . S
Fe515 O514 1.918 . S
Fe515 O516 2.002 . S
Fe515 O525 1.976 . S
Fe515 O529 1.996 . S
Fe515 O532 1.997 . S
O516 Fe515 2.002 . S
O516 C533 1.295 . S
O517 Fe512 1.997 . S
O517 C533 1.235 . S
O518 Fe512 2.002 . S
O518 C519 1.295 . S
C519 O518 1.295 . S
C519 O521 1.235 . S
C520 O525 1.287 . S
C520 O526 1.255 . S
O521 Fe513 1.997 . S
O521 C519 1.235 . S
C522 O528 1.287 . S
C522 O529 1.255 . S
O523 Fe512 1.976 . S
O523 C530 1.287 . S
O524 Fe513 1.996 . S
O524 C530 1.255 . S
O525 Fe515 1.976 . S
O525 C520 1.287 . S
O526 Fe512 1.996 . S
O526 C520 1.255 . S
C527 O531 1.295 . S
C527 O532 1.235 . S
O528 Fe513 1.976 . S
O528 C522 1.287 . S
O529 Fe515 1.996 . S
O529 C522 1.255 . S
C530 O523 1.287 . S
C530 O524 1.255 . S
O531 Fe513 2.002 . S
O531 C527 1.295 . S
O532 Fe515 1.997 . S
O532 C527 1.235 . S
C533 O516 1.295 . S
C533 O517 1.235 . S
Fe534 O536 1.918 . S
Fe534 O539 1.997 . S
Fe534 O540 2.002 . S
Fe534 O545 1.976 . S
Fe534 O548 1.996 . S
Fe535 O536 1.918 . S
Fe535 O543 1.997 . S
Fe535 O546 1.996 . S
Fe535 O550 1.976 . S
Fe535 O553 2.002 . S
O536 Fe534 1.918 . S
O536 Fe535 1.918 . S
O536 Fe537 1.918 . S
Fe537 O536 1.918 . S
Fe537 O538 2.002 . S
Fe537 O547 1.976 . S
Fe537 O551 1.996 . S
Fe537 O554 1.997 . S
O538 Fe537 2.002 . S
O538 C555 1.295 . S
O539 Fe534 1.997 . S
O539 C555 1.235 . S
O540 Fe534 2.002 . S
O540 C541 1.295 . S
C541 O540 1.295 . S
C541 O543 1.235 . S
C542 O547 1.287 . S
C542 O548 1.255 . S
O543 Fe535 1.997 . S
O543 C541 1.235 . S
C544 O550 1.287 . S
C544 O551 1.255 . S
O545 Fe534 1.976 . S
O545 C552 1.287 . S
O546 Fe535 1.996 . S
O546 C552 1.255 . S
O547 Fe537 1.976 . S
O547 C542 1.287 . S
O548 Fe534 1.996 . S
O548 C542 1.255 . S
C549 O553 1.295 . S
C549 O554 1.235 . S
O550 Fe535 1.976 . S
O550 C544 1.287 . S
O551 Fe537 1.996 . S
O551 C544 1.255 . S
C552 O545 1.287 . S
C552 O546 1.255 . S
O553 Fe535 2.002 . S
O553 C549 1.295 . S
O554 Fe537 1.997 . S
O554 C549 1.235 . S
C555 O538 1.295 . S
C555 O539 1.235 . S
Fe556 O558 1.918 . S
Fe556 O561 1.997 . S
Fe556 O562 2.002 . S
Fe556 O567 1.976 . S
Fe556 O570 1.996 . S
Fe557 O558 1.918 . S
Fe557 O565 1.997 . S
Fe557 O568 1.996 . S
Fe557 O572 1.976 . S
Fe557 O575 2.002 . S
O558 Fe556 1.918 . S
O558 Fe557 1.918 . S
O558 Fe559 1.918 . S
Fe559 O558 1.918 . S
Fe559 O560 2.002 . S
Fe559 O569 1.976 . S
Fe559 O573 1.996 . S
Fe559 O576 1.997 . S
O560 Fe559 2.002 . S
O560 C577 1.295 . S
O561 Fe556 1.997 . S
O561 C577 1.235 . S
O562 Fe556 2.002 . S
O562 C563 1.295 . S
C563 O562 1.295 . S
C563 O565 1.235 . S
C564 O569 1.287 . S
C564 O570 1.255 . S
O565 Fe557 1.997 . S
O565 C563 1.235 . S
C566 O572 1.287 . S
C566 O573 1.255 . S
O567 Fe556 1.976 . S
O567 C574 1.287 . S
O568 Fe557 1.996 . S
O568 C574 1.255 . S
O569 Fe559 1.976 . S
O569 C564 1.287 . S
O570 Fe556 1.996 . S
O570 C564 1.255 . S
C571 O575 1.295 . S
C571 O576 1.235 . S
O572 Fe557 1.976 . S
O572 C566 1.287 . S
O573 Fe559 1.996 . S
O573 C566 1.255 . S
C574 O567 1.287 . S
C574 O568 1.255 . S
O575 Fe557 2.002 . S
O575 C571 1.295 . S
O576 Fe559 1.997 . S
O576 C571 1.235 . S
C577 O560 1.295 . S
C577 O561 1.235 . S
Fe578 O580 1.918 . S
Fe578 O583 1.997 . S
Fe578 O584 2.002 . S
Fe578 O589 1.976 . S
Fe578 O592 1.996 . S
Fe579 O580 1.918 . S
Fe579 O587 1.997 . S
Fe579 O590 1.996 . S
Fe579 O594 1.976 . S
Fe579 O597 2.002 . S
O580 Fe578 1.918 . S
O580 Fe579 1.918 . S
O580 Fe581 1.918 . S
Fe581 O580 1.918 . S
Fe581 O582 2.002 . S
Fe581 O591 1.976 . S
Fe581 O595 1.996 . S
Fe581 O598 1.997 . S
O582 Fe581 2.002 . S
O582 C599 1.295 . S
O583 Fe578 1.997 . S
O583 C599 1.235 . S
O584 Fe578 2.002 . S
O584 C585 1.295 . S
C585 O584 1.295 . S
C585 O587 1.235 . S
C586 O591 1.287 . S
C586 O592 1.255 . S
O587 Fe579 1.997 . S
O587 C585 1.235 . S
C588 O594 1.287 . S
C588 O595 1.255 . S
O589 Fe578 1.976 . S
O589 C596 1.287 . S
O590 Fe579 1.996 . S
O590 C596 1.255 . S
O591 Fe581 1.976 . S
O591 C586 1.287 . S
O592 Fe578 1.996 . S
O592 C586 1.255 . S
C593 O597 1.295 . S
C593 O598 1.235 . S
O594 Fe579 1.976 . S
O594 C588 1.287 . S
O595 Fe581 1.996 . S
O595 C588 1.255 . S
C596 O589 1.287 . S
C596 O590 1.255 . S
O597 Fe579 2.002 . S
O597 C593 1.295 . S
O598 Fe581 1.997 . S
O598 C593 1.235 . S
C599 O582 1.295 . S
C599 O583 1.235 . S
Fe600 O602 1.918 . S
Fe600 O605 1.997 . S
Fe600 O606 2.002 . S
Fe600 O611 1.976 . S
Fe600 O614 1.996 . S
Fe601 O602 1.918 . S
Fe601 O609 1.997 . S
Fe601 O612 1.996 . S
Fe601 O616 1.976 . S
Fe601 O619 2.002 . S
O602 Fe600 1.918 . S
O602 Fe601 1.918 . S
O602 Fe603 1.918 . S
Fe603 O602 1.918 . S
Fe603 O604 2.002 . S
Fe603 O613 1.976 . S
Fe603 O617 1.996 . S
Fe603 O620 1.997 . S
O604 Fe603 2.002 . S
O604 C621 1.295 . S
O605 Fe600 1.997 . S
O605 C621 1.235 . S
O606 Fe600 2.002 . S
O606 C607 1.295 . S
C607 O606 1.295 . S
C607 O609 1.235 . S
C608 O613 1.287 . S
C608 O614 1.255 . S
O609 Fe601 1.997 . S
O609 C607 1.235 . S
C610 O616 1.287 . S
C610 O617 1.255 . S
O611 Fe600 1.976 . S
O611 C618 1.287 . S
O612 Fe601 1.996 . S
O612 C618 1.255 . S
O613 Fe603 1.976 . S
O613 C608 1.287 . S
O614 Fe600 1.996 . S
O614 C608 1.255 . S
C615 O619 1.295 . S
C615 O620 1.235 . S
O616 Fe601 1.976 . S
O616 C610 1.287 . S
O617 Fe603 1.996 . S
O617 C610 1.255 . S
C618 O611 1.287 . S
C618 O612 1.255 . S
O619 Fe601 2.002 . S
O619 C615 1.295 . S
O620 Fe603 1.997 . S
O620 C615 1.235 . S
C621 O604 1.295 . S
C621 O605 1.235 . S
Fe622 O624 1.918 . S
Fe622 O627 1.997 . S
Fe622 O628 2.002 . S
Fe622 O633 1.976 . S
Fe622 O636 1.996 . S
Fe623 O624 1.918 . S
Fe623 O631 1.997 . S
Fe623 O634 1.996 . S
Fe623 O638 1.976 . S
Fe623 O641 2.002 . S
O624 Fe622 1.918 . S
O624 Fe623 1.918 . S
O624 Fe625 1.918 . S
Fe625 O624 1.918 . S
Fe625 O626 2.002 . S
Fe625 O635 1.976 . S
Fe625 O639 1.996 . S
Fe625 O642 1.997 . S
O626 Fe625 2.002 . S
O626 C643 1.295 . S
O627 Fe622 1.997 . S
O627 C643 1.235 . S
O628 Fe622 2.002 . S
O628 C629 1.295 . S
C629 O628 1.295 . S
C629 O631 1.235 . S
C630 O635 1.287 . S
C630 O636 1.255 . S
O631 Fe623 1.997 . S
O631 C629 1.235 . S
C632 O638 1.287 . S
C632 O639 1.255 . S
O633 Fe622 1.976 . S
O633 C640 1.287 . S
O634 Fe623 1.996 . S
O634 C640 1.255 . S
O635 Fe625 1.976 . S
O635 C630 1.287 . S
O636 Fe622 1.996 . S
O636 C630 1.255 . S
C637 O641 1.295 . S
C637 O642 1.235 . S
O638 Fe623 1.976 . S
O638 C632 1.287 . S
O639 Fe625 1.996 . S
O639 C632 1.255 . S
C640 O633 1.287 . S
C640 O634 1.255 . S
O641 Fe623 2.002 . S
O641 C637 1.295 . S
O642 Fe625 1.997 . S
O642 C637 1.235 . S
C643 O626 1.295 . S
C643 O627 1.235 . S
Fe644 O646 1.918 . S
Fe644 O649 1.997 . S
Fe644 O650 2.002 . S
Fe644 O655 1.976 . S
Fe644 O658 1.996 . S
Fe645 O646 1.918 . S
Fe645 O653 1.997 . S
Fe645 O656 1.996 . S
Fe645 O660 1.976 . S
Fe645 O663 2.002 . S
O646 Fe644 1.918 . S
O646 Fe645 1.918 . S
O646 Fe647 1.918 . S
Fe647 O646 1.918 . S
Fe647 O648 2.002 . S
Fe647 O657 1.976 . S
Fe647 O661 1.996 . S
Fe647 O664 1.997 . S
O648 Fe647 2.002 . S
O648 C665 1.295 . S
O649 Fe644 1.997 . S
O649 C665 1.235 . S
O650 Fe644 2.002 . S
O650 C651 1.295 . S
C651 O650 1.295 . S
C651 O653 1.235 . S
C652 O657 1.287 . S
C652 O658 1.255 . S
O653 Fe645 1.997 . S
O653 C651 1.235 . S
C654 O660 1.287 . S
C654 O661 1.255 . S
O655 Fe644 1.976 . S
O655 C662 1.287 . S
O656 Fe645 1.996 . S
O656 C662 1.255 . S
O657 Fe647 1.976 . S
O657 C652 1.287 . S
O658 Fe644 1.996 . S
O658 C652 1.255 . S
C659 O663 1.295 . S
C659 O664 1.235 . S
O660 Fe645 1.976 . S
O660 C654 1.287 . S
O661 Fe647 1.996 . S
O661 C654 1.255 . S
C662 O655 1.287 . S
C662 O656 1.255 . S
O663 Fe645 2.002 . S
O663 C659 1.295 . S
O664 Fe647 1.997 . S
O664 C659 1.235 . S
C665 O648 1.295 . S
C665 O649 1.235 . S
Fe666 O668 1.918 . S
Fe666 O671 1.997 . S
Fe666 O672 2.002 . S
Fe666 O677 1.976 . S
Fe666 O680 1.996 . S
Fe667 O668 1.918 . S
Fe667 O675 1.997 . S
Fe667 O678 1.996 . S
Fe667 O682 1.976 . S
Fe667 O685 2.002 . S
O668 Fe666 1.918 . S
O668 Fe667 1.918 . S
O668 Fe669 1.918 . S
Fe669 O668 1.918 . S
Fe669 O670 2.002 . S
Fe669 O679 1.976 . S
Fe669 O683 1.996 . S
Fe669 O686 1.997 . S
O670 Fe669 2.002 . S
O670 C687 1.295 . S
O671 Fe666 1.997 . S
O671 C687 1.235 . S
O672 Fe666 2.002 . S
O672 C673 1.295 . S
C673 O672 1.295 . S
C673 O675 1.235 . S
C674 O679 1.287 . S
C674 O680 1.255 . S
O675 Fe667 1.997 . S
O675 C673 1.235 . S
C676 O682 1.287 . S
C676 O683 1.255 . S
O677 Fe666 1.976 . S
O677 C684 1.287 . S
O678 Fe667 1.996 . S
O678 C684 1.255 . S
O679 Fe669 1.976 . S
O679 C674 1.287 . S
O680 Fe666 1.996 . S
O680 C674 1.255 . S
C681 O685 1.295 . S
C681 O686 1.235 . S
O682 Fe667 1.976 . S
O682 C676 1.287 . S
O683 Fe669 1.996 . S
O683 C676 1.255 . S
C684 O677 1.287 . S
C684 O678 1.255 . S
O685 Fe667 2.002 . S
O685 C681 1.295 . S
O686 Fe669 1.997 . S
O686 C681 1.235 . S
C687 O670 1.295 . S
C687 O671 1.235 . S
H688 C696 0.929 . S
H689 C698 0.930 . S
H690 C700 0.930 . S
H691 C703 0.929 . S
H692 C706 0.930 . S
H693 C708 0.960 . S
H694 C708 0.960 . S
H695 C708 0.960 . S
C696 H688 0.929 . S
C696 C697 1.377 . S
C696 C698 1.384 . S
C697 C696 1.377 . S
C697 C703 1.390 . S
C698 H689 0.930 . S
C698 C696 1.384 . S
C698 C699 1.372 . S
C699 C698 1.372 . S
C699 C700 1.400 . S
C699 C704 1.490 . S
C700 H690 0.930 . S
C700 C699 1.400 . S
C700 C703 1.386 . S
H701 C717 0.930 . S
H702 C718 0.931 . S
C703 H691 0.929 . S
C703 C697 1.390 . S
C703 C700 1.386 . S
C704 C699 1.490 . S
C704 C706 1.395 . S
C704 C707 1.403 . S
H705 C711 0.930 . S
C706 H692 0.930 . S
C706 C704 1.395 . S
C706 C709 1.403 . S
C707 C704 1.403 . S
C707 C708 1.524 . S
C707 C711 1.400 . S
C708 H693 0.960 . S
C708 H694 0.960 . S
C708 H695 0.960 . S
C708 C707 1.524 . S
C709 C706 1.403 . S
C709 C710 1.392 . S
C709 C713 1.495 . S
C710 C709 1.392 . S
C710 C711 1.385 . S
C710 C712 1.478 . S
C711 H705 0.930 . S
C711 C707 1.400 . S
C711 C710 1.385 . S
C712 C710 1.478 . S
C712 C714 1.381 . S
C712 C718 1.383 . S
C713 C709 1.495 . S
C713 H719 0.959 . S
C713 H720 0.961 . S
C713 H721 0.960 . S
C714 C712 1.381 . S
C714 C715 1.394 . S
C714 H722 0.930 . S
C715 C714 1.394 . S
C715 C716 1.383 . S
C715 H723 0.929 . S
C716 C715 1.383 . S
C716 C717 1.377 . S
C717 H701 0.930 . S
C717 C716 1.377 . S
C717 C718 1.379 . S
C718 H702 0.931 . S
C718 C712 1.383 . S
C718 C717 1.379 . S
H719 C713 0.959 . S
H720 C713 0.961 . S
H721 C713 0.960 . S
H722 C714 0.930 . S
H723 C715 0.929 . S
H724 C732 0.929 . S
H725 C734 0.930 . S
H726 C736 0.930 . S
H727 C739 0.929 . S
H728 C742 0.930 . S
H729 C744 0.960 . S
H730 C744 0.960 . S
H731 C744 0.960 . S
C732 H724 0.929 . S
C732 C733 1.377 . S
C732 C734 1.384 . S
C733 C732 1.377 . S
C733 C739 1.390 . S
C734 H725 0.930 . S
C734 C732 1.384 . S
C734 C735 1.372 . S
C735 C734 1.372 . S
C735 C736 1.400 . S
C735 C740 1.490 . S
C736 H726 0.930 . S
C736 C735 1.400 . S
C736 C739 1.386 . S
H737 C753 0.930 . S
H738 C754 0.931 . S
C739 H727 0.929 . S
C739 C733 1.390 . S
C739 C736 1.386 . S
C740 C735 1.490 . S
C740 C742 1.395 . S
C740 C743 1.403 . S
H741 C747 0.930 . S
C742 H728 0.930 . S
C742 C740 1.395 . S
C742 C745 1.403 . S
C743 C740 1.403 . S
C743 C744 1.524 . S
C743 C747 1.400 . S
C744 H729 0.960 . S
C744 H730 0.960 . S
C744 H731 0.960 . S
C744 C743 1.524 . S
C745 C742 1.403 . S
C745 C746 1.392 . S
C745 C749 1.495 . S
C746 C745 1.392 . S
C746 C747 1.385 . S
C746 C748 1.478 . S
C747 H741 0.930 . S
C747 C743 1.400 . S
C747 C746 1.385 . S
C748 C746 1.478 . S
C748 C750 1.381 . S
C748 C754 1.383 . S
C749 C745 1.495 . S
C749 H755 0.959 . S
C749 H756 0.961 . S
C749 H757 0.960 . S
C750 C748 1.381 . S
C750 C751 1.394 . S
C750 H758 0.930 . S
C751 C750 1.394 . S
C751 C752 1.383 . S
C751 H759 0.929 . S
C752 C751 1.383 . S
C752 C753 1.377 . S
C753 H737 0.930 . S
C753 C752 1.377 . S
C753 C754 1.379 . S
C754 H738 0.931 . S
C754 C748 1.383 . S
C754 C753 1.379 . S
H755 C749 0.959 . S
H756 C749 0.961 . S
H757 C749 0.960 . S
H758 C750 0.930 . S
H759 C751 0.929 . S
H760 C768 0.929 . S
H761 C770 0.930 . S
H762 C772 0.930 . S
H763 C775 0.929 . S
H764 C778 0.930 . S
H765 C780 0.960 . S
H766 C780 0.960 . S
H767 C780 0.960 . S
C768 H760 0.929 . S
C768 C769 1.377 . S
C768 C770 1.384 . S
C769 C768 1.377 . S
C769 C775 1.390 . S
C770 H761 0.930 . S
C770 C768 1.384 . S
C770 C771 1.372 . S
C771 C770 1.372 . S
C771 C772 1.400 . S
C771 C776 1.490 . S
C772 H762 0.930 . S
C772 C771 1.400 . S
C772 C775 1.386 . S
H773 C789 0.930 . S
H774 C790 0.931 . S
C775 H763 0.929 . S
C775 C769 1.390 . S
C775 C772 1.386 . S
C776 C771 1.490 . S
C776 C778 1.395 . S
C776 C779 1.403 . S
H777 C783 0.930 . S
C778 H764 0.930 . S
C778 C776 1.395 . S
C778 C781 1.403 . S
C779 C776 1.403 . S
C779 C780 1.524 . S
C779 C783 1.400 . S
C780 H765 0.960 . S
C780 H766 0.960 . S
C780 H767 0.960 . S
C780 C779 1.524 . S
C781 C778 1.403 . S
C781 C782 1.392 . S
C781 C785 1.495 . S
C782 C781 1.392 . S
C782 C783 1.385 . S
C782 C784 1.478 . S
C783 H777 0.930 . S
C783 C779 1.400 . S
C783 C782 1.385 . S
C784 C782 1.478 . S
C784 C786 1.381 . S
C784 C790 1.383 . S
C785 C781 1.495 . S
C785 H791 0.959 . S
C785 H792 0.961 . S
C785 H793 0.960 . S
C786 C784 1.381 . S
C786 C787 1.394 . S
C786 H794 0.930 . S
C787 C786 1.394 . S
C787 C788 1.383 . S
C787 H795 0.929 . S
C788 C787 1.383 . S
C788 C789 1.377 . S
C789 H773 0.930 . S
C789 C788 1.377 . S
C789 C790 1.379 . S
C790 H774 0.931 . S
C790 C784 1.383 . S
C790 C789 1.379 . S
H791 C785 0.959 . S
H792 C785 0.961 . S
H793 C785 0.960 . S
H794 C786 0.930 . S
H795 C787 0.929 . S
H796 C804 0.929 . S
H797 C806 0.930 . S
H798 C808 0.930 . S
H799 C811 0.929 . S
H800 C814 0.930 . S
H801 C816 0.960 1_556 S
H802 C816 0.960 . S
H803 C816 0.960 . S
C804 H796 0.929 . S
C804 C805 1.377 . S
C804 C806 1.384 . S
C805 C804 1.377 . S
C805 C811 1.390 . S
C806 H797 0.930 . S
C806 C804 1.384 . S
C806 C807 1.372 . S
C807 C806 1.372 . S
C807 C808 1.400 . S
C807 C812 1.490 . S
C808 H798 0.930 . S
C808 C807 1.400 . S
C808 C811 1.386 . S
H809 C825 0.930 . S
H810 C826 0.931 . S
C811 H799 0.929 . S
C811 C805 1.390 . S
C811 C808 1.386 . S
C812 C807 1.490 . S
C812 C814 1.395 . S
C812 C815 1.403 . S
H813 C819 0.914 1_556 S
C814 H800 0.930 . S
C814 C812 1.395 . S
C814 C817 1.403 . S
C815 C812 1.403 . S
C815 C816 1.524 . S
C815 C819 1.414 . S
C816 H801 0.960 1_554 S
C816 H802 0.960 . S
C816 H803 0.960 . S
C816 C815 1.524 . S
C817 C814 1.403 . S
C817 C818 1.392 . S
C817 C821 1.495 . S
C818 C817 1.392 . S
C818 C819 1.387 . S
C818 C820 1.478 1_554 S
C819 H813 0.914 1_554 S
C819 C815 1.414 . S
C819 C818 1.387 . S
C820 C818 1.478 1_556 S
C820 C822 1.381 . S
C820 C826 1.383 . S
C821 C817 1.495 . S
C821 H827 0.959 . S
C821 H828 0.961 . S
C821 H829 0.960 . S
C822 C820 1.381 . S
C822 C823 1.394 . S
C822 H830 0.930 . S
C823 C822 1.394 . S
C823 C824 1.383 . S
C823 H831 0.929 . S
C824 C823 1.383 . S
C824 C825 1.377 . S
C825 H809 0.930 . S
C825 C824 1.377 . S
C825 C826 1.379 . S
C826 H810 0.931 . S
C826 C820 1.383 . S
C826 C825 1.379 . S
H827 C821 0.959 . S
H828 C821 0.961 . S
H829 C821 0.960 . S
H830 C822 0.930 . S
H831 C823 0.929 . S
H832 C840 0.929 . S
H833 C842 0.930 . S
H834 C844 0.930 . S
H835 C847 0.929 . S
H836 C850 0.930 . S
H837 C852 0.960 . S
H838 C852 0.960 . S
H839 C852 0.960 . S
C840 H832 0.929 . S
C840 C841 1.377 . S
C840 C842 1.384 . S
C841 C840 1.377 . S
C841 C847 1.390 . S
C842 H833 0.930 . S
C842 C840 1.384 . S
C842 C843 1.372 . S
C843 C842 1.372 . S
C843 C844 1.400 . S
C843 C848 1.490 . S
C844 H834 0.930 . S
C844 C843 1.400 . S
C844 C847 1.386 . S
H845 C861 0.930 . S
H846 C862 0.931 . S
C847 H835 0.929 . S
C847 C841 1.390 . S
C847 C844 1.386 . S
C848 C843 1.490 . S
C848 C850 1.395 . S
C848 C851 1.403 . S
H849 C855 0.930 . S
C850 H836 0.930 . S
C850 C848 1.395 . S
C850 C853 1.403 . S
C851 C848 1.403 . S
C851 C852 1.524 . S
C851 C855 1.400 . S
C852 H837 0.960 . S
C852 H838 0.960 . S
C852 H839 0.960 . S
C852 C851 1.524 . S
C853 C850 1.403 . S
C853 C854 1.392 . S
C853 C857 1.495 . S
C854 C853 1.392 . S
C854 C855 1.385 . S
C854 C856 1.478 . S
C855 H849 0.930 . S
C855 C851 1.400 . S
C855 C854 1.385 . S
C856 C854 1.478 . S
C856 C858 1.381 . S
C856 C862 1.383 . S
C857 C853 1.495 . S
C857 H863 0.959 . S
C857 H864 0.961 . S
C857 H865 0.960 . S
C858 C856 1.381 . S
C858 C859 1.394 . S
C858 H866 0.930 . S
C859 C858 1.394 . S
C859 C860 1.383 . S
C859 H867 0.929 . S
C860 C859 1.383 . S
C860 C861 1.377 . S
C861 H845 0.930 . S
C861 C860 1.377 . S
C861 C862 1.379 . S
C862 H846 0.931 . S
C862 C856 1.383 . S
C862 C861 1.379 . S
H863 C857 0.959 . S
H864 C857 0.961 . S
H865 C857 0.960 . S
H866 C858 0.930 . S
H867 C859 0.929 . S
H868 C876 0.929 . S
H869 C878 0.930 . S
H870 C880 0.930 . S
H871 C883 0.929 . S
H872 C886 0.930 . S
H873 C888 0.960 . S
H874 C888 0.960 . S
H875 C888 0.960 . S
C876 H868 0.929 . S
C876 C877 1.377 . S
C876 C878 1.384 . S
C877 C876 1.377 . S
C877 C883 1.390 . S
C878 H869 0.930 . S
C878 C876 1.384 . S
C878 C879 1.372 . S
C879 C878 1.372 . S
C879 C880 1.400 . S
C879 C884 1.490 . S
C880 H870 0.930 . S
C880 C879 1.400 . S
C880 C883 1.386 . S
H881 C897 0.930 . S
H882 C898 0.931 . S
C883 H871 0.929 . S
C883 C877 1.390 . S
C883 C880 1.386 . S
C884 C879 1.490 . S
C884 C886 1.395 . S
C884 C887 1.403 . S
H885 C891 0.930 . S
C886 H872 0.930 . S
C886 C884 1.395 . S
C886 C889 1.403 . S
C887 C884 1.403 . S
C887 C888 1.524 . S
C887 C891 1.400 . S
C888 H873 0.960 . S
C888 H874 0.960 . S
C888 H875 0.960 . S
C888 C887 1.524 . S
C889 C886 1.403 . S
C889 C890 1.392 . S
C889 C893 1.495 . S
C890 C889 1.392 . S
C890 C891 1.385 . S
C890 C892 1.478 . S
C891 H885 0.930 . S
C891 C887 1.400 . S
C891 C890 1.385 . S
C892 C890 1.478 . S
C892 C894 1.381 . S
C892 C898 1.383 . S
C893 C889 1.495 . S
C893 H899 0.959 . S
C893 H900 0.961 . S
C893 H901 0.960 . S
C894 C892 1.381 . S
C894 C895 1.394 . S
C894 H902 0.930 . S
C895 C894 1.394 . S
C895 C896 1.383 . S
C895 H903 0.929 . S
C896 C895 1.383 . S
C896 C897 1.377 . S
C897 H881 0.930 . S
C897 C896 1.377 . S
C897 C898 1.379 . S
C898 H882 0.931 . S
C898 C892 1.383 . S
C898 C897 1.379 . S
H899 C893 0.959 . S
H900 C893 0.961 . S
H901 C893 0.960 . S
H902 C894 0.930 . S
H903 C895 0.929 . S
H904 C912 0.929 . S
H905 C914 0.930 . S
H906 C916 0.930 . S
H907 C919 0.929 . S
H908 C922 0.930 . S
H909 C924 0.960 . S
H910 C924 0.960 . S
H911 C924 0.960 . S
C912 H904 0.929 . S
C912 C913 1.377 . S
C912 C914 1.384 . S
C913 C912 1.377 . S
C913 C919 1.390 . S
C914 H905 0.930 . S
C914 C912 1.384 . S
C914 C915 1.372 . S
C915 C914 1.372 . S
C915 C916 1.400 . S
C915 C920 1.490 . S
C916 H906 0.930 . S
C916 C915 1.400 . S
C916 C919 1.386 . S
H917 C933 0.930 . S
H918 C934 0.931 . S
C919 H907 0.929 . S
C919 C913 1.390 . S
C919 C916 1.386 . S
C920 C915 1.490 . S
C920 C922 1.395 . S
C920 C923 1.403 . S
H921 C927 0.930 . S
C922 H908 0.930 . S
C922 C920 1.395 . S
C922 C925 1.403 . S
C923 C920 1.403 . S
C923 C924 1.524 . S
C923 C927 1.400 . S
C924 H909 0.960 . S
C924 H910 0.960 . S
C924 H911 0.960 . S
C924 C923 1.524 . S
C925 C922 1.403 . S
C925 C926 1.392 . S
C925 C929 1.495 . S
C926 C925 1.392 . S
C926 C927 1.385 . S
C926 C928 1.478 . S
C927 H921 0.930 . S
C927 C923 1.400 . S
C927 C926 1.385 . S
C928 C926 1.478 . S
C928 C930 1.381 . S
C928 C934 1.383 . S
C929 C925 1.495 . S
C929 H935 0.959 . S
C929 H936 0.961 . S
C929 H937 0.960 . S
C930 C928 1.381 . S
C930 C931 1.394 . S
C930 H938 0.930 . S
C931 C930 1.394 . S
C931 C932 1.383 . S
C931 H939 0.929 . S
C932 C931 1.383 . S
C932 C933 1.377 . S
C933 H917 0.930 . S
C933 C932 1.377 . S
C933 C934 1.379 . S
C934 H918 0.931 . S
C934 C928 1.383 . S
C934 C933 1.379 . S
H935 C929 0.959 . S
H936 C929 0.961 . S
H937 C929 0.960 . S
H938 C930 0.930 . S
H939 C931 0.929 . S
H940 C948 0.929 . S
H941 C950 0.930 . S
H942 C952 0.930 . S
H943 C955 0.929 . S
H944 C958 0.930 . S
H945 C960 0.960 . S
H946 C960 0.960 . S
H947 C960 0.960 . S
C948 H940 0.929 . S
C948 C949 1.377 . S
C948 C950 1.384 . S
C949 C948 1.377 . S
C949 C955 1.390 . S
C950 H941 0.930 . S
C950 C948 1.384 . S
C950 C951 1.372 . S
C951 C950 1.372 . S
C951 C952 1.400 . S
C951 C956 1.490 . S
C952 H942 0.930 . S
C952 C951 1.400 . S
C952 C955 1.386 . S
H953 C969 0.930 . S
H954 C970 0.931 . S
C955 H943 0.929 . S
C955 C949 1.390 . S
C955 C952 1.386 . S
C956 C951 1.490 . S
C956 C958 1.395 . S
C956 C959 1.403 . S
H957 C963 0.930 . S
C958 H944 0.930 . S
C958 C956 1.395 . S
C958 C961 1.403 1_556 S
C959 C956 1.403 . S
C959 C960 1.524 . S
C959 C963 1.400 1_556 S
C960 H945 0.960 . S
C960 H946 0.960 . S
C960 H947 0.960 . S
C960 C959 1.524 . S
C961 C958 1.403 1_554 S
C961 C962 1.392 . S
C961 C965 1.495 . S
C962 C961 1.392 . S
C962 C963 1.385 . S
C962 C964 1.478 . S
C963 H957 0.930 . S
C963 C959 1.400 1_554 S
C963 C962 1.385 . S
C964 C962 1.478 . S
C964 C966 1.381 . S
C964 C970 1.383 . S
C965 C961 1.495 . S
C965 H971 0.959 . S
C965 H972 0.961 . S
C965 H973 0.960 . S
C966 C964 1.381 . S
C966 C967 1.394 . S
C966 H974 0.930 . S
C967 C966 1.394 . S
C967 C968 1.383 . S
C967 H975 0.929 . S
C968 C967 1.383 . S
C968 C969 1.377 . S
C969 H953 0.930 . S
C969 C968 1.377 . S
C969 C970 1.379 . S
C970 H954 0.931 . S
C970 C964 1.383 . S
C970 C969 1.379 . S
H971 C965 0.959 . S
H972 C965 0.961 . S
H973 C965 0.960 . S
H974 C966 0.930 . S
H975 C967 0.929 . S
H976 C984 0.929 . S
H977 C986 0.930 . S
H978 C988 0.930 . S
H979 C991 0.929 . S
H980 C994 0.930 . S
H981 C996 0.960 . S
H982 C996 0.960 . S
H983 C996 0.960 . S
C984 H976 0.929 . S
C984 C985 1.377 . S
C984 C986 1.384 . S
C985 C984 1.377 . S
C985 C991 1.390 . S
C986 H977 0.930 . S
C986 C984 1.384 . S
C986 C987 1.372 . S
C987 C986 1.372 . S
C987 C988 1.400 . S
C987 C992 1.490 . S
C988 H978 0.930 . S
C988 C987 1.400 . S
C988 C991 1.386 . S
H989 C1005 0.930 . S
H990 C1006 0.931 . S
C991 H979 0.929 . S
C991 C985 1.390 . S
C991 C988 1.386 . S
C992 C987 1.490 . S
C992 C994 1.395 . S
C992 C995 1.403 . S
H993 C999 0.930 . S
C994 H980 0.930 . S
C994 C992 1.395 . S
C994 C997 1.403 . S
C995 C992 1.403 . S
C995 C996 1.524 . S
C995 C999 1.400 . S
C996 H981 0.960 . S
C996 H982 0.960 . S
C996 H983 0.960 . S
C996 C995 1.524 . S
C997 C994 1.403 . S
C997 C998 1.392 . S
C997 C1001 1.495 . S
C998 C997 1.392 . S
C998 C999 1.385 . S
C998 C1000 1.478 . S
C999 H993 0.930 . S
C999 C995 1.400 . S
C999 C998 1.385 . S
C1000 C998 1.478 . S
C1000 C1002 1.381 . S
C1000 C1006 1.383 . S
C1001 C997 1.495 . S
C1001 H1007 0.959 . S
C1001 H1008 0.961 . S
C1001 H1009 0.960 . S
C1002 C1000 1.381 . S
C1002 C1003 1.394 . S
C1002 H1010 0.930 . S
C1003 C1002 1.394 . S
C1003 C1004 1.383 . S
C1003 H1011 0.929 . S
C1004 C1003 1.383 . S
C1004 C1005 1.377 . S
C1005 H989 0.930 . S
C1005 C1004 1.377 . S
C1005 C1006 1.379 . S
C1006 H990 0.931 . S
C1006 C1000 1.383 . S
C1006 C1005 1.379 . S
H1007 C1001 0.959 . S
H1008 C1001 0.961 . S
H1009 C1001 0.960 . S
H1010 C1002 0.930 . S
H1011 C1003 0.929 . S
H1012 C1020 0.929 . S
H1013 C1022 0.930 . S
H1014 C1024 0.930 . S
H1015 C1027 0.929 . S
H1016 C1030 0.930 . S
H1017 C1032 0.960 . S
H1018 C1032 0.960 . S
H1019 C1032 0.960 . S
C1020 H1012 0.929 . S
C1020 C1021 1.377 . S
C1020 C1022 1.384 . S
C1021 C1020 1.377 . S
C1021 C1027 1.390 . S
C1022 H1013 0.930 . S
C1022 C1020 1.384 . S
C1022 C1023 1.372 . S
C1023 C1022 1.372 . S
C1023 C1024 1.400 . S
C1023 C1028 1.490 . S
C1024 H1014 0.930 . S
C1024 C1023 1.400 . S
C1024 C1027 1.386 . S
H1025 C1041 0.930 . S
H1026 C1042 0.931 . S
C1027 H1015 0.929 . S
C1027 C1021 1.390 . S
C1027 C1024 1.386 . S
C1028 C1023 1.490 . S
C1028 C1030 1.395 . S
C1028 C1031 1.403 . S
H1029 C1035 0.930 . S
C1030 H1016 0.930 . S
C1030 C1028 1.395 . S
C1030 C1033 1.403 . S
C1031 C1028 1.403 . S
C1031 C1032 1.524 . S
C1031 C1035 1.400 . S
C1032 H1017 0.960 . S
C1032 H1018 0.960 . S
C1032 H1019 0.960 . S
C1032 C1031 1.524 . S
C1033 C1030 1.403 . S
C1033 C1034 1.392 1_545 S
C1033 C1037 1.495 1_545 S
C1034 C1033 1.392 1_565 S
C1034 C1035 1.385 1_565 S
C1034 C1036 1.478 . S
C1035 H1029 0.930 . S
C1035 C1031 1.400 . S
C1035 C1034 1.385 1_545 S
C1036 C1034 1.478 . S
C1036 C1038 1.381 . S
C1036 C1042 1.383 . S
C1037 C1033 1.495 1_565 S
C1037 H1043 0.964 . S
C1037 H1044 0.961 . S
C1037 H1045 0.960 . S
C1038 C1036 1.381 . S
C1038 C1039 1.394 . S
C1038 H1046 0.930 . S
C1039 C1038 1.394 . S
C1039 C1040 1.383 . S
C1039 H1047 0.929 . S
C1040 C1039 1.383 . S
C1040 C1041 1.377 . S
C1041 H1025 0.930 . S
C1041 C1040 1.377 . S
C1041 C1042 1.379 . S
C1042 H1026 0.931 . S
C1042 C1036 1.383 . S
C1042 C1041 1.379 . S
H1043 C1037 0.964 . S
H1044 C1037 0.961 . S
H1045 C1037 0.960 . S
H1046 C1038 0.930 . S
H1047 C1039 0.929 . S
H1048 C1056 0.929 1_545 S
H1049 C1058 0.930 . S
H1050 C1060 0.930 . S
H1051 C1063 0.929 . S
H1052 C1066 0.930 . S
H1053 C1068 0.960 . S
H1054 C1068 0.960 . S
H1055 C1068 0.960 . S
C1056 H1048 0.929 1_565 S
C1056 C1057 1.377 . S
C1056 C1058 1.384 . S
C1057 C1056 1.377 . S
C1057 C1063 1.390 . S
C1058 H1049 0.930 . S
C1058 C1056 1.384 . S
C1058 C1059 1.372 . S
C1059 C1058 1.372 . S
C1059 C1060 1.400 . S
C1059 C1064 1.490 . S
C1060 H1050 0.930 . S
C1060 C1059 1.400 . S
C1060 C1063 1.386 . S
H1061 C1077 0.930 . S
H1062 C1078 0.931 . S
C1063 H1051 0.929 . S
C1063 C1057 1.390 . S
C1063 C1060 1.386 . S
C1064 C1059 1.490 . S
C1064 C1066 1.395 . S
C1064 C1067 1.403 . S
H1065 C1071 0.930 . S
C1066 H1052 0.930 . S
C1066 C1064 1.395 . S
C1066 C1069 1.403 . S
C1067 C1064 1.403 . S
C1067 C1068 1.524 . S
C1067 C1071 1.400 . S
C1068 H1053 0.960 . S
C1068 H1054 0.960 . S
C1068 H1055 0.960 . S
C1068 C1067 1.524 . S
C1069 C1066 1.403 . S
C1069 C1070 1.392 . S
C1069 C1073 1.495 . S
C1070 C1069 1.392 . S
C1070 C1071 1.385 . S
C1070 C1072 1.478 . S
C1071 H1065 0.930 . S
C1071 C1067 1.400 . S
C1071 C1070 1.385 . S
C1072 C1070 1.478 . S
C1072 C1074 1.381 . S
C1072 C1078 1.383 . S
C1073 C1069 1.495 . S
C1073 H1079 0.959 . S
C1073 H1080 0.961 . S
C1073 H1081 0.960 . S
C1074 C1072 1.381 . S
C1074 C1075 1.394 . S
C1074 H1082 0.930 . S
C1075 C1074 1.394 . S
C1075 C1076 1.383 . S
C1075 H1083 0.929 . S
C1076 C1075 1.383 . S
C1076 C1077 1.377 . S
C1077 H1061 0.930 . S
C1077 C1076 1.377 . S
C1077 C1078 1.379 . S
C1078 H1062 0.931 . S
C1078 C1072 1.383 . S
C1078 C1077 1.379 . S
H1079 C1073 0.959 . S
H1080 C1073 0.961 . S
H1081 C1073 0.960 . S
H1082 C1074 0.930 . S
H1083 C1075 0.929 . S
H1084 C1092 0.929 . S
H1085 C1094 0.930 . S
H1086 C1096 0.930 . S
H1087 C1099 0.929 . S
H1088 C1102 0.930 . S
H1089 C1104 0.960 1_545 S
H1090 C1104 0.960 . S
H1091 C1104 0.960 . S
C1092 H1084 0.929 . S
C1092 C1093 1.377 . S
C1092 C1094 1.384 . S
C1093 C1092 1.377 . S
C1093 C1099 1.390 . S
C1094 H1085 0.930 . S
C1094 C1092 1.384 . S
C1094 C1095 1.372 . S
C1095 C1094 1.372 . S
C1095 C1096 1.400 . S
C1095 C1100 1.490 . S
C1096 H1086 0.930 . S
C1096 C1095 1.400 . S
C1096 C1099 1.386 . S
H1097 C1113 0.930 . S
H1098 C1114 0.931 . S
C1099 H1087 0.929 . S
C1099 C1093 1.390 . S
C1099 C1096 1.386 . S
C1100 C1095 1.490 . S
C1100 C1102 1.395 . S
C1100 C1103 1.403 . S
H1101 C1107 0.930 . S
C1102 H1088 0.930 . S
C1102 C1100 1.395 . S
C1102 C1105 1.403 . S
C1103 C1100 1.403 . S
C1103 C1104 1.524 . S
C1103 C1107 1.400 1_565 S
C1104 H1089 0.960 1_565 S
C1104 H1090 0.960 . S
C1104 H1091 0.960 . S
C1104 C1103 1.524 . S
C1105 C1102 1.403 . S
C1105 C1106 1.392 1_565 S
C1105 C1109 1.495 . S
C1106 C1105 1.392 1_545 S
C1106 C1107 1.385 . S
C1106 C1108 1.478 . S
C1107 H1101 0.930 . S
C1107 C1103 1.400 1_545 S
C1107 C1106 1.385 . S
C1108 C1106 1.478 . S
C1108 C1110 1.381 . S
C1108 C1114 1.383 . S
C1109 C1105 1.495 . S
C1109 H1115 0.959 . S
C1109 H1116 0.961 . S
C1109 H1117 0.980 . S
C1110 C1108 1.381 . S
C1110 C1111 1.394 . S
C1110 H1118 0.930 . S
C1111 C1110 1.394 . S
C1111 C1112 1.383 . S
C1111 H1119 0.929 . S
C1112 C1111 1.383 . S
C1112 C1113 1.377 . S
C1113 H1097 0.930 . S
C1113 C1112 1.377 . S
C1113 C1114 1.379 . S
C1114 H1098 0.931 . S
C1114 C1108 1.383 . S
C1114 C1113 1.379 . S
H1115 C1109 0.959 . S
H1116 C1109 0.961 . S
H1117 C1109 0.980 . S
H1118 C1110 0.930 . S
H1119 C1111 0.929 . S
H1120 C1128 0.929 . S
H1121 C1130 0.930 . S
H1122 C1132 0.930 . S
H1123 C1135 0.929 1_545 S
H1124 C1138 0.930 . S
H1125 C1140 0.960 . S
H1126 C1140 0.960 . S
H1127 C1140 0.960 . S
C1128 H1120 0.929 . S
C1128 C1129 1.377 . S
C1128 C1130 1.384 . S
C1129 C1128 1.377 . S
C1129 C1135 1.390 . S
C1130 H1121 0.930 . S
C1130 C1128 1.384 . S
C1130 C1131 1.372 . S
C1131 C1130 1.372 . S
C1131 C1132 1.400 . S
C1131 C1136 1.490 . S
C1132 H1122 0.930 . S
C1132 C1131 1.400 . S
C1132 C1135 1.386 . S
H1133 C1149 0.930 . S
H1134 C1150 0.931 . S
C1135 H1123 0.929 1_565 S
C1135 C1129 1.390 . S
C1135 C1132 1.386 . S
C1136 C1131 1.490 . S
C1136 C1138 1.395 . S
C1136 C1139 1.403 . S
H1137 C1143 0.930 . S
C1138 H1124 0.930 . S
C1138 C1136 1.395 . S
C1138 C1141 1.403 . S
C1139 C1136 1.403 . S
C1139 C1140 1.524 . S
C1139 C1143 1.400 . S
C1140 H1125 0.960 . S
C1140 H1126 0.960 . S
C1140 H1127 0.960 . S
C1140 C1139 1.524 . S
C1141 C1138 1.403 . S
C1141 C1142 1.392 . S
C1141 C1145 1.495 . S
C1142 C1141 1.392 . S
C1142 C1143 1.385 . S
C1142 C1144 1.478 . S
C1143 H1137 0.930 . S
C1143 C1139 1.400 . S
C1143 C1142 1.385 . S
C1144 C1142 1.478 . S
C1144 C1146 1.381 . S
C1144 C1150 1.383 . S
C1145 C1141 1.495 . S
C1145 H1151 0.959 . S
C1145 H1152 0.961 . S
C1145 H1153 0.960 . S
C1146 C1144 1.381 . S
C1146 C1147 1.394 . S
C1146 H1154 0.930 . S
C1147 C1146 1.394 . S
C1147 C1148 1.383 . S
C1147 H1155 0.929 . S
C1148 C1147 1.383 . S
C1148 C1149 1.377 . S
C1149 H1133 0.930 . S
C1149 C1148 1.377 . S
C1149 C1150 1.379 . S
C1150 H1134 0.931 . S
C1150 C1144 1.383 . S
C1150 C1149 1.379 . S
H1151 C1145 0.959 . S
H1152 C1145 0.961 . S
H1153 C1145 0.960 . S
H1154 C1146 0.930 . S
H1155 C1147 0.929 . S
H1156 C1164 0.929 . S
H1157 C1166 0.930 . S
H1158 C1168 0.930 . S
H1159 C1171 0.929 . S
H1160 C1174 0.930 . S
H1161 C1176 0.960 . S
H1162 C1176 0.960 . S
H1163 C1176 0.960 . S
C1164 H1156 0.929 . S
C1164 C1165 1.377 . S
C1164 C1166 1.384 . S
C1165 C1164 1.377 . S
C1165 C1171 1.390 . S
C1166 H1157 0.930 . S
C1166 C1164 1.384 . S
C1166 C1167 1.372 . S
C1167 C1166 1.372 . S
C1167 C1168 1.400 . S
C1167 C1172 1.490 . S
C1168 H1158 0.930 . S
C1168 C1167 1.400 . S
C1168 C1171 1.386 . S
H1169 C1185 0.930 . S
H1170 C1186 0.931 . S
C1171 H1159 0.929 . S
C1171 C1165 1.390 . S
C1171 C1168 1.386 . S
C1172 C1167 1.490 . S
C1172 C1174 1.395 . S
C1172 C1175 1.403 . S
H1173 C1179 0.930 . S
C1174 H1160 0.930 . S
C1174 C1172 1.395 . S
C1174 C1177 1.403 . S
C1175 C1172 1.403 . S
C1175 C1176 1.524 . S
C1175 C1179 1.400 . S
C1176 H1161 0.960 . S
C1176 H1162 0.960 . S
C1176 H1163 0.960 . S
C1176 C1175 1.524 . S
C1177 C1174 1.403 . S
C1177 C1178 1.392 1_545 S
C1177 C1181 1.495 1_545 S
C1178 C1177 1.392 1_565 S
C1178 C1179 1.385 1_565 S
C1178 C1180 1.478 . S
C1179 H1173 0.930 . S
C1179 C1175 1.400 . S
C1179 C1178 1.385 1_545 S
C1180 C1178 1.478 . S
C1180 C1182 1.381 . S
C1180 C1186 1.383 . S
C1181 C1177 1.495 1_565 S
C1181 H1187 0.959 . S
C1181 H1188 0.961 . S
C1181 H1189 0.960 . S
C1182 C1180 1.381 . S
C1182 C1183 1.394 . S
C1182 H1190 0.930 . S
C1183 C1182 1.394 . S
C1183 C1184 1.383 . S
C1183 H1191 0.929 . S
C1184 C1183 1.383 . S
C1184 C1185 1.377 . S
C1185 H1169 0.930 . S
C1185 C1184 1.377 . S
C1185 C1186 1.379 . S
C1186 H1170 0.931 . S
C1186 C1180 1.383 . S
C1186 C1185 1.379 . S
H1187 C1181 0.959 . S
H1188 C1181 0.961 . S
H1189 C1181 0.960 . S
H1190 C1182 0.930 . S
H1191 C1183 0.929 . S
H1192 C1200 0.929 . S
H1193 C1202 0.930 . S
H1194 C1204 0.930 . S
H1195 C1207 0.929 . S
H1196 C1210 0.930 . S
H1197 C1212 0.960 . S
H1198 C1212 0.960 . S
H1199 C1212 0.960 . S
C1200 H1192 0.929 . S
C1200 C1201 1.377 . S
C1200 C1202 1.384 . S
C1201 C1200 1.377 . S
C1201 C1207 1.390 . S
C1202 H1193 0.930 . S
C1202 C1200 1.384 . S
C1202 C1203 1.372 . S
C1203 C1202 1.372 . S
C1203 C1204 1.400 . S
C1203 C1208 1.490 . S
C1204 H1194 0.930 . S
C1204 C1203 1.400 . S
C1204 C1207 1.386 . S
H1205 C1221 0.930 . S
H1206 C1222 0.931 . S
C1207 H1195 0.929 . S
C1207 C1201 1.390 . S
C1207 C1204 1.386 . S
C1208 C1203 1.490 . S
C1208 C1210 1.395 . S
C1208 C1211 1.403 . S
H1209 C1215 0.930 . S
C1210 H1196 0.930 . S
C1210 C1208 1.395 . S
C1210 C1213 1.403 . S
C1211 C1208 1.403 . S
C1211 C1212 1.524 . S
C1211 C1215 1.400 . S
C1212 H1197 0.960 . S
C1212 H1198 0.960 . S
C1212 H1199 0.960 . S
C1212 C1211 1.524 . S
C1213 C1210 1.403 . S
C1213 C1214 1.392 . S
C1213 C1217 1.495 . S
C1214 C1213 1.392 . S
C1214 C1215 1.385 . S
C1214 C1216 1.478 . S
C1215 H1209 0.930 . S
C1215 C1211 1.400 . S
C1215 C1214 1.385 . S
C1216 C1214 1.478 . S
C1216 C1218 1.381 . S
C1216 C1222 1.383 . S
C1217 C1213 1.495 . S
C1217 H1223 0.959 . S
C1217 H1224 0.961 . S
C1217 H1225 0.960 . S
C1218 C1216 1.381 . S
C1218 C1219 1.394 . S
C1218 H1226 0.930 . S
C1219 C1218 1.394 . S
C1219 C1220 1.383 . S
C1219 H1227 0.929 . S
C1220 C1219 1.383 . S
C1220 C1221 1.377 . S
C1221 H1205 0.930 . S
C1221 C1220 1.377 . S
C1221 C1222 1.379 . S
C1222 H1206 0.931 . S
C1222 C1216 1.383 . S
C1222 C1221 1.379 . S
H1223 C1217 0.959 . S
H1224 C1217 0.961 . S
H1225 C1217 0.960 . S
H1226 C1218 0.930 . S
H1227 C1219 0.929 . S
H1228 C1236 0.929 . S
H1229 C1238 0.930 . S
H1230 C1240 0.930 . S
H1231 C1243 0.929 . S
H1232 C1246 0.930 . S
H1233 C1248 0.960 1_545 S
H1234 C1248 0.960 . S
H1235 C1248 0.960 . S
C1236 H1228 0.929 . S
C1236 C1237 1.377 . S
C1236 C1238 1.384 . S
C1237 C1236 1.377 . S
C1237 C1243 1.390 . S
C1238 H1229 0.930 . S
C1238 C1236 1.384 . S
C1238 C1239 1.372 . S
C1239 C1238 1.372 . S
C1239 C1240 1.400 . S
C1239 C1244 1.490 . S
C1240 H1230 0.930 . S
C1240 C1239 1.400 . S
C1240 C1243 1.386 . S
H1241 C1257 0.930 . S
H1242 C1258 0.931 . S
C1243 H1231 0.929 . S
C1243 C1237 1.390 . S
C1243 C1240 1.386 . S
C1244 C1239 1.490 . S
C1244 C1246 1.395 . S
C1244 C1247 1.403 . S
H1245 C1251 0.930 . S
C1246 H1232 0.930 . S
C1246 C1244 1.395 . S
C1246 C1249 1.403 . S
C1247 C1244 1.403 . S
C1247 C1248 1.524 . S
C1247 C1251 1.400 1_565 S
C1248 H1233 0.960 1_565 S
C1248 H1234 0.960 . S
C1248 H1235 0.960 . S
C1248 C1247 1.524 . S
C1249 C1246 1.403 . S
C1249 C1250 1.392 1_565 S
C1249 C1253 1.495 . S
C1250 C1249 1.392 1_545 S
C1250 C1251 1.385 . S
C1250 C1252 1.478 . S
C1251 H1245 0.930 . S
C1251 C1247 1.400 1_545 S
C1251 C1250 1.385 . S
C1252 C1250 1.478 . S
C1252 C1254 1.381 . S
C1252 C1258 1.383 . S
C1253 C1249 1.495 . S
C1253 H1259 0.959 . S
C1253 H1260 0.961 . S
C1253 H1261 0.960 . S
C1254 C1252 1.381 . S
C1254 C1255 1.394 . S
C1254 H1262 0.930 . S
C1255 C1254 1.394 . S
C1255 C1256 1.383 . S
C1255 H1263 0.929 . S
C1256 C1255 1.383 . S
C1256 C1257 1.377 . S
C1257 H1241 0.930 . S
C1257 C1256 1.377 . S
C1257 C1258 1.379 . S
C1258 H1242 0.931 . S
C1258 C1252 1.383 . S
C1258 C1257 1.379 . S
H1259 C1253 0.959 . S
H1260 C1253 0.961 . S
H1261 C1253 0.960 . S
H1262 C1254 0.930 . S
H1263 C1255 0.929 . S
H1264 C1272 0.929 . S
H1265 C1274 0.930 . S
H1266 C1276 0.930 . S
H1267 C1279 0.929 . S
H1268 C1282 0.930 . S
H1269 C1284 0.960 . S
H1270 C1284 0.960 . S
H1271 C1284 0.960 . S
C1272 H1264 0.929 . S
C1272 C1273 1.377 . S
C1272 C1274 1.384 . S
C1273 C1272 1.377 . S
C1273 C1279 1.390 . S
C1274 H1265 0.930 . S
C1274 C1272 1.384 . S
C1274 C1275 1.372 . S
C1275 C1274 1.372 . S
C1275 C1276 1.400 . S
C1275 C1280 1.490 . S
C1276 H1266 0.930 . S
C1276 C1275 1.400 . S
C1276 C1279 1.386 . S
H1277 C1293 0.930 . S
H1278 C1294 0.931 . S
C1279 H1267 0.929 . S
C1279 C1273 1.390 . S
C1279 C1276 1.386 . S
C1280 C1275 1.490 . S
C1280 C1282 1.395 . S
C1280 C1283 1.403 . S
H1281 C1287 0.930 . S
C1282 H1268 0.930 . S
C1282 C1280 1.395 . S
C1282 C1285 1.403 . S
C1283 C1280 1.403 . S
C1283 C1284 1.524 . S
C1283 C1287 1.400 . S
C1284 H1269 0.960 . S
C1284 H1270 0.960 . S
C1284 H1271 0.960 . S
C1284 C1283 1.524 . S
C1285 C1282 1.403 . S
C1285 C1286 1.392 . S
C1285 C1289 1.495 . S
C1286 C1285 1.392 . S
C1286 C1287 1.385 . S
C1286 C1288 1.478 . S
C1287 H1281 0.930 . S
C1287 C1283 1.400 . S
C1287 C1286 1.385 . S
C1288 C1286 1.478 . S
C1288 C1290 1.381 . S
C1288 C1294 1.383 . S
C1289 C1285 1.495 . S
C1289 H1295 0.959 . S
C1289 H1296 0.961 . S
C1289 H1297 0.960 . S
C1290 C1288 1.381 . S
C1290 C1291 1.394 . S
C1290 H1298 0.930 . S
C1291 C1290 1.394 . S
C1291 C1292 1.383 . S
C1291 H1299 0.929 . S
C1292 C1291 1.383 . S
C1292 C1293 1.377 . S
C1293 H1277 0.930 . S
C1293 C1292 1.377 . S
C1293 C1294 1.379 . S
C1294 H1278 0.931 . S
C1294 C1288 1.383 . S
C1294 C1293 1.379 . S
H1295 C1289 0.959 . S
H1296 C1289 0.961 . S
H1297 C1289 0.960 . S
H1298 C1290 0.930 . S
H1299 C1291 0.929 . S
H1300 C1308 0.929 . S
H1301 C1310 0.930 . S
H1302 C1312 0.930 . S
H1303 C1315 0.929 . S
H1304 C1318 0.930 . S
H1305 C1320 0.960 . S
H1306 C1320 0.960 . S
H1307 C1320 0.960 . S
C1308 H1300 0.929 . S
C1308 C1309 1.377 . S
C1308 C1310 1.384 . S
C1309 C1308 1.377 . S
C1309 C1315 1.390 . S
C1310 H1301 0.930 . S
C1310 C1308 1.384 . S
C1310 C1311 1.372 . S
C1311 C1310 1.372 . S
C1311 C1312 1.400 . S
C1311 C1316 1.490 . S
C1312 H1302 0.930 . S
C1312 C1311 1.400 . S
C1312 C1315 1.386 . S
H1313 C1329 0.930 . S
H1314 C1330 0.931 . S
C1315 H1303 0.929 . S
C1315 C1309 1.390 . S
C1315 C1312 1.386 . S
C1316 C1311 1.490 . S
C1316 C1318 1.395 . S
C1316 C1319 1.403 . S
H1317 C1323 0.930 . S
C1318 H1304 0.930 . S
C1318 C1316 1.395 . S
C1318 C1321 1.403 . S
C1319 C1316 1.403 . S
C1319 C1320 1.524 . S
C1319 C1323 1.400 . S
C1320 H1305 0.960 . S
C1320 H1306 0.960 . S
C1320 H1307 0.960 . S
C1320 C1319 1.524 . S
C1321 C1318 1.403 . S
C1321 C1322 1.392 . S
C1321 C1325 1.495 . S
C1322 C1321 1.392 . S
C1322 C1323 1.385 . S
C1322 C1324 1.478 . S
C1323 H1317 0.930 . S
C1323 C1319 1.400 . S
C1323 C1322 1.385 . S
C1324 C1322 1.478 . S
C1324 C1326 1.381 . S
C1324 C1330 1.383 . S
C1325 C1321 1.495 . S
C1325 H1331 0.959 . S
C1325 H1332 0.961 . S
C1325 H1333 0.960 . S
C1326 C1324 1.381 . S
C1326 C1327 1.394 . S
C1326 H1334 0.930 . S
C1327 C1326 1.394 . S
C1327 C1328 1.383 . S
C1327 H1335 0.929 . S
C1328 C1327 1.383 . S
C1328 C1329 1.377 . S
C1329 H1313 0.930 . S
C1329 C1328 1.377 . S
C1329 C1330 1.379 . S
C1330 H1314 0.931 . S
C1330 C1324 1.383 . S
C1330 C1329 1.379 . S
H1331 C1325 0.959 . S
H1332 C1325 0.961 . S
H1333 C1325 0.960 . S
H1334 C1326 0.930 . S
H1335 C1327 0.929 . S
H1336 C1344 0.929 . S
H1337 C1346 0.930 . S
H1338 C1348 0.930 . S
H1339 C1351 0.929 . S
H1340 C1354 0.930 . S
H1341 C1356 0.960 . S
H1342 C1356 0.960 . S
H1343 C1356 0.960 . S
C1344 H1336 0.929 . S
C1344 C1345 1.377 . S
C1344 C1346 1.384 . S
C1345 C1344 1.377 . S
C1345 C1351 1.390 . S
C1346 H1337 0.930 . S
C1346 C1344 1.384 . S
C1346 C1347 1.372 . S
C1347 C1346 1.372 . S
C1347 C1348 1.400 . S
C1347 C1352 1.490 . S
C1348 H1338 0.930 . S
C1348 C1347 1.400 . S
C1348 C1351 1.386 . S
H1349 C1365 0.930 . S
H1350 C1366 0.931 . S
C1351 H1339 0.929 . S
C1351 C1345 1.390 . S
C1351 C1348 1.386 . S
C1352 C1347 1.490 . S
C1352 C1354 1.395 . S
C1352 C1355 1.403 . S
H1353 C1359 0.930 . S
C1354 H1340 0.930 . S
C1354 C1352 1.395 . S
C1354 C1357 1.403 1_455 S
C1355 C1352 1.403 . S
C1355 C1356 1.524 . S
C1355 C1359 1.400 . S
C1356 H1341 0.960 . S
C1356 H1342 0.960 . S
C1356 H1343 0.960 . S
C1356 C1355 1.524 . S
C1357 C1354 1.403 1_655 S
C1357 C1358 1.392 . S
C1357 C1361 1.495 . S
C1358 C1357 1.392 . S
C1358 C1359 1.385 1_655 S
C1358 C1360 1.478 . S
C1359 H1353 0.930 . S
C1359 C1355 1.400 . S
C1359 C1358 1.385 1_455 S
C1360 C1358 1.478 . S
C1360 C1362 1.381 . S
C1360 C1366 1.383 . S
C1361 C1357 1.495 . S
C1361 H1367 0.959 . S
C1361 H1368 0.961 . S
C1361 H1369 0.960 . S
C1362 C1360 1.381 . S
C1362 C1363 1.394 . S
C1362 H1370 0.930 . S
C1363 C1362 1.394 . S
C1363 C1364 1.383 . S
C1363 H1371 0.929 . S
C1364 C1363 1.383 . S
C1364 C1365 1.377 . S
C1365 H1349 0.930 . S
C1365 C1364 1.377 . S
C1365 C1366 1.379 . S
C1366 H1350 0.931 . S
C1366 C1360 1.383 . S
C1366 C1365 1.379 . S
H1367 C1361 0.959 . S
H1368 C1361 0.961 . S
H1369 C1361 0.960 . S
H1370 C1362 0.930 . S
H1371 C1363 0.929 . S
H1372 C1380 0.929 . S
H1373 C1382 0.930 . S
H1374 C1384 0.930 . S
H1375 C1387 0.929 . S
H1376 C1390 0.930 . S
H1377 C1392 0.960 . S
H1378 C1392 0.960 . S
H1379 C1392 0.960 . S
C1380 H1372 0.929 . S
C1380 C1381 1.377 . S
C1380 C1382 1.384 . S
C1381 C1380 1.377 . S
C1381 C1387 1.390 . S
C1382 H1373 0.930 . S
C1382 C1380 1.384 . S
C1382 C1383 1.372 . S
C1383 C1382 1.372 . S
C1383 C1384 1.400 . S
C1383 C1388 1.490 . S
C1384 H1374 0.930 . S
C1384 C1383 1.400 . S
C1384 C1387 1.386 . S
H1385 C1401 0.930 . S
H1386 C1402 0.931 . S
C1387 H1375 0.929 . S
C1387 C1381 1.390 . S
C1387 C1384 1.386 . S
C1388 C1383 1.490 . S
C1388 C1390 1.395 . S
C1388 C1391 1.403 . S
H1389 C1395 0.930 . S
C1390 H1376 0.930 . S
C1390 C1388 1.395 . S
C1390 C1393 1.403 . S
C1391 C1388 1.403 . S
C1391 C1392 1.524 . S
C1391 C1395 1.400 . S
C1392 H1377 0.960 . S
C1392 H1378 0.960 . S
C1392 H1379 0.960 . S
C1392 C1391 1.524 . S
C1393 C1390 1.403 . S
C1393 C1394 1.392 . S
C1393 C1397 1.495 . S
C1394 C1393 1.392 . S
C1394 C1395 1.385 . S
C1394 C1396 1.478 . S
C1395 H1389 0.930 . S
C1395 C1391 1.400 . S
C1395 C1394 1.385 . S
C1396 C1394 1.478 . S
C1396 C1398 1.381 . S
C1396 C1402 1.383 . S
C1397 C1393 1.495 . S
C1397 H1403 0.959 . S
C1397 H1404 0.961 . S
C1397 H1405 0.960 . S
C1398 C1396 1.381 . S
C1398 C1399 1.394 . S
C1398 H1406 0.930 . S
C1399 C1398 1.394 . S
C1399 C1400 1.383 . S
C1399 H1407 0.929 . S
C1400 C1399 1.383 . S
C1400 C1401 1.377 . S
C1401 H1385 0.930 . S
C1401 C1400 1.377 . S
C1401 C1402 1.379 . S
C1402 H1386 0.931 . S
C1402 C1396 1.383 . S
C1402 C1401 1.379 . S
H1403 C1397 0.959 . S
H1404 C1397 0.961 . S
H1405 C1397 0.960 . S
H1406 C1398 0.930 . S
H1407 C1399 0.929 . S
H1408 C1416 0.929 . S
H1409 C1418 0.930 . S
H1410 C1420 0.930 . S
H1411 C1423 0.929 . S
H1412 C1426 0.930 . S
H1413 C1428 0.960 1_455 S
H1414 C1428 0.960 . S
H1415 C1428 0.960 . S
C1416 H1408 0.929 . S
C1416 C1417 1.377 . S
C1416 C1418 1.384 . S
C1417 C1416 1.377 . S
C1417 C1423 1.390 . S
C1418 H1409 0.930 . S
C1418 C1416 1.384 . S
C1418 C1419 1.372 . S
C1419 C1418 1.372 . S
C1419 C1420 1.400 . S
C1419 C1424 1.490 . S
C1420 H1410 0.930 . S
C1420 C1419 1.400 . S
C1420 C1423 1.386 . S
H1421 C1437 0.930 . S
H1422 C1438 0.931 . S
C1423 H1411 0.929 . S
C1423 C1417 1.390 . S
C1423 C1420 1.386 . S
C1424 C1419 1.490 . S
C1424 C1426 1.395 . S
C1424 C1427 1.403 . S
H1425 C1431 0.930 . S
C1426 H1412 0.930 . S
C1426 C1424 1.395 . S
C1426 C1429 1.403 . S
C1427 C1424 1.403 . S
C1427 C1428 1.524 . S
C1427 C1431 1.400 1_655 S
C1428 H1413 0.960 1_655 S
C1428 H1414 0.960 . S
C1428 H1415 0.960 . S
C1428 C1427 1.524 . S
C1429 C1426 1.403 . S
C1429 C1430 1.392 1_655 S
C1429 C1433 1.495 . S
C1430 C1429 1.392 1_455 S
C1430 C1431 1.385 . S
C1430 C1432 1.478 . S
C1431 H1425 0.930 . S
C1431 C1427 1.400 1_455 S
C1431 C1430 1.385 . S
C1432 C1430 1.478 . S
C1432 C1434 1.381 . S
C1432 C1438 1.383 . S
C1433 C1429 1.495 . S
C1433 H1439 0.959 . S
C1433 H1440 0.961 . S
C1433 H1441 0.960 . S
C1434 C1432 1.381 . S
C1434 C1435 1.394 . S
C1434 H1442 0.930 . S
C1435 C1434 1.394 . S
C1435 C1436 1.383 . S
C1435 H1443 0.929 . S
C1436 C1435 1.383 . S
C1436 C1437 1.377 . S
C1437 H1421 0.930 . S
C1437 C1436 1.377 . S
C1437 C1438 1.379 . S
C1438 H1422 0.931 . S
C1438 C1432 1.383 . S
C1438 C1437 1.379 . S
H1439 C1433 0.959 . S
H1440 C1433 0.961 . S
H1441 C1433 0.960 . S
H1442 C1434 0.930 . S
H1443 C1435 0.929 . S
H1444 C1452 0.929 . S
H1445 C1454 0.930 . S
H1446 C1456 0.930 . S
H1447 C1459 0.929 . S
H1448 C1462 0.930 . S
H1449 C1464 0.960 . S
H1450 C1464 0.960 . S
H1451 C1464 0.960 . S
C1452 H1444 0.929 . S
C1452 C1453 1.377 . S
C1452 C1454 1.384 . S
C1453 C1452 1.377 . S
C1453 C1459 1.390 . S
C1454 H1445 0.930 . S
C1454 C1452 1.384 . S
C1454 C1455 1.372 . S
C1455 C1454 1.372 . S
C1455 C1456 1.400 . S
C1455 C1460 1.490 . S
C1456 H1446 0.930 . S
C1456 C1455 1.400 . S
C1456 C1459 1.386 . S
H1457 C1473 0.930 . S
H1458 C1474 0.931 . S
C1459 H1447 0.929 . S
C1459 C1453 1.390 . S
C1459 C1456 1.386 . S
C1460 C1455 1.490 . S
C1460 C1462 1.395 . S
C1460 C1463 1.403 . S
H1461 C1467 0.930 . S
C1462 H1448 0.930 . S
C1462 C1460 1.395 . S
C1462 C1465 1.403 . S
C1463 C1460 1.403 . S
C1463 C1464 1.524 . S
C1463 C1467 1.400 . S
C1464 H1449 0.960 . S
C1464 H1450 0.960 . S
C1464 H1451 0.960 . S
C1464 C1463 1.524 . S
C1465 C1462 1.403 . S
C1465 C1466 1.392 . S
C1465 C1469 1.495 . S
C1466 C1465 1.392 . S
C1466 C1467 1.385 . S
C1466 C1468 1.478 . S
C1467 H1461 0.930 . S
C1467 C1463 1.400 . S
C1467 C1466 1.385 . S
C1468 C1466 1.478 . S
C1468 C1470 1.381 . S
C1468 C1474 1.383 . S
C1469 C1465 1.495 . S
C1469 H1475 0.959 . S
C1469 H1476 0.961 . S
C1469 H1477 0.960 . S
C1470 C1468 1.381 . S
C1470 C1471 1.394 . S
C1470 H1478 0.930 . S
C1471 C1470 1.394 . S
C1471 C1472 1.383 . S
C1471 H1479 0.929 . S
C1472 C1471 1.383 . S
C1472 C1473 1.377 . S
C1473 H1457 0.930 . S
C1473 C1472 1.377 . S
C1473 C1474 1.379 . S
C1474 H1458 0.931 . S
C1474 C1468 1.383 . S
C1474 C1473 1.379 . S
H1475 C1469 0.959 . S
H1476 C1469 0.961 . S
H1477 C1469 0.960 . S
H1478 C1470 0.930 . S
H1479 C1471 0.929 . S
H1480 C1488 0.929 . S
H1481 C1490 0.930 . S
H1482 C1492 0.930 . S
H1483 C1495 0.929 . S
H1484 C1498 0.930 . S
H1485 C1500 0.960 1_655 S
H1486 C1500 0.960 . S
H1487 C1500 0.960 . S
C1488 H1480 0.929 . S
C1488 C1489 1.377 . S
C1488 C1490 1.384 . S
C1489 C1488 1.377 . S
C1489 C1495 1.390 . S
C1490 H1481 0.930 . S
C1490 C1488 1.384 . S
C1490 C1491 1.372 . S
C1491 C1490 1.372 . S
C1491 C1492 1.400 . S
C1491 C1496 1.490 . S
C1492 H1482 0.930 . S
C1492 C1491 1.400 . S
C1492 C1495 1.386 . S
H1493 C1509 0.930 . S
H1494 C1510 0.931 . S
C1495 H1483 0.929 . S
C1495 C1489 1.390 . S
C1495 C1492 1.386 . S
C1496 C1491 1.490 . S
C1496 C1498 1.395 . S
C1496 C1499 1.403 . S
H1497 C1503 0.930 . S
C1498 H1484 0.930 . S
C1498 C1496 1.395 . S
C1498 C1501 1.403 . S
C1499 C1496 1.403 . S
C1499 C1500 1.524 . S
C1499 C1503 1.400 1_455 S
C1500 H1485 0.960 1_455 S
C1500 H1486 0.960 . S
C1500 H1487 0.960 . S
C1500 C1499 1.524 . S
C1501 C1498 1.403 . S
C1501 C1502 1.392 1_455 S
C1501 C1505 1.495 . S
C1502 C1501 1.392 1_655 S
C1502 C1503 1.385 . S
C1502 C1504 1.478 . S
C1503 H1497 0.930 . S
C1503 C1499 1.400 1_655 S
C1503 C1502 1.385 . S
C1504 C1502 1.478 . S
C1504 C1506 1.381 . S
C1504 C1510 1.383 . S
C1505 C1501 1.495 . S
C1505 H1511 0.959 . S
C1505 H1512 0.961 . S
C1505 H1513 0.960 . S
C1506 C1504 1.381 . S
C1506 C1507 1.394 . S
C1506 H1514 0.930 . S
C1507 C1506 1.394 . S
C1507 C1508 1.383 . S
C1507 H1515 0.929 . S
C1508 C1507 1.383 . S
C1508 C1509 1.377 . S
C1509 H1493 0.930 . S
C1509 C1508 1.377 . S
C1509 C1510 1.379 . S
C1510 H1494 0.931 . S
C1510 C1504 1.383 . S
C1510 C1509 1.379 . S
H1511 C1505 0.959 . S
H1512 C1505 0.961 . S
H1513 C1505 0.960 . S
H1514 C1506 0.930 . S
H1515 C1507 0.929 . S
H1516 C1524 0.929 . S
H1517 C1526 0.930 . S
H1518 C1528 0.930 . S
H1519 C1531 0.929 . S
H1520 C1534 0.930 . S
H1521 C1536 0.960 . S
H1522 C1536 0.960 . S
H1523 C1536 0.960 . S
C1524 H1516 0.929 . S
C1524 C1525 1.377 . S
C1524 C1526 1.384 . S
C1525 C1524 1.377 . S
C1525 C1531 1.390 . S
C1526 H1517 0.930 . S
C1526 C1524 1.384 . S
C1526 C1527 1.372 . S
C1527 C1526 1.372 . S
C1527 C1528 1.400 . S
C1527 C1532 1.490 . S
C1528 H1518 0.930 . S
C1528 C1527 1.400 . S
C1528 C1531 1.386 . S
H1529 C1545 0.930 . S
H1530 C1546 0.931 . S
C1531 H1519 0.929 . S
C1531 C1525 1.390 . S
C1531 C1528 1.386 . S
C1532 C1527 1.490 . S
C1532 C1534 1.395 . S
C1532 C1535 1.403 . S
H1533 C1539 0.930 . S
C1534 H1520 0.930 . S
C1534 C1532 1.395 . S
C1534 C1537 1.403 . S
C1535 C1532 1.403 . S
C1535 C1536 1.524 . S
C1535 C1539 1.400 . S
C1536 H1521 0.960 . S
C1536 H1522 0.960 . S
C1536 H1523 0.960 . S
C1536 C1535 1.524 . S
C1537 C1534 1.403 . S
C1537 C1538 1.392 . S
C1537 C1541 1.495 . S
C1538 C1537 1.392 . S
C1538 C1539 1.385 . S
C1538 C1540 1.478 . S
C1539 H1533 0.930 . S
C1539 C1535 1.400 . S
C1539 C1538 1.385 . S
C1540 C1538 1.478 . S
C1540 C1542 1.381 . S
C1540 C1546 1.383 . S
C1541 C1537 1.495 . S
C1541 H1547 0.959 . S
C1541 H1548 0.961 . S
C1541 H1549 0.960 . S
C1542 C1540 1.381 . S
C1542 C1543 1.394 . S
C1542 H1550 0.930 . S
C1543 C1542 1.394 . S
C1543 C1544 1.383 . S
C1543 H1551 0.929 . S
C1544 C1543 1.383 . S
C1544 C1545 1.377 . S
C1545 H1529 0.930 . S
C1545 C1544 1.377 . S
C1545 C1546 1.379 . S
C1546 H1530 0.931 . S
C1546 C1540 1.383 . S
C1546 C1545 1.379 . S
H1547 C1541 0.959 . S
H1548 C1541 0.961 . S
H1549 C1541 0.960 . S
H1550 C1542 0.930 . S
H1551 C1543 0.929 . S
H1552 C1560 0.929 . S
H1553 C1562 0.930 . S
H1554 C1564 0.930 . S
H1555 C1567 0.929 . S
H1556 C1570 0.930 . S
H1557 C1572 0.960 . S
H1558 C1572 0.960 . S
H1559 C1572 0.960 . S
C1560 H1552 0.929 . S
C1560 C1561 1.377 . S
C1560 C1562 1.384 . S
C1561 C1560 1.377 . S
C1561 C1567 1.390 . S
C1562 H1553 0.930 . S
C1562 C1560 1.384 . S
C1562 C1563 1.372 . S
C1563 C1562 1.372 . S
C1563 C1564 1.400 . S
C1563 C1568 1.490 . S
C1564 H1554 0.930 . S
C1564 C1563 1.400 . S
C1564 C1567 1.386 . S
H1565 C1581 0.930 . S
H1566 C1582 0.931 . S
C1567 H1555 0.929 . S
C1567 C1561 1.390 . S
C1567 C1564 1.386 . S
C1568 C1563 1.490 . S
C1568 C1570 1.395 . S
C1568 C1571 1.403 . S
H1569 C1575 0.930 . S
C1570 H1556 0.930 . S
C1570 C1568 1.395 . S
C1570 C1573 1.403 . S
C1571 C1568 1.403 . S
C1571 C1572 1.524 . S
C1571 C1575 1.400 . S
C1572 H1557 0.960 . S
C1572 H1558 0.960 . S
C1572 H1559 0.960 . S
C1572 C1571 1.524 . S
C1573 C1570 1.403 . S
C1573 C1574 1.392 . S
C1573 C1577 1.495 . S
C1574 C1573 1.392 . S
C1574 C1575 1.385 . S
C1574 C1576 1.478 . S
C1575 H1569 0.930 . S
C1575 C1571 1.400 . S
C1575 C1574 1.385 . S
C1576 C1574 1.478 . S
C1576 C1578 1.381 . S
C1576 C1582 1.383 . S
C1577 C1573 1.495 . S
C1577 H1583 0.959 . S
C1577 H1584 0.961 . S
C1577 H1585 0.960 . S
C1578 C1576 1.381 . S
C1578 C1579 1.394 . S
C1578 H1586 0.930 . S
C1579 C1578 1.394 . S
C1579 C1580 1.383 . S
C1579 H1587 0.929 . S
C1580 C1579 1.383 . S
C1580 C1581 1.377 . S
C1581 H1565 0.930 . S
C1581 C1580 1.377 . S
C1581 C1582 1.379 . S
C1582 H1566 0.931 . S
C1582 C1576 1.383 . S
C1582 C1581 1.379 . S
H1583 C1577 0.959 . S
H1584 C1577 0.961 . S
H1585 C1577 0.960 . S
H1586 C1578 0.930 . S
H1587 C1579 0.929 . S
H1588 C1596 0.929 . S
H1589 C1598 0.930 . S
H1590 C1600 0.930 . S
H1591 C1603 0.929 . S
H1592 C1606 0.930 . S
H1593 C1608 0.960 . S
H1594 C1608 0.960 . S
H1595 C1608 0.960 . S
C1596 H1588 0.929 . S
C1596 C1597 1.377 . S
C1596 C1598 1.384 . S
C1597 C1596 1.377 . S
C1597 C1603 1.390 . S
C1598 H1589 0.930 . S
C1598 C1596 1.384 . S
C1598 C1599 1.372 . S
C1599 C1598 1.372 . S
C1599 C1600 1.400 . S
C1599 C1604 1.490 . S
C1600 H1590 0.930 . S
C1600 C1599 1.400 . S
C1600 C1603 1.386 . S
H1601 C1617 0.930 . S
H1602 C1618 0.931 . S
C1603 H1591 0.929 . S
C1603 C1597 1.390 . S
C1603 C1600 1.386 . S
C1604 C1599 1.490 . S
C1604 C1606 1.395 . S
C1604 C1607 1.403 . S
H1605 C1611 0.930 . S
C1606 H1592 0.930 . S
C1606 C1604 1.395 . S
C1606 C1609 1.403 . S
C1607 C1604 1.403 . S
C1607 C1608 1.524 . S
C1607 C1611 1.400 . S
C1608 H1593 0.960 . S
C1608 H1594 0.960 . S
C1608 H1595 0.960 . S
C1608 C1607 1.524 . S
C1609 C1606 1.403 . S
C1609 C1610 1.392 . S
C1609 C1613 1.495 . S
C1610 C1609 1.392 . S
C1610 C1611 1.385 . S
C1610 C1612 1.478 . S
C1611 H1605 0.930 . S
C1611 C1607 1.400 . S
C1611 C1610 1.385 . S
C1612 C1610 1.478 . S
C1612 C1614 1.381 . S
C1612 C1618 1.383 . S
C1613 C1609 1.495 . S
C1613 H1619 0.959 . S
C1613 H1620 0.961 . S
C1613 H1621 0.960 . S
C1614 C1612 1.381 . S
C1614 C1615 1.394 . S
C1614 H1622 0.930 . S
C1615 C1614 1.394 . S
C1615 C1616 1.383 . S
C1615 H1623 0.929 . S
C1616 C1615 1.383 . S
C1616 C1617 1.377 . S
C1617 H1601 0.930 . S
C1617 C1616 1.377 . S
C1617 C1618 1.379 . S
C1618 H1602 0.931 . S
C1618 C1612 1.383 . S
C1618 C1617 1.379 . S
H1619 C1613 0.959 . S
H1620 C1613 0.961 . S
H1621 C1613 0.960 . S
H1622 C1614 0.930 . S
H1623 C1615 0.929 . S
H1624 C1632 0.929 . S
H1625 C1634 0.930 . S
H1626 C1636 0.930 . S
H1627 C1639 0.929 . S
H1628 C1642 0.930 . S
H1629 C1644 0.960 . S
H1630 C1644 0.960 . S
H1631 C1644 0.960 . S
C1632 H1624 0.929 . S
C1632 C1633 1.377 . S
C1632 C1634 1.384 . S
C1633 C1632 1.377 . S
C1633 C1639 1.390 . S
C1634 H1625 0.930 . S
C1634 C1632 1.384 . S
C1634 C1635 1.372 . S
C1635 C1634 1.372 . S
C1635 C1636 1.400 . S
C1635 C1640 1.490 . S
C1636 H1626 0.930 . S
C1636 C1635 1.400 . S
C1636 C1639 1.386 . S
H1637 C1653 0.930 . S
H1638 C1654 0.931 . S
C1639 H1627 0.929 . S
C1639 C1633 1.390 . S
C1639 C1636 1.386 . S
C1640 C1635 1.490 . S
C1640 C1642 1.395 . S
C1640 C1643 1.403 . S
H1641 C1647 0.930 . S
C1642 H1628 0.930 . S
C1642 C1640 1.395 . S
C1642 C1645 1.403 . S
C1643 C1640 1.403 . S
C1643 C1644 1.524 . S
C1643 C1647 1.400 . S
C1644 H1629 0.960 . S
C1644 H1630 0.960 . S
C1644 H1631 0.960 . S
C1644 C1643 1.524 . S
C1645 C1642 1.403 . S
C1645 C1646 1.392 . S
C1645 C1649 1.495 . S
C1646 C1645 1.392 . S
C1646 C1647 1.385 . S
C1646 C1648 1.478 . S
C1647 H1641 0.930 . S
C1647 C1643 1.400 . S
C1647 C1646 1.385 . S
C1648 C1646 1.478 . S
C1648 C1650 1.381 . S
C1648 C1654 1.383 . S
C1649 C1645 1.495 . S
C1649 H1655 0.959 . S
C1649 H1656 0.961 . S
C1649 H1657 0.960 . S
C1650 C1648 1.381 . S
C1650 C1651 1.394 . S
C1650 H1658 0.930 . S
C1651 C1650 1.394 . S
C1651 C1652 1.383 . S
C1651 H1659 0.929 . S
C1652 C1651 1.383 . S
C1652 C1653 1.377 . S
C1653 H1637 0.930 . S
C1653 C1652 1.377 . S
C1653 C1654 1.379 . S
C1654 H1638 0.931 . S
C1654 C1648 1.383 . S
C1654 C1653 1.379 . S
H1655 C1649 0.959 . S
H1656 C1649 0.961 . S
H1657 C1649 0.960 . S
H1658 C1650 0.930 . S
H1659 C1651 0.929 . S
H1660 C1668 0.929 . S
H1661 C1670 0.930 . S
H1662 C1672 0.930 . S
H1663 C1675 0.929 . S
H1664 C1678 0.930 . S
H1665 C1680 0.960 . S
H1666 C1680 0.960 . S
H1667 C1680 0.960 . S
C1668 H1660 0.929 . S
C1668 C1669 1.377 . S
C1668 C1670 1.384 . S
C1669 C1668 1.377 . S
C1669 C1675 1.390 . S
C1670 H1661 0.930 . S
C1670 C1668 1.384 . S
C1670 C1671 1.372 . S
C1671 C1670 1.372 . S
C1671 C1672 1.400 . S
C1671 C1676 1.490 . S
C1672 H1662 0.930 . S
C1672 C1671 1.400 . S
C1672 C1675 1.386 . S
H1673 C1689 0.930 . S
H1674 C1690 0.931 . S
C1675 H1663 0.929 . S
C1675 C1669 1.390 . S
C1675 C1672 1.386 . S
C1676 C1671 1.490 . S
C1676 C1678 1.395 . S
C1676 C1679 1.403 . S
H1677 C1683 0.930 . S
C1678 H1664 0.930 . S
C1678 C1676 1.395 . S
C1678 C1681 1.403 1_556 S
C1679 C1676 1.403 . S
C1679 C1680 1.524 . S
C1679 C1683 1.400 1_556 S
C1680 H1665 0.960 . S
C1680 H1666 0.960 . S
C1680 H1667 0.960 . S
C1680 C1679 1.524 . S
C1681 C1678 1.403 1_554 S
C1681 C1682 1.392 . S
C1681 C1685 1.495 . S
C1682 C1681 1.392 . S
C1682 C1683 1.385 . S
C1682 C1684 1.478 . S
C1683 H1677 0.930 . S
C1683 C1679 1.400 1_554 S
C1683 C1682 1.385 . S
C1684 C1682 1.478 . S
C1684 C1686 1.381 . S
C1684 C1690 1.383 . S
C1685 C1681 1.495 . S
C1685 H1691 0.959 . S
C1685 H1692 0.961 . S
C1685 H1693 0.960 . S
C1686 C1684 1.381 . S
C1686 C1687 1.394 . S
C1686 H1694 0.930 . S
C1687 C1686 1.394 . S
C1687 C1688 1.383 . S
C1687 H1695 0.929 . S
C1688 C1687 1.383 . S
C1688 C1689 1.377 . S
C1689 H1673 0.930 . S
C1689 C1688 1.377 . S
C1689 C1690 1.379 . S
C1690 H1674 0.931 . S
C1690 C1684 1.383 . S
C1690 C1689 1.379 . S
H1691 C1685 0.959 . S
H1692 C1685 0.961 . S
H1693 C1685 0.960 . S
H1694 C1686 0.930 . S
H1695 C1687 0.929 . S
H1696 C1704 0.929 . S
H1697 C1706 0.930 . S
H1698 C1708 0.930 . S
H1699 C1711 0.929 . S
H1700 C1714 0.930 . S
H1701 C1716 0.960 . S
H1702 C1716 0.960 . S
H1703 C1716 0.960 . S
C1704 H1696 0.929 . S
C1704 C1705 1.377 . S
C1704 C1706 1.384 . S
C1705 C1704 1.377 . S
C1705 C1711 1.390 . S
C1706 H1697 0.930 . S
C1706 C1704 1.384 . S
C1706 C1707 1.372 . S
C1707 C1706 1.372 . S
C1707 C1708 1.400 . S
C1707 C1712 1.490 . S
C1708 H1698 0.930 . S
C1708 C1707 1.400 . S
C1708 C1711 1.386 . S
H1709 C1725 0.930 . S
H1710 C1726 0.931 . S
C1711 H1699 0.929 . S
C1711 C1705 1.390 . S
C1711 C1708 1.386 . S
C1712 C1707 1.490 . S
C1712 C1714 1.395 . S
C1712 C1715 1.403 . S
H1713 C1719 0.930 . S
C1714 H1700 0.930 . S
C1714 C1712 1.395 . S
C1714 C1717 1.403 . S
C1715 C1712 1.403 . S
C1715 C1716 1.524 . S
C1715 C1719 1.400 . S
C1716 H1701 0.960 . S
C1716 H1702 0.960 . S
C1716 H1703 0.960 . S
C1716 C1715 1.524 . S
C1717 C1714 1.403 . S
C1717 C1718 1.392 . S
C1717 C1721 1.495 . S
C1718 C1717 1.392 . S
C1718 C1719 1.385 . S
C1718 C1720 1.478 . S
C1719 H1713 0.930 . S
C1719 C1715 1.400 . S
C1719 C1718 1.385 . S
C1720 C1718 1.478 . S
C1720 C1722 1.381 . S
C1720 C1726 1.383 . S
C1721 C1717 1.495 . S
C1721 H1727 0.959 . S
C1721 H1728 0.961 . S
C1721 H1729 0.960 . S
C1722 C1720 1.381 . S
C1722 C1723 1.394 . S
C1722 H1730 0.930 . S
C1723 C1722 1.394 . S
C1723 C1724 1.383 . S
C1723 H1731 0.929 . S
C1724 C1723 1.383 . S
C1724 C1725 1.377 . S
C1725 H1709 0.930 . S
C1725 C1724 1.377 . S
C1725 C1726 1.379 . S
C1726 H1710 0.931 . S
C1726 C1720 1.383 . S
C1726 C1725 1.379 . S
H1727 C1721 0.959 . S
H1728 C1721 0.961 . S
H1729 C1721 0.960 . S
H1730 C1722 0.930 . S
H1731 C1723 0.929 . S
H1732 C1740 0.929 . S
H1733 C1742 0.930 . S
H1734 C1744 0.930 . S
H1735 C1747 0.929 . S
H1736 C1750 0.930 . S
H1737 C1752 0.960 . S
H1738 C1752 0.960 . S
H1739 C1752 0.960 . S
C1740 H1732 0.929 . S
C1740 C1741 1.377 . S
C1740 C1742 1.384 . S
C1741 C1740 1.377 . S
C1741 C1747 1.390 . S
C1742 H1733 0.930 . S
C1742 C1740 1.384 . S
C1742 C1743 1.372 . S
C1743 C1742 1.372 . S
C1743 C1744 1.400 . S
C1743 C1748 1.490 . S
C1744 H1734 0.930 . S
C1744 C1743 1.400 . S
C1744 C1747 1.386 . S
H1745 C1761 0.930 . S
H1746 C1762 0.931 . S
C1747 H1735 0.929 . S
C1747 C1741 1.390 . S
C1747 C1744 1.386 . S
C1748 C1743 1.490 . S
C1748 C1750 1.395 . S
C1748 C1751 1.403 . S
H1749 C1755 0.930 . S
C1750 H1736 0.930 . S
C1750 C1748 1.395 . S
C1750 C1753 1.403 . S
C1751 C1748 1.403 . S
C1751 C1752 1.524 . S
C1751 C1755 1.400 . S
C1752 H1737 0.960 . S
C1752 H1738 0.960 . S
C1752 H1739 0.960 . S
C1752 C1751 1.524 . S
C1753 C1750 1.403 . S
C1753 C1754 1.392 . S
C1753 C1757 1.495 . S
C1754 C1753 1.392 . S
C1754 C1755 1.385 . S
C1754 C1756 1.478 . S
C1755 H1749 0.930 . S
C1755 C1751 1.400 . S
C1755 C1754 1.385 . S
C1756 C1754 1.478 . S
C1756 C1758 1.381 . S
C1756 C1762 1.383 . S
C1757 C1753 1.495 . S
C1757 H1763 0.959 . S
C1757 H1764 0.961 . S
C1757 H1765 0.960 . S
C1758 C1756 1.381 . S
C1758 C1759 1.394 . S
C1758 H1766 0.930 . S
C1759 C1758 1.394 . S
C1759 C1760 1.383 . S
C1759 H1767 0.929 . S
C1760 C1759 1.383 . S
C1760 C1761 1.377 . S
C1761 H1745 0.930 . S
C1761 C1760 1.377 . S
C1761 C1762 1.379 . S
C1762 H1746 0.931 . S
C1762 C1756 1.383 . S
C1762 C1761 1.379 . S
H1763 C1757 0.959 . S
H1764 C1757 0.961 . S
H1765 C1757 0.960 . S
H1766 C1758 0.930 . S
H1767 C1759 0.929 . S
H1768 C1776 0.929 . S
H1769 C1778 0.930 . S
H1770 C1780 0.930 . S
H1771 C1783 0.929 . S
H1772 C1786 0.930 . S
H1773 C1788 0.960 . S
H1774 C1788 0.960 . S
H1775 C1788 0.960 . S
C1776 H1768 0.929 . S
C1776 C1777 1.377 . S
C1776 C1778 1.384 . S
C1777 C1776 1.377 . S
C1777 C1783 1.390 . S
C1778 H1769 0.930 . S
C1778 C1776 1.384 . S
C1778 C1779 1.372 . S
C1779 C1778 1.372 . S
C1779 C1780 1.400 . S
C1779 C1784 1.490 . S
C1780 H1770 0.930 . S
C1780 C1779 1.400 . S
C1780 C1783 1.386 . S
H1781 C1797 0.930 . S
H1782 C1798 0.931 . S
C1783 H1771 0.929 . S
C1783 C1777 1.390 . S
C1783 C1780 1.386 . S
C1784 C1779 1.490 . S
C1784 C1786 1.395 . S
C1784 C1787 1.403 . S
H1785 C1791 0.930 . S
C1786 H1772 0.930 . S
C1786 C1784 1.395 . S
C1786 C1789 1.403 . S
C1787 C1784 1.403 . S
C1787 C1788 1.524 . S
C1787 C1791 1.400 . S
C1788 H1773 0.960 . S
C1788 H1774 0.960 . S
C1788 H1775 0.960 . S
C1788 C1787 1.524 . S
C1789 C1786 1.403 . S
C1789 C1790 1.392 . S
C1789 C1793 1.495 . S
C1790 C1789 1.392 . S
C1790 C1791 1.385 . S
C1790 C1792 1.478 . S
C1791 H1785 0.930 . S
C1791 C1787 1.400 . S
C1791 C1790 1.385 . S
C1792 C1790 1.478 . S
C1792 C1794 1.381 . S
C1792 C1798 1.383 . S
C1793 C1789 1.495 . S
C1793 H1799 0.959 . S
C1793 H1800 0.961 . S
C1793 H1801 0.960 . S
C1794 C1792 1.381 . S
C1794 C1795 1.394 . S
C1794 H1802 0.930 . S
C1795 C1794 1.394 . S
C1795 C1796 1.383 . S
C1795 H1803 0.929 . S
C1796 C1795 1.383 . S
C1796 C1797 1.377 . S
C1797 H1781 0.930 . S
C1797 C1796 1.377 . S
C1797 C1798 1.379 . S
C1798 H1782 0.931 . S
C1798 C1792 1.383 . S
C1798 C1797 1.379 . S
H1799 C1793 0.959 . S
H1800 C1793 0.961 . S
H1801 C1793 0.960 . S
H1802 C1794 0.930 . S
H1803 C1795 0.929 . S
H1804 C1812 0.929 . S
H1805 C1814 0.930 . S
H1806 C1816 0.930 . S
H1807 C1819 0.929 . S
H1808 C1822 0.930 . S
H1809 C1824 0.960 . S
H1810 C1824 0.960 . S
H1811 C1824 0.960 . S
C1812 H1804 0.929 . S
C1812 C1813 1.377 . S
C1812 C1814 1.384 . S
C1813 C1812 1.377 . S
C1813 C1819 1.390 . S
C1814 H1805 0.930 . S
C1814 C1812 1.384 . S
C1814 C1815 1.372 . S
C1815 C1814 1.372 . S
C1815 C1816 1.400 . S
C1815 C1820 1.490 . S
C1816 H1806 0.930 . S
C1816 C1815 1.400 . S
C1816 C1819 1.386 . S
H1817 C1833 0.930 . S
H1818 C1834 0.931 . S
C1819 H1807 0.929 . S
C1819 C1813 1.390 . S
C1819 C1816 1.386 . S
C1820 C1815 1.490 . S
C1820 C1822 1.395 . S
C1820 C1823 1.403 . S
H1821 C1827 0.930 1_556 S
C1822 H1808 0.930 . S
C1822 C1820 1.395 . S
C1822 C1825 1.403 . S
C1823 C1820 1.403 . S
C1823 C1824 1.524 . S
C1823 C1827 1.400 . S
C1824 H1809 0.960 . S
C1824 H1810 0.960 . S
C1824 H1811 0.960 . S
C1824 C1823 1.524 . S
C1825 C1822 1.403 . S
C1825 C1826 1.367 1_554 S
C1825 C1829 1.495 . S
C1826 C1825 1.367 1_556 S
C1826 C1827 1.382 1_556 S
C1826 C1828 1.507 . S
C1827 H1821 0.930 1_554 S
C1827 C1823 1.400 . S
C1827 C1826 1.382 1_554 S
C1828 C1826 1.507 . S
C1828 C1830 1.381 . S
C1828 C1834 1.383 . S
C1829 C1825 1.495 . S
C1829 H1835 0.959 . S
C1829 H1836 0.961 . S
C1829 H1837 0.960 . S
C1830 C1828 1.381 . S
C1830 C1831 1.394 . S
C1830 H1838 0.930 . S
C1831 C1830 1.394 . S
C1831 C1832 1.383 . S
C1831 H1839 0.929 . S
C1832 C1831 1.383 . S
C1832 C1833 1.377 . S
C1833 H1817 0.930 . S
C1833 C1832 1.377 . S
C1833 C1834 1.379 . S
C1834 H1818 0.931 . S
C1834 C1828 1.383 . S
C1834 C1833 1.379 . S
H1835 C1829 0.959 . S
H1836 C1829 0.961 . S
H1837 C1829 0.960 . S
H1838 C1830 0.930 . S
H1839 C1831 0.929 . S
H1840 C1848 0.929 . S
H1841 C1850 0.930 . S
H1842 C1852 0.930 . S
H1843 C1855 0.929 . S
H1844 C1858 0.930 . S
H1845 C1860 0.960 . S
H1846 C1860 0.960 . S
H1847 C1860 0.960 . S
C1848 H1840 0.929 . S
C1848 C1849 1.377 . S
C1848 C1850 1.384 . S
C1849 C1848 1.377 . S
C1849 C1855 1.390 . S
C1850 H1841 0.930 . S
C1850 C1848 1.384 . S
C1850 C1851 1.372 . S
C1851 C1850 1.372 . S
C1851 C1852 1.400 . S
C1851 C1856 1.490 . S
C1852 H1842 0.930 . S
C1852 C1851 1.400 . S
C1852 C1855 1.386 . S
H1853 C1869 0.930 . S
H1854 C1870 0.931 . S
C1855 H1843 0.929 . S
C1855 C1849 1.390 . S
C1855 C1852 1.386 . S
C1856 C1851 1.490 . S
C1856 C1858 1.395 . S
C1856 C1859 1.403 . S
H1857 C1863 0.930 . S
C1858 H1844 0.930 . S
C1858 C1856 1.395 . S
C1858 C1861 1.403 . S
C1859 C1856 1.403 . S
C1859 C1860 1.524 . S
C1859 C1863 1.400 . S
C1860 H1845 0.960 . S
C1860 H1846 0.960 . S
C1860 H1847 0.960 . S
C1860 C1859 1.524 . S
C1861 C1858 1.403 . S
C1861 C1862 1.392 . S
C1861 C1865 1.495 . S
C1862 C1861 1.392 . S
C1862 C1863 1.385 . S
C1862 C1864 1.478 . S
C1863 H1857 0.930 . S
C1863 C1859 1.400 . S
C1863 C1862 1.385 . S
C1864 C1862 1.478 . S
C1864 C1866 1.381 . S
C1864 C1870 1.383 . S
C1865 C1861 1.495 . S
C1865 H1871 0.959 . S
C1865 H1872 0.961 . S
C1865 H1873 0.960 . S
C1866 C1864 1.381 . S
C1866 C1867 1.394 . S
C1866 H1874 0.930 . S
C1867 C1866 1.394 . S
C1867 C1868 1.383 . S
C1867 H1875 0.929 . S
C1868 C1867 1.383 . S
C1868 C1869 1.377 . S
C1869 H1853 0.930 . S
C1869 C1868 1.377 . S
C1869 C1870 1.379 . S
C1870 H1854 0.931 . S
C1870 C1864 1.383 . S
C1870 C1869 1.379 . S
H1871 C1865 0.959 . S
H1872 C1865 0.961 . S
H1873 C1865 0.960 . S
H1874 C1866 0.930 . S
H1875 C1867 0.929 . S
H1876 C1884 0.929 . S
H1877 C1886 0.930 . S
H1878 C1888 0.930 . S
H1879 C1891 0.929 . S
H1880 C1894 0.930 . S
H1881 C1896 0.960 . S
H1882 C1896 0.960 . S
H1883 C1896 0.960 . S
C1884 H1876 0.929 . S
C1884 C1885 1.377 . S
C1884 C1886 1.384 . S
C1885 C1884 1.377 . S
C1885 C1891 1.390 . S
C1886 H1877 0.930 . S
C1886 C1884 1.384 . S
C1886 C1887 1.372 . S
C1887 C1886 1.372 . S
C1887 C1888 1.400 . S
C1887 C1892 1.490 . S
C1888 H1878 0.930 . S
C1888 C1887 1.400 . S
C1888 C1891 1.386 . S
H1889 C1905 0.930 . S
H1890 C1906 0.931 . S
C1891 H1879 0.929 . S
C1891 C1885 1.390 . S
C1891 C1888 1.386 . S
C1892 C1887 1.490 . S
C1892 C1894 1.395 . S
C1892 C1895 1.403 . S
H1893 C1899 0.930 . S
C1894 H1880 0.930 . S
C1894 C1892 1.395 . S
C1894 C1897 1.403 . S
C1895 C1892 1.403 . S
C1895 C1896 1.524 . S
C1895 C1899 1.400 1_565 S
C1896 H1881 0.960 . S
C1896 H1882 0.960 . S
C1896 H1883 0.960 . S
C1896 C1895 1.524 . S
C1897 C1894 1.403 . S
C1897 C1898 1.392 1_565 S
C1897 C1901 1.495 . S
C1898 C1897 1.392 1_545 S
C1898 C1899 1.385 . S
C1898 C1900 1.478 . S
C1899 H1893 0.930 . S
C1899 C1895 1.400 1_545 S
C1899 C1898 1.385 . S
C1900 C1898 1.478 . S
C1900 C1902 1.381 . S
C1900 C1906 1.383 . S
C1901 C1897 1.495 . S
C1901 H1907 0.959 . S
C1901 H1908 0.961 . S
C1901 H1909 0.960 1_565 S
C1902 C1900 1.381 . S
C1902 C1903 1.394 . S
C1902 H1910 0.930 . S
C1903 C1902 1.394 . S
C1903 C1904 1.383 . S
C1903 H1911 0.929 . S
C1904 C1903 1.383 . S
C1904 C1905 1.377 . S
C1905 H1889 0.930 . S
C1905 C1904 1.377 . S
C1905 C1906 1.379 . S
C1906 H1890 0.931 . S
C1906 C1900 1.383 . S
C1906 C1905 1.379 . S
H1907 C1901 0.959 . S
H1908 C1901 0.961 . S
H1909 C1901 0.960 1_545 S
H1910 C1902 0.930 . S
H1911 C1903 0.929 . S
H1912 C1920 0.929 . S
H1913 C1922 0.930 . S
H1914 C1924 0.930 . S
H1915 C1927 0.929 . S
H1916 C1930 0.930 . S
H1917 C1932 0.960 . S
H1918 C1932 0.960 . S
H1919 C1932 0.960 . S
C1920 H1912 0.929 . S
C1920 C1921 1.377 . S
C1920 C1922 1.384 . S
C1921 C1920 1.377 . S
C1921 C1927 1.390 . S
C1922 H1913 0.930 . S
C1922 C1920 1.384 . S
C1922 C1923 1.372 . S
C1923 C1922 1.372 . S
C1923 C1924 1.400 . S
C1923 C1928 1.490 . S
C1924 H1914 0.930 . S
C1924 C1923 1.400 . S
C1924 C1927 1.386 . S
H1925 C1941 0.930 . S
H1926 C1942 0.931 . S
C1927 H1915 0.929 . S
C1927 C1921 1.390 . S
C1927 C1924 1.386 . S
C1928 C1923 1.490 . S
C1928 C1930 1.395 . S
C1928 C1931 1.403 . S
H1929 C1935 0.930 . S
C1930 H1916 0.930 . S
C1930 C1928 1.395 . S
C1930 C1933 1.403 . S
C1931 C1928 1.403 . S
C1931 C1932 1.524 . S
C1931 C1935 1.400 . S
C1932 H1917 0.960 . S
C1932 H1918 0.960 . S
C1932 H1919 0.960 . S
C1932 C1931 1.524 . S
C1933 C1930 1.403 . S
C1933 C1934 1.392 . S
C1933 C1937 1.495 . S
C1934 C1933 1.392 . S
C1934 C1935 1.385 . S
C1934 C1936 1.478 . S
C1935 H1929 0.930 . S
C1935 C1931 1.400 . S
C1935 C1934 1.385 . S
C1936 C1934 1.478 . S
C1936 C1938 1.381 . S
C1936 C1942 1.383 . S
C1937 C1933 1.495 . S
C1937 H1943 0.959 . S
C1937 H1944 0.961 . S
C1937 H1945 0.960 . S
C1938 C1936 1.381 . S
C1938 C1939 1.394 . S
C1938 H1946 0.930 . S
C1939 C1938 1.394 . S
C1939 C1940 1.383 . S
C1939 H1947 0.929 . S
C1940 C1939 1.383 . S
C1940 C1941 1.377 . S
C1941 H1925 0.930 . S
C1941 C1940 1.377 . S
C1941 C1942 1.379 . S
C1942 H1926 0.931 . S
C1942 C1936 1.383 . S
C1942 C1941 1.379 . S
H1943 C1937 0.959 . S
H1944 C1937 0.961 . S
H1945 C1937 0.960 . S
H1946 C1938 0.930 . S
H1947 C1939 0.929 . S
H1948 C1956 0.929 . S
H1949 C1958 0.930 . S
H1950 C1960 0.930 . S
H1951 C1963 0.929 . S
H1952 C1966 0.930 . S
H1953 C1968 0.960 . S
H1954 C1968 0.960 . S
H1955 C1968 0.960 . S
C1956 H1948 0.929 . S
C1956 C1957 1.377 . S
C1956 C1958 1.384 . S
C1957 C1956 1.377 . S
C1957 C1963 1.390 . S
C1958 H1949 0.930 . S
C1958 C1956 1.384 . S
C1958 C1959 1.372 . S
C1959 C1958 1.372 . S
C1959 C1960 1.400 . S
C1959 C1964 1.490 . S
C1960 H1950 0.930 . S
C1960 C1959 1.400 . S
C1960 C1963 1.386 . S
H1961 C1977 0.930 . S
H1962 C1978 0.931 . S
C1963 H1951 0.929 . S
C1963 C1957 1.390 . S
C1963 C1960 1.386 . S
C1964 C1959 1.490 . S
C1964 C1966 1.395 . S
C1964 C1967 1.403 . S
H1965 C1971 0.930 . S
C1966 H1952 0.930 . S
C1966 C1964 1.395 . S
C1966 C1969 1.403 1_545 S
C1967 C1964 1.403 . S
C1967 C1968 1.524 . S
C1967 C1971 1.400 . S
C1968 H1953 0.960 . S
C1968 H1954 0.960 . S
C1968 H1955 0.960 . S
C1968 C1967 1.524 . S
C1969 C1966 1.403 1_565 S
C1969 C1970 1.392 . S
C1969 C1973 1.495 . S
C1970 C1969 1.392 . S
C1970 C1971 1.385 1_565 S
C1970 C1972 1.478 . S
C1971 H1965 0.930 . S
C1971 C1967 1.400 . S
C1971 C1970 1.385 1_545 S
C1972 C1970 1.478 . S
C1972 C1974 1.381 . S
C1972 C1978 1.383 . S
C1973 C1969 1.495 . S
C1973 H1979 0.959 . S
C1973 H1980 0.961 . S
C1973 H1981 0.960 . S
C1974 C1972 1.381 . S
C1974 C1975 1.394 . S
C1974 H1982 0.930 . S
C1975 C1974 1.394 . S
C1975 C1976 1.383 . S
C1975 H1983 0.929 . S
C1976 C1975 1.383 . S
C1976 C1977 1.377 . S
C1977 H1961 0.930 . S
C1977 C1976 1.377 . S
C1977 C1978 1.379 . S
C1978 H1962 0.931 . S
C1978 C1972 1.383 . S
C1978 C1977 1.379 . S
H1979 C1973 0.959 . S
H1980 C1973 0.961 . S
H1981 C1973 0.960 . S
H1982 C1974 0.930 . S
H1983 C1975 0.929 . S
H1984 C1992 0.929 . S
H1985 C1994 0.930 . S
H1986 C1996 0.930 . S
H1987 C1999 0.929 . S
H1988 C2002 0.930 . S
H1989 C2004 0.960 . S
H1990 C2004 0.960 . S
H1991 C2004 0.960 . S
C1992 H1984 0.929 . S
C1992 C1993 1.377 . S
C1992 C1994 1.384 . S
C1993 C1992 1.377 . S
C1993 C1999 1.390 . S
C1994 H1985 0.930 . S
C1994 C1992 1.384 . S
C1994 C1995 1.372 . S
C1995 C1994 1.372 . S
C1995 C1996 1.400 . S
C1995 C2000 1.490 . S
C1996 H1986 0.930 . S
C1996 C1995 1.400 . S
C1996 C1999 1.386 . S
H1997 C2013 0.930 . S
H1998 C2014 0.931 . S
C1999 H1987 0.929 . S
C1999 C1993 1.390 . S
C1999 C1996 1.386 . S
C2000 C1995 1.490 . S
C2000 C2002 1.395 . S
C2000 C2003 1.403 . S
H2001 C2007 0.930 . S
C2002 H1988 0.930 . S
C2002 C2000 1.395 . S
C2002 C2005 1.403 . S
C2003 C2000 1.403 . S
C2003 C2004 1.524 . S
C2003 C2007 1.400 . S
C2004 H1989 0.960 . S
C2004 H1990 0.960 . S
C2004 H1991 0.960 . S
C2004 C2003 1.524 . S
C2005 C2002 1.403 . S
C2005 C2006 1.392 . S
C2005 C2009 1.495 . S
C2006 C2005 1.392 . S
C2006 C2007 1.385 . S
C2006 C2008 1.478 . S
C2007 H2001 0.930 . S
C2007 C2003 1.400 . S
C2007 C2006 1.385 . S
C2008 C2006 1.478 . S
C2008 C2010 1.381 . S
C2008 C2014 1.383 . S
C2009 C2005 1.495 . S
C2009 H2015 0.959 . S
C2009 H2016 0.961 . S
C2009 H2017 0.960 . S
C2010 C2008 1.381 . S
C2010 C2011 1.394 . S
C2010 H2018 0.930 . S
C2011 C2010 1.394 . S
C2011 C2012 1.383 . S
C2011 H2019 0.929 . S
C2012 C2011 1.383 . S
C2012 C2013 1.377 . S
C2013 H1997 0.930 . S
C2013 C2012 1.377 . S
C2013 C2014 1.379 . S
C2014 H1998 0.931 . S
C2014 C2008 1.383 . S
C2014 C2013 1.379 . S
H2015 C2009 0.959 . S
H2016 C2009 0.961 . S
H2017 C2009 0.960 . S
H2018 C2010 0.930 . S
H2019 C2011 0.929 . S
H2020 C2028 0.929 . S
H2021 C2030 0.930 . S
H2022 C2032 0.930 . S
H2023 C2035 0.929 . S
H2024 C2038 0.930 . S
H2025 C2040 0.960 . S
H2026 C2040 0.960 . S
H2027 C2040 0.960 . S
C2028 H2020 0.929 . S
C2028 C2029 1.377 . S
C2028 C2030 1.384 . S
C2029 C2028 1.377 . S
C2029 C2035 1.390 . S
C2030 H2021 0.930 . S
C2030 C2028 1.384 . S
C2030 C2031 1.372 . S
C2031 C2030 1.372 . S
C2031 C2032 1.400 . S
C2031 C2036 1.490 . S
C2032 H2022 0.930 . S
C2032 C2031 1.400 . S
C2032 C2035 1.386 . S
H2033 C2049 0.930 . S
H2034 C2050 0.931 . S
C2035 H2023 0.929 . S
C2035 C2029 1.390 . S
C2035 C2032 1.386 . S
C2036 C2031 1.490 . S
C2036 C2038 1.395 . S
C2036 C2039 1.403 . S
H2037 C2043 0.930 . S
C2038 H2024 0.930 . S
C2038 C2036 1.395 . S
C2038 C2041 1.403 1_565 S
C2039 C2036 1.403 . S
C2039 C2040 1.524 . S
C2039 C2043 1.400 . S
C2040 H2025 0.960 . S
C2040 H2026 0.960 . S
C2040 H2027 0.960 . S
C2040 C2039 1.524 . S
C2041 C2038 1.403 1_545 S
C2041 C2042 1.392 . S
C2041 C2045 1.495 . S
C2042 C2041 1.392 . S
C2042 C2043 1.385 1_545 S
C2042 C2044 1.478 . S
C2043 H2037 0.930 . S
C2043 C2039 1.400 . S
C2043 C2042 1.385 1_565 S
C2044 C2042 1.478 . S
C2044 C2046 1.381 . S
C2044 C2050 1.383 . S
C2045 C2041 1.495 . S
C2045 H2051 0.959 . S
C2045 H2052 0.961 . S
C2045 H2053 0.960 . S
C2046 C2044 1.381 . S
C2046 C2047 1.394 . S
C2046 H2054 0.930 . S
C2047 C2046 1.394 . S
C2047 C2048 1.383 . S
C2047 H2055 0.929 . S
C2048 C2047 1.383 . S
C2048 C2049 1.377 . S
C2049 H2033 0.930 . S
C2049 C2048 1.377 . S
C2049 C2050 1.379 . S
C2050 H2034 0.931 . S
C2050 C2044 1.383 . S
C2050 C2049 1.379 . S
H2051 C2045 0.959 . S
H2052 C2045 0.961 . S
H2053 C2045 0.960 . S
H2054 C2046 0.930 . S
H2055 C2047 0.929 . S
H2056 C2064 0.929 . S
H2057 C2066 0.930 . S
H2058 C2068 0.930 . S
H2059 C2071 0.929 . S
H2060 C2074 0.930 . S
H2061 C2076 0.960 . S
H2062 C2076 0.960 . S
H2063 C2076 0.960 . S
C2064 H2056 0.929 . S
C2064 C2065 1.377 . S
C2064 C2066 1.384 . S
C2065 C2064 1.377 . S
C2065 C2071 1.390 . S
C2066 H2057 0.930 . S
C2066 C2064 1.384 . S
C2066 C2067 1.372 . S
C2067 C2066 1.372 . S
C2067 C2068 1.400 . S
C2067 C2072 1.490 . S
C2068 H2058 0.930 . S
C2068 C2067 1.400 . S
C2068 C2071 1.386 . S
H2069 C2085 0.930 . S
H2070 C2086 0.931 . S
C2071 H2059 0.929 . S
C2071 C2065 1.390 . S
C2071 C2068 1.386 . S
C2072 C2067 1.490 . S
C2072 C2074 1.395 . S
C2072 C2075 1.403 . S
H2073 C2079 0.930 . S
C2074 H2060 0.930 . S
C2074 C2072 1.395 . S
C2074 C2077 1.403 . S
C2075 C2072 1.403 . S
C2075 C2076 1.524 . S
C2075 C2079 1.400 . S
C2076 H2061 0.960 . S
C2076 H2062 0.960 . S
C2076 H2063 0.960 . S
C2076 C2075 1.524 . S
C2077 C2074 1.403 . S
C2077 C2078 1.392 . S
C2077 C2081 1.495 . S
C2078 C2077 1.392 . S
C2078 C2079 1.385 . S
C2078 C2080 1.478 . S
C2079 H2073 0.930 . S
C2079 C2075 1.400 . S
C2079 C2078 1.385 . S
C2080 C2078 1.478 . S
C2080 C2082 1.381 . S
C2080 C2086 1.383 . S
C2081 C2077 1.495 . S
C2081 H2087 0.959 . S
C2081 H2088 0.961 . S
C2081 H2089 0.960 . S
C2082 C2080 1.381 . S
C2082 C2083 1.394 . S
C2082 H2090 0.930 . S
C2083 C2082 1.394 . S
C2083 C2084 1.383 . S
C2083 H2091 0.929 . S
C2084 C2083 1.383 . S
C2084 C2085 1.377 . S
C2085 H2069 0.930 . S
C2085 C2084 1.377 . S
C2085 C2086 1.379 . S
C2086 H2070 0.931 . S
C2086 C2080 1.383 . S
C2086 C2085 1.379 . S
H2087 C2081 0.959 . S
H2088 C2081 0.961 . S
H2089 C2081 0.960 . S
H2090 C2082 0.930 . S
H2091 C2083 0.929 . S
H2092 C2100 0.929 . S
H2093 C2102 0.930 . S
H2094 C2104 0.930 . S
H2095 C2107 0.896 1_554 S
H2096 C2110 0.930 . S
H2097 C2112 0.960 1_565 S
H2098 C2112 0.960 . S
H2099 C2112 0.960 . S
C2100 H2092 0.929 . S
C2100 C2101 1.377 . S
C2100 C2102 1.384 . S
C2101 C2100 1.377 . S
C2101 C2107 1.390 . S
C2102 H2093 0.930 . S
C2102 C2100 1.384 . S
C2102 C2103 1.372 . S
C2103 C2102 1.372 . S
C2103 C2104 1.400 . S
C2103 C2108 1.490 . S
C2104 H2094 0.930 . S
C2104 C2103 1.400 . S
C2104 C2107 1.386 . S
H2105 C2121 0.930 . S
H2106 C2122 0.931 . S
C2107 H2095 0.896 1_556 S
C2107 C2101 1.390 . S
C2107 C2104 1.386 . S
C2108 C2103 1.490 . S
C2108 C2110 1.395 . S
C2108 C2111 1.403 . S
H2109 C2115 0.930 . S
C2110 H2096 0.930 . S
C2110 C2108 1.395 . S
C2110 C2113 1.403 . S
C2111 C2108 1.403 . S
C2111 C2112 1.524 . S
C2111 C2115 1.400 1_545 S
C2112 H2097 0.960 1_545 S
C2112 H2098 0.960 . S
C2112 H2099 0.960 . S
C2112 C2111 1.524 . S
C2113 C2110 1.403 . S
C2113 C2114 1.392 1_545 S
C2113 C2117 1.495 . S
C2114 C2113 1.392 1_565 S
C2114 C2115 1.385 . S
C2114 C2116 1.478 . S
C2115 H2109 0.930 . S
C2115 C2111 1.400 1_565 S
C2115 C2114 1.385 . S
C2116 C2114 1.478 . S
C2116 C2118 1.381 . S
C2116 C2122 1.383 . S
C2117 C2113 1.495 . S
C2117 H2123 0.959 . S
C2117 H2124 0.961 . S
C2117 H2125 0.960 . S
C2118 C2116 1.381 . S
C2118 C2119 1.394 . S
C2118 H2126 0.930 . S
C2119 C2118 1.394 . S
C2119 C2120 1.383 . S
C2119 H2127 0.929 . S
C2120 C2119 1.383 . S
C2120 C2121 1.377 . S
C2121 H2105 0.930 . S
C2121 C2120 1.377 . S
C2121 C2122 1.379 . S
C2122 H2106 0.931 . S
C2122 C2116 1.383 . S
C2122 C2121 1.379 . S
H2123 C2117 0.959 . S
H2124 C2117 0.961 . S
H2125 C2117 0.960 . S
H2126 C2118 0.930 . S
H2127 C2119 0.929 . S
H2128 C2136 0.929 . S
H2129 C2138 0.930 . S
H2130 C2140 0.930 . S
H2131 C2143 0.929 . S
H2132 C2146 0.930 . S
H2133 C2148 0.960 . S
H2134 C2148 0.960 . S
H2135 C2148 0.960 . S
C2136 H2128 0.929 . S
C2136 C2137 1.377 . S
C2136 C2138 1.384 . S
C2137 C2136 1.377 . S
C2137 C2143 1.390 . S
C2138 H2129 0.930 . S
C2138 C2136 1.384 . S
C2138 C2139 1.372 . S
C2139 C2138 1.372 . S
C2139 C2140 1.400 . S
C2139 C2144 1.490 . S
C2140 H2130 0.930 . S
C2140 C2139 1.400 . S
C2140 C2143 1.386 . S
H2141 C2157 0.930 . S
H2142 C2158 0.931 . S
C2143 H2131 0.929 . S
C2143 C2137 1.390 . S
C2143 C2140 1.386 . S
C2144 C2139 1.490 . S
C2144 C2146 1.395 . S
C2144 C2147 1.403 . S
H2145 C2151 0.930 . S
C2146 H2132 0.930 . S
C2146 C2144 1.395 . S
C2146 C2149 1.403 . S
C2147 C2144 1.403 . S
C2147 C2148 1.524 . S
C2147 C2151 1.400 . S
C2148 H2133 0.960 . S
C2148 H2134 0.960 . S
C2148 H2135 0.960 . S
C2148 C2147 1.524 . S
C2149 C2146 1.403 . S
C2149 C2150 1.392 . S
C2149 C2153 1.495 . S
C2150 C2149 1.392 . S
C2150 C2151 1.385 . S
C2150 C2152 1.478 . S
C2151 H2145 0.930 . S
C2151 C2147 1.400 . S
C2151 C2150 1.385 . S
C2152 C2150 1.478 . S
C2152 C2154 1.381 . S
C2152 C2158 1.383 . S
C2153 C2149 1.495 . S
C2153 H2159 0.959 . S
C2153 H2160 0.961 . S
C2153 H2161 0.960 . S
C2154 C2152 1.381 . S
C2154 C2155 1.394 . S
C2154 H2162 0.930 . S
C2155 C2154 1.394 . S
C2155 C2156 1.383 . S
C2155 H2163 0.929 . S
C2156 C2155 1.383 . S
C2156 C2157 1.377 . S
C2157 H2141 0.930 . S
C2157 C2156 1.377 . S
C2157 C2158 1.379 . S
C2158 H2142 0.931 . S
C2158 C2152 1.383 . S
C2158 C2157 1.379 . S
H2159 C2153 0.959 . S
H2160 C2153 0.961 . S
H2161 C2153 0.960 . S
H2162 C2154 0.930 . S
H2163 C2155 0.929 . S
H2164 C2172 0.929 . S
H2165 C2174 0.930 . S
H2166 C2176 0.930 . S
H2167 C2179 0.929 . S
H2168 C2182 0.930 . S
H2169 C2184 0.960 . S
H2170 C2184 0.960 . S
H2171 C2184 0.960 . S
C2172 H2164 0.929 . S
C2172 C2173 1.377 . S
C2172 C2174 1.384 . S
C2173 C2172 1.377 . S
C2173 C2179 1.390 . S
C2174 H2165 0.930 . S
C2174 C2172 1.384 . S
C2174 C2175 1.372 . S
C2175 C2174 1.372 . S
C2175 C2176 1.400 . S
C2175 C2180 1.490 . S
C2176 H2166 0.930 . S
C2176 C2175 1.400 . S
C2176 C2179 1.386 . S
H2177 C2193 0.930 . S
H2178 C2194 0.931 . S
C2179 H2167 0.929 . S
C2179 C2173 1.390 . S
C2179 C2176 1.386 . S
C2180 C2175 1.490 . S
C2180 C2182 1.395 . S
C2180 C2183 1.403 . S
H2181 C2187 0.930 . S
C2182 H2168 0.930 . S
C2182 C2180 1.395 . S
C2182 C2185 1.403 . S
C2183 C2180 1.403 . S
C2183 C2184 1.524 . S
C2183 C2187 1.400 . S
C2184 H2169 0.960 . S
C2184 H2170 0.960 . S
C2184 H2171 0.960 . S
C2184 C2183 1.524 . S
C2185 C2182 1.403 . S
C2185 C2186 1.392 . S
C2185 C2189 1.495 . S
C2186 C2185 1.392 . S
C2186 C2187 1.385 . S
C2186 C2188 1.478 . S
C2187 H2181 0.930 . S
C2187 C2183 1.400 . S
C2187 C2186 1.385 . S
C2188 C2186 1.478 . S
C2188 C2190 1.381 . S
C2188 C2194 1.383 . S
C2189 C2185 1.495 . S
C2189 H2195 0.959 . S
C2189 H2196 0.961 . S
C2189 H2197 0.960 . S
C2190 C2188 1.381 . S
C2190 C2191 1.394 . S
C2190 H2198 0.930 . S
C2191 C2190 1.394 . S
C2191 C2192 1.383 . S
C2191 H2199 0.929 . S
C2192 C2191 1.383 . S
C2192 C2193 1.377 . S
C2193 H2177 0.930 . S
C2193 C2192 1.377 . S
C2193 C2194 1.379 . S
C2194 H2178 0.931 . S
C2194 C2188 1.383 . S
C2194 C2193 1.379 . S
H2195 C2189 0.959 . S
H2196 C2189 0.961 . S
H2197 C2189 0.960 . S
H2198 C2190 0.930 . S
H2199 C2191 0.929 . S
H2200 C2208 0.929 . S
H2201 C2210 0.930 . S
H2202 C2212 0.930 . S
H2203 C2215 0.929 . S
H2204 C2218 0.930 . S
H2205 C2220 0.960 . S
H2206 C2220 0.960 . S
H2207 C2220 0.960 . S
C2208 H2200 0.929 . S
C2208 C2209 1.377 . S
C2208 C2210 1.384 . S
C2209 C2208 1.377 . S
C2209 C2215 1.390 . S
C2210 H2201 0.930 . S
C2210 C2208 1.384 . S
C2210 C2211 1.372 . S
C2211 C2210 1.372 . S
C2211 C2212 1.400 . S
C2211 C2216 1.490 . S
C2212 H2202 0.930 . S
C2212 C2211 1.400 . S
C2212 C2215 1.386 . S
H2213 C2229 0.930 . S
H2214 C2230 0.931 . S
C2215 H2203 0.929 . S
C2215 C2209 1.390 . S
C2215 C2212 1.386 . S
C2216 C2211 1.490 . S
C2216 C2218 1.395 . S
C2216 C2219 1.403 . S
H2217 C2223 0.930 . S
C2218 H2204 0.930 . S
C2218 C2216 1.395 . S
C2218 C2221 1.403 1_655 S
C2219 C2216 1.403 . S
C2219 C2220 1.524 . S
C2219 C2223 1.400 . S
C2220 H2205 0.960 . S
C2220 H2206 0.960 . S
C2220 H2207 0.960 . S
C2220 C2219 1.524 . S
C2221 C2218 1.403 1_455 S
C2221 C2222 1.392 . S
C2221 C2225 1.495 . S
C2222 C2221 1.392 . S
C2222 C2223 1.385 1_455 S
C2222 C2224 1.478 . S
C2223 H2217 0.930 . S
C2223 C2219 1.400 . S
C2223 C2222 1.385 1_655 S
C2224 C2222 1.478 . S
C2224 C2226 1.381 . S
C2224 C2230 1.383 . S
C2225 C2221 1.495 . S
C2225 H2231 0.959 . S
C2225 H2232 0.961 . S
C2225 H2233 0.960 . S
C2226 C2224 1.381 . S
C2226 C2227 1.394 . S
C2226 H2234 0.930 . S
C2227 C2226 1.394 . S
C2227 C2228 1.383 . S
C2227 H2235 0.929 . S
C2228 C2227 1.383 . S
C2228 C2229 1.377 . S
C2229 H2213 0.930 . S
C2229 C2228 1.377 . S
C2229 C2230 1.379 . S
C2230 H2214 0.931 . S
C2230 C2224 1.383 . S
C2230 C2229 1.379 . S
H2231 C2225 0.959 . S
H2232 C2225 0.961 . S
H2233 C2225 0.960 . S
H2234 C2226 0.930 . S
H2235 C2227 0.929 . S
H2236 C2244 0.929 . S
H2237 C2246 0.930 . S
H2238 C2248 0.930 . S
H2239 C2251 0.929 . S
H2240 C2254 0.930 . S
H2241 C2256 0.960 . S
H2242 C2256 0.960 . S
H2243 C2256 0.960 . S
C2244 H2236 0.929 . S
C2244 C2245 1.377 . S
C2244 C2246 1.384 . S
C2245 C2244 1.377 . S
C2245 C2251 1.390 . S
C2246 H2237 0.930 . S
C2246 C2244 1.384 . S
C2246 C2247 1.372 . S
C2247 C2246 1.372 . S
C2247 C2248 1.400 . S
C2247 C2252 1.490 . S
C2248 H2238 0.930 . S
C2248 C2247 1.400 . S
C2248 C2251 1.386 . S
H2249 C2265 0.930 . S
H2250 C2266 0.931 . S
C2251 H2239 0.929 . S
C2251 C2245 1.390 . S
C2251 C2248 1.386 . S
C2252 C2247 1.490 . S
C2252 C2254 1.395 . S
C2252 C2255 1.403 . S
H2253 C2259 0.930 . S
C2254 H2240 0.930 . S
C2254 C2252 1.395 . S
C2254 C2257 1.403 . S
C2255 C2252 1.403 . S
C2255 C2256 1.524 . S
C2255 C2259 1.400 . S
C2256 H2241 0.960 . S
C2256 H2242 0.960 . S
C2256 H2243 0.960 . S
C2256 C2255 1.524 . S
C2257 C2254 1.403 . S
C2257 C2258 1.392 . S
C2257 C2261 1.495 . S
C2258 C2257 1.392 . S
C2258 C2259 1.385 . S
C2258 C2260 1.478 . S
C2259 H2253 0.930 . S
C2259 C2255 1.400 . S
C2259 C2258 1.385 . S
C2260 C2258 1.478 . S
C2260 C2262 1.381 . S
C2260 C2266 1.383 . S
C2261 C2257 1.495 . S
C2261 H2267 0.959 . S
C2261 H2268 0.961 . S
C2261 H2269 0.960 . S
C2262 C2260 1.381 . S
C2262 C2263 1.394 . S
C2262 H2270 0.930 . S
C2263 C2262 1.394 . S
C2263 C2264 1.383 . S
C2263 H2271 0.929 . S
C2264 C2263 1.383 . S
C2264 C2265 1.377 . S
C2265 H2249 0.930 . S
C2265 C2264 1.377 . S
C2265 C2266 1.379 . S
C2266 H2250 0.931 . S
C2266 C2260 1.383 . S
C2266 C2265 1.379 . S
H2267 C2261 0.959 . S
H2268 C2261 0.961 . S
H2269 C2261 0.960 . S
H2270 C2262 0.930 . S
H2271 C2263 0.929 . S
H2272 C2280 0.929 1_545 S
H2273 C2282 0.930 . S
H2274 C2284 0.930 . S
H2275 C2287 0.929 . S
H2276 C2290 0.930 . S
H2277 C2292 0.960 . S
H2278 C2292 0.960 . S
H2279 C2292 0.960 . S
C2280 H2272 0.929 1_565 S
C2280 C2281 1.377 . S
C2280 C2282 1.384 . S
C2281 C2280 1.377 . S
C2281 C2287 1.390 . S
C2282 H2273 0.930 . S
C2282 C2280 1.384 . S
C2282 C2283 1.372 . S
C2283 C2282 1.372 . S
C2283 C2284 1.400 . S
C2283 C2288 1.490 . S
C2284 H2274 0.930 . S
C2284 C2283 1.400 . S
C2284 C2287 1.386 . S
H2285 C2301 0.930 . S
H2286 C2302 0.931 . S
C2287 H2275 0.929 . S
C2287 C2281 1.390 . S
C2287 C2284 1.386 . S
C2288 C2283 1.490 . S
C2288 C2290 1.395 . S
C2288 C2291 1.403 . S
H2289 C2295 0.930 . S
C2290 H2276 0.930 . S
C2290 C2288 1.395 . S
C2290 C2293 1.403 1_455 S
C2291 C2288 1.403 . S
C2291 C2292 1.524 . S
C2291 C2295 1.400 . S
C2292 H2277 0.960 . S
C2292 H2278 0.960 . S
C2292 H2279 0.960 . S
C2292 C2291 1.524 . S
C2293 C2290 1.403 1_655 S
C2293 C2294 1.392 . S
C2293 C2297 1.495 . S
C2294 C2293 1.392 . S
C2294 C2295 1.385 1_655 S
C2294 C2296 1.478 . S
C2295 H2289 0.930 . S
C2295 C2291 1.400 . S
C2295 C2294 1.385 1_455 S
C2296 C2294 1.478 . S
C2296 C2298 1.381 . S
C2296 C2302 1.383 . S
C2297 C2293 1.495 . S
C2297 H2303 0.959 . S
C2297 H2304 0.961 . S
C2297 H2305 0.960 . S
C2298 C2296 1.381 . S
C2298 C2299 1.394 . S
C2298 H2306 0.930 . S
C2299 C2298 1.394 . S
C2299 C2300 1.383 . S
C2299 H2307 0.929 . S
C2300 C2299 1.383 . S
C2300 C2301 1.377 . S
C2301 H2285 0.930 . S
C2301 C2300 1.377 . S
C2301 C2302 1.379 . S
C2302 H2286 0.931 . S
C2302 C2296 1.383 . S
C2302 C2301 1.379 . S
H2303 C2297 0.959 . S
H2304 C2297 0.961 . S
H2305 C2297 0.960 . S
H2306 C2298 0.930 . S
H2307 C2299 0.929 . S
H2308 C2316 0.929 . S
H2309 C2318 0.930 . S
H2310 C2320 0.930 . S
H2311 C2323 0.929 . S
H2312 C2326 0.930 . S
H2313 C2328 0.960 . S
H2314 C2328 0.960 . S
H2315 C2328 0.960 . S
C2316 H2308 0.929 . S
C2316 C2317 1.377 . S
C2316 C2318 1.384 . S
C2317 C2316 1.377 . S
C2317 C2323 1.390 . S
C2318 H2309 0.930 . S
C2318 C2316 1.384 . S
C2318 C2319 1.372 . S
C2319 C2318 1.372 . S
C2319 C2320 1.400 . S
C2319 C2324 1.490 . S
C2320 H2310 0.930 . S
C2320 C2319 1.400 . S
C2320 C2323 1.386 . S
H2321 C2337 0.930 . S
H2322 C2338 0.931 . S
C2323 H2311 0.929 . S
C2323 C2317 1.390 . S
C2323 C2320 1.386 . S
C2324 C2319 1.490 . S
C2324 C2326 1.395 . S
C2324 C2327 1.403 . S
H2325 C2331 0.930 . S
C2326 H2312 0.930 . S
C2326 C2324 1.395 . S
C2326 C2329 1.403 . S
C2327 C2324 1.403 . S
C2327 C2328 1.524 . S
C2327 C2331 1.400 . S
C2328 H2313 0.960 . S
C2328 H2314 0.960 . S
C2328 H2315 0.960 . S
C2328 C2327 1.524 . S
C2329 C2326 1.403 . S
C2329 C2330 1.392 . S
C2329 C2333 1.495 . S
C2330 C2329 1.392 . S
C2330 C2331 1.385 . S
C2330 C2332 1.478 . S
C2331 H2325 0.930 . S
C2331 C2327 1.400 . S
C2331 C2330 1.385 . S
C2332 C2330 1.478 . S
C2332 C2334 1.381 . S
C2332 C2338 1.383 . S
C2333 C2329 1.495 . S
C2333 H2339 0.959 . S
C2333 H2340 0.961 . S
C2333 H2341 0.960 . S
C2334 C2332 1.381 . S
C2334 C2335 1.394 . S
C2334 H2342 0.930 . S
C2335 C2334 1.394 . S
C2335 C2336 1.383 . S
C2335 H2343 0.929 . S
C2336 C2335 1.383 . S
C2336 C2337 1.377 . S
C2337 H2321 0.930 . S
C2337 C2336 1.377 . S
C2337 C2338 1.379 . S
C2338 H2322 0.931 . S
C2338 C2332 1.383 . S
C2338 C2337 1.379 . S
H2339 C2333 0.959 . S
H2340 C2333 0.961 . S
H2341 C2333 0.960 . S
H2342 C2334 0.930 . S
H2343 C2335 0.929 . S
H2344 C2352 0.929 . S
H2345 C2354 0.930 . S
H2346 C2356 0.930 . S
H2347 C2359 0.929 . S
H2348 C2362 0.930 . S
H2349 C2364 0.960 . S
H2350 C2364 0.960 . S
H2351 C2364 0.960 . S
C2352 H2344 0.929 . S
C2352 C2353 1.377 . S
C2352 C2354 1.384 . S
C2353 C2352 1.377 . S
C2353 C2359 1.390 . S
C2354 H2345 0.930 . S
C2354 C2352 1.384 . S
C2354 C2355 1.372 . S
C2355 C2354 1.372 . S
C2355 C2356 1.400 . S
C2355 C2360 1.490 . S
C2356 H2346 0.930 . S
C2356 C2355 1.400 . S
C2356 C2359 1.386 . S
H2357 C2373 0.930 . S
H2358 C2374 0.931 . S
C2359 H2347 0.929 . S
C2359 C2353 1.390 . S
C2359 C2356 1.386 . S
C2360 C2355 1.490 . S
C2360 C2362 1.395 . S
C2360 C2363 1.403 . S
H2361 C2367 0.930 . S
C2362 H2348 0.930 . S
C2362 C2360 1.395 . S
C2362 C2365 1.403 1_655 S
C2363 C2360 1.403 . S
C2363 C2364 1.524 . S
C2363 C2367 1.400 . S
C2364 H2349 0.960 . S
C2364 H2350 0.960 . S
C2364 H2351 0.960 . S
C2364 C2363 1.524 . S
C2365 C2362 1.403 1_455 S
C2365 C2366 1.392 . S
C2365 C2369 1.495 . S
C2366 C2365 1.392 . S
C2366 C2367 1.385 1_455 S
C2366 C2368 1.478 . S
C2367 H2361 0.930 . S
C2367 C2363 1.400 . S
C2367 C2366 1.385 1_655 S
C2368 C2366 1.478 . S
C2368 C2370 1.381 . S
C2368 C2374 1.383 . S
C2369 C2365 1.495 . S
C2369 H2375 0.959 . S
C2369 H2376 0.961 . S
C2369 H2377 0.960 . S
C2370 C2368 1.381 . S
C2370 C2371 1.394 . S
C2370 H2378 0.930 . S
C2371 C2370 1.394 . S
C2371 C2372 1.383 . S
C2371 H2379 0.929 . S
C2372 C2371 1.383 . S
C2372 C2373 1.377 . S
C2373 H2357 0.930 . S
C2373 C2372 1.377 . S
C2373 C2374 1.379 . S
C2374 H2358 0.931 . S
C2374 C2368 1.383 . S
C2374 C2373 1.379 . S
H2375 C2369 0.959 . S
H2376 C2369 0.961 . S
H2377 C2369 0.960 . S
H2378 C2370 0.930 . S
H2379 C2371 0.929 . S
H2380 C2388 0.929 . S
H2381 C2390 0.930 . S
H2382 C2392 0.930 . S
H2383 C2395 0.929 . S
H2384 C2398 0.930 . S
H2385 C2400 0.960 . S
H2386 C2400 0.960 . S
H2387 C2400 0.960 . S
C2388 H2380 0.929 . S
C2388 C2389 1.377 . S
C2388 C2390 1.384 . S
C2389 C2388 1.377 . S
C2389 C2395 1.390 . S
C2390 H2381 0.930 . S
C2390 C2388 1.384 . S
C2390 C2391 1.372 . S
C2391 C2390 1.372 . S
C2391 C2392 1.400 . S
C2391 C2396 1.490 . S
C2392 H2382 0.930 . S
C2392 C2391 1.400 . S
C2392 C2395 1.386 . S
H2393 C2409 0.930 . S
H2394 C2410 0.931 . S
C2395 H2383 0.929 . S
C2395 C2389 1.390 . S
C2395 C2392 1.386 . S
C2396 C2391 1.490 . S
C2396 C2398 1.395 . S
C2396 C2399 1.403 . S
H2397 C2403 0.930 . S
C2398 H2384 0.930 . S
C2398 C2396 1.395 . S
C2398 C2401 1.403 . S
C2399 C2396 1.403 . S
C2399 C2400 1.524 . S
C2399 C2403 1.400 . S
C2400 H2385 0.960 . S
C2400 H2386 0.960 . S
C2400 H2387 0.960 . S
C2400 C2399 1.524 . S
C2401 C2398 1.403 . S
C2401 C2402 1.392 . S
C2401 C2405 1.495 . S
C2402 C2401 1.392 . S
C2402 C2403 1.385 . S
C2402 C2404 1.478 . S
C2403 H2397 0.930 . S
C2403 C2399 1.400 . S
C2403 C2402 1.385 . S
C2404 C2402 1.478 . S
C2404 C2406 1.381 . S
C2404 C2410 1.383 . S
C2405 C2401 1.495 . S
C2405 H2411 0.959 . S
C2405 H2412 0.961 . S
C2405 H2413 0.960 . S
C2406 C2404 1.381 . S
C2406 C2407 1.394 . S
C2406 H2414 0.930 . S
C2407 C2406 1.394 . S
C2407 C2408 1.383 . S
C2407 H2415 0.929 . S
C2408 C2407 1.383 . S
C2408 C2409 1.377 . S
C2409 H2393 0.930 . S
C2409 C2408 1.377 . S
C2409 C2410 1.379 . S
C2410 H2394 0.931 . S
C2410 C2404 1.383 . S
C2410 C2409 1.379 . S
H2411 C2405 0.959 . S
H2412 C2405 0.961 . S
H2413 C2405 0.960 . S
H2414 C2406 0.930 . S
H2415 C2407 0.929 . S
H2416 C2424 0.929 . S
H2417 C2426 0.930 . S
H2418 C2428 0.930 . S
H2419 C2431 0.929 . S
H2420 C2434 0.930 . S
H2421 C2436 0.960 . S
H2422 C2436 0.960 . S
H2423 C2436 0.960 . S
C2424 H2416 0.929 . S
C2424 C2425 1.377 . S
C2424 C2426 1.384 . S
C2425 C2424 1.377 . S
C2425 C2431 1.390 . S
C2426 H2417 0.930 . S
C2426 C2424 1.384 . S
C2426 C2427 1.372 . S
C2427 C2426 1.372 . S
C2427 C2428 1.400 . S
C2427 C2432 1.490 . S
C2428 H2418 0.930 . S
C2428 C2427 1.400 . S
C2428 C2431 1.386 . S
H2429 C2445 0.930 . S
H2430 C2446 0.931 . S
C2431 H2419 0.929 . S
C2431 C2425 1.390 . S
C2431 C2428 1.386 . S
C2432 C2427 1.490 . S
C2432 C2434 1.395 . S
C2432 C2435 1.403 . S
H2433 C2439 0.930 . S
C2434 H2420 0.930 . S
C2434 C2432 1.395 . S
C2434 C2437 1.403 . S
C2435 C2432 1.403 . S
C2435 C2436 1.524 . S
C2435 C2439 1.400 . S
C2436 H2421 0.960 . S
C2436 H2422 0.960 . S
C2436 H2423 0.960 . S
C2436 C2435 1.524 . S
C2437 C2434 1.403 . S
C2437 C2438 1.392 . S
C2437 C2441 1.495 . S
C2438 C2437 1.392 . S
C2438 C2439 1.385 . S
C2438 C2440 1.478 . S
C2439 H2433 0.930 . S
C2439 C2435 1.400 . S
C2439 C2438 1.385 . S
C2440 C2438 1.478 . S
C2440 C2442 1.381 . S
C2440 C2446 1.383 . S
C2441 C2437 1.495 . S
C2441 H2447 0.959 . S
C2441 H2448 0.961 . S
C2441 H2449 0.960 . S
C2442 C2440 1.381 . S
C2442 C2443 1.394 . S
C2442 H2450 0.930 . S
C2443 C2442 1.394 . S
C2443 C2444 1.383 . S
C2443 H2451 0.929 . S
C2444 C2443 1.383 . S
C2444 C2445 1.377 . S
C2445 H2429 0.930 . S
C2445 C2444 1.377 . S
C2445 C2446 1.379 . S
C2446 H2430 0.931 . S
C2446 C2440 1.383 . S
C2446 C2445 1.379 . S
H2447 C2441 0.959 . S
H2448 C2441 0.961 . S
H2449 C2441 0.960 . S
H2450 C2442 0.930 . S
H2451 C2443 0.929 . S
H2452 C2460 0.929 . S
H2453 C2462 0.930 . S
H2454 C2464 0.930 . S
H2455 C2467 0.929 . S
H2456 C2470 0.930 . S
H2457 C2472 0.960 . S
H2458 C2472 0.960 . S
H2459 C2472 0.960 . S
C2460 H2452 0.929 . S
C2460 C2461 1.377 . S
C2460 C2462 1.384 . S
C2461 C2460 1.377 . S
C2461 C2467 1.390 . S
C2462 H2453 0.930 . S
C2462 C2460 1.384 . S
C2462 C2463 1.372 . S
C2463 C2462 1.372 . S
C2463 C2464 1.400 . S
C2463 C2468 1.490 . S
C2464 H2454 0.930 . S
C2464 C2463 1.400 . S
C2464 C2467 1.386 . S
H2465 C2481 0.930 . S
H2466 C2482 0.931 . S
C2467 H2455 0.929 . S
C2467 C2461 1.390 . S
C2467 C2464 1.386 . S
C2468 C2463 1.490 . S
C2468 C2470 1.395 . S
C2468 C2471 1.403 . S
H2469 C2475 0.930 . S
C2470 H2456 0.930 . S
C2470 C2468 1.395 . S
C2470 C2473 1.403 . S
C2471 C2468 1.403 . S
C2471 C2472 1.524 . S
C2471 C2475 1.400 . S
C2472 H2457 0.960 . S
C2472 H2458 0.960 . S
C2472 H2459 0.960 . S
C2472 C2471 1.524 . S
C2473 C2470 1.403 . S
C2473 C2474 1.392 1_554 S
C2473 C2477 1.495 1_554 S
C2474 C2473 1.392 1_556 S
C2474 C2475 1.385 1_556 S
C2474 C2476 1.478 . S
C2475 H2469 0.930 . S
C2475 C2471 1.400 . S
C2475 C2474 1.385 1_554 S
C2476 C2474 1.478 . S
C2476 C2478 1.381 . S
C2476 C2482 1.383 . S
C2477 C2473 1.495 1_556 S
C2477 H2483 0.945 1_556 S
C2477 H2484 0.961 . S
C2477 H2485 0.960 . S
C2478 C2476 1.381 . S
C2478 C2479 1.394 . S
C2478 H2486 0.930 . S
C2479 C2478 1.394 . S
C2479 C2480 1.383 . S
C2479 H2487 0.929 . S
C2480 C2479 1.383 . S
C2480 C2481 1.377 . S
C2481 H2465 0.930 . S
C2481 C2480 1.377 . S
C2481 C2482 1.379 . S
C2482 H2466 0.931 . S
C2482 C2476 1.383 . S
C2482 C2481 1.379 . S
H2483 C2477 0.945 1_554 S
H2484 C2477 0.961 . S
H2485 C2477 0.960 . S
H2486 C2478 0.930 . S
H2487 C2479 0.929 . S
H2488 C2496 0.929 . S
H2489 C2498 0.930 . S
H2490 C2500 0.930 . S
H2491 C2503 0.929 . S
H2492 C2506 0.930 . S
H2493 C2508 0.960 . S
H2494 C2508 0.960 . S
H2495 C2508 0.960 . S
C2496 H2488 0.929 . S
C2496 C2497 1.377 . S
C2496 C2498 1.384 . S
C2497 C2496 1.377 . S
C2497 C2503 1.390 . S
C2498 H2489 0.930 . S
C2498 C2496 1.384 . S
C2498 C2499 1.372 . S
C2499 C2498 1.372 . S
C2499 C2500 1.400 . S
C2499 C2504 1.490 . S
C2500 H2490 0.930 . S
C2500 C2499 1.400 . S
C2500 C2503 1.386 . S
H2501 C2517 0.930 . S
H2502 C2518 0.931 . S
C2503 H2491 0.929 . S
C2503 C2497 1.390 . S
C2503 C2500 1.386 . S
C2504 C2499 1.490 . S
C2504 C2506 1.395 . S
C2504 C2507 1.403 . S
H2505 C2511 0.930 . S
C2506 H2492 0.930 . S
C2506 C2504 1.395 . S
C2506 C2509 1.403 . S
C2507 C2504 1.403 . S
C2507 C2508 1.524 . S
C2507 C2511 1.400 . S
C2508 H2493 0.960 . S
C2508 H2494 0.960 . S
C2508 H2495 0.960 . S
C2508 C2507 1.524 . S
C2509 C2506 1.403 . S
C2509 C2510 1.392 . S
C2509 C2513 1.495 . S
C2510 C2509 1.392 . S
C2510 C2511 1.385 . S
C2510 C2512 1.478 . S
C2511 H2505 0.930 . S
C2511 C2507 1.400 . S
C2511 C2510 1.385 . S
C2512 C2510 1.478 . S
C2512 C2514 1.381 . S
C2512 C2518 1.383 . S
C2513 C2509 1.495 . S
C2513 H2519 0.959 . S
C2513 H2520 0.961 . S
C2513 H2521 0.960 . S
C2514 C2512 1.381 . S
C2514 C2515 1.394 . S
C2514 H2522 0.930 . S
C2515 C2514 1.394 . S
C2515 C2516 1.383 . S
C2515 H2523 0.929 . S
C2516 C2515 1.383 . S
C2516 C2517 1.377 . S
C2517 H2501 0.930 . S
C2517 C2516 1.377 . S
C2517 C2518 1.379 . S
C2518 H2502 0.931 . S
C2518 C2512 1.383 . S
C2518 C2517 1.379 . S
H2519 C2513 0.959 . S
H2520 C2513 0.961 . S
H2521 C2513 0.960 . S
H2522 C2514 0.930 . S
H2523 C2515 0.929 . S
H2524 C2532 0.929 . S
H2525 C2534 0.930 . S
H2526 C2536 0.930 . S
H2527 C2539 0.929 . S
H2528 C2542 0.930 . S
H2529 C2544 0.960 . S
H2530 C2544 0.960 . S
H2531 C2544 0.960 . S
C2532 H2524 0.929 . S
C2532 C2533 1.377 . S
C2532 C2534 1.384 . S
C2533 C2532 1.377 . S
C2533 C2539 1.390 . S
C2534 H2525 0.930 . S
C2534 C2532 1.384 . S
C2534 C2535 1.372 . S
C2535 C2534 1.372 . S
C2535 C2536 1.400 . S
C2535 C2540 1.490 . S
C2536 H2526 0.930 . S
C2536 C2535 1.400 . S
C2536 C2539 1.386 . S
H2537 C2553 0.930 . S
H2538 C2554 0.931 . S
C2539 H2527 0.929 . S
C2539 C2533 1.390 . S
C2539 C2536 1.386 . S
C2540 C2535 1.490 . S
C2540 C2542 1.395 . S
C2540 C2543 1.403 . S
H2541 C2547 0.930 . S
C2542 H2528 0.930 . S
C2542 C2540 1.395 . S
C2542 C2545 1.403 . S
C2543 C2540 1.403 . S
C2543 C2544 1.524 . S
C2543 C2547 1.400 . S
C2544 H2529 0.960 . S
C2544 H2530 0.960 . S
C2544 H2531 0.960 . S
C2544 C2543 1.524 . S
C2545 C2542 1.403 . S
C2545 C2546 1.392 . S
C2545 C2549 1.495 . S
C2546 C2545 1.392 . S
C2546 C2547 1.385 . S
C2546 C2548 1.478 . S
C2547 H2541 0.930 . S
C2547 C2543 1.400 . S
C2547 C2546 1.385 . S
C2548 C2546 1.478 . S
C2548 C2550 1.381 . S
C2548 C2554 1.383 . S
C2549 C2545 1.495 . S
C2549 H2555 0.959 . S
C2549 H2556 0.961 . S
C2549 H2557 0.960 . S
C2550 C2548 1.381 . S
C2550 C2551 1.394 . S
C2550 H2558 0.930 . S
C2551 C2550 1.394 . S
C2551 C2552 1.383 . S
C2551 H2559 0.929 . S
C2552 C2551 1.383 . S
C2552 C2553 1.377 . S
C2553 H2537 0.930 . S
C2553 C2552 1.377 . S
C2553 C2554 1.379 . S
C2554 H2538 0.931 . S
C2554 C2548 1.383 . S
C2554 C2553 1.379 . S
H2555 C2549 0.959 . S
H2556 C2549 0.961 . S
H2557 C2549 0.960 . S
H2558 C2550 0.930 . S
H2559 C2551 0.929 . S
H2560 C2568 0.929 . S
H2561 C2570 0.930 . S
H2562 C2572 0.930 . S
H2563 C2575 0.929 . S
H2564 C2578 0.930 . S
H2565 C2580 0.960 . S
H2566 C2580 0.960 . S
H2567 C2580 0.960 . S
C2568 H2560 0.929 . S
C2568 C2569 1.377 . S
C2568 C2570 1.384 . S
C2569 C2568 1.377 . S
C2569 C2575 1.390 . S
C2570 H2561 0.930 . S
C2570 C2568 1.384 . S
C2570 C2571 1.372 . S
C2571 C2570 1.372 . S
C2571 C2572 1.400 . S
C2571 C2576 1.490 . S
C2572 H2562 0.930 . S
C2572 C2571 1.400 . S
C2572 C2575 1.386 . S
H2573 C2589 0.930 . S
H2574 C2590 0.931 . S
C2575 H2563 0.929 . S
C2575 C2569 1.390 . S
C2575 C2572 1.386 . S
C2576 C2571 1.490 . S
C2576 C2578 1.395 . S
C2576 C2579 1.403 . S
H2577 C2583 0.930 . S
C2578 H2564 0.930 . S
C2578 C2576 1.395 . S
C2578 C2581 1.403 . S
C2579 C2576 1.403 . S
C2579 C2580 1.524 . S
C2579 C2583 1.400 . S
C2580 H2565 0.960 . S
C2580 H2566 0.960 . S
C2580 H2567 0.960 . S
C2580 C2579 1.524 . S
C2581 C2578 1.403 . S
C2581 C2582 1.392 . S
C2581 C2585 1.495 . S
C2582 C2581 1.392 . S
C2582 C2583 1.385 . S
C2582 C2584 1.478 . S
C2583 H2577 0.930 . S
C2583 C2579 1.400 . S
C2583 C2582 1.385 . S
C2584 C2582 1.478 . S
C2584 C2586 1.381 . S
C2584 C2590 1.383 . S
C2585 C2581 1.495 . S
C2585 H2591 0.959 . S
C2585 H2592 0.961 . S
C2585 H2593 0.960 . S
C2586 C2584 1.381 . S
C2586 C2587 1.394 . S
C2586 H2594 0.930 . S
C2587 C2586 1.394 . S
C2587 C2588 1.383 . S
C2587 H2595 0.929 . S
C2588 C2587 1.383 . S
C2588 C2589 1.377 . S
C2589 H2573 0.930 . S
C2589 C2588 1.377 . S
C2589 C2590 1.379 . S
C2590 H2574 0.931 . S
C2590 C2584 1.383 . S
C2590 C2589 1.379 . S
H2591 C2585 0.959 . S
H2592 C2585 0.961 . S
H2593 C2585 0.960 . S
H2594 C2586 0.930 . S
H2595 C2587 0.929 . S
H2596 C2604 0.929 . S
H2597 C2606 0.930 . S
H2598 C2608 0.930 . S
H2599 C2611 0.929 . S
H2600 C2614 0.930 . S
H2601 C2616 0.960 . S
H2602 C2616 0.960 . S
H2603 C2616 0.960 . S
C2604 H2596 0.929 . S
C2604 C2605 1.377 . S
C2604 C2606 1.384 . S
C2605 C2604 1.377 . S
C2605 C2611 1.390 . S
C2606 H2597 0.930 . S
C2606 C2604 1.384 . S
C2606 C2607 1.372 . S
C2607 C2606 1.372 . S
C2607 C2608 1.400 . S
C2607 C2612 1.490 . S
C2608 H2598 0.930 . S
C2608 C2607 1.400 . S
C2608 C2611 1.386 . S
H2609 C2625 0.930 . S
H2610 C2626 0.931 . S
C2611 H2599 0.929 . S
C2611 C2605 1.390 . S
C2611 C2608 1.386 . S
C2612 C2607 1.490 . S
C2612 C2614 1.395 . S
C2612 C2615 1.403 . S
H2613 C2619 0.930 . S
C2614 H2600 0.930 . S
C2614 C2612 1.395 . S
C2614 C2617 1.414 . S
C2615 C2612 1.403 . S
C2615 C2616 1.524 . S
C2615 C2619 1.400 1_556 S
C2616 H2601 0.960 . S
C2616 H2602 0.960 . S
C2616 H2603 0.960 . S
C2616 C2615 1.524 . S
C2617 C2614 1.414 . S
C2617 C2618 1.386 1_556 S
C2617 C2621 1.492 1_556 S
C2618 C2617 1.386 1_554 S
C2618 C2619 1.385 . S
C2618 C2620 1.478 . S
C2619 H2613 0.930 . S
C2619 C2615 1.400 1_554 S
C2619 C2618 1.385 . S
C2620 C2618 1.478 . S
C2620 C2622 1.381 . S
C2620 C2626 1.383 . S
C2621 C2617 1.492 1_554 S
C2621 H2627 0.959 1_554 S
C2621 H2628 0.961 . S
C2621 H2629 0.960 . S
C2622 C2620 1.381 . S
C2622 C2623 1.394 . S
C2622 H2630 0.930 . S
C2623 C2622 1.394 . S
C2623 C2624 1.383 . S
C2623 H2631 0.929 . S
C2624 C2623 1.383 . S
C2624 C2625 1.377 . S
C2625 H2609 0.930 . S
C2625 C2624 1.377 . S
C2625 C2626 1.379 . S
C2626 H2610 0.931 . S
C2626 C2620 1.383 . S
C2626 C2625 1.379 . S
H2627 C2621 0.959 1_556 S
H2628 C2621 0.961 . S
H2629 C2621 0.960 . S
H2630 C2622 0.930 . S
H2631 C2623 0.929 . S
H2632 C2640 0.929 . S
H2633 C2642 0.930 . S
H2634 C2644 0.930 . S
H2635 C2647 0.929 . S
H2636 C2650 0.930 . S
H2637 C2652 0.960 . S
H2638 C2652 0.960 . S
H2639 C2652 0.960 . S
C2640 H2632 0.929 . S
C2640 C2641 1.377 . S
C2640 C2642 1.384 . S
C2641 C2640 1.377 . S
C2641 C2647 1.390 . S
C2642 H2633 0.930 . S
C2642 C2640 1.384 . S
C2642 C2643 1.372 . S
C2643 C2642 1.372 . S
C2643 C2644 1.400 . S
C2643 C2648 1.490 . S
C2644 H2634 0.930 . S
C2644 C2643 1.400 . S
C2644 C2647 1.386 . S
H2645 C2661 0.930 . S
H2646 C2662 0.931 . S
C2647 H2635 0.929 . S
C2647 C2641 1.390 . S
C2647 C2644 1.386 . S
C2648 C2643 1.490 . S
C2648 C2650 1.395 . S
C2648 C2651 1.403 . S
H2649 C2655 0.930 . S
C2650 H2636 0.930 . S
C2650 C2648 1.395 . S
C2650 C2653 1.403 . S
C2651 C2648 1.403 . S
C2651 C2652 1.524 . S
C2651 C2655 1.400 . S
C2652 H2637 0.960 . S
C2652 H2638 0.960 . S
C2652 H2639 0.960 . S
C2652 C2651 1.524 . S
C2653 C2650 1.403 . S
C2653 C2654 1.392 . S
C2653 C2657 1.495 . S
C2654 C2653 1.392 . S
C2654 C2655 1.385 . S
C2654 C2656 1.478 . S
C2655 H2649 0.930 . S
C2655 C2651 1.400 . S
C2655 C2654 1.385 . S
C2656 C2654 1.478 . S
C2656 C2658 1.381 . S
C2656 C2662 1.383 . S
C2657 C2653 1.495 . S
C2657 H2663 0.959 . S
C2657 H2664 0.961 . S
C2657 H2665 0.960 . S
C2658 C2656 1.381 . S
C2658 C2659 1.394 . S
C2658 H2666 0.930 . S
C2659 C2658 1.394 . S
C2659 C2660 1.383 . S
C2659 H2667 0.929 . S
C2660 C2659 1.383 . S
C2660 C2661 1.377 . S
C2661 H2645 0.930 . S
C2661 C2660 1.377 . S
C2661 C2662 1.379 . S
C2662 H2646 0.931 . S
C2662 C2656 1.383 . S
C2662 C2661 1.379 . S
H2663 C2657 0.959 . S
H2664 C2657 0.961 . S
H2665 C2657 0.960 . S
H2666 C2658 0.930 . S
H2667 C2659 0.929 . S
H2668 C2676 0.929 . S
H2669 C2678 0.930 . S
H2670 C2680 0.930 . S
H2671 C2683 0.929 . S
H2672 C2686 0.930 . S
H2673 C2688 0.960 . S
H2674 C2688 0.960 . S
H2675 C2688 0.960 . S
C2676 H2668 0.929 . S
C2676 C2677 1.377 . S
C2676 C2678 1.384 . S
C2677 C2676 1.377 . S
C2677 C2683 1.390 . S
C2678 H2669 0.930 . S
C2678 C2676 1.384 . S
C2678 C2679 1.372 . S
C2679 C2678 1.372 . S
C2679 C2680 1.400 . S
C2679 C2684 1.490 . S
C2680 H2670 0.930 . S
C2680 C2679 1.400 . S
C2680 C2683 1.386 . S
H2681 C2697 0.930 . S
H2682 C2698 0.931 . S
C2683 H2671 0.929 . S
C2683 C2677 1.390 . S
C2683 C2680 1.386 . S
C2684 C2679 1.490 . S
C2684 C2686 1.395 . S
C2684 C2687 1.403 . S
H2685 C2691 0.930 . S
C2686 H2672 0.930 . S
C2686 C2684 1.395 . S
C2686 C2689 1.403 . S
C2687 C2684 1.403 . S
C2687 C2688 1.524 . S
C2687 C2691 1.400 . S
C2688 H2673 0.960 . S
C2688 H2674 0.960 . S
C2688 H2675 0.960 . S
C2688 C2687 1.524 . S
C2689 C2686 1.403 . S
C2689 C2690 1.392 . S
C2689 C2693 1.495 . S
C2690 C2689 1.392 . S
C2690 C2691 1.385 . S
C2690 C2692 1.478 . S
C2691 H2685 0.930 . S
C2691 C2687 1.400 . S
C2691 C2690 1.385 . S
C2692 C2690 1.478 . S
C2692 C2694 1.381 . S
C2692 C2698 1.383 . S
C2693 C2689 1.495 . S
C2693 H2699 0.959 . S
C2693 H2700 0.961 . S
C2693 H2701 0.960 . S
C2694 C2692 1.381 . S
C2694 C2695 1.394 . S
C2694 H2702 0.930 . S
C2695 C2694 1.394 . S
C2695 C2696 1.383 . S
C2695 H2703 0.929 . S
C2696 C2695 1.383 . S
C2696 C2697 1.377 . S
C2697 H2681 0.930 . S
C2697 C2696 1.377 . S
C2697 C2698 1.379 . S
C2698 H2682 0.931 . S
C2698 C2692 1.383 . S
C2698 C2697 1.379 . S
H2699 C2693 0.959 . S
H2700 C2693 0.961 . S
H2701 C2693 0.960 . S
H2702 C2694 0.930 . S
H2703 C2695 0.929 . S
H2704 C2712 0.929 . S
H2705 C2714 0.930 . S
H2706 C2716 0.930 . S
H2707 C2719 0.929 . S
H2708 C2722 0.930 . S
H2709 C2724 0.960 . S
H2710 C2724 0.960 . S
H2711 C2724 0.960 . S
C2712 H2704 0.929 . S
C2712 C2713 1.377 . S
C2712 C2714 1.384 . S
C2713 C2712 1.377 . S
C2713 C2719 1.390 . S
C2714 H2705 0.930 . S
C2714 C2712 1.384 . S
C2714 C2715 1.372 . S
C2715 C2714 1.372 . S
C2715 C2716 1.400 . S
C2715 C2720 1.490 . S
C2716 H2706 0.930 . S
C2716 C2715 1.400 . S
C2716 C2719 1.386 . S
H2717 C2733 0.930 . S
H2718 C2734 0.931 . S
C2719 H2707 0.929 . S
C2719 C2713 1.390 . S
C2719 C2716 1.386 . S
C2720 C2715 1.490 . S
C2720 C2722 1.395 . S
C2720 C2723 1.403 . S
H2721 C2727 0.930 . S
C2722 H2708 0.930 . S
C2722 C2720 1.395 . S
C2722 C2725 1.403 . S
C2723 C2720 1.403 . S
C2723 C2724 1.524 . S
C2723 C2727 1.400 . S
C2724 H2709 0.960 . S
C2724 H2710 0.960 . S
C2724 H2711 0.960 . S
C2724 C2723 1.524 . S
C2725 C2722 1.403 . S
C2725 C2726 1.392 . S
C2725 C2729 1.495 . S
C2726 C2725 1.392 . S
C2726 C2727 1.385 . S
C2726 C2728 1.478 . S
C2727 H2721 0.930 . S
C2727 C2723 1.400 . S
C2727 C2726 1.385 . S
C2728 C2726 1.478 . S
C2728 C2730 1.381 . S
C2728 C2734 1.383 . S
C2729 C2725 1.495 . S
C2729 H2735 0.959 . S
C2729 H2736 0.961 . S
C2729 H2737 0.960 . S
C2730 C2728 1.381 . S
C2730 C2731 1.394 . S
C2730 H2738 0.930 . S
C2731 C2730 1.394 . S
C2731 C2732 1.383 . S
C2731 H2739 0.929 . S
C2732 C2731 1.383 . S
C2732 C2733 1.377 . S
C2733 H2717 0.930 . S
C2733 C2732 1.377 . S
C2733 C2734 1.379 . S
C2734 H2718 0.931 . S
C2734 C2728 1.383 . S
C2734 C2733 1.379 . S
H2735 C2729 0.959 . S
H2736 C2729 0.961 . S
H2737 C2729 0.960 . S
H2738 C2730 0.930 . S
H2739 C2731 0.929 . S
H2740 C2748 0.929 . S
H2741 C2750 0.930 . S
H2742 C2752 0.930 . S
H2743 C2755 0.929 . S
H2744 C2758 0.930 . S
H2745 C2760 0.960 . S
H2746 C2760 0.960 . S
H2747 C2760 0.960 . S
C2748 H2740 0.929 . S
C2748 C2749 1.377 . S
C2748 C2750 1.384 . S
C2749 C2748 1.377 . S
C2749 C2755 1.390 . S
C2750 H2741 0.930 . S
C2750 C2748 1.384 . S
C2750 C2751 1.372 . S
C2751 C2750 1.372 . S
C2751 C2752 1.400 . S
C2751 C2756 1.490 . S
C2752 H2742 0.930 . S
C2752 C2751 1.400 . S
C2752 C2755 1.386 . S
H2753 C2769 0.930 . S
H2754 C2770 0.931 . S
C2755 H2743 0.929 . S
C2755 C2749 1.390 . S
C2755 C2752 1.386 . S
C2756 C2751 1.490 . S
C2756 C2758 1.395 . S
C2756 C2759 1.403 . S
H2757 C2763 0.930 . S
C2758 H2744 0.930 . S
C2758 C2756 1.395 . S
C2758 C2761 1.403 . S
C2759 C2756 1.403 . S
C2759 C2760 1.524 . S
C2759 C2763 1.400 . S
C2760 H2745 0.960 . S
C2760 H2746 0.960 . S
C2760 H2747 0.960 . S
C2760 C2759 1.524 . S
C2761 C2758 1.403 . S
C2761 C2762 1.392 . S
C2761 C2765 1.495 . S
C2762 C2761 1.392 . S
C2762 C2763 1.385 . S
C2762 C2764 1.478 . S
C2763 H2757 0.930 . S
C2763 C2759 1.400 . S
C2763 C2762 1.385 . S
C2764 C2762 1.478 . S
C2764 C2766 1.381 . S
C2764 C2770 1.383 . S
C2765 C2761 1.495 . S
C2765 H2771 0.959 . S
C2765 H2772 0.961 . S
C2765 H2773 0.960 . S
C2766 C2764 1.381 . S
C2766 C2767 1.394 . S
C2766 H2774 0.930 . S
C2767 C2766 1.394 . S
C2767 C2768 1.383 . S
C2767 H2775 0.929 . S
C2768 C2767 1.383 . S
C2768 C2769 1.377 . S
C2769 H2753 0.930 . S
C2769 C2768 1.377 . S
C2769 C2770 1.379 . S
C2770 H2754 0.931 . S
C2770 C2764 1.383 . S
C2770 C2769 1.379 . S
H2771 C2765 0.959 . S
H2772 C2765 0.961 . S
H2773 C2765 0.960 . S
H2774 C2766 0.930 . S
H2775 C2767 0.929 . S
H2776 C2784 0.929 . S
H2777 C2786 0.930 . S
H2778 C2788 0.930 . S
H2779 C2791 0.929 . S
H2780 C2794 0.930 . S
H2781 C2796 0.960 . S
H2782 C2796 0.960 . S
H2783 C2796 0.960 . S
C2784 H2776 0.929 . S
C2784 C2785 1.377 . S
C2784 C2786 1.384 . S
C2785 C2784 1.377 . S
C2785 C2791 1.390 . S
C2786 H2777 0.930 . S
C2786 C2784 1.384 . S
C2786 C2787 1.372 . S
C2787 C2786 1.372 . S
C2787 C2788 1.400 . S
C2787 C2792 1.490 . S
C2788 H2778 0.930 . S
C2788 C2787 1.400 . S
C2788 C2791 1.386 . S
H2789 C2805 0.930 . S
H2790 C2806 0.931 . S
C2791 H2779 0.929 . S
C2791 C2785 1.390 . S
C2791 C2788 1.386 . S
C2792 C2787 1.490 . S
C2792 C2794 1.395 . S
C2792 C2795 1.403 . S
H2793 C2799 0.930 . S
C2794 H2780 0.930 . S
C2794 C2792 1.395 . S
C2794 C2797 1.403 . S
C2795 C2792 1.403 . S
C2795 C2796 1.524 . S
C2795 C2799 1.400 . S
C2796 H2781 0.960 . S
C2796 H2782 0.960 . S
C2796 H2783 0.960 . S
C2796 C2795 1.524 . S
C2797 C2794 1.403 . S
C2797 C2798 1.392 . S
C2797 C2801 1.495 . S
C2798 C2797 1.392 . S
C2798 C2799 1.385 . S
C2798 C2800 1.478 . S
C2799 H2793 0.930 . S
C2799 C2795 1.400 . S
C2799 C2798 1.385 . S
C2800 C2798 1.478 . S
C2800 C2802 1.381 . S
C2800 C2806 1.383 . S
C2801 C2797 1.495 . S
C2801 H2807 0.959 . S
C2801 H2808 0.961 . S
C2801 H2809 0.960 . S
C2802 C2800 1.381 . S
C2802 C2803 1.394 . S
C2802 H2810 0.930 . S
C2803 C2802 1.394 . S
C2803 C2804 1.383 . S
C2803 H2811 0.929 . S
C2804 C2803 1.383 . S
C2804 C2805 1.377 . S
C2805 H2789 0.930 . S
C2805 C2804 1.377 . S
C2805 C2806 1.379 . S
C2806 H2790 0.931 . S
C2806 C2800 1.383 . S
C2806 C2805 1.379 . S
H2807 C2801 0.959 . S
H2808 C2801 0.961 . S
H2809 C2801 0.960 . S
H2810 C2802 0.930 . S
H2811 C2803 0.929 . S
H2812 C2820 0.929 . S
H2813 C2822 0.930 . S
H2814 C2824 0.930 . S
H2815 C2827 0.929 . S
H2816 C2830 0.930 . S
H2817 C2832 0.960 . S
H2818 C2832 0.960 . S
H2819 C2832 0.960 . S
C2820 H2812 0.929 . S
C2820 C2821 1.377 . S
C2820 C2822 1.384 . S
C2821 C2820 1.377 . S
C2821 C2827 1.390 . S
C2822 H2813 0.930 . S
C2822 C2820 1.384 . S
C2822 C2823 1.372 . S
C2823 C2822 1.372 . S
C2823 C2824 1.400 . S
C2823 C2828 1.490 . S
C2824 H2814 0.930 . S
C2824 C2823 1.400 . S
C2824 C2827 1.386 . S
H2825 C2841 0.930 . S
H2826 C2842 0.931 . S
C2827 H2815 0.929 . S
C2827 C2821 1.390 . S
C2827 C2824 1.386 . S
C2828 C2823 1.490 . S
C2828 C2830 1.395 . S
C2828 C2831 1.403 . S
H2829 C2835 0.930 . S
C2830 H2816 0.930 . S
C2830 C2828 1.395 . S
C2830 C2833 1.403 . S
C2831 C2828 1.403 . S
C2831 C2832 1.524 . S
C2831 C2835 1.400 . S
C2832 H2817 0.960 . S
C2832 H2818 0.960 . S
C2832 H2819 0.960 . S
C2832 C2831 1.524 . S
C2833 C2830 1.403 . S
C2833 C2834 1.392 . S
C2833 C2837 1.495 . S
C2834 C2833 1.392 . S
C2834 C2835 1.385 . S
C2834 C2836 1.478 . S
C2835 H2829 0.930 . S
C2835 C2831 1.400 . S
C2835 C2834 1.385 . S
C2836 C2834 1.478 . S
C2836 C2838 1.381 . S
C2836 C2842 1.383 . S
C2837 C2833 1.495 . S
C2837 H2843 0.959 . S
C2837 H2844 0.961 . S
C2837 H2845 0.960 . S
C2838 C2836 1.381 . S
C2838 C2839 1.394 . S
C2838 H2846 0.930 . S
C2839 C2838 1.394 . S
C2839 C2840 1.383 . S
C2839 H2847 0.929 . S
C2840 C2839 1.383 . S
C2840 C2841 1.377 . S
C2841 H2825 0.930 . S
C2841 C2840 1.377 . S
C2841 C2842 1.379 . S
C2842 H2826 0.931 . S
C2842 C2836 1.383 . S
C2842 C2841 1.379 . S
H2843 C2837 0.959 . S
H2844 C2837 0.961 . S
H2845 C2837 0.960 . S
H2846 C2838 0.930 . S
H2847 C2839 0.929 . S
H2848 C2856 0.929 . S
H2849 C2858 0.930 . S
H2850 C2860 0.930 . S
H2851 C2863 0.929 . S
H2852 C2866 0.930 . S
H2853 C2868 0.960 . S
H2854 C2868 0.960 . S
H2855 C2868 0.960 . S
C2856 H2848 0.929 . S
C2856 C2857 1.377 . S
C2856 C2858 1.384 . S
C2857 C2856 1.377 . S
C2857 C2863 1.390 . S
C2858 H2849 0.930 . S
C2858 C2856 1.384 . S
C2858 C2859 1.372 . S
C2859 C2858 1.372 . S
C2859 C2860 1.400 . S
C2859 C2864 1.490 . S
C2860 H2850 0.930 . S
C2860 C2859 1.400 . S
C2860 C2863 1.386 . S
H2861 C2877 0.930 . S
H2862 C2878 0.931 . S
C2863 H2851 0.929 . S
C2863 C2857 1.390 . S
C2863 C2860 1.386 . S
C2864 C2859 1.490 . S
C2864 C2866 1.395 . S
C2864 C2867 1.403 . S
H2865 C2871 0.930 . S
C2866 H2852 0.930 . S
C2866 C2864 1.395 . S
C2866 C2869 1.403 . S
C2867 C2864 1.403 . S
C2867 C2868 1.524 . S
C2867 C2871 1.400 . S
C2868 H2853 0.960 . S
C2868 H2854 0.960 . S
C2868 H2855 0.960 . S
C2868 C2867 1.524 . S
C2869 C2866 1.403 . S
C2869 C2870 1.392 . S
C2869 C2873 1.495 . S
C2870 C2869 1.392 . S
C2870 C2871 1.385 . S
C2870 C2872 1.478 . S
C2871 H2865 0.930 . S
C2871 C2867 1.400 . S
C2871 C2870 1.385 . S
C2872 C2870 1.478 . S
C2872 C2874 1.381 . S
C2872 C2878 1.383 . S
C2873 C2869 1.495 . S
C2873 H2879 0.959 . S
C2873 H2880 0.961 . S
C2873 H2881 0.960 . S
C2874 C2872 1.381 . S
C2874 C2875 1.394 . S
C2874 H2882 0.930 . S
C2875 C2874 1.394 . S
C2875 C2876 1.383 . S
C2875 H2883 0.929 . S
C2876 C2875 1.383 . S
C2876 C2877 1.377 . S
C2877 H2861 0.930 . S
C2877 C2876 1.377 . S
C2877 C2878 1.379 . S
C2878 H2862 0.931 . S
C2878 C2872 1.383 . S
C2878 C2877 1.379 . S
H2879 C2873 0.959 . S
H2880 C2873 0.961 . S
H2881 C2873 0.960 . S
H2882 C2874 0.930 . S
H2883 C2875 0.929 . S
H2884 C2892 0.929 . S
H2885 C2894 0.930 . S
H2886 C2896 0.930 . S
H2887 C2899 0.929 . S
H2888 C2902 0.930 . S
H2889 C2904 0.960 . S
H2890 C2904 0.960 . S
H2891 C2904 0.960 . S
C2892 H2884 0.929 . S
C2892 C2893 1.377 . S
C2892 C2894 1.384 . S
C2893 C2892 1.377 . S
C2893 C2899 1.390 . S
C2894 H2885 0.930 . S
C2894 C2892 1.384 . S
C2894 C2895 1.372 . S
C2895 C2894 1.372 . S
C2895 C2896 1.400 . S
C2895 C2900 1.490 . S
C2896 H2886 0.930 . S
C2896 C2895 1.400 . S
C2896 C2899 1.386 . S
H2897 C2913 0.930 . S
H2898 C2914 0.931 . S
C2899 H2887 0.929 . S
C2899 C2893 1.390 . S
C2899 C2896 1.386 . S
C2900 C2895 1.490 . S
C2900 C2902 1.395 . S
C2900 C2903 1.403 . S
H2901 C2907 0.930 . S
C2902 H2888 0.930 . S
C2902 C2900 1.395 . S
C2902 C2905 1.403 . S
C2903 C2900 1.403 . S
C2903 C2904 1.524 . S
C2903 C2907 1.400 . S
C2904 H2889 0.960 . S
C2904 H2890 0.960 . S
C2904 H2891 0.960 . S
C2904 C2903 1.524 . S
C2905 C2902 1.403 . S
C2905 C2906 1.392 . S
C2905 C2909 1.495 . S
C2906 C2905 1.392 . S
C2906 C2907 1.385 . S
C2906 C2908 1.478 . S
C2907 H2901 0.930 . S
C2907 C2903 1.400 . S
C2907 C2906 1.385 . S
C2908 C2906 1.478 . S
C2908 C2910 1.381 . S
C2908 C2914 1.383 . S
C2909 C2905 1.495 . S
C2909 H2915 0.959 . S
C2909 H2916 0.961 . S
C2909 H2917 0.960 . S
C2910 C2908 1.381 . S
C2910 C2911 1.394 . S
C2910 H2918 0.930 . S
C2911 C2910 1.394 . S
C2911 C2912 1.383 . S
C2911 H2919 0.929 . S
C2912 C2911 1.383 . S
C2912 C2913 1.377 . S
C2913 H2897 0.930 . S
C2913 C2912 1.377 . S
C2913 C2914 1.379 . S
C2914 H2898 0.931 . S
C2914 C2908 1.383 . S
C2914 C2913 1.379 . S
H2915 C2909 0.959 . S
H2916 C2909 0.961 . S
H2917 C2909 0.960 . S
H2918 C2910 0.930 . S
H2919 C2911 0.929 . S
H2920 C2928 0.929 . S
H2921 C2930 0.930 . S
H2922 C2932 0.930 . S
H2923 C2935 0.929 . S
H2924 C2938 0.930 . S
H2925 C2940 0.960 . S
H2926 C2940 0.960 . S
H2927 C2940 0.960 . S
C2928 H2920 0.929 . S
C2928 C2929 1.377 . S
C2928 C2930 1.384 . S
C2929 C2928 1.377 . S
C2929 C2935 1.390 . S
C2930 H2921 0.930 . S
C2930 C2928 1.384 . S
C2930 C2931 1.372 . S
C2931 C2930 1.372 . S
C2931 C2932 1.400 . S
C2931 C2936 1.490 . S
C2932 H2922 0.930 . S
C2932 C2931 1.400 . S
C2932 C2935 1.386 . S
H2933 C2949 0.930 . S
H2934 C2950 0.931 . S
C2935 H2923 0.929 . S
C2935 C2929 1.390 . S
C2935 C2932 1.386 . S
C2936 C2931 1.490 . S
C2936 C2938 1.395 . S
C2936 C2939 1.403 . S
H2937 C2943 0.930 . S
C2938 H2924 0.930 . S
C2938 C2936 1.395 . S
C2938 C2941 1.403 . S
C2939 C2936 1.403 . S
C2939 C2940 1.524 . S
C2939 C2943 1.400 . S
C2940 H2925 0.960 . S
C2940 H2926 0.960 . S
C2940 H2927 0.960 . S
C2940 C2939 1.524 . S
C2941 C2938 1.403 . S
C2941 C2942 1.392 . S
C2941 C2945 1.495 . S
C2942 C2941 1.392 . S
C2942 C2943 1.385 . S
C2942 C2944 1.478 . S
C2943 H2937 0.930 . S
C2943 C2939 1.400 . S
C2943 C2942 1.385 . S
C2944 C2942 1.478 . S
C2944 C2946 1.381 . S
C2944 C2950 1.383 . S
C2945 C2941 1.495 . S
C2945 H2951 0.959 . S
C2945 H2952 0.961 . S
C2945 H2953 0.960 . S
C2946 C2944 1.381 . S
C2946 C2947 1.394 . S
C2946 H2954 0.930 . S
C2947 C2946 1.394 . S
C2947 C2948 1.383 . S
C2947 H2955 0.929 . S
C2948 C2947 1.383 . S
C2948 C2949 1.377 . S
C2949 H2933 0.930 . S
C2949 C2948 1.377 . S
C2949 C2950 1.379 . S
C2950 H2934 0.931 . S
C2950 C2944 1.383 . S
C2950 C2949 1.379 . S
H2951 C2945 0.959 . S
H2952 C2945 0.961 . S
H2953 C2945 0.960 . S
H2954 C2946 0.930 . S
H2955 C2947 0.929 . S
H2956 C2964 0.929 . S
H2957 C2966 0.930 . S
H2958 C2968 0.930 . S
H2959 C2971 0.929 . S
H2960 C2974 0.930 . S
H2961 C2976 0.960 . S
H2962 C2976 0.960 . S
H2963 C2976 0.960 . S
C2964 H2956 0.929 . S
C2964 C2965 1.377 . S
C2964 C2966 1.384 . S
C2965 C2964 1.377 . S
C2965 C2971 1.390 . S
C2966 H2957 0.930 . S
C2966 C2964 1.384 . S
C2966 C2967 1.372 . S
C2967 C2966 1.372 . S
C2967 C2968 1.400 . S
C2967 C2972 1.490 . S
C2968 H2958 0.930 . S
C2968 C2967 1.400 . S
C2968 C2971 1.386 . S
H2969 C2985 0.930 . S
H2970 C2986 0.931 . S
C2971 H2959 0.929 . S
C2971 C2965 1.390 . S
C2971 C2968 1.386 . S
C2972 C2967 1.490 . S
C2972 C2974 1.395 . S
C2972 C2975 1.403 . S
H2973 C2979 0.930 . S
C2974 H2960 0.930 . S
C2974 C2972 1.395 . S
C2974 C2977 1.403 . S
C2975 C2972 1.403 . S
C2975 C2976 1.524 . S
C2975 C2979 1.400 . S
C2976 H2961 0.960 . S
C2976 H2962 0.960 . S
C2976 H2963 0.960 . S
C2976 C2975 1.524 . S
C2977 C2974 1.403 . S
C2977 C2978 1.392 . S
C2977 C2981 1.495 . S
C2978 C2977 1.392 . S
C2978 C2979 1.385 . S
C2978 C2980 1.478 . S
C2979 H2973 0.930 . S
C2979 C2975 1.400 . S
C2979 C2978 1.385 . S
C2980 C2978 1.478 . S
C2980 C2982 1.381 . S
C2980 C2986 1.383 . S
C2981 C2977 1.495 . S
C2981 H2987 0.959 . S
C2981 H2988 0.961 . S
C2981 H2989 0.960 . S
C2982 C2980 1.381 . S
C2982 C2983 1.394 . S
C2982 H2990 0.930 . S
C2983 C2982 1.394 . S
C2983 C2984 1.383 . S
C2983 H2991 0.929 . S
C2984 C2983 1.383 . S
C2984 C2985 1.377 . S
C2985 H2969 0.930 . S
C2985 C2984 1.377 . S
C2985 C2986 1.379 . S
C2986 H2970 0.931 . S
C2986 C2980 1.383 . S
C2986 C2985 1.379 . S
H2987 C2981 0.959 . S
H2988 C2981 0.961 . S
H2989 C2981 0.960 . S
H2990 C2982 0.930 . S
H2991 C2983 0.929 . S
H2992 C3000 0.929 . S
H2993 C3002 0.930 . S
H2994 C3004 0.930 . S
H2995 C3007 0.929 . S
H2996 C3010 0.930 . S
H2997 C3012 0.960 . S
H2998 C3012 0.960 . S
H2999 C3012 0.960 . S
C3000 H2992 0.929 . S
C3000 C3001 1.377 . S
C3000 C3002 1.384 . S
C3001 C3000 1.377 . S
C3001 C3007 1.390 . S
C3002 H2993 0.930 . S
C3002 C3000 1.384 . S
C3002 C3003 1.372 . S
C3003 C3002 1.372 . S
C3003 C3004 1.400 . S
C3003 C3008 1.490 . S
C3004 H2994 0.930 . S
C3004 C3003 1.400 . S
C3004 C3007 1.386 . S
H3005 C3021 0.930 . S
H3006 C3022 0.931 . S
C3007 H2995 0.929 . S
C3007 C3001 1.390 . S
C3007 C3004 1.386 . S
C3008 C3003 1.490 . S
C3008 C3010 1.395 . S
C3008 C3011 1.403 . S
H3009 C3015 0.930 . S
C3010 H2996 0.930 . S
C3010 C3008 1.395 . S
C3010 C3013 1.403 . S
C3011 C3008 1.403 . S
C3011 C3012 1.524 . S
C3011 C3015 1.400 . S
C3012 H2997 0.960 . S
C3012 H2998 0.960 . S
C3012 H2999 0.960 . S
C3012 C3011 1.524 . S
C3013 C3010 1.403 . S
C3013 C3014 1.392 . S
C3013 C3017 1.495 . S
C3014 C3013 1.392 . S
C3014 C3015 1.385 . S
C3014 C3016 1.478 . S
C3015 H3009 0.930 . S
C3015 C3011 1.400 . S
C3015 C3014 1.385 . S
C3016 C3014 1.478 . S
C3016 C3018 1.381 . S
C3016 C3022 1.383 . S
C3017 C3013 1.495 . S
C3017 H3023 0.959 . S
C3017 H3024 0.961 . S
C3017 H3025 0.960 . S
C3018 C3016 1.381 . S
C3018 C3019 1.394 . S
C3018 H3026 0.930 . S
C3019 C3018 1.394 . S
C3019 C3020 1.383 . S
C3019 H3027 0.929 . S
C3020 C3019 1.383 . S
C3020 C3021 1.377 . S
C3021 H3005 0.930 . S
C3021 C3020 1.377 . S
C3021 C3022 1.379 . S
C3022 H3006 0.931 . S
C3022 C3016 1.383 . S
C3022 C3021 1.379 . S
H3023 C3017 0.959 . S
H3024 C3017 0.961 . S
H3025 C3017 0.960 . S
H3026 C3018 0.930 . S
H3027 C3019 0.929 . S
H3028 C3036 0.929 . S
H3029 C3038 0.930 . S
H3030 C3040 0.930 . S
H3031 C3043 0.929 . S
H3032 C3046 0.930 . S
H3033 C3048 0.960 . S
H3034 C3048 0.960 . S
H3035 C3048 0.960 . S
C3036 H3028 0.929 . S
C3036 C3037 1.377 . S
C3036 C3038 1.384 . S
C3037 C3036 1.377 . S
C3037 C3043 1.390 . S
C3038 H3029 0.930 . S
C3038 C3036 1.384 . S
C3038 C3039 1.372 . S
C3039 C3038 1.372 . S
C3039 C3040 1.400 . S
C3039 C3044 1.490 . S
C3040 H3030 0.930 . S
C3040 C3039 1.400 . S
C3040 C3043 1.386 . S
H3041 C3057 0.930 . S
H3042 C3058 0.931 . S
C3043 H3031 0.929 . S
C3043 C3037 1.390 . S
C3043 C3040 1.386 . S
C3044 C3039 1.490 . S
C3044 C3046 1.395 . S
C3044 C3047 1.403 . S
H3045 C3051 0.930 . S
C3046 H3032 0.930 . S
C3046 C3044 1.395 . S
C3046 C3049 1.403 . S
C3047 C3044 1.403 . S
C3047 C3048 1.524 . S
C3047 C3051 1.400 . S
C3048 H3033 0.960 . S
C3048 H3034 0.960 . S
C3048 H3035 0.960 . S
C3048 C3047 1.524 . S
C3049 C3046 1.403 . S
C3049 C3050 1.392 . S
C3049 C3053 1.495 . S
C3050 C3049 1.392 . S
C3050 C3051 1.385 . S
C3050 C3052 1.478 . S
C3051 H3045 0.930 . S
C3051 C3047 1.400 . S
C3051 C3050 1.385 . S
C3052 C3050 1.478 . S
C3052 C3054 1.381 . S
C3052 C3058 1.383 . S
C3053 C3049 1.495 . S
C3053 H3059 0.959 . S
C3053 H3060 0.961 . S
C3053 H3061 0.960 . S
C3054 C3052 1.381 . S
C3054 C3055 1.394 . S
C3054 H3062 0.930 . S
C3055 C3054 1.394 . S
C3055 C3056 1.383 . S
C3055 H3063 0.929 . S
C3056 C3055 1.383 . S
C3056 C3057 1.377 . S
C3057 H3041 0.930 . S
C3057 C3056 1.377 . S
C3057 C3058 1.379 . S
C3058 H3042 0.931 . S
C3058 C3052 1.383 . S
C3058 C3057 1.379 . S
H3059 C3053 0.959 . S
H3060 C3053 0.961 . S
H3061 C3053 0.960 . S
H3062 C3054 0.930 . S
H3063 C3055 0.929 . S
H3064 C3072 0.929 . S
H3065 C3074 0.930 . S
H3066 C3076 0.930 . S
H3067 C3079 0.929 . S
H3068 C3082 0.930 . S
H3069 C3084 0.960 . S
H3070 C3084 0.960 . S
H3071 C3084 0.960 . S
C3072 H3064 0.929 . S
C3072 C3073 1.377 . S
C3072 C3074 1.384 . S
C3073 C3072 1.377 . S
C3073 C3079 1.390 . S
C3074 H3065 0.930 . S
C3074 C3072 1.384 . S
C3074 C3075 1.372 . S
C3075 C3074 1.372 . S
C3075 C3076 1.400 . S
C3075 C3080 1.490 . S
C3076 H3066 0.930 . S
C3076 C3075 1.400 . S
C3076 C3079 1.386 . S
H3077 C3093 0.930 . S
H3078 C3094 0.931 . S
C3079 H3067 0.929 . S
C3079 C3073 1.390 . S
C3079 C3076 1.386 . S
C3080 C3075 1.490 . S
C3080 C3082 1.395 . S
C3080 C3083 1.403 . S
H3081 C3087 0.930 . S
C3082 H3068 0.930 . S
C3082 C3080 1.395 . S
C3082 C3085 1.403 . S
C3083 C3080 1.403 . S
C3083 C3084 1.524 . S
C3083 C3087 1.400 . S
C3084 H3069 0.960 . S
C3084 H3070 0.960 . S
C3084 H3071 0.960 . S
C3084 C3083 1.524 . S
C3085 C3082 1.403 . S
C3085 C3086 1.392 . S
C3085 C3089 1.495 . S
C3086 C3085 1.392 . S
C3086 C3087 1.385 . S
C3086 C3088 1.478 . S
C3087 H3081 0.930 . S
C3087 C3083 1.400 . S
C3087 C3086 1.385 . S
C3088 C3086 1.478 . S
C3088 C3090 1.381 . S
C3088 C3094 1.383 . S
C3089 C3085 1.495 . S
C3089 H3095 0.959 . S
C3089 H3096 0.961 . S
C3089 H3097 0.960 . S
C3090 C3088 1.381 . S
C3090 C3091 1.394 . S
C3090 H3098 0.930 . S
C3091 C3090 1.394 . S
C3091 C3092 1.383 . S
C3091 H3099 0.929 . S
C3092 C3091 1.383 . S
C3092 C3093 1.377 . S
C3093 H3077 0.930 . S
C3093 C3092 1.377 . S
C3093 C3094 1.379 . S
C3094 H3078 0.931 . S
C3094 C3088 1.383 . S
C3094 C3093 1.379 . S
H3095 C3089 0.959 . S
H3096 C3089 0.961 . S
H3097 C3089 0.960 . S
H3098 C3090 0.930 . S
H3099 C3091 0.929 . S
H3100 C3108 0.929 . S
H3101 C3110 0.930 . S
H3102 C3112 0.930 . S
H3103 C3115 0.929 . S
H3104 C3118 0.930 . S
H3105 C3120 0.960 . S
H3106 C3120 0.960 . S
H3107 C3120 0.960 . S
C3108 H3100 0.929 . S
C3108 C3109 1.377 . S
C3108 C3110 1.384 . S
C3109 C3108 1.377 . S
C3109 C3115 1.390 . S
C3110 H3101 0.930 . S
C3110 C3108 1.384 . S
C3110 C3111 1.372 . S
C3111 C3110 1.372 . S
C3111 C3112 1.400 . S
C3111 C3116 1.490 . S
C3112 H3102 0.930 . S
C3112 C3111 1.400 . S
C3112 C3115 1.386 . S
H3113 C3129 0.930 . S
H3114 C3130 0.931 . S
C3115 H3103 0.929 . S
C3115 C3109 1.390 . S
C3115 C3112 1.386 . S
C3116 C3111 1.490 . S
C3116 C3118 1.395 . S
C3116 C3119 1.403 . S
H3117 C3123 0.930 . S
C3118 H3104 0.930 . S
C3118 C3116 1.395 . S
C3118 C3121 1.403 . S
C3119 C3116 1.403 . S
C3119 C3120 1.524 . S
C3119 C3123 1.400 . S
C3120 H3105 0.960 . S
C3120 H3106 0.960 . S
C3120 H3107 0.960 . S
C3120 C3119 1.524 . S
C3121 C3118 1.403 . S
C3121 C3122 1.392 . S
C3121 C3125 1.495 . S
C3122 C3121 1.392 . S
C3122 C3123 1.385 . S
C3122 C3124 1.478 . S
C3123 H3117 0.930 . S
C3123 C3119 1.400 . S
C3123 C3122 1.385 . S
C3124 C3122 1.478 . S
C3124 C3126 1.381 . S
C3124 C3130 1.383 . S
C3125 C3121 1.495 . S
C3125 H3131 0.959 . S
C3125 H3132 0.961 . S
C3125 H3133 0.960 . S
C3126 C3124 1.381 . S
C3126 C3127 1.394 . S
C3126 H3134 0.930 . S
C3127 C3126 1.394 . S
C3127 C3128 1.383 . S
C3127 H3135 0.929 . S
C3128 C3127 1.383 . S
C3128 C3129 1.377 . S
C3129 H3113 0.930 . S
C3129 C3128 1.377 . S
C3129 C3130 1.379 . S
C3130 H3114 0.931 . S
C3130 C3124 1.383 . S
C3130 C3129 1.379 . S
H3131 C3125 0.959 . S
H3132 C3125 0.961 . S
H3133 C3125 0.960 . S
H3134 C3126 0.930 . S
H3135 C3127 0.929 . S
H3136 C3144 0.929 . S
H3137 C3146 0.930 . S
H3138 C3148 0.930 . S
H3139 C3151 0.929 . S
H3140 C3154 0.930 . S
H3141 C3156 0.960 . S
H3142 C3156 0.960 . S
H3143 C3156 0.960 . S
C3144 H3136 0.929 . S
C3144 C3145 1.377 . S
C3144 C3146 1.384 . S
C3145 C3144 1.377 . S
C3145 C3151 1.390 . S
C3146 H3137 0.930 . S
C3146 C3144 1.384 . S
C3146 C3147 1.372 . S
C3147 C3146 1.372 . S
C3147 C3148 1.400 . S
C3147 C3152 1.490 . S
C3148 H3138 0.930 . S
C3148 C3147 1.400 . S
C3148 C3151 1.386 . S
H3149 C3165 0.930 . S
H3150 C3166 0.931 . S
C3151 H3139 0.929 . S
C3151 C3145 1.390 . S
C3151 C3148 1.386 . S
C3152 C3147 1.490 . S
C3152 C3154 1.395 . S
C3152 C3155 1.403 . S
H3153 C3159 0.930 . S
C3154 H3140 0.930 . S
C3154 C3152 1.395 . S
C3154 C3157 1.403 . S
C3155 C3152 1.403 . S
C3155 C3156 1.524 . S
C3155 C3159 1.400 . S
C3156 H3141 0.960 . S
C3156 H3142 0.960 . S
C3156 H3143 0.960 . S
C3156 C3155 1.524 . S
C3157 C3154 1.403 . S
C3157 C3158 1.392 . S
C3157 C3161 1.495 . S
C3158 C3157 1.392 . S
C3158 C3159 1.385 . S
C3158 C3160 1.478 . S
C3159 H3153 0.930 . S
C3159 C3155 1.400 . S
C3159 C3158 1.385 . S
C3160 C3158 1.478 . S
C3160 C3162 1.381 . S
C3160 C3166 1.383 . S
C3161 C3157 1.495 . S
C3161 H3167 0.959 . S
C3161 H3168 0.961 . S
C3161 H3169 0.960 . S
C3162 C3160 1.381 . S
C3162 C3163 1.394 . S
C3162 H3170 0.930 . S
C3163 C3162 1.394 . S
C3163 C3164 1.383 . S
C3163 H3171 0.929 . S
C3164 C3163 1.383 . S
C3164 C3165 1.377 . S
C3165 H3149 0.930 . S
C3165 C3164 1.377 . S
C3165 C3166 1.379 . S
C3166 H3150 0.931 . S
C3166 C3160 1.383 . S
C3166 C3165 1.379 . S
H3167 C3161 0.959 . S
H3168 C3161 0.961 . S
H3169 C3161 0.960 . S
H3170 C3162 0.930 . S
H3171 C3163 0.929 . S
H3172 C3180 0.929 . S
H3173 C3182 0.930 . S
H3174 C3184 0.930 . S
H3175 C3187 0.929 . S
H3176 C3190 0.930 . S
H3177 C3192 0.960 . S
H3178 C3192 0.960 . S
H3179 C3192 0.960 . S
C3180 H3172 0.929 . S
C3180 C3181 1.377 . S
C3180 C3182 1.384 . S
C3181 C3180 1.377 . S
C3181 C3187 1.390 . S
C3182 H3173 0.930 . S
C3182 C3180 1.384 . S
C3182 C3183 1.372 . S
C3183 C3182 1.372 . S
C3183 C3184 1.400 . S
C3183 C3188 1.490 . S
C3184 H3174 0.930 . S
C3184 C3183 1.400 . S
C3184 C3187 1.386 . S
H3185 C3201 0.930 . S
H3186 C3202 0.931 . S
C3187 H3175 0.929 . S
C3187 C3181 1.390 . S
C3187 C3184 1.386 . S
C3188 C3183 1.490 . S
C3188 C3190 1.395 . S
C3188 C3191 1.403 . S
H3189 C3195 0.930 . S
C3190 H3176 0.930 . S
C3190 C3188 1.395 . S
C3190 C3193 1.403 . S
C3191 C3188 1.403 . S
C3191 C3192 1.524 . S
C3191 C3195 1.400 . S
C3192 H3177 0.960 . S
C3192 H3178 0.960 . S
C3192 H3179 0.960 . S
C3192 C3191 1.524 . S
C3193 C3190 1.403 . S
C3193 C3194 1.392 . S
C3193 C3197 1.495 . S
C3194 C3193 1.392 . S
C3194 C3195 1.385 . S
C3194 C3196 1.478 . S
C3195 H3189 0.930 . S
C3195 C3191 1.400 . S
C3195 C3194 1.385 . S
C3196 C3194 1.478 . S
C3196 C3198 1.381 . S
C3196 C3202 1.383 . S
C3197 C3193 1.495 . S
C3197 H3203 0.959 . S
C3197 H3204 0.961 . S
C3197 H3205 0.960 . S
C3198 C3196 1.381 . S
C3198 C3199 1.394 . S
C3198 H3206 0.930 . S
C3199 C3198 1.394 . S
C3199 C3200 1.383 . S
C3199 H3207 0.929 . S
C3200 C3199 1.383 . S
C3200 C3201 1.377 . S
C3201 H3185 0.930 . S
C3201 C3200 1.377 . S
C3201 C3202 1.379 . S
C3202 H3186 0.931 . S
C3202 C3196 1.383 . S
C3202 C3201 1.379 . S
H3203 C3197 0.959 . S
H3204 C3197 0.961 . S
H3205 C3197 0.960 . S
H3206 C3198 0.930 . S
H3207 C3199 0.929 . S
H3208 C3216 0.929 . S
H3209 C3218 0.930 . S
H3210 C3220 0.930 . S
H3211 C3223 0.929 . S
H3212 C3226 0.930 . S
H3213 C3228 0.960 . S
H3214 C3228 0.960 . S
H3215 C3228 0.960 . S
C3216 H3208 0.929 . S
C3216 C3217 1.377 . S
C3216 C3218 1.384 . S
C3217 C3216 1.377 . S
C3217 C3223 1.390 . S
C3218 H3209 0.930 . S
C3218 C3216 1.384 . S
C3218 C3219 1.372 . S
C3219 C3218 1.372 . S
C3219 C3220 1.400 . S
C3219 C3224 1.490 . S
C3220 H3210 0.930 . S
C3220 C3219 1.400 . S
C3220 C3223 1.386 . S
H3221 C3237 0.930 . S
H3222 C3238 0.931 . S
C3223 H3211 0.929 . S
C3223 C3217 1.390 . S
C3223 C3220 1.386 . S
C3224 C3219 1.490 . S
C3224 C3226 1.395 . S
C3224 C3227 1.403 . S
H3225 C3231 0.930 . S
C3226 H3212 0.930 . S
C3226 C3224 1.395 . S
C3226 C3229 1.403 . S
C3227 C3224 1.403 . S
C3227 C3228 1.524 . S
C3227 C3231 1.400 . S
C3228 H3213 0.960 . S
C3228 H3214 0.960 . S
C3228 H3215 0.960 . S
C3228 C3227 1.524 . S
C3229 C3226 1.403 . S
C3229 C3230 1.392 . S
C3229 C3233 1.495 . S
C3230 C3229 1.392 . S
C3230 C3231 1.385 . S
C3230 C3232 1.478 . S
C3231 H3225 0.930 . S
C3231 C3227 1.400 . S
C3231 C3230 1.385 . S
C3232 C3230 1.478 . S
C3232 C3234 1.381 . S
C3232 C3238 1.383 . S
C3233 C3229 1.495 . S
C3233 H3239 0.959 . S
C3233 H3240 0.961 . S
C3233 H3241 0.960 . S
C3234 C3232 1.381 . S
C3234 C3235 1.394 . S
C3234 H3242 0.930 . S
C3235 C3234 1.394 . S
C3235 C3236 1.383 . S
C3235 H3243 0.929 . S
C3236 C3235 1.383 . S
C3236 C3237 1.377 . S
C3237 H3221 0.930 . S
C3237 C3236 1.377 . S
C3237 C3238 1.379 . S
C3238 H3222 0.931 . S
C3238 C3232 1.383 . S
C3238 C3237 1.379 . S
H3239 C3233 0.959 . S
H3240 C3233 0.961 . S
H3241 C3233 0.960 . S
H3242 C3234 0.930 . S
H3243 C3235 0.929 . S
H3244 C3252 0.900 1_545 S
H3245 C3254 0.930 . S
H3246 C3256 0.930 . S
H3247 C3259 0.929 . S
H3248 C3262 0.930 . S
H3249 C3264 0.960 1_455 S
H3250 C3264 0.960 . S
H3251 C3264 0.960 . S
C3252 H3244 0.900 1_565 S
C3252 C3253 1.377 . S
C3252 C3254 1.384 . S
C3253 C3252 1.377 . S
C3253 C3259 1.390 . S
C3254 H3245 0.930 . S
C3254 C3252 1.384 . S
C3254 C3255 1.372 . S
C3255 C3254 1.372 . S
C3255 C3256 1.400 . S
C3255 C3260 1.490 . S
C3256 H3246 0.930 . S
C3256 C3255 1.400 . S
C3256 C3259 1.386 . S
H3257 C3273 0.930 . S
H3258 C3274 0.931 . S
C3259 H3247 0.929 . S
C3259 C3253 1.390 . S
C3259 C3256 1.386 . S
C3260 C3255 1.490 . S
C3260 C3262 1.395 . S
C3260 C3263 1.403 . S
H3261 C3267 0.930 . S
C3262 H3248 0.930 . S
C3262 C3260 1.395 . S
C3262 C3265 1.403 . S
C3263 C3260 1.403 . S
C3263 C3264 1.524 . S
C3263 C3267 1.400 1_655 S
C3264 H3249 0.960 1_655 S
C3264 H3250 0.960 . S
C3264 H3251 0.960 . S
C3264 C3263 1.524 . S
C3265 C3262 1.403 . S
C3265 C3266 1.392 1_655 S
C3265 C3269 1.495 . S
C3266 C3265 1.392 1_455 S
C3266 C3267 1.385 . S
C3266 C3268 1.478 . S
C3267 H3261 0.930 . S
C3267 C3263 1.400 1_455 S
C3267 C3266 1.385 . S
C3268 C3266 1.478 . S
C3268 C3270 1.381 . S
C3268 C3274 1.383 . S
C3269 C3265 1.495 . S
C3269 H3275 0.959 . S
C3269 H3276 0.961 . S
C3269 H3277 0.960 1_655 S
C3270 C3268 1.381 . S
C3270 C3271 1.394 . S
C3270 H3278 0.930 . S
C3271 C3270 1.394 . S
C3271 C3272 1.383 . S
C3271 H3279 0.929 . S
C3272 C3271 1.383 . S
C3272 C3273 1.377 . S
C3273 H3257 0.930 . S
C3273 C3272 1.377 . S
C3273 C3274 1.379 . S
C3274 H3258 0.931 . S
C3274 C3268 1.383 . S
C3274 C3273 1.379 . S
H3275 C3269 0.959 . S
H3276 C3269 0.961 . S
H3277 C3269 0.960 1_455 S
H3278 C3270 0.930 . S
H3279 C3271 0.929 . S
H3280 C3288 0.929 . S
H3281 C3290 0.930 . S
H3282 C3292 0.930 . S
H3283 C3295 0.929 . S
H3284 C3298 0.930 . S
H3285 C3300 0.960 . S
H3286 C3300 0.960 . S
H3287 C3300 0.960 . S
C3288 H3280 0.929 . S
C3288 C3289 1.377 . S
C3288 C3290 1.384 . S
C3289 C3288 1.377 . S
C3289 C3295 1.390 . S
C3290 H3281 0.930 . S
C3290 C3288 1.384 . S
C3290 C3291 1.372 . S
C3291 C3290 1.372 . S
C3291 C3292 1.400 . S
C3291 C3296 1.490 . S
C3292 H3282 0.930 . S
C3292 C3291 1.400 . S
C3292 C3295 1.386 . S
H3293 C3309 0.930 . S
H3294 C3310 0.931 . S
C3295 H3283 0.929 . S
C3295 C3289 1.390 . S
C3295 C3292 1.386 . S
C3296 C3291 1.490 . S
C3296 C3298 1.395 . S
C3296 C3299 1.403 . S
H3297 C3303 0.930 . S
C3298 H3284 0.930 . S
C3298 C3296 1.395 . S
C3298 C3301 1.403 . S
C3299 C3296 1.403 . S
C3299 C3300 1.524 . S
C3299 C3303 1.400 . S
C3300 H3285 0.960 . S
C3300 H3286 0.960 . S
C3300 H3287 0.960 . S
C3300 C3299 1.524 . S
C3301 C3298 1.403 . S
C3301 C3302 1.392 . S
C3301 C3305 1.495 . S
C3302 C3301 1.392 . S
C3302 C3303 1.385 . S
C3302 C3304 1.478 . S
C3303 H3297 0.930 . S
C3303 C3299 1.400 . S
C3303 C3302 1.385 . S
C3304 C3302 1.478 . S
C3304 C3306 1.381 . S
C3304 C3310 1.383 . S
C3305 C3301 1.495 . S
C3305 H3311 0.959 . S
C3305 H3312 0.961 . S
C3305 H3313 0.960 . S
C3306 C3304 1.381 . S
C3306 C3307 1.394 . S
C3306 H3314 0.930 . S
C3307 C3306 1.394 . S
C3307 C3308 1.383 . S
C3307 H3315 0.929 . S
C3308 C3307 1.383 . S
C3308 C3309 1.377 . S
C3309 H3293 0.930 . S
C3309 C3308 1.377 . S
C3309 C3310 1.379 . S
C3310 H3294 0.931 . S
C3310 C3304 1.383 . S
C3310 C3309 1.379 . S
H3311 C3305 0.959 . S
H3312 C3305 0.961 . S
H3313 C3305 0.960 . S
H3314 C3306 0.930 . S
H3315 C3307 0.929 . S
H3316 C3324 0.929 . S
H3317 C3326 0.930 . S
H3318 C3328 0.930 . S
H3319 C3331 0.929 . S
H3320 C3334 0.930 . S
H3321 C3336 0.971 . S
H3322 C3336 0.960 . S
H3323 C3336 0.960 . S
C3324 H3316 0.929 . S
C3324 C3325 1.377 . S
C3324 C3326 1.384 . S
C3325 C3324 1.377 . S
C3325 C3331 1.390 . S
C3326 H3317 0.930 . S
C3326 C3324 1.384 . S
C3326 C3327 1.372 . S
C3327 C3326 1.372 . S
C3327 C3328 1.400 . S
C3327 C3332 1.490 . S
C3328 H3318 0.930 . S
C3328 C3327 1.400 . S
C3328 C3331 1.386 . S
H3329 C3345 0.930 . S
H3330 C3346 0.931 . S
C3331 H3319 0.929 . S
C3331 C3325 1.390 . S
C3331 C3328 1.386 . S
C3332 C3327 1.490 . S
C3332 C3334 1.395 . S
C3332 C3335 1.403 . S
H3333 C3339 0.930 . S
C3334 H3320 0.930 . S
C3334 C3332 1.395 . S
C3334 C3337 1.403 . S
C3335 C3332 1.403 . S
C3335 C3336 1.524 . S
C3335 C3339 1.400 1_556 S
C3336 H3321 0.971 . S
C3336 H3322 0.960 . S
C3336 H3323 0.960 . S
C3336 C3335 1.524 . S
C3337 C3334 1.403 . S
C3337 C3338 1.392 1_556 S
C3337 C3341 1.495 1_556 S
C3338 C3337 1.392 1_554 S
C3338 C3339 1.385 . S
C3338 C3340 1.478 . S
C3339 H3333 0.930 . S
C3339 C3335 1.400 1_554 S
C3339 C3338 1.385 . S
C3340 C3338 1.478 . S
C3340 C3342 1.381 . S
C3340 C3346 1.383 . S
C3341 C3337 1.495 1_554 S
C3341 H3347 0.959 1_554 S
C3341 H3348 0.963 . S
C3341 H3349 0.960 . S
C3342 C3340 1.381 . S
C3342 C3343 1.394 . S
C3342 H3350 0.930 . S
C3343 C3342 1.394 . S
C3343 C3344 1.383 . S
C3343 H3351 0.929 . S
C3344 C3343 1.383 . S
C3344 C3345 1.377 . S
C3345 H3329 0.930 . S
C3345 C3344 1.377 . S
C3345 C3346 1.379 . S
C3346 H3330 0.931 . S
C3346 C3340 1.383 . S
C3346 C3345 1.379 . S
H3347 C3341 0.959 1_556 S
H3348 C3341 0.963 . S
H3349 C3341 0.960 . S
H3350 C3342 0.930 . S
H3351 C3343 0.929 . S
H3352 C3360 0.929 . S
H3353 C3362 0.930 . S
H3354 C3364 0.930 . S
H3355 C3367 0.929 . S
H3356 C3370 0.930 . S
H3357 C3372 0.960 . S
H3358 C3372 0.960 . S
H3359 C3372 0.960 . S
C3360 H3352 0.929 . S
C3360 C3361 1.377 . S
C3360 C3362 1.384 . S
C3361 C3360 1.377 . S
C3361 C3367 1.390 . S
C3362 H3353 0.930 . S
C3362 C3360 1.384 . S
C3362 C3363 1.372 . S
C3363 C3362 1.372 . S
C3363 C3364 1.400 . S
C3363 C3368 1.490 . S
C3364 H3354 0.930 . S
C3364 C3363 1.400 . S
C3364 C3367 1.386 . S
H3365 C3381 0.930 . S
H3366 C3382 0.931 . S
C3367 H3355 0.929 . S
C3367 C3361 1.390 . S
C3367 C3364 1.386 . S
C3368 C3363 1.490 . S
C3368 C3370 1.395 . S
C3368 C3371 1.403 . S
H3369 C3375 0.930 . S
C3370 H3356 0.930 . S
C3370 C3368 1.395 . S
C3370 C3373 1.403 . S
C3371 C3368 1.403 . S
C3371 C3372 1.524 . S
C3371 C3375 1.400 . S
C3372 H3357 0.960 . S
C3372 H3358 0.960 . S
C3372 H3359 0.960 . S
C3372 C3371 1.524 . S
C3373 C3370 1.403 . S
C3373 C3374 1.392 . S
C3373 C3377 1.495 . S
C3374 C3373 1.392 . S
C3374 C3375 1.385 . S
C3374 C3376 1.478 . S
C3375 H3369 0.930 . S
C3375 C3371 1.400 . S
C3375 C3374 1.385 . S
C3376 C3374 1.478 . S
C3376 C3378 1.381 . S
C3376 C3382 1.383 . S
C3377 C3373 1.495 . S
C3377 H3383 0.959 . S
C3377 H3384 0.961 . S
C3377 H3385 0.960 . S
C3378 C3376 1.381 . S
C3378 C3379 1.394 . S
C3378 H3386 0.930 . S
C3379 C3378 1.394 . S
C3379 C3380 1.383 . S
C3379 H3387 0.929 . S
C3380 C3379 1.383 . S
C3380 C3381 1.377 . S
C3381 H3365 0.930 . S
C3381 C3380 1.377 . S
C3381 C3382 1.379 . S
C3382 H3366 0.931 . S
C3382 C3376 1.383 . S
C3382 C3381 1.379 . S
H3383 C3377 0.959 . S
H3384 C3377 0.961 . S
H3385 C3377 0.960 . S
H3386 C3378 0.930 . S
H3387 C3379 0.929 . S
H3388 C3396 0.929 . S
H3389 C3398 0.930 . S
H3390 C3400 0.930 . S
H3391 C3403 0.929 . S
H3392 C3406 0.930 . S
H3393 C3408 0.960 . S
H3394 C3408 0.960 . S
H3395 C3408 0.960 . S
C3396 H3388 0.929 . S
C3396 C3397 1.377 . S
C3396 C3398 1.384 . S
C3397 C3396 1.377 . S
C3397 C3403 1.390 . S
C3398 H3389 0.930 . S
C3398 C3396 1.384 . S
C3398 C3399 1.372 . S
C3399 C3398 1.372 . S
C3399 C3400 1.400 . S
C3399 C3404 1.490 . S
C3400 H3390 0.930 . S
C3400 C3399 1.400 . S
C3400 C3403 1.386 . S
H3401 C3417 0.930 . S
H3402 C3418 0.931 . S
C3403 H3391 0.929 . S
C3403 C3397 1.390 . S
C3403 C3400 1.386 . S
C3404 C3399 1.490 . S
C3404 C3406 1.395 . S
C3404 C3407 1.403 . S
H3405 C3411 0.930 . S
C3406 H3392 0.930 . S
C3406 C3404 1.395 . S
C3406 C3409 1.403 . S
C3407 C3404 1.403 . S
C3407 C3408 1.524 . S
C3407 C3411 1.400 . S
C3408 H3393 0.960 . S
C3408 H3394 0.960 . S
C3408 H3395 0.960 . S
C3408 C3407 1.524 . S
C3409 C3406 1.403 . S
C3409 C3410 1.392 . S
C3409 C3413 1.495 . S
C3410 C3409 1.392 . S
C3410 C3411 1.385 . S
C3410 C3412 1.478 . S
C3411 H3405 0.930 . S
C3411 C3407 1.400 . S
C3411 C3410 1.385 . S
C3412 C3410 1.478 . S
C3412 C3414 1.381 . S
C3412 C3418 1.383 . S
C3413 C3409 1.495 . S
C3413 H3419 0.959 . S
C3413 H3420 0.961 . S
C3413 H3421 0.960 . S
C3414 C3412 1.381 . S
C3414 C3415 1.394 . S
C3414 H3422 0.930 . S
C3415 C3414 1.394 . S
C3415 C3416 1.383 . S
C3415 H3423 0.929 . S
C3416 C3415 1.383 . S
C3416 C3417 1.377 . S
C3417 H3401 0.930 . S
C3417 C3416 1.377 . S
C3417 C3418 1.379 . S
C3418 H3402 0.931 . S
C3418 C3412 1.383 . S
C3418 C3417 1.379 . S
H3419 C3413 0.959 . S
H3420 C3413 0.961 . S
H3421 C3413 0.960 . S
H3422 C3414 0.930 . S
H3423 C3415 0.929 . S
H3424 C3432 0.929 . S
H3425 C3434 0.930 . S
H3426 C3436 0.930 . S
H3427 C3439 0.929 . S
H3428 C3442 0.930 . S
H3429 C3444 0.960 . S
H3430 C3444 0.960 . S
H3431 C3444 0.960 . S
C3432 H3424 0.929 . S
C3432 C3433 1.377 . S
C3432 C3434 1.384 . S
C3433 C3432 1.377 . S
C3433 C3439 1.390 . S
C3434 H3425 0.930 . S
C3434 C3432 1.384 . S
C3434 C3435 1.372 . S
C3435 C3434 1.372 . S
C3435 C3436 1.400 . S
C3435 C3440 1.490 . S
C3436 H3426 0.930 . S
C3436 C3435 1.400 . S
C3436 C3439 1.386 . S
H3437 C3453 0.930 . S
H3438 C3454 0.931 . S
C3439 H3427 0.929 . S
C3439 C3433 1.390 . S
C3439 C3436 1.386 . S
C3440 C3435 1.490 . S
C3440 C3442 1.395 . S
C3440 C3443 1.403 . S
H3441 C3447 0.930 . S
C3442 H3428 0.930 . S
C3442 C3440 1.395 . S
C3442 C3445 1.403 . S
C3443 C3440 1.403 . S
C3443 C3444 1.524 . S
C3443 C3447 1.400 . S
C3444 H3429 0.960 . S
C3444 H3430 0.960 . S
C3444 H3431 0.960 . S
C3444 C3443 1.524 . S
C3445 C3442 1.403 . S
C3445 C3446 1.392 . S
C3445 C3449 1.495 . S
C3446 C3445 1.392 . S
C3446 C3447 1.385 . S
C3446 C3448 1.478 . S
C3447 H3441 0.930 . S
C3447 C3443 1.400 . S
C3447 C3446 1.385 . S
C3448 C3446 1.478 . S
C3448 C3450 1.381 . S
C3448 C3454 1.383 . S
C3449 C3445 1.495 . S
C3449 H3455 0.959 . S
C3449 H3456 0.961 . S
C3449 H3457 0.960 . S
C3450 C3448 1.381 . S
C3450 C3451 1.394 . S
C3450 H3458 0.930 . S
C3451 C3450 1.394 . S
C3451 C3452 1.383 . S
C3451 H3459 0.929 . S
C3452 C3451 1.383 . S
C3452 C3453 1.377 . S
C3453 H3437 0.930 . S
C3453 C3452 1.377 . S
C3453 C3454 1.379 . S
C3454 H3438 0.931 . S
C3454 C3448 1.383 . S
C3454 C3453 1.379 . S
H3455 C3449 0.959 . S
H3456 C3449 0.961 . S
H3457 C3449 0.960 . S
H3458 C3450 0.930 . S
H3459 C3451 0.929 . S
H3460 C3468 0.929 . S
H3461 C3470 0.930 . S
H3462 C3472 0.930 . S
H3463 C3475 0.929 . S
H3464 C3478 0.930 . S
H3465 C3480 0.960 . S
H3466 C3480 0.960 . S
H3467 C3480 0.960 . S
C3468 H3460 0.929 . S
C3468 C3469 1.377 . S
C3468 C3470 1.384 . S
C3469 C3468 1.377 . S
C3469 C3475 1.390 . S
C3470 H3461 0.930 . S
C3470 C3468 1.384 . S
C3470 C3471 1.372 . S
C3471 C3470 1.372 . S
C3471 C3472 1.400 . S
C3471 C3476 1.490 . S
C3472 H3462 0.930 . S
C3472 C3471 1.400 . S
C3472 C3475 1.386 . S
H3473 C3489 0.930 . S
H3474 C3490 0.931 . S
C3475 H3463 0.929 . S
C3475 C3469 1.390 . S
C3475 C3472 1.386 . S
C3476 C3471 1.490 . S
C3476 C3478 1.395 . S
C3476 C3479 1.403 . S
H3477 C3483 0.930 1_556 S
C3478 H3464 0.930 . S
C3478 C3476 1.395 . S
C3478 C3481 1.403 . S
C3479 C3476 1.403 . S
C3479 C3480 1.524 . S
C3479 C3483 1.400 . S
C3480 H3465 0.960 . S
C3480 H3466 0.960 . S
C3480 H3467 0.960 . S
C3480 C3479 1.524 . S
C3481 C3478 1.403 . S
C3481 C3482 1.392 1_554 S
C3481 C3485 1.495 1_554 S
C3482 C3481 1.392 1_556 S
C3482 C3483 1.385 1_556 S
C3482 C3484 1.478 . S
C3483 H3477 0.930 1_554 S
C3483 C3479 1.400 . S
C3483 C3482 1.385 1_554 S
C3484 C3482 1.478 . S
C3484 C3486 1.381 . S
C3484 C3490 1.383 . S
C3485 C3481 1.495 1_556 S
C3485 H3491 0.959 1_556 S
C3485 H3492 0.961 . S
C3485 H3493 0.960 . S
C3486 C3484 1.381 . S
C3486 C3487 1.394 . S
C3486 H3494 0.930 . S
C3487 C3486 1.394 . S
C3487 C3488 1.383 . S
C3487 H3495 0.929 . S
C3488 C3487 1.383 . S
C3488 C3489 1.377 . S
C3489 H3473 0.930 . S
C3489 C3488 1.377 . S
C3489 C3490 1.379 . S
C3490 H3474 0.931 . S
C3490 C3484 1.383 . S
C3490 C3489 1.379 . S
H3491 C3485 0.959 1_554 S
H3492 C3485 0.961 . S
H3493 C3485 0.960 . S
H3494 C3486 0.930 . S
H3495 C3487 0.929 . S
H3496 C3504 0.929 . S
H3497 C3506 0.930 . S
H3498 C3508 0.930 . S
H3499 C3511 0.929 . S
H3500 C3514 0.930 . S
H3501 C3516 0.960 . S
H3502 C3516 0.960 . S
H3503 C3516 0.960 . S
C3504 H3496 0.929 . S
C3504 C3505 1.377 . S
C3504 C3506 1.384 . S
C3505 C3504 1.377 . S
C3505 C3511 1.390 . S
C3506 H3497 0.930 . S
C3506 C3504 1.384 . S
C3506 C3507 1.372 . S
C3507 C3506 1.372 . S
C3507 C3508 1.400 . S
C3507 C3512 1.490 . S
C3508 H3498 0.930 . S
C3508 C3507 1.400 . S
C3508 C3511 1.386 . S
H3509 C3525 0.930 . S
H3510 C3526 0.931 . S
C3511 H3499 0.929 . S
C3511 C3505 1.390 . S
C3511 C3508 1.386 . S
C3512 C3507 1.490 . S
C3512 C3514 1.395 . S
C3512 C3515 1.403 . S
H3513 C3519 0.930 . S
C3514 H3500 0.930 . S
C3514 C3512 1.395 . S
C3514 C3517 1.403 . S
C3515 C3512 1.403 . S
C3515 C3516 1.524 . S
C3515 C3519 1.400 . S
C3516 H3501 0.960 . S
C3516 H3502 0.960 . S
C3516 H3503 0.960 . S
C3516 C3515 1.524 . S
C3517 C3514 1.403 . S
C3517 C3518 1.392 . S
C3517 C3521 1.495 . S
C3518 C3517 1.392 . S
C3518 C3519 1.385 . S
C3518 C3520 1.478 . S
C3519 H3513 0.930 . S
C3519 C3515 1.400 . S
C3519 C3518 1.385 . S
C3520 C3518 1.478 . S
C3520 C3522 1.381 . S
C3520 C3526 1.383 . S
C3521 C3517 1.495 . S
C3521 H3527 0.959 . S
C3521 H3528 0.961 . S
C3521 H3529 0.960 . S
C3522 C3520 1.381 . S
C3522 C3523 1.394 . S
C3522 H3530 0.930 . S
C3523 C3522 1.394 . S
C3523 C3524 1.383 . S
C3523 H3531 0.929 . S
C3524 C3523 1.383 . S
C3524 C3525 1.377 . S
C3525 H3509 0.930 . S
C3525 C3524 1.377 . S
C3525 C3526 1.379 . S
C3526 H3510 0.931 . S
C3526 C3520 1.383 . S
C3526 C3525 1.379 . S
H3527 C3521 0.959 . S
H3528 C3521 0.961 . S
H3529 C3521 0.960 . S
H3530 C3522 0.930 . S
H3531 C3523 0.929 . S
H3532 C3540 0.929 . S
H3533 C3542 0.930 . S
H3534 C3544 0.930 . S
H3535 C3547 0.929 . S
H3536 C3550 0.930 . S
H3537 C3552 0.960 . S
H3538 C3552 0.960 . S
H3539 C3552 0.960 . S
C3540 H3532 0.929 . S
C3540 C3541 1.377 . S
C3540 C3542 1.384 . S
C3541 C3540 1.377 . S
C3541 C3547 1.390 . S
C3542 H3533 0.930 . S
C3542 C3540 1.384 . S
C3542 C3543 1.372 . S
C3543 C3542 1.372 . S
C3543 C3544 1.400 . S
C3543 C3548 1.490 . S
C3544 H3534 0.930 . S
C3544 C3543 1.400 . S
C3544 C3547 1.386 . S
H3545 C3561 0.930 . S
H3546 C3562 0.931 . S
C3547 H3535 0.929 . S
C3547 C3541 1.390 . S
C3547 C3544 1.386 . S
C3548 C3543 1.490 . S
C3548 C3550 1.395 . S
C3548 C3551 1.403 . S
H3549 C3555 0.930 . S
C3550 H3536 0.930 . S
C3550 C3548 1.395 . S
C3550 C3553 1.403 . S
C3551 C3548 1.403 . S
C3551 C3552 1.524 . S
C3551 C3555 1.400 . S
C3552 H3537 0.960 . S
C3552 H3538 0.960 . S
C3552 H3539 0.960 . S
C3552 C3551 1.524 . S
C3553 C3550 1.403 . S
C3553 C3554 1.392 . S
C3553 C3557 1.495 . S
C3554 C3553 1.392 . S
C3554 C3555 1.385 . S
C3554 C3556 1.478 . S
C3555 H3549 0.930 . S
C3555 C3551 1.400 . S
C3555 C3554 1.385 . S
C3556 C3554 1.478 . S
C3556 C3558 1.381 . S
C3556 C3562 1.383 . S
C3557 C3553 1.495 . S
C3557 H3563 0.959 . S
C3557 H3564 0.961 . S
C3557 H3565 0.960 . S
C3558 C3556 1.381 . S
C3558 C3559 1.394 . S
C3558 H3566 0.930 . S
C3559 C3558 1.394 . S
C3559 C3560 1.383 . S
C3559 H3567 0.929 . S
C3560 C3559 1.383 . S
C3560 C3561 1.377 . S
C3561 H3545 0.930 . S
C3561 C3560 1.377 . S
C3561 C3562 1.379 . S
C3562 H3546 0.931 . S
C3562 C3556 1.383 . S
C3562 C3561 1.379 . S
H3563 C3557 0.959 . S
H3564 C3557 0.961 . S
H3565 C3557 0.960 . S
H3566 C3558 0.930 . S
H3567 C3559 0.929 . S
H3568 C3576 0.929 . S
H3569 C3578 0.930 . S
H3570 C3580 0.930 . S
H3571 C3583 0.929 . S
H3572 C3586 0.930 . S
H3573 C3588 0.960 . S
H3574 C3588 0.960 . S
H3575 C3588 0.960 . S
C3576 H3568 0.929 . S
C3576 C3577 1.377 . S
C3576 C3578 1.384 . S
C3577 C3576 1.377 . S
C3577 C3583 1.390 . S
C3578 H3569 0.930 . S
C3578 C3576 1.384 . S
C3578 C3579 1.372 . S
C3579 C3578 1.372 . S
C3579 C3580 1.400 . S
C3579 C3584 1.490 . S
C3580 H3570 0.930 . S
C3580 C3579 1.400 . S
C3580 C3583 1.386 . S
H3581 C3597 0.930 . S
H3582 C3598 0.931 . S
C3583 H3571 0.929 . S
C3583 C3577 1.390 . S
C3583 C3580 1.386 . S
C3584 C3579 1.490 . S
C3584 C3586 1.395 . S
C3584 C3587 1.403 . S
H3585 C3591 0.930 . S
C3586 H3572 0.930 . S
C3586 C3584 1.395 . S
C3586 C3589 1.403 . S
C3587 C3584 1.403 . S
C3587 C3588 1.524 . S
C3587 C3591 1.400 . S
C3588 H3573 0.960 . S
C3588 H3574 0.960 . S
C3588 H3575 0.960 . S
C3588 C3587 1.524 . S
C3589 C3586 1.403 . S
C3589 C3590 1.392 . S
C3589 C3593 1.495 . S
C3590 C3589 1.392 . S
C3590 C3591 1.385 . S
C3590 C3592 1.478 . S
C3591 H3585 0.930 . S
C3591 C3587 1.400 . S
C3591 C3590 1.385 . S
C3592 C3590 1.478 . S
C3592 C3594 1.381 . S
C3592 C3598 1.383 . S
C3593 C3589 1.495 . S
C3593 H3599 0.959 . S
C3593 H3600 0.961 . S
C3593 H3601 0.960 . S
C3594 C3592 1.381 . S
C3594 C3595 1.394 . S
C3594 H3602 0.930 . S
C3595 C3594 1.394 . S
C3595 C3596 1.383 . S
C3595 H3603 0.929 . S
C3596 C3595 1.383 . S
C3596 C3597 1.377 . S
C3597 H3581 0.930 . S
C3597 C3596 1.377 . S
C3597 C3598 1.379 . S
C3598 H3582 0.931 . S
C3598 C3592 1.383 . S
C3598 C3597 1.379 . S
H3599 C3593 0.959 . S
H3600 C3593 0.961 . S
H3601 C3593 0.960 . S
H3602 C3594 0.930 . S
H3603 C3595 0.929 . S
H3604 C3612 0.929 . S
H3605 C3614 0.930 . S
H3606 C3616 0.930 . S
H3607 C3619 0.929 . S
H3608 C3622 0.930 . S
H3609 C3624 0.960 . S
H3610 C3624 0.960 . S
H3611 C3624 0.960 . S
C3612 H3604 0.929 . S
C3612 C3613 1.377 . S
C3612 C3614 1.384 . S
C3613 C3612 1.377 . S
C3613 C3619 1.390 . S
C3614 H3605 0.930 . S
C3614 C3612 1.384 . S
C3614 C3615 1.372 . S
C3615 C3614 1.372 . S
C3615 C3616 1.400 . S
C3615 C3620 1.490 . S
C3616 H3606 0.930 . S
C3616 C3615 1.400 . S
C3616 C3619 1.386 . S
H3617 C3633 0.930 . S
H3618 C3634 0.931 . S
C3619 H3607 0.929 . S
C3619 C3613 1.390 . S
C3619 C3616 1.386 . S
C3620 C3615 1.490 . S
C3620 C3622 1.395 . S
C3620 C3623 1.403 . S
H3621 C3627 0.930 . S
C3622 H3608 0.930 . S
C3622 C3620 1.395 . S
C3622 C3625 1.403 . S
C3623 C3620 1.403 . S
C3623 C3624 1.524 . S
C3623 C3627 1.400 . S
C3624 H3609 0.960 . S
C3624 H3610 0.960 . S
C3624 H3611 0.960 . S
C3624 C3623 1.524 . S
C3625 C3622 1.403 . S
C3625 C3626 1.392 . S
C3625 C3629 1.495 . S
C3626 C3625 1.392 . S
C3626 C3627 1.385 . S
C3626 C3628 1.478 . S
C3627 H3621 0.930 . S
C3627 C3623 1.400 . S
C3627 C3626 1.385 . S
C3628 C3626 1.478 . S
C3628 C3630 1.381 . S
C3628 C3634 1.383 . S
C3629 C3625 1.495 . S
C3629 H3635 0.959 . S
C3629 H3636 0.961 . S
C3629 H3637 0.960 . S
C3630 C3628 1.381 . S
C3630 C3631 1.394 . S
C3630 H3638 0.930 . S
C3631 C3630 1.394 . S
C3631 C3632 1.383 . S
C3631 H3639 0.929 . S
C3632 C3631 1.383 . S
C3632 C3633 1.377 . S
C3633 H3617 0.930 . S
C3633 C3632 1.377 . S
C3633 C3634 1.379 . S
C3634 H3618 0.931 . S
C3634 C3628 1.383 . S
C3634 C3633 1.379 . S
H3635 C3629 0.959 . S
H3636 C3629 0.961 . S
H3637 C3629 0.960 . S
H3638 C3630 0.930 . S
H3639 C3631 0.929 . S
H3640 C3648 0.929 . S
H3641 C3650 0.930 . S
H3642 C3652 0.930 . S
H3643 C3655 0.929 . S
H3644 C3658 0.930 . S
H3645 C3660 0.960 . S
H3646 C3660 0.960 . S
H3647 C3660 0.960 . S
C3648 H3640 0.929 . S
C3648 C3649 1.377 . S
C3648 C3650 1.384 . S
C3649 C3648 1.377 . S
C3649 C3655 1.390 . S
C3650 H3641 0.930 . S
C3650 C3648 1.384 . S
C3650 C3651 1.372 . S
C3651 C3650 1.372 . S
C3651 C3652 1.400 . S
C3651 C3656 1.490 . S
C3652 H3642 0.930 . S
C3652 C3651 1.400 . S
C3652 C3655 1.386 . S
H3653 C3669 0.930 . S
H3654 C3670 0.931 . S
C3655 H3643 0.929 . S
C3655 C3649 1.390 . S
C3655 C3652 1.386 . S
C3656 C3651 1.490 . S
C3656 C3658 1.395 . S
C3656 C3659 1.403 . S
H3657 C3663 0.930 . S
C3658 H3644 0.930 . S
C3658 C3656 1.395 . S
C3658 C3661 1.403 . S
C3659 C3656 1.403 . S
C3659 C3660 1.524 . S
C3659 C3663 1.400 . S
C3660 H3645 0.960 . S
C3660 H3646 0.960 . S
C3660 H3647 0.960 . S
C3660 C3659 1.524 . S
C3661 C3658 1.403 . S
C3661 C3662 1.392 . S
C3661 C3665 1.495 . S
C3662 C3661 1.392 . S
C3662 C3663 1.385 . S
C3662 C3664 1.478 . S
C3663 H3657 0.930 . S
C3663 C3659 1.400 . S
C3663 C3662 1.385 . S
C3664 C3662 1.478 . S
C3664 C3666 1.381 . S
C3664 C3670 1.383 . S
C3665 C3661 1.495 . S
C3665 H3671 0.959 . S
C3665 H3672 0.961 . S
C3665 H3673 0.960 . S
C3666 C3664 1.381 . S
C3666 C3667 1.394 . S
C3666 H3674 0.930 . S
C3667 C3666 1.394 . S
C3667 C3668 1.383 . S
C3667 H3675 0.929 . S
C3668 C3667 1.383 . S
C3668 C3669 1.377 . S
C3669 H3653 0.930 . S
C3669 C3668 1.377 . S
C3669 C3670 1.379 . S
C3670 H3654 0.931 . S
C3670 C3664 1.383 . S
C3670 C3669 1.379 . S
H3671 C3665 0.959 . S
H3672 C3665 0.961 . S
H3673 C3665 0.960 . S
H3674 C3666 0.930 . S
H3675 C3667 0.929 . S
H3676 C3684 0.929 . S
H3677 C3686 0.930 . S
H3678 C3688 0.930 . S
H3679 C3691 0.929 . S
H3680 C3694 0.930 . S
H3681 C3696 0.960 . S
H3682 C3696 0.960 . S
H3683 C3696 0.960 . S
C3684 H3676 0.929 . S
C3684 C3685 1.377 . S
C3684 C3686 1.384 . S
C3685 C3684 1.377 . S
C3685 C3691 1.390 . S
C3686 H3677 0.930 . S
C3686 C3684 1.384 . S
C3686 C3687 1.372 . S
C3687 C3686 1.372 . S
C3687 C3688 1.400 . S
C3687 C3692 1.490 . S
C3688 H3678 0.930 . S
C3688 C3687 1.400 . S
C3688 C3691 1.386 . S
H3689 C3705 0.930 . S
H3690 C3706 0.931 . S
C3691 H3679 0.929 . S
C3691 C3685 1.390 . S
C3691 C3688 1.386 . S
C3692 C3687 1.490 . S
C3692 C3694 1.395 . S
C3692 C3695 1.403 . S
H3693 C3699 0.930 . S
C3694 H3680 0.930 . S
C3694 C3692 1.395 . S
C3694 C3697 1.403 . S
C3695 C3692 1.403 . S
C3695 C3696 1.524 . S
C3695 C3699 1.400 . S
C3696 H3681 0.960 . S
C3696 H3682 0.960 . S
C3696 H3683 0.960 . S
C3696 C3695 1.524 . S
C3697 C3694 1.403 . S
C3697 C3698 1.392 . S
C3697 C3701 1.495 . S
C3698 C3697 1.392 . S
C3698 C3699 1.385 . S
C3698 C3700 1.478 . S
C3699 H3693 0.930 . S
C3699 C3695 1.400 . S
C3699 C3698 1.385 . S
C3700 C3698 1.478 . S
C3700 C3702 1.381 . S
C3700 C3706 1.383 . S
C3701 C3697 1.495 . S
C3701 H3707 0.959 . S
C3701 H3708 0.961 . S
C3701 H3709 0.960 . S
C3702 C3700 1.381 . S
C3702 C3703 1.394 . S
C3702 H3710 0.930 . S
C3703 C3702 1.394 . S
C3703 C3704 1.383 . S
C3703 H3711 0.929 . S
C3704 C3703 1.383 . S
C3704 C3705 1.377 . S
C3705 H3689 0.930 . S
C3705 C3704 1.377 . S
C3705 C3706 1.379 . S
C3706 H3690 0.931 . S
C3706 C3700 1.383 . S
C3706 C3705 1.379 . S
H3707 C3701 0.959 . S
H3708 C3701 0.961 . S
H3709 C3701 0.960 . S
H3710 C3702 0.930 . S
H3711 C3703 0.929 . S
H3712 C3720 0.929 . S
H3713 C3722 0.930 . S
H3714 C3724 0.930 . S
H3715 C3727 0.929 . S
H3716 C3730 0.930 . S
H3717 C3732 0.960 . S
H3718 C3732 0.960 . S
H3719 C3732 0.960 . S
C3720 H3712 0.929 . S
C3720 C3721 1.377 . S
C3720 C3722 1.384 . S
C3721 C3720 1.377 . S
C3721 C3727 1.390 . S
C3722 H3713 0.930 . S
C3722 C3720 1.384 . S
C3722 C3723 1.372 . S
C3723 C3722 1.372 . S
C3723 C3724 1.400 . S
C3723 C3728 1.490 . S
C3724 H3714 0.930 . S
C3724 C3723 1.400 . S
C3724 C3727 1.386 . S
H3725 C3741 0.930 . S
H3726 C3742 0.931 . S
C3727 H3715 0.929 . S
C3727 C3721 1.390 . S
C3727 C3724 1.386 . S
C3728 C3723 1.490 . S
C3728 C3730 1.395 . S
C3728 C3731 1.403 . S
H3729 C3735 0.930 . S
C3730 H3716 0.930 . S
C3730 C3728 1.395 . S
C3730 C3733 1.403 . S
C3731 C3728 1.403 . S
C3731 C3732 1.524 . S
C3731 C3735 1.400 . S
C3732 H3717 0.960 . S
C3732 H3718 0.960 . S
C3732 H3719 0.960 . S
C3732 C3731 1.524 . S
C3733 C3730 1.403 . S
C3733 C3734 1.392 . S
C3733 C3737 1.495 . S
C3734 C3733 1.392 . S
C3734 C3735 1.385 . S
C3734 C3736 1.478 . S
C3735 H3729 0.930 . S
C3735 C3731 1.400 . S
C3735 C3734 1.385 . S
C3736 C3734 1.478 . S
C3736 C3738 1.381 . S
C3736 C3742 1.383 . S
C3737 C3733 1.495 . S
C3737 H3743 0.959 . S
C3737 H3744 0.961 . S
C3737 H3745 0.960 . S
C3738 C3736 1.381 . S
C3738 C3739 1.394 . S
C3738 H3746 0.930 . S
C3739 C3738 1.394 . S
C3739 C3740 1.383 . S
C3739 H3747 0.929 . S
C3740 C3739 1.383 . S
C3740 C3741 1.377 . S
C3741 H3725 0.930 . S
C3741 C3740 1.377 . S
C3741 C3742 1.379 . S
C3742 H3726 0.931 . S
C3742 C3736 1.383 . S
C3742 C3741 1.379 . S
H3743 C3737 0.959 . S
H3744 C3737 0.961 . S
H3745 C3737 0.960 . S
H3746 C3738 0.930 . S
H3747 C3739 0.929 . S
H3748 C3756 0.929 . S
H3749 C3758 0.930 . S
H3750 C3760 0.930 . S
H3751 C3763 0.929 1_554 S
H3752 C3766 0.930 . S
H3753 C3768 0.960 . S
H3754 C3768 0.960 . S
H3755 C3768 0.960 . S
C3756 H3748 0.929 . S
C3756 C3757 1.377 . S
C3756 C3758 1.384 . S
C3757 C3756 1.377 . S
C3757 C3763 1.390 . S
C3758 H3749 0.930 . S
C3758 C3756 1.384 . S
C3758 C3759 1.372 . S
C3759 C3758 1.372 . S
C3759 C3760 1.400 . S
C3759 C3764 1.490 . S
C3760 H3750 0.930 . S
C3760 C3759 1.400 . S
C3760 C3763 1.386 . S
H3761 C3777 0.930 . S
H3762 C3778 0.931 . S
C3763 H3751 0.929 1_556 S
C3763 C3757 1.390 . S
C3763 C3760 1.386 . S
C3764 C3759 1.490 . S
C3764 C3766 1.395 . S
C3764 C3767 1.403 . S
H3765 C3771 0.930 . S
C3766 H3752 0.930 . S
C3766 C3764 1.395 . S
C3766 C3769 1.403 . S
C3767 C3764 1.403 . S
C3767 C3768 1.524 . S
C3767 C3771 1.400 . S
C3768 H3753 0.960 . S
C3768 H3754 0.960 . S
C3768 H3755 0.960 . S
C3768 C3767 1.524 . S
C3769 C3766 1.403 . S
C3769 C3770 1.392 . S
C3769 C3773 1.495 . S
C3770 C3769 1.392 . S
C3770 C3771 1.385 . S
C3770 C3772 1.478 . S
C3771 H3765 0.930 . S
C3771 C3767 1.400 . S
C3771 C3770 1.385 . S
C3772 C3770 1.478 . S
C3772 C3774 1.381 . S
C3772 C3778 1.383 . S
C3773 C3769 1.495 . S
C3773 H3779 0.959 . S
C3773 H3780 0.961 . S
C3773 H3781 0.960 . S
C3774 C3772 1.381 . S
C3774 C3775 1.394 . S
C3774 H3782 0.930 . S
C3775 C3774 1.394 . S
C3775 C3776 1.383 . S
C3775 H3783 0.929 . S
C3776 C3775 1.383 . S
C3776 C3777 1.377 . S
C3777 H3761 0.930 . S
C3777 C3776 1.377 . S
C3777 C3778 1.379 . S
C3778 H3762 0.931 . S
C3778 C3772 1.383 . S
C3778 C3777 1.379 . S
H3779 C3773 0.959 . S
H3780 C3773 0.961 . S
H3781 C3773 0.960 . S
H3782 C3774 0.930 . S
H3783 C3775 0.929 . S
H3784 C3792 0.929 . S
H3785 C3794 0.930 . S
H3786 C3796 0.930 . S
H3787 C3799 0.929 . S
H3788 C3802 0.930 . S
H3789 C3804 0.960 . S
H3790 C3804 0.960 . S
H3791 C3804 0.960 . S
C3792 H3784 0.929 . S
C3792 C3793 1.377 . S
C3792 C3794 1.384 . S
C3793 C3792 1.377 . S
C3793 C3799 1.390 . S
C3794 H3785 0.930 . S
C3794 C3792 1.384 . S
C3794 C3795 1.372 . S
C3795 C3794 1.372 . S
C3795 C3796 1.400 . S
C3795 C3800 1.490 . S
C3796 H3786 0.930 . S
C3796 C3795 1.400 . S
C3796 C3799 1.386 . S
H3797 C3813 0.930 . S
H3798 C3814 0.931 . S
C3799 H3787 0.929 . S
C3799 C3793 1.390 . S
C3799 C3796 1.386 . S
C3800 C3795 1.490 . S
C3800 C3802 1.395 . S
C3800 C3803 1.403 . S
H3801 C3807 0.930 . S
C3802 H3788 0.930 . S
C3802 C3800 1.395 . S
C3802 C3805 1.403 . S
C3803 C3800 1.403 . S
C3803 C3804 1.524 . S
C3803 C3807 1.400 . S
C3804 H3789 0.960 . S
C3804 H3790 0.960 . S
C3804 H3791 0.960 . S
C3804 C3803 1.524 . S
C3805 C3802 1.403 . S
C3805 C3806 1.392 . S
C3805 C3809 1.495 . S
C3806 C3805 1.392 . S
C3806 C3807 1.385 . S
C3806 C3808 1.478 . S
C3807 H3801 0.930 . S
C3807 C3803 1.400 . S
C3807 C3806 1.385 . S
C3808 C3806 1.478 . S
C3808 C3810 1.381 . S
C3808 C3814 1.383 . S
C3809 C3805 1.495 . S
C3809 H3815 0.959 . S
C3809 H3816 0.961 . S
C3809 H3817 0.960 . S
C3810 C3808 1.381 . S
C3810 C3811 1.394 . S
C3810 H3818 0.930 . S
C3811 C3810 1.394 . S
C3811 C3812 1.383 . S
C3811 H3819 0.929 . S
C3812 C3811 1.383 . S
C3812 C3813 1.377 . S
C3813 H3797 0.930 . S
C3813 C3812 1.377 . S
C3813 C3814 1.379 . S
C3814 H3798 0.931 . S
C3814 C3808 1.383 . S
C3814 C3813 1.379 . S
H3815 C3809 0.959 . S
H3816 C3809 0.961 . S
H3817 C3809 0.960 . S
H3818 C3810 0.930 . S
H3819 C3811 0.929 . S
H3820 C3828 0.929 . S
H3821 C3830 0.930 . S
H3822 C3832 0.930 . S
H3823 C3835 0.929 . S
H3824 C3838 0.930 . S
H3825 C3840 0.960 . S
H3826 C3840 0.960 . S
H3827 C3840 0.960 . S
C3828 H3820 0.929 . S
C3828 C3829 1.377 . S
C3828 C3830 1.384 . S
C3829 C3828 1.377 . S
C3829 C3835 1.390 . S
C3830 H3821 0.930 . S
C3830 C3828 1.384 . S
C3830 C3831 1.372 . S
C3831 C3830 1.372 . S
C3831 C3832 1.400 . S
C3831 C3836 1.490 . S
C3832 H3822 0.930 . S
C3832 C3831 1.400 . S
C3832 C3835 1.386 . S
H3833 C3849 0.930 . S
H3834 C3850 0.931 . S
C3835 H3823 0.929 . S
C3835 C3829 1.390 . S
C3835 C3832 1.386 . S
C3836 C3831 1.490 . S
C3836 C3838 1.395 . S
C3836 C3839 1.403 . S
H3837 C3843 0.930 . S
C3838 H3824 0.930 . S
C3838 C3836 1.395 . S
C3838 C3841 1.403 . S
C3839 C3836 1.403 . S
C3839 C3840 1.524 . S
C3839 C3843 1.400 . S
C3840 H3825 0.960 . S
C3840 H3826 0.960 . S
C3840 H3827 0.960 . S
C3840 C3839 1.524 . S
C3841 C3838 1.403 . S
C3841 C3842 1.392 . S
C3841 C3845 1.495 . S
C3842 C3841 1.392 . S
C3842 C3843 1.385 . S
C3842 C3844 1.478 . S
C3843 H3837 0.930 . S
C3843 C3839 1.400 . S
C3843 C3842 1.385 . S
C3844 C3842 1.478 . S
C3844 C3846 1.381 . S
C3844 C3850 1.383 . S
C3845 C3841 1.495 . S
C3845 H3851 0.959 . S
C3845 H3852 0.961 . S
C3845 H3853 0.960 . S
C3846 C3844 1.381 . S
C3846 C3847 1.394 . S
C3846 H3854 0.930 . S
C3847 C3846 1.394 . S
C3847 C3848 1.383 . S
C3847 H3855 0.929 . S
C3848 C3847 1.383 . S
C3848 C3849 1.377 . S
C3849 H3833 0.930 . S
C3849 C3848 1.377 . S
C3849 C3850 1.379 . S
C3850 H3834 0.931 . S
C3850 C3844 1.383 . S
C3850 C3849 1.379 . S
H3851 C3845 0.959 . S
H3852 C3845 0.961 . S
H3853 C3845 0.960 . S
H3854 C3846 0.930 . S
H3855 C3847 0.929 . S
H3856 C3864 0.929 . S
H3857 C3866 0.930 . S
H3858 C3868 0.930 . S
H3859 C3871 0.929 . S
H3860 C3874 0.930 . S
H3861 C3876 0.960 . S
H3862 C3876 0.960 . S
H3863 C3876 0.960 . S
C3864 H3856 0.929 . S
C3864 C3865 1.377 . S
C3864 C3866 1.384 . S
C3865 C3864 1.377 . S
C3865 C3871 1.390 . S
C3866 H3857 0.930 . S
C3866 C3864 1.384 . S
C3866 C3867 1.372 . S
C3867 C3866 1.372 . S
C3867 C3868 1.400 . S
C3867 C3872 1.490 . S
C3868 H3858 0.930 . S
C3868 C3867 1.400 . S
C3868 C3871 1.386 . S
H3869 C3885 0.930 . S
H3870 C3886 0.931 . S
C3871 H3859 0.929 . S
C3871 C3865 1.390 . S
C3871 C3868 1.386 . S
C3872 C3867 1.490 . S
C3872 C3874 1.395 . S
C3872 C3875 1.403 . S
H3873 C3879 0.930 . S
C3874 H3860 0.930 . S
C3874 C3872 1.395 . S
C3874 C3877 1.403 . S
C3875 C3872 1.403 . S
C3875 C3876 1.524 . S
C3875 C3879 1.400 . S
C3876 H3861 0.960 . S
C3876 H3862 0.960 . S
C3876 H3863 0.960 . S
C3876 C3875 1.524 . S
C3877 C3874 1.403 . S
C3877 C3878 1.392 . S
C3877 C3881 1.495 . S
C3878 C3877 1.392 . S
C3878 C3879 1.385 . S
C3878 C3880 1.478 . S
C3879 H3873 0.930 . S
C3879 C3875 1.400 . S
C3879 C3878 1.385 . S
C3880 C3878 1.478 . S
C3880 C3882 1.381 . S
C3880 C3886 1.383 . S
C3881 C3877 1.495 . S
C3881 H3887 0.959 . S
C3881 H3888 0.961 . S
C3881 H3889 0.960 . S
C3882 C3880 1.381 . S
C3882 C3883 1.394 . S
C3882 H3890 0.930 . S
C3883 C3882 1.394 . S
C3883 C3884 1.383 . S
C3883 H3891 0.929 . S
C3884 C3883 1.383 . S
C3884 C3885 1.377 . S
C3885 H3869 0.930 . S
C3885 C3884 1.377 . S
C3885 C3886 1.379 . S
C3886 H3870 0.931 . S
C3886 C3880 1.383 . S
C3886 C3885 1.379 . S
H3887 C3881 0.959 . S
H3888 C3881 0.961 . S
H3889 C3881 0.960 . S
H3890 C3882 0.930 . S
H3891 C3883 0.929 . S
H3892 C3900 0.929 . S
H3893 C3902 0.930 . S
H3894 C3904 0.930 . S
H3895 C3907 0.929 . S
H3896 C3910 0.930 . S
H3897 C3912 0.960 . S
H3898 C3912 0.960 . S
H3899 C3912 0.960 . S
C3900 H3892 0.929 . S
C3900 C3901 1.377 . S
C3900 C3902 1.384 . S
C3901 C3900 1.377 . S
C3901 C3907 1.390 . S
C3902 H3893 0.930 . S
C3902 C3900 1.384 . S
C3902 C3903 1.372 . S
C3903 C3902 1.372 . S
C3903 C3904 1.400 . S
C3903 C3908 1.490 . S
C3904 H3894 0.930 . S
C3904 C3903 1.400 . S
C3904 C3907 1.386 . S
H3905 C3921 0.930 . S
H3906 C3922 0.931 . S
C3907 H3895 0.929 . S
C3907 C3901 1.390 . S
C3907 C3904 1.386 . S
C3908 C3903 1.490 . S
C3908 C3910 1.395 . S
C3908 C3911 1.403 . S
H3909 C3915 0.930 . S
C3910 H3896 0.930 . S
C3910 C3908 1.395 . S
C3910 C3913 1.403 . S
C3911 C3908 1.403 . S
C3911 C3912 1.524 . S
C3911 C3915 1.400 . S
C3912 H3897 0.960 . S
C3912 H3898 0.960 . S
C3912 H3899 0.960 . S
C3912 C3911 1.524 . S
C3913 C3910 1.403 . S
C3913 C3914 1.392 . S
C3913 C3917 1.495 . S
C3914 C3913 1.392 . S
C3914 C3915 1.385 . S
C3914 C3916 1.478 . S
C3915 H3909 0.930 . S
C3915 C3911 1.400 . S
C3915 C3914 1.385 . S
C3916 C3914 1.478 . S
C3916 C3918 1.381 . S
C3916 C3922 1.383 . S
C3917 C3913 1.495 . S
C3917 H3923 0.959 . S
C3917 H3924 0.961 . S
C3917 H3925 0.960 . S
C3918 C3916 1.381 . S
C3918 C3919 1.394 . S
C3918 H3926 0.930 . S
C3919 C3918 1.394 . S
C3919 C3920 1.383 . S
C3919 H3927 0.929 . S
C3920 C3919 1.383 . S
C3920 C3921 1.377 . S
C3921 H3905 0.930 . S
C3921 C3920 1.377 . S
C3921 C3922 1.379 . S
C3922 H3906 0.931 . S
C3922 C3916 1.383 . S
C3922 C3921 1.379 . S
H3923 C3917 0.959 . S
H3924 C3917 0.961 . S
H3925 C3917 0.960 . S
H3926 C3918 0.930 . S
H3927 C3919 0.929 . S
H3928 C3936 0.880 1_565 S
H3929 C3938 0.930 . S
H3930 C3940 0.930 . S
H3931 C3943 0.929 . S
H3932 C3946 0.930 . S
H3933 C3948 0.960 . S
H3934 C3948 0.960 . S
H3935 C3948 0.960 . S
C3936 H3928 0.880 1_545 S
C3936 C3937 1.377 . S
C3936 C3938 1.384 . S
C3937 C3936 1.377 . S
C3937 C3943 1.390 . S
C3938 H3929 0.930 . S
C3938 C3936 1.384 . S
C3938 C3939 1.372 . S
C3939 C3938 1.372 . S
C3939 C3940 1.400 . S
C3939 C3944 1.490 . S
C3940 H3930 0.930 . S
C3940 C3939 1.400 . S
C3940 C3943 1.386 . S
H3941 C3957 0.930 . S
H3942 C3958 0.931 . S
C3943 H3931 0.929 . S
C3943 C3937 1.390 . S
C3943 C3940 1.386 . S
C3944 C3939 1.490 . S
C3944 C3946 1.395 . S
C3944 C3947 1.403 . S
H3945 C3951 0.930 . S
C3946 H3932 0.930 . S
C3946 C3944 1.395 . S
C3946 C3949 1.403 . S
C3947 C3944 1.403 . S
C3947 C3948 1.524 . S
C3947 C3951 1.400 . S
C3948 H3933 0.960 . S
C3948 H3934 0.960 . S
C3948 H3935 0.960 . S
C3948 C3947 1.524 . S
C3949 C3946 1.403 . S
C3949 C3950 1.392 . S
C3949 C3953 1.495 . S
C3950 C3949 1.392 . S
C3950 C3951 1.385 . S
C3950 C3952 1.478 . S
C3951 H3945 0.930 . S
C3951 C3947 1.400 . S
C3951 C3950 1.385 . S
C3952 C3950 1.478 . S
C3952 C3954 1.381 . S
C3952 C3958 1.383 . S
C3953 C3949 1.495 . S
C3953 H3959 0.959 . S
C3953 H3960 0.961 . S
C3953 H3961 0.960 . S
C3954 C3952 1.381 . S
C3954 C3955 1.394 . S
C3954 H3962 0.930 . S
C3955 C3954 1.394 . S
C3955 C3956 1.383 . S
C3955 H3963 0.929 . S
C3956 C3955 1.383 . S
C3956 C3957 1.377 . S
C3957 H3941 0.930 . S
C3957 C3956 1.377 . S
C3957 C3958 1.379 . S
C3958 H3942 0.931 . S
C3958 C3952 1.383 . S
C3958 C3957 1.379 . S
H3959 C3953 0.959 . S
H3960 C3953 0.961 . S
H3961 C3953 0.960 . S
H3962 C3954 0.930 . S
H3963 C3955 0.929 . S
H3964 C3972 0.929 . S
H3965 C3974 0.930 . S
H3966 C3976 0.930 . S
H3967 C3979 0.929 . S
H3968 C3982 0.930 . S
H3969 C3984 0.960 . S
H3970 C3984 0.960 . S
H3971 C3984 0.960 . S
C3972 H3964 0.929 . S
C3972 C3973 1.377 . S
C3972 C3974 1.384 . S
C3973 C3972 1.377 . S
C3973 C3979 1.390 . S
C3974 H3965 0.930 . S
C3974 C3972 1.384 . S
C3974 C3975 1.372 . S
C3975 C3974 1.372 . S
C3975 C3976 1.400 . S
C3975 C3980 1.490 . S
C3976 H3966 0.930 . S
C3976 C3975 1.400 . S
C3976 C3979 1.386 . S
H3977 C3993 0.930 . S
H3978 C3994 0.931 . S
C3979 H3967 0.929 . S
C3979 C3973 1.390 . S
C3979 C3976 1.386 . S
C3980 C3975 1.490 . S
C3980 C3982 1.395 . S
C3980 C3983 1.403 . S
H3981 C3987 0.930 . S
C3982 H3968 0.930 . S
C3982 C3980 1.395 . S
C3982 C3985 1.403 . S
C3983 C3980 1.403 . S
C3983 C3984 1.524 . S
C3983 C3987 1.400 . S
C3984 H3969 0.960 . S
C3984 H3970 0.960 . S
C3984 H3971 0.960 . S
C3984 C3983 1.524 . S
C3985 C3982 1.403 . S
C3985 C3986 1.392 . S
C3985 C3989 1.495 . S
C3986 C3985 1.392 . S
C3986 C3987 1.385 . S
C3986 C3988 1.478 . S
C3987 H3981 0.930 . S
C3987 C3983 1.400 . S
C3987 C3986 1.385 . S
C3988 C3986 1.478 . S
C3988 C3990 1.381 . S
C3988 C3994 1.383 . S
C3989 C3985 1.495 . S
C3989 H3995 0.959 . S
C3989 H3996 0.961 . S
C3989 H3997 0.960 . S
C3990 C3988 1.381 . S
C3990 C3991 1.394 . S
C3990 H3998 0.930 . S
C3991 C3990 1.394 . S
C3991 C3992 1.383 . S
C3991 H3999 0.929 . S
C3992 C3991 1.383 . S
C3992 C3993 1.377 . S
C3993 H3977 0.930 . S
C3993 C3992 1.377 . S
C3993 C3994 1.379 . S
C3994 H3978 0.931 . S
C3994 C3988 1.383 . S
C3994 C3993 1.379 . S
H3995 C3989 0.959 . S
H3996 C3989 0.961 . S
H3997 C3989 0.960 . S
H3998 C3990 0.930 . S
H3999 C3991 0.929 . S
H4000 C4008 0.929 . S
H4001 C4010 0.930 . S
H4002 C4012 0.930 . S
H4003 C4015 0.929 . S
H4004 C4018 0.930 . S
H4005 C4020 0.960 . S
H4006 C4020 0.960 . S
H4007 C4020 0.960 . S
C4008 H4000 0.929 . S
C4008 C4009 1.377 . S
C4008 C4010 1.384 . S
C4009 C4008 1.377 . S
C4009 C4015 1.390 . S
C4010 H4001 0.930 . S
C4010 C4008 1.384 . S
C4010 C4011 1.372 . S
C4011 C4010 1.372 . S
C4011 C4012 1.400 . S
C4011 C4016 1.490 . S
C4012 H4002 0.930 . S
C4012 C4011 1.400 . S
C4012 C4015 1.386 . S
H4013 C4029 0.930 . S
H4014 C4030 0.931 . S
C4015 H4003 0.929 . S
C4015 C4009 1.390 . S
C4015 C4012 1.386 . S
C4016 C4011 1.490 . S
C4016 C4018 1.395 . S
C4016 C4019 1.403 . S
H4017 C4023 0.930 . S
C4018 H4004 0.930 . S
C4018 C4016 1.395 . S
C4018 C4021 1.403 . S
C4019 C4016 1.403 . S
C4019 C4020 1.524 . S
C4019 C4023 1.400 . S
C4020 H4005 0.960 . S
C4020 H4006 0.960 . S
C4020 H4007 0.960 . S
C4020 C4019 1.524 . S
C4021 C4018 1.403 . S
C4021 C4022 1.392 . S
C4021 C4025 1.495 . S
C4022 C4021 1.392 . S
C4022 C4023 1.385 . S
C4022 C4024 1.478 . S
C4023 H4017 0.930 . S
C4023 C4019 1.400 . S
C4023 C4022 1.385 . S
C4024 C4022 1.478 . S
C4024 C4026 1.381 . S
C4024 C4030 1.383 . S
C4025 C4021 1.495 . S
C4025 H4031 0.959 . S
C4025 H4032 0.961 . S
C4025 H4033 0.960 . S
C4026 C4024 1.381 . S
C4026 C4027 1.394 . S
C4026 H4034 0.930 . S
C4027 C4026 1.394 . S
C4027 C4028 1.383 . S
C4027 H4035 0.929 . S
C4028 C4027 1.383 . S
C4028 C4029 1.377 . S
C4029 H4013 0.930 . S
C4029 C4028 1.377 . S
C4029 C4030 1.379 . S
C4030 H4014 0.931 . S
C4030 C4024 1.383 . S
C4030 C4029 1.379 . S
H4031 C4025 0.959 . S
H4032 C4025 0.961 . S
H4033 C4025 0.960 . S
H4034 C4026 0.930 . S
H4035 C4027 0.929 . S
H4036 C4044 0.929 . S
H4037 C4046 0.930 . S
H4038 C4048 0.930 . S
H4039 C4051 0.929 . S
H4040 C4054 0.930 . S
H4041 C4056 0.960 . S
H4042 C4056 0.960 . S
H4043 C4056 0.960 . S
C4044 H4036 0.929 . S
C4044 C4045 1.377 . S
C4044 C4046 1.384 . S
C4045 C4044 1.377 . S
C4045 C4051 1.390 . S
C4046 H4037 0.930 . S
C4046 C4044 1.384 . S
C4046 C4047 1.372 . S
C4047 C4046 1.372 . S
C4047 C4048 1.400 . S
C4047 C4052 1.490 . S
C4048 H4038 0.930 . S
C4048 C4047 1.400 . S
C4048 C4051 1.386 . S
H4049 C4065 0.930 . S
H4050 C4066 0.931 . S
C4051 H4039 0.929 . S
C4051 C4045 1.390 . S
C4051 C4048 1.386 . S
C4052 C4047 1.490 . S
C4052 C4054 1.395 . S
C4052 C4055 1.403 . S
H4053 C4059 0.930 . S
C4054 H4040 0.930 . S
C4054 C4052 1.395 . S
C4054 C4057 1.403 . S
C4055 C4052 1.403 . S
C4055 C4056 1.524 . S
C4055 C4059 1.400 . S
C4056 H4041 0.960 . S
C4056 H4042 0.960 . S
C4056 H4043 0.960 . S
C4056 C4055 1.524 . S
C4057 C4054 1.403 . S
C4057 C4058 1.392 . S
C4057 C4061 1.495 . S
C4058 C4057 1.392 . S
C4058 C4059 1.385 . S
C4058 C4060 1.478 . S
C4059 H4053 0.930 . S
C4059 C4055 1.400 . S
C4059 C4058 1.385 . S
C4060 C4058 1.478 . S
C4060 C4062 1.381 . S
C4060 C4066 1.383 . S
C4061 C4057 1.495 . S
C4061 H4067 0.959 . S
C4061 H4068 0.961 . S
C4061 H4069 0.960 . S
C4062 C4060 1.381 . S
C4062 C4063 1.394 . S
C4062 H4070 0.930 . S
C4063 C4062 1.394 . S
C4063 C4064 1.383 . S
C4063 H4071 0.929 . S
C4064 C4063 1.383 . S
C4064 C4065 1.377 . S
C4065 H4049 0.930 . S
C4065 C4064 1.377 . S
C4065 C4066 1.379 . S
C4066 H4050 0.931 . S
C4066 C4060 1.383 . S
C4066 C4065 1.379 . S
H4067 C4061 0.959 . S
H4068 C4061 0.961 . S
H4069 C4061 0.960 . S
H4070 C4062 0.930 . S
H4071 C4063 0.929 . S
H4072 C4080 0.929 . S
H4073 C4082 0.930 . S
H4074 C4084 0.930 . S
H4075 C4087 0.929 . S
H4076 C4090 0.930 . S
H4077 C4092 0.960 . S
H4078 C4092 0.960 . S
H4079 C4092 0.960 . S
C4080 H4072 0.929 . S
C4080 C4081 1.377 . S
C4080 C4082 1.384 . S
C4081 C4080 1.377 . S
C4081 C4087 1.390 . S
C4082 H4073 0.930 . S
C4082 C4080 1.384 . S
C4082 C4083 1.372 . S
C4083 C4082 1.372 . S
C4083 C4084 1.400 . S
C4083 C4088 1.490 . S
C4084 H4074 0.930 . S
C4084 C4083 1.400 . S
C4084 C4087 1.386 . S
H4085 C4101 0.930 . S
H4086 C4102 0.931 . S
C4087 H4075 0.929 . S
C4087 C4081 1.390 . S
C4087 C4084 1.386 . S
C4088 C4083 1.490 . S
C4088 C4090 1.395 . S
C4088 C4091 1.403 . S
H4089 C4095 0.930 . S
C4090 H4076 0.930 . S
C4090 C4088 1.395 . S
C4090 C4093 1.403 . S
C4091 C4088 1.403 . S
C4091 C4092 1.524 . S
C4091 C4095 1.400 . S
C4092 H4077 0.960 . S
C4092 H4078 0.960 . S
C4092 H4079 0.960 . S
C4092 C4091 1.524 . S
C4093 C4090 1.403 . S
C4093 C4094 1.392 . S
C4093 C4097 1.495 . S
C4094 C4093 1.392 . S
C4094 C4095 1.385 . S
C4094 C4096 1.478 . S
C4095 H4089 0.930 . S
C4095 C4091 1.400 . S
C4095 C4094 1.385 . S
C4096 C4094 1.478 . S
C4096 C4098 1.381 . S
C4096 C4102 1.383 . S
C4097 C4093 1.495 . S
C4097 H4103 0.959 . S
C4097 H4104 0.961 . S
C4097 H4105 0.960 . S
C4098 C4096 1.381 . S
C4098 C4099 1.394 . S
C4098 H4106 0.930 . S
C4099 C4098 1.394 . S
C4099 C4100 1.383 . S
C4099 H4107 0.929 . S
C4100 C4099 1.383 . S
C4100 C4101 1.377 . S
C4101 H4085 0.930 . S
C4101 C4100 1.377 . S
C4101 C4102 1.379 . S
C4102 H4086 0.931 . S
C4102 C4096 1.383 . S
C4102 C4101 1.379 . S
H4103 C4097 0.959 . S
H4104 C4097 0.961 . S
H4105 C4097 0.960 . S
H4106 C4098 0.930 . S
H4107 C4099 0.929 . S
H4108 C4116 0.929 . S
H4109 C4118 0.930 . S
H4110 C4120 0.930 . S
H4111 C4123 0.929 . S
H4112 C4126 0.930 . S
H4113 C4128 0.960 . S
H4114 C4128 0.960 . S
H4115 C4128 0.960 . S
C4116 H4108 0.929 . S
C4116 C4117 1.377 . S
C4116 C4118 1.384 . S
C4117 C4116 1.377 . S
C4117 C4123 1.390 . S
C4118 H4109 0.930 . S
C4118 C4116 1.384 . S
C4118 C4119 1.372 . S
C4119 C4118 1.372 . S
C4119 C4120 1.400 . S
C4119 C4124 1.490 . S
C4120 H4110 0.930 . S
C4120 C4119 1.400 . S
C4120 C4123 1.386 . S
H4121 C4137 0.930 . S
H4122 C4138 0.931 . S
C4123 H4111 0.929 . S
C4123 C4117 1.390 . S
C4123 C4120 1.386 . S
C4124 C4119 1.490 . S
C4124 C4126 1.395 . S
C4124 C4127 1.403 . S
H4125 C4131 0.930 . S
C4126 H4112 0.930 . S
C4126 C4124 1.395 . S
C4126 C4129 1.403 . S
C4127 C4124 1.403 . S
C4127 C4128 1.524 . S
C4127 C4131 1.400 1_455 S
C4128 H4113 0.960 . S
C4128 H4114 0.960 . S
C4128 H4115 0.960 . S
C4128 C4127 1.524 . S
C4129 C4126 1.403 . S
C4129 C4130 1.392 1_455 S
C4129 C4133 1.495 . S
C4130 C4129 1.392 1_655 S
C4130 C4131 1.385 . S
C4130 C4132 1.478 . S
C4131 H4125 0.930 . S
C4131 C4127 1.400 1_655 S
C4131 C4130 1.385 . S
C4132 C4130 1.478 . S
C4132 C4134 1.381 . S
C4132 C4138 1.383 . S
C4133 C4129 1.495 . S
C4133 H4139 0.959 . S
C4133 H4140 0.930 1_455 S
C4133 H4141 0.960 . S
C4134 C4132 1.381 . S
C4134 C4135 1.394 . S
C4134 H4142 0.930 . S
C4135 C4134 1.394 . S
C4135 C4136 1.383 . S
C4135 H4143 0.929 . S
C4136 C4135 1.383 . S
C4136 C4137 1.377 . S
C4137 H4121 0.930 . S
C4137 C4136 1.377 . S
C4137 C4138 1.379 . S
C4138 H4122 0.931 . S
C4138 C4132 1.383 . S
C4138 C4137 1.379 . S
H4139 C4133 0.959 . S
H4140 C4133 0.930 1_655 S
H4141 C4133 0.960 . S
H4142 C4134 0.930 . S
H4143 C4135 0.929 . S
C716 C354 0.911 . S
C697 C11 0.888 . S
C733 C14 1.034 . S
C752 C366 1.070 . S
C788 C401 1.108 . S
C769 C37 1.119 . S
C824 C410 1.041 . S
C805 C47 1.015 . S
C860 C365 1.075 . S
C841 C61 1.053 . S
C877 C79 1.079 . S
C896 C390 1.098 . S
C932 C409 1.029 . S
C913 C84 1.065 . S
C949 C109 0.954 . S
C968 C351 0.979 . S
C985 C123 0.942 . S
C1004 C344 0.935 . S
C1040 C368 0.999 . S
C1021 C131 1.031 . S
C1076 C387 1.118 . S
C1057 C140 1.143 . S
C1112 C412 1.056 . S
C1093 C163 1.018 . S
C1148 C373 1.036 . S
C1129 C121 1.031 . S
C1184 C398 1.082 . S
C1165 C126 1.098 . S
C1201 C145 1.030 . S
C1220 C417 1.013 . S
C1256 C357 0.941 . S
C1237 C165 0.932 . S
C1273 C168 0.966 . S
C1292 C346 0.994 . S
C1309 C193 1.015 . S
C1328 C445 1.009 . S
C1364 C461 1.018 . S
C1345 C205 1.062 . S
C1400 C475 1.079 . S
C1381 C215 1.075 . S
C1417 C224 0.983 . S
C1436 C343 0.989 . S
C1453 C247 1.078 . S
C1472 C395 1.094 . S
C1508 C478 1.021 . S
C1489 C207 0.993 . S
C1544 C442 1.107 . S
C1525 C257 1.101 . S
C1580 C498 1.066 . S
C1561 C23 1.035 . S
C1616 C522 0.985 . S
C1597 C0 0.968 . S
C1633 C53 0.924 . S
C1652 C555 0.886 . S
C1669 C33 1.102 . S
C1688 C563 1.074 . S
C1705 C103 1.101 . S
C1724 C533 1.057 . S
C1741 C95 0.912 . S
C1760 C544 0.881 . S
C1796 C564 1.006 . S
C1777 C70 0.987 . S
C1813 C65 1.083 . S
C1832 C497 1.083 . S
C1849 C271 1.067 . S
C1868 C500 1.045 . S
C1904 C530 1.030 . S
C1885 C219 1.016 . S
C1940 C541 0.958 . S
C1921 C235 0.942 . S
C1976 C571 0.975 . S
C1957 C182 1.014 . S
C2012 C519 1.028 . S
C1993 C266 1.002 . S
C2048 C552 0.876 . S
C2029 C221 0.903 . S
C2084 C566 1.040 . S
C2065 C233 1.021 . S
C2101 C187 1.131 . S
C2120 C505 1.142 . S
C2156 C508 0.964 . S
C2137 C289 0.979 . S
C2173 C154 1.057 . S
C2192 C596 1.046 . S
C2228 C608 0.973 . S
C2209 C299 0.999 . S
C2245 C137 1.026 . S
C2264 C629 1.011 . S
C2300 C511 1.024 . S
C2281 C149 1.058 . S
C2336 C549 0.945 . S
C2317 C313 0.991 . S
C2372 C632 0.995 . S
C2353 C294 1.003 . S
C2389 C333 1.002 . S
C2408 C599 0.967 . S
C2425 C39 0.912 . S
C2444 C654 0.923 . S
C2461 C42 1.039 . S
C2480 C432 1.060 . S
C2516 C456 1.040 . S
C2497 C9 1.061 . S
C2533 C19 1.037 . S
C2552 C486 1.000 . S
C2569 C89 1.042 . S
C2588 C431 0.985 . S
C2605 C107 1.107 . S
C2624 C467 1.133 . S
C2660 C483 1.064 . S
C2641 C56 1.089 . S
C2696 C665 0.896 . S
C2677 C81 0.932 . S
C2732 C662 0.939 . S
C2713 C305 0.908 . S
C2768 C434 1.008 . S
C2749 C285 1.022 . S
C2804 C464 1.139 . S
C2785 C322 1.110 . S
C2821 C317 1.055 . S
C2840 C476 1.058 . S
C2876 C439 1.038 . S
C2857 C303 1.025 . S
C2893 C280 1.091 . S
C2912 C453 1.062 . S
C2948 C489 1.020 . S
C2929 C327 1.031 . S
C2965 C319 0.953 . S
C2984 C651 0.969 . S
C3020 C652 0.960 . S
C3001 C210 0.977 . S
C3037 C249 0.993 . S
C3056 C379 1.005 . S
C3092 C388 1.018 . S
C3073 C275 1.019 . S
C3109 C173 1.070 . S
C3128 C423 1.014 . S
C3164 C659 0.963 . S
C3145 C252 0.977 . S
C3200 C454 1.038 . S
C3181 C191 1.060 . S
C3236 C420 1.015 . S
C3217 C277 0.980 . S
C3272 C376 1.100 . S
C3253 C229 1.078 . S
C3289 C51 1.085 . S
C3308 C673 1.088 . S
C3325 C28 0.996 . S
C3344 C585 0.988 . S
C3361 C25 0.926 . S
C3380 C621 0.947 . S
C3416 C640 1.027 . S
C3397 C5 1.051 . S
C3452 C586 1.066 . S
C3433 C75 1.055 . S
C3469 C67 0.910 . S
C3488 C610 0.896 . S
C3524 C637 1.002 . S
C3505 C98 1.019 . S
C3541 C93 1.062 . S
C3560 C674 1.060 . S
C3596 C681 1.136 . S
C3577 C201 1.119 . S
C3613 C177 1.029 . S
C3632 C593 1.044 . S
C3649 C263 0.933 . S
C3668 C607 0.899 . S
C3704 C630 1.004 . S
C3685 C238 0.969 . S
C3740 C588 0.973 . S
C3721 C196 0.988 . S
C3757 C179 0.893 . S
C3776 C618 0.923 . S
C3812 C643 1.044 . S
C3793 C261 1.045 . S
C3848 C676 1.118 . S
C3829 C243 1.117 . S
C3884 C687 0.986 . S
C3865 C135 1.002 . S
C3920 C527 1.080 . S
C3901 C308 1.100 . S
C3937 C117 0.996 . S
C3956 C542 0.968 . S
C3973 C291 0.989 . S
C3992 C574 1.014 . S
C4028 C684 1.024 . S
C4009 C331 1.021 . S
C4064 C615 0.959 . S
C4045 C159 0.985 . S
C4100 C577 1.060 . S
C4081 C112 1.044 . S
C4136 C520 0.997 . S
C4117 C151 0.971 . S
