# Generated by pormake.
# Topology bpr, (3,3)-cn, num edge types: 1
# Building blocks:
#     Node 0, Type 0, BuildingBlock: WUSLED_clean_sbu_0, # of connection points: 3
#     Node 1, Type 0, BuildingBlock: WUSLED_clean_sbu_0, # of connection points: 3
#     Node 2, Type 0, BuildingBlock: WUSLED_clean_sbu_0, # of connection points: 3
#     Node 3, Type 0, BuildingBlock: WUSLED_clean_sbu_0, # of connection points: 3
#     Node 4, Type 0, BuildingBlock: WUSLED_clean_sbu_0, # of connection points: 3
#     Node 5, Type 0, BuildingBlock: WUSLED_clean_sbu_0, # of connection points: 3
#     Node 6, Type 0, BuildingBlock: WUSLED_clean_sbu_0, # of connection points: 3
#     Node 7, Type 0, BuildingBlock: WUSLED_clean_sbu_0, # of connection points: 3
#     Node 8, Type 0, BuildingBlock: WUSLED_clean_sbu_0, # of connection points: 3
#     Node 9, Type 0, BuildingBlock: WUSLED_clean_sbu_0, # of connection points: 3
#     Node 10, Type 0, BuildingBlock: WUSLED_clean_sbu_0, # of connection points: 3
#     Node 11, Type 0, BuildingBlock: WUSLED_clean_sbu_0, # of connection points: 3
#     Node 12, Type 0, BuildingBlock: WUSLED_clean_sbu_0, # of connection points: 3
#     Node 13, Type 0, BuildingBlock: WUSLED_clean_sbu_0, # of connection points: 3
#     Node 14, Type 0, BuildingBlock: WUSLED_clean_sbu_0, # of connection points: 3
#     Node 15, Type 0, BuildingBlock: WUSLED_clean_sbu_0, # of connection points: 3
#     Node 16, Type 0, BuildingBlock: WUSLED_clean_sbu_0, # of connection points: 3
#     Node 17, Type 0, BuildingBlock: WUSLED_clean_sbu_0, # of connection points: 3
#     Node 18, Type 0, BuildingBlock: WUSLED_clean_sbu_0, # of connection points: 3
#     Node 19, Type 0, BuildingBlock: WUSLED_clean_sbu_0, # of connection points: 3
#     Node 20, Type 0, BuildingBlock: WUSLED_clean_sbu_0, # of connection points: 3
#     Node 21, Type 0, BuildingBlock: WUSLED_clean_sbu_0, # of connection points: 3
#     Node 22, Type 0, BuildingBlock: WUSLED_clean_sbu_0, # of connection points: 3
#     Node 23, Type 0, BuildingBlock: WUSLED_clean_sbu_0, # of connection points: 3
#     Node 24, Type 0, BuildingBlock: WUSLED_clean_sbu_0, # of connection points: 3
#     Node 25, Type 0, BuildingBlock: WUSLED_clean_sbu_0, # of connection points: 3
#     Node 26, Type 0, BuildingBlock: WUSLED_clean_sbu_0, # of connection points: 3
#     Node 27, Type 0, BuildingBlock: WUSLED_clean_sbu_0, # of connection points: 3
#     Node 28, Type 0, BuildingBlock: WUSLED_clean_sbu_0, # of connection points: 3
#     Node 29, Type 0, BuildingBlock: WUSLED_clean_sbu_0, # of connection points: 3
#     Node 30, Type 0, BuildingBlock: WUSLED_clean_sbu_0, # of connection points: 3
#     Node 31, Type 0, BuildingBlock: WUSLED_clean_sbu_0, # of connection points: 3
#     Node 32, Type 0, BuildingBlock: WUSLED_clean_sbu_0, # of connection points: 3
#     Node 33, Type 0, BuildingBlock: WUSLED_clean_sbu_0, # of connection points: 3
#     Node 34, Type 0, BuildingBlock: WUSLED_clean_sbu_0, # of connection points: 3
#     Node 35, Type 0, BuildingBlock: WUSLED_clean_sbu_0, # of connection points: 3
#     Node 36, Type 0, BuildingBlock: WUSLED_clean_sbu_0, # of connection points: 3
#     Node 37, Type 0, BuildingBlock: WUSLED_clean_sbu_0, # of connection points: 3
#     Node 38, Type 0, BuildingBlock: WUSLED_clean_sbu_0, # of connection points: 3
#     Node 39, Type 0, BuildingBlock: WUSLED_clean_sbu_0, # of connection points: 3
#     Node 40, Type 0, BuildingBlock: WUSLED_clean_sbu_0, # of connection points: 3
#     Node 41, Type 0, BuildingBlock: WUSLED_clean_sbu_0, # of connection points: 3
#     Node 42, Type 0, BuildingBlock: WUSLED_clean_sbu_0, # of connection points: 3
#     Node 43, Type 0, BuildingBlock: WUSLED_clean_sbu_0, # of connection points: 3
#     Node 44, Type 0, BuildingBlock: WUSLED_clean_sbu_0, # of connection points: 3
#     Node 45, Type 0, BuildingBlock: WUSLED_clean_sbu_0, # of connection points: 3
#     Node 46, Type 0, BuildingBlock: WUSLED_clean_sbu_0, # of connection points: 3
#     Node 47, Type 0, BuildingBlock: WUSLED_clean_sbu_0, # of connection points: 3
#     Node 48, Type 1, BuildingBlock: OLANEW_clean_sbu_2, # of connection points: 3
#     Node 49, Type 1, BuildingBlock: OLANEW_clean_sbu_2, # of connection points: 3
#     Node 50, Type 1, BuildingBlock: OLANEW_clean_sbu_2, # of connection points: 3
#     Node 51, Type 1, BuildingBlock: OLANEW_clean_sbu_2, # of connection points: 3
#     Node 52, Type 1, BuildingBlock: OLANEW_clean_sbu_2, # of connection points: 3
#     Node 53, Type 1, BuildingBlock: OLANEW_clean_sbu_2, # of connection points: 3
#     Node 54, Type 1, BuildingBlock: OLANEW_clean_sbu_2, # of connection points: 3
#     Node 55, Type 1, BuildingBlock: OLANEW_clean_sbu_2, # of connection points: 3
#     Node 56, Type 1, BuildingBlock: OLANEW_clean_sbu_2, # of connection points: 3
#     Node 57, Type 1, BuildingBlock: OLANEW_clean_sbu_2, # of connection points: 3
#     Node 58, Type 1, BuildingBlock: OLANEW_clean_sbu_2, # of connection points: 3
#     Node 59, Type 1, BuildingBlock: OLANEW_clean_sbu_2, # of connection points: 3
#     Node 60, Type 1, BuildingBlock: OLANEW_clean_sbu_2, # of connection points: 3
#     Node 61, Type 1, BuildingBlock: OLANEW_clean_sbu_2, # of connection points: 3
#     Node 62, Type 1, BuildingBlock: OLANEW_clean_sbu_2, # of connection points: 3
#     Node 63, Type 1, BuildingBlock: OLANEW_clean_sbu_2, # of connection points: 3
#     Node 64, Type 1, BuildingBlock: OLANEW_clean_sbu_2, # of connection points: 3
#     Node 65, Type 1, BuildingBlock: OLANEW_clean_sbu_2, # of connection points: 3
#     Node 66, Type 1, BuildingBlock: OLANEW_clean_sbu_2, # of connection points: 3
#     Node 67, Type 1, BuildingBlock: OLANEW_clean_sbu_2, # of connection points: 3
#     Node 68, Type 1, BuildingBlock: OLANEW_clean_sbu_2, # of connection points: 3
#     Node 69, Type 1, BuildingBlock: OLANEW_clean_sbu_2, # of connection points: 3
#     Node 70, Type 1, BuildingBlock: OLANEW_clean_sbu_2, # of connection points: 3
#     Node 71, Type 1, BuildingBlock: OLANEW_clean_sbu_2, # of connection points: 3
#     Node 72, Type 1, BuildingBlock: OLANEW_clean_sbu_2, # of connection points: 3
#     Node 73, Type 1, BuildingBlock: OLANEW_clean_sbu_2, # of connection points: 3
#     Node 74, Type 1, BuildingBlock: OLANEW_clean_sbu_2, # of connection points: 3
#     Node 75, Type 1, BuildingBlock: OLANEW_clean_sbu_2, # of connection points: 3
#     Node 76, Type 1, BuildingBlock: OLANEW_clean_sbu_2, # of connection points: 3
#     Node 77, Type 1, BuildingBlock: OLANEW_clean_sbu_2, # of connection points: 3
#     Node 78, Type 1, BuildingBlock: OLANEW_clean_sbu_2, # of connection points: 3
#     Node 79, Type 1, BuildingBlock: OLANEW_clean_sbu_2, # of connection points: 3
#     Node 80, Type 1, BuildingBlock: OLANEW_clean_sbu_2, # of connection points: 3
#     Node 81, Type 1, BuildingBlock: OLANEW_clean_sbu_2, # of connection points: 3
#     Node 82, Type 1, BuildingBlock: OLANEW_clean_sbu_2, # of connection points: 3
#     Node 83, Type 1, BuildingBlock: OLANEW_clean_sbu_2, # of connection points: 3
#     Node 84, Type 1, BuildingBlock: OLANEW_clean_sbu_2, # of connection points: 3
#     Node 85, Type 1, BuildingBlock: OLANEW_clean_sbu_2, # of connection points: 3
#     Node 86, Type 1, BuildingBlock: OLANEW_clean_sbu_2, # of connection points: 3
#     Node 87, Type 1, BuildingBlock: OLANEW_clean_sbu_2, # of connection points: 3
#     Node 88, Type 1, BuildingBlock: OLANEW_clean_sbu_2, # of connection points: 3
#     Node 89, Type 1, BuildingBlock: OLANEW_clean_sbu_2, # of connection points: 3
#     Node 90, Type 1, BuildingBlock: OLANEW_clean_sbu_2, # of connection points: 3
#     Node 91, Type 1, BuildingBlock: OLANEW_clean_sbu_2, # of connection points: 3
#     Node 92, Type 1, BuildingBlock: OLANEW_clean_sbu_2, # of connection points: 3
#     Node 93, Type 1, BuildingBlock: OLANEW_clean_sbu_2, # of connection points: 3
#     Node 94, Type 1, BuildingBlock: OLANEW_clean_sbu_2, # of connection points: 3
#     Node 95, Type 1, BuildingBlock: OLANEW_clean_sbu_2, # of connection points: 3
#     Edge 96, Type (0, 1), None
#     Edge 97, Type (0, 1), None
#     Edge 98, Type (0, 1), None
#     Edge 99, Type (0, 1), None
#     Edge 100, Type (0, 1), None
#     Edge 101, Type (0, 1), None
#     Edge 102, Type (0, 1), None
#     Edge 103, Type (0, 1), None
#     Edge 104, Type (0, 1), None
#     Edge 105, Type (0, 1), None
#     Edge 106, Type (0, 1), None
#     Edge 107, Type (0, 1), None
#     Edge 108, Type (0, 1), None
#     Edge 109, Type (0, 1), None
#     Edge 110, Type (0, 1), None
#     Edge 111, Type (0, 1), None
#     Edge 112, Type (0, 1), None
#     Edge 113, Type (0, 1), None
#     Edge 114, Type (0, 1), None
#     Edge 115, Type (0, 1), None
#     Edge 116, Type (0, 1), None
#     Edge 117, Type (0, 1), None
#     Edge 118, Type (0, 1), None
#     Edge 119, Type (0, 1), None
#     Edge 120, Type (0, 1), None
#     Edge 121, Type (0, 1), None
#     Edge 122, Type (0, 1), None
#     Edge 123, Type (0, 1), None
#     Edge 124, Type (0, 1), None
#     Edge 125, Type (0, 1), None
#     Edge 126, Type (0, 1), None
#     Edge 127, Type (0, 1), None
#     Edge 128, Type (0, 1), None
#     Edge 129, Type (0, 1), None
#     Edge 130, Type (0, 1), None
#     Edge 131, Type (0, 1), None
#     Edge 132, Type (0, 1), None
#     Edge 133, Type (0, 1), None
#     Edge 134, Type (0, 1), None
#     Edge 135, Type (0, 1), None
#     Edge 136, Type (0, 1), None
#     Edge 137, Type (0, 1), None
#     Edge 138, Type (0, 1), None
#     Edge 139, Type (0, 1), None
#     Edge 140, Type (0, 1), None
#     Edge 141, Type (0, 1), None
#     Edge 142, Type (0, 1), None
#     Edge 143, Type (0, 1), None
#     Edge 144, Type (0, 1), None
#     Edge 145, Type (0, 1), None
#     Edge 146, Type (0, 1), None
#     Edge 147, Type (0, 1), None
#     Edge 148, Type (0, 1), None
#     Edge 149, Type (0, 1), None
#     Edge 150, Type (0, 1), None
#     Edge 151, Type (0, 1), None
#     Edge 152, Type (0, 1), None
#     Edge 153, Type (0, 1), None
#     Edge 154, Type (0, 1), None
#     Edge 155, Type (0, 1), None
#     Edge 156, Type (0, 1), None
#     Edge 157, Type (0, 1), None
#     Edge 158, Type (0, 1), None
#     Edge 159, Type (0, 1), None
#     Edge 160, Type (0, 1), None
#     Edge 161, Type (0, 1), None
#     Edge 162, Type (0, 1), None
#     Edge 163, Type (0, 1), None
#     Edge 164, Type (0, 1), None
#     Edge 165, Type (0, 1), None
#     Edge 166, Type (0, 1), None
#     Edge 167, Type (0, 1), None
#     Edge 168, Type (0, 1), None
#     Edge 169, Type (0, 1), None
#     Edge 170, Type (0, 1), None
#     Edge 171, Type (0, 1), None
#     Edge 172, Type (0, 1), None
#     Edge 173, Type (0, 1), None
#     Edge 174, Type (0, 1), None
#     Edge 175, Type (0, 1), None
#     Edge 176, Type (0, 1), None
#     Edge 177, Type (0, 1), None
#     Edge 178, Type (0, 1), None
#     Edge 179, Type (0, 1), None
#     Edge 180, Type (0, 1), None
#     Edge 181, Type (0, 1), None
#     Edge 182, Type (0, 1), None
#     Edge 183, Type (0, 1), None
#     Edge 184, Type (0, 1), None
#     Edge 185, Type (0, 1), None
#     Edge 186, Type (0, 1), None
#     Edge 187, Type (0, 1), None
#     Edge 188, Type (0, 1), None
#     Edge 189, Type (0, 1), None
#     Edge 190, Type (0, 1), None
#     Edge 191, Type (0, 1), None
#     Edge 192, Type (0, 1), None
#     Edge 193, Type (0, 1), None
#     Edge 194, Type (0, 1), None
#     Edge 195, Type (0, 1), None
#     Edge 196, Type (0, 1), None
#     Edge 197, Type (0, 1), None
#     Edge 198, Type (0, 1), None
#     Edge 199, Type (0, 1), None
#     Edge 200, Type (0, 1), None
#     Edge 201, Type (0, 1), None
#     Edge 202, Type (0, 1), None
#     Edge 203, Type (0, 1), None
#     Edge 204, Type (0, 1), None
#     Edge 205, Type (0, 1), None
#     Edge 206, Type (0, 1), None
#     Edge 207, Type (0, 1), None
#     Edge 208, Type (0, 1), None
#     Edge 209, Type (0, 1), None
#     Edge 210, Type (0, 1), None
#     Edge 211, Type (0, 1), None
#     Edge 212, Type (0, 1), None
#     Edge 213, Type (0, 1), None
#     Edge 214, Type (0, 1), None
#     Edge 215, Type (0, 1), None
#     Edge 216, Type (0, 1), None
#     Edge 217, Type (0, 1), None
#     Edge 218, Type (0, 1), None
#     Edge 219, Type (0, 1), None
#     Edge 220, Type (0, 1), None
#     Edge 221, Type (0, 1), None
#     Edge 222, Type (0, 1), None
#     Edge 223, Type (0, 1), None
#     Edge 224, Type (0, 1), None
#     Edge 225, Type (0, 1), None
#     Edge 226, Type (0, 1), None
#     Edge 227, Type (0, 1), None
#     Edge 228, Type (0, 1), None
#     Edge 229, Type (0, 1), None
#     Edge 230, Type (0, 1), None
#     Edge 231, Type (0, 1), None
#     Edge 232, Type (0, 1), None
#     Edge 233, Type (0, 1), None
#     Edge 234, Type (0, 1), None
#     Edge 235, Type (0, 1), None
#     Edge 236, Type (0, 1), None
#     Edge 237, Type (0, 1), None
#     Edge 238, Type (0, 1), None
#     Edge 239, Type (0, 1), None
# Relax obj value: 0.030
# Max RMSD: 0.078
# Mean RMSD: 0.046
data_MOF--net-bpr--node1-WUSLED_clean_sbu_0--node2-OLANEW_clean_sbu_2--edge1-none
_symmetry_space_group_name_H-M    P1
_symmetry_Int_Tables_number       1
_symmetry_cell_setting            triclinic
loop_
_symmetry_equiv_pos_as_xyz
'x, y, z'
_cell_length_a     65.179117
_cell_length_b     67.644854
_cell_length_c     67.062475
_cell_angle_alpha  91.150637
_cell_angle_beta   92.766972
_cell_angle_gamma 95.37657
loop_
_atom_site_label
_atom_site_type_symbol
_atom_site_fract_x
_atom_site_fract_y
_atom_site_fract_z
_atom_type_partial_charge
C0 C 0.95997 0.38737 0.25758 0.0
C1 C 0.96236 0.39344 0.27778 0.0
C2 C 0.92506 0.39235 0.27991 0.0
C3 C 0.94508 0.39603 0.2888 0.0
C4 C 0.92272 0.38606 0.25972 0.0
C5 C 0.94005 0.38367 0.24865 0.0
U6 U 0.01627 0.37838 0.25642 0.0
O7 O 0.03284 0.35927 0.23716 0.0
O8 O 0.04162 0.39151 0.23891 0.0
C9 C 0.04489 0.37429 0.23081 0.0
C10 C 0.97813 0.38448 0.24596 0.0
C11 C 0.04991 0.37414 0.20962 0.0
C12 C 0.0458 0.36016 0.17574 0.0
C13 C 0.03867 0.36169 0.19508 0.0
C14 C 0.07504 0.38382 0.18522 0.0
C15 C 0.06424 0.37102 0.17072 0.0
C16 C 0.06797 0.38531 0.20441 0.0
C17 C 0.04719 0.37324 0.30464 0.0
C18 C 0.08419 0.37143 0.30399 0.0
C19 C 0.06688 0.36631 0.33492 0.0
C20 C 0.04804 0.36923 0.32505 0.0
C21 C 0.08518 0.36752 0.32452 0.0
C22 C 0.06533 0.37416 0.29411 0.0
C23 C 0.0274 0.37629 0.29433 0.0
O24 O 0.99324 0.39882 0.24786 0.0
O25 O 0.98458 0.36666 0.24682 0.0
O26 O 0.01884 0.36096 0.28363 0.0
O27 O 0.02703 0.39317 0.28501 0.0
H28 H 0.97762 0.39617 0.28503 0.0
H29 H 0.94742 0.40076 0.30433 0.0
H30 H 0.90752 0.38315 0.25243 0.0
H31 H 0.93789 0.37889 0.23311 0.0
H32 H 0.03709 0.35024 0.16487 0.0
H33 H 0.02473 0.35282 0.19877 0.0
H34 H 0.08928 0.39242 0.18192 0.0
H35 H 0.07702 0.39481 0.21544 0.0
H36 H 0.09799 0.37247 0.29555 0.0
H37 H 0.06716 0.36352 0.35077 0.0
H38 H 0.03415 0.36846 0.33337 0.0
H39 H 0.06491 0.37714 0.27829 0.0
C40 C 0.90946 0.76691 0.57455 0.0
C41 C 0.90217 0.77203 0.59313 0.0
C42 C 0.89695 0.73711 0.60145 0.0
C43 C 0.8959 0.75727 0.60643 0.0
C44 C 0.90474 0.73207 0.58299 0.0
C45 C 0.91084 0.74688 0.5696 0.0
U46 U 0.91369 0.82108 0.56262 0.0
O47 O 0.90305 0.83708 0.5366 0.0
O48 O 0.93604 0.83996 0.54586 0.0
C49 C 0.92176 0.84444 0.53263 0.0
C50 C 0.91469 0.78246 0.56014 0.0
C51 C 0.92677 0.8438 0.51147 0.0
C52 C 0.92064 0.82957 0.4779 0.0
C53 C 0.91889 0.82801 0.49856 0.0
C54 C 0.93943 0.86205 0.48303 0.0
C55 C 0.93032 0.84691 0.46988 0.0
C56 C 0.9376 0.86051 0.50363 0.0
C57 C 0.89835 0.85633 0.6035 0.0
C58 C 0.89039 0.89013 0.59746 0.0
C59 C 0.88921 0.87726 0.63088 0.0
C60 C 0.89501 0.85914 0.62378 0.0
C61 C 0.8867 0.89292 0.61778 0.0
C62 C 0.89626 0.872 0.59038 0.0
C63 C 0.9025 0.83659 0.59612 0.0
O64 O 0.89892 0.79158 0.55339 0.0
O65 O 0.93104 0.79475 0.56524 0.0
O66 O 0.92181 0.83423 0.59265 0.0
O67 O 0.88935 0.82875 0.58203 0.0
H68 H 0.90101 0.78745 0.59721 0.0
H69 H 0.89011 0.76166 0.62056 0.0
H70 H 0.90568 0.71667 0.57871 0.0
H71 H 0.91637 0.74267 0.55529 0.0
H72 H 0.91359 0.81758 0.4682 0.0
H73 H 0.91054 0.81493 0.50433 0.0
H74 H 0.94705 0.87557 0.4774 0.0
H75 H 0.94377 0.87284 0.51337 0.0
H76 H 0.8886 0.90193 0.58701 0.0
H77 H 0.88593 0.87868 0.64646 0.0
H78 H 0.89635 0.84711 0.63406 0.0
H79 H 0.89873 0.87004 0.57462 0.0
C80 C 0.45677 0.61315 0.72281 0.0
C81 C 0.43552 0.61053 0.72576 0.0
C82 C 0.42809 0.62474 0.69348 0.0
C83 C 0.42134 0.61614 0.7112 0.0
C84 C 0.4494 0.62742 0.69054 0.0
C85 C 0.46363 0.62162 0.70512 0.0
U86 U 0.4677 0.60821 0.77753 0.0
O87 O 0.48412 0.58703 0.79545 0.0
O88 O 0.49389 0.61904 0.79777 0.0
C89 C 0.49744 0.60113 0.80342 0.0
C90 C 0.47161 0.60847 0.73888 0.0
C91 C 0.51922 0.59719 0.80492 0.0
C92 C 0.55383 0.60114 0.79275 0.0
C93 C 0.53249 0.60158 0.78941 0.0
C94 C 0.54857 0.59088 0.8267 0.0
C95 C 0.56211 0.59652 0.8117 0.0
C96 C 0.52732 0.59118 0.82329 0.0
C97 C 0.42477 0.62106 0.8111 0.0
C98 C 0.42866 0.63687 0.84414 0.0
C99 C 0.39565 0.62015 0.83247 0.0
C100 C 0.40406 0.61513 0.81446 0.0
C101 C 0.40778 0.63136 0.84734 0.0
C102 C 0.43715 0.6316 0.82627 0.0
C103 C 0.43276 0.61748 0.79128 0.0
O104 O 0.47826 0.62364 0.75076 0.0
O105 O 0.46649 0.59215 0.74858 0.0
O106 O 0.43618 0.5991 0.78679 0.0
O107 O 0.44741 0.63068 0.78592 0.0
H108 H 0.42988 0.60436 0.73947 0.0
H109 H 0.40507 0.61392 0.71398 0.0
H110 H 0.45505 0.63393 0.677 0.0
H111 H 0.47999 0.62397 0.70269 0.0
H112 H 0.56386 0.6054 0.78084 0.0
H113 H 0.52646 0.60622 0.77509 0.0
H114 H 0.55442 0.58696 0.84134 0.0
H115 H 0.51726 0.58768 0.8354 0.0
H116 H 0.43839 0.6454 0.85541 0.0
H117 H 0.37944 0.61597 0.83438 0.0
H118 H 0.39425 0.60708 0.80292 0.0
H119 H 0.45324 0.63622 0.82411 0.0
C120 C 0.59648 0.23608 0.07819 0.0
C121 C 0.59636 0.23125 0.09843 0.0
C122 C 0.60434 0.26609 0.10805 0.0
C123 C 0.60021 0.24613 0.11324 0.0
C124 C 0.60364 0.27094 0.08772 0.0
C125 C 0.59979 0.256 0.0729 0.0
U126 U 0.59779 0.18195 0.06579 0.0
O127 O 0.58069 0.16169 0.04326 0.0
O128 O 0.61454 0.16655 0.04356 0.0
C129 C 0.59757 0.15822 0.03433 0.0
C130 C 0.59517 0.2202 0.06279 0.0
C131 C 0.59668 0.15882 0.01235 0.0
C132 C 0.60806 0.17312 0.98128 0.0
C133 C 0.60708 0.17435 0.0021 0.0
C134 C 0.58736 0.14143 0.9807 0.0
C135 C 0.59848 0.15648 0.97041 0.0
C136 C 0.58658 0.14256 0.00146 0.0
C137 C 0.60562 0.14848 0.11055 0.0
C138 C 0.61374 0.11429 0.10749 0.0
C139 C 0.61091 0.12922 0.14021 0.0
C140 C 0.60632 0.14692 0.13134 0.0
C141 C 0.61499 0.11272 0.12846 0.0
C142 C 0.60912 0.13201 0.09862 0.0
C143 C 0.60232 0.16769 0.10171 0.0
O144 O 0.61244 0.21193 0.06091 0.0
O145 O 0.57887 0.20718 0.06305 0.0
O146 O 0.5842 0.16901 0.09261 0.0
O147 O 0.61773 0.17571 0.09177 0.0
H148 H 0.59397 0.2159 0.10278 0.0
H149 H 0.60059 0.24189 0.12873 0.0
H150 H 0.60676 0.28617 0.08324 0.0
H151 H 0.60005 0.25995 0.05733 0.0
H152 H 0.61659 0.18504 0.97375 0.0
H153 H 0.61492 0.18711 0.0102 0.0
H154 H 0.57984 0.1284 0.97279 0.0
H155 H 0.57855 0.1304 0.0091 0.0
H156 H 0.61662 0.10191 0.09787 0.0
H157 H 0.61133 0.12874 0.15622 0.0
H158 H 0.60361 0.15951 0.14077 0.0
H159 H 0.60861 0.13296 0.0825 0.0
C160 C 0.97253 0.6304 0.20069 0.0
C161 C 0.96391 0.62599 0.18141 0.0
C162 C 0.92942 0.6234 0.1939 0.0
C163 C 0.94261 0.62241 0.17804 0.0
C164 C 0.938 0.62849 0.21321 0.0
C165 C 0.95951 0.6318 0.21663 0.0
U166 U 0.02649 0.638 0.22964 0.0
O167 O 0.02059 0.62719 0.25972 0.0
O168 O 0.02381 0.65921 0.25452 0.0
C169 C 0.02331 0.64517 0.26782 0.0
C170 C 0.99513 0.63214 0.20345 0.0
C171 C 0.03977 0.64785 0.28369 0.0
C172 C 0.0515 0.65558 0.31817 0.0
C173 C 0.03564 0.6537 0.30315 0.0
C174 C 0.0757 0.64609 0.29422 0.0
C175 C 0.07167 0.65159 0.31387 0.0
C176 C 0.05993 0.64427 0.2793 0.0
C177 C 0.07224 0.63181 0.19752 0.0
C178 C 0.10135 0.624 0.17858 0.0
C179 C 0.06912 0.63018 0.1613 0.0
C180 C 0.06039 0.63305 0.17965 0.0
C181 C 0.08976 0.62579 0.16057 0.0
C182 C 0.09267 0.62708 0.1969 0.0
C183 C 0.06363 0.63564 0.21687 0.0
O184 O 0.0031 0.61774 0.2131 0.0
O185 O 0.00454 0.64984 0.20795 0.0
O186 O 0.05258 0.62051 0.22421 0.0
O187 O 0.05518 0.65245 0.21854 0.0
H188 H 0.97375 0.62488 0.16893 0.0
H189 H 0.93646 0.61878 0.16298 0.0
H190 H 0.92816 0.62935 0.2257 0.0
H191 H 0.96595 0.63511 0.23165 0.0
H192 H 0.04791 0.65988 0.33316 0.0
H193 H 0.02017 0.65661 0.30676 0.0
H194 H 0.09103 0.64296 0.29033 0.0
H195 H 0.06344 0.63985 0.26432 0.0
H196 H 0.11731 0.62078 0.17853 0.0
H197 H 0.05977 0.63157 0.1477 0.0
H198 H 0.04451 0.63653 0.1799 0.0
H199 H 0.10199 0.62603 0.21059 0.0
C200 C 0.60562 0.72666 0.42375 0.0
C201 C 0.60183 0.72865 0.40312 0.0
C202 C 0.62259 0.70144 0.39628 0.0
C203 C 0.6101 0.71605 0.38952 0.0
C204 C 0.626 0.69924 0.41695 0.0
C205 C 0.61754 0.71174 0.43057 0.0
U206 U 0.59612 0.77946 0.43231 0.0
O207 O 0.57492 0.7949 0.45057 0.0
O208 O 0.60852 0.80165 0.45502 0.0
C209 C 0.59022 0.80483 0.4611 0.0
C210 C 0.59977 0.74181 0.4379 0.0
C211 C 0.58855 0.80607 0.48288 0.0
C212 C 0.59963 0.79721 0.5164 0.0
C213 C 0.59853 0.79346 0.49573 0.0
C214 C 0.57983 0.82546 0.5116 0.0
C215 C 0.59074 0.81357 0.52451 0.0
C216 C 0.5788 0.82175 0.49099 0.0
C217 C 0.60429 0.81172 0.38653 0.0
C218 C 0.61696 0.84668 0.38713 0.0
C219 C 0.60494 0.82998 0.35582 0.0
C220 C 0.60037 0.81237 0.36587 0.0
C221 C 0.6137 0.84722 0.36628 0.0
C222 C 0.61217 0.82908 0.3972 0.0
C223 C 0.60204 0.79249 0.3963 0.0
O224 O 0.61468 0.7558 0.44254 0.0
O225 O 0.58181 0.74874 0.43402 0.0
O226 O 0.58363 0.78653 0.40235 0.0
O227 O 0.61707 0.7895 0.40929 0.0
H228 H 0.59301 0.74034 0.3975 0.0
H229 H 0.60717 0.71813 0.3737 0.0
H230 H 0.6354 0.68801 0.42261 0.0
H231 H 0.62086 0.71017 0.44641 0.0
H232 H 0.60797 0.78764 0.52595 0.0
H233 H 0.60614 0.78124 0.48975 0.0
H234 H 0.57269 0.83809 0.51732 0.0
H235 H 0.57108 0.83166 0.48129 0.0
H236 H 0.6234 0.85978 0.39562 0.0
H237 H 0.60212 0.82992 0.33977 0.0
H238 H 0.59434 0.79909 0.35742 0.0
H239 H 0.61521 0.82886 0.41322 0.0
C240 C 0.53033 0.347 0.72378 0.0
C241 C 0.52773 0.34679 0.70287 0.0
C242 C 0.56363 0.3593 0.70036 0.0
C243 C 0.54423 0.35288 0.69126 0.0
C244 C 0.56637 0.35881 0.72129 0.0
C245 C 0.54977 0.3528 0.73294 0.0
U246 U 0.47331 0.34308 0.724 0.0
O247 O 0.45016 0.3246 0.74017 0.0
O248 O 0.45179 0.35721 0.74244 0.0
C249 C 0.44336 0.34021 0.74876 0.0
C250 C 0.51217 0.34354 0.73575 0.0
C251 C 0.44078 0.33942 0.77037 0.0
C252 C 0.45109 0.3511 0.80417 0.0
C253 C 0.45543 0.3493 0.78404 0.0
C254 C 0.41802 0.33204 0.79736 0.0
C255 C 0.4321 0.34292 0.81092 0.0
C256 C 0.42232 0.33038 0.77723 0.0
C257 C 0.44614 0.35075 0.67346 0.0
C258 C 0.41184 0.36185 0.66908 0.0
C259 C 0.42906 0.35003 0.64053 0.0
C260 C 0.44609 0.34658 0.65295 0.0
C261 C 0.41182 0.35789 0.64841 0.0
C262 C 0.42885 0.3582 0.68153 0.0
C263 C 0.46472 0.34817 0.68599 0.0
O264 O 0.50168 0.35911 0.73736 0.0
O265 O 0.5004 0.32697 0.73141 0.0
O266 O 0.46582 0.33053 0.69363 0.0
O267 O 0.47046 0.36285 0.69876 0.0
H268 H 0.51273 0.34255 0.69556 0.0
H269 H 0.54165 0.35295 0.67518 0.0
H270 H 0.58116 0.36366 0.72873 0.0
H271 H 0.55196 0.35326 0.74906 0.0
H272 H 0.46235 0.35936 0.8143 0.0
H273 H 0.46986 0.35628 0.77902 0.0
H274 H 0.40333 0.32545 0.80212 0.0
H275 H 0.41085 0.32269 0.76687 0.0
H276 H 0.39872 0.36768 0.67563 0.0
H277 H 0.42954 0.34676 0.62469 0.0
H278 H 0.45934 0.34085 0.6465 0.0
H279 H 0.42861 0.36143 0.69741 0.0
C280 C 0.87251 0.18953 0.01213 0.0
C281 C 0.88131 0.17139 0.01164 0.0
C282 C 0.88049 0.16975 0.04787 0.0
C283 C 0.88534 0.1616 0.0294 0.0
C284 C 0.87098 0.18756 0.04814 0.0
C285 C 0.86712 0.1974 0.03042 0.0
U286 U 0.87277 0.19556 0.95542 0.0
O287 O 0.88647 0.22147 0.93949 0.0
O288 O 0.85275 0.21207 0.93563 0.0
C289 C 0.86837 0.2247 0.93131 0.0
C290 C 0.87015 0.20114 0.99403 0.0
C291 C 0.86589 0.24111 0.91771 0.0
C292 C 0.86514 0.27642 0.91249 0.0
C293 C 0.86785 0.26068 0.92522 0.0
C294 C 0.85879 0.25315 0.88443 0.0
C295 C 0.86058 0.27286 0.89195 0.0
C296 C 0.86132 0.23737 0.89726 0.0
C297 C 0.88331 0.14789 0.9247 0.0
C298 C 0.88885 0.14309 0.88938 0.0
C299 C 0.88566 0.11479 0.911 0.0
C300 C 0.88314 0.1274 0.92718 0.0
C301 C 0.88843 0.12241 0.89186 0.0
C302 C 0.88626 0.15578 0.90573 0.0
C303 C 0.88036 0.16022 0.94243 0.0
O304 O 0.88717 0.20531 0.98461 0.0
O305 O 0.85407 0.19559 0.98197 0.0
O306 O 0.86163 0.16528 0.94473 0.0
O307 O 0.89494 0.17444 0.94747 0.0
H308 H 0.88552 0.16508 0.99761 0.0
H309 H 0.89253 0.14782 0.02869 0.0
H310 H 0.86707 0.19424 0.06211 0.0
H311 H 0.86036 0.21143 0.03104 0.0
H312 H 0.86653 0.29137 0.91881 0.0
H313 H 0.87128 0.26378 0.941 0.0
H314 H 0.85525 0.2499 0.86869 0.0
H315 H 0.85977 0.22228 0.89123 0.0
H316 H 0.89076 0.14939 0.87479 0.0
H317 H 0.88521 0.09899 0.91351 0.0
H318 H 0.88091 0.12107 0.94173 0.0
H319 H 0.88639 0.17162 0.90357 0.0
C320 C 0.24782 0.04079 0.38968 0.0
C321 C 0.25939 0.05895 0.38684 0.0
C322 C 0.22981 0.07093 0.36878 0.0
C323 C 0.25037 0.07402 0.37654 0.0
C324 C 0.21805 0.0531 0.37274 0.0
C325 C 0.227 0.03819 0.38309 0.0
U326 U 0.29223 0.00772 0.4043 0.0
O327 O 0.29085 0.97813 0.39036 0.0
O328 O 0.29074 0.9811 0.42298 0.0
C329 C 0.29151 0.96907 0.40744 0.0
C330 C 0.25746 0.02312 0.39599 0.0
C331 C 0.30667 0.9544 0.40849 0.0
C332 C 0.31338 0.92022 0.40254 0.0
C333 C 0.29958 0.93429 0.40612 0.0
C334 C 0.34176 0.94617 0.40457 0.0
C335 C 0.33452 0.92608 0.40106 0.0
C336 C 0.32789 0.96027 0.40825 0.0
C337 C 0.34119 0.04735 0.40548 0.0
C338 C 0.37571 0.06434 0.40729 0.0
C339 C 0.34628 0.08298 0.40045 0.0
C340 C 0.33299 0.06543 0.40156 0.0
C341 C 0.36781 0.08251 0.40311 0.0
C342 C 0.36254 0.04703 0.40854 0.0
C343 C 0.32849 0.02828 0.40627 0.0
O344 O 0.26856 0.01551 0.3825 0.0
O345 O 0.26553 0.02258 0.41433 0.0
O346 O 0.31961 0.02064 0.38947 0.0
O347 O 0.3173 0.02514 0.42189 0.0
H348 H 0.27556 0.06106 0.39166 0.0
H349 H 0.25978 0.08766 0.37382 0.0
H350 H 0.20218 0.05026 0.36706 0.0
H351 H 0.21794 0.02413 0.38496 0.0
H352 H 0.30728 0.90489 0.39992 0.0
H353 H 0.28321 0.92958 0.40597 0.0
H354 H 0.35797 0.9511 0.40368 0.0
H355 H 0.33356 0.97582 0.40984 0.0
H356 H 0.39216 0.06346 0.40958 0.0
H357 H 0.33976 0.0967 0.39695 0.0
H358 H 0.3165 0.06592 0.39916 0.0
H359 H 0.36912 0.03322 0.41169 0.0
C360 C 0.18302 0.97019 0.63811 0.0
C361 C 0.16185 0.96786 0.63272 0.0
C362 C 0.16064 0.93264 0.6397 0.0
C363 C 0.15072 0.94923 0.63354 0.0
C364 C 0.18199 0.935 0.64458 0.0
C365 C 0.19307 0.95366 0.64384 0.0
U366 U 0.18419 0.02494 0.62807 0.0
O367 O 0.19809 0.05106 0.64546 0.0
O368 O 0.20774 0.04559 0.61501 0.0
C369 C 0.21078 0.05654 0.6315 0.0
C370 C 0.19452 0.98988 0.63826 0.0
C371 C 0.23243 0.0626 0.638 0.0
C372 C 0.26079 0.0656 0.66324 0.0
C373 C 0.24107 0.0573 0.65654 0.0
C374 C 0.26379 0.08365 0.63252 0.0
C375 C 0.27215 0.07921 0.65145 0.0
C376 C 0.24413 0.07551 0.62594 0.0
C377 C 0.13587 0.04547 0.60648 0.0
C378 C 0.13694 0.07913 0.59439 0.0
C379 C 0.10425 0.05896 0.595 0.0
C380 C 0.11442 0.04331 0.60289 0.0
C381 C 0.11542 0.07702 0.59061 0.0
C382 C 0.14707 0.06353 0.60236 0.0
C383 C 0.14654 0.0287 0.61394 0.0
O384 O 0.19762 0.99725 0.62056 0.0
O385 O 0.18841 0.0028 0.65108 0.0
O386 O 0.1518 0.02949 0.63312 0.0
O387 O 0.16129 0.02342 0.60284 0.0
H388 H 0.15389 0.98053 0.62815 0.0
H389 H 0.13434 0.94788 0.62955 0.0
H390 H 0.1901 0.92251 0.64934 0.0
H391 H 0.20943 0.95523 0.64799 0.0
H392 H 0.26687 0.06179 0.67783 0.0
H393 H 0.23238 0.04726 0.6661 0.0
H394 H 0.27209 0.09405 0.62302 0.0
H395 H 0.23776 0.07984 0.61163 0.0
H396 H 0.14598 0.09286 0.59118 0.0
H397 H 0.08777 0.05665 0.59177 0.0
H398 H 0.10557 0.02941 0.60589 0.0
H399 H 0.16367 0.06547 0.60509 0.0
C400 C 0.19271 0.02886 0.87451 0.0
C401 C 0.17796 0.03988 0.88285 0.0
C402 C 0.18954 0.06857 0.86361 0.0
C403 C 0.17643 0.05957 0.87753 0.0
C404 C 0.20472 0.05763 0.85563 0.0
C405 C 0.20633 0.0379 0.86109 0.0
U406 U 0.21398 0.9771 0.87465 0.0
O407 O 0.23073 0.97718 0.84695 0.0
O408 O 0.24779 0.98336 0.87573 0.0
C409 C 0.24888 0.97936 0.85655 0.0
C410 C 0.19253 0.00773 0.87926 0.0
C411 C 0.26262 0.96413 0.85158 0.0
C412 C 0.29086 0.95333 0.83299 0.0
C413 C 0.27848 0.96822 0.83845 0.0
C414 C 0.27167 0.93022 0.85394 0.0
C415 C 0.28752 0.93414 0.84065 0.0
C416 C 0.25931 0.94505 0.8593 0.0
C417 C 0.1801 0.93487 0.89684 0.0
C418 C 0.15927 0.90715 0.91045 0.0
C419 C 0.1444 0.93807 0.90406 0.0
C420 C 0.16328 0.94633 0.89748 0.0
C421 C 0.14203 0.91823 0.9102 0.0
C422 C 0.17812 0.9154 0.90373 0.0
C423 C 0.19915 0.94251 0.88759 0.0
O424 O 0.20664 0.00297 0.89253 0.0
O425 O 0.18957 0.99513 0.86399 0.0
O426 O 0.19658 0.948 0.86903 0.0
O427 O 0.21176 0.95514 0.89852 0.0
H428 H 0.16729 0.03311 0.89319 0.0
H429 H 0.16458 0.06753 0.88394 0.0
H430 H 0.21515 0.06421 0.84499 0.0
H431 H 0.21785 0.02959 0.85455 0.0
H432 H 0.30297 0.95684 0.82277 0.0
H433 H 0.28117 0.98286 0.83227 0.0
H434 H 0.26864 0.91562 0.86011 0.0
H435 H 0.24701 0.94157 0.86934 0.0
H436 H 0.15798 0.89183 0.91498 0.0
H437 H 0.13147 0.94705 0.90372 0.0
H438 H 0.16456 0.96142 0.89223 0.0
H439 H 0.19096 0.90635 0.9033 0.0
C440 C 0.24887 0.98458 0.14543 0.0
C441 C 0.25439 0.96511 0.14336 0.0
C442 C 0.2212 0.95197 0.15488 0.0
C443 C 0.24075 0.94898 0.14811 0.0
C444 C 0.21546 0.97148 0.15651 0.0
C445 C 0.22928 0.98771 0.15189 0.0
U446 U 0.30037 0.99927 0.12679 0.0
O447 O 0.31304 0.02306 0.1076 0.0
O448 O 0.32674 0.01975 0.13782 0.0
C449 C 0.32685 0.03018 0.12149 0.0
C450 C 0.26401 0.00126 0.14115 0.0
C451 C 0.32957 0.05187 0.12444 0.0
C452 C 0.32326 0.08201 0.14252 0.0
C453 C 0.31834 0.06171 0.13825 0.0
C454 C 0.34993 0.08292 0.11851 0.0
C455 C 0.33946 0.09273 0.13303 0.0
C456 C 0.34506 0.06268 0.11433 0.0
C457 C 0.32841 0.95443 0.11107 0.0
C458 C 0.36535 0.95427 0.10817 0.0
C459 C 0.34238 0.92525 0.09769 0.0
C460 C 0.32548 0.9351 0.10296 0.0
C461 C 0.36253 0.93457 0.10063 0.0
C462 C 0.34839 0.96416 0.11328 0.0
C463 C 0.31056 0.9636 0.11824 0.0
O464 O 0.2811 0.00216 0.1525 0.0
O465 O 0.26738 0.00345 0.1221 0.0
O466 O 0.3009 0.97427 0.10531 0.0
O467 O 0.31311 0.97188 0.13619 0.0
H468 H 0.26942 0.9624 0.13828 0.0
H469 H 0.2456 0.93417 0.14655 0.0
H470 H 0.20049 0.97423 0.16171 0.0
H471 H 0.22477 0.00264 0.15353 0.0
H472 H 0.31482 0.08914 0.15371 0.0
H473 H 0.30629 0.05358 0.14618 0.0
H474 H 0.36248 0.09067 0.11092 0.0
H475 H 0.35391 0.05529 0.10365 0.0
H476 H 0.38068 0.96188 0.11052 0.0
H477 H 0.33966 0.91009 0.09201 0.0
H478 H 0.31013 0.92739 0.1012 0.0
H479 H 0.35089 0.97917 0.11946 0.0
C480 C 0.40828 0.26132 0.08398 0.0
C481 C 0.39952 0.26716 0.10159 0.0
C482 C 0.39314 0.23251 0.11065 0.0
C483 C 0.39198 0.25284 0.11484 0.0
C484 C 0.4026 0.22685 0.0933 0.0
C485 C 0.41002 0.24116 0.08004 0.0
U486 U 0.41351 0.31403 0.06336 0.0
O487 O 0.40359 0.32126 0.03287 0.0
O488 O 0.43639 0.32754 0.04313 0.0
C489 C 0.42247 0.32724 0.02822 0.0
C490 C 0.41378 0.2757 0.06863 0.0
C491 C 0.42514 0.34128 0.01204 0.0
C492 C 0.42927 0.34519 0.97663 0.0
C493 C 0.42872 0.3333 0.99328 0.0
C494 C 0.42318 0.37361 0.99739 0.0
C495 C 0.42616 0.36539 0.97838 0.0
C496 C 0.42264 0.36156 0.01421 0.0
C497 C 0.39809 0.35617 0.09944 0.0
C498 C 0.38852 0.38947 0.09335 0.0
C499 C 0.39043 0.37752 0.12712 0.0
C500 C 0.39631 0.3595 0.11994 0.0
C501 C 0.38635 0.39269 0.11395 0.0
C502 C 0.39439 0.37132 0.08612 0.0
C503 C 0.40223 0.33618 0.09273 0.0
O504 O 0.39808 0.28386 0.06039 0.0
O505 O 0.42998 0.28846 0.07276 0.0
O506 O 0.42155 0.33306 0.09021 0.0
O507 O 0.38915 0.32716 0.07919 0.0
H508 H 0.39798 0.28271 0.10476 0.0
H509 H 0.38492 0.25767 0.12816 0.0
H510 H 0.40374 0.21133 0.08965 0.0
H511 H 0.41661 0.23643 0.0664 0.0
H512 H 0.43154 0.33832 0.96227 0.0
H513 H 0.43052 0.31761 0.99136 0.0
H514 H 0.42081 0.38917 0.99918 0.0
H515 H 0.41977 0.36788 0.02866 0.0
H516 H 0.38549 0.4009 0.08282 0.0
H517 H 0.38831 0.37915 0.14292 0.0
H518 H 0.39887 0.34787 0.1304 0.0
H519 H 0.39562 0.36897 0.07022 0.0
C520 C 0.02994 0.84744 0.22422 0.0
C521 C 0.02704 0.8475 0.20335 0.0
C522 C 0.06302 0.85961 0.20049 0.0
C523 C 0.04344 0.85353 0.19157 0.0
C524 C 0.06601 0.8589 0.22138 0.0
C525 C 0.04953 0.85293 0.23318 0.0
U526 U 0.9728 0.84295 0.2259 0.0
O527 O 0.95058 0.8242 0.24288 0.0
O528 O 0.95184 0.85676 0.24528 0.0
C529 C 0.94412 0.83968 0.25202 0.0
C530 C 0.01202 0.84385 0.23649 0.0
C531 C 0.94302 0.83878 0.27385 0.0
C532 C 0.95504 0.85073 0.30721 0.0
C533 C 0.95799 0.84939 0.28672 0.0
C534 C 0.92292 0.82969 0.30238 0.0
C535 C 0.93724 0.84124 0.31517 0.0
C536 C 0.92574 0.82859 0.28187 0.0
C537 C 0.94472 0.85016 0.17517 0.0
C538 C 0.91065 0.86154 0.16978 0.0
C539 C 0.92844 0.84921 0.14185 0.0
C540 C 0.94511 0.84573 0.15473 0.0
C541 C 0.91111 0.85735 0.14918 0.0
C542 C 0.92731 0.85788 0.1827 0.0
C543 C 0.96317 0.84783 0.18801 0.0
O544 O 0.00141 0.8593 0.23832 0.0
O545 O 0.00034 0.82719 0.23238 0.0
O546 O 0.96454 0.83024 0.1957 0.0
O547 O 0.96871 0.86259 0.20074 0.0
H548 H 0.01192 0.84347 0.1962 0.0
H549 H 0.04067 0.85379 0.17552 0.0
H550 H 0.08093 0.86348 0.22869 0.0
H551 H 0.05195 0.85317 0.24928 0.0
H552 H 0.96645 0.85956 0.31674 0.0
H553 H 0.97156 0.85724 0.28084 0.0
H554 H 0.90906 0.8222 0.30806 0.0
H555 H 0.91404 0.82033 0.27218 0.0
H556 H 0.89743 0.86761 0.17591 0.0
H557 H 0.9293 0.84577 0.12609 0.0
H558 H 0.95847 0.83984 0.14867 0.0
H559 H 0.92675 0.86136 0.1985 0.0
C560 C 0.09738 0.73535 0.57635 0.0
C561 C 0.09675 0.73025 0.5965 0.0
C562 C 0.10465 0.76495 0.60672 0.0
C563 C 0.1003 0.74491 0.61155 0.0
C564 C 0.10445 0.77008 0.58647 0.0
C565 C 0.1009 0.75536 0.5714 0.0
U566 U 0.0992 0.68142 0.56386 0.0
O567 O 0.08251 0.66083 0.54138 0.0
O568 O 0.11635 0.66604 0.54192 0.0
C569 C 0.09955 0.65723 0.53279 0.0
C570 C 0.09641 0.71964 0.56077 0.0
C571 C 0.09886 0.65683 0.51079 0.0
C572 C 0.10908 0.6705 0.47906 0.0
C573 C 0.10806 0.67249 0.49984 0.0
C574 C 0.09106 0.63756 0.47994 0.0
C575 C 0.10081 0.65288 0.46892 0.0
C576 C 0.09017 0.63952 0.50064 0.0
C577 C 0.10629 0.6483 0.60903 0.0
C578 C 0.11338 0.61379 0.60631 0.0
C579 C 0.11189 0.62943 0.63891 0.0
C580 C 0.10753 0.64711 0.62986 0.0
C581 C 0.11508 0.61255 0.6273 0.0
C582 C 0.10905 0.6315 0.59727 0.0
C583 C 0.10318 0.66744 0.59997 0.0
O584 O 0.11378 0.71147 0.55909 0.0
O585 O 0.08016 0.70653 0.56067 0.0
O586 O 0.0852 0.66869 0.59057 0.0
O587 O 0.11876 0.67535 0.59019 0.0
H588 H 0.09421 0.71483 0.60061 0.0
H589 H 0.10031 0.74044 0.62697 0.0
H590 H 0.10775 0.78538 0.58226 0.0
H591 H 0.10156 0.75953 0.55591 0.0
H592 H 0.11653 0.68264 0.47097 0.0
H593 H 0.11486 0.68602 0.50739 0.0
H594 H 0.08452 0.62382 0.47264 0.0
H595 H 0.0831 0.62723 0.50883 0.0
H596 H 0.11564 0.60113 0.5968 0.0
H597 H 0.113 0.62931 0.65494 0.0
H598 H 0.10546 0.65998 0.63916 0.0
H599 H 0.10817 0.63219 0.58112 0.0
C600 C 0.98553 0.63628 0.81293 0.0
C601 C 0.96608 0.64287 0.81579 0.0
C602 C 0.96553 0.62786 0.84847 0.0
C603 C 0.95619 0.63879 0.83351 0.0
C604 C 0.98523 0.62173 0.84567 0.0
C605 C 0.99515 0.62595 0.82805 0.0
U606 U 0.98405 0.65086 0.75834 0.0
O607 O 0.0089 0.66166 0.73907 0.0
O608 O 0.99068 0.63307 0.73213 0.0
C609 C 0.00621 0.64562 0.72745 0.0
C610 C 0.99504 0.63825 0.79362 0.0
C611 C 0.02464 0.63659 0.72143 0.0
C612 C 0.06077 0.63052 0.72564 0.0
C613 C 0.04339 0.6385 0.7329 0.0
C614 C 0.04045 0.61805 0.69602 0.0
C615 C 0.05939 0.62033 0.70706 0.0
C616 C 0.02333 0.62624 0.70307 0.0
C617 C 0.93916 0.67107 0.73208 0.0
C618 C 0.9339 0.66433 0.69641 0.0
C619 C 0.91213 0.68594 0.71308 0.0
C620 C 0.923 0.68338 0.73127 0.0
C621 C 0.91711 0.67588 0.69566 0.0
C622 C 0.94499 0.66215 0.7144 0.0
C623 C 0.9491 0.66618 0.75129 0.0
O624 O 0.98576 0.62663 0.77936 0.0
O625 O 0.00019 0.65646 0.78786 0.0
O626 O 0.96631 0.67709 0.75672 0.0
O627 O 0.9504 0.64708 0.7535 0.0
H628 H 0.95836 0.6507 0.80412 0.0
H629 H 0.94102 0.64371 0.83524 0.0
H630 H 0.9929 0.61345 0.85699 0.0
H631 H 0.01012 0.62066 0.826 0.0
H632 H 0.07522 0.63234 0.73446 0.0
H633 H 0.04467 0.64634 0.74721 0.0
H634 H 0.03898 0.61044 0.68159 0.0
H635 H 0.00902 0.62471 0.69399 0.0
H636 H 0.93811 0.65655 0.68317 0.0
H637 H 0.89914 0.69483 0.71285 0.0
H638 H 0.91835 0.69042 0.74475 0.0
H639 H 0.95759 0.65278 0.71466 0.0
C640 C 0.12449 0.26103 0.42286 0.0
C641 C 0.13205 0.26166 0.40361 0.0
C642 C 0.12959 0.29737 0.40283 0.0
C643 C 0.13459 0.27966 0.39369 0.0
C644 C 0.122 0.29662 0.42214 0.0
C645 C 0.11948 0.2786 0.43205 0.0
U646 U 0.12679 0.20559 0.42196 0.0
O647 O 0.10673 0.18085 0.43347 0.0
O648 O 0.13943 0.18554 0.44374 0.0
C649 C 0.12158 0.17502 0.44526 0.0
C650 C 0.12193 0.2421 0.43332 0.0
C651 C 0.11597 0.16919 0.4654 0.0
C652 C 0.1159 0.17512 0.50125 0.0
C653 C 0.12025 0.18193 0.48217 0.0
C654 C 0.10247 0.14309 0.48681 0.0
C655 C 0.10707 0.15557 0.50372 0.0
C656 C 0.10698 0.14982 0.46786 0.0
C657 C 0.14296 0.18162 0.37411 0.0
C658 C 0.14461 0.14597 0.3704 0.0
C659 C 0.16181 0.16844 0.34743 0.0
C660 C 0.15463 0.18457 0.35729 0.0
C661 C 0.15712 0.14907 0.35406 0.0
C662 C 0.13772 0.16222 0.38053 0.0
C663 C 0.13788 0.19906 0.38556 0.0
O664 O 0.10659 0.22949 0.42626 0.0
O665 O 0.13907 0.23372 0.43697 0.0
O666 O 0.15108 0.2047 0.40046 0.0
O667 O 0.11852 0.19921 0.39014 0.0
H668 H 0.13601 0.24821 0.39627 0.0
H669 H 0.14048 0.27968 0.37886 0.0
H670 H 0.118 0.30997 0.42961 0.0
H671 H 0.11364 0.27837 0.44691 0.0
H672 H 0.11944 0.18511 0.51403 0.0
H673 H 0.12716 0.19697 0.48054 0.0
H674 H 0.09575 0.12795 0.48823 0.0
H675 H 0.1037 0.13976 0.45508 0.0
H676 H 0.14111 0.13116 0.37593 0.0
H677 H 0.17148 0.17114 0.33489 0.0
H678 H 0.15884 0.19944 0.35219 0.0
H679 H 0.12888 0.15973 0.39368 0.0
C680 C 0.48344 0.41165 0.23877 0.0
C681 C 0.48935 0.41754 0.21975 0.0
C682 C 0.45348 0.41459 0.20755 0.0
C683 C 0.4745 0.41918 0.20435 0.0
C684 C 0.44752 0.40925 0.22675 0.0
C685 C 0.46242 0.40785 0.24227 0.0
U686 U 0.53395 0.3916 0.24789 0.0
O687 O 0.56072 0.39898 0.26875 0.0
O688 O 0.54418 0.3691 0.2684 0.0
C689 C 0.55882 0.3815 0.27706 0.0
C690 C 0.49918 0.4066 0.25378 0.0
C691 C 0.56023 0.38166 0.29896 0.0
C692 C 0.54998 0.39298 0.33133 0.0
C693 C 0.54723 0.39219 0.31045 0.0
C694 C 0.57828 0.37231 0.32926 0.0
C695 C 0.5658 0.3833 0.34091 0.0
C696 C 0.5755 0.37152 0.3085 0.0
C697 C 0.55906 0.37638 0.20012 0.0
C698 C 0.58456 0.35253 0.19865 0.0
C699 C 0.5757 0.37069 0.16916 0.0
C700 C 0.56176 0.38057 0.17998 0.0
C701 C 0.58695 0.35635 0.17833 0.0
C702 C 0.57085 0.3626 0.20953 0.0
C703 C 0.54291 0.38537 0.21067 0.0
O704 O 0.50116 0.38748 0.25458 0.0
O705 O 0.51699 0.41756 0.25391 0.0
O706 O 0.54862 0.4021 0.22057 0.0
O707 O 0.5308 0.37293 0.22063 0.0
H708 H 0.5055 0.42014 0.21654 0.0
H709 H 0.47958 0.42326 0.18972 0.0
H710 H 0.43139 0.40577 0.22966 0.0
H711 H 0.4576 0.40304 0.25677 0.0
H712 H 0.54015 0.4016 0.33989 0.0
H713 H 0.53529 0.40007 0.30326 0.0
H714 H 0.59055 0.36463 0.33612 0.0
H715 H 0.58561 0.36328 0.29984 0.0
H716 H 0.59317 0.34162 0.20609 0.0
H717 H 0.57704 0.37369 0.15345 0.0
H718 H 0.55268 0.39109 0.17248 0.0
H719 H 0.56902 0.35924 0.22511 0.0
C720 C 0.36539 0.74918 0.947 0.0
C721 C 0.35814 0.74458 0.92723 0.0
C722 C 0.37316 0.71302 0.92864 0.0
C723 C 0.36185 0.72654 0.91817 0.0
C724 C 0.3802 0.71764 0.94849 0.0
C725 C 0.37627 0.73556 0.9576 0.0
U726 U 0.35756 0.80291 0.93979 0.0
O727 O 0.34276 0.82487 0.95755 0.0
O728 O 0.37565 0.82996 0.95159 0.0
C729 C 0.36014 0.83626 0.96089 0.0
C730 C 0.36359 0.7689 0.95591 0.0
C731 C 0.36513 0.84358 0.9815 0.0
C732 C 0.37478 0.83832 0.01635 0.0
C733 C 0.3682 0.83065 0.99727 0.0
C734 C 0.37514 0.87176 0.00398 0.0
C735 C 0.3787 0.85897 0.01977 0.0
C736 C 0.36831 0.86412 0.98508 0.0
C737 C 0.35071 0.81975 0.88617 0.0
C738 C 0.36227 0.85266 0.87497 0.0
C739 C 0.33958 0.8303 0.85328 0.0
C740 C 0.33949 0.81582 0.86792 0.0
C741 C 0.3513 0.84868 0.85659 0.0
C742 C 0.36178 0.83841 0.88974 0.0
C743 C 0.35188 0.80399 0.90085 0.0
O744 O 0.37869 0.78221 0.95187 0.0
O745 O 0.34525 0.77555 0.95406 0.0
O746 O 0.33652 0.80148 0.91284 0.0
O747 O 0.37006 0.80353 0.91008 0.0
H748 H 0.34999 0.7551 0.91869 0.0
H749 H 0.35624 0.72338 0.90286 0.0
H750 H 0.38876 0.70742 0.957 0.0
H751 H 0.38214 0.73897 0.97279 0.0
H752 H 0.3774 0.82812 0.02825 0.0
H753 H 0.36592 0.81471 0.99472 0.0
H754 H 0.37777 0.88772 0.0062 0.0
H755 H 0.36601 0.8743 0.97307 0.0
H756 H 0.37105 0.8669 0.87802 0.0
H757 H 0.33087 0.82699 0.83925 0.0
H758 H 0.33089 0.80149 0.86491 0.0
H759 H 0.37037 0.84183 0.90382 0.0
C760 C 0.02029 0.41592 0.77431 0.0
C761 C 0.01865 0.41145 0.79452 0.0
C762 C 0.05606 0.41343 0.79913 0.0
C763 C 0.03635 0.41023 0.80683 0.0
C764 C 0.05765 0.4186 0.779 0.0
C765 C 0.03986 0.41978 0.76666 0.0
U766 U 0.96292 0.40394 0.76755 0.0
O767 O 0.93873 0.41762 0.7501 0.0
O768 O 0.94412 0.3865 0.74416 0.0
C769 C 0.93403 0.40162 0.73874 0.0
C770 C 0.00162 0.4149 0.76103 0.0
C771 C 0.9318 0.40477 0.71716 0.0
C772 C 0.94571 0.40795 0.68421 0.0
C773 C 0.94872 0.40575 0.70489 0.0
C774 C 0.90901 0.4086 0.68813 0.0
C775 C 0.92577 0.40933 0.67563 0.0
C776 C 0.91201 0.40628 0.70865 0.0
C777 C 0.93477 0.38597 0.81382 0.0
C778 C 0.90289 0.36428 0.81374 0.0
C779 C 0.91668 0.38095 0.84449 0.0
C780 C 0.93321 0.38992 0.83429 0.0
C781 C 0.90158 0.36775 0.83436 0.0
C782 C 0.91924 0.37343 0.80352 0.0
C783 C 0.95331 0.39392 0.80382 0.0
O784 O 0.99295 0.39679 0.75739 0.0
O785 O 0.98828 0.4276 0.76529 0.0
O786 O 0.95337 0.4122 0.79751 0.0
O787 O 0.96047 0.38174 0.79092 0.0
H788 H 0.00363 0.40831 0.80065 0.0
H789 H 0.03454 0.40624 0.82224 0.0
H790 H 0.0726 0.42112 0.77262 0.0
H791 H 0.04137 0.42316 0.75105 0.0
H792 H 0.95894 0.40863 0.67498 0.0
H793 H 0.96416 0.40467 0.71126 0.0
H794 H 0.89345 0.4096 0.68207 0.0
H795 H 0.89878 0.40551 0.71788 0.0
H796 H 0.89136 0.35429 0.80554 0.0
H797 H 0.91623 0.38368 0.86041 0.0
H798 H 0.94509 0.39951 0.8425 0.0
H799 H 0.92005 0.3703 0.78768 0.0
C800 C 0.33258 0.25883 0.55075 0.0
C801 C 0.32775 0.26002 0.57087 0.0
C802 C 0.33751 0.29562 0.57167 0.0
C803 C 0.33012 0.27825 0.58122 0.0
C804 C 0.34131 0.29452 0.5512 0.0
C805 C 0.33894 0.27621 0.54084 0.0
U806 U 0.33441 0.2045 0.55738 0.0
O807 O 0.32193 0.17781 0.53998 0.0
O808 O 0.35543 0.18371 0.54626 0.0
C809 C 0.34038 0.17225 0.53701 0.0
C810 C 0.33367 0.2393 0.54116 0.0
C811 C 0.3443 0.16561 0.5167 0.0
C812 C 0.33956 0.16684 0.48059 0.0
C813 C 0.33627 0.17448 0.49963 0.0
C814 C 0.35959 0.14207 0.49563 0.0
C815 C 0.35115 0.15046 0.47848 0.0
C816 C 0.35607 0.1495 0.51455 0.0
C817 C 0.33255 0.18647 0.6107 0.0
C818 C 0.34709 0.15664 0.62199 0.0
C819 C 0.32457 0.17329 0.64312 0.0
C820 C 0.32238 0.18756 0.62857 0.0
C821 C 0.33723 0.15788 0.6401 0.0
C822 C 0.34463 0.17072 0.60734 0.0
C823 C 0.33115 0.20223 0.59609 0.0
O824 O 0.35085 0.23134 0.54581 0.0
O825 O 0.31709 0.22672 0.54209 0.0
O826 O 0.31509 0.2001 0.58333 0.0
O827 O 0.34848 0.20792 0.58774 0.0
H828 H 0.32304 0.2467 0.57882 0.0
H829 H 0.32702 0.27855 0.59694 0.0
H830 H 0.34704 0.30762 0.54342 0.0
H831 H 0.34293 0.2755 0.52536 0.0
H832 H 0.33311 0.17372 0.46757 0.0
H833 H 0.32729 0.18709 0.50103 0.0
H834 H 0.36855 0.12943 0.49447 0.0
H835 H 0.36239 0.1425 0.52757 0.0
H836 H 0.35662 0.14472 0.61909 0.0
H837 H 0.31668 0.17452 0.65688 0.0
H838 H 0.31293 0.19958 0.63136 0.0
H839 H 0.35242 0.16949 0.59352 0.0
C840 C 0.48291 0.6152 0.2566 0.0
C841 C 0.49 0.61328 0.2765 0.0
C842 C 0.45474 0.61067 0.28713 0.0
C843 C 0.47605 0.61096 0.29161 0.0
C844 C 0.44769 0.61273 0.26716 0.0
C845 C 0.4617 0.61494 0.25199 0.0
U846 U 0.53815 0.62372 0.24489 0.0
O847 O 0.55718 0.611 0.22275 0.0
O848 O 0.55481 0.64324 0.22395 0.0
C849 C 0.56222 0.62828 0.2148 0.0
C850 C 0.49789 0.61791 0.24096 0.0
C851 C 0.56152 0.62846 0.19292 0.0
C852 C 0.54437 0.62045 0.16038 0.0
C853 C 0.54364 0.62185 0.18124 0.0
C854 C 0.58057 0.63278 0.16295 0.0
C855 C 0.56301 0.62552 0.1511 0.0
C856 C 0.5798 0.63425 0.18364 0.0
C857 C 0.57497 0.62763 0.29185 0.0
C858 C 0.6124 0.62816 0.29299 0.0
C859 C 0.59466 0.63464 0.32306 0.0
C860 C 0.57578 0.63202 0.31232 0.0
C861 C 0.61315 0.63269 0.31358 0.0
C862 C 0.59335 0.62579 0.2821 0.0
C863 C 0.55462 0.6249 0.28136 0.0
O864 O 0.50799 0.63566 0.24098 0.0
O865 O 0.50994 0.60348 0.23926 0.0
O866 O 0.55045 0.60836 0.27074 0.0
O867 O 0.54845 0.6406 0.2725 0.0
H868 H 0.50636 0.61358 0.28034 0.0
H869 H 0.48198 0.60941 0.30682 0.0
H870 H 0.43135 0.61243 0.26323 0.0
H871 H 0.456 0.61646 0.23671 0.0
H872 H 0.5306 0.61474 0.15164 0.0
H873 H 0.52939 0.6173 0.18825 0.0
H874 H 0.59513 0.63689 0.15629 0.0
H875 H 0.59371 0.63939 0.19247 0.0
H876 H 0.62647 0.62676 0.28533 0.0
H877 H 0.59474 0.63798 0.33894 0.0
H878 H 0.56174 0.63343 0.32005 0.0
H879 H 0.59292 0.62249 0.2662 0.0
C880 C 0.09404 0.80361 0.00648 0.0
C881 C 0.09243 0.82373 0.01109 0.0
C882 C 0.09085 0.83123 0.97569 0.0
C883 C 0.09077 0.8374 0.99584 0.0
C884 C 0.0924 0.81102 0.97116 0.0
C885 C 0.09399 0.79734 0.98644 0.0
U886 U 0.1073 0.79545 0.06057 0.0
O887 O 0.09551 0.77374 0.08224 0.0
O888 O 0.12829 0.77602 0.07537 0.0
C889 C 0.11358 0.76693 0.08549 0.0
C890 C 0.09701 0.78947 0.02254 0.0
C891 C 0.11378 0.74534 0.08744 0.0
C892 C 0.10662 0.71115 0.07518 0.0
C893 C 0.10661 0.73165 0.07207 0.0
C894 C 0.12109 0.71813 0.10883 0.0
C895 C 0.1137 0.7042 0.09371 0.0
C896 C 0.12113 0.73842 0.10569 0.0
C897 C 0.12003 0.84279 0.09305 0.0
C898 C 0.14421 0.84757 0.12185 0.0
C899 C 0.1206 0.87234 0.1143 0.0
C900 C 0.1123 0.86087 0.09776 0.0
C901 C 0.13697 0.86601 0.12615 0.0
C902 C 0.13563 0.83591 0.10555 0.0
C903 C 0.11297 0.83228 0.07417 0.0
O904 O 0.1161 0.78982 0.02988 0.0
O905 O 0.08337 0.78901 0.03641 0.0
O906 O 0.09499 0.8217 0.07397 0.0
O907 O 0.12708 0.82334 0.0651 0.0
H908 H 0.09269 0.82891 0.02651 0.0
H909 H 0.08963 0.85283 0.99987 0.0
H910 H 0.09249 0.80576 0.95581 0.0
H911 H 0.0954 0.78191 0.98262 0.0
H912 H 0.10076 0.70079 0.06327 0.0
H913 H 0.10086 0.73678 0.05785 0.0
H914 H 0.1267 0.71337 0.12325 0.0
H915 H 0.12673 0.74878 0.11771 0.0
H916 H 0.15668 0.84233 0.13094 0.0
H917 H 0.11487 0.88658 0.11728 0.0
H918 H 0.1003 0.86642 0.08826 0.0
H919 H 0.14168 0.82188 0.1023 0.0
C920 C 0.76126 0.98076 0.63003 0.0
C921 C 0.76483 0.96147 0.63578 0.0
C922 C 0.80148 0.96865 0.63069 0.0
C923 C 0.78486 0.95553 0.63631 0.0
C924 C 0.79781 0.98795 0.62506 0.0
C925 C 0.77789 0.99398 0.62485 0.0
U926 U 0.70318 0.96903 0.62121 0.0
O927 O 0.67728 0.98225 0.6346 0.0
O928 O 0.68108 0.98382 0.60231 0.0
C929 C 0.6707 0.98917 0.6175 0.0
C930 C 0.74028 0.98709 0.62829 0.0
C931 C 0.66561 0.00991 0.61761 0.0
C932 C 0.6743 0.04524 0.62442 0.0
C933 C 0.67958 0.02562 0.62523 0.0
C934 C 0.64117 0.03353 0.60838 0.0
C935 C 0.65504 0.0494 0.61587 0.0
C936 C 0.64641 0.01401 0.60926 0.0
C937 C 0.68033 0.91574 0.61152 0.0
C938 C 0.64325 0.90742 0.60876 0.0
C939 C 0.66617 0.88226 0.60155 0.0
C940 C 0.68321 0.8962 0.60573 0.0
C941 C 0.64599 0.88767 0.60326 0.0
C942 C 0.66025 0.92133 0.61276 0.0
C943 C 0.69825 0.93024 0.61617 0.0
O944 O 0.73128 0.98491 0.61033 0.0
O945 O 0.72797 0.98152 0.64254 0.0
O946 O 0.69864 0.93924 0.63377 0.0
O947 O 0.70306 0.94243 0.60176 0.0
H948 H 0.75214 0.95098 0.63966 0.0
H949 H 0.78727 0.94056 0.64069 0.0
H950 H 0.81037 0.99845 0.62089 0.0
H951 H 0.77541 0.0089 0.62037 0.0
H952 H 0.68534 0.05713 0.63034 0.0
H953 H 0.69455 0.02272 0.63164 0.0
H954 H 0.62621 0.03615 0.60175 0.0
H955 H 0.63547 0.00207 0.60326 0.0
H956 H 0.62794 0.91211 0.61016 0.0
H957 H 0.66882 0.86717 0.59749 0.0
H958 H 0.69863 0.89168 0.60463 0.0
H959 H 0.65773 0.93642 0.61704 0.0
C960 C 0.74292 0.95506 0.37496 0.0
C961 C 0.74106 0.93566 0.36683 0.0
C962 C 0.70359 0.93531 0.36512 0.0
C963 C 0.72153 0.92589 0.36185 0.0
C964 C 0.70558 0.95453 0.37382 0.0
C965 C 0.72509 0.96433 0.37861 0.0
U966 U 0.80174 0.95782 0.38313 0.0
O967 O 0.82597 0.97832 0.37149 0.0
O968 O 0.82211 0.97753 0.40385 0.0
C969 C 0.83148 0.98647 0.38911 0.0
C970 C 0.76324 0.96611 0.37916 0.0
C971 C 0.83359 0.00827 0.38975 0.0
C972 C 0.82603 0.03932 0.37479 0.0
C973 C 0.82111 0.01899 0.37713 0.0
C974 C 0.85467 0.03878 0.39915 0.0
C975 C 0.84329 0.04923 0.38527 0.0
C976 C 0.84994 0.01839 0.40125 0.0
C977 C 0.83165 0.91282 0.38042 0.0
C978 C 0.868 0.91472 0.39094 0.0
C979 C 0.85203 0.88579 0.37226 0.0
C980 C 0.83323 0.89422 0.37138 0.0
C981 C 0.86953 0.89578 0.38237 0.0
C982 C 0.84925 0.92323 0.38984 0.0
C983 C 0.81171 0.92135 0.37971 0.0
O984 O 0.77241 0.96285 0.39651 0.0
O985 O 0.77577 0.96666 0.36436 0.0
O986 O 0.80845 0.93249 0.36426 0.0
O987 O 0.80645 0.92915 0.39664 0.0
H988 H 0.7547 0.92823 0.36405 0.0
H989 H 0.7205 0.91105 0.35529 0.0
H990 H 0.69208 0.96221 0.37648 0.0
H991 H 0.72626 0.9793 0.3849 0.0
H992 H 0.81679 0.04711 0.36425 0.0
H993 H 0.80823 0.01148 0.36829 0.0
H994 H 0.86798 0.04608 0.40754 0.0
H995 H 0.85968 0.01034 0.41111 0.0
H996 H 0.88124 0.92286 0.39869 0.0
H997 H 0.85268 0.87118 0.36555 0.0
H998 H 0.81984 0.8861 0.36385 0.0
H999 H 0.84841 0.9378 0.39659 0.0
C1000 C 0.79481 0.96073 0.14219 0.0
C1001 C 0.81475 0.96445 0.13527 0.0
C1002 C 0.81882 0.929 0.13483 0.0
C1003 C 0.82665 0.94871 0.13156 0.0
C1004 C 0.79903 0.92546 0.1423 0.0
C1005 C 0.78712 0.94119 0.14589 0.0
U1006 U 0.78858 0.01575 0.14292 0.0
O1007 O 0.76477 0.03278 0.12948 0.0
O1008 O 0.77082 0.03416 0.16204 0.0
C1009 C 0.75922 0.03936 0.1468 0.0
C1010 C 0.78172 0.97704 0.14492 0.0
C1011 C 0.73685 0.03844 0.14935 0.0
C1012 C 0.70181 0.02514 0.13951 0.0
C1013 C 0.72309 0.02381 0.13946 0.0
C1014 C 0.70773 0.05496 0.16041 0.0
C1015 C 0.69395 0.04097 0.14964 0.0
C1016 C 0.729 0.05376 0.16015 0.0
C1017 C 0.83504 0.05151 0.13184 0.0
C1018 C 0.83717 0.0873 0.13724 0.0
C1019 C 0.86125 0.07278 0.11613 0.0
C1020 C 0.85181 0.05388 0.11956 0.0
C1021 C 0.85423 0.08966 0.12514 0.0
C1022 C 0.82749 0.06834 0.1404 0.0
C1023 C 0.82554 0.03139 0.13518 0.0
O1024 O 0.78663 0.98867 0.16071 0.0
O1025 O 0.77779 0.98687 0.12869 0.0
O1026 O 0.81182 0.02432 0.12124 0.0
O1027 O 0.81985 0.02772 0.1534 0.0
H1028 H 0.82097 0.97949 0.1324 0.0
H1029 H 0.84185 0.95196 0.12589 0.0
H1030 H 0.79254 0.91047 0.14496 0.0
H1031 H 0.77176 0.93808 0.15125 0.0
H1032 H 0.69154 0.014 0.13128 0.0
H1033 H 0.7288 0.01178 0.1311 0.0
H1034 H 0.70213 0.0673 0.16838 0.0
H1035 H 0.73938 0.06522 0.16781 0.0
H1036 H 0.83146 0.10006 0.14437 0.0
H1037 H 0.87452 0.0741 0.10696 0.0
H1038 H 0.85774 0.04105 0.11276 0.0
H1039 H 0.81434 0.0668 0.14972 0.0
C1040 C 0.70139 0.98152 0.8534 0.0
C1041 C 0.68195 0.9826 0.86125 0.0
C1042 C 0.6704 0.94983 0.84711 0.0
C1043 C 0.66662 0.96681 0.85827 0.0
C1044 C 0.69003 0.94868 0.83957 0.0
C1045 C 0.70544 0.96441 0.84276 0.0
U1046 U 0.71426 0.03633 0.86398 0.0
O1047 O 0.74165 0.05365 0.8778 0.0
O1048 O 0.73185 0.05877 0.84665 0.0
C1049 C 0.74594 0.06284 0.8612 0.0
C1050 C 0.71675 0.99885 0.85469 0.0
C1051 C 0.76748 0.06363 0.85549 0.0
C1052 C 0.80008 0.0491 0.85332 0.0
C1053 C 0.77908 0.04721 0.85733 0.0
C1054 C 0.79768 0.08347 0.84474 0.0
C1055 C 0.80969 0.06741 0.8474 0.0
C1056 C 0.77681 0.08158 0.84877 0.0
C1057 C 0.67073 0.0665 0.87999 0.0
C1058 C 0.66832 0.10164 0.87449 0.0
C1059 C 0.64497 0.0838 0.8964 0.0
C1060 C 0.65445 0.06645 0.89289 0.0
C1061 C 0.65144 0.10144 0.88681 0.0
C1062 C 0.67801 0.08434 0.87124 0.0
C1063 C 0.67896 0.04762 0.87487 0.0
O1064 O 0.71355 0.01233 0.84136 0.0
O1065 O 0.72147 0.00645 0.87273 0.0
O1066 O 0.69289 0.04162 0.88762 0.0
O1067 O 0.68349 0.04533 0.85613 0.0
H1068 H 0.6785 0.99583 0.86932 0.0
H1069 H 0.65166 0.96811 0.86427 0.0
H1070 H 0.69346 0.93567 0.83113 0.0
H1071 H 0.72035 0.96341 0.83654 0.0
H1072 H 0.80889 0.03645 0.85549 0.0
H1073 H 0.77206 0.03315 0.86235 0.0
H1074 H 0.80453 0.09775 0.84011 0.0
H1075 H 0.76805 0.09435 0.84714 0.0
H1076 H 0.6737 0.11504 0.86699 0.0
H1077 H 0.63191 0.08315 0.90584 0.0
H1078 H 0.64864 0.05283 0.89977 0.0
H1079 H 0.69072 0.08473 0.86137 0.0
C1080 C 0.62057 0.75374 0.93134 0.0
C1081 C 0.62736 0.75392 0.91179 0.0
C1082 C 0.62311 0.78918 0.90984 0.0
C1083 C 0.62863 0.77148 0.90113 0.0
C1084 C 0.61646 0.78895 0.9295 0.0
C1085 C 0.61519 0.77134 0.94016 0.0
U1086 U 0.62527 0.69905 0.93083 0.0
O1087 O 0.60595 0.6736 0.9419 0.0
O1088 O 0.63835 0.67939 0.95281 0.0
C1089 C 0.62073 0.66843 0.95419 0.0
C1090 C 0.61887 0.73511 0.94226 0.0
C1091 C 0.61464 0.66321 0.97441 0.0
C1092 C 0.61072 0.6713 0.00945 0.0
C1093 C 0.61633 0.67716 0.99034 0.0
C1094 C 0.60131 0.63776 0.99666 0.0
C1095 C 0.60311 0.65152 0.01275 0.0
C1096 C 0.60713 0.64354 0.97773 0.0
C1097 C 0.64224 0.67754 0.88157 0.0
C1098 C 0.64462 0.64239 0.87497 0.0
C1099 C 0.66086 0.66698 0.85346 0.0
C1100 C 0.65351 0.68209 0.86475 0.0
C1101 C 0.6567 0.64706 0.85861 0.0
C1102 C 0.63758 0.6576 0.88655 0.0
C1103 C 0.6366 0.69391 0.89422 0.0
O1104 O 0.60397 0.72191 0.93543 0.0
O1105 O 0.63645 0.72746 0.94593 0.0
O1106 O 0.64968 0.69917 0.90933 0.0
O1107 O 0.61721 0.69311 0.89892 0.0
H1108 H 0.63159 0.74043 0.90476 0.0
H1109 H 0.63389 0.77115 0.88606 0.0
H1110 H 0.61218 0.80236 0.93665 0.0
H1111 H 0.60995 0.77144 0.95524 0.0
H1112 H 0.61216 0.68226 0.02156 0.0
H1113 H 0.62202 0.69246 0.98804 0.0
H1114 H 0.59564 0.6224 0.99874 0.0
H1115 H 0.6058 0.63257 0.96562 0.0
H1116 H 0.64156 0.62712 0.87937 0.0
H1117 H 0.67022 0.67087 0.84095 0.0
H1118 H 0.65721 0.6974 0.86073 0.0
H1119 H 0.62902 0.65387 0.89962 0.0
C1120 C 0.97744 0.1106 0.76346 0.0
C1121 C 0.98238 0.107 0.78359 0.0
C1122 C 0.94592 0.10417 0.79066 0.0
C1123 C 0.96674 0.10369 0.79706 0.0
C1124 C 0.94111 0.10813 0.77053 0.0
C1125 C 0.95675 0.11123 0.75704 0.0
U1126 U 0.03392 0.12139 0.75305 0.0
O1127 O 0.05365 0.10781 0.73227 0.0
O1128 O 0.04904 0.1395 0.72992 0.0
C1129 C 0.05688 0.12409 0.72206 0.0
C1130 C 0.99374 0.11363 0.7491 0.0
C1131 C 0.05447 0.12142 0.70028 0.0
C1132 C 0.04157 0.10142 0.67107 0.0
C1133 C 0.04073 0.10616 0.69137 0.0
C1134 C 0.06851 0.1283 0.66808 0.0
C1135 C 0.05594 0.11205 0.65941 0.0
C1136 C 0.06787 0.13284 0.6884 0.0
C1137 C 0.07272 0.12867 0.79778 0.0
C1138 C 0.10999 0.12911 0.79589 0.0
C1139 C 0.09498 0.13629 0.82732 0.0
C1140 C 0.0753 0.13351 0.81813 0.0
C1141 C 0.1125 0.13404 0.81638 0.0
C1142 C 0.09013 0.1266 0.78657 0.0
C1143 C 0.05164 0.12532 0.78894 0.0
O1144 O 0.003 0.13174 0.74886 0.0
O1145 O 0.00663 0.09981 0.74871 0.0
O1146 O 0.04694 0.10804 0.77976 0.0
O1147 O 0.04477 0.14027 0.77926 0.0
H1148 H 0.99832 0.10661 0.78884 0.0
H1149 H 0.97096 0.10077 0.81246 0.0
H1150 H 0.92523 0.1085 0.76512 0.0
H1151 H 0.95267 0.11402 0.74157 0.0
H1152 H 0.0315 0.08902 0.66468 0.0
H1153 H 0.03008 0.0973 0.70027 0.0
H1154 H 0.07968 0.13683 0.65944 0.0
H1155 H 0.07854 0.14468 0.69503 0.0
H1156 H 0.12329 0.12749 0.78713 0.0
H1157 H 0.09646 0.13995 0.84316 0.0
H1158 H 0.06204 0.13505 0.82699 0.0
H1159 H 0.08833 0.12291 0.77075 0.0
C1160 C 0.86532 0.24931 0.44682 0.0
C1161 C 0.85803 0.24476 0.42706 0.0
C1162 C 0.87292 0.21314 0.4284 0.0
C1163 C 0.86164 0.22672 0.41797 0.0
C1164 C 0.88001 0.21771 0.44824 0.0
C1165 C 0.87618 0.23564 0.45739 0.0
U1166 U 0.85731 0.30293 0.43948 0.0
O1167 O 0.84261 0.32495 0.45723 0.0
O1168 O 0.87544 0.33007 0.451 0.0
C1169 C 0.85999 0.33638 0.4604 0.0
C1170 C 0.86359 0.26904 0.45572 0.0
C1171 C 0.86513 0.34378 0.48096 0.0
C1172 C 0.87421 0.33858 0.51595 0.0
C1173 C 0.86759 0.3309 0.49688 0.0
C1174 C 0.87584 0.37195 0.50324 0.0
C1175 C 0.87876 0.35919 0.5192 0.0
C1176 C 0.869 0.3643 0.48435 0.0
C1177 C 0.84989 0.31954 0.3859 0.0
C1178 C 0.86112 0.35254 0.37477 0.0
C1179 C 0.8386 0.33005 0.35305 0.0
C1180 C 0.83867 0.31555 0.36766 0.0
C1181 C 0.85015 0.34852 0.35639 0.0
C1182 C 0.86079 0.33827 0.3895 0.0
C1183 C 0.85124 0.30379 0.40056 0.0
O1184 O 0.87862 0.28236 0.45148 0.0
O1185 O 0.84523 0.27565 0.45403 0.0
O1186 O 0.83601 0.3013 0.41271 0.0
O1187 O 0.8695 0.30339 0.40964 0.0
H1188 H 0.8499 0.25532 0.41855 0.0
H1189 H 0.856 0.22359 0.40266 0.0
H1190 H 0.88856 0.20744 0.45671 0.0
H1191 H 0.88209 0.23903 0.47258 0.0
H1192 H 0.87631 0.3284 0.52797 0.0
H1193 H 0.86479 0.31497 0.49447 0.0
H1194 H 0.87897 0.38789 0.50532 0.0
H1195 H 0.86717 0.37445 0.47222 0.0
H1196 H 0.86979 0.36683 0.37784 0.0
H1197 H 0.82991 0.3267 0.33902 0.0
H1198 H 0.83019 0.30117 0.36464 0.0
H1199 H 0.86939 0.34173 0.40357 0.0
C1200 C 0.46276 0.88933 0.75837 0.0
C1201 C 0.46477 0.89542 0.77857 0.0
C1202 C 0.42736 0.89336 0.7803 0.0
C1203 C 0.44725 0.89754 0.78939 0.0
C1204 C 0.42542 0.88709 0.7601 0.0
C1205 C 0.44299 0.88516 0.74922 0.0
U1206 U 0.51952 0.882 0.7584 0.0
O1207 O 0.53666 0.86224 0.74039 0.0
O1208 O 0.54485 0.89456 0.74057 0.0
C1209 C 0.54843 0.87708 0.73332 0.0
C1210 C 0.48121 0.88668 0.74706 0.0
C1211 C 0.55321 0.87606 0.71208 0.0
C1212 C 0.5482 0.86142 0.6785 0.0
C1213 C 0.5415 0.86348 0.69796 0.0
C1214 C 0.57796 0.88477 0.68706 0.0
C1215 C 0.56667 0.87189 0.67295 0.0
C1216 C 0.57131 0.88678 0.70636 0.0
C1217 C 0.54821 0.87898 0.80915 0.0
C1218 C 0.585 0.87539 0.81294 0.0
C1219 C 0.56323 0.86952 0.84092 0.0
C1220 C 0.54615 0.87418 0.82919 0.0
C1221 C 0.58276 0.86986 0.83287 0.0
C1222 C 0.56776 0.87975 0.80107 0.0
C1223 C 0.52956 0.88185 0.79675 0.0
O1224 O 0.49589 0.90144 0.74866 0.0
O1225 O 0.48825 0.86917 0.74866 0.0
O1226 O 0.52147 0.86602 0.78652 0.0
O1227 O 0.5301 0.89816 0.78639 0.0
H1228 H 0.47991 0.89848 0.78599 0.0
H1229 H 0.44929 0.90227 0.80494 0.0
H1230 H 0.41034 0.88379 0.75264 0.0
H1231 H 0.44113 0.88032 0.73368 0.0
H1232 H 0.53912 0.85144 0.66794 0.0
H1233 H 0.52749 0.85497 0.70205 0.0
H1234 H 0.59223 0.89309 0.68335 0.0
H1235 H 0.58069 0.89641 0.71705 0.0
H1236 H 0.59984 0.87554 0.80632 0.0
H1237 H 0.56112 0.86541 0.85627 0.0
H1238 H 0.53119 0.87352 0.83566 0.0
H1239 H 0.56959 0.88329 0.78552 0.0
C1240 C 0.95699 0.11362 0.22265 0.0
C1241 C 0.93576 0.11127 0.22574 0.0
C1242 C 0.92828 0.12523 0.19335 0.0
C1243 C 0.92157 0.11688 0.2112 0.0
C1244 C 0.94957 0.12767 0.19028 0.0
C1245 C 0.96382 0.12185 0.20484 0.0
U1246 U 0.96758 0.10894 0.27732 0.0
O1247 O 0.9836 0.0877 0.29555 0.0
O1248 O 0.99361 0.11965 0.29783 0.0
C1249 C 0.99699 0.10172 0.30357 0.0
C1250 C 0.97183 0.10893 0.23872 0.0
C1251 C 0.01875 0.09764 0.30512 0.0
C1252 C 0.05333 0.10133 0.29288 0.0
C1253 C 0.032 0.10184 0.28957 0.0
C1254 C 0.04814 0.09138 0.32693 0.0
C1255 C 0.06165 0.09684 0.31185 0.0
C1256 C 0.02687 0.09174 0.32355 0.0
C1257 C 0.92364 0.12253 0.30958 0.0
C1258 C 0.92701 0.13691 0.34323 0.0
C1259 C 0.8933 0.12461 0.32889 0.0
C1260 C 0.90229 0.11905 0.31136 0.0
C1261 C 0.90553 0.13382 0.34491 0.0
C1262 C 0.93602 0.13118 0.32577 0.0
C1263 C 0.93242 0.11866 0.29022 0.0
O1264 O 0.97855 0.12412 0.25056 0.0
O1265 O 0.9666 0.09268 0.24849 0.0
O1266 O 0.93582 0.1002 0.28611 0.0
O1267 O 0.94745 0.13168 0.28533 0.0
H1268 H 0.93014 0.10529 0.23954 0.0
H1269 H 0.90531 0.11486 0.21409 0.0
H1270 H 0.9552 0.13398 0.17663 0.0
H1271 H 0.98016 0.12401 0.2023 0.0
H1272 H 0.06334 0.10546 0.28091 0.0
H1273 H 0.02597 0.1064 0.27522 0.0
H1274 H 0.05403 0.08756 0.34159 0.0
H1275 H 0.01682 0.08837 0.33569 0.0
H1276 H 0.93684 0.14388 0.35538 0.0
H1277 H 0.8767 0.12239 0.32954 0.0
H1278 H 0.89248 0.11255 0.29897 0.0
H1279 H 0.95257 0.13397 0.32473 0.0
C1280 C 0.47336 0.1304 0.70211 0.0
C1281 C 0.46486 0.12625 0.68275 0.0
C1282 C 0.43028 0.12331 0.69503 0.0
C1283 C 0.44358 0.12262 0.67923 0.0
C1284 C 0.43873 0.12816 0.71444 0.0
C1285 C 0.46022 0.13152 0.71801 0.0
U1286 U 0.52766 0.13767 0.73079 0.0
O1287 O 0.52219 0.12679 0.76093 0.0
O1288 O 0.52566 0.15884 0.75587 0.0
C1289 C 0.52533 0.14473 0.76909 0.0
C1290 C 0.49595 0.13208 0.70497 0.0
C1291 C 0.54218 0.14715 0.78461 0.0
C1292 C 0.55493 0.15499 0.8188 0.0
C1293 C 0.53873 0.15341 0.80412 0.0
C1294 C 0.57815 0.14441 0.79441 0.0
C1295 C 0.57477 0.15026 0.81413 0.0
C1296 C 0.56205 0.14291 0.77983 0.0
C1297 C 0.57303 0.13129 0.69809 0.0
C1298 C 0.60205 0.12352 0.67902 0.0
C1299 C 0.56979 0.12981 0.66187 0.0
C1300 C 0.56112 0.13262 0.68027 0.0
C1301 C 0.59042 0.1254 0.66106 0.0
C1302 C 0.59344 0.12654 0.69737 0.0
C1303 C 0.56455 0.1351 0.7175 0.0
O1304 O 0.50391 0.1176 0.7145 0.0
O1305 O 0.50546 0.14973 0.7095 0.0
O1306 O 0.55349 0.12 0.72487 0.0
O1307 O 0.55623 0.15197 0.71931 0.0
H1308 H 0.47478 0.12535 0.6703 0.0
H1309 H 0.43754 0.11918 0.6641 0.0
H1310 H 0.4288 0.1288 0.72688 0.0
H1311 H 0.46656 0.13462 0.73309 0.0
H1312 H 0.55184 0.15956 0.83384 0.0
H1313 H 0.52351 0.15685 0.80803 0.0
H1314 H 0.59321 0.14072 0.79024 0.0
H1315 H 0.56506 0.13819 0.7648 0.0
H1316 H 0.61801 0.12028 0.67891 0.0
H1317 H 0.5604 0.13127 0.6483 0.0
H1318 H 0.54525 0.13613 0.68059 0.0
H1319 H 0.6028 0.12542 0.71103 0.0
C1320 C 0.10612 0.22804 0.92152 0.0
C1321 C 0.10253 0.23 0.90086 0.0
C1322 C 0.12394 0.20322 0.8943 0.0
C1323 C 0.11122 0.21758 0.88737 0.0
C1324 C 0.12709 0.20101 0.91499 0.0
C1325 C 0.11821 0.2133 0.92848 0.0
U1326 U 0.09567 0.28066 0.93045 0.0
O1327 O 0.07426 0.29551 0.94901 0.0
O1328 O 0.10781 0.30266 0.95344 0.0
C1329 C 0.08946 0.30553 0.9596 0.0
C1330 C 0.09992 0.24305 0.93563 0.0
C1331 C 0.08782 0.30657 0.98139 0.0
C1332 C 0.09912 0.29765 0.01482 0.0
C1333 C 0.09799 0.29402 0.99413 0.0
C1334 C 0.07898 0.3257 0.01024 0.0
C1335 C 0.09007 0.31386 0.02304 0.0
C1336 C 0.07792 0.32209 0.98961 0.0
C1337 C 0.10317 0.31433 0.88604 0.0
C1338 C 0.11283 0.34983 0.8895 0.0
C1339 C 0.10589 0.33442 0.85661 0.0
C1340 C 0.10162 0.31599 0.86527 0.0
C1341 C 0.11198 0.35147 0.86862 0.0
C1342 C 0.10836 0.3314 0.89815 0.0
C1343 C 0.10131 0.29458 0.89474 0.0
O1344 O 0.11462 0.25721 0.94038 0.0
O1345 O 0.08186 0.24973 0.93167 0.0
O1346 O 0.08301 0.2881 0.90069 0.0
O1347 O 0.11645 0.29139 0.90753 0.0
H1348 H 0.09356 0.24154 0.89514 0.0
H1349 H 0.10845 0.21964 0.87152 0.0
H1350 H 0.13663 0.18995 0.92077 0.0
H1351 H 0.12135 0.21176 0.94435 0.0
H1352 H 0.1076 0.28813 0.02429 0.0
H1353 H 0.10573 0.28192 0.98804 0.0
H1354 H 0.07171 0.33821 0.01605 0.0
H1355 H 0.07006 0.33198 0.98 0.0
H1356 H 0.11723 0.36271 0.89916 0.0
H1357 H 0.10498 0.33519 0.84048 0.0
H1358 H 0.09767 0.30293 0.85573 0.0
H1359 H 0.10957 0.33036 0.91426 0.0
C1360 C 0.36958 0.68696 0.51215 0.0
C1361 C 0.37873 0.66899 0.51175 0.0
C1362 C 0.37863 0.66784 0.54805 0.0
C1363 C 0.38328 0.65953 0.52959 0.0
C1364 C 0.36871 0.68543 0.54825 0.0
C1365 C 0.36433 0.69493 0.53044 0.0
U1366 U 0.36848 0.69345 0.4552 0.0
O1367 O 0.3833 0.71904 0.43958 0.0
O1368 O 0.34922 0.71157 0.43635 0.0
C1369 C 0.36542 0.72338 0.43182 0.0
C1370 C 0.3671 0.69852 0.49402 0.0
C1371 C 0.36367 0.74015 0.41854 0.0
C1372 C 0.36427 0.77564 0.41367 0.0
C1373 C 0.36635 0.75966 0.42627 0.0
C1374 C 0.35719 0.75272 0.3854 0.0
C1375 C 0.35962 0.77236 0.39309 0.0
C1376 C 0.35911 0.73674 0.39807 0.0
C1377 C 0.37684 0.6484 0.42089 0.0
C1378 C 0.38868 0.64885 0.38706 0.0
C1379 C 0.37802 0.6175 0.40206 0.0
C1380 C 0.37354 0.62764 0.41944 0.0
C1381 C 0.38593 0.62796 0.38579 0.0
C1382 C 0.38406 0.65901 0.40445 0.0
C1383 C 0.37417 0.6583 0.44021 0.0
O1384 O 0.38393 0.70218 0.4842 0.0
O1385 O 0.35059 0.69351 0.48233 0.0
O1386 O 0.3558 0.66399 0.44315 0.0
O1387 O 0.38932 0.6714 0.44669 0.0
H1388 H 0.3829 0.66262 0.49773 0.0
H1389 H 0.39077 0.64592 0.52894 0.0
H1390 H 0.36494 0.69222 0.5622 0.0
H1391 H 0.35736 0.70885 0.53101 0.0
H1392 H 0.36616 0.79056 0.42009 0.0
H1393 H 0.36981 0.76252 0.44209 0.0
H1394 H 0.35358 0.74966 0.36964 0.0
H1395 H 0.35704 0.72171 0.3919 0.0
H1396 H 0.39471 0.65729 0.37472 0.0
H1397 H 0.3762 0.60144 0.4018 0.0
H1398 H 0.36812 0.6192 0.43203 0.0
H1399 H 0.38666 0.67507 0.40528 0.0
C1400 C 0.73685 0.53397 0.89077 0.0
C1401 C 0.74762 0.55294 0.89206 0.0
C1402 C 0.7211 0.56571 0.87054 0.0
C1403 C 0.73978 0.56871 0.88206 0.0
C1404 C 0.70964 0.54702 0.87051 0.0
C1405 C 0.71753 0.53123 0.8805 0.0
U1406 U 0.7868 0.51217 0.90236 0.0
O1407 O 0.79596 0.48526 0.88812 0.0
O1408 O 0.79578 0.48738 0.92102 0.0
C1409 C 0.7985 0.47633 0.90514 0.0
C1410 C 0.74749 0.5166 0.8962 0.0
C1411 C 0.81392 0.46192 0.9059 0.0
C1412 C 0.81957 0.42717 0.90214 0.0
C1413 C 0.80644 0.44184 0.90547 0.0
C1414 C 0.84832 0.45246 0.90052 0.0
C1415 C 0.84054 0.4323 0.89907 0.0
C1416 C 0.83502 0.46725 0.90386 0.0
C1417 C 0.83165 0.55676 0.90281 0.0
C1418 C 0.86903 0.56052 0.90227 0.0
C1419 C 0.85015 0.58966 0.90316 0.0
C1420 C 0.83169 0.57747 0.90335 0.0
C1421 C 0.86909 0.58141 0.90272 0.0
C1422 C 0.85041 0.54825 0.90229 0.0
C1423 C 0.8115 0.54501 0.90188 0.0
O1424 O 0.75927 0.51109 0.88221 0.0
O1425 O 0.75653 0.51686 0.91419 0.0
O1426 O 0.8045 0.53748 0.91844 0.0
O1427 O 0.80606 0.53399 0.88578 0.0
H1428 H 0.76272 0.55524 0.8997 0.0
H1429 H 0.74888 0.58297 0.88252 0.0
H1430 H 0.69516 0.54427 0.86185 0.0
H1431 H 0.70917 0.51661 0.87914 0.0
H1432 H 0.813 0.41185 0.90106 0.0
H1433 H 0.79011 0.43749 0.9067 0.0
H1434 H 0.86445 0.45683 0.89836 0.0
H1435 H 0.84099 0.48275 0.90397 0.0
H1436 H 0.88337 0.55366 0.90184 0.0
H1437 H 0.84938 0.6055 0.90271 0.0
H1438 H 0.81729 0.58429 0.90351 0.0
H1439 H 0.85063 0.53226 0.90174 0.0
C1440 C 0.6852 0.47039 0.13789 0.0
C1441 C 0.66403 0.46849 0.13244 0.0
C1442 C 0.66187 0.43335 0.1399 0.0
C1443 C 0.65244 0.45012 0.13348 0.0
C1444 C 0.68322 0.43526 0.14483 0.0
C1445 C 0.69478 0.45367 0.14389 0.0
U1446 U 0.68652 0.52453 0.12663 0.0
O1447 O 0.69909 0.55119 0.14396 0.0
O1448 O 0.71001 0.54556 0.11402 0.0
C1449 C 0.71218 0.55677 0.13037 0.0
C1450 C 0.69704 0.48992 0.13794 0.0
C1451 C 0.73353 0.56337 0.13749 0.0
C1452 C 0.76128 0.56682 0.16335 0.0
C1453 C 0.7418 0.55824 0.15624 0.0
C1454 C 0.76475 0.58486 0.13266 0.0
C1455 C 0.77276 0.58053 0.15175 0.0
C1456 C 0.74532 0.57645 0.12568 0.0
C1457 C 0.63673 0.54213 0.10371 0.0
C1458 C 0.63355 0.57632 0.09456 0.0
C1459 C 0.60341 0.55233 0.09281 0.0
C1460 C 0.61559 0.53759 0.09932 0.0
C1461 C 0.61219 0.57192 0.09054 0.0
C1462 C 0.64573 0.56152 0.10118 0.0
C1463 C 0.64895 0.52656 0.11141 0.0
O1464 O 0.70067 0.49696 0.12019 0.0
O1465 O 0.69072 0.50311 0.15032 0.0
O1466 O 0.65372 0.52775 0.13069 0.0
O1467 O 0.66441 0.52242 0.10069 0.0
H1468 H 0.65642 0.4813 0.1277 0.0
H1469 H 0.63607 0.44913 0.12945 0.0
H1470 H 0.69097 0.42261 0.14979 0.0
H1471 H 0.71111 0.45491 0.1481 0.0
H1472 H 0.7671 0.5631 0.17806 0.0
H1473 H 0.73303 0.54808 0.16561 0.0
H1474 H 0.77314 0.59534 0.12332 0.0
H1475 H 0.73922 0.58065 0.11121 0.0
H1476 H 0.64077 0.59127 0.0931 0.0
H1477 H 0.58703 0.54842 0.08986 0.0
H1478 H 0.60843 0.52268 0.10121 0.0
H1479 H 0.66207 0.56526 0.10458 0.0
C1480 C 0.69187 0.52818 0.37436 0.0
C1481 C 0.6769 0.53906 0.38249 0.0
C1482 C 0.6887 0.56793 0.36361 0.0
C1483 C 0.67536 0.55876 0.37724 0.0
C1484 C 0.70408 0.55711 0.35582 0.0
C1485 C 0.70569 0.53736 0.3612 0.0
U1486 U 0.71334 0.47651 0.37441 0.0
O1487 O 0.73003 0.47668 0.34669 0.0
O1488 O 0.74713 0.48287 0.37544 0.0
C1489 C 0.7482 0.47889 0.35625 0.0
C1490 C 0.69177 0.50705 0.37909 0.0
C1491 C 0.76194 0.46366 0.35126 0.0
C1492 C 0.79006 0.45283 0.33253 0.0
C1493 C 0.77772 0.46773 0.33804 0.0
C1494 C 0.77099 0.42976 0.35361 0.0
C1495 C 0.78676 0.43365 0.34022 0.0
C1496 C 0.75867 0.4446 0.35902 0.0
C1497 C 0.67962 0.43417 0.3966 0.0
C1498 C 0.65884 0.40636 0.41011 0.0
C1499 C 0.64394 0.43731 0.40395 0.0
C1500 C 0.6628 0.44561 0.39736 0.0
C1501 C 0.6416 0.41743 0.40998 0.0
C1502 C 0.67767 0.41466 0.40338 0.0
C1503 C 0.69864 0.44187 0.38733 0.0
O1504 O 0.70592 0.50233 0.39233 0.0
O1505 O 0.68883 0.49447 0.3638 0.0
O1506 O 0.69602 0.44737 0.36878 0.0
O1507 O 0.71123 0.45452 0.39826 0.0
H1508 H 0.66608 0.53218 0.39263 0.0
H1509 H 0.66335 0.56662 0.3835 0.0
H1510 H 0.71469 0.56382 0.34539 0.0
H1511 H 0.71738 0.52915 0.35482 0.0
H1512 H 0.80211 0.45631 0.32224 0.0
H1513 H 0.78037 0.48236 0.33183 0.0
H1514 H 0.76799 0.41516 0.35981 0.0
H1515 H 0.74642 0.44114 0.36913 0.0
H1516 H 0.65757 0.39101 0.41455 0.0
H1517 H 0.63102 0.44628 0.40371 0.0
H1518 H 0.66406 0.46074 0.39219 0.0
H1519 H 0.69051 0.40562 0.40285 0.0
C1520 C 0.74857 0.4847 0.64454 0.0
C1521 C 0.75415 0.46527 0.64233 0.0
C1522 C 0.7211 0.45195 0.65403 0.0
C1523 C 0.74061 0.44908 0.6471 0.0
C1524 C 0.71529 0.47143 0.65578 0.0
C1525 C 0.729 0.48773 0.65114 0.0
U1526 U 0.80002 0.49952 0.62595 0.0
O1527 O 0.81269 0.52331 0.60677 0.0
O1528 O 0.82635 0.52003 0.63702 0.0
C1529 C 0.82648 0.53045 0.62067 0.0
C1530 C 0.76364 0.50144 0.64029 0.0
C1531 C 0.8292 0.55214 0.62359 0.0
C1532 C 0.8231 0.58232 0.64172 0.0
C1533 C 0.81814 0.562 0.63753 0.0
C1534 C 0.84944 0.58318 0.61737 0.0
C1535 C 0.83915 0.59302 0.632 0.0
C1536 C 0.84453 0.56293 0.61327 0.0
C1537 C 0.82811 0.45472 0.6102 0.0
C1538 C 0.86505 0.45459 0.60727 0.0
C1539 C 0.8421 0.42553 0.59686 0.0
C1540 C 0.82519 0.43537 0.60213 0.0
C1541 C 0.86225 0.43487 0.59978 0.0
C1542 C 0.84808 0.46447 0.61238 0.0
C1543 C 0.81025 0.46387 0.61738 0.0
O1544 O 0.78073 0.50238 0.65166 0.0
O1545 O 0.76703 0.50366 0.62125 0.0
O1546 O 0.80058 0.47453 0.60447 0.0
O1547 O 0.8128 0.47213 0.63533 0.0
H1548 H 0.76916 0.46264 0.63715 0.0
H1549 H 0.74552 0.43429 0.64544 0.0
H1550 H 0.70034 0.47409 0.6611 0.0
H1551 H 0.72444 0.50263 0.6529 0.0
H1552 H 0.81481 0.58946 0.65301 0.0
H1553 H 0.80621 0.55388 0.64562 0.0
H1554 H 0.86187 0.59092 0.60962 0.0
H1555 H 0.85325 0.55553 0.60249 0.0
H1556 H 0.88037 0.46222 0.60961 0.0
H1557 H 0.83939 0.41036 0.59121 0.0
H1558 H 0.80985 0.42765 0.60039 0.0
H1559 H 0.85056 0.47949 0.61854 0.0
C1560 C 0.48571 0.13911 0.31355 0.0
C1561 C 0.4665 0.14683 0.31399 0.0
C1562 C 0.46241 0.13516 0.34775 0.0
C1563 C 0.45497 0.14491 0.33095 0.0
C1564 C 0.48187 0.12775 0.34736 0.0
C1565 C 0.49342 0.1297 0.33034 0.0
U1566 U 0.48587 0.15062 0.25918 0.0
O1567 O 0.51023 0.16118 0.2393 0.0
O1568 O 0.49235 0.13222 0.23332 0.0
C1569 C 0.50757 0.14486 0.22809 0.0
C1570 C 0.49668 0.13939 0.29498 0.0
C1571 C 0.52607 0.13605 0.22192 0.0
C1572 C 0.56249 0.13098 0.22555 0.0
C1573 C 0.54501 0.13856 0.23304 0.0
C1574 C 0.54192 0.1177 0.19639 0.0
C1575 C 0.56106 0.12062 0.20706 0.0
C1576 C 0.52466 0.12546 0.20369 0.0
C1577 C 0.43979 0.17038 0.23394 0.0
C1578 C 0.43335 0.1641 0.19834 0.0
C1579 C 0.41065 0.18347 0.21659 0.0
C1580 C 0.42264 0.1814 0.23418 0.0
C1581 C 0.41552 0.17425 0.19866 0.0
C1582 C 0.44547 0.16232 0.21579 0.0
C1583 C 0.45064 0.16563 0.25266 0.0
O1584 O 0.48786 0.1271 0.28103 0.0
O1585 O 0.50246 0.15712 0.28832 0.0
O1586 O 0.46794 0.17669 0.25738 0.0
O1587 O 0.45221 0.14657 0.25478 0.0
H1588 H 0.46024 0.15397 0.30104 0.0
H1589 H 0.44006 0.15079 0.33076 0.0
H1590 H 0.48805 0.12021 0.36009 0.0
H1591 H 0.50816 0.12351 0.33013 0.0
H1592 H 0.57707 0.13329 0.23412 0.0
H1593 H 0.54637 0.14661 0.24724 0.0
H1594 H 0.54035 0.10991 0.18204 0.0
H1595 H 0.5102 0.12346 0.19488 0.0
H1596 H 0.43761 0.15704 0.18469 0.0
H1597 H 0.397 0.19139 0.21725 0.0
H1598 H 0.4181 0.18774 0.24807 0.0
H1599 H 0.45879 0.1539 0.21531 0.0
C1600 C 0.98518 0.91205 0.73939 0.0
C1601 C 0.99062 0.91727 0.72004 0.0
C1602 C 0.95447 0.91467 0.70884 0.0
C1603 C 0.97539 0.91876 0.70496 0.0
C1604 C 0.949 0.91006 0.72836 0.0
C1605 C 0.96429 0.90881 0.74355 0.0
U1606 U 0.03559 0.89151 0.748 0.0
O1607 O 0.06255 0.89876 0.76868 0.0
O1608 O 0.04565 0.86906 0.76865 0.0
C1609 C 0.06042 0.88138 0.77718 0.0
C1610 C 0.00115 0.90703 0.75414 0.0
C1611 C 0.06173 0.8818 0.79909 0.0
C1612 C 0.05114 0.89333 0.83126 0.0
C1613 C 0.04858 0.89237 0.81036 0.0
C1614 C 0.07955 0.87274 0.82962 0.0
C1615 C 0.06691 0.88377 0.84107 0.0
C1616 C 0.07696 0.87179 0.80886 0.0
C1617 C 0.05995 0.87539 0.70008 0.0
C1618 C 0.08506 0.85117 0.69846 0.0
C1619 C 0.07609 0.86925 0.66894 0.0
C1620 C 0.06244 0.87939 0.67987 0.0
C1621 C 0.08726 0.85482 0.67808 0.0
C1622 C 0.07163 0.8615 0.70944 0.0
C1623 C 0.04408 0.88472 0.71076 0.0
O1624 O 0.00291 0.88789 0.75512 0.0
O1625 O 0.01904 0.91779 0.75382 0.0
O1626 O 0.05013 0.90149 0.72045 0.0
O1627 O 0.03194 0.87253 0.72095 0.0
H1628 H 0.00667 0.91944 0.71637 0.0
H1629 H 0.98008 0.92229 0.69006 0.0
H1630 H 0.93297 0.90699 0.73179 0.0
H1631 H 0.95982 0.90452 0.75832 0.0
H1632 H 0.04119 0.90198 0.83965 0.0
H1633 H 0.03666 0.90014 0.80299 0.0
H1634 H 0.09178 0.86515 0.83667 0.0
H1635 H 0.08717 0.8635 0.80037 0.0
H1636 H 0.09363 0.84021 0.70587 0.0
H1637 H 0.07727 0.87212 0.65319 0.0
H1638 H 0.05343 0.88999 0.67241 0.0
H1639 H 0.06996 0.85828 0.72507 0.0
C1640 C 0.51964 0.91548 0.27396 0.0
C1641 C 0.51865 0.91142 0.29432 0.0
C1642 C 0.55603 0.9117 0.2974 0.0
C1643 C 0.53668 0.9096 0.30596 0.0
C1644 C 0.557 0.91661 0.27716 0.0
C1645 C 0.5389 0.91844 0.26551 0.0
U1646 U 0.462 0.90388 0.26843 0.0
O1647 O 0.43775 0.91749 0.25097 0.0
O1648 O 0.44293 0.88627 0.24535 0.0
C1649 C 0.43294 0.90139 0.23977 0.0
C1650 C 0.5006 0.9146 0.26125 0.0
C1651 C 0.43084 0.90433 0.21814 0.0
C1652 C 0.44511 0.90782 0.18537 0.0
C1653 C 0.44794 0.9058 0.2061 0.0
C1654 C 0.40822 0.90729 0.18881 0.0
C1655 C 0.42517 0.90854 0.17654 0.0
C1656 C 0.41104 0.90515 0.20937 0.0
C1657 C 0.4341 0.88596 0.31479 0.0
C1658 C 0.4026 0.8637 0.31471 0.0
C1659 C 0.41579 0.88093 0.34535 0.0
C1660 C 0.43227 0.8901 0.33518 0.0
C1661 C 0.40106 0.86731 0.33528 0.0
C1662 C 0.41886 0.87306 0.30451 0.0
C1663 C 0.45263 0.894 0.30481 0.0
O1664 O 0.49176 0.89652 0.25782 0.0
O1665 O 0.48746 0.92739 0.26588 0.0
O1666 O 0.45261 0.91225 0.29842 0.0
O1667 O 0.45987 0.88183 0.29195 0.0
H1668 H 0.50386 0.90895 0.30105 0.0
H1669 H 0.53535 0.90583 0.32149 0.0
H1670 H 0.57166 0.91834 0.27013 0.0
H1671 H 0.5399 0.92148 0.24977 0.0
H1672 H 0.45848 0.90891 0.17633 0.0
H1673 H 0.46338 0.90524 0.21268 0.0
H1674 H 0.39265 0.90776 0.18254 0.0
H1675 H 0.39768 0.904 0.21844 0.0
H1676 H 0.39134 0.85342 0.30652 0.0
H1677 H 0.41511 0.88384 0.36123 0.0
H1678 H 0.4439 0.89999 0.34337 0.0
H1679 H 0.41984 0.86977 0.28873 0.0
C1680 C 0.8327 0.75886 0.0499 0.0
C1681 C 0.82767 0.76014 0.06996 0.0
C1682 C 0.83776 0.79568 0.07076 0.0
C1683 C 0.8301 0.77838 0.08027 0.0
C1684 C 0.84174 0.7945 0.05033 0.0
C1685 C 0.83929 0.77617 0.04 0.0
U1686 U 0.83406 0.70458 0.05699 0.0
O1687 O 0.82227 0.67782 0.03926 0.0
O1688 O 0.8555 0.6837 0.04705 0.0
C1689 C 0.84085 0.67212 0.0374 0.0
C1690 C 0.83387 0.73926 0.04046 0.0
C1691 C 0.84588 0.66499 0.01761 0.0
C1692 C 0.84733 0.66782 0.98162 0.0
C1693 C 0.84191 0.67533 1.0001 0.0
C1694 C 0.8609 0.63995 0.99824 0.0
C1695 C 0.85695 0.65006 0.98059 0.0
C1696 C 0.85536 0.64732 0.01652 0.0
C1697 C 0.83128 0.6869 0.11031 0.0
C1698 C 0.84571 0.65702 0.12161 0.0
C1699 C 0.82393 0.6742 0.14307 0.0
C1700 C 0.82155 0.68832 0.12839 0.0
C1701 C 0.83632 0.6586 0.13994 0.0
C1702 C 0.84308 0.67096 0.10685 0.0
C1703 C 0.82989 0.70257 0.0956 0.0
O1704 O 0.8509 0.73125 0.04553 0.0
O1705 O 0.81719 0.72676 0.04112 0.0
O1706 O 0.81412 0.70017 0.08252 0.0
O1707 O 0.84736 0.70844 0.0876 0.0
H1708 H 0.82278 0.74686 0.07791 0.0
H1709 H 0.82686 0.77874 0.09596 0.0
H1710 H 0.84765 0.80755 0.04258 0.0
H1711 H 0.84343 0.77539 0.02457 0.0
H1712 H 0.84421 0.67597 0.96824 0.0
H1713 H 0.83472 0.68912 0.00074 0.0
H1714 H 0.86821 0.62622 0.99797 0.0
H1715 H 0.85856 0.6392 0.02991 0.0
H1716 H 0.85504 0.64495 0.11862 0.0
H1717 H 0.81639 0.67571 0.15699 0.0
H1718 H 0.81235 0.70051 0.13126 0.0
H1719 H 0.85055 0.6695 0.09288 0.0
C1720 C 0.59371 0.30295 0.5064 0.0
C1721 C 0.59209 0.32308 0.51096 0.0
C1722 C 0.59047 0.33047 0.47553 0.0
C1723 C 0.59041 0.3367 0.49567 0.0
C1724 C 0.59202 0.31025 0.47106 0.0
C1725 C 0.59363 0.29662 0.48638 0.0
U1726 U 0.60715 0.29499 0.56049 0.0
O1727 O 0.59547 0.27335 0.58228 0.0
O1728 O 0.62822 0.27563 0.57528 0.0
C1729 C 0.61357 0.26657 0.5855 0.0
C1730 C 0.59673 0.28886 0.5225 0.0
C1731 C 0.6138 0.245 0.58755 0.0
C1732 C 0.60686 0.21076 0.57539 0.0
C1733 C 0.60679 0.23124 0.57219 0.0
C1734 C 0.62108 0.2179 0.6091 0.0
C1735 C 0.61385 0.20391 0.594 0.0
C1736 C 0.62105 0.23817 0.60588 0.0
C1737 C 0.62002 0.34241 0.59278 0.0
C1738 C 0.64437 0.34726 0.62144 0.0
C1739 C 0.62076 0.37205 0.61395 0.0
C1740 C 0.61234 0.36053 0.59749 0.0
C1741 C 0.63719 0.36573 0.62572 0.0
C1742 C 0.63567 0.33555 0.60522 0.0
C1743 C 0.61286 0.33187 0.57396 0.0
O1744 O 0.61584 0.28923 0.52978 0.0
O1745 O 0.58314 0.28845 0.53642 0.0
O1746 O 0.59489 0.32128 0.57386 0.0
O1747 O 0.62692 0.3229 0.56483 0.0
H1748 H 0.59237 0.32829 0.52636 0.0
H1749 H 0.58928 0.35214 0.49966 0.0
H1750 H 0.5921 0.30495 0.45572 0.0
H1751 H 0.59505 0.28118 0.4826 0.0
H1752 H 0.60112 0.20034 0.56349 0.0
H1753 H 0.60112 0.2363 0.55792 0.0
H1754 H 0.62661 0.21322 0.62358 0.0
H1755 H 0.62654 0.24859 0.61789 0.0
H1756 H 0.65689 0.34202 0.63048 0.0
H1757 H 0.61508 0.3863 0.61693 0.0
H1758 H 0.6003 0.36607 0.58804 0.0
H1759 H 0.64169 0.3215 0.60198 0.0
C1760 C 0.2603 0.48053 0.13018 0.0
C1761 C 0.2637 0.46106 0.13545 0.0
C1762 C 0.30039 0.4681 0.13043 0.0
C1763 C 0.28367 0.45494 0.13577 0.0
C1764 C 0.29691 0.48762 0.12543 0.0
C1765 C 0.27706 0.49379 0.12542 0.0
U1766 U 0.20226 0.46906 0.12082 0.0
O1767 O 0.17623 0.48231 0.13393 0.0
O1768 O 0.18044 0.48398 0.10171 0.0
C1769 C 0.16987 0.4893 0.11678 0.0
C1770 C 0.23937 0.48696 0.12834 0.0
C1771 C 0.16479 0.51004 0.11687 0.0
C1772 C 0.17345 0.54536 0.1238 0.0
C1773 C 0.17873 0.52573 0.12459 0.0
C1774 C 0.14039 0.53368 0.10757 0.0
C1775 C 0.15423 0.54954 0.11518 0.0
C1776 C 0.14564 0.51416 0.10843 0.0
C1777 C 0.17939 0.41582 0.11072 0.0
C1778 C 0.14232 0.40753 0.10746 0.0
C1779 C 0.16533 0.38234 0.10067 0.0
C1780 C 0.18233 0.39627 0.10504 0.0
C1781 C 0.14512 0.38777 0.10207 0.0
C1782 C 0.15929 0.42144 0.11165 0.0
C1783 C 0.19728 0.43029 0.1156 0.0
O1784 O 0.23053 0.48495 0.1103 0.0
O1785 O 0.22689 0.48133 0.14244 0.0
O1786 O 0.19746 0.43922 0.13322 0.0
O1787 O 0.20229 0.44253 0.10129 0.0
H1788 H 0.25091 0.45053 0.13901 0.0
H1789 H 0.28593 0.43982 0.13971 0.0
H1790 H 0.30955 0.49815 0.12152 0.0
H1791 H 0.27472 0.50886 0.12132 0.0
H1792 H 0.18446 0.55723 0.12979 0.0
H1793 H 0.19366 0.52282 0.13107 0.0
H1794 H 0.12547 0.53632 0.10088 0.0
H1795 H 0.13472 0.50223 0.10235 0.0
H1796 H 0.12699 0.41224 0.10863 0.0
H1797 H 0.16802 0.36723 0.0967 0.0
H1798 H 0.19777 0.39172 0.10417 0.0
H1799 H 0.15673 0.43653 0.11585 0.0
C1800 C 0.30492 0.51452 0.89708 0.0
C1801 C 0.32557 0.51446 0.90415 0.0
C1802 C 0.33349 0.54742 0.8912 0.0
C1803 C 0.33971 0.53089 0.90141 0.0
C1804 C 0.31262 0.54778 0.88499 0.0
C1805 C 0.29843 0.53146 0.88798 0.0
U1806 U 0.30042 0.45922 0.8945 0.0
O1807 O 0.27834 0.43588 0.90567 0.0
O1808 O 0.28267 0.43808 0.87347 0.0
C1809 C 0.27188 0.42957 0.88754 0.0
C1810 C 0.29125 0.496 0.896 0.0
C1811 C 0.24942 0.42733 0.8832 0.0
C1812 C 0.21556 0.43961 0.88417 0.0
C1813 C 0.23677 0.44179 0.88932 0.0
C1814 C 0.21957 0.40874 0.86648 0.0
C1815 C 0.20679 0.42313 0.87254 0.0
C1816 C 0.24065 0.41078 0.87186 0.0
C1817 C 0.35294 0.43722 0.89598 0.0
C1818 C 0.35948 0.40475 0.88306 0.0
C1819 C 0.38679 0.42548 0.90123 0.0
C1820 C 0.37335 0.44013 0.9038 0.0
C1821 C 0.38001 0.40768 0.8908 0.0
C1822 C 0.34599 0.41939 0.88574 0.0
C1823 C 0.33974 0.45354 0.89748 0.0
O1824 O 0.29213 0.48591 0.87919 0.0
O1825 O 0.29168 0.48486 0.91186 0.0
O1826 O 0.32811 0.45357 0.91296 0.0
O1827 O 0.3301 0.45794 0.88073 0.0
H1828 H 0.33097 0.50136 0.91092 0.0
H1829 H 0.35569 0.53023 0.90637 0.0
H1830 H 0.30736 0.56047 0.87733 0.0
H1831 H 0.28261 0.53166 0.88227 0.0
H1832 H 0.20611 0.45099 0.88897 0.0
H1833 H 0.2433 0.45482 0.8979 0.0
H1834 H 0.21326 0.39582 0.85763 0.0
H1835 H 0.25019 0.39952 0.86693 0.0
H1836 H 0.35386 0.39116 0.87495 0.0
H1837 H 0.40266 0.4284 0.90683 0.0
H1838 H 0.37902 0.45393 0.91152 0.0
H1839 H 0.33027 0.41695 0.87952 0.0
C1840 C 0.2946 0.46051 0.6435 0.0
C1841 C 0.31452 0.46419 0.63651 0.0
C1842 C 0.31859 0.42875 0.63626 0.0
C1843 C 0.32641 0.44843 0.63286 0.0
C1844 C 0.29885 0.42525 0.64384 0.0
C1845 C 0.28694 0.44101 0.64737 0.0
U1846 U 0.28848 0.51552 0.64401 0.0
O1847 O 0.26491 0.53258 0.63017 0.0
O1848 O 0.27048 0.53402 0.66278 0.0
C1849 C 0.25909 0.53918 0.64736 0.0
C1850 C 0.28149 0.47683 0.64606 0.0
C1851 C 0.23666 0.53823 0.64959 0.0
C1852 C 0.20175 0.52506 0.63913 0.0
C1853 C 0.22304 0.52375 0.63932 0.0
C1854 C 0.20736 0.55455 0.66054 0.0
C1855 C 0.19373 0.54071 0.64939 0.0
C1856 C 0.22865 0.55337 0.66052 0.0
C1857 C 0.33522 0.55109 0.63329 0.0
C1858 C 0.33737 0.58692 0.63834 0.0
C1859 C 0.36156 0.57216 0.61755 0.0
C1860 C 0.35208 0.55331 0.62112 0.0
C1861 C 0.35448 0.58913 0.62631 0.0
C1862 C 0.32765 0.56801 0.64165 0.0
C1863 C 0.3256 0.53102 0.63667 0.0
O1864 O 0.28624 0.48849 0.66186 0.0
O1865 O 0.27774 0.48664 0.62977 0.0
O1866 O 0.31205 0.52391 0.6226 0.0
O1867 O 0.31964 0.52749 0.65483 0.0
H1868 H 0.32071 0.47921 0.63352 0.0
H1869 H 0.34157 0.45165 0.62711 0.0
H1870 H 0.29237 0.41029 0.6466 0.0
H1871 H 0.2716 0.43793 0.65279 0.0
H1872 H 0.19159 0.51404 0.63061 0.0
H1873 H 0.22887 0.51186 0.63086 0.0
H1874 H 0.20164 0.56675 0.66862 0.0
H1875 H 0.23892 0.56472 0.66848 0.0
H1876 H 0.33161 0.59976 0.64528 0.0
H1877 H 0.37488 0.57338 0.60844 0.0
H1878 H 0.35803 0.54041 0.61448 0.0
H1879 H 0.31442 0.56657 0.65088 0.0
C1880 C 0.26044 0.5311 0.34616 0.0
C1881 C 0.26207 0.55141 0.3419 0.0
C1882 C 0.29864 0.55404 0.35148 0.0
C1883 C 0.28108 0.56275 0.34434 0.0
C1884 C 0.29714 0.53354 0.35496 0.0
C1885 C 0.27815 0.52213 0.35222 0.0
U1886 U 0.20445 0.53227 0.35549 0.0
O1887 O 0.17622 0.51581 0.34216 0.0
O1888 O 0.18414 0.51368 0.37422 0.0
C1889 C 0.1719 0.50696 0.35895 0.0
C1890 C 0.24006 0.52006 0.34719 0.0
C1891 C 0.16759 0.48528 0.35757 0.0
C1892 C 0.17785 0.45239 0.35007 0.0
C1893 C 0.18234 0.47307 0.35106 0.0
C1894 C 0.14398 0.45608 0.36228 0.0
C1895 C 0.15853 0.4437 0.35558 0.0
C1896 C 0.14849 0.47666 0.36328 0.0
C1897 C 0.18749 0.58406 0.36747 0.0
C1898 C 0.15713 0.59133 0.38495 0.0
C1899 C 0.17524 0.61683 0.36578 0.0
C1900 C 0.18947 0.60358 0.36072 0.0
C1901 C 0.15891 0.61084 0.37793 0.0
C1902 C 0.17122 0.57798 0.37962 0.0
C1903 C 0.20273 0.57049 0.36186 0.0
O1904 O 0.23303 0.51972 0.36522 0.0
O1905 O 0.22612 0.52389 0.3333 0.0
O1906 O 0.19967 0.56191 0.34406 0.0
O1907 O 0.20841 0.5584 0.37573 0.0
H1908 H 0.2485 0.5587 0.3375 0.0
H1909 H 0.28179 0.57851 0.34154 0.0
H1910 H 0.31052 0.52643 0.36024 0.0
H1911 H 0.27712 0.50651 0.3557 0.0
H1912 H 0.18935 0.44327 0.34477 0.0
H1913 H 0.19725 0.47954 0.3467 0.0
H1914 H 0.12898 0.4499 0.36668 0.0
H1915 H 0.137 0.48588 0.36848 0.0
H1916 H 0.14453 0.58623 0.39408 0.0
H1917 H 0.17699 0.63175 0.36013 0.0
H1918 H 0.20198 0.60854 0.3514 0.0
H1919 H 0.16936 0.56292 0.38491 0.0
O1920 O 0.12868 0.35579 0.09144 0.0
Cd1921 Cd 0.09954 0.33019 0.08516 0.0
O1922 O 0.10993 0.37681 0.10608 0.0
Cd1923 Cd 0.08205 0.35721 0.11058 0.0
O1924 O 0.06441 0.35657 0.1376 0.0
C1925 C 0.07276 0.36895 0.15078 0.0
O1926 O 0.08978 0.37972 0.1466 0.0
C1927 C 0.12701 0.3728 0.09935 0.0
C1928 C 0.09299 0.31909 0.04464 0.0
O1929 O 0.0844 0.3336 0.05218 0.0
O1930 O 0.10474 0.30975 0.05624 0.0
O1931 O 0.89157 0.87073 0.37457 0.0
Cd1932 Cd 0.92204 0.85206 0.37546 0.0
O1933 O 0.90168 0.89176 0.39942 0.0
Cd1934 Cd 0.92685 0.87554 0.41128 0.0
O1935 O 0.93658 0.86644 0.44114 0.0
C1936 C 0.92881 0.85021 0.44809 0.0
O1937 O 0.91661 0.83802 0.43631 0.0
C1938 C 0.88874 0.88589 0.38525 0.0
C1939 C 0.93285 0.84439 0.33638 0.0
O1940 O 0.91906 0.83307 0.34469 0.0
O1941 O 0.94189 0.85917 0.34665 0.0
O1942 O 0.37815 0.61148 0.60994 0.0
Cd1943 Cd 0.39819 0.64274 0.60308 0.0
O1944 O 0.36615 0.62185 0.63801 0.0
Cd1945 Cd 0.39209 0.64451 0.64228 0.0
O1946 O 0.41804 0.64085 0.66337 0.0
C1947 C 0.41274 0.63041 0.67816 0.0
O1948 O 0.39314 0.6242 0.67946 0.0
C1949 C 0.36619 0.60868 0.62426 0.0
C1950 C 0.38491 0.65876 0.56704 0.0
O1951 O 0.39787 0.64563 0.5674 0.0
O1952 O 0.37813 0.66427 0.58369 0.0
O1953 O 0.6277 0.12077 0.90253 0.0
Cd1954 Cd 0.60616 0.1481 0.90786 0.0
O1955 O 0.63885 0.13054 0.87349 0.0
Cd1956 Cd 0.61533 0.15114 0.86844 0.0
O1957 O 0.58931 0.15577 0.84765 0.0
C1958 C 0.59176 0.15049 0.82968 0.0
O1959 O 0.60941 0.14395 0.8253 0.0
C1960 C 0.63927 0.11878 0.88802 0.0
C1961 C 0.60075 0.15422 0.94864 0.0
O1962 O 0.58915 0.14117 0.93819 0.0
O1963 O 0.61488 0.16465 0.93981 0.0
O1964 O 0.13205 0.62215 0.39709 0.0
Cd1965 Cd 0.10585 0.64438 0.40583 0.0
O1966 O 0.13939 0.63763 0.36935 0.0
Cd1967 Cd 0.11207 0.65402 0.3681 0.0
O1968 O 0.08537 0.65708 0.34769 0.0
C1969 C 0.08843 0.65239 0.3297 0.0
O1970 O 0.10669 0.6472 0.32545 0.0
C1971 C 0.14298 0.62442 0.38193 0.0
C1972 C 0.10258 0.65017 0.44709 0.0
O1973 O 0.09273 0.63533 0.43754 0.0
O1974 O 0.11421 0.66232 0.4372 0.0
O1975 O 0.62943 0.85572 0.59269 0.0
Cd1976 Cd 0.60022 0.83016 0.58657 0.0
O1977 O 0.61088 0.87668 0.60769 0.0
Cd1978 Cd 0.58301 0.85718 0.61256 0.0
O1979 O 0.56588 0.85698 0.63992 0.0
C1980 C 0.5747 0.86938 0.65285 0.0
O1981 O 0.59175 0.87984 0.64821 0.0
C1982 C 0.62786 0.8727 0.60071 0.0
C1983 C 0.59365 0.81889 0.54609 0.0
O1984 O 0.58512 0.83348 0.55355 0.0
O1985 O 0.60534 0.80955 0.55775 0.0
O1986 O 0.392 0.38105 0.87214 0.0
Cd1987 Cd 0.41507 0.35452 0.87028 0.0
O1988 O 0.40893 0.38995 0.90029 0.0
Cd1989 Cd 0.41406 0.40421 0.92988 0.0
O1990 O 0.41887 0.39444 0.96035 0.0
C1991 C 0.42486 0.37712 0.96007 0.0
O1992 O 0.42805 0.3689 0.9427 0.0
C1993 C 0.3944 0.39245 0.88753 0.0
C1994 C 0.42651 0.34657 0.83169 0.0
O1995 O 0.4099 0.33804 0.83834 0.0
O1996 O 0.4377 0.35893 0.84331 0.0
O1997 O 0.87787 0.11224 0.109 0.0
Cd1998 Cd 0.89835 0.14346 0.10282 0.0
O1999 O 0.86621 0.12208 0.13744 0.0
Cd2000 Cd 0.8922 0.14465 0.14202 0.0
O2001 O 0.9182 0.14108 0.1631 0.0
C2002 C 0.9129 0.13088 0.17804 0.0
O2003 O 0.89327 0.12486 0.1795 0.0
C2004 C 0.86601 0.10921 0.12337 0.0
C2005 C 0.88615 0.16024 0.06681 0.0
O2006 O 0.89886 0.14689 0.06723 0.0
O2007 O 0.87906 0.16559 0.08338 0.0
O2008 O 0.18665 0.13569 0.34245 0.0
Cd2009 Cd 0.20555 0.11058 0.32726 0.0
O2010 O 0.15778 0.11607 0.34051 0.0
Cd2011 Cd 0.12436 0.10886 0.34116 0.0
O2012 O 0.09132 0.10114 0.33444 0.0
C2013 C 0.08422 0.09943 0.3164 0.0
O2014 O 0.09704 0.10202 0.30194 0.0
C2015 C 0.16752 0.13277 0.34543 0.0
C2016 C 0.22112 0.08532 0.35521 0.0
O2017 O 0.23187 0.10122 0.35047 0.0
O2018 O 0.203 0.08161 0.34689 0.0
O2019 O 0.1019 0.82484 0.67036 0.0
Cd2020 Cd 0.12688 0.80753 0.65236 0.0
O2021 O 0.11112 0.85062 0.65258 0.0
Cd2022 Cd 0.11402 0.88193 0.64502 0.0
O2023 O 0.12919 0.91131 0.63975 0.0
C2024 C 0.14877 0.9131 0.64163 0.0
O2025 O 0.15833 0.89742 0.64626 0.0
C2026 C 0.10049 0.84295 0.66635 0.0
C2027 C 0.11098 0.78006 0.62267 0.0
O2028 O 0.11321 0.77503 0.64093 0.0
O2029 O 0.11564 0.7983 0.61853 0.0
O2030 O 0.36809 0.87521 0.83901 0.0
Cd2031 Cd 0.37376 0.90055 0.81365 0.0
O2032 O 0.33492 0.86715 0.83181 0.0
Cd2033 Cd 0.33071 0.89481 0.81664 0.0
O2034 O 0.31362 0.92068 0.82172 0.0
C2035 C 0.30035 0.91816 0.83496 0.0
O2036 O 0.29812 0.90091 0.84366 0.0
C2037 C 0.35157 0.8641 0.84139 0.0
C2038 C 0.40881 0.89567 0.79183 0.0
O2039 O 0.41028 0.90499 0.80874 0.0
O2040 O 0.39081 0.88852 0.7852 0.0
O2041 O 0.38837 0.18648 0.17874 0.0
Cd2042 Cd 0.36624 0.1884 0.14871 0.0
O2043 O 0.40098 0.15919 0.16834 0.0
Cd2044 Cd 0.3776 0.1501 0.14464 0.0
O2045 O 0.36165 0.12278 0.13108 0.0
C2046 C 0.34667 0.11343 0.13945 0.0
O2047 O 0.33956 0.12132 0.15547 0.0
C2048 C 0.40121 0.17357 0.18087 0.0
C2049 C 0.38399 0.21725 0.12395 0.0
O2050 O 0.37233 0.2219 0.13781 0.0
O2051 O 0.38712 0.19893 0.12168 0.0
O2052 O 0.16678 0.88113 0.14434 0.0
Cd2053 Cd 0.1818 0.9021 0.17241 0.0
O2054 O 0.13677 0.88835 0.15408 0.0
Cd2055 Cd 0.10348 0.88264 0.15444 0.0
O2056 O 0.07667 0.87084 0.16982 0.0
C2057 C 0.08004 0.86724 0.18816 0.0
O2058 O 0.09884 0.87102 0.19616 0.0
C2059 C 0.14725 0.87911 0.14215 0.0
C2060 C 0.20725 0.93474 0.16066 0.0
O2061 O 0.21404 0.91771 0.16301 0.0
O2062 O 0.18823 0.93639 0.16375 0.0
O2063 O 0.37807 0.83849 0.33999 0.0
Cd2064 Cd 0.34856 0.82118 0.35584 0.0
O2065 O 0.37668 0.86332 0.36108 0.0
Cd2066 Cd 0.38145 0.89333 0.37427 0.0
O2067 O 0.3662 0.91705 0.38834 0.0
C2068 C 0.34841 0.91147 0.39431 0.0
O2069 O 0.34157 0.8926 0.39225 0.0
C2070 C 0.38476 0.85594 0.34609 0.0
C2071 C 0.35663 0.78931 0.37995 0.0
O2072 O 0.35211 0.78659 0.36121 0.0
O2073 O 0.35789 0.80712 0.3871 0.0
O2074 O 0.3553 0.13276 0.65548 0.0
Cd2075 Cd 0.36552 0.11022 0.68142 0.0
O2076 O 0.32625 0.13964 0.6683 0.0
Cd2077 Cd 0.32327 0.11231 0.68508 0.0
O2078 O 0.29782 0.08957 0.67743 0.0
C2079 C 0.29185 0.09003 0.65912 0.0
O2080 O 0.30223 0.10231 0.6475 0.0
C2081 C 0.33983 0.14289 0.6555 0.0
C2082 C 0.40782 0.11856 0.69096 0.0
O2083 O 0.40106 0.1076 0.6758 0.0
O2084 O 0.39458 0.12543 0.7021 0.0
O2085 O 0.14728 0.12637 0.8231 0.0
Cd2086 Cd 0.17962 0.12697 0.84373 0.0
O2087 O 0.13523 0.15007 0.84108 0.0
Cd2088 Cd 0.15923 0.16074 0.86315 0.0
O2089 O 0.14827 0.18035 0.88577 0.0
C2090 C 0.13385 0.19068 0.87999 0.0
O2091 O 0.12757 0.18982 0.86104 0.0
C2092 C 0.13297 0.13725 0.82687 0.0
C2093 C 0.18673 0.08897 0.85699 0.0
O2094 O 0.17534 0.10003 0.86643 0.0
O2095 O 0.19497 0.09587 0.84128 0.0
O2096 O 0.87813 0.33931 0.8392 0.0
Cd2097 Cd 0.8486 0.32137 0.85452 0.0
O2098 O 0.87724 0.36443 0.86016 0.0
Cd2099 Cd 0.88336 0.39484 0.87242 0.0
O2100 O 0.87078 0.42085 0.88534 0.0
C2101 C 0.85347 0.41659 0.89291 0.0
O2102 O 0.84602 0.39785 0.89298 0.0
C2103 C 0.8851 0.35672 0.84521 0.0
C2104 C 0.85714 0.28965 0.8787 0.0
O2105 O 0.85286 0.28683 0.85994 0.0
O2106 O 0.85786 0.30745 0.88582 0.0
O2107 O 0.85414 0.63307 0.15492 0.0
Cd2108 Cd 0.86453 0.61062 0.18086 0.0
O2109 O 0.82613 0.64114 0.1689 0.0
Cd2110 Cd 0.82322 0.61396 0.18593 0.0
O2111 O 0.79796 0.59109 0.17811 0.0
C2112 C 0.79227 0.59149 0.15972 0.0
O2113 O 0.80281 0.60378 0.14823 0.0
C2114 C 0.83913 0.64376 0.15546 0.0
C2115 C 0.90692 0.61877 0.19 0.0
O2116 O 0.89998 0.60774 0.17496 0.0
O2117 O 0.89383 0.6258 0.20121 0.0
O2118 O 0.64794 0.62599 0.32198 0.0
Cd2119 Cd 0.67916 0.62656 0.34421 0.0
O2120 O 0.63354 0.64766 0.34063 0.0
Cd2121 Cd 0.65598 0.65802 0.36432 0.0
O2122 O 0.64595 0.67773 0.38739 0.0
C2123 C 0.63195 0.68862 0.3818 0.0
O2124 O 0.62559 0.68809 0.36288 0.0
C2125 C 0.63277 0.63582 0.32562 0.0
C2126 C 0.68597 0.5884 0.35713 0.0
O2127 O 0.67404 0.59918 0.36623 0.0
O2128 O 0.69488 0.59565 0.34192 0.0
O2129 O 0.86664 0.37551 0.33923 0.0
Cd2130 Cd 0.87222 0.4008 0.31386 0.0
O2131 O 0.83384 0.36651 0.33112 0.0
Cd2132 Cd 0.82956 0.39415 0.31593 0.0
O2133 O 0.81264 0.4201 0.32108 0.0
C2134 C 0.79952 0.41765 0.33446 0.0
O2135 O 0.79736 0.40042 0.34323 0.0
C2136 C 0.85034 0.36394 0.34119 0.0
C2137 C 0.90676 0.39514 0.29163 0.0
O2138 O 0.90864 0.40454 0.3085 0.0
O2139 O 0.88858 0.38833 0.28522 0.0
O2140 O 0.68643 0.63492 0.846 0.0
Cd2141 Cd 0.70415 0.60957 0.82992 0.0
O2142 O 0.65769 0.61535 0.84229 0.0
Cd2143 Cd 0.62436 0.60789 0.84207 0.0
O2144 O 0.59154 0.60031 0.83451 0.0
C2145 C 0.58464 0.59916 0.8164 0.0
O2146 O 0.59757 0.60231 0.80211 0.0
C2147 C 0.66726 0.63171 0.84855 0.0
C2148 C 0.71467 0.58134 0.85718 0.0
O2149 O 0.72669 0.59711 0.85469 0.0
O2150 O 0.69755 0.57896 0.84678 0.0
O2151 O 0.90515 0.58738 0.89725 0.0
Cd2152 Cd 0.93487 0.61244 0.90148 0.0
O2153 O 0.89004 0.61274 0.90756 0.0
Cd2154 Cd 0.86791 0.63138 0.9201 0.0
O2155 O 0.85616 0.64767 0.94479 0.0
C2156 C 0.86309 0.64182 0.96145 0.0
O2157 O 0.87563 0.62769 0.96144 0.0
C2158 C 0.88873 0.59443 0.90233 0.0
C2159 C 0.9547 0.62248 0.86674 0.0
O2160 O 0.96108 0.60924 0.87831 0.0
O2161 O 0.93866 0.63079 0.87142 0.0
O2162 O 0.11498 0.10628 0.57129 0.0
Cd2163 Cd 0.09449 0.13327 0.56119 0.0
O2164 O 0.08613 0.09554 0.58417 0.0
Cd2165 Cd 0.06568 0.08003 0.60461 0.0
O2166 O 0.05375 0.08748 0.63317 0.0
C2167 C 0.05922 0.1053 0.63887 0.0
O2168 O 0.07026 0.11687 0.62709 0.0
C2169 C 0.10497 0.09337 0.58145 0.0
C2170 C 0.10277 0.14802 0.52374 0.0
O2171 O 0.11144 0.1567 0.53955 0.0
O2172 O 0.0904 0.13237 0.52572 0.0
O2173 O 0.61882 0.3903 0.4208 0.0
Cd2174 Cd 0.58571 0.37232 0.42859 0.0
O2175 O 0.605 0.4163 0.40857 0.0
Cd2176 Cd 0.57378 0.40181 0.40366 0.0
O2177 O 0.55933 0.39505 0.37387 0.0
C2178 C 0.57054 0.3857 0.3627 0.0
O2179 O 0.58779 0.37988 0.37051 0.0
C2180 C 0.62087 0.40777 0.41394 0.0
C2181 C 0.589 0.34497 0.45932 0.0
O2182 O 0.59022 0.3397 0.44098 0.0
O2183 O 0.58642 0.36319 0.46318 0.0
O2184 O 0.37775 0.90639 0.08834 0.0
Cd2185 Cd 0.40222 0.88414 0.07648 0.0
O2186 O 0.39813 0.92988 0.10483 0.0
Cd2187 Cd 0.42476 0.91343 0.11163 0.0
O2188 O 0.4356 0.90856 0.14252 0.0
C2189 C 0.42161 0.91078 0.15474 0.0
O2190 O 0.40345 0.91504 0.14761 0.0
C2191 C 0.38046 0.92325 0.09733 0.0
C2192 C 0.38695 0.86733 0.03944 0.0
O2193 O 0.39674 0.88466 0.04087 0.0
O2194 O 0.38457 0.85759 0.05549 0.0
O2195 O 0.87747 0.40662 0.58766 0.0
Cd2196 Cd 0.90199 0.38433 0.57601 0.0
O2197 O 0.89788 0.43026 0.60391 0.0
Cd2198 Cd 0.92453 0.41382 0.61067 0.0
O2199 O 0.93567 0.40891 0.64145 0.0
C2200 C 0.92201 0.41169 0.65388 0.0
O2201 O 0.90398 0.41654 0.647 0.0
C2202 C 0.88019 0.42356 0.59651 0.0
C2203 C 0.88693 0.36753 0.53891 0.0
O2204 O 0.89689 0.38479 0.54037 0.0
O2205 O 0.88427 0.35787 0.55496 0.0
O2206 O 0.40091 0.09836 0.39653 0.0
Cd2207 Cd 0.42568 0.12794 0.39844 0.0
O2208 O 0.37767 0.11783 0.40466 0.0
Cd2209 Cd 0.35012 0.12765 0.41734 0.0
O2210 O 0.34185 0.14355 0.44389 0.0
C2211 C 0.35442 0.14177 0.45867 0.0
O2212 O 0.36996 0.13102 0.45636 0.0
C2213 C 0.38245 0.10039 0.40093 0.0
C2214 C 0.44975 0.13254 0.36538 0.0
O2215 O 0.45582 0.12294 0.38051 0.0
O2216 O 0.43226 0.13973 0.3659 0.0
O2217 O 0.60666 0.60526 0.0819 0.0
Cd2218 Cd 0.58599 0.63176 0.07047 0.0
O2219 O 0.57933 0.58421 0.08584 0.0
Cd2220 Cd 0.55804 0.60699 0.08853 0.0
O2221 O 0.54927 0.61714 0.11779 0.0
C2222 C 0.56496 0.62184 0.12949 0.0
O2223 O 0.58337 0.62154 0.12238 0.0
C2224 C 0.59881 0.5878 0.08541 0.0
C2225 C 0.59708 0.64504 0.03278 0.0
O2226 O 0.58478 0.62935 0.03472 0.0
O2227 O 0.60418 0.65467 0.04867 0.0
O2228 O 0.11921 0.89116 0.92106 0.0
Cd2229 Cd 0.08608 0.8732 0.92885 0.0
O2230 O 0.10542 0.91713 0.9087 0.0
Cd2231 Cd 0.07422 0.90262 0.90373 0.0
O2232 O 0.06006 0.89568 0.87386 0.0
C2233 C 0.07143 0.88632 0.86287 0.0
O2234 O 0.08864 0.88062 0.87089 0.0
C2235 C 0.12128 0.9086 0.91415 0.0
C2236 C 0.08937 0.84577 0.95951 0.0
O2237 O 0.09058 0.84054 0.94116 0.0
O2238 O 0.08681 0.86398 0.96342 0.0
O2239 O 0.87019 0.92277 0.61324 0.0
Cd2240 Cd 0.86314 0.95254 0.63214 0.0
O2241 O 0.88261 0.91772 0.64315 0.0
Cd2242 Cd 0.89966 0.90553 0.66796 0.0
O2243 O 0.92083 0.90536 0.69399 0.0
C2244 C 0.93861 0.91443 0.69235 0.0
O2245 O 0.94304 0.92272 0.67534 0.0
C2246 C 0.87951 0.91177 0.62505 0.0
C2247 C 0.82261 0.96245 0.63074 0.0
O2248 O 0.83607 0.97104 0.61967 0.0
O2249 O 0.82812 0.9487 0.64213 0.0
O2250 O 0.90464 0.15501 0.37385 0.0
Cd2251 Cd 0.88312 0.15715 0.4027 0.0
O2252 O 0.87904 0.13229 0.36868 0.0
Cd2253 Cd 0.86069 0.10571 0.35728 0.0
O2254 O 0.84556 0.07677 0.36365 0.0
C2255 C 0.85047 0.06982 0.3805 0.0
O2256 O 0.86385 0.08041 0.39264 0.0
C2257 C 0.89594 0.14072 0.36303 0.0
C2258 C 0.87707 0.19417 0.41883 0.0
O2259 O 0.89112 0.184 0.42619 0.0
O2260 O 0.86638 0.18718 0.40328 0.0
O2261 O 0.623 0.07899 0.12643 0.0
Cd2262 Cd 0.62983 0.04899 0.1445 0.0
O2263 O 0.62305 0.09187 0.15639 0.0
Cd2264 Cd 0.61933 0.11072 0.18263 0.0
O2265 O 0.59732 0.12173 0.20247 0.0
C2266 C 0.57932 0.11345 0.19818 0.0
O2267 O 0.57691 0.0997 0.18391 0.0
C2268 C 0.62066 0.09393 0.13758 0.0
C2269 C 0.67164 0.04342 0.14817 0.0
O2270 O 0.65989 0.0346 0.1342 0.0
O2271 O 0.66363 0.05492 0.1604 0.0
O2272 O 0.59696 0.8497 0.85775 0.0
Cd2273 Cd 0.62802 0.84286 0.87739 0.0
O2274 O 0.61861 0.87078 0.84355 0.0
Cd2275 Cd 0.63082 0.89611 0.82685 0.0
O2276 O 0.65488 0.92085 0.82926 0.0
C2277 C 0.65392 0.93346 0.84341 0.0
O2278 O 0.63812 0.93163 0.85491 0.0
C2279 C 0.6002 0.86313 0.845 0.0
C2280 C 0.62445 0.80776 0.89848 0.0
O2281 O 0.6198 0.82409 0.90633 0.0
O2282 O 0.63047 0.80802 0.88056 0.0
O2283 O 0.89385 0.11468 0.85747 0.0
Cd2284 Cd 0.89723 0.0905 0.83027 0.0
O2285 O 0.88455 0.09002 0.87705 0.0
Cd2286 Cd 0.8763 0.06738 0.85372 0.0
O2287 O 0.84377 0.05659 0.84876 0.0
C2288 C 0.83234 0.07058 0.84579 0.0
O2289 O 0.84123 0.08867 0.84396 0.0
C2290 C 0.88941 0.10846 0.87467 0.0
C2291 C 0.92926 0.10006 0.8047 0.0
O2292 O 0.9108 0.10414 0.80026 0.0
O2293 O 0.93272 0.09184 0.82143 0.0
O2294 O 0.61722 0.11636 0.64074 0.0
Cd2295 Cd 0.63759 0.10895 0.61229 0.0
O2296 O 0.59195 0.13163 0.62641 0.0
Cd2297 Cd 0.60487 0.13934 0.59779 0.0
O2298 O 0.60819 0.16904 0.58498 0.0
C2299 C 0.61293 0.18245 0.59841 0.0
O2300 O 0.61612 0.17691 0.61689 0.0
C2301 C 0.60016 0.12402 0.64167 0.0
C2302 C 0.64929 0.07008 0.61462 0.0
O2303 O 0.66106 0.08479 0.62231 0.0
O2304 O 0.63225 0.07379 0.60578 0.0
O2305 O 0.6308 0.87991 0.36381 0.0
Cd2306 Cd 0.64379 0.90872 0.34509 0.0
O2307 O 0.613 0.86676 0.33727 0.0
Cd2308 Cd 0.6151 0.89323 0.31927 0.0
O2309 O 0.59203 0.90717 0.30124 0.0
C2310 C 0.57469 0.90704 0.30917 0.0
O2311 O 0.57305 0.90029 0.32732 0.0
C2312 C 0.61945 0.86552 0.35534 0.0
C2313 C 0.68293 0.92558 0.35877 0.0
O2314 O 0.66648 0.93238 0.36469 0.0
O2315 O 0.68092 0.91058 0.34663 0.0
O2316 O 0.87955 0.87154 0.1408 0.0
Cd2317 Cd 0.85167 0.87996 0.11757 0.0
O2318 O 0.89254 0.85333 0.1178 0.0
Cd2319 Cd 0.86716 0.8523 0.09529 0.0
O2320 O 0.85198 0.82955 0.07461 0.0
C2321 C 0.84361 0.81419 0.08267 0.0
O2322 O 0.84302 0.81404 0.10223 0.0
C2323 C 0.89358 0.86103 0.13531 0.0
C2324 C 0.83075 0.91216 0.12963 0.0
O2325 O 0.82434 0.8943 0.1338 0.0
O2326 O 0.84734 0.9149 0.12012 0.0
O2327 O 0.11655 0.61659 0.14031 0.0
Cd2328 Cd 0.13682 0.60912 0.11179 0.0
O2329 O 0.0914 0.63199 0.12593 0.0
Cd2330 Cd 0.10438 0.63964 0.09733 0.0
O2331 O 0.10782 0.66938 0.08459 0.0
C2332 C 0.1127 0.68273 0.09805 0.0
O2333 O 0.11596 0.67711 0.11649 0.0
C2334 C 0.09955 0.62435 0.14121 0.0
C2335 C 0.14847 0.57022 0.11399 0.0
O2336 O 0.16026 0.58491 0.1217 0.0
O2337 O 0.13142 0.57396 0.10519 0.0
O2338 O 0.12664 0.38523 0.86976 0.0
Cd2339 Cd 0.14229 0.41567 0.85547 0.0
O2340 O 0.11411 0.37252 0.84069 0.0
Cd2341 Cd 0.11605 0.40005 0.82429 0.0
O2342 O 0.09252 0.41209 0.80504 0.0
C2343 C 0.07456 0.40983 0.81174 0.0
O2344 O 0.07241 0.40219 0.82947 0.0
C2345 C 0.11777 0.3707 0.85931 0.0
C2346 C 0.1845 0.42089 0.86659 0.0
O2347 O 0.17152 0.43002 0.87614 0.0
O2348 O 0.17759 0.40956 0.85175 0.0
O2349 O 0.37976 0.37157 0.64109 0.0
Cd2350 Cd 0.35108 0.3796 0.61866 0.0
O2351 O 0.39245 0.3539 0.61747 0.0
Cd2352 Cd 0.36639 0.35262 0.59574 0.0
O2353 O 0.35116 0.32965 0.57537 0.0
C2354 C 0.34324 0.31416 0.58355 0.0
O2355 O 0.34305 0.31396 0.60313 0.0
C2356 C 0.39385 0.36142 0.63506 0.0
C2357 C 0.33045 0.41189 0.63099 0.0
O2358 O 0.32421 0.39407 0.63549 0.0
O2359 O 0.34676 0.41453 0.62106 0.0
O2360 O 0.12328 0.57888 0.62553 0.0
Cd2361 Cd 0.12966 0.54878 0.6436 0.0
O2362 O 0.12204 0.59158 0.65544 0.0
Cd2363 Cd 0.11703 0.61018 0.68153 0.0
O2364 O 0.09545 0.62152 0.70168 0.0
C2365 C 0.07752 0.61268 0.69842 0.0
O2366 O 0.07491 0.59815 0.68496 0.0
C2367 C 0.12044 0.59374 0.63659 0.0
C2368 C 0.17142 0.54315 0.6477 0.0
O2369 O 0.15984 0.53443 0.63355 0.0
O2370 O 0.16326 0.55455 0.65991 0.0
O2371 O 0.36901 0.42223 0.11022 0.0
Cd2372 Cd 0.36182 0.45127 0.13042 0.0
O2373 O 0.38265 0.41735 0.13968 0.0
Cd2374 Cd 0.40013 0.40581 0.1647 0.0
O2375 O 0.4204 0.40519 0.19144 0.0
C2376 C 0.4381 0.41465 0.19065 0.0
O2377 O 0.44297 0.42361 0.17409 0.0
C2378 C 0.37911 0.41143 0.12159 0.0
C2379 C 0.32142 0.46167 0.12999 0.0
O2380 O 0.3349 0.47058 0.11916 0.0
O2381 O 0.32682 0.44732 0.14065 0.0
O2382 O 0.6019 0.32654 0.17066 0.0
Cd2383 Cd 0.62704 0.30947 0.15272 0.0
O2384 O 0.61109 0.35242 0.15302 0.0
Cd2385 Cd 0.614 0.38374 0.1455 0.0
O2386 O 0.62992 0.41278 0.14008 0.0
C2387 C 0.6495 0.4141 0.14202 0.0
O2388 O 0.6586 0.3982 0.14682 0.0
C2389 C 0.60038 0.34463 0.16668 0.0
C2390 C 0.61092 0.28145 0.12368 0.0
O2391 O 0.6136 0.27671 0.14197 0.0
O2392 O 0.6153 0.29965 0.1192 0.0
O2393 O 0.89524 0.69078 0.67185 0.0
Cd2394 Cd 0.87393 0.69207 0.64087 0.0
O2395 O 0.89974 0.65903 0.66767 0.0
Cd2396 Cd 0.87731 0.6504 0.64305 0.0
O2397 O 0.86122 0.62308 0.62966 0.0
C2398 C 0.84642 0.61373 0.6383 0.0
O2399 O 0.83961 0.62163 0.65447 0.0
C2400 C 0.90361 0.67542 0.67735 0.0
C2401 C 0.88938 0.72151 0.61523 0.0
O2402 O 0.87805 0.72559 0.62957 0.0
O2403 O 0.89359 0.70349 0.613 0.0
O2404 O 0.66715 0.38085 0.6437 0.0
Cd2405 Cd 0.68218 0.40184 0.67173 0.0
O2406 O 0.63726 0.38817 0.65361 0.0
Cd2407 Cd 0.60401 0.38252 0.65427 0.0
O2408 O 0.57737 0.37056 0.66977 0.0
C2409 C 0.58068 0.36706 0.68814 0.0
O2410 O 0.5994 0.37106 0.69625 0.0
C2411 C 0.64761 0.37887 0.64162 0.0
C2412 C 0.70731 0.43465 0.65987 0.0
O2413 O 0.71423 0.41767 0.66215 0.0
O2414 O 0.68829 0.43618 0.66308 0.0
O2415 O 0.4053 0.65426 0.87463 0.0
Cd2416 Cd 0.38359 0.65689 0.9033 0.0
O2417 O 0.38349 0.62793 0.87314 0.0
Cd2418 Cd 0.36754 0.59918 0.86472 0.0
O2419 O 0.34504 0.57483 0.87159 0.0
C2420 C 0.34881 0.56377 0.88615 0.0
O2421 O 0.36672 0.56662 0.89615 0.0
C2422 C 0.39853 0.63805 0.86571 0.0
C2423 C 0.37741 0.69404 0.91913 0.0
O2424 O 0.39144 0.68391 0.92662 0.0
O2425 O 0.36683 0.68697 0.90356 0.0
O2426 O 0.10609 0.3589 0.35268 0.0
Cd2427 Cd 0.13738 0.35262 0.37241 0.0
O2428 O 0.1218 0.37268 0.32729 0.0
Cd2429 Cd 0.15182 0.37987 0.34283 0.0
O2430 O 0.16603 0.41014 0.34884 0.0
C2431 C 0.15294 0.422 0.35357 0.0
O2432 O 0.13373 0.41475 0.3555 0.0
C2433 C 0.10533 0.36591 0.33522 0.0
C2434 C 0.13228 0.31647 0.39231 0.0
O2435 O 0.12789 0.33271 0.40053 0.0
O2436 O 0.13909 0.31728 0.3747 0.0
O2437 O 0.4068 0.6247 0.35765 0.0
Cd2438 Cd 0.41209 0.599 0.33251 0.0
O2439 O 0.38475 0.59964 0.36334 0.0
Cd2440 Cd 0.35897 0.5813 0.37473 0.0
O2441 O 0.33139 0.56101 0.36886 0.0
C2442 C 0.31813 0.5665 0.35616 0.0
O2443 O 0.32149 0.58396 0.34805 0.0
C2444 C 0.39261 0.61707 0.36823 0.0
C2445 C 0.44001 0.60757 0.30312 0.0
O2446 O 0.42081 0.60975 0.29991 0.0
O2447 O 0.44603 0.60205 0.32045 0.0
loop_
_geom_bond_atom_site_label_1
_geom_bond_atom_site_label_2
_geom_bond_distance
_geom_bond_site_symmetry_2
_ccdc_geom_bond_type
C0 C1 1.264 . S
C0 C5 1.479 . S
C0 C10 1.465 . S
C1 C0 1.264 . S
C1 C3 1.339 . S
C1 H28 0.931 . S
C2 C3 1.395 . S
C2 C4 1.320 . S
C3 C1 1.339 . S
C3 C2 1.395 . S
C3 H29 0.929 . S
C4 C2 1.320 . S
C4 C5 1.405 . S
C4 H30 0.930 . S
C5 C0 1.479 . S
C5 C4 1.405 . S
C5 H31 0.931 . S
U6 O7 2.454 . S
U6 O8 2.458 . S
U6 C9 2.984 . S
U6 C10 2.847 1_455 S
U6 C23 2.882 . S
U6 O24 2.441 1_455 S
U6 O25 2.420 1_455 S
U6 O26 2.455 . S
U6 O27 2.449 . S
O7 U6 2.454 . S
O7 C9 1.353 . S
O8 U6 2.458 . S
O8 C9 1.286 . S
C9 U6 2.984 . S
C9 O7 1.353 . S
C9 O8 1.286 . S
C9 C11 1.363 . S
C10 C0 1.465 . S
C10 U6 2.847 1_655 S
C10 O24 1.249 . S
C10 O25 1.202 . S
C11 C9 1.363 . S
C11 C13 1.408 . S
C11 C16 1.342 . S
C12 C13 1.310 . S
C12 C15 1.461 . S
C12 H32 0.932 . S
C13 C11 1.408 . S
C13 C12 1.310 . S
C13 H33 0.930 . S
C14 C15 1.474 . S
C14 C16 1.285 . S
C14 H34 0.929 . S
C15 C12 1.461 . S
C15 C14 1.474 . S
C16 C11 1.342 . S
C16 C14 1.285 . S
C16 H35 0.930 . S
C17 C20 1.424 . S
C17 C22 1.245 . S
C17 C23 1.428 . S
C18 C21 1.260 . S
C18 C22 1.477 . S
C18 H36 0.932 . S
C19 C20 1.384 . S
C19 C21 1.479 . S
C19 H37 0.929 . S
C20 C17 1.424 . S
C20 C19 1.384 . S
C20 H38 0.928 . S
C21 C18 1.260 . S
C21 C19 1.479 . S
C22 C17 1.245 . S
C22 C18 1.477 . S
C22 H39 0.932 . S
C23 U6 2.882 . S
C23 C17 1.428 . S
C23 O26 1.301 . S
C23 O27 1.282 . S
O24 U6 2.441 1_655 S
O24 C10 1.249 . S
O25 U6 2.420 1_655 S
O25 C10 1.202 . S
O26 U6 2.455 . S
O26 C23 1.301 . S
O27 U6 2.449 . S
O27 C23 1.282 . S
H28 C1 0.931 . S
H29 C3 0.929 . S
H30 C4 0.930 . S
H31 C5 0.931 . S
H32 C12 0.932 . S
H33 C13 0.930 . S
H34 C14 0.929 . S
H35 C16 0.930 . S
H36 C18 0.932 . S
H37 C19 0.929 . S
H38 C20 0.928 . S
H39 C22 0.932 . S
C40 C41 1.264 . S
C40 C45 1.479 . S
C40 C50 1.465 . S
C41 C40 1.264 . S
C41 C43 1.339 . S
C41 H68 0.931 . S
C42 C43 1.395 . S
C42 C44 1.320 . S
C43 C41 1.339 . S
C43 C42 1.395 . S
C43 H69 0.929 . S
C44 C42 1.320 . S
C44 C45 1.405 . S
C44 H70 0.930 . S
C45 C40 1.479 . S
C45 C44 1.405 . S
C45 H71 0.931 . S
U46 O47 2.454 . S
U46 O48 2.458 . S
U46 C49 2.984 . S
U46 C50 2.847 . S
U46 C63 2.882 . S
U46 O64 2.441 . S
U46 O65 2.420 . S
U46 O66 2.455 . S
U46 O67 2.449 . S
O47 U46 2.454 . S
O47 C49 1.353 . S
O48 U46 2.458 . S
O48 C49 1.286 . S
C49 U46 2.984 . S
C49 O47 1.353 . S
C49 O48 1.286 . S
C49 C51 1.363 . S
C50 C40 1.465 . S
C50 U46 2.847 . S
C50 O64 1.249 . S
C50 O65 1.202 . S
C51 C49 1.363 . S
C51 C53 1.408 . S
C51 C56 1.342 . S
C52 C53 1.310 . S
C52 C55 1.461 . S
C52 H72 0.932 . S
C53 C51 1.408 . S
C53 C52 1.310 . S
C53 H73 0.930 . S
C54 C55 1.474 . S
C54 C56 1.285 . S
C54 H74 0.929 . S
C55 C52 1.461 . S
C55 C54 1.474 . S
C56 C51 1.342 . S
C56 C54 1.285 . S
C56 H75 0.930 . S
C57 C60 1.424 . S
C57 C62 1.245 . S
C57 C63 1.428 . S
C58 C61 1.260 . S
C58 C62 1.477 . S
C58 H76 0.932 . S
C59 C60 1.384 . S
C59 C61 1.479 . S
C59 H77 0.929 . S
C60 C57 1.424 . S
C60 C59 1.384 . S
C60 H78 0.928 . S
C61 C58 1.260 . S
C61 C59 1.479 . S
C62 C57 1.245 . S
C62 C58 1.477 . S
C62 H79 0.932 . S
C63 U46 2.882 . S
C63 C57 1.428 . S
C63 O66 1.301 . S
C63 O67 1.282 . S
O64 U46 2.441 . S
O64 C50 1.249 . S
O65 U46 2.420 . S
O65 C50 1.202 . S
O66 U46 2.455 . S
O66 C63 1.301 . S
O67 U46 2.449 . S
O67 C63 1.282 . S
H68 C41 0.931 . S
H69 C43 0.929 . S
H70 C44 0.930 . S
H71 C45 0.931 . S
H72 C52 0.932 . S
H73 C53 0.930 . S
H74 C54 0.929 . S
H75 C56 0.930 . S
H76 C58 0.932 . S
H77 C59 0.929 . S
H78 C60 0.928 . S
H79 C62 0.932 . S
C80 C81 1.264 . S
C80 C85 1.479 . S
C80 C90 1.465 . S
C81 C80 1.264 . S
C81 C83 1.339 . S
C81 H108 0.931 . S
C82 C83 1.395 . S
C82 C84 1.320 . S
C83 C81 1.339 . S
C83 C82 1.395 . S
C83 H109 0.929 . S
C84 C82 1.320 . S
C84 C85 1.405 . S
C84 H110 0.930 . S
C85 C80 1.479 . S
C85 C84 1.405 . S
C85 H111 0.931 . S
U86 O87 2.454 . S
U86 O88 2.458 . S
U86 C89 2.984 . S
U86 C90 2.847 . S
U86 C103 2.882 . S
U86 O104 2.441 . S
U86 O105 2.420 . S
U86 O106 2.455 . S
U86 O107 2.449 . S
O87 U86 2.454 . S
O87 C89 1.353 . S
O88 U86 2.458 . S
O88 C89 1.286 . S
C89 U86 2.984 . S
C89 O87 1.353 . S
C89 O88 1.286 . S
C89 C91 1.363 . S
C90 C80 1.465 . S
C90 U86 2.847 . S
C90 O104 1.249 . S
C90 O105 1.202 . S
C91 C89 1.363 . S
C91 C93 1.408 . S
C91 C96 1.342 . S
C92 C93 1.310 . S
C92 C95 1.461 . S
C92 H112 0.932 . S
C93 C91 1.408 . S
C93 C92 1.310 . S
C93 H113 0.930 . S
C94 C95 1.474 . S
C94 C96 1.285 . S
C94 H114 0.929 . S
C95 C92 1.461 . S
C95 C94 1.474 . S
C96 C91 1.342 . S
C96 C94 1.285 . S
C96 H115 0.930 . S
C97 C100 1.424 . S
C97 C102 1.245 . S
C97 C103 1.428 . S
C98 C101 1.260 . S
C98 C102 1.477 . S
C98 H116 0.932 . S
C99 C100 1.384 . S
C99 C101 1.479 . S
C99 H117 0.929 . S
C100 C97 1.424 . S
C100 C99 1.384 . S
C100 H118 0.928 . S
C101 C98 1.260 . S
C101 C99 1.479 . S
C102 C97 1.245 . S
C102 C98 1.477 . S
C102 H119 0.932 . S
C103 U86 2.882 . S
C103 C97 1.428 . S
C103 O106 1.301 . S
C103 O107 1.282 . S
O104 U86 2.441 . S
O104 C90 1.249 . S
O105 U86 2.420 . S
O105 C90 1.202 . S
O106 U86 2.455 . S
O106 C103 1.301 . S
O107 U86 2.449 . S
O107 C103 1.282 . S
H108 C81 0.931 . S
H109 C83 0.929 . S
H110 C84 0.930 . S
H111 C85 0.931 . S
H112 C92 0.932 . S
H113 C93 0.930 . S
H114 C94 0.929 . S
H115 C96 0.930 . S
H116 C98 0.932 . S
H117 C99 0.929 . S
H118 C100 0.928 . S
H119 C102 0.932 . S
C120 C121 1.264 . S
C120 C125 1.479 . S
C120 C130 1.465 . S
C121 C120 1.264 . S
C121 C123 1.339 . S
C121 H148 0.931 . S
C122 C123 1.395 . S
C122 C124 1.320 . S
C123 C121 1.339 . S
C123 C122 1.395 . S
C123 H149 0.929 . S
C124 C122 1.320 . S
C124 C125 1.405 . S
C124 H150 0.930 . S
C125 C120 1.479 . S
C125 C124 1.405 . S
C125 H151 0.931 . S
U126 O127 2.454 . S
U126 O128 2.458 . S
U126 C129 2.984 . S
U126 C130 2.847 . S
U126 C143 2.882 . S
U126 O144 2.441 . S
U126 O145 2.420 . S
U126 O146 2.455 . S
U126 O147 2.449 . S
O127 U126 2.454 . S
O127 C129 1.353 . S
O128 U126 2.458 . S
O128 C129 1.286 . S
C129 U126 2.984 . S
C129 O127 1.353 . S
C129 O128 1.286 . S
C129 C131 1.392 . S
C130 C120 1.465 . S
C130 U126 2.847 . S
C130 O144 1.249 . S
C130 O145 1.202 . S
C131 C129 1.392 . S
C131 C133 1.388 1_554 S
C131 C136 1.335 1_554 S
C132 C133 1.310 . S
C132 C135 1.461 . S
C132 H152 0.932 . S
C133 C131 1.388 1_556 S
C133 C132 1.310 . S
C133 H153 0.930 . S
C134 C135 1.474 . S
C134 C136 1.285 . S
C134 H154 0.929 . S
C135 C132 1.461 . S
C135 C134 1.474 . S
C136 C131 1.335 1_556 S
C136 C134 1.285 . S
C136 H155 0.930 1_556 S
C137 C140 1.424 . S
C137 C142 1.245 . S
C137 C143 1.428 . S
C138 C141 1.260 . S
C138 C142 1.477 . S
C138 H156 0.932 . S
C139 C140 1.384 . S
C139 C141 1.479 . S
C139 H157 0.929 . S
C140 C137 1.424 . S
C140 C139 1.384 . S
C140 H158 0.928 . S
C141 C138 1.260 . S
C141 C139 1.479 . S
C142 C137 1.245 . S
C142 C138 1.477 . S
C142 H159 0.932 . S
C143 U126 2.882 . S
C143 C137 1.428 . S
C143 O146 1.301 . S
C143 O147 1.282 . S
O144 U126 2.441 . S
O144 C130 1.249 . S
O145 U126 2.420 . S
O145 C130 1.202 . S
O146 U126 2.455 . S
O146 C143 1.301 . S
O147 U126 2.449 . S
O147 C143 1.282 . S
H148 C121 0.931 . S
H149 C123 0.929 . S
H150 C124 0.930 . S
H151 C125 0.931 . S
H152 C132 0.932 . S
H153 C133 0.930 . S
H154 C134 0.929 . S
H155 C136 0.930 1_554 S
H156 C138 0.932 . S
H157 C139 0.929 . S
H158 C140 0.928 . S
H159 C142 0.932 . S
C160 C161 1.264 . S
C160 C165 1.479 . S
C160 C170 1.465 . S
C161 C160 1.264 . S
C161 C163 1.339 . S
C161 H188 0.931 . S
C162 C163 1.395 . S
C162 C164 1.320 . S
C163 C161 1.339 . S
C163 C162 1.395 . S
C163 H189 0.929 . S
C164 C162 1.320 . S
C164 C165 1.405 . S
C164 H190 0.930 . S
C165 C160 1.479 . S
C165 C164 1.405 . S
C165 H191 0.931 . S
U166 O167 2.454 . S
U166 O168 2.458 . S
U166 C169 2.984 . S
U166 C170 2.847 1_455 S
U166 C183 2.882 . S
U166 O184 2.441 1_455 S
U166 O185 2.420 1_455 S
U166 O186 2.455 . S
U166 O187 2.449 . S
O167 U166 2.454 . S
O167 C169 1.353 . S
O168 U166 2.458 . S
O168 C169 1.286 . S
C169 U166 2.984 . S
C169 O167 1.353 . S
C169 O168 1.286 . S
C169 C171 1.363 . S
C170 C160 1.465 . S
C170 U166 2.847 1_655 S
C170 O184 1.249 . S
C170 O185 1.202 . S
C171 C169 1.363 . S
C171 C173 1.408 . S
C171 C176 1.342 . S
C172 C173 1.310 . S
C172 C175 1.461 . S
C172 H192 0.932 . S
C173 C171 1.408 . S
C173 C172 1.310 . S
C173 H193 0.930 . S
C174 C175 1.474 . S
C174 C176 1.285 . S
C174 H194 0.929 . S
C175 C172 1.461 . S
C175 C174 1.474 . S
C176 C171 1.342 . S
C176 C174 1.285 . S
C176 H195 0.930 . S
C177 C180 1.424 . S
C177 C182 1.245 . S
C177 C183 1.428 . S
C178 C181 1.260 . S
C178 C182 1.477 . S
C178 H196 0.932 . S
C179 C180 1.384 . S
C179 C181 1.479 . S
C179 H197 0.929 . S
C180 C177 1.424 . S
C180 C179 1.384 . S
C180 H198 0.928 . S
C181 C178 1.260 . S
C181 C179 1.479 . S
C182 C177 1.245 . S
C182 C178 1.477 . S
C182 H199 0.932 . S
C183 U166 2.882 . S
C183 C177 1.428 . S
C183 O186 1.301 . S
C183 O187 1.282 . S
O184 U166 2.441 1_655 S
O184 C170 1.249 . S
O185 U166 2.420 1_655 S
O185 C170 1.202 . S
O186 U166 2.455 . S
O186 C183 1.301 . S
O187 U166 2.449 . S
O187 C183 1.282 . S
H188 C161 0.931 . S
H189 C163 0.929 . S
H190 C164 0.930 . S
H191 C165 0.931 . S
H192 C172 0.932 . S
H193 C173 0.930 . S
H194 C174 0.929 . S
H195 C176 0.930 . S
H196 C178 0.932 . S
H197 C179 0.929 . S
H198 C180 0.928 . S
H199 C182 0.932 . S
C200 C201 1.264 . S
C200 C205 1.479 . S
C200 C210 1.465 . S
C201 C200 1.264 . S
C201 C203 1.339 . S
C201 H228 0.931 . S
C202 C203 1.395 . S
C202 C204 1.320 . S
C203 C201 1.339 . S
C203 C202 1.395 . S
C203 H229 0.929 . S
C204 C202 1.320 . S
C204 C205 1.405 . S
C204 H230 0.930 . S
C205 C200 1.479 . S
C205 C204 1.405 . S
C205 H231 0.931 . S
U206 O207 2.454 . S
U206 O208 2.458 . S
U206 C209 2.984 . S
U206 C210 2.847 . S
U206 C223 2.882 . S
U206 O224 2.441 . S
U206 O225 2.420 . S
U206 O226 2.455 . S
U206 O227 2.449 . S
O207 U206 2.454 . S
O207 C209 1.353 . S
O208 U206 2.458 . S
O208 C209 1.286 . S
C209 U206 2.984 . S
C209 O207 1.353 . S
C209 O208 1.286 . S
C209 C211 1.363 . S
C210 C200 1.465 . S
C210 U206 2.847 . S
C210 O224 1.249 . S
C210 O225 1.202 . S
C211 C209 1.363 . S
C211 C213 1.408 . S
C211 C216 1.342 . S
C212 C213 1.310 . S
C212 C215 1.461 . S
C212 H232 0.932 . S
C213 C211 1.408 . S
C213 C212 1.310 . S
C213 H233 0.930 . S
C214 C215 1.474 . S
C214 C216 1.285 . S
C214 H234 0.929 . S
C215 C212 1.461 . S
C215 C214 1.474 . S
C216 C211 1.342 . S
C216 C214 1.285 . S
C216 H235 0.930 . S
C217 C220 1.424 . S
C217 C222 1.245 . S
C217 C223 1.428 . S
C218 C221 1.260 . S
C218 C222 1.477 . S
C218 H236 0.932 . S
C219 C220 1.384 . S
C219 C221 1.479 . S
C219 H237 0.929 . S
C220 C217 1.424 . S
C220 C219 1.384 . S
C220 H238 0.928 . S
C221 C218 1.260 . S
C221 C219 1.479 . S
C222 C217 1.245 . S
C222 C218 1.477 . S
C222 H239 0.932 . S
C223 U206 2.882 . S
C223 C217 1.428 . S
C223 O226 1.301 . S
C223 O227 1.282 . S
O224 U206 2.441 . S
O224 C210 1.249 . S
O225 U206 2.420 . S
O225 C210 1.202 . S
O226 U206 2.455 . S
O226 C223 1.301 . S
O227 U206 2.449 . S
O227 C223 1.282 . S
H228 C201 0.931 . S
H229 C203 0.929 . S
H230 C204 0.930 . S
H231 C205 0.931 . S
H232 C212 0.932 . S
H233 C213 0.930 . S
H234 C214 0.929 . S
H235 C216 0.930 . S
H236 C218 0.932 . S
H237 C219 0.929 . S
H238 C220 0.928 . S
H239 C222 0.932 . S
C240 C241 1.264 . S
C240 C245 1.479 . S
C240 C250 1.465 . S
C241 C240 1.264 . S
C241 C243 1.339 . S
C241 H268 0.931 . S
C242 C243 1.395 . S
C242 C244 1.320 . S
C243 C241 1.339 . S
C243 C242 1.395 . S
C243 H269 0.929 . S
C244 C242 1.320 . S
C244 C245 1.405 . S
C244 H270 0.930 . S
C245 C240 1.479 . S
C245 C244 1.405 . S
C245 H271 0.931 . S
U246 O247 2.454 . S
U246 O248 2.458 . S
U246 C249 2.984 . S
U246 C250 2.847 . S
U246 C263 2.882 . S
U246 O264 2.441 . S
U246 O265 2.420 . S
U246 O266 2.455 . S
U246 O267 2.449 . S
O247 U246 2.454 . S
O247 C249 1.353 . S
O248 U246 2.458 . S
O248 C249 1.286 . S
C249 U246 2.984 . S
C249 O247 1.353 . S
C249 O248 1.286 . S
C249 C251 1.363 . S
C250 C240 1.465 . S
C250 U246 2.847 . S
C250 O264 1.249 . S
C250 O265 1.202 . S
C251 C249 1.363 . S
C251 C253 1.408 . S
C251 C256 1.342 . S
C252 C253 1.310 . S
C252 C255 1.461 . S
C252 H272 0.932 . S
C253 C251 1.408 . S
C253 C252 1.310 . S
C253 H273 0.930 . S
C254 C255 1.474 . S
C254 C256 1.285 . S
C254 H274 0.929 . S
C255 C252 1.461 . S
C255 C254 1.474 . S
C256 C251 1.342 . S
C256 C254 1.285 . S
C256 H275 0.930 . S
C257 C260 1.424 . S
C257 C262 1.245 . S
C257 C263 1.428 . S
C258 C261 1.260 . S
C258 C262 1.477 . S
C258 H276 0.932 . S
C259 C260 1.384 . S
C259 C261 1.479 . S
C259 H277 0.929 . S
C260 C257 1.424 . S
C260 C259 1.384 . S
C260 H278 0.928 . S
C261 C258 1.260 . S
C261 C259 1.479 . S
C262 C257 1.245 . S
C262 C258 1.477 . S
C262 H279 0.932 . S
C263 U246 2.882 . S
C263 C257 1.428 . S
C263 O266 1.301 . S
C263 O267 1.282 . S
O264 U246 2.441 . S
O264 C250 1.249 . S
O265 U246 2.420 . S
O265 C250 1.202 . S
O266 U246 2.455 . S
O266 C263 1.301 . S
O267 U246 2.449 . S
O267 C263 1.282 . S
H268 C241 0.931 . S
H269 C243 0.929 . S
H270 C244 0.930 . S
H271 C245 0.931 . S
H272 C252 0.932 . S
H273 C253 0.930 . S
H274 C254 0.929 . S
H275 C256 0.930 . S
H276 C258 0.932 . S
H277 C259 0.929 . S
H278 C260 0.928 . S
H279 C262 0.932 . S
C280 C281 1.264 . S
C280 C285 1.479 . S
C280 C290 1.465 1_554 S
C281 C280 1.264 . S
C281 C283 1.339 . S
C281 H308 0.931 . S
C282 C283 1.395 . S
C282 C284 1.320 . S
C283 C281 1.339 . S
C283 C282 1.395 . S
C283 H309 0.929 . S
C284 C282 1.320 . S
C284 C285 1.405 . S
C284 H310 0.930 . S
C285 C280 1.479 . S
C285 C284 1.405 . S
C285 H311 0.931 . S
U286 O287 2.454 . S
U286 O288 2.458 . S
U286 C289 2.984 . S
U286 C290 2.847 . S
U286 C303 2.882 . S
U286 O304 2.441 . S
U286 O305 2.420 . S
U286 O306 2.455 . S
U286 O307 2.449 . S
O287 U286 2.454 . S
O287 C289 1.353 . S
O288 U286 2.458 . S
O288 C289 1.286 . S
C289 U286 2.984 . S
C289 O287 1.353 . S
C289 O288 1.286 . S
C289 C291 1.363 . S
C290 C280 1.465 1_556 S
C290 U286 2.847 . S
C290 O304 1.249 . S
C290 O305 1.202 . S
C291 C289 1.363 . S
C291 C293 1.408 . S
C291 C296 1.342 . S
C292 C293 1.310 . S
C292 C295 1.461 . S
C292 H312 0.932 . S
C293 C291 1.408 . S
C293 C292 1.310 . S
C293 H313 0.930 . S
C294 C295 1.474 . S
C294 C296 1.285 . S
C294 H314 0.929 . S
C295 C292 1.461 . S
C295 C294 1.474 . S
C296 C291 1.342 . S
C296 C294 1.285 . S
C296 H315 0.930 . S
C297 C300 1.424 . S
C297 C302 1.245 . S
C297 C303 1.428 . S
C298 C301 1.260 . S
C298 C302 1.477 . S
C298 H316 0.932 . S
C299 C300 1.384 . S
C299 C301 1.479 . S
C299 H317 0.929 . S
C300 C297 1.424 . S
C300 C299 1.384 . S
C300 H318 0.928 . S
C301 C298 1.260 . S
C301 C299 1.479 . S
C302 C297 1.245 . S
C302 C298 1.477 . S
C302 H319 0.932 . S
C303 U286 2.882 . S
C303 C297 1.428 . S
C303 O306 1.301 . S
C303 O307 1.282 . S
O304 U286 2.441 . S
O304 C290 1.249 . S
O305 U286 2.420 . S
O305 C290 1.202 . S
O306 U286 2.455 . S
O306 C303 1.301 . S
O307 U286 2.449 . S
O307 C303 1.282 . S
H308 C281 0.931 . S
H309 C283 0.929 . S
H310 C284 0.930 . S
H311 C285 0.931 . S
H312 C292 0.932 . S
H313 C293 0.930 . S
H314 C294 0.929 . S
H315 C296 0.930 . S
H316 C298 0.932 . S
H317 C299 0.929 . S
H318 C300 0.928 . S
H319 C302 0.932 . S
C320 C321 1.264 . S
C320 C325 1.479 . S
C320 C330 1.465 . S
C321 C320 1.264 . S
C321 C323 1.339 . S
C321 H348 0.931 . S
C322 C323 1.395 . S
C322 C324 1.320 . S
C323 C321 1.339 . S
C323 C322 1.395 . S
C323 H349 0.929 . S
C324 C322 1.320 . S
C324 C325 1.405 . S
C324 H350 0.930 . S
C325 C320 1.479 . S
C325 C324 1.405 . S
C325 H351 0.931 . S
U326 O327 2.454 1_545 S
U326 O328 2.458 1_545 S
U326 C329 2.984 1_545 S
U326 C330 2.847 . S
U326 C343 2.882 . S
U326 O344 2.441 . S
U326 O345 2.420 . S
U326 O346 2.455 . S
U326 O347 2.449 . S
O327 U326 2.454 1_565 S
O327 C329 1.353 . S
O328 U326 2.458 1_565 S
O328 C329 1.286 . S
C329 U326 2.984 1_565 S
C329 O327 1.353 . S
C329 O328 1.286 . S
C329 C331 1.363 . S
C330 C320 1.465 . S
C330 U326 2.847 . S
C330 O344 1.249 . S
C330 O345 1.202 . S
C331 C329 1.363 . S
C331 C333 1.408 . S
C331 C336 1.342 . S
C332 C333 1.310 . S
C332 C335 1.461 . S
C332 H352 0.932 . S
C333 C331 1.408 . S
C333 C332 1.310 . S
C333 H353 0.930 . S
C334 C335 1.474 . S
C334 C336 1.285 . S
C334 H354 0.929 . S
C335 C332 1.461 . S
C335 C334 1.474 . S
C336 C331 1.342 . S
C336 C334 1.285 . S
C336 H355 0.930 . S
C337 C340 1.424 . S
C337 C342 1.245 . S
C337 C343 1.428 . S
C338 C341 1.260 . S
C338 C342 1.477 . S
C338 H356 0.932 . S
C339 C340 1.384 . S
C339 C341 1.479 . S
C339 H357 0.929 . S
C340 C337 1.424 . S
C340 C339 1.384 . S
C340 H358 0.928 . S
C341 C338 1.260 . S
C341 C339 1.479 . S
C342 C337 1.245 . S
C342 C338 1.477 . S
C342 H359 0.932 . S
C343 U326 2.882 . S
C343 C337 1.428 . S
C343 O346 1.301 . S
C343 O347 1.282 . S
O344 U326 2.441 . S
O344 C330 1.249 . S
O345 U326 2.420 . S
O345 C330 1.202 . S
O346 U326 2.455 . S
O346 C343 1.301 . S
O347 U326 2.449 . S
O347 C343 1.282 . S
H348 C321 0.931 . S
H349 C323 0.929 . S
H350 C324 0.930 . S
H351 C325 0.931 . S
H352 C332 0.932 . S
H353 C333 0.930 . S
H354 C334 0.929 . S
H355 C336 0.930 . S
H356 C338 0.932 . S
H357 C339 0.929 . S
H358 C340 0.928 . S
H359 C342 0.932 . S
C360 C361 1.264 . S
C360 C365 1.479 . S
C360 C370 1.465 . S
C361 C360 1.264 . S
C361 C363 1.339 . S
C361 H388 0.931 . S
C362 C363 1.395 . S
C362 C364 1.320 . S
C363 C361 1.339 . S
C363 C362 1.395 . S
C363 H389 0.929 . S
C364 C362 1.320 . S
C364 C365 1.405 . S
C364 H390 0.930 . S
C365 C360 1.479 . S
C365 C364 1.405 . S
C365 H391 0.931 . S
U366 O367 2.454 . S
U366 O368 2.458 . S
U366 C369 2.984 . S
U366 C370 2.847 1_545 S
U366 C383 2.882 . S
U366 O384 2.441 1_545 S
U366 O385 2.420 1_545 S
U366 O386 2.455 . S
U366 O387 2.449 . S
O367 U366 2.454 . S
O367 C369 1.353 . S
O368 U366 2.458 . S
O368 C369 1.286 . S
C369 U366 2.984 . S
C369 O367 1.353 . S
C369 O368 1.286 . S
C369 C371 1.363 . S
C370 C360 1.465 . S
C370 U366 2.847 1_565 S
C370 O384 1.249 . S
C370 O385 1.202 . S
C371 C369 1.363 . S
C371 C373 1.408 . S
C371 C376 1.342 . S
C372 C373 1.310 . S
C372 C375 1.461 . S
C372 H392 0.932 . S
C373 C371 1.408 . S
C373 C372 1.310 . S
C373 H393 0.930 . S
C374 C375 1.474 . S
C374 C376 1.285 . S
C374 H394 0.929 . S
C375 C372 1.461 . S
C375 C374 1.474 . S
C376 C371 1.342 . S
C376 C374 1.285 . S
C376 H395 0.930 . S
C377 C380 1.424 . S
C377 C382 1.245 . S
C377 C383 1.428 . S
C378 C381 1.260 . S
C378 C382 1.477 . S
C378 H396 0.932 . S
C379 C380 1.384 . S
C379 C381 1.479 . S
C379 H397 0.929 . S
C380 C377 1.424 . S
C380 C379 1.384 . S
C380 H398 0.928 . S
C381 C378 1.260 . S
C381 C379 1.479 . S
C382 C377 1.245 . S
C382 C378 1.477 . S
C382 H399 0.932 . S
C383 U366 2.882 . S
C383 C377 1.428 . S
C383 O386 1.301 . S
C383 O387 1.282 . S
O384 U366 2.441 1_565 S
O384 C370 1.249 . S
O385 U366 2.420 1_565 S
O385 C370 1.202 . S
O386 U366 2.455 . S
O386 C383 1.301 . S
O387 U366 2.449 . S
O387 C383 1.282 . S
H388 C361 0.931 . S
H389 C363 0.929 . S
H390 C364 0.930 . S
H391 C365 0.931 . S
H392 C372 0.932 . S
H393 C373 0.930 . S
H394 C374 0.929 . S
H395 C376 0.930 . S
H396 C378 0.932 . S
H397 C379 0.929 . S
H398 C380 0.928 . S
H399 C382 0.932 . S
C400 C401 1.264 . S
C400 C405 1.479 . S
C400 C410 1.465 . S
C401 C400 1.264 . S
C401 C403 1.339 . S
C401 H428 0.931 . S
C402 C403 1.395 . S
C402 C404 1.320 . S
C403 C401 1.339 . S
C403 C402 1.395 . S
C403 H429 0.929 . S
C404 C402 1.320 . S
C404 C405 1.405 . S
C404 H430 0.930 . S
C405 C400 1.479 . S
C405 C404 1.405 . S
C405 H431 0.931 . S
U406 O407 2.454 . S
U406 O408 2.458 . S
U406 C409 2.984 . S
U406 C410 2.847 1_565 S
U406 C423 2.882 . S
U406 O424 2.441 1_565 S
U406 O425 2.420 1_565 S
U406 O426 2.455 . S
U406 O427 2.449 . S
O407 U406 2.454 . S
O407 C409 1.353 . S
O408 U406 2.458 . S
O408 C409 1.286 . S
C409 U406 2.984 . S
C409 O407 1.353 . S
C409 O408 1.286 . S
C409 C411 1.363 . S
C410 C400 1.465 . S
C410 U406 2.847 1_545 S
C410 O424 1.249 . S
C410 O425 1.202 . S
C411 C409 1.363 . S
C411 C413 1.408 . S
C411 C416 1.342 . S
C412 C413 1.310 . S
C412 C415 1.461 . S
C412 H432 0.932 . S
C413 C411 1.408 . S
C413 C412 1.310 . S
C413 H433 0.930 . S
C414 C415 1.474 . S
C414 C416 1.285 . S
C414 H434 0.929 . S
C415 C412 1.461 . S
C415 C414 1.474 . S
C416 C411 1.342 . S
C416 C414 1.285 . S
C416 H435 0.930 . S
C417 C420 1.424 . S
C417 C422 1.245 . S
C417 C423 1.428 . S
C418 C421 1.260 . S
C418 C422 1.477 . S
C418 H436 0.932 . S
C419 C420 1.384 . S
C419 C421 1.479 . S
C419 H437 0.929 . S
C420 C417 1.424 . S
C420 C419 1.384 . S
C420 H438 0.928 . S
C421 C418 1.260 . S
C421 C419 1.479 . S
C422 C417 1.245 . S
C422 C418 1.477 . S
C422 H439 0.932 . S
C423 U406 2.882 . S
C423 C417 1.428 . S
C423 O426 1.301 . S
C423 O427 1.282 . S
O424 U406 2.441 1_545 S
O424 C410 1.249 . S
O425 U406 2.420 1_545 S
O425 C410 1.202 . S
O426 U406 2.455 . S
O426 C423 1.301 . S
O427 U406 2.449 . S
O427 C423 1.282 . S
H428 C401 0.931 . S
H429 C403 0.929 . S
H430 C404 0.930 . S
H431 C405 0.931 . S
H432 C412 0.932 . S
H433 C413 0.930 . S
H434 C414 0.929 . S
H435 C416 0.930 . S
H436 C418 0.932 . S
H437 C419 0.929 . S
H438 C420 0.928 . S
H439 C422 0.932 . S
C440 C441 1.264 . S
C440 C445 1.479 . S
C440 C450 1.465 . S
C441 C440 1.264 . S
C441 C443 1.339 . S
C441 H468 0.931 . S
C442 C443 1.395 . S
C442 C444 1.320 . S
C443 C441 1.339 . S
C443 C442 1.395 . S
C443 H469 0.929 . S
C444 C442 1.320 . S
C444 C445 1.405 . S
C444 H470 0.930 . S
C445 C440 1.479 . S
C445 C444 1.405 . S
C445 H471 0.950 . S
U446 O447 2.454 . S
U446 O448 2.458 . S
U446 C449 2.984 . S
U446 C450 2.847 1_545 S
U446 C463 2.882 1_545 S
U446 O464 2.441 . S
U446 O465 2.420 1_545 S
U446 O466 2.455 1_545 S
U446 O467 2.449 1_545 S
O447 U446 2.454 . S
O447 C449 1.353 . S
O448 U446 2.458 . S
O448 C449 1.286 . S
C449 U446 2.984 . S
C449 O447 1.353 . S
C449 O448 1.286 . S
C449 C451 1.363 . S
C450 C440 1.465 . S
C450 U446 2.847 1_565 S
C450 O464 1.249 1_565 S
C450 O465 1.202 . S
C451 C449 1.363 . S
C451 C453 1.408 . S
C451 C456 1.342 . S
C452 C453 1.310 . S
C452 C455 1.461 . S
C452 H472 0.932 . S
C453 C451 1.408 . S
C453 C452 1.310 . S
C453 H473 0.930 . S
C454 C455 1.474 . S
C454 C456 1.285 . S
C454 H474 0.929 . S
C455 C452 1.461 . S
C455 C454 1.474 . S
C456 C451 1.342 . S
C456 C454 1.285 . S
C456 H475 0.930 . S
C457 C460 1.424 . S
C457 C462 1.245 . S
C457 C463 1.428 . S
C458 C461 1.260 . S
C458 C462 1.477 . S
C458 H476 0.932 . S
C459 C460 1.384 . S
C459 C461 1.479 . S
C459 H477 0.929 . S
C460 C457 1.424 . S
C460 C459 1.384 . S
C460 H478 0.928 . S
C461 C458 1.260 . S
C461 C459 1.479 . S
C462 C457 1.245 . S
C462 C458 1.477 . S
C462 H479 0.932 . S
C463 U446 2.882 1_565 S
C463 C457 1.428 . S
C463 O466 1.301 . S
C463 O467 1.282 . S
O464 U446 2.441 . S
O464 C450 1.249 1_545 S
O465 U446 2.420 1_565 S
O465 C450 1.202 . S
O466 U446 2.455 1_565 S
O466 C463 1.301 . S
O467 U446 2.449 1_565 S
O467 C463 1.282 . S
H468 C441 0.931 . S
H469 C443 0.929 . S
H470 C444 0.930 . S
H471 C445 0.950 . S
H472 C452 0.932 . S
H473 C453 0.930 . S
H474 C454 0.929 . S
H475 C456 0.930 . S
H476 C458 0.932 . S
H477 C459 0.929 . S
H478 C460 0.928 . S
H479 C462 0.932 . S
C480 C481 1.264 . S
C480 C485 1.479 . S
C480 C490 1.465 . S
C481 C480 1.264 . S
C481 C483 1.339 . S
C481 H508 0.931 . S
C482 C483 1.395 . S
C482 C484 1.320 . S
C483 C481 1.339 . S
C483 C482 1.395 . S
C483 H509 0.929 . S
C484 C482 1.320 . S
C484 C485 1.405 . S
C484 H510 0.930 . S
C485 C480 1.479 . S
C485 C484 1.405 . S
C485 H511 0.931 . S
U486 O487 2.454 . S
U486 O488 2.458 . S
U486 C489 2.984 . S
U486 C490 2.847 . S
U486 C503 2.882 . S
U486 O504 2.441 . S
U486 O505 2.420 . S
U486 O506 2.455 . S
U486 O507 2.449 . S
O487 U486 2.454 . S
O487 C489 1.353 . S
O488 U486 2.458 . S
O488 C489 1.286 . S
C489 U486 2.984 . S
C489 O487 1.353 . S
C489 O488 1.286 . S
C489 C491 1.363 1_554 S
C490 C480 1.465 . S
C490 U486 2.847 . S
C490 O504 1.249 . S
C490 O505 1.202 . S
C491 C489 1.363 1_556 S
C491 C493 1.408 . S
C491 C496 1.342 . S
C492 C493 1.310 . S
C492 C495 1.461 . S
C492 H512 0.932 . S
C493 C491 1.408 . S
C493 C492 1.310 . S
C493 H513 0.930 . S
C494 C495 1.474 . S
C494 C496 1.285 . S
C494 H514 0.929 . S
C495 C492 1.461 . S
C495 C494 1.474 . S
C496 C491 1.342 . S
C496 C494 1.285 . S
C496 H515 0.930 . S
C497 C500 1.424 . S
C497 C502 1.245 . S
C497 C503 1.428 . S
C498 C501 1.260 . S
C498 C502 1.477 . S
C498 H516 0.932 . S
C499 C500 1.384 . S
C499 C501 1.479 . S
C499 H517 0.929 . S
C500 C497 1.424 . S
C500 C499 1.384 . S
C500 H518 0.928 . S
C501 C498 1.260 . S
C501 C499 1.479 . S
C502 C497 1.245 . S
C502 C498 1.477 . S
C502 H519 0.932 . S
C503 U486 2.882 . S
C503 C497 1.428 . S
C503 O506 1.301 . S
C503 O507 1.282 . S
O504 U486 2.441 . S
O504 C490 1.249 . S
O505 U486 2.420 . S
O505 C490 1.202 . S
O506 U486 2.455 . S
O506 C503 1.301 . S
O507 U486 2.449 . S
O507 C503 1.282 . S
H508 C481 0.931 . S
H509 C483 0.929 . S
H510 C484 0.930 . S
H511 C485 0.931 . S
H512 C492 0.932 . S
H513 C493 0.930 . S
H514 C494 0.929 . S
H515 C496 0.930 . S
H516 C498 0.932 . S
H517 C499 0.929 . S
H518 C500 0.928 . S
H519 C502 0.932 . S
C520 C521 1.264 . S
C520 C525 1.479 . S
C520 C530 1.465 . S
C521 C520 1.264 . S
C521 C523 1.339 . S
C521 H548 0.931 . S
C522 C523 1.395 . S
C522 C524 1.320 . S
C523 C521 1.339 . S
C523 C522 1.395 . S
C523 H549 0.929 . S
C524 C522 1.320 . S
C524 C525 1.405 . S
C524 H550 0.930 . S
C525 C520 1.479 . S
C525 C524 1.405 . S
C525 H551 0.931 . S
U526 O527 2.454 . S
U526 O528 2.458 . S
U526 C529 2.984 . S
U526 C530 2.847 1_655 S
U526 C543 2.882 . S
U526 O544 2.441 1_655 S
U526 O545 2.420 1_655 S
U526 O546 2.455 . S
U526 O547 2.449 . S
O527 U526 2.454 . S
O527 C529 1.353 . S
O528 U526 2.458 . S
O528 C529 1.286 . S
C529 U526 2.984 . S
C529 O527 1.353 . S
C529 O528 1.286 . S
C529 C531 1.363 . S
C530 C520 1.465 . S
C530 U526 2.847 1_455 S
C530 O544 1.249 . S
C530 O545 1.202 . S
C531 C529 1.363 . S
C531 C533 1.408 . S
C531 C536 1.342 . S
C532 C533 1.310 . S
C532 C535 1.461 . S
C532 H552 0.932 . S
C533 C531 1.408 . S
C533 C532 1.310 . S
C533 H553 0.930 . S
C534 C535 1.474 . S
C534 C536 1.285 . S
C534 H554 0.929 . S
C535 C532 1.461 . S
C535 C534 1.474 . S
C536 C531 1.342 . S
C536 C534 1.285 . S
C536 H555 0.930 . S
C537 C540 1.424 . S
C537 C542 1.245 . S
C537 C543 1.428 . S
C538 C541 1.260 . S
C538 C542 1.477 . S
C538 H556 0.932 . S
C539 C540 1.384 . S
C539 C541 1.479 . S
C539 H557 0.929 . S
C540 C537 1.424 . S
C540 C539 1.384 . S
C540 H558 0.928 . S
C541 C538 1.260 . S
C541 C539 1.479 . S
C542 C537 1.245 . S
C542 C538 1.477 . S
C542 H559 0.932 . S
C543 U526 2.882 . S
C543 C537 1.428 . S
C543 O546 1.301 . S
C543 O547 1.282 . S
O544 U526 2.441 1_455 S
O544 C530 1.249 . S
O545 U526 2.420 1_455 S
O545 C530 1.202 . S
O546 U526 2.455 . S
O546 C543 1.301 . S
O547 U526 2.449 . S
O547 C543 1.282 . S
H548 C521 0.931 . S
H549 C523 0.929 . S
H550 C524 0.930 . S
H551 C525 0.931 . S
H552 C532 0.932 . S
H553 C533 0.930 . S
H554 C534 0.929 . S
H555 C536 0.930 . S
H556 C538 0.932 . S
H557 C539 0.929 . S
H558 C540 0.928 . S
H559 C542 0.932 . S
C560 C561 1.264 . S
C560 C565 1.479 . S
C560 C570 1.465 . S
C561 C560 1.264 . S
C561 C563 1.339 . S
C561 H588 0.931 . S
C562 C563 1.395 . S
C562 C564 1.320 . S
C563 C561 1.339 . S
C563 C562 1.395 . S
C563 H589 0.929 . S
C564 C562 1.320 . S
C564 C565 1.405 . S
C564 H590 0.930 . S
C565 C560 1.479 . S
C565 C564 1.405 . S
C565 H591 0.931 . S
U566 O567 2.454 . S
U566 O568 2.458 . S
U566 C569 2.984 . S
U566 C570 2.847 . S
U566 C583 2.882 . S
U566 O584 2.441 . S
U566 O585 2.420 . S
U566 O586 2.455 . S
U566 O587 2.449 . S
O567 U566 2.454 . S
O567 C569 1.353 . S
O568 U566 2.458 . S
O568 C569 1.286 . S
C569 U566 2.984 . S
C569 O567 1.353 . S
C569 O568 1.286 . S
C569 C571 1.363 . S
C570 C560 1.465 . S
C570 U566 2.847 . S
C570 O584 1.249 . S
C570 O585 1.202 . S
C571 C569 1.363 . S
C571 C573 1.408 . S
C571 C576 1.342 . S
C572 C573 1.310 . S
C572 C575 1.461 . S
C572 H592 0.932 . S
C573 C571 1.408 . S
C573 C572 1.310 . S
C573 H593 0.930 . S
C574 C575 1.474 . S
C574 C576 1.285 . S
C574 H594 0.929 . S
C575 C572 1.461 . S
C575 C574 1.474 . S
C576 C571 1.342 . S
C576 C574 1.285 . S
C576 H595 0.930 . S
C577 C580 1.424 . S
C577 C582 1.245 . S
C577 C583 1.428 . S
C578 C581 1.260 . S
C578 C582 1.477 . S
C578 H596 0.932 . S
C579 C580 1.384 . S
C579 C581 1.479 . S
C579 H597 0.929 . S
C580 C577 1.424 . S
C580 C579 1.384 . S
C580 H598 0.928 . S
C581 C578 1.260 . S
C581 C579 1.479 . S
C582 C577 1.245 . S
C582 C578 1.477 . S
C582 H599 0.932 . S
C583 U566 2.882 . S
C583 C577 1.428 . S
C583 O586 1.301 . S
C583 O587 1.282 . S
O584 U566 2.441 . S
O584 C570 1.249 . S
O585 U566 2.420 . S
O585 C570 1.202 . S
O586 U566 2.455 . S
O586 C583 1.301 . S
O587 U566 2.449 . S
O587 C583 1.282 . S
H588 C561 0.931 . S
H589 C563 0.929 . S
H590 C564 0.930 . S
H591 C565 0.931 . S
H592 C572 0.932 . S
H593 C573 0.930 . S
H594 C574 0.929 . S
H595 C576 0.930 . S
H596 C578 0.932 . S
H597 C579 0.929 . S
H598 C580 0.928 . S
H599 C582 0.932 . S
C600 C601 1.264 . S
C600 C605 1.479 . S
C600 C610 1.465 . S
C601 C600 1.264 . S
C601 C603 1.339 . S
C601 H628 0.931 . S
C602 C603 1.395 . S
C602 C604 1.320 . S
C603 C601 1.339 . S
C603 C602 1.395 . S
C603 H629 0.929 . S
C604 C602 1.320 . S
C604 C605 1.405 . S
C604 H630 0.930 . S
C605 C600 1.479 . S
C605 C604 1.405 . S
C605 H631 0.931 1_655 S
U606 O607 2.454 1_655 S
U606 O608 2.458 1_655 S
U606 C609 2.984 1_655 S
U606 C610 2.847 . S
U606 C623 2.882 . S
U606 O624 2.441 1_655 S
U606 O625 2.420 . S
U606 O626 2.455 . S
U606 O627 2.449 . S
O607 U606 2.454 1_455 S
O607 C609 1.353 . S
O608 U606 2.458 1_455 S
O608 C609 1.286 . S
C609 U606 2.984 1_455 S
C609 O607 1.353 . S
C609 O608 1.286 . S
C609 C611 1.363 . S
C610 C600 1.465 . S
C610 U606 2.847 . S
C610 O624 1.249 1_655 S
C610 O625 1.202 . S
C611 C609 1.363 . S
C611 C613 1.408 . S
C611 C616 1.342 . S
C612 C613 1.310 . S
C612 C615 1.461 . S
C612 H632 0.932 . S
C613 C611 1.408 . S
C613 C612 1.310 . S
C613 H633 0.930 . S
C614 C615 1.474 . S
C614 C616 1.285 . S
C614 H634 0.929 . S
C615 C612 1.461 . S
C615 C614 1.474 . S
C616 C611 1.342 . S
C616 C614 1.285 . S
C616 H635 0.930 . S
C617 C620 1.424 . S
C617 C622 1.245 . S
C617 C623 1.428 . S
C618 C621 1.260 . S
C618 C622 1.477 . S
C618 H636 0.932 . S
C619 C620 1.384 . S
C619 C621 1.479 . S
C619 H637 0.929 . S
C620 C617 1.424 . S
C620 C619 1.384 . S
C620 H638 0.928 . S
C621 C618 1.260 . S
C621 C619 1.479 . S
C622 C617 1.245 . S
C622 C618 1.477 . S
C622 H639 0.932 . S
C623 U606 2.882 . S
C623 C617 1.428 . S
C623 O626 1.301 . S
C623 O627 1.282 . S
O624 U606 2.441 1_455 S
O624 C610 1.249 1_455 S
O625 U606 2.420 . S
O625 C610 1.202 . S
O626 U606 2.455 . S
O626 C623 1.301 . S
O627 U606 2.449 . S
O627 C623 1.282 . S
H628 C601 0.931 . S
H629 C603 0.929 . S
H630 C604 0.930 . S
H631 C605 0.931 1_455 S
H632 C612 0.932 . S
H633 C613 0.930 . S
H634 C614 0.929 . S
H635 C616 0.930 . S
H636 C618 0.932 . S
H637 C619 0.929 . S
H638 C620 0.928 . S
H639 C622 0.932 . S
C640 C641 1.264 . S
C640 C645 1.479 . S
C640 C650 1.465 . S
C641 C640 1.264 . S
C641 C643 1.339 . S
C641 H668 0.931 . S
C642 C643 1.395 . S
C642 C644 1.320 . S
C643 C641 1.339 . S
C643 C642 1.395 . S
C643 H669 0.929 . S
C644 C642 1.320 . S
C644 C645 1.405 . S
C644 H670 0.930 . S
C645 C640 1.479 . S
C645 C644 1.405 . S
C645 H671 0.931 . S
U646 O647 2.454 . S
U646 O648 2.458 . S
U646 C649 2.984 . S
U646 C650 2.847 . S
U646 C663 2.882 . S
U646 O664 2.441 . S
U646 O665 2.420 . S
U646 O666 2.455 . S
U646 O667 2.449 . S
O647 U646 2.454 . S
O647 C649 1.353 . S
O648 U646 2.458 . S
O648 C649 1.286 . S
C649 U646 2.984 . S
C649 O647 1.353 . S
C649 O648 1.286 . S
C649 C651 1.363 . S
C650 C640 1.465 . S
C650 U646 2.847 . S
C650 O664 1.249 . S
C650 O665 1.202 . S
C651 C649 1.363 . S
C651 C653 1.408 . S
C651 C656 1.342 . S
C652 C653 1.310 . S
C652 C655 1.461 . S
C652 H672 0.932 . S
C653 C651 1.408 . S
C653 C652 1.310 . S
C653 H673 0.930 . S
C654 C655 1.474 . S
C654 C656 1.285 . S
C654 H674 0.929 . S
C655 C652 1.461 . S
C655 C654 1.474 . S
C656 C651 1.342 . S
C656 C654 1.285 . S
C656 H675 0.930 . S
C657 C660 1.424 . S
C657 C662 1.245 . S
C657 C663 1.428 . S
C658 C661 1.260 . S
C658 C662 1.477 . S
C658 H676 0.932 . S
C659 C660 1.384 . S
C659 C661 1.479 . S
C659 H677 0.929 . S
C660 C657 1.424 . S
C660 C659 1.384 . S
C660 H678 0.928 . S
C661 C658 1.260 . S
C661 C659 1.479 . S
C662 C657 1.245 . S
C662 C658 1.477 . S
C662 H679 0.932 . S
C663 U646 2.882 . S
C663 C657 1.428 . S
C663 O666 1.301 . S
C663 O667 1.282 . S
O664 U646 2.441 . S
O664 C650 1.249 . S
O665 U646 2.420 . S
O665 C650 1.202 . S
O666 U646 2.455 . S
O666 C663 1.301 . S
O667 U646 2.449 . S
O667 C663 1.282 . S
H668 C641 0.931 . S
H669 C643 0.929 . S
H670 C644 0.930 . S
H671 C645 0.931 . S
H672 C652 0.932 . S
H673 C653 0.930 . S
H674 C654 0.929 . S
H675 C656 0.930 . S
H676 C658 0.932 . S
H677 C659 0.929 . S
H678 C660 0.928 . S
H679 C662 0.932 . S
C680 C681 1.264 . S
C680 C685 1.479 . S
C680 C690 1.465 . S
C681 C680 1.264 . S
C681 C683 1.339 . S
C681 H708 0.931 . S
C682 C683 1.395 . S
C682 C684 1.320 . S
C683 C681 1.339 . S
C683 C682 1.395 . S
C683 H709 0.929 . S
C684 C682 1.320 . S
C684 C685 1.405 . S
C684 H710 0.930 . S
C685 C680 1.479 . S
C685 C684 1.405 . S
C685 H711 0.931 . S
U686 O687 2.454 . S
U686 O688 2.458 . S
U686 C689 2.984 . S
U686 C690 2.847 . S
U686 C703 2.882 . S
U686 O704 2.441 . S
U686 O705 2.420 . S
U686 O706 2.455 . S
U686 O707 2.449 . S
O687 U686 2.454 . S
O687 C689 1.353 . S
O688 U686 2.458 . S
O688 C689 1.286 . S
C689 U686 2.984 . S
C689 O687 1.353 . S
C689 O688 1.286 . S
C689 C691 1.363 . S
C690 C680 1.465 . S
C690 U686 2.847 . S
C690 O704 1.249 . S
C690 O705 1.202 . S
C691 C689 1.363 . S
C691 C693 1.408 . S
C691 C696 1.342 . S
C692 C693 1.310 . S
C692 C695 1.461 . S
C692 H712 0.932 . S
C693 C691 1.408 . S
C693 C692 1.310 . S
C693 H713 0.930 . S
C694 C695 1.474 . S
C694 C696 1.285 . S
C694 H714 0.929 . S
C695 C692 1.461 . S
C695 C694 1.474 . S
C696 C691 1.342 . S
C696 C694 1.285 . S
C696 H715 0.930 . S
C697 C700 1.424 . S
C697 C702 1.245 . S
C697 C703 1.428 . S
C698 C701 1.260 . S
C698 C702 1.477 . S
C698 H716 0.932 . S
C699 C700 1.384 . S
C699 C701 1.479 . S
C699 H717 0.929 . S
C700 C697 1.424 . S
C700 C699 1.384 . S
C700 H718 0.928 . S
C701 C698 1.260 . S
C701 C699 1.479 . S
C702 C697 1.245 . S
C702 C698 1.477 . S
C702 H719 0.932 . S
C703 U686 2.882 . S
C703 C697 1.428 . S
C703 O706 1.301 . S
C703 O707 1.282 . S
O704 U686 2.441 . S
O704 C690 1.249 . S
O705 U686 2.420 . S
O705 C690 1.202 . S
O706 U686 2.455 . S
O706 C703 1.301 . S
O707 U686 2.449 . S
O707 C703 1.282 . S
H708 C681 0.931 . S
H709 C683 0.929 . S
H710 C684 0.930 . S
H711 C685 0.931 . S
H712 C692 0.932 . S
H713 C693 0.930 . S
H714 C694 0.929 . S
H715 C696 0.930 . S
H716 C698 0.932 . S
H717 C699 0.929 . S
H718 C700 0.928 . S
H719 C702 0.932 . S
C720 C721 1.264 . S
C720 C725 1.479 . S
C720 C730 1.465 . S
C721 C720 1.264 . S
C721 C723 1.339 . S
C721 H748 0.931 . S
C722 C723 1.395 . S
C722 C724 1.320 . S
C723 C721 1.339 . S
C723 C722 1.395 . S
C723 H749 0.929 . S
C724 C722 1.320 . S
C724 C725 1.405 . S
C724 H750 0.930 . S
C725 C720 1.479 . S
C725 C724 1.405 . S
C725 H751 0.931 . S
U726 O727 2.454 . S
U726 O728 2.458 . S
U726 C729 2.984 . S
U726 C730 2.847 . S
U726 C743 2.882 . S
U726 O744 2.441 . S
U726 O745 2.420 . S
U726 O746 2.455 . S
U726 O747 2.449 . S
O727 U726 2.454 . S
O727 C729 1.353 . S
O728 U726 2.458 . S
O728 C729 1.286 . S
C729 U726 2.984 . S
C729 O727 1.353 . S
C729 O728 1.286 . S
C729 C731 1.363 . S
C730 C720 1.465 . S
C730 U726 2.847 . S
C730 O744 1.249 . S
C730 O745 1.202 . S
C731 C729 1.363 . S
C731 C733 1.408 1_556 S
C731 C736 1.343 . S
C732 C733 1.310 . S
C732 C735 1.461 . S
C732 H752 0.932 . S
C733 C731 1.408 1_554 S
C733 C732 1.310 . S
C733 H753 0.930 . S
C734 C735 1.474 . S
C734 C736 1.238 1_554 S
C734 H754 0.929 . S
C735 C732 1.461 . S
C735 C734 1.474 . S
C736 C731 1.343 . S
C736 C734 1.238 1_556 S
C736 H755 0.978 . S
C737 C740 1.424 . S
C737 C742 1.245 . S
C737 C743 1.428 . S
C738 C741 1.260 . S
C738 C742 1.477 . S
C738 H756 0.932 . S
C739 C740 1.384 . S
C739 C741 1.479 . S
C739 H757 0.929 . S
C740 C737 1.424 . S
C740 C739 1.384 . S
C740 H758 0.928 . S
C741 C738 1.260 . S
C741 C739 1.479 . S
C742 C737 1.245 . S
C742 C738 1.477 . S
C742 H759 0.932 . S
C743 U726 2.882 . S
C743 C737 1.428 . S
C743 O746 1.301 . S
C743 O747 1.282 . S
O744 U726 2.441 . S
O744 C730 1.249 . S
O745 U726 2.420 . S
O745 C730 1.202 . S
O746 U726 2.455 . S
O746 C743 1.301 . S
O747 U726 2.449 . S
O747 C743 1.282 . S
H748 C721 0.931 . S
H749 C723 0.929 . S
H750 C724 0.930 . S
H751 C725 0.931 . S
H752 C732 0.932 . S
H753 C733 0.930 . S
H754 C734 0.929 . S
H755 C736 0.978 . S
H756 C738 0.932 . S
H757 C739 0.929 . S
H758 C740 0.928 . S
H759 C742 0.932 . S
C760 C761 1.264 . S
C760 C765 1.479 . S
C760 C770 1.465 . S
C761 C760 1.264 . S
C761 C763 1.339 . S
C761 H788 0.931 . S
C762 C763 1.395 . S
C762 C764 1.320 . S
C763 C761 1.339 . S
C763 C762 1.395 . S
C763 H789 0.929 . S
C764 C762 1.320 . S
C764 C765 1.405 . S
C764 H790 0.930 . S
C765 C760 1.479 . S
C765 C764 1.405 . S
C765 H791 0.931 . S
U766 O767 2.454 . S
U766 O768 2.458 . S
U766 C769 2.984 . S
U766 C770 2.847 1_655 S
U766 C783 2.882 . S
U766 O784 2.441 1_655 S
U766 O785 2.420 . S
U766 O786 2.455 . S
U766 O787 2.449 . S
O767 U766 2.454 . S
O767 C769 1.353 . S
O768 U766 2.458 . S
O768 C769 1.286 . S
C769 U766 2.984 . S
C769 O767 1.353 . S
C769 O768 1.286 . S
C769 C771 1.363 . S
C770 C760 1.465 . S
C770 U766 2.847 1_455 S
C770 O784 1.249 . S
C770 O785 1.202 1_455 S
C771 C769 1.363 . S
C771 C773 1.408 . S
C771 C776 1.342 . S
C772 C773 1.310 . S
C772 C775 1.461 . S
C772 H792 0.932 . S
C773 C771 1.408 . S
C773 C772 1.310 . S
C773 H793 0.930 . S
C774 C775 1.474 . S
C774 C776 1.285 . S
C774 H794 0.929 . S
C775 C772 1.461 . S
C775 C774 1.474 . S
C776 C771 1.342 . S
C776 C774 1.285 . S
C776 H795 0.930 . S
C777 C780 1.424 . S
C777 C782 1.245 . S
C777 C783 1.428 . S
C778 C781 1.260 . S
C778 C782 1.477 . S
C778 H796 0.932 . S
C779 C780 1.384 . S
C779 C781 1.479 . S
C779 H797 0.929 . S
C780 C777 1.424 . S
C780 C779 1.384 . S
C780 H798 0.928 . S
C781 C778 1.260 . S
C781 C779 1.479 . S
C782 C777 1.245 . S
C782 C778 1.477 . S
C782 H799 0.932 . S
C783 U766 2.882 . S
C783 C777 1.428 . S
C783 O786 1.301 . S
C783 O787 1.282 . S
O784 U766 2.441 1_455 S
O784 C770 1.249 . S
O785 U766 2.420 . S
O785 C770 1.202 1_655 S
O786 U766 2.455 . S
O786 C783 1.301 . S
O787 U766 2.449 . S
O787 C783 1.282 . S
H788 C761 0.931 . S
H789 C763 0.929 . S
H790 C764 0.930 . S
H791 C765 0.931 . S
H792 C772 0.932 . S
H793 C773 0.930 . S
H794 C774 0.929 . S
H795 C776 0.930 . S
H796 C778 0.932 . S
H797 C779 0.929 . S
H798 C780 0.928 . S
H799 C782 0.932 . S
C800 C801 1.264 . S
C800 C805 1.479 . S
C800 C810 1.465 . S
C801 C800 1.264 . S
C801 C803 1.339 . S
C801 H828 0.931 . S
C802 C803 1.395 . S
C802 C804 1.320 . S
C803 C801 1.339 . S
C803 C802 1.395 . S
C803 H829 0.929 . S
C804 C802 1.320 . S
C804 C805 1.405 . S
C804 H830 0.930 . S
C805 C800 1.479 . S
C805 C804 1.405 . S
C805 H831 0.931 . S
U806 O807 2.454 . S
U806 O808 2.458 . S
U806 C809 2.984 . S
U806 C810 2.847 . S
U806 C823 2.882 . S
U806 O824 2.441 . S
U806 O825 2.420 . S
U806 O826 2.455 . S
U806 O827 2.449 . S
O807 U806 2.454 . S
O807 C809 1.353 . S
O808 U806 2.458 . S
O808 C809 1.286 . S
C809 U806 2.984 . S
C809 O807 1.353 . S
C809 O808 1.286 . S
C809 C811 1.363 . S
C810 C800 1.465 . S
C810 U806 2.847 . S
C810 O824 1.249 . S
C810 O825 1.202 . S
C811 C809 1.363 . S
C811 C813 1.408 . S
C811 C816 1.342 . S
C812 C813 1.310 . S
C812 C815 1.461 . S
C812 H832 0.932 . S
C813 C811 1.408 . S
C813 C812 1.310 . S
C813 H833 0.930 . S
C814 C815 1.474 . S
C814 C816 1.285 . S
C814 H834 0.929 . S
C815 C812 1.461 . S
C815 C814 1.474 . S
C816 C811 1.342 . S
C816 C814 1.285 . S
C816 H835 0.930 . S
C817 C820 1.424 . S
C817 C822 1.245 . S
C817 C823 1.428 . S
C818 C821 1.260 . S
C818 C822 1.477 . S
C818 H836 0.932 . S
C819 C820 1.384 . S
C819 C821 1.479 . S
C819 H837 0.929 . S
C820 C817 1.424 . S
C820 C819 1.384 . S
C820 H838 0.928 . S
C821 C818 1.260 . S
C821 C819 1.479 . S
C822 C817 1.245 . S
C822 C818 1.477 . S
C822 H839 0.932 . S
C823 U806 2.882 . S
C823 C817 1.428 . S
C823 O826 1.301 . S
C823 O827 1.282 . S
O824 U806 2.441 . S
O824 C810 1.249 . S
O825 U806 2.420 . S
O825 C810 1.202 . S
O826 U806 2.455 . S
O826 C823 1.301 . S
O827 U806 2.449 . S
O827 C823 1.282 . S
H828 C801 0.931 . S
H829 C803 0.929 . S
H830 C804 0.930 . S
H831 C805 0.931 . S
H832 C812 0.932 . S
H833 C813 0.930 . S
H834 C814 0.929 . S
H835 C816 0.930 . S
H836 C818 0.932 . S
H837 C819 0.929 . S
H838 C820 0.928 . S
H839 C822 0.932 . S
C840 C841 1.264 . S
C840 C845 1.479 . S
C840 C850 1.465 . S
C841 C840 1.264 . S
C841 C843 1.339 . S
C841 H868 0.931 . S
C842 C843 1.395 . S
C842 C844 1.320 . S
C843 C841 1.339 . S
C843 C842 1.395 . S
C843 H869 0.929 . S
C844 C842 1.320 . S
C844 C845 1.405 . S
C844 H870 0.930 . S
C845 C840 1.479 . S
C845 C844 1.405 . S
C845 H871 0.931 . S
U846 O847 2.454 . S
U846 O848 2.458 . S
U846 C849 2.984 . S
U846 C850 2.847 . S
U846 C863 2.882 . S
U846 O864 2.441 . S
U846 O865 2.420 . S
U846 O866 2.455 . S
U846 O867 2.449 . S
O847 U846 2.454 . S
O847 C849 1.353 . S
O848 U846 2.458 . S
O848 C849 1.286 . S
C849 U846 2.984 . S
C849 O847 1.353 . S
C849 O848 1.286 . S
C849 C851 1.363 . S
C850 C840 1.465 . S
C850 U846 2.847 . S
C850 O864 1.249 . S
C850 O865 1.202 . S
C851 C849 1.363 . S
C851 C853 1.408 . S
C851 C856 1.342 . S
C852 C853 1.310 . S
C852 C855 1.461 . S
C852 H872 0.932 . S
C853 C851 1.408 . S
C853 C852 1.310 . S
C853 H873 0.930 . S
C854 C855 1.474 . S
C854 C856 1.285 . S
C854 H874 0.929 . S
C855 C852 1.461 . S
C855 C854 1.474 . S
C856 C851 1.342 . S
C856 C854 1.285 . S
C856 H875 0.930 . S
C857 C860 1.424 . S
C857 C862 1.245 . S
C857 C863 1.428 . S
C858 C861 1.260 . S
C858 C862 1.477 . S
C858 H876 0.932 . S
C859 C860 1.384 . S
C859 C861 1.479 . S
C859 H877 0.929 . S
C860 C857 1.424 . S
C860 C859 1.384 . S
C860 H878 0.928 . S
C861 C858 1.260 . S
C861 C859 1.479 . S
C862 C857 1.245 . S
C862 C858 1.477 . S
C862 H879 0.932 . S
C863 U846 2.882 . S
C863 C857 1.428 . S
C863 O866 1.301 . S
C863 O867 1.282 . S
O864 U846 2.441 . S
O864 C850 1.249 . S
O865 U846 2.420 . S
O865 C850 1.202 . S
O866 U846 2.455 . S
O866 C863 1.301 . S
O867 U846 2.449 . S
O867 C863 1.282 . S
H868 C841 0.931 . S
H869 C843 0.929 . S
H870 C844 0.930 . S
H871 C845 0.931 . S
H872 C852 0.932 . S
H873 C853 0.930 . S
H874 C854 0.929 . S
H875 C856 0.930 . S
H876 C858 0.932 . S
H877 C859 0.929 . S
H878 C860 0.928 . S
H879 C862 0.932 . S
C880 C881 1.264 . S
C880 C885 1.479 1_554 S
C880 C890 1.465 . S
C881 C880 1.264 . S
C881 C883 1.339 1_554 S
C881 H908 0.931 . S
C882 C883 1.395 . S
C882 C884 1.320 . S
C883 C881 1.339 1_556 S
C883 C882 1.395 . S
C883 H909 0.929 . S
C884 C882 1.320 . S
C884 C885 1.405 . S
C884 H910 0.930 . S
C885 C880 1.479 1_556 S
C885 C884 1.405 . S
C885 H911 0.931 . S
U886 O887 2.454 . S
U886 O888 2.458 . S
U886 C889 2.984 . S
U886 C890 2.847 . S
U886 C903 2.882 . S
U886 O904 2.441 . S
U886 O905 2.420 . S
U886 O906 2.455 . S
U886 O907 2.449 . S
O887 U886 2.454 . S
O887 C889 1.353 . S
O888 U886 2.458 . S
O888 C889 1.286 . S
C889 U886 2.984 . S
C889 O887 1.353 . S
C889 O888 1.286 . S
C889 C891 1.363 . S
C890 C880 1.465 . S
C890 U886 2.847 . S
C890 O904 1.249 . S
C890 O905 1.202 . S
C891 C889 1.363 . S
C891 C893 1.408 . S
C891 C896 1.342 . S
C892 C893 1.310 . S
C892 C895 1.461 . S
C892 H912 0.932 . S
C893 C891 1.408 . S
C893 C892 1.310 . S
C893 H913 0.930 . S
C894 C895 1.474 . S
C894 C896 1.285 . S
C894 H914 0.929 . S
C895 C892 1.461 . S
C895 C894 1.474 . S
C896 C891 1.342 . S
C896 C894 1.285 . S
C896 H915 0.930 . S
C897 C900 1.424 . S
C897 C902 1.245 . S
C897 C903 1.428 . S
C898 C901 1.260 . S
C898 C902 1.477 . S
C898 H916 0.932 . S
C899 C900 1.384 . S
C899 C901 1.479 . S
C899 H917 0.929 . S
C900 C897 1.424 . S
C900 C899 1.384 . S
C900 H918 0.928 . S
C901 C898 1.260 . S
C901 C899 1.479 . S
C902 C897 1.245 . S
C902 C898 1.477 . S
C902 H919 0.932 . S
C903 U886 2.882 . S
C903 C897 1.428 . S
C903 O906 1.301 . S
C903 O907 1.282 . S
O904 U886 2.441 . S
O904 C890 1.249 . S
O905 U886 2.420 . S
O905 C890 1.202 . S
O906 U886 2.455 . S
O906 C903 1.301 . S
O907 U886 2.449 . S
O907 C903 1.282 . S
H908 C881 0.931 . S
H909 C883 0.929 . S
H910 C884 0.930 . S
H911 C885 0.931 . S
H912 C892 0.932 . S
H913 C893 0.930 . S
H914 C894 0.929 . S
H915 C896 0.930 . S
H916 C898 0.932 . S
H917 C899 0.929 . S
H918 C900 0.928 . S
H919 C902 0.932 . S
C920 C921 1.264 . S
C920 C925 1.479 . S
C920 C930 1.465 . S
C921 C920 1.264 . S
C921 C923 1.339 . S
C921 H948 0.931 . S
C922 C923 1.395 . S
C922 C924 1.320 . S
C923 C921 1.339 . S
C923 C922 1.395 . S
C923 H949 0.929 . S
C924 C922 1.320 . S
C924 C925 1.405 . S
C924 H950 0.930 . S
C925 C920 1.479 . S
C925 C924 1.405 . S
C925 H951 0.931 . S
U926 O927 2.454 1_565 S
U926 O928 2.458 . S
U926 C929 2.984 1_565 S
U926 C930 2.847 . S
U926 C943 2.882 . S
U926 O944 2.441 . S
U926 O945 2.420 . S
U926 O946 2.455 . S
U926 O947 2.449 . S
O927 U926 2.454 1_545 S
O927 C929 1.353 . S
O928 U926 2.458 . S
O928 C929 1.286 1_565 S
C929 U926 2.984 1_545 S
C929 O927 1.353 . S
C929 O928 1.286 1_545 S
C929 C931 1.363 . S
C930 C920 1.465 . S
C930 U926 2.847 . S
C930 O944 1.249 . S
C930 O945 1.202 . S
C931 C929 1.363 . S
C931 C933 1.408 . S
C931 C936 1.342 . S
C932 C933 1.310 . S
C932 C935 1.461 . S
C932 H952 0.932 . S
C933 C931 1.408 . S
C933 C932 1.310 . S
C933 H953 0.930 . S
C934 C935 1.474 . S
C934 C936 1.285 . S
C934 H954 0.929 . S
C935 C932 1.461 . S
C935 C934 1.474 . S
C936 C931 1.342 . S
C936 C934 1.285 . S
C936 H955 0.930 . S
C937 C940 1.424 . S
C937 C942 1.245 . S
C937 C943 1.428 . S
C938 C941 1.260 . S
C938 C942 1.477 . S
C938 H956 0.932 . S
C939 C940 1.384 . S
C939 C941 1.479 . S
C939 H957 0.929 . S
C940 C937 1.424 . S
C940 C939 1.384 . S
C940 H958 0.928 . S
C941 C938 1.260 . S
C941 C939 1.479 . S
C942 C937 1.245 . S
C942 C938 1.477 . S
C942 H959 0.932 . S
C943 U926 2.882 . S
C943 C937 1.428 . S
C943 O946 1.301 . S
C943 O947 1.282 . S
O944 U926 2.441 . S
O944 C930 1.249 . S
O945 U926 2.420 . S
O945 C930 1.202 . S
O946 U926 2.455 . S
O946 C943 1.301 . S
O947 U926 2.449 . S
O947 C943 1.282 . S
H948 C921 0.931 . S
H949 C923 0.929 . S
H950 C924 0.930 . S
H951 C925 0.931 . S
H952 C932 0.932 . S
H953 C933 0.930 . S
H954 C934 0.929 . S
H955 C936 0.930 . S
H956 C938 0.932 . S
H957 C939 0.929 . S
H958 C940 0.928 . S
H959 C942 0.932 . S
C960 C961 1.264 . S
C960 C965 1.479 . S
C960 C970 1.465 . S
C961 C960 1.264 . S
C961 C963 1.339 . S
C961 H988 0.931 . S
C962 C963 1.395 . S
C962 C964 1.320 . S
C963 C961 1.339 . S
C963 C962 1.395 . S
C963 H989 0.929 . S
C964 C962 1.320 . S
C964 C965 1.405 . S
C964 H990 0.930 . S
C965 C960 1.479 . S
C965 C964 1.405 . S
C965 H991 0.931 . S
U966 O967 2.454 1_565 S
U966 O968 2.458 . S
U966 C969 2.984 1_565 S
U966 C970 2.847 . S
U966 C983 2.882 . S
U966 O984 2.441 . S
U966 O985 2.420 . S
U966 O986 2.455 . S
U966 O987 2.449 . S
O967 U966 2.454 1_545 S
O967 C969 1.353 . S
O968 U966 2.458 . S
O968 C969 1.286 1_565 S
C969 U966 2.984 1_545 S
C969 O967 1.353 . S
C969 O968 1.286 1_545 S
C969 C971 1.363 . S
C970 C960 1.465 . S
C970 U966 2.847 . S
C970 O984 1.249 . S
C970 O985 1.202 . S
C971 C969 1.363 . S
C971 C973 1.408 . S
C971 C976 1.342 . S
C972 C973 1.310 . S
C972 C975 1.461 . S
C972 H992 0.932 . S
C973 C971 1.408 . S
C973 C972 1.310 . S
C973 H993 0.930 . S
C974 C975 1.474 . S
C974 C976 1.285 . S
C974 H994 0.929 . S
C975 C972 1.461 . S
C975 C974 1.474 . S
C976 C971 1.342 . S
C976 C974 1.285 . S
C976 H995 0.930 . S
C977 C980 1.424 . S
C977 C982 1.245 . S
C977 C983 1.428 . S
C978 C981 1.260 . S
C978 C982 1.477 . S
C978 H996 0.932 . S
C979 C980 1.384 . S
C979 C981 1.479 . S
C979 H997 0.929 . S
C980 C977 1.424 . S
C980 C979 1.384 . S
C980 H998 0.928 . S
C981 C978 1.260 . S
C981 C979 1.479 . S
C982 C977 1.245 . S
C982 C978 1.477 . S
C982 H999 0.932 . S
C983 U966 2.882 . S
C983 C977 1.428 . S
C983 O986 1.301 . S
C983 O987 1.282 . S
O984 U966 2.441 . S
O984 C970 1.249 . S
O985 U966 2.420 . S
O985 C970 1.202 . S
O986 U966 2.455 . S
O986 C983 1.301 . S
O987 U966 2.449 . S
O987 C983 1.282 . S
H988 C961 0.931 . S
H989 C963 0.929 . S
H990 C964 0.930 . S
H991 C965 0.931 . S
H992 C972 0.932 . S
H993 C973 0.930 . S
H994 C974 0.929 . S
H995 C976 0.930 . S
H996 C978 0.932 . S
H997 C979 0.929 . S
H998 C980 0.928 . S
H999 C982 0.932 . S
C1000 C1001 1.264 . S
C1000 C1005 1.479 . S
C1000 C1010 1.465 . S
C1001 C1000 1.264 . S
C1001 C1003 1.339 . S
C1001 H1028 0.931 . S
C1002 C1003 1.395 . S
C1002 C1004 1.320 . S
C1003 C1001 1.339 . S
C1003 C1002 1.395 . S
C1003 H1029 0.929 . S
C1004 C1002 1.320 . S
C1004 C1005 1.405 . S
C1004 H1030 0.930 . S
C1005 C1000 1.479 . S
C1005 C1004 1.405 . S
C1005 H1031 0.931 . S
U1006 O1007 2.454 . S
U1006 O1008 2.458 . S
U1006 C1009 2.984 . S
U1006 C1010 2.847 1_545 S
U1006 C1023 2.882 . S
U1006 O1024 2.441 1_545 S
U1006 O1025 2.420 1_545 S
U1006 O1026 2.455 . S
U1006 O1027 2.449 . S
O1007 U1006 2.454 . S
O1007 C1009 1.353 . S
O1008 U1006 2.458 . S
O1008 C1009 1.286 . S
C1009 U1006 2.984 . S
C1009 O1007 1.353 . S
C1009 O1008 1.286 . S
C1009 C1011 1.363 . S
C1010 C1000 1.465 . S
C1010 U1006 2.847 1_565 S
C1010 O1024 1.249 . S
C1010 O1025 1.202 . S
C1011 C1009 1.363 . S
C1011 C1013 1.408 . S
C1011 C1016 1.342 . S
C1012 C1013 1.310 . S
C1012 C1015 1.461 . S
C1012 H1032 0.932 . S
C1013 C1011 1.408 . S
C1013 C1012 1.310 . S
C1013 H1033 0.930 . S
C1014 C1015 1.474 . S
C1014 C1016 1.285 . S
C1014 H1034 0.929 . S
C1015 C1012 1.461 . S
C1015 C1014 1.474 . S
C1016 C1011 1.342 . S
C1016 C1014 1.285 . S
C1016 H1035 0.930 . S
C1017 C1020 1.424 . S
C1017 C1022 1.245 . S
C1017 C1023 1.428 . S
C1018 C1021 1.260 . S
C1018 C1022 1.477 . S
C1018 H1036 0.932 . S
C1019 C1020 1.384 . S
C1019 C1021 1.479 . S
C1019 H1037 0.929 . S
C1020 C1017 1.424 . S
C1020 C1019 1.384 . S
C1020 H1038 0.928 . S
C1021 C1018 1.260 . S
C1021 C1019 1.479 . S
C1022 C1017 1.245 . S
C1022 C1018 1.477 . S
C1022 H1039 0.932 . S
C1023 U1006 2.882 . S
C1023 C1017 1.428 . S
C1023 O1026 1.301 . S
C1023 O1027 1.282 . S
O1024 U1006 2.441 1_565 S
O1024 C1010 1.249 . S
O1025 U1006 2.420 1_565 S
O1025 C1010 1.202 . S
O1026 U1006 2.455 . S
O1026 C1023 1.301 . S
O1027 U1006 2.449 . S
O1027 C1023 1.282 . S
H1028 C1001 0.931 . S
H1029 C1003 0.929 . S
H1030 C1004 0.930 . S
H1031 C1005 0.931 . S
H1032 C1012 0.932 . S
H1033 C1013 0.930 . S
H1034 C1014 0.929 . S
H1035 C1016 0.930 . S
H1036 C1018 0.932 . S
H1037 C1019 0.929 . S
H1038 C1020 0.928 . S
H1039 C1022 0.932 . S
C1040 C1041 1.264 . S
C1040 C1045 1.479 . S
C1040 C1050 1.465 . S
C1041 C1040 1.264 . S
C1041 C1043 1.339 . S
C1041 H1068 0.931 . S
C1042 C1043 1.395 . S
C1042 C1044 1.320 . S
C1043 C1041 1.339 . S
C1043 C1042 1.395 . S
C1043 H1069 0.929 . S
C1044 C1042 1.320 . S
C1044 C1045 1.405 . S
C1044 H1070 0.930 . S
C1045 C1040 1.479 . S
C1045 C1044 1.405 . S
C1045 H1071 0.931 . S
U1046 O1047 2.454 . S
U1046 O1048 2.458 . S
U1046 C1049 2.984 . S
U1046 C1050 2.847 1_545 S
U1046 C1063 2.882 . S
U1046 O1064 2.441 1_545 S
U1046 O1065 2.420 . S
U1046 O1066 2.455 . S
U1046 O1067 2.449 . S
O1047 U1046 2.454 . S
O1047 C1049 1.353 . S
O1048 U1046 2.458 . S
O1048 C1049 1.286 . S
C1049 U1046 2.984 . S
C1049 O1047 1.353 . S
C1049 O1048 1.286 . S
C1049 C1051 1.363 . S
C1050 C1040 1.465 . S
C1050 U1046 2.847 1_565 S
C1050 O1064 1.249 . S
C1050 O1065 1.202 1_565 S
C1051 C1049 1.363 . S
C1051 C1053 1.408 . S
C1051 C1056 1.342 . S
C1052 C1053 1.310 . S
C1052 C1055 1.461 . S
C1052 H1072 0.932 . S
C1053 C1051 1.408 . S
C1053 C1052 1.310 . S
C1053 H1073 0.930 . S
C1054 C1055 1.474 . S
C1054 C1056 1.285 . S
C1054 H1074 0.929 . S
C1055 C1052 1.461 . S
C1055 C1054 1.474 . S
C1056 C1051 1.342 . S
C1056 C1054 1.285 . S
C1056 H1075 0.930 . S
C1057 C1060 1.424 . S
C1057 C1062 1.245 . S
C1057 C1063 1.428 . S
C1058 C1061 1.260 . S
C1058 C1062 1.477 . S
C1058 H1076 0.932 . S
C1059 C1060 1.384 . S
C1059 C1061 1.479 . S
C1059 H1077 0.929 . S
C1060 C1057 1.424 . S
C1060 C1059 1.384 . S
C1060 H1078 0.928 . S
C1061 C1058 1.260 . S
C1061 C1059 1.479 . S
C1062 C1057 1.245 . S
C1062 C1058 1.477 . S
C1062 H1079 0.932 . S
C1063 U1046 2.882 . S
C1063 C1057 1.428 . S
C1063 O1066 1.301 . S
C1063 O1067 1.282 . S
O1064 U1046 2.441 1_565 S
O1064 C1050 1.249 . S
O1065 U1046 2.420 . S
O1065 C1050 1.202 1_545 S
O1066 U1046 2.455 . S
O1066 C1063 1.301 . S
O1067 U1046 2.449 . S
O1067 C1063 1.282 . S
H1068 C1041 0.931 . S
H1069 C1043 0.929 . S
H1070 C1044 0.930 . S
H1071 C1045 0.931 . S
H1072 C1052 0.932 . S
H1073 C1053 0.930 . S
H1074 C1054 0.929 . S
H1075 C1056 0.930 . S
H1076 C1058 0.932 . S
H1077 C1059 0.929 . S
H1078 C1060 0.928 . S
H1079 C1062 0.932 . S
C1080 C1081 1.264 . S
C1080 C1085 1.479 . S
C1080 C1090 1.465 . S
C1081 C1080 1.264 . S
C1081 C1083 1.339 . S
C1081 H1108 0.931 . S
C1082 C1083 1.395 . S
C1082 C1084 1.320 . S
C1083 C1081 1.339 . S
C1083 C1082 1.395 . S
C1083 H1109 0.929 . S
C1084 C1082 1.320 . S
C1084 C1085 1.405 . S
C1084 H1110 0.930 . S
C1085 C1080 1.479 . S
C1085 C1084 1.405 . S
C1085 H1111 0.931 . S
U1086 O1087 2.454 . S
U1086 O1088 2.458 . S
U1086 C1089 2.984 . S
U1086 C1090 2.847 . S
U1086 C1103 2.882 . S
U1086 O1104 2.441 . S
U1086 O1105 2.420 . S
U1086 O1106 2.455 . S
U1086 O1107 2.449 . S
O1087 U1086 2.454 . S
O1087 C1089 1.353 . S
O1088 U1086 2.458 . S
O1088 C1089 1.286 . S
C1089 U1086 2.984 . S
C1089 O1087 1.353 . S
C1089 O1088 1.286 . S
C1089 C1091 1.363 . S
C1090 C1080 1.465 . S
C1090 U1086 2.847 . S
C1090 O1104 1.249 . S
C1090 O1105 1.202 . S
C1091 C1089 1.363 . S
C1091 C1093 1.408 1_556 S
C1091 C1096 1.342 . S
C1092 C1093 1.310 . S
C1092 C1095 1.461 . S
C1092 H1112 0.932 . S
C1093 C1091 1.408 1_554 S
C1093 C1092 1.310 . S
C1093 H1113 0.925 1_554 S
C1094 C1095 1.474 . S
C1094 C1096 1.285 1_554 S
C1094 H1114 0.929 . S
C1095 C1092 1.461 . S
C1095 C1094 1.474 . S
C1096 C1091 1.342 . S
C1096 C1094 1.285 1_556 S
C1096 H1115 0.930 . S
C1097 C1100 1.424 . S
C1097 C1102 1.245 . S
C1097 C1103 1.428 . S
C1098 C1101 1.260 . S
C1098 C1102 1.477 . S
C1098 H1116 0.932 . S
C1099 C1100 1.384 . S
C1099 C1101 1.479 . S
C1099 H1117 0.929 . S
C1100 C1097 1.424 . S
C1100 C1099 1.384 . S
C1100 H1118 0.928 . S
C1101 C1098 1.260 . S
C1101 C1099 1.479 . S
C1102 C1097 1.245 . S
C1102 C1098 1.477 . S
C1102 H1119 0.932 . S
C1103 U1086 2.882 . S
C1103 C1097 1.428 . S
C1103 O1106 1.301 . S
C1103 O1107 1.282 . S
O1104 U1086 2.441 . S
O1104 C1090 1.249 . S
O1105 U1086 2.420 . S
O1105 C1090 1.202 . S
O1106 U1086 2.455 . S
O1106 C1103 1.301 . S
O1107 U1086 2.449 . S
O1107 C1103 1.282 . S
H1108 C1081 0.931 . S
H1109 C1083 0.929 . S
H1110 C1084 0.930 . S
H1111 C1085 0.931 . S
H1112 C1092 0.932 . S
H1113 C1093 0.925 1_556 S
H1114 C1094 0.929 . S
H1115 C1096 0.930 . S
H1116 C1098 0.932 . S
H1117 C1099 0.929 . S
H1118 C1100 0.928 . S
H1119 C1102 0.932 . S
C1120 C1121 1.264 . S
C1120 C1125 1.479 . S
C1120 C1130 1.465 . S
C1121 C1120 1.264 . S
C1121 C1123 1.339 . S
C1121 H1148 0.931 . S
C1122 C1123 1.395 . S
C1122 C1124 1.320 . S
C1123 C1121 1.339 . S
C1123 C1122 1.395 . S
C1123 H1149 0.929 . S
C1124 C1122 1.320 . S
C1124 C1125 1.405 . S
C1124 H1150 0.930 . S
C1125 C1120 1.479 . S
C1125 C1124 1.405 . S
C1125 H1151 0.931 . S
U1126 O1127 2.454 . S
U1126 O1128 2.458 . S
U1126 C1129 2.984 . S
U1126 C1130 2.847 1_455 S
U1126 C1143 2.882 . S
U1126 O1144 2.497 . S
U1126 O1145 2.420 . S
U1126 O1146 2.455 . S
U1126 O1147 2.449 . S
O1127 U1126 2.454 . S
O1127 C1129 1.353 . S
O1128 U1126 2.458 . S
O1128 C1129 1.286 . S
C1129 U1126 2.984 . S
C1129 O1127 1.353 . S
C1129 O1128 1.286 . S
C1129 C1131 1.363 . S
C1130 C1120 1.465 . S
C1130 U1126 2.847 1_655 S
C1130 O1144 1.241 1_655 S
C1130 O1145 1.202 1_655 S
C1131 C1129 1.363 . S
C1131 C1133 1.408 . S
C1131 C1136 1.342 . S
C1132 C1133 1.310 . S
C1132 C1135 1.461 . S
C1132 H1152 0.932 . S
C1133 C1131 1.408 . S
C1133 C1132 1.310 . S
C1133 H1153 0.930 . S
C1134 C1135 1.474 . S
C1134 C1136 1.285 . S
C1134 H1154 0.929 . S
C1135 C1132 1.461 . S
C1135 C1134 1.474 . S
C1136 C1131 1.342 . S
C1136 C1134 1.285 . S
C1136 H1155 0.930 . S
C1137 C1140 1.424 . S
C1137 C1142 1.245 . S
C1137 C1143 1.428 . S
C1138 C1141 1.260 . S
C1138 C1142 1.477 . S
C1138 H1156 0.932 . S
C1139 C1140 1.384 . S
C1139 C1141 1.479 . S
C1139 H1157 0.929 . S
C1140 C1137 1.424 . S
C1140 C1139 1.384 . S
C1140 H1158 0.928 . S
C1141 C1138 1.260 . S
C1141 C1139 1.479 . S
C1142 C1137 1.245 . S
C1142 C1138 1.477 . S
C1142 H1159 0.932 . S
C1143 U1126 2.882 . S
C1143 C1137 1.428 . S
C1143 O1146 1.301 . S
C1143 O1147 1.282 . S
O1144 U1126 2.497 . S
O1144 C1130 1.241 1_455 S
O1145 U1126 2.420 . S
O1145 C1130 1.202 1_455 S
O1146 U1126 2.455 . S
O1146 C1143 1.301 . S
O1147 U1126 2.449 . S
O1147 C1143 1.282 . S
H1148 C1121 0.931 . S
H1149 C1123 0.929 . S
H1150 C1124 0.930 . S
H1151 C1125 0.931 . S
H1152 C1132 0.932 . S
H1153 C1133 0.930 . S
H1154 C1134 0.929 . S
H1155 C1136 0.930 . S
H1156 C1138 0.932 . S
H1157 C1139 0.929 . S
H1158 C1140 0.928 . S
H1159 C1142 0.932 . S
C1160 C1161 1.264 . S
C1160 C1165 1.479 . S
C1160 C1170 1.465 . S
C1161 C1160 1.264 . S
C1161 C1163 1.339 . S
C1161 H1188 0.931 . S
C1162 C1163 1.395 . S
C1162 C1164 1.320 . S
C1163 C1161 1.339 . S
C1163 C1162 1.395 . S
C1163 H1189 0.929 . S
C1164 C1162 1.320 . S
C1164 C1165 1.405 . S
C1164 H1190 0.930 . S
C1165 C1160 1.479 . S
C1165 C1164 1.405 . S
C1165 H1191 0.931 . S
U1166 O1167 2.454 . S
U1166 O1168 2.458 . S
U1166 C1169 2.984 . S
U1166 C1170 2.847 . S
U1166 C1183 2.882 . S
U1166 O1184 2.441 . S
U1166 O1185 2.420 . S
U1166 O1186 2.455 . S
U1166 O1187 2.449 . S
O1167 U1166 2.454 . S
O1167 C1169 1.353 . S
O1168 U1166 2.458 . S
O1168 C1169 1.286 . S
C1169 U1166 2.984 . S
C1169 O1167 1.353 . S
C1169 O1168 1.286 . S
C1169 C1171 1.363 . S
C1170 C1160 1.465 . S
C1170 U1166 2.847 . S
C1170 O1184 1.249 . S
C1170 O1185 1.202 . S
C1171 C1169 1.363 . S
C1171 C1173 1.408 . S
C1171 C1176 1.342 . S
C1172 C1173 1.310 . S
C1172 C1175 1.461 . S
C1172 H1192 0.932 . S
C1173 C1171 1.408 . S
C1173 C1172 1.310 . S
C1173 H1193 0.930 . S
C1174 C1175 1.474 . S
C1174 C1176 1.285 . S
C1174 H1194 0.929 . S
C1175 C1172 1.461 . S
C1175 C1174 1.474 . S
C1176 C1171 1.342 . S
C1176 C1174 1.285 . S
C1176 H1195 0.930 . S
C1177 C1180 1.424 . S
C1177 C1182 1.245 . S
C1177 C1183 1.428 . S
C1178 C1181 1.260 . S
C1178 C1182 1.477 . S
C1178 H1196 0.932 . S
C1179 C1180 1.384 . S
C1179 C1181 1.479 . S
C1179 H1197 0.929 . S
C1180 C1177 1.424 . S
C1180 C1179 1.384 . S
C1180 H1198 0.928 . S
C1181 C1178 1.260 . S
C1181 C1179 1.479 . S
C1182 C1177 1.245 . S
C1182 C1178 1.477 . S
C1182 H1199 0.932 . S
C1183 U1166 2.882 . S
C1183 C1177 1.428 . S
C1183 O1186 1.301 . S
C1183 O1187 1.282 . S
O1184 U1166 2.441 . S
O1184 C1170 1.249 . S
O1185 U1166 2.420 . S
O1185 C1170 1.202 . S
O1186 U1166 2.455 . S
O1186 C1183 1.301 . S
O1187 U1166 2.449 . S
O1187 C1183 1.282 . S
H1188 C1161 0.931 . S
H1189 C1163 0.929 . S
H1190 C1164 0.930 . S
H1191 C1165 0.931 . S
H1192 C1172 0.932 . S
H1193 C1173 0.930 . S
H1194 C1174 0.929 . S
H1195 C1176 0.930 . S
H1196 C1178 0.932 . S
H1197 C1179 0.929 . S
H1198 C1180 0.928 . S
H1199 C1182 0.932 . S
C1200 C1201 1.264 . S
C1200 C1205 1.479 . S
C1200 C1210 1.465 . S
C1201 C1200 1.264 . S
C1201 C1203 1.339 . S
C1201 H1228 0.931 . S
C1202 C1203 1.395 . S
C1202 C1204 1.320 . S
C1203 C1201 1.339 . S
C1203 C1202 1.395 . S
C1203 H1229 0.929 . S
C1204 C1202 1.320 . S
C1204 C1205 1.405 . S
C1204 H1230 0.930 . S
C1205 C1200 1.479 . S
C1205 C1204 1.405 . S
C1205 H1231 0.931 . S
U1206 O1207 2.454 . S
U1206 O1208 2.458 . S
U1206 C1209 2.984 . S
U1206 C1210 2.847 . S
U1206 C1223 2.882 . S
U1206 O1224 2.441 . S
U1206 O1225 2.420 . S
U1206 O1226 2.455 . S
U1206 O1227 2.449 . S
O1207 U1206 2.454 . S
O1207 C1209 1.353 . S
O1208 U1206 2.458 . S
O1208 C1209 1.286 . S
C1209 U1206 2.984 . S
C1209 O1207 1.353 . S
C1209 O1208 1.286 . S
C1209 C1211 1.363 . S
C1210 C1200 1.465 . S
C1210 U1206 2.847 . S
C1210 O1224 1.249 . S
C1210 O1225 1.202 . S
C1211 C1209 1.363 . S
C1211 C1213 1.408 . S
C1211 C1216 1.342 . S
C1212 C1213 1.310 . S
C1212 C1215 1.461 . S
C1212 H1232 0.932 . S
C1213 C1211 1.408 . S
C1213 C1212 1.310 . S
C1213 H1233 0.930 . S
C1214 C1215 1.474 . S
C1214 C1216 1.285 . S
C1214 H1234 0.929 . S
C1215 C1212 1.461 . S
C1215 C1214 1.474 . S
C1216 C1211 1.342 . S
C1216 C1214 1.285 . S
C1216 H1235 0.930 . S
C1217 C1220 1.424 . S
C1217 C1222 1.245 . S
C1217 C1223 1.428 . S
C1218 C1221 1.260 . S
C1218 C1222 1.477 . S
C1218 H1236 0.932 . S
C1219 C1220 1.384 . S
C1219 C1221 1.479 . S
C1219 H1237 0.929 . S
C1220 C1217 1.424 . S
C1220 C1219 1.384 . S
C1220 H1238 0.928 . S
C1221 C1218 1.260 . S
C1221 C1219 1.479 . S
C1222 C1217 1.245 . S
C1222 C1218 1.477 . S
C1222 H1239 0.932 . S
C1223 U1206 2.882 . S
C1223 C1217 1.428 . S
C1223 O1226 1.301 . S
C1223 O1227 1.282 . S
O1224 U1206 2.441 . S
O1224 C1210 1.249 . S
O1225 U1206 2.420 . S
O1225 C1210 1.202 . S
O1226 U1206 2.455 . S
O1226 C1223 1.301 . S
O1227 U1206 2.449 . S
O1227 C1223 1.282 . S
H1228 C1201 0.931 . S
H1229 C1203 0.929 . S
H1230 C1204 0.930 . S
H1231 C1205 0.931 . S
H1232 C1212 0.932 . S
H1233 C1213 0.930 . S
H1234 C1214 0.929 . S
H1235 C1216 0.930 . S
H1236 C1218 0.932 . S
H1237 C1219 0.929 . S
H1238 C1220 0.928 . S
H1239 C1222 0.932 . S
C1240 C1241 1.264 . S
C1240 C1245 1.479 . S
C1240 C1250 1.465 . S
C1241 C1240 1.264 . S
C1241 C1243 1.339 . S
C1241 H1268 0.931 . S
C1242 C1243 1.395 . S
C1242 C1244 1.320 . S
C1243 C1241 1.339 . S
C1243 C1242 1.395 . S
C1243 H1269 0.929 . S
C1244 C1242 1.320 . S
C1244 C1245 1.405 . S
C1244 H1270 0.930 . S
C1245 C1240 1.479 . S
C1245 C1244 1.405 . S
C1245 H1271 0.931 . S
U1246 O1247 2.454 1_655 S
U1246 O1248 2.458 1_655 S
U1246 C1249 2.984 1_655 S
U1246 C1250 2.847 . S
U1246 C1263 2.882 . S
U1246 O1264 2.441 . S
U1246 O1265 2.420 . S
U1246 O1266 2.455 . S
U1246 O1267 2.449 . S
O1247 U1246 2.454 1_455 S
O1247 C1249 1.353 . S
O1248 U1246 2.458 1_455 S
O1248 C1249 1.286 . S
C1249 U1246 2.984 1_455 S
C1249 O1247 1.353 . S
C1249 O1248 1.286 . S
C1249 C1251 1.363 . S
C1250 C1240 1.465 . S
C1250 U1246 2.847 . S
C1250 O1264 1.249 . S
C1250 O1265 1.202 . S
C1251 C1249 1.363 . S
C1251 C1253 1.408 . S
C1251 C1256 1.342 . S
C1252 C1253 1.310 . S
C1252 C1255 1.461 . S
C1252 H1272 0.932 . S
C1253 C1251 1.408 . S
C1253 C1252 1.310 . S
C1253 H1273 0.930 . S
C1254 C1255 1.474 . S
C1254 C1256 1.285 . S
C1254 H1274 0.929 . S
C1255 C1252 1.461 . S
C1255 C1254 1.474 . S
C1256 C1251 1.342 . S
C1256 C1254 1.285 . S
C1256 H1275 0.930 . S
C1257 C1260 1.424 . S
C1257 C1262 1.245 . S
C1257 C1263 1.428 . S
C1258 C1261 1.260 . S
C1258 C1262 1.477 . S
C1258 H1276 0.932 . S
C1259 C1260 1.384 . S
C1259 C1261 1.479 . S
C1259 H1277 0.929 . S
C1260 C1257 1.424 . S
C1260 C1259 1.384 . S
C1260 H1278 0.928 . S
C1261 C1258 1.260 . S
C1261 C1259 1.479 . S
C1262 C1257 1.245 . S
C1262 C1258 1.477 . S
C1262 H1279 0.932 . S
C1263 U1246 2.882 . S
C1263 C1257 1.428 . S
C1263 O1266 1.301 . S
C1263 O1267 1.282 . S
O1264 U1246 2.441 . S
O1264 C1250 1.249 . S
O1265 U1246 2.420 . S
O1265 C1250 1.202 . S
O1266 U1246 2.455 . S
O1266 C1263 1.301 . S
O1267 U1246 2.449 . S
O1267 C1263 1.282 . S
H1268 C1241 0.931 . S
H1269 C1243 0.929 . S
H1270 C1244 0.930 . S
H1271 C1245 0.931 . S
H1272 C1252 0.932 . S
H1273 C1253 0.930 . S
H1274 C1254 0.929 . S
H1275 C1256 0.930 . S
H1276 C1258 0.932 . S
H1277 C1259 0.929 . S
H1278 C1260 0.928 . S
H1279 C1262 0.932 . S
C1280 C1281 1.264 . S
C1280 C1285 1.479 . S
C1280 C1290 1.465 . S
C1281 C1280 1.264 . S
C1281 C1283 1.339 . S
C1281 H1308 0.931 . S
C1282 C1283 1.395 . S
C1282 C1284 1.320 . S
C1283 C1281 1.339 . S
C1283 C1282 1.395 . S
C1283 H1309 0.929 . S
C1284 C1282 1.320 . S
C1284 C1285 1.405 . S
C1284 H1310 0.930 . S
C1285 C1280 1.479 . S
C1285 C1284 1.405 . S
C1285 H1311 0.931 . S
U1286 O1287 2.454 . S
U1286 O1288 2.458 . S
U1286 C1289 2.984 . S
U1286 C1290 2.847 . S
U1286 C1303 2.882 . S
U1286 O1304 2.441 . S
U1286 O1305 2.420 . S
U1286 O1306 2.455 . S
U1286 O1307 2.449 . S
O1287 U1286 2.454 . S
O1287 C1289 1.353 . S
O1288 U1286 2.458 . S
O1288 C1289 1.286 . S
C1289 U1286 2.984 . S
C1289 O1287 1.353 . S
C1289 O1288 1.286 . S
C1289 C1291 1.363 . S
C1290 C1280 1.465 . S
C1290 U1286 2.847 . S
C1290 O1304 1.249 . S
C1290 O1305 1.202 . S
C1291 C1289 1.363 . S
C1291 C1293 1.408 . S
C1291 C1296 1.342 . S
C1292 C1293 1.310 . S
C1292 C1295 1.461 . S
C1292 H1312 0.932 . S
C1293 C1291 1.408 . S
C1293 C1292 1.310 . S
C1293 H1313 0.930 . S
C1294 C1295 1.474 . S
C1294 C1296 1.285 . S
C1294 H1314 0.929 . S
C1295 C1292 1.461 . S
C1295 C1294 1.474 . S
C1296 C1291 1.342 . S
C1296 C1294 1.285 . S
C1296 H1315 0.930 . S
C1297 C1300 1.424 . S
C1297 C1302 1.245 . S
C1297 C1303 1.428 . S
C1298 C1301 1.260 . S
C1298 C1302 1.477 . S
C1298 H1316 0.932 . S
C1299 C1300 1.384 . S
C1299 C1301 1.479 . S
C1299 H1317 0.929 . S
C1300 C1297 1.424 . S
C1300 C1299 1.384 . S
C1300 H1318 0.928 . S
C1301 C1298 1.260 . S
C1301 C1299 1.479 . S
C1302 C1297 1.245 . S
C1302 C1298 1.477 . S
C1302 H1319 0.932 . S
C1303 U1286 2.882 . S
C1303 C1297 1.428 . S
C1303 O1306 1.301 . S
C1303 O1307 1.282 . S
O1304 U1286 2.441 . S
O1304 C1290 1.249 . S
O1305 U1286 2.420 . S
O1305 C1290 1.202 . S
O1306 U1286 2.455 . S
O1306 C1303 1.301 . S
O1307 U1286 2.449 . S
O1307 C1303 1.282 . S
H1308 C1281 0.931 . S
H1309 C1283 0.929 . S
H1310 C1284 0.930 . S
H1311 C1285 0.931 . S
H1312 C1292 0.932 . S
H1313 C1293 0.930 . S
H1314 C1294 0.929 . S
H1315 C1296 0.930 . S
H1316 C1298 0.932 . S
H1317 C1299 0.929 . S
H1318 C1300 0.928 . S
H1319 C1302 0.932 . S
C1320 C1321 1.264 . S
C1320 C1325 1.479 . S
C1320 C1330 1.465 . S
C1321 C1320 1.264 . S
C1321 C1323 1.339 . S
C1321 H1348 0.931 . S
C1322 C1323 1.395 . S
C1322 C1324 1.320 . S
C1323 C1321 1.339 . S
C1323 C1322 1.395 . S
C1323 H1349 0.929 . S
C1324 C1322 1.320 . S
C1324 C1325 1.405 . S
C1324 H1350 0.930 . S
C1325 C1320 1.479 . S
C1325 C1324 1.405 . S
C1325 H1351 0.931 . S
U1326 O1327 2.454 . S
U1326 O1328 2.458 . S
U1326 C1329 2.984 . S
U1326 C1330 2.847 . S
U1326 C1343 2.882 . S
U1326 O1344 2.441 . S
U1326 O1345 2.420 . S
U1326 O1346 2.455 . S
U1326 O1347 2.449 . S
O1327 U1326 2.454 . S
O1327 C1329 1.353 . S
O1328 U1326 2.458 . S
O1328 C1329 1.286 . S
C1329 U1326 2.984 . S
C1329 O1327 1.353 . S
C1329 O1328 1.286 . S
C1329 C1331 1.363 . S
C1330 C1320 1.465 . S
C1330 U1326 2.847 . S
C1330 O1344 1.249 . S
C1330 O1345 1.202 . S
C1331 C1329 1.363 . S
C1331 C1333 1.395 1_556 S
C1331 C1336 1.342 . S
C1332 C1333 1.328 . S
C1332 C1335 1.461 . S
C1332 H1352 0.932 . S
C1333 C1331 1.395 1_554 S
C1333 C1332 1.328 . S
C1333 H1353 0.925 1_554 S
C1334 C1335 1.474 . S
C1334 C1336 1.285 1_554 S
C1334 H1354 0.929 . S
C1335 C1332 1.461 . S
C1335 C1334 1.474 . S
C1336 C1331 1.342 . S
C1336 C1334 1.285 1_556 S
C1336 H1355 0.930 . S
C1337 C1340 1.424 . S
C1337 C1342 1.245 . S
C1337 C1343 1.428 . S
C1338 C1341 1.260 . S
C1338 C1342 1.477 . S
C1338 H1356 0.932 . S
C1339 C1340 1.384 . S
C1339 C1341 1.479 . S
C1339 H1357 0.929 . S
C1340 C1337 1.424 . S
C1340 C1339 1.384 . S
C1340 H1358 0.928 . S
C1341 C1338 1.260 . S
C1341 C1339 1.479 . S
C1342 C1337 1.245 . S
C1342 C1338 1.477 . S
C1342 H1359 0.932 . S
C1343 U1326 2.882 . S
C1343 C1337 1.428 . S
C1343 O1346 1.301 . S
C1343 O1347 1.282 . S
O1344 U1326 2.441 . S
O1344 C1330 1.249 . S
O1345 U1326 2.420 . S
O1345 C1330 1.202 . S
O1346 U1326 2.455 . S
O1346 C1343 1.301 . S
O1347 U1326 2.449 . S
O1347 C1343 1.282 . S
H1348 C1321 0.931 . S
H1349 C1323 0.929 . S
H1350 C1324 0.930 . S
H1351 C1325 0.931 . S
H1352 C1332 0.932 . S
H1353 C1333 0.925 1_556 S
H1354 C1334 0.929 . S
H1355 C1336 0.930 . S
H1356 C1338 0.932 . S
H1357 C1339 0.929 . S
H1358 C1340 0.928 . S
H1359 C1342 0.932 . S
C1360 C1361 1.264 . S
C1360 C1365 1.479 . S
C1360 C1370 1.465 . S
C1361 C1360 1.264 . S
C1361 C1363 1.339 . S
C1361 H1388 0.931 . S
C1362 C1363 1.395 . S
C1362 C1364 1.320 . S
C1363 C1361 1.339 . S
C1363 C1362 1.395 . S
C1363 H1389 0.929 . S
C1364 C1362 1.320 . S
C1364 C1365 1.405 . S
C1364 H1390 0.930 . S
C1365 C1360 1.479 . S
C1365 C1364 1.405 . S
C1365 H1391 0.931 . S
U1366 O1367 2.454 . S
U1366 O1368 2.458 . S
U1366 C1369 2.984 . S
U1366 C1370 2.847 . S
U1366 C1383 2.882 . S
U1366 O1384 2.441 . S
U1366 O1385 2.420 . S
U1366 O1386 2.455 . S
U1366 O1387 2.449 . S
O1367 U1366 2.454 . S
O1367 C1369 1.353 . S
O1368 U1366 2.458 . S
O1368 C1369 1.286 . S
C1369 U1366 2.984 . S
C1369 O1367 1.353 . S
C1369 O1368 1.286 . S
C1369 C1371 1.363 . S
C1370 C1360 1.465 . S
C1370 U1366 2.847 . S
C1370 O1384 1.249 . S
C1370 O1385 1.202 . S
C1371 C1369 1.363 . S
C1371 C1373 1.408 . S
C1371 C1376 1.342 . S
C1372 C1373 1.310 . S
C1372 C1375 1.461 . S
C1372 H1392 0.932 . S
C1373 C1371 1.408 . S
C1373 C1372 1.310 . S
C1373 H1393 0.930 . S
C1374 C1375 1.474 . S
C1374 C1376 1.285 . S
C1374 H1394 0.929 . S
C1375 C1372 1.461 . S
C1375 C1374 1.474 . S
C1376 C1371 1.342 . S
C1376 C1374 1.285 . S
C1376 H1395 0.930 . S
C1377 C1380 1.424 . S
C1377 C1382 1.245 . S
C1377 C1383 1.428 . S
C1378 C1381 1.260 . S
C1378 C1382 1.477 . S
C1378 H1396 0.932 . S
C1379 C1380 1.384 . S
C1379 C1381 1.479 . S
C1379 H1397 0.929 . S
C1380 C1377 1.424 . S
C1380 C1379 1.384 . S
C1380 H1398 0.928 . S
C1381 C1378 1.260 . S
C1381 C1379 1.479 . S
C1382 C1377 1.245 . S
C1382 C1378 1.477 . S
C1382 H1399 0.932 . S
C1383 U1366 2.882 . S
C1383 C1377 1.428 . S
C1383 O1386 1.301 . S
C1383 O1387 1.282 . S
O1384 U1366 2.441 . S
O1384 C1370 1.249 . S
O1385 U1366 2.420 . S
O1385 C1370 1.202 . S
O1386 U1366 2.455 . S
O1386 C1383 1.301 . S
O1387 U1366 2.449 . S
O1387 C1383 1.282 . S
H1388 C1361 0.931 . S
H1389 C1363 0.929 . S
H1390 C1364 0.930 . S
H1391 C1365 0.931 . S
H1392 C1372 0.932 . S
H1393 C1373 0.930 . S
H1394 C1374 0.929 . S
H1395 C1376 0.930 . S
H1396 C1378 0.932 . S
H1397 C1379 0.929 . S
H1398 C1380 0.928 . S
H1399 C1382 0.932 . S
C1400 C1401 1.264 . S
C1400 C1405 1.479 . S
C1400 C1410 1.465 . S
C1401 C1400 1.264 . S
C1401 C1403 1.339 . S
C1401 H1428 0.931 . S
C1402 C1403 1.395 . S
C1402 C1404 1.320 . S
C1403 C1401 1.339 . S
C1403 C1402 1.395 . S
C1403 H1429 0.929 . S
C1404 C1402 1.320 . S
C1404 C1405 1.405 . S
C1404 H1430 0.930 . S
C1405 C1400 1.479 . S
C1405 C1404 1.405 . S
C1405 H1431 0.931 . S
U1406 O1407 2.454 . S
U1406 O1408 2.458 . S
U1406 C1409 2.984 . S
U1406 C1410 2.847 . S
U1406 C1423 2.882 . S
U1406 O1424 2.441 . S
U1406 O1425 2.420 . S
U1406 O1426 2.455 . S
U1406 O1427 2.449 . S
O1407 U1406 2.454 . S
O1407 C1409 1.353 . S
O1408 U1406 2.458 . S
O1408 C1409 1.286 . S
C1409 U1406 2.984 . S
C1409 O1407 1.353 . S
C1409 O1408 1.286 . S
C1409 C1411 1.363 . S
C1410 C1400 1.465 . S
C1410 U1406 2.847 . S
C1410 O1424 1.249 . S
C1410 O1425 1.202 . S
C1411 C1409 1.363 . S
C1411 C1413 1.408 . S
C1411 C1416 1.342 . S
C1412 C1413 1.310 . S
C1412 C1415 1.461 . S
C1412 H1432 0.932 . S
C1413 C1411 1.408 . S
C1413 C1412 1.310 . S
C1413 H1433 0.930 . S
C1414 C1415 1.474 . S
C1414 C1416 1.285 . S
C1414 H1434 0.929 . S
C1415 C1412 1.461 . S
C1415 C1414 1.474 . S
C1416 C1411 1.342 . S
C1416 C1414 1.285 . S
C1416 H1435 0.930 . S
C1417 C1420 1.424 . S
C1417 C1422 1.245 . S
C1417 C1423 1.428 . S
C1418 C1421 1.260 . S
C1418 C1422 1.477 . S
C1418 H1436 0.932 . S
C1419 C1420 1.384 . S
C1419 C1421 1.479 . S
C1419 H1437 0.929 . S
C1420 C1417 1.424 . S
C1420 C1419 1.384 . S
C1420 H1438 0.928 . S
C1421 C1418 1.260 . S
C1421 C1419 1.479 . S
C1422 C1417 1.245 . S
C1422 C1418 1.477 . S
C1422 H1439 0.932 . S
C1423 U1406 2.882 . S
C1423 C1417 1.428 . S
C1423 O1426 1.301 . S
C1423 O1427 1.282 . S
O1424 U1406 2.441 . S
O1424 C1410 1.249 . S
O1425 U1406 2.420 . S
O1425 C1410 1.202 . S
O1426 U1406 2.455 . S
O1426 C1423 1.301 . S
O1427 U1406 2.449 . S
O1427 C1423 1.282 . S
H1428 C1401 0.931 . S
H1429 C1403 0.929 . S
H1430 C1404 0.930 . S
H1431 C1405 0.931 . S
H1432 C1412 0.932 . S
H1433 C1413 0.930 . S
H1434 C1414 0.929 . S
H1435 C1416 0.930 . S
H1436 C1418 0.932 . S
H1437 C1419 0.929 . S
H1438 C1420 0.928 . S
H1439 C1422 0.932 . S
C1440 C1441 1.264 . S
C1440 C1445 1.479 . S
C1440 C1450 1.465 . S
C1441 C1440 1.264 . S
C1441 C1443 1.339 . S
C1441 H1468 0.931 . S
C1442 C1443 1.395 . S
C1442 C1444 1.320 . S
C1443 C1441 1.339 . S
C1443 C1442 1.395 . S
C1443 H1469 0.929 . S
C1444 C1442 1.320 . S
C1444 C1445 1.405 . S
C1444 H1470 0.930 . S
C1445 C1440 1.479 . S
C1445 C1444 1.405 . S
C1445 H1471 0.931 . S
U1446 O1447 2.454 . S
U1446 O1448 2.458 . S
U1446 C1449 2.984 . S
U1446 C1450 2.847 . S
U1446 C1463 2.882 . S
U1446 O1464 2.441 . S
U1446 O1465 2.420 . S
U1446 O1466 2.455 . S
U1446 O1467 2.449 . S
O1447 U1446 2.454 . S
O1447 C1449 1.353 . S
O1448 U1446 2.458 . S
O1448 C1449 1.286 . S
C1449 U1446 2.984 . S
C1449 O1447 1.353 . S
C1449 O1448 1.286 . S
C1449 C1451 1.363 . S
C1450 C1440 1.465 . S
C1450 U1446 2.847 . S
C1450 O1464 1.249 . S
C1450 O1465 1.202 . S
C1451 C1449 1.363 . S
C1451 C1453 1.408 . S
C1451 C1456 1.342 . S
C1452 C1453 1.310 . S
C1452 C1455 1.461 . S
C1452 H1472 0.932 . S
C1453 C1451 1.408 . S
C1453 C1452 1.310 . S
C1453 H1473 0.930 . S
C1454 C1455 1.474 . S
C1454 C1456 1.285 . S
C1454 H1474 0.929 . S
C1455 C1452 1.461 . S
C1455 C1454 1.474 . S
C1456 C1451 1.342 . S
C1456 C1454 1.285 . S
C1456 H1475 0.930 . S
C1457 C1460 1.424 . S
C1457 C1462 1.245 . S
C1457 C1463 1.428 . S
C1458 C1461 1.260 . S
C1458 C1462 1.477 . S
C1458 H1476 0.932 . S
C1459 C1460 1.384 . S
C1459 C1461 1.479 . S
C1459 H1477 0.929 . S
C1460 C1457 1.424 . S
C1460 C1459 1.384 . S
C1460 H1478 0.928 . S
C1461 C1458 1.260 . S
C1461 C1459 1.479 . S
C1462 C1457 1.245 . S
C1462 C1458 1.477 . S
C1462 H1479 0.932 . S
C1463 U1446 2.882 . S
C1463 C1457 1.428 . S
C1463 O1466 1.301 . S
C1463 O1467 1.282 . S
O1464 U1446 2.441 . S
O1464 C1450 1.249 . S
O1465 U1446 2.420 . S
O1465 C1450 1.202 . S
O1466 U1446 2.455 . S
O1466 C1463 1.301 . S
O1467 U1446 2.449 . S
O1467 C1463 1.282 . S
H1468 C1441 0.931 . S
H1469 C1443 0.929 . S
H1470 C1444 0.930 . S
H1471 C1445 0.931 . S
H1472 C1452 0.932 . S
H1473 C1453 0.930 . S
H1474 C1454 0.929 . S
H1475 C1456 0.930 . S
H1476 C1458 0.932 . S
H1477 C1459 0.929 . S
H1478 C1460 0.928 . S
H1479 C1462 0.932 . S
C1480 C1481 1.264 . S
C1480 C1485 1.479 . S
C1480 C1490 1.465 . S
C1481 C1480 1.264 . S
C1481 C1483 1.339 . S
C1481 H1508 0.931 . S
C1482 C1483 1.395 . S
C1482 C1484 1.320 . S
C1483 C1481 1.339 . S
C1483 C1482 1.395 . S
C1483 H1509 0.929 . S
C1484 C1482 1.320 . S
C1484 C1485 1.405 . S
C1484 H1510 0.930 . S
C1485 C1480 1.479 . S
C1485 C1484 1.405 . S
C1485 H1511 0.931 . S
U1486 O1487 2.454 . S
U1486 O1488 2.458 . S
U1486 C1489 2.984 . S
U1486 C1490 2.847 . S
U1486 C1503 2.882 . S
U1486 O1504 2.441 . S
U1486 O1505 2.420 . S
U1486 O1506 2.455 . S
U1486 O1507 2.449 . S
O1487 U1486 2.454 . S
O1487 C1489 1.353 . S
O1488 U1486 2.458 . S
O1488 C1489 1.286 . S
C1489 U1486 2.984 . S
C1489 O1487 1.353 . S
C1489 O1488 1.286 . S
C1489 C1491 1.363 . S
C1490 C1480 1.465 . S
C1490 U1486 2.847 . S
C1490 O1504 1.249 . S
C1490 O1505 1.202 . S
C1491 C1489 1.363 . S
C1491 C1493 1.408 . S
C1491 C1496 1.342 . S
C1492 C1493 1.310 . S
C1492 C1495 1.461 . S
C1492 H1512 0.932 . S
C1493 C1491 1.408 . S
C1493 C1492 1.310 . S
C1493 H1513 0.930 . S
C1494 C1495 1.474 . S
C1494 C1496 1.285 . S
C1494 H1514 0.929 . S
C1495 C1492 1.461 . S
C1495 C1494 1.474 . S
C1496 C1491 1.342 . S
C1496 C1494 1.285 . S
C1496 H1515 0.930 . S
C1497 C1500 1.424 . S
C1497 C1502 1.245 . S
C1497 C1503 1.428 . S
C1498 C1501 1.260 . S
C1498 C1502 1.477 . S
C1498 H1516 0.932 . S
C1499 C1500 1.384 . S
C1499 C1501 1.479 . S
C1499 H1517 0.929 . S
C1500 C1497 1.424 . S
C1500 C1499 1.384 . S
C1500 H1518 0.928 . S
C1501 C1498 1.260 . S
C1501 C1499 1.479 . S
C1502 C1497 1.245 . S
C1502 C1498 1.477 . S
C1502 H1519 0.932 . S
C1503 U1486 2.882 . S
C1503 C1497 1.428 . S
C1503 O1506 1.301 . S
C1503 O1507 1.282 . S
O1504 U1486 2.441 . S
O1504 C1490 1.249 . S
O1505 U1486 2.420 . S
O1505 C1490 1.202 . S
O1506 U1486 2.455 . S
O1506 C1503 1.301 . S
O1507 U1486 2.449 . S
O1507 C1503 1.282 . S
H1508 C1481 0.931 . S
H1509 C1483 0.929 . S
H1510 C1484 0.930 . S
H1511 C1485 0.931 . S
H1512 C1492 0.932 . S
H1513 C1493 0.930 . S
H1514 C1494 0.929 . S
H1515 C1496 0.930 . S
H1516 C1498 0.932 . S
H1517 C1499 0.929 . S
H1518 C1500 0.928 . S
H1519 C1502 0.932 . S
C1520 C1521 1.264 . S
C1520 C1525 1.479 . S
C1520 C1530 1.465 . S
C1521 C1520 1.264 . S
C1521 C1523 1.339 . S
C1521 H1548 0.931 . S
C1522 C1523 1.395 . S
C1522 C1524 1.320 . S
C1523 C1521 1.339 . S
C1523 C1522 1.395 . S
C1523 H1549 0.929 . S
C1524 C1522 1.320 . S
C1524 C1525 1.405 . S
C1524 H1550 0.930 . S
C1525 C1520 1.479 . S
C1525 C1524 1.405 . S
C1525 H1551 0.931 . S
U1526 O1527 2.454 . S
U1526 O1528 2.458 . S
U1526 C1529 2.984 . S
U1526 C1530 2.847 . S
U1526 C1543 2.882 . S
U1526 O1544 2.441 . S
U1526 O1545 2.420 . S
U1526 O1546 2.455 . S
U1526 O1547 2.449 . S
O1527 U1526 2.454 . S
O1527 C1529 1.353 . S
O1528 U1526 2.458 . S
O1528 C1529 1.286 . S
C1529 U1526 2.984 . S
C1529 O1527 1.353 . S
C1529 O1528 1.286 . S
C1529 C1531 1.363 . S
C1530 C1520 1.465 . S
C1530 U1526 2.847 . S
C1530 O1544 1.249 . S
C1530 O1545 1.202 . S
C1531 C1529 1.363 . S
C1531 C1533 1.408 . S
C1531 C1536 1.342 . S
C1532 C1533 1.310 . S
C1532 C1535 1.461 . S
C1532 H1552 0.932 . S
C1533 C1531 1.408 . S
C1533 C1532 1.310 . S
C1533 H1553 0.930 . S
C1534 C1535 1.474 . S
C1534 C1536 1.285 . S
C1534 H1554 0.929 . S
C1535 C1532 1.461 . S
C1535 C1534 1.474 . S
C1536 C1531 1.342 . S
C1536 C1534 1.285 . S
C1536 H1555 0.930 . S
C1537 C1540 1.424 . S
C1537 C1542 1.245 . S
C1537 C1543 1.428 . S
C1538 C1541 1.260 . S
C1538 C1542 1.477 . S
C1538 H1556 0.932 . S
C1539 C1540 1.384 . S
C1539 C1541 1.479 . S
C1539 H1557 0.929 . S
C1540 C1537 1.424 . S
C1540 C1539 1.384 . S
C1540 H1558 0.928 . S
C1541 C1538 1.260 . S
C1541 C1539 1.479 . S
C1542 C1537 1.245 . S
C1542 C1538 1.477 . S
C1542 H1559 0.932 . S
C1543 U1526 2.882 . S
C1543 C1537 1.428 . S
C1543 O1546 1.301 . S
C1543 O1547 1.282 . S
O1544 U1526 2.441 . S
O1544 C1530 1.249 . S
O1545 U1526 2.420 . S
O1545 C1530 1.202 . S
O1546 U1526 2.455 . S
O1546 C1543 1.301 . S
O1547 U1526 2.449 . S
O1547 C1543 1.282 . S
H1548 C1521 0.931 . S
H1549 C1523 0.929 . S
H1550 C1524 0.930 . S
H1551 C1525 0.931 . S
H1552 C1532 0.932 . S
H1553 C1533 0.930 . S
H1554 C1534 0.929 . S
H1555 C1536 0.930 . S
H1556 C1538 0.932 . S
H1557 C1539 0.929 . S
H1558 C1540 0.928 . S
H1559 C1542 0.932 . S
C1560 C1561 1.264 . S
C1560 C1565 1.479 . S
C1560 C1570 1.465 . S
C1561 C1560 1.264 . S
C1561 C1563 1.339 . S
C1561 H1588 0.931 . S
C1562 C1563 1.395 . S
C1562 C1564 1.320 . S
C1563 C1561 1.339 . S
C1563 C1562 1.395 . S
C1563 H1589 0.929 . S
C1564 C1562 1.320 . S
C1564 C1565 1.405 . S
C1564 H1590 0.930 . S
C1565 C1560 1.479 . S
C1565 C1564 1.405 . S
C1565 H1591 0.931 . S
U1566 O1567 2.454 . S
U1566 O1568 2.458 . S
U1566 C1569 2.984 . S
U1566 C1570 2.847 . S
U1566 C1583 2.882 . S
U1566 O1584 2.441 . S
U1566 O1585 2.420 . S
U1566 O1586 2.455 . S
U1566 O1587 2.449 . S
O1567 U1566 2.454 . S
O1567 C1569 1.353 . S
O1568 U1566 2.458 . S
O1568 C1569 1.286 . S
C1569 U1566 2.984 . S
C1569 O1567 1.353 . S
C1569 O1568 1.286 . S
C1569 C1571 1.363 . S
C1570 C1560 1.465 . S
C1570 U1566 2.847 . S
C1570 O1584 1.249 . S
C1570 O1585 1.202 . S
C1571 C1569 1.363 . S
C1571 C1573 1.408 . S
C1571 C1576 1.342 . S
C1572 C1573 1.310 . S
C1572 C1575 1.461 . S
C1572 H1592 0.932 . S
C1573 C1571 1.408 . S
C1573 C1572 1.310 . S
C1573 H1593 0.930 . S
C1574 C1575 1.474 . S
C1574 C1576 1.285 . S
C1574 H1594 0.929 . S
C1575 C1572 1.461 . S
C1575 C1574 1.474 . S
C1576 C1571 1.342 . S
C1576 C1574 1.285 . S
C1576 H1595 0.930 . S
C1577 C1580 1.424 . S
C1577 C1582 1.245 . S
C1577 C1583 1.428 . S
C1578 C1581 1.260 . S
C1578 C1582 1.477 . S
C1578 H1596 0.932 . S
C1579 C1580 1.384 . S
C1579 C1581 1.479 . S
C1579 H1597 0.929 . S
C1580 C1577 1.424 . S
C1580 C1579 1.384 . S
C1580 H1598 0.928 . S
C1581 C1578 1.260 . S
C1581 C1579 1.479 . S
C1582 C1577 1.245 . S
C1582 C1578 1.477 . S
C1582 H1599 0.932 . S
C1583 U1566 2.882 . S
C1583 C1577 1.428 . S
C1583 O1586 1.301 . S
C1583 O1587 1.282 . S
O1584 U1566 2.441 . S
O1584 C1570 1.249 . S
O1585 U1566 2.420 . S
O1585 C1570 1.202 . S
O1586 U1566 2.455 . S
O1586 C1583 1.301 . S
O1587 U1566 2.449 . S
O1587 C1583 1.282 . S
H1588 C1561 0.931 . S
H1589 C1563 0.929 . S
H1590 C1564 0.930 . S
H1591 C1565 0.931 . S
H1592 C1572 0.932 . S
H1593 C1573 0.930 . S
H1594 C1574 0.929 . S
H1595 C1576 0.930 . S
H1596 C1578 0.932 . S
H1597 C1579 0.929 . S
H1598 C1580 0.928 . S
H1599 C1582 0.932 . S
C1600 C1601 1.264 . S
C1600 C1605 1.479 . S
C1600 C1610 1.465 . S
C1601 C1600 1.264 . S
C1601 C1603 1.339 . S
C1601 H1628 0.931 . S
C1602 C1603 1.395 . S
C1602 C1604 1.320 . S
C1603 C1601 1.339 . S
C1603 C1602 1.395 . S
C1603 H1629 0.929 . S
C1604 C1602 1.320 . S
C1604 C1605 1.405 . S
C1604 H1630 0.930 . S
C1605 C1600 1.479 . S
C1605 C1604 1.405 . S
C1605 H1631 0.931 . S
U1606 O1607 2.454 . S
U1606 O1608 2.458 . S
U1606 C1609 2.984 . S
U1606 C1610 2.847 1_455 S
U1606 C1623 2.882 . S
U1606 O1624 2.441 1_455 S
U1606 O1625 2.420 . S
U1606 O1626 2.455 . S
U1606 O1627 2.449 . S
O1607 U1606 2.454 . S
O1607 C1609 1.353 . S
O1608 U1606 2.458 . S
O1608 C1609 1.286 . S
C1609 U1606 2.984 . S
C1609 O1607 1.353 . S
C1609 O1608 1.286 . S
C1609 C1611 1.363 . S
C1610 C1600 1.465 . S
C1610 U1606 2.847 1_655 S
C1610 O1624 1.249 . S
C1610 O1625 1.202 1_655 S
C1611 C1609 1.363 . S
C1611 C1613 1.408 . S
C1611 C1616 1.342 . S
C1612 C1613 1.310 . S
C1612 C1615 1.461 . S
C1612 H1632 0.932 . S
C1613 C1611 1.408 . S
C1613 C1612 1.310 . S
C1613 H1633 0.930 . S
C1614 C1615 1.474 . S
C1614 C1616 1.285 . S
C1614 H1634 0.929 . S
C1615 C1612 1.461 . S
C1615 C1614 1.474 . S
C1616 C1611 1.342 . S
C1616 C1614 1.285 . S
C1616 H1635 0.930 . S
C1617 C1620 1.424 . S
C1617 C1622 1.245 . S
C1617 C1623 1.428 . S
C1618 C1621 1.260 . S
C1618 C1622 1.477 . S
C1618 H1636 0.932 . S
C1619 C1620 1.384 . S
C1619 C1621 1.479 . S
C1619 H1637 0.929 . S
C1620 C1617 1.424 . S
C1620 C1619 1.384 . S
C1620 H1638 0.928 . S
C1621 C1618 1.260 . S
C1621 C1619 1.479 . S
C1622 C1617 1.245 . S
C1622 C1618 1.477 . S
C1622 H1639 0.932 . S
C1623 U1606 2.882 . S
C1623 C1617 1.428 . S
C1623 O1626 1.301 . S
C1623 O1627 1.282 . S
O1624 U1606 2.441 1_655 S
O1624 C1610 1.249 . S
O1625 U1606 2.420 . S
O1625 C1610 1.202 1_455 S
O1626 U1606 2.455 . S
O1626 C1623 1.301 . S
O1627 U1606 2.449 . S
O1627 C1623 1.282 . S
H1628 C1601 0.931 . S
H1629 C1603 0.929 . S
H1630 C1604 0.930 . S
H1631 C1605 0.931 . S
H1632 C1612 0.932 . S
H1633 C1613 0.930 . S
H1634 C1614 0.929 . S
H1635 C1616 0.930 . S
H1636 C1618 0.932 . S
H1637 C1619 0.929 . S
H1638 C1620 0.928 . S
H1639 C1622 0.932 . S
C1640 C1641 1.264 . S
C1640 C1645 1.479 . S
C1640 C1650 1.465 . S
C1641 C1640 1.264 . S
C1641 C1643 1.339 . S
C1641 H1668 0.931 . S
C1642 C1643 1.395 . S
C1642 C1644 1.320 . S
C1643 C1641 1.339 . S
C1643 C1642 1.395 . S
C1643 H1669 0.929 . S
C1644 C1642 1.320 . S
C1644 C1645 1.405 . S
C1644 H1670 0.930 . S
C1645 C1640 1.479 . S
C1645 C1644 1.405 . S
C1645 H1671 0.931 . S
U1646 O1647 2.454 . S
U1646 O1648 2.458 . S
U1646 C1649 2.984 . S
U1646 C1650 2.847 . S
U1646 C1663 2.882 . S
U1646 O1664 2.441 . S
U1646 O1665 2.420 . S
U1646 O1666 2.455 . S
U1646 O1667 2.449 . S
O1647 U1646 2.454 . S
O1647 C1649 1.353 . S
O1648 U1646 2.458 . S
O1648 C1649 1.286 . S
C1649 U1646 2.984 . S
C1649 O1647 1.353 . S
C1649 O1648 1.286 . S
C1649 C1651 1.363 . S
C1650 C1640 1.465 . S
C1650 U1646 2.847 . S
C1650 O1664 1.249 . S
C1650 O1665 1.202 . S
C1651 C1649 1.363 . S
C1651 C1653 1.408 . S
C1651 C1656 1.342 . S
C1652 C1653 1.310 . S
C1652 C1655 1.461 . S
C1652 H1672 0.932 . S
C1653 C1651 1.408 . S
C1653 C1652 1.310 . S
C1653 H1673 0.930 . S
C1654 C1655 1.474 . S
C1654 C1656 1.285 . S
C1654 H1674 0.929 . S
C1655 C1652 1.461 . S
C1655 C1654 1.474 . S
C1656 C1651 1.342 . S
C1656 C1654 1.285 . S
C1656 H1675 0.930 . S
C1657 C1660 1.424 . S
C1657 C1662 1.245 . S
C1657 C1663 1.428 . S
C1658 C1661 1.260 . S
C1658 C1662 1.477 . S
C1658 H1676 0.932 . S
C1659 C1660 1.384 . S
C1659 C1661 1.479 . S
C1659 H1677 0.929 . S
C1660 C1657 1.424 . S
C1660 C1659 1.384 . S
C1660 H1678 0.928 . S
C1661 C1658 1.260 . S
C1661 C1659 1.479 . S
C1662 C1657 1.245 . S
C1662 C1658 1.477 . S
C1662 H1679 0.932 . S
C1663 U1646 2.882 . S
C1663 C1657 1.428 . S
C1663 O1666 1.301 . S
C1663 O1667 1.282 . S
O1664 U1646 2.441 . S
O1664 C1650 1.249 . S
O1665 U1646 2.420 . S
O1665 C1650 1.202 . S
O1666 U1646 2.455 . S
O1666 C1663 1.301 . S
O1667 U1646 2.449 . S
O1667 C1663 1.282 . S
H1668 C1641 0.931 . S
H1669 C1643 0.929 . S
H1670 C1644 0.930 . S
H1671 C1645 0.931 . S
H1672 C1652 0.932 . S
H1673 C1653 0.930 . S
H1674 C1654 0.929 . S
H1675 C1656 0.930 . S
H1676 C1658 0.932 . S
H1677 C1659 0.929 . S
H1678 C1660 0.928 . S
H1679 C1662 0.932 . S
C1680 C1681 1.264 . S
C1680 C1685 1.479 . S
C1680 C1690 1.465 . S
C1681 C1680 1.264 . S
C1681 C1683 1.339 . S
C1681 H1708 0.931 . S
C1682 C1683 1.395 . S
C1682 C1684 1.320 . S
C1683 C1681 1.339 . S
C1683 C1682 1.395 . S
C1683 H1709 0.929 . S
C1684 C1682 1.320 . S
C1684 C1685 1.405 . S
C1684 H1710 0.930 . S
C1685 C1680 1.479 . S
C1685 C1684 1.405 . S
C1685 H1711 0.931 . S
U1686 O1687 2.454 . S
U1686 O1688 2.458 . S
U1686 C1689 2.984 . S
U1686 C1690 2.847 . S
U1686 C1703 2.882 . S
U1686 O1704 2.441 . S
U1686 O1705 2.420 . S
U1686 O1706 2.455 . S
U1686 O1707 2.449 . S
O1687 U1686 2.454 . S
O1687 C1689 1.353 . S
O1688 U1686 2.458 . S
O1688 C1689 1.286 . S
C1689 U1686 2.984 . S
C1689 O1687 1.353 . S
C1689 O1688 1.286 . S
C1689 C1691 1.363 1_554 S
C1690 C1680 1.465 . S
C1690 U1686 2.847 . S
C1690 O1704 1.249 . S
C1690 O1705 1.202 . S
C1691 C1689 1.363 1_556 S
C1691 C1693 1.408 . S
C1691 C1696 1.342 . S
C1692 C1693 1.310 . S
C1692 C1695 1.461 . S
C1692 H1712 0.932 . S
C1693 C1691 1.408 . S
C1693 C1692 1.310 . S
C1693 H1713 0.930 . S
C1694 C1695 1.474 . S
C1694 C1696 1.285 . S
C1694 H1714 0.929 . S
C1695 C1692 1.461 . S
C1695 C1694 1.474 . S
C1696 C1691 1.342 . S
C1696 C1694 1.285 . S
C1696 H1715 0.930 1_556 S
C1697 C1700 1.424 . S
C1697 C1702 1.245 . S
C1697 C1703 1.428 . S
C1698 C1701 1.260 . S
C1698 C1702 1.477 . S
C1698 H1716 0.932 . S
C1699 C1700 1.384 . S
C1699 C1701 1.479 . S
C1699 H1717 0.929 . S
C1700 C1697 1.424 . S
C1700 C1699 1.384 . S
C1700 H1718 0.928 . S
C1701 C1698 1.260 . S
C1701 C1699 1.479 . S
C1702 C1697 1.245 . S
C1702 C1698 1.477 . S
C1702 H1719 0.932 . S
C1703 U1686 2.882 . S
C1703 C1697 1.428 . S
C1703 O1706 1.301 . S
C1703 O1707 1.282 . S
O1704 U1686 2.441 . S
O1704 C1690 1.249 . S
O1705 U1686 2.420 . S
O1705 C1690 1.202 . S
O1706 U1686 2.455 . S
O1706 C1703 1.301 . S
O1707 U1686 2.449 . S
O1707 C1703 1.282 . S
H1708 C1681 0.931 . S
H1709 C1683 0.929 . S
H1710 C1684 0.930 . S
H1711 C1685 0.931 . S
H1712 C1692 0.932 . S
H1713 C1693 0.930 . S
H1714 C1694 0.929 . S
H1715 C1696 0.930 1_554 S
H1716 C1698 0.932 . S
H1717 C1699 0.929 . S
H1718 C1700 0.928 . S
H1719 C1702 0.932 . S
C1720 C1721 1.264 . S
C1720 C1725 1.479 . S
C1720 C1730 1.465 . S
C1721 C1720 1.264 . S
C1721 C1723 1.339 . S
C1721 H1748 0.931 . S
C1722 C1723 1.395 . S
C1722 C1724 1.320 . S
C1723 C1721 1.339 . S
C1723 C1722 1.395 . S
C1723 H1749 0.929 . S
C1724 C1722 1.320 . S
C1724 C1725 1.405 . S
C1724 H1750 0.930 . S
C1725 C1720 1.479 . S
C1725 C1724 1.405 . S
C1725 H1751 0.931 . S
U1726 O1727 2.454 . S
U1726 O1728 2.458 . S
U1726 C1729 2.984 . S
U1726 C1730 2.847 . S
U1726 C1743 2.882 . S
U1726 O1744 2.441 . S
U1726 O1745 2.420 . S
U1726 O1746 2.455 . S
U1726 O1747 2.449 . S
O1727 U1726 2.454 . S
O1727 C1729 1.353 . S
O1728 U1726 2.458 . S
O1728 C1729 1.286 . S
C1729 U1726 2.984 . S
C1729 O1727 1.353 . S
C1729 O1728 1.286 . S
C1729 C1731 1.363 . S
C1730 C1720 1.465 . S
C1730 U1726 2.847 . S
C1730 O1744 1.249 . S
C1730 O1745 1.202 . S
C1731 C1729 1.363 . S
C1731 C1733 1.408 . S
C1731 C1736 1.342 . S
C1732 C1733 1.310 . S
C1732 C1735 1.461 . S
C1732 H1752 0.932 . S
C1733 C1731 1.408 . S
C1733 C1732 1.310 . S
C1733 H1753 0.930 . S
C1734 C1735 1.474 . S
C1734 C1736 1.285 . S
C1734 H1754 0.929 . S
C1735 C1732 1.461 . S
C1735 C1734 1.474 . S
C1736 C1731 1.342 . S
C1736 C1734 1.285 . S
C1736 H1755 0.930 . S
C1737 C1740 1.424 . S
C1737 C1742 1.245 . S
C1737 C1743 1.428 . S
C1738 C1741 1.260 . S
C1738 C1742 1.477 . S
C1738 H1756 0.932 . S
C1739 C1740 1.384 . S
C1739 C1741 1.479 . S
C1739 H1757 0.929 . S
C1740 C1737 1.424 . S
C1740 C1739 1.384 . S
C1740 H1758 0.928 . S
C1741 C1738 1.260 . S
C1741 C1739 1.479 . S
C1742 C1737 1.245 . S
C1742 C1738 1.477 . S
C1742 H1759 0.932 . S
C1743 U1726 2.882 . S
C1743 C1737 1.428 . S
C1743 O1746 1.301 . S
C1743 O1747 1.282 . S
O1744 U1726 2.441 . S
O1744 C1730 1.249 . S
O1745 U1726 2.420 . S
O1745 C1730 1.202 . S
O1746 U1726 2.455 . S
O1746 C1743 1.301 . S
O1747 U1726 2.449 . S
O1747 C1743 1.282 . S
H1748 C1721 0.931 . S
H1749 C1723 0.929 . S
H1750 C1724 0.930 . S
H1751 C1725 0.931 . S
H1752 C1732 0.932 . S
H1753 C1733 0.930 . S
H1754 C1734 0.929 . S
H1755 C1736 0.930 . S
H1756 C1738 0.932 . S
H1757 C1739 0.929 . S
H1758 C1740 0.928 . S
H1759 C1742 0.932 . S
C1760 C1761 1.264 . S
C1760 C1765 1.479 . S
C1760 C1770 1.465 . S
C1761 C1760 1.264 . S
C1761 C1763 1.339 . S
C1761 H1788 0.931 . S
C1762 C1763 1.395 . S
C1762 C1764 1.320 . S
C1763 C1761 1.339 . S
C1763 C1762 1.395 . S
C1763 H1789 0.929 . S
C1764 C1762 1.320 . S
C1764 C1765 1.405 . S
C1764 H1790 0.930 . S
C1765 C1760 1.479 . S
C1765 C1764 1.405 . S
C1765 H1791 0.931 . S
U1766 O1767 2.454 . S
U1766 O1768 2.458 . S
U1766 C1769 2.984 . S
U1766 C1770 2.847 . S
U1766 C1783 2.882 . S
U1766 O1784 2.441 . S
U1766 O1785 2.420 . S
U1766 O1786 2.455 . S
U1766 O1787 2.449 . S
O1767 U1766 2.454 . S
O1767 C1769 1.353 . S
O1768 U1766 2.458 . S
O1768 C1769 1.286 . S
C1769 U1766 2.984 . S
C1769 O1767 1.353 . S
C1769 O1768 1.286 . S
C1769 C1771 1.363 . S
C1770 C1760 1.465 . S
C1770 U1766 2.847 . S
C1770 O1784 1.249 . S
C1770 O1785 1.202 . S
C1771 C1769 1.363 . S
C1771 C1773 1.408 . S
C1771 C1776 1.342 . S
C1772 C1773 1.310 . S
C1772 C1775 1.461 . S
C1772 H1792 0.932 . S
C1773 C1771 1.408 . S
C1773 C1772 1.310 . S
C1773 H1793 0.930 . S
C1774 C1775 1.474 . S
C1774 C1776 1.285 . S
C1774 H1794 0.929 . S
C1775 C1772 1.461 . S
C1775 C1774 1.474 . S
C1776 C1771 1.342 . S
C1776 C1774 1.285 . S
C1776 H1795 0.930 . S
C1777 C1780 1.424 . S
C1777 C1782 1.245 . S
C1777 C1783 1.428 . S
C1778 C1781 1.260 . S
C1778 C1782 1.477 . S
C1778 H1796 0.932 . S
C1779 C1780 1.384 . S
C1779 C1781 1.479 . S
C1779 H1797 0.929 . S
C1780 C1777 1.424 . S
C1780 C1779 1.384 . S
C1780 H1798 0.928 . S
C1781 C1778 1.260 . S
C1781 C1779 1.479 . S
C1782 C1777 1.245 . S
C1782 C1778 1.477 . S
C1782 H1799 0.932 . S
C1783 U1766 2.882 . S
C1783 C1777 1.428 . S
C1783 O1786 1.301 . S
C1783 O1787 1.282 . S
O1784 U1766 2.441 . S
O1784 C1770 1.249 . S
O1785 U1766 2.420 . S
O1785 C1770 1.202 . S
O1786 U1766 2.455 . S
O1786 C1783 1.301 . S
O1787 U1766 2.449 . S
O1787 C1783 1.282 . S
H1788 C1761 0.931 . S
H1789 C1763 0.929 . S
H1790 C1764 0.930 . S
H1791 C1765 0.931 . S
H1792 C1772 0.932 . S
H1793 C1773 0.930 . S
H1794 C1774 0.929 . S
H1795 C1776 0.930 . S
H1796 C1778 0.932 . S
H1797 C1779 0.929 . S
H1798 C1780 0.928 . S
H1799 C1782 0.932 . S
C1800 C1801 1.264 . S
C1800 C1805 1.479 . S
C1800 C1810 1.465 . S
C1801 C1800 1.264 . S
C1801 C1803 1.339 . S
C1801 H1828 0.931 . S
C1802 C1803 1.395 . S
C1802 C1804 1.320 . S
C1803 C1801 1.339 . S
C1803 C1802 1.395 . S
C1803 H1829 0.929 . S
C1804 C1802 1.320 . S
C1804 C1805 1.405 . S
C1804 H1830 0.930 . S
C1805 C1800 1.479 . S
C1805 C1804 1.405 . S
C1805 H1831 0.931 . S
U1806 O1807 2.454 . S
U1806 O1808 2.458 . S
U1806 C1809 2.984 . S
U1806 C1810 2.847 . S
U1806 C1823 2.882 . S
U1806 O1824 2.441 . S
U1806 O1825 2.420 . S
U1806 O1826 2.455 . S
U1806 O1827 2.449 . S
O1807 U1806 2.454 . S
O1807 C1809 1.353 . S
O1808 U1806 2.458 . S
O1808 C1809 1.286 . S
C1809 U1806 2.984 . S
C1809 O1807 1.353 . S
C1809 O1808 1.286 . S
C1809 C1811 1.363 . S
C1810 C1800 1.465 . S
C1810 U1806 2.847 . S
C1810 O1824 1.249 . S
C1810 O1825 1.202 . S
C1811 C1809 1.363 . S
C1811 C1813 1.408 . S
C1811 C1816 1.342 . S
C1812 C1813 1.310 . S
C1812 C1815 1.461 . S
C1812 H1832 0.932 . S
C1813 C1811 1.408 . S
C1813 C1812 1.310 . S
C1813 H1833 0.930 . S
C1814 C1815 1.474 . S
C1814 C1816 1.285 . S
C1814 H1834 0.929 . S
C1815 C1812 1.461 . S
C1815 C1814 1.474 . S
C1816 C1811 1.342 . S
C1816 C1814 1.285 . S
C1816 H1835 0.930 . S
C1817 C1820 1.424 . S
C1817 C1822 1.245 . S
C1817 C1823 1.428 . S
C1818 C1821 1.260 . S
C1818 C1822 1.477 . S
C1818 H1836 0.932 . S
C1819 C1820 1.384 . S
C1819 C1821 1.479 . S
C1819 H1837 0.929 . S
C1820 C1817 1.424 . S
C1820 C1819 1.384 . S
C1820 H1838 0.928 . S
C1821 C1818 1.260 . S
C1821 C1819 1.479 . S
C1822 C1817 1.245 . S
C1822 C1818 1.477 . S
C1822 H1839 0.932 . S
C1823 U1806 2.882 . S
C1823 C1817 1.428 . S
C1823 O1826 1.301 . S
C1823 O1827 1.282 . S
O1824 U1806 2.441 . S
O1824 C1810 1.249 . S
O1825 U1806 2.420 . S
O1825 C1810 1.202 . S
O1826 U1806 2.455 . S
O1826 C1823 1.301 . S
O1827 U1806 2.449 . S
O1827 C1823 1.282 . S
H1828 C1801 0.931 . S
H1829 C1803 0.929 . S
H1830 C1804 0.930 . S
H1831 C1805 0.931 . S
H1832 C1812 0.932 . S
H1833 C1813 0.930 . S
H1834 C1814 0.929 . S
H1835 C1816 0.930 . S
H1836 C1818 0.932 . S
H1837 C1819 0.929 . S
H1838 C1820 0.928 . S
H1839 C1822 0.932 . S
C1840 C1841 1.264 . S
C1840 C1845 1.479 . S
C1840 C1850 1.465 . S
C1841 C1840 1.264 . S
C1841 C1843 1.339 . S
C1841 H1868 0.931 . S
C1842 C1843 1.395 . S
C1842 C1844 1.320 . S
C1843 C1841 1.339 . S
C1843 C1842 1.395 . S
C1843 H1869 0.929 . S
C1844 C1842 1.320 . S
C1844 C1845 1.405 . S
C1844 H1870 0.930 . S
C1845 C1840 1.479 . S
C1845 C1844 1.405 . S
C1845 H1871 0.931 . S
U1846 O1847 2.454 . S
U1846 O1848 2.458 . S
U1846 C1849 2.984 . S
U1846 C1850 2.847 . S
U1846 C1863 2.882 . S
U1846 O1864 2.441 . S
U1846 O1865 2.420 . S
U1846 O1866 2.455 . S
U1846 O1867 2.449 . S
O1847 U1846 2.454 . S
O1847 C1849 1.353 . S
O1848 U1846 2.458 . S
O1848 C1849 1.286 . S
C1849 U1846 2.984 . S
C1849 O1847 1.353 . S
C1849 O1848 1.286 . S
C1849 C1851 1.363 . S
C1850 C1840 1.465 . S
C1850 U1846 2.847 . S
C1850 O1864 1.249 . S
C1850 O1865 1.202 . S
C1851 C1849 1.363 . S
C1851 C1853 1.408 . S
C1851 C1856 1.342 . S
C1852 C1853 1.310 . S
C1852 C1855 1.461 . S
C1852 H1872 0.932 . S
C1853 C1851 1.408 . S
C1853 C1852 1.310 . S
C1853 H1873 0.930 . S
C1854 C1855 1.474 . S
C1854 C1856 1.285 . S
C1854 H1874 0.929 . S
C1855 C1852 1.461 . S
C1855 C1854 1.474 . S
C1856 C1851 1.342 . S
C1856 C1854 1.285 . S
C1856 H1875 0.930 . S
C1857 C1860 1.424 . S
C1857 C1862 1.245 . S
C1857 C1863 1.428 . S
C1858 C1861 1.260 . S
C1858 C1862 1.477 . S
C1858 H1876 0.932 . S
C1859 C1860 1.384 . S
C1859 C1861 1.479 . S
C1859 H1877 0.929 . S
C1860 C1857 1.424 . S
C1860 C1859 1.384 . S
C1860 H1878 0.928 . S
C1861 C1858 1.260 . S
C1861 C1859 1.479 . S
C1862 C1857 1.245 . S
C1862 C1858 1.477 . S
C1862 H1879 0.932 . S
C1863 U1846 2.882 . S
C1863 C1857 1.428 . S
C1863 O1866 1.301 . S
C1863 O1867 1.282 . S
O1864 U1846 2.441 . S
O1864 C1850 1.249 . S
O1865 U1846 2.420 . S
O1865 C1850 1.202 . S
O1866 U1846 2.455 . S
O1866 C1863 1.301 . S
O1867 U1846 2.449 . S
O1867 C1863 1.282 . S
H1868 C1841 0.931 . S
H1869 C1843 0.929 . S
H1870 C1844 0.930 . S
H1871 C1845 0.931 . S
H1872 C1852 0.932 . S
H1873 C1853 0.930 . S
H1874 C1854 0.929 . S
H1875 C1856 0.930 . S
H1876 C1858 0.932 . S
H1877 C1859 0.929 . S
H1878 C1860 0.928 . S
H1879 C1862 0.932 . S
C1880 C1881 1.264 . S
C1880 C1885 1.479 . S
C1880 C1890 1.465 . S
C1881 C1880 1.264 . S
C1881 C1883 1.339 . S
C1881 H1908 0.931 . S
C1882 C1883 1.395 . S
C1882 C1884 1.320 . S
C1883 C1881 1.339 . S
C1883 C1882 1.395 . S
C1883 H1909 0.929 . S
C1884 C1882 1.320 . S
C1884 C1885 1.405 . S
C1884 H1910 0.930 . S
C1885 C1880 1.479 . S
C1885 C1884 1.405 . S
C1885 H1911 0.931 . S
U1886 O1887 2.454 . S
U1886 O1888 2.458 . S
U1886 C1889 2.984 . S
U1886 C1890 2.847 . S
U1886 C1903 2.882 . S
U1886 O1904 2.441 . S
U1886 O1905 2.420 . S
U1886 O1906 2.455 . S
U1886 O1907 2.449 . S
O1887 U1886 2.454 . S
O1887 C1889 1.353 . S
O1888 U1886 2.458 . S
O1888 C1889 1.286 . S
C1889 U1886 2.984 . S
C1889 O1887 1.353 . S
C1889 O1888 1.286 . S
C1889 C1891 1.363 . S
C1890 C1880 1.465 . S
C1890 U1886 2.847 . S
C1890 O1904 1.249 . S
C1890 O1905 1.202 . S
C1891 C1889 1.363 . S
C1891 C1893 1.408 . S
C1891 C1896 1.342 . S
C1892 C1893 1.310 . S
C1892 C1895 1.461 . S
C1892 H1912 0.932 . S
C1893 C1891 1.408 . S
C1893 C1892 1.310 . S
C1893 H1913 0.930 . S
C1894 C1895 1.474 . S
C1894 C1896 1.285 . S
C1894 H1914 0.929 . S
C1895 C1892 1.461 . S
C1895 C1894 1.474 . S
C1896 C1891 1.342 . S
C1896 C1894 1.285 . S
C1896 H1915 0.930 . S
C1897 C1900 1.424 . S
C1897 C1902 1.245 . S
C1897 C1903 1.428 . S
C1898 C1901 1.260 . S
C1898 C1902 1.477 . S
C1898 H1916 0.932 . S
C1899 C1900 1.384 . S
C1899 C1901 1.479 . S
C1899 H1917 0.929 . S
C1900 C1897 1.424 . S
C1900 C1899 1.384 . S
C1900 H1918 0.928 . S
C1901 C1898 1.260 . S
C1901 C1899 1.479 . S
C1902 C1897 1.245 . S
C1902 C1898 1.477 . S
C1902 H1919 0.932 . S
C1903 U1886 2.882 . S
C1903 C1897 1.428 . S
C1903 O1906 1.301 . S
C1903 O1907 1.282 . S
O1904 U1886 2.441 . S
O1904 C1890 1.249 . S
O1905 U1886 2.420 . S
O1905 C1890 1.202 . S
O1906 U1886 2.455 . S
O1906 C1903 1.301 . S
O1907 U1886 2.449 . S
O1907 C1903 1.282 . S
H1908 C1881 0.931 . S
H1909 C1883 0.929 . S
H1910 C1884 0.930 . S
H1911 C1885 0.931 . S
H1912 C1892 0.932 . S
H1913 C1893 0.930 . S
H1914 C1894 0.929 . S
H1915 C1896 0.930 . S
H1916 C1898 0.932 . S
H1917 C1899 0.929 . S
H1918 C1900 0.928 . S
H1919 C1902 0.932 . S
O1920 Cd1921 2.300 . S
O1920 C1927 1.275 . S
Cd1921 O1920 2.300 . S
Cd1921 O1929 2.381 . S
Cd1921 O1930 2.378 . S
O1922 Cd1923 2.385 . S
O1922 C1927 1.255 . S
Cd1923 O1922 2.385 . S
Cd1923 O1924 2.317 . S
O1924 Cd1923 2.317 . S
O1924 C1925 1.232 . S
C1925 O1924 1.232 . S
C1925 O1926 1.218 . S
O1926 C1925 1.218 . S
C1927 O1920 1.275 . S
C1927 O1922 1.255 . S
C1928 O1929 1.258 . S
C1928 O1930 1.256 . S
O1929 Cd1921 2.381 . S
O1929 C1928 1.258 . S
O1930 Cd1921 2.378 . S
O1930 C1928 1.256 . S
O1931 Cd1932 2.300 . S
O1931 C1938 1.275 . S
Cd1932 O1931 2.300 . S
Cd1932 O1940 2.381 . S
Cd1932 O1941 2.378 . S
O1933 Cd1934 2.385 . S
O1933 C1938 1.255 . S
Cd1934 O1933 2.385 . S
Cd1934 O1935 2.317 . S
O1935 Cd1934 2.317 . S
O1935 C1936 1.232 . S
C1936 O1935 1.232 . S
C1936 O1937 1.218 . S
O1937 C1936 1.218 . S
C1938 O1931 1.275 . S
C1938 O1933 1.255 . S
C1939 O1940 1.258 . S
C1939 O1941 1.256 . S
O1940 Cd1932 2.381 . S
O1940 C1939 1.258 . S
O1941 Cd1932 2.378 . S
O1941 C1939 1.256 . S
O1942 Cd1943 2.300 . S
O1942 C1949 1.275 . S
Cd1943 O1942 2.300 . S
Cd1943 O1951 2.381 . S
Cd1943 O1952 2.378 . S
O1944 Cd1945 2.385 . S
O1944 C1949 1.255 . S
Cd1945 O1944 2.385 . S
Cd1945 O1946 2.317 . S
O1946 Cd1945 2.317 . S
O1946 C1947 1.232 . S
C1947 O1946 1.232 . S
C1947 O1948 1.218 . S
O1948 C1947 1.218 . S
C1949 O1942 1.275 . S
C1949 O1944 1.255 . S
C1950 O1951 1.258 . S
C1950 O1952 1.256 . S
O1951 Cd1943 2.381 . S
O1951 C1950 1.258 . S
O1952 Cd1943 2.378 . S
O1952 C1950 1.256 . S
O1953 Cd1954 2.300 . S
O1953 C1960 1.275 . S
Cd1954 O1953 2.300 . S
Cd1954 O1962 2.381 . S
Cd1954 O1963 2.378 . S
O1955 Cd1956 2.385 . S
O1955 C1960 1.255 . S
Cd1956 O1955 2.385 . S
Cd1956 O1957 2.317 . S
O1957 Cd1956 2.317 . S
O1957 C1958 1.232 . S
C1958 O1957 1.232 . S
C1958 O1959 1.218 . S
O1959 C1958 1.218 . S
C1960 O1953 1.275 . S
C1960 O1955 1.255 . S
C1961 O1962 1.258 . S
C1961 O1963 1.256 . S
O1962 Cd1954 2.381 . S
O1962 C1961 1.258 . S
O1963 Cd1954 2.378 . S
O1963 C1961 1.256 . S
O1964 Cd1965 2.300 . S
O1964 C1971 1.275 . S
Cd1965 O1964 2.300 . S
Cd1965 O1973 2.381 . S
Cd1965 O1974 2.378 . S
O1966 Cd1967 2.385 . S
O1966 C1971 1.255 . S
Cd1967 O1966 2.385 . S
Cd1967 O1968 2.317 . S
O1968 Cd1967 2.317 . S
O1968 C1969 1.232 . S
C1969 O1968 1.232 . S
C1969 O1970 1.218 . S
O1970 C1969 1.218 . S
C1971 O1964 1.275 . S
C1971 O1966 1.255 . S
C1972 O1973 1.258 . S
C1972 O1974 1.256 . S
O1973 Cd1965 2.381 . S
O1973 C1972 1.258 . S
O1974 Cd1965 2.378 . S
O1974 C1972 1.256 . S
O1975 Cd1976 2.300 . S
O1975 C1982 1.275 . S
Cd1976 O1975 2.300 . S
Cd1976 O1984 2.381 . S
Cd1976 O1985 2.378 . S
O1977 Cd1978 2.385 . S
O1977 C1982 1.255 . S
Cd1978 O1977 2.385 . S
Cd1978 O1979 2.317 . S
O1979 Cd1978 2.317 . S
O1979 C1980 1.232 . S
C1980 O1979 1.232 . S
C1980 O1981 1.218 . S
O1981 C1980 1.218 . S
C1982 O1975 1.275 . S
C1982 O1977 1.255 . S
C1983 O1984 1.258 . S
C1983 O1985 1.256 . S
O1984 Cd1976 2.381 . S
O1984 C1983 1.258 . S
O1985 Cd1976 2.378 . S
O1985 C1983 1.256 . S
O1986 Cd1987 2.300 . S
O1986 C1993 1.275 . S
Cd1987 O1986 2.300 . S
Cd1987 O1995 2.381 . S
Cd1987 O1996 2.378 . S
O1988 Cd1989 2.385 . S
O1988 C1993 1.255 . S
Cd1989 O1988 2.385 . S
Cd1989 O1990 2.317 . S
O1990 Cd1989 2.317 . S
O1990 C1991 1.232 . S
C1991 O1990 1.232 . S
C1991 O1992 1.218 . S
O1992 C1991 1.218 . S
C1993 O1986 1.275 . S
C1993 O1988 1.255 . S
C1994 O1995 1.258 . S
C1994 O1996 1.256 . S
O1995 Cd1987 2.381 . S
O1995 C1994 1.258 . S
O1996 Cd1987 2.378 . S
O1996 C1994 1.256 . S
O1997 Cd1998 2.300 . S
O1997 C2004 1.275 . S
Cd1998 O1997 2.300 . S
Cd1998 O2006 2.381 . S
Cd1998 O2007 2.378 . S
O1999 Cd2000 2.385 . S
O1999 C2004 1.255 . S
Cd2000 O1999 2.385 . S
Cd2000 O2001 2.317 . S
O2001 Cd2000 2.317 . S
O2001 C2002 1.232 . S
C2002 O2001 1.232 . S
C2002 O2003 1.218 . S
O2003 C2002 1.218 . S
C2004 O1997 1.275 . S
C2004 O1999 1.255 . S
C2005 O2006 1.258 . S
C2005 O2007 1.256 . S
O2006 Cd1998 2.381 . S
O2006 C2005 1.258 . S
O2007 Cd1998 2.378 . S
O2007 C2005 1.256 . S
O2008 Cd2009 2.300 . S
O2008 C2015 1.275 . S
Cd2009 O2008 2.300 . S
Cd2009 O2017 2.381 . S
Cd2009 O2018 2.378 . S
O2010 Cd2011 2.385 . S
O2010 C2015 1.255 . S
Cd2011 O2010 2.385 . S
Cd2011 O2012 2.317 . S
O2012 Cd2011 2.317 . S
O2012 C2013 1.232 . S
C2013 O2012 1.232 . S
C2013 O2014 1.218 . S
O2014 C2013 1.218 . S
C2015 O2008 1.275 . S
C2015 O2010 1.255 . S
C2016 O2017 1.258 . S
C2016 O2018 1.256 . S
O2017 Cd2009 2.381 . S
O2017 C2016 1.258 . S
O2018 Cd2009 2.378 . S
O2018 C2016 1.256 . S
O2019 Cd2020 2.300 . S
O2019 C2026 1.275 . S
Cd2020 O2019 2.300 . S
Cd2020 O2028 2.381 . S
Cd2020 O2029 2.378 . S
O2021 Cd2022 2.385 . S
O2021 C2026 1.255 . S
Cd2022 O2021 2.385 . S
Cd2022 O2023 2.317 . S
O2023 Cd2022 2.317 . S
O2023 C2024 1.232 . S
C2024 O2023 1.232 . S
C2024 O2025 1.218 . S
O2025 C2024 1.218 . S
C2026 O2019 1.275 . S
C2026 O2021 1.255 . S
C2027 O2028 1.258 . S
C2027 O2029 1.256 . S
O2028 Cd2020 2.381 . S
O2028 C2027 1.258 . S
O2029 Cd2020 2.378 . S
O2029 C2027 1.256 . S
O2030 Cd2031 2.300 . S
O2030 C2037 1.275 . S
Cd2031 O2030 2.300 . S
Cd2031 O2039 2.381 . S
Cd2031 O2040 2.378 . S
O2032 Cd2033 2.385 . S
O2032 C2037 1.255 . S
Cd2033 O2032 2.385 . S
Cd2033 O2034 2.317 . S
O2034 Cd2033 2.317 . S
O2034 C2035 1.232 . S
C2035 O2034 1.232 . S
C2035 O2036 1.218 . S
O2036 C2035 1.218 . S
C2037 O2030 1.275 . S
C2037 O2032 1.255 . S
C2038 O2039 1.258 . S
C2038 O2040 1.256 . S
O2039 Cd2031 2.381 . S
O2039 C2038 1.258 . S
O2040 Cd2031 2.378 . S
O2040 C2038 1.256 . S
O2041 Cd2042 2.300 . S
O2041 C2048 1.275 . S
Cd2042 O2041 2.300 . S
Cd2042 O2050 2.381 . S
Cd2042 O2051 2.378 . S
O2043 Cd2044 2.385 . S
O2043 C2048 1.255 . S
Cd2044 O2043 2.385 . S
Cd2044 O2045 2.317 . S
O2045 Cd2044 2.317 . S
O2045 C2046 1.232 . S
C2046 O2045 1.232 . S
C2046 O2047 1.218 . S
O2047 C2046 1.218 . S
C2048 O2041 1.275 . S
C2048 O2043 1.255 . S
C2049 O2050 1.258 . S
C2049 O2051 1.256 . S
O2050 Cd2042 2.381 . S
O2050 C2049 1.258 . S
O2051 Cd2042 2.378 . S
O2051 C2049 1.256 . S
O2052 Cd2053 2.300 . S
O2052 C2059 1.275 . S
Cd2053 O2052 2.300 . S
Cd2053 O2061 2.381 . S
Cd2053 O2062 2.378 . S
O2054 Cd2055 2.385 . S
O2054 C2059 1.255 . S
Cd2055 O2054 2.385 . S
Cd2055 O2056 2.317 . S
O2056 Cd2055 2.317 . S
O2056 C2057 1.232 . S
C2057 O2056 1.232 . S
C2057 O2058 1.218 . S
O2058 C2057 1.218 . S
C2059 O2052 1.275 . S
C2059 O2054 1.255 . S
C2060 O2061 1.258 . S
C2060 O2062 1.256 . S
O2061 Cd2053 2.381 . S
O2061 C2060 1.258 . S
O2062 Cd2053 2.378 . S
O2062 C2060 1.256 . S
O2063 Cd2064 2.300 . S
O2063 C2070 1.275 . S
Cd2064 O2063 2.300 . S
Cd2064 O2072 2.381 . S
Cd2064 O2073 2.378 . S
O2065 Cd2066 2.385 . S
O2065 C2070 1.255 . S
Cd2066 O2065 2.385 . S
Cd2066 O2067 2.317 . S
O2067 Cd2066 2.317 . S
O2067 C2068 1.232 . S
C2068 O2067 1.232 . S
C2068 O2069 1.218 . S
O2069 C2068 1.218 . S
C2070 O2063 1.275 . S
C2070 O2065 1.255 . S
C2071 O2072 1.258 . S
C2071 O2073 1.256 . S
O2072 Cd2064 2.381 . S
O2072 C2071 1.258 . S
O2073 Cd2064 2.378 . S
O2073 C2071 1.256 . S
O2074 Cd2075 2.300 . S
O2074 C2081 1.275 . S
Cd2075 O2074 2.300 . S
Cd2075 O2083 2.381 . S
Cd2075 O2084 2.378 . S
O2076 Cd2077 2.385 . S
O2076 C2081 1.255 . S
Cd2077 O2076 2.385 . S
Cd2077 O2078 2.317 . S
O2078 Cd2077 2.317 . S
O2078 C2079 1.232 . S
C2079 O2078 1.232 . S
C2079 O2080 1.218 . S
O2080 C2079 1.218 . S
C2081 O2074 1.275 . S
C2081 O2076 1.255 . S
C2082 O2083 1.258 . S
C2082 O2084 1.256 . S
O2083 Cd2075 2.381 . S
O2083 C2082 1.258 . S
O2084 Cd2075 2.378 . S
O2084 C2082 1.256 . S
O2085 Cd2086 2.300 . S
O2085 C2092 1.275 . S
Cd2086 O2085 2.300 . S
Cd2086 O2094 2.381 . S
Cd2086 O2095 2.378 . S
O2087 Cd2088 2.385 . S
O2087 C2092 1.255 . S
Cd2088 O2087 2.385 . S
Cd2088 O2089 2.317 . S
O2089 Cd2088 2.317 . S
O2089 C2090 1.232 . S
C2090 O2089 1.232 . S
C2090 O2091 1.218 . S
O2091 C2090 1.218 . S
C2092 O2085 1.275 . S
C2092 O2087 1.255 . S
C2093 O2094 1.258 . S
C2093 O2095 1.256 . S
O2094 Cd2086 2.381 . S
O2094 C2093 1.258 . S
O2095 Cd2086 2.378 . S
O2095 C2093 1.256 . S
O2096 Cd2097 2.300 . S
O2096 C2103 1.275 . S
Cd2097 O2096 2.300 . S
Cd2097 O2105 2.381 . S
Cd2097 O2106 2.378 . S
O2098 Cd2099 2.385 . S
O2098 C2103 1.255 . S
Cd2099 O2098 2.385 . S
Cd2099 O2100 2.317 . S
O2100 Cd2099 2.317 . S
O2100 C2101 1.232 . S
C2101 O2100 1.232 . S
C2101 O2102 1.218 . S
O2102 C2101 1.218 . S
C2103 O2096 1.275 . S
C2103 O2098 1.255 . S
C2104 O2105 1.258 . S
C2104 O2106 1.256 . S
O2105 Cd2097 2.381 . S
O2105 C2104 1.258 . S
O2106 Cd2097 2.378 . S
O2106 C2104 1.256 . S
O2107 Cd2108 2.300 . S
O2107 C2114 1.275 . S
Cd2108 O2107 2.300 . S
Cd2108 O2116 2.381 . S
Cd2108 O2117 2.378 . S
O2109 Cd2110 2.385 . S
O2109 C2114 1.255 . S
Cd2110 O2109 2.385 . S
Cd2110 O2111 2.317 . S
O2111 Cd2110 2.317 . S
O2111 C2112 1.232 . S
C2112 O2111 1.232 . S
C2112 O2113 1.218 . S
O2113 C2112 1.218 . S
C2114 O2107 1.275 . S
C2114 O2109 1.255 . S
C2115 O2116 1.258 . S
C2115 O2117 1.256 . S
O2116 Cd2108 2.381 . S
O2116 C2115 1.258 . S
O2117 Cd2108 2.378 . S
O2117 C2115 1.256 . S
O2118 Cd2119 2.300 . S
O2118 C2125 1.275 . S
Cd2119 O2118 2.300 . S
Cd2119 O2127 2.381 . S
Cd2119 O2128 2.378 . S
O2120 Cd2121 2.385 . S
O2120 C2125 1.255 . S
Cd2121 O2120 2.385 . S
Cd2121 O2122 2.317 . S
O2122 Cd2121 2.317 . S
O2122 C2123 1.232 . S
C2123 O2122 1.232 . S
C2123 O2124 1.218 . S
O2124 C2123 1.218 . S
C2125 O2118 1.275 . S
C2125 O2120 1.255 . S
C2126 O2127 1.258 . S
C2126 O2128 1.256 . S
O2127 Cd2119 2.381 . S
O2127 C2126 1.258 . S
O2128 Cd2119 2.378 . S
O2128 C2126 1.256 . S
O2129 Cd2130 2.300 . S
O2129 C2136 1.275 . S
Cd2130 O2129 2.300 . S
Cd2130 O2138 2.381 . S
Cd2130 O2139 2.378 . S
O2131 Cd2132 2.385 . S
O2131 C2136 1.255 . S
Cd2132 O2131 2.385 . S
Cd2132 O2133 2.317 . S
O2133 Cd2132 2.317 . S
O2133 C2134 1.232 . S
C2134 O2133 1.232 . S
C2134 O2135 1.218 . S
O2135 C2134 1.218 . S
C2136 O2129 1.275 . S
C2136 O2131 1.255 . S
C2137 O2138 1.258 . S
C2137 O2139 1.256 . S
O2138 Cd2130 2.381 . S
O2138 C2137 1.258 . S
O2139 Cd2130 2.378 . S
O2139 C2137 1.256 . S
O2140 Cd2141 2.300 . S
O2140 C2147 1.275 . S
Cd2141 O2140 2.300 . S
Cd2141 O2149 2.381 . S
Cd2141 O2150 2.378 . S
O2142 Cd2143 2.385 . S
O2142 C2147 1.255 . S
Cd2143 O2142 2.385 . S
Cd2143 O2144 2.317 . S
O2144 Cd2143 2.317 . S
O2144 C2145 1.232 . S
C2145 O2144 1.232 . S
C2145 O2146 1.218 . S
O2146 C2145 1.218 . S
C2147 O2140 1.275 . S
C2147 O2142 1.255 . S
C2148 O2149 1.258 . S
C2148 O2150 1.256 . S
O2149 Cd2141 2.381 . S
O2149 C2148 1.258 . S
O2150 Cd2141 2.378 . S
O2150 C2148 1.256 . S
O2151 Cd2152 2.300 . S
O2151 C2158 1.275 . S
Cd2152 O2151 2.300 . S
Cd2152 O2160 2.381 . S
Cd2152 O2161 2.378 . S
O2153 Cd2154 2.385 . S
O2153 C2158 1.255 . S
Cd2154 O2153 2.385 . S
Cd2154 O2155 2.317 . S
O2155 Cd2154 2.317 . S
O2155 C2156 1.232 . S
C2156 O2155 1.232 . S
C2156 O2157 1.218 . S
O2157 C2156 1.218 . S
C2158 O2151 1.275 . S
C2158 O2153 1.255 . S
C2159 O2160 1.258 . S
C2159 O2161 1.256 . S
O2160 Cd2152 2.381 . S
O2160 C2159 1.258 . S
O2161 Cd2152 2.378 . S
O2161 C2159 1.256 . S
O2162 Cd2163 2.300 . S
O2162 C2169 1.275 . S
Cd2163 O2162 2.300 . S
Cd2163 O2171 2.381 . S
Cd2163 O2172 2.378 . S
O2164 Cd2165 2.385 . S
O2164 C2169 1.255 . S
Cd2165 O2164 2.385 . S
Cd2165 O2166 2.317 . S
O2166 Cd2165 2.317 . S
O2166 C2167 1.232 . S
C2167 O2166 1.232 . S
C2167 O2168 1.218 . S
O2168 C2167 1.218 . S
C2169 O2162 1.275 . S
C2169 O2164 1.255 . S
C2170 O2171 1.258 . S
C2170 O2172 1.256 . S
O2171 Cd2163 2.381 . S
O2171 C2170 1.258 . S
O2172 Cd2163 2.378 . S
O2172 C2170 1.256 . S
O2173 Cd2174 2.300 . S
O2173 C2180 1.275 . S
Cd2174 O2173 2.300 . S
Cd2174 O2182 2.381 . S
Cd2174 O2183 2.378 . S
O2175 Cd2176 2.385 . S
O2175 C2180 1.255 . S
Cd2176 O2175 2.385 . S
Cd2176 O2177 2.317 . S
O2177 Cd2176 2.317 . S
O2177 C2178 1.232 . S
C2178 O2177 1.232 . S
C2178 O2179 1.218 . S
O2179 C2178 1.218 . S
C2180 O2173 1.275 . S
C2180 O2175 1.255 . S
C2181 O2182 1.258 . S
C2181 O2183 1.256 . S
O2182 Cd2174 2.381 . S
O2182 C2181 1.258 . S
O2183 Cd2174 2.378 . S
O2183 C2181 1.256 . S
O2184 Cd2185 2.300 . S
O2184 C2191 1.275 . S
Cd2185 O2184 2.300 . S
Cd2185 O2193 2.381 . S
Cd2185 O2194 2.378 . S
O2186 Cd2187 2.385 . S
O2186 C2191 1.255 . S
Cd2187 O2186 2.385 . S
Cd2187 O2188 2.317 . S
O2188 Cd2187 2.317 . S
O2188 C2189 1.232 . S
C2189 O2188 1.232 . S
C2189 O2190 1.218 . S
O2190 C2189 1.218 . S
C2191 O2184 1.275 . S
C2191 O2186 1.255 . S
C2192 O2193 1.258 . S
C2192 O2194 1.256 . S
O2193 Cd2185 2.381 . S
O2193 C2192 1.258 . S
O2194 Cd2185 2.378 . S
O2194 C2192 1.256 . S
O2195 Cd2196 2.300 . S
O2195 C2202 1.275 . S
Cd2196 O2195 2.300 . S
Cd2196 O2204 2.381 . S
Cd2196 O2205 2.378 . S
O2197 Cd2198 2.385 . S
O2197 C2202 1.255 . S
Cd2198 O2197 2.385 . S
Cd2198 O2199 2.317 . S
O2199 Cd2198 2.317 . S
O2199 C2200 1.232 . S
C2200 O2199 1.232 . S
C2200 O2201 1.218 . S
O2201 C2200 1.218 . S
C2202 O2195 1.275 . S
C2202 O2197 1.255 . S
C2203 O2204 1.258 . S
C2203 O2205 1.256 . S
O2204 Cd2196 2.381 . S
O2204 C2203 1.258 . S
O2205 Cd2196 2.378 . S
O2205 C2203 1.256 . S
O2206 Cd2207 2.300 . S
O2206 C2213 1.275 . S
Cd2207 O2206 2.300 . S
Cd2207 O2215 2.381 . S
Cd2207 O2216 2.378 . S
O2208 Cd2209 2.385 . S
O2208 C2213 1.255 . S
Cd2209 O2208 2.385 . S
Cd2209 O2210 2.317 . S
O2210 Cd2209 2.317 . S
O2210 C2211 1.232 . S
C2211 O2210 1.232 . S
C2211 O2212 1.218 . S
O2212 C2211 1.218 . S
C2213 O2206 1.275 . S
C2213 O2208 1.255 . S
C2214 O2215 1.258 . S
C2214 O2216 1.256 . S
O2215 Cd2207 2.381 . S
O2215 C2214 1.258 . S
O2216 Cd2207 2.378 . S
O2216 C2214 1.256 . S
O2217 Cd2218 2.300 . S
O2217 C2224 1.275 . S
Cd2218 O2217 2.300 . S
Cd2218 O2226 2.381 . S
Cd2218 O2227 2.378 . S
O2219 Cd2220 2.385 . S
O2219 C2224 1.255 . S
Cd2220 O2219 2.385 . S
Cd2220 O2221 2.317 . S
O2221 Cd2220 2.317 . S
O2221 C2222 1.232 . S
C2222 O2221 1.232 . S
C2222 O2223 1.218 . S
O2223 C2222 1.218 . S
C2224 O2217 1.275 . S
C2224 O2219 1.255 . S
C2225 O2226 1.258 . S
C2225 O2227 1.256 . S
O2226 Cd2218 2.381 . S
O2226 C2225 1.258 . S
O2227 Cd2218 2.378 . S
O2227 C2225 1.256 . S
O2228 Cd2229 2.300 . S
O2228 C2235 1.275 . S
Cd2229 O2228 2.300 . S
Cd2229 O2237 2.381 . S
Cd2229 O2238 2.378 . S
O2230 Cd2231 2.385 . S
O2230 C2235 1.255 . S
Cd2231 O2230 2.385 . S
Cd2231 O2232 2.317 . S
O2232 Cd2231 2.317 . S
O2232 C2233 1.232 . S
C2233 O2232 1.232 . S
C2233 O2234 1.218 . S
O2234 C2233 1.218 . S
C2235 O2228 1.275 . S
C2235 O2230 1.255 . S
C2236 O2237 1.258 . S
C2236 O2238 1.256 . S
O2237 Cd2229 2.381 . S
O2237 C2236 1.258 . S
O2238 Cd2229 2.378 . S
O2238 C2236 1.256 . S
O2239 Cd2240 2.300 . S
O2239 C2246 1.275 . S
Cd2240 O2239 2.300 . S
Cd2240 O2248 2.381 . S
Cd2240 O2249 2.378 . S
O2241 Cd2242 2.385 . S
O2241 C2246 1.255 . S
Cd2242 O2241 2.385 . S
Cd2242 O2243 2.317 . S
O2243 Cd2242 2.317 . S
O2243 C2244 1.232 . S
C2244 O2243 1.232 . S
C2244 O2245 1.218 . S
O2245 C2244 1.218 . S
C2246 O2239 1.275 . S
C2246 O2241 1.255 . S
C2247 O2248 1.258 . S
C2247 O2249 1.256 . S
O2248 Cd2240 2.381 . S
O2248 C2247 1.258 . S
O2249 Cd2240 2.378 . S
O2249 C2247 1.256 . S
O2250 Cd2251 2.300 . S
O2250 C2257 1.275 . S
Cd2251 O2250 2.300 . S
Cd2251 O2259 2.381 . S
Cd2251 O2260 2.378 . S
O2252 Cd2253 2.385 . S
O2252 C2257 1.255 . S
Cd2253 O2252 2.385 . S
Cd2253 O2254 2.317 . S
O2254 Cd2253 2.317 . S
O2254 C2255 1.232 . S
C2255 O2254 1.232 . S
C2255 O2256 1.218 . S
O2256 C2255 1.218 . S
C2257 O2250 1.275 . S
C2257 O2252 1.255 . S
C2258 O2259 1.258 . S
C2258 O2260 1.256 . S
O2259 Cd2251 2.381 . S
O2259 C2258 1.258 . S
O2260 Cd2251 2.378 . S
O2260 C2258 1.256 . S
O2261 Cd2262 2.300 . S
O2261 C2268 1.275 . S
Cd2262 O2261 2.300 . S
Cd2262 O2270 2.381 . S
Cd2262 O2271 2.378 . S
O2263 Cd2264 2.385 . S
O2263 C2268 1.255 . S
Cd2264 O2263 2.385 . S
Cd2264 O2265 2.317 . S
O2265 Cd2264 2.317 . S
O2265 C2266 1.232 . S
C2266 O2265 1.232 . S
C2266 O2267 1.218 . S
O2267 C2266 1.218 . S
C2268 O2261 1.275 . S
C2268 O2263 1.255 . S
C2269 O2270 1.258 . S
C2269 O2271 1.256 . S
O2270 Cd2262 2.381 . S
O2270 C2269 1.258 . S
O2271 Cd2262 2.378 . S
O2271 C2269 1.256 . S
O2272 Cd2273 2.300 . S
O2272 C2279 1.275 . S
Cd2273 O2272 2.300 . S
Cd2273 O2281 2.381 . S
Cd2273 O2282 2.378 . S
O2274 Cd2275 2.385 . S
O2274 C2279 1.255 . S
Cd2275 O2274 2.385 . S
Cd2275 O2276 2.317 . S
O2276 Cd2275 2.317 . S
O2276 C2277 1.232 . S
C2277 O2276 1.232 . S
C2277 O2278 1.218 . S
O2278 C2277 1.218 . S
C2279 O2272 1.275 . S
C2279 O2274 1.255 . S
C2280 O2281 1.258 . S
C2280 O2282 1.256 . S
O2281 Cd2273 2.381 . S
O2281 C2280 1.258 . S
O2282 Cd2273 2.378 . S
O2282 C2280 1.256 . S
O2283 Cd2284 2.300 . S
O2283 C2290 1.275 . S
Cd2284 O2283 2.300 . S
Cd2284 O2292 2.381 . S
Cd2284 O2293 2.378 . S
O2285 Cd2286 2.385 . S
O2285 C2290 1.255 . S
Cd2286 O2285 2.385 . S
Cd2286 O2287 2.317 . S
O2287 Cd2286 2.317 . S
O2287 C2288 1.232 . S
C2288 O2287 1.232 . S
C2288 O2289 1.218 . S
O2289 C2288 1.218 . S
C2290 O2283 1.275 . S
C2290 O2285 1.255 . S
C2291 O2292 1.258 . S
C2291 O2293 1.256 . S
O2292 Cd2284 2.381 . S
O2292 C2291 1.258 . S
O2293 Cd2284 2.378 . S
O2293 C2291 1.256 . S
O2294 Cd2295 2.300 . S
O2294 C2301 1.275 . S
Cd2295 O2294 2.300 . S
Cd2295 O2303 2.381 . S
Cd2295 O2304 2.378 . S
O2296 Cd2297 2.385 . S
O2296 C2301 1.255 . S
Cd2297 O2296 2.385 . S
Cd2297 O2298 2.317 . S
O2298 Cd2297 2.317 . S
O2298 C2299 1.232 . S
C2299 O2298 1.232 . S
C2299 O2300 1.218 . S
O2300 C2299 1.218 . S
C2301 O2294 1.275 . S
C2301 O2296 1.255 . S
C2302 O2303 1.258 . S
C2302 O2304 1.256 . S
O2303 Cd2295 2.381 . S
O2303 C2302 1.258 . S
O2304 Cd2295 2.378 . S
O2304 C2302 1.256 . S
O2305 Cd2306 2.300 . S
O2305 C2312 1.275 . S
Cd2306 O2305 2.300 . S
Cd2306 O2314 2.381 . S
Cd2306 O2315 2.378 . S
O2307 Cd2308 2.385 . S
O2307 C2312 1.255 . S
Cd2308 O2307 2.385 . S
Cd2308 O2309 2.317 . S
O2309 Cd2308 2.317 . S
O2309 C2310 1.232 . S
C2310 O2309 1.232 . S
C2310 O2311 1.218 . S
O2311 C2310 1.218 . S
C2312 O2305 1.275 . S
C2312 O2307 1.255 . S
C2313 O2314 1.258 . S
C2313 O2315 1.256 . S
O2314 Cd2306 2.381 . S
O2314 C2313 1.258 . S
O2315 Cd2306 2.378 . S
O2315 C2313 1.256 . S
O2316 Cd2317 2.300 . S
O2316 C2323 1.275 . S
Cd2317 O2316 2.300 . S
Cd2317 O2325 2.381 . S
Cd2317 O2326 2.378 . S
O2318 Cd2319 2.385 . S
O2318 C2323 1.255 . S
Cd2319 O2318 2.385 . S
Cd2319 O2320 2.317 . S
O2320 Cd2319 2.317 . S
O2320 C2321 1.232 . S
C2321 O2320 1.232 . S
C2321 O2322 1.218 . S
O2322 C2321 1.218 . S
C2323 O2316 1.275 . S
C2323 O2318 1.255 . S
C2324 O2325 1.258 . S
C2324 O2326 1.256 . S
O2325 Cd2317 2.381 . S
O2325 C2324 1.258 . S
O2326 Cd2317 2.378 . S
O2326 C2324 1.256 . S
O2327 Cd2328 2.300 . S
O2327 C2334 1.275 . S
Cd2328 O2327 2.300 . S
Cd2328 O2336 2.381 . S
Cd2328 O2337 2.378 . S
O2329 Cd2330 2.385 . S
O2329 C2334 1.255 . S
Cd2330 O2329 2.385 . S
Cd2330 O2331 2.317 . S
O2331 Cd2330 2.317 . S
O2331 C2332 1.232 . S
C2332 O2331 1.232 . S
C2332 O2333 1.218 . S
O2333 C2332 1.218 . S
C2334 O2327 1.275 . S
C2334 O2329 1.255 . S
C2335 O2336 1.258 . S
C2335 O2337 1.256 . S
O2336 Cd2328 2.381 . S
O2336 C2335 1.258 . S
O2337 Cd2328 2.378 . S
O2337 C2335 1.256 . S
O2338 Cd2339 2.300 . S
O2338 C2345 1.275 . S
Cd2339 O2338 2.300 . S
Cd2339 O2347 2.381 . S
Cd2339 O2348 2.378 . S
O2340 Cd2341 2.385 . S
O2340 C2345 1.255 . S
Cd2341 O2340 2.385 . S
Cd2341 O2342 2.317 . S
O2342 Cd2341 2.317 . S
O2342 C2343 1.232 . S
C2343 O2342 1.232 . S
C2343 O2344 1.218 . S
O2344 C2343 1.218 . S
C2345 O2338 1.275 . S
C2345 O2340 1.255 . S
C2346 O2347 1.258 . S
C2346 O2348 1.256 . S
O2347 Cd2339 2.381 . S
O2347 C2346 1.258 . S
O2348 Cd2339 2.378 . S
O2348 C2346 1.256 . S
O2349 Cd2350 2.300 . S
O2349 C2356 1.275 . S
Cd2350 O2349 2.300 . S
Cd2350 O2358 2.381 . S
Cd2350 O2359 2.378 . S
O2351 Cd2352 2.385 . S
O2351 C2356 1.255 . S
Cd2352 O2351 2.385 . S
Cd2352 O2353 2.317 . S
O2353 Cd2352 2.317 . S
O2353 C2354 1.232 . S
C2354 O2353 1.232 . S
C2354 O2355 1.218 . S
O2355 C2354 1.218 . S
C2356 O2349 1.275 . S
C2356 O2351 1.255 . S
C2357 O2358 1.258 . S
C2357 O2359 1.256 . S
O2358 Cd2350 2.381 . S
O2358 C2357 1.258 . S
O2359 Cd2350 2.378 . S
O2359 C2357 1.256 . S
O2360 Cd2361 2.300 . S
O2360 C2367 1.275 . S
Cd2361 O2360 2.300 . S
Cd2361 O2369 2.381 . S
Cd2361 O2370 2.378 . S
O2362 Cd2363 2.385 . S
O2362 C2367 1.255 . S
Cd2363 O2362 2.385 . S
Cd2363 O2364 2.317 . S
O2364 Cd2363 2.317 . S
O2364 C2365 1.232 . S
C2365 O2364 1.232 . S
C2365 O2366 1.218 . S
O2366 C2365 1.218 . S
C2367 O2360 1.275 . S
C2367 O2362 1.255 . S
C2368 O2369 1.258 . S
C2368 O2370 1.256 . S
O2369 Cd2361 2.381 . S
O2369 C2368 1.258 . S
O2370 Cd2361 2.378 . S
O2370 C2368 1.256 . S
O2371 Cd2372 2.300 . S
O2371 C2378 1.275 . S
Cd2372 O2371 2.300 . S
Cd2372 O2380 2.381 . S
Cd2372 O2381 2.378 . S
O2373 Cd2374 2.385 . S
O2373 C2378 1.255 . S
Cd2374 O2373 2.385 . S
Cd2374 O2375 2.317 . S
O2375 Cd2374 2.317 . S
O2375 C2376 1.232 . S
C2376 O2375 1.232 . S
C2376 O2377 1.218 . S
O2377 C2376 1.218 . S
C2378 O2371 1.275 . S
C2378 O2373 1.255 . S
C2379 O2380 1.258 . S
C2379 O2381 1.256 . S
O2380 Cd2372 2.381 . S
O2380 C2379 1.258 . S
O2381 Cd2372 2.378 . S
O2381 C2379 1.256 . S
O2382 Cd2383 2.300 . S
O2382 C2389 1.275 . S
Cd2383 O2382 2.300 . S
Cd2383 O2391 2.381 . S
Cd2383 O2392 2.378 . S
O2384 Cd2385 2.385 . S
O2384 C2389 1.255 . S
Cd2385 O2384 2.385 . S
Cd2385 O2386 2.317 . S
O2386 Cd2385 2.317 . S
O2386 C2387 1.232 . S
C2387 O2386 1.232 . S
C2387 O2388 1.218 . S
O2388 C2387 1.218 . S
C2389 O2382 1.275 . S
C2389 O2384 1.255 . S
C2390 O2391 1.258 . S
C2390 O2392 1.256 . S
O2391 Cd2383 2.381 . S
O2391 C2390 1.258 . S
O2392 Cd2383 2.378 . S
O2392 C2390 1.256 . S
O2393 Cd2394 2.300 . S
O2393 C2400 1.275 . S
Cd2394 O2393 2.300 . S
Cd2394 O2402 2.381 . S
Cd2394 O2403 2.378 . S
O2395 Cd2396 2.385 . S
O2395 C2400 1.255 . S
Cd2396 O2395 2.385 . S
Cd2396 O2397 2.317 . S
O2397 Cd2396 2.317 . S
O2397 C2398 1.232 . S
C2398 O2397 1.232 . S
C2398 O2399 1.218 . S
O2399 C2398 1.218 . S
C2400 O2393 1.275 . S
C2400 O2395 1.255 . S
C2401 O2402 1.258 . S
C2401 O2403 1.256 . S
O2402 Cd2394 2.381 . S
O2402 C2401 1.258 . S
O2403 Cd2394 2.378 . S
O2403 C2401 1.256 . S
O2404 Cd2405 2.300 . S
O2404 C2411 1.275 . S
Cd2405 O2404 2.300 . S
Cd2405 O2413 2.381 . S
Cd2405 O2414 2.378 . S
O2406 Cd2407 2.385 . S
O2406 C2411 1.255 . S
Cd2407 O2406 2.385 . S
Cd2407 O2408 2.317 . S
O2408 Cd2407 2.317 . S
O2408 C2409 1.232 . S
C2409 O2408 1.232 . S
C2409 O2410 1.218 . S
O2410 C2409 1.218 . S
C2411 O2404 1.275 . S
C2411 O2406 1.255 . S
C2412 O2413 1.258 . S
C2412 O2414 1.256 . S
O2413 Cd2405 2.381 . S
O2413 C2412 1.258 . S
O2414 Cd2405 2.378 . S
O2414 C2412 1.256 . S
O2415 Cd2416 2.300 . S
O2415 C2422 1.275 . S
Cd2416 O2415 2.300 . S
Cd2416 O2424 2.381 . S
Cd2416 O2425 2.378 . S
O2417 Cd2418 2.385 . S
O2417 C2422 1.255 . S
Cd2418 O2417 2.385 . S
Cd2418 O2419 2.317 . S
O2419 Cd2418 2.317 . S
O2419 C2420 1.232 . S
C2420 O2419 1.232 . S
C2420 O2421 1.218 . S
O2421 C2420 1.218 . S
C2422 O2415 1.275 . S
C2422 O2417 1.255 . S
C2423 O2424 1.258 . S
C2423 O2425 1.256 . S
O2424 Cd2416 2.381 . S
O2424 C2423 1.258 . S
O2425 Cd2416 2.378 . S
O2425 C2423 1.256 . S
O2426 Cd2427 2.300 . S
O2426 C2433 1.275 . S
Cd2427 O2426 2.300 . S
Cd2427 O2435 2.381 . S
Cd2427 O2436 2.378 . S
O2428 Cd2429 2.385 . S
O2428 C2433 1.255 . S
Cd2429 O2428 2.385 . S
Cd2429 O2430 2.317 . S
O2430 Cd2429 2.317 . S
O2430 C2431 1.232 . S
C2431 O2430 1.232 . S
C2431 O2432 1.218 . S
O2432 C2431 1.218 . S
C2433 O2426 1.275 . S
C2433 O2428 1.255 . S
C2434 O2435 1.258 . S
C2434 O2436 1.256 . S
O2435 Cd2427 2.381 . S
O2435 C2434 1.258 . S
O2436 Cd2427 2.378 . S
O2436 C2434 1.256 . S
O2437 Cd2438 2.300 . S
O2437 C2444 1.275 . S
Cd2438 O2437 2.300 . S
Cd2438 O2446 2.381 . S
Cd2438 O2447 2.378 . S
O2439 Cd2440 2.385 . S
O2439 C2444 1.255 . S
Cd2440 O2439 2.385 . S
Cd2440 O2441 2.317 . S
O2441 Cd2440 2.317 . S
O2441 C2442 1.232 . S
C2442 O2441 1.232 . S
C2442 O2443 1.218 . S
O2443 C2442 1.218 . S
C2444 O2437 1.275 . S
C2444 O2439 1.255 . S
C2445 O2446 1.258 . S
C2445 O2447 1.256 . S
O2446 Cd2438 2.381 . S
O2446 C2445 1.258 . S
O2447 Cd2438 2.378 . S
O2447 C2445 1.256 . S
C1781 C1927 1.680 . S
C981 C1938 1.701 . S
C1949 C1861 1.689 . S
C1061 C1960 1.685 . S
C1901 C1971 1.841 . S
C941 C1982 1.683 . S
C1821 C1993 1.926 . S
C1021 C2004 1.683 . S
C661 C2015 1.251 . S
C1621 C2026 1.364 . S
C741 C2037 2.293 . S
C1581 C2048 2.125 . S
C901 C2059 1.554 . S
C2070 C1661 1.904 . S
C2081 C821 2.650 . S
C1141 C2092 1.756 . S
C2103 C781 1.916 . S
C2114 C1701 2.661 . S
C861 C2125 1.760 . S
C1181 C2136 2.286 . S
C2147 C1101 1.276 . S
C1421 C2158 2.264 . S
C2169 C381 1.680 . S
C2180 C1501 1.847 . S
C2191 C461 1.532 . S
C2202 C1541 1.526 . S
C341 C2213 2.254 . S
C2224 C1461 1.682 . S
C421 C2235 1.859 . S
C2246 C61 1.769 . S
C2257 C1261 1.972 . S
C141 C2268 1.984 . S
C2279 C1221 1.905 . S
C2290 C301 1.550 . S
C1301 C2301 1.524 . S
C2312 C221 2.754 . S
C2323 C541 2.634 . S
C181 C2334 1.513 . S
C2345 C1341 2.763 . S
C261 C2356 2.673 . S
C2367 C581 2.005 . S
C501 C2378 1.696 . S
C701 C2389 1.372 . S
C2400 C621 2.113 . S
C1741 C2411 1.565 . S
C101 C2422 1.970 . S
C2433 C21 1.885 . S
C2444 C1381 1.567 . S
C1335 C1928 2.355 . S
C535 C1939 1.867 . S
C1362 C1950 1.581 . S
C1958 C1295 1.738 . S
C575 C1972 1.895 . S
C1215 C1980 2.967 . S
C1991 C495 1.395 . S
C1242 C2002 2.427 . S
C1255 C2013 1.054 . S
C2027 C562 2.254 . S
C1202 C2038 1.828 . S
C2049 C482 2.316 . S
C522 C2057 2.583 . S
C1375 C2071 1.736 . S
C2082 C1282 1.543 . S
C2090 C1322 3.892 . S
C455 C2046 1.278 . S
C1415 C2101 1.965 . S
C1455 C2112 2.323 . S
C2126 C1482 1.804 . S
C2060 C442 1.848 . S
C362 C2024 1.116 . S
C1495 C2134 3.043 . S
C2148 C1402 3.012 . S
C2156 C1695 2.540 . S
C1135 C2167 1.810 . S
C2181 C1722 1.787 . S
C2189 C1655 1.614 . S
C1175 C2203 2.788 . S
C1562 C2214 1.835 . S
C1095 C2225 2.245 . S
C2233 C1615 1.096 . S
C2244 C1602 1.272 . S
C1162 C2258 2.106 . S
C2266 C1575 2.001 . S
C1082 C2280 1.391 . S
C2291 C1122 2.345 . S
C1735 C2299 1.072 . S
C2310 C1642 1.566 . S
C1682 C2321 2.615 . S
C1042 C2277 1.045 . S
C1775 C2335 1.583 . S
C1815 C2346 2.150 . S
C2357 C1842 2.401 . S
C1055 C2288 1.615 . S
C975 C2255 1.462 . S
C2368 C1855 1.591 . S
C1762 C2379 1.502 . S
C1983 C215 2.352 . S
C1994 C255 1.908 . S
C2005 C282 1.555 . S
C1969 C175 1.817 . S
C1961 C135 1.839 . S
C15 C1925 2.934 . S
C55 C1936 1.362 . S
C82 C1947 2.420 . S
C95 C2145 1.062 . S
C122 C2390 2.231 . S
C2 C2137 1.807 . S
C42 C2401 2.376 . S
C242 C2409 2.609 . S
C2104 C295 1.759 . S
C162 C2115 1.541 . S
C202 C2123 3.865 . S
C2398 C1535 1.262 . S
C335 C2068 1.955 . S
C375 C2079 2.323 . S
C402 C2093 1.818 . S
C2412 C1522 1.845 . S
C2387 C1442 1.126 . S
C2035 C415 3.058 . S
C322 C2016 2.998 . S
C815 C2211 2.528 . S
C855 C2222 1.805 . S
C882 C2236 1.798 . S
C775 C2200 1.625 . S
C2192 C735 2.783 . S
C2159 C602 1.836 . S
C2170 C655 2.239 . S
C695 C2178 1.084 . S
C2376 C682 1.241 . S
C722 C2423 2.107 . S
C615 C2365 2.009 . S
C2434 C642 1.379 . S
C842 C2445 2.331 . S
C2332 C895 1.074 . S
C762 C2343 1.572 . S
C802 C2354 2.608 . S
C1895 C2431 1.121 . S
C2302 C935 1.579 . S
C962 C2313 2.021 . S
C1002 C2324 2.407 . S
C1882 C2442 1.688 . S
C1802 C2420 1.590 . S
C2269 C1015 1.573 . S
C2247 C922 1.499 . S
