# Generated by pormake.
# Topology llk, (3,12)-cn, num edge types: 1
# Building blocks:
#     Node 0, Type 0, BuildingBlock: WUSLED_clean_sbu_0, # of connection points: 3
#     Node 1, Type 0, BuildingBlock: WUSLED_clean_sbu_0, # of connection points: 3
#     Node 2, Type 0, BuildingBlock: WUSLED_clean_sbu_0, # of connection points: 3
#     Node 3, Type 0, BuildingBlock: WUSLED_clean_sbu_0, # of connection points: 3
#     Node 4, Type 0, BuildingBlock: WUSLED_clean_sbu_0, # of connection points: 3
#     Node 5, Type 0, BuildingBlock: WUSLED_clean_sbu_0, # of connection points: 3
#     Node 6, Type 0, BuildingBlock: WUSLED_clean_sbu_0, # of connection points: 3
#     Node 7, Type 0, BuildingBlock: WUSLED_clean_sbu_0, # of connection points: 3
#     Node 8, Type 0, BuildingBlock: WUSLED_clean_sbu_0, # of connection points: 3
#     Node 9, Type 0, BuildingBlock: WUSLED_clean_sbu_0, # of connection points: 3
#     Node 10, Type 0, BuildingBlock: WUSLED_clean_sbu_0, # of connection points: 3
#     Node 11, Type 0, BuildingBlock: WUSLED_clean_sbu_0, # of connection points: 3
#     Node 12, Type 0, BuildingBlock: WUSLED_clean_sbu_0, # of connection points: 3
#     Node 13, Type 0, BuildingBlock: WUSLED_clean_sbu_0, # of connection points: 3
#     Node 14, Type 0, BuildingBlock: WUSLED_clean_sbu_0, # of connection points: 3
#     Node 15, Type 0, BuildingBlock: WUSLED_clean_sbu_0, # of connection points: 3
#     Node 16, Type 0, BuildingBlock: WUSLED_clean_sbu_0, # of connection points: 3
#     Node 17, Type 0, BuildingBlock: WUSLED_clean_sbu_0, # of connection points: 3
#     Node 18, Type 0, BuildingBlock: WUSLED_clean_sbu_0, # of connection points: 3
#     Node 19, Type 0, BuildingBlock: WUSLED_clean_sbu_0, # of connection points: 3
#     Node 20, Type 0, BuildingBlock: WUSLED_clean_sbu_0, # of connection points: 3
#     Node 21, Type 0, BuildingBlock: WUSLED_clean_sbu_0, # of connection points: 3
#     Node 22, Type 0, BuildingBlock: WUSLED_clean_sbu_0, # of connection points: 3
#     Node 23, Type 0, BuildingBlock: WUSLED_clean_sbu_0, # of connection points: 3
#     Node 24, Type 1, BuildingBlock: EZIPEK_clean_sbu_0, # of connection points: 12
#     Node 25, Type 1, BuildingBlock: EZIPEK_clean_sbu_0, # of connection points: 12
#     Node 26, Type 1, BuildingBlock: EZIPEK_clean_sbu_0, # of connection points: 12
#     Node 27, Type 1, BuildingBlock: EZIPEK_clean_sbu_0, # of connection points: 12
#     Node 28, Type 1, BuildingBlock: EZIPEK_clean_sbu_0, # of connection points: 12
#     Node 29, Type 1, BuildingBlock: EZIPEK_clean_sbu_0, # of connection points: 12
#     Edge 30, Type (0, 1), BuildingBlock: KIFKEQ_clean_linker_1, # of connection points: 2
#     Edge 31, Type (0, 1), BuildingBlock: KIFKEQ_clean_linker_1, # of connection points: 2
#     Edge 32, Type (0, 1), BuildingBlock: KIFKEQ_clean_linker_1, # of connection points: 2
#     Edge 33, Type (0, 1), BuildingBlock: KIFKEQ_clean_linker_1, # of connection points: 2
#     Edge 34, Type (0, 1), BuildingBlock: KIFKEQ_clean_linker_1, # of connection points: 2
#     Edge 35, Type (0, 1), BuildingBlock: KIFKEQ_clean_linker_1, # of connection points: 2
#     Edge 36, Type (0, 1), BuildingBlock: KIFKEQ_clean_linker_1, # of connection points: 2
#     Edge 37, Type (0, 1), BuildingBlock: KIFKEQ_clean_linker_1, # of connection points: 2
#     Edge 38, Type (0, 1), BuildingBlock: KIFKEQ_clean_linker_1, # of connection points: 2
#     Edge 39, Type (0, 1), BuildingBlock: KIFKEQ_clean_linker_1, # of connection points: 2
#     Edge 40, Type (0, 1), BuildingBlock: KIFKEQ_clean_linker_1, # of connection points: 2
#     Edge 41, Type (0, 1), BuildingBlock: KIFKEQ_clean_linker_1, # of connection points: 2
#     Edge 42, Type (0, 1), BuildingBlock: KIFKEQ_clean_linker_1, # of connection points: 2
#     Edge 43, Type (0, 1), BuildingBlock: KIFKEQ_clean_linker_1, # of connection points: 2
#     Edge 44, Type (0, 1), BuildingBlock: KIFKEQ_clean_linker_1, # of connection points: 2
#     Edge 45, Type (0, 1), BuildingBlock: KIFKEQ_clean_linker_1, # of connection points: 2
#     Edge 46, Type (0, 1), BuildingBlock: KIFKEQ_clean_linker_1, # of connection points: 2
#     Edge 47, Type (0, 1), BuildingBlock: KIFKEQ_clean_linker_1, # of connection points: 2
#     Edge 48, Type (0, 1), BuildingBlock: KIFKEQ_clean_linker_1, # of connection points: 2
#     Edge 49, Type (0, 1), BuildingBlock: KIFKEQ_clean_linker_1, # of connection points: 2
#     Edge 50, Type (0, 1), BuildingBlock: KIFKEQ_clean_linker_1, # of connection points: 2
#     Edge 51, Type (0, 1), BuildingBlock: KIFKEQ_clean_linker_1, # of connection points: 2
#     Edge 52, Type (0, 1), BuildingBlock: KIFKEQ_clean_linker_1, # of connection points: 2
#     Edge 53, Type (0, 1), BuildingBlock: KIFKEQ_clean_linker_1, # of connection points: 2
#     Edge 54, Type (0, 1), BuildingBlock: KIFKEQ_clean_linker_1, # of connection points: 2
#     Edge 55, Type (0, 1), BuildingBlock: KIFKEQ_clean_linker_1, # of connection points: 2
#     Edge 56, Type (0, 1), BuildingBlock: KIFKEQ_clean_linker_1, # of connection points: 2
#     Edge 57, Type (0, 1), BuildingBlock: KIFKEQ_clean_linker_1, # of connection points: 2
#     Edge 58, Type (0, 1), BuildingBlock: KIFKEQ_clean_linker_1, # of connection points: 2
#     Edge 59, Type (0, 1), BuildingBlock: KIFKEQ_clean_linker_1, # of connection points: 2
#     Edge 60, Type (0, 1), BuildingBlock: KIFKEQ_clean_linker_1, # of connection points: 2
#     Edge 61, Type (0, 1), BuildingBlock: KIFKEQ_clean_linker_1, # of connection points: 2
#     Edge 62, Type (0, 1), BuildingBlock: KIFKEQ_clean_linker_1, # of connection points: 2
#     Edge 63, Type (0, 1), BuildingBlock: KIFKEQ_clean_linker_1, # of connection points: 2
#     Edge 64, Type (0, 1), BuildingBlock: KIFKEQ_clean_linker_1, # of connection points: 2
#     Edge 65, Type (0, 1), BuildingBlock: KIFKEQ_clean_linker_1, # of connection points: 2
#     Edge 66, Type (0, 1), BuildingBlock: KIFKEQ_clean_linker_1, # of connection points: 2
#     Edge 67, Type (0, 1), BuildingBlock: KIFKEQ_clean_linker_1, # of connection points: 2
#     Edge 68, Type (0, 1), BuildingBlock: KIFKEQ_clean_linker_1, # of connection points: 2
#     Edge 69, Type (0, 1), BuildingBlock: KIFKEQ_clean_linker_1, # of connection points: 2
#     Edge 70, Type (0, 1), BuildingBlock: KIFKEQ_clean_linker_1, # of connection points: 2
#     Edge 71, Type (0, 1), BuildingBlock: KIFKEQ_clean_linker_1, # of connection points: 2
#     Edge 72, Type (0, 1), BuildingBlock: KIFKEQ_clean_linker_1, # of connection points: 2
#     Edge 73, Type (0, 1), BuildingBlock: KIFKEQ_clean_linker_1, # of connection points: 2
#     Edge 74, Type (0, 1), BuildingBlock: KIFKEQ_clean_linker_1, # of connection points: 2
#     Edge 75, Type (0, 1), BuildingBlock: KIFKEQ_clean_linker_1, # of connection points: 2
#     Edge 76, Type (0, 1), BuildingBlock: KIFKEQ_clean_linker_1, # of connection points: 2
#     Edge 77, Type (0, 1), BuildingBlock: KIFKEQ_clean_linker_1, # of connection points: 2
#     Edge 78, Type (0, 1), BuildingBlock: KIFKEQ_clean_linker_1, # of connection points: 2
#     Edge 79, Type (0, 1), BuildingBlock: KIFKEQ_clean_linker_1, # of connection points: 2
#     Edge 80, Type (0, 1), BuildingBlock: KIFKEQ_clean_linker_1, # of connection points: 2
#     Edge 81, Type (0, 1), BuildingBlock: KIFKEQ_clean_linker_1, # of connection points: 2
#     Edge 82, Type (0, 1), BuildingBlock: KIFKEQ_clean_linker_1, # of connection points: 2
#     Edge 83, Type (0, 1), BuildingBlock: KIFKEQ_clean_linker_1, # of connection points: 2
#     Edge 84, Type (0, 1), BuildingBlock: KIFKEQ_clean_linker_1, # of connection points: 2
#     Edge 85, Type (0, 1), BuildingBlock: KIFKEQ_clean_linker_1, # of connection points: 2
#     Edge 86, Type (0, 1), BuildingBlock: KIFKEQ_clean_linker_1, # of connection points: 2
#     Edge 87, Type (0, 1), BuildingBlock: KIFKEQ_clean_linker_1, # of connection points: 2
#     Edge 88, Type (0, 1), BuildingBlock: KIFKEQ_clean_linker_1, # of connection points: 2
#     Edge 89, Type (0, 1), BuildingBlock: KIFKEQ_clean_linker_1, # of connection points: 2
#     Edge 90, Type (0, 1), BuildingBlock: KIFKEQ_clean_linker_1, # of connection points: 2
#     Edge 91, Type (0, 1), BuildingBlock: KIFKEQ_clean_linker_1, # of connection points: 2
#     Edge 92, Type (0, 1), BuildingBlock: KIFKEQ_clean_linker_1, # of connection points: 2
#     Edge 93, Type (0, 1), BuildingBlock: KIFKEQ_clean_linker_1, # of connection points: 2
#     Edge 94, Type (0, 1), BuildingBlock: KIFKEQ_clean_linker_1, # of connection points: 2
#     Edge 95, Type (0, 1), BuildingBlock: KIFKEQ_clean_linker_1, # of connection points: 2
#     Edge 96, Type (0, 1), BuildingBlock: KIFKEQ_clean_linker_1, # of connection points: 2
#     Edge 97, Type (0, 1), BuildingBlock: KIFKEQ_clean_linker_1, # of connection points: 2
#     Edge 98, Type (0, 1), BuildingBlock: KIFKEQ_clean_linker_1, # of connection points: 2
#     Edge 99, Type (0, 1), BuildingBlock: KIFKEQ_clean_linker_1, # of connection points: 2
#     Edge 100, Type (0, 1), BuildingBlock: KIFKEQ_clean_linker_1, # of connection points: 2
#     Edge 101, Type (0, 1), BuildingBlock: KIFKEQ_clean_linker_1, # of connection points: 2
# Relax obj value: 0.100
# Max RMSD: 0.151
# Mean RMSD: 0.127
data_MOF--net-llk--node1-WUSLED_clean_sbu_0--node2-EZIPEK_clean_sbu_0--edge1-KIFKEQ_clean_linker_1
_symmetry_space_group_name_H-M    P1
_symmetry_Int_Tables_number       1
_symmetry_cell_setting            triclinic
loop_
_symmetry_equiv_pos_as_xyz
'x, y, z'
_cell_length_a     60.140426
_cell_length_b     60.173146
_cell_length_c     60.054283
_cell_angle_alpha  89.989689
_cell_angle_beta   89.997858
_cell_angle_gamma 90.020715
loop_
_atom_site_label
_atom_site_type_symbol
_atom_site_fract_x
_atom_site_fract_y
_atom_site_fract_z
_atom_type_partial_charge
C0 C 0.01386 0.29218 0.2041 0.0
C1 C 0.01353 0.31381 0.21287 0.0
C2 C 0.01417 0.3294 0.17532 0.0
C3 C 0.01367 0.33226 0.19861 0.0
C4 C 0.01426 0.30762 0.16672 0.0
C5 C 0.01413 0.28924 0.18098 0.0
U6 U 1.00966 0.26541 0.26173 0.0
O7 O 0.02956 0.23815 0.27588 0.0
O8 O 0.99352 0.23399 0.27146 0.0
C9 C 0.01223 0.22506 0.27838 0.0
C10 C 0.01413 0.27255 0.21877 0.0
C11 C 0.0113 0.21159 0.29885 0.0
C12 C 0.01267 0.17478 0.31536 0.0
C13 C 0.01274 0.18848 0.29663 0.0
C14 C 1.00932 0.20713 0.33912 0.0
C15 C 0.01118 0.18386 0.33688 0.0
C16 C 1.00947 0.22094 0.3202 0.0
C17 C 0.99904 0.30786 0.31013 0.0
C18 C 0.01032 0.31067 0.3489 0.0
C19 C 0.9833 0.33644 0.33382 0.0
C20 C 0.9845 0.32574 0.31329 0.0
C21 C 0.99659 0.32943 0.35177 0.0
C22 C 0.01158 0.29997 0.3282 0.0
C23 C 1.00259 0.30006 0.28721 0.0
O24 O 0.03102 0.2713 0.23258 0.0
O25 O 0.99507 0.26744 0.22814 0.0
O26 O 0.98642 0.28868 0.2779 0.0
O27 O 0.02257 0.29281 0.28208 0.0
H28 H 0.01331 0.3164 0.23072 0.0
H29 H 0.01379 0.34875 0.20583 0.0
H30 H 0.01423 0.30475 0.14892 0.0
H31 H 0.01427 0.27267 0.17391 0.0
H32 H 0.01366 0.15697 0.31294 0.0
H33 H 0.01406 0.18096 0.28028 0.0
H34 H 1.00821 0.21465 0.35546 0.0
H35 H 1.00834 0.23879 0.32223 0.0
H36 H 0.02055 0.30463 0.36245 0.0
H37 H 0.97282 0.35101 0.33515 0.0
H38 H 0.97484 0.33218 0.29949 0.0
H39 H 0.02291 0.28613 0.32612 0.0
C40 C 0.82011 0.0146 0.28935 0.0
C41 C 0.81049 0.01438 0.31065 0.0
C42 C 0.84726 0.01272 0.32769 0.0
C43 C 0.82395 0.01351 0.32967 0.0
C44 C 0.85675 0.01309 0.30624 0.0
C45 C 0.84328 0.01402 0.28728 0.0
U46 U 0.76318 0.01238 0.26198 0.0
O47 O 0.75307 0.99487 0.23141 0.0
O48 O 0.7497 0.03119 0.23359 0.0
C49 C 0.74645 0.01321 0.22155 0.0
C50 C 0.80617 0.01498 0.26922 0.0
C51 C 0.72559 0.01184 0.20874 0.0
C52 C 0.70787 1.00439 0.17318 0.0
C53 C 0.72691 1.00524 0.18642 0.0
C54 C 0.68562 0.01665 0.20446 0.0
C55 C 0.68694 0.01007 0.18195 0.0
C56 C 0.70481 0.01748 0.21778 0.0
C57 C 0.71425 1.00641 0.30516 0.0
C58 C 0.68239 0.02411 0.32277 0.0
C59 C 0.68715 0.98426 0.32548 0.0
C60 C 0.7064 0.98568 0.31255 0.0
C61 C 0.67543 1.00356 0.33148 0.0
C62 C 0.70163 0.02553 0.3098 0.0
C63 C 0.73734 1.00839 0.29696 0.0
O64 O 0.79589 0.99625 0.2647 0.0
O65 O 0.79334 0.03251 0.26695 0.0
O66 O 0.74363 0.02767 0.28876 0.0
O67 O 0.74596 0.99126 0.28645 0.0
H68 H 0.79257 0.01472 0.31254 0.0
H69 H 0.81609 0.01303 0.34589 0.0
H70 H 0.87463 0.01286 0.30411 0.0
H71 H 0.85099 0.01421 0.27097 0.0
H72 H 0.70967 0.99969 0.15586 0.0
H73 H 0.74281 1.00098 0.17909 0.0
H74 H 0.66975 0.02099 0.21179 0.0
H75 H 0.70346 0.02262 0.23502 0.0
H76 H 0.67386 0.03932 0.3272 0.0
H77 H 0.68199 0.96813 0.33162 0.0
H78 H 0.71584 0.97067 0.30947 0.0
H79 H 0.70732 0.04181 0.30462 0.0
C80 C 0.0153 0.8188 0.29384 0.0
C81 C 0.01452 0.81063 0.31573 0.0
C82 C 0.01485 0.84853 0.33035 0.0
C83 C 0.01429 0.82536 0.33383 0.0
C84 C 0.01546 0.85651 0.30832 0.0
C85 C 0.0157 0.8418 0.29029 0.0
U86 U 0.01162 0.76066 0.26781 0.0
O87 O 0.03136 0.74642 0.24045 0.0
O88 O 0.99529 0.75081 0.23645 0.0
C89 C 0.01397 0.74393 0.22741 0.0
C90 C 0.01571 0.80368 0.27452 0.0
C91 C 0.013 0.72372 0.21355 0.0
C92 C 0.01046 0.70821 0.17628 0.0
C93 C 1.00999 0.72647 0.19059 0.0
C94 C 0.01634 0.68377 0.20777 0.0
C95 C 0.01394 0.68665 0.18458 0.0
C96 C 0.01599 0.70222 0.22218 0.0
C97 C 1.0015 0.71258 0.31089 0.0
C98 C 0.01324 0.67407 0.31448 0.0
C99 C 0.98571 0.68916 0.33972 0.0
C100 C 0.98679 0.7095 0.32868 0.0
C101 C 0.9993 0.6713 0.33315 0.0
C102 C 0.01438 0.69458 0.30345 0.0
C103 C 1.00487 0.7354 0.30275 0.0
O104 O 0.03272 0.79002 0.2735 0.0
O105 O 0.99673 0.79405 0.26962 0.0
O106 O 0.98858 0.7445 0.29135 0.0
O107 O 0.02478 0.7406 0.29533 0.0
H108 H 0.01419 0.79289 0.31879 0.0
H109 H 0.01402 0.8186 0.35053 0.0
H110 H 0.01551 0.87419 0.30495 0.0
H111 H 0.01618 0.84841 0.27351 0.0
H112 H 1.00811 0.71102 0.15862 0.0
H113 H 1.00761 0.74291 0.18361 0.0
H114 H 0.01908 0.66738 0.21469 0.0
H115 H 0.01836 0.69976 0.23989 0.0
H116 H 0.0237 0.66059 0.30876 0.0
H117 H 0.97506 0.68791 0.3542 0.0
H118 H 0.97687 0.72325 0.33481 0.0
H119 H 0.02586 0.69659 0.28969 0.0
C120 C 0.20063 0.01819 0.29318 0.0
C121 C 0.20972 0.01713 0.3147 0.0
C122 C 0.1725 0.01692 0.33095 0.0
C123 C 0.19578 0.01657 0.33342 0.0
C124 C 0.16356 0.01805 0.30929 0.0
C125 C 0.17749 0.01867 0.29063 0.0
U126 U 0.25792 0.01292 0.26675 0.0
O127 O 0.27365 0.03242 0.24 0.0
O128 O 0.26763 0.99667 0.23528 0.0
C129 C 0.27564 0.01513 0.22674 0.0
C130 C 0.21506 0.01853 0.27332 0.0
C131 C 0.296 0.01341 0.21301 0.0
C132 C 0.31171 1.00637 0.17634 0.0
C133 C 0.29366 1.0061 0.19097 0.0
C134 C 0.33528 0.02052 0.20578 0.0
C135 C 0.33269 0.01393 0.18339 0.0
C136 C 0.31703 0.02039 0.22047 0.0
C137 C 0.30353 1.00075 0.31255 0.0
C138 C 0.34135 0.01247 0.32054 0.0
C139 C 0.32326 0.98534 0.34422 0.0
C140 C 0.30443 0.9862 0.33072 0.0
C141 C 0.34172 0.99899 0.33975 0.0
C142 C 0.32234 0.01343 0.30709 0.0
C143 C 0.28167 1.00482 0.30241 0.0
O144 O 0.2293 0.03507 0.27226 0.0
O145 O 0.22392 0.99935 0.26785 0.0
O146 O 0.27278 0.98895 0.29027 0.0
O147 O 0.27761 0.02497 0.29498 0.0
H148 H 0.22758 0.01664 0.317 0.0
H149 H 0.20325 0.01548 0.34979 0.0
H150 H 0.14574 0.01868 0.30674 0.0
H151 H 0.17017 0.01952 0.27416 0.0
H152 H 0.30918 1.00081 0.15938 0.0
H153 H 0.2776 1.00067 0.18484 0.0
H154 H 0.35121 0.02647 0.21172 0.0
H155 H 0.31924 0.02617 0.2374 0.0
H156 H 0.35544 0.02286 0.31633 0.0
H157 H 0.32271 0.97497 0.35894 0.0
H158 H 0.28998 0.97646 0.33534 0.0
H159 H 0.322 0.0248 0.2931 0.0
C160 C 1.00488 0.73218 0.81999 0.0
C161 C 1.00584 0.71057 0.81124 0.0
C162 C 1.00484 0.69494 0.84876 0.0
C163 C 1.00582 0.69211 0.82549 0.0
C164 C 1.00403 0.71671 0.85736 0.0
C165 C 1.00404 0.7351 0.84311 0.0
U166 U 1.01006 0.75856 0.76237 0.0
O167 O 0.0266 0.78987 0.75286 0.0
O168 O 0.99068 0.78574 0.74738 0.0
C169 C 1.00813 0.79875 0.74526 0.0
C170 C 1.00478 0.75179 0.8053 0.0
C171 C 1.00974 0.81226 0.72483 0.0
C172 C 0.01427 0.84907 0.70881 0.0
C173 C 0.01436 0.83495 0.72724 0.0
C174 C 1.00564 0.81788 0.68484 0.0
C175 C 1.00957 0.84084 0.68741 0.0
C176 C 1.00561 0.80367 0.70346 0.0
C177 C 0.02147 0.7151 0.7149 0.0
C178 C 0.01051 0.71092 0.67616 0.0
C179 C 0.03733 0.68564 0.6924 0.0
C180 C 0.03601 0.69711 0.71251 0.0
C181 C 0.02416 0.69199 0.67411 0.0
C182 C 1.00912 0.72238 0.69644 0.0
C183 C 0.01755 0.72355 0.73753 0.0
O184 O 0.024 0.75688 0.79624 0.0
O185 O 0.98814 0.75297 0.79118 0.0
O186 O 0.99749 0.73095 0.74213 0.0
O187 O 0.03358 0.73507 0.74692 0.0
H188 H 1.00652 0.70799 0.79339 0.0
H189 H 1.00625 0.67563 0.81826 0.0
H190 H 1.00366 0.71957 0.87515 0.0
H191 H 1.00342 0.75166 0.85017 0.0
H192 H 0.01777 0.86655 0.71135 0.0
H193 H 0.01763 0.8419 0.74356 0.0
H194 H 1.00194 0.81104 0.66858 0.0
H195 H 1.00198 0.78618 0.70125 0.0
H196 H 1.0004 0.71649 0.66232 0.0
H197 H 0.04775 0.67099 0.6917 0.0
H198 H 0.04552 0.69112 0.72662 0.0
H199 H 0.99779 0.73629 0.69793 0.0
C200 C 0.20096 0.01561 0.73227 0.0
C201 C 0.20962 0.01589 0.71055 0.0
C202 C 0.1721 0.01409 0.69503 0.0
C203 C 0.19533 0.01521 0.6921 0.0
C204 C 0.1636 0.01382 0.71689 0.0
C205 C 0.17789 0.01458 0.73528 0.0
U206 U 0.2586 0.01152 0.75898 0.0
O207 O 0.26825 0.99559 0.79062 0.0
O208 O 0.2734 0.03145 0.78595 0.0
C209 C 0.27557 0.01426 0.79929 0.0
C210 C 0.21568 0.01624 0.75194 0.0
C211 C 0.29584 0.0131 0.81314 0.0
C212 C 0.31147 0.01128 0.85044 0.0
C213 C 0.2931 0.01121 0.83623 0.0
C214 C 0.33599 0.01461 0.81864 0.0
C215 C 0.33317 0.01325 0.84193 0.0
C216 C 0.31743 0.01464 0.80433 0.0
C217 C 0.30591 0.99991 0.7152 0.0
C218 C 0.34442 0.01118 0.71032 0.0
C219 C 0.32796 0.98426 0.68525 0.0
C220 C 0.30809 0.9854 0.69712 0.0
C221 C 0.34623 0.99757 0.69129 0.0
C222 C 0.32436 0.0124 0.72216 0.0
C223 C 0.28342 1.00373 0.72397 0.0
O224 O 0.2249 0.99723 0.75744 0.0
O225 O 0.22962 0.03303 0.75288 0.0
O226 O 0.27872 0.02384 0.73113 0.0
O227 O 0.27429 0.98779 0.73583 0.0
H228 H 0.22743 0.01657 0.70788 0.0
H229 H 0.20248 0.01521 0.67555 0.0
H230 H 0.14584 0.0133 0.71982 0.0
H231 H 0.17088 0.01438 0.7519 0.0
H232 H 0.30864 1.00976 0.86819 0.0
H233 H 0.2766 1.00993 0.84338 0.0
H234 H 0.35246 0.01619 0.81154 0.0
H235 H 0.3199 0.01613 0.78652 0.0
H236 H 0.35826 0.02137 0.71568 0.0
H237 H 0.32848 0.97387 0.67055 0.0
H238 H 0.29396 0.97579 0.69137 0.0
H239 H 0.32303 0.02372 0.73612 0.0
C240 C 1.00253 0.20247 0.73458 0.0
C241 C 1.00341 0.21133 0.71297 0.0
C242 C 1.00226 0.17398 0.69714 0.0
C243 C 1.00327 0.19721 0.69441 0.0
C244 C 1.00157 0.16527 0.71891 0.0
C245 C 1.00169 0.17939 0.73741 0.0
U246 U 1.00785 0.25987 0.76102 0.0
O247 O 0.98833 0.27488 0.7881 0.0
O248 O 0.02422 0.26938 0.79247 0.0
C249 C 1.00572 0.27711 0.80118 0.0
C250 C 1.00243 0.21705 0.75427 0.0
C251 C 1.00735 0.29776 0.81431 0.0
C252 C 0.01223 0.3145 0.85078 0.0
C253 C 0.0124 0.29585 0.83699 0.0
C254 C 1.00272 0.33768 0.81922 0.0
C255 C 1.00703 0.3356 0.8422 0.0
C256 C 1.00277 0.31885 0.80535 0.0
C257 C 0.01967 0.30744 0.71802 0.0
C258 C 1.00907 0.34629 0.71484 0.0
C259 C 0.03573 0.3305 0.68907 0.0
C260 C 0.03421 0.31015 0.70003 0.0
C261 C 0.02275 0.3487 0.69593 0.0
C262 C 1.0075 0.32578 0.72579 0.0
C263 C 0.01564 0.28471 0.72603 0.0
O264 O 0.02167 0.22601 0.75944 0.0
O265 O 0.98583 0.2312 0.75541 0.0
O266 O 0.99552 0.28008 0.73326 0.0
O267 O 0.03156 0.27521 0.73762 0.0
H268 H 1.00408 0.22915 0.71047 0.0
H269 H 1.00361 0.20451 0.67793 0.0
H270 H 1.00118 0.1475 0.72168 0.0
H271 H 1.00113 0.17226 0.75397 0.0
H272 H 0.01605 0.31236 0.86827 0.0
H273 H 0.01603 0.27974 0.84421 0.0
H274 H 0.99863 0.35372 0.81212 0.0
H275 H 0.99882 0.32066 0.78785 0.0
H276 H 0.9991 0.36005 0.72077 0.0
H277 H 0.04616 0.3315 0.67441 0.0
H278 H 0.0436 0.29614 0.69368 0.0
H279 H 0.99618 0.32404 0.73972 0.0
C280 C 0.73234 1.00628 0.82441 0.0
C281 C 0.71102 1.00732 0.81493 0.0
C282 C 0.69423 1.00805 0.85191 0.0
C283 C 0.69213 1.00813 0.82855 0.0
C284 C 0.71569 1.00696 0.86125 0.0
C285 C 0.73454 1.00608 0.84762 0.0
U286 U 0.75948 1.00983 0.76734 0.0
O287 O 0.78654 0.98992 0.75289 0.0
O288 O 0.7909 0.02591 0.75745 0.0
C289 C 0.79963 1.00723 0.75022 0.0
C290 C 0.75236 1.00561 0.8103 0.0
C291 C 0.81266 1.00833 0.72948 0.0
C292 C 0.84915 0.01126 0.7124 0.0
C293 C 0.83565 0.01156 0.73129 0.0
C294 C 0.81675 1.00513 0.68924 0.0
C295 C 0.83997 1.00773 0.69116 0.0
C296 C 0.80317 1.00533 0.70831 0.0
C297 C 0.71533 0.0203 0.71996 0.0
C298 C 0.70748 1.00659 0.68267 0.0
C299 C 0.68506 0.03609 0.6985 0.0
C300 C 0.69811 0.03581 0.71765 0.0
C301 C 0.68911 0.02094 0.68122 0.0
C302 C 0.72049 1.00617 0.70204 0.0
C303 C 0.72446 0.01691 0.7424 0.0
O304 O 0.75367 0.98862 0.79662 0.0
O305 O 0.75781 0.02454 0.80087 0.0
O306 O 0.73616 0.03313 0.75125 0.0
O307 O 0.73179 0.99694 0.74743 0.0
H308 H 0.70902 1.00759 0.797 0.0
H309 H 0.6759 1.00919 0.82081 0.0
H310 H 0.71793 1.00653 0.87913 0.0
H311 H 0.75086 1.00525 0.85522 0.0
H312 H 0.86687 0.01376 0.71446 0.0
H313 H 0.84327 0.01398 0.74746 0.0
H314 H 0.80919 1.00235 0.67312 0.0
H315 H 0.78541 1.00281 0.70659 0.0
H316 H 0.71083 0.99474 0.66952 0.0
H317 H 0.67106 0.04739 0.69764 0.0
H318 H 0.69379 0.04677 0.73131 0.0
H319 H 0.73369 0.99401 0.70349 0.0
C320 C 0.20003 0.29001 0.01298 0.0
C321 C 0.20925 0.31144 0.01226 0.0
C322 C 0.17212 0.32786 0.01305 0.0
C323 C 0.19543 0.3302 0.01228 0.0
C324 C 0.16306 0.30627 0.01369 0.0
C325 C 0.17688 0.28758 0.01366 0.0
U326 U 0.25718 0.26224 1.01042 0.0
O327 O 0.26696 0.23189 0.9924 0.0
O328 O 0.2699 0.23326 0.02884 0.0
C329 C 0.27321 0.22157 1.01064 0.0
C330 C 0.21423 0.27006 0.01287 0.0
C331 C 0.29398 0.20862 1.0093 0.0
C332 C 0.31143 0.17275 1.00307 0.0
C333 C 0.29241 0.18599 1.0041 0.0
C334 C 0.33417 0.20462 0.01244 0.0
C335 C 0.3326 0.18182 1.00717 0.0
C336 C 0.31499 0.21794 0.01345 0.0
C337 C 0.30762 0.30333 1.00572 0.0
C338 C 0.34003 0.31964 0.02369 0.0
C339 C 0.33675 0.32058 0.98353 0.0
C340 C 0.31662 0.30908 0.9849 0.0
C341 C 0.34823 0.32677 1.00296 0.0
C342 C 0.3199 0.3081 0.02506 0.0
C343 C 0.28405 0.29646 1.00739 0.0
O344 O 0.22464 0.26602 0.99407 0.0
O345 O 0.22694 0.26736 0.03046 0.0
O346 O 0.27726 0.28816 0.02648 0.0
O347 O 0.27507 0.28672 0.98996 0.0
H348 H 0.22713 0.31363 0.01173 0.0
H349 H 0.20299 0.34653 0.01199 0.0
H350 H 0.14523 0.30378 0.0139 0.0
H351 H 0.16946 0.27117 0.0141 0.0
H352 H 0.30945 0.15523 0.99942 0.0
H353 H 0.27633 0.17845 1.001 0.0
H354 H 0.3502 0.21219 0.01556 0.0
H355 H 0.31653 0.23542 0.01749 0.0
H356 H 0.34833 0.32429 0.039 0.0
H357 H 0.34282 0.32554 0.96729 0.0
H358 H 0.3075 0.30584 0.96968 0.0
H359 H 0.31335 0.30418 0.04139 0.0
C360 C 0.29079 0.81969 0.0165 0.0
C361 C 0.31255 0.81126 0.01628 0.0
C362 C 0.32756 0.84895 0.01523 0.0
C363 C 0.33079 0.82576 0.01571 0.0
C364 C 0.30566 0.85722 0.01549 0.0
C365 C 0.28749 0.84272 0.01612 0.0
U366 U 0.2647 0.76181 0.01247 0.0
O367 O 0.23345 0.75208 0.99594 0.0
O368 O 0.23735 0.74731 0.03203 0.0
C369 C 0.2244 0.74496 0.01454 0.0
C370 C 0.27136 0.80477 0.01691 0.0
C371 C 0.21076 0.72466 0.01327 0.0
C372 C 0.17371 0.70881 1.0106 0.0
C373 C 0.18778 0.72724 1.01058 0.0
C374 C 0.2055 0.68457 0.0154 0.0
C375 C 0.18229 0.68725 0.01329 0.0
C376 C 0.21966 0.70319 0.01549 0.0
C377 C 0.3079 0.714 1.00202 0.0
C378 C 0.31121 0.67531 0.01323 0.0
C379 C 0.33709 0.69089 0.98654 0.0
C380 C 0.32602 0.7112 0.98768 0.0
C381 C 0.3302 0.6728 0.99969 0.0
C382 C 0.30016 0.69579 0.01443 0.0
C383 C 0.29967 0.73674 1.00555 0.0
O384 O 0.26637 0.79533 0.99784 0.0
O385 O 0.2703 0.79099 0.03385 0.0
O386 O 0.2922 0.74172 0.02552 0.0
O387 O 0.28827 0.74593 0.9893 0.0
H388 H 0.31541 0.79348 0.01645 0.0
H389 H 0.3474 0.81882 0.01529 0.0
H390 H 0.30254 0.87494 0.01547 0.0
H391 H 0.27081 0.84952 0.01633 0.0
H392 H 0.15602 0.71147 1.0085 0.0
H393 H 0.1806 0.74366 1.00876 0.0
H394 H 0.21261 0.66818 0.01754 0.0
H395 H 0.2374 0.70087 0.01759 0.0
H396 H 0.30526 0.66165 0.02334 0.0
H397 H 0.35181 0.68984 0.97622 0.0
H398 H 0.33237 0.72511 0.97812 0.0
H399 H 0.28614 0.6976 0.02562 0.0
C400 C 0.73219 0.20256 0.01506 0.0
C401 C 0.71072 0.2116 0.01356 0.0
C402 C 0.69444 0.17441 0.01514 0.0
C403 C 0.69201 0.19766 0.01357 0.0
C404 C 0.71607 0.16554 0.01655 0.0
C405 C 0.73471 0.17947 0.01652 0.0
U406 U 0.7599 0.25985 0.01276 0.0
O407 O 0.79035 0.26985 0.99494 0.0
O408 O 0.78875 0.27264 0.03137 0.0
C409 C 0.80058 0.27602 0.01327 0.0
C410 C 0.75211 0.21688 0.01504 0.0
C411 C 0.81378 0.29669 0.01211 0.0
C412 C 0.84991 0.31379 1.00601 0.0
C413 C 0.83638 0.29494 1.00675 0.0
C414 C 0.81841 0.33676 0.01598 0.0
C415 C 0.84118 0.335 1.01057 0.0
C416 C 0.80479 0.31774 0.01671 0.0
C417 C 0.71831 0.30996 1.00808 0.0
C418 C 0.70132 0.34193 0.02616 0.0
C419 C 0.70043 0.33877 0.986 0.0
C420 C 0.71237 0.3189 0.98729 0.0
C421 C 0.69399 0.35002 1.00547 0.0
C422 C 0.71329 0.32207 0.02746 0.0
C423 C 0.72553 0.28651 1.00968 0.0
O424 O 0.75621 0.22736 0.99629 0.0
O425 O 0.75474 0.22954 0.03267 0.0
O426 O 0.73381 0.27973 0.02878 0.0
O427 O 0.73545 0.27773 0.99225 0.0
H428 H 0.70844 0.22943 0.01243 0.0
H429 H 0.67565 0.2051 0.01267 0.0
H430 H 0.71865 0.14775 0.0174 0.0
H431 H 0.75114 0.17217 0.01758 0.0
H432 H 0.86739 0.31163 1.00225 0.0
H433 H 0.84369 0.27883 1.00332 0.0
H434 H 0.81107 0.35282 0.01945 0.0
H435 H 0.78736 0.31945 0.0209 0.0
H436 H 0.69649 0.35006 0.0415 0.0
H437 H 0.69532 0.34477 0.96978 0.0
H438 H 0.71578 0.3099 0.97205 0.0
H439 H 0.71735 0.31555 0.04377 0.0
C440 C 0.81708 0.73123 0.0122 0.0
C441 C 0.80863 0.70949 0.01309 0.0
C442 C 0.84635 0.69438 0.01413 0.0
C443 C 0.82312 0.69123 0.01399 0.0
C444 C 0.85464 0.71626 0.0132 0.0
C445 C 0.84016 0.73445 0.01225 0.0
U446 U 0.75916 0.75773 0.01531 0.0
O447 O 0.74924 0.78927 0.03113 0.0
O448 O 0.74483 0.78473 0.9951 0.0
C449 C 0.74235 0.79802 0.0123 0.0
C450 C 0.80219 0.75072 1.01135 0.0
C451 C 0.72213 0.81193 0.01306 0.0
C452 C 0.70655 0.84922 0.01297 0.0
C453 C 0.72492 0.83504 0.01305 0.0
C454 C 0.68194 0.81738 0.01333 0.0
C455 C 0.68478 0.84067 0.01288 0.0
C456 C 0.7005 0.80309 0.01333 0.0
C457 C 0.7114 0.71434 0.02611 0.0
C458 C 0.67304 0.7097 0.0142 0.0
C459 C 0.6887 0.68499 0.04192 0.0
C460 C 0.70874 0.69657 0.04091 0.0
C461 C 0.67074 0.691 0.02817 0.0
C462 C 0.69326 0.72126 0.01312 0.0
C463 C 0.73405 0.72287 0.02263 0.0
O464 O 0.78854 0.75158 0.99429 0.0
O465 O 0.7926 0.75613 0.03023 0.0
O466 O 0.74301 0.7346 0.03877 0.0
O467 O 0.73915 0.73002 1.00257 0.0
H468 H 0.79083 0.70666 0.01317 0.0
H469 H 0.81613 0.67467 0.01492 0.0
H470 H 0.87237 0.71936 0.01292 0.0
H471 H 0.84701 0.75109 0.01151 0.0
H472 H 0.70945 0.86698 0.0131 0.0
H473 H 0.74146 0.84221 0.01295 0.0
H474 H 0.66542 0.81022 0.01321 0.0
H475 H 0.69799 0.78526 0.01334 0.0
H476 H 0.65945 0.71501 1.00364 0.0
H477 H 0.68782 0.67052 0.0526 0.0
H478 H 0.72262 0.69085 0.0509 0.0
H479 H 0.69497 0.73498 1.00157 0.0
C480 C 0.51176 0.79571 0.71274 0.0
C481 C 0.50683 0.81707 0.72081 0.0
C482 C 0.51222 0.83265 0.68354 0.0
C483 C 0.50718 0.83545 0.70631 0.0
C484 C 0.51767 0.81128 0.67585 0.0
C485 C 0.51746 0.79309 0.69027 0.0
U486 U 0.51115 0.75802 0.76663 0.0
O487 O 0.52494 0.72415 0.76813 0.0
O488 O 0.48906 0.72928 0.77166 0.0
C489 C 0.50567 0.71518 0.77316 0.0
C490 C 0.50986 0.77545 0.72647 0.0
C491 C 0.50565 0.7009 0.7931 0.0
C492 C 0.50596 0.66397 0.80945 0.0
C493 C 0.50556 0.67776 0.79068 0.0
C494 C 0.50639 0.69637 0.83338 0.0
C495 C 0.50646 0.67308 0.83105 0.0
C496 C 0.50606 0.71015 0.81456 0.0
C497 C 0.5219 0.80384 0.81257 0.0
C498 C 0.5367 0.82372 0.84444 0.0
C499 C 0.50971 0.84152 0.82039 0.0
C500 C 0.5091 0.82251 0.80693 0.0
C501 C 0.52294 0.84204 0.83977 0.0
C502 C 0.53619 0.80489 0.83094 0.0
C503 C 0.51819 0.78195 0.80238 0.0
O504 O 0.52817 0.76772 0.73557 0.0
O505 O 0.49224 0.77343 0.7393 0.0
O506 O 0.53443 0.77311 0.7907 0.0
O507 O 0.49825 0.77774 0.79444 0.0
H508 H 0.50234 0.81946 0.73811 0.0
H509 H 0.50287 0.8517 0.71274 0.0
H510 H 0.52202 0.80856 0.65856 0.0
H511 H 0.52134 0.77677 0.68371 0.0
H512 H 0.50567 0.64614 0.80703 0.0
H513 H 0.50522 0.67032 0.77425 0.0
H514 H 0.50699 0.70394 0.84973 0.0
H515 H 0.50625 0.72803 0.81675 0.0
H516 H 0.54688 0.82328 0.85929 0.0
H517 H 0.49924 0.8555 0.81603 0.0
H518 H 0.49793 0.82205 0.79279 0.0
H519 H 0.54602 0.79055 0.8357 0.0
C520 C 0.32107 0.50532 0.79066 0.0
C521 C 0.31207 0.50633 0.81221 0.0
C522 C 0.34926 0.50484 0.82831 0.0
C523 C 0.32603 0.50608 0.83086 0.0
C524 C 0.35815 0.50409 0.80661 0.0
C525 C 0.34417 0.50431 0.78798 0.0
U526 U 0.26338 0.51013 0.76606 0.0
O527 O 0.25182 0.52585 0.73505 0.0
O528 O 0.2473 0.48997 0.74006 0.0
C529 C 0.24339 0.50724 0.72721 0.0
C530 C 0.30644 0.50503 0.77102 0.0
C531 C 0.22133 0.50831 0.71612 0.0
C532 C 0.19332 0.52938 0.69566 0.0
C533 C 0.21207 0.52875 0.70952 0.0
C534 C 0.19224 0.48919 0.69534 0.0
C535 C 0.18352 0.50959 0.68794 0.0
C536 C 0.21094 0.48857 0.70917 0.0
C537 C 0.21816 0.52175 0.81153 0.0
C538 C 0.17918 0.51187 0.81542 0.0
C539 C 0.19645 0.53673 0.84204 0.0
C540 C 0.21641 0.53532 0.83036 0.0
C541 C 0.1777 0.52462 0.83505 0.0
C542 C 0.1993 0.5104 0.80374 0.0
C543 C 0.24045 0.51792 0.80234 0.0
O544 O 0.29241 0.48831 0.77022 0.0
O545 O 0.29723 0.52416 0.76591 0.0
O546 O 0.24908 0.53384 0.79009 0.0
O547 O 0.24485 0.49781 0.79499 0.0
H548 H 0.29423 0.50712 0.81459 0.0
H549 H 0.31858 0.50644 0.84727 0.0
H550 H 0.37596 0.50351 0.80399 0.0
H551 H 0.35141 0.50362 0.77147 0.0
H552 H 0.18719 0.54537 0.69015 0.0
H553 H 0.2198 0.5443 0.71426 0.0
H554 H 0.18491 0.47363 0.69 0.0
H555 H 0.21777 0.47254 0.7137 0.0
H556 H 0.16497 0.5026 0.80939 0.0
H557 H 0.19616 0.5464 0.85723 0.0
H558 H 0.23085 0.54405 0.83671 0.0
H559 H 0.20033 0.49984 0.78917 0.0
C560 C 0.51224 0.32148 0.78987 0.0
C561 C 0.51287 0.31203 0.81124 0.0
C562 C 0.51459 0.34894 0.82807 0.0
C563 C 0.51397 0.32563 0.83017 0.0
C564 C 0.51393 0.35825 0.80655 0.0
C565 C 0.51277 0.34465 0.78767 0.0
U566 U 0.51361 0.26438 0.76256 0.0
O567 O 0.49302 0.25084 0.7354 0.0
O568 O 0.52921 0.25361 0.73118 0.0
C569 C 0.51021 0.24736 0.72233 0.0
C570 C 0.51107 0.3074 0.76979 0.0
C571 C 0.51024 0.22664 0.7092 0.0
C572 C 0.50578 0.20927 0.67294 0.0
C573 C 0.50593 0.22822 0.68634 0.0
C574 C 0.51442 0.18656 0.70508 0.0
C575 C 0.50989 0.18813 0.68207 0.0
C576 C 0.51454 0.20569 0.71858 0.0
C577 C 0.52228 0.21697 0.80719 0.0
C578 C 0.50735 0.18036 0.8157 0.0
C579 C 0.53756 0.19549 0.83771 0.0
C580 C 0.53783 0.21441 0.82437 0.0
C581 C 0.52183 0.1787 0.83398 0.0
C582 C 0.50746 0.19952 0.8024 0.0
C583 C 0.51965 0.23933 0.79771 0.0
O584 O 0.52963 0.29726 0.76432 0.0
O585 O 0.49356 0.29442 0.76841 0.0
O586 O 0.49988 0.24498 0.79025 0.0
O587 O 0.53622 0.24751 0.786 0.0
H588 H 0.51255 0.29414 0.81327 0.0
H589 H 0.51468 0.31788 0.84643 0.0
H590 H 0.51403 0.3761 0.80427 0.0
H591 H 0.51224 0.35225 0.77132 0.0
H592 H 0.50271 0.21128 0.65529 0.0
H593 H 0.50272 0.24425 0.67876 0.0
H594 H 0.51756 0.17055 0.71269 0.0
H595 H 0.51792 0.20414 0.73623 0.0
H596 H 0.49505 0.16757 0.81262 0.0
H597 H 0.54894 0.19445 0.85167 0.0
H598 H 0.54928 0.22772 0.82842 0.0
H599 H 0.49524 0.2012 0.78926 0.0
C600 C 0.69983 0.51236 0.79231 0.0
C601 C 0.70945 0.51304 0.81362 0.0
C602 C 0.67267 0.51495 0.83071 0.0
C603 C 0.69599 0.51425 0.83265 0.0
C604 C 0.66318 0.51423 0.80927 0.0
C605 C 0.67664 0.51294 0.79029 0.0
U606 U 0.75675 0.51486 0.76493 0.0
O607 O 0.77108 0.4941 0.73831 0.0
O608 O 0.76715 0.53005 0.73319 0.0
C609 C 0.77388 0.51104 0.72476 0.0
C610 C 0.7138 0.51117 0.77215 0.0
C611 C 0.79426 0.51134 0.71106 0.0
C612 C 0.81059 0.50742 0.67423 0.0
C613 C 0.79202 0.50741 0.68819 0.0
C614 C 0.83425 0.51547 0.70583 0.0
C615 C 0.83201 0.51131 0.68279 0.0
C616 C 0.8155 0.51543 0.71989 0.0
C617 C 0.80318 0.52576 0.8103 0.0
C618 C 0.84024 0.51235 0.81913 0.0
C619 C 0.82348 0.54136 0.8415 0.0
C620 C 0.80475 0.54097 0.82787 0.0
C621 C 0.84118 0.52655 0.83778 0.0
C622 C 0.82131 0.51187 0.80554 0.0
C623 C 0.78119 0.52241 0.80022 0.0
O624 O 0.72337 0.52989 0.76623 0.0
O625 O 0.72729 0.49403 0.77107 0.0
O626 O 0.77624 0.50234 0.79309 0.0
O627 O 0.77288 0.53848 0.78794 0.0
H628 H 0.72736 0.5127 0.81551 0.0
H629 H 0.70387 0.51499 0.84885 0.0
H630 H 0.6453 0.5144 0.80714 0.0
H631 H 0.66891 0.51238 0.774 0.0
H632 H 0.80806 0.50463 0.6566 0.0
H633 H 0.77577 0.50436 0.68102 0.0
H634 H 0.85049 0.51843 0.71302 0.0
H635 H 0.81757 0.51851 0.73754 0.0
H636 H 0.85376 0.50105 0.8155 0.0
H637 H 0.82339 0.55232 0.85579 0.0
H638 H 0.79082 0.55166 0.83195 0.0
H639 H 0.82045 0.49997 0.79203 0.0
C640 C 0.50755 0.23112 0.32316 0.0
C641 C 0.5075 0.20968 0.31393 0.0
C642 C 0.50932 0.1933 0.35107 0.0
C643 C 0.5083 0.19093 0.32777 0.0
C644 C 0.50932 0.21488 0.36016 0.0
C645 C 0.50844 0.23358 0.34633 0.0
U646 U 0.51187 0.2582 0.26598 0.0
O647 O 0.49206 0.28517 0.25116 0.0
O648 O 0.52794 0.28974 0.25647 0.0
C649 C 0.50933 0.29841 0.24899 0.0
C650 C 0.50696 0.25102 0.30887 0.0
C651 C 0.5107 0.31189 0.22852 0.0
C652 C 0.51328 0.34879 0.21229 0.0
C653 C 0.5132 0.33491 0.2309 0.0
C654 C 0.50893 0.31676 0.18827 0.0
C655 C 0.51085 0.34 0.19074 0.0
C656 C 0.50875 0.30279 0.20707 0.0
C657 C 0.52348 0.21469 0.21853 0.0
C658 C 0.51222 0.21023 0.17993 0.0
C659 C 0.53875 0.18472 0.19631 0.0
C660 C 0.53775 0.19646 0.21627 0.0
C661 C 0.52553 0.19104 0.17805 0.0
C662 C 0.51114 0.22195 0.20007 0.0
C663 C 0.51966 0.2233 0.2411 0.0
O664 O 0.52603 0.25659 0.29976 0.0
O665 O 0.4902 0.25217 0.29488 0.0
O666 O 0.49954 0.23046 0.2458 0.0
O667 O 0.53562 0.23508 0.25029 0.0
H668 H 0.50694 0.20746 0.29604 0.0
H669 H 0.5085 0.17459 0.3202 0.0
H670 H 0.50976 0.21734 0.37802 0.0
H671 H 0.50846 0.24999 0.35376 0.0
H672 H 0.51524 0.36651 0.21482 0.0
H673 H 0.51482 0.34225 0.2473 0.0
H674 H 0.50699 0.30948 0.1719 0.0
H675 H 0.50679 0.28502 0.20489 0.0
H676 H 0.50211 0.21579 0.16609 0.0
H677 H 0.54892 0.16989 0.19573 0.0
H678 H 0.54724 0.1905 0.2304 0.0
H679 H 0.50001 0.23603 0.20148 0.0
C680 C 0.70182 0.51383 0.23395 0.0
C681 C 0.71043 0.51435 0.21222 0.0
C682 C 0.67283 0.51425 0.19675 0.0
C683 C 0.69608 0.51456 0.19379 0.0
C684 C 0.66439 0.51348 0.21862 0.0
C685 C 0.67873 0.5133 0.23698 0.0
U686 U 0.75959 0.5097 0.26044 0.0
O687 O 0.76976 0.49332 0.29167 0.0
O688 O 0.77393 0.5294 0.28785 0.0
C689 C 0.77654 0.51198 0.30081 0.0
C690 C 0.71658 0.51401 0.25359 0.0
C691 C 0.79679 0.51114 0.31469 0.0
C692 C 0.81269 0.51356 0.35184 0.0
C693 C 0.79426 0.51386 0.33772 0.0
C694 C 0.8368 0.50754 0.32013 0.0
C695 C 0.83427 0.51056 0.34331 0.0
C696 C 0.81818 0.5079 0.3059 0.0
C697 C 0.80684 0.49975 0.21608 0.0
C698 C 0.84504 0.51179 0.21055 0.0
C699 C 0.82872 0.48451 0.18579 0.0
C700 C 0.80903 0.48527 0.19798 0.0
C701 C 0.84682 0.49818 0.19152 0.0
C702 C 0.82515 0.51263 0.22271 0.0
C703 C 0.78441 0.50313 0.22519 0.0
O704 O 0.72607 0.49497 0.25852 0.0
O705 O 0.7303 0.53095 0.25497 0.0
O706 O 0.77951 0.52299 0.23289 0.0
O707 O 0.77554 0.48677 0.23668 0.0
H708 H 0.72824 0.51476 0.20952 0.0
H709 H 0.70321 0.51535 0.17725 0.0
H710 H 0.64664 0.51281 0.2216 0.0
H711 H 0.67175 0.51277 0.25361 0.0
H712 H 0.80996 0.51547 0.36956 0.0
H713 H 0.77788 0.51626 0.34486 0.0
H714 H 0.85317 0.50527 0.31297 0.0
H715 H 0.82048 0.50576 0.28813 0.0
H716 H 0.85876 0.52226 0.21567 0.0
H717 H 0.8292 0.4741 0.1711 0.0
H718 H 0.79501 0.47537 0.19246 0.0
H719 H 0.82382 0.52395 0.23668 0.0
C720 C 0.50753 0.70161 0.23336 0.0
C721 C 0.50582 0.71045 0.21179 0.0
C722 C 0.50775 0.67314 0.19583 0.0
C723 C 0.50589 0.69634 0.19319 0.0
C724 C 0.50942 0.66447 0.21756 0.0
C725 C 0.50932 0.67857 0.23609 0.0
U726 U 0.50641 0.75915 0.26072 0.0
O727 O 0.52465 0.77134 0.2901 0.0
O728 O 0.48816 0.76979 0.2907 0.0
C729 C 0.50638 0.77519 0.3015 0.0
C730 C 0.50741 0.71608 0.25318 0.0
C731 C 0.50562 0.79563 0.31507 0.0
C732 C 0.50016 0.81208 0.35163 0.0
C733 C 0.50063 0.79348 0.33775 0.0
C734 C 0.50966 0.83559 0.32032 0.0
C735 C 0.5046 0.83344 0.34318 0.0
C736 C 0.51013 0.81682 0.30635 0.0
C737 C 0.50479 0.80904 0.2184 0.0
C738 C 0.52491 0.84129 0.20452 0.0
C739 C 0.48568 0.83719 0.19649 0.0
C740 C 0.48526 0.81743 0.20869 0.0
C741 C 0.5057 0.84888 0.19355 0.0
C742 C 0.52448 0.82155 0.21679 0.0
C743 C 0.50527 0.78569 0.22607 0.0
O744 O 0.52537 0.72814 0.25624 0.0
O745 O 0.48896 0.72724 0.25665 0.0
O746 O 0.48726 0.77774 0.23563 0.0
O747 O 0.52383 0.77827 0.23494 0.0
H748 H 0.50447 0.72824 0.20935 0.0
H749 H 0.5048 0.70362 0.17673 0.0
H750 H 0.5105 0.64672 0.22031 0.0
H751 H 0.51057 0.67143 0.25261 0.0
H752 H 0.49668 0.80961 0.36915 0.0
H753 H 0.49726 0.77726 0.34484 0.0
H754 H 0.51304 0.85177 0.3132 0.0
H755 H 0.51404 0.81882 0.28886 0.0
H756 H 0.54051 0.85013 0.20281 0.0
H757 H 0.47064 0.84247 0.1881 0.0
H758 H 0.46992 0.80801 0.20934 0.0
H759 H 0.53987 0.81553 0.22394 0.0
C760 C 0.23062 0.50068 0.32221 0.0
C761 C 0.20905 0.5021 0.31337 0.0
C762 C 0.19319 0.50019 0.35076 0.0
C763 C 0.19051 0.50185 0.32751 0.0
C764 C 0.21492 0.49894 0.35945 0.0
C765 C 0.23341 0.49917 0.34531 0.0
U766 U 0.25678 0.50702 0.26473 0.0
O767 O 0.28807 0.5237 0.25536 0.0
O768 O 0.28374 0.48799 0.24889 0.0
C769 C 0.29673 0.50549 0.24695 0.0
C770 C 0.2503 0.50083 0.30758 0.0
C771 C 0.30967 0.50785 0.22617 0.0
C772 C 0.34525 0.51673 0.20909 0.0
C773 C 0.3315 0.51583 0.2278 0.0
C774 C 0.3154 0.50201 0.18642 0.0
C775 C 0.33751 0.50971 0.18812 0.0
C776 C 0.30159 0.50108 0.20529 0.0
C777 C 0.21271 0.51945 0.21806 0.0
C778 C 0.20832 0.50928 0.17915 0.0
C779 C 0.18262 0.53513 0.19626 0.0
C780 C 0.19436 0.53363 0.2162 0.0
C781 C 0.18904 0.52251 0.17763 0.0
C782 C 0.22005 0.5077 0.19925 0.0
C783 C 0.22146 0.51513 0.24049 0.0
O784 O 0.25145 0.48449 0.29312 0.0
O785 O 0.25543 0.52021 0.29891 0.0
O786 O 0.23319 0.53093 0.25001 0.0
O787 O 0.22885 0.49497 0.24461 0.0
H788 H 0.20658 0.5033 0.29554 0.0
H789 H 0.17406 0.50262 0.3202 0.0
H790 H 0.21768 0.49805 0.37725 0.0
H791 H 0.24994 0.49821 0.35244 0.0
H792 H 0.36222 0.52234 0.21126 0.0
H793 H 0.33815 0.52092 0.24378 0.0
H794 H 0.30879 0.49667 0.17052 0.0
H795 H 0.28477 0.49483 0.20363 0.0
H796 H 0.21396 0.49962 0.16502 0.0
H797 H 0.16772 0.54522 0.19595 0.0
H798 H 0.18833 0.54267 0.2306 0.0
H799 H 0.23424 0.49666 0.20034 0.0
C800 C 0.79008 0.69966 0.51204 0.0
C801 C 0.81143 0.70909 0.51112 0.0
C802 C 0.82814 0.67218 0.50969 0.0
C803 C 0.83029 0.69548 0.51003 0.0
C804 C 0.80666 0.66288 0.5107 0.0
C805 C 0.78784 0.6765 0.51187 0.0
U806 U 0.76326 0.75668 0.50832 0.0
O807 O 0.73646 0.77161 0.52831 0.0
O808 O 0.73176 0.76656 0.49235 0.0
C809 C 0.72316 0.77391 0.51107 0.0
C810 C 0.7701 0.71379 0.51284 0.0
C811 C 0.70947 0.79422 0.50991 0.0
C812 C 0.67244 0.80999 0.50635 0.0
C813 C 0.68664 0.79166 0.50606 0.0
C814 C 0.7038 0.83414 0.51374 0.0
C815 C 0.68072 0.83145 0.51049 0.0
C816 C 0.71809 0.81562 0.51357 0.0
C817 C 0.80853 0.80296 0.49717 0.0
C818 C 0.816 0.84062 0.50965 0.0
C819 C 0.83989 0.82341 0.48214 0.0
C820 C 0.82667 0.80439 0.48263 0.0
C821 C 0.83517 0.84153 0.49615 0.0
C822 C 0.80282 0.82142 0.51024 0.0
C823 C 0.79865 0.78091 0.50074 0.0
O824 O 0.76899 0.72757 0.52977 0.0
O825 O 0.7645 0.72307 0.49386 0.0
O826 O 0.78659 0.7723 0.48465 0.0
O827 O 0.7913 0.77629 0.52084 0.0
H828 H 0.81347 0.72698 0.51113 0.0
H829 H 0.84653 0.70319 0.50906 0.0
H830 H 0.80438 0.64502 0.51081 0.0
H831 H 0.77151 0.66892 0.5126 0.0
H832 H 0.65488 0.80733 0.50336 0.0
H833 H 0.67967 0.7753 0.50317 0.0
H834 H 0.71069 0.85044 0.51701 0.0
H835 H 0.73569 0.81795 0.51661 0.0
H836 H 0.81161 0.85444 0.52033 0.0
H837 H 0.8546 0.82327 0.47175 0.0
H838 H 0.83147 0.79022 0.47258 0.0
H839 H 0.78885 0.82066 0.5216 0.0
C840 C 0.78815 0.32095 0.51952 0.0
C841 C 0.80949 0.31147 0.51927 0.0
C842 C 0.82633 0.34835 0.51823 0.0
C843 C 0.82842 0.32505 0.51871 0.0
C844 C 0.80486 0.35769 0.51844 0.0
C845 C 0.78598 0.34411 0.51908 0.0
U846 U 0.76087 0.26414 0.51498 0.0
O847 O 0.73434 0.24924 0.53535 0.0
O848 O 0.7291 0.25445 0.4995 0.0
C849 C 0.72079 0.24696 0.51832 0.0
C850 C 0.76811 0.30688 0.52018 0.0
C851 C 0.70761 0.22634 0.51727 0.0
C852 C 0.6711 0.20921 0.51927 0.0
C853 C 0.68451 0.22812 0.51948 0.0
C854 C 0.70372 0.18616 0.51425 0.0
C855 C 0.68047 0.18793 0.51687 0.0
C856 C 0.71723 0.20525 0.51453 0.0
C857 C 0.80447 0.21711 0.50232 0.0
C858 C 0.80941 0.17858 0.51333 0.0
C859 C 0.83447 0.19531 0.48654 0.0
C860 C 0.82254 0.21511 0.48778 0.0
C861 C 0.8285 0.17697 0.49979 0.0
C862 C 0.79751 0.19856 0.51465 0.0
C863 C 0.79577 0.23953 0.50643 0.0
O864 O 0.76225 0.298 0.50108 0.0
O865 O 0.76709 0.29279 0.53686 0.0
O866 O 0.78891 0.24405 0.52672 0.0
O867 O 0.78366 0.24873 0.4907 0.0
H868 H 0.81149 0.29358 0.51949 0.0
H869 H 0.84466 0.3173 0.51832 0.0
H870 H 0.80263 0.37555 0.51839 0.0
H871 H 0.76965 0.35172 0.5193 0.0
H872 H 0.65328 0.2113 0.52086 0.0
H873 H 0.67677 0.24426 0.5215 0.0
H874 H 0.71147 0.17002 0.51242 0.0
H875 H 0.73508 0.20357 0.51279 0.0
H876 H 0.80411 0.16467 0.52346 0.0
H877 H 0.8492 0.19493 0.47619 0.0
H878 H 0.82827 0.22932 0.47828 0.0
H879 H 0.78354 0.19977 0.52597 0.0
C880 C 0.22997 0.70266 0.51589 0.0
C881 C 0.2084 0.71129 0.51347 0.0
C882 C 0.19266 0.67385 0.5151 0.0
C883 C 0.18993 0.69703 0.51307 0.0
C884 C 0.21438 0.66538 0.51743 0.0
C885 C 0.23279 0.67963 0.51783 0.0
U886 U 0.25661 0.76032 0.51188 0.0
O887 O 0.28416 0.77506 0.53107 0.0
O888 O 0.28773 0.76998 0.495 0.0
C889 C 0.2969 0.77744 0.51342 0.0
C890 C 0.24966 0.71734 0.5162 0.0
C891 C 0.3105 0.79787 0.51168 0.0
C892 C 0.34661 0.8141 0.50322 0.0
C893 C 0.33232 0.7958 0.50376 0.0
C894 C 0.31739 0.83728 0.51827 0.0
C895 C 0.33946 0.83514 0.51053 0.0
C896 C 0.30303 0.81881 0.51885 0.0
C897 C 0.21176 0.80734 0.50208 0.0
C898 C 0.20308 0.84436 0.51586 0.0
C899 C 0.18113 0.82819 0.48615 0.0
C900 C 0.19455 0.80933 0.48647 0.0
C901 C 0.18477 0.84551 0.50135 0.0
C902 C 0.21645 0.82527 0.51634 0.0
C903 C 0.22138 0.78511 0.50542 0.0
O904 O 0.25463 0.72686 0.49716 0.0
O905 O 0.25109 0.73102 0.5332 0.0
O906 O 0.22919 0.78026 0.52529 0.0
O907 O 0.23278 0.77627 0.48897 0.0
H908 H 0.20587 0.72906 0.51194 0.0
H909 H 0.1735 0.7042 0.51147 0.0
H910 H 0.21724 0.64766 0.51866 0.0
H911 H 0.2493 0.67263 0.51957 0.0
H912 H 0.36352 0.81154 0.49759 0.0
H913 H 0.33854 0.77977 0.49837 0.0
H914 H 0.31118 0.85323 0.52384 0.0
H915 H 0.28625 0.82082 0.52509 0.0
H916 H 0.20614 0.85754 0.52775 0.0
H917 H 0.16723 0.82881 0.47469 0.0
H918 H 0.19056 0.79565 0.47543 0.0
H919 H 0.2296 0.82407 0.5286 0.0
C920 C 0.31982 0.22987 0.51288 0.0
C921 C 0.31103 0.20829 0.51431 0.0
C922 C 0.34845 0.19248 0.51308 0.0
C923 C 0.3252 0.18977 0.51442 0.0
C924 C 0.35708 0.21422 0.51184 0.0
C925 C 0.34291 0.23267 0.51172 0.0
U926 U 0.26228 0.25674 0.51693 0.0
O927 O 0.25245 0.28815 0.53307 0.0
O928 O 0.24785 0.28391 0.49703 0.0
C929 C 0.24544 0.29705 0.51435 0.0
C930 C 0.30522 0.24959 0.51249 0.0
C931 C 0.22514 0.31084 0.51533 0.0
C932 C 0.20929 0.34801 0.51498 0.0
C933 C 0.22776 0.33396 0.51487 0.0
C934 C 0.18494 0.316 0.51641 0.0
C935 C 0.18759 0.3393 0.51554 0.0
C936 C 0.2036 0.30185 0.51622 0.0
C937 C 0.21468 0.21315 0.5276 0.0
C938 C 0.17618 0.20884 0.51609 0.0
C939 C 0.19226 0.18324 0.54273 0.0
C940 C 0.21226 0.19489 0.54184 0.0
C941 C 0.17411 0.18967 0.52944 0.0
C942 C 0.19636 0.22047 0.51512 0.0
C943 C 0.23725 0.22179 0.52408 0.0
O944 O 0.29144 0.25084 0.49556 0.0
O945 O 0.29584 0.25482 0.53153 0.0
O946 O 0.24627 0.2334 0.54028 0.0
O947 O 0.24219 0.22917 0.50406 0.0
H948 H 0.29321 0.20579 0.51521 0.0
H949 H 0.31792 0.17332 0.51518 0.0
H950 H 0.37485 0.21703 0.51119 0.0
H951 H 0.35003 0.24919 0.51073 0.0
H952 H 0.21206 0.36579 0.51477 0.0
H953 H 0.24424 0.34125 0.51428 0.0
H954 H 0.16848 0.30872 0.51679 0.0
H955 H 0.20122 0.284 0.51657 0.0
H956 H 0.16243 0.21448 0.50591 0.0
H957 H 0.19155 0.16842 0.55292 0.0
H958 H 0.22628 0.18886 0.55144 0.0
H959 H 0.19789 0.23458 0.50401 0.0
C960 C 1.00921 0.95713 0.56492 0.0
C961 C 0.01049 0.96063 0.45673 0.0
C962 C 1.00462 0.06501 0.5683 0.0
C963 C 1.0067 0.06855 0.45997 0.0
C964 C 0.9509 0.06394 0.51235 0.0
C965 C 0.95586 0.95698 0.51036 0.0
C966 C 0.05856 0.06962 0.51556 0.0
C967 C 0.06411 0.9618 0.511 0.0
C968 C 0.06226 0.01645 0.45901 0.0
C969 C 0.95467 0.01199 0.45757 0.0
C970 C 0.0609 0.01344 0.56758 0.0
C971 C 0.95301 1.00959 0.56593 0.0
Eu972 Eu 1.00947 0.97072 0.5112 0.0
O973 O 0.98903 0.99288 0.4919 0.0
O974 O 0.0281 0.99343 0.53186 0.0
Eu975 Eu 0.96558 0.01102 0.51197 0.0
Eu976 Eu 0.04989 0.01501 0.51318 0.0
O977 O 0.98849 0.99155 0.53143 0.0
O978 O 0.02856 0.99477 0.49265 0.0
Eu979 Eu 1.00713 0.01151 0.55453 0.0
Eu980 Eu 1.00827 0.01421 0.47058 0.0
O981 O 0.98671 0.03121 0.53264 0.0
O982 O 0.98717 0.03241 0.49303 0.0
O983 O 0.02677 0.03432 0.49371 0.0
O984 O 0.02607 0.03298 0.53301 0.0
Eu985 Eu 1.00547 0.05513 0.51371 0.0
O986 O 1.00979 0.95095 0.54354 0.0
O987 O 0.01051 0.95314 0.47769 0.0
O988 O 1.00413 0.07259 0.54736 0.0
O989 O 1.00575 0.07478 0.48132 0.0
O990 O 0.9453 0.04252 0.51251 0.0
O991 O 0.94841 0.97779 0.51153 0.0
O992 O 0.06655 0.04888 0.51536 0.0
O993 O 0.06996 0.98315 0.51251 0.0
O994 O 0.04111 0.01566 0.45233 0.0
O995 O 0.97595 0.01339 0.45143 0.0
O996 O 0.03959 0.01226 0.57376 0.0
O997 O 0.97414 0.01003 0.57278 0.0
O998 O 0.03714 0.07529 0.51478 0.0
O999 O 0.97163 0.07196 0.5125 0.0
O1000 O 0.04329 0.95403 0.51017 0.0
O1001 O 0.97722 0.95083 0.50963 0.0
O1002 O 1.00978 0.98204 0.4508 0.0
O1003 O 1.00762 0.04753 0.45281 0.0
O1004 O 1.00825 0.97812 0.57216 0.0
O1005 O 1.00578 0.04363 0.57418 0.0
O1006 O 0.94643 1.00976 0.54466 0.0
O1007 O 0.94741 0.01089 0.47861 0.0
O1008 O 0.06808 0.01454 0.54652 0.0
O1009 O 0.069 0.01657 0.48027 0.0
C1010 C 0.50761 0.96215 0.06963 0.0
C1011 C 0.51135 0.06988 0.06366 0.0
C1012 C 0.5093 0.95694 0.96112 0.0
C1013 C 0.51201 0.06403 0.95602 0.0
C1014 C 0.56461 1.00973 0.95984 0.0
C1015 C 0.56299 0.01331 0.0678 0.0
C1016 C 0.45626 0.0121 0.95804 0.0
C1017 C 0.45515 0.01633 0.06648 0.0
C1018 C 0.45709 0.06834 1.0098 0.0
C1019 C 0.56545 0.06531 0.01188 0.0
C1020 C 0.45427 0.96038 0.01423 0.0
C1021 C 0.56243 0.95732 0.01531 0.0
Eu1022 Eu 0.50926 0.01529 0.05494 0.0
O1023 O 0.52976 0.03328 0.03181 0.0
O1024 O 0.48944 0.99476 0.0332 0.0
Eu1025 Eu 0.5517 0.01172 0.01358 0.0
Eu1026 Eu 0.46768 0.01406 0.01236 0.0
O1027 O 0.52863 0.99356 0.03396 0.0
O1028 O 0.49025 0.03442 0.03135 0.0
Eu1029 Eu 0.50869 0.9707 0.01483 0.0
Eu1030 Eu 0.51091 0.05518 1.01063 0.0
O1031 O 0.52912 0.99175 0.99427 0.0
O1032 O 0.53028 0.03121 0.99243 0.0
O1033 O 0.49071 0.03236 0.99182 0.0
O1034 O 0.48977 0.99278 0.99381 0.0
Eu1035 Eu 0.51022 0.01106 0.9707 0.0
O1036 O 0.50779 0.98363 0.07517 0.0
O1037 O 0.51112 0.04915 0.07168 0.0
O1038 O 0.50926 0.97778 0.95361 0.0
O1039 O 0.51093 0.04263 0.95033 0.0
O1040 O 0.57077 0.01037 0.98118 0.0
O1041 O 0.56989 0.01192 0.0467 0.0
O1042 O 0.44939 0.01318 0.97919 0.0
O1043 O 0.44866 0.01515 0.04519 0.0
O1044 O 0.47842 0.07465 1.00949 0.0
O1045 O 0.54453 0.07281 1.01077 0.0
O1046 O 0.47523 0.95299 0.01496 0.0
O1047 O 0.54109 0.95108 0.0158 0.0
O1048 O 0.47752 0.01118 0.95154 0.0
O1049 O 0.54357 1.00976 0.95255 0.0
O1050 O 0.47627 0.01702 0.07337 0.0
O1051 O 0.54178 0.01483 0.07426 0.0
O1052 O 0.51091 0.0755 0.04219 0.0
O1053 O 0.51242 0.07191 0.97681 0.0
O1054 O 0.50803 0.95411 0.04886 0.0
O1055 O 0.50942 0.95078 0.98253 0.0
O1056 O 0.56955 0.97837 0.01448 0.0
O1057 O 0.57132 0.04392 0.01303 0.0
O1058 O 0.44824 0.98174 0.01325 0.0
O1059 O 0.44994 0.04732 1.01081 0.0
C1060 C 0.01248 0.457 0.06481 0.0
C1061 C 1.00797 0.4593 0.95684 0.0
C1062 C 0.01384 0.56501 0.0674 0.0
C1063 C 1.00903 0.56742 0.95929 0.0
C1064 C 0.958 0.56748 0.01534 0.0
C1065 C 0.95554 0.45925 0.01283 0.0
C1066 C 0.06614 0.56497 1.01091 0.0
C1067 C 0.06345 0.4568 1.00908 0.0
C1068 C 0.06172 0.51319 0.95495 0.0
C1069 C 0.95465 0.51386 0.96053 0.0
C1070 C 0.06798 0.5113 0.06262 0.0
C1071 C 0.96021 0.5112 0.06898 0.0
Eu1072 Eu 1.00985 0.47029 1.01111 0.0
O1073 O 0.98955 0.49338 0.99285 0.0
O1074 O 0.03129 0.49166 0.03026 0.0
Eu1075 Eu 0.96854 0.51308 0.01419 0.0
Eu1076 Eu 0.05308 0.51121 1.00957 0.0
O1077 O 0.99174 0.49265 0.03237 0.0
O1078 O 0.02932 0.49231 0.99061 0.0
Eu1079 Eu 0.01328 0.51133 0.05413 0.0
Eu1080 Eu 1.0088 0.51304 0.96992 0.0
O1081 O 0.99251 0.53187 0.03327 0.0
O1082 O 0.99059 0.53267 0.99377 0.0
O1083 O 0.03003 0.53195 0.99166 0.0
O1084 O 0.03218 0.53102 0.03099 0.0
Eu1085 Eu 0.01177 0.55421 0.01299 0.0
O1086 O 0.01069 0.45095 0.04349 0.0
O1087 O 1.00868 0.45229 0.97794 0.0
O1088 O 0.01312 0.57212 0.04631 0.0
O1089 O 0.01055 0.57353 0.98062 0.0
O1090 O 0.95067 0.54647 0.0157 0.0
O1091 O 0.94913 0.48052 0.01394 0.0
O1092 O 0.07246 0.54369 1.00987 0.0
O1093 O 0.07089 0.47776 1.00849 0.0
O1094 O 0.04026 0.51313 0.94941 0.0
O1095 O 0.97546 0.51299 0.95298 0.0
O1096 O 0.04727 0.51191 0.07069 0.0
O1097 O 0.98169 0.51135 0.07451 0.0
O1098 O 0.04509 0.57205 0.01206 0.0
O1099 O 0.97937 0.57356 0.0144 0.0
O1100 O 0.04207 0.45084 1.01001 0.0
O1101 O 0.97662 0.4523 0.0117 0.0
O1102 O 1.00776 0.48059 0.95044 0.0
O1103 O 1.00809 0.54643 0.95199 0.0
O1104 O 0.01388 0.47797 0.0721 0.0
O1105 O 0.01408 0.5437 0.07368 0.0
O1106 O 0.95205 0.51157 0.04826 0.0
O1107 O 0.94853 0.51456 0.98194 0.0
O1108 O 0.07351 0.51044 0.04113 0.0
O1109 O 0.06979 0.51265 0.97568 0.0
C1110 C 0.51253 0.45463 0.0667 0.0
C1111 C 0.50492 0.56242 0.06819 0.0
C1112 C 0.51463 0.45653 0.9583 0.0
C1113 C 0.50631 0.56373 0.95959 0.0
C1114 C 0.56415 0.51479 0.96006 0.0
C1115 C 0.56224 0.51256 0.06872 0.0
C1116 C 0.45697 0.50574 0.95807 0.0
C1117 C 0.45444 0.5053 0.06635 0.0
C1118 C 0.45048 0.55776 0.01178 0.0
C1119 C 0.5578 0.56851 0.01592 0.0
C1120 C 0.46111 0.45043 1.01094 0.0
C1121 C 0.56864 0.46112 0.01266 0.0
Eu1122 Eu 0.50864 0.50873 0.05528 0.0
O1123 O 0.52679 0.53063 0.0335 0.0
O1124 O 0.49126 0.48735 0.0324 0.0
Eu1125 Eu 0.55165 0.51355 0.0142 0.0
Eu1126 Eu 0.46748 0.50535 0.01251 0.0
O1127 O 0.5308 0.49129 0.03315 0.0
O1128 O 0.48751 0.52703 0.03285 0.0
Eu1129 Eu 0.51362 0.4673 0.01276 0.0
Eu1130 Eu 0.50541 0.55154 0.01373 0.0
O1131 O 0.53155 0.4919 0.99387 0.0
O1132 O 0.52781 0.53143 0.99424 0.0
O1133 O 0.48828 0.52749 0.9935 0.0
O1134 O 0.49212 0.48809 0.99307 0.0
Eu1135 Eu 0.51035 0.50999 0.97155 0.0
O1136 O 0.51032 0.47567 0.07353 0.0
O1137 O 0.5068 0.54117 0.07439 0.0
O1138 O 0.51299 0.47781 0.95224 0.0
O1139 O 0.50818 0.54262 0.95307 0.0
O1140 O 0.57082 0.51575 0.98132 0.0
O1141 O 0.56955 0.51391 0.0477 0.0
O1142 O 0.44957 0.50451 0.97904 0.0
O1143 O 0.44814 0.50387 0.04504 0.0
O1144 O 0.47086 0.56663 0.01209 0.0
O1145 O 0.53615 0.57321 0.01462 0.0
O1146 O 0.4828 0.4457 1.01144 0.0
O1147 O 0.54823 0.45228 0.0125 0.0
O1148 O 0.47825 0.50775 0.95211 0.0
O1149 O 0.54311 0.51264 0.95338 0.0
O1150 O 0.47546 0.5072 0.07337 0.0
O1151 O 0.54093 0.51061 0.07474 0.0
O1152 O 0.50369 0.56959 0.04712 0.0
O1153 O 0.50506 0.57054 0.98078 0.0
O1154 O 0.51423 0.44817 0.04546 0.0
O1155 O 0.51526 0.44922 0.97934 0.0
O1156 O 0.5733 0.4828 0.01338 0.0
O1157 O 0.56669 0.54815 0.01625 0.0
O1158 O 0.45235 0.47084 1.01133 0.0
O1159 O 0.44575 0.53609 0.01227 0.0
C1160 C 0.01111 0.46187 0.57389 0.0
C1161 C 1.009 0.44984 0.46648 0.0
C1162 C 0.01188 0.56903 0.56178 0.0
C1163 C 0.01042 0.55702 0.45444 0.0
C1164 C 0.95678 0.5634 0.50934 0.0
C1165 C 0.95589 0.45622 0.51856 0.0
C1166 C 0.06536 0.56259 0.51028 0.0
C1167 C 0.06414 0.45476 0.51852 0.0
C1168 C 0.06536 0.50386 0.46099 0.0
C1169 C 0.95708 0.50588 0.45962 0.0
C1170 C 0.06407 0.51326 0.56869 0.0
C1171 C 0.9561 0.51421 0.56781 0.0
Eu1172 Eu 1.01021 0.46735 0.51878 0.0
O1173 O 0.991 0.48781 0.49647 0.0
O1174 O 0.02987 0.49167 0.53623 0.0
Eu1175 Eu 0.9687 0.5097 0.51386 0.0
Eu1176 Eu 0.05258 0.50887 0.51462 0.0
O1177 O 0.99053 0.49192 0.53594 0.0
O1178 O 0.03033 0.48728 0.49673 0.0
Eu1179 Eu 1.0102 0.51401 0.55618 0.0
Eu1180 Eu 0.01107 0.50481 0.47211 0.0
O1181 O 0.99084 0.53155 0.53164 0.0
O1182 O 0.9914 0.52699 0.49223 0.0
O1183 O 0.03074 0.52683 0.4925 0.0
O1184 O 0.03019 0.53092 0.53176 0.0
Eu1185 Eu 0.01095 0.55144 0.50954 0.0
O1186 O 0.01148 0.45274 0.55361 0.0
O1187 O 1.00967 0.44532 0.48823 0.0
O1188 O 0.01121 0.5735 0.54003 0.0
O1189 O 1.00995 0.5661 0.47474 0.0
O1190 O 0.95025 0.5423 0.51137 0.0
O1191 O 0.94972 0.47735 0.51592 0.0
O1192 O 0.07156 0.5414 0.51269 0.0
O1193 O 0.07095 0.47587 0.51685 0.0
O1194 O 0.04429 0.50269 0.45389 0.0
O1195 O 0.97829 0.50431 0.4531 0.0
O1196 O 0.04287 0.51495 0.57514 0.0
O1197 O 0.9772 0.51581 0.57464 0.0
O1198 O 0.04431 0.56963 0.50839 0.0
O1199 O 0.97794 0.57024 0.50829 0.0
O1200 O 0.0429 0.44825 0.51958 0.0
O1201 O 0.97691 0.44912 0.52036 0.0
O1202 O 1.00926 0.47011 0.45738 0.0
O1203 O 0.01145 0.53531 0.44997 0.0
O1204 O 1.01007 0.48358 0.57832 0.0
O1205 O 0.01177 0.54876 0.5709 0.0
O1206 O 0.94968 0.51185 0.54661 0.0
O1207 O 0.95031 0.50786 0.48076 0.0
O1208 O 0.07092 0.51088 0.54764 0.0
O1209 O 0.07162 0.50624 0.48219 0.0
C1210 C 0.51367 0.95545 0.56733 0.0
C1211 C 0.50941 0.95648 0.45882 0.0
C1212 C 0.51411 0.06338 0.56833 0.0
C1213 C 0.51114 0.06472 0.46035 0.0
C1214 C 0.45893 0.06462 0.51557 0.0
C1215 C 0.45741 0.95631 0.51472 0.0
C1216 C 0.56703 0.06326 0.5123 0.0
C1217 C 0.56583 0.95518 0.5113 0.0
C1218 C 0.56352 1.00891 0.45677 0.0
C1219 C 0.45643 0.01071 0.46162 0.0
C1220 C 0.56886 0.00999 0.56465 0.0
C1221 C 0.46114 1.00912 0.57007 0.0
Eu1222 Eu 0.51178 0.96766 0.51315 0.0
O1223 O 0.49149 0.9906 0.49451 0.0
O1224 O 0.53278 0.98967 0.53217 0.0
Eu1225 Eu 0.46997 0.01025 0.51537 0.0
Eu1226 Eu 0.55453 1.00933 0.51144 0.0
O1227 O 0.49323 0.99021 0.53392 0.0
O1228 O 0.53094 0.99003 0.49267 0.0
Eu1229 Eu 0.51429 1.00951 0.55561 0.0
Eu1230 Eu 0.51052 0.01042 0.47149 0.0
O1231 O 0.49353 0.02956 0.5344 0.0
O1232 O 0.49188 0.03 0.49496 0.0
O1233 O 0.53155 0.02975 0.49304 0.0
O1234 O 0.53329 0.02912 0.53252 0.0
Eu1235 Eu 0.51281 0.05186 0.51411 0.0
O1236 O 0.51256 0.94886 0.54607 0.0
O1237 O 0.51027 0.9495 0.47996 0.0
O1238 O 0.51339 0.0702 0.54716 0.0
O1239 O 0.51208 0.07094 0.48166 0.0
O1240 O 0.45173 0.04356 0.51604 0.0
O1241 O 0.45093 0.97755 0.5157 0.0
O1242 O 0.57358 0.04206 0.51099 0.0
O1243 O 0.5728 0.97628 0.51107 0.0
O1244 O 0.54208 1.00966 0.45123 0.0
O1245 O 0.47731 0.01138 0.45423 0.0
O1246 O 0.54804 0.01028 0.57243 0.0
O1247 O 0.48257 1.00959 0.57576 0.0
O1248 O 0.54591 0.07006 0.51369 0.0
O1249 O 0.48025 0.07085 0.51486 0.0
O1250 O 0.54454 0.94871 0.51188 0.0
O1251 O 0.47855 0.9494 0.51365 0.0
O1252 O 0.5093 0.97776 0.45235 0.0
O1253 O 0.51045 0.04367 0.45317 0.0
O1254 O 0.51461 0.97657 0.57415 0.0
O1255 O 0.51473 0.04214 0.57487 0.0
O1256 O 0.45316 1.00911 0.54928 0.0
O1257 O 0.45018 1.00986 0.48298 0.0
O1258 O 0.57471 1.0092 0.54324 0.0
O1259 O 0.57146 1.00874 0.47757 0.0
H1260 H 0.15402 0.16625 0.56317 0.0
H1261 H 0.14908 0.17961 0.49257 0.0
H1262 H 0.12548 0.13765 0.55964 0.0
H1263 H 0.11986 0.15166 0.48942 0.0
H1264 H 0.0536 0.11221 0.50073 0.0
H1265 H 0.07984 0.14304 0.50454 0.0
H1266 H 0.126 0.09965 0.53828 0.0
H1267 H 0.09993 0.0687 0.53429 0.0
C1268 C 0.14676 0.16327 0.54695 0.0
C1269 C 0.15413 0.1751 0.52811 0.0
C1270 C 0.13039 0.14692 0.54498 0.0
C1271 C 0.12072 0.14232 0.52423 0.0
C1272 C 0.12705 0.15496 0.50563 0.0
C1273 C 0.14369 0.1711 0.50751 0.0
C1274 C 0.06936 0.10924 0.50895 0.0
C1275 C 0.07473 0.08803 0.51721 0.0
C1276 C 0.08436 0.12686 0.51104 0.0
C1277 C 0.10482 0.12371 0.52182 0.0
C1278 C 0.1102 0.10254 0.53009 0.0
C1279 C 0.09539 0.08481 0.52764 0.0
H1280 H 0.83935 0.15225 0.53659 0.0
H1281 H 0.85224 0.1575 0.46592 0.0
H1282 H 0.86808 0.12383 0.53964 0.0
H1283 H 0.88163 0.12977 0.46935 0.0
H1284 H 0.95122 0.10558 0.49425 0.0
H1285 H 0.91979 0.13115 0.49063 0.0
H1286 H 0.87738 0.08409 0.52441 0.0
H1287 H 0.90866 0.05837 0.52784 0.0
C1288 C 0.84793 0.14708 0.52162 0.0
C1289 C 0.84355 0.15737 0.50102 0.0
C1290 C 0.86452 0.13092 0.52344 0.0
C1291 C 0.87724 0.12494 0.50479 0.0
C1292 C 0.87229 0.13444 0.48405 0.0
C1293 C 0.85549 0.15033 0.48213 0.0
C1294 C 0.93523 0.10077 0.50103 0.0
C1295 C 0.93238 0.08 0.51131 0.0
C1296 C 0.91724 0.11529 0.49878 0.0
C1297 C 0.8962 0.10946 0.50712 0.0
C1298 C 0.89345 0.08893 0.51785 0.0
C1299 C 0.91133 0.07424 0.51974 0.0
H1300 H 0.8475 0.86406 0.53384 0.0
H1301 H 0.86012 0.86086 0.463 0.0
H1302 H 0.87676 0.8918 0.53772 0.0
H1303 H 0.88998 0.88802 0.4672 0.0
H1304 H 0.9583 0.916 0.4906 0.0
H1305 H 0.92832 0.88859 0.48703 0.0
H1306 H 0.88458 0.93143 0.52451 0.0
H1307 H 0.91429 0.95877 0.528 0.0
C1308 C 0.85621 0.86949 0.51902 0.0
C1309 C 0.85139 0.86014 0.49809 0.0
C1310 C 0.87312 0.88524 0.52132 0.0
C1311 C 0.88578 0.89181 0.50281 0.0
C1312 C 0.88072 0.8829 0.48181 0.0
C1313 C 0.86361 0.86737 0.47944 0.0
C1314 C 0.94235 0.91942 0.49824 0.0
C1315 C 0.93861 0.93952 0.50951 0.0
C1316 C 0.92517 0.90387 0.49603 0.0
C1317 C 0.90414 0.908 0.5054 0.0
C1318 C 0.90064 0.92781 0.51719 0.0
C1319 C 0.91764 0.94347 0.51909 0.0
H1320 H 0.14084 0.84008 0.50862 0.0
H1321 H 0.19081 0.89069 0.49955 0.0
H1322 H 0.11229 0.86843 0.51182 0.0
H1323 H 0.162 0.91943 0.50164 0.0
H1324 H 0.10674 0.96586 0.5265 0.0
H1325 H 0.13639 0.93826 0.52491 0.0
H1326 H 0.09235 0.89338 0.48997 0.0
H1327 H 0.0626 0.9205 0.4925 0.0
C1328 C 0.14561 0.85738 0.50706 0.0
C1329 C 0.16792 0.86326 0.5036 0.0
C1330 C 0.12924 0.87366 0.50875 0.0
C1331 C 0.13469 0.8963 0.50664 0.0
C1332 C 0.15717 0.9022 0.50353 0.0
C1333 C 0.17367 0.88581 0.50221 0.0
C1334 C 0.10344 0.95006 0.51851 0.0
C1335 C 0.08227 0.94528 0.50981 0.0
C1336 C 0.12048 0.93427 0.51748 0.0
C1337 C 0.11682 0.91345 0.50744 0.0
C1338 C 0.09571 0.90895 0.49835 0.0
C1339 C 0.07861 0.92457 0.4997 0.0
H1340 H 0.55909 0.16727 0.15816 0.0
H1341 H 0.48864 0.18085 0.15317 0.0
H1342 H 0.55538 0.13831 0.12997 0.0
H1343 H 0.48531 0.15254 0.12431 0.0
H1344 H 0.49639 0.11235 0.05838 0.0
H1345 H 0.50026 0.14341 0.08436 0.0
H1346 H 0.53386 0.10039 0.131 0.0
H1347 H 0.5298 0.0692 0.10519 0.0
C1348 C 0.54287 0.16426 0.15095 0.0
C1349 C 0.52412 0.17626 0.15821 0.0
C1350 C 0.54079 0.14771 0.1348 0.0
C1351 C 0.52002 0.14306 0.12523 0.0
C1352 C 0.50152 0.15586 0.13143 0.0
C1353 C 0.50351 0.17221 0.14785 0.0
C1354 C 0.50455 0.10951 0.07421 0.0
C1355 C 0.51278 0.08835 0.07979 0.0
C1356 C 0.5067 0.12726 0.08905 0.0
C1357 C 0.51749 0.12428 0.10955 0.0
C1358 C 0.52567 0.10314 0.11517 0.0
C1359 C 0.52317 0.08527 0.10051 0.0
H1360 H 0.86671 0.4645 0.16789 0.0
H1361 H 0.87116 0.53517 0.18035 0.0
H1362 H 0.89453 0.46803 0.13854 0.0
H1363 H 0.89972 0.53831 0.15167 0.0
H1364 H 0.96571 0.52658 0.11136 0.0
H1365 H 0.93986 0.52318 0.14264 0.0
H1366 H 0.89302 0.48922 0.10013 0.0
H1367 H 0.91867 0.49285 0.06871 0.0
C1368 C 0.8737 0.48075 0.16455 0.0
C1369 C 0.8664 0.49959 0.17636 0.0
C1370 C 0.88966 0.48272 0.14776 0.0
C1371 C 0.89901 0.50348 0.14272 0.0
C1372 C 0.89276 0.5221 0.15531 0.0
C1373 C 0.87651 0.52023 0.17186 0.0
C1374 C 0.94986 0.51844 0.10868 0.0
C1375 C 0.94418 0.50999 0.08759 0.0
C1376 C 0.93509 0.51657 0.12655 0.0
C1377 C 0.91458 0.50581 0.12378 0.0
C1378 C 0.90886 0.4974 0.10271 0.0
C1379 C 0.92344 0.49965 0.08472 0.0
H1380 H 0.53778 0.85578 0.16226 0.0
H1381 H 0.47627 0.88317 0.18729 0.0
H1382 H 0.53839 0.88371 0.13289 0.0
H1383 H 0.47666 0.91091 0.1575 0.0
H1384 H 0.49808 0.97018 0.11348 0.0
H1385 H 0.49824 0.9438 0.14426 0.0
H1386 H 0.516 0.89107 0.09887 0.0
H1387 H 0.51609 0.91742 0.06802 0.0
C1388 C 0.52456 0.86799 0.1617 0.0
C1389 C 0.507 0.86731 0.17716 0.0
C1390 C 0.52476 0.88379 0.14468 0.0
C1391 C 0.50747 0.89936 0.14277 0.0
C1392 C 0.49025 0.89916 0.15861 0.0
C1393 C 0.48997 0.88323 0.17557 0.0
C1394 C 0.50206 0.95297 0.11 0.0
C1395 C 0.50714 0.94595 0.08823 0.0
C1396 C 0.50201 0.93785 0.12766 0.0
C1397 C 0.50722 0.9154 0.124 0.0
C1398 C 0.51219 0.90834 0.10224 0.0
C1399 C 0.51207 0.92342 0.08454 0.0
H1400 H 0.16529 0.55658 0.15861 0.0
H1401 H 0.179 0.48637 0.15165 0.0
H1402 H 0.1365 0.55367 0.13014 0.0
H1403 H 0.15081 0.48383 0.12257 0.0
H1404 H 0.11042 0.49607 0.05714 0.0
H1405 H 0.14152 0.49934 0.08319 0.0
H1406 H 0.09872 0.53263 0.13025 0.0
H1407 H 0.06754 0.52923 0.10438 0.0
C1408 C 0.16235 0.54058 0.15091 0.0
C1409 C 0.17433 0.52166 0.15769 0.0
C1410 C 0.14588 0.53896 0.13459 0.0
C1411 C 0.14129 0.51848 0.1244 0.0
C1412 C 0.15409 0.49983 0.13015 0.0
C1413 C 0.17036 0.50136 0.14672 0.0
C1414 C 0.10763 0.50404 0.07307 0.0
C1415 C 0.08652 0.51237 0.07874 0.0
C1416 C 0.12541 0.50585 0.08795 0.0
C1417 C 0.12251 0.51637 0.10861 0.0
C1418 C 0.10142 0.52466 0.1143 0.0
C1419 C 0.08355 0.52252 0.09959 0.0
H1420 H 0.55591 0.86068 0.86545 0.0
H1421 H 0.4854 0.86485 0.85187 0.0
H1422 H 0.55162 0.88759 0.89554 0.0
H1423 H 0.48145 0.89236 0.88137 0.0
H1424 H 0.49195 0.95916 0.91942 0.0
H1425 H 0.49517 0.93183 0.88962 0.0
H1426 H 0.53123 0.8881 0.9337 0.0
H1427 H 0.52789 0.91549 0.96376 0.0
C1428 C 0.53952 0.86734 0.86878 0.0
C1429 C 0.52099 0.86046 0.85622 0.0
C1430 C 0.5371 0.88273 0.88604 0.0
C1431 C 0.51618 0.89185 0.89088 0.0
C1432 C 0.49779 0.88563 0.8779 0.0
C1433 C 0.50013 0.87001 0.86085 0.0
C1434 C 0.50045 0.94365 0.92282 0.0
C1435 C 0.50971 0.93944 0.9439 0.0
C1436 C 0.50221 0.928 0.90578 0.0
C1437 C 0.51356 0.90796 0.90934 0.0
C1438 C 0.52257 0.90355 0.9305 0.0
C1439 C 0.52048 0.91909 0.94772 0.0
H1440 H 0.15094 0.4888 0.84407 0.0
H1441 H 0.15903 0.55863 0.85909 0.0
H1442 H 0.12148 0.48633 0.8719 0.0
H1443 H 0.13018 0.55577 0.88751 0.0
H1444 H 0.10378 0.5302 0.95601 0.0
H1445 H 0.12984 0.53375 0.92499 0.0
H1446 H 0.08222 0.50274 0.88109 0.0
H1447 H 0.05597 0.49936 0.91203 0.0
C1448 C 0.14617 0.50373 0.85293 0.0
C1449 C 0.15757 0.52387 0.84946 0.0
C1450 C 0.12939 0.50224 0.86897 0.0
C1451 C 0.12386 0.52078 0.88203 0.0
C1452 C 0.13446 0.54114 0.87791 0.0
C1453 C 0.15099 0.54273 0.86167 0.0
C1454 C 0.0989 0.52405 0.93978 0.0
C1455 C 0.07785 0.5145 0.93645 0.0
C1456 C 0.11373 0.52626 0.92201 0.0
C1457 C 0.10792 0.51864 0.90067 0.0
C1458 C 0.08705 0.50874 0.89739 0.0
C1459 C 0.07206 0.50688 0.91508 0.0
H1460 H 0.5119 0.18459 0.87728 0.0
H1461 H 0.52505 0.13358 0.82862 0.0
H1462 H 0.50839 0.15657 0.90623 0.0
H1463 H 0.52266 0.10521 0.85787 0.0
H1464 H 0.49771 0.05881 0.91309 0.0
H1465 H 0.49897 0.08603 0.88303 0.0
H1466 H 0.53088 0.13291 0.9273 0.0
H1467 H 0.52872 0.1061 0.95744 0.0
C1468 C 0.5142 0.16727 0.8729 0.0
C1469 C 0.51894 0.16114 0.85088 0.0
C1470 C 0.51236 0.1512 0.88949 0.0
C1471 C 0.51561 0.1286 0.88454 0.0
C1472 C 0.51989 0.12243 0.86229 0.0
C1473 C 0.52137 0.1386 0.84555 0.0
C1474 C 0.50498 0.07496 0.91636 0.0
C1475 C 0.51299 0.08038 0.93768 0.0
C1476 C 0.50581 0.09053 0.89909 0.0
C1477 C 0.51491 0.11176 0.9027 0.0
C1478 C 0.52324 0.11695 0.92399 0.0
C1479 C 0.52211 0.10153 0.9413 0.0
H1480 H 0.86112 0.55988 0.86196 0.0
H1481 H 0.862 0.48867 0.85213 0.0
H1482 H 0.88749 0.55589 0.89259 0.0
H1483 H 0.889 0.48496 0.88215 0.0
H1484 H 0.9562 0.4945 0.91979 0.0
H1485 H 0.92909 0.49743 0.88976 0.0
H1486 H 0.88678 0.53733 0.93186 0.0
H1487 H 0.91397 0.53428 0.9622 0.0
C1488 C 0.86694 0.54339 0.86623 0.0
C1489 C 0.85931 0.52459 0.85455 0.0
C1490 C 0.88202 0.54115 0.88379 0.0
C1491 C 0.89007 0.52011 0.88982 0.0
C1492 C 0.88308 0.50139 0.87775 0.0
C1493 C 0.86778 0.50358 0.8604 0.0
C1494 C 0.94105 0.5038 0.92271 0.0
C1495 C 0.93719 0.51424 0.94329 0.0
C1496 C 0.92552 0.50538 0.90555 0.0
C1497 C 0.90596 0.5177 0.90848 0.0
C1498 C 0.90187 0.52789 0.92916 0.0
C1499 C 0.91729 0.52599 0.94653 0.0
H1500 H 0.65016 0.66877 0.06242 0.0
H1501 H 0.64611 0.67974 0.99135 0.0
H1502 H 0.62185 0.63989 0.05947 0.0
H1503 H 0.61709 0.65151 0.98875 0.0
H1504 H 0.55154 0.61071 1.00029 0.0
H1505 H 0.5768 0.64245 1.00373 0.0
H1506 H 0.62374 0.60128 0.03911 0.0
H1507 H 0.59874 0.56947 0.03546 0.0
C1508 C 0.64312 0.66523 0.04621 0.0
C1509 C 0.65073 0.67642 0.02708 0.0
C1510 C 0.62687 0.64873 0.04457 0.0
C1511 C 0.61754 0.64335 0.02385 0.0
C1512 C 0.62402 0.65543 1.00494 0.0
C1513 C 0.64055 0.67171 1.0065 0.0
C1514 C 0.56726 0.60845 1.0088 0.0
C1515 C 0.57319 0.58759 0.01758 0.0
C1516 C 0.58169 0.62658 1.0107 0.0
C1517 C 0.60209 0.62429 0.02181 0.0
C1518 C 0.60798 0.6035 0.03067 0.0
C1519 C 0.59376 0.58528 0.0284 0.0
H1520 H 0.33995 0.647 0.03614 0.0
H1521 H 0.35247 0.65237 0.96542 0.0
H1522 H 0.36742 0.61724 0.03864 0.0
H1523 H 0.38058 0.6233 0.9683 0.0
H1524 H 0.45023 0.59914 0.99336 0.0
H1525 H 0.41874 0.62446 0.98965 0.0
H1526 H 0.37633 0.57699 0.02281 0.0
H1527 H 0.40781 0.55135 0.02629 0.0
C1528 C 0.34814 0.64156 0.02104 0.0
C1529 C 0.34414 0.65235 1.00061 0.0
C1530 C 0.36398 0.6246 0.02254 0.0
C1531 C 0.3763 0.61828 1.00373 0.0
C1532 C 0.37153 0.62817 0.98312 0.0
C1533 C 0.35549 0.64486 0.98153 0.0
C1534 C 0.43422 0.5941 0.99992 0.0
C1535 C 0.4315 0.57328 1.01014 0.0
C1536 C 0.41618 0.60851 0.99762 0.0
C1537 C 0.39513 0.60257 1.00583 0.0
C1538 C 0.39241 0.58191 0.01634 0.0
C1539 C 0.41039 0.56727 0.01826 0.0
H1540 H 0.38709 0.32669 0.02707 0.0
H1541 H 0.35135 0.36371 0.97687 0.0
H1542 H 0.41518 0.35605 0.0286 0.0
H1543 H 0.37967 0.39251 0.97786 0.0
H1544 H 0.41568 0.45192 1.00812 0.0
H1545 H 0.38996 0.42096 1.00509 0.0
H1546 H 0.44491 0.37482 1.00702 0.0
H1547 H 0.47084 0.40581 1.0104 0.0
C1548 C 0.38539 0.34093 0.01617 0.0
C1549 C 0.36695 0.34286 1.00189 0.0
C1550 C 0.40154 0.35766 0.01693 0.0
C1551 C 0.3995 0.3767 1.00351 0.0
C1552 C 0.38153 0.3782 0.98865 0.0
C1553 C 0.36546 0.36151 0.98786 0.0
C1554 C 0.42239 0.43522 1.00794 0.0
C1555 C 0.44541 0.43146 1.00948 0.0
C1556 C 0.4076 0.41745 1.00603 0.0
C1557 C 0.41542 0.39545 1.00563 0.0
C1558 C 0.43839 0.39159 1.00741 0.0
C1559 C 0.45323 0.4094 1.00926 0.0
H1560 H 0.69326 0.38876 0.02971 0.0
H1561 H 0.65695 0.35242 0.97942 0.0
H1562 H 0.66337 0.41626 0.03124 0.0
H1563 H 0.62761 0.38018 0.98041 0.0
H1564 H 0.56753 0.41567 1.00995 0.0
H1565 H 0.59879 0.39024 1.00727 0.0
H1566 H 0.64442 0.44562 1.00966 0.0
H1567 H 0.61318 0.47121 0.01271 0.0
C1568 C 0.67906 0.3868 0.0188 0.0
C1569 C 0.67749 0.36838 1.00447 0.0
C1570 C 0.66202 0.40261 0.01956 0.0
C1571 C 0.64303 0.40025 1.0061 0.0
C1572 C 0.64187 0.38227 0.99124 0.0
C1573 C 0.65887 0.36653 0.99043 0.0
C1574 C 0.58419 0.42252 1.00996 0.0
C1575 C 0.58774 0.44556 0.01153 0.0
C1576 C 0.60213 0.40791 1.00825 0.0
C1577 C 0.62408 0.41594 1.00808 0.0
C1578 C 0.62771 0.43892 1.0099 0.0
C1579 C 0.60975 0.45358 0.01156 0.0
H1580 H 0.05837 0.66922 0.65417 0.0
H1581 H 0.98772 0.68144 0.64869 0.0
H1582 H 0.05544 0.64029 0.62587 0.0
H1583 H 0.98515 0.65315 0.6197 0.0
H1584 H 0.99709 0.61141 0.55472 0.0
H1585 H 1.00067 0.64338 0.57971 0.0
H1586 H 0.03431 0.60211 0.62787 0.0
H1587 H 0.03051 0.57009 0.60315 0.0
C1588 C 0.04227 0.66596 0.6468 0.0
C1589 C 0.02322 0.67749 0.65402 0.0
C1590 C 0.04064 0.64943 0.63056 0.0
C1591 C 0.02003 0.64436 0.62086 0.0
C1592 C 1.00125 0.65682 0.62691 0.0
C1593 C 1.00279 0.67313 0.64343 0.0
C1594 C 1.00523 0.60917 0.57066 0.0
C1595 C 0.01347 0.58824 0.57702 0.0
C1596 C 1.00722 0.62744 0.58492 0.0
C1597 C 0.0179 0.62519 0.60558 0.0
C1598 C 0.02621 0.60431 0.6119 0.0
C1599 C 0.02385 0.58596 0.59785 0.0
H1600 H 0.36591 0.96356 0.66798 0.0
H1601 H 0.37131 0.03414 0.68049 0.0
H1602 H 0.39419 0.96663 0.63902 0.0
H1603 H 0.40028 0.03683 0.65219 0.0
H1604 H 0.46631 0.02461 0.61247 0.0
H1605 H 0.44016 0.02144 0.6435 0.0
H1606 H 0.39357 0.98751 0.60067 0.0
H1607 H 0.41955 0.99088 0.56951 0.0
C1608 C 0.37321 0.97968 0.66474 0.0
C1609 C 0.36605 0.99865 0.67644 0.0
C1610 C 0.38943 0.98139 0.64818 0.0
C1611 C 0.39916 1.002 0.64324 0.0
C1612 C 0.39304 0.02073 0.65574 0.0
C1613 C 0.37655 0.01912 0.67208 0.0
C1614 C 0.45046 0.01652 0.60966 0.0
C1615 C 0.44495 1.00801 0.58855 0.0
C1616 C 0.43552 0.01477 0.6274 0.0
C1617 C 0.41497 1.00411 0.62447 0.0
C1618 C 0.40943 0.99562 0.60338 0.0
C1619 C 0.4242 0.99772 0.58553 0.0
H1620 H 0.05719 0.36902 0.67386 0.0
H1621 H 0.98648 0.37446 0.68581 0.0
H1622 H 0.05451 0.3978 0.64536 0.0
H1623 H 0.98415 0.40387 0.65793 0.0
H1624 H 0.99605 0.46881 0.61632 0.0
H1625 H 0.99958 0.44383 0.64835 0.0
H1626 H 0.0337 0.39603 0.60709 0.0
H1627 H 0.02998 0.42073 0.57506 0.0
C1628 C 0.04113 0.3765 0.67064 0.0
C1629 C 0.02199 0.36911 0.68192 0.0
C1630 C 0.03965 0.39301 0.65437 0.0
C1631 C 0.01909 0.40279 0.64931 0.0
C1632 C 1.00022 0.3966 0.6616 0.0
C1633 C 1.00162 0.37983 0.67767 0.0
C1634 C 1.00429 0.45296 0.61411 0.0
C1635 C 0.01268 0.44668 0.59316 0.0
C1636 C 1.00626 0.4387 0.6324 0.0
C1637 C 0.01706 0.41814 0.63017 0.0
C1638 C 0.02552 0.41192 0.60928 0.0
C1639 C 0.0232 0.42596 0.59092 0.0
H1640 H 0.64557 0.01192 0.6865 0.0
H1641 H 0.69518 0.02374 0.63602 0.0
H1642 H 0.61715 1.00823 0.65801 0.0
H1643 H 0.66644 0.02118 0.60715 0.0
H1644 H 0.61179 0.99552 0.56022 0.0
H1645 H 0.64148 0.99734 0.58788 0.0
H1646 H 0.59666 0.03024 0.63355 0.0
H1647 H 0.56694 0.02748 0.60638 0.0
C1648 C 0.65027 0.01396 0.6692 0.0
C1649 C 0.67242 0.01835 0.66338 0.0
C1650 C 0.63398 0.012 0.65285 0.0
C1651 C 0.63935 0.01477 0.63023 0.0
C1652 C 0.6617 0.01877 0.62437 0.0
C1653 C 0.67815 0.02037 0.64083 0.0
C1654 C 0.60833 1.00308 0.57622 0.0
C1655 C 0.58697 0.01115 0.58122 0.0
C1656 C 0.62538 1.00426 0.59203 0.0
C1657 C 0.6215 0.0138 0.61307 0.0
C1658 C 0.60018 0.02224 0.61779 0.0
C1659 C 0.5831 0.02075 0.60216 0.0
H1660 H 0.96228 0.35096 0.37284 0.0
H1661 H 0.03311 0.33937 0.37734 0.0
H1662 H 0.96514 0.379 0.40203 0.0
H1663 H 0.03561 0.36676 0.40721 0.0
H1664 H 0.02377 0.40735 0.47311 0.0
H1665 H 0.02014 0.37564 0.44774 0.0
H1666 H 0.98612 0.41739 0.40028 0.0
H1667 H 0.98999 0.44911 0.42533 0.0
C1668 C 0.97841 0.35415 0.3802 0.0
C1669 C 0.99753 0.34312 0.37241 0.0
C1670 C 0.97999 0.37015 0.39696 0.0
C1671 C 1.00063 0.37517 0.40661 0.0
C1672 C 0.01949 0.36311 0.40003 0.0
C1673 C 0.01799 0.34732 0.38301 0.0
C1674 C 0.01552 0.40973 0.45726 0.0
C1675 C 1.00722 0.43072 0.45115 0.0
C1676 C 0.01351 0.39162 0.44278 0.0
C1677 C 1.00272 0.3941 0.4222 0.0
C1678 C 0.9943 0.41502 0.41618 0.0
C1679 C 0.9967 0.4332 0.43042 0.0
H1680 H 0.63586 0.02629 0.33232 0.0
H1681 H 0.67515 0.97925 0.36984 0.0
H1682 H 0.60878 0.02759 0.36259 0.0
H1683 H 0.64773 0.97992 0.39962 0.0
H1684 H 0.60914 1.00792 0.45903 0.0
H1685 H 0.6354 1.00595 0.42819 0.0
H1686 H 0.58082 1.00508 0.38145 0.0
H1687 H 0.55456 1.00745 0.41207 0.0
C1688 C 0.6386 0.01607 0.34692 0.0
C1689 C 0.65765 1.00266 0.34864 0.0
C1690 C 0.62301 0.01668 0.36419 0.0
C1691 C 0.62619 1.00396 0.38358 0.0
C1692 C 0.64496 0.99016 0.38505 0.0
C1693 C 0.66051 0.98952 0.3678 0.0
C1694 C 0.6027 1.00734 0.4422 0.0
C1695 C 0.57969 1.00789 0.43813 0.0
C1696 C 0.61777 1.00607 0.42451 0.0
C1697 C 0.61018 1.0053 0.40237 0.0
C1698 C 0.58721 1.0059 0.3983 0.0
C1699 C 0.57215 1.00717 0.41594 0.0
H1700 H 0.03586 0.64609 0.34381 0.0
H1701 H 0.96488 0.65025 0.35457 0.0
H1702 H 0.03817 0.6164 0.37142 0.0
H1703 H 0.96753 0.62124 0.38282 0.0
H1704 H 0.99127 0.59801 0.45333 0.0
H1705 H 0.98787 0.62301 0.42151 0.0
H1706 H 0.02289 0.57588 0.38026 0.0
H1707 H 0.02606 0.55054 0.41209 0.0
C1708 C 0.02067 0.6404 0.35164 0.0
C1709 C 1.00021 0.65084 0.34712 0.0
C1710 C 0.02206 0.62347 0.36755 0.0
C1711 C 1.00309 0.61683 0.37944 0.0
C1712 C 0.98247 0.62636 0.37412 0.0
C1713 C 0.981 0.64302 0.358 0.0
C1714 C 0.99831 0.59298 0.43751 0.0
C1715 C 1.00898 0.57234 0.43523 0.0
C1716 C 0.99618 0.6072 0.41927 0.0
C1717 C 1.005 0.60127 0.39845 0.0
C1718 C 0.01594 0.58079 0.39616 0.0
C1719 C 0.0177 0.56632 0.41434 0.0
H1720 H 0.36479 0.03619 0.35239 0.0
H1721 H 0.36009 0.96557 0.36502 0.0
H1722 H 0.39227 0.03957 0.38199 0.0
H1723 H 0.38701 0.96928 0.39521 0.0
H1724 H 0.415 0.99189 0.46378 0.0
H1725 H 0.3877 0.98895 0.43358 0.0
H1726 H 0.43155 0.02574 0.39019 0.0
H1727 H 0.45877 0.02861 0.42013 0.0
C1728 C 0.36983 0.02131 0.36118 0.0
C1729 C 0.36014 1.00059 0.35625 0.0
C1730 C 0.38544 0.02332 0.37829 0.0
C1731 C 0.39153 1.00473 0.39103 0.0
C1732 C 0.38227 0.98394 0.38589 0.0
C1733 C 0.36687 0.98186 0.36858 0.0
C1734 C 0.41866 0.99953 0.44786 0.0
C1735 C 0.43901 0.01042 0.44429 0.0
C1736 C 0.40317 0.99768 0.43056 0.0
C1737 C 0.40762 1.00702 0.40956 0.0
C1738 C 0.42768 0.01845 0.40623 0.0
C1739 C 0.44327 0.02 0.42336 0.0
H1740 H 0.98544 0.18544 0.37481 0.0
H1741 H 0.03829 0.14811 0.3437 0.0
H1742 H 0.98438 0.15842 0.40533 0.0
H1743 H 0.03725 0.1213 0.37398 0.0
H1744 H 0.01071 0.06366 0.41477 0.0
H1745 H 0.01205 0.09242 0.38648 0.0
H1746 H 1.00525 0.14281 0.43721 0.0
H1747 H 1.00355 0.11391 0.46575 0.0
C1748 C 0.99702 0.17167 0.37463 0.0
C1749 C 0.01173 0.16879 0.35663 0.0
C1750 C 0.99641 0.15617 0.3921 0.0
C1751 C 0.0105 0.13747 0.39195 0.0
C1752 C 0.02577 0.13516 0.37438 0.0
C1753 C 0.02638 0.15058 0.357 0.0
C1754 C 1.00944 0.08082 0.42003 0.0
C1755 C 1.00709 0.08634 0.44268 0.0
C1756 C 0.01037 0.09739 0.40374 0.0
C1757 C 1.00896 0.11999 0.40954 0.0
C1758 C 1.00627 0.12557 0.43213 0.0
C1759 C 1.0054 0.10896 0.44851 0.0
H1760 H 0.84291 0.03521 0.36728 0.0
H1761 H 0.88429 0.98708 0.3337 0.0
H1762 H 0.86785 0.03424 0.39942 0.0
H1763 H 0.9091 0.98609 0.36571 0.0
H1764 H 0.96256 0.01141 0.41274 0.0
H1765 H 0.93584 0.01097 0.3826 0.0
H1766 H 0.88196 0.01084 0.43013 0.0
H1767 H 0.90887 0.01168 0.46067 0.0
C1768 C 0.85717 0.02423 0.36685 0.0
C1769 C 0.86173 0.01141 0.34779 0.0
C1770 C 0.87144 0.02366 0.38529 0.0
C1771 C 0.8906 0.01025 0.38507 0.0
C1772 C 0.89477 0.99697 0.36626 0.0
C1773 C 0.88054 0.99755 0.34788 0.0
C1774 C 0.94505 0.01129 0.41694 0.0
C1775 C 0.93797 0.01157 0.43929 0.0
C1776 C 0.92968 0.01087 0.39955 0.0
C1777 C 0.90673 0.0107 0.4039 0.0
C1778 C 0.89953 0.0111 0.4262 0.0
C1779 C 0.91498 0.01147 0.44371 0.0
H1780 H 0.99101 0.84588 0.36937 0.0
H1781 H 0.03865 0.88714 0.33485 0.0
H1782 H 0.9902 0.87248 0.40006 0.0
H1783 H 0.03777 0.91369 0.36543 0.0
H1784 H 0.01169 0.96803 0.41164 0.0
H1785 H 0.01283 0.94073 0.38183 0.0
H1786 H 0.0126 0.88774 0.43032 0.0
H1787 H 0.01107 0.91503 0.46028 0.0
C1788 C 1.00149 0.86049 0.3684 0.0
C1789 C 0.01479 0.86438 0.34951 0.0
C1790 C 1.00101 0.87577 0.38602 0.0
C1791 C 0.01382 0.89533 0.3852 0.0
C1792 C 0.02735 0.89904 0.36646 0.0
C1793 C 0.02785 0.88378 0.34889 0.0
C1794 C 0.01187 0.95058 0.41605 0.0
C1795 C 0.01129 0.94385 0.4385 0.0
C1796 C 0.01267 0.93488 0.39888 0.0
C1797 C 0.01289 0.91199 0.40362 0.0
C1798 C 0.01222 0.90521 0.42603 0.0
C1799 C 0.01147 0.92092 0.44324 0.0
H1800 H 0.17713 0.03836 0.37118 0.0
H1801 H 0.13391 0.99327 0.33571 0.0
H1802 H 0.1515 0.03804 0.4028 0.0
H1803 H 0.10844 0.99292 0.36719 0.0
H1804 H 0.05533 0.01836 0.41403 0.0
H1805 H 0.08257 0.01818 0.38438 0.0
H1806 H 0.13554 0.01511 0.43282 0.0
H1807 H 0.10808 0.01564 0.46291 0.0
C1808 C 0.1623 0.02818 0.37021 0.0
C1809 C 0.15749 0.01603 0.35076 0.0
C1810 C 0.14761 0.02799 0.38836 0.0
C1811 C 0.12775 0.01564 0.3875 0.0
C1812 C 0.1233 1.00303 0.36828 0.0
C1813 C 0.13792 1.00324 0.35018 0.0
C1814 C 0.07275 0.01765 0.41856 0.0
C1815 C 0.07939 0.01692 0.44104 0.0
C1816 C 0.08843 0.0174 0.40142 0.0
C1817 C 0.11129 0.01638 0.40613 0.0
C1818 C 0.11807 0.01601 0.42858 0.0
C1819 C 0.10229 0.01624 0.44584 0.0
H1820 H 0.02712 0.83614 0.6453 0.0
H1821 H 0.98888 0.8811 0.68613 0.0
H1822 H 0.02713 0.86356 0.61513 0.0
H1823 H 0.98854 0.90821 0.65612 0.0
H1824 H 0.01377 0.96188 0.61006 0.0
H1825 H 0.01364 0.93318 0.63842 0.0
H1826 H 1.00479 0.88303 0.58773 0.0
H1827 H 1.00545 0.91184 0.5591 0.0
C1828 C 0.01848 0.85175 0.64773 0.0
C1829 C 1.00826 0.85655 0.66823 0.0
C1830 C 0.01846 0.86747 0.63044 0.0
C1831 C 1.00811 0.8883 0.63324 0.0
C1832 C 0.99722 0.89266 0.6535 0.0
C1833 C 0.99734 0.87706 0.67073 0.0
C1834 C 0.01177 0.94477 0.60484 0.0
C1835 C 1.0095 0.9393 0.58218 0.0
C1836 C 0.01158 0.92824 0.62121 0.0
C1837 C 1.00897 0.90571 0.61548 0.0
C1838 C 1.00701 0.90016 0.59279 0.0
C1839 C 1.00728 0.91674 0.57635 0.0
H1840 H 0.13468 0.98861 0.68998 0.0
H1841 H 0.17465 0.03748 0.65574 0.0
H1842 H 0.10869 0.9881 0.65891 0.0
H1843 H 0.14852 0.03705 0.62459 0.0
H1844 H 0.1066 0.0153 0.564 0.0
H1845 H 0.13398 0.0148 0.59403 0.0
H1846 H 0.08095 0.01156 0.64241 0.0
H1847 H 0.0537 0.01161 0.61263 0.0
C1848 C 0.13786 0.99938 0.67588 0.0
C1849 C 0.15672 0.01322 0.6755 0.0
C1850 C 0.12292 0.99909 0.65802 0.0
C1851 C 0.12634 0.01267 0.63925 0.0
C1852 C 0.14544 0.02619 0.63864 0.0
C1853 C 0.16044 0.02645 0.65653 0.0
C1854 C 0.10075 0.01446 0.58103 0.0
C1855 C 0.07783 0.01343 0.58575 0.0
C1856 C 0.11649 0.01429 0.59829 0.0
C1857 C 0.10974 0.01303 0.62071 0.0
C1858 C 0.08684 0.01213 0.62537 0.0
C1859 C 0.07114 0.01232 0.60819 0.0
H1860 H 0.02603 0.17737 0.65816 0.0
H1861 H 0.97743 0.13623 0.69147 0.0
H1862 H 0.02611 0.15175 0.62662 0.0
H1863 H 0.9776 0.11066 0.66007 0.0
H1864 H 1.00334 0.05696 0.61319 0.0
H1865 H 1.00253 0.08371 0.64341 0.0
H1866 H 1.00318 0.13755 0.59586 0.0
H1867 H 1.00438 0.11072 0.56538 0.0
C1868 C 0.01519 0.16301 0.65868 0.0
C1869 C 1.00185 0.15881 0.67748 0.0
C1870 C 0.01523 0.14831 0.64058 0.0
C1871 C 1.00197 0.12905 0.64085 0.0
C1872 C 0.98835 0.12509 0.65947 0.0
C1873 C 0.98828 0.13977 0.67752 0.0
C1874 C 1.0033 0.07448 0.60904 0.0
C1875 C 1.0039 0.08159 0.58671 0.0
C1876 C 1.00269 0.08986 0.62645 0.0
C1877 C 1.00267 0.11281 0.6221 0.0
C1878 C 1.00336 0.11999 0.59981 0.0
C1879 C 1.00392 0.10457 0.58232 0.0
H1880 H 0.8346 0.02679 0.64981 0.0
H1881 H 0.87924 0.98538 0.68784 0.0
H1882 H 0.86109 0.02684 0.61881 0.0
H1883 H 0.90546 0.98521 0.65702 0.0
H1884 H 0.9587 0.0121 0.6111 0.0
H1885 H 0.93057 0.01109 0.63999 0.0
H1886 H 0.87931 1.00438 0.59007 0.0
H1887 H 0.90757 1.00583 0.56086 0.0
C1888 C 0.84991 0.01746 0.65144 0.0
C1889 C 0.85494 1.00636 0.67142 0.0
C1890 C 0.8651 0.01747 0.63367 0.0
C1891 C 0.8856 1.0063 0.63551 0.0
C1892 C 0.89014 0.99449 0.6552 0.0
C1893 C 0.87506 0.99454 0.67288 0.0
C1894 C 0.94148 0.01036 0.60614 0.0
C1895 C 0.93553 1.00894 0.58352 0.0
C1896 C 0.92529 1.00965 0.62281 0.0
C1897 C 0.90263 1.00744 0.61743 0.0
C1898 C 0.89658 1.00625 0.59482 0.0
C1899 C 0.91283 1.00697 0.57807 0.0
H1900 H 0.37639 1.00135 0.18873 0.0
H1901 H 0.33122 0.03017 0.14096 0.0
H1902 H 0.4061 1.00208 0.1609 0.0
H1903 H 0.3608 0.0314 0.1134 0.0
H1904 H 0.41046 1.00845 0.0614 0.0
H1905 H 0.38176 1.00806 0.08989 0.0
H1906 H 0.43075 0.02484 0.13976 0.0
H1907 H 0.45963 0.02457 0.11133 0.0
C1908 C 0.37288 1.00808 0.17237 0.0
C1909 C 0.35135 0.01547 0.16703 0.0
C1910 C 0.38992 1.00855 0.15638 0.0
C1911 C 0.38591 0.0166 0.13469 0.0
C1912 C 0.36449 0.02454 0.12965 0.0
C1913 C 0.34748 0.02391 0.14553 0.0
C1914 C 0.41518 0.01214 0.07841 0.0
C1915 C 0.43747 0.0166 0.08393 0.0
C1916 C 0.39862 0.01202 0.09482 0.0
C1917 C 0.40378 0.01653 0.11726 0.0
C1918 C 0.42609 0.021 0.12278 0.0
C1919 C 0.44269 0.02098 0.10637 0.0
H1920 H 0.03837 0.3343 0.137 0.0
H1921 H 0.99133 0.36886 0.17888 0.0
H1922 H 0.03831 0.3654 0.11109 0.0
H1923 H 0.99135 0.40012 0.1529 0.0
H1924 H 0.01347 0.46041 0.11058 0.0
H1925 H 0.01451 0.43026 0.1378 0.0
H1926 H 0.01319 0.38222 0.08441 0.0
H1927 H 0.01254 0.41209 0.05728 0.0
C1928 C 0.02788 0.34847 0.14063 0.0
C1929 C 0.0147 0.34893 0.15998 0.0
C1930 C 0.02787 0.36635 0.12575 0.0
C1931 C 0.0147 0.38523 0.12979 0.0
C1932 C 1.00186 0.38594 0.14937 0.0
C1933 C 1.00185 0.368 0.16427 0.0
C1934 C 0.01345 0.44343 0.10461 0.0
C1935 C 0.01297 0.43881 0.08163 0.0
C1936 C 0.01392 0.42613 0.12026 0.0
C1937 C 0.01403 0.40379 0.11332 0.0
C1938 C 0.01348 0.39921 0.09038 0.0
C1939 C 0.01295 0.41643 0.07477 0.0
H1940 H 0.67616 0.97882 0.15065 0.0
H1941 H 0.65228 0.03988 0.17993 0.0
H1942 H 0.64566 0.97955 0.12403 0.0
H1943 H 0.62148 0.04044 0.15331 0.0
H1944 H 0.55832 0.02187 0.1126 0.0
H1945 H 0.58702 0.02049 0.14139 0.0
H1946 H 0.63575 1.00262 0.09175 0.0
H1947 H 0.60726 1.00374 0.06308 0.0
C1948 C 0.66441 0.99243 0.15142 0.0
C1949 C 0.6669 1.00946 0.16729 0.0
C1950 C 0.6469 0.99283 0.13614 0.0
C1951 C 0.63128 0.0102 0.13634 0.0
C1952 C 0.63317 0.02676 0.15277 0.0
C1953 C 0.6508 0.02642 0.16806 0.0
C1954 C 0.57514 0.0176 0.10781 0.0
C1955 C 0.58038 0.01286 0.08545 0.0
C1956 C 0.59161 0.01694 0.12432 0.0
C1957 C 0.61366 0.01131 0.11891 0.0
C1958 C 0.61888 1.00668 0.09657 0.0
C1959 C 0.60251 1.0075 0.08007 0.0
H1960 H 0.03639 0.68498 0.14513 0.0
H1961 H 0.99497 0.64512 0.18816 0.0
H1962 H 0.03691 0.65524 0.11774 0.0
H1963 H 0.99525 0.61522 0.16049 0.0
H1964 H 0.01692 0.559 0.11279 0.0
H1965 H 0.01785 0.5874 0.14177 0.0
H1966 H 0.01205 0.63848 0.09157 0.0
H1967 H 0.01158 0.6103 0.06266 0.0
C1968 C 0.02728 0.66986 0.14871 0.0
C1969 C 0.01541 0.66757 0.16876 0.0
C1970 C 0.02753 0.65279 0.13294 0.0
C1971 C 0.01586 0.63288 0.13668 0.0
C1972 C 1.00454 0.63025 0.15707 0.0
C1973 C 1.00436 0.64739 0.17295 0.0
C1974 C 0.01587 0.57628 0.10789 0.0
C1975 C 0.01428 0.58225 0.08525 0.0
C1976 C 0.01629 0.5926 0.12457 0.0
C1977 C 0.01515 0.6153 0.11908 0.0
C1978 C 0.01339 0.62121 0.09647 0.0
C1979 C 0.01299 0.60496 0.07982 0.0
H1980 H 0.3363 0.03657 0.88083 0.0
H1981 H 0.37376 0.99222 0.83862 0.0
H1982 H 0.3663 0.03642 0.90795 0.0
H1983 H 0.40393 0.99186 0.86602 0.0
H1984 H 0.46177 0.0126 0.91245 0.0
H1985 H 0.43302 0.0135 0.88378 0.0
H1986 H 0.38239 0.01192 0.93476 0.0
H1987 H 0.41094 0.0115 0.96334 0.0
C1988 C 0.35093 0.02666 0.87738 0.0
C1989 C 0.35246 0.0142 0.85762 0.0
C1990 C 0.36817 0.02652 0.89301 0.0
C1991 C 0.38751 0.01387 0.88943 0.0
C1992 C 0.38937 1.00191 0.86933 0.0
C1993 C 0.37207 1.00211 0.85359 0.0
C1994 C 0.44451 0.01243 0.91759 0.0
C1995 C 0.4388 0.01209 0.94035 0.0
C1996 C 0.42799 0.01284 0.90108 0.0
C1997 C 0.4053 0.01293 0.90686 0.0
C1998 C 0.39964 0.01231 0.9296 0.0
C1999 C 0.41611 0.01193 0.94607 0.0
H2000 H 0.02372 0.37784 0.83646 0.0
H2001 H 0.98679 0.33721 0.88274 0.0
H2002 H 0.02358 0.40842 0.86341 0.0
H2003 H 0.98633 0.3676 0.90939 0.0
H2004 H 0.01284 0.41436 0.96196 0.0
H2005 H 0.01208 0.38578 0.93354 0.0
H2006 H 1.00092 0.43569 0.88307 0.0
H2007 H 1.00218 0.46461 0.9116 0.0
C2008 C 0.01534 0.37555 0.85225 0.0
C2009 C 1.00556 0.35499 0.85758 0.0
C2010 C 0.01522 0.39306 0.8677 0.0
C2011 C 1.00523 0.39041 0.88876 0.0
C2012 C 0.99472 0.3701 0.89363 0.0
C2013 C 0.99493 0.35265 0.8783 0.0
C2014 C 1.01017 0.41937 0.94484 0.0
C2015 C 1.00748 0.44191 0.9392 0.0
C2016 C 1.00961 0.40288 0.92849 0.0
C2017 C 1.00623 0.40833 0.90596 0.0
C2018 C 1.00374 0.43087 0.90021 0.0
C2019 C 1.00435 0.44746 0.91662 0.0
H2020 H 0.65424 0.98645 0.84694 0.0
H2021 H 0.68887 0.03234 0.89001 0.0
H2022 H 0.62226 0.98711 0.87208 0.0
H2023 H 0.65703 0.03304 0.915 0.0
H2024 H 0.60937 1.00804 0.96773 0.0
H2025 H 0.63949 1.00795 0.94099 0.0
H2026 H 0.5921 0.01048 0.88703 0.0
H2027 H 0.56157 0.01021 0.91395 0.0
C2028 C 0.65494 0.99687 0.86163 0.0
C2029 C 0.67424 1.00916 0.86656 0.0
C2030 C 0.63659 0.99726 0.87602 0.0
C2031 C 0.63713 1.00995 0.89569 0.0
C2032 C 0.65621 0.02269 0.90027 0.0
C2033 C 0.6745 0.02228 0.88593 0.0
C2034 C 0.60519 1.00858 0.9502 0.0
C2035 C 0.58288 1.00923 0.9431 0.0
C2036 C 0.62258 1.00867 0.93482 0.0
C2037 C 0.61828 1.00944 0.91184 0.0
C2038 C 0.59601 1.00976 0.90462 0.0
C2039 C 0.5785 1.00969 0.92008 0.0
H2040 H 0.98033 0.68933 0.88681 0.0
H2041 H 0.02881 0.65614 0.84546 0.0
H2042 H 0.981 0.65823 0.91273 0.0
H2043 H 0.02937 0.62488 0.87142 0.0
H2044 H 1.00848 0.56398 0.91352 0.0
H2045 H 1.00682 0.59408 0.88627 0.0
H2046 H 1.00648 0.64215 0.93965 0.0
H2047 H 1.00777 0.61231 0.9668 0.0
C2048 C 0.99125 0.67546 0.88329 0.0
C2049 C 1.00465 0.67539 0.86409 0.0
C2050 C 0.99162 0.65759 0.89817 0.0
C2051 C 1.00536 0.63909 0.89427 0.0
C2052 C 0.01842 0.63875 0.87483 0.0
C2053 C 0.01809 0.65669 0.85994 0.0
C2054 C 1.00801 0.58095 0.91947 0.0
C2055 C 1.00822 0.5856 0.94245 0.0
C2056 C 1.00718 0.59823 0.90381 0.0
C2057 C 1.00642 0.62056 0.91075 0.0
C2058 C 1.00669 0.62516 0.93369 0.0
C2059 C 1.00759 0.60796 0.94931 0.0
H2060 H 0.13415 0.33421 0.0374 0.0
H2061 H 0.17631 0.36658 0.98902 0.0
H2062 H 0.10878 0.3657 0.03641 0.0
H2063 H 0.15086 0.39822 0.9881 0.0
H2064 H 0.10923 0.4598 1.00878 0.0
H2065 H 0.13614 0.4294 1.01021 0.0
H2066 H 0.08232 0.38188 1.01068 0.0
H2067 H 0.05554 0.41197 1.00958 0.0
C2068 C 0.13796 0.34799 0.02644 0.0
C2069 C 0.15722 0.3477 0.01314 0.0
C2070 C 0.12339 0.36608 0.02588 0.0
C2071 C 0.12764 0.38445 0.01202 0.0
C2072 C 0.14717 0.38445 0.9991 0.0
C2073 C 0.16177 0.36629 0.99964 0.0
C2074 C 0.10311 0.44288 1.00913 0.0
C2075 C 0.08011 0.43847 1.00914 0.0
C2076 C 0.11857 0.42543 1.00987 0.0
C2077 C 0.11142 0.40317 1.01073 0.0
C2078 C 0.08845 0.39881 1.01046 0.0
C2079 C 0.07305 0.41616 1.00967 0.0
H2080 H 0.18608 0.64655 0.99268 0.0
H2081 H 0.14326 0.68431 0.0362 0.0
H2082 H 0.15868 0.61642 0.99203 0.0
H2083 H 0.11614 0.65434 0.03579 0.0
H2084 H 0.06119 0.61024 1.0095 0.0
H2085 H 0.08994 0.63854 1.01032 0.0
H2086 H 0.14037 0.58757 0.0138 0.0
H2087 H 0.11154 0.55905 0.01249 0.0
C2088 C 0.17097 0.64829 1.00233 0.0
C2089 C 0.16674 0.66796 0.01424 0.0
C2090 C 0.15526 0.63103 1.00197 0.0
C2091 C 0.135 0.63304 0.0136 0.0
C2092 C 0.13124 0.65241 0.02615 0.0
C2093 C 0.14684 0.6696 0.02644 0.0
C2094 C 0.07837 0.60495 1.01043 0.0
C2095 C 0.08392 0.58224 1.01102 0.0
C2096 C 0.09492 0.62126 1.01104 0.0
C2097 C 0.11754 0.61541 0.01234 0.0
C2098 C 0.12316 0.59271 0.01263 0.0
C2099 C 0.10657 0.57634 0.01198 0.0
H2100 H 0.34176 0.14902 0.97696 0.0
H2101 H 0.36901 0.18145 0.03503 0.0
H2102 H 0.37247 0.12271 0.97718 0.0
H2103 H 0.40001 0.1551 0.03509 0.0
H2104 H 0.4622 0.11352 0.01538 0.0
H2105 H 0.43338 0.14218 0.01392 0.0
H2106 H 0.38392 0.09177 1.00112 0.0
H2107 H 0.41248 0.06327 1.00231 0.0
C2108 C 0.35429 0.15055 0.98981 0.0
C2109 C 0.35268 0.16722 1.00617 0.0
C2110 C 0.37193 0.13544 0.98992 0.0
C2111 C 0.38858 0.13659 1.00632 0.0
C2112 C 0.38753 0.15381 0.02215 0.0
C2113 C 0.36977 0.16894 0.0221 0.0
C2114 C 0.44519 0.10854 0.01216 0.0
C2115 C 0.43976 0.086 1.00891 0.0
C2116 C 0.42865 0.12499 1.01147 0.0
C2117 C 0.40634 0.11931 1.00729 0.0
C2118 C 0.40096 0.09679 1.00405 0.0
C2119 C 0.41739 0.08039 1.0049 0.0
H2120 H 0.87425 0.34416 0.98056 0.0
H2121 H 0.84203 0.37107 0.0389 0.0
H2122 H 0.90086 0.37461 0.98111 0.0
H2123 H 0.8687 0.40182 0.0393 0.0
H2124 H 0.91046 0.46408 0.01987 0.0
H2125 H 0.88179 0.43526 0.01879 0.0
H2126 H 0.93198 0.38602 1.00452 0.0
H2127 H 0.96049 0.4146 1.0053 0.0
C2128 C 0.87284 0.35655 0.99357 0.0
C2129 C 0.8561 0.35491 1.00987 0.0
C2130 C 0.88815 0.37405 0.99387 0.0
C2131 C 0.88715 0.39055 1.01042 0.0
C2132 C 0.8699 0.38946 0.02624 0.0
C2133 C 0.85458 0.37184 0.02599 0.0
C2134 C 0.9154 0.44712 0.01646 0.0
C2135 C 0.93789 0.4418 0.01259 0.0
C2136 C 0.89894 0.43056 0.01598 0.0
C2137 C 0.90452 0.40831 1.01143 0.0
C2138 C 0.927 0.40301 1.00772 0.0
C2139 C 0.94342 0.41947 1.00833 0.0
H2140 H 0.64529 0.83847 0.03619 0.0
H2141 H 0.68034 0.87835 0.98781 0.0
H2142 H 0.61522 0.86591 0.0369 0.0
H2143 H 0.65048 0.90557 0.98846 0.0
H2144 H 0.6078 0.96217 0.01411 0.0
H2145 H 0.63606 0.93338 0.01337 0.0
H2146 H 0.58501 0.88295 0.01547 0.0
H2147 H 0.55653 0.91185 0.01659 0.0
C2148 C 0.64647 0.85292 0.0255 0.0
C2149 C 0.66542 0.85629 0.01217 0.0
C2150 C 0.62923 0.86868 0.02591 0.0
C2151 C 0.63051 0.88819 0.01297 0.0
C2152 C 0.64913 0.89109 0.99909 0.0
C2153 C 0.66628 0.87541 0.99869 0.0
C2154 C 0.60247 0.94499 0.01446 0.0
C2155 C 0.57973 0.93949 0.01535 0.0
C2156 C 0.61877 0.92839 0.01388 0.0
C2157 C 0.6129 0.90574 0.01417 0.0
C2158 C 0.59019 0.90018 0.01538 0.0
C2159 C 0.57383 0.91682 0.01592 0.0
H2160 H 0.8432 0.6541 0.99265 0.0
H2161 H 0.88492 0.69076 0.03821 0.0
H2162 H 0.86952 0.62322 0.99347 0.0
H2163 H 0.91114 0.65996 0.03909 0.0
H2164 H 0.9653 0.6125 0.01547 0.0
H2165 H 0.93806 0.64225 0.0155 0.0
H2166 H 0.88497 0.59392 0.01656 0.0
H2167 H 0.91229 0.56395 0.01607 0.0
C2168 C 0.85784 0.6555 1.00304 0.0
C2169 C 0.86196 0.67506 0.01524 0.0
C2170 C 0.87297 0.63776 1.00352 0.0
C2171 C 0.8926 0.63908 0.01623 0.0
C2172 C 0.89647 0.65848 0.02874 0.0
C2173 C 0.88139 0.67619 0.02824 0.0
C2174 C 0.94785 0.60808 0.01575 0.0
C2175 C 0.94112 0.58566 0.01581 0.0
C2176 C 0.93216 0.62525 0.0159 0.0
C2177 C 0.90923 0.62059 0.01613 0.0
C2178 C 0.90246 0.59818 0.01616 0.0
C2179 C 0.91818 0.58096 0.01603 0.0
H2180 H 0.36698 0.84635 0.03821 0.0
H2181 H 0.33187 0.88685 0.99038 0.0
H2182 H 0.39786 0.87272 0.03784 0.0
H2183 H 0.36268 0.91311 0.98995 0.0
H2184 H 0.40928 0.96777 0.01372 0.0
H2185 H 0.37949 0.94053 0.01385 0.0
H2186 H 0.42781 0.88747 0.01491 0.0
H2187 H 0.4578 0.91476 0.01522 0.0
C2188 C 0.36594 0.86074 0.02743 0.0
C2189 C 0.34684 0.86454 0.01444 0.0
C2190 C 0.38366 0.87588 0.02722 0.0
C2191 C 0.38273 0.89516 0.01398 0.0
C2192 C 0.3638 0.8987 1.0007 0.0
C2193 C 0.3461 0.88362 1.00094 0.0
C2194 C 0.41367 0.95032 0.01399 0.0
C2195 C 0.43608 0.94357 0.01442 0.0
C2196 C 0.3965 0.93465 0.01392 0.0
C2197 C 0.40119 0.91176 0.01426 0.0
C2198 C 0.42357 0.90496 0.01485 0.0
C2199 C 0.44079 0.92065 0.01491 0.0
H2200 H 0.68774 0.13715 0.04051 0.0
H2201 H 0.65613 0.17758 0.99023 0.0
H2202 H 0.65633 0.11165 0.0398 0.0
H2203 H 0.62457 0.15199 0.98954 0.0
H2204 H 0.5626 0.11104 1.00994 0.0
H2205 H 0.593 0.13796 1.01119 0.0
H2206 H 0.64041 0.08423 0.01518 0.0
H2207 H 0.61028 0.05744 0.01431 0.0
C2208 C 0.67416 0.14055 0.02918 0.0
C2209 C 0.67464 0.15938 0.01529 0.0
C2210 C 0.65609 0.12589 0.02877 0.0
C2211 C 0.63794 0.12961 0.01447 0.0
C2212 C 0.63815 0.1487 1.00092 0.0
C2213 C 0.65627 0.16339 1.00131 0.0
C2214 C 0.5795 0.10494 1.01108 0.0
C2215 C 0.58384 0.08196 0.01211 0.0
C2216 C 0.59696 0.12041 0.01169 0.0
C2217 C 0.6192 0.11331 0.01343 0.0
C2218 C 0.62351 0.09036 0.01425 0.0
C2219 C 0.60613 0.07494 0.0136 0.0
H2220 H 0.53094 0.63522 0.83665 0.0
H2221 H 0.48386 0.67745 0.87064 0.0
H2222 H 0.53112 0.60998 0.86831 0.0
H2223 H 0.48396 0.65203 0.90243 0.0
H2224 H 0.50591 0.60952 0.96332 0.0
H2225 H 0.50654 0.63684 0.93312 0.0
H2226 H 0.50594 0.58362 0.88489 0.0
H2227 H 0.50567 0.55654 0.91465 0.0
C2228 C 0.5205 0.63905 0.85083 0.0
C2229 C 0.5072 0.65826 0.85096 0.0
C2230 C 0.5206 0.62457 0.86903 0.0
C2231 C 0.50737 0.62881 0.88787 0.0
C2232 C 0.49449 0.64833 0.88829 0.0
C2233 C 0.49442 0.66289 0.87004 0.0
C2234 C 0.50588 0.60366 0.94627 0.0
C2235 C 0.50589 0.58074 0.94155 0.0
C2236 C 0.50616 0.61934 0.92895 0.0
C2237 C 0.50653 0.61245 0.90654 0.0
C2238 C 0.50616 0.58957 0.90191 0.0
C2239 C 0.50587 0.57398 0.91911 0.0
H2240 H 0.38661 0.47952 0.83426 0.0
H2241 H 0.34568 0.52839 0.86738 0.0
H2242 H 0.4117 0.47904 0.86607 0.0
H2243 H 0.37081 0.52778 0.89933 0.0
H2244 H 0.41119 0.50516 0.96087 0.0
H2245 H 0.38448 0.50417 0.93018 0.0
H2246 H 0.43863 0.50401 0.88296 0.0
H2247 H 0.46519 0.50464 0.91328 0.0
C2248 C 0.38303 0.49028 0.84826 0.0
C2249 C 0.3642 0.50413 0.84812 0.0
C2250 C 0.3974 0.48997 0.86654 0.0
C2251 C 0.39335 0.50347 0.88521 0.0
C2252 C 0.37429 0.517 0.88532 0.0
C2253 C 0.3599 0.51735 0.86698 0.0
C2254 C 0.41741 0.50483 0.94395 0.0
C2255 C 0.44042 0.50494 0.93966 0.0
C2256 C 0.40207 0.50439 0.92635 0.0
C2257 C 0.40941 0.50392 0.9041 0.0
C2258 C 0.43238 0.50401 0.89988 0.0
C2259 C 0.44765 0.50453 0.91737 0.0
H2260 H 0.49269 0.34441 0.86806 0.0
H2261 H 0.53954 0.38662 0.83365 0.0
H2262 H 0.49364 0.36943 0.90009 0.0
H2263 H 0.54053 0.41152 0.86558 0.0
H2264 H 0.51566 0.46455 0.91344 0.0
H2265 H 0.51628 0.43797 0.88319 0.0
H2266 H 0.51662 0.38394 0.93052 0.0
H2267 H 0.51555 0.41071 0.96115 0.0
C2268 C 0.5034 0.35887 0.86741 0.0
C2269 C 0.51588 0.36358 0.84813 0.0
C2270 C 0.50396 0.37322 0.88581 0.0
C2271 C 0.51702 0.39263 0.8854 0.0
C2272 C 0.52991 0.397 0.86634 0.0
C2273 C 0.52933 0.3827 0.84798 0.0
C2274 C 0.51591 0.44703 0.91758 0.0
C2275 C 0.51558 0.43989 0.93991 0.0
C2276 C 0.51642 0.43173 0.9001 0.0
C2277 C 0.51664 0.40875 0.90433 0.0
C2278 C 0.51629 0.40151 0.92663 0.0
C2279 C 0.51581 0.41689 0.94422 0.0
H2280 H 0.67715 0.49307 0.87072 0.0
H2281 H 0.63542 0.54041 0.83647 0.0
H2282 H 0.65214 0.4942 0.9028 0.0
H2283 H 0.61059 0.54164 0.86844 0.0
H2284 H 0.55695 0.5164 0.91516 0.0
H2285 H 0.58395 0.51723 0.88537 0.0
H2286 H 0.63732 0.51696 0.93347 0.0
H2287 H 0.61002 0.51564 0.96374 0.0
C2288 C 0.66281 0.50394 0.87012 0.0
C2289 C 0.65818 0.51646 0.85086 0.0
C2290 C 0.64848 0.50461 0.88856 0.0
C2291 C 0.62919 0.51784 0.88818 0.0
C2292 C 0.625 0.53087 0.86917 0.0
C2293 C 0.63925 0.53016 0.85078 0.0
C2294 C 0.5744 0.51656 0.9196 0.0
C2295 C 0.58119 0.51597 0.94204 0.0
C2296 C 0.58996 0.51721 0.90237 0.0
C2297 C 0.61287 0.51734 0.90693 0.0
C2298 C 0.6198 0.51674 0.92934 0.0
C2299 C 0.60413 0.51612 0.94671 0.0
H2300 H 0.48793 0.37895 0.18726 0.0
H2301 H 0.53163 0.33584 0.15006 0.0
H2302 H 0.48833 0.40567 0.1569 0.0
H2303 H 0.53227 0.36285 0.11954 0.0
H2304 H 0.5116 0.40914 0.06135 0.0
H2305 H 0.51061 0.38068 0.09032 0.0
H2306 H 0.51355 0.4318 0.14071 0.0
H2307 H 0.51407 0.46016 0.11197 0.0
C2308 C 0.49774 0.37522 0.1726 0.0
C2309 C 0.50998 0.35536 0.17124 0.0
C2310 C 0.49803 0.39061 0.15517 0.0
C2311 C 0.51061 0.38666 0.13583 0.0
C2312 C 0.5223 0.36643 0.13411 0.0
C2313 C 0.52195 0.35093 0.15161 0.0
C2314 C 0.51209 0.41434 0.07861 0.0
C2315 C 0.51278 0.43707 0.08422 0.0
C2316 C 0.51161 0.39796 0.09524 0.0
C2317 C 0.5118 0.40388 0.11791 0.0
C2318 C 0.51289 0.42658 0.12346 0.0
C2319 C 0.51332 0.44291 0.1069 0.0
H2320 H 0.67705 0.49292 0.15638 0.0
H2321 H 0.63353 0.537 0.19274 0.0
H2322 H 0.65106 0.49303 0.12513 0.0
H2323 H 0.6076 0.53702 0.16163 0.0
H2324 H 0.55474 0.51128 0.11374 0.0
H2325 H 0.58178 0.51198 0.14372 0.0
H2326 H 0.63505 0.51626 0.0957 0.0
H2327 H 0.60792 0.51519 0.06544 0.0
C2328 C 0.66207 0.50282 0.15766 0.0
C2329 C 0.65737 0.51481 0.17724 0.0
C2330 C 0.64714 0.50288 0.1397 0.0
C2331 C 0.6271 0.5149 0.14086 0.0
C2332 C 0.62262 0.5272 0.16028 0.0
C2333 C 0.63752 0.52716 0.17818 0.0
C2334 C 0.57219 0.51239 0.10943 0.0
C2335 C 0.57902 0.51319 0.08701 0.0
C2336 C 0.58775 0.51293 0.12673 0.0
C2337 C 0.61065 0.51429 0.12221 0.0
C2338 C 0.61757 0.51501 0.09982 0.0
C2339 C 0.60196 0.51451 0.08244 0.0
H2340 H 0.53349 0.63615 0.18925 0.0
H2341 H 0.48245 0.67562 0.15771 0.0
H2342 H 0.53267 0.61027 0.15813 0.0
H2343 H 0.48167 0.64964 0.12644 0.0
H2344 H 0.50215 0.60807 0.06468 0.0
H2345 H 0.50323 0.63542 0.09474 0.0
H2346 H 0.50794 0.5824 0.14297 0.0
H2347 H 0.50721 0.55518 0.11319 0.0
C2348 C 0.52197 0.63926 0.17575 0.0
C2349 C 0.50789 0.65792 0.17616 0.0
C2350 C 0.5215 0.62438 0.15786 0.0
C2351 C 0.50695 0.62771 0.13982 0.0
C2352 C 0.49322 0.64665 0.13994 0.0
C2353 C 0.49368 0.66156 0.15789 0.0
C2354 C 0.50336 0.60221 0.08169 0.0
C2355 C 0.50467 0.57931 0.08637 0.0
C2356 C 0.5039 0.61793 0.09895 0.0
C2357 C 0.50584 0.61116 0.12131 0.0
C2358 C 0.50685 0.58828 0.12596 0.0
C2359 C 0.50627 0.57261 0.10878 0.0
H2360 H 0.36888 0.54102 0.17723 0.0
H2361 H 0.34118 0.47876 0.15449 0.0
H2362 H 0.39642 0.53961 0.14756 0.0
H2363 H 0.3686 0.47764 0.12445 0.0
H2364 H 0.40996 0.49564 0.06132 0.0
H2365 H 0.38078 0.49707 0.08961 0.0
H2366 H 0.42933 0.51656 0.13882 0.0
H2367 H 0.45844 0.5153 0.11071 0.0
C2368 C 0.36863 0.52699 0.16593 0.0
C2369 C 0.35288 0.50987 0.16852 0.0
C2370 C 0.38446 0.52621 0.14888 0.0
C2371 C 0.38491 0.50838 0.13377 0.0
C2372 C 0.36866 0.49167 0.13575 0.0
C2373 C 0.35287 0.49236 0.15295 0.0
C2374 C 0.41446 0.5002 0.07818 0.0
C2375 C 0.43665 0.50537 0.08364 0.0
C2376 C 0.39771 0.50092 0.09442 0.0
C2377 C 0.40267 0.50706 0.11646 0.0
C2378 C 0.42485 0.51207 0.12194 0.0
C2379 C 0.44161 0.51117 0.10579 0.0
H2380 H 0.86843 0.53922 0.68242 0.0
H2381 H 0.84018 0.48271 0.64828 0.0
H2382 H 0.89879 0.54026 0.65528 0.0
H2383 H 0.87027 0.48386 0.62124 0.0
H2384 H 0.91117 0.50812 0.5623 0.0
H2385 H 0.88235 0.50747 0.5907 0.0
H2386 H 0.93163 0.52001 0.64144 0.0
H2387 H 0.96059 0.52096 0.61298 0.0
C2388 C 0.8688 0.52686 0.66932 0.0
C2389 C 0.85164 0.51105 0.66745 0.0
C2390 C 0.88621 0.52748 0.65372 0.0
C2391 C 0.88685 0.51234 0.63584 0.0
C2392 C 0.87006 0.49613 0.63443 0.0
C2393 C 0.85277 0.49547 0.64999 0.0
C2394 C 0.91597 0.51084 0.57947 0.0
C2395 C 0.93836 0.51456 0.58522 0.0
C2396 C 0.89939 0.51031 0.59583 0.0
C2397 C 0.90463 0.51353 0.61845 0.0
C2398 C 0.92694 0.51762 0.6242 0.0
C2399 C 0.94359 0.51805 0.60783 0.0
H2400 H 0.49355 0.83311 0.64214 0.0
H2401 H 0.52878 0.87501 0.68858 0.0
H2402 H 0.49369 0.86291 0.6148 0.0
H2403 H 0.52936 0.90492 0.66096 0.0
H2404 H 0.50857 0.96046 0.61256 0.0
H2405 H 0.50753 0.93159 0.64099 0.0
H2406 H 0.51827 0.8817 0.59039 0.0
H2407 H 0.51869 0.91043 0.56194 0.0
C2408 C 0.50149 0.84869 0.64646 0.0
C2409 C 0.51135 0.85158 0.66749 0.0
C2410 C 0.50165 0.86581 0.63071 0.0
C2411 C 0.5118 0.88634 0.63544 0.0
C2412 C 0.52122 0.88944 0.65672 0.0
C2413 C 0.52093 0.87229 0.67258 0.0
C2414 C 0.51075 0.94334 0.60746 0.0
C2415 C 0.51363 0.93786 0.58483 0.0
C2416 C 0.51026 0.92674 0.62385 0.0
C2417 C 0.51271 0.9042 0.6181 0.0
C2418 C 0.51587 0.89879 0.59549 0.0
C2419 C 0.51624 0.91535 0.57911 0.0
H2420 H 0.17855 0.48302 0.65134 0.0
H2421 H 0.14739 0.53759 0.68609 0.0
H2422 H 0.14951 0.48423 0.62317 0.0
H2423 H 0.11861 0.53928 0.65737 0.0
H2424 H 0.05846 0.51904 0.61377 0.0
H2425 H 0.08683 0.5183 0.64275 0.0
H2426 H 0.13746 0.50801 0.59282 0.0
H2427 H 0.10919 0.50837 0.56386 0.0
C2428 C 0.16541 0.49519 0.65308 0.0
C2429 C 0.16528 0.51014 0.6711 0.0
C2430 C 0.1489 0.49608 0.63672 0.0
C2431 C 0.13177 0.51194 0.63789 0.0
C2432 C 0.13147 0.52676 0.65602 0.0
C2433 C 0.14807 0.52592 0.67239 0.0
C2434 C 0.07563 0.51665 0.6089 0.0
C2435 C 0.08143 0.51366 0.58638 0.0
C2436 C 0.09193 0.51635 0.62557 0.0
C2437 C 0.11443 0.51299 0.62016 0.0
C2438 C 0.12025 0.51029 0.59764 0.0
C2439 C 0.104 0.51064 0.58098 0.0
H2440 H 0.48074 0.17882 0.64834 0.0
H2441 H 0.53806 0.15194 0.68226 0.0
H2442 H 0.48188 0.14823 0.62189 0.0
H2443 H 0.53905 0.12104 0.65573 0.0
H2444 H 0.52011 0.05863 0.61363 0.0
H2445 H 0.51863 0.08756 0.6422 0.0
H2446 H 0.50623 0.13679 0.59141 0.0
H2447 H 0.50744 0.10811 0.56299 0.0
C2448 C 0.49365 0.16641 0.65015 0.0
C2449 C 0.50951 0.1681 0.66731 0.0
C2450 C 0.49429 0.14883 0.63494 0.0
C2451 C 0.51075 0.13231 0.63645 0.0
C2452 C 0.5261 0.13343 0.65413 0.0
C2453 C 0.5255 0.15114 0.66936 0.0
C2454 C 0.51706 0.07562 0.60853 0.0
C2455 C 0.51383 0.08091 0.5859 0.0
C2456 C 0.51634 0.09223 0.62494 0.0
C2457 C 0.51215 0.11451 0.61915 0.0
C2458 C 0.50913 0.11978 0.59654 0.0
C2459 C 0.50999 0.10327 0.58017 0.0
H2460 H 0.84158 0.53811 0.37882 0.0
H2461 H 0.87118 0.48334 0.34308 0.0
H2462 H 0.87144 0.53666 0.40608 0.0
H2463 H 0.90128 0.4819 0.37051 0.0
H2464 H 0.96223 0.50033 0.41434 0.0
H2465 H 0.93363 0.5018 0.38552 0.0
H2466 H 0.88361 0.51262 0.43594 0.0
H2467 H 0.91206 0.51153 0.46466 0.0
C2468 C 0.85443 0.52566 0.37681 0.0
C2469 C 0.85375 0.51065 0.35884 0.0
C2470 C 0.87158 0.52481 0.39251 0.0
C2471 C 0.88867 0.50896 0.39075 0.0
C2472 C 0.88847 0.49441 0.37236 0.0
C2473 C 0.87121 0.49525 0.3566 0.0
C2474 C 0.94513 0.503 0.41933 0.0
C2475 C 0.93959 0.5059 0.44195 0.0
C2476 C 0.92869 0.50372 0.40276 0.0
C2477 C 0.90627 0.50748 0.40832 0.0
C2478 C 0.90072 0.51009 0.43094 0.0
C2479 C 0.9171 0.50929 0.44749 0.0
H2480 H 0.53285 0.86955 0.34406 0.0
H2481 H 0.47532 0.84196 0.3771 0.0
H2482 H 0.53367 0.89989 0.37116 0.0
H2483 H 0.47634 0.872 0.40419 0.0
H2484 H 0.50192 0.9118 0.46383 0.0
H2485 H 0.5004 0.88335 0.43509 0.0
H2486 H 0.51302 0.93301 0.38476 0.0
H2487 H 0.5148 0.96162 0.41358 0.0
C2488 C 0.52021 0.87007 0.35689 0.0
C2489 C 0.50418 0.85308 0.35847 0.0
C2490 C 0.52071 0.88746 0.37247 0.0
C2491 C 0.50524 0.88825 0.39006 0.0
C2492 C 0.48882 0.87166 0.39119 0.0
C2493 C 0.48825 0.8544 0.37561 0.0
C2494 C 0.50442 0.91675 0.44667 0.0
C2495 C 0.50846 0.93912 0.44113 0.0
C2496 C 0.50339 0.9004 0.43013 0.0
C2497 C 0.50648 0.90587 0.40756 0.0
C2498 C 0.51071 0.92818 0.40198 0.0
C2499 C 0.51158 0.94461 0.41853 0.0
H2500 H 0.15457 0.52453 0.34789 0.0
H2501 H 0.18714 0.47468 0.38808 0.0
H2502 H 0.12314 0.52463 0.37366 0.0
H2503 H 0.15586 0.47488 0.4138 0.0
H2504 H 0.11018 0.50108 0.46845 0.0
H2505 H 0.14001 0.49976 0.4413 0.0
H2506 H 0.09197 0.50213 0.38791 0.0
H2507 H 0.06185 0.50384 0.4152 0.0
C2508 C 0.15495 0.51341 0.36207 0.0
C2509 C 0.17353 0.49973 0.36596 0.0
C2510 C 0.1369 0.51347 0.37685 0.0
C2511 C 0.13701 0.49988 0.39592 0.0
C2512 C 0.15539 0.48588 0.39954 0.0
C2513 C 0.17337 0.48579 0.38477 0.0
C2514 C 0.10583 0.50132 0.45095 0.0
C2515 C 0.08347 0.50256 0.44411 0.0
C2516 C 0.12302 0.5004 0.43533 0.0
C2517 C 0.11844 0.50073 0.41239 0.0
C2518 C 0.09611 0.50201 0.40546 0.0
C2519 C 0.07883 0.50285 0.42113 0.0
H2520 H 0.4862 0.15401 0.34769 0.0
H2521 H 0.5352 0.18758 0.38809 0.0
H2522 H 0.48699 0.12234 0.37318 0.0
H2523 H 0.53607 0.15602 0.41343 0.0
H2524 H 0.5122 0.10956 0.46787 0.0
H2525 H 0.51206 0.13945 0.44087 0.0
H2526 H 0.50979 0.09161 0.38732 0.0
H2527 H 0.50951 0.06136 0.41452 0.0
C2528 C 0.49733 0.15454 0.36185 0.0
C2529 C 0.51047 0.17347 0.36595 0.0
C2530 C 0.4978 0.13636 0.37647 0.0
C2531 C 0.51144 0.13668 0.3955 0.0
C2532 C 0.52499 0.15538 0.39923 0.0
C2533 C 0.52449 0.17351 0.38468 0.0
C2534 C 0.51168 0.10524 0.45037 0.0
C2535 C 0.51095 0.08289 0.44348 0.0
C2536 C 0.51175 0.1225 0.43483 0.0
C2537 C 0.51111 0.11801 0.41187 0.0
C2538 C 0.51015 0.09569 0.40488 0.0
C2539 C 0.51011 0.07833 0.4205 0.0
H2540 H 0.64059 0.83302 0.53165 0.0
H2541 H 0.68522 0.87322 0.49233 0.0
H2542 H 0.61358 0.86308 0.53203 0.0
H2543 H 0.65796 0.90342 0.49241 0.0
H2544 H 0.61123 0.95998 0.51448 0.0
H2545 H 0.63943 0.93093 0.51497 0.0
H2546 H 0.58817 0.88117 0.50757 0.0
H2547 H 0.55995 0.91008 0.50761 0.0
C2548 C 0.64459 0.84828 0.52295 0.0
C2549 C 0.665 0.8506 0.51176 0.0
C2550 C 0.62903 0.86554 0.52311 0.0
C2551 C 0.63337 0.88566 0.512 0.0
C2552 C 0.65406 0.88824 0.50128 0.0
C2553 C 0.66972 0.87093 0.50122 0.0
C2554 C 0.60591 0.94285 0.51292 0.0
C2555 C 0.58318 0.93748 0.51108 0.0
C2556 C 0.62217 0.92616 0.5131 0.0
C2557 C 0.61617 0.90362 0.51142 0.0
C2558 C 0.59346 0.89829 0.50933 0.0
C2559 C 0.57722 0.91494 0.50922 0.0
H2560 H 0.68201 0.15079 0.49005 0.0
H2561 H 0.64551 0.17979 0.54471 0.0
H2562 H 0.65547 0.1199 0.48889 0.0
H2563 H 0.61915 0.14916 0.54354 0.0
H2564 H 0.56151 0.10819 0.51726 0.0
H2565 H 0.58985 0.13687 0.51853 0.0
H2566 H 0.64091 0.08726 0.50954 0.0
H2567 H 0.61242 0.05832 0.50794 0.0
C2568 C 0.66853 0.15044 0.502 0.0
C2569 C 0.66573 0.16796 0.51726 0.0
C2570 C 0.6533 0.13274 0.50132 0.0
C2571 C 0.63495 0.13221 0.51589 0.0
C2572 C 0.63273 0.1493 0.53169 0.0
C2573 C 0.64789 0.16688 0.53238 0.0
C2574 C 0.57873 0.10326 0.51549 0.0
C2575 C 0.58456 0.0808 0.51257 0.0
C2576 C 0.59505 0.11978 0.51638 0.0
C2577 C 0.61772 0.1144 0.51434 0.0
C2578 C 0.62361 0.09201 0.51105 0.0
C2579 C 0.60724 0.0754 0.51025 0.0
H2580 H 0.83337 0.6347 0.48449 0.0
H2581 H 0.86819 0.67657 0.53134 0.0
H2582 H 0.86513 0.60966 0.48323 0.0
H2583 H 0.90005 0.65138 0.53017 0.0
H2584 H 0.96047 0.60917 0.50811 0.0
H2585 H 0.93029 0.63644 0.50696 0.0
H2586 H 0.88218 0.58315 0.50785 0.0
H2587 H 0.91191 0.55612 0.50853 0.0
C2588 C 0.84777 0.63851 0.49463 0.0
C2589 C 0.8481 0.65754 0.5082 0.0
C2590 C 0.86602 0.62415 0.4939 0.0
C2591 C 0.88511 0.62836 0.50677 0.0
C2592 C 0.88572 0.64772 0.51988 0.0
C2593 C 0.86743 0.66215 0.52058 0.0
C2594 C 0.94346 0.60328 0.50795 0.0
C2595 C 0.93876 0.58036 0.50837 0.0
C2596 C 0.92615 0.61893 0.50742 0.0
C2597 C 0.90377 0.61201 0.50719 0.0
C2598 C 0.89917 0.58913 0.5076 0.0
C2599 C 0.91635 0.57357 0.50817 0.0
H2600 H 0.34375 0.86874 0.54153 0.0
H2601 H 0.3714 0.84533 0.47942 0.0
H2602 H 0.37154 0.89837 0.54259 0.0
H2603 H 0.39932 0.87458 0.48078 0.0
H2604 H 0.46142 0.91206 0.50433 0.0
H2605 H 0.43234 0.88387 0.50325 0.0
H2606 H 0.38385 0.93283 0.52322 0.0
H2607 H 0.41296 0.96112 0.52449 0.0
C2608 C 0.35552 0.87002 0.52796 0.0
C2609 C 0.35534 0.85438 0.5105 0.0
C2610 C 0.37154 0.887 0.52862 0.0
C2611 C 0.38787 0.88874 0.5119 0.0
C2612 C 0.38732 0.87348 0.49418 0.0
C2613 C 0.37126 0.85665 0.49344 0.0
C2614 C 0.4446 0.91688 0.50859 0.0
C2615 C 0.43965 0.93897 0.51448 0.0
C2616 C 0.42786 0.9007 0.5078 0.0
C2617 C 0.40568 0.90606 0.51304 0.0
C2618 C 0.40074 0.92807 0.51922 0.0
C2619 C 0.41747 0.94433 0.51981 0.0
H2620 H 0.14871 0.33716 0.53984 0.0
H2621 H 0.18225 0.37655 0.49 0.0
H2622 H 0.11843 0.36436 0.54084 0.0
H2623 H 0.15218 0.40352 0.49093 0.0
H2624 H 0.10942 0.46013 0.51632 0.0
H2625 H 0.138 0.43163 0.51557 0.0
H2626 H 0.0876 0.3807 0.51994 0.0
H2627 H 0.05883 0.4093 0.5211 0.0
C2628 C 0.14951 0.35145 0.5289 0.0
C2629 C 0.16811 0.35476 0.51506 0.0
C2630 C 0.13215 0.36708 0.52948 0.0
C2631 C 0.13295 0.38637 0.51619 0.0
C2632 C 0.1512 0.38922 0.50183 0.0
C2633 C 0.16848 0.37368 0.50127 0.0
C2634 C 0.10431 0.44289 0.51719 0.0
C2635 C 0.08166 0.43716 0.51871 0.0
C2636 C 0.12078 0.42647 0.5166 0.0
C2637 C 0.11518 0.40377 0.51749 0.0
C2638 C 0.09258 0.39799 0.51937 0.0
C2639 C 0.07604 0.41445 0.51994 0.0
H2640 H 0.38617 0.18651 0.48815 0.0
H2641 H 0.34536 0.15377 0.53743 0.0
H2642 H 0.41195 0.15537 0.48874 0.0
H2643 H 0.37122 0.12246 0.53794 0.0
H2644 H 0.41314 0.06121 0.51689 0.0
H2645 H 0.38589 0.09133 0.51588 0.0
H2646 H 0.43919 0.13937 0.51357 0.0
H2647 H 0.46629 0.10956 0.51422 0.0
C2648 C 0.38274 0.17275 0.49925 0.0
C2649 C 0.36372 0.17285 0.51289 0.0
C2650 C 0.39756 0.15483 0.49957 0.0
C2651 C 0.39382 0.13642 0.51353 0.0
C2652 C 0.37455 0.13624 0.52683 0.0
C2653 C 0.3597 0.15423 0.52653 0.0
C2654 C 0.41908 0.07819 0.51618 0.0
C2655 C 0.44203 0.0828 0.51556 0.0
C2656 C 0.40341 0.09549 0.5157 0.0
C2657 C 0.4103 0.11783 0.51449 0.0
C2658 C 0.43322 0.12239 0.51409 0.0
C2659 C 0.44883 0.10519 0.51462 0.0
H2660 H 0.86549 0.34386 0.54144 0.0
H2661 H 0.83264 0.38585 0.49328 0.0
H2662 H 0.89747 0.36896 0.54148 0.0
H2663 H 0.86451 0.4108 0.49326 0.0
H2664 H 0.91111 0.46401 0.51879 0.0
H2665 H 0.88103 0.43728 0.51848 0.0
H2666 H 0.92853 0.38348 0.51902 0.0
H2667 H 0.95901 0.41043 0.51967 0.0
C2668 C 0.86519 0.35829 0.53067 0.0
C2669 C 0.84637 0.36295 0.51752 0.0
C2670 C 0.88354 0.37267 0.53068 0.0
C2671 C 0.8835 0.39204 0.51756 0.0
C2672 C 0.86492 0.39632 0.50397 0.0
C2673 C 0.84662 0.382 0.50397 0.0
C2674 C 0.91532 0.44652 0.51885 0.0
C2675 C 0.93764 0.43948 0.51914 0.0
C2676 C 0.89796 0.43113 0.51853 0.0
C2677 C 0.9023 0.40819 0.51846 0.0
C2678 C 0.92458 0.40104 0.51917 0.0
C2679 C 0.94207 0.4165 0.51947 0.0
H2680 H 0.15498 0.67618 0.48907 0.0
H2681 H 0.18579 0.63662 0.54055 0.0
H2682 H 0.12384 0.65011 0.48773 0.0
H2683 H 0.15482 0.61063 0.53914 0.0
H2684 H 0.11028 0.55551 0.51325 0.0
H2685 H 0.13997 0.58277 0.51433 0.0
H2686 H 0.09184 0.63569 0.50865 0.0
H2687 H 0.06186 0.60827 0.50722 0.0
C2688 C 0.15504 0.66208 0.50028 0.0
C2689 C 0.17309 0.65847 0.51479 0.0
C2690 C 0.13715 0.6471 0.49949 0.0
C2691 C 0.13685 0.62811 0.51318 0.0
C2692 C 0.15467 0.62479 0.52799 0.0
C2693 C 0.17249 0.63973 0.5288 0.0
C2694 C 0.10587 0.57292 0.51217 0.0
C2695 C 0.0835 0.57956 0.5102 0.0
C2696 C 0.123 0.58863 0.51295 0.0
C2697 C 0.11837 0.6115 0.51178 0.0
C2698 C 0.09606 0.61821 0.50945 0.0
C2699 C 0.07883 0.60245 0.50871 0.0
loop_
_geom_bond_atom_site_label_1
_geom_bond_atom_site_label_2
_geom_bond_distance
_geom_bond_site_symmetry_2
_ccdc_geom_bond_type
C0 C1 1.264 . S
C0 C5 1.479 . S
C0 C10 1.465 . S
C1 C0 1.264 . S
C1 C3 1.339 . S
C1 H28 0.931 . S
C2 C3 1.395 . S
C2 C4 1.320 . S
C3 C1 1.339 . S
C3 C2 1.395 . S
C3 H29 0.929 . S
C4 C2 1.320 . S
C4 C5 1.405 . S
C4 H30 0.930 1_655 S
C5 C0 1.479 . S
C5 C4 1.405 . S
C5 H31 0.931 . S
U6 O7 2.454 . S
U6 O8 2.458 . S
U6 C9 2.984 . S
U6 C10 2.847 . S
U6 C23 2.882 . S
U6 O24 2.441 . S
U6 O25 2.420 . S
U6 O26 2.455 . S
U6 O27 2.449 . S
O7 U6 2.454 . S
O7 C9 1.353 . S
O8 U6 2.458 . S
O8 C9 1.286 . S
C9 U6 2.984 . S
C9 O7 1.353 . S
C9 O8 1.286 . S
C9 C11 1.363 . S
C10 C0 1.465 . S
C10 U6 2.847 . S
C10 O24 1.249 . S
C10 O25 1.202 . S
C11 C9 1.363 . S
C11 C13 1.408 . S
C11 C16 1.344 . S
C12 C13 1.314 . S
C12 C15 1.458 1_655 S
C12 H32 0.931 . S
C13 C11 1.408 . S
C13 C12 1.314 . S
C13 H33 0.930 . S
C14 C15 1.476 . S
C14 C16 1.284 1_455 S
C14 H34 0.929 . S
C15 C12 1.458 1_455 S
C15 C14 1.476 . S
C16 C11 1.344 . S
C16 C14 1.284 1_655 S
C16 H35 0.929 1_655 S
C17 C20 1.424 . S
C17 C22 1.245 . S
C17 C23 1.428 . S
C18 C21 1.260 . S
C18 C22 1.477 . S
C18 H36 0.932 . S
C19 C20 1.384 . S
C19 C21 1.479 . S
C19 H37 0.929 . S
C20 C17 1.424 . S
C20 C19 1.384 . S
C20 H38 0.928 . S
C21 C18 1.260 . S
C21 C19 1.479 . S
C22 C17 1.245 . S
C22 C18 1.477 . S
C22 H39 0.932 . S
C23 U6 2.882 . S
C23 C17 1.428 . S
C23 O26 1.301 . S
C23 O27 1.282 . S
O24 U6 2.441 . S
O24 C10 1.249 . S
O25 U6 2.420 . S
O25 C10 1.202 . S
O26 U6 2.455 . S
O26 C23 1.301 . S
O27 U6 2.449 . S
O27 C23 1.282 . S
H28 C1 0.931 . S
H29 C3 0.929 . S
H30 C4 0.930 1_455 S
H31 C5 0.931 . S
H32 C12 0.931 . S
H33 C13 0.930 . S
H34 C14 0.929 . S
H35 C16 0.929 1_455 S
H36 C18 0.932 . S
H37 C19 0.929 . S
H38 C20 0.928 . S
H39 C22 0.932 . S
C40 C41 1.264 . S
C40 C45 1.479 . S
C40 C50 1.465 . S
C41 C40 1.264 . S
C41 C43 1.339 . S
C41 H68 0.931 . S
C42 C43 1.395 . S
C42 C44 1.320 . S
C43 C41 1.339 . S
C43 C42 1.395 . S
C43 H69 0.929 . S
C44 C42 1.320 . S
C44 C45 1.405 . S
C44 H70 0.928 1_545 S
C45 C40 1.479 . S
C45 C44 1.405 . S
C45 H71 0.931 . S
U46 O47 2.454 . S
U46 O48 2.458 . S
U46 C49 2.984 . S
U46 C50 2.847 . S
U46 C63 2.882 . S
U46 O64 2.441 . S
U46 O65 2.420 . S
U46 O66 2.455 . S
U46 O67 2.449 . S
O47 U46 2.454 . S
O47 C49 1.353 . S
O48 U46 2.458 . S
O48 C49 1.286 . S
C49 U46 2.984 . S
C49 O47 1.353 . S
C49 O48 1.286 . S
C49 C51 1.363 . S
C50 C40 1.465 . S
C50 U46 2.847 . S
C50 O64 1.249 . S
C50 O65 1.202 . S
C51 C49 1.363 . S
C51 C53 1.408 . S
C51 C56 1.342 . S
C52 C53 1.310 . S
C52 C55 1.464 . S
C52 H72 0.932 . S
C53 C51 1.408 . S
C53 C52 1.310 . S
C53 H73 0.930 . S
C54 C55 1.474 . S
C54 C56 1.287 . S
C54 H74 0.928 1_545 S
C55 C52 1.464 . S
C55 C54 1.474 . S
C56 C51 1.342 . S
C56 C54 1.287 . S
C56 H75 0.930 . S
C57 C60 1.424 . S
C57 C62 1.245 . S
C57 C63 1.428 . S
C58 C61 1.260 . S
C58 C62 1.477 . S
C58 H76 0.932 . S
C59 C60 1.384 . S
C59 C61 1.479 . S
C59 H77 0.929 . S
C60 C57 1.424 . S
C60 C59 1.384 . S
C60 H78 0.928 . S
C61 C58 1.260 . S
C61 C59 1.479 . S
C62 C57 1.245 . S
C62 C58 1.477 . S
C62 H79 0.932 . S
C63 U46 2.882 . S
C63 C57 1.428 . S
C63 O66 1.301 . S
C63 O67 1.282 . S
O64 U46 2.441 . S
O64 C50 1.249 . S
O65 U46 2.420 . S
O65 C50 1.202 . S
O66 U46 2.455 . S
O66 C63 1.301 . S
O67 U46 2.449 . S
O67 C63 1.282 . S
H68 C41 0.931 . S
H69 C43 0.929 . S
H70 C44 0.928 1_565 S
H71 C45 0.931 . S
H72 C52 0.932 . S
H73 C53 0.930 . S
H74 C54 0.928 1_565 S
H75 C56 0.930 . S
H76 C58 0.932 . S
H77 C59 0.929 . S
H78 C60 0.928 . S
H79 C62 0.932 . S
C80 C81 1.264 . S
C80 C85 1.479 . S
C80 C90 1.465 . S
C81 C80 1.264 . S
C81 C83 1.339 . S
C81 H108 0.931 . S
C82 C83 1.395 . S
C82 C84 1.320 . S
C83 C81 1.339 . S
C83 C82 1.395 . S
C83 H109 0.929 . S
C84 C82 1.320 . S
C84 C85 1.405 . S
C84 H110 0.930 1_655 S
C85 C80 1.479 . S
C85 C84 1.405 . S
C85 H111 0.931 . S
U86 O87 2.454 . S
U86 O88 2.458 . S
U86 C89 2.984 . S
U86 C90 2.847 . S
U86 C103 2.882 . S
U86 O104 2.441 . S
U86 O105 2.420 . S
U86 O106 2.455 . S
U86 O107 2.449 . S
O87 U86 2.454 . S
O87 C89 1.353 . S
O88 U86 2.458 . S
O88 C89 1.286 . S
C89 U86 2.984 . S
C89 O87 1.353 . S
C89 O88 1.286 . S
C89 C91 1.363 . S
C90 C80 1.465 . S
C90 U86 2.847 . S
C90 O104 1.249 . S
C90 O105 1.202 . S
C91 C89 1.363 . S
C91 C93 1.408 . S
C91 C96 1.346 . S
C92 C93 1.315 . S
C92 C95 1.458 1_655 S
C92 H112 0.931 . S
C93 C91 1.408 . S
C93 C92 1.315 . S
C93 H113 0.930 . S
C94 C95 1.475 . S
C94 C96 1.284 1_455 S
C94 H114 0.929 . S
C95 C92 1.458 1_455 S
C95 C94 1.475 . S
C96 C91 1.346 . S
C96 C94 1.284 1_655 S
C96 H115 0.929 1_655 S
C97 C100 1.424 . S
C97 C102 1.245 . S
C97 C103 1.428 . S
C98 C101 1.260 . S
C98 C102 1.477 . S
C98 H116 0.932 . S
C99 C100 1.384 . S
C99 C101 1.479 . S
C99 H117 0.929 . S
C100 C97 1.424 . S
C100 C99 1.384 . S
C100 H118 0.928 . S
C101 C98 1.260 . S
C101 C99 1.479 . S
C102 C97 1.245 . S
C102 C98 1.477 . S
C102 H119 0.932 . S
C103 U86 2.882 . S
C103 C97 1.428 . S
C103 O106 1.301 . S
C103 O107 1.282 . S
O104 U86 2.441 . S
O104 C90 1.249 . S
O105 U86 2.420 . S
O105 C90 1.202 . S
O106 U86 2.455 . S
O106 C103 1.301 . S
O107 U86 2.449 . S
O107 C103 1.282 . S
H108 C81 0.931 . S
H109 C83 0.929 . S
H110 C84 0.930 1_455 S
H111 C85 0.931 . S
H112 C92 0.931 . S
H113 C93 0.930 . S
H114 C94 0.929 . S
H115 C96 0.929 1_455 S
H116 C98 0.932 . S
H117 C99 0.929 . S
H118 C100 0.928 . S
H119 C102 0.932 . S
C120 C121 1.264 . S
C120 C125 1.479 . S
C120 C130 1.465 . S
C121 C120 1.264 . S
C121 C123 1.339 . S
C121 H148 0.931 . S
C122 C123 1.395 . S
C122 C124 1.320 . S
C123 C121 1.339 . S
C123 C122 1.395 . S
C123 H149 0.929 . S
C124 C122 1.320 . S
C124 C125 1.405 . S
C124 H150 0.930 1_565 S
C125 C120 1.479 . S
C125 C124 1.405 . S
C125 H151 0.931 . S
U126 O127 2.454 . S
U126 O128 2.458 . S
U126 C129 2.984 . S
U126 C130 2.847 . S
U126 C143 2.882 . S
U126 O144 2.441 . S
U126 O145 2.420 . S
U126 O146 2.455 . S
U126 O147 2.449 . S
O127 U126 2.454 . S
O127 C129 1.353 . S
O128 U126 2.458 . S
O128 C129 1.286 . S
C129 U126 2.984 . S
C129 O127 1.353 . S
C129 O128 1.286 . S
C129 C131 1.363 . S
C130 C120 1.465 . S
C130 U126 2.847 . S
C130 O144 1.249 . S
C130 O145 1.202 . S
C131 C129 1.363 . S
C131 C133 1.408 . S
C131 C136 1.349 . S
C132 C133 1.310 . S
C132 C135 1.460 1_565 S
C132 H152 0.934 . S
C133 C131 1.408 . S
C133 C132 1.310 . S
C133 H153 0.930 . S
C134 C135 1.474 . S
C134 C136 1.282 1_545 S
C134 H154 0.934 . S
C135 C132 1.460 1_545 S
C135 C134 1.474 . S
C136 C131 1.349 . S
C136 C134 1.282 1_565 S
C136 H155 0.929 . S
C137 C140 1.424 . S
C137 C142 1.245 . S
C137 C143 1.428 . S
C138 C141 1.260 . S
C138 C142 1.477 . S
C138 H156 0.932 . S
C139 C140 1.384 . S
C139 C141 1.479 . S
C139 H157 0.929 . S
C140 C137 1.424 . S
C140 C139 1.384 . S
C140 H158 0.928 . S
C141 C138 1.260 . S
C141 C139 1.479 . S
C142 C137 1.245 . S
C142 C138 1.477 . S
C142 H159 0.932 . S
C143 U126 2.882 . S
C143 C137 1.428 . S
C143 O146 1.301 . S
C143 O147 1.282 . S
O144 U126 2.441 . S
O144 C130 1.249 . S
O145 U126 2.420 . S
O145 C130 1.202 . S
O146 U126 2.455 . S
O146 C143 1.301 . S
O147 U126 2.449 . S
O147 C143 1.282 . S
H148 C121 0.931 . S
H149 C123 0.929 . S
H150 C124 0.930 1_545 S
H151 C125 0.931 . S
H152 C132 0.934 . S
H153 C133 0.930 . S
H154 C134 0.934 . S
H155 C136 0.929 . S
H156 C138 0.932 . S
H157 C139 0.929 . S
H158 C140 0.928 . S
H159 C142 0.932 . S
C160 C161 1.264 . S
C160 C165 1.479 . S
C160 C170 1.465 . S
C161 C160 1.264 . S
C161 C163 1.339 . S
C161 H188 0.931 . S
C162 C163 1.395 . S
C162 C164 1.320 . S
C163 C161 1.339 . S
C163 C162 1.395 . S
C163 H189 0.929 . S
C164 C162 1.320 . S
C164 C165 1.405 . S
C164 H190 0.930 1_655 S
C165 C160 1.479 . S
C165 C164 1.405 . S
C165 H191 0.931 . S
U166 O167 2.454 . S
U166 O168 2.458 . S
U166 C169 2.984 . S
U166 C170 2.847 . S
U166 C183 2.882 . S
U166 O184 2.441 . S
U166 O185 2.420 . S
U166 O186 2.455 . S
U166 O187 2.449 . S
O167 U166 2.454 . S
O167 C169 1.353 . S
O168 U166 2.458 . S
O168 C169 1.286 . S
C169 U166 2.984 . S
C169 O167 1.353 . S
C169 O168 1.286 . S
C169 C171 1.363 . S
C170 C160 1.465 . S
C170 U166 2.847 . S
C170 O184 1.249 . S
C170 O185 1.202 . S
C171 C169 1.363 . S
C171 C173 1.408 . S
C171 C176 1.344 . S
C172 C173 1.313 . S
C172 C175 1.458 1_655 S
C172 H192 0.931 . S
C173 C171 1.408 . S
C173 C172 1.313 . S
C173 H193 0.930 . S
C174 C175 1.476 . S
C174 C176 1.285 1_455 S
C174 H194 0.929 . S
C175 C172 1.458 1_455 S
C175 C174 1.476 . S
C176 C171 1.344 . S
C176 C174 1.285 1_655 S
C176 H195 0.929 1_655 S
C177 C180 1.424 . S
C177 C182 1.245 . S
C177 C183 1.428 . S
C178 C181 1.260 . S
C178 C182 1.477 . S
C178 H196 0.932 . S
C179 C180 1.384 . S
C179 C181 1.479 . S
C179 H197 0.929 . S
C180 C177 1.424 . S
C180 C179 1.384 . S
C180 H198 0.928 . S
C181 C178 1.260 . S
C181 C179 1.479 . S
C182 C177 1.245 . S
C182 C178 1.477 . S
C182 H199 0.932 . S
C183 U166 2.882 . S
C183 C177 1.428 . S
C183 O186 1.301 . S
C183 O187 1.282 . S
O184 U166 2.441 . S
O184 C170 1.249 . S
O185 U166 2.420 . S
O185 C170 1.202 . S
O186 U166 2.455 . S
O186 C183 1.301 . S
O187 U166 2.449 . S
O187 C183 1.282 . S
H188 C161 0.931 . S
H189 C163 0.929 . S
H190 C164 0.930 1_455 S
H191 C165 0.931 . S
H192 C172 0.931 . S
H193 C173 0.930 . S
H194 C174 0.929 . S
H195 C176 0.929 1_455 S
H196 C178 0.932 . S
H197 C179 0.929 . S
H198 C180 0.928 . S
H199 C182 0.932 . S
C200 C201 1.264 . S
C200 C205 1.479 . S
C200 C210 1.465 . S
C201 C200 1.264 . S
C201 C203 1.339 . S
C201 H228 0.931 . S
C202 C203 1.395 . S
C202 C204 1.320 . S
C203 C201 1.339 . S
C203 C202 1.395 . S
C203 H229 0.929 . S
C204 C202 1.320 . S
C204 C205 1.405 . S
C204 H230 0.930 1_545 S
C205 C200 1.479 . S
C205 C204 1.405 . S
C205 H231 0.931 . S
U206 O207 2.454 . S
U206 O208 2.458 . S
U206 C209 2.984 . S
U206 C210 2.847 . S
U206 C223 2.882 . S
U206 O224 2.441 . S
U206 O225 2.420 . S
U206 O226 2.455 . S
U206 O227 2.449 . S
O207 U206 2.454 . S
O207 C209 1.353 . S
O208 U206 2.458 . S
O208 C209 1.286 . S
C209 U206 2.984 . S
C209 O207 1.353 . S
C209 O208 1.286 . S
C209 C211 1.363 . S
C210 C200 1.465 . S
C210 U206 2.847 . S
C210 O224 1.249 . S
C210 O225 1.202 . S
C211 C209 1.363 . S
C211 C213 1.408 . S
C211 C216 1.342 . S
C212 C213 1.310 . S
C212 C215 1.465 . S
C212 H232 0.932 . S
C213 C211 1.408 . S
C213 C212 1.310 . S
C213 H233 0.930 . S
C214 C215 1.474 . S
C214 C216 1.288 . S
C214 H234 0.925 1_545 S
C215 C212 1.465 . S
C215 C214 1.474 . S
C216 C211 1.342 . S
C216 C214 1.288 . S
C216 H235 0.930 . S
C217 C220 1.424 . S
C217 C222 1.245 . S
C217 C223 1.428 . S
C218 C221 1.260 . S
C218 C222 1.477 . S
C218 H236 0.932 . S
C219 C220 1.384 . S
C219 C221 1.479 . S
C219 H237 0.929 . S
C220 C217 1.424 . S
C220 C219 1.384 . S
C220 H238 0.928 . S
C221 C218 1.260 . S
C221 C219 1.479 . S
C222 C217 1.245 . S
C222 C218 1.477 . S
C222 H239 0.932 . S
C223 U206 2.882 . S
C223 C217 1.428 . S
C223 O226 1.301 . S
C223 O227 1.282 . S
O224 U206 2.441 . S
O224 C210 1.249 . S
O225 U206 2.420 . S
O225 C210 1.202 . S
O226 U206 2.455 . S
O226 C223 1.301 . S
O227 U206 2.449 . S
O227 C223 1.282 . S
H228 C201 0.931 . S
H229 C203 0.929 . S
H230 C204 0.930 1_565 S
H231 C205 0.931 . S
H232 C212 0.932 . S
H233 C213 0.930 . S
H234 C214 0.925 1_565 S
H235 C216 0.930 . S
H236 C218 0.932 . S
H237 C219 0.929 . S
H238 C220 0.928 . S
H239 C222 0.932 . S
C240 C241 1.264 . S
C240 C245 1.479 . S
C240 C250 1.465 . S
C241 C240 1.264 . S
C241 C243 1.339 . S
C241 H268 0.931 . S
C242 C243 1.395 . S
C242 C244 1.320 . S
C243 C241 1.339 . S
C243 C242 1.395 . S
C243 H269 0.929 . S
C244 C242 1.320 . S
C244 C245 1.405 . S
C244 H270 0.930 1_655 S
C245 C240 1.479 . S
C245 C244 1.405 . S
C245 H271 0.931 . S
U246 O247 2.454 . S
U246 O248 2.458 . S
U246 C249 2.984 . S
U246 C250 2.847 . S
U246 C263 2.882 . S
U246 O264 2.441 . S
U246 O265 2.420 . S
U246 O266 2.455 . S
U246 O267 2.449 . S
O247 U246 2.454 . S
O247 C249 1.353 . S
O248 U246 2.458 . S
O248 C249 1.286 . S
C249 U246 2.984 . S
C249 O247 1.353 . S
C249 O248 1.286 . S
C249 C251 1.363 . S
C250 C240 1.465 . S
C250 U246 2.847 . S
C250 O264 1.249 . S
C250 O265 1.202 . S
C251 C249 1.363 . S
C251 C253 1.408 . S
C251 C256 1.345 . S
C252 C253 1.314 . S
C252 C255 1.458 1_655 S
C252 H272 0.931 . S
C253 C251 1.408 . S
C253 C252 1.314 . S
C253 H273 0.930 . S
C254 C255 1.475 . S
C254 C256 1.284 1_455 S
C254 H274 0.929 . S
C255 C252 1.458 1_455 S
C255 C254 1.475 . S
C256 C251 1.345 . S
C256 C254 1.284 1_655 S
C256 H275 0.929 1_655 S
C257 C260 1.424 . S
C257 C262 1.245 . S
C257 C263 1.428 . S
C258 C261 1.260 . S
C258 C262 1.477 . S
C258 H276 0.932 . S
C259 C260 1.384 . S
C259 C261 1.479 . S
C259 H277 0.929 . S
C260 C257 1.424 . S
C260 C259 1.384 . S
C260 H278 0.928 . S
C261 C258 1.260 . S
C261 C259 1.479 . S
C262 C257 1.245 . S
C262 C258 1.477 . S
C262 H279 0.932 . S
C263 U246 2.882 . S
C263 C257 1.428 . S
C263 O266 1.301 . S
C263 O267 1.282 . S
O264 U246 2.441 . S
O264 C250 1.249 . S
O265 U246 2.420 . S
O265 C250 1.202 . S
O266 U246 2.455 . S
O266 C263 1.301 . S
O267 U246 2.449 . S
O267 C263 1.282 . S
H268 C241 0.931 . S
H269 C243 0.929 . S
H270 C244 0.930 1_455 S
H271 C245 0.931 . S
H272 C252 0.931 . S
H273 C253 0.930 . S
H274 C254 0.929 . S
H275 C256 0.929 1_455 S
H276 C258 0.932 . S
H277 C259 0.929 . S
H278 C260 0.928 . S
H279 C262 0.932 . S
C280 C281 1.264 . S
C280 C285 1.479 . S
C280 C290 1.465 . S
C281 C280 1.264 . S
C281 C283 1.339 . S
C281 H308 0.931 . S
C282 C283 1.395 . S
C282 C284 1.320 . S
C283 C281 1.339 . S
C283 C282 1.395 . S
C283 H309 0.929 . S
C284 C282 1.320 . S
C284 C285 1.405 . S
C284 H310 0.929 . S
C285 C280 1.479 . S
C285 C284 1.405 . S
C285 H311 0.931 . S
U286 O287 2.454 . S
U286 O288 2.458 . S
U286 C289 2.984 . S
U286 C290 2.847 . S
U286 C303 2.882 . S
U286 O304 2.441 . S
U286 O305 2.420 . S
U286 O306 2.455 . S
U286 O307 2.449 . S
O287 U286 2.454 . S
O287 C289 1.353 . S
O288 U286 2.458 . S
O288 C289 1.286 . S
C289 U286 2.984 . S
C289 O287 1.353 . S
C289 O288 1.286 . S
C289 C291 1.363 . S
C290 C280 1.465 . S
C290 U286 2.847 . S
C290 O304 1.249 . S
C290 O305 1.202 . S
C291 C289 1.363 . S
C291 C293 1.408 . S
C291 C296 1.342 . S
C292 C293 1.310 . S
C292 C295 1.465 . S
C292 H312 0.932 . S
C293 C291 1.408 . S
C293 C292 1.310 . S
C293 H313 0.930 . S
C294 C295 1.474 . S
C294 C296 1.288 . S
C294 H314 0.925 1_545 S
C295 C292 1.465 . S
C295 C294 1.474 . S
C296 C291 1.342 . S
C296 C294 1.288 . S
C296 H315 0.930 . S
C297 C300 1.424 . S
C297 C302 1.245 . S
C297 C303 1.428 . S
C298 C301 1.260 . S
C298 C302 1.477 . S
C298 H316 0.932 . S
C299 C300 1.384 . S
C299 C301 1.479 . S
C299 H317 0.929 . S
C300 C297 1.424 . S
C300 C299 1.384 . S
C300 H318 0.928 . S
C301 C298 1.260 . S
C301 C299 1.479 . S
C302 C297 1.245 . S
C302 C298 1.477 . S
C302 H319 0.932 . S
C303 U286 2.882 . S
C303 C297 1.428 . S
C303 O306 1.301 . S
C303 O307 1.282 . S
O304 U286 2.441 . S
O304 C290 1.249 . S
O305 U286 2.420 . S
O305 C290 1.202 . S
O306 U286 2.455 . S
O306 C303 1.301 . S
O307 U286 2.449 . S
O307 C303 1.282 . S
H308 C281 0.931 . S
H309 C283 0.929 . S
H310 C284 0.929 . S
H311 C285 0.931 . S
H312 C292 0.932 . S
H313 C293 0.930 . S
H314 C294 0.925 1_565 S
H315 C296 0.930 . S
H316 C298 0.932 . S
H317 C299 0.929 . S
H318 C300 0.928 . S
H319 C302 0.932 . S
C320 C321 1.264 . S
C320 C325 1.479 . S
C320 C330 1.465 . S
C321 C320 1.264 . S
C321 C323 1.339 . S
C321 H348 0.931 . S
C322 C323 1.395 . S
C322 C324 1.320 . S
C323 C321 1.339 . S
C323 C322 1.395 . S
C323 H349 0.929 . S
C324 C322 1.320 . S
C324 C325 1.405 . S
C324 H350 0.931 1_554 S
C325 C320 1.479 . S
C325 C324 1.405 . S
C325 H351 0.931 . S
U326 O327 2.454 . S
U326 O328 2.458 . S
U326 C329 2.984 . S
U326 C330 2.847 . S
U326 C343 2.882 . S
U326 O344 2.441 . S
U326 O345 2.420 . S
U326 O346 2.455 . S
U326 O347 2.449 . S
O327 U326 2.454 . S
O327 C329 1.353 . S
O328 U326 2.458 . S
O328 C329 1.286 . S
C329 U326 2.984 . S
C329 O327 1.353 . S
C329 O328 1.286 . S
C329 C331 1.363 . S
C330 C320 1.465 . S
C330 U326 2.847 . S
C330 O344 1.249 . S
C330 O345 1.202 . S
C331 C329 1.363 . S
C331 C333 1.408 . S
C331 C336 1.342 . S
C332 C333 1.310 . S
C332 C335 1.465 . S
C332 H352 0.932 . S
C333 C331 1.408 . S
C333 C332 1.310 . S
C333 H353 0.930 . S
C334 C335 1.474 . S
C334 C336 1.287 . S
C334 H354 0.928 1_554 S
C335 C332 1.465 . S
C335 C334 1.474 . S
C336 C331 1.342 . S
C336 C334 1.287 . S
C336 H355 0.930 . S
C337 C340 1.424 . S
C337 C342 1.245 . S
C337 C343 1.428 . S
C338 C341 1.260 . S
C338 C342 1.477 . S
C338 H356 0.932 . S
C339 C340 1.384 . S
C339 C341 1.479 . S
C339 H357 0.929 . S
C340 C337 1.424 . S
C340 C339 1.384 . S
C340 H358 0.928 . S
C341 C338 1.260 . S
C341 C339 1.479 . S
C342 C337 1.245 . S
C342 C338 1.477 . S
C342 H359 0.932 . S
C343 U326 2.882 . S
C343 C337 1.428 . S
C343 O346 1.301 . S
C343 O347 1.282 . S
O344 U326 2.441 . S
O344 C330 1.249 . S
O345 U326 2.420 . S
O345 C330 1.202 . S
O346 U326 2.455 . S
O346 C343 1.301 . S
O347 U326 2.449 . S
O347 C343 1.282 . S
H348 C321 0.931 . S
H349 C323 0.929 . S
H350 C324 0.931 1_556 S
H351 C325 0.931 . S
H352 C332 0.932 . S
H353 C333 0.930 . S
H354 C334 0.928 1_556 S
H355 C336 0.930 . S
H356 C338 0.932 . S
H357 C339 0.929 . S
H358 C340 0.928 . S
H359 C342 0.932 . S
C360 C361 1.264 . S
C360 C365 1.479 . S
C360 C370 1.465 . S
C361 C360 1.264 . S
C361 C363 1.339 . S
C361 H388 0.931 . S
C362 C363 1.395 . S
C362 C364 1.320 . S
C363 C361 1.339 . S
C363 C362 1.395 . S
C363 H389 0.929 . S
C364 C362 1.320 . S
C364 C365 1.405 . S
C364 H390 0.927 1_554 S
C365 C360 1.479 . S
C365 C364 1.405 . S
C365 H391 0.931 . S
U366 O367 2.454 . S
U366 O368 2.458 . S
U366 C369 2.984 . S
U366 C370 2.847 . S
U366 C383 2.882 . S
U366 O384 2.441 . S
U366 O385 2.420 . S
U366 O386 2.455 . S
U366 O387 2.449 . S
O367 U366 2.454 . S
O367 C369 1.353 . S
O368 U366 2.458 . S
O368 C369 1.286 . S
C369 U366 2.984 . S
C369 O367 1.353 . S
C369 O368 1.286 . S
C369 C371 1.363 . S
C370 C360 1.465 . S
C370 U366 2.847 . S
C370 O384 1.249 . S
C370 O385 1.202 . S
C371 C369 1.363 . S
C371 C373 1.408 . S
C371 C376 1.342 . S
C372 C373 1.310 . S
C372 C375 1.464 . S
C372 H392 0.932 . S
C373 C371 1.408 . S
C373 C372 1.310 . S
C373 H393 0.930 . S
C374 C375 1.474 . S
C374 C376 1.287 . S
C374 H394 0.928 1_554 S
C375 C372 1.464 . S
C375 C374 1.474 . S
C376 C371 1.342 . S
C376 C374 1.287 . S
C376 H395 0.930 . S
C377 C380 1.424 . S
C377 C382 1.245 . S
C377 C383 1.428 . S
C378 C381 1.260 . S
C378 C382 1.477 . S
C378 H396 0.932 . S
C379 C380 1.384 . S
C379 C381 1.479 . S
C379 H397 0.929 . S
C380 C377 1.424 . S
C380 C379 1.384 . S
C380 H398 0.928 . S
C381 C378 1.260 . S
C381 C379 1.479 . S
C382 C377 1.245 . S
C382 C378 1.477 . S
C382 H399 0.932 . S
C383 U366 2.882 . S
C383 C377 1.428 . S
C383 O386 1.301 . S
C383 O387 1.282 . S
O384 U366 2.441 . S
O384 C370 1.249 . S
O385 U366 2.420 . S
O385 C370 1.202 . S
O386 U366 2.455 . S
O386 C383 1.301 . S
O387 U366 2.449 . S
O387 C383 1.282 . S
H388 C361 0.931 . S
H389 C363 0.929 . S
H390 C364 0.927 1_556 S
H391 C365 0.931 . S
H392 C372 0.932 . S
H393 C373 0.930 . S
H394 C374 0.928 1_556 S
H395 C376 0.930 . S
H396 C378 0.932 . S
H397 C379 0.929 . S
H398 C380 0.928 . S
H399 C382 0.932 . S
C400 C401 1.264 . S
C400 C405 1.479 . S
C400 C410 1.465 . S
C401 C400 1.264 . S
C401 C403 1.339 . S
C401 H428 0.931 . S
C402 C403 1.395 . S
C402 C404 1.320 . S
C403 C401 1.339 . S
C403 C402 1.395 . S
C403 H429 0.929 . S
C404 C402 1.320 . S
C404 C405 1.405 . S
C404 H430 0.928 1_554 S
C405 C400 1.479 . S
C405 C404 1.405 . S
C405 H431 0.931 . S
U406 O407 2.454 . S
U406 O408 2.458 . S
U406 C409 2.984 . S
U406 C410 2.847 . S
U406 C423 2.882 . S
U406 O424 2.441 . S
U406 O425 2.420 . S
U406 O426 2.455 . S
U406 O427 2.449 . S
O407 U406 2.454 . S
O407 C409 1.353 . S
O408 U406 2.458 . S
O408 C409 1.286 . S
C409 U406 2.984 . S
C409 O407 1.353 . S
C409 O408 1.286 . S
C409 C411 1.363 . S
C410 C400 1.465 . S
C410 U406 2.847 . S
C410 O424 1.249 . S
C410 O425 1.202 . S
C411 C409 1.363 . S
C411 C413 1.408 . S
C411 C416 1.342 . S
C412 C413 1.310 . S
C412 C415 1.465 . S
C412 H432 0.932 . S
C413 C411 1.408 . S
C413 C412 1.310 . S
C413 H433 0.930 . S
C414 C415 1.474 . S
C414 C416 1.287 . S
C414 H434 0.925 1_554 S
C415 C412 1.465 . S
C415 C414 1.474 . S
C416 C411 1.342 . S
C416 C414 1.287 . S
C416 H435 0.930 . S
C417 C420 1.424 . S
C417 C422 1.245 . S
C417 C423 1.428 . S
C418 C421 1.260 . S
C418 C422 1.477 . S
C418 H436 0.932 . S
C419 C420 1.384 . S
C419 C421 1.479 . S
C419 H437 0.929 . S
C420 C417 1.424 . S
C420 C419 1.384 . S
C420 H438 0.928 . S
C421 C418 1.260 . S
C421 C419 1.479 . S
C422 C417 1.245 . S
C422 C418 1.477 . S
C422 H439 0.932 . S
C423 U406 2.882 . S
C423 C417 1.428 . S
C423 O426 1.301 . S
C423 O427 1.282 . S
O424 U406 2.441 . S
O424 C410 1.249 . S
O425 U406 2.420 . S
O425 C410 1.202 . S
O426 U406 2.455 . S
O426 C423 1.301 . S
O427 U406 2.449 . S
O427 C423 1.282 . S
H428 C401 0.931 . S
H429 C403 0.929 . S
H430 C404 0.928 1_556 S
H431 C405 0.931 . S
H432 C412 0.932 . S
H433 C413 0.930 . S
H434 C414 0.925 1_556 S
H435 C416 0.930 . S
H436 C418 0.932 . S
H437 C419 0.929 . S
H438 C420 0.928 . S
H439 C422 0.932 . S
C440 C441 1.264 . S
C440 C445 1.479 . S
C440 C450 1.465 . S
C441 C440 1.264 . S
C441 C443 1.339 . S
C441 H468 0.931 . S
C442 C443 1.395 . S
C442 C444 1.320 . S
C443 C441 1.339 . S
C443 C442 1.395 . S
C443 H469 0.929 . S
C444 C442 1.320 . S
C444 C445 1.405 . S
C444 H470 0.927 1_554 S
C445 C440 1.479 . S
C445 C444 1.405 . S
C445 H471 0.931 . S
U446 O447 2.454 . S
U446 O448 2.458 . S
U446 C449 2.984 . S
U446 C450 2.847 . S
U446 C463 2.882 . S
U446 O464 2.441 . S
U446 O465 2.420 . S
U446 O466 2.455 . S
U446 O467 2.449 . S
O447 U446 2.454 . S
O447 C449 1.353 . S
O448 U446 2.458 . S
O448 C449 1.286 . S
C449 U446 2.984 . S
C449 O447 1.353 . S
C449 O448 1.286 . S
C449 C451 1.363 . S
C450 C440 1.465 . S
C450 U446 2.847 . S
C450 O464 1.249 . S
C450 O465 1.202 . S
C451 C449 1.363 . S
C451 C453 1.408 . S
C451 C456 1.342 . S
C452 C453 1.310 . S
C452 C455 1.463 . S
C452 H472 0.932 . S
C453 C451 1.408 . S
C453 C452 1.310 . S
C453 H473 0.930 . S
C454 C455 1.474 . S
C454 C456 1.286 . S
C454 H474 0.929 1_554 S
C455 C452 1.463 . S
C455 C454 1.474 . S
C456 C451 1.342 . S
C456 C454 1.286 . S
C456 H475 0.930 . S
C457 C460 1.424 . S
C457 C462 1.245 . S
C457 C463 1.428 . S
C458 C461 1.260 . S
C458 C462 1.477 . S
C458 H476 0.932 . S
C459 C460 1.384 . S
C459 C461 1.479 . S
C459 H477 0.929 . S
C460 C457 1.424 . S
C460 C459 1.384 . S
C460 H478 0.928 . S
C461 C458 1.260 . S
C461 C459 1.479 . S
C462 C457 1.245 . S
C462 C458 1.477 . S
C462 H479 0.932 . S
C463 U446 2.882 . S
C463 C457 1.428 . S
C463 O466 1.301 . S
C463 O467 1.282 . S
O464 U446 2.441 . S
O464 C450 1.249 . S
O465 U446 2.420 . S
O465 C450 1.202 . S
O466 U446 2.455 . S
O466 C463 1.301 . S
O467 U446 2.449 . S
O467 C463 1.282 . S
H468 C441 0.931 . S
H469 C443 0.929 . S
H470 C444 0.927 1_556 S
H471 C445 0.931 . S
H472 C452 0.932 . S
H473 C453 0.930 . S
H474 C454 0.929 1_556 S
H475 C456 0.930 . S
H476 C458 0.932 . S
H477 C459 0.929 . S
H478 C460 0.928 . S
H479 C462 0.932 . S
C480 C481 1.264 . S
C480 C485 1.479 . S
C480 C490 1.465 . S
C481 C480 1.264 . S
C481 C483 1.339 . S
C481 H508 0.931 . S
C482 C483 1.395 . S
C482 C484 1.320 . S
C483 C481 1.339 . S
C483 C482 1.395 . S
C483 H509 0.929 . S
C484 C482 1.320 . S
C484 C485 1.405 . S
C484 H510 0.930 . S
C485 C480 1.479 . S
C485 C484 1.405 . S
C485 H511 0.931 . S
U486 O487 2.454 . S
U486 O488 2.458 . S
U486 C489 2.984 . S
U486 C490 2.847 . S
U486 C503 2.882 . S
U486 O504 2.441 . S
U486 O505 2.420 . S
U486 O506 2.455 . S
U486 O507 2.449 . S
O487 U486 2.454 . S
O487 C489 1.353 . S
O488 U486 2.458 . S
O488 C489 1.286 . S
C489 U486 2.984 . S
C489 O487 1.353 . S
C489 O488 1.286 . S
C489 C491 1.363 . S
C490 C480 1.465 . S
C490 U486 2.847 . S
C490 O504 1.249 . S
C490 O505 1.202 . S
C491 C489 1.363 . S
C491 C493 1.408 . S
C491 C496 1.342 . S
C492 C493 1.310 . S
C492 C495 1.461 . S
C492 H512 0.932 . S
C493 C491 1.408 . S
C493 C492 1.310 . S
C493 H513 0.930 . S
C494 C495 1.474 . S
C494 C496 1.285 . S
C494 H514 0.929 . S
C495 C492 1.461 . S
C495 C494 1.474 . S
C496 C491 1.342 . S
C496 C494 1.285 . S
C496 H515 0.930 . S
C497 C500 1.424 . S
C497 C502 1.245 . S
C497 C503 1.428 . S
C498 C501 1.260 . S
C498 C502 1.477 . S
C498 H516 0.932 . S
C499 C500 1.384 . S
C499 C501 1.479 . S
C499 H517 0.929 . S
C500 C497 1.424 . S
C500 C499 1.384 . S
C500 H518 0.928 . S
C501 C498 1.260 . S
C501 C499 1.479 . S
C502 C497 1.245 . S
C502 C498 1.477 . S
C502 H519 0.932 . S
C503 U486 2.882 . S
C503 C497 1.428 . S
C503 O506 1.301 . S
C503 O507 1.282 . S
O504 U486 2.441 . S
O504 C490 1.249 . S
O505 U486 2.420 . S
O505 C490 1.202 . S
O506 U486 2.455 . S
O506 C503 1.301 . S
O507 U486 2.449 . S
O507 C503 1.282 . S
H508 C481 0.931 . S
H509 C483 0.929 . S
H510 C484 0.930 . S
H511 C485 0.931 . S
H512 C492 0.932 . S
H513 C493 0.930 . S
H514 C494 0.929 . S
H515 C496 0.930 . S
H516 C498 0.932 . S
H517 C499 0.929 . S
H518 C500 0.928 . S
H519 C502 0.932 . S
C520 C521 1.264 . S
C520 C525 1.479 . S
C520 C530 1.465 . S
C521 C520 1.264 . S
C521 C523 1.339 . S
C521 H548 0.931 . S
C522 C523 1.395 . S
C522 C524 1.320 . S
C523 C521 1.339 . S
C523 C522 1.395 . S
C523 H549 0.929 . S
C524 C522 1.320 . S
C524 C525 1.405 . S
C524 H550 0.930 . S
C525 C520 1.479 . S
C525 C524 1.405 . S
C525 H551 0.931 . S
U526 O527 2.454 . S
U526 O528 2.458 . S
U526 C529 2.984 . S
U526 C530 2.847 . S
U526 C543 2.882 . S
U526 O544 2.441 . S
U526 O545 2.420 . S
U526 O546 2.455 . S
U526 O547 2.449 . S
O527 U526 2.454 . S
O527 C529 1.353 . S
O528 U526 2.458 . S
O528 C529 1.286 . S
C529 U526 2.984 . S
C529 O527 1.353 . S
C529 O528 1.286 . S
C529 C531 1.363 . S
C530 C520 1.465 . S
C530 U526 2.847 . S
C530 O544 1.249 . S
C530 O545 1.202 . S
C531 C529 1.363 . S
C531 C533 1.408 . S
C531 C536 1.342 . S
C532 C533 1.310 . S
C532 C535 1.461 . S
C532 H552 0.932 . S
C533 C531 1.408 . S
C533 C532 1.310 . S
C533 H553 0.930 . S
C534 C535 1.474 . S
C534 C536 1.285 . S
C534 H554 0.929 . S
C535 C532 1.461 . S
C535 C534 1.474 . S
C536 C531 1.342 . S
C536 C534 1.285 . S
C536 H555 0.930 . S
C537 C540 1.424 . S
C537 C542 1.245 . S
C537 C543 1.428 . S
C538 C541 1.260 . S
C538 C542 1.477 . S
C538 H556 0.932 . S
C539 C540 1.384 . S
C539 C541 1.479 . S
C539 H557 0.929 . S
C540 C537 1.424 . S
C540 C539 1.384 . S
C540 H558 0.928 . S
C541 C538 1.260 . S
C541 C539 1.479 . S
C542 C537 1.245 . S
C542 C538 1.477 . S
C542 H559 0.932 . S
C543 U526 2.882 . S
C543 C537 1.428 . S
C543 O546 1.301 . S
C543 O547 1.282 . S
O544 U526 2.441 . S
O544 C530 1.249 . S
O545 U526 2.420 . S
O545 C530 1.202 . S
O546 U526 2.455 . S
O546 C543 1.301 . S
O547 U526 2.449 . S
O547 C543 1.282 . S
H548 C521 0.931 . S
H549 C523 0.929 . S
H550 C524 0.930 . S
H551 C525 0.931 . S
H552 C532 0.932 . S
H553 C533 0.930 . S
H554 C534 0.929 . S
H555 C536 0.930 . S
H556 C538 0.932 . S
H557 C539 0.929 . S
H558 C540 0.928 . S
H559 C542 0.932 . S
C560 C561 1.264 . S
C560 C565 1.479 . S
C560 C570 1.465 . S
C561 C560 1.264 . S
C561 C563 1.339 . S
C561 H588 0.931 . S
C562 C563 1.395 . S
C562 C564 1.320 . S
C563 C561 1.339 . S
C563 C562 1.395 . S
C563 H589 0.929 . S
C564 C562 1.320 . S
C564 C565 1.405 . S
C564 H590 0.930 . S
C565 C560 1.479 . S
C565 C564 1.405 . S
C565 H591 0.931 . S
U566 O567 2.454 . S
U566 O568 2.458 . S
U566 C569 2.984 . S
U566 C570 2.847 . S
U566 C583 2.882 . S
U566 O584 2.441 . S
U566 O585 2.420 . S
U566 O586 2.455 . S
U566 O587 2.449 . S
O567 U566 2.454 . S
O567 C569 1.353 . S
O568 U566 2.458 . S
O568 C569 1.286 . S
C569 U566 2.984 . S
C569 O567 1.353 . S
C569 O568 1.286 . S
C569 C571 1.363 . S
C570 C560 1.465 . S
C570 U566 2.847 . S
C570 O584 1.249 . S
C570 O585 1.202 . S
C571 C569 1.363 . S
C571 C573 1.408 . S
C571 C576 1.342 . S
C572 C573 1.310 . S
C572 C575 1.461 . S
C572 H592 0.932 . S
C573 C571 1.408 . S
C573 C572 1.310 . S
C573 H593 0.930 . S
C574 C575 1.474 . S
C574 C576 1.285 . S
C574 H594 0.929 . S
C575 C572 1.461 . S
C575 C574 1.474 . S
C576 C571 1.342 . S
C576 C574 1.285 . S
C576 H595 0.930 . S
C577 C580 1.424 . S
C577 C582 1.245 . S
C577 C583 1.428 . S
C578 C581 1.260 . S
C578 C582 1.477 . S
C578 H596 0.932 . S
C579 C580 1.384 . S
C579 C581 1.479 . S
C579 H597 0.929 . S
C580 C577 1.424 . S
C580 C579 1.384 . S
C580 H598 0.928 . S
C581 C578 1.260 . S
C581 C579 1.479 . S
C582 C577 1.245 . S
C582 C578 1.477 . S
C582 H599 0.932 . S
C583 U566 2.882 . S
C583 C577 1.428 . S
C583 O586 1.301 . S
C583 O587 1.282 . S
O584 U566 2.441 . S
O584 C570 1.249 . S
O585 U566 2.420 . S
O585 C570 1.202 . S
O586 U566 2.455 . S
O586 C583 1.301 . S
O587 U566 2.449 . S
O587 C583 1.282 . S
H588 C561 0.931 . S
H589 C563 0.929 . S
H590 C564 0.930 . S
H591 C565 0.931 . S
H592 C572 0.932 . S
H593 C573 0.930 . S
H594 C574 0.929 . S
H595 C576 0.930 . S
H596 C578 0.932 . S
H597 C579 0.929 . S
H598 C580 0.928 . S
H599 C582 0.932 . S
C600 C601 1.264 . S
C600 C605 1.479 . S
C600 C610 1.465 . S
C601 C600 1.264 . S
C601 C603 1.339 . S
C601 H628 0.931 . S
C602 C603 1.395 . S
C602 C604 1.320 . S
C603 C601 1.339 . S
C603 C602 1.395 . S
C603 H629 0.929 . S
C604 C602 1.320 . S
C604 C605 1.405 . S
C604 H630 0.930 . S
C605 C600 1.479 . S
C605 C604 1.405 . S
C605 H631 0.931 . S
U606 O607 2.454 . S
U606 O608 2.458 . S
U606 C609 2.984 . S
U606 C610 2.847 . S
U606 C623 2.882 . S
U606 O624 2.441 . S
U606 O625 2.420 . S
U606 O626 2.455 . S
U606 O627 2.449 . S
O607 U606 2.454 . S
O607 C609 1.353 . S
O608 U606 2.458 . S
O608 C609 1.286 . S
C609 U606 2.984 . S
C609 O607 1.353 . S
C609 O608 1.286 . S
C609 C611 1.363 . S
C610 C600 1.465 . S
C610 U606 2.847 . S
C610 O624 1.249 . S
C610 O625 1.202 . S
C611 C609 1.363 . S
C611 C613 1.408 . S
C611 C616 1.342 . S
C612 C613 1.310 . S
C612 C615 1.461 . S
C612 H632 0.932 . S
C613 C611 1.408 . S
C613 C612 1.310 . S
C613 H633 0.930 . S
C614 C615 1.474 . S
C614 C616 1.285 . S
C614 H634 0.929 . S
C615 C612 1.461 . S
C615 C614 1.474 . S
C616 C611 1.342 . S
C616 C614 1.285 . S
C616 H635 0.930 . S
C617 C620 1.424 . S
C617 C622 1.245 . S
C617 C623 1.428 . S
C618 C621 1.260 . S
C618 C622 1.477 . S
C618 H636 0.932 . S
C619 C620 1.384 . S
C619 C621 1.479 . S
C619 H637 0.929 . S
C620 C617 1.424 . S
C620 C619 1.384 . S
C620 H638 0.928 . S
C621 C618 1.260 . S
C621 C619 1.479 . S
C622 C617 1.245 . S
C622 C618 1.477 . S
C622 H639 0.932 . S
C623 U606 2.882 . S
C623 C617 1.428 . S
C623 O626 1.301 . S
C623 O627 1.282 . S
O624 U606 2.441 . S
O624 C610 1.249 . S
O625 U606 2.420 . S
O625 C610 1.202 . S
O626 U606 2.455 . S
O626 C623 1.301 . S
O627 U606 2.449 . S
O627 C623 1.282 . S
H628 C601 0.931 . S
H629 C603 0.929 . S
H630 C604 0.930 . S
H631 C605 0.931 . S
H632 C612 0.932 . S
H633 C613 0.930 . S
H634 C614 0.929 . S
H635 C616 0.930 . S
H636 C618 0.932 . S
H637 C619 0.929 . S
H638 C620 0.928 . S
H639 C622 0.932 . S
C640 C641 1.264 . S
C640 C645 1.479 . S
C640 C650 1.465 . S
C641 C640 1.264 . S
C641 C643 1.339 . S
C641 H668 0.931 . S
C642 C643 1.395 . S
C642 C644 1.320 . S
C643 C641 1.339 . S
C643 C642 1.395 . S
C643 H669 0.929 . S
C644 C642 1.320 . S
C644 C645 1.405 . S
C644 H670 0.930 . S
C645 C640 1.479 . S
C645 C644 1.405 . S
C645 H671 0.931 . S
U646 O647 2.454 . S
U646 O648 2.458 . S
U646 C649 2.984 . S
U646 C650 2.847 . S
U646 C663 2.882 . S
U646 O664 2.441 . S
U646 O665 2.420 . S
U646 O666 2.455 . S
U646 O667 2.449 . S
O647 U646 2.454 . S
O647 C649 1.353 . S
O648 U646 2.458 . S
O648 C649 1.286 . S
C649 U646 2.984 . S
C649 O647 1.353 . S
C649 O648 1.286 . S
C649 C651 1.363 . S
C650 C640 1.465 . S
C650 U646 2.847 . S
C650 O664 1.249 . S
C650 O665 1.202 . S
C651 C649 1.363 . S
C651 C653 1.408 . S
C651 C656 1.342 . S
C652 C653 1.310 . S
C652 C655 1.461 . S
C652 H672 0.932 . S
C653 C651 1.408 . S
C653 C652 1.310 . S
C653 H673 0.930 . S
C654 C655 1.474 . S
C654 C656 1.285 . S
C654 H674 0.929 . S
C655 C652 1.461 . S
C655 C654 1.474 . S
C656 C651 1.342 . S
C656 C654 1.285 . S
C656 H675 0.930 . S
C657 C660 1.424 . S
C657 C662 1.245 . S
C657 C663 1.428 . S
C658 C661 1.260 . S
C658 C662 1.477 . S
C658 H676 0.932 . S
C659 C660 1.384 . S
C659 C661 1.479 . S
C659 H677 0.929 . S
C660 C657 1.424 . S
C660 C659 1.384 . S
C660 H678 0.928 . S
C661 C658 1.260 . S
C661 C659 1.479 . S
C662 C657 1.245 . S
C662 C658 1.477 . S
C662 H679 0.932 . S
C663 U646 2.882 . S
C663 C657 1.428 . S
C663 O666 1.301 . S
C663 O667 1.282 . S
O664 U646 2.441 . S
O664 C650 1.249 . S
O665 U646 2.420 . S
O665 C650 1.202 . S
O666 U646 2.455 . S
O666 C663 1.301 . S
O667 U646 2.449 . S
O667 C663 1.282 . S
H668 C641 0.931 . S
H669 C643 0.929 . S
H670 C644 0.930 . S
H671 C645 0.931 . S
H672 C652 0.932 . S
H673 C653 0.930 . S
H674 C654 0.929 . S
H675 C656 0.930 . S
H676 C658 0.932 . S
H677 C659 0.929 . S
H678 C660 0.928 . S
H679 C662 0.932 . S
C680 C681 1.264 . S
C680 C685 1.479 . S
C680 C690 1.465 . S
C681 C680 1.264 . S
C681 C683 1.339 . S
C681 H708 0.931 . S
C682 C683 1.395 . S
C682 C684 1.320 . S
C683 C681 1.339 . S
C683 C682 1.395 . S
C683 H709 0.929 . S
C684 C682 1.320 . S
C684 C685 1.405 . S
C684 H710 0.930 . S
C685 C680 1.479 . S
C685 C684 1.405 . S
C685 H711 0.931 . S
U686 O687 2.454 . S
U686 O688 2.458 . S
U686 C689 2.984 . S
U686 C690 2.847 . S
U686 C703 2.882 . S
U686 O704 2.441 . S
U686 O705 2.420 . S
U686 O706 2.455 . S
U686 O707 2.449 . S
O687 U686 2.454 . S
O687 C689 1.353 . S
O688 U686 2.458 . S
O688 C689 1.286 . S
C689 U686 2.984 . S
C689 O687 1.353 . S
C689 O688 1.286 . S
C689 C691 1.363 . S
C690 C680 1.465 . S
C690 U686 2.847 . S
C690 O704 1.249 . S
C690 O705 1.202 . S
C691 C689 1.363 . S
C691 C693 1.408 . S
C691 C696 1.342 . S
C692 C693 1.310 . S
C692 C695 1.461 . S
C692 H712 0.932 . S
C693 C691 1.408 . S
C693 C692 1.310 . S
C693 H713 0.930 . S
C694 C695 1.474 . S
C694 C696 1.285 . S
C694 H714 0.929 . S
C695 C692 1.461 . S
C695 C694 1.474 . S
C696 C691 1.342 . S
C696 C694 1.285 . S
C696 H715 0.930 . S
C697 C700 1.424 . S
C697 C702 1.245 . S
C697 C703 1.428 . S
C698 C701 1.260 . S
C698 C702 1.477 . S
C698 H716 0.932 . S
C699 C700 1.384 . S
C699 C701 1.479 . S
C699 H717 0.929 . S
C700 C697 1.424 . S
C700 C699 1.384 . S
C700 H718 0.928 . S
C701 C698 1.260 . S
C701 C699 1.479 . S
C702 C697 1.245 . S
C702 C698 1.477 . S
C702 H719 0.932 . S
C703 U686 2.882 . S
C703 C697 1.428 . S
C703 O706 1.301 . S
C703 O707 1.282 . S
O704 U686 2.441 . S
O704 C690 1.249 . S
O705 U686 2.420 . S
O705 C690 1.202 . S
O706 U686 2.455 . S
O706 C703 1.301 . S
O707 U686 2.449 . S
O707 C703 1.282 . S
H708 C681 0.931 . S
H709 C683 0.929 . S
H710 C684 0.930 . S
H711 C685 0.931 . S
H712 C692 0.932 . S
H713 C693 0.930 . S
H714 C694 0.929 . S
H715 C696 0.930 . S
H716 C698 0.932 . S
H717 C699 0.929 . S
H718 C700 0.928 . S
H719 C702 0.932 . S
C720 C721 1.264 . S
C720 C725 1.479 . S
C720 C730 1.465 . S
C721 C720 1.264 . S
C721 C723 1.339 . S
C721 H748 0.931 . S
C722 C723 1.395 . S
C722 C724 1.320 . S
C723 C721 1.339 . S
C723 C722 1.395 . S
C723 H749 0.929 . S
C724 C722 1.320 . S
C724 C725 1.405 . S
C724 H750 0.930 . S
C725 C720 1.479 . S
C725 C724 1.405 . S
C725 H751 0.931 . S
U726 O727 2.454 . S
U726 O728 2.458 . S
U726 C729 2.984 . S
U726 C730 2.847 . S
U726 C743 2.882 . S
U726 O744 2.441 . S
U726 O745 2.420 . S
U726 O746 2.455 . S
U726 O747 2.449 . S
O727 U726 2.454 . S
O727 C729 1.353 . S
O728 U726 2.458 . S
O728 C729 1.286 . S
C729 U726 2.984 . S
C729 O727 1.353 . S
C729 O728 1.286 . S
C729 C731 1.363 . S
C730 C720 1.465 . S
C730 U726 2.847 . S
C730 O744 1.249 . S
C730 O745 1.202 . S
C731 C729 1.363 . S
C731 C733 1.408 . S
C731 C736 1.342 . S
C732 C733 1.310 . S
C732 C735 1.461 . S
C732 H752 0.932 . S
C733 C731 1.408 . S
C733 C732 1.310 . S
C733 H753 0.930 . S
C734 C735 1.474 . S
C734 C736 1.285 . S
C734 H754 0.929 . S
C735 C732 1.461 . S
C735 C734 1.474 . S
C736 C731 1.342 . S
C736 C734 1.285 . S
C736 H755 0.930 . S
C737 C740 1.424 . S
C737 C742 1.245 . S
C737 C743 1.428 . S
C738 C741 1.260 . S
C738 C742 1.477 . S
C738 H756 0.932 . S
C739 C740 1.384 . S
C739 C741 1.479 . S
C739 H757 0.929 . S
C740 C737 1.424 . S
C740 C739 1.384 . S
C740 H758 0.928 . S
C741 C738 1.260 . S
C741 C739 1.479 . S
C742 C737 1.245 . S
C742 C738 1.477 . S
C742 H759 0.932 . S
C743 U726 2.882 . S
C743 C737 1.428 . S
C743 O746 1.301 . S
C743 O747 1.282 . S
O744 U726 2.441 . S
O744 C730 1.249 . S
O745 U726 2.420 . S
O745 C730 1.202 . S
O746 U726 2.455 . S
O746 C743 1.301 . S
O747 U726 2.449 . S
O747 C743 1.282 . S
H748 C721 0.931 . S
H749 C723 0.929 . S
H750 C724 0.930 . S
H751 C725 0.931 . S
H752 C732 0.932 . S
H753 C733 0.930 . S
H754 C734 0.929 . S
H755 C736 0.930 . S
H756 C738 0.932 . S
H757 C739 0.929 . S
H758 C740 0.928 . S
H759 C742 0.932 . S
C760 C761 1.264 . S
C760 C765 1.479 . S
C760 C770 1.465 . S
C761 C760 1.264 . S
C761 C763 1.339 . S
C761 H788 0.931 . S
C762 C763 1.395 . S
C762 C764 1.320 . S
C763 C761 1.339 . S
C763 C762 1.395 . S
C763 H789 0.929 . S
C764 C762 1.320 . S
C764 C765 1.405 . S
C764 H790 0.930 . S
C765 C760 1.479 . S
C765 C764 1.405 . S
C765 H791 0.931 . S
U766 O767 2.454 . S
U766 O768 2.458 . S
U766 C769 2.984 . S
U766 C770 2.847 . S
U766 C783 2.882 . S
U766 O784 2.441 . S
U766 O785 2.420 . S
U766 O786 2.455 . S
U766 O787 2.449 . S
O767 U766 2.454 . S
O767 C769 1.353 . S
O768 U766 2.458 . S
O768 C769 1.286 . S
C769 U766 2.984 . S
C769 O767 1.353 . S
C769 O768 1.286 . S
C769 C771 1.363 . S
C770 C760 1.465 . S
C770 U766 2.847 . S
C770 O784 1.249 . S
C770 O785 1.202 . S
C771 C769 1.363 . S
C771 C773 1.408 . S
C771 C776 1.342 . S
C772 C773 1.310 . S
C772 C775 1.461 . S
C772 H792 0.932 . S
C773 C771 1.408 . S
C773 C772 1.310 . S
C773 H793 0.930 . S
C774 C775 1.474 . S
C774 C776 1.285 . S
C774 H794 0.929 . S
C775 C772 1.461 . S
C775 C774 1.474 . S
C776 C771 1.342 . S
C776 C774 1.285 . S
C776 H795 0.930 . S
C777 C780 1.424 . S
C777 C782 1.245 . S
C777 C783 1.428 . S
C778 C781 1.260 . S
C778 C782 1.477 . S
C778 H796 0.932 . S
C779 C780 1.384 . S
C779 C781 1.479 . S
C779 H797 0.929 . S
C780 C777 1.424 . S
C780 C779 1.384 . S
C780 H798 0.928 . S
C781 C778 1.260 . S
C781 C779 1.479 . S
C782 C777 1.245 . S
C782 C778 1.477 . S
C782 H799 0.932 . S
C783 U766 2.882 . S
C783 C777 1.428 . S
C783 O786 1.301 . S
C783 O787 1.282 . S
O784 U766 2.441 . S
O784 C770 1.249 . S
O785 U766 2.420 . S
O785 C770 1.202 . S
O786 U766 2.455 . S
O786 C783 1.301 . S
O787 U766 2.449 . S
O787 C783 1.282 . S
H788 C761 0.931 . S
H789 C763 0.929 . S
H790 C764 0.930 . S
H791 C765 0.931 . S
H792 C772 0.932 . S
H793 C773 0.930 . S
H794 C774 0.929 . S
H795 C776 0.930 . S
H796 C778 0.932 . S
H797 C779 0.929 . S
H798 C780 0.928 . S
H799 C782 0.932 . S
C800 C801 1.264 . S
C800 C805 1.479 . S
C800 C810 1.465 . S
C801 C800 1.264 . S
C801 C803 1.339 . S
C801 H828 0.931 . S
C802 C803 1.395 . S
C802 C804 1.320 . S
C803 C801 1.339 . S
C803 C802 1.395 . S
C803 H829 0.929 . S
C804 C802 1.320 . S
C804 C805 1.405 . S
C804 H830 0.930 . S
C805 C800 1.479 . S
C805 C804 1.405 . S
C805 H831 0.931 . S
U806 O807 2.454 . S
U806 O808 2.458 . S
U806 C809 2.984 . S
U806 C810 2.847 . S
U806 C823 2.882 . S
U806 O824 2.441 . S
U806 O825 2.420 . S
U806 O826 2.455 . S
U806 O827 2.449 . S
O807 U806 2.454 . S
O807 C809 1.353 . S
O808 U806 2.458 . S
O808 C809 1.286 . S
C809 U806 2.984 . S
C809 O807 1.353 . S
C809 O808 1.286 . S
C809 C811 1.363 . S
C810 C800 1.465 . S
C810 U806 2.847 . S
C810 O824 1.249 . S
C810 O825 1.202 . S
C811 C809 1.363 . S
C811 C813 1.408 . S
C811 C816 1.342 . S
C812 C813 1.310 . S
C812 C815 1.461 . S
C812 H832 0.932 . S
C813 C811 1.408 . S
C813 C812 1.310 . S
C813 H833 0.930 . S
C814 C815 1.474 . S
C814 C816 1.285 . S
C814 H834 0.929 . S
C815 C812 1.461 . S
C815 C814 1.474 . S
C816 C811 1.342 . S
C816 C814 1.285 . S
C816 H835 0.930 . S
C817 C820 1.424 . S
C817 C822 1.245 . S
C817 C823 1.428 . S
C818 C821 1.260 . S
C818 C822 1.477 . S
C818 H836 0.932 . S
C819 C820 1.384 . S
C819 C821 1.479 . S
C819 H837 0.929 . S
C820 C817 1.424 . S
C820 C819 1.384 . S
C820 H838 0.928 . S
C821 C818 1.260 . S
C821 C819 1.479 . S
C822 C817 1.245 . S
C822 C818 1.477 . S
C822 H839 0.932 . S
C823 U806 2.882 . S
C823 C817 1.428 . S
C823 O826 1.301 . S
C823 O827 1.282 . S
O824 U806 2.441 . S
O824 C810 1.249 . S
O825 U806 2.420 . S
O825 C810 1.202 . S
O826 U806 2.455 . S
O826 C823 1.301 . S
O827 U806 2.449 . S
O827 C823 1.282 . S
H828 C801 0.931 . S
H829 C803 0.929 . S
H830 C804 0.930 . S
H831 C805 0.931 . S
H832 C812 0.932 . S
H833 C813 0.930 . S
H834 C814 0.929 . S
H835 C816 0.930 . S
H836 C818 0.932 . S
H837 C819 0.929 . S
H838 C820 0.928 . S
H839 C822 0.932 . S
C840 C841 1.264 . S
C840 C845 1.479 . S
C840 C850 1.465 . S
C841 C840 1.264 . S
C841 C843 1.339 . S
C841 H868 0.931 . S
C842 C843 1.395 . S
C842 C844 1.320 . S
C843 C841 1.339 . S
C843 C842 1.395 . S
C843 H869 0.929 . S
C844 C842 1.320 . S
C844 C845 1.405 . S
C844 H870 0.930 . S
C845 C840 1.479 . S
C845 C844 1.405 . S
C845 H871 0.931 . S
U846 O847 2.454 . S
U846 O848 2.458 . S
U846 C849 2.984 . S
U846 C850 2.847 . S
U846 C863 2.882 . S
U846 O864 2.441 . S
U846 O865 2.420 . S
U846 O866 2.455 . S
U846 O867 2.449 . S
O847 U846 2.454 . S
O847 C849 1.353 . S
O848 U846 2.458 . S
O848 C849 1.286 . S
C849 U846 2.984 . S
C849 O847 1.353 . S
C849 O848 1.286 . S
C849 C851 1.363 . S
C850 C840 1.465 . S
C850 U846 2.847 . S
C850 O864 1.249 . S
C850 O865 1.202 . S
C851 C849 1.363 . S
C851 C853 1.408 . S
C851 C856 1.342 . S
C852 C853 1.310 . S
C852 C855 1.461 . S
C852 H872 0.932 . S
C853 C851 1.408 . S
C853 C852 1.310 . S
C853 H873 0.930 . S
C854 C855 1.474 . S
C854 C856 1.285 . S
C854 H874 0.929 . S
C855 C852 1.461 . S
C855 C854 1.474 . S
C856 C851 1.342 . S
C856 C854 1.285 . S
C856 H875 0.930 . S
C857 C860 1.424 . S
C857 C862 1.245 . S
C857 C863 1.428 . S
C858 C861 1.260 . S
C858 C862 1.477 . S
C858 H876 0.932 . S
C859 C860 1.384 . S
C859 C861 1.479 . S
C859 H877 0.929 . S
C860 C857 1.424 . S
C860 C859 1.384 . S
C860 H878 0.928 . S
C861 C858 1.260 . S
C861 C859 1.479 . S
C862 C857 1.245 . S
C862 C858 1.477 . S
C862 H879 0.932 . S
C863 U846 2.882 . S
C863 C857 1.428 . S
C863 O866 1.301 . S
C863 O867 1.282 . S
O864 U846 2.441 . S
O864 C850 1.249 . S
O865 U846 2.420 . S
O865 C850 1.202 . S
O866 U846 2.455 . S
O866 C863 1.301 . S
O867 U846 2.449 . S
O867 C863 1.282 . S
H868 C841 0.931 . S
H869 C843 0.929 . S
H870 C844 0.930 . S
H871 C845 0.931 . S
H872 C852 0.932 . S
H873 C853 0.930 . S
H874 C854 0.929 . S
H875 C856 0.930 . S
H876 C858 0.932 . S
H877 C859 0.929 . S
H878 C860 0.928 . S
H879 C862 0.932 . S
C880 C881 1.264 . S
C880 C885 1.479 . S
C880 C890 1.465 . S
C881 C880 1.264 . S
C881 C883 1.339 . S
C881 H908 0.931 . S
C882 C883 1.395 . S
C882 C884 1.320 . S
C883 C881 1.339 . S
C883 C882 1.395 . S
C883 H909 0.929 . S
C884 C882 1.320 . S
C884 C885 1.405 . S
C884 H910 0.930 . S
C885 C880 1.479 . S
C885 C884 1.405 . S
C885 H911 0.931 . S
U886 O887 2.454 . S
U886 O888 2.458 . S
U886 C889 2.984 . S
U886 C890 2.847 . S
U886 C903 2.882 . S
U886 O904 2.441 . S
U886 O905 2.420 . S
U886 O906 2.455 . S
U886 O907 2.449 . S
O887 U886 2.454 . S
O887 C889 1.353 . S
O888 U886 2.458 . S
O888 C889 1.286 . S
C889 U886 2.984 . S
C889 O887 1.353 . S
C889 O888 1.286 . S
C889 C891 1.363 . S
C890 C880 1.465 . S
C890 U886 2.847 . S
C890 O904 1.249 . S
C890 O905 1.202 . S
C891 C889 1.363 . S
C891 C893 1.408 . S
C891 C896 1.342 . S
C892 C893 1.310 . S
C892 C895 1.461 . S
C892 H912 0.932 . S
C893 C891 1.408 . S
C893 C892 1.310 . S
C893 H913 0.930 . S
C894 C895 1.474 . S
C894 C896 1.285 . S
C894 H914 0.929 . S
C895 C892 1.461 . S
C895 C894 1.474 . S
C896 C891 1.342 . S
C896 C894 1.285 . S
C896 H915 0.930 . S
C897 C900 1.424 . S
C897 C902 1.245 . S
C897 C903 1.428 . S
C898 C901 1.260 . S
C898 C902 1.477 . S
C898 H916 0.932 . S
C899 C900 1.384 . S
C899 C901 1.479 . S
C899 H917 0.929 . S
C900 C897 1.424 . S
C900 C899 1.384 . S
C900 H918 0.928 . S
C901 C898 1.260 . S
C901 C899 1.479 . S
C902 C897 1.245 . S
C902 C898 1.477 . S
C902 H919 0.932 . S
C903 U886 2.882 . S
C903 C897 1.428 . S
C903 O906 1.301 . S
C903 O907 1.282 . S
O904 U886 2.441 . S
O904 C890 1.249 . S
O905 U886 2.420 . S
O905 C890 1.202 . S
O906 U886 2.455 . S
O906 C903 1.301 . S
O907 U886 2.449 . S
O907 C903 1.282 . S
H908 C881 0.931 . S
H909 C883 0.929 . S
H910 C884 0.930 . S
H911 C885 0.931 . S
H912 C892 0.932 . S
H913 C893 0.930 . S
H914 C894 0.929 . S
H915 C896 0.930 . S
H916 C898 0.932 . S
H917 C899 0.929 . S
H918 C900 0.928 . S
H919 C902 0.932 . S
C920 C921 1.264 . S
C920 C925 1.479 . S
C920 C930 1.465 . S
C921 C920 1.264 . S
C921 C923 1.339 . S
C921 H948 0.931 . S
C922 C923 1.395 . S
C922 C924 1.320 . S
C923 C921 1.339 . S
C923 C922 1.395 . S
C923 H949 0.929 . S
C924 C922 1.320 . S
C924 C925 1.405 . S
C924 H950 0.930 . S
C925 C920 1.479 . S
C925 C924 1.405 . S
C925 H951 0.931 . S
U926 O927 2.454 . S
U926 O928 2.458 . S
U926 C929 2.984 . S
U926 C930 2.847 . S
U926 C943 2.882 . S
U926 O944 2.441 . S
U926 O945 2.420 . S
U926 O946 2.455 . S
U926 O947 2.449 . S
O927 U926 2.454 . S
O927 C929 1.353 . S
O928 U926 2.458 . S
O928 C929 1.286 . S
C929 U926 2.984 . S
C929 O927 1.353 . S
C929 O928 1.286 . S
C929 C931 1.363 . S
C930 C920 1.465 . S
C930 U926 2.847 . S
C930 O944 1.249 . S
C930 O945 1.202 . S
C931 C929 1.363 . S
C931 C933 1.408 . S
C931 C936 1.342 . S
C932 C933 1.310 . S
C932 C935 1.461 . S
C932 H952 0.932 . S
C933 C931 1.408 . S
C933 C932 1.310 . S
C933 H953 0.930 . S
C934 C935 1.474 . S
C934 C936 1.285 . S
C934 H954 0.929 . S
C935 C932 1.461 . S
C935 C934 1.474 . S
C936 C931 1.342 . S
C936 C934 1.285 . S
C936 H955 0.930 . S
C937 C940 1.424 . S
C937 C942 1.245 . S
C937 C943 1.428 . S
C938 C941 1.260 . S
C938 C942 1.477 . S
C938 H956 0.932 . S
C939 C940 1.384 . S
C939 C941 1.479 . S
C939 H957 0.929 . S
C940 C937 1.424 . S
C940 C939 1.384 . S
C940 H958 0.928 . S
C941 C938 1.260 . S
C941 C939 1.479 . S
C942 C937 1.245 . S
C942 C938 1.477 . S
C942 H959 0.932 . S
C943 U926 2.882 . S
C943 C937 1.428 . S
C943 O946 1.301 . S
C943 O947 1.282 . S
O944 U926 2.441 . S
O944 C930 1.249 . S
O945 U926 2.420 . S
O945 C930 1.202 . S
O946 U926 2.455 . S
O946 C943 1.301 . S
O947 U926 2.449 . S
O947 C943 1.282 . S
H948 C921 0.931 . S
H949 C923 0.929 . S
H950 C924 0.930 . S
H951 C925 0.931 . S
H952 C932 0.932 . S
H953 C933 0.930 . S
H954 C934 0.929 . S
H955 C936 0.930 . S
H956 C938 0.932 . S
H957 C939 0.929 . S
H958 C940 0.928 . S
H959 C942 0.932 . S
C960 O986 1.283 . S
C960 O1004 1.283 . S
C961 O987 1.283 . S
C961 O1002 1.283 . S
C962 O988 1.283 . S
C962 O1005 1.283 . S
C963 O989 1.283 . S
C963 O1003 1.283 . S
C964 O990 1.283 . S
C964 O999 1.283 . S
C965 O991 1.283 . S
C965 O1001 1.283 . S
C966 O992 1.283 . S
C966 O998 1.283 . S
C967 O993 1.283 . S
C967 O1000 1.283 . S
C968 O994 1.283 . S
C968 O1009 1.283 . S
C969 O995 1.283 . S
C969 O1007 1.283 . S
C970 O996 1.283 . S
C970 O1008 1.283 . S
C971 O997 1.283 . S
C971 O1006 1.283 . S
Eu972 O973 2.370 1_455 S
Eu972 O974 2.370 . S
Eu972 O977 2.370 1_455 S
Eu972 O978 2.370 . S
Eu972 O986 2.363 . S
Eu972 O987 2.363 . S
Eu972 O1000 2.363 . S
Eu972 O1001 2.363 1_455 S
O973 Eu972 2.370 1_655 S
O973 Eu975 2.358 1_565 S
O973 Eu980 2.359 1_665 S
O974 Eu972 2.370 . S
O974 Eu976 2.359 1_565 S
O974 Eu979 2.358 1_565 S
Eu975 O973 2.358 1_545 S
Eu975 O977 2.358 1_545 S
Eu975 O981 2.383 . S
Eu975 O982 2.383 . S
Eu975 O990 2.384 . S
Eu975 O991 2.342 1_545 S
Eu975 O1006 2.363 . S
Eu975 O1007 2.363 . S
Eu976 O974 2.359 1_545 S
Eu976 O978 2.359 1_545 S
Eu976 O983 2.381 . S
Eu976 O984 2.381 . S
Eu976 O992 2.382 . S
Eu976 O993 2.344 1_545 S
Eu976 O1008 2.363 . S
Eu976 O1009 2.363 . S
O977 Eu972 2.370 1_655 S
O977 Eu975 2.358 1_565 S
O977 Eu979 2.358 1_665 S
O978 Eu972 2.370 . S
O978 Eu976 2.359 1_565 S
O978 Eu980 2.359 1_565 S
Eu979 O974 2.358 1_545 S
Eu979 O977 2.358 1_445 S
Eu979 O981 2.382 1_455 S
Eu979 O984 2.382 . S
Eu979 O996 2.363 . S
Eu979 O997 2.363 1_455 S
Eu979 O1004 2.342 1_545 S
Eu979 O1005 2.383 . S
Eu980 O973 2.359 1_445 S
Eu980 O978 2.359 1_545 S
Eu980 O982 2.382 1_455 S
Eu980 O983 2.382 . S
Eu980 O994 2.363 . S
Eu980 O995 2.363 1_455 S
Eu980 O1002 2.344 1_545 S
Eu980 O1003 2.382 . S
O981 Eu975 2.383 . S
O981 Eu979 2.382 1_655 S
O981 Eu985 2.370 1_655 S
O982 Eu975 2.383 . S
O982 Eu980 2.382 1_655 S
O982 Eu985 2.370 1_655 S
O983 Eu976 2.381 . S
O983 Eu980 2.382 . S
O983 Eu985 2.370 . S
O984 Eu976 2.381 . S
O984 Eu979 2.382 . S
O984 Eu985 2.370 . S
Eu985 O981 2.370 1_455 S
Eu985 O982 2.370 1_455 S
Eu985 O983 2.370 . S
Eu985 O984 2.370 . S
Eu985 O988 2.363 . S
Eu985 O989 2.363 . S
Eu985 O998 2.363 . S
Eu985 O999 2.363 1_455 S
O986 C960 1.283 . S
O986 Eu972 2.363 . S
O987 C961 1.283 . S
O987 Eu972 2.363 . S
O988 C962 1.283 . S
O988 Eu985 2.363 . S
O989 C963 1.283 . S
O989 Eu985 2.363 . S
O990 C964 1.283 . S
O990 Eu975 2.384 . S
O991 C965 1.283 . S
O991 Eu975 2.342 1_565 S
O992 C966 1.283 . S
O992 Eu976 2.382 . S
O993 C967 1.283 . S
O993 Eu976 2.344 1_565 S
O994 C968 1.283 . S
O994 Eu980 2.363 . S
O995 C969 1.283 . S
O995 Eu980 2.363 1_655 S
O996 C970 1.283 . S
O996 Eu979 2.363 . S
O997 C971 1.283 . S
O997 Eu979 2.363 1_655 S
O998 C966 1.283 . S
O998 Eu985 2.363 . S
O999 C964 1.283 . S
O999 Eu985 2.363 1_655 S
O1000 C967 1.283 . S
O1000 Eu972 2.363 . S
O1001 C965 1.283 . S
O1001 Eu972 2.363 1_655 S
O1002 C961 1.283 . S
O1002 Eu980 2.344 1_565 S
O1003 C963 1.283 . S
O1003 Eu980 2.382 . S
O1004 C960 1.283 . S
O1004 Eu979 2.342 1_565 S
O1005 C962 1.283 . S
O1005 Eu979 2.383 . S
O1006 C971 1.283 . S
O1006 Eu975 2.363 . S
O1007 C969 1.283 . S
O1007 Eu975 2.363 . S
O1008 C970 1.283 . S
O1008 Eu976 2.363 . S
O1009 C968 1.283 . S
O1009 Eu976 2.363 . S
C1010 O1036 1.283 . S
C1010 O1054 1.283 . S
C1011 O1037 1.283 . S
C1011 O1052 1.283 . S
C1012 O1038 1.283 . S
C1012 O1055 1.283 . S
C1013 O1039 1.283 . S
C1013 O1053 1.283 . S
C1014 O1040 1.283 . S
C1014 O1049 1.283 . S
C1015 O1041 1.283 . S
C1015 O1051 1.283 . S
C1016 O1042 1.283 . S
C1016 O1048 1.283 . S
C1017 O1043 1.283 . S
C1017 O1050 1.283 . S
C1018 O1044 1.283 . S
C1018 O1059 1.283 . S
C1019 O1045 1.283 . S
C1019 O1057 1.283 . S
C1020 O1046 1.283 . S
C1020 O1058 1.283 . S
C1021 O1047 1.283 . S
C1021 O1056 1.283 . S
Eu1022 O1023 2.389 . S
Eu1022 O1024 2.352 1_545 S
Eu1022 O1027 2.352 1_545 S
Eu1022 O1028 2.389 . S
Eu1022 O1036 2.332 1_545 S
Eu1022 O1037 2.394 . S
Eu1022 O1050 2.363 . S
Eu1022 O1051 2.363 . S
O1023 Eu1022 2.389 . S
O1023 Eu1025 2.397 . S
O1023 Eu1030 2.378 . S
O1024 Eu1022 2.352 1_565 S
O1024 Eu1026 2.358 1_565 S
O1024 Eu1029 2.375 . S
Eu1025 O1023 2.397 . S
Eu1025 O1027 2.357 1_545 S
Eu1025 O1031 2.343 1_544 S
Eu1025 O1032 2.384 1_554 S
Eu1025 O1040 2.352 1_554 S
Eu1025 O1041 2.374 . S
Eu1025 O1056 2.329 1_545 S
Eu1025 O1057 2.397 . S
Eu1026 O1024 2.358 1_545 S
Eu1026 O1028 2.397 . S
Eu1026 O1033 2.383 1_554 S
Eu1026 O1034 2.344 1_544 S
Eu1026 O1042 2.351 1_554 S
Eu1026 O1043 2.375 . S
Eu1026 O1058 2.330 1_545 S
Eu1026 O1059 2.396 . S
O1027 Eu1022 2.352 1_565 S
O1027 Eu1025 2.357 1_565 S
O1027 Eu1029 2.375 . S
O1028 Eu1022 2.389 . S
O1028 Eu1026 2.397 . S
O1028 Eu1030 2.378 . S
Eu1029 O1024 2.375 . S
Eu1029 O1027 2.375 . S
Eu1029 O1031 2.365 1_554 S
Eu1029 O1034 2.365 1_554 S
Eu1029 O1046 2.363 . S
Eu1029 O1047 2.363 . S
Eu1029 O1054 2.372 . S
Eu1029 O1055 2.354 1_554 S
Eu1030 O1023 2.378 . S
Eu1030 O1028 2.378 . S
Eu1030 O1032 2.362 1_554 S
Eu1030 O1033 2.362 1_554 S
Eu1030 O1044 2.363 . S
Eu1030 O1045 2.363 . S
Eu1030 O1052 2.377 . S
Eu1030 O1053 2.349 1_554 S
O1031 Eu1025 2.343 1_566 S
O1031 Eu1029 2.365 1_556 S
O1031 Eu1035 2.349 1_565 S
O1032 Eu1025 2.384 1_556 S
O1032 Eu1030 2.362 1_556 S
O1032 Eu1035 2.392 . S
O1033 Eu1026 2.383 1_556 S
O1033 Eu1030 2.362 1_556 S
O1033 Eu1035 2.392 . S
O1034 Eu1026 2.344 1_566 S
O1034 Eu1029 2.365 1_556 S
O1034 Eu1035 2.349 1_565 S
Eu1035 O1031 2.349 1_545 S
Eu1035 O1032 2.392 . S
Eu1035 O1033 2.392 . S
Eu1035 O1034 2.349 1_545 S
Eu1035 O1038 2.327 1_545 S
Eu1035 O1039 2.399 . S
Eu1035 O1048 2.363 . S
Eu1035 O1049 2.363 . S
O1036 C1010 1.283 . S
O1036 Eu1022 2.332 1_565 S
O1037 C1011 1.283 . S
O1037 Eu1022 2.394 . S
O1038 C1012 1.283 . S
O1038 Eu1035 2.327 1_565 S
O1039 C1013 1.283 . S
O1039 Eu1035 2.399 . S
O1040 C1014 1.283 . S
O1040 Eu1025 2.352 1_556 S
O1041 C1015 1.283 . S
O1041 Eu1025 2.374 . S
O1042 C1016 1.283 . S
O1042 Eu1026 2.351 1_556 S
O1043 C1017 1.283 . S
O1043 Eu1026 2.375 . S
O1044 C1018 1.283 . S
O1044 Eu1030 2.363 . S
O1045 C1019 1.283 . S
O1045 Eu1030 2.363 . S
O1046 C1020 1.283 . S
O1046 Eu1029 2.363 . S
O1047 C1021 1.283 . S
O1047 Eu1029 2.363 . S
O1048 C1016 1.283 . S
O1048 Eu1035 2.363 . S
O1049 C1014 1.283 . S
O1049 Eu1035 2.363 . S
O1050 C1017 1.283 . S
O1050 Eu1022 2.363 . S
O1051 C1015 1.283 . S
O1051 Eu1022 2.363 . S
O1052 C1011 1.283 . S
O1052 Eu1030 2.377 . S
O1053 C1013 1.283 . S
O1053 Eu1030 2.349 1_556 S
O1054 C1010 1.283 . S
O1054 Eu1029 2.372 . S
O1055 C1012 1.283 . S
O1055 Eu1029 2.354 1_556 S
O1056 C1021 1.283 . S
O1056 Eu1025 2.329 1_565 S
O1057 C1019 1.283 . S
O1057 Eu1025 2.397 . S
O1058 C1020 1.283 . S
O1058 Eu1026 2.330 1_565 S
O1059 C1018 1.283 . S
O1059 Eu1026 2.396 . S
C1060 O1086 1.283 . S
C1060 O1104 1.283 . S
C1061 O1087 1.283 . S
C1061 O1102 1.283 . S
C1062 O1088 1.283 . S
C1062 O1105 1.283 . S
C1063 O1089 1.283 . S
C1063 O1103 1.283 . S
C1064 O1090 1.283 . S
C1064 O1099 1.283 . S
C1065 O1091 1.283 . S
C1065 O1101 1.283 . S
C1066 O1092 1.283 . S
C1066 O1098 1.283 . S
C1067 O1093 1.283 . S
C1067 O1100 1.283 . S
C1068 O1094 1.283 . S
C1068 O1109 1.283 . S
C1069 O1095 1.283 . S
C1069 O1107 1.283 . S
C1070 O1096 1.283 . S
C1070 O1108 1.283 . S
C1071 O1097 1.283 . S
C1071 O1106 1.283 . S
Eu1072 O1073 2.327 1_454 S
Eu1072 O1074 2.414 . S
Eu1072 O1077 2.372 1_455 S
Eu1072 O1078 2.370 1_554 S
Eu1072 O1086 2.401 . S
Eu1072 O1087 2.325 1_554 S
Eu1072 O1100 2.399 . S
Eu1072 O1101 2.327 1_455 S
O1073 Eu1072 2.327 1_656 S
O1073 Eu1075 2.349 1_556 S
O1073 Eu1080 2.348 1_655 S
O1074 Eu1072 2.414 . S
O1074 Eu1076 2.393 . S
O1074 Eu1079 2.391 . S
Eu1075 O1073 2.349 1_554 S
Eu1075 O1077 2.392 . S
Eu1075 O1081 2.392 . S
Eu1075 O1082 2.349 1_554 S
Eu1075 O1090 2.363 . S
Eu1075 O1091 2.363 . S
Eu1075 O1106 2.399 . S
Eu1075 O1107 2.327 1_554 S
Eu1076 O1074 2.393 . S
Eu1076 O1078 2.348 1_554 S
Eu1076 O1083 2.348 1_554 S
Eu1076 O1084 2.393 . S
Eu1076 O1092 2.363 . S
Eu1076 O1093 2.363 . S
Eu1076 O1108 2.401 . S
Eu1076 O1109 2.325 1_554 S
O1077 Eu1072 2.372 1_655 S
O1077 Eu1075 2.392 . S
O1077 Eu1079 2.350 1_655 S
O1078 Eu1072 2.370 1_556 S
O1078 Eu1076 2.348 1_556 S
O1078 Eu1080 2.392 . S
Eu1079 O1074 2.391 . S
Eu1079 O1077 2.350 1_455 S
Eu1079 O1081 2.350 1_455 S
Eu1079 O1084 2.391 . S
Eu1079 O1096 2.397 . S
Eu1079 O1097 2.328 1_455 S
Eu1079 O1104 2.363 . S
Eu1079 O1105 2.363 . S
Eu1080 O1073 2.348 1_455 S
Eu1080 O1078 2.392 . S
Eu1080 O1082 2.348 1_455 S
Eu1080 O1083 2.392 . S
Eu1080 O1094 2.400 . S
Eu1080 O1095 2.326 1_455 S
Eu1080 O1102 2.363 . S
Eu1080 O1103 2.363 . S
O1081 Eu1075 2.392 . S
O1081 Eu1079 2.350 1_655 S
O1081 Eu1085 2.371 1_655 S
O1082 Eu1075 2.349 1_556 S
O1082 Eu1080 2.348 1_655 S
O1082 Eu1085 2.328 1_656 S
O1083 Eu1076 2.348 1_556 S
O1083 Eu1080 2.392 . S
O1083 Eu1085 2.370 1_556 S
O1084 Eu1076 2.393 . S
O1084 Eu1079 2.391 . S
O1084 Eu1085 2.413 . S
Eu1085 O1081 2.371 1_455 S
Eu1085 O1082 2.328 1_454 S
Eu1085 O1083 2.370 1_554 S
Eu1085 O1084 2.413 . S
Eu1085 O1088 2.399 . S
Eu1085 O1089 2.327 1_554 S
Eu1085 O1098 2.398 . S
Eu1085 O1099 2.328 1_455 S
O1086 C1060 1.283 . S
O1086 Eu1072 2.401 . S
O1087 C1061 1.283 . S
O1087 Eu1072 2.325 1_556 S
O1088 C1062 1.283 . S
O1088 Eu1085 2.399 . S
O1089 C1063 1.283 . S
O1089 Eu1085 2.327 1_556 S
O1090 C1064 1.283 . S
O1090 Eu1075 2.363 . S
O1091 C1065 1.283 . S
O1091 Eu1075 2.363 . S
O1092 C1066 1.283 . S
O1092 Eu1076 2.363 . S
O1093 C1067 1.283 . S
O1093 Eu1076 2.363 . S
O1094 C1068 1.283 . S
O1094 Eu1080 2.400 . S
O1095 C1069 1.283 . S
O1095 Eu1080 2.326 1_655 S
O1096 C1070 1.283 . S
O1096 Eu1079 2.397 . S
O1097 C1071 1.283 . S
O1097 Eu1079 2.328 1_655 S
O1098 C1066 1.283 . S
O1098 Eu1085 2.398 . S
O1099 C1064 1.283 . S
O1099 Eu1085 2.328 1_655 S
O1100 C1067 1.283 . S
O1100 Eu1072 2.399 . S
O1101 C1065 1.283 . S
O1101 Eu1072 2.327 1_655 S
O1102 C1061 1.283 . S
O1102 Eu1080 2.363 . S
O1103 C1063 1.283 . S
O1103 Eu1080 2.363 . S
O1104 C1060 1.283 . S
O1104 Eu1079 2.363 . S
O1105 C1062 1.283 . S
O1105 Eu1079 2.363 . S
O1106 C1071 1.283 . S
O1106 Eu1075 2.399 . S
O1107 C1069 1.283 . S
O1107 Eu1075 2.327 1_556 S
O1108 C1070 1.283 . S
O1108 Eu1076 2.401 . S
O1109 C1068 1.283 . S
O1109 Eu1076 2.325 1_556 S
C1110 O1136 1.283 . S
C1110 O1154 1.283 . S
C1111 O1137 1.283 . S
C1111 O1152 1.283 . S
C1112 O1138 1.283 . S
C1112 O1155 1.283 . S
C1113 O1139 1.283 . S
C1113 O1153 1.283 . S
C1114 O1140 1.283 . S
C1114 O1149 1.283 . S
C1115 O1141 1.283 . S
C1115 O1151 1.283 . S
C1116 O1142 1.283 . S
C1116 O1148 1.283 . S
C1117 O1143 1.283 . S
C1117 O1150 1.283 . S
C1118 O1144 1.283 . S
C1118 O1159 1.283 . S
C1119 O1145 1.283 . S
C1119 O1157 1.283 . S
C1120 O1146 1.283 . S
C1120 O1158 1.283 . S
C1121 O1147 1.283 . S
C1121 O1156 1.283 . S
Eu1122 O1123 2.370 . S
Eu1122 O1124 2.370 . S
Eu1122 O1127 2.370 . S
Eu1122 O1128 2.370 . S
Eu1122 O1136 2.363 . S
Eu1122 O1137 2.363 . S
Eu1122 O1150 2.363 . S
Eu1122 O1151 2.363 . S
O1123 Eu1122 2.370 . S
O1123 Eu1125 2.383 . S
O1123 Eu1130 2.383 . S
O1124 Eu1122 2.370 . S
O1124 Eu1126 2.384 . S
O1124 Eu1129 2.384 . S
Eu1125 O1123 2.383 . S
Eu1125 O1127 2.383 . S
Eu1125 O1131 2.357 1_554 S
Eu1125 O1132 2.357 1_554 S
Eu1125 O1140 2.341 1_554 S
Eu1125 O1141 2.385 . S
Eu1125 O1156 2.363 . S
Eu1125 O1157 2.363 . S
Eu1126 O1124 2.384 . S
Eu1126 O1128 2.384 . S
Eu1126 O1133 2.357 1_554 S
Eu1126 O1134 2.357 1_554 S
Eu1126 O1142 2.340 1_554 S
Eu1126 O1143 2.386 . S
Eu1126 O1158 2.363 . S
Eu1126 O1159 2.363 . S
O1127 Eu1122 2.370 . S
O1127 Eu1125 2.383 . S
O1127 Eu1129 2.384 . S
O1128 Eu1122 2.370 . S
O1128 Eu1126 2.384 . S
O1128 Eu1130 2.383 . S
Eu1129 O1124 2.384 . S
Eu1129 O1127 2.384 . S
Eu1129 O1131 2.356 1_554 S
Eu1129 O1134 2.356 1_554 S
Eu1129 O1146 2.363 . S
Eu1129 O1147 2.363 . S
Eu1129 O1154 2.386 . S
Eu1129 O1155 2.340 1_554 S
Eu1130 O1123 2.383 . S
Eu1130 O1128 2.383 . S
Eu1130 O1132 2.357 1_554 S
Eu1130 O1133 2.357 1_554 S
Eu1130 O1144 2.363 . S
Eu1130 O1145 2.363 . S
Eu1130 O1152 2.385 . S
Eu1130 O1153 2.341 1_554 S
O1131 Eu1125 2.357 1_556 S
O1131 Eu1129 2.356 1_556 S
O1131 Eu1135 2.370 . S
O1132 Eu1125 2.357 1_556 S
O1132 Eu1130 2.357 1_556 S
O1132 Eu1135 2.370 . S
O1133 Eu1126 2.357 1_556 S
O1133 Eu1130 2.357 1_556 S
O1133 Eu1135 2.370 . S
O1134 Eu1126 2.357 1_556 S
O1134 Eu1129 2.356 1_556 S
O1134 Eu1135 2.370 . S
Eu1135 O1131 2.370 . S
Eu1135 O1132 2.370 . S
Eu1135 O1133 2.370 . S
Eu1135 O1134 2.370 . S
Eu1135 O1138 2.363 . S
Eu1135 O1139 2.363 . S
Eu1135 O1148 2.363 . S
Eu1135 O1149 2.363 . S
O1136 C1110 1.283 . S
O1136 Eu1122 2.363 . S
O1137 C1111 1.283 . S
O1137 Eu1122 2.363 . S
O1138 C1112 1.283 . S
O1138 Eu1135 2.363 . S
O1139 C1113 1.283 . S
O1139 Eu1135 2.363 . S
O1140 C1114 1.283 . S
O1140 Eu1125 2.341 1_556 S
O1141 C1115 1.283 . S
O1141 Eu1125 2.385 . S
O1142 C1116 1.283 . S
O1142 Eu1126 2.340 1_556 S
O1143 C1117 1.283 . S
O1143 Eu1126 2.386 . S
O1144 C1118 1.283 . S
O1144 Eu1130 2.363 . S
O1145 C1119 1.283 . S
O1145 Eu1130 2.363 . S
O1146 C1120 1.283 . S
O1146 Eu1129 2.363 . S
O1147 C1121 1.283 . S
O1147 Eu1129 2.363 . S
O1148 C1116 1.283 . S
O1148 Eu1135 2.363 . S
O1149 C1114 1.283 . S
O1149 Eu1135 2.363 . S
O1150 C1117 1.283 . S
O1150 Eu1122 2.363 . S
O1151 C1115 1.283 . S
O1151 Eu1122 2.363 . S
O1152 C1111 1.283 . S
O1152 Eu1130 2.385 . S
O1153 C1113 1.283 . S
O1153 Eu1130 2.341 1_556 S
O1154 C1110 1.283 . S
O1154 Eu1129 2.386 . S
O1155 C1112 1.283 . S
O1155 Eu1129 2.340 1_556 S
O1156 C1121 1.283 . S
O1156 Eu1125 2.363 . S
O1157 C1119 1.283 . S
O1157 Eu1125 2.363 . S
O1158 C1120 1.283 . S
O1158 Eu1126 2.363 . S
O1159 C1118 1.283 . S
O1159 Eu1126 2.363 . S
C1160 O1186 1.283 . S
C1160 O1204 1.283 . S
C1161 O1187 1.283 . S
C1161 O1202 1.283 . S
C1162 O1188 1.283 . S
C1162 O1205 1.283 . S
C1163 O1189 1.283 . S
C1163 O1203 1.283 . S
C1164 O1190 1.283 . S
C1164 O1199 1.283 . S
C1165 O1191 1.283 . S
C1165 O1201 1.283 . S
C1166 O1192 1.283 . S
C1166 O1198 1.283 . S
C1167 O1193 1.283 . S
C1167 O1200 1.283 . S
C1168 O1194 1.283 . S
C1168 O1209 1.283 . S
C1169 O1195 1.283 . S
C1169 O1207 1.283 . S
C1170 O1196 1.283 . S
C1170 O1208 1.283 . S
C1171 O1197 1.283 . S
C1171 O1206 1.283 . S
Eu1172 O1173 2.343 1_455 S
Eu1172 O1174 2.398 . S
Eu1172 O1177 2.343 1_455 S
Eu1172 O1178 2.398 . S
Eu1172 O1186 2.363 . S
Eu1172 O1187 2.363 . S
Eu1172 O1200 2.410 . S
Eu1172 O1201 2.316 1_455 S
O1173 Eu1172 2.343 1_655 S
O1173 Eu1175 2.370 . S
O1173 Eu1180 2.343 1_655 S
O1174 Eu1172 2.398 . S
O1174 Eu1176 2.370 . S
O1174 Eu1179 2.398 . S
Eu1175 O1173 2.370 . S
Eu1175 O1177 2.370 . S
Eu1175 O1181 2.370 . S
Eu1175 O1182 2.370 . S
Eu1175 O1190 2.363 . S
Eu1175 O1191 2.363 . S
Eu1175 O1206 2.363 . S
Eu1175 O1207 2.363 . S
Eu1176 O1174 2.370 . S
Eu1176 O1178 2.370 . S
Eu1176 O1183 2.370 . S
Eu1176 O1184 2.370 . S
Eu1176 O1192 2.363 . S
Eu1176 O1193 2.363 . S
Eu1176 O1208 2.363 . S
Eu1176 O1209 2.363 . S
O1177 Eu1172 2.343 1_655 S
O1177 Eu1175 2.370 . S
O1177 Eu1179 2.343 1_655 S
O1178 Eu1172 2.398 . S
O1178 Eu1176 2.370 . S
O1178 Eu1180 2.398 . S
Eu1179 O1174 2.398 . S
Eu1179 O1177 2.343 1_455 S
Eu1179 O1181 2.343 1_455 S
Eu1179 O1184 2.398 . S
Eu1179 O1196 2.410 . S
Eu1179 O1197 2.316 1_455 S
Eu1179 O1204 2.363 . S
Eu1179 O1205 2.363 . S
Eu1180 O1173 2.343 1_455 S
Eu1180 O1178 2.398 . S
Eu1180 O1182 2.343 1_455 S
Eu1180 O1183 2.398 . S
Eu1180 O1194 2.409 . S
Eu1180 O1195 2.317 1_455 S
Eu1180 O1202 2.363 . S
Eu1180 O1203 2.363 . S
O1181 Eu1175 2.370 . S
O1181 Eu1179 2.343 1_655 S
O1181 Eu1185 2.343 1_655 S
O1182 Eu1175 2.370 . S
O1182 Eu1180 2.343 1_655 S
O1182 Eu1185 2.343 1_655 S
O1183 Eu1176 2.370 . S
O1183 Eu1180 2.398 . S
O1183 Eu1185 2.398 . S
O1184 Eu1176 2.370 . S
O1184 Eu1179 2.398 . S
O1184 Eu1185 2.398 . S
Eu1185 O1181 2.343 1_455 S
Eu1185 O1182 2.343 1_455 S
Eu1185 O1183 2.398 . S
Eu1185 O1184 2.398 . S
Eu1185 O1188 2.363 . S
Eu1185 O1189 2.363 . S
Eu1185 O1198 2.409 . S
Eu1185 O1199 2.317 1_455 S
O1186 C1160 1.283 . S
O1186 Eu1172 2.363 . S
O1187 C1161 1.283 . S
O1187 Eu1172 2.363 . S
O1188 C1162 1.283 . S
O1188 Eu1185 2.363 . S
O1189 C1163 1.283 . S
O1189 Eu1185 2.363 . S
O1190 C1164 1.283 . S
O1190 Eu1175 2.363 . S
O1191 C1165 1.283 . S
O1191 Eu1175 2.363 . S
O1192 C1166 1.283 . S
O1192 Eu1176 2.363 . S
O1193 C1167 1.283 . S
O1193 Eu1176 2.363 . S
O1194 C1168 1.283 . S
O1194 Eu1180 2.409 . S
O1195 C1169 1.283 . S
O1195 Eu1180 2.317 1_655 S
O1196 C1170 1.283 . S
O1196 Eu1179 2.410 . S
O1197 C1171 1.283 . S
O1197 Eu1179 2.316 1_655 S
O1198 C1166 1.283 . S
O1198 Eu1185 2.409 . S
O1199 C1164 1.283 . S
O1199 Eu1185 2.317 1_655 S
O1200 C1167 1.283 . S
O1200 Eu1172 2.410 . S
O1201 C1165 1.283 . S
O1201 Eu1172 2.316 1_655 S
O1202 C1161 1.283 . S
O1202 Eu1180 2.363 . S
O1203 C1163 1.283 . S
O1203 Eu1180 2.363 . S
O1204 C1160 1.283 . S
O1204 Eu1179 2.363 . S
O1205 C1162 1.283 . S
O1205 Eu1179 2.363 . S
O1206 C1171 1.283 . S
O1206 Eu1175 2.363 . S
O1207 C1169 1.283 . S
O1207 Eu1175 2.363 . S
O1208 C1170 1.283 . S
O1208 Eu1176 2.363 . S
O1209 C1168 1.283 . S
O1209 Eu1176 2.363 . S
C1210 O1236 1.283 . S
C1210 O1254 1.283 . S
C1211 O1237 1.283 . S
C1211 O1252 1.283 . S
C1212 O1238 1.283 . S
C1212 O1255 1.283 . S
C1213 O1239 1.283 . S
C1213 O1253 1.283 . S
C1214 O1240 1.283 . S
C1214 O1249 1.283 . S
C1215 O1241 1.283 . S
C1215 O1251 1.283 . S
C1216 O1242 1.283 . S
C1216 O1248 1.283 . S
C1217 O1243 1.283 . S
C1217 O1250 1.283 . S
C1218 O1244 1.283 . S
C1218 O1259 1.283 . S
C1219 O1245 1.283 . S
C1219 O1257 1.283 . S
C1220 O1246 1.283 . S
C1220 O1258 1.283 . S
C1221 O1247 1.283 . S
C1221 O1256 1.283 . S
Eu1222 O1223 2.370 . S
Eu1222 O1224 2.370 . S
Eu1222 O1227 2.370 . S
Eu1222 O1228 2.370 . S
Eu1222 O1236 2.363 . S
Eu1222 O1237 2.363 . S
Eu1222 O1250 2.363 . S
Eu1222 O1251 2.363 . S
O1223 Eu1222 2.370 . S
O1223 Eu1225 2.348 1_565 S
O1223 Eu1230 2.348 1_565 S
O1224 Eu1222 2.370 . S
O1224 Eu1226 2.348 1_565 S
O1224 Eu1229 2.348 1_565 S
Eu1225 O1223 2.348 1_545 S
Eu1225 O1227 2.348 1_545 S
Eu1225 O1231 2.392 . S
Eu1225 O1232 2.392 . S
Eu1225 O1240 2.400 . S
Eu1225 O1241 2.326 1_545 S
Eu1225 O1256 2.363 . S
Eu1225 O1257 2.363 . S
Eu1226 O1224 2.348 1_545 S
Eu1226 O1228 2.348 1_545 S
Eu1226 O1233 2.393 . S
Eu1226 O1234 2.393 . S
Eu1226 O1242 2.401 . S
Eu1226 O1243 2.325 1_545 S
Eu1226 O1258 2.363 . S
Eu1226 O1259 2.363 . S
O1227 Eu1222 2.370 . S
O1227 Eu1225 2.348 1_565 S
O1227 Eu1229 2.348 1_565 S
O1228 Eu1222 2.370 . S
O1228 Eu1226 2.348 1_565 S
O1228 Eu1230 2.348 1_565 S
Eu1229 O1224 2.348 1_545 S
Eu1229 O1227 2.348 1_545 S
Eu1229 O1231 2.393 . S
Eu1229 O1234 2.393 . S
Eu1229 O1246 2.363 . S
Eu1229 O1247 2.363 . S
Eu1229 O1254 2.325 1_545 S
Eu1229 O1255 2.401 . S
Eu1230 O1223 2.348 1_545 S
Eu1230 O1228 2.348 1_545 S
Eu1230 O1232 2.392 . S
Eu1230 O1233 2.392 . S
Eu1230 O1244 2.363 . S
Eu1230 O1245 2.363 . S
Eu1230 O1252 2.326 1_545 S
Eu1230 O1253 2.400 . S
O1231 Eu1225 2.392 . S
O1231 Eu1229 2.393 . S
O1231 Eu1235 2.370 . S
O1232 Eu1225 2.392 . S
O1232 Eu1230 2.392 . S
O1232 Eu1235 2.370 . S
O1233 Eu1226 2.393 . S
O1233 Eu1230 2.392 . S
O1233 Eu1235 2.370 . S
O1234 Eu1226 2.393 . S
O1234 Eu1229 2.393 . S
O1234 Eu1235 2.370 . S
Eu1235 O1231 2.370 . S
Eu1235 O1232 2.370 . S
Eu1235 O1233 2.370 . S
Eu1235 O1234 2.370 . S
Eu1235 O1238 2.363 . S
Eu1235 O1239 2.363 . S
Eu1235 O1248 2.363 . S
Eu1235 O1249 2.363 . S
O1236 C1210 1.283 . S
O1236 Eu1222 2.363 . S
O1237 C1211 1.283 . S
O1237 Eu1222 2.363 . S
O1238 C1212 1.283 . S
O1238 Eu1235 2.363 . S
O1239 C1213 1.283 . S
O1239 Eu1235 2.363 . S
O1240 C1214 1.283 . S
O1240 Eu1225 2.400 . S
O1241 C1215 1.283 . S
O1241 Eu1225 2.326 1_565 S
O1242 C1216 1.283 . S
O1242 Eu1226 2.401 . S
O1243 C1217 1.283 . S
O1243 Eu1226 2.325 1_565 S
O1244 C1218 1.283 . S
O1244 Eu1230 2.363 . S
O1245 C1219 1.283 . S
O1245 Eu1230 2.363 . S
O1246 C1220 1.283 . S
O1246 Eu1229 2.363 . S
O1247 C1221 1.283 . S
O1247 Eu1229 2.363 . S
O1248 C1216 1.283 . S
O1248 Eu1235 2.363 . S
O1249 C1214 1.283 . S
O1249 Eu1235 2.363 . S
O1250 C1217 1.283 . S
O1250 Eu1222 2.363 . S
O1251 C1215 1.283 . S
O1251 Eu1222 2.363 . S
O1252 C1211 1.283 . S
O1252 Eu1230 2.326 1_565 S
O1253 C1213 1.283 . S
O1253 Eu1230 2.400 . S
O1254 C1210 1.283 . S
O1254 Eu1229 2.325 1_565 S
O1255 C1212 1.283 . S
O1255 Eu1229 2.401 . S
O1256 C1221 1.283 . S
O1256 Eu1225 2.363 . S
O1257 C1219 1.283 . S
O1257 Eu1225 2.363 . S
O1258 C1220 1.283 . S
O1258 Eu1226 2.363 . S
O1259 C1218 1.283 . S
O1259 Eu1226 2.363 . S
H1260 C1268 0.950 . S
H1261 C1273 0.950 . S
H1262 C1270 0.950 . S
H1263 C1272 0.950 . S
H1264 C1274 0.950 . S
H1265 C1276 0.950 . S
H1266 C1278 0.950 . S
H1267 C1279 0.950 . S
C1268 H1260 0.950 . S
C1268 C1269 1.386 . S
C1268 C1270 1.391 . S
C1269 C1268 1.386 . S
C1269 C1273 1.393 . S
C1270 H1262 0.950 . S
C1270 C1268 1.391 . S
C1270 C1271 1.400 . S
C1271 C1270 1.400 . S
C1271 C1272 1.398 . S
C1271 C1277 1.491 . S
C1272 H1263 0.950 . S
C1272 C1271 1.398 . S
C1272 C1273 1.391 . S
C1273 H1261 0.950 . S
C1273 C1269 1.393 . S
C1273 C1272 1.391 . S
C1274 H1264 0.950 . S
C1274 C1275 1.386 . S
C1274 C1276 1.391 . S
C1275 C1274 1.386 . S
C1275 C1279 1.393 . S
C1276 H1265 0.950 . S
C1276 C1274 1.391 . S
C1276 C1277 1.400 . S
C1277 C1271 1.491 . S
C1277 C1276 1.400 . S
C1277 C1278 1.398 . S
C1278 H1266 0.950 . S
C1278 C1277 1.398 . S
C1278 C1279 1.391 . S
C1279 H1267 0.950 . S
C1279 C1275 1.393 . S
C1279 C1278 1.391 . S
H1280 C1288 0.950 . S
H1281 C1293 0.950 . S
H1282 C1290 0.950 . S
H1283 C1292 0.950 . S
H1284 C1294 0.950 . S
H1285 C1296 0.950 . S
H1286 C1298 0.950 . S
H1287 C1299 0.950 . S
C1288 H1280 0.950 . S
C1288 C1289 1.386 . S
C1288 C1290 1.391 . S
C1289 C1288 1.386 . S
C1289 C1293 1.393 . S
C1290 H1282 0.950 . S
C1290 C1288 1.391 . S
C1290 C1291 1.400 . S
C1291 C1290 1.400 . S
C1291 C1292 1.398 . S
C1291 C1297 1.491 . S
C1292 H1283 0.950 . S
C1292 C1291 1.398 . S
C1292 C1293 1.391 . S
C1293 H1281 0.950 . S
C1293 C1289 1.393 . S
C1293 C1292 1.391 . S
C1294 H1284 0.950 . S
C1294 C1295 1.386 . S
C1294 C1296 1.391 . S
C1295 C1294 1.386 . S
C1295 C1299 1.393 . S
C1296 H1285 0.950 . S
C1296 C1294 1.391 . S
C1296 C1297 1.400 . S
C1297 C1291 1.491 . S
C1297 C1296 1.400 . S
C1297 C1298 1.398 . S
C1298 H1286 0.950 . S
C1298 C1297 1.398 . S
C1298 C1299 1.391 . S
C1299 H1287 0.950 . S
C1299 C1295 1.393 . S
C1299 C1298 1.391 . S
H1300 C1308 0.950 . S
H1301 C1313 0.950 . S
H1302 C1310 0.950 . S
H1303 C1312 0.950 . S
H1304 C1314 0.950 . S
H1305 C1316 0.950 . S
H1306 C1318 0.950 . S
H1307 C1319 0.950 . S
C1308 H1300 0.950 . S
C1308 C1309 1.386 . S
C1308 C1310 1.391 . S
C1309 C1308 1.386 . S
C1309 C1313 1.393 . S
C1310 H1302 0.950 . S
C1310 C1308 1.391 . S
C1310 C1311 1.400 . S
C1311 C1310 1.400 . S
C1311 C1312 1.398 . S
C1311 C1317 1.491 . S
C1312 H1303 0.950 . S
C1312 C1311 1.398 . S
C1312 C1313 1.391 . S
C1313 H1301 0.950 . S
C1313 C1309 1.393 . S
C1313 C1312 1.391 . S
C1314 H1304 0.950 . S
C1314 C1315 1.386 . S
C1314 C1316 1.391 . S
C1315 C1314 1.386 . S
C1315 C1319 1.393 . S
C1316 H1305 0.950 . S
C1316 C1314 1.391 . S
C1316 C1317 1.400 . S
C1317 C1311 1.491 . S
C1317 C1316 1.400 . S
C1317 C1318 1.398 . S
C1318 H1306 0.950 . S
C1318 C1317 1.398 . S
C1318 C1319 1.391 . S
C1319 H1307 0.950 . S
C1319 C1315 1.393 . S
C1319 C1318 1.391 . S
H1320 C1328 0.950 . S
H1321 C1333 0.950 . S
H1322 C1330 0.950 . S
H1323 C1332 0.950 . S
H1324 C1334 0.950 . S
H1325 C1336 0.950 . S
H1326 C1338 0.950 . S
H1327 C1339 0.950 . S
C1328 H1320 0.950 . S
C1328 C1329 1.386 . S
C1328 C1330 1.391 . S
C1329 C1328 1.386 . S
C1329 C1333 1.393 . S
C1330 H1322 0.950 . S
C1330 C1328 1.391 . S
C1330 C1331 1.400 . S
C1331 C1330 1.400 . S
C1331 C1332 1.398 . S
C1331 C1337 1.491 . S
C1332 H1323 0.950 . S
C1332 C1331 1.398 . S
C1332 C1333 1.391 . S
C1333 H1321 0.950 . S
C1333 C1329 1.393 . S
C1333 C1332 1.391 . S
C1334 H1324 0.950 . S
C1334 C1335 1.386 . S
C1334 C1336 1.391 . S
C1335 C1334 1.386 . S
C1335 C1339 1.393 . S
C1336 H1325 0.950 . S
C1336 C1334 1.391 . S
C1336 C1337 1.400 . S
C1337 C1331 1.491 . S
C1337 C1336 1.400 . S
C1337 C1338 1.398 . S
C1338 H1326 0.950 . S
C1338 C1337 1.398 . S
C1338 C1339 1.391 . S
C1339 H1327 0.950 . S
C1339 C1335 1.393 . S
C1339 C1338 1.391 . S
H1340 C1348 0.950 . S
H1341 C1353 0.950 . S
H1342 C1350 0.950 . S
H1343 C1352 0.950 . S
H1344 C1354 0.950 . S
H1345 C1356 0.950 . S
H1346 C1358 0.950 . S
H1347 C1359 0.950 . S
C1348 H1340 0.950 . S
C1348 C1349 1.386 . S
C1348 C1350 1.391 . S
C1349 C1348 1.386 . S
C1349 C1353 1.393 . S
C1350 H1342 0.950 . S
C1350 C1348 1.391 . S
C1350 C1351 1.400 . S
C1351 C1350 1.400 . S
C1351 C1352 1.398 . S
C1351 C1357 1.491 . S
C1352 H1343 0.950 . S
C1352 C1351 1.398 . S
C1352 C1353 1.391 . S
C1353 H1341 0.950 . S
C1353 C1349 1.393 . S
C1353 C1352 1.391 . S
C1354 H1344 0.950 . S
C1354 C1355 1.386 . S
C1354 C1356 1.391 . S
C1355 C1354 1.386 . S
C1355 C1359 1.393 . S
C1356 H1345 0.950 . S
C1356 C1354 1.391 . S
C1356 C1357 1.400 . S
C1357 C1351 1.491 . S
C1357 C1356 1.400 . S
C1357 C1358 1.398 . S
C1358 H1346 0.950 . S
C1358 C1357 1.398 . S
C1358 C1359 1.391 . S
C1359 H1347 0.950 . S
C1359 C1355 1.393 . S
C1359 C1358 1.391 . S
H1360 C1368 0.950 . S
H1361 C1373 0.950 . S
H1362 C1370 0.950 . S
H1363 C1372 0.950 . S
H1364 C1374 0.950 . S
H1365 C1376 0.950 . S
H1366 C1378 0.950 . S
H1367 C1379 0.950 . S
C1368 H1360 0.950 . S
C1368 C1369 1.386 . S
C1368 C1370 1.391 . S
C1369 C1368 1.386 . S
C1369 C1373 1.393 . S
C1370 H1362 0.950 . S
C1370 C1368 1.391 . S
C1370 C1371 1.400 . S
C1371 C1370 1.400 . S
C1371 C1372 1.398 . S
C1371 C1377 1.491 . S
C1372 H1363 0.950 . S
C1372 C1371 1.398 . S
C1372 C1373 1.391 . S
C1373 H1361 0.950 . S
C1373 C1369 1.393 . S
C1373 C1372 1.391 . S
C1374 H1364 0.950 . S
C1374 C1375 1.386 . S
C1374 C1376 1.391 . S
C1375 C1374 1.386 . S
C1375 C1379 1.393 . S
C1376 H1365 0.950 . S
C1376 C1374 1.391 . S
C1376 C1377 1.400 . S
C1377 C1371 1.491 . S
C1377 C1376 1.400 . S
C1377 C1378 1.398 . S
C1378 H1366 0.950 . S
C1378 C1377 1.398 . S
C1378 C1379 1.391 . S
C1379 H1367 0.950 . S
C1379 C1375 1.393 . S
C1379 C1378 1.391 . S
H1380 C1388 0.950 . S
H1381 C1393 0.950 . S
H1382 C1390 0.950 . S
H1383 C1392 0.950 . S
H1384 C1394 0.950 . S
H1385 C1396 0.950 . S
H1386 C1398 0.950 . S
H1387 C1399 0.950 . S
C1388 H1380 0.950 . S
C1388 C1389 1.386 . S
C1388 C1390 1.391 . S
C1389 C1388 1.386 . S
C1389 C1393 1.393 . S
C1390 H1382 0.950 . S
C1390 C1388 1.391 . S
C1390 C1391 1.400 . S
C1391 C1390 1.400 . S
C1391 C1392 1.398 . S
C1391 C1397 1.491 . S
C1392 H1383 0.950 . S
C1392 C1391 1.398 . S
C1392 C1393 1.391 . S
C1393 H1381 0.950 . S
C1393 C1389 1.393 . S
C1393 C1392 1.391 . S
C1394 H1384 0.950 . S
C1394 C1395 1.386 . S
C1394 C1396 1.391 . S
C1395 C1394 1.386 . S
C1395 C1399 1.393 . S
C1396 H1385 0.950 . S
C1396 C1394 1.391 . S
C1396 C1397 1.400 . S
C1397 C1391 1.491 . S
C1397 C1396 1.400 . S
C1397 C1398 1.398 . S
C1398 H1386 0.950 . S
C1398 C1397 1.398 . S
C1398 C1399 1.391 . S
C1399 H1387 0.950 . S
C1399 C1395 1.393 . S
C1399 C1398 1.391 . S
H1400 C1408 0.950 . S
H1401 C1413 0.950 . S
H1402 C1410 0.950 . S
H1403 C1412 0.950 . S
H1404 C1414 0.950 . S
H1405 C1416 0.950 . S
H1406 C1418 0.950 . S
H1407 C1419 0.950 . S
C1408 H1400 0.950 . S
C1408 C1409 1.386 . S
C1408 C1410 1.391 . S
C1409 C1408 1.386 . S
C1409 C1413 1.393 . S
C1410 H1402 0.950 . S
C1410 C1408 1.391 . S
C1410 C1411 1.400 . S
C1411 C1410 1.400 . S
C1411 C1412 1.398 . S
C1411 C1417 1.491 . S
C1412 H1403 0.950 . S
C1412 C1411 1.398 . S
C1412 C1413 1.391 . S
C1413 H1401 0.950 . S
C1413 C1409 1.393 . S
C1413 C1412 1.391 . S
C1414 H1404 0.950 . S
C1414 C1415 1.386 . S
C1414 C1416 1.391 . S
C1415 C1414 1.386 . S
C1415 C1419 1.393 . S
C1416 H1405 0.950 . S
C1416 C1414 1.391 . S
C1416 C1417 1.400 . S
C1417 C1411 1.491 . S
C1417 C1416 1.400 . S
C1417 C1418 1.398 . S
C1418 H1406 0.950 . S
C1418 C1417 1.398 . S
C1418 C1419 1.391 . S
C1419 H1407 0.950 . S
C1419 C1415 1.393 . S
C1419 C1418 1.391 . S
H1420 C1428 0.950 . S
H1421 C1433 0.950 . S
H1422 C1430 0.950 . S
H1423 C1432 0.950 . S
H1424 C1434 0.950 . S
H1425 C1436 0.950 . S
H1426 C1438 0.950 . S
H1427 C1439 0.950 . S
C1428 H1420 0.950 . S
C1428 C1429 1.386 . S
C1428 C1430 1.391 . S
C1429 C1428 1.386 . S
C1429 C1433 1.393 . S
C1430 H1422 0.950 . S
C1430 C1428 1.391 . S
C1430 C1431 1.400 . S
C1431 C1430 1.400 . S
C1431 C1432 1.398 . S
C1431 C1437 1.491 . S
C1432 H1423 0.950 . S
C1432 C1431 1.398 . S
C1432 C1433 1.391 . S
C1433 H1421 0.950 . S
C1433 C1429 1.393 . S
C1433 C1432 1.391 . S
C1434 H1424 0.950 . S
C1434 C1435 1.386 . S
C1434 C1436 1.391 . S
C1435 C1434 1.386 . S
C1435 C1439 1.393 . S
C1436 H1425 0.950 . S
C1436 C1434 1.391 . S
C1436 C1437 1.400 . S
C1437 C1431 1.491 . S
C1437 C1436 1.400 . S
C1437 C1438 1.398 . S
C1438 H1426 0.950 . S
C1438 C1437 1.398 . S
C1438 C1439 1.391 . S
C1439 H1427 0.950 . S
C1439 C1435 1.393 . S
C1439 C1438 1.391 . S
H1440 C1448 0.950 . S
H1441 C1453 0.950 . S
H1442 C1450 0.950 . S
H1443 C1452 0.950 . S
H1444 C1454 0.950 . S
H1445 C1456 0.950 . S
H1446 C1458 0.950 . S
H1447 C1459 0.950 . S
C1448 H1440 0.950 . S
C1448 C1449 1.386 . S
C1448 C1450 1.391 . S
C1449 C1448 1.386 . S
C1449 C1453 1.393 . S
C1450 H1442 0.950 . S
C1450 C1448 1.391 . S
C1450 C1451 1.400 . S
C1451 C1450 1.400 . S
C1451 C1452 1.398 . S
C1451 C1457 1.491 . S
C1452 H1443 0.950 . S
C1452 C1451 1.398 . S
C1452 C1453 1.391 . S
C1453 H1441 0.950 . S
C1453 C1449 1.393 . S
C1453 C1452 1.391 . S
C1454 H1444 0.950 . S
C1454 C1455 1.386 . S
C1454 C1456 1.391 . S
C1455 C1454 1.386 . S
C1455 C1459 1.393 . S
C1456 H1445 0.950 . S
C1456 C1454 1.391 . S
C1456 C1457 1.400 . S
C1457 C1451 1.491 . S
C1457 C1456 1.400 . S
C1457 C1458 1.398 . S
C1458 H1446 0.950 . S
C1458 C1457 1.398 . S
C1458 C1459 1.391 . S
C1459 H1447 0.950 . S
C1459 C1455 1.393 . S
C1459 C1458 1.391 . S
H1460 C1468 0.950 . S
H1461 C1473 0.950 . S
H1462 C1470 0.950 . S
H1463 C1472 0.950 . S
H1464 C1474 0.950 . S
H1465 C1476 0.950 . S
H1466 C1478 0.950 . S
H1467 C1479 0.950 . S
C1468 H1460 0.950 . S
C1468 C1469 1.386 . S
C1468 C1470 1.391 . S
C1469 C1468 1.386 . S
C1469 C1473 1.393 . S
C1470 H1462 0.950 . S
C1470 C1468 1.391 . S
C1470 C1471 1.400 . S
C1471 C1470 1.400 . S
C1471 C1472 1.398 . S
C1471 C1477 1.491 . S
C1472 H1463 0.950 . S
C1472 C1471 1.398 . S
C1472 C1473 1.391 . S
C1473 H1461 0.950 . S
C1473 C1469 1.393 . S
C1473 C1472 1.391 . S
C1474 H1464 0.950 . S
C1474 C1475 1.386 . S
C1474 C1476 1.391 . S
C1475 C1474 1.386 . S
C1475 C1479 1.393 . S
C1476 H1465 0.950 . S
C1476 C1474 1.391 . S
C1476 C1477 1.400 . S
C1477 C1471 1.491 . S
C1477 C1476 1.400 . S
C1477 C1478 1.398 . S
C1478 H1466 0.950 . S
C1478 C1477 1.398 . S
C1478 C1479 1.391 . S
C1479 H1467 0.950 . S
C1479 C1475 1.393 . S
C1479 C1478 1.391 . S
H1480 C1488 0.950 . S
H1481 C1493 0.950 . S
H1482 C1490 0.950 . S
H1483 C1492 0.950 . S
H1484 C1494 0.950 . S
H1485 C1496 0.950 . S
H1486 C1498 0.950 . S
H1487 C1499 0.950 . S
C1488 H1480 0.950 . S
C1488 C1489 1.386 . S
C1488 C1490 1.391 . S
C1489 C1488 1.386 . S
C1489 C1493 1.393 . S
C1490 H1482 0.950 . S
C1490 C1488 1.391 . S
C1490 C1491 1.400 . S
C1491 C1490 1.400 . S
C1491 C1492 1.398 . S
C1491 C1497 1.491 . S
C1492 H1483 0.950 . S
C1492 C1491 1.398 . S
C1492 C1493 1.391 . S
C1493 H1481 0.950 . S
C1493 C1489 1.393 . S
C1493 C1492 1.391 . S
C1494 H1484 0.950 . S
C1494 C1495 1.386 . S
C1494 C1496 1.391 . S
C1495 C1494 1.386 . S
C1495 C1499 1.393 . S
C1496 H1485 0.950 . S
C1496 C1494 1.391 . S
C1496 C1497 1.400 . S
C1497 C1491 1.491 . S
C1497 C1496 1.400 . S
C1497 C1498 1.398 . S
C1498 H1486 0.950 . S
C1498 C1497 1.398 . S
C1498 C1499 1.391 . S
C1499 H1487 0.950 . S
C1499 C1495 1.393 . S
C1499 C1498 1.391 . S
H1500 C1508 0.950 . S
H1501 C1513 0.950 . S
H1502 C1510 0.950 . S
H1503 C1512 0.950 . S
H1504 C1514 0.950 . S
H1505 C1516 0.950 . S
H1506 C1518 0.950 . S
H1507 C1519 0.950 . S
C1508 H1500 0.950 . S
C1508 C1509 1.411 . S
C1508 C1510 1.391 . S
C1509 C1508 1.411 . S
C1509 C1513 1.368 1_554 S
C1510 H1502 0.950 . S
C1510 C1508 1.391 . S
C1510 C1511 1.422 . S
C1511 C1510 1.422 . S
C1511 C1512 1.377 1_554 S
C1511 C1517 1.490 . S
C1512 H1503 0.950 . S
C1512 C1511 1.377 1_556 S
C1512 C1513 1.391 . S
C1513 H1501 0.950 . S
C1513 C1509 1.368 1_556 S
C1513 C1512 1.391 . S
C1514 H1504 0.950 . S
C1514 C1515 1.381 1_556 S
C1514 C1516 1.391 . S
C1515 C1514 1.381 1_554 S
C1515 C1519 1.397 . S
C1516 H1505 0.950 . S
C1516 C1514 1.391 . S
C1516 C1517 1.392 1_556 S
C1517 C1511 1.490 . S
C1517 C1516 1.392 1_554 S
C1517 C1518 1.406 . S
C1518 H1506 0.950 . S
C1518 C1517 1.406 . S
C1518 C1519 1.391 . S
C1519 H1507 0.950 . S
C1519 C1515 1.397 . S
C1519 C1518 1.391 . S
H1520 C1528 0.950 . S
H1521 C1533 0.950 . S
H1522 C1530 0.950 . S
H1523 C1532 0.950 . S
H1524 C1534 0.950 . S
H1525 C1536 0.950 . S
H1526 C1538 0.950 . S
H1527 C1539 0.950 . S
C1528 H1520 0.950 . S
C1528 C1529 1.387 . S
C1528 C1530 1.391 . S
C1529 C1528 1.387 . S
C1529 C1533 1.392 1_554 S
C1530 H1522 0.950 . S
C1530 C1528 1.391 . S
C1530 C1531 1.411 . S
C1531 C1530 1.411 . S
C1531 C1532 1.388 1_554 S
C1531 C1537 1.490 . S
C1532 H1523 0.950 . S
C1532 C1531 1.388 1_556 S
C1532 C1533 1.391 . S
C1533 H1521 0.950 . S
C1533 C1529 1.392 1_556 S
C1533 C1532 1.391 . S
C1534 H1524 0.950 . S
C1534 C1535 1.349 1_556 S
C1534 C1536 1.391 . S
C1535 C1534 1.349 1_554 S
C1535 C1539 1.430 . S
C1536 H1525 0.950 . S
C1536 C1534 1.391 . S
C1536 C1537 1.373 1_556 S
C1537 C1531 1.490 . S
C1537 C1536 1.373 1_554 S
C1537 C1538 1.426 . S
C1538 H1526 0.950 . S
C1538 C1537 1.426 . S
C1538 C1539 1.391 . S
C1539 H1527 0.950 . S
C1539 C1535 1.430 . S
C1539 C1538 1.391 . S
H1540 C1548 0.950 . S
H1541 C1553 0.950 . S
H1542 C1550 0.950 . S
H1543 C1552 0.950 . S
H1544 C1554 0.950 . S
H1545 C1556 0.950 . S
H1546 C1558 0.950 . S
H1547 C1559 0.950 . S
C1548 H1540 0.950 . S
C1548 C1549 1.359 1_556 S
C1548 C1550 1.391 . S
C1549 C1548 1.359 1_554 S
C1549 C1553 1.419 . S
C1550 H1542 0.950 . S
C1550 C1548 1.391 . S
C1550 C1551 1.376 1_556 S
C1551 C1550 1.376 1_554 S
C1551 C1552 1.423 . S
C1551 C1557 1.491 . S
C1552 H1543 0.950 . S
C1552 C1551 1.423 . S
C1552 C1553 1.391 . S
C1553 H1541 0.950 . S
C1553 C1549 1.419 . S
C1553 C1552 1.391 . S
C1554 H1544 0.950 . S
C1554 C1555 1.412 . S
C1554 C1556 1.391 . S
C1555 C1554 1.412 . S
C1555 C1559 1.367 1_554 S
C1556 H1545 0.950 . S
C1556 C1554 1.391 . S
C1556 C1557 1.428 . S
C1557 C1551 1.491 . S
C1557 C1556 1.428 . S
C1557 C1558 1.371 1_554 S
C1558 H1546 0.950 . S
C1558 C1557 1.371 1_556 S
C1558 C1559 1.391 . S
C1559 H1547 0.950 . S
C1559 C1555 1.367 1_556 S
C1559 C1558 1.391 . S
H1560 C1568 0.950 . S
H1561 C1573 0.950 . S
H1562 C1570 0.950 . S
H1563 C1572 0.950 . S
H1564 C1574 0.950 . S
H1565 C1576 0.950 . S
H1566 C1578 0.950 . S
H1567 C1579 0.950 . S
C1568 H1560 0.950 . S
C1568 C1569 1.365 1_556 S
C1568 C1570 1.391 . S
C1569 C1568 1.365 1_554 S
C1569 C1573 1.413 . S
C1570 H1562 0.950 . S
C1570 C1568 1.391 . S
C1570 C1571 1.380 1_556 S
C1571 C1570 1.380 1_554 S
C1571 C1572 1.419 . S
C1571 C1577 1.491 . S
C1572 H1563 0.950 . S
C1572 C1571 1.419 . S
C1572 C1573 1.391 . S
C1573 H1561 0.950 . S
C1573 C1569 1.413 . S
C1573 C1572 1.391 . S
C1574 H1564 0.950 . S
C1574 C1575 1.411 . S
C1574 C1576 1.391 . S
C1575 C1574 1.411 . S
C1575 C1579 1.368 1_554 S
C1576 H1565 0.950 . S
C1576 C1574 1.391 . S
C1576 C1577 1.425 . S
C1577 C1571 1.491 . S
C1577 C1576 1.425 . S
C1577 C1578 1.374 1_554 S
C1578 H1566 0.950 . S
C1578 C1577 1.374 1_556 S
C1578 C1579 1.391 . S
C1579 H1567 0.950 . S
C1579 C1575 1.368 1_556 S
C1579 C1578 1.391 . S
H1580 C1588 0.950 . S
H1581 C1593 0.950 . S
H1582 C1590 0.950 . S
H1583 C1592 0.950 . S
H1584 C1594 0.950 . S
H1585 C1596 0.950 . S
H1586 C1598 0.950 . S
H1587 C1599 0.950 . S
C1588 H1580 0.950 . S
C1588 C1589 1.398 . S
C1588 C1590 1.391 . S
C1589 C1588 1.398 . S
C1589 C1593 1.381 1_455 S
C1590 H1582 0.950 . S
C1590 C1588 1.391 . S
C1590 C1591 1.423 . S
C1591 C1590 1.423 . S
C1591 C1592 1.375 1_455 S
C1591 C1597 1.492 . S
C1592 H1583 0.950 . S
C1592 C1591 1.375 1_655 S
C1592 C1593 1.391 . S
C1593 H1581 0.950 . S
C1593 C1589 1.381 1_655 S
C1593 C1592 1.391 . S
C1594 H1584 0.950 . S
C1594 C1595 1.386 1_655 S
C1594 C1596 1.391 . S
C1595 C1594 1.386 1_455 S
C1595 C1599 1.393 . S
C1596 H1585 0.950 . S
C1596 C1594 1.391 . S
C1596 C1597 1.400 1_655 S
C1597 C1591 1.492 . S
C1597 C1596 1.400 1_455 S
C1597 C1598 1.398 . S
C1598 H1586 0.950 . S
C1598 C1597 1.398 . S
C1598 C1599 1.391 . S
C1599 H1587 0.950 . S
C1599 C1595 1.393 . S
C1599 C1598 1.391 . S
H1600 C1608 0.950 . S
H1601 C1613 0.950 . S
H1602 C1610 0.950 . S
H1603 C1612 0.950 . S
H1604 C1614 0.950 . S
H1605 C1616 0.950 . S
H1606 C1618 0.950 . S
H1607 C1619 0.950 . S
C1608 H1600 0.950 . S
C1608 C1609 1.340 1_565 S
C1608 C1610 1.391 . S
C1609 C1608 1.340 1_545 S
C1609 C1613 1.439 . S
C1610 H1602 0.950 . S
C1610 C1608 1.391 . S
C1610 C1611 1.361 1_565 S
C1611 C1610 1.361 1_545 S
C1611 C1612 1.439 . S
C1611 C1617 1.491 . S
C1612 H1603 0.950 . S
C1612 C1611 1.439 . S
C1612 C1613 1.391 . S
C1613 H1601 0.950 . S
C1613 C1609 1.439 . S
C1613 C1612 1.391 . S
C1614 H1604 0.950 . S
C1614 C1615 1.411 . S
C1614 C1616 1.391 . S
C1615 C1614 1.411 . S
C1615 C1619 1.367 1_545 S
C1616 H1605 0.950 . S
C1616 C1614 1.391 . S
C1616 C1617 1.431 . S
C1617 C1611 1.491 . S
C1617 C1616 1.431 . S
C1617 C1618 1.368 1_545 S
C1618 H1606 0.950 . S
C1618 C1617 1.368 1_565 S
C1618 C1619 1.391 . S
C1619 H1607 0.950 . S
C1619 C1615 1.367 1_565 S
C1619 C1618 1.391 . S
H1620 C1628 0.950 . S
H1621 C1633 0.950 . S
H1622 C1630 0.950 . S
H1623 C1632 0.950 . S
H1624 C1634 0.950 . S
H1625 C1636 0.950 . S
H1626 C1638 0.950 . S
H1627 C1639 0.950 . S
C1628 H1620 0.950 . S
C1628 C1629 1.422 . S
C1628 C1630 1.391 . S
C1629 C1628 1.422 . S
C1629 C1633 1.356 1_455 S
C1630 H1622 0.950 . S
C1630 C1628 1.391 . S
C1630 C1631 1.441 . S
C1631 C1630 1.441 . S
C1631 C1632 1.357 1_455 S
C1631 C1637 1.492 . S
C1632 H1623 0.950 . S
C1632 C1631 1.357 1_655 S
C1632 C1633 1.391 . S
C1633 H1621 0.950 . S
C1633 C1629 1.356 1_655 S
C1633 C1632 1.391 . S
C1634 H1624 0.950 . S
C1634 C1635 1.386 1_655 S
C1634 C1636 1.391 . S
C1635 C1634 1.386 1_455 S
C1635 C1639 1.393 . S
C1636 H1625 0.950 . S
C1636 C1634 1.391 . S
C1636 C1637 1.400 1_655 S
C1637 C1631 1.492 . S
C1637 C1636 1.400 1_455 S
C1637 C1638 1.398 . S
C1638 H1626 0.950 . S
C1638 C1637 1.398 . S
C1638 C1639 1.391 . S
C1639 H1627 0.950 . S
C1639 C1635 1.393 . S
C1639 C1638 1.391 . S
H1640 C1648 0.950 . S
H1641 C1653 0.950 . S
H1642 C1650 0.950 . S
H1643 C1652 0.950 . S
H1644 C1654 0.950 . S
H1645 C1656 0.950 . S
H1646 C1658 0.950 . S
H1647 C1659 0.950 . S
C1648 H1640 0.950 . S
C1648 C1649 1.386 1_565 S
C1648 C1650 1.391 . S
C1649 C1648 1.386 1_545 S
C1649 C1653 1.393 . S
C1650 H1642 0.950 . S
C1650 C1648 1.391 . S
C1650 C1651 1.400 1_565 S
C1651 C1650 1.400 1_545 S
C1651 C1652 1.398 . S
C1651 C1657 1.491 . S
C1652 H1643 0.950 . S
C1652 C1651 1.398 . S
C1652 C1653 1.391 . S
C1653 H1641 0.950 . S
C1653 C1649 1.393 . S
C1653 C1652 1.391 . S
C1654 H1644 0.950 . S
C1654 C1655 1.385 . S
C1654 C1656 1.391 . S
C1655 C1654 1.385 . S
C1655 C1659 1.394 1_545 S
C1656 H1645 0.950 . S
C1656 C1654 1.391 . S
C1656 C1657 1.403 . S
C1657 C1651 1.491 . S
C1657 C1656 1.403 . S
C1657 C1658 1.395 1_545 S
C1658 H1646 0.950 . S
C1658 C1657 1.395 1_565 S
C1658 C1659 1.391 . S
C1659 H1647 0.950 . S
C1659 C1655 1.394 1_565 S
C1659 C1658 1.391 . S
H1660 C1668 0.950 . S
H1661 C1673 0.950 . S
H1662 C1670 0.950 . S
H1663 C1672 0.950 . S
H1664 C1674 0.950 . S
H1665 C1676 0.950 . S
H1666 C1678 0.950 . S
H1667 C1679 0.950 . S
C1668 H1660 0.950 . S
C1668 C1669 1.357 1_655 S
C1668 C1670 1.391 . S
C1669 C1668 1.357 1_455 S
C1669 C1673 1.422 . S
C1670 H1662 0.950 . S
C1670 C1668 1.391 . S
C1670 C1671 1.367 1_655 S
C1671 C1670 1.367 1_455 S
C1671 C1672 1.431 . S
C1671 C1677 1.492 . S
C1672 H1663 0.950 . S
C1672 C1671 1.431 . S
C1672 C1673 1.391 . S
C1673 H1661 0.950 . S
C1673 C1669 1.422 . S
C1673 C1672 1.391 . S
C1674 H1664 0.950 . S
C1674 C1675 1.386 . S
C1674 C1676 1.391 . S
C1675 C1674 1.386 . S
C1675 C1679 1.393 1_455 S
C1676 H1665 0.950 . S
C1676 C1674 1.391 . S
C1676 C1677 1.400 . S
C1677 C1671 1.492 . S
C1677 C1676 1.400 . S
C1677 C1678 1.398 1_455 S
C1678 H1666 0.950 . S
C1678 C1677 1.398 1_655 S
C1678 C1679 1.391 . S
C1679 H1667 0.950 . S
C1679 C1675 1.393 1_655 S
C1679 C1678 1.391 . S
H1680 C1688 0.950 . S
H1681 C1693 0.950 . S
H1682 C1690 0.950 . S
H1683 C1692 0.950 . S
H1684 C1694 0.950 . S
H1685 C1696 0.950 . S
H1686 C1698 0.950 . S
H1687 C1699 0.950 . S
C1688 H1680 0.950 . S
C1688 C1689 1.368 1_565 S
C1688 C1690 1.391 . S
C1689 C1688 1.368 1_545 S
C1689 C1693 1.410 . S
C1690 H1682 0.950 . S
C1690 C1688 1.391 . S
C1690 C1691 1.377 1_565 S
C1691 C1690 1.377 1_545 S
C1691 C1692 1.422 . S
C1691 C1697 1.491 . S
C1692 H1683 0.950 . S
C1692 C1691 1.422 . S
C1692 C1693 1.391 . S
C1693 H1681 0.950 . S
C1693 C1689 1.410 . S
C1693 C1692 1.391 . S
C1694 H1684 0.950 . S
C1694 C1695 1.428 . S
C1694 C1696 1.391 . S
C1695 C1694 1.428 . S
C1695 C1699 1.351 1_545 S
C1696 H1685 0.950 . S
C1696 C1694 1.391 . S
C1696 C1697 1.436 . S
C1697 C1691 1.491 . S
C1697 C1696 1.436 . S
C1697 C1698 1.364 1_545 S
C1698 H1686 0.950 . S
C1698 C1697 1.364 1_565 S
C1698 C1699 1.391 . S
C1699 H1687 0.950 . S
C1699 C1695 1.351 1_565 S
C1699 C1698 1.391 . S
H1700 C1708 0.950 . S
H1701 C1713 0.950 . S
H1702 C1710 0.950 . S
H1703 C1712 0.950 . S
H1704 C1714 0.950 . S
H1705 C1716 0.950 . S
H1706 C1718 0.950 . S
H1707 C1719 0.950 . S
C1708 H1700 0.950 . S
C1708 C1709 1.386 . S
C1708 C1710 1.391 . S
C1709 C1708 1.386 . S
C1709 C1713 1.393 1_455 S
C1710 H1702 0.950 . S
C1710 C1708 1.391 . S
C1710 C1711 1.400 . S
C1711 C1710 1.400 . S
C1711 C1712 1.398 1_455 S
C1711 C1717 1.492 . S
C1712 H1703 0.950 . S
C1712 C1711 1.398 1_655 S
C1712 C1713 1.391 . S
C1713 H1701 0.950 . S
C1713 C1709 1.393 1_655 S
C1713 C1712 1.391 . S
C1714 H1704 0.950 . S
C1714 C1715 1.376 1_655 S
C1714 C1716 1.391 . S
C1715 C1714 1.376 1_455 S
C1715 C1719 1.402 . S
C1716 H1705 0.950 . S
C1716 C1714 1.391 . S
C1716 C1717 1.383 1_655 S
C1717 C1711 1.492 . S
C1717 C1716 1.383 1_455 S
C1717 C1718 1.415 . S
C1718 H1706 0.950 . S
C1718 C1717 1.415 . S
C1718 C1719 1.391 . S
C1719 H1707 0.950 . S
C1719 C1715 1.402 . S
C1719 C1718 1.391 . S
H1720 C1728 0.950 . S
H1721 C1733 0.950 . S
H1722 C1730 0.950 . S
H1723 C1732 0.950 . S
H1724 C1734 0.950 . S
H1725 C1736 0.950 . S
H1726 C1738 0.950 . S
H1727 C1739 0.950 . S
C1728 H1720 0.950 . S
C1728 C1729 1.386 . S
C1728 C1730 1.391 . S
C1729 C1728 1.386 . S
C1729 C1733 1.393 1_545 S
C1730 H1722 0.950 . S
C1730 C1728 1.391 . S
C1730 C1731 1.424 . S
C1731 C1730 1.424 . S
C1731 C1732 1.378 1_545 S
C1731 C1737 1.490 . S
C1732 H1723 0.950 . S
C1732 C1731 1.378 1_565 S
C1732 C1733 1.391 . S
C1733 H1721 0.950 . S
C1733 C1729 1.393 1_565 S
C1733 C1732 1.391 . S
C1734 H1724 0.950 . S
C1734 C1735 1.386 1_565 S
C1734 C1736 1.391 . S
C1735 C1734 1.386 1_545 S
C1735 C1739 1.393 . S
C1736 H1725 0.950 . S
C1736 C1734 1.391 . S
C1736 C1737 1.394 1_565 S
C1737 C1731 1.490 . S
C1737 C1736 1.394 1_545 S
C1737 C1738 1.404 . S
C1738 H1726 0.950 . S
C1738 C1737 1.404 . S
C1738 C1739 1.391 . S
C1739 H1727 0.950 . S
C1739 C1735 1.393 . S
C1739 C1738 1.391 . S
H1740 C1748 0.950 . S
H1741 C1753 0.950 . S
H1742 C1750 0.950 . S
H1743 C1752 0.950 . S
H1744 C1754 0.950 . S
H1745 C1756 0.950 . S
H1746 C1758 0.950 . S
H1747 C1759 0.950 . S
C1748 H1740 0.950 . S
C1748 C1749 1.386 1_655 S
C1748 C1750 1.391 . S
C1749 C1748 1.386 1_455 S
C1749 C1753 1.393 . S
C1750 H1742 0.950 . S
C1750 C1748 1.391 . S
C1750 C1751 1.400 1_655 S
C1751 C1750 1.400 1_455 S
C1751 C1752 1.398 . S
C1751 C1757 1.491 . S
C1752 H1743 0.950 . S
C1752 C1751 1.398 . S
C1752 C1753 1.391 . S
C1753 H1741 0.950 . S
C1753 C1749 1.393 . S
C1753 C1752 1.391 . S
C1754 H1744 0.950 . S
C1754 C1755 1.386 . S
C1754 C1756 1.391 . S
C1755 C1754 1.386 . S
C1755 C1759 1.393 1_455 S
C1756 H1745 0.950 . S
C1756 C1754 1.391 . S
C1756 C1757 1.400 . S
C1757 C1751 1.491 . S
C1757 C1756 1.400 . S
C1757 C1758 1.398 1_455 S
C1758 H1746 0.950 . S
C1758 C1757 1.398 1_655 S
C1758 C1759 1.391 . S
C1759 H1747 0.950 . S
C1759 C1755 1.393 1_655 S
C1759 C1758 1.391 . S
H1760 C1768 0.950 . S
H1761 C1773 0.950 . S
H1762 C1770 0.950 . S
H1763 C1772 0.950 . S
H1764 C1774 0.950 . S
H1765 C1776 0.950 . S
H1766 C1778 0.950 . S
H1767 C1779 0.950 . S
C1768 H1760 0.950 . S
C1768 C1769 1.402 . S
C1768 C1770 1.391 . S
C1769 C1768 1.402 . S
C1769 C1773 1.376 1_545 S
C1770 H1762 0.950 . S
C1770 C1768 1.391 . S
C1770 C1771 1.419 . S
C1771 C1770 1.419 . S
C1771 C1772 1.380 1_545 S
C1771 C1777 1.491 . S
C1772 H1763 0.950 . S
C1772 C1771 1.380 1_565 S
C1772 C1773 1.391 . S
C1773 H1761 0.950 . S
C1773 C1769 1.376 1_565 S
C1773 C1772 1.391 . S
C1774 H1764 0.950 . S
C1774 C1775 1.362 1_565 S
C1774 C1776 1.391 . S
C1775 C1774 1.362 1_545 S
C1775 C1779 1.417 . S
C1776 H1765 0.950 . S
C1776 C1774 1.391 . S
C1776 C1777 1.378 1_565 S
C1777 C1771 1.491 . S
C1777 C1776 1.378 1_545 S
C1777 C1778 1.420 . S
C1778 H1766 0.950 . S
C1778 C1777 1.420 . S
C1778 C1779 1.391 . S
C1779 H1767 0.950 . S
C1779 C1775 1.417 . S
C1779 C1778 1.391 . S
H1780 C1788 0.950 . S
H1781 C1793 0.950 . S
H1782 C1790 0.950 . S
H1783 C1792 0.950 . S
H1784 C1794 0.950 . S
H1785 C1796 0.950 . S
H1786 C1798 0.950 . S
H1787 C1799 0.950 . S
C1788 H1780 0.950 . S
C1788 C1789 1.386 1_655 S
C1788 C1790 1.391 . S
C1789 C1788 1.386 1_455 S
C1789 C1793 1.393 . S
C1790 H1782 0.950 . S
C1790 C1788 1.391 . S
C1790 C1791 1.400 1_655 S
C1791 C1790 1.400 1_455 S
C1791 C1792 1.398 . S
C1791 C1797 1.493 . S
C1792 H1783 0.950 . S
C1792 C1791 1.398 . S
C1792 C1793 1.391 . S
C1793 H1781 0.950 . S
C1793 C1789 1.393 . S
C1793 C1792 1.391 . S
C1794 H1784 0.950 . S
C1794 C1795 1.405 . S
C1794 C1796 1.391 . S
C1795 C1794 1.405 . S
C1795 C1799 1.373 1_455 S
C1796 H1785 0.950 . S
C1796 C1794 1.391 . S
C1796 C1797 1.428 . S
C1797 C1791 1.493 . S
C1797 C1796 1.428 . S
C1797 C1798 1.371 1_455 S
C1798 H1786 0.950 . S
C1798 C1797 1.371 1_655 S
C1798 C1799 1.391 . S
C1799 H1787 0.950 . S
C1799 C1795 1.373 1_655 S
C1799 C1798 1.391 . S
H1800 C1808 0.950 . S
H1801 C1813 0.950 . S
H1802 C1810 0.950 . S
H1803 C1812 0.950 . S
H1804 C1814 0.950 . S
H1805 C1816 0.950 . S
H1806 C1818 0.950 . S
H1807 C1819 0.950 . S
C1808 H1800 0.950 . S
C1808 C1809 1.386 . S
C1808 C1810 1.391 . S
C1809 C1808 1.386 . S
C1809 C1813 1.393 1_545 S
C1810 H1802 0.950 . S
C1810 C1808 1.391 . S
C1810 C1811 1.419 . S
C1811 C1810 1.419 . S
C1811 C1812 1.382 1_545 S
C1811 C1817 1.490 . S
C1812 H1803 0.950 . S
C1812 C1811 1.382 1_565 S
C1812 C1813 1.391 . S
C1813 H1801 0.950 . S
C1813 C1809 1.393 1_565 S
C1813 C1812 1.391 . S
C1814 H1804 0.950 . S
C1814 C1815 1.389 . S
C1814 C1816 1.391 . S
C1815 C1814 1.389 . S
C1815 C1819 1.390 1_565 S
C1816 H1805 0.950 . S
C1816 C1814 1.391 . S
C1816 C1817 1.400 1_565 S
C1817 C1811 1.490 . S
C1817 C1816 1.400 1_545 S
C1817 C1818 1.398 . S
C1818 H1806 0.950 . S
C1818 C1817 1.398 . S
C1818 C1819 1.391 . S
C1819 H1807 0.950 . S
C1819 C1815 1.390 1_545 S
C1819 C1818 1.391 . S
H1820 C1828 0.950 . S
H1821 C1833 0.950 . S
H1822 C1830 0.950 . S
H1823 C1832 0.950 . S
H1824 C1834 0.950 . S
H1825 C1836 0.950 . S
H1826 C1838 0.950 . S
H1827 C1839 0.950 . S
C1828 H1820 0.950 . S
C1828 C1829 1.390 . S
C1828 C1830 1.391 . S
C1829 C1828 1.390 . S
C1829 C1833 1.388 1_455 S
C1830 H1822 0.950 . S
C1830 C1828 1.391 . S
C1830 C1831 1.411 . S
C1831 C1830 1.411 . S
C1831 C1832 1.387 1_455 S
C1831 C1837 1.493 . S
C1832 H1823 0.950 . S
C1832 C1831 1.387 1_655 S
C1832 C1833 1.391 . S
C1833 H1821 0.950 . S
C1833 C1829 1.388 1_655 S
C1833 C1832 1.391 . S
C1834 H1824 0.950 . S
C1834 C1835 1.386 1_655 S
C1834 C1836 1.391 . S
C1835 C1834 1.386 1_455 S
C1835 C1839 1.393 . S
C1836 H1825 0.950 . S
C1836 C1834 1.391 . S
C1836 C1837 1.400 1_655 S
C1837 C1831 1.493 . S
C1837 C1836 1.400 1_455 S
C1837 C1838 1.398 . S
C1838 H1826 0.950 . S
C1838 C1837 1.398 . S
C1838 C1839 1.391 . S
C1839 H1827 0.950 . S
C1839 C1835 1.393 . S
C1839 C1838 1.391 . S
H1840 C1848 0.950 . S
H1841 C1853 0.950 . S
H1842 C1850 0.950 . S
H1843 C1852 0.950 . S
H1844 C1854 0.950 . S
H1845 C1856 0.950 . S
H1846 C1858 0.950 . S
H1847 C1859 0.950 . S
C1848 H1840 0.950 . S
C1848 C1849 1.342 1_565 S
C1848 C1850 1.391 . S
C1849 C1848 1.342 1_545 S
C1849 C1853 1.437 . S
C1850 H1842 0.950 . S
C1850 C1848 1.391 . S
C1850 C1851 1.369 1_565 S
C1851 C1850 1.369 1_545 S
C1851 C1852 1.430 . S
C1851 C1857 1.490 . S
C1852 H1843 0.950 . S
C1852 C1851 1.430 . S
C1852 C1853 1.391 . S
C1853 H1841 0.950 . S
C1853 C1849 1.437 . S
C1853 C1852 1.391 . S
C1854 H1844 0.950 . S
C1854 C1855 1.385 . S
C1854 C1856 1.391 . S
C1855 C1854 1.385 . S
C1855 C1859 1.393 1_545 S
C1856 H1845 0.950 . S
C1856 C1854 1.391 . S
C1856 C1857 1.412 . S
C1857 C1851 1.490 . S
C1857 C1856 1.412 . S
C1857 C1858 1.386 1_545 S
C1858 H1846 0.950 . S
C1858 C1857 1.386 1_565 S
C1858 C1859 1.391 . S
C1859 H1847 0.950 . S
C1859 C1855 1.393 1_565 S
C1859 C1858 1.391 . S
H1860 C1868 0.950 . S
H1861 C1873 0.950 . S
H1862 C1870 0.950 . S
H1863 C1872 0.950 . S
H1864 C1874 0.950 . S
H1865 C1876 0.950 . S
H1866 C1878 0.950 . S
H1867 C1879 0.950 . S
C1868 H1860 0.950 . S
C1868 C1869 1.386 . S
C1868 C1870 1.391 . S
C1869 C1868 1.386 . S
C1869 C1873 1.393 1_455 S
C1870 H1862 0.950 . S
C1870 C1868 1.391 . S
C1870 C1871 1.400 . S
C1871 C1870 1.400 . S
C1871 C1872 1.398 1_455 S
C1871 C1877 1.493 . S
C1872 H1863 0.950 . S
C1872 C1871 1.398 1_655 S
C1872 C1873 1.391 . S
C1873 H1861 0.950 . S
C1873 C1869 1.393 1_655 S
C1873 C1872 1.391 . S
C1874 H1864 0.950 . S
C1874 C1875 1.380 1_655 S
C1874 C1876 1.391 . S
C1875 C1874 1.380 1_455 S
C1875 C1879 1.399 . S
C1876 H1865 0.950 . S
C1876 C1874 1.391 . S
C1876 C1877 1.392 1_655 S
C1877 C1871 1.493 . S
C1877 C1876 1.392 1_455 S
C1877 C1878 1.406 . S
C1878 H1866 0.950 . S
C1878 C1877 1.406 . S
C1878 C1879 1.391 . S
C1879 H1867 0.950 . S
C1879 C1875 1.399 . S
C1879 C1878 1.391 . S
H1880 C1888 0.950 . S
H1881 C1893 0.950 . S
H1882 C1890 0.950 . S
H1883 C1892 0.950 . S
H1884 C1894 0.950 . S
H1885 C1896 0.950 . S
H1886 C1898 0.950 . S
H1887 C1899 0.950 . S
C1888 H1880 0.950 . S
C1888 C1889 1.386 . S
C1888 C1890 1.391 . S
C1889 C1888 1.386 . S
C1889 C1893 1.393 1_545 S
C1890 H1882 0.950 . S
C1890 C1888 1.391 . S
C1890 C1891 1.426 . S
C1891 C1890 1.426 . S
C1891 C1892 1.376 1_545 S
C1891 C1897 1.490 . S
C1892 H1883 0.950 . S
C1892 C1891 1.376 1_565 S
C1892 C1893 1.391 . S
C1893 H1881 0.950 . S
C1893 C1889 1.393 1_565 S
C1893 C1892 1.391 . S
C1894 H1884 0.950 . S
C1894 C1895 1.385 . S
C1894 C1896 1.391 . S
C1895 C1894 1.385 . S
C1895 C1899 1.393 1_565 S
C1896 H1885 0.950 . S
C1896 C1894 1.391 . S
C1896 C1897 1.395 1_565 S
C1897 C1891 1.490 . S
C1897 C1896 1.395 1_545 S
C1897 C1898 1.403 . S
C1898 H1886 0.950 . S
C1898 C1897 1.403 . S
C1898 C1899 1.391 . S
C1899 H1887 0.950 . S
C1899 C1895 1.393 1_545 S
C1899 C1898 1.391 . S
H1900 C1908 0.950 . S
H1901 C1913 0.950 . S
H1902 C1910 0.950 . S
H1903 C1912 0.950 . S
H1904 C1914 0.950 . S
H1905 C1916 0.950 . S
H1906 C1918 0.950 . S
H1907 C1919 0.950 . S
C1908 H1900 0.950 . S
C1908 C1909 1.387 . S
C1908 C1910 1.391 . S
C1909 C1908 1.387 . S
C1909 C1913 1.391 1_565 S
C1910 H1902 0.950 . S
C1910 C1908 1.391 . S
C1910 C1911 1.399 1_565 S
C1911 C1910 1.399 1_545 S
C1911 C1912 1.399 . S
C1911 C1917 1.490 . S
C1912 H1903 0.950 . S
C1912 C1911 1.399 . S
C1912 C1913 1.391 . S
C1913 H1901 0.950 . S
C1913 C1909 1.391 1_545 S
C1913 C1912 1.391 . S
C1914 H1904 0.950 . S
C1914 C1915 1.386 . S
C1914 C1916 1.391 . S
C1915 C1914 1.386 . S
C1915 C1919 1.393 1_545 S
C1916 H1905 0.950 . S
C1916 C1914 1.391 . S
C1916 C1917 1.415 . S
C1917 C1911 1.490 . S
C1917 C1916 1.415 . S
C1917 C1918 1.388 1_545 S
C1918 H1906 0.950 . S
C1918 C1917 1.388 1_565 S
C1918 C1919 1.391 . S
C1919 H1907 0.950 . S
C1919 C1915 1.393 1_565 S
C1919 C1918 1.391 . S
H1920 C1928 0.950 . S
H1921 C1933 0.950 . S
H1922 C1930 0.950 . S
H1923 C1932 0.950 . S
H1924 C1934 0.950 . S
H1925 C1936 0.950 . S
H1926 C1938 0.950 . S
H1927 C1939 0.950 . S
C1928 H1920 0.950 . S
C1928 C1929 1.386 . S
C1928 C1930 1.391 . S
C1929 C1928 1.386 . S
C1929 C1933 1.392 1_455 S
C1930 H1922 0.950 . S
C1930 C1928 1.391 . S
C1930 C1931 1.408 . S
C1931 C1930 1.408 . S
C1931 C1932 1.390 1_455 S
C1931 C1937 1.491 . S
C1932 H1923 0.950 . S
C1932 C1931 1.390 1_655 S
C1932 C1933 1.391 . S
C1933 H1921 0.950 . S
C1933 C1929 1.392 1_655 S
C1933 C1932 1.391 . S
C1934 H1924 0.950 . S
C1934 C1935 1.386 1_655 S
C1934 C1936 1.391 . S
C1935 C1934 1.386 1_455 S
C1935 C1939 1.393 . S
C1936 H1925 0.950 . S
C1936 C1934 1.391 . S
C1936 C1937 1.400 1_655 S
C1937 C1931 1.491 . S
C1937 C1936 1.400 1_455 S
C1937 C1938 1.398 . S
C1938 H1926 0.950 . S
C1938 C1937 1.398 . S
C1938 C1939 1.391 . S
C1939 H1927 0.950 . S
C1939 C1935 1.393 . S
C1939 C1938 1.391 . S
H1940 C1948 0.950 . S
H1941 C1953 0.950 . S
H1942 C1950 0.950 . S
H1943 C1952 0.950 . S
H1944 C1954 0.950 . S
H1945 C1956 0.950 . S
H1946 C1958 0.950 . S
H1947 C1959 0.950 . S
C1948 H1940 0.950 . S
C1948 C1949 1.387 1_565 S
C1948 C1950 1.391 . S
C1949 C1948 1.387 1_545 S
C1949 C1953 1.392 . S
C1950 H1942 0.950 . S
C1950 C1948 1.391 . S
C1950 C1951 1.392 1_565 S
C1951 C1950 1.392 1_545 S
C1951 C1952 1.406 . S
C1951 C1957 1.490 . S
C1952 H1943 0.950 . S
C1952 C1951 1.406 . S
C1952 C1953 1.391 . S
C1953 H1941 0.950 . S
C1953 C1949 1.392 . S
C1953 C1952 1.391 . S
C1954 H1944 0.950 . S
C1954 C1955 1.386 . S
C1954 C1956 1.391 . S
C1955 C1954 1.386 . S
C1955 C1959 1.393 1_545 S
C1956 H1945 0.950 . S
C1956 C1954 1.391 . S
C1956 C1957 1.429 . S
C1957 C1951 1.490 . S
C1957 C1956 1.429 . S
C1957 C1958 1.372 1_545 S
C1958 H1946 0.950 . S
C1958 C1957 1.372 1_565 S
C1958 C1959 1.391 . S
C1959 H1947 0.950 . S
C1959 C1955 1.393 1_565 S
C1959 C1958 1.391 . S
H1960 C1968 0.950 . S
H1961 C1973 0.950 . S
H1962 C1970 0.950 . S
H1963 C1972 0.950 . S
H1964 C1974 0.950 . S
H1965 C1976 0.950 . S
H1966 C1978 0.950 . S
H1967 C1979 0.950 . S
C1968 H1960 0.950 . S
C1968 C1969 1.386 . S
C1968 C1970 1.391 . S
C1969 C1968 1.386 . S
C1969 C1973 1.393 1_455 S
C1970 H1962 0.950 . S
C1970 C1968 1.391 . S
C1970 C1971 1.400 . S
C1971 C1970 1.400 . S
C1971 C1972 1.398 1_455 S
C1971 C1977 1.491 . S
C1972 H1963 0.950 . S
C1972 C1971 1.398 1_655 S
C1972 C1973 1.391 . S
C1973 H1961 0.950 . S
C1973 C1969 1.393 1_655 S
C1973 C1972 1.391 . S
C1974 H1964 0.950 . S
C1974 C1975 1.378 1_655 S
C1974 C1976 1.391 . S
C1975 C1974 1.378 1_455 S
C1975 C1979 1.400 . S
C1976 H1965 0.950 . S
C1976 C1974 1.391 . S
C1976 C1977 1.383 1_655 S
C1977 C1971 1.491 . S
C1977 C1976 1.383 1_455 S
C1977 C1978 1.415 . S
C1978 H1966 0.950 . S
C1978 C1977 1.415 . S
C1978 C1979 1.391 . S
C1979 H1967 0.950 . S
C1979 C1975 1.400 . S
C1979 C1978 1.391 . S
H1980 C1988 0.950 . S
H1981 C1993 0.950 . S
H1982 C1990 0.950 . S
H1983 C1992 0.950 . S
H1984 C1994 0.950 . S
H1985 C1996 0.950 . S
H1986 C1998 0.950 . S
H1987 C1999 0.950 . S
C1988 H1980 0.950 . S
C1988 C1989 1.388 1_545 S
C1988 C1990 1.391 . S
C1989 C1988 1.388 1_565 S
C1989 C1993 1.390 . S
C1990 H1982 0.950 . S
C1990 C1988 1.391 . S
C1990 C1991 1.407 . S
C1991 C1990 1.407 . S
C1991 C1992 1.391 1_545 S
C1991 C1997 1.491 . S
C1992 H1983 0.950 . S
C1992 C1991 1.391 1_565 S
C1992 C1993 1.391 . S
C1993 H1981 0.950 . S
C1993 C1989 1.390 . S
C1993 C1992 1.391 . S
C1994 H1984 0.950 . S
C1994 C1995 1.386 1_565 S
C1994 C1996 1.391 . S
C1995 C1994 1.386 1_545 S
C1995 C1999 1.393 . S
C1996 H1985 0.950 . S
C1996 C1994 1.391 . S
C1996 C1997 1.400 1_565 S
C1997 C1991 1.491 . S
C1997 C1996 1.400 1_545 S
C1997 C1998 1.398 . S
C1998 H1986 0.950 . S
C1998 C1997 1.398 . S
C1998 C1999 1.391 . S
C1999 H1987 0.950 . S
C1999 C1995 1.393 . S
C1999 C1998 1.391 . S
H2000 C2008 0.950 . S
H2001 C2013 0.950 . S
H2002 C2010 0.950 . S
H2003 C2012 0.950 . S
H2004 C2014 0.950 . S
H2005 C2016 0.950 . S
H2006 C2018 0.950 . S
H2007 C2019 0.950 . S
C2008 H2000 0.950 . S
C2008 C2009 1.387 . S
C2008 C2010 1.391 . S
C2009 C2008 1.387 . S
C2009 C2013 1.391 1_455 S
C2010 H2002 0.950 . S
C2010 C2008 1.391 . S
C2010 C2011 1.407 . S
C2011 C2010 1.407 . S
C2011 C2012 1.391 1_455 S
C2011 C2017 1.492 . S
C2012 H2003 0.950 . S
C2012 C2011 1.391 1_655 S
C2012 C2013 1.391 . S
C2013 H2001 0.950 . S
C2013 C2009 1.391 1_655 S
C2013 C2012 1.391 . S
C2014 H2004 0.950 . S
C2014 C2015 1.386 1_655 S
C2014 C2016 1.391 . S
C2015 C2014 1.386 1_455 S
C2015 C2019 1.393 . S
C2016 H2005 0.950 . S
C2016 C2014 1.391 . S
C2016 C2017 1.400 1_655 S
C2017 C2011 1.492 . S
C2017 C2016 1.400 1_455 S
C2017 C2018 1.398 . S
C2018 H2006 0.950 . S
C2018 C2017 1.398 . S
C2018 C2019 1.391 . S
C2019 H2007 0.950 . S
C2019 C2015 1.393 . S
C2019 C2018 1.391 . S
H2020 C2028 0.950 . S
H2021 C2033 0.950 . S
H2022 C2030 0.950 . S
H2023 C2032 0.950 . S
H2024 C2034 0.950 . S
H2025 C2036 0.950 . S
H2026 C2038 0.950 . S
H2027 C2039 0.950 . S
C2028 H2020 0.950 . S
C2028 C2029 1.386 1_565 S
C2028 C2030 1.391 . S
C2029 C2028 1.386 1_545 S
C2029 C2033 1.392 . S
C2030 H2022 0.950 . S
C2030 C2028 1.391 . S
C2030 C2031 1.396 1_565 S
C2031 C2030 1.396 1_545 S
C2031 C2032 1.402 . S
C2031 C2037 1.491 . S
C2032 H2023 0.950 . S
C2032 C2031 1.402 . S
C2032 C2033 1.391 . S
C2033 H2021 0.950 . S
C2033 C2029 1.392 . S
C2033 C2032 1.391 . S
C2034 H2024 0.950 . S
C2034 C2035 1.386 . S
C2034 C2036 1.391 . S
C2035 C2034 1.386 . S
C2035 C2039 1.393 1_545 S
C2036 H2025 0.950 . S
C2036 C2034 1.391 . S
C2036 C2037 1.400 . S
C2037 C2031 1.491 . S
C2037 C2036 1.400 . S
C2037 C2038 1.398 1_545 S
C2038 H2026 0.950 . S
C2038 C2037 1.398 1_565 S
C2038 C2039 1.391 . S
C2039 H2027 0.950 . S
C2039 C2035 1.393 1_565 S
C2039 C2038 1.391 . S
H2040 C2048 0.950 . S
H2041 C2053 0.950 . S
H2042 C2050 0.950 . S
H2043 C2052 0.950 . S
H2044 C2054 0.950 . S
H2045 C2056 0.950 . S
H2046 C2058 0.950 . S
H2047 C2059 0.950 . S
C2048 H2040 0.950 . S
C2048 C2049 1.357 1_655 S
C2048 C2050 1.391 . S
C2049 C2048 1.357 1_455 S
C2049 C2053 1.421 . S
C2050 H2042 0.950 . S
C2050 C2048 1.391 . S
C2050 C2051 1.370 1_655 S
C2051 C2050 1.370 1_455 S
C2051 C2052 1.429 . S
C2051 C2057 1.491 . S
C2052 H2043 0.950 . S
C2052 C2051 1.429 . S
C2052 C2053 1.391 . S
C2053 H2041 0.950 . S
C2053 C2049 1.421 . S
C2053 C2052 1.391 . S
C2054 H2044 0.950 . S
C2054 C2055 1.386 . S
C2054 C2056 1.391 . S
C2055 C2054 1.386 . S
C2055 C2059 1.393 1_455 S
C2056 H2045 0.950 . S
C2056 C2054 1.391 . S
C2056 C2057 1.443 . S
C2057 C2051 1.491 . S
C2057 C2056 1.443 . S
C2057 C2058 1.357 1_455 S
C2058 H2046 0.950 . S
C2058 C2057 1.357 1_655 S
C2058 C2059 1.391 . S
C2059 H2047 0.950 . S
C2059 C2055 1.393 1_655 S
C2059 C2058 1.391 . S
H2060 C2068 0.950 . S
H2061 C2073 0.950 1_556 S
H2062 C2070 0.950 . S
H2063 C2072 0.950 1_556 S
H2064 C2074 0.950 . S
H2065 C2076 0.950 . S
H2066 C2078 0.950 . S
H2067 C2079 0.950 . S
C2068 H2060 0.950 . S
C2068 C2069 1.386 . S
C2068 C2070 1.391 . S
C2069 C2068 1.386 . S
C2069 C2073 1.392 . S
C2070 H2062 0.950 . S
C2070 C2068 1.391 . S
C2070 C2071 1.400 . S
C2071 C2070 1.400 . S
C2071 C2072 1.399 . S
C2071 C2077 1.491 . S
C2072 H2063 0.950 1_554 S
C2072 C2071 1.399 . S
C2072 C2073 1.391 . S
C2073 H2061 0.950 1_554 S
C2073 C2069 1.392 . S
C2073 C2072 1.391 . S
C2074 H2064 0.950 . S
C2074 C2075 1.386 1_556 S
C2074 C2076 1.391 . S
C2075 C2074 1.386 1_554 S
C2075 C2079 1.392 . S
C2076 H2065 0.950 . S
C2076 C2074 1.391 . S
C2076 C2077 1.399 1_556 S
C2077 C2071 1.491 . S
C2077 C2076 1.399 1_554 S
C2077 C2078 1.399 . S
C2078 H2066 0.950 . S
C2078 C2077 1.399 . S
C2078 C2079 1.391 . S
C2079 H2067 0.950 . S
C2079 C2075 1.392 . S
C2079 C2078 1.391 . S
H2080 C2088 0.950 . S
H2081 C2093 0.950 . S
H2082 C2090 0.950 . S
H2083 C2092 0.950 . S
H2084 C2094 0.950 . S
H2085 C2096 0.950 . S
H2086 C2098 0.950 . S
H2087 C2099 0.950 . S
C2088 H2080 0.950 . S
C2088 C2089 1.386 1_556 S
C2088 C2090 1.391 . S
C2089 C2088 1.386 1_554 S
C2089 C2093 1.393 . S
C2090 H2082 0.950 . S
C2090 C2088 1.391 . S
C2090 C2091 1.400 1_556 S
C2091 C2090 1.400 1_554 S
C2091 C2092 1.398 . S
C2091 C2097 1.491 . S
C2092 H2083 0.950 . S
C2092 C2091 1.398 . S
C2092 C2093 1.391 . S
C2093 H2081 0.950 . S
C2093 C2089 1.393 . S
C2093 C2092 1.391 . S
C2094 H2084 0.950 . S
C2094 C2095 1.386 1_554 S
C2094 C2096 1.391 . S
C2095 C2094 1.386 1_556 S
C2095 C2099 1.392 . S
C2096 H2085 0.950 . S
C2096 C2094 1.391 . S
C2096 C2097 1.403 . S
C2097 C2091 1.491 . S
C2097 C2096 1.403 . S
C2097 C2098 1.396 1_554 S
C2098 H2086 0.950 . S
C2098 C2097 1.396 1_556 S
C2098 C2099 1.391 . S
C2099 H2087 0.950 . S
C2099 C2095 1.392 . S
C2099 C2098 1.391 . S
H2100 C2108 0.950 . S
H2101 C2113 0.950 . S
H2102 C2110 0.950 . S
H2103 C2112 0.950 . S
H2104 C2114 0.950 . S
H2105 C2116 0.950 . S
H2106 C2118 0.950 . S
H2107 C2119 0.950 . S
C2108 H2100 0.950 . S
C2108 C2109 1.370 1_556 S
C2108 C2110 1.391 . S
C2109 C2108 1.370 1_554 S
C2109 C2113 1.408 . S
C2110 H2102 0.950 . S
C2110 C2108 1.391 . S
C2110 C2111 1.385 1_556 S
C2111 C2110 1.385 1_554 S
C2111 C2112 1.414 . S
C2111 C2117 1.491 . S
C2112 H2103 0.950 . S
C2112 C2111 1.414 . S
C2112 C2113 1.391 . S
C2113 H2101 0.950 . S
C2113 C2109 1.408 . S
C2113 C2112 1.391 . S
C2114 H2104 0.950 . S
C2114 C2115 1.410 . S
C2114 C2116 1.391 . S
C2115 C2114 1.410 . S
C2115 C2119 1.369 1_554 S
C2116 H2105 0.950 . S
C2116 C2114 1.391 . S
C2116 C2117 1.424 . S
C2117 C2111 1.491 . S
C2117 C2116 1.424 . S
C2117 C2118 1.375 1_554 S
C2118 H2106 0.950 . S
C2118 C2117 1.375 1_556 S
C2118 C2119 1.391 . S
C2119 H2107 0.950 . S
C2119 C2115 1.369 1_556 S
C2119 C2118 1.391 . S
H2120 C2128 0.950 . S
H2121 C2133 0.950 . S
H2122 C2130 0.950 . S
H2123 C2132 0.950 . S
H2124 C2134 0.950 . S
H2125 C2136 0.950 . S
H2126 C2138 0.950 . S
H2127 C2139 0.950 . S
C2128 H2120 0.950 . S
C2128 C2129 1.388 1_556 S
C2128 C2130 1.391 . S
C2129 C2128 1.388 1_554 S
C2129 C2133 1.391 . S
C2130 H2122 0.950 . S
C2130 C2128 1.391 . S
C2130 C2131 1.394 1_556 S
C2131 C2130 1.394 1_554 S
C2131 C2132 1.404 . S
C2131 C2137 1.491 . S
C2132 H2123 0.950 . S
C2132 C2131 1.404 . S
C2132 C2133 1.391 . S
C2133 H2121 0.950 . S
C2133 C2129 1.391 . S
C2133 C2132 1.391 . S
C2134 H2124 0.950 . S
C2134 C2135 1.386 . S
C2134 C2136 1.391 . S
C2135 C2134 1.386 . S
C2135 C2139 1.393 1_554 S
C2136 H2125 0.950 . S
C2136 C2134 1.391 . S
C2136 C2137 1.400 . S
C2137 C2131 1.491 . S
C2137 C2136 1.400 . S
C2137 C2138 1.398 1_554 S
C2138 H2126 0.950 . S
C2138 C2137 1.398 1_556 S
C2138 C2139 1.391 . S
C2139 H2127 0.950 . S
C2139 C2135 1.393 1_556 S
C2139 C2138 1.391 . S
H2140 C2148 0.950 . S
H2141 C2153 0.950 . S
H2142 C2150 0.950 . S
H2143 C2152 0.950 . S
H2144 C2154 0.950 . S
H2145 C2156 0.950 . S
H2146 C2158 0.950 . S
H2147 C2159 0.950 . S
C2148 H2140 0.950 . S
C2148 C2149 1.400 . S
C2148 C2150 1.391 . S
C2149 C2148 1.400 . S
C2149 C2153 1.378 1_554 S
C2150 H2142 0.950 . S
C2150 C2148 1.391 . S
C2150 C2151 1.412 . S
C2151 C2150 1.412 . S
C2151 C2152 1.387 1_554 S
C2151 C2157 1.491 . S
C2152 H2143 0.950 . S
C2152 C2151 1.387 1_556 S
C2152 C2153 1.391 . S
C2153 H2141 0.950 . S
C2153 C2149 1.378 1_556 S
C2153 C2152 1.391 . S
C2154 H2144 0.950 . S
C2154 C2155 1.383 1_556 S
C2154 C2156 1.391 . S
C2155 C2154 1.383 1_554 S
C2155 C2159 1.395 . S
C2156 H2145 0.950 . S
C2156 C2154 1.391 . S
C2156 C2157 1.395 1_556 S
C2157 C2151 1.491 . S
C2157 C2156 1.395 1_554 S
C2157 C2158 1.403 . S
C2158 H2146 0.950 . S
C2158 C2157 1.403 . S
C2158 C2159 1.391 . S
C2159 H2147 0.950 . S
C2159 C2155 1.395 . S
C2159 C2158 1.391 . S
H2160 C2168 0.950 . S
H2161 C2173 0.950 . S
H2162 C2170 0.950 . S
H2163 C2172 0.950 . S
H2164 C2174 0.950 . S
H2165 C2176 0.950 . S
H2166 C2178 0.950 . S
H2167 C2179 0.950 . S
C2168 H2160 0.950 . S
C2168 C2169 1.383 . S
C2168 C2170 1.391 . S
C2169 C2168 1.383 . S
C2169 C2173 1.395 1_556 S
C2170 H2162 0.950 . S
C2170 C2168 1.391 . S
C2170 C2171 1.393 1_556 S
C2171 C2170 1.393 1_554 S
C2171 C2172 1.405 . S
C2171 C2177 1.490 . S
C2172 H2163 0.950 . S
C2172 C2171 1.405 . S
C2172 C2173 1.391 . S
C2173 H2161 0.950 . S
C2173 C2169 1.395 1_554 S
C2173 C2172 1.391 . S
C2174 H2164 0.950 . S
C2174 C2175 1.386 . S
C2174 C2176 1.391 . S
C2175 C2174 1.386 . S
C2175 C2179 1.393 1_554 S
C2176 H2165 0.950 . S
C2176 C2174 1.391 . S
C2176 C2177 1.429 . S
C2177 C2171 1.490 . S
C2177 C2176 1.429 . S
C2177 C2178 1.372 1_554 S
C2178 H2166 0.950 . S
C2178 C2177 1.372 1_556 S
C2178 C2179 1.391 . S
C2179 H2167 0.950 . S
C2179 C2175 1.393 1_556 S
C2179 C2178 1.391 . S
H2180 C2188 0.950 . S
H2181 C2193 0.950 . S
H2182 C2190 0.950 . S
H2183 C2192 0.950 . S
H2184 C2194 0.950 . S
H2185 C2196 0.950 . S
H2186 C2198 0.950 . S
H2187 C2199 0.950 . S
C2188 H2180 0.950 . S
C2188 C2189 1.382 . S
C2188 C2190 1.391 . S
C2189 C2188 1.382 . S
C2189 C2193 1.397 1_554 S
C2190 H2182 0.950 . S
C2190 C2188 1.391 . S
C2190 C2191 1.403 . S
C2191 C2190 1.403 . S
C2191 C2192 1.395 1_554 S
C2191 C2197 1.490 . S
C2192 H2183 0.950 . S
C2192 C2191 1.395 1_556 S
C2192 C2193 1.391 . S
C2193 H2181 0.950 . S
C2193 C2189 1.397 1_556 S
C2193 C2192 1.391 . S
C2194 H2184 0.950 . S
C2194 C2195 1.359 1_556 S
C2194 C2196 1.391 . S
C2195 C2194 1.359 1_554 S
C2195 C2199 1.419 . S
C2196 H2185 0.950 . S
C2196 C2194 1.391 . S
C2196 C2197 1.381 1_556 S
C2197 C2191 1.490 . S
C2197 C2196 1.381 1_554 S
C2197 C2198 1.418 . S
C2198 H2186 0.950 . S
C2198 C2197 1.418 . S
C2198 C2199 1.391 . S
C2199 H2187 0.950 . S
C2199 C2195 1.419 . S
C2199 C2198 1.391 . S
H2200 C2208 0.950 . S
H2201 C2213 0.950 . S
H2202 C2210 0.950 . S
H2203 C2212 0.950 . S
H2204 C2214 0.950 . S
H2205 C2216 0.950 . S
H2206 C2218 0.950 . S
H2207 C2219 0.950 . S
C2208 H2200 0.950 . S
C2208 C2209 1.386 . S
C2208 C2210 1.391 . S
C2209 C2208 1.386 . S
C2209 C2213 1.393 1_554 S
C2210 H2202 0.950 . S
C2210 C2208 1.391 . S
C2210 C2211 1.422 . S
C2211 C2210 1.422 . S
C2211 C2212 1.378 1_554 S
C2211 C2217 1.490 . S
C2212 H2203 0.950 . S
C2212 C2211 1.378 1_556 S
C2212 C2213 1.391 . S
C2213 H2201 0.950 . S
C2213 C2209 1.393 1_556 S
C2213 C2212 1.391 . S
C2214 H2204 0.950 . S
C2214 C2215 1.388 . S
C2214 C2216 1.391 . S
C2215 C2214 1.388 . S
C2215 C2219 1.391 1_556 S
C2216 H2205 0.950 . S
C2216 C2214 1.391 . S
C2216 C2217 1.399 1_556 S
C2217 C2211 1.490 . S
C2217 C2216 1.399 1_554 S
C2217 C2218 1.399 . S
C2218 H2206 0.950 . S
C2218 C2217 1.399 . S
C2218 C2219 1.391 . S
C2219 H2207 0.950 . S
C2219 C2215 1.391 1_554 S
C2219 C2218 1.391 . S
H2220 C2228 0.950 . S
H2221 C2233 0.950 . S
H2222 C2230 0.950 . S
H2223 C2232 0.950 . S
H2224 C2234 0.950 . S
H2225 C2236 0.950 . S
H2226 C2238 0.950 . S
H2227 C2239 0.950 . S
C2228 H2220 0.950 . S
C2228 C2229 1.386 . S
C2228 C2230 1.391 . S
C2229 C2228 1.386 . S
C2229 C2233 1.393 . S
C2230 H2222 0.950 . S
C2230 C2228 1.391 . S
C2230 C2231 1.400 . S
C2231 C2230 1.400 . S
C2231 C2232 1.398 . S
C2231 C2237 1.491 . S
C2232 H2223 0.950 . S
C2232 C2231 1.398 . S
C2232 C2233 1.391 . S
C2233 H2221 0.950 . S
C2233 C2229 1.393 . S
C2233 C2232 1.391 . S
C2234 H2224 0.950 . S
C2234 C2235 1.386 . S
C2234 C2236 1.391 . S
C2235 C2234 1.386 . S
C2235 C2239 1.393 . S
C2236 H2225 0.950 . S
C2236 C2234 1.391 . S
C2236 C2237 1.400 . S
C2237 C2231 1.491 . S
C2237 C2236 1.400 . S
C2237 C2238 1.398 . S
C2238 H2226 0.950 . S
C2238 C2237 1.398 . S
C2238 C2239 1.391 . S
C2239 H2227 0.950 . S
C2239 C2235 1.393 . S
C2239 C2238 1.391 . S
H2240 C2248 0.950 . S
H2241 C2253 0.950 . S
H2242 C2250 0.950 . S
H2243 C2252 0.950 . S
H2244 C2254 0.950 . S
H2245 C2256 0.950 . S
H2246 C2258 0.950 . S
H2247 C2259 0.950 . S
C2248 H2240 0.950 . S
C2248 C2249 1.386 . S
C2248 C2250 1.391 . S
C2249 C2248 1.386 . S
C2249 C2253 1.393 . S
C2250 H2242 0.950 . S
C2250 C2248 1.391 . S
C2250 C2251 1.400 . S
C2251 C2250 1.400 . S
C2251 C2252 1.398 . S
C2251 C2257 1.491 . S
C2252 H2243 0.950 . S
C2252 C2251 1.398 . S
C2252 C2253 1.391 . S
C2253 H2241 0.950 . S
C2253 C2249 1.393 . S
C2253 C2252 1.391 . S
C2254 H2244 0.950 . S
C2254 C2255 1.386 . S
C2254 C2256 1.391 . S
C2255 C2254 1.386 . S
C2255 C2259 1.393 . S
C2256 H2245 0.950 . S
C2256 C2254 1.391 . S
C2256 C2257 1.400 . S
C2257 C2251 1.491 . S
C2257 C2256 1.400 . S
C2257 C2258 1.398 . S
C2258 H2246 0.950 . S
C2258 C2257 1.398 . S
C2258 C2259 1.391 . S
C2259 H2247 0.950 . S
C2259 C2255 1.393 . S
C2259 C2258 1.391 . S
H2260 C2268 0.950 . S
H2261 C2273 0.950 . S
H2262 C2270 0.950 . S
H2263 C2272 0.950 . S
H2264 C2274 0.950 . S
H2265 C2276 0.950 . S
H2266 C2278 0.950 . S
H2267 C2279 0.950 . S
C2268 H2260 0.950 . S
C2268 C2269 1.386 . S
C2268 C2270 1.391 . S
C2269 C2268 1.386 . S
C2269 C2273 1.393 . S
C2270 H2262 0.950 . S
C2270 C2268 1.391 . S
C2270 C2271 1.400 . S
C2271 C2270 1.400 . S
C2271 C2272 1.398 . S
C2271 C2277 1.491 . S
C2272 H2263 0.950 . S
C2272 C2271 1.398 . S
C2272 C2273 1.391 . S
C2273 H2261 0.950 . S
C2273 C2269 1.393 . S
C2273 C2272 1.391 . S
C2274 H2264 0.950 . S
C2274 C2275 1.386 . S
C2274 C2276 1.391 . S
C2275 C2274 1.386 . S
C2275 C2279 1.393 . S
C2276 H2265 0.950 . S
C2276 C2274 1.391 . S
C2276 C2277 1.400 . S
C2277 C2271 1.491 . S
C2277 C2276 1.400 . S
C2277 C2278 1.398 . S
C2278 H2266 0.950 . S
C2278 C2277 1.398 . S
C2278 C2279 1.391 . S
C2279 H2267 0.950 . S
C2279 C2275 1.393 . S
C2279 C2278 1.391 . S
H2280 C2288 0.950 . S
H2281 C2293 0.950 . S
H2282 C2290 0.950 . S
H2283 C2292 0.950 . S
H2284 C2294 0.950 . S
H2285 C2296 0.950 . S
H2286 C2298 0.950 . S
H2287 C2299 0.950 . S
C2288 H2280 0.950 . S
C2288 C2289 1.386 . S
C2288 C2290 1.391 . S
C2289 C2288 1.386 . S
C2289 C2293 1.393 . S
C2290 H2282 0.950 . S
C2290 C2288 1.391 . S
C2290 C2291 1.400 . S
C2291 C2290 1.400 . S
C2291 C2292 1.398 . S
C2291 C2297 1.491 . S
C2292 H2283 0.950 . S
C2292 C2291 1.398 . S
C2292 C2293 1.391 . S
C2293 H2281 0.950 . S
C2293 C2289 1.393 . S
C2293 C2292 1.391 . S
C2294 H2284 0.950 . S
C2294 C2295 1.386 . S
C2294 C2296 1.391 . S
C2295 C2294 1.386 . S
C2295 C2299 1.393 . S
C2296 H2285 0.950 . S
C2296 C2294 1.391 . S
C2296 C2297 1.400 . S
C2297 C2291 1.491 . S
C2297 C2296 1.400 . S
C2297 C2298 1.398 . S
C2298 H2286 0.950 . S
C2298 C2297 1.398 . S
C2298 C2299 1.391 . S
C2299 H2287 0.950 . S
C2299 C2295 1.393 . S
C2299 C2298 1.391 . S
H2300 C2308 0.950 . S
H2301 C2313 0.950 . S
H2302 C2310 0.950 . S
H2303 C2312 0.950 . S
H2304 C2314 0.950 . S
H2305 C2316 0.950 . S
H2306 C2318 0.950 . S
H2307 C2319 0.950 . S
C2308 H2300 0.950 . S
C2308 C2309 1.386 . S
C2308 C2310 1.391 . S
C2309 C2308 1.386 . S
C2309 C2313 1.393 . S
C2310 H2302 0.950 . S
C2310 C2308 1.391 . S
C2310 C2311 1.400 . S
C2311 C2310 1.400 . S
C2311 C2312 1.398 . S
C2311 C2317 1.491 . S
C2312 H2303 0.950 . S
C2312 C2311 1.398 . S
C2312 C2313 1.391 . S
C2313 H2301 0.950 . S
C2313 C2309 1.393 . S
C2313 C2312 1.391 . S
C2314 H2304 0.950 . S
C2314 C2315 1.386 . S
C2314 C2316 1.391 . S
C2315 C2314 1.386 . S
C2315 C2319 1.393 . S
C2316 H2305 0.950 . S
C2316 C2314 1.391 . S
C2316 C2317 1.400 . S
C2317 C2311 1.491 . S
C2317 C2316 1.400 . S
C2317 C2318 1.398 . S
C2318 H2306 0.950 . S
C2318 C2317 1.398 . S
C2318 C2319 1.391 . S
C2319 H2307 0.950 . S
C2319 C2315 1.393 . S
C2319 C2318 1.391 . S
H2320 C2328 0.950 . S
H2321 C2333 0.950 . S
H2322 C2330 0.950 . S
H2323 C2332 0.950 . S
H2324 C2334 0.950 . S
H2325 C2336 0.950 . S
H2326 C2338 0.950 . S
H2327 C2339 0.950 . S
C2328 H2320 0.950 . S
C2328 C2329 1.386 . S
C2328 C2330 1.391 . S
C2329 C2328 1.386 . S
C2329 C2333 1.393 . S
C2330 H2322 0.950 . S
C2330 C2328 1.391 . S
C2330 C2331 1.400 . S
C2331 C2330 1.400 . S
C2331 C2332 1.398 . S
C2331 C2337 1.491 . S
C2332 H2323 0.950 . S
C2332 C2331 1.398 . S
C2332 C2333 1.391 . S
C2333 H2321 0.950 . S
C2333 C2329 1.393 . S
C2333 C2332 1.391 . S
C2334 H2324 0.950 . S
C2334 C2335 1.386 . S
C2334 C2336 1.391 . S
C2335 C2334 1.386 . S
C2335 C2339 1.393 . S
C2336 H2325 0.950 . S
C2336 C2334 1.391 . S
C2336 C2337 1.400 . S
C2337 C2331 1.491 . S
C2337 C2336 1.400 . S
C2337 C2338 1.398 . S
C2338 H2326 0.950 . S
C2338 C2337 1.398 . S
C2338 C2339 1.391 . S
C2339 H2327 0.950 . S
C2339 C2335 1.393 . S
C2339 C2338 1.391 . S
H2340 C2348 0.950 . S
H2341 C2353 0.950 . S
H2342 C2350 0.950 . S
H2343 C2352 0.950 . S
H2344 C2354 0.950 . S
H2345 C2356 0.950 . S
H2346 C2358 0.950 . S
H2347 C2359 0.950 . S
C2348 H2340 0.950 . S
C2348 C2349 1.386 . S
C2348 C2350 1.391 . S
C2349 C2348 1.386 . S
C2349 C2353 1.393 . S
C2350 H2342 0.950 . S
C2350 C2348 1.391 . S
C2350 C2351 1.400 . S
C2351 C2350 1.400 . S
C2351 C2352 1.398 . S
C2351 C2357 1.491 . S
C2352 H2343 0.950 . S
C2352 C2351 1.398 . S
C2352 C2353 1.391 . S
C2353 H2341 0.950 . S
C2353 C2349 1.393 . S
C2353 C2352 1.391 . S
C2354 H2344 0.950 . S
C2354 C2355 1.386 . S
C2354 C2356 1.391 . S
C2355 C2354 1.386 . S
C2355 C2359 1.393 . S
C2356 H2345 0.950 . S
C2356 C2354 1.391 . S
C2356 C2357 1.400 . S
C2357 C2351 1.491 . S
C2357 C2356 1.400 . S
C2357 C2358 1.398 . S
C2358 H2346 0.950 . S
C2358 C2357 1.398 . S
C2358 C2359 1.391 . S
C2359 H2347 0.950 . S
C2359 C2355 1.393 . S
C2359 C2358 1.391 . S
H2360 C2368 0.950 . S
H2361 C2373 0.950 . S
H2362 C2370 0.950 . S
H2363 C2372 0.950 . S
H2364 C2374 0.950 . S
H2365 C2376 0.950 . S
H2366 C2378 0.950 . S
H2367 C2379 0.950 . S
C2368 H2360 0.950 . S
C2368 C2369 1.386 . S
C2368 C2370 1.391 . S
C2369 C2368 1.386 . S
C2369 C2373 1.393 . S
C2370 H2362 0.950 . S
C2370 C2368 1.391 . S
C2370 C2371 1.400 . S
C2371 C2370 1.400 . S
C2371 C2372 1.398 . S
C2371 C2377 1.491 . S
C2372 H2363 0.950 . S
C2372 C2371 1.398 . S
C2372 C2373 1.391 . S
C2373 H2361 0.950 . S
C2373 C2369 1.393 . S
C2373 C2372 1.391 . S
C2374 H2364 0.950 . S
C2374 C2375 1.386 . S
C2374 C2376 1.391 . S
C2375 C2374 1.386 . S
C2375 C2379 1.393 . S
C2376 H2365 0.950 . S
C2376 C2374 1.391 . S
C2376 C2377 1.400 . S
C2377 C2371 1.491 . S
C2377 C2376 1.400 . S
C2377 C2378 1.398 . S
C2378 H2366 0.950 . S
C2378 C2377 1.398 . S
C2378 C2379 1.391 . S
C2379 H2367 0.950 . S
C2379 C2375 1.393 . S
C2379 C2378 1.391 . S
H2380 C2388 0.950 . S
H2381 C2393 0.950 . S
H2382 C2390 0.950 . S
H2383 C2392 0.950 . S
H2384 C2394 0.950 . S
H2385 C2396 0.950 . S
H2386 C2398 0.950 . S
H2387 C2399 0.950 . S
C2388 H2380 0.950 . S
C2388 C2389 1.386 . S
C2388 C2390 1.391 . S
C2389 C2388 1.386 . S
C2389 C2393 1.393 . S
C2390 H2382 0.950 . S
C2390 C2388 1.391 . S
C2390 C2391 1.400 . S
C2391 C2390 1.400 . S
C2391 C2392 1.398 . S
C2391 C2397 1.491 . S
C2392 H2383 0.950 . S
C2392 C2391 1.398 . S
C2392 C2393 1.391 . S
C2393 H2381 0.950 . S
C2393 C2389 1.393 . S
C2393 C2392 1.391 . S
C2394 H2384 0.950 . S
C2394 C2395 1.386 . S
C2394 C2396 1.391 . S
C2395 C2394 1.386 . S
C2395 C2399 1.393 . S
C2396 H2385 0.950 . S
C2396 C2394 1.391 . S
C2396 C2397 1.400 . S
C2397 C2391 1.491 . S
C2397 C2396 1.400 . S
C2397 C2398 1.398 . S
C2398 H2386 0.950 . S
C2398 C2397 1.398 . S
C2398 C2399 1.391 . S
C2399 H2387 0.950 . S
C2399 C2395 1.393 . S
C2399 C2398 1.391 . S
H2400 C2408 0.950 . S
H2401 C2413 0.950 . S
H2402 C2410 0.950 . S
H2403 C2412 0.950 . S
H2404 C2414 0.950 . S
H2405 C2416 0.950 . S
H2406 C2418 0.950 . S
H2407 C2419 0.950 . S
C2408 H2400 0.950 . S
C2408 C2409 1.386 . S
C2408 C2410 1.391 . S
C2409 C2408 1.386 . S
C2409 C2413 1.393 . S
C2410 H2402 0.950 . S
C2410 C2408 1.391 . S
C2410 C2411 1.400 . S
C2411 C2410 1.400 . S
C2411 C2412 1.398 . S
C2411 C2417 1.491 . S
C2412 H2403 0.950 . S
C2412 C2411 1.398 . S
C2412 C2413 1.391 . S
C2413 H2401 0.950 . S
C2413 C2409 1.393 . S
C2413 C2412 1.391 . S
C2414 H2404 0.950 . S
C2414 C2415 1.386 . S
C2414 C2416 1.391 . S
C2415 C2414 1.386 . S
C2415 C2419 1.393 . S
C2416 H2405 0.950 . S
C2416 C2414 1.391 . S
C2416 C2417 1.400 . S
C2417 C2411 1.491 . S
C2417 C2416 1.400 . S
C2417 C2418 1.398 . S
C2418 H2406 0.950 . S
C2418 C2417 1.398 . S
C2418 C2419 1.391 . S
C2419 H2407 0.950 . S
C2419 C2415 1.393 . S
C2419 C2418 1.391 . S
H2420 C2428 0.950 . S
H2421 C2433 0.950 . S
H2422 C2430 0.950 . S
H2423 C2432 0.950 . S
H2424 C2434 0.950 . S
H2425 C2436 0.950 . S
H2426 C2438 0.950 . S
H2427 C2439 0.950 . S
C2428 H2420 0.950 . S
C2428 C2429 1.386 . S
C2428 C2430 1.391 . S
C2429 C2428 1.386 . S
C2429 C2433 1.393 . S
C2430 H2422 0.950 . S
C2430 C2428 1.391 . S
C2430 C2431 1.400 . S
C2431 C2430 1.400 . S
C2431 C2432 1.398 . S
C2431 C2437 1.491 . S
C2432 H2423 0.950 . S
C2432 C2431 1.398 . S
C2432 C2433 1.391 . S
C2433 H2421 0.950 . S
C2433 C2429 1.393 . S
C2433 C2432 1.391 . S
C2434 H2424 0.950 . S
C2434 C2435 1.386 . S
C2434 C2436 1.391 . S
C2435 C2434 1.386 . S
C2435 C2439 1.393 . S
C2436 H2425 0.950 . S
C2436 C2434 1.391 . S
C2436 C2437 1.400 . S
C2437 C2431 1.491 . S
C2437 C2436 1.400 . S
C2437 C2438 1.398 . S
C2438 H2426 0.950 . S
C2438 C2437 1.398 . S
C2438 C2439 1.391 . S
C2439 H2427 0.950 . S
C2439 C2435 1.393 . S
C2439 C2438 1.391 . S
H2440 C2448 0.950 . S
H2441 C2453 0.950 . S
H2442 C2450 0.950 . S
H2443 C2452 0.950 . S
H2444 C2454 0.950 . S
H2445 C2456 0.950 . S
H2446 C2458 0.950 . S
H2447 C2459 0.950 . S
C2448 H2440 0.950 . S
C2448 C2449 1.386 . S
C2448 C2450 1.391 . S
C2449 C2448 1.386 . S
C2449 C2453 1.393 . S
C2450 H2442 0.950 . S
C2450 C2448 1.391 . S
C2450 C2451 1.400 . S
C2451 C2450 1.400 . S
C2451 C2452 1.398 . S
C2451 C2457 1.491 . S
C2452 H2443 0.950 . S
C2452 C2451 1.398 . S
C2452 C2453 1.391 . S
C2453 H2441 0.950 . S
C2453 C2449 1.393 . S
C2453 C2452 1.391 . S
C2454 H2444 0.950 . S
C2454 C2455 1.386 . S
C2454 C2456 1.391 . S
C2455 C2454 1.386 . S
C2455 C2459 1.393 . S
C2456 H2445 0.950 . S
C2456 C2454 1.391 . S
C2456 C2457 1.400 . S
C2457 C2451 1.491 . S
C2457 C2456 1.400 . S
C2457 C2458 1.398 . S
C2458 H2446 0.950 . S
C2458 C2457 1.398 . S
C2458 C2459 1.391 . S
C2459 H2447 0.950 . S
C2459 C2455 1.393 . S
C2459 C2458 1.391 . S
H2460 C2468 0.950 . S
H2461 C2473 0.950 . S
H2462 C2470 0.950 . S
H2463 C2472 0.950 . S
H2464 C2474 0.950 . S
H2465 C2476 0.950 . S
H2466 C2478 0.950 . S
H2467 C2479 0.950 . S
C2468 H2460 0.950 . S
C2468 C2469 1.386 . S
C2468 C2470 1.391 . S
C2469 C2468 1.386 . S
C2469 C2473 1.393 . S
C2470 H2462 0.950 . S
C2470 C2468 1.391 . S
C2470 C2471 1.400 . S
C2471 C2470 1.400 . S
C2471 C2472 1.398 . S
C2471 C2477 1.491 . S
C2472 H2463 0.950 . S
C2472 C2471 1.398 . S
C2472 C2473 1.391 . S
C2473 H2461 0.950 . S
C2473 C2469 1.393 . S
C2473 C2472 1.391 . S
C2474 H2464 0.950 . S
C2474 C2475 1.386 . S
C2474 C2476 1.391 . S
C2475 C2474 1.386 . S
C2475 C2479 1.393 . S
C2476 H2465 0.950 . S
C2476 C2474 1.391 . S
C2476 C2477 1.400 . S
C2477 C2471 1.491 . S
C2477 C2476 1.400 . S
C2477 C2478 1.398 . S
C2478 H2466 0.950 . S
C2478 C2477 1.398 . S
C2478 C2479 1.391 . S
C2479 H2467 0.950 . S
C2479 C2475 1.393 . S
C2479 C2478 1.391 . S
H2480 C2488 0.950 . S
H2481 C2493 0.950 . S
H2482 C2490 0.950 . S
H2483 C2492 0.950 . S
H2484 C2494 0.950 . S
H2485 C2496 0.950 . S
H2486 C2498 0.950 . S
H2487 C2499 0.950 . S
C2488 H2480 0.950 . S
C2488 C2489 1.386 . S
C2488 C2490 1.391 . S
C2489 C2488 1.386 . S
C2489 C2493 1.393 . S
C2490 H2482 0.950 . S
C2490 C2488 1.391 . S
C2490 C2491 1.400 . S
C2491 C2490 1.400 . S
C2491 C2492 1.398 . S
C2491 C2497 1.491 . S
C2492 H2483 0.950 . S
C2492 C2491 1.398 . S
C2492 C2493 1.391 . S
C2493 H2481 0.950 . S
C2493 C2489 1.393 . S
C2493 C2492 1.391 . S
C2494 H2484 0.950 . S
C2494 C2495 1.386 . S
C2494 C2496 1.391 . S
C2495 C2494 1.386 . S
C2495 C2499 1.393 . S
C2496 H2485 0.950 . S
C2496 C2494 1.391 . S
C2496 C2497 1.400 . S
C2497 C2491 1.491 . S
C2497 C2496 1.400 . S
C2497 C2498 1.398 . S
C2498 H2486 0.950 . S
C2498 C2497 1.398 . S
C2498 C2499 1.391 . S
C2499 H2487 0.950 . S
C2499 C2495 1.393 . S
C2499 C2498 1.391 . S
H2500 C2508 0.950 . S
H2501 C2513 0.950 . S
H2502 C2510 0.950 . S
H2503 C2512 0.950 . S
H2504 C2514 0.950 . S
H2505 C2516 0.950 . S
H2506 C2518 0.950 . S
H2507 C2519 0.950 . S
C2508 H2500 0.950 . S
C2508 C2509 1.386 . S
C2508 C2510 1.391 . S
C2509 C2508 1.386 . S
C2509 C2513 1.393 . S
C2510 H2502 0.950 . S
C2510 C2508 1.391 . S
C2510 C2511 1.400 . S
C2511 C2510 1.400 . S
C2511 C2512 1.398 . S
C2511 C2517 1.491 . S
C2512 H2503 0.950 . S
C2512 C2511 1.398 . S
C2512 C2513 1.391 . S
C2513 H2501 0.950 . S
C2513 C2509 1.393 . S
C2513 C2512 1.391 . S
C2514 H2504 0.950 . S
C2514 C2515 1.386 . S
C2514 C2516 1.391 . S
C2515 C2514 1.386 . S
C2515 C2519 1.393 . S
C2516 H2505 0.950 . S
C2516 C2514 1.391 . S
C2516 C2517 1.400 . S
C2517 C2511 1.491 . S
C2517 C2516 1.400 . S
C2517 C2518 1.398 . S
C2518 H2506 0.950 . S
C2518 C2517 1.398 . S
C2518 C2519 1.391 . S
C2519 H2507 0.950 . S
C2519 C2515 1.393 . S
C2519 C2518 1.391 . S
H2520 C2528 0.950 . S
H2521 C2533 0.950 . S
H2522 C2530 0.950 . S
H2523 C2532 0.950 . S
H2524 C2534 0.950 . S
H2525 C2536 0.950 . S
H2526 C2538 0.950 . S
H2527 C2539 0.950 . S
C2528 H2520 0.950 . S
C2528 C2529 1.386 . S
C2528 C2530 1.391 . S
C2529 C2528 1.386 . S
C2529 C2533 1.393 . S
C2530 H2522 0.950 . S
C2530 C2528 1.391 . S
C2530 C2531 1.400 . S
C2531 C2530 1.400 . S
C2531 C2532 1.398 . S
C2531 C2537 1.491 . S
C2532 H2523 0.950 . S
C2532 C2531 1.398 . S
C2532 C2533 1.391 . S
C2533 H2521 0.950 . S
C2533 C2529 1.393 . S
C2533 C2532 1.391 . S
C2534 H2524 0.950 . S
C2534 C2535 1.386 . S
C2534 C2536 1.391 . S
C2535 C2534 1.386 . S
C2535 C2539 1.393 . S
C2536 H2525 0.950 . S
C2536 C2534 1.391 . S
C2536 C2537 1.400 . S
C2537 C2531 1.491 . S
C2537 C2536 1.400 . S
C2537 C2538 1.398 . S
C2538 H2526 0.950 . S
C2538 C2537 1.398 . S
C2538 C2539 1.391 . S
C2539 H2527 0.950 . S
C2539 C2535 1.393 . S
C2539 C2538 1.391 . S
H2540 C2548 0.950 . S
H2541 C2553 0.950 . S
H2542 C2550 0.950 . S
H2543 C2552 0.950 . S
H2544 C2554 0.950 . S
H2545 C2556 0.950 . S
H2546 C2558 0.950 . S
H2547 C2559 0.950 . S
C2548 H2540 0.950 . S
C2548 C2549 1.386 . S
C2548 C2550 1.391 . S
C2549 C2548 1.386 . S
C2549 C2553 1.393 . S
C2550 H2542 0.950 . S
C2550 C2548 1.391 . S
C2550 C2551 1.400 . S
C2551 C2550 1.400 . S
C2551 C2552 1.398 . S
C2551 C2557 1.491 . S
C2552 H2543 0.950 . S
C2552 C2551 1.398 . S
C2552 C2553 1.391 . S
C2553 H2541 0.950 . S
C2553 C2549 1.393 . S
C2553 C2552 1.391 . S
C2554 H2544 0.950 . S
C2554 C2555 1.386 . S
C2554 C2556 1.391 . S
C2555 C2554 1.386 . S
C2555 C2559 1.393 . S
C2556 H2545 0.950 . S
C2556 C2554 1.391 . S
C2556 C2557 1.400 . S
C2557 C2551 1.491 . S
C2557 C2556 1.400 . S
C2557 C2558 1.398 . S
C2558 H2546 0.950 . S
C2558 C2557 1.398 . S
C2558 C2559 1.391 . S
C2559 H2547 0.950 . S
C2559 C2555 1.393 . S
C2559 C2558 1.391 . S
H2560 C2568 0.950 . S
H2561 C2573 0.950 . S
H2562 C2570 0.950 . S
H2563 C2572 0.950 . S
H2564 C2574 0.950 . S
H2565 C2576 0.950 . S
H2566 C2578 0.950 . S
H2567 C2579 0.950 . S
C2568 H2560 0.950 . S
C2568 C2569 1.386 . S
C2568 C2570 1.391 . S
C2569 C2568 1.386 . S
C2569 C2573 1.393 . S
C2570 H2562 0.950 . S
C2570 C2568 1.391 . S
C2570 C2571 1.400 . S
C2571 C2570 1.400 . S
C2571 C2572 1.398 . S
C2571 C2577 1.491 . S
C2572 H2563 0.950 . S
C2572 C2571 1.398 . S
C2572 C2573 1.391 . S
C2573 H2561 0.950 . S
C2573 C2569 1.393 . S
C2573 C2572 1.391 . S
C2574 H2564 0.950 . S
C2574 C2575 1.386 . S
C2574 C2576 1.391 . S
C2575 C2574 1.386 . S
C2575 C2579 1.393 . S
C2576 H2565 0.950 . S
C2576 C2574 1.391 . S
C2576 C2577 1.400 . S
C2577 C2571 1.491 . S
C2577 C2576 1.400 . S
C2577 C2578 1.398 . S
C2578 H2566 0.950 . S
C2578 C2577 1.398 . S
C2578 C2579 1.391 . S
C2579 H2567 0.950 . S
C2579 C2575 1.393 . S
C2579 C2578 1.391 . S
H2580 C2588 0.950 . S
H2581 C2593 0.950 . S
H2582 C2590 0.950 . S
H2583 C2592 0.950 . S
H2584 C2594 0.950 . S
H2585 C2596 0.950 . S
H2586 C2598 0.950 . S
H2587 C2599 0.950 . S
C2588 H2580 0.950 . S
C2588 C2589 1.386 . S
C2588 C2590 1.391 . S
C2589 C2588 1.386 . S
C2589 C2593 1.393 . S
C2590 H2582 0.950 . S
C2590 C2588 1.391 . S
C2590 C2591 1.400 . S
C2591 C2590 1.400 . S
C2591 C2592 1.398 . S
C2591 C2597 1.491 . S
C2592 H2583 0.950 . S
C2592 C2591 1.398 . S
C2592 C2593 1.391 . S
C2593 H2581 0.950 . S
C2593 C2589 1.393 . S
C2593 C2592 1.391 . S
C2594 H2584 0.950 . S
C2594 C2595 1.386 . S
C2594 C2596 1.391 . S
C2595 C2594 1.386 . S
C2595 C2599 1.393 . S
C2596 H2585 0.950 . S
C2596 C2594 1.391 . S
C2596 C2597 1.400 . S
C2597 C2591 1.491 . S
C2597 C2596 1.400 . S
C2597 C2598 1.398 . S
C2598 H2586 0.950 . S
C2598 C2597 1.398 . S
C2598 C2599 1.391 . S
C2599 H2587 0.950 . S
C2599 C2595 1.393 . S
C2599 C2598 1.391 . S
H2600 C2608 0.950 . S
H2601 C2613 0.950 . S
H2602 C2610 0.950 . S
H2603 C2612 0.950 . S
H2604 C2614 0.950 . S
H2605 C2616 0.950 . S
H2606 C2618 0.950 . S
H2607 C2619 0.950 . S
C2608 H2600 0.950 . S
C2608 C2609 1.386 . S
C2608 C2610 1.391 . S
C2609 C2608 1.386 . S
C2609 C2613 1.393 . S
C2610 H2602 0.950 . S
C2610 C2608 1.391 . S
C2610 C2611 1.400 . S
C2611 C2610 1.400 . S
C2611 C2612 1.398 . S
C2611 C2617 1.491 . S
C2612 H2603 0.950 . S
C2612 C2611 1.398 . S
C2612 C2613 1.391 . S
C2613 H2601 0.950 . S
C2613 C2609 1.393 . S
C2613 C2612 1.391 . S
C2614 H2604 0.950 . S
C2614 C2615 1.386 . S
C2614 C2616 1.391 . S
C2615 C2614 1.386 . S
C2615 C2619 1.393 . S
C2616 H2605 0.950 . S
C2616 C2614 1.391 . S
C2616 C2617 1.400 . S
C2617 C2611 1.491 . S
C2617 C2616 1.400 . S
C2617 C2618 1.398 . S
C2618 H2606 0.950 . S
C2618 C2617 1.398 . S
C2618 C2619 1.391 . S
C2619 H2607 0.950 . S
C2619 C2615 1.393 . S
C2619 C2618 1.391 . S
H2620 C2628 0.950 . S
H2621 C2633 0.950 . S
H2622 C2630 0.950 . S
H2623 C2632 0.950 . S
H2624 C2634 0.950 . S
H2625 C2636 0.950 . S
H2626 C2638 0.950 . S
H2627 C2639 0.950 . S
C2628 H2620 0.950 . S
C2628 C2629 1.386 . S
C2628 C2630 1.391 . S
C2629 C2628 1.386 . S
C2629 C2633 1.393 . S
C2630 H2622 0.950 . S
C2630 C2628 1.391 . S
C2630 C2631 1.400 . S
C2631 C2630 1.400 . S
C2631 C2632 1.398 . S
C2631 C2637 1.491 . S
C2632 H2623 0.950 . S
C2632 C2631 1.398 . S
C2632 C2633 1.391 . S
C2633 H2621 0.950 . S
C2633 C2629 1.393 . S
C2633 C2632 1.391 . S
C2634 H2624 0.950 . S
C2634 C2635 1.386 . S
C2634 C2636 1.391 . S
C2635 C2634 1.386 . S
C2635 C2639 1.393 . S
C2636 H2625 0.950 . S
C2636 C2634 1.391 . S
C2636 C2637 1.400 . S
C2637 C2631 1.491 . S
C2637 C2636 1.400 . S
C2637 C2638 1.398 . S
C2638 H2626 0.950 . S
C2638 C2637 1.398 . S
C2638 C2639 1.391 . S
C2639 H2627 0.950 . S
C2639 C2635 1.393 . S
C2639 C2638 1.391 . S
H2640 C2648 0.950 . S
H2641 C2653 0.950 . S
H2642 C2650 0.950 . S
H2643 C2652 0.950 . S
H2644 C2654 0.950 . S
H2645 C2656 0.950 . S
H2646 C2658 0.950 . S
H2647 C2659 0.950 . S
C2648 H2640 0.950 . S
C2648 C2649 1.386 . S
C2648 C2650 1.391 . S
C2649 C2648 1.386 . S
C2649 C2653 1.393 . S
C2650 H2642 0.950 . S
C2650 C2648 1.391 . S
C2650 C2651 1.400 . S
C2651 C2650 1.400 . S
C2651 C2652 1.398 . S
C2651 C2657 1.491 . S
C2652 H2643 0.950 . S
C2652 C2651 1.398 . S
C2652 C2653 1.391 . S
C2653 H2641 0.950 . S
C2653 C2649 1.393 . S
C2653 C2652 1.391 . S
C2654 H2644 0.950 . S
C2654 C2655 1.386 . S
C2654 C2656 1.391 . S
C2655 C2654 1.386 . S
C2655 C2659 1.393 . S
C2656 H2645 0.950 . S
C2656 C2654 1.391 . S
C2656 C2657 1.400 . S
C2657 C2651 1.491 . S
C2657 C2656 1.400 . S
C2657 C2658 1.398 . S
C2658 H2646 0.950 . S
C2658 C2657 1.398 . S
C2658 C2659 1.391 . S
C2659 H2647 0.950 . S
C2659 C2655 1.393 . S
C2659 C2658 1.391 . S
H2660 C2668 0.950 . S
H2661 C2673 0.950 . S
H2662 C2670 0.950 . S
H2663 C2672 0.950 . S
H2664 C2674 0.950 . S
H2665 C2676 0.950 . S
H2666 C2678 0.950 . S
H2667 C2679 0.950 . S
C2668 H2660 0.950 . S
C2668 C2669 1.386 . S
C2668 C2670 1.391 . S
C2669 C2668 1.386 . S
C2669 C2673 1.393 . S
C2670 H2662 0.950 . S
C2670 C2668 1.391 . S
C2670 C2671 1.400 . S
C2671 C2670 1.400 . S
C2671 C2672 1.398 . S
C2671 C2677 1.491 . S
C2672 H2663 0.950 . S
C2672 C2671 1.398 . S
C2672 C2673 1.391 . S
C2673 H2661 0.950 . S
C2673 C2669 1.393 . S
C2673 C2672 1.391 . S
C2674 H2664 0.950 . S
C2674 C2675 1.386 . S
C2674 C2676 1.391 . S
C2675 C2674 1.386 . S
C2675 C2679 1.393 . S
C2676 H2665 0.950 . S
C2676 C2674 1.391 . S
C2676 C2677 1.400 . S
C2677 C2671 1.491 . S
C2677 C2676 1.400 . S
C2677 C2678 1.398 . S
C2678 H2666 0.950 . S
C2678 C2677 1.398 . S
C2678 C2679 1.391 . S
C2679 H2667 0.950 . S
C2679 C2675 1.393 . S
C2679 C2678 1.391 . S
H2680 C2688 0.950 . S
H2681 C2693 0.950 . S
H2682 C2690 0.950 . S
H2683 C2692 0.950 . S
H2684 C2694 0.950 . S
H2685 C2696 0.950 . S
H2686 C2698 0.950 . S
H2687 C2699 0.950 . S
C2688 H2680 0.950 . S
C2688 C2689 1.386 . S
C2688 C2690 1.391 . S
C2689 C2688 1.386 . S
C2689 C2693 1.393 . S
C2690 H2682 0.950 . S
C2690 C2688 1.391 . S
C2690 C2691 1.400 . S
C2691 C2690 1.400 . S
C2691 C2692 1.398 . S
C2691 C2697 1.491 . S
C2692 H2683 0.950 . S
C2692 C2691 1.398 . S
C2692 C2693 1.391 . S
C2693 H2681 0.950 . S
C2693 C2689 1.393 . S
C2693 C2692 1.391 . S
C2694 H2684 0.950 . S
C2694 C2695 1.386 . S
C2694 C2696 1.391 . S
C2695 C2694 1.386 . S
C2695 C2699 1.393 . S
C2696 H2685 0.950 . S
C2696 C2694 1.391 . S
C2696 C2697 1.400 . S
C2697 C2691 1.491 . S
C2697 C2696 1.400 . S
C2697 C2698 1.398 . S
C2698 H2686 0.950 . S
C2698 C2697 1.398 . S
C2698 C2699 1.391 . S
C2699 H2687 0.950 . S
C2699 C2695 1.393 . S
C2699 C2698 1.391 . S
C1275 C966 1.056 . S
C1269 C941 1.044 . S
C1289 C861 1.070 . S
C1295 C964 1.072 . S
C1315 C965 1.064 . S
C1309 C821 1.060 . S
C1329 C901 1.033 . S
C1335 C967 1.048 . S
C1355 C1011 1.067 . S
C1349 C661 1.056 . S
C1375 C1071 1.055 . S
C1369 C701 1.046 . S
C1389 C741 1.058 . S
C1395 C1010 1.066 . S
C1415 C1070 1.061 . S
C1409 C781 1.050 . S
C1429 C501 1.056 . S
C1435 C1012 1.059 . S
C1455 C1068 1.069 . S
C1449 C541 1.066 . S
C1469 C581 1.045 . S
C1475 C1013 1.060 . S
C1489 C621 1.052 . S
C1495 C1069 1.063 . S
C1515 C1119 1.056 . S
C1509 C461 1.053 . S
C1529 C381 1.060 . S
C1535 C1118 1.062 . S
C1549 C341 1.063 . S
C1555 C1120 1.064 . S
C1575 C1121 1.058 . S
C1569 C421 1.056 . S
C1589 C181 1.046 1_455 S
C1595 C1162 1.065 . S
C1609 C221 1.052 . S
C1615 C1221 1.051 . S
C1629 C261 1.054 1_455 S
C1635 C1160 1.072 . S
C1649 C301 1.051 . S
C1655 C1220 1.065 . S
C1675 C1161 1.064 . S
C1669 C21 1.049 1_455 S
C1695 C1218 1.075 . S
C1689 C61 1.073 . S
C1709 C101 1.053 1_455 S
C1715 C1163 1.054 . S
C1735 C1219 1.058 . S
C1729 C141 1.058 1_545 S
C1755 C963 2.074 . S
C1749 C15 1.947 . S
C1769 C42 1.956 . S
C1775 C969 2.054 . S
C1789 C82 1.954 1_455 S
C1795 C961 2.049 . S
C1809 C122 1.969 1_545 S
C1815 C968 2.057 1_565 S
C1829 C175 1.927 . S
C1835 C960 2.065 . S
C1855 C970 2.055 . S
C1849 C202 1.968 . S
C1869 C242 1.970 1_455 S
C1875 C962 2.060 . S
C1895 C971 2.072 1_565 S
C1889 C295 1.943 . S
C1915 C1017 2.069 . S
C1909 C135 1.935 1_565 S
C1929 C2 1.957 1_455 S
C1935 C1060 2.055 . S
C1955 C1015 2.067 . S
C1949 C55 1.924 . S
C1975 C1062 2.061 . S
C1969 C95 1.919 . S
C1989 C215 1.935 1_565 S
C1995 C1016 2.069 . S
C2015 C1061 2.072 . S
C2009 C255 1.933 . S
C2035 C1014 2.059 . S
C2029 C282 1.969 . S
C2055 C1063 2.052 . S
C2049 C162 1.948 1_455 S
C2075 C1067 2.050 . S
C2069 C322 1.952 . S
C2089 C375 1.929 . S
C2095 C1066 2.065 1_556 S
C2115 C1018 2.060 . S
C2109 C335 1.915 . S
C2135 C1065 2.059 . S
C2129 C415 1.916 . S
C2149 C455 1.940 . S
C2155 C1021 2.068 . S
C2169 C442 1.965 1_556 S
C2175 C1064 2.053 . S
C2195 C1020 2.047 . S
C2189 C362 1.949 . S
C2215 C1019 2.044 1_556 S
C2209 C402 1.943 . S
C2235 C1113 2.064 . S
C2229 C495 1.925 . S
C2255 C1116 2.057 . S
C2249 C522 1.960 . S
C2269 C562 1.951 . S
C2275 C1112 2.048 . S
C2295 C1114 2.054 . S
C2289 C602 1.961 . S
C2315 C1110 2.068 . S
C2309 C655 1.934 . S
C2329 C682 1.962 . S
C2335 C1115 2.053 . S
C2349 C722 1.969 . S
C2355 C1111 2.059 . S
C2375 C1117 2.069 . S
C2369 C775 1.937 . S
C2395 C1171 2.060 . S
C2389 C615 1.916 . S
C2409 C482 1.951 . S
C2415 C1210 2.051 . S
C2435 C1170 2.064 . S
C2429 C535 1.921 . S
C2455 C1212 2.072 . S
C2449 C575 1.943 . S
C2475 C1169 2.068 . S
C2469 C695 1.938 . S
C2489 C735 1.927 . S
C2495 C1211 2.068 . S
C2515 C1168 2.051 . S
C2509 C762 1.952 . S
C2535 C1213 2.052 . S
C2529 C642 1.953 . S
C2555 C1217 2.060 . S
C2549 C815 1.919 . S
C2569 C855 1.918 . S
C2575 C1216 2.062 . S
C2595 C1164 2.049 . S
C2589 C802 1.947 . S
C2609 C895 1.935 . S
C2615 C1215 2.064 . S
C2635 C1167 2.067 . S
C2629 C935 1.939 . S
C2655 C1214 2.050 . S
C2649 C922 1.954 . S
C2675 C1165 2.050 . S
C2669 C842 1.955 . S
C2689 C882 1.966 . S
C2695 C1166 2.053 . S
