# Generated by pormake.
# Topology myd, (4,6)-cn, num edge types: 1
# Building blocks:
#     Node 0, Type 0, BuildingBlock: NAWXER_clean_sbu_0, # of connection points: 4
#     Node 1, Type 0, BuildingBlock: NAWXER_clean_sbu_0, # of connection points: 4
#     Node 2, Type 0, BuildingBlock: NAWXER_clean_sbu_0, # of connection points: 4
#     Node 3, Type 0, BuildingBlock: NAWXER_clean_sbu_0, # of connection points: 4
#     Node 4, Type 0, BuildingBlock: NAWXER_clean_sbu_0, # of connection points: 4
#     Node 5, Type 0, BuildingBlock: NAWXER_clean_sbu_0, # of connection points: 4
#     Node 6, Type 0, BuildingBlock: NAWXER_clean_sbu_0, # of connection points: 4
#     Node 7, Type 0, BuildingBlock: NAWXER_clean_sbu_0, # of connection points: 4
#     Node 8, Type 0, BuildingBlock: NAWXER_clean_sbu_0, # of connection points: 4
#     Node 9, Type 0, BuildingBlock: NAWXER_clean_sbu_0, # of connection points: 4
#     Node 10, Type 0, BuildingBlock: NAWXER_clean_sbu_0, # of connection points: 4
#     Node 11, Type 0, BuildingBlock: NAWXER_clean_sbu_0, # of connection points: 4
#     Node 12, Type 1, BuildingBlock: JUFBIX_clean_sbu_0, # of connection points: 6
#     Node 13, Type 1, BuildingBlock: JUFBIX_clean_sbu_0, # of connection points: 6
#     Node 14, Type 1, BuildingBlock: JUFBIX_clean_sbu_0, # of connection points: 6
#     Node 15, Type 1, BuildingBlock: JUFBIX_clean_sbu_0, # of connection points: 6
#     Node 16, Type 1, BuildingBlock: JUFBIX_clean_sbu_0, # of connection points: 6
#     Node 17, Type 1, BuildingBlock: JUFBIX_clean_sbu_0, # of connection points: 6
#     Node 18, Type 1, BuildingBlock: JUFBIX_clean_sbu_0, # of connection points: 6
#     Node 19, Type 1, BuildingBlock: JUFBIX_clean_sbu_0, # of connection points: 6
#     Edge 20, Type (0, 1), BuildingBlock: ZUJKAS_clean_linker_0, # of connection points: 2
#     Edge 21, Type (0, 1), BuildingBlock: ZUJKAS_clean_linker_0, # of connection points: 2
#     Edge 22, Type (0, 1), BuildingBlock: ZUJKAS_clean_linker_0, # of connection points: 2
#     Edge 23, Type (0, 1), BuildingBlock: ZUJKAS_clean_linker_0, # of connection points: 2
#     Edge 24, Type (0, 1), BuildingBlock: ZUJKAS_clean_linker_0, # of connection points: 2
#     Edge 25, Type (0, 1), BuildingBlock: ZUJKAS_clean_linker_0, # of connection points: 2
#     Edge 26, Type (0, 1), BuildingBlock: ZUJKAS_clean_linker_0, # of connection points: 2
#     Edge 27, Type (0, 1), BuildingBlock: ZUJKAS_clean_linker_0, # of connection points: 2
#     Edge 28, Type (0, 1), BuildingBlock: ZUJKAS_clean_linker_0, # of connection points: 2
#     Edge 29, Type (0, 1), BuildingBlock: ZUJKAS_clean_linker_0, # of connection points: 2
#     Edge 30, Type (0, 1), BuildingBlock: ZUJKAS_clean_linker_0, # of connection points: 2
#     Edge 31, Type (0, 1), BuildingBlock: ZUJKAS_clean_linker_0, # of connection points: 2
#     Edge 32, Type (0, 1), BuildingBlock: ZUJKAS_clean_linker_0, # of connection points: 2
#     Edge 33, Type (0, 1), BuildingBlock: ZUJKAS_clean_linker_0, # of connection points: 2
#     Edge 34, Type (0, 1), BuildingBlock: ZUJKAS_clean_linker_0, # of connection points: 2
#     Edge 35, Type (0, 1), BuildingBlock: ZUJKAS_clean_linker_0, # of connection points: 2
#     Edge 36, Type (0, 1), BuildingBlock: ZUJKAS_clean_linker_0, # of connection points: 2
#     Edge 37, Type (0, 1), BuildingBlock: ZUJKAS_clean_linker_0, # of connection points: 2
#     Edge 38, Type (0, 1), BuildingBlock: ZUJKAS_clean_linker_0, # of connection points: 2
#     Edge 39, Type (0, 1), BuildingBlock: ZUJKAS_clean_linker_0, # of connection points: 2
#     Edge 40, Type (0, 1), BuildingBlock: ZUJKAS_clean_linker_0, # of connection points: 2
#     Edge 41, Type (0, 1), BuildingBlock: ZUJKAS_clean_linker_0, # of connection points: 2
#     Edge 42, Type (0, 1), BuildingBlock: ZUJKAS_clean_linker_0, # of connection points: 2
#     Edge 43, Type (0, 1), BuildingBlock: ZUJKAS_clean_linker_0, # of connection points: 2
#     Edge 44, Type (0, 1), BuildingBlock: ZUJKAS_clean_linker_0, # of connection points: 2
#     Edge 45, Type (0, 1), BuildingBlock: ZUJKAS_clean_linker_0, # of connection points: 2
#     Edge 46, Type (0, 1), BuildingBlock: ZUJKAS_clean_linker_0, # of connection points: 2
#     Edge 47, Type (0, 1), BuildingBlock: ZUJKAS_clean_linker_0, # of connection points: 2
#     Edge 48, Type (0, 1), BuildingBlock: ZUJKAS_clean_linker_0, # of connection points: 2
#     Edge 49, Type (0, 1), BuildingBlock: ZUJKAS_clean_linker_0, # of connection points: 2
#     Edge 50, Type (0, 1), BuildingBlock: ZUJKAS_clean_linker_0, # of connection points: 2
#     Edge 51, Type (0, 1), BuildingBlock: ZUJKAS_clean_linker_0, # of connection points: 2
#     Edge 52, Type (0, 1), BuildingBlock: ZUJKAS_clean_linker_0, # of connection points: 2
#     Edge 53, Type (0, 1), BuildingBlock: ZUJKAS_clean_linker_0, # of connection points: 2
#     Edge 54, Type (0, 1), BuildingBlock: ZUJKAS_clean_linker_0, # of connection points: 2
#     Edge 55, Type (0, 1), BuildingBlock: ZUJKAS_clean_linker_0, # of connection points: 2
#     Edge 56, Type (0, 1), BuildingBlock: ZUJKAS_clean_linker_0, # of connection points: 2
#     Edge 57, Type (0, 1), BuildingBlock: ZUJKAS_clean_linker_0, # of connection points: 2
#     Edge 58, Type (0, 1), BuildingBlock: ZUJKAS_clean_linker_0, # of connection points: 2
#     Edge 59, Type (0, 1), BuildingBlock: ZUJKAS_clean_linker_0, # of connection points: 2
#     Edge 60, Type (0, 1), BuildingBlock: ZUJKAS_clean_linker_0, # of connection points: 2
#     Edge 61, Type (0, 1), BuildingBlock: ZUJKAS_clean_linker_0, # of connection points: 2
#     Edge 62, Type (0, 1), BuildingBlock: ZUJKAS_clean_linker_0, # of connection points: 2
#     Edge 63, Type (0, 1), BuildingBlock: ZUJKAS_clean_linker_0, # of connection points: 2
#     Edge 64, Type (0, 1), BuildingBlock: ZUJKAS_clean_linker_0, # of connection points: 2
#     Edge 65, Type (0, 1), BuildingBlock: ZUJKAS_clean_linker_0, # of connection points: 2
#     Edge 66, Type (0, 1), BuildingBlock: ZUJKAS_clean_linker_0, # of connection points: 2
#     Edge 67, Type (0, 1), BuildingBlock: ZUJKAS_clean_linker_0, # of connection points: 2
# Relax obj value: 0.256
# Max RMSD: 0.222
# Mean RMSD: 0.143
data_MOF--net-myd--node1-NAWXER_clean_sbu_0--node2-JUFBIX_clean_sbu_0--edge1-ZUJKAS_clean_linker_0
_symmetry_space_group_name_H-M    P1
_symmetry_Int_Tables_number       1
_symmetry_cell_setting            triclinic
loop_
_symmetry_equiv_pos_as_xyz
'x, y, z'
_cell_length_a     57.689109
_cell_length_b     60.39325
_cell_length_c     59.801815
_cell_angle_alpha  90.533013
_cell_angle_beta   87.955659
_cell_angle_gamma 91.258896
loop_
_atom_site_label
_atom_site_type_symbol
_atom_site_fract_x
_atom_site_fract_y
_atom_site_fract_z
_atom_type_partial_charge
C0 C 0.03001 0.2061 0.29656 0.0
C1 C 0.02875 0.26335 0.35532 0.0
O2 O 0.04725 0.21752 0.30332 0.0
Zn3 Zn 0.03072 0.23273 0.32772 0.0
O4 O 0.01013 0.20812 0.30656 0.0
Zn5 Zn 0.9945 0.22679 0.33365 0.0
O6 O 0.97143 0.24245 0.31737 0.0
O7 O 0.00783 0.25257 0.30916 0.0
O8 O 0.00894 0.25368 0.35299 0.0
O9 O 0.04648 0.2557 0.34489 0.0
O10 O 0.02255 0.20611 0.35031 0.0
O11 O 0.98449 0.20396 0.3546 0.0
C12 C 0.98604 0.25481 0.30665 0.0
C13 C 1.00428 0.19661 0.35892 0.0
C14 C 0.05236 0.74194 0.21025 0.0
C15 C 0.02881 0.69376 0.14888 0.0
O16 O 0.06586 0.73188 0.19649 0.0
Zn17 Zn 0.04137 0.71871 0.179 0.0
O18 O 0.03034 0.74076 0.20803 0.0
Zn19 Zn 1.00578 0.72561 0.18615 0.0
O20 O 0.98749 0.70765 0.2073 0.0
O21 O 0.02397 0.69754 0.20357 0.0
O22 O 0.01159 0.70292 0.15911 0.0
O23 O 0.04929 0.69842 0.15479 0.0
O24 O 0.02919 0.74765 0.16299 0.0
O25 O 0.99222 0.75121 0.17254 0.0
C26 C 1.00369 0.69507 0.21288 0.0
C27 C 0.01035 0.75843 0.16204 0.0
C28 C 0.34284 1.0002 0.20422 0.0
C29 C 0.28686 0.98549 0.26634 0.0
O30 O 0.33564 0.98135 0.2112 0.0
Zn31 Zn 0.31542 0.99172 0.23568 0.0
O32 O 0.33608 0.01775 0.21456 0.0
Zn33 Zn 0.31362 0.02666 0.24228 0.0
O34 O 0.3341 0.03998 0.26424 0.0
O35 O 0.33864 1.00399 0.26029 0.0
O36 O 0.29203 0.00602 0.2634 0.0
O37 O 0.29625 0.97098 0.25358 0.0
O38 O 0.28946 0.00865 0.21811 0.0
O39 O 0.29033 0.04401 0.22769 0.0
C40 C 0.34392 0.02235 0.27 0.0
C41 C 0.28149 0.02818 0.21637 0.0
C42 C 0.72735 0.47869 0.24487 0.0
C43 C 0.67145 0.48425 0.30897 0.0
O44 O 0.71974 0.46285 0.2572 0.0
Zn45 Zn 0.69931 0.48044 0.27682 0.0
O46 O 0.72035 0.49837 0.24894 0.0
Zn47 Zn 0.69716 0.51529 0.2719 0.0
O48 O 0.71796 0.53568 0.28681 0.0
O49 O 0.72384 0.50061 0.29447 0.0
O50 O 0.67611 0.50276 0.2993 0.0
O51 O 0.68083 0.46675 0.30129 0.0
O52 O 0.6741 0.49021 0.25352 0.0
O53 O 0.67493 0.52669 0.25179 0.0
C54 C 0.72917 0.52119 0.29699 0.0
C55 C 0.66669 0.50814 0.24524 0.0
C56 C 0.22389 0.37401 0.01297 0.0
C57 C 0.2841 0.31875 1.00322 0.0
O58 O 0.23287 0.36655 0.9948 0.0
Zn59 Zn 0.25631 0.34841 0.00747 0.0
O60 O 0.23317 0.36942 0.03151 0.0
Zn61 Zn 0.26151 0.3498 0.04223 0.0
O62 O 0.28487 0.37003 0.05358 0.0
O63 O 0.28428 0.37026 0.01682 0.0
O64 O 0.28168 0.32566 0.02352 0.0
O65 O 0.27251 0.32757 0.98808 0.0
O66 O 0.23544 0.32576 0.02797 0.0
O67 O 0.24528 0.33026 0.06317 0.0
C68 C 0.29352 0.37679 0.035 0.0
C69 C 0.23298 0.32049 0.04867 0.0
C70 C 0.2301 0.71981 0.48924 0.0
C71 C 0.29188 0.6658 0.49775 0.0
O72 O 0.24365 0.71239 0.47378 0.0
Zn73 Zn 0.26019 0.69184 0.4922 0.0
O74 O 0.2314 0.71232 0.50915 0.0
Zn75 Zn 0.25127 0.68912 0.52714 0.0
O76 O 0.26591 0.70866 0.54883 0.0
O77 O 0.27757 0.71469 0.5138 0.0
O78 O 0.28011 0.66969 0.5159 0.0
O79 O 0.28609 0.67487 0.47972 0.0
O80 O 0.23385 0.66741 0.50027 0.0
O81 O 0.22779 0.66747 0.53688 0.0
C82 C 0.27843 0.71959 0.53466 0.0
C83 C 0.22292 0.6598 0.51769 0.0
C84 C 0.7208 0.87742 0.49973 0.0
C85 C 0.78089 0.8216 0.49383 0.0
O86 O 0.73035 0.86918 0.48219 0.0
Zn87 Zn 0.75332 0.85153 0.49624 0.0
O88 O 0.72946 0.87362 0.51876 0.0
Zn89 Zn 0.7575 0.85438 0.53097 0.0
O90 O 0.78071 0.87485 0.5421 0.0
O91 O 0.78149 0.87344 0.50532 0.0
O92 O 0.77806 0.82936 0.51378 0.0
O93 O 0.76969 0.82981 0.47806 0.0
O94 O 0.73189 0.82963 0.5172 0.0
O95 O 0.74086 0.83574 0.55242 0.0
C96 C 0.79021 0.88061 0.52353 0.0
C97 C 0.72898 0.82523 0.53809 0.0
C98 C 0.49387 0.75105 0.80145 0.0
C99 C 0.50952 0.69557 0.85757 0.0
O100 O 0.47875 0.74042 0.81339 0.0
Zn101 Zn 0.50098 0.72517 0.83113 0.0
O102 O 0.51549 0.74857 0.80475 0.0
Zn103 Zn 0.5374 0.73025 0.82571 0.0
O104 O 0.5545 0.71376 0.80261 0.0
O105 O 0.51715 0.70496 0.80533 0.0
O106 O 0.52816 0.70448 0.84905 0.0
O107 O 0.49002 0.70324 0.85268 0.0
O108 O 0.51515 0.75256 0.8497 0.0
O109 O 0.55277 0.75406 0.84217 0.0
C110 C 0.53726 0.70226 0.79596 0.0
C111 C 0.53498 0.76214 0.85208 0.0
C112 C 0.50623 0.19718 0.71105 0.0
C113 C 0.51155 0.25852 0.65764 0.0
O114 O 0.49007 0.20996 0.70587 0.0
Zn115 Zn 0.50772 0.22716 0.68341 0.0
O116 O 0.52633 0.19951 0.7014 0.0
Zn117 Zn 0.54357 0.22042 0.67695 0.0
O118 O 0.5674 0.23453 0.69473 0.0
O119 O 0.53172 0.24512 0.70345 0.0
O120 O 0.53069 0.24834 0.65936 0.0
O121 O 0.49343 0.25132 0.66822 0.0
O122 O 0.5144 0.20347 0.65739 0.0
O123 O 0.55227 0.1996 0.65353 0.0
C124 C 0.55361 0.24662 0.70627 0.0
C125 C 0.53192 0.19431 0.64764 0.0
C126 C 0.77915 0.53201 0.71788 0.0
C127 C 0.83726 0.52968 0.77595 0.0
O128 O 0.78647 0.54825 0.72961 0.0
Zn129 Zn 0.80947 0.53211 0.74564 0.0
O130 O 0.78798 0.51289 0.72017 0.0
Zn131 Zn 0.8138 0.49751 0.73958 0.0
O132 O 0.79494 0.47565 0.75608 0.0
O133 O 0.78742 0.51032 0.76526 0.0
O134 O 0.83403 0.51102 0.76603 0.0
O135 O 0.82711 0.54667 0.76904 0.0
O136 O 0.83418 0.52438 0.71924 0.0
O137 O 0.83619 0.48804 0.71672 0.0
C138 C 0.78349 0.48953 0.76793 0.0
C139 C 0.84258 0.50708 0.70967 0.0
C140 C 0.22835 0.97676 0.74946 0.0
C141 C 0.17017 0.98278 0.81148 0.0
O142 O 0.22012 0.96096 0.76151 0.0
Zn143 Zn 0.19868 0.97867 0.77985 0.0
O144 O 0.22089 0.99641 0.75281 0.0
Zn145 Zn 0.19619 0.01335 0.77424 0.0
O146 O 0.2162 0.03447 0.78921 0.0
O147 O 0.22246 0.99965 0.79771 0.0
O148 O 0.1748 1.00118 0.80159 0.0
O149 O 0.17975 0.96526 0.80414 0.0
O150 O 0.17443 0.98737 0.75523 0.0
O151 O 0.17457 0.02377 0.75288 0.0
C152 C 0.22743 0.02036 0.7999 0.0
C153 C 0.16707 1.00497 0.74625 0.0
C154 C 0.72232 0.15865 0.01836 0.0
C155 C 0.77864 0.21787 0.0357 0.0
O156 O 0.7279 0.16546 0.03767 0.0
Zn157 Zn 0.75111 0.18762 0.02812 0.0
O158 O 0.73286 0.1668 1.00097 0.0
Zn159 Zn 0.7595 0.19095 0.99308 0.0
O160 O 0.7852 0.1739 0.98004 0.0
O161 O 0.77983 0.16849 0.01623 0.0
O162 O 0.77736 0.21328 0.01481 0.0
O163 O 0.76624 0.20684 0.0499 0.0
O164 O 0.73103 0.21125 0.0108 0.0
O165 O 0.74291 0.212 0.97532 0.0
C166 C 0.79134 0.16475 0.99791 0.0
C167 C 0.72955 0.21915 0.99107 0.0
Co168 Co 0.04091 0.04228 0.06298 0.0
C169 C 0.03879 0.07906 0.09178 0.0
Co170 Co 0.05713 0.07282 0.04902 0.0
C171 C 0.03285 0.99615 0.07674 0.0
C172 C 1.00469 0.01749 0.08535 0.0
N173 N 0.02585 0.0173 0.07502 0.0
N174 N 0.0169 0.98328 0.08795 0.0
C175 C 0.99918 0.99672 0.0933 0.0
H176 H 0.04954 0.99048 0.07047 0.0
H177 H 0.99404 0.03195 0.08726 0.0
C178 C 0.06027 0.03656 0.02006 0.0
N179 N 0.07169 0.09794 0.03755 0.0
C180 C 0.08477 0.1127 0.04887 0.0
C181 C 0.07159 0.1057 0.01649 0.0
N182 N 0.09284 0.12941 0.03577 0.0
C183 C 0.08466 0.12504 0.01532 0.0
C184 C 0.0869 0.04735 0.0737 0.0
O185 O 0.04937 0.02616 0.03582 0.0
O186 O 0.06525 0.05698 0.02274 0.0
O187 O 0.08525 0.06465 0.06197 0.0
O188 O 0.06936 0.03429 0.07601 0.0
O189 O 0.04904 0.08859 0.07532 0.0
H190 H 0.06247 0.09788 1.00292 0.0
H191 H 0.08848 0.11107 0.06638 0.0
O192 O 0.0331 0.05865 0.08998 0.0
O193 O 0.01231 0.05094 0.05001 0.0
O194 O 0.02898 0.08108 0.03641 0.0
C195 C 0.01093 0.06886 0.03912 0.0
H196 H 0.98329 0.99188 0.10231 0.0
H197 H 0.08755 0.13529 1.00069 0.0
Co198 Co 0.9518 0.44194 0.07946 0.0
C199 C 0.96354 0.48402 0.06361 0.0
Co200 Co 0.94084 0.44799 0.04504 0.0
C201 C 0.96209 0.41829 0.11928 0.0
C202 C 0.96187 0.45323 0.12521 0.0
N203 N 0.95983 0.43782 0.1089 0.0
N204 N 0.965 0.42074 0.14148 0.0
C205 C 0.9651 0.44282 0.1452 0.0
H206 H 0.96044 0.40249 0.11081 0.0
H207 H 0.96015 0.47086 0.12293 0.0
C208 C 0.92864 0.40596 0.06132 0.0
N209 N 0.93281 0.45138 0.01528 0.0
C210 C 0.9229 0.46802 1.00419 0.0
C211 C 0.93618 0.43538 0.99967 0.0
N212 N 0.91972 0.46266 0.98243 0.0
C213 C 0.92811 0.44217 0.97966 0.0
C214 C 0.98588 0.431 0.04856 0.0
O215 O 0.9377 0.41333 0.07894 0.0
O216 O 0.92894 0.41817 0.04414 0.0
O217 O 0.9714 0.43827 0.0349 0.0
O218 O 0.98019 0.43036 0.06924 0.0
O219 O 0.95262 0.47791 0.04639 0.0
H220 H 0.94404 0.41963 1.00268 0.0
H221 H 0.91779 0.4835 0.01196 0.0
O222 O 0.9655 0.47052 0.07957 0.0
O223 O 0.92362 0.4536 0.08981 0.0
O224 O 0.91053 0.45751 0.05603 0.0
C225 C 0.90744 0.45893 0.07725 0.0
H226 H 0.96675 0.45098 0.16125 0.0
H227 H 0.9286 0.43283 0.96411 0.0
Co228 Co 0.07133 0.94965 0.46562 0.0
C229 C 0.10034 0.94882 0.42732 0.0
Co230 Co 0.05554 0.93364 0.43641 0.0
C231 C 0.08274 0.9611 0.5118 0.0
C232 C 0.0967 0.98385 0.4873 0.0
N233 N 0.08426 0.96477 0.4895 0.0
N234 N 0.09356 0.97734 0.5235 0.0
C235 C 0.10242 0.99157 0.50805 0.0
H236 H 0.07334 0.94718 0.5193 0.0
H237 H 0.10101 0.99188 0.47156 0.0
C238 C 0.02598 0.93372 0.47375 0.0
N239 N 0.04329 0.9193 0.41201 0.0
C240 C 0.05464 0.90492 0.39843 0.0
C241 C 0.02253 0.92175 0.40282 0.0
N242 N 0.042 0.89838 0.38091 0.0
C243 C 0.02167 0.9089 0.38369 0.0
C244 C 0.08062 0.90519 0.46299 0.0
O245 O 0.04271 0.9441 0.48294 0.0
O246 O 0.02842 0.92741 0.45352 0.0
O247 O 0.06847 0.90654 0.44573 0.0
O248 O 0.08359 0.92236 0.47516 0.0
O249 O 0.08252 0.93972 0.41923 0.0
H250 H 0.00916 0.93259 0.40931 0.0
H251 H 0.07202 0.89955 0.40137 0.0
O252 O 0.09959 0.95489 0.44776 0.0
O253 O 0.05933 0.97681 0.45582 0.0
O254 O 0.04299 0.96102 0.42714 0.0
C255 C 0.04732 0.97839 0.43856 0.0
H256 H 0.11242 0.00651 0.5115 0.0
H257 H 1.00741 0.90795 0.37243 0.0
Co258 Co 0.95869 0.57822 0.45758 0.0
C259 C 1.00286 0.56473 0.46897 0.0
Co260 Co 0.96611 0.5431 0.44952 0.0
C261 C 0.93465 0.61923 0.46707 0.0
C262 C 0.97112 0.62436 0.46089 0.0
N263 N 0.95454 0.60833 0.46265 0.0
N264 N 0.93818 0.64143 0.46807 0.0
C265 C 0.96117 0.64465 0.46427 0.0
H266 H 0.91786 0.61103 0.46924 0.0
H267 H 0.98922 0.62155 0.45671 0.0
C268 C 0.92217 0.55706 0.43768 0.0
N269 N 0.96954 0.5126 0.44478 0.0
C270 C 0.98668 0.50005 0.43557 0.0
C271 C 0.95315 0.49779 0.45201 0.0
N272 N 0.98155 0.47808 0.43724 0.0
C273 C 0.96045 0.47676 0.44752 0.0
C274 C 0.94621 0.5517 0.49276 0.0
O275 O 0.92903 0.57571 0.44518 0.0
O276 O 0.93541 0.54059 0.43872 0.0
O277 O 0.95463 0.53708 0.47953 0.0
O278 O 0.94572 0.57164 0.48628 0.0
O279 O 0.99705 0.5462 0.4602 0.0
H280 H 0.93685 0.50202 0.4603 0.0
H281 H 1.00275 0.50681 0.42831 0.0
O282 O 0.9884 0.58032 0.46976 0.0
O283 O 0.97171 0.58468 0.42889 0.0
O284 O 0.97727 0.5498 0.41964 0.0
C285 C 0.97828 0.57027 0.41454 0.0
H286 H 0.97009 0.66057 0.46311 0.0
H287 H 0.95088 0.46157 0.45138 0.0
Co288 Co 0.45686 0.94036 0.57615 0.0
C289 C 0.46661 0.98379 0.56301 0.0
Co290 Co 0.44076 0.94977 0.54469 0.0
C291 C 0.47157 0.91254 0.61177 0.0
C292 C 0.47759 0.94686 0.61903 0.0
N293 N 0.47061 0.93289 0.60271 0.0
N294 N 0.47823 0.91328 0.63316 0.0
C295 C 0.48235 0.93486 0.6377 0.0
H296 H 0.46647 0.89744 0.60325 0.0
H297 H 0.47764 0.96472 0.61809 0.0
C298 C 0.43046 0.90647 0.55804 0.0
N299 N 0.4255 0.957 0.51876 0.0
C300 C 0.4318 0.96882 0.50025 0.0
C301 C 0.40303 0.95128 0.51594 0.0
N302 N 0.4139 0.97087 0.48638 0.0
C303 C 0.3959 0.95977 0.49626 0.0
C304 C 0.48489 0.93253 0.53829 0.0
O305 O 0.44211 0.91207 0.57482 0.0
O306 O 0.42867 0.9202 0.54228 0.0
O307 O 0.46867 0.94151 0.52774 0.0
O308 O 0.48246 0.92986 0.55931 0.0
O309 O 0.45284 0.97931 0.54735 0.0
H310 H 0.39232 0.94169 0.52767 0.0
H311 H 0.44888 0.97623 0.4973 0.0
O312 O 0.47106 0.96882 0.57693 0.0
O313 O 0.43142 0.95079 0.59314 0.0
O314 O 0.4133 0.95776 0.56256 0.0
C315 C 0.41337 0.95709 0.58384 0.0
H316 H 0.48679 0.94164 0.65385 0.0
H317 H 0.37874 0.95787 0.48962 0.0
Co318 Co 0.54222 0.54261 0.56013 0.0
C319 C 0.54051 0.57918 0.58936 0.0
Co320 Co 0.55832 0.57334 0.54645 0.0
C321 C 0.53404 0.49641 0.57366 0.0
C322 C 0.50619 0.51793 0.58276 0.0
N323 N 0.52725 0.51764 0.57224 0.0
N324 N 0.51805 0.48357 0.58486 0.0
C325 C 0.50053 0.49713 0.59051 0.0
H326 H 0.55059 0.49063 0.56711 0.0
H327 H 0.49568 0.53246 0.58489 0.0
C328 C 0.56114 0.5371 0.51719 0.0
N329 N 0.57261 0.59853 0.53471 0.0
C330 C 0.58517 0.61403 0.54563 0.0
C331 C 0.57203 0.60581 0.51351 0.0
N332 N 0.59236 0.63082 0.53215 0.0
C333 C 0.58417 0.62561 0.51187 0.0
C334 C 0.58834 0.54766 0.57046 0.0
O335 O 0.5503 0.52662 0.5329 0.0
O336 O 0.56613 0.5575 0.51999 0.0
O337 O 0.58664 0.56515 0.55899 0.0
O338 O 0.57081 0.53458 0.57273 0.0
O339 O 0.55057 0.58902 0.57296 0.0
H340 H 0.56313 0.59737 0.50017 0.0
H341 H 0.58842 0.61322 0.56331 0.0
O342 O 0.53481 0.55881 0.58726 0.0
O343 O 0.51349 0.55132 0.54762 0.0
O344 O 0.52995 0.58164 0.53426 0.0
C345 C 0.51194 0.56938 0.53702 0.0
H346 H 0.48464 0.49235 0.59954 0.0
H347 H 0.58675 0.63533 0.49685 0.0
Co348 Co 0.57064 0.44874 0.9674 0.0
C349 C 0.59973 0.4463 0.92932 0.0
Co350 Co 0.55466 0.43218 0.93862 0.0
C351 C 0.58168 0.46182 0.01309 0.0
C352 C 0.59626 0.48351 0.98792 0.0
N353 N 0.58361 0.46462 0.99069 0.0
N354 N 0.59245 0.47842 0.0243 0.0
C355 C 0.60171 0.49198 0.00845 0.0
H356 H 0.57198 0.4483 0.02099 0.0
H357 H 0.60083 0.49094 0.97192 0.0
C358 C 0.52499 0.43403 0.97587 0.0
N359 N 0.54231 0.41682 0.91489 0.0
C360 C 0.55391 0.40227 0.90171 0.0
C361 C 0.52093 0.41748 0.90657 0.0
N362 N 0.54078 0.39386 0.88537 0.0
C363 C 0.51991 0.40329 0.88839 0.0
C364 C 0.57933 0.40428 0.96638 0.0
O365 O 0.5421 0.44387 0.98494 0.0
O366 O 0.52728 0.42732 0.95576 0.0
O367 O 0.56694 0.40525 0.94925 0.0
O368 O 0.58279 0.4218 0.97788 0.0
O369 O 0.58191 0.437 0.92145 0.0
H370 H 0.5071 0.42774 0.91315 0.0
H371 H 0.5717 0.39782 0.9042 0.0
O372 O 0.59886 0.45331 0.94944 0.0
O373 O 0.55877 0.47558 0.95666 0.0
O374 O 0.54278 0.45937 0.92799 0.0
C375 C 0.54713 0.47693 0.93912 0.0
H376 H 0.61175 0.507 0.01148 0.0
H377 H 0.50516 0.4005 0.87797 0.0
Co378 Co 0.46139 0.07714 0.95484 0.0
C379 C 0.50581 0.06291 0.96555 0.0
Co380 Co 0.46901 0.0423 0.94551 0.0
C381 C 0.43799 0.1184 0.9655 0.0
C382 C 0.47453 0.12289 0.9592 0.0
N383 N 0.45766 0.10713 0.96107 0.0
N384 N 0.44195 0.14055 0.96616 0.0
C385 C 0.46498 0.14336 0.96235 0.0
H386 H 0.42095 0.11059 0.96706 0.0
H387 H 0.49253 0.1198 0.95484 0.0
C388 C 0.42487 0.05717 0.93429 0.0
N389 N 0.47192 0.01199 0.93911 0.0
C390 C 0.48868 0.99957 0.92899 0.0
C391 C 0.45441 0.9974 0.9439 0.0
N392 N 0.48188 0.978 0.92709 0.0
C393 C 0.46038 0.97672 0.9365 0.0
C394 C 0.44879 0.0492 0.98892 0.0
O395 O 0.43146 0.07537 0.94297 0.0
O396 O 0.4384 0.04085 0.93416 0.0
O397 O 0.45687 0.03495 0.97504 0.0
O398 O 0.44891 0.06948 0.9834 0.0
O399 O 0.4998 0.0444 0.95681 0.0
H400 H 0.43804 1.0016 0.95206 0.0
H401 H 0.50516 0.00625 0.92264 0.0
O402 O 0.49144 0.07857 0.96643 0.0
O403 O 0.47377 0.08463 0.92635 0.0
O404 O 0.48081 0.05036 0.91605 0.0
C405 C 0.481 0.07098 0.91155 0.0
H406 H 0.47424 0.15912 0.96143 0.0
H407 H 0.44973 0.96178 0.93794 0.0
H408 H 0.96954 0.16761 0.37296 0.0
H409 H 0.97394 0.13057 0.38833 0.0
H410 H 0.04814 0.14095 0.38817 0.0
H411 H 0.04396 0.17777 0.37252 0.0
H412 H 0.03531 0.10212 0.36728 0.0
H413 H 0.9899 0.10921 0.45039 0.0
H414 H 0.97314 0.11743 0.42724 0.0
H415 H 0.99882 0.1331 0.43405 0.0
C416 C 0.98676 0.1622 0.37662 0.0
C417 C 1.0064 0.17569 0.37147 0.0
C418 C 0.98924 0.14101 0.38546 0.0
C419 C 0.01136 0.133 0.38952 0.0
C420 C 0.0309 0.14676 0.38516 0.0
H421 H 0.05463 0.01812 0.45951 0.0
H422 H 0.04414 0.05481 0.4471 0.0
C423 C 0.02846 0.16787 0.37627 0.0
C424 C 0.01445 0.10981 0.39679 0.0
H425 H 1.00159 0.07331 0.43899 0.0
C426 C 0.02791 0.09581 0.38295 0.0
C427 C 1.00488 0.10164 0.41728 0.0
C428 C 0.99104 0.11614 0.43323 0.0
C429 C 0.0322 0.07393 0.38908 0.0
C430 C 0.02241 0.06564 0.40944 0.0
C431 C 0.00886 0.07961 0.42326 0.0
C432 C 0.02734 0.04303 0.41736 0.0
C433 C 0.04782 0.06011 0.37403 0.0
C434 C 0.02098 0.0241 0.40498 0.0
C435 C 0.02705 1.00298 0.412 0.0
C436 C 0.03947 1.00044 0.4316 0.0
C437 C 0.04514 0.01942 0.44428 0.0
C438 C 0.03911 0.04045 0.43725 0.0
H439 H 0.05806 0.07043 0.36179 0.0
H440 H 0.06001 0.0506 0.38399 0.0
H441 H 0.03706 0.04812 0.36452 0.0
H442 H 0.01152 0.02567 0.38978 0.0
H443 H 0.02229 0.98871 0.40192 0.0
H444 H 0.99384 0.28387 0.37893 0.0
H445 H 0.99324 0.32214 0.39231 0.0
H446 H 0.06502 0.33121 0.37133 0.0
H447 H 0.06587 0.2927 0.35778 0.0
H448 H 0.05162 0.35122 0.4148 0.0
H449 H 0.99421 0.37416 0.34669 0.0
H450 H 0.98392 0.35056 0.36253 0.0
H451 H 0.01052 0.34896 0.34606 0.0
C452 C 0.00967 0.2938 0.37744 0.0
C453 C 0.02988 0.28516 0.3671 0.0
C454 C 0.00923 0.31577 0.38498 0.0
C455 C 0.02893 0.32967 0.38238 0.0
C456 C 0.04956 0.32081 0.37332 0.0
H457 H 1.00664 0.47325 0.39825 0.0
H458 H 0.02347 0.43859 0.38363 0.0
C459 C 0.05003 0.29876 0.36568 0.0
C460 C 0.02744 0.35358 0.38838 0.0
H461 H 0.99762 0.40013 0.3768 0.0
C462 C 0.04006 0.36201 0.40633 0.0
C463 C 0.01273 0.36781 0.37703 0.0
C464 C 0.99972 0.36003 0.35686 0.0
C465 C 0.03728 0.38394 0.41403 0.0
C466 C 0.02132 0.3977 0.40364 0.0
C467 C 0.00976 0.38962 0.38487 0.0
C468 C 0.01443 0.41953 0.4133 0.0
C469 C 0.05121 0.39206 0.43344 0.0
C470 C 1.00407 0.42045 0.43485 0.0
C471 C 0.99448 0.44006 0.44307 0.0
C472 C 0.99495 0.45928 0.42996 0.0
C473 C 1.00627 0.45875 0.40877 0.0
C474 C 0.01575 0.43894 0.4004 0.0
H475 H 0.06765 0.38293 0.43444 0.0
H476 H 0.05537 0.41005 0.43213 0.0
H477 H 0.04099 0.38919 0.44926 0.0
H478 H 1.00237 0.40568 0.44498 0.0
H479 H 0.98592 0.44003 0.45948 0.0
H480 H 0.97441 0.78712 0.15751 0.0
H481 H 0.97654 0.82439 0.14152 0.0
H482 H 0.04911 0.81615 0.12462 0.0
H483 H 0.04722 0.77905 0.14047 0.0
H484 H 0.03878 0.85533 0.14947 0.0
H485 H 0.98385 0.84531 0.07543 0.0
H486 H 0.97109 0.83519 0.10135 0.0
H487 H 0.99624 0.82207 0.08921 0.0
C488 C 0.99073 0.79309 0.15007 0.0
C489 C 0.01063 0.78004 0.15031 0.0
C490 C 0.9919 0.81438 0.14087 0.0
C491 C 0.01296 0.82299 0.13174 0.0
C492 C 0.03268 0.80982 0.13151 0.0
H493 H 0.03838 0.95054 0.06424 0.0
H494 H 0.03894 0.91102 0.07398 0.0
C495 C 0.03152 0.78856 0.14057 0.0
C496 C 0.01494 0.84624 0.12387 0.0
H497 H 0.99534 0.88211 0.08526 0.0
C498 C 0.02939 0.86114 0.13534 0.0
C499 C 1.00284 0.85375 0.10532 0.0
C500 C 0.98776 0.83826 0.09194 0.0
C501 C 0.03157 0.88349 0.12915 0.0
C502 C 0.01895 0.89114 0.11104 0.0
C503 C 1.00497 0.87616 0.09916 0.0
C504 C 0.01909 0.91493 0.10508 0.0
C505 C 0.04722 0.89886 0.14209 0.0
C506 C 0.0078 0.9301 0.11935 0.0
C507 C 1.00739 0.95249 0.11381 0.0
C508 C 0.01835 0.96026 0.09391 0.0
C509 C 0.02996 0.94507 0.07975 0.0
C510 C 0.03016 0.92253 0.08521 0.0
H511 H 0.05915 0.88964 0.15261 0.0
H512 H 0.05766 0.90973 0.13052 0.0
H513 H 0.03645 0.90962 0.15321 0.0
H514 H 0.99911 0.92455 0.13472 0.0
H515 H 0.99855 0.96378 0.12521 0.0
H516 H 0.98834 0.68483 0.1281 0.0
H517 H 0.97852 0.65186 0.10616 0.0
H518 H 0.04871 0.62956 0.1101 0.0
H519 H 0.05886 0.66274 0.1319 0.0
H520 H 0.0258 0.62016 0.06721 0.0
H521 H 0.97456 0.59369 0.14332 0.0
H522 H 0.96751 0.62025 0.13243 0.0
H523 H 0.99554 0.61626 0.14372 0.0
C524 C 1.00185 0.67317 0.12392 0.0
C525 C 0.0243 0.67621 0.13205 0.0
C526 C 0.99619 0.65435 0.11136 0.0
C527 C 0.01279 0.63815 0.10686 0.0
C528 C 0.03566 0.6419 0.11346 0.0
H529 H 0.99361 0.49878 0.09457 0.0
H530 H 1.00641 0.53674 0.10181 0.0
C531 C 0.04141 0.66084 0.12594 0.0
C532 C 1.00558 0.61623 0.09793 0.0
H533 H 0.9736 0.56994 0.11202 0.0
C534 C 0.0143 0.60917 0.07689 0.0
C535 C 0.99077 0.60191 0.11077 0.0
C536 C 0.98165 0.60824 0.13389 0.0
C537 C 0.00855 0.58802 0.06837 0.0
C538 C 0.99371 0.57379 0.08125 0.0
C539 C 0.98488 0.58099 0.10215 0.0
C540 C 0.98829 0.55069 0.0744 0.0
C541 C 0.01887 0.58074 0.04606 0.0
C542 C 0.97417 0.54588 0.05624 0.0
C543 C 0.96676 0.52401 0.05198 0.0
C544 C 0.97324 0.50677 0.06598 0.0
C545 C 0.98812 0.51166 0.08357 0.0
C546 C 0.99553 0.53336 0.08772 0.0
H547 H 0.03271 0.5924 0.03974 0.0
H548 H 0.02622 0.56397 0.04734 0.0
H549 H 1.00503 0.5798 0.03364 0.0
H550 H 0.96814 0.55909 0.04596 0.0
H551 H 0.95527 0.52075 0.03834 0.0
H552 H 0.35693 0.96745 0.17467 0.0
H553 H 0.37669 0.97244 0.13793 0.0
H554 H 0.3804 0.04298 0.14937 0.0
H555 H 0.36083 0.03826 0.18585 0.0
H556 H 0.35946 0.02838 0.10806 0.0
H557 H 0.44558 0.99139 0.12058 0.0
H558 H 0.42014 0.97559 0.12954 0.0
H559 H 0.42732 1.00099 0.1437 0.0
C560 C 0.36232 0.98398 0.16952 0.0
C561 C 0.35722 1.00245 0.18322 0.0
C562 C 0.37364 0.98679 0.14854 0.0
C563 C 0.38007 0.00808 0.14098 0.0
C564 C 0.3756 0.02641 0.1549 0.0
H565 H 0.43286 0.07567 0.02321 0.0
H566 H 0.41621 0.0643 0.05953 0.0
C567 C 0.36441 0.02364 0.17579 0.0
C568 C 0.38997 0.0117 0.11803 0.0
H569 H 0.43882 1.00543 0.08478 0.0
C570 C 0.37678 0.02329 0.10292 0.0
C571 C 0.41245 1.00485 0.11134 0.0
C572 C 0.42737 0.99261 0.12709 0.0
C573 C 0.38556 0.02847 0.08137 0.0
C574 C 0.40841 0.02238 0.07491 0.0
C575 C 0.42138 0.01022 0.0898 0.0
C576 C 0.41932 0.02915 0.05306 0.0
C577 C 0.37017 0.04028 0.06567 0.0
C578 C 0.42736 0.01322 0.03758 0.0
C579 C 0.43711 0.01968 0.0168 0.0
C580 C 0.43908 0.04224 0.01115 0.0
C581 C 0.43143 0.05816 0.0269 0.0
C582 C 0.42178 0.05168 0.04766 0.0
H583 H 0.35152 0.0377 0.07041 0.0
H584 H 0.37411 0.05833 0.06644 0.0
H585 H 0.37315 0.03454 0.04812 0.0
H586 H 0.42577 0.99575 0.04144 0.0
H587 H 0.44289 0.00699 1.00508 0.0
H588 H 0.65311 0.54177 0.21846 0.0
H589 H 0.63334 0.53796 0.18304 0.0
H590 H 0.62603 0.46749 0.19297 0.0
H591 H 0.64537 0.47114 0.22841 0.0
H592 H 0.65225 0.51316 0.14842 0.0
H593 H 0.56297 0.48232 0.16935 0.0
H594 H 0.58122 0.49534 0.18982 0.0
H595 H 0.58505 0.46676 0.1821 0.0
C596 C 0.6467 0.52556 0.21343 0.0
C597 C 0.65096 0.50675 0.22621 0.0
C598 C 0.63545 0.5234 0.19316 0.0
C599 C 0.62806 0.50246 0.18544 0.0
C600 C 0.63115 0.48386 0.19877 0.0
H601 H 0.5938 0.44669 0.05606 0.0
H602 H 0.6005 0.45265 0.09607 0.0
C603 C 0.64239 0.48598 0.219 0.0
C604 C 0.62008 0.49961 0.16228 0.0
H605 H 0.57617 0.47838 0.1311 0.0
C606 C 0.63549 0.50582 0.14465 0.0
C607 C 0.59835 0.48971 0.1574 0.0
C608 C 0.58085 0.48332 0.17567 0.0
C609 C 0.62999 0.50205 0.12228 0.0
C610 C 0.60829 0.49214 0.11738 0.0
C611 C 0.5928 0.48596 0.13496 0.0
C612 C 0.60153 0.48841 0.09397 0.0
C613 C 0.64773 0.50818 0.10408 0.0
C614 C 0.59913 0.50652 0.07983 0.0
C615 C 0.59541 0.50316 0.05713 0.0
C616 C 0.59384 0.48161 0.04812 0.0
C617 C 0.59493 0.46345 0.06255 0.0
C618 C 0.59878 0.46684 0.08535 0.0
H619 H 0.66538 0.51049 0.11071 0.0
H620 H 0.64837 0.49527 0.09074 0.0
H621 H 0.64284 0.52399 0.0964 0.0
H622 H 0.60073 0.52329 0.08627 0.0
H623 H 0.59406 0.51748 0.04655 0.0
H624 H 0.37181 0.98903 0.28225 0.0
H625 H 0.39003 0.98464 0.31811 0.0
H626 H 0.36792 0.04961 0.33874 0.0
H627 H 0.34959 0.05426 0.30267 0.0
H628 H 0.41613 0.03499 0.35277 0.0
H629 H 0.34251 0.97678 0.37332 0.0
H630 H 0.35815 0.9716 0.34731 0.0
H631 H 0.34174 0.99639 0.35078 0.0
C632 C 0.37122 1.00264 0.29417 0.0
C633 C 0.35898 0.02192 0.28965 0.0
C634 C 0.38168 1.00008 0.31467 0.0
C635 C 0.38009 0.01667 0.33117 0.0
C636 C 0.36935 0.0366 0.3262 0.0
H637 H 0.37916 0.99585 0.47298 0.0
H638 H 0.37362 0.0095 0.43529 0.0
C639 C 0.35889 0.03924 0.30557 0.0
C640 C 0.38708 0.012 0.3543 0.0
H641 H 0.37178 0.98023 0.39961 0.0
C642 C 0.40648 0.02304 0.36307 0.0
C643 C 0.37434 0.99653 0.36774 0.0
C644 C 0.35291 0.98471 0.35947 0.0
C645 C 0.41355 0.01882 0.38495 0.0
C646 C 0.40093 1.00312 0.39825 0.0
C647 C 0.38151 0.99221 0.3894 0.0
C648 C 0.40661 0.9982 0.42176 0.0
C649 C 0.43411 0.03146 0.39386 0.0
C650 C 0.42737 0.98789 0.42697 0.0
C651 C 0.43062 0.98014 0.44872 0.0
C652 C 0.41302 0.98235 0.4654 0.0
C653 C 0.3929 0.99373 0.46037 0.0
C654 C 0.38973 1.00157 0.43885 0.0
H655 H 0.43901 0.04604 0.38338 0.0
H656 H 0.4304 0.03717 0.4113 0.0
H657 H 0.44919 0.02037 0.39402 0.0
H658 H 0.4405 0.98479 0.41399 0.0
H659 H 0.44618 0.97124 0.45213 0.0
H660 H 0.66158 0.4497 0.33799 0.0
H661 H 0.63819 0.45094 0.37317 0.0
H662 H 0.62411 0.51966 0.36181 0.0
H663 H 0.64692 0.51853 0.32687 0.0
H664 H 0.64547 0.47754 0.41046 0.0
H665 H 0.55977 0.4949 0.37717 0.0
H666 H 0.5835 0.48485 0.35966 0.0
H667 H 0.5816 0.51391 0.36638 0.0
C668 C 0.65319 0.46496 0.34285 0.0
C669 C 0.65609 0.48398 0.3295 0.0
C670 C 0.63989 0.46566 0.36298 0.0
C671 C 0.62902 0.48529 0.36998 0.0
C672 C 0.63178 0.50416 0.35656 0.0
H673 H 0.57535 0.55725 0.47852 0.0
H674 H 0.5897 0.54029 0.44378 0.0
C675 C 0.64503 0.50351 0.33658 0.0
C676 C 0.61597 0.48684 0.39188 0.0
H677 H 0.56547 0.50609 0.41565 0.0
C678 C 0.62777 0.48323 0.41164 0.0
C679 C 0.59281 0.49416 0.39346 0.0
C680 C 0.57861 0.49695 0.37301 0.0
C681 C 0.61762 0.4883 0.43278 0.0
C682 C 0.59507 0.49707 0.43418 0.0
C683 C 0.58279 0.49944 0.41455 0.0
C684 C 0.58525 0.50662 0.45537 0.0
C685 C 0.63155 0.48562 0.45341 0.0
C686 C 0.5776 0.49327 0.47342 0.0
C687 C 0.56914 0.50297 0.49348 0.0
C688 C 0.56843 0.52617 0.49578 0.0
C689 C 0.57576 0.53934 0.47745 0.0
C690 C 0.58394 0.52968 0.4575 0.0
H691 H 0.64941 0.47994 0.44935 0.0
H692 H 0.63266 0.50159 0.4627 0.0
H693 H 0.6227 0.47334 0.46467 0.0
H694 H 0.57831 0.4754 0.47204 0.0
H695 H 0.56365 0.49238 0.50728 0.0
H696 H 0.19847 0.38866 0.0494 0.0
H697 H 0.158 0.39983 0.05072 0.0
H698 H 0.15624 0.39449 0.97891 0.0
H699 H 0.19685 0.38311 0.97733 0.0
H700 H 0.1326 0.43521 1.00505 0.0
H701 H 0.10643 0.34995 0.0316 0.0
H702 H 0.13057 0.36278 0.04538 0.0
H703 H 0.1333 0.35594 0.01616 0.0
C704 C 0.18971 0.39027 0.0338 0.0
C705 C 0.20096 0.38483 0.01326 0.0
C706 C 0.16653 0.39661 0.03462 0.0
C707 C 0.15411 0.39777 0.01495 0.0
C708 C 0.16556 0.39365 0.99428 0.0
H709 H 1.00625 0.43271 1.00611 0.0
H710 H 0.04656 0.4242 0.99511 0.0
C711 C 0.18879 0.38719 0.99343 0.0
C712 C 0.12878 0.4016 0.01634 0.0
H713 H 0.07743 0.37699 0.0335 0.0
C714 C 0.12043 0.42247 0.011 0.0
C715 C 0.11303 0.38489 0.02408 0.0
C716 C 0.12113 0.36204 0.02953 0.0
C717 C 0.09676 0.42737 0.01419 0.0
C718 C 0.08104 0.41078 0.0225 0.0
C719 C 0.08941 0.3897 0.02711 0.0
C720 C 0.0563 0.41537 0.02846 0.0
C721 C 0.08898 0.45054 0.00963 0.0
C722 C 0.04812 0.41254 0.05064 0.0
C723 C 0.02517 0.41712 0.05688 0.0
C724 C 0.0097 0.42465 0.04108 0.0
C725 C 0.01771 0.42701 0.0187 0.0
C726 C 0.04081 0.42234 0.01243 0.0
H727 H 0.10387 0.46245 0.00785 0.0
H728 H 0.0795 0.45052 0.99382 0.0
H729 H 0.07705 0.45644 0.02329 0.0
H730 H 0.05967 0.4071 0.06329 0.0
H731 H 0.01968 0.41506 0.07426 0.0
H732 H 0.21176 0.6371 0.4798 0.0
H733 H 0.17653 0.61519 0.47334 0.0
H734 H 0.15428 0.6244 0.5423 0.0
H735 H 0.18972 0.64627 0.54907 0.0
H736 H 0.14448 0.57997 0.52275 0.0
H737 H 0.11502 0.65003 0.47197 0.0
H738 H 0.14297 0.63947 0.46381 0.0
H739 H 0.13887 0.65281 0.49059 0.0
C740 C 0.19959 0.6342 0.49374 0.0
C741 C 0.20342 0.64371 0.5149 0.0
C742 C 0.17946 0.62166 0.48998 0.0
C743 C 0.16267 0.61847 0.50725 0.0
C744 C 0.16704 0.62672 0.52875 0.0
H745 H 0.01659 0.59919 0.49514 0.0
H746 H 0.05577 0.60946 0.50558 0.0
C747 C 0.18728 0.63924 0.53257 0.0
C748 C 0.13969 0.60851 0.50225 0.0
H749 H 0.091 0.61803 0.47335 0.0
C750 C 0.13276 0.5882 0.51192 0.0
C751 C 0.1244 0.61944 0.48828 0.0
C752 C 0.13051 0.64173 0.47818 0.0
C753 C 0.11086 0.57851 0.50787 0.0
C754 C 0.09569 0.5894 0.49374 0.0
C755 C 0.10273 0.60965 0.48407 0.0
C756 C 0.07181 0.58106 0.48969 0.0
C757 C 0.10382 0.55705 0.51914 0.0
C758 C 0.06769 0.56136 0.47762 0.0
C759 C 0.04509 0.55533 0.47161 0.0
C760 C 0.02639 0.56906 0.47741 0.0
C761 C 0.03058 0.5883 0.49022 0.0
C762 C 0.053 0.59421 0.49626 0.0
H763 H 0.11572 0.55282 0.53259 0.0
H764 H 0.08588 0.55796 0.52642 0.0
H765 H 0.10409 0.54345 0.50653 0.0
H766 H 0.08202 0.55114 0.4721 0.0
H767 H 0.04241 0.54047 0.46167 0.0
H768 H 0.81547 0.89495 0.48663 0.0
H769 H 0.85568 0.9086 0.48508 0.0
H770 H 0.85712 0.90695 0.55705 0.0
H771 H 0.81686 0.89313 0.55882 0.0
H772 H 0.87991 0.94573 0.50529 0.0
H773 H 0.90859 0.86398 0.53506 0.0
H774 H 0.87982 0.86802 0.52514 0.0
H775 H 0.8873 0.87794 0.55239 0.0
C776 C 0.82414 0.89786 0.50218 0.0
C777 C 0.81294 0.89272 0.52284 0.0
C778 C 0.84716 0.90568 0.50126 0.0
C779 C 0.85952 0.90844 0.52092 0.0
C780 C 0.84801 0.90462 0.54165 0.0
H781 H 1.0067 0.95583 0.51027 0.0
H782 H 0.96676 0.95122 0.5259 0.0
C783 C 0.82493 0.89684 0.54261 0.0
C784 C 0.88483 0.91362 0.51942 0.0
H785 H 0.93767 0.89015 0.52506 0.0
C786 C 0.89259 0.93377 0.50996 0.0
C787 C 0.90132 0.89787 0.52535 0.0
C788 C 0.89398 0.87565 0.53491 0.0
C789 C 0.91636 0.93832 0.50568 0.0
C790 C 0.93277 0.92232 0.51109 0.0
C791 C 0.92506 0.90248 0.52119 0.0
C792 C 0.95748 0.92443 0.50342 0.0
C793 C 0.92373 0.95965 0.49431 0.0
C794 C 0.96562 0.91052 0.48613 0.0
C795 C 0.98817 0.91313 0.47723 0.0
C796 C 1.00327 0.9296 0.48554 0.0
C797 C 0.99549 0.94295 0.50358 0.0
C798 C 0.97267 0.94045 0.51239 0.0
H799 H 0.90868 0.96938 0.48927 0.0
H800 H 0.93415 0.96996 0.50587 0.0
H801 H 0.93485 0.95613 0.47921 0.0
H802 H 0.95424 0.89802 0.47901 0.0
H803 H 0.99362 0.90248 0.46343 0.0
H804 H 0.32493 0.65789 0.46431 0.0
H805 H 0.36184 0.63896 0.46784 0.0
H806 H 0.34378 0.62455 0.53682 0.0
H807 H 0.30715 0.64338 0.53355 0.0
H808 H 0.3874 0.64528 0.53035 0.0
H809 H 0.37715 0.57251 0.47368 0.0
H810 H 0.37111 0.59897 0.46188 0.0
H811 H 0.35278 0.58823 0.4843 0.0
C812 C 0.32865 0.65036 0.48012 0.0
C813 C 0.31305 0.65224 0.49865 0.0
C814 C 0.34974 0.63948 0.48209 0.0
C815 C 0.35553 0.63022 0.50258 0.0
C816 C 0.33969 0.63154 0.52085 0.0
H817 H 0.46925 0.54853 0.54195 0.0
H818 H 0.43152 0.56288 0.53211 0.0
C819 C 0.3187 0.64233 0.51891 0.0
C820 C 0.3787 0.62057 0.50569 0.0
H821 H 0.41397 0.57809 0.48948 0.0
C822 C 0.39321 0.63061 0.52138 0.0
C823 C 0.38619 0.60132 0.49412 0.0
C824 C 0.37098 0.58945 0.47766 0.0
C825 C 0.41499 0.62202 0.52577 0.0
C826 C 0.42266 0.60297 0.51397 0.0
C827 C 0.40813 0.59278 0.49838 0.0
C828 C 0.44564 0.59335 0.51799 0.0
C829 C 0.42946 0.63316 0.54334 0.0
C830 C 0.46613 0.60546 0.5128 0.0
C831 C 0.48768 0.59733 0.51837 0.0
C832 C 0.48923 0.57686 0.52923 0.0
C833 C 0.46871 0.56436 0.53364 0.0
C834 C 0.44713 0.57252 0.52801 0.0
H835 H 0.41906 0.64447 0.55425 0.0
H836 H 0.43748 0.62068 0.554 0.0
H837 H 0.44364 0.64308 0.535 0.0
H838 H 0.46541 0.62145 0.50481 0.0
H839 H 0.5031 0.60736 0.51459 0.0
H840 H 0.47389 0.6673 0.87103 0.0
H841 H 0.47715 0.63014 0.88646 0.0
H842 H 0.55142 0.63916 0.88802 0.0
H843 H 0.54839 0.67611 0.87232 0.0
H844 H 0.53843 0.60062 0.86673 0.0
H845 H 0.49101 0.60817 0.94879 0.0
H846 H 0.47504 0.61674 0.92524 0.0
H847 H 0.50076 0.63198 0.93272 0.0
C848 C 0.49087 0.66158 0.87512 0.0
C849 C 0.51088 0.67473 0.87041 0.0
C850 C 0.4927 0.64031 0.88397 0.0
C851 C 0.51453 0.63187 0.8885 0.0
C852 C 0.5344 0.6453 0.88463 0.0
H853 H 0.55419 0.51679 0.95983 0.0
H854 H 0.54442 0.55343 0.94683 0.0
C855 C 0.53261 0.66649 0.87573 0.0
C856 C 0.51697 0.60857 0.89577 0.0
H857 H 0.50242 0.57214 0.93761 0.0
C858 C 0.53052 0.59438 0.88222 0.0
C859 C 0.50672 0.60047 0.91601 0.0
C860 C 0.49273 0.61514 0.93167 0.0
C861 C 0.53429 0.5724 0.88842 0.0
C862 C 0.52386 0.56422 0.90856 0.0
C863 C 0.51018 0.57836 0.92205 0.0
C864 C 0.52841 0.54159 0.91671 0.0
C865 C 0.55006 0.55839 0.87373 0.0
C866 C 0.52227 0.5226 0.90429 0.0
C867 C 0.52793 0.50146 0.91166 0.0
C868 C 0.53971 0.49898 0.93164 0.0
C869 C 0.54519 0.51803 0.94431 0.0
C870 C 0.53956 0.53905 0.93694 0.0
H871 H 0.56066 0.56857 0.86165 0.0
H872 H 0.56191 0.54879 0.88398 0.0
H873 H 0.53939 0.54647 0.86404 0.0
H874 H 0.51328 0.52413 0.88881 0.0
H875 H 0.52335 0.48715 0.90157 0.0
H876 H 0.5015 0.78138 0.87873 0.0
H877 H 0.50055 0.81967 0.89221 0.0
H878 H 0.56968 0.83143 0.86454 0.0
H879 H 0.57081 0.79299 0.85091 0.0
H880 H 0.53103 0.846 0.92037 0.0
H881 H 0.5281 0.87684 0.83306 0.0
H882 H 0.52226 0.84818 0.84001 0.0
H883 H 0.5515 0.85897 0.83936 0.0
C884 C 0.5167 0.79194 0.87582 0.0
C885 C 0.53619 0.78407 0.86361 0.0
C886 C 0.51612 0.81387 0.88355 0.0
C887 C 0.5349 0.82853 0.87911 0.0
C888 C 0.55487 0.82049 0.86793 0.0
H889 H 0.52661 0.96643 0.93235 0.0
H890 H 0.5442 0.93123 0.92002 0.0
C891 C 0.55555 0.79844 0.8603 0.0
C892 C 0.53273 0.85242 0.88503 0.0
H893 H 0.52425 0.90313 0.86203 0.0
C894 C 0.52996 0.85859 0.90766 0.0
C895 C 0.53109 0.86878 0.86839 0.0
C896 C 0.53323 0.863 0.84381 0.0
C897 C 0.52501 0.88053 0.91405 0.0
C898 C 0.52283 0.89677 0.89738 0.0
C899 C 0.52622 0.89073 0.87479 0.0
C900 C 0.5139 0.91919 0.90291 0.0
C901 C 0.52091 0.88598 0.93852 0.0
C902 C 0.49147 0.92442 0.89671 0.0
C903 C 0.48154 0.94429 0.90373 0.0
C904 C 0.49387 0.95957 0.9169 0.0
C905 C 0.51685 0.95499 0.92207 0.0
C906 C 0.52676 0.93484 0.91522 0.0
H907 H 0.52071 0.87099 0.94915 0.0
H908 H 0.53488 0.89744 0.94414 0.0
H909 H 0.50414 0.89448 0.94116 0.0
H910 H 0.48124 0.91268 0.88718 0.0
H911 H 0.46385 0.94749 0.89944 0.0
H912 H 0.54794 0.27869 0.6349 0.0
H913 H 0.54971 0.31593 0.61931 0.0
H914 H 0.47739 0.32427 0.63721 0.0
H915 H 0.47537 0.28688 0.653 0.0
H916 H 0.49501 0.3407 0.59148 0.0
H917 H 0.54527 0.37097 0.66385 0.0
H918 H 0.55555 0.34645 0.64972 0.0
H919 H 0.52807 0.34562 0.66475 0.0
C920 C 0.53227 0.28825 0.63528 0.0
C921 C 0.51153 0.27981 0.64539 0.0
C922 C 0.53336 0.30958 0.62638 0.0
C923 C 0.51377 0.3229 0.62735 0.0
C924 C 0.49272 0.31421 0.63636 0.0
H925 H 0.49922 0.46364 0.62166 0.0
H926 H 0.49907 0.42426 0.63044 0.0
C927 C 0.49161 0.29285 0.64537 0.0
C928 C 0.51571 0.34636 0.62028 0.0
H929 H 0.53891 0.39661 0.63536 0.0
C930 C 0.50467 0.35294 0.60098 0.0
C931 C 0.52822 0.36226 0.63283 0.0
C932 C 0.53986 0.35613 0.65405 0.0
C933 C 0.50586 0.3751 0.59387 0.0
C934 C 0.51846 0.39097 0.60638 0.0
C935 C 0.52947 0.38435 0.62569 0.0
C936 C 0.51903 0.41485 0.6007 0.0
C937 C 0.49314 0.38156 0.5734 0.0
C938 C 0.53066 0.42271 0.58121 0.0
C939 C 0.53083 0.44535 0.57615 0.0
C940 C 0.51921 0.46043 0.59043 0.0
C941 C 0.50797 0.45244 0.61011 0.0
C942 C 0.50797 0.42994 0.61522 0.0
H943 H 0.48132 0.36808 0.56761 0.0
H944 H 0.48287 0.39662 0.57688 0.0
H945 H 0.50593 0.38547 0.55962 0.0
H946 H 0.53957 0.41133 0.56993 0.0
H947 H 0.53955 0.451 0.56085 0.0
H948 H 0.49137 0.1829 0.62813 0.0
H949 H 0.4827 0.14901 0.60722 0.0
H950 H 0.5542 0.13024 0.60982 0.0
H951 H 0.56318 0.16429 0.63077 0.0
H952 H 0.52794 0.12018 0.56645 0.0
H953 H 0.48598 0.09056 0.6463 0.0
H954 H 0.47719 0.11713 0.63669 0.0
H955 H 0.50639 0.11365 0.64523 0.0
C956 C 0.50541 0.17183 0.62388 0.0
C957 C 0.52791 0.17611 0.63141 0.0
C958 C 0.5004 0.15251 0.61188 0.0
C959 C 0.51776 0.13711 0.60724 0.0
C960 C 0.5406 0.14201 0.61327 0.0
H961 H 0.49972 0.99667 0.59196 0.0
H962 H 0.5137 0.03417 0.5999 0.0
C963 C 0.54567 0.16143 0.62526 0.0
C964 C 0.51139 0.11481 0.59883 0.0
H965 H 0.48306 0.0671 0.61486 0.0
C966 C 0.51813 0.10851 0.57694 0.0
C967 C 0.49878 0.09967 0.61273 0.0
C968 C 0.49176 0.10542 0.63661 0.0
C969 C 0.51234 0.08735 0.56853 0.0
C970 C 0.49946 0.07235 0.58239 0.0
C971 C 0.49286 0.0787 0.60427 0.0
C972 C 0.49316 0.0496 0.57507 0.0
C973 C 0.52035 0.081 0.54511 0.0
C974 C 0.4772 0.04583 0.5582 0.0
C975 C 0.4691 0.02429 0.55357 0.0
C976 C 0.47672 0.0063 0.56593 0.0
C977 C 0.49334 0.01015 0.58224 0.0
C978 C 0.50143 0.03157 0.58677 0.0
H979 H 0.53381 0.09274 0.53822 0.0
H980 H 0.52743 0.06404 0.54479 0.0
H981 H 0.50533 0.08101 0.53403 0.0
H982 H 0.47034 0.05959 0.54923 0.0
H983 H 0.45628 0.02185 0.54093 0.0
H984 H 0.85823 0.54551 0.69013 0.0
H985 H 0.87874 0.54996 0.65405 0.0
H986 H 0.88192 0.47901 0.64646 0.0
H987 H 0.86089 0.47434 0.68252 0.0
H988 H 0.92137 0.53646 0.6374 0.0
H989 H 0.85004 0.49715 0.58989 0.0
H990 H 0.84649 0.50501 0.61896 0.0
H991 H 0.86156 0.48021 0.6112 0.0
C992 C 0.86343 0.53079 0.68094 0.0
C993 C 0.8577 0.50954 0.68918 0.0
C994 C 0.87519 0.5334 0.66027 0.0
C995 C 0.88146 0.51484 0.64733 0.0
C996 C 0.87677 0.49358 0.65593 0.0
H997 H 0.94185 0.5102 0.51077 0.0
H998 H 0.92755 0.50023 0.54849 0.0
C999 C 0.86493 0.49094 0.67664 0.0
C1000 C 0.89227 0.51802 0.62462 0.0
H1001 H 0.88326 0.5093 0.569 0.0
C1002 C 0.91309 0.53043 0.62245 0.0
C1003 C 0.88143 0.51017 0.6051 0.0
C1004 C 0.85855 0.49755 0.60627 0.0
C1005 C 0.92328 0.53533 0.60133 0.0
C1006 C 0.91219 0.52787 0.58184 0.0
C1007 C 0.8917 0.515 0.58398 0.0
C1008 C 0.92112 0.53395 0.55908 0.0
C1009 C 0.94584 0.54844 0.60003 0.0
C1010 C 0.92193 0.55619 0.55243 0.0
C1011 C 0.92999 0.56195 0.53088 0.0
C1012 C 0.93739 0.54555 0.51552 0.0
C1013 C 0.93637 0.52325 0.5222 0.0
C1014 C 0.9282 0.51751 0.54374 0.0
H1015 H 0.95507 0.54789 0.616 0.0
H1016 H 0.95747 0.5421 0.58633 0.0
H1017 H 0.94221 0.56601 0.5965 0.0
H1018 H 0.91613 0.5691 0.56387 0.0
H1019 H 0.93045 0.57926 0.52628 0.0
H1020 H 0.15341 0.03799 0.71872 0.0
H1021 H 0.13481 0.03348 0.68274 0.0
H1022 H 0.12979 0.96287 0.69257 0.0
H1023 H 0.148 0.9672 0.72856 0.0
H1024 H 0.15476 0.00922 0.64805 0.0
H1025 H 0.06629 0.97593 0.66866 0.0
H1026 H 0.08405 0.98948 0.6892 0.0
H1027 H 0.08894 0.96109 0.68138 0.0
C1028 C 0.1478 0.02156 0.71351 0.0
C1029 C 0.15229 1.00296 0.72651 0.0
C1030 C 0.13722 0.01901 0.69291 0.0
C1031 C 0.13074 0.99785 0.68503 0.0
C1032 C 0.1342 0.97939 0.69846 0.0
H1033 H 0.09582 0.9445 0.55405 0.0
H1034 H 0.10331 0.9491 0.5941 0.0
C1035 C 0.14478 0.98191 0.71902 0.0
C1036 C 0.12295 0.99481 0.66179 0.0
H1037 H 0.07933 0.97331 0.63037 0.0
C1038 C 0.13816 1.00157 0.64421 0.0
C1039 C 0.10143 0.98452 0.65679 0.0
C1040 C 0.08413 0.9775 0.675 0.0
C1041 C 0.13262 0.99811 0.62179 0.0
C1042 C 0.11107 0.98795 0.61676 0.0
C1043 C 0.09584 0.98108 0.6343 0.0
C1044 C 0.10405 0.98492 0.5933 0.0
C1045 C 0.15012 1.00496 0.60364 0.0
C1046 C 0.10121 1.00349 0.57987 0.0
C1047 C 0.09702 1.0009 0.55716 0.0
C1048 C 0.09541 0.97968 0.54739 0.0
C1049 C 0.09697 0.96103 0.56112 0.0
C1050 C 0.10129 0.96365 0.58394 0.0
H1051 H 0.16781 0.0072 0.61019 0.0
H1052 H 0.15077 0.9925 0.58988 0.0
H1053 H 0.14501 0.02097 0.59655 0.0
H1054 H 0.10278 0.02004 0.58687 0.0
H1055 H 0.09532 0.01558 0.54716 0.0
H1056 H 0.86653 0.49868 0.79086 0.0
H1057 H 0.88181 0.49579 0.82823 0.0
H1058 H 0.85201 0.55845 0.84675 0.0
H1059 H 0.83649 0.5615 0.80921 0.0
H1060 H 0.91096 0.52449 0.85504 0.0
H1061 H 0.82123 0.51252 0.89113 0.0
H1062 H 0.8278 0.51017 0.86148 0.0
H1063 H 0.82716 0.53694 0.87471 0.0
C1064 C 0.86355 0.51209 0.8027 0.0
C1065 C 0.85013 0.53026 0.79705 0.0
C1066 C 0.87234 0.5104 0.82409 0.0
C1067 C 0.86777 0.52673 0.84039 0.0
C1068 C 0.85551 0.54553 0.83449 0.0
H1069 H 0.92527 0.50682 0.97479 0.0
H1070 H 0.91214 0.52692 0.94195 0.0
C1071 C 0.84681 0.54732 0.81297 0.0
C1072 C 0.87449 0.52296 0.86382 0.0
H1073 H 0.85191 0.50762 0.91516 0.0
C1074 C 0.8981 0.52124 0.86834 0.0
C1075 C 0.85763 0.51848 0.88107 0.0
C1076 C 0.832 0.51945 0.87699 0.0
C1077 C 0.90527 0.51447 0.88942 0.0
C1078 C 0.88838 0.50934 0.90643 0.0
C1079 C 0.86481 0.5118 0.90216 0.0
C1080 C 0.89465 0.49842 0.9275 0.0
C1081 C 0.93077 0.51158 0.89298 0.0
C1082 C 0.88857 0.47603 0.93057 0.0
C1083 C 0.89605 0.46466 0.9491 0.0
C1084 C 0.90961 0.47543 0.96515 0.0
C1085 C 0.91476 0.49817 0.96272 0.0
C1086 C 0.90743 0.50957 0.94392 0.0
H1087 H 0.94149 0.51414 0.87738 0.0
H1088 H 0.93667 0.52369 0.90575 0.0
H1089 H 0.93386 0.49472 0.89935 0.0
H1090 H 0.87866 0.46711 0.91819 0.0
H1091 H 0.89163 0.44721 0.95068 0.0
H1092 H 0.14674 0.01753 0.82998 0.0
H1093 H 0.12455 0.01888 0.86533 0.0
H1094 H 0.13646 0.94952 0.87547 0.0
H1095 H 0.15925 0.94807 0.84 0.0
H1096 H 0.08503 0.99629 0.88027 0.0
H1097 H 0.15951 0.97764 0.93323 0.0
H1098 H 0.16337 0.98474 0.90407 0.0
H1099 H 0.15285 0.95759 0.91187 0.0
C1100 C 0.14462 1.00246 0.83959 0.0
C1101 C 0.15496 0.9827 0.83213 0.0
C1102 C 0.13185 1.00328 0.85986 0.0
C1103 C 0.12908 0.98442 0.87329 0.0
C1104 C 0.13872 0.96442 0.86563 0.0
H1105 H 0.06421 0.99187 0.01049 0.0
H1106 H 0.07858 0.97504 0.97502 0.0
C1107 C 0.1516 0.96357 0.84525 0.0
C1108 C 0.11642 0.98624 0.89538 0.0
H1109 H 0.12434 0.98643 0.95183 0.0
C1110 C 0.09354 0.99379 0.89591 0.0
C1111 C 0.12745 0.98293 0.91585 0.0
C1112 C 0.1522 0.97543 0.91639 0.0
C1113 C 0.08179 0.99899 0.9162 0.0
C1114 C 0.09322 0.99676 0.93656 0.0
C1115 C 0.11559 0.98804 0.93619 0.0
C1116 C 0.08353 0.00625 0.95784 0.0
C1117 C 0.05745 0.00754 0.91569 0.0
C1118 C 0.08169 0.02928 0.95993 0.0
C1119 C 0.07378 0.03885 0.98002 0.0
C1120 C 0.06738 0.02563 0.9986 0.0
C1121 C 0.06887 1.00247 0.99646 0.0
C1122 C 0.07713 0.99286 0.97626 0.0
H1123 H 0.04886 1.00251 0.90004 0.0
H1124 H 0.04673 1.00144 0.93025 0.0
H1125 H 0.05811 0.02591 0.9165 0.0
H1126 H 0.08681 0.03995 0.94607 0.0
H1127 H 0.07283 0.05673 0.98101 0.0
H1128 H 0.69541 0.89634 0.53417 0.0
H1129 H 0.65527 0.90846 0.53375 0.0
H1130 H 0.65396 0.89521 0.46287 0.0
H1131 H 0.69412 0.88289 0.4631 0.0
H1132 H 0.63176 0.94108 0.50887 0.0
H1133 H 0.60127 0.85505 0.49012 0.0
H1134 H 0.63015 0.86129 0.49936 0.0
H1135 H 0.62289 0.86673 0.47102 0.0
C1136 C 0.68678 0.89635 0.51838 0.0
C1137 C 0.69803 0.88845 0.4987 0.0
C1138 C 0.66378 0.90328 0.51818 0.0
C1139 C 0.65145 0.90239 0.49836 0.0
C1140 C 0.663 0.89571 0.47843 0.0
H1141 H 0.50636 0.94974 0.50005 0.0
H1142 H 0.54639 0.94302 0.48622 0.0
C1143 C 0.68605 0.88882 0.47859 0.0
C1144 C 0.62619 0.90709 0.49903 0.0
H1145 H 0.57274 0.88191 0.49544 0.0
C1146 C 0.61883 0.92826 0.50561 0.0
C1147 C 0.60933 0.89025 0.49499 0.0
C1148 C 0.61617 0.86698 0.48863 0.0
C1149 C 0.59511 0.9329 0.50876 0.0
C1150 C 0.57828 0.91596 0.50509 0.0
C1151 C 0.58564 0.89495 0.49796 0.0
C1152 C 0.55333 0.91881 0.51147 0.0
C1153 C 0.58823 0.95556 0.51708 0.0
C1154 C 0.54369 0.90688 0.52965 0.0
C1155 C 0.52103 0.91066 0.53749 0.0
C1156 C 0.50729 0.92634 0.52722 0.0
C1157 C 0.51647 0.93749 0.50823 0.0
C1158 C 0.53939 0.93381 0.50046 0.0
H1159 H 0.60344 0.9659 0.52191 0.0
H1160 H 0.57927 0.96424 0.5037 0.0
H1161 H 0.57596 0.95411 0.53176 0.0
H1162 H 0.55403 0.89517 0.53835 0.0
H1163 H 0.51449 0.90171 0.55209 0.0
H1164 H 0.70067 0.13165 0.04996 0.0
H1165 H 0.66712 0.10664 0.04486 0.0
H1166 H 0.66558 0.12565 0.97556 0.0
H1167 H 0.69943 0.14962 0.98026 0.0
H1168 H 0.62539 0.11533 0.03582 0.0
H1169 H 0.65664 0.06126 0.9673 0.0
H1170 H 0.67609 0.07938 0.98227 0.0
H1171 H 0.66068 0.08944 0.95877 0.0
C1172 C 0.69339 0.13015 0.03356 0.0
C1173 C 0.70285 0.14251 0.01549 0.0
C1174 C 0.67421 0.11584 0.03064 0.0
C1175 C 0.66404 0.11375 0.00965 0.0
C1176 C 0.67353 0.12617 0.99169 0.0
H1177 H 0.52437 0.10244 0.97849 0.0
H1178 H 0.56287 0.11056 0.99161 0.0
C1179 C 0.69283 0.14012 0.99448 0.0
C1180 C 0.64224 0.10042 0.00682 0.0
H1181 H 0.61462 0.06668 0.96954 0.0
C1182 C 0.62325 0.1043 0.02159 0.0
C1183 C 0.63933 0.08544 0.98868 0.0
C1184 C 0.65941 0.07846 0.97356 0.0
C1185 C 0.60118 0.0951 0.0177 0.0
C1186 C 0.59773 0.08232 0.99806 0.0
C1187 C 0.61705 0.07691 0.98432 0.0
C1188 C 0.57406 0.07658 0.99034 0.0
C1189 C 0.5817 0.09959 0.03454 0.0
C1190 C 0.56762 0.0548 0.98421 0.0
C1191 C 0.54543 0.05007 0.97616 0.0
C1192 C 0.52938 0.06708 0.97411 0.0
C1193 C 0.53607 0.08882 0.98009 0.0
C1194 C 0.55813 0.09351 0.98785 0.0
H1195 H 0.58837 0.10135 0.05168 0.0
H1196 H 0.57352 0.11544 0.03042 0.0
H1197 H 0.56823 0.08617 0.03458 0.0
H1198 H 0.57973 0.04148 0.98568 0.0
H1199 H 0.54086 0.03318 0.97159 0.0
H1200 H 0.31758 0.39173 0.99776 0.0
H1201 H 0.35707 0.40697 0.99548 0.0
H1202 H 0.35986 0.40612 0.06742 0.0
H1203 H 0.32034 0.39038 0.06988 0.0
H1204 H 0.37907 0.44438 0.01256 0.0
H1205 H 0.41424 0.36747 0.04782 0.0
H1206 H 0.38474 0.369 0.03902 0.0
H1207 H 0.39293 0.38153 0.06501 0.0
C1208 C 0.3264 0.39505 0.01316 0.0
C1209 C 0.31582 0.38958 0.034 0.0
C1210 C 0.34903 0.40379 0.01182 0.0
C1211 C 0.36162 0.40726 0.03124 0.0
C1212 C 0.35066 0.40311 0.05218 0.0
H1213 H 0.512 0.4453 0.01946 0.0
H1214 H 0.47292 0.44133 0.03735 0.0
C1215 C 0.32798 0.39429 0.05355 0.0
C1216 C 0.38656 0.41398 0.02913 0.0
H1217 H 0.44121 0.39432 0.03464 0.0
C1218 C 0.39266 0.43364 0.0178 0.0
C1219 C 0.40433 0.39991 0.0359 0.0
C1220 C 0.39887 0.37821 0.04747 0.0
C1221 C 0.41593 0.4391 0.01221 0.0
C1222 C 0.43352 0.42455 0.01807 0.0
C1223 C 0.42762 0.40552 0.03043 0.0
C1224 C 0.4573 0.42686 0.00813 0.0
C1225 C 0.42158 0.45981 0.99905 0.0
C1226 C 0.46135 0.41976 0.98603 0.0
C1227 C 0.48341 0.42181 0.97593 0.0
C1228 C 0.50204 0.43112 0.98766 0.0
C1229 C 0.49804 0.43806 0.00999 0.0
C1230 C 0.47578 0.43584 0.0202 0.0
H1231 H 0.40683 0.47134 0.99936 0.0
H1232 H 0.43703 0.46854 1.00575 0.0
H1233 H 0.42578 0.45521 0.98137 0.0
H1234 H 0.44732 0.41268 0.97651 0.0
H1235 H 0.48572 0.41628 0.95872 0.0
H1236 H 0.80768 0.14295 0.03362 0.0
H1237 H 0.84477 0.12483 0.03647 0.0
H1238 H 0.86104 0.13811 0.96694 0.0
H1239 H 0.82369 0.15653 0.96384 0.0
H1240 H 0.87199 0.09206 0.98512 0.0
H1241 H 0.90721 0.16364 0.03325 0.0
H1242 H 0.87917 0.15315 0.04273 0.0
H1243 H 0.88251 0.16579 0.01572 0.0
C1244 C 0.81894 0.14187 0.01878 0.0
C1245 C 0.81269 0.1514 0.99851 0.0
C1246 C 0.84019 0.1315 0.0205 0.0
C1247 C 0.85575 0.13033 1.00201 0.0
C1248 C 0.84926 0.13889 0.98143 0.0
H1249 H 1.00287 0.10564 0.01449 0.0
H1250 H 0.9656 0.11943 1.0032 0.0
C1251 C 0.82792 0.1494 0.97969 0.0
C1252 C 0.8792 0.12126 1.00478 0.0
H1253 H 0.92966 0.1313 0.03167 0.0
C1254 C 0.88471 0.10067 0.99514 0.0
C1255 C 0.8958 0.13261 0.01772 0.0
C1256 C 0.89106 0.15511 0.02785 0.0
C1257 C 0.90622 0.09087 0.99863 0.0
C1258 C 0.92251 0.10189 0.01225 0.0
C1259 C 0.91716 0.12276 0.02135 0.0
C1260 C 0.94523 0.09222 0.01744 0.0
C1261 C 0.91138 0.06889 0.98757 0.0
C1262 C 0.94628 0.0722 0.02914 0.0
C1263 C 0.96765 0.06421 0.03565 0.0
C1264 C 0.9884 0.07617 0.03071 0.0
C1265 C 0.98728 0.09598 0.01861 0.0
C1266 C 0.96596 0.10392 0.01212 0.0
H1267 H 0.90012 0.06557 0.97317 0.0
H1268 H 0.92981 0.06826 0.98162 0.0
H1269 H 0.90815 0.05547 0.99991 0.0
H1270 H 0.93051 0.06309 0.03386 0.0
H1271 H 0.96784 0.04898 0.04506 0.0
H1272 H 0.06773 0.20034 0.26763 0.0
H1273 H 0.06927 0.17755 0.23336 0.0
H1274 H 0.99865 0.15534 0.24667 0.0
H1275 H 0.99684 0.17796 0.28059 0.0
H1276 H 0.06045 0.13048 0.22632 0.0
H1277 H 0.99799 0.18287 0.18357 0.0
H1278 H 0.0126 0.19196 0.20834 0.0
H1279 H 0.98804 0.17319 0.21063 0.0
C1280 C 0.0526 0.19048 0.26332 0.0
C1281 C 0.0321 0.19118 0.27676 0.0
C1282 C 0.05351 0.17747 0.24376 0.0
C1283 C 0.03393 0.16506 0.23731 0.0
C1284 C 0.0138 0.16511 0.25112 0.0
H1285 H 0.02406 0.06293 0.13288 0.0
H1286 H 0.02249 0.08324 0.16866 0.0
C1287 C 0.01286 0.17804 0.27057 0.0
C1288 C 0.03414 0.15249 0.21587 0.0
H1289 H 0.0081 0.14917 0.1655 0.0
C1290 C 0.04906 0.13456 0.21298 0.0
C1291 C 0.01939 0.15799 0.19844 0.0
C1292 C 1.00373 0.17766 0.20022 0.0
C1293 C 0.04937 0.12177 0.19319 0.0
C1294 C 0.03417 0.12694 0.17601 0.0
C1295 C 0.0195 0.14505 0.17882 0.0
C1296 C 0.03412 0.11457 0.15444 0.0
C1297 C 0.06626 0.10312 0.19063 0.0
C1298 C 0.0404 0.1256 0.13455 0.0
C1299 C 0.04117 0.11414 0.11417 0.0
C1300 C 0.03552 0.09137 0.11319 0.0
C1301 C 0.0285 0.08045 0.13306 0.0
C1302 C 0.02781 0.09198 0.15353 0.0
H1303 H 0.08 0.10429 0.20317 0.0
H1304 H 0.05677 0.08708 0.19298 0.0
H1305 H 0.07463 0.10305 0.17361 0.0
H1306 H 0.0452 0.14305 0.13484 0.0
H1307 H 0.04665 0.12311 0.09921 0.0
H1308 H 0.94768 0.25479 0.28061 0.0
H1309 H 0.93972 0.28172 0.25127 0.0
H1310 H 0.99978 0.32064 0.26969 0.0
H1311 H 0.00808 0.29379 0.2983 0.0
H1312 H 0.93293 0.32802 0.25074 0.0
H1313 H 0.01358 0.30555 0.20392 0.0
H1314 H 1.0014 0.28911 0.22667 0.0
H1315 H 0.01895 0.31342 0.23229 0.0
C1316 C 0.95893 0.26927 0.27849 0.0
C1317 C 0.9787 0.27207 0.29136 0.0
C1318 C 0.95442 0.28457 0.26178 0.0
C1319 C 0.96956 0.3028 0.25797 0.0
C1320 C 0.9883 0.30634 0.27194 0.0
H1321 H 0.95789 0.42446 0.18673 0.0
H1322 H 0.95726 0.39475 0.21392 0.0
C1323 C 0.99296 0.29102 0.2883 0.0
C1324 C 0.96675 0.31781 0.23891 0.0
H1325 H 0.99681 0.33988 0.19404 0.0
C1326 C 0.94671 0.33046 0.23813 0.0
C1327 C 0.98455 0.32057 0.22221 0.0
C1328 C 1.00571 0.30626 0.22114 0.0
C1329 C 0.94452 0.34664 0.22165 0.0
C1330 C 0.96315 0.35057 0.206 0.0
C1331 C 0.98268 0.33714 0.20622 0.0
C1332 C 0.9631 0.36867 0.18942 0.0
C1333 C 0.92227 0.35925 0.22115 0.0
C1334 C 0.96767 0.36409 0.16669 0.0
C1335 C 0.96881 0.38116 0.1511 0.0
C1336 C 0.96517 0.40327 0.15784 0.0
C1337 C 0.96087 0.40779 0.18075 0.0
C1338 C 0.96005 0.3907 0.19637 0.0
H1339 H 0.90748 0.34954 0.22878 0.0
H1340 H 0.92417 0.3748 0.231 0.0
H1341 H 0.91801 0.36356 0.20378 0.0
H1342 H 0.97043 0.34725 0.16096 0.0
H1343 H 0.97267 0.37688 0.13381 0.0
H1344 H 0.0912 0.76893 0.21034 0.0
H1345 H 0.10117 0.79615 0.23963 0.0
H1346 H 0.04314 0.7723 0.28078 0.0
H1347 H 0.03297 0.74562 0.25169 0.0
H1348 H 0.0664 0.82862 0.2544 0.0
H1349 H 0.09758 0.7796 0.32472 0.0
H1350 H 0.09923 0.76997 0.29598 0.0
H1351 H 0.07238 0.7676 0.3121 0.0
C1352 C 0.08105 0.76918 0.22592 0.0
C1353 C 0.06131 0.75533 0.22884 0.0
C1354 C 0.08669 0.7847 0.24255 0.0
C1355 C 0.07301 0.78601 0.26241 0.0
C1356 C 0.05413 0.77128 0.26574 0.0
H1357 H 0.0142 0.87582 0.35241 0.0
H1358 H 0.02633 0.85075 0.3222 0.0
C1359 C 0.04826 0.75617 0.24907 0.0
C1360 C 0.076 0.80446 0.27849 0.0
H1361 H 0.08013 0.81459 0.33443 0.0
C1362 C 0.07005 0.82574 0.27179 0.0
C1363 C 0.08076 0.80062 0.30112 0.0
C1364 C 0.08807 0.77824 0.30891 0.0
C1365 C 0.06698 0.84289 0.28752 0.0
C1366 C 0.06992 0.83852 0.31039 0.0
C1367 C 0.07765 0.81776 0.31686 0.0
C1368 C 0.06299 0.8546 0.32798 0.0
C1369 C 0.05963 0.86527 0.27976 0.0
C1370 C 0.07963 0.86493 0.34123 0.0
C1371 C 0.0728 0.87951 0.35838 0.0
C1372 C 0.04912 0.88374 0.36282 0.0
C1373 C 0.03254 0.87327 0.34939 0.0
C1374 C 0.03943 0.85887 0.33212 0.0
H1375 H 0.06339 0.86753 0.26156 0.0
H1376 H 0.04067 0.86684 0.28296 0.0
H1377 H 0.06854 0.87874 0.28913 0.0
H1378 H 0.0979 0.86176 0.33825 0.0
H1379 H 0.08616 0.8875 0.368 0.0
H1380 H 0.96245 0.68076 0.233 0.0
H1381 H 0.95716 0.65519 0.26446 0.0
H1382 H 0.03122 0.64721 0.26566 0.0
H1383 H 0.03656 0.67197 0.23386 0.0
H1384 H 0.00924 0.60845 0.27289 0.0
H1385 H 0.96932 0.67277 0.32785 0.0
H1386 H 0.95365 0.66706 0.303 0.0
H1387 H 0.98243 0.67914 0.30081 0.0
C1388 C 0.97758 0.67342 0.23987 0.0
C1389 C 0.99993 0.67857 0.23099 0.0
C1390 C 0.97455 0.6589 0.25796 0.0
C1391 C 0.99383 0.6496 0.26779 0.0
C1392 C 0.01606 0.65418 0.25845 0.0
H1393 H 1.00168 0.60812 0.40377 0.0
H1394 H 1.00647 0.62496 0.36694 0.0
C1395 C 0.01908 0.66843 0.24025 0.0
C1396 C 0.9912 0.6358 0.2883 0.0
H1397 H 0.97174 0.63705 0.34287 0.0
C1398 C 1.00099 0.61466 0.2882 0.0
C1399 C 0.9807 0.64401 0.30838 0.0
C1400 C 0.97112 0.66705 0.31017 0.0
C1401 C 1.00084 0.60168 0.30764 0.0
C1402 C 0.99012 0.60982 0.32763 0.0
C1403 C 0.97995 0.63076 0.32757 0.0
C1404 C 0.99015 0.5977 0.34923 0.0
C1405 C 0.01293 0.57978 0.30677 0.0
C1406 C 0.98016 0.57633 0.35155 0.0
C1407 C 0.9779 0.5664 0.37269 0.0
C1408 C 0.98516 0.57793 0.39182 0.0
C1409 C 0.99598 0.59885 0.38929 0.0
C1410 C 0.99859 0.60855 0.36825 0.0
H1411 H 0.02542 0.57872 0.29225 0.0
H1412 H 0.02239 0.57704 0.32232 0.0
H1413 H 0.99982 0.56621 0.30507 0.0
H1414 H 0.97308 0.56777 0.33727 0.0
H1415 H 0.96912 0.55042 0.37426 0.0
H1416 H 0.26316 0.9984 0.18707 0.0
H1417 H 0.23105 1.00317 0.16236 0.0
H1418 H 0.22328 0.07029 0.18613 0.0
H1419 H 0.25568 0.06566 0.21123 0.0
H1420 H 0.18064 0.04411 0.18443 0.0
H1421 H 0.23236 0.04039 0.10455 0.0
H1422 H 0.23741 0.01804 0.12326 0.0
H1423 H 0.2453 0.04592 0.13115 0.0
C1424 C 0.25476 0.01427 0.18709 0.0
C1425 C 0.26211 0.0317 0.20114 0.0
C1426 C 0.23643 0.01697 0.17281 0.0
C1427 C 0.22497 0.03715 0.17217 0.0
C1428 C 0.23202 0.0546 0.18628 0.0
H1429 H 0.12682 0.07252 0.0721 0.0
H1430 H 0.16005 0.07009 0.09604 0.0
C1431 C 0.25055 0.05195 0.20056 0.0
C1432 C 0.20533 0.03962 0.15703 0.0
H1433 H 0.19135 0.03681 0.10201 0.0
C1434 C 0.18297 0.04268 0.1664 0.0
C1435 C 0.20844 0.0379 0.1335 0.0
C1436 C 0.23219 0.03558 0.12244 0.0
C1437 C 0.16354 0.04353 0.15289 0.0
C1438 C 0.16654 0.04093 0.1294 0.0
C1439 C 0.189 0.03846 0.12002 0.0
C1440 C 0.1467 0.04147 0.11421 0.0
C1441 C 0.14001 0.04746 0.16385 0.0
C1442 C 0.12839 0.02577 0.11598 0.0
C1443 C 0.1093 0.02706 0.10222 0.0
C1444 C 0.10822 0.04405 0.08637 0.0
C1445 C 0.12703 0.05922 0.08411 0.0
C1446 C 0.14606 0.05789 0.09783 0.0
H1447 H 0.14142 0.05452 0.18098 0.0
H1448 H 0.12984 0.05886 0.15375 0.0
H1449 H 0.13025 0.03146 0.16519 0.0
H1450 H 0.12875 0.01265 0.12817 0.0
H1451 H 0.09514 0.01511 0.10441 0.0
H1452 H 0.74833 0.50987 0.21792 0.0
H1453 H 0.77472 0.5044 0.18582 0.0
H1454 H 0.76996 0.43371 0.1951 0.0
H1455 H 0.74361 0.43909 0.22781 0.0
H1456 H 0.81423 0.4477 0.18801 0.0
H1457 H 0.76117 0.484 0.1232 0.0
H1458 H 0.76492 0.50285 0.14619 0.0
H1459 H 0.74937 0.47698 0.15066 0.0
C1460 C 0.75274 0.4931 0.21316 0.0
C1461 C 0.74372 0.4749 0.22548 0.0
C1462 C 0.76771 0.49 0.19458 0.0
C1463 C 0.7739 0.46863 0.1876 0.0
C1464 C 0.7652 0.45037 0.19998 0.0
H1465 H 0.86337 0.44545 0.06638 0.0
H1466 H 0.82858 0.44694 0.09151 0.0
C1467 C 0.7502 0.45346 0.21872 0.0
C1468 C 0.79061 0.46568 0.16825 0.0
H1469 H 0.80224 0.48166 0.11415 0.0
C1470 C 0.81141 0.45484 0.17178 0.0
C1471 C 0.78688 0.47465 0.14687 0.0
C1472 C 0.76425 0.48505 0.14142 0.0
C1473 C 0.82903 0.45381 0.155 0.0
C1474 C 0.82601 0.46427 0.13422 0.0
C1475 C 0.80472 0.474 0.13019 0.0
C1476 C 0.84539 0.46624 0.11722 0.0
C1477 C 0.85094 0.44176 0.1598 0.0
C1478 C 0.86585 0.47765 0.12276 0.0
C1479 C 0.88551 0.47683 0.10855 0.0
C1480 C 0.88508 0.46488 0.08828 0.0
C1481 C 0.86405 0.45504 0.08175 0.0
C1482 C 0.84428 0.4557 0.09619 0.0
H1483 H 0.84793 0.42942 0.17332 0.0
H1484 H 0.8579 0.43312 0.1446 0.0
H1485 H 0.86429 0.4539 0.16537 0.0
H1486 H 0.86696 0.48629 0.13866 0.0
H1487 H 0.90151 0.48455 0.114 0.0
H1488 H 0.26729 0.94445 0.27637 0.0
H1489 H 0.23746 0.93604 0.30574 0.0
H1490 H 0.2388 1.00446 0.3269 0.0
H1491 H 0.26821 0.01302 0.29797 0.0
H1492 H 0.2375 0.94686 0.35643 0.0
H1493 H 0.17009 0.98822 0.3085 0.0
H1494 H 0.19671 0.9784 0.29548 0.0
H1495 H 0.19682 1.00367 0.31153 0.0
C1496 C 0.26133 0.95763 0.2874 0.0
C1497 C 0.26994 0.97944 0.28462 0.0
C1498 C 0.24438 0.9528 0.30417 0.0
C1499 C 0.23587 0.96971 0.31829 0.0
C1500 C 0.24503 0.99125 0.31603 0.0
H1501 H 0.14197 0.96976 0.43672 0.0
H1502 H 0.17624 0.97411 0.41128 0.0
C1503 C 0.26183 0.99608 0.29939 0.0
C1504 C 0.21649 0.96548 0.33464 0.0
H1505 H 0.15987 0.9781 0.34569 0.0
C1506 C 0.22047 0.95353 0.3541 0.0
C1507 C 0.19436 0.97425 0.33146 0.0
C1508 C 0.18906 0.98673 0.31055 0.0
C1509 C 0.20279 0.95034 0.37066 0.0
C1510 C 0.18078 0.95953 0.36764 0.0
C1511 C 0.17684 0.97126 0.34805 0.0
C1512 C 0.16099 0.95608 0.3838 0.0
C1513 C 0.2076 0.9369 0.39103 0.0
C1514 C 0.14111 0.94475 0.37669 0.0
C1515 C 0.12164 0.94244 0.39096 0.0
C1516 C 0.12151 0.95147 0.41276 0.0
C1517 C 0.14155 0.96264 0.42004 0.0
C1518 C 0.16116 0.96499 0.4056 0.0
H1519 H 0.22385 0.92745 0.3888 0.0
H1520 H 0.20941 0.94818 0.40565 0.0
H1521 H 0.19299 0.92511 0.39489 0.0
H1522 H 0.14059 0.9378 0.35994 0.0
H1523 H 0.10661 0.93359 0.38477 0.0
H1524 H 0.75856 0.49377 0.31733 0.0
H1525 H 0.78998 0.50379 0.3419 0.0
H1526 H 0.77485 0.57292 0.33495 0.0
H1527 H 0.7431 0.56305 0.31016 0.0
H1528 H 0.82931 0.53389 0.33012 0.0
H1529 H 0.77604 0.561 0.40459 0.0
H1530 H 0.76431 0.5432 0.38312 0.0
H1531 H 0.76953 0.57206 0.37771 0.0
C1532 C 0.76179 0.51114 0.32101 0.0
C1533 C 0.74827 0.52763 0.31179 0.0
C1534 C 0.77979 0.51681 0.33506 0.0
C1535 C 0.78456 0.53904 0.34036 0.0
C1536 C 0.77121 0.55563 0.33122 0.0
H1537 H 0.89212 0.58992 0.42824 0.0
H1538 H 0.85822 0.58698 0.40478 0.0
C1539 C 0.75318 0.54997 0.317 0.0
C1540 C 0.80401 0.54456 0.355 0.0
H1541 H 0.8166 0.5612 0.40802 0.0
C1542 C 0.82659 0.54002 0.3471 0.0
C1543 C 0.80031 0.55266 0.37706 0.0
C1544 C 0.77626 0.55746 0.38632 0.0
C1545 C 0.84562 0.54301 0.36082 0.0
C1546 C 0.84186 0.55022 0.38321 0.0
C1547 C 0.81936 0.55549 0.3909 0.0
C1548 C 0.86108 0.55173 0.39894 0.0
C1549 C 0.8696 0.53842 0.3512 0.0
C1550 C 0.87336 0.53274 0.40405 0.0
C1551 C 0.89272 0.53434 0.41738 0.0
C1552 C 0.90004 0.55497 0.42599 0.0
C1553 C 0.88697 0.5738 0.42179 0.0
C1554 C 0.86762 0.57217 0.40839 0.0
H1555 H 0.87025 0.5392 0.33263 0.0
H1556 H 0.88262 0.55042 0.35774 0.0
H1557 H 0.87458 0.52152 0.35602 0.0
H1558 H 0.86825 0.51672 0.39733 0.0
H1559 H 0.90227 0.51949 0.42044 0.0
H1560 H 0.1958 0.30645 0.02559 0.0
H1561 H 0.17056 0.27435 0.03321 0.0
H1562 H 0.20709 0.26154 0.09326 0.0
H1563 H 0.2326 0.29401 0.08576 0.0
H1564 H 0.20374 0.22511 0.06208 0.0
H1565 H 0.11811 0.26196 0.08078 0.0
H1566 H 0.13276 0.27371 0.05654 0.0
H1567 H 0.14514 0.27731 0.08356 0.0
C1568 C 0.19828 0.29703 0.04063 0.0
C1569 C 0.21623 0.30264 0.05504 0.0
C1570 C 0.1837 0.27881 0.04505 0.0
C1571 C 0.1868 0.26577 0.06392 0.0
C1572 C 0.20432 0.27159 0.07873 0.0
H1573 H 0.093 0.14931 0.07655 0.0
H1574 H 0.11687 0.18137 0.08764 0.0
C1575 C 0.21882 0.2901 0.07444 0.0
C1576 C 0.17324 0.24486 0.06647 0.0
H1577 H 0.11766 0.22437 0.06654 0.0
C1578 C 0.18494 0.22486 0.06361 0.0
C1579 C 0.14876 0.24461 0.06861 0.0
C1580 C 0.13545 0.26555 0.07277 0.0
C1581 C 0.17267 0.20473 0.06119 0.0
C1582 C 0.14816 0.20474 0.06151 0.0
C1583 C 0.13648 0.22449 0.06603 0.0
C1584 C 0.13444 0.18483 0.05528 0.0
C1585 C 0.18598 0.1837 0.05756 0.0
C1586 C 0.13631 0.17641 0.03337 0.0
C1587 C 0.12268 0.15821 0.02697 0.0
C1588 C 0.10698 0.14809 0.04241 0.0
C1589 C 0.10518 0.15657 0.06439 0.0
C1590 C 0.1187 0.17491 0.07073 0.0
H1591 H 0.20385 0.18539 0.0638 0.0
H1592 H 0.17695 0.16951 0.06604 0.0
H1593 H 0.18734 0.17992 0.03937 0.0
H1594 H 0.14812 0.1841 0.02112 0.0
H1595 H 0.12455 0.15195 0.01 0.0
H1596 H 0.22495 0.74372 0.45069 0.0
H1597 H 0.19829 0.7742 0.44519 0.0
H1598 H 0.171 0.76657 0.51279 0.0
H1599 H 0.19719 0.73616 0.51836 0.0
H1600 H 0.13653 0.7716 0.48194 0.0
H1601 H 0.20559 0.83679 0.4723 0.0
H1602 H 0.20831 0.81355 0.45347 0.0
H1603 H 0.21112 0.80962 0.48298 0.0
C1604 C 0.21319 0.74847 0.46433 0.0
C1605 C 0.21334 0.73753 0.485 0.0
C1606 C 0.19807 0.76599 0.46121 0.0
C1607 C 0.18287 0.77289 0.4787 0.0
C1608 C 0.18261 0.76162 0.49909 0.0
H1609 H 0.1115 0.89747 0.49578 0.0
H1610 H 0.13529 0.86474 0.49989 0.0
C1611 C 0.19768 0.74422 0.50224 0.0
C1612 C 0.16724 0.7919 0.47607 0.0
H1613 H 0.16699 0.84785 0.46801 0.0
C1614 C 0.14317 0.78826 0.47881 0.0
C1615 C 0.17594 0.8137 0.47235 0.0
C1616 C 0.20165 0.8188 0.47029 0.0
C1617 C 0.12759 0.80578 0.47782 0.0
C1618 C 0.13627 0.82752 0.47372 0.0
C1619 C 0.16034 0.83118 0.47108 0.0
C1620 C 0.12071 0.84673 0.47208 0.0
C1621 C 0.102 0.80094 0.4817 0.0
C1622 C 0.10446 0.84744 0.45521 0.0
C1623 C 0.09078 0.86607 0.45286 0.0
C1624 C 0.09313 0.88449 0.46728 0.0
C1625 C 0.10911 0.88355 0.48447 0.0
C1626 C 0.12281 0.86489 0.48678 0.0
H1627 H 0.09875 0.78488 0.4903 0.0
H1628 H 0.09369 0.81426 0.49186 0.0
H1629 H 0.09353 0.80002 0.46534 0.0
H1630 H 0.10279 0.83382 0.44342 0.0
H1631 H 0.07882 0.86626 0.43931 0.0
H1632 H 0.80689 0.80081 0.5242 0.0
H1633 H 0.83227 0.76943 0.51795 0.0
H1634 H 0.81588 0.76787 0.44816 0.0
H1635 H 0.79049 0.79959 0.45419 0.0
H1636 H 0.82083 0.72694 0.50199 0.0
H1637 H 0.88732 0.76914 0.44681 0.0
H1638 H 0.86613 0.78418 0.46349 0.0
H1639 H 0.85793 0.77062 0.43802 0.0
C1640 C 0.80872 0.79393 0.50745 0.0
C1641 C 0.7967 0.80282 0.48966 0.0
C1642 C 0.82321 0.77592 0.50395 0.0
C1643 C 0.82613 0.76643 0.48258 0.0
C1644 C 0.81415 0.77517 0.46473 0.0
H1645 H 0.89273 0.63878 0.45747 0.0
H1646 H 0.86442 0.66836 0.4606 0.0
C1647 C 0.79959 0.79325 0.46823 0.0
C1648 C 0.84158 0.74724 0.47925 0.0
H1649 H 0.89221 0.73107 0.45333 0.0
C1650 C 0.83639 0.72778 0.49126 0.0
C1651 C 0.86196 0.74848 0.46543 0.0
C1652 C 0.86887 0.76926 0.45281 0.0
C1653 C 0.85112 0.70955 0.48996 0.0
C1654 C 0.87145 0.71075 0.47603 0.0
C1655 C 0.87654 0.73015 0.46389 0.0
C1656 C 0.88825 0.69247 0.4746 0.0
C1657 C 0.8452 0.68946 0.50402 0.0
C1658 C 0.91109 0.69623 0.48124 0.0
C1659 C 0.92728 0.67938 0.47949 0.0
C1660 C 0.92103 0.65839 0.47094 0.0
C1661 C 0.89805 0.6546 0.46446 0.0
C1662 C 0.88184 0.67152 0.4662 0.0
H1663 H 0.83198 0.69309 0.51745 0.0
H1664 H 0.83809 0.67612 0.49319 0.0
H1665 H 0.86092 0.68315 0.51182 0.0
H1666 H 0.91639 0.71226 0.48783 0.0
H1667 H 0.9447 0.68281 0.48489 0.0
H1668 H 0.2912 0.73182 0.57717 0.0
H1669 H 0.31752 0.76274 0.58729 0.0
H1670 H 0.32646 0.77998 0.51771 0.0
H1671 H 0.30065 0.74947 0.50744 0.0
H1672 H 0.36873 0.77113 0.56183 0.0
H1673 H 0.30308 0.83704 0.55873 0.0
H1674 H 0.29553 0.80875 0.5661 0.0
H1675 H 0.30211 0.81577 0.53746 0.0
C1676 C 0.29877 0.74224 0.56408 0.0
C1677 C 0.29385 0.73816 0.54152 0.0
C1678 C 0.3138 0.7598 0.56988 0.0
C1679 C 0.32379 0.77354 0.55319 0.0
C1680 C 0.31884 0.76952 0.53077 0.0
H1681 H 0.40375 0.88958 0.52487 0.0
H1682 H 0.3789 0.85629 0.52624 0.0
C1683 C 0.30408 0.75203 0.52498 0.0
C1684 C 0.33954 0.79226 0.55861 0.0
H1685 H 0.34265 0.84867 0.55754 0.0
C1686 C 0.36307 0.78812 0.56141 0.0
C1687 C 0.33198 0.81428 0.55776 0.0
C1688 C 0.30677 0.81939 0.55499 0.0
C1689 C 0.37953 0.80559 0.56227 0.0
C1690 C 0.37206 0.82766 0.56056 0.0
C1691 C 0.34834 0.83173 0.55872 0.0
C1692 C 0.38857 0.84679 0.55939 0.0
C1693 C 0.40486 0.80028 0.56379 0.0
C1694 C 0.40246 0.85233 0.57748 0.0
C1695 C 0.41683 0.87128 0.57669 0.0
C1696 C 0.41737 0.88513 0.55785 0.0
C1697 C 0.40379 0.87925 0.53959 0.0
C1698 C 0.38952 0.86028 0.54038 0.0
H1699 H 0.40814 0.78251 0.56025 0.0
H1700 H 0.41564 0.81048 0.55189 0.0
H1701 H 0.41056 0.80413 0.58094 0.0
H1702 H 0.40171 0.84236 0.59246 0.0
H1703 H 0.42694 0.87543 0.59112 0.0
H1704 H 0.50522 0.67173 0.78243 0.0
H1705 H 0.50647 0.64882 0.74869 0.0
H1706 H 0.57493 0.67484 0.73148 0.0
H1707 H 0.57395 0.69782 0.76558 0.0
H1708 H 0.5104 0.66526 0.70573 0.0
H1709 H 0.58174 0.60776 0.72161 0.0
H1710 H 0.56773 0.62384 0.74362 0.0
H1711 H 0.58905 0.63665 0.725 0.0
C1712 C 0.52073 0.67243 0.77167 0.0
C1713 C 0.53948 0.6867 0.77669 0.0
C1714 C 0.52138 0.65929 0.75236 0.0
C1715 C 0.54081 0.66002 0.73761 0.0
C1716 C 0.5599 0.67375 0.74282 0.0
H1717 H 0.54656 0.62338 0.59756 0.0
H1718 H 0.54565 0.64243 0.63377 0.0
C1719 C 0.55929 0.68692 0.76227 0.0
C1720 C 0.54016 0.64757 0.7161 0.0
H1721 H 0.56661 0.60685 0.68515 0.0
C1722 C 0.52266 0.65245 0.70127 0.0
C1723 C 0.55602 0.63072 0.71039 0.0
C1724 C 0.5746 0.62423 0.72604 0.0
C1725 C 0.52079 0.64116 0.68077 0.0
C1726 C 0.53696 0.62469 0.67483 0.0
C1727 C 0.55427 0.61955 0.68976 0.0
C1728 C 0.53654 0.6131 0.65289 0.0
C1729 C 0.50139 0.64678 0.66568 0.0
C1730 C 0.53167 0.59025 0.65164 0.0
C1731 C 0.53201 0.57927 0.63089 0.0
C1732 C 0.53753 0.59095 0.61109 0.0
C1733 C 0.54213 0.6139 0.61246 0.0
C1734 C 0.54162 0.62484 0.63314 0.0
H1735 H 0.48746 0.65601 0.67477 0.0
H1736 H 0.50843 0.65732 0.65182 0.0
H1737 H 0.49367 0.63154 0.65822 0.0
H1738 H 0.52776 0.5809 0.66673 0.0
H1739 H 0.52859 0.56157 0.63043 0.0
H1740 H 0.52287 0.7713 0.77102 0.0
H1741 H 0.5133 0.79679 0.74181 0.0
H1742 H 0.44076 0.7907 0.76125 0.0
H1743 H 0.45024 0.76487 0.79106 0.0
H1744 H 0.48219 0.7891 0.70566 0.0
H1745 H 0.45728 0.85898 0.76254 0.0
H1746 H 0.47391 0.83609 0.77197 0.0
H1747 H 0.44357 0.83224 0.76719 0.0
C1748 C 0.50482 0.77529 0.76923 0.0
C1749 C 0.4873 0.76613 0.78351 0.0
C1750 C 0.49941 0.78983 0.75242 0.0
C1751 C 0.47639 0.79568 0.74948 0.0
C1752 C 0.45868 0.78647 0.76344 0.0
H1753 H 0.44948 0.87711 0.63261 0.0
H1754 H 0.44624 0.84776 0.66039 0.0
C1755 C 0.4641 0.77171 0.78037 0.0
C1756 C 0.4716 0.81176 0.73187 0.0
H1757 H 0.46058 0.86637 0.72407 0.0
C1758 C 0.47704 0.80591 0.70956 0.0
C1759 C 0.46519 0.83368 0.73719 0.0
C1760 C 0.45972 0.84082 0.761 0.0
C1761 C 0.47714 0.82166 0.69248 0.0
C1762 C 0.47134 0.84374 0.69788 0.0
C1763 C 0.46503 0.8494 0.72006 0.0
C1764 C 0.47313 0.8615 0.68101 0.0
C1765 C 0.48464 0.81481 0.66902 0.0
C1766 C 0.48914 0.87909 0.68357 0.0
C1767 C 0.49109 0.8959 0.66769 0.0
C1768 C 0.47704 0.89541 0.64897 0.0
C1769 C 0.46098 0.87774 0.64651 0.0
C1770 C 0.45899 0.86098 0.66244 0.0
H1771 H 0.49303 0.79842 0.6686 0.0
H1772 H 0.46922 0.81369 0.65847 0.0
H1773 H 0.49696 0.82726 0.66148 0.0
H1774 H 0.50024 0.87974 0.69782 0.0
H1775 H 0.50365 0.90923 0.66999 0.0
H1776 H 0.53488 0.28602 0.7164 0.0
H1777 H 0.54447 0.31109 0.74695 0.0
H1778 H 0.60028 0.26897 0.76464 0.0
H1779 H 0.59079 0.24361 0.73354 0.0
H1780 H 0.56643 0.27873 0.79999 0.0
H1781 H 0.59888 0.35505 0.75793 0.0
H1782 H 0.57328 0.34374 0.74553 0.0
H1783 H 0.59953 0.32812 0.74446 0.0
C1784 C 0.5495 0.28228 0.72651 0.0
C1785 C 0.56206 0.26286 0.72274 0.0
C1786 C 0.55507 0.29672 0.74384 0.0
C1787 C 0.57323 0.29201 0.75786 0.0
C1788 C 0.58636 0.27296 0.75378 0.0
H1789 H 0.58416 0.38929 0.86728 0.0
H1790 H 0.59651 0.36296 0.83814 0.0
C1791 C 0.58098 0.25857 0.73607 0.0
C1792 C 0.57616 0.30579 0.77814 0.0
H1793 H 0.58 0.35994 0.7945 0.0
C1794 C 0.57003 0.2964 0.79894 0.0
C1795 C 0.581 0.32878 0.77673 0.0
C1796 C 0.58877 0.33949 0.75497 0.0
C1797 C 0.56677 0.30973 0.81808 0.0
C1798 C 0.56951 0.33297 0.81619 0.0
C1799 C 0.57753 0.34214 0.79581 0.0
C1800 C 0.56237 0.34813 0.8346 0.0
C1801 C 0.55962 0.29894 0.83997 0.0
C1802 C 0.53902 0.34867 0.84201 0.0
C1803 C 0.53189 0.3637 0.85863 0.0
C1804 C 0.54801 0.37844 0.86813 0.0
C1805 C 0.57139 0.37789 0.86057 0.0
C1806 C 0.57848 0.36294 0.84387 0.0
H1807 H 0.56496 0.28138 0.8403 0.0
H1808 H 0.56725 0.30794 0.85431 0.0
H1809 H 0.54044 0.29919 0.84216 0.0
H1810 H 0.52623 0.33766 0.8347 0.0
H1811 H 0.51383 0.36366 0.86417 0.0
H1812 H 0.47107 0.19386 0.74323 0.0
H1813 H 0.46818 0.16793 0.77463 0.0
H1814 H 0.53008 0.13587 0.7497 0.0
H1815 H 0.53343 0.16195 0.71878 0.0
H1816 H 0.46496 0.12223 0.77836 0.0
H1817 H 0.54767 0.15414 0.81227 0.0
H1818 H 0.53328 0.1679 0.79021 0.0
H1819 H 0.55044 0.14394 0.78405 0.0
C1820 C 0.48395 0.18116 0.74436 0.0
C1821 C 0.50267 0.18019 0.72869 0.0
C1822 C 0.48227 0.16634 0.76229 0.0
C1823 C 0.49922 0.15025 0.76481 0.0
C1824 C 0.51716 0.1485 0.74847 0.0
H1825 H 0.48446 0.04857 0.87106 0.0
H1826 H 0.4905 0.06519 0.83378 0.0
C1827 C 0.51898 0.1634 0.73073 0.0
C1828 C 0.49877 0.136 0.78499 0.0
H1829 H 0.52981 0.12355 0.83066 0.0
C1830 C 0.47917 0.12241 0.78976 0.0
C1831 C 0.51726 0.13639 0.79996 0.0
C1832 C 0.53826 0.15151 0.79654 0.0
C1833 C 0.47744 0.10944 0.80921 0.0
C1834 C 0.49601 0.10977 0.82409 0.0
C1835 C 0.51574 0.12306 0.81909 0.0
C1836 C 0.49417 0.09882 0.84629 0.0
C1837 C 0.45536 0.09626 0.81417 0.0
C1838 C 0.49525 0.112 0.86564 0.0
C1839 C 0.4921 0.1026 0.88674 0.0
C1840 C 0.4878 0.0797 0.8891 0.0
C1841 C 0.48777 0.06624 0.86978 0.0
C1842 C 0.49094 0.07575 0.84849 0.0
H1843 H 0.44117 0.101 0.80321 0.0
H1844 H 0.45866 0.07839 0.81142 0.0
H1845 H 0.44944 0.09859 0.83189 0.0
H1846 H 0.49785 0.12978 0.86442 0.0
H1847 H 0.49239 0.11347 0.90124 0.0
H1848 H 0.76244 0.50089 0.68896 0.0
H1849 H 0.73127 0.50435 0.66287 0.0
H1850 H 0.72196 0.57217 0.68379 0.0
H1851 H 0.75326 0.56884 0.71027 0.0
H1852 H 0.68011 0.54661 0.68191 0.0
H1853 H 0.7336 0.53822 0.6035 0.0
H1854 H 0.7376 0.51654 0.62326 0.0
H1855 H 0.74602 0.54454 0.63017 0.0
C1856 C 0.7539 0.51664 0.68802 0.0
C1857 C 0.76046 0.53464 0.70171 0.0
C1858 C 0.73613 0.51859 0.67295 0.0
C1859 C 0.72451 0.5386 0.67113 0.0
C1860 C 0.73083 0.55661 0.68483 0.0
H1861 H 0.62874 0.57217 0.5684 0.0
H1862 H 0.6618 0.56962 0.59258 0.0
C1863 C 0.74874 0.5547 0.69993 0.0
C1864 C 0.70532 0.54033 0.65535 0.0
H1865 H 0.69262 0.53521 0.60012 0.0
C1866 C 0.68284 0.54425 0.66402 0.0
C1867 C 0.70896 0.53741 0.63198 0.0
C1868 C 0.73287 0.53415 0.62159 0.0
C1869 C 0.66382 0.54484 0.65 0.0
C1870 C 0.66733 0.54112 0.62673 0.0
C1871 C 0.6899 0.53773 0.618 0.0
C1872 C 0.64789 0.54145 0.6111 0.0
C1873 C 0.64015 0.54972 0.66018 0.0
C1874 C 0.6294 0.52598 0.61297 0.0
C1875 C 0.61044 0.52731 0.59908 0.0
C1876 C 0.60967 0.54414 0.58302 0.0
C1877 C 0.62871 0.55901 0.58059 0.0
C1878 C 0.64765 0.55762 0.59443 0.0
H1879 H 0.64126 0.55725 0.67714 0.0
H1880 H 0.63069 0.56109 0.64941 0.0
H1881 H 0.62985 0.53404 0.66171 0.0
H1882 H 0.62945 0.51309 0.62544 0.0
H1883 H 0.59609 0.51559 0.6014 0.0
H1884 H 0.2556 0.0079 0.72823 0.0
H1885 H 0.28412 1.00272 0.69778 0.0
H1886 H 0.26992 0.93231 0.69852 0.0
H1887 H 0.24163 0.93734 0.72976 0.0
H1888 H 0.31504 0.94032 0.69458 0.0
H1889 H 0.27321 0.99227 0.63296 0.0
H1890 H 0.27829 0.00773 0.65809 0.0
H1891 H 0.2587 0.98405 0.65889 0.0
C1892 C 0.25843 0.99127 0.72192 0.0
C1893 C 0.24617 0.97304 0.73136 0.0
C1894 C 0.27464 0.98837 0.7043 0.0
C1895 C 0.27873 0.96721 0.69531 0.0
C1896 C 0.26687 0.94885 0.70497 0.0
H1897 H 0.36759 0.9534 0.5727 0.0
H1898 H 0.33352 0.95461 0.59859 0.0
C1899 C 0.25075 0.95172 0.72286 0.0
C1900 C 0.29618 0.96438 0.67656 0.0
H1901 H 0.31388 0.98536 0.62567 0.0
C1902 C 0.31458 0.94996 0.6794 0.0
C1903 C 0.29544 0.97653 0.65642 0.0
C1904 C 0.27519 0.9908 0.6513 0.0
C1905 C 0.33279 0.94823 0.66327 0.0
C1906 C 0.33302 0.9618 0.64403 0.0
C1907 C 0.31402 0.97532 0.6406 0.0
C1908 C 0.35323 0.9627 0.62782 0.0
C1909 C 0.35156 0.93179 0.66705 0.0
C1910 C 0.37548 0.96784 0.63539 0.0
C1911 C 0.39484 0.967 0.62075 0.0
C1912 C 0.39239 0.9615 0.59805 0.0
C1913 C 0.36999 0.95779 0.59009 0.0
C1914 C 0.35055 0.95834 0.60489 0.0
H1915 H 0.34504 0.91794 0.67781 0.0
H1916 H 0.35849 0.92478 0.65099 0.0
H1917 H 0.36602 0.94022 0.67573 0.0
H1918 H 0.37796 0.97204 0.6528 0.0
H1919 H 0.41185 0.97018 0.62736 0.0
H1920 H 0.77159 0.44711 0.78154 0.0
H1921 H 0.74198 0.43637 0.81031 0.0
H1922 H 0.72638 0.50509 0.82182 0.0
H1923 H 0.7555 0.51596 0.79343 0.0
H1924 H 0.73756 0.4533 0.85877 0.0
H1925 H 0.66371 0.47226 0.80544 0.0
H1926 H 0.69247 0.46695 0.79399 0.0
H1927 H 0.68609 0.4934 0.80643 0.0
C1928 C 0.76182 0.45989 0.79021 0.0
C1929 C 0.76582 0.48237 0.78507 0.0
C1930 C 0.74503 0.45374 0.80667 0.0
C1931 C 0.732 0.46998 0.81801 0.0
C1932 C 0.73618 0.49235 0.81311 0.0
H1933 H 0.63896 0.47217 0.93561 0.0
H1934 H 0.67272 0.47637 0.90955 0.0
C1935 C 0.75287 0.49849 0.79683 0.0
C1936 C 0.71344 0.46392 0.83461 0.0
H1937 H 0.65498 0.46685 0.84406 0.0
C1938 C 0.71945 0.456 0.85557 0.0
C1939 C 0.68992 0.46747 0.83026 0.0
C1940 C 0.68254 0.47532 0.80776 0.0
C1941 C 0.70243 0.45198 0.87255 0.0
C1942 C 0.67897 0.45628 0.86842 0.0
C1943 C 0.67302 0.46375 0.84726 0.0
C1944 C 0.65998 0.45253 0.88537 0.0
C1945 C 0.70962 0.44302 0.89465 0.0
C1946 C 0.6417 0.4379 0.88034 0.0
C1947 C 0.62245 0.43575 0.8949 0.0
C1948 C 0.62101 0.44817 0.91491 0.0
C1949 C 0.63963 0.46239 0.92033 0.0
C1950 C 0.65895 0.46467 0.90556 0.0
H1951 H 0.72712 0.43569 0.89333 0.0
H1952 H 0.71014 0.45673 0.90712 0.0
H1953 H 0.69697 0.43024 0.90099 0.0
H1954 H 0.64214 0.4284 0.86488 0.0
H1955 H 0.60854 0.42445 0.89029 0.0
H1956 H 0.25669 0.99367 0.82135 0.0
H1957 H 0.28875 1.00454 0.84481 0.0
H1958 H 0.27387 0.07337 0.83533 0.0
H1959 H 0.2415 0.06267 0.81154 0.0
H1960 H 0.3279 0.03607 0.82926 0.0
H1961 H 0.27778 0.06188 0.90624 0.0
H1962 H 0.26576 0.04254 0.8863 0.0
H1963 H 0.26903 0.07125 0.87933 0.0
C1964 C 0.26007 0.01116 0.82426 0.0
C1965 C 0.2465 0.02732 0.81454 0.0
C1966 C 0.27843 0.01731 0.83769 0.0
C1967 C 0.28352 0.0397 0.84186 0.0
C1968 C 0.27001 0.05598 0.8324 0.0
H1969 H 0.3942 0.09012 0.92688 0.0
H1970 H 0.35953 0.08771 0.90439 0.0
C1971 C 0.25161 0.04983 0.81878 0.0
C1972 C 0.30361 0.04569 0.85552 0.0
H1973 H 0.31847 0.06148 0.90816 0.0
C1974 C 0.3259 0.04184 0.84644 0.0
C1975 C 0.30083 0.05333 0.87782 0.0
C1976 C 0.27711 0.05749 0.88819 0.0
C1977 C 0.34558 0.04497 0.85929 0.0
C1978 C 0.34278 0.05156 0.88198 0.0
C1979 C 0.32052 0.05624 0.89082 0.0
C1980 C 0.36272 0.05278 0.89691 0.0
C1981 C 0.3692 0.0411 0.84846 0.0
C1982 C 0.37551 0.03377 0.90075 0.0
C1983 C 0.3953 0.03507 0.91351 0.0
C1984 C 0.40257 0.05539 0.92285 0.0
C1985 C 0.3891 0.07422 0.91985 0.0
C1986 C 0.3693 0.0729 0.907 0.0
H1987 H 0.36893 0.04259 0.82997 0.0
H1988 H 0.38235 0.05303 0.85488 0.0
H1989 H 0.37467 0.0241 0.85233 0.0
H1990 H 0.37039 0.01797 0.89354 0.0
H1991 H 0.40515 0.02022 0.91565 0.0
H1992 H 0.69252 0.80952 0.5149 0.0
H1993 H 0.66757 0.77742 0.52357 0.0
H1994 H 0.70315 0.7679 0.58484 0.0
H1995 H 0.72829 0.80039 0.57632 0.0
H1996 H 0.70043 0.72992 0.5541 0.0
H1997 H 0.61474 0.76706 0.57199 0.0
H1998 H 0.62974 0.7782 0.54762 0.0
H1999 H 0.64179 0.78239 0.5747 0.0
C2000 C 0.69484 0.80083 0.53041 0.0
C2001 C 0.7124 0.80739 0.54491 0.0
C2002 C 0.68046 0.78259 0.5354 0.0
C2003 C 0.68338 0.77048 0.55494 0.0
C2004 C 0.70053 0.77723 0.56978 0.0
H2005 H 0.62053 0.63631 0.56745 0.0
H2006 H 0.64223 0.6699 0.57769 0.0
C2007 C 0.7148 0.79575 0.56492 0.0
C2008 C 0.66993 0.74961 0.5583 0.0
H2009 H 0.61441 0.72899 0.55974 0.0
C2010 C 0.68165 0.72958 0.5559 0.0
C2011 C 0.64548 0.74936 0.56059 0.0
C2012 C 0.63217 0.7704 0.56408 0.0
C2013 C 0.66942 0.70933 0.554 0.0
C2014 C 0.64486 0.70921 0.55502 0.0
C2015 C 0.63323 0.72915 0.55884 0.0
C2016 C 0.63094 0.68905 0.54984 0.0
C2017 C 0.68283 0.68849 0.54941 0.0
C2018 C 0.6169 0.68887 0.53117 0.0
C2019 C 0.60423 0.66985 0.52545 0.0
C2020 C 0.60532 0.65053 0.53829 0.0
C2021 C 0.61915 0.65088 0.55723 0.0
C2022 C 0.63177 0.67 0.56301 0.0
H2023 H 0.70137 0.69211 0.54493 0.0
H2024 H 0.68206 0.67807 0.56461 0.0
H2025 H 0.67512 0.67874 0.53559 0.0
H2026 H 0.61595 0.70344 0.52083 0.0
H2027 H 0.59346 0.67041 0.51104 0.0
H2028 H 0.72344 0.24321 0.9528 0.0
H2029 H 0.69664 0.27371 0.94802 0.0
H2030 H 0.67122 0.26609 0.01624 0.0
H2031 H 0.69755 0.23564 0.02109 0.0
H2032 H 0.63587 0.27104 0.98656 0.0
H2033 H 0.70442 0.33635 0.97454 0.0
H2034 H 0.70665 0.31311 0.95566 0.0
H2035 H 0.71042 0.30921 0.98504 0.0
C2036 C 0.71208 0.24798 0.96674 0.0
C2037 C 0.71278 0.237 0.98736 0.0
C2038 C 0.69687 0.26551 0.96404 0.0
C2039 C 0.68214 0.27241 0.98189 0.0
C2040 C 0.68246 0.26114 1.00226 0.0
H2041 H 0.61089 0.39726 0.99874 0.0
H2042 H 0.63477 0.36463 1.00308 0.0
C2043 C 0.69761 0.24371 1.00499 0.0
C2044 C 0.66635 0.29137 0.97963 0.0
H2045 H 0.66562 0.34721 0.97094 0.0
C2046 C 0.64236 0.28769 0.98308 0.0
C2047 C 0.67486 0.31316 0.97546 0.0
C2048 C 0.7005 0.31835 0.97265 0.0
C2049 C 0.62666 0.30513 0.98232 0.0
C2050 C 0.63513 0.32684 0.97771 0.0
C2051 C 0.65913 0.33056 0.9744 0.0
C2052 C 0.61941 0.34595 0.97612 0.0
C2053 C 0.60119 0.30023 0.98695 0.0
C2054 C 0.60267 0.34624 0.95967 0.0
C2055 C 0.58893 0.36481 0.95721 0.0
C2056 C 0.59172 0.3836 0.97107 0.0
C2057 C 0.60815 0.38306 0.98788 0.0
C2058 C 0.62191 0.36446 0.99031 0.0
H2059 H 0.5983 0.28435 0.99597 0.0
H2060 H 0.59306 0.31371 0.99702 0.0
H2061 H 0.59228 0.29889 0.97084 0.0
H2062 H 0.60068 0.33235 0.94826 0.0
H2063 H 0.57661 0.36468 0.94395 0.0
H2064 H 0.30899 0.29535 0.03247 0.0
H2065 H 0.33498 0.26483 0.02428 0.0
H2066 H 0.32155 0.26959 0.95404 0.0
H2067 H 0.29505 0.30012 0.96213 0.0
H2068 H 0.32029 0.22593 0.96974 0.0
H2069 H 0.39999 0.27069 0.99558 0.0
H2070 H 0.37715 0.27068 0.01675 0.0
H2071 H 0.37331 0.28465 0.99075 0.0
C2072 C 0.31157 0.29003 0.01523 0.0
C2073 C 0.30004 0.30034 0.99792 0.0
C2074 C 0.32653 0.2726 0.01059 0.0
C2075 C 0.33051 0.26519 0.98853 0.0
C2076 C 0.31881 0.27516 0.97119 0.0
H2077 H 0.44495 0.18141 0.94794 0.0
H2078 H 0.41699 0.21098 0.95227 0.0
C2079 C 0.30373 0.29264 0.97583 0.0
C2080 C 0.3468 0.24692 0.98374 0.0
H2081 H 0.40279 0.23173 0.9902 0.0
C2082 C 0.33837 0.22721 0.97406 0.0
C2083 C 0.37045 0.24873 0.98916 0.0
C2084 C 0.38086 0.2699 0.99843 0.0
C2085 C 0.35286 0.20905 0.97011 0.0
C2086 C 0.37628 0.21057 0.97638 0.0
C2087 C 0.38478 0.23047 0.98563 0.0
C2088 C 0.39255 0.19199 0.97307 0.0
C2089 C 0.34305 0.18857 0.95896 0.0
C2090 C 0.38817 0.17142 0.98337 0.0
C2091 C 0.40421 0.1544 0.9809 0.0
C2092 C 0.42505 0.15777 0.96836 0.0
C2093 C 0.42928 0.17837 0.95803 0.0
C2094 C 0.41323 0.19527 0.96038 0.0
H2095 H 0.32717 0.19219 0.9498 0.0
H2096 H 0.35599 0.1812 0.94705 0.0
H2097 H 0.33831 0.17608 0.97192 0.0
H2098 H 0.37258 0.16867 0.99368 0.0
H2099 H 0.40057 0.13882 0.98924 0.0
H2100 H 0.79211 0.22959 0.07818 0.0
H2101 H 0.82013 0.25906 0.08813 0.0
H2102 H 0.82904 0.27643 0.01851 0.0
H2103 H 0.80172 0.24719 0.00847 0.0
H2104 H 0.87071 0.27206 0.03945 0.0
H2105 H 0.81054 0.32629 0.0887 0.0
H2106 H 0.81195 0.29794 0.0974 0.0
H2107 H 0.80017 0.3042 0.07086 0.0
C2108 C 0.79998 0.2398 0.06506 0.0
C2109 C 0.79469 0.23599 0.04254 0.0
C2110 C 0.81591 0.25665 0.07076 0.0
C2111 C 0.82656 0.27001 0.05404 0.0
C2112 C 0.82111 0.26628 0.03167 0.0
H2113 H 0.91018 0.38389 0.02577 0.0
H2114 H 0.8875 0.34918 0.02645 0.0
C2115 C 0.80541 0.24952 0.02598 0.0
C2116 C 0.84373 0.28779 0.05927 0.0
H2117 H 0.84889 0.33941 0.08264 0.0
C2118 C 0.86602 0.28667 0.04913 0.0
C2119 C 0.8376 0.3068 0.07196 0.0
C2120 C 0.81374 0.3091 0.08278 0.0
C2121 C 0.88204 0.30438 0.05061 0.0
C2122 C 0.87554 0.32377 0.0624 0.0
C2123 C 0.85373 0.3245 0.07353 0.0
C2124 C 0.89046 0.34403 0.06198 0.0
C2125 C 0.90565 0.30241 0.03918 0.0
C2126 C 0.89956 0.35263 0.08176 0.0
C2127 C 0.91262 0.37241 0.08142 0.0
C2128 C 0.91652 0.3841 0.06131 0.0
C2129 C 0.90756 0.37528 0.04149 0.0
C2130 C 0.89466 0.35542 0.04184 0.0
H2131 H 0.91011 0.28484 0.03594 0.0
H2132 H 0.90571 0.31101 0.02285 0.0
H2133 H 0.91929 0.31031 0.04941 0.0
H2134 H 0.89638 0.34411 0.09748 0.0
H2135 H 0.91919 0.37881 0.097 0.0
loop_
_geom_bond_atom_site_label_1
_geom_bond_atom_site_label_2
_geom_bond_distance
_geom_bond_site_symmetry_2
_ccdc_geom_bond_type
C0 O2 1.247 . S
C0 O4 1.258 . S
C1 O8 1.247 . S
C1 O9 1.258 . S
O2 C0 1.247 . S
O2 Zn3 2.028 . S
Zn3 O2 2.028 . S
Zn3 O7 2.035 . S
Zn3 O9 2.035 . S
Zn3 O10 2.028 . S
O4 C0 1.258 . S
O4 Zn5 2.035 1_455 S
Zn5 O4 2.035 1_655 S
Zn5 O6 2.028 1_655 S
Zn5 O8 2.028 1_655 S
Zn5 O11 2.035 1_655 S
O6 Zn5 2.028 1_455 S
O6 C12 1.256 . S
O7 Zn3 2.035 . S
O7 C12 1.258 . S
O8 C1 1.247 . S
O8 Zn5 2.028 1_455 S
O9 C1 1.258 . S
O9 Zn3 2.035 . S
O10 Zn3 2.028 . S
O10 C13 1.247 . S
O11 Zn5 2.035 1_455 S
O11 C13 1.258 . S
C12 O6 1.256 . S
C12 O7 1.258 . S
C13 O10 1.247 . S
C13 O11 1.258 . S
C14 O16 1.247 . S
C14 O18 1.258 1_455 S
C15 O22 1.247 1_455 S
C15 O23 1.258 . S
O16 C14 1.247 . S
O16 Zn17 2.028 . S
Zn17 O16 2.028 . S
Zn17 O21 2.035 . S
Zn17 O23 2.035 . S
Zn17 O24 2.028 . S
O18 C14 1.258 1_655 S
O18 Zn19 2.035 . S
Zn19 O18 2.035 . S
Zn19 O20 2.028 . S
Zn19 O22 2.028 . S
Zn19 O25 2.035 . S
O20 Zn19 2.028 . S
O20 C26 1.247 1_655 S
O21 Zn17 2.035 . S
O21 C26 1.258 . S
O22 C15 1.247 1_655 S
O22 Zn19 2.028 . S
O23 C15 1.258 . S
O23 Zn17 2.035 . S
O24 Zn17 2.028 . S
O24 C27 1.247 . S
O25 Zn19 2.035 . S
O25 C27 1.258 1_655 S
C26 O20 1.247 1_455 S
C26 O21 1.258 . S
C27 O24 1.247 . S
C27 O25 1.258 1_455 S
C28 O30 1.247 1_545 S
C28 O32 1.258 . S
C29 O36 1.247 1_565 S
C29 O37 1.258 . S
O30 C28 1.247 1_565 S
O30 Zn31 2.028 . S
Zn31 O30 2.028 . S
Zn31 O35 2.035 . S
Zn31 O37 2.035 . S
Zn31 O38 2.028 . S
O32 C28 1.258 . S
O32 Zn33 2.035 . S
Zn33 O32 2.035 . S
Zn33 O34 2.028 . S
Zn33 O36 2.028 . S
Zn33 O39 2.035 . S
O34 Zn33 2.028 . S
O34 C40 1.247 1_545 S
O35 Zn31 2.035 . S
O35 C40 1.258 . S
O36 C29 1.247 1_545 S
O36 Zn33 2.028 . S
O37 C29 1.258 . S
O37 Zn31 2.035 . S
O38 Zn31 2.028 . S
O38 C41 1.247 1_565 S
O39 Zn33 2.035 . S
O39 C41 1.258 . S
C40 O34 1.247 1_565 S
C40 O35 1.258 . S
C41 O38 1.247 1_545 S
C41 O39 1.258 . S
C42 O44 1.247 . S
C42 O46 1.258 . S
C43 O50 1.247 . S
C43 O51 1.258 . S
O44 C42 1.247 . S
O44 Zn45 2.028 . S
Zn45 O44 2.028 . S
Zn45 O49 2.035 . S
Zn45 O51 2.035 . S
Zn45 O52 2.028 . S
O46 C42 1.258 . S
O46 Zn47 2.035 . S
Zn47 O46 2.035 . S
Zn47 O48 2.028 . S
Zn47 O50 2.028 . S
Zn47 O53 2.035 . S
O48 Zn47 2.028 . S
O48 C54 1.247 . S
O49 Zn45 2.035 . S
O49 C54 1.258 . S
O50 C43 1.247 . S
O50 Zn47 2.028 . S
O51 C43 1.258 . S
O51 Zn45 2.035 . S
O52 Zn45 2.028 . S
O52 C55 1.247 . S
O53 Zn47 2.035 . S
O53 C55 1.258 . S
C54 O48 1.247 . S
C54 O49 1.258 . S
C55 O52 1.247 . S
C55 O53 1.258 . S
C56 O58 1.247 . S
C56 O60 1.258 . S
C57 O64 1.247 . S
C57 O65 1.258 1_554 S
O58 C56 1.247 . S
O58 Zn59 2.028 1_554 S
Zn59 O58 2.028 1_556 S
Zn59 O63 2.035 . S
Zn59 O65 2.035 . S
Zn59 O66 2.028 1_556 S
O60 C56 1.258 . S
O60 Zn61 2.035 . S
Zn61 O60 2.035 . S
Zn61 O62 2.028 . S
Zn61 O64 2.028 . S
Zn61 O67 2.035 . S
O62 Zn61 2.028 . S
O62 C68 1.247 . S
O63 Zn59 2.035 . S
O63 C68 1.258 1_556 S
O64 C57 1.247 . S
O64 Zn61 2.028 . S
O65 C57 1.258 1_556 S
O65 Zn59 2.035 . S
O66 Zn59 2.028 1_554 S
O66 C69 1.247 . S
O67 Zn61 2.035 . S
O67 C69 1.258 . S
C68 O62 1.247 . S
C68 O63 1.258 1_554 S
C69 O66 1.247 . S
C69 O67 1.258 . S
C70 O72 1.247 . S
C70 O74 1.258 . S
C71 O78 1.247 . S
C71 O79 1.258 . S
O72 C70 1.247 . S
O72 Zn73 2.028 . S
Zn73 O72 2.028 . S
Zn73 O77 2.035 . S
Zn73 O79 2.035 . S
Zn73 O80 2.028 . S
O74 C70 1.258 . S
O74 Zn75 2.035 . S
Zn75 O74 2.035 . S
Zn75 O76 2.028 . S
Zn75 O78 2.028 . S
Zn75 O81 2.035 . S
O76 Zn75 2.028 . S
O76 C82 1.247 . S
O77 Zn73 2.035 . S
O77 C82 1.258 . S
O78 C71 1.247 . S
O78 Zn75 2.028 . S
O79 C71 1.258 . S
O79 Zn73 2.035 . S
O80 Zn73 2.028 . S
O80 C83 1.247 . S
O81 Zn75 2.035 . S
O81 C83 1.258 . S
C82 O76 1.247 . S
C82 O77 1.258 . S
C83 O80 1.247 . S
C83 O81 1.258 . S
C84 O86 1.247 . S
C84 O88 1.258 . S
C85 O92 1.247 . S
C85 O93 1.258 . S
O86 C84 1.247 . S
O86 Zn87 2.028 . S
Zn87 O86 2.028 . S
Zn87 O91 2.035 . S
Zn87 O93 2.035 . S
Zn87 O94 2.028 . S
O88 C84 1.258 . S
O88 Zn89 2.035 . S
Zn89 O88 2.035 . S
Zn89 O90 2.028 . S
Zn89 O92 2.028 . S
Zn89 O95 2.035 . S
O90 Zn89 2.028 . S
O90 C96 1.247 . S
O91 Zn87 2.035 . S
O91 C96 1.258 . S
O92 C85 1.247 . S
O92 Zn89 2.028 . S
O93 C85 1.258 . S
O93 Zn87 2.035 . S
O94 Zn87 2.028 . S
O94 C97 1.247 . S
O95 Zn89 2.035 . S
O95 C97 1.258 . S
C96 O90 1.247 . S
C96 O91 1.258 . S
C97 O94 1.247 . S
C97 O95 1.258 . S
C98 O100 1.247 . S
C98 O102 1.258 . S
C99 O106 1.247 . S
C99 O107 1.258 . S
O100 C98 1.247 . S
O100 Zn101 2.028 . S
Zn101 O100 2.028 . S
Zn101 O105 2.035 . S
Zn101 O107 2.035 . S
Zn101 O108 2.028 . S
O102 C98 1.258 . S
O102 Zn103 2.035 . S
Zn103 O102 2.035 . S
Zn103 O104 2.028 . S
Zn103 O106 2.028 . S
Zn103 O109 2.035 . S
O104 Zn103 2.028 . S
O104 C110 1.247 . S
O105 Zn101 2.035 . S
O105 C110 1.258 . S
O106 C99 1.247 . S
O106 Zn103 2.028 . S
O107 C99 1.258 . S
O107 Zn101 2.035 . S
O108 Zn101 2.028 . S
O108 C111 1.247 . S
O109 Zn103 2.035 . S
O109 C111 1.258 . S
C110 O104 1.247 . S
C110 O105 1.258 . S
C111 O108 1.247 . S
C111 O109 1.258 . S
C112 O114 1.247 . S
C112 O116 1.258 . S
C113 O120 1.247 . S
C113 O121 1.258 . S
O114 C112 1.247 . S
O114 Zn115 2.028 . S
Zn115 O114 2.028 . S
Zn115 O119 2.035 . S
Zn115 O121 2.035 . S
Zn115 O122 2.028 . S
O116 C112 1.258 . S
O116 Zn117 2.035 . S
Zn117 O116 2.035 . S
Zn117 O118 2.028 . S
Zn117 O120 2.028 . S
Zn117 O123 2.035 . S
O118 Zn117 2.028 . S
O118 C124 1.247 . S
O119 Zn115 2.035 . S
O119 C124 1.258 . S
O120 C113 1.247 . S
O120 Zn117 2.028 . S
O121 C113 1.258 . S
O121 Zn115 2.035 . S
O122 Zn115 2.028 . S
O122 C125 1.247 . S
O123 Zn117 2.035 . S
O123 C125 1.258 . S
C124 O118 1.247 . S
C124 O119 1.258 . S
C125 O122 1.247 . S
C125 O123 1.258 . S
C126 O128 1.247 . S
C126 O130 1.258 . S
C127 O134 1.247 . S
C127 O135 1.258 . S
O128 C126 1.247 . S
O128 Zn129 2.028 . S
Zn129 O128 2.028 . S
Zn129 O133 2.035 . S
Zn129 O135 2.035 . S
Zn129 O136 2.028 . S
O130 C126 1.258 . S
O130 Zn131 2.035 . S
Zn131 O130 2.035 . S
Zn131 O132 2.028 . S
Zn131 O134 2.028 . S
Zn131 O137 2.035 . S
O132 Zn131 2.028 . S
O132 C138 1.247 . S
O133 Zn129 2.035 . S
O133 C138 1.258 . S
O134 C127 1.247 . S
O134 Zn131 2.028 . S
O135 C127 1.258 . S
O135 Zn129 2.035 . S
O136 Zn129 2.028 . S
O136 C139 1.247 . S
O137 Zn131 2.035 . S
O137 C139 1.258 . S
C138 O132 1.247 . S
C138 O133 1.258 . S
C139 O136 1.247 . S
C139 O137 1.258 . S
C140 O142 1.247 . S
C140 O144 1.258 1_565 S
C141 O148 1.247 . S
C141 O149 1.258 1_545 S
O142 C140 1.247 . S
O142 Zn143 2.028 . S
Zn143 O142 2.028 . S
Zn143 O147 2.035 . S
Zn143 O149 2.035 . S
Zn143 O150 2.028 . S
O144 C140 1.258 1_545 S
O144 Zn145 2.035 . S
Zn145 O144 2.035 . S
Zn145 O146 2.028 . S
Zn145 O148 2.028 . S
Zn145 O151 2.035 . S
O146 Zn145 2.028 . S
O146 C152 1.247 . S
O147 Zn143 2.035 . S
O147 C152 1.258 1_565 S
O148 C141 1.247 . S
O148 Zn145 2.028 . S
O149 C141 1.258 1_565 S
O149 Zn143 2.035 . S
O150 Zn143 2.028 . S
O150 C153 1.247 . S
O151 Zn145 2.035 . S
O151 C153 1.258 1_545 S
C152 O146 1.247 . S
C152 O147 1.258 1_545 S
C153 O150 1.247 . S
C153 O151 1.258 1_565 S
C154 O156 1.247 . S
C154 O158 1.258 1_554 S
C155 O162 1.247 . S
C155 O163 1.258 . S
O156 C154 1.247 . S
O156 Zn157 2.028 . S
Zn157 O156 2.028 . S
Zn157 O161 2.035 . S
Zn157 O163 2.035 . S
Zn157 O164 2.028 . S
O158 C154 1.258 1_556 S
O158 Zn159 2.035 . S
Zn159 O158 2.035 . S
Zn159 O160 2.028 1_556 S
Zn159 O162 2.028 1_556 S
Zn159 O165 2.035 . S
O160 Zn159 2.028 1_554 S
O160 C166 1.247 . S
O161 Zn157 2.035 . S
O161 C166 1.258 . S
O162 C155 1.247 . S
O162 Zn159 2.028 1_554 S
O163 C155 1.258 . S
O163 Zn157 2.035 . S
O164 Zn157 2.028 . S
O164 C167 1.247 . S
O165 Zn159 2.035 . S
O165 C167 1.258 1_556 S
C166 O160 1.247 . S
C166 O161 1.258 . S
C167 O164 1.247 . S
C167 O165 1.258 1_554 S
Co168 N173 2.057 1_545 S
Co168 O185 2.021 . S
Co168 O188 2.062 . S
Co168 O192 2.117 . S
Co168 O193 2.020 . S
C169 O189 1.259 . S
C169 O192 1.258 . S
Co170 N179 2.057 . S
Co170 O186 2.117 . S
Co170 O187 2.020 . S
Co170 O189 2.021 . S
Co170 O194 2.062 . S
C171 N173 1.316 . S
C171 N174 1.347 . S
C171 H176 0.931 . S
C172 N173 1.375 . S
C172 C175 1.350 1_455 S
C172 H177 0.930 1_465 S
N173 Co168 2.057 1_565 S
N173 C171 1.316 . S
N173 C172 1.375 . S
N174 C171 1.347 . S
N174 C175 1.373 1_455 S
C175 C172 1.350 1_655 S
C175 N174 1.373 1_655 S
C175 H196 0.931 . S
H176 C171 0.931 . S
H177 C172 0.930 1_645 S
C178 O185 1.259 . S
C178 O186 1.258 . S
N179 Co170 2.057 . S
N179 C180 1.316 . S
N179 C181 1.375 . S
C180 N179 1.316 . S
C180 N182 1.347 . S
C180 H191 0.931 . S
C181 N179 1.375 . S
C181 C183 1.350 . S
C181 H190 0.910 1_554 S
N182 C180 1.347 . S
N182 C183 1.373 . S
C183 C181 1.350 . S
C183 N182 1.373 . S
C183 H197 0.931 1_554 S
C184 O187 1.256 . S
C184 O188 1.255 . S
O185 Co168 2.021 . S
O185 C178 1.259 . S
O186 Co170 2.117 . S
O186 C178 1.258 . S
O187 Co170 2.020 . S
O187 C184 1.256 . S
O188 Co168 2.062 . S
O188 C184 1.255 . S
O189 C169 1.259 . S
O189 Co170 2.021 . S
H190 C181 0.910 1_556 S
H191 C180 0.931 . S
O192 Co168 2.117 . S
O192 C169 1.258 . S
O193 Co168 2.020 . S
O193 C195 1.256 . S
O194 Co170 2.062 . S
O194 C195 1.255 . S
C195 O193 1.256 . S
C195 O194 1.255 . S
H196 C175 0.931 . S
H197 C183 0.931 1_556 S
Co198 N203 2.057 . S
Co198 O215 2.021 . S
Co198 O218 2.062 . S
Co198 O222 2.117 . S
Co198 O223 2.020 . S
C199 O219 1.259 . S
C199 O222 1.258 . S
Co200 N209 2.057 . S
Co200 O216 2.117 . S
Co200 O217 2.020 . S
Co200 O219 2.021 . S
Co200 O224 2.062 . S
C201 N203 1.316 . S
C201 N204 1.347 . S
C201 H206 0.931 . S
C202 N203 1.375 . S
C202 C205 1.350 . S
C202 H207 0.930 . S
N203 Co198 2.057 . S
N203 C201 1.316 . S
N203 C202 1.375 . S
N204 C201 1.347 . S
N204 C205 1.373 . S
C205 C202 1.350 . S
C205 N204 1.373 . S
C205 H226 0.931 . S
H206 C201 0.931 . S
H207 C202 0.930 . S
C208 O215 1.259 . S
C208 O216 1.258 . S
N209 Co200 2.057 . S
N209 C210 1.316 1_554 S
N209 C211 1.375 1_554 S
C210 N209 1.316 1_556 S
C210 N212 1.347 . S
C210 H221 0.931 1_556 S
C211 N209 1.375 1_556 S
C211 C213 1.350 . S
C211 H220 0.930 . S
N212 C210 1.347 . S
N212 C213 1.373 . S
C213 C211 1.350 . S
C213 N212 1.373 . S
C213 H227 0.931 . S
C214 O217 1.256 . S
C214 O218 1.255 . S
O215 Co198 2.021 . S
O215 C208 1.259 . S
O216 Co200 2.117 . S
O216 C208 1.258 . S
O217 Co200 2.020 . S
O217 C214 1.256 . S
O218 Co198 2.062 . S
O218 C214 1.255 . S
O219 C199 1.259 . S
O219 Co200 2.021 . S
H220 C211 0.930 . S
H221 C210 0.931 1_554 S
O222 Co198 2.117 . S
O222 C199 1.258 . S
O223 Co198 2.020 . S
O223 C225 1.256 . S
O224 Co200 2.062 . S
O224 C225 1.255 . S
C225 O223 1.256 . S
C225 O224 1.255 . S
H226 C205 0.931 . S
H227 C213 0.931 . S
Co228 N233 2.057 . S
Co228 O245 2.021 . S
Co228 O248 2.062 . S
Co228 O252 2.117 . S
Co228 O253 2.020 . S
C229 O249 1.259 . S
C229 O252 1.258 . S
Co230 N239 2.057 . S
Co230 O246 2.117 . S
Co230 O247 2.020 . S
Co230 O249 2.021 . S
Co230 O254 2.062 . S
C231 N233 1.316 . S
C231 N234 1.347 . S
C231 H236 0.931 . S
C232 N233 1.375 . S
C232 C235 1.350 . S
C232 H237 0.930 . S
N233 Co228 2.057 . S
N233 C231 1.316 . S
N233 C232 1.375 . S
N234 C231 1.347 . S
N234 C235 1.373 . S
C235 C232 1.350 . S
C235 N234 1.373 . S
C235 H256 0.931 . S
H236 C231 0.931 . S
H237 C232 0.930 . S
C238 O245 1.259 . S
C238 O246 1.258 . S
N239 Co230 2.057 . S
N239 C240 1.316 . S
N239 C241 1.375 . S
C240 N239 1.316 . S
C240 N242 1.347 . S
C240 H251 0.931 . S
C241 N239 1.375 . S
C241 C243 1.350 . S
C241 H250 0.930 . S
N242 C240 1.347 . S
N242 C243 1.373 . S
C243 C241 1.350 . S
C243 N242 1.373 . S
C243 H257 0.931 1_455 S
C244 O247 1.256 . S
C244 O248 1.255 . S
O245 Co228 2.021 . S
O245 C238 1.259 . S
O246 Co230 2.117 . S
O246 C238 1.258 . S
O247 Co230 2.020 . S
O247 C244 1.256 . S
O248 Co228 2.062 . S
O248 C244 1.255 . S
O249 C229 1.259 . S
O249 Co230 2.021 . S
H250 C241 0.930 . S
H251 C240 0.931 . S
O252 Co228 2.117 . S
O252 C229 1.258 . S
O253 Co228 2.020 . S
O253 C255 1.256 . S
O254 Co230 2.062 . S
O254 C255 1.255 . S
C255 O253 1.256 . S
C255 O254 1.255 . S
H256 C235 0.931 . S
H257 C243 0.931 1_655 S
Co258 N263 2.057 . S
Co258 O275 2.021 . S
Co258 O278 2.062 . S
Co258 O282 2.117 . S
Co258 O283 2.020 . S
C259 O279 1.259 . S
C259 O282 1.258 . S
Co260 N269 2.057 . S
Co260 O276 2.117 . S
Co260 O277 2.020 . S
Co260 O279 2.021 . S
Co260 O284 2.062 . S
C261 N263 1.316 . S
C261 N264 1.347 . S
C261 H266 0.931 . S
C262 N263 1.375 . S
C262 C265 1.350 . S
C262 H267 0.930 . S
N263 Co258 2.057 . S
N263 C261 1.316 . S
N263 C262 1.375 . S
N264 C261 1.347 . S
N264 C265 1.373 . S
C265 C262 1.350 . S
C265 N264 1.373 . S
C265 H286 0.931 . S
H266 C261 0.931 . S
H267 C262 0.930 . S
C268 O275 1.259 . S
C268 O276 1.258 . S
N269 Co260 2.057 . S
N269 C270 1.316 . S
N269 C271 1.375 . S
C270 N269 1.316 . S
C270 N272 1.347 . S
C270 H281 0.931 1_655 S
C271 N269 1.375 . S
C271 C273 1.350 . S
C271 H280 0.930 . S
N272 C270 1.347 . S
N272 C273 1.373 . S
C273 C271 1.350 . S
C273 N272 1.373 . S
C273 H287 0.931 . S
C274 O277 1.256 . S
C274 O278 1.255 . S
O275 Co258 2.021 . S
O275 C268 1.259 . S
O276 Co260 2.117 . S
O276 C268 1.258 . S
O277 Co260 2.020 . S
O277 C274 1.256 . S
O278 Co258 2.062 . S
O278 C274 1.255 . S
O279 C259 1.259 . S
O279 Co260 2.021 . S
H280 C271 0.930 . S
H281 C270 0.931 1_455 S
O282 Co258 2.117 . S
O282 C259 1.258 . S
O283 Co258 2.020 . S
O283 C285 1.256 . S
O284 Co260 2.062 . S
O284 C285 1.255 . S
C285 O283 1.256 . S
C285 O284 1.255 . S
H286 C265 0.931 . S
H287 C273 0.931 . S
Co288 N293 2.057 . S
Co288 O305 2.021 . S
Co288 O308 2.062 . S
Co288 O312 2.117 . S
Co288 O313 2.020 . S
C289 O309 1.259 . S
C289 O312 1.258 . S
Co290 N299 2.057 . S
Co290 O306 2.117 . S
Co290 O307 2.020 . S
Co290 O309 2.021 . S
Co290 O314 2.062 . S
C291 N293 1.316 . S
C291 N294 1.347 . S
C291 H296 0.931 . S
C292 N293 1.375 . S
C292 C295 1.350 . S
C292 H297 0.930 . S
N293 Co288 2.057 . S
N293 C291 1.316 . S
N293 C292 1.375 . S
N294 C291 1.347 . S
N294 C295 1.373 . S
C295 C292 1.350 . S
C295 N294 1.373 . S
C295 H316 0.931 . S
H296 C291 0.931 . S
H297 C292 0.930 . S
C298 O305 1.259 . S
C298 O306 1.258 . S
N299 Co290 2.057 . S
N299 C300 1.316 . S
N299 C301 1.375 . S
C300 N299 1.316 . S
C300 N302 1.347 . S
C300 H311 0.931 . S
C301 N299 1.375 . S
C301 C303 1.350 . S
C301 H310 0.930 . S
N302 C300 1.347 . S
N302 C303 1.373 . S
C303 C301 1.350 . S
C303 N302 1.373 . S
C303 H317 0.931 . S
C304 O307 1.256 . S
C304 O308 1.255 . S
O305 Co288 2.021 . S
O305 C298 1.259 . S
O306 Co290 2.117 . S
O306 C298 1.258 . S
O307 Co290 2.020 . S
O307 C304 1.256 . S
O308 Co288 2.062 . S
O308 C304 1.255 . S
O309 C289 1.259 . S
O309 Co290 2.021 . S
H310 C301 0.930 . S
H311 C300 0.931 . S
O312 Co288 2.117 . S
O312 C289 1.258 . S
O313 Co288 2.020 . S
O313 C315 1.256 . S
O314 Co290 2.062 . S
O314 C315 1.255 . S
C315 O313 1.256 . S
C315 O314 1.255 . S
H316 C295 0.931 . S
H317 C303 0.931 . S
Co318 N323 2.057 . S
Co318 O335 2.021 . S
Co318 O338 2.062 . S
Co318 O342 2.117 . S
Co318 O343 2.020 . S
C319 O339 1.259 . S
C319 O342 1.258 . S
Co320 N329 2.057 . S
Co320 O336 2.117 . S
Co320 O337 2.020 . S
Co320 O339 2.021 . S
Co320 O344 2.062 . S
C321 N323 1.316 . S
C321 N324 1.347 . S
C321 H326 0.931 . S
C322 N323 1.375 . S
C322 C325 1.350 . S
C322 H327 0.930 . S
N323 Co318 2.057 . S
N323 C321 1.316 . S
N323 C322 1.375 . S
N324 C321 1.347 . S
N324 C325 1.373 . S
C325 C322 1.350 . S
C325 N324 1.373 . S
C325 H346 0.931 . S
H326 C321 0.931 . S
H327 C322 0.930 . S
C328 O335 1.259 . S
C328 O336 1.258 . S
N329 Co320 2.057 . S
N329 C330 1.316 . S
N329 C331 1.375 . S
C330 N329 1.316 . S
C330 N332 1.347 . S
C330 H341 0.931 . S
C331 N329 1.375 . S
C331 C333 1.350 . S
C331 H340 0.930 . S
N332 C330 1.347 . S
N332 C333 1.373 . S
C333 C331 1.350 . S
C333 N332 1.373 . S
C333 H347 0.931 . S
C334 O337 1.256 . S
C334 O338 1.255 . S
O335 Co318 2.021 . S
O335 C328 1.259 . S
O336 Co320 2.117 . S
O336 C328 1.258 . S
O337 Co320 2.020 . S
O337 C334 1.256 . S
O338 Co318 2.062 . S
O338 C334 1.255 . S
O339 C319 1.259 . S
O339 Co320 2.021 . S
H340 C331 0.930 . S
H341 C330 0.931 . S
O342 Co318 2.117 . S
O342 C319 1.258 . S
O343 Co318 2.020 . S
O343 C345 1.256 . S
O344 Co320 2.062 . S
O344 C345 1.255 . S
C345 O343 1.256 . S
C345 O344 1.255 . S
H346 C325 0.931 . S
H347 C333 0.931 . S
Co348 N353 2.057 . S
Co348 O365 2.021 . S
Co348 O368 2.062 . S
Co348 O372 2.117 . S
Co348 O373 2.020 . S
C349 O369 1.259 . S
C349 O372 1.258 . S
Co350 N359 2.057 . S
Co350 O366 2.117 . S
Co350 O367 2.020 . S
Co350 O369 2.021 . S
Co350 O374 2.062 . S
C351 N353 1.316 1_554 S
C351 N354 1.347 . S
C351 H356 0.931 . S
C352 N353 1.375 . S
C352 C355 1.350 1_556 S
C352 H357 0.930 . S
N353 Co348 2.057 . S
N353 C351 1.316 1_556 S
N353 C352 1.375 . S
N354 C351 1.347 . S
N354 C355 1.373 . S
C355 C352 1.350 1_554 S
C355 N354 1.373 . S
C355 H376 0.931 . S
H356 C351 0.931 . S
H357 C352 0.930 . S
C358 O365 1.259 . S
C358 O366 1.258 . S
N359 Co350 2.057 . S
N359 C360 1.316 . S
N359 C361 1.375 . S
C360 N359 1.316 . S
C360 N362 1.347 . S
C360 H371 0.931 . S
C361 N359 1.375 . S
C361 C363 1.350 . S
C361 H370 0.930 . S
N362 C360 1.347 . S
N362 C363 1.373 . S
C363 C361 1.350 . S
C363 N362 1.373 . S
C363 H377 0.931 . S
C364 O367 1.256 . S
C364 O368 1.255 . S
O365 Co348 2.021 . S
O365 C358 1.259 . S
O366 Co350 2.117 . S
O366 C358 1.258 . S
O367 Co350 2.020 . S
O367 C364 1.256 . S
O368 Co348 2.062 . S
O368 C364 1.255 . S
O369 C349 1.259 . S
O369 Co350 2.021 . S
H370 C361 0.930 . S
H371 C360 0.931 . S
O372 Co348 2.117 . S
O372 C349 1.258 . S
O373 Co348 2.020 . S
O373 C375 1.256 . S
O374 Co350 2.062 . S
O374 C375 1.255 . S
C375 O373 1.256 . S
C375 O374 1.255 . S
H376 C355 0.931 . S
H377 C363 0.931 . S
Co378 N383 2.057 . S
Co378 O395 2.021 . S
Co378 O398 2.062 . S
Co378 O402 2.117 . S
Co378 O403 2.020 . S
C379 O399 1.259 . S
C379 O402 1.258 . S
Co380 N389 2.057 1_545 S
Co380 O396 2.117 . S
Co380 O397 2.020 . S
Co380 O399 2.021 . S
Co380 O404 2.062 . S
C381 N383 1.316 . S
C381 N384 1.347 . S
C381 H386 0.931 . S
C382 N383 1.375 . S
C382 C385 1.350 . S
C382 H387 0.930 . S
N383 Co378 2.057 . S
N383 C381 1.316 . S
N383 C382 1.375 . S
N384 C381 1.347 . S
N384 C385 1.373 . S
C385 C382 1.350 . S
C385 N384 1.373 . S
C385 H406 0.931 . S
H386 C381 0.931 . S
H387 C382 0.930 . S
C388 O395 1.259 . S
C388 O396 1.258 . S
N389 Co380 2.057 1_565 S
N389 C390 1.316 . S
N389 C391 1.375 . S
C390 N389 1.316 . S
C390 N392 1.347 . S
C390 H401 0.931 . S
C391 N389 1.375 . S
C391 C393 1.350 . S
C391 H400 0.930 . S
N392 C390 1.347 . S
N392 C393 1.373 . S
C393 C391 1.350 . S
C393 N392 1.373 . S
C393 H407 0.931 . S
C394 O397 1.256 . S
C394 O398 1.255 . S
O395 Co378 2.021 . S
O395 C388 1.259 . S
O396 Co380 2.117 . S
O396 C388 1.258 . S
O397 Co380 2.020 . S
O397 C394 1.256 . S
O398 Co378 2.062 . S
O398 C394 1.255 . S
O399 C379 1.259 . S
O399 Co380 2.021 . S
H400 C391 0.930 . S
H401 C390 0.931 . S
O402 Co378 2.117 . S
O402 C379 1.258 . S
O403 Co378 2.020 . S
O403 C405 1.256 . S
O404 Co380 2.062 . S
O404 C405 1.255 . S
C405 O403 1.256 . S
C405 O404 1.255 . S
H406 C385 0.931 . S
H407 C393 0.931 . S
H408 C416 0.929 . S
H409 C418 0.930 . S
H410 C420 0.930 . S
H411 C423 0.929 . S
H412 C426 0.930 . S
H413 C428 0.960 . S
H414 C428 0.960 . S
H415 C428 0.960 1_455 S
C416 H408 0.929 . S
C416 C417 1.377 . S
C416 C418 1.384 . S
C417 C416 1.377 . S
C417 C423 1.390 . S
C418 H409 0.930 . S
C418 C416 1.384 . S
C418 C419 1.372 . S
C419 C418 1.372 . S
C419 C420 1.400 . S
C419 C424 1.490 . S
C420 H410 0.930 . S
C420 C419 1.400 . S
C420 C423 1.386 . S
H421 C437 0.930 . S
H422 C438 0.931 . S
C423 H411 0.929 . S
C423 C417 1.390 . S
C423 C420 1.386 . S
C424 C419 1.490 . S
C424 C426 1.395 . S
C424 C427 1.403 . S
H425 C431 0.930 . S
C426 H412 0.930 . S
C426 C424 1.395 . S
C426 C429 1.403 . S
C427 C424 1.403 . S
C427 C428 1.524 1_455 S
C427 C431 1.400 . S
C428 H413 0.960 . S
C428 H414 0.960 . S
C428 H415 0.960 1_655 S
C428 C427 1.524 1_655 S
C429 C426 1.403 . S
C429 C430 1.392 . S
C429 C433 1.495 . S
C430 C429 1.392 . S
C430 C431 1.385 . S
C430 C432 1.478 . S
C431 H425 0.930 . S
C431 C427 1.400 . S
C431 C430 1.385 . S
C432 C430 1.478 . S
C432 C434 1.381 . S
C432 C438 1.383 . S
C433 C429 1.495 . S
C433 H439 0.959 . S
C433 H440 0.961 . S
C433 H441 0.960 . S
C434 C432 1.381 . S
C434 C435 1.393 . S
C434 H442 0.930 . S
C435 C434 1.393 . S
C435 C436 1.383 1_545 S
C435 H443 0.931 1_545 S
C436 C435 1.383 1_565 S
C436 C437 1.377 1_565 S
C437 H421 0.930 . S
C437 C436 1.377 1_545 S
C437 C438 1.379 . S
C438 H422 0.931 . S
C438 C432 1.383 . S
C438 C437 1.379 . S
H439 C433 0.959 . S
H440 C433 0.961 . S
H441 C433 0.960 . S
H442 C434 0.930 . S
H443 C435 0.931 1_565 S
H444 C452 0.910 1_655 S
H445 C454 0.962 . S
H446 C456 0.930 . S
H447 C459 0.929 . S
H448 C462 0.930 . S
H449 C464 0.960 . S
H450 C464 0.960 . S
H451 C464 0.960 1_455 S
C452 H444 0.910 1_455 S
C452 C453 1.400 . S
C452 C454 1.379 1_455 S
C453 C452 1.400 . S
C453 C459 1.390 . S
C454 H445 0.962 . S
C454 C452 1.379 1_655 S
C454 C455 1.347 1_655 S
C455 C454 1.347 1_455 S
C455 C456 1.400 . S
C455 C460 1.490 . S
C456 H446 0.930 . S
C456 C455 1.400 . S
C456 C459 1.386 . S
H457 C473 0.930 . S
H458 C474 0.931 . S
C459 H447 0.929 . S
C459 C453 1.390 . S
C459 C456 1.386 . S
C460 C455 1.490 . S
C460 C462 1.395 . S
C460 C463 1.403 . S
H461 C467 0.930 1_655 S
C462 H448 0.930 . S
C462 C460 1.395 . S
C462 C465 1.403 . S
C463 C460 1.403 . S
C463 C464 1.524 1_455 S
C463 C467 1.400 . S
C464 H449 0.960 . S
C464 H450 0.960 . S
C464 H451 0.960 1_655 S
C464 C463 1.524 1_655 S
C465 C462 1.403 . S
C465 C466 1.392 . S
C465 C469 1.495 . S
C466 C465 1.392 . S
C466 C467 1.385 . S
C466 C468 1.478 . S
C467 H461 0.930 1_455 S
C467 C463 1.400 . S
C467 C466 1.385 . S
C468 C466 1.478 . S
C468 C470 1.381 1_455 S
C468 C474 1.383 . S
C469 C465 1.495 . S
C469 H475 0.959 . S
C469 H476 0.961 . S
C469 H477 0.960 . S
C470 C468 1.381 1_655 S
C470 C471 1.394 . S
C470 H478 0.930 . S
C471 C470 1.394 . S
C471 C472 1.383 1_655 S
C471 H479 0.929 . S
C472 C471 1.383 1_455 S
C472 C473 1.377 . S
C473 H457 0.930 . S
C473 C472 1.377 . S
C473 C474 1.379 . S
C474 H458 0.931 . S
C474 C468 1.383 . S
C474 C473 1.379 . S
H475 C469 0.959 . S
H476 C469 0.961 . S
H477 C469 0.960 . S
H478 C470 0.930 . S
H479 C471 0.929 . S
H480 C488 0.929 . S
H481 C490 0.943 . S
H482 C492 0.930 . S
H483 C495 0.929 . S
H484 C498 0.930 . S
H485 C500 0.960 . S
H486 C500 0.960 . S
H487 C500 0.960 . S
C488 H480 0.929 . S
C488 C489 1.377 . S
C488 C490 1.384 . S
C489 C488 1.377 . S
C489 C495 1.390 . S
C490 H481 0.943 . S
C490 C488 1.384 . S
C490 C491 1.372 . S
C491 C490 1.372 . S
C491 C492 1.400 . S
C491 C496 1.490 . S
C492 H482 0.930 . S
C492 C491 1.400 . S
C492 C495 1.386 . S
H493 C509 0.930 . S
H494 C510 0.931 . S
C495 H483 0.929 . S
C495 C489 1.390 . S
C495 C492 1.386 . S
C496 C491 1.490 . S
C496 C498 1.395 . S
C496 C499 1.403 1_455 S
H497 C503 0.930 . S
C498 H484 0.930 . S
C498 C496 1.395 . S
C498 C501 1.403 . S
C499 C496 1.403 1_655 S
C499 C500 1.524 . S
C499 C503 1.400 . S
C500 H485 0.960 . S
C500 H486 0.960 . S
C500 H487 0.960 . S
C500 C499 1.524 . S
C501 C498 1.403 . S
C501 C502 1.392 . S
C501 C505 1.495 . S
C502 C501 1.392 . S
C502 C503 1.385 1_455 S
C502 C504 1.478 . S
C503 H497 0.930 . S
C503 C499 1.400 . S
C503 C502 1.385 1_655 S
C504 C502 1.478 . S
C504 C506 1.369 1_455 S
C504 C510 1.383 . S
C505 C501 1.495 . S
C505 H511 0.959 . S
C505 H512 0.961 . S
C505 H513 0.960 . S
C506 C504 1.369 1_655 S
C506 C507 1.399 . S
C506 H514 0.939 . S
C507 C506 1.399 . S
C507 C508 1.383 1_655 S
C507 H515 0.929 . S
C508 C507 1.383 1_455 S
C508 C509 1.377 . S
C509 H493 0.930 . S
C509 C508 1.377 . S
C509 C510 1.379 . S
C510 H494 0.931 . S
C510 C504 1.383 . S
C510 C509 1.379 . S
H511 C505 0.959 . S
H512 C505 0.961 . S
H513 C505 0.960 . S
H514 C506 0.939 . S
H515 C507 0.929 . S
H516 C524 0.929 . S
H517 C526 0.930 . S
H518 C528 0.930 . S
H519 C531 0.929 . S
H520 C534 0.930 . S
H521 C536 0.960 . S
H522 C536 0.960 . S
H523 C536 0.960 1_455 S
C524 H516 0.929 . S
C524 C525 1.359 1_655 S
C524 C526 1.384 . S
C525 C524 1.359 1_455 S
C525 C531 1.406 . S
C526 H517 0.930 . S
C526 C524 1.384 . S
C526 C527 1.372 . S
C527 C526 1.372 . S
C527 C528 1.400 1_655 S
C527 C532 1.490 . S
C528 H518 0.930 . S
C528 C527 1.400 1_455 S
C528 C531 1.386 . S
H529 C545 0.930 1_455 S
H530 C546 0.910 1_455 S
C531 H519 0.929 . S
C531 C525 1.406 . S
C531 C528 1.386 . S
C532 C527 1.490 . S
C532 C534 1.395 . S
C532 C535 1.403 . S
H533 C539 0.930 . S
C534 H520 0.930 . S
C534 C532 1.395 . S
C534 C537 1.403 . S
C535 C532 1.403 . S
C535 C536 1.524 . S
C535 C539 1.400 . S
C536 H521 0.960 . S
C536 H522 0.960 . S
C536 H523 0.960 1_655 S
C536 C535 1.524 . S
C537 C534 1.403 . S
C537 C538 1.392 . S
C537 C541 1.495 . S
C538 C537 1.392 . S
C538 C539 1.385 . S
C538 C540 1.478 . S
C539 H533 0.930 . S
C539 C535 1.400 . S
C539 C538 1.385 . S
C540 C538 1.478 . S
C540 C542 1.381 . S
C540 C546 1.401 . S
C541 C537 1.495 . S
C541 H547 0.959 . S
C541 H548 0.961 . S
C541 H549 0.960 . S
C542 C540 1.381 . S
C542 C543 1.394 . S
C542 H550 0.930 . S
C543 C542 1.394 . S
C543 C544 1.383 . S
C543 H551 0.929 . S
C544 C543 1.383 . S
C544 C545 1.377 . S
C545 H529 0.930 1_655 S
C545 C544 1.377 . S
C545 C546 1.382 . S
C546 H530 0.910 1_655 S
C546 C540 1.401 . S
C546 C545 1.382 . S
H547 C541 0.959 . S
H548 C541 0.961 . S
H549 C541 0.960 . S
H550 C542 0.930 . S
H551 C543 0.929 . S
H552 C560 0.929 . S
H553 C562 0.930 . S
H554 C564 0.930 . S
H555 C567 0.929 . S
H556 C570 0.930 . S
H557 C572 0.960 . S
H558 C572 0.960 . S
H559 C572 0.960 . S
C560 H552 0.929 . S
C560 C561 1.377 . S
C560 C562 1.384 . S
C561 C560 1.377 . S
C561 C567 1.390 . S
C562 H553 0.930 . S
C562 C560 1.384 . S
C562 C563 1.372 . S
C563 C562 1.372 . S
C563 C564 1.400 . S
C563 C568 1.490 . S
C564 H554 0.930 . S
C564 C563 1.400 . S
C564 C567 1.386 . S
H565 C581 0.930 . S
H566 C582 0.931 . S
C567 H555 0.929 . S
C567 C561 1.390 . S
C567 C564 1.386 . S
C568 C563 1.490 . S
C568 C570 1.395 . S
C568 C571 1.403 . S
H569 C575 0.931 . S
C570 H556 0.930 . S
C570 C568 1.395 . S
C570 C573 1.403 . S
C571 C568 1.403 . S
C571 C572 1.524 1_545 S
C571 C575 1.400 . S
C572 H557 0.960 . S
C572 H558 0.960 . S
C572 H559 0.960 . S
C572 C571 1.524 1_565 S
C573 C570 1.403 . S
C573 C574 1.392 . S
C573 C577 1.495 . S
C574 C573 1.392 . S
C574 C575 1.385 . S
C574 C576 1.478 . S
C575 H569 0.931 . S
C575 C571 1.400 . S
C575 C574 1.385 . S
C576 C574 1.478 . S
C576 C578 1.381 . S
C576 C582 1.383 . S
C577 C573 1.495 . S
C577 H583 0.959 . S
C577 H584 0.961 . S
C577 H585 0.960 . S
C578 C576 1.381 . S
C578 C579 1.394 . S
C578 H586 0.930 . S
C579 C578 1.394 . S
C579 C580 1.383 . S
C579 H587 0.929 . S
C580 C579 1.383 . S
C580 C581 1.377 . S
C581 H565 0.930 . S
C581 C580 1.377 . S
C581 C582 1.379 . S
C582 H566 0.931 . S
C582 C576 1.383 . S
C582 C581 1.379 . S
H583 C577 0.959 . S
H584 C577 0.961 . S
H585 C577 0.960 . S
H586 C578 0.930 . S
H587 C579 0.929 . S
H588 C596 0.929 . S
H589 C598 0.930 . S
H590 C600 0.930 . S
H591 C603 0.929 . S
H592 C606 0.930 . S
H593 C608 0.960 . S
H594 C608 0.960 . S
H595 C608 0.960 . S
C596 H588 0.929 . S
C596 C597 1.377 . S
C596 C598 1.384 . S
C597 C596 1.377 . S
C597 C603 1.390 . S
C598 H589 0.930 . S
C598 C596 1.384 . S
C598 C599 1.372 . S
C599 C598 1.372 . S
C599 C600 1.400 . S
C599 C604 1.490 . S
C600 H590 0.930 . S
C600 C599 1.400 . S
C600 C603 1.386 . S
H601 C617 0.930 . S
H602 C618 0.931 . S
C603 H591 0.929 . S
C603 C597 1.390 . S
C603 C600 1.386 . S
C604 C599 1.490 . S
C604 C606 1.395 . S
C604 C607 1.403 . S
H605 C611 0.930 . S
C606 H592 0.930 . S
C606 C604 1.395 . S
C606 C609 1.403 . S
C607 C604 1.403 . S
C607 C608 1.524 . S
C607 C611 1.400 . S
C608 H593 0.960 . S
C608 H594 0.960 . S
C608 H595 0.960 . S
C608 C607 1.524 . S
C609 C606 1.403 . S
C609 C610 1.392 . S
C609 C613 1.495 . S
C610 C609 1.392 . S
C610 C611 1.385 . S
C610 C612 1.478 . S
C611 H605 0.930 . S
C611 C607 1.400 . S
C611 C610 1.385 . S
C612 C610 1.478 . S
C612 C614 1.381 . S
C612 C618 1.383 . S
C613 C609 1.495 . S
C613 H619 0.959 . S
C613 H620 0.961 . S
C613 H621 0.960 . S
C614 C612 1.381 . S
C614 C615 1.394 . S
C614 H622 0.930 . S
C615 C614 1.394 . S
C615 C616 1.383 . S
C615 H623 0.929 . S
C616 C615 1.383 . S
C616 C617 1.377 . S
C617 H601 0.930 . S
C617 C616 1.377 . S
C617 C618 1.379 . S
C618 H602 0.931 . S
C618 C612 1.383 . S
C618 C617 1.379 . S
H619 C613 0.959 . S
H620 C613 0.961 . S
H621 C613 0.960 . S
H622 C614 0.930 . S
H623 C615 0.929 . S
H624 C632 0.929 . S
H625 C634 0.930 . S
H626 C636 0.930 . S
H627 C639 0.929 . S
H628 C642 0.931 1_545 S
H629 C644 0.960 . S
H630 C644 0.960 . S
H631 C644 0.960 . S
C632 H624 0.929 . S
C632 C633 1.377 . S
C632 C634 1.384 . S
C633 C632 1.377 . S
C633 C639 1.390 1_565 S
C634 H625 0.930 . S
C634 C632 1.384 . S
C634 C635 1.372 . S
C635 C634 1.372 . S
C635 C636 1.400 1_565 S
C635 C640 1.490 . S
C636 H626 0.930 . S
C636 C635 1.400 1_545 S
C636 C639 1.386 . S
H637 C653 0.930 . S
H638 C654 0.931 . S
C639 H627 0.929 . S
C639 C633 1.390 1_545 S
C639 C636 1.386 . S
C640 C635 1.490 . S
C640 C642 1.393 . S
C640 C643 1.403 . S
H641 C647 0.930 . S
C642 H628 0.931 1_565 S
C642 C640 1.393 . S
C642 C645 1.403 1_565 S
C643 C640 1.403 . S
C643 C644 1.524 . S
C643 C647 1.400 . S
C644 H629 0.960 . S
C644 H630 0.960 . S
C644 H631 0.960 . S
C644 C643 1.524 . S
C645 C642 1.403 1_545 S
C645 C646 1.391 1_545 S
C645 C649 1.496 . S
C646 C645 1.391 1_565 S
C646 C647 1.385 . S
C646 C648 1.478 . S
C647 H641 0.930 . S
C647 C643 1.400 . S
C647 C646 1.385 . S
C648 C646 1.478 . S
C648 C650 1.381 . S
C648 C654 1.383 1_565 S
C649 C645 1.496 . S
C649 H655 0.959 . S
C649 H656 0.961 . S
C649 H657 0.960 1_545 S
C650 C648 1.381 . S
C650 C651 1.394 . S
C650 H658 0.930 . S
C651 C650 1.394 . S
C651 C652 1.383 . S
C651 H659 0.929 . S
C652 C651 1.383 . S
C652 C653 1.377 1_565 S
C653 H637 0.930 . S
C653 C652 1.377 1_545 S
C653 C654 1.379 . S
C654 H638 0.931 . S
C654 C648 1.383 1_545 S
C654 C653 1.379 . S
H655 C649 0.959 . S
H656 C649 0.961 . S
H657 C649 0.960 1_565 S
H658 C650 0.930 . S
H659 C651 0.929 . S
H660 C668 0.929 . S
H661 C670 0.930 . S
H662 C672 0.930 . S
H663 C675 0.929 . S
H664 C678 0.930 . S
H665 C680 0.960 . S
H666 C680 0.960 . S
H667 C680 0.960 . S
C668 H660 0.929 . S
C668 C669 1.377 . S
C668 C670 1.384 . S
C669 C668 1.377 . S
C669 C675 1.390 . S
C670 H661 0.930 . S
C670 C668 1.384 . S
C670 C671 1.372 . S
C671 C670 1.372 . S
C671 C672 1.400 . S
C671 C676 1.490 . S
C672 H662 0.930 . S
C672 C671 1.400 . S
C672 C675 1.386 . S
H673 C689 0.930 . S
H674 C690 0.931 . S
C675 H663 0.929 . S
C675 C669 1.390 . S
C675 C672 1.386 . S
C676 C671 1.490 . S
C676 C678 1.395 . S
C676 C679 1.403 . S
H677 C683 0.930 . S
C678 H664 0.930 . S
C678 C676 1.395 . S
C678 C681 1.403 . S
C679 C676 1.403 . S
C679 C680 1.524 . S
C679 C683 1.400 . S
C680 H665 0.960 . S
C680 H666 0.960 . S
C680 H667 0.960 . S
C680 C679 1.524 . S
C681 C678 1.403 . S
C681 C682 1.392 . S
C681 C685 1.495 . S
C682 C681 1.392 . S
C682 C683 1.385 . S
C682 C684 1.478 . S
C683 H677 0.930 . S
C683 C679 1.400 . S
C683 C682 1.385 . S
C684 C682 1.478 . S
C684 C686 1.381 . S
C684 C690 1.383 . S
C685 C681 1.495 . S
C685 H691 0.959 . S
C685 H692 0.961 . S
C685 H693 0.960 . S
C686 C684 1.381 . S
C686 C687 1.394 . S
C686 H694 0.930 . S
C687 C686 1.394 . S
C687 C688 1.383 . S
C687 H695 0.929 . S
C688 C687 1.383 . S
C688 C689 1.377 . S
C689 H673 0.930 . S
C689 C688 1.377 . S
C689 C690 1.379 . S
C690 H674 0.931 . S
C690 C684 1.383 . S
C690 C689 1.379 . S
H691 C685 0.959 . S
H692 C685 0.961 . S
H693 C685 0.960 . S
H694 C686 0.930 . S
H695 C687 0.929 . S
H696 C704 0.929 . S
H697 C706 0.930 . S
H698 C708 0.930 . S
H699 C711 0.929 . S
H700 C714 0.930 . S
H701 C716 0.960 . S
H702 C716 0.960 . S
H703 C716 0.960 . S
C704 H696 0.929 . S
C704 C705 1.377 . S
C704 C706 1.384 . S
C705 C704 1.377 . S
C705 C711 1.390 . S
C706 H697 0.930 . S
C706 C704 1.384 . S
C706 C707 1.372 . S
C707 C706 1.372 . S
C707 C708 1.400 . S
C707 C712 1.490 . S
C708 H698 0.930 . S
C708 C707 1.400 . S
C708 C711 1.386 . S
H709 C725 0.930 . S
H710 C726 0.931 . S
C711 H699 0.929 . S
C711 C705 1.390 . S
C711 C708 1.386 . S
C712 C707 1.490 . S
C712 C714 1.395 . S
C712 C715 1.403 . S
H713 C719 0.930 . S
C714 H700 0.930 . S
C714 C712 1.395 . S
C714 C717 1.403 . S
C715 C712 1.403 . S
C715 C716 1.524 . S
C715 C719 1.400 . S
C716 H701 0.960 . S
C716 H702 0.960 . S
C716 H703 0.960 . S
C716 C715 1.524 . S
C717 C714 1.403 . S
C717 C718 1.392 . S
C717 C721 1.504 . S
C718 C717 1.392 . S
C718 C719 1.385 . S
C718 C720 1.478 . S
C719 H713 0.930 . S
C719 C715 1.400 . S
C719 C718 1.385 . S
C720 C718 1.478 . S
C720 C722 1.381 . S
C720 C726 1.383 . S
C721 C717 1.504 . S
C721 H727 0.953 1_554 S
C721 H728 0.951 1_554 S
C721 H729 0.968 . S
C722 C720 1.381 . S
C722 C723 1.394 . S
C722 H730 0.930 . S
C723 C722 1.394 . S
C723 C724 1.383 . S
C723 H731 0.929 . S
C724 C723 1.383 . S
C724 C725 1.377 . S
C725 H709 0.930 . S
C725 C724 1.377 . S
C725 C726 1.379 . S
C726 H710 0.931 . S
C726 C720 1.383 . S
C726 C725 1.379 . S
H727 C721 0.953 1_556 S
H728 C721 0.951 1_556 S
H729 C721 0.968 . S
H730 C722 0.930 . S
H731 C723 0.929 . S
H732 C740 0.929 . S
H733 C742 0.930 . S
H734 C744 0.930 . S
H735 C747 0.929 . S
H736 C750 0.930 . S
H737 C752 0.960 . S
H738 C752 0.960 . S
H739 C752 0.960 . S
C740 H732 0.929 . S
C740 C741 1.377 . S
C740 C742 1.384 . S
C741 C740 1.377 . S
C741 C747 1.390 . S
C742 H733 0.930 . S
C742 C740 1.384 . S
C742 C743 1.372 . S
C743 C742 1.372 . S
C743 C744 1.400 . S
C743 C748 1.490 . S
C744 H734 0.930 . S
C744 C743 1.400 . S
C744 C747 1.386 . S
H745 C761 0.930 . S
H746 C762 0.931 . S
C747 H735 0.929 . S
C747 C741 1.390 . S
C747 C744 1.386 . S
C748 C743 1.490 . S
C748 C750 1.395 . S
C748 C751 1.403 . S
H749 C755 0.930 . S
C750 H736 0.930 . S
C750 C748 1.395 . S
C750 C753 1.403 . S
C751 C748 1.403 . S
C751 C752 1.524 . S
C751 C755 1.400 . S
C752 H737 0.960 . S
C752 H738 0.960 . S
C752 H739 0.960 . S
C752 C751 1.524 . S
C753 C750 1.403 . S
C753 C754 1.392 . S
C753 C757 1.495 . S
C754 C753 1.392 . S
C754 C755 1.385 . S
C754 C756 1.478 . S
C755 H749 0.930 . S
C755 C751 1.400 . S
C755 C754 1.385 . S
C756 C754 1.478 . S
C756 C758 1.381 . S
C756 C762 1.383 . S
C757 C753 1.495 . S
C757 H763 0.959 . S
C757 H764 0.961 . S
C757 H765 0.960 . S
C758 C756 1.381 . S
C758 C759 1.394 . S
C758 H766 0.930 . S
C759 C758 1.394 . S
C759 C760 1.383 . S
C759 H767 0.929 . S
C760 C759 1.383 . S
C760 C761 1.377 . S
C761 H745 0.930 . S
C761 C760 1.377 . S
C761 C762 1.379 . S
C762 H746 0.931 . S
C762 C756 1.383 . S
C762 C761 1.379 . S
H763 C757 0.959 . S
H764 C757 0.961 . S
H765 C757 0.960 . S
H766 C758 0.930 . S
H767 C759 0.929 . S
H768 C776 0.929 . S
H769 C778 0.930 . S
H770 C780 0.930 . S
H771 C783 0.929 . S
H772 C786 0.930 . S
H773 C788 0.960 . S
H774 C788 0.960 . S
H775 C788 0.960 . S
C776 H768 0.929 . S
C776 C777 1.377 . S
C776 C778 1.384 . S
C777 C776 1.377 . S
C777 C783 1.390 . S
C778 H769 0.930 . S
C778 C776 1.384 . S
C778 C779 1.372 . S
C779 C778 1.372 . S
C779 C780 1.400 . S
C779 C784 1.490 . S
C780 H770 0.930 . S
C780 C779 1.400 . S
C780 C783 1.386 . S
H781 C797 0.930 . S
H782 C798 0.931 . S
C783 H771 0.929 . S
C783 C777 1.390 . S
C783 C780 1.386 . S
C784 C779 1.490 . S
C784 C786 1.395 . S
C784 C787 1.403 . S
H785 C791 0.930 . S
C786 H772 0.930 . S
C786 C784 1.395 . S
C786 C789 1.403 . S
C787 C784 1.403 . S
C787 C788 1.524 . S
C787 C791 1.400 . S
C788 H773 0.960 . S
C788 H774 0.960 . S
C788 H775 0.960 . S
C788 C787 1.524 . S
C789 C786 1.403 . S
C789 C790 1.392 . S
C789 C793 1.495 . S
C790 C789 1.392 . S
C790 C791 1.385 . S
C790 C792 1.478 . S
C791 H785 0.930 . S
C791 C787 1.400 . S
C791 C790 1.385 . S
C792 C790 1.478 . S
C792 C794 1.381 . S
C792 C798 1.383 . S
C793 C789 1.495 . S
C793 H799 0.959 . S
C793 H800 0.961 . S
C793 H801 0.960 . S
C794 C792 1.381 . S
C794 C795 1.394 . S
C794 H802 0.930 . S
C795 C794 1.394 . S
C795 C796 1.383 . S
C795 H803 0.929 . S
C796 C795 1.383 . S
C796 C797 1.377 . S
C797 H781 0.930 . S
C797 C796 1.377 . S
C797 C798 1.379 . S
C798 H782 0.931 . S
C798 C792 1.383 . S
C798 C797 1.379 . S
H799 C793 0.959 . S
H800 C793 0.961 . S
H801 C793 0.960 . S
H802 C794 0.930 . S
H803 C795 0.929 . S
H804 C812 0.929 . S
H805 C814 0.930 . S
H806 C816 0.930 . S
H807 C819 0.929 . S
H808 C822 0.930 . S
H809 C824 0.960 . S
H810 C824 0.960 . S
H811 C824 0.960 . S
C812 H804 0.929 . S
C812 C813 1.377 . S
C812 C814 1.384 . S
C813 C812 1.377 . S
C813 C819 1.390 . S
C814 H805 0.930 . S
C814 C812 1.384 . S
C814 C815 1.372 . S
C815 C814 1.372 . S
C815 C816 1.400 . S
C815 C820 1.490 . S
C816 H806 0.930 . S
C816 C815 1.400 . S
C816 C819 1.386 . S
H817 C833 0.930 . S
H818 C834 0.931 . S
C819 H807 0.929 . S
C819 C813 1.390 . S
C819 C816 1.386 . S
C820 C815 1.490 . S
C820 C822 1.395 . S
C820 C823 1.403 . S
H821 C827 0.930 . S
C822 H808 0.930 . S
C822 C820 1.395 . S
C822 C825 1.403 . S
C823 C820 1.403 . S
C823 C824 1.524 . S
C823 C827 1.400 . S
C824 H809 0.960 . S
C824 H810 0.960 . S
C824 H811 0.960 . S
C824 C823 1.524 . S
C825 C822 1.403 . S
C825 C826 1.392 . S
C825 C829 1.495 . S
C826 C825 1.392 . S
C826 C827 1.385 . S
C826 C828 1.478 . S
C827 H821 0.930 . S
C827 C823 1.400 . S
C827 C826 1.385 . S
C828 C826 1.478 . S
C828 C830 1.381 . S
C828 C834 1.383 . S
C829 C825 1.495 . S
C829 H835 0.959 . S
C829 H836 0.961 . S
C829 H837 0.960 . S
C830 C828 1.381 . S
C830 C831 1.394 . S
C830 H838 0.930 . S
C831 C830 1.394 . S
C831 C832 1.383 . S
C831 H839 0.929 . S
C832 C831 1.383 . S
C832 C833 1.377 . S
C833 H817 0.930 . S
C833 C832 1.377 . S
C833 C834 1.379 . S
C834 H818 0.931 . S
C834 C828 1.383 . S
C834 C833 1.379 . S
H835 C829 0.959 . S
H836 C829 0.961 . S
H837 C829 0.960 . S
H838 C830 0.930 . S
H839 C831 0.929 . S
H840 C848 0.929 . S
H841 C850 0.930 . S
H842 C852 0.930 . S
H843 C855 0.929 . S
H844 C858 0.930 . S
H845 C860 0.960 . S
H846 C860 0.960 . S
H847 C860 0.960 . S
C848 H840 0.929 . S
C848 C849 1.377 . S
C848 C850 1.384 . S
C849 C848 1.377 . S
C849 C855 1.390 . S
C850 H841 0.930 . S
C850 C848 1.384 . S
C850 C851 1.372 . S
C851 C850 1.372 . S
C851 C852 1.400 . S
C851 C856 1.490 . S
C852 H842 0.930 . S
C852 C851 1.400 . S
C852 C855 1.386 . S
H853 C869 0.930 . S
H854 C870 0.931 . S
C855 H843 0.929 . S
C855 C849 1.390 . S
C855 C852 1.386 . S
C856 C851 1.490 . S
C856 C858 1.395 . S
C856 C859 1.403 . S
H857 C863 0.930 . S
C858 H844 0.930 . S
C858 C856 1.395 . S
C858 C861 1.403 . S
C859 C856 1.403 . S
C859 C860 1.524 . S
C859 C863 1.400 . S
C860 H845 0.960 . S
C860 H846 0.960 . S
C860 H847 0.960 . S
C860 C859 1.524 . S
C861 C858 1.403 . S
C861 C862 1.392 . S
C861 C865 1.495 . S
C862 C861 1.392 . S
C862 C863 1.385 . S
C862 C864 1.478 . S
C863 H857 0.930 . S
C863 C859 1.400 . S
C863 C862 1.385 . S
C864 C862 1.478 . S
C864 C866 1.381 . S
C864 C870 1.383 . S
C865 C861 1.495 . S
C865 H871 0.959 . S
C865 H872 0.961 . S
C865 H873 0.960 . S
C866 C864 1.381 . S
C866 C867 1.394 . S
C866 H874 0.930 . S
C867 C866 1.394 . S
C867 C868 1.383 . S
C867 H875 0.929 . S
C868 C867 1.383 . S
C868 C869 1.377 . S
C869 H853 0.930 . S
C869 C868 1.377 . S
C869 C870 1.379 . S
C870 H854 0.931 . S
C870 C864 1.383 . S
C870 C869 1.379 . S
H871 C865 0.959 . S
H872 C865 0.961 . S
H873 C865 0.960 . S
H874 C866 0.930 . S
H875 C867 0.929 . S
H876 C884 0.929 . S
H877 C886 0.930 . S
H878 C888 0.930 . S
H879 C891 0.929 . S
H880 C894 0.930 . S
H881 C896 0.960 . S
H882 C896 0.960 . S
H883 C896 0.960 . S
C884 H876 0.929 . S
C884 C885 1.377 . S
C884 C886 1.384 . S
C885 C884 1.377 . S
C885 C891 1.390 . S
C886 H877 0.930 . S
C886 C884 1.384 . S
C886 C887 1.372 . S
C887 C886 1.372 . S
C887 C888 1.400 . S
C887 C892 1.490 . S
C888 H878 0.930 . S
C888 C887 1.400 . S
C888 C891 1.386 . S
H889 C905 0.930 . S
H890 C906 0.931 . S
C891 H879 0.929 . S
C891 C885 1.390 . S
C891 C888 1.386 . S
C892 C887 1.490 . S
C892 C894 1.395 . S
C892 C895 1.403 . S
H893 C899 0.930 . S
C894 H880 0.930 . S
C894 C892 1.395 . S
C894 C897 1.403 . S
C895 C892 1.403 . S
C895 C896 1.524 . S
C895 C899 1.400 . S
C896 H881 0.960 . S
C896 H882 0.960 . S
C896 H883 0.960 . S
C896 C895 1.524 . S
C897 C894 1.403 . S
C897 C898 1.392 . S
C897 C901 1.495 . S
C898 C897 1.392 . S
C898 C899 1.385 . S
C898 C900 1.478 . S
C899 H893 0.930 . S
C899 C895 1.400 . S
C899 C898 1.385 . S
C900 C898 1.478 . S
C900 C902 1.381 . S
C900 C906 1.383 . S
C901 C897 1.495 . S
C901 H907 0.959 . S
C901 H908 0.961 . S
C901 H909 0.960 . S
C902 C900 1.381 . S
C902 C903 1.394 . S
C902 H910 0.930 . S
C903 C902 1.394 . S
C903 C904 1.383 . S
C903 H911 0.929 . S
C904 C903 1.383 . S
C904 C905 1.377 . S
C905 H889 0.930 . S
C905 C904 1.377 . S
C905 C906 1.379 . S
C906 H890 0.931 . S
C906 C900 1.383 . S
C906 C905 1.379 . S
H907 C901 0.959 . S
H908 C901 0.961 . S
H909 C901 0.960 . S
H910 C902 0.930 . S
H911 C903 0.929 . S
H912 C920 0.929 . S
H913 C922 0.930 . S
H914 C924 0.930 . S
H915 C927 0.929 . S
H916 C930 0.930 . S
H917 C932 0.960 . S
H918 C932 0.960 . S
H919 C932 0.960 . S
C920 H912 0.929 . S
C920 C921 1.377 . S
C920 C922 1.384 . S
C921 C920 1.377 . S
C921 C927 1.390 . S
C922 H913 0.930 . S
C922 C920 1.384 . S
C922 C923 1.372 . S
C923 C922 1.372 . S
C923 C924 1.400 . S
C923 C928 1.490 . S
C924 H914 0.930 . S
C924 C923 1.400 . S
C924 C927 1.386 . S
H925 C941 0.930 . S
H926 C942 0.931 . S
C927 H915 0.929 . S
C927 C921 1.390 . S
C927 C924 1.386 . S
C928 C923 1.490 . S
C928 C930 1.395 . S
C928 C931 1.403 . S
H929 C935 0.930 . S
C930 H916 0.930 . S
C930 C928 1.395 . S
C930 C933 1.403 . S
C931 C928 1.403 . S
C931 C932 1.524 . S
C931 C935 1.400 . S
C932 H917 0.960 . S
C932 H918 0.960 . S
C932 H919 0.960 . S
C932 C931 1.524 . S
C933 C930 1.403 . S
C933 C934 1.392 . S
C933 C937 1.495 . S
C934 C933 1.392 . S
C934 C935 1.385 . S
C934 C936 1.478 . S
C935 H929 0.930 . S
C935 C931 1.400 . S
C935 C934 1.385 . S
C936 C934 1.478 . S
C936 C938 1.381 . S
C936 C942 1.383 . S
C937 C933 1.495 . S
C937 H943 0.959 . S
C937 H944 0.961 . S
C937 H945 0.960 . S
C938 C936 1.381 . S
C938 C939 1.394 . S
C938 H946 0.930 . S
C939 C938 1.394 . S
C939 C940 1.383 . S
C939 H947 0.929 . S
C940 C939 1.383 . S
C940 C941 1.377 . S
C941 H925 0.930 . S
C941 C940 1.377 . S
C941 C942 1.379 . S
C942 H926 0.931 . S
C942 C936 1.383 . S
C942 C941 1.379 . S
H943 C937 0.959 . S
H944 C937 0.961 . S
H945 C937 0.960 . S
H946 C938 0.930 . S
H947 C939 0.929 . S
H948 C956 0.929 . S
H949 C958 0.930 . S
H950 C960 0.930 . S
H951 C963 0.929 . S
H952 C966 0.930 . S
H953 C968 0.960 . S
H954 C968 0.960 . S
H955 C968 0.960 . S
C956 H948 0.929 . S
C956 C957 1.377 . S
C956 C958 1.384 . S
C957 C956 1.377 . S
C957 C963 1.390 . S
C958 H949 0.930 . S
C958 C956 1.384 . S
C958 C959 1.372 . S
C959 C958 1.372 . S
C959 C960 1.400 . S
C959 C964 1.490 . S
C960 H950 0.930 . S
C960 C959 1.400 . S
C960 C963 1.386 . S
H961 C977 0.930 1_565 S
H962 C978 0.931 . S
C963 H951 0.929 . S
C963 C957 1.390 . S
C963 C960 1.386 . S
C964 C959 1.490 . S
C964 C966 1.395 . S
C964 C967 1.403 . S
H965 C971 0.930 . S
C966 H952 0.930 . S
C966 C964 1.395 . S
C966 C969 1.403 . S
C967 C964 1.403 . S
C967 C968 1.524 . S
C967 C971 1.400 . S
C968 H953 0.960 . S
C968 H954 0.960 . S
C968 H955 0.960 . S
C968 C967 1.524 . S
C969 C966 1.403 . S
C969 C970 1.392 . S
C969 C973 1.495 . S
C970 C969 1.392 . S
C970 C971 1.385 . S
C970 C972 1.478 . S
C971 H965 0.930 . S
C971 C967 1.400 . S
C971 C970 1.385 . S
C972 C970 1.478 . S
C972 C974 1.381 . S
C972 C978 1.383 . S
C973 C969 1.495 . S
C973 H979 0.959 . S
C973 H980 0.961 . S
C973 H981 0.960 . S
C974 C972 1.381 . S
C974 C975 1.394 . S
C974 H982 0.930 . S
C975 C974 1.394 . S
C975 C976 1.383 1_545 S
C975 H983 0.929 . S
C976 C975 1.383 1_565 S
C976 C977 1.377 1_565 S
C977 H961 0.930 1_545 S
C977 C976 1.377 1_545 S
C977 C978 1.379 . S
C978 H962 0.931 . S
C978 C972 1.383 . S
C978 C977 1.379 . S
H979 C973 0.959 . S
H980 C973 0.961 . S
H981 C973 0.960 . S
H982 C974 0.930 . S
H983 C975 0.929 . S
H984 C992 0.929 . S
H985 C994 0.930 . S
H986 C996 0.930 . S
H987 C999 0.929 . S
H988 C1002 0.930 . S
H989 C1004 0.960 . S
H990 C1004 0.960 . S
H991 C1004 0.960 . S
C992 H984 0.929 . S
C992 C993 1.377 . S
C992 C994 1.384 . S
C993 C992 1.377 . S
C993 C999 1.390 . S
C994 H985 0.930 . S
C994 C992 1.384 . S
C994 C995 1.372 . S
C995 C994 1.372 . S
C995 C996 1.400 . S
C995 C1000 1.490 . S
C996 H986 0.930 . S
C996 C995 1.400 . S
C996 C999 1.386 . S
H997 C1013 0.930 . S
H998 C1014 0.931 . S
C999 H987 0.929 . S
C999 C993 1.390 . S
C999 C996 1.386 . S
C1000 C995 1.490 . S
C1000 C1002 1.395 . S
C1000 C1003 1.403 . S
H1001 C1007 0.930 . S
C1002 H988 0.930 . S
C1002 C1000 1.395 . S
C1002 C1005 1.403 . S
C1003 C1000 1.403 . S
C1003 C1004 1.524 . S
C1003 C1007 1.400 . S
C1004 H989 0.960 . S
C1004 H990 0.960 . S
C1004 H991 0.960 . S
C1004 C1003 1.524 . S
C1005 C1002 1.403 . S
C1005 C1006 1.392 . S
C1005 C1009 1.495 . S
C1006 C1005 1.392 . S
C1006 C1007 1.385 . S
C1006 C1008 1.478 . S
C1007 H1001 0.930 . S
C1007 C1003 1.400 . S
C1007 C1006 1.385 . S
C1008 C1006 1.478 . S
C1008 C1010 1.381 . S
C1008 C1014 1.383 . S
C1009 C1005 1.495 . S
C1009 H1015 0.959 . S
C1009 H1016 0.961 . S
C1009 H1017 0.960 . S
C1010 C1008 1.381 . S
C1010 C1011 1.394 . S
C1010 H1018 0.930 . S
C1011 C1010 1.394 . S
C1011 C1012 1.383 . S
C1011 H1019 0.929 . S
C1012 C1011 1.383 . S
C1012 C1013 1.377 . S
C1013 H997 0.930 . S
C1013 C1012 1.377 . S
C1013 C1014 1.379 . S
C1014 H998 0.931 . S
C1014 C1008 1.383 . S
C1014 C1013 1.379 . S
H1015 C1009 0.959 . S
H1016 C1009 0.961 . S
H1017 C1009 0.960 . S
H1018 C1010 0.930 . S
H1019 C1011 0.929 . S
H1020 C1028 0.929 . S
H1021 C1030 0.930 . S
H1022 C1032 0.930 . S
H1023 C1035 0.929 . S
H1024 C1038 0.930 . S
H1025 C1040 0.960 . S
H1026 C1040 0.960 . S
H1027 C1040 0.960 . S
C1028 H1020 0.929 . S
C1028 C1029 1.377 1_545 S
C1028 C1030 1.384 . S
C1029 C1028 1.377 1_565 S
C1029 C1035 1.390 . S
C1030 H1021 0.930 . S
C1030 C1028 1.384 . S
C1030 C1031 1.372 1_545 S
C1031 C1030 1.372 1_565 S
C1031 C1032 1.400 . S
C1031 C1036 1.490 . S
C1032 H1022 0.930 . S
C1032 C1031 1.400 . S
C1032 C1035 1.386 . S
H1033 C1049 0.930 . S
H1034 C1050 0.931 . S
C1035 H1023 0.929 . S
C1035 C1029 1.390 . S
C1035 C1032 1.386 . S
C1036 C1031 1.490 . S
C1036 C1038 1.395 1_565 S
C1036 C1039 1.403 . S
H1037 C1043 0.930 . S
C1038 H1024 0.930 . S
C1038 C1036 1.395 1_545 S
C1038 C1041 1.403 . S
C1039 C1036 1.403 . S
C1039 C1040 1.524 . S
C1039 C1043 1.400 . S
C1040 H1025 0.960 . S
C1040 H1026 0.960 . S
C1040 H1027 0.960 . S
C1040 C1039 1.524 . S
C1041 C1038 1.403 . S
C1041 C1042 1.392 1_545 S
C1041 C1045 1.495 . S
C1042 C1041 1.392 1_565 S
C1042 C1043 1.385 . S
C1042 C1044 1.478 . S
C1043 H1037 0.930 . S
C1043 C1039 1.400 . S
C1043 C1042 1.385 . S
C1044 C1042 1.478 . S
C1044 C1046 1.381 1_565 S
C1044 C1050 1.383 . S
C1045 C1041 1.495 . S
C1045 H1051 0.959 . S
C1045 H1052 0.961 . S
C1045 H1053 0.960 . S
C1046 C1044 1.381 1_545 S
C1046 C1047 1.394 1_545 S
C1046 H1054 0.930 . S
C1047 C1046 1.394 1_565 S
C1047 C1048 1.383 . S
C1047 H1055 0.929 1_565 S
C1048 C1047 1.383 . S
C1048 C1049 1.377 . S
C1049 H1033 0.930 . S
C1049 C1048 1.377 . S
C1049 C1050 1.379 . S
C1050 H1034 0.931 . S
C1050 C1044 1.383 . S
C1050 C1049 1.379 . S
H1051 C1045 0.959 . S
H1052 C1045 0.961 . S
H1053 C1045 0.960 . S
H1054 C1046 0.930 . S
H1055 C1047 0.929 1_545 S
H1056 C1064 0.929 . S
H1057 C1066 0.930 . S
H1058 C1068 0.930 . S
H1059 C1071 0.929 . S
H1060 C1074 0.930 . S
H1061 C1076 0.960 . S
H1062 C1076 0.960 . S
H1063 C1076 0.960 . S
C1064 H1056 0.929 . S
C1064 C1065 1.377 . S
C1064 C1066 1.384 . S
C1065 C1064 1.377 . S
C1065 C1071 1.390 . S
C1066 H1057 0.930 . S
C1066 C1064 1.384 . S
C1066 C1067 1.372 . S
C1067 C1066 1.372 . S
C1067 C1068 1.400 . S
C1067 C1072 1.490 . S
C1068 H1058 0.930 . S
C1068 C1067 1.400 . S
C1068 C1071 1.386 . S
H1069 C1085 0.930 . S
H1070 C1086 0.931 . S
C1071 H1059 0.929 . S
C1071 C1065 1.390 . S
C1071 C1068 1.386 . S
C1072 C1067 1.490 . S
C1072 C1074 1.395 . S
C1072 C1075 1.403 . S
H1073 C1079 0.930 . S
C1074 H1060 0.930 . S
C1074 C1072 1.395 . S
C1074 C1077 1.403 . S
C1075 C1072 1.403 . S
C1075 C1076 1.524 . S
C1075 C1079 1.400 . S
C1076 H1061 0.960 . S
C1076 H1062 0.960 . S
C1076 H1063 0.960 . S
C1076 C1075 1.524 . S
C1077 C1074 1.403 . S
C1077 C1078 1.392 . S
C1077 C1081 1.495 . S
C1078 C1077 1.392 . S
C1078 C1079 1.385 . S
C1078 C1080 1.478 . S
C1079 H1073 0.930 . S
C1079 C1075 1.400 . S
C1079 C1078 1.385 . S
C1080 C1078 1.478 . S
C1080 C1082 1.381 . S
C1080 C1086 1.383 . S
C1081 C1077 1.495 . S
C1081 H1087 0.959 . S
C1081 H1088 0.961 . S
C1081 H1089 0.960 . S
C1082 C1080 1.381 . S
C1082 C1083 1.394 . S
C1082 H1090 0.930 . S
C1083 C1082 1.394 . S
C1083 C1084 1.383 . S
C1083 H1091 0.929 . S
C1084 C1083 1.383 . S
C1084 C1085 1.377 . S
C1085 H1069 0.930 . S
C1085 C1084 1.377 . S
C1085 C1086 1.379 . S
C1086 H1070 0.931 . S
C1086 C1080 1.383 . S
C1086 C1085 1.379 . S
H1087 C1081 0.959 . S
H1088 C1081 0.961 . S
H1089 C1081 0.960 . S
H1090 C1082 0.930 . S
H1091 C1083 0.929 . S
H1092 C1100 0.929 . S
H1093 C1102 0.930 . S
H1094 C1104 0.930 . S
H1095 C1107 0.929 . S
H1096 C1110 0.930 . S
H1097 C1112 0.960 . S
H1098 C1112 0.962 1_545 S
H1099 C1112 0.960 . S
C1100 H1092 0.929 . S
C1100 C1101 1.377 . S
C1100 C1102 1.384 . S
C1101 C1100 1.377 . S
C1101 C1107 1.390 1_545 S
C1102 H1093 0.930 . S
C1102 C1100 1.384 . S
C1102 C1103 1.372 . S
C1103 C1102 1.372 . S
C1103 C1104 1.400 1_545 S
C1103 C1108 1.490 . S
C1104 H1094 0.930 . S
C1104 C1103 1.400 1_565 S
C1104 C1107 1.386 . S
H1105 C1121 0.930 1_565 S
H1106 C1122 0.931 1_565 S
C1107 H1095 0.929 . S
C1107 C1101 1.390 1_565 S
C1107 C1104 1.386 . S
C1108 C1103 1.490 . S
C1108 C1110 1.395 . S
C1108 C1111 1.403 . S
H1109 C1115 0.941 . S
C1110 H1096 0.930 . S
C1110 C1108 1.395 . S
C1110 C1113 1.403 . S
C1111 C1108 1.403 . S
C1111 C1112 1.524 1_545 S
C1111 C1115 1.400 . S
C1112 H1097 0.960 . S
C1112 H1098 0.962 1_565 S
C1112 H1099 0.960 . S
C1112 C1111 1.524 1_565 S
C1113 C1110 1.403 . S
C1113 C1114 1.392 . S
C1113 C1117 1.495 . S
C1114 C1113 1.392 . S
C1114 C1115 1.385 . S
C1114 C1116 1.478 . S
C1115 H1109 0.941 . S
C1115 C1111 1.400 . S
C1115 C1114 1.385 . S
C1116 C1114 1.478 . S
C1116 C1118 1.381 . S
C1116 C1122 1.383 . S
C1117 C1113 1.495 . S
C1117 H1123 0.959 . S
C1117 H1124 0.961 . S
C1117 H1125 0.960 . S
C1118 C1116 1.381 . S
C1118 C1119 1.394 . S
C1118 H1126 0.930 . S
C1119 C1118 1.394 . S
C1119 C1120 1.383 . S
C1119 H1127 0.929 . S
C1120 C1119 1.383 . S
C1120 C1121 1.377 . S
C1121 H1105 0.930 1_545 S
C1121 C1120 1.377 . S
C1121 C1122 1.379 . S
C1122 H1106 0.931 1_545 S
C1122 C1116 1.383 . S
C1122 C1121 1.379 . S
H1123 C1117 0.959 . S
H1124 C1117 0.961 . S
H1125 C1117 0.960 . S
H1126 C1118 0.930 . S
H1127 C1119 0.929 . S
H1128 C1136 0.929 . S
H1129 C1138 0.930 . S
H1130 C1140 0.930 . S
H1131 C1143 0.929 . S
H1132 C1146 0.930 . S
H1133 C1148 0.960 . S
H1134 C1148 0.960 . S
H1135 C1148 0.960 . S
C1136 H1128 0.929 . S
C1136 C1137 1.377 . S
C1136 C1138 1.384 . S
C1137 C1136 1.377 . S
C1137 C1143 1.390 . S
C1138 H1129 0.930 . S
C1138 C1136 1.384 . S
C1138 C1139 1.372 . S
C1139 C1138 1.372 . S
C1139 C1140 1.400 . S
C1139 C1144 1.490 . S
C1140 H1130 0.930 . S
C1140 C1139 1.400 . S
C1140 C1143 1.386 . S
H1141 C1157 0.930 . S
H1142 C1158 0.931 . S
C1143 H1131 0.929 . S
C1143 C1137 1.390 . S
C1143 C1140 1.386 . S
C1144 C1139 1.490 . S
C1144 C1146 1.395 . S
C1144 C1147 1.403 . S
H1145 C1151 0.930 . S
C1146 H1132 0.930 . S
C1146 C1144 1.395 . S
C1146 C1149 1.403 . S
C1147 C1144 1.403 . S
C1147 C1148 1.524 . S
C1147 C1151 1.400 . S
C1148 H1133 0.960 . S
C1148 H1134 0.960 . S
C1148 H1135 0.960 . S
C1148 C1147 1.524 . S
C1149 C1146 1.403 . S
C1149 C1150 1.392 . S
C1149 C1153 1.495 . S
C1150 C1149 1.392 . S
C1150 C1151 1.385 . S
C1150 C1152 1.478 . S
C1151 H1145 0.930 . S
C1151 C1147 1.400 . S
C1151 C1150 1.385 . S
C1152 C1150 1.478 . S
C1152 C1154 1.381 . S
C1152 C1158 1.383 . S
C1153 C1149 1.495 . S
C1153 H1159 0.959 . S
C1153 H1160 0.961 . S
C1153 H1161 0.960 . S
C1154 C1152 1.381 . S
C1154 C1155 1.394 . S
C1154 H1162 0.930 . S
C1155 C1154 1.394 . S
C1155 C1156 1.383 . S
C1155 H1163 0.929 . S
C1156 C1155 1.383 . S
C1156 C1157 1.377 . S
C1157 H1141 0.930 . S
C1157 C1156 1.377 . S
C1157 C1158 1.379 . S
C1158 H1142 0.931 . S
C1158 C1152 1.383 . S
C1158 C1157 1.379 . S
H1159 C1153 0.959 . S
H1160 C1153 0.961 . S
H1161 C1153 0.960 . S
H1162 C1154 0.930 . S
H1163 C1155 0.929 . S
H1164 C1172 0.929 . S
H1165 C1174 0.930 . S
H1166 C1176 0.930 . S
H1167 C1179 0.929 . S
H1168 C1182 0.930 . S
H1169 C1184 0.960 . S
H1170 C1184 0.960 . S
H1171 C1184 0.960 . S
C1172 H1164 0.929 . S
C1172 C1173 1.377 . S
C1172 C1174 1.384 . S
C1173 C1172 1.377 . S
C1173 C1179 1.390 1_554 S
C1174 H1165 0.930 . S
C1174 C1172 1.384 . S
C1174 C1175 1.372 1_554 S
C1175 C1174 1.372 1_556 S
C1175 C1176 1.400 . S
C1175 C1180 1.490 . S
C1176 H1166 0.930 . S
C1176 C1175 1.400 . S
C1176 C1179 1.386 . S
H1177 C1193 0.930 . S
H1178 C1194 0.931 . S
C1179 H1167 0.929 . S
C1179 C1173 1.390 1_556 S
C1179 C1176 1.386 . S
C1180 C1175 1.490 . S
C1180 C1182 1.395 1_556 S
C1180 C1183 1.403 . S
H1181 C1187 0.930 . S
C1182 H1168 0.930 . S
C1182 C1180 1.395 1_554 S
C1182 C1185 1.403 . S
C1183 C1180 1.403 . S
C1183 C1184 1.524 . S
C1183 C1187 1.400 . S
C1184 H1169 0.960 . S
C1184 H1170 0.960 . S
C1184 H1171 0.960 . S
C1184 C1183 1.524 . S
C1185 C1182 1.403 . S
C1185 C1186 1.392 1_554 S
C1185 C1189 1.495 . S
C1186 C1185 1.392 1_556 S
C1186 C1187 1.385 . S
C1186 C1188 1.478 . S
C1187 H1181 0.930 . S
C1187 C1183 1.400 . S
C1187 C1186 1.385 . S
C1188 C1186 1.478 . S
C1188 C1190 1.381 . S
C1188 C1194 1.383 . S
C1189 C1185 1.495 . S
C1189 H1195 0.959 . S
C1189 H1196 0.961 . S
C1189 H1197 0.960 . S
C1190 C1188 1.381 . S
C1190 C1191 1.394 . S
C1190 H1198 0.930 . S
C1191 C1190 1.394 . S
C1191 C1192 1.383 . S
C1191 H1199 0.929 . S
C1192 C1191 1.383 . S
C1192 C1193 1.377 . S
C1193 H1177 0.930 . S
C1193 C1192 1.377 . S
C1193 C1194 1.379 . S
C1194 H1178 0.931 . S
C1194 C1188 1.383 . S
C1194 C1193 1.379 . S
H1195 C1189 0.959 . S
H1196 C1189 0.961 . S
H1197 C1189 0.960 . S
H1198 C1190 0.930 . S
H1199 C1191 0.929 . S
H1200 C1208 0.929 . S
H1201 C1210 0.930 . S
H1202 C1212 0.930 . S
H1203 C1215 0.929 . S
H1204 C1218 0.930 1_554 S
H1205 C1220 0.960 . S
H1206 C1220 0.960 . S
H1207 C1220 0.960 . S
C1208 H1200 0.929 . S
C1208 C1209 1.377 1_556 S
C1208 C1210 1.384 . S
C1209 C1208 1.377 1_554 S
C1209 C1215 1.390 . S
C1210 H1201 0.930 . S
C1210 C1208 1.384 . S
C1210 C1211 1.372 . S
C1211 C1210 1.372 . S
C1211 C1212 1.400 1_556 S
C1211 C1216 1.490 . S
C1212 H1202 0.930 . S
C1212 C1211 1.400 1_554 S
C1212 C1215 1.386 . S
H1213 C1229 0.942 . S
H1214 C1230 0.931 1_554 S
C1215 H1203 0.929 . S
C1215 C1209 1.390 . S
C1215 C1212 1.386 . S
C1216 C1211 1.490 . S
C1216 C1218 1.395 . S
C1216 C1219 1.403 . S
H1217 C1223 0.930 . S
C1218 H1204 0.930 1_556 S
C1218 C1216 1.395 . S
C1218 C1221 1.403 . S
C1219 C1216 1.403 . S
C1219 C1220 1.524 . S
C1219 C1223 1.400 . S
C1220 H1205 0.960 . S
C1220 H1206 0.960 . S
C1220 H1207 0.960 . S
C1220 C1219 1.524 . S
C1221 C1218 1.403 . S
C1221 C1222 1.392 . S
C1221 C1225 1.484 1_556 S
C1222 C1221 1.392 . S
C1222 C1223 1.385 . S
C1222 C1224 1.478 . S
C1223 H1217 0.930 . S
C1223 C1219 1.400 . S
C1223 C1222 1.385 . S
C1224 C1222 1.478 . S
C1224 C1226 1.381 . S
C1224 C1230 1.383 . S
C1225 C1221 1.484 1_554 S
C1225 H1231 0.975 . S
C1225 H1232 0.999 . S
C1225 H1233 0.920 1_554 S
C1226 C1224 1.381 . S
C1226 C1227 1.394 . S
C1226 H1234 0.930 . S
C1227 C1226 1.394 . S
C1227 C1228 1.383 . S
C1227 H1235 0.929 . S
C1228 C1227 1.383 . S
C1228 C1229 1.377 . S
C1229 H1213 0.942 . S
C1229 C1228 1.377 . S
C1229 C1230 1.379 . S
C1230 H1214 0.931 1_556 S
C1230 C1224 1.383 . S
C1230 C1229 1.379 . S
H1231 C1225 0.975 . S
H1232 C1225 0.999 . S
H1233 C1225 0.920 1_556 S
H1234 C1226 0.930 . S
H1235 C1227 0.929 . S
H1236 C1244 0.929 . S
H1237 C1246 0.930 . S
H1238 C1248 0.930 1_556 S
H1239 C1251 0.929 1_556 S
H1240 C1254 0.930 . S
H1241 C1256 0.960 . S
H1242 C1256 0.960 . S
H1243 C1256 0.960 . S
C1244 H1236 0.929 . S
C1244 C1245 1.377 . S
C1244 C1246 1.384 . S
C1245 C1244 1.377 . S
C1245 C1251 1.390 . S
C1246 H1237 0.930 . S
C1246 C1244 1.384 . S
C1246 C1247 1.372 . S
C1247 C1246 1.372 . S
C1247 C1248 1.400 . S
C1247 C1252 1.490 . S
C1248 H1238 0.930 1_554 S
C1248 C1247 1.400 . S
C1248 C1251 1.386 . S
H1249 C1265 0.930 1_556 S
H1250 C1266 0.931 1_556 S
C1251 H1239 0.929 1_554 S
C1251 C1245 1.390 . S
C1251 C1248 1.386 . S
C1252 C1247 1.490 . S
C1252 C1254 1.395 . S
C1252 C1255 1.403 . S
H1253 C1259 0.930 . S
C1254 H1240 0.930 . S
C1254 C1252 1.395 . S
C1254 C1257 1.403 . S
C1255 C1252 1.403 . S
C1255 C1256 1.524 . S
C1255 C1259 1.400 . S
C1256 H1241 0.960 . S
C1256 H1242 0.960 . S
C1256 H1243 0.960 . S
C1256 C1255 1.524 . S
C1257 C1254 1.403 . S
C1257 C1258 1.392 . S
C1257 C1261 1.495 . S
C1258 C1257 1.392 . S
C1258 C1259 1.385 . S
C1258 C1260 1.478 . S
C1259 H1253 0.930 . S
C1259 C1255 1.400 . S
C1259 C1258 1.385 . S
C1260 C1258 1.478 . S
C1260 C1262 1.381 . S
C1260 C1266 1.383 . S
C1261 C1257 1.495 . S
C1261 H1267 0.959 . S
C1261 H1268 0.961 . S
C1261 H1269 0.960 . S
C1262 C1260 1.381 . S
C1262 C1263 1.394 . S
C1262 H1270 0.930 . S
C1263 C1262 1.394 . S
C1263 C1264 1.383 . S
C1263 H1271 0.929 . S
C1264 C1263 1.383 . S
C1264 C1265 1.377 . S
C1265 H1249 0.930 1_554 S
C1265 C1264 1.377 . S
C1265 C1266 1.379 . S
C1266 H1250 0.931 1_554 S
C1266 C1260 1.383 . S
C1266 C1265 1.379 . S
H1267 C1261 0.959 . S
H1268 C1261 0.961 . S
H1269 C1261 0.960 . S
H1270 C1262 0.930 . S
H1271 C1263 0.929 . S
H1272 C1280 0.929 . S
H1273 C1282 0.930 . S
H1274 C1284 0.930 . S
H1275 C1287 0.929 . S
H1276 C1290 0.930 . S
H1277 C1292 0.960 . S
H1278 C1292 0.960 . S
H1279 C1292 0.960 . S
C1280 H1272 0.929 . S
C1280 C1281 1.377 . S
C1280 C1282 1.384 . S
C1281 C1280 1.377 . S
C1281 C1287 1.390 . S
C1282 H1273 0.930 . S
C1282 C1280 1.384 . S
C1282 C1283 1.372 . S
C1283 C1282 1.372 . S
C1283 C1284 1.400 . S
C1283 C1288 1.490 . S
C1284 H1274 0.930 . S
C1284 C1283 1.400 . S
C1284 C1287 1.386 . S
H1285 C1301 0.930 . S
H1286 C1302 0.931 . S
C1287 H1275 0.929 . S
C1287 C1281 1.390 . S
C1287 C1284 1.386 . S
C1288 C1283 1.490 . S
C1288 C1290 1.395 . S
C1288 C1291 1.403 . S
H1289 C1295 0.930 1_655 S
C1290 H1276 0.930 . S
C1290 C1288 1.395 . S
C1290 C1293 1.403 . S
C1291 C1288 1.403 . S
C1291 C1292 1.524 1_455 S
C1291 C1295 1.400 . S
C1292 H1277 0.960 . S
C1292 H1278 0.960 . S
C1292 H1279 0.960 . S
C1292 C1291 1.524 1_655 S
C1293 C1290 1.403 . S
C1293 C1294 1.392 . S
C1293 C1297 1.495 . S
C1294 C1293 1.392 . S
C1294 C1295 1.385 . S
C1294 C1296 1.478 . S
C1295 H1289 0.930 1_455 S
C1295 C1291 1.400 . S
C1295 C1294 1.385 . S
C1296 C1294 1.478 . S
C1296 C1298 1.381 . S
C1296 C1302 1.383 . S
C1297 C1293 1.495 . S
C1297 H1303 0.959 . S
C1297 H1304 0.961 . S
C1297 H1305 0.960 . S
C1298 C1296 1.381 . S
C1298 C1299 1.394 . S
C1298 H1306 0.930 . S
C1299 C1298 1.394 . S
C1299 C1300 1.383 . S
C1299 H1307 0.929 . S
C1300 C1299 1.383 . S
C1300 C1301 1.377 . S
C1301 H1285 0.930 . S
C1301 C1300 1.377 . S
C1301 C1302 1.379 . S
C1302 H1286 0.931 . S
C1302 C1296 1.383 . S
C1302 C1301 1.379 . S
H1303 C1297 0.959 . S
H1304 C1297 0.961 . S
H1305 C1297 0.960 . S
H1306 C1298 0.930 . S
H1307 C1299 0.929 . S
H1308 C1316 0.929 . S
H1309 C1318 0.930 . S
H1310 C1320 0.930 . S
H1311 C1323 0.929 . S
H1312 C1326 0.930 . S
H1313 C1328 0.960 . S
H1314 C1328 0.960 . S
H1315 C1328 0.960 . S
C1316 H1308 0.929 . S
C1316 C1317 1.377 . S
C1316 C1318 1.384 . S
C1317 C1316 1.377 . S
C1317 C1323 1.390 . S
C1318 H1309 0.930 . S
C1318 C1316 1.384 . S
C1318 C1319 1.372 . S
C1319 C1318 1.372 . S
C1319 C1320 1.400 . S
C1319 C1324 1.490 . S
C1320 H1310 0.930 . S
C1320 C1319 1.400 . S
C1320 C1323 1.386 . S
H1321 C1337 0.930 . S
H1322 C1338 0.931 . S
C1323 H1311 0.929 . S
C1323 C1317 1.390 . S
C1323 C1320 1.386 . S
C1324 C1319 1.490 . S
C1324 C1326 1.395 1_455 S
C1324 C1327 1.403 . S
H1325 C1331 0.930 . S
C1326 H1312 0.930 . S
C1326 C1324 1.395 1_655 S
C1326 C1329 1.403 . S
C1327 C1324 1.403 . S
C1327 C1328 1.524 . S
C1327 C1331 1.400 . S
C1328 H1313 0.960 . S
C1328 H1314 0.960 . S
C1328 H1315 0.960 . S
C1328 C1327 1.524 . S
C1329 C1326 1.403 . S
C1329 C1330 1.392 . S
C1329 C1333 1.495 . S
C1330 C1329 1.392 . S
C1330 C1331 1.385 1_655 S
C1330 C1332 1.478 . S
C1331 H1325 0.930 . S
C1331 C1327 1.400 . S
C1331 C1330 1.385 1_455 S
C1332 C1330 1.478 . S
C1332 C1334 1.381 . S
C1332 C1338 1.383 . S
C1333 C1329 1.495 . S
C1333 H1339 0.959 . S
C1333 H1340 0.961 . S
C1333 H1341 0.960 . S
C1334 C1332 1.381 . S
C1334 C1335 1.394 . S
C1334 H1342 0.930 . S
C1335 C1334 1.394 . S
C1335 C1336 1.383 . S
C1335 H1343 0.929 . S
C1336 C1335 1.383 . S
C1336 C1337 1.377 . S
C1337 H1321 0.930 . S
C1337 C1336 1.377 . S
C1337 C1338 1.379 . S
C1338 H1322 0.931 . S
C1338 C1332 1.383 . S
C1338 C1337 1.379 . S
H1339 C1333 0.959 . S
H1340 C1333 0.961 . S
H1341 C1333 0.960 . S
H1342 C1334 0.930 . S
H1343 C1335 0.929 . S
H1344 C1352 0.929 . S
H1345 C1354 0.930 . S
H1346 C1356 0.930 1_655 S
H1347 C1359 0.929 1_655 S
H1348 C1362 0.930 . S
H1349 C1364 0.960 . S
H1350 C1364 0.960 . S
H1351 C1364 0.960 . S
C1352 H1344 0.929 . S
C1352 C1353 1.377 . S
C1352 C1354 1.384 . S
C1353 C1352 1.377 . S
C1353 C1359 1.390 . S
C1354 H1345 0.930 . S
C1354 C1352 1.384 . S
C1354 C1355 1.372 . S
C1355 C1354 1.372 . S
C1355 C1356 1.400 . S
C1355 C1360 1.490 . S
C1356 H1346 0.930 1_455 S
C1356 C1355 1.400 . S
C1356 C1359 1.386 . S
H1357 C1373 0.930 1_655 S
H1358 C1374 0.931 1_655 S
C1359 H1347 0.929 1_455 S
C1359 C1353 1.390 . S
C1359 C1356 1.386 . S
C1360 C1355 1.490 . S
C1360 C1362 1.395 . S
C1360 C1363 1.403 . S
H1361 C1367 0.930 . S
C1362 H1348 0.930 . S
C1362 C1360 1.395 . S
C1362 C1365 1.403 . S
C1363 C1360 1.403 . S
C1363 C1364 1.524 . S
C1363 C1367 1.400 . S
C1364 H1349 0.960 . S
C1364 H1350 0.960 . S
C1364 H1351 0.960 . S
C1364 C1363 1.524 . S
C1365 C1362 1.403 . S
C1365 C1366 1.392 . S
C1365 C1369 1.495 . S
C1366 C1365 1.392 . S
C1366 C1367 1.385 . S
C1366 C1368 1.478 . S
C1367 H1361 0.930 . S
C1367 C1363 1.400 . S
C1367 C1366 1.385 . S
C1368 C1366 1.478 . S
C1368 C1370 1.381 . S
C1368 C1374 1.383 . S
C1369 C1365 1.495 . S
C1369 H1375 0.959 . S
C1369 H1376 0.961 1_455 S
C1369 H1377 0.960 . S
C1370 C1368 1.381 . S
C1370 C1371 1.394 . S
C1370 H1378 0.930 . S
C1371 C1370 1.394 . S
C1371 C1372 1.383 . S
C1371 H1379 0.929 . S
C1372 C1371 1.383 . S
C1372 C1373 1.377 . S
C1373 H1357 0.930 1_455 S
C1373 C1372 1.377 . S
C1373 C1374 1.379 . S
C1374 H1358 0.931 1_455 S
C1374 C1368 1.383 . S
C1374 C1373 1.379 . S
H1375 C1369 0.959 . S
H1376 C1369 0.961 1_655 S
H1377 C1369 0.960 . S
H1378 C1370 0.930 . S
H1379 C1371 0.929 . S
H1380 C1388 0.929 . S
H1381 C1390 0.930 . S
H1382 C1392 0.930 . S
H1383 C1395 0.929 . S
H1384 C1398 0.930 . S
H1385 C1400 0.960 . S
H1386 C1400 0.960 . S
H1387 C1400 0.960 1_455 S
C1388 H1380 0.929 . S
C1388 C1389 1.377 1_655 S
C1388 C1390 1.384 . S
C1389 C1388 1.377 1_455 S
C1389 C1395 1.390 . S
C1390 H1381 0.930 . S
C1390 C1388 1.384 . S
C1390 C1391 1.372 . S
C1391 C1390 1.372 . S
C1391 C1392 1.400 1_655 S
C1391 C1396 1.490 . S
C1392 H1382 0.930 . S
C1392 C1391 1.400 1_455 S
C1392 C1395 1.386 . S
H1393 C1409 0.930 1_455 S
H1394 C1410 0.931 . S
C1395 H1383 0.929 . S
C1395 C1389 1.390 . S
C1395 C1392 1.386 . S
C1396 C1391 1.490 . S
C1396 C1398 1.395 . S
C1396 C1399 1.403 . S
H1397 C1403 0.930 . S
C1398 H1384 0.930 . S
C1398 C1396 1.395 . S
C1398 C1401 1.403 . S
C1399 C1396 1.403 . S
C1399 C1400 1.524 . S
C1399 C1403 1.400 . S
C1400 H1385 0.960 . S
C1400 H1386 0.960 . S
C1400 H1387 0.960 1_655 S
C1400 C1399 1.524 . S
C1401 C1398 1.403 . S
C1401 C1402 1.392 . S
C1401 C1405 1.495 . S
C1402 C1401 1.392 . S
C1402 C1403 1.385 . S
C1402 C1404 1.478 . S
C1403 H1397 0.930 . S
C1403 C1399 1.400 . S
C1403 C1402 1.385 . S
C1404 C1402 1.478 . S
C1404 C1406 1.381 . S
C1404 C1410 1.383 1_655 S
C1405 C1401 1.495 . S
C1405 H1411 0.959 . S
C1405 H1412 0.961 . S
C1405 H1413 0.960 . S
C1406 C1404 1.381 . S
C1406 C1407 1.394 . S
C1406 H1414 0.930 . S
C1407 C1406 1.394 . S
C1407 C1408 1.383 . S
C1407 H1415 0.929 . S
C1408 C1407 1.383 . S
C1408 C1409 1.377 . S
C1409 H1393 0.930 1_655 S
C1409 C1408 1.377 . S
C1409 C1410 1.379 1_655 S
C1410 H1394 0.931 . S
C1410 C1404 1.383 1_455 S
C1410 C1409 1.379 1_455 S
H1411 C1405 0.959 . S
H1412 C1405 0.961 . S
H1413 C1405 0.960 . S
H1414 C1406 0.930 . S
H1415 C1407 0.929 . S
H1416 C1424 0.929 . S
H1417 C1426 0.930 . S
H1418 C1428 0.930 . S
H1419 C1431 0.929 . S
H1420 C1434 0.930 . S
H1421 C1436 0.960 . S
H1422 C1436 0.960 . S
H1423 C1436 0.960 . S
C1424 H1416 0.929 . S
C1424 C1425 1.377 1_565 S
C1424 C1426 1.384 . S
C1425 C1424 1.377 1_545 S
C1425 C1431 1.390 . S
C1426 H1417 0.930 . S
C1426 C1424 1.384 . S
C1426 C1427 1.372 1_565 S
C1427 C1426 1.372 1_545 S
C1427 C1428 1.400 . S
C1427 C1432 1.490 . S
C1428 H1418 0.930 . S
C1428 C1427 1.400 . S
C1428 C1431 1.386 . S
H1429 C1445 0.930 . S
H1430 C1446 0.931 . S
C1431 H1419 0.929 . S
C1431 C1425 1.390 . S
C1431 C1428 1.386 . S
C1432 C1427 1.490 . S
C1432 C1434 1.395 . S
C1432 C1435 1.403 . S
H1433 C1439 0.930 . S
C1434 H1420 0.930 . S
C1434 C1432 1.395 . S
C1434 C1437 1.403 . S
C1435 C1432 1.403 . S
C1435 C1436 1.524 . S
C1435 C1439 1.400 . S
C1436 H1421 0.960 . S
C1436 H1422 0.960 . S
C1436 H1423 0.960 . S
C1436 C1435 1.524 . S
C1437 C1434 1.403 . S
C1437 C1438 1.392 . S
C1437 C1441 1.495 . S
C1438 C1437 1.392 . S
C1438 C1439 1.385 . S
C1438 C1440 1.478 . S
C1439 H1433 0.930 . S
C1439 C1435 1.400 . S
C1439 C1438 1.385 . S
C1440 C1438 1.478 . S
C1440 C1442 1.381 . S
C1440 C1446 1.383 . S
C1441 C1437 1.495 . S
C1441 H1447 0.959 1_545 S
C1441 H1448 0.961 . S
C1441 H1449 0.960 1_545 S
C1442 C1440 1.381 . S
C1442 C1443 1.394 . S
C1442 H1450 0.930 1_545 S
C1443 C1442 1.394 . S
C1443 C1444 1.383 . S
C1443 H1451 0.929 1_545 S
C1444 C1443 1.383 . S
C1444 C1445 1.377 . S
C1445 H1429 0.930 . S
C1445 C1444 1.377 . S
C1445 C1446 1.379 . S
C1446 H1430 0.931 . S
C1446 C1440 1.383 . S
C1446 C1445 1.379 . S
H1447 C1441 0.959 1_565 S
H1448 C1441 0.961 . S
H1449 C1441 0.960 1_565 S
H1450 C1442 0.930 1_565 S
H1451 C1443 0.929 1_565 S
H1452 C1460 0.929 . S
H1453 C1462 0.930 . S
H1454 C1464 0.930 . S
H1455 C1467 0.929 . S
H1456 C1470 0.930 . S
H1457 C1472 0.960 . S
H1458 C1472 0.960 . S
H1459 C1472 0.960 . S
C1460 H1452 0.929 . S
C1460 C1461 1.377 . S
C1460 C1462 1.384 . S
C1461 C1460 1.377 . S
C1461 C1467 1.390 . S
C1462 H1453 0.930 . S
C1462 C1460 1.384 . S
C1462 C1463 1.372 . S
C1463 C1462 1.372 . S
C1463 C1464 1.400 . S
C1463 C1468 1.490 . S
C1464 H1454 0.930 . S
C1464 C1463 1.400 . S
C1464 C1467 1.386 . S
H1465 C1481 0.930 . S
H1466 C1482 0.931 . S
C1467 H1455 0.929 . S
C1467 C1461 1.390 . S
C1467 C1464 1.386 . S
C1468 C1463 1.490 . S
C1468 C1470 1.395 . S
C1468 C1471 1.403 . S
H1469 C1475 0.930 . S
C1470 H1456 0.930 . S
C1470 C1468 1.395 . S
C1470 C1473 1.403 . S
C1471 C1468 1.403 . S
C1471 C1472 1.524 . S
C1471 C1475 1.400 . S
C1472 H1457 0.960 . S
C1472 H1458 0.960 . S
C1472 H1459 0.960 . S
C1472 C1471 1.524 . S
C1473 C1470 1.403 . S
C1473 C1474 1.392 . S
C1473 C1477 1.495 . S
C1474 C1473 1.392 . S
C1474 C1475 1.385 . S
C1474 C1476 1.478 . S
C1475 H1469 0.930 . S
C1475 C1471 1.400 . S
C1475 C1474 1.385 . S
C1476 C1474 1.478 . S
C1476 C1478 1.381 . S
C1476 C1482 1.383 . S
C1477 C1473 1.495 . S
C1477 H1483 0.959 . S
C1477 H1484 0.961 . S
C1477 H1485 0.960 . S
C1478 C1476 1.381 . S
C1478 C1479 1.394 . S
C1478 H1486 0.930 . S
C1479 C1478 1.394 . S
C1479 C1480 1.383 . S
C1479 H1487 0.929 . S
C1480 C1479 1.383 . S
C1480 C1481 1.377 . S
C1481 H1465 0.930 . S
C1481 C1480 1.377 . S
C1481 C1482 1.379 . S
C1482 H1466 0.931 . S
C1482 C1476 1.383 . S
C1482 C1481 1.379 . S
H1483 C1477 0.959 . S
H1484 C1477 0.961 . S
H1485 C1477 0.960 . S
H1486 C1478 0.930 . S
H1487 C1479 0.929 . S
H1488 C1496 0.929 . S
H1489 C1498 0.930 . S
H1490 C1500 0.930 . S
H1491 C1503 0.929 . S
H1492 C1506 0.930 . S
H1493 C1508 0.960 . S
H1494 C1508 0.960 1_565 S
H1495 C1508 0.960 . S
C1496 H1488 0.929 . S
C1496 C1497 1.377 . S
C1496 C1498 1.384 . S
C1497 C1496 1.377 . S
C1497 C1503 1.390 1_565 S
C1498 H1489 0.930 . S
C1498 C1496 1.384 . S
C1498 C1499 1.372 . S
C1499 C1498 1.372 . S
C1499 C1500 1.400 1_565 S
C1499 C1504 1.490 . S
C1500 H1490 0.930 . S
C1500 C1499 1.400 1_545 S
C1500 C1503 1.386 . S
H1501 C1517 0.930 . S
H1502 C1518 0.931 . S
C1503 H1491 0.929 . S
C1503 C1497 1.390 1_545 S
C1503 C1500 1.386 . S
C1504 C1499 1.490 . S
C1504 C1506 1.395 . S
C1504 C1507 1.403 . S
H1505 C1511 0.930 . S
C1506 H1492 0.930 . S
C1506 C1504 1.395 . S
C1506 C1509 1.403 . S
C1507 C1504 1.403 . S
C1507 C1508 1.524 1_565 S
C1507 C1511 1.400 . S
C1508 H1493 0.960 . S
C1508 H1494 0.960 1_545 S
C1508 H1495 0.960 . S
C1508 C1507 1.524 1_545 S
C1509 C1506 1.403 . S
C1509 C1510 1.392 . S
C1509 C1513 1.495 . S
C1510 C1509 1.392 . S
C1510 C1511 1.385 . S
C1510 C1512 1.478 . S
C1511 H1505 0.930 . S
C1511 C1507 1.400 . S
C1511 C1510 1.385 . S
C1512 C1510 1.478 . S
C1512 C1514 1.381 . S
C1512 C1518 1.383 . S
C1513 C1509 1.495 . S
C1513 H1519 0.959 . S
C1513 H1520 0.961 . S
C1513 H1521 0.960 . S
C1514 C1512 1.381 . S
C1514 C1515 1.394 . S
C1514 H1522 0.930 . S
C1515 C1514 1.394 . S
C1515 C1516 1.383 . S
C1515 H1523 0.929 . S
C1516 C1515 1.383 . S
C1516 C1517 1.377 . S
C1517 H1501 0.930 . S
C1517 C1516 1.377 . S
C1517 C1518 1.379 . S
C1518 H1502 0.931 . S
C1518 C1512 1.383 . S
C1518 C1517 1.379 . S
H1519 C1513 0.959 . S
H1520 C1513 0.961 . S
H1521 C1513 0.960 . S
H1522 C1514 0.930 . S
H1523 C1515 0.929 . S
H1524 C1532 0.929 . S
H1525 C1534 0.930 . S
H1526 C1536 0.930 . S
H1527 C1539 0.929 . S
H1528 C1542 0.930 . S
H1529 C1544 0.960 . S
H1530 C1544 0.960 . S
H1531 C1544 0.960 . S
C1532 H1524 0.929 . S
C1532 C1533 1.377 . S
C1532 C1534 1.384 . S
C1533 C1532 1.377 . S
C1533 C1539 1.390 . S
C1534 H1525 0.930 . S
C1534 C1532 1.384 . S
C1534 C1535 1.372 . S
C1535 C1534 1.372 . S
C1535 C1536 1.400 . S
C1535 C1540 1.490 . S
C1536 H1526 0.930 . S
C1536 C1535 1.400 . S
C1536 C1539 1.386 . S
H1537 C1553 0.930 . S
H1538 C1554 0.931 . S
C1539 H1527 0.929 . S
C1539 C1533 1.390 . S
C1539 C1536 1.386 . S
C1540 C1535 1.490 . S
C1540 C1542 1.395 . S
C1540 C1543 1.403 . S
H1541 C1547 0.930 . S
C1542 H1528 0.930 . S
C1542 C1540 1.395 . S
C1542 C1545 1.403 . S
C1543 C1540 1.403 . S
C1543 C1544 1.524 . S
C1543 C1547 1.400 . S
C1544 H1529 0.960 . S
C1544 H1530 0.960 . S
C1544 H1531 0.960 . S
C1544 C1543 1.524 . S
C1545 C1542 1.403 . S
C1545 C1546 1.392 . S
C1545 C1549 1.495 . S
C1546 C1545 1.392 . S
C1546 C1547 1.385 . S
C1546 C1548 1.478 . S
C1547 H1541 0.930 . S
C1547 C1543 1.400 . S
C1547 C1546 1.385 . S
C1548 C1546 1.478 . S
C1548 C1550 1.381 . S
C1548 C1554 1.383 . S
C1549 C1545 1.495 . S
C1549 H1555 0.959 . S
C1549 H1556 0.961 . S
C1549 H1557 0.960 . S
C1550 C1548 1.381 . S
C1550 C1551 1.394 . S
C1550 H1558 0.930 . S
C1551 C1550 1.394 . S
C1551 C1552 1.383 . S
C1551 H1559 0.929 . S
C1552 C1551 1.383 . S
C1552 C1553 1.377 . S
C1553 H1537 0.930 . S
C1553 C1552 1.377 . S
C1553 C1554 1.379 . S
C1554 H1538 0.931 . S
C1554 C1548 1.383 . S
C1554 C1553 1.379 . S
H1555 C1549 0.959 . S
H1556 C1549 0.961 . S
H1557 C1549 0.960 . S
H1558 C1550 0.930 . S
H1559 C1551 0.929 . S
H1560 C1568 0.929 1_556 S
H1561 C1570 0.930 1_556 S
H1562 C1572 0.930 . S
H1563 C1575 0.929 . S
H1564 C1578 0.930 . S
H1565 C1580 0.960 . S
H1566 C1580 0.960 . S
H1567 C1580 0.960 . S
C1568 H1560 0.929 1_554 S
C1568 C1569 1.377 . S
C1568 C1570 1.384 . S
C1569 C1568 1.377 . S
C1569 C1575 1.390 . S
C1570 H1561 0.930 1_554 S
C1570 C1568 1.384 . S
C1570 C1571 1.372 . S
C1571 C1570 1.372 . S
C1571 C1572 1.400 . S
C1571 C1576 1.490 . S
C1572 H1562 0.930 . S
C1572 C1571 1.400 . S
C1572 C1575 1.386 . S
H1573 C1589 0.930 . S
H1574 C1590 0.931 . S
C1575 H1563 0.929 . S
C1575 C1569 1.390 . S
C1575 C1572 1.386 . S
C1576 C1571 1.490 . S
C1576 C1578 1.395 . S
C1576 C1579 1.403 . S
H1577 C1583 0.930 . S
C1578 H1564 0.930 . S
C1578 C1576 1.395 . S
C1578 C1581 1.403 . S
C1579 C1576 1.403 . S
C1579 C1580 1.524 . S
C1579 C1583 1.400 . S
C1580 H1565 0.960 . S
C1580 H1566 0.960 . S
C1580 H1567 0.960 . S
C1580 C1579 1.524 . S
C1581 C1578 1.403 . S
C1581 C1582 1.392 . S
C1581 C1585 1.495 . S
C1582 C1581 1.392 . S
C1582 C1583 1.385 . S
C1582 C1584 1.478 . S
C1583 H1577 0.930 . S
C1583 C1579 1.400 . S
C1583 C1582 1.385 . S
C1584 C1582 1.478 . S
C1584 C1586 1.381 . S
C1584 C1590 1.383 . S
C1585 C1581 1.495 . S
C1585 H1591 0.959 . S
C1585 H1592 0.961 . S
C1585 H1593 0.960 . S
C1586 C1584 1.381 . S
C1586 C1587 1.394 . S
C1586 H1594 0.930 1_554 S
C1587 C1586 1.394 . S
C1587 C1588 1.383 . S
C1587 H1595 0.929 1_554 S
C1588 C1587 1.383 . S
C1588 C1589 1.377 . S
C1589 H1573 0.930 . S
C1589 C1588 1.377 . S
C1589 C1590 1.379 . S
C1590 H1574 0.931 . S
C1590 C1584 1.383 . S
C1590 C1589 1.379 . S
H1591 C1585 0.959 . S
H1592 C1585 0.961 . S
H1593 C1585 0.960 . S
H1594 C1586 0.930 1_556 S
H1595 C1587 0.929 1_556 S
H1596 C1604 0.929 . S
H1597 C1606 0.930 . S
H1598 C1608 0.930 . S
H1599 C1611 0.929 . S
H1600 C1614 0.930 . S
H1601 C1616 0.960 . S
H1602 C1616 0.960 . S
H1603 C1616 0.960 . S
C1604 H1596 0.929 . S
C1604 C1605 1.377 . S
C1604 C1606 1.384 . S
C1605 C1604 1.377 . S
C1605 C1611 1.390 . S
C1606 H1597 0.930 . S
C1606 C1604 1.384 . S
C1606 C1607 1.372 . S
C1607 C1606 1.372 . S
C1607 C1608 1.400 . S
C1607 C1612 1.490 . S
C1608 H1598 0.930 . S
C1608 C1607 1.400 . S
C1608 C1611 1.386 . S
H1609 C1625 0.930 . S
H1610 C1626 0.931 . S
C1611 H1599 0.929 . S
C1611 C1605 1.390 . S
C1611 C1608 1.386 . S
C1612 C1607 1.490 . S
C1612 C1614 1.395 . S
C1612 C1615 1.403 . S
H1613 C1619 0.930 . S
C1614 H1600 0.930 . S
C1614 C1612 1.395 . S
C1614 C1617 1.403 . S
C1615 C1612 1.403 . S
C1615 C1616 1.524 . S
C1615 C1619 1.400 . S
C1616 H1601 0.960 . S
C1616 H1602 0.960 . S
C1616 H1603 0.960 . S
C1616 C1615 1.524 . S
C1617 C1614 1.403 . S
C1617 C1618 1.392 . S
C1617 C1621 1.495 . S
C1618 C1617 1.392 . S
C1618 C1619 1.385 . S
C1618 C1620 1.478 . S
C1619 H1613 0.930 . S
C1619 C1615 1.400 . S
C1619 C1618 1.385 . S
C1620 C1618 1.478 . S
C1620 C1622 1.381 . S
C1620 C1626 1.383 . S
C1621 C1617 1.495 . S
C1621 H1627 0.959 . S
C1621 H1628 0.961 . S
C1621 H1629 0.960 . S
C1622 C1620 1.381 . S
C1622 C1623 1.394 . S
C1622 H1630 0.930 . S
C1623 C1622 1.394 . S
C1623 C1624 1.383 . S
C1623 H1631 0.929 . S
C1624 C1623 1.383 . S
C1624 C1625 1.377 . S
C1625 H1609 0.930 . S
C1625 C1624 1.377 . S
C1625 C1626 1.379 . S
C1626 H1610 0.931 . S
C1626 C1620 1.383 . S
C1626 C1625 1.379 . S
H1627 C1621 0.959 . S
H1628 C1621 0.961 . S
H1629 C1621 0.960 . S
H1630 C1622 0.930 . S
H1631 C1623 0.929 . S
H1632 C1640 0.929 . S
H1633 C1642 0.930 . S
H1634 C1644 0.930 . S
H1635 C1647 0.929 . S
H1636 C1650 0.930 . S
H1637 C1652 0.960 . S
H1638 C1652 0.960 . S
H1639 C1652 0.960 . S
C1640 H1632 0.929 . S
C1640 C1641 1.377 . S
C1640 C1642 1.384 . S
C1641 C1640 1.377 . S
C1641 C1647 1.390 . S
C1642 H1633 0.930 . S
C1642 C1640 1.384 . S
C1642 C1643 1.372 . S
C1643 C1642 1.372 . S
C1643 C1644 1.400 . S
C1643 C1648 1.490 . S
C1644 H1634 0.930 . S
C1644 C1643 1.400 . S
C1644 C1647 1.386 . S
H1645 C1661 0.930 . S
H1646 C1662 0.931 . S
C1647 H1635 0.929 . S
C1647 C1641 1.390 . S
C1647 C1644 1.386 . S
C1648 C1643 1.490 . S
C1648 C1650 1.395 . S
C1648 C1651 1.403 . S
H1649 C1655 0.930 . S
C1650 H1636 0.930 . S
C1650 C1648 1.395 . S
C1650 C1653 1.403 . S
C1651 C1648 1.403 . S
C1651 C1652 1.524 . S
C1651 C1655 1.400 . S
C1652 H1637 0.960 . S
C1652 H1638 0.960 . S
C1652 H1639 0.960 . S
C1652 C1651 1.524 . S
C1653 C1650 1.403 . S
C1653 C1654 1.392 . S
C1653 C1657 1.495 . S
C1654 C1653 1.392 . S
C1654 C1655 1.385 . S
C1654 C1656 1.478 . S
C1655 H1649 0.930 . S
C1655 C1651 1.400 . S
C1655 C1654 1.385 . S
C1656 C1654 1.478 . S
C1656 C1658 1.381 . S
C1656 C1662 1.383 . S
C1657 C1653 1.495 . S
C1657 H1663 0.959 . S
C1657 H1664 0.961 . S
C1657 H1665 0.960 . S
C1658 C1656 1.381 . S
C1658 C1659 1.394 . S
C1658 H1666 0.930 . S
C1659 C1658 1.394 . S
C1659 C1660 1.383 . S
C1659 H1667 0.929 . S
C1660 C1659 1.383 . S
C1660 C1661 1.377 . S
C1661 H1645 0.930 . S
C1661 C1660 1.377 . S
C1661 C1662 1.379 . S
C1662 H1646 0.931 . S
C1662 C1656 1.383 . S
C1662 C1661 1.379 . S
H1663 C1657 0.959 . S
H1664 C1657 0.961 . S
H1665 C1657 0.960 . S
H1666 C1658 0.930 . S
H1667 C1659 0.929 . S
H1668 C1676 0.929 . S
H1669 C1678 0.930 . S
H1670 C1680 0.930 . S
H1671 C1683 0.929 . S
H1672 C1686 0.930 . S
H1673 C1688 0.960 . S
H1674 C1688 0.960 . S
H1675 C1688 0.960 . S
C1676 H1668 0.929 . S
C1676 C1677 1.377 . S
C1676 C1678 1.384 . S
C1677 C1676 1.377 . S
C1677 C1683 1.390 . S
C1678 H1669 0.930 . S
C1678 C1676 1.384 . S
C1678 C1679 1.372 . S
C1679 C1678 1.372 . S
C1679 C1680 1.400 . S
C1679 C1684 1.490 . S
C1680 H1670 0.930 . S
C1680 C1679 1.400 . S
C1680 C1683 1.386 . S
H1681 C1697 0.930 . S
H1682 C1698 0.931 . S
C1683 H1671 0.929 . S
C1683 C1677 1.390 . S
C1683 C1680 1.386 . S
C1684 C1679 1.490 . S
C1684 C1686 1.395 . S
C1684 C1687 1.403 . S
H1685 C1691 0.930 . S
C1686 H1672 0.930 . S
C1686 C1684 1.395 . S
C1686 C1689 1.403 . S
C1687 C1684 1.403 . S
C1687 C1688 1.524 . S
C1687 C1691 1.400 . S
C1688 H1673 0.960 . S
C1688 H1674 0.960 . S
C1688 H1675 0.960 . S
C1688 C1687 1.524 . S
C1689 C1686 1.403 . S
C1689 C1690 1.392 . S
C1689 C1693 1.495 . S
C1690 C1689 1.392 . S
C1690 C1691 1.385 . S
C1690 C1692 1.478 . S
C1691 H1685 0.930 . S
C1691 C1687 1.400 . S
C1691 C1690 1.385 . S
C1692 C1690 1.478 . S
C1692 C1694 1.381 . S
C1692 C1698 1.383 . S
C1693 C1689 1.495 . S
C1693 H1699 0.959 . S
C1693 H1700 0.961 . S
C1693 H1701 0.960 . S
C1694 C1692 1.381 . S
C1694 C1695 1.394 . S
C1694 H1702 0.930 . S
C1695 C1694 1.394 . S
C1695 C1696 1.383 . S
C1695 H1703 0.929 . S
C1696 C1695 1.383 . S
C1696 C1697 1.377 . S
C1697 H1681 0.930 . S
C1697 C1696 1.377 . S
C1697 C1698 1.379 . S
C1698 H1682 0.931 . S
C1698 C1692 1.383 . S
C1698 C1697 1.379 . S
H1699 C1693 0.959 . S
H1700 C1693 0.961 . S
H1701 C1693 0.960 . S
H1702 C1694 0.930 . S
H1703 C1695 0.929 . S
H1704 C1712 0.929 . S
H1705 C1714 0.930 . S
H1706 C1716 0.930 . S
H1707 C1719 0.929 . S
H1708 C1722 0.930 . S
H1709 C1724 0.960 . S
H1710 C1724 0.960 . S
H1711 C1724 0.960 . S
C1712 H1704 0.929 . S
C1712 C1713 1.377 . S
C1712 C1714 1.384 . S
C1713 C1712 1.377 . S
C1713 C1719 1.390 . S
C1714 H1705 0.930 . S
C1714 C1712 1.384 . S
C1714 C1715 1.372 . S
C1715 C1714 1.372 . S
C1715 C1716 1.400 . S
C1715 C1720 1.490 . S
C1716 H1706 0.930 . S
C1716 C1715 1.400 . S
C1716 C1719 1.386 . S
H1717 C1733 0.930 . S
H1718 C1734 0.931 . S
C1719 H1707 0.929 . S
C1719 C1713 1.390 . S
C1719 C1716 1.386 . S
C1720 C1715 1.490 . S
C1720 C1722 1.395 . S
C1720 C1723 1.403 . S
H1721 C1727 0.930 . S
C1722 H1708 0.930 . S
C1722 C1720 1.395 . S
C1722 C1725 1.403 . S
C1723 C1720 1.403 . S
C1723 C1724 1.524 . S
C1723 C1727 1.400 . S
C1724 H1709 0.960 . S
C1724 H1710 0.960 . S
C1724 H1711 0.960 . S
C1724 C1723 1.524 . S
C1725 C1722 1.403 . S
C1725 C1726 1.392 . S
C1725 C1729 1.495 . S
C1726 C1725 1.392 . S
C1726 C1727 1.385 . S
C1726 C1728 1.478 . S
C1727 H1721 0.930 . S
C1727 C1723 1.400 . S
C1727 C1726 1.385 . S
C1728 C1726 1.478 . S
C1728 C1730 1.381 . S
C1728 C1734 1.383 . S
C1729 C1725 1.495 . S
C1729 H1735 0.959 . S
C1729 H1736 0.961 . S
C1729 H1737 0.960 . S
C1730 C1728 1.381 . S
C1730 C1731 1.394 . S
C1730 H1738 0.930 . S
C1731 C1730 1.394 . S
C1731 C1732 1.383 . S
C1731 H1739 0.929 . S
C1732 C1731 1.383 . S
C1732 C1733 1.377 . S
C1733 H1717 0.930 . S
C1733 C1732 1.377 . S
C1733 C1734 1.379 . S
C1734 H1718 0.931 . S
C1734 C1728 1.383 . S
C1734 C1733 1.379 . S
H1735 C1729 0.959 . S
H1736 C1729 0.961 . S
H1737 C1729 0.960 . S
H1738 C1730 0.930 . S
H1739 C1731 0.929 . S
H1740 C1748 0.929 . S
H1741 C1750 0.930 . S
H1742 C1752 0.930 . S
H1743 C1755 0.929 . S
H1744 C1758 0.930 . S
H1745 C1760 0.960 . S
H1746 C1760 0.960 . S
H1747 C1760 0.960 . S
C1748 H1740 0.929 . S
C1748 C1749 1.377 . S
C1748 C1750 1.384 . S
C1749 C1748 1.377 . S
C1749 C1755 1.390 . S
C1750 H1741 0.930 . S
C1750 C1748 1.384 . S
C1750 C1751 1.372 . S
C1751 C1750 1.372 . S
C1751 C1752 1.400 . S
C1751 C1756 1.490 . S
C1752 H1742 0.930 . S
C1752 C1751 1.400 . S
C1752 C1755 1.386 . S
H1753 C1769 0.930 . S
H1754 C1770 0.931 . S
C1755 H1743 0.929 . S
C1755 C1749 1.390 . S
C1755 C1752 1.386 . S
C1756 C1751 1.490 . S
C1756 C1758 1.395 . S
C1756 C1759 1.403 . S
H1757 C1763 0.930 . S
C1758 H1744 0.930 . S
C1758 C1756 1.395 . S
C1758 C1761 1.403 . S
C1759 C1756 1.403 . S
C1759 C1760 1.524 . S
C1759 C1763 1.400 . S
C1760 H1745 0.960 . S
C1760 H1746 0.960 . S
C1760 H1747 0.960 . S
C1760 C1759 1.524 . S
C1761 C1758 1.403 . S
C1761 C1762 1.392 . S
C1761 C1765 1.495 . S
C1762 C1761 1.392 . S
C1762 C1763 1.385 . S
C1762 C1764 1.478 . S
C1763 H1757 0.930 . S
C1763 C1759 1.400 . S
C1763 C1762 1.385 . S
C1764 C1762 1.478 . S
C1764 C1766 1.381 . S
C1764 C1770 1.383 . S
C1765 C1761 1.495 . S
C1765 H1771 0.959 . S
C1765 H1772 0.961 . S
C1765 H1773 0.960 . S
C1766 C1764 1.381 . S
C1766 C1767 1.394 . S
C1766 H1774 0.930 . S
C1767 C1766 1.394 . S
C1767 C1768 1.383 . S
C1767 H1775 0.929 . S
C1768 C1767 1.383 . S
C1768 C1769 1.377 . S
C1769 H1753 0.930 . S
C1769 C1768 1.377 . S
C1769 C1770 1.379 . S
C1770 H1754 0.931 . S
C1770 C1764 1.383 . S
C1770 C1769 1.379 . S
H1771 C1765 0.959 . S
H1772 C1765 0.961 . S
H1773 C1765 0.960 . S
H1774 C1766 0.930 . S
H1775 C1767 0.929 . S
H1776 C1784 0.929 . S
H1777 C1786 0.930 . S
H1778 C1788 0.930 . S
H1779 C1791 0.929 . S
H1780 C1794 0.930 . S
H1781 C1796 0.960 . S
H1782 C1796 0.960 . S
H1783 C1796 0.960 . S
C1784 H1776 0.929 . S
C1784 C1785 1.377 . S
C1784 C1786 1.384 . S
C1785 C1784 1.377 . S
C1785 C1791 1.390 . S
C1786 H1777 0.930 . S
C1786 C1784 1.384 . S
C1786 C1787 1.372 . S
C1787 C1786 1.372 . S
C1787 C1788 1.400 . S
C1787 C1792 1.490 . S
C1788 H1778 0.930 . S
C1788 C1787 1.400 . S
C1788 C1791 1.386 . S
H1789 C1805 0.930 . S
H1790 C1806 0.931 . S
C1791 H1779 0.929 . S
C1791 C1785 1.390 . S
C1791 C1788 1.386 . S
C1792 C1787 1.490 . S
C1792 C1794 1.395 . S
C1792 C1795 1.403 . S
H1793 C1799 0.930 . S
C1794 H1780 0.930 . S
C1794 C1792 1.395 . S
C1794 C1797 1.403 . S
C1795 C1792 1.403 . S
C1795 C1796 1.524 . S
C1795 C1799 1.400 . S
C1796 H1781 0.960 . S
C1796 H1782 0.960 . S
C1796 H1783 0.960 . S
C1796 C1795 1.524 . S
C1797 C1794 1.403 . S
C1797 C1798 1.392 . S
C1797 C1801 1.495 . S
C1798 C1797 1.392 . S
C1798 C1799 1.385 . S
C1798 C1800 1.478 . S
C1799 H1793 0.930 . S
C1799 C1795 1.400 . S
C1799 C1798 1.385 . S
C1800 C1798 1.478 . S
C1800 C1802 1.381 . S
C1800 C1806 1.383 . S
C1801 C1797 1.495 . S
C1801 H1807 0.959 . S
C1801 H1808 0.961 . S
C1801 H1809 0.960 . S
C1802 C1800 1.381 . S
C1802 C1803 1.394 . S
C1802 H1810 0.930 . S
C1803 C1802 1.394 . S
C1803 C1804 1.383 . S
C1803 H1811 0.929 . S
C1804 C1803 1.383 . S
C1804 C1805 1.377 . S
C1805 H1789 0.930 . S
C1805 C1804 1.377 . S
C1805 C1806 1.379 . S
C1806 H1790 0.931 . S
C1806 C1800 1.383 . S
C1806 C1805 1.379 . S
H1807 C1801 0.959 . S
H1808 C1801 0.961 . S
H1809 C1801 0.960 . S
H1810 C1802 0.930 . S
H1811 C1803 0.929 . S
H1812 C1820 0.929 . S
H1813 C1822 0.930 . S
H1814 C1824 0.930 . S
H1815 C1827 0.929 . S
H1816 C1830 0.930 . S
H1817 C1832 0.960 . S
H1818 C1832 0.960 . S
H1819 C1832 0.960 . S
C1820 H1812 0.929 . S
C1820 C1821 1.377 . S
C1820 C1822 1.384 . S
C1821 C1820 1.377 . S
C1821 C1827 1.390 . S
C1822 H1813 0.930 . S
C1822 C1820 1.384 . S
C1822 C1823 1.372 . S
C1823 C1822 1.372 . S
C1823 C1824 1.400 . S
C1823 C1828 1.490 . S
C1824 H1814 0.930 . S
C1824 C1823 1.400 . S
C1824 C1827 1.386 . S
H1825 C1841 0.930 . S
H1826 C1842 0.931 . S
C1827 H1815 0.929 . S
C1827 C1821 1.390 . S
C1827 C1824 1.386 . S
C1828 C1823 1.490 . S
C1828 C1830 1.395 . S
C1828 C1831 1.403 . S
H1829 C1835 0.930 . S
C1830 H1816 0.930 . S
C1830 C1828 1.395 . S
C1830 C1833 1.403 . S
C1831 C1828 1.403 . S
C1831 C1832 1.524 . S
C1831 C1835 1.400 . S
C1832 H1817 0.960 . S
C1832 H1818 0.960 . S
C1832 H1819 0.960 . S
C1832 C1831 1.524 . S
C1833 C1830 1.403 . S
C1833 C1834 1.392 . S
C1833 C1837 1.495 . S
C1834 C1833 1.392 . S
C1834 C1835 1.385 . S
C1834 C1836 1.478 . S
C1835 H1829 0.930 . S
C1835 C1831 1.400 . S
C1835 C1834 1.385 . S
C1836 C1834 1.478 . S
C1836 C1838 1.381 . S
C1836 C1842 1.383 . S
C1837 C1833 1.495 . S
C1837 H1843 0.959 . S
C1837 H1844 0.961 . S
C1837 H1845 0.960 . S
C1838 C1836 1.381 . S
C1838 C1839 1.394 . S
C1838 H1846 0.930 . S
C1839 C1838 1.394 . S
C1839 C1840 1.383 . S
C1839 H1847 0.929 . S
C1840 C1839 1.383 . S
C1840 C1841 1.377 . S
C1841 H1825 0.930 . S
C1841 C1840 1.377 . S
C1841 C1842 1.379 . S
C1842 H1826 0.931 . S
C1842 C1836 1.383 . S
C1842 C1841 1.379 . S
H1843 C1837 0.959 . S
H1844 C1837 0.961 . S
H1845 C1837 0.960 . S
H1846 C1838 0.930 . S
H1847 C1839 0.929 . S
H1848 C1856 0.929 . S
H1849 C1858 0.930 . S
H1850 C1860 0.930 . S
H1851 C1863 0.929 . S
H1852 C1866 0.930 . S
H1853 C1868 0.960 . S
H1854 C1868 0.960 . S
H1855 C1868 0.960 . S
C1856 H1848 0.929 . S
C1856 C1857 1.377 . S
C1856 C1858 1.384 . S
C1857 C1856 1.377 . S
C1857 C1863 1.390 . S
C1858 H1849 0.930 . S
C1858 C1856 1.384 . S
C1858 C1859 1.372 . S
C1859 C1858 1.372 . S
C1859 C1860 1.400 . S
C1859 C1864 1.490 . S
C1860 H1850 0.930 . S
C1860 C1859 1.400 . S
C1860 C1863 1.386 . S
H1861 C1877 0.930 . S
H1862 C1878 0.931 . S
C1863 H1851 0.929 . S
C1863 C1857 1.390 . S
C1863 C1860 1.386 . S
C1864 C1859 1.490 . S
C1864 C1866 1.395 . S
C1864 C1867 1.403 . S
H1865 C1871 0.930 . S
C1866 H1852 0.930 . S
C1866 C1864 1.395 . S
C1866 C1869 1.403 . S
C1867 C1864 1.403 . S
C1867 C1868 1.524 . S
C1867 C1871 1.400 . S
C1868 H1853 0.960 . S
C1868 H1854 0.960 . S
C1868 H1855 0.960 . S
C1868 C1867 1.524 . S
C1869 C1866 1.403 . S
C1869 C1870 1.392 . S
C1869 C1873 1.495 . S
C1870 C1869 1.392 . S
C1870 C1871 1.385 . S
C1870 C1872 1.478 . S
C1871 H1865 0.930 . S
C1871 C1867 1.400 . S
C1871 C1870 1.385 . S
C1872 C1870 1.478 . S
C1872 C1874 1.381 . S
C1872 C1878 1.383 . S
C1873 C1869 1.495 . S
C1873 H1879 0.959 . S
C1873 H1880 0.961 . S
C1873 H1881 0.960 . S
C1874 C1872 1.381 . S
C1874 C1875 1.394 . S
C1874 H1882 0.930 . S
C1875 C1874 1.394 . S
C1875 C1876 1.383 . S
C1875 H1883 0.929 . S
C1876 C1875 1.383 . S
C1876 C1877 1.377 . S
C1877 H1861 0.930 . S
C1877 C1876 1.377 . S
C1877 C1878 1.379 . S
C1878 H1862 0.931 . S
C1878 C1872 1.383 . S
C1878 C1877 1.379 . S
H1879 C1873 0.959 . S
H1880 C1873 0.961 . S
H1881 C1873 0.960 . S
H1882 C1874 0.930 . S
H1883 C1875 0.929 . S
H1884 C1892 0.929 . S
H1885 C1894 0.920 1_545 S
H1886 C1896 0.930 . S
H1887 C1899 0.929 . S
H1888 C1902 0.930 . S
H1889 C1904 0.965 . S
H1890 C1904 0.984 . S
H1891 C1904 0.947 1_565 S
C1892 H1884 0.929 . S
C1892 C1893 1.377 1_545 S
C1892 C1894 1.379 1_545 S
C1893 C1892 1.377 1_565 S
C1893 C1899 1.390 . S
C1894 H1885 0.920 1_565 S
C1894 C1892 1.379 1_565 S
C1894 C1895 1.387 . S
C1895 C1894 1.387 . S
C1895 C1896 1.400 . S
C1895 C1900 1.490 . S
C1896 H1886 0.930 . S
C1896 C1895 1.400 . S
C1896 C1899 1.386 . S
H1897 C1913 0.930 . S
H1898 C1914 0.931 . S
C1899 H1887 0.929 . S
C1899 C1893 1.390 . S
C1899 C1896 1.386 . S
C1900 C1895 1.490 . S
C1900 C1902 1.395 . S
C1900 C1903 1.403 . S
H1901 C1907 0.930 . S
C1902 H1888 0.930 . S
C1902 C1900 1.395 . S
C1902 C1905 1.403 . S
C1903 C1900 1.403 . S
C1903 C1904 1.509 1_565 S
C1903 C1907 1.400 . S
C1904 H1889 0.965 . S
C1904 H1890 0.984 . S
C1904 H1891 0.947 1_545 S
C1904 C1903 1.509 1_545 S
C1905 C1902 1.403 . S
C1905 C1906 1.392 . S
C1905 C1909 1.495 . S
C1906 C1905 1.392 . S
C1906 C1907 1.385 . S
C1906 C1908 1.478 . S
C1907 H1901 0.930 . S
C1907 C1903 1.400 . S
C1907 C1906 1.385 . S
C1908 C1906 1.478 . S
C1908 C1910 1.381 . S
C1908 C1914 1.383 . S
C1909 C1905 1.495 . S
C1909 H1915 0.959 . S
C1909 H1916 0.961 . S
C1909 H1917 0.960 . S
C1910 C1908 1.381 . S
C1910 C1911 1.394 . S
C1910 H1918 0.930 . S
C1911 C1910 1.394 . S
C1911 C1912 1.383 . S
C1911 H1919 0.929 . S
C1912 C1911 1.383 . S
C1912 C1913 1.377 . S
C1913 H1897 0.930 . S
C1913 C1912 1.377 . S
C1913 C1914 1.379 . S
C1914 H1898 0.931 . S
C1914 C1908 1.383 . S
C1914 C1913 1.379 . S
H1915 C1909 0.959 . S
H1916 C1909 0.961 . S
H1917 C1909 0.960 . S
H1918 C1910 0.930 . S
H1919 C1911 0.929 . S
H1920 C1928 0.929 . S
H1921 C1930 0.930 . S
H1922 C1932 0.930 . S
H1923 C1935 0.929 . S
H1924 C1938 0.930 . S
H1925 C1940 0.960 . S
H1926 C1940 0.960 . S
H1927 C1940 0.960 . S
C1928 H1920 0.929 . S
C1928 C1929 1.377 . S
C1928 C1930 1.384 . S
C1929 C1928 1.377 . S
C1929 C1935 1.390 . S
C1930 H1921 0.930 . S
C1930 C1928 1.384 . S
C1930 C1931 1.372 . S
C1931 C1930 1.372 . S
C1931 C1932 1.400 . S
C1931 C1936 1.490 . S
C1932 H1922 0.930 . S
C1932 C1931 1.400 . S
C1932 C1935 1.386 . S
H1933 C1949 0.930 . S
H1934 C1950 0.931 . S
C1935 H1923 0.929 . S
C1935 C1929 1.390 . S
C1935 C1932 1.386 . S
C1936 C1931 1.490 . S
C1936 C1938 1.395 . S
C1936 C1939 1.403 . S
H1937 C1943 0.930 . S
C1938 H1924 0.930 . S
C1938 C1936 1.395 . S
C1938 C1941 1.403 . S
C1939 C1936 1.403 . S
C1939 C1940 1.524 . S
C1939 C1943 1.400 . S
C1940 H1925 0.960 . S
C1940 H1926 0.960 . S
C1940 H1927 0.960 . S
C1940 C1939 1.524 . S
C1941 C1938 1.403 . S
C1941 C1942 1.392 . S
C1941 C1945 1.495 . S
C1942 C1941 1.392 . S
C1942 C1943 1.385 . S
C1942 C1944 1.478 . S
C1943 H1937 0.930 . S
C1943 C1939 1.400 . S
C1943 C1942 1.385 . S
C1944 C1942 1.478 . S
C1944 C1946 1.381 . S
C1944 C1950 1.383 . S
C1945 C1941 1.495 . S
C1945 H1951 0.959 . S
C1945 H1952 0.961 . S
C1945 H1953 0.960 . S
C1946 C1944 1.381 . S
C1946 C1947 1.394 . S
C1946 H1954 0.930 . S
C1947 C1946 1.394 . S
C1947 C1948 1.383 . S
C1947 H1955 0.929 . S
C1948 C1947 1.383 . S
C1948 C1949 1.377 . S
C1949 H1933 0.930 . S
C1949 C1948 1.377 . S
C1949 C1950 1.379 . S
C1950 H1934 0.931 . S
C1950 C1944 1.383 . S
C1950 C1949 1.379 . S
H1951 C1945 0.959 . S
H1952 C1945 0.961 . S
H1953 C1945 0.960 . S
H1954 C1946 0.930 . S
H1955 C1947 0.929 . S
H1956 C1964 0.929 . S
H1957 C1966 0.930 1_565 S
H1958 C1968 0.930 . S
H1959 C1971 0.929 . S
H1960 C1974 0.894 1_565 S
H1961 C1976 0.960 . S
H1962 C1976 0.960 . S
H1963 C1976 0.960 . S
C1964 H1956 0.929 . S
C1964 C1965 1.378 1_565 S
C1964 C1966 1.384 1_565 S
C1965 C1964 1.378 1_545 S
C1965 C1971 1.390 . S
C1966 H1957 0.930 1_545 S
C1966 C1964 1.384 1_545 S
C1966 C1967 1.372 . S
C1967 C1966 1.372 . S
C1967 C1968 1.400 . S
C1967 C1972 1.490 . S
C1968 H1958 0.930 . S
C1968 C1967 1.400 . S
C1968 C1971 1.386 . S
H1969 C1985 0.930 . S
H1970 C1986 0.931 . S
C1971 H1959 0.929 . S
C1971 C1965 1.390 . S
C1971 C1968 1.386 . S
C1972 C1967 1.490 . S
C1972 C1974 1.431 . S
C1972 C1975 1.403 . S
H1973 C1979 0.930 . S
C1974 H1960 0.894 1_545 S
C1974 C1972 1.431 . S
C1974 C1977 1.403 . S
C1975 C1972 1.403 . S
C1975 C1976 1.524 . S
C1975 C1979 1.400 . S
C1976 H1961 0.960 . S
C1976 H1962 0.960 . S
C1976 H1963 0.960 . S
C1976 C1975 1.524 . S
C1977 C1974 1.403 . S
C1977 C1978 1.392 . S
C1977 C1981 1.495 1_545 S
C1978 C1977 1.392 . S
C1978 C1979 1.385 . S
C1978 C1980 1.478 . S
C1979 H1973 0.930 . S
C1979 C1975 1.400 . S
C1979 C1978 1.385 . S
C1980 C1978 1.478 . S
C1980 C1982 1.381 . S
C1980 C1986 1.383 . S
C1981 C1977 1.495 1_565 S
C1981 H1987 0.959 . S
C1981 H1988 0.961 . S
C1981 H1989 0.960 . S
C1982 C1980 1.381 . S
C1982 C1983 1.394 . S
C1982 H1990 0.908 1_545 S
C1983 C1982 1.394 . S
C1983 C1984 1.383 . S
C1983 H1991 0.929 . S
C1984 C1983 1.383 . S
C1984 C1985 1.377 . S
C1985 H1969 0.930 . S
C1985 C1984 1.377 . S
C1985 C1986 1.379 . S
C1986 H1970 0.931 . S
C1986 C1980 1.383 . S
C1986 C1985 1.379 . S
H1987 C1981 0.959 . S
H1988 C1981 0.961 . S
H1989 C1981 0.960 . S
H1990 C1982 0.908 1_565 S
H1991 C1983 0.929 . S
H1992 C2000 0.929 . S
H1993 C2002 0.930 . S
H1994 C2004 0.930 . S
H1995 C2007 0.929 . S
H1996 C2010 0.930 . S
H1997 C2012 0.960 . S
H1998 C2012 0.960 . S
H1999 C2012 0.960 . S
C2000 H1992 0.929 . S
C2000 C2001 1.377 . S
C2000 C2002 1.384 . S
C2001 C2000 1.377 . S
C2001 C2007 1.390 . S
C2002 H1993 0.930 . S
C2002 C2000 1.384 . S
C2002 C2003 1.372 . S
C2003 C2002 1.372 . S
C2003 C2004 1.400 . S
C2003 C2008 1.490 . S
C2004 H1994 0.930 . S
C2004 C2003 1.400 . S
C2004 C2007 1.386 . S
H2005 C2021 0.930 . S
H2006 C2022 0.931 . S
C2007 H1995 0.929 . S
C2007 C2001 1.390 . S
C2007 C2004 1.386 . S
C2008 C2003 1.490 . S
C2008 C2010 1.395 . S
C2008 C2011 1.403 . S
H2009 C2015 0.930 . S
C2010 H1996 0.930 . S
C2010 C2008 1.395 . S
C2010 C2013 1.403 . S
C2011 C2008 1.403 . S
C2011 C2012 1.524 . S
C2011 C2015 1.400 . S
C2012 H1997 0.960 . S
C2012 H1998 0.960 . S
C2012 H1999 0.960 . S
C2012 C2011 1.524 . S
C2013 C2010 1.403 . S
C2013 C2014 1.392 . S
C2013 C2017 1.495 . S
C2014 C2013 1.392 . S
C2014 C2015 1.385 . S
C2014 C2016 1.478 . S
C2015 H2009 0.930 . S
C2015 C2011 1.400 . S
C2015 C2014 1.385 . S
C2016 C2014 1.478 . S
C2016 C2018 1.381 . S
C2016 C2022 1.383 . S
C2017 C2013 1.495 . S
C2017 H2023 0.959 . S
C2017 H2024 0.961 . S
C2017 H2025 0.960 . S
C2018 C2016 1.381 . S
C2018 C2019 1.394 . S
C2018 H2026 0.930 . S
C2019 C2018 1.394 . S
C2019 C2020 1.383 . S
C2019 H2027 0.929 . S
C2020 C2019 1.383 . S
C2020 C2021 1.377 . S
C2021 H2005 0.930 . S
C2021 C2020 1.377 . S
C2021 C2022 1.379 . S
C2022 H2006 0.931 . S
C2022 C2016 1.383 . S
C2022 C2021 1.379 . S
H2023 C2017 0.959 . S
H2024 C2017 0.961 . S
H2025 C2017 0.960 . S
H2026 C2018 0.930 . S
H2027 C2019 0.929 . S
H2028 C2036 0.929 . S
H2029 C2038 0.930 . S
H2030 C2040 0.930 . S
H2031 C2043 0.929 . S
H2032 C2046 0.930 . S
H2033 C2048 0.960 . S
H2034 C2048 0.960 . S
H2035 C2048 0.960 1_554 S
C2036 H2028 0.929 . S
C2036 C2037 1.377 1_556 S
C2036 C2038 1.384 . S
C2037 C2036 1.377 1_554 S
C2037 C2043 1.390 . S
C2038 H2029 0.930 . S
C2038 C2036 1.384 . S
C2038 C2039 1.372 . S
C2039 C2038 1.372 . S
C2039 C2040 1.400 1_556 S
C2039 C2044 1.490 . S
C2040 H2030 0.930 . S
C2040 C2039 1.400 1_554 S
C2040 C2043 1.386 . S
H2041 C2057 0.930 1_554 S
H2042 C2058 0.931 1_554 S
C2043 H2031 0.929 . S
C2043 C2037 1.390 . S
C2043 C2040 1.386 . S
C2044 C2039 1.490 . S
C2044 C2046 1.395 . S
C2044 C2047 1.403 . S
H2045 C2051 0.930 . S
C2046 H2032 0.930 . S
C2046 C2044 1.395 . S
C2046 C2049 1.403 . S
C2047 C2044 1.403 . S
C2047 C2048 1.524 . S
C2047 C2051 1.400 . S
C2048 H2033 0.960 . S
C2048 H2034 0.960 . S
C2048 H2035 0.960 1_556 S
C2048 C2047 1.524 . S
C2049 C2046 1.403 . S
C2049 C2050 1.392 . S
C2049 C2053 1.495 . S
C2050 C2049 1.392 . S
C2050 C2051 1.385 . S
C2050 C2052 1.478 . S
C2051 H2045 0.930 . S
C2051 C2047 1.400 . S
C2051 C2050 1.385 . S
C2052 C2050 1.478 . S
C2052 C2054 1.381 . S
C2052 C2058 1.383 . S
C2053 C2049 1.495 . S
C2053 H2059 0.959 . S
C2053 H2060 0.961 . S
C2053 H2061 0.960 . S
C2054 C2052 1.381 . S
C2054 C2055 1.394 . S
C2054 H2062 0.930 . S
C2055 C2054 1.394 . S
C2055 C2056 1.383 . S
C2055 H2063 0.929 . S
C2056 C2055 1.383 . S
C2056 C2057 1.377 . S
C2057 H2041 0.930 1_556 S
C2057 C2056 1.377 . S
C2057 C2058 1.379 . S
C2058 H2042 0.931 1_556 S
C2058 C2052 1.383 . S
C2058 C2057 1.379 . S
H2059 C2053 0.959 . S
H2060 C2053 0.961 . S
H2061 C2053 0.960 . S
H2062 C2054 0.930 . S
H2063 C2055 0.929 . S
H2064 C2072 0.929 . S
H2065 C2074 0.930 . S
H2066 C2076 0.930 . S
H2067 C2079 0.929 . S
H2068 C2082 0.930 . S
H2069 C2084 0.960 . S
H2070 C2084 0.960 . S
H2071 C2084 0.960 . S
C2072 H2064 0.929 . S
C2072 C2073 1.377 . S
C2072 C2074 1.384 . S
C2073 C2072 1.377 . S
C2073 C2079 1.390 1_554 S
C2074 H2065 0.930 . S
C2074 C2072 1.384 . S
C2074 C2075 1.372 . S
C2075 C2074 1.372 . S
C2075 C2076 1.400 1_554 S
C2075 C2080 1.490 1_554 S
C2076 H2066 0.930 . S
C2076 C2075 1.400 1_556 S
C2076 C2079 1.386 . S
H2077 C2093 0.930 . S
H2078 C2094 0.931 . S
C2079 H2067 0.929 . S
C2079 C2073 1.390 1_556 S
C2079 C2076 1.386 . S
C2080 C2075 1.490 1_556 S
C2080 C2082 1.395 . S
C2080 C2083 1.403 1_556 S
H2081 C2087 0.930 . S
C2082 H2068 0.930 . S
C2082 C2080 1.395 . S
C2082 C2085 1.403 . S
C2083 C2080 1.403 1_554 S
C2083 C2084 1.524 . S
C2083 C2087 1.400 . S
C2084 H2069 0.960 . S
C2084 H2070 0.960 . S
C2084 H2071 0.960 . S
C2084 C2083 1.524 . S
C2085 C2082 1.403 . S
C2085 C2086 1.392 . S
C2085 C2089 1.495 . S
C2086 C2085 1.392 . S
C2086 C2087 1.385 1_556 S
C2086 C2088 1.478 . S
C2087 H2081 0.930 . S
C2087 C2083 1.400 . S
C2087 C2086 1.385 1_554 S
C2088 C2086 1.478 . S
C2088 C2090 1.359 1_556 S
C2088 C2094 1.383 . S
C2089 C2085 1.495 . S
C2089 H2095 0.959 . S
C2089 H2096 0.961 . S
C2089 H2097 0.960 . S
C2090 C2088 1.359 1_554 S
C2090 C2091 1.394 1_554 S
C2090 H2098 0.956 . S
C2091 C2090 1.394 1_556 S
C2091 C2092 1.396 . S
C2091 H2099 0.917 1_556 S
C2092 C2091 1.396 . S
C2092 C2093 1.377 . S
C2093 H2077 0.930 . S
C2093 C2092 1.377 . S
C2093 C2094 1.379 . S
C2094 H2078 0.931 . S
C2094 C2088 1.383 . S
C2094 C2093 1.379 . S
H2095 C2089 0.959 . S
H2096 C2089 0.961 . S
H2097 C2089 0.960 . S
H2098 C2090 0.956 . S
H2099 C2091 0.917 1_554 S
H2100 C2108 0.929 . S
H2101 C2110 0.930 . S
H2102 C2112 0.930 . S
H2103 C2115 0.929 . S
H2104 C2118 0.930 . S
H2105 C2120 0.960 . S
H2106 C2120 0.960 . S
H2107 C2120 0.960 . S
C2108 H2100 0.929 . S
C2108 C2109 1.377 . S
C2108 C2110 1.384 . S
C2109 C2108 1.377 . S
C2109 C2115 1.390 . S
C2110 H2101 0.930 . S
C2110 C2108 1.384 . S
C2110 C2111 1.372 . S
C2111 C2110 1.372 . S
C2111 C2112 1.400 . S
C2111 C2116 1.490 . S
C2112 H2102 0.930 . S
C2112 C2111 1.400 . S
C2112 C2115 1.386 . S
H2113 C2129 0.930 . S
H2114 C2130 0.931 . S
C2115 H2103 0.929 . S
C2115 C2109 1.390 . S
C2115 C2112 1.386 . S
C2116 C2111 1.490 . S
C2116 C2118 1.395 . S
C2116 C2119 1.403 . S
H2117 C2123 0.930 . S
C2118 H2104 0.930 . S
C2118 C2116 1.395 . S
C2118 C2121 1.403 . S
C2119 C2116 1.403 . S
C2119 C2120 1.524 . S
C2119 C2123 1.400 . S
C2120 H2105 0.960 . S
C2120 H2106 0.960 . S
C2120 H2107 0.960 . S
C2120 C2119 1.524 . S
C2121 C2118 1.403 . S
C2121 C2122 1.392 . S
C2121 C2125 1.495 . S
C2122 C2121 1.392 . S
C2122 C2123 1.385 . S
C2122 C2124 1.478 . S
C2123 H2117 0.930 . S
C2123 C2119 1.400 . S
C2123 C2122 1.385 . S
C2124 C2122 1.478 . S
C2124 C2126 1.381 . S
C2124 C2130 1.383 . S
C2125 C2121 1.495 . S
C2125 H2131 0.959 1_554 S
C2125 H2132 0.961 1_554 S
C2125 H2133 0.960 . S
C2126 C2124 1.381 . S
C2126 C2127 1.394 . S
C2126 H2134 0.930 . S
C2127 C2126 1.394 . S
C2127 C2128 1.383 . S
C2127 H2135 0.929 . S
C2128 C2127 1.383 . S
C2128 C2129 1.377 . S
C2129 H2113 0.930 . S
C2129 C2128 1.377 . S
C2129 C2130 1.379 . S
C2130 H2114 0.931 . S
C2130 C2124 1.383 . S
C2130 C2129 1.379 . S
H2131 C2125 0.959 1_556 S
H2132 C2125 0.961 1_556 S
H2133 C2125 0.960 . S
H2134 C2126 0.930 . S
H2135 C2127 0.929 . S
C417 C13 1.574 . S
C436 C255 1.528 . S
C472 N272 1.602 1_455 S
C453 C1 1.719 . S
C508 N174 1.494 . S
C489 C27 1.516 . S
C525 C15 1.170 . S
C544 C199 1.157 . S
C561 C28 1.655 . S
C580 C394 1.633 1_554 S
C597 C55 1.340 . S
C616 N354 1.304 . S
C652 N302 1.519 . S
C633 C40 1.652 . S
C669 C43 1.610 . S
C688 C328 1.609 . S
C724 C214 1.445 1_455 S
C705 C56 1.441 . S
C760 C259 1.694 1_455 S
C741 C83 1.700 . S
C777 C96 1.576 . S
C796 C238 1.572 1_655 S
C813 C71 1.806 . S
C832 C345 1.770 . S
C868 C375 1.546 . S
C849 C99 1.576 . S
C904 N392 1.568 . S
C885 C111 1.717 . S
C921 C113 1.522 . S
C940 N324 1.519 . S
C976 C289 1.173 . S
C957 C125 1.169 . S
C993 C139 1.657 . S
C1012 C274 1.646 . S
C1029 C153 1.341 . S
C1048 N234 1.316 . S
C1084 N212 1.470 . S
C1065 C127 1.650 . S
C1101 C141 1.607 . S
C1120 C178 1.595 1_556 S
C1156 C304 1.417 . S
C1137 C84 1.436 . S
C1192 C379 1.702 . S
C1173 C154 1.702 . S
C1209 C68 1.579 . S
C1228 C358 1.584 . S
C1245 C166 1.807 . S
C1264 C195 1.782 1_655 S
C1300 C169 1.128 . S
C1281 C0 1.170 . S
C1317 C12 0.884 . S
C1336 N204 0.872 . S
C1372 N242 1.088 . S
C1353 C14 1.111 . S
C1408 C285 1.674 . S
C1389 C26 1.658 . S
C1425 C41 1.398 . S
C1444 C184 1.376 . S
C1461 C42 1.591 . S
C1480 C225 1.552 . S
C1516 C229 1.142 . S
C1497 C29 1.151 . S
C1533 C54 1.411 . S
C1552 C268 1.374 . S
C1569 C69 0.903 . S
C1588 N182 0.825 . S
C1624 C244 1.776 . S
C1605 C70 1.771 . S
C1641 C85 1.138 . S
C1660 N264 1.148 . S
C1677 C82 1.302 . S
C1696 C298 1.297 . S
C1732 C319 1.186 . S
C1713 C110 1.180 . S
C1749 C98 0.887 . S
C1768 N294 0.901 . S
C1785 C124 1.109 . S
C1804 N362 0.998 . S
C1821 C112 1.656 . S
C1840 C405 1.663 . S
C1857 C126 1.398 . S
C1876 C334 1.370 . S
C1912 C315 1.551 . S
C1893 C140 1.590 . S
C1929 C138 1.151 . S
C1948 C349 1.147 . S
C1984 C388 1.402 . S
C1965 C152 1.415 . S
C2020 N332 0.825 . S
C2001 C97 0.904 . S
C2056 C364 1.772 . S
C2037 C167 1.771 . S
C2092 N384 1.134 . S
C2073 C57 1.135 . S
C2109 C155 1.305 . S
C2128 C208 1.308 . S
