# Generated by pormake.
# Topology rtl, (3,6)-cn, num edge types: 1
# Building blocks:
#     Node 0, Type 0, BuildingBlock: OLANEW_clean_sbu_2, # of connection points: 3
#     Node 1, Type 0, BuildingBlock: OLANEW_clean_sbu_2, # of connection points: 3
#     Node 2, Type 0, BuildingBlock: OLANEW_clean_sbu_2, # of connection points: 3
#     Node 3, Type 0, BuildingBlock: OLANEW_clean_sbu_2, # of connection points: 3
#     Node 4, Type 1, BuildingBlock: CIFDUS_clean_sbu_1, # of connection points: 6
#     Node 5, Type 1, BuildingBlock: CIFDUS_clean_sbu_1, # of connection points: 6
#     Edge 6, Type (0, 1), BuildingBlock: XUDNAN_clean_linker_2, # of connection points: 2
#     Edge 7, Type (0, 1), BuildingBlock: XUDNAN_clean_linker_2, # of connection points: 2
#     Edge 8, Type (0, 1), BuildingBlock: XUDNAN_clean_linker_2, # of connection points: 2
#     Edge 9, Type (0, 1), BuildingBlock: XUDNAN_clean_linker_2, # of connection points: 2
#     Edge 10, Type (0, 1), BuildingBlock: XUDNAN_clean_linker_2, # of connection points: 2
#     Edge 11, Type (0, 1), BuildingBlock: XUDNAN_clean_linker_2, # of connection points: 2
#     Edge 12, Type (0, 1), BuildingBlock: XUDNAN_clean_linker_2, # of connection points: 2
#     Edge 13, Type (0, 1), BuildingBlock: XUDNAN_clean_linker_2, # of connection points: 2
#     Edge 14, Type (0, 1), BuildingBlock: XUDNAN_clean_linker_2, # of connection points: 2
#     Edge 15, Type (0, 1), BuildingBlock: XUDNAN_clean_linker_2, # of connection points: 2
#     Edge 16, Type (0, 1), BuildingBlock: XUDNAN_clean_linker_2, # of connection points: 2
#     Edge 17, Type (0, 1), BuildingBlock: XUDNAN_clean_linker_2, # of connection points: 2
# Relax obj value: 0.016
# Max RMSD: 0.119
# Mean RMSD: 0.076
data_MOF--net-rtl--node1-OLANEW_clean_sbu_2--node2-CIFDUS_clean_sbu_1--edge1-XUDNAN_clean_linker_2
_symmetry_space_group_name_H-M    P1
_symmetry_Int_Tables_number       1
_symmetry_cell_setting            triclinic
loop_
_symmetry_equiv_pos_as_xyz
'x, y, z'
_cell_length_a     37.255676
_cell_length_b     37.695555
_cell_length_c     23.826179
_cell_angle_alpha  87.255432
_cell_angle_beta   100.59629
_cell_angle_gamma 89.798585
loop_
_atom_site_label
_atom_site_type_symbol
_atom_site_fract_x
_atom_site_fract_y
_atom_site_fract_z
_atom_type_partial_charge
O0 O 0.20646 0.84544 0.99308 0.0
Cd1 Cd 0.24515 0.8162 0.07828 0.0
O2 O 0.20346 0.89187 0.04528 0.0
Cd3 Cd 0.23859 0.88157 0.12812 0.0
O4 O 0.23533 0.90681 0.20807 0.0
C5 C 0.21384 0.89281 0.2382 0.0
O6 O 0.19787 0.86293 0.22239 0.0
C7 C 0.1939 0.87627 0.99877 0.0
C8 C 0.28154 0.75166 0.07093 0.0
O9 O 0.2476 0.75225 0.07437 0.0
O10 O 0.29776 0.78148 0.06836 0.0
O11 O 0.70211 0.72912 0.75034 0.0
Cd12 Cd 0.71824 0.79116 0.73284 0.0
O13 O 0.69264 0.70518 0.66666 0.0
Cd14 Cd 0.67294 0.66888 0.59851 0.0
O15 O 0.66233 0.64722 0.51301 0.0
C16 C 0.63541 0.65778 0.47476 0.0
O17 O 0.61251 0.68147 0.48716 0.0
C18 C 0.69195 0.70283 0.71995 0.0
C19 C 0.77057 0.81702 0.67252 0.0
O20 O 0.77956 0.80762 0.72575 0.0
O21 O 0.73779 0.81117 0.64724 0.0
O22 O 0.81897 0.20694 0.09343 0.0
Cd23 Cd 0.7991 0.2335 0.99616 0.0
O24 O 0.87698 0.20123 0.08761 0.0
Cd25 Cd 0.86569 0.21089 0.99521 0.0
O26 O 0.86286 0.18493 0.91452 0.0
C27 C 0.86015 0.15127 0.91698 0.0
O28 O 0.85818 0.13502 0.96635 0.0
C29 C 0.85162 0.19842 0.11657 0.0
C30 C 0.74653 0.28777 0.98806 0.0
O31 O 0.73825 0.255 0.99367 0.0
O32 O 0.77987 0.29532 0.98669 0.0
O33 O 0.28752 0.34185 0.58464 0.0
Cd34 Cd 0.25926 0.32395 0.48881 0.0
O35 O 0.30124 0.3929 0.54539 0.0
Cd36 Cd 0.27841 0.38483 0.45619 0.0
O37 O 0.28382 0.39255 0.36692 0.0
C38 C 0.29306 0.42321 0.35045 0.0
O39 O 0.29655 0.44875 0.38666 0.0
C40 C 0.30232 0.3722 0.58944 0.0
C41 C 0.22111 0.2602 0.48255 0.0
O42 O 0.25586 0.26046 0.48613 0.0
O43 O 0.20452 0.28998 0.48339 0.0
O44 O 0.98107 0.04596 0.47344 0.0
Mn45 Mn 0.00795 0.02044 0.54908 0.0
O46 O 0.96203 0.00308 0.41269 0.0
Mn47 Mn 0.98519 0.96568 0.459 0.0
O48 O 0.0342 0.99617 0.62686 0.0
O49 O 0.03535 0.06546 0.56753 0.0
Mn50 Mn 0.02849 0.07935 0.63373 0.0
O51 O 0.96444 0.03552 0.58921 0.0
O52 O 0.04602 0.0421 0.68504 0.0
O53 O 0.05208 0.00526 0.51021 0.0
O54 O 0.03373 0.95808 0.4591 0.0
O55 O 0.05917 0.11226 0.60915 0.0
O56 O 0.97933 0.08842 0.6251 0.0
C57 C 0.9582 0.94825 0.52597 0.0
C58 C 0.9635 0.0355 0.42579 0.0
C59 C 0.04625 0.00896 0.6759 0.0
C60 C 0.05632 0.09252 0.56564 0.0
C61 C 0.95635 0.06396 0.61235 0.0
C62 C 0.0584 0.97936 0.47992 0.0
O63 O 0.98014 0.97511 0.52902 0.0
O64 O 0.95687 0.93016 0.4808 0.0
O65 O 0.52615 0.54632 0.08015 0.0
Mn66 Mn 0.50004 0.51585 0.01327 0.0
O67 O 0.54327 0.50712 0.15386 0.0
Mn68 Mn 0.52479 0.4686 0.11421 0.0
O69 O 0.47375 0.4863 0.94598 0.0
O70 O 0.4678 0.55801 0.98391 0.0
Mn71 Mn 0.4673 0.56688 0.91081 0.0
O72 O 0.54059 0.53282 0.96611 0.0
O73 O 0.44898 0.52626 0.87594 0.0
O74 O 0.4575 0.50091 0.05658 0.0
O75 O 0.47792 0.4556 0.11691 0.0
O76 O 0.43599 0.59979 0.93161 0.0
O77 O 0.51466 0.57754 0.90577 0.0
C78 C 0.55439 0.44418 0.06131 0.0
C79 C 0.54187 0.53849 0.13186 0.0
C80 C 0.45449 0.49439 0.89644 0.0
C81 C 0.44409 0.58336 0.98126 0.0
C82 C 0.54222 0.5586 0.92895 0.0
C83 C 0.45208 0.47508 0.0907 0.0
O84 O 0.53332 0.47198 0.04263 0.0
O85 O 0.55587 0.43283 0.11395 0.0
H86 H 0.1473 0.25183 0.45225 0.0
H87 H 0.24888 0.19255 0.504 0.0
H88 H 0.21439 0.13678 0.5048 0.0
H89 H 0.09874 0.20944 0.53888 0.0
H90 H 0.05584 0.20949 0.48936 0.0
H91 H 0.08896 0.24271 0.48098 0.0
H92 H 0.08726 0.22405 0.37692 0.0
H93 H 0.05465 0.18994 0.38603 0.0
H94 H 0.09685 0.17854 0.36412 0.0
H95 H 0.16936 0.09016 0.51927 0.0
H96 H 0.11875 0.05928 0.5541 0.0
H97 H 0.04615 0.14728 0.48874 0.0
C98 C 0.16231 0.22699 0.46237 0.0
C99 C 0.20074 0.22649 0.47808 0.0
C100 C 0.21943 0.19354 0.49147 0.0
C101 C 0.20006 0.16167 0.49156 0.0
C102 C 0.16205 0.16308 0.4768 0.0
C103 C 0.14339 0.19494 0.46194 0.0
C104 C 0.10254 0.18996 0.45473 0.0
C105 C 0.08558 0.2143 0.49333 0.0
C106 C 0.08425 0.19599 0.3917 0.0
C107 C 0.10127 0.15114 0.47366 0.0
C108 C 0.13575 0.13564 0.48386 0.0
C109 C 0.14209 0.10155 0.50952 0.0
C110 C 0.1131 0.08394 0.52862 0.0
C111 C 0.07846 0.10053 0.52206 0.0
C112 C 0.07205 0.13353 0.49153 0.0
H113 H 0.3555 0.74095 0.09354 0.0
H114 H 0.25322 0.68553 0.04899 0.0
H115 H 0.28734 0.62949 0.04549 0.0
H116 H 0.40252 0.7028 0.00401 0.0
H117 H 0.44589 0.69959 0.05238 0.0
H118 H 0.41315 0.7328 0.06136 0.0
H119 H 0.41606 0.7085 0.16603 0.0
H120 H 0.44829 0.67447 0.15644 0.0
H121 H 0.40646 0.66241 0.17985 0.0
H122 H 0.33239 0.58198 0.03284 0.0
H123 H 0.38252 0.55092 0.99961 0.0
H124 H 0.45528 0.63684 0.05322 0.0
C125 C 0.34028 0.71689 0.08395 0.0
C126 C 0.30172 0.71761 0.07136 0.0
C127 C 0.28278 0.68557 0.05902 0.0
C128 C 0.30195 0.65355 0.05744 0.0
C129 C 0.34007 0.65378 0.0697 0.0
C130 C 0.35898 0.68469 0.08298 0.0
C131 C 0.39975 0.67879 0.08885 0.0
C132 C 0.41625 0.70502 0.04924 0.0
C133 C 0.41877 0.6812 0.15151 0.0
C134 C 0.40065 0.64093 0.07055 0.0
C135 C 0.36615 0.62629 0.06258 0.0
C136 C 0.35961 0.59285 0.04033 0.0
C137 C 0.38837 0.57512 0.02218 0.0
C138 C 0.4229 0.59117 0.02546 0.0
C139 C 0.42953 0.62349 0.0526 0.0
H140 H 0.84351 0.83134 0.71063 0.0
H141 H 0.75379 0.85178 0.56796 0.0
H142 H 0.79106 0.8956 0.52549 0.0
H143 H 0.87702 0.92132 0.71903 0.0
H144 H 0.92458 0.90847 0.73439 0.0
H145 H 0.89083 0.87933 0.75627 0.0
H146 H 0.91228 0.82813 0.70064 0.0
H147 H 0.94683 0.85674 0.68048 0.0
H148 H 0.91476 0.83594 0.62618 0.0
H149 H 0.83524 0.94038 0.50234 0.0
H150 H 0.89066 0.96936 0.48141 0.0
H151 H 0.95512 0.91552 0.63135 0.0
C152 C 0.83184 0.84481 0.6702 0.0
C153 C 0.79546 0.83846 0.64307 0.0
C154 C 0.78141 0.85633 0.58986 0.0
C155 C 0.80222 0.88162 0.56568 0.0
C156 C 0.83723 0.88851 0.59484 0.0
C157 C 0.85254 0.86977 0.64473 0.0
C158 C 0.89193 0.88051 0.66458 0.0
C159 C 0.89635 0.89845 0.722 0.0
C160 C 0.91799 0.84842 0.66814 0.0
C161 C 0.8967 0.90723 0.61685 0.0
C162 C 0.86411 0.9126 0.5788 0.0
C163 C 0.86095 0.9363 0.53162 0.0
C164 C 0.89249 0.95309 0.52064 0.0
C165 C 0.92693 0.94503 0.55525 0.0
C166 C 0.92896 0.92287 0.60524 0.0
H167 H 0.68995 0.28731 0.04474 0.0
H168 H 0.74035 0.3517 0.92599 0.0
H169 H 0.69206 0.398 0.9217 0.0
H170 H 0.59618 0.30746 0.99051 0.0
H171 H 0.58467 0.31016 0.06045 0.0
H172 H 0.62182 0.28187 0.05066 0.0
H173 H 0.66581 0.31408 0.12896 0.0
H174 H 0.62861 0.34209 0.13932 0.0
H175 H 0.66964 0.3617 0.12261 0.0
H176 H 0.63728 0.43868 0.93498 0.0
H177 H 0.58749 0.46974 0.97127 0.0
H178 H 0.57569 0.37634 0.07942 0.0
C179 C 0.69054 0.31094 0.01721 0.0
C180 C 0.71841 0.31584 0.98508 0.0
C181 C 0.71901 0.34755 0.95085 0.0
C182 C 0.69162 0.37384 0.94796 0.0
C183 C 0.66428 0.36813 0.9803 0.0
C184 C 0.6641 0.33754 0.01488 0.0
C185 C 0.63423 0.33862 0.04962 0.0
C186 C 0.60766 0.30769 0.03699 0.0
C187 C 0.65054 0.33916 0.1139 0.0
C188 C 0.61642 0.37376 0.02753 0.0
C189 C 0.634 0.39094 0.98803 0.0
C190 C 0.6232 0.4252 0.96555 0.0
C191 C 0.59468 0.44255 0.98581 0.0
C192 C 0.57761 0.42538 0.02789 0.0
C193 C 0.58798 0.3902 0.04696 0.0
H194 H 0.17655 0.86581 0.31813 0.0
H195 H 0.22522 0.96289 0.26404 0.0
H196 H 0.19869 0.99565 0.33467 0.0
H197 H 0.09434 0.90269 0.32886 0.0
H198 H 0.08762 0.87514 0.38991 0.0
H199 H 0.11535 0.85919 0.34209 0.0
H200 H 0.16928 0.84858 0.42746 0.0
H201 H 0.14159 0.86492 0.47548 0.0
H202 H 0.18513 0.88477 0.47205 0.0
H203 H 0.15729 0.01921 0.40005 0.0
H204 H 0.10632 0.02992 0.45137 0.0
H205 H 0.0892 0.91663 0.46613 0.0
C206 C 0.18252 0.89377 0.32214 0.0
C207 C 0.20308 0.91172 0.28578 0.0
C208 C 0.20984 0.94846 0.29191 0.0
C209 C 0.19488 0.9673 0.33196 0.0
C210 C 0.1738 0.94887 0.36619 0.0
C211 C 0.1681 0.91276 0.36195 0.0
C212 C 0.14176 0.89943 0.39907 0.0
C213 C 0.10778 0.88319 0.36281 0.0
C214 C 0.16059 0.87285 0.44633 0.0
C215 C 0.13247 0.93374 0.42358 0.0
C216 C 0.15127 0.96212 0.40476 0.0
C217 C 0.14331 0.99701 0.41648 0.0
C218 C 0.11462 0.00293 0.4463 0.0
C219 C 0.09445 0.97407 0.46386 0.0
C220 C 0.10468 0.93916 0.45422 0.0
H221 H 0.65281 0.70739 0.80331 0.0
H222 H 0.69208 0.6307 0.69826 0.0
H223 H 0.66473 0.58208 0.75077 0.0
H224 H 0.66545 0.65662 0.93571 0.0
H225 H 0.62357 0.67263 0.95381 0.0
H226 H 0.64778 0.70013 0.90972 0.0
H227 H 0.58983 0.70588 0.83032 0.0
H228 H 0.56532 0.67918 0.87484 0.0
H229 H 0.56728 0.66621 0.80364 0.0
H230 H 0.62985 0.54219 0.81607 0.0
H231 H 0.58613 0.51794 0.87516 0.0
H232 H 0.57216 0.62282 0.9346 0.0
C233 C 0.65614 0.68033 0.79157 0.0
C234 C 0.675 0.67272 0.74729 0.0
C235 C 0.67774 0.63707 0.73216 0.0
C236 C 0.66256 0.60935 0.76213 0.0
C237 C 0.64456 0.61796 0.8065 0.0
C238 C 0.64098 0.65284 0.8202 0.0
C239 C 0.61811 0.65632 0.86575 0.0
C240 C 0.64007 0.67237 0.91942 0.0
C241 C 0.58307 0.67817 0.84223 0.0
C242 C 0.60969 0.61785 0.87694 0.0
C243 C 0.62506 0.59579 0.84276 0.0
C244 C 0.61821 0.55929 0.84343 0.0
C245 C 0.5938 0.54558 0.87771 0.0
C246 C 0.57666 0.56844 0.91049 0.0
C247 C 0.58584 0.60462 0.91135 0.0
H248 H 0.91594 0.19557 0.19457 0.0
H249 H 0.80495 0.15657 0.16421 0.0
H250 H 0.82076 0.11419 0.24716 0.0
H251 H 0.96126 0.11769 0.2306 0.0
H252 H 0.99534 0.13241 0.28841 0.0
H253 H 0.97442 0.16368 0.23253 0.0
H254 H 0.95407 0.20324 0.30723 0.0
H255 H 0.97553 0.1723 0.36363 0.0
H256 H 0.928 0.18413 0.35753 0.0
H257 H 0.85091 0.06884 0.31843 0.0
H258 H 0.89185 0.0283 0.38582 0.0
H259 H 0.9824 0.09924 0.37852 0.0
C260 C 0.89471 0.17894 0.20672 0.0
C261 C 0.85919 0.1794 0.17318 0.0
C262 C 0.83217 0.15701 0.18979 0.0
C263 C 0.84092 0.13273 0.23669 0.0
C264 C 0.87651 0.13199 0.26755 0.0
C265 C 0.90274 0.1552 0.25455 0.0
C266 C 0.93929 0.14775 0.29358 0.0
C267 C 0.96933 0.1399 0.25919 0.0
C268 C 0.94985 0.17869 0.33283 0.0
C269 C 0.93011 0.11502 0.32737 0.0
C270 C 0.89361 0.10664 0.3118 0.0
C271 C 0.87924 0.07566 0.33235 0.0
C272 C 0.90269 0.05271 0.3701 0.0
C273 C 0.93993 0.06102 0.38732 0.0
C274 C 0.95378 0.0928 0.36652 0.0
H275 H 0.34842 0.42776 0.60538 0.0
H276 H 0.30443 0.34148 0.69816 0.0
H277 H 0.34217 0.36049 0.78866 0.0
H278 H 0.43973 0.42186 0.68545 0.0
H279 H 0.44604 0.46924 0.68151 0.0
H280 H 0.41573 0.44843 0.62514 0.0
H281 H 0.3626 0.49003 0.6387 0.0
H282 H 0.3929 0.51128 0.69438 0.0
H283 H 0.35092 0.49236 0.7086 0.0
H284 H 0.38528 0.39114 0.86979 0.0
H285 H 0.42559 0.43168 0.93176 0.0
H286 H 0.44035 0.49518 0.78134 0.0
C287 C 0.34643 0.41276 0.64458 0.0
C288 C 0.32334 0.38319 0.6447 0.0
C289 C 0.32197 0.36425 0.6971 0.0
C290 C 0.34337 0.37479 0.74858 0.0
C291 C 0.3662 0.40397 0.74654 0.0
C292 C 0.36767 0.42257 0.69562 0.0
C293 C 0.39379 0.45311 0.70379 0.0
C294 C 0.42571 0.44782 0.67209 0.0
C295 C 0.37385 0.48879 0.6853 0.0
C296 C 0.40642 0.44949 0.76757 0.0
C297 C 0.39068 0.4209 0.79191 0.0
C298 C 0.39791 0.4134 0.85096 0.0
C299 C 0.42101 0.43632 0.88576 0.0
C300 C 0.43608 0.46638 0.86111 0.0
C301 C 0.42924 0.47234 0.80131 0.0
H302 H 0.57425 0.66372 0.39039 0.0
H303 H 0.68406 0.61899 0.42877 0.0
H304 H 0.67436 0.59316 0.33412 0.0
H305 H 0.5323 0.59102 0.32688 0.0
H306 H 0.50043 0.61538 0.27233 0.0
H307 H 0.51817 0.63547 0.33845 0.0
H308 H 0.54111 0.68866 0.28207 0.0
H309 H 0.52361 0.66838 0.21563 0.0
H310 H 0.57099 0.68056 0.23242 0.0
H311 H 0.65144 0.56721 0.2415 0.0
H312 H 0.61447 0.53669 0.162 0.0
H313 H 0.51841 0.59587 0.18317 0.0
C314 C 0.59652 0.64911 0.37839 0.0
C315 C 0.63002 0.64359 0.41689 0.0
C316 C 0.65821 0.62368 0.40002 0.0
C317 C 0.65307 0.60917 0.34609 0.0
C318 C 0.61964 0.61486 0.30938 0.0
C319 C 0.59172 0.63415 0.32482 0.0
C320 C 0.55712 0.63288 0.27999 0.0
C321 C 0.52514 0.61776 0.30597 0.0
C322 C 0.54764 0.66982 0.2508 0.0
C323 C 0.56923 0.60787 0.23888 0.0
C324 C 0.60586 0.59899 0.2557 0.0
C325 C 0.62298 0.57447 0.22727 0.0
C326 C 0.60184 0.5574 0.18205 0.0
C327 C 0.56398 0.56464 0.16606 0.0
C328 C 0.54759 0.59091 0.19355 0.0
H329 H 0.86679 0.17631 0.80953 0.0
H330 H 0.85949 0.07887 0.91106 0.0
H331 H 0.86927 0.04394 0.8301 0.0
H332 H 0.82477 0.14089 0.66712 0.0
H333 H 0.85569 0.16604 0.63123 0.0
H334 H 0.84103 0.1832 0.69284 0.0
H335 H 0.90856 0.18912 0.74331 0.0
H336 H 0.92318 0.17279 0.68163 0.0
H337 H 0.93853 0.15082 0.75083 0.0
H338 H 0.88983 0.02003 0.74437 0.0
H339 H 0.92503 0.01058 0.66781 0.0
H340 H 0.91719 0.12311 0.62106 0.0
C341 C 0.8662 0.14762 0.81422 0.0
C342 C 0.86209 0.13037 0.8665 0.0
C343 C 0.86225 0.09274 0.87125 0.0
C344 C 0.86756 0.07262 0.8253 0.0
C345 C 0.87215 0.09045 0.77454 0.0
C346 C 0.87142 0.12717 0.7688 0.0
C347 C 0.88154 0.1401 0.71279 0.0
C348 C 0.8488 0.15866 0.67368 0.0
C349 C 0.91493 0.16461 0.72278 0.0
C350 C 0.89045 0.1051 0.68955 0.0
C351 C 0.88383 0.07661 0.72481 0.0
C352 C 0.89424 0.04202 0.71562 0.0
C353 C 0.91389 0.03677 0.67155 0.0
C354 C 0.92339 0.06611 0.63821 0.0
C355 C 0.90949 0.10018 0.64517 0.0
H356 H 0.32016 0.48394 0.30699 0.0
H357 H 0.29338 0.37474 0.26849 0.0
H358 H 0.32106 0.38149 0.18235 0.0
H359 H 0.30966 0.51983 0.15248 0.0
H360 H 0.34787 0.54896 0.17051 0.0
H361 H 0.31899 0.53843 0.22191 0.0
H362 H 0.37551 0.5163 0.29595 0.0
H363 H 0.40441 0.52699 0.24518 0.0
H364 H 0.40489 0.48254 0.27686 0.0
H365 H 0.36173 0.39555 0.11355 0.0
H366 H 0.41305 0.41581 0.0682 0.0
H367 H 0.41252 0.51658 0.14762 0.0
C368 C 0.319 0.46181 0.27938 0.0
C369 C 0.30442 0.42886 0.29436 0.0
C370 C 0.30414 0.40032 0.25775 0.0
C371 C 0.31965 0.40397 0.20849 0.0
C372 C 0.33484 0.43648 0.19589 0.0
C373 C 0.33432 0.46507 0.22997 0.0
C374 C 0.35653 0.49556 0.21116 0.0
C375 C 0.33178 0.5276 0.18762 0.0
C376 C 0.38714 0.50591 0.26019 0.0
C377 C 0.37172 0.47877 0.16381 0.0
C378 C 0.35809 0.44497 0.15474 0.0
C379 C 0.37164 0.42237 0.11875 0.0
C380 C 0.40068 0.43406 0.09308 0.0
C381 C 0.41566 0.46804 0.10328 0.0
C382 C 0.40026 0.49112 0.1374 0.0
H383 H 0.17949 0.86993 0.88007 0.0
H384 H 0.14383 0.92331 0.01843 0.0
H385 H 0.09774 0.95651 0.94965 0.0
H386 H 0.17239 0.94468 0.78411 0.0
H387 H 0.15473 0.92184 0.72024 0.0
H388 H 0.18267 0.89817 0.7801 0.0
H389 H 0.1314 0.85207 0.78199 0.0
H390 H 0.10323 0.87583 0.72219 0.0
H391 H 0.08622 0.86704 0.78751 0.0
H392 H 0.05909 0.98683 0.87037 0.0
H393 H 0.03134 0.01763 0.77996 0.0
H394 H 0.0903 0.94813 0.68724 0.0
C395 C 0.16147 0.88815 0.89563 0.0
C396 C 0.16532 0.89392 0.95478 0.0
C397 C 0.14166 0.91846 0.97349 0.0
C398 C 0.11507 0.93732 0.93477 0.0
C399 C 0.11217 0.93149 0.87709 0.0
C400 C 0.1346 0.90778 0.85701 0.0
C401 C 0.12682 0.90925 0.79187 0.0
C402 C 0.16121 0.91909 0.76768 0.0
C403 C 0.11099 0.87394 0.76957 0.0
C404 C 0.09804 0.93873 0.77923 0.0
C405 C 0.08954 0.9502 0.82948 0.0
C406 C 0.06516 0.97796 0.83056 0.0
C407 C 0.04963 0.99534 0.77896 0.0
C408 C 0.05876 0.98528 0.72679 0.0
C409 C 0.08252 0.95594 0.72653 0.0
loop_
_geom_bond_atom_site_label_1
_geom_bond_atom_site_label_2
_geom_bond_distance
_geom_bond_site_symmetry_2
_ccdc_geom_bond_type
O0 Cd1 2.300 1_556 S
O0 C7 1.275 1_556 S
Cd1 O0 2.300 1_554 S
Cd1 O9 2.381 . S
Cd1 O10 2.378 . S
O2 Cd3 2.385 . S
O2 C7 1.255 . S
Cd3 O2 2.385 . S
Cd3 O4 2.317 . S
O4 Cd3 2.317 . S
O4 C5 1.232 . S
C5 O4 1.232 . S
C5 O6 1.218 . S
O6 C5 1.218 . S
C7 O0 1.275 1_554 S
C7 O2 1.255 . S
C8 O9 1.258 . S
C8 O10 1.256 . S
O9 Cd1 2.381 . S
O9 C8 1.258 . S
O10 Cd1 2.378 . S
O10 C8 1.256 . S
O11 Cd12 2.300 . S
O11 C18 1.275 . S
Cd12 O11 2.300 . S
Cd12 O20 2.381 . S
Cd12 O21 2.378 . S
O13 Cd14 2.385 . S
O13 C18 1.255 . S
Cd14 O13 2.385 . S
Cd14 O15 2.317 . S
O15 Cd14 2.317 . S
O15 C16 1.232 . S
C16 O15 1.232 . S
C16 O17 1.218 . S
O17 C16 1.218 . S
C18 O11 1.275 . S
C18 O13 1.255 . S
C19 O20 1.258 . S
C19 O21 1.256 . S
O20 Cd12 2.381 . S
O20 C19 1.258 . S
O21 Cd12 2.378 . S
O21 C19 1.256 . S
O22 Cd23 2.300 . S
O22 C29 1.275 . S
Cd23 O22 2.300 . S
Cd23 O31 2.381 . S
Cd23 O32 2.378 1_554 S
O24 Cd25 2.385 1_554 S
O24 C29 1.255 . S
Cd25 O24 2.385 1_556 S
Cd25 O26 2.317 . S
O26 Cd25 2.317 . S
O26 C27 1.232 . S
C27 O26 1.232 . S
C27 O28 1.218 . S
O28 C27 1.218 . S
C29 O22 1.275 . S
C29 O24 1.255 . S
C30 O31 1.258 . S
C30 O32 1.256 1_554 S
O31 Cd23 2.381 . S
O31 C30 1.258 . S
O32 Cd23 2.378 1_556 S
O32 C30 1.256 1_556 S
O33 Cd34 2.300 . S
O33 C40 1.275 . S
Cd34 O33 2.300 . S
Cd34 O42 2.381 . S
Cd34 O43 2.378 . S
O35 Cd36 2.385 . S
O35 C40 1.255 . S
Cd36 O35 2.385 . S
Cd36 O37 2.317 . S
O37 Cd36 2.317 . S
O37 C38 1.232 . S
C38 O37 1.232 . S
C38 O39 1.218 . S
O39 C38 1.218 . S
C40 O33 1.275 . S
C40 O35 1.255 . S
C41 O42 1.258 . S
C41 O43 1.256 . S
O42 Cd34 2.381 . S
O42 C41 1.258 . S
O43 Cd34 2.378 . S
O43 C41 1.256 . S
O44 Mn45 2.163 1_655 S
O44 C58 1.244 . S
Mn45 O44 2.163 1_455 S
Mn45 O48 2.160 1_545 S
Mn45 O49 2.221 . S
Mn45 O51 2.163 1_455 S
Mn45 O53 2.160 1_545 S
Mn45 O63 2.221 1_445 S
O46 Mn47 2.087 1_545 S
O46 C58 1.256 . S
Mn47 O46 2.087 1_565 S
Mn47 O54 2.089 1_655 S
Mn47 O63 2.290 . S
Mn47 O64 2.251 . S
O48 Mn45 2.160 1_565 S
O48 C59 1.239 . S
O49 Mn45 2.221 . S
O49 Mn50 2.290 . S
O49 C60 1.278 . S
Mn50 O49 2.290 . S
Mn50 O52 2.089 . S
Mn50 O55 2.251 . S
Mn50 O56 2.092 . S
O51 Mn45 2.163 1_655 S
O51 C61 1.244 . S
O52 Mn50 2.089 . S
O52 C59 1.256 1_545 S
O53 Mn45 2.160 1_565 S
O53 C62 1.239 . S
O54 Mn47 2.089 1_455 S
O54 C62 1.256 . S
O55 Mn50 2.251 . S
O55 C60 1.241 . S
O56 Mn50 2.092 . S
O56 C61 1.252 1_455 S
C57 O63 1.278 . S
C57 O64 1.241 . S
C58 O44 1.244 . S
C58 O46 1.256 . S
C59 O48 1.239 . S
C59 O52 1.256 1_565 S
C60 O49 1.278 . S
C60 O55 1.241 . S
C61 O51 1.244 . S
C61 O56 1.252 1_655 S
C62 O53 1.239 . S
C62 O54 1.256 . S
O63 Mn45 2.221 1_665 S
O63 Mn47 2.290 . S
O63 C57 1.278 . S
O64 Mn47 2.251 . S
O64 C57 1.241 . S
O65 Mn66 2.163 . S
O65 C79 1.244 . S
Mn66 O65 2.163 . S
Mn66 O69 2.160 1_554 S
Mn66 O70 2.221 1_554 S
Mn66 O72 2.163 1_554 S
Mn66 O74 2.160 . S
Mn66 O84 2.221 . S
O67 Mn68 2.087 . S
O67 C79 1.256 . S
Mn68 O67 2.087 . S
Mn68 O75 2.089 . S
Mn68 O84 2.290 . S
Mn68 O85 2.251 . S
O69 Mn66 2.160 1_556 S
O69 C80 1.239 . S
O70 Mn66 2.221 1_556 S
O70 Mn71 2.290 . S
O70 C81 1.278 . S
Mn71 O70 2.290 . S
Mn71 O73 2.089 . S
Mn71 O76 2.251 . S
Mn71 O77 2.087 . S
O72 Mn66 2.163 1_556 S
O72 C82 1.244 . S
O73 Mn71 2.089 . S
O73 C80 1.256 . S
O74 Mn66 2.160 . S
O74 C83 1.239 . S
O75 Mn68 2.089 . S
O75 C83 1.256 . S
O76 Mn71 2.251 . S
O76 C81 1.241 . S
O77 Mn71 2.087 . S
O77 C82 1.256 . S
C78 O84 1.278 . S
C78 O85 1.241 . S
C79 O65 1.244 . S
C79 O67 1.256 . S
C80 O69 1.239 . S
C80 O73 1.256 . S
C81 O70 1.278 . S
C81 O76 1.241 . S
C82 O72 1.244 . S
C82 O77 1.256 . S
C83 O74 1.239 . S
C83 O75 1.256 . S
O84 Mn66 2.221 . S
O84 Mn68 2.290 . S
O84 C78 1.278 . S
O85 Mn68 2.251 . S
O85 C78 1.241 . S
H86 C98 0.930 . S
H87 C100 0.930 . S
H88 C101 0.930 . S
H89 C105 0.959 . S
H90 C105 0.959 . S
H91 C105 0.961 . S
H92 C106 0.960 . S
H93 C106 0.961 . S
H94 C106 0.959 . S
H95 C109 0.929 . S
H96 C110 0.931 . S
H97 C112 0.930 . S
C98 H86 0.930 . S
C98 C99 1.399 . S
C98 C103 1.399 . S
C99 C98 1.399 . S
C99 C100 1.376 . S
C100 H87 0.930 . S
C100 C99 1.376 . S
C100 C101 1.388 . S
C101 H88 0.930 . S
C101 C100 1.388 . S
C101 C102 1.390 . S
C102 C101 1.390 . S
C102 C103 1.394 . S
C102 C108 1.465 . S
C103 C98 1.399 . S
C103 C102 1.394 . S
C103 C104 1.516 . S
C104 C103 1.516 . S
C104 C105 1.502 . S
C104 C106 1.561 . S
C104 C107 1.526 . S
C105 H89 0.959 . S
C105 H90 0.959 . S
C105 H91 0.961 . S
C105 C104 1.502 . S
C106 H92 0.960 . S
C106 H93 0.961 . S
C106 H94 0.959 . S
C106 C104 1.561 . S
C107 C104 1.526 . S
C107 C108 1.396 . S
C107 C112 1.390 . S
C108 C102 1.465 . S
C108 C107 1.396 . S
C108 C109 1.399 . S
C109 H95 0.929 . S
C109 C108 1.399 . S
C109 C110 1.385 . S
C110 H96 0.931 . S
C110 C109 1.385 . S
C110 C111 1.389 . S
C111 C110 1.389 . S
C111 C112 1.387 . S
C112 H97 0.930 . S
C112 C107 1.390 . S
C112 C111 1.387 . S
H113 C125 0.930 . S
H114 C127 0.930 1_556 S
H115 C128 0.930 . S
H116 C132 0.959 . S
H117 C132 0.959 . S
H118 C132 0.961 . S
H119 C133 0.960 . S
H120 C133 0.961 . S
H121 C133 0.959 . S
H122 C136 0.929 . S
H123 C137 0.931 . S
H124 C139 0.930 . S
C125 H113 0.930 . S
C125 C126 1.399 . S
C125 C130 1.399 . S
C126 C125 1.399 . S
C126 C127 1.376 . S
C127 H114 0.930 1_554 S
C127 C126 1.376 . S
C127 C128 1.388 1_554 S
C128 H115 0.930 . S
C128 C127 1.388 1_556 S
C128 C129 1.390 1_556 S
C129 C128 1.390 1_554 S
C129 C130 1.394 . S
C129 C135 1.465 . S
C130 C125 1.399 . S
C130 C129 1.394 . S
C130 C131 1.516 . S
C131 C130 1.516 . S
C131 C132 1.502 . S
C131 C133 1.561 . S
C131 C134 1.526 . S
C132 H116 0.959 . S
C132 H117 0.959 . S
C132 H118 0.961 . S
C132 C131 1.502 . S
C133 H119 0.960 . S
C133 H120 0.961 . S
C133 H121 0.959 . S
C133 C131 1.561 . S
C134 C131 1.526 . S
C134 C135 1.396 . S
C134 C139 1.390 . S
C135 C129 1.465 . S
C135 C134 1.396 . S
C135 C136 1.399 1_554 S
C136 H122 0.929 . S
C136 C135 1.399 1_556 S
C136 C137 1.385 . S
C137 H123 0.931 . S
C137 C136 1.385 . S
C137 C138 1.389 1_556 S
C138 C137 1.389 1_554 S
C138 C139 1.387 . S
C139 H124 0.930 . S
C139 C134 1.390 . S
C139 C138 1.387 . S
H140 C152 0.930 . S
H141 C154 0.930 . S
H142 C155 0.930 . S
H143 C159 0.959 . S
H144 C159 0.959 . S
H145 C159 0.961 . S
H146 C160 0.960 . S
H147 C160 0.961 . S
H148 C160 0.959 . S
H149 C163 0.929 . S
H150 C164 0.931 . S
H151 C166 0.930 . S
C152 H140 0.930 . S
C152 C153 1.399 . S
C152 C157 1.399 . S
C153 C152 1.399 . S
C153 C154 1.376 . S
C154 H141 0.930 . S
C154 C153 1.376 . S
C154 C155 1.388 . S
C155 H142 0.930 . S
C155 C154 1.388 . S
C155 C156 1.390 . S
C156 C155 1.390 . S
C156 C157 1.394 . S
C156 C162 1.465 . S
C157 C152 1.399 . S
C157 C156 1.394 . S
C157 C158 1.516 . S
C158 C157 1.516 . S
C158 C159 1.502 . S
C158 C160 1.561 . S
C158 C161 1.526 . S
C159 H143 0.959 . S
C159 H144 0.959 . S
C159 H145 0.961 . S
C159 C158 1.502 . S
C160 H146 0.960 . S
C160 H147 0.961 . S
C160 H148 0.959 . S
C160 C158 1.561 . S
C161 C158 1.526 . S
C161 C162 1.396 . S
C161 C166 1.390 . S
C162 C156 1.465 . S
C162 C161 1.396 . S
C162 C163 1.399 . S
C163 H149 0.929 . S
C163 C162 1.399 . S
C163 C164 1.385 . S
C164 H150 0.931 . S
C164 C163 1.385 . S
C164 C165 1.389 . S
C165 C164 1.389 . S
C165 C166 1.387 . S
C166 H151 0.930 . S
C166 C161 1.390 . S
C166 C165 1.387 . S
H167 C179 0.930 . S
H168 C181 0.930 . S
H169 C182 0.930 . S
H170 C186 0.959 . S
H171 C186 0.959 . S
H172 C186 0.961 . S
H173 C187 0.960 . S
H174 C187 0.961 . S
H175 C187 0.959 . S
H176 C190 0.929 . S
H177 C191 0.931 . S
H178 C193 0.930 . S
C179 H167 0.930 . S
C179 C180 1.399 . S
C179 C184 1.399 . S
C180 C179 1.399 . S
C180 C181 1.376 1_554 S
C181 H168 0.930 . S
C181 C180 1.376 1_556 S
C181 C182 1.388 . S
C182 H169 0.930 . S
C182 C181 1.388 . S
C182 C183 1.390 . S
C183 C182 1.390 . S
C183 C184 1.394 1_556 S
C183 C189 1.465 . S
C184 C179 1.399 . S
C184 C183 1.394 1_554 S
C184 C185 1.516 . S
C185 C184 1.516 . S
C185 C186 1.502 . S
C185 C187 1.561 . S
C185 C188 1.526 . S
C186 H170 0.959 . S
C186 H171 0.959 . S
C186 H172 0.961 . S
C186 C185 1.502 . S
C187 H173 0.960 . S
C187 H174 0.961 . S
C187 H175 0.959 . S
C187 C185 1.561 . S
C188 C185 1.526 . S
C188 C189 1.396 1_554 S
C188 C193 1.390 . S
C189 C183 1.465 . S
C189 C188 1.396 1_556 S
C189 C190 1.399 . S
C190 H176 0.929 . S
C190 C189 1.399 . S
C190 C191 1.385 . S
C191 H177 0.931 . S
C191 C190 1.385 . S
C191 C192 1.389 1_556 S
C192 C191 1.389 1_554 S
C192 C193 1.387 . S
C193 H178 0.930 . S
C193 C188 1.390 . S
C193 C192 1.387 . S
H194 C206 0.930 . S
H195 C208 0.930 . S
H196 C209 0.930 . S
H197 C213 0.959 . S
H198 C213 0.959 . S
H199 C213 0.961 . S
H200 C214 0.960 . S
H201 C214 0.961 . S
H202 C214 0.959 . S
H203 C217 0.929 1_545 S
H204 C218 0.931 1_545 S
H205 C220 0.930 . S
C206 H194 0.930 . S
C206 C207 1.399 . S
C206 C211 1.399 . S
C207 C206 1.399 . S
C207 C208 1.376 . S
C208 H195 0.930 . S
C208 C207 1.376 . S
C208 C209 1.388 . S
C209 H196 0.930 . S
C209 C208 1.388 . S
C209 C210 1.390 . S
C210 C209 1.390 . S
C210 C211 1.394 . S
C210 C216 1.465 . S
C211 C206 1.399 . S
C211 C210 1.394 . S
C211 C212 1.516 . S
C212 C211 1.516 . S
C212 C213 1.502 . S
C212 C214 1.561 . S
C212 C215 1.526 . S
C213 H197 0.959 . S
C213 H198 0.959 . S
C213 H199 0.961 . S
C213 C212 1.502 . S
C214 H200 0.960 . S
C214 H201 0.961 . S
C214 H202 0.959 . S
C214 C212 1.561 . S
C215 C212 1.526 . S
C215 C216 1.396 . S
C215 C220 1.390 . S
C216 C210 1.465 . S
C216 C215 1.396 . S
C216 C217 1.399 . S
C217 H203 0.929 1_565 S
C217 C216 1.399 . S
C217 C218 1.385 . S
C218 H204 0.931 1_565 S
C218 C217 1.385 . S
C218 C219 1.389 . S
C219 C218 1.389 . S
C219 C220 1.387 . S
C220 H205 0.930 . S
C220 C215 1.390 . S
C220 C219 1.387 . S
H221 C233 0.930 . S
H222 C235 0.930 . S
H223 C236 0.930 . S
H224 C240 0.959 . S
H225 C240 0.959 . S
H226 C240 0.961 . S
H227 C241 0.960 . S
H228 C241 0.961 . S
H229 C241 0.959 . S
H230 C244 0.929 . S
H231 C245 0.931 . S
H232 C247 0.930 . S
C233 H221 0.930 . S
C233 C234 1.399 . S
C233 C238 1.399 . S
C234 C233 1.399 . S
C234 C235 1.376 . S
C235 H222 0.930 . S
C235 C234 1.376 . S
C235 C236 1.388 . S
C236 H223 0.930 . S
C236 C235 1.388 . S
C236 C237 1.390 . S
C237 C236 1.390 . S
C237 C238 1.394 . S
C237 C243 1.465 . S
C238 C233 1.399 . S
C238 C237 1.394 . S
C238 C239 1.516 . S
C239 C238 1.516 . S
C239 C240 1.502 . S
C239 C241 1.561 . S
C239 C242 1.526 . S
C240 H224 0.959 . S
C240 H225 0.959 . S
C240 H226 0.961 . S
C240 C239 1.502 . S
C241 H227 0.960 . S
C241 H228 0.961 . S
C241 H229 0.959 . S
C241 C239 1.561 . S
C242 C239 1.526 . S
C242 C243 1.396 . S
C242 C247 1.390 . S
C243 C237 1.465 . S
C243 C242 1.396 . S
C243 C244 1.399 . S
C244 H230 0.929 . S
C244 C243 1.399 . S
C244 C245 1.385 . S
C245 H231 0.931 . S
C245 C244 1.385 . S
C245 C246 1.389 . S
C246 C245 1.389 . S
C246 C247 1.387 . S
C247 H232 0.930 . S
C247 C242 1.390 . S
C247 C246 1.387 . S
H248 C260 0.930 . S
H249 C262 0.930 . S
H250 C263 0.930 . S
H251 C267 0.959 . S
H252 C267 0.959 . S
H253 C267 0.961 . S
H254 C268 0.960 . S
H255 C268 0.961 . S
H256 C268 0.959 . S
H257 C271 0.929 . S
H258 C272 0.931 . S
H259 C274 0.930 . S
C260 H248 0.930 . S
C260 C261 1.399 . S
C260 C265 1.399 . S
C261 C260 1.399 . S
C261 C262 1.376 . S
C262 H249 0.930 . S
C262 C261 1.376 . S
C262 C263 1.388 . S
C263 H250 0.930 . S
C263 C262 1.388 . S
C263 C264 1.390 . S
C264 C263 1.390 . S
C264 C265 1.394 . S
C264 C270 1.465 . S
C265 C260 1.399 . S
C265 C264 1.394 . S
C265 C266 1.516 . S
C266 C265 1.516 . S
C266 C267 1.502 . S
C266 C268 1.561 . S
C266 C269 1.526 . S
C267 H251 0.959 . S
C267 H252 0.959 . S
C267 H253 0.961 . S
C267 C266 1.502 . S
C268 H254 0.960 . S
C268 H255 0.961 . S
C268 H256 0.959 . S
C268 C266 1.561 . S
C269 C266 1.526 . S
C269 C270 1.396 . S
C269 C274 1.390 . S
C270 C264 1.465 . S
C270 C269 1.396 . S
C270 C271 1.399 . S
C271 H257 0.929 . S
C271 C270 1.399 . S
C271 C272 1.385 . S
C272 H258 0.931 . S
C272 C271 1.385 . S
C272 C273 1.389 . S
C273 C272 1.389 . S
C273 C274 1.387 . S
C274 H259 0.930 . S
C274 C269 1.390 . S
C274 C273 1.387 . S
H275 C287 0.930 . S
H276 C289 0.930 . S
H277 C290 0.930 . S
H278 C294 0.959 . S
H279 C294 0.959 . S
H280 C294 0.961 . S
H281 C295 0.960 . S
H282 C295 0.961 . S
H283 C295 0.959 . S
H284 C298 0.929 . S
H285 C299 0.931 . S
H286 C301 0.930 . S
C287 H275 0.930 . S
C287 C288 1.399 . S
C287 C292 1.399 . S
C288 C287 1.399 . S
C288 C289 1.376 . S
C289 H276 0.930 . S
C289 C288 1.376 . S
C289 C290 1.388 . S
C290 H277 0.930 . S
C290 C289 1.388 . S
C290 C291 1.390 . S
C291 C290 1.390 . S
C291 C292 1.394 . S
C291 C297 1.465 . S
C292 C287 1.399 . S
C292 C291 1.394 . S
C292 C293 1.516 . S
C293 C292 1.516 . S
C293 C294 1.502 . S
C293 C295 1.561 . S
C293 C296 1.526 . S
C294 H278 0.959 . S
C294 H279 0.959 . S
C294 H280 0.961 . S
C294 C293 1.502 . S
C295 H281 0.960 . S
C295 H282 0.961 . S
C295 H283 0.959 . S
C295 C293 1.561 . S
C296 C293 1.526 . S
C296 C297 1.396 . S
C296 C301 1.390 . S
C297 C291 1.465 . S
C297 C296 1.396 . S
C297 C298 1.399 . S
C298 H284 0.929 . S
C298 C297 1.399 . S
C298 C299 1.385 . S
C299 H285 0.931 . S
C299 C298 1.385 . S
C299 C300 1.389 . S
C300 C299 1.389 . S
C300 C301 1.387 . S
C301 H286 0.930 . S
C301 C296 1.390 . S
C301 C300 1.387 . S
H302 C314 0.930 . S
H303 C316 0.930 . S
H304 C317 0.930 . S
H305 C321 0.959 . S
H306 C321 0.959 . S
H307 C321 0.961 . S
H308 C322 0.960 . S
H309 C322 0.961 . S
H310 C322 0.959 . S
H311 C325 0.929 . S
H312 C326 0.931 . S
H313 C328 0.930 . S
C314 H302 0.930 . S
C314 C315 1.399 . S
C314 C319 1.399 . S
C315 C314 1.399 . S
C315 C316 1.376 . S
C316 H303 0.930 . S
C316 C315 1.376 . S
C316 C317 1.388 . S
C317 H304 0.930 . S
C317 C316 1.388 . S
C317 C318 1.390 . S
C318 C317 1.390 . S
C318 C319 1.394 . S
C318 C324 1.465 . S
C319 C314 1.399 . S
C319 C318 1.394 . S
C319 C320 1.516 . S
C320 C319 1.516 . S
C320 C321 1.502 . S
C320 C322 1.561 . S
C320 C323 1.526 . S
C321 H305 0.959 . S
C321 H306 0.959 . S
C321 H307 0.961 . S
C321 C320 1.502 . S
C322 H308 0.960 . S
C322 H309 0.961 . S
C322 H310 0.959 . S
C322 C320 1.561 . S
C323 C320 1.526 . S
C323 C324 1.396 . S
C323 C328 1.390 . S
C324 C318 1.465 . S
C324 C323 1.396 . S
C324 C325 1.399 . S
C325 H311 0.929 . S
C325 C324 1.399 . S
C325 C326 1.385 . S
C326 H312 0.931 . S
C326 C325 1.385 . S
C326 C327 1.389 . S
C327 C326 1.389 . S
C327 C328 1.387 . S
C328 H313 0.930 . S
C328 C323 1.390 . S
C328 C327 1.387 . S
H329 C341 0.930 . S
H330 C343 0.930 . S
H331 C344 0.930 . S
H332 C348 0.959 . S
H333 C348 0.959 . S
H334 C348 0.961 . S
H335 C349 0.960 . S
H336 C349 0.961 . S
H337 C349 0.959 . S
H338 C352 0.929 . S
H339 C353 0.931 . S
H340 C355 0.930 . S
C341 H329 0.930 . S
C341 C342 1.399 . S
C341 C346 1.399 . S
C342 C341 1.399 . S
C342 C343 1.376 . S
C343 H330 0.930 . S
C343 C342 1.376 . S
C343 C344 1.388 . S
C344 H331 0.930 . S
C344 C343 1.388 . S
C344 C345 1.390 . S
C345 C344 1.390 . S
C345 C346 1.394 . S
C345 C351 1.465 . S
C346 C341 1.399 . S
C346 C345 1.394 . S
C346 C347 1.516 . S
C347 C346 1.516 . S
C347 C348 1.502 . S
C347 C349 1.561 . S
C347 C350 1.526 . S
C348 H332 0.959 . S
C348 H333 0.959 . S
C348 H334 0.961 . S
C348 C347 1.502 . S
C349 H335 0.960 . S
C349 H336 0.961 . S
C349 H337 0.959 . S
C349 C347 1.561 . S
C350 C347 1.526 . S
C350 C351 1.396 . S
C350 C355 1.390 . S
C351 C345 1.465 . S
C351 C350 1.396 . S
C351 C352 1.399 . S
C352 H338 0.929 . S
C352 C351 1.399 . S
C352 C353 1.385 . S
C353 H339 0.931 . S
C353 C352 1.385 . S
C353 C354 1.389 . S
C354 C353 1.389 . S
C354 C355 1.387 . S
C355 H340 0.930 . S
C355 C350 1.390 . S
C355 C354 1.387 . S
H356 C368 0.930 . S
H357 C370 0.930 . S
H358 C371 0.930 . S
H359 C375 0.959 . S
H360 C375 0.959 . S
H361 C375 0.961 . S
H362 C376 0.960 . S
H363 C376 0.961 . S
H364 C376 0.959 . S
H365 C379 0.929 . S
H366 C380 0.931 . S
H367 C382 0.930 . S
C368 H356 0.930 . S
C368 C369 1.399 . S
C368 C373 1.399 . S
C369 C368 1.399 . S
C369 C370 1.376 . S
C370 H357 0.930 . S
C370 C369 1.376 . S
C370 C371 1.388 . S
C371 H358 0.930 . S
C371 C370 1.388 . S
C371 C372 1.390 . S
C372 C371 1.390 . S
C372 C373 1.394 . S
C372 C378 1.465 . S
C373 C368 1.399 . S
C373 C372 1.394 . S
C373 C374 1.516 . S
C374 C373 1.516 . S
C374 C375 1.502 . S
C374 C376 1.561 . S
C374 C377 1.526 . S
C375 H359 0.959 . S
C375 H360 0.959 . S
C375 H361 0.961 . S
C375 C374 1.502 . S
C376 H362 0.960 . S
C376 H363 0.961 . S
C376 H364 0.959 . S
C376 C374 1.561 . S
C377 C374 1.526 . S
C377 C378 1.396 . S
C377 C382 1.390 . S
C378 C372 1.465 . S
C378 C377 1.396 . S
C378 C379 1.399 . S
C379 H365 0.929 . S
C379 C378 1.399 . S
C379 C380 1.385 . S
C380 H366 0.931 . S
C380 C379 1.385 . S
C380 C381 1.389 . S
C381 C380 1.389 . S
C381 C382 1.387 . S
C382 H367 0.930 . S
C382 C377 1.390 . S
C382 C381 1.387 . S
H383 C395 0.930 . S
H384 C397 0.930 1_554 S
H385 C398 0.930 . S
H386 C402 0.959 . S
H387 C402 0.959 . S
H388 C402 0.961 . S
H389 C403 0.960 . S
H390 C403 0.961 . S
H391 C403 0.959 . S
H392 C406 0.929 1_545 S
H393 C407 0.931 1_545 S
H394 C409 0.930 . S
C395 H383 0.930 . S
C395 C396 1.399 . S
C395 C400 1.399 . S
C396 C395 1.399 . S
C396 C397 1.376 . S
C397 H384 0.930 1_556 S
C397 C396 1.376 . S
C397 C398 1.388 . S
C398 H385 0.930 . S
C398 C397 1.388 . S
C398 C399 1.390 . S
C399 C398 1.390 . S
C399 C400 1.394 . S
C399 C405 1.465 . S
C400 C395 1.399 . S
C400 C399 1.394 . S
C400 C401 1.516 . S
C401 C400 1.516 . S
C401 C402 1.502 . S
C401 C403 1.561 . S
C401 C404 1.526 . S
C402 H386 0.959 . S
C402 H387 0.959 . S
C402 H388 0.961 . S
C402 C401 1.502 . S
C403 H389 0.960 . S
C403 H390 0.961 . S
C403 H391 0.959 . S
C403 C401 1.561 . S
C404 C401 1.526 . S
C404 C405 1.396 . S
C404 C409 1.390 . S
C405 C399 1.465 . S
C405 C404 1.396 . S
C405 C406 1.399 . S
C406 H392 0.929 1_565 S
C406 C405 1.399 . S
C406 C407 1.385 . S
C407 H393 0.931 1_565 S
C407 C406 1.385 . S
C407 C408 1.389 . S
C408 C407 1.389 . S
C408 C409 1.387 . S
C409 H394 0.930 . S
C409 C404 1.390 . S
C409 C408 1.387 . S
C111 C60 1.186 . S
C99 C41 1.428 . S
C126 C8 1.426 . S
C138 C81 1.215 1_554 S
C153 C19 1.621 . S
C165 C57 1.375 . S
C180 C30 1.563 . S
C192 C78 1.418 . S
C219 C62 1.527 . S
C207 C5 1.319 . S
C246 C82 1.640 . S
C234 C18 1.655 . S
C261 C29 1.572 . S
C273 C58 1.519 . S
C288 C40 1.544 . S
C300 C80 1.558 . S
C327 C79 1.361 . S
C315 C16 1.211 . S
C354 C61 1.418 . S
C342 C27 1.242 . S
C381 C83 1.313 . S
C369 C38 1.293 . S
C396 C7 1.407 1_556 S
C408 C59 1.321 . S
