# Generated by pormake.
# Topology gar, (4,6)-cn, num edge types: 1
# Building blocks:
#     Node 0, Type 0, BuildingBlock: NAHDIM_clean_sbu_0, # of connection points: 4
#     Node 1, Type 0, BuildingBlock: NAHDIM_clean_sbu_0, # of connection points: 4
#     Node 2, Type 0, BuildingBlock: NAHDIM_clean_sbu_0, # of connection points: 4
#     Node 3, Type 0, BuildingBlock: NAHDIM_clean_sbu_0, # of connection points: 4
#     Node 4, Type 0, BuildingBlock: NAHDIM_clean_sbu_0, # of connection points: 4
#     Node 5, Type 0, BuildingBlock: NAHDIM_clean_sbu_0, # of connection points: 4
#     Node 6, Type 0, BuildingBlock: NAHDIM_clean_sbu_0, # of connection points: 4
#     Node 7, Type 0, BuildingBlock: NAHDIM_clean_sbu_0, # of connection points: 4
#     Node 8, Type 0, BuildingBlock: NAHDIM_clean_sbu_0, # of connection points: 4
#     Node 9, Type 0, BuildingBlock: NAHDIM_clean_sbu_0, # of connection points: 4
#     Node 10, Type 0, BuildingBlock: NAHDIM_clean_sbu_0, # of connection points: 4
#     Node 11, Type 0, BuildingBlock: NAHDIM_clean_sbu_0, # of connection points: 4
#     Node 12, Type 0, BuildingBlock: NAHDIM_clean_sbu_0, # of connection points: 4
#     Node 13, Type 0, BuildingBlock: NAHDIM_clean_sbu_0, # of connection points: 4
#     Node 14, Type 0, BuildingBlock: NAHDIM_clean_sbu_0, # of connection points: 4
#     Node 15, Type 0, BuildingBlock: NAHDIM_clean_sbu_0, # of connection points: 4
#     Node 16, Type 0, BuildingBlock: NAHDIM_clean_sbu_0, # of connection points: 4
#     Node 17, Type 0, BuildingBlock: NAHDIM_clean_sbu_0, # of connection points: 4
#     Node 18, Type 0, BuildingBlock: NAHDIM_clean_sbu_0, # of connection points: 4
#     Node 19, Type 0, BuildingBlock: NAHDIM_clean_sbu_0, # of connection points: 4
#     Node 20, Type 0, BuildingBlock: NAHDIM_clean_sbu_0, # of connection points: 4
#     Node 21, Type 0, BuildingBlock: NAHDIM_clean_sbu_0, # of connection points: 4
#     Node 22, Type 0, BuildingBlock: NAHDIM_clean_sbu_0, # of connection points: 4
#     Node 23, Type 0, BuildingBlock: NAHDIM_clean_sbu_0, # of connection points: 4
#     Node 24, Type 1, BuildingBlock: BETDIP_clean_sbu_0, # of connection points: 6
#     Node 25, Type 1, BuildingBlock: BETDIP_clean_sbu_0, # of connection points: 6
#     Node 26, Type 1, BuildingBlock: BETDIP_clean_sbu_0, # of connection points: 6
#     Node 27, Type 1, BuildingBlock: BETDIP_clean_sbu_0, # of connection points: 6
#     Node 28, Type 1, BuildingBlock: BETDIP_clean_sbu_0, # of connection points: 6
#     Node 29, Type 1, BuildingBlock: BETDIP_clean_sbu_0, # of connection points: 6
#     Node 30, Type 1, BuildingBlock: BETDIP_clean_sbu_0, # of connection points: 6
#     Node 31, Type 1, BuildingBlock: BETDIP_clean_sbu_0, # of connection points: 6
#     Node 32, Type 1, BuildingBlock: BETDIP_clean_sbu_0, # of connection points: 6
#     Node 33, Type 1, BuildingBlock: BETDIP_clean_sbu_0, # of connection points: 6
#     Node 34, Type 1, BuildingBlock: BETDIP_clean_sbu_0, # of connection points: 6
#     Node 35, Type 1, BuildingBlock: BETDIP_clean_sbu_0, # of connection points: 6
#     Node 36, Type 1, BuildingBlock: BETDIP_clean_sbu_0, # of connection points: 6
#     Node 37, Type 1, BuildingBlock: BETDIP_clean_sbu_0, # of connection points: 6
#     Node 38, Type 1, BuildingBlock: BETDIP_clean_sbu_0, # of connection points: 6
#     Node 39, Type 1, BuildingBlock: BETDIP_clean_sbu_0, # of connection points: 6
#     Edge 40, Type (0, 1), BuildingBlock: OJICUG_clean_linker_0, # of connection points: 2
#     Edge 41, Type (0, 1), BuildingBlock: OJICUG_clean_linker_0, # of connection points: 2
#     Edge 42, Type (0, 1), BuildingBlock: OJICUG_clean_linker_0, # of connection points: 2
#     Edge 43, Type (0, 1), BuildingBlock: OJICUG_clean_linker_0, # of connection points: 2
#     Edge 44, Type (0, 1), BuildingBlock: OJICUG_clean_linker_0, # of connection points: 2
#     Edge 45, Type (0, 1), BuildingBlock: OJICUG_clean_linker_0, # of connection points: 2
#     Edge 46, Type (0, 1), BuildingBlock: OJICUG_clean_linker_0, # of connection points: 2
#     Edge 47, Type (0, 1), BuildingBlock: OJICUG_clean_linker_0, # of connection points: 2
#     Edge 48, Type (0, 1), BuildingBlock: OJICUG_clean_linker_0, # of connection points: 2
#     Edge 49, Type (0, 1), BuildingBlock: OJICUG_clean_linker_0, # of connection points: 2
#     Edge 50, Type (0, 1), BuildingBlock: OJICUG_clean_linker_0, # of connection points: 2
#     Edge 51, Type (0, 1), BuildingBlock: OJICUG_clean_linker_0, # of connection points: 2
#     Edge 52, Type (0, 1), BuildingBlock: OJICUG_clean_linker_0, # of connection points: 2
#     Edge 53, Type (0, 1), BuildingBlock: OJICUG_clean_linker_0, # of connection points: 2
#     Edge 54, Type (0, 1), BuildingBlock: OJICUG_clean_linker_0, # of connection points: 2
#     Edge 55, Type (0, 1), BuildingBlock: OJICUG_clean_linker_0, # of connection points: 2
#     Edge 56, Type (0, 1), BuildingBlock: OJICUG_clean_linker_0, # of connection points: 2
#     Edge 57, Type (0, 1), BuildingBlock: OJICUG_clean_linker_0, # of connection points: 2
#     Edge 58, Type (0, 1), BuildingBlock: OJICUG_clean_linker_0, # of connection points: 2
#     Edge 59, Type (0, 1), BuildingBlock: OJICUG_clean_linker_0, # of connection points: 2
#     Edge 60, Type (0, 1), BuildingBlock: OJICUG_clean_linker_0, # of connection points: 2
#     Edge 61, Type (0, 1), BuildingBlock: OJICUG_clean_linker_0, # of connection points: 2
#     Edge 62, Type (0, 1), BuildingBlock: OJICUG_clean_linker_0, # of connection points: 2
#     Edge 63, Type (0, 1), BuildingBlock: OJICUG_clean_linker_0, # of connection points: 2
#     Edge 64, Type (0, 1), BuildingBlock: OJICUG_clean_linker_0, # of connection points: 2
#     Edge 65, Type (0, 1), BuildingBlock: OJICUG_clean_linker_0, # of connection points: 2
#     Edge 66, Type (0, 1), BuildingBlock: OJICUG_clean_linker_0, # of connection points: 2
#     Edge 67, Type (0, 1), BuildingBlock: OJICUG_clean_linker_0, # of connection points: 2
#     Edge 68, Type (0, 1), BuildingBlock: OJICUG_clean_linker_0, # of connection points: 2
#     Edge 69, Type (0, 1), BuildingBlock: OJICUG_clean_linker_0, # of connection points: 2
#     Edge 70, Type (0, 1), BuildingBlock: OJICUG_clean_linker_0, # of connection points: 2
#     Edge 71, Type (0, 1), BuildingBlock: OJICUG_clean_linker_0, # of connection points: 2
#     Edge 72, Type (0, 1), BuildingBlock: OJICUG_clean_linker_0, # of connection points: 2
#     Edge 73, Type (0, 1), BuildingBlock: OJICUG_clean_linker_0, # of connection points: 2
#     Edge 74, Type (0, 1), BuildingBlock: OJICUG_clean_linker_0, # of connection points: 2
#     Edge 75, Type (0, 1), BuildingBlock: OJICUG_clean_linker_0, # of connection points: 2
#     Edge 76, Type (0, 1), BuildingBlock: OJICUG_clean_linker_0, # of connection points: 2
#     Edge 77, Type (0, 1), BuildingBlock: OJICUG_clean_linker_0, # of connection points: 2
#     Edge 78, Type (0, 1), BuildingBlock: OJICUG_clean_linker_0, # of connection points: 2
#     Edge 79, Type (0, 1), BuildingBlock: OJICUG_clean_linker_0, # of connection points: 2
#     Edge 80, Type (0, 1), BuildingBlock: OJICUG_clean_linker_0, # of connection points: 2
#     Edge 81, Type (0, 1), BuildingBlock: OJICUG_clean_linker_0, # of connection points: 2
#     Edge 82, Type (0, 1), BuildingBlock: OJICUG_clean_linker_0, # of connection points: 2
#     Edge 83, Type (0, 1), BuildingBlock: OJICUG_clean_linker_0, # of connection points: 2
#     Edge 84, Type (0, 1), BuildingBlock: OJICUG_clean_linker_0, # of connection points: 2
#     Edge 85, Type (0, 1), BuildingBlock: OJICUG_clean_linker_0, # of connection points: 2
#     Edge 86, Type (0, 1), BuildingBlock: OJICUG_clean_linker_0, # of connection points: 2
#     Edge 87, Type (0, 1), BuildingBlock: OJICUG_clean_linker_0, # of connection points: 2
#     Edge 88, Type (0, 1), BuildingBlock: OJICUG_clean_linker_0, # of connection points: 2
#     Edge 89, Type (0, 1), BuildingBlock: OJICUG_clean_linker_0, # of connection points: 2
#     Edge 90, Type (0, 1), BuildingBlock: OJICUG_clean_linker_0, # of connection points: 2
#     Edge 91, Type (0, 1), BuildingBlock: OJICUG_clean_linker_0, # of connection points: 2
#     Edge 92, Type (0, 1), BuildingBlock: OJICUG_clean_linker_0, # of connection points: 2
#     Edge 93, Type (0, 1), BuildingBlock: OJICUG_clean_linker_0, # of connection points: 2
#     Edge 94, Type (0, 1), BuildingBlock: OJICUG_clean_linker_0, # of connection points: 2
#     Edge 95, Type (0, 1), BuildingBlock: OJICUG_clean_linker_0, # of connection points: 2
#     Edge 96, Type (0, 1), BuildingBlock: OJICUG_clean_linker_0, # of connection points: 2
#     Edge 97, Type (0, 1), BuildingBlock: OJICUG_clean_linker_0, # of connection points: 2
#     Edge 98, Type (0, 1), BuildingBlock: OJICUG_clean_linker_0, # of connection points: 2
#     Edge 99, Type (0, 1), BuildingBlock: OJICUG_clean_linker_0, # of connection points: 2
#     Edge 100, Type (0, 1), BuildingBlock: OJICUG_clean_linker_0, # of connection points: 2
#     Edge 101, Type (0, 1), BuildingBlock: OJICUG_clean_linker_0, # of connection points: 2
#     Edge 102, Type (0, 1), BuildingBlock: OJICUG_clean_linker_0, # of connection points: 2
#     Edge 103, Type (0, 1), BuildingBlock: OJICUG_clean_linker_0, # of connection points: 2
#     Edge 104, Type (0, 1), BuildingBlock: OJICUG_clean_linker_0, # of connection points: 2
#     Edge 105, Type (0, 1), BuildingBlock: OJICUG_clean_linker_0, # of connection points: 2
#     Edge 106, Type (0, 1), BuildingBlock: OJICUG_clean_linker_0, # of connection points: 2
#     Edge 107, Type (0, 1), BuildingBlock: OJICUG_clean_linker_0, # of connection points: 2
#     Edge 108, Type (0, 1), BuildingBlock: OJICUG_clean_linker_0, # of connection points: 2
#     Edge 109, Type (0, 1), BuildingBlock: OJICUG_clean_linker_0, # of connection points: 2
#     Edge 110, Type (0, 1), BuildingBlock: OJICUG_clean_linker_0, # of connection points: 2
#     Edge 111, Type (0, 1), BuildingBlock: OJICUG_clean_linker_0, # of connection points: 2
#     Edge 112, Type (0, 1), BuildingBlock: OJICUG_clean_linker_0, # of connection points: 2
#     Edge 113, Type (0, 1), BuildingBlock: OJICUG_clean_linker_0, # of connection points: 2
#     Edge 114, Type (0, 1), BuildingBlock: OJICUG_clean_linker_0, # of connection points: 2
#     Edge 115, Type (0, 1), BuildingBlock: OJICUG_clean_linker_0, # of connection points: 2
#     Edge 116, Type (0, 1), BuildingBlock: OJICUG_clean_linker_0, # of connection points: 2
#     Edge 117, Type (0, 1), BuildingBlock: OJICUG_clean_linker_0, # of connection points: 2
#     Edge 118, Type (0, 1), BuildingBlock: OJICUG_clean_linker_0, # of connection points: 2
#     Edge 119, Type (0, 1), BuildingBlock: OJICUG_clean_linker_0, # of connection points: 2
#     Edge 120, Type (0, 1), BuildingBlock: OJICUG_clean_linker_0, # of connection points: 2
#     Edge 121, Type (0, 1), BuildingBlock: OJICUG_clean_linker_0, # of connection points: 2
#     Edge 122, Type (0, 1), BuildingBlock: OJICUG_clean_linker_0, # of connection points: 2
#     Edge 123, Type (0, 1), BuildingBlock: OJICUG_clean_linker_0, # of connection points: 2
#     Edge 124, Type (0, 1), BuildingBlock: OJICUG_clean_linker_0, # of connection points: 2
#     Edge 125, Type (0, 1), BuildingBlock: OJICUG_clean_linker_0, # of connection points: 2
#     Edge 126, Type (0, 1), BuildingBlock: OJICUG_clean_linker_0, # of connection points: 2
#     Edge 127, Type (0, 1), BuildingBlock: OJICUG_clean_linker_0, # of connection points: 2
#     Edge 128, Type (0, 1), BuildingBlock: OJICUG_clean_linker_0, # of connection points: 2
#     Edge 129, Type (0, 1), BuildingBlock: OJICUG_clean_linker_0, # of connection points: 2
#     Edge 130, Type (0, 1), BuildingBlock: OJICUG_clean_linker_0, # of connection points: 2
#     Edge 131, Type (0, 1), BuildingBlock: OJICUG_clean_linker_0, # of connection points: 2
#     Edge 132, Type (0, 1), BuildingBlock: OJICUG_clean_linker_0, # of connection points: 2
#     Edge 133, Type (0, 1), BuildingBlock: OJICUG_clean_linker_0, # of connection points: 2
#     Edge 134, Type (0, 1), BuildingBlock: OJICUG_clean_linker_0, # of connection points: 2
#     Edge 135, Type (0, 1), BuildingBlock: OJICUG_clean_linker_0, # of connection points: 2
# Relax obj value: 0.258
# Max RMSD: 0.368
# Mean RMSD: 0.189
data_MOF--net-gar--node1-NAHDIM_clean_sbu_0--node2-BETDIP_clean_sbu_0--edge1-OJICUG_clean_linker_0
_symmetry_space_group_name_H-M    P1
_symmetry_Int_Tables_number       1
_symmetry_cell_setting            triclinic
loop_
_symmetry_equiv_pos_as_xyz
'x, y, z'
_cell_length_a     49.656252
_cell_length_b     42.042968
_cell_length_c     39.048566
_cell_angle_alpha  98.284392
_cell_angle_beta   100.8746
_cell_angle_gamma 102.78831
loop_
_atom_site_label
_atom_site_type_symbol
_atom_site_fract_x
_atom_site_fract_y
_atom_site_fract_z
_atom_type_partial_charge
C0 C 0.09875 0.36243 0.41134 0.0
O1 O 0.09847 0.36181 0.44484 0.0
O2 O 0.04264 0.32767 0.43384 0.0
Zn3 Zn 0.04875 0.3713 0.41887 0.0
O4 O 0.06176 0.40454 0.46382 0.0
C5 C 0.99513 0.34925 0.37424 0.0
O6 O 1.00541 0.32379 0.36529 0.0
O7 O 0.07866 0.3704 0.39202 0.0
C8 C 0.04273 0.40482 0.4814 0.0
O9 O 1.01708 0.38569 0.4678 0.0
C10 C 1.02095 0.31048 0.44131 0.0
O11 O 0.99772 0.32076 0.43907 0.0
O12 O 1.01199 0.37591 0.39268 0.0
C13 C 0.04234 0.78201 0.79224 0.0
O14 O 0.04256 0.7832 0.75883 0.0
O15 O 0.08304 0.73895 0.7436 0.0
Zn16 Zn 0.09347 0.77586 0.78586 0.0
O17 O 0.09912 0.81811 0.76968 0.0
C18 C 0.14374 0.75718 0.80529 0.0
O19 O 0.12942 0.72994 0.78239 0.0
O20 O 0.06314 0.77553 0.81171 0.0
C21 C 0.12173 0.83226 0.76168 0.0
O22 O 0.14271 0.81788 0.76261 0.0
C23 C 0.08445 0.7425 0.71213 0.0
O24 O 0.08962 0.77232 0.70446 0.0
O25 O 0.13077 0.77814 0.81568 0.0
C26 C 0.5985 0.86036 0.91164 0.0
O27 O 0.59772 0.85906 0.94489 0.0
O28 O 0.5414 0.82409 0.93203 0.0
Zn29 Zn 0.54791 0.86813 0.91791 0.0
O30 O 0.5602 0.90099 0.96331 0.0
C31 C 0.49453 0.8467 0.87203 0.0
O32 O 0.50407 0.82046 0.86399 0.0
O33 O 0.57842 0.86814 0.8921 0.0
C34 C 0.54091 0.90159 0.98043 0.0
O35 O 0.51512 0.88317 0.9661 0.0
C36 C 0.51951 0.80751 0.93966 0.0
O37 O 0.49679 0.81877 0.93794 0.0
O38 O 0.51174 0.8731 0.89057 0.0
C39 C 0.53971 0.27486 0.29041 0.0
O40 O 0.53951 0.2749 0.25669 0.0
O41 O 0.58005 0.23129 0.24117 0.0
Zn42 Zn 0.59069 0.26778 0.28382 0.0
O43 O 0.59487 0.30906 0.26541 0.0
C44 C 0.64148 0.25 0.30731 0.0
O45 O 0.6277 0.22108 0.287 0.0
O46 O 0.56045 0.26828 0.3099 0.0
C47 C 0.61789 0.32791 0.26313 0.0
O48 O 0.64206 0.32037 0.27314 0.0
C49 C 0.59549 0.23363 0.21865 0.0
O50 O 0.61799 0.25872 0.22492 0.0
O51 O 0.62812 0.27163 0.31395 0.0
C52 C 0.05311 0.82169 0.22197 0.0
O53 O 0.04675 0.80888 0.18784 0.0
O54 O 0.09496 0.79434 0.17212 0.0
Zn55 Zn 0.10672 0.84037 0.20438 0.0
O56 O 0.09916 0.87874 0.17837 0.0
C57 C 0.15677 0.82318 0.24385 0.0
O58 O 0.13812 0.7943 0.23801 0.0
O59 O 0.07878 0.83702 0.23691 0.0
C60 C 0.11206 0.89378 0.15761 0.0
O61 O 0.13399 0.88462 0.14925 0.0
C62 C 0.11167 0.7801 0.15863 0.0
O63 O 0.13779 0.7972 0.16121 0.0
O64 O 0.14853 0.8476 0.23311 0.0
C65 C 0.58161 0.80774 0.4805 0.0
O66 O 0.58733 0.82268 0.51394 0.0
O67 O 0.52519 0.75253 0.52108 0.0
Zn68 Zn 0.52551 0.79248 0.49444 0.0
O69 O 0.53777 0.83959 0.52466 0.0
C70 C 0.4655 0.79783 0.47121 0.0
O71 O 0.46766 0.80693 0.50539 0.0
O72 O 0.55598 0.79236 0.46529 0.0
C73 C 0.52897 0.85313 0.55017 0.0
O74 O 0.51038 0.8348 0.56389 0.0
C75 C 0.54587 0.75053 0.54509 0.0
O76 O 0.56802 0.77621 0.55637 0.0
O77 O 0.48628 0.78917 0.46081 0.0
C78 C 0.55535 0.32189 0.71993 0.0
O79 O 0.54991 0.30454 0.68752 0.0
O80 O 0.59924 0.29192 0.67475 0.0
Zn81 Zn 0.61103 0.33939 0.70414 0.0
O82 O 0.61087 0.37846 0.67612 0.0
C83 C 0.66932 0.32917 0.72819 0.0
O84 O 0.66324 0.30997 0.69674 0.0
O85 O 0.5806 0.3396 0.73387 0.0
C86 C 0.58814 0.3824 0.65753 0.0
O87 O 0.56433 0.35968 0.6537 0.0
C88 C 0.60674 0.2783 0.6481 0.0
O89 O 0.6239 0.29666 0.63261 0.0
O90 O 0.65115 0.34447 0.73674 0.0
C91 C 0.08392 0.31357 0.9818 0.0
O92 O 0.09012 0.32763 0.01558 0.0
O93 O 0.03786 0.25901 0.02664 0.0
Zn94 Zn 0.02975 0.29581 0.99884 0.0
O95 O 0.04063 0.34289 0.02801 0.0
C96 C 0.96904 0.30006 0.97767 0.0
O97 O 0.97393 0.31681 1.0102 0.0
O98 O 0.05829 0.2979 0.96702 0.0
C99 C 0.03314 0.35569 0.05505 0.0
O100 O 1.01664 0.33661 0.07065 0.0
C101 C 1.02407 0.24288 0.04584 0.0
O102 O 1.00046 0.24976 0.05111 0.0
O103 O 0.98847 0.28766 0.96804 0.0
C104 C 0.393 0.13897 0.3209 0.0
O105 O 0.37757 0.11535 0.29417 0.0
O106 O 0.45671 0.08298 0.28602 0.0
Zn107 Zn 0.43672 0.08799 0.33468 0.0
O108 O 0.46801 0.09409 0.38586 0.0
C109 C 0.40886 1.01059 0.32167 0.0
O110 O 0.42861 1.00858 0.30392 0.0
O111 O 0.41593 0.13318 0.33889 0.0
C112 C 0.47457 0.07019 0.40048 0.0
O113 O 0.46353 0.03963 0.38265 0.0
C114 C 0.47971 0.07388 0.2828 0.0
O115 O 0.49406 0.0666 0.31118 0.0
O116 O 0.4072 0.03999 0.33481 0.0
C117 C 0.33171 0.17848 0.58599 0.0
O118 O 0.33727 0.20953 0.60245 0.0
O119 O 0.2892 0.22348 0.61467 0.0
Zn120 Zn 0.27688 0.19121 0.56707 0.0
O121 O 0.2783 0.21503 0.52452 0.0
C122 C 0.22291 0.16407 0.58768 0.0
O123 O 0.2348 0.18634 0.61684 0.0
O124 O 0.30655 0.16413 0.56813 0.0
C125 C 0.2888 0.2462 0.52823 0.0
O126 O 0.29822 0.26426 0.56045 0.0
C127 C 0.27802 0.24612 0.62597 0.0
O128 O 0.25617 0.25158 0.60504 0.0
O129 O 0.23664 0.16093 0.5633 0.0
C130 C 0.18781 0.05465 0.86268 0.0
O131 O 0.17195 0.05566 0.83214 0.0
O132 O 0.14349 0.09985 0.8393 0.0
Zn133 Zn 0.16839 0.11035 0.8878 0.0
O134 O 0.14374 0.10282 0.92202 0.0
C135 C 0.21133 0.15465 0.87088 0.0
O136 O 0.20506 0.12798 0.84583 0.0
O137 O 0.1898 0.076 0.89013 0.0
C138 C 0.15189 0.11254 0.95536 0.0
O139 O 0.17725 0.1325 0.96914 0.0
C140 C 0.13777 0.12149 0.82176 0.0
O141 O 0.14642 0.15308 0.83699 0.0
O142 O 0.19742 0.15458 0.89518 0.0
C143 C 0.22691 0.92272 0.06467 0.0
O144 O 0.22386 0.89537 0.07774 0.0
O145 O 0.27097 0.87257 0.0546 0.0
Zn146 Zn 0.24951 0.88782 0.01502 0.0
O147 O 0.21416 0.85324 0.98711 0.0
C148 C 0.30128 0.89628 0.99496 0.0
O149 O 0.29949 0.86731 1.00439 0.0
O150 O 0.23708 0.92443 0.03739 0.0
C151 C 0.21319 0.82872 0.96349 0.0
O152 O 0.1891 0.80625 0.94977 0.0
C153 C 0.26803 0.84224 0.05608 0.0
O154 O 0.24679 0.81978 0.03429 0.0
O155 O 0.27947 0.90771 0.99059 0.0
C156 C 0.30322 0.45082 0.11361 0.0
O157 O 0.29802 0.41995 0.09677 0.0
O158 O 0.35629 0.41415 0.17647 0.0
Zn159 Zn 0.35791 0.43809 0.13427 0.0
O160 O 0.34651 0.40614 0.08638 0.0
C161 C 0.41187 0.46552 0.11497 0.0
O162 O 0.39943 0.44422 0.08523 0.0
O163 O 0.32809 0.46506 0.13247 0.0
C164 C 0.35728 0.383 0.07529 0.0
O165 O 0.3781 0.37628 0.09683 0.0
C166 C 0.3435 0.38361 0.17262 0.0
O167 O 0.33149 0.36645 0.14039 0.0
O168 O 0.39835 0.46815 0.13961 0.0
C169 C 0.91608 0.20909 0.14758 0.0
O170 O 0.9197 0.23817 0.13803 0.0
O171 O 0.92351 0.2612 0.24688 0.0
Zn172 Zn 0.89304 0.23736 0.20287 0.0
O173 O 0.88365 0.26668 0.17046 0.0
C174 C 0.83313 0.21783 0.196 0.0
O175 O 0.83461 0.24632 0.18556 0.0
O176 O 0.90736 0.20491 0.17548 0.0
C177 C 0.88291 0.29681 0.17465 0.0
O178 O 0.89312 0.31664 0.20574 0.0
C179 C 0.9249 0.28525 0.27156 0.0
O180 O 0.94925 0.29871 0.29437 0.0
O181 O 0.85574 0.20914 0.20679 0.0
C182 C 0.24117 0.49039 0.38543 0.0
O183 O 0.254 0.51121 0.41549 0.0
O184 O 0.16994 0.53831 0.31699 0.0
Zn185 Zn 0.1989 0.54335 0.36965 0.0
O186 O 0.17338 0.5467 0.4133 0.0
C187 C 0.22665 0.62127 0.38524 0.0
O188 O 0.2066 0.62301 0.40254 0.0
O189 O 0.22014 0.49823 0.36552 0.0
C190 C 0.18071 0.56123 0.44678 0.0
O191 O 0.2076 0.57669 0.45959 0.0
C192 C 0.16068 0.56216 0.30539 0.0
O193 O 0.16764 0.59111 0.32705 0.0
O194 O 0.22843 0.59202 0.37177 0.0
C195 C 0.80476 0.95069 0.62085 0.0
O196 O 0.7987 0.91888 0.60692 0.0
O197 O 0.85754 0.91379 0.67863 0.0
Zn198 Zn 0.85919 0.93791 0.63661 0.0
O199 O 0.84632 0.90633 0.58843 0.0
C200 C 0.9116 0.96667 0.61489 0.0
O201 O 0.89745 0.94806 0.58409 0.0
O202 O 0.83036 0.96573 0.63627 0.0
C203 C 0.85785 0.88425 0.57659 0.0
O204 O 0.87991 0.87898 0.59728 0.0
C205 C 0.84562 0.88297 0.67465 0.0
O206 O 0.8347 0.8655 0.64233 0.0
O207 O 0.89965 0.96722 0.64115 0.0
C208 C 0.95986 0.08047 0.33542 0.0
O209 O 0.98494 0.08694 0.35695 0.0
O210 O 0.98438 1.01715 0.26764 0.0
Zn211 Zn 0.96789 1.0165 0.31051 0.0
O212 O 0.99702 0.02757 0.35607 0.0
C213 C 0.93085 0.94735 0.30202 0.0
O214 O 0.95069 0.93443 0.29236 0.0
O215 O 0.94998 0.05326 0.31326 0.0
C216 C 0.9982 1.00722 0.37681 0.0
O217 O 0.98269 0.97645 0.36599 0.0
C218 C 1.00081 0.04557 0.26972 0.0
O219 O 1.00628 0.06786 0.29901 0.0
O220 O 0.93498 0.97862 0.30923 0.0
C221 C 0.42417 0.70797 0.6498 0.0
O222 O 0.43775 0.73906 0.65195 0.0
O223 O 0.43128 0.76007 0.73702 0.0
Zn224 Zn 0.39671 0.73636 0.69794 0.0
O225 O 0.38577 0.76314 0.66252 0.0
C226 C 0.33869 0.72271 0.70113 0.0
O227 O 0.34032 0.75053 0.68931 0.0
O228 O 0.40675 0.70094 0.6691 0.0
C229 C 0.38311 0.79259 0.66535 0.0
O230 O 0.39164 0.81295 0.69625 0.0
C231 C 0.43356 0.78343 0.76273 0.0
O232 O 0.45873 0.79842 0.78311 0.0
O233 O 0.36088 0.71273 0.71001 0.0
C234 C 0.45941 0.58796 0.81798 0.0
O235 O 0.48334 0.59464 0.80755 0.0
O236 O 0.48433 0.53051 0.77464 0.0
Zn237 Zn 0.46606 0.52273 0.81462 0.0
O238 O 0.49439 0.53247 0.86015 0.0
C239 C 0.4308 0.45207 0.8035 0.0
O240 O 0.45245 0.44063 0.79779 0.0
O241 O 0.44832 0.55881 0.82135 0.0
C242 C 0.49752 0.51104 0.8791 0.0
O243 O 0.48363 0.47981 0.8668 0.0
C244 C 0.48671 0.51176 0.74762 0.0
O245 O 0.47599 0.47951 0.74251 0.0
O246 O 0.43331 0.48314 0.80918 0.0
C247 C 0.73976 0.989 0.8849 0.0
O248 O 0.7524 1.00954 0.91521 0.0
O249 O 0.66829 0.03732 0.81634 0.0
Zn250 Zn 0.69747 0.04244 0.86907 0.0
O251 O 0.67111 0.04493 0.9122 0.0
C252 C 0.7263 0.12111 0.88481 0.0
O253 O 0.70623 0.12348 0.90191 0.0
O254 O 0.71887 0.99712 0.86493 0.0
C255 C 0.67719 0.0609 0.94512 0.0
O256 O 0.70331 0.07913 0.95796 0.0
C257 C 0.662 0.06211 0.80327 0.0
O258 O 0.67283 0.09186 0.8232 0.0
O259 O 0.72755 0.09151 0.87151 0.0
C260 C 0.83156 0.67912 0.08987 0.0
O261 O 0.83689 0.70978 0.10717 0.0
O262 O 0.78129 0.72106 0.11586 0.0
Zn263 Zn 0.77579 0.6908 0.06792 0.0
O264 O 0.77921 0.71501 0.02596 0.0
C265 C 0.71705 0.66902 0.07351 0.0
O266 O 0.72165 0.70086 0.08643 0.0
O267 O 0.80657 0.66499 0.07142 0.0
C268 C 0.77886 0.74518 0.02569 0.0
O269 O 0.77416 0.76287 0.05346 0.0
C270 C 0.79773 0.74942 0.13081 0.0
O271 O 0.81564 0.76493 0.11412 0.0
O272 O 0.73655 0.65872 0.06168 0.0
C273 C 0.89455 0.63886 0.8216 0.0
O274 O 0.87913 0.61534 0.79476 0.0
O275 O 0.95881 0.58364 0.78555 0.0
Zn276 Zn 0.93862 0.58763 0.83407 0.0
O277 O 0.97134 0.59263 0.88384 0.0
C278 C 0.91103 0.50962 0.82086 0.0
O279 O 0.93151 0.50764 0.80437 0.0
O280 O 0.91762 0.63302 0.83931 0.0
C281 C 0.96794 0.57561 0.90863 0.0
O282 O 0.94325 0.55432 0.90424 0.0
C283 C 0.98101 0.57283 0.78207 0.0
O284 O 0.99373 0.56282 0.80963 0.0
O285 O 0.90894 0.53905 0.8333 0.0
C286 C 0.72226 0.42162 0.55276 0.0
O287 O 0.72277 0.39488 0.56635 0.0
O288 O 0.75769 0.36398 0.52975 0.0
Zn289 Zn 0.74698 0.39358 0.49813 0.0
O290 O 0.71829 0.36906 0.45397 0.0
C291 C 0.8026 0.43018 0.52167 0.0
O292 O 0.79646 0.4203 0.5503 0.0
O293 O 0.73023 0.42438 0.52411 0.0
C294 C 0.71678 0.34314 0.43177 0.0
O295 O 0.69341 0.331 0.40684 0.0
C296 C 0.7542 0.33328 0.52949 0.0
O297 O 0.73779 0.31112 0.50217 0.0
O298 O 0.78345 0.42263 0.49306 0.0
C299 C 0.69292 0.55595 0.35963 0.0
O300 O 0.68514 0.56497 0.32923 0.0
O301 O 0.64575 0.59823 0.33957 0.0
Zn302 Zn 0.6705 0.60747 0.3878 0.0
O303 O 0.64755 0.60098 0.4239 0.0
C304 C 0.70498 0.678 0.398 0.0
O305 O 0.68228 0.68866 0.39996 0.0
O306 O 0.68858 0.57088 0.38783 0.0
C307 C 0.65062 0.61723 0.45489 0.0
O308 O 0.67019 0.64545 0.46636 0.0
C309 C 0.63658 0.61923 0.32375 0.0
O310 O 0.64153 0.65 0.34066 0.0
O311 O 0.70351 0.64721 0.39509 0.0
Tb312 Tb 0.04048 0.04889 0.07917 0.0
Tb313 Tb 0.09618 0.0885 0.12559 0.0
C314 C 0.9886 0.0278 0.05212 0.0
C315 C 0.96661 0.04588 0.05457 0.0
C316 C 0.95408 0.04559 0.0839 0.0
C317 C 0.94038 0.06985 0.09303 0.0
C318 C 0.93804 0.09429 0.07236 0.0
C319 C 0.94791 0.09239 0.04088 0.0
C320 C 0.96221 0.06846 0.03212 0.0
C321 C 0.08273 0.05921 0.04675 0.0
C322 C 0.05619 0.12873 0.09376 0.0
C323 C 0.14788 0.10676 0.15225 0.0
C324 C 0.16746 0.0873 0.14285 0.0
C325 C 0.16616 0.07618 0.10673 0.0
C326 C 0.17792 0.05053 0.09636 0.0
C327 C 0.19177 0.03574 0.12187 0.0
C328 C 0.19415 0.04751 0.15811 0.0
C329 C 0.18201 0.0732 0.16856 0.0
C330 C 0.05424 0.08119 0.15793 0.0
C331 C 0.0805 1.00872 0.11017 0.0
O332 O 1.00076 1.02139 0.08222 0.0
O333 O 1.00712 0.03908 0.0341 0.0
O334 O 0.07793 0.07869 0.07076 0.0
O335 O 0.06215 0.0323 0.03821 0.0
O336 O 0.03588 0.10064 0.08787 0.0
O337 O 0.08313 0.12952 0.10554 0.0
O338 O 0.1358 0.11952 0.12669 0.0
O339 O 0.12967 0.09211 0.16892 0.0
O340 O 0.05835 0.05974 0.13492 0.0
O341 O 0.0752 0.10756 0.16493 0.0
O342 O 0.10063 0.03674 0.11506 0.0
O343 O 0.0536 1.00784 0.09875 0.0
H344 H 0.95694 0.02839 0.10162 0.0
H345 H 0.93353 0.07068 0.1178 0.0
H346 H 0.94585 0.11034 0.0239 0.0
H347 H 0.97139 0.0691 1.0091 0.0
H348 H 0.15453 0.08574 0.08611 0.0
H349 H 0.17511 0.04139 0.06818 0.0
H350 H 0.20483 0.03642 0.17821 0.0
H351 H 0.18262 0.08078 0.19647 0.0
Tb352 Tb 0.31919 0.80059 0.31991 0.0
Tb353 Tb 0.30809 0.83313 0.38315 0.0
C354 C 0.31451 0.77921 0.25582 0.0
C355 C 0.33024 0.79042 0.23007 0.0
C356 C 0.33776 0.82431 0.22875 0.0
C357 C 0.3428 0.83385 0.19754 0.0
C358 C 0.34034 0.80943 0.16759 0.0
C359 C 0.33961 0.77669 0.17222 0.0
C360 C 0.33366 0.76697 0.20316 0.0
C361 C 0.36483 0.80452 0.36975 0.0
C362 C 0.34424 0.88017 0.34335 0.0
C363 C 0.30159 0.85379 0.44357 0.0
C364 C 0.30551 0.8411 0.47611 0.0
C365 C 0.31716 0.81377 0.47743 0.0
C366 C 0.3248 0.80426 0.50962 0.0
C367 C 0.32089 0.82204 0.54083 0.0
C368 C 0.30807 0.84854 0.5391 0.0
C369 C 0.30041 0.85808 0.5067 0.0
C370 C 0.27099 0.83347 0.3247 0.0
C371 C 0.28956 0.75251 0.36395 0.0
O372 O 0.3 0.79926 0.26749 0.0
O373 O 0.32797 0.76714 0.28085 0.0
O374 O 0.34359 0.81524 0.3748 0.0
O375 O 0.36094 0.79248 0.33645 0.0
O376 O 0.33774 0.85345 0.3176 0.0
O377 O 0.33678 0.87734 0.37371 0.0
O378 O 0.32509 0.86342 0.43316 0.0
O379 O 0.28084 0.83537 0.4178 0.0
O380 O 0.28082 0.80941 0.33236 0.0
O381 O 0.28274 0.85865 0.35025 0.0
O382 O 0.29487 0.7799 0.3887 0.0
O383 O 0.29587 0.75497 0.33297 0.0
H384 H 0.33626 0.84302 0.24994 0.0
H385 H 0.34412 0.85957 0.19565 0.0
H386 H 0.33923 0.75766 0.15013 0.0
H387 H 0.32892 0.74081 0.2045 0.0
H388 H 0.32173 0.80091 0.454 0.0
H389 H 0.33522 0.78419 0.51031 0.0
H390 H 0.3048 0.86244 0.56288 0.0
H391 H 0.29156 0.87937 0.50575 0.0
Tb392 Tb 0.59782 0.0678 0.58834 0.0
Tb393 Tb 0.54046 0.0637 0.61382 0.0
C394 C 0.64883 0.06988 0.58877 0.0
C395 C 0.67 0.05033 0.59581 0.0
C396 C 0.68606 0.05259 0.63027 0.0
C397 C 0.70789 0.03635 0.63555 0.0
C398 C 0.71402 1.01758 0.6065 0.0
C399 C 0.69772 1.01519 0.57221 0.0
C400 C 0.67606 0.03135 0.56696 0.0
C401 C 0.55618 0.07326 0.53476 0.0
C402 C 0.55614 0.99724 0.58519 0.0
C403 C 0.4896 0.06163 0.61445 0.0
C404 C 0.46817 0.08095 0.60807 0.0
C405 C 0.45319 0.08096 0.57366 0.0
C406 C 0.43108 0.09687 0.56897 0.0
C407 C 0.42356 0.11302 0.59855 0.0
C408 C 0.43882 0.11314 0.6328 0.0
C409 C 0.46077 0.09735 0.63745 0.0
C410 C 0.58257 0.05737 0.66656 0.0
C411 C 0.5818 0.13425 0.6163 0.0
O412 O 0.64065 0.08418 0.61579 0.0
O413 O 0.62787 0.05714 0.56082 0.0
O414 O 0.5554 0.07055 0.56672 0.0
O415 O 0.58193 0.07294 0.53295 0.0
O416 O 0.58188 1.01437 0.58455 0.0
O417 O 0.53623 1.01139 0.59341 0.0
O418 O 0.49745 0.04743 0.5871 0.0
O419 O 0.51084 0.07447 0.64208 0.0
O420 O 0.58262 0.06069 0.63474 0.0
O421 O 0.55707 0.05797 0.66934 0.0
O422 O 0.55621 0.11705 0.61735 0.0
O423 O 0.60175 0.12021 0.60801 0.0
H424 H 0.68211 0.06727 0.65307 0.0
H425 H 0.71991 0.03842 0.66234 0.0
H426 H 0.70215 1.00146 0.54916 0.0
H427 H 0.66446 0.02958 0.54002 0.0
H428 H 0.45823 0.06833 0.55043 0.0
H429 H 0.41995 0.09659 0.54222 0.0
H430 H 0.43335 0.12476 0.65622 0.0
H431 H 0.47156 0.09732 0.66429 0.0
Tb432 Tb 0.29081 0.32544 0.84669 0.0
Tb433 Tb 0.34729 0.3046 0.85421 0.0
C434 C 0.24113 0.32841 0.84891 0.0
C435 C 0.2206 0.32543 0.8721 0.0
C436 C 0.20279 0.29432 0.87214 0.0
C437 C 0.18083 0.29211 0.8902 0.0
C438 C 0.17609 0.32095 0.90857 0.0
C439 C 0.19433 0.35195 0.90912 0.0
C440 C 0.21625 0.35416 0.89107 0.0
C441 C 0.333 0.3676 0.83294 0.0
C442 C 0.33152 0.33429 0.92346 0.0
C443 C 0.39641 0.29893 0.85175 0.0
C444 C 0.41781 0.30418 0.82974 0.0
C445 C 0.43804 0.33488 0.83553 0.0
C446 C 0.45998 0.33876 0.81734 0.0
C447 C 0.46264 0.31184 0.79335 0.0
C448 C 0.44227 0.28119 0.78755 0.0
C449 C 0.42015 0.27747 0.80537 0.0
C450 C 0.30409 0.26288 0.86708 0.0
C451 C 0.30662 0.29679 0.77737 0.0
O452 O 0.24772 0.3012 0.83639 0.0
O453 O 0.26299 0.35451 0.85768 0.0
O454 O 0.3347 0.34956 0.85585 0.0
O455 O 0.30655 0.36575 0.81981 0.0
O456 O 0.30565 0.33138 0.9044 0.0
O457 O 0.35232 0.32822 0.90893 0.0
O458 O 0.39124 0.32542 0.8686 0.0
O459 O 0.37336 0.27463 0.83901 0.0
O460 O 0.30342 0.28037 0.84373 0.0
O461 O 0.33034 0.26512 0.8816 0.0
O462 O 0.3326 0.29992 0.79639 0.0
O463 O 0.28576 0.30227 0.79204 0.0
H464 H 0.20534 0.27166 0.85752 0.0
H465 H 0.16749 0.2678 0.88964 0.0
H466 H 0.19114 0.37474 0.92258 0.0
H467 H 0.22926 0.37853 0.89109 0.0
H468 H 0.43718 0.35591 0.85451 0.0
H469 H 0.47487 0.3629 0.82219 0.0
H470 H 0.44376 0.2596 0.76995 0.0
H471 H 0.40533 0.25329 0.80078 0.0
Tb472 Tb 0.05937 0.09859 0.6019 0.0
Tb473 Tb 0.07148 0.03101 0.59769 0.0
C474 C 0.0532 0.15521 0.59943 0.0
C475 C 0.04792 0.1741 0.57214 0.0
C476 C 0.05873 0.16994 0.5416 0.0
C477 C 0.0523 0.18783 0.51531 0.0
C478 C 0.0348 0.20945 0.51941 0.0
C479 C 1.02358 0.2128 0.54972 0.0
C480 C 0.03012 0.19511 0.57596 0.0
C481 C 1.02146 0.05161 0.61774 0.0
C482 C 0.04678 0.05075 0.52681 0.0
C483 C 0.06312 0.97095 0.59865 0.0
C484 C 0.07683 0.95214 0.621 0.0
C485 C 0.05982 0.92422 0.6287 0.0
C486 C 0.07113 0.90885 0.65482 0.0
C487 C 0.09956 0.92137 0.6733 0.0
C488 C 0.11693 0.94875 0.66485 0.0
C489 C 0.10545 0.96447 0.63889 0.0
C490 C 0.11739 0.07447 0.5919 0.0
C491 C 0.091 0.08227 0.67083 0.0
O492 O 0.07817 0.14885 0.60571 0.0
O493 O 0.03216 0.12955 0.59752 0.0
O494 O 0.03425 0.04875 0.59299 0.0
O495 O 0.03002 0.08196 0.63502 0.0
O496 O 0.05087 0.08178 0.54382 0.0
O497 O 0.05071 0.02668 0.54358 0.0
O498 O 0.05073 0.99052 0.61568 0.0
O499 O 0.07783 0.98517 0.57785 0.0
O500 O 0.09404 0.07942 0.59601 0.0
O501 O 0.11564 0.04317 0.59135 0.0
O502 O 0.08413 0.05056 0.655 0.0
O503 O 0.08681 0.10599 0.65347 0.0
H504 H 0.07207 0.15305 0.53818 0.0
H505 H 0.06106 0.18497 0.49198 0.0
H506 H 1.01044 0.22982 0.55365 0.0
H507 H 1.02135 0.19788 0.5993 0.0
H508 H 0.03755 0.91517 0.6155 0.0
H509 H 0.0576 0.88747 0.66101 0.0
H510 H 0.13888 0.95854 0.67912 0.0
H511 H 0.1185 0.98674 0.63368 0.0
Tb512 Tb 0.31753 0.77794 0.84403 0.0
Tb513 Tb 0.32312 0.85216 0.85612 0.0
C514 C 0.31926 0.71878 0.83116 0.0
C515 C 0.34063 0.70197 0.82473 0.0
C516 C 0.36837 0.7203 0.82726 0.0
C517 C 0.38984 0.70421 0.82647 0.0
C518 C 0.38349 0.66966 0.82337 0.0
C519 C 0.35537 0.65126 0.81924 0.0
C520 C 0.334 0.66746 0.8201 0.0
C521 C 0.29944 0.80042 0.89884 0.0
C522 C 0.3776 0.82807 0.87568 0.0
C523 C 0.32139 0.91113 0.87256 0.0
C524 C 0.3001 0.92997 0.87304 0.0
C525 C 0.28061 0.92566 0.89479 0.0
C526 C 0.26014 0.94356 0.89322 0.0
C527 C 0.25892 0.96559 0.86962 0.0
C528 C 0.27841 0.96992 0.84797 0.0
C529 C 0.29893 0.95232 0.8498 0.0
C530 C 0.34196 0.83052 0.80094 0.0
C531 C 0.26382 0.80061 0.81962 0.0
O532 O 0.31012 0.7343 0.80643 0.0
O533 O 0.32494 0.73643 0.86331 0.0
O534 O 0.32055 0.81579 0.88887 0.0
O535 O 0.28902 0.77138 0.87917 0.0
O536 O 0.36278 0.79825 0.8582 0.0
O537 O 0.36575 0.85268 0.88304 0.0
O538 O 0.32481 0.89227 0.89622 0.0
O539 O 0.32153 0.8968 0.84063 0.0
O540 O 0.32132 0.81466 0.81166 0.0
O541 O 0.34991 0.8604 0.81918 0.0
O542 O 0.27742 0.83082 0.83769 0.0
O543 O 0.277 0.77737 0.81274 0.0
H544 H 0.37358 0.747 0.83108 0.0
H545 H 0.41141 0.71879 0.82974 0.0
H546 H 0.35005 0.62443 0.81619 0.0
H547 H 0.31255 0.65323 0.81832 0.0
H548 H 0.28136 0.90911 0.91337 0.0
H549 H 0.24528 0.94015 0.91027 0.0
H550 H 0.27808 0.98733 0.83006 0.0
H551 H 0.31387 0.95605 0.83287 0.0
Tb552 Tb 0.54274 0.06313 0.07478 0.0
Tb553 Tb 0.59292 0.06275 0.1319 0.0
C554 C 0.49608 0.04483 0.03053 0.0
C555 C 0.46738 0.02589 0.02999 0.0
C556 C 0.46306 0.99568 0.04198 0.0
C557 C 0.43578 0.97588 0.03758 0.0
C558 C 0.41209 0.98634 0.02212 0.0
C559 C 0.41651 1.01753 0.01187 0.0
C560 C 0.44397 0.03696 0.01544 0.0
C561 C 0.57512 0.12184 0.1076 0.0
C562 C 0.5351 0.0611 0.15714 0.0
C563 C 0.63911 0.07957 0.17665 0.0
C564 C 0.66819 0.0949 0.17606 0.0
C565 C 0.6739 0.11373 0.1502 0.0
C566 C 0.70143 0.13173 0.15241 0.0
C567 C 0.72344 0.13103 0.18049 0.0
C568 C 0.71787 0.11077 0.20523 0.0
C569 C 0.69026 0.09281 0.20303 0.0
C570 C 0.56033 1.00403 0.09922 0.0
C571 C 0.60141 0.06563 0.05041 0.0
O572 O 0.51534 0.02792 0.03252 0.0
O573 O 0.5052 0.07439 0.05095 0.0
O574 O 0.56847 0.0963 0.12028 0.0
O575 O 0.5613 0.11541 0.07453 0.0
O576 O 0.52261 0.05687 0.12239 0.0
O577 O 0.56294 0.06474 0.16673 0.0
O578 O 0.6218 0.09882 0.17212 0.0
O579 O 0.62838 0.04933 0.15811 0.0
O580 O 0.56708 0.02958 0.08662 0.0
O581 O 0.5743 1.01045 0.13215 0.0
O582 O 0.61322 0.07004 0.08527 0.0
O583 O 0.57345 0.06142 0.03983 0.0
H584 H 0.48078 0.98681 0.05373 0.0
H585 H 0.43349 0.95189 0.0453 0.0
H586 H 0.39884 0.02689 1.00076 0.0
H587 H 0.44694 0.06036 1.00631 0.0
H588 H 0.65697 0.11555 0.12917 0.0
H589 H 0.70541 0.14686 0.13276 0.0
H590 H 0.73458 0.11005 0.22716 0.0
H591 H 0.68598 0.07828 0.22308 0.0
Tb592 Tb 0.29187 0.29358 0.33102 0.0
Tb593 Tb 0.34396 0.33725 0.37162 0.0
C594 C 0.24062 0.26376 0.31373 0.0
C595 C 0.21839 0.27618 0.32666 0.0
C596 C 0.22505 0.29535 0.36111 0.0
C597 C 0.20546 0.3102 0.37314 0.0
C598 C 0.17855 0.30576 0.35124 0.0
C599 C 0.17193 0.28708 0.31646 0.0
C600 C 0.19189 0.27244 0.30415 0.0
C601 C 0.32407 0.31898 0.29042 0.0
C602 C 0.29291 0.3717 0.36241 0.0
C603 C 0.39522 0.36724 0.38902 0.0
C604 C 0.41766 0.35536 0.37602 0.0
C605 C 0.41113 0.33609 0.34163 0.0
C606 C 0.43116 0.3222 0.3294 0.0
C607 C 0.45833 0.32768 0.35104 0.0
C608 C 0.4648 0.34638 0.3858 0.0
C609 C 0.44443 0.36008 0.3983 0.0
C610 C 0.31156 0.31134 0.41186 0.0
C611 C 0.34285 0.2591 0.34065 0.0
O612 O 0.25886 0.25639 0.3382 0.0
O613 O 0.253 0.28154 0.29354 0.0
O614 O 0.32057 0.33407 0.31901 0.0
O615 O 0.30864 0.28859 0.28363 0.0
O616 O 0.27784 0.34068 0.34702 0.0
O617 O 0.3208 0.37694 0.37403 0.0
O618 O 0.37691 0.37465 0.36467 0.0
O619 O 0.38291 0.34905 0.40893 0.0
O620 O 0.31541 0.29661 0.38339 0.0
O621 O 0.327 0.34176 0.41907 0.0
O622 O 0.35803 0.29021 0.35553 0.0
O623 O 0.31494 0.25385 0.32933 0.0
H624 H 0.24567 0.29941 0.37874 0.0
H625 H 0.21146 0.32527 0.39967 0.0
H626 H 0.15129 0.28341 0.29906 0.0
H627 H 0.18676 0.25846 0.27718 0.0
H628 H 0.39034 0.33136 0.32418 0.0
H629 H 0.42531 0.30709 0.3029 0.0
H630 H 0.48564 0.35086 0.403 0.0
H631 H 0.44949 0.37418 0.4252 0.0
Tb632 Tb 0.55918 0.599 0.10387 0.0
Tb633 Tb 0.57247 0.53206 0.09937 0.0
C634 C 0.55198 0.65523 0.10128 0.0
C635 C 0.54725 0.67433 0.07413 0.0
C636 C 0.55502 0.66696 0.04179 0.0
C637 C 0.5484 0.68449 0.0152 0.0
C638 C 0.53379 0.70903 0.02095 0.0
C639 C 0.52602 0.71603 0.05339 0.0
C640 C 0.53268 0.69862 0.07985 0.0
C641 C 0.52182 0.55141 0.11961 0.0
C642 C 0.54778 0.55141 0.02861 0.0
C643 C 0.56697 0.47277 0.10258 0.0
C644 C 0.58062 0.45772 0.12973 0.0
C645 C 0.58088 0.46834 0.16563 0.0
C646 C 0.59244 0.45246 0.1911 0.0
C647 C 0.60402 0.42613 0.18094 0.0
C648 C 0.60565 0.41712 0.14554 0.0
C649 C 0.59389 0.43292 0.11992 0.0
C650 C 0.61777 0.57649 0.09316 0.0
C651 C 0.59077 0.58283 0.17272 0.0
O652 O 0.57716 0.64961 0.10859 0.0
O653 O 0.53118 0.62896 0.09811 0.0
O654 O 0.53469 0.54884 0.09486 0.0
O655 O 0.53001 0.58177 0.13686 0.0
O656 O 0.55102 0.58212 0.04594 0.0
O657 O 0.55253 0.5273 0.04492 0.0
O658 O 0.54965 0.48974 0.11254 0.0
O659 O 0.58375 0.48792 0.08447 0.0
O660 O 0.59432 0.58093 0.09762 0.0
O661 O 0.61645 0.54534 0.09278 0.0
O662 O 0.58428 0.55129 0.1566 0.0
O663 O 0.58644 0.60667 0.15563 0.0
H664 H 0.56599 0.64772 0.03713 0.0
H665 H 0.55455 0.67889 0.99028 0.0
H666 H 0.51527 0.73539 0.05855 0.0
H667 H 0.52635 0.70397 0.10472 0.0
H668 H 0.57136 0.48809 0.17398 0.0
H669 H 0.59116 0.45964 0.21843 0.0
H670 H 0.61437 0.39658 0.13739 0.0
H671 H 0.59433 0.42512 0.09239 0.0
Tb672 Tb 0.81845 0.273 0.34253 0.0
Tb673 Tb 0.8208 0.34676 0.36532 0.0
C674 C 0.82298 0.21701 0.31771 0.0
C675 C 0.84536 0.2005 0.32698 0.0
C676 C 0.87268 0.21296 0.32177 0.0
C677 C 0.89333 0.19597 0.32936 0.0
C678 C 0.88693 0.16679 0.34281 0.0
C679 C 0.86039 0.15589 0.35066 0.0
C680 C 0.83958 0.17246 0.34237 0.0
C681 C 0.80767 0.28869 0.40578 0.0
C682 C 0.87743 0.32428 0.37637 0.0
C683 C 0.81584 0.40147 0.3943 0.0
C684 C 0.79547 0.42105 0.38578 0.0
C685 C 0.77297 0.41909 0.40298 0.0
C686 C 0.75367 0.43783 0.39576 0.0
C687 C 0.75678 0.45912 0.37148 0.0
C688 C 0.77872 0.4604 0.35336 0.0
C689 C 0.798 0.44144 0.36047 0.0
C690 C 0.83089 0.33207 0.30176 0.0
C691 C 0.7622 0.2941 0.32761 0.0
O692 O 0.82958 0.2429 0.30338 0.0
O693 O 0.80886 0.22192 0.34214 0.0
O694 O 0.82473 0.30673 0.39169 0.0
O695 O 0.80092 0.25926 0.38664 0.0
O696 O 0.86335 0.29463 0.35769 0.0
O697 O 0.86479 0.3473 0.3871 0.0
O698 O 0.80548 0.37327 0.4029 0.0
O699 O 0.83283 0.39874 0.37285 0.0
O700 O 0.81474 0.31347 0.31643 0.0
O701 O 0.8363 0.36175 0.32014 0.0
O702 O 0.77529 0.32385 0.34745 0.0
O703 O 0.77596 0.27246 0.31706 0.0
H704 H 0.87803 0.2353 0.31118 0.0
H705 H 0.91368 0.20468 0.32299 0.0
H706 H 0.85534 0.13365 0.36166 0.0
H707 H 0.81884 0.16304 0.34741 0.0
H708 H 0.77039 0.40329 0.42225 0.0
H709 H 0.73664 0.43616 0.4097 0.0
H710 H 0.78162 0.47697 0.33478 0.0
H711 H 0.81506 0.44323 0.3466 0.0
Tb712 Tb 0.04836 0.56774 0.57744 0.0
Tb713 Tb 0.09783 0.56524 0.63481 0.0
C714 C 1.0023 0.55097 0.5323 0.0
C715 C 0.97299 0.53564 0.53259 0.0
C716 C 0.96687 0.51069 0.55232 0.0
C717 C 0.93891 0.49439 0.55036 0.0
C718 C 0.91659 0.50334 0.52935 0.0
C719 C 0.92279 0.52904 0.51045 0.0
C720 C 0.95089 0.54501 0.51196 0.0
C721 C 0.0803 0.62572 0.61326 0.0
C722 C 0.03917 0.56312 0.65875 0.0
C723 C 0.14388 0.58117 0.67999 0.0
C724 C 0.17257 0.60031 0.6813 0.0
C725 C 0.17695 0.6301 0.66848 0.0
C726 C 0.20431 0.64913 0.67174 0.0
C727 C 0.22784 0.63832 0.68701 0.0
C728 C 0.22335 0.60802 0.69899 0.0
C729 C 0.19585 0.58925 0.69634 0.0
C730 C 0.0647 0.50754 0.60075 0.0
C731 C 0.10693 0.56971 0.55376 0.0
O732 O 1.01967 0.53182 0.53694 0.0
O733 O 1.0131 0.58132 0.55059 0.0
O734 O 0.07357 0.5992 0.62421 0.0
O735 O 0.06766 0.62057 0.5798 0.0
O736 O 0.02735 0.56121 0.62419 0.0
O737 O 0.06679 0.56514 0.6687 0.0
O738 O 0.12481 0.59828 0.67908 0.0
O739 O 0.13481 0.55253 0.65781 0.0
O740 O 0.07203 0.53335 0.58877 0.0
O741 O 0.07875 0.51281 0.63354 0.0
O742 O 0.1186 0.57424 0.58873 0.0
O743 O 0.07907 0.56557 0.54297 0.0
H744 H 0.98368 0.50335 0.56874 0.0
H745 H 0.93483 0.47437 0.56483 0.0
H746 H 0.90597 0.53681 0.49456 0.0
H747 H 0.95539 0.56443 0.49682 0.0
H748 H 0.15924 0.63905 0.65651 0.0
H749 H 0.20693 0.67262 0.66283 0.0
H750 H 0.24101 0.59872 0.71029 0.0
H751 H 0.19273 0.56618 0.70614 0.0
Tb752 Tb 0.78957 0.82528 0.34772 0.0
Tb753 Tb 0.84636 0.80392 0.35661 0.0
C754 C 0.74053 0.83163 0.34929 0.0
C755 C 0.71891 0.82607 0.37089 0.0
C756 C 0.69732 0.7963 0.36266 0.0
C757 C 0.67534 0.7923 0.38075 0.0
C758 C 0.67413 0.81819 0.40718 0.0
C759 C 0.6959 0.84788 0.41549 0.0
C760 C 0.71799 0.85172 0.39767 0.0
C761 C 0.83251 0.86669 0.33416 0.0
C762 C 0.82988 0.83399 0.42492 0.0
C763 C 0.89563 0.79873 0.35505 0.0
C764 C 0.91692 0.80348 0.33297 0.0
C765 C 0.93608 0.8346 0.33672 0.0
C766 C 0.95784 0.83816 0.31828 0.0
C767 C 0.96137 0.81052 0.29624 0.0
C768 C 0.9421 0.77944 0.29253 0.0
C769 C 0.92015 0.77601 0.31054 0.0
C770 C 0.80359 0.76257 0.37055 0.0
C771 C 0.80647 0.79527 0.27974 0.0
O772 O 0.7455 0.8053 0.33182 0.0
O773 O 0.76377 0.85545 0.36297 0.0
O774 O 0.8336 0.84875 0.35713 0.0
O775 O 0.80624 0.86509 0.32056 0.0
O776 O 0.80387 0.8303 0.40565 0.0
O777 O 0.85097 0.82861 0.41064 0.0
O778 O 0.89016 0.82544 0.371 0.0
O779 O 0.87279 0.77406 0.34269 0.0
O780 O 0.80236 0.78045 0.34749 0.0
O781 O 0.82991 0.76395 0.38364 0.0
O782 O 0.83238 0.7997 0.29921 0.0
O783 O 0.78487 0.79949 0.29362 0.0
H784 H 0.69718 0.77613 0.34191 0.0
H785 H 0.6593 0.76888 0.37395 0.0
H786 H 0.69554 0.86867 0.43513 0.0
H787 H 0.73396 0.8752 0.4043 0.0
H788 H 0.93452 0.85624 0.35423 0.0
H789 H 0.97191 0.8626 0.32141 0.0
H790 H 0.94438 0.75739 0.27644 0.0
H791 H 0.90617 0.75155 0.30765 0.0
Tb792 Tb 0.82549 0.29787 0.81931 0.0
Tb793 Tb 0.8131 0.33241 0.88617 0.0
C794 C 0.82245 0.27087 0.75724 0.0
C795 C 0.81538 0.27994 0.72323 0.0
C796 C 0.80374 0.3071 0.72058 0.0
C797 C 0.79727 0.31612 0.68792 0.0
C798 C 0.80291 0.29838 0.65791 0.0
C799 C 0.81533 0.27174 0.66098 0.0
C800 C 0.82153 0.2625 0.69372 0.0
C801 C 0.86656 0.29723 0.87386 0.0
C802 C 0.84604 0.37826 0.84057 0.0
C803 C 0.81635 0.3601 0.94806 0.0
C804 C 0.82312 0.35154 0.98235 0.0
C805 C 0.83262 0.32295 0.9853 0.0
C806 C 0.83862 0.31432 0.01823 0.0
C807 C 0.83464 0.33396 0.04824 0.0
C808 C 0.8246 0.36227 0.04494 0.0
C809 C 0.81886 0.37106 0.01192 0.0
C810 C 0.77226 0.33329 0.83147 0.0
C811 C 0.7922 0.25206 0.86479 0.0
O812 O 0.80141 0.26462 0.77323 0.0
O813 O 0.84581 0.29041 0.77806 0.0
O814 O 0.84543 0.30935 0.87497 0.0
O815 O 0.8643 0.28468 0.84113 0.0
O816 O 0.84085 0.3511 0.81539 0.0
O817 O 0.83851 0.37607 0.87114 0.0
O818 O 0.83749 0.36556 0.93215 0.0
O819 O 0.79288 0.34067 0.92734 0.0
O820 O 0.79332 0.32105 0.83054 0.0
O821 O 0.77439 0.34583 0.86417 0.0
O822 O 0.79741 0.27923 0.88998 0.0
O823 O 0.7999 0.2542 0.83429 0.0
H824 H 0.79955 0.32111 0.74367 0.0
H825 H 0.78732 0.33649 0.68604 0.0
H826 H 0.82009 0.25809 0.63814 0.0
H827 H 0.83109 0.24188 0.69603 0.0
H828 H 0.83542 0.30746 0.96221 0.0
H829 H 0.84683 0.29268 0.0203 0.0
H830 H 0.82125 0.37749 0.06782 0.0
H831 H 0.81105 0.39293 1.0094 0.0
Tb832 Tb 0.7919 0.79242 0.83166 0.0
Tb833 Tb 0.84361 0.83644 0.87305 0.0
C834 C 0.74073 0.76233 0.81423 0.0
C835 C 0.71859 0.77484 0.82725 0.0
C836 C 0.72565 0.79486 0.8613 0.0
C837 C 0.70624 0.81002 0.87331 0.0
C838 C 0.67902 0.80484 0.85194 0.0
C839 C 0.67193 0.78515 0.81759 0.0
C840 C 0.69178 0.77036 0.80519 0.0
C841 C 0.82451 0.81816 0.79174 0.0
C842 C 0.79232 0.87059 0.86269 0.0
C843 C 0.89471 0.86699 0.89117 0.0
C844 C 0.91734 0.85566 0.87814 0.0
C845 C 0.91082 0.83593 0.84399 0.0
C846 C 0.93113 0.8227 0.83165 0.0
C847 C 0.9586 0.82945 0.85289 0.0
C848 C 0.96509 0.84866 0.8874 0.0
C849 C 0.94442 0.8616 0.90006 0.0
C850 C 0.81065 0.8101 0.91245 0.0
C851 C 0.84326 0.75843 0.84185 0.0
O852 O 0.75899 0.75502 0.83872 0.0
O853 O 0.75309 0.78009 0.79401 0.0
O854 O 0.82067 0.83313 0.82017 0.0
O855 O 0.80911 0.78772 0.78461 0.0
O856 O 0.77751 0.83952 0.84694 0.0
O857 O 0.82016 0.87592 0.87496 0.0
O858 O 0.87641 0.87445 0.86685 0.0
O859 O 0.8824 0.84828 0.91066 0.0
O860 O 0.81502 0.79556 0.88424 0.0
O861 O 0.82594 0.8406 0.92007 0.0
O862 O 0.85814 0.78958 0.85718 0.0
O863 O 0.81536 0.75299 0.83005 0.0
H864 H 0.74646 0.79934 0.87861 0.0
H865 H 0.71263 0.82585 0.89945 0.0
H866 H 0.65102 0.78082 0.8006 0.0
H867 H 0.68629 0.75564 0.77854 0.0
H868 H 0.88985 0.83043 0.82678 0.0
H869 H 0.92529 0.80721 0.80535 0.0
H870 H 0.98618 0.85416 0.90428 0.0
H871 H 0.94952 0.87615 0.92676 0.0
Tb872 Tb 0.53922 0.54586 0.57314 0.0
Tb873 Tb 0.59344 0.58432 0.62596 0.0
C874 C 0.48747 0.52541 0.54539 0.0
C875 C 0.46644 0.54513 0.54289 0.0
C876 C 0.44709 0.54128 0.56484 0.0
C877 C 0.43529 0.56722 0.57489 0.0
C878 C 0.44215 0.59702 0.56239 0.0
C879 C 0.45831 0.59898 0.5366 0.0
C880 C 0.47052 0.57323 0.52697 0.0
C881 C 0.58404 0.55837 0.54619 0.0
C882 C 0.55562 0.62675 0.59168 0.0
C883 C 0.64503 0.60269 0.65302 0.0
C884 C 0.66491 0.58372 0.64323 0.0
C885 C 0.66642 0.57695 0.60741 0.0
C886 C 0.67796 0.55163 0.59525 0.0
C887 C 0.68899 0.53294 0.61872 0.0
C888 C 0.68898 0.54073 0.65492 0.0
C889 C 0.67697 0.56599 0.66711 0.0
C890 C 0.54875 0.57129 0.65291 0.0
C891 C 0.57761 0.50378 0.60601 0.0
O892 O 0.49855 0.52393 0.57815 0.0
O893 O 0.50671 0.53134 0.52665 0.0
O894 O 0.57806 0.57679 0.57032 0.0
O895 O 0.56323 0.53168 0.53451 0.0
O896 O 0.53608 0.59823 0.57742 0.0
O897 O 0.58058 0.62747 0.61147 0.0
O898 O 0.63295 0.61575 0.62771 0.0
O899 O 0.62676 0.58772 0.66949 0.0
O900 O 0.5549 0.55321 0.6287 0.0
O901 O 0.56959 0.59787 0.66499 0.0
O902 O 0.59775 0.53221 0.61738 0.0
O903 O 0.55179 0.50325 0.58914 0.0
H904 H 0.44365 0.51984 0.57743 0.0
H905 H 0.42294 0.56496 0.59491 0.0
H906 H 0.46315 0.62138 0.52582 0.0
H907 H 0.48514 0.57678 0.50966 0.0
H908 H 0.65702 0.58965 0.58801 0.0
H909 H 0.67705 0.54578 0.56704 0.0
H910 H 0.69758 0.52678 0.67357 0.0
H911 H 0.67563 0.57035 0.69468 0.0
Tb912 Tb 0.09655 0.57061 0.0893 0.0
Tb913 Tb 0.04154 0.56572 0.1136 0.0
C914 C 0.14534 0.56775 0.08216 0.0
C915 C 0.16624 0.54773 0.08854 0.0
C916 C 0.18102 0.54756 0.12304 0.0
C917 C 0.20311 0.53167 0.12794 0.0
C918 C 0.21086 0.51565 0.09851 0.0
C919 C 0.19566 0.51543 0.06416 0.0
C920 C 0.17367 0.53124 0.05929 0.0
C921 C 0.05414 0.58072 0.04073 0.0
C922 C 0.05724 0.49926 0.08946 0.0
C923 C 0.99052 0.56363 0.11446 0.0
C924 C 0.96904 0.58296 0.10845 0.0
C925 C 0.95308 0.582 0.07427 0.0
C926 C 0.93086 0.59778 0.07001 0.0
C927 C 0.92416 0.61473 0.09981 0.0
C928 C 0.94038 0.61578 0.13381 0.0
C929 C 0.96246 0.60016 0.13803 0.0
C930 C 0.08237 0.56251 0.16947 0.0
C931 C 0.08262 0.63617 0.11907 0.0
O932 O 0.14045 0.58503 0.10996 0.0
O933 O 0.12225 0.55437 0.05714 0.0
O934 O 0.05228 0.56055 0.06213 0.0
O935 O 0.08097 0.59462 0.04538 0.0
O936 O 0.08184 0.51706 0.08607 0.0
O937 O 0.03758 0.51291 0.099 0.0
O938 O 0.9984 0.54984 0.08706 0.0
O939 O 1.0118 0.57619 0.14192 0.0
O940 O 0.08444 0.56545 0.138 0.0
O941 O 0.05617 0.56145 0.16958 0.0
O942 O 0.05604 0.61885 0.11409 0.0
O943 O 0.10318 0.62159 0.11576 0.0
H944 H 0.17594 0.5602 0.14624 0.0
H945 H 0.21409 0.53195 0.15477 0.0
H946 H 0.20125 0.50382 0.04083 0.0
H947 H 0.16296 0.53137 0.03245 0.0
H948 H 0.95741 0.56866 0.0509 0.0
H949 H 0.91898 0.59674 0.04341 0.0
H950 H 0.93556 0.62797 0.15744 0.0
H951 H 0.97397 0.60085 0.16474 0.0
C952 C 0.05888 0.20719 0.05525 0.0
C953 C 0.03351 0.21496 0.06018 0.0
H954 H 0.08612 0.17429 0.06271 0.0
C955 C 1.01658 0.19497 0.0781 0.0
H956 H 0.07262 0.22202 0.04177 0.0
C957 C 1.02379 0.16694 0.08898 0.0
C958 C 0.04892 0.15909 0.08373 0.0
H959 H 0.9975 0.2009 0.08338 0.0
H960 H 1.00982 0.15156 0.10177 0.0
C961 C 0.06666 0.17985 0.06732 0.0
C962 C 0.19655 0.79743 0.26568 0.0
C963 C 0.18685 0.82623 0.26228 0.0
H964 H 0.23064 0.77692 0.2872 0.0
C965 C 0.20594 0.85733 0.27747 0.0
H966 H 0.18261 0.77299 0.25405 0.0
C967 C 0.23349 0.85948 0.29668 0.0
C968 C 0.24287 0.83066 0.30086 0.0
H969 H 0.19935 0.88001 0.27541 0.0
H970 H 0.24733 0.88384 0.30894 0.0
C971 C 0.22421 0.7996 0.28451 0.0
C972 C 0.55999 0.90944 0.55094 0.0
C973 C 0.53686 0.88998 0.56083 0.0
H974 H 0.58429 0.9584 0.55102 0.0
C975 C 0.52022 0.90615 0.57897 0.0
H976 H 0.57314 0.8978 0.53672 0.0
C977 C 0.52634 0.94092 0.58666 0.0
C978 C 0.54952 0.96037 0.57688 0.0
H979 H 0.50205 0.89196 0.58659 0.0
H980 H 0.51294 0.95254 0.60042 0.0
C981 C 0.56637 0.94421 0.55912 0.0
C982 C 0.50473 0.2999 0.72254 0.0
C983 C 0.532 0.32022 0.73919 0.0
H984 H 0.46174 0.28208 0.7257 0.0
C985 C 0.53628 0.33838 0.7738 0.0
H986 H 0.50047 0.28558 0.69584 0.0
C987 C 0.51386 0.33595 0.79135 0.0
C988 C 0.48658 0.31539 0.77466 0.0
H989 H 0.55697 0.35428 0.78744 0.0
H990 H 0.51812 0.34974 0.81827 0.0
C991 C 0.48241 0.29763 0.73988 0.0
C992 C 0.13855 0.86877 0.72127 0.0
C993 C 0.12153 0.86129 0.74538 0.0
H994 H 0.14465 0.89465 0.67878 0.0
C995 C 0.10088 0.87857 0.74986 0.0
H996 H 0.15455 0.85565 0.71743 0.0
C997 C 0.09536 0.90058 0.72803 0.0
C998 C 0.11044 0.90552 0.7016 0.0
H999 H 0.0877 0.87344 0.76861 0.0
H1000 H 0.07805 0.91203 0.73015 0.0
C1001 C 0.13297 0.89095 0.6993 0.0
C1002 C 0.44785 0.81101 0.87291 0.0
C1003 C 0.46435 0.84241 0.87191 0.0
H1004 H 0.40839 0.78274 0.8787 0.0
C1005 C 0.45292 0.87011 0.87607 0.0
H1006 H 0.45634 0.78936 0.87102 0.0
C1007 C 0.42498 0.86616 0.87977 0.0
C1008 C 0.40843 0.83453 0.88011 0.0
H1009 H 0.46551 0.89472 0.87613 0.0
H1010 H 0.41608 0.88749 0.88099 0.0
C1011 C 0.42046 0.80729 0.87775 0.0
C1012 C 0.56269 0.1845 0.1763 0.0
C1013 C 0.5894 0.20728 0.1871 0.0
H1014 H 0.53718 0.13978 0.14124 0.0
C1015 C 0.61056 0.2038 0.16845 0.0
H1016 H 0.54601 0.18664 0.19014 0.0
C1017 C 0.60546 0.17689 0.14045 0.0
C1018 C 0.57903 0.15378 0.13052 0.0
H1019 H 0.63141 0.22096 0.17649 0.0
H1020 H 0.62246 0.17328 0.12776 0.0
C1021 C 0.55754 0.158 0.14814 0.0
C1022 C 0.1212 0.35033 0.36037 0.0
C1023 C 0.11949 0.34897 0.39565 0.0
H1024 H 0.14168 0.33787 0.31851 0.0
C1025 C 0.13662 0.33259 0.41558 0.0
H1026 H 0.10795 0.36251 0.34435 0.0
C1027 C 0.15525 0.31801 0.40067 0.0
C1028 C 0.15749 0.31989 0.3657 0.0
H1029 H 0.13538 0.33048 0.4426 0.0
H1030 H 0.16784 0.30506 0.41658 0.0
C1031 C 0.1402 0.33597 0.3455 0.0
C1032 C 0.02865 0.08725 0.24232 0.0
C1033 C 1.01294 0.05447 0.23978 0.0
H1034 H 0.05347 0.12146 0.21791 0.0
C1035 C 1.00903 0.03093 0.20867 0.0
H1036 H 0.03185 0.10609 0.2658 0.0
C1037 C 1.02151 0.03988 0.18106 0.0
C1038 C 0.03785 0.07249 0.18425 0.0
H1039 H 0.99686 1.00554 0.20595 0.0
H1040 H 1.01904 1.02112 0.15776 0.0
C1041 C 0.0409 0.09618 0.21478 0.0
C1042 C 0.34701 0.77478 0.60845 0.0
C1043 C 0.36522 0.80072 0.63524 0.0
H1044 H 0.31763 0.76138 0.55808 0.0
C1045 C 0.36578 0.83377 0.6329 0.0
H1046 H 0.34542 0.74894 0.61007 0.0
C1047 C 0.34991 0.84083 0.60283 0.0
C1048 C 0.33306 0.81484 0.57517 0.0
H1049 H 0.3793 0.85409 0.65353 0.0
H1050 H 0.35201 0.86657 0.60043 0.0
C1051 C 0.33093 0.7818 0.5788 0.0
C1052 C 0.63427 0.08801 0.75795 0.0
C1053 C 0.64277 0.05952 0.76653 0.0
H1054 H 0.60975 0.10979 0.72072 0.0
C1055 C 0.63293 0.03049 0.73958 0.0
H1056 H 0.64089 0.11104 0.77733 0.0
C1057 C 0.61509 0.03014 0.70605 0.0
C1058 C 0.60653 0.05879 0.69806 0.0
H1059 H 0.6387 1.00791 0.74446 0.0
H1060 H 0.60716 1.00705 0.68677 0.0
C1061 C 0.61646 0.08754 0.7249 0.0
C1062 C 0.32525 0.3723 0.01475 0.0
C1063 C 0.34957 0.36814 0.03687 0.0
H1064 H 0.30042 0.36474 0.96174 0.0
C1065 C 0.3675 0.35187 0.02146 0.0
H1066 H 0.31106 0.38486 0.02576 0.0
C1067 C 0.3616 0.34074 0.98464 0.0
C1068 C 0.33742 0.34519 0.96251 0.0
H1069 H 0.38653 0.34854 0.0377 0.0
H1070 H 0.37607 0.32875 0.97353 0.0
C1071 C 0.31914 0.36076 0.97803 0.0
C1072 C 1.01802 0.99631 0.43576 0.0
C1073 C 1.01324 1.01929 0.41432 0.0
H1074 H 0.03236 0.98815 0.48759 0.0
C1075 C 1.02079 0.05342 0.42973 0.0
H1076 H 1.01249 0.96994 0.42466 0.0
C1077 C 0.03202 0.06415 0.46635 0.0
C1078 C 0.0361 0.04091 0.48789 0.0
H1079 H 1.01721 0.07174 0.41375 0.0
H1080 H 0.0371 0.09041 0.47777 0.0
C1081 C 0.02941 1.00695 0.472 0.0
C1082 C 0.38382 0.77223 0.76968 0.0
C1083 C 0.40883 0.79495 0.76881 0.0
H1084 H 0.34149 0.76538 0.7772 0.0
C1085 C 0.41053 0.82895 0.77524 0.0
H1086 H 0.38307 0.74615 0.76718 0.0
C1087 C 0.38746 0.84 0.78258 0.0
C1088 C 0.36252 0.81727 0.78451 0.0
H1089 H 0.42975 0.84697 0.77486 0.0
H1090 H 0.38975 0.86657 0.78847 0.0
C1091 C 0.36043 0.78325 0.77646 0.0
C1092 C 0.66742 0.07322 1.00777 0.0
C1093 C 0.65642 0.06027 0.97074 0.0
H1094 H 0.66014 0.08489 0.06044 0.0
C1095 C 0.62638 0.04898 0.96031 0.0
H1096 H 0.69012 0.08238 0.01795 0.0
C1097 C 0.6087 0.05103 0.98548 0.0
C1098 C 0.62003 0.06406 0.02251 0.0
H1099 H 0.61637 0.03893 0.93256 0.0
H1100 H 0.58594 0.04203 0.97577 0.0
C1101 C 0.64994 0.0748 0.03273 0.0
C1102 C 0.33139 0.33275 0.1987 0.0
C1103 C 0.34099 0.36752 0.20383 0.0
H1104 H 0.31919 0.29035 0.22199 0.0
C1105 C 0.34692 0.38631 0.23854 0.0
H1106 H 0.32674 0.31745 0.17244 0.0
C1107 C 0.34237 0.37062 0.26716 0.0
C1108 C 0.33208 0.33585 0.26162 0.0
H1109 H 0.35428 0.41315 0.24343 0.0
H1110 H 0.34622 0.38571 0.2934 0.0
C1111 C 0.32715 0.31715 0.2272 0.0
C1112 C 0.22441 0.98095 0.06738 0.0
C1113 C 0.21899 0.95174 0.08116 0.0
H1114 H 0.22083 0.03068 0.07033 0.0
C1115 C 0.20603 0.95083 0.11012 0.0
H1116 H 0.23458 0.98255 0.04524 0.0
C1117 C 0.19802 0.9787 0.1245 0.0
C1118 C 0.20282 1.00753 0.10991 0.0
H1119 H 0.20169 0.92857 0.12123 0.0
H1120 H 0.18736 0.97739 0.14621 0.0
C1121 C 0.21652 1.00857 0.0817 0.0
C1122 C 0.68784 0.61092 0.06973 0.0
C1123 C 0.69064 0.64536 0.07623 0.0
H1124 H 0.66283 0.56256 0.07033 0.0
C1125 C 0.66861 0.65711 0.08753 0.0
H1126 H 0.70433 0.60092 0.0612 0.0
C1127 C 0.6446 0.63498 0.09259 0.0
C1128 C 0.64224 0.60066 0.08684 0.0
H1129 H 0.67004 0.6835 0.09289 0.0
H1130 H 0.62824 0.64477 0.10166 0.0
C1131 C 0.66405 0.58892 0.07515 0.0
C1132 C 0.71837 0.52315 0.39531 0.0
C1133 C 0.70784 0.52979 0.36186 0.0
H1134 H 0.74257 0.49587 0.42443 0.0
C1135 C 0.71241 0.51198 0.33118 0.0
H1136 H 0.71524 0.53659 0.41948 0.0
C1137 C 0.72782 0.4882 0.33406 0.0
C1138 C 0.73878 0.48217 0.36763 0.0
H1139 H 0.70437 0.5166 0.30509 0.0
H1140 H 0.73133 0.47473 0.31018 0.0
C1141 C 0.73382 0.49965 0.39818 0.0
C1142 C 0.83922 0.45877 0.49269 0.0
C1143 C 0.83143 0.44946 0.52324 0.0
H1144 H 0.87257 0.48299 0.47057 0.0
C1145 C 0.85158 0.45847 0.55575 0.0
H1146 H 0.82409 0.45196 0.46728 0.0
C1147 C 0.87903 0.47658 0.55777 0.0
C1148 C 0.88702 0.48562 0.52721 0.0
H1149 H 0.84622 0.45164 0.5798 0.0
H1150 H 0.89397 0.48357 0.58334 0.0
C1151 C 0.86686 0.47671 0.49465 0.0
C1152 C 0.39725 0.20208 0.35022 0.0
C1153 C 0.38166 0.17085 0.32836 0.0
H1154 H 0.39841 0.25353 0.37091 0.0
C1155 C 0.3535 0.17015 0.3111 0.0
H1156 H 0.4189 0.20484 0.36415 0.0
C1157 C 0.3416 0.19804 0.31523 0.0
C1158 C 0.35697 0.22927 0.3366 0.0
H1159 H 0.34007 0.14744 0.2939 0.0
H1160 H 0.31994 0.19498 0.3011 0.0
C1161 C 0.38532 0.23049 0.354 0.0
C1162 C 0.35196 0.1308 0.566 0.0
C1163 C 0.35477 0.16111 0.58868 0.0
H1164 H 0.37152 0.09181 0.55112 0.0
C1165 C 0.38038 0.17549 0.61407 0.0
H1166 H 0.33254 0.11915 0.54609 0.0
C1167 C 0.40262 0.16006 0.6168 0.0
C1168 C 0.39995 0.12974 0.59427 0.0
H1169 H 0.38332 0.19878 0.63205 0.0
H1170 H 0.42208 0.17213 0.63652 0.0
C1171 C 0.37439 0.11533 0.56866 0.0
C1172 C 0.75485 0.68834 0.38973 0.0
C1173 C 0.7312 0.70056 0.39401 0.0
H1174 H 0.79644 0.69873 0.379 0.0
C1175 C 0.73229 0.73389 0.39214 0.0
H1176 H 0.75479 0.66277 0.39108 0.0
C1177 C 0.75608 0.7542 0.38496 0.0
C1178 C 0.77912 0.74161 0.37951 0.0
H1179 H 0.71466 0.74416 0.39581 0.0
H1180 H 0.75669 0.7799 0.3844 0.0
C1181 C 0.77868 0.7088 0.38279 0.0
C1182 C 0.87826 0.47404 0.85358 0.0
C1183 C 0.89191 0.47697 0.82509 0.0
H1184 H 0.85383 0.44159 0.88117 0.0
C1185 C 0.88933 0.44694 0.80144 0.0
H1186 H 0.87981 0.49605 0.87282 0.0
C1187 C 0.87417 0.41562 0.80597 0.0
C1188 C 0.86111 0.41244 0.83481 0.0
H1189 H 0.89941 0.44753 0.77917 0.0
H1190 H 0.87323 0.39366 0.78703 0.0
C1191 C 0.86339 0.44245 0.85848 0.0
C1192 C 0.12084 0.94321 0.12748 0.0
C1193 C 0.10326 0.92247 0.14418 0.0
H1194 H 0.12786 0.98692 0.10431 0.0
C1195 C 0.07765 0.92995 0.1484 0.0
H1196 H 0.14054 0.9381 0.12344 0.0
C1197 C 0.06996 0.95734 0.13632 0.0
C1198 C 0.08798 0.97847 0.12052 0.0
H1199 H 0.06352 0.91467 0.16109 0.0
H1200 H 0.05023 0.96254 0.14031 0.0
C1201 C 0.11356 0.97116 0.11638 0.0
C1202 C 0.92112 0.31327 0.96248 0.0
C1203 C 0.94189 0.29815 0.95201 0.0
H1204 H 0.88113 0.32546 0.94642 0.0
C1205 C 0.93695 0.28259 0.91637 0.0
H1206 H 0.9242 0.3257 0.98974 0.0
C1207 C 0.9123 0.28231 0.89195 0.0
C1208 C 0.89165 0.29764 0.9021 0.0
H1209 H 0.95232 0.27091 0.90711 0.0
H1210 H 0.90963 0.27021 0.86465 0.0
C1211 C 0.89631 0.31313 0.93777 0.0
C1212 C 0.57739 0.22189 0.64995 0.0
C1213 C 0.59953 0.24142 0.63842 0.0
H1214 H 0.55436 0.17291 0.65188 0.0
C1215 C 0.61587 0.22535 0.61962 0.0
H1216 H 0.56453 0.23345 0.66474 0.0
C1217 C 0.61036 0.1906 0.61278 0.0
C1218 C 0.58807 0.1711 0.62407 0.0
H1219 H 0.63333 0.23964 0.61079 0.0
H1220 H 0.62345 0.17904 0.59841 0.0
C1221 C 0.57158 0.18715 0.64259 0.0
C1222 C 0.63286 0.8269 0.47931 0.0
C1223 C 0.60497 0.80956 0.46135 0.0
H1224 H 0.6763 0.84245 0.47694 0.0
C1225 C 0.59998 0.7945 0.42539 0.0
H1226 H 0.63762 0.83877 0.50704 0.0
C1227 C 0.62234 0.79703 0.40781 0.0
C1228 C 0.65025 0.81458 0.42582 0.0
H1229 H 0.57878 0.781 0.41073 0.0
H1230 H 0.6176 0.78574 0.37992 0.0
C1231 C 0.65513 0.82927 0.46188 0.0
C1232 C 0.9998 0.26143 0.46482 0.0
C1233 C 1.02337 0.28117 0.45638 0.0
H1234 H 0.98494 0.222 0.49093 0.0
C1235 C 0.05001 0.27428 0.46496 0.0
H1236 H 0.97903 0.26611 0.4582 0.0
C1237 C 0.05337 0.24937 0.4838 0.0
C1238 C 0.03012 0.23094 0.49398 0.0
H1239 H 0.06858 0.28913 0.45871 0.0
H1240 H 0.07444 0.2459 0.49216 0.0
C1241 C 1.00315 0.23632 0.48346 0.0
C1242 C 0.68804 0.23837 0.304 0.0
C1243 C 0.67253 0.26077 0.31406 0.0
H1244 H 0.72863 0.23146 0.29978 0.0
C1245 C 0.68658 0.29452 0.32706 0.0
H1246 H 0.67771 0.21232 0.29353 0.0
C1247 C 0.71559 0.30567 0.32997 0.0
C1248 C 0.73115 0.28324 0.32019 0.0
H1249 H 0.67515 0.31254 0.33459 0.0
H1250 H 0.72585 0.33173 0.34055 0.0
C1251 C 0.71712 0.24949 0.30707 0.0
C1252 C 0.57441 0.94319 0.03087 0.0
C1253 C 0.54677 0.92398 0.01492 0.0
H1254 H 0.60036 0.9836 0.07175 0.0
C1255 C 0.52443 0.92754 0.03137 0.0
H1256 H 0.59205 0.94078 0.01894 0.0
C1257 C 0.52934 0.95171 0.06186 0.0
C1258 C 0.55657 0.97228 0.0762 0.0
H1259 H 0.50291 0.91282 0.01978 0.0
H1260 H 0.51169 0.95561 0.07299 0.0
C1261 C 0.57926 0.96724 0.06133 0.0
C1262 C 1.00119 0.80659 0.78759 0.0
C1263 C 1.02045 0.79282 0.80781 0.0
H1264 H 0.96727 0.83001 0.78652 0.0
C1265 C 1.01969 0.79158 0.84338 0.0
H1266 H 1.00159 0.80844 0.7603 0.0
C1267 C 0.99969 0.80367 0.85837 0.0
C1268 C 0.98038 0.81732 0.838 0.0
H1269 H 0.03454 0.78135 0.85962 0.0
H1270 H 0.99911 0.80199 0.88566 0.0
C1271 C 0.98149 0.81891 0.80261 0.0
C1272 C 0.11491 0.06698 0.96701 0.0
C1273 C 0.1339 0.09877 0.97837 0.0
H1274 H 0.08425 0.02884 0.98034 0.0
C1275 C 0.13606 0.11689 0.01215 0.0
H1276 H 0.1129 0.05247 0.94096 0.0
C1277 C 0.11932 0.10369 0.03411 0.0
C1278 C 0.10092 0.0716 0.02336 0.0
H1279 H 0.15031 0.1415 0.02138 0.0
H1280 H 0.1208 0.1188 0.0596 0.0
C1281 C 0.09872 0.05332 0.98954 0.0
C1282 C 0.78599 0.34853 0.58947 0.0
C1283 C 0.76914 0.32359 0.56068 0.0
H1284 H 0.81084 0.35985 0.64253 0.0
C1285 C 0.7664 0.29008 0.56266 0.0
H1286 H 0.78881 0.37467 0.58877 0.0
C1287 C 0.77886 0.28167 0.59394 0.0
C1288 C 0.79423 0.30675 0.62325 0.0
H1289 H 0.75388 0.27047 0.54064 0.0
H1290 H 0.77524 0.25567 0.5958 0.0
C1291 C 0.7986 0.34016 0.62038 0.0
C1292 C 0.51812 0.05868 0.43638 0.0
C1293 C 0.4961 0.07489 0.43566 0.0
H1294 H 0.55327 0.0456 0.46691 0.0
C1295 C 0.49285 0.08982 0.46915 0.0
H1296 H 0.52118 0.04615 0.41169 0.0
C1297 C 0.5111 0.08849 0.50182 0.0
C1298 C 0.5334 0.07248 0.50201 0.0
H1299 H 0.47574 0.10176 0.47021 0.0
H1300 H 0.50806 0.10048 0.52676 0.0
C1301 C 0.53647 0.05798 0.46847 0.0
C1302 C 0.82082 0.78984 0.18802 0.0
C1303 C 0.79833 0.76319 0.16816 0.0
H1304 H 0.84089 0.82072 0.23912 0.0
C1305 C 0.77722 0.74872 0.18491 0.0
H1306 H 0.83737 0.80158 0.17599 0.0
C1307 C 0.77901 0.76017 0.22098 0.0
C1308 C 0.80223 0.78576 0.24098 0.0
H1309 H 0.75959 0.72815 0.17033 0.0
H1310 H 0.76295 0.7481 0.23354 0.0
C1311 C 0.82288 0.80076 0.22415 0.0
C1312 C 0.11954 0.07779 0.76636 0.0
C1313 C 0.12466 0.11113 0.78347 0.0
H1314 H 0.10515 0.04252 0.71724 0.0
C1315 C 0.11853 0.13469 0.76332 0.0
H1316 H 0.12416 0.059 0.78116 0.0
C1317 C 0.10772 0.12522 0.72673 0.0
C1318 C 0.10285 0.09197 0.7095 0.0
H1319 H 0.12227 0.16052 0.77572 0.0
H1320 H 0.10319 0.14412 0.71202 0.0
C1321 C 0.10875 0.06831 0.7297 0.0
C1322 C 0.76849 0.34316 0.45021 0.0
C1323 C 0.74034 0.32673 0.43257 0.0
H1324 H 0.8126 0.34349 0.45705 0.0
C1325 C 0.73483 0.29442 0.4131 0.0
H1326 H 0.77341 0.36724 0.46643 0.0
C1327 C 0.75709 0.28083 0.40757 0.0
C1328 C 0.78541 0.29949 0.42094 0.0
H1329 H 0.71335 0.28024 0.40038 0.0
H1330 H 0.75189 0.25676 0.39014 0.0
C1331 C 0.79096 0.32941 0.44495 0.0
C1332 C 0.47776 0.0716 0.2137 0.0
C1333 C 0.4921 0.07133 0.24884 0.0
H1334 H 0.4789 0.06828 0.15771 0.0
C1335 C 0.51999 0.06716 0.25197 0.0
H1336 H 0.45635 0.07456 0.20916 0.0
C1337 C 0.53286 0.06357 0.22262 0.0
C1338 C 0.51886 0.06354 0.18751 0.0
H1339 H 0.53246 0.06675 0.27775 0.0
H1340 H 0.55433 0.06077 0.22783 0.0
C1341 C 0.4908 0.06769 0.18377 0.0
C1342 C 0.78967 0.79565 0.9983 0.0
C1343 C 0.78541 0.76106 0.99542 0.0
H1344 H 0.80084 0.83802 0.97436 0.0
C1345 C 0.78838 0.74237 0.964 0.0
H1346 H 0.78776 0.81092 0.02208 0.0
C1347 C 0.79562 0.75802 0.93635 0.0
C1348 C 0.80041 0.79272 0.93978 0.0
H1349 H 0.78536 0.7157 0.96088 0.0
H1350 H 0.79819 0.7431 0.91273 0.0
C1351 C 0.79718 0.81125 0.97092 0.0
C1352 C 0.90441 0.14832 0.12689 0.0
C1353 C 0.91943 0.18017 0.12478 0.0
H1354 H 0.89713 0.09609 0.11018 0.0
C1355 C 0.93751 0.18371 0.10134 0.0
H1356 H 0.88958 0.14498 0.14398 0.0
C1357 C 0.94213 0.15552 0.08223 0.0
C1358 C 0.92864 0.12356 0.08626 0.0
H1359 H 0.94895 0.20812 0.09894 0.0
H1360 H 0.95723 0.15879 0.06564 0.0
C1361 C 0.90873 0.12031 0.10751 0.0
C1362 C 0.45294 0.51503 0.14521 0.0
C1363 C 0.44106 0.48637 0.11856 0.0
H1364 H 0.4879 0.5581 0.16641 0.0
C1365 C 0.45698 0.4782 0.09385 0.0
H1366 H 0.44129 0.52205 0.16462 0.0
C1367 C 0.48363 0.49867 0.09496 0.0
C1368 C 0.49505 0.52791 0.12077 0.0
H1369 H 0.44866 0.45613 0.07314 0.0
H1370 H 0.49493 0.49204 0.07497 0.0
C1371 C 0.47963 0.53565 0.14621 0.0
C1372 C 0.44569 0.63896 0.80486 0.0
C1373 C 0.44397 0.61304 0.82387 0.0
H1374 H 0.42698 0.67748 0.78943 0.0
C1375 C 0.4248 0.6087 0.84599 0.0
H1376 H 0.46041 0.64258 0.78768 0.0
C1377 C 0.40609 0.62851 0.84718 0.0
C1378 C 0.40611 0.65261 0.82593 0.0
H1379 H 0.42351 0.58912 0.86136 0.0
H1380 H 0.3909 0.62416 0.8637 0.0
C1381 C 0.42666 0.65874 0.80581 0.0
C1382 C 0.28937 0.69811 0.66805 0.0
C1383 C 0.31083 0.70082 0.69807 0.0
H1384 H 0.24686 0.67471 0.64 0.0
C1385 C 0.30558 0.68198 0.72396 0.0
H1386 H 0.29333 0.71191 0.64733 0.0
C1387 C 0.27857 0.66148 0.72049 0.0
C1388 C 0.25684 0.65889 0.69047 0.0
H1389 H 0.32214 0.68373 0.74709 0.0
H1390 H 0.27464 0.64822 0.74159 0.0
C1391 C 0.26276 0.67692 0.66398 0.0
C1392 C 0.77973 0.95832 0.89479 0.0
C1393 C 0.75203 0.95794 0.87605 0.0
H1394 H 0.8134 0.93367 0.90559 0.0
C1395 C 0.73753 0.9274 0.8521 0.0
H1396 H 0.79235 0.98047 0.91365 0.0
C1397 C 0.74994 0.89933 0.8479 0.0
C1398 C 0.77779 0.9002 0.86686 0.0
H1399 H 0.71626 0.92478 0.83698 0.0
H1400 H 0.73757 0.8768 0.82946 0.0
C1401 C 0.79217 0.93083 0.89016 0.0
C1402 C 0.78585 1.00021 0.63789 0.0
C1403 C 0.78185 0.96824 0.61789 0.0
H1404 H 0.7675 0.04092 0.65018 0.0
C1405 C 0.75535 0.95259 0.5948 0.0
H1406 H 0.80601 1.01288 0.65597 0.0
C1407 C 0.7334 0.96848 0.5916 0.0
C1408 C 0.7373 1.00047 0.61141 0.0
H1409 H 0.7515 0.928 0.57891 0.0
H1410 H 0.71325 0.95553 0.57366 0.0
C1411 C 0.76373 1.01613 0.6348 0.0
C1412 C 0.40286 0.39587 0.80757 0.0
C1413 C 0.40474 0.42974 0.80823 0.0
H1414 H 0.37825 0.34952 0.81427 0.0
C1415 C 0.38205 0.44259 0.81552 0.0
H1416 H 0.4197 0.38515 0.80148 0.0
C1417 C 0.35839 0.42212 0.82284 0.0
C1418 C 0.35723 0.38868 0.82361 0.0
H1419 H 0.38272 0.4686 0.81614 0.0
H1420 H 0.34137 0.43262 0.82886 0.0
C1421 C 0.37934 0.37557 0.81536 0.0
C1422 C 0.25843 0.65687 0.35175 0.0
C1423 C 0.24537 0.65395 0.38072 0.0
H1424 H 0.28196 0.68939 0.32344 0.0
C1425 C 0.24811 0.6839 0.40454 0.0
H1426 H 0.2567 0.63488 0.3324 0.0
C1427 C 0.26289 0.71524 0.39967 0.0
C1428 C 0.2753 0.71839 0.37033 0.0
H1429 H 0.23844 0.68326 0.42715 0.0
H1430 H 0.26397 0.73722 0.41867 0.0
C1431 C 0.27288 0.68846 0.34652 0.0
C1432 C 0.52703 0.68848 0.54139 0.0
C1433 C 0.54638 0.71899 0.55865 0.0
H1434 H 0.51514 0.63558 0.5377 0.0
C1435 C 0.56771 0.71886 0.58806 0.0
H1436 H 0.51058 0.6874 0.51836 0.0
C1437 C 0.56993 0.68921 0.59952 0.0
C1438 C 0.55098 0.65859 0.58188 0.0
H1439 H 0.58311 0.74172 0.60205 0.0
H1440 H 0.58699 0.69028 0.62185 0.0
C1441 C 0.52946 0.65869 0.5527 0.0
C1442 C 0.70366 0.3511 0.7877 0.0
C1443 C 0.69667 0.33143 0.75357 0.0
H1444 H 0.73288 0.36719 0.83817 0.0
C1445 C 0.71581 0.31305 0.74421 0.0
H1446 H 0.68965 0.36556 0.79599 0.0
C1447 C 0.74092 0.31385 0.76869 0.0
C1448 C 0.74749 0.3332 0.80299 0.0
H1449 H 0.71117 0.29751 0.7181 0.0
H1450 H 0.75467 0.29876 0.7611 0.0
C1451 C 0.72861 0.35197 0.81192 0.0
C1452 C 0.06231 0.41239 0.05452 0.0
C1453 C 0.04023 0.3924 0.0657 0.0
H1454 H 0.0851 0.46166 0.05346 0.0
C1455 C 1.02392 0.40787 0.08512 0.0
H1456 H 0.07515 0.40125 0.03931 0.0
C1457 C 0.02935 0.44257 0.09279 0.0
C1458 C 0.05152 0.46254 0.08173 0.0
H1459 H 1.00651 0.39316 0.09367 0.0
H1460 H 1.0162 0.45373 0.10744 0.0
C1461 C 0.06802 0.44705 0.06267 0.0
C1462 C 1.00333 0.79717 0.22583 0.0
C1463 C 0.0302 0.81873 0.24179 0.0
H1464 H 0.96068 0.77828 0.2298 0.0
C1465 C 0.03437 0.83777 0.27592 0.0
H1466 H 0.99931 0.7821 0.19956 0.0
C1467 C 1.01207 0.83536 0.29356 0.0
C1468 C 0.98513 0.81377 0.27749 0.0
H1469 H 0.05476 0.85472 0.28888 0.0
H1470 H 1.01611 0.85009 0.31999 0.0
C1471 C 0.98114 0.79478 0.24336 0.0
C1472 C 0.63857 0.37068 0.231 0.0
C1473 C 0.61643 0.35618 0.24593 0.0
H1474 H 0.65185 0.40497 0.19809 0.0
C1475 C 0.5914 0.36693 0.24173 0.0
H1476 H 0.65794 0.3625 0.23373 0.0
C1477 C 0.58808 0.39094 0.22176 0.0
C1478 C 0.60972 0.40451 0.20573 0.0
H1479 H 0.57398 0.35606 0.25296 0.0
H1480 H 0.56807 0.3978 0.21752 0.0
C1481 C 0.63512 0.3947 0.21067 0.0
C1482 C 0.94878 0.31114 0.37231 0.0
C1483 C 0.9649 0.3436 0.37468 0.0
H1484 H 0.90902 0.27993 0.3731 0.0
C1485 C 0.95285 0.37043 0.38188 0.0
H1486 H 0.95769 0.28998 0.36802 0.0
C1487 C 0.92464 0.36465 0.38499 0.0
C1488 C 0.90836 0.33196 0.38128 0.0
H1489 H 0.96512 0.39578 0.38467 0.0
H1490 H 0.91531 0.3855 0.3887 0.0
C1491 C 0.92096 0.30543 0.37582 0.0
C1492 C 0.08232 0.71467 0.64989 0.0
C1493 C 0.08443 0.71349 0.68611 0.0
H1494 H 0.07966 0.68743 0.5978 0.0
C1495 C 0.08777 0.68443 0.69805 0.0
H1496 H 0.07993 0.73693 0.64008 0.0
C1497 C 0.08841 0.6569 0.67435 0.0
C1498 C 0.08522 0.65738 0.63792 0.0
H1499 H 0.08975 0.68273 0.72579 0.0
H1500 H 0.09004 0.63467 0.6846 0.0
C1501 C 0.08251 0.68661 0.62582 0.0
C1502 C 0.63805 0.8331 0.91687 0.0
C1503 C 0.61975 0.84774 0.89627 0.0
H1504 H 0.67024 0.80698 0.91851 0.0
C1505 C 0.62067 0.84788 0.86055 0.0
H1506 H 0.63753 0.83205 0.9443 0.0
C1507 C 0.63983 0.83377 0.84579 0.0
C1508 C 0.65812 0.81917 0.86654 0.0
H1509 H 0.60654 0.85872 0.844 0.0
H1510 H 0.64055 0.83459 0.81837 0.0
C1511 C 0.65685 0.81875 0.90209 0.0
C1512 C 0.51334 0.56174 0.72918 0.0
C1513 C 0.50139 0.5271 0.72227 0.0
H1514 H 0.53746 0.603 0.71222 0.0
C1515 C 0.50368 0.50764 0.6912 0.0
H1516 H 0.51192 0.57752 0.75292 0.0
C1517 C 0.51802 0.52242 0.66778 0.0
C1518 C 0.53051 0.55686 0.67518 0.0
H1519 H 0.49472 0.48099 0.68516 0.0
H1520 H 0.5201 0.50662 0.64444 0.0
C1521 C 0.52783 0.57646 0.70586 0.0
C1522 C 0.84836 0.28325 0.11702 0.0
C1523 C 0.86744 0.30749 0.14476 0.0
H1524 H 0.82202 0.2731 0.06487 0.0
C1525 C 0.87215 0.34115 0.14272 0.0
H1526 H 0.8437 0.25709 0.11835 0.0
C1527 C 0.8599 0.3502 0.11174 0.0
C1528 C 0.84264 0.32561 0.08304 0.0
H1529 H 0.88645 0.36016 0.16409 0.0
H1530 H 0.86533 0.3761 0.10946 0.0
C1531 C 0.83588 0.29231 0.08647 0.0
C1532 C 0.14498 0.54549 0.23604 0.0
C1533 C 0.14037 0.5586 0.26943 0.0
H1534 H 0.13149 0.53708 0.17832 0.0
C1535 C 0.11744 0.57338 0.26841 0.0
H1536 H 0.16269 0.53453 0.23524 0.0
C1537 C 0.09966 0.57464 0.23614 0.0
C1538 C 0.10418 0.56217 0.20274 0.0
H1539 H 0.11314 0.58427 0.29304 0.0
H1540 H 0.08218 0.58592 0.23746 0.0
C1541 C 0.12732 0.54749 0.2032 0.0
C1542 C 0.86703 0.8526 0.52244 0.0
C1543 C 0.84933 0.86886 0.53827 0.0
H1544 H 0.8749 0.82907 0.47433 0.0
C1545 C 0.82446 0.87235 0.51664 0.0
H1546 H 0.88641 0.84967 0.53825 0.0
C1547 C 0.81771 0.86028 0.47991 0.0
C1548 C 0.83588 0.8449 0.464 0.0
H1549 H 0.81039 0.88485 0.528 0.0
H1550 H 0.79865 0.86382 0.46391 0.0
C1551 C 0.86049 0.84095 0.48571 0.0
C1552 C 0.5186 0.49859 0.93684 0.0
C1553 C 0.51306 0.52211 0.91644 0.0
H1554 H 0.534 0.48939 0.98798 0.0
C1555 C 0.52045 0.55598 0.93273 0.0
H1556 H 0.5132 0.4724 0.92501 0.0
C1557 C 0.53224 0.56593 0.96921 0.0
C1558 C 0.537 0.54218 0.98978 0.0
H1559 H 0.51629 0.57471 0.91756 0.0
H1560 H 0.53712 0.59201 0.98132 0.0
C1561 C 0.53053 0.5085 0.97305 0.0
C1562 C 0.90421 0.3322 0.28994 0.0
C1563 C 0.9003 0.29885 0.27447 0.0
H1564 H 0.88498 0.36913 0.31028 0.0
C1565 C 0.87274 0.27839 0.26312 0.0
H1566 H 0.92527 0.34885 0.29874 0.0
C1567 C 0.84926 0.29061 0.26682 0.0
C1568 C 0.85343 0.32246 0.28624 0.0
H1569 H 0.86976 0.25244 0.25423 0.0
H1570 H 0.82806 0.27444 0.25717 0.0
C1571 C 0.88098 0.3439 0.29592 0.0
C1572 C 0.13045 0.55286 0.46292 0.0
C1573 C 0.16053 0.56192 0.47296 0.0
H1574 H 0.09049 0.54841 0.47912 0.0
C1575 C 0.17217 0.5736 0.51008 0.0
H1576 H 0.12001 0.54387 0.43514 0.0
C1577 C 0.15519 0.57607 0.53553 0.0
C1578 C 0.12526 0.5675 0.52568 0.0
H1579 H 0.19497 0.581 0.51994 0.0
H1580 H 0.16579 0.58503 0.56328 0.0
C1581 C 0.11333 0.55574 0.48855 0.0
C1582 C 0.83393 0.83207 0.70076 0.0
C1583 C 0.84275 0.86689 0.70578 0.0
H1584 H 0.82192 0.78958 0.72399 0.0
C1585 C 0.84749 0.88574 0.74025 0.0
H1586 H 0.83021 0.81674 0.67469 0.0
C1587 C 0.84254 0.87001 0.76872 0.0
C1588 C 0.83301 0.83517 0.76325 0.0
H1589 H 0.8542 0.91263 0.74503 0.0
H1590 H 0.84546 0.88512 0.79473 0.0
C1591 C 0.82927 0.81644 0.72912 0.0
C1592 C 0.72198 0.48084 0.56138 0.0
C1593 C 0.71465 0.44992 0.57145 0.0
H1594 H 0.72074 0.53153 0.56957 0.0
C1595 C 0.70035 0.44678 0.59902 0.0
H1596 H 0.73342 0.48419 0.54057 0.0
C1597 C 0.69259 0.47409 0.61538 0.0
C1598 C 0.69945 0.50481 0.60458 0.0
H1599 H 0.69456 0.42316 0.60727 0.0
H1600 H 0.68049 0.4709 0.63555 0.0
C1601 C 0.71471 0.50802 0.57798 0.0
C1602 C 0.18634 0.10923 0.56617 0.0
C1603 C 0.1943 0.1422 0.58486 0.0
H1604 H 0.15584 0.0619 0.55441 0.0
C1605 C 0.17549 0.15355 0.60361 0.0
H1606 H 0.20035 0.09972 0.55163 0.0
C1607 C 0.14967 0.13214 0.60448 0.0
C1608 C 0.14253 0.0987 0.58744 0.0
H1609 H 0.18101 0.17892 0.6182 0.0
H1610 H 0.13599 0.14131 0.61985 0.0
C1611 C 0.16092 0.08759 0.56792 0.0
C1612 C 0.21886 0.0264 0.89794 0.0
C1613 C 0.20414 0.02981 0.8648 0.0
H1614 H 0.24786 1.0027 0.92532 0.0
C1615 C 0.20578 1.00997 0.83355 0.0
H1616 H 0.21778 0.04133 0.92244 0.0
C1617 C 0.22277 0.98788 0.8353 0.0
C1618 C 0.23823 0.98538 0.86829 0.0
H1619 H 0.19457 1.01208 0.80768 0.0
H1620 H 0.22437 0.97331 0.81085 0.0
C1621 C 0.23579 1.00418 0.89967 0.0
C1622 C 0.35026 0.91929 0.0308 0.0
C1623 C 0.32938 0.91912 1.00103 0.0
H1624 H 0.39185 0.94212 0.06233 0.0
C1625 C 0.33514 0.94221 0.97926 0.0
H1626 H 0.34595 0.90246 0.0488 0.0
C1627 C 0.362 0.96396 0.98589 0.0
C1628 C 0.38314 0.96414 0.01561 0.0
H1629 H 0.31911 0.94326 0.95697 0.0
H1630 H 0.36616 0.98024 0.96736 0.0
C1631 C 0.37665 0.94199 0.03843 0.0
C1632 C 0.89835 0.70196 0.8512 0.0
C1633 C 0.88297 0.67063 0.82934 0.0
H1634 H 0.89912 0.75329 0.872 0.0
C1635 C 0.8547 0.66971 0.8122 0.0
H1636 H 0.92007 0.70496 0.86506 0.0
C1637 C 0.84254 0.69743 0.81642 0.0
C1638 C 0.85769 0.72876 0.83779 0.0
H1639 H 0.84137 0.64696 0.79499 0.0
H1640 H 0.82082 0.69414 0.80233 0.0
C1641 C 0.88614 0.7302 0.85509 0.0
C1642 C 0.85187 0.63166 0.06918 0.0
C1643 C 0.85483 0.66205 0.09182 0.0
H1644 H 0.87141 0.5928 0.0538 0.0
C1645 C 0.88082 0.67687 0.11635 0.0
H1646 H 0.83219 0.6197 0.04985 0.0
C1647 C 0.90324 0.66174 0.11838 0.0
C1648 C 0.90038 0.63124 0.09604 0.0
H1649 H 0.88395 0.7003 0.13418 0.0
H1650 H 0.92297 0.67418 0.13743 0.0
C1651 C 0.87446 0.61644 0.07121 0.0
C1652 C 0.24568 0.21012 0.89935 0.0
C1653 C 0.23436 0.18353 0.87014 0.0
H1654 H 0.27733 0.25632 0.92135 0.0
C1655 C 0.24585 0.18402 0.83985 0.0
H1656 H 0.23718 0.21052 0.92295 0.0
C1657 C 0.26833 0.21018 0.83888 0.0
C1658 C 0.2801 0.23604 0.86838 0.0
H1659 H 0.23757 0.16407 0.81679 0.0
H1660 H 0.27686 0.20993 0.81528 0.0
C1661 C 0.26863 0.23613 0.89856 0.0
C1662 C 0.37663 0.97567 0.35539 0.0
C1663 C 0.39029 0.97808 0.32685 0.0
H1664 H 0.35212 0.94374 0.38341 0.0
C1665 C 0.38805 0.94781 0.30389 0.0
H1666 H 0.37791 0.99794 0.37406 0.0
C1667 C 0.37308 0.91672 0.30904 0.0
C1668 C 0.35988 0.91406 0.33781 0.0
H1669 H 0.39815 0.948 0.28162 0.0
H1670 H 0.3723 0.89453 0.29055 0.0
C1671 C 0.36192 0.94428 0.3609 0.0
C1672 C 0.61016 0.44182 0.65196 0.0
C1673 C 0.58745 0.41292 0.64196 0.0
H1674 H 0.62515 0.49319 0.64846 0.0
C1675 C 0.56273 0.41385 0.61805 0.0
H1676 H 0.62948 0.44217 0.67047 0.0
C1677 C 0.56034 0.44279 0.60529 0.0
C1678 C 0.58252 0.4721 0.61609 0.0
H1679 H 0.54476 0.39226 0.60955 0.0
H1680 H 0.54054 0.44232 0.58764 0.0
C1681 C 0.60769 0.4711 0.63926 0.0
C1682 C 0.43653 0.79023 0.40862 0.0
C1683 C 0.43954 0.79946 0.44541 0.0
H1684 H 0.41093 0.78483 0.35647 0.0
C1685 C 0.41766 0.81115 0.45741 0.0
H1686 H 0.45281 0.78128 0.39825 0.0
C1687 C 0.39347 0.81341 0.43328 0.0
C1688 C 0.39052 0.80395 0.39651 0.0
H1689 H 0.4192 0.81867 0.48558 0.0
H1690 H 0.37704 0.82227 0.44338 0.0
C1691 C 0.41242 0.79239 0.38462 0.0
C1692 C 0.12337 0.72691 0.13646 0.0
C1693 C 0.10336 0.74345 0.14588 0.0
H1694 H 0.13268 0.68036 0.12089 0.0
C1695 C 0.07615 0.72434 0.14563 0.0
H1696 H 0.14457 0.74074 0.13656 0.0
C1697 C 0.0693 0.68956 0.13659 0.0
C1698 C 0.08954 0.67305 0.12784 0.0
H1699 H 0.06025 0.7362 0.15299 0.0
H1700 H 0.04827 0.67562 0.13704 0.0
C1701 C 0.11659 0.69218 0.12766 0.0
C1702 C 0.10305 0.29506 0.92895 0.0
C1703 C 0.10693 0.31567 0.96214 0.0
H1704 H 0.12175 0.28052 0.88594 0.0
C1705 C 0.13359 0.33801 0.97733 0.0
H1706 H 0.08282 0.27751 0.91658 0.0
C1707 C 0.15586 0.33963 0.95997 0.0
C1708 C 0.15218 0.3189 0.92692 0.0
H1709 H 0.13737 0.35431 1.00284 0.0
H1710 H 0.17616 0.35684 0.9728 0.0
C1711 C 0.12546 0.29658 0.91158 0.0
C1712 C 0.49855 0.76141 0.96736 0.0
C1713 C 0.52134 0.77815 0.95495 0.0
H1714 H 0.48461 0.72525 0.99772 0.0
C1715 C 0.547 0.76864 0.96032 0.0
H1716 H 0.47852 0.76814 0.96334 0.0
C1717 C 0.55049 0.74438 0.98009 0.0
C1718 C 0.52831 0.7293 0.99447 0.0
H1719 H 0.56492 0.78109 0.95089 0.0
H1720 H 0.57103 0.73896 0.98596 0.0
C1721 C 0.50202 0.73701 0.98699 0.0
C1722 C 0.18921 0.7463 0.79577 0.0
C1723 C 0.17468 0.76779 0.81054 0.0
H1724 H 0.22873 0.74008 0.7861 0.0
C1725 C 0.18942 0.80074 0.82663 0.0
H1726 H 0.17831 0.72089 0.78287 0.0
C1727 C 0.21819 0.81197 0.82789 0.0
C1728 C 0.23278 0.79041 0.8133 0.0
H1729 H 0.1787 0.81808 0.83781 0.0
H1730 H 0.22906 0.83733 0.84101 0.0
C1731 C 0.21801 0.75748 0.79716 0.0
C1732 C 1.02619 0.43373 0.53041 0.0
C1733 C 0.04869 0.42754 0.51562 0.0
H1734 H 1.01392 0.46438 0.57038 0.0
C1735 C 0.0767 0.44441 0.53294 0.0
H1736 H 1.00437 0.42102 0.51751 0.0
C1737 C 0.08201 0.46845 0.56352 0.0
C1738 C 0.0594 0.47592 0.57696 0.0
H1739 H 0.09441 0.43998 0.52216 0.0
H1740 H 0.10363 0.48288 0.57524 0.0
C1741 C 0.03154 0.45813 0.56078 0.0
C1742 C 0.50064 0.30287 0.28623 0.0
C1743 C 0.5186 0.28739 0.30615 0.0
H1744 H 0.46834 0.32881 0.28538 0.0
C1745 C 0.51734 0.28602 0.34157 0.0
H1746 H 0.50156 0.30499 0.25912 0.0
C1747 C 0.49794 0.29944 0.35657 0.0
C1748 C 0.4798 0.31459 0.33639 0.0
H1749 H 0.53124 0.27453 0.3576 0.0
H1750 H 0.49684 0.2975 0.38366 0.0
C1751 C 0.4816 0.31654 0.30127 0.0
C1752 C 0.63361 0.6207 0.51133 0.0
C1753 C 0.6339 0.60215 0.47865 0.0
H1754 H 0.61752 0.62123 0.55833 0.0
C1755 C 0.6186 0.56845 0.46904 0.0
H1756 H 0.64512 0.64665 0.51941 0.0
C1757 C 0.6032 0.55369 0.4916 0.0
C1758 C 0.60266 0.57241 0.52403 0.0
H1759 H 0.61854 0.55334 0.44407 0.0
H1760 H 0.59132 0.52787 0.48337 0.0
C1761 C 0.61799 0.60602 0.5337 0.0
C1762 C 0.28575 0.79946 0.08432 0.0
C1763 C 0.28983 0.83248 0.0801 0.0
H1764 H 0.299 0.76586 0.11501 0.0
C1765 C 0.31481 0.85618 0.09922 0.0
H1766 H 0.26706 0.78054 0.06921 0.0
C1767 C 0.33403 0.84753 0.12478 0.0
C1768 C 0.32809 0.81533 0.13225 0.0
H1769 H 0.31895 0.88173 0.09557 0.0
H1770 H 0.35225 0.8667 0.14063 0.0
C1771 C 0.30462 0.79094 0.11022 0.0
C1772 C 0.98422 0.55831 0.9679 0.0
C1773 C 0.99059 0.57825 0.94256 0.0
H1774 H 0.99817 0.54305 0.01729 0.0
C1775 C 1.01828 0.59942 0.95061 0.0
H1776 H 0.9634 0.54148 0.96341 0.0
C1777 C 0.03845 0.60038 0.98231 0.0
C1778 C 0.03194 0.58024 1.00739 0.0
H1779 H 1.02448 0.61521 0.93236 0.0
H1780 H 0.05943 0.61693 0.98707 0.0
C1781 C 1.00432 0.55922 0.99936 0.0
C1782 C 0.26813 0.27647 0.68029 0.0
C1783 C 0.28656 0.26182 0.66411 0.0
H1784 H 0.25988 0.29874 0.72869 0.0
C1785 C 0.31225 0.26004 0.68528 0.0
H1786 H 0.24806 0.27791 0.66478 0.0
C1787 C 0.31917 0.27221 0.72196 0.0
C1788 C 0.30035 0.28599 0.73828 0.0
H1789 H 0.32687 0.24879 0.67359 0.0
H1790 H 0.33892 0.27001 0.7376 0.0
C1791 C 0.27486 0.28822 0.71699 0.0
C1792 C 0.61602 0.63323 0.26624 0.0
C1793 C 0.62347 0.60958 0.28547 0.0
H1794 H 0.60001 0.6434 0.21547 0.0
C1795 C 0.61986 0.57689 0.26741 0.0
H1796 H 0.61864 0.65859 0.2794 0.0
C1797 C 0.60929 0.56815 0.23074 0.0
C1798 C 0.6022 0.59192 0.21142 0.0
H1799 H 0.62551 0.55807 0.28151 0.0
H1800 H 0.60691 0.54285 0.21756 0.0
C1801 C 0.60551 0.62451 0.22955 0.0
C1802 C 0.2497 0.79783 0.95842 0.0
C1803 C 0.23874 0.8249 0.95207 0.0
H1804 H 0.2797 0.7704 0.94802 0.0
C1805 C 0.25086 0.84674 0.93206 0.0
H1806 H 0.24005 0.78021 0.97305 0.0
C1807 C 0.27329 0.84089 0.91754 0.0
C1808 C 0.2839 0.81351 0.92317 0.0
H1809 H 0.24197 0.86718 0.9261 0.0
H1810 H 0.2804 0.8558 0.89933 0.0
C1811 C 0.27245 0.79246 0.94446 0.0
C1812 C 0.98141 0.57468 0.71419 0.0
C1813 C 0.99425 0.57118 0.74879 0.0
H1814 H 0.98432 0.57457 0.65912 0.0
C1815 C 1.02134 0.56456 0.75194 0.0
H1816 H 0.96069 0.57967 0.70966 0.0
C1817 C 0.03487 0.5617 0.72311 0.0
C1818 C 1.02232 0.56487 0.68853 0.0
H1819 H 0.03266 0.56161 0.77736 0.0
H1820 H 0.05565 0.55689 0.72827 0.0
C1821 C 0.99506 0.57146 0.68477 0.0
C1822 C 0.29939 0.29706 0.50173 0.0
C1823 C 0.29197 0.26218 0.49707 0.0
H1824 H 0.31083 0.33969 0.47842 0.0
C1825 C 0.2891 0.24334 0.46309 0.0
H1826 H 0.30166 0.3124 0.5274 0.0
C1827 C 0.29448 0.25917 0.43482 0.0
C1828 C 0.30268 0.2941 0.44 0.0
H1829 H 0.28353 0.21643 0.45859 0.0
H1830 H 0.29301 0.2441 0.40924 0.0
C1831 C 0.30458 0.31277 0.47358 0.0
C1832 C 0.45299 0.68431 0.6122 0.0
C1833 C 0.4279 0.68115 0.6243 0.0
H1834 H 0.47739 0.65962 0.58327 0.0
C1835 C 0.40633 0.65149 0.61275 0.0
H1836 H 0.46987 0.70702 0.62082 0.0
C1837 C 0.41024 0.62476 0.59062 0.0
C1838 C 0.43594 0.62708 0.58007 0.0
H1839 H 0.38653 0.64872 0.62125 0.0
H1840 H 0.39348 0.60193 0.58266 0.0
C1841 C 0.45711 0.65731 0.59044 0.0
C1842 C 0.95364 1.01487 0.64542 0.0
C1843 C 0.94086 0.98702 0.61797 0.0
H1844 H 0.98921 0.05727 0.66675 0.0
C1845 C 0.95586 0.97936 0.59199 0.0
H1846 H 0.94268 1.02146 0.66581 0.0
C1847 C 0.98254 0.99959 0.59273 0.0
C1848 C 0.99478 0.02818 0.61929 0.0
H1849 H 0.9468 0.95788 0.57067 0.0
H1850 H 0.99319 0.99335 0.57188 0.0
C1851 C 0.98027 0.03537 0.64593 0.0
C1852 C 0.91245 0.09055 0.32543 0.0
C1853 C 0.94179 0.10305 0.33855 0.0
H1854 H 0.8722 0.10129 0.31654 0.0
C1855 C 0.95324 0.13665 0.35454 0.0
H1856 H 0.90308 0.06461 0.31324 0.0
C1857 C 0.93536 0.15772 0.35676 0.0
C1858 C 0.90603 0.14504 0.34342 0.0
H1859 H 0.97589 0.14664 0.36471 0.0
H1860 H 0.94436 0.18378 0.36867 0.0
C1861 C 0.89472 0.11139 0.3278 0.0
C1862 C 0.80275 0.16271 0.19752 0.0
C1863 C 0.80538 0.196 0.19427 0.0
H1864 H 0.7743 0.11561 0.19493 0.0
C1865 C 0.78106 0.20795 0.18742 0.0
H1866 H 0.82124 0.15294 0.20267 0.0
C1867 C 0.75441 0.18671 0.18305 0.0
C1868 C 0.75171 0.15322 0.18537 0.0
H1869 H 0.78255 0.23364 0.18516 0.0
H1870 H 0.73592 0.1965 0.17798 0.0
C1871 C 0.77602 0.14141 0.19305 0.0
C1872 C 0.28046 0.45892 0.39633 0.0
C1873 C 0.25323 0.45921 0.37673 0.0
H1874 H 0.3136 0.4336 0.40756 0.0
C1875 C 0.23899 0.4293 0.35165 0.0
H1876 H 0.29283 0.48058 0.41607 0.0
C1877 C 0.2512 0.40114 0.3472 0.0
C1878 C 0.27859 0.40136 0.36698 0.0
H1879 H 0.21811 0.42729 0.33575 0.0
H1880 H 0.2391 0.3791 0.32782 0.0
C1881 C 0.29273 0.43136 0.39144 0.0
C1882 C 0.25483 0.45374 0.08411 0.0
C1883 C 0.28007 0.46809 0.11018 0.0
H1884 H 0.21332 0.45694 0.06051 0.0
C1885 C 0.28243 0.49829 0.13278 0.0
H1886 H 0.25224 0.43054 0.06615 0.0
C1887 C 0.25991 0.51363 0.12942 0.0
C1888 C 0.23468 0.49921 0.10319 0.0
H1889 H 0.30155 0.50994 0.15319 0.0
H1890 H 0.26245 0.53704 0.14698 0.0
C1891 C 0.2325 0.46904 0.08068 0.0
C1892 C 0.90118 0.89184 0.3052 0.0
C1893 C 0.90483 0.92623 0.30819 0.0
H1894 H 0.87562 0.84611 0.31164 0.0
C1895 C 0.88387 0.94064 0.31872 0.0
H1896 H 0.91665 0.88 0.29657 0.0
C1897 C 0.86003 0.92104 0.32655 0.0
C1898 C 0.8571 0.88695 0.32481 0.0
H1899 H 0.88595 0.96712 0.32124 0.0
H1900 H 0.84426 0.93265 0.33483 0.0
C1901 C 0.87771 0.87245 0.31392 0.0
C1902 C 0.74836 0.18378 0.90393 0.0
C1903 C 0.74562 0.15362 0.88041 0.0
H1904 H 0.76474 0.23703 0.91818 0.0
C1905 C 0.75932 0.15632 0.85192 0.0
H1906 H 0.73826 0.18342 0.92619 0.0
C1907 C 0.77441 0.1878 0.84695 0.0
C1908 C 0.77686 0.21794 0.87053 0.0
H1909 H 0.75767 0.13423 0.83276 0.0
H1910 H 0.78403 0.18849 0.82429 0.0
C1911 C 0.76371 0.21497 0.89932 0.0
loop_
_geom_bond_atom_site_label_1
_geom_bond_atom_site_label_2
_geom_bond_distance
_geom_bond_site_symmetry_2
_ccdc_geom_bond_type
C0 O1 1.160 . S
C0 O7 1.185 . S
O1 C0 1.160 . S
O2 Zn3 1.899 . S
O2 C10 1.284 . S
Zn3 O2 1.899 . S
Zn3 O4 2.032 . S
Zn3 O7 2.086 . S
Zn3 O12 1.977 1_455 S
O4 Zn3 2.032 . S
O4 C8 1.278 . S
C5 O6 1.203 . S
C5 O12 1.267 . S
O6 C5 1.203 . S
O7 C0 1.185 . S
O7 Zn3 2.086 . S
C8 O4 1.278 . S
C8 O9 1.211 1_455 S
O9 C8 1.211 1_655 S
C10 O2 1.284 . S
C10 O11 1.272 1_455 S
O11 C10 1.272 1_655 S
O12 Zn3 1.977 1_655 S
O12 C5 1.267 . S
C13 O14 1.160 . S
C13 O20 1.185 . S
O14 C13 1.160 . S
O15 Zn16 1.899 . S
O15 C23 1.284 . S
Zn16 O15 1.899 . S
Zn16 O17 2.032 . S
Zn16 O20 2.086 . S
Zn16 O25 1.977 . S
O17 Zn16 2.032 . S
O17 C21 1.278 . S
C18 O19 1.203 . S
C18 O25 1.267 . S
O19 C18 1.203 . S
O20 C13 1.185 . S
O20 Zn16 2.086 . S
C21 O17 1.278 . S
C21 O22 1.211 . S
O22 C21 1.211 . S
C23 O15 1.284 . S
C23 O24 1.273 . S
O24 C23 1.273 . S
O25 Zn16 1.977 . S
O25 C18 1.267 . S
C26 O27 1.160 . S
C26 O33 1.185 . S
O27 C26 1.160 . S
O28 Zn29 1.899 . S
O28 C36 1.284 . S
Zn29 O28 1.899 . S
Zn29 O30 2.032 . S
Zn29 O33 2.086 . S
Zn29 O38 1.977 . S
O30 Zn29 2.032 . S
O30 C34 1.278 . S
C31 O32 1.203 . S
C31 O38 1.267 . S
O32 C31 1.203 . S
O33 C26 1.185 . S
O33 Zn29 2.086 . S
C34 O30 1.278 . S
C34 O35 1.211 . S
O35 C34 1.211 . S
C36 O28 1.284 . S
C36 O37 1.273 . S
O37 C36 1.273 . S
O38 Zn29 1.977 . S
O38 C31 1.267 . S
C39 O40 1.160 . S
C39 O46 1.185 . S
O40 C39 1.160 . S
O41 Zn42 1.899 . S
O41 C49 1.284 . S
Zn42 O41 1.899 . S
Zn42 O43 2.032 . S
Zn42 O46 2.086 . S
Zn42 O51 1.977 . S
O43 Zn42 2.032 . S
O43 C47 1.278 . S
C44 O45 1.203 . S
C44 O51 1.267 . S
O45 C44 1.203 . S
O46 C39 1.185 . S
O46 Zn42 2.086 . S
C47 O43 1.278 . S
C47 O48 1.211 . S
O48 C47 1.211 . S
C49 O41 1.284 . S
C49 O50 1.273 . S
O50 C49 1.273 . S
O51 Zn42 1.977 . S
O51 C44 1.267 . S
C52 O53 1.160 . S
C52 O59 1.185 . S
O53 C52 1.160 . S
O54 Zn55 1.899 . S
O54 C62 1.284 . S
Zn55 O54 1.899 . S
Zn55 O56 2.032 . S
Zn55 O59 2.086 . S
Zn55 O64 1.977 . S
O56 Zn55 2.032 . S
O56 C60 1.278 . S
C57 O58 1.203 . S
C57 O64 1.267 . S
O58 C57 1.203 . S
O59 C52 1.185 . S
O59 Zn55 2.086 . S
C60 O56 1.278 . S
C60 O61 1.211 . S
O61 C60 1.211 . S
C62 O54 1.284 . S
C62 O63 1.273 . S
O63 C62 1.273 . S
O64 Zn55 1.977 . S
O64 C57 1.267 . S
C65 O66 1.160 . S
C65 O72 1.185 . S
O66 C65 1.160 . S
O67 Zn68 1.899 . S
O67 C75 1.284 . S
Zn68 O67 1.899 . S
Zn68 O69 2.032 . S
Zn68 O72 2.086 . S
Zn68 O77 1.977 . S
O69 Zn68 2.032 . S
O69 C73 1.278 . S
C70 O71 1.203 . S
C70 O77 1.267 . S
O71 C70 1.203 . S
O72 C65 1.185 . S
O72 Zn68 2.086 . S
C73 O69 1.278 . S
C73 O74 1.211 . S
O74 C73 1.211 . S
C75 O67 1.284 . S
C75 O76 1.273 . S
O76 C75 1.273 . S
O77 Zn68 1.977 . S
O77 C70 1.267 . S
C78 O79 1.160 . S
C78 O85 1.185 . S
O79 C78 1.160 . S
O80 Zn81 1.899 . S
O80 C88 1.284 . S
Zn81 O80 1.899 . S
Zn81 O82 2.032 . S
Zn81 O85 2.086 . S
Zn81 O90 1.977 . S
O82 Zn81 2.032 . S
O82 C86 1.278 . S
C83 O84 1.203 . S
C83 O90 1.267 . S
O84 C83 1.203 . S
O85 C78 1.185 . S
O85 Zn81 2.086 . S
C86 O82 1.278 . S
C86 O87 1.211 . S
O87 C86 1.211 . S
C88 O80 1.284 . S
C88 O89 1.273 . S
O89 C88 1.273 . S
O90 Zn81 1.977 . S
O90 C83 1.267 . S
C91 O92 1.160 . S
C91 O98 1.185 . S
O92 C91 1.160 . S
O93 Zn94 1.899 . S
O93 C101 1.284 1_556 S
Zn94 O93 1.899 . S
Zn94 O95 2.032 1_556 S
Zn94 O98 2.086 . S
Zn94 O103 1.977 1_455 S
O95 Zn94 2.032 1_554 S
O95 C99 1.278 . S
C96 O97 1.203 . S
C96 O103 1.267 . S
O97 C96 1.203 . S
O98 C91 1.185 . S
O98 Zn94 2.086 . S
C99 O95 1.278 . S
C99 O100 1.211 1_455 S
O100 C99 1.211 1_655 S
C101 O93 1.284 1_554 S
C101 O102 1.273 . S
O102 C101 1.273 . S
O103 Zn94 1.977 1_655 S
O103 C96 1.267 . S
C104 O105 1.160 . S
C104 O111 1.185 . S
O105 C104 1.160 . S
O106 Zn107 1.899 . S
O106 C114 1.284 . S
Zn107 O106 1.899 . S
Zn107 O108 2.032 . S
Zn107 O111 2.086 . S
Zn107 O116 1.977 . S
O108 Zn107 2.032 . S
O108 C112 1.278 . S
C109 O110 1.203 . S
C109 O116 1.267 1_565 S
O110 C109 1.203 . S
O111 C104 1.185 . S
O111 Zn107 2.086 . S
C112 O108 1.278 . S
C112 O113 1.211 . S
O113 C112 1.211 . S
C114 O106 1.284 . S
C114 O115 1.273 . S
O115 C114 1.273 . S
O116 Zn107 1.977 . S
O116 C109 1.267 1_545 S
C117 O118 1.160 . S
C117 O124 1.185 . S
O118 C117 1.160 . S
O119 Zn120 1.899 . S
O119 C127 1.284 . S
Zn120 O119 1.899 . S
Zn120 O121 2.032 . S
Zn120 O124 2.086 . S
Zn120 O129 1.977 . S
O121 Zn120 2.032 . S
O121 C125 1.278 . S
C122 O123 1.203 . S
C122 O129 1.267 . S
O123 C122 1.203 . S
O124 C117 1.185 . S
O124 Zn120 2.086 . S
C125 O121 1.278 . S
C125 O126 1.211 . S
O126 C125 1.211 . S
C127 O119 1.284 . S
C127 O128 1.273 . S
O128 C127 1.273 . S
O129 Zn120 1.977 . S
O129 C122 1.267 . S
C130 O131 1.160 . S
C130 O137 1.185 . S
O131 C130 1.160 . S
O132 Zn133 1.899 . S
O132 C140 1.284 . S
Zn133 O132 1.899 . S
Zn133 O134 2.032 . S
Zn133 O137 2.086 . S
Zn133 O142 1.977 . S
O134 Zn133 2.032 . S
O134 C138 1.278 . S
C135 O136 1.203 . S
C135 O142 1.267 . S
O136 C135 1.203 . S
O137 C130 1.185 . S
O137 Zn133 2.086 . S
C138 O134 1.278 . S
C138 O139 1.211 . S
O139 C138 1.211 . S
C140 O132 1.284 . S
C140 O141 1.273 . S
O141 C140 1.273 . S
O142 Zn133 1.977 . S
O142 C135 1.267 . S
C143 O144 1.160 . S
C143 O150 1.185 1_554 S
O144 C143 1.160 . S
O145 Zn146 1.899 . S
O145 C153 1.284 . S
Zn146 O145 1.899 . S
Zn146 O147 2.032 1_554 S
Zn146 O150 2.086 1_554 S
Zn146 O155 1.977 . S
O147 Zn146 2.032 1_556 S
O147 C151 1.278 . S
C148 O149 1.203 . S
C148 O155 1.267 . S
O149 C148 1.203 . S
O150 C143 1.185 1_556 S
O150 Zn146 2.086 1_556 S
C151 O147 1.278 . S
C151 O152 1.211 . S
O152 C151 1.211 . S
C153 O145 1.284 . S
C153 O154 1.273 . S
O154 C153 1.273 . S
O155 Zn146 1.977 . S
O155 C148 1.267 . S
C156 O157 1.160 . S
C156 O163 1.185 . S
O157 C156 1.160 . S
O158 Zn159 1.899 . S
O158 C166 1.284 . S
Zn159 O158 1.899 . S
Zn159 O160 2.032 . S
Zn159 O163 2.086 . S
Zn159 O168 1.977 . S
O160 Zn159 2.032 . S
O160 C164 1.278 . S
C161 O162 1.203 . S
C161 O168 1.267 . S
O162 C161 1.203 . S
O163 C156 1.185 . S
O163 Zn159 2.086 . S
C164 O160 1.278 . S
C164 O165 1.211 . S
O165 C164 1.211 . S
C166 O158 1.284 . S
C166 O167 1.273 . S
O167 C166 1.273 . S
O168 Zn159 1.977 . S
O168 C161 1.267 . S
C169 O170 1.160 . S
C169 O176 1.185 . S
O170 C169 1.160 . S
O171 Zn172 1.899 . S
O171 C179 1.284 . S
Zn172 O171 1.899 . S
Zn172 O173 2.032 . S
Zn172 O176 2.086 . S
Zn172 O181 1.977 . S
O173 Zn172 2.032 . S
O173 C177 1.278 . S
C174 O175 1.203 . S
C174 O181 1.267 . S
O175 C174 1.203 . S
O176 C169 1.185 . S
O176 Zn172 2.086 . S
C177 O173 1.278 . S
C177 O178 1.211 . S
O178 C177 1.211 . S
C179 O171 1.284 . S
C179 O180 1.273 . S
O180 C179 1.273 . S
O181 Zn172 1.977 . S
O181 C174 1.267 . S
C182 O183 1.160 . S
C182 O189 1.185 . S
O183 C182 1.160 . S
O184 Zn185 1.899 . S
O184 C192 1.284 . S
Zn185 O184 1.899 . S
Zn185 O186 2.032 . S
Zn185 O189 2.086 . S
Zn185 O194 1.977 . S
O186 Zn185 2.032 . S
O186 C190 1.278 . S
C187 O188 1.203 . S
C187 O194 1.267 . S
O188 C187 1.203 . S
O189 C182 1.185 . S
O189 Zn185 2.086 . S
C190 O186 1.278 . S
C190 O191 1.211 . S
O191 C190 1.211 . S
C192 O184 1.284 . S
C192 O193 1.273 . S
O193 C192 1.273 . S
O194 Zn185 1.977 . S
O194 C187 1.267 . S
C195 O196 1.160 . S
C195 O202 1.185 . S
O196 C195 1.160 . S
O197 Zn198 1.899 . S
O197 C205 1.284 . S
Zn198 O197 1.899 . S
Zn198 O199 2.032 . S
Zn198 O202 2.086 . S
Zn198 O207 1.977 . S
O199 Zn198 2.032 . S
O199 C203 1.278 . S
C200 O201 1.203 . S
C200 O207 1.267 . S
O201 C200 1.203 . S
O202 C195 1.185 . S
O202 Zn198 2.086 . S
C203 O199 1.278 . S
C203 O204 1.211 . S
O204 C203 1.211 . S
C205 O197 1.284 . S
C205 O206 1.273 . S
O206 C205 1.273 . S
O207 Zn198 1.977 . S
O207 C200 1.267 . S
C208 O209 1.160 . S
C208 O215 1.185 . S
O209 C208 1.160 . S
O210 Zn211 1.899 . S
O210 C218 1.284 1_545 S
Zn211 O210 1.899 . S
Zn211 O212 2.032 . S
Zn211 O215 2.086 . S
Zn211 O220 1.977 1_545 S
O212 Zn211 2.032 . S
O212 C216 1.278 . S
C213 O214 1.203 . S
C213 O220 1.267 . S
O214 C213 1.203 . S
O215 C208 1.185 . S
O215 Zn211 2.086 . S
C216 O212 1.278 . S
C216 O217 1.211 1_545 S
O217 C216 1.211 1_565 S
C218 O210 1.284 1_565 S
C218 O219 1.273 . S
O219 C218 1.273 . S
O220 Zn211 1.977 1_565 S
O220 C213 1.267 . S
C221 O222 1.160 . S
C221 O228 1.185 . S
O222 C221 1.160 . S
O223 Zn224 1.899 . S
O223 C231 1.284 . S
Zn224 O223 1.899 . S
Zn224 O225 2.032 . S
Zn224 O228 2.086 . S
Zn224 O233 1.977 . S
O225 Zn224 2.032 . S
O225 C229 1.278 . S
C226 O227 1.203 . S
C226 O233 1.267 . S
O227 C226 1.203 . S
O228 C221 1.185 . S
O228 Zn224 2.086 . S
C229 O225 1.278 . S
C229 O230 1.211 . S
O230 C229 1.211 . S
C231 O223 1.284 . S
C231 O232 1.273 . S
O232 C231 1.273 . S
O233 Zn224 1.977 . S
O233 C226 1.267 . S
C234 O235 1.160 . S
C234 O241 1.185 . S
O235 C234 1.160 . S
O236 Zn237 1.899 . S
O236 C244 1.284 . S
Zn237 O236 1.899 . S
Zn237 O238 2.032 . S
Zn237 O241 2.086 . S
Zn237 O246 1.977 . S
O238 Zn237 2.032 . S
O238 C242 1.278 . S
C239 O240 1.203 . S
C239 O246 1.267 . S
O240 C239 1.203 . S
O241 C234 1.185 . S
O241 Zn237 2.086 . S
C242 O238 1.278 . S
C242 O243 1.211 . S
O243 C242 1.211 . S
C244 O236 1.284 . S
C244 O245 1.273 . S
O245 C244 1.273 . S
O246 Zn237 1.977 . S
O246 C239 1.267 . S
C247 O248 1.160 . S
C247 O254 1.185 1_565 S
O248 C247 1.160 . S
O249 Zn250 1.899 . S
O249 C257 1.284 . S
Zn250 O249 1.899 . S
Zn250 O251 2.032 . S
Zn250 O254 2.086 . S
Zn250 O259 1.977 . S
O251 Zn250 2.032 . S
O251 C255 1.278 . S
C252 O253 1.203 . S
C252 O259 1.267 . S
O253 C252 1.203 . S
O254 C247 1.185 1_545 S
O254 Zn250 2.086 . S
C255 O251 1.278 . S
C255 O256 1.211 . S
O256 C255 1.211 . S
C257 O249 1.284 . S
C257 O258 1.273 . S
O258 C257 1.273 . S
O259 Zn250 1.977 . S
O259 C252 1.267 . S
C260 O261 1.160 . S
C260 O267 1.185 . S
O261 C260 1.160 . S
O262 Zn263 1.899 . S
O262 C270 1.284 . S
Zn263 O262 1.899 . S
Zn263 O264 2.032 . S
Zn263 O267 2.086 . S
Zn263 O272 1.977 . S
O264 Zn263 2.032 . S
O264 C268 1.278 . S
C265 O266 1.203 . S
C265 O272 1.267 . S
O266 C265 1.203 . S
O267 C260 1.185 . S
O267 Zn263 2.086 . S
C268 O264 1.278 . S
C268 O269 1.211 . S
O269 C268 1.211 . S
C270 O262 1.284 . S
C270 O271 1.273 . S
O271 C270 1.273 . S
O272 Zn263 1.977 . S
O272 C265 1.267 . S
C273 O274 1.160 . S
C273 O280 1.185 . S
O274 C273 1.160 . S
O275 Zn276 1.899 . S
O275 C283 1.284 . S
Zn276 O275 1.899 . S
Zn276 O277 2.032 . S
Zn276 O280 2.086 . S
Zn276 O285 1.977 . S
O277 Zn276 2.032 . S
O277 C281 1.278 . S
C278 O279 1.203 . S
C278 O285 1.267 . S
O279 C278 1.203 . S
O280 C273 1.185 . S
O280 Zn276 2.086 . S
C281 O277 1.278 . S
C281 O282 1.211 . S
O282 C281 1.211 . S
C283 O275 1.284 . S
C283 O284 1.273 . S
O284 C283 1.273 . S
O285 Zn276 1.977 . S
O285 C278 1.267 . S
C286 O287 1.160 . S
C286 O293 1.185 . S
O287 C286 1.160 . S
O288 Zn289 1.899 . S
O288 C296 1.284 . S
Zn289 O288 1.899 . S
Zn289 O290 2.032 . S
Zn289 O293 2.086 . S
Zn289 O298 1.977 . S
O290 Zn289 2.032 . S
O290 C294 1.278 . S
C291 O292 1.203 . S
C291 O298 1.267 . S
O292 C291 1.203 . S
O293 C286 1.185 . S
O293 Zn289 2.086 . S
C294 O290 1.278 . S
C294 O295 1.211 . S
O295 C294 1.211 . S
C296 O288 1.284 . S
C296 O297 1.273 . S
O297 C296 1.273 . S
O298 Zn289 1.977 . S
O298 C291 1.267 . S
C299 O300 1.160 . S
C299 O306 1.185 . S
O300 C299 1.160 . S
O301 Zn302 1.899 . S
O301 C309 1.284 . S
Zn302 O301 1.899 . S
Zn302 O303 2.032 . S
Zn302 O306 2.086 . S
Zn302 O311 1.977 . S
O303 Zn302 2.032 . S
O303 C307 1.278 . S
C304 O305 1.203 . S
C304 O311 1.267 . S
O305 C304 1.203 . S
O306 C299 1.185 . S
O306 Zn302 2.086 . S
C307 O303 1.278 . S
C307 O308 1.211 . S
O308 C307 1.211 . S
C309 O301 1.284 . S
C309 O310 1.273 . S
O310 C309 1.273 . S
O311 Zn302 1.977 . S
O311 C304 1.267 . S
Tb312 C314 2.809 . S
Tb312 O332 2.484 . S
Tb312 O333 2.440 . S
Tb312 O334 2.658 1_655 S
Tb312 O335 2.409 1_655 S
Tb312 O336 2.378 1_655 S
Tb312 O340 2.325 1_655 S
Tb312 O343 2.341 1_645 S
Tb313 C323 2.809 . S
Tb313 O334 2.325 . S
Tb313 O337 2.341 . S
Tb313 O338 2.484 . S
Tb313 O339 2.440 . S
Tb313 O340 2.658 . S
Tb313 O341 2.409 . S
Tb313 O342 2.378 1_545 S
C314 Tb312 2.809 . S
C314 C315 1.514 . S
C314 O332 1.248 . S
C314 O333 1.266 . S
C315 C314 1.514 . S
C315 C316 1.359 . S
C315 C320 1.348 . S
C316 C315 1.359 . S
C316 C317 1.380 . S
C316 H344 0.929 . S
C317 C316 1.380 . S
C317 C318 1.347 . S
C317 H345 0.931 . S
C318 C317 1.347 . S
C318 C319 1.369 . S
C319 C318 1.369 . S
C319 C320 1.408 . S
C319 H346 0.930 1_554 S
C320 C315 1.348 . S
C320 C319 1.408 . S
C320 H347 0.948 . S
C321 O334 1.281 . S
C321 O335 1.254 . S
C322 O336 1.236 . S
C322 O337 1.266 . S
C323 Tb313 2.809 . S
C323 C324 1.514 1_545 S
C323 O338 1.248 . S
C323 O339 1.266 . S
C324 C323 1.514 1_565 S
C324 C325 1.359 . S
C324 C329 1.348 . S
C325 C324 1.359 . S
C325 C326 1.380 . S
C325 H348 0.929 . S
C326 C325 1.380 . S
C326 C327 1.347 . S
C326 H349 0.931 . S
C327 C326 1.347 . S
C327 C328 1.369 . S
C328 C327 1.369 . S
C328 C329 1.408 . S
C328 H350 0.930 . S
C329 C324 1.348 . S
C329 C328 1.408 . S
C329 H351 0.918 1_565 S
C330 O340 1.281 . S
C330 O341 1.254 . S
C331 O342 1.236 . S
C331 O343 1.266 . S
O332 Tb312 2.484 . S
O332 C314 1.248 . S
O333 Tb312 2.440 . S
O333 C314 1.266 . S
O334 Tb312 2.658 1_455 S
O334 Tb313 2.325 . S
O334 C321 1.281 . S
O335 Tb312 2.409 1_455 S
O335 C321 1.254 . S
O336 Tb312 2.378 1_455 S
O336 C322 1.236 . S
O337 Tb313 2.341 . S
O337 C322 1.266 . S
O338 Tb313 2.484 . S
O338 C323 1.248 . S
O339 Tb313 2.440 . S
O339 C323 1.266 . S
O340 Tb312 2.325 1_455 S
O340 Tb313 2.658 . S
O340 C330 1.281 . S
O341 Tb313 2.409 . S
O341 C330 1.254 . S
O342 Tb313 2.378 1_565 S
O342 C331 1.236 . S
O343 Tb312 2.341 1_465 S
O343 C331 1.266 . S
H344 C316 0.929 . S
H345 C317 0.931 . S
H346 C319 0.930 1_556 S
H347 C320 0.948 . S
H348 C325 0.929 . S
H349 C326 0.931 . S
H350 C328 0.930 . S
H351 C329 0.918 1_545 S
Tb352 C354 2.809 . S
Tb352 O372 2.484 . S
Tb352 O373 2.440 . S
Tb352 O374 2.658 . S
Tb352 O375 2.409 . S
Tb352 O376 2.378 . S
Tb352 O380 2.325 . S
Tb352 O383 2.341 . S
Tb353 C363 2.809 . S
Tb353 O374 2.325 . S
Tb353 O377 2.341 . S
Tb353 O378 2.484 . S
Tb353 O379 2.440 . S
Tb353 O380 2.658 . S
Tb353 O381 2.409 . S
Tb353 O382 2.378 . S
C354 Tb352 2.809 . S
C354 C355 1.514 . S
C354 O372 1.248 . S
C354 O373 1.266 . S
C355 C354 1.514 . S
C355 C356 1.359 . S
C355 C360 1.348 . S
C356 C355 1.359 . S
C356 C357 1.380 . S
C356 H384 0.929 . S
C357 C356 1.380 . S
C357 C358 1.347 . S
C357 H385 0.931 . S
C358 C357 1.347 . S
C358 C359 1.369 . S
C359 C358 1.369 . S
C359 C360 1.408 . S
C359 H386 0.930 . S
C360 C355 1.348 . S
C360 C359 1.408 . S
C360 H387 0.930 . S
C361 O374 1.281 . S
C361 O375 1.254 . S
C362 O376 1.236 . S
C362 O377 1.266 . S
C363 Tb353 2.809 . S
C363 C364 1.514 . S
C363 O378 1.248 . S
C363 O379 1.266 . S
C364 C363 1.514 . S
C364 C365 1.359 . S
C364 C369 1.348 . S
C365 C364 1.359 . S
C365 C366 1.380 . S
C365 H388 0.929 . S
C366 C365 1.380 . S
C366 C367 1.347 . S
C366 H389 0.931 . S
C367 C366 1.347 . S
C367 C368 1.369 . S
C368 C367 1.369 . S
C368 C369 1.408 . S
C368 H390 0.930 . S
C369 C364 1.348 . S
C369 C368 1.408 . S
C369 H391 0.930 . S
C370 O380 1.281 . S
C370 O381 1.254 . S
C371 O382 1.236 . S
C371 O383 1.266 . S
O372 Tb352 2.484 . S
O372 C354 1.248 . S
O373 Tb352 2.440 . S
O373 C354 1.266 . S
O374 Tb352 2.658 . S
O374 Tb353 2.325 . S
O374 C361 1.281 . S
O375 Tb352 2.409 . S
O375 C361 1.254 . S
O376 Tb352 2.378 . S
O376 C362 1.236 . S
O377 Tb353 2.341 . S
O377 C362 1.266 . S
O378 Tb353 2.484 . S
O378 C363 1.248 . S
O379 Tb353 2.440 . S
O379 C363 1.266 . S
O380 Tb352 2.325 . S
O380 Tb353 2.658 . S
O380 C370 1.281 . S
O381 Tb353 2.409 . S
O381 C370 1.254 . S
O382 Tb353 2.378 . S
O382 C371 1.236 . S
O383 Tb352 2.341 . S
O383 C371 1.266 . S
H384 C356 0.929 . S
H385 C357 0.931 . S
H386 C359 0.930 . S
H387 C360 0.930 . S
H388 C365 0.929 . S
H389 C366 0.931 . S
H390 C368 0.930 . S
H391 C369 0.930 . S
Tb392 C394 2.809 . S
Tb392 O412 2.484 . S
Tb392 O413 2.440 . S
Tb392 O414 2.658 . S
Tb392 O415 2.409 . S
Tb392 O416 2.378 1_545 S
Tb392 O420 2.325 . S
Tb392 O423 2.341 . S
Tb393 C403 2.809 . S
Tb393 O414 2.325 . S
Tb393 O417 2.341 1_545 S
Tb393 O418 2.484 . S
Tb393 O419 2.440 . S
Tb393 O420 2.658 . S
Tb393 O421 2.409 . S
Tb393 O422 2.378 . S
C394 Tb392 2.809 . S
C394 C395 1.514 1_545 S
C394 O412 1.248 . S
C394 O413 1.266 . S
C395 C394 1.514 1_565 S
C395 C396 1.359 . S
C395 C400 1.348 . S
C396 C395 1.359 . S
C396 C397 1.380 . S
C396 H424 0.929 . S
C397 C396 1.380 . S
C397 C398 1.347 . S
C397 H425 0.931 . S
C398 C397 1.347 . S
C398 C399 1.369 . S
C399 C398 1.369 . S
C399 C400 1.408 . S
C399 H426 0.930 . S
C400 C395 1.348 . S
C400 C399 1.408 . S
C400 H427 0.930 . S
C401 O414 1.281 . S
C401 O415 1.254 . S
C402 O416 1.236 . S
C402 O417 1.266 . S
C403 Tb393 2.809 . S
C403 C404 1.514 . S
C403 O418 1.248 . S
C403 O419 1.266 . S
C404 C403 1.514 . S
C404 C405 1.359 . S
C404 C409 1.348 . S
C405 C404 1.359 . S
C405 C406 1.380 . S
C405 H428 0.929 . S
C406 C405 1.380 . S
C406 C407 1.347 . S
C406 H429 0.931 . S
C407 C406 1.347 . S
C407 C408 1.369 . S
C408 C407 1.369 . S
C408 C409 1.408 . S
C408 H430 0.930 . S
C409 C404 1.348 . S
C409 C408 1.408 . S
C409 H431 0.930 . S
C410 O420 1.281 . S
C410 O421 1.254 . S
C411 O422 1.236 . S
C411 O423 1.266 . S
O412 Tb392 2.484 . S
O412 C394 1.248 . S
O413 Tb392 2.440 . S
O413 C394 1.266 . S
O414 Tb392 2.658 . S
O414 Tb393 2.325 . S
O414 C401 1.281 . S
O415 Tb392 2.409 . S
O415 C401 1.254 . S
O416 Tb392 2.378 1_565 S
O416 C402 1.236 . S
O417 Tb393 2.341 1_565 S
O417 C402 1.266 . S
O418 Tb393 2.484 . S
O418 C403 1.248 . S
O419 Tb393 2.440 . S
O419 C403 1.266 . S
O420 Tb392 2.325 . S
O420 Tb393 2.658 . S
O420 C410 1.281 . S
O421 Tb393 2.409 . S
O421 C410 1.254 . S
O422 Tb393 2.378 . S
O422 C411 1.236 . S
O423 Tb392 2.341 . S
O423 C411 1.266 . S
H424 C396 0.929 . S
H425 C397 0.931 . S
H426 C399 0.930 . S
H427 C400 0.930 . S
H428 C405 0.929 . S
H429 C406 0.931 . S
H430 C408 0.930 . S
H431 C409 0.930 . S
Tb432 C434 2.809 . S
Tb432 O452 2.484 . S
Tb432 O453 2.440 . S
Tb432 O454 2.658 . S
Tb432 O455 2.409 . S
Tb432 O456 2.378 . S
Tb432 O460 2.325 . S
Tb432 O463 2.341 . S
Tb433 C443 2.809 . S
Tb433 O454 2.325 . S
Tb433 O457 2.341 . S
Tb433 O458 2.484 . S
Tb433 O459 2.440 . S
Tb433 O460 2.658 . S
Tb433 O461 2.409 . S
Tb433 O462 2.378 . S
C434 Tb432 2.809 . S
C434 C435 1.514 . S
C434 O452 1.248 . S
C434 O453 1.266 . S
C435 C434 1.514 . S
C435 C436 1.359 . S
C435 C440 1.348 . S
C436 C435 1.359 . S
C436 C437 1.380 . S
C436 H464 0.929 . S
C437 C436 1.380 . S
C437 C438 1.347 . S
C437 H465 0.931 . S
C438 C437 1.347 . S
C438 C439 1.369 . S
C439 C438 1.369 . S
C439 C440 1.408 . S
C439 H466 0.930 . S
C440 C435 1.348 . S
C440 C439 1.408 . S
C440 H467 0.930 . S
C441 O454 1.281 . S
C441 O455 1.254 . S
C442 O456 1.236 . S
C442 O457 1.266 . S
C443 Tb433 2.809 . S
C443 C444 1.514 . S
C443 O458 1.248 . S
C443 O459 1.266 . S
C444 C443 1.514 . S
C444 C445 1.359 . S
C444 C449 1.348 . S
C445 C444 1.359 . S
C445 C446 1.380 . S
C445 H468 0.929 . S
C446 C445 1.380 . S
C446 C447 1.347 . S
C446 H469 0.931 . S
C447 C446 1.347 . S
C447 C448 1.369 . S
C448 C447 1.369 . S
C448 C449 1.408 . S
C448 H470 0.930 . S
C449 C444 1.348 . S
C449 C448 1.408 . S
C449 H471 0.930 . S
C450 O460 1.281 . S
C450 O461 1.254 . S
C451 O462 1.236 . S
C451 O463 1.266 . S
O452 Tb432 2.484 . S
O452 C434 1.248 . S
O453 Tb432 2.440 . S
O453 C434 1.266 . S
O454 Tb432 2.658 . S
O454 Tb433 2.325 . S
O454 C441 1.281 . S
O455 Tb432 2.409 . S
O455 C441 1.254 . S
O456 Tb432 2.378 . S
O456 C442 1.236 . S
O457 Tb433 2.341 . S
O457 C442 1.266 . S
O458 Tb433 2.484 . S
O458 C443 1.248 . S
O459 Tb433 2.440 . S
O459 C443 1.266 . S
O460 Tb432 2.325 . S
O460 Tb433 2.658 . S
O460 C450 1.281 . S
O461 Tb433 2.409 . S
O461 C450 1.254 . S
O462 Tb433 2.378 . S
O462 C451 1.236 . S
O463 Tb432 2.341 . S
O463 C451 1.266 . S
H464 C436 0.929 . S
H465 C437 0.931 . S
H466 C439 0.930 . S
H467 C440 0.930 . S
H468 C445 0.929 . S
H469 C446 0.931 . S
H470 C448 0.930 . S
H471 C449 0.930 . S
Tb472 C474 2.809 . S
Tb472 O492 2.484 . S
Tb472 O493 2.440 . S
Tb472 O494 2.658 . S
Tb472 O495 2.409 1_455 S
Tb472 O496 2.378 . S
Tb472 O500 2.325 . S
Tb472 O503 2.341 . S
Tb473 C483 2.809 . S
Tb473 O494 2.325 1_565 S
Tb473 O497 2.341 1_565 S
Tb473 O498 2.484 . S
Tb473 O499 2.440 . S
Tb473 O500 2.658 1_565 S
Tb473 O501 2.409 1_565 S
Tb473 O502 2.378 1_565 S
C474 Tb472 2.809 . S
C474 C475 1.514 . S
C474 O492 1.248 . S
C474 O493 1.266 . S
C475 C474 1.514 . S
C475 C476 1.359 . S
C475 C480 1.348 1_455 S
C476 C475 1.359 . S
C476 C477 1.380 . S
C476 H504 0.929 . S
C477 C476 1.380 . S
C477 C478 1.347 1_455 S
C477 H505 0.931 . S
C478 C477 1.347 1_655 S
C478 C479 1.369 . S
C479 C478 1.369 . S
C479 C480 1.408 . S
C479 H506 0.930 . S
C480 C475 1.348 1_655 S
C480 C479 1.408 . S
C480 H507 0.930 . S
C481 O494 1.281 1_655 S
C481 O495 1.254 . S
C482 O496 1.236 . S
C482 O497 1.266 . S
C483 Tb473 2.809 . S
C483 C484 1.514 . S
C483 O498 1.248 . S
C483 O499 1.266 . S
C484 C483 1.514 . S
C484 C485 1.359 . S
C484 C489 1.348 . S
C485 C484 1.359 . S
C485 C486 1.380 . S
C485 H508 0.929 . S
C486 C485 1.380 . S
C486 C487 1.347 . S
C486 H509 0.931 . S
C487 C486 1.347 . S
C487 C488 1.369 . S
C488 C487 1.369 . S
C488 C489 1.408 . S
C488 H510 0.930 . S
C489 C484 1.348 . S
C489 C488 1.408 . S
C489 H511 0.930 . S
C490 O500 1.281 . S
C490 O501 1.254 . S
C491 O502 1.236 . S
C491 O503 1.266 . S
O492 Tb472 2.484 . S
O492 C474 1.248 . S
O493 Tb472 2.440 . S
O493 C474 1.266 . S
O494 Tb472 2.658 . S
O494 Tb473 2.325 1_545 S
O494 C481 1.281 1_455 S
O495 Tb472 2.409 1_655 S
O495 C481 1.254 . S
O496 Tb472 2.378 . S
O496 C482 1.236 . S
O497 Tb473 2.341 1_545 S
O497 C482 1.266 . S
O498 Tb473 2.484 . S
O498 C483 1.248 . S
O499 Tb473 2.440 . S
O499 C483 1.266 . S
O500 Tb472 2.325 . S
O500 Tb473 2.658 1_545 S
O500 C490 1.281 . S
O501 Tb473 2.409 1_545 S
O501 C490 1.254 . S
O502 Tb473 2.378 1_545 S
O502 C491 1.236 . S
O503 Tb472 2.341 . S
O503 C491 1.266 . S
H504 C476 0.929 . S
H505 C477 0.931 . S
H506 C479 0.930 . S
H507 C480 0.930 . S
H508 C485 0.929 . S
H509 C486 0.931 . S
H510 C488 0.930 . S
H511 C489 0.930 . S
Tb512 C514 2.809 . S
Tb512 O532 2.484 . S
Tb512 O533 2.440 . S
Tb512 O534 2.658 . S
Tb512 O535 2.409 . S
Tb512 O536 2.378 . S
Tb512 O540 2.325 . S
Tb512 O543 2.341 . S
Tb513 C523 2.809 . S
Tb513 O534 2.325 . S
Tb513 O537 2.341 . S
Tb513 O538 2.484 . S
Tb513 O539 2.440 . S
Tb513 O540 2.658 . S
Tb513 O541 2.409 . S
Tb513 O542 2.378 . S
C514 Tb512 2.809 . S
C514 C515 1.514 . S
C514 O532 1.248 . S
C514 O533 1.266 . S
C515 C514 1.514 . S
C515 C516 1.359 . S
C515 C520 1.348 . S
C516 C515 1.359 . S
C516 C517 1.380 . S
C516 H544 0.929 . S
C517 C516 1.380 . S
C517 C518 1.347 . S
C517 H545 0.931 . S
C518 C517 1.347 . S
C518 C519 1.369 . S
C519 C518 1.369 . S
C519 C520 1.408 . S
C519 H546 0.930 . S
C520 C515 1.348 . S
C520 C519 1.408 . S
C520 H547 0.930 . S
C521 O534 1.281 . S
C521 O535 1.254 . S
C522 O536 1.236 . S
C522 O537 1.266 . S
C523 Tb513 2.809 . S
C523 C524 1.514 . S
C523 O538 1.248 . S
C523 O539 1.266 . S
C524 C523 1.514 . S
C524 C525 1.359 . S
C524 C529 1.348 . S
C525 C524 1.359 . S
C525 C526 1.380 . S
C525 H548 0.929 . S
C526 C525 1.380 . S
C526 C527 1.347 . S
C526 H549 0.931 . S
C527 C526 1.347 . S
C527 C528 1.369 . S
C528 C527 1.369 . S
C528 C529 1.408 . S
C528 H550 0.930 . S
C529 C524 1.348 . S
C529 C528 1.408 . S
C529 H551 0.930 . S
C530 O540 1.281 . S
C530 O541 1.254 . S
C531 O542 1.236 . S
C531 O543 1.266 . S
O532 Tb512 2.484 . S
O532 C514 1.248 . S
O533 Tb512 2.440 . S
O533 C514 1.266 . S
O534 Tb512 2.658 . S
O534 Tb513 2.325 . S
O534 C521 1.281 . S
O535 Tb512 2.409 . S
O535 C521 1.254 . S
O536 Tb512 2.378 . S
O536 C522 1.236 . S
O537 Tb513 2.341 . S
O537 C522 1.266 . S
O538 Tb513 2.484 . S
O538 C523 1.248 . S
O539 Tb513 2.440 . S
O539 C523 1.266 . S
O540 Tb512 2.325 . S
O540 Tb513 2.658 . S
O540 C530 1.281 . S
O541 Tb513 2.409 . S
O541 C530 1.254 . S
O542 Tb513 2.378 . S
O542 C531 1.236 . S
O543 Tb512 2.341 . S
O543 C531 1.266 . S
H544 C516 0.929 . S
H545 C517 0.931 . S
H546 C519 0.930 . S
H547 C520 0.930 . S
H548 C525 0.929 . S
H549 C526 0.931 . S
H550 C528 0.930 . S
H551 C529 0.930 . S
Tb552 C554 2.809 . S
Tb552 O572 2.484 1_545 S
Tb552 O573 2.440 . S
Tb552 O574 2.658 . S
Tb552 O575 2.409 . S
Tb552 O576 2.378 . S
Tb552 O580 2.325 . S
Tb552 O583 2.341 . S
Tb553 C563 2.809 . S
Tb553 O574 2.325 . S
Tb553 O577 2.341 . S
Tb553 O578 2.484 . S
Tb553 O579 2.440 . S
Tb553 O580 2.658 . S
Tb553 O581 2.409 1_545 S
Tb553 O582 2.378 . S
C554 Tb552 2.809 . S
C554 C555 1.514 1_545 S
C554 O572 1.248 1_545 S
C554 O573 1.266 . S
C555 C554 1.514 1_565 S
C555 C556 1.359 . S
C555 C560 1.348 1_565 S
C556 C555 1.359 . S
C556 C557 1.380 . S
C556 H584 0.929 . S
C557 C556 1.380 . S
C557 C558 1.347 . S
C557 H585 0.931 . S
C558 C557 1.347 . S
C558 C559 1.369 1_565 S
C559 C558 1.369 1_545 S
C559 C560 1.408 . S
C559 H586 0.930 . S
C560 C555 1.348 1_545 S
C560 C559 1.408 . S
C560 H587 0.930 . S
C561 O574 1.281 . S
C561 O575 1.254 . S
C562 O576 1.236 . S
C562 O577 1.266 . S
C563 Tb553 2.809 . S
C563 C564 1.514 . S
C563 O578 1.248 . S
C563 O579 1.266 . S
C564 C563 1.514 . S
C564 C565 1.359 . S
C564 C569 1.348 . S
C565 C564 1.359 . S
C565 C566 1.380 . S
C565 H588 0.929 . S
C566 C565 1.380 . S
C566 C567 1.347 . S
C566 H589 0.931 . S
C567 C566 1.347 . S
C567 C568 1.369 . S
C568 C567 1.369 . S
C568 C569 1.408 . S
C568 H590 0.930 . S
C569 C564 1.348 . S
C569 C568 1.408 . S
C569 H591 0.930 . S
C570 O580 1.281 1_565 S
C570 O581 1.254 . S
C571 O582 1.236 . S
C571 O583 1.266 . S
O572 Tb552 2.484 1_565 S
O572 C554 1.248 1_565 S
O573 Tb552 2.440 . S
O573 C554 1.266 . S
O574 Tb552 2.658 . S
O574 Tb553 2.325 . S
O574 C561 1.281 . S
O575 Tb552 2.409 . S
O575 C561 1.254 . S
O576 Tb552 2.378 . S
O576 C562 1.236 . S
O577 Tb553 2.341 . S
O577 C562 1.266 . S
O578 Tb553 2.484 . S
O578 C563 1.248 . S
O579 Tb553 2.440 . S
O579 C563 1.266 . S
O580 Tb552 2.325 . S
O580 Tb553 2.658 . S
O580 C570 1.281 1_545 S
O581 Tb553 2.409 1_565 S
O581 C570 1.254 . S
O582 Tb553 2.378 . S
O582 C571 1.236 . S
O583 Tb552 2.341 . S
O583 C571 1.266 . S
H584 C556 0.929 . S
H585 C557 0.931 . S
H586 C559 0.930 . S
H587 C560 0.930 . S
H588 C565 0.929 . S
H589 C566 0.931 . S
H590 C568 0.930 . S
H591 C569 0.930 . S
Tb592 C594 2.809 . S
Tb592 O612 2.484 . S
Tb592 O613 2.440 . S
Tb592 O614 2.658 . S
Tb592 O615 2.409 . S
Tb592 O616 2.378 . S
Tb592 O620 2.325 . S
Tb592 O623 2.341 . S
Tb593 C603 2.809 . S
Tb593 O614 2.325 . S
Tb593 O617 2.341 . S
Tb593 O618 2.484 . S
Tb593 O619 2.440 . S
Tb593 O620 2.658 . S
Tb593 O621 2.409 . S
Tb593 O622 2.378 . S
C594 Tb592 2.809 . S
C594 C595 1.514 . S
C594 O612 1.248 . S
C594 O613 1.266 . S
C595 C594 1.514 . S
C595 C596 1.359 . S
C595 C600 1.348 . S
C596 C595 1.359 . S
C596 C597 1.380 . S
C596 H624 0.929 . S
C597 C596 1.380 . S
C597 C598 1.347 . S
C597 H625 0.931 . S
C598 C597 1.347 . S
C598 C599 1.369 . S
C599 C598 1.369 . S
C599 C600 1.408 . S
C599 H626 0.930 . S
C600 C595 1.348 . S
C600 C599 1.408 . S
C600 H627 0.930 . S
C601 O614 1.281 . S
C601 O615 1.254 . S
C602 O616 1.236 . S
C602 O617 1.266 . S
C603 Tb593 2.809 . S
C603 C604 1.514 . S
C603 O618 1.248 . S
C603 O619 1.266 . S
C604 C603 1.514 . S
C604 C605 1.359 . S
C604 C609 1.348 . S
C605 C604 1.359 . S
C605 C606 1.380 . S
C605 H628 0.929 . S
C606 C605 1.380 . S
C606 C607 1.347 . S
C606 H629 0.931 . S
C607 C606 1.347 . S
C607 C608 1.369 . S
C608 C607 1.369 . S
C608 C609 1.408 . S
C608 H630 0.930 . S
C609 C604 1.348 . S
C609 C608 1.408 . S
C609 H631 0.930 . S
C610 O620 1.281 . S
C610 O621 1.254 . S
C611 O622 1.236 . S
C611 O623 1.266 . S
O612 Tb592 2.484 . S
O612 C594 1.248 . S
O613 Tb592 2.440 . S
O613 C594 1.266 . S
O614 Tb592 2.658 . S
O614 Tb593 2.325 . S
O614 C601 1.281 . S
O615 Tb592 2.409 . S
O615 C601 1.254 . S
O616 Tb592 2.378 . S
O616 C602 1.236 . S
O617 Tb593 2.341 . S
O617 C602 1.266 . S
O618 Tb593 2.484 . S
O618 C603 1.248 . S
O619 Tb593 2.440 . S
O619 C603 1.266 . S
O620 Tb592 2.325 . S
O620 Tb593 2.658 . S
O620 C610 1.281 . S
O621 Tb593 2.409 . S
O621 C610 1.254 . S
O622 Tb593 2.378 . S
O622 C611 1.236 . S
O623 Tb592 2.341 . S
O623 C611 1.266 . S
H624 C596 0.929 . S
H625 C597 0.931 . S
H626 C599 0.930 . S
H627 C600 0.930 . S
H628 C605 0.929 . S
H629 C606 0.931 . S
H630 C608 0.930 . S
H631 C609 0.930 . S
Tb632 C634 2.809 . S
Tb632 O652 2.484 . S
Tb632 O653 2.440 . S
Tb632 O654 2.658 . S
Tb632 O655 2.409 . S
Tb632 O656 2.378 . S
Tb632 O660 2.325 . S
Tb632 O663 2.341 . S
Tb633 C643 2.809 . S
Tb633 O654 2.325 . S
Tb633 O657 2.341 . S
Tb633 O658 2.484 . S
Tb633 O659 2.440 . S
Tb633 O660 2.658 . S
Tb633 O661 2.409 . S
Tb633 O662 2.378 . S
C634 Tb632 2.809 . S
C634 C635 1.514 . S
C634 O652 1.248 . S
C634 O653 1.266 . S
C635 C634 1.514 . S
C635 C636 1.359 . S
C635 C640 1.348 . S
C636 C635 1.359 . S
C636 C637 1.378 1_554 S
C636 H664 0.929 . S
C637 C636 1.378 1_556 S
C637 C638 1.346 . S
C637 H665 0.933 . S
C638 C637 1.346 . S
C638 C639 1.369 1_556 S
C639 C638 1.369 1_554 S
C639 C640 1.408 . S
C639 H666 0.930 . S
C640 C635 1.348 . S
C640 C639 1.408 . S
C640 H667 0.930 . S
C641 O654 1.281 . S
C641 O655 1.254 . S
C642 O656 1.236 . S
C642 O657 1.266 . S
C643 Tb633 2.809 . S
C643 C644 1.514 . S
C643 O658 1.248 . S
C643 O659 1.266 . S
C644 C643 1.514 . S
C644 C645 1.359 . S
C644 C649 1.348 . S
C645 C644 1.359 . S
C645 C646 1.380 . S
C645 H668 0.929 . S
C646 C645 1.380 . S
C646 C647 1.347 . S
C646 H669 0.931 . S
C647 C646 1.347 . S
C647 C648 1.369 . S
C648 C647 1.369 . S
C648 C649 1.408 . S
C648 H670 0.930 . S
C649 C644 1.348 . S
C649 C648 1.408 . S
C649 H671 0.930 . S
C650 O660 1.281 . S
C650 O661 1.254 . S
C651 O662 1.236 . S
C651 O663 1.266 . S
O652 Tb632 2.484 . S
O652 C634 1.248 . S
O653 Tb632 2.440 . S
O653 C634 1.266 . S
O654 Tb632 2.658 . S
O654 Tb633 2.325 . S
O654 C641 1.281 . S
O655 Tb632 2.409 . S
O655 C641 1.254 . S
O656 Tb632 2.378 . S
O656 C642 1.236 . S
O657 Tb633 2.341 . S
O657 C642 1.266 . S
O658 Tb633 2.484 . S
O658 C643 1.248 . S
O659 Tb633 2.440 . S
O659 C643 1.266 . S
O660 Tb632 2.325 . S
O660 Tb633 2.658 . S
O660 C650 1.281 . S
O661 Tb633 2.409 . S
O661 C650 1.254 . S
O662 Tb633 2.378 . S
O662 C651 1.236 . S
O663 Tb632 2.341 . S
O663 C651 1.266 . S
H664 C636 0.929 . S
H665 C637 0.933 . S
H666 C639 0.930 . S
H667 C640 0.930 . S
H668 C645 0.929 . S
H669 C646 0.931 . S
H670 C648 0.930 . S
H671 C649 0.930 . S
Tb672 C674 2.809 . S
Tb672 O692 2.484 . S
Tb672 O693 2.440 . S
Tb672 O694 2.658 . S
Tb672 O695 2.409 . S
Tb672 O696 2.378 . S
Tb672 O700 2.325 . S
Tb672 O703 2.341 . S
Tb673 C683 2.809 . S
Tb673 O694 2.325 . S
Tb673 O697 2.341 . S
Tb673 O698 2.484 . S
Tb673 O699 2.440 . S
Tb673 O700 2.658 . S
Tb673 O701 2.409 . S
Tb673 O702 2.378 . S
C674 Tb672 2.809 . S
C674 C675 1.514 . S
C674 O692 1.248 . S
C674 O693 1.266 . S
C675 C674 1.514 . S
C675 C676 1.359 . S
C675 C680 1.348 . S
C676 C675 1.359 . S
C676 C677 1.380 . S
C676 H704 0.929 . S
C677 C676 1.380 . S
C677 C678 1.347 . S
C677 H705 0.931 . S
C678 C677 1.347 . S
C678 C679 1.369 . S
C679 C678 1.369 . S
C679 C680 1.408 . S
C679 H706 0.930 . S
C680 C675 1.348 . S
C680 C679 1.408 . S
C680 H707 0.930 . S
C681 O694 1.281 . S
C681 O695 1.254 . S
C682 O696 1.236 . S
C682 O697 1.266 . S
C683 Tb673 2.809 . S
C683 C684 1.514 . S
C683 O698 1.248 . S
C683 O699 1.266 . S
C684 C683 1.514 . S
C684 C685 1.359 . S
C684 C689 1.348 . S
C685 C684 1.359 . S
C685 C686 1.380 . S
C685 H708 0.929 . S
C686 C685 1.380 . S
C686 C687 1.347 . S
C686 H709 0.931 . S
C687 C686 1.347 . S
C687 C688 1.369 . S
C688 C687 1.369 . S
C688 C689 1.408 . S
C688 H710 0.930 . S
C689 C684 1.348 . S
C689 C688 1.408 . S
C689 H711 0.930 . S
C690 O700 1.281 . S
C690 O701 1.254 . S
C691 O702 1.236 . S
C691 O703 1.266 . S
O692 Tb672 2.484 . S
O692 C674 1.248 . S
O693 Tb672 2.440 . S
O693 C674 1.266 . S
O694 Tb672 2.658 . S
O694 Tb673 2.325 . S
O694 C681 1.281 . S
O695 Tb672 2.409 . S
O695 C681 1.254 . S
O696 Tb672 2.378 . S
O696 C682 1.236 . S
O697 Tb673 2.341 . S
O697 C682 1.266 . S
O698 Tb673 2.484 . S
O698 C683 1.248 . S
O699 Tb673 2.440 . S
O699 C683 1.266 . S
O700 Tb672 2.325 . S
O700 Tb673 2.658 . S
O700 C690 1.281 . S
O701 Tb673 2.409 . S
O701 C690 1.254 . S
O702 Tb673 2.378 . S
O702 C691 1.236 . S
O703 Tb672 2.341 . S
O703 C691 1.266 . S
H704 C676 0.929 . S
H705 C677 0.931 . S
H706 C679 0.930 . S
H707 C680 0.930 . S
H708 C685 0.929 . S
H709 C686 0.931 . S
H710 C688 0.930 . S
H711 C689 0.930 . S
Tb712 C714 2.809 1_455 S
Tb712 O732 2.484 1_455 S
Tb712 O733 2.440 1_455 S
Tb712 O734 2.658 . S
Tb712 O735 2.409 . S
Tb712 O736 2.378 . S
Tb712 O740 2.325 . S
Tb712 O743 2.341 . S
Tb713 C723 2.809 . S
Tb713 O734 2.325 . S
Tb713 O737 2.341 . S
Tb713 O738 2.484 . S
Tb713 O739 2.440 . S
Tb713 O740 2.658 . S
Tb713 O741 2.409 . S
Tb713 O742 2.378 . S
C714 Tb712 2.809 1_655 S
C714 C715 1.514 . S
C714 O732 1.248 . S
C714 O733 1.266 . S
C715 C714 1.514 . S
C715 C716 1.359 . S
C715 C720 1.348 . S
C716 C715 1.359 . S
C716 C717 1.380 . S
C716 H744 0.929 . S
C717 C716 1.380 . S
C717 C718 1.347 . S
C717 H745 0.931 . S
C718 C717 1.347 . S
C718 C719 1.369 . S
C719 C718 1.369 . S
C719 C720 1.408 . S
C719 H746 0.930 . S
C720 C715 1.348 . S
C720 C719 1.408 . S
C720 H747 0.930 . S
C721 O734 1.281 . S
C721 O735 1.254 . S
C722 O736 1.236 . S
C722 O737 1.266 . S
C723 Tb713 2.809 . S
C723 C724 1.514 . S
C723 O738 1.248 . S
C723 O739 1.266 . S
C724 C723 1.514 . S
C724 C725 1.359 . S
C724 C729 1.348 . S
C725 C724 1.359 . S
C725 C726 1.380 . S
C725 H748 0.929 . S
C726 C725 1.380 . S
C726 C727 1.347 . S
C726 H749 0.931 . S
C727 C726 1.347 . S
C727 C728 1.369 . S
C728 C727 1.369 . S
C728 C729 1.408 . S
C728 H750 0.930 . S
C729 C724 1.348 . S
C729 C728 1.408 . S
C729 H751 0.930 . S
C730 O740 1.281 . S
C730 O741 1.254 . S
C731 O742 1.236 . S
C731 O743 1.266 . S
O732 Tb712 2.484 1_655 S
O732 C714 1.248 . S
O733 Tb712 2.440 1_655 S
O733 C714 1.266 . S
O734 Tb712 2.658 . S
O734 Tb713 2.325 . S
O734 C721 1.281 . S
O735 Tb712 2.409 . S
O735 C721 1.254 . S
O736 Tb712 2.378 . S
O736 C722 1.236 . S
O737 Tb713 2.341 . S
O737 C722 1.266 . S
O738 Tb713 2.484 . S
O738 C723 1.248 . S
O739 Tb713 2.440 . S
O739 C723 1.266 . S
O740 Tb712 2.325 . S
O740 Tb713 2.658 . S
O740 C730 1.281 . S
O741 Tb713 2.409 . S
O741 C730 1.254 . S
O742 Tb713 2.378 . S
O742 C731 1.236 . S
O743 Tb712 2.341 . S
O743 C731 1.266 . S
H744 C716 0.929 . S
H745 C717 0.931 . S
H746 C719 0.930 . S
H747 C720 0.930 . S
H748 C725 0.929 . S
H749 C726 0.931 . S
H750 C728 0.930 . S
H751 C729 0.930 . S
Tb752 C754 2.809 . S
Tb752 O772 2.484 . S
Tb752 O773 2.440 . S
Tb752 O774 2.658 . S
Tb752 O775 2.409 . S
Tb752 O776 2.378 . S
Tb752 O780 2.325 . S
Tb752 O783 2.341 . S
Tb753 C763 2.809 . S
Tb753 O774 2.325 . S
Tb753 O777 2.341 . S
Tb753 O778 2.484 . S
Tb753 O779 2.440 . S
Tb753 O780 2.658 . S
Tb753 O781 2.409 . S
Tb753 O782 2.378 . S
C754 Tb752 2.809 . S
C754 C755 1.514 . S
C754 O772 1.248 . S
C754 O773 1.266 . S
C755 C754 1.514 . S
C755 C756 1.359 . S
C755 C760 1.348 . S
C756 C755 1.359 . S
C756 C757 1.380 . S
C756 H784 0.929 . S
C757 C756 1.380 . S
C757 C758 1.347 . S
C757 H785 0.931 . S
C758 C757 1.347 . S
C758 C759 1.369 . S
C759 C758 1.369 . S
C759 C760 1.408 . S
C759 H786 0.930 . S
C760 C755 1.348 . S
C760 C759 1.408 . S
C760 H787 0.930 . S
C761 O774 1.281 . S
C761 O775 1.254 . S
C762 O776 1.236 . S
C762 O777 1.266 . S
C763 Tb753 2.809 . S
C763 C764 1.514 . S
C763 O778 1.248 . S
C763 O779 1.266 . S
C764 C763 1.514 . S
C764 C765 1.359 . S
C764 C769 1.348 . S
C765 C764 1.359 . S
C765 C766 1.380 . S
C765 H788 0.929 . S
C766 C765 1.380 . S
C766 C767 1.347 . S
C766 H789 0.931 . S
C767 C766 1.347 . S
C767 C768 1.369 . S
C768 C767 1.369 . S
C768 C769 1.408 . S
C768 H790 0.930 . S
C769 C764 1.348 . S
C769 C768 1.408 . S
C769 H791 0.930 . S
C770 O780 1.281 . S
C770 O781 1.254 . S
C771 O782 1.236 . S
C771 O783 1.266 . S
O772 Tb752 2.484 . S
O772 C754 1.248 . S
O773 Tb752 2.440 . S
O773 C754 1.266 . S
O774 Tb752 2.658 . S
O774 Tb753 2.325 . S
O774 C761 1.281 . S
O775 Tb752 2.409 . S
O775 C761 1.254 . S
O776 Tb752 2.378 . S
O776 C762 1.236 . S
O777 Tb753 2.341 . S
O777 C762 1.266 . S
O778 Tb753 2.484 . S
O778 C763 1.248 . S
O779 Tb753 2.440 . S
O779 C763 1.266 . S
O780 Tb752 2.325 . S
O780 Tb753 2.658 . S
O780 C770 1.281 . S
O781 Tb753 2.409 . S
O781 C770 1.254 . S
O782 Tb753 2.378 . S
O782 C771 1.236 . S
O783 Tb752 2.341 . S
O783 C771 1.266 . S
H784 C756 0.929 . S
H785 C757 0.931 . S
H786 C759 0.930 . S
H787 C760 0.930 . S
H788 C765 0.929 . S
H789 C766 0.931 . S
H790 C768 0.930 . S
H791 C769 0.930 . S
Tb792 C794 2.809 . S
Tb792 O812 2.484 . S
Tb792 O813 2.440 . S
Tb792 O814 2.658 . S
Tb792 O815 2.409 . S
Tb792 O816 2.378 . S
Tb792 O820 2.325 . S
Tb792 O823 2.341 . S
Tb793 C803 2.809 . S
Tb793 O814 2.325 . S
Tb793 O817 2.341 . S
Tb793 O818 2.484 . S
Tb793 O819 2.440 . S
Tb793 O820 2.658 . S
Tb793 O821 2.409 . S
Tb793 O822 2.378 . S
C794 Tb792 2.809 . S
C794 C795 1.514 . S
C794 O812 1.248 . S
C794 O813 1.266 . S
C795 C794 1.514 . S
C795 C796 1.359 . S
C795 C800 1.348 . S
C796 C795 1.359 . S
C796 C797 1.380 . S
C796 H824 0.929 . S
C797 C796 1.380 . S
C797 C798 1.347 . S
C797 H825 0.931 . S
C798 C797 1.347 . S
C798 C799 1.369 . S
C799 C798 1.369 . S
C799 C800 1.408 . S
C799 H826 0.930 . S
C800 C795 1.348 . S
C800 C799 1.408 . S
C800 H827 0.930 . S
C801 O814 1.281 . S
C801 O815 1.254 . S
C802 O816 1.236 . S
C802 O817 1.266 . S
C803 Tb793 2.809 . S
C803 C804 1.514 . S
C803 O818 1.248 . S
C803 O819 1.266 . S
C804 C803 1.514 . S
C804 C805 1.359 . S
C804 C809 1.348 . S
C805 C804 1.359 . S
C805 C806 1.380 1_556 S
C805 H828 0.929 . S
C806 C805 1.380 1_554 S
C806 C807 1.347 . S
C806 H829 0.931 . S
C807 C806 1.347 . S
C807 C808 1.369 . S
C808 C807 1.369 . S
C808 C809 1.408 1_554 S
C808 H830 0.930 . S
C809 C804 1.348 . S
C809 C808 1.408 1_556 S
C809 H831 0.930 . S
C810 O820 1.281 . S
C810 O821 1.254 . S
C811 O822 1.236 . S
C811 O823 1.266 . S
O812 Tb792 2.484 . S
O812 C794 1.248 . S
O813 Tb792 2.440 . S
O813 C794 1.266 . S
O814 Tb792 2.658 . S
O814 Tb793 2.325 . S
O814 C801 1.281 . S
O815 Tb792 2.409 . S
O815 C801 1.254 . S
O816 Tb792 2.378 . S
O816 C802 1.236 . S
O817 Tb793 2.341 . S
O817 C802 1.266 . S
O818 Tb793 2.484 . S
O818 C803 1.248 . S
O819 Tb793 2.440 . S
O819 C803 1.266 . S
O820 Tb792 2.325 . S
O820 Tb793 2.658 . S
O820 C810 1.281 . S
O821 Tb793 2.409 . S
O821 C810 1.254 . S
O822 Tb793 2.378 . S
O822 C811 1.236 . S
O823 Tb792 2.341 . S
O823 C811 1.266 . S
H824 C796 0.929 . S
H825 C797 0.931 . S
H826 C799 0.930 . S
H827 C800 0.930 . S
H828 C805 0.929 . S
H829 C806 0.931 . S
H830 C808 0.930 . S
H831 C809 0.930 . S
Tb832 C834 2.809 . S
Tb832 O852 2.484 . S
Tb832 O853 2.440 . S
Tb832 O854 2.658 . S
Tb832 O855 2.409 . S
Tb832 O856 2.378 . S
Tb832 O860 2.325 . S
Tb832 O863 2.341 . S
Tb833 C843 2.809 . S
Tb833 O854 2.325 . S
Tb833 O857 2.341 . S
Tb833 O858 2.484 . S
Tb833 O859 2.440 . S
Tb833 O860 2.658 . S
Tb833 O861 2.409 . S
Tb833 O862 2.378 . S
C834 Tb832 2.809 . S
C834 C835 1.514 . S
C834 O852 1.248 . S
C834 O853 1.266 . S
C835 C834 1.514 . S
C835 C836 1.359 . S
C835 C840 1.348 . S
C836 C835 1.359 . S
C836 C837 1.380 . S
C836 H864 0.929 . S
C837 C836 1.380 . S
C837 C838 1.347 . S
C837 H865 0.931 . S
C838 C837 1.347 . S
C838 C839 1.369 . S
C839 C838 1.369 . S
C839 C840 1.408 . S
C839 H866 0.930 . S
C840 C835 1.348 . S
C840 C839 1.408 . S
C840 H867 0.930 . S
C841 O854 1.281 . S
C841 O855 1.254 . S
C842 O856 1.236 . S
C842 O857 1.266 . S
C843 Tb833 2.809 . S
C843 C844 1.514 . S
C843 O858 1.248 . S
C843 O859 1.266 . S
C844 C843 1.514 . S
C844 C845 1.359 . S
C844 C849 1.348 . S
C845 C844 1.359 . S
C845 C846 1.380 . S
C845 H868 0.929 . S
C846 C845 1.380 . S
C846 C847 1.347 . S
C846 H869 0.931 . S
C847 C846 1.347 . S
C847 C848 1.369 . S
C848 C847 1.369 . S
C848 C849 1.408 . S
C848 H870 0.930 . S
C849 C844 1.348 . S
C849 C848 1.408 . S
C849 H871 0.930 . S
C850 O860 1.281 . S
C850 O861 1.254 . S
C851 O862 1.236 . S
C851 O863 1.266 . S
O852 Tb832 2.484 . S
O852 C834 1.248 . S
O853 Tb832 2.440 . S
O853 C834 1.266 . S
O854 Tb832 2.658 . S
O854 Tb833 2.325 . S
O854 C841 1.281 . S
O855 Tb832 2.409 . S
O855 C841 1.254 . S
O856 Tb832 2.378 . S
O856 C842 1.236 . S
O857 Tb833 2.341 . S
O857 C842 1.266 . S
O858 Tb833 2.484 . S
O858 C843 1.248 . S
O859 Tb833 2.440 . S
O859 C843 1.266 . S
O860 Tb832 2.325 . S
O860 Tb833 2.658 . S
O860 C850 1.281 . S
O861 Tb833 2.409 . S
O861 C850 1.254 . S
O862 Tb833 2.378 . S
O862 C851 1.236 . S
O863 Tb832 2.341 . S
O863 C851 1.266 . S
H864 C836 0.929 . S
H865 C837 0.931 . S
H866 C839 0.930 . S
H867 C840 0.930 . S
H868 C845 0.929 . S
H869 C846 0.931 . S
H870 C848 0.930 . S
H871 C849 0.930 . S
Tb872 C874 2.809 . S
Tb872 O892 2.484 . S
Tb872 O893 2.440 . S
Tb872 O894 2.658 . S
Tb872 O895 2.409 . S
Tb872 O896 2.378 . S
Tb872 O900 2.325 . S
Tb872 O903 2.341 . S
Tb873 C883 2.809 . S
Tb873 O894 2.325 . S
Tb873 O897 2.341 . S
Tb873 O898 2.484 . S
Tb873 O899 2.440 . S
Tb873 O900 2.658 . S
Tb873 O901 2.409 . S
Tb873 O902 2.378 . S
C874 Tb872 2.809 . S
C874 C875 1.514 . S
C874 O892 1.248 . S
C874 O893 1.266 . S
C875 C874 1.514 . S
C875 C876 1.359 . S
C875 C880 1.348 . S
C876 C875 1.359 . S
C876 C877 1.380 . S
C876 H904 0.929 . S
C877 C876 1.380 . S
C877 C878 1.347 . S
C877 H905 0.931 . S
C878 C877 1.347 . S
C878 C879 1.369 . S
C879 C878 1.369 . S
C879 C880 1.408 . S
C879 H906 0.930 . S
C880 C875 1.348 . S
C880 C879 1.408 . S
C880 H907 0.930 . S
C881 O894 1.281 . S
C881 O895 1.254 . S
C882 O896 1.236 . S
C882 O897 1.266 . S
C883 Tb873 2.809 . S
C883 C884 1.514 . S
C883 O898 1.248 . S
C883 O899 1.266 . S
C884 C883 1.514 . S
C884 C885 1.359 . S
C884 C889 1.348 . S
C885 C884 1.359 . S
C885 C886 1.380 . S
C885 H908 0.929 . S
C886 C885 1.380 . S
C886 C887 1.347 . S
C886 H909 0.931 . S
C887 C886 1.347 . S
C887 C888 1.369 . S
C888 C887 1.369 . S
C888 C889 1.408 . S
C888 H910 0.930 . S
C889 C884 1.348 . S
C889 C888 1.408 . S
C889 H911 0.930 . S
C890 O900 1.281 . S
C890 O901 1.254 . S
C891 O902 1.236 . S
C891 O903 1.266 . S
O892 Tb872 2.484 . S
O892 C874 1.248 . S
O893 Tb872 2.440 . S
O893 C874 1.266 . S
O894 Tb872 2.658 . S
O894 Tb873 2.325 . S
O894 C881 1.281 . S
O895 Tb872 2.409 . S
O895 C881 1.254 . S
O896 Tb872 2.378 . S
O896 C882 1.236 . S
O897 Tb873 2.341 . S
O897 C882 1.266 . S
O898 Tb873 2.484 . S
O898 C883 1.248 . S
O899 Tb873 2.440 . S
O899 C883 1.266 . S
O900 Tb872 2.325 . S
O900 Tb873 2.658 . S
O900 C890 1.281 . S
O901 Tb873 2.409 . S
O901 C890 1.254 . S
O902 Tb873 2.378 . S
O902 C891 1.236 . S
O903 Tb872 2.341 . S
O903 C891 1.266 . S
H904 C876 0.929 . S
H905 C877 0.931 . S
H906 C879 0.930 . S
H907 C880 0.930 . S
H908 C885 0.929 . S
H909 C886 0.931 . S
H910 C888 0.930 . S
H911 C889 0.930 . S
Tb912 C914 2.809 . S
Tb912 O932 2.484 . S
Tb912 O933 2.440 . S
Tb912 O934 2.658 . S
Tb912 O935 2.409 . S
Tb912 O936 2.378 . S
Tb912 O940 2.325 . S
Tb912 O943 2.341 . S
Tb913 C923 2.809 1_455 S
Tb913 O934 2.325 . S
Tb913 O937 2.341 . S
Tb913 O938 2.484 1_455 S
Tb913 O939 2.440 1_455 S
Tb913 O940 2.658 . S
Tb913 O941 2.409 . S
Tb913 O942 2.378 . S
C914 Tb912 2.809 . S
C914 C915 1.514 . S
C914 O932 1.248 . S
C914 O933 1.266 . S
C915 C914 1.514 . S
C915 C916 1.359 . S
C915 C920 1.348 . S
C916 C915 1.359 . S
C916 C917 1.380 . S
C916 H944 0.929 . S
C917 C916 1.380 . S
C917 C918 1.347 . S
C917 H945 0.931 . S
C918 C917 1.347 . S
C918 C919 1.369 . S
C919 C918 1.369 . S
C919 C920 1.408 . S
C919 H946 0.946 . S
C920 C915 1.348 . S
C920 C919 1.408 . S
C920 H947 0.930 . S
C921 O934 1.281 . S
C921 O935 1.254 . S
C922 O936 1.236 . S
C922 O937 1.266 . S
C923 Tb913 2.809 1_655 S
C923 C924 1.514 . S
C923 O938 1.248 . S
C923 O939 1.266 . S
C924 C923 1.514 . S
C924 C925 1.359 . S
C924 C929 1.348 . S
C925 C924 1.359 . S
C925 C926 1.380 . S
C925 H948 0.929 . S
C926 C925 1.380 . S
C926 C927 1.347 . S
C926 H949 0.931 . S
C927 C926 1.347 . S
C927 C928 1.369 . S
C928 C927 1.369 . S
C928 C929 1.408 . S
C928 H950 0.930 . S
C929 C924 1.348 . S
C929 C928 1.408 . S
C929 H951 0.930 . S
C930 O940 1.281 . S
C930 O941 1.254 . S
C931 O942 1.236 . S
C931 O943 1.266 . S
O932 Tb912 2.484 . S
O932 C914 1.248 . S
O933 Tb912 2.440 . S
O933 C914 1.266 . S
O934 Tb912 2.658 . S
O934 Tb913 2.325 . S
O934 C921 1.281 . S
O935 Tb912 2.409 . S
O935 C921 1.254 . S
O936 Tb912 2.378 . S
O936 C922 1.236 . S
O937 Tb913 2.341 . S
O937 C922 1.266 . S
O938 Tb913 2.484 1_655 S
O938 C923 1.248 . S
O939 Tb913 2.440 1_655 S
O939 C923 1.266 . S
O940 Tb912 2.325 . S
O940 Tb913 2.658 . S
O940 C930 1.281 . S
O941 Tb913 2.409 . S
O941 C930 1.254 . S
O942 Tb913 2.378 . S
O942 C931 1.236 . S
O943 Tb912 2.341 . S
O943 C931 1.266 . S
H944 C916 0.929 . S
H945 C917 0.931 . S
H946 C919 0.946 . S
H947 C920 0.930 . S
H948 C925 0.929 . S
H949 C926 0.931 . S
H950 C928 0.930 . S
H951 C929 0.930 . S
C952 C953 1.387 . S
C952 H956 0.950 . S
C952 C961 1.390 . S
C953 C952 1.387 . S
C953 C955 1.387 . S
H954 C961 0.950 . S
C955 C953 1.387 . S
C955 C957 1.390 . S
C955 H959 0.950 1_455 S
H956 C952 0.950 . S
C957 C955 1.390 . S
C957 C958 1.387 . S
C957 H960 0.934 1_455 S
C958 C957 1.387 . S
C958 C961 1.387 . S
H959 C955 0.950 1_655 S
H960 C957 0.934 1_655 S
C961 C952 1.390 . S
C961 H954 0.950 . S
C961 C958 1.387 . S
C962 C963 1.387 . S
C962 H966 0.950 . S
C962 C971 1.390 . S
C963 C962 1.387 . S
C963 C965 1.387 . S
H964 C971 0.950 . S
C965 C963 1.387 . S
C965 C967 1.390 . S
C965 H969 0.950 . S
H966 C962 0.950 . S
C967 C965 1.390 . S
C967 C968 1.387 . S
C967 H970 0.950 . S
C968 C967 1.387 . S
C968 C971 1.387 . S
H969 C965 0.950 . S
H970 C967 0.950 . S
C971 C962 1.390 . S
C971 H964 0.950 . S
C971 C968 1.387 . S
C972 C973 1.387 . S
C972 H976 0.950 . S
C972 C981 1.390 . S
C973 C972 1.387 . S
C973 C975 1.387 . S
H974 C981 0.950 . S
C975 C973 1.387 . S
C975 C977 1.390 . S
C975 H979 0.950 . S
H976 C972 0.950 . S
C977 C975 1.390 . S
C977 C978 1.387 . S
C977 H980 0.950 . S
C978 C977 1.387 . S
C978 C981 1.387 . S
H979 C975 0.950 . S
H980 C977 0.950 . S
C981 C972 1.390 . S
C981 H974 0.950 . S
C981 C978 1.387 . S
C982 C983 1.387 . S
C982 H986 0.950 . S
C982 C991 1.390 . S
C983 C982 1.387 . S
C983 C985 1.387 . S
H984 C991 0.950 . S
C985 C983 1.387 . S
C985 C987 1.390 . S
C985 H989 0.950 . S
H986 C982 0.950 . S
C987 C985 1.390 . S
C987 C988 1.387 . S
C987 H990 0.950 . S
C988 C987 1.387 . S
C988 C991 1.387 . S
H989 C985 0.950 . S
H990 C987 0.950 . S
C991 C982 1.390 . S
C991 H984 0.950 . S
C991 C988 1.387 . S
C992 C993 1.387 . S
C992 H996 0.950 . S
C992 C1001 1.390 . S
C993 C992 1.387 . S
C993 C995 1.387 . S
H994 C1001 0.950 . S
C995 C993 1.387 . S
C995 C997 1.390 . S
C995 H999 0.950 . S
H996 C992 0.950 . S
C997 C995 1.390 . S
C997 C998 1.387 . S
C997 H1000 0.950 . S
C998 C997 1.387 . S
C998 C1001 1.387 . S
H999 C995 0.950 . S
H1000 C997 0.950 . S
C1001 C992 1.390 . S
C1001 H994 0.950 . S
C1001 C998 1.387 . S
C1002 C1003 1.387 . S
C1002 H1006 0.950 . S
C1002 C1011 1.390 . S
C1003 C1002 1.387 . S
C1003 C1005 1.387 . S
H1004 C1011 0.950 . S
C1005 C1003 1.387 . S
C1005 C1007 1.390 . S
C1005 H1009 0.950 . S
H1006 C1002 0.950 . S
C1007 C1005 1.390 . S
C1007 C1008 1.387 . S
C1007 H1010 0.950 . S
C1008 C1007 1.387 . S
C1008 C1011 1.387 . S
H1009 C1005 0.950 . S
H1010 C1007 0.950 . S
C1011 C1002 1.390 . S
C1011 H1004 0.950 . S
C1011 C1008 1.387 . S
C1012 C1013 1.387 . S
C1012 H1016 0.950 . S
C1012 C1021 1.390 . S
C1013 C1012 1.387 . S
C1013 C1015 1.387 . S
H1014 C1021 0.950 . S
C1015 C1013 1.387 . S
C1015 C1017 1.390 . S
C1015 H1019 0.950 . S
H1016 C1012 0.950 . S
C1017 C1015 1.390 . S
C1017 C1018 1.387 . S
C1017 H1020 0.950 . S
C1018 C1017 1.387 . S
C1018 C1021 1.387 . S
H1019 C1015 0.950 . S
H1020 C1017 0.950 . S
C1021 C1012 1.390 . S
C1021 H1014 0.950 . S
C1021 C1018 1.387 . S
C1022 C1023 1.387 . S
C1022 H1026 0.950 . S
C1022 C1031 1.390 . S
C1023 C1022 1.387 . S
C1023 C1025 1.387 . S
H1024 C1031 0.950 . S
C1025 C1023 1.387 . S
C1025 C1027 1.390 . S
C1025 H1029 0.950 . S
H1026 C1022 0.950 . S
C1027 C1025 1.390 . S
C1027 C1028 1.387 . S
C1027 H1030 0.950 . S
C1028 C1027 1.387 . S
C1028 C1031 1.387 . S
H1029 C1025 0.950 . S
H1030 C1027 0.950 . S
C1031 C1022 1.390 . S
C1031 H1024 0.950 . S
C1031 C1028 1.387 . S
C1032 C1033 1.387 1_455 S
C1032 H1036 0.950 . S
C1032 C1041 1.390 . S
C1033 C1032 1.387 1_655 S
C1033 C1035 1.387 1_545 S
H1034 C1041 0.950 . S
C1035 C1033 1.387 1_565 S
C1035 C1037 1.397 . S
C1035 H1039 0.950 . S
H1036 C1032 0.950 . S
C1037 C1035 1.397 . S
C1037 C1038 1.372 1_665 S
C1037 H1040 0.959 . S
C1038 C1037 1.372 1_445 S
C1038 C1041 1.387 . S
H1039 C1035 0.950 . S
H1040 C1037 0.959 . S
C1041 C1032 1.390 . S
C1041 H1034 0.950 . S
C1041 C1038 1.387 . S
C1042 C1043 1.387 . S
C1042 H1046 0.950 . S
C1042 C1051 1.390 . S
C1043 C1042 1.387 . S
C1043 C1045 1.387 . S
H1044 C1051 0.950 . S
C1045 C1043 1.387 . S
C1045 C1047 1.390 . S
C1045 H1049 0.950 . S
H1046 C1042 0.950 . S
C1047 C1045 1.390 . S
C1047 C1048 1.387 . S
C1047 H1050 0.950 . S
C1048 C1047 1.387 . S
C1048 C1051 1.387 . S
H1049 C1045 0.950 . S
H1050 C1047 0.950 . S
C1051 C1042 1.390 . S
C1051 H1044 0.950 . S
C1051 C1048 1.387 . S
C1052 C1053 1.387 . S
C1052 H1056 0.950 . S
C1052 C1061 1.390 . S
C1053 C1052 1.387 . S
C1053 C1055 1.387 . S
H1054 C1061 0.950 . S
C1055 C1053 1.387 . S
C1055 C1057 1.390 . S
C1055 H1059 0.950 1_545 S
H1056 C1052 0.950 . S
C1057 C1055 1.390 . S
C1057 C1058 1.387 . S
C1057 H1060 0.950 1_545 S
C1058 C1057 1.387 . S
C1058 C1061 1.387 . S
H1059 C1055 0.950 1_565 S
H1060 C1057 0.950 1_565 S
C1061 C1052 1.390 . S
C1061 H1054 0.950 . S
C1061 C1058 1.387 . S
C1062 C1063 1.387 1_556 S
C1062 H1066 0.950 . S
C1062 C1071 1.390 . S
C1063 C1062 1.387 1_554 S
C1063 C1065 1.387 1_554 S
H1064 C1071 0.950 . S
C1065 C1063 1.387 1_556 S
C1065 C1067 1.390 . S
C1065 H1069 0.950 1_556 S
H1066 C1062 0.950 . S
C1067 C1065 1.390 . S
C1067 C1068 1.387 . S
C1067 H1070 0.950 . S
C1068 C1067 1.387 . S
C1068 C1071 1.387 . S
H1069 C1065 0.950 1_554 S
H1070 C1067 0.950 . S
C1071 C1062 1.390 . S
C1071 H1064 0.950 . S
C1071 C1068 1.387 . S
C1072 C1073 1.387 1_565 S
C1072 H1076 0.950 . S
C1072 C1081 1.391 1_565 S
C1073 C1072 1.387 1_545 S
C1073 C1075 1.387 1_655 S
H1074 C1081 0.942 1_565 S
C1075 C1073 1.387 1_455 S
C1075 C1077 1.390 . S
C1075 H1079 0.950 . S
H1076 C1072 0.950 . S
C1077 C1075 1.390 . S
C1077 C1078 1.387 . S
C1077 H1080 0.950 . S
C1078 C1077 1.387 . S
C1078 C1081 1.394 1_455 S
H1079 C1075 0.950 . S
H1080 C1077 0.950 . S
C1081 C1072 1.391 1_545 S
C1081 H1074 0.942 1_545 S
C1081 C1078 1.394 1_655 S
C1082 C1083 1.387 . S
C1082 H1086 0.950 . S
C1082 C1091 1.390 . S
C1083 C1082 1.387 . S
C1083 C1085 1.387 . S
H1084 C1091 0.950 . S
C1085 C1083 1.387 . S
C1085 C1087 1.390 . S
C1085 H1089 0.950 . S
H1086 C1082 0.950 . S
C1087 C1085 1.390 . S
C1087 C1088 1.387 . S
C1087 H1090 0.950 . S
C1088 C1087 1.387 . S
C1088 C1091 1.387 . S
H1089 C1085 0.950 . S
H1090 C1087 0.950 . S
C1091 C1082 1.390 . S
C1091 H1084 0.950 . S
C1091 C1088 1.387 . S
C1092 C1093 1.387 . S
C1092 H1096 0.950 . S
C1092 C1101 1.390 1_556 S
C1093 C1092 1.387 . S
C1093 C1095 1.387 . S
H1094 C1101 0.950 . S
C1095 C1093 1.387 . S
C1095 C1097 1.390 . S
C1095 H1099 0.950 1_545 S
H1096 C1092 0.950 . S
C1097 C1095 1.390 . S
C1097 C1098 1.387 1_556 S
C1097 H1100 0.950 1_556 S
C1098 C1097 1.387 1_554 S
C1098 C1101 1.387 . S
H1099 C1095 0.950 1_565 S
H1100 C1097 0.950 1_554 S
C1101 C1092 1.390 1_554 S
C1101 H1094 0.950 . S
C1101 C1098 1.387 . S
C1102 C1103 1.387 . S
C1102 H1106 0.950 . S
C1102 C1111 1.390 . S
C1103 C1102 1.387 . S
C1103 C1105 1.387 . S
H1104 C1111 0.950 . S
C1105 C1103 1.387 . S
C1105 C1107 1.390 . S
C1105 H1109 0.950 . S
H1106 C1102 0.950 . S
C1107 C1105 1.390 . S
C1107 C1108 1.387 . S
C1107 H1110 0.950 . S
C1108 C1107 1.387 . S
C1108 C1111 1.387 . S
H1109 C1105 0.950 . S
H1110 C1107 0.950 . S
C1111 C1102 1.390 . S
C1111 H1104 0.950 . S
C1111 C1108 1.387 . S
C1112 C1113 1.387 . S
C1112 H1116 0.950 . S
C1112 C1121 1.390 . S
C1113 C1112 1.387 . S
C1113 C1115 1.387 . S
H1114 C1121 0.950 . S
C1115 C1113 1.387 . S
C1115 C1117 1.390 . S
C1115 H1119 0.950 . S
H1116 C1112 0.950 . S
C1117 C1115 1.390 . S
C1117 C1118 1.387 . S
C1117 H1120 0.950 . S
C1118 C1117 1.387 . S
C1118 C1121 1.387 . S
H1119 C1115 0.950 . S
H1120 C1117 0.950 . S
C1121 C1112 1.390 . S
C1121 H1114 0.950 . S
C1121 C1118 1.387 . S
C1122 C1123 1.387 . S
C1122 H1126 0.950 . S
C1122 C1131 1.390 . S
C1123 C1122 1.387 . S
C1123 C1125 1.387 . S
H1124 C1131 0.950 . S
C1125 C1123 1.387 . S
C1125 C1127 1.390 . S
C1125 H1129 0.950 . S
H1126 C1122 0.950 . S
C1127 C1125 1.390 . S
C1127 C1128 1.387 . S
C1127 H1130 0.950 . S
C1128 C1127 1.387 . S
C1128 C1131 1.387 . S
H1129 C1125 0.950 . S
H1130 C1127 0.950 . S
C1131 C1122 1.390 . S
C1131 H1124 0.950 . S
C1131 C1128 1.387 . S
C1132 C1133 1.387 . S
C1132 H1136 0.950 . S
C1132 C1141 1.390 . S
C1133 C1132 1.387 . S
C1133 C1135 1.387 . S
H1134 C1141 0.950 . S
C1135 C1133 1.387 . S
C1135 C1137 1.390 . S
C1135 H1139 0.950 . S
H1136 C1132 0.950 . S
C1137 C1135 1.390 . S
C1137 C1138 1.387 . S
C1137 H1140 0.950 . S
C1138 C1137 1.387 . S
C1138 C1141 1.387 . S
H1139 C1135 0.950 . S
H1140 C1137 0.950 . S
C1141 C1132 1.390 . S
C1141 H1134 0.950 . S
C1141 C1138 1.387 . S
C1142 C1143 1.387 . S
C1142 H1146 0.950 . S
C1142 C1151 1.390 . S
C1143 C1142 1.387 . S
C1143 C1145 1.387 . S
H1144 C1151 0.950 . S
C1145 C1143 1.387 . S
C1145 C1147 1.390 . S
C1145 H1149 0.950 . S
H1146 C1142 0.950 . S
C1147 C1145 1.390 . S
C1147 C1148 1.387 . S
C1147 H1150 0.950 . S
C1148 C1147 1.387 . S
C1148 C1151 1.387 . S
H1149 C1145 0.950 . S
H1150 C1147 0.950 . S
C1151 C1142 1.390 . S
C1151 H1144 0.950 . S
C1151 C1148 1.387 . S
C1152 C1153 1.387 . S
C1152 H1156 0.950 . S
C1152 C1161 1.390 . S
C1153 C1152 1.387 . S
C1153 C1155 1.387 . S
H1154 C1161 0.950 . S
C1155 C1153 1.387 . S
C1155 C1157 1.390 . S
C1155 H1159 0.950 . S
H1156 C1152 0.950 . S
C1157 C1155 1.390 . S
C1157 C1158 1.387 . S
C1157 H1160 0.950 . S
C1158 C1157 1.387 . S
C1158 C1161 1.387 . S
H1159 C1155 0.950 . S
H1160 C1157 0.950 . S
C1161 C1152 1.390 . S
C1161 H1154 0.950 . S
C1161 C1158 1.387 . S
C1162 C1163 1.387 . S
C1162 H1166 0.950 . S
C1162 C1171 1.390 . S
C1163 C1162 1.387 . S
C1163 C1165 1.387 . S
H1164 C1171 0.950 . S
C1165 C1163 1.387 . S
C1165 C1167 1.390 . S
C1165 H1169 0.950 . S
H1166 C1162 0.950 . S
C1167 C1165 1.390 . S
C1167 C1168 1.387 . S
C1167 H1170 0.950 . S
C1168 C1167 1.387 . S
C1168 C1171 1.387 . S
H1169 C1165 0.950 . S
H1170 C1167 0.950 . S
C1171 C1162 1.390 . S
C1171 H1164 0.950 . S
C1171 C1168 1.387 . S
C1172 C1173 1.387 . S
C1172 H1176 0.950 . S
C1172 C1181 1.390 . S
C1173 C1172 1.387 . S
C1173 C1175 1.387 . S
H1174 C1181 0.950 . S
C1175 C1173 1.387 . S
C1175 C1177 1.390 . S
C1175 H1179 0.950 . S
H1176 C1172 0.950 . S
C1177 C1175 1.390 . S
C1177 C1178 1.387 . S
C1177 H1180 0.950 . S
C1178 C1177 1.387 . S
C1178 C1181 1.387 . S
H1179 C1175 0.950 . S
H1180 C1177 0.950 . S
C1181 C1172 1.390 . S
C1181 H1174 0.950 . S
C1181 C1178 1.387 . S
C1182 C1183 1.387 . S
C1182 H1186 0.950 . S
C1182 C1191 1.390 . S
C1183 C1182 1.387 . S
C1183 C1185 1.387 . S
H1184 C1191 0.950 . S
C1185 C1183 1.387 . S
C1185 C1187 1.390 . S
C1185 H1189 0.950 . S
H1186 C1182 0.950 . S
C1187 C1185 1.390 . S
C1187 C1188 1.387 . S
C1187 H1190 0.950 . S
C1188 C1187 1.387 . S
C1188 C1191 1.387 . S
H1189 C1185 0.950 . S
H1190 C1187 0.950 . S
C1191 C1182 1.390 . S
C1191 H1184 0.950 . S
C1191 C1188 1.387 . S
C1192 C1193 1.387 . S
C1192 H1196 0.950 . S
C1192 C1201 1.390 . S
C1193 C1192 1.387 . S
C1193 C1195 1.387 . S
H1194 C1201 0.950 . S
C1195 C1193 1.387 . S
C1195 C1197 1.390 . S
C1195 H1199 0.950 . S
H1196 C1192 0.950 . S
C1197 C1195 1.390 . S
C1197 C1198 1.387 . S
C1197 H1200 0.950 . S
C1198 C1197 1.387 . S
C1198 C1201 1.387 . S
H1199 C1195 0.950 . S
H1200 C1197 0.950 . S
C1201 C1192 1.390 . S
C1201 H1194 0.950 . S
C1201 C1198 1.387 . S
C1202 C1203 1.387 . S
C1202 H1206 0.950 . S
C1202 C1211 1.390 . S
C1203 C1202 1.387 . S
C1203 C1205 1.387 . S
H1204 C1211 0.950 . S
C1205 C1203 1.387 . S
C1205 C1207 1.390 . S
C1205 H1209 0.950 . S
H1206 C1202 0.950 . S
C1207 C1205 1.390 . S
C1207 C1208 1.387 . S
C1207 H1210 0.950 . S
C1208 C1207 1.387 . S
C1208 C1211 1.387 . S
H1209 C1205 0.950 . S
H1210 C1207 0.950 . S
C1211 C1202 1.390 . S
C1211 H1204 0.950 . S
C1211 C1208 1.387 . S
C1212 C1213 1.387 . S
C1212 H1216 0.950 . S
C1212 C1221 1.390 . S
C1213 C1212 1.387 . S
C1213 C1215 1.387 . S
H1214 C1221 0.950 . S
C1215 C1213 1.387 . S
C1215 C1217 1.390 . S
C1215 H1219 0.950 . S
H1216 C1212 0.950 . S
C1217 C1215 1.390 . S
C1217 C1218 1.387 . S
C1217 H1220 0.950 . S
C1218 C1217 1.387 . S
C1218 C1221 1.387 . S
H1219 C1215 0.950 . S
H1220 C1217 0.950 . S
C1221 C1212 1.390 . S
C1221 H1214 0.950 . S
C1221 C1218 1.387 . S
C1222 C1223 1.387 . S
C1222 H1226 0.950 . S
C1222 C1231 1.390 . S
C1223 C1222 1.387 . S
C1223 C1225 1.387 . S
H1224 C1231 0.950 . S
C1225 C1223 1.387 . S
C1225 C1227 1.390 . S
C1225 H1229 0.950 . S
H1226 C1222 0.950 . S
C1227 C1225 1.390 . S
C1227 C1228 1.387 . S
C1227 H1230 0.950 . S
C1228 C1227 1.387 . S
C1228 C1231 1.387 . S
H1229 C1225 0.950 . S
H1230 C1227 0.950 . S
C1231 C1222 1.390 . S
C1231 H1224 0.950 . S
C1231 C1228 1.387 . S
C1232 C1233 1.387 1_655 S
C1232 H1236 0.950 . S
C1232 C1241 1.390 . S
C1233 C1232 1.387 1_455 S
C1233 C1235 1.387 . S
H1234 C1241 0.950 . S
C1235 C1233 1.387 . S
C1235 C1237 1.390 . S
C1235 H1239 0.950 . S
H1236 C1232 0.950 . S
C1237 C1235 1.390 . S
C1237 C1238 1.387 1_455 S
C1237 H1240 0.950 . S
C1238 C1237 1.387 1_655 S
C1238 C1241 1.387 . S
H1239 C1235 0.950 . S
H1240 C1237 0.950 . S
C1241 C1232 1.390 . S
C1241 H1234 0.950 . S
C1241 C1238 1.387 . S
C1242 C1243 1.387 . S
C1242 H1246 0.950 . S
C1242 C1251 1.390 . S
C1243 C1242 1.387 . S
C1243 C1245 1.387 . S
H1244 C1251 0.950 . S
C1245 C1243 1.387 . S
C1245 C1247 1.390 . S
C1245 H1249 0.950 . S
H1246 C1242 0.950 . S
C1247 C1245 1.390 . S
C1247 C1248 1.387 . S
C1247 H1250 0.950 . S
C1248 C1247 1.387 . S
C1248 C1251 1.387 . S
H1249 C1245 0.950 . S
H1250 C1247 0.950 . S
C1251 C1242 1.390 . S
C1251 H1244 0.950 . S
C1251 C1248 1.387 . S
C1252 C1253 1.387 1_554 S
C1252 H1256 0.950 1_554 S
C1252 C1261 1.390 . S
C1253 C1252 1.387 1_556 S
C1253 C1255 1.387 1_556 S
H1254 C1261 0.950 . S
C1255 C1253 1.387 1_554 S
C1255 C1257 1.390 . S
C1255 H1259 0.950 . S
H1256 C1252 0.950 1_556 S
C1257 C1255 1.390 . S
C1257 C1258 1.387 . S
C1257 H1260 0.950 . S
C1258 C1257 1.387 . S
C1258 C1261 1.387 . S
H1259 C1255 0.950 . S
H1260 C1257 0.950 . S
C1261 C1252 1.390 . S
C1261 H1254 0.950 . S
C1261 C1258 1.387 . S
C1262 C1263 1.387 . S
C1262 H1266 0.950 . S
C1262 C1271 1.390 1_455 S
C1263 C1262 1.387 . S
C1263 C1265 1.387 . S
H1264 C1271 0.950 . S
C1265 C1263 1.387 . S
C1265 C1267 1.390 1_455 S
C1265 H1269 0.950 . S
H1266 C1262 0.950 . S
C1267 C1265 1.390 1_655 S
C1267 C1268 1.387 . S
C1267 H1270 0.950 . S
C1268 C1267 1.387 . S
C1268 C1271 1.387 . S
H1269 C1265 0.950 . S
H1270 C1267 0.950 . S
C1271 C1262 1.390 1_655 S
C1271 H1264 0.950 . S
C1271 C1268 1.387 . S
C1272 C1273 1.387 . S
C1272 H1276 0.950 . S
C1272 C1281 1.390 . S
C1273 C1272 1.387 . S
C1273 C1275 1.387 . S
H1274 C1281 0.950 . S
C1275 C1273 1.387 . S
C1275 C1277 1.390 . S
C1275 H1279 0.950 . S
H1276 C1272 0.950 . S
C1277 C1275 1.390 . S
C1277 C1278 1.387 . S
C1277 H1280 0.950 1_556 S
C1278 C1277 1.387 . S
C1278 C1281 1.387 . S
H1279 C1275 0.950 . S
H1280 C1277 0.950 1_554 S
C1281 C1272 1.390 . S
C1281 H1274 0.950 . S
C1281 C1278 1.387 . S
C1282 C1283 1.387 . S
C1282 H1286 0.950 . S
C1282 C1291 1.390 . S
C1283 C1282 1.387 . S
C1283 C1285 1.387 . S
H1284 C1291 0.950 . S
C1285 C1283 1.387 . S
C1285 C1287 1.390 . S
C1285 H1289 0.950 . S
H1286 C1282 0.950 . S
C1287 C1285 1.390 . S
C1287 C1288 1.387 . S
C1287 H1290 0.950 . S
C1288 C1287 1.387 . S
C1288 C1291 1.387 . S
H1289 C1285 0.950 . S
H1290 C1287 0.950 . S
C1291 C1282 1.390 . S
C1291 H1284 0.950 . S
C1291 C1288 1.387 . S
C1292 C1293 1.387 . S
C1292 H1296 0.950 . S
C1292 C1301 1.390 . S
C1293 C1292 1.387 . S
C1293 C1295 1.387 . S
H1294 C1301 0.950 . S
C1295 C1293 1.387 . S
C1295 C1297 1.390 . S
C1295 H1299 0.950 . S
H1296 C1292 0.950 . S
C1297 C1295 1.390 . S
C1297 C1298 1.387 . S
C1297 H1300 0.950 . S
C1298 C1297 1.387 . S
C1298 C1301 1.387 . S
H1299 C1295 0.950 . S
H1300 C1297 0.950 . S
C1301 C1292 1.390 . S
C1301 H1294 0.950 . S
C1301 C1298 1.387 . S
C1302 C1303 1.387 . S
C1302 H1306 0.950 . S
C1302 C1311 1.390 . S
C1303 C1302 1.387 . S
C1303 C1305 1.387 . S
H1304 C1311 0.950 . S
C1305 C1303 1.387 . S
C1305 C1307 1.390 . S
C1305 H1309 0.950 . S
H1306 C1302 0.950 . S
C1307 C1305 1.390 . S
C1307 C1308 1.387 . S
C1307 H1310 0.950 . S
C1308 C1307 1.387 . S
C1308 C1311 1.387 . S
H1309 C1305 0.950 . S
H1310 C1307 0.950 . S
C1311 C1302 1.390 . S
C1311 H1304 0.950 . S
C1311 C1308 1.387 . S
C1312 C1313 1.387 . S
C1312 H1316 0.950 . S
C1312 C1321 1.390 . S
C1313 C1312 1.387 . S
C1313 C1315 1.387 . S
H1314 C1321 0.950 . S
C1315 C1313 1.387 . S
C1315 C1317 1.390 . S
C1315 H1319 0.950 . S
H1316 C1312 0.950 . S
C1317 C1315 1.390 . S
C1317 C1318 1.387 . S
C1317 H1320 0.950 . S
C1318 C1317 1.387 . S
C1318 C1321 1.387 . S
H1319 C1315 0.950 . S
H1320 C1317 0.950 . S
C1321 C1312 1.390 . S
C1321 H1314 0.950 . S
C1321 C1318 1.387 . S
C1322 C1323 1.387 . S
C1322 H1326 0.950 . S
C1322 C1331 1.390 . S
C1323 C1322 1.387 . S
C1323 C1325 1.387 . S
H1324 C1331 0.950 . S
C1325 C1323 1.387 . S
C1325 C1327 1.390 . S
C1325 H1329 0.950 . S
H1326 C1322 0.950 . S
C1327 C1325 1.390 . S
C1327 C1328 1.387 . S
C1327 H1330 0.950 . S
C1328 C1327 1.387 . S
C1328 C1331 1.387 . S
H1329 C1325 0.950 . S
H1330 C1327 0.950 . S
C1331 C1322 1.390 . S
C1331 H1324 0.950 . S
C1331 C1328 1.387 . S
C1332 C1333 1.387 . S
C1332 H1336 0.950 . S
C1332 C1341 1.390 . S
C1333 C1332 1.387 . S
C1333 C1335 1.387 . S
H1334 C1341 0.950 . S
C1335 C1333 1.387 . S
C1335 C1337 1.390 . S
C1335 H1339 0.950 . S
H1336 C1332 0.950 . S
C1337 C1335 1.390 . S
C1337 C1338 1.387 . S
C1337 H1340 0.950 1_545 S
C1338 C1337 1.387 . S
C1338 C1341 1.387 . S
H1339 C1335 0.950 . S
H1340 C1337 0.950 1_565 S
C1341 C1332 1.390 . S
C1341 H1334 0.950 . S
C1341 C1338 1.387 . S
C1342 C1343 1.387 1_554 S
C1342 H1346 0.950 . S
C1342 C1351 1.390 1_554 S
C1343 C1342 1.387 1_556 S
C1343 C1345 1.387 . S
H1344 C1351 0.950 . S
C1345 C1343 1.387 . S
C1345 C1347 1.390 . S
C1345 H1349 0.950 . S
H1346 C1342 0.950 . S
C1347 C1345 1.390 . S
C1347 C1348 1.387 . S
C1347 H1350 0.950 . S
C1348 C1347 1.387 . S
C1348 C1351 1.387 . S
H1349 C1345 0.950 . S
H1350 C1347 0.950 . S
C1351 C1342 1.390 1_556 S
C1351 H1344 0.950 . S
C1351 C1348 1.387 . S
C1352 C1353 1.387 . S
C1352 H1356 0.950 . S
C1352 C1361 1.390 . S
C1353 C1352 1.387 . S
C1353 C1355 1.387 . S
H1354 C1361 0.950 . S
C1355 C1353 1.387 . S
C1355 C1357 1.390 . S
C1355 H1359 0.950 . S
H1356 C1352 0.950 . S
C1357 C1355 1.390 . S
C1357 C1358 1.387 . S
C1357 H1360 0.950 . S
C1358 C1357 1.387 . S
C1358 C1361 1.387 . S
H1359 C1355 0.950 . S
H1360 C1357 0.950 . S
C1361 C1352 1.390 . S
C1361 H1354 0.950 . S
C1361 C1358 1.387 . S
C1362 C1363 1.387 . S
C1362 H1366 0.950 . S
C1362 C1371 1.390 . S
C1363 C1362 1.387 . S
C1363 C1365 1.387 . S
H1364 C1371 0.950 . S
C1365 C1363 1.387 . S
C1365 C1367 1.390 . S
C1365 H1369 0.950 . S
H1366 C1362 0.950 . S
C1367 C1365 1.390 . S
C1367 C1368 1.387 . S
C1367 H1370 0.950 . S
C1368 C1367 1.387 . S
C1368 C1371 1.387 . S
H1369 C1365 0.950 . S
H1370 C1367 0.950 . S
C1371 C1362 1.390 . S
C1371 H1364 0.950 . S
C1371 C1368 1.387 . S
C1372 C1373 1.387 . S
C1372 H1376 0.950 . S
C1372 C1381 1.390 . S
C1373 C1372 1.387 . S
C1373 C1375 1.387 . S
H1374 C1381 0.950 . S
C1375 C1373 1.387 . S
C1375 C1377 1.390 . S
C1375 H1379 0.950 . S
H1376 C1372 0.950 . S
C1377 C1375 1.390 . S
C1377 C1378 1.387 . S
C1377 H1380 0.950 . S
C1378 C1377 1.387 . S
C1378 C1381 1.387 . S
H1379 C1375 0.950 . S
H1380 C1377 0.950 . S
C1381 C1372 1.390 . S
C1381 H1374 0.950 . S
C1381 C1378 1.387 . S
C1382 C1383 1.387 . S
C1382 H1386 0.950 . S
C1382 C1391 1.390 . S
C1383 C1382 1.387 . S
C1383 C1385 1.387 . S
H1384 C1391 0.950 . S
C1385 C1383 1.387 . S
C1385 C1387 1.390 . S
C1385 H1389 0.950 . S
H1386 C1382 0.950 . S
C1387 C1385 1.390 . S
C1387 C1388 1.387 . S
C1387 H1390 0.950 . S
C1388 C1387 1.387 . S
C1388 C1391 1.387 . S
H1389 C1385 0.950 . S
H1390 C1387 0.950 . S
C1391 C1382 1.390 . S
C1391 H1384 0.950 . S
C1391 C1388 1.387 . S
C1392 C1393 1.387 . S
C1392 H1396 0.950 . S
C1392 C1401 1.390 . S
C1393 C1392 1.387 . S
C1393 C1395 1.387 . S
H1394 C1401 0.950 . S
C1395 C1393 1.387 . S
C1395 C1397 1.390 . S
C1395 H1399 0.950 . S
H1396 C1392 0.950 . S
C1397 C1395 1.390 . S
C1397 C1398 1.387 . S
C1397 H1400 0.950 . S
C1398 C1397 1.387 . S
C1398 C1401 1.387 . S
H1399 C1395 0.950 . S
H1400 C1397 0.950 . S
C1401 C1392 1.390 . S
C1401 H1394 0.950 . S
C1401 C1398 1.387 . S
C1402 C1403 1.387 . S
C1402 H1406 0.950 . S
C1402 C1411 1.390 . S
C1403 C1402 1.387 . S
C1403 C1405 1.387 . S
H1404 C1411 0.950 . S
C1405 C1403 1.387 . S
C1405 C1407 1.390 . S
C1405 H1409 0.950 . S
H1406 C1402 0.950 . S
C1407 C1405 1.390 . S
C1407 C1408 1.387 . S
C1407 H1410 0.950 . S
C1408 C1407 1.387 . S
C1408 C1411 1.387 . S
H1409 C1405 0.950 . S
H1410 C1407 0.950 . S
C1411 C1402 1.390 . S
C1411 H1404 0.950 . S
C1411 C1408 1.387 . S
C1412 C1413 1.387 . S
C1412 H1416 0.950 . S
C1412 C1421 1.390 . S
C1413 C1412 1.387 . S
C1413 C1415 1.387 . S
H1414 C1421 0.950 . S
C1415 C1413 1.387 . S
C1415 C1417 1.390 . S
C1415 H1419 0.950 . S
H1416 C1412 0.950 . S
C1417 C1415 1.390 . S
C1417 C1418 1.387 . S
C1417 H1420 0.950 . S
C1418 C1417 1.387 . S
C1418 C1421 1.387 . S
H1419 C1415 0.950 . S
H1420 C1417 0.950 . S
C1421 C1412 1.390 . S
C1421 H1414 0.950 . S
C1421 C1418 1.387 . S
C1422 C1423 1.387 . S
C1422 H1426 0.950 . S
C1422 C1431 1.390 . S
C1423 C1422 1.387 . S
C1423 C1425 1.387 . S
H1424 C1431 0.950 . S
C1425 C1423 1.387 . S
C1425 C1427 1.390 . S
C1425 H1429 0.950 . S
H1426 C1422 0.950 . S
C1427 C1425 1.390 . S
C1427 C1428 1.387 . S
C1427 H1430 0.950 . S
C1428 C1427 1.387 . S
C1428 C1431 1.387 . S
H1429 C1425 0.950 . S
H1430 C1427 0.950 . S
C1431 C1422 1.390 . S
C1431 H1424 0.950 . S
C1431 C1428 1.387 . S
C1432 C1433 1.387 . S
C1432 H1436 0.950 . S
C1432 C1441 1.390 . S
C1433 C1432 1.387 . S
C1433 C1435 1.387 . S
H1434 C1441 0.950 . S
C1435 C1433 1.387 . S
C1435 C1437 1.390 . S
C1435 H1439 0.950 . S
H1436 C1432 0.950 . S
C1437 C1435 1.390 . S
C1437 C1438 1.387 . S
C1437 H1440 0.950 . S
C1438 C1437 1.387 . S
C1438 C1441 1.387 . S
H1439 C1435 0.950 . S
H1440 C1437 0.950 . S
C1441 C1432 1.390 . S
C1441 H1434 0.950 . S
C1441 C1438 1.387 . S
C1442 C1443 1.387 . S
C1442 H1446 0.950 . S
C1442 C1451 1.390 . S
C1443 C1442 1.387 . S
C1443 C1445 1.387 . S
H1444 C1451 0.950 . S
C1445 C1443 1.387 . S
C1445 C1447 1.390 . S
C1445 H1449 0.950 . S
H1446 C1442 0.950 . S
C1447 C1445 1.390 . S
C1447 C1448 1.387 . S
C1447 H1450 0.950 . S
C1448 C1447 1.387 . S
C1448 C1451 1.387 . S
H1449 C1445 0.950 . S
H1450 C1447 0.950 . S
C1451 C1442 1.390 . S
C1451 H1444 0.950 . S
C1451 C1448 1.387 . S
C1452 C1453 1.387 . S
C1452 H1456 0.947 1_554 S
C1452 C1461 1.390 . S
C1453 C1452 1.387 . S
C1453 C1455 1.387 . S
H1454 C1461 0.950 . S
C1455 C1453 1.387 . S
C1455 C1457 1.390 . S
C1455 H1459 0.950 . S
H1456 C1452 0.947 1_556 S
C1457 C1455 1.390 . S
C1457 C1458 1.387 . S
C1457 H1460 0.950 . S
C1458 C1457 1.387 . S
C1458 C1461 1.387 . S
H1459 C1455 0.950 . S
H1460 C1457 0.950 . S
C1461 C1452 1.390 . S
C1461 H1454 0.950 . S
C1461 C1458 1.387 . S
C1462 C1463 1.387 . S
C1462 H1466 0.950 . S
C1462 C1471 1.390 . S
C1463 C1462 1.387 . S
C1463 C1465 1.387 . S
H1464 C1471 0.950 . S
C1465 C1463 1.387 . S
C1465 C1467 1.390 . S
C1465 H1469 0.950 1_655 S
H1466 C1462 0.950 . S
C1467 C1465 1.390 . S
C1467 C1468 1.387 . S
C1467 H1470 0.950 . S
C1468 C1467 1.387 . S
C1468 C1471 1.387 . S
H1469 C1465 0.950 1_455 S
H1470 C1467 0.950 . S
C1471 C1462 1.390 . S
C1471 H1464 0.950 . S
C1471 C1468 1.387 . S
C1472 C1473 1.387 . S
C1472 H1476 0.950 . S
C1472 C1481 1.390 . S
C1473 C1472 1.387 . S
C1473 C1475 1.387 . S
H1474 C1481 0.950 . S
C1475 C1473 1.387 . S
C1475 C1477 1.390 . S
C1475 H1479 0.950 . S
H1476 C1472 0.950 . S
C1477 C1475 1.390 . S
C1477 C1478 1.387 . S
C1477 H1480 0.950 . S
C1478 C1477 1.387 . S
C1478 C1481 1.387 . S
H1479 C1475 0.950 . S
H1480 C1477 0.950 . S
C1481 C1472 1.390 . S
C1481 H1474 0.950 . S
C1481 C1478 1.387 . S
C1482 C1483 1.387 . S
C1482 H1486 0.950 . S
C1482 C1491 1.390 . S
C1483 C1482 1.387 . S
C1483 C1485 1.387 . S
H1484 C1491 0.950 . S
C1485 C1483 1.387 . S
C1485 C1487 1.390 . S
C1485 H1489 0.950 . S
H1486 C1482 0.950 . S
C1487 C1485 1.390 . S
C1487 C1488 1.387 . S
C1487 H1490 0.950 . S
C1488 C1487 1.387 . S
C1488 C1491 1.387 . S
H1489 C1485 0.950 . S
H1490 C1487 0.950 . S
C1491 C1482 1.390 . S
C1491 H1484 0.950 . S
C1491 C1488 1.387 . S
C1492 C1493 1.387 . S
C1492 H1496 0.950 . S
C1492 C1501 1.390 . S
C1493 C1492 1.387 . S
C1493 C1495 1.387 . S
H1494 C1501 0.950 . S
C1495 C1493 1.387 . S
C1495 C1497 1.390 . S
C1495 H1499 0.950 . S
H1496 C1492 0.950 . S
C1497 C1495 1.390 . S
C1497 C1498 1.387 . S
C1497 H1500 0.950 . S
C1498 C1497 1.387 . S
C1498 C1501 1.387 . S
H1499 C1495 0.950 . S
H1500 C1497 0.950 . S
C1501 C1492 1.390 . S
C1501 H1494 0.950 . S
C1501 C1498 1.387 . S
C1502 C1503 1.387 . S
C1502 H1506 0.950 . S
C1502 C1511 1.390 . S
C1503 C1502 1.387 . S
C1503 C1505 1.387 . S
H1504 C1511 0.950 . S
C1505 C1503 1.387 . S
C1505 C1507 1.390 . S
C1505 H1509 0.950 . S
H1506 C1502 0.950 . S
C1507 C1505 1.390 . S
C1507 C1508 1.387 . S
C1507 H1510 0.950 . S
C1508 C1507 1.387 . S
C1508 C1511 1.387 . S
H1509 C1505 0.950 . S
H1510 C1507 0.950 . S
C1511 C1502 1.390 . S
C1511 H1504 0.950 . S
C1511 C1508 1.387 . S
C1512 C1513 1.387 . S
C1512 H1516 0.950 . S
C1512 C1521 1.390 . S
C1513 C1512 1.387 . S
C1513 C1515 1.387 . S
H1514 C1521 0.950 . S
C1515 C1513 1.387 . S
C1515 C1517 1.390 . S
C1515 H1519 0.950 . S
H1516 C1512 0.950 . S
C1517 C1515 1.390 . S
C1517 C1518 1.387 . S
C1517 H1520 0.950 . S
C1518 C1517 1.387 . S
C1518 C1521 1.387 . S
H1519 C1515 0.950 . S
H1520 C1517 0.950 . S
C1521 C1512 1.390 . S
C1521 H1514 0.950 . S
C1521 C1518 1.387 . S
C1522 C1523 1.387 . S
C1522 H1526 0.950 . S
C1522 C1531 1.390 . S
C1523 C1522 1.387 . S
C1523 C1525 1.387 . S
H1524 C1531 0.950 . S
C1525 C1523 1.387 . S
C1525 C1527 1.390 . S
C1525 H1529 0.950 . S
H1526 C1522 0.950 . S
C1527 C1525 1.390 . S
C1527 C1528 1.387 . S
C1527 H1530 0.950 . S
C1528 C1527 1.387 . S
C1528 C1531 1.387 . S
H1529 C1525 0.950 . S
H1530 C1527 0.950 . S
C1531 C1522 1.390 . S
C1531 H1524 0.950 . S
C1531 C1528 1.387 . S
C1532 C1533 1.387 . S
C1532 H1536 0.950 . S
C1532 C1541 1.390 . S
C1533 C1532 1.387 . S
C1533 C1535 1.387 . S
H1534 C1541 0.950 . S
C1535 C1533 1.387 . S
C1535 C1537 1.390 . S
C1535 H1539 0.950 . S
H1536 C1532 0.950 . S
C1537 C1535 1.390 . S
C1537 C1538 1.387 . S
C1537 H1540 0.950 . S
C1538 C1537 1.387 . S
C1538 C1541 1.387 . S
H1539 C1535 0.950 . S
H1540 C1537 0.950 . S
C1541 C1532 1.390 . S
C1541 H1534 0.950 . S
C1541 C1538 1.387 . S
C1542 C1543 1.387 . S
C1542 H1546 0.950 . S
C1542 C1551 1.390 . S
C1543 C1542 1.387 . S
C1543 C1545 1.387 . S
H1544 C1551 0.950 . S
C1545 C1543 1.387 . S
C1545 C1547 1.390 . S
C1545 H1549 0.950 . S
H1546 C1542 0.950 . S
C1547 C1545 1.390 . S
C1547 C1548 1.387 . S
C1547 H1550 0.950 . S
C1548 C1547 1.387 . S
C1548 C1551 1.387 . S
H1549 C1545 0.950 . S
H1550 C1547 0.950 . S
C1551 C1542 1.390 . S
C1551 H1544 0.950 . S
C1551 C1548 1.387 . S
C1552 C1553 1.387 . S
C1552 H1556 0.950 . S
C1552 C1561 1.390 . S
C1553 C1552 1.387 . S
C1553 C1555 1.387 . S
H1554 C1561 0.950 . S
C1555 C1553 1.387 . S
C1555 C1557 1.390 . S
C1555 H1559 0.950 . S
H1556 C1552 0.950 . S
C1557 C1555 1.390 . S
C1557 C1558 1.387 . S
C1557 H1560 0.950 . S
C1558 C1557 1.387 . S
C1558 C1561 1.387 . S
H1559 C1555 0.950 . S
H1560 C1557 0.950 . S
C1561 C1552 1.390 . S
C1561 H1554 0.950 . S
C1561 C1558 1.387 . S
C1562 C1563 1.387 . S
C1562 H1566 0.950 . S
C1562 C1571 1.390 . S
C1563 C1562 1.387 . S
C1563 C1565 1.387 . S
H1564 C1571 0.950 . S
C1565 C1563 1.387 . S
C1565 C1567 1.390 . S
C1565 H1569 0.950 . S
H1566 C1562 0.950 . S
C1567 C1565 1.390 . S
C1567 C1568 1.387 . S
C1567 H1570 0.950 . S
C1568 C1567 1.387 . S
C1568 C1571 1.387 . S
H1569 C1565 0.950 . S
H1570 C1567 0.950 . S
C1571 C1562 1.390 . S
C1571 H1564 0.950 . S
C1571 C1568 1.387 . S
C1572 C1573 1.387 . S
C1572 H1576 0.950 . S
C1572 C1581 1.390 . S
C1573 C1572 1.387 . S
C1573 C1575 1.387 . S
H1574 C1581 0.950 . S
C1575 C1573 1.387 . S
C1575 C1577 1.390 . S
C1575 H1579 0.950 . S
H1576 C1572 0.950 . S
C1577 C1575 1.390 . S
C1577 C1578 1.387 . S
C1577 H1580 0.950 . S
C1578 C1577 1.387 . S
C1578 C1581 1.387 . S
H1579 C1575 0.950 . S
H1580 C1577 0.950 . S
C1581 C1572 1.390 . S
C1581 H1574 0.950 . S
C1581 C1578 1.387 . S
C1582 C1583 1.387 . S
C1582 H1586 0.950 . S
C1582 C1591 1.390 . S
C1583 C1582 1.387 . S
C1583 C1585 1.387 . S
H1584 C1591 0.950 . S
C1585 C1583 1.387 . S
C1585 C1587 1.390 . S
C1585 H1589 0.950 . S
H1586 C1582 0.950 . S
C1587 C1585 1.390 . S
C1587 C1588 1.387 . S
C1587 H1590 0.950 . S
C1588 C1587 1.387 . S
C1588 C1591 1.387 . S
H1589 C1585 0.950 . S
H1590 C1587 0.950 . S
C1591 C1582 1.390 . S
C1591 H1584 0.950 . S
C1591 C1588 1.387 . S
C1592 C1593 1.387 . S
C1592 H1596 0.950 . S
C1592 C1601 1.390 . S
C1593 C1592 1.387 . S
C1593 C1595 1.387 . S
H1594 C1601 0.950 . S
C1595 C1593 1.387 . S
C1595 C1597 1.390 . S
C1595 H1599 0.950 . S
H1596 C1592 0.950 . S
C1597 C1595 1.390 . S
C1597 C1598 1.387 . S
C1597 H1600 0.950 . S
C1598 C1597 1.387 . S
C1598 C1601 1.387 . S
H1599 C1595 0.950 . S
H1600 C1597 0.950 . S
C1601 C1592 1.390 . S
C1601 H1594 0.950 . S
C1601 C1598 1.387 . S
C1602 C1603 1.387 . S
C1602 H1606 0.950 . S
C1602 C1611 1.390 . S
C1603 C1602 1.387 . S
C1603 C1605 1.387 . S
H1604 C1611 0.950 . S
C1605 C1603 1.387 . S
C1605 C1607 1.390 . S
C1605 H1609 0.950 . S
H1606 C1602 0.950 . S
C1607 C1605 1.390 . S
C1607 C1608 1.387 . S
C1607 H1610 0.950 . S
C1608 C1607 1.387 . S
C1608 C1611 1.387 . S
H1609 C1605 0.950 . S
H1610 C1607 0.950 . S
C1611 C1602 1.390 . S
C1611 H1604 0.950 . S
C1611 C1608 1.387 . S
C1612 C1613 1.387 1_565 S
C1612 H1616 0.950 . S
C1612 C1621 1.390 . S
C1613 C1612 1.387 1_545 S
C1613 C1615 1.387 . S
H1614 C1621 0.950 . S
C1615 C1613 1.387 . S
C1615 C1617 1.390 1_545 S
C1615 H1619 0.950 . S
H1616 C1612 0.950 . S
C1617 C1615 1.390 1_565 S
C1617 C1618 1.387 . S
C1617 H1620 0.950 . S
C1618 C1617 1.387 . S
C1618 C1621 1.387 . S
H1619 C1615 0.950 . S
H1620 C1617 0.950 . S
C1621 C1612 1.390 . S
C1621 H1614 0.950 . S
C1621 C1618 1.387 . S
C1622 C1623 1.387 . S
C1622 H1626 0.950 . S
C1622 C1631 1.390 . S
C1623 C1622 1.387 . S
C1623 C1625 1.387 1_554 S
H1624 C1631 0.950 . S
C1625 C1623 1.387 1_556 S
C1625 C1627 1.390 1_556 S
C1625 H1629 0.950 . S
H1626 C1622 0.950 . S
C1627 C1625 1.390 1_554 S
C1627 C1628 1.387 . S
C1627 H1630 0.950 1_554 S
C1628 C1627 1.387 . S
C1628 C1631 1.387 . S
H1629 C1625 0.950 . S
H1630 C1627 0.950 1_556 S
C1631 C1622 1.390 . S
C1631 H1624 0.950 . S
C1631 C1628 1.387 . S
C1632 C1633 1.387 . S
C1632 H1636 0.950 . S
C1632 C1641 1.390 . S
C1633 C1632 1.387 . S
C1633 C1635 1.387 . S
H1634 C1641 0.950 . S
C1635 C1633 1.387 . S
C1635 C1637 1.390 . S
C1635 H1639 0.950 . S
H1636 C1632 0.950 . S
C1637 C1635 1.390 . S
C1637 C1638 1.387 . S
C1637 H1640 0.950 . S
C1638 C1637 1.387 . S
C1638 C1641 1.387 . S
H1639 C1635 0.950 . S
H1640 C1637 0.950 . S
C1641 C1632 1.390 . S
C1641 H1634 0.950 . S
C1641 C1638 1.387 . S
C1642 C1643 1.387 . S
C1642 H1646 0.950 . S
C1642 C1651 1.390 . S
C1643 C1642 1.387 . S
C1643 C1645 1.387 . S
H1644 C1651 0.950 . S
C1645 C1643 1.387 . S
C1645 C1647 1.390 . S
C1645 H1649 0.950 . S
H1646 C1642 0.950 . S
C1647 C1645 1.390 . S
C1647 C1648 1.387 . S
C1647 H1650 0.950 . S
C1648 C1647 1.387 . S
C1648 C1651 1.387 . S
H1649 C1645 0.950 . S
H1650 C1647 0.950 . S
C1651 C1642 1.390 . S
C1651 H1644 0.950 . S
C1651 C1648 1.387 . S
C1652 C1653 1.387 . S
C1652 H1656 0.950 . S
C1652 C1661 1.390 . S
C1653 C1652 1.387 . S
C1653 C1655 1.387 . S
H1654 C1661 0.950 . S
C1655 C1653 1.387 . S
C1655 C1657 1.390 . S
C1655 H1659 0.950 . S
H1656 C1652 0.950 . S
C1657 C1655 1.390 . S
C1657 C1658 1.387 . S
C1657 H1660 0.950 . S
C1658 C1657 1.387 . S
C1658 C1661 1.387 . S
H1659 C1655 0.950 . S
H1660 C1657 0.950 . S
C1661 C1652 1.390 . S
C1661 H1654 0.950 . S
C1661 C1658 1.387 . S
C1662 C1663 1.387 . S
C1662 H1666 0.950 . S
C1662 C1671 1.390 . S
C1663 C1662 1.387 . S
C1663 C1665 1.387 . S
H1664 C1671 0.950 . S
C1665 C1663 1.387 . S
C1665 C1667 1.390 . S
C1665 H1669 0.950 . S
H1666 C1662 0.950 . S
C1667 C1665 1.390 . S
C1667 C1668 1.387 . S
C1667 H1670 0.950 . S
C1668 C1667 1.387 . S
C1668 C1671 1.387 . S
H1669 C1665 0.950 . S
H1670 C1667 0.950 . S
C1671 C1662 1.390 . S
C1671 H1664 0.950 . S
C1671 C1668 1.387 . S
C1672 C1673 1.387 . S
C1672 H1676 0.950 . S
C1672 C1681 1.390 . S
C1673 C1672 1.387 . S
C1673 C1675 1.387 . S
H1674 C1681 0.950 . S
C1675 C1673 1.387 . S
C1675 C1677 1.390 . S
C1675 H1679 0.950 . S
H1676 C1672 0.950 . S
C1677 C1675 1.390 . S
C1677 C1678 1.387 . S
C1677 H1680 0.950 . S
C1678 C1677 1.387 . S
C1678 C1681 1.387 . S
H1679 C1675 0.950 . S
H1680 C1677 0.950 . S
C1681 C1672 1.390 . S
C1681 H1674 0.950 . S
C1681 C1678 1.387 . S
C1682 C1683 1.387 . S
C1682 H1686 0.950 . S
C1682 C1691 1.390 . S
C1683 C1682 1.387 . S
C1683 C1685 1.387 . S
H1684 C1691 0.950 . S
C1685 C1683 1.387 . S
C1685 C1687 1.390 . S
C1685 H1689 0.950 . S
H1686 C1682 0.950 . S
C1687 C1685 1.390 . S
C1687 C1688 1.387 . S
C1687 H1690 0.950 . S
C1688 C1687 1.387 . S
C1688 C1691 1.387 . S
H1689 C1685 0.950 . S
H1690 C1687 0.950 . S
C1691 C1682 1.390 . S
C1691 H1684 0.950 . S
C1691 C1688 1.387 . S
C1692 C1693 1.387 . S
C1692 H1696 0.950 . S
C1692 C1701 1.390 . S
C1693 C1692 1.387 . S
C1693 C1695 1.387 . S
H1694 C1701 0.950 . S
C1695 C1693 1.387 . S
C1695 C1697 1.390 . S
C1695 H1699 0.950 . S
H1696 C1692 0.950 . S
C1697 C1695 1.390 . S
C1697 C1698 1.387 . S
C1697 H1700 0.950 . S
C1698 C1697 1.387 . S
C1698 C1701 1.387 . S
H1699 C1695 0.950 . S
H1700 C1697 0.950 . S
C1701 C1692 1.390 . S
C1701 H1694 0.950 . S
C1701 C1698 1.387 . S
C1702 C1703 1.387 . S
C1702 H1706 0.950 . S
C1702 C1711 1.390 . S
C1703 C1702 1.387 . S
C1703 C1705 1.387 . S
H1704 C1711 0.950 . S
C1705 C1703 1.387 . S
C1705 C1707 1.390 . S
C1705 H1709 0.950 . S
H1706 C1702 0.950 . S
C1707 C1705 1.390 . S
C1707 C1708 1.387 . S
C1707 H1710 0.950 . S
C1708 C1707 1.387 . S
C1708 C1711 1.387 . S
H1709 C1705 0.950 . S
H1710 C1707 0.950 . S
C1711 C1702 1.390 . S
C1711 H1704 0.950 . S
C1711 C1708 1.387 . S
C1712 C1713 1.387 . S
C1712 H1716 0.950 . S
C1712 C1721 1.390 . S
C1713 C1712 1.387 . S
C1713 C1715 1.387 . S
H1714 C1721 0.950 . S
C1715 C1713 1.387 . S
C1715 C1717 1.390 . S
C1715 H1719 0.950 . S
H1716 C1712 0.950 . S
C1717 C1715 1.390 . S
C1717 C1718 1.387 . S
C1717 H1720 0.950 . S
C1718 C1717 1.387 . S
C1718 C1721 1.387 . S
H1719 C1715 0.950 . S
H1720 C1717 0.950 . S
C1721 C1712 1.390 . S
C1721 H1714 0.950 . S
C1721 C1718 1.387 . S
C1722 C1723 1.387 . S
C1722 H1726 0.950 . S
C1722 C1731 1.390 . S
C1723 C1722 1.387 . S
C1723 C1725 1.387 . S
H1724 C1731 0.950 . S
C1725 C1723 1.387 . S
C1725 C1727 1.390 . S
C1725 H1729 0.950 . S
H1726 C1722 0.950 . S
C1727 C1725 1.390 . S
C1727 C1728 1.387 . S
C1727 H1730 0.950 . S
C1728 C1727 1.387 . S
C1728 C1731 1.387 . S
H1729 C1725 0.950 . S
H1730 C1727 0.950 . S
C1731 C1722 1.390 . S
C1731 H1724 0.950 . S
C1731 C1728 1.387 . S
C1732 C1733 1.387 . S
C1732 H1736 0.950 1_455 S
C1732 C1741 1.390 . S
C1733 C1732 1.387 . S
C1733 C1735 1.387 . S
H1734 C1741 0.950 1_655 S
C1735 C1733 1.387 . S
C1735 C1737 1.390 . S
C1735 H1739 0.950 . S
H1736 C1732 0.950 1_655 S
C1737 C1735 1.390 . S
C1737 C1738 1.387 . S
C1737 H1740 0.950 . S
C1738 C1737 1.387 . S
C1738 C1741 1.387 . S
H1739 C1735 0.950 . S
H1740 C1737 0.950 . S
C1741 C1732 1.390 . S
C1741 H1734 0.950 1_455 S
C1741 C1738 1.387 . S
C1742 C1743 1.387 . S
C1742 H1746 0.950 . S
C1742 C1751 1.390 . S
C1743 C1742 1.387 . S
C1743 C1745 1.387 . S
H1744 C1751 0.950 . S
C1745 C1743 1.387 . S
C1745 C1747 1.390 . S
C1745 H1749 0.950 . S
H1746 C1742 0.950 . S
C1747 C1745 1.390 . S
C1747 C1748 1.387 . S
C1747 H1750 0.950 . S
C1748 C1747 1.387 . S
C1748 C1751 1.387 . S
H1749 C1745 0.950 . S
H1750 C1747 0.950 . S
C1751 C1742 1.390 . S
C1751 H1744 0.950 . S
C1751 C1748 1.387 . S
C1752 C1753 1.387 . S
C1752 H1756 0.950 . S
C1752 C1761 1.390 . S
C1753 C1752 1.387 . S
C1753 C1755 1.387 . S
H1754 C1761 0.950 . S
C1755 C1753 1.387 . S
C1755 C1757 1.390 . S
C1755 H1759 0.950 . S
H1756 C1752 0.950 . S
C1757 C1755 1.390 . S
C1757 C1758 1.387 . S
C1757 H1760 0.950 . S
C1758 C1757 1.387 . S
C1758 C1761 1.387 . S
H1759 C1755 0.950 . S
H1760 C1757 0.950 . S
C1761 C1752 1.390 . S
C1761 H1754 0.950 . S
C1761 C1758 1.387 . S
C1762 C1763 1.387 . S
C1762 H1766 0.950 . S
C1762 C1771 1.390 . S
C1763 C1762 1.387 . S
C1763 C1765 1.387 . S
H1764 C1771 0.950 . S
C1765 C1763 1.387 . S
C1765 C1767 1.390 . S
C1765 H1769 0.950 . S
H1766 C1762 0.950 . S
C1767 C1765 1.390 . S
C1767 C1768 1.387 . S
C1767 H1770 0.950 . S
C1768 C1767 1.387 . S
C1768 C1771 1.387 . S
H1769 C1765 0.950 . S
H1770 C1767 0.950 . S
C1771 C1762 1.390 . S
C1771 H1764 0.950 . S
C1771 C1768 1.387 . S
C1772 C1773 1.387 . S
C1772 H1776 0.950 . S
C1772 C1781 1.390 . S
C1773 C1772 1.387 . S
C1773 C1775 1.387 . S
H1774 C1781 0.950 . S
C1775 C1773 1.387 . S
C1775 C1777 1.390 1_655 S
C1775 H1779 0.943 1_655 S
H1776 C1772 0.950 . S
C1777 C1775 1.390 1_455 S
C1777 C1778 1.390 . S
C1777 H1780 0.950 . S
C1778 C1777 1.390 . S
C1778 C1781 1.382 1_455 S
H1779 C1775 0.943 1_455 S
H1780 C1777 0.950 . S
C1781 C1772 1.390 . S
C1781 H1774 0.950 . S
C1781 C1778 1.382 1_655 S
C1782 C1783 1.387 . S
C1782 H1786 0.950 . S
C1782 C1791 1.390 . S
C1783 C1782 1.387 . S
C1783 C1785 1.387 . S
H1784 C1791 0.950 . S
C1785 C1783 1.387 . S
C1785 C1787 1.390 . S
C1785 H1789 0.950 . S
H1786 C1782 0.950 . S
C1787 C1785 1.390 . S
C1787 C1788 1.387 . S
C1787 H1790 0.950 . S
C1788 C1787 1.387 . S
C1788 C1791 1.387 . S
H1789 C1785 0.950 . S
H1790 C1787 0.950 . S
C1791 C1782 1.390 . S
C1791 H1784 0.950 . S
C1791 C1788 1.387 . S
C1792 C1793 1.387 . S
C1792 H1796 0.950 . S
C1792 C1801 1.390 . S
C1793 C1792 1.387 . S
C1793 C1795 1.387 . S
H1794 C1801 0.950 . S
C1795 C1793 1.387 . S
C1795 C1797 1.390 . S
C1795 H1799 0.950 . S
H1796 C1792 0.950 . S
C1797 C1795 1.390 . S
C1797 C1798 1.387 . S
C1797 H1800 0.950 . S
C1798 C1797 1.387 . S
C1798 C1801 1.387 . S
H1799 C1795 0.950 . S
H1800 C1797 0.950 . S
C1801 C1792 1.390 . S
C1801 H1794 0.950 . S
C1801 C1798 1.387 . S
C1802 C1803 1.387 . S
C1802 H1806 0.950 . S
C1802 C1811 1.390 . S
C1803 C1802 1.387 . S
C1803 C1805 1.387 . S
H1804 C1811 0.950 . S
C1805 C1803 1.387 . S
C1805 C1807 1.390 . S
C1805 H1809 0.950 . S
H1806 C1802 0.950 . S
C1807 C1805 1.390 . S
C1807 C1808 1.387 . S
C1807 H1810 0.950 . S
C1808 C1807 1.387 . S
C1808 C1811 1.387 . S
H1809 C1805 0.950 . S
H1810 C1807 0.950 . S
C1811 C1802 1.390 . S
C1811 H1804 0.950 . S
C1811 C1808 1.387 . S
C1812 C1813 1.387 . S
C1812 H1816 0.950 . S
C1812 C1821 1.390 . S
C1813 C1812 1.387 . S
C1813 C1815 1.387 . S
H1814 C1821 0.950 . S
C1815 C1813 1.387 . S
C1815 C1817 1.390 . S
C1815 H1819 0.950 . S
H1816 C1812 0.950 . S
C1817 C1815 1.390 . S
C1817 C1818 1.387 . S
C1817 H1820 0.950 . S
C1818 C1817 1.387 . S
C1818 C1821 1.387 . S
H1819 C1815 0.950 . S
H1820 C1817 0.950 . S
C1821 C1812 1.390 . S
C1821 H1814 0.950 . S
C1821 C1818 1.387 . S
C1822 C1823 1.387 . S
C1822 H1826 0.950 . S
C1822 C1831 1.390 . S
C1823 C1822 1.387 . S
C1823 C1825 1.387 . S
H1824 C1831 0.950 . S
C1825 C1823 1.387 . S
C1825 C1827 1.390 . S
C1825 H1829 0.950 . S
H1826 C1822 0.950 . S
C1827 C1825 1.390 . S
C1827 C1828 1.387 . S
C1827 H1830 0.950 . S
C1828 C1827 1.387 . S
C1828 C1831 1.387 . S
H1829 C1825 0.950 . S
H1830 C1827 0.950 . S
C1831 C1822 1.390 . S
C1831 H1824 0.950 . S
C1831 C1828 1.387 . S
C1832 C1833 1.387 . S
C1832 H1836 0.950 . S
C1832 C1841 1.390 . S
C1833 C1832 1.387 . S
C1833 C1835 1.387 . S
H1834 C1841 0.950 . S
C1835 C1833 1.387 . S
C1835 C1837 1.390 . S
C1835 H1839 0.950 . S
H1836 C1832 0.950 . S
C1837 C1835 1.390 . S
C1837 C1838 1.387 . S
C1837 H1840 0.950 . S
C1838 C1837 1.387 . S
C1838 C1841 1.387 . S
H1839 C1835 0.950 . S
H1840 C1837 0.950 . S
C1841 C1832 1.390 . S
C1841 H1834 0.950 . S
C1841 C1838 1.387 . S
C1842 C1843 1.387 . S
C1842 H1846 0.950 . S
C1842 C1851 1.390 1_565 S
C1843 C1842 1.387 . S
C1843 C1845 1.387 . S
H1844 C1851 0.950 . S
C1845 C1843 1.387 . S
C1845 C1847 1.390 . S
C1845 H1849 0.950 . S
H1846 C1842 0.950 . S
C1847 C1845 1.390 . S
C1847 C1848 1.387 . S
C1847 H1850 0.950 . S
C1848 C1847 1.387 . S
C1848 C1851 1.387 1_565 S
H1849 C1845 0.950 . S
H1850 C1847 0.950 . S
C1851 C1842 1.390 1_545 S
C1851 H1844 0.950 . S
C1851 C1848 1.387 1_545 S
C1852 C1853 1.387 . S
C1852 H1856 0.950 . S
C1852 C1861 1.390 . S
C1853 C1852 1.387 . S
C1853 C1855 1.387 . S
H1854 C1861 0.950 . S
C1855 C1853 1.387 . S
C1855 C1857 1.390 . S
C1855 H1859 0.950 . S
H1856 C1852 0.950 . S
C1857 C1855 1.390 . S
C1857 C1858 1.387 . S
C1857 H1860 0.950 . S
C1858 C1857 1.387 . S
C1858 C1861 1.387 . S
H1859 C1855 0.950 . S
H1860 C1857 0.950 . S
C1861 C1852 1.390 . S
C1861 H1854 0.950 . S
C1861 C1858 1.387 . S
C1862 C1863 1.387 . S
C1862 H1866 0.950 . S
C1862 C1871 1.390 . S
C1863 C1862 1.387 . S
C1863 C1865 1.387 . S
H1864 C1871 0.950 . S
C1865 C1863 1.387 . S
C1865 C1867 1.390 . S
C1865 H1869 0.950 . S
H1866 C1862 0.950 . S
C1867 C1865 1.390 . S
C1867 C1868 1.387 . S
C1867 H1870 0.950 . S
C1868 C1867 1.387 . S
C1868 C1871 1.387 . S
H1869 C1865 0.950 . S
H1870 C1867 0.950 . S
C1871 C1862 1.390 . S
C1871 H1864 0.950 . S
C1871 C1868 1.387 . S
C1872 C1873 1.387 . S
C1872 H1876 0.950 . S
C1872 C1881 1.390 . S
C1873 C1872 1.387 . S
C1873 C1875 1.387 . S
H1874 C1881 0.950 . S
C1875 C1873 1.387 . S
C1875 C1877 1.390 . S
C1875 H1879 0.950 . S
H1876 C1872 0.950 . S
C1877 C1875 1.390 . S
C1877 C1878 1.387 . S
C1877 H1880 0.950 . S
C1878 C1877 1.387 . S
C1878 C1881 1.387 . S
H1879 C1875 0.950 . S
H1880 C1877 0.950 . S
C1881 C1872 1.390 . S
C1881 H1874 0.950 . S
C1881 C1878 1.387 . S
C1882 C1883 1.387 . S
C1882 H1886 0.950 . S
C1882 C1891 1.390 . S
C1883 C1882 1.387 . S
C1883 C1885 1.387 . S
H1884 C1891 0.950 . S
C1885 C1883 1.387 . S
C1885 C1887 1.390 . S
C1885 H1889 0.950 . S
H1886 C1882 0.950 . S
C1887 C1885 1.390 . S
C1887 C1888 1.387 . S
C1887 H1890 0.950 . S
C1888 C1887 1.387 . S
C1888 C1891 1.387 . S
H1889 C1885 0.950 . S
H1890 C1887 0.950 . S
C1891 C1882 1.390 . S
C1891 H1884 0.950 . S
C1891 C1888 1.387 . S
C1892 C1893 1.387 . S
C1892 H1896 0.950 . S
C1892 C1901 1.390 . S
C1893 C1892 1.387 . S
C1893 C1895 1.387 . S
H1894 C1901 0.950 . S
C1895 C1893 1.387 . S
C1895 C1897 1.390 . S
C1895 H1899 0.950 . S
H1896 C1892 0.950 . S
C1897 C1895 1.390 . S
C1897 C1898 1.387 . S
C1897 H1900 0.950 . S
C1898 C1897 1.387 . S
C1898 C1901 1.387 . S
H1899 C1895 0.950 . S
H1900 C1897 0.950 . S
C1901 C1892 1.390 . S
C1901 H1894 0.950 . S
C1901 C1898 1.387 . S
C1902 C1903 1.387 . S
C1902 H1906 0.950 . S
C1902 C1911 1.390 . S
C1903 C1902 1.387 . S
C1903 C1905 1.387 . S
H1904 C1911 0.950 . S
C1905 C1903 1.387 . S
C1905 C1907 1.390 . S
C1905 H1909 0.950 . S
H1906 C1902 0.950 . S
C1907 C1905 1.390 . S
C1907 C1908 1.387 . S
C1907 H1910 0.950 . S
C1908 C1907 1.387 . S
C1908 C1911 1.387 . S
H1909 C1905 0.950 . S
H1910 C1907 0.950 . S
C1911 C1902 1.390 . S
C1911 H1904 0.950 . S
C1911 C1908 1.387 . S
C953 C101 2.413 . S
C958 C322 2.346 . S
C963 C57 2.002 . S
C968 C370 2.048 . S
C973 C73 1.542 . S
C978 C402 1.647 . S
C988 C447 1.668 . S
C983 C78 1.618 . S
C993 C21 1.009 . S
C998 C487 1.026 . S
C1008 C522 1.355 . S
C1003 C31 1.199 . S
C1018 C561 1.235 . S
C1013 C49 1.217 . S
C1023 C0 1.195 . S
C1028 C598 1.276 . S
C1038 C330 2.170 . S
C1033 C218 2.142 1_545 S
C1043 C229 0.816 . S
C1048 C367 0.925 . S
C1058 C410 2.319 . S
C1053 C257 2.339 . S
C1068 C442 1.272 . S
C1063 C164 1.198 . S
C1073 C216 1.441 . S
C1078 C482 1.493 . S
C1088 C530 0.735 . S
C1083 C231 0.737 . S
C1098 C571 2.142 . S
C1093 C255 2.184 . S
C1108 C601 2.067 . S
C1103 C166 2.067 . S
C1118 C327 1.949 . S
C1113 C143 1.841 . S
C1123 C265 2.095 . S
C1128 C650 2.131 . S
C1138 C687 1.201 . S
C1133 C299 1.148 . S
C1148 C718 1.027 . S
C1143 C291 1.111 . S
C1153 C104 2.658 . S
C1158 C611 2.637 . S
C1163 C117 1.379 . S
C1168 C407 1.438 . S
C1173 C304 1.666 . S
C1178 C770 1.710 . S
C1188 C802 1.918 . S
C1183 C278 1.873 . S
C1198 C331 2.354 . S
C1193 C60 2.468 . S
C1208 C801 1.956 . S
C1203 C96 1.961 . S
C1213 C88 1.558 . S
C1218 C411 1.560 . S
C1223 C65 1.754 . S
C1228 C758 1.628 . S
C1238 C478 0.968 . S
C1233 C10 0.981 . S
C1243 C44 1.102 . S
C1248 C691 1.216 . S
C1258 C570 1.257 . S
C1253 C34 1.246 . S
C1268 C847 1.248 . S
C1263 C13 1.285 . S
C1278 C321 2.151 1_556 S
C1273 C138 2.170 . S
C1288 C798 0.884 . S
C1283 C296 0.915 . S
C1293 C112 2.192 . S
C1298 C401 2.273 . S
C1303 C270 1.175 . S
C1308 C771 1.170 . S
C1313 C140 1.421 . S
C1318 C491 1.406 . S
C1328 C681 0.735 . S
C1323 C294 0.814 . S
C1333 C114 2.151 . S
C1338 C562 2.074 . S
C1343 C268 2.066 1_556 S
C1348 C850 2.067 . S
C1353 C169 2.280 . S
C1358 C318 2.034 . S
C1363 C161 2.063 . S
C1368 C641 2.055 . S
C1373 C234 1.271 . S
C1378 C518 1.216 . S
C1383 C226 1.202 . S
C1388 C727 1.077 . S
C1398 C842 2.596 . S
C1393 C247 2.604 . S
C1403 C195 1.444 . S
C1408 C398 1.396 . S
C1418 C441 1.671 . S
C1413 C239 1.684 . S
C1428 C371 1.848 . S
C1423 C187 1.765 . S
C1433 C75 2.413 . S
C1438 C882 2.345 . S
C1448 C810 2.049 . S
C1443 C83 2.002 . S
C1453 C99 1.542 . S
C1458 C922 1.648 . S
C1463 C52 1.618 1_655 S
C1468 C767 1.668 . S
C1473 C47 1.009 . S
C1478 C647 1.026 . S
C1488 C682 1.355 . S
C1483 C5 1.199 . S
C1498 C721 1.236 . S
C1493 C23 1.215 . S
C1508 C838 1.279 . S
C1503 C26 1.197 . S
C1518 C890 2.170 . S
C1513 C244 2.143 . S
C1523 C177 0.818 . S
C1528 C807 0.927 . S
C1538 C930 2.318 . S
C1533 C192 2.339 . S
C1548 C762 1.273 . S
C1543 C203 1.194 . S
C1558 C642 1.493 1_556 S
C1553 C242 1.440 . S
C1563 C179 0.746 . S
C1568 C690 0.742 . S
C1578 C731 2.141 . S
C1573 C190 2.184 . S
C1583 C205 2.067 . S
C1588 C841 2.067 . S
C1598 C887 1.948 . S
C1593 C286 1.840 . S
C1603 C122 2.094 . S
C1608 C490 2.130 . S
C1618 C527 1.201 . S
C1613 C130 1.149 . S
C1628 C558 1.020 . S
C1623 C148 1.108 . S
C1638 C851 2.637 . S
C1633 C273 2.658 . S
C1643 C260 1.378 . S
C1648 C927 1.437 . S
C1658 C450 1.709 . S
C1653 C135 1.664 . S
C1668 C362 1.917 . S
C1663 C109 1.873 . S
C1673 C86 2.469 . S
C1678 C891 2.355 . S
C1688 C361 1.954 . S
C1683 C70 1.960 . S
C1693 C62 1.559 . S
C1698 C931 1.559 . S
C1703 C91 1.754 . S
C1708 C438 1.631 . S
C1713 C36 0.981 . S
C1718 C638 0.969 . S
C1728 C531 1.215 . S
C1723 C18 1.102 . S
C1733 C8 1.247 . S
C1738 C730 1.258 . S
C1743 C39 1.286 . S
C1748 C607 1.248 . S
C1758 C881 2.150 . S
C1753 C307 2.170 . S
C1763 C153 0.923 . S
C1768 C358 0.893 . S
C1778 C921 2.278 1_556 S
C1773 C281 2.193 . S
C1783 C127 1.175 . S
C1788 C451 1.170 . S
C1793 C309 1.421 . S
C1798 C651 1.405 . S
C1808 C521 0.731 . S
C1803 C151 0.811 . S
C1813 C283 2.151 . S
C1818 C722 2.075 1_655 S
C1828 C610 2.068 . S
C1823 C125 2.066 . S
C1838 C878 2.033 . S
C1833 C221 2.280 . S
C1848 C481 2.055 1_565 S
C1843 C200 2.063 . S
C1853 C208 1.272 . S
C1858 C678 1.218 . S
C1868 C567 1.074 . S
C1863 C174 1.202 . S
C1873 C182 2.604 . S
C1878 C602 2.596 . S
C1883 C156 1.446 . S
C1888 C918 1.394 . S
C1898 C761 1.671 . S
C1893 C213 1.684 . S
C1908 C811 1.849 . S
C1903 C252 1.763 . S
