# Generated by pormake.
# Topology gar, (4,6)-cn, num edge types: 1
# Building blocks:
#     Node 0, Type 0, BuildingBlock: UXUYUI_clean_sbu_0, # of connection points: 4
#     Node 1, Type 0, BuildingBlock: UXUYUI_clean_sbu_0, # of connection points: 4
#     Node 2, Type 0, BuildingBlock: UXUYUI_clean_sbu_0, # of connection points: 4
#     Node 3, Type 0, BuildingBlock: UXUYUI_clean_sbu_0, # of connection points: 4
#     Node 4, Type 0, BuildingBlock: UXUYUI_clean_sbu_0, # of connection points: 4
#     Node 5, Type 0, BuildingBlock: UXUYUI_clean_sbu_0, # of connection points: 4
#     Node 6, Type 0, BuildingBlock: UXUYUI_clean_sbu_0, # of connection points: 4
#     Node 7, Type 0, BuildingBlock: UXUYUI_clean_sbu_0, # of connection points: 4
#     Node 8, Type 0, BuildingBlock: UXUYUI_clean_sbu_0, # of connection points: 4
#     Node 9, Type 0, BuildingBlock: UXUYUI_clean_sbu_0, # of connection points: 4
#     Node 10, Type 0, BuildingBlock: UXUYUI_clean_sbu_0, # of connection points: 4
#     Node 11, Type 0, BuildingBlock: UXUYUI_clean_sbu_0, # of connection points: 4
#     Node 12, Type 0, BuildingBlock: UXUYUI_clean_sbu_0, # of connection points: 4
#     Node 13, Type 0, BuildingBlock: UXUYUI_clean_sbu_0, # of connection points: 4
#     Node 14, Type 0, BuildingBlock: UXUYUI_clean_sbu_0, # of connection points: 4
#     Node 15, Type 0, BuildingBlock: UXUYUI_clean_sbu_0, # of connection points: 4
#     Node 16, Type 0, BuildingBlock: UXUYUI_clean_sbu_0, # of connection points: 4
#     Node 17, Type 0, BuildingBlock: UXUYUI_clean_sbu_0, # of connection points: 4
#     Node 18, Type 0, BuildingBlock: UXUYUI_clean_sbu_0, # of connection points: 4
#     Node 19, Type 0, BuildingBlock: UXUYUI_clean_sbu_0, # of connection points: 4
#     Node 20, Type 0, BuildingBlock: UXUYUI_clean_sbu_0, # of connection points: 4
#     Node 21, Type 0, BuildingBlock: UXUYUI_clean_sbu_0, # of connection points: 4
#     Node 22, Type 0, BuildingBlock: UXUYUI_clean_sbu_0, # of connection points: 4
#     Node 23, Type 0, BuildingBlock: UXUYUI_clean_sbu_0, # of connection points: 4
#     Node 24, Type 1, BuildingBlock: CUKXOW_clean_sbu_0, # of connection points: 6
#     Node 25, Type 1, BuildingBlock: CUKXOW_clean_sbu_0, # of connection points: 6
#     Node 26, Type 1, BuildingBlock: CUKXOW_clean_sbu_0, # of connection points: 6
#     Node 27, Type 1, BuildingBlock: CUKXOW_clean_sbu_0, # of connection points: 6
#     Node 28, Type 1, BuildingBlock: CUKXOW_clean_sbu_0, # of connection points: 6
#     Node 29, Type 1, BuildingBlock: CUKXOW_clean_sbu_0, # of connection points: 6
#     Node 30, Type 1, BuildingBlock: CUKXOW_clean_sbu_0, # of connection points: 6
#     Node 31, Type 1, BuildingBlock: CUKXOW_clean_sbu_0, # of connection points: 6
#     Node 32, Type 1, BuildingBlock: CUKXOW_clean_sbu_0, # of connection points: 6
#     Node 33, Type 1, BuildingBlock: CUKXOW_clean_sbu_0, # of connection points: 6
#     Node 34, Type 1, BuildingBlock: CUKXOW_clean_sbu_0, # of connection points: 6
#     Node 35, Type 1, BuildingBlock: CUKXOW_clean_sbu_0, # of connection points: 6
#     Node 36, Type 1, BuildingBlock: CUKXOW_clean_sbu_0, # of connection points: 6
#     Node 37, Type 1, BuildingBlock: CUKXOW_clean_sbu_0, # of connection points: 6
#     Node 38, Type 1, BuildingBlock: CUKXOW_clean_sbu_0, # of connection points: 6
#     Node 39, Type 1, BuildingBlock: CUKXOW_clean_sbu_0, # of connection points: 6
#     Edge 40, Type (0, 1), BuildingBlock: EZIPEK_clean_linker_0, # of connection points: 2
#     Edge 41, Type (0, 1), BuildingBlock: EZIPEK_clean_linker_0, # of connection points: 2
#     Edge 42, Type (0, 1), BuildingBlock: EZIPEK_clean_linker_0, # of connection points: 2
#     Edge 43, Type (0, 1), BuildingBlock: EZIPEK_clean_linker_0, # of connection points: 2
#     Edge 44, Type (0, 1), BuildingBlock: EZIPEK_clean_linker_0, # of connection points: 2
#     Edge 45, Type (0, 1), BuildingBlock: EZIPEK_clean_linker_0, # of connection points: 2
#     Edge 46, Type (0, 1), BuildingBlock: EZIPEK_clean_linker_0, # of connection points: 2
#     Edge 47, Type (0, 1), BuildingBlock: EZIPEK_clean_linker_0, # of connection points: 2
#     Edge 48, Type (0, 1), BuildingBlock: EZIPEK_clean_linker_0, # of connection points: 2
#     Edge 49, Type (0, 1), BuildingBlock: EZIPEK_clean_linker_0, # of connection points: 2
#     Edge 50, Type (0, 1), BuildingBlock: EZIPEK_clean_linker_0, # of connection points: 2
#     Edge 51, Type (0, 1), BuildingBlock: EZIPEK_clean_linker_0, # of connection points: 2
#     Edge 52, Type (0, 1), BuildingBlock: EZIPEK_clean_linker_0, # of connection points: 2
#     Edge 53, Type (0, 1), BuildingBlock: EZIPEK_clean_linker_0, # of connection points: 2
#     Edge 54, Type (0, 1), BuildingBlock: EZIPEK_clean_linker_0, # of connection points: 2
#     Edge 55, Type (0, 1), BuildingBlock: EZIPEK_clean_linker_0, # of connection points: 2
#     Edge 56, Type (0, 1), BuildingBlock: EZIPEK_clean_linker_0, # of connection points: 2
#     Edge 57, Type (0, 1), BuildingBlock: EZIPEK_clean_linker_0, # of connection points: 2
#     Edge 58, Type (0, 1), BuildingBlock: EZIPEK_clean_linker_0, # of connection points: 2
#     Edge 59, Type (0, 1), BuildingBlock: EZIPEK_clean_linker_0, # of connection points: 2
#     Edge 60, Type (0, 1), BuildingBlock: EZIPEK_clean_linker_0, # of connection points: 2
#     Edge 61, Type (0, 1), BuildingBlock: EZIPEK_clean_linker_0, # of connection points: 2
#     Edge 62, Type (0, 1), BuildingBlock: EZIPEK_clean_linker_0, # of connection points: 2
#     Edge 63, Type (0, 1), BuildingBlock: EZIPEK_clean_linker_0, # of connection points: 2
#     Edge 64, Type (0, 1), BuildingBlock: EZIPEK_clean_linker_0, # of connection points: 2
#     Edge 65, Type (0, 1), BuildingBlock: EZIPEK_clean_linker_0, # of connection points: 2
#     Edge 66, Type (0, 1), BuildingBlock: EZIPEK_clean_linker_0, # of connection points: 2
#     Edge 67, Type (0, 1), BuildingBlock: EZIPEK_clean_linker_0, # of connection points: 2
#     Edge 68, Type (0, 1), BuildingBlock: EZIPEK_clean_linker_0, # of connection points: 2
#     Edge 69, Type (0, 1), BuildingBlock: EZIPEK_clean_linker_0, # of connection points: 2
#     Edge 70, Type (0, 1), BuildingBlock: EZIPEK_clean_linker_0, # of connection points: 2
#     Edge 71, Type (0, 1), BuildingBlock: EZIPEK_clean_linker_0, # of connection points: 2
#     Edge 72, Type (0, 1), BuildingBlock: EZIPEK_clean_linker_0, # of connection points: 2
#     Edge 73, Type (0, 1), BuildingBlock: EZIPEK_clean_linker_0, # of connection points: 2
#     Edge 74, Type (0, 1), BuildingBlock: EZIPEK_clean_linker_0, # of connection points: 2
#     Edge 75, Type (0, 1), BuildingBlock: EZIPEK_clean_linker_0, # of connection points: 2
#     Edge 76, Type (0, 1), BuildingBlock: EZIPEK_clean_linker_0, # of connection points: 2
#     Edge 77, Type (0, 1), BuildingBlock: EZIPEK_clean_linker_0, # of connection points: 2
#     Edge 78, Type (0, 1), BuildingBlock: EZIPEK_clean_linker_0, # of connection points: 2
#     Edge 79, Type (0, 1), BuildingBlock: EZIPEK_clean_linker_0, # of connection points: 2
#     Edge 80, Type (0, 1), BuildingBlock: EZIPEK_clean_linker_0, # of connection points: 2
#     Edge 81, Type (0, 1), BuildingBlock: EZIPEK_clean_linker_0, # of connection points: 2
#     Edge 82, Type (0, 1), BuildingBlock: EZIPEK_clean_linker_0, # of connection points: 2
#     Edge 83, Type (0, 1), BuildingBlock: EZIPEK_clean_linker_0, # of connection points: 2
#     Edge 84, Type (0, 1), BuildingBlock: EZIPEK_clean_linker_0, # of connection points: 2
#     Edge 85, Type (0, 1), BuildingBlock: EZIPEK_clean_linker_0, # of connection points: 2
#     Edge 86, Type (0, 1), BuildingBlock: EZIPEK_clean_linker_0, # of connection points: 2
#     Edge 87, Type (0, 1), BuildingBlock: EZIPEK_clean_linker_0, # of connection points: 2
#     Edge 88, Type (0, 1), BuildingBlock: EZIPEK_clean_linker_0, # of connection points: 2
#     Edge 89, Type (0, 1), BuildingBlock: EZIPEK_clean_linker_0, # of connection points: 2
#     Edge 90, Type (0, 1), BuildingBlock: EZIPEK_clean_linker_0, # of connection points: 2
#     Edge 91, Type (0, 1), BuildingBlock: EZIPEK_clean_linker_0, # of connection points: 2
#     Edge 92, Type (0, 1), BuildingBlock: EZIPEK_clean_linker_0, # of connection points: 2
#     Edge 93, Type (0, 1), BuildingBlock: EZIPEK_clean_linker_0, # of connection points: 2
#     Edge 94, Type (0, 1), BuildingBlock: EZIPEK_clean_linker_0, # of connection points: 2
#     Edge 95, Type (0, 1), BuildingBlock: EZIPEK_clean_linker_0, # of connection points: 2
#     Edge 96, Type (0, 1), BuildingBlock: EZIPEK_clean_linker_0, # of connection points: 2
#     Edge 97, Type (0, 1), BuildingBlock: EZIPEK_clean_linker_0, # of connection points: 2
#     Edge 98, Type (0, 1), BuildingBlock: EZIPEK_clean_linker_0, # of connection points: 2
#     Edge 99, Type (0, 1), BuildingBlock: EZIPEK_clean_linker_0, # of connection points: 2
#     Edge 100, Type (0, 1), BuildingBlock: EZIPEK_clean_linker_0, # of connection points: 2
#     Edge 101, Type (0, 1), BuildingBlock: EZIPEK_clean_linker_0, # of connection points: 2
#     Edge 102, Type (0, 1), BuildingBlock: EZIPEK_clean_linker_0, # of connection points: 2
#     Edge 103, Type (0, 1), BuildingBlock: EZIPEK_clean_linker_0, # of connection points: 2
#     Edge 104, Type (0, 1), BuildingBlock: EZIPEK_clean_linker_0, # of connection points: 2
#     Edge 105, Type (0, 1), BuildingBlock: EZIPEK_clean_linker_0, # of connection points: 2
#     Edge 106, Type (0, 1), BuildingBlock: EZIPEK_clean_linker_0, # of connection points: 2
#     Edge 107, Type (0, 1), BuildingBlock: EZIPEK_clean_linker_0, # of connection points: 2
#     Edge 108, Type (0, 1), BuildingBlock: EZIPEK_clean_linker_0, # of connection points: 2
#     Edge 109, Type (0, 1), BuildingBlock: EZIPEK_clean_linker_0, # of connection points: 2
#     Edge 110, Type (0, 1), BuildingBlock: EZIPEK_clean_linker_0, # of connection points: 2
#     Edge 111, Type (0, 1), BuildingBlock: EZIPEK_clean_linker_0, # of connection points: 2
#     Edge 112, Type (0, 1), BuildingBlock: EZIPEK_clean_linker_0, # of connection points: 2
#     Edge 113, Type (0, 1), BuildingBlock: EZIPEK_clean_linker_0, # of connection points: 2
#     Edge 114, Type (0, 1), BuildingBlock: EZIPEK_clean_linker_0, # of connection points: 2
#     Edge 115, Type (0, 1), BuildingBlock: EZIPEK_clean_linker_0, # of connection points: 2
#     Edge 116, Type (0, 1), BuildingBlock: EZIPEK_clean_linker_0, # of connection points: 2
#     Edge 117, Type (0, 1), BuildingBlock: EZIPEK_clean_linker_0, # of connection points: 2
#     Edge 118, Type (0, 1), BuildingBlock: EZIPEK_clean_linker_0, # of connection points: 2
#     Edge 119, Type (0, 1), BuildingBlock: EZIPEK_clean_linker_0, # of connection points: 2
#     Edge 120, Type (0, 1), BuildingBlock: EZIPEK_clean_linker_0, # of connection points: 2
#     Edge 121, Type (0, 1), BuildingBlock: EZIPEK_clean_linker_0, # of connection points: 2
#     Edge 122, Type (0, 1), BuildingBlock: EZIPEK_clean_linker_0, # of connection points: 2
#     Edge 123, Type (0, 1), BuildingBlock: EZIPEK_clean_linker_0, # of connection points: 2
#     Edge 124, Type (0, 1), BuildingBlock: EZIPEK_clean_linker_0, # of connection points: 2
#     Edge 125, Type (0, 1), BuildingBlock: EZIPEK_clean_linker_0, # of connection points: 2
#     Edge 126, Type (0, 1), BuildingBlock: EZIPEK_clean_linker_0, # of connection points: 2
#     Edge 127, Type (0, 1), BuildingBlock: EZIPEK_clean_linker_0, # of connection points: 2
#     Edge 128, Type (0, 1), BuildingBlock: EZIPEK_clean_linker_0, # of connection points: 2
#     Edge 129, Type (0, 1), BuildingBlock: EZIPEK_clean_linker_0, # of connection points: 2
#     Edge 130, Type (0, 1), BuildingBlock: EZIPEK_clean_linker_0, # of connection points: 2
#     Edge 131, Type (0, 1), BuildingBlock: EZIPEK_clean_linker_0, # of connection points: 2
#     Edge 132, Type (0, 1), BuildingBlock: EZIPEK_clean_linker_0, # of connection points: 2
#     Edge 133, Type (0, 1), BuildingBlock: EZIPEK_clean_linker_0, # of connection points: 2
#     Edge 134, Type (0, 1), BuildingBlock: EZIPEK_clean_linker_0, # of connection points: 2
#     Edge 135, Type (0, 1), BuildingBlock: EZIPEK_clean_linker_0, # of connection points: 2
# Relax obj value: 0.142
# Max RMSD: 0.222
# Mean RMSD: 0.174
data_MOF--net-gar--node1-UXUYUI_clean_sbu_0--node2-CUKXOW_clean_sbu_0--edge1-EZIPEK_clean_linker_0
_symmetry_space_group_name_H-M    P1
_symmetry_Int_Tables_number       1
_symmetry_cell_setting            triclinic
loop_
_symmetry_equiv_pos_as_xyz
'x, y, z'
_cell_length_a     53.535894
_cell_length_b     51.995039
_cell_length_c     52.572265
_cell_angle_alpha  93.781882
_cell_angle_beta   95.147166
_cell_angle_gamma 98.804494
loop_
_atom_site_label
_atom_site_type_symbol
_atom_site_fract_x
_atom_site_fract_y
_atom_site_fract_z
_atom_type_partial_charge
Li0 Li 0.00575 0.27907 0.40406 0.0
Li1 Li 0.03141 0.29852 0.4446 0.0
Li2 Li 0.04893 0.27305 0.40937 0.0
Li3 Li 0.02021 0.25175 0.43554 0.0
C4 C 0.0285 0.32579 0.3938 0.0
N5 N 0.01216 0.36337 0.3644 0.0
C6 C 0.02247 0.34865 0.40555 0.0
C7 C 0.02648 0.32223 0.36705 0.0
C8 C 0.01421 0.36738 0.39038 0.0
C9 C 0.01808 0.34138 0.35253 0.0
C10 C 0.97725 0.26405 0.44954 0.0
C11 C 0.95506 0.25073 0.4856 0.0
N12 N 0.93749 0.23429 0.46946 0.0
C13 C 0.95897 0.24707 0.43328 0.0
C14 C 0.9753 0.26597 0.4759 0.0
C15 C 0.93901 0.23218 0.44373 0.0
C16 C 0.96937 0.26894 0.36062 0.0
N17 N 0.97794 0.28496 0.38209 0.0
C18 C 0.94365 0.30894 0.37563 0.0
C19 C 0.96569 0.30472 0.38978 0.0
C20 C 0.93427 0.29247 0.35362 0.0
C21 C 0.94747 0.27252 0.34582 0.0
H22 H 0.97891 0.25279 0.35553 0.0
H23 H 0.97268 0.31667 0.40734 0.0
C24 C 0.05833 0.34293 0.47516 0.0
N25 N 0.03535 0.32779 0.46843 0.0
C26 C 0.05966 0.36768 0.48779 0.0
C27 C 0.01384 0.35997 0.48724 0.0
C28 C 0.01341 0.33538 0.47491 0.0
C29 C 0.03706 0.3767 0.49287 0.0
H30 H 0.07537 0.33649 0.46926 0.0
H31 H 0.99541 0.32316 0.46871 0.0
C32 C 0.02775 0.23216 0.37878 0.0
N33 N 0.04672 0.2045 0.34013 0.0
C34 C 0.03643 0.20866 0.38334 0.0
C35 C 0.02885 0.24157 0.35452 0.0
C36 C 0.04591 0.19497 0.36356 0.0
C37 C 0.03846 0.22731 0.33525 0.0
C38 C 0.06456 0.2602 0.46719 0.0
C39 C 0.07181 0.23568 0.46295 0.0
C40 C 0.06786 0.27253 0.49198 0.0
C41 C 0.08219 0.22387 0.48363 0.0
C42 C 0.07825 0.26004 0.51216 0.0
N43 N 0.08514 0.23618 0.5076 0.0
C44 C 0.08536 0.28967 0.37584 0.0
C45 C 0.08912 0.24914 0.39284 0.0
C46 C 0.10441 0.28664 0.35997 0.0
N47 N 0.07783 0.27078 0.39148 0.0
C48 C 0.10773 0.24498 0.37686 0.0
C49 C 0.11539 0.26384 0.36012 0.0
H50 H 0.07625 0.3068 0.37531 0.0
H51 H 0.08296 0.23455 0.40555 0.0
C52 C 1.00039 0.19859 0.43715 0.0
N53 N 0.01033 0.22086 0.45196 0.0
C54 C 0.99685 0.17475 0.44805 0.0
C55 C 0.011 0.19776 0.48961 0.0
C56 C 0.01422 0.2211 0.47789 0.0
C57 C 1.00317 0.17429 0.4744 0.0
H58 H 0.99613 0.19921 0.41674 0.0
H59 H 0.02091 0.23925 0.48936 0.0
O60 O 0.03644 0.3071 0.40839 0.0
O61 O 0.9973 0.27825 0.43975 0.0
O62 O 0.01844 0.24595 0.39794 0.0
O63 O 0.05472 0.27238 0.44722 0.0
H64 H 0.02405 0.35193 0.42615 0.0
H65 H 0.03122 0.30482 0.35757 0.0
H66 H 0.00942 0.38511 0.39927 0.0
H67 H 0.01627 0.33876 0.33183 0.0
H68 H 0.95337 0.2519 0.50598 0.0
H69 H 0.96036 0.24515 0.41286 0.0
H70 H 0.98945 0.27884 0.48875 0.0
H71 H 0.92479 0.21887 0.4314 0.0
H72 H 0.9335 0.32419 0.38225 0.0
H73 H 0.94025 0.25925 0.32912 0.0
H74 H 0.07782 0.38037 0.49176 0.0
H75 H 0.99612 0.36657 0.49074 0.0
H76 H 0.03655 0.20134 0.4021 0.0
H77 H 0.02258 0.2598 0.35062 0.0
H78 H 0.05283 0.17688 0.36692 0.0
H79 H 0.03942 0.23444 0.31644 0.0
H80 H 0.06895 0.2256 0.44404 0.0
H81 H 0.06237 0.2915 0.49563 0.0
H82 H 0.0878 0.20487 0.48065 0.0
H83 H 0.08083 0.26932 0.53145 0.0
H84 H 0.11015 0.30162 0.34733 0.0
H85 H 0.11598 0.22724 0.37744 0.0
H86 H 0.99051 0.15682 0.43597 0.0
H87 H 0.01575 0.19786 0.51009 0.0
Li88 Li 0.99768 0.81201 0.59467 0.0
Li89 Li 0.01843 0.7888 0.6274 0.0
Li90 Li 0.98663 0.76579 0.59402 0.0
Li91 Li 0.97486 0.79357 0.62943 0.0
C92 C 0.03694 0.79627 0.5742 0.0
N93 N 0.07055 0.81928 0.54225 0.0
C94 C 0.06213 0.80584 0.58365 0.0
C95 C 0.0289 0.79825 0.54844 0.0
C96 C 0.07882 0.81742 0.56719 0.0
C97 C 0.04616 0.81001 0.53263 0.0
C98 C 0.9988 0.84048 0.64834 0.0
C99 C 0.99256 0.85673 0.69097 0.0
N100 N 0.98445 0.87797 0.68125 0.0
C101 C 0.99049 0.86251 0.63878 0.0
C102 C 0.99998 0.8376 0.67466 0.0
C103 C 0.98332 0.88124 0.65573 0.0
C104 C 0.9826 0.8461 0.55878 0.0
N105 N 1.00243 0.84078 0.57447 0.0
C106 C 0.02907 0.87896 0.56405 0.0
C107 C 0.02539 0.85656 0.57725 0.0
C108 C 0.00853 0.88563 0.54885 0.0
C109 C 0.9852 0.86877 0.54579 0.0
H110 H 0.96449 0.83334 0.55723 0.0
H111 H 0.04058 0.85218 0.59041 0.0
C112 C 0.06063 0.7655 0.64163 0.0
N113 N 0.04919 0.78655 0.64692 0.0
C114 C 0.0827 0.76222 0.65634 0.0
C115 C 0.0814 0.80301 0.68087 0.0
C116 C 0.05911 0.80529 0.66591 0.0
C117 C 0.09324 0.78117 0.67615 0.0
H118 H 0.05245 0.75117 0.6261 0.0
H119 H 0.04976 0.82199 0.66939 0.0
C120 C 0.94304 0.77728 0.57746 0.0
N121 N 0.90344 0.74572 0.54781 0.0
C122 C 0.92227 0.76511 0.58889 0.0
C123 C 0.94365 0.77354 0.55097 0.0
C124 C 0.90242 0.74921 0.57355 0.0
C125 C 0.92346 0.75745 0.53631 0.0
C126 C 1.00021 0.74504 0.64686 0.0
C127 C 0.00507 0.72095 0.63681 0.0
C128 C 0.00739 0.75293 0.67278 0.0
C129 C 0.0171 0.70517 0.65281 0.0
C130 C 0.01945 0.73663 0.68815 0.0
N131 N 0.024 0.71329 0.67794 0.0
C132 C 0.99635 0.73039 0.55575 0.0
C133 C 0.96038 0.71429 0.57667 0.0
C134 C 0.99628 0.70587 0.54344 0.0
N135 N 0.97912 0.73397 0.57261 0.0
C136 C 0.95953 0.6893 0.5646 0.0
C137 C 0.97836 0.68488 0.54864 0.0
H138 H 0.01135 0.74605 0.55322 0.0
H139 H 0.9473 0.71749 0.59064 0.0
C140 C 0.93709 0.81882 0.65096 0.0
N141 N 0.95052 0.79871 0.65293 0.0
C142 C 0.92058 0.82366 0.66923 0.0
C143 C 0.9317 0.78672 0.69084 0.0
C144 C 0.94797 0.78263 0.67223 0.0
C145 C 0.91788 0.80747 0.68943 0.0
H146 H 0.93934 0.83118 0.6353 0.0
H147 H 0.95846 0.76653 0.67312 0.0
O148 O 0.02025 0.78497 0.59004 0.0
O149 O 0.00562 0.82176 0.63201 0.0
O150 O 0.96282 0.79258 0.59218 0.0
O151 O 0.98871 0.76089 0.63136 0.0
H152 H 0.06872 0.80454 0.6035 0.0
H153 H 0.00942 0.79109 0.54085 0.0
H154 H 0.09833 0.82499 0.57427 0.0
H155 H 0.04014 0.81185 0.51272 0.0
H156 H 0.99317 0.85465 0.71134 0.0
H157 H 0.9894 0.86506 0.61848 0.0
H158 H 0.00619 0.82059 0.68236 0.0
H159 H 0.97677 0.89835 0.64859 0.0
H160 H 0.04712 0.89194 0.5671 0.0
H161 H 0.96896 0.87371 0.53445 0.0
H162 H 0.09163 0.74529 0.65218 0.0
H163 H 0.08935 0.81804 0.69591 0.0
H164 H 0.92156 0.76778 0.60939 0.0
H165 H 0.95968 0.78278 0.5419 0.0
H166 H 0.88625 0.73959 0.58212 0.0
H167 H 0.92372 0.75425 0.5158 0.0
H168 H 0.99988 0.71463 0.6168 0.0
H169 H 1.00413 0.77167 0.68085 0.0
H170 H 0.02104 0.68652 0.64523 0.0
H171 H 0.02529 0.7426 0.70818 0.0
H172 H 0.0112 0.7029 0.53146 0.0
H173 H 0.94572 0.67325 0.56925 0.0
H174 H 0.90975 0.83953 0.66743 0.0
H175 H 0.92954 0.77359 0.70594 0.0
Li176 Li 0.50788 0.77578 0.89707 0.0
Li177 Li 0.53675 0.79989 0.93201 0.0
Li178 Li 0.55232 0.77181 0.89891 0.0
Li179 Li 0.52696 0.75341 0.93153 0.0
C180 C 0.55143 0.81758 0.87931 0.0
N181 N 0.58268 0.84545 0.8482 0.0
C182 C 0.56992 0.83838 0.88991 0.0
C183 C 0.54884 0.81095 0.85289 0.0
C184 C 0.58553 0.85223 0.87385 0.0
C185 C 0.56481 0.82529 0.83749 0.0
C186 C 0.49139 0.79428 0.94881 0.0
C187 C 0.48649 0.8148 0.99018 0.0
N188 N 0.46941 0.82844 0.97886 0.0
C189 C 0.47373 0.80845 0.93759 0.0
C190 C 0.4978 0.79743 0.97533 0.0
C191 C 0.46286 0.82565 0.95311 0.0
C192 C 0.45718 0.76039 0.87553 0.0
N193 N 0.47872 0.77767 0.87479 0.0
C194 C 0.45867 0.79895 0.84168 0.0
C195 C 0.47953 0.79729 0.859 0.0
C196 C 0.43685 0.77949 0.83953 0.0
C197 C 0.436 0.76113 0.85833 0.0
H198 H 0.45646 0.74605 0.88954 0.0
H199 H 0.49628 0.81199 0.86014 0.0
C200 C 0.55357 0.83831 0.97535 0.0
N201 N 0.54128 0.83289 0.95133 0.0
C202 C 0.55347 0.86254 0.98871 0.0
C203 C 0.52836 0.87486 0.95226 0.0
C204 C 0.52899 0.85061 0.93967 0.0
C205 C 0.54052 0.88092 0.97709 0.0
H206 H 0.56297 0.82373 0.98426 0.0
H207 H 0.51916 0.84562 0.92068 0.0
C208 C 0.50562 0.72726 0.87763 0.0
N209 N 0.46928 0.69547 0.84404 0.0
C210 C 0.48926 0.70701 0.88661 0.0
C211 C 0.50347 0.7313 0.85153 0.0
C212 C 0.47106 0.69112 0.86932 0.0
C213 C 0.48495 0.71507 0.83488 0.0
C214 C 0.57354 0.76097 0.95298 0.0
C215 C 0.58913 0.7441 0.94354 0.0
C216 C 0.56945 0.76194 0.97889 0.0
C217 C 0.60022 0.72823 0.96021 0.0
C218 C 0.58082 0.7457 0.99491 0.0
N219 N 0.59583 0.72932 0.98532 0.0
C220 C 0.60053 0.78409 0.87894 0.0
C221 C 0.5735 0.74601 0.85982 0.0
C222 C 0.61809 0.78125 0.8612 0.0
N223 N 0.57849 0.76688 0.87753 0.0
C224 C 0.59043 0.74246 0.84173 0.0
C225 C 0.61283 0.7604 0.84217 0.0
H226 H 0.60419 0.80032 0.89343 0.0
H227 H 0.55618 0.73228 0.85943 0.0
C228 C 0.50751 0.72411 0.97136 0.0
N229 N 0.52171 0.72404 0.95118 0.0
C230 C 0.50375 0.70225 0.98546 0.0
C231 C 0.52883 0.68055 0.95736 0.0
C232 C 0.53225 0.70286 0.94394 0.0
C233 C 0.51446 0.68021 0.97837 0.0
H234 H 0.49906 0.74104 0.97646 0.0
H235 H 0.54321 0.70333 0.92762 0.0
O236 O 0.53595 0.80375 0.89469 0.0
O237 O 0.50261 0.77771 0.93388 0.0
O238 O 0.52358 0.74308 0.89425 0.0
O239 O 0.56199 0.77614 0.93683 0.0
H240 H 0.57233 0.84365 0.91033 0.0
H241 H 0.53473 0.79479 0.84439 0.0
H242 H 0.59996 0.86833 0.8818 0.0
H243 H 0.56302 0.82037 0.81702 0.0
H244 H 0.49141 0.81757 0.01069 0.0
H245 H 0.46863 0.80641 0.91711 0.0
H246 H 0.51174 0.78698 0.9843 0.0
H247 H 0.44926 0.83683 0.94467 0.0
H248 H 0.4601 0.81593 0.83099 0.0
H249 H 0.41904 0.74754 0.86037 0.0
H250 H 0.56317 0.86684 0.00784 0.0
H251 H 0.51834 0.88873 0.94278 0.0
H252 H 0.49041 0.70368 0.90673 0.0
H253 H 0.51579 0.74703 0.84425 0.0
H254 H 0.4583 0.67539 0.87602 0.0
H255 H 0.483 0.71809 0.81468 0.0
H256 H 0.59242 0.74309 0.92352 0.0
H257 H 0.5573 0.77478 0.98643 0.0
H258 H 0.61222 0.71498 0.95316 0.0
H259 H 0.57763 0.74603 0.01495 0.0
H260 H 0.63531 0.79538 0.86197 0.0
H261 H 0.58595 0.72613 0.82731 0.0
H262 H 0.49259 0.70246 1.00165 0.0
H263 H 0.53732 0.66377 0.95152 0.0
Li264 Li 0.49997 0.31855 0.09484 0.0
Li265 Li 0.51952 0.29529 0.12819 0.0
Li266 Li 0.49136 0.2709 0.0922 0.0
Li267 Li 0.47417 0.29583 0.12562 0.0
C268 C 0.53147 0.2927 0.06658 0.0
N269 N 0.54482 0.28949 0.01706 0.0
C270 C 0.55663 0.29158 0.06215 0.0
C271 C 0.51305 0.29207 0.04583 0.0
C272 C 0.56302 0.29001 0.03696 0.0
C273 C 0.5202 0.29047 0.02094 0.0
C274 C 0.51382 0.344 0.15073 0.0
C275 C 0.52262 0.3602 0.1952 0.0
N276 N 0.5381 0.38135 0.18838 0.0
C277 C 0.52959 0.36604 0.14413 0.0
C278 C 0.51007 0.34117 0.17643 0.0
C279 C 0.54178 0.38465 0.16346 0.0
C280 C 0.48448 0.36403 0.08104 0.0
N281 N 0.50315 0.34949 0.07769 0.0
C282 C 0.52384 0.38105 0.05229 0.0
C283 C 0.52283 0.35761 0.06396 0.0
C284 C 0.50472 0.39634 0.05538 0.0
C285 C 0.48498 0.38779 0.07012 0.0
H286 H 0.4693 0.35717 0.0924 0.0
H287 H 0.53781 0.34606 0.06215 0.0
C288 C 0.55174 0.2693 0.15762 0.0
N289 N 0.5489 0.29341 0.1504 0.0
C290 C 0.57327 0.26585 0.17312 0.0
C291 C 0.58883 0.31208 0.17321 0.0
C292 C 0.56697 0.31463 0.15764 0.0
C293 C 0.59204 0.28742 0.18091 0.0
H294 H 0.53754 0.2526 0.15087 0.0
H295 H 0.56478 0.33336 0.15086 0.0
C296 C 0.442 0.28286 0.08014 0.0
N297 N 0.39289 0.25796 0.06583 0.0
C298 C 0.43324 0.25902 0.08962 0.0
C299 C 0.42579 0.29409 0.06342 0.0
C300 C 0.40836 0.24671 0.08215 0.0
C301 C 0.40102 0.28118 0.0564 0.0
C302 C 0.48479 0.25023 0.14784 0.0
C303 C 0.47255 0.22455 0.14168 0.0
C304 C 0.48979 0.25999 0.1735 0.0
C305 C 0.46516 0.20915 0.16135 0.0
C306 C 0.48208 0.24399 0.19261 0.0
N307 N 0.47001 0.21912 0.18619 0.0
C308 C 0.50763 0.2257 0.07922 0.0
C309 C 0.47136 0.22981 0.05127 0.0
C310 C 0.50885 0.20133 0.06726 0.0
N311 N 0.48891 0.23918 0.07141 0.0
C312 C 0.47174 0.20521 0.03879 0.0
C313 C 0.49055 0.19068 0.0471 0.0
H314 H 0.52138 0.2338 0.09518 0.0
H315 H 0.45687 0.24112 0.04521 0.0
C316 C 0.44425 0.32479 0.15199 0.0
N317 N 0.44719 0.29967 0.14588 0.0
C318 C 0.42607 0.33026 0.16807 0.0
C319 C 0.41384 0.28384 0.17085 0.0
C320 C 0.43224 0.27925 0.15463 0.0
C321 C 0.41085 0.3096 0.17777 0.0
H322 H 0.45626 0.34062 0.14455 0.0
H323 H 0.43465 0.25945 0.14923 0.0
O324 O 0.52496 0.29394 0.09115 0.0
O325 O 0.50162 0.32566 0.13205 0.0
O326 O 0.46617 0.29549 0.08739 0.0
O327 O 0.49218 0.26553 0.12879 0.0
H328 H 0.57107 0.29193 0.07802 0.0
H329 H 0.49346 0.29283 0.04885 0.0
H330 H 0.58244 0.28917 0.03324 0.0
H331 H 0.50616 0.29 0.00471 0.0
H332 H 0.51998 0.3582 0.21517 0.0
H333 H 0.53258 0.36863 0.12432 0.0
H334 H 0.49751 0.32455 0.18183 0.0
H335 H 0.55417 0.40171 0.15866 0.0
H336 H 0.53938 0.38729 0.04111 0.0
H337 H 0.47005 0.39928 0.07294 0.0
H338 H 0.57556 0.24653 0.1785 0.0
H339 H 0.60336 0.32895 0.17864 0.0
H340 H 0.44553 0.25007 0.10252 0.0
H341 H 0.4323 0.31261 0.056 0.0
H342 H 0.40134 0.22823 0.08933 0.0
H343 H 0.38825 0.28964 0.04348 0.0
H344 H 0.4688 0.21659 0.12191 0.0
H345 H 0.49959 0.27966 0.17858 0.0
H346 H 0.45561 0.18927 0.15687 0.0
H347 H 0.48574 0.25131 0.21255 0.0
H348 H 0.52343 0.19046 0.07421 0.0
H349 H 0.45723 0.1973 0.02341 0.0
H350 H 0.42398 0.35032 0.17301 0.0
H351 H 0.40211 0.26754 0.17797 0.0
Li352 Li 1.00422 0.79646 0.14023 0.0
Li353 Li 0.02775 0.77857 0.17508 0.0
Li354 Li 1.0034 0.74905 0.14065 0.0
Li355 Li 0.98043 0.77152 0.17411 0.0
C356 C 0.04814 0.78935 0.12231 0.0
N357 N 0.07888 0.81579 0.08979 0.0
C358 C 0.06986 0.8068 0.1323 0.0
C359 C 0.04211 0.78531 0.09578 0.0
C360 C 0.08516 0.81996 0.11554 0.0
C361 C 0.05786 0.7989 0.07967 0.0
C362 C 0.01525 0.82386 0.19681 0.0
C363 C 0.0161 0.84446 0.2394 0.0
N364 N 0.03693 0.86158 0.2352 0.0
C365 C 0.03659 0.8417 0.19286 0.0
C366 C 1.00485 0.82524 0.22022 0.0
C367 C 0.04731 0.8606 0.21253 0.0
C368 C 0.97933 0.8262 0.10522 0.0
N369 N 1.00194 0.82538 0.11905 0.0
C370 C 0.0198 0.8662 0.10427 0.0
C371 C 0.02196 0.84497 0.11889 0.0
C372 C 0.99671 0.86748 0.08997 0.0
C373 C 0.97628 0.84719 0.09046 0.0
H374 H 0.96348 0.81077 0.10599 0.0
H375 H 0.03955 0.84444 0.13039 0.0
C376 C 0.07854 0.77086 0.1858 0.0
N377 N 0.06037 0.78246 0.1965 0.0
C378 C 0.10293 0.77268 0.19857 0.0
C379 C 0.0896 0.79768 0.23374 0.0
C380 C 0.06534 0.79521 0.22036 0.0
C381 C 0.10876 0.78652 0.22269 0.0
H382 H 0.07414 0.76036 0.16709 0.0
H383 H 0.0506 0.80348 0.22911 0.0
C384 C 0.95853 0.75338 0.11623 0.0
N385 N 0.92809 0.72202 0.0774 0.0
C386 C 0.93747 0.73607 0.12189 0.0
C387 C 0.96402 0.75485 0.09083 0.0
C388 C 0.92233 0.72036 0.10198 0.0
C389 C 0.94843 0.7388 0.07147 0.0
C390 C 0.01859 0.73405 0.19527 0.0
C391 C 0.03323 0.71588 0.18651 0.0
C392 C 0.02032 0.74174 0.22143 0.0
C393 C 0.0495 0.70576 0.20412 0.0
C394 C 0.03685 0.73121 0.23843 0.0
N395 N 0.05098 0.7136 0.22949 0.0
C396 C 0.02396 0.7154 0.10689 0.0
C397 C 0.9843 0.69634 0.11941 0.0
C398 C 0.02603 0.69232 0.09265 0.0
N399 N 1.00332 0.71707 0.11987 0.0
C400 C 0.9855 0.67287 0.10518 0.0
C401 C 0.00671 0.67073 0.0918 0.0
H402 H 0.03919 0.7318 0.10811 0.0
H403 H 0.96847 0.6978 0.13052 0.0
C404 C 0.9295 0.77811 0.17825 0.0
N405 N 0.94965 0.7701 0.19138 0.0
C406 C 0.9067 0.77859 0.18928 0.0
C407 C 0.92559 0.76271 0.22738 0.0
C408 C 0.948 0.76223 0.21546 0.0
C409 C 0.90464 0.77115 0.21429 0.0
H410 H 0.93124 0.78443 0.1592 0.0
H411 H 0.96418 0.75599 0.22563 0.0
O412 O 0.03292 0.77619 0.13839 0.0
O413 O 1.00439 0.80529 0.17781 0.0
O414 O 0.97382 0.76864 0.13549 0.0
O415 O 1.00327 0.74487 0.17822 0.0
H416 H 0.0747 0.81049 0.15277 0.0
H417 H 0.02545 0.77182 0.08771 0.0
H418 H 0.10197 0.83359 0.12301 0.0
H419 H 0.05337 0.79599 0.0591 0.0
H420 H 0.00829 0.84575 0.25763 0.0
H421 H 0.045 0.84071 0.17496 0.0
H422 H 0.9883 0.81158 0.22354 0.0
H423 H 0.06393 0.87444 0.20981 0.0
H424 H 0.03583 0.88173 0.1045 0.0
H425 H 0.95812 0.84778 0.07983 0.0
H426 H 0.11723 0.76376 0.18953 0.0
H427 H 0.09343 0.80833 0.25245 0.0
H428 H 0.93307 0.73451 0.14147 0.0
H429 H 0.98016 0.76823 0.08613 0.0
H430 H 0.90605 0.70677 0.10608 0.0
H431 H 0.9525 0.73968 0.05173 0.0
H432 H 0.03225 0.70985 0.1663 0.0
H433 H 0.00946 0.75614 0.22846 0.0
H434 H 0.06104 0.69178 0.19761 0.0
H435 H 0.03857 0.73717 0.2587 0.0
H436 H 0.04276 0.69114 0.08274 0.0
H437 H 0.97042 0.65639 0.10512 0.0
H438 H 0.89102 0.78537 0.17866 0.0
H439 H 0.92476 0.75701 0.24677 0.0
Li440 Li 0.53033 0.82446 0.38843 0.0
Li441 Li 0.50583 0.79455 0.35378 0.0
Li442 Li 0.53222 0.77879 0.38964 0.0
Li443 Li 0.5535 0.8018 0.35618 0.0
C444 C 0.48785 0.80525 0.40893 0.0
N445 N 0.4607 0.82646 0.44507 0.0
C446 C 0.46408 0.81197 0.40163 0.0
C447 C 0.49752 0.80881 0.43473 0.0
C448 C 0.45071 0.82276 0.42015 0.0
C449 C 0.48361 0.81973 0.45268 0.0
C450 C 0.52824 0.83323 0.32528 0.0
C451 C 0.52748 0.81946 0.28047 0.0
N452 N 0.5257 0.84422 0.27451 0.0
C453 C 0.52636 0.85852 0.31872 0.0
C454 C 0.52875 0.81349 0.30603 0.0
C455 C 0.52511 0.86369 0.29293 0.0
C456 C 0.54593 0.86521 0.42948 0.0
N457 N 0.52862 0.85612 0.40905 0.0
C458 C 0.50432 0.8899 0.41857 0.0
C459 C 0.50827 0.8682 0.40323 0.0
C460 C 0.52167 0.89954 0.43992 0.0
C461 C 0.54287 0.88714 0.4452 0.0
H462 H 0.56199 0.85534 0.4337 0.0
H463 H 0.49481 0.86062 0.38688 0.0
C464 C 0.46216 0.76706 0.31884 0.0
N465 N 0.47375 0.79006 0.33166 0.0
C466 C 0.43739 0.76475 0.30663 0.0
C467 C 0.43749 0.81019 0.31943 0.0
C468 C 0.46219 0.81164 0.33133 0.0
C469 C 0.42457 0.78636 0.30743 0.0
H470 H 0.47164 0.75021 0.31865 0.0
H471 H 0.47173 0.82976 0.34147 0.0
C472 C 0.57887 0.80103 0.4116 0.0
N473 N 0.61397 0.78549 0.44683 0.0
C474 C 0.60081 0.79282 0.40364 0.0
C475 C 0.57506 0.80177 0.43758 0.0
C476 C 0.61827 0.78495 0.42171 0.0
C477 C 0.59292 0.79369 0.45506 0.0
C478 C 0.51719 0.74313 0.34612 0.0
C479 C 0.49717 0.73333 0.35993 0.0
C480 C 0.52463 0.72711 0.32674 0.0
C481 C 0.48498 0.7076 0.35415 0.0
C482 C 0.51191 0.70151 0.32149 0.0
N483 N 0.49254 0.69236 0.33521 0.0
C484 C 0.51643 0.74316 0.42664 0.0
C485 C 0.55498 0.73764 0.40965 0.0
C486 C 0.51778 0.7218 0.44126 0.0
N487 N 0.53486 0.75059 0.41117 0.0
C488 C 0.55739 0.71657 0.42437 0.0
C489 C 0.53843 0.70821 0.44014 0.0
H490 H 0.50035 0.75339 0.42714 0.0
H491 H 0.56901 0.74344 0.3967 0.0
C492 C 0.59732 0.82546 0.33197 0.0
N493 N 0.5832 0.80271 0.3373 0.0
C494 C 0.62019 0.82517 0.32082 0.0
C495 C 0.61334 0.77815 0.32046 0.0
C496 C 0.59065 0.77932 0.33148 0.0
C497 C 0.62854 0.80127 0.31524 0.0
H498 H 0.59121 0.84385 0.33701 0.0
H499 H 0.57944 0.76156 0.33637 0.0
O500 O 0.50158 0.79533 0.39094 0.0
O501 O 0.52928 0.82789 0.35044 0.0
O502 O 0.56145 0.80862 0.39411 0.0
O503 O 0.52996 0.76799 0.35197 0.0
H504 H 0.456 0.80891 0.3819 0.0
H505 H 0.51561 0.80334 0.4408 0.0
H506 H 0.43237 0.8282 0.4147 0.0
H507 H 0.49104 0.82284 0.47265 0.0
H508 H 0.52788 0.80439 0.26538 0.0
H509 H 0.52583 0.87397 0.33343 0.0
H510 H 0.53008 0.79378 0.31071 0.0
H511 H 0.52365 0.88317 0.28757 0.0
H512 H 0.48789 0.89914 0.41381 0.0
H513 H 0.55678 0.8943 0.46134 0.0
H514 H 0.42796 0.74605 0.29758 0.0
H515 H 0.42813 0.82723 0.32052 0.0
H516 H 0.60438 0.79245 0.38376 0.0
H517 H 0.5585 0.80847 0.44423 0.0
H518 H 0.63524 0.77842 0.41576 0.0
H519 H 0.59007 0.79399 0.47519 0.0
H520 H 0.49097 0.74546 0.37483 0.0
H521 H 0.54005 0.73438 0.31583 0.0
H522 H 0.46948 0.69978 0.36468 0.0
H523 H 0.51746 0.6889 0.30653 0.0
H524 H 0.5027 0.71567 0.45303 0.0
H525 H 0.57345 0.70638 0.42289 0.0
H526 H 0.63157 0.84339 0.31719 0.0
H527 H 0.6193 0.75941 0.3166 0.0
Li528 Li 0.50641 0.29737 0.64337 0.0
Li529 Li 0.52888 0.27797 0.67745 0.0
Li530 Li 0.50294 0.24932 0.64344 0.0
Li531 Li 0.48216 0.27364 0.67764 0.0
C532 C 0.54646 0.28252 0.62056 0.0
N533 N 0.57305 0.29732 0.57979 0.0
C534 C 0.5702 0.29848 0.62493 0.0
C535 C 0.53637 0.27391 0.59547 0.0
C536 C 0.58331 0.30579 0.60406 0.0
C537 C 0.55006 0.28166 0.57511 0.0
C538 C 0.52087 0.32418 0.69954 0.0
C539 C 0.52619 0.34508 0.74242 0.0
N540 N 0.54786 0.3601 0.73695 0.0
C541 C 0.54312 0.33987 0.69429 0.0
C542 C 0.51226 0.32679 0.72375 0.0
C543 C 0.55654 0.35788 0.71349 0.0
C544 C 0.48329 0.33036 0.61079 0.0
N545 N 0.50601 0.32634 0.62235 0.0
C546 C 0.52733 0.36438 0.60535 0.0
C547 C 0.5278 0.34297 0.62003 0.0
C548 C 0.50416 0.36896 0.59335 0.0
C549 C 0.48192 0.3517 0.59612 0.0
H550 H 0.46614 0.31725 0.61332 0.0
H551 H 0.54551 0.33996 0.62992 0.0
C552 C 0.58 0.2712 0.68562 0.0
N553 N 0.56171 0.28075 0.69807 0.0
C554 C 0.60468 0.27287 0.69752 0.0
C555 C 0.5914 0.29325 0.7355 0.0
C556 C 0.56683 0.29107 0.72286 0.0
C557 C 0.61071 0.28431 0.72265 0.0
H558 H 0.57545 0.26233 0.66625 0.0
H559 H 0.55198 0.29773 0.73286 0.0
C560 C 0.45662 0.25921 0.62043 0.0
N561 N 0.41955 0.23546 0.58259 0.0
C562 C 0.43397 0.24527 0.627 0.0
C563 C 0.46027 0.26136 0.59461 0.0
C564 C 0.41549 0.23333 0.60759 0.0
C565 C 0.44135 0.24912 0.57577 0.0
C566 C 0.51648 0.23652 0.7011 0.0
C567 C 0.53407 0.21993 0.69649 0.0
C568 C 0.51312 0.24465 0.72625 0.0
C569 C 0.54826 0.21189 0.71725 0.0
C570 C 0.52765 0.23613 0.74649 0.0
N571 N 0.54479 0.2201 0.74161 0.0
C572 C 0.52362 0.21146 0.61561 0.0
C573 C 0.47917 0.19983 0.61665 0.0
C574 C 0.52462 0.18815 0.60127 0.0
N575 N 0.50112 0.21701 0.6228 0.0
C576 C 0.4793 0.17618 0.60226 0.0
C577 C 0.50228 0.17025 0.59444 0.0
H578 H 0.54092 0.22505 0.62132 0.0
H579 H 0.46165 0.20419 0.62324 0.0
C580 C 0.44253 0.2954 0.69952 0.0
N581 N 0.45211 0.27286 0.69547 0.0
C582 C 0.41947 0.29521 0.71024 0.0
C583 C 0.41643 0.24858 0.71241 0.0
C584 C 0.43968 0.24971 0.70188 0.0
C585 C 0.40601 0.27154 0.7166 0.0
H586 H 0.45259 0.3135 0.69396 0.0
H587 H 0.4475 0.232 0.69815 0.0
O588 O 0.53333 0.27517 0.64077 0.0
O589 O 0.50745 0.30646 0.68103 0.0
O590 O 0.47493 0.27102 0.63918 0.0
O591 O 0.50317 0.24547 0.68106 0.0
H592 H 0.57825 0.30546 0.64421 0.0
H593 H 0.51824 0.26124 0.59175 0.0
H594 H 0.60162 0.31826 0.60716 0.0
H595 H 0.54244 0.27517 0.5556 0.0
H596 H 0.5198 0.34729 0.76127 0.0
H597 H 0.55012 0.33791 0.67571 0.0
H598 H 0.49509 0.31471 0.7281 0.0
H599 H 0.57389 0.37005 0.70977 0.0
H600 H 0.54477 0.37759 0.60382 0.0
H601 H 0.4637 0.35491 0.58729 0.0
H602 H 0.61906 0.2656 0.68709 0.0
H603 H 0.59537 0.30204 0.75499 0.0
H604 H 0.43075 0.24354 0.64687 0.0
H605 H 0.47743 0.27252 0.58918 0.0
H606 H 0.39793 0.22236 0.6124 0.0
H607 H 0.44396 0.25056 0.55571 0.0
H608 H 0.53696 0.21365 0.67707 0.0
H609 H 0.49968 0.25766 0.73006 0.0
H610 H 0.5621 0.19921 0.714 0.0
H611 H 0.52539 0.24237 0.76608 0.0
H612 H 0.5427 0.18394 0.5958 0.0
H613 H 0.46181 0.16253 0.59758 0.0
H614 H 0.41196 0.31326 0.71313 0.0
H615 H 0.40649 0.22997 0.71698 0.0
Li616 Li 0.0345 0.32262 0.8923 0.0
Li617 Li 0.00813 0.29213 0.85927 0.0
Li618 Li 0.03578 0.27706 0.89445 0.0
Li619 Li 0.05545 0.29836 0.85953 0.0
C620 C 0.99225 0.30566 0.91421 0.0
N621 N 0.9655 0.32937 0.94909 0.0
C622 C 0.96761 0.31011 0.90697 0.0
C623 C 1.00309 0.31288 0.93935 0.0
C624 C 0.95444 0.32221 0.92484 0.0
C625 C 0.98933 0.32496 0.95666 0.0
C626 C 0.02954 0.32938 0.82883 0.0
C627 C 0.02618 0.31423 0.78411 0.0
N628 N 0.0248 0.33893 0.77769 0.0
C629 C 0.02805 0.35459 0.82181 0.0
C630 C 0.02856 0.30899 0.80986 0.0
C631 C 0.02567 0.35903 0.79584 0.0
C632 C 0.05182 0.36484 0.93174 0.0
N633 N 0.03408 0.35526 0.9118 0.0
C634 C 0.01035 0.38968 0.92061 0.0
C635 C 0.01383 0.36743 0.90584 0.0
C636 C 0.02803 0.39971 0.94158 0.0
C637 C 0.0492 0.38729 0.94693 0.0
H638 H 0.06779 0.35486 0.93609 0.0
H639 H 0.99999 0.35939 0.88993 0.0
C640 C 0.96345 0.26459 0.826 0.0
N641 N 0.97544 0.28777 0.83814 0.0
C642 C 0.93889 0.26248 0.81344 0.0
C643 C 0.93976 0.30836 0.8247 0.0
C644 C 0.96427 0.30959 0.83708 0.0
C645 C 0.92661 0.28446 0.8131 0.0
H646 H 0.97257 0.24751 0.82636 0.0
H647 H 0.9741 0.32786 0.84669 0.0
C648 C 0.08209 0.2966 0.91388 0.0
N649 N 0.11503 0.27618 0.94761 0.0
C650 C 0.10091 0.28363 0.90472 0.0
C651 C 0.08021 0.29941 0.94024 0.0
C652 C 0.11735 0.27341 0.92207 0.0
C653 C 0.09698 0.28887 0.95697 0.0
C654 C 0.01743 0.24043 0.85238 0.0
C655 C 0.99884 0.23179 0.86833 0.0
C656 C 0.02199 0.22373 0.83198 0.0
C657 C 0.9852 0.20652 0.86363 0.0
C658 C 0.00787 0.19863 0.82786 0.0
N659 N 0.98995 0.19061 0.84366 0.0
C660 C 0.0261 0.24765 0.93783 0.0
C661 C 0.05399 0.23151 0.91043 0.0
C662 C 0.0275 0.22692 0.95327 0.0
N663 N 0.03912 0.24949 0.91678 0.0
C664 C 0.0559 0.21043 0.92532 0.0
C665 C 0.0423 0.20787 0.94684 0.0
H666 H 0.01411 0.26187 0.9423 0.0
H667 H 0.06395 0.23326 0.89346 0.0
C668 C 0.09873 0.3212 0.83447 0.0
N669 N 0.0838 0.29859 0.83889 0.0
C670 C 0.12045 0.32052 0.82145 0.0
C671 C 0.1108 0.27343 0.81742 0.0
C672 C 0.08932 0.27499 0.83044 0.0
C673 C 0.1268 0.29635 0.81304 0.0
H674 H 0.0941 0.33972 0.84155 0.0
H675 H 0.07746 0.2573 0.83452 0.0
O676 O 0.00563 0.29428 0.89679 0.0
O677 O 0.03167 0.32475 0.85417 0.0
O678 O 0.06549 0.30629 0.89712 0.0
O679 O 0.03157 0.26483 0.85698 0.0
H680 H 0.95865 0.30417 0.88782 0.0
H681 H 0.02209 0.30958 0.94533 0.0
H682 H 0.9354 0.32586 0.91943 0.0
H683 H 0.99763 0.33089 0.97608 0.0
H684 H 0.02541 0.29865 0.76923 0.0
H685 H 0.02869 0.37054 0.8363 0.0
H686 H 0.02956 0.28932 0.8149 0.0
H687 H 0.0245 0.37845 0.79012 0.0
H688 H 0.99394 0.39894 0.91581 0.0
H689 H 0.06335 0.39477 0.96278 0.0
H690 H 0.92931 0.24374 0.80459 0.0
H691 H 0.93084 0.32571 0.82482 0.0
H692 H 0.10272 0.28129 0.88443 0.0
H693 H 0.06585 0.30942 0.94772 0.0
H694 H 0.13191 0.26322 0.91521 0.0
H695 H 0.09561 0.29076 0.97739 0.0
H696 H 0.99487 0.2444 0.88413 0.0
H697 H 0.03625 0.23009 0.81941 0.0
H698 H 0.97081 0.19958 0.87585 0.0
H699 H 0.01118 0.18552 0.81212 0.0
H700 H 0.01651 0.22528 0.96958 0.0
H701 H 0.06723 0.19585 0.91969 0.0
H702 H 0.13246 0.33858 0.81844 0.0
H703 H 0.11521 0.25448 0.8113 0.0
Li704 Li 0.43013 0.08288 0.28168 0.0
Li705 Li 0.39288 0.0564 0.25765 0.0
Li706 Li 0.42666 0.07589 0.23331 0.0
Li707 Li 0.39701 0.10397 0.25385 0.0
C708 C 0.43819 0.03149 0.27216 0.0
N709 N 0.45831 0.99431 0.29917 0.0
C710 C 0.42624 0.02114 0.29265 0.0
C711 C 0.46038 0.0229 0.2654 0.0
C712 C 0.4367 1.00237 0.30607 0.0
C713 C 0.47025 1.00409 0.27928 0.0
C714 C 0.37522 0.08017 0.30123 0.0
C715 C 0.33411 0.0859 0.31401 0.0
N716 N 0.33813 0.07178 0.33445 0.0
C717 C 0.37901 0.0659 0.32248 0.0
C718 C 0.35265 0.0904 0.29703 0.0
C719 C 0.35999 0.06178 0.33899 0.0
C720 C 0.44097 0.09831 0.33496 0.0
N721 N 0.45016 0.08587 0.31506 0.0
C722 C 0.47947 0.06911 0.34443 0.0
C723 C 0.46993 0.07249 0.31935 0.0
C724 C 0.46905 0.08021 0.36528 0.0
C725 C 0.45028 0.09586 0.36033 0.0
H726 H 0.4253 0.10888 0.33122 0.0
H727 H 0.47743 0.0632 0.30341 0.0
C728 C 0.37715 1.00206 0.24978 0.0
N729 N 0.36924 0.0243 0.25876 0.0
C730 C 0.36266 0.97768 0.25174 0.0
C731 C 0.33121 0.99937 0.27068 0.0
C732 C 0.34639 0.02338 0.26847 0.0
C733 C 0.33964 0.9762 0.26271 0.0
H734 H 0.39499 1.00322 0.24145 0.0
H735 H 0.33986 0.04115 0.27457 0.0
C736 C 0.45814 0.12194 0.24865 0.0
N737 N 0.50319 0.14481 0.23212 0.0
C738 C 0.45902 0.14469 0.23579 0.0
C739 C 0.48013 0.11083 0.25319 0.0
C740 C 0.482 0.15596 0.22757 0.0
C741 C 0.50273 0.12269 0.24464 0.0
C742 C 0.36892 0.0589 0.2134 0.0
C743 C 0.37265 0.03829 0.19646 0.0
C744 C 0.34431 0.06172 0.21867 0.0
C745 C 0.35161 0.0207 0.18512 0.0
C746 C 0.32377 0.04372 0.20693 0.0
N747 N 0.32782 0.02375 0.19056 0.0
C748 C 0.44891 0.04484 0.19761 0.0
C749 C 0.45099 0.08858 0.18696 0.0
C750 C 0.46042 0.03833 0.17565 0.0
N751 N 0.44454 0.06966 0.20303 0.0
C752 C 0.46251 0.08288 0.16469 0.0
C753 C 0.46733 0.05744 0.15883 0.0
H754 H 0.44295 0.02987 0.2101 0.0
H755 H 0.44681 0.10801 0.19112 0.0
C756 C 0.38139 0.15141 0.2727 0.0
N757 N 0.37888 0.13366 0.25202 0.0
C758 C 0.36603 0.17098 0.27345 0.0
C759 C 0.34629 0.15431 0.23129 0.0
C760 C 0.3621 0.13512 0.23129 0.0
C761 C 0.34781 0.17223 0.25278 0.0
H762 H 0.39463 0.14973 0.28907 0.0
H763 H 0.36032 0.12079 0.21509 0.0
O764 O 0.42852 0.05023 0.25902 0.0
O765 O 0.39374 0.08477 0.28501 0.0
O766 O 0.43575 0.1103 0.25635 0.0
O767 O 0.38932 0.07569 0.22544 0.0
H768 H 0.40905 0.02749 0.29809 0.0
H769 H 0.47012 0.03097 0.24986 0.0
H770 H 0.42765 0.99424 0.32198 0.0
H771 H 0.48747 0.99735 0.27433 0.0
H772 H 0.31652 0.0936 0.31092 0.0
H773 H 0.39648 0.05819 0.32634 0.0
H774 H 0.34931 0.10145 0.28069 0.0
H775 H 0.36267 0.05072 0.35547 0.0
H776 H 0.49409 0.05705 0.34754 0.0
H777 H 0.44181 0.10473 0.37595 0.0
H778 H 0.36949 0.96012 0.24505 0.0
H779 H 0.31327 0.99884 0.27881 0.0
H780 H 0.44208 0.15342 0.23207 0.0
H781 H 0.47965 0.09312 0.26299 0.0
H782 H 0.48298 0.17353 0.21752 0.0
H783 H 0.5199 0.11427 0.24791 0.0
H784 H 0.39161 0.03574 0.19235 0.0
H785 H 0.34114 0.07735 0.23204 0.0
H786 H 0.3542 1.00457 0.17208 0.0
H787 H 0.30463 0.04554 0.21096 0.0
H788 H 0.46355 0.01844 0.17159 0.0
H789 H 0.46735 0.09807 0.15202 0.0
H790 H 0.36762 0.18436 0.29042 0.0
H791 H 0.33237 0.15458 0.21508 0.0
Li792 Li 0.26563 0.16696 0.50901 0.0
Li793 Li 0.28431 0.12991 0.49272 0.0
Li794 Li 0.27288 0.16288 0.4648 0.0
Li795 Li 0.24011 0.13132 0.48103 0.0
C796 C 0.31478 0.1844 0.51179 0.0
N797 N 0.34636 0.21851 0.54774 0.0
C798 C 0.33255 0.17514 0.52851 0.0
C799 C 0.3132 0.21105 0.51326 0.0
C800 C 0.34834 0.1927 0.54655 0.0
C801 C 0.32927 0.22796 0.53162 0.0
C802 C 0.23972 0.1155 0.52797 0.0
C803 C 0.21652 0.07384 0.53618 0.0
N804 N 0.20266 0.08624 0.55207 0.0
C805 C 0.22528 0.12784 0.54442 0.0
C806 C 0.23528 0.08829 0.52377 0.0
C807 C 0.20661 0.1127 0.55639 0.0
C808 C 0.24588 0.20531 0.53742 0.0
N809 N 0.26372 0.1893 0.53805 0.0
C810 C 0.27478 0.20031 0.58276 0.0
C811 C 0.27807 0.18651 0.56005 0.0
C812 C 0.25614 0.21648 0.58271 0.0
C813 C 0.24167 0.2192 0.5598 0.0
H814 H 0.23418 0.20641 0.51981 0.0
H815 H 0.29138 0.17283 0.5601 0.0
C816 C 0.33019 0.10954 0.48954 0.0
N817 N 0.30889 0.10854 0.50197 0.0
C818 C 0.34931 0.09558 0.49767 0.0
C819 C 0.32437 0.08012 0.53138 0.0
C820 C 0.30571 0.09432 0.52258 0.0
C821 C 0.34644 0.08086 0.5189 0.0
H822 H 0.33258 0.1217 0.47375 0.0
H823 H 0.28906 0.09458 0.53266 0.0
C824 C 0.23105 0.18526 0.46357 0.0
N825 N 0.21089 0.21718 0.42995 0.0
C826 C 0.21149 0.17473 0.44462 0.0
C827 C 0.24029 0.21203 0.46549 0.0
C828 C 0.20159 0.19119 0.42776 0.0
C829 C 0.22983 0.22784 0.44832 0.0
C830 C 0.27816 0.10639 0.44625 0.0
C831 C 0.29571 0.1142 0.42901 0.0
C832 C 0.27425 0.08047 0.45251 0.0
C833 C 0.30928 0.09592 0.41847 0.0
C834 C 0.28826 0.06281 0.44164 0.0
N835 N 0.30534 0.07083 0.42499 0.0
C836 C 0.30219 0.20246 0.44121 0.0
C837 C 0.26613 0.1798 0.41493 0.0
C838 C 0.30719 0.2201 0.42271 0.0
N839 N 0.28161 0.18322 0.43725 0.0
C840 C 0.27027 0.19716 0.39604 0.0
C841 C 0.29072 0.21779 0.40016 0.0
H842 H 0.31436 0.20452 0.45897 0.0
H843 H 0.25008 0.16417 0.41223 0.0
C844 C 0.1893 0.1249 0.48773 0.0
N845 N 0.2065 0.1125 0.47642 0.0
C846 C 0.16463 0.11215 0.48874 0.0
C847 C 0.17542 0.07426 0.46557 0.0
C848 C 0.20009 0.08776 0.46515 0.0
C849 C 0.15763 0.08643 0.47793 0.0
H850 H 0.19508 0.14448 0.49674 0.0
H851 H 0.21426 0.07831 0.45653 0.0
O852 O 0.29906 0.16752 0.49404 0.0
O853 O 0.25802 0.12996 0.51594 0.0
O854 O 0.24111 0.16945 0.48015 0.0
O855 O 0.26492 0.12406 0.45698 0.0
H856 H 0.33408 0.15462 0.5277 0.0
H857 H 0.29947 0.21854 0.50057 0.0
H858 H 0.36213 0.18579 0.55965 0.0
H859 H 0.32812 0.24858 0.53308 0.0
H860 H 0.21287 0.05277 0.53307 0.0
H861 H 0.22827 0.14886 0.5478 0.0
H862 H 0.24608 0.07843 0.51088 0.0
H863 H 0.19524 0.12199 0.56909 0.0
H864 H 0.28589 0.19763 0.60037 0.0
H865 H 0.2269 0.23131 0.55945 0.0
H866 H 0.36637 0.09666 0.48789 0.0
H867 H 0.32187 0.06911 0.54801 0.0
H868 H 0.20421 0.15403 0.44276 0.0
H869 H 0.25547 0.22048 0.48 0.0
H870 H 0.18655 0.1833 0.41292 0.0
H871 H 0.23678 0.24859 0.44959 0.0
H872 H 0.29893 0.1342 0.42396 0.0
H873 H 0.26078 0.07416 0.46589 0.0
H874 H 0.32299 0.10168 0.40517 0.0
H875 H 0.2856 0.04273 0.44647 0.0
H876 H 0.32323 0.23577 0.42622 0.0
H877 H 0.25738 0.19488 0.37864 0.0
H878 H 0.15127 0.12203 0.49834 0.0
H879 H 0.17043 0.0544 0.457 0.0
Li880 Li 0.17006 0.03702 0.79517 0.0
Li881 Li 0.13739 0.00753 0.81604 0.0
Li882 Li 0.16843 0.98597 0.79275 0.0
Li883 Li 0.13578 0.00643 0.771 0.0
C884 C 0.17662 0.01361 0.84949 0.0
N885 N 0.17456 0.01417 0.90182 0.0
C886 C 0.17569 0.03698 0.86385 0.0
C887 C 0.17658 0.99054 0.86171 0.0
C888 C 0.17461 0.03685 0.8903 0.0
C889 C 0.17554 0.99123 0.88821 0.0
C890 C 0.11133 0.04542 0.7873 0.0
C891 C 0.06571 0.03779 0.77819 0.0
N892 N 0.06669 0.06221 0.77013 0.0
C893 C 0.11186 0.07055 0.77919 0.0
C894 C 0.08805 0.02901 0.78704 0.0
C895 C 0.08911 0.07864 0.77049 0.0
C896 C 0.18206 0.08397 0.77379 0.0
N897 N 0.18968 0.0711 0.79406 0.0
C898 C 0.22129 0.10798 0.80943 0.0
C899 C 0.20904 0.08247 0.81175 0.0
C900 C 0.21335 0.12167 0.78879 0.0
C901 C 0.19361 0.10935 0.77079 0.0
H902 H 0.16674 0.07453 0.75998 0.0
H903 H 0.21475 0.07189 0.82776 0.0
C904 C 0.10929 0.98417 0.8554 0.0
N905 N 0.11702 0.00667 0.84445 0.0
C906 C 0.0938 0.98425 0.87554 0.0
C907 C 0.09432 0.0305 0.87246 0.0
C908 C 0.10984 0.02956 0.85256 0.0
C909 C 0.08616 0.00768 0.8842 0.0
H910 H 0.11524 0.9662 0.84856 0.0
H911 H 0.1163 0.04719 0.84364 0.0
C912 C 0.17427 0.00826 0.74021 0.0
N913 N 0.17654 1.00238 0.68786 0.0
C914 C 0.1639 0.98462 0.72633 0.0
C915 C 0.18623 0.02877 0.7275 0.0
C916 C 0.16508 0.98206 0.69987 0.0
C917 C 0.18709 0.02544 0.70102 0.0
C918 C 0.1138 0.95497 0.78277 0.0
C919 C 0.12054 0.93545 0.7664 0.0
C920 C 0.08913 0.95228 0.79015 0.0
C921 C 0.10228 0.91397 0.75703 0.0
C922 C 0.07142 0.93052 0.78036 0.0
N923 N 0.07829 0.912 0.7641 0.0
C924 C 0.18169 0.9355 0.80085 0.0
C925 C 0.20651 0.96034 0.77317 0.0
C926 C 0.19425 0.91418 0.7961 0.0
N927 N 0.1879 0.95795 0.78929 0.0
C928 C 0.21944 0.9395 0.76781 0.0
C929 C 0.21319 0.91605 0.7792 0.0
H930 H 0.16659 0.93395 0.8133 0.0
H931 H 0.21103 0.9783 0.7641 0.0
C932 C 0.12085 0.02856 0.72777 0.0
N933 N 0.11454 0.0065 0.73984 0.0
C934 C 0.10783 0.03211 0.70455 0.0
C935 C 0.08117 0.99049 0.70673 0.0
C936 C 0.09497 0.98761 0.72995 0.0
C937 C 0.08787 0.01289 0.6938 0.0
H938 H 0.13623 0.04337 0.7362 0.0
H939 H 0.09001 0.97036 0.73987 0.0
O940 O 0.17663 0.01315 0.82347 0.0
O941 O 0.13346 0.03679 0.79518 0.0
O942 O 0.17265 0.01137 0.76606 0.0
O943 O 0.13148 0.97603 0.79238 0.0
H944 H 0.17542 0.05494 0.85458 0.0
H945 H 0.17709 0.97227 0.85079 0.0
H946 H 0.17369 0.05474 0.90165 0.0
H947 H 0.1754 0.97352 0.89793 0.0
H948 H 0.04759 0.02516 0.7777 0.0
H949 H 0.12961 0.08372 0.77961 0.0
H950 H 0.08731 0.0096 0.79333 0.0
H951 H 0.08926 0.09799 0.76403 0.0
H952 H 0.23645 0.11709 0.82371 0.0
H953 H 0.18703 0.1194 0.7547 0.0
H954 H 0.08815 0.9664 0.88451 0.0
H955 H 0.0891 0.04896 0.87899 0.0
H956 H 0.15467 0.96857 0.73582 0.0
H957 H 0.1948 0.04704 0.73795 0.0
H958 H 0.15685 0.96396 0.68887 0.0
H959 H 0.19616 0.04121 0.69094 0.0
H960 H 0.13969 0.93668 0.76109 0.0
H961 H 0.08369 0.96673 0.80339 0.0
H962 H 0.10722 0.89881 0.74422 0.0
H963 H 0.05223 0.9283 0.78578 0.0
H964 H 0.18908 0.89634 0.80526 0.0
H965 H 0.23407 0.94157 0.75479 0.0
H966 H 0.11337 0.04961 0.69497 0.0
H967 H 0.06573 0.97536 0.69878 0.0
Li968 Li 0.20433 0.91106 0.0248 0.0
Li969 Li 0.22863 0.87817 0.04687 0.0
Li970 Li 0.25004 0.91138 0.02359 0.0
Li971 Li 0.22379 0.87552 0.99804 0.0
C972 C 0.24709 0.93817 0.06564 0.0
N973 N 0.28024 0.98169 0.0873 0.0
C974 C 0.26738 0.93542 0.08338 0.0
C975 C 0.24362 0.96305 0.05896 0.0
C976 C 0.28396 0.95766 0.09408 0.0
C977 C 0.26057 0.98482 0.07014 0.0
C978 C 0.17511 0.85916 0.03266 0.0
C979 C 0.14208 0.82232 0.03433 0.0
N980 N 0.1327 0.83557 0.05352 0.0
C981 C 0.16513 0.87243 0.05237 0.0
C982 C 0.16349 0.83393 0.02349 0.0
C983 C 0.14367 0.86017 0.06267 0.0
C984 C 0.1598 0.93383 0.00644 0.0
N985 N 0.17659 0.93202 0.02709 0.0
C986 C 0.15689 0.962 0.05244 0.0
C987 C 0.17517 0.94555 0.0499 0.0
C988 C 0.13966 0.96461 0.03137 0.0
C989 C 0.14109 0.95002 0.00818 0.0
H990 H 0.16117 0.92304 0.98844 0.0
H991 H 0.18851 0.94385 0.06617 0.0
C992 C 0.25844 0.8601 0.08714 0.0
N993 N 0.23369 0.85954 0.07801 0.0
C994 C 0.26479 0.84923 0.1101 0.0
C995 C 0.22013 0.83671 0.11399 0.0
C996 C 0.21461 0.84786 0.0909 0.0
C997 C 0.24551 0.83749 0.12396 0.0
H998 H 0.27339 0.86944 0.07674 0.0
H999 H 0.19507 0.8474 0.08359 0.0
C1000 C 0.23352 0.93315 0.98027 0.0
N1001 N 0.25248 0.97277 0.95137 0.0
C1002 C 0.25192 0.92932 0.96377 0.0
C1003 C 0.2246 0.95705 0.98193 0.0
C1004 C 0.26135 0.94963 0.9494 0.0
C1005 C 0.23444 0.97684 0.96717 0.0
C1006 C 0.25835 0.84877 0.02112 0.0
C1007 C 0.28226 0.84284 0.01658 0.0
C1008 C 0.23866 0.82854 0.02415 0.0
C1009 C 0.28608 0.81682 0.01528 0.0
C1010 C 0.24325 0.80278 0.02277 0.0
N1011 N 0.26666 0.7975 0.01839 0.0
C1012 C 0.30292 0.92007 0.02936 0.0
C1013 C 0.28701 0.95786 0.01673 0.0
C1014 C 0.3278 0.93196 0.02751 0.0
N1015 N 0.28304 0.93277 0.02337 0.0
C1016 C 0.3117 0.97058 0.01468 0.0
C1017 C 0.33232 0.95732 0.01966 0.0
H1018 H 0.29945 0.9005 0.03533 0.0
H1019 H 0.27112 0.96796 0.01268 0.0
C1020 C 0.20268 0.84263 0.95015 0.0
N1021 N 0.22374 0.85491 0.96522 0.0
C1022 C 0.20499 0.8302 0.92599 0.0
C1023 C 0.25045 0.84285 0.93345 0.0
C1024 C 0.2473 0.85499 0.95728 0.0
C1025 C 0.22916 0.83045 0.9173 0.0
H1026 H 0.18408 0.8429 0.95658 0.0
H1027 H 0.26381 0.8651 0.96927 0.0
O1028 O 0.23106 0.91659 0.0544 0.0
O1029 O 0.19587 0.87092 0.02203 0.0
O1030 O 0.2239 0.91349 0.99439 0.0
O1031 O 0.25434 0.87422 0.02224 0.0
H1032 H 0.27041 0.91632 0.08869 0.0
H1033 H 0.22826 0.96552 0.04496 0.0
H1034 H 0.29981 0.95581 0.10774 0.0
H1035 H 0.25819 1.00418 0.06504 0.0
H1036 H 0.13291 0.80279 0.02745 0.0
H1037 H 0.17411 0.8918 0.05992 0.0
H1038 H 0.17094 0.82346 0.00815 0.0
H1039 H 0.13581 0.87016 0.07802 0.0
H1040 H 0.15641 0.97288 0.07063 0.0
H1041 H 0.12816 0.95154 0.99148 0.0
H1042 H 0.28458 0.85026 0.11717 0.0
H1043 H 0.20473 0.82782 0.12415 0.0
H1044 H 0.25906 0.91099 0.96229 0.0
H1045 H 0.21034 0.96033 0.99458 0.0
H1046 H 0.27574 0.94702 0.9367 0.0
H1047 H 0.22777 0.99546 0.9683 0.0
H1048 H 0.29769 0.85813 0.01387 0.0
H1049 H 0.22004 0.83258 0.02766 0.0
H1050 H 0.30447 0.81198 0.01174 0.0
H1051 H 0.22818 0.78699 0.02516 0.0
H1052 H 0.34337 0.92137 0.03187 0.0
H1053 H 0.31466 0.99035 0.00893 0.0
H1054 H 0.18809 0.82091 0.91401 0.0
H1055 H 0.26935 0.84362 0.92742 0.0
Li1056 Li 0.23858 0.4284 0.03268 0.0
Li1057 Li 0.24991 0.39498 0.059 0.0
Li1058 Li 0.28232 0.42764 0.04358 0.0
Li1059 Li 0.25767 0.39283 0.01488 0.0
C1060 C 0.2429 0.44865 0.08081 0.0
N1061 N 0.21313 0.47904 0.10583 0.0
C1062 C 0.22425 0.43711 0.09535 0.0
C1063 C 0.24666 0.47569 0.07932 0.0
C1064 C 0.20936 0.4528 0.1078 0.0
C1065 C 0.23132 0.49069 0.09198 0.0
C1066 C 0.2045 0.38575 0.00984 0.0
C1067 C 0.16196 0.36554 0.99348 0.0
N1068 N 0.16477 0.37715 0.97125 0.0
C1069 C 0.20693 0.39749 0.98678 0.0
C1070 C 0.18179 0.36968 0.0132 0.0
C1071 C 0.18664 0.3929 0.96754 0.0
C1072 C 0.21675 0.46626 0.00566 0.0
N1073 N 0.21364 0.44983 0.02466 0.0
C1074 C 0.17283 0.46117 0.03025 0.0
C1075 C 0.19206 0.44674 0.03667 0.0
C1076 C 0.1758 0.47842 0.01098 0.0
C1077 C 0.19792 0.48091 0.99849 0.0
H1078 H 0.23352 0.4676 0.99563 0.0
H1079 H 0.18962 0.43277 0.05094 0.0
C1080 C 0.26267 0.37139 0.10308 0.0
N1081 N 0.24299 0.37318 0.08546 0.0
C1082 C 0.25923 0.35446 0.12235 0.0
C1083 C 0.21537 0.34134 0.10478 0.0
C1084 C 0.2197 0.35852 0.08574 0.0
C1085 C 0.23534 0.33941 0.12333 0.0
H1086 H 0.28102 0.3831 0.10204 0.0
H1087 H 0.20455 0.36027 0.07127 0.0
C1088 C 0.27997 0.44986 0.99895 0.0
N1089 N 0.3111 0.48953 0.97922 0.0
C1090 C 0.29075 0.44506 0.9762 0.0
C1091 C 0.28467 0.47499 0.01138 0.0
C1092 C 0.30652 0.46532 0.96661 0.0
C1093 C 0.30054 0.49474 1.00118 0.0
C1094 C 0.28726 0.36504 0.04451 0.0
C1095 C 0.31254 0.36112 0.0479 0.0
C1096 C 0.26777 0.34354 0.04092 0.0
C1097 C 0.31793 0.33566 0.04784 0.0
C1098 C 0.27393 0.31839 0.04102 0.0
N1099 N 0.29867 0.31501 0.04444 0.0
C1100 C 0.32329 0.46716 0.06657 0.0
C1101 C 0.33112 0.43866 0.03202 0.0
C1102 C 0.34768 0.48151 0.06693 0.0
N1103 N 0.31557 0.4464 0.04903 0.0
C1104 C 0.35525 0.45271 0.0313 0.0
C1105 C 0.36358 0.47454 0.04867 0.0
H1106 H 0.31035 0.47289 0.07973 0.0
H1107 H 0.32432 0.42206 0.01837 0.0
C1108 C 0.24232 0.3509 0.97602 0.0
N1109 N 0.26116 0.36998 0.98698 0.0
C1110 C 0.24566 0.3369 0.95341 0.0
C1111 C 0.28846 0.3608 0.95543 0.0
C1112 C 0.28428 0.37426 0.97795 0.0
C1113 C 0.26864 0.34266 0.94258 0.0
H1114 H 0.22447 0.34717 0.98423 0.0
H1115 H 0.29908 0.38899 0.98771 0.0
O1116 O 0.25746 0.43356 0.06823 0.0
O1117 O 0.22389 0.39023 0.02928 0.0
O1118 O 0.26489 0.4301 0.00899 0.0
O1119 O 0.28176 0.38986 0.04419 0.0
H1120 H 0.22111 0.41625 0.0968 0.0
H1121 H 0.26123 0.48502 0.0685 0.0
H1122 H 0.19474 0.44411 0.11897 0.0
H1123 H 0.23389 0.51162 0.09083 0.0
H1124 H 0.14431 0.35311 0.99585 0.0
H1125 H 0.22424 0.40995 0.98361 0.0
H1126 H 0.17947 0.36049 0.03089 0.0
H1127 H 0.1883 0.40185 0.94964 0.0
H1128 H 0.15572 0.45871 0.03997 0.0
H1129 H 0.20048 0.49392 0.98333 0.0
H1130 H 0.27485 0.35348 0.13667 0.0
H1131 H 0.19666 0.33015 0.10541 0.0
H1132 H 0.28687 0.42596 0.96593 0.0
H1133 H 0.27633 0.4791 0.02885 0.0
H1134 H 0.31508 0.46182 0.94909 0.0
H1135 H 0.30449 0.5142 0.01076 0.0
H1136 H 0.32784 0.3776 0.05051 0.0
H1137 H 0.2481 0.34623 0.03794 0.0
H1138 H 0.33742 0.33232 0.05046 0.0
H1139 H 0.25905 0.30157 0.0383 0.0
H1140 H 0.35382 0.49823 0.08067 0.0
H1141 H 0.36725 0.4468 0.01718 0.0
H1142 H 0.23012 0.32285 0.94375 0.0
H1143 H 0.30638 0.36551 0.94737 0.0
Li1144 Li 0.80412 0.19065 0.03479 0.0
Li1145 Li 0.82339 0.156 0.00847 0.0
Li1146 Li 0.80059 0.19075 0.98602 0.0
Li1147 Li 0.77784 0.15657 0.00777 0.0
C1148 C 0.85569 0.20511 0.02491 0.0
N1149 N 0.90225 0.22279 0.05243 0.0
C1150 C 0.86488 0.19068 0.04417 0.0
C1151 C 0.87013 0.22853 0.01966 0.0
C1152 C 0.88849 0.19993 0.05784 0.0
C1153 C 0.89362 0.23716 0.03381 0.0
C1154 C 0.7887 0.13201 0.04795 0.0
C1155 C 0.7743 0.08575 0.04833 0.0
N1156 N 0.76007 0.0906 0.06774 0.0
C1157 C 0.77402 0.13652 0.06797 0.0
C1158 C 0.78889 0.10642 0.03804 0.0
C1159 C 0.75964 0.11533 0.07768 0.0
C1160 C 0.77984 0.21067 0.07517 0.0
N1161 N 0.80372 0.21065 0.06808 0.0
C1162 C 0.82134 0.23382 0.10849 0.0
C1163 C 0.82438 0.22228 0.08416 0.0
C1164 C 0.79684 0.2335 0.11633 0.0
C1165 C 0.77597 0.22199 0.09913 0.0
H1166 H 0.76363 0.20111 0.06242 0.0
H1167 H 0.84325 0.22219 0.07847 0.0
C1168 C 0.86555 0.13573 0.98711 0.0
N1169 N 0.85098 0.13464 0.00711 0.0
C1170 C 0.88527 0.12075 0.98588 0.0
C1171 C 0.87446 0.10316 0.02547 0.0
C1172 C 0.85522 0.11874 0.02615 0.0
C1173 C 0.89002 0.10423 0.00528 0.0
H1174 H 0.86199 0.14841 0.97213 0.0
H1175 H 0.84381 0.11829 0.04211 0.0
C1176 C 0.77086 0.21955 0.01204 0.0
N1177 N 0.76362 0.27114 0.01577 0.0
C1178 C 0.7463 0.22575 0.01121 0.0
C1179 C 0.79174 0.23966 0.0148 0.0
C1180 C 0.74304 0.25193 0.01311 0.0
C1181 C 0.78768 0.2656 0.01665 0.0
C1182 C 0.78296 0.13448 0.96087 0.0
C1183 C 0.7613 0.14099 0.94759 0.0
C1184 C 0.78927 0.10959 0.95643 0.0
C1185 C 0.74605 0.12227 0.93024 0.0
C1186 C 0.77356 0.09143 0.93888 0.0
N1187 N 0.75245 0.09809 0.92629 0.0
C1188 C 0.81658 0.2146 0.93957 0.0
C1189 C 0.77459 0.21772 0.94842 0.0
C1190 C 0.81289 0.2266 0.91654 0.0
N1191 N 0.79751 0.21034 0.95508 0.0
C1192 C 0.7703 0.23024 0.92598 0.0
C1193 C 0.78945 0.23466 0.90946 0.0
H1194 H 0.83452 0.2082 0.94476 0.0
H1195 H 0.75923 0.21336 0.9602 0.0
C1196 C 0.72726 0.14814 0.01764 0.0
N1197 N 0.74475 0.13534 0.00731 0.0
C1198 C 0.70267 0.13534 0.0193 0.0
C1199 C 0.71442 0.09593 1.00023 0.0
C1200 C 0.73883 0.10961 0.99874 0.0
C1201 C 0.69605 0.10893 0.01055 0.0
H1202 H 0.73253 0.1683 0.02502 0.0
H1203 H 0.7531 0.09952 0.99123 0.0
O1204 O 0.83281 0.19625 0.01103 0.0
O1205 O 0.80253 0.15252 0.03783 0.0
O1206 O 0.77424 0.19391 0.01032 0.0
O1207 O 0.79807 0.15247 0.97797 0.0
H1208 H 0.85382 0.17266 0.04867 0.0
H1209 H 0.86324 0.23988 0.00477 0.0
H1210 H 0.89584 0.18898 0.07281 0.0
H1211 H 0.90502 0.25526 0.02996 0.0
H1212 H 0.77414 0.06588 0.04073 0.0
H1213 H 0.77365 0.15615 0.0759 0.0
H1214 H 0.79976 0.10259 0.02222 0.0
H1215 H 0.7481 0.11855 0.0931 0.0
H1216 H 0.83794 0.2424 0.12129 0.0
H1217 H 0.75681 0.22118 0.10447 0.0
H1218 H 0.89688 0.12223 0.97003 0.0
H1219 H 0.8776 0.09085 0.04089 0.0
H1220 H 0.72989 0.2105 0.00898 0.0
H1221 H 0.81089 0.23544 0.01557 0.0
H1222 H 0.72413 0.25697 0.01244 0.0
H1223 H 0.80367 0.28132 0.0188 0.0
H1224 H 0.75618 0.1602 0.95086 0.0
H1225 H 0.80604 0.10433 0.96656 0.0
H1226 H 0.72913 0.12694 0.91994 0.0
H1227 H 0.77812 0.07204 0.93531 0.0
H1228 H 0.82813 0.22945 0.90428 0.0
H1229 H 0.75191 0.2359 0.92123 0.0
H1230 H 0.689 0.14584 0.02762 0.0
H1231 H 0.70994 0.07543 0.9936 0.0
Li1232 Li 0.14017 0.52287 0.28177 0.0
Li1233 Li 0.10601 0.5012 0.30299 0.0
Li1234 Li 0.13698 0.47526 0.28323 0.0
Li1235 Li 0.10448 0.49759 0.25362 0.0
C1236 C 0.16065 0.51136 0.33209 0.0
N1237 N 0.19705 0.52951 0.37258 0.0
C1238 C 0.15475 0.52698 0.3527 0.0
C1239 C 0.18494 0.50456 0.33236 0.0
C1240 C 0.17344 0.53607 0.37291 0.0
C1241 C 0.20311 0.51405 0.35292 0.0
C1242 C 0.10441 0.55431 0.28243 0.0
C1243 C 0.09765 0.59582 0.26746 0.0
N1244 N 0.10637 0.60762 0.29112 0.0
C1245 C 0.11314 0.56684 0.30662 0.0
C1246 C 0.09644 0.56887 0.2627 0.0
C1247 C 0.11408 0.59381 0.31062 0.0
C1248 C 0.16127 0.56564 0.25739 0.0
N1249 N 0.16316 0.55514 0.28038 0.0
C1250 C 0.19309 0.5924 0.2982 0.0
C1251 C 0.17885 0.56791 0.30063 0.0
C1252 C 0.19113 0.60367 0.27473 0.0
C1253 C 0.17527 0.58989 0.25406 0.0
H1254 H 0.14831 0.55543 0.24175 0.0
H1255 H 0.1799 0.55961 0.31885 0.0
C1256 C 0.09213 0.49189 0.35394 0.0
N1257 N 0.08629 0.5042 0.3326 0.0
C1258 C 0.08006 0.49574 0.37623 0.0
C1259 C 0.05584 0.5246 0.3543 0.0
C1260 C 0.06831 0.52015 0.3324 0.0
C1261 C 0.06183 0.51249 0.37667 0.0
H1262 H 0.10661 0.47949 0.35386 0.0
H1263 H 0.06397 0.52987 0.31537 0.0
C1264 C 0.16307 0.50347 0.24123 0.0
N1265 N 0.20653 0.51835 0.21768 0.0
C1266 C 0.1613 0.50785 0.21523 0.0
C1267 C 0.18694 0.50634 0.25515 0.0
C1268 C 0.18349 0.51543 0.20369 0.0
C1269 C 0.20868 0.51398 0.24295 0.0
C1270 C 0.07874 0.45576 0.28988 0.0
C1271 C 0.08366 0.43822 0.30801 0.0
C1272 C 0.05423 0.46169 0.28524 0.0
C1273 C 0.06388 0.42688 0.3213 0.0
C1274 C 0.03498 0.44997 0.29896 0.0
N1275 N 0.04016 0.43297 0.31655 0.0
C1276 C 0.16207 0.43733 0.30894 0.0
C1277 C 0.16586 0.4369 0.2644 0.0
C1278 C 0.17744 0.41782 0.31131 0.0
N1279 N 0.15659 0.44652 0.28574 0.0
C1280 C 0.18124 0.41736 0.26591 0.0
C1281 C 0.18733 0.40767 0.28961 0.0
H1282 H 0.1547 0.44534 0.32571 0.0
H1283 H 0.16146 0.44454 0.24617 0.0
C1284 C 0.09428 0.5189 0.20651 0.0
N1285 N 0.08612 0.49788 0.2195 0.0
C1286 C 0.08325 0.52159 0.18183 0.0
C1287 C 0.05546 0.48078 0.18374 0.0
C1288 C 0.067 0.47892 0.2086 0.0
C1289 C 0.06363 0.50238 0.17006 0.0
H1290 H 0.10966 0.5336 0.21529 0.0
H1291 H 0.06077 0.46228 0.21908 0.0
O1292 O 0.14251 0.50205 0.31223 0.0
O1293 O 0.10362 0.52792 0.27815 0.0
O1294 O 0.14154 0.49636 0.25298 0.0
O1295 O 0.09804 0.46786 0.27746 0.0
H1296 H 0.13595 0.53202 0.3532 0.0
H1297 H 0.18972 0.49194 0.317 0.0
H1298 H 0.16916 0.54827 0.38889 0.0
H1299 H 0.22201 0.50903 0.3533 0.0
H1300 H 0.0916 0.60733 0.25235 0.0
H1301 H 0.11926 0.55587 0.32208 0.0
H1302 H 0.08922 0.55951 0.24398 0.0
H1303 H 0.12094 0.60376 0.32923 0.0
H1304 H 0.20502 0.60272 0.31459 0.0
H1305 H 0.17317 0.59819 0.23578 0.0
H1306 H 0.08515 0.48602 0.39309 0.0
H1307 H 0.04182 0.53757 0.35388 0.0
H1308 H 0.14303 0.50533 0.20403 0.0
H1309 H 0.18862 0.50298 0.27522 0.0
H1310 H 0.1824 0.51896 0.1836 0.0
H1311 H 0.22727 0.51646 0.25357 0.0
H1312 H 0.10261 0.43363 0.31195 0.0
H1313 H 0.05023 0.47543 0.27142 0.0
H1314 H 0.0674 0.41334 0.33547 0.0
H1315 H 0.01594 0.45447 0.29568 0.0
H1316 H 0.18153 0.41066 0.32987 0.0
H1317 H 0.18834 0.40986 0.24872 0.0
H1318 H 0.09012 0.53846 0.1719 0.0
H1319 H 0.04036 0.46554 0.17526 0.0
Li1320 Li 0.73348 0.9312 0.53635 0.0
Li1321 Li 0.75036 0.89933 0.55931 0.0
Li1322 Li 0.77888 0.93835 0.54538 0.0
Li1323 Li 0.75607 0.90116 0.5156 0.0
C1324 C 0.7415 0.95412 0.58403 0.0
N1325 N 0.71687 0.98885 0.61029 0.0
C1326 C 0.71668 0.94634 0.58997 0.0
C1327 C 0.75393 0.97944 0.59173 0.0
C1328 C 0.7045 0.96423 0.60314 0.0
C1329 C 0.74113 0.99673 0.60494 0.0
C1330 C 0.70763 0.87286 0.53863 0.0
C1331 C 0.69812 0.82755 0.54724 0.0
N1332 N 0.67633 0.83222 0.5568 0.0
C1333 C 0.68513 0.8772 0.5486 0.0
C1334 C 0.71415 0.8478 0.53794 0.0
C1335 C 0.66955 0.8564 0.55763 0.0
C1336 C 0.68456 0.93927 0.51765 0.0
N1337 N 0.70717 0.95123 0.52996 0.0
C1338 C 0.69376 0.99291 0.52923 0.0
C1339 C 0.71229 0.97758 0.53525 0.0
C1340 C 0.66998 0.98085 0.51751 0.0
C1341 C 0.66542 0.95382 0.51141 0.0
H1342 H 0.68156 0.91853 0.51229 0.0
H1343 H 0.73092 0.98674 0.54369 0.0
C1344 C 0.76751 0.86226 0.58932 0.0
N1345 N 0.74803 0.87603 0.5856 0.0
C1346 C 0.7677 0.84506 0.60845 0.0
C1347 C 0.72748 0.85608 0.61945 0.0
C1348 C 0.72817 0.87328 0.60016 0.0
C1349 C 0.74771 0.8422 0.6239 0.0
H1350 H 0.78338 0.86528 0.57805 0.0
H1351 H 0.71316 0.88478 0.59717 0.0
C1352 C 0.74726 0.94996 0.49271 0.0
N1353 N 0.72078 0.97216 0.45466 0.0
C1354 C 0.72948 0.93423 0.47486 0.0
C1355 C 0.75151 0.97701 0.49122 0.0
C1356 C 0.71631 0.94582 0.45576 0.0
C1357 C 0.73793 0.98785 0.47184 0.0
C1358 C 0.79973 0.88735 0.53258 0.0
C1359 C 0.82243 0.90081 0.52563 0.0
C1360 C 0.7941 0.86023 0.52741 0.0
C1361 C 0.83904 0.88698 0.51349 0.0
C1362 C 0.81118 0.8471 0.51521 0.0
N1363 N 0.8331 0.86064 0.50855 0.0
C1364 C 0.82501 0.96141 0.57365 0.0
C1365 C 0.81697 0.97617 0.53236 0.0
C1366 C 0.85003 0.97443 0.57572 0.0
N1367 N 0.80942 0.96196 0.55188 0.0
C1368 C 0.84168 0.9896 0.53369 0.0
C1369 C 0.85864 0.98795 0.55516 0.0
H1370 H 0.81854 0.94942 0.58857 0.0
H1371 H 0.80443 0.97549 0.51498 0.0
C1372 C 0.74372 0.85939 0.47734 0.0
N1373 N 0.75994 0.88175 0.48541 0.0
C1374 C 0.74795 0.84436 0.45573 0.0
C1375 C 0.78511 0.87606 0.45102 0.0
C1376 C 0.78005 0.89056 0.47257 0.0
C1377 C 0.76894 0.85273 0.44262 0.0
H1378 H 0.72749 0.85333 0.48753 0.0
H1379 H 0.79226 0.90872 0.47931 0.0
O1380 O 0.75371 0.93704 0.57093 0.0
O1381 O 0.72319 0.893 0.52969 0.0
O1382 O 0.75976 0.93901 0.51204 0.0
O1383 O 0.78306 0.90068 0.54419 0.0
H1384 H 0.7068 0.92685 0.58409 0.0
H1385 H 0.7732 0.98571 0.58735 0.0
H1386 H 0.6852 0.95857 0.60763 0.0
H1387 H 0.75045 0.01644 0.6109 0.0
H1388 H 0.70307 0.80813 0.54697 0.0
H1389 H 0.67985 0.89645 0.54976 0.0
H1390 H 0.73164 0.84408 0.53073 0.0
H1391 H 0.65216 0.85954 0.56547 0.0
H1392 H 0.69778 0.01383 0.53389 0.0
H1393 H 0.64723 0.94414 0.50208 0.0
H1394 H 0.78387 0.83508 0.61201 0.0
H1395 H 0.71215 0.85468 0.63166 0.0
H1396 H 0.72551 0.91334 0.47601 0.0
H1397 H 0.76477 0.98958 0.50516 0.0
H1398 H 0.70243 0.93388 0.44191 0.0
H1399 H 0.74092 0.00875 0.47056 0.0
H1400 H 0.82706 0.92173 0.52926 0.0
H1401 H 0.77661 0.84943 0.53251 0.0
H1402 H 0.8566 0.89721 0.5079 0.0
H1403 H 0.80696 0.82616 0.51098 0.0
H1404 H 0.86296 0.97253 0.59231 0.0
H1405 H 0.84805 0.99949 0.51738 0.0
H1406 H 0.73491 0.82664 0.44912 0.0
H1407 H 0.80114 0.8831 0.44077 0.0
Li1408 Li 0.88915 0.05658 0.26384 0.0
Li1409 Li 0.85364 0.02708 0.23381 0.0
Li1410 Li 0.888 0.05626 0.21682 0.0
Li1411 Li 0.85615 0.07507 0.23749 0.0
C1412 C 0.90997 0.01579 0.22875 0.0
N1413 N 0.9484 0.99476 0.2074 0.0
C1414 C 0.90426 0.99741 0.2076 0.0
C1415 C 0.9352 0.02346 0.23907 0.0
C1416 C 0.92397 0.98702 0.19706 0.0
C1417 C 0.95437 0.0126 0.22799 0.0
C1418 C 0.83293 0.05962 0.27716 0.0
C1419 C 0.78892 0.06423 0.27856 0.0
N1420 N 0.79532 0.08015 0.30051 0.0
C1421 C 0.83907 0.07592 0.29979 0.0
C1422 C 0.80766 0.0536 0.26649 0.0
C1423 C 0.81977 0.08614 0.31128 0.0
C1424 C 0.9139 0.07952 0.31222 0.0
N1425 N 0.90837 0.05745 0.29603 0.0
C1426 C 0.92746 0.03287 0.32698 0.0
C1427 C 0.9149 0.03442 0.30287 0.0
C1428 C 0.93302 0.05518 0.34422 0.0
C1429 C 0.92633 0.07881 0.33668 0.0
H1430 H 0.90816 0.09747 0.30634 0.0
H1431 H 0.90988 0.01712 0.28973 0.0
C1432 C 0.83058 0.97483 0.21341 0.0
N1433 N 0.8333 0.99325 0.23354 0.0
C1434 C 0.81936 0.94907 0.21614 0.0
C1435 C 0.81286 0.96213 0.25972 0.0
C1436 C 0.82436 0.98744 0.25625 0.0
C1437 C 0.81085 0.94249 0.23974 0.0
H1438 H 0.83808 0.97983 0.19563 0.0
H1439 H 0.82719 1.00219 0.27215 0.0
C1440 C 0.91201 0.10727 0.24327 0.0
N1441 N 0.95009 0.14989 0.2448 0.0
C1442 C 0.90733 0.1297 0.23162 0.0
C1443 C 0.93592 0.10672 0.25612 0.0
C1444 C 0.92686 0.15099 0.23249 0.0
C1445 C 0.95496 0.1284 0.25654 0.0
C1446 C 0.84389 0.06364 0.18484 0.0
C1447 C 0.85926 0.08665 0.17996 0.0
C1448 C 0.82173 0.05432 0.16869 0.0
C1449 C 0.85219 0.10001 0.15896 0.0
C1450 C 0.81528 0.06825 0.14789 0.0
N1451 N 0.83052 0.09062 0.1435 0.0
C1452 C 0.90281 0.04825 0.16555 0.0
C1453 C 0.93596 0.06827 0.19671 0.0
C1454 C 0.91988 0.04835 0.14678 0.0
N1455 N 0.91105 0.05823 0.19001 0.0
C1456 C 0.9536 0.06875 0.17864 0.0
C1457 C 0.94561 0.05865 0.15339 0.0
H1458 H 0.88309 0.03977 0.16068 0.0
H1459 H 0.94241 0.07516 0.21631 0.0
C1460 C 0.84669 0.12284 0.2587 0.0
N1461 N 0.83686 0.10339 0.24033 0.0
C1462 C 0.83365 0.14359 0.26379 0.0
C1463 C 0.8006 0.1243 0.23068 0.0
C1464 C 0.81423 0.1037 0.22635 0.0
C1465 C 0.81031 0.14446 0.24972 0.0
H1466 H 0.86453 0.12196 0.26976 0.0
H1467 H 0.80656 0.08782 0.21215 0.0
O1468 O 0.891 0.02659 0.239 0.0
O1469 O 0.85163 0.05018 0.26511 0.0
O1470 O 0.89295 0.08646 0.24321 0.0
O1471 O 0.85022 0.05039 0.20548 0.0
H1472 H 0.88486 0.99146 0.19925 0.0
H1473 H 0.93998 0.03791 0.25525 0.0
H1474 H 0.91986 0.97288 0.1806 0.0
H1475 H 0.97399 0.01845 0.2357 0.0
H1476 H 0.76932 0.05991 0.27042 0.0
H1477 H 0.85855 0.08085 0.30821 0.0
H1478 H 0.80267 0.04115 0.24887 0.0
H1479 H 0.82426 0.09892 0.32871 0.0
H1480 H 0.93223 0.01434 0.33241 0.0
H1481 H 0.93022 0.09627 0.34973 0.0
H1482 H 0.81825 0.93426 0.20042 0.0
H1483 H 0.8067 0.95762 0.27822 0.0
H1484 H 0.88875 0.1308 0.22219 0.0
H1485 H 0.93983 0.0896 0.2654 0.0
H1486 H 0.92352 0.16844 0.22348 0.0
H1487 H 0.97362 0.12814 0.26622 0.0
H1488 H 0.87654 0.09397 0.19212 0.0
H1489 H 0.80959 0.03655 0.17227 0.0
H1490 H 0.86395 0.11783 0.15495 0.0
H1491 H 0.79816 0.0613 0.13525 0.0
H1492 H 0.91318 0.04016 0.12746 0.0
H1493 H 0.97339 0.07652 0.18441 0.0
H1494 H 0.84167 0.15883 0.27861 0.0
H1495 H 0.78264 0.12444 0.21948 0.0
Li1496 Li 0.30429 0.68866 0.53276 0.0
Li1497 Li 0.32352 0.65617 0.50738 0.0
Li1498 Li 0.29995 0.69064 0.4847 0.0
Li1499 Li 0.2771 0.65325 0.5062 0.0
C1500 C 0.34954 0.71543 0.52188 0.0
N1501 N 0.38492 0.75503 0.5475 0.0
C1502 C 0.36553 0.71022 0.54274 0.0
C1503 C 0.35155 0.74073 0.51396 0.0
C1504 C 0.38328 0.73052 0.55548 0.0
C1505 C 0.36958 0.7605 0.52718 0.0
C1506 C 0.31372 0.63624 0.55227 0.0
C1507 C 0.32503 0.59499 0.56353 0.0
N1508 N 0.33917 0.60722 0.58494 0.0
C1509 C 0.3283 0.64839 0.57443 0.0
C1510 C 0.31197 0.60931 0.5468 0.0
C1511 C 0.34101 0.63337 0.59071 0.0
C1512 C 0.28601 0.6958 0.58045 0.0
N1513 N 0.30317 0.7084 0.56601 0.0
C1514 C 0.31289 0.74431 0.59855 0.0
C1515 C 0.31633 0.73248 0.57449 0.0
C1516 C 0.29533 0.73154 0.6138 0.0
C1517 C 0.28172 0.70704 0.60429 0.0
H1518 H 0.27543 0.67691 0.5733 0.0
H1519 H 0.32939 0.74269 0.56268 0.0
C1520 C 0.35353 0.62184 0.4823 0.0
N1521 N 0.35178 0.63549 0.50497 0.0
C1522 C 0.37279 0.60644 0.4798 0.0
C1523 C 0.38828 0.61911 0.52397 0.0
C1524 C 0.36897 0.63452 0.52554 0.0
C1525 C 0.39041 0.60472 0.50088 0.0
H1526 H 0.33997 0.62288 0.46602 0.0
H1527 H 0.36777 0.6456 0.54333 0.0
C1528 C 0.26404 0.71105 0.5189 0.0
N1529 N 0.24568 0.75266 0.54184 0.0
C1530 C 0.24332 0.7066 0.53329 0.0
C1531 C 0.27535 0.73661 0.51602 0.0
C1532 C 0.23434 0.72793 0.54478 0.0
C1533 C 0.26581 0.7574 0.52781 0.0
C1534 C 0.28218 0.63186 0.46174 0.0
C1535 C 0.26513 0.63744 0.44194 0.0
C1536 C 0.28242 0.60598 0.46731 0.0
C1537 C 0.24843 0.61697 0.42808 0.0
C1538 C 0.26542 0.58606 0.45302 0.0
N1539 N 0.2489 0.59192 0.43388 0.0
C1540 C 0.31494 0.72047 0.44147 0.0
C1541 C 0.27122 0.71438 0.44758 0.0
C1542 C 0.31021 0.7334 0.41926 0.0
N1543 N 0.29549 0.71111 0.45509 0.0
C1544 C 0.26567 0.7271 0.42554 0.0
C1545 C 0.28525 0.73668 0.41095 0.0
H1546 H 0.33406 0.71752 0.44757 0.0
H1547 H 0.25599 0.70657 0.45847 0.0
C1548 C 0.24016 0.61142 0.51928 0.0
N1549 N 0.24437 0.6319 0.50455 0.0
C1550 C 0.21542 0.59845 0.52049 0.0
C1551 C 0.19993 0.62754 0.49097 0.0
C1552 C 0.22492 0.63992 0.49032 0.0
C1553 C 0.19498 0.60685 0.50654 0.0
H1554 H 0.25585 0.60576 0.53081 0.0
H1555 H 0.22877 0.65656 0.47914 0.0
O1556 O 0.33224 0.69579 0.50901 0.0
O1557 O 0.3012 0.65059 0.536 0.0
O1558 O 0.27371 0.69047 0.50828 0.0
O1559 O 0.29807 0.65167 0.47612 0.0
H1560 H 0.36412 0.69077 0.54914 0.0
H1561 H 0.33936 0.74502 0.49775 0.0
H1562 H 0.39573 0.7268 0.57173 0.0
H1563 H 0.37136 0.78019 0.52129 0.0
H1564 H 0.32397 0.57416 0.55947 0.0
H1565 H 0.33006 0.66922 0.57891 0.0
H1566 H 0.30084 0.5996 0.5297 0.0
H1567 H 0.35244 0.64252 0.60788 0.0
H1568 H 0.32378 0.76323 0.60519 0.0
H1569 H 0.268 0.69654 0.61539 0.0
H1570 H 0.37389 0.59594 0.46155 0.0
H1571 H 0.40158 0.61857 0.54064 0.0
H1572 H 0.23447 0.68689 0.53577 0.0
H1573 H 0.29151 0.74032 0.50505 0.0
H1574 H 0.2184 0.72481 0.5561 0.0
H1575 H 0.27445 0.77729 0.52587 0.0
H1576 H 0.26464 0.65738 0.43746 0.0
H1577 H 0.29546 0.60137 0.48265 0.0
H1578 H 0.23504 0.621 0.41277 0.0
H1579 H 0.2653 0.56595 0.4572 0.0
H1580 H 0.3258 0.74041 0.40844 0.0
H1581 H 0.24618 0.72908 0.41969 0.0
H1582 H 0.21214 0.58264 0.53281 0.0
H1583 H 0.18453 0.63456 0.48013 0.0
Li1584 Li 0.35828 0.52519 0.73112 0.0
Li1585 Li 0.3908 0.55539 0.75765 0.0
Li1586 Li 0.35619 0.57318 0.73518 0.0
Li1587 Li 0.39097 0.55644 0.71171 0.0
C1588 C 0.34384 0.53333 0.77969 0.0
N1589 N 0.32226 0.50262 0.81542 0.0
C1590 C 0.35715 0.51535 0.79123 0.0
C1591 C 0.3196 0.53581 0.78641 0.0
C1592 C 0.34592 0.49997 0.80923 0.0
C1593 C 0.309 0.52007 0.8045 0.0
C1594 C 0.41623 0.51533 0.73892 0.0
C1595 C 0.46046 0.51195 0.73666 0.0
N1596 N 0.45794 0.49156 0.75165 0.0
C1597 C 0.41404 0.49416 0.7541 0.0
C1598 C 0.43961 0.52419 0.72997 0.0
C1599 C 0.43536 0.4825 0.76042 0.0
C1600 C 0.35179 0.47013 0.72246 0.0
N1601 N 0.33942 0.49026 0.72885 0.0
C1602 C 0.30365 0.46023 0.73875 0.0
C1603 C 0.31546 0.48575 0.73613 0.0
C1604 C 0.31657 0.43926 0.7335 0.0
C1605 C 0.34067 0.44434 0.7247 0.0
H1606 H 0.37069 0.47415 0.71647 0.0
H1607 H 0.30586 0.50201 0.74082 0.0
C1608 C 0.39969 0.56858 0.81062 0.0
N1609 N 0.41107 0.55996 0.79027 0.0
C1610 C 0.41173 0.56984 0.83544 0.0
C1611 C 0.44778 0.55514 0.81785 0.0
C1612 C 0.43507 0.55423 0.79337 0.0
C1613 C 0.43574 0.56238 0.83914 0.0
H1614 H 0.38089 0.57371 0.80762 0.0
H1615 H 0.4443 0.54858 0.77703 0.0
C1616 C 0.34456 0.56042 0.68165 0.0
N1617 N 0.32929 0.58405 0.63864 0.0
C1618 C 0.3591 0.58327 0.6751 0.0
C1619 C 0.32231 0.54954 0.66628 0.0
C1620 C 0.35107 0.59491 0.65327 0.0
C1621 C 0.31488 0.56182 0.64464 0.0
C1622 C 0.41118 0.60328 0.7534 0.0
C1623 C 0.40374 0.62144 0.77078 0.0
C1624 C 0.43693 0.60138 0.75313 0.0
C1625 C 0.42221 0.63734 0.78778 0.0
C1626 C 0.45481 0.61761 0.77045 0.0
N1627 N 0.44715 0.63509 0.78728 0.0
C1628 C 0.3305 0.60477 0.76506 0.0
C1629 C 0.32499 0.61281 0.72124 0.0
C1630 C 0.31707 0.62483 0.77178 0.0
N1631 N 0.33448 0.59929 0.74019 0.0
C1632 C 0.31158 0.63318 0.72714 0.0
C1633 C 0.30778 0.6395 0.75271 0.0
H1634 H 0.33854 0.59411 0.77987 0.0
H1635 H 0.32828 0.60838 0.70163 0.0
C1636 C 0.41247 0.53888 0.66745 0.0
N1637 N 0.41232 0.56004 0.68408 0.0
C1638 C 0.42966 0.53993 0.64882 0.0
C1639 C 0.44598 0.58462 0.66452 0.0
C1640 C 0.42842 0.58276 0.68275 0.0
C1641 C 0.44684 0.56294 0.64742 0.0
H1642 H 0.39967 0.52097 0.6691 0.0
H1643 H 0.42796 0.59931 0.69617 0.0
O1644 O 0.35428 0.54822 0.76162 0.0
O1645 O 0.39548 0.52685 0.73226 0.0
O1646 O 0.35231 0.54831 0.70259 0.0
O1647 O 0.39333 0.58704 0.73709 0.0
H1648 H 0.37597 0.51336 0.78641 0.0
H1649 H 0.30895 0.54952 0.77753 0.0
H1650 H 0.35601 0.48594 0.81828 0.0
H1651 H 0.29021 0.52169 0.80979 0.0
H1652 H 0.47867 0.51873 0.72999 0.0
H1653 H 0.39608 0.48666 0.76085 0.0
H1654 H 0.44182 0.54057 0.71832 0.0
H1655 H 0.43394 0.46617 0.77223 0.0
H1656 H 0.285 0.45693 0.74552 0.0
H1657 H 0.35109 0.42856 0.72042 0.0
H1658 H 0.40204 0.57555 0.85161 0.0
H1659 H 0.46643 0.54945 0.82022 0.0
H1660 H 0.37619 0.59216 0.68694 0.0
H1661 H 0.31092 0.53178 0.67103 0.0
H1662 H 0.36208 0.61264 0.64802 0.0
H1663 H 0.29767 0.55365 0.63258 0.0
H1664 H 0.38392 0.62317 0.77126 0.0
H1665 H 0.443 0.58721 0.74002 0.0
H1666 H 0.41672 0.65142 0.80141 0.0
H1667 H 0.47478 0.61622 0.77059 0.0
H1668 H 0.31475 0.62948 0.79173 0.0
H1669 H 0.30482 0.64435 0.71202 0.0
H1670 H 0.42986 0.52285 0.63592 0.0
H1671 H 0.45899 0.60266 0.66393 0.0
Li1672 Li 0.60495 1.00125 0.80194 0.0
Li1673 Li 0.63864 0.02218 0.77973 0.0
Li1674 Li 0.60222 0.99722 0.75268 0.0
Li1675 Li 0.63493 0.97461 0.78162 0.0
C1676 C 0.60329 0.05404 0.78314 0.0
N1677 N 0.60621 0.10703 0.79524 0.0
C1678 C 0.61387 0.06525 0.80734 0.0
C1679 C 0.5939 0.06975 0.76518 0.0
C1680 C 0.61527 0.09207 0.81308 0.0
C1681 C 0.59563 0.09651 0.77163 0.0
C1682 C 0.66145 0.00934 0.82871 0.0
C1683 C 0.70484 0.00865 0.84526 0.0
N1684 N 0.70168 0.02425 0.86615 0.0
C1685 C 0.65853 0.02505 0.85054 0.0
C1686 C 0.68469 1.00078 0.8262 0.0
C1687 C 0.67913 0.0325 0.86917 0.0
C1688 C 0.59306 0.99392 0.8538 0.0
N1689 N 0.58613 0.00508 0.83206 0.0
C1690 C 0.55572 0.02543 0.85386 0.0
C1691 C 0.56765 0.02044 0.83171 0.0
C1692 C 0.56279 0.01448 0.87661 0.0
C1693 C 0.58155 0.99833 0.87634 0.0
H1694 H 0.6079 0.98194 0.85379 0.0
H1695 H 0.56243 0.02923 0.81434 0.0
C1696 C 0.65765 0.06614 0.75573 0.0
N1697 N 0.66163 0.05441 0.77781 0.0
C1698 C 0.67199 0.09011 0.75207 0.0
C1699 C 0.69431 0.08992 0.79408 0.0
C1700 C 0.67968 0.06573 0.79683 0.0
C1701 C 0.69036 0.10232 0.77151 0.0
H1702 H 0.64296 0.05699 0.74106 0.0
H1703 H 0.6825 0.0564 0.81432 0.0
C1704 C 0.57527 0.95755 0.78853 0.0
N1705 N 0.53408 0.93874 0.81383 0.0
C1706 C 0.57793 0.94039 0.80759 0.0
C1707 C 0.55169 0.96513 0.78227 0.0
C1708 C 0.55686 0.93108 0.82016 0.0
C1709 C 0.53109 0.95541 0.7953 0.0
C1710 C 0.65914 0.00493 0.73795 0.0
C1711 C 0.65505 0.01014 0.7123 0.0
C1712 C 0.68382 0.00963 0.75031 0.0
C1713 C 0.67568 0.02045 0.69958 0.0
C1714 C 0.70394 0.02002 0.73697 0.0
N1715 N 0.69948 0.02519 0.71209 0.0
C1716 C 0.58831 0.01938 0.70694 0.0
C1717 C 0.56588 0.97657 0.70762 0.0
C1718 C 0.57667 0.02156 0.68239 0.0
N1719 N 0.58286 0.99718 0.71913 0.0
C1720 C 0.55383 0.97788 0.68288 0.0
C1721 C 0.55929 1.00062 0.66996 0.0
H1722 H 0.60224 0.0353 0.71608 0.0
H1723 H 0.56188 0.959 0.71746 0.0
C1724 C 0.6541 0.93062 0.8041 0.0
N1725 N 0.65418 0.94547 0.78366 0.0
C1726 C 0.66935 0.91089 0.80578 0.0
C1727 C 0.6849 0.92239 0.76572 0.0
C1728 C 0.66909 0.94149 0.76457 0.0
C1729 C 0.6853 0.90679 0.78654 0.0
H1730 H 0.64245 0.93426 0.8193 0.0
H1731 H 0.66896 0.95336 0.74847 0.0
O1732 O 0.60238 0.02788 0.77705 0.0
O1733 O 0.64143 1.00165 0.81036 0.0
O1734 O 0.59588 0.96779 0.77679 0.0
O1735 O 0.63909 0.99524 0.75086 0.0
H1736 H 0.62116 0.05337 0.82144 0.0
H1737 H 0.58528 0.06141 0.74649 0.0
H1738 H 0.6236 0.10101 0.83169 0.0
H1739 H 0.58853 0.10891 0.75788 0.0
H1740 H 0.72296 1.00227 0.8435 0.0
H1741 H 0.64056 0.0314 0.85315 0.0
H1742 H 0.68716 0.98807 0.80982 0.0
H1743 H 0.67718 0.04478 0.88607 0.0
H1744 H 0.54125 0.03789 0.8533 0.0
H1745 H 0.58743 0.98946 0.89349 0.0
H1746 H 0.66835 0.09936 0.73454 0.0
H1747 H 0.70827 0.09906 0.8095 0.0
H1748 H 0.59613 0.93453 0.81279 0.0
H1749 H 0.54944 0.97863 0.76772 0.0
H1750 H 0.55865 0.91786 0.83504 0.0
H1751 H 0.51274 0.96119 0.79076 0.0
H1752 H 0.63619 0.00617 0.70225 0.0
H1753 H 0.68735 0.00568 0.7701 0.0
H1754 H 0.67276 0.02467 0.67975 0.0
H1755 H 0.72309 0.02402 0.74641 0.0
H1756 H 0.58146 0.03934 0.67301 0.0
H1757 H 0.54051 0.96132 0.67387 0.0
H1758 H 0.66894 0.89916 0.82205 0.0
H1759 H 0.69676 0.91978 0.7504 0.0
Li1760 Li 0.77214 0.67691 0.02224 0.0
Li1761 Li 0.79171 0.64266 0.00574 0.0
Li1762 Li 0.77693 0.6741 0.97791 0.0
Li1763 Li 0.74556 0.64053 0.99582 0.0
C1764 C 0.82109 0.69936 0.02033 0.0
N1765 N 0.85473 0.73815 0.04944 0.0
C1766 C 0.84076 0.69288 0.03681 0.0
C1767 C 0.81876 0.72559 0.01841 0.0
C1768 C 0.85751 0.71277 0.05142 0.0
C1769 C 0.83588 0.7449 0.03336 0.0
C1770 C 0.76773 0.64005 0.05532 0.0
C1771 C 0.74911 0.63827 0.0954 0.0
N1772 N 0.77277 0.64241 0.10824 0.0
C1773 C 0.79186 0.64413 0.06891 0.0
C1774 C 0.74617 0.63706 0.06865 0.0
C1775 C 0.79401 0.64534 0.09565 0.0
C1776 C 0.74521 0.70697 0.05096 0.0
N1777 N 0.76868 0.70009 0.0504 0.0
C1778 C 0.78227 0.72226 0.09156 0.0
C1779 C 0.7872 0.70752 0.07007 0.0
C1780 C 0.75806 0.72907 0.09265 0.0
C1781 C 0.73951 0.72184 0.07197 0.0
H1782 H 0.73048 0.69993 0.03564 0.0
H1783 H 0.80533 0.70099 0.06973 0.0
C1784 C 0.83981 0.62762 0.00376 0.0
N1785 N 0.81656 0.62108 0.01209 0.0
C1786 C 0.85849 0.61211 0.00848 0.0
C1787 C 0.82887 0.5834 0.03016 0.0
C1788 C 0.81071 0.59944 0.02492 0.0
C1789 C 0.85302 0.58986 0.02191 0.0
H1790 H 0.84378 0.64489 0.99348 0.0
H1791 H 0.79193 0.59467 0.03108 0.0
C1792 C 0.73275 0.69552 0.98341 0.0
N1793 N 0.70621 0.73068 0.96015 0.0
C1794 C 0.70963 0.6867 0.96859 0.0
C1795 C 0.74222 0.72224 0.98664 0.0
C1796 C 0.69653 0.70478 0.95694 0.0
C1797 C 0.72858 0.73969 0.97463 0.0
C1798 C 0.78421 0.61824 0.95988 0.0
C1799 C 0.80394 0.62738 0.94547 0.0
C1800 C 0.77911 0.59171 0.96381 0.0
C1801 C 0.81843 0.60975 0.93534 0.0
C1802 C 0.79407 0.57472 0.9534 0.0
N1803 N 0.81326 0.58402 0.93952 0.0
C1804 C 0.80273 0.71192 0.94881 0.0
C1805 C 0.76091 0.69248 0.93222 0.0
C1806 C 0.80405 0.72882 0.92921 0.0
N1807 N 0.78126 0.69445 0.94998 0.0
C1808 C 0.76106 0.70949 0.91294 0.0
C1809 C 0.78282 0.72788 0.9113 0.0
H1810 H 0.8187 0.71281 0.96313 0.0
H1811 H 0.74436 0.678 0.93338 0.0
C1812 C 0.69677 0.62973 0.00757 0.0
N1813 N 0.71283 0.62109 0.99161 0.0
C1814 C 0.67178 0.61721 0.00648 0.0
C1815 C 0.68014 0.58736 0.97206 0.0
C1816 C 0.70517 0.60043 0.97395 0.0
C1817 C 0.66333 0.59577 0.98863 0.0
H1818 H 0.70344 0.64654 0.02103 0.0
H1819 H 0.7184 0.59425 0.96135 0.0
O1820 O 0.80466 0.68016 0.00569 0.0
O1821 O 0.76525 0.63909 0.02913 0.0
O1822 O 0.74589 0.67806 0.9949 0.0
O1823 O 0.77039 0.63533 0.97065 0.0
H1824 H 0.843 0.67274 0.03846 0.0
H1825 H 0.8039 0.73098 0.00552 0.0
H1826 H 0.87268 0.70801 0.06437 0.0
H1827 H 0.83421 0.76527 0.03215 0.0
H1828 H 0.73258 0.636 0.10596 0.0
H1829 H 0.80875 0.64664 0.05894 0.0
H1830 H 0.72735 0.6338 0.05848 0.0
H1831 H 0.81257 0.64866 0.1064 0.0
H1832 H 0.79672 0.72724 0.10766 0.0
H1833 H 0.72051 0.72644 0.07271 0.0
H1834 H 0.87699 0.61735 1.00175 0.0
H1835 H 0.82418 0.56617 0.04037 0.0
H1836 H 0.70201 0.66609 0.9659 0.0
H1837 H 0.75988 0.72941 0.99829 0.0
H1838 H 0.67869 0.69823 0.94532 0.0
H1839 H 0.73575 0.76041 0.97685 0.0
H1840 H 0.80817 0.64791 0.9424 0.0
H1841 H 0.76402 0.58441 0.97511 0.0
H1842 H 0.83385 0.61654 0.92426 0.0
H1843 H 0.79051 0.55417 0.95647 0.0
H1844 H 0.82131 0.7424 0.92799 0.0
H1845 H 0.74457 0.70795 0.89905 0.0
H1846 H 0.65911 0.6242 0.01932 0.0
H1847 H 0.67395 0.57094 0.95798 0.0
Li1848 Li 0.8918 0.5523 0.7576 0.0
Li1849 Li 0.92826 0.58027 0.78127 0.0
Li1850 Li 0.89424 0.59946 0.75351 0.0
Li1851 Li 0.92525 0.57294 0.7327 0.0
C1852 C 0.87466 0.57725 0.80254 0.0
N1853 N 0.84001 0.57102 0.83849 0.0
C1854 C 0.8804 0.5654 0.825 0.0
C1855 C 0.85137 0.58614 0.79851 0.0
C1856 C 0.8626 0.56237 0.84289 0.0
C1857 C 0.83409 0.58275 0.81687 0.0
C1858 C 0.93507 0.52693 0.77038 0.0
C1859 C 0.96108 0.49302 0.77293 0.0
N1860 N 0.94984 0.48489 0.79384 0.0
C1861 C 0.92381 0.51826 0.79189 0.0
C1862 C 0.95387 0.51423 0.76079 0.0
C1863 C 0.93151 0.49696 0.80347 0.0
C1864 C 0.87601 0.49817 0.74602 0.0
N1865 N 0.86968 0.51926 0.75922 0.0
C1866 C 0.83548 0.49205 0.77554 0.0
C1867 C 0.84948 0.51666 0.7734 0.0
C1868 C 0.84225 0.47 0.76285 0.0
C1869 C 0.86251 0.4732 0.74763 0.0
H1870 H 0.89191 0.50071 0.73461 0.0
H1871 H 0.84418 0.53351 0.7832 0.0
C1872 C 0.94266 0.5974 0.8345 0.0
N1873 N 0.94956 0.58343 0.81416 0.0
C1874 C 0.95337 0.5952 0.8595 0.0
C1875 C 0.9792 0.56549 0.84224 0.0
C1876 C 0.96829 0.56855 0.81756 0.0
C1877 C 0.9712 0.5783 0.86366 0.0
H1878 H 0.92769 0.60901 0.83152 0.0
H1879 H 0.97387 0.55784 0.80128 0.0
C1880 C 0.86839 0.55301 0.7121 0.0
N1881 N 0.83024 0.51591 0.68668 0.0
C1882 C 0.87323 0.53771 0.69078 0.0
C1883 C 0.84407 0.54958 0.72034 0.0
C1884 C 0.8537 0.51905 0.6782 0.0
C1885 C 0.82507 0.53066 0.7073 0.0
C1886 C 0.95826 0.61799 0.75568 0.0
C1887 C 0.96539 0.64479 0.75411 0.0
C1888 C 0.97687 0.60186 0.7575 0.0
C1889 C 0.99112 0.65505 0.7544 0.0
C1890 C 1.00239 0.61287 0.75775 0.0
N1891 N 0.00893 0.63902 0.7562 0.0
C1892 C 0.88409 0.65237 0.76192 0.0
C1893 C 0.85119 0.62357 0.73686 0.0
C1894 C 0.86938 0.67254 0.76119 0.0
N1895 N 0.87472 0.62828 0.75014 0.0
C1896 C 0.83566 0.643 0.7361 0.0
C1897 C 0.84456 0.66783 0.74861 0.0
H1898 H 0.90281 0.65581 0.77234 0.0
H1899 H 0.8441 0.6045 0.72736 0.0
C1900 C 0.9447 0.54297 0.69395 0.0
N1901 N 0.94389 0.56799 0.70288 0.0
C1902 C 0.95643 0.53777 0.67179 0.0
C1903 C 0.967 0.58416 0.66852 0.0
C1904 C 0.95487 0.5885 0.6907 0.0
C1905 C 0.96761 0.55849 0.65867 0.0
H1906 H 0.93567 0.52695 0.70374 0.0
H1907 H 0.95394 0.60824 0.69796 0.0
O1908 O 0.89191 0.58071 0.78488 0.0
O1909 O 0.92789 0.54781 0.75877 0.0
O1910 O 0.88747 0.57091 0.72507 0.0
O1911 O 0.93315 0.60761 0.75509 0.0
H1912 H 0.89839 0.55866 0.82869 0.0
H1913 H 0.84659 0.59537 0.7813 0.0
H1914 H 0.86679 0.55318 0.86031 0.0
H1915 H 0.81596 0.58944 0.81393 0.0
H1916 H 0.97565 0.48304 0.76576 0.0
H1917 H 0.90918 0.52777 0.79945 0.0
H1918 H 0.96292 0.52082 0.74427 0.0
H1919 H 0.92289 0.49002 0.8201 0.0
H1920 H 0.81976 0.49016 0.78726 0.0
H1921 H 0.86809 0.4565 0.7375 0.0
H1922 H 0.94667 0.60533 0.87557 0.0
H1923 H 0.99293 0.55233 0.84467 0.0
H1924 H 0.89184 0.54021 0.684 0.0
H1925 H 0.84009 0.56085 0.73712 0.0
H1926 H 0.85722 0.50703 0.66172 0.0
H1927 H 0.80627 0.52758 0.71368 0.0
H1928 H 0.95117 0.6575 0.7526 0.0
H1929 H 0.97167 0.58105 0.75855 0.0
H1930 H 0.99693 0.67576 0.75317 0.0
H1931 H 0.01699 0.60063 0.75912 0.0
H1932 H 0.87695 0.69143 0.77112 0.0
H1933 H 0.81666 0.63852 0.72627 0.0
H1934 H 0.95649 0.51773 0.66474 0.0
H1935 H 0.97541 0.60063 0.65888 0.0
Li1936 Li 0.72672 0.37453 0.5486 0.0
Li1937 Li 0.70237 0.40709 0.52784 0.0
Li1938 Li 0.7214 0.3743 0.50061 0.0
Li1939 Li 0.74872 0.41104 0.52658 0.0
C1940 C 0.67956 0.35043 0.53774 0.0
N1941 N 0.65173 0.31621 0.56654 0.0
C1942 C 0.66166 0.35908 0.55263 0.0
C1943 C 0.68326 0.32439 0.53739 0.0
C1944 C 0.64776 0.34146 0.56705 0.0
C1945 C 0.66903 0.3074 0.55215 0.0
C1946 C 0.74655 0.43098 0.57233 0.0
C1947 C 0.76745 0.4754 0.58263 0.0
N1948 N 0.78339 0.46713 0.60085 0.0
C1949 C 0.7631 0.42291 0.59118 0.0
C1950 C 0.74868 0.45743 0.56803 0.0
C1951 C 0.78159 0.44149 0.6054 0.0
C1952 C 0.75202 0.34225 0.58187 0.0
N1953 N 0.73157 0.35495 0.57923 0.0
C1954 C 0.72199 0.34539 0.62186 0.0
C1955 C 0.71663 0.35668 0.59878 0.0
C1956 C 0.74307 0.33235 0.62508 0.0
C1957 C 0.75804 0.3307 0.60459 0.0
H1958 H 0.76423 0.34173 0.56662 0.0
H1959 H 0.70093 0.36747 0.59678 0.0
C1960 C 0.65327 0.42162 0.51143 0.0
N1961 N 0.67365 0.427 0.52955 0.0
C1962 C 0.63376 0.43696 0.51104 0.0
C1963 C 0.65569 0.46249 0.54863 0.0
C1964 C 0.67488 0.44679 0.54821 0.0
C1965 C 0.63494 0.4579 0.52967 0.0
H1966 H 0.65242 0.40577 0.49683 0.0
H1967 H 0.69104 0.45078 0.56257 0.0
C1968 C 0.76482 0.35758 0.51032 0.0
N1969 N 0.788 0.32476 0.48002 0.0
C1970 C 0.7826 0.36796 0.49429 0.0
C1971 C 0.75879 0.33052 0.5109 0.0
C1972 C 0.79412 0.35103 0.47912 0.0
C1973 C 0.77072 0.31426 0.49545 0.0
C1974 C 0.70962 0.42775 0.48348 0.0
C1975 C 0.69272 0.41635 0.46253 0.0
C1976 C 0.71219 0.4546 0.48997 0.0
C1977 C 0.67871 0.43206 0.44834 0.0
C1978 C 0.69783 0.46963 0.47532 0.0
N1979 N 0.68153 0.45815 0.45498 0.0
C1980 C 0.71128 0.32963 0.46062 0.0
C1981 C 0.73411 0.36943 0.44987 0.0
C1982 C 0.71415 0.31748 0.4365 0.0
N1983 N 0.72127 0.35524 0.46688 0.0
C1984 C 0.7374 0.35811 0.42572 0.0
C1985 C 0.72749 0.33178 0.41875 0.0
H1986 H 0.70147 0.31849 0.47444 0.0
H1987 H 0.74227 0.3896 0.45528 0.0
C1988 C 0.80115 0.42405 0.53973 0.0
N1989 N 0.78131 0.43254 0.52663 0.0
C1990 C 0.82607 0.43603 0.53801 0.0
C1991 C 0.80979 0.46596 0.51 0.0
C1992 C 0.78511 0.45318 0.51203 0.0
C1993 C 0.83065 0.45714 0.52284 0.0
H1994 H 0.79764 0.40727 0.55079 0.0
H1995 H 0.76912 0.45922 0.50135 0.0
O1996 O 0.69367 0.36747 0.52385 0.0
O1997 O 0.72886 0.413 0.55764 0.0
O1998 O 0.7527 0.37379 0.52467 0.0
O1999 O 0.72333 0.41268 0.49778 0.0
H2000 H 0.65865 0.37922 0.55315 0.0
H2001 H 0.69709 0.31745 0.52598 0.0
H2002 H 0.63387 0.34787 0.57871 0.0
H2003 H 0.67177 0.28722 0.55218 0.0
H2004 H 0.76942 0.49592 0.57941 0.0
H2005 H 0.76186 0.40251 0.59464 0.0
H2006 H 0.73619 0.46397 0.55335 0.0
H2007 H 0.79458 0.43552 0.61999 0.0
H2008 H 0.71005 0.34723 0.63725 0.0
H2009 H 0.77453 0.32097 0.60634 0.0
H2010 H 0.61819 0.4329 0.49597 0.0
H2011 H 0.65742 0.47857 0.5632 0.0
H2012 H 0.78718 0.38883 0.49324 0.0
H2013 H 0.7448 0.32217 0.52293 0.0
H2014 H 0.80782 0.35878 0.46653 0.0
H2015 H 0.76617 0.29327 0.49563 0.0
H2016 H 0.69024 0.39555 0.45742 0.0
H2017 H 0.72494 0.4637 0.5063 0.0
H2018 H 0.66553 0.4235 0.43211 0.0
H2019 H 0.69958 0.49042 0.48017 0.0
H2020 H 0.70622 0.2971 0.43182 0.0
H2021 H 0.7478 0.36979 0.41263 0.0
H2022 H 0.84168 0.42854 0.54799 0.0
H2023 H 0.81262 0.48218 0.49809 0.0
Li2024 Li 0.63459 0.50863 0.31268 0.0
Li2025 Li 0.66782 0.53863 0.29542 0.0
Li2026 Li 0.63365 0.50911 0.26801 0.0
Li2027 Li 0.66561 0.48737 0.28967 0.0
C2028 C 0.61567 0.552 0.30541 0.0
N2029 N 0.5845 0.5782 0.33311 0.0
C2030 C 0.62621 0.57243 0.32368 0.0
C2031 C 0.58929 0.54507 0.30103 0.0
C2032 C 0.61012 0.5854 0.33753 0.0
C2033 C 0.57385 0.5585 0.31531 0.0
C2034 C 0.67567 0.50941 0.34705 0.0
C2035 C 0.67028 0.4818 0.3819 0.0
N2036 N 0.68056 0.50246 0.39879 0.0
C2037 C 0.6863 0.53034 0.36471 0.0
C2038 C 0.66772 0.4849 0.35564 0.0
C2039 C 0.68856 0.52643 0.39081 0.0
C2040 C 0.61936 0.52398 0.36195 0.0
N2041 N 0.61365 0.50631 0.34115 0.0
C2042 C 0.57576 0.48699 0.35828 0.0
C2043 C 0.59244 0.48782 0.33919 0.0
C2044 C 0.58128 0.50502 0.37984 0.0
C2045 C 0.60345 0.52357 0.38167 0.0
H2046 H 0.636 0.53879 0.36306 0.0
H2047 H 0.58825 0.47388 0.32265 0.0
C2048 C 0.67639 0.59019 0.28383 0.0
N2049 N 0.68797 0.57273 0.2968 0.0
C2050 C 0.68884 0.61561 0.28251 0.0
C2051 C 0.72511 0.60498 0.30807 0.0
C2052 C 0.71189 0.57957 0.30889 0.0
C2053 C 0.7135 0.62323 0.29463 0.0
H2054 H 0.65742 0.58424 0.27431 0.0
H2055 H 0.72073 0.56532 0.31902 0.0
C2056 C 0.61007 0.46105 0.2719 0.0
N2057 N 0.57331 0.42807 0.23982 0.0
C2058 C 0.61617 0.43882 0.25898 0.0
C2059 C 0.58523 0.46642 0.26857 0.0
C2060 C 0.59732 0.42239 0.24285 0.0
C2061 C 0.56694 0.44955 0.25223 0.0
C2062 C 0.67273 0.51455 0.2391 0.0
C2063 C 0.672 0.4911 0.22421 0.0
C2064 C 0.67513 0.53809 0.22748 0.0
C2065 C 0.67367 0.49162 0.19788 0.0
C2066 C 0.67678 0.53779 0.2011 0.0
N2067 N 0.67603 0.51475 0.18697 0.0
C2068 C 0.6054 0.53266 0.23155 0.0
C2069 C 0.61064 0.4898 0.21716 0.0
C2070 C 0.59321 0.53612 0.20773 0.0
N2071 N 0.61391 0.50982 0.23581 0.0
C2072 C 0.5983 0.49231 0.19313 0.0
C2073 C 0.58977 0.51582 0.18825 0.0
H2074 H 0.60875 0.54851 0.24643 0.0
H2075 H 0.61831 0.47218 0.22055 0.0
C2076 C 0.67762 0.43632 0.29618 0.0
N2077 N 0.68534 0.45953 0.28648 0.0
C2078 C 0.69042 0.41514 0.29179 0.0
C2079 C 0.71917 0.44222 0.26794 0.0
C2080 C 0.70593 0.46291 0.27291 0.0
C2081 C 0.71125 0.41797 0.27726 0.0
H2082 H 0.66111 0.43405 0.30676 0.0
H2083 H 0.71176 0.48156 0.26547 0.0
O2084 O 0.6311 0.53879 0.29194 0.0
O2085 O 0.67306 0.51291 0.32146 0.0
O2086 O 0.62824 0.4773 0.28791 0.0
O2087 O 0.67115 0.51445 0.26492 0.0
H2088 H 0.6466 0.57793 0.32744 0.0
H2089 H 0.58083 0.52947 0.28681 0.0
H2090 H 0.61802 0.60111 0.35187 0.0
H2091 H 0.5534 0.55324 0.31224 0.0
H2092 H 0.66407 0.46299 0.38886 0.0
H2093 H 0.69252 0.54943 0.35832 0.0
H2094 H 0.65937 0.46855 0.34218 0.0
H2095 H 0.69663 0.54247 0.40473 0.0
H2096 H 0.55876 0.47244 0.35629 0.0
H2097 H 0.60816 0.53787 0.398 0.0
H2098 H 0.67935 0.62922 0.27203 0.0
H2099 H 0.74414 0.61032 0.31769 0.0
H2100 H 0.63528 0.43442 0.26108 0.0
H2101 H 0.58017 0.48356 0.2783 0.0
H2102 H 0.60181 0.4052 0.23265 0.0
H2103 H 0.54769 0.45356 0.24938 0.0
H2104 H 0.66974 0.47266 0.23281 0.0
H2105 H 0.67568 0.55639 0.23869 0.0
H2106 H 0.67299 0.47361 0.1861 0.0
H2107 H 0.67859 0.55586 0.19183 0.0
H2108 H 0.58692 0.55455 0.20435 0.0
H2109 H 0.59609 0.47643 0.17829 0.0
H2110 H 0.684 0.39668 0.2994 0.0
H2111 H 0.73535 0.44504 0.25687 0.0
Tb2112 Tb 0.03163 0.06598 0.01998 0.0
C2113 C 0.03097 0.02437 0.97266 0.0
Tb2114 Tb 0.00639 0.01101 0.02315 0.0
O2115 O 0.06725 0.06048 0.04175 0.0
O2116 O 0.04469 0.02922 0.0208 0.0
O2117 O 0.03045 0.0491 0.98021 0.0
C2118 C 0.99691 0.96317 0.03983 0.0
O2119 O 0.02509 0.00557 0.98806 0.0
C2120 C 0.97487 0.04386 0.00719 0.0
C2121 C 0.01015 0.05152 0.07219 0.0
O2122 O 0.00999 0.98368 0.05251 0.0
O2123 O 0.98853 0.96947 0.01745 0.0
O2124 O 0.97108 0.01869 1.00148 0.0
O2125 O 0.99405 0.04808 0.02344 0.0
O2126 O 0.00752 0.02672 0.06308 0.0
O2127 O 0.01649 0.07053 0.05719 0.0
C2128 C 0.03752 0.1125 0.99962 0.0
O2129 O 0.04705 0.10822 0.02239 0.0
O2130 O 0.0251 0.09067 0.98876 0.0
C2131 C 0.06423 0.03528 0.03669 0.0
Tb2132 Tb 0.27295 0.82021 0.27789 0.0
C2133 C 0.31711 0.78516 0.27613 0.0
Tb2134 Tb 0.25888 0.75921 0.2595 0.0
O2135 O 0.27515 0.81559 0.31968 0.0
O2136 O 0.2665 0.78405 0.29352 0.0
O2137 O 0.31075 0.80888 0.27887 0.0
C2138 C 0.24028 0.70928 0.26401 0.0
O2139 O 0.30044 0.76338 0.2694 0.0
C2140 C 0.26164 0.78887 0.21984 0.0
C2141 C 0.21453 0.79439 0.26282 0.0
O2142 O 0.25802 0.7173 0.24959 0.0
O2143 O 0.23339 0.7293 0.2759 0.0
O2144 O 0.25681 0.7634 0.21779 0.0
O2145 O 0.26482 0.79539 0.24368 0.0
O2146 O 0.22118 0.77093 0.25842 0.0
O2147 O 0.23139 0.81577 0.27019 0.0
C2148 C 0.2898 0.87063 0.27277 0.0
O2149 O 0.27143 0.86196 0.28619 0.0
O2150 O 0.29838 0.8509 0.26223 0.0
C2151 C 0.26943 0.79011 0.31741 0.0
Tb2152 Tb 0.53609 0.0377 0.5123 0.0
C2153 C 0.52045 0.01895 0.56614 0.0
Tb2154 Tb 0.48012 0.02956 0.52098 0.0
O2155 O 0.54537 0.07243 0.53904 0.0
O2156 O 0.50896 0.06197 0.52004 0.0
O2157 O 0.53884 0.024 0.55088 0.0
C2158 C 0.43526 0.03619 0.53714 0.0
O2159 O 0.49622 0.0197 0.55842 0.0
C2160 C 0.4953 0.99056 0.49541 0.0
C2161 C 0.49567 0.05114 0.46883 0.0
O2162 O 0.43922 0.01735 0.52129 0.0
O2163 O 0.45682 0.05136 0.54353 0.0
O2164 O 0.47214 0.99534 0.49291 0.0
O2165 O 0.50753 0.00531 0.51385 0.0
O2166 O 0.47855 0.0498 0.48574 0.0
O2167 O 0.51884 0.04521 0.47436 0.0
C2168 C 0.5807 0.02727 0.49973 0.0
O2169 O 0.57532 0.05055 0.50441 0.0
O2170 O 0.56074 0.0102 0.50146 0.0
C2171 C 0.52212 0.07708 0.5378 0.0
Tb2172 Tb 0.27396 0.28764 0.78956 0.0
C2173 C 0.27752 0.33219 0.75209 0.0
Tb2174 Tb 0.25396 0.27512 0.73344 0.0
O2175 O 0.31454 0.285 0.78715 0.0
O2176 O 0.28936 0.27958 0.75518 0.0
O2177 O 0.27253 0.32606 0.77534 0.0
C2178 C 0.24725 0.25774 0.68429 0.0
O2179 O 0.27545 0.31413 0.73281 0.0
C2180 C 0.21969 0.28912 0.76359 0.0
C2181 C 0.2507 0.22902 0.77091 0.0
O2182 O 0.23858 0.27779 0.69385 0.0
O2183 O 0.25933 0.24727 0.70226 0.0
O2184 O 0.22078 0.29404 0.73979 0.0
O2185 O 0.23714 0.27597 0.76878 0.0
O2186 O 0.24784 0.23565 0.74688 0.0
O2187 O 0.25884 0.24629 0.79083 0.0
C2188 C 0.2764 0.30609 0.83824 0.0
O2189 O 0.27778 0.28212 0.83057 0.0
O2190 O 0.27419 0.31952 0.81854 0.0
C2191 C 0.31239 0.27952 0.76249 0.0
Tb2192 Tb 0.99684 0.02997 0.49133 0.0
C2193 C 0.96176 0.02174 0.53556 0.0
Tb2194 Tb 0.02201 0.03947 0.54747 0.0
O2195 O 0.98802 0.9879 0.49387 0.0
O2196 O 0.0188 0.00985 0.51694 0.0
O2197 O 0.96266 0.02591 0.51101 0.0
C2198 C 0.04287 0.03234 0.59421 0.0
O2199 O 0.98218 0.02399 0.55232 0.0
C2200 C 0.01267 0.0815 0.52667 0.0
C2201 C 0.05649 0.04729 0.5013 0.0
O2202 O 0.02142 0.04063 0.58924 0.0
O2203 O 0.05257 0.02833 0.57288 0.0
O2204 O 0.02843 0.08207 0.54712 0.0
O2205 O 1.00064 0.05868 0.52214 0.0
O2206 O 0.05551 0.04651 0.52646 0.0
O2207 O 0.03622 0.04151 0.48432 0.0
C2208 C 0.97854 0.03989 0.44485 0.0
O2209 O 0.98275 0.01716 0.45141 0.0
O2210 O 0.98457 0.05698 0.46438 0.0
C2211 C 0.00515 0.98756 0.51302 0.0
Tb2212 Tb 0.29092 0.79066 0.77464 0.0
C2213 C 0.24907 0.79033 0.81546 0.0
Tb2214 Tb 0.23377 0.77061 0.75653 0.0
O2215 O 0.28913 0.82879 0.75948 0.0
O2216 O 0.25714 0.80674 0.76996 0.0
O2217 O 0.27364 0.79362 0.81133 0.0
C2218 C 0.18793 0.77324 0.73439 0.0
O2219 O 0.23029 0.78205 0.7969 0.0
C2220 C 0.25901 0.73087 0.76585 0.0
C2221 C 0.27427 0.7692 0.71622 0.0
O2222 O 0.19269 0.75722 0.75157 0.0
O2223 O 0.20884 0.78771 0.73007 0.0
O2224 O 0.23486 0.72818 0.75805 0.0
O2225 O 0.26651 0.75512 0.76739 0.0
O2226 O 0.25033 0.77099 0.71974 0.0
O2227 O 0.29261 0.7729 0.73554 0.0
C2228 C 0.33824 0.79286 0.79687 0.0
O2229 O 0.33215 0.79961 0.7741 0.0
O2230 O 0.31762 0.78579 0.80748 0.0
C2231 C 0.2646 0.82714 0.75938 0.0
Tb2232 Tb 0.4856 0.02372 0.0079 0.0
C2233 C 0.52579 0.9842 0.01264 0.0
Tb2234 Tb 0.54305 0.04555 0.02452 0.0
O2235 O 0.48898 0.03372 0.96816 0.0
O2236 O 0.52031 0.02737 0.99072 0.0
O2237 O 0.50145 0.98723 0.00937 0.0
C2238 C 0.59191 0.0638 0.02104 0.0
O2239 O 0.54486 1.00401 0.01796 0.0
C2240 C 0.51635 0.04073 0.0655 0.0
C2241 C 0.50383 0.08461 0.02005 0.0
O2242 O 0.58353 0.04665 0.03645 0.0
O2243 O 0.57276 0.07075 0.00774 0.0
O2244 O 0.54052 0.04981 0.06649 0.0
O2245 O 0.50933 0.03583 0.04188 0.0
O2246 O 0.52771 0.08142 0.01804 0.0
O2247 O 0.48504 0.06475 0.02016 0.0
C2248 C 0.43732 1.00043 0.00915 0.0
O2249 O 0.44443 0.02202 0.99882 0.0
O2250 O 0.45746 0.99169 0.01823 0.0
C2251 C 0.51358 0.0352 0.96934 0.0
Tb2252 Tb 0.23597 0.26881 0.27018 0.0
C2253 C 0.28276 0.27724 0.31459 0.0
Tb2254 Tb 0.28823 0.30342 0.26346 0.0
O2255 O 0.24667 0.23001 0.26107 0.0
O2256 O 0.27164 0.26404 0.26049 0.0
O2257 O 0.25813 0.27 0.30737 0.0
C2258 C 0.33203 0.3162 0.24377 0.0
O2259 O 0.29879 0.29033 0.30049 0.0
C2260 C 0.25348 0.3281 0.284 0.0
C2261 C 0.2441 0.2916 0.21693 0.0
O2262 O 0.32408 0.2939 0.25227 0.0
O2263 O 0.31584 0.332 0.24751 0.0
O2264 O 0.27808 0.33575 0.28757 0.0
O2265 O 0.25016 0.30887 0.26736 0.0
O2266 O 0.26852 0.29949 0.22485 0.0
O2267 O 0.22711 0.28051 0.23158 0.0
C2268 C 0.19454 0.26034 0.2942 0.0
O2269 O 0.19691 0.24906 0.27178 0.0
O2270 O 0.21511 0.27633 0.3025 0.0
C2271 C 0.27011 0.23956 0.25802 0.0
Tb2272 Tb 0.50067 0.53684 0.98525 0.0
C2273 C 0.46353 0.52418 0.0286 0.0
Tb2274 Tb 0.52235 0.54265 0.04317 0.0
O2275 O 0.49255 0.49401 0.98326 0.0
O2276 O 0.51815 0.51502 0.01151 0.0
O2277 O 0.46597 0.52929 0.0044 0.0
C2278 C 0.54426 0.53357 0.0883 0.0
O2279 O 0.48299 0.52736 0.04652 0.0
C2280 C 0.50426 0.58339 0.02585 0.0
C2281 C 0.55997 0.55291 0.99962 0.0
O2282 O 0.52911 0.51637 0.07281 0.0
O2283 O 0.5473 0.55594 0.07831 0.0
O2284 O 0.5058 0.57834 0.04981 0.0
O2285 O 0.51504 0.56716 0.01403 0.0
O2286 O 0.55742 0.54959 0.02428 0.0
O2287 O 0.54066 0.54975 0.98131 0.0
C2288 C 0.48231 0.54855 0.93973 0.0
O2289 O 0.4986 0.53265 0.94354 0.0
O2290 O 0.47645 0.55797 0.96156 0.0
C2291 C 0.5058 0.49262 0.00497 0.0
Tb2292 Tb 0.78968 0.29311 0.27595 0.0
C2293 C 0.74789 0.29265 0.31676 0.0
Tb2294 Tb 0.73267 0.27281 0.25785 0.0
O2295 O 0.78786 0.33097 0.26031 0.0
O2296 O 0.75585 0.30905 0.27099 0.0
O2297 O 0.77239 0.29611 0.31254 0.0
C2298 C 0.68684 0.27586 0.23625 0.0
O2299 O 0.72915 0.28439 0.29818 0.0
C2300 C 0.75793 0.23317 0.26673 0.0
C2301 C 0.77374 0.2708 0.21794 0.0
O2302 O 0.69135 0.26186 0.25529 0.0
O2303 O 0.70796 0.2878 0.22939 0.0
O2304 O 0.73372 0.23039 0.25915 0.0
O2305 O 0.76541 0.25743 0.26877 0.0
O2306 O 0.74964 0.27224 0.22124 0.0
O2307 O 0.79215 0.27548 0.23716 0.0
C2308 C 0.83571 0.29651 0.30123 0.0
O2309 O 0.83119 0.30317 0.27809 0.0
O2310 O 0.81438 0.28832 0.31007 0.0
C2311 C 0.76332 0.32922 0.26008 0.0
Tb2312 Tb 0.98402 0.52209 0.50813 0.0
C2313 C 0.02476 0.48351 0.51559 0.0
Tb2314 Tb 0.04188 0.54488 0.52314 0.0
O2315 O 0.98668 0.53029 0.46782 0.0
O2316 O 0.01848 0.52503 0.49041 0.0
O2317 O 1.00035 0.48623 0.51227 0.0
C2318 C 0.09028 0.5638 0.51806 0.0
O2319 O 0.04389 0.50337 0.51895 0.0
C2320 C 0.01571 0.54225 0.56456 0.0
C2321 C 1.00207 0.58304 0.51903 0.0
O2322 O 0.08265 0.54785 0.53485 0.0
O2323 O 0.07067 0.56922 0.50428 0.0
O2324 O 0.04002 0.55054 0.56521 0.0
O2325 O 0.00844 0.53634 0.54114 0.0
O2326 O 0.02572 0.57999 0.51563 0.0
O2327 O 0.98348 0.56315 0.51969 0.0
C2328 C 0.93591 0.49883 0.51076 0.0
O2329 O 0.94274 0.51941 0.49875 0.0
O2330 O 0.95621 0.49104 0.52077 0.0
C2331 C 0.01127 0.53201 0.4688 0.0
Tb2332 Tb 0.77909 0.78987 0.29706 0.0
C2333 C 0.77864 0.835 0.26184 0.0
Tb2334 Tb 0.75872 0.77669 0.24465 0.0
O2335 O 0.81847 0.79895 0.28838 0.0
O2336 O 0.79336 0.77096 0.2652 0.0
O2337 O 0.77393 0.82832 0.28497 0.0
C2338 C 0.75239 0.76805 0.19419 0.0
O2339 O 0.77733 0.81685 0.2428 0.0
C2340 C 0.72262 0.78246 0.27513 0.0
C2341 C 0.75495 0.73069 0.2797 0.0
O2342 O 0.74042 0.78333 0.20723 0.0
O2343 O 0.76745 0.75747 0.20938 0.0
O2344 O 0.71992 0.76648 0.2547 0.0
O2345 O 0.74455 0.79605 0.2766 0.0
O2346 O 0.75396 0.7369 0.25571 0.0
O2347 O 0.76265 0.74857 0.29921 0.0
C2348 C 0.78735 0.80195 0.34768 0.0
O2349 O 0.77449 0.78046 0.33658 0.0
O2350 O 0.79594 0.8162 0.33023 0.0
C2351 C 0.81529 0.78451 0.26709 0.0
Tb2352 Tb 0.77458 0.31405 0.77585 0.0
C2353 C 0.82054 0.2807 0.77421 0.0
Tb2354 Tb 0.7629 0.25671 0.75951 0.0
O2355 O 0.76349 0.30834 0.81459 0.0
O2356 O 0.77747 0.27936 0.79425 0.0
O2357 O 0.81329 0.30409 0.77624 0.0
C2358 C 0.7442 0.20612 0.76139 0.0
O2359 O 0.80394 0.25881 0.76867 0.0
C2360 C 0.77029 0.28696 0.72114 0.0
C2361 C 0.71699 0.2897 0.76138 0.0
O2362 O 0.74929 0.22346 0.78069 0.0
O2363 O 0.75008 0.21711 0.74077 0.0
O2364 O 0.77536 0.26323 0.72144 0.0
O2365 O 0.75973 0.29147 0.74117 0.0
O2366 O 0.72428 0.26635 0.7613 0.0
O2367 O 0.73377 0.31162 0.76486 0.0
C2368 C 0.79332 0.36445 0.77356 0.0
O2369 O 0.77888 0.35527 0.79056 0.0
O2370 O 0.79704 0.34534 0.75803 0.0
C2371 C 0.76736 0.28421 0.81447 0.0
Tb2372 Tb 0.73991 0.77349 0.76791 0.0
C2373 C 0.77324 0.78476 0.82151 0.0
Tb2374 Tb 0.79368 0.80471 0.77144 0.0
O2375 O 0.75235 0.73952 0.74815 0.0
O2376 O 0.77758 0.76523 0.77332 0.0
O2377 O 0.75012 0.7812 0.80921 0.0
C2378 C 0.84178 0.81608 0.75976 0.0
O2379 O 0.79398 0.79348 0.81056 0.0
C2380 C 0.75781 0.83291 0.78132 0.0
C2381 C 0.75968 0.79248 0.71808 0.0
O2382 O 0.83331 0.79805 0.77419 0.0
O2383 O 0.82341 0.82876 0.75353 0.0
O2384 O 0.78178 0.83963 0.7899 0.0
O2385 O 0.75623 0.8129 0.76594 0.0
O2386 O 0.78271 0.79432 0.73033 0.0
O2387 O 0.73882 0.78585 0.72943 0.0
C2388 C 0.69076 0.75994 0.77526 0.0
O2389 O 0.70178 0.78281 0.77039 0.0
O2390 O 0.70783 0.74466 0.77595 0.0
C2391 C 0.77613 0.74568 0.75739 0.0
Tb2392 Tb 0.53233 0.56692 0.51222 0.0
C2393 C 0.52755 0.51956 0.46838 0.0
Tb2394 Tb 0.50533 0.50955 0.52119 0.0
O2395 O 0.57076 0.55669 0.51509 0.0
O2396 O 0.54138 0.53357 0.52952 0.0
O2397 O 0.53333 0.54502 0.47538 0.0
C2398 C 0.50177 0.46192 0.53828 0.0
O2399 O 0.5158 0.50222 0.4826 0.0
C2400 C 0.47184 0.54008 0.50434 0.0
C2401 C 0.51002 0.55563 0.56558 0.0
O2402 O 0.48435 0.47677 0.53861 0.0
O2403 O 0.52083 0.47357 0.52758 0.0
O2404 O 0.46593 0.51568 0.50922 0.0
O2405 O 0.49587 0.54443 0.50795 0.0
O2406 O 0.50621 0.53005 0.55895 0.0
O2407 O 0.51975 0.5734 0.5505 0.0
C2408 C 0.53718 0.61351 0.49299 0.0
O2409 O 0.54876 0.60865 0.51467 0.0
O2410 O 0.52287 0.59233 0.48265 0.0
C2411 C 0.56397 0.53398 0.5237 0.0
Tb2412 Tb 0.0428 0.538 0.01105 0.0
C2413 C 0.0266 0.52175 0.06582 0.0
Tb2414 Tb 0.98649 0.53118 0.02014 0.0
O2415 O 0.05289 0.57352 0.03678 0.0
O2416 O 0.01617 0.56266 0.01871 0.0
O2417 O 0.04496 0.52537 0.05023 0.0
C2418 C 0.94128 0.54054 0.03189 0.0
O2419 O 1.0025 0.52344 0.05831 0.0
C2420 C 1.00121 0.49171 0.99468 0.0
C2421 C 1.00195 0.5506 0.96707 0.0
O2422 O 0.94618 0.51796 0.0235 0.0
O2423 O 0.96208 0.55731 0.03494 0.0
O2424 O 0.97811 0.49668 0.99228 0.0
O2425 O 0.01354 0.50654 0.01296 0.0
O2426 O 0.98488 0.54964 0.98397 0.0
O2427 O 0.02516 0.54471 0.97278 0.0
C2428 C 0.0868 0.52563 0.99894 0.0
O2429 O 0.08142 0.54921 1.00045 0.0
O2430 O 0.06712 0.50922 0.00308 0.0
C2431 C 0.02963 0.57819 0.03596 0.0
C2432 C 0.0192 0.16487 0.95738 0.0
C2433 C 0.04138 0.18394 0.96106 0.0
C2434 C 0.062 0.1559 0.9894 0.0
C2435 C 0.03883 0.13801 0.98778 0.0
N2436 N 0.99351 0.12943 0.97478 0.0
N2437 N 0.08252 0.19988 0.98373 0.0
C2438 C 0.01691 0.14361 0.97305 0.0
C2439 C 0.06237 0.18016 0.97808 0.0
N2440 N 1.00051 0.16656 0.93831 0.0
N2441 N 0.08399 0.14921 1.00033 0.0
H2442 H 0.08353 0.2177 0.97553 0.0
H2443 H 0.09714 0.19939 0.99808 0.0
H2444 H 0.08491 0.13137 0.00797 0.0
H2445 H 0.1018 0.16031 0.99959 0.0
H2446 H 0.98531 0.15158 0.93284 0.0
H2447 H 1.00138 0.18175 0.92625 0.0
H2448 H 0.97668 0.13461 0.9667 0.0
H2449 H 0.99044 0.11425 0.98655 0.0
C2450 C 0.14227 0.77246 0.25351 0.0
C2451 C 0.13522 0.79019 0.23581 0.0
C2452 C 0.17788 0.81631 0.24425 0.0
C2453 C 0.18651 0.79612 0.25814 0.0
N2454 N 0.17571 0.75766 0.2806 0.0
N2455 N 0.14675 0.82782 0.21242 0.0
C2456 C 0.16821 0.77499 0.26417 0.0
C2457 C 0.15315 0.81177 0.2307 0.0
N2458 N 0.12404 0.75339 0.26023 0.0
N2459 N 0.19232 0.84046 0.2451 0.0
H2460 H 0.12859 0.82595 0.20278 0.0
H2461 H 0.16001 0.84164 0.20534 0.0
H2462 H 0.209 0.84627 0.25704 0.0
H2463 H 0.18585 0.85626 0.23696 0.0
H2464 H 0.12703 0.74082 0.27437 0.0
H2465 H 0.10516 0.75076 0.25232 0.0
H2466 H 0.1648 0.73998 0.28354 0.0
H2467 H 0.19323 0.76122 0.2917 0.0
C2468 C 0.51929 0.94735 0.44424 0.0
C2469 C 0.51792 0.92337 0.45571 0.0
C2470 C 0.50613 0.9448 0.49511 0.0
C2471 C 0.50403 0.96766 0.48218 0.0
N2472 N 0.50384 0.98836 0.4424 0.0
N2473 N 0.50719 0.89814 0.4912 0.0
C2474 C 0.50933 0.96829 0.45619 0.0
C2475 C 0.51082 0.92181 0.48106 0.0
N2476 N 0.53053 0.95029 0.42204 0.0
N2477 N 0.50326 0.94486 0.52068 0.0
H2478 H 0.51023 0.88093 0.48149 0.0
H2479 H 0.4993 0.89516 0.50837 0.0
H2480 H 0.49838 0.9607 0.53125 0.0
H2481 H 0.50741 0.92991 0.53179 0.0
H2482 H 0.5344 0.96819 0.4142 0.0
H2483 H 0.53841 0.93546 0.41293 0.0
H2484 H 0.50482 0.98852 0.4227 0.0
H2485 H 0.49564 1.00345 0.45014 0.0
C2486 C 0.35936 0.27559 0.71108 0.0
C2487 C 0.38076 0.27074 0.72698 0.0
C2488 C 0.35343 0.26189 0.76143 0.0
C2489 C 0.33353 0.2721 0.74773 0.0
N2490 N 0.31699 0.28654 0.70776 0.0
N2491 N 0.39867 0.2618 0.76862 0.0
C2492 C 0.33622 0.27812 0.72195 0.0
C2493 C 0.3779 0.26445 0.75249 0.0
N2494 N 0.36082 0.27668 0.68532 0.0
N2495 N 0.34857 0.24838 0.78235 0.0
H2496 H 0.41702 0.26385 0.76301 0.0
H2497 H 0.39796 0.25997 0.78817 0.0
H2498 H 0.3303 0.24383 0.78793 0.0
H2499 H 0.36181 0.23867 0.79184 0.0
H2500 H 0.34521 0.27732 0.67219 0.0
H2501 H 0.37725 0.27455 0.67666 0.0
H2502 H 0.31934 0.29568 0.6909 0.0
H2503 H 0.29859 0.28416 0.71279 0.0
C2504 C 0.00884 0.93328 0.55789 0.0
C2505 C 0.0102 0.91217 0.53987 0.0
C2506 C 0.01523 0.94217 0.50586 0.0
C2507 C 0.01132 0.96287 0.52327 0.0
N2508 N 0.00594 0.97869 0.56597 0.0
N2509 N 0.01394 0.89545 0.49682 0.0
C2510 C 0.00897 0.95856 0.54939 0.0
C2511 C 0.01331 0.91632 0.51386 0.0
N2512 N 0.00764 0.92919 0.58327 0.0
N2513 N 0.02176 0.94758 0.482 0.0
H2514 H 0.01366 0.87651 0.50233 0.0
H2515 H 0.01338 0.89651 0.47709 0.0
H2516 H 0.02434 0.96652 0.47615 0.0
H2517 H 0.02692 0.93399 0.46887 0.0
H2518 H 0.0103 0.94408 0.59794 0.0
H2519 H 0.00498 0.91073 0.59016 0.0
H2520 H 0.99917 0.97684 0.58381 0.0
H2521 H 0.01141 0.99759 0.5616 0.0
C2522 C 0.41004 0.80173 0.80718 0.0
C2523 C 0.41384 0.77966 0.82048 0.0
C2524 C 0.36832 0.76337 0.81348 0.0
C2525 C 0.36407 0.78842 0.80612 0.0
N2526 N 0.3817 0.83221 0.79703 0.0
N2527 N 0.39889 0.73359 0.81618 0.0
C2528 C 0.38517 0.80778 0.80309 0.0
C2529 C 0.39362 0.75848 0.81771 0.0
N2530 N 0.42885 0.8137 0.79419 0.0
N2531 N 0.34868 0.74427 0.81701 0.0
H2532 H 0.41757 0.72992 0.81654 0.0
H2533 H 0.38506 0.71715 0.81142 0.0
H2534 H 0.32963 0.7461 0.81409 0.0
H2535 H 0.35149 0.72695 0.82494 0.0
H2536 H 0.42632 0.82863 0.78237 0.0
H2537 H 0.44522 0.80552 0.79186 0.0
H2538 H 0.39686 0.84739 0.79682 0.0
H2539 H 0.36384 0.83793 0.79472 0.0
C2540 C 0.5002 0.1569 0.01413 0.0
C2541 C 0.48987 0.16313 0.03727 0.0
C2542 C 0.4895 0.11855 0.04914 0.0
C2543 C 0.49837 0.11157 0.02539 0.0
N2544 N 0.5073 0.12276 0.98301 0.0
N2545 N 0.4683 0.14843 0.07323 0.0
C2546 C 0.50226 0.13037 0.00714 0.0
C2547 C 0.48224 0.14337 0.05347 0.0
N2548 N 0.50882 0.17637 0.99937 0.0
N2549 N 0.49 0.10236 0.06847 0.0
H2550 H 0.46266 0.16654 0.07698 0.0
H2551 H 0.4602 0.13398 0.08418 0.0
H2552 H 0.49763 0.08526 0.06676 0.0
H2553 H 0.486 0.10742 0.08701 0.0
H2554 H 0.51914 0.1735 0.98384 0.0
H2555 H 0.50695 0.19582 0.00364 0.0
H2556 H 0.50807 0.13504 0.96814 0.0
H2557 H 0.50841 0.10342 0.97727 0.0
C2558 C 0.16001 0.25838 0.3529 0.0
C2559 C 0.13487 0.25967 0.34265 0.0
C2560 C 0.14792 0.25825 0.29917 0.0
C2561 C 0.17274 0.25572 0.30946 0.0
N2562 N 0.20014 0.24512 0.34493 0.0
N2563 N 0.10338 0.2537 0.30599 0.0
C2564 C 0.17801 0.25307 0.33598 0.0
C2565 C 0.12831 0.2573 0.31572 0.0
N2566 N 0.16714 0.2636 0.37858 0.0
N2567 N 0.14329 0.26314 0.27411 0.0
H2568 H 0.08849 0.25251 0.31758 0.0
H2569 H 0.09744 0.24935 0.28655 0.0
H2570 H 0.15704 0.26405 0.26125 0.0
H2571 H 0.12623 0.26827 0.26656 0.0
H2572 H 0.18594 0.26556 0.38654 0.0
H2573 H 0.15478 0.2685 0.39167 0.0
H2574 H 0.20398 0.24074 0.36381 0.0
H2575 H 0.21336 0.24007 0.33284 0.0
C2576 C 0.97059 0.08008 0.11991 0.0
C2577 C 0.96457 0.0582 0.13429 0.0
C2578 C 0.99665 0.0368 0.1144 0.0
C2579 C 1.00024 0.0571 0.09764 0.0
N2580 N 1.00083 0.10334 0.09458 0.0
N2581 N 0.97104 0.01518 0.14499 0.0
C2582 C 0.99017 0.08039 0.10321 0.0
C2583 C 0.97759 0.0365 0.13167 0.0
N2584 N 0.95706 0.10029 0.12164 0.0
N2585 N 0.01286 0.01889 0.11498 0.0
H2586 H 0.95759 0.01449 0.1582 0.0
H2587 H 0.97752 0.99749 0.14169 0.0
H2588 H 0.02862 0.02055 0.10454 0.0
H2589 H 0.01274 1.00458 0.12793 0.0
H2590 H 0.95827 0.11519 0.10929 0.0
H2591 H 0.94306 0.10109 0.13413 0.0
H2592 H 0.99528 0.12125 0.09926 0.0
H2593 H 0.01795 0.10534 0.08638 0.0
C2594 C 0.27133 0.77388 0.3872 0.0
C2595 C 0.27935 0.7491 0.3865 0.0
C2596 C 0.2772 0.74822 0.33936 0.0
C2597 C 0.2689 0.7731 0.33995 0.0
N2598 N 0.24901 0.80383 0.36427 0.0
N2599 N 0.28366 0.70983 0.36151 0.0
C2600 C 0.26329 0.78419 0.36387 0.0
C2601 C 0.28048 0.73547 0.36245 0.0
N2602 N 0.27205 0.78807 0.41015 0.0
N2603 N 0.28261 0.73677 0.31697 0.0
H2604 H 0.28606 0.69979 0.37787 0.0
H2605 H 0.28163 0.69781 0.34456 0.0
H2606 H 0.27668 0.74272 0.29945 0.0
H2607 H 0.29309 0.72148 0.31592 0.0
H2608 H 0.26911 0.80744 0.41164 0.0
H2609 H 0.27786 0.7813 0.42761 0.0
H2610 H 0.24242 0.81118 0.38088 0.0
H2611 H 0.24092 0.81034 0.34758 0.0
C2612 C 0.52674 0.01705 0.63988 0.0
C2613 C 0.5472 1.00279 0.64341 0.0
C2614 C 0.5454 0.99414 0.5966 0.0
C2615 C 0.52772 0.01178 0.59288 0.0
N2616 N 0.50342 0.04234 0.61204 0.0
N2617 N 0.57806 0.98003 0.62497 0.0
C2618 C 0.51863 0.02363 0.61479 0.0
C2619 C 0.55705 0.9919 0.6217 0.0
N2620 N 0.51483 0.02411 0.66057 0.0
N2621 N 0.55025 0.97852 0.57626 0.0
H2622 H 0.58678 0.97746 0.64297 0.0
H2623 H 0.58798 0.97458 0.60986 0.0
H2624 H 0.5411 0.9784 0.55788 0.0
H2625 H 0.56107 0.9636 0.57814 0.0
H2626 H 0.498 0.03189 0.65905 0.0
H2627 H 0.52048 0.01996 0.67917 0.0
H2628 H 0.49896 0.05387 0.62741 0.0
H2629 H 0.49708 0.04833 0.59446 0.0
C2630 C 0.25803 0.34428 0.89585 0.0
C2631 C 0.27062 0.33298 0.91604 0.0
C2632 C 0.29018 0.30733 0.88521 0.0
C2633 C 0.27484 0.31588 0.86497 0.0
N2634 N 0.23993 0.33878 0.852 0.0
N2635 N 0.29588 0.30123 0.93055 0.0
C2636 C 0.25763 0.33339 0.87046 0.0
C2637 C 0.28584 0.31367 0.91092 0.0
N2638 N 0.24704 0.36594 0.90077 0.0
N2639 N 0.30985 0.29452 0.88002 0.0
H2640 H 0.29324 0.30569 0.94967 0.0
H2641 H 0.30493 0.28507 0.92766 0.0
H2642 H 0.31484 0.29097 0.86155 0.0
H2643 H 0.32301 0.29003 0.89419 0.0
H2644 H 0.2403 0.37672 0.88638 0.0
H2645 H 0.24682 0.3747 0.91916 0.0
H2646 H 0.22517 0.34882 0.85611 0.0
H2647 H 0.23796 0.33116 0.83305 0.0
C2648 C 0.97042 0.06321 0.37796 0.0
C2649 C 0.94442 0.05312 0.37067 0.0
C2650 C 0.94094 0.03413 0.41194 0.0
C2651 C 0.96667 0.04507 0.41962 0.0
N2652 N 1.00487 0.07354 0.41215 0.0
N2653 N 0.90353 0.03381 0.38219 0.0
C2654 C 0.98106 0.06085 0.40335 0.0
C2655 C 0.92927 0.03993 0.3881 0.0
N2656 N 0.9852 0.07398 0.36027 0.0
N2657 N 0.92765 0.01814 0.42742 0.0
H2658 H 0.89427 0.03801 0.365 0.0
H2659 H 0.89103 0.0267 0.39508 0.0
H2660 H 0.93482 0.01487 0.44582 0.0
H2661 H 0.91001 0.00691 0.42154 0.0
H2662 H 1.00487 0.07902 0.36344 0.0
H2663 H 0.97805 0.07619 0.34156 0.0
H2664 H 0.01516 0.08767 0.40237 0.0
H2665 H 0.01379 0.07128 0.43013 0.0
C2666 C 0.28034 0.76574 0.64351 0.0
C2667 C 0.29167 0.74284 0.64011 0.0
C2668 C 0.28914 0.73619 0.6857 0.0
C2669 C 0.28035 0.76042 0.68987 0.0
N2670 N 0.27153 0.80044 0.6731 0.0
N2671 N 0.31237 0.70995 0.65969 0.0
C2672 C 0.27709 0.77585 0.66883 0.0
C2673 C 0.29784 0.72929 0.66178 0.0
N2674 N 0.27168 0.77723 0.62255 0.0
N2675 N 0.28745 0.71877 0.70396 0.0
H2676 H 0.31957 0.70466 0.64265 0.0
H2677 H 0.31942 0.70113 0.67544 0.0
H2678 H 0.27876 0.7222 0.72043 0.0
H2679 H 0.29143 0.69983 0.70124 0.0
H2680 H 0.26086 0.79222 0.62364 0.0
H2681 H 0.27345 0.77033 0.60383 0.0
H2682 H 0.2714 0.81366 0.65906 0.0
H2683 H 0.2693 0.80843 0.69131 0.0
C2684 C 0.55839 0.04359 0.91614 0.0
C2685 C 0.55045 0.01977 0.9006 0.0
C2686 C 0.5202 0.00518 0.93139 0.0
C2687 C 0.52656 0.02989 0.94581 0.0
N2688 N 0.54972 0.07366 0.9505 0.0
N2689 N 0.52146 0.97933 0.89144 0.0
C2690 C 0.54516 0.04937 0.93778 0.0
C2691 C 0.53073 1.00096 0.90773 0.0
N2692 N 0.57904 0.0604 0.91054 0.0
N2693 N 0.50477 0.98532 0.94075 0.0
H2694 H 0.52889 0.97531 0.87421 0.0
H2695 H 0.50514 0.96641 0.89393 0.0
H2696 H 0.49638 0.98747 0.95773 0.0
H2697 H 0.50202 0.96605 0.93295 0.0
H2698 H 0.58754 0.0768 0.92239 0.0
H2699 H 0.58897 0.05693 0.8948 0.0
H2700 H 0.56096 0.08967 0.94421 0.0
H2701 H 0.54079 0.07829 0.96662 0.0
C2702 C 0.2365 0.29831 0.14541 0.0
C2703 C 0.23095 0.32412 0.14569 0.0
C2704 C 0.22684 0.32496 0.19164 0.0
C2705 C 0.2353 0.30035 0.19198 0.0
N2706 N 0.24755 0.26291 0.17007 0.0
N2707 N 0.21908 0.36182 0.16766 0.0
C2708 C 0.23956 0.2866 0.169 0.0
C2709 C 0.22498 0.33713 0.16833 0.0
N2710 N 0.23891 0.28527 0.12253 0.0
N2711 N 0.22156 0.33709 0.21391 0.0
H2712 H 0.21656 0.37088 0.1507 0.0
H2713 H 0.21719 0.37389 0.18369 0.0
H2714 H 0.22551 0.33015 0.2316 0.0
H2715 H 0.21268 0.3535 0.21511 0.0
H2716 H 0.2413 0.2658 0.12042 0.0
H2717 H 0.23684 0.29362 0.1051 0.0
H2718 H 0.25357 0.25279 0.15465 0.0
H2719 H 0.24882 0.25351 0.18698 0.0
C2720 C 0.09852 0.97643 0.04579 0.0
C2721 C 0.12093 0.98336 0.03357 0.0
C2722 C 0.10891 0.0268 0.02734 0.0
C2723 C 0.0856 0.01919 0.03819 0.0
N2724 N 0.06369 0.99105 0.06615 0.0
N2725 N 0.14671 0.01424 0.01076 0.0
C2726 C 0.08189 0.99508 0.04962 0.0
C2727 C 0.12596 0.00838 0.02398 0.0
N2728 N 0.09259 0.95158 0.05289 0.0
N2729 N 0.11571 0.05201 0.02158 0.0
H2730 H 0.16041 1.00212 0.00919 0.0
H2731 H 0.14957 0.0302 0.99981 0.0
H2732 H 0.10431 0.06634 0.02322 0.0
H2733 H 0.13373 0.0596 0.01698 0.0
H2734 H 0.07511 0.94425 0.059 0.0
H2735 H 0.10436 0.93752 0.05068 0.0
H2736 H 0.06119 0.97505 0.0771 0.0
H2737 H 0.05315 0.00552 0.07125 0.0
C2738 C 0.63084 0.55811 0.99749 0.0
C2739 C 0.63664 0.58268 0.98738 0.0
C2740 C 0.59157 0.58687 0.98279 0.0
C2741 C 0.58576 0.56201 0.99249 0.0
N2742 N 0.59861 0.52075 1.00075 0.0
N2743 N 0.62258 0.61731 0.9644 0.0
C2744 C 0.60505 0.54662 0.99733 0.0
C2745 C 0.61696 0.59603 0.97804 0.0
N2746 N 0.64985 0.54623 0.00819 0.0
N2747 N 0.57323 0.60231 0.97933 0.0
H2748 H 0.64103 0.62442 0.96051 0.0
H2749 H 0.6088 0.62636 0.95493 0.0
H2750 H 0.55428 0.59635 0.98216 0.0
H2751 H 0.57711 0.62183 0.97546 0.0
H2752 H 0.64646 0.52978 0.01842 0.0
H2753 H 0.66906 0.55393 0.00858 0.0
H2754 H 0.61177 0.50797 1.00236 0.0
H2755 H 0.57977 0.51151 0.99866 0.0
C2756 C 0.74498 0.39152 0.29062 0.0
C2757 C 0.72519 0.39571 0.27235 0.0
C2758 C 0.73316 0.35866 0.24432 0.0
C2759 C 0.75128 0.35299 0.26363 0.0
N2760 N 0.77246 0.36206 0.30663 0.0
N2761 N 0.69822 0.38197 0.2331 0.0
C2762 C 0.75676 0.36897 0.28714 0.0
C2763 C 0.71867 0.37892 0.2495 0.0
N2764 N 0.75291 0.40944 0.31109 0.0
N2765 N 0.73032 0.34509 0.22079 0.0
H2766 H 0.68758 0.39693 0.236 0.0
H2767 H 0.69066 0.36868 0.21763 0.0
H2768 H 0.74081 0.33032 0.21643 0.0
H2769 H 0.71922 0.3498 0.20502 0.0
H2770 H 0.76921 0.40925 0.32342 0.0
H2771 H 0.7443 0.42581 0.31472 0.0
H2772 H 0.77432 0.37069 0.32529 0.0
H2773 H 0.78233 0.34639 0.30484 0.0
C2774 C 0.87434 0.47966 0.54138 0.0
C2775 C 0.85737 0.46909 0.5197 0.0
C2776 C 0.89158 0.47904 0.49185 0.0
C2777 C 0.90915 0.48732 0.51387 0.0
N2778 N 0.91787 0.49044 0.56013 0.0
N2779 N 0.8497 0.45489 0.47552 0.0
C2780 C 0.90076 0.48601 0.5388 0.0
C2781 C 0.86607 0.46797 0.49513 0.0
N2782 N 0.86504 0.48474 0.56425 0.0
N2783 N 0.89929 0.48153 0.46791 0.0
H2784 H 0.85442 0.45089 0.45702 0.0
H2785 H 0.85442 0.45089 0.45702 0.0
H2786 H 0.9182 0.48718 0.46467 0.0
H2787 H 0.88682 0.47933 0.45127 0.0
H2788 H 0.87607 0.49503 0.5801 0.0
H2789 H 0.8457 0.48114 0.56657 0.0
H2790 H 0.91294 0.48702 0.57847 0.0
H2791 H 0.93736 0.49512 0.55951 0.0
C2792 C 0.30964 0.18587 0.27157 0.0
C2793 C 0.32878 0.19052 0.25465 0.0
C2794 C 0.30923 0.22729 0.23906 0.0
C2795 C 0.29143 0.22396 0.25756 0.0
N2796 N 0.27914 0.2039 0.29574 0.0
N2797 N 0.34958 0.21856 0.22557 0.0
C2798 C 0.2929 0.20432 0.27503 0.0
C2799 C 0.32941 0.21215 0.23938 0.0
N2800 N 0.30676 0.1633 0.28373 0.0
N2801 N 0.30612 0.24385 0.22032 0.0
H2802 H 0.36455 0.20788 0.2253 0.0
H2803 H 0.35254 0.23568 0.21625 0.0
H2804 H 0.29142 0.25488 0.21921 0.0
H2805 H 0.31686 0.24511 0.20476 0.0
H2806 H 0.29136 0.15751 0.29397 0.0
H2807 H 0.31836 0.14907 0.28161 0.0
H2808 H 0.28146 0.19174 0.31045 0.0
H2809 H 0.26772 0.2178 0.29999 0.0
C2810 C 0.36669 0.04051 0.52012 0.0
C2811 C 0.36707 0.06704 0.52867 0.0
C2812 C 0.40835 0.0681 0.55327 0.0
C2813 C 0.4099 0.04347 0.54086 0.0
N2814 N 0.3865 1.00176 0.52405 0.0
N2815 N 0.38718 0.10616 0.55434 0.0
C2816 C 0.38775 0.02818 0.5278 0.0
C2817 C 0.38742 0.08075 0.54592 0.0
N2818 N 0.34682 0.02757 0.50369 0.0
N2819 N 0.42616 0.07854 0.57296 0.0
H2820 H 0.37172 0.11571 0.55013 0.0
H2821 H 0.40274 0.11824 0.56436 0.0
H2822 H 0.43995 0.06813 0.5804 0.0
H2823 H 0.42545 0.09573 0.584 0.0
H2824 H 0.34681 0.00929 0.49435 0.0
H2825 H 0.33078 0.0358 0.49818 0.0
H2826 H 0.37027 0.9891 0.51621 0.0
H2827 H 0.40078 0.99222 0.53195 0.0
C2828 C 0.7452 0.65579 0.27563 0.0
C2829 C 0.72665 0.65047 0.29307 0.0
C2830 C 0.72559 0.69732 0.30038 0.0
C2831 C 0.74574 0.703 0.28475 0.0
N2832 N 0.77725 0.6875 0.26022 0.0
N2833 N 0.70318 0.66627 0.32615 0.0
C2834 C 0.75631 0.68216 0.27318 0.0
C2835 C 0.71825 0.67132 0.30685 0.0
N2836 N 0.75143 0.63575 0.26057 0.0
N2837 N 0.71193 0.71631 0.30729 0.0
H2838 H 0.69739 0.64741 0.33135 0.0
H2839 H 0.69853 0.68089 0.33854 0.0
H2840 H 0.71504 0.73481 0.30065 0.0
H2841 H 0.69557 0.71281 0.31669 0.0
H2842 H 0.76244 0.63854 0.24534 0.0
H2843 H 0.74406 0.61621 0.26208 0.0
H2844 H 0.78761 0.67334 0.25397 0.0
H2845 H 0.78548 0.70642 0.25737 0.0
C2846 C 0.83514 0.43089 0.78845 0.0
C2847 C 0.82868 0.44345 0.76618 0.0
C2848 C 0.79851 0.40445 0.74903 0.0
C2849 C 0.80419 0.39224 0.77181 0.0
N2850 N 0.82541 0.39463 0.81461 0.0
N2851 N 0.80185 0.44436 0.72707 0.0
C2852 C 0.8216 0.4058 0.79204 0.0
C2853 C 0.80969 0.43081 0.74694 0.0
N2854 N 0.85508 0.44248 0.80561 0.0
N2855 N 0.78249 0.39077 0.72931 0.0
H2856 H 0.80983 0.46358 0.72482 0.0
H2857 H 0.78627 0.43741 0.71381 0.0
H2858 H 0.77219 0.3723 0.73079 0.0
H2859 H 0.78013 0.39714 0.71102 0.0
H2860 H 0.86281 0.4332 0.82065 0.0
H2861 H 0.8653 0.46091 0.80379 0.0
H2862 H 0.83535 0.40467 0.83115 0.0
H2863 H 0.81735 0.37564 0.81749 0.0
C2864 C 0.98549 0.91262 0.08802 0.0
C2865 C 0.99371 0.89079 0.0756 0.0
C2866 C 1.00166 0.91548 0.03803 0.0
C2867 C 0.9928 0.93708 0.05021 0.0
N2868 N 0.97117 0.95442 0.0841 0.0
N2869 N 0.00499 0.86935 0.03726 0.0
C2870 C 0.98317 0.93507 0.07443 0.0
C2871 C 1.00023 0.89156 0.05005 0.0
N2872 N 0.98065 0.9122 0.11311 0.0
N2873 N 0.01294 0.91829 0.01584 0.0
H2874 H 1.00472 0.85172 0.04571 0.0
H2875 H 0.00718 0.8678 0.01777 0.0
H2876 H 0.0143 0.93536 0.00637 0.0
H2877 H 0.02258 0.9044 0.00771 0.0
H2878 H 0.97768 0.92855 0.12424 0.0
H2879 H 0.98124 0.89581 0.12344 0.0
H2880 H 0.96162 0.95315 0.10048 0.0
H2881 H 0.96863 0.97083 0.07438 0.0
C2882 C 0.8798 0.27229 0.8171 0.0
C2883 C 0.89945 0.2821 0.80222 0.0
C2884 C 0.86736 0.29011 0.76827 0.0
C2885 C 0.84769 0.27913 0.78263 0.0
N2886 N 0.83522 0.25584 0.81899 0.0
N2887 N 0.9124 0.29689 0.76229 0.0
C2888 C 0.85394 0.26889 0.80644 0.0
C2889 C 0.89334 0.29004 0.77738 0.0
N2890 N 0.88579 0.26737 0.84198 0.0
N2891 N 0.86117 0.30082 0.74596 0.0
H2892 H 0.93154 0.29734 0.7685 0.0
H2893 H 0.90931 0.30032 0.74307 0.0
H2894 H 0.84248 0.29946 0.73783 0.0
H2895 H 0.87431 0.312 0.73609 0.0
H2896 H 0.87238 0.26347 0.85496 0.0
H2897 H 0.90443 0.26926 0.85044 0.0
H2898 H 0.83876 0.24525 0.83469 0.0
H2899 H 0.81597 0.25387 0.81281 0.0
C2900 C 0.49724 0.14133 0.55326 0.0
C2901 C 0.50361 0.14487 0.58015 0.0
C2902 C 0.52136 0.10413 0.57927 0.0
C2903 C 0.51422 0.09974 0.55233 0.0
N2904 N 0.49322 0.11345 0.51391 0.0
N2905 N 0.51582 0.12701 0.61955 0.0
C2906 C 0.50115 0.11791 0.53947 0.0
C2907 C 0.51385 0.12543 0.59335 0.0
N2908 N 0.48887 0.1611 0.54069 0.0
N2909 N 0.53598 0.08844 0.59154 0.0
H2910 H 0.51051 0.14238 0.63051 0.0
H2911 H 0.52032 0.11195 0.63034 0.0
H2912 H 0.54038 0.07129 0.58307 0.0
H2913 H 0.54486 0.09307 0.61008 0.0
H2914 H 0.48695 0.16145 0.52084 0.0
H2915 H 0.48528 0.17821 0.55017 0.0
H2916 H 0.4803 0.12355 0.50448 0.0
H2917 H 0.49885 0.09916 0.50198 0.0
C2918 C 0.65675 0.80164 0.27897 0.0
C2919 C 0.65381 0.80018 0.30543 0.0
C2920 C 0.69687 0.78937 0.31269 0.0
C2921 C 0.70014 0.79127 0.2863 0.0
N2922 N 0.68575 0.80639 0.246 0.0
N2923 N 0.67312 0.79901 0.34842 0.0
C2924 C 0.68081 0.79958 0.26993 0.0
C2925 C 0.67459 0.79612 0.32258 0.0
N2926 N 0.63632 0.80413 0.2623 0.0
N2927 N 0.71446 0.77979 0.32814 0.0
H2928 H 0.65702 0.80369 0.35631 0.0
H2929 H 0.68857 0.79916 0.36199 0.0
H2930 H 0.73089 0.77491 0.32145 0.0
H2931 H 0.71195 0.7749 0.34673 0.0
H2932 H 0.63639 0.80223 0.24246 0.0
H2933 H 0.61864 0.8063 0.26827 0.0
H2934 H 0.67337 0.81493 0.23403 0.0
H2935 H 0.7034 0.80609 0.23915 0.0
C2936 C 0.98282 0.13397 0.49287 0.0
C2937 C 1.00482 0.1493 0.4857 0.0
C2938 C 0.03178 0.1207 0.50547 0.0
C2939 C 0.00968 0.10426 0.51167 0.0
N2940 N 0.9637 0.09374 0.50863 0.0
N2941 N 0.04927 0.15437 0.47946 0.0
C2942 C 0.98504 0.11028 0.50433 0.0
C2943 C 0.02901 0.14182 0.49036 0.0
N2944 N 0.95999 0.14273 0.48981 0.0
N2945 N 0.05557 0.11643 0.51402 0.0
H2946 H 0.04798 0.16986 0.46803 0.0
H2947 H 0.06677 0.14794 0.47966 0.0
H2948 H 0.05936 0.09964 0.52223 0.0
H2949 H 0.07186 0.13017 0.5136 0.0
H2950 H 0.94373 0.13428 0.4975 0.0
H2951 H 0.95764 0.15971 0.48097 0.0
H2952 H 0.94556 0.09516 0.50046 0.0
H2953 H 0.96395 0.07773 0.51936 0.0
C2954 C 0.63511 0.27447 0.18223 0.0
C2955 C 0.61594 0.28373 0.19552 0.0
C2956 C 0.64322 0.28775 0.236 0.0
C2957 C 0.66171 0.27694 0.2229 0.0
N2958 N 0.67348 0.25504 0.18496 0.0
N2959 N 0.59958 0.29541 0.23519 0.0
C2960 C 0.65716 0.26888 0.19639 0.0
C2961 C 0.61933 0.28922 0.2225 0.0
N2962 N 0.63257 0.27173 0.15602 0.0
N2963 N 0.64894 0.29775 0.26092 0.0
H2964 H 0.58198 0.29717 0.2258 0.0
H2965 H 0.59995 0.29688 0.25507 0.0
H2966 H 0.66622 0.29696 0.27147 0.0
H2967 H 0.63738 0.30857 0.27061 0.0
H2968 H 0.64717 0.26797 0.14521 0.0
H2969 H 0.61651 0.27528 0.14489 0.0
H2970 H 0.66981 0.24627 0.16634 0.0
H2971 H 0.68963 0.2501 0.19486 0.0
C2972 C 0.52264 0.91037 0.00835 0.0
C2973 C 0.54008 0.90707 0.99005 0.0
C2974 C 0.54878 0.95427 0.98708 0.0
C2975 C 0.53215 0.95785 0.00627 0.0
N2976 N 0.50783 0.93989 0.0392 0.0
N2977 N 0.5745 0.92577 0.96718 0.0
C2978 C 0.52046 0.93604 0.01816 0.0
C2979 C 0.55477 0.92905 0.98124 0.0
N2980 N 0.50747 0.88906 0.01557 0.0
N2981 N 0.55745 0.9744 0.97303 0.0
H2982 H 0.57934 0.90746 0.96251 0.0
H2983 H 0.58754 0.94127 0.96242 0.0
H2984 H 0.55302 0.99311 0.97565 0.0
H2985 H 0.567 0.97191 0.95685 0.0
H2986 H 0.49229 0.89034 0.02641 0.0
H2987 H 0.50906 0.86998 0.00935 0.0
H2988 H 0.50095 0.92491 0.05018 0.0
H2989 H 0.50632 0.95845 0.04716 0.0
C2990 C 0.87512 0.7932 0.7037 0.0
C2991 C 0.89861 0.81032 0.70758 0.0
C2992 C 0.88473 0.83214 0.74552 0.0
C2993 C 0.86217 0.81349 0.74288 0.0
N2994 N 0.83732 0.77389 0.72139 0.0
N2995 N 0.92746 0.84423 0.73331 0.0
C2996 C 0.85784 0.79329 0.7226 0.0
C2997 C 0.90391 0.82935 0.72881 0.0
N2998 N 0.86887 0.77753 0.68136 0.0
N2999 N 0.88761 0.85267 0.76372 0.0
H3000 H 0.9417 0.84296 0.72118 0.0
H3001 H 0.93351 0.85656 0.74984 0.0
H3002 H 0.87433 0.85467 0.77679 0.0
H3003 H 0.90228 0.86848 0.76494 0.0
H3004 H 0.85079 0.76704 0.6759 0.0
H3005 H 0.88104 0.77674 0.667 0.0
H3006 H 0.83517 0.75694 0.70916 0.0
H3007 H 0.82327 0.77351 0.73382 0.0
C3008 C 0.08504 0.02197 0.93029 0.0
C3009 C 0.07191 0.00933 0.90722 0.0
C3010 C 0.03216 1.00327 0.92799 0.0
C3011 C 0.04479 0.01888 0.94996 0.0
N3012 N 0.083 0.04634 0.97033 0.0
N3013 N 0.03261 0.98965 0.88285 0.0
C3014 C 0.07112 0.02916 0.9506 0.0
C3015 C 0.04535 1.00023 0.90575 0.0
N3016 N 0.11105 0.02636 0.93318 0.0
N3017 N 0.00755 0.99155 0.92831 0.0
H3018 H 0.04174 0.98687 0.8664 0.0
H3019 H 0.0129 0.98521 0.87965 0.0
H3020 H 0.99704 0.99442 0.94374 0.0
H3021 H 0.99806 0.97775 0.91406 0.0
H3022 H 0.12174 0.03269 0.95063 0.0
H3023 H 0.122 0.02115 0.91882 0.0
H3024 H 0.10087 0.05735 0.96966 0.0
H3025 H 0.07453 0.05119 0.98659 0.0
C3026 C 0.77148 0.33283 0.66661 0.0
C3027 C 0.74981 0.32087 0.64993 0.0
C3028 C 0.74052 0.28783 0.68088 0.0
C3029 C 0.76344 0.29844 0.69641 0.0
N3030 N 0.80282 0.32843 0.70181 0.0
N3031 N 0.71579 0.28465 0.63938 0.0
C3032 C 0.77949 0.32023 0.68862 0.0
C3033 C 0.73487 0.29775 0.65663 0.0
N3034 N 0.78397 0.35672 0.66188 0.0
N3035 N 0.72369 0.26871 0.6896 0.0
H3036 H 0.71101 0.29126 0.62156 0.0
H3037 H 0.70606 0.26618 0.64178 0.0
H3038 H 0.72721 0.26047 0.70684 0.0
H3039 H 0.70534 0.26251 0.68083 0.0
H3040 H 0.79816 0.36779 0.67466 0.0
H3041 H 0.77864 0.36658 0.64613 0.0
H3042 H 0.81656 0.34246 0.69574 0.0
H3043 H 0.80927 0.31952 0.71777 0.0
C3044 C 0.49871 0.08561 0.40639 0.0
C3045 C 0.47582 0.07324 0.39199 0.0
C3046 C 0.46621 0.04581 0.42747 0.0
C3047 C 0.48844 0.05922 0.44257 0.0
N3048 N 0.52308 0.09536 0.44807 0.0
N3049 N 0.43616 0.04367 0.38967 0.0
C3050 C 0.50401 0.08 0.43242 0.0
C3051 C 0.45907 0.05405 0.40287 0.0
N3052 N 0.51553 0.10264 0.3951 0.0
N3053 N 0.45251 0.0242 0.43593 0.0
H3054 H 0.43094 0.04738 0.37084 0.0
H3055 H 0.42153 0.0326 0.39784 0.0
H3056 H 0.45645 0.01744 0.45377 0.0
H3057 H 0.43837 0.0115 0.42449 0.0
H3058 H 0.53389 0.10991 0.40331 0.0
H3059 H 0.51174 0.10822 0.37663 0.0
H3060 H 0.53337 0.11247 0.44276 0.0
H3061 H 0.52714 0.09245 0.46734 0.0
C3062 C 0.73991 0.72393 0.13429 0.0
C3063 C 0.75134 0.74065 0.11686 0.0
C3064 C 0.75798 0.77771 0.14909 0.0
C3065 C 0.74755 0.76066 0.16668 0.0
N3066 N 0.72209 0.7204 0.17493 0.0
N3067 N 0.76567 0.78394 0.10489 0.0
C3068 C 0.73629 0.73466 0.15883 0.0
C3069 C 0.75845 0.76783 0.12335 0.0
N3070 N 0.73383 0.69764 0.12787 0.0
N3071 N 0.76859 0.80281 0.15738 0.0
H3072 H 0.76631 0.777 0.08591 0.0
H3073 H 0.76909 0.80421 0.10779 0.0
H3074 H 0.76769 0.81077 0.17597 0.0
H3075 H 0.77914 0.81542 0.14632 0.0
H3076 H 0.72849 0.68408 0.14088 0.0
H3077 H 0.73554 0.68903 0.10978 0.0
H3078 H 0.71143 0.70206 0.16955 0.0
H3079 H 0.71901 0.72805 0.19305 0.0
C3080 C 0.07865 1.00092 0.64658 0.0
C3081 C 0.07463 0.0163 0.66862 0.0
C3082 C 0.05208 0.04373 0.64172 0.0
C3083 C 0.05369 0.02668 0.61985 0.0
N3084 N 0.06344 0.98513 0.603 0.0
N3085 N 0.05296 0.04876 0.68793 0.0
C3086 C 0.06552 1.00414 0.62265 0.0
C3087 C 0.05981 0.03654 0.66642 0.0
N3088 N 0.09576 0.98393 0.6482 0.0
N3089 N 0.04477 0.06754 0.63896 0.0
H3090 H 0.0582 0.04386 0.70637 0.0
H3091 H 0.04007 0.06189 0.68733 0.0
H3092 H 0.04063 0.07455 0.62122 0.0
H3093 H 0.04568 0.08162 0.65421 0.0
H3094 H 0.10155 0.97452 0.63215 0.0
H3095 H 0.10597 0.98102 0.66533 0.0
H3096 H 0.06928 0.96712 0.60525 0.0
H3097 H 0.05358 0.98593 0.58521 0.0
C3098 C 0.7489 0.3023 0.39005 0.0
C3099 C 0.73107 0.31971 0.39275 0.0
C3100 C 0.72476 0.32002 0.34574 0.0
C3101 C 0.74119 0.30109 0.3429 0.0
N3102 N 0.76492 0.27049 0.36252 0.0
N3103 N 0.69814 0.3408 0.37304 0.0
C3104 C 0.75214 0.29119 0.36515 0.0
C3105 C 0.71781 0.32719 0.37051 0.0
N3106 N 0.76349 0.2971 0.4112 0.0
N3107 N 0.71688 0.33241 0.32504 0.0
H3108 H 0.69248 0.34636 0.39079 0.0
H3109 H 0.68594 0.34439 0.35756 0.0
H3110 H 0.72173 0.32838 0.30663 0.0
H3111 H 0.70755 0.34853 0.32651 0.0
H3112 H 0.77884 0.28708 0.41025 0.0
H3113 H 0.76152 0.30458 0.42968 0.0
H3114 H 0.77113 0.26064 0.3779 0.0
H3115 H 0.76722 0.26152 0.34473 0.0
C3116 C 0.46354 0.04618 0.11088 0.0
C3117 C 0.47881 0.05054 0.13473 0.0
C3118 C 0.51474 0.03841 0.11316 0.0
C3119 C 0.50121 0.03911 0.0887 0.0
N3120 N 0.46109 0.04156 0.06471 0.0
N3121 N 0.5198 0.05265 0.15845 0.0
C3122 C 0.47502 0.04201 0.0877 0.0
C3123 C 0.50463 0.04706 0.13583 0.0
N3124 N 0.43781 0.04509 0.11043 0.0
N3125 N 0.53671 0.02801 0.11488 0.0
H3126 H 0.51309 0.05876 0.1755 0.0
H3127 H 0.53943 0.05332 0.15981 0.0
H3128 H 0.54337 0.01917 0.099 0.0
H3129 H 0.54635 0.02493 0.13225 0.0
H3130 H 0.42514 0.03893 0.0942 0.0
H3131 H 0.4288 0.04831 0.12687 0.0
H3132 H 0.44381 0.04841 0.06233 0.0
H3133 H 0.46678 0.03384 0.04799 0.0
C3134 C 0.7851 0.77134 0.8917 0.0
C3135 C 0.78376 0.74377 0.88895 0.0
C3136 C 0.7726 0.74341 0.84311 0.0
C3137 C 0.77635 0.77121 0.84514 0.0
N3138 N 0.79032 0.81187 0.8708 0.0
N3139 N 0.78478 0.70523 0.8612 0.0
C3140 C 0.78413 0.78531 0.86928 0.0
C3141 C 0.78027 0.73038 0.86436 0.0
N3142 N 0.78607 0.78397 0.91547 0.0
N3143 N 0.76125 0.72913 0.82121 0.0
H3144 H 0.79134 0.69526 0.87638 0.0
H3145 H 0.78478 0.69545 0.84324 0.0
H3146 H 0.75526 0.73721 0.80466 0.0
H3147 H 0.75579 0.70894 0.82024 0.0
H3148 H 0.78445 0.80363 0.91841 0.0
H3149 H 0.7865 0.77432 0.93223 0.0
H3150 H 0.79841 0.82296 0.88757 0.0
H3151 H 0.7891 0.82258 0.85478 0.0
C3152 C 0.91087 0.06683 0.98758 0.0
C3153 C 0.91203 0.0892 0.00503 0.0
C3154 C 0.9562 0.0853 0.01992 0.0
C3155 C 0.95452 0.06148 0.00414 0.0
N3156 N 0.93355 0.03613 0.96602 0.0
N3157 N 0.93497 0.11813 0.03994 0.0
C3158 C 0.93266 0.05397 0.98608 0.0
C3159 C 0.9344 0.0978 0.02189 0.0
N3160 N 0.88846 0.05714 0.97317 0.0
N3161 N 0.97931 0.09787 0.03071 0.0
H3162 H 0.92056 0.12947 0.04068 0.0
H3163 H 0.94895 0.12263 0.05537 0.0
H3164 H 0.99603 0.09278 0.02505 0.0
H3165 H 0.98229 0.11604 0.04102 0.0
H3166 H 0.88515 0.0392 0.9624 0.0
H3167 H 0.87229 0.06602 0.97365 0.0
H3168 H 0.91931 0.03138 0.95089 0.0
H3169 H 0.94999 0.0286 0.96259 0.0
C3170 C 0.41077 0.479 0.05618 0.0
C3171 C 0.38915 0.48967 0.0473 0.0
C3172 C 0.41583 0.52356 0.02715 0.0
C3173 C 0.43788 0.51291 0.03583 0.0
N3174 N 0.45623 0.48124 0.06081 0.0
N3175 N 0.37062 0.52403 0.02822 0.0
C3176 C 0.43534 0.49105 0.05121 0.0
C3177 C 0.39159 0.51257 0.03402 0.0
N3178 N 0.40759 0.45637 0.06831 0.0
N3179 N 0.41782 0.54393 0.01189 0.0
H3180 H 0.35239 0.51597 0.03192 0.0
H3181 H 0.37128 0.54247 0.02151 0.0
H3182 H 0.43495 0.5547 0.00847 0.0
H3183 H 0.40242 0.54971 1.00156 0.0
H3184 H 0.42173 0.44498 0.07172 0.0
H3185 H 0.39019 0.4481 0.07404 0.0
H3186 H 0.45613 0.46917 0.07583 0.0
H3187 H 0.47401 0.48506 0.05423 0.0
C3188 C 0.27043 0.66061 0.76438 0.0
C3189 C 0.29632 0.66303 0.75979 0.0
C3190 C 0.30031 0.71073 0.76567 0.0
C3191 C 0.27392 0.70853 0.76917 0.0
N3192 N 0.23786 0.68121 0.78284 0.0
N3193 N 0.33757 0.6897 0.76295 0.0
C3194 C 0.26018 0.68336 0.77186 0.0
C3195 C 0.31176 0.68789 0.76258 0.0
N3196 N 0.25543 0.63666 0.76105 0.0
N3197 N 0.31442 0.7345 0.76425 0.0
H3198 H 0.34665 0.67348 0.76032 0.0
H3199 H 0.35021 0.70696 0.768 0.0
H3200 H 0.30868 0.75135 0.77126 0.0
H3201 H 0.33188 0.73736 0.75668 0.0
H3202 H 0.23577 0.63408 0.76129 0.0
H3203 H 0.26242 0.61953 0.75615 0.0
H3204 H 0.22793 0.66347 0.7872 0.0
H3205 H 0.23109 0.69743 0.79073 0.0
C3206 C 0.15713 0.60275 0.53191 0.0
C3207 C 0.16827 0.5953 0.50961 0.0
C3208 C 0.12779 0.56836 0.49213 0.0
C3209 C 0.11718 0.57443 0.51521 0.0
N3210 N 0.12218 0.59509 0.55824 0.0
N3211 N 0.16578 0.56869 0.46993 0.0
C3212 C 0.13205 0.59081 0.53551 0.0
C3213 C 0.15399 0.57751 0.49005 0.0
N3214 N 0.17012 0.62218 0.54911 0.0
N3215 N 0.11282 0.55382 0.47219 0.0
H3216 H 0.18486 0.5751 0.46778 0.0
H3217 H 0.15737 0.55368 0.45636 0.0
H3218 H 0.09412 0.54521 0.4735 0.0
H3219 H 0.1184 0.55132 0.45385 0.0
H3220 H 0.16208 0.63072 0.56418 0.0
H3221 H 0.18851 0.63139 0.54724 0.0
H3222 H 0.13301 0.60396 0.57483 0.0
H3223 H 0.10335 0.58846 0.56111 0.0
C3224 C 0.69862 0.86602 0.76703 0.0
C3225 C 0.70196 0.88591 0.78733 0.0
C3226 C 0.7379 0.86676 0.8065 0.0
C3227 C 0.73769 0.85033 0.78364 0.0
N3228 N 0.7203 0.84075 0.73913 0.0
N3229 N 0.72777 0.90739 0.82505 0.0
C3230 C 0.71853 0.85141 0.76314 0.0
C3231 C 0.72238 0.88685 0.80681 0.0
N3232 N 0.67645 0.86107 0.75126 0.0
N3233 N 0.75218 0.86274 0.82829 0.0
H3234 H 0.71732 0.92272 0.82572 0.0
H3235 H 0.74404 0.91035 0.83803 0.0
H3236 H 0.76255 0.84739 0.82938 0.0
H3237 H 0.75127 0.87268 0.84597 0.0
H3238 H 0.67222 0.84515 0.7376 0.0
H3239 H 0.66126 0.87107 0.75382 0.0
H3240 H 0.70776 0.84285 0.72333 0.0
H3241 H 0.73634 0.83367 0.73412 0.0
C3242 C 0.6415 1.00175 0.48764 0.0
C3243 C 0.64926 0.99623 0.51296 0.0
C3244 C 0.61628 0.01837 0.52951 0.0
C3245 C 0.60635 0.02058 0.50394 0.0
N3246 N 0.6081 0.01364 0.45849 0.0
N3247 N 0.64264 0.99639 0.55781 0.0
C3248 C 0.61868 0.01225 0.4829 0.0
C3249 C 0.63648 1.00403 0.53393 0.0
N3250 N 0.65614 0.9972 0.46833 0.0
N3251 N 0.60626 0.02979 0.5496 0.0
H3252 H 0.65735 0.98583 0.56199 0.0
H3253 H 0.63189 0.99862 0.57313 0.0
H3254 H 0.59105 0.04003 0.54729 0.0
H3255 H 0.61442 0.03117 0.56848 0.0
H3256 H 0.6528 1.00297 0.44991 0.0
H3257 H 0.67294 0.98948 0.47129 0.0
H3258 H 0.61446 0.00513 0.44231 0.0
H3259 H 0.59198 0.02229 0.45452 0.0
C3260 C 0.31643 0.40072 0.76001 0.0
C3261 C 0.3057 0.41216 0.73871 0.0
C3262 C 0.27424 0.37235 0.72831 0.0
C3263 C 0.28685 0.3599 0.74779 0.0
N3264 N 0.32318 0.36081 0.77883 0.0
N3265 N 0.27667 0.40776 0.70032 0.0
C3266 C 0.30878 0.37372 0.76283 0.0
C3267 C 0.28519 0.39767 0.72222 0.0
N3268 N 0.33352 0.41581 0.77794 0.0
N3269 N 0.25128 0.36043 0.7163 0.0
H3270 H 0.28409 0.42627 0.69533 0.0
H3271 H 0.26373 0.39701 0.6861 0.0
H3272 H 0.24237 0.3422 0.72063 0.0
H3273 H 0.23995 0.36963 0.70385 0.0
H3274 H 0.33988 0.4092 0.79527 0.0
H3275 H 0.33953 0.4357 0.77667 0.0
H3276 H 0.3408 0.3693 0.78813 0.0
H3277 H 0.31889 0.34086 0.78087 0.0
C3278 C 0.18948 0.65101 0.26961 0.0
C3279 C 0.20416 0.63064 0.27214 0.0
C3280 C 0.24312 0.66209 0.27072 0.0
C3281 C 0.22816 0.68185 0.2656 0.0
N3282 N 0.18677 0.69332 0.25409 0.0
N3283 N 0.24452 0.61567 0.27083 0.0
C3284 C 0.20123 0.67582 0.26336 0.0
C3285 C 0.23089 0.63585 0.27145 0.0
N3286 N 0.16442 0.6469 0.27391 0.0
N3287 N 0.26886 0.6685 0.27613 0.0
H3288 H 0.23622 0.59624 0.27143 0.0
H3289 H 0.2636 0.61796 0.26754 0.0
H3290 H 0.27854 0.68749 0.27621 0.0
H3291 H 0.28037 0.65542 0.28277 0.0
H3292 H 0.15352 0.66183 0.27502 0.0
H3293 H 0.15516 0.62907 0.27886 0.0
H3294 H 0.16714 0.68892 0.24977 0.0
H3295 H 0.19454 0.71122 0.24796 0.0
C3296 C 0.53826 0.65978 0.44031 0.0
C3297 C 0.53946 0.68434 0.45423 0.0
C3298 C 0.53899 0.66265 0.49439 0.0
C3299 C 0.54025 0.63854 0.48056 0.0
N3300 N 0.54857 0.61621 0.44115 0.0
N3301 N 0.54658 0.70989 0.49498 0.0
C3302 C 0.54213 0.63772 0.45375 0.0
C3303 C 0.54155 0.68602 0.48145 0.0
N3304 N 0.53235 0.65717 0.41433 0.0
N3305 N 0.534 0.66322 0.51944 0.0
H3306 H 0.54896 0.72739 0.48619 0.0
H3307 H 0.5508 0.71225 0.51482 0.0
H3308 H 0.53138 0.6466 0.52953 0.0
H3309 H 0.53013 0.67986 0.5295 0.0
H3310 H 0.52872 0.63912 0.40371 0.0
H3311 H 0.52842 0.67259 0.40373 0.0
H3312 H 0.55238 0.61559 0.42205 0.0
H3313 H 0.55311 0.60019 0.45049 0.0
C3314 C 0.64454 0.27207 0.75448 0.0
C3315 C 0.63754 0.28775 0.73476 0.0
C3316 C 0.68255 0.30519 0.73254 0.0
C3317 C 0.68958 0.29087 0.75354 0.0
N3318 N 0.67642 0.26564 0.78824 0.0
N3319 N 0.64931 0.32389 0.70953 0.0
C3320 C 0.67028 0.27575 0.76561 0.0
C3321 C 0.6564 0.30581 0.72528 0.0
N3322 N 0.62684 0.25299 0.76197 0.0
N3323 N 0.70057 0.31683 0.71828 0.0
H3324 H 0.63035 0.32505 0.70388 0.0
H3325 H 0.66209 0.33932 0.7042 0.0
H3326 H 0.7199 0.31648 0.72204 0.0
H3327 H 0.69611 0.32466 0.70102 0.0
H3328 H 0.63142 0.23902 0.77414 0.0
H3329 H 0.60784 0.24978 0.75439 0.0
H3330 H 0.66297 0.25638 0.79916 0.0
H3331 H 0.69481 0.26907 0.79746 0.0
C3332 C 0.02627 0.4476 0.94514 0.0
C3333 C 0.02445 0.42383 0.95697 0.0
C3334 C 0.01137 0.44575 0.99541 0.0
C3335 C 0.00972 0.4684 0.982 0.0
N3336 N 0.01053 0.48828 0.9418 0.0
N3337 N 0.01277 0.39916 0.99254 0.0
C3338 C 0.01585 0.46864 0.95625 0.0
C3339 C 0.01657 0.42262 0.98204 0.0
N3340 N 0.03823 0.45018 0.92334 0.0
N3341 N 0.00759 0.44617 0.02079 0.0
H3342 H 0.01645 0.38191 0.98341 0.0
H3343 H 1.00428 0.39637 0.00941 0.0
H3344 H 1.00221 0.46209 0.0308 0.0
H3345 H 0.01138 0.43142 0.03233 0.0
H3346 H 0.04243 0.46795 0.91533 0.0
H3347 H 0.04636 0.43519 0.91482 0.0
H3348 H 0.01233 0.48821 0.92223 0.0
H3349 H 1.00141 0.50304 0.94873 0.0
C3350 C 0.86495 0.75179 0.23386 0.0
C3351 C 0.88126 0.77405 0.22727 0.0
C3352 C 0.85197 0.80208 0.24298 0.0
C3353 C 0.83701 0.78017 0.25202 0.0
N3354 N 0.8336 0.73513 0.26169 0.0
N3355 N 0.89293 0.82094 0.23073 0.0
C3356 C 0.84456 0.75519 0.24887 0.0
C3357 C 0.87547 0.79936 0.23325 0.0
N3358 N 0.86863 0.72737 0.22546 0.0
N3359 N 0.84346 0.82553 0.24309 0.0
H3360 H 0.91062 0.8199 0.22426 0.0
H3361 H 0.89095 0.83974 0.23748 0.0
H3362 H 0.82641 0.82834 0.24995 0.0
H3363 H 0.85204 0.8414 0.23418 0.0
H3364 H 0.85581 0.71058 0.22747 0.0
H3365 H 0.88328 0.72412 0.21445 0.0
H3366 H 0.83999 0.7172 0.26204 0.0
H3367 H 0.82004 0.73737 0.27434 0.0
C3368 C 0.48537 0.42377 0.02399 0.0
C3369 C 0.50512 0.42118 0.04294 0.0
C3370 C 0.52694 0.46456 0.03576 0.0
C3371 C 0.50558 0.46856 0.01909 0.0
N3372 N 0.46091 0.45378 0.00471 0.0
N3373 N 0.5415 0.4418 0.0715 0.0
C3374 C 0.48376 0.44867 0.01519 0.0
C3375 C 0.52493 0.4424 0.05028 0.0
N3376 N 0.46833 0.40243 0.01396 0.0
N3377 N 0.54962 0.48089 0.037 0.0
H3378 H 0.54042 0.42607 0.0829 0.0
H3379 H 0.55458 0.458 0.07919 0.0
H3380 H 0.55266 0.49691 0.02633 0.0
H3381 H 0.56622 0.47698 0.04688 0.0
H3382 H 0.4551 0.40306 0.99829 0.0
H3383 H 0.46913 0.38365 0.01947 0.0
H3384 H 0.44418 0.44037 0.00374 0.0
H3385 H 0.45766 0.47234 1.00054 0.0
C3386 C 0.88835 0.27458 0.34357 0.0
C3387 C 0.90912 0.29409 0.34044 0.0
C3388 C 0.8811 0.31704 0.31416 0.0
C3389 C 0.86106 0.29576 0.31459 0.0
N3390 N 0.84778 0.25129 0.32515 0.0
N3391 N 0.92657 0.33196 0.31995 0.0
C3392 C 0.8652 0.2737 0.32808 0.0
C3393 C 0.90591 0.31479 0.32488 0.0
N3394 N 0.89049 0.25722 0.36179 0.0
N3395 N 0.87626 0.33988 0.30478 0.0
H3396 H 0.94501 0.33101 0.32772 0.0
H3397 H 0.92569 0.34575 0.30652 0.0
H3398 H 0.85816 0.34284 0.29782 0.0
H3399 H 0.88969 0.35681 0.30635 0.0
H3400 H 0.87501 0.24447 0.36673 0.0
H3401 H 0.90712 0.25726 0.37377 0.0
H3402 H 0.85138 0.23389 0.33239 0.0
H3403 H 0.83089 0.24894 0.31324 0.0
C3404 C 0.99868 0.64616 0.55825 0.0
C3405 C 0.9827 0.65804 0.54125 0.0
C3406 C 0.97902 0.62052 0.5095 0.0
C3407 C 0.99659 0.6096 0.52575 0.0
N3408 N 0.02595 0.61369 0.56416 0.0
N3409 N 0.9593 0.65844 0.50006 0.0
C3410 C 0.00725 0.62292 0.54968 0.0
C3411 C 0.97325 0.64571 0.51668 0.0
N3412 N 0.00531 0.65687 0.58288 0.0
N3413 N 0.96786 0.60675 0.48726 0.0
H3414 H 0.95396 0.6764 0.50517 0.0
H3415 H 0.95415 0.65202 0.48087 0.0
H3416 H 0.97294 0.58913 0.48054 0.0
H3417 H 0.95279 0.61207 0.47599 0.0
H3418 H 0.01398 0.64739 0.59723 0.0
H3419 H 1.00035 0.67445 0.58977 0.0
H3420 H 0.03673 0.62426 0.57997 0.0
H3421 H 0.03234 0.59633 0.55937 0.0
C3422 C 0.63061 0.7748 0.80186 0.0
C3423 C 0.63018 0.75783 0.82198 0.0
C3424 C 0.66057 0.73447 0.80187 0.0
C3425 C 0.66558 0.75501 0.78574 0.0
N3426 N 0.65124 0.79105 0.76543 0.0
N3427 N 0.64546 0.72192 0.84196 0.0
C3428 C 0.64916 0.77401 0.78411 0.0
C3429 C 0.64517 0.73758 0.82209 0.0
N3430 N 0.61288 0.79107 0.79944 0.0
N3431 N 0.66953 0.71159 0.79721 0.0
H3432 H 0.63451 0.72361 0.85724 0.0
H3433 H 0.65817 0.70875 0.84433 0.0
H3434 H 0.67818 0.70762 0.78071 0.0
H3435 H 0.66501 0.69529 0.80742 0.0
H3436 H 0.61072 0.80258 0.78421 0.0
H3437 H 0.59894 0.79184 0.81198 0.0
H3438 H 0.64273 0.80774 0.76511 0.0
H3439 H 0.66149 0.78815 0.74981 0.0
C3440 C 0.48675 0.55014 0.63161 0.0
C3441 C 0.46605 0.56418 0.62842 0.0
C3442 C 0.48339 0.5824 0.59065 0.0
C3443 C 0.50043 0.56396 0.59036 0.0
N3444 N 0.52113 0.53282 0.61265 0.0
N3445 N 0.44313 0.59178 0.60318 0.0
C3446 C 0.50302 0.5487 0.61165 0.0
C3447 C 0.46402 0.57992 0.60754 0.0
N3448 N 0.49116 0.53875 0.65394 0.0
N3449 N 0.48619 0.60296 0.57577 0.0
H3450 H 0.42837 0.59035 0.61494 0.0
H3451 H 0.43935 0.60098 0.58655 0.0
H3452 H 0.50208 0.60772 0.566 0.0
H3453 H 0.47505 0.61771 0.57648 0.0
H3454 H 0.50714 0.53019 0.65853 0.0
H3455 H 0.47975 0.53966 0.66896 0.0
H3456 H 0.522 0.51849 0.62547 0.0
H3457 H 0.53518 0.53386 0.60005 0.0
C3458 C 0.76471 0.23493 0.86585 0.0
C3459 C 0.78451 0.2471 0.88469 0.0
C3460 C 0.7948 0.28223 0.85611 0.0
C3461 C 0.77313 0.27161 0.8388 0.0
N3462 N 0.73463 0.24049 0.8301 0.0
N3463 N 0.81534 0.28524 0.89949 0.0
C3464 C 0.75729 0.2487 0.84453 0.0
C3465 C 0.79878 0.27154 0.88026 0.0
N3466 N 0.75361 0.20975 0.86771 0.0
N3467 N 0.81207 0.30211 0.84928 0.0
H3468 H 0.81836 0.27855 0.9176 0.0
H3469 H 0.82423 0.30434 0.89831 0.0
H3470 H 0.80999 0.31051 0.8319 0.0
H3471 H 0.82963 0.30855 0.85974 0.0
H3472 H 0.74091 0.19902 0.85327 0.0
H3473 H 0.75906 0.19866 0.88245 0.0
H3474 H 0.72101 0.22552 0.83488 0.0
H3475 H 0.72858 0.2502 0.81455 0.0
C3476 C 0.03326 0.52154 0.13974 0.0
C3477 C 0.05198 0.50516 0.14345 0.0
C3478 C 0.04948 0.4955 0.09668 0.0
C3479 C 0.03362 0.51484 0.09273 0.0
N3480 N 0.01215 0.54818 0.11139 0.0
N3481 N 0.08 0.4785 0.12531 0.0
C3482 C 0.02572 0.52818 0.1145 0.0
C3483 C 0.06061 0.49264 0.12186 0.0
N3484 N 0.02239 0.53053 0.16042 0.0
N3485 N 0.05294 0.47887 0.07651 0.0
H3486 H 0.08816 0.47534 0.14338 0.0
H3487 H 0.08925 0.47158 0.1103 0.0
H3488 H 0.04417 0.47936 0.05806 0.0
H3489 H 0.06214 0.46277 0.07856 0.0
H3490 H 0.00661 0.54002 0.1589 0.0
H3491 H 0.02773 0.52643 0.17912 0.0
H3492 H 0.00873 0.5607 0.12651 0.0
H3493 H 0.00614 0.55403 0.09363 0.0
C3494 C 0.78885 0.81913 0.41905 0.0
C3495 C 0.77271 0.83837 0.41863 0.0
C3496 C 0.76369 0.83071 0.37224 0.0
C3497 C 0.7818 0.8134 0.37234 0.0
N3498 N 0.81276 0.79178 0.39471 0.0
N3499 N 0.74669 0.86478 0.39534 0.0
C3500 C 0.79462 0.80761 0.39546 0.0
C3501 C 0.76056 0.84474 0.39537 0.0
N3502 N 0.79831 0.81176 0.44201 0.0
N3503 N 0.74895 0.83321 0.35015 0.0
H3504 H 0.74312 0.87502 0.41201 0.0
H3505 H 0.74015 0.87258 0.37874 0.0
H3506 H 0.75087 0.82378 0.3325 0.0
H3507 H 0.73327 0.84286 0.3496 0.0
H3508 H 0.80823 0.79615 0.44379 0.0
H3509 H 0.79478 0.82025 0.45959 0.0
H3510 H 0.82473 0.78884 0.4106 0.0
H3511 H 0.81687 0.7826 0.37768 0.0
C3512 C 0.46204 0.58106 0.88008 0.0
C3513 C 0.44709 0.55937 0.86531 0.0
C3514 C 0.45528 0.53072 0.89928 0.0
C3515 C 0.46975 0.55254 0.91439 0.0
N3516 N 0.48445 0.59896 0.9212 0.0
N3517 N 0.4259 0.5147 0.86173 0.0
C3518 C 0.47228 0.57792 0.90544 0.0
C3519 C 0.44276 0.53449 0.87514 0.0
N3520 N 0.46705 0.6044 0.86946 0.0
N3521 N 0.4534 0.50636 0.90805 0.0
H3522 H 0.41667 0.51649 0.84375 0.0
H3523 H 0.41952 0.49701 0.869 0.0
H3524 H 0.45982 0.50297 0.92665 0.0
H3525 H 0.44636 0.48921 0.89666 0.0
H3526 H 0.47992 0.62032 0.87799 0.0
H3527 H 0.45938 0.60744 0.85115 0.0
H3528 H 0.48448 0.61827 0.91708 0.0
H3529 H 0.49348 0.5973 0.93929 0.0
C3530 C 0.7842 0.22537 0.16063 0.0
C3531 C 0.79269 0.24348 0.14295 0.0
C3532 C 0.7912 0.27968 0.17544 0.0
C3533 C 0.7801 0.26157 0.19196 0.0
N3534 N 0.76234 0.21725 0.19838 0.0
N3535 N 0.80163 0.28809 0.13232 0.0
C3536 C 0.77557 0.23444 0.18398 0.0
C3537 C 0.79562 0.27074 0.15009 0.0
N3538 N 0.78512 0.19943 0.15544 0.0
N3539 N 0.79762 0.30544 0.18404 0.0
H3540 H 0.80518 0.2823 0.11379 0.0
H3541 H 0.80134 0.30803 0.13525 0.0
H3542 H 0.79372 0.31276 0.20197 0.0
H3543 H 0.80826 0.31923 0.17419 0.0
H3544 H 0.78197 0.1856 0.16874 0.0
H3545 H 0.79149 0.19205 0.13869 0.0
H3546 H 0.75608 0.19766 0.19236 0.0
H3547 H 0.7555 0.22307 0.21536 0.0
C3548 C 0.02949 0.49826 0.40743 0.0
C3549 C 0.04906 0.5174 0.4005 0.0
C3550 C 0.04247 0.5469 0.4372 0.0
C3551 C 0.02436 0.52701 0.44529 0.0
N3552 N 1.00332 0.48218 0.44019 0.0
N3553 N 0.07707 0.55835 0.41102 0.0
C3554 C 0.0186 0.50225 0.43094 0.0
C3555 C 0.05636 0.5413 0.41605 0.0
N3556 N 0.02071 0.47655 0.39109 0.0
N3557 N 0.04577 0.57148 0.4492 0.0
H3558 H 0.0876 0.55499 0.39571 0.0
H3559 H 0.08512 0.57471 0.42317 0.0
H3560 H 0.03583 0.57625 0.46457 0.0
H3561 H 0.0567 0.58758 0.44269 0.0
H3562 H 1.00459 0.46329 0.39346 0.0
H3563 H 0.02833 0.47279 0.3739 0.0
H3564 H 1.00085 0.46293 0.43236 0.0
H3565 H 0.99489 0.48416 0.45717 0.0
C3566 C 0.74189 0.80175 0.64776 0.0
C3567 C 0.75062 0.8289 0.64765 0.0
C3568 C 0.76734 0.83138 0.69265 0.0
C3569 C 0.75736 0.80441 0.69338 0.0
N3570 N 0.73373 0.76414 0.67271 0.0
N3571 N 0.76902 0.87046 0.66992 0.0
C3572 C 0.74416 0.78963 0.67121 0.0
C3573 C 0.76279 0.8439 0.67002 0.0
N3574 N 0.73193 0.78762 0.6253 0.0
N3575 N 0.78101 0.84534 0.7137 0.0
H3576 H 0.76721 0.88051 0.6535 0.0
H3577 H 0.77443 0.88303 0.68639 0.0
H3578 H 0.78138 0.83909 0.73206 0.0
H3579 H 0.79269 0.86317 0.71295 0.0
H3580 H 0.72744 0.76736 0.62329 0.0
H3581 H 0.7294 0.79616 0.60804 0.0
H3582 H 0.72158 0.75296 0.65816 0.0
H3583 H 0.73632 0.75429 0.68915 0.0
C3584 C 0.61792 0.49555 0.50986 0.0
C3585 C 0.61587 0.47644 0.52789 0.0
C3586 C 0.58012 0.49516 0.54438 0.0
C3587 C 0.58053 0.51274 0.52461 0.0
N3588 N 0.59664 0.52414 0.48437 0.0
N3589 N 0.59199 0.45495 0.55926 0.0
C3590 C 0.5986 0.51143 0.50625 0.0
C3591 C 0.59598 0.47527 0.54416 0.0
N3592 N 0.63872 0.49904 0.4964 0.0
N3593 N 0.56587 0.49827 0.5643 0.0
H3594 H 0.60345 0.44043 0.55992 0.0
H3595 H 0.57608 0.45128 0.56933 0.0
H3596 H 0.5548 0.51295 0.56593 0.0
H3597 H 0.56684 0.48778 0.58048 0.0
H3598 H 0.64287 0.51475 0.48534 0.0
H3599 H 0.65312 0.48765 0.49812 0.0
H3600 H 0.60762 0.5216 0.46928 0.0
H3601 H 0.58185 0.53423 0.47937 0.0
C3602 C 0.1107 0.08068 0.46631 0.0
C3603 C 0.13162 0.0726 0.48021 0.0
C3604 C 0.10239 0.04251 0.50183 0.0
C3605 C 0.0818 0.05432 0.49179 0.0
N3606 N 0.06671 0.08639 0.46523 0.0
N3607 N 0.14778 0.04709 0.51279 0.0
C3608 C 0.08591 0.07361 0.47389 0.0
C3609 C 0.12761 0.05367 0.49826 0.0
N3610 N 0.11459 0.09506 0.44575 0.0
N3611 N 0.0978 0.02005 0.51395 0.0
H3612 H 0.16659 0.05437 0.51041 0.0
H3613 H 0.14579 0.03585 0.52839 0.0
H3614 H 0.07949 0.01051 0.51572 0.0
H3615 H 0.11195 0.00931 0.5196 0.0
H3616 H 0.09989 0.0993 0.43317 0.0
H3617 H 0.13259 0.10051 0.43978 0.0
H3618 H 0.06954 0.10262 0.45462 0.0
H3619 H 0.0483 0.08258 0.4704 0.0
C3620 C 0.24722 0.88941 0.79125 0.0
C3621 C 0.22682 0.89365 0.77372 0.0
C3622 C 0.23399 0.85678 0.74496 0.0
C3623 C 0.25269 0.85096 0.7636 0.0
N3624 N 0.275 0.85977 0.80615 0.0
N3625 N 0.19851 0.87982 0.73537 0.0
C3626 C 0.25885 0.86683 0.78715 0.0
C3627 C 0.2196 0.87692 0.75093 0.0
N3628 N 0.2559 0.90734 0.81154 0.0
N3629 N 0.23049 0.8435 0.72128 0.0
H3630 H 0.18775 0.89454 0.73895 0.0
H3631 H 0.19054 0.86655 0.72002 0.0
H3632 H 0.24083 0.82879 0.71637 0.0
H3633 H 0.21897 0.8484 0.70591 0.0
H3634 H 0.27257 0.90706 0.82328 0.0
H3635 H 0.24756 0.92383 0.81551 0.0
H3636 H 0.2774 0.86835 0.82486 0.0
H3637 H 0.28464 0.84396 0.80399 0.0
C3638 C 0.36717 0.97164 0.99199 0.0
C3639 C 0.3588 0.96965 0.01675 0.0
C3640 C 0.40238 0.98457 0.03639 0.0
C3641 C 0.4105 0.98881 0.01171 0.0
N3642 N 0.40023 0.98837 0.96596 0.0
N3643 N 0.36705 0.97899 0.06244 0.0
C3644 C 0.3927 0.98314 0.98951 0.0
C3645 C 0.37603 0.97748 0.03892 0.0
N3646 N 0.35105 0.96141 0.97086 0.0
N3647 N 0.41968 0.98689 0.05751 0.0
H3648 H 0.34785 0.97408 0.06502 0.0
H3649 H 0.37813 0.98747 0.07905 0.0
H3650 H 0.4391 0.99243 0.05708 0.0
H3651 H 0.41504 0.9811 0.07532 0.0
H3652 H 0.35673 0.9594 0.95251 0.0
H3653 H 0.33221 0.95302 0.97185 0.0
H3654 H 0.3876 0.98803 0.94964 0.0
H3655 H 0.41912 0.99425 0.9628 0.0
C3656 C 0.82151 0.69738 0.77463 0.0
C3657 C 0.82739 0.68815 0.75032 0.0
C3658 C 0.79949 0.71651 0.73031 0.0
C3659 C 0.79585 0.72778 0.75494 0.0
N3660 N 0.81213 0.73396 0.8 0.0
N3661 N 0.82584 0.69294 0.70496 0.0
C3662 C 0.80946 0.71982 0.77693 0.0
C3663 C 0.81738 0.69877 0.72808 0.0
N3664 N 0.82661 0.68424 0.79569 0.0
N3665 N 0.78638 0.72317 0.70888 0.0
H3666 H 0.83924 0.68059 0.70271 0.0
H3667 H 0.82142 0.70219 0.68855 0.0
H3668 H 0.77537 0.73804 0.7092 0.0
H3669 H 0.78572 0.71324 0.69091 0.0
H3670 H 0.82028 0.6887 0.8134 0.0
H3671 H 0.83451 0.66711 0.79483 0.0
H3672 H 0.8237 0.7299 0.81579 0.0
H3673 H 0.80595 0.75166 0.80258 0.0
C3674 C 0.87685 0.55545 0.00629 0.0
C3675 C 0.87265 0.57309 0.02651 0.0
C3676 C 0.90933 0.56256 0.0527 0.0
C3677 C 0.91585 0.54832 0.03101 0.0
N3678 N 0.90768 0.53442 0.98565 0.0
N3679 N 0.88494 0.59469 0.06876 0.0
C3680 C 0.89992 0.54517 0.00747 0.0
C3681 C 0.88873 0.57679 0.04983 0.0
N3682 N 0.85884 0.54875 0.98583 0.0
N3683 N 0.92276 0.56223 0.07603 0.0
H3684 H 0.86961 0.6049 0.06756 0.0
H3685 H 0.89773 0.60057 0.08494 0.0
H3686 H 0.93782 0.55177 0.07866 0.0
H3687 H 0.91761 0.57027 0.09307 0.0
H3688 H 0.85967 0.53392 0.97175 0.0
H3689 H 0.84183 0.55628 0.98423 0.0
H3690 H 0.89818 0.53469 0.96751 0.0
H3691 H 0.92478 0.52735 0.98497 0.0
C3692 C 0.24556 0.15496 0.77153 0.0
C3693 C 0.22465 0.14929 0.78619 0.0
C3694 C 0.22002 0.19561 0.78946 0.0
C3695 C 0.24185 0.20154 0.77612 0.0
N3696 N 0.27784 0.18786 0.75785 0.0
N3697 N 0.19458 0.16434 0.81279 0.0
C3698 C 0.25531 0.18147 0.76807 0.0
C3699 C 0.21274 0.16971 0.79635 0.0
N3700 N 0.25565 0.13493 0.76037 0.0
N3701 N 0.20545 0.21445 0.79438 0.0
H3702 H 0.18839 0.14553 0.81786 0.0
H3703 H 0.18715 0.1787 0.82308 0.0
H3704 H 0.2098 0.23347 0.78915 0.0
H3705 H 0.18784 0.21075 0.80152 0.0
H3706 H 0.26886 0.13746 0.74702 0.0
H3707 H 0.24963 0.11539 0.76331 0.0
H3708 H 0.28998 0.17456 0.75408 0.0
H3709 H 0.28542 0.20703 0.75492 0.0
C3710 C 0.32449 0.9403 0.29032 0.0
C3711 C 0.32459 0.95024 0.26581 0.0
C3712 C 0.30189 0.9082 0.24588 0.0
C3713 C 0.30046 0.89853 0.27053 0.0
N3714 N 0.3076 0.90655 0.31666 0.0
N3715 N 0.30883 0.946 0.22116 0.0
C3716 C 0.31063 0.91506 0.2929 0.0
C3717 C 0.31189 0.93486 0.24387 0.0
N3718 N 0.33884 0.95437 0.31091 0.0
N3719 N 0.29417 0.89185 0.22426 0.0
H3720 H 0.31586 0.96551 0.21904 0.0
H3721 H 0.29736 0.93672 0.20512 0.0
H3722 H 0.29765 0.89689 0.20592 0.0
H3723 H 0.28586 0.8725 0.22465 0.0
H3724 H 0.34216 0.947 0.32862 0.0
H3725 H 0.34919 0.97291 0.30986 0.0
H3726 H 0.31159 0.91878 0.3335 0.0
H3727 H 0.29971 0.88756 0.31968 0.0
C3728 C 0.50378 0.39096 0.55208 0.0
C3729 C 0.50307 0.39264 0.57907 0.0
C3730 C 0.50065 0.43951 0.57919 0.0
C3731 C 0.50208 0.43799 0.55223 0.0
N3732 N 0.50776 0.41348 0.51321 0.0
N3733 N 0.5028 0.41815 0.61896 0.0
C3734 C 0.50451 0.41405 0.53875 0.0
C3735 C 0.50192 0.41683 0.59278 0.0
N3736 N 0.50321 0.3671 0.5392 0.0
N3737 N 0.49837 0.46277 0.59186 0.0
H3738 H 0.50256 0.4018 0.62946 0.0
H3739 H 0.50497 0.43542 0.63065 0.0
H3740 H 0.50031 0.48044 0.58343 0.0
H3741 H 0.49388 0.46477 0.61065 0.0
H3742 H 0.50087 0.36378 0.51934 0.0
H3743 H 0.50358 0.34999 0.54842 0.0
H3744 H 0.51266 0.39763 0.50278 0.0
H3745 H 0.50684 0.42952 0.50245 0.0
C3746 C 0.37911 0.7815 0.31719 0.0
C3747 C 0.39681 0.78351 0.29863 0.0
C3748 C 0.36154 0.78182 0.26461 0.0
C3749 C 0.34432 0.78294 0.28355 0.0
N3750 N 0.33728 0.78695 0.32824 0.0
N3751 N 0.40557 0.7873 0.25481 0.0
C3752 C 0.35328 0.78354 0.30993 0.0
C3753 C 0.38819 0.78394 0.2723 0.0
N3754 N 0.38691 0.77702 0.34179 0.0
N3755 N 0.35236 0.77866 0.2393 0.0
H3756 H 0.42504 0.78842 0.25977 0.0
H3757 H 0.401 0.7906 0.23577 0.0
H3758 H 0.33314 0.77773 0.23315 0.0
H3759 H 0.36337 0.77514 0.22449 0.0
H3760 H 0.37446 0.77235 0.35552 0.0
H3761 H 0.40568 0.77558 0.34795 0.0
H3762 H 0.34325 0.79081 0.3477 0.0
H3763 H 0.3182 0.78792 0.32378 0.0
C3764 C 0.02254 0.62782 0.09105 0.0
C3765 C 0.00967 0.64562 0.07792 0.0
C3766 C 0.00712 0.61796 0.0376 0.0
C3767 C 0.02181 0.60102 0.05038 0.0
N3768 N 0.0462 0.59193 0.08899 0.0
N3769 N 0.99033 0.65898 0.03898 0.0
C3770 C 0.03024 0.60655 0.07701 0.0
C3771 C 1.00182 0.64085 0.05132 0.0
N3772 N 0.02687 0.6309 0.11721 0.0
N3773 N 0.99899 0.61284 0.01211 0.0
H3774 H 0.9853 0.67533 0.04861 0.0
H3775 H 0.98673 0.65871 0.01919 0.0
H3776 H 0.00604 0.59961 1.0001 0.0
H3777 H 0.98499 0.62158 1.00267 0.0
H3778 H 0.03313 0.61684 0.12832 0.0
H3779 H 0.02212 0.64657 0.12815 0.0
H3780 H 0.05621 0.59756 0.1069 0.0
H3781 H 0.05034 0.57447 0.08095 0.0
C3782 C 0.14978 0.29163 0.77357 0.0
C3783 C 0.15065 0.29461 0.80061 0.0
C3784 C 0.19576 0.28927 0.80411 0.0
C3785 C 0.19549 0.28808 0.77685 0.0
N3786 N 0.1687 0.27521 0.73712 0.0
N3787 N 0.17474 0.29886 0.84195 0.0
C3788 C 0.17153 0.2859 0.76187 0.0
C3789 C 0.17369 0.29401 0.81594 0.0
N3790 N 0.12819 0.2947 0.75891 0.0
N3791 N 0.21625 0.28372 0.8188 0.0
H3792 H 0.15888 0.30148 0.8514 0.0
H3793 H 0.19158 0.30231 0.85408 0.0
H3794 H 0.23245 0.27944 0.81132 0.0
H3795 H 0.21637 0.28072 0.83818 0.0
H3796 H 0.12736 0.29598 0.73916 0.0
H3797 H 0.11172 0.29834 0.76674 0.0
H3798 H 0.1513 0.27114 0.7259 0.0
H3799 H 0.18266 0.26637 0.72907 0.0
C3800 C 0.48724 0.64043 0.99141 0.0
C3801 C 0.51117 0.65689 0.99323 0.0
C3802 C 0.5301 0.62674 0.02011 0.0
C3803 C 0.50604 0.61048 0.01833 0.0
N3804 N 0.46078 0.60633 0.01043 0.0
N3805 N 0.55381 0.66916 0.01391 0.0
C3806 C 0.48428 0.61873 0.00647 0.0
C3807 C 0.53217 0.6511 0.00905 0.0
N3808 N 0.46767 0.64487 0.97459 0.0
N3809 N 0.55103 0.61866 0.03191 0.0
H3810 H 0.55587 0.68727 0.00623 0.0
H3811 H 0.56889 0.66724 0.0272 0.0
H3812 H 0.55006 0.60172 0.04158 0.0
H3813 H 0.56955 0.62797 0.03105 0.0
H3814 H 0.45073 0.63182 0.97057 0.0
H3815 H 0.46914 0.66047 0.96303 0.0
H3816 H 0.44395 0.61249 0.00372 0.0
H3817 H 0.45857 0.59201 0.02339 0.0
C3818 C 0.13998 0.78045 0.6792 0.0
C3819 C 0.11724 0.77856 0.69129 0.0
C3820 C 0.14092 0.77421 0.73243 0.0
C3821 C 0.16314 0.77351 0.71974 0.0
N3822 N 0.18186 0.76863 0.67983 0.0
N3823 N 0.09492 0.76835 0.72818 0.0
C3824 C 0.16214 0.77454 0.69276 0.0
C3825 C 0.11733 0.77384 0.71758 0.0
N3826 N 0.14066 0.78867 0.65506 0.0
N3827 N 0.14244 0.77655 0.75859 0.0
H3828 H 0.07724 0.7677 0.71782 0.0
H3829 H 0.09379 0.76213 0.74653 0.0
H3830 H 0.15943 0.7776 0.77024 0.0
H3831 H 0.12724 0.77991 0.76872 0.0
H3832 H 0.15747 0.79296 0.64651 0.0
H3833 H 0.1249 0.7937 0.64457 0.0
H3834 H 0.18099 0.76679 0.6599 0.0
H3835 H 0.19786 0.76249 0.68876 0.0
C3836 C 0.03027 0.41252 0.52471 0.0
C3837 C 0.03697 0.40468 0.50021 0.0
C3838 C 0.04103 0.44978 0.4885 0.0
C3839 C 0.031 0.45697 0.51155 0.0
N3840 N 0.01487 0.4455 0.55134 0.0
N3841 N 0.04416 0.41484 0.45695 0.0
C3842 C 0.02529 0.43841 0.52964 0.0
C3843 C 0.04136 0.42306 0.48166 0.0
N3844 N 0.02916 0.39532 0.5433 0.0
N3845 N 0.05015 0.46835 0.47295 0.0
H3846 H 0.04415 0.3954 0.45075 0.0
H3847 H 0.04408 0.42697 0.44195 0.0
H3848 H 0.0494 0.48814 0.47637 0.0
H3849 H 0.06035 0.46437 0.45757 0.0
H3850 H 0.02669 0.40043 0.56228 0.0
H3851 H 0.03284 0.37629 0.54019 0.0
H3852 H 0.00758 0.43225 0.56385 0.0
H3853 H 0.0123 0.46464 0.55618 0.0
C3854 C 0.39758 0.31598 0.22192 0.0
C3855 C 0.39152 0.3149 0.19502 0.0
C3856 C 0.34822 0.32234 0.20099 0.0
C3857 C 0.35337 0.32015 0.22771 0.0
N3858 N 0.38227 0.31434 0.26395 0.0
N3859 N 0.36128 0.31546 0.15833 0.0
C3860 C 0.37794 0.317 0.23828 0.0
C3861 C 0.36698 0.31799 0.18438 0.0
N3862 N 0.42219 0.31638 0.23173 0.0
N3863 N 0.32532 0.32815 0.19137 0.0
H3864 H 0.37469 0.31293 0.14555 0.0
H3865 H 0.343 0.31413 0.14925 0.0
H3866 H 0.31045 0.33013 0.20241 0.0
H3867 H 0.3215 0.33293 0.17266 0.0
H3868 H 0.42845 0.31979 0.25115 0.0
H3869 H 0.43694 0.3152 0.22023 0.0
H3870 H 0.39863 0.30861 0.27245 0.0
H3871 H 0.36889 0.31688 0.27677 0.0
C3872 C 0.54707 0.5238 0.40125 0.0
C3873 C 0.56373 0.50506 0.40035 0.0
C3874 C 0.55224 0.49112 0.44215 0.0
C3875 C 0.53613 0.51058 0.44345 0.0
N3876 N 0.51237 0.53939 0.42112 0.0
N3877 N 0.5779 0.46694 0.4166 0.0
C3878 C 0.53174 0.52501 0.42194 0.0
C3879 C 0.56471 0.4873 0.41964 0.0
N3880 N 0.54635 0.54087 0.38259 0.0
N3881 N 0.55732 0.47763 0.46298 0.0
H3882 H 0.58847 0.46437 0.40118 0.0
H3883 H 0.57684 0.45144 0.42822 0.0
H3884 H 0.54898 0.47937 0.47996 0.0
H3885 H 0.5715 0.46601 0.4644 0.0
H3886 H 0.53719 0.55712 0.3838 0.0
H3887 H 0.55612 0.53958 0.36638 0.0
H3888 H 0.50663 0.54866 0.40516 0.0
H3889 H 0.50026 0.5398 0.43559 0.0
C3890 C 0.24815 0.84038 0.17247 0.0
C3891 C 0.25195 0.82675 0.14918 0.0
C3892 C 0.27044 0.79459 0.17412 0.0
C3893 C 0.26239 0.8053 0.19704 0.0
N3894 N 0.24424 0.83975 0.21785 0.0
N3895 N 0.26478 0.78928 0.12768 0.0
C3896 C 0.25163 0.82872 0.19619 0.0
C3897 C 0.2627 0.80348 0.14999 0.0
N3898 N 0.24216 0.865 0.17204 0.0
N3899 N 0.28657 0.77663 0.17555 0.0
H3900 H 0.25935 0.79507 0.10965 0.0
H3901 H 0.26982 0.77069 0.12712 0.0
H3902 H 0.29409 0.77112 0.19299 0.0
H3903 H 0.29494 0.76977 0.15986 0.0
H3904 H 0.24204 0.87732 0.18845 0.0
H3905 H 0.23948 0.87413 0.15515 0.0
H3906 H 0.23277 0.8542 0.21791 0.0
H3907 H 0.25046 0.835 0.23586 0.0
C3908 C 0.9627 0.55335 0.90239 0.0
C3909 C 0.9792 0.57166 0.89026 0.0
C3910 C 0.00959 0.578 0.92922 0.0
C3911 C 0.9942 0.5579 0.94052 0.0
N3912 N 0.95748 0.52368 0.9357 0.0
N3913 N 0.01968 0.59926 0.89072 0.0
C3914 C 0.97104 0.54498 0.92658 0.0
C3915 C 1.00309 0.58326 0.90326 0.0
N3916 N 0.93883 0.54394 0.89081 0.0
N3917 N 0.02959 0.59319 0.94375 0.0
H3918 H 0.01513 0.6045 0.87226 0.0
H3919 H 0.03851 0.60588 0.89787 0.0
H3920 H 0.03443 0.59072 0.96299 0.0
H3921 H 0.03989 0.60986 0.93758 0.0
H3922 H 0.92459 0.53365 0.90013 0.0
H3923 H 0.93249 0.54786 0.87234 0.0
H3924 H 0.94248 0.51142 0.92499 0.0
H3925 H 0.96244 0.51658 0.95312 0.0
C3926 C 0.23537 0.21353 0.62329 0.0
C3927 C 0.25052 0.22876 0.6072 0.0
C3928 C 0.26068 0.26475 0.64069 0.0
C3929 C 0.2459 0.24932 0.65691 0.0
N3930 N 0.215 0.21197 0.66274 0.0
N3931 N 0.27355 0.27008 0.59799 0.0
C3932 C 0.23193 0.22456 0.64789 0.0
C3933 C 0.26178 0.25486 0.61506 0.0
N3934 N 0.2249 0.1883 0.61524 0.0
N3935 N 0.27478 0.28815 0.65025 0.0
H3936 H 0.27548 0.26313 0.57932 0.0
H3937 H 0.27981 0.29006 0.60158 0.0
H3938 H 0.27393 0.29643 0.66869 0.0
H3939 H 0.28843 0.29879 0.64053 0.0
H3940 H 0.21631 0.17508 0.62707 0.0
H3941 H 0.22578 0.18003 0.59677 0.0
H3942 H 0.20242 0.19497 0.6565 0.0
H3943 H 0.212 0.21975 0.68082 0.0
C3944 C 0.59397 0.52765 0.14322 0.0
C3945 C 0.57808 0.51964 0.16241 0.0
C3946 C 0.54004 0.51925 0.13255 0.0
C3947 C 0.55591 0.5285 0.11371 0.0
N3948 N 0.59759 0.54207 0.10048 0.0
N3949 N 0.53653 0.50926 0.17676 0.0
C3950 C 0.58279 0.53291 0.11889 0.0
C3951 C 0.55124 0.51569 0.15741 0.0
N3952 N 0.61977 0.52968 0.14822 0.0
N3953 N 0.51424 0.51397 0.1267 0.0
H3954 H 0.54405 0.50541 0.19485 0.0
H3955 H 0.51699 0.50895 0.17559 0.0
H3956 H 0.50501 0.51863 0.10972 0.0
H3957 H 0.50177 0.50407 0.13815 0.0
H3958 H 0.63258 0.53273 0.13457 0.0
H3959 H 0.62861 0.52704 0.16612 0.0
H3960 H 0.61702 0.54874 0.10371 0.0
H3961 H 0.59036 0.54386 0.08171 0.0
C3962 C 0.22664 0.83242 0.8691 0.0
C3963 C 0.23246 0.81896 0.89098 0.0
C3964 C 0.2495 0.78674 0.86348 0.0
C3965 C 0.2423 0.79935 0.84139 0.0
N3966 N 0.22017 0.832 0.82286 0.0
N3967 N 0.24576 0.78114 0.90867 0.0
C3968 C 0.22955 0.8214 0.84412 0.0
C3969 C 0.24289 0.7955 0.88804 0.0
N3970 N 0.2196 0.85654 0.87226 0.0
N3971 N 0.26279 0.76641 0.861 0.0
H3972 H 0.24108 0.78693 0.92679 0.0
H3973 H 0.25076 0.76256 0.90752 0.0
H3974 H 0.26644 0.75832 0.84329 0.0
H3975 H 0.27137 0.7584 0.87648 0.0
H3976 H 0.2183 0.86892 0.85758 0.0
H3977 H 0.2171 0.86529 0.89009 0.0
H3978 H 0.20803 0.84583 0.82348 0.0
H3979 H 0.22304 0.82589 0.80426 0.0
C3980 C 1.00352 0.54524 0.63522 0.0
C3981 C 0.9792 0.55304 0.63427 0.0
C3982 C 0.97566 0.54755 0.58704 0.0
C3983 C 1.00083 0.54161 0.58786 0.0
N3984 N 0.03426 0.52543 0.61263 0.0
N3985 N 0.9425 0.56338 0.60956 0.0
C3986 C 0.01355 0.53792 0.61199 0.0
C3987 C 0.96541 0.55471 0.61022 0.0
N3988 N 0.01756 0.5459 0.65837 0.0
N3989 N 0.96074 0.54424 0.56434 0.0
H3990 H 0.93363 0.56717 0.62596 0.0
H3991 H 0.93287 0.56845 0.59304 0.0
H3992 H 0.96585 0.53412 0.54855 0.0
H3993 H 0.94194 0.54723 0.562 0.0
H3994 H 0.0366 0.5436 0.66033 0.0
H3995 H 0.01082 0.55092 0.67573 0.0
H3996 H 0.04315 0.51984 0.62933 0.0
H3997 H 0.04067 0.5176 0.59609 0.0
C3998 C 0.28179 0.25945 0.38279 0.0
C3999 C 0.29425 0.23732 0.38099 0.0
C4000 C 0.3086 0.24957 0.33987 0.0
C4001 C 0.29214 0.26858 0.33945 0.0
N4002 N 0.26504 0.29385 0.36091 0.0
N4003 N 0.31983 0.21092 0.35861 0.0
C4004 C 0.27965 0.27445 0.36129 0.0
C4005 C 0.30817 0.23255 0.35997 0.0
N4006 N 0.27194 0.26592 0.40503 0.0
N4007 N 0.32427 0.24741 0.32096 0.0
H4008 H 0.32077 0.19866 0.37348 0.0
H4009 H 0.32733 0.20421 0.34229 0.0
H4010 H 0.32487 0.25894 0.30554 0.0
H4011 H 0.33832 0.2356 0.32151 0.0
H4012 H 0.26435 0.28291 0.4085 0.0
H4013 H 0.27306 0.25511 0.42099 0.0
H4014 H 0.25268 0.2971 0.37453 0.0
H4015 H 0.26483 0.30645 0.34625 0.0
C4016 C 0.43729 0.60128 0.502 0.0
C4017 C 0.41162 0.58878 0.49874 0.0
C4018 C 0.42687 0.54698 0.49011 0.0
C4019 C 0.45237 0.55838 0.49912 0.0
N4020 N 0.4808 0.59819 0.51505 0.0
N4021 N 0.38211 0.54838 0.49263 0.0
C4022 C 0.45733 0.58608 0.50521 0.0
C4023 C 0.40644 0.56124 0.49353 0.0
N4024 N 0.44269 0.62778 0.50134 0.0
N4025 N 0.4221 0.5229 0.47698 0.0
H4026 H 0.36669 0.55791 0.49548 0.0
H4027 H 0.37768 0.52808 0.4915 0.0
H4028 H 0.43656 0.51297 0.47163 0.0
H4029 H 0.40414 0.51459 0.46831 0.0
H4030 H 0.461 0.63778 0.50063 0.0
H4031 H 0.42863 0.63947 0.49864 0.0
H4032 H 0.48468 0.61756 0.52266 0.0
H4033 H 0.49606 0.58848 0.51714 0.0
C4034 C 0.89764 0.02223 0.56145 0.0
C4035 C 0.88612 0.99615 0.55372 0.0
C4036 C 0.92617 0.98596 0.53996 0.0
C4037 C 0.93671 0.01274 0.54436 0.0
N4038 N 0.93398 0.05647 0.56062 0.0
N4039 N 0.88842 0.95324 0.53436 0.0
C4040 C 0.92293 0.03092 0.55573 0.0
C4041 C 0.90018 0.97796 0.54284 0.0
N4042 N 0.8844 0.0384 0.57443 0.0
N4043 N 0.94127 0.96803 0.53379 0.0
H4044 H 0.86969 0.94608 0.53714 0.0
H4045 H 0.89666 0.94026 0.52313 0.0
H4046 H 0.9605 0.97328 0.53198 0.0
H4047 H 0.93554 0.94792 0.53305 0.0
H4048 H 0.89212 0.05704 0.58249 0.0
H4049 H 0.86579 0.03248 0.57859 0.0
H4050 H 0.92432 0.07148 0.56616 0.0
H4051 H 0.95306 0.06286 0.55852 0.0
C4052 C 0.80771 0.19215 0.24938 0.0
C4053 C 0.79662 0.16692 0.25488 0.0
C4054 C 0.76162 0.18567 0.27249 0.0
C4055 C 0.77335 0.21114 0.26758 0.0
N4056 N 0.81335 0.23783 0.26266 0.0
N4057 N 0.7657 0.14006 0.27637 0.0
C4058 C 0.79809 0.21422 0.25932 0.0
C4059 C 0.77424 0.16374 0.26773 0.0
N4060 N 0.82728 0.19517 0.23429 0.0
N4061 N 0.73869 0.18251 0.28235 0.0
H4062 H 0.77445 0.12369 0.27325 0.0
H4063 H 0.75115 0.13698 0.28822 0.0
H4064 H 0.73093 0.19817 0.28999 0.0
H4065 H 0.72733 0.16445 0.28282 0.0
H4066 H 0.83427 0.21307 0.22766 0.0
H4067 H 0.83471 0.17944 0.22628 0.0
H4068 H 0.83225 0.24073 0.25865 0.0
H4069 H 0.80835 0.25327 0.27342 0.0
C4070 C 0.65248 0.08749 0.99092 0.0
C4071 C 0.67001 0.09504 0.013 0.0
C4072 C 0.63619 0.08278 0.04054 0.0
C4073 C 0.61907 0.07356 0.01846 0.0
N4074 N 0.6129 0.06091 0.97302 0.0
N4075 N 0.68013 0.09411 0.05852 0.0
C4076 C 0.62777 0.07412 0.99372 0.0
C4077 C 0.66234 0.09084 0.03774 0.0
N4078 N 0.65904 0.09393 0.96734 0.0
N4079 N 0.62737 0.0853 0.06404 0.0
H4080 H 0.69949 0.09972 0.05714 0.0
H4081 H 0.67601 0.08879 0.07663 0.0
H4082 H 0.60827 0.08053 0.06695 0.0
H4083 H 0.6386 0.09454 0.08026 0.0
H4084 H 0.64607 0.09149 0.95103 0.0
H4085 H 0.67693 0.10373 0.96442 0.0
H4086 H 0.61935 0.05842 0.95504 0.0
H4087 H 0.59511 0.04998 0.97438 0.0
C4088 C 0.19206 0.36027 0.2818 0.0
C4089 C 0.20297 0.38603 0.29132 0.0
C4090 C 0.2424 0.36975 0.30515 0.0
C4091 C 0.23395 0.34569 0.29003 0.0
N4092 N 0.19785 0.31724 0.26625 0.0
N4093 N 0.23949 0.41578 0.31122 0.0
C4094 C 0.20786 0.34059 0.27926 0.0
C4095 C 0.22838 0.39088 0.30287 0.0
N4096 N 0.16629 0.35435 0.27596 0.0
N4097 N 0.26296 0.37199 0.32297 0.0
H4098 H 0.22986 0.43173 0.31011 0.0
H4099 H 0.25881 0.42079 0.31728 0.0
H4100 H 0.2717 0.35606 0.32754 0.0
H4101 H 0.26882 0.38842 0.33578 0.0
H4102 H 0.15655 0.33537 0.27204 0.0
H4103 H 0.15421 0.3682 0.27749 0.0
H4104 H 0.18076 0.31407 0.25452 0.0
H4105 H 0.20704 0.30124 0.26595 0.0
C4106 C 0.15523 0.51787 0.01783 0.0
C4107 C 0.15545 0.49367 0.00393 0.0
C4108 C 0.11441 0.49647 0.98064 0.0
C4109 C 0.1122 0.51814 0.99766 0.0
N4110 N 0.12967 0.54828 0.03436 0.0
N4111 N 0.13565 0.45924 0.97227 0.0
C4112 C 0.13257 0.52896 0.01643 0.0
C4113 C 0.13528 0.48289 0.98511 0.0
N4114 N 0.17662 0.53005 0.03261 0.0
N4115 N 0.09655 0.48909 0.96015 0.0
H4116 H 0.15109 0.44923 0.97441 0.0
H4117 H 0.12019 0.44881 0.96059 0.0
H4118 H 0.0813 0.49904 0.95623 0.0
H4119 H 0.09803 0.47479 0.94578 0.0
H4120 H 0.17853 0.54905 0.041 0.0
H4121 H 0.19336 0.52207 0.03459 0.0
H4122 H 0.14261 0.55433 0.05041 0.0
H4123 H 0.11351 0.55711 0.03456 0.0
C4124 C 0.77794 0.90153 0.23471 0.0
C4125 C 0.80237 0.91475 0.24474 0.0
C4126 C 0.80938 0.87725 0.26894 0.0
C4127 C 0.78597 0.86298 0.25712 0.0
N4128 N 0.74855 0.86065 0.22729 0.0
N4129 N 0.84339 0.91341 0.26717 0.0
C4130 C 0.77047 0.87485 0.23945 0.0
C4131 C 0.81862 0.90212 0.26073 0.0
N4132 N 0.76154 0.91479 0.2215 0.0
N4133 N 0.82289 0.8672 0.28813 0.0
H4134 H 0.85108 0.93145 0.26127 0.0
H4135 H 0.857 0.90384 0.27622 0.0
H4136 H 0.81768 0.84865 0.29411 0.0
H4137 H 0.83832 0.87806 0.29954 0.0
H4138 H 0.7425 0.90731 0.21605 0.0
H4139 H 0.76648 0.9342 0.21751 0.0
H4140 H 0.73806 0.86693 0.21193 0.0
H4141 H 0.74135 0.84188 0.23177 0.0
C4142 C 0.72855 0.1318 0.75944 0.0
C4143 C 0.70425 0.12887 0.76873 0.0
C4144 C 0.70578 0.17645 0.77218 0.0
C4145 C 0.72998 0.17942 0.76252 0.0
N4146 N 0.76346 0.16055 0.74439 0.0
N4147 N 0.66838 0.14737 0.78185 0.0
C4148 C 0.74104 0.15723 0.75528 0.0
C4149 C 0.69253 0.15095 0.77459 0.0
N4150 N 0.73984 0.11022 0.7552 0.0
N4151 N 0.69544 0.1981 0.77896 0.0
H4152 H 0.65856 0.12914 0.78505 0.0
H4153 H 0.65735 0.16208 0.78361 0.0
H4154 H 0.70283 0.21685 0.77464 0.0
H4155 H 0.67982 0.19786 0.78941 0.0
H4156 H 0.75852 0.11088 0.75097 0.0
H4157 H 0.73088 0.0913 0.75726 0.0
H4158 H 0.77141 0.14536 0.7362 0.0
H4159 H 0.77376 0.17885 0.74225 0.0
loop_
_geom_bond_atom_site_label_1
_geom_bond_atom_site_label_2
_geom_bond_distance
_geom_bond_site_symmetry_2
_ccdc_geom_bond_type
Li0 N17 1.990 . S
Li0 O60 1.956 1_655 S
Li0 O61 1.970 . S
Li0 O62 1.961 1_655 S
Li1 N25 1.990 . S
Li1 O60 1.970 . S
Li1 O61 1.956 1_455 S
Li1 O63 1.961 . S
Li2 N47 1.990 . S
Li2 O60 1.961 . S
Li2 O62 1.956 . S
Li2 O63 1.970 . S
Li3 N53 1.990 . S
Li3 O61 1.961 1_455 S
Li3 O62 1.970 . S
Li3 O63 1.956 . S
C4 C6 1.348 . S
C4 C7 1.356 . S
C4 O60 1.325 . S
N5 C8 1.314 . S
N5 C9 1.279 . S
C6 C4 1.348 . S
C6 C8 1.353 . S
C6 H64 0.929 . S
C7 C4 1.356 . S
C7 C9 1.358 . S
C7 H65 0.930 . S
C8 N5 1.314 . S
C8 C6 1.353 . S
C8 H66 0.930 . S
C9 N5 1.279 . S
C9 C7 1.358 . S
C9 H67 0.930 . S
C10 C13 1.348 . S
C10 C14 1.356 . S
C10 O61 1.325 . S
C11 N12 1.279 . S
C11 C14 1.358 . S
C11 H68 0.930 . S
N12 C11 1.279 . S
N12 C15 1.314 . S
C13 C10 1.348 . S
C13 C15 1.353 . S
C13 H69 0.929 . S
C14 C10 1.356 . S
C14 C11 1.358 . S
C14 H70 0.930 . S
C15 N12 1.314 . S
C15 C13 1.353 . S
C15 H71 0.930 . S
C16 N17 1.314 . S
C16 C21 1.353 . S
C16 H22 0.930 . S
N17 Li0 1.990 . S
N17 C16 1.314 . S
N17 C19 1.279 . S
C18 C19 1.358 . S
C18 C20 1.356 . S
C18 H72 0.930 . S
C19 N17 1.279 . S
C19 C18 1.358 . S
C19 H23 0.930 . S
C20 C18 1.356 . S
C20 C21 1.348 . S
C21 C16 1.353 . S
C21 C20 1.348 . S
C21 H73 0.929 . S
H22 C16 0.930 . S
H23 C19 0.930 . S
C24 N25 1.314 . S
C24 C26 1.353 . S
C24 H30 0.930 . S
N25 Li1 1.990 . S
N25 C24 1.314 . S
N25 C28 1.279 . S
C26 C24 1.353 . S
C26 C29 1.348 . S
C26 H74 0.929 . S
C27 C28 1.358 . S
C27 C29 1.356 . S
C27 H75 0.930 1_455 S
C28 N25 1.279 . S
C28 C27 1.358 . S
C28 H31 0.930 1_455 S
C29 C26 1.348 . S
C29 C27 1.356 . S
H30 C24 0.930 . S
H31 C28 0.930 1_655 S
C32 C34 1.348 . S
C32 C35 1.356 . S
C32 O62 1.325 . S
N33 C36 1.314 . S
N33 C37 1.279 . S
C34 C32 1.348 . S
C34 C36 1.353 . S
C34 H76 0.929 . S
C35 C32 1.356 . S
C35 C37 1.358 . S
C35 H77 0.930 . S
C36 N33 1.314 . S
C36 C34 1.353 . S
C36 H78 0.930 . S
C37 N33 1.279 . S
C37 C35 1.358 . S
C37 H79 0.930 1_455 S
C38 C39 1.348 . S
C38 C40 1.356 . S
C38 O63 1.325 . S
C39 C38 1.348 . S
C39 C41 1.353 . S
C39 H80 0.929 . S
C40 C38 1.356 . S
C40 C42 1.358 . S
C40 H81 0.930 . S
C41 C39 1.353 . S
C41 N43 1.314 . S
C41 H82 0.930 . S
C42 C40 1.358 . S
C42 N43 1.279 . S
C42 H83 0.930 . S
N43 C41 1.314 . S
N43 C42 1.279 . S
C44 C46 1.353 . S
C44 N47 1.314 . S
C44 H50 0.930 . S
C45 N47 1.279 . S
C45 C48 1.358 . S
C45 H51 0.930 . S
C46 C44 1.353 . S
C46 C49 1.348 . S
C46 H84 0.929 . S
N47 Li2 1.990 . S
N47 C44 1.314 . S
N47 C45 1.279 . S
C48 C45 1.358 . S
C48 C49 1.356 . S
C48 H85 0.930 . S
C49 C46 1.348 . S
C49 C48 1.356 . S
H50 C44 0.930 . S
H51 C45 0.930 . S
C52 N53 1.314 1_655 S
C52 C54 1.353 . S
C52 H58 0.930 . S
N53 Li3 1.990 . S
N53 C52 1.314 1_455 S
N53 C56 1.279 . S
C54 C52 1.353 . S
C54 C57 1.348 1_655 S
C54 H86 0.929 . S
C55 C56 1.358 . S
C55 C57 1.356 . S
C55 H87 0.930 . S
C56 N53 1.279 . S
C56 C55 1.358 . S
C56 H59 0.930 . S
C57 C54 1.348 1_455 S
C57 C55 1.356 . S
H58 C52 0.930 . S
H59 C56 0.930 . S
O60 Li0 1.956 1_455 S
O60 Li1 1.970 . S
O60 Li2 1.961 . S
O60 C4 1.325 . S
O61 Li0 1.970 . S
O61 Li1 1.956 1_655 S
O61 Li3 1.961 1_655 S
O61 C10 1.325 . S
O62 Li0 1.961 1_455 S
O62 Li2 1.956 . S
O62 Li3 1.970 . S
O62 C32 1.325 . S
O63 Li1 1.961 . S
O63 Li2 1.970 . S
O63 Li3 1.956 . S
O63 C38 1.325 . S
H64 C6 0.929 . S
H65 C7 0.930 . S
H66 C8 0.930 . S
H67 C9 0.930 . S
H68 C11 0.930 . S
H69 C13 0.929 . S
H70 C14 0.930 . S
H71 C15 0.930 . S
H72 C18 0.930 . S
H73 C21 0.929 . S
H74 C26 0.929 . S
H75 C27 0.930 1_655 S
H76 C34 0.929 . S
H77 C35 0.930 . S
H78 C36 0.930 . S
H79 C37 0.930 1_655 S
H80 C39 0.929 . S
H81 C40 0.930 . S
H82 C41 0.930 . S
H83 C42 0.930 . S
H84 C46 0.929 . S
H85 C48 0.930 . S
H86 C54 0.929 . S
H87 C55 0.930 . S
Li88 N105 1.990 . S
Li88 O148 1.956 . S
Li88 O149 1.970 . S
Li88 O150 1.961 1_455 S
Li89 N113 1.990 . S
Li89 O148 1.970 . S
Li89 O149 1.956 . S
Li89 O151 1.955 1_455 S
Li90 N135 1.990 . S
Li90 O148 1.961 1_655 S
Li90 O150 1.956 . S
Li90 O151 1.970 . S
Li91 N141 1.990 . S
Li91 O149 1.961 1_655 S
Li91 O150 1.970 . S
Li91 O151 1.964 . S
C92 C94 1.348 . S
C92 C95 1.356 . S
C92 O148 1.325 . S
N93 C96 1.314 . S
N93 C97 1.279 . S
C94 C92 1.348 . S
C94 C96 1.353 . S
C94 H152 0.929 . S
C95 C92 1.356 . S
C95 C97 1.358 . S
C95 H153 0.930 . S
C96 N93 1.314 . S
C96 C94 1.353 . S
C96 H154 0.930 . S
C97 N93 1.279 . S
C97 C95 1.358 . S
C97 H155 0.930 . S
C98 C101 1.348 . S
C98 C102 1.356 . S
C98 O149 1.325 . S
C99 N100 1.279 . S
C99 C102 1.358 . S
C99 H156 0.930 . S
N100 C99 1.279 . S
N100 C103 1.314 . S
C101 C98 1.348 . S
C101 C103 1.353 . S
C101 H157 0.929 . S
C102 C98 1.356 . S
C102 C99 1.358 . S
C102 H158 0.930 1_455 S
C103 N100 1.314 . S
C103 C101 1.353 . S
C103 H159 0.930 . S
C104 N105 1.314 1_655 S
C104 C109 1.353 . S
C104 H110 0.930 . S
N105 Li88 1.990 . S
N105 C104 1.314 1_455 S
N105 C107 1.279 . S
C106 C107 1.358 . S
C106 C108 1.356 . S
C106 H160 0.930 . S
C107 N105 1.279 . S
C107 C106 1.358 . S
C107 H111 0.930 . S
C108 C106 1.356 . S
C108 C109 1.348 1_455 S
C109 C104 1.353 . S
C109 C108 1.348 1_655 S
C109 H161 0.929 . S
H110 C104 0.930 . S
H111 C107 0.930 . S
C112 N113 1.314 . S
C112 C114 1.353 . S
C112 H118 0.930 . S
N113 Li89 1.990 . S
N113 C112 1.314 . S
N113 C116 1.279 . S
C114 C112 1.353 . S
C114 C117 1.348 . S
C114 H162 0.929 . S
C115 C116 1.358 . S
C115 C117 1.356 . S
C115 H163 0.930 . S
C116 N113 1.279 . S
C116 C115 1.358 . S
C116 H119 0.930 . S
C117 C114 1.348 . S
C117 C115 1.356 . S
H118 C112 0.930 . S
H119 C116 0.930 . S
C120 C122 1.348 . S
C120 C123 1.356 . S
C120 O150 1.325 . S
N121 C124 1.314 . S
N121 C125 1.279 . S
C122 C120 1.348 . S
C122 C124 1.353 . S
C122 H164 0.929 . S
C123 C120 1.356 . S
C123 C125 1.358 . S
C123 H165 0.930 . S
C124 N121 1.314 . S
C124 C122 1.353 . S
C124 H166 0.930 . S
C125 N121 1.279 . S
C125 C123 1.358 . S
C125 H167 0.930 . S
C126 C127 1.348 . S
C126 C128 1.356 1_655 S
C126 O151 1.325 . S
C127 C126 1.348 . S
C127 C129 1.353 . S
C127 H168 0.929 . S
C128 C126 1.356 1_455 S
C128 C130 1.358 . S
C128 H169 0.930 . S
C129 C127 1.353 . S
C129 N131 1.314 . S
C129 H170 0.930 . S
C130 C128 1.358 . S
C130 N131 1.279 1_455 S
C130 H171 0.930 . S
N131 C129 1.314 . S
N131 C130 1.279 1_655 S
C132 C134 1.353 . S
C132 N135 1.314 1_455 S
C132 H138 0.930 . S
C133 N135 1.279 . S
C133 C136 1.358 . S
C133 H139 0.930 . S
C134 C132 1.353 . S
C134 C137 1.348 1_455 S
C134 H172 0.929 . S
N135 Li90 1.990 . S
N135 C132 1.314 1_655 S
N135 C133 1.279 . S
C136 C133 1.358 . S
C136 C137 1.356 . S
C136 H173 0.930 . S
C137 C134 1.348 1_655 S
C137 C136 1.356 . S
H138 C132 0.930 . S
H139 C133 0.930 . S
C140 N141 1.314 . S
C140 C142 1.353 . S
C140 H146 0.930 . S
N141 Li91 1.990 . S
N141 C140 1.314 . S
N141 C144 1.279 . S
C142 C140 1.353 . S
C142 C145 1.348 . S
C142 H174 0.929 . S
C143 C144 1.358 . S
C143 C145 1.356 . S
C143 H175 0.930 . S
C144 N141 1.279 . S
C144 C143 1.358 . S
C144 H147 0.930 . S
C145 C142 1.348 . S
C145 C143 1.356 . S
H146 C140 0.930 . S
H147 C144 0.930 . S
O148 Li88 1.956 . S
O148 Li89 1.970 . S
O148 Li90 1.961 1_455 S
O148 C92 1.325 . S
O149 Li88 1.970 . S
O149 Li89 1.956 . S
O149 Li91 1.961 1_455 S
O149 C98 1.325 . S
O150 Li88 1.961 1_655 S
O150 Li90 1.956 . S
O150 Li91 1.970 . S
O150 C120 1.325 . S
O151 Li89 1.955 1_655 S
O151 Li90 1.970 . S
O151 Li91 1.964 . S
O151 C126 1.325 . S
H152 C94 0.929 . S
H153 C95 0.930 . S
H154 C96 0.930 . S
H155 C97 0.930 . S
H156 C99 0.930 . S
H157 C101 0.929 . S
H158 C102 0.930 1_655 S
H159 C103 0.930 . S
H160 C106 0.930 . S
H161 C109 0.929 . S
H162 C114 0.929 . S
H163 C115 0.930 . S
H164 C122 0.929 . S
H165 C123 0.930 . S
H166 C124 0.930 . S
H167 C125 0.930 . S
H168 C127 0.929 . S
H169 C128 0.930 . S
H170 C129 0.930 . S
H171 C130 0.930 . S
H172 C134 0.929 . S
H173 C136 0.930 . S
H174 C142 0.929 . S
H175 C143 0.930 . S
Li176 N193 1.990 . S
Li176 O236 1.956 . S
Li176 O237 1.970 . S
Li176 O238 1.961 . S
Li177 N201 1.990 . S
Li177 O236 1.970 . S
Li177 O237 1.956 . S
Li177 O239 1.961 . S
Li178 N223 1.990 . S
Li178 O236 1.961 . S
Li178 O238 1.956 . S
Li178 O239 1.970 . S
Li179 N229 1.990 . S
Li179 O237 1.961 . S
Li179 O238 1.970 . S
Li179 O239 1.956 . S
C180 C182 1.348 . S
C180 C183 1.356 . S
C180 O236 1.325 . S
N181 C184 1.314 . S
N181 C185 1.279 . S
C182 C180 1.348 . S
C182 C184 1.353 . S
C182 H240 0.929 . S
C183 C180 1.356 . S
C183 C185 1.358 . S
C183 H241 0.930 . S
C184 N181 1.314 . S
C184 C182 1.353 . S
C184 H242 0.930 . S
C185 N181 1.279 . S
C185 C183 1.358 . S
C185 H243 0.930 . S
C186 C189 1.348 . S
C186 C190 1.356 . S
C186 O237 1.325 . S
C187 N188 1.279 . S
C187 C190 1.358 . S
C187 H244 0.930 . S
N188 C187 1.279 . S
N188 C191 1.314 . S
C189 C186 1.348 . S
C189 C191 1.353 . S
C189 H245 0.929 . S
C190 C186 1.356 . S
C190 C187 1.358 . S
C190 H246 0.930 . S
C191 N188 1.314 . S
C191 C189 1.353 . S
C191 H247 0.930 . S
C192 N193 1.314 . S
C192 C197 1.353 . S
C192 H198 0.930 . S
N193 Li176 1.990 . S
N193 C192 1.314 . S
N193 C195 1.279 . S
C194 C195 1.358 . S
C194 C196 1.356 . S
C194 H248 0.930 . S
C195 N193 1.279 . S
C195 C194 1.358 . S
C195 H199 0.930 . S
C196 C194 1.356 . S
C196 C197 1.348 . S
C197 C192 1.353 . S
C197 C196 1.348 . S
C197 H249 0.929 . S
H198 C192 0.930 . S
H199 C195 0.930 . S
C200 N201 1.314 . S
C200 C202 1.353 . S
C200 H206 0.930 . S
N201 Li177 1.990 . S
N201 C200 1.314 . S
N201 C204 1.279 . S
C202 C200 1.353 . S
C202 C205 1.348 . S
C202 H250 0.929 . S
C203 C204 1.358 . S
C203 C205 1.356 . S
C203 H251 0.930 . S
C204 N201 1.279 . S
C204 C203 1.358 . S
C204 H207 0.930 . S
C205 C202 1.348 . S
C205 C203 1.356 . S
H206 C200 0.930 . S
H207 C204 0.930 . S
C208 C210 1.348 . S
C208 C211 1.356 . S
C208 O238 1.325 . S
N209 C212 1.314 . S
N209 C213 1.279 . S
C210 C208 1.348 . S
C210 C212 1.353 . S
C210 H252 0.929 . S
C211 C208 1.356 . S
C211 C213 1.358 . S
C211 H253 0.930 . S
C212 N209 1.314 . S
C212 C210 1.353 . S
C212 H254 0.930 . S
C213 N209 1.279 . S
C213 C211 1.358 . S
C213 H255 0.930 . S
C214 C215 1.348 . S
C214 C216 1.356 . S
C214 O239 1.325 . S
C215 C214 1.348 . S
C215 C217 1.353 . S
C215 H256 0.929 . S
C216 C214 1.356 . S
C216 C218 1.358 . S
C216 H257 0.930 . S
C217 C215 1.353 . S
C217 N219 1.314 . S
C217 H258 0.930 . S
C218 C216 1.358 . S
C218 N219 1.279 . S
C218 H259 0.930 . S
N219 C217 1.314 . S
N219 C218 1.279 . S
C220 C222 1.353 . S
C220 N223 1.314 . S
C220 H226 0.930 . S
C221 N223 1.279 . S
C221 C224 1.358 . S
C221 H227 0.930 . S
C222 C220 1.353 . S
C222 C225 1.348 . S
C222 H260 0.929 . S
N223 Li178 1.990 . S
N223 C220 1.314 . S
N223 C221 1.279 . S
C224 C221 1.358 . S
C224 C225 1.356 . S
C224 H261 0.930 . S
C225 C222 1.348 . S
C225 C224 1.356 . S
H226 C220 0.930 . S
H227 C221 0.930 . S
C228 N229 1.314 . S
C228 C230 1.353 . S
C228 H234 0.930 . S
N229 Li179 1.990 . S
N229 C228 1.314 . S
N229 C232 1.279 . S
C230 C228 1.353 . S
C230 C233 1.348 . S
C230 H262 0.929 . S
C231 C232 1.358 . S
C231 C233 1.356 . S
C231 H263 0.930 . S
C232 N229 1.279 . S
C232 C231 1.358 . S
C232 H235 0.930 . S
C233 C230 1.348 . S
C233 C231 1.356 . S
H234 C228 0.930 . S
H235 C232 0.930 . S
O236 Li176 1.956 . S
O236 Li177 1.970 . S
O236 Li178 1.961 . S
O236 C180 1.325 . S
O237 Li176 1.970 . S
O237 Li177 1.956 . S
O237 Li179 1.961 . S
O237 C186 1.325 . S
O238 Li176 1.961 . S
O238 Li178 1.956 . S
O238 Li179 1.970 . S
O238 C208 1.325 . S
O239 Li177 1.961 . S
O239 Li178 1.970 . S
O239 Li179 1.956 . S
O239 C214 1.325 . S
H240 C182 0.929 . S
H241 C183 0.930 . S
H242 C184 0.930 . S
H243 C185 0.930 . S
H244 C187 0.930 . S
H245 C189 0.929 . S
H246 C190 0.930 . S
H247 C191 0.930 . S
H248 C194 0.930 . S
H249 C197 0.929 . S
H250 C202 0.929 . S
H251 C203 0.930 . S
H252 C210 0.929 . S
H253 C211 0.930 . S
H254 C212 0.930 . S
H255 C213 0.930 . S
H256 C215 0.929 . S
H257 C216 0.930 . S
H258 C217 0.930 . S
H259 C218 0.930 . S
H260 C222 0.929 . S
H261 C224 0.930 . S
H262 C230 0.929 . S
H263 C231 0.930 . S
Li264 N281 1.990 . S
Li264 O324 1.956 . S
Li264 O325 1.970 . S
Li264 O326 1.961 . S
Li265 N289 1.990 . S
Li265 O324 1.970 . S
Li265 O325 1.956 . S
Li265 O327 1.961 . S
Li266 N311 1.990 . S
Li266 O324 1.961 . S
Li266 O326 1.956 . S
Li266 O327 1.970 . S
Li267 N317 1.990 . S
Li267 O325 1.961 . S
Li267 O326 1.970 . S
Li267 O327 1.956 . S
C268 C270 1.348 . S
C268 C271 1.356 . S
C268 O324 1.325 . S
N269 C272 1.314 . S
N269 C273 1.279 . S
C270 C268 1.348 . S
C270 C272 1.353 . S
C270 H328 0.929 . S
C271 C268 1.356 . S
C271 C273 1.358 . S
C271 H329 0.930 . S
C272 N269 1.314 . S
C272 C270 1.353 . S
C272 H330 0.930 . S
C273 N269 1.279 . S
C273 C271 1.358 . S
C273 H331 0.930 . S
C274 C277 1.348 . S
C274 C278 1.356 . S
C274 O325 1.325 . S
C275 N276 1.279 . S
C275 C278 1.358 . S
C275 H332 0.930 . S
N276 C275 1.279 . S
N276 C279 1.314 . S
C277 C274 1.348 . S
C277 C279 1.353 . S
C277 H333 0.929 . S
C278 C274 1.356 . S
C278 C275 1.358 . S
C278 H334 0.930 . S
C279 N276 1.314 . S
C279 C277 1.353 . S
C279 H335 0.930 . S
C280 N281 1.314 . S
C280 C285 1.353 . S
C280 H286 0.930 . S
N281 Li264 1.990 . S
N281 C280 1.314 . S
N281 C283 1.279 . S
C282 C283 1.358 . S
C282 C284 1.356 . S
C282 H336 0.930 . S
C283 N281 1.279 . S
C283 C282 1.358 . S
C283 H287 0.930 . S
C284 C282 1.356 . S
C284 C285 1.348 . S
C285 C280 1.353 . S
C285 C284 1.348 . S
C285 H337 0.929 . S
H286 C280 0.930 . S
H287 C283 0.930 . S
C288 N289 1.314 . S
C288 C290 1.353 . S
C288 H294 0.930 . S
N289 Li265 1.990 . S
N289 C288 1.314 . S
N289 C292 1.279 . S
C290 C288 1.353 . S
C290 C293 1.348 . S
C290 H338 0.929 . S
C291 C292 1.358 . S
C291 C293 1.356 . S
C291 H339 0.930 . S
C292 N289 1.279 . S
C292 C291 1.358 . S
C292 H295 0.930 . S
C293 C290 1.348 . S
C293 C291 1.356 . S
H294 C288 0.930 . S
H295 C292 0.930 . S
C296 C298 1.348 . S
C296 C299 1.356 . S
C296 O326 1.325 . S
N297 C300 1.314 . S
N297 C301 1.279 . S
C298 C296 1.348 . S
C298 C300 1.353 . S
C298 H340 0.929 . S
C299 C296 1.356 . S
C299 C301 1.358 . S
C299 H341 0.930 . S
C300 N297 1.314 . S
C300 C298 1.353 . S
C300 H342 0.930 . S
C301 N297 1.279 . S
C301 C299 1.358 . S
C301 H343 0.930 . S
C302 C303 1.348 . S
C302 C304 1.356 . S
C302 O327 1.325 . S
C303 C302 1.348 . S
C303 C305 1.353 . S
C303 H344 0.929 . S
C304 C302 1.356 . S
C304 C306 1.358 . S
C304 H345 0.930 . S
C305 C303 1.353 . S
C305 N307 1.314 . S
C305 H346 0.930 . S
C306 C304 1.358 . S
C306 N307 1.279 . S
C306 H347 0.930 . S
N307 C305 1.314 . S
N307 C306 1.279 . S
C308 C310 1.353 . S
C308 N311 1.314 . S
C308 H314 0.930 . S
C309 N311 1.279 . S
C309 C312 1.358 . S
C309 H315 0.930 . S
C310 C308 1.353 . S
C310 C313 1.348 . S
C310 H348 0.929 . S
N311 Li266 1.990 . S
N311 C308 1.314 . S
N311 C309 1.279 . S
C312 C309 1.358 . S
C312 C313 1.356 . S
C312 H349 0.930 . S
C313 C310 1.348 . S
C313 C312 1.356 . S
H314 C308 0.930 . S
H315 C309 0.930 . S
C316 N317 1.314 . S
C316 C318 1.353 . S
C316 H322 0.930 . S
N317 Li267 1.990 . S
N317 C316 1.314 . S
N317 C320 1.279 . S
C318 C316 1.353 . S
C318 C321 1.348 . S
C318 H350 0.929 . S
C319 C320 1.358 . S
C319 C321 1.356 . S
C319 H351 0.930 . S
C320 N317 1.279 . S
C320 C319 1.358 . S
C320 H323 0.930 . S
C321 C318 1.348 . S
C321 C319 1.356 . S
H322 C316 0.930 . S
H323 C320 0.930 . S
O324 Li264 1.956 . S
O324 Li265 1.970 . S
O324 Li266 1.961 . S
O324 C268 1.325 . S
O325 Li264 1.970 . S
O325 Li265 1.956 . S
O325 Li267 1.961 . S
O325 C274 1.325 . S
O326 Li264 1.961 . S
O326 Li266 1.956 . S
O326 Li267 1.970 . S
O326 C296 1.325 . S
O327 Li265 1.961 . S
O327 Li266 1.970 . S
O327 Li267 1.956 . S
O327 C302 1.325 . S
H328 C270 0.929 . S
H329 C271 0.930 . S
H330 C272 0.930 . S
H331 C273 0.930 . S
H332 C275 0.930 . S
H333 C277 0.929 . S
H334 C278 0.930 . S
H335 C279 0.930 . S
H336 C282 0.930 . S
H337 C285 0.929 . S
H338 C290 0.929 . S
H339 C291 0.930 . S
H340 C298 0.929 . S
H341 C299 0.930 . S
H342 C300 0.930 . S
H343 C301 0.930 . S
H344 C303 0.929 . S
H345 C304 0.930 . S
H346 C305 0.930 . S
H347 C306 0.930 . S
H348 C310 0.929 . S
H349 C312 0.930 . S
H350 C318 0.929 . S
H351 C319 0.930 . S
Li352 N369 1.990 . S
Li352 O412 1.956 . S
Li352 O413 1.970 . S
Li352 O414 1.961 1_455 S
Li353 N377 1.990 . S
Li353 O412 1.970 . S
Li353 O413 1.956 . S
Li353 O415 1.961 . S
Li354 N399 1.992 1_455 S
Li354 O412 1.961 . S
Li354 O414 1.956 1_455 S
Li354 O415 1.970 . S
Li355 N405 1.990 . S
Li355 O413 1.961 1_655 S
Li355 O414 1.970 . S
Li355 O415 1.956 1_655 S
C356 C358 1.348 . S
C356 C359 1.356 . S
C356 O412 1.325 . S
N357 C360 1.314 . S
N357 C361 1.279 . S
C358 C356 1.348 . S
C358 C360 1.353 . S
C358 H416 0.929 . S
C359 C356 1.356 . S
C359 C361 1.358 . S
C359 H417 0.930 . S
C360 N357 1.314 . S
C360 C358 1.353 . S
C360 H418 0.930 . S
C361 N357 1.279 . S
C361 C359 1.358 . S
C361 H419 0.930 . S
C362 C365 1.348 . S
C362 C366 1.356 . S
C362 O413 1.325 . S
C363 N364 1.279 . S
C363 C366 1.358 . S
C363 H420 0.930 . S
N364 C363 1.279 . S
N364 C367 1.314 . S
C365 C362 1.348 . S
C365 C367 1.353 . S
C365 H421 0.929 . S
C366 C362 1.356 . S
C366 C363 1.358 . S
C366 H422 0.930 . S
C367 N364 1.314 . S
C367 C365 1.353 . S
C367 H423 0.930 . S
C368 N369 1.314 1_655 S
C368 C373 1.353 . S
C368 H374 0.930 . S
N369 Li352 1.990 . S
N369 C368 1.314 1_455 S
N369 C371 1.279 . S
C370 C371 1.358 . S
C370 C372 1.356 . S
C370 H424 0.930 . S
C371 N369 1.279 . S
C371 C370 1.358 . S
C371 H375 0.930 . S
C372 C370 1.356 . S
C372 C373 1.348 1_455 S
C373 C368 1.353 . S
C373 C372 1.348 1_655 S
C373 H425 0.929 . S
H374 C368 0.930 . S
H375 C371 0.930 . S
C376 N377 1.314 . S
C376 C378 1.353 . S
C376 H382 0.930 . S
N377 Li353 1.990 . S
N377 C376 1.314 . S
N377 C380 1.279 . S
C378 C376 1.353 . S
C378 C381 1.348 . S
C378 H426 0.929 . S
C379 C380 1.358 . S
C379 C381 1.356 . S
C379 H427 0.930 . S
C380 N377 1.279 . S
C380 C379 1.358 . S
C380 H383 0.930 . S
C381 C378 1.348 . S
C381 C379 1.356 . S
H382 C376 0.930 . S
H383 C380 0.930 . S
C384 C386 1.348 . S
C384 C387 1.356 . S
C384 O414 1.325 . S
N385 C388 1.314 . S
N385 C389 1.279 . S
C386 C384 1.348 . S
C386 C388 1.353 . S
C386 H428 0.929 . S
C387 C384 1.356 . S
C387 C389 1.358 . S
C387 H429 0.930 . S
C388 N385 1.314 . S
C388 C386 1.353 . S
C388 H430 0.930 . S
C389 N385 1.279 . S
C389 C387 1.358 . S
C389 H431 0.930 . S
C390 C391 1.348 1_455 S
C390 C392 1.356 . S
C390 O415 1.325 . S
C391 C390 1.348 1_655 S
C391 C393 1.353 . S
C391 H432 0.929 . S
C392 C390 1.356 . S
C392 C394 1.358 . S
C392 H433 0.930 . S
C393 C391 1.353 . S
C393 N395 1.314 1_655 S
C393 H434 0.930 . S
C394 C392 1.358 . S
C394 N395 1.279 . S
C394 H435 0.930 . S
N395 C393 1.314 1_455 S
N395 C394 1.279 . S
C396 C398 1.353 . S
C396 N399 1.299 1_455 S
C396 H402 0.930 . S
C397 N399 1.292 . S
C397 C400 1.358 . S
C397 H403 0.930 . S
C398 C396 1.353 . S
C398 C401 1.348 1_455 S
C398 H436 0.929 . S
N399 Li354 1.992 1_655 S
N399 C396 1.299 1_655 S
N399 C397 1.292 . S
C400 C397 1.358 . S
C400 C401 1.356 . S
C400 H437 0.930 . S
C401 C398 1.348 1_655 S
C401 C400 1.356 . S
H402 C396 0.930 . S
H403 C397 0.930 . S
C404 N405 1.314 . S
C404 C406 1.353 . S
C404 H410 0.930 . S
N405 Li355 1.990 . S
N405 C404 1.314 . S
N405 C408 1.279 . S
C406 C404 1.353 . S
C406 C409 1.348 . S
C406 H438 0.929 . S
C407 C408 1.358 . S
C407 C409 1.356 . S
C407 H439 0.930 . S
C408 N405 1.279 . S
C408 C407 1.358 . S
C408 H411 0.930 . S
C409 C406 1.348 . S
C409 C407 1.356 . S
H410 C404 0.930 . S
H411 C408 0.930 . S
O412 Li352 1.956 . S
O412 Li353 1.970 . S
O412 Li354 1.961 . S
O412 C356 1.325 . S
O413 Li352 1.970 . S
O413 Li353 1.956 . S
O413 Li355 1.961 1_455 S
O413 C362 1.325 . S
O414 Li352 1.961 1_655 S
O414 Li354 1.956 1_655 S
O414 Li355 1.970 . S
O414 C384 1.325 . S
O415 Li353 1.961 . S
O415 Li354 1.970 . S
O415 Li355 1.956 1_455 S
O415 C390 1.325 . S
H416 C358 0.929 . S
H417 C359 0.930 . S
H418 C360 0.930 . S
H419 C361 0.930 . S
H420 C363 0.930 . S
H421 C365 0.929 . S
H422 C366 0.930 . S
H423 C367 0.930 . S
H424 C370 0.930 . S
H425 C373 0.929 . S
H426 C378 0.929 . S
H427 C379 0.930 . S
H428 C386 0.929 . S
H429 C387 0.930 . S
H430 C388 0.930 . S
H431 C389 0.930 . S
H432 C391 0.929 . S
H433 C392 0.930 . S
H434 C393 0.930 . S
H435 C394 0.930 . S
H436 C398 0.929 . S
H437 C400 0.930 . S
H438 C406 0.929 . S
H439 C407 0.930 . S
Li440 N457 1.990 . S
Li440 O500 1.956 . S
Li440 O501 1.970 . S
Li440 O502 1.961 . S
Li441 N465 1.990 . S
Li441 O500 1.970 . S
Li441 O501 1.956 . S
Li441 O503 1.961 . S
Li442 N487 1.990 . S
Li442 O500 1.961 . S
Li442 O502 1.956 . S
Li442 O503 1.970 . S
Li443 N493 1.990 . S
Li443 O501 1.961 . S
Li443 O502 1.970 . S
Li443 O503 1.956 . S
C444 C446 1.348 . S
C444 C447 1.356 . S
C444 O500 1.325 . S
N445 C448 1.314 . S
N445 C449 1.279 . S
C446 C444 1.348 . S
C446 C448 1.353 . S
C446 H504 0.929 . S
C447 C444 1.356 . S
C447 C449 1.358 . S
C447 H505 0.930 . S
C448 N445 1.314 . S
C448 C446 1.353 . S
C448 H506 0.930 . S
C449 N445 1.279 . S
C449 C447 1.358 . S
C449 H507 0.930 . S
C450 C453 1.348 . S
C450 C454 1.356 . S
C450 O501 1.325 . S
C451 N452 1.279 . S
C451 C454 1.358 . S
C451 H508 0.930 . S
N452 C451 1.279 . S
N452 C455 1.314 . S
C453 C450 1.348 . S
C453 C455 1.353 . S
C453 H509 0.929 . S
C454 C450 1.356 . S
C454 C451 1.358 . S
C454 H510 0.930 . S
C455 N452 1.314 . S
C455 C453 1.353 . S
C455 H511 0.930 . S
C456 N457 1.314 . S
C456 C461 1.353 . S
C456 H462 0.930 . S
N457 Li440 1.990 . S
N457 C456 1.314 . S
N457 C459 1.279 . S
C458 C459 1.358 . S
C458 C460 1.356 . S
C458 H512 0.930 . S
C459 N457 1.279 . S
C459 C458 1.358 . S
C459 H463 0.930 . S
C460 C458 1.356 . S
C460 C461 1.348 . S
C461 C456 1.353 . S
C461 C460 1.348 . S
C461 H513 0.929 . S
H462 C456 0.930 . S
H463 C459 0.930 . S
C464 N465 1.314 . S
C464 C466 1.353 . S
C464 H470 0.930 . S
N465 Li441 1.990 . S
N465 C464 1.314 . S
N465 C468 1.279 . S
C466 C464 1.353 . S
C466 C469 1.348 . S
C466 H514 0.929 . S
C467 C468 1.358 . S
C467 C469 1.356 . S
C467 H515 0.930 . S
C468 N465 1.279 . S
C468 C467 1.358 . S
C468 H471 0.930 . S
C469 C466 1.348 . S
C469 C467 1.356 . S
H470 C464 0.930 . S
H471 C468 0.930 . S
C472 C474 1.348 . S
C472 C475 1.356 . S
C472 O502 1.325 . S
N473 C476 1.314 . S
N473 C477 1.279 . S
C474 C472 1.348 . S
C474 C476 1.353 . S
C474 H516 0.929 . S
C475 C472 1.356 . S
C475 C477 1.358 . S
C475 H517 0.930 . S
C476 N473 1.314 . S
C476 C474 1.353 . S
C476 H518 0.930 . S
C477 N473 1.279 . S
C477 C475 1.358 . S
C477 H519 0.930 . S
C478 C479 1.348 . S
C478 C480 1.356 . S
C478 O503 1.325 . S
C479 C478 1.348 . S
C479 C481 1.353 . S
C479 H520 0.929 . S
C480 C478 1.356 . S
C480 C482 1.358 . S
C480 H521 0.930 . S
C481 C479 1.353 . S
C481 N483 1.314 . S
C481 H522 0.930 . S
C482 C480 1.358 . S
C482 N483 1.279 . S
C482 H523 0.930 . S
N483 C481 1.314 . S
N483 C482 1.279 . S
C484 C486 1.353 . S
C484 N487 1.314 . S
C484 H490 0.930 . S
C485 N487 1.279 . S
C485 C488 1.358 . S
C485 H491 0.930 . S
C486 C484 1.353 . S
C486 C489 1.348 . S
C486 H524 0.929 . S
N487 Li442 1.990 . S
N487 C484 1.314 . S
N487 C485 1.279 . S
C488 C485 1.358 . S
C488 C489 1.356 . S
C488 H525 0.930 . S
C489 C486 1.348 . S
C489 C488 1.356 . S
H490 C484 0.930 . S
H491 C485 0.930 . S
C492 N493 1.314 . S
C492 C494 1.353 . S
C492 H498 0.930 . S
N493 Li443 1.990 . S
N493 C492 1.314 . S
N493 C496 1.279 . S
C494 C492 1.353 . S
C494 C497 1.348 . S
C494 H526 0.929 . S
C495 C496 1.358 . S
C495 C497 1.356 . S
C495 H527 0.930 . S
C496 N493 1.279 . S
C496 C495 1.358 . S
C496 H499 0.930 . S
C497 C494 1.348 . S
C497 C495 1.356 . S
H498 C492 0.930 . S
H499 C496 0.930 . S
O500 Li440 1.956 . S
O500 Li441 1.970 . S
O500 Li442 1.961 . S
O500 C444 1.325 . S
O501 Li440 1.970 . S
O501 Li441 1.956 . S
O501 Li443 1.961 . S
O501 C450 1.325 . S
O502 Li440 1.961 . S
O502 Li442 1.956 . S
O502 Li443 1.970 . S
O502 C472 1.325 . S
O503 Li441 1.961 . S
O503 Li442 1.970 . S
O503 Li443 1.956 . S
O503 C478 1.325 . S
H504 C446 0.929 . S
H505 C447 0.930 . S
H506 C448 0.930 . S
H507 C449 0.930 . S
H508 C451 0.930 . S
H509 C453 0.929 . S
H510 C454 0.930 . S
H511 C455 0.930 . S
H512 C458 0.930 . S
H513 C461 0.929 . S
H514 C466 0.929 . S
H515 C467 0.930 . S
H516 C474 0.929 . S
H517 C475 0.930 . S
H518 C476 0.930 . S
H519 C477 0.930 . S
H520 C479 0.929 . S
H521 C480 0.930 . S
H522 C481 0.930 . S
H523 C482 0.930 . S
H524 C486 0.929 . S
H525 C488 0.930 . S
H526 C494 0.929 . S
H527 C495 0.930 . S
Li528 N545 1.990 . S
Li528 O588 1.956 . S
Li528 O589 1.970 . S
Li528 O590 1.961 . S
Li529 N553 1.990 . S
Li529 O588 1.970 . S
Li529 O589 1.956 . S
Li529 O591 1.961 . S
Li530 N575 1.990 . S
Li530 O588 1.961 . S
Li530 O590 1.956 . S
Li530 O591 1.970 . S
Li531 N581 1.990 . S
Li531 O589 1.961 . S
Li531 O590 1.970 . S
Li531 O591 1.956 . S
C532 C534 1.348 . S
C532 C535 1.356 . S
C532 O588 1.325 . S
N533 C536 1.314 . S
N533 C537 1.279 . S
C534 C532 1.348 . S
C534 C536 1.353 . S
C534 H592 0.929 . S
C535 C532 1.356 . S
C535 C537 1.358 . S
C535 H593 0.930 . S
C536 N533 1.314 . S
C536 C534 1.353 . S
C536 H594 0.930 . S
C537 N533 1.279 . S
C537 C535 1.358 . S
C537 H595 0.930 . S
C538 C541 1.348 . S
C538 C542 1.356 . S
C538 O589 1.325 . S
C539 N540 1.279 . S
C539 C542 1.358 . S
C539 H596 0.930 . S
N540 C539 1.279 . S
N540 C543 1.314 . S
C541 C538 1.348 . S
C541 C543 1.353 . S
C541 H597 0.929 . S
C542 C538 1.356 . S
C542 C539 1.358 . S
C542 H598 0.930 . S
C543 N540 1.314 . S
C543 C541 1.353 . S
C543 H599 0.930 . S
C544 N545 1.314 . S
C544 C549 1.353 . S
C544 H550 0.930 . S
N545 Li528 1.990 . S
N545 C544 1.314 . S
N545 C547 1.279 . S
C546 C547 1.358 . S
C546 C548 1.356 . S
C546 H600 0.930 . S
C547 N545 1.279 . S
C547 C546 1.358 . S
C547 H551 0.930 . S
C548 C546 1.356 . S
C548 C549 1.348 . S
C549 C544 1.353 . S
C549 C548 1.348 . S
C549 H601 0.929 . S
H550 C544 0.930 . S
H551 C547 0.930 . S
C552 N553 1.314 . S
C552 C554 1.353 . S
C552 H558 0.930 . S
N553 Li529 1.990 . S
N553 C552 1.314 . S
N553 C556 1.279 . S
C554 C552 1.353 . S
C554 C557 1.348 . S
C554 H602 0.929 . S
C555 C556 1.358 . S
C555 C557 1.356 . S
C555 H603 0.930 . S
C556 N553 1.279 . S
C556 C555 1.358 . S
C556 H559 0.930 . S
C557 C554 1.348 . S
C557 C555 1.356 . S
H558 C552 0.930 . S
H559 C556 0.930 . S
C560 C562 1.348 . S
C560 C563 1.356 . S
C560 O590 1.325 . S
N561 C564 1.314 . S
N561 C565 1.279 . S
C562 C560 1.348 . S
C562 C564 1.353 . S
C562 H604 0.929 . S
C563 C560 1.356 . S
C563 C565 1.358 . S
C563 H605 0.930 . S
C564 N561 1.314 . S
C564 C562 1.353 . S
C564 H606 0.930 . S
C565 N561 1.279 . S
C565 C563 1.358 . S
C565 H607 0.930 . S
C566 C567 1.348 . S
C566 C568 1.356 . S
C566 O591 1.325 . S
C567 C566 1.348 . S
C567 C569 1.353 . S
C567 H608 0.929 . S
C568 C566 1.356 . S
C568 C570 1.358 . S
C568 H609 0.930 . S
C569 C567 1.353 . S
C569 N571 1.314 . S
C569 H610 0.930 . S
C570 C568 1.358 . S
C570 N571 1.279 . S
C570 H611 0.930 . S
N571 C569 1.314 . S
N571 C570 1.279 . S
C572 C574 1.353 . S
C572 N575 1.314 . S
C572 H578 0.930 . S
C573 N575 1.279 . S
C573 C576 1.358 . S
C573 H579 0.930 . S
C574 C572 1.353 . S
C574 C577 1.348 . S
C574 H612 0.929 . S
N575 Li530 1.990 . S
N575 C572 1.314 . S
N575 C573 1.279 . S
C576 C573 1.358 . S
C576 C577 1.356 . S
C576 H613 0.930 . S
C577 C574 1.348 . S
C577 C576 1.356 . S
H578 C572 0.930 . S
H579 C573 0.930 . S
C580 N581 1.314 . S
C580 C582 1.353 . S
C580 H586 0.930 . S
N581 Li531 1.990 . S
N581 C580 1.314 . S
N581 C584 1.279 . S
C582 C580 1.353 . S
C582 C585 1.348 . S
C582 H614 0.929 . S
C583 C584 1.358 . S
C583 C585 1.356 . S
C583 H615 0.930 . S
C584 N581 1.279 . S
C584 C583 1.358 . S
C584 H587 0.930 . S
C585 C582 1.348 . S
C585 C583 1.356 . S
H586 C580 0.930 . S
H587 C584 0.930 . S
O588 Li528 1.956 . S
O588 Li529 1.970 . S
O588 Li530 1.961 . S
O588 C532 1.325 . S
O589 Li528 1.970 . S
O589 Li529 1.956 . S
O589 Li531 1.961 . S
O589 C538 1.325 . S
O590 Li528 1.961 . S
O590 Li530 1.956 . S
O590 Li531 1.970 . S
O590 C560 1.325 . S
O591 Li529 1.961 . S
O591 Li530 1.970 . S
O591 Li531 1.956 . S
O591 C566 1.325 . S
H592 C534 0.929 . S
H593 C535 0.930 . S
H594 C536 0.930 . S
H595 C537 0.930 . S
H596 C539 0.930 . S
H597 C541 0.929 . S
H598 C542 0.930 . S
H599 C543 0.930 . S
H600 C546 0.930 . S
H601 C549 0.929 . S
H602 C554 0.929 . S
H603 C555 0.930 . S
H604 C562 0.929 . S
H605 C563 0.930 . S
H606 C564 0.930 . S
H607 C565 0.930 . S
H608 C567 0.929 . S
H609 C568 0.930 . S
H610 C569 0.930 . S
H611 C570 0.930 . S
H612 C574 0.929 . S
H613 C576 0.930 . S
H614 C582 0.929 . S
H615 C583 0.930 . S
Li616 N633 1.990 . S
Li616 O676 1.956 1_455 S
Li616 O677 1.970 . S
Li616 O678 1.961 . S
Li617 N641 1.990 . S
Li617 O676 1.970 . S
Li617 O677 1.956 1_655 S
Li617 O679 1.961 1_655 S
Li618 N663 1.990 . S
Li618 O676 1.961 1_455 S
Li618 O678 1.956 . S
Li618 O679 1.970 . S
Li619 N669 1.990 . S
Li619 O677 1.961 . S
Li619 O678 1.970 . S
Li619 O679 1.956 . S
C620 C622 1.348 . S
C620 C623 1.356 . S
C620 O676 1.325 . S
N621 C624 1.314 . S
N621 C625 1.279 . S
C622 C620 1.348 . S
C622 C624 1.353 . S
C622 H680 0.929 . S
C623 C620 1.356 . S
C623 C625 1.358 . S
C623 H681 0.930 . S
C624 N621 1.314 . S
C624 C622 1.353 . S
C624 H682 0.930 . S
C625 N621 1.279 . S
C625 C623 1.358 . S
C625 H683 0.930 . S
C626 C629 1.348 . S
C626 C630 1.356 . S
C626 O677 1.325 . S
C627 N628 1.279 . S
C627 C630 1.358 . S
C627 H684 0.930 . S
N628 C627 1.279 . S
N628 C631 1.314 . S
C629 C626 1.348 . S
C629 C631 1.353 . S
C629 H685 0.929 . S
C630 C626 1.356 . S
C630 C627 1.358 . S
C630 H686 0.930 . S
C631 N628 1.314 . S
C631 C629 1.353 . S
C631 H687 0.930 . S
C632 N633 1.314 . S
C632 C637 1.353 . S
C632 H638 0.930 . S
N633 Li616 1.990 . S
N633 C632 1.314 . S
N633 C635 1.279 1_455 S
C634 C635 1.358 1_455 S
C634 C636 1.356 . S
C634 H688 0.930 1_455 S
C635 N633 1.279 1_655 S
C635 C634 1.358 1_655 S
C635 H639 0.930 . S
C636 C634 1.356 . S
C636 C637 1.348 . S
C637 C632 1.353 . S
C637 C636 1.348 . S
C637 H689 0.929 . S
H638 C632 0.930 . S
H639 C635 0.930 . S
C640 N641 1.314 . S
C640 C642 1.353 . S
C640 H646 0.930 . S
N641 Li617 1.990 . S
N641 C640 1.314 . S
N641 C644 1.279 . S
C642 C640 1.353 . S
C642 C645 1.348 . S
C642 H690 0.929 . S
C643 C644 1.358 . S
C643 C645 1.356 . S
C643 H691 0.930 . S
C644 N641 1.279 . S
C644 C643 1.358 . S
C644 H647 0.930 . S
C645 C642 1.348 . S
C645 C643 1.356 . S
H646 C640 0.930 . S
H647 C644 0.930 . S
C648 C650 1.348 . S
C648 C651 1.356 . S
C648 O678 1.325 . S
N649 C652 1.314 . S
N649 C653 1.279 . S
C650 C648 1.348 . S
C650 C652 1.353 . S
C650 H692 0.929 . S
C651 C648 1.356 . S
C651 C653 1.358 . S
C651 H693 0.930 . S
C652 N649 1.314 . S
C652 C650 1.353 . S
C652 H694 0.930 . S
C653 N649 1.279 . S
C653 C651 1.358 . S
C653 H695 0.930 . S
C654 C655 1.348 . S
C654 C656 1.356 1_455 S
C654 O679 1.325 . S
C655 C654 1.348 . S
C655 C657 1.353 . S
C655 H696 0.929 . S
C656 C654 1.356 1_655 S
C656 C658 1.358 . S
C656 H697 0.930 . S
C657 C655 1.353 . S
C657 N659 1.314 1_455 S
C657 H698 0.930 . S
C658 C656 1.358 . S
C658 N659 1.279 . S
C658 H699 0.930 . S
N659 C657 1.314 1_655 S
N659 C658 1.279 . S
C660 C662 1.353 . S
C660 N663 1.314 1_655 S
C660 H666 0.930 . S
C661 N663 1.279 . S
C661 C664 1.358 . S
C661 H667 0.930 . S
C662 C660 1.353 . S
C662 C665 1.348 1_655 S
C662 H700 0.929 . S
N663 Li618 1.990 . S
N663 C660 1.314 1_455 S
N663 C661 1.279 . S
C664 C661 1.358 . S
C664 C665 1.356 . S
C664 H701 0.930 . S
C665 C662 1.348 1_455 S
C665 C664 1.356 . S
H666 C660 0.930 . S
H667 C661 0.930 . S
C668 N669 1.314 . S
C668 C670 1.353 . S
C668 H674 0.930 . S
N669 Li619 1.990 . S
N669 C668 1.314 . S
N669 C672 1.279 . S
C670 C668 1.353 . S
C670 C673 1.348 . S
C670 H702 0.929 . S
C671 C672 1.358 . S
C671 C673 1.356 . S
C671 H703 0.930 . S
C672 N669 1.279 . S
C672 C671 1.358 . S
C672 H675 0.930 . S
C673 C670 1.348 . S
C673 C671 1.356 . S
H674 C668 0.930 . S
H675 C672 0.930 . S
O676 Li616 1.956 1_655 S
O676 Li617 1.970 . S
O676 Li618 1.961 1_655 S
O676 C620 1.325 . S
O677 Li616 1.970 . S
O677 Li617 1.956 1_455 S
O677 Li619 1.961 . S
O677 C626 1.325 . S
O678 Li616 1.961 . S
O678 Li618 1.956 . S
O678 Li619 1.970 . S
O678 C648 1.325 . S
O679 Li617 1.961 1_455 S
O679 Li618 1.970 . S
O679 Li619 1.956 . S
O679 C654 1.325 . S
H680 C622 0.929 . S
H681 C623 0.930 . S
H682 C624 0.930 . S
H683 C625 0.930 . S
H684 C627 0.930 . S
H685 C629 0.929 . S
H686 C630 0.930 . S
H687 C631 0.930 . S
H688 C634 0.930 1_655 S
H689 C637 0.929 . S
H690 C642 0.929 . S
H691 C643 0.930 . S
H692 C650 0.929 . S
H693 C651 0.930 . S
H694 C652 0.930 . S
H695 C653 0.930 . S
H696 C655 0.929 . S
H697 C656 0.930 . S
H698 C657 0.930 . S
H699 C658 0.930 . S
H700 C662 0.929 . S
H701 C664 0.930 . S
H702 C670 0.929 . S
H703 C671 0.930 . S
Li704 N721 1.990 . S
Li704 O764 1.956 . S
Li704 O765 1.970 . S
Li704 O766 1.961 . S
Li705 N729 1.990 1_545 S
Li705 O764 1.970 . S
Li705 O765 1.956 . S
Li705 O767 1.961 . S
Li706 N751 1.990 . S
Li706 O764 1.961 . S
Li706 O766 1.956 . S
Li706 O767 1.970 . S
Li707 N757 1.990 . S
Li707 O765 1.961 . S
Li707 O766 1.970 . S
Li707 O767 1.956 . S
C708 C710 1.348 1_545 S
C708 C711 1.356 . S
C708 O764 1.325 . S
N709 C712 1.314 . S
N709 C713 1.279 . S
C710 C708 1.348 1_565 S
C710 C712 1.353 . S
C710 H768 0.929 . S
C711 C708 1.356 . S
C711 C713 1.358 1_545 S
C711 H769 0.930 . S
C712 N709 1.314 . S
C712 C710 1.353 . S
C712 H770 0.930 . S
C713 N709 1.279 . S
C713 C711 1.358 1_565 S
C713 H771 0.930 . S
C714 C717 1.348 . S
C714 C718 1.356 . S
C714 O765 1.325 . S
C715 N716 1.279 . S
C715 C718 1.358 . S
C715 H772 0.930 . S
N716 C715 1.279 . S
N716 C719 1.314 . S
C717 C714 1.348 . S
C717 C719 1.353 . S
C717 H773 0.929 . S
C718 C714 1.356 . S
C718 C715 1.358 . S
C718 H774 0.930 . S
C719 N716 1.314 . S
C719 C717 1.353 . S
C719 H775 0.930 . S
C720 N721 1.314 . S
C720 C725 1.353 . S
C720 H726 0.930 . S
N721 Li704 1.990 . S
N721 C720 1.314 . S
N721 C723 1.279 . S
C722 C723 1.358 . S
C722 C724 1.356 . S
C722 H776 0.930 . S
C723 N721 1.279 . S
C723 C722 1.358 . S
C723 H727 0.930 . S
C724 C722 1.356 . S
C724 C725 1.348 . S
C725 C720 1.353 . S
C725 C724 1.348 . S
C725 H777 0.929 . S
H726 C720 0.930 . S
H727 C723 0.930 . S
C728 N729 1.314 . S
C728 C730 1.353 . S
C728 H734 0.930 . S
N729 Li705 1.990 1_565 S
N729 C728 1.314 . S
N729 C732 1.279 . S
C730 C728 1.353 . S
C730 C733 1.348 . S
C730 H778 0.929 . S
C731 C732 1.358 . S
C731 C733 1.356 . S
C731 H779 0.930 . S
C732 N729 1.279 . S
C732 C731 1.358 . S
C732 H735 0.930 . S
C733 C730 1.348 . S
C733 C731 1.356 . S
H734 C728 0.930 . S
H735 C732 0.930 . S
C736 C738 1.348 . S
C736 C739 1.356 . S
C736 O766 1.325 . S
N737 C740 1.314 . S
N737 C741 1.279 . S
C738 C736 1.348 . S
C738 C740 1.353 . S
C738 H780 0.929 . S
C739 C736 1.356 . S
C739 C741 1.358 . S
C739 H781 0.930 . S
C740 N737 1.314 . S
C740 C738 1.353 . S
C740 H782 0.930 . S
C741 N737 1.279 . S
C741 C739 1.358 . S
C741 H783 0.930 . S
C742 C743 1.348 . S
C742 C744 1.356 . S
C742 O767 1.325 . S
C743 C742 1.348 . S
C743 C745 1.353 . S
C743 H784 0.929 . S
C744 C742 1.356 . S
C744 C746 1.358 . S
C744 H785 0.930 . S
C745 C743 1.353 . S
C745 N747 1.314 . S
C745 H786 0.930 . S
C746 C744 1.358 . S
C746 N747 1.279 . S
C746 H787 0.930 . S
N747 C745 1.314 . S
N747 C746 1.279 . S
C748 C750 1.353 . S
C748 N751 1.314 . S
C748 H754 0.930 . S
C749 N751 1.279 . S
C749 C752 1.358 . S
C749 H755 0.930 . S
C750 C748 1.353 . S
C750 C753 1.348 . S
C750 H788 0.929 . S
N751 Li706 1.990 . S
N751 C748 1.314 . S
N751 C749 1.279 . S
C752 C749 1.358 . S
C752 C753 1.356 . S
C752 H789 0.930 . S
C753 C750 1.348 . S
C753 C752 1.356 . S
H754 C748 0.930 . S
H755 C749 0.930 . S
C756 N757 1.314 . S
C756 C758 1.353 . S
C756 H762 0.930 . S
N757 Li707 1.990 . S
N757 C756 1.314 . S
N757 C760 1.279 . S
C758 C756 1.353 . S
C758 C761 1.348 . S
C758 H790 0.929 . S
C759 C760 1.358 . S
C759 C761 1.356 . S
C759 H791 0.930 . S
C760 N757 1.279 . S
C760 C759 1.358 . S
C760 H763 0.930 . S
C761 C758 1.348 . S
C761 C759 1.356 . S
H762 C756 0.930 . S
H763 C760 0.930 . S
O764 Li704 1.956 . S
O764 Li705 1.970 . S
O764 Li706 1.961 . S
O764 C708 1.325 . S
O765 Li704 1.970 . S
O765 Li705 1.956 . S
O765 Li707 1.961 . S
O765 C714 1.325 . S
O766 Li704 1.961 . S
O766 Li706 1.956 . S
O766 Li707 1.970 . S
O766 C736 1.325 . S
O767 Li705 1.961 . S
O767 Li706 1.970 . S
O767 Li707 1.956 . S
O767 C742 1.325 . S
H768 C710 0.929 . S
H769 C711 0.930 . S
H770 C712 0.930 . S
H771 C713 0.930 . S
H772 C715 0.930 . S
H773 C717 0.929 . S
H774 C718 0.930 . S
H775 C719 0.930 . S
H776 C722 0.930 . S
H777 C725 0.929 . S
H778 C730 0.929 . S
H779 C731 0.930 . S
H780 C738 0.929 . S
H781 C739 0.930 . S
H782 C740 0.930 . S
H783 C741 0.930 . S
H784 C743 0.929 . S
H785 C744 0.930 . S
H786 C745 0.930 . S
H787 C746 0.930 . S
H788 C750 0.929 . S
H789 C752 0.930 . S
H790 C758 0.929 . S
H791 C759 0.930 . S
Li792 N809 1.990 . S
Li792 O852 1.956 . S
Li792 O853 1.970 . S
Li792 O854 1.961 . S
Li793 N817 1.990 . S
Li793 O852 1.970 . S
Li793 O853 1.956 . S
Li793 O855 1.961 . S
Li794 N839 1.990 . S
Li794 O852 1.961 . S
Li794 O854 1.956 . S
Li794 O855 1.970 . S
Li795 N845 1.990 . S
Li795 O853 1.961 . S
Li795 O854 1.970 . S
Li795 O855 1.956 . S
C796 C798 1.348 . S
C796 C799 1.356 . S
C796 O852 1.325 . S
N797 C800 1.314 . S
N797 C801 1.279 . S
C798 C796 1.348 . S
C798 C800 1.353 . S
C798 H856 0.929 . S
C799 C796 1.356 . S
C799 C801 1.358 . S
C799 H857 0.930 . S
C800 N797 1.314 . S
C800 C798 1.353 . S
C800 H858 0.930 . S
C801 N797 1.279 . S
C801 C799 1.358 . S
C801 H859 0.930 . S
C802 C805 1.348 . S
C802 C806 1.356 . S
C802 O853 1.325 . S
C803 N804 1.279 . S
C803 C806 1.358 . S
C803 H860 0.930 . S
N804 C803 1.279 . S
N804 C807 1.314 . S
C805 C802 1.348 . S
C805 C807 1.353 . S
C805 H861 0.929 . S
C806 C802 1.356 . S
C806 C803 1.358 . S
C806 H862 0.930 . S
C807 N804 1.314 . S
C807 C805 1.353 . S
C807 H863 0.930 . S
C808 N809 1.314 . S
C808 C813 1.353 . S
C808 H814 0.930 . S
N809 Li792 1.990 . S
N809 C808 1.314 . S
N809 C811 1.279 . S
C810 C811 1.358 . S
C810 C812 1.356 . S
C810 H864 0.930 . S
C811 N809 1.279 . S
C811 C810 1.358 . S
C811 H815 0.930 . S
C812 C810 1.356 . S
C812 C813 1.348 . S
C813 C808 1.353 . S
C813 C812 1.348 . S
C813 H865 0.929 . S
H814 C808 0.930 . S
H815 C811 0.930 . S
C816 N817 1.314 . S
C816 C818 1.353 . S
C816 H822 0.930 . S
N817 Li793 1.990 . S
N817 C816 1.314 . S
N817 C820 1.279 . S
C818 C816 1.353 . S
C818 C821 1.348 . S
C818 H866 0.929 . S
C819 C820 1.358 . S
C819 C821 1.356 . S
C819 H867 0.930 . S
C820 N817 1.279 . S
C820 C819 1.358 . S
C820 H823 0.930 . S
C821 C818 1.348 . S
C821 C819 1.356 . S
H822 C816 0.930 . S
H823 C820 0.930 . S
C824 C826 1.348 . S
C824 C827 1.356 . S
C824 O854 1.325 . S
N825 C828 1.314 . S
N825 C829 1.279 . S
C826 C824 1.348 . S
C826 C828 1.353 . S
C826 H868 0.929 . S
C827 C824 1.356 . S
C827 C829 1.358 . S
C827 H869 0.930 . S
C828 N825 1.314 . S
C828 C826 1.353 . S
C828 H870 0.930 . S
C829 N825 1.279 . S
C829 C827 1.358 . S
C829 H871 0.930 . S
C830 C831 1.348 . S
C830 C832 1.356 . S
C830 O855 1.325 . S
C831 C830 1.348 . S
C831 C833 1.353 . S
C831 H872 0.929 . S
C832 C830 1.356 . S
C832 C834 1.358 . S
C832 H873 0.930 . S
C833 C831 1.353 . S
C833 N835 1.314 . S
C833 H874 0.930 . S
C834 C832 1.358 . S
C834 N835 1.279 . S
C834 H875 0.930 . S
N835 C833 1.314 . S
N835 C834 1.279 . S
C836 C838 1.353 . S
C836 N839 1.314 . S
C836 H842 0.930 . S
C837 N839 1.279 . S
C837 C840 1.358 . S
C837 H843 0.930 . S
C838 C836 1.353 . S
C838 C841 1.348 . S
C838 H876 0.929 . S
N839 Li794 1.990 . S
N839 C836 1.314 . S
N839 C837 1.279 . S
C840 C837 1.358 . S
C840 C841 1.356 . S
C840 H877 0.930 . S
C841 C838 1.348 . S
C841 C840 1.356 . S
H842 C836 0.930 . S
H843 C837 0.930 . S
C844 N845 1.314 . S
C844 C846 1.353 . S
C844 H850 0.930 . S
N845 Li795 1.990 . S
N845 C844 1.314 . S
N845 C848 1.279 . S
C846 C844 1.353 . S
C846 C849 1.348 . S
C846 H878 0.929 . S
C847 C848 1.358 . S
C847 C849 1.356 . S
C847 H879 0.930 . S
C848 N845 1.279 . S
C848 C847 1.358 . S
C848 H851 0.930 . S
C849 C846 1.348 . S
C849 C847 1.356 . S
H850 C844 0.930 . S
H851 C848 0.930 . S
O852 Li792 1.956 . S
O852 Li793 1.970 . S
O852 Li794 1.961 . S
O852 C796 1.325 . S
O853 Li792 1.970 . S
O853 Li793 1.956 . S
O853 Li795 1.961 . S
O853 C802 1.325 . S
O854 Li792 1.961 . S
O854 Li794 1.956 . S
O854 Li795 1.970 . S
O854 C824 1.325 . S
O855 Li793 1.961 . S
O855 Li794 1.970 . S
O855 Li795 1.956 . S
O855 C830 1.325 . S
H856 C798 0.929 . S
H857 C799 0.930 . S
H858 C800 0.930 . S
H859 C801 0.930 . S
H860 C803 0.930 . S
H861 C805 0.929 . S
H862 C806 0.930 . S
H863 C807 0.930 . S
H864 C810 0.930 . S
H865 C813 0.929 . S
H866 C818 0.929 . S
H867 C819 0.930 . S
H868 C826 0.929 . S
H869 C827 0.930 . S
H870 C828 0.930 . S
H871 C829 0.930 . S
H872 C831 0.929 . S
H873 C832 0.930 . S
H874 C833 0.930 . S
H875 C834 0.930 . S
H876 C838 0.929 . S
H877 C840 0.930 . S
H878 C846 0.929 . S
H879 C847 0.930 . S
Li880 N897 1.990 . S
Li880 O940 1.956 . S
Li880 O941 1.970 . S
Li880 O942 1.961 . S
Li881 N905 1.990 . S
Li881 O940 1.971 1_565 S
Li881 O941 1.950 1_565 S
Li881 O943 1.966 . S
Li882 N927 1.990 . S
Li882 O940 1.961 1_565 S
Li882 O942 1.956 1_565 S
Li882 O943 1.970 . S
Li883 N933 1.990 . S
Li883 O941 1.961 1_565 S
Li883 O942 1.970 1_565 S
Li883 O943 1.956 . S
C884 C886 1.348 . S
C884 C887 1.356 . S
C884 O940 1.325 . S
N885 C888 1.314 . S
N885 C889 1.279 . S
C886 C884 1.348 . S
C886 C888 1.353 . S
C886 H944 0.929 . S
C887 C884 1.356 . S
C887 C889 1.358 . S
C887 H945 0.930 . S
C888 N885 1.314 . S
C888 C886 1.353 . S
C888 H946 0.930 . S
C889 N885 1.279 . S
C889 C887 1.358 . S
C889 H947 0.930 . S
C890 C893 1.348 . S
C890 C894 1.356 . S
C890 O941 1.325 . S
C891 N892 1.279 . S
C891 C894 1.358 . S
C891 H948 0.930 . S
N892 C891 1.279 . S
N892 C895 1.314 . S
C893 C890 1.348 . S
C893 C895 1.353 . S
C893 H949 0.929 . S
C894 C890 1.356 . S
C894 C891 1.358 . S
C894 H950 0.930 . S
C895 N892 1.314 . S
C895 C893 1.353 . S
C895 H951 0.930 . S
C896 N897 1.314 . S
C896 C901 1.353 . S
C896 H902 0.930 . S
N897 Li880 1.990 . S
N897 C896 1.314 . S
N897 C899 1.279 . S
C898 C899 1.358 . S
C898 C900 1.356 . S
C898 H952 0.930 . S
C899 N897 1.279 . S
C899 C898 1.358 . S
C899 H903 0.930 . S
C900 C898 1.356 . S
C900 C901 1.348 . S
C901 C896 1.353 . S
C901 C900 1.348 . S
C901 H953 0.929 . S
H902 C896 0.930 . S
H903 C899 0.930 . S
C904 N905 1.314 . S
C904 C906 1.353 . S
C904 H910 0.930 . S
N905 Li881 1.990 . S
N905 C904 1.314 . S
N905 C908 1.279 1_565 S
C906 C904 1.353 . S
C906 C909 1.348 . S
C906 H954 0.929 . S
C907 C908 1.358 . S
C907 C909 1.356 1_545 S
C907 H955 0.930 . S
C908 N905 1.279 1_545 S
C908 C907 1.358 . S
C908 H911 0.930 . S
C909 C906 1.348 . S
C909 C907 1.356 1_565 S
H910 C904 0.930 . S
H911 C908 0.930 . S
C912 C914 1.348 1_545 S
C912 C915 1.356 . S
C912 O942 1.325 . S
N913 C916 1.314 1_545 S
N913 C917 1.279 . S
C914 C912 1.348 1_565 S
C914 C916 1.353 . S
C914 H956 0.929 . S
C915 C912 1.356 . S
C915 C917 1.358 . S
C915 H957 0.930 . S
C916 N913 1.314 1_565 S
C916 C914 1.353 . S
C916 H958 0.930 . S
C917 N913 1.279 . S
C917 C915 1.358 . S
C917 H959 0.930 . S
C918 C919 1.348 . S
C918 C920 1.356 . S
C918 O943 1.325 . S
C919 C918 1.348 . S
C919 C921 1.353 . S
C919 H960 0.929 . S
C920 C918 1.356 . S
C920 C922 1.358 . S
C920 H961 0.930 . S
C921 C919 1.353 . S
C921 N923 1.314 . S
C921 H962 0.930 . S
C922 C920 1.358 . S
C922 N923 1.279 . S
C922 H963 0.930 . S
N923 C921 1.314 . S
N923 C922 1.279 . S
C924 C926 1.353 . S
C924 N927 1.314 . S
C924 H930 0.930 . S
C925 N927 1.279 . S
C925 C928 1.358 . S
C925 H931 0.930 . S
C926 C924 1.353 . S
C926 C929 1.348 . S
C926 H964 0.929 . S
N927 Li882 1.990 . S
N927 C924 1.314 . S
N927 C925 1.279 . S
C928 C925 1.358 . S
C928 C929 1.356 . S
C928 H965 0.930 . S
C929 C926 1.348 . S
C929 C928 1.356 . S
H930 C924 0.930 . S
H931 C925 0.930 . S
C932 N933 1.314 1_545 S
C932 C934 1.353 . S
C932 H938 0.930 . S
N933 Li883 1.990 . S
N933 C932 1.314 1_565 S
N933 C936 1.279 . S
C934 C932 1.353 . S
C934 C937 1.348 1_545 S
C934 H966 0.929 . S
C935 C936 1.358 . S
C935 C937 1.356 . S
C935 H967 0.930 . S
C936 N933 1.279 . S
C936 C935 1.358 . S
C936 H939 0.930 . S
C937 C934 1.348 1_565 S
C937 C935 1.356 . S
H938 C932 0.930 . S
H939 C936 0.930 . S
O940 Li880 1.956 . S
O940 Li881 1.971 1_545 S
O940 Li882 1.961 1_545 S
O940 C884 1.325 . S
O941 Li880 1.970 . S
O941 Li881 1.950 1_545 S
O941 Li883 1.961 1_545 S
O941 C890 1.325 . S
O942 Li880 1.961 . S
O942 Li882 1.956 1_545 S
O942 Li883 1.970 1_545 S
O942 C912 1.325 . S
O943 Li881 1.966 . S
O943 Li882 1.970 . S
O943 Li883 1.956 . S
O943 C918 1.325 . S
H944 C886 0.929 . S
H945 C887 0.930 . S
H946 C888 0.930 . S
H947 C889 0.930 . S
H948 C891 0.930 . S
H949 C893 0.929 . S
H950 C894 0.930 . S
H951 C895 0.930 . S
H952 C898 0.930 . S
H953 C901 0.929 . S
H954 C906 0.929 . S
H955 C907 0.930 . S
H956 C914 0.929 . S
H957 C915 0.930 . S
H958 C916 0.930 . S
H959 C917 0.930 . S
H960 C919 0.929 . S
H961 C920 0.930 . S
H962 C921 0.930 . S
H963 C922 0.930 . S
H964 C926 0.929 . S
H965 C928 0.930 . S
H966 C934 0.929 . S
H967 C935 0.930 . S
Li968 N985 1.990 . S
Li968 O1028 1.956 . S
Li968 O1029 1.970 . S
Li968 O1030 1.961 . S
Li969 N993 1.990 . S
Li969 O1028 1.970 . S
Li969 O1029 1.956 . S
Li969 O1031 1.961 . S
Li970 N1015 1.990 . S
Li970 O1028 1.961 . S
Li970 O1030 1.956 . S
Li970 O1031 1.970 . S
Li971 N1021 1.990 1_554 S
Li971 O1029 1.961 . S
Li971 O1030 1.970 . S
Li971 O1031 1.956 . S
C972 C974 1.348 . S
C972 C975 1.356 . S
C972 O1028 1.325 . S
N973 C976 1.314 . S
N973 C977 1.279 . S
C974 C972 1.348 . S
C974 C976 1.353 . S
C974 H1032 0.929 . S
C975 C972 1.356 . S
C975 C977 1.358 . S
C975 H1033 0.930 . S
C976 N973 1.314 . S
C976 C974 1.353 . S
C976 H1034 0.930 . S
C977 N973 1.279 . S
C977 C975 1.358 . S
C977 H1035 0.930 . S
C978 C981 1.348 . S
C978 C982 1.356 . S
C978 O1029 1.325 . S
C979 N980 1.279 . S
C979 C982 1.358 . S
C979 H1036 0.930 . S
N980 C979 1.279 . S
N980 C983 1.314 . S
C981 C978 1.348 . S
C981 C983 1.353 . S
C981 H1037 0.929 . S
C982 C978 1.356 . S
C982 C979 1.358 . S
C982 H1038 0.930 . S
C983 N980 1.314 . S
C983 C981 1.353 . S
C983 H1039 0.930 . S
C984 N985 1.314 . S
C984 C989 1.353 . S
C984 H990 0.930 1_554 S
N985 Li968 1.990 . S
N985 C984 1.314 . S
N985 C987 1.279 . S
C986 C987 1.358 . S
C986 C988 1.356 . S
C986 H1040 0.930 . S
C987 N985 1.279 . S
C987 C986 1.358 . S
C987 H991 0.930 . S
C988 C986 1.356 . S
C988 C989 1.348 . S
C989 C984 1.353 . S
C989 C988 1.348 . S
C989 H1041 0.929 1_554 S
H990 C984 0.930 1_556 S
H991 C987 0.930 . S
C992 N993 1.314 . S
C992 C994 1.353 . S
C992 H998 0.930 . S
N993 Li969 1.990 . S
N993 C992 1.314 . S
N993 C996 1.279 . S
C994 C992 1.353 . S
C994 C997 1.348 . S
C994 H1042 0.929 . S
C995 C996 1.358 . S
C995 C997 1.356 . S
C995 H1043 0.930 . S
C996 N993 1.279 . S
C996 C995 1.358 . S
C996 H999 0.930 . S
C997 C994 1.348 . S
C997 C995 1.356 . S
H998 C992 0.930 . S
H999 C996 0.930 . S
C1000 C1002 1.348 . S
C1000 C1003 1.356 . S
C1000 O1030 1.325 1_556 S
N1001 C1004 1.314 . S
N1001 C1005 1.279 . S
C1002 C1000 1.348 . S
C1002 C1004 1.353 . S
C1002 H1044 0.929 . S
C1003 C1000 1.356 . S
C1003 C1005 1.358 . S
C1003 H1045 0.907 1_556 S
C1004 N1001 1.314 . S
C1004 C1002 1.353 . S
C1004 H1046 0.930 . S
C1005 N1001 1.279 . S
C1005 C1003 1.358 . S
C1005 H1047 0.930 . S
C1006 C1007 1.348 . S
C1006 C1008 1.356 . S
C1006 O1031 1.325 . S
C1007 C1006 1.348 . S
C1007 C1009 1.353 . S
C1007 H1048 0.929 . S
C1008 C1006 1.356 . S
C1008 C1010 1.358 . S
C1008 H1049 0.930 . S
C1009 C1007 1.353 . S
C1009 N1011 1.314 . S
C1009 H1050 0.930 . S
C1010 C1008 1.358 . S
C1010 N1011 1.279 . S
C1010 H1051 0.930 . S
N1011 C1009 1.314 . S
N1011 C1010 1.279 . S
C1012 C1014 1.353 . S
C1012 N1015 1.314 . S
C1012 H1018 0.930 . S
C1013 N1015 1.279 . S
C1013 C1016 1.358 . S
C1013 H1019 0.930 1_554 S
C1014 C1012 1.353 . S
C1014 C1017 1.348 . S
C1014 H1052 0.929 . S
N1015 Li970 1.990 . S
N1015 C1012 1.314 . S
N1015 C1013 1.279 . S
C1016 C1013 1.358 . S
C1016 C1017 1.356 . S
C1016 H1053 0.930 . S
C1017 C1014 1.348 . S
C1017 C1016 1.356 . S
H1018 C1012 0.930 . S
H1019 C1013 0.930 1_556 S
C1020 N1021 1.314 . S
C1020 C1022 1.353 . S
C1020 H1026 0.930 . S
N1021 Li971 1.990 1_556 S
N1021 C1020 1.314 . S
N1021 C1024 1.279 . S
C1022 C1020 1.353 . S
C1022 C1025 1.348 . S
C1022 H1054 0.929 . S
C1023 C1024 1.358 . S
C1023 C1025 1.356 . S
C1023 H1055 0.930 . S
C1024 N1021 1.279 . S
C1024 C1023 1.358 . S
C1024 H1027 0.930 . S
C1025 C1022 1.348 . S
C1025 C1023 1.356 . S
H1026 C1020 0.930 . S
H1027 C1024 0.930 . S
O1028 Li968 1.956 . S
O1028 Li969 1.970 . S
O1028 Li970 1.961 . S
O1028 C972 1.325 . S
O1029 Li968 1.970 . S
O1029 Li969 1.956 . S
O1029 Li971 1.961 . S
O1029 C978 1.325 . S
O1030 Li968 1.961 . S
O1030 Li970 1.956 . S
O1030 Li971 1.970 . S
O1030 C1000 1.325 1_554 S
O1031 Li969 1.961 . S
O1031 Li970 1.970 . S
O1031 Li971 1.956 . S
O1031 C1006 1.325 . S
H1032 C974 0.929 . S
H1033 C975 0.930 . S
H1034 C976 0.930 . S
H1035 C977 0.930 . S
H1036 C979 0.930 . S
H1037 C981 0.929 . S
H1038 C982 0.930 . S
H1039 C983 0.930 . S
H1040 C986 0.930 . S
H1041 C989 0.929 1_556 S
H1042 C994 0.929 . S
H1043 C995 0.930 . S
H1044 C1002 0.929 . S
H1045 C1003 0.907 1_554 S
H1046 C1004 0.930 . S
H1047 C1005 0.930 . S
H1048 C1007 0.929 . S
H1049 C1008 0.930 . S
H1050 C1009 0.930 . S
H1051 C1010 0.930 . S
H1052 C1014 0.929 . S
H1053 C1016 0.930 . S
H1054 C1022 0.929 . S
H1055 C1023 0.930 . S
Li1056 N1073 1.990 . S
Li1056 O1116 1.956 . S
Li1056 O1117 1.970 . S
Li1056 O1118 1.961 . S
Li1057 N1081 1.990 . S
Li1057 O1116 1.970 . S
Li1057 O1117 1.956 . S
Li1057 O1119 1.961 . S
Li1058 N1103 1.990 . S
Li1058 O1116 1.961 . S
Li1058 O1118 1.956 . S
Li1058 O1119 1.970 . S
Li1059 N1109 1.990 1_554 S
Li1059 O1117 1.961 . S
Li1059 O1118 1.970 . S
Li1059 O1119 1.956 . S
C1060 C1062 1.348 . S
C1060 C1063 1.356 . S
C1060 O1116 1.325 . S
N1061 C1064 1.314 . S
N1061 C1065 1.279 . S
C1062 C1060 1.348 . S
C1062 C1064 1.353 . S
C1062 H1120 0.929 . S
C1063 C1060 1.356 . S
C1063 C1065 1.358 . S
C1063 H1121 0.930 . S
C1064 N1061 1.314 . S
C1064 C1062 1.353 . S
C1064 H1122 0.930 . S
C1065 N1061 1.279 . S
C1065 C1063 1.358 . S
C1065 H1123 0.930 . S
C1066 C1069 1.348 . S
C1066 C1070 1.356 . S
C1066 O1117 1.325 . S
C1067 N1068 1.279 . S
C1067 C1070 1.358 . S
C1067 H1124 0.930 . S
N1068 C1067 1.279 . S
N1068 C1071 1.314 . S
C1069 C1066 1.348 . S
C1069 C1071 1.353 . S
C1069 H1125 0.929 . S
C1070 C1066 1.356 . S
C1070 C1067 1.358 . S
C1070 H1126 0.930 . S
C1071 N1068 1.314 . S
C1071 C1069 1.353 . S
C1071 H1127 0.930 . S
C1072 N1073 1.314 . S
C1072 C1077 1.353 . S
C1072 H1078 0.930 1_554 S
N1073 Li1056 1.990 . S
N1073 C1072 1.314 . S
N1073 C1075 1.279 . S
C1074 C1075 1.358 . S
C1074 C1076 1.356 . S
C1074 H1128 0.930 . S
C1075 N1073 1.279 . S
C1075 C1074 1.358 . S
C1075 H1079 0.930 . S
C1076 C1074 1.356 . S
C1076 C1077 1.348 . S
C1077 C1072 1.353 . S
C1077 C1076 1.348 . S
C1077 H1129 0.929 1_554 S
H1078 C1072 0.930 1_556 S
H1079 C1075 0.930 . S
C1080 N1081 1.314 . S
C1080 C1082 1.353 . S
C1080 H1086 0.930 . S
N1081 Li1057 1.990 . S
N1081 C1080 1.314 . S
N1081 C1084 1.279 . S
C1082 C1080 1.353 . S
C1082 C1085 1.348 . S
C1082 H1130 0.929 . S
C1083 C1084 1.358 . S
C1083 C1085 1.356 . S
C1083 H1131 0.930 . S
C1084 N1081 1.279 . S
C1084 C1083 1.358 . S
C1084 H1087 0.930 . S
C1085 C1082 1.348 . S
C1085 C1083 1.356 . S
H1086 C1080 0.930 . S
H1087 C1084 0.930 . S
C1088 C1090 1.348 . S
C1088 C1091 1.356 . S
C1088 O1118 1.325 1_556 S
N1089 C1092 1.314 . S
N1089 C1093 1.279 . S
C1090 C1088 1.348 . S
C1090 C1092 1.353 . S
C1090 H1132 0.929 . S
C1091 C1088 1.356 . S
C1091 C1093 1.358 . S
C1091 H1133 0.930 . S
C1092 N1089 1.314 . S
C1092 C1090 1.353 . S
C1092 H1134 0.930 . S
C1093 N1089 1.279 . S
C1093 C1091 1.358 . S
C1093 H1135 0.930 . S
C1094 C1095 1.348 . S
C1094 C1096 1.356 . S
C1094 O1119 1.325 . S
C1095 C1094 1.348 . S
C1095 C1097 1.353 . S
C1095 H1136 0.929 . S
C1096 C1094 1.356 . S
C1096 C1098 1.358 . S
C1096 H1137 0.930 . S
C1097 C1095 1.353 . S
C1097 N1099 1.314 . S
C1097 H1138 0.930 . S
C1098 C1096 1.358 . S
C1098 N1099 1.279 . S
C1098 H1139 0.930 . S
N1099 C1097 1.314 . S
N1099 C1098 1.279 . S
C1100 C1102 1.353 . S
C1100 N1103 1.314 . S
C1100 H1106 0.930 . S
C1101 N1103 1.279 . S
C1101 C1104 1.358 . S
C1101 H1107 0.930 1_554 S
C1102 C1100 1.353 . S
C1102 C1105 1.348 . S
C1102 H1140 0.929 . S
N1103 Li1058 1.990 . S
N1103 C1100 1.314 . S
N1103 C1101 1.279 . S
C1104 C1101 1.358 . S
C1104 C1105 1.356 . S
C1104 H1141 0.916 1_554 S
C1105 C1102 1.348 . S
C1105 C1104 1.356 . S
H1106 C1100 0.930 . S
H1107 C1101 0.930 1_556 S
C1108 N1109 1.314 . S
C1108 C1110 1.353 . S
C1108 H1114 0.930 . S
N1109 Li1059 1.990 1_556 S
N1109 C1108 1.314 . S
N1109 C1112 1.279 . S
C1110 C1108 1.353 . S
C1110 C1113 1.348 . S
C1110 H1142 0.929 . S
C1111 C1112 1.358 . S
C1111 C1113 1.356 . S
C1111 H1143 0.930 . S
C1112 N1109 1.279 . S
C1112 C1111 1.358 . S
C1112 H1115 0.930 . S
C1113 C1110 1.348 . S
C1113 C1111 1.356 . S
H1114 C1108 0.930 . S
H1115 C1112 0.930 . S
O1116 Li1056 1.956 . S
O1116 Li1057 1.970 . S
O1116 Li1058 1.961 . S
O1116 C1060 1.325 . S
O1117 Li1056 1.970 . S
O1117 Li1057 1.956 . S
O1117 Li1059 1.961 . S
O1117 C1066 1.325 . S
O1118 Li1056 1.961 . S
O1118 Li1058 1.956 . S
O1118 Li1059 1.970 . S
O1118 C1088 1.325 1_554 S
O1119 Li1057 1.961 . S
O1119 Li1058 1.970 . S
O1119 Li1059 1.956 . S
O1119 C1094 1.325 . S
H1120 C1062 0.929 . S
H1121 C1063 0.930 . S
H1122 C1064 0.930 . S
H1123 C1065 0.930 . S
H1124 C1067 0.930 . S
H1125 C1069 0.929 . S
H1126 C1070 0.930 . S
H1127 C1071 0.930 . S
H1128 C1074 0.930 . S
H1129 C1077 0.929 1_556 S
H1130 C1082 0.929 . S
H1131 C1083 0.930 . S
H1132 C1090 0.929 . S
H1133 C1091 0.930 . S
H1134 C1092 0.930 . S
H1135 C1093 0.930 . S
H1136 C1095 0.929 . S
H1137 C1096 0.930 . S
H1138 C1097 0.930 . S
H1139 C1098 0.930 . S
H1140 C1102 0.929 . S
H1141 C1104 0.916 1_556 S
H1142 C1110 0.929 . S
H1143 C1111 0.930 . S
Li1144 N1161 1.990 . S
Li1144 O1204 1.956 . S
Li1144 O1205 1.970 . S
Li1144 O1206 1.968 . S
Li1145 N1169 1.990 . S
Li1145 O1204 1.970 . S
Li1145 O1205 1.956 . S
Li1145 O1207 1.961 1_554 S
Li1146 N1191 1.990 . S
Li1146 O1204 1.961 1_556 S
Li1146 O1206 1.948 1_556 S
Li1146 O1207 1.970 . S
Li1147 N1197 1.990 . S
Li1147 O1205 1.961 1_556 S
Li1147 O1206 1.970 1_556 S
Li1147 O1207 1.956 . S
C1148 C1150 1.348 . S
C1148 C1151 1.365 . S
C1148 O1204 1.325 . S
N1149 C1152 1.314 . S
N1149 C1153 1.279 . S
C1150 C1148 1.348 . S
C1150 C1152 1.353 . S
C1150 H1208 0.929 . S
C1151 C1148 1.365 . S
C1151 C1153 1.358 . S
C1151 H1209 0.923 1_554 S
C1152 N1149 1.314 . S
C1152 C1150 1.353 . S
C1152 H1210 0.930 . S
C1153 N1149 1.279 . S
C1153 C1151 1.358 . S
C1153 H1211 0.931 1_554 S
C1154 C1157 1.348 . S
C1154 C1158 1.356 . S
C1154 O1205 1.325 . S
C1155 N1156 1.279 . S
C1155 C1158 1.358 . S
C1155 H1212 0.930 . S
N1156 C1155 1.279 . S
N1156 C1159 1.314 . S
C1157 C1154 1.348 . S
C1157 C1159 1.353 . S
C1157 H1213 0.929 . S
C1158 C1154 1.356 . S
C1158 C1155 1.358 . S
C1158 H1214 0.930 . S
C1159 N1156 1.314 . S
C1159 C1157 1.353 . S
C1159 H1215 0.930 . S
C1160 N1161 1.314 . S
C1160 C1165 1.353 . S
C1160 H1166 0.930 . S
N1161 Li1144 1.990 . S
N1161 C1160 1.314 . S
N1161 C1163 1.279 . S
C1162 C1163 1.358 . S
C1162 C1164 1.356 . S
C1162 H1216 0.930 . S
C1163 N1161 1.279 . S
C1163 C1162 1.358 . S
C1163 H1167 0.930 . S
C1164 C1162 1.356 . S
C1164 C1165 1.348 . S
C1165 C1160 1.353 . S
C1165 C1164 1.348 . S
C1165 H1217 0.929 . S
H1166 C1160 0.930 . S
H1167 C1163 0.930 . S
C1168 N1169 1.314 1_556 S
C1168 C1170 1.353 . S
C1168 H1174 0.930 . S
N1169 Li1145 1.990 . S
N1169 C1168 1.314 1_554 S
N1169 C1172 1.279 . S
C1170 C1168 1.353 . S
C1170 C1173 1.348 1_556 S
C1170 H1218 0.929 . S
C1171 C1172 1.358 . S
C1171 C1173 1.356 . S
C1171 H1219 0.930 . S
C1172 N1169 1.279 . S
C1172 C1171 1.358 . S
C1172 H1175 0.930 . S
C1173 C1170 1.348 1_554 S
C1173 C1171 1.356 . S
H1174 C1168 0.930 . S
H1175 C1172 0.930 . S
C1176 C1178 1.354 . S
C1176 C1179 1.352 1_556 S
C1176 O1206 1.325 1_556 S
N1177 C1180 1.314 . S
N1177 C1181 1.279 1_556 S
C1178 C1176 1.354 . S
C1178 C1180 1.353 . S
C1178 H1220 0.929 . S
C1179 C1176 1.352 1_554 S
C1179 C1181 1.358 . S
C1179 H1221 0.930 . S
C1180 N1177 1.314 . S
C1180 C1178 1.353 . S
C1180 H1222 0.930 . S
C1181 N1177 1.279 1_554 S
C1181 C1179 1.358 . S
C1181 H1223 0.930 . S
C1182 C1183 1.348 . S
C1182 C1184 1.356 . S
C1182 O1207 1.325 . S
C1183 C1182 1.348 . S
C1183 C1185 1.353 . S
C1183 H1224 0.929 . S
C1184 C1182 1.356 . S
C1184 C1186 1.358 . S
C1184 H1225 0.930 . S
C1185 C1183 1.353 . S
C1185 N1187 1.314 . S
C1185 H1226 0.930 . S
C1186 C1184 1.358 . S
C1186 N1187 1.279 . S
C1186 H1227 0.930 . S
N1187 C1185 1.314 . S
N1187 C1186 1.279 . S
C1188 C1190 1.353 . S
C1188 N1191 1.314 . S
C1188 H1194 0.930 . S
C1189 N1191 1.279 . S
C1189 C1192 1.358 . S
C1189 H1195 0.930 . S
C1190 C1188 1.353 . S
C1190 C1193 1.348 . S
C1190 H1228 0.929 . S
N1191 Li1146 1.990 . S
N1191 C1188 1.314 . S
N1191 C1189 1.279 . S
C1192 C1189 1.358 . S
C1192 C1193 1.356 . S
C1192 H1229 0.930 . S
C1193 C1190 1.348 . S
C1193 C1192 1.356 . S
H1194 C1188 0.930 . S
H1195 C1189 0.930 . S
C1196 N1197 1.314 1_554 S
C1196 C1198 1.353 . S
C1196 H1202 0.930 . S
N1197 Li1147 1.990 . S
N1197 C1196 1.314 1_556 S
N1197 C1200 1.279 . S
C1198 C1196 1.353 . S
C1198 C1201 1.348 1_554 S
C1198 H1230 0.929 . S
C1199 C1200 1.358 . S
C1199 C1201 1.356 . S
C1199 H1231 0.930 . S
C1200 N1197 1.279 . S
C1200 C1199 1.358 . S
C1200 H1203 0.930 . S
C1201 C1198 1.348 1_556 S
C1201 C1199 1.356 . S
H1202 C1196 0.930 . S
H1203 C1200 0.930 . S
O1204 Li1144 1.956 . S
O1204 Li1145 1.970 . S
O1204 Li1146 1.961 1_554 S
O1204 C1148 1.325 . S
O1205 Li1144 1.970 . S
O1205 Li1145 1.956 . S
O1205 Li1147 1.961 1_554 S
O1205 C1154 1.325 . S
O1206 Li1144 1.968 . S
O1206 Li1146 1.948 1_554 S
O1206 Li1147 1.970 1_554 S
O1206 C1176 1.325 1_554 S
O1207 Li1145 1.961 1_556 S
O1207 Li1146 1.970 . S
O1207 Li1147 1.956 . S
O1207 C1182 1.325 . S
H1208 C1150 0.929 . S
H1209 C1151 0.923 1_556 S
H1210 C1152 0.930 . S
H1211 C1153 0.931 1_556 S
H1212 C1155 0.930 . S
H1213 C1157 0.929 . S
H1214 C1158 0.930 . S
H1215 C1159 0.930 . S
H1216 C1162 0.930 . S
H1217 C1165 0.929 . S
H1218 C1170 0.929 . S
H1219 C1171 0.930 . S
H1220 C1178 0.929 . S
H1221 C1179 0.930 . S
H1222 C1180 0.930 . S
H1223 C1181 0.930 . S
H1224 C1183 0.929 . S
H1225 C1184 0.930 . S
H1226 C1185 0.930 . S
H1227 C1186 0.930 . S
H1228 C1190 0.929 . S
H1229 C1192 0.930 . S
H1230 C1198 0.929 . S
H1231 C1199 0.930 . S
Li1232 N1249 1.990 . S
Li1232 O1292 1.956 . S
Li1232 O1293 1.970 . S
Li1232 O1294 1.961 . S
Li1233 N1257 1.990 . S
Li1233 O1292 1.970 . S
Li1233 O1293 1.956 . S
Li1233 O1295 1.961 . S
Li1234 N1279 1.990 . S
Li1234 O1292 1.961 . S
Li1234 O1294 1.956 . S
Li1234 O1295 1.970 . S
Li1235 N1285 1.990 . S
Li1235 O1293 1.961 . S
Li1235 O1294 1.970 . S
Li1235 O1295 1.956 . S
C1236 C1238 1.348 . S
C1236 C1239 1.356 . S
C1236 O1292 1.325 . S
N1237 C1240 1.314 . S
N1237 C1241 1.279 . S
C1238 C1236 1.348 . S
C1238 C1240 1.353 . S
C1238 H1296 0.929 . S
C1239 C1236 1.356 . S
C1239 C1241 1.358 . S
C1239 H1297 0.930 . S
C1240 N1237 1.314 . S
C1240 C1238 1.353 . S
C1240 H1298 0.930 . S
C1241 N1237 1.279 . S
C1241 C1239 1.358 . S
C1241 H1299 0.930 . S
C1242 C1245 1.348 . S
C1242 C1246 1.356 . S
C1242 O1293 1.325 . S
C1243 N1244 1.279 . S
C1243 C1246 1.358 . S
C1243 H1300 0.930 . S
N1244 C1243 1.279 . S
N1244 C1247 1.314 . S
C1245 C1242 1.348 . S
C1245 C1247 1.353 . S
C1245 H1301 0.929 . S
C1246 C1242 1.356 . S
C1246 C1243 1.358 . S
C1246 H1302 0.930 . S
C1247 N1244 1.314 . S
C1247 C1245 1.353 . S
C1247 H1303 0.930 . S
C1248 N1249 1.314 . S
C1248 C1253 1.353 . S
C1248 H1254 0.930 . S
N1249 Li1232 1.990 . S
N1249 C1248 1.314 . S
N1249 C1251 1.279 . S
C1250 C1251 1.358 . S
C1250 C1252 1.356 . S
C1250 H1304 0.930 . S
C1251 N1249 1.279 . S
C1251 C1250 1.358 . S
C1251 H1255 0.930 . S
C1252 C1250 1.356 . S
C1252 C1253 1.348 . S
C1253 C1248 1.353 . S
C1253 C1252 1.348 . S
C1253 H1305 0.929 . S
H1254 C1248 0.930 . S
H1255 C1251 0.930 . S
C1256 N1257 1.314 . S
C1256 C1258 1.353 . S
C1256 H1262 0.930 . S
N1257 Li1233 1.990 . S
N1257 C1256 1.314 . S
N1257 C1260 1.279 . S
C1258 C1256 1.353 . S
C1258 C1261 1.348 . S
C1258 H1306 0.929 . S
C1259 C1260 1.358 . S
C1259 C1261 1.356 . S
C1259 H1307 0.930 . S
C1260 N1257 1.279 . S
C1260 C1259 1.358 . S
C1260 H1263 0.930 . S
C1261 C1258 1.348 . S
C1261 C1259 1.356 . S
H1262 C1256 0.930 . S
H1263 C1260 0.930 . S
C1264 C1266 1.348 . S
C1264 C1267 1.356 . S
C1264 O1294 1.325 . S
N1265 C1268 1.314 . S
N1265 C1269 1.279 . S
C1266 C1264 1.348 . S
C1266 C1268 1.353 . S
C1266 H1308 0.929 . S
C1267 C1264 1.356 . S
C1267 C1269 1.358 . S
C1267 H1309 0.930 . S
C1268 N1265 1.314 . S
C1268 C1266 1.353 . S
C1268 H1310 0.930 . S
C1269 N1265 1.279 . S
C1269 C1267 1.358 . S
C1269 H1311 0.930 . S
C1270 C1271 1.348 . S
C1270 C1272 1.356 . S
C1270 O1295 1.325 . S
C1271 C1270 1.348 . S
C1271 C1273 1.353 . S
C1271 H1312 0.929 . S
C1272 C1270 1.356 . S
C1272 C1274 1.358 . S
C1272 H1313 0.930 . S
C1273 C1271 1.353 . S
C1273 N1275 1.314 . S
C1273 H1314 0.930 . S
C1274 C1272 1.358 . S
C1274 N1275 1.279 . S
C1274 H1315 0.930 . S
N1275 C1273 1.314 . S
N1275 C1274 1.279 . S
C1276 C1278 1.353 . S
C1276 N1279 1.314 . S
C1276 H1282 0.930 . S
C1277 N1279 1.279 . S
C1277 C1280 1.358 . S
C1277 H1283 0.930 . S
C1278 C1276 1.353 . S
C1278 C1281 1.348 . S
C1278 H1316 0.929 . S
N1279 Li1234 1.990 . S
N1279 C1276 1.314 . S
N1279 C1277 1.279 . S
C1280 C1277 1.358 . S
C1280 C1281 1.356 . S
C1280 H1317 0.930 . S
C1281 C1278 1.348 . S
C1281 C1280 1.356 . S
H1282 C1276 0.930 . S
H1283 C1277 0.930 . S
C1284 N1285 1.314 . S
C1284 C1286 1.353 . S
C1284 H1290 0.930 . S
N1285 Li1235 1.990 . S
N1285 C1284 1.314 . S
N1285 C1288 1.279 . S
C1286 C1284 1.353 . S
C1286 C1289 1.348 . S
C1286 H1318 0.929 . S
C1287 C1288 1.358 . S
C1287 C1289 1.356 . S
C1287 H1319 0.930 . S
C1288 N1285 1.279 . S
C1288 C1287 1.358 . S
C1288 H1291 0.930 . S
C1289 C1286 1.348 . S
C1289 C1287 1.356 . S
H1290 C1284 0.930 . S
H1291 C1288 0.930 . S
O1292 Li1232 1.956 . S
O1292 Li1233 1.970 . S
O1292 Li1234 1.961 . S
O1292 C1236 1.325 . S
O1293 Li1232 1.970 . S
O1293 Li1233 1.956 . S
O1293 Li1235 1.961 . S
O1293 C1242 1.325 . S
O1294 Li1232 1.961 . S
O1294 Li1234 1.956 . S
O1294 Li1235 1.970 . S
O1294 C1264 1.325 . S
O1295 Li1233 1.961 . S
O1295 Li1234 1.970 . S
O1295 Li1235 1.956 . S
O1295 C1270 1.325 . S
H1296 C1238 0.929 . S
H1297 C1239 0.930 . S
H1298 C1240 0.930 . S
H1299 C1241 0.930 . S
H1300 C1243 0.930 . S
H1301 C1245 0.929 . S
H1302 C1246 0.930 . S
H1303 C1247 0.930 . S
H1304 C1250 0.930 . S
H1305 C1253 0.929 . S
H1306 C1258 0.929 . S
H1307 C1259 0.930 . S
H1308 C1266 0.929 . S
H1309 C1267 0.930 . S
H1310 C1268 0.930 . S
H1311 C1269 0.930 . S
H1312 C1271 0.929 . S
H1313 C1272 0.930 . S
H1314 C1273 0.930 . S
H1315 C1274 0.930 . S
H1316 C1278 0.929 . S
H1317 C1280 0.930 . S
H1318 C1286 0.929 . S
H1319 C1287 0.930 . S
Li1320 N1337 1.990 . S
Li1320 O1380 1.956 . S
Li1320 O1381 1.970 . S
Li1320 O1382 1.961 . S
Li1321 N1345 1.990 . S
Li1321 O1380 1.970 . S
Li1321 O1381 1.956 . S
Li1321 O1383 1.961 . S
Li1322 N1367 1.990 . S
Li1322 O1380 1.961 . S
Li1322 O1382 1.956 . S
Li1322 O1383 1.970 . S
Li1323 N1373 1.990 . S
Li1323 O1381 1.961 . S
Li1323 O1382 1.970 . S
Li1323 O1383 1.956 . S
C1324 C1326 1.348 . S
C1324 C1327 1.356 . S
C1324 O1380 1.325 . S
N1325 C1328 1.314 . S
N1325 C1329 1.279 . S
C1326 C1324 1.348 . S
C1326 C1328 1.353 . S
C1326 H1384 0.929 . S
C1327 C1324 1.356 . S
C1327 C1329 1.358 . S
C1327 H1385 0.930 . S
C1328 N1325 1.314 . S
C1328 C1326 1.353 . S
C1328 H1386 0.930 . S
C1329 N1325 1.279 . S
C1329 C1327 1.358 . S
C1329 H1387 0.930 . S
C1330 C1333 1.348 . S
C1330 C1334 1.356 . S
C1330 O1381 1.325 . S
C1331 N1332 1.279 . S
C1331 C1334 1.358 . S
C1331 H1388 0.930 . S
N1332 C1331 1.279 . S
N1332 C1335 1.314 . S
C1333 C1330 1.348 . S
C1333 C1335 1.353 . S
C1333 H1389 0.929 . S
C1334 C1330 1.356 . S
C1334 C1331 1.358 . S
C1334 H1390 0.930 . S
C1335 N1332 1.314 . S
C1335 C1333 1.353 . S
C1335 H1391 0.930 . S
C1336 N1337 1.314 . S
C1336 C1341 1.353 . S
C1336 H1342 0.930 . S
N1337 Li1320 1.990 . S
N1337 C1336 1.314 . S
N1337 C1339 1.279 . S
C1338 C1339 1.358 . S
C1338 C1340 1.356 . S
C1338 H1392 0.930 . S
C1339 N1337 1.279 . S
C1339 C1338 1.358 . S
C1339 H1343 0.930 . S
C1340 C1338 1.356 . S
C1340 C1341 1.348 . S
C1341 C1336 1.353 . S
C1341 C1340 1.348 . S
C1341 H1393 0.929 . S
H1342 C1336 0.930 . S
H1343 C1339 0.930 . S
C1344 N1345 1.314 . S
C1344 C1346 1.353 . S
C1344 H1350 0.930 . S
N1345 Li1321 1.990 . S
N1345 C1344 1.314 . S
N1345 C1348 1.279 . S
C1346 C1344 1.353 . S
C1346 C1349 1.348 . S
C1346 H1394 0.929 . S
C1347 C1348 1.358 . S
C1347 C1349 1.356 . S
C1347 H1395 0.930 . S
C1348 N1345 1.279 . S
C1348 C1347 1.358 . S
C1348 H1351 0.930 . S
C1349 C1346 1.348 . S
C1349 C1347 1.356 . S
H1350 C1344 0.930 . S
H1351 C1348 0.930 . S
C1352 C1354 1.348 . S
C1352 C1355 1.356 . S
C1352 O1382 1.325 . S
N1353 C1356 1.314 . S
N1353 C1357 1.279 . S
C1354 C1352 1.348 . S
C1354 C1356 1.353 . S
C1354 H1396 0.929 . S
C1355 C1352 1.356 . S
C1355 C1357 1.358 . S
C1355 H1397 0.930 . S
C1356 N1353 1.314 . S
C1356 C1354 1.353 . S
C1356 H1398 0.930 . S
C1357 N1353 1.279 . S
C1357 C1355 1.358 . S
C1357 H1399 0.930 . S
C1358 C1359 1.348 . S
C1358 C1360 1.356 . S
C1358 O1383 1.325 . S
C1359 C1358 1.348 . S
C1359 C1361 1.353 . S
C1359 H1400 0.929 . S
C1360 C1358 1.356 . S
C1360 C1362 1.358 . S
C1360 H1401 0.930 . S
C1361 C1359 1.353 . S
C1361 N1363 1.314 . S
C1361 H1402 0.930 . S
C1362 C1360 1.358 . S
C1362 N1363 1.279 . S
C1362 H1403 0.930 . S
N1363 C1361 1.314 . S
N1363 C1362 1.279 . S
C1364 C1366 1.353 . S
C1364 N1367 1.314 . S
C1364 H1370 0.930 . S
C1365 N1367 1.279 . S
C1365 C1368 1.358 . S
C1365 H1371 0.930 . S
C1366 C1364 1.353 . S
C1366 C1369 1.348 . S
C1366 H1404 0.929 . S
N1367 Li1322 1.990 . S
N1367 C1364 1.314 . S
N1367 C1365 1.279 . S
C1368 C1365 1.358 . S
C1368 C1369 1.356 . S
C1368 H1405 0.930 . S
C1369 C1366 1.348 . S
C1369 C1368 1.356 . S
H1370 C1364 0.930 . S
H1371 C1365 0.930 . S
C1372 N1373 1.314 . S
C1372 C1374 1.353 . S
C1372 H1378 0.930 . S
N1373 Li1323 1.990 . S
N1373 C1372 1.314 . S
N1373 C1376 1.279 . S
C1374 C1372 1.353 . S
C1374 C1377 1.348 . S
C1374 H1406 0.929 . S
C1375 C1376 1.358 . S
C1375 C1377 1.356 . S
C1375 H1407 0.930 . S
C1376 N1373 1.279 . S
C1376 C1375 1.358 . S
C1376 H1379 0.930 . S
C1377 C1374 1.348 . S
C1377 C1375 1.356 . S
H1378 C1372 0.930 . S
H1379 C1376 0.930 . S
O1380 Li1320 1.956 . S
O1380 Li1321 1.970 . S
O1380 Li1322 1.961 . S
O1380 C1324 1.325 . S
O1381 Li1320 1.970 . S
O1381 Li1321 1.956 . S
O1381 Li1323 1.961 . S
O1381 C1330 1.325 . S
O1382 Li1320 1.961 . S
O1382 Li1322 1.956 . S
O1382 Li1323 1.970 . S
O1382 C1352 1.325 . S
O1383 Li1321 1.961 . S
O1383 Li1322 1.970 . S
O1383 Li1323 1.956 . S
O1383 C1358 1.325 . S
H1384 C1326 0.929 . S
H1385 C1327 0.930 . S
H1386 C1328 0.930 . S
H1387 C1329 0.930 . S
H1388 C1331 0.930 . S
H1389 C1333 0.929 . S
H1390 C1334 0.930 . S
H1391 C1335 0.930 . S
H1392 C1338 0.930 . S
H1393 C1341 0.929 . S
H1394 C1346 0.929 . S
H1395 C1347 0.930 . S
H1396 C1354 0.929 . S
H1397 C1355 0.930 . S
H1398 C1356 0.930 . S
H1399 C1357 0.930 . S
H1400 C1359 0.929 . S
H1401 C1360 0.930 . S
H1402 C1361 0.930 . S
H1403 C1362 0.930 . S
H1404 C1366 0.929 . S
H1405 C1368 0.930 . S
H1406 C1374 0.929 . S
H1407 C1375 0.930 . S
Li1408 N1425 1.990 . S
Li1408 O1468 1.956 . S
Li1408 O1469 1.970 . S
Li1408 O1470 1.961 . S
Li1409 N1433 1.992 1_545 S
Li1409 O1468 1.970 . S
Li1409 O1469 1.956 . S
Li1409 O1471 1.961 . S
Li1410 N1455 1.990 . S
Li1410 O1468 1.961 . S
Li1410 O1470 1.956 . S
Li1410 O1471 1.970 . S
Li1411 N1461 1.990 . S
Li1411 O1469 1.961 . S
Li1411 O1470 1.970 . S
Li1411 O1471 1.956 . S
C1412 C1414 1.348 1_545 S
C1412 C1415 1.356 . S
C1412 O1468 1.325 . S
N1413 C1416 1.314 . S
N1413 C1417 1.320 . S
C1414 C1412 1.348 1_565 S
C1414 C1416 1.353 . S
C1414 H1472 0.929 . S
C1415 C1412 1.356 . S
C1415 C1417 1.320 1_545 S
C1415 H1473 0.930 . S
C1416 N1413 1.314 . S
C1416 C1414 1.353 . S
C1416 H1474 0.930 . S
C1417 N1413 1.320 . S
C1417 C1415 1.320 1_565 S
C1417 H1475 0.929 1_565 S
C1418 C1421 1.348 . S
C1418 C1422 1.356 . S
C1418 O1469 1.325 . S
C1419 N1420 1.279 . S
C1419 C1422 1.358 . S
C1419 H1476 0.930 . S
N1420 C1419 1.279 . S
N1420 C1423 1.314 . S
C1421 C1418 1.348 . S
C1421 C1423 1.353 . S
C1421 H1477 0.929 . S
C1422 C1418 1.356 . S
C1422 C1419 1.358 . S
C1422 H1478 0.930 . S
C1423 N1420 1.314 . S
C1423 C1421 1.353 . S
C1423 H1479 0.930 . S
C1424 N1425 1.314 . S
C1424 C1429 1.353 . S
C1424 H1430 0.930 . S
N1425 Li1408 1.990 . S
N1425 C1424 1.314 . S
N1425 C1427 1.279 . S
C1426 C1427 1.358 . S
C1426 C1428 1.356 . S
C1426 H1480 0.930 . S
C1427 N1425 1.279 . S
C1427 C1426 1.358 . S
C1427 H1431 0.930 . S
C1428 C1426 1.356 . S
C1428 C1429 1.348 . S
C1429 C1424 1.353 . S
C1429 C1428 1.348 . S
C1429 H1481 0.929 . S
H1430 C1424 0.930 . S
H1431 C1427 0.930 . S
C1432 N1433 1.313 . S
C1432 C1434 1.353 . S
C1432 H1438 0.930 . S
N1433 Li1409 1.992 1_565 S
N1433 C1432 1.313 . S
N1433 C1436 1.278 . S
C1434 C1432 1.353 . S
C1434 C1437 1.348 . S
C1434 H1482 0.929 . S
C1435 C1436 1.358 . S
C1435 C1437 1.356 . S
C1435 H1483 0.930 . S
C1436 N1433 1.278 . S
C1436 C1435 1.358 . S
C1436 H1439 0.930 1_565 S
C1437 C1434 1.348 . S
C1437 C1435 1.356 . S
H1438 C1432 0.930 . S
H1439 C1436 0.930 1_545 S
C1440 C1442 1.348 . S
C1440 C1443 1.356 . S
C1440 O1470 1.325 . S
N1441 C1444 1.314 . S
N1441 C1445 1.279 . S
C1442 C1440 1.348 . S
C1442 C1444 1.353 . S
C1442 H1484 0.929 . S
C1443 C1440 1.356 . S
C1443 C1445 1.358 . S
C1443 H1485 0.930 . S
C1444 N1441 1.314 . S
C1444 C1442 1.353 . S
C1444 H1486 0.930 . S
C1445 N1441 1.279 . S
C1445 C1443 1.358 . S
C1445 H1487 0.930 . S
C1446 C1447 1.348 . S
C1446 C1448 1.356 . S
C1446 O1471 1.325 . S
C1447 C1446 1.348 . S
C1447 C1449 1.353 . S
C1447 H1488 0.929 . S
C1448 C1446 1.356 . S
C1448 C1450 1.358 . S
C1448 H1489 0.930 . S
C1449 C1447 1.353 . S
C1449 N1451 1.314 . S
C1449 H1490 0.930 . S
C1450 C1448 1.358 . S
C1450 N1451 1.279 . S
C1450 H1491 0.930 . S
N1451 C1449 1.314 . S
N1451 C1450 1.279 . S
C1452 C1454 1.353 . S
C1452 N1455 1.314 . S
C1452 H1458 0.930 . S
C1453 N1455 1.279 . S
C1453 C1456 1.358 . S
C1453 H1459 0.930 . S
C1454 C1452 1.353 . S
C1454 C1457 1.348 . S
C1454 H1492 0.929 . S
N1455 Li1410 1.990 . S
N1455 C1452 1.314 . S
N1455 C1453 1.279 . S
C1456 C1453 1.358 . S
C1456 C1457 1.356 . S
C1456 H1493 0.930 . S
C1457 C1454 1.348 . S
C1457 C1456 1.356 . S
H1458 C1452 0.930 . S
H1459 C1453 0.930 . S
C1460 N1461 1.314 . S
C1460 C1462 1.353 . S
C1460 H1466 0.930 . S
N1461 Li1411 1.990 . S
N1461 C1460 1.314 . S
N1461 C1464 1.279 . S
C1462 C1460 1.353 . S
C1462 C1465 1.348 . S
C1462 H1494 0.929 . S
C1463 C1464 1.358 . S
C1463 C1465 1.356 . S
C1463 H1495 0.930 . S
C1464 N1461 1.279 . S
C1464 C1463 1.358 . S
C1464 H1467 0.930 . S
C1465 C1462 1.348 . S
C1465 C1463 1.356 . S
H1466 C1460 0.930 . S
H1467 C1464 0.930 . S
O1468 Li1408 1.956 . S
O1468 Li1409 1.970 . S
O1468 Li1410 1.961 . S
O1468 C1412 1.325 . S
O1469 Li1408 1.970 . S
O1469 Li1409 1.956 . S
O1469 Li1411 1.961 . S
O1469 C1418 1.325 . S
O1470 Li1408 1.961 . S
O1470 Li1410 1.956 . S
O1470 Li1411 1.970 . S
O1470 C1440 1.325 . S
O1471 Li1409 1.961 . S
O1471 Li1410 1.970 . S
O1471 Li1411 1.956 . S
O1471 C1446 1.325 . S
H1472 C1414 0.929 . S
H1473 C1415 0.930 . S
H1474 C1416 0.930 . S
H1475 C1417 0.929 1_545 S
H1476 C1419 0.930 . S
H1477 C1421 0.929 . S
H1478 C1422 0.930 . S
H1479 C1423 0.930 . S
H1480 C1426 0.930 . S
H1481 C1429 0.929 . S
H1482 C1434 0.929 . S
H1483 C1435 0.930 . S
H1484 C1442 0.929 . S
H1485 C1443 0.930 . S
H1486 C1444 0.930 . S
H1487 C1445 0.930 . S
H1488 C1447 0.929 . S
H1489 C1448 0.930 . S
H1490 C1449 0.930 . S
H1491 C1450 0.930 . S
H1492 C1454 0.929 . S
H1493 C1456 0.930 . S
H1494 C1462 0.929 . S
H1495 C1463 0.930 . S
Li1496 N1513 1.990 . S
Li1496 O1556 1.956 . S
Li1496 O1557 1.970 . S
Li1496 O1558 1.961 . S
Li1497 N1521 1.990 . S
Li1497 O1556 1.970 . S
Li1497 O1557 1.956 . S
Li1497 O1559 1.961 . S
Li1498 N1543 1.990 . S
Li1498 O1556 1.961 . S
Li1498 O1558 1.956 . S
Li1498 O1559 1.970 . S
Li1499 N1549 1.990 . S
Li1499 O1557 1.961 . S
Li1499 O1558 1.970 . S
Li1499 O1559 1.956 . S
C1500 C1502 1.348 . S
C1500 C1503 1.356 . S
C1500 O1556 1.325 . S
N1501 C1504 1.314 . S
N1501 C1505 1.279 . S
C1502 C1500 1.348 . S
C1502 C1504 1.353 . S
C1502 H1560 0.929 . S
C1503 C1500 1.356 . S
C1503 C1505 1.358 . S
C1503 H1561 0.930 . S
C1504 N1501 1.314 . S
C1504 C1502 1.353 . S
C1504 H1562 0.930 . S
C1505 N1501 1.279 . S
C1505 C1503 1.358 . S
C1505 H1563 0.930 . S
C1506 C1509 1.348 . S
C1506 C1510 1.356 . S
C1506 O1557 1.325 . S
C1507 N1508 1.279 . S
C1507 C1510 1.358 . S
C1507 H1564 0.930 . S
N1508 C1507 1.279 . S
N1508 C1511 1.314 . S
C1509 C1506 1.348 . S
C1509 C1511 1.353 . S
C1509 H1565 0.929 . S
C1510 C1506 1.356 . S
C1510 C1507 1.358 . S
C1510 H1566 0.930 . S
C1511 N1508 1.314 . S
C1511 C1509 1.353 . S
C1511 H1567 0.930 . S
C1512 N1513 1.314 . S
C1512 C1517 1.353 . S
C1512 H1518 0.930 . S
N1513 Li1496 1.990 . S
N1513 C1512 1.314 . S
N1513 C1515 1.279 . S
C1514 C1515 1.358 . S
C1514 C1516 1.356 . S
C1514 H1568 0.930 . S
C1515 N1513 1.279 . S
C1515 C1514 1.358 . S
C1515 H1519 0.930 . S
C1516 C1514 1.356 . S
C1516 C1517 1.348 . S
C1517 C1512 1.353 . S
C1517 C1516 1.348 . S
C1517 H1569 0.929 . S
H1518 C1512 0.930 . S
H1519 C1515 0.930 . S
C1520 N1521 1.314 . S
C1520 C1522 1.353 . S
C1520 H1526 0.930 . S
N1521 Li1497 1.990 . S
N1521 C1520 1.314 . S
N1521 C1524 1.279 . S
C1522 C1520 1.353 . S
C1522 C1525 1.348 . S
C1522 H1570 0.929 . S
C1523 C1524 1.358 . S
C1523 C1525 1.356 . S
C1523 H1571 0.930 . S
C1524 N1521 1.279 . S
C1524 C1523 1.358 . S
C1524 H1527 0.930 . S
C1525 C1522 1.348 . S
C1525 C1523 1.356 . S
H1526 C1520 0.930 . S
H1527 C1524 0.930 . S
C1528 C1530 1.348 . S
C1528 C1531 1.356 . S
C1528 O1558 1.325 . S
N1529 C1532 1.314 . S
N1529 C1533 1.279 . S
C1530 C1528 1.348 . S
C1530 C1532 1.353 . S
C1530 H1572 0.929 . S
C1531 C1528 1.356 . S
C1531 C1533 1.358 . S
C1531 H1573 0.930 . S
C1532 N1529 1.314 . S
C1532 C1530 1.353 . S
C1532 H1574 0.930 . S
C1533 N1529 1.279 . S
C1533 C1531 1.358 . S
C1533 H1575 0.930 . S
C1534 C1535 1.348 . S
C1534 C1536 1.356 . S
C1534 O1559 1.325 . S
C1535 C1534 1.348 . S
C1535 C1537 1.353 . S
C1535 H1576 0.929 . S
C1536 C1534 1.356 . S
C1536 C1538 1.358 . S
C1536 H1577 0.930 . S
C1537 C1535 1.353 . S
C1537 N1539 1.314 . S
C1537 H1578 0.930 . S
C1538 C1536 1.358 . S
C1538 N1539 1.279 . S
C1538 H1579 0.930 . S
N1539 C1537 1.314 . S
N1539 C1538 1.279 . S
C1540 C1542 1.353 . S
C1540 N1543 1.314 . S
C1540 H1546 0.930 . S
C1541 N1543 1.279 . S
C1541 C1544 1.358 . S
C1541 H1547 0.930 . S
C1542 C1540 1.353 . S
C1542 C1545 1.348 . S
C1542 H1580 0.929 . S
N1543 Li1498 1.990 . S
N1543 C1540 1.314 . S
N1543 C1541 1.279 . S
C1544 C1541 1.358 . S
C1544 C1545 1.356 . S
C1544 H1581 0.930 . S
C1545 C1542 1.348 . S
C1545 C1544 1.356 . S
H1546 C1540 0.930 . S
H1547 C1541 0.930 . S
C1548 N1549 1.314 . S
C1548 C1550 1.353 . S
C1548 H1554 0.930 . S
N1549 Li1499 1.990 . S
N1549 C1548 1.314 . S
N1549 C1552 1.279 . S
C1550 C1548 1.353 . S
C1550 C1553 1.348 . S
C1550 H1582 0.929 . S
C1551 C1552 1.358 . S
C1551 C1553 1.356 . S
C1551 H1583 0.930 . S
C1552 N1549 1.279 . S
C1552 C1551 1.358 . S
C1552 H1555 0.930 . S
C1553 C1550 1.348 . S
C1553 C1551 1.356 . S
H1554 C1548 0.930 . S
H1555 C1552 0.930 . S
O1556 Li1496 1.956 . S
O1556 Li1497 1.970 . S
O1556 Li1498 1.961 . S
O1556 C1500 1.325 . S
O1557 Li1496 1.970 . S
O1557 Li1497 1.956 . S
O1557 Li1499 1.961 . S
O1557 C1506 1.325 . S
O1558 Li1496 1.961 . S
O1558 Li1498 1.956 . S
O1558 Li1499 1.970 . S
O1558 C1528 1.325 . S
O1559 Li1497 1.961 . S
O1559 Li1498 1.970 . S
O1559 Li1499 1.956 . S
O1559 C1534 1.325 . S
H1560 C1502 0.929 . S
H1561 C1503 0.930 . S
H1562 C1504 0.930 . S
H1563 C1505 0.930 . S
H1564 C1507 0.930 . S
H1565 C1509 0.929 . S
H1566 C1510 0.930 . S
H1567 C1511 0.930 . S
H1568 C1514 0.930 . S
H1569 C1517 0.929 . S
H1570 C1522 0.929 . S
H1571 C1523 0.930 . S
H1572 C1530 0.929 . S
H1573 C1531 0.930 . S
H1574 C1532 0.930 . S
H1575 C1533 0.930 . S
H1576 C1535 0.929 . S
H1577 C1536 0.930 . S
H1578 C1537 0.930 . S
H1579 C1538 0.930 . S
H1580 C1542 0.929 . S
H1581 C1544 0.930 . S
H1582 C1550 0.929 . S
H1583 C1551 0.930 . S
Li1584 N1601 1.990 . S
Li1584 O1644 1.956 . S
Li1584 O1645 1.970 . S
Li1584 O1646 1.961 . S
Li1585 N1609 1.990 . S
Li1585 O1644 1.970 . S
Li1585 O1645 1.956 . S
Li1585 O1647 1.961 . S
Li1586 N1631 1.990 . S
Li1586 O1644 1.961 . S
Li1586 O1646 1.956 . S
Li1586 O1647 1.970 . S
Li1587 N1637 1.990 . S
Li1587 O1645 1.961 . S
Li1587 O1646 1.970 . S
Li1587 O1647 1.956 . S
C1588 C1590 1.348 . S
C1588 C1591 1.356 . S
C1588 O1644 1.325 . S
N1589 C1592 1.314 . S
N1589 C1593 1.279 . S
C1590 C1588 1.348 . S
C1590 C1592 1.353 . S
C1590 H1648 0.929 . S
C1591 C1588 1.356 . S
C1591 C1593 1.358 . S
C1591 H1649 0.930 . S
C1592 N1589 1.314 . S
C1592 C1590 1.353 . S
C1592 H1650 0.930 . S
C1593 N1589 1.279 . S
C1593 C1591 1.358 . S
C1593 H1651 0.930 . S
C1594 C1597 1.348 . S
C1594 C1598 1.356 . S
C1594 O1645 1.325 . S
C1595 N1596 1.279 . S
C1595 C1598 1.358 . S
C1595 H1652 0.930 . S
N1596 C1595 1.279 . S
N1596 C1599 1.314 . S
C1597 C1594 1.348 . S
C1597 C1599 1.353 . S
C1597 H1653 0.929 . S
C1598 C1594 1.356 . S
C1598 C1595 1.358 . S
C1598 H1654 0.930 . S
C1599 N1596 1.314 . S
C1599 C1597 1.353 . S
C1599 H1655 0.930 . S
C1600 N1601 1.314 . S
C1600 C1605 1.353 . S
C1600 H1606 0.930 . S
N1601 Li1584 1.990 . S
N1601 C1600 1.314 . S
N1601 C1603 1.279 . S
C1602 C1603 1.358 . S
C1602 C1604 1.356 . S
C1602 H1656 0.930 . S
C1603 N1601 1.279 . S
C1603 C1602 1.358 . S
C1603 H1607 0.930 . S
C1604 C1602 1.356 . S
C1604 C1605 1.348 . S
C1605 C1600 1.353 . S
C1605 C1604 1.348 . S
C1605 H1657 0.929 . S
H1606 C1600 0.930 . S
H1607 C1603 0.930 . S
C1608 N1609 1.314 . S
C1608 C1610 1.353 . S
C1608 H1614 0.930 . S
N1609 Li1585 1.990 . S
N1609 C1608 1.314 . S
N1609 C1612 1.279 . S
C1610 C1608 1.353 . S
C1610 C1613 1.348 . S
C1610 H1658 0.929 . S
C1611 C1612 1.358 . S
C1611 C1613 1.356 . S
C1611 H1659 0.930 . S
C1612 N1609 1.279 . S
C1612 C1611 1.358 . S
C1612 H1615 0.930 . S
C1613 C1610 1.348 . S
C1613 C1611 1.356 . S
H1614 C1608 0.930 . S
H1615 C1612 0.930 . S
C1616 C1618 1.348 . S
C1616 C1619 1.356 . S
C1616 O1646 1.325 . S
N1617 C1620 1.314 . S
N1617 C1621 1.279 . S
C1618 C1616 1.348 . S
C1618 C1620 1.353 . S
C1618 H1660 0.929 . S
C1619 C1616 1.356 . S
C1619 C1621 1.358 . S
C1619 H1661 0.930 . S
C1620 N1617 1.314 . S
C1620 C1618 1.353 . S
C1620 H1662 0.930 . S
C1621 N1617 1.279 . S
C1621 C1619 1.358 . S
C1621 H1663 0.930 . S
C1622 C1623 1.348 . S
C1622 C1624 1.356 . S
C1622 O1647 1.325 . S
C1623 C1622 1.348 . S
C1623 C1625 1.353 . S
C1623 H1664 0.929 . S
C1624 C1622 1.356 . S
C1624 C1626 1.358 . S
C1624 H1665 0.930 . S
C1625 C1623 1.353 . S
C1625 N1627 1.314 . S
C1625 H1666 0.930 . S
C1626 C1624 1.358 . S
C1626 N1627 1.279 . S
C1626 H1667 0.930 . S
N1627 C1625 1.314 . S
N1627 C1626 1.279 . S
C1628 C1630 1.353 . S
C1628 N1631 1.314 . S
C1628 H1634 0.930 . S
C1629 N1631 1.279 . S
C1629 C1632 1.358 . S
C1629 H1635 0.930 . S
C1630 C1628 1.353 . S
C1630 C1633 1.348 . S
C1630 H1668 0.929 . S
N1631 Li1586 1.990 . S
N1631 C1628 1.314 . S
N1631 C1629 1.279 . S
C1632 C1629 1.358 . S
C1632 C1633 1.356 . S
C1632 H1669 0.930 . S
C1633 C1630 1.348 . S
C1633 C1632 1.356 . S
H1634 C1628 0.930 . S
H1635 C1629 0.930 . S
C1636 N1637 1.314 . S
C1636 C1638 1.353 . S
C1636 H1642 0.930 . S
N1637 Li1587 1.990 . S
N1637 C1636 1.314 . S
N1637 C1640 1.279 . S
C1638 C1636 1.353 . S
C1638 C1641 1.348 . S
C1638 H1670 0.929 . S
C1639 C1640 1.358 . S
C1639 C1641 1.356 . S
C1639 H1671 0.930 . S
C1640 N1637 1.279 . S
C1640 C1639 1.358 . S
C1640 H1643 0.930 . S
C1641 C1638 1.348 . S
C1641 C1639 1.356 . S
H1642 C1636 0.930 . S
H1643 C1640 0.930 . S
O1644 Li1584 1.956 . S
O1644 Li1585 1.970 . S
O1644 Li1586 1.961 . S
O1644 C1588 1.325 . S
O1645 Li1584 1.970 . S
O1645 Li1585 1.956 . S
O1645 Li1587 1.961 . S
O1645 C1594 1.325 . S
O1646 Li1584 1.961 . S
O1646 Li1586 1.956 . S
O1646 Li1587 1.970 . S
O1646 C1616 1.325 . S
O1647 Li1585 1.961 . S
O1647 Li1586 1.970 . S
O1647 Li1587 1.956 . S
O1647 C1622 1.325 . S
H1648 C1590 0.929 . S
H1649 C1591 0.930 . S
H1650 C1592 0.930 . S
H1651 C1593 0.930 . S
H1652 C1595 0.930 . S
H1653 C1597 0.929 . S
H1654 C1598 0.930 . S
H1655 C1599 0.930 . S
H1656 C1602 0.930 . S
H1657 C1605 0.929 . S
H1658 C1610 0.929 . S
H1659 C1611 0.930 . S
H1660 C1618 0.929 . S
H1661 C1619 0.930 . S
H1662 C1620 0.930 . S
H1663 C1621 0.930 . S
H1664 C1623 0.929 . S
H1665 C1624 0.930 . S
H1666 C1625 0.930 . S
H1667 C1626 0.930 . S
H1668 C1630 0.929 . S
H1669 C1632 0.930 . S
H1670 C1638 0.929 . S
H1671 C1639 0.930 . S
Li1672 N1689 1.990 . S
Li1672 O1732 1.956 . S
Li1672 O1733 1.970 . S
Li1672 O1734 1.961 1_545 S
Li1673 N1697 1.990 . S
Li1673 O1732 1.970 . S
Li1673 O1733 1.956 . S
Li1673 O1735 1.961 . S
Li1674 N1719 1.990 . S
Li1674 O1732 1.961 . S
Li1674 O1734 1.956 1_545 S
Li1674 O1735 1.970 . S
Li1675 N1725 1.990 . S
Li1675 O1733 1.961 1_565 S
Li1675 O1734 1.970 . S
Li1675 O1735 1.956 1_565 S
C1676 C1678 1.348 . S
C1676 C1679 1.356 . S
C1676 O1732 1.325 . S
N1677 C1680 1.314 . S
N1677 C1681 1.279 . S
C1678 C1676 1.348 . S
C1678 C1680 1.353 . S
C1678 H1736 0.929 . S
C1679 C1676 1.356 . S
C1679 C1681 1.358 . S
C1679 H1737 0.930 . S
C1680 N1677 1.314 . S
C1680 C1678 1.353 . S
C1680 H1738 0.930 . S
C1681 N1677 1.279 . S
C1681 C1679 1.358 . S
C1681 H1739 0.930 . S
C1682 C1685 1.348 . S
C1682 C1686 1.356 . S
C1682 O1733 1.325 . S
C1683 N1684 1.279 . S
C1683 C1686 1.358 . S
C1683 H1740 0.930 . S
N1684 C1683 1.279 . S
N1684 C1687 1.314 . S
C1685 C1682 1.348 . S
C1685 C1687 1.353 . S
C1685 H1741 0.929 . S
C1686 C1682 1.356 . S
C1686 C1683 1.358 . S
C1686 H1742 0.930 . S
C1687 N1684 1.314 . S
C1687 C1685 1.353 . S
C1687 H1743 0.930 . S
C1688 N1689 1.314 1_565 S
C1688 C1693 1.353 . S
C1688 H1694 0.930 . S
N1689 Li1672 1.990 . S
N1689 C1688 1.314 1_545 S
N1689 C1691 1.279 . S
C1690 C1691 1.358 . S
C1690 C1692 1.356 . S
C1690 H1744 0.930 . S
C1691 N1689 1.279 . S
C1691 C1690 1.358 . S
C1691 H1695 0.930 . S
C1692 C1690 1.356 . S
C1692 C1693 1.348 1_545 S
C1693 C1688 1.353 . S
C1693 C1692 1.348 1_565 S
C1693 H1745 0.929 . S
H1694 C1688 0.930 . S
H1695 C1691 0.930 . S
C1696 N1697 1.314 . S
C1696 C1698 1.353 . S
C1696 H1702 0.930 . S
N1697 Li1673 1.990 . S
N1697 C1696 1.314 . S
N1697 C1700 1.279 . S
C1698 C1696 1.353 . S
C1698 C1701 1.348 . S
C1698 H1746 0.929 . S
C1699 C1700 1.358 . S
C1699 C1701 1.356 . S
C1699 H1747 0.930 . S
C1700 N1697 1.279 . S
C1700 C1699 1.358 . S
C1700 H1703 0.930 . S
C1701 C1698 1.348 . S
C1701 C1699 1.356 . S
H1702 C1696 0.930 . S
H1703 C1700 0.930 . S
C1704 C1706 1.348 . S
C1704 C1707 1.356 . S
C1704 O1734 1.325 . S
N1705 C1708 1.314 . S
N1705 C1709 1.279 . S
C1706 C1704 1.348 . S
C1706 C1708 1.353 . S
C1706 H1748 0.929 . S
C1707 C1704 1.356 . S
C1707 C1709 1.358 . S
C1707 H1749 0.930 . S
C1708 N1705 1.314 . S
C1708 C1706 1.353 . S
C1708 H1750 0.930 . S
C1709 N1705 1.279 . S
C1709 C1707 1.358 . S
C1709 H1751 0.930 . S
C1710 C1711 1.348 . S
C1710 C1712 1.356 . S
C1710 O1735 1.325 . S
C1711 C1710 1.348 . S
C1711 C1713 1.353 . S
C1711 H1752 0.929 1_545 S
C1712 C1710 1.356 . S
C1712 C1714 1.358 . S
C1712 H1753 0.930 . S
C1713 C1711 1.353 . S
C1713 N1715 1.314 . S
C1713 H1754 0.932 . S
C1714 C1712 1.358 . S
C1714 N1715 1.279 . S
C1714 H1755 0.930 . S
N1715 C1713 1.314 . S
N1715 C1714 1.279 . S
C1716 C1718 1.353 . S
C1716 N1719 1.314 . S
C1716 H1722 0.930 . S
C1717 N1719 1.279 1_565 S
C1717 C1720 1.358 . S
C1717 H1723 0.930 . S
C1718 C1716 1.353 . S
C1718 C1721 1.375 . S
C1718 H1756 0.929 . S
N1719 Li1674 1.990 . S
N1719 C1716 1.314 . S
N1719 C1717 1.279 1_545 S
C1720 C1717 1.358 . S
C1720 C1721 1.327 1_565 S
C1720 H1757 0.930 . S
C1721 C1718 1.375 . S
C1721 C1720 1.327 1_545 S
H1722 C1716 0.930 . S
H1723 C1717 0.930 . S
C1724 N1725 1.314 . S
C1724 C1726 1.353 . S
C1724 H1730 0.930 . S
N1725 Li1675 1.990 . S
N1725 C1724 1.314 . S
N1725 C1728 1.279 . S
C1726 C1724 1.353 . S
C1726 C1729 1.348 . S
C1726 H1758 0.929 . S
C1727 C1728 1.358 . S
C1727 C1729 1.356 . S
C1727 H1759 0.930 . S
C1728 N1725 1.279 . S
C1728 C1727 1.358 . S
C1728 H1731 0.930 . S
C1729 C1726 1.348 . S
C1729 C1727 1.356 . S
H1730 C1724 0.930 . S
H1731 C1728 0.930 . S
O1732 Li1672 1.956 . S
O1732 Li1673 1.970 . S
O1732 Li1674 1.961 . S
O1732 C1676 1.325 . S
O1733 Li1672 1.970 . S
O1733 Li1673 1.956 . S
O1733 Li1675 1.961 1_545 S
O1733 C1682 1.325 . S
O1734 Li1672 1.961 1_565 S
O1734 Li1674 1.956 1_565 S
O1734 Li1675 1.970 . S
O1734 C1704 1.325 . S
O1735 Li1673 1.961 . S
O1735 Li1674 1.970 . S
O1735 Li1675 1.956 1_545 S
O1735 C1710 1.325 . S
H1736 C1678 0.929 . S
H1737 C1679 0.930 . S
H1738 C1680 0.930 . S
H1739 C1681 0.930 . S
H1740 C1683 0.930 . S
H1741 C1685 0.929 . S
H1742 C1686 0.930 . S
H1743 C1687 0.930 . S
H1744 C1690 0.930 . S
H1745 C1693 0.929 . S
H1746 C1698 0.929 . S
H1747 C1699 0.930 . S
H1748 C1706 0.929 . S
H1749 C1707 0.930 . S
H1750 C1708 0.930 . S
H1751 C1709 0.930 . S
H1752 C1711 0.929 1_565 S
H1753 C1712 0.930 . S
H1754 C1713 0.932 . S
H1755 C1714 0.930 . S
H1756 C1718 0.929 . S
H1757 C1720 0.930 . S
H1758 C1726 0.929 . S
H1759 C1727 0.930 . S
Li1760 N1777 1.990 . S
Li1760 O1820 1.956 . S
Li1760 O1821 1.970 . S
Li1760 O1822 1.961 . S
Li1761 N1785 1.990 . S
Li1761 O1820 1.970 . S
Li1761 O1821 1.956 . S
Li1761 O1823 1.961 1_554 S
Li1762 N1807 1.990 . S
Li1762 O1820 1.961 1_556 S
Li1762 O1822 1.956 1_556 S
Li1762 O1823 1.970 . S
Li1763 N1813 1.990 . S
Li1763 O1821 1.961 1_556 S
Li1763 O1822 1.970 1_556 S
Li1763 O1823 1.956 . S
C1764 C1766 1.348 . S
C1764 C1767 1.356 . S
C1764 O1820 1.325 . S
N1765 C1768 1.314 . S
N1765 C1769 1.279 . S
C1766 C1764 1.348 . S
C1766 C1768 1.353 . S
C1766 H1824 0.929 . S
C1767 C1764 1.356 . S
C1767 C1769 1.358 . S
C1767 H1825 0.930 1_554 S
C1768 N1765 1.314 . S
C1768 C1766 1.353 . S
C1768 H1826 0.930 . S
C1769 N1765 1.279 . S
C1769 C1767 1.358 . S
C1769 H1827 0.930 . S
C1770 C1773 1.348 . S
C1770 C1774 1.356 . S
C1770 O1821 1.325 . S
C1771 N1772 1.279 . S
C1771 C1774 1.358 . S
C1771 H1828 0.930 . S
N1772 C1771 1.279 . S
N1772 C1775 1.314 . S
C1773 C1770 1.348 . S
C1773 C1775 1.353 . S
C1773 H1829 0.929 . S
C1774 C1770 1.356 . S
C1774 C1771 1.358 . S
C1774 H1830 0.930 . S
C1775 N1772 1.314 . S
C1775 C1773 1.353 . S
C1775 H1831 0.930 . S
C1776 N1777 1.314 . S
C1776 C1781 1.353 . S
C1776 H1782 0.930 . S
N1777 Li1760 1.990 . S
N1777 C1776 1.314 . S
N1777 C1779 1.279 . S
C1778 C1779 1.358 . S
C1778 C1780 1.356 . S
C1778 H1832 0.930 . S
C1779 N1777 1.279 . S
C1779 C1778 1.358 . S
C1779 H1783 0.930 . S
C1780 C1778 1.356 . S
C1780 C1781 1.348 . S
C1781 C1776 1.353 . S
C1781 C1780 1.348 . S
C1781 H1833 0.929 . S
H1782 C1776 0.930 . S
H1783 C1779 0.930 . S
C1784 N1785 1.314 1_556 S
C1784 C1786 1.353 . S
C1784 H1790 0.930 . S
N1785 Li1761 1.990 . S
N1785 C1784 1.314 1_554 S
N1785 C1788 1.279 . S
C1786 C1784 1.353 . S
C1786 C1789 1.348 1_556 S
C1786 H1834 0.929 . S
C1787 C1788 1.358 . S
C1787 C1789 1.356 . S
C1787 H1835 0.930 . S
C1788 N1785 1.279 . S
C1788 C1787 1.358 . S
C1788 H1791 0.930 . S
C1789 C1786 1.348 1_554 S
C1789 C1787 1.356 . S
H1790 C1784 0.930 . S
H1791 C1788 0.930 . S
C1792 C1794 1.337 1_554 S
C1792 C1795 1.364 . S
C1792 O1822 1.326 . S
N1793 C1796 1.314 . S
N1793 C1797 1.279 1_556 S
C1794 C1792 1.337 1_556 S
C1794 C1796 1.353 . S
C1794 H1836 0.929 . S
C1795 C1792 1.364 . S
C1795 C1797 1.358 . S
C1795 H1837 0.930 . S
C1796 N1793 1.314 . S
C1796 C1794 1.353 . S
C1796 H1838 0.930 . S
C1797 N1793 1.279 1_554 S
C1797 C1795 1.358 . S
C1797 H1839 0.930 . S
C1798 C1799 1.348 . S
C1798 C1800 1.356 . S
C1798 O1823 1.325 . S
C1799 C1798 1.348 . S
C1799 C1801 1.353 . S
C1799 H1840 0.929 . S
C1800 C1798 1.356 . S
C1800 C1802 1.358 . S
C1800 H1841 0.930 . S
C1801 C1799 1.353 . S
C1801 N1803 1.314 . S
C1801 H1842 0.930 . S
C1802 C1800 1.358 . S
C1802 N1803 1.279 . S
C1802 H1843 0.930 . S
N1803 C1801 1.314 . S
N1803 C1802 1.279 . S
C1804 C1806 1.353 . S
C1804 N1807 1.314 . S
C1804 H1810 0.930 . S
C1805 N1807 1.279 . S
C1805 C1808 1.358 . S
C1805 H1811 0.930 . S
C1806 C1804 1.353 . S
C1806 C1809 1.348 . S
C1806 H1844 0.929 . S
N1807 Li1762 1.990 . S
N1807 C1804 1.314 . S
N1807 C1805 1.279 . S
C1808 C1805 1.358 . S
C1808 C1809 1.356 . S
C1808 H1845 0.930 . S
C1809 C1806 1.348 . S
C1809 C1808 1.356 . S
H1810 C1804 0.930 . S
H1811 C1805 0.930 . S
C1812 N1813 1.314 1_554 S
C1812 C1814 1.353 . S
C1812 H1818 0.930 . S
N1813 Li1763 1.990 . S
N1813 C1812 1.314 1_556 S
N1813 C1816 1.279 . S
C1814 C1812 1.353 . S
C1814 C1817 1.348 1_554 S
C1814 H1846 0.929 . S
C1815 C1816 1.358 . S
C1815 C1817 1.356 . S
C1815 H1847 0.930 . S
C1816 N1813 1.279 . S
C1816 C1815 1.358 . S
C1816 H1819 0.930 . S
C1817 C1814 1.348 1_556 S
C1817 C1815 1.356 . S
H1818 C1812 0.930 . S
H1819 C1816 0.930 . S
O1820 Li1760 1.956 . S
O1820 Li1761 1.970 . S
O1820 Li1762 1.961 1_554 S
O1820 C1764 1.325 . S
O1821 Li1760 1.970 . S
O1821 Li1761 1.956 . S
O1821 Li1763 1.961 1_554 S
O1821 C1770 1.325 . S
O1822 Li1760 1.961 . S
O1822 Li1762 1.956 1_554 S
O1822 Li1763 1.970 1_554 S
O1822 C1792 1.326 . S
O1823 Li1761 1.961 1_556 S
O1823 Li1762 1.970 . S
O1823 Li1763 1.956 . S
O1823 C1798 1.325 . S
H1824 C1766 0.929 . S
H1825 C1767 0.930 1_556 S
H1826 C1768 0.930 . S
H1827 C1769 0.930 . S
H1828 C1771 0.930 . S
H1829 C1773 0.929 . S
H1830 C1774 0.930 . S
H1831 C1775 0.930 . S
H1832 C1778 0.930 . S
H1833 C1781 0.929 . S
H1834 C1786 0.929 . S
H1835 C1787 0.930 . S
H1836 C1794 0.929 . S
H1837 C1795 0.930 . S
H1838 C1796 0.930 . S
H1839 C1797 0.930 . S
H1840 C1799 0.929 . S
H1841 C1800 0.930 . S
H1842 C1801 0.930 . S
H1843 C1802 0.930 . S
H1844 C1806 0.929 . S
H1845 C1808 0.930 . S
H1846 C1814 0.929 . S
H1847 C1815 0.930 . S
Li1848 N1865 1.990 . S
Li1848 O1908 1.956 . S
Li1848 O1909 1.970 . S
Li1848 O1910 1.961 . S
Li1849 N1873 1.990 . S
Li1849 O1908 1.970 . S
Li1849 O1909 1.956 . S
Li1849 O1911 1.961 . S
Li1850 N1895 1.990 . S
Li1850 O1908 1.961 . S
Li1850 O1910 1.956 . S
Li1850 O1911 1.970 . S
Li1851 N1901 1.990 . S
Li1851 O1909 1.961 . S
Li1851 O1910 1.970 . S
Li1851 O1911 1.956 . S
C1852 C1854 1.348 . S
C1852 C1855 1.356 . S
C1852 O1908 1.325 . S
N1853 C1856 1.314 . S
N1853 C1857 1.279 . S
C1854 C1852 1.348 . S
C1854 C1856 1.353 . S
C1854 H1912 0.929 . S
C1855 C1852 1.356 . S
C1855 C1857 1.358 . S
C1855 H1913 0.930 . S
C1856 N1853 1.314 . S
C1856 C1854 1.353 . S
C1856 H1914 0.930 . S
C1857 N1853 1.279 . S
C1857 C1855 1.358 . S
C1857 H1915 0.930 . S
C1858 C1861 1.348 . S
C1858 C1862 1.356 . S
C1858 O1909 1.325 . S
C1859 N1860 1.279 . S
C1859 C1862 1.358 . S
C1859 H1916 0.930 . S
N1860 C1859 1.279 . S
N1860 C1863 1.314 . S
C1861 C1858 1.348 . S
C1861 C1863 1.353 . S
C1861 H1917 0.929 . S
C1862 C1858 1.356 . S
C1862 C1859 1.358 . S
C1862 H1918 0.930 . S
C1863 N1860 1.314 . S
C1863 C1861 1.353 . S
C1863 H1919 0.930 . S
C1864 N1865 1.314 . S
C1864 C1869 1.353 . S
C1864 H1870 0.930 . S
N1865 Li1848 1.990 . S
N1865 C1864 1.314 . S
N1865 C1867 1.279 . S
C1866 C1867 1.358 . S
C1866 C1868 1.356 . S
C1866 H1920 0.930 . S
C1867 N1865 1.279 . S
C1867 C1866 1.358 . S
C1867 H1871 0.930 . S
C1868 C1866 1.356 . S
C1868 C1869 1.348 . S
C1869 C1864 1.353 . S
C1869 C1868 1.348 . S
C1869 H1921 0.929 . S
H1870 C1864 0.930 . S
H1871 C1867 0.930 . S
C1872 N1873 1.314 . S
C1872 C1874 1.353 . S
C1872 H1878 0.930 . S
N1873 Li1849 1.990 . S
N1873 C1872 1.314 . S
N1873 C1876 1.279 . S
C1874 C1872 1.353 . S
C1874 C1877 1.348 . S
C1874 H1922 0.929 . S
C1875 C1876 1.358 . S
C1875 C1877 1.356 . S
C1875 H1923 0.930 . S
C1876 N1873 1.279 . S
C1876 C1875 1.358 . S
C1876 H1879 0.930 . S
C1877 C1874 1.348 . S
C1877 C1875 1.356 . S
H1878 C1872 0.930 . S
H1879 C1876 0.930 . S
C1880 C1882 1.348 . S
C1880 C1883 1.356 . S
C1880 O1910 1.325 . S
N1881 C1884 1.314 . S
N1881 C1885 1.279 . S
C1882 C1880 1.348 . S
C1882 C1884 1.353 . S
C1882 H1924 0.929 . S
C1883 C1880 1.356 . S
C1883 C1885 1.358 . S
C1883 H1925 0.930 . S
C1884 N1881 1.314 . S
C1884 C1882 1.353 . S
C1884 H1926 0.930 . S
C1885 N1881 1.279 . S
C1885 C1883 1.358 . S
C1885 H1927 0.930 . S
C1886 C1887 1.348 . S
C1886 C1888 1.356 . S
C1886 O1911 1.325 . S
C1887 C1886 1.348 . S
C1887 C1889 1.353 . S
C1887 H1928 0.929 . S
C1888 C1886 1.356 . S
C1888 C1890 1.358 . S
C1888 H1929 0.930 . S
C1889 C1887 1.353 . S
C1889 N1891 1.314 . S
C1889 H1930 0.930 . S
C1890 C1888 1.358 . S
C1890 N1891 1.279 . S
C1890 H1931 0.930 . S
N1891 C1889 1.314 . S
N1891 C1890 1.279 . S
C1892 C1894 1.353 . S
C1892 N1895 1.314 . S
C1892 H1898 0.930 . S
C1893 N1895 1.279 . S
C1893 C1896 1.358 . S
C1893 H1899 0.930 . S
C1894 C1892 1.353 . S
C1894 C1897 1.348 . S
C1894 H1932 0.929 . S
N1895 Li1850 1.990 . S
N1895 C1892 1.314 . S
N1895 C1893 1.279 . S
C1896 C1893 1.358 . S
C1896 C1897 1.356 . S
C1896 H1933 0.930 . S
C1897 C1894 1.348 . S
C1897 C1896 1.356 . S
H1898 C1892 0.930 . S
H1899 C1893 0.930 . S
C1900 N1901 1.314 . S
C1900 C1902 1.353 . S
C1900 H1906 0.930 . S
N1901 Li1851 1.990 . S
N1901 C1900 1.314 . S
N1901 C1904 1.279 . S
C1902 C1900 1.353 . S
C1902 C1905 1.348 . S
C1902 H1934 0.929 . S
C1903 C1904 1.358 . S
C1903 C1905 1.356 . S
C1903 H1935 0.930 . S
C1904 N1901 1.279 . S
C1904 C1903 1.358 . S
C1904 H1907 0.930 . S
C1905 C1902 1.348 . S
C1905 C1903 1.356 . S
H1906 C1900 0.930 . S
H1907 C1904 0.930 . S
O1908 Li1848 1.956 . S
O1908 Li1849 1.970 . S
O1908 Li1850 1.961 . S
O1908 C1852 1.325 . S
O1909 Li1848 1.970 . S
O1909 Li1849 1.956 . S
O1909 Li1851 1.961 . S
O1909 C1858 1.325 . S
O1910 Li1848 1.961 . S
O1910 Li1850 1.956 . S
O1910 Li1851 1.970 . S
O1910 C1880 1.325 . S
O1911 Li1849 1.961 . S
O1911 Li1850 1.970 . S
O1911 Li1851 1.956 . S
O1911 C1886 1.325 . S
H1912 C1854 0.929 . S
H1913 C1855 0.930 . S
H1914 C1856 0.930 . S
H1915 C1857 0.930 . S
H1916 C1859 0.930 . S
H1917 C1861 0.929 . S
H1918 C1862 0.930 . S
H1919 C1863 0.930 . S
H1920 C1866 0.930 . S
H1921 C1869 0.929 . S
H1922 C1874 0.929 . S
H1923 C1875 0.930 . S
H1924 C1882 0.929 . S
H1925 C1883 0.930 . S
H1926 C1884 0.930 . S
H1927 C1885 0.930 . S
H1928 C1887 0.929 . S
H1929 C1888 0.930 . S
H1930 C1889 0.930 . S
H1931 C1890 0.930 . S
H1932 C1894 0.929 . S
H1933 C1896 0.930 . S
H1934 C1902 0.929 . S
H1935 C1903 0.930 . S
Li1936 N1953 1.990 . S
Li1936 O1996 1.956 . S
Li1936 O1997 1.970 . S
Li1936 O1998 1.961 . S
Li1937 N1961 1.990 . S
Li1937 O1996 1.970 . S
Li1937 O1997 1.956 . S
Li1937 O1999 1.961 . S
Li1938 N1983 1.990 . S
Li1938 O1996 1.961 . S
Li1938 O1998 1.956 . S
Li1938 O1999 1.970 . S
Li1939 N1989 1.990 . S
Li1939 O1997 1.961 . S
Li1939 O1998 1.970 . S
Li1939 O1999 1.956 . S
C1940 C1942 1.348 . S
C1940 C1943 1.356 . S
C1940 O1996 1.325 . S
N1941 C1944 1.314 . S
N1941 C1945 1.279 . S
C1942 C1940 1.348 . S
C1942 C1944 1.353 . S
C1942 H2000 0.929 . S
C1943 C1940 1.356 . S
C1943 C1945 1.358 . S
C1943 H2001 0.930 . S
C1944 N1941 1.314 . S
C1944 C1942 1.353 . S
C1944 H2002 0.930 . S
C1945 N1941 1.279 . S
C1945 C1943 1.358 . S
C1945 H2003 0.930 . S
C1946 C1949 1.348 . S
C1946 C1950 1.356 . S
C1946 O1997 1.325 . S
C1947 N1948 1.279 . S
C1947 C1950 1.358 . S
C1947 H2004 0.930 . S
N1948 C1947 1.279 . S
N1948 C1951 1.314 . S
C1949 C1946 1.348 . S
C1949 C1951 1.353 . S
C1949 H2005 0.929 . S
C1950 C1946 1.356 . S
C1950 C1947 1.358 . S
C1950 H2006 0.930 . S
C1951 N1948 1.314 . S
C1951 C1949 1.353 . S
C1951 H2007 0.930 . S
C1952 N1953 1.314 . S
C1952 C1957 1.353 . S
C1952 H1958 0.930 . S
N1953 Li1936 1.990 . S
N1953 C1952 1.314 . S
N1953 C1955 1.279 . S
C1954 C1955 1.358 . S
C1954 C1956 1.356 . S
C1954 H2008 0.930 . S
C1955 N1953 1.279 . S
C1955 C1954 1.358 . S
C1955 H1959 0.930 . S
C1956 C1954 1.356 . S
C1956 C1957 1.348 . S
C1957 C1952 1.353 . S
C1957 C1956 1.348 . S
C1957 H2009 0.929 . S
H1958 C1952 0.930 . S
H1959 C1955 0.930 . S
C1960 N1961 1.314 . S
C1960 C1962 1.353 . S
C1960 H1966 0.930 . S
N1961 Li1937 1.990 . S
N1961 C1960 1.314 . S
N1961 C1964 1.279 . S
C1962 C1960 1.353 . S
C1962 C1965 1.348 . S
C1962 H2010 0.929 . S
C1963 C1964 1.358 . S
C1963 C1965 1.356 . S
C1963 H2011 0.930 . S
C1964 N1961 1.279 . S
C1964 C1963 1.358 . S
C1964 H1967 0.930 . S
C1965 C1962 1.348 . S
C1965 C1963 1.356 . S
H1966 C1960 0.930 . S
H1967 C1964 0.930 . S
C1968 C1970 1.348 . S
C1968 C1971 1.356 . S
C1968 O1998 1.325 . S
N1969 C1972 1.314 . S
N1969 C1973 1.279 . S
C1970 C1968 1.348 . S
C1970 C1972 1.353 . S
C1970 H2012 0.929 . S
C1971 C1968 1.356 . S
C1971 C1973 1.358 . S
C1971 H2013 0.930 . S
C1972 N1969 1.314 . S
C1972 C1970 1.353 . S
C1972 H2014 0.930 . S
C1973 N1969 1.279 . S
C1973 C1971 1.358 . S
C1973 H2015 0.930 . S
C1974 C1975 1.348 . S
C1974 C1976 1.356 . S
C1974 O1999 1.325 . S
C1975 C1974 1.348 . S
C1975 C1977 1.353 . S
C1975 H2016 0.929 . S
C1976 C1974 1.356 . S
C1976 C1978 1.358 . S
C1976 H2017 0.930 . S
C1977 C1975 1.353 . S
C1977 N1979 1.314 . S
C1977 H2018 0.930 . S
C1978 C1976 1.358 . S
C1978 N1979 1.279 . S
C1978 H2019 0.930 . S
N1979 C1977 1.314 . S
N1979 C1978 1.279 . S
C1980 C1982 1.353 . S
C1980 N1983 1.314 . S
C1980 H1986 0.930 . S
C1981 N1983 1.279 . S
C1981 C1984 1.358 . S
C1981 H1987 0.930 . S
C1982 C1980 1.353 . S
C1982 C1985 1.348 . S
C1982 H2020 0.929 . S
N1983 Li1938 1.990 . S
N1983 C1980 1.314 . S
N1983 C1981 1.279 . S
C1984 C1981 1.358 . S
C1984 C1985 1.356 . S
C1984 H2021 0.930 . S
C1985 C1982 1.348 . S
C1985 C1984 1.356 . S
H1986 C1980 0.930 . S
H1987 C1981 0.930 . S
C1988 N1989 1.314 . S
C1988 C1990 1.353 . S
C1988 H1994 0.930 . S
N1989 Li1939 1.990 . S
N1989 C1988 1.314 . S
N1989 C1992 1.279 . S
C1990 C1988 1.353 . S
C1990 C1993 1.348 . S
C1990 H2022 0.929 . S
C1991 C1992 1.358 . S
C1991 C1993 1.356 . S
C1991 H2023 0.930 . S
C1992 N1989 1.279 . S
C1992 C1991 1.358 . S
C1992 H1995 0.930 . S
C1993 C1990 1.348 . S
C1993 C1991 1.356 . S
H1994 C1988 0.930 . S
H1995 C1992 0.930 . S
O1996 Li1936 1.956 . S
O1996 Li1937 1.970 . S
O1996 Li1938 1.961 . S
O1996 C1940 1.325 . S
O1997 Li1936 1.970 . S
O1997 Li1937 1.956 . S
O1997 Li1939 1.961 . S
O1997 C1946 1.325 . S
O1998 Li1936 1.961 . S
O1998 Li1938 1.956 . S
O1998 Li1939 1.970 . S
O1998 C1968 1.325 . S
O1999 Li1937 1.961 . S
O1999 Li1938 1.970 . S
O1999 Li1939 1.956 . S
O1999 C1974 1.325 . S
H2000 C1942 0.929 . S
H2001 C1943 0.930 . S
H2002 C1944 0.930 . S
H2003 C1945 0.930 . S
H2004 C1947 0.930 . S
H2005 C1949 0.929 . S
H2006 C1950 0.930 . S
H2007 C1951 0.930 . S
H2008 C1954 0.930 . S
H2009 C1957 0.929 . S
H2010 C1962 0.929 . S
H2011 C1963 0.930 . S
H2012 C1970 0.929 . S
H2013 C1971 0.930 . S
H2014 C1972 0.930 . S
H2015 C1973 0.930 . S
H2016 C1975 0.929 . S
H2017 C1976 0.930 . S
H2018 C1977 0.930 . S
H2019 C1978 0.930 . S
H2020 C1982 0.929 . S
H2021 C1984 0.930 . S
H2022 C1990 0.929 . S
H2023 C1991 0.930 . S
Li2024 N2041 1.990 . S
Li2024 O2084 1.956 . S
Li2024 O2085 1.970 . S
Li2024 O2086 1.961 . S
Li2025 N2049 1.990 . S
Li2025 O2084 1.970 . S
Li2025 O2085 1.956 . S
Li2025 O2087 1.961 . S
Li2026 N2071 1.990 . S
Li2026 O2084 1.961 . S
Li2026 O2086 1.956 . S
Li2026 O2087 1.970 . S
Li2027 N2077 1.990 . S
Li2027 O2085 1.961 . S
Li2027 O2086 1.970 . S
Li2027 O2087 1.956 . S
C2028 C2030 1.348 . S
C2028 C2031 1.356 . S
C2028 O2084 1.325 . S
N2029 C2032 1.314 . S
N2029 C2033 1.279 . S
C2030 C2028 1.348 . S
C2030 C2032 1.353 . S
C2030 H2088 0.929 . S
C2031 C2028 1.356 . S
C2031 C2033 1.358 . S
C2031 H2089 0.930 . S
C2032 N2029 1.314 . S
C2032 C2030 1.353 . S
C2032 H2090 0.930 . S
C2033 N2029 1.279 . S
C2033 C2031 1.358 . S
C2033 H2091 0.930 . S
C2034 C2037 1.348 . S
C2034 C2038 1.356 . S
C2034 O2085 1.325 . S
C2035 N2036 1.279 . S
C2035 C2038 1.358 . S
C2035 H2092 0.930 . S
N2036 C2035 1.279 . S
N2036 C2039 1.314 . S
C2037 C2034 1.348 . S
C2037 C2039 1.353 . S
C2037 H2093 0.929 . S
C2038 C2034 1.356 . S
C2038 C2035 1.358 . S
C2038 H2094 0.930 . S
C2039 N2036 1.314 . S
C2039 C2037 1.353 . S
C2039 H2095 0.930 . S
C2040 N2041 1.314 . S
C2040 C2045 1.353 . S
C2040 H2046 0.930 . S
N2041 Li2024 1.990 . S
N2041 C2040 1.314 . S
N2041 C2043 1.279 . S
C2042 C2043 1.358 . S
C2042 C2044 1.356 . S
C2042 H2096 0.930 . S
C2043 N2041 1.279 . S
C2043 C2042 1.358 . S
C2043 H2047 0.930 . S
C2044 C2042 1.356 . S
C2044 C2045 1.348 . S
C2045 C2040 1.353 . S
C2045 C2044 1.348 . S
C2045 H2097 0.929 . S
H2046 C2040 0.930 . S
H2047 C2043 0.930 . S
C2048 N2049 1.314 . S
C2048 C2050 1.353 . S
C2048 H2054 0.930 . S
N2049 Li2025 1.990 . S
N2049 C2048 1.314 . S
N2049 C2052 1.279 . S
C2050 C2048 1.353 . S
C2050 C2053 1.348 . S
C2050 H2098 0.929 . S
C2051 C2052 1.358 . S
C2051 C2053 1.356 . S
C2051 H2099 0.930 . S
C2052 N2049 1.279 . S
C2052 C2051 1.358 . S
C2052 H2055 0.930 . S
C2053 C2050 1.348 . S
C2053 C2051 1.356 . S
H2054 C2048 0.930 . S
H2055 C2052 0.930 . S
C2056 C2058 1.348 . S
C2056 C2059 1.356 . S
C2056 O2086 1.325 . S
N2057 C2060 1.314 . S
N2057 C2061 1.279 . S
C2058 C2056 1.348 . S
C2058 C2060 1.353 . S
C2058 H2100 0.929 . S
C2059 C2056 1.356 . S
C2059 C2061 1.358 . S
C2059 H2101 0.930 . S
C2060 N2057 1.314 . S
C2060 C2058 1.353 . S
C2060 H2102 0.930 . S
C2061 N2057 1.279 . S
C2061 C2059 1.358 . S
C2061 H2103 0.930 . S
C2062 C2063 1.348 . S
C2062 C2064 1.356 . S
C2062 O2087 1.325 . S
C2063 C2062 1.348 . S
C2063 C2065 1.353 . S
C2063 H2104 0.929 . S
C2064 C2062 1.356 . S
C2064 C2066 1.358 . S
C2064 H2105 0.930 . S
C2065 C2063 1.353 . S
C2065 N2067 1.314 . S
C2065 H2106 0.930 . S
C2066 C2064 1.358 . S
C2066 N2067 1.279 . S
C2066 H2107 0.930 . S
N2067 C2065 1.314 . S
N2067 C2066 1.279 . S
C2068 C2070 1.353 . S
C2068 N2071 1.314 . S
C2068 H2074 0.930 . S
C2069 N2071 1.279 . S
C2069 C2072 1.358 . S
C2069 H2075 0.930 . S
C2070 C2068 1.353 . S
C2070 C2073 1.348 . S
C2070 H2108 0.929 . S
N2071 Li2026 1.990 . S
N2071 C2068 1.314 . S
N2071 C2069 1.279 . S
C2072 C2069 1.358 . S
C2072 C2073 1.356 . S
C2072 H2109 0.930 . S
C2073 C2070 1.348 . S
C2073 C2072 1.356 . S
H2074 C2068 0.930 . S
H2075 C2069 0.930 . S
C2076 N2077 1.314 . S
C2076 C2078 1.353 . S
C2076 H2082 0.930 . S
N2077 Li2027 1.990 . S
N2077 C2076 1.314 . S
N2077 C2080 1.279 . S
C2078 C2076 1.353 . S
C2078 C2081 1.348 . S
C2078 H2110 0.929 . S
C2079 C2080 1.358 . S
C2079 C2081 1.356 . S
C2079 H2111 0.930 . S
C2080 N2077 1.279 . S
C2080 C2079 1.358 . S
C2080 H2083 0.930 . S
C2081 C2078 1.348 . S
C2081 C2079 1.356 . S
H2082 C2076 0.930 . S
H2083 C2080 0.930 . S
O2084 Li2024 1.956 . S
O2084 Li2025 1.970 . S
O2084 Li2026 1.961 . S
O2084 C2028 1.325 . S
O2085 Li2024 1.970 . S
O2085 Li2025 1.956 . S
O2085 Li2027 1.961 . S
O2085 C2034 1.325 . S
O2086 Li2024 1.961 . S
O2086 Li2026 1.956 . S
O2086 Li2027 1.970 . S
O2086 C2056 1.325 . S
O2087 Li2025 1.961 . S
O2087 Li2026 1.970 . S
O2087 Li2027 1.956 . S
O2087 C2062 1.325 . S
H2088 C2030 0.929 . S
H2089 C2031 0.930 . S
H2090 C2032 0.930 . S
H2091 C2033 0.930 . S
H2092 C2035 0.930 . S
H2093 C2037 0.929 . S
H2094 C2038 0.930 . S
H2095 C2039 0.930 . S
H2096 C2042 0.930 . S
H2097 C2045 0.929 . S
H2098 C2050 0.929 . S
H2099 C2051 0.930 . S
H2100 C2058 0.929 . S
H2101 C2059 0.930 . S
H2102 C2060 0.930 . S
H2103 C2061 0.930 . S
H2104 C2063 0.929 . S
H2105 C2064 0.930 . S
H2106 C2065 0.930 . S
H2107 C2066 0.930 . S
H2108 C2070 0.929 . S
H2109 C2072 0.930 . S
H2110 C2078 0.929 . S
H2111 C2079 0.930 . S
Tb2112 O2115 2.453 . S
Tb2112 O2116 2.596 . S
Tb2112 O2117 2.374 1_554 S
Tb2112 O2125 2.343 1_455 S
Tb2112 O2127 2.353 . S
Tb2112 O2129 2.427 . S
Tb2112 O2130 2.513 1_554 S
C2113 O2117 1.251 . S
C2113 O2119 1.263 . S
Tb2114 O2116 2.343 1_665 S
Tb2114 O2119 2.353 1_664 S
Tb2114 O2122 2.427 1_655 S
Tb2114 O2123 2.498 1_655 S
Tb2114 O2124 2.453 1_564 S
Tb2114 O2125 2.596 1_565 S
Tb2114 O2126 2.374 1_565 S
O2115 Tb2112 2.453 . S
O2115 C2131 1.245 . S
O2116 Tb2112 2.596 . S
O2116 Tb2114 2.343 1_445 S
O2116 C2131 1.259 . S
O2117 Tb2112 2.374 1_556 S
O2117 C2113 1.251 . S
C2118 O2122 1.275 . S
C2118 O2123 1.263 . S
O2119 C2113 1.263 . S
O2119 Tb2114 2.353 1_446 S
C2120 O2124 1.242 1_554 S
C2120 O2125 1.264 . S
C2121 O2126 1.250 . S
C2121 O2127 1.263 1_655 S
O2122 Tb2114 2.427 1_455 S
O2122 C2118 1.275 . S
O2123 Tb2114 2.498 1_455 S
O2123 C2118 1.263 . S
O2124 Tb2114 2.453 1_546 S
O2124 C2120 1.242 1_556 S
O2125 Tb2112 2.343 1_655 S
O2125 Tb2114 2.596 1_545 S
O2125 C2120 1.264 . S
O2126 Tb2114 2.374 1_545 S
O2126 C2121 1.250 . S
O2127 Tb2112 2.353 . S
O2127 C2121 1.263 1_455 S
C2128 O2129 1.275 1_556 S
C2128 O2130 1.246 . S
O2129 Tb2112 2.427 . S
O2129 C2128 1.275 1_554 S
O2130 Tb2112 2.513 1_556 S
O2130 C2128 1.246 . S
C2131 O2115 1.245 . S
C2131 O2116 1.259 . S
Tb2132 O2135 2.453 . S
Tb2132 O2136 2.596 . S
Tb2132 O2137 2.374 . S
Tb2132 O2145 2.343 . S
Tb2132 O2147 2.353 . S
Tb2132 O2149 2.427 . S
Tb2132 O2150 2.513 . S
C2133 O2137 1.251 . S
C2133 O2139 1.263 . S
Tb2134 O2136 2.343 . S
Tb2134 O2139 2.353 . S
Tb2134 O2142 2.427 . S
Tb2134 O2143 2.513 . S
Tb2134 O2144 2.453 . S
Tb2134 O2145 2.596 . S
Tb2134 O2146 2.374 . S
O2135 Tb2132 2.453 . S
O2135 C2151 1.245 . S
O2136 Tb2132 2.596 . S
O2136 Tb2134 2.343 . S
O2136 C2151 1.259 . S
O2137 Tb2132 2.374 . S
O2137 C2133 1.251 . S
C2138 O2142 1.275 . S
C2138 O2143 1.246 . S
O2139 C2133 1.263 . S
O2139 Tb2134 2.353 . S
C2140 O2144 1.245 . S
C2140 O2145 1.259 . S
C2141 O2146 1.250 . S
C2141 O2147 1.263 . S
O2142 Tb2134 2.427 . S
O2142 C2138 1.275 . S
O2143 Tb2134 2.513 . S
O2143 C2138 1.246 . S
O2144 Tb2134 2.453 . S
O2144 C2140 1.245 . S
O2145 Tb2132 2.343 . S
O2145 Tb2134 2.596 . S
O2145 C2140 1.259 . S
O2146 Tb2134 2.374 . S
O2146 C2141 1.250 . S
O2147 Tb2132 2.353 . S
O2147 C2141 1.263 . S
C2148 O2149 1.275 . S
C2148 O2150 1.246 . S
O2149 Tb2132 2.427 . S
O2149 C2148 1.275 . S
O2150 Tb2132 2.513 . S
O2150 C2148 1.246 . S
C2151 O2135 1.245 . S
C2151 O2136 1.259 . S
Tb2152 O2155 2.453 . S
Tb2152 O2156 2.596 . S
Tb2152 O2157 2.374 . S
Tb2152 O2165 2.343 . S
Tb2152 O2167 2.353 . S
Tb2152 O2169 2.427 . S
Tb2152 O2170 2.513 . S
C2153 O2157 1.251 . S
C2153 O2159 1.263 . S
Tb2154 O2156 2.343 . S
Tb2154 O2159 2.353 . S
Tb2154 O2162 2.427 . S
Tb2154 O2163 2.513 . S
Tb2154 O2164 2.453 1_545 S
Tb2154 O2165 2.596 . S
Tb2154 O2166 2.374 . S
O2155 Tb2152 2.453 . S
O2155 C2171 1.245 . S
O2156 Tb2152 2.596 . S
O2156 Tb2154 2.343 . S
O2156 C2171 1.259 . S
O2157 Tb2152 2.374 . S
O2157 C2153 1.251 . S
C2158 O2162 1.275 . S
C2158 O2163 1.246 . S
O2159 C2153 1.263 . S
O2159 Tb2154 2.353 . S
C2160 O2164 1.245 . S
C2160 O2165 1.259 1_565 S
C2161 O2166 1.250 . S
C2161 O2167 1.263 . S
O2162 Tb2154 2.427 . S
O2162 C2158 1.275 . S
O2163 Tb2154 2.513 . S
O2163 C2158 1.246 . S
O2164 Tb2154 2.453 1_565 S
O2164 C2160 1.245 . S
O2165 Tb2152 2.343 . S
O2165 Tb2154 2.596 . S
O2165 C2160 1.259 1_545 S
O2166 Tb2154 2.374 . S
O2166 C2161 1.250 . S
O2167 Tb2152 2.353 . S
O2167 C2161 1.263 . S
C2168 O2169 1.275 . S
C2168 O2170 1.246 . S
O2169 Tb2152 2.427 . S
O2169 C2168 1.275 . S
O2170 Tb2152 2.513 . S
O2170 C2168 1.246 . S
C2171 O2155 1.245 . S
C2171 O2156 1.259 . S
Tb2172 O2175 2.453 . S
Tb2172 O2176 2.596 . S
Tb2172 O2177 2.374 . S
Tb2172 O2185 2.343 . S
Tb2172 O2187 2.353 . S
Tb2172 O2189 2.427 . S
Tb2172 O2190 2.513 . S
C2173 O2177 1.251 . S
C2173 O2179 1.263 . S
Tb2174 O2176 2.343 . S
Tb2174 O2179 2.353 . S
Tb2174 O2182 2.427 . S
Tb2174 O2183 2.513 . S
Tb2174 O2184 2.453 . S
Tb2174 O2185 2.596 . S
Tb2174 O2186 2.374 . S
O2175 Tb2172 2.453 . S
O2175 C2191 1.245 . S
O2176 Tb2172 2.596 . S
O2176 Tb2174 2.343 . S
O2176 C2191 1.259 . S
O2177 Tb2172 2.374 . S
O2177 C2173 1.251 . S
C2178 O2182 1.275 . S
C2178 O2183 1.246 . S
O2179 C2173 1.263 . S
O2179 Tb2174 2.353 . S
C2180 O2184 1.245 . S
C2180 O2185 1.259 . S
C2181 O2186 1.250 . S
C2181 O2187 1.263 . S
O2182 Tb2174 2.427 . S
O2182 C2178 1.275 . S
O2183 Tb2174 2.513 . S
O2183 C2178 1.246 . S
O2184 Tb2174 2.453 . S
O2184 C2180 1.245 . S
O2185 Tb2172 2.343 . S
O2185 Tb2174 2.596 . S
O2185 C2180 1.259 . S
O2186 Tb2174 2.374 . S
O2186 C2181 1.250 . S
O2187 Tb2172 2.353 . S
O2187 C2181 1.263 . S
C2188 O2189 1.275 . S
C2188 O2190 1.246 . S
O2189 Tb2172 2.427 . S
O2189 C2188 1.275 . S
O2190 Tb2172 2.513 . S
O2190 C2188 1.246 . S
C2191 O2175 1.245 . S
C2191 O2176 1.259 . S
Tb2192 O2195 2.453 1_545 S
Tb2192 O2196 2.596 . S
Tb2192 O2197 2.374 1_455 S
Tb2192 O2205 2.343 . S
Tb2192 O2207 2.353 . S
Tb2192 O2209 2.427 . S
Tb2192 O2210 2.513 1_455 S
C2193 O2197 1.251 . S
C2193 O2199 1.263 . S
Tb2194 O2196 2.343 . S
Tb2194 O2199 2.353 1_455 S
Tb2194 O2202 2.427 . S
Tb2194 O2203 2.513 . S
Tb2194 O2204 2.453 . S
Tb2194 O2205 2.596 . S
Tb2194 O2206 2.374 . S
O2195 Tb2192 2.453 1_565 S
O2195 C2211 1.245 . S
O2196 Tb2192 2.596 . S
O2196 Tb2194 2.343 . S
O2196 C2211 1.259 1_545 S
O2197 Tb2192 2.374 1_655 S
O2197 C2193 1.251 . S
C2198 O2202 1.275 . S
C2198 O2203 1.246 . S
O2199 C2193 1.263 . S
O2199 Tb2194 2.353 1_655 S
C2200 O2204 1.245 . S
C2200 O2205 1.259 . S
C2201 O2206 1.250 . S
C2201 O2207 1.263 . S
O2202 Tb2194 2.427 . S
O2202 C2198 1.275 . S
O2203 Tb2194 2.513 . S
O2203 C2198 1.246 . S
O2204 Tb2194 2.453 . S
O2204 C2200 1.245 . S
O2205 Tb2192 2.343 . S
O2205 Tb2194 2.596 . S
O2205 C2200 1.259 . S
O2206 Tb2194 2.374 . S
O2206 C2201 1.250 . S
O2207 Tb2192 2.353 . S
O2207 C2201 1.263 . S
C2208 O2209 1.275 1_655 S
C2208 O2210 1.246 . S
O2209 Tb2192 2.427 . S
O2209 C2208 1.275 1_455 S
O2210 Tb2192 2.513 1_655 S
O2210 C2208 1.246 . S
C2211 O2195 1.245 . S
C2211 O2196 1.259 1_565 S
Tb2212 O2215 2.453 . S
Tb2212 O2216 2.596 . S
Tb2212 O2217 2.374 . S
Tb2212 O2225 2.343 . S
Tb2212 O2227 2.353 . S
Tb2212 O2229 2.427 . S
Tb2212 O2230 2.513 . S
C2213 O2217 1.251 . S
C2213 O2219 1.263 . S
Tb2214 O2216 2.343 . S
Tb2214 O2219 2.353 . S
Tb2214 O2222 2.427 . S
Tb2214 O2223 2.513 . S
Tb2214 O2224 2.453 . S
Tb2214 O2225 2.596 . S
Tb2214 O2226 2.374 . S
O2215 Tb2212 2.453 . S
O2215 C2231 1.245 . S
O2216 Tb2212 2.596 . S
O2216 Tb2214 2.343 . S
O2216 C2231 1.259 . S
O2217 Tb2212 2.374 . S
O2217 C2213 1.251 . S
C2218 O2222 1.275 . S
C2218 O2223 1.246 . S
O2219 C2213 1.263 . S
O2219 Tb2214 2.353 . S
C2220 O2224 1.245 . S
C2220 O2225 1.259 . S
C2221 O2226 1.250 . S
C2221 O2227 1.263 . S
O2222 Tb2214 2.427 . S
O2222 C2218 1.275 . S
O2223 Tb2214 2.513 . S
O2223 C2218 1.246 . S
O2224 Tb2214 2.453 . S
O2224 C2220 1.245 . S
O2225 Tb2212 2.343 . S
O2225 Tb2214 2.596 . S
O2225 C2220 1.259 . S
O2226 Tb2214 2.374 . S
O2226 C2221 1.250 . S
O2227 Tb2212 2.353 . S
O2227 C2221 1.263 . S
C2228 O2229 1.275 . S
C2228 O2230 1.246 . S
O2229 Tb2212 2.427 . S
O2229 C2228 1.275 . S
O2230 Tb2212 2.513 . S
O2230 C2228 1.246 . S
C2231 O2215 1.245 . S
C2231 O2216 1.259 . S
Tb2232 O2235 2.453 . S
Tb2232 O2236 2.596 . S
Tb2232 O2237 2.374 1_545 S
Tb2232 O2245 2.343 1_556 S
Tb2232 O2247 2.353 1_556 S
Tb2232 O2249 2.427 1_556 S
Tb2232 O2250 2.513 1_546 S
C2233 O2237 1.251 1_554 S
C2233 O2239 1.261 . S
Tb2234 O2236 2.343 1_554 S
Tb2234 O2239 2.353 1_545 S
Tb2234 O2242 2.427 . S
Tb2234 O2243 2.513 . S
Tb2234 O2244 2.453 . S
Tb2234 O2245 2.596 . S
Tb2234 O2246 2.374 . S
O2235 Tb2232 2.453 . S
O2235 C2251 1.245 . S
O2236 Tb2232 2.596 . S
O2236 Tb2234 2.343 1_556 S
O2236 C2251 1.259 . S
O2237 Tb2232 2.374 1_565 S
O2237 C2233 1.251 1_556 S
C2238 O2242 1.275 . S
C2238 O2243 1.246 . S
O2239 C2233 1.261 . S
O2239 Tb2234 2.353 1_565 S
C2240 O2244 1.245 . S
C2240 O2245 1.259 . S
C2241 O2246 1.250 . S
C2241 O2247 1.263 . S
O2242 Tb2234 2.427 . S
O2242 C2238 1.275 . S
O2243 Tb2234 2.513 . S
O2243 C2238 1.246 . S
O2244 Tb2234 2.453 . S
O2244 C2240 1.245 . S
O2245 Tb2232 2.343 1_554 S
O2245 Tb2234 2.596 . S
O2245 C2240 1.259 . S
O2246 Tb2234 2.374 . S
O2246 C2241 1.250 . S
O2247 Tb2232 2.353 1_554 S
O2247 C2241 1.263 . S
C2248 O2249 1.275 . S
C2248 O2250 1.246 1_545 S
O2249 Tb2232 2.427 1_554 S
O2249 C2248 1.275 . S
O2250 Tb2232 2.513 1_564 S
O2250 C2248 1.246 1_565 S
C2251 O2235 1.245 . S
C2251 O2236 1.259 . S
Tb2252 O2255 2.453 . S
Tb2252 O2256 2.596 . S
Tb2252 O2257 2.374 . S
Tb2252 O2265 2.343 . S
Tb2252 O2267 2.353 . S
Tb2252 O2269 2.427 . S
Tb2252 O2270 2.513 . S
C2253 O2257 1.251 . S
C2253 O2259 1.263 . S
Tb2254 O2256 2.343 . S
Tb2254 O2259 2.353 . S
Tb2254 O2262 2.427 . S
Tb2254 O2263 2.513 . S
Tb2254 O2264 2.453 . S
Tb2254 O2265 2.596 . S
Tb2254 O2266 2.374 . S
O2255 Tb2252 2.453 . S
O2255 C2271 1.245 . S
O2256 Tb2252 2.596 . S
O2256 Tb2254 2.343 . S
O2256 C2271 1.259 . S
O2257 Tb2252 2.374 . S
O2257 C2253 1.251 . S
C2258 O2262 1.275 . S
C2258 O2263 1.246 . S
O2259 C2253 1.263 . S
O2259 Tb2254 2.353 . S
C2260 O2264 1.245 . S
C2260 O2265 1.259 . S
C2261 O2266 1.250 . S
C2261 O2267 1.263 . S
O2262 Tb2254 2.427 . S
O2262 C2258 1.275 . S
O2263 Tb2254 2.513 . S
O2263 C2258 1.246 . S
O2264 Tb2254 2.453 . S
O2264 C2260 1.245 . S
O2265 Tb2252 2.343 . S
O2265 Tb2254 2.596 . S
O2265 C2260 1.259 . S
O2266 Tb2254 2.374 . S
O2266 C2261 1.250 . S
O2267 Tb2252 2.353 . S
O2267 C2261 1.263 . S
C2268 O2269 1.275 . S
C2268 O2270 1.246 . S
O2269 Tb2252 2.427 . S
O2269 C2268 1.275 . S
O2270 Tb2252 2.513 . S
O2270 C2268 1.246 . S
C2271 O2255 1.245 . S
C2271 O2256 1.259 . S
Tb2272 O2275 2.453 1_556 S
Tb2272 O2276 2.596 1_556 S
Tb2272 O2277 2.373 1_556 S
Tb2272 O2285 2.343 . S
Tb2272 O2287 2.353 . S
Tb2272 O2289 2.427 . S
Tb2272 O2290 2.513 . S
C2273 O2277 1.252 . S
C2273 O2279 1.263 . S
Tb2274 O2276 2.343 . S
Tb2274 O2279 2.353 . S
Tb2274 O2282 2.427 . S
Tb2274 O2283 2.513 . S
Tb2274 O2284 2.453 . S
Tb2274 O2285 2.596 1_554 S
Tb2274 O2286 2.374 . S
O2275 Tb2272 2.453 1_554 S
O2275 C2291 1.245 . S
O2276 Tb2272 2.596 1_554 S
O2276 Tb2274 2.343 . S
O2276 C2291 1.259 . S
O2277 Tb2272 2.373 1_554 S
O2277 C2273 1.252 . S
C2278 O2282 1.275 . S
C2278 O2283 1.246 . S
O2279 C2273 1.263 . S
O2279 Tb2274 2.353 . S
C2280 O2284 1.245 . S
C2280 O2285 1.259 1_554 S
C2281 O2286 1.250 . S
C2281 O2287 1.263 1_554 S
O2282 Tb2274 2.427 . S
O2282 C2278 1.275 . S
O2283 Tb2274 2.513 . S
O2283 C2278 1.246 . S
O2284 Tb2274 2.453 . S
O2284 C2280 1.245 . S
O2285 Tb2272 2.343 . S
O2285 Tb2274 2.596 1_556 S
O2285 C2280 1.259 1_556 S
O2286 Tb2274 2.374 . S
O2286 C2281 1.250 . S
O2287 Tb2272 2.353 . S
O2287 C2281 1.263 1_556 S
C2288 O2289 1.275 . S
C2288 O2290 1.246 . S
O2289 Tb2272 2.427 . S
O2289 C2288 1.275 . S
O2290 Tb2272 2.513 . S
O2290 C2288 1.246 . S
C2291 O2275 1.245 . S
C2291 O2276 1.259 . S
Tb2292 O2295 2.453 . S
Tb2292 O2296 2.596 . S
Tb2292 O2297 2.374 . S
Tb2292 O2305 2.343 . S
Tb2292 O2307 2.353 . S
Tb2292 O2309 2.427 . S
Tb2292 O2310 2.513 . S
C2293 O2297 1.251 . S
C2293 O2299 1.263 . S
Tb2294 O2296 2.343 . S
Tb2294 O2299 2.353 . S
Tb2294 O2302 2.427 . S
Tb2294 O2303 2.513 . S
Tb2294 O2304 2.453 . S
Tb2294 O2305 2.596 . S
Tb2294 O2306 2.374 . S
O2295 Tb2292 2.453 . S
O2295 C2311 1.245 . S
O2296 Tb2292 2.596 . S
O2296 Tb2294 2.343 . S
O2296 C2311 1.259 . S
O2297 Tb2292 2.374 . S
O2297 C2293 1.251 . S
C2298 O2302 1.275 . S
C2298 O2303 1.246 . S
O2299 C2293 1.263 . S
O2299 Tb2294 2.353 . S
C2300 O2304 1.245 . S
C2300 O2305 1.259 . S
C2301 O2306 1.250 . S
C2301 O2307 1.263 . S
O2302 Tb2294 2.427 . S
O2302 C2298 1.275 . S
O2303 Tb2294 2.513 . S
O2303 C2298 1.246 . S
O2304 Tb2294 2.453 . S
O2304 C2300 1.245 . S
O2305 Tb2292 2.343 . S
O2305 Tb2294 2.596 . S
O2305 C2300 1.259 . S
O2306 Tb2294 2.374 . S
O2306 C2301 1.250 . S
O2307 Tb2292 2.353 . S
O2307 C2301 1.263 . S
C2308 O2309 1.275 . S
C2308 O2310 1.246 . S
O2309 Tb2292 2.427 . S
O2309 C2308 1.275 . S
O2310 Tb2292 2.513 . S
O2310 C2308 1.246 . S
C2311 O2295 1.245 . S
C2311 O2296 1.259 . S
Tb2312 O2315 2.433 1_655 S
Tb2312 O2316 2.596 1_655 S
Tb2312 O2317 2.374 . S
Tb2312 O2325 2.343 . S
Tb2312 O2327 2.353 . S
Tb2312 O2329 2.427 . S
Tb2312 O2330 2.513 . S
C2313 O2317 1.251 1_455 S
C2313 O2319 1.263 . S
Tb2314 O2316 2.343 . S
Tb2314 O2319 2.353 . S
Tb2314 O2322 2.427 . S
Tb2314 O2323 2.513 . S
Tb2314 O2324 2.453 . S
Tb2314 O2325 2.596 1_455 S
Tb2314 O2326 2.374 . S
O2315 Tb2312 2.433 1_455 S
O2315 C2331 1.277 . S
O2316 Tb2312 2.596 1_455 S
O2316 Tb2314 2.343 . S
O2316 C2331 1.259 . S
O2317 Tb2312 2.374 . S
O2317 C2313 1.251 1_655 S
C2318 O2322 1.275 . S
C2318 O2323 1.246 . S
O2319 C2313 1.263 . S
O2319 Tb2314 2.353 . S
C2320 O2324 1.245 1_655 S
C2320 O2325 1.259 . S
C2321 O2326 1.250 . S
C2321 O2327 1.263 1_455 S
O2322 Tb2314 2.427 . S
O2322 C2318 1.275 . S
O2323 Tb2314 2.513 . S
O2323 C2318 1.246 . S
O2324 Tb2314 2.453 . S
O2324 C2320 1.245 1_455 S
O2325 Tb2312 2.343 . S
O2325 Tb2314 2.596 1_655 S
O2325 C2320 1.259 . S
O2326 Tb2314 2.374 . S
O2326 C2321 1.250 . S
O2327 Tb2312 2.353 . S
O2327 C2321 1.263 1_655 S
C2328 O2329 1.275 . S
C2328 O2330 1.246 . S
O2329 Tb2312 2.427 . S
O2329 C2328 1.275 . S
O2330 Tb2312 2.513 . S
O2330 C2328 1.246 . S
C2331 O2315 1.277 . S
C2331 O2316 1.259 . S
Tb2332 O2335 2.453 . S
Tb2332 O2336 2.596 . S
Tb2332 O2337 2.374 . S
Tb2332 O2345 2.343 . S
Tb2332 O2347 2.353 . S
Tb2332 O2349 2.427 . S
Tb2332 O2350 2.513 . S
C2333 O2337 1.251 . S
C2333 O2339 1.263 . S
Tb2334 O2336 2.343 . S
Tb2334 O2339 2.353 . S
Tb2334 O2342 2.427 . S
Tb2334 O2343 2.513 . S
Tb2334 O2344 2.453 . S
Tb2334 O2345 2.596 . S
Tb2334 O2346 2.374 . S
O2335 Tb2332 2.453 . S
O2335 C2351 1.245 . S
O2336 Tb2332 2.596 . S
O2336 Tb2334 2.343 . S
O2336 C2351 1.259 . S
O2337 Tb2332 2.374 . S
O2337 C2333 1.251 . S
C2338 O2342 1.275 . S
C2338 O2343 1.246 . S
O2339 C2333 1.263 . S
O2339 Tb2334 2.353 . S
C2340 O2344 1.245 . S
C2340 O2345 1.259 . S
C2341 O2346 1.250 . S
C2341 O2347 1.263 . S
O2342 Tb2334 2.427 . S
O2342 C2338 1.275 . S
O2343 Tb2334 2.513 . S
O2343 C2338 1.246 . S
O2344 Tb2334 2.453 . S
O2344 C2340 1.245 . S
O2345 Tb2332 2.343 . S
O2345 Tb2334 2.596 . S
O2345 C2340 1.259 . S
O2346 Tb2334 2.374 . S
O2346 C2341 1.250 . S
O2347 Tb2332 2.353 . S
O2347 C2341 1.263 . S
C2348 O2349 1.275 . S
C2348 O2350 1.246 . S
O2349 Tb2332 2.427 . S
O2349 C2348 1.275 . S
O2350 Tb2332 2.513 . S
O2350 C2348 1.246 . S
C2351 O2335 1.245 . S
C2351 O2336 1.259 . S
Tb2352 O2355 2.453 . S
Tb2352 O2356 2.596 . S
Tb2352 O2357 2.374 . S
Tb2352 O2365 2.343 . S
Tb2352 O2367 2.353 . S
Tb2352 O2369 2.427 . S
Tb2352 O2370 2.513 . S
C2353 O2357 1.251 . S
C2353 O2359 1.263 . S
Tb2354 O2356 2.343 . S
Tb2354 O2359 2.353 . S
Tb2354 O2362 2.427 . S
Tb2354 O2363 2.513 . S
Tb2354 O2364 2.453 . S
Tb2354 O2365 2.596 . S
Tb2354 O2366 2.374 . S
O2355 Tb2352 2.453 . S
O2355 C2371 1.245 . S
O2356 Tb2352 2.596 . S
O2356 Tb2354 2.343 . S
O2356 C2371 1.259 . S
O2357 Tb2352 2.374 . S
O2357 C2353 1.251 . S
C2358 O2362 1.275 . S
C2358 O2363 1.246 . S
O2359 C2353 1.263 . S
O2359 Tb2354 2.353 . S
C2360 O2364 1.245 . S
C2360 O2365 1.259 . S
C2361 O2366 1.250 . S
C2361 O2367 1.263 . S
O2362 Tb2354 2.427 . S
O2362 C2358 1.275 . S
O2363 Tb2354 2.513 . S
O2363 C2358 1.246 . S
O2364 Tb2354 2.453 . S
O2364 C2360 1.245 . S
O2365 Tb2352 2.343 . S
O2365 Tb2354 2.596 . S
O2365 C2360 1.259 . S
O2366 Tb2354 2.374 . S
O2366 C2361 1.250 . S
O2367 Tb2352 2.353 . S
O2367 C2361 1.263 . S
C2368 O2369 1.275 . S
C2368 O2370 1.246 . S
O2369 Tb2352 2.427 . S
O2369 C2368 1.275 . S
O2370 Tb2352 2.513 . S
O2370 C2368 1.246 . S
C2371 O2355 1.245 . S
C2371 O2356 1.259 . S
Tb2372 O2375 2.453 . S
Tb2372 O2376 2.596 . S
Tb2372 O2377 2.374 . S
Tb2372 O2385 2.343 . S
Tb2372 O2387 2.353 . S
Tb2372 O2389 2.427 . S
Tb2372 O2390 2.513 . S
C2373 O2377 1.251 . S
C2373 O2379 1.263 . S
Tb2374 O2376 2.343 . S
Tb2374 O2379 2.353 . S
Tb2374 O2382 2.427 . S
Tb2374 O2383 2.513 . S
Tb2374 O2384 2.453 . S
Tb2374 O2385 2.596 . S
Tb2374 O2386 2.374 . S
O2375 Tb2372 2.453 . S
O2375 C2391 1.245 . S
O2376 Tb2372 2.596 . S
O2376 Tb2374 2.343 . S
O2376 C2391 1.259 . S
O2377 Tb2372 2.374 . S
O2377 C2373 1.251 . S
C2378 O2382 1.275 . S
C2378 O2383 1.246 . S
O2379 C2373 1.263 . S
O2379 Tb2374 2.353 . S
C2380 O2384 1.245 . S
C2380 O2385 1.259 . S
C2381 O2386 1.250 . S
C2381 O2387 1.263 . S
O2382 Tb2374 2.427 . S
O2382 C2378 1.275 . S
O2383 Tb2374 2.513 . S
O2383 C2378 1.246 . S
O2384 Tb2374 2.453 . S
O2384 C2380 1.245 . S
O2385 Tb2372 2.343 . S
O2385 Tb2374 2.596 . S
O2385 C2380 1.259 . S
O2386 Tb2374 2.374 . S
O2386 C2381 1.250 . S
O2387 Tb2372 2.353 . S
O2387 C2381 1.263 . S
C2388 O2389 1.275 . S
C2388 O2390 1.246 . S
O2389 Tb2372 2.427 . S
O2389 C2388 1.275 . S
O2390 Tb2372 2.513 . S
O2390 C2388 1.246 . S
C2391 O2375 1.245 . S
C2391 O2376 1.259 . S
Tb2392 O2395 2.453 . S
Tb2392 O2396 2.596 . S
Tb2392 O2397 2.374 . S
Tb2392 O2405 2.343 . S
Tb2392 O2407 2.353 . S
Tb2392 O2409 2.427 . S
Tb2392 O2410 2.513 . S
C2393 O2397 1.251 . S
C2393 O2399 1.263 . S
Tb2394 O2396 2.343 . S
Tb2394 O2399 2.353 . S
Tb2394 O2402 2.427 . S
Tb2394 O2403 2.513 . S
Tb2394 O2404 2.453 . S
Tb2394 O2405 2.596 . S
Tb2394 O2406 2.374 . S
O2395 Tb2392 2.453 . S
O2395 C2411 1.245 . S
O2396 Tb2392 2.596 . S
O2396 Tb2394 2.343 . S
O2396 C2411 1.259 . S
O2397 Tb2392 2.374 . S
O2397 C2393 1.251 . S
C2398 O2402 1.275 . S
C2398 O2403 1.246 . S
O2399 C2393 1.263 . S
O2399 Tb2394 2.353 . S
C2400 O2404 1.245 . S
C2400 O2405 1.259 . S
C2401 O2406 1.250 . S
C2401 O2407 1.263 . S
O2402 Tb2394 2.427 . S
O2402 C2398 1.275 . S
O2403 Tb2394 2.513 . S
O2403 C2398 1.246 . S
O2404 Tb2394 2.453 . S
O2404 C2400 1.245 . S
O2405 Tb2392 2.343 . S
O2405 Tb2394 2.596 . S
O2405 C2400 1.259 . S
O2406 Tb2394 2.374 . S
O2406 C2401 1.250 . S
O2407 Tb2392 2.353 . S
O2407 C2401 1.263 . S
C2408 O2409 1.275 . S
C2408 O2410 1.246 . S
O2409 Tb2392 2.427 . S
O2409 C2408 1.275 . S
O2410 Tb2392 2.513 . S
O2410 C2408 1.246 . S
C2411 O2395 1.245 . S
C2411 O2396 1.259 . S
Tb2412 O2415 2.453 . S
Tb2412 O2416 2.596 . S
Tb2412 O2417 2.374 . S
Tb2412 O2425 2.343 . S
Tb2412 O2427 2.353 1_554 S
Tb2412 O2429 2.427 1_554 S
Tb2412 O2430 2.513 . S
C2413 O2417 1.251 . S
C2413 O2419 1.263 1_455 S
Tb2414 O2416 2.343 1_655 S
Tb2414 O2419 2.353 . S
Tb2414 O2422 2.427 . S
Tb2414 O2423 2.513 . S
Tb2414 O2424 2.453 . S
Tb2414 O2425 2.596 1_655 S
Tb2414 O2426 2.374 1_554 S
O2415 Tb2412 2.453 . S
O2415 C2431 1.245 . S
O2416 Tb2412 2.596 . S
O2416 Tb2414 2.343 1_455 S
O2416 C2431 1.259 . S
O2417 Tb2412 2.374 . S
O2417 C2413 1.251 . S
C2418 O2422 1.275 . S
C2418 O2423 1.246 . S
O2419 C2413 1.263 1_655 S
O2419 Tb2414 2.353 . S
C2420 O2424 1.220 1_456 S
C2420 O2425 1.269 1_556 S
C2421 O2426 1.251 1_455 S
C2421 O2427 1.262 . S
O2422 Tb2414 2.427 . S
O2422 C2418 1.275 . S
O2423 Tb2414 2.513 . S
O2423 C2418 1.246 . S
O2424 Tb2414 2.453 . S
O2424 C2420 1.220 1_654 S
O2425 Tb2412 2.343 . S
O2425 Tb2414 2.596 1_455 S
O2425 C2420 1.269 1_554 S
O2426 Tb2414 2.374 1_556 S
O2426 C2421 1.251 1_655 S
O2427 Tb2412 2.353 1_556 S
O2427 C2421 1.262 . S
C2428 O2429 1.275 . S
C2428 O2430 1.246 1_556 S
O2429 Tb2412 2.427 1_556 S
O2429 C2428 1.275 . S
O2430 Tb2412 2.513 . S
O2430 C2428 1.246 1_554 S
C2431 O2415 1.245 . S
C2431 O2416 1.259 . S
C2432 C2433 1.363 1_655 S
C2432 C2438 1.379 . S
C2432 N2440 1.356 . S
C2433 C2432 1.363 1_455 S
C2433 C2439 1.363 . S
C2434 C2435 1.363 . S
C2434 C2439 1.379 . S
C2434 N2441 1.356 1_556 S
C2435 C2434 1.363 . S
C2435 C2438 1.363 1_455 S
N2436 C2438 1.356 . S
N2436 H2448 0.984 . S
N2436 H2449 0.985 . S
N2437 C2439 1.356 . S
N2437 H2442 0.984 . S
N2437 H2443 0.985 . S
C2438 C2432 1.379 . S
C2438 C2435 1.363 1_655 S
C2438 N2436 1.356 . S
C2439 C2433 1.363 . S
C2439 C2434 1.379 . S
C2439 N2437 1.356 . S
N2440 C2432 1.356 . S
N2440 H2446 0.984 . S
N2440 H2447 0.984 . S
N2441 C2434 1.356 1_554 S
N2441 H2444 0.984 . S
N2441 H2445 0.985 . S
H2442 N2437 0.984 . S
H2443 N2437 0.985 . S
H2444 N2441 0.984 . S
H2445 N2441 0.985 . S
H2446 N2440 0.984 . S
H2447 N2440 0.984 . S
H2448 N2436 0.984 . S
H2449 N2436 0.985 . S
C2450 C2451 1.363 . S
C2450 C2456 1.379 . S
C2450 N2458 1.356 . S
C2451 C2450 1.363 . S
C2451 C2457 1.363 . S
C2452 C2453 1.363 . S
C2452 C2457 1.379 . S
C2452 N2459 1.356 . S
C2453 C2452 1.363 . S
C2453 C2456 1.363 . S
N2454 C2456 1.356 . S
N2454 H2466 0.984 . S
N2454 H2467 0.985 . S
N2455 C2457 1.356 . S
N2455 H2460 0.984 . S
N2455 H2461 0.985 . S
C2456 C2450 1.379 . S
C2456 C2453 1.363 . S
C2456 N2454 1.356 . S
C2457 C2451 1.363 . S
C2457 C2452 1.379 . S
C2457 N2455 1.356 . S
N2458 C2450 1.356 . S
N2458 H2464 0.984 . S
N2458 H2465 0.984 . S
N2459 C2452 1.356 . S
N2459 H2462 0.984 . S
N2459 H2463 0.985 . S
H2460 N2455 0.984 . S
H2461 N2455 0.985 . S
H2462 N2459 0.984 . S
H2463 N2459 0.985 . S
H2464 N2458 0.984 . S
H2465 N2458 0.984 . S
H2466 N2454 0.984 . S
H2467 N2454 0.985 . S
C2468 C2469 1.363 . S
C2468 C2474 1.379 . S
C2468 N2476 1.356 . S
C2469 C2468 1.363 . S
C2469 C2475 1.363 . S
C2470 C2471 1.363 . S
C2470 C2475 1.379 . S
C2470 N2477 1.356 . S
C2471 C2470 1.363 . S
C2471 C2474 1.363 . S
N2472 C2474 1.356 . S
N2472 H2484 0.984 . S
N2472 H2485 0.985 . S
N2473 C2475 1.356 . S
N2473 H2478 0.984 . S
N2473 H2479 0.985 . S
C2474 C2468 1.379 . S
C2474 C2471 1.363 . S
C2474 N2472 1.356 . S
C2475 C2469 1.363 . S
C2475 C2470 1.379 . S
C2475 N2473 1.356 . S
N2476 C2468 1.356 . S
N2476 H2482 0.984 . S
N2476 H2483 0.984 . S
N2477 C2470 1.356 . S
N2477 H2480 0.984 . S
N2477 H2481 0.985 . S
H2478 N2473 0.984 . S
H2479 N2473 0.985 . S
H2480 N2477 0.984 . S
H2481 N2477 0.985 . S
H2482 N2476 0.984 . S
H2483 N2476 0.984 . S
H2484 N2472 0.984 . S
H2485 N2472 0.985 . S
C2486 C2487 1.363 . S
C2486 C2492 1.379 . S
C2486 N2494 1.356 . S
C2487 C2486 1.363 . S
C2487 C2493 1.363 . S
C2488 C2489 1.363 . S
C2488 C2493 1.379 . S
C2488 N2495 1.356 . S
C2489 C2488 1.363 . S
C2489 C2492 1.363 . S
N2490 C2492 1.356 . S
N2490 H2502 0.984 . S
N2490 H2503 0.985 . S
N2491 C2493 1.356 . S
N2491 H2496 0.984 . S
N2491 H2497 0.985 . S
C2492 C2486 1.379 . S
C2492 C2489 1.363 . S
C2492 N2490 1.356 . S
C2493 C2487 1.363 . S
C2493 C2488 1.379 . S
C2493 N2491 1.356 . S
N2494 C2486 1.356 . S
N2494 H2500 0.984 . S
N2494 H2501 0.984 . S
N2495 C2488 1.356 . S
N2495 H2498 0.984 . S
N2495 H2499 0.985 . S
H2496 N2491 0.984 . S
H2497 N2491 0.985 . S
H2498 N2495 0.984 . S
H2499 N2495 0.985 . S
H2500 N2494 0.984 . S
H2501 N2494 0.984 . S
H2502 N2490 0.984 . S
H2503 N2490 0.985 . S
C2504 C2505 1.363 . S
C2504 C2510 1.379 . S
C2504 N2512 1.356 1_455 S
C2505 C2504 1.363 . S
C2505 C2511 1.363 . S
C2506 C2507 1.363 . S
C2506 C2511 1.379 . S
C2506 N2513 1.356 . S
C2507 C2506 1.363 . S
C2507 C2510 1.363 . S
N2508 C2510 1.368 . S
N2508 H2520 0.970 1_455 S
N2508 H2521 0.989 . S
N2509 C2511 1.356 . S
N2509 H2514 0.984 . S
N2509 H2515 0.985 . S
C2510 C2504 1.379 . S
C2510 C2507 1.363 . S
C2510 N2508 1.368 . S
C2511 C2505 1.363 . S
C2511 C2506 1.379 . S
C2511 N2509 1.356 . S
N2512 C2504 1.356 1_655 S
N2512 H2518 0.984 . S
N2512 H2519 0.984 . S
N2513 C2506 1.356 . S
N2513 H2516 0.984 . S
N2513 H2517 0.985 . S
H2514 N2509 0.984 . S
H2515 N2509 0.985 . S
H2516 N2513 0.984 . S
H2517 N2513 0.985 . S
H2518 N2512 0.984 . S
H2519 N2512 0.984 . S
H2520 N2508 0.970 1_655 S
H2521 N2508 0.989 . S
C2522 C2523 1.363 . S
C2522 C2528 1.379 . S
C2522 N2530 1.356 . S
C2523 C2522 1.363 . S
C2523 C2529 1.363 . S
C2524 C2525 1.363 . S
C2524 C2529 1.379 . S
C2524 N2531 1.356 . S
C2525 C2524 1.363 . S
C2525 C2528 1.363 . S
N2526 C2528 1.356 . S
N2526 H2538 0.984 . S
N2526 H2539 0.985 . S
N2527 C2529 1.356 . S
N2527 H2532 0.984 . S
N2527 H2533 0.985 . S
C2528 C2522 1.379 . S
C2528 C2525 1.363 . S
C2528 N2526 1.356 . S
C2529 C2523 1.363 . S
C2529 C2524 1.379 . S
C2529 N2527 1.356 . S
N2530 C2522 1.356 . S
N2530 H2536 0.984 . S
N2530 H2537 0.984 . S
N2531 C2524 1.356 . S
N2531 H2534 0.984 . S
N2531 H2535 0.985 . S
H2532 N2527 0.984 . S
H2533 N2527 0.985 . S
H2534 N2531 0.984 . S
H2535 N2531 0.985 . S
H2536 N2530 0.984 . S
H2537 N2530 0.984 . S
H2538 N2526 0.984 . S
H2539 N2526 0.985 . S
C2540 C2541 1.363 . S
C2540 C2546 1.379 . S
C2540 N2548 1.356 . S
C2541 C2540 1.363 . S
C2541 C2547 1.363 . S
C2542 C2543 1.363 . S
C2542 C2547 1.379 . S
C2542 N2549 1.356 . S
C2543 C2542 1.363 . S
C2543 C2546 1.363 . S
N2544 C2546 1.356 . S
N2544 H2556 0.984 1_554 S
N2544 H2557 0.985 . S
N2545 C2547 1.356 . S
N2545 H2550 0.984 . S
N2545 H2551 0.985 . S
C2546 C2540 1.379 . S
C2546 C2543 1.363 . S
C2546 N2544 1.356 . S
C2547 C2541 1.363 . S
C2547 C2542 1.379 . S
C2547 N2545 1.356 . S
N2548 C2540 1.356 . S
N2548 H2554 0.984 . S
N2548 H2555 0.984 . S
N2549 C2542 1.356 . S
N2549 H2552 0.984 . S
N2549 H2553 0.985 . S
H2550 N2545 0.984 . S
H2551 N2545 0.985 . S
H2552 N2549 0.984 . S
H2553 N2549 0.985 . S
H2554 N2548 0.984 . S
H2555 N2548 0.984 . S
H2556 N2544 0.984 1_556 S
H2557 N2544 0.985 . S
C2558 C2559 1.363 . S
C2558 C2564 1.379 . S
C2558 N2566 1.356 . S
C2559 C2558 1.363 . S
C2559 C2565 1.363 . S
C2560 C2561 1.363 . S
C2560 C2565 1.379 . S
C2560 N2567 1.356 . S
C2561 C2560 1.363 . S
C2561 C2564 1.363 . S
N2562 C2564 1.356 . S
N2562 H2574 0.984 . S
N2562 H2575 0.985 . S
N2563 C2565 1.356 . S
N2563 H2568 0.984 . S
N2563 H2569 0.985 . S
C2564 C2558 1.379 . S
C2564 C2561 1.363 . S
C2564 N2562 1.356 . S
C2565 C2559 1.363 . S
C2565 C2560 1.379 . S
C2565 N2563 1.356 . S
N2566 C2558 1.356 . S
N2566 H2572 0.984 . S
N2566 H2573 0.984 . S
N2567 C2560 1.356 . S
N2567 H2570 0.984 . S
N2567 H2571 0.985 . S
H2568 N2563 0.984 . S
H2569 N2563 0.985 . S
H2570 N2567 0.984 . S
H2571 N2567 0.985 . S
H2572 N2566 0.984 . S
H2573 N2566 0.984 . S
H2574 N2562 0.984 . S
H2575 N2562 0.985 . S
C2576 C2577 1.363 . S
C2576 C2582 1.379 . S
C2576 N2584 1.356 . S
C2577 C2576 1.363 . S
C2577 C2583 1.363 . S
C2578 C2579 1.363 . S
C2578 C2583 1.379 . S
C2578 N2585 1.356 1_655 S
C2579 C2578 1.363 . S
C2579 C2582 1.363 . S
N2580 C2582 1.356 . S
N2580 H2592 0.984 . S
N2580 H2593 0.985 . S
N2581 C2583 1.356 . S
N2581 H2586 0.984 . S
N2581 H2587 0.985 . S
C2582 C2576 1.379 . S
C2582 C2579 1.363 . S
C2582 N2580 1.356 . S
C2583 C2577 1.363 . S
C2583 C2578 1.379 . S
C2583 N2581 1.356 . S
N2584 C2576 1.356 . S
N2584 H2590 0.984 . S
N2584 H2591 0.984 . S
N2585 C2578 1.356 1_455 S
N2585 H2588 0.984 . S
N2585 H2589 0.985 . S
H2586 N2581 0.984 . S
H2587 N2581 0.985 . S
H2588 N2585 0.984 . S
H2589 N2585 0.985 . S
H2590 N2584 0.984 . S
H2591 N2584 0.984 . S
H2592 N2580 0.984 . S
H2593 N2580 0.985 . S
C2594 C2595 1.363 . S
C2594 C2600 1.379 . S
C2594 N2602 1.356 . S
C2595 C2594 1.363 . S
C2595 C2601 1.363 . S
C2596 C2597 1.363 . S
C2596 C2601 1.379 . S
C2596 N2603 1.356 . S
C2597 C2596 1.363 . S
C2597 C2600 1.363 . S
N2598 C2600 1.356 . S
N2598 H2610 0.984 . S
N2598 H2611 0.985 . S
N2599 C2601 1.356 . S
N2599 H2604 0.984 . S
N2599 H2605 0.985 . S
C2600 C2594 1.379 . S
C2600 C2597 1.363 . S
C2600 N2598 1.356 . S
C2601 C2595 1.363 . S
C2601 C2596 1.379 . S
C2601 N2599 1.356 . S
N2602 C2594 1.356 . S
N2602 H2608 0.984 . S
N2602 H2609 0.984 . S
N2603 C2596 1.356 . S
N2603 H2606 0.984 . S
N2603 H2607 0.985 . S
H2604 N2599 0.984 . S
H2605 N2599 0.985 . S
H2606 N2603 0.984 . S
H2607 N2603 0.985 . S
H2608 N2602 0.984 . S
H2609 N2602 0.984 . S
H2610 N2598 0.984 . S
H2611 N2598 0.985 . S
C2612 C2613 1.363 . S
C2612 C2618 1.379 . S
C2612 N2620 1.356 . S
C2613 C2612 1.363 . S
C2613 C2619 1.363 1_545 S
C2614 C2615 1.363 . S
C2614 C2619 1.379 1_545 S
C2614 N2621 1.356 1_545 S
C2615 C2614 1.363 . S
C2615 C2618 1.363 . S
N2616 C2618 1.356 . S
N2616 H2628 0.984 . S
N2616 H2629 0.985 . S
N2617 C2619 1.356 . S
N2617 H2622 0.984 . S
N2617 H2623 0.985 . S
C2618 C2612 1.379 . S
C2618 C2615 1.363 . S
C2618 N2616 1.356 . S
C2619 C2613 1.363 1_565 S
C2619 C2614 1.379 1_565 S
C2619 N2617 1.356 . S
N2620 C2612 1.356 . S
N2620 H2626 0.984 . S
N2620 H2627 0.984 . S
N2621 C2614 1.356 1_565 S
N2621 H2624 0.984 1_565 S
N2621 H2625 0.985 . S
H2622 N2617 0.984 . S
H2623 N2617 0.985 . S
H2624 N2621 0.984 1_545 S
H2625 N2621 0.985 . S
H2626 N2620 0.984 . S
H2627 N2620 0.984 . S
H2628 N2616 0.984 . S
H2629 N2616 0.985 . S
C2630 C2631 1.363 . S
C2630 C2636 1.379 . S
C2630 N2638 1.356 . S
C2631 C2630 1.363 . S
C2631 C2637 1.363 . S
C2632 C2633 1.363 . S
C2632 C2637 1.379 . S
C2632 N2639 1.356 . S
C2633 C2632 1.363 . S
C2633 C2636 1.363 . S
N2634 C2636 1.356 . S
N2634 H2646 0.984 . S
N2634 H2647 0.985 . S
N2635 C2637 1.356 . S
N2635 H2640 0.984 . S
N2635 H2641 0.985 . S
C2636 C2630 1.379 . S
C2636 C2633 1.363 . S
C2636 N2634 1.356 . S
C2637 C2631 1.363 . S
C2637 C2632 1.379 . S
C2637 N2635 1.356 . S
N2638 C2630 1.356 . S
N2638 H2644 0.984 . S
N2638 H2645 0.984 . S
N2639 C2632 1.356 . S
N2639 H2642 0.984 . S
N2639 H2643 0.985 . S
H2640 N2635 0.984 . S
H2641 N2635 0.985 . S
H2642 N2639 0.984 . S
H2643 N2639 0.985 . S
H2644 N2638 0.984 . S
H2645 N2638 0.984 . S
H2646 N2634 0.984 . S
H2647 N2634 0.985 . S
C2648 C2649 1.363 1_455 S
C2648 C2654 1.379 . S
C2648 N2656 1.356 . S
C2649 C2648 1.363 1_655 S
C2649 C2655 1.363 . S
C2650 C2651 1.363 . S
C2650 C2655 1.379 . S
C2650 N2657 1.356 . S
C2651 C2650 1.363 . S
C2651 C2654 1.363 1_655 S
N2652 C2654 1.356 . S
N2652 H2664 0.984 . S
N2652 H2665 0.985 . S
N2653 C2655 1.356 . S
N2653 H2658 0.984 . S
N2653 H2659 0.985 . S
C2654 C2648 1.379 . S
C2654 C2651 1.363 1_455 S
C2654 N2652 1.356 . S
C2655 C2649 1.363 . S
C2655 C2650 1.379 . S
C2655 N2653 1.356 . S
N2656 C2648 1.356 . S
N2656 H2662 0.984 . S
N2656 H2663 0.984 . S
N2657 C2650 1.356 . S
N2657 H2660 0.984 . S
N2657 H2661 0.985 . S
H2658 N2653 0.984 . S
H2659 N2653 0.985 . S
H2660 N2657 0.984 . S
H2661 N2657 0.985 . S
H2662 N2656 0.984 . S
H2663 N2656 0.984 . S
H2664 N2652 0.984 . S
H2665 N2652 0.985 . S
C2666 C2667 1.363 . S
C2666 C2672 1.379 . S
C2666 N2674 1.356 . S
C2667 C2666 1.363 . S
C2667 C2673 1.363 . S
C2668 C2669 1.363 . S
C2668 C2673 1.379 . S
C2668 N2675 1.356 . S
C2669 C2668 1.363 . S
C2669 C2672 1.363 . S
N2670 C2672 1.356 . S
N2670 H2682 0.984 . S
N2670 H2683 0.985 . S
N2671 C2673 1.356 . S
N2671 H2676 0.984 . S
N2671 H2677 0.985 . S
C2672 C2666 1.379 . S
C2672 C2669 1.363 . S
C2672 N2670 1.356 . S
C2673 C2667 1.363 . S
C2673 C2668 1.379 . S
C2673 N2671 1.356 . S
N2674 C2666 1.356 . S
N2674 H2680 0.984 . S
N2674 H2681 0.984 . S
N2675 C2668 1.356 . S
N2675 H2678 0.984 . S
N2675 H2679 0.985 . S
H2676 N2671 0.984 . S
H2677 N2671 0.985 . S
H2678 N2675 0.984 . S
H2679 N2675 0.985 . S
H2680 N2674 0.984 . S
H2681 N2674 0.984 . S
H2682 N2670 0.984 . S
H2683 N2670 0.985 . S
C2684 C2685 1.363 . S
C2684 C2690 1.379 . S
C2684 N2692 1.356 . S
C2685 C2684 1.363 . S
C2685 C2691 1.370 . S
C2686 C2687 1.363 . S
C2686 C2691 1.385 . S
C2686 N2693 1.356 . S
C2687 C2686 1.363 . S
C2687 C2690 1.363 . S
N2688 C2690 1.356 . S
N2688 H2700 0.984 . S
N2688 H2701 0.985 . S
N2689 C2691 1.344 1_565 S
N2689 H2694 0.984 . S
N2689 H2695 0.985 . S
C2690 C2684 1.379 . S
C2690 C2687 1.363 . S
C2690 N2688 1.356 . S
C2691 C2685 1.370 . S
C2691 C2686 1.385 . S
C2691 N2689 1.344 1_545 S
N2692 C2684 1.356 . S
N2692 H2698 0.984 . S
N2692 H2699 0.984 . S
N2693 C2686 1.356 . S
N2693 H2696 0.984 . S
N2693 H2697 0.985 1_545 S
H2694 N2689 0.984 . S
H2695 N2689 0.985 . S
H2696 N2693 0.984 . S
H2697 N2693 0.985 1_565 S
H2698 N2692 0.984 . S
H2699 N2692 0.984 . S
H2700 N2688 0.984 . S
H2701 N2688 0.985 . S
C2702 C2703 1.363 . S
C2702 C2708 1.379 . S
C2702 N2710 1.356 . S
C2703 C2702 1.363 . S
C2703 C2709 1.363 . S
C2704 C2705 1.363 . S
C2704 C2709 1.379 . S
C2704 N2711 1.356 . S
C2705 C2704 1.363 . S
C2705 C2708 1.363 . S
N2706 C2708 1.356 . S
N2706 H2718 0.984 . S
N2706 H2719 0.985 . S
N2707 C2709 1.356 . S
N2707 H2712 0.984 . S
N2707 H2713 0.985 . S
C2708 C2702 1.379 . S
C2708 C2705 1.363 . S
C2708 N2706 1.356 . S
C2709 C2703 1.363 . S
C2709 C2704 1.379 . S
C2709 N2707 1.356 . S
N2710 C2702 1.356 . S
N2710 H2716 0.984 . S
N2710 H2717 0.984 . S
N2711 C2704 1.356 . S
N2711 H2714 0.984 . S
N2711 H2715 0.985 . S
H2712 N2707 0.984 . S
H2713 N2707 0.985 . S
H2714 N2711 0.984 . S
H2715 N2711 0.985 . S
H2716 N2710 0.984 . S
H2717 N2710 0.984 . S
H2718 N2706 0.984 . S
H2719 N2706 0.985 . S
C2720 C2721 1.363 . S
C2720 C2726 1.379 . S
C2720 N2728 1.356 . S
C2721 C2720 1.363 . S
C2721 C2727 1.363 . S
C2722 C2723 1.362 . S
C2722 C2727 1.379 1_545 S
C2722 N2729 1.369 . S
C2723 C2722 1.362 . S
C2723 C2726 1.365 1_545 S
N2724 C2726 1.356 . S
N2724 H2736 0.984 . S
N2724 H2737 0.985 . S
N2725 C2727 1.344 1_546 S
N2725 H2730 0.981 1_546 S
N2725 H2731 1.001 . S
C2726 C2720 1.379 . S
C2726 C2723 1.365 1_565 S
C2726 N2724 1.356 . S
C2727 C2721 1.363 . S
C2727 C2722 1.379 1_565 S
C2727 N2725 1.344 1_564 S
N2728 C2720 1.356 . S
N2728 H2734 0.984 . S
N2728 H2735 0.984 . S
N2729 C2722 1.369 . S
N2729 H2732 0.993 . S
N2729 H2733 0.964 1_554 S
H2730 N2725 0.981 1_564 S
H2731 N2725 1.001 . S
H2732 N2729 0.993 . S
H2733 N2729 0.964 1_556 S
H2734 N2728 0.984 . S
H2735 N2728 0.984 . S
H2736 N2724 0.984 . S
H2737 N2724 0.985 . S
C2738 C2739 1.363 . S
C2738 C2744 1.379 . S
C2738 N2746 1.356 . S
C2739 C2738 1.363 . S
C2739 C2745 1.363 1_556 S
C2740 C2741 1.367 . S
C2740 C2745 1.379 . S
C2740 N2747 1.356 . S
C2741 C2740 1.367 . S
C2741 C2744 1.352 1_554 S
N2742 C2744 1.356 . S
N2742 H2754 0.984 . S
N2742 H2755 0.985 . S
N2743 C2745 1.356 . S
N2743 H2748 0.984 . S
N2743 H2749 0.985 . S
C2744 C2738 1.379 . S
C2744 C2741 1.352 1_556 S
C2744 N2742 1.356 . S
C2745 C2739 1.363 1_554 S
C2745 C2740 1.379 . S
C2745 N2743 1.356 . S
N2746 C2738 1.356 . S
N2746 H2752 0.984 . S
N2746 H2753 0.984 . S
N2747 C2740 1.356 . S
N2747 H2750 0.984 . S
N2747 H2751 0.985 . S
H2748 N2743 0.984 . S
H2749 N2743 0.985 . S
H2750 N2747 0.984 . S
H2751 N2747 0.985 . S
H2752 N2746 0.984 . S
H2753 N2746 0.984 . S
H2754 N2742 0.984 . S
H2755 N2742 0.985 . S
C2756 C2757 1.363 . S
C2756 C2762 1.379 . S
C2756 N2764 1.356 . S
C2757 C2756 1.363 . S
C2757 C2763 1.363 . S
C2758 C2759 1.363 . S
C2758 C2763 1.379 . S
C2758 N2765 1.356 . S
C2759 C2758 1.363 . S
C2759 C2762 1.363 . S
N2760 C2762 1.356 . S
N2760 H2772 0.984 . S
N2760 H2773 0.985 . S
N2761 C2763 1.356 . S
N2761 H2766 0.984 . S
N2761 H2767 0.985 . S
C2762 C2756 1.379 . S
C2762 C2759 1.363 . S
C2762 N2760 1.356 . S
C2763 C2757 1.363 . S
C2763 C2758 1.379 . S
C2763 N2761 1.356 . S
N2764 C2756 1.356 . S
N2764 H2770 0.984 . S
N2764 H2771 0.984 . S
N2765 C2758 1.356 . S
N2765 H2768 0.984 . S
N2765 H2769 0.985 . S
H2766 N2761 0.984 . S
H2767 N2761 0.985 . S
H2768 N2765 0.984 . S
H2769 N2765 0.985 . S
H2770 N2764 0.984 . S
H2771 N2764 0.984 . S
H2772 N2760 0.984 . S
H2773 N2760 0.985 . S
C2774 C2775 1.363 . S
C2774 C2780 1.379 . S
C2774 N2782 1.356 . S
C2775 C2774 1.363 . S
C2775 C2781 1.363 . S
C2776 C2777 1.363 . S
C2776 C2781 1.379 . S
C2776 N2783 1.356 . S
C2777 C2776 1.363 . S
C2777 C2780 1.363 . S
N2778 C2780 1.356 . S
N2778 H2790 0.984 . S
N2778 H2791 0.985 . S
N2779 C2781 1.356 . S
N2779 H2784 0.984 . S
N2779 H2785 0.985 . S
C2780 C2774 1.379 . S
C2780 C2777 1.363 . S
C2780 N2778 1.356 . S
C2781 C2775 1.363 . S
C2781 C2776 1.379 . S
C2781 N2779 1.356 . S
N2782 C2774 1.356 . S
N2782 H2788 0.984 . S
N2782 H2789 0.984 . S
N2783 C2776 1.356 . S
N2783 H2786 0.984 . S
N2783 H2787 0.985 . S
H2784 N2779 0.984 . S
H2785 N2779 0.985 . S
H2786 N2783 0.984 . S
H2787 N2783 0.985 . S
H2788 N2782 0.984 . S
H2789 N2782 0.984 . S
H2790 N2778 0.984 . S
H2791 N2778 0.985 . S
C2792 C2793 1.363 . S
C2792 C2798 1.379 . S
C2792 N2800 1.356 . S
C2793 C2792 1.363 . S
C2793 C2799 1.363 . S
C2794 C2795 1.363 . S
C2794 C2799 1.379 . S
C2794 N2801 1.356 . S
C2795 C2794 1.363 . S
C2795 C2798 1.363 . S
N2796 C2798 1.356 . S
N2796 H2808 0.984 . S
N2796 H2809 0.985 . S
N2797 C2799 1.356 . S
N2797 H2802 0.984 . S
N2797 H2803 0.985 . S
C2798 C2792 1.379 . S
C2798 C2795 1.363 . S
C2798 N2796 1.356 . S
C2799 C2793 1.363 . S
C2799 C2794 1.379 . S
C2799 N2797 1.356 . S
N2800 C2792 1.356 . S
N2800 H2806 0.984 . S
N2800 H2807 0.984 . S
N2801 C2794 1.356 . S
N2801 H2804 0.984 . S
N2801 H2805 0.985 . S
H2802 N2797 0.984 . S
H2803 N2797 0.985 . S
H2804 N2801 0.984 . S
H2805 N2801 0.985 . S
H2806 N2800 0.984 . S
H2807 N2800 0.984 . S
H2808 N2796 0.984 . S
H2809 N2796 0.985 . S
C2810 C2811 1.363 . S
C2810 C2816 1.379 . S
C2810 N2818 1.356 . S
C2811 C2810 1.363 . S
C2811 C2817 1.363 . S
C2812 C2813 1.363 . S
C2812 C2817 1.379 . S
C2812 N2819 1.356 . S
C2813 C2812 1.363 . S
C2813 C2816 1.363 . S
N2814 C2816 1.356 . S
N2814 H2826 0.984 . S
N2814 H2827 0.985 . S
N2815 C2817 1.356 . S
N2815 H2820 0.984 . S
N2815 H2821 0.985 . S
C2816 C2810 1.379 . S
C2816 C2813 1.363 . S
C2816 N2814 1.356 . S
C2817 C2811 1.363 . S
C2817 C2812 1.379 . S
C2817 N2815 1.356 . S
N2818 C2810 1.356 . S
N2818 H2824 0.984 . S
N2818 H2825 0.984 . S
N2819 C2812 1.356 . S
N2819 H2822 0.984 . S
N2819 H2823 0.985 . S
H2820 N2815 0.984 . S
H2821 N2815 0.985 . S
H2822 N2819 0.984 . S
H2823 N2819 0.985 . S
H2824 N2818 0.984 . S
H2825 N2818 0.984 . S
H2826 N2814 0.984 . S
H2827 N2814 0.985 . S
C2828 C2829 1.363 . S
C2828 C2834 1.379 . S
C2828 N2836 1.356 . S
C2829 C2828 1.363 . S
C2829 C2835 1.363 . S
C2830 C2831 1.363 . S
C2830 C2835 1.379 . S
C2830 N2837 1.356 . S
C2831 C2830 1.363 . S
C2831 C2834 1.363 . S
N2832 C2834 1.356 . S
N2832 H2844 0.984 . S
N2832 H2845 0.985 . S
N2833 C2835 1.356 . S
N2833 H2838 0.984 . S
N2833 H2839 0.985 . S
C2834 C2828 1.379 . S
C2834 C2831 1.363 . S
C2834 N2832 1.356 . S
C2835 C2829 1.363 . S
C2835 C2830 1.379 . S
C2835 N2833 1.356 . S
N2836 C2828 1.356 . S
N2836 H2842 0.984 . S
N2836 H2843 0.984 . S
N2837 C2830 1.356 . S
N2837 H2840 0.984 . S
N2837 H2841 0.985 . S
H2838 N2833 0.984 . S
H2839 N2833 0.985 . S
H2840 N2837 0.984 . S
H2841 N2837 0.985 . S
H2842 N2836 0.984 . S
H2843 N2836 0.984 . S
H2844 N2832 0.984 . S
H2845 N2832 0.985 . S
C2846 C2847 1.363 . S
C2846 C2852 1.379 . S
C2846 N2854 1.356 . S
C2847 C2846 1.363 . S
C2847 C2853 1.363 . S
C2848 C2849 1.363 . S
C2848 C2853 1.379 . S
C2848 N2855 1.356 . S
C2849 C2848 1.363 . S
C2849 C2852 1.363 . S
N2850 C2852 1.356 . S
N2850 H2862 0.984 . S
N2850 H2863 0.985 . S
N2851 C2853 1.356 . S
N2851 H2856 0.984 . S
N2851 H2857 0.985 . S
C2852 C2846 1.379 . S
C2852 C2849 1.363 . S
C2852 N2850 1.356 . S
C2853 C2847 1.363 . S
C2853 C2848 1.379 . S
C2853 N2851 1.356 . S
N2854 C2846 1.356 . S
N2854 H2860 0.984 . S
N2854 H2861 0.984 . S
N2855 C2848 1.356 . S
N2855 H2858 0.984 . S
N2855 H2859 0.985 . S
H2856 N2851 0.984 . S
H2857 N2851 0.985 . S
H2858 N2855 0.984 . S
H2859 N2855 0.985 . S
H2860 N2854 0.984 . S
H2861 N2854 0.984 . S
H2862 N2850 0.984 . S
H2863 N2850 0.985 . S
C2864 C2865 1.363 . S
C2864 C2870 1.379 . S
C2864 N2872 1.356 . S
C2865 C2864 1.363 . S
C2865 C2871 1.363 . S
C2866 C2867 1.363 . S
C2866 C2871 1.379 . S
C2866 N2873 1.356 . S
C2867 C2866 1.363 . S
C2867 C2870 1.363 . S
N2868 C2870 1.361 . S
N2868 H2880 0.980 1_455 S
N2868 H2881 0.985 . S
N2869 C2871 1.356 . S
N2869 H2874 0.984 . S
N2869 H2875 0.985 . S
C2870 C2864 1.379 . S
C2870 C2867 1.363 . S
C2870 N2868 1.361 . S
C2871 C2865 1.363 . S
C2871 C2866 1.379 . S
C2871 N2869 1.356 . S
N2872 C2864 1.356 . S
N2872 H2878 0.984 1_455 S
N2872 H2879 0.984 . S
N2873 C2866 1.356 . S
N2873 H2876 0.984 1_554 S
N2873 H2877 0.985 1_554 S
H2874 N2869 0.984 . S
H2875 N2869 0.985 . S
H2876 N2873 0.984 1_556 S
H2877 N2873 0.985 1_556 S
H2878 N2872 0.984 1_655 S
H2879 N2872 0.984 . S
H2880 N2868 0.980 1_655 S
H2881 N2868 0.985 . S
C2882 C2883 1.363 . S
C2882 C2888 1.379 . S
C2882 N2890 1.356 . S
C2883 C2882 1.363 . S
C2883 C2889 1.363 . S
C2884 C2885 1.363 . S
C2884 C2889 1.379 . S
C2884 N2891 1.356 . S
C2885 C2884 1.363 . S
C2885 C2888 1.363 . S
N2886 C2888 1.356 . S
N2886 H2898 0.984 . S
N2886 H2899 0.985 . S
N2887 C2889 1.356 . S
N2887 H2892 0.984 . S
N2887 H2893 0.985 . S
C2888 C2882 1.379 . S
C2888 C2885 1.363 . S
C2888 N2886 1.356 . S
C2889 C2883 1.363 . S
C2889 C2884 1.379 . S
C2889 N2887 1.356 . S
N2890 C2882 1.356 . S
N2890 H2896 0.984 . S
N2890 H2897 0.984 . S
N2891 C2884 1.356 . S
N2891 H2894 0.984 . S
N2891 H2895 0.985 . S
H2892 N2887 0.984 . S
H2893 N2887 0.985 . S
H2894 N2891 0.984 . S
H2895 N2891 0.985 . S
H2896 N2890 0.984 . S
H2897 N2890 0.984 . S
H2898 N2886 0.984 . S
H2899 N2886 0.985 . S
C2900 C2901 1.363 . S
C2900 C2906 1.379 . S
C2900 N2908 1.356 . S
C2901 C2900 1.363 . S
C2901 C2907 1.363 . S
C2902 C2903 1.363 . S
C2902 C2907 1.379 . S
C2902 N2909 1.356 . S
C2903 C2902 1.363 . S
C2903 C2906 1.363 . S
N2904 C2906 1.356 . S
N2904 H2916 0.984 . S
N2904 H2917 0.985 . S
N2905 C2907 1.356 . S
N2905 H2910 0.984 . S
N2905 H2911 0.985 . S
C2906 C2900 1.379 . S
C2906 C2903 1.363 . S
C2906 N2904 1.356 . S
C2907 C2901 1.363 . S
C2907 C2902 1.379 . S
C2907 N2905 1.356 . S
N2908 C2900 1.356 . S
N2908 H2914 0.984 . S
N2908 H2915 0.984 . S
N2909 C2902 1.356 . S
N2909 H2912 0.984 . S
N2909 H2913 0.985 . S
H2910 N2905 0.984 . S
H2911 N2905 0.985 . S
H2912 N2909 0.984 . S
H2913 N2909 0.985 . S
H2914 N2908 0.984 . S
H2915 N2908 0.984 . S
H2916 N2904 0.984 . S
H2917 N2904 0.985 . S
C2918 C2919 1.363 . S
C2918 C2924 1.379 . S
C2918 N2926 1.356 . S
C2919 C2918 1.363 . S
C2919 C2925 1.363 . S
C2920 C2921 1.363 . S
C2920 C2925 1.379 . S
C2920 N2927 1.356 . S
C2921 C2920 1.363 . S
C2921 C2924 1.363 . S
N2922 C2924 1.356 . S
N2922 H2934 0.984 . S
N2922 H2935 0.985 . S
N2923 C2925 1.356 . S
N2923 H2928 0.984 . S
N2923 H2929 0.985 . S
C2924 C2918 1.379 . S
C2924 C2921 1.363 . S
C2924 N2922 1.356 . S
C2925 C2919 1.363 . S
C2925 C2920 1.379 . S
C2925 N2923 1.356 . S
N2926 C2918 1.356 . S
N2926 H2932 0.984 . S
N2926 H2933 0.984 . S
N2927 C2920 1.356 . S
N2927 H2930 0.984 . S
N2927 H2931 0.985 . S
H2928 N2923 0.984 . S
H2929 N2923 0.985 . S
H2930 N2927 0.984 . S
H2931 N2927 0.985 . S
H2932 N2926 0.984 . S
H2933 N2926 0.984 . S
H2934 N2922 0.984 . S
H2935 N2922 0.985 . S
C2936 C2937 1.363 1_655 S
C2936 C2942 1.379 . S
C2936 N2944 1.356 . S
C2937 C2936 1.363 1_455 S
C2937 C2943 1.363 . S
C2938 C2939 1.363 . S
C2938 C2943 1.379 . S
C2938 N2945 1.356 . S
C2939 C2938 1.363 . S
C2939 C2942 1.363 1_455 S
N2940 C2942 1.356 . S
N2940 H2952 0.984 . S
N2940 H2953 0.985 . S
N2941 C2943 1.356 . S
N2941 H2946 0.984 . S
N2941 H2947 0.985 . S
C2942 C2936 1.379 . S
C2942 C2939 1.363 1_655 S
C2942 N2940 1.356 . S
C2943 C2937 1.363 . S
C2943 C2938 1.379 . S
C2943 N2941 1.356 . S
N2944 C2936 1.356 . S
N2944 H2950 0.984 . S
N2944 H2951 0.984 . S
N2945 C2938 1.356 . S
N2945 H2948 0.984 . S
N2945 H2949 0.985 . S
H2946 N2941 0.984 . S
H2947 N2941 0.985 . S
H2948 N2945 0.984 . S
H2949 N2945 0.985 . S
H2950 N2944 0.984 . S
H2951 N2944 0.984 . S
H2952 N2940 0.984 . S
H2953 N2940 0.985 . S
C2954 C2955 1.363 . S
C2954 C2960 1.379 . S
C2954 N2962 1.356 . S
C2955 C2954 1.363 . S
C2955 C2961 1.363 . S
C2956 C2957 1.363 . S
C2956 C2961 1.379 . S
C2956 N2963 1.356 . S
C2957 C2956 1.363 . S
C2957 C2960 1.363 . S
N2958 C2960 1.356 . S
N2958 H2970 0.984 . S
N2958 H2971 0.985 . S
N2959 C2961 1.356 . S
N2959 H2964 0.984 . S
N2959 H2965 0.985 . S
C2960 C2954 1.379 . S
C2960 C2957 1.363 . S
C2960 N2958 1.356 . S
C2961 C2955 1.363 . S
C2961 C2956 1.379 . S
C2961 N2959 1.356 . S
N2962 C2954 1.356 . S
N2962 H2968 0.984 . S
N2962 H2969 0.984 . S
N2963 C2956 1.356 . S
N2963 H2966 0.984 . S
N2963 H2967 0.985 . S
H2964 N2959 0.984 . S
H2965 N2959 0.985 . S
H2966 N2963 0.984 . S
H2967 N2963 0.985 . S
H2968 N2962 0.984 . S
H2969 N2962 0.984 . S
H2970 N2958 0.984 . S
H2971 N2958 0.985 . S
C2972 C2973 1.363 . S
C2972 C2978 1.379 . S
C2972 N2980 1.356 . S
C2973 C2972 1.363 . S
C2973 C2979 1.363 . S
C2974 C2975 1.363 . S
C2974 C2979 1.379 . S
C2974 N2981 1.356 . S
C2975 C2974 1.363 . S
C2975 C2978 1.363 . S
N2976 C2978 1.368 . S
N2976 H2988 0.978 1_556 S
N2976 H2989 0.981 1_556 S
N2977 C2979 1.356 . S
N2977 H2982 0.984 . S
N2977 H2983 0.985 . S
C2978 C2972 1.379 . S
C2978 C2975 1.363 . S
C2978 N2976 1.368 . S
C2979 C2973 1.363 . S
C2979 C2974 1.379 . S
C2979 N2977 1.356 . S
N2980 C2972 1.356 . S
N2980 H2986 0.984 . S
N2980 H2987 0.984 . S
N2981 C2974 1.356 . S
N2981 H2984 0.984 . S
N2981 H2985 0.985 . S
H2982 N2977 0.984 . S
H2983 N2977 0.985 . S
H2984 N2981 0.984 . S
H2985 N2981 0.985 . S
H2986 N2980 0.984 . S
H2987 N2980 0.984 . S
H2988 N2976 0.978 1_554 S
H2989 N2976 0.981 1_554 S
C2990 C2991 1.363 . S
C2990 C2996 1.379 . S
C2990 N2998 1.356 . S
C2991 C2990 1.363 . S
C2991 C2997 1.363 . S
C2992 C2993 1.363 . S
C2992 C2997 1.379 . S
C2992 N2999 1.356 . S
C2993 C2992 1.363 . S
C2993 C2996 1.363 . S
N2994 C2996 1.356 . S
N2994 H3006 0.984 . S
N2994 H3007 0.985 . S
N2995 C2997 1.356 . S
N2995 H3000 0.984 . S
N2995 H3001 0.985 . S
C2996 C2990 1.379 . S
C2996 C2993 1.363 . S
C2996 N2994 1.356 . S
C2997 C2991 1.363 . S
C2997 C2992 1.379 . S
C2997 N2995 1.356 . S
N2998 C2990 1.356 . S
N2998 H3004 0.984 . S
N2998 H3005 0.984 . S
N2999 C2992 1.356 . S
N2999 H3002 0.984 . S
N2999 H3003 0.985 . S
H3000 N2995 0.984 . S
H3001 N2995 0.985 . S
H3002 N2999 0.984 . S
H3003 N2999 0.985 . S
H3004 N2998 0.984 . S
H3005 N2998 0.984 . S
H3006 N2994 0.984 . S
H3007 N2994 0.985 . S
C3008 C3009 1.363 1_545 S
C3008 C3014 1.379 . S
C3008 N3016 1.356 . S
C3009 C3008 1.363 1_565 S
C3009 C3015 1.363 . S
C3010 C3011 1.363 1_565 S
C3010 C3015 1.379 . S
C3010 N3017 1.356 1_455 S
C3011 C3010 1.363 1_545 S
C3011 C3014 1.363 . S
N3012 C3014 1.356 . S
N3012 H3024 0.984 . S
N3012 H3025 0.985 . S
N3013 C3015 1.356 . S
N3013 H3018 0.984 . S
N3013 H3019 0.985 1_455 S
C3014 C3008 1.379 . S
C3014 C3011 1.363 . S
C3014 N3012 1.356 . S
C3015 C3009 1.363 . S
C3015 C3010 1.379 . S
C3015 N3013 1.356 . S
N3016 C3008 1.356 . S
N3016 H3022 0.984 . S
N3016 H3023 0.984 . S
N3017 C3010 1.356 1_655 S
N3017 H3020 0.984 . S
N3017 H3021 0.985 . S
H3018 N3013 0.984 . S
H3019 N3013 0.985 1_655 S
H3020 N3017 0.984 . S
H3021 N3017 0.985 . S
H3022 N3016 0.984 . S
H3023 N3016 0.984 . S
H3024 N3012 0.984 . S
H3025 N3012 0.985 . S
C3026 C3027 1.363 . S
C3026 C3032 1.379 . S
C3026 N3034 1.356 . S
C3027 C3026 1.363 . S
C3027 C3033 1.363 . S
C3028 C3029 1.363 . S
C3028 C3033 1.379 . S
C3028 N3035 1.356 . S
C3029 C3028 1.363 . S
C3029 C3032 1.363 . S
N3030 C3032 1.356 . S
N3030 H3042 0.984 . S
N3030 H3043 0.985 . S
N3031 C3033 1.356 . S
N3031 H3036 0.984 . S
N3031 H3037 0.985 . S
C3032 C3026 1.379 . S
C3032 C3029 1.363 . S
C3032 N3030 1.356 . S
C3033 C3027 1.363 . S
C3033 C3028 1.379 . S
C3033 N3031 1.356 . S
N3034 C3026 1.356 . S
N3034 H3040 0.984 . S
N3034 H3041 0.984 . S
N3035 C3028 1.356 . S
N3035 H3038 0.984 . S
N3035 H3039 0.985 . S
H3036 N3031 0.984 . S
H3037 N3031 0.985 . S
H3038 N3035 0.984 . S
H3039 N3035 0.985 . S
H3040 N3034 0.984 . S
H3041 N3034 0.984 . S
H3042 N3030 0.984 . S
H3043 N3030 0.985 . S
C3044 C3045 1.363 . S
C3044 C3050 1.379 . S
C3044 N3052 1.356 . S
C3045 C3044 1.363 . S
C3045 C3051 1.363 . S
C3046 C3047 1.363 . S
C3046 C3051 1.379 . S
C3046 N3053 1.383 . S
C3047 C3046 1.363 . S
C3047 C3050 1.363 . S
N3048 C3050 1.356 . S
N3048 H3060 0.984 . S
N3048 H3061 0.985 . S
N3049 C3051 1.356 . S
N3049 H3054 0.984 . S
N3049 H3055 0.985 . S
C3050 C3044 1.379 . S
C3050 C3047 1.363 . S
C3050 N3048 1.356 . S
C3051 C3045 1.363 . S
C3051 C3046 1.379 . S
C3051 N3049 1.356 . S
N3052 C3044 1.356 . S
N3052 H3058 0.984 . S
N3052 H3059 0.984 . S
N3053 C3046 1.383 . S
N3053 H3056 0.985 . S
N3053 H3057 0.962 1_545 S
H3054 N3049 0.984 . S
H3055 N3049 0.985 . S
H3056 N3053 0.985 . S
H3057 N3053 0.962 1_565 S
H3058 N3052 0.984 . S
H3059 N3052 0.984 . S
H3060 N3048 0.984 . S
H3061 N3048 0.985 . S
C3062 C3063 1.363 . S
C3062 C3068 1.379 . S
C3062 N3070 1.356 . S
C3063 C3062 1.363 . S
C3063 C3069 1.363 . S
C3064 C3065 1.363 . S
C3064 C3069 1.379 . S
C3064 N3071 1.356 . S
C3065 C3064 1.363 . S
C3065 C3068 1.363 . S
N3066 C3068 1.356 . S
N3066 H3078 0.984 . S
N3066 H3079 0.985 . S
N3067 C3069 1.356 . S
N3067 H3072 0.984 . S
N3067 H3073 0.985 . S
C3068 C3062 1.379 . S
C3068 C3065 1.363 . S
C3068 N3066 1.356 . S
C3069 C3063 1.363 . S
C3069 C3064 1.379 . S
C3069 N3067 1.356 . S
N3070 C3062 1.356 . S
N3070 H3076 0.984 . S
N3070 H3077 0.984 . S
N3071 C3064 1.356 . S
N3071 H3074 0.984 . S
N3071 H3075 0.985 . S
H3072 N3067 0.984 . S
H3073 N3067 0.985 . S
H3074 N3071 0.984 . S
H3075 N3071 0.985 . S
H3076 N3070 0.984 . S
H3077 N3070 0.984 . S
H3078 N3066 0.984 . S
H3079 N3066 0.985 . S
C3080 C3081 1.363 . S
C3080 C3086 1.379 . S
C3080 N3088 1.356 . S
C3081 C3080 1.363 . S
C3081 C3087 1.363 1_565 S
C3082 C3083 1.363 . S
C3082 C3087 1.379 . S
C3082 N3089 1.356 . S
C3083 C3082 1.363 . S
C3083 C3086 1.363 1_545 S
N3084 C3086 1.356 . S
N3084 H3096 0.984 . S
N3084 H3097 0.970 1_565 S
N3085 C3087 1.356 . S
N3085 H3090 0.984 . S
N3085 H3091 0.985 . S
C3086 C3080 1.379 . S
C3086 C3083 1.363 1_565 S
C3086 N3084 1.356 . S
C3087 C3081 1.363 1_545 S
C3087 C3082 1.379 . S
C3087 N3085 1.356 . S
N3088 C3080 1.356 . S
N3088 H3094 0.984 . S
N3088 H3095 0.984 . S
N3089 C3082 1.356 . S
N3089 H3092 0.984 . S
N3089 H3093 0.985 . S
H3090 N3085 0.984 . S
H3091 N3085 0.985 . S
H3092 N3089 0.984 . S
H3093 N3089 0.985 . S
H3094 N3088 0.984 . S
H3095 N3088 0.984 . S
H3096 N3084 0.984 . S
H3097 N3084 0.970 1_545 S
C3098 C3099 1.363 . S
C3098 C3104 1.379 . S
C3098 N3106 1.356 . S
C3099 C3098 1.363 . S
C3099 C3105 1.363 . S
C3100 C3101 1.363 . S
C3100 C3105 1.379 . S
C3100 N3107 1.356 . S
C3101 C3100 1.363 . S
C3101 C3104 1.363 . S
N3102 C3104 1.356 . S
N3102 H3114 0.984 . S
N3102 H3115 0.985 . S
N3103 C3105 1.356 . S
N3103 H3108 0.984 . S
N3103 H3109 0.985 . S
C3104 C3098 1.379 . S
C3104 C3101 1.363 . S
C3104 N3102 1.356 . S
C3105 C3099 1.363 . S
C3105 C3100 1.379 . S
C3105 N3103 1.356 . S
N3106 C3098 1.356 . S
N3106 H3112 0.984 . S
N3106 H3113 0.984 . S
N3107 C3100 1.356 . S
N3107 H3110 0.984 . S
N3107 H3111 0.985 . S
H3108 N3103 0.984 . S
H3109 N3103 0.985 . S
H3110 N3107 0.984 . S
H3111 N3107 0.985 . S
H3112 N3106 0.984 . S
H3113 N3106 0.984 . S
H3114 N3102 0.984 . S
H3115 N3102 0.985 . S
C3116 C3117 1.363 . S
C3116 C3122 1.379 . S
C3116 N3124 1.356 . S
C3117 C3116 1.363 . S
C3117 C3123 1.363 . S
C3118 C3119 1.363 . S
C3118 C3123 1.379 . S
C3118 N3125 1.356 . S
C3119 C3118 1.363 . S
C3119 C3122 1.363 . S
N3120 C3122 1.356 . S
N3120 H3132 0.984 . S
N3120 H3133 0.985 . S
N3121 C3123 1.356 . S
N3121 H3126 0.984 . S
N3121 H3127 0.985 . S
C3122 C3116 1.379 . S
C3122 C3119 1.363 . S
C3122 N3120 1.356 . S
C3123 C3117 1.363 . S
C3123 C3118 1.379 . S
C3123 N3121 1.356 . S
N3124 C3116 1.356 . S
N3124 H3130 0.984 . S
N3124 H3131 0.984 . S
N3125 C3118 1.356 . S
N3125 H3128 0.986 . S
N3125 H3129 0.985 1_545 S
H3126 N3121 0.984 . S
H3127 N3121 0.985 . S
H3128 N3125 0.986 . S
H3129 N3125 0.985 1_565 S
H3130 N3124 0.984 . S
H3131 N3124 0.984 . S
H3132 N3120 0.984 . S
H3133 N3120 0.985 . S
C3134 C3135 1.363 . S
C3134 C3140 1.379 . S
C3134 N3142 1.356 . S
C3135 C3134 1.363 . S
C3135 C3141 1.363 . S
C3136 C3137 1.363 . S
C3136 C3141 1.379 . S
C3136 N3143 1.356 . S
C3137 C3136 1.363 . S
C3137 C3140 1.363 . S
N3138 C3140 1.356 . S
N3138 H3150 0.984 . S
N3138 H3151 0.985 . S
N3139 C3141 1.356 . S
N3139 H3144 0.984 . S
N3139 H3145 0.985 . S
C3140 C3134 1.379 . S
C3140 C3137 1.363 . S
C3140 N3138 1.356 . S
C3141 C3135 1.363 . S
C3141 C3136 1.379 . S
C3141 N3139 1.356 . S
N3142 C3134 1.356 . S
N3142 H3148 0.984 . S
N3142 H3149 0.984 . S
N3143 C3136 1.356 . S
N3143 H3146 0.984 . S
N3143 H3147 0.985 . S
H3144 N3139 0.984 . S
H3145 N3139 0.985 . S
H3146 N3143 0.984 . S
H3147 N3143 0.985 . S
H3148 N3142 0.984 . S
H3149 N3142 0.984 . S
H3150 N3138 0.984 . S
H3151 N3138 0.985 . S
C3152 C3153 1.363 1_556 S
C3152 C3158 1.379 . S
C3152 N3160 1.356 . S
C3153 C3152 1.363 1_554 S
C3153 C3159 1.363 . S
C3154 C3155 1.386 . S
C3154 C3159 1.379 . S
C3154 N3161 1.356 . S
C3155 C3154 1.386 . S
C3155 C3158 1.343 1_554 S
N3156 C3158 1.356 . S
N3156 H3168 0.984 . S
N3156 H3169 0.985 . S
N3157 C3159 1.356 . S
N3157 H3162 0.984 . S
N3157 H3163 0.985 . S
C3158 C3152 1.379 . S
C3158 C3155 1.343 1_556 S
C3158 N3156 1.356 . S
C3159 C3153 1.363 . S
C3159 C3154 1.379 . S
C3159 N3157 1.356 . S
N3160 C3152 1.356 . S
N3160 H3166 0.984 . S
N3160 H3167 0.984 . S
N3161 C3154 1.356 . S
N3161 H3164 0.984 . S
N3161 H3165 0.985 . S
H3162 N3157 0.984 . S
H3163 N3157 0.985 . S
H3164 N3161 0.984 . S
H3165 N3161 0.985 . S
H3166 N3160 0.984 . S
H3167 N3160 0.984 . S
H3168 N3156 0.984 . S
H3169 N3156 0.985 . S
C3170 C3171 1.363 . S
C3170 C3176 1.379 . S
C3170 N3178 1.356 . S
C3171 C3170 1.363 . S
C3171 C3177 1.363 . S
C3172 C3173 1.363 . S
C3172 C3177 1.379 . S
C3172 N3179 1.356 1_554 S
C3173 C3172 1.363 . S
C3173 C3176 1.363 . S
N3174 C3176 1.356 . S
N3174 H3186 0.984 . S
N3174 H3187 0.985 . S
N3175 C3177 1.356 1_556 S
N3175 H3180 0.984 1_556 S
N3175 H3181 0.985 . S
C3176 C3170 1.379 . S
C3176 C3173 1.363 . S
C3176 N3174 1.356 . S
C3177 C3171 1.363 . S
C3177 C3172 1.379 . S
C3177 N3175 1.356 1_554 S
N3178 C3170 1.356 . S
N3178 H3184 0.984 . S
N3178 H3185 0.984 . S
N3179 C3172 1.356 1_556 S
N3179 H3182 0.984 . S
N3179 H3183 0.985 . S
H3180 N3175 0.984 1_554 S
H3181 N3175 0.985 . S
H3182 N3179 0.984 . S
H3183 N3179 0.985 . S
H3184 N3178 0.984 . S
H3185 N3178 0.984 . S
H3186 N3174 0.984 . S
H3187 N3174 0.985 . S
C3188 C3189 1.363 . S
C3188 C3194 1.379 . S
C3188 N3196 1.356 . S
C3189 C3188 1.363 . S
C3189 C3195 1.363 . S
C3190 C3191 1.363 . S
C3190 C3195 1.379 . S
C3190 N3197 1.356 . S
C3191 C3190 1.363 . S
C3191 C3194 1.363 . S
N3192 C3194 1.356 . S
N3192 H3204 0.984 . S
N3192 H3205 0.985 . S
N3193 C3195 1.356 . S
N3193 H3198 0.984 . S
N3193 H3199 0.985 . S
C3194 C3188 1.379 . S
C3194 C3191 1.363 . S
C3194 N3192 1.356 . S
C3195 C3189 1.363 . S
C3195 C3190 1.379 . S
C3195 N3193 1.356 . S
N3196 C3188 1.356 . S
N3196 H3202 0.984 . S
N3196 H3203 0.984 . S
N3197 C3190 1.356 . S
N3197 H3200 0.984 . S
N3197 H3201 0.985 . S
H3198 N3193 0.984 . S
H3199 N3193 0.985 . S
H3200 N3197 0.984 . S
H3201 N3197 0.985 . S
H3202 N3196 0.984 . S
H3203 N3196 0.984 . S
H3204 N3192 0.984 . S
H3205 N3192 0.985 . S
C3206 C3207 1.363 . S
C3206 C3212 1.379 . S
C3206 N3214 1.356 . S
C3207 C3206 1.363 . S
C3207 C3213 1.363 . S
C3208 C3209 1.363 . S
C3208 C3213 1.379 . S
C3208 N3215 1.356 . S
C3209 C3208 1.363 . S
C3209 C3212 1.363 . S
N3210 C3212 1.356 . S
N3210 H3222 0.984 . S
N3210 H3223 0.985 . S
N3211 C3213 1.356 . S
N3211 H3216 0.984 . S
N3211 H3217 0.985 . S
C3212 C3206 1.379 . S
C3212 C3209 1.363 . S
C3212 N3210 1.356 . S
C3213 C3207 1.363 . S
C3213 C3208 1.379 . S
C3213 N3211 1.356 . S
N3214 C3206 1.356 . S
N3214 H3220 0.984 . S
N3214 H3221 0.984 . S
N3215 C3208 1.356 . S
N3215 H3218 0.984 . S
N3215 H3219 0.985 . S
H3216 N3211 0.984 . S
H3217 N3211 0.985 . S
H3218 N3215 0.984 . S
H3219 N3215 0.985 . S
H3220 N3214 0.984 . S
H3221 N3214 0.984 . S
H3222 N3210 0.984 . S
H3223 N3210 0.985 . S
C3224 C3225 1.363 . S
C3224 C3230 1.379 . S
C3224 N3232 1.356 . S
C3225 C3224 1.363 . S
C3225 C3231 1.363 . S
C3226 C3227 1.363 . S
C3226 C3231 1.379 . S
C3226 N3233 1.356 . S
C3227 C3226 1.363 . S
C3227 C3230 1.363 . S
N3228 C3230 1.356 . S
N3228 H3240 0.984 . S
N3228 H3241 0.985 . S
N3229 C3231 1.356 . S
N3229 H3234 0.984 . S
N3229 H3235 0.985 . S
C3230 C3224 1.379 . S
C3230 C3227 1.363 . S
C3230 N3228 1.356 . S
C3231 C3225 1.363 . S
C3231 C3226 1.379 . S
C3231 N3229 1.356 . S
N3232 C3224 1.356 . S
N3232 H3238 0.984 . S
N3232 H3239 0.984 . S
N3233 C3226 1.356 . S
N3233 H3236 0.984 . S
N3233 H3237 0.985 . S
H3234 N3229 0.984 . S
H3235 N3229 0.985 . S
H3236 N3233 0.984 . S
H3237 N3233 0.985 . S
H3238 N3232 0.984 . S
H3239 N3232 0.984 . S
H3240 N3228 0.984 . S
H3241 N3228 0.985 . S
C3242 C3243 1.363 . S
C3242 C3248 1.379 . S
C3242 N3250 1.356 . S
C3243 C3242 1.363 . S
C3243 C3249 1.363 . S
C3244 C3245 1.363 . S
C3244 C3249 1.379 . S
C3244 N3251 1.356 1_565 S
C3245 C3244 1.363 . S
C3245 C3248 1.363 . S
N3246 C3248 1.356 . S
N3246 H3258 0.984 . S
N3246 H3259 0.985 . S
N3247 C3249 1.356 . S
N3247 H3252 0.984 . S
N3247 H3253 0.985 . S
C3248 C3242 1.379 . S
C3248 C3245 1.363 . S
C3248 N3246 1.356 . S
C3249 C3243 1.363 . S
C3249 C3244 1.379 . S
C3249 N3247 1.356 . S
N3250 C3242 1.356 . S
N3250 H3256 0.984 . S
N3250 H3257 0.984 . S
N3251 C3244 1.356 1_545 S
N3251 H3254 0.984 . S
N3251 H3255 0.985 . S
H3252 N3247 0.984 . S
H3253 N3247 0.985 . S
H3254 N3251 0.984 . S
H3255 N3251 0.985 . S
H3256 N3250 0.984 . S
H3257 N3250 0.984 . S
H3258 N3246 0.984 . S
H3259 N3246 0.985 . S
C3260 C3261 1.363 . S
C3260 C3266 1.379 . S
C3260 N3268 1.356 . S
C3261 C3260 1.363 . S
C3261 C3267 1.363 . S
C3262 C3263 1.363 . S
C3262 C3267 1.379 . S
C3262 N3269 1.356 . S
C3263 C3262 1.363 . S
C3263 C3266 1.363 . S
N3264 C3266 1.356 . S
N3264 H3276 0.984 . S
N3264 H3277 0.985 . S
N3265 C3267 1.356 . S
N3265 H3270 0.984 . S
N3265 H3271 0.985 . S
C3266 C3260 1.379 . S
C3266 C3263 1.363 . S
C3266 N3264 1.356 . S
C3267 C3261 1.363 . S
C3267 C3262 1.379 . S
C3267 N3265 1.356 . S
N3268 C3260 1.356 . S
N3268 H3274 0.984 . S
N3268 H3275 0.984 . S
N3269 C3262 1.356 . S
N3269 H3272 0.984 . S
N3269 H3273 0.985 . S
H3270 N3265 0.984 . S
H3271 N3265 0.985 . S
H3272 N3269 0.984 . S
H3273 N3269 0.985 . S
H3274 N3268 0.984 . S
H3275 N3268 0.984 . S
H3276 N3264 0.984 . S
H3277 N3264 0.985 . S
C3278 C3279 1.363 . S
C3278 C3284 1.379 . S
C3278 N3286 1.356 . S
C3279 C3278 1.363 . S
C3279 C3285 1.363 . S
C3280 C3281 1.363 . S
C3280 C3285 1.379 . S
C3280 N3287 1.356 . S
C3281 C3280 1.363 . S
C3281 C3284 1.363 . S
N3282 C3284 1.356 . S
N3282 H3294 0.984 . S
N3282 H3295 0.985 . S
N3283 C3285 1.356 . S
N3283 H3288 0.984 . S
N3283 H3289 0.985 . S
C3284 C3278 1.379 . S
C3284 C3281 1.363 . S
C3284 N3282 1.356 . S
C3285 C3279 1.363 . S
C3285 C3280 1.379 . S
C3285 N3283 1.356 . S
N3286 C3278 1.356 . S
N3286 H3292 0.984 . S
N3286 H3293 0.984 . S
N3287 C3280 1.356 . S
N3287 H3290 0.984 . S
N3287 H3291 0.985 . S
H3288 N3283 0.984 . S
H3289 N3283 0.985 . S
H3290 N3287 0.984 . S
H3291 N3287 0.985 . S
H3292 N3286 0.984 . S
H3293 N3286 0.984 . S
H3294 N3282 0.984 . S
H3295 N3282 0.985 . S
C3296 C3297 1.363 . S
C3296 C3302 1.379 . S
C3296 N3304 1.356 . S
C3297 C3296 1.363 . S
C3297 C3303 1.363 . S
C3298 C3299 1.363 . S
C3298 C3303 1.379 . S
C3298 N3305 1.356 . S
C3299 C3298 1.363 . S
C3299 C3302 1.363 . S
N3300 C3302 1.356 . S
N3300 H3312 0.984 . S
N3300 H3313 0.985 . S
N3301 C3303 1.356 . S
N3301 H3306 0.984 . S
N3301 H3307 0.985 . S
C3302 C3296 1.379 . S
C3302 C3299 1.363 . S
C3302 N3300 1.356 . S
C3303 C3297 1.363 . S
C3303 C3298 1.379 . S
C3303 N3301 1.356 . S
N3304 C3296 1.356 . S
N3304 H3310 0.984 . S
N3304 H3311 0.984 . S
N3305 C3298 1.356 . S
N3305 H3308 0.984 . S
N3305 H3309 0.985 . S
H3306 N3301 0.984 . S
H3307 N3301 0.985 . S
H3308 N3305 0.984 . S
H3309 N3305 0.985 . S
H3310 N3304 0.984 . S
H3311 N3304 0.984 . S
H3312 N3300 0.984 . S
H3313 N3300 0.985 . S
C3314 C3315 1.363 . S
C3314 C3320 1.379 . S
C3314 N3322 1.356 . S
C3315 C3314 1.363 . S
C3315 C3321 1.363 . S
C3316 C3317 1.363 . S
C3316 C3321 1.379 . S
C3316 N3323 1.356 . S
C3317 C3316 1.363 . S
C3317 C3320 1.363 . S
N3318 C3320 1.356 . S
N3318 H3330 0.984 . S
N3318 H3331 0.985 . S
N3319 C3321 1.356 . S
N3319 H3324 0.984 . S
N3319 H3325 0.985 . S
C3320 C3314 1.379 . S
C3320 C3317 1.363 . S
C3320 N3318 1.356 . S
C3321 C3315 1.363 . S
C3321 C3316 1.379 . S
C3321 N3319 1.356 . S
N3322 C3314 1.356 . S
N3322 H3328 0.984 . S
N3322 H3329 0.984 . S
N3323 C3316 1.356 . S
N3323 H3326 0.984 . S
N3323 H3327 0.985 . S
H3324 N3319 0.984 . S
H3325 N3319 0.985 . S
H3326 N3323 0.984 . S
H3327 N3323 0.985 . S
H3328 N3322 0.984 . S
H3329 N3322 0.984 . S
H3330 N3318 0.984 . S
H3331 N3318 0.985 . S
C3332 C3333 1.363 . S
C3332 C3338 1.379 . S
C3332 N3340 1.356 . S
C3333 C3332 1.363 . S
C3333 C3339 1.363 . S
C3334 C3335 1.363 1_655 S
C3334 C3339 1.379 1_655 S
C3334 N3341 1.356 1_556 S
C3335 C3334 1.363 1_455 S
C3335 C3338 1.363 . S
N3336 C3338 1.356 . S
N3336 H3348 0.984 . S
N3336 H3349 0.985 . S
N3337 C3339 1.356 1_655 S
N3337 H3342 0.958 1_655 S
N3337 H3343 0.985 . S
C3338 C3332 1.379 . S
C3338 C3335 1.363 . S
C3338 N3336 1.356 . S
C3339 C3333 1.363 . S
C3339 C3334 1.379 1_455 S
C3339 N3337 1.356 1_455 S
N3340 C3332 1.356 . S
N3340 H3346 0.984 . S
N3340 H3347 0.984 . S
N3341 C3334 1.356 1_554 S
N3341 H3344 0.984 . S
N3341 H3345 0.985 . S
H3342 N3337 0.958 1_455 S
H3343 N3337 0.985 . S
H3344 N3341 0.984 . S
H3345 N3341 0.985 . S
H3346 N3340 0.984 . S
H3347 N3340 0.984 . S
H3348 N3336 0.984 . S
H3349 N3336 0.985 . S
C3350 C3351 1.363 . S
C3350 C3356 1.379 . S
C3350 N3358 1.356 . S
C3351 C3350 1.363 . S
C3351 C3357 1.363 . S
C3352 C3353 1.363 . S
C3352 C3357 1.379 . S
C3352 N3359 1.356 . S
C3353 C3352 1.363 . S
C3353 C3356 1.363 . S
N3354 C3356 1.356 . S
N3354 H3366 0.984 . S
N3354 H3367 0.985 . S
N3355 C3357 1.356 . S
N3355 H3360 0.984 . S
N3355 H3361 0.985 . S
C3356 C3350 1.379 . S
C3356 C3353 1.363 . S
C3356 N3354 1.356 . S
C3357 C3351 1.363 . S
C3357 C3352 1.379 . S
C3357 N3355 1.356 . S
N3358 C3350 1.356 . S
N3358 H3364 0.984 . S
N3358 H3365 0.984 . S
N3359 C3352 1.356 . S
N3359 H3362 0.984 . S
N3359 H3363 0.985 . S
H3360 N3355 0.984 . S
H3361 N3355 0.985 . S
H3362 N3359 0.984 . S
H3363 N3359 0.985 . S
H3364 N3358 0.984 . S
H3365 N3358 0.984 . S
H3366 N3354 0.984 . S
H3367 N3354 0.985 . S
C3368 C3369 1.363 . S
C3368 C3374 1.379 . S
C3368 N3376 1.356 . S
C3369 C3368 1.363 . S
C3369 C3375 1.363 . S
C3370 C3371 1.363 . S
C3370 C3375 1.379 . S
C3370 N3377 1.356 . S
C3371 C3370 1.363 . S
C3371 C3374 1.363 . S
N3372 C3374 1.356 . S
N3372 H3384 0.984 . S
N3372 H3385 0.985 . S
N3373 C3375 1.356 . S
N3373 H3378 0.984 . S
N3373 H3379 0.985 . S
C3374 C3368 1.379 . S
C3374 C3371 1.363 . S
C3374 N3372 1.356 . S
C3375 C3369 1.363 . S
C3375 C3370 1.379 . S
C3375 N3373 1.356 . S
N3376 C3368 1.356 . S
N3376 H3382 0.984 . S
N3376 H3383 0.984 . S
N3377 C3370 1.356 . S
N3377 H3380 0.984 . S
N3377 H3381 0.985 . S
H3378 N3373 0.984 . S
H3379 N3373 0.985 . S
H3380 N3377 0.984 . S
H3381 N3377 0.985 . S
H3382 N3376 0.984 . S
H3383 N3376 0.984 . S
H3384 N3372 0.984 . S
H3385 N3372 0.985 . S
C3386 C3387 1.363 . S
C3386 C3392 1.379 . S
C3386 N3394 1.356 . S
C3387 C3386 1.363 . S
C3387 C3393 1.363 . S
C3388 C3389 1.363 . S
C3388 C3393 1.379 . S
C3388 N3395 1.356 . S
C3389 C3388 1.363 . S
C3389 C3392 1.363 . S
N3390 C3392 1.356 . S
N3390 H3402 0.984 . S
N3390 H3403 0.985 . S
N3391 C3393 1.356 . S
N3391 H3396 0.984 . S
N3391 H3397 0.985 . S
C3392 C3386 1.379 . S
C3392 C3389 1.363 . S
C3392 N3390 1.356 . S
C3393 C3387 1.363 . S
C3393 C3388 1.379 . S
C3393 N3391 1.356 . S
N3394 C3386 1.356 . S
N3394 H3400 0.984 . S
N3394 H3401 0.984 . S
N3395 C3388 1.356 . S
N3395 H3398 0.984 . S
N3395 H3399 0.985 . S
H3396 N3391 0.984 . S
H3397 N3391 0.985 . S
H3398 N3395 0.984 . S
H3399 N3395 0.985 . S
H3400 N3394 0.984 . S
H3401 N3394 0.984 . S
H3402 N3390 0.984 . S
H3403 N3390 0.985 . S
C3404 C3405 1.363 1_455 S
C3404 C3410 1.379 . S
C3404 N3412 1.356 . S
C3405 C3404 1.363 1_655 S
C3405 C3411 1.363 . S
C3406 C3407 1.363 . S
C3406 C3411 1.379 . S
C3406 N3413 1.356 . S
C3407 C3406 1.363 . S
C3407 C3410 1.363 1_655 S
N3408 C3410 1.356 . S
N3408 H3420 0.984 . S
N3408 H3421 0.985 . S
N3409 C3411 1.356 . S
N3409 H3414 0.984 . S
N3409 H3415 0.985 . S
C3410 C3404 1.379 . S
C3410 C3407 1.363 1_455 S
C3410 N3408 1.356 . S
C3411 C3405 1.363 . S
C3411 C3406 1.379 . S
C3411 N3409 1.356 . S
N3412 C3404 1.356 . S
N3412 H3418 0.984 . S
N3412 H3419 0.984 . S
N3413 C3406 1.356 . S
N3413 H3416 0.984 . S
N3413 H3417 0.985 . S
H3414 N3409 0.984 . S
H3415 N3409 0.985 . S
H3416 N3413 0.984 . S
H3417 N3413 0.985 . S
H3418 N3412 0.984 . S
H3419 N3412 0.984 . S
H3420 N3408 0.984 . S
H3421 N3408 0.985 . S
C3422 C3423 1.363 . S
C3422 C3428 1.379 . S
C3422 N3430 1.356 . S
C3423 C3422 1.363 . S
C3423 C3429 1.363 . S
C3424 C3425 1.363 . S
C3424 C3429 1.379 . S
C3424 N3431 1.356 . S
C3425 C3424 1.363 . S
C3425 C3428 1.363 . S
N3426 C3428 1.356 . S
N3426 H3438 0.984 . S
N3426 H3439 0.985 . S
N3427 C3429 1.356 . S
N3427 H3432 0.984 . S
N3427 H3433 0.985 . S
C3428 C3422 1.379 . S
C3428 C3425 1.363 . S
C3428 N3426 1.356 . S
C3429 C3423 1.363 . S
C3429 C3424 1.379 . S
C3429 N3427 1.356 . S
N3430 C3422 1.356 . S
N3430 H3436 0.984 . S
N3430 H3437 0.984 . S
N3431 C3424 1.356 . S
N3431 H3434 0.984 . S
N3431 H3435 0.985 . S
H3432 N3427 0.984 . S
H3433 N3427 0.985 . S
H3434 N3431 0.984 . S
H3435 N3431 0.985 . S
H3436 N3430 0.984 . S
H3437 N3430 0.984 . S
H3438 N3426 0.984 . S
H3439 N3426 0.985 . S
C3440 C3441 1.363 . S
C3440 C3446 1.379 . S
C3440 N3448 1.356 . S
C3441 C3440 1.363 . S
C3441 C3447 1.363 . S
C3442 C3443 1.363 . S
C3442 C3447 1.379 . S
C3442 N3449 1.356 . S
C3443 C3442 1.363 . S
C3443 C3446 1.363 . S
N3444 C3446 1.356 . S
N3444 H3456 0.984 . S
N3444 H3457 0.985 . S
N3445 C3447 1.356 . S
N3445 H3450 0.984 . S
N3445 H3451 0.985 . S
C3446 C3440 1.379 . S
C3446 C3443 1.363 . S
C3446 N3444 1.356 . S
C3447 C3441 1.363 . S
C3447 C3442 1.379 . S
C3447 N3445 1.356 . S
N3448 C3440 1.356 . S
N3448 H3454 0.984 . S
N3448 H3455 0.984 . S
N3449 C3442 1.356 . S
N3449 H3452 0.984 . S
N3449 H3453 0.985 . S
H3450 N3445 0.984 . S
H3451 N3445 0.985 . S
H3452 N3449 0.984 . S
H3453 N3449 0.985 . S
H3454 N3448 0.984 . S
H3455 N3448 0.984 . S
H3456 N3444 0.984 . S
H3457 N3444 0.985 . S
C3458 C3459 1.363 . S
C3458 C3464 1.379 . S
C3458 N3466 1.356 . S
C3459 C3458 1.363 . S
C3459 C3465 1.363 . S
C3460 C3461 1.363 . S
C3460 C3465 1.379 . S
C3460 N3467 1.356 . S
C3461 C3460 1.363 . S
C3461 C3464 1.363 . S
N3462 C3464 1.356 . S
N3462 H3474 0.984 . S
N3462 H3475 0.985 . S
N3463 C3465 1.356 . S
N3463 H3468 0.984 . S
N3463 H3469 0.985 . S
C3464 C3458 1.379 . S
C3464 C3461 1.363 . S
C3464 N3462 1.356 . S
C3465 C3459 1.363 . S
C3465 C3460 1.379 . S
C3465 N3463 1.356 . S
N3466 C3458 1.356 . S
N3466 H3472 0.984 . S
N3466 H3473 0.984 . S
N3467 C3460 1.356 . S
N3467 H3470 0.984 . S
N3467 H3471 0.985 . S
H3468 N3463 0.984 . S
H3469 N3463 0.985 . S
H3470 N3467 0.984 . S
H3471 N3467 0.985 . S
H3472 N3466 0.984 . S
H3473 N3466 0.984 . S
H3474 N3462 0.984 . S
H3475 N3462 0.985 . S
C3476 C3477 1.363 . S
C3476 C3482 1.379 . S
C3476 N3484 1.356 . S
C3477 C3476 1.363 . S
C3477 C3483 1.363 . S
C3478 C3479 1.363 . S
C3478 C3483 1.379 . S
C3478 N3485 1.356 . S
C3479 C3478 1.363 . S
C3479 C3482 1.363 . S
N3480 C3482 1.369 . S
N3480 H3492 0.970 1_455 S
N3480 H3493 0.985 . S
N3481 C3483 1.356 . S
N3481 H3486 0.984 . S
N3481 H3487 0.985 . S
C3482 C3476 1.379 . S
C3482 C3479 1.363 . S
C3482 N3480 1.369 . S
C3483 C3477 1.363 . S
C3483 C3478 1.379 . S
C3483 N3481 1.356 . S
N3484 C3476 1.356 . S
N3484 H3490 0.984 . S
N3484 H3491 0.984 . S
N3485 C3478 1.356 . S
N3485 H3488 0.984 . S
N3485 H3489 0.985 . S
H3486 N3481 0.984 . S
H3487 N3481 0.985 . S
H3488 N3485 0.984 . S
H3489 N3485 0.985 . S
H3490 N3484 0.984 . S
H3491 N3484 0.984 . S
H3492 N3480 0.970 1_655 S
H3493 N3480 0.985 . S
C3494 C3495 1.363 . S
C3494 C3500 1.379 . S
C3494 N3502 1.356 . S
C3495 C3494 1.363 . S
C3495 C3501 1.363 . S
C3496 C3497 1.363 . S
C3496 C3501 1.379 . S
C3496 N3503 1.356 . S
C3497 C3496 1.363 . S
C3497 C3500 1.363 . S
N3498 C3500 1.356 . S
N3498 H3510 0.984 . S
N3498 H3511 0.985 . S
N3499 C3501 1.356 . S
N3499 H3504 0.984 . S
N3499 H3505 0.985 . S
C3500 C3494 1.379 . S
C3500 C3497 1.363 . S
C3500 N3498 1.356 . S
C3501 C3495 1.363 . S
C3501 C3496 1.379 . S
C3501 N3499 1.356 . S
N3502 C3494 1.356 . S
N3502 H3508 0.984 . S
N3502 H3509 0.984 . S
N3503 C3496 1.356 . S
N3503 H3506 0.984 . S
N3503 H3507 0.985 . S
H3504 N3499 0.984 . S
H3505 N3499 0.985 . S
H3506 N3503 0.984 . S
H3507 N3503 0.985 . S
H3508 N3502 0.984 . S
H3509 N3502 0.984 . S
H3510 N3498 0.984 . S
H3511 N3498 0.985 . S
C3512 C3513 1.363 . S
C3512 C3518 1.379 . S
C3512 N3520 1.356 . S
C3513 C3512 1.363 . S
C3513 C3519 1.363 . S
C3514 C3515 1.363 . S
C3514 C3519 1.379 . S
C3514 N3521 1.356 . S
C3515 C3514 1.363 . S
C3515 C3518 1.363 . S
N3516 C3518 1.356 . S
N3516 H3528 0.984 . S
N3516 H3529 0.985 . S
N3517 C3519 1.356 . S
N3517 H3522 0.984 . S
N3517 H3523 0.985 . S
C3518 C3512 1.379 . S
C3518 C3515 1.363 . S
C3518 N3516 1.356 . S
C3519 C3513 1.363 . S
C3519 C3514 1.379 . S
C3519 N3517 1.356 . S
N3520 C3512 1.356 . S
N3520 H3526 0.984 . S
N3520 H3527 0.984 . S
N3521 C3514 1.356 . S
N3521 H3524 0.984 . S
N3521 H3525 0.985 . S
H3522 N3517 0.984 . S
H3523 N3517 0.985 . S
H3524 N3521 0.984 . S
H3525 N3521 0.985 . S
H3526 N3520 0.984 . S
H3527 N3520 0.984 . S
H3528 N3516 0.984 . S
H3529 N3516 0.985 . S
C3530 C3531 1.363 . S
C3530 C3536 1.379 . S
C3530 N3538 1.356 . S
C3531 C3530 1.363 . S
C3531 C3537 1.363 . S
C3532 C3533 1.363 . S
C3532 C3537 1.379 . S
C3532 N3539 1.356 . S
C3533 C3532 1.363 . S
C3533 C3536 1.363 . S
N3534 C3536 1.356 . S
N3534 H3546 0.984 . S
N3534 H3547 0.985 . S
N3535 C3537 1.356 . S
N3535 H3540 0.984 . S
N3535 H3541 0.985 . S
C3536 C3530 1.379 . S
C3536 C3533 1.363 . S
C3536 N3534 1.356 . S
C3537 C3531 1.363 . S
C3537 C3532 1.379 . S
C3537 N3535 1.356 . S
N3538 C3530 1.356 . S
N3538 H3544 0.984 . S
N3538 H3545 0.984 . S
N3539 C3532 1.356 . S
N3539 H3542 0.984 . S
N3539 H3543 0.985 . S
H3540 N3535 0.984 . S
H3541 N3535 0.985 . S
H3542 N3539 0.984 . S
H3543 N3539 0.985 . S
H3544 N3538 0.984 . S
H3545 N3538 0.984 . S
H3546 N3534 0.984 . S
H3547 N3534 0.985 . S
C3548 C3549 1.363 . S
C3548 C3554 1.379 . S
C3548 N3556 1.356 . S
C3549 C3548 1.363 . S
C3549 C3555 1.363 . S
C3550 C3551 1.363 . S
C3550 C3555 1.379 . S
C3550 N3557 1.356 . S
C3551 C3550 1.363 . S
C3551 C3554 1.363 . S
N3552 C3554 1.356 . S
N3552 H3564 1.004 . S
N3552 H3565 0.985 . S
N3553 C3555 1.356 . S
N3553 H3558 0.984 . S
N3553 H3559 0.985 . S
C3554 C3548 1.379 . S
C3554 C3551 1.363 . S
C3554 N3552 1.356 . S
C3555 C3549 1.363 . S
C3555 C3550 1.379 . S
C3555 N3553 1.356 . S
N3556 C3548 1.356 . S
N3556 H3562 0.984 . S
N3556 H3563 0.984 . S
N3557 C3550 1.356 . S
N3557 H3560 0.984 . S
N3557 H3561 0.985 . S
H3558 N3553 0.984 . S
H3559 N3553 0.985 . S
H3560 N3557 0.984 . S
H3561 N3557 0.985 . S
H3562 N3556 0.984 . S
H3563 N3556 0.984 . S
H3564 N3552 1.004 . S
H3565 N3552 0.985 . S
C3566 C3567 1.363 . S
C3566 C3572 1.379 . S
C3566 N3574 1.356 . S
C3567 C3566 1.363 . S
C3567 C3573 1.363 . S
C3568 C3569 1.363 . S
C3568 C3573 1.379 . S
C3568 N3575 1.356 . S
C3569 C3568 1.363 . S
C3569 C3572 1.363 . S
N3570 C3572 1.356 . S
N3570 H3582 0.984 . S
N3570 H3583 0.985 . S
N3571 C3573 1.356 . S
N3571 H3576 0.984 . S
N3571 H3577 0.985 . S
C3572 C3566 1.379 . S
C3572 C3569 1.363 . S
C3572 N3570 1.356 . S
C3573 C3567 1.363 . S
C3573 C3568 1.379 . S
C3573 N3571 1.356 . S
N3574 C3566 1.356 . S
N3574 H3580 0.984 . S
N3574 H3581 0.984 . S
N3575 C3568 1.356 . S
N3575 H3578 0.984 . S
N3575 H3579 0.985 . S
H3576 N3571 0.984 . S
H3577 N3571 0.985 . S
H3578 N3575 0.984 . S
H3579 N3575 0.985 . S
H3580 N3574 0.984 . S
H3581 N3574 0.984 . S
H3582 N3570 0.984 . S
H3583 N3570 0.985 . S
C3584 C3585 1.363 . S
C3584 C3590 1.379 . S
C3584 N3592 1.356 . S
C3585 C3584 1.363 . S
C3585 C3591 1.363 . S
C3586 C3587 1.363 . S
C3586 C3591 1.379 . S
C3586 N3593 1.356 . S
C3587 C3586 1.363 . S
C3587 C3590 1.363 . S
N3588 C3590 1.356 . S
N3588 H3600 0.984 . S
N3588 H3601 0.985 . S
N3589 C3591 1.356 . S
N3589 H3594 0.984 . S
N3589 H3595 0.985 . S
C3590 C3584 1.379 . S
C3590 C3587 1.363 . S
C3590 N3588 1.356 . S
C3591 C3585 1.363 . S
C3591 C3586 1.379 . S
C3591 N3589 1.356 . S
N3592 C3584 1.356 . S
N3592 H3598 0.984 . S
N3592 H3599 0.984 . S
N3593 C3586 1.356 . S
N3593 H3596 0.984 . S
N3593 H3597 0.985 . S
H3594 N3589 0.984 . S
H3595 N3589 0.985 . S
H3596 N3593 0.984 . S
H3597 N3593 0.985 . S
H3598 N3592 0.984 . S
H3599 N3592 0.984 . S
H3600 N3588 0.984 . S
H3601 N3588 0.985 . S
C3602 C3603 1.363 . S
C3602 C3608 1.379 . S
C3602 N3610 1.356 . S
C3603 C3602 1.363 . S
C3603 C3609 1.363 . S
C3604 C3605 1.363 . S
C3604 C3609 1.379 . S
C3604 N3611 1.356 . S
C3605 C3604 1.363 . S
C3605 C3608 1.363 . S
N3606 C3608 1.356 . S
N3606 H3618 0.984 . S
N3606 H3619 0.985 . S
N3607 C3609 1.356 . S
N3607 H3612 0.984 . S
N3607 H3613 0.985 . S
C3608 C3602 1.379 . S
C3608 C3605 1.363 . S
C3608 N3606 1.356 . S
C3609 C3603 1.363 . S
C3609 C3604 1.379 . S
C3609 N3607 1.356 . S
N3610 C3602 1.356 . S
N3610 H3616 0.984 . S
N3610 H3617 0.984 . S
N3611 C3604 1.356 . S
N3611 H3614 0.984 . S
N3611 H3615 0.985 . S
H3612 N3607 0.984 . S
H3613 N3607 0.985 . S
H3614 N3611 0.984 . S
H3615 N3611 0.985 . S
H3616 N3610 0.984 . S
H3617 N3610 0.984 . S
H3618 N3606 0.984 . S
H3619 N3606 0.985 . S
C3620 C3621 1.363 . S
C3620 C3626 1.379 . S
C3620 N3628 1.356 . S
C3621 C3620 1.363 . S
C3621 C3627 1.363 . S
C3622 C3623 1.363 . S
C3622 C3627 1.379 . S
C3622 N3629 1.356 . S
C3623 C3622 1.363 . S
C3623 C3626 1.363 . S
N3624 C3626 1.356 . S
N3624 H3636 0.984 . S
N3624 H3637 0.985 . S
N3625 C3627 1.356 . S
N3625 H3630 0.984 . S
N3625 H3631 0.985 . S
C3626 C3620 1.379 . S
C3626 C3623 1.363 . S
C3626 N3624 1.356 . S
C3627 C3621 1.363 . S
C3627 C3622 1.379 . S
C3627 N3625 1.356 . S
N3628 C3620 1.356 . S
N3628 H3634 0.984 . S
N3628 H3635 0.984 . S
N3629 C3622 1.356 . S
N3629 H3632 0.984 . S
N3629 H3633 0.985 . S
H3630 N3625 0.984 . S
H3631 N3625 0.985 . S
H3632 N3629 0.984 . S
H3633 N3629 0.985 . S
H3634 N3628 0.984 . S
H3635 N3628 0.984 . S
H3636 N3624 0.984 . S
H3637 N3624 0.985 . S
C3638 C3639 1.363 . S
C3638 C3644 1.379 . S
C3638 N3646 1.356 . S
C3639 C3638 1.363 . S
C3639 C3645 1.363 1_565 S
C3640 C3641 1.363 . S
C3640 C3645 1.379 . S
C3640 N3647 1.356 . S
C3641 C3640 1.363 . S
C3641 C3644 1.363 1_545 S
N3642 C3644 1.356 1_556 S
N3642 H3654 0.984 . S
N3642 H3655 0.985 . S
N3643 C3645 1.356 . S
N3643 H3648 0.982 1_545 S
N3643 H3649 0.985 . S
C3644 C3638 1.379 . S
C3644 C3641 1.363 1_565 S
C3644 N3642 1.356 1_554 S
C3645 C3639 1.363 1_545 S
C3645 C3640 1.379 . S
C3645 N3643 1.356 . S
N3646 C3638 1.356 . S
N3646 H3652 0.984 1_554 S
N3646 H3653 0.984 . S
N3647 C3640 1.356 . S
N3647 H3650 0.984 . S
N3647 H3651 0.985 . S
H3648 N3643 0.982 1_565 S
H3649 N3643 0.985 . S
H3650 N3647 0.984 . S
H3651 N3647 0.985 . S
H3652 N3646 0.984 1_556 S
H3653 N3646 0.984 . S
H3654 N3642 0.984 . S
H3655 N3642 0.985 . S
C3656 C3657 1.363 . S
C3656 C3662 1.379 . S
C3656 N3664 1.356 . S
C3657 C3656 1.363 . S
C3657 C3663 1.363 . S
C3658 C3659 1.363 . S
C3658 C3663 1.379 . S
C3658 N3665 1.356 . S
C3659 C3658 1.363 . S
C3659 C3662 1.363 . S
N3660 C3662 1.356 . S
N3660 H3672 0.984 . S
N3660 H3673 0.985 . S
N3661 C3663 1.356 . S
N3661 H3666 0.984 . S
N3661 H3667 0.985 . S
C3662 C3656 1.379 . S
C3662 C3659 1.363 . S
C3662 N3660 1.356 . S
C3663 C3657 1.363 . S
C3663 C3658 1.379 . S
C3663 N3661 1.356 . S
N3664 C3656 1.356 . S
N3664 H3670 0.984 . S
N3664 H3671 0.984 . S
N3665 C3658 1.356 . S
N3665 H3668 0.984 . S
N3665 H3669 0.985 . S
H3666 N3661 0.984 . S
H3667 N3661 0.985 . S
H3668 N3665 0.984 . S
H3669 N3665 0.985 . S
H3670 N3664 0.984 . S
H3671 N3664 0.984 . S
H3672 N3660 0.984 . S
H3673 N3660 0.985 . S
C3674 C3675 1.363 1_556 S
C3674 C3680 1.379 1_556 S
C3674 N3682 1.356 . S
C3675 C3674 1.363 1_554 S
C3675 C3681 1.363 . S
C3676 C3677 1.363 . S
C3676 C3681 1.379 . S
C3676 N3683 1.356 . S
C3677 C3676 1.363 . S
C3677 C3680 1.363 . S
N3678 C3680 1.356 1_556 S
N3678 H3690 0.984 . S
N3678 H3691 0.985 1_556 S
N3679 C3681 1.356 . S
N3679 H3684 0.984 . S
N3679 H3685 0.985 . S
C3680 C3674 1.379 1_554 S
C3680 C3677 1.363 . S
C3680 N3678 1.356 1_554 S
C3681 C3675 1.363 . S
C3681 C3676 1.379 . S
C3681 N3679 1.356 . S
N3682 C3674 1.356 . S
N3682 H3688 0.984 . S
N3682 H3689 0.984 . S
N3683 C3676 1.356 . S
N3683 H3686 0.984 . S
N3683 H3687 0.985 . S
H3684 N3679 0.984 . S
H3685 N3679 0.985 . S
H3686 N3683 0.984 . S
H3687 N3683 0.985 . S
H3688 N3682 0.984 . S
H3689 N3682 0.984 . S
H3690 N3678 0.984 . S
H3691 N3678 0.985 1_554 S
C3692 C3693 1.363 . S
C3692 C3698 1.379 . S
C3692 N3700 1.356 . S
C3693 C3692 1.363 . S
C3693 C3699 1.363 . S
C3694 C3695 1.363 . S
C3694 C3699 1.379 . S
C3694 N3701 1.356 . S
C3695 C3694 1.363 . S
C3695 C3698 1.363 . S
N3696 C3698 1.356 . S
N3696 H3708 0.984 . S
N3696 H3709 0.985 . S
N3697 C3699 1.356 . S
N3697 H3702 0.984 . S
N3697 H3703 0.985 . S
C3698 C3692 1.379 . S
C3698 C3695 1.363 . S
C3698 N3696 1.356 . S
C3699 C3693 1.363 . S
C3699 C3694 1.379 . S
C3699 N3697 1.356 . S
N3700 C3692 1.356 . S
N3700 H3706 0.984 . S
N3700 H3707 0.984 . S
N3701 C3694 1.356 . S
N3701 H3704 0.984 . S
N3701 H3705 0.985 . S
H3702 N3697 0.984 . S
H3703 N3697 0.985 . S
H3704 N3701 0.984 . S
H3705 N3701 0.985 . S
H3706 N3700 0.984 . S
H3707 N3700 0.984 . S
H3708 N3696 0.984 . S
H3709 N3696 0.985 . S
C3710 C3711 1.363 . S
C3710 C3716 1.379 . S
C3710 N3718 1.356 . S
C3711 C3710 1.363 . S
C3711 C3717 1.363 . S
C3712 C3713 1.363 . S
C3712 C3717 1.379 . S
C3712 N3719 1.356 . S
C3713 C3712 1.363 . S
C3713 C3716 1.363 . S
N3714 C3716 1.356 . S
N3714 H3726 0.984 . S
N3714 H3727 0.985 . S
N3715 C3717 1.356 . S
N3715 H3720 0.984 . S
N3715 H3721 0.985 . S
C3716 C3710 1.379 . S
C3716 C3713 1.363 . S
C3716 N3714 1.356 . S
C3717 C3711 1.363 . S
C3717 C3712 1.379 . S
C3717 N3715 1.356 . S
N3718 C3710 1.356 . S
N3718 H3724 0.984 . S
N3718 H3725 0.984 . S
N3719 C3712 1.356 . S
N3719 H3722 0.984 . S
N3719 H3723 0.985 . S
H3720 N3715 0.984 . S
H3721 N3715 0.985 . S
H3722 N3719 0.984 . S
H3723 N3719 0.985 . S
H3724 N3718 0.984 . S
H3725 N3718 0.984 . S
H3726 N3714 0.984 . S
H3727 N3714 0.985 . S
C3728 C3729 1.363 . S
C3728 C3734 1.379 . S
C3728 N3736 1.356 . S
C3729 C3728 1.363 . S
C3729 C3735 1.363 . S
C3730 C3731 1.363 . S
C3730 C3735 1.379 . S
C3730 N3737 1.356 . S
C3731 C3730 1.363 . S
C3731 C3734 1.363 . S
N3732 C3734 1.356 . S
N3732 H3744 0.984 . S
N3732 H3745 0.985 . S
N3733 C3735 1.356 . S
N3733 H3738 0.984 . S
N3733 H3739 0.985 . S
C3734 C3728 1.379 . S
C3734 C3731 1.363 . S
C3734 N3732 1.356 . S
C3735 C3729 1.363 . S
C3735 C3730 1.379 . S
C3735 N3733 1.356 . S
N3736 C3728 1.356 . S
N3736 H3742 0.984 . S
N3736 H3743 0.984 . S
N3737 C3730 1.356 . S
N3737 H3740 0.984 . S
N3737 H3741 0.985 . S
H3738 N3733 0.984 . S
H3739 N3733 0.985 . S
H3740 N3737 0.984 . S
H3741 N3737 0.985 . S
H3742 N3736 0.984 . S
H3743 N3736 0.984 . S
H3744 N3732 0.984 . S
H3745 N3732 0.985 . S
C3746 C3747 1.363 . S
C3746 C3752 1.379 . S
C3746 N3754 1.356 . S
C3747 C3746 1.363 . S
C3747 C3753 1.363 . S
C3748 C3749 1.363 . S
C3748 C3753 1.379 . S
C3748 N3755 1.356 . S
C3749 C3748 1.363 . S
C3749 C3752 1.363 . S
N3750 C3752 1.356 . S
N3750 H3762 0.984 . S
N3750 H3763 0.985 . S
N3751 C3753 1.356 . S
N3751 H3756 0.984 . S
N3751 H3757 0.985 . S
C3752 C3746 1.379 . S
C3752 C3749 1.363 . S
C3752 N3750 1.356 . S
C3753 C3747 1.363 . S
C3753 C3748 1.379 . S
C3753 N3751 1.356 . S
N3754 C3746 1.356 . S
N3754 H3760 0.984 . S
N3754 H3761 0.984 . S
N3755 C3748 1.356 . S
N3755 H3758 0.984 . S
N3755 H3759 0.985 . S
H3756 N3751 0.984 . S
H3757 N3751 0.985 . S
H3758 N3755 0.984 . S
H3759 N3755 0.985 . S
H3760 N3754 0.984 . S
H3761 N3754 0.984 . S
H3762 N3750 0.984 . S
H3763 N3750 0.985 . S
C3764 C3765 1.363 1_455 S
C3764 C3770 1.379 . S
C3764 N3772 1.356 . S
C3765 C3764 1.363 1_655 S
C3765 C3771 1.363 . S
C3766 C3767 1.363 1_655 S
C3766 C3771 1.379 . S
C3766 N3773 1.356 . S
C3767 C3766 1.363 1_455 S
C3767 C3770 1.363 . S
N3768 C3770 1.356 . S
N3768 H3780 0.984 . S
N3768 H3781 0.985 . S
N3769 C3771 1.356 . S
N3769 H3774 0.984 . S
N3769 H3775 0.985 . S
C3770 C3764 1.379 . S
C3770 C3767 1.363 . S
C3770 N3768 1.356 . S
C3771 C3765 1.363 . S
C3771 C3766 1.379 . S
C3771 N3769 1.356 . S
N3772 C3764 1.356 . S
N3772 H3778 0.984 . S
N3772 H3779 0.984 . S
N3773 C3766 1.356 . S
N3773 H3776 0.984 . S
N3773 H3777 0.985 1_554 S
H3774 N3769 0.984 . S
H3775 N3769 0.985 . S
H3776 N3773 0.984 . S
H3777 N3773 0.985 1_556 S
H3778 N3772 0.984 . S
H3779 N3772 0.984 . S
H3780 N3768 0.984 . S
H3781 N3768 0.985 . S
C3782 C3783 1.363 . S
C3782 C3788 1.379 . S
C3782 N3790 1.356 . S
C3783 C3782 1.363 . S
C3783 C3789 1.363 . S
C3784 C3785 1.363 . S
C3784 C3789 1.379 . S
C3784 N3791 1.356 . S
C3785 C3784 1.363 . S
C3785 C3788 1.363 . S
N3786 C3788 1.356 . S
N3786 H3798 0.984 . S
N3786 H3799 0.985 . S
N3787 C3789 1.356 . S
N3787 H3792 0.984 . S
N3787 H3793 0.985 . S
C3788 C3782 1.379 . S
C3788 C3785 1.363 . S
C3788 N3786 1.356 . S
C3789 C3783 1.363 . S
C3789 C3784 1.379 . S
C3789 N3787 1.356 . S
N3790 C3782 1.356 . S
N3790 H3796 0.984 . S
N3790 H3797 0.984 . S
N3791 C3784 1.356 . S
N3791 H3794 0.984 . S
N3791 H3795 0.985 . S
H3792 N3787 0.984 . S
H3793 N3787 0.985 . S
H3794 N3791 0.984 . S
H3795 N3791 0.985 . S
H3796 N3790 0.984 . S
H3797 N3790 0.984 . S
H3798 N3786 0.984 . S
H3799 N3786 0.985 . S
C3800 C3801 1.363 . S
C3800 C3806 1.379 . S
C3800 N3808 1.356 . S
C3801 C3800 1.363 . S
C3801 C3807 1.363 . S
C3802 C3803 1.363 . S
C3802 C3807 1.379 . S
C3802 N3809 1.356 1_556 S
C3803 C3802 1.363 . S
C3803 C3806 1.363 . S
N3804 C3806 1.356 . S
N3804 H3816 0.984 . S
N3804 H3817 0.985 . S
N3805 C3807 1.356 . S
N3805 H3810 0.984 . S
N3805 H3811 1.004 . S
C3806 C3800 1.379 . S
C3806 C3803 1.363 . S
C3806 N3804 1.356 . S
C3807 C3801 1.363 . S
C3807 C3802 1.379 . S
C3807 N3805 1.356 . S
N3808 C3800 1.356 . S
N3808 H3814 0.984 . S
N3808 H3815 0.984 . S
N3809 C3802 1.356 1_554 S
N3809 H3812 0.984 . S
N3809 H3813 0.985 . S
H3810 N3805 0.984 . S
H3811 N3805 1.004 . S
H3812 N3809 0.984 . S
H3813 N3809 0.985 . S
H3814 N3808 0.984 . S
H3815 N3808 0.984 . S
H3816 N3804 0.984 . S
H3817 N3804 0.985 . S
C3818 C3819 1.363 . S
C3818 C3824 1.379 . S
C3818 N3826 1.356 . S
C3819 C3818 1.363 . S
C3819 C3825 1.363 . S
C3820 C3821 1.363 . S
C3820 C3825 1.379 . S
C3820 N3827 1.356 . S
C3821 C3820 1.363 . S
C3821 C3824 1.363 . S
N3822 C3824 1.356 . S
N3822 H3834 0.984 . S
N3822 H3835 0.985 . S
N3823 C3825 1.356 . S
N3823 H3828 0.984 . S
N3823 H3829 0.985 . S
C3824 C3818 1.379 . S
C3824 C3821 1.363 . S
C3824 N3822 1.356 . S
C3825 C3819 1.363 . S
C3825 C3820 1.379 . S
C3825 N3823 1.356 . S
N3826 C3818 1.356 . S
N3826 H3832 0.984 . S
N3826 H3833 0.984 . S
N3827 C3820 1.356 . S
N3827 H3830 0.984 . S
N3827 H3831 0.985 . S
H3828 N3823 0.984 . S
H3829 N3823 0.985 . S
H3830 N3827 0.984 . S
H3831 N3827 0.985 . S
H3832 N3826 0.984 . S
H3833 N3826 0.984 . S
H3834 N3822 0.984 . S
H3835 N3822 0.985 . S
C3836 C3837 1.363 . S
C3836 C3842 1.379 . S
C3836 N3844 1.356 . S
C3837 C3836 1.363 . S
C3837 C3843 1.363 . S
C3838 C3839 1.363 . S
C3838 C3843 1.379 . S
C3838 N3845 1.356 . S
C3839 C3838 1.363 . S
C3839 C3842 1.363 . S
N3840 C3842 1.356 1_655 S
N3840 H3852 0.984 . S
N3840 H3853 0.985 . S
N3841 C3843 1.356 . S
N3841 H3846 0.984 . S
N3841 H3847 0.985 . S
C3842 C3836 1.379 . S
C3842 C3839 1.363 . S
C3842 N3840 1.356 1_455 S
C3843 C3837 1.363 . S
C3843 C3838 1.379 . S
C3843 N3841 1.356 . S
N3844 C3836 1.356 . S
N3844 H3850 0.984 1_455 S
N3844 H3851 0.984 . S
N3845 C3838 1.356 . S
N3845 H3848 0.984 . S
N3845 H3849 0.985 . S
H3846 N3841 0.984 . S
H3847 N3841 0.985 . S
H3848 N3845 0.984 . S
H3849 N3845 0.985 . S
H3850 N3844 0.984 1_655 S
H3851 N3844 0.984 . S
H3852 N3840 0.984 . S
H3853 N3840 0.985 . S
C3854 C3855 1.363 . S
C3854 C3860 1.379 . S
C3854 N3862 1.356 . S
C3855 C3854 1.363 . S
C3855 C3861 1.363 . S
C3856 C3857 1.363 . S
C3856 C3861 1.379 . S
C3856 N3863 1.356 . S
C3857 C3856 1.363 . S
C3857 C3860 1.363 . S
N3858 C3860 1.356 . S
N3858 H3870 0.984 . S
N3858 H3871 0.985 . S
N3859 C3861 1.356 . S
N3859 H3864 0.984 . S
N3859 H3865 0.985 . S
C3860 C3854 1.379 . S
C3860 C3857 1.363 . S
C3860 N3858 1.356 . S
C3861 C3855 1.363 . S
C3861 C3856 1.379 . S
C3861 N3859 1.356 . S
N3862 C3854 1.356 . S
N3862 H3868 0.984 . S
N3862 H3869 0.984 . S
N3863 C3856 1.356 . S
N3863 H3866 0.984 . S
N3863 H3867 0.985 . S
H3864 N3859 0.984 . S
H3865 N3859 0.985 . S
H3866 N3863 0.984 . S
H3867 N3863 0.985 . S
H3868 N3862 0.984 . S
H3869 N3862 0.984 . S
H3870 N3858 0.984 . S
H3871 N3858 0.985 . S
C3872 C3873 1.363 . S
C3872 C3878 1.379 . S
C3872 N3880 1.356 . S
C3873 C3872 1.363 . S
C3873 C3879 1.363 . S
C3874 C3875 1.363 . S
C3874 C3879 1.379 . S
C3874 N3881 1.356 . S
C3875 C3874 1.363 . S
C3875 C3878 1.363 . S
N3876 C3878 1.356 . S
N3876 H3888 0.984 . S
N3876 H3889 0.985 . S
N3877 C3879 1.356 . S
N3877 H3882 0.984 . S
N3877 H3883 0.985 . S
C3878 C3872 1.379 . S
C3878 C3875 1.363 . S
C3878 N3876 1.356 . S
C3879 C3873 1.363 . S
C3879 C3874 1.379 . S
C3879 N3877 1.356 . S
N3880 C3872 1.356 . S
N3880 H3886 0.984 . S
N3880 H3887 0.984 . S
N3881 C3874 1.356 . S
N3881 H3884 0.984 . S
N3881 H3885 0.985 . S
H3882 N3877 0.984 . S
H3883 N3877 0.985 . S
H3884 N3881 0.984 . S
H3885 N3881 0.985 . S
H3886 N3880 0.984 . S
H3887 N3880 0.984 . S
H3888 N3876 0.984 . S
H3889 N3876 0.985 . S
C3890 C3891 1.363 . S
C3890 C3896 1.379 . S
C3890 N3898 1.356 . S
C3891 C3890 1.363 . S
C3891 C3897 1.363 . S
C3892 C3893 1.363 . S
C3892 C3897 1.379 . S
C3892 N3899 1.356 . S
C3893 C3892 1.363 . S
C3893 C3896 1.363 . S
N3894 C3896 1.356 . S
N3894 H3906 0.984 . S
N3894 H3907 0.985 . S
N3895 C3897 1.356 . S
N3895 H3900 0.984 . S
N3895 H3901 0.985 . S
C3896 C3890 1.379 . S
C3896 C3893 1.363 . S
C3896 N3894 1.356 . S
C3897 C3891 1.363 . S
C3897 C3892 1.379 . S
C3897 N3895 1.356 . S
N3898 C3890 1.356 . S
N3898 H3904 0.984 . S
N3898 H3905 0.984 . S
N3899 C3892 1.356 . S
N3899 H3902 0.984 . S
N3899 H3903 0.985 . S
H3900 N3895 0.984 . S
H3901 N3895 0.985 . S
H3902 N3899 0.984 . S
H3903 N3899 0.985 . S
H3904 N3898 0.984 . S
H3905 N3898 0.984 . S
H3906 N3894 0.984 . S
H3907 N3894 0.985 . S
C3908 C3909 1.363 . S
C3908 C3914 1.379 . S
C3908 N3916 1.356 . S
C3909 C3908 1.363 . S
C3909 C3915 1.363 1_655 S
C3910 C3911 1.363 1_455 S
C3910 C3915 1.379 . S
C3910 N3917 1.356 . S
C3911 C3910 1.363 1_655 S
C3911 C3914 1.363 . S
N3912 C3914 1.356 . S
N3912 H3924 0.984 . S
N3912 H3925 0.985 . S
N3913 C3915 1.356 . S
N3913 H3918 0.984 . S
N3913 H3919 0.985 . S
C3914 C3908 1.379 . S
C3914 C3911 1.363 . S
C3914 N3912 1.356 . S
C3915 C3909 1.363 1_455 S
C3915 C3910 1.379 . S
C3915 N3913 1.356 . S
N3916 C3908 1.356 . S
N3916 H3922 0.984 . S
N3916 H3923 0.984 . S
N3917 C3910 1.356 . S
N3917 H3920 0.984 . S
N3917 H3921 0.985 . S
H3918 N3913 0.984 . S
H3919 N3913 0.985 . S
H3920 N3917 0.984 . S
H3921 N3917 0.985 . S
H3922 N3916 0.984 . S
H3923 N3916 0.984 . S
H3924 N3912 0.984 . S
H3925 N3912 0.985 . S
C3926 C3927 1.363 . S
C3926 C3932 1.379 . S
C3926 N3934 1.356 . S
C3927 C3926 1.363 . S
C3927 C3933 1.363 . S
C3928 C3929 1.363 . S
C3928 C3933 1.379 . S
C3928 N3935 1.356 . S
C3929 C3928 1.363 . S
C3929 C3932 1.363 . S
N3930 C3932 1.356 . S
N3930 H3942 0.984 . S
N3930 H3943 0.985 . S
N3931 C3933 1.356 . S
N3931 H3936 0.984 . S
N3931 H3937 0.985 . S
C3932 C3926 1.379 . S
C3932 C3929 1.363 . S
C3932 N3930 1.356 . S
C3933 C3927 1.363 . S
C3933 C3928 1.379 . S
C3933 N3931 1.356 . S
N3934 C3926 1.356 . S
N3934 H3940 0.984 . S
N3934 H3941 0.984 . S
N3935 C3928 1.356 . S
N3935 H3938 0.984 . S
N3935 H3939 0.985 . S
H3936 N3931 0.984 . S
H3937 N3931 0.985 . S
H3938 N3935 0.984 . S
H3939 N3935 0.985 . S
H3940 N3934 0.984 . S
H3941 N3934 0.984 . S
H3942 N3930 0.984 . S
H3943 N3930 0.985 . S
C3944 C3945 1.363 . S
C3944 C3950 1.379 . S
C3944 N3952 1.356 . S
C3945 C3944 1.363 . S
C3945 C3951 1.363 . S
C3946 C3947 1.363 . S
C3946 C3951 1.379 . S
C3946 N3953 1.356 . S
C3947 C3946 1.363 . S
C3947 C3950 1.363 . S
N3948 C3950 1.356 . S
N3948 H3960 0.984 . S
N3948 H3961 0.985 . S
N3949 C3951 1.356 . S
N3949 H3954 0.984 . S
N3949 H3955 0.985 . S
C3950 C3944 1.379 . S
C3950 C3947 1.363 . S
C3950 N3948 1.356 . S
C3951 C3945 1.363 . S
C3951 C3946 1.379 . S
C3951 N3949 1.356 . S
N3952 C3944 1.356 . S
N3952 H3958 0.984 . S
N3952 H3959 0.984 . S
N3953 C3946 1.356 . S
N3953 H3956 0.984 . S
N3953 H3957 0.985 . S
H3954 N3949 0.984 . S
H3955 N3949 0.985 . S
H3956 N3953 0.984 . S
H3957 N3953 0.985 . S
H3958 N3952 0.984 . S
H3959 N3952 0.984 . S
H3960 N3948 0.984 . S
H3961 N3948 0.985 . S
C3962 C3963 1.363 . S
C3962 C3968 1.379 . S
C3962 N3970 1.356 . S
C3963 C3962 1.363 . S
C3963 C3969 1.363 . S
C3964 C3965 1.363 . S
C3964 C3969 1.379 . S
C3964 N3971 1.356 . S
C3965 C3964 1.363 . S
C3965 C3968 1.363 . S
N3966 C3968 1.356 . S
N3966 H3978 0.984 . S
N3966 H3979 0.985 . S
N3967 C3969 1.356 . S
N3967 H3972 0.984 . S
N3967 H3973 0.985 . S
C3968 C3962 1.379 . S
C3968 C3965 1.363 . S
C3968 N3966 1.356 . S
C3969 C3963 1.363 . S
C3969 C3964 1.379 . S
C3969 N3967 1.356 . S
N3970 C3962 1.356 . S
N3970 H3976 0.984 . S
N3970 H3977 0.984 . S
N3971 C3964 1.356 . S
N3971 H3974 0.984 . S
N3971 H3975 0.985 . S
H3972 N3967 0.984 . S
H3973 N3967 0.985 . S
H3974 N3971 0.984 . S
H3975 N3971 0.985 . S
H3976 N3970 0.984 . S
H3977 N3970 0.984 . S
H3978 N3966 0.984 . S
H3979 N3966 0.985 . S
C3980 C3981 1.363 . S
C3980 C3986 1.379 . S
C3980 N3988 1.348 1_655 S
C3981 C3980 1.363 . S
C3981 C3987 1.363 . S
C3982 C3983 1.363 . S
C3982 C3987 1.379 . S
C3982 N3989 1.356 . S
C3983 C3982 1.363 . S
C3983 C3986 1.363 . S
N3984 C3986 1.356 1_455 S
N3984 H3996 0.984 . S
N3984 H3997 0.985 . S
N3985 C3987 1.356 . S
N3985 H3990 0.984 . S
N3985 H3991 0.985 . S
C3986 C3980 1.379 . S
C3986 C3983 1.363 . S
C3986 N3984 1.356 1_655 S
C3987 C3981 1.363 . S
C3987 C3982 1.379 . S
C3987 N3985 1.356 . S
N3988 C3980 1.348 1_455 S
N3988 H3994 1.012 . S
N3988 H3995 0.967 1_455 S
N3989 C3982 1.356 . S
N3989 H3992 0.984 . S
N3989 H3993 0.985 . S
H3990 N3985 0.984 . S
H3991 N3985 0.985 . S
H3992 N3989 0.984 . S
H3993 N3989 0.985 . S
H3994 N3988 1.012 . S
H3995 N3988 0.967 1_655 S
H3996 N3984 0.984 . S
H3997 N3984 0.985 . S
C3998 C3999 1.363 . S
C3998 C4004 1.379 . S
C3998 N4006 1.356 . S
C3999 C3998 1.363 . S
C3999 C4005 1.363 . S
C4000 C4001 1.363 . S
C4000 C4005 1.379 . S
C4000 N4007 1.356 . S
C4001 C4000 1.363 . S
C4001 C4004 1.363 . S
N4002 C4004 1.356 . S
N4002 H4014 0.984 . S
N4002 H4015 0.985 . S
N4003 C4005 1.356 . S
N4003 H4008 0.984 . S
N4003 H4009 0.985 . S
C4004 C3998 1.379 . S
C4004 C4001 1.363 . S
C4004 N4002 1.356 . S
C4005 C3999 1.363 . S
C4005 C4000 1.379 . S
C4005 N4003 1.356 . S
N4006 C3998 1.356 . S
N4006 H4012 0.984 . S
N4006 H4013 0.984 . S
N4007 C4000 1.356 . S
N4007 H4010 0.984 . S
N4007 H4011 0.985 . S
H4008 N4003 0.984 . S
H4009 N4003 0.985 . S
H4010 N4007 0.984 . S
H4011 N4007 0.985 . S
H4012 N4006 0.984 . S
H4013 N4006 0.984 . S
H4014 N4002 0.984 . S
H4015 N4002 0.985 . S
C4016 C4017 1.363 . S
C4016 C4022 1.379 . S
C4016 N4024 1.356 . S
C4017 C4016 1.363 . S
C4017 C4023 1.363 . S
C4018 C4019 1.363 . S
C4018 C4023 1.379 . S
C4018 N4025 1.356 . S
C4019 C4018 1.363 . S
C4019 C4022 1.363 . S
N4020 C4022 1.356 . S
N4020 H4032 0.984 . S
N4020 H4033 0.985 . S
N4021 C4023 1.356 . S
N4021 H4026 0.984 . S
N4021 H4027 0.985 . S
C4022 C4016 1.379 . S
C4022 C4019 1.363 . S
C4022 N4020 1.356 . S
C4023 C4017 1.363 . S
C4023 C4018 1.379 . S
C4023 N4021 1.356 . S
N4024 C4016 1.356 . S
N4024 H4030 0.984 . S
N4024 H4031 0.984 . S
N4025 C4018 1.356 . S
N4025 H4028 0.984 . S
N4025 H4029 0.985 . S
H4026 N4021 0.984 . S
H4027 N4021 0.985 . S
H4028 N4025 0.984 . S
H4029 N4025 0.985 . S
H4030 N4024 0.984 . S
H4031 N4024 0.984 . S
H4032 N4020 0.984 . S
H4033 N4020 0.985 . S
C4034 C4035 1.363 1_545 S
C4034 C4040 1.379 . S
C4034 N4042 1.356 . S
C4035 C4034 1.363 1_565 S
C4035 C4041 1.363 . S
C4036 C4037 1.363 . S
C4036 C4041 1.379 . S
C4036 N4043 1.356 . S
C4037 C4036 1.363 . S
C4037 C4040 1.363 1_565 S
N4038 C4040 1.356 . S
N4038 H4050 0.984 . S
N4038 H4051 0.985 . S
N4039 C4041 1.356 . S
N4039 H4044 0.984 . S
N4039 H4045 0.985 . S
C4040 C4034 1.379 . S
C4040 C4037 1.363 1_545 S
C4040 N4038 1.356 . S
C4041 C4035 1.363 . S
C4041 C4036 1.379 . S
C4041 N4039 1.356 . S
N4042 C4034 1.356 . S
N4042 H4048 0.984 . S
N4042 H4049 0.984 . S
N4043 C4036 1.356 . S
N4043 H4046 0.984 . S
N4043 H4047 0.985 . S
H4044 N4039 0.984 . S
H4045 N4039 0.985 . S
H4046 N4043 0.984 . S
H4047 N4043 0.985 . S
H4048 N4042 0.984 . S
H4049 N4042 0.984 . S
H4050 N4038 0.984 . S
H4051 N4038 0.985 . S
C4052 C4053 1.363 . S
C4052 C4058 1.379 . S
C4052 N4060 1.356 . S
C4053 C4052 1.363 . S
C4053 C4059 1.363 . S
C4054 C4055 1.363 . S
C4054 C4059 1.379 . S
C4054 N4061 1.356 . S
C4055 C4054 1.363 . S
C4055 C4058 1.363 . S
N4056 C4058 1.356 . S
N4056 H4068 0.984 . S
N4056 H4069 0.985 . S
N4057 C4059 1.356 . S
N4057 H4062 0.984 . S
N4057 H4063 0.985 . S
C4058 C4052 1.379 . S
C4058 C4055 1.363 . S
C4058 N4056 1.356 . S
C4059 C4053 1.363 . S
C4059 C4054 1.379 . S
C4059 N4057 1.356 . S
N4060 C4052 1.356 . S
N4060 H4066 0.984 . S
N4060 H4067 0.984 . S
N4061 C4054 1.356 . S
N4061 H4064 0.984 . S
N4061 H4065 0.985 . S
H4062 N4057 0.984 . S
H4063 N4057 0.985 . S
H4064 N4061 0.984 . S
H4065 N4061 0.985 . S
H4066 N4060 0.984 . S
H4067 N4060 0.984 . S
H4068 N4056 0.984 . S
H4069 N4056 0.985 . S
C4070 C4071 1.363 . S
C4070 C4076 1.379 . S
C4070 N4078 1.356 . S
C4071 C4070 1.363 . S
C4071 C4077 1.363 1_556 S
C4072 C4073 1.363 . S
C4072 C4077 1.379 . S
C4072 N4079 1.356 . S
C4073 C4072 1.363 . S
C4073 C4076 1.363 1_554 S
N4074 C4076 1.356 . S
N4074 H4086 0.984 . S
N4074 H4087 0.985 . S
N4075 C4077 1.356 . S
N4075 H4080 0.984 . S
N4075 H4081 0.985 . S
C4076 C4070 1.379 . S
C4076 C4073 1.363 1_556 S
C4076 N4074 1.356 . S
C4077 C4071 1.363 1_554 S
C4077 C4072 1.379 . S
C4077 N4075 1.356 . S
N4078 C4070 1.356 . S
N4078 H4084 0.984 . S
N4078 H4085 0.984 . S
N4079 C4072 1.356 . S
N4079 H4082 0.984 . S
N4079 H4083 0.985 . S
H4080 N4075 0.984 . S
H4081 N4075 0.985 . S
H4082 N4079 0.984 . S
H4083 N4079 0.985 . S
H4084 N4078 0.984 . S
H4085 N4078 0.984 . S
H4086 N4074 0.984 . S
H4087 N4074 0.985 . S
C4088 C4089 1.363 . S
C4088 C4094 1.379 . S
C4088 N4096 1.356 . S
C4089 C4088 1.363 . S
C4089 C4095 1.363 . S
C4090 C4091 1.363 . S
C4090 C4095 1.379 . S
C4090 N4097 1.356 . S
C4091 C4090 1.363 . S
C4091 C4094 1.363 . S
N4092 C4094 1.356 . S
N4092 H4104 0.984 . S
N4092 H4105 0.985 . S
N4093 C4095 1.356 . S
N4093 H4098 0.984 . S
N4093 H4099 0.985 . S
C4094 C4088 1.379 . S
C4094 C4091 1.363 . S
C4094 N4092 1.356 . S
C4095 C4089 1.363 . S
C4095 C4090 1.379 . S
C4095 N4093 1.356 . S
N4096 C4088 1.356 . S
N4096 H4102 0.984 . S
N4096 H4103 0.984 . S
N4097 C4090 1.356 . S
N4097 H4100 0.984 . S
N4097 H4101 0.985 . S
H4098 N4093 0.984 . S
H4099 N4093 0.985 . S
H4100 N4097 0.984 . S
H4101 N4097 0.985 . S
H4102 N4096 0.984 . S
H4103 N4096 0.984 . S
H4104 N4092 0.984 . S
H4105 N4092 0.985 . S
C4106 C4107 1.363 . S
C4106 C4112 1.379 . S
C4106 N4114 1.356 . S
C4107 C4106 1.363 . S
C4107 C4113 1.366 . S
C4108 C4109 1.363 . S
C4108 C4113 1.377 1_556 S
C4108 N4115 1.356 . S
C4109 C4108 1.363 . S
C4109 C4112 1.363 1_556 S
N4110 C4112 1.356 . S
N4110 H4122 0.984 . S
N4110 H4123 0.985 . S
N4111 C4113 1.356 1_556 S
N4111 H4116 0.984 1_556 S
N4111 H4117 0.985 . S
C4112 C4106 1.379 . S
C4112 C4109 1.363 1_554 S
C4112 N4110 1.356 . S
C4113 C4107 1.366 . S
C4113 C4108 1.377 1_554 S
C4113 N4111 1.356 1_554 S
N4114 C4106 1.356 . S
N4114 H4120 0.984 . S
N4114 H4121 0.984 . S
N4115 C4108 1.356 . S
N4115 H4118 0.984 . S
N4115 H4119 0.985 . S
H4116 N4111 0.984 1_554 S
H4117 N4111 0.985 . S
H4118 N4115 0.984 . S
H4119 N4115 0.985 . S
H4120 N4114 0.984 . S
H4121 N4114 0.984 . S
H4122 N4110 0.984 . S
H4123 N4110 0.985 . S
C4124 C4125 1.363 . S
C4124 C4130 1.379 . S
C4124 N4132 1.356 . S
C4125 C4124 1.363 . S
C4125 C4131 1.363 . S
C4126 C4127 1.363 . S
C4126 C4131 1.379 . S
C4126 N4133 1.356 . S
C4127 C4126 1.363 . S
C4127 C4130 1.363 . S
N4128 C4130 1.356 . S
N4128 H4140 0.984 . S
N4128 H4141 0.985 . S
N4129 C4131 1.356 . S
N4129 H4134 0.984 . S
N4129 H4135 0.985 . S
C4130 C4124 1.379 . S
C4130 C4127 1.363 . S
C4130 N4128 1.356 . S
C4131 C4125 1.363 . S
C4131 C4126 1.379 . S
C4131 N4129 1.356 . S
N4132 C4124 1.356 . S
N4132 H4138 0.984 . S
N4132 H4139 0.984 . S
N4133 C4126 1.356 . S
N4133 H4136 0.984 . S
N4133 H4137 0.985 . S
H4134 N4129 0.984 . S
H4135 N4129 0.985 . S
H4136 N4133 0.984 . S
H4137 N4133 0.985 . S
H4138 N4132 0.984 . S
H4139 N4132 0.984 . S
H4140 N4128 0.984 . S
H4141 N4128 0.985 . S
C4142 C4143 1.363 . S
C4142 C4148 1.379 . S
C4142 N4150 1.356 . S
C4143 C4142 1.363 . S
C4143 C4149 1.363 . S
C4144 C4145 1.363 . S
C4144 C4149 1.379 . S
C4144 N4151 1.356 . S
C4145 C4144 1.363 . S
C4145 C4148 1.363 . S
N4146 C4148 1.356 . S
N4146 H4158 0.984 . S
N4146 H4159 0.985 . S
N4147 C4149 1.356 . S
N4147 H4152 0.984 . S
N4147 H4153 0.985 . S
C4148 C4142 1.379 . S
C4148 C4145 1.363 . S
C4148 N4146 1.356 . S
C4149 C4143 1.363 . S
C4149 C4144 1.379 . S
C4149 N4147 1.356 . S
N4150 C4142 1.356 . S
N4150 H4156 0.984 . S
N4150 H4157 0.984 . S
N4151 C4144 1.356 . S
N4151 H4154 0.984 . S
N4151 H4155 0.985 . S
H4152 N4147 0.984 . S
H4153 N4147 0.985 . S
H4154 N4151 0.984 . S
H4155 N4151 0.985 . S
H4156 N4150 0.984 . S
H4157 N4150 0.984 . S
H4158 N4146 0.984 . S
H4159 N4146 0.985 . S
C2433 C665 1.165 . S
C2435 C2128 1.137 . S
C2451 C381 1.346 . S
C2453 C2141 1.336 . S
C2469 C460 1.355 . S
C2471 C2160 1.365 . S
C2489 C2191 1.884 . S
C2487 C585 1.962 . S
C2505 C108 1.711 . S
C2507 C2211 1.653 . S
C2525 C2228 0.949 . S
C2523 C196 0.928 . S
C2543 C2241 1.492 . S
C2541 C313 1.478 . S
C2559 C49 0.951 . S
C2561 C2268 0.935 . S
C2579 C2121 1.208 . S
C2577 C1457 1.212 . S
C2595 C1545 1.528 . S
C2597 C2151 1.481 . S
C2615 C2153 1.811 . S
C2613 C1721 1.823 . S
C2633 C2188 1.083 . S
C2631 C1113 1.031 . S
C2649 C1428 1.273 . S
C2651 C2208 1.341 . S
C2669 C2221 1.896 . S
C2667 C1516 1.854 . S
C2687 C2251 1.303 . S
C2685 C1692 1.357 . S
C2705 C2261 1.217 . S
C2703 C1085 1.242 . S
C2723 C2131 1.512 . S
C2721 C988 1.566 . S
C2739 C1817 1.815 . S
C2741 C2281 1.823 . S
C2759 C2311 1.577 . S
C2757 C2081 1.604 . S
C2777 C2328 1.281 . S
C2775 C1993 1.253 . S
C2793 C761 1.880 . S
C2795 C2271 1.835 . S
C2811 C821 1.255 . S
C2813 C2158 1.186 . S
C2829 C2053 1.911 . S
C2831 C2341 1.915 . S
C2849 C2368 0.988 . S
C2847 C1868 0.980 . S
C2867 C2118 1.135 . S
C2865 C372 1.163 . S
C2885 C2353 1.333 . S
C2883 C645 1.342 . S
C2901 C577 1.354 . S
C2903 C2171 1.360 . S
C2919 C497 1.958 . S
C2921 C2340 1.881 . S
C2939 C2200 1.651 . S
C2937 C57 1.709 . S
C2955 C293 0.925 . S
C2957 C2298 0.944 . S
C2975 C2233 1.492 1_556 S
C2973 C205 1.473 . S
C2993 C2378 0.932 . S
C2991 C145 0.950 . S
C3011 C2113 1.206 . S
C3009 C909 1.207 . S
C3029 C2360 1.477 . S
C3027 C1956 1.528 . S
C3045 C724 1.807 . S
C3047 C2161 1.808 . S
C3063 C1780 1.029 . S
C3065 C2338 1.077 . S
C3081 C937 1.273 . S
C3083 C2198 1.332 . S
C3101 C2293 1.895 . S
C3099 C1985 1.848 . S
C3117 C753 1.356 . S
C3119 C2240 1.299 . S
C3135 C1809 1.238 . S
C3137 C2373 1.214 . S
C3153 C1173 1.563 . S
C3155 C2120 1.512 . S
C3171 C1105 1.811 . S
C3173 C2273 1.810 . S
C3189 C1633 1.604 . S
C3191 C2220 1.575 . S
C3207 C1553 1.251 . S
C3209 C2318 1.276 . S
C3227 C2380 1.834 . S
C3225 C1729 1.877 . S
C3243 C1340 1.256 . S
C3245 C2168 1.183 1_565 S
C3263 C2173 1.913 . S
C3261 C1604 1.906 . S
C3281 C2138 0.984 . S
C3279 C1252 0.978 . S
C3297 C489 1.165 . S
C3299 C2408 1.137 . S
C3317 C2361 1.336 . S
C3315 C557 1.346 . S
C3333 C636 1.355 . S
C3335 C2420 1.379 . S
C3351 C409 1.963 . S
C3353 C2351 1.884 . S
C3369 C284 1.711 . S
C3371 C2291 1.653 . S
C3389 C2308 0.948 . S
C3387 C20 0.927 . S
C3407 C2321 1.492 1_655 S
C3405 C137 1.477 . S
C3425 C2388 0.935 . S
C3423 C225 0.951 . S
C3443 C2401 1.208 . S
C3441 C1641 1.212 . S
C3459 C1193 1.528 . S
C3461 C2371 1.483 . S
C3479 C2413 1.811 . S
C3477 C1289 1.813 . S
C3497 C2348 1.083 . S
C3495 C1377 1.031 . S
C3515 C2288 1.341 . S
C3513 C1613 1.273 . S
C3531 C1164 1.854 . S
C3533 C2301 1.893 . S
C3551 C2331 1.303 . S
C3549 C1261 1.356 . S
C3567 C1349 1.242 . S
C3569 C2381 1.217 . S
C3587 C2411 1.514 . S
C3585 C1965 1.566 . S
C3603 C849 1.815 . S
C3605 C2201 1.812 . S
C3623 C2231 1.578 . S
C3621 C929 1.608 . S
C3641 C2248 1.280 . S
C3639 C1017 1.253 . S
C3659 C2391 1.835 . S
C3657 C1897 1.881 . S
C3675 C1789 1.255 . S
C3677 C2418 1.186 . S
C3695 C2181 1.915 . S
C3693 C900 1.906 . S
C3713 C2148 0.988 . S
C3711 C733 0.980 . S
C3729 C548 1.163 . S
C3731 C2398 1.135 . S
C3749 C2133 1.333 . S
C3747 C469 1.342 . S
C3765 C401 1.354 . S
C3767 C2431 1.360 . S
C3783 C673 1.958 . S
C3785 C2180 1.882 . S
C3801 C233 1.708 . S
C3803 C2280 1.651 1_556 S
C3821 C2218 0.944 . S
C3819 C117 0.924 . S
C3837 C29 1.473 . S
C3839 C2313 1.491 . S
C3855 C321 0.948 . S
C3857 C2258 0.932 . S
C3875 C2393 1.206 . S
C3873 C2044 1.208 . S
C3891 C997 1.528 . S
C3893 C2140 1.477 . S
C3911 C2421 1.809 1_655 S
C3909 C1877 1.807 . S
C3927 C812 1.028 . S
C3929 C2178 1.077 . S
C3945 C2073 1.273 . S
C3947 C2278 1.335 . S
C3965 C2213 1.894 . S
C3963 C1025 1.848 . S
C3981 C1905 1.356 . S
C3983 C2320 1.299 . S
C4001 C2253 1.214 . S
C3999 C841 1.238 . S
C4019 C2400 1.512 . S
C4017 C1525 1.563 . S
C4037 C2193 1.810 1_565 S
C4035 C1369 1.811 . S
C4053 C1465 1.604 . S
C4055 C2300 1.574 . S
C4073 C2238 1.276 . S
C4071 C1201 1.250 . S
C4089 C1281 1.878 . S
C4091 C2260 1.834 . S
C4107 C1076 1.256 . S
C4109 C2428 1.183 . S
C4127 C2333 1.913 . S
C4125 C1437 1.906 . S
C4145 C2358 0.984 . S
C4143 C1701 0.978 . S
