# Generated by pormake.
# Topology iac, (4,6)-cn, num edge types: 1
# Building blocks:
#     Node 0, Type 0, BuildingBlock: QUQFOY_clean_sbu_1, # of connection points: 4
#     Node 1, Type 0, BuildingBlock: QUQFOY_clean_sbu_1, # of connection points: 4
#     Node 2, Type 0, BuildingBlock: QUQFOY_clean_sbu_1, # of connection points: 4
#     Node 3, Type 0, BuildingBlock: QUQFOY_clean_sbu_1, # of connection points: 4
#     Node 4, Type 0, BuildingBlock: QUQFOY_clean_sbu_1, # of connection points: 4
#     Node 5, Type 0, BuildingBlock: QUQFOY_clean_sbu_1, # of connection points: 4
#     Node 6, Type 0, BuildingBlock: QUQFOY_clean_sbu_1, # of connection points: 4
#     Node 7, Type 0, BuildingBlock: QUQFOY_clean_sbu_1, # of connection points: 4
#     Node 8, Type 0, BuildingBlock: QUQFOY_clean_sbu_1, # of connection points: 4
#     Node 9, Type 0, BuildingBlock: QUQFOY_clean_sbu_1, # of connection points: 4
#     Node 10, Type 0, BuildingBlock: QUQFOY_clean_sbu_1, # of connection points: 4
#     Node 11, Type 0, BuildingBlock: QUQFOY_clean_sbu_1, # of connection points: 4
#     Node 12, Type 0, BuildingBlock: QUQFOY_clean_sbu_1, # of connection points: 4
#     Node 13, Type 0, BuildingBlock: QUQFOY_clean_sbu_1, # of connection points: 4
#     Node 14, Type 0, BuildingBlock: QUQFOY_clean_sbu_1, # of connection points: 4
#     Node 15, Type 0, BuildingBlock: QUQFOY_clean_sbu_1, # of connection points: 4
#     Node 16, Type 0, BuildingBlock: QUQFOY_clean_sbu_1, # of connection points: 4
#     Node 17, Type 0, BuildingBlock: QUQFOY_clean_sbu_1, # of connection points: 4
#     Node 18, Type 0, BuildingBlock: QUQFOY_clean_sbu_1, # of connection points: 4
#     Node 19, Type 0, BuildingBlock: QUQFOY_clean_sbu_1, # of connection points: 4
#     Node 20, Type 0, BuildingBlock: QUQFOY_clean_sbu_1, # of connection points: 4
#     Node 21, Type 0, BuildingBlock: QUQFOY_clean_sbu_1, # of connection points: 4
#     Node 22, Type 0, BuildingBlock: QUQFOY_clean_sbu_1, # of connection points: 4
#     Node 23, Type 0, BuildingBlock: QUQFOY_clean_sbu_1, # of connection points: 4
#     Node 24, Type 1, BuildingBlock: JUFBIX_clean_sbu_0, # of connection points: 6
#     Node 25, Type 1, BuildingBlock: JUFBIX_clean_sbu_0, # of connection points: 6
#     Node 26, Type 1, BuildingBlock: JUFBIX_clean_sbu_0, # of connection points: 6
#     Node 27, Type 1, BuildingBlock: JUFBIX_clean_sbu_0, # of connection points: 6
#     Node 28, Type 1, BuildingBlock: JUFBIX_clean_sbu_0, # of connection points: 6
#     Node 29, Type 1, BuildingBlock: JUFBIX_clean_sbu_0, # of connection points: 6
#     Node 30, Type 1, BuildingBlock: JUFBIX_clean_sbu_0, # of connection points: 6
#     Node 31, Type 1, BuildingBlock: JUFBIX_clean_sbu_0, # of connection points: 6
#     Node 32, Type 1, BuildingBlock: JUFBIX_clean_sbu_0, # of connection points: 6
#     Node 33, Type 1, BuildingBlock: JUFBIX_clean_sbu_0, # of connection points: 6
#     Node 34, Type 1, BuildingBlock: JUFBIX_clean_sbu_0, # of connection points: 6
#     Node 35, Type 1, BuildingBlock: JUFBIX_clean_sbu_0, # of connection points: 6
#     Node 36, Type 1, BuildingBlock: JUFBIX_clean_sbu_0, # of connection points: 6
#     Node 37, Type 1, BuildingBlock: JUFBIX_clean_sbu_0, # of connection points: 6
#     Node 38, Type 1, BuildingBlock: JUFBIX_clean_sbu_0, # of connection points: 6
#     Node 39, Type 1, BuildingBlock: JUFBIX_clean_sbu_0, # of connection points: 6
#     Edge 40, Type (0, 1), BuildingBlock: XIVTED_clean_linker_0, # of connection points: 2
#     Edge 41, Type (0, 1), BuildingBlock: XIVTED_clean_linker_0, # of connection points: 2
#     Edge 42, Type (0, 1), BuildingBlock: XIVTED_clean_linker_0, # of connection points: 2
#     Edge 43, Type (0, 1), BuildingBlock: XIVTED_clean_linker_0, # of connection points: 2
#     Edge 44, Type (0, 1), BuildingBlock: XIVTED_clean_linker_0, # of connection points: 2
#     Edge 45, Type (0, 1), BuildingBlock: XIVTED_clean_linker_0, # of connection points: 2
#     Edge 46, Type (0, 1), BuildingBlock: XIVTED_clean_linker_0, # of connection points: 2
#     Edge 47, Type (0, 1), BuildingBlock: XIVTED_clean_linker_0, # of connection points: 2
#     Edge 48, Type (0, 1), BuildingBlock: XIVTED_clean_linker_0, # of connection points: 2
#     Edge 49, Type (0, 1), BuildingBlock: XIVTED_clean_linker_0, # of connection points: 2
#     Edge 50, Type (0, 1), BuildingBlock: XIVTED_clean_linker_0, # of connection points: 2
#     Edge 51, Type (0, 1), BuildingBlock: XIVTED_clean_linker_0, # of connection points: 2
#     Edge 52, Type (0, 1), BuildingBlock: XIVTED_clean_linker_0, # of connection points: 2
#     Edge 53, Type (0, 1), BuildingBlock: XIVTED_clean_linker_0, # of connection points: 2
#     Edge 54, Type (0, 1), BuildingBlock: XIVTED_clean_linker_0, # of connection points: 2
#     Edge 55, Type (0, 1), BuildingBlock: XIVTED_clean_linker_0, # of connection points: 2
#     Edge 56, Type (0, 1), BuildingBlock: XIVTED_clean_linker_0, # of connection points: 2
#     Edge 57, Type (0, 1), BuildingBlock: XIVTED_clean_linker_0, # of connection points: 2
#     Edge 58, Type (0, 1), BuildingBlock: XIVTED_clean_linker_0, # of connection points: 2
#     Edge 59, Type (0, 1), BuildingBlock: XIVTED_clean_linker_0, # of connection points: 2
#     Edge 60, Type (0, 1), BuildingBlock: XIVTED_clean_linker_0, # of connection points: 2
#     Edge 61, Type (0, 1), BuildingBlock: XIVTED_clean_linker_0, # of connection points: 2
#     Edge 62, Type (0, 1), BuildingBlock: XIVTED_clean_linker_0, # of connection points: 2
#     Edge 63, Type (0, 1), BuildingBlock: XIVTED_clean_linker_0, # of connection points: 2
#     Edge 64, Type (0, 1), BuildingBlock: XIVTED_clean_linker_0, # of connection points: 2
#     Edge 65, Type (0, 1), BuildingBlock: XIVTED_clean_linker_0, # of connection points: 2
#     Edge 66, Type (0, 1), BuildingBlock: XIVTED_clean_linker_0, # of connection points: 2
#     Edge 67, Type (0, 1), BuildingBlock: XIVTED_clean_linker_0, # of connection points: 2
#     Edge 68, Type (0, 1), BuildingBlock: XIVTED_clean_linker_0, # of connection points: 2
#     Edge 69, Type (0, 1), BuildingBlock: XIVTED_clean_linker_0, # of connection points: 2
#     Edge 70, Type (0, 1), BuildingBlock: XIVTED_clean_linker_0, # of connection points: 2
#     Edge 71, Type (0, 1), BuildingBlock: XIVTED_clean_linker_0, # of connection points: 2
#     Edge 72, Type (0, 1), BuildingBlock: XIVTED_clean_linker_0, # of connection points: 2
#     Edge 73, Type (0, 1), BuildingBlock: XIVTED_clean_linker_0, # of connection points: 2
#     Edge 74, Type (0, 1), BuildingBlock: XIVTED_clean_linker_0, # of connection points: 2
#     Edge 75, Type (0, 1), BuildingBlock: XIVTED_clean_linker_0, # of connection points: 2
#     Edge 76, Type (0, 1), BuildingBlock: XIVTED_clean_linker_0, # of connection points: 2
#     Edge 77, Type (0, 1), BuildingBlock: XIVTED_clean_linker_0, # of connection points: 2
#     Edge 78, Type (0, 1), BuildingBlock: XIVTED_clean_linker_0, # of connection points: 2
#     Edge 79, Type (0, 1), BuildingBlock: XIVTED_clean_linker_0, # of connection points: 2
#     Edge 80, Type (0, 1), BuildingBlock: XIVTED_clean_linker_0, # of connection points: 2
#     Edge 81, Type (0, 1), BuildingBlock: XIVTED_clean_linker_0, # of connection points: 2
#     Edge 82, Type (0, 1), BuildingBlock: XIVTED_clean_linker_0, # of connection points: 2
#     Edge 83, Type (0, 1), BuildingBlock: XIVTED_clean_linker_0, # of connection points: 2
#     Edge 84, Type (0, 1), BuildingBlock: XIVTED_clean_linker_0, # of connection points: 2
#     Edge 85, Type (0, 1), BuildingBlock: XIVTED_clean_linker_0, # of connection points: 2
#     Edge 86, Type (0, 1), BuildingBlock: XIVTED_clean_linker_0, # of connection points: 2
#     Edge 87, Type (0, 1), BuildingBlock: XIVTED_clean_linker_0, # of connection points: 2
#     Edge 88, Type (0, 1), BuildingBlock: XIVTED_clean_linker_0, # of connection points: 2
#     Edge 89, Type (0, 1), BuildingBlock: XIVTED_clean_linker_0, # of connection points: 2
#     Edge 90, Type (0, 1), BuildingBlock: XIVTED_clean_linker_0, # of connection points: 2
#     Edge 91, Type (0, 1), BuildingBlock: XIVTED_clean_linker_0, # of connection points: 2
#     Edge 92, Type (0, 1), BuildingBlock: XIVTED_clean_linker_0, # of connection points: 2
#     Edge 93, Type (0, 1), BuildingBlock: XIVTED_clean_linker_0, # of connection points: 2
#     Edge 94, Type (0, 1), BuildingBlock: XIVTED_clean_linker_0, # of connection points: 2
#     Edge 95, Type (0, 1), BuildingBlock: XIVTED_clean_linker_0, # of connection points: 2
#     Edge 96, Type (0, 1), BuildingBlock: XIVTED_clean_linker_0, # of connection points: 2
#     Edge 97, Type (0, 1), BuildingBlock: XIVTED_clean_linker_0, # of connection points: 2
#     Edge 98, Type (0, 1), BuildingBlock: XIVTED_clean_linker_0, # of connection points: 2
#     Edge 99, Type (0, 1), BuildingBlock: XIVTED_clean_linker_0, # of connection points: 2
#     Edge 100, Type (0, 1), BuildingBlock: XIVTED_clean_linker_0, # of connection points: 2
#     Edge 101, Type (0, 1), BuildingBlock: XIVTED_clean_linker_0, # of connection points: 2
#     Edge 102, Type (0, 1), BuildingBlock: XIVTED_clean_linker_0, # of connection points: 2
#     Edge 103, Type (0, 1), BuildingBlock: XIVTED_clean_linker_0, # of connection points: 2
#     Edge 104, Type (0, 1), BuildingBlock: XIVTED_clean_linker_0, # of connection points: 2
#     Edge 105, Type (0, 1), BuildingBlock: XIVTED_clean_linker_0, # of connection points: 2
#     Edge 106, Type (0, 1), BuildingBlock: XIVTED_clean_linker_0, # of connection points: 2
#     Edge 107, Type (0, 1), BuildingBlock: XIVTED_clean_linker_0, # of connection points: 2
#     Edge 108, Type (0, 1), BuildingBlock: XIVTED_clean_linker_0, # of connection points: 2
#     Edge 109, Type (0, 1), BuildingBlock: XIVTED_clean_linker_0, # of connection points: 2
#     Edge 110, Type (0, 1), BuildingBlock: XIVTED_clean_linker_0, # of connection points: 2
#     Edge 111, Type (0, 1), BuildingBlock: XIVTED_clean_linker_0, # of connection points: 2
#     Edge 112, Type (0, 1), BuildingBlock: XIVTED_clean_linker_0, # of connection points: 2
#     Edge 113, Type (0, 1), BuildingBlock: XIVTED_clean_linker_0, # of connection points: 2
#     Edge 114, Type (0, 1), BuildingBlock: XIVTED_clean_linker_0, # of connection points: 2
#     Edge 115, Type (0, 1), BuildingBlock: XIVTED_clean_linker_0, # of connection points: 2
#     Edge 116, Type (0, 1), BuildingBlock: XIVTED_clean_linker_0, # of connection points: 2
#     Edge 117, Type (0, 1), BuildingBlock: XIVTED_clean_linker_0, # of connection points: 2
#     Edge 118, Type (0, 1), BuildingBlock: XIVTED_clean_linker_0, # of connection points: 2
#     Edge 119, Type (0, 1), BuildingBlock: XIVTED_clean_linker_0, # of connection points: 2
#     Edge 120, Type (0, 1), BuildingBlock: XIVTED_clean_linker_0, # of connection points: 2
#     Edge 121, Type (0, 1), BuildingBlock: XIVTED_clean_linker_0, # of connection points: 2
#     Edge 122, Type (0, 1), BuildingBlock: XIVTED_clean_linker_0, # of connection points: 2
#     Edge 123, Type (0, 1), BuildingBlock: XIVTED_clean_linker_0, # of connection points: 2
#     Edge 124, Type (0, 1), BuildingBlock: XIVTED_clean_linker_0, # of connection points: 2
#     Edge 125, Type (0, 1), BuildingBlock: XIVTED_clean_linker_0, # of connection points: 2
#     Edge 126, Type (0, 1), BuildingBlock: XIVTED_clean_linker_0, # of connection points: 2
#     Edge 127, Type (0, 1), BuildingBlock: XIVTED_clean_linker_0, # of connection points: 2
#     Edge 128, Type (0, 1), BuildingBlock: XIVTED_clean_linker_0, # of connection points: 2
#     Edge 129, Type (0, 1), BuildingBlock: XIVTED_clean_linker_0, # of connection points: 2
#     Edge 130, Type (0, 1), BuildingBlock: XIVTED_clean_linker_0, # of connection points: 2
#     Edge 131, Type (0, 1), BuildingBlock: XIVTED_clean_linker_0, # of connection points: 2
#     Edge 132, Type (0, 1), BuildingBlock: XIVTED_clean_linker_0, # of connection points: 2
#     Edge 133, Type (0, 1), BuildingBlock: XIVTED_clean_linker_0, # of connection points: 2
#     Edge 134, Type (0, 1), BuildingBlock: XIVTED_clean_linker_0, # of connection points: 2
#     Edge 135, Type (0, 1), BuildingBlock: XIVTED_clean_linker_0, # of connection points: 2
# Relax obj value: 0.249
# Max RMSD: 0.249
# Mean RMSD: 0.172
data_MOF--net-iac--node1-QUQFOY_clean_sbu_1--node2-JUFBIX_clean_sbu_0--edge1-XIVTED_clean_linker_0
_symmetry_space_group_name_H-M    P1
_symmetry_Int_Tables_number       1
_symmetry_cell_setting            triclinic
loop_
_symmetry_equiv_pos_as_xyz
'x, y, z'
_cell_length_a     55.557149
_cell_length_b     56.80398
_cell_length_c     56.392878
_cell_angle_alpha  90.610982
_cell_angle_beta   88.639147
_cell_angle_gamma 92.031806
loop_
_atom_site_label
_atom_site_type_symbol
_atom_site_fract_x
_atom_site_fract_y
_atom_site_fract_z
_atom_type_partial_charge
O0 O 0.02758 0.22717 0.14222 0.0
Cd1 Cd 0.02852 0.2552 0.16633 0.0
Cd2 Cd 0.05248 0.2778 0.12586 0.0
O3 O 0.0437 0.24437 0.11033 0.0
O4 O 0.00573 0.24437 0.19271 0.0
O5 O 0.99958 0.27598 0.17172 0.0
C6 C 0.99228 0.26176 0.18834 0.0
C7 C 0.04329 0.31391 0.10689 0.0
C8 C 0.03441 0.22607 0.12052 0.0
C9 C 0.08088 0.27229 0.17185 0.0
O10 O 0.08075 0.27913 0.15031 0.0
O11 O 0.06186 0.26302 0.18151 0.0
O12 O 0.06049 0.30098 0.09918 0.0
O13 O 0.03086 0.30625 0.12506 0.0
O14 O 0.1115 0.77534 0.4234 0.0
Cd15 Cd 0.08251 0.76398 0.44339 0.0
Cd16 Cd 0.05499 0.77658 0.4033 0.0
O17 O 0.09037 0.7804 0.39132 0.0
O18 O 0.09229 0.73931 0.46516 0.0
O19 O 0.0675 0.73286 0.43517 0.0
C20 C 0.07878 0.7249 0.45306 0.0
C21 C 0.02725 0.77221 0.37306 0.0
C22 C 0.11049 0.78011 0.40154 0.0
C23 C 0.04466 0.79743 0.45331 0.0
O24 O 0.04012 0.79517 0.43142 0.0
O25 O 0.06209 0.78702 0.46213 0.0
O26 O 0.03908 0.79172 0.37666 0.0
O27 O 0.03163 0.75455 0.38631 0.0
O28 O 0.52284 0.73569 0.64064 0.0
Cd29 Cd 0.5245 0.76361 0.66471 0.0
Cd30 Cd 0.54928 0.78533 0.62443 0.0
O31 O 0.53983 0.75201 0.60873 0.0
O32 O 0.50207 0.75229 0.6911 0.0
O33 O 0.49552 0.78419 0.67073 0.0
C34 C 0.48844 0.76961 0.6871 0.0
C35 C 0.5395 0.82171 0.60616 0.0
C36 C 0.52973 0.73412 0.619 0.0
C37 C 0.57723 0.77949 0.67065 0.0
O38 O 0.57761 0.78622 0.64905 0.0
O39 O 0.55783 0.77078 0.68006 0.0
O40 O 0.55675 0.80904 0.59805 0.0
O41 O 0.52741 0.81368 0.62439 0.0
O42 O 0.61762 0.28277 0.93092 0.0
Cd43 Cd 0.5907 0.26796 0.9513 0.0
Cd44 Cd 0.55962 0.28169 0.91387 0.0
O45 O 0.59422 0.28962 0.90085 0.0
O46 O 0.6031 0.24216 0.97006 0.0
O47 O 0.5767 0.237 0.94121 0.0
C48 C 0.58941 0.22818 0.95765 0.0
C49 C 0.53111 0.28057 0.88399 0.0
C50 C 0.61496 0.28974 0.9099 0.0
C51 C 0.55098 0.29692 0.96648 0.0
O52 O 0.54479 0.29533 0.94496 0.0
O53 O 0.57035 0.28825 0.97313 0.0
O54 O 0.54162 0.29989 0.89083 0.0
O55 O 0.53701 0.26131 0.89394 0.0
O56 O 0.14688 0.02444 0.2645 0.0
Cd57 Cd 0.16255 0.02239 0.29727 0.0
Cd58 Cd 0.11785 0.03029 0.31321 0.0
O59 O 0.10957 0.02559 0.27844 0.0
O60 O 0.19534 0.01079 0.29062 0.0
O61 O 0.16682 0.99019 0.31021 0.0
C62 C 0.18849 0.99176 0.30144 0.0
C63 C 0.09905 0.00568 0.34074 0.0
C64 C 0.12436 0.02435 0.26105 0.0
C65 C 0.15408 0.06648 0.32622 0.0
O66 O 0.13157 0.06248 0.32465 0.0
O67 O 0.1689 0.05197 0.31768 0.0
O68 O 0.0879 0.02279 0.33155 0.0
O69 O 0.12114 0.00246 0.33412 0.0
O70 O 0.23951 0.91466 0.61112 0.0
Cd71 Cd 0.23435 0.93232 0.58012 0.0
Cd72 Cd 0.24772 0.89244 0.5622 0.0
O73 O 0.23268 0.88047 0.59352 0.0
O74 O 0.21087 0.95683 0.58709 0.0
O75 O 0.20309 0.92509 0.56474 0.0
C76 C 0.19575 0.94413 0.57495 0.0
C77 C 0.24672 0.87036 0.52738 0.0
C78 C 0.23456 0.89272 0.61239 0.0
C79 C 0.28161 0.9334 0.55823 0.0
O80 O 0.27981 0.91156 0.56265 0.0
O81 O 0.26337 0.94601 0.56103 0.0
O82 O 0.25824 0.86359 0.54549 0.0
O83 O 0.23363 0.88863 0.52985 0.0
O84 O 0.382 0.03702 0.71077 0.0
Cd85 Cd 0.36567 0.04198 0.74321 0.0
Cd86 Cd 0.41005 0.04001 0.76081 0.0
O87 O 0.41682 0.04797 0.72592 0.0
O88 O 0.33925 0.0638 0.7401 0.0
O89 O 0.37379 0.07274 0.75799 0.0
C90 C 0.35316 0.07915 0.75063 0.0
C91 C 0.43936 0.05291 0.78709 0.0
C92 C 0.4039 0.04371 0.70804 0.0
C93 C 0.37256 0.00208 0.77361 0.0
O94 O 0.3947 0.00817 0.77151 0.0
O95 O 0.35661 0.01444 0.76469 0.0
O96 O 0.44329 0.03661 0.77163 0.0
O97 O 0.41883 0.06287 0.78703 0.0
O98 O 0.29391 0.1592 0.0676 0.0
Cd99 Cd 0.2938 0.13506 0.03956 0.0
Cd100 Cd 0.27135 0.17476 0.01741 0.0
O101 O 0.27872 0.19035 0.05102 0.0
O102 O 0.31563 0.10987 0.05029 0.0
O103 O 0.32384 0.13115 0.01852 0.0
C104 C 0.33014 0.11493 0.03277 0.0
C105 C 0.27974 0.19583 0.98138 0.0
C106 C 0.28738 0.18046 0.06907 0.0
C107 C 0.24246 0.12725 0.02263 0.0
O108 O 0.24342 0.1487 0.01596 0.0
O109 O 0.26071 0.11834 0.03195 0.0
O110 O 0.26145 0.20023 0.99502 0.0
O111 O 0.2939 0.17989 0.98841 0.0
O112 O 0.75051 0.42401 0.11811 0.0
Cd113 Cd 0.74492 0.44574 0.09031 0.0
Cd114 Cd 0.75246 0.40493 0.06222 0.0
O115 O 0.74672 0.3919 0.09592 0.0
O116 O 0.71945 0.46813 0.09832 0.0
O117 O 0.71508 0.43818 0.0728 0.0
C118 C 0.70598 0.45588 0.08404 0.0
C119 C 0.75042 0.37747 0.0313 0.0
C120 C 0.74834 0.40176 0.11617 0.0
C121 C 0.78586 0.44974 0.05759 0.0
O122 O 0.7802 0.42836 0.0531 0.0
O123 O 0.77362 0.46143 0.07254 0.0
O124 O 0.7664 0.37662 0.04731 0.0
O125 O 0.73407 0.39295 0.03379 0.0
O126 O 0.8926 0.53827 0.20258 0.0
Cd127 Cd 0.87479 0.54312 0.23419 0.0
Cd128 Cd 0.91773 0.5403 0.25331 0.0
O129 O 0.92672 0.54919 0.2191 0.0
O130 O 0.84782 0.56374 0.22911 0.0
O131 O 0.88071 0.57428 0.24908 0.0
C132 C 0.86029 0.57968 0.24043 0.0
C133 C 0.9443 0.55315 0.28219 0.0
C134 C 0.91454 0.54503 0.2007 0.0
C135 C 0.87992 0.50239 0.26379 0.0
O136 O 0.90223 0.50792 0.26216 0.0
O137 O 0.86453 0.51551 0.25505 0.0
O138 O 0.95 0.53742 0.26668 0.0
O139 O 0.92364 0.56266 0.28062 0.0
O140 O 0.78205 0.65546 0.56931 0.0
Cd141 Cd 0.78211 0.63439 0.53864 0.0
Cd142 Cd 0.76066 0.6747 0.52067 0.0
O143 O 0.77191 0.68906 0.55352 0.0
O144 O 0.80364 0.6073 0.54488 0.0
O145 O 0.81293 0.63463 0.51839 0.0
C146 C 0.81875 0.61582 0.52924 0.0
C147 C 0.77038 0.69238 0.48318 0.0
C148 C 0.77842 0.67744 0.57144 0.0
C149 C 0.7297 0.6295 0.52448 0.0
O150 O 0.73013 0.65186 0.52233 0.0
O151 O 0.74902 0.61891 0.52858 0.0
O152 O 0.75481 0.70126 0.49775 0.0
O153 O 0.78108 0.67388 0.49006 0.0
O154 O 0.64667 0.50857 0.75454 0.0
Cd155 Cd 0.66525 0.51805 0.78428 0.0
Cd156 Cd 0.62252 0.51291 0.80658 0.0
O157 O 0.61161 0.5039 0.77321 0.0
O158 O 0.69961 0.51391 0.77568 0.0
O159 O 0.68009 0.49389 0.80418 0.0
C160 C 0.69972 0.49817 0.79198 0.0
C161 C 0.61027 0.48752 0.83664 0.0
C162 C 0.62429 0.5034 0.75424 0.0
C163 C 0.64581 0.56055 0.80876 0.0
O164 O 0.62737 0.54819 0.81514 0.0
O165 O 0.66276 0.55178 0.79651 0.0
O166 O 0.59534 0.50092 0.82667 0.0
O167 O 0.63256 0.48854 0.82955 0.0
O168 O 0.07076 0.76767 0.90285 0.0
Cd169 Cd 0.04108 0.76659 0.92584 0.0
Cd170 Cd 0.02125 0.78754 0.88406 0.0
O171 O 0.05465 0.77803 0.86915 0.0
O172 O 0.05001 0.74339 0.95119 0.0
O173 O 0.02032 0.73594 0.92685 0.0
C174 C 0.03369 0.72866 0.94354 0.0
C175 C 0.98471 0.78171 0.8628 0.0
C176 C 0.07283 0.77188 0.88075 0.0
C177 C 0.02798 0.81825 0.92939 0.0
O178 O 0.023 0.8164 0.90744 0.0
O179 O 0.0336 0.8 0.94094 0.0
O180 O 1.00058 0.79793 0.85718 0.0
O181 O 0.9897 0.76823 0.8802 0.0
O182 O 0.01907 0.24927 0.6241 0.0
Cd183 Cd 0.0223 0.27791 0.647 0.0
Cd184 Cd 0.04742 0.29633 0.61017 0.0
O185 O 0.04155 0.26419 0.59481 0.0
O186 O 1.00124 0.27013 0.67503 0.0
O187 O 0.99564 0.3005 0.65179 0.0
C188 C 0.98942 0.28858 0.67043 0.0
C189 C 0.02944 0.32805 0.59408 0.0
C190 C 0.02891 0.24729 0.60361 0.0
C191 C 0.07424 0.29463 0.65394 0.0
O192 O 0.07599 0.30034 0.63227 0.0
O193 O 0.05472 0.28573 0.66258 0.0
O194 O 0.04895 0.31995 0.58468 0.0
O195 O 0.02046 0.3183 0.61305 0.0
O196 O 0.53018 0.23264 0.41151 0.0
Cd197 Cd 0.53234 0.2596 0.3868 0.0
Cd198 Cd 0.50553 0.28312 0.4235 0.0
O199 O 0.50992 0.25013 0.4406 0.0
O200 O 0.5577 0.24939 0.36302 0.0
O201 O 0.56265 0.28101 0.38553 0.0
C202 C 0.57141 0.2669 0.36968 0.0
C203 C 0.51498 0.3212 0.44041 0.0
C204 C 0.52025 0.23196 0.43209 0.0
C205 C 0.48152 0.27507 0.37561 0.0
O206 O 0.47998 0.28305 0.39681 0.0
O207 O 0.5008 0.26558 0.36807 0.0
O208 O 0.49652 0.30853 0.44758 0.0
O209 O 0.52888 0.31188 0.42445 0.0
O210 O 0.50623 0.74112 0.10865 0.0
Cd211 Cd 0.51118 0.76389 0.13701 0.0
Cd212 Cd 0.53831 0.78869 0.10676 0.0
O213 O 0.53375 0.75922 0.08597 0.0
O214 O 0.48659 0.75629 0.16218 0.0
O215 O 0.48946 0.79063 0.14385 0.0
C216 C 0.4794 0.7775 0.16007 0.0
C217 C 0.5267 0.82361 0.0908 0.0
C218 C 0.51881 0.74215 0.08953 0.0
C219 C 0.56221 0.77564 0.15048 0.0
O220 O 0.56399 0.78864 0.1323 0.0
O221 O 0.54308 0.76335 0.15463 0.0
O222 O 0.54663 0.81428 0.08418 0.0
O223 O 0.51354 0.81331 0.10705 0.0
O224 O 0.87293 0.07535 0.71359 0.0
Cd225 Cd 0.858 0.07422 0.7474 0.0
Cd226 Cd 0.90135 0.06462 0.75798 0.0
O227 O 0.91008 0.07979 0.72592 0.0
O228 O 0.83112 0.09623 0.75012 0.0
O229 O 0.86541 0.10087 0.76939 0.0
C230 C 0.84454 0.10856 0.76438 0.0
C231 C 0.92484 0.07169 0.79094 0.0
C232 C 0.89521 0.07941 0.70916 0.0
C233 C 0.86389 0.02564 0.75996 0.0
O234 O 0.88608 0.03115 0.75689 0.0
O235 O 0.84831 0.04145 0.76002 0.0
O236 O 0.93288 0.06012 0.77284 0.0
O237 O 0.90371 0.08028 0.78993 0.0
O238 O 0.81309 0.17897 0.57327 0.0
Cd239 Cd 0.8049 0.15142 0.55062 0.0
Cd240 Cd 0.78563 0.18331 0.52372 0.0
O241 O 0.79584 0.20512 0.55126 0.0
O242 O 0.82574 0.12429 0.55549 0.0
O243 O 0.82549 0.14471 0.52218 0.0
C244 C 0.83323 0.12721 0.53383 0.0
C245 C 0.79659 0.19369 0.48535 0.0
C246 C 0.80673 0.19993 0.56995 0.0
C247 C 0.75241 0.14504 0.5411 0.0
O248 O 0.75454 0.16322 0.52823 0.0
O249 O 0.77038 0.1377 0.55196 0.0
O250 O 0.78034 0.20489 0.49708 0.0
O251 O 0.80685 0.17661 0.49547 0.0
O252 O 0.66373 0.99128 0.24579 0.0
Cd253 Cd 0.67658 0.99696 0.27944 0.0
Cd254 Cd 0.63332 0.00804 0.28798 0.0
O255 O 0.62618 0.9878 0.2587 0.0
O256 O 0.70767 0.98128 0.28169 0.0
O257 O 0.67464 0.97057 0.30231 0.0
C258 C 0.69704 0.96755 0.29705 0.0
C259 C 0.6164 0.99897 0.32442 0.0
C260 C 0.64175 0.98591 0.24206 0.0
C261 C 0.66835 0.04711 0.28721 0.0
O262 O 0.6465 0.04194 0.28281 0.0
O263 O 0.68314 0.03095 0.29007 0.0
O264 O 0.60386 0.0085 0.30833 0.0
O265 O 0.63855 0.99436 0.31956 0.0
O266 O 0.7801 0.89638 0.0712 0.0
Cd267 Cd 0.77821 0.9182 0.04159 0.0
Cd268 Cd 0.79936 0.87951 0.01997 0.0
O269 O 0.79048 0.86343 0.05311 0.0
O270 O 0.75453 0.9431 0.05072 0.0
O271 O 0.74817 0.9179 0.0214 0.0
C272 C 0.74065 0.93531 0.03416 0.0
C273 C 0.78931 0.86294 0.98202 0.0
C274 C 0.78468 0.87456 0.07214 0.0
C275 C 0.82977 0.92534 0.0242 0.0
O276 O 0.8293 0.90316 0.02015 0.0
O277 O 0.81061 0.93542 0.03098 0.0
O278 O 0.80579 0.85438 0.99483 0.0
O279 O 0.77772 0.88036 0.99104 0.0
O280 O 0.32121 0.66641 0.06455 0.0
Cd281 Cd 0.31402 0.64109 0.03883 0.0
Cd282 Cd 0.29373 0.67518 0.01632 0.0
O283 O 0.30638 0.69509 0.04402 0.0
O284 O 0.33429 0.61349 0.04306 0.0
O285 O 0.33623 0.63591 0.01106 0.0
C286 C 0.34291 0.61748 0.02197 0.0
C287 C 0.30363 0.68614 0.97798 0.0
C288 C 0.3163 0.68799 0.06254 0.0
C289 C 0.26097 0.636 0.03053 0.0
O290 O 0.26195 0.65655 0.02192 0.0
O291 O 0.27982 0.62657 0.03762 0.0
O292 O 0.28867 0.69795 0.99079 0.0
O293 O 0.31315 0.66802 0.98701 0.0
O294 O 0.15518 0.47757 0.73215 0.0
Cd295 Cd 0.17943 0.4911 0.75578 0.0
Cd296 Cd 0.14243 0.50586 0.78077 0.0
O297 O 0.12416 0.48938 0.75363 0.0
O298 O 0.20972 0.47396 0.7541 0.0
O299 O 0.18519 0.47472 0.78581 0.0
C300 C 0.20487 0.46785 0.77574 0.0
C301 C 0.12807 0.49851 0.81902 0.0
C302 C 0.13261 0.47938 0.73514 0.0
C303 C 0.17682 0.54274 0.76146 0.0
O304 O 0.15784 0.53875 0.77399 0.0
O305 O 0.18838 0.52585 0.75253 0.0
O306 O 0.11645 0.51121 0.80471 0.0
O307 O 0.14817 0.49005 0.81171 0.0
O308 O 0.26932 0.39522 0.57017 0.0
Cd309 Cd 0.26744 0.41985 0.54298 0.0
Cd310 Cd 0.2935 0.38371 0.51766 0.0
O311 O 0.28958 0.36742 0.55145 0.0
O312 O 0.24254 0.44302 0.55415 0.0
O313 O 0.2377 0.4208 0.52231 0.0
C314 C 0.22925 0.43655 0.53664 0.0
C315 C 0.2848 0.36449 0.48063 0.0
C316 C 0.27948 0.37543 0.57039 0.0
C317 C 0.31848 0.43226 0.52374 0.0
O318 O 0.31926 0.4113 0.51549 0.0
O319 O 0.29964 0.43914 0.53487 0.0
O320 O 0.30313 0.35923 0.49292 0.0
O321 O 0.27063 0.3799 0.48976 0.0
O322 O 0.39058 0.57599 0.20397 0.0
Cd323 Cd 0.3779 0.57189 0.23851 0.0
Cd324 Cd 0.42094 0.55669 0.24383 0.0
O325 O 0.42886 0.5732 0.21246 0.0
O326 O 0.3503 0.59282 0.24311 0.0
O327 O 0.38471 0.59778 0.26192 0.0
C328 C 0.36338 0.60483 0.25786 0.0
C329 C 0.44335 0.56361 0.2772 0.0
C330 C 0.41272 0.57762 0.19776 0.0
C331 C 0.38047 0.52128 0.24725 0.0
O332 O 0.40279 0.5246 0.24265 0.0
O333 O 0.36679 0.53865 0.24911 0.0
O334 O 0.45133 0.55054 0.26009 0.0
O335 O 0.42303 0.57355 0.27478 0.0
Co336 Co 0.03359 0.03283 0.00209 0.0
C337 C 0.03043 0.0645 0.04087 0.0
Co338 Co 0.04028 0.01661 0.03627 0.0
C339 C 0.0148 0.04349 0.95572 0.0
C340 C 0.04274 0.06768 0.96707 0.0
N341 N 0.02996 0.04806 0.97367 0.0
N342 N 0.01797 0.05935 0.93816 0.0
C343 C 0.03555 0.07453 0.94521 0.0
H344 H 0.00179 0.02885 0.95549 0.0
H345 H 0.05621 0.07674 0.97767 0.0
C346 C 0.04291 0.98471 0.99774 0.0
N347 N 0.04439 0.00199 0.06468 0.0
C348 C 0.05731 0.01006 0.08314 0.0
C349 C 0.03466 0.98104 0.07172 0.0
N350 N 0.05591 0.99507 0.10151 0.0
C351 C 0.04163 0.97679 0.09446 0.0
C352 C 0.9918 0.01265 0.02197 0.0
O353 O 0.03815 0.00285 0.98574 0.0
O354 O 0.04588 0.98728 0.01994 0.0
O355 O 0.00662 0.00791 0.03795 0.0
O356 O 0.99937 0.02493 0.00435 0.0
O357 O 0.03446 0.04613 0.0527 0.0
H358 H 0.02307 0.96971 0.06106 0.0
H359 H 0.06703 0.02693 0.08332 0.0
O360 O 0.02888 0.06245 0.01846 0.0
O361 O 0.06781 0.04056 1.00008 0.0
O362 O 0.07413 0.02527 0.03459 0.0
C363 C 0.08224 0.03659 0.01663 0.0
H364 H 0.04223 0.08985 0.93551 0.0
H365 H 0.03662 0.96147 0.10497 0.0
Co366 Co 0.31404 0.81435 0.30416 0.0
C367 C 0.3156 0.76824 0.2902 0.0
Co368 Co 0.29529 0.80771 0.27065 0.0
C369 C 0.31328 0.8316 0.35121 0.0
C370 C 0.3452 0.81234 0.34472 0.0
N371 N 0.32594 0.82071 0.33391 0.0
N372 N 0.32332 0.82987 0.37257 0.0
C373 C 0.34357 0.81786 0.36861 0.0
H374 H 0.29581 0.83885 0.34849 0.0
H375 H 0.35861 0.80158 0.33615 0.0
C376 C 0.29205 0.85329 0.28489 0.0
N377 N 0.28314 0.80101 0.24118 0.0
C378 C 0.29414 0.78743 0.22482 0.0
C379 C 0.26321 0.8083 0.23066 0.0
N380 N 0.28204 0.78584 0.20449 0.0
C381 C 0.26254 0.79903 0.20793 0.0
C382 C 0.26457 0.80104 0.3077 0.0
O383 O 0.3047 0.84646 0.30186 0.0
O384 O 0.28662 0.83895 0.26833 0.0
O385 O 0.2651 0.80034 0.28521 0.0
O386 O 0.28375 0.80634 0.3186 0.0
O387 O 0.30357 0.77606 0.27336 0.0
H388 H 0.2502 0.81973 0.23889 0.0
H389 H 0.31116 0.77928 0.22763 0.0
O390 O 0.32293 0.78231 0.30634 0.0
O391 O 0.34427 0.82191 0.28949 0.0
O392 O 0.32561 0.81527 0.25607 0.0
C393 C 0.34478 0.82076 0.26696 0.0
H394 H 0.35568 0.81245 0.38212 0.0
H395 H 0.24874 0.80163 0.19507 0.0
Co396 Co 0.50053 0.02083 0.50968 0.0
C397 C 0.51747 0.0678 0.50224 0.0
Co398 Co 0.53384 0.02981 0.52816 0.0
C399 C 0.45429 0.99989 0.50295 0.0
C400 C 0.46454 0.02164 0.47341 0.0
N401 N 0.47257 0.01347 0.49407 0.0
N402 N 0.43507 0.99935 0.48891 0.0
C403 C 0.44124 0.01311 0.47029 0.0
H404 H 0.45457 0.99162 0.52015 0.0
H405 H 0.47462 0.03365 0.46184 0.0
C406 C 0.51749 0.98309 0.53606 0.0
N407 N 0.56131 0.03704 0.54441 0.0
C408 C 0.58083 0.04969 0.53679 0.0
C409 C 0.56584 0.03144 0.56702 0.0
N410 N 0.59739 0.05231 0.55378 0.0
C411 C 0.58809 0.04078 0.57283 0.0
C412 C 0.4925 0.03868 0.5543 0.0
O413 O 0.50132 0.98847 0.52159 0.0
O414 O 0.5332 0.99883 0.54162 0.0
O415 O 0.51531 0.04076 0.55433 0.0
O416 O 0.48225 0.02982 0.53634 0.0
O417 O 0.53461 0.06101 0.51479 0.0
H418 H 0.55355 0.02155 0.57864 0.0
H419 H 0.5828 0.05683 0.51911 0.0
O420 O 0.50014 0.05314 0.498 0.0
O421 O 0.51848 0.01177 0.48316 0.0
O422 O 0.55234 0.01871 0.50166 0.0
C423 C 0.54127 0.01152 0.48332 0.0
H424 H 0.42962 0.01705 0.45582 0.0
H425 H 0.59644 0.03974 0.58991 0.0
Co426 Co 0.31574 0.29198 0.77707 0.0
C427 C 0.29489 0.30286 0.73333 0.0
Co428 Co 0.2775 0.28111 0.77525 0.0
C429 C 0.36562 0.29153 0.78993 0.0
C430 C 0.35806 0.32105 0.76841 0.0
N431 N 0.34769 0.30176 0.77857 0.0
N432 N 0.38684 0.30372 0.78734 0.0
C433 C 0.38207 0.32228 0.77369 0.0
H434 H 0.36294 0.27571 0.8003 0.0
H435 H 0.34871 0.33355 0.75796 0.0
C436 C 0.2973 0.27013 0.81876 0.0
N437 N 0.24578 0.27124 0.77349 0.0
C438 C 0.22803 0.28281 0.76337 0.0
C439 C 0.23619 0.24963 0.77838 0.0
N440 N 0.20795 0.26913 0.76124 0.0
C441 C 0.21292 0.24818 0.77052 0.0
C442 C 0.30892 0.24706 0.76018 0.0
O443 O 0.3163 0.27994 0.80958 0.0
O444 O 0.27841 0.26876 0.8065 0.0
O445 O 0.28687 0.25187 0.76257 0.0
O446 O 0.32497 0.26253 0.76545 0.0
O447 O 0.27631 0.29372 0.74368 0.0
H448 H 0.24601 0.23537 0.78564 0.0
H449 H 0.23044 0.3002 0.7558 0.0
O450 O 0.31461 0.30366 0.7445 0.0
O451 O 0.30651 0.32163 0.78898 0.0
O452 O 0.26841 0.31015 0.78816 0.0
C453 C 0.28449 0.32577 0.79303 0.0
H454 H 0.39492 0.33589 0.76788 0.0
H455 H 0.20111 0.23261 0.77027 0.0
Co456 Co 0.98496 0.99069 0.52734 0.0
C457 C 0.97459 0.02398 0.56167 0.0
Co458 Co 0.00519 0.02432 0.52226 0.0
C459 C 0.97891 0.94127 0.53206 0.0
C460 C 0.94469 0.95733 0.53394 0.0
N461 N 0.96859 0.9623 0.53189 0.0
N462 N 0.96257 0.92332 0.53391 0.0
C463 C 0.9409 0.9332 0.53481 0.0
H464 H 0.99804 0.93903 0.52923 0.0
H465 H 0.93091 0.97031 0.53382 0.0
C466 C 0.01573 0.99119 0.4881 0.0
N467 N 0.02149 0.05276 0.51799 0.0
C468 C 0.01267 0.07392 0.52349 0.0
C469 C 0.04488 0.05715 0.51213 0.0
N470 N 0.02968 0.09135 0.52211 0.0
C471 C 0.04999 0.08096 0.51467 0.0
C472 C 0.02952 0.99343 0.54888 0.0
O473 O 0.99977 0.97864 0.49901 0.0
O474 O 0.02067 0.012 0.49526 0.0
O475 O 0.03021 0.01415 0.54077 0.0
O476 O 0.0112 0.97999 0.54521 0.0
O477 O 0.98973 0.03641 0.54969 0.0
H478 H 0.05768 0.04377 0.50772 0.0
H479 H 0.99427 0.07631 0.52952 0.0
O480 O 0.97006 0.00279 0.55536 0.0
O481 O 0.95924 0.00171 0.50963 0.0
O482 O 0.97993 0.03474 0.50366 0.0
C483 C 0.9608 0.02224 0.50089 0.0
H484 H 0.92369 0.92365 0.53517 0.0
H485 H 0.0676 0.08961 0.51285 0.0
Co486 Co 0.28698 0.79117 0.79775 0.0
C487 C 0.23974 0.77298 0.80565 0.0
Co488 Co 0.27803 0.75972 0.77654 0.0
C489 C 0.30871 0.83499 0.81241 0.0
C490 C 0.28669 0.81963 0.8402 0.0
N491 N 0.29439 0.8161 0.81757 0.0
N492 N 0.31021 0.85018 0.83081 0.0
C493 C 0.29621 0.84084 0.84832 0.0
H494 H 0.31729 0.83795 0.79521 0.0
H495 H 0.27476 0.80767 0.85008 0.0
C496 C 0.32509 0.77765 0.76825 0.0
N497 N 0.27065 0.73486 0.75685 0.0
C498 C 0.25677 0.71573 0.76218 0.0
C499 C 0.27668 0.73239 0.73366 0.0
N500 N 0.25371 0.70141 0.74323 0.0
C501 C 0.26634 0.7117 0.72523 0.0
C502 C 0.26755 0.80258 0.75599 0.0
O503 O 0.31876 0.79358 0.78293 0.0
O504 O 0.31002 0.76109 0.76334 0.0
O505 O 0.26783 0.7804 0.75311 0.0
O506 O 0.27533 0.81175 0.77505 0.0
O507 O 0.24587 0.7583 0.78968 0.0
H508 H 0.28755 0.74502 0.72348 0.0
H509 H 0.24913 0.71236 0.7797 0.0
O510 O 0.25521 0.78857 0.81228 0.0
O511 O 0.29868 0.7709 0.82026 0.0
O512 O 0.28826 0.73894 0.80038 0.0
C513 C 0.29769 0.74864 0.81848 0.0
H514 H 0.29305 0.84883 0.86558 0.0
H515 H 0.2676 0.70501 0.70722 0.0
Co516 Co 0.5332 0.01804 0.99999 0.0
C517 C 0.57706 0.00612 0.01844 0.0
Co518 Co 0.53632 0.02872 0.03726 0.0
C519 C 0.5216 0.02532 0.95214 0.0
C520 C 0.53666 0.99146 0.95617 0.0
N521 N 0.53009 0.0108 0.96842 0.0
N522 N 0.52263 0.01598 0.93013 0.0
C523 C 0.5321 0.99463 0.93251 0.0
H524 H 0.51533 0.04273 0.95635 0.0
H525 H 0.54445 0.97623 0.9639 0.0
C526 C 0.4926 0.04072 0.01954 0.0
N527 N 0.53991 0.0362 0.06868 0.0
C528 C 0.54877 0.02168 0.08472 0.0
C529 C 0.53844 0.05724 0.07985 0.0
N530 N 0.55345 0.03283 0.10529 0.0
C531 C 0.54707 0.05526 0.10243 0.0
C532 C 0.55302 0.06305 0.00679 0.0
O533 O 0.50134 0.03135 0.00073 0.0
O534 O 0.50513 0.04133 0.03809 0.0
O535 O 0.54995 0.0585 0.02864 0.0
O536 O 0.547 0.04761 0.99149 0.0
O537 O 0.56781 0.01603 0.0366 0.0
H538 H 0.53292 0.07324 0.07165 0.0
H539 H 0.55363 0.00374 0.08074 0.0
O540 O 0.56494 0.00485 0.99957 0.0
O541 O 0.5195 0.98837 0.0084 0.0
O542 O 0.52264 0.99888 0.04572 0.0
C543 C 0.51659 0.98356 0.03022 0.0
H544 H 0.53527 0.98212 0.91826 0.0
H545 H 0.54955 0.06936 0.11531 0.0
Co546 Co 0.27885 0.26036 0.28031 0.0
C547 C 0.32681 0.27711 0.28503 0.0
Co548 Co 0.28587 0.29537 0.26528 0.0
C549 C 0.25386 0.22383 0.3068 0.0
C550 C 0.2887 0.21355 0.29433 0.0
N551 N 0.27342 0.23146 0.29412 0.0
N552 N 0.25639 0.20188 0.31503 0.0
C553 C 0.27829 0.19535 0.30722 0.0
H554 H 0.23809 0.23418 0.30996 0.0
H555 H 0.3062 0.21364 0.28549 0.0
C556 C 0.23799 0.27887 0.26024 0.0
N557 N 0.29135 0.32412 0.25112 0.0
C558 C 0.30325 0.34346 0.25944 0.0
C559 C 0.28514 0.32963 0.22891 0.0
N560 N 0.30496 0.36061 0.24311 0.0
C561 C 0.29367 0.35203 0.22387 0.0
C562 C 0.29119 0.25773 0.2323 0.0
O563 O 0.24517 0.2613 0.27168 0.0
O564 O 0.25285 0.29599 0.25632 0.0
O565 O 0.2933 0.27996 0.23513 0.0
O566 O 0.28557 0.24524 0.25032 0.0
O567 O 0.31917 0.29491 0.27436 0.0
H568 H 0.27539 0.31793 0.21697 0.0
H569 H 0.3112 0.34466 0.27678 0.0
O570 O 0.31232 0.25961 0.28861 0.0
O571 O 0.27227 0.27537 0.31047 0.0
O572 O 0.27838 0.31052 0.29551 0.0
C573 C 0.27366 0.29761 0.31352 0.0
H574 H 0.28586 0.17831 0.30989 0.0
H575 H 0.29184 0.3613 0.20737 0.0
Co576 Co 0.49823 0.49317 0.02012 0.0
C577 C 0.48586 0.53103 0.04824 0.0
Co578 Co 0.51759 0.52619 0.01017 0.0
C579 C 0.49277 0.44483 0.0325 0.0
C580 C 0.45871 0.46125 0.03327 0.0
N581 N 0.4825 0.46556 0.02919 0.0
N582 N 0.47644 0.42763 0.03827 0.0
C583 C 0.45489 0.43776 0.03857 0.0
H584 H 0.51178 0.44208 0.02942 0.0
H585 H 0.44501 0.47419 0.03181 0.0
C586 C 0.53025 0.48843 0.98233 0.0
N587 N 0.53265 0.55438 0.00167 0.0
C588 C 0.52123 0.57485 0.00155 0.0
C589 C 0.55626 0.56047 0.99963 0.0
N590 N 0.5366 0.59373 0.00083 0.0
C591 C 0.55875 0.58472 0.99916 0.0
C592 C 0.54204 0.50108 0.04235 0.0
O593 O 0.51423 0.47729 0.99466 0.0
O594 O 0.53434 0.51029 0.98602 0.0
O595 O 0.54247 0.52024 0.03098 0.0
O596 O 0.52422 0.48663 0.04026 0.0
O597 O 0.50093 0.54201 0.03487 0.0
H598 H 0.57071 0.54826 0.00059 0.0
H599 H 0.50192 0.5758 0.00397 0.0
O600 O 0.48226 0.50904 0.04527 0.0
O601 O 0.47264 0.49995 1.00013 0.0
O602 O 0.49242 0.53219 0.98931 0.0
C603 C 0.4737 0.5188 0.9882 0.0
H604 H 0.43766 0.42868 0.04162 0.0
H605 H 0.57561 0.59482 0.99995 0.0
Co606 Co 0.7915 0.29137 0.29933 0.0
C607 C 0.74396 0.27506 0.30738 0.0
Co608 Co 0.78251 0.25927 0.27913 0.0
C609 C 0.81469 0.33545 0.31035 0.0
C610 C 0.7921 0.32324 0.33925 0.0
N611 N 0.79971 0.31755 0.31706 0.0
N612 N 0.81669 0.35213 0.32735 0.0
C613 C 0.80235 0.34477 0.34553 0.0
H614 H 0.8233 0.33668 0.29295 0.0
H615 H 0.77969 0.31258 0.35003 0.0
C616 C 0.82965 0.27496 0.27041 0.0
N617 N 0.77387 0.2329 0.26199 0.0
C618 C 0.7625 0.21383 0.27139 0.0
C619 C 0.7749 0.22865 0.2384 0.0
N620 N 0.75622 0.19783 0.25477 0.0
C621 C 0.76382 0.20698 0.23386 0.0
C622 C 0.77345 0.30093 0.25607 0.0
O623 O 0.82365 0.29142 0.28469 0.0
O624 O 0.81414 0.25873 0.26565 0.0
O625 O 0.77276 0.27862 0.25397 0.0
O626 O 0.78109 0.31038 0.27504 0.0
O627 O 0.75059 0.25956 0.29248 0.0
H628 H 0.78258 0.24075 0.22536 0.0
H629 H 0.7579 0.21218 0.29008 0.0
O630 O 0.75927 0.29104 0.31352 0.0
O631 O 0.80206 0.27278 0.32361 0.0
O632 O 0.79246 0.24012 0.3047 0.0
C633 C 0.80109 0.25052 0.3228 0.0
H634 H 0.79938 0.35436 0.36198 0.0
H635 H 0.76139 0.19871 0.21666 0.0
Co636 Co 0.02048 0.51653 0.50251 0.0
C637 C 0.0639 0.50496 0.52263 0.0
Co638 Co 0.02295 0.52853 0.53944 0.0
C639 C 0.01086 0.5229 0.45405 0.0
C640 C 0.02592 0.48925 0.45935 0.0
N641 N 0.01858 0.50867 0.47098 0.0
N642 N 0.01321 0.51334 0.43224 0.0
C643 C 0.02267 0.4921 0.43541 0.0
H644 H 0.00439 0.54036 0.45766 0.0
H645 H 0.03354 0.47424 0.4677 0.0
C646 C 0.97988 0.54035 0.51977 0.0
N647 N 0.02499 0.5365 0.57094 0.0
C648 C 0.03076 0.52154 0.58805 0.0
C649 C 0.02442 0.55785 0.58164 0.0
N650 N 0.03415 0.53259 0.6089 0.0
C651 C 0.0305 0.55552 0.60504 0.0
C652 C 0.04066 0.56182 0.50881 0.0
O653 O 0.98842 0.5291 0.50199 0.0
O654 O 0.9923 0.54244 0.53835 0.0
O655 O 0.03792 0.55768 0.53077 0.0
O656 O 0.03408 0.54622 0.49388 0.0
O657 O 0.05409 0.51479 0.54059 0.0
H658 H 0.02129 0.57417 0.57269 0.0
H659 H 0.03451 0.50318 0.58483 0.0
O660 O 0.0524 0.50394 0.50336 0.0
O661 O 0.00704 0.48697 0.51097 0.0
O662 O 0.00783 0.49912 0.54792 0.0
C663 C 0.00279 0.48309 0.53279 0.0
H664 H 0.02689 0.47955 0.42148 0.0
H665 H 0.03343 0.56964 0.61781 0.0
Co666 Co 0.80568 0.7877 0.27938 0.0
C667 C 0.7876 0.79834 0.23464 0.0
Co668 Co 0.76918 0.77271 0.27423 0.0
C669 C 0.85496 0.78681 0.29194 0.0
C670 C 0.84643 0.82057 0.2786 0.0
N671 N 0.83672 0.79906 0.28356 0.0
N672 N 0.87579 0.79971 0.29243 0.0
C673 C 0.87048 0.82104 0.28405 0.0
H674 H 0.85297 0.76858 0.29722 0.0
H675 H 0.83665 0.83493 0.27148 0.0
C676 C 0.78701 0.76212 0.31878 0.0
N677 N 0.73835 0.76093 0.27001 0.0
C678 C 0.72088 0.77128 0.2582 0.0
C679 C 0.72883 0.73969 0.27634 0.0
N680 N 0.7009 0.75726 0.25654 0.0
C681 C 0.70575 0.73739 0.26809 0.0
C682 C 0.80388 0.74275 0.25973 0.0
O683 O 0.80518 0.77436 0.31111 0.0
O684 O 0.76911 0.75896 0.30533 0.0
O685 O 0.7813 0.74502 0.26121 0.0
O686 O 0.81782 0.75948 0.26661 0.0
O687 O 0.76948 0.78636 0.24276 0.0
H688 H 0.73836 0.72643 0.28562 0.0
H689 H 0.72303 0.78864 0.25057 0.0
O690 O 0.80585 0.80126 0.24777 0.0
O691 O 0.79357 0.81552 0.29218 0.0
O692 O 0.75696 0.80067 0.2876 0.0
C693 C 0.77096 0.81736 0.2946 0.0
H694 H 0.88293 0.83603 0.28229 0.0
H695 H 0.69393 0.72188 0.2695 0.0
Co696 Co 0.81716 0.32219 0.8108 0.0
C697 C 0.81126 0.27698 0.7943 0.0
Co698 Co 0.79809 0.32051 0.77701 0.0
C699 C 0.81797 0.33569 0.85885 0.0
C700 C 0.84654 0.31232 0.85125 0.0
N701 N 0.82935 0.32453 0.8409 0.0
N702 N 0.82658 0.33038 0.88017 0.0
C703 C 0.84481 0.31582 0.8755 0.0
H704 H 0.80201 0.34568 0.85642 0.0
H705 H 0.85824 0.30027 0.84201 0.0
C706 C 0.80337 0.36551 0.79364 0.0
N707 N 0.78558 0.31763 0.74715 0.0
C708 C 0.79466 0.3034 0.73024 0.0
C709 C 0.76698 0.32795 0.73701 0.0
N710 N 0.78254 0.30412 0.70992 0.0
C711 C 0.76509 0.31968 0.71395 0.0
C712 C 0.76629 0.31693 0.81357 0.0
O713 O 0.81341 0.35542 0.81061 0.0
O714 O 0.79563 0.35331 0.77626 0.0
O715 O 0.76681 0.31766 0.79109 0.0
O716 O 0.78595 0.31812 0.82454 0.0
O717 O 0.8005 0.28735 0.77804 0.0
H718 H 0.75554 0.34054 0.74579 0.0
H719 H 0.81021 0.29284 0.73278 0.0
O720 O 0.82062 0.2891 0.81094 0.0
O721 O 0.84828 0.32597 0.79677 0.0
O722 O 0.82936 0.32355 0.76307 0.0
C723 C 0.84889 0.32576 0.77424 0.0
H724 H 0.85523 0.30723 0.88865 0.0
H725 H 0.75172 0.32441 0.70136 0.0
Co726 Co 0.77239 0.7614 0.78174 0.0
C727 C 0.82153 0.77409 0.78575 0.0
Co728 Co 0.78231 0.79546 0.76571 0.0
C729 C 0.74368 0.71996 0.7943 0.0
C730 C 0.77435 0.72493 0.81624 0.0
N731 N 0.76374 0.73367 0.7971 0.0
N732 N 0.74116 0.70324 0.81109 0.0
C733 C 0.7606 0.7062 0.82479 0.0
H734 H 0.73059 0.72293 0.78088 0.0
H735 H 0.79048 0.73233 0.8242 0.0
C736 C 0.73345 0.78328 0.76084 0.0
N737 N 0.79072 0.82333 0.7509 0.0
C738 C 0.80122 0.84282 0.76048 0.0
C739 C 0.78764 0.8286 0.7279 0.0
N740 N 0.80494 0.8599 0.74432 0.0
C741 C 0.79657 0.85109 0.72376 0.0
C742 C 0.78422 0.75637 0.73389 0.0
O743 O 0.73906 0.7655 0.77288 0.0
O744 O 0.74967 0.79909 0.75658 0.0
O745 O 0.78806 0.77851 0.73619 0.0
O746 O 0.77762 0.74465 0.7522 0.0
O747 O 0.81522 0.79208 0.77452 0.0
H748 H 0.77925 0.81695 0.715 0.0
H749 H 0.80627 0.84442 0.77886 0.0
O750 O 0.80571 0.75784 0.79011 0.0
O751 O 0.7673 0.77777 0.81128 0.0
O752 O 0.77648 0.81205 0.79574 0.0
C753 C 0.77076 0.79985 0.81401 0.0
H754 H 0.76449 0.69587 0.84016 0.0
H755 H 0.79646 0.86044 0.70714 0.0
Co756 Co 0.523 0.53817 0.50268 0.0
C757 C 0.51815 0.57207 0.5406 0.0
Co758 Co 0.52453 0.5243 0.53865 0.0
C759 C 0.51131 0.54666 0.45366 0.0
C760 C 0.53368 0.57391 0.46912 0.0
N761 N 0.52259 0.55288 0.47379 0.0
N762 N 0.51477 0.56319 0.43679 0.0
C763 C 0.52881 0.58034 0.44644 0.0
H764 H 0.50028 0.5307 0.45164 0.0
H765 H 0.54443 0.5841 0.48156 0.0
C766 C 0.52934 0.49013 0.50132 0.0
N767 N 0.52521 0.50977 0.56753 0.0
C768 C 0.54009 0.5144 0.58559 0.0
C769 C 0.51186 0.49056 0.57425 0.0
N770 N 0.53667 0.49874 0.60326 0.0
C771 C 0.51881 0.48379 0.59628 0.0
C772 C 0.478 0.52221 0.52005 0.0
O773 O 0.52771 0.50766 0.48756 0.0
O774 O 0.52913 0.49403 0.52359 0.0
O775 O 0.49041 0.51832 0.53813 0.0
O776 O 0.48849 0.5317 0.50202 0.0
O777 O 0.51987 0.55422 0.5538 0.0
H778 H 0.49848 0.48156 0.56349 0.0
H779 H 0.55339 0.52879 0.58563 0.0
O780 O 0.51831 0.56877 0.5182 0.0
O781 O 0.55721 0.54426 0.50311 0.0
O782 O 0.55896 0.5309 0.53919 0.0
C783 C 0.56949 0.54047 0.52128 0.0
H784 H 0.53511 0.59634 0.43767 0.0
H785 H 0.51194 0.46854 0.60597 0.0
Co786 Co 0.01115 0.51114 0.00425 0.0
C787 C 0.02903 0.55768 0.99655 0.0
Co788 Co 0.04456 0.51964 0.02298 0.0
C789 C 0.96167 0.49823 1.00021 0.0
C790 C 0.97682 0.50749 0.96623 0.0
N791 N 0.98259 0.50448 0.9891 0.0
N792 N 0.94298 0.49783 0.98551 0.0
C793 C 0.95233 0.50327 0.96394 0.0
H794 H 0.95996 0.49478 0.01903 0.0
H795 H 0.98936 0.51344 0.95241 0.0
C796 C 0.02682 0.47352 0.03145 0.0
N797 N 0.07238 0.52639 0.03884 0.0
C798 C 0.09273 0.53695 0.03021 0.0
C799 C 0.07597 0.52386 0.06227 0.0
N800 N 0.10868 0.54142 0.04738 0.0
C801 C 0.0983 0.53338 0.06763 0.0
C802 C 0.00399 0.53037 0.04886 0.0
O803 O 0.01049 0.47934 0.01731 0.0
O804 O 0.04341 0.48865 0.03635 0.0
O805 O 0.02675 0.53093 0.04934 0.0
O806 O 0.99363 0.5221 0.03074 0.0
O807 O 0.04558 0.55094 0.00989 0.0
H808 H 0.06287 0.51632 0.07477 0.0
H809 H 0.09533 0.54234 0.01193 0.0
O810 O 0.01207 0.54291 0.99139 0.0
O811 O 0.02863 0.50041 0.97796 0.0
O812 O 0.06252 0.50832 0.9961 0.0
C813 C 0.05146 0.50057 0.97796 0.0
H814 H 0.94206 0.5053 0.94806 0.0
H815 H 0.10614 0.53474 0.08501 0.0
H816 H 0.04251 0.21575 0.07275 0.0
H817 H 0.02793 0.07529 0.0887 0.0
H818 H 0.02217 0.18261 0.13907 0.0
H819 H 0.0307 0.10825 0.0201 0.0
H820 H 0.02798 0.11444 0.10749 0.0
H821 H 0.04047 0.17682 0.05318 0.0
C822 C 0.03754 0.20039 0.08322 0.0
C823 C 0.03246 0.20272 0.1077 0.0
C824 C 0.02846 0.11314 0.08832 0.0
C825 C 0.03036 0.15779 0.08533 0.0
C826 C 0.02842 0.09071 0.07754 0.0
C827 C 0.02918 0.08827 0.0527 0.0
C828 C 0.02961 0.13353 0.07426 0.0
C829 C 0.02993 0.10911 0.03929 0.0
C830 C 0.03636 0.17811 0.07201 0.0
C831 C 0.02617 0.18194 0.1202 0.0
N832 N 0.03027 0.13073 0.05019 0.0
N833 N 0.02545 0.16053 0.10898 0.0
H834 H 0.11538 0.7868 0.35365 0.0
H835 H 0.25892 0.7986 0.3557 0.0
H836 H 0.15674 0.7824 0.41729 0.0
H837 H 0.21881 0.79441 0.291 0.0
H838 H 0.2214 0.79395 0.37851 0.0
H839 H 0.15285 0.7914 0.33044 0.0
C840 C 0.13233 0.78693 0.36278 0.0
C841 C 0.13293 0.78419 0.38747 0.0
C842 C 0.22076 0.79394 0.35933 0.0
C843 C 0.17581 0.78933 0.36097 0.0
C844 C 0.2422 0.79658 0.34626 0.0
C845 C 0.24197 0.79688 0.32139 0.0
C846 C 0.19888 0.7917 0.34748 0.0
C847 C 0.21978 0.79421 0.31015 0.0
C848 C 0.1537 0.78945 0.34948 0.0
C849 C 0.1554 0.78443 0.3983 0.0
N850 N 0.19906 0.79181 0.32331 0.0
N851 N 0.17595 0.78694 0.38496 0.0
H852 H 0.54634 0.83538 0.55971 0.0
H853 H 0.53101 0.9717 0.58068 0.0
H854 H 0.52109 0.86121 0.62764 0.0
H855 H 0.50661 0.93957 0.51558 0.0
H856 H 0.53446 0.93232 0.59766 0.0
H857 H 0.53888 0.87403 0.54241 0.0
C858 C 0.53921 0.84914 0.571 0.0
C859 C 0.53427 0.8449 0.59521 0.0
C860 C 0.52825 0.93388 0.5797 0.0
C861 C 0.52629 0.88949 0.57555 0.0
C862 C 0.52632 0.95635 0.56995 0.0
C863 C 0.51838 0.95904 0.54666 0.0
C864 C 0.52302 0.9137 0.56589 0.0
C865 C 0.51261 0.9384 0.53364 0.0
C866 C 0.53487 0.87117 0.56107 0.0
C867 C 0.52503 0.86353 0.6089 0.0
N868 N 0.51539 0.91665 0.54327 0.0
N869 N 0.52171 0.88503 0.59901 0.0
H870 H 0.49785 0.24565 0.87174 0.0
H871 H 0.42484 0.33436 0.79414 0.0
H872 H 0.52106 0.31719 0.85583 0.0
H873 H 0.40077 0.26213 0.80571 0.0
H874 H 0.46175 0.32676 0.81418 0.0
H875 H 0.46379 0.24964 0.84522 0.0
C876 C 0.49596 0.26205 0.86245 0.0
C877 C 0.51213 0.2812 0.86617 0.0
C878 C 0.44848 0.31248 0.81226 0.0
C879 C 0.47337 0.28592 0.83607 0.0
C880 C 0.42731 0.31679 0.80062 0.0
C881 C 0.40939 0.29893 0.79823 0.0
C882 C 0.45188 0.29017 0.82184 0.0
C883 C 0.41379 0.2766 0.80745 0.0
C884 C 0.47652 0.26434 0.8474 0.0
C885 C 0.50888 0.30205 0.85372 0.0
N886 N 0.43452 0.27289 0.819 0.0
N887 N 0.48983 0.30388 0.8394 0.0
H888 H 1.0012 0.81494 0.44246 0.0
H889 H 0.99807 0.89978 0.5534 0.0
H890 H 0.05188 0.812 0.49918 0.0
H891 H 0.94014 0.89262 0.50419 0.0
H892 H 0.01472 0.86345 0.53756 0.0
H893 H 0.97598 0.8398 0.46732 0.0
C894 C 0.00702 0.8195 0.46018 0.0
C895 C 0.02892 0.81177 0.46861 0.0
C896 C 0.99803 0.86942 0.53058 0.0
C897 C 1.00001 0.84014 0.49722 0.0
C898 C 0.98851 0.89004 0.53971 0.0
C899 C 0.96796 0.89915 0.52982 0.0
C900 C 0.98712 0.85819 0.5111 0.0
C901 C 0.95606 0.88606 0.5122 0.0
C902 C 0.99247 0.83352 0.47446 0.0
C903 C 0.03529 0.81783 0.49186 0.0
N904 N 0.96614 0.86646 0.50296 0.0
N905 N 0.02105 0.83195 0.50526 0.0
H906 H 0.46355 0.73568 0.71241 0.0
H907 H 0.3577 0.81511 0.76216 0.0
H908 H 0.45976 0.80832 0.69169 0.0
H909 H 0.34857 0.74043 0.74895 0.0
H910 H 0.39794 0.81424 0.74275 0.0
H911 H 0.42437 0.73843 0.73266 0.0
C912 C 0.45457 0.7523 0.71224 0.0
C913 C 0.46501 0.77179 0.70022 0.0
C914 C 0.38705 0.7981 0.74415 0.0
C915 C 0.42001 0.77508 0.72371 0.0
C916 C 0.36417 0.79855 0.7553 0.0
C917 C 0.34969 0.77782 0.75715 0.0
C918 C 0.39571 0.77667 0.73534 0.0
C919 C 0.35899 0.75687 0.74785 0.0
C920 C 0.43212 0.7538 0.72374 0.0
C921 C 0.45236 0.79282 0.70062 0.0
N922 N 0.38139 0.75681 0.73757 0.0
N923 N 0.43058 0.79396 0.71228 0.0
H924 H 0.56761 0.19301 0.9316 0.0
H925 H 0.57236 0.09883 0.034 0.0
H926 H 0.60668 0.20596 0.99601 0.0
H927 H 0.55429 0.08038 0.96191 0.0
H928 H 0.58451 0.13847 0.02082 0.0
H929 H 0.56188 0.15168 0.94262 0.0
C930 C 0.57512 0.18711 0.94796 0.0
C931 C 0.58749 0.2029 0.96299 0.0
C932 C 0.57811 0.12564 0.00788 0.0
C933 C 0.58086 0.15585 0.97578 0.0
C934 C 0.57112 0.10307 0.0154 0.0
C935 C 0.56218 0.08639 0.99905 0.0
C936 C 0.57581 0.13156 0.98394 0.0
C937 C 0.56103 0.09274 0.97513 0.0
C938 C 0.57192 0.16353 0.95421 0.0
C939 C 0.59697 0.19434 0.98393 0.0
N940 N 0.56754 0.11492 0.96833 0.0
N941 N 0.59323 0.1714 0.98986 0.0
H942 H 0.12274 0.29807 0.16132 0.0
H943 H 0.19912 0.2476 0.26741 0.0
H944 H 0.09125 0.25104 0.21398 0.0
H945 H 0.22125 0.30945 0.22767 0.0
H946 H 0.16053 0.24655 0.2468 0.0
H947 H 0.16 0.30033 0.1838 0.0
C948 C 0.12359 0.28823 0.17761 0.0
C949 C 0.10362 0.27438 0.18569 0.0
C950 C 0.17379 0.26044 0.24273 0.0
C951 C 0.14665 0.27671 0.21155 0.0
C952 C 0.19585 0.26106 0.25453 0.0
C953 C 0.21358 0.2787 0.24944 0.0
C954 C 0.16946 0.27733 0.22537 0.0
C955 C 0.20821 0.29557 0.23239 0.0
C956 C 0.14492 0.28957 0.1905 0.0
C957 C 0.10601 0.26205 0.20702 0.0
N958 N 0.18686 0.29435 0.22092 0.0
N959 N 0.12708 0.26337 0.21906 0.0
H960 H 0.14938 0.02718 0.21848 0.0
H961 H 0.03709 0.98083 0.14377 0.0
H962 H 0.07805 0.01418 0.24876 0.0
H963 H 0.09838 0.01754 0.1112 0.0
H964 H 0.05438 0.98826 0.18267 0.0
H965 H 0.13315 0.01982 0.17889 0.0
C966 C 0.13034 0.02288 0.2168 0.0
C967 C 0.11503 0.0213 0.23692 0.0
C968 C 0.06405 0.9947 0.16701 0.0
C969 C 0.09657 0.0126 0.19198 0.0
C970 C 0.05429 0.99028 0.14484 0.0
C971 C 0.06634 0.99864 0.12435 0.0
C972 C 0.08614 0.00733 0.16864 0.0
C973 C 0.08845 0.01106 0.12667 0.0
C974 C 0.12112 0.01872 0.19426 0.0
C975 C 0.09051 0.01568 0.23376 0.0
N976 N 0.09774 0.01499 0.14848 0.0
N977 N 0.08209 0.01138 0.21174 0.0
H978 H 0.27097 0.83039 0.51727 0.0
H979 H 0.29238 0.86484 0.38131 0.0
H980 H 0.23579 0.88744 0.48383 0.0
H981 H 0.32729 0.80766 0.41471 0.0
H982 H 0.26958 0.87183 0.41806 0.0
H983 H 0.28849 0.81925 0.4789 0.0
C984 C 0.2665 0.84028 0.50176 0.0
C985 C 0.25208 0.86004 0.5038 0.0
C986 C 0.28223 0.85775 0.41738 0.0
C987 C 0.27256 0.84769 0.45988 0.0
C988 C 0.29529 0.85378 0.39641 0.0
C989 C 0.31179 0.83563 0.39491 0.0
C990 C 0.28567 0.8435 0.4371 0.0
C991 C 0.31503 0.82203 0.41514 0.0
C992 C 0.27669 0.83401 0.47987 0.0
C993 C 0.24685 0.87212 0.48309 0.0
N994 N 0.30206 0.82623 0.43539 0.0
N995 N 0.25737 0.86595 0.46203 0.0
H996 H 0.38402 0.03292 0.66494 0.0
H997 H 0.50822 0.05964 0.59514 0.0
H998 H 0.44855 0.06202 0.69698 0.0
H999 H 0.44406 0.03167 0.56158 0.0
H1000 H 0.48481 0.06534 0.63168 0.0
H1001 H 0.404 0.03655 0.62593 0.0
C1002 C 0.4023 0.04017 0.66376 0.0
C1003 C 0.41478 0.04682 0.68422 0.0
C1004 C 0.47578 0.05816 0.61626 0.0
C1005 C 0.43761 0.0511 0.6399 0.0
C1006 C 0.48915 0.05491 0.59541 0.0
C1007 C 0.47812 0.04486 0.57547 0.0
C1008 C 0.45129 0.05107 0.6172 0.0
C1009 C 0.45331 0.03927 0.57667 0.0
C1010 C 0.41367 0.0423 0.64153 0.0
C1011 C 0.43835 0.05633 0.68171 0.0
N1012 N 0.44075 0.04219 0.59734 0.0
N1013 N 0.44904 0.05801 0.65997 0.0
H1014 H 0.24834 0.22339 0.9585 0.0
H1015 H 0.335 0.25762 0.84712 0.0
H1016 H 0.31966 0.19628 0.95081 0.0
H1017 H 0.25752 0.26015 0.84672 0.0
H1018 H 0.3319 0.2401 0.88703 0.0
H1019 H 0.2536 0.24209 0.91982 0.0
C1020 C 0.26521 0.22145 0.94878 0.0
C1021 C 0.28354 0.2081 0.95808 0.0
C1022 C 0.31562 0.24455 0.87816 0.0
C1023 C 0.28978 0.22982 0.91337 0.0
C1024 C 0.31738 0.25467 0.85542 0.0
C1025 C 0.2965 0.26039 0.84339 0.0
C1026 C 0.29284 0.24054 0.88919 0.0
C1027 C 0.27415 0.25599 0.85511 0.0
C1028 C 0.26817 0.23212 0.92656 0.0
C1029 C 0.30498 0.2063 0.9444 0.0
N1030 N 0.27296 0.24652 0.87721 0.0
N1031 N 0.30754 0.21707 0.92283 0.0
H1032 H 0.12037 0.97945 0.3743 0.0
H1033 H 0.06383 0.99359 0.48106 0.0
H1034 H 0.051 0.00025 0.35065 0.0
H1035 H 0.99805 0.96868 0.44879 0.0
H1036 H 0.08581 0.98576 0.44408 0.0
H1037 H 0.10097 0.96448 0.4109 0.0
C1038 C 0.10101 0.98039 0.37658 0.0
C1039 C 0.08731 0.99175 0.35987 0.0
C1040 C 0.06675 0.98112 0.44523 0.0
C1041 C 0.06525 0.97506 0.4015 0.0
C1042 C 0.05419 0.98585 0.46624 0.0
C1043 C 0.0292 0.98193 0.46767 0.0
C1044 C 0.05403 0.97306 0.42533 0.0
C1045 C 0.01737 0.97192 0.44818 0.0
C1046 C 0.09001 0.972 0.39749 0.0
C1047 C 0.06227 0.99221 0.36348 0.0
N1048 N 0.02983 0.96848 0.42744 0.0
N1049 N 0.05206 0.98432 0.38411 0.0
H1050 H 0.21925 0.84757 0.62164 0.0
H1051 H 0.26894 0.8508 0.75318 0.0
H1052 H 0.24691 0.91103 0.65574 0.0
H1053 H 0.24497 0.78769 0.71599 0.0
H1054 H 0.25555 0.87431 0.72014 0.0
H1055 H 0.2225 0.82667 0.65879 0.0
C1056 C 0.2258 0.85717 0.63703 0.0
C1057 C 0.23322 0.88095 0.63552 0.0
C1058 C 0.25306 0.85533 0.71936 0.0
C1059 C 0.23725 0.85707 0.67805 0.0
C1060 C 0.26072 0.84193 0.73816 0.0
C1061 C 0.25836 0.81727 0.73714 0.0
C1062 C 0.24298 0.84393 0.69952 0.0
C1063 C 0.24744 0.80664 0.71738 0.0
C1064 C 0.22767 0.84522 0.65825 0.0
C1065 C 0.24122 0.89261 0.6561 0.0
N1066 N 0.24031 0.82003 0.6993 0.0
N1067 N 0.24335 0.88044 0.67649 0.0
H1068 H 0.43217 0.076 0.82944 0.0
H1069 H 0.5397 0.00885 0.8853 0.0
H1070 H 0.48564 0.03894 0.78839 0.0
H1071 H 0.48771 0.04776 0.92637 0.0
H1072 H 0.52425 0.02544 0.84913 0.0
H1073 H 0.457 0.07291 0.86442 0.0
C1074 C 0.44943 0.06779 0.82764 0.0
C1075 C 0.45662 0.05719 0.80619 0.0
C1076 C 0.5164 0.03057 0.86608 0.0
C1077 C 0.48479 0.05317 0.84605 0.0
C1078 C 0.52508 0.02092 0.88669 0.0
C1079 C 0.51476 0.02667 0.90881 0.0
C1080 C 0.49707 0.04588 0.86762 0.0
C1081 C 0.49622 0.04286 0.90968 0.0
C1082 C 0.46353 0.06587 0.84764 0.0
C1083 C 0.47919 0.04689 0.80477 0.0
N1084 N 0.48777 0.05166 0.88935 0.0
N1085 N 0.49227 0.04473 0.82455 0.0
H1086 H 0.27995 0.22754 0.08014 0.0
H1087 H 0.29393 0.21076 0.22051 0.0
H1088 H 0.29893 0.16226 0.11206 0.0
H1089 H 0.29211 0.27931 0.1886 0.0
H1090 H 0.29395 0.19274 0.18087 0.0
H1091 H 0.28234 0.24684 0.11937 0.0
C1092 C 0.28466 0.21724 0.09528 0.0
C1093 C 0.28925 0.19313 0.09255 0.0
C1094 C 0.2937 0.21175 0.18247 0.0
C1095 C 0.29182 0.21519 0.13775 0.0
C1096 C 0.29371 0.22208 0.20518 0.0
C1097 C 0.29314 0.24667 0.20808 0.0
C1098 C 0.29276 0.22596 0.16223 0.0
C1099 C 0.29275 0.26031 0.18736 0.0
C1100 C 0.28607 0.22831 0.11772 0.0
C1101 C 0.29527 0.18083 0.11304 0.0
N1102 N 0.29239 0.24981 0.16542 0.0
N1103 N 0.29623 0.1919 0.13459 0.0
H1104 H 0.20275 0.13657 0.99637 0.0
H1105 H 0.11946 0.02968 0.04718 0.0
H1106 H 0.22949 0.08482 0.04359 0.0
H1107 H 0.10207 0.06882 0.98512 0.0
H1108 H 0.15894 0.05056 0.04775 0.0
H1109 H 0.1649 0.11329 0.99377 0.0
C1110 C 0.20074 0.1203 0.00617 0.0
C1111 C 0.21953 0.11274 0.02021 0.0
C1112 C 0.14655 0.05443 0.0339 0.0
C1113 C 0.17581 0.08594 0.01748 0.0
C1114 C 0.12398 0.04246 0.03353 0.0
C1115 C 0.10728 0.04734 0.01602 0.0
C1116 C 0.15248 0.07177 0.01687 0.0
C1117 C 0.11426 0.06429 0.99892 0.0
C1118 C 0.17908 0.10695 0.00462 0.0
C1119 C 0.21567 0.09139 0.03246 0.0
N1120 N 0.13611 0.07597 0.99991 0.0
N1121 N 0.19428 0.0789 0.03095 0.0
H1122 H 0.67021 0.42853 0.06425 0.0
H1123 H 0.57785 0.53028 0.05914 0.0
H1124 H 0.68413 0.49647 0.09718 0.0
H1125 H 0.55556 0.45689 0.05353 0.0
H1126 H 0.61695 0.51864 0.07308 0.0
H1127 H 0.62831 0.43884 0.05909 0.0
C1128 C 0.66444 0.44561 0.07038 0.0
C1129 C 0.68066 0.46176 0.08097 0.0
C1130 C 0.60336 0.5051 0.06919 0.0
C1131 C 0.6329 0.47361 0.07516 0.0
C1132 C 0.58106 0.51172 0.06127 0.0
C1133 C 0.56358 0.4945 0.05505 0.0
C1134 C 0.60832 0.4811 0.0704 0.0
C1135 C 0.56859 0.47072 0.05815 0.0
C1136 C 0.64051 0.45139 0.06763 0.0
C1137 C 0.67221 0.48355 0.08883 0.0
N1138 N 0.59071 0.46468 0.06523 0.0
N1139 N 0.64893 0.48895 0.08553 0.0
H1140 H 0.83488 0.49152 0.28152 0.0
H1141 H 0.86077 0.35983 0.30777 0.0
H1142 H 0.90679 0.46517 0.2758 0.0
H1143 H 0.80061 0.39473 0.34026 0.0
H1144 H 0.87859 0.39816 0.29629 0.0
H1145 H 0.82177 0.45594 0.30276 0.0
C1146 C 0.84789 0.47822 0.28472 0.0
C1147 C 0.87187 0.48109 0.27667 0.0
C1148 C 0.86174 0.3975 0.30636 0.0
C1149 C 0.85705 0.44056 0.30098 0.0
C1150 C 0.85162 0.37571 0.31283 0.0
C1151 C 0.82922 0.37436 0.32473 0.0
C1152 C 0.84901 0.41791 0.31139 0.0
C1153 C 0.81796 0.39522 0.33111 0.0
C1154 C 0.84047 0.45808 0.29706 0.0
C1155 C 0.88809 0.46353 0.28159 0.0
N1156 N 0.82777 0.41624 0.32393 0.0
N1157 N 0.8803 0.44381 0.29321 0.0
H1158 H 0.86226 0.63761 0.51794 0.0
H1159 H 0.93876 0.52367 0.49808 0.0
H1160 H 0.82913 0.56906 0.53102 0.0
H1161 H 0.96678 0.58217 0.53957 0.0
H1162 H 0.89906 0.54189 0.49869 0.0
H1163 H 0.90175 0.61934 0.51426 0.0
C1164 C 0.86324 0.6187 0.51967 0.0
C1165 C 0.84238 0.60484 0.52484 0.0
C1166 C 0.914 0.55072 0.50751 0.0
C1167 C 0.88733 0.58387 0.52015 0.0
C1168 C 0.93661 0.54042 0.50711 0.0
C1169 C 0.95603 0.55137 0.51891 0.0
C1170 C 0.91106 0.5725 0.51907 0.0
C1171 C 0.95223 0.57305 0.53041 0.0
C1172 C 0.88575 0.60835 0.5177 0.0
C1173 C 0.84476 0.5804 0.52712 0.0
N1174 N 0.93029 0.58302 0.53 0.0
N1175 N 0.86678 0.57066 0.52457 0.0
H1176 H 0.13466 0.11008 0.32452 0.0
H1177 H 0.26401 0.16801 0.34694 0.0
H1178 H 0.19572 0.07362 0.34968 0.0
H1179 H 0.20796 0.20209 0.31008 0.0
H1180 H 0.23455 0.13786 0.36044 0.0
H1181 H 0.15648 0.14775 0.33158 0.0
C1182 C 0.15235 0.11006 0.33221 0.0
C1183 C 0.16374 0.08885 0.33601 0.0
C1184 C 0.22856 0.15216 0.34975 0.0
C1185 C 0.18866 0.13149 0.34396 0.0
C1186 C 0.24539 0.16928 0.342 0.0
C1187 C 0.23849 0.18712 0.32688 0.0
C1188 C 0.20475 0.15269 0.34199 0.0
C1189 C 0.21404 0.18844 0.32152 0.0
C1190 C 0.16482 0.1315 0.33613 0.0
C1191 C 0.18658 0.08966 0.34602 0.0
N1192 N 0.1981 0.1711 0.32863 0.0
N1193 N 0.19845 0.11063 0.34932 0.0
H1194 H 0.32466 0.91209 0.55428 0.0
H1195 H 0.39107 0.01684 0.48188 0.0
H1196 H 0.29025 0.97689 0.53837 0.0
H1197 H 0.42699 0.95759 0.51005 0.0
H1198 H 0.35258 0.00052 0.49796 0.0
H1199 H 0.36136 0.9271 0.53458 0.0
C1200 C 0.32487 0.92957 0.54676 0.0
C1201 C 0.30439 0.9433 0.54804 0.0
C1202 C 0.36888 0.99102 0.50043 0.0
C1203 C 0.34636 0.96052 0.5252 0.0
C1204 C 0.39071 1.00018 0.49106 0.0
C1205 C 0.41207 0.98852 0.49484 0.0
C1206 C 0.3686 0.97004 0.51343 0.0
C1207 C 0.41086 0.96717 0.50705 0.0
C1208 C 0.34583 0.9381 0.53544 0.0
C1209 C 0.30571 0.96579 0.53791 0.0
N1210 N 0.3895 0.95866 0.516 0.0
N1211 N 0.32637 0.97371 0.52682 0.0
H1212 H 0.81738 0.59591 0.22628 0.0
H1213 H 0.85049 0.72934 0.26177 0.0
H1214 H 0.8844 0.61846 0.25816 0.0
H1215 H 0.77937 0.70445 0.24174 0.0
H1216 H 0.86504 0.68971 0.25515 0.0
H1217 H 0.80465 0.63652 0.22751 0.0
C1218 C 0.82938 0.6094 0.23363 0.0
C1219 C 0.85191 0.60385 0.24226 0.0
C1220 C 0.8463 0.693 0.25203 0.0
C1221 C 0.83758 0.65027 0.24348 0.0
C1222 C 0.83802 0.71561 0.25565 0.0
C1223 C 0.81365 0.72005 0.25252 0.0
C1224 C 0.83007 0.67483 0.24519 0.0
C1225 C 0.79827 0.70169 0.24457 0.0
C1226 C 0.82213 0.63257 0.23425 0.0
C1227 C 0.86679 0.62199 0.25148 0.0
N1228 N 0.80672 0.67979 0.24133 0.0
N1229 N 0.85935 0.64447 0.25184 0.0
H1230 H 0.73924 0.49564 0.76261 0.0
H1231 H 0.79483 0.39096 0.834 0.0
H1232 H 0.7092 0.4692 0.82886 0.0
H1233 H 0.79729 0.39616 0.75769 0.0
H1234 H 0.77516 0.42892 0.83639 0.0
H1235 H 0.77197 0.46822 0.76536 0.0
C1236 C 0.73977 0.48438 0.77796 0.0
C1237 C 0.72126 0.48433 0.79533 0.0
C1238 C 0.7806 0.42197 0.8192 0.0
C1239 C 0.7587 0.45328 0.79862 0.0
C1240 C 0.79194 0.40046 0.81781 0.0
C1241 C 0.79735 0.39041 0.79558 0.0
C1242 C 0.7751 0.43349 0.79824 0.0
C1243 C 0.7931 0.40327 0.77513 0.0
C1244 C 0.75843 0.46879 0.77947 0.0
C1245 C 0.72292 0.46949 0.8149 0.0
N1246 N 0.78199 0.42411 0.77694 0.0
N1247 N 0.74124 0.45435 0.81592 0.0
H1248 H 0.04109 0.83158 0.97501 0.0
H1249 H 0.03212 0.97105 0.95183 0.0
H1250 H 0.01794 0.86068 0.90934 0.0
H1251 H 0.0519 0.94249 0.01889 0.0
H1252 H 0.02802 0.93082 0.93575 0.0
H1253 H 0.04555 0.87176 0.99136 0.0
C1254 C 0.03674 0.84631 0.96405 0.0
C1255 C 0.02904 0.84244 0.94068 0.0
C1256 C 0.03338 0.93333 0.95396 0.0
C1257 C 0.03445 0.88889 0.95933 0.0
C1258 C 0.03587 0.9564 0.96314 0.0
C1259 C 0.04251 0.96042 0.9868 0.0
C1260 C 0.03751 0.91387 0.96844 0.0
C1261 C 0.04685 0.94046 0.00054 0.0
C1262 C 0.0394 0.86934 0.9734 0.0
C1263 C 0.02388 0.86251 0.92743 0.0
N1264 N 0.04426 0.91823 0.99123 0.0
N1265 N 0.02673 0.88465 0.93685 0.0
H1266 H 0.97893 0.27308 0.7152 0.0
H1267 H 0.85669 0.33924 0.72858 0.0
H1268 H 0.95599 0.32176 0.66271 0.0
H1269 H 0.89278 0.31172 0.78871 0.0
H1270 H 0.89265 0.33297 0.70398 0.0
H1271 H 0.94688 0.28613 0.74209 0.0
C1272 C 0.96711 0.28649 0.70931 0.0
C1273 C 0.96996 0.29623 0.68662 0.0
C1274 C 0.89287 0.32865 0.72263 0.0
C1275 C 0.93336 0.31125 0.71732 0.0
C1276 C 0.87237 0.33222 0.73667 0.0
C1277 C 0.8718 0.32585 0.76065 0.0
C1278 C 0.91275 0.31821 0.73253 0.0
C1279 C 0.89257 0.31689 0.7703 0.0
C1280 C 0.94897 0.29406 0.72475 0.0
C1281 C 0.95432 0.31372 0.68001 0.0
N1282 N 0.91214 0.31296 0.75607 0.0
N1283 N 0.93652 0.32054 0.69523 0.0
H1284 H 0.4849 0.21243 0.46215 0.0
H1285 H 0.55672 0.09762 0.49402 0.0
H1286 H 0.55488 0.19879 0.4315 0.0
H1287 H 0.47937 0.09456 0.48899 0.0
H1288 H 0.55749 0.13787 0.47849 0.0
H1289 H 0.48369 0.17272 0.47968 0.0
C1290 C 0.50018 0.2013 0.45943 0.0
C1291 C 0.52007 0.20912 0.44533 0.0
C1292 C 0.54034 0.12842 0.48082 0.0
C1293 C 0.51886 0.16363 0.46555 0.0
C1294 C 0.53986 0.1054 0.48975 0.0
C1295 C 0.51795 0.09246 0.49276 0.0
C1296 C 0.51871 0.13908 0.47537 0.0
C1297 C 0.49671 0.10369 0.48683 0.0
C1298 C 0.49937 0.17855 0.46926 0.0
C1299 C 0.53916 0.19363 0.4422 0.0
N1300 N 0.4976 0.12634 0.47866 0.0
N1301 N 0.53817 0.17186 0.4523 0.0
H1302 H 0.60628 0.7988 0.14735 0.0
H1303 H 0.65568 0.73863 0.26339 0.0
H1304 H 0.56403 0.75014 0.19116 0.0
H1305 H 0.69847 0.78547 0.21818 0.0
H1306 H 0.62107 0.74437 0.2384 0.0
H1307 H 0.63961 0.79594 0.1745 0.0
C1308 C 0.60399 0.78755 0.16269 0.0
C1309 C 0.58239 0.77459 0.16691 0.0
C1310 C 0.63802 0.75349 0.23404 0.0
C1311 C 0.62041 0.77125 0.19804 0.0
C1312 C 0.65778 0.75014 0.24825 0.0
C1313 C 0.68001 0.76154 0.24287 0.0
C1314 C 0.64056 0.76827 0.21427 0.0
C1315 C 0.68165 0.77654 0.22322 0.0
C1316 C 0.62302 0.78594 0.17819 0.0
C1317 C 0.5804 0.76037 0.18713 0.0
N1318 N 0.66221 0.77938 0.20957 0.0
N1319 N 0.5992 0.75903 0.2019 0.0
H1320 H 1.0016 0.20775 0.61514 0.0
H1321 H 0.05559 0.13054 0.50868 0.0
H1322 H 0.0509 0.236 0.56137 0.0
H1323 H 0.99941 0.10568 0.55737 0.0
H1324 H 0.05369 0.16971 0.52709 0.0
H1325 H 0.99988 0.17035 0.59344 0.0
C1326 C 0.01196 0.20613 0.59873 0.0
C1327 C 0.02651 0.22497 0.59014 0.0
C1328 C 0.04162 0.1557 0.53355 0.0
C1329 C 0.02473 0.18224 0.56528 0.0
C1330 C 0.04278 0.13337 0.5231 0.0
C1331 C 0.02762 0.11486 0.53142 0.0
C1332 C 0.02534 0.15939 0.55258 0.0
C1333 C 0.01119 0.11947 0.55007 0.0
C1334 C 0.01096 0.18479 0.58632 0.0
C1335 C 0.03949 0.22191 0.56871 0.0
N1336 N 0.01062 0.14122 0.56011 0.0
N1337 N 0.03842 0.20089 0.55709 0.0
H1338 H 0.60644 0.30067 0.38119 0.0
H1339 H 0.70775 0.24302 0.29698 0.0
H1340 H 0.59424 0.23956 0.33644 0.0
H1341 H 0.72198 0.3055 0.33927 0.0
H1342 H 0.66616 0.24197 0.31165 0.0
H1343 H 0.64841 0.30341 0.36632 0.0
C1344 C 0.61249 0.28791 0.36816 0.0
C1345 C 0.59664 0.26985 0.36009 0.0
C1346 C 0.67828 0.25596 0.31779 0.0
C1347 C 0.64483 0.2728 0.34308 0.0
C1348 C 0.70218 0.25657 0.3094 0.0
C1349 C 0.71858 0.2744 0.31685 0.0
C1350 C 0.6704 0.27328 0.33388 0.0
C1351 C 0.71006 0.29141 0.33302 0.0
C1352 C 0.63651 0.28946 0.35971 0.0
C1353 C 0.60566 0.2538 0.34323 0.0
N1354 N 0.68661 0.29043 0.34098 0.0
N1355 N 0.62901 0.25563 0.3354 0.0
H1356 H 0.54027 0.84054 0.04751 0.0
H1357 H 0.50229 0.9688 0.07449 0.0
H1358 H 0.49643 0.85635 0.10944 0.0
H1359 H 0.51494 0.94363 0.0029 0.0
H1360 H 0.49845 0.928 0.08784 0.0
H1361 H 0.53055 0.87835 0.03076 0.0
C1362 C 0.52848 0.85197 0.05751 0.0
C1363 C 0.51936 0.84556 0.07998 0.0
C1364 C 0.50153 0.93144 0.06914 0.0
C1365 C 0.50831 0.88881 0.06105 0.0
C1366 C 0.50378 0.95468 0.06151 0.0
C1367 C 0.50932 0.95954 0.03762 0.0
C1368 C 0.50535 0.91306 0.05282 0.0
C1369 C 0.51087 0.94065 0.02152 0.0
C1370 C 0.52277 0.87343 0.04787 0.0
C1371 C 0.5039 0.8608 0.09209 0.0
N1372 N 0.50941 0.91819 0.0295 0.0
N1373 N 0.49918 0.88201 0.08264 0.0
H1374 H 0.96878 0.80904 0.82693 0.0
H1375 H 0.83987 0.74113 0.81544 0.0
H1376 H 0.94705 0.74906 0.86958 0.0
H1377 H 0.86005 0.80517 0.77843 0.0
H1378 H 0.87974 0.74188 0.83334 0.0
H1379 H 0.93008 0.80609 0.80718 0.0
C1380 C 0.95594 0.79515 0.83212 0.0
C1381 C 0.96135 0.7793 0.85007 0.0
C1382 C 0.8755 0.7557 0.8212 0.0
C1383 C 0.91656 0.77581 0.82731 0.0
C1384 C 0.85271 0.75523 0.81086 0.0
C1385 C 0.84643 0.7731 0.79529 0.0
C1386 C 0.89233 0.77412 0.81597 0.0
C1387 C 0.86394 0.79098 0.79026 0.0
C1388 C 0.93373 0.7935 0.82081 0.0
C1389 C 0.94378 0.76171 0.85591 0.0
N1390 N 0.88593 0.79103 0.80054 0.0
N1391 N 0.92225 0.76046 0.84462 0.0
H1392 H 0.90806 0.07934 0.8362 0.0
H1393 H 0.03614 0.07139 0.89515 0.0
H1394 H 0.97308 0.06669 0.79534 0.0
H1395 H 0.97015 0.05121 0.93248 0.0
H1396 H 0.01339 0.0765 0.85902 0.0
H1397 H 0.9309 0.07655 0.87272 0.0
C1398 C 0.9272 0.07635 0.83493 0.0
C1399 C 0.93875 0.07318 0.8128 0.0
C1400 C 0.0039 0.07088 0.8751 0.0
C1401 C 0.96475 0.06994 0.85422 0.0
C1402 C 0.01683 0.06801 0.89564 0.0
C1403 C 0.00491 0.06082 0.91665 0.0
C1404 C 0.97884 0.06694 0.87573 0.0
C1405 C 0.97992 0.05653 0.91648 0.0
C1406 C 0.94011 0.07454 0.85571 0.0
C1407 C 0.9635 0.06914 0.81208 0.0
N1408 N 0.96761 0.05985 0.89632 0.0
N1409 N 0.97572 0.06767 0.83252 0.0
H1410 H 0.82556 0.19465 0.61395 0.0
H1411 H 0.77337 0.31531 0.66431 0.0
H1412 H 0.79219 0.24547 0.57001 0.0
H1413 H 0.80297 0.2616 0.70743 0.0
H1414 H 0.78316 0.29187 0.62882 0.0
H1415 H 0.82198 0.22166 0.64763 0.0
C1416 C 0.81782 0.21163 0.61128 0.0
C1417 C 0.80886 0.21765 0.5892 0.0
C1418 C 0.78762 0.28534 0.64609 0.0
C1419 C 0.80433 0.24852 0.62777 0.0
C1420 C 0.78186 0.29861 0.66631 0.0
C1421 C 0.78747 0.29048 0.68884 0.0
C1422 C 0.79898 0.26379 0.64851 0.0
C1423 C 0.79871 0.26881 0.69043 0.0
C1424 C 0.81564 0.22701 0.63056 0.0
C1425 C 0.79912 0.23998 0.58677 0.0
N1426 N 0.80404 0.25625 0.67058 0.0
N1427 N 0.79685 0.2545 0.60591 0.0
H1428 H 0.56898 0.99415 0.33683 0.0
H1429 H 0.58995 0.01484 0.4731 0.0
H1430 H 0.6402 0.99419 0.36579 0.0
H1431 H 0.52198 0.99021 0.44459 0.0
H1432 H 0.60958 0.006 0.43474 0.0
H1433 H 0.55174 0.99148 0.37685 0.0
C1434 C 0.58096 0.99338 0.35166 0.0
C1435 C 0.60597 0.99464 0.34815 0.0
C1436 C 0.59044 0.00221 0.43711 0.0
C1437 C 0.5865 0.99189 0.39394 0.0
C1438 C 0.57926 0.00729 0.45892 0.0
C1439 C 0.55427 0.00371 0.46181 0.0
C1440 C 0.5764 0.99371 0.41824 0.0
C1441 C 0.54123 0.99373 0.44299 0.0
C1442 C 0.57115 0.99175 0.37449 0.0
C1443 C 0.62077 0.99334 0.36788 0.0
N1444 N 0.5524 0.98937 0.42192 0.0
N1445 N 0.61079 0.99243 0.39008 0.0
H1446 H 0.79264 0.89511 0.11554 0.0
H1447 H 0.76063 0.7838 0.19639 0.0
H1448 H 0.77716 0.82722 0.08344 0.0
H1449 H 0.81361 0.83688 0.21706 0.0
H1450 H 0.76015 0.80135 0.15666 0.0
H1451 H 0.79391 0.8763 0.15439 0.0
C1452 C 0.78932 0.87624 0.11662 0.0
C1453 C 0.78475 0.86281 0.09596 0.0
C1454 C 0.77191 0.8091 0.16988 0.0
C1455 C 0.78584 0.84109 0.14092 0.0
C1456 C 0.77215 0.79916 0.19263 0.0
C1457 C 0.78726 0.80877 0.21024 0.0
C1458 C 0.78635 0.82932 0.16471 0.0
C1459 C 0.80177 0.82872 0.20414 0.0
C1460 C 0.7902 0.8655 0.13888 0.0
C1461 C 0.7808 0.83834 0.09873 0.0
N1462 N 0.80074 0.83844 0.18211 0.0
N1463 N 0.78117 0.82834 0.12074 0.0
H1464 H 0.93958 0.0946 0.69222 0.0
H1465 H 0.93241 0.00829 0.58286 0.0
H1466 H 0.87239 0.06173 0.67018 0.0
H1467 H 0.98704 0.06414 0.58612 0.0
H1468 H 0.9108 0.0268 0.61601 0.0
H1469 H 0.95781 0.08414 0.6538 0.0
C1470 C 0.92852 0.08567 0.67909 0.0
C1471 C 0.90453 0.07877 0.68448 0.0
C1472 C 0.92743 0.03507 0.60934 0.0
C1473 C 0.9254 0.06624 0.64093 0.0
C1474 C 0.93989 0.02438 0.59063 0.0
C1475 C 0.96164 0.03458 0.58196 0.0
C1476 C 0.93704 0.05584 0.61968 0.0
C1477 C 0.97038 0.05564 0.59241 0.0
C1478 C 0.93895 0.07966 0.65722 0.0
C1479 C 0.89098 0.0673 0.66681 0.0
N1480 N 0.95818 0.06546 0.61095 0.0
N1481 N 0.90176 0.06093 0.64599 0.0
H1482 H 0.79939 0.23761 0.46748 0.0
H1483 H 0.78919 0.20475 0.33553 0.0
H1484 H 0.8079 0.16467 0.44806 0.0
H1485 H 0.82912 0.26732 0.35812 0.0
H1486 H 0.794 0.18808 0.37522 0.0
H1487 H 0.80718 0.24857 0.4262 0.0
C1488 C 0.80307 0.22395 0.45446 0.0
C1489 C 0.80301 0.20028 0.46094 0.0
C1490 C 0.80219 0.20519 0.37112 0.0
C1491 C 0.81148 0.21253 0.41387 0.0
C1492 C 0.79946 0.21468 0.34858 0.0
C1493 C 0.80824 0.23765 0.34384 0.0
C1494 C 0.81344 0.21902 0.38874 0.0
C1495 C 0.82151 0.24978 0.36127 0.0
C1496 C 0.80766 0.23018 0.43101 0.0
C1497 C 0.80793 0.18315 0.44355 0.0
N1498 N 0.82326 0.24053 0.38311 0.0
N1499 N 0.81153 0.18956 0.42052 0.0
H1500 H 0.60049 0.96342 0.22733 0.0
H1501 H 0.59107 0.05423 0.12697 0.0
H1502 H 0.66288 0.00387 0.20186 0.0
H1503 H 0.54772 0.98987 0.12474 0.0
H1504 H 0.61654 0.03666 0.15641 0.0
H1505 H 0.58031 0.97139 0.19032 0.0
C1506 C 0.61021 0.97332 0.21361 0.0
C1507 C 0.63318 0.98335 0.21772 0.0
C1508 C 0.60152 0.02634 0.14937 0.0
C1509 C 0.61004 0.99314 0.17605 0.0
C1510 C 0.58682 0.0365 0.13298 0.0
C1511 C 0.56721 0.0235 0.12388 0.0
C1512 C 0.59621 0.00324 0.15697 0.0
C1513 C 0.56266 0.00038 0.13164 0.0
C1514 C 0.59867 0.97793 0.19259 0.0
C1515 C 0.64508 0.99595 0.19942 0.0
N1516 N 0.5769 0.991 0.14805 0.0
N1517 N 0.63308 0.00111 0.17958 0.0
H1518 H 0.80045 0.81979 0.96323 0.0
H1519 H 0.7711 0.84693 0.82836 0.0
H1520 H 0.768 0.88466 0.94457 0.0
H1521 H 0.77124 0.77649 0.85617 0.0
H1522 H 0.77403 0.8626 0.86924 0.0
H1523 H 0.79436 0.80506 0.92273 0.0
C1524 C 0.79198 0.83096 0.95065 0.0
C1525 C 0.78463 0.8535 0.95752 0.0
C1526 C 0.77323 0.84372 0.86633 0.0
C1527 C 0.77801 0.83678 0.91059 0.0
C1528 C 0.77155 0.83475 0.84298 0.0
C1529 C 0.77074 0.81028 0.83862 0.0
C1530 C 0.77472 0.82818 0.8855 0.0
C1531 C 0.7716 0.79545 0.85845 0.0
C1532 C 0.78847 0.82249 0.92748 0.0
C1533 C 0.77379 0.8671 0.94022 0.0
N1534 N 0.77378 0.80458 0.88079 0.0
N1535 N 0.77103 0.85866 0.91757 0.0
H1536 H 0.83753 0.97306 0.01675 0.0
H1537 H 0.97633 0.97425 0.04744 0.0
H1538 H 0.87549 0.90934 0.02786 0.0
H1539 H 0.95084 0.02471 0.9981 0.0
H1540 H 0.93702 0.95362 0.04696 0.0
H1541 H 0.87644 0.99535 0.01558 0.0
C1542 C 0.854 0.96373 0.01889 0.0
C1543 C 0.85315 0.9392 0.02234 0.0
C1544 C 0.93996 0.96927 0.03631 0.0
C1545 C 0.89766 0.96475 0.0216 0.0
C1546 C 0.96239 0.98123 0.03669 0.0
C1547 C 0.96703 0.00139 0.02283 0.0
C1548 C 0.92158 0.97767 0.02238 0.0
C1549 C 0.94814 0.00929 0.00909 0.0
C1550 C 0.87618 0.97647 0.01815 0.0
C1551 C 0.87516 0.92814 0.025 0.0
N1552 N 0.92619 0.99753 0.00934 0.0
N1553 N 0.89637 0.94098 0.02487 0.0
H1554 H 0.34798 0.57158 0.03307 0.0
H1555 H 0.46866 0.55983 0.96404 0.0
H1556 H 0.37364 0.62495 0.98381 0.0
H1557 H 0.42785 0.4999 0.99214 0.0
H1558 H 0.43203 0.58223 0.96477 0.0
H1559 H 0.37518 0.5439 0.01441 0.0
C1560 C 0.35939 0.57746 0.01829 0.0
C1561 C 0.35898 0.60068 0.01027 0.0
C1562 C 0.43092 0.56394 0.97007 0.0
C1563 C 0.39012 0.56906 0.9887 0.0
C1564 C 0.45183 0.55107 0.96953 0.0
C1565 C 0.45146 0.52826 0.97894 0.0
C1566 C 0.40975 0.55394 0.98033 0.0
C1567 C 0.4291 0.51767 0.98538 0.0
C1568 C 0.37469 0.56156 0.00742 0.0
C1569 C 0.37371 0.60724 0.99072 0.0
N1570 N 0.40923 0.53086 0.98668 0.0
N1571 N 0.38908 0.5916 0.98084 0.0
H1572 H 0.16006 0.58371 0.78081 0.0
H1573 H 0.26184 0.66357 0.71502 0.0
H1574 H 0.21348 0.55702 0.73151 0.0
H1575 H 0.21434 0.6895 0.77024 0.0
H1576 H 0.24036 0.62539 0.71684 0.0
H1577 H 0.17625 0.62366 0.7736 0.0
C1578 C 0.17511 0.58626 0.76843 0.0
C1579 C 0.18562 0.56703 0.75694 0.0
C1580 C 0.23455 0.63948 0.72849 0.0
C1581 C 0.20407 0.61248 0.74857 0.0
C1582 C 0.24672 0.66128 0.72733 0.0
C1583 C 0.24005 0.67954 0.74274 0.0
C1584 C 0.21561 0.63599 0.74516 0.0
C1585 C 0.2204 0.67566 0.75846 0.0
C1586 C 0.18432 0.60903 0.76431 0.0
C1587 C 0.20498 0.57131 0.74097 0.0
N1588 N 0.20894 0.65422 0.75939 0.0
N1589 N 0.21364 0.59358 0.73733 0.0
H1590 H 0.19748 0.42922 0.50003 0.0
H1591 H 0.09439 0.50764 0.56024 0.0
H1592 H 0.20536 0.46694 0.56632 0.0
H1593 H 0.08946 0.47927 0.48918 0.0
H1594 H 0.13427 0.49127 0.56318 0.0
H1595 H 0.15749 0.44576 0.49609 0.0
C1596 C 0.19087 0.44098 0.51375 0.0
C1597 C 0.20498 0.44666 0.53355 0.0
C1598 C 0.12454 0.48861 0.5469 0.0
C1599 C 0.15894 0.46561 0.52919 0.0
C1600 C 0.10165 0.49797 0.5452 0.0
C1601 C 0.08838 0.49494 0.52439 0.0
C1602 C 0.13446 0.47588 0.52773 0.0
C1603 C 0.09895 0.48215 0.50556 0.0
C1604 C 0.16799 0.45044 0.51147 0.0
C1605 C 0.1953 0.46203 0.55072 0.0
N1606 N 0.12126 0.47308 0.5077 0.0
N1607 N 0.17299 0.47084 0.54818 0.0
H1608 H 0.82146 0.0065 0.77808 0.0
H1609 H 0.83683 0.88361 0.71608 0.0
H1610 H 0.88885 0.98802 0.74428 0.0
H1611 H 0.79561 0.88867 0.78151 0.0
H1612 H 0.85281 0.92395 0.72246 0.0
H1613 H 0.80813 0.96482 0.7765 0.0
C1614 C 0.83347 0.99367 0.77052 0.0
C1615 C 0.85622 0.00064 0.76123 0.0
C1616 C 0.8404 0.91613 0.73549 0.0
C1617 C 0.84102 0.95348 0.75901 0.0
C1618 C 0.83123 0.89331 0.73178 0.0
C1619 C 0.81501 0.88308 0.74832 0.0
C1620 C 0.83273 0.92886 0.75557 0.0
C1621 C 0.80827 0.8961 0.76851 0.0
C1622 C 0.82592 0.96999 0.76971 0.0
C1623 C 0.87118 0.98336 0.75168 0.0
N1624 N 0.81694 0.91856 0.77146 0.0
N1625 N 0.86316 0.96059 0.75049 0.0
H1626 H 0.71047 0.15403 0.5189 0.0
H1627 H 0.63787 0.04478 0.57795 0.0
H1628 H 0.74133 0.10635 0.56805 0.0
H1629 H 0.60799 0.09016 0.52615 0.0
H1630 H 0.67569 0.06789 0.57539 0.0
H1631 H 0.67234 0.13149 0.52211 0.0
C1632 C 0.70921 0.13887 0.5304 0.0
C1633 C 0.7291 0.13203 0.54321 0.0
C1634 C 0.66086 0.07278 0.56456 0.0
C1635 C 0.68561 0.1062 0.54692 0.0
C1636 C 0.63926 0.05966 0.56611 0.0
C1637 C 0.61982 0.06555 0.55221 0.0
C1638 C 0.66297 0.09196 0.54906 0.0
C1639 C 0.62265 0.08481 0.53691 0.0
C1640 C 0.68746 0.12599 0.5322 0.0
C1641 C 0.72647 0.11224 0.55783 0.0
N1642 N 0.64385 0.09737 0.53577 0.0
N1643 N 0.70511 0.1 0.55927 0.0
H1644 H 0.19383 0.44048 0.81425 0.0
H1645 H 0.31111 0.36705 0.79114 0.0
H1646 H 0.25193 0.45971 0.76525 0.0
H1647 H 0.2418 0.3375 0.81388 0.0
H1648 H 0.29575 0.40658 0.7971 0.0
H1649 H 0.21801 0.40883 0.82912 0.0
C1650 C 0.21188 0.43838 0.80702 0.0
C1651 C 0.22071 0.45214 0.78803 0.0
C1652 C 0.28417 0.3914 0.80135 0.0
C1653 C 0.24829 0.41643 0.80503 0.0
C1654 C 0.29287 0.36889 0.79796 0.0
C1655 C 0.2774 0.34912 0.80135 0.0
C1656 C 0.25998 0.39395 0.80831 0.0
C1657 C 0.25406 0.35239 0.81045 0.0
C1658 C 0.22562 0.4204 0.81553 0.0
C1659 C 0.24427 0.44898 0.77948 0.0
N1660 N 0.24589 0.37446 0.81327 0.0
N1661 N 0.25716 0.43118 0.78783 0.0
H1662 H 0.38793 0.63682 0.28596 0.0
H1663 H 0.29004 0.73306 0.26875 0.0
H1664 H 0.31902 0.62307 0.2538 0.0
H1665 H 0.35207 0.74599 0.31228 0.0
H1666 H 0.29958 0.69178 0.26584 0.0
H1667 H 0.37449 0.67567 0.29874 0.0
C1668 C 0.36987 0.64184 0.28187 0.0
C1669 C 0.35468 0.62686 0.26848 0.0
C1670 C 0.31106 0.70349 0.27624 0.0
C1671 C 0.33932 0.67115 0.28291 0.0
C1672 C 0.30566 0.72712 0.27783 0.0
C1673 C 0.32048 0.74297 0.29055 0.0
C1674 C 0.3317 0.69557 0.28712 0.0
C1675 C 0.34028 0.73428 0.30223 0.0
C1676 C 0.36223 0.66399 0.28918 0.0
C1677 C 0.33145 0.63416 0.2638 0.0
N1678 N 0.34556 0.71113 0.29994 0.0
N1679 N 0.3246 0.65586 0.27079 0.0
H1680 H 0.51324 0.6921 0.63781 0.0
H1681 H 0.5235 0.61488 0.51784 0.0
H1682 H 0.53919 0.72207 0.57163 0.0
H1683 H 0.51272 0.58526 0.58753 0.0
H1684 H 0.52569 0.65448 0.5359 0.0
H1685 H 0.50938 0.65364 0.6185 0.0
C1686 C 0.51806 0.69072 0.61914 0.0
C1687 C 0.52662 0.71068 0.60647 0.0
C1688 C 0.52275 0.63932 0.54723 0.0
C1689 C 0.52212 0.66593 0.58395 0.0
C1690 C 0.52135 0.61664 0.53691 0.0
C1691 C 0.51782 0.59649 0.55111 0.0
C1692 C 0.52038 0.64209 0.57199 0.0
C1693 C 0.51541 0.6001 0.57577 0.0
C1694 C 0.51589 0.66856 0.6081 0.0
C1695 C 0.53255 0.70736 0.58224 0.0
N1696 N 0.51668 0.62229 0.58532 0.0
N1697 N 0.53016 0.68551 0.57181 0.0
H1698 H 0.61753 0.29909 0.86224 0.0
H1699 H 0.7607 0.31759 0.86155 0.0
H1700 H 0.66124 0.29642 0.92443 0.0
H1701 H 0.71997 0.31209 0.79728 0.0
H1702 H 0.72354 0.31369 0.88474 0.0
H1703 H 0.65395 0.3078 0.8382 0.0
C1704 C 0.63474 0.30053 0.87088 0.0
C1705 C 0.63638 0.29686 0.89538 0.0
C1706 C 0.72263 0.31333 0.86557 0.0
C1707 C 0.67797 0.30674 0.86799 0.0
C1708 C 0.7439 0.31554 0.85225 0.0
C1709 C 0.74346 0.31496 0.82738 0.0
C1710 C 0.70062 0.31047 0.85404 0.0
C1711 C 0.7211 0.31249 0.81642 0.0
C1712 C 0.65549 0.30542 0.85712 0.0
C1713 C 0.65911 0.29894 0.90561 0.0
N1714 N 0.70049 0.31023 0.82986 0.0
N1715 N 0.67899 0.30366 0.89185 0.0
H1716 H 0.02585 0.35393 0.12801 0.0
H1717 H 0.01335 0.43041 0.01175 0.0
H1718 H 0.05035 0.32696 0.06026 0.0
H1719 H 0.0408 0.46196 0.07593 0.0
H1720 H 0.01632 0.39115 0.02969 0.0
H1721 H 0.02066 0.39257 0.10973 0.0
C1722 C 0.02987 0.35602 0.10924 0.0
C1723 C 0.03862 0.33709 0.0957 0.0
C1724 C 0.02153 0.40673 0.03984 0.0
C1725 C 0.03216 0.38124 0.07454 0.0
C1726 C 0.01971 0.42912 0.02968 0.0
C1727 C 0.02687 0.44957 0.04232 0.0
C1728 C 0.02979 0.40474 0.06311 0.0
C1729 C 0.03517 0.44673 0.06548 0.0
C1730 C 0.02701 0.37811 0.09886 0.0
C1731 C 0.04367 0.34102 0.07144 0.0
N1732 N 0.03616 0.42487 0.07518 0.0
N1733 N 0.04017 0.36251 0.06161 0.0
H1734 H 0.02176 0.8015 0.33595 0.0
H1735 H 0.88383 0.76394 0.32268 0.0
H1736 H 0.98818 0.74141 0.37128 0.0
H1737 H 0.92026 0.81833 0.281 0.0
H1738 H 0.9225 0.75287 0.33773 0.0
H1739 H 0.98591 0.80502 0.31241 0.0
C1740 C 0.00694 0.78879 0.33847 0.0
C1741 C 0.00777 0.77131 0.35578 0.0
C1742 C 0.92206 0.76708 0.32512 0.0
C1743 C 0.96645 0.77551 0.3292 0.0
C1744 C 0.89994 0.77341 0.31643 0.0
C1745 C 0.89866 0.7923 0.30065 0.0
C1746 C 0.9431 0.77981 0.31814 0.0
C1747 C 0.92024 0.80402 0.29349 0.0
C1748 C 0.98644 0.79083 0.32504 0.0
C1749 C 0.9882 0.75519 0.35816 0.0
N1750 N 0.94152 0.7977 0.30243 0.0
N1751 N 0.96811 0.75792 0.34529 0.0
H1752 H 0.50402 0.30803 0.96174 0.0
H1753 H 0.51437 0.40742 0.05754 0.0
H1754 H 0.56287 0.31443 0.01029 0.0
H1755 H 0.4499 0.39215 0.01847 0.0
H1756 H 0.52865 0.3684 0.04712 0.0
H1757 H 0.48052 0.33348 0.98765 0.0
C1758 C 0.51192 0.31464 0.97799 0.0
C1759 C 0.53566 0.30967 0.98358 0.0
C1760 C 0.51107 0.37325 0.04132 0.0
C1761 C 0.50891 0.33891 0.01328 0.0
C1762 C 0.50296 0.39549 0.04731 0.0
C1763 C 0.48126 0.40304 0.03836 0.0
C1764 C 0.49757 0.35879 0.02584 0.0
C1765 C 0.46686 0.38698 0.0255 0.0
C1766 C 0.49841 0.32903 0.99289 0.0
C1767 C 0.54477 0.31819 0.00512 0.0
N1768 N 0.47557 0.36577 0.01906 0.0
N1769 N 0.53154 0.33283 0.01897 0.0
H1770 H 0.96675 0.22868 0.21429 0.0
H1771 H 0.8631 0.31155 0.26317 0.0
H1772 H 0.96439 0.30107 0.1924 0.0
H1773 H 0.85236 0.23667 0.25235 0.0
H1774 H 0.90314 0.30933 0.24352 0.0
H1775 H 0.92783 0.2326 0.23485 0.0
C1776 C 0.95813 0.24548 0.21392 0.0
C1777 C 0.96891 0.26455 0.20149 0.0
C1778 C 0.89195 0.29344 0.24551 0.0
C1779 C 0.92422 0.26921 0.22535 0.0
C1780 C 0.86919 0.29466 0.25682 0.0
C1781 C 0.85428 0.27427 0.25939 0.0
C1782 C 0.9001 0.27159 0.23725 0.0
C1783 C 0.86311 0.25287 0.2507 0.0
C1784 C 0.93583 0.24766 0.2256 0.0
C1785 C 0.95672 0.28586 0.20164 0.0
N1786 N 0.8854 0.25208 0.24023 0.0
N1787 N 0.9351 0.28767 0.21348 0.0
H1788 H 0.05727 0.68863 0.4283 0.0
H1789 H 0.05925 0.59868 0.53517 0.0
H1790 H 0.09339 0.7048 0.49377 0.0
H1791 H 0.04267 0.57766 0.46337 0.0
H1792 H 0.07118 0.638 0.52084 0.0
H1793 H 0.05074 0.64797 0.4413 0.0
C1794 C 0.06391 0.68359 0.44536 0.0
C1795 C 0.07578 0.70007 0.46004 0.0
C1796 C 0.06514 0.62468 0.50823 0.0
C1797 C 0.06829 0.65376 0.47505 0.0
C1798 C 0.05831 0.60228 0.51639 0.0
C1799 C 0.04985 0.58496 0.50045 0.0
C1800 C 0.06319 0.62977 0.48404 0.0
C1801 C 0.04903 0.59052 0.4763 0.0
C1802 C 0.06026 0.66039 0.45273 0.0
C1803 C 0.08412 0.69261 0.48192 0.0
N1804 N 0.0554 0.61252 0.46886 0.0
N1805 N 0.08003 0.67001 0.48887 0.0
H1806 H 0.58559 0.7586 0.71337 0.0
H1807 H 0.71933 0.81448 0.72746 0.0
H1808 H 0.62051 0.80357 0.66084 0.0
H1809 H 0.69261 0.75439 0.76752 0.0
H1810 H 0.68147 0.8142 0.70615 0.0
H1811 H 0.6226 0.76019 0.73618 0.0
C1812 C 0.60096 0.76894 0.70662 0.0
C1813 C 0.59972 0.78097 0.68499 0.0
C1814 C 0.68379 0.80114 0.71968 0.0
C1815 C 0.64247 0.78296 0.71139 0.0
C1816 C 0.70542 0.80136 0.73205 0.0
C1817 C 0.70934 0.78447 0.74951 0.0
C1818 C 0.66556 0.78405 0.72484 0.0
C1819 C 0.69052 0.76783 0.75433 0.0
C1820 C 0.62218 0.76975 0.71969 0.0
C1821 C 0.62047 0.79395 0.6773 0.0
N1822 N 0.66953 0.76807 0.74214 0.0
N1823 N 0.64084 0.79467 0.69048 0.0
H1824 H 0.57827 0.48669 0.74756 0.0
H1825 H 0.58336 0.51248 0.60904 0.0
H1826 H 0.6433 0.50905 0.70938 0.0
H1827 H 0.52112 0.48152 0.64565 0.0
H1828 H 0.606 0.51041 0.64545 0.0
H1829 H 0.55754 0.48295 0.71007 0.0
C1830 C 0.58825 0.49061 0.73126 0.0
C1831 C 0.61247 0.49843 0.73158 0.0
C1832 C 0.58742 0.50395 0.64549 0.0
C1833 C 0.5888 0.49438 0.68867 0.0
C1834 C 0.57444 0.50535 0.62479 0.0
C1835 C 0.55028 0.49734 0.62445 0.0
C1836 C 0.5761 0.49465 0.66601 0.0
C1837 C 0.53974 0.48777 0.64518 0.0
C1838 C 0.5764 0.48846 0.70986 0.0
C1839 C 0.62457 0.50307 0.70994 0.0
N1840 N 0.55268 0.48682 0.6652 0.0
N1841 N 0.61251 0.50122 0.68933 0.0
H1842 H 0.73313 0.38716 0.98763 0.0
H1843 H 0.82707 0.30456 0.92063 0.0
H1844 H 0.77703 0.33856 0.02404 0.0
H1845 H 0.79848 0.36721 0.89094 0.0
H1846 H 0.80349 0.31153 0.95708 0.0
H1847 H 0.74965 0.37289 0.94976 0.0
C1848 C 0.74565 0.37297 0.98763 0.0
C1849 C 0.75403 0.36427 0.00896 0.0
C1850 C 0.80237 0.32367 0.94249 0.0
C1851 C 0.77336 0.34832 0.9659 0.0
C1852 C 0.81607 0.31988 0.9218 0.0
C1853 C 0.81479 0.33531 0.90262 0.0
C1854 C 0.78721 0.34292 0.94393 0.0
C1855 C 0.79981 0.35464 0.90508 0.0
C1856 C 0.75533 0.36507 0.96604 0.0
C1857 C 0.77036 0.34596 0.00795 0.0
N1858 N 0.78658 0.35785 0.92529 0.0
N1859 N 0.77978 0.3388 0.98677 0.0
H1860 H 0.95973 0.56297 0.19103 0.0
H1861 H 0.95503 0.52933 0.05388 0.0
H1862 H 0.89614 0.53406 0.15714 0.0
H1863 H 0.02022 0.54894 0.09059 0.0
H1864 H 0.9316 0.53812 0.08978 0.0
H1865 H 0.98034 0.565 0.15259 0.0
C1866 C 0.95005 0.55712 0.17547 0.0
C1867 C 0.92633 0.5479 0.17729 0.0
C1868 C 0.95101 0.54071 0.08989 0.0
C1869 C 0.94986 0.55019 0.13327 0.0
C1870 C 0.96439 0.5357 0.06944 0.0
C1871 C 0.98961 0.53804 0.06946 0.0
C1872 C 0.96298 0.54807 0.11043 0.0
C1873 C 1.00082 0.5466 0.08995 0.0
C1874 C 0.96183 0.55835 0.15352 0.0
C1875 C 0.91454 0.54099 0.15652 0.0
N1876 N 0.9874 0.55111 0.10974 0.0
N1877 N 0.92655 0.54204 0.13531 0.0
H1878 H 0.78192 0.66923 0.44164 0.0
H1879 H 0.80655 0.78059 0.3597 0.0
H1880 H 0.76887 0.73867 0.46948 0.0
H1881 H 0.76585 0.72021 0.33345 0.0
H1882 H 0.80342 0.76394 0.39995 0.0
H1883 H 0.78669 0.68596 0.40159 0.0
C1884 C 0.78036 0.68802 0.4394 0.0
C1885 C 0.77495 0.70254 0.45902 0.0
C1886 C 0.7953 0.75433 0.38531 0.0
C1887 C 0.78094 0.72185 0.41324 0.0
C1888 C 0.79718 0.76374 0.36234 0.0
C1889 C 0.78639 0.75182 0.34313 0.0
C1890 C 0.78329 0.73243 0.38904 0.0
C1891 C 0.77434 0.73007 0.34771 0.0
C1892 C 0.78295 0.69751 0.41653 0.0
C1893 C 0.77294 0.72679 0.45491 0.0
N1894 N 0.77335 0.72098 0.37006 0.0
N1895 N 0.77618 0.7357 0.43259 0.0
H1896 H 0.63628 0.47576 0.87496 0.0
H1897 H 0.5148 0.45518 0.95014 0.0
H1898 H 0.56561 0.46805 0.84521 0.0
H1899 H 0.57794 0.49455 0.97316 0.0
H1900 H 0.53776 0.44195 0.91487 0.0
H1901 H 0.61906 0.46368 0.91357 0.0
C1902 C 0.61733 0.47068 0.87637 0.0
C1903 C 0.60213 0.47353 0.85723 0.0
C1904 C 0.5467 0.45291 0.92807 0.0
C1905 C 0.5825 0.4598 0.90091 0.0
C1906 C 0.53366 0.46045 0.94805 0.0
C1907 C 0.54447 0.47641 0.96399 0.0
C1908 C 0.57065 0.46116 0.92448 0.0
C1909 C 0.56891 0.48269 0.9608 0.0
C1910 C 0.60752 0.46387 0.89835 0.0
C1911 C 0.57774 0.46663 0.85983 0.0
N1912 N 0.58115 0.47526 0.94123 0.0
N1913 N 0.56854 0.46049 0.88146 0.0
H1914 H 0.74195 0.35395 0.1184 0.0
H1915 H 0.77158 0.34884 0.25587 0.0
H1916 H 0.7549 0.41566 0.16234 0.0
H1917 H 0.75896 0.28715 0.21183 0.0
H1918 H 0.76213 0.37362 0.22261 0.0
H1919 H 0.74472 0.32932 0.15321 0.0
C1920 C 0.74527 0.36235 0.1354 0.0
C1921 C 0.74844 0.38691 0.13743 0.0
C1922 C 0.76129 0.35467 0.22024 0.0
C1923 C 0.75168 0.35875 0.17735 0.0
C1924 C 0.76669 0.34049 0.23922 0.0
C1925 C 0.76625 0.3159 0.23652 0.0
C1926 C 0.75549 0.34419 0.19838 0.0
C1927 C 0.75965 0.30605 0.21462 0.0
C1928 C 0.74683 0.34825 0.15528 0.0
C1929 C 0.7525 0.3968 0.15994 0.0
N1930 N 0.75468 0.32026 0.19631 0.0
N1931 N 0.75417 0.38265 0.17902 0.0
H1932 H 0.93272 0.57503 0.32426 0.0
H1933 H 0.03388 0.50635 0.38883 0.0
H1934 H 0.99028 0.53948 0.28759 0.0
H1935 H 0.97873 0.54502 0.42571 0.0
H1936 H 0.0219 0.52351 0.35157 0.0
H1937 H 0.95377 0.57091 0.36147 0.0
C1938 C 0.9501 0.56694 0.32393 0.0
C1939 C 0.95951 0.55706 0.30297 0.0
C1940 C 0.01258 0.52846 0.36786 0.0
C1941 C 0.98336 0.55183 0.34537 0.0
C1942 C 0.01926 0.51845 0.38907 0.0
C1943 C 0.00708 0.52402 0.41031 0.0
C1944 C 0.99338 0.54393 0.36788 0.0
C1945 C 0.98864 0.54027 0.40974 0.0
C1946 C 0.96204 0.56443 0.3452 0.0
C1947 C 0.98214 0.54689 0.3035 0.0
N1948 N 0.98216 0.54944 0.38881 0.0
N1949 N 0.99308 0.54412 0.32445 0.0
H1950 H 0.78511 0.65677 0.61459 0.0
H1951 H 0.79019 0.77748 0.69031 0.0
H1952 H 0.77727 0.72493 0.58325 0.0
H1953 H 0.78091 0.70898 0.72218 0.0
H1954 H 0.78969 0.75873 0.65098 0.0
H1955 H 0.78769 0.67567 0.65367 0.0
C1956 C 0.78405 0.67574 0.61582 0.0
C1957 C 0.78093 0.68917 0.59533 0.0
C1958 C 0.78785 0.74777 0.66656 0.0
C1959 C 0.78399 0.71112 0.64053 0.0
C1960 C 0.78826 0.75847 0.68912 0.0
C1961 C 0.78563 0.74487 0.70982 0.0
C1962 C 0.78503 0.72315 0.66442 0.0
C1963 C 0.78303 0.72027 0.70688 0.0
C1964 C 0.78545 0.68654 0.63827 0.0
C1965 C 0.77962 0.71375 0.59838 0.0
N1966 N 0.78284 0.71027 0.68473 0.0
N1967 N 0.78121 0.72387 0.62043 0.0
H1968 H 0.68547 0.64245 0.54148 0.0
H1969 H 0.60427 0.54187 0.48586 0.0
H1970 H 0.72065 0.58513 0.50588 0.0
H1971 H 0.59166 0.56238 0.55876 0.0
H1972 H 0.64409 0.56242 0.48677 0.0
H1973 H 0.64743 0.61887 0.54178 0.0
C1974 C 0.68515 0.62501 0.53351 0.0
C1975 C 0.70631 0.61577 0.52361 0.0
C1976 C 0.63266 0.56217 0.5026 0.0
C1977 C 0.66272 0.58892 0.52354 0.0
C1978 C 0.61001 0.55043 0.50214 0.0
C1979 C 0.59475 0.55011 0.52238 0.0
C1980 C 0.63972 0.57452 0.52314 0.0
C1981 C 0.60299 0.56183 0.54289 0.0
C1982 C 0.6635 0.61153 0.53386 0.0
C1983 C 0.70481 0.59292 0.51374 0.0
N1984 N 0.62468 0.5739 0.54262 0.0
N1985 N 0.68335 0.5804 0.51365 0.0
H1986 H 0.17608 0.98472 0.59116 0.0
H1987 H 0.04264 0.9476 0.55189 0.0
H1988 H 0.15772 0.91852 0.55659 0.0
H1989 H 0.06625 0.01889 0.56883 0.0
H1990 H 0.08269 0.93422 0.56149 0.0
H1991 H 0.13396 0.99523 0.58999 0.0
C1992 C 0.16319 0.9724 0.58328 0.0
C1993 C 0.17044 0.95082 0.57372 0.0
C1994 C 0.07894 0.95273 0.56342 0.0
C1995 C 0.12218 0.96264 0.57258 0.0
C1996 C 0.05606 0.96033 0.55818 0.0
C1997 C 0.05129 0.9844 0.55937 0.0
C1998 C 0.09694 0.96934 0.57004 0.0
C1999 C 0.06931 0.0002 0.56746 0.0
C2000 C 0.13914 0.97839 0.58269 0.0
C2001 C 0.15293 0.93546 0.56391 0.0
N2002 N 0.09142 0.99241 0.57231 0.0
N2003 N 0.12956 0.94169 0.56355 0.0
H2004 H 0.40106 0.9662 0.78586 0.0
H2005 H 0.29289 0.89124 0.84699 0.0
H2006 H 0.32807 0.98974 0.79199 0.0
H2007 H 0.35449 0.8603 0.81282 0.0
H2008 H 0.31056 0.93059 0.83841 0.0
H2009 H 0.38844 0.93012 0.80669 0.0
C2010 C 0.38243 0.96384 0.79172 0.0
C2011 C 0.36545 0.98072 0.78685 0.0
C2012 C 0.32038 0.91515 0.83323 0.0
C2013 C 0.35114 0.93991 0.81093 0.0
C2014 C 0.31044 0.89284 0.83827 0.0
C2015 C 0.32225 0.8728 0.83028 0.0
C2016 C 0.34233 0.91715 0.82043 0.0
C2017 C 0.34482 0.87552 0.8189 0.0
C2018 C 0.3753 0.94333 0.80363 0.0
C2019 C 0.34161 0.97692 0.79502 0.0
N2020 N 0.35411 0.89737 0.81411 0.0
N2021 N 0.33511 0.95681 0.80661 0.0
H2022 H 0.35184 0.08737 0.06481 0.0
H2023 H 0.46487 0.05365 0.98208 0.0
H2024 H 0.36197 0.11523 0.99427 0.0
H2025 H 0.46463 0.05109 0.05851 0.0
H2026 H 0.42501 0.07135 0.98432 0.0
H2027 H 0.39075 0.06886 0.06085 0.0
C2028 C 0.36217 0.08951 0.04839 0.0
C2029 C 0.35354 0.10298 0.02987 0.0
C2030 C 0.43374 0.06687 0.00056 0.0
C2031 C 0.39836 0.08155 0.02517 0.0
C2032 C 0.45642 0.05668 0.9993 0.0
C2033 C 0.46819 0.05087 0.02014 0.0
C2034 C 0.42253 0.07088 0.02279 0.0
C2035 C 0.45637 0.05533 0.04196 0.0
C2036 C 0.38449 0.07898 0.04619 0.0
C2037 C 0.36791 0.1051 0.00905 0.0
N2038 N 0.43425 0.06489 0.04269 0.0
N2039 N 0.38955 0.09444 0.00722 0.0
H2040 H 0.63469 0.59724 0.78169 0.0
H2041 H 0.72746 0.68006 0.85154 0.0
H2042 H 0.66429 0.57965 0.84884 0.0
H2043 H 0.70886 0.6883 0.77821 0.0
H2044 H 0.69579 0.64943 0.85555 0.0
H2045 H 0.6517 0.63737 0.78587 0.0
C2046 C 0.64398 0.60222 0.79776 0.0
C2047 C 0.64814 0.58546 0.81502 0.0
C2048 C 0.69849 0.65821 0.83869 0.0
C2049 C 0.66846 0.63061 0.81948 0.0
C2050 C 0.71676 0.67553 0.83628 0.0
C2051 C 0.7213 0.68649 0.81432 0.0
C2052 C 0.68463 0.65181 0.81903 0.0
C2053 C 0.7062 0.68037 0.79544 0.0
C2054 C 0.6539 0.62497 0.80005 0.0
C2055 C 0.66065 0.59235 0.83531 0.0
N2056 N 0.68874 0.66327 0.79817 0.0
N2057 N 0.6708 0.61439 0.83682 0.0
H2058 H 0.81177 0.49027 0.06892 0.0
H2059 H 0.90766 0.47404 0.96206 0.0
H2060 H 0.80728 0.43409 0.01683 0.0
H2061 H 0.92188 0.51531 0.02506 0.0
H2062 H 0.86638 0.4657 0.9772 0.0
H2063 H 0.84819 0.50595 0.04833 0.0
C2064 C 0.81831 0.48138 0.05307 0.0
C2065 C 0.80675 0.46067 0.04478 0.0
C2066 C 0.87851 0.47677 0.98758 0.0
C2067 C 0.84804 0.47852 0.02114 0.0
C2068 C 0.90191 0.48156 0.97889 0.0
C2069 C 0.91812 0.49494 0.99259 0.0
C2070 C 0.8714 0.48571 0.00993 0.0
C2071 C 0.90998 0.50443 0.01429 0.0
C2072 C 0.83906 0.49029 0.04136 0.0
C2073 C 0.81588 0.4499 0.02407 0.0
N2074 N 0.88721 0.49952 0.02238 0.0
N2075 N 0.83604 0.45889 0.01303 0.0
H2076 H 0.38076 0.11666 0.76602 0.0
H2077 H 0.27939 0.20991 0.74721 0.0
H2078 H 0.31047 0.09784 0.739 0.0
H2079 H 0.35379 0.22913 0.76072 0.0
H2080 H 0.29014 0.1687 0.74411 0.0
H2081 H 0.3705 0.15803 0.76563 0.0
C2082 C 0.36309 0.12123 0.76019 0.0
C2083 C 0.34641 0.10385 0.75255 0.0
C2084 C 0.30414 0.18197 0.7475 0.0
C2085 C 0.3347 0.15106 0.7518 0.0
C2086 C 0.29804 0.20549 0.74918 0.0
C2087 C 0.31571 0.22289 0.75441 0.0
C2088 C 0.328 0.1759 0.75129 0.0
C2089 C 0.33959 0.21624 0.75675 0.0
C2090 C 0.35733 0.14484 0.75978 0.0
C2091 C 0.32385 0.11072 0.74505 0.0
N2092 N 0.345 0.19319 0.75542 0.0
N2093 N 0.31863 0.13385 0.74487 0.0
H2094 H 0.17592 0.94511 0.30363 0.0
H2095 H 0.30423 0.8926 0.31163 0.0
H2096 H 0.23767 0.99336 0.3007 0.0
H2097 H 0.25161 0.86488 0.26252 0.0
H2098 H 0.27969 0.92763 0.31763 0.0
H2099 H 0.20308 0.91209 0.29993 0.0
C2100 C 0.1952 0.94871 0.30263 0.0
C2101 C 0.20465 0.97188 0.30228 0.0
C2102 C 0.27383 0.91386 0.30542 0.0
C2103 C 0.23553 0.93448 0.29836 0.0
C2104 C 0.28776 0.89403 0.30192 0.0
C2105 C 0.27999 0.87594 0.28645 0.0
C2106 C 0.25176 0.91499 0.29397 0.0
C2107 C 0.25841 0.87849 0.27444 0.0
C2108 C 0.21059 0.92996 0.30038 0.0
C2109 C 0.22976 0.97567 0.30082 0.0
N2110 N 0.24485 0.89748 0.27875 0.0
N2111 N 0.24446 0.95708 0.29896 0.0
H2112 H 0.5425 0.35753 0.42014 0.0
H2113 H 0.52036 0.44967 0.52641 0.0
H2114 H 0.49676 0.34172 0.48112 0.0
H2115 H 0.53772 0.4732 0.45539 0.0
H2116 H 0.51792 0.40903 0.51177 0.0
H2117 H 0.547 0.39861 0.4343 0.0
C2118 C 0.53358 0.36258 0.43662 0.0
C2119 C 0.51924 0.34595 0.44944 0.0
C2120 C 0.52236 0.42303 0.49935 0.0
C2121 C 0.52452 0.39312 0.46588 0.0
C2122 C 0.52391 0.44635 0.50772 0.0
C2123 C 0.52932 0.46515 0.49218 0.0
C2124 C 0.52664 0.41804 0.4752 0.0
C2125 C 0.5335 0.45942 0.46809 0.0
C2126 C 0.53605 0.38611 0.4446 0.0
C2127 C 0.50799 0.35377 0.47058 0.0
N2128 N 0.53221 0.43645 0.46038 0.0
N2129 N 0.51099 0.37659 0.47815 0.0
H2130 H 0.46631 0.76059 0.20362 0.0
H2131 H 0.35183 0.83527 0.22147 0.0
H2132 H 0.45145 0.8158 0.15461 0.0
H2133 H 0.38911 0.80807 0.28097 0.0
H2134 H 0.38723 0.82832 0.19606 0.0
H2135 H 0.43658 0.77643 0.23153 0.0
C2136 C 0.45671 0.77601 0.1987 0.0
C2137 C 0.46113 0.78679 0.1767 0.0
C2138 C 0.38786 0.82438 0.21478 0.0
C2139 C 0.42721 0.80498 0.20855 0.0
C2140 C 0.36773 0.82838 0.22928 0.0
C2141 C 0.36763 0.82216 0.25329 0.0
C2142 C 0.40769 0.8135 0.22428 0.0
C2143 C 0.38857 0.81321 0.26256 0.0
C2144 C 0.43997 0.78518 0.21474 0.0
C2145 C 0.44845 0.80691 0.17136 0.0
N2146 N 0.40764 0.80864 0.24789 0.0
N2147 N 0.43177 0.81521 0.18708 0.0
H2148 H 0.0613 0.70788 0.97674 0.0
H2149 H 0.99725 0.57865 0.96681 0.0
H2150 H 0.00193 0.69224 0.9306 0.0
H2151 H 0.06099 0.59427 0.00706 0.0
H2152 H 0.99745 0.62001 0.95438 0.0
H2153 H 0.05993 0.66677 0.98931 0.0
C2154 C 0.04781 0.69589 0.96934 0.0
C2155 C 0.03168 0.7038 0.95254 0.0
C2156 C 0.01142 0.61439 0.9659 0.0
C2157 C 0.0301 0.65609 0.96692 0.0
C2158 C 0.01134 0.59069 0.97301 0.0
C2159 C 0.02916 0.58271 0.98804 0.0
C2160 C 0.02937 0.63049 0.97392 0.0
C2161 C 0.04688 0.59938 0.99545 0.0
C2162 C 0.04711 0.67227 0.97649 0.0
C2163 C 0.01472 0.68713 0.94361 0.0
N2164 N 0.04648 0.62229 0.98841 0.0
N2165 N 0.0144 0.66419 0.95086 0.0
H2166 H 0.07519 0.30639 0.70073 0.0
H2167 H 0.1943 0.244 0.72307 0.0
H2168 H 0.1207 0.28583 0.64157 0.0
H2169 H 0.17852 0.30568 0.76483 0.0
H2170 H 0.16296 0.2542 0.69532 0.0
H2171 H 0.10929 0.30273 0.72718 0.0
C2172 C 0.09249 0.30148 0.69332 0.0
C2173 C 0.09531 0.29636 0.66906 0.0
C2174 C 0.16638 0.26546 0.71058 0.0
C2175 C 0.1337 0.29147 0.69905 0.0
C2176 C 0.1839 0.2595 0.72645 0.0
C2177 C 0.18848 0.27394 0.74619 0.0
C2178 C 0.15311 0.28565 0.71491 0.0
C2179 C 0.17511 0.29414 0.74979 0.0
C2180 C 0.11182 0.29944 0.70834 0.0
C2181 C 0.11796 0.29003 0.6602 0.0
N2182 N 0.15766 0.29932 0.7344 0.0
N2183 N 0.13626 0.28725 0.67533 0.0
H2184 H 0.48663 0.70453 0.08866 0.0
H2185 H 0.5634 0.63402 0.9927 0.0
H2186 H 0.5481 0.7354 0.05058 0.0
H2187 H 0.49671 0.60787 0.02543 0.0
H2188 H 0.55613 0.67283 0.01025 0.0
H2189 H 0.48781 0.6704 0.06215 0.0
C2190 C 0.50023 0.70423 0.07459 0.0
C2191 C 0.51748 0.72268 0.07205 0.0
C2192 C 0.54294 0.6586 0.01319 0.0
C2193 C 0.51912 0.68358 0.04174 0.0
C2194 C 0.54714 0.63644 0.00325 0.0
C2195 C 0.53087 0.61744 0.0077 0.0
C2196 C 0.52242 0.66168 0.0278 0.0
C2197 C 0.50984 0.62176 0.02123 0.0
C2198 C 0.50089 0.68475 0.05941 0.0
C2199 C 0.53456 0.72145 0.05333 0.0
N2200 N 0.50643 0.64329 0.03099 0.0
N2201 N 0.53516 0.70207 0.03908 0.0
H2202 H 0.11635 0.77441 0.90223 0.0
H2203 H 0.19873 0.75205 0.78735 0.0
H2204 H 0.08527 0.76778 0.83298 0.0
H2205 H 0.22392 0.79216 0.8478 0.0
H2206 H 0.15774 0.75155 0.80484 0.0
H2207 H 0.15651 0.77454 0.88372 0.0
C2208 C 0.11791 0.7728 0.8831 0.0
C2209 C 0.09724 0.77106 0.86917 0.0
C2210 C 0.17226 0.76047 0.81421 0.0
C2211 C 0.14355 0.77103 0.84783 0.0
C2212 C 0.19569 0.76067 0.80433 0.0
C2213 C 0.21485 0.77218 0.81612 0.0
C2214 C 0.16803 0.77137 0.83632 0.0
C2215 C 0.20975 0.78314 0.83803 0.0
C2216 C 0.14092 0.77302 0.87256 0.0
C2217 C 0.10062 0.76921 0.84443 0.0
N2218 N 0.18694 0.78228 0.84748 0.0
N2219 N 0.12332 0.76906 0.83455 0.0
H2220 H 0.03401 0.34292 0.54852 0.0
H2221 H 0.99102 0.46874 0.5779 0.0
H2222 H 0.99887 0.35885 0.61556 0.0
H2223 H 0.99917 0.44289 0.50596 0.0
H2224 H 0.98967 0.42817 0.59187 0.0
H2225 H 0.01836 0.37865 0.53208 0.0
C2226 C 0.02282 0.3539 0.55971 0.0
C2227 C 0.01804 0.34824 0.5835 0.0
C2228 C 0.99115 0.43136 0.57298 0.0
C2229 C 1.00021 0.38918 0.56492 0.0
C2230 C 0.99194 0.45451 0.56499 0.0
C2231 C 0.99579 0.45917 0.54079 0.0
C2232 C 0.99466 0.4129 0.55667 0.0
C2233 C 0.9966 0.4401 0.52482 0.0
C2234 C 0.01371 0.37418 0.55028 0.0
C2235 C 0.00313 0.36279 0.59716 0.0
N2236 N 0.99661 0.41778 0.5331 0.0
N2237 N 0.99511 0.38292 0.58779 0.0
H2238 H 0.46839 0.24495 0.3392 0.0
H2239 H 0.3546 0.31551 0.29897 0.0
H2240 H 0.44569 0.30728 0.37652 0.0
H2241 H 0.35477 0.23967 0.29538 0.0
H2242 H 0.39301 0.31564 0.31977 0.0
H2243 H 0.43176 0.24558 0.31552 0.0
C2244 C 0.45588 0.25892 0.34225 0.0
C2245 C 0.46018 0.27607 0.35997 0.0
C2246 C 0.38472 0.299 0.31422 0.0
C2247 C 0.41837 0.27708 0.33259 0.0
C2248 C 0.36289 0.2989 0.30218 0.0
C2249 C 0.35139 0.27754 0.29533 0.0
C2250 C 0.39557 0.27762 0.31899 0.0
C2251 C 0.36293 0.25655 0.30031 0.0
C2252 C 0.43491 0.25918 0.32881 0.0
C2253 C 0.44313 0.29364 0.36317 0.0
N2254 N 0.3844 0.25712 0.31166 0.0
N2255 N 0.42314 0.2938 0.34954 0.0
H2256 H 0.43787 0.59657 0.31228 0.0
H2257 H 0.50859 0.5259 0.40714 0.0
H2258 H 0.47726 0.53466 0.29341 0.0
H2259 H 0.49869 0.60063 0.41373 0.0
H2260 H 0.49259 0.52679 0.36694 0.0
H2261 H 0.45624 0.59689 0.35132 0.0
C2262 C 0.45054 0.58319 0.3163 0.0
C2263 C 0.4561 0.56557 0.29969 0.0
C2264 C 0.49403 0.54298 0.37721 0.0
C2265 C 0.47666 0.56557 0.34421 0.0
C2266 C 0.50292 0.54242 0.4001 0.0
C2267 C 0.50494 0.56323 0.41355 0.0
C2268 C 0.48674 0.56442 0.36805 0.0
C2269 C 0.4976 0.58429 0.40372 0.0
C2270 C 0.46099 0.58339 0.33851 0.0
C2271 C 0.4726 0.54862 0.30572 0.0
N2272 N 0.48864 0.58434 0.38157 0.0
N2273 N 0.48212 0.54887 0.32766 0.0
H2274 H 0.32916 0.67819 0.10804 0.0
H2275 H 0.2737 0.79649 0.15874 0.0
H2276 H 0.30748 0.73495 0.0638 0.0
H2277 H 0.3068 0.74568 0.20271 0.0
H2278 H 0.28689 0.77444 0.12353 0.0
H2279 H 0.32364 0.70355 0.14289 0.0
C2280 C 0.32372 0.69611 0.10559 0.0
C2281 C 0.3184 0.70432 0.083 0.0
C2282 C 0.29141 0.7682 0.14089 0.0
C2283 C 0.31159 0.73322 0.12277 0.0
C2284 C 0.28365 0.78065 0.16095 0.0
C2285 C 0.28915 0.77288 0.18361 0.0
C2286 C 0.30451 0.7477 0.14357 0.0
C2287 C 0.30241 0.75242 0.18553 0.0
C2288 C 0.32043 0.71054 0.12551 0.0
C2289 C 0.31146 0.72774 0.0809 0.0
N2290 N 0.30952 0.74046 0.16578 0.0
N2291 N 0.30791 0.74124 0.10056 0.0
H2292 H 0.15285 0.48872 0.859 0.0
H2293 H 0.03253 0.47993 0.93862 0.0
H2294 H 0.08124 0.49769 0.83329 0.0
H2295 H 0.10009 0.50508 0.96764 0.0
H2296 H 0.05271 0.47419 0.90038 0.0
H2297 H 0.13564 0.48377 0.8994 0.0
C2298 C 0.13353 0.48937 0.86185 0.0
C2299 C 0.11837 0.49385 0.84299 0.0
C2300 C 0.06316 0.48071 0.91519 0.0
C2301 C 0.09882 0.48778 0.8885 0.0
C2302 C 0.05171 0.48398 0.93704 0.0
C2303 C 0.06458 0.49349 0.9562 0.0
C2304 C 0.08768 0.48695 0.91242 0.0
C2305 C 0.08947 0.49799 0.9532 0.0
C2306 C 0.12381 0.4866 0.88478 0.0
C2307 C 0.09353 0.49455 0.84745 0.0
N2308 N 0.10024 0.49495 0.93152 0.0
N2309 N 0.08452 0.49153 0.86976 0.0
H2310 H 0.24831 0.37723 0.60888 0.0
H2311 H 0.33135 0.31264 0.70006 0.0
H2312 H 0.31386 0.345 0.5853 0.0
H2313 H 0.25438 0.31572 0.71035 0.0
H2314 H 0.32742 0.32862 0.6599 0.0
H2315 H 0.25205 0.35894 0.64777 0.0
C2316 C 0.26344 0.36619 0.61178 0.0
C2317 C 0.28069 0.3626 0.59353 0.0
C2318 C 0.31141 0.32573 0.67096 0.0
C2319 C 0.28545 0.34196 0.63865 0.0
C2320 C 0.31364 0.3167 0.69396 0.0
C2321 C 0.29318 0.31271 0.70878 0.0
C2322 C 0.2886 0.33143 0.66276 0.0
C2323 C 0.2707 0.31834 0.69969 0.0
C2324 C 0.26556 0.35573 0.63407 0.0
C2325 C 0.29996 0.34812 0.59862 0.0
N2326 N 0.26907 0.32755 0.67752 0.0
N2327 N 0.30197 0.33861 0.62068 0.0
H2328 H 0.3855 0.56768 0.15905 0.0
H2329 H 0.49883 0.57277 0.06966 0.0
H2330 H 0.45614 0.59348 0.17938 0.0
H2331 H 0.44256 0.5184 0.06878 0.0
H2332 H 0.47772 0.59195 0.10295 0.0
H2333 H 0.40087 0.56227 0.1184 0.0
C2334 C 0.40403 0.57292 0.15481 0.0
C2335 C 0.41976 0.58056 0.17263 0.0
C2336 C 0.46991 0.57601 0.09516 0.0
C2337 C 0.43725 0.57445 0.12644 0.0
C2338 C 0.48191 0.56505 0.07631 0.0
C2339 C 0.47261 0.54373 0.06692 0.0
C2340 C 0.4483 0.56581 0.1042 0.0
C2341 C 0.45055 0.53455 0.07592 0.0
C2342 C 0.41278 0.56968 0.13169 0.0
C2343 C 0.44358 0.58712 0.16618 0.0
N2344 N 0.43915 0.54561 0.09417 0.0
N2345 N 0.45174 0.58362 0.1436 0.0
H2346 H 0.30969 0.73053 0.96191 0.0
H2347 H 0.28603 0.70261 0.83036 0.0
H2348 H 0.30998 0.65788 0.93896 0.0
H2349 H 0.32878 0.76373 0.85196 0.0
H2350 H 0.29394 0.68431 0.86866 0.0
H2351 H 0.31519 0.74275 0.92076 0.0
C2352 C 0.31115 0.71719 0.94812 0.0
C2353 C 0.30934 0.69326 0.95359 0.0
C2354 C 0.30203 0.70147 0.86463 0.0
C2355 C 0.31514 0.70697 0.90662 0.0
C2356 C 0.29753 0.71188 0.84287 0.0
C2357 C 0.30624 0.73491 0.83836 0.0
C2358 C 0.31504 0.71442 0.88173 0.0
C2359 C 0.32117 0.74618 0.85503 0.0
C2360 C 0.31443 0.72411 0.92471 0.0
C2361 C 0.3114 0.67654 0.93523 0.0
N2362 N 0.32469 0.73602 0.87617 0.0
N2363 N 0.3137 0.68371 0.91232 0.0
H2364 H 0.08356 0.47264 0.73608 0.0
H2365 H 0.07741 0.54652 0.62472 0.0
H2366 H 0.14526 0.479 0.68827 0.0
H2367 H 0.01926 0.4953 0.63511 0.0
H2368 H 0.10116 0.52563 0.65343 0.0
H2369 H 0.05742 0.48166 0.70317 0.0
C2370 C 0.0915 0.47509 0.71851 0.0
C2371 C 0.11662 0.47557 0.71495 0.0
C2372 C 0.08315 0.51903 0.64946 0.0
C2373 C 0.08714 0.48658 0.67791 0.0
C2374 C 0.06957 0.53114 0.63354 0.0
C2375 C 0.04641 0.52269 0.62814 0.0
C2376 C 0.07322 0.49869 0.6603 0.0
C2377 C 0.03702 0.50233 0.63933 0.0
C2378 C 0.07662 0.48031 0.69985 0.0
C2379 C 0.12602 0.47872 0.69185 0.0
N2380 N 0.0504 0.49105 0.65527 0.0
N2381 N 0.11131 0.48492 0.67431 0.0
H2382 H 0.30203 0.3232 0.46235 0.0
H2383 H 0.26756 0.34397 0.32781 0.0
H2384 H 0.25938 0.38177 0.44344 0.0
H2385 H 0.27756 0.27471 0.35573 0.0
H2386 H 0.26845 0.36007 0.36858 0.0
H2387 H 0.29752 0.307 0.42214 0.0
C2388 C 0.29163 0.33264 0.44979 0.0
C2389 C 0.28097 0.35387 0.45648 0.0
C2390 C 0.27026 0.34133 0.36574 0.0
C2391 C 0.27617 0.33556 0.40992 0.0
C2392 C 0.26976 0.33211 0.34245 0.0
C2393 C 0.27233 0.30786 0.33817 0.0
C2394 C 0.27398 0.32634 0.38494 0.0
C2395 C 0.2753 0.29346 0.358 0.0
C2396 C 0.28903 0.32334 0.42679 0.0
C2397 C 0.26775 0.36528 0.43923 0.0
N2398 N 0.27631 0.3029 0.38032 0.0
N2399 N 0.26596 0.35616 0.41675 0.0
H2400 H 0.35476 0.43109 0.48982 0.0
H2401 H 0.44619 0.5163 0.55752 0.0
H2402 H 0.3324 0.46978 0.55226 0.0
H2403 H 0.45181 0.50676 0.48169 0.0
H2404 H 0.40603 0.49688 0.55731 0.0
H2405 H 0.39191 0.45577 0.48763 0.0
C2406 C 0.35757 0.44485 0.50301 0.0
C2407 C 0.34031 0.44832 0.52125 0.0
C2408 C 0.4159 0.4993 0.54067 0.0
C2409 C 0.3832 0.4764 0.51908 0.0
C2410 C 0.43884 0.5104 0.54077 0.0
C2411 C 0.45239 0.51336 0.51956 0.0
C2412 C 0.40657 0.49038 0.51932 0.0
C2413 C 0.44195 0.50513 0.49842 0.0
C2414 C 0.37877 0.45899 0.50168 0.0
C2415 C 0.34505 0.4665 0.53781 0.0
N2416 N 0.41988 0.49371 0.49887 0.0
N2417 N 0.36614 0.47959 0.53653 0.0
H2418 H 0.86335 0.13423 0.49523 0.0
H2419 H 0.91421 0.00541 0.50468 0.0
H2420 H 0.83916 0.0817 0.54602 0.0
H2421 H 0.95756 0.06524 0.47998 0.0
H2422 H 0.87893 0.02981 0.50559 0.0
H2423 H 0.891 0.10577 0.47748 0.0
C2424 C 0.86374 0.11667 0.50249 0.0
C2425 C 0.84939 0.11036 0.52239 0.0
C2426 C 0.89607 0.03737 0.49936 0.0
C2427 C 0.88011 0.07781 0.50181 0.0
C2428 C 0.91619 0.02343 0.49863 0.0
C2429 C 0.93897 0.03356 0.49298 0.0
C2430 C 0.89883 0.06144 0.49424 0.0
C2431 C 0.94039 0.05692 0.48502 0.0
C2432 C 0.87935 0.10049 0.4923 0.0
C2433 C 0.85031 0.08739 0.531 0.0
N2434 N 0.92063 0.0703 0.48639 0.0
N2435 N 0.86549 0.07194 0.5207 0.0
H2436 H 0.7059 0.06612 0.31137 0.0
H2437 H 0.72147 0.17738 0.22771 0.0
H2438 H 0.65261 0.08296 0.26036 0.0
H2439 H 0.76042 0.16964 0.29223 0.0
H2440 H 0.69686 0.14191 0.23783 0.0
H2441 H 0.72633 0.10408 0.30419 0.0
C2442 C 0.69831 0.07806 0.29893 0.0
C2443 C 0.67769 0.07151 0.28634 0.0
C2444 C 0.71075 0.14809 0.24977 0.0
C2445 C 0.7012 0.11462 0.27757 0.0
C2446 C 0.72493 0.16805 0.24385 0.0
C2447 C 0.74289 0.17626 0.25919 0.0
C2448 C 0.71494 0.1363 0.27098 0.0
C2449 C 0.74657 0.1639 0.28008 0.0
C2450 C 0.70998 0.09967 0.29477 0.0
C2451 C 0.66847 0.08753 0.27046 0.0
N2452 N 0.73275 0.14449 0.28533 0.0
N2453 N 0.68056 0.10831 0.2662 0.0
H2454 H 0.70795 0.92562 0.99882 0.0
H2455 H 0.60872 0.01081 0.05472 0.0
H2456 H 0.71862 0.96905 0.06115 0.0
H2457 H 0.60131 0.97837 0.98563 0.0
H2458 H 0.64825 0.99396 0.05775 0.0
H2459 H 0.66843 0.94299 0.99402 0.0
C2460 C 0.70205 0.93881 0.01147 0.0
C2461 C 0.71676 0.94584 0.03044 0.0
C2462 C 0.63809 0.99053 0.04186 0.0
C2463 C 0.67137 0.96571 0.02511 0.0
C2464 C 0.61539 1.00016 0.0401 0.0
C2465 C 0.60152 0.99611 0.01984 0.0
C2466 C 0.6472 0.97644 0.02332 0.0
C2467 C 0.61133 0.98208 0.00155 0.0
C2468 C 0.67948 0.94874 0.00869 0.0
C2469 C 0.70805 0.96304 0.04624 0.0
N2470 N 0.63348 0.97269 0.00376 0.0
N2471 N 0.68602 0.97224 0.04327 0.0
H2472 H 0.33887 0.50634 0.2703 0.0
H2473 H 0.33465 0.38097 0.21045 0.0
H2474 H 0.39901 0.48132 0.22845 0.0
H2475 H 0.30327 0.39093 0.28026 0.0
H2476 H 0.35467 0.42002 0.21337 0.0
H2477 H 0.32155 0.46596 0.2713 0.0
C2478 C 0.34843 0.49235 0.26142 0.0
C2479 C 0.37033 0.49709 0.24921 0.0
C2480 C 0.34352 0.41358 0.2281 0.0
C2481 C 0.35057 0.45137 0.25002 0.0
C2482 C 0.33205 0.39149 0.22637 0.0
C2483 C 0.31738 0.383 0.24513 0.0
C2484 C 0.33975 0.42741 0.2485 0.0
C2485 C 0.31459 0.39702 0.26554 0.0
C2486 C 0.33864 0.4694 0.26212 0.0
C2487 C 0.38211 0.47837 0.2381 0.0
N2488 N 0.32546 0.41881 0.2666 0.0
N2489 N 0.3719 0.45634 0.23849 0.0
H2490 H 0.21636 0.65293 0.0398 0.0
H2491 H 0.14371 0.53426 0.01477 0.0
H2492 H 0.2537 0.5889 0.02489 0.0
H2493 H 0.12344 0.5786 0.07382 0.0
H2494 H 0.18142 0.55799 0.00981 0.0
H2495 H 0.1784 0.62953 0.04395 0.0
C2496 C 0.21646 0.634 0.03723 0.0
C2497 C 0.23799 0.62268 0.03213 0.0
C2498 C 0.16867 0.56241 0.02385 0.0
C2499 C 0.19515 0.59628 0.03636 0.0
C2500 C 0.14736 0.54901 0.02663 0.0
C2501 C 0.13092 0.55456 0.04482 0.0
C2502 C 0.17297 0.58179 0.03895 0.0
C2503 C 0.13604 0.57379 0.05982 0.0
C2504 C 0.19498 0.62076 0.03971 0.0
C2505 C 0.23739 0.59815 0.02903 0.0
N2506 N 0.15664 0.58698 0.05642 0.0
N2507 N 0.2162 0.58571 0.031 0.0
H2508 H 0.74538 0.96095 0.29636 0.0
H2509 H 0.72424 0.82536 0.30741 0.0
H2510 H 0.67735 0.92913 0.31986 0.0
H2511 H 0.79526 0.85883 0.3041 0.0
H2512 H 0.70744 0.86322 0.31801 0.0
H2513 H 0.76506 0.92457 0.30537 0.0
C2514 C 0.73467 0.9464 0.30379 0.0
C2515 C 0.70965 0.94772 0.30678 0.0
C2516 C 0.72676 0.86222 0.31541 0.0
C2517 C 0.73189 0.90605 0.3168 0.0
C2518 C 0.73632 0.84064 0.3092 0.0
C2519 C 0.76106 0.83916 0.30428 0.0
C2520 C 0.74203 0.88243 0.31625 0.0
C2521 C 0.77599 0.85933 0.30732 0.0
C2522 C 0.7459 0.92566 0.30904 0.0
C2523 C 0.69665 0.92861 0.3169 0.0
N2524 N 0.76616 0.88028 0.31266 0.0
N2525 N 0.70785 0.90829 0.32105 0.0
H2526 H 0.86759 0.13803 0.79592 0.0
H2527 H 0.78704 0.24588 0.76564 0.0
H2528 H 0.80426 0.13181 0.75305 0.0
H2529 H 0.84003 0.2494 0.82047 0.0
H2530 H 0.7924 0.20364 0.76194 0.0
H2531 H 0.85704 0.17825 0.80664 0.0
C2532 C 0.85132 0.14502 0.78898 0.0
C2533 C 0.83691 0.13166 0.77336 0.0
C2534 C 0.80271 0.21357 0.77495 0.0
C2535 C 0.8249 0.17765 0.78537 0.0
C2536 C 0.79972 0.23772 0.77702 0.0
C2537 C 0.81326 0.25119 0.79326 0.0
C2538 C 0.8196 0.20279 0.78901 0.0
C2539 C 0.8293 0.23966 0.80766 0.0
C2540 C 0.84531 0.16797 0.79512 0.0
C2541 C 0.81598 0.14154 0.76501 0.0
N2542 N 0.83223 0.21611 0.80502 0.0
N2543 N 0.81076 0.16404 0.7709 0.0
loop_
_geom_bond_atom_site_label_1
_geom_bond_atom_site_label_2
_geom_bond_distance
_geom_bond_site_symmetry_2
_ccdc_geom_bond_type
O0 Cd1 2.223 . S
O0 C8 1.315 . S
Cd1 O0 2.223 . S
Cd1 O4 2.297 1_455 S
Cd1 O5 2.439 1_455 S
Cd1 O11 2.240 . S
Cd2 O3 2.240 . S
Cd2 O10 2.223 . S
Cd2 O12 2.297 . S
Cd2 O13 2.439 . S
O3 Cd2 2.240 . S
O3 C8 1.279 . S
O4 Cd1 2.297 1_655 S
O4 C6 1.247 . S
O5 Cd1 2.439 1_655 S
O5 C6 1.208 . S
C6 O4 1.247 . S
C6 O5 1.208 . S
C7 O12 1.247 . S
C7 O13 1.208 . S
C8 O0 1.315 . S
C8 O3 1.279 . S
C9 O10 1.315 . S
C9 O11 1.279 . S
O10 Cd2 2.223 . S
O10 C9 1.315 . S
O11 Cd1 2.240 . S
O11 C9 1.279 . S
O12 Cd2 2.297 . S
O12 C7 1.247 . S
O13 Cd2 2.439 . S
O13 C7 1.208 . S
O14 Cd15 2.223 . S
O14 C22 1.315 . S
Cd15 O14 2.223 . S
Cd15 O18 2.297 . S
Cd15 O19 2.439 . S
Cd15 O25 2.240 . S
Cd16 O17 2.240 . S
Cd16 O24 2.223 . S
Cd16 O26 2.297 . S
Cd16 O27 2.439 . S
O17 Cd16 2.240 . S
O17 C22 1.279 . S
O18 Cd15 2.297 . S
O18 C20 1.247 . S
O19 Cd15 2.439 . S
O19 C20 1.208 . S
C20 O18 1.247 . S
C20 O19 1.208 . S
C21 O26 1.247 1_655 S
C21 O27 1.208 1_655 S
C22 O14 1.315 . S
C22 O17 1.279 . S
C23 O24 1.315 . S
C23 O25 1.279 . S
O24 Cd16 2.223 . S
O24 C23 1.315 . S
O25 Cd15 2.240 . S
O25 C23 1.279 . S
O26 Cd16 2.297 . S
O26 C21 1.247 1_455 S
O27 Cd16 2.439 . S
O27 C21 1.208 1_455 S
O28 Cd29 2.223 . S
O28 C36 1.315 . S
Cd29 O28 2.223 . S
Cd29 O32 2.297 . S
Cd29 O33 2.439 . S
Cd29 O39 2.240 . S
Cd30 O31 2.240 . S
Cd30 O38 2.223 . S
Cd30 O40 2.297 . S
Cd30 O41 2.439 . S
O31 Cd30 2.240 . S
O31 C36 1.279 . S
O32 Cd29 2.297 . S
O32 C34 1.247 . S
O33 Cd29 2.439 . S
O33 C34 1.208 . S
C34 O32 1.247 . S
C34 O33 1.208 . S
C35 O40 1.247 . S
C35 O41 1.208 . S
C36 O28 1.315 . S
C36 O31 1.279 . S
C37 O38 1.315 . S
C37 O39 1.279 . S
O38 Cd30 2.223 . S
O38 C37 1.315 . S
O39 Cd29 2.240 . S
O39 C37 1.279 . S
O40 Cd30 2.297 . S
O40 C35 1.247 . S
O41 Cd30 2.439 . S
O41 C35 1.208 . S
O42 Cd43 2.223 . S
O42 C50 1.315 . S
Cd43 O42 2.223 . S
Cd43 O46 2.297 . S
Cd43 O47 2.439 . S
Cd43 O53 2.240 . S
Cd44 O45 2.240 . S
Cd44 O52 2.223 . S
Cd44 O54 2.297 . S
Cd44 O55 2.439 . S
O45 Cd44 2.240 . S
O45 C50 1.279 . S
O46 Cd43 2.297 . S
O46 C48 1.247 . S
O47 Cd43 2.439 . S
O47 C48 1.208 . S
C48 O46 1.247 . S
C48 O47 1.208 . S
C49 O54 1.247 . S
C49 O55 1.208 . S
C50 O42 1.315 . S
C50 O45 1.279 . S
C51 O52 1.315 . S
C51 O53 1.279 . S
O52 Cd44 2.223 . S
O52 C51 1.315 . S
O53 Cd43 2.240 . S
O53 C51 1.279 . S
O54 Cd44 2.297 . S
O54 C49 1.247 . S
O55 Cd44 2.439 . S
O55 C49 1.208 . S
O56 Cd57 2.223 1_545 S
O56 C64 1.315 . S
Cd57 O56 2.223 1_565 S
Cd57 O60 2.297 . S
Cd57 O61 2.439 . S
Cd57 O67 2.240 1_565 S
Cd58 O59 2.240 1_545 S
Cd58 O66 2.223 . S
Cd58 O68 2.297 . S
Cd58 O69 2.439 1_545 S
O59 Cd58 2.240 1_565 S
O59 C64 1.279 1_565 S
O60 Cd57 2.297 . S
O60 C62 1.247 . S
O61 Cd57 2.439 . S
O61 C62 1.208 . S
C62 O60 1.247 . S
C62 O61 1.208 . S
C63 O68 1.247 . S
C63 O69 1.208 1_545 S
C64 O56 1.315 . S
C64 O59 1.279 1_545 S
C65 O66 1.315 . S
C65 O67 1.279 . S
O66 Cd58 2.223 . S
O66 C65 1.315 . S
O67 Cd57 2.240 1_545 S
O67 C65 1.279 . S
O68 Cd58 2.297 . S
O68 C63 1.247 . S
O69 Cd58 2.439 1_565 S
O69 C63 1.208 1_565 S
O70 Cd71 2.223 . S
O70 C78 1.315 . S
Cd71 O70 2.223 . S
Cd71 O74 2.297 . S
Cd71 O75 2.439 . S
Cd71 O81 2.240 . S
Cd72 O73 2.240 . S
Cd72 O80 2.223 . S
Cd72 O82 2.297 . S
Cd72 O83 2.439 . S
O73 Cd72 2.240 . S
O73 C78 1.279 . S
O74 Cd71 2.297 . S
O74 C76 1.247 . S
O75 Cd71 2.439 . S
O75 C76 1.208 . S
C76 O74 1.247 . S
C76 O75 1.208 . S
C77 O82 1.247 . S
C77 O83 1.208 . S
C78 O70 1.315 . S
C78 O73 1.279 . S
C79 O80 1.315 . S
C79 O81 1.279 . S
O80 Cd72 2.223 . S
O80 C79 1.315 . S
O81 Cd71 2.240 . S
O81 C79 1.279 . S
O82 Cd72 2.297 . S
O82 C77 1.247 . S
O83 Cd72 2.439 . S
O83 C77 1.208 . S
O84 Cd85 2.223 . S
O84 C92 1.315 . S
Cd85 O84 2.223 . S
Cd85 O88 2.297 . S
Cd85 O89 2.439 . S
Cd85 O95 2.240 . S
Cd86 O87 2.240 . S
Cd86 O94 2.223 . S
Cd86 O96 2.297 . S
Cd86 O97 2.439 . S
O87 Cd86 2.240 . S
O87 C92 1.279 . S
O88 Cd85 2.297 . S
O88 C90 1.247 . S
O89 Cd85 2.439 . S
O89 C90 1.208 . S
C90 O88 1.247 . S
C90 O89 1.208 . S
C91 O96 1.247 . S
C91 O97 1.208 . S
C92 O84 1.315 . S
C92 O87 1.279 . S
C93 O94 1.315 . S
C93 O95 1.279 . S
O94 Cd86 2.223 . S
O94 C93 1.315 . S
O95 Cd85 2.240 . S
O95 C93 1.279 . S
O96 Cd86 2.297 . S
O96 C91 1.247 . S
O97 Cd86 2.439 . S
O97 C91 1.208 . S
O98 Cd99 2.223 . S
O98 C106 1.315 . S
Cd99 O98 2.223 . S
Cd99 O102 2.297 . S
Cd99 O103 2.439 . S
Cd99 O109 2.240 . S
Cd100 O101 2.240 . S
Cd100 O108 2.223 . S
Cd100 O110 2.297 1_554 S
Cd100 O111 2.439 1_554 S
O101 Cd100 2.240 . S
O101 C106 1.279 . S
O102 Cd99 2.297 . S
O102 C104 1.247 . S
O103 Cd99 2.439 . S
O103 C104 1.208 . S
C104 O102 1.247 . S
C104 O103 1.208 . S
C105 O110 1.247 . S
C105 O111 1.208 . S
C106 O98 1.315 . S
C106 O101 1.279 . S
C107 O108 1.315 . S
C107 O109 1.279 . S
O108 Cd100 2.223 . S
O108 C107 1.315 . S
O109 Cd99 2.240 . S
O109 C107 1.279 . S
O110 Cd100 2.297 1_556 S
O110 C105 1.247 . S
O111 Cd100 2.439 1_556 S
O111 C105 1.208 . S
O112 Cd113 2.223 . S
O112 C120 1.315 . S
Cd113 O112 2.223 . S
Cd113 O116 2.297 . S
Cd113 O117 2.439 . S
Cd113 O123 2.240 . S
Cd114 O115 2.240 . S
Cd114 O122 2.223 . S
Cd114 O124 2.297 . S
Cd114 O125 2.439 . S
O115 Cd114 2.240 . S
O115 C120 1.279 . S
O116 Cd113 2.297 . S
O116 C118 1.247 . S
O117 Cd113 2.439 . S
O117 C118 1.208 . S
C118 O116 1.247 . S
C118 O117 1.208 . S
C119 O124 1.247 1_556 S
C119 O125 1.208 1_556 S
C120 O112 1.315 . S
C120 O115 1.279 . S
C121 O122 1.315 . S
C121 O123 1.279 . S
O122 Cd114 2.223 . S
O122 C121 1.315 . S
O123 Cd113 2.240 . S
O123 C121 1.279 . S
O124 Cd114 2.297 . S
O124 C119 1.247 1_554 S
O125 Cd114 2.439 . S
O125 C119 1.208 1_554 S
O126 Cd127 2.223 . S
O126 C134 1.315 . S
Cd127 O126 2.223 . S
Cd127 O130 2.297 . S
Cd127 O131 2.439 . S
Cd127 O137 2.240 . S
Cd128 O129 2.240 . S
Cd128 O136 2.223 . S
Cd128 O138 2.297 . S
Cd128 O139 2.439 . S
O129 Cd128 2.240 . S
O129 C134 1.279 . S
O130 Cd127 2.297 . S
O130 C132 1.247 . S
O131 Cd127 2.439 . S
O131 C132 1.208 . S
C132 O130 1.247 . S
C132 O131 1.208 . S
C133 O138 1.247 . S
C133 O139 1.208 . S
C134 O126 1.315 . S
C134 O129 1.279 . S
C135 O136 1.315 . S
C135 O137 1.279 . S
O136 Cd128 2.223 . S
O136 C135 1.315 . S
O137 Cd127 2.240 . S
O137 C135 1.279 . S
O138 Cd128 2.297 . S
O138 C133 1.247 . S
O139 Cd128 2.439 . S
O139 C133 1.208 . S
O140 Cd141 2.223 . S
O140 C148 1.315 . S
Cd141 O140 2.223 . S
Cd141 O144 2.297 . S
Cd141 O145 2.439 . S
Cd141 O151 2.240 . S
Cd142 O143 2.240 . S
Cd142 O150 2.223 . S
Cd142 O152 2.297 . S
Cd142 O153 2.439 . S
O143 Cd142 2.240 . S
O143 C148 1.279 . S
O144 Cd141 2.297 . S
O144 C146 1.247 . S
O145 Cd141 2.439 . S
O145 C146 1.208 . S
C146 O144 1.247 . S
C146 O145 1.208 . S
C147 O152 1.247 . S
C147 O153 1.208 . S
C148 O140 1.315 . S
C148 O143 1.279 . S
C149 O150 1.315 . S
C149 O151 1.279 . S
O150 Cd142 2.223 . S
O150 C149 1.315 . S
O151 Cd141 2.240 . S
O151 C149 1.279 . S
O152 Cd142 2.297 . S
O152 C147 1.247 . S
O153 Cd142 2.439 . S
O153 C147 1.208 . S
O154 Cd155 2.223 . S
O154 C162 1.315 . S
Cd155 O154 2.223 . S
Cd155 O158 2.297 . S
Cd155 O159 2.439 . S
Cd155 O165 2.240 . S
Cd156 O157 2.240 . S
Cd156 O164 2.223 . S
Cd156 O166 2.297 . S
Cd156 O167 2.439 . S
O157 Cd156 2.240 . S
O157 C162 1.279 . S
O158 Cd155 2.297 . S
O158 C160 1.247 . S
O159 Cd155 2.439 . S
O159 C160 1.208 . S
C160 O158 1.247 . S
C160 O159 1.208 . S
C161 O166 1.247 . S
C161 O167 1.208 . S
C162 O154 1.315 . S
C162 O157 1.279 . S
C163 O164 1.315 . S
C163 O165 1.279 . S
O164 Cd156 2.223 . S
O164 C163 1.315 . S
O165 Cd155 2.240 . S
O165 C163 1.279 . S
O166 Cd156 2.297 . S
O166 C161 1.247 . S
O167 Cd156 2.439 . S
O167 C161 1.208 . S
O168 Cd169 2.223 . S
O168 C176 1.315 . S
Cd169 O168 2.223 . S
Cd169 O172 2.297 . S
Cd169 O173 2.439 . S
Cd169 O179 2.240 . S
Cd170 O171 2.240 . S
Cd170 O178 2.223 . S
Cd170 O180 2.297 1_455 S
Cd170 O181 2.439 1_455 S
O171 Cd170 2.240 . S
O171 C176 1.279 . S
O172 Cd169 2.297 . S
O172 C174 1.247 . S
O173 Cd169 2.439 . S
O173 C174 1.208 . S
C174 O172 1.247 . S
C174 O173 1.208 . S
C175 O180 1.247 . S
C175 O181 1.208 . S
C176 O168 1.315 . S
C176 O171 1.279 . S
C177 O178 1.315 . S
C177 O179 1.279 . S
O178 Cd170 2.223 . S
O178 C177 1.315 . S
O179 Cd169 2.240 . S
O179 C177 1.279 . S
O180 Cd170 2.297 1_655 S
O180 C175 1.247 . S
O181 Cd170 2.439 1_655 S
O181 C175 1.208 . S
O182 Cd183 2.223 1_455 S
O182 C190 1.315 . S
Cd183 O182 2.223 1_655 S
Cd183 O186 2.297 . S
Cd183 O187 2.439 . S
Cd183 O193 2.240 1_655 S
Cd184 O185 2.240 1_455 S
Cd184 O192 2.223 . S
Cd184 O194 2.297 . S
Cd184 O195 2.439 1_455 S
O185 Cd184 2.240 1_655 S
O185 C190 1.279 1_655 S
O186 Cd183 2.297 . S
O186 C188 1.247 . S
O187 Cd183 2.439 . S
O187 C188 1.208 . S
C188 O186 1.247 . S
C188 O187 1.208 . S
C189 O194 1.247 . S
C189 O195 1.208 1_455 S
C190 O182 1.315 . S
C190 O185 1.279 1_455 S
C191 O192 1.315 . S
C191 O193 1.279 . S
O192 Cd184 2.223 . S
O192 C191 1.315 . S
O193 Cd183 2.240 1_455 S
O193 C191 1.279 . S
O194 Cd184 2.297 . S
O194 C189 1.247 . S
O195 Cd184 2.439 1_655 S
O195 C189 1.208 1_655 S
O196 Cd197 2.223 . S
O196 C204 1.315 . S
Cd197 O196 2.223 . S
Cd197 O200 2.297 . S
Cd197 O201 2.439 . S
Cd197 O207 2.240 . S
Cd198 O199 2.240 . S
Cd198 O206 2.223 . S
Cd198 O208 2.297 . S
Cd198 O209 2.439 . S
O199 Cd198 2.240 . S
O199 C204 1.279 . S
O200 Cd197 2.297 . S
O200 C202 1.247 . S
O201 Cd197 2.439 . S
O201 C202 1.208 . S
C202 O200 1.247 . S
C202 O201 1.208 . S
C203 O208 1.247 . S
C203 O209 1.208 . S
C204 O196 1.315 . S
C204 O199 1.279 . S
C205 O206 1.315 . S
C205 O207 1.279 . S
O206 Cd198 2.223 . S
O206 C205 1.315 . S
O207 Cd197 2.240 . S
O207 C205 1.279 . S
O208 Cd198 2.297 . S
O208 C203 1.247 . S
O209 Cd198 2.439 . S
O209 C203 1.208 . S
O210 Cd211 2.223 . S
O210 C218 1.315 . S
Cd211 O210 2.223 . S
Cd211 O214 2.297 . S
Cd211 O215 2.439 . S
Cd211 O221 2.240 . S
Cd212 O213 2.240 . S
Cd212 O220 2.223 . S
Cd212 O222 2.297 . S
Cd212 O223 2.439 . S
O213 Cd212 2.240 . S
O213 C218 1.279 . S
O214 Cd211 2.297 . S
O214 C216 1.247 . S
O215 Cd211 2.439 . S
O215 C216 1.208 . S
C216 O214 1.247 . S
C216 O215 1.208 . S
C217 O222 1.247 . S
C217 O223 1.208 . S
C218 O210 1.315 . S
C218 O213 1.279 . S
C219 O220 1.315 . S
C219 O221 1.279 . S
O220 Cd212 2.223 . S
O220 C219 1.315 . S
O221 Cd211 2.240 . S
O221 C219 1.279 . S
O222 Cd212 2.297 . S
O222 C217 1.247 . S
O223 Cd212 2.439 . S
O223 C217 1.208 . S
O224 Cd225 2.223 . S
O224 C232 1.315 . S
Cd225 O224 2.223 . S
Cd225 O228 2.297 . S
Cd225 O229 2.439 . S
Cd225 O235 2.240 . S
Cd226 O227 2.240 . S
Cd226 O234 2.223 . S
Cd226 O236 2.297 . S
Cd226 O237 2.439 . S
O227 Cd226 2.240 . S
O227 C232 1.279 . S
O228 Cd225 2.297 . S
O228 C230 1.247 . S
O229 Cd225 2.439 . S
O229 C230 1.208 . S
C230 O228 1.247 . S
C230 O229 1.208 . S
C231 O236 1.247 . S
C231 O237 1.208 . S
C232 O224 1.315 . S
C232 O227 1.279 . S
C233 O234 1.315 . S
C233 O235 1.279 . S
O234 Cd226 2.223 . S
O234 C233 1.315 . S
O235 Cd225 2.240 . S
O235 C233 1.279 . S
O236 Cd226 2.297 . S
O236 C231 1.247 . S
O237 Cd226 2.439 . S
O237 C231 1.208 . S
O238 Cd239 2.223 . S
O238 C246 1.315 . S
Cd239 O238 2.223 . S
Cd239 O242 2.297 . S
Cd239 O243 2.439 . S
Cd239 O249 2.240 . S
Cd240 O241 2.240 . S
Cd240 O248 2.223 . S
Cd240 O250 2.297 . S
Cd240 O251 2.439 . S
O241 Cd240 2.240 . S
O241 C246 1.279 . S
O242 Cd239 2.297 . S
O242 C244 1.247 . S
O243 Cd239 2.439 . S
O243 C244 1.208 . S
C244 O242 1.247 . S
C244 O243 1.208 . S
C245 O250 1.247 . S
C245 O251 1.208 . S
C246 O238 1.315 . S
C246 O241 1.279 . S
C247 O248 1.315 . S
C247 O249 1.279 . S
O248 Cd240 2.223 . S
O248 C247 1.315 . S
O249 Cd239 2.240 . S
O249 C247 1.279 . S
O250 Cd240 2.297 . S
O250 C245 1.247 . S
O251 Cd240 2.439 . S
O251 C245 1.208 . S
O252 Cd253 2.223 1_545 S
O252 C260 1.315 . S
Cd253 O252 2.223 1_565 S
Cd253 O256 2.297 . S
Cd253 O257 2.439 . S
Cd253 O263 2.240 1_565 S
Cd254 O255 2.240 1_545 S
Cd254 O262 2.223 . S
Cd254 O264 2.297 . S
Cd254 O265 2.451 . S
O255 Cd254 2.240 1_565 S
O255 C260 1.279 1_565 S
O256 Cd253 2.297 . S
O256 C258 1.247 . S
O257 Cd253 2.439 . S
O257 C258 1.208 . S
C258 O256 1.247 . S
C258 O257 1.208 . S
C259 O264 1.247 . S
C259 O265 1.228 . S
C260 O252 1.315 . S
C260 O255 1.279 1_545 S
C261 O262 1.315 . S
C261 O263 1.279 . S
O262 Cd254 2.223 . S
O262 C261 1.315 . S
O263 Cd253 2.240 1_545 S
O263 C261 1.279 . S
O264 Cd254 2.297 . S
O264 C259 1.247 . S
O265 Cd254 2.451 . S
O265 C259 1.228 . S
O266 Cd267 2.223 . S
O266 C274 1.315 . S
Cd267 O266 2.223 . S
Cd267 O270 2.297 . S
Cd267 O271 2.439 . S
Cd267 O277 2.240 . S
Cd268 O269 2.240 . S
Cd268 O276 2.223 . S
Cd268 O278 2.297 1_554 S
Cd268 O279 2.439 1_554 S
O269 Cd268 2.240 . S
O269 C274 1.279 . S
O270 Cd267 2.297 . S
O270 C272 1.247 . S
O271 Cd267 2.439 . S
O271 C272 1.208 . S
C272 O270 1.247 . S
C272 O271 1.208 . S
C273 O278 1.247 . S
C273 O279 1.208 . S
C274 O266 1.315 . S
C274 O269 1.279 . S
C275 O276 1.315 . S
C275 O277 1.279 . S
O276 Cd268 2.223 . S
O276 C275 1.315 . S
O277 Cd267 2.240 . S
O277 C275 1.279 . S
O278 Cd268 2.297 1_556 S
O278 C273 1.247 . S
O279 Cd268 2.439 1_556 S
O279 C273 1.208 . S
O280 Cd281 2.223 . S
O280 C288 1.315 . S
Cd281 O280 2.223 . S
Cd281 O284 2.297 . S
Cd281 O285 2.439 1_554 S
Cd281 O291 2.240 1_554 S
Cd282 O283 2.240 1_556 S
Cd282 O290 2.223 1_556 S
Cd282 O292 2.297 . S
Cd282 O293 2.439 . S
O283 Cd282 2.240 1_554 S
O283 C288 1.279 . S
O284 Cd281 2.297 . S
O284 C286 1.247 . S
O285 Cd281 2.439 1_556 S
O285 C286 1.208 1_556 S
C286 O284 1.247 . S
C286 O285 1.208 1_554 S
C287 O292 1.247 . S
C287 O293 1.208 . S
C288 O280 1.315 . S
C288 O283 1.279 . S
C289 O290 1.315 . S
C289 O291 1.279 1_554 S
O290 Cd282 2.223 1_554 S
O290 C289 1.315 . S
O291 Cd281 2.240 1_556 S
O291 C289 1.279 1_556 S
O292 Cd282 2.297 . S
O292 C287 1.247 . S
O293 Cd282 2.439 . S
O293 C287 1.208 . S
O294 Cd295 2.223 . S
O294 C302 1.315 . S
Cd295 O294 2.223 . S
Cd295 O298 2.297 . S
Cd295 O299 2.439 . S
Cd295 O305 2.240 . S
Cd296 O297 2.240 . S
Cd296 O304 2.223 . S
Cd296 O306 2.297 . S
Cd296 O307 2.439 . S
O297 Cd296 2.240 . S
O297 C302 1.279 . S
O298 Cd295 2.297 . S
O298 C300 1.247 . S
O299 Cd295 2.439 . S
O299 C300 1.208 . S
C300 O298 1.247 . S
C300 O299 1.208 . S
C301 O306 1.247 . S
C301 O307 1.208 . S
C302 O294 1.315 . S
C302 O297 1.279 . S
C303 O304 1.315 . S
C303 O305 1.279 . S
O304 Cd296 2.223 . S
O304 C303 1.315 . S
O305 Cd295 2.240 . S
O305 C303 1.279 . S
O306 Cd296 2.297 . S
O306 C301 1.247 . S
O307 Cd296 2.439 . S
O307 C301 1.208 . S
O308 Cd309 2.223 . S
O308 C316 1.315 . S
Cd309 O308 2.223 . S
Cd309 O312 2.297 . S
Cd309 O313 2.439 . S
Cd309 O319 2.240 . S
Cd310 O311 2.240 . S
Cd310 O318 2.223 . S
Cd310 O320 2.297 . S
Cd310 O321 2.439 . S
O311 Cd310 2.240 . S
O311 C316 1.279 . S
O312 Cd309 2.297 . S
O312 C314 1.247 . S
O313 Cd309 2.439 . S
O313 C314 1.208 . S
C314 O312 1.247 . S
C314 O313 1.208 . S
C315 O320 1.247 . S
C315 O321 1.208 . S
C316 O308 1.315 . S
C316 O311 1.279 . S
C317 O318 1.315 . S
C317 O319 1.279 . S
O318 Cd310 2.223 . S
O318 C317 1.315 . S
O319 Cd309 2.240 . S
O319 C317 1.279 . S
O320 Cd310 2.297 . S
O320 C315 1.247 . S
O321 Cd310 2.439 . S
O321 C315 1.208 . S
O322 Cd323 2.223 . S
O322 C330 1.315 . S
Cd323 O322 2.223 . S
Cd323 O326 2.297 . S
Cd323 O327 2.439 . S
Cd323 O333 2.240 . S
Cd324 O325 2.240 . S
Cd324 O332 2.223 . S
Cd324 O334 2.297 . S
Cd324 O335 2.439 . S
O325 Cd324 2.240 . S
O325 C330 1.279 . S
O326 Cd323 2.297 . S
O326 C328 1.247 . S
O327 Cd323 2.439 . S
O327 C328 1.208 . S
C328 O326 1.247 . S
C328 O327 1.208 . S
C329 O334 1.247 . S
C329 O335 1.208 . S
C330 O322 1.315 . S
C330 O325 1.279 . S
C331 O332 1.315 . S
C331 O333 1.279 . S
O332 Cd324 2.223 . S
O332 C331 1.315 . S
O333 Cd323 2.240 . S
O333 C331 1.279 . S
O334 Cd324 2.297 . S
O334 C329 1.247 . S
O335 Cd324 2.439 . S
O335 C329 1.208 . S
Co336 N341 2.057 1_554 S
Co336 O353 2.021 1_544 S
Co336 O356 2.062 . S
Co336 O360 2.117 . S
Co336 O361 2.020 . S
C337 O357 1.259 . S
C337 O360 1.258 . S
Co338 N347 2.074 . S
Co338 O354 2.117 1_545 S
Co338 O355 2.020 . S
Co338 O357 2.021 . S
Co338 O362 2.062 . S
C339 N341 1.316 . S
C339 N342 1.347 . S
C339 H344 0.931 . S
C340 N341 1.375 . S
C340 C343 1.350 . S
C340 H345 0.930 . S
N341 Co336 2.057 1_556 S
N341 C339 1.316 . S
N341 C340 1.375 . S
N342 C339 1.347 . S
N342 C343 1.373 . S
C343 C340 1.350 . S
C343 N342 1.373 . S
C343 H364 0.931 1_455 S
H344 C339 0.931 . S
H345 C340 0.930 . S
C346 O353 1.259 1_554 S
C346 O354 1.258 . S
N347 Co338 2.074 . S
N347 C348 1.331 . S
N347 C349 1.341 1_545 S
C348 N347 1.331 . S
C348 N350 1.347 1_545 S
C348 H359 0.931 . S
C349 N347 1.341 1_565 S
C349 C351 1.350 . S
C349 H358 0.930 . S
N350 C348 1.347 1_565 S
N350 C351 1.373 . S
C351 C349 1.350 . S
C351 N350 1.373 . S
C351 H365 0.931 . S
C352 O355 1.256 1_655 S
C352 O356 1.255 1_655 S
O353 Co336 2.021 1_566 S
O353 C346 1.259 1_556 S
O354 Co338 2.117 1_565 S
O354 C346 1.258 . S
O355 Co338 2.020 . S
O355 C352 1.256 1_455 S
O356 Co336 2.062 . S
O356 C352 1.255 1_455 S
O357 C337 1.259 . S
O357 Co338 2.021 . S
H358 C349 0.930 . S
H359 C348 0.931 . S
O360 Co336 2.117 . S
O360 C337 1.258 . S
O361 Co336 2.020 . S
O361 C363 1.256 . S
O362 Co338 2.062 . S
O362 C363 1.255 . S
C363 O361 1.256 . S
C363 O362 1.255 . S
H364 C343 0.931 1_655 S
H365 C351 0.931 . S
Co366 N371 2.057 . S
Co366 O383 2.021 . S
Co366 O386 2.062 . S
Co366 O390 2.117 . S
Co366 O391 2.020 . S
C367 O387 1.259 . S
C367 O390 1.258 . S
Co368 N377 2.057 . S
Co368 O384 2.117 . S
Co368 O385 2.020 . S
Co368 O387 2.021 . S
Co368 O392 2.062 . S
C369 N371 1.316 . S
C369 N372 1.347 . S
C369 H374 0.931 . S
C370 N371 1.375 . S
C370 C373 1.350 . S
C370 H375 0.930 . S
N371 Co366 2.057 . S
N371 C369 1.316 . S
N371 C370 1.375 . S
N372 C369 1.347 . S
N372 C373 1.373 . S
C373 C370 1.350 . S
C373 N372 1.373 . S
C373 H394 0.931 . S
H374 C369 0.931 . S
H375 C370 0.930 . S
C376 O383 1.259 . S
C376 O384 1.258 . S
N377 Co368 2.057 . S
N377 C378 1.316 . S
N377 C379 1.375 . S
C378 N377 1.316 . S
C378 N380 1.347 . S
C378 H389 0.931 . S
C379 N377 1.375 . S
C379 C381 1.350 . S
C379 H388 0.930 . S
N380 C378 1.347 . S
N380 C381 1.373 . S
C381 C379 1.350 . S
C381 N380 1.373 . S
C381 H395 0.931 . S
C382 O385 1.256 . S
C382 O386 1.255 . S
O383 Co366 2.021 . S
O383 C376 1.259 . S
O384 Co368 2.117 . S
O384 C376 1.258 . S
O385 Co368 2.020 . S
O385 C382 1.256 . S
O386 Co366 2.062 . S
O386 C382 1.255 . S
O387 C367 1.259 . S
O387 Co368 2.021 . S
H388 C379 0.930 . S
H389 C378 0.931 . S
O390 Co366 2.117 . S
O390 C367 1.258 . S
O391 Co366 2.020 . S
O391 C393 1.256 . S
O392 Co368 2.062 . S
O392 C393 1.255 . S
C393 O391 1.256 . S
C393 O392 1.255 . S
H394 C373 0.931 . S
H395 C381 0.931 . S
Co396 N401 2.057 . S
Co396 O413 2.021 1_545 S
Co396 O416 2.062 . S
Co396 O420 2.117 . S
Co396 O421 2.020 . S
C397 O417 1.259 . S
C397 O420 1.258 . S
Co398 N407 2.057 . S
Co398 O414 2.117 . S
Co398 O415 2.020 . S
Co398 O417 2.021 . S
Co398 O422 2.062 . S
C399 N401 1.316 . S
C399 N402 1.347 . S
C399 H404 0.931 1_545 S
C400 N401 1.375 . S
C400 C403 1.350 . S
C400 H405 0.930 . S
N401 Co396 2.057 . S
N401 C399 1.316 . S
N401 C400 1.375 . S
N402 C399 1.347 . S
N402 C403 1.373 . S
C403 C400 1.350 . S
C403 N402 1.373 . S
C403 H424 0.931 . S
H404 C399 0.931 1_565 S
H405 C400 0.930 . S
C406 O413 1.259 . S
C406 O414 1.258 1_565 S
N407 Co398 2.057 . S
N407 C408 1.316 . S
N407 C409 1.375 . S
C408 N407 1.316 . S
C408 N410 1.347 . S
C408 H419 0.931 . S
C409 N407 1.375 . S
C409 C411 1.350 . S
C409 H418 0.930 . S
N410 C408 1.347 . S
N410 C411 1.373 . S
C411 C409 1.350 . S
C411 N410 1.373 . S
C411 H425 0.931 . S
C412 O415 1.256 . S
C412 O416 1.255 . S
O413 Co396 2.021 1_565 S
O413 C406 1.259 . S
O414 Co398 2.117 . S
O414 C406 1.258 1_545 S
O415 Co398 2.020 . S
O415 C412 1.256 . S
O416 Co396 2.062 . S
O416 C412 1.255 . S
O417 C397 1.259 . S
O417 Co398 2.021 . S
H418 C409 0.930 . S
H419 C408 0.931 . S
O420 Co396 2.117 . S
O420 C397 1.258 . S
O421 Co396 2.020 . S
O421 C423 1.256 . S
O422 Co398 2.062 . S
O422 C423 1.255 . S
C423 O421 1.256 . S
C423 O422 1.255 . S
H424 C403 0.931 . S
H425 C411 0.931 . S
Co426 N431 2.057 . S
Co426 O443 2.021 . S
Co426 O446 2.062 . S
Co426 O450 2.117 . S
Co426 O451 2.020 . S
C427 O447 1.259 . S
C427 O450 1.258 . S
Co428 N437 2.057 . S
Co428 O444 2.117 . S
Co428 O445 2.020 . S
Co428 O447 2.021 . S
Co428 O452 2.062 . S
C429 N431 1.316 . S
C429 N432 1.347 . S
C429 H434 0.931 . S
C430 N431 1.375 . S
C430 C433 1.350 . S
C430 H435 0.930 . S
N431 Co426 2.057 . S
N431 C429 1.316 . S
N431 C430 1.375 . S
N432 C429 1.347 . S
N432 C433 1.373 . S
C433 C430 1.350 . S
C433 N432 1.373 . S
C433 H454 0.931 . S
H434 C429 0.931 . S
H435 C430 0.930 . S
C436 O443 1.259 . S
C436 O444 1.258 . S
N437 Co428 2.057 . S
N437 C438 1.316 . S
N437 C439 1.375 . S
C438 N437 1.316 . S
C438 N440 1.347 . S
C438 H449 0.931 . S
C439 N437 1.375 . S
C439 C441 1.350 . S
C439 H448 0.930 . S
N440 C438 1.347 . S
N440 C441 1.373 . S
C441 C439 1.350 . S
C441 N440 1.373 . S
C441 H455 0.931 . S
C442 O445 1.256 . S
C442 O446 1.255 . S
O443 Co426 2.021 . S
O443 C436 1.259 . S
O444 Co428 2.117 . S
O444 C436 1.258 . S
O445 Co428 2.020 . S
O445 C442 1.256 . S
O446 Co426 2.062 . S
O446 C442 1.255 . S
O447 C427 1.259 . S
O447 Co428 2.021 . S
H448 C439 0.930 . S
H449 C438 0.931 . S
O450 Co426 2.117 . S
O450 C427 1.258 . S
O451 Co426 2.020 . S
O451 C453 1.256 . S
O452 Co428 2.062 . S
O452 C453 1.255 . S
C453 O451 1.256 . S
C453 O452 1.255 . S
H454 C433 0.931 . S
H455 C441 0.931 . S
Co456 N461 2.057 1_545 S
Co456 O473 2.021 . S
Co456 O476 2.062 1_545 S
Co456 O480 2.117 . S
Co456 O481 2.020 1_455 S
C457 O477 1.259 . S
C457 O480 1.258 . S
Co458 N467 2.057 . S
Co458 O474 2.117 . S
Co458 O475 2.020 . S
Co458 O477 2.021 . S
Co458 O482 2.031 1_455 S
C459 N461 1.316 . S
C459 N462 1.347 . S
C459 H464 0.931 . S
C460 N461 1.375 1_655 S
C460 C463 1.350 . S
C460 H465 0.930 . S
N461 Co456 2.057 1_565 S
N461 C459 1.316 . S
N461 C460 1.375 1_455 S
N462 C459 1.347 . S
N462 C463 1.373 1_455 S
C463 C460 1.350 . S
C463 N462 1.373 1_655 S
C463 H484 0.931 . S
H464 C459 0.931 . S
H465 C460 0.930 . S
C466 O473 1.259 . S
C466 O474 1.258 . S
N467 Co458 2.057 . S
N467 C468 1.316 . S
N467 C469 1.375 . S
C468 N467 1.316 . S
C468 N470 1.347 . S
C468 H479 0.931 . S
C469 N467 1.375 . S
C469 C471 1.350 . S
C469 H478 0.930 . S
N470 C468 1.347 . S
N470 C471 1.373 . S
C471 C469 1.350 . S
C471 N470 1.373 . S
C471 H485 0.931 . S
C472 O475 1.256 . S
C472 O476 1.255 1_545 S
O473 Co456 2.021 . S
O473 C466 1.259 . S
O474 Co458 2.117 . S
O474 C466 1.258 . S
O475 Co458 2.020 . S
O475 C472 1.256 . S
O476 Co456 2.062 1_565 S
O476 C472 1.255 1_565 S
O477 C457 1.259 . S
O477 Co458 2.021 . S
H478 C469 0.930 . S
H479 C468 0.931 . S
O480 Co456 2.117 . S
O480 C457 1.258 . S
O481 Co456 2.020 1_655 S
O481 C483 1.256 . S
O482 Co458 2.031 1_655 S
O482 C483 1.276 . S
C483 O481 1.256 . S
C483 O482 1.276 . S
H484 C463 0.931 . S
H485 C471 0.931 . S
Co486 N491 2.057 . S
Co486 O503 2.021 . S
Co486 O506 2.062 . S
Co486 O510 2.117 . S
Co486 O511 2.020 . S
C487 O507 1.259 . S
C487 O510 1.258 . S
Co488 N497 2.057 . S
Co488 O504 2.117 . S
Co488 O505 2.020 . S
Co488 O507 2.021 . S
Co488 O512 2.062 . S
C489 N491 1.316 . S
C489 N492 1.347 . S
C489 H494 0.931 . S
C490 N491 1.375 . S
C490 C493 1.350 . S
C490 H495 0.930 . S
N491 Co486 2.057 . S
N491 C489 1.316 . S
N491 C490 1.375 . S
N492 C489 1.347 . S
N492 C493 1.373 . S
C493 C490 1.350 . S
C493 N492 1.373 . S
C493 H514 0.931 . S
H494 C489 0.931 . S
H495 C490 0.930 . S
C496 O503 1.259 . S
C496 O504 1.258 . S
N497 Co488 2.057 . S
N497 C498 1.316 . S
N497 C499 1.375 . S
C498 N497 1.316 . S
C498 N500 1.347 . S
C498 H509 0.931 . S
C499 N497 1.375 . S
C499 C501 1.350 . S
C499 H508 0.930 . S
N500 C498 1.347 . S
N500 C501 1.373 . S
C501 C499 1.350 . S
C501 N500 1.373 . S
C501 H515 0.931 . S
C502 O505 1.256 . S
C502 O506 1.255 . S
O503 Co486 2.021 . S
O503 C496 1.259 . S
O504 Co488 2.117 . S
O504 C496 1.258 . S
O505 Co488 2.020 . S
O505 C502 1.256 . S
O506 Co486 2.062 . S
O506 C502 1.255 . S
O507 C487 1.259 . S
O507 Co488 2.021 . S
H508 C499 0.930 . S
H509 C498 0.931 . S
O510 Co486 2.117 . S
O510 C487 1.258 . S
O511 Co486 2.020 . S
O511 C513 1.256 . S
O512 Co488 2.062 . S
O512 C513 1.255 . S
C513 O511 1.256 . S
C513 O512 1.255 . S
H514 C493 0.931 . S
H515 C501 0.931 . S
Co516 N521 2.057 1_554 S
Co516 O533 2.021 . S
Co516 O536 2.062 . S
Co516 O540 2.117 . S
Co516 O541 2.020 1_545 S
C517 O537 1.259 . S
C517 O540 1.258 . S
Co518 N527 2.057 . S
Co518 O534 2.117 . S
Co518 O535 2.020 . S
Co518 O537 2.021 . S
Co518 O542 2.062 . S
C519 N521 1.316 . S
C519 N522 1.347 . S
C519 H524 0.931 . S
C520 N521 1.375 . S
C520 C523 1.350 . S
C520 H525 0.930 . S
N521 Co516 2.057 1_556 S
N521 C519 1.316 . S
N521 C520 1.375 . S
N522 C519 1.347 . S
N522 C523 1.373 . S
C523 C520 1.350 . S
C523 N522 1.373 . S
C523 H544 0.945 . S
H524 C519 0.931 . S
H525 C520 0.930 . S
C526 O533 1.259 . S
C526 O534 1.258 . S
N527 Co518 2.057 . S
N527 C528 1.316 . S
N527 C529 1.375 . S
C528 N527 1.316 . S
C528 N530 1.347 . S
C528 H539 0.931 . S
C529 N527 1.375 . S
C529 C531 1.350 . S
C529 H538 0.930 . S
N530 C528 1.347 . S
N530 C531 1.373 . S
C531 C529 1.350 . S
C531 N530 1.373 . S
C531 H545 0.931 . S
C532 O535 1.256 . S
C532 O536 1.255 . S
O533 Co516 2.021 . S
O533 C526 1.259 . S
O534 Co518 2.117 . S
O534 C526 1.258 . S
O535 Co518 2.020 . S
O535 C532 1.256 . S
O536 Co516 2.062 . S
O536 C532 1.255 . S
O537 C517 1.259 . S
O537 Co518 2.021 . S
H538 C529 0.930 . S
H539 C528 0.931 . S
O540 Co516 2.117 . S
O540 C517 1.258 . S
O541 Co516 2.020 1_565 S
O541 C543 1.256 . S
O542 Co518 2.062 . S
O542 C543 1.255 1_545 S
C543 O541 1.256 . S
C543 O542 1.255 1_565 S
H544 C523 0.945 . S
H545 C531 0.931 . S
Co546 N551 2.057 . S
Co546 O563 2.021 . S
Co546 O566 2.062 . S
Co546 O570 2.117 . S
Co546 O571 2.020 . S
C547 O567 1.259 . S
C547 O570 1.258 . S
Co548 N557 2.057 . S
Co548 O564 2.117 . S
Co548 O565 2.020 . S
Co548 O567 2.021 . S
Co548 O572 2.062 . S
C549 N551 1.316 . S
C549 N552 1.347 . S
C549 H554 0.931 . S
C550 N551 1.375 . S
C550 C553 1.350 . S
C550 H555 0.930 . S
N551 Co546 2.057 . S
N551 C549 1.316 . S
N551 C550 1.375 . S
N552 C549 1.347 . S
N552 C553 1.373 . S
C553 C550 1.350 . S
C553 N552 1.373 . S
C553 H574 0.931 . S
H554 C549 0.931 . S
H555 C550 0.930 . S
C556 O563 1.259 . S
C556 O564 1.258 . S
N557 Co548 2.057 . S
N557 C558 1.316 . S
N557 C559 1.375 . S
C558 N557 1.316 . S
C558 N560 1.347 . S
C558 H569 0.931 . S
C559 N557 1.375 . S
C559 C561 1.350 . S
C559 H568 0.930 . S
N560 C558 1.347 . S
N560 C561 1.373 . S
C561 C559 1.350 . S
C561 N560 1.373 . S
C561 H575 0.931 . S
C562 O565 1.256 . S
C562 O566 1.255 . S
O563 Co546 2.021 . S
O563 C556 1.259 . S
O564 Co548 2.117 . S
O564 C556 1.258 . S
O565 Co548 2.020 . S
O565 C562 1.256 . S
O566 Co546 2.062 . S
O566 C562 1.255 . S
O567 C547 1.259 . S
O567 Co548 2.021 . S
H568 C559 0.930 . S
H569 C558 0.931 . S
O570 Co546 2.117 . S
O570 C547 1.258 . S
O571 Co546 2.020 . S
O571 C573 1.256 . S
O572 Co548 2.062 . S
O572 C573 1.255 . S
C573 O571 1.256 . S
C573 O572 1.255 . S
H574 C553 0.931 . S
H575 C561 0.931 . S
Co576 N581 2.057 . S
Co576 O593 2.020 . S
Co576 O596 2.062 . S
Co576 O600 2.117 . S
Co576 O601 2.020 . S
C577 O597 1.259 . S
C577 O600 1.258 . S
Co578 N587 2.057 . S
Co578 O594 2.117 . S
Co578 O595 2.020 . S
Co578 O597 2.021 . S
Co578 O602 2.062 . S
C579 N581 1.316 . S
C579 N582 1.347 . S
C579 H584 0.931 1_554 S
C580 N581 1.375 . S
C580 C583 1.350 . S
C580 H585 0.930 . S
N581 Co576 2.057 . S
N581 C579 1.316 . S
N581 C580 1.375 . S
N582 C579 1.347 . S
N582 C583 1.373 . S
C583 C580 1.350 . S
C583 N582 1.373 . S
C583 H604 0.931 . S
H584 C579 0.931 1_556 S
H585 C580 0.930 . S
C586 O593 1.259 1_556 S
C586 O594 1.255 1_556 S
N587 Co578 2.057 . S
N587 C588 1.316 . S
N587 C589 1.375 . S
C588 N587 1.316 . S
C588 N590 1.347 . S
C588 H599 0.931 . S
C589 N587 1.375 . S
C589 C591 1.350 . S
C589 H598 0.930 . S
N590 C588 1.347 . S
N590 C591 1.373 . S
C591 C589 1.350 . S
C591 N590 1.373 . S
C591 H605 0.931 . S
C592 O595 1.256 . S
C592 O596 1.255 . S
O593 Co576 2.020 . S
O593 C586 1.259 1_554 S
O594 Co578 2.117 . S
O594 C586 1.255 1_554 S
O595 Co578 2.020 . S
O595 C592 1.256 . S
O596 Co576 2.062 . S
O596 C592 1.255 . S
O597 C577 1.259 . S
O597 Co578 2.021 . S
H598 C589 0.930 . S
H599 C588 0.931 . S
O600 Co576 2.117 . S
O600 C577 1.258 . S
O601 Co576 2.020 . S
O601 C603 1.256 . S
O602 Co578 2.062 . S
O602 C603 1.255 . S
C603 O601 1.256 . S
C603 O602 1.255 . S
H604 C583 0.931 . S
H605 C591 0.931 . S
Co606 N611 2.057 . S
Co606 O623 2.021 . S
Co606 O626 2.062 . S
Co606 O630 2.117 . S
Co606 O631 2.020 . S
C607 O627 1.259 . S
C607 O630 1.258 . S
Co608 N617 2.057 . S
Co608 O624 2.117 . S
Co608 O625 2.020 . S
Co608 O627 2.021 . S
Co608 O632 2.062 . S
C609 N611 1.316 . S
C609 N612 1.347 . S
C609 H614 0.931 . S
C610 N611 1.375 . S
C610 C613 1.350 . S
C610 H615 0.930 . S
N611 Co606 2.057 . S
N611 C609 1.316 . S
N611 C610 1.375 . S
N612 C609 1.347 . S
N612 C613 1.373 . S
C613 C610 1.350 . S
C613 N612 1.373 . S
C613 H634 0.931 . S
H614 C609 0.931 . S
H615 C610 0.930 . S
C616 O623 1.259 . S
C616 O624 1.258 . S
N617 Co608 2.057 . S
N617 C618 1.316 . S
N617 C619 1.375 . S
C618 N617 1.316 . S
C618 N620 1.347 . S
C618 H629 0.931 . S
C619 N617 1.375 . S
C619 C621 1.350 . S
C619 H628 0.930 . S
N620 C618 1.347 . S
N620 C621 1.373 . S
C621 C619 1.350 . S
C621 N620 1.373 . S
C621 H635 0.931 . S
C622 O625 1.256 . S
C622 O626 1.255 . S
O623 Co606 2.021 . S
O623 C616 1.259 . S
O624 Co608 2.117 . S
O624 C616 1.258 . S
O625 Co608 2.020 . S
O625 C622 1.256 . S
O626 Co606 2.062 . S
O626 C622 1.255 . S
O627 C607 1.259 . S
O627 Co608 2.021 . S
H628 C619 0.930 . S
H629 C618 0.931 . S
O630 Co606 2.117 . S
O630 C607 1.258 . S
O631 Co606 2.020 . S
O631 C633 1.256 . S
O632 Co608 2.062 . S
O632 C633 1.255 . S
C633 O631 1.256 . S
C633 O632 1.255 . S
H634 C613 0.931 . S
H635 C621 0.931 . S
Co636 N641 2.057 . S
Co636 O653 2.021 1_455 S
Co636 O656 2.062 . S
Co636 O660 2.117 . S
Co636 O661 2.020 . S
C637 O657 1.259 . S
C637 O660 1.258 . S
Co638 N647 2.057 . S
Co638 O654 2.117 . S
Co638 O655 2.020 . S
Co638 O657 2.021 . S
Co638 O662 2.062 . S
C639 N641 1.316 . S
C639 N642 1.347 . S
C639 H644 0.931 1_455 S
C640 N641 1.375 . S
C640 C643 1.350 . S
C640 H645 0.930 . S
N641 Co636 2.057 . S
N641 C639 1.316 . S
N641 C640 1.375 . S
N642 C639 1.347 . S
N642 C643 1.373 . S
C643 C640 1.350 . S
C643 N642 1.373 . S
C643 H664 0.931 . S
H644 C639 0.931 1_655 S
H645 C640 0.930 . S
C646 O653 1.259 . S
C646 O654 1.258 1_655 S
N647 Co638 2.057 . S
N647 C648 1.316 . S
N647 C649 1.375 . S
C648 N647 1.316 . S
C648 N650 1.347 . S
C648 H659 0.931 . S
C649 N647 1.375 . S
C649 C651 1.350 . S
C649 H658 0.930 . S
N650 C648 1.347 . S
N650 C651 1.373 . S
C651 C649 1.350 . S
C651 N650 1.373 . S
C651 H665 0.931 . S
C652 O655 1.256 . S
C652 O656 1.255 . S
O653 Co636 2.021 1_655 S
O653 C646 1.259 . S
O654 Co638 2.117 . S
O654 C646 1.258 1_455 S
O655 Co638 2.020 . S
O655 C652 1.256 . S
O656 Co636 2.062 . S
O656 C652 1.255 . S
O657 C637 1.259 . S
O657 Co638 2.021 . S
H658 C649 0.930 . S
H659 C648 0.931 . S
O660 Co636 2.117 . S
O660 C637 1.258 . S
O661 Co636 2.020 . S
O661 C663 1.256 . S
O662 Co638 2.062 . S
O662 C663 1.255 . S
C663 O661 1.256 . S
C663 O662 1.255 . S
H664 C643 0.931 . S
H665 C651 0.931 . S
Co666 N671 2.057 . S
Co666 O683 2.021 . S
Co666 O686 2.062 . S
Co666 O690 2.117 . S
Co666 O691 2.020 . S
C667 O687 1.259 . S
C667 O690 1.258 . S
Co668 N677 2.057 . S
Co668 O684 2.117 . S
Co668 O685 2.020 . S
Co668 O687 2.021 . S
Co668 O692 2.062 . S
C669 N671 1.316 . S
C669 N672 1.347 . S
C669 H674 0.931 . S
C670 N671 1.375 . S
C670 C673 1.350 . S
C670 H675 0.930 . S
N671 Co666 2.057 . S
N671 C669 1.316 . S
N671 C670 1.375 . S
N672 C669 1.347 . S
N672 C673 1.373 . S
C673 C670 1.350 . S
C673 N672 1.373 . S
C673 H694 0.931 . S
H674 C669 0.931 . S
H675 C670 0.930 . S
C676 O683 1.259 . S
C676 O684 1.258 . S
N677 Co668 2.057 . S
N677 C678 1.316 . S
N677 C679 1.375 . S
C678 N677 1.316 . S
C678 N680 1.347 . S
C678 H689 0.931 . S
C679 N677 1.375 . S
C679 C681 1.350 . S
C679 H688 0.930 . S
N680 C678 1.347 . S
N680 C681 1.373 . S
C681 C679 1.350 . S
C681 N680 1.373 . S
C681 H695 0.931 . S
C682 O685 1.256 . S
C682 O686 1.255 . S
O683 Co666 2.021 . S
O683 C676 1.259 . S
O684 Co668 2.117 . S
O684 C676 1.258 . S
O685 Co668 2.020 . S
O685 C682 1.256 . S
O686 Co666 2.062 . S
O686 C682 1.255 . S
O687 C667 1.259 . S
O687 Co668 2.021 . S
H688 C679 0.930 . S
H689 C678 0.931 . S
O690 Co666 2.117 . S
O690 C667 1.258 . S
O691 Co666 2.020 . S
O691 C693 1.256 . S
O692 Co668 2.062 . S
O692 C693 1.255 . S
C693 O691 1.256 . S
C693 O692 1.255 . S
H694 C673 0.931 . S
H695 C681 0.931 . S
Co696 N701 2.057 . S
Co696 O713 2.021 . S
Co696 O716 2.062 . S
Co696 O720 2.117 . S
Co696 O721 2.020 . S
C697 O717 1.259 . S
C697 O720 1.258 . S
Co698 N707 2.057 . S
Co698 O714 2.117 . S
Co698 O715 2.020 . S
Co698 O717 2.021 . S
Co698 O722 2.062 . S
C699 N701 1.316 . S
C699 N702 1.347 . S
C699 H704 0.931 . S
C700 N701 1.375 . S
C700 C703 1.350 . S
C700 H705 0.930 . S
N701 Co696 2.057 . S
N701 C699 1.316 . S
N701 C700 1.375 . S
N702 C699 1.347 . S
N702 C703 1.373 . S
C703 C700 1.350 . S
C703 N702 1.373 . S
C703 H724 0.931 . S
H704 C699 0.931 . S
H705 C700 0.930 . S
C706 O713 1.259 . S
C706 O714 1.258 . S
N707 Co698 2.057 . S
N707 C708 1.316 . S
N707 C709 1.375 . S
C708 N707 1.316 . S
C708 N710 1.347 . S
C708 H719 0.931 . S
C709 N707 1.375 . S
C709 C711 1.350 . S
C709 H718 0.930 . S
N710 C708 1.347 . S
N710 C711 1.373 . S
C711 C709 1.350 . S
C711 N710 1.373 . S
C711 H725 0.931 . S
C712 O715 1.256 . S
C712 O716 1.255 . S
O713 Co696 2.021 . S
O713 C706 1.259 . S
O714 Co698 2.117 . S
O714 C706 1.258 . S
O715 Co698 2.020 . S
O715 C712 1.256 . S
O716 Co696 2.062 . S
O716 C712 1.255 . S
O717 C697 1.259 . S
O717 Co698 2.021 . S
H718 C709 0.930 . S
H719 C708 0.931 . S
O720 Co696 2.117 . S
O720 C697 1.258 . S
O721 Co696 2.020 . S
O721 C723 1.256 . S
O722 Co698 2.062 . S
O722 C723 1.255 . S
C723 O721 1.256 . S
C723 O722 1.255 . S
H724 C703 0.931 . S
H725 C711 0.931 . S
Co726 N731 2.057 . S
Co726 O743 2.021 . S
Co726 O746 2.062 . S
Co726 O750 2.117 . S
Co726 O751 2.020 . S
C727 O747 1.259 . S
C727 O750 1.258 . S
Co728 N737 2.057 . S
Co728 O744 2.117 . S
Co728 O745 2.020 . S
Co728 O747 2.021 . S
Co728 O752 2.062 . S
C729 N731 1.316 . S
C729 N732 1.347 . S
C729 H734 0.931 . S
C730 N731 1.375 . S
C730 C733 1.350 . S
C730 H735 0.930 . S
N731 Co726 2.057 . S
N731 C729 1.316 . S
N731 C730 1.375 . S
N732 C729 1.347 . S
N732 C733 1.373 . S
C733 C730 1.350 . S
C733 N732 1.373 . S
C733 H754 0.931 . S
H734 C729 0.931 . S
H735 C730 0.930 . S
C736 O743 1.259 . S
C736 O744 1.258 . S
N737 Co728 2.057 . S
N737 C738 1.316 . S
N737 C739 1.375 . S
C738 N737 1.316 . S
C738 N740 1.347 . S
C738 H749 0.931 . S
C739 N737 1.375 . S
C739 C741 1.350 . S
C739 H748 0.930 . S
N740 C738 1.347 . S
N740 C741 1.373 . S
C741 C739 1.350 . S
C741 N740 1.373 . S
C741 H755 0.931 . S
C742 O745 1.256 . S
C742 O746 1.255 . S
O743 Co726 2.021 . S
O743 C736 1.259 . S
O744 Co728 2.117 . S
O744 C736 1.258 . S
O745 Co728 2.020 . S
O745 C742 1.256 . S
O746 Co726 2.062 . S
O746 C742 1.255 . S
O747 C727 1.259 . S
O747 Co728 2.021 . S
H748 C739 0.930 . S
H749 C738 0.931 . S
O750 Co726 2.117 . S
O750 C727 1.258 . S
O751 Co726 2.020 . S
O751 C753 1.256 . S
O752 Co728 2.062 . S
O752 C753 1.255 . S
C753 O751 1.256 . S
C753 O752 1.255 . S
H754 C733 0.931 . S
H755 C741 0.931 . S
Co756 N761 2.057 . S
Co756 O773 2.021 . S
Co756 O776 2.062 . S
Co756 O780 2.117 . S
Co756 O781 2.020 . S
C757 O777 1.259 . S
C757 O780 1.258 . S
Co758 N767 2.057 . S
Co758 O774 2.117 . S
Co758 O775 2.020 . S
Co758 O777 2.021 . S
Co758 O782 2.062 . S
C759 N761 1.316 . S
C759 N762 1.347 . S
C759 H764 0.931 . S
C760 N761 1.375 . S
C760 C763 1.350 . S
C760 H765 0.930 . S
N761 Co756 2.057 . S
N761 C759 1.316 . S
N761 C760 1.375 . S
N762 C759 1.347 . S
N762 C763 1.373 . S
C763 C760 1.350 . S
C763 N762 1.373 . S
C763 H784 0.931 . S
H764 C759 0.931 . S
H765 C760 0.930 . S
C766 O773 1.259 . S
C766 O774 1.258 . S
N767 Co758 2.057 . S
N767 C768 1.316 . S
N767 C769 1.375 . S
C768 N767 1.316 . S
C768 N770 1.347 . S
C768 H779 0.931 . S
C769 N767 1.375 . S
C769 C771 1.350 . S
C769 H778 0.930 . S
N770 C768 1.347 . S
N770 C771 1.373 . S
C771 C769 1.350 . S
C771 N770 1.373 . S
C771 H785 0.931 . S
C772 O775 1.256 . S
C772 O776 1.255 . S
O773 Co756 2.021 . S
O773 C766 1.259 . S
O774 Co758 2.117 . S
O774 C766 1.258 . S
O775 Co758 2.020 . S
O775 C772 1.256 . S
O776 Co756 2.062 . S
O776 C772 1.255 . S
O777 C757 1.259 . S
O777 Co758 2.021 . S
H778 C769 0.930 . S
H779 C768 0.931 . S
O780 Co756 2.117 . S
O780 C757 1.258 . S
O781 Co756 2.020 . S
O781 C783 1.256 . S
O782 Co758 2.062 . S
O782 C783 1.255 . S
C783 O781 1.256 . S
C783 O782 1.255 . S
H784 C763 0.931 . S
H785 C771 0.931 . S
Co786 N791 2.057 1_455 S
Co786 O803 2.021 . S
Co786 O806 2.062 . S
Co786 O810 2.117 . S
Co786 O811 1.991 1_554 S
C787 O807 1.259 . S
C787 O810 1.258 . S
Co788 N797 2.057 . S
Co788 O804 2.117 . S
Co788 O805 2.020 . S
Co788 O807 2.021 . S
Co788 O812 2.062 . S
C789 N791 1.316 . S
C789 N792 1.347 . S
C789 H794 0.931 . S
C790 N791 1.375 . S
C790 C793 1.350 . S
C790 H795 0.930 . S
N791 Co786 2.057 1_655 S
N791 C789 1.316 . S
N791 C790 1.375 . S
N792 C789 1.347 . S
N792 C793 1.373 . S
C793 C790 1.350 . S
C793 N792 1.373 . S
C793 H814 0.931 . S
H794 C789 0.931 . S
H795 C790 0.930 . S
C796 O803 1.259 . S
C796 O804 1.258 . S
N797 Co788 2.057 . S
N797 C798 1.316 . S
N797 C799 1.375 . S
C798 N797 1.316 . S
C798 N800 1.347 . S
C798 H809 0.931 . S
C799 N797 1.375 . S
C799 C801 1.350 . S
C799 H808 0.930 . S
N800 C798 1.347 . S
N800 C801 1.373 . S
C801 C799 1.350 . S
C801 N800 1.373 . S
C801 H815 0.931 . S
C802 O805 1.256 . S
C802 O806 1.255 . S
O803 Co786 2.021 . S
O803 C796 1.259 . S
O804 Co788 2.117 . S
O804 C796 1.258 . S
O805 Co788 2.020 . S
O805 C802 1.256 . S
O806 Co786 2.062 . S
O806 C802 1.255 . S
O807 C787 1.259 . S
O807 Co788 2.021 . S
H808 C799 0.930 . S
H809 C798 0.931 . S
O810 Co786 2.117 . S
O810 C787 1.258 . S
O811 Co786 1.991 1_556 S
O811 C813 1.262 . S
O812 Co788 2.062 . S
O812 C813 1.255 1_554 S
C813 O811 1.262 . S
C813 O812 1.255 1_556 S
H814 C793 0.931 . S
H815 C801 0.931 . S
H816 C822 0.930 . S
H817 C826 0.930 1_655 S
H818 C831 0.929 . S
H819 C829 0.929 . S
H820 C824 0.922 1_655 S
H821 C830 0.929 . S
C822 H816 0.930 . S
C822 C823 1.367 . S
C822 C830 1.378 . S
C823 C822 1.367 . S
C823 C831 1.433 . S
C824 H820 0.922 1_455 S
C824 C826 1.378 . S
C824 C828 1.350 . S
C825 C828 1.463 . S
C825 C830 1.350 . S
C825 N833 1.427 . S
C826 H817 0.930 1_455 S
C826 C824 1.378 . S
C826 C827 1.367 . S
C827 C826 1.367 . S
C827 C829 1.433 . S
C828 C824 1.350 . S
C828 C825 1.463 . S
C828 N832 1.427 . S
C829 H819 0.929 . S
C829 C827 1.433 . S
C829 N832 1.384 . S
C830 H821 0.929 . S
C830 C822 1.378 . S
C830 C825 1.350 . S
C831 H818 0.929 . S
C831 C823 1.433 . S
C831 N833 1.384 . S
N832 C828 1.427 . S
N832 C829 1.384 . S
N833 C825 1.427 . S
N833 C831 1.384 . S
H834 C840 0.930 . S
H835 C844 0.930 . S
H836 C849 0.929 . S
H837 C847 0.929 . S
H838 C842 0.929 . S
H839 C848 0.929 . S
C840 H834 0.930 . S
C840 C841 1.367 . S
C840 C848 1.378 . S
C841 C840 1.367 . S
C841 C849 1.433 . S
C842 H838 0.929 . S
C842 C844 1.378 . S
C842 C846 1.350 . S
C843 C846 1.463 . S
C843 C848 1.350 . S
C843 N851 1.427 . S
C844 H835 0.930 . S
C844 C842 1.378 . S
C844 C845 1.367 . S
C845 C844 1.367 . S
C845 C847 1.433 . S
C846 C842 1.350 . S
C846 C843 1.463 . S
C846 N850 1.427 . S
C847 H837 0.929 . S
C847 C845 1.433 . S
C847 N850 1.384 . S
C848 H839 0.929 . S
C848 C840 1.378 . S
C848 C843 1.350 . S
C849 H836 0.929 . S
C849 C841 1.433 . S
C849 N851 1.384 . S
N850 C846 1.427 . S
N850 C847 1.384 . S
N851 C843 1.427 . S
N851 C849 1.384 . S
H852 C858 0.930 . S
H853 C862 0.930 . S
H854 C867 0.929 . S
H855 C865 0.929 . S
H856 C860 0.929 . S
H857 C866 0.929 . S
C858 H852 0.930 . S
C858 C859 1.367 . S
C858 C866 1.378 . S
C859 C858 1.367 . S
C859 C867 1.433 . S
C860 H856 0.929 . S
C860 C862 1.378 . S
C860 C864 1.350 . S
C861 C864 1.463 . S
C861 C866 1.350 . S
C861 N869 1.427 . S
C862 H853 0.930 . S
C862 C860 1.378 . S
C862 C863 1.367 . S
C863 C862 1.367 . S
C863 C865 1.433 . S
C864 C860 1.350 . S
C864 C861 1.463 . S
C864 N868 1.427 . S
C865 H855 0.929 . S
C865 C863 1.433 . S
C865 N868 1.384 . S
C866 H857 0.929 . S
C866 C858 1.378 . S
C866 C861 1.350 . S
C867 H854 0.929 . S
C867 C859 1.433 . S
C867 N869 1.384 . S
N868 C864 1.427 . S
N868 C865 1.384 . S
N869 C861 1.427 . S
N869 C867 1.384 . S
H870 C876 0.930 . S
H871 C880 0.930 . S
H872 C885 0.929 . S
H873 C883 0.929 . S
H874 C878 0.929 . S
H875 C884 0.929 . S
C876 H870 0.930 . S
C876 C877 1.367 . S
C876 C884 1.378 . S
C877 C876 1.367 . S
C877 C885 1.433 . S
C878 H874 0.929 . S
C878 C880 1.378 . S
C878 C882 1.350 . S
C879 C882 1.463 . S
C879 C884 1.350 . S
C879 N887 1.427 . S
C880 H871 0.930 . S
C880 C878 1.378 . S
C880 C881 1.367 . S
C881 C880 1.367 . S
C881 C883 1.433 . S
C882 C878 1.350 . S
C882 C879 1.463 . S
C882 N886 1.427 . S
C883 H873 0.929 . S
C883 C881 1.433 . S
C883 N886 1.384 . S
C884 H875 0.929 . S
C884 C876 1.378 . S
C884 C879 1.350 . S
C885 H872 0.929 . S
C885 C877 1.433 . S
C885 N887 1.384 . S
N886 C882 1.427 . S
N886 C883 1.384 . S
N887 C879 1.427 . S
N887 C885 1.384 . S
H888 C894 0.930 . S
H889 C898 0.930 . S
H890 C903 0.929 . S
H891 C901 0.929 1_655 S
H892 C896 0.929 . S
H893 C902 0.929 . S
C894 H888 0.930 . S
C894 C895 1.367 . S
C894 C902 1.378 . S
C895 C894 1.367 . S
C895 C903 1.433 . S
C896 H892 0.929 . S
C896 C898 1.378 . S
C896 C900 1.350 . S
C897 C900 1.463 . S
C897 C902 1.350 . S
C897 N905 1.427 . S
C898 H889 0.930 . S
C898 C896 1.378 . S
C898 C899 1.367 . S
C899 C898 1.367 . S
C899 C901 1.433 . S
C900 C896 1.350 . S
C900 C897 1.463 . S
C900 N904 1.427 . S
C901 H891 0.929 1_455 S
C901 C899 1.433 . S
C901 N904 1.384 . S
C902 H893 0.929 . S
C902 C894 1.378 . S
C902 C897 1.350 . S
C903 H890 0.929 . S
C903 C895 1.433 . S
C903 N905 1.384 . S
N904 C900 1.427 . S
N904 C901 1.384 . S
N905 C897 1.427 . S
N905 C903 1.384 . S
H906 C912 0.930 . S
H907 C916 0.930 . S
H908 C921 0.929 . S
H909 C919 0.929 . S
H910 C914 0.929 . S
H911 C920 0.929 . S
C912 H906 0.930 . S
C912 C913 1.367 . S
C912 C920 1.378 . S
C913 C912 1.367 . S
C913 C921 1.433 . S
C914 H910 0.929 . S
C914 C916 1.378 . S
C914 C918 1.350 . S
C915 C918 1.463 . S
C915 C920 1.350 . S
C915 N923 1.427 . S
C916 H907 0.930 . S
C916 C914 1.378 . S
C916 C917 1.367 . S
C917 C916 1.367 . S
C917 C919 1.433 . S
C918 C914 1.350 . S
C918 C915 1.463 . S
C918 N922 1.427 . S
C919 H909 0.929 . S
C919 C917 1.433 . S
C919 N922 1.384 . S
C920 H911 0.929 . S
C920 C912 1.378 . S
C920 C915 1.350 . S
C921 H908 0.929 . S
C921 C913 1.433 . S
C921 N923 1.384 . S
N922 C918 1.427 . S
N922 C919 1.384 . S
N923 C915 1.427 . S
N923 C921 1.384 . S
H924 C930 0.930 . S
H925 C934 0.930 . S
H926 C939 0.929 . S
H927 C937 0.929 . S
H928 C932 0.939 . S
H929 C938 0.929 . S
C930 H924 0.930 . S
C930 C931 1.367 . S
C930 C938 1.378 . S
C931 C930 1.367 . S
C931 C939 1.433 . S
C932 H928 0.939 . S
C932 C934 1.400 . S
C932 C936 1.318 1_554 S
C933 C936 1.463 . S
C933 C938 1.350 . S
C933 N941 1.427 . S
C934 H925 0.930 . S
C934 C932 1.400 . S
C934 C935 1.367 . S
C935 C934 1.367 . S
C935 C937 1.433 1_554 S
C936 C932 1.318 1_556 S
C936 C933 1.463 . S
C936 N940 1.427 . S
C937 H927 0.929 . S
C937 C935 1.433 1_556 S
C937 N940 1.384 . S
C938 H929 0.929 . S
C938 C930 1.378 . S
C938 C933 1.350 . S
C939 H926 0.929 . S
C939 C931 1.433 . S
C939 N941 1.384 . S
N940 C936 1.427 . S
N940 C937 1.384 . S
N941 C933 1.427 . S
N941 C939 1.384 . S
H942 C948 0.930 . S
H943 C952 0.930 . S
H944 C957 0.929 . S
H945 C955 0.929 . S
H946 C950 0.929 . S
H947 C956 0.929 . S
C948 H942 0.930 . S
C948 C949 1.367 . S
C948 C956 1.378 . S
C949 C948 1.367 . S
C949 C957 1.433 . S
C950 H946 0.929 . S
C950 C952 1.378 . S
C950 C954 1.350 . S
C951 C954 1.463 . S
C951 C956 1.350 . S
C951 N959 1.427 . S
C952 H943 0.930 . S
C952 C950 1.378 . S
C952 C953 1.367 . S
C953 C952 1.367 . S
C953 C955 1.433 . S
C954 C950 1.350 . S
C954 C951 1.463 . S
C954 N958 1.427 . S
C955 H945 0.929 . S
C955 C953 1.433 . S
C955 N958 1.384 . S
C956 H947 0.929 . S
C956 C948 1.378 . S
C956 C951 1.350 . S
C957 H944 0.929 . S
C957 C949 1.433 . S
C957 N959 1.384 . S
N958 C954 1.427 . S
N958 C955 1.384 . S
N959 C951 1.427 . S
N959 C957 1.384 . S
H960 C966 0.930 . S
H961 C970 0.930 . S
H962 C975 0.929 . S
H963 C973 0.929 . S
H964 C968 0.929 . S
H965 C974 0.929 . S
C966 H960 0.930 . S
C966 C967 1.367 . S
C966 C974 1.378 . S
C967 C966 1.367 . S
C967 C975 1.433 1_545 S
C968 H964 0.929 . S
C968 C970 1.378 . S
C968 C972 1.348 . S
C969 C972 1.463 1_545 S
C969 C974 1.350 . S
C969 N977 1.427 1_545 S
C970 H961 0.930 . S
C970 C968 1.378 . S
C970 C971 1.367 . S
C971 C970 1.367 . S
C971 C973 1.433 1_565 S
C972 C968 1.348 . S
C972 C969 1.463 1_565 S
C972 N976 1.429 1_565 S
C973 H963 0.929 . S
C973 C971 1.433 1_545 S
C973 N976 1.384 . S
C974 H965 0.929 . S
C974 C966 1.378 . S
C974 C969 1.350 . S
C975 H962 0.929 . S
C975 C967 1.433 1_565 S
C975 N977 1.384 . S
N976 C972 1.429 1_545 S
N976 C973 1.384 . S
N977 C969 1.427 1_565 S
N977 C975 1.384 . S
H978 C984 0.930 . S
H979 C988 0.930 . S
H980 C993 0.929 . S
H981 C991 0.929 . S
H982 C986 0.929 . S
H983 C992 0.929 . S
C984 H978 0.930 . S
C984 C985 1.367 . S
C984 C992 1.378 . S
C985 C984 1.367 . S
C985 C993 1.433 . S
C986 H982 0.929 . S
C986 C988 1.378 . S
C986 C990 1.350 . S
C987 C990 1.463 . S
C987 C992 1.350 . S
C987 N995 1.427 . S
C988 H979 0.930 . S
C988 C986 1.378 . S
C988 C989 1.367 . S
C989 C988 1.367 . S
C989 C991 1.433 . S
C990 C986 1.350 . S
C990 C987 1.463 . S
C990 N994 1.427 . S
C991 H981 0.929 . S
C991 C989 1.433 . S
C991 N994 1.384 . S
C992 H983 0.929 . S
C992 C984 1.378 . S
C992 C987 1.350 . S
C993 H980 0.929 . S
C993 C985 1.433 . S
C993 N995 1.384 . S
N994 C990 1.427 . S
N994 C991 1.384 . S
N995 C987 1.427 . S
N995 C993 1.384 . S
H996 C1002 0.930 . S
H997 C1006 0.930 . S
H998 C1011 0.929 . S
H999 C1009 0.929 . S
H1000 C1004 0.929 . S
H1001 C1010 0.929 . S
C1002 H996 0.930 . S
C1002 C1003 1.367 . S
C1002 C1010 1.378 . S
C1003 C1002 1.367 . S
C1003 C1011 1.433 . S
C1004 H1000 0.929 . S
C1004 C1006 1.378 . S
C1004 C1008 1.350 . S
C1005 C1008 1.463 . S
C1005 C1010 1.350 . S
C1005 N1013 1.427 . S
C1006 H997 0.930 . S
C1006 C1004 1.378 . S
C1006 C1007 1.367 . S
C1007 C1006 1.367 . S
C1007 C1009 1.433 . S
C1008 C1004 1.350 . S
C1008 C1005 1.463 . S
C1008 N1012 1.427 . S
C1009 H999 0.929 . S
C1009 C1007 1.433 . S
C1009 N1012 1.384 . S
C1010 H1001 0.929 . S
C1010 C1002 1.378 . S
C1010 C1005 1.350 . S
C1011 H998 0.929 . S
C1011 C1003 1.433 . S
C1011 N1013 1.384 . S
N1012 C1008 1.427 . S
N1012 C1009 1.384 . S
N1013 C1005 1.427 . S
N1013 C1011 1.384 . S
H1014 C1020 0.930 . S
H1015 C1024 0.930 . S
H1016 C1029 0.929 . S
H1017 C1027 0.929 . S
H1018 C1022 0.929 . S
H1019 C1028 0.929 . S
C1020 H1014 0.930 . S
C1020 C1021 1.367 . S
C1020 C1028 1.378 . S
C1021 C1020 1.367 . S
C1021 C1029 1.433 . S
C1022 H1018 0.929 . S
C1022 C1024 1.378 . S
C1022 C1026 1.350 . S
C1023 C1026 1.463 . S
C1023 C1028 1.350 . S
C1023 N1031 1.427 . S
C1024 H1015 0.930 . S
C1024 C1022 1.378 . S
C1024 C1025 1.367 . S
C1025 C1024 1.367 . S
C1025 C1027 1.433 . S
C1026 C1022 1.350 . S
C1026 C1023 1.463 . S
C1026 N1030 1.427 . S
C1027 H1017 0.929 . S
C1027 C1025 1.433 . S
C1027 N1030 1.384 . S
C1028 H1019 0.929 . S
C1028 C1020 1.378 . S
C1028 C1023 1.350 . S
C1029 H1016 0.929 . S
C1029 C1021 1.433 . S
C1029 N1031 1.384 . S
N1030 C1026 1.427 . S
N1030 C1027 1.384 . S
N1031 C1023 1.427 . S
N1031 C1029 1.384 . S
H1032 C1038 0.930 . S
H1033 C1042 0.930 . S
H1034 C1047 0.929 . S
H1035 C1045 0.945 . S
H1036 C1040 0.929 . S
H1037 C1046 0.929 . S
C1038 H1032 0.930 . S
C1038 C1039 1.367 1_565 S
C1038 C1046 1.378 . S
C1039 C1038 1.367 1_545 S
C1039 C1047 1.433 . S
C1040 H1036 0.929 . S
C1040 C1042 1.378 . S
C1040 C1044 1.350 . S
C1041 C1044 1.463 . S
C1041 C1046 1.350 1_545 S
C1041 N1049 1.427 . S
C1042 H1033 0.930 . S
C1042 C1040 1.378 . S
C1042 C1043 1.367 . S
C1043 C1042 1.367 . S
C1043 C1045 1.433 . S
C1044 C1040 1.350 . S
C1044 C1041 1.463 . S
C1044 N1048 1.427 . S
C1045 H1035 0.945 . S
C1045 C1043 1.433 . S
C1045 N1048 1.384 . S
C1046 H1037 0.929 . S
C1046 C1038 1.378 . S
C1046 C1041 1.350 1_565 S
C1047 H1034 0.929 . S
C1047 C1039 1.433 . S
C1047 N1049 1.384 . S
N1048 C1044 1.427 . S
N1048 C1045 1.384 . S
N1049 C1041 1.427 . S
N1049 C1047 1.384 . S
H1050 C1056 0.930 . S
H1051 C1060 0.930 . S
H1052 C1065 0.929 . S
H1053 C1063 0.929 . S
H1054 C1058 0.929 . S
H1055 C1064 0.929 . S
C1056 H1050 0.930 . S
C1056 C1057 1.367 . S
C1056 C1064 1.378 . S
C1057 C1056 1.367 . S
C1057 C1065 1.433 . S
C1058 H1054 0.929 . S
C1058 C1060 1.378 . S
C1058 C1062 1.350 . S
C1059 C1062 1.463 . S
C1059 C1064 1.350 . S
C1059 N1067 1.427 . S
C1060 H1051 0.930 . S
C1060 C1058 1.378 . S
C1060 C1061 1.367 . S
C1061 C1060 1.367 . S
C1061 C1063 1.433 . S
C1062 C1058 1.350 . S
C1062 C1059 1.463 . S
C1062 N1066 1.427 . S
C1063 H1053 0.929 . S
C1063 C1061 1.433 . S
C1063 N1066 1.384 . S
C1064 H1055 0.929 . S
C1064 C1056 1.378 . S
C1064 C1059 1.350 . S
C1065 H1052 0.929 . S
C1065 C1057 1.433 . S
C1065 N1067 1.384 . S
N1066 C1062 1.427 . S
N1066 C1063 1.384 . S
N1067 C1059 1.427 . S
N1067 C1065 1.384 . S
H1068 C1074 0.930 . S
H1069 C1078 0.930 . S
H1070 C1083 0.929 . S
H1071 C1081 0.929 . S
H1072 C1076 0.929 . S
H1073 C1082 0.929 . S
C1074 H1068 0.930 . S
C1074 C1075 1.367 . S
C1074 C1082 1.378 . S
C1075 C1074 1.367 . S
C1075 C1083 1.433 . S
C1076 H1072 0.929 . S
C1076 C1078 1.378 . S
C1076 C1080 1.350 . S
C1077 C1080 1.463 . S
C1077 C1082 1.350 . S
C1077 N1085 1.427 . S
C1078 H1069 0.930 . S
C1078 C1076 1.378 . S
C1078 C1079 1.367 . S
C1079 C1078 1.367 . S
C1079 C1081 1.433 . S
C1080 C1076 1.350 . S
C1080 C1077 1.463 . S
C1080 N1084 1.427 . S
C1081 H1071 0.929 . S
C1081 C1079 1.433 . S
C1081 N1084 1.384 . S
C1082 H1073 0.929 . S
C1082 C1074 1.378 . S
C1082 C1077 1.350 . S
C1083 H1070 0.929 . S
C1083 C1075 1.433 . S
C1083 N1085 1.384 . S
N1084 C1080 1.427 . S
N1084 C1081 1.384 . S
N1085 C1077 1.427 . S
N1085 C1083 1.384 . S
H1086 C1092 0.930 . S
H1087 C1096 0.930 . S
H1088 C1101 0.929 . S
H1089 C1099 0.929 . S
H1090 C1094 0.929 . S
H1091 C1100 0.929 . S
C1092 H1086 0.930 . S
C1092 C1093 1.367 . S
C1092 C1100 1.378 . S
C1093 C1092 1.367 . S
C1093 C1101 1.433 . S
C1094 H1090 0.929 . S
C1094 C1096 1.378 . S
C1094 C1098 1.350 . S
C1095 C1098 1.463 . S
C1095 C1100 1.350 . S
C1095 N1103 1.427 . S
C1096 H1087 0.930 . S
C1096 C1094 1.378 . S
C1096 C1097 1.367 . S
C1097 C1096 1.367 . S
C1097 C1099 1.433 . S
C1098 C1094 1.350 . S
C1098 C1095 1.463 . S
C1098 N1102 1.427 . S
C1099 H1089 0.929 . S
C1099 C1097 1.433 . S
C1099 N1102 1.384 . S
C1100 H1091 0.929 . S
C1100 C1092 1.378 . S
C1100 C1095 1.350 . S
C1101 H1088 0.929 . S
C1101 C1093 1.433 . S
C1101 N1103 1.384 . S
N1102 C1098 1.427 . S
N1102 C1099 1.384 . S
N1103 C1095 1.427 . S
N1103 C1101 1.384 . S
H1104 C1110 0.930 1_556 S
H1105 C1114 0.930 . S
H1106 C1119 0.929 . S
H1107 C1117 0.929 1_556 S
H1108 C1112 0.929 . S
H1109 C1118 0.929 1_556 S
C1110 H1104 0.930 1_554 S
C1110 C1111 1.367 . S
C1110 C1118 1.378 . S
C1111 C1110 1.367 . S
C1111 C1119 1.433 . S
C1112 H1108 0.929 . S
C1112 C1114 1.378 . S
C1112 C1116 1.350 . S
C1113 C1116 1.463 . S
C1113 C1118 1.350 . S
C1113 N1121 1.427 . S
C1114 H1105 0.930 . S
C1114 C1112 1.378 . S
C1114 C1115 1.367 . S
C1115 C1114 1.367 . S
C1115 C1117 1.433 . S
C1116 C1112 1.350 . S
C1116 C1113 1.463 . S
C1116 N1120 1.427 . S
C1117 H1107 0.929 1_554 S
C1117 C1115 1.433 . S
C1117 N1120 1.384 . S
C1118 H1109 0.929 1_554 S
C1118 C1110 1.378 . S
C1118 C1113 1.350 . S
C1119 H1106 0.929 . S
C1119 C1111 1.433 . S
C1119 N1121 1.384 . S
N1120 C1116 1.427 . S
N1120 C1117 1.384 . S
N1121 C1113 1.427 . S
N1121 C1119 1.384 . S
H1122 C1128 0.930 . S
H1123 C1132 0.930 . S
H1124 C1137 0.929 . S
H1125 C1135 0.929 . S
H1126 C1130 0.929 . S
H1127 C1136 0.929 . S
C1128 H1122 0.930 . S
C1128 C1129 1.367 . S
C1128 C1136 1.378 . S
C1129 C1128 1.367 . S
C1129 C1137 1.433 . S
C1130 H1126 0.929 . S
C1130 C1132 1.378 . S
C1130 C1134 1.350 . S
C1131 C1134 1.463 . S
C1131 C1136 1.350 . S
C1131 N1139 1.427 . S
C1132 H1123 0.930 . S
C1132 C1130 1.378 . S
C1132 C1133 1.367 . S
C1133 C1132 1.367 . S
C1133 C1135 1.433 . S
C1134 C1130 1.350 . S
C1134 C1131 1.463 . S
C1134 N1138 1.427 . S
C1135 H1125 0.929 . S
C1135 C1133 1.433 . S
C1135 N1138 1.384 . S
C1136 H1127 0.929 . S
C1136 C1128 1.378 . S
C1136 C1131 1.350 . S
C1137 H1124 0.929 . S
C1137 C1129 1.433 . S
C1137 N1139 1.384 . S
N1138 C1134 1.427 . S
N1138 C1135 1.384 . S
N1139 C1131 1.427 . S
N1139 C1137 1.384 . S
H1140 C1146 0.930 . S
H1141 C1150 0.930 . S
H1142 C1155 0.929 . S
H1143 C1153 0.929 . S
H1144 C1148 0.929 . S
H1145 C1154 0.929 . S
C1146 H1140 0.930 . S
C1146 C1147 1.367 . S
C1146 C1154 1.378 . S
C1147 C1146 1.367 . S
C1147 C1155 1.433 . S
C1148 H1144 0.929 . S
C1148 C1150 1.378 . S
C1148 C1152 1.350 . S
C1149 C1152 1.463 . S
C1149 C1154 1.350 . S
C1149 N1157 1.427 . S
C1150 H1141 0.930 . S
C1150 C1148 1.378 . S
C1150 C1151 1.367 . S
C1151 C1150 1.367 . S
C1151 C1153 1.433 . S
C1152 C1148 1.350 . S
C1152 C1149 1.463 . S
C1152 N1156 1.427 . S
C1153 H1143 0.929 . S
C1153 C1151 1.433 . S
C1153 N1156 1.384 . S
C1154 H1145 0.929 . S
C1154 C1146 1.378 . S
C1154 C1149 1.350 . S
C1155 H1142 0.929 . S
C1155 C1147 1.433 . S
C1155 N1157 1.384 . S
N1156 C1152 1.427 . S
N1156 C1153 1.384 . S
N1157 C1149 1.427 . S
N1157 C1155 1.384 . S
H1158 C1164 0.930 . S
H1159 C1168 0.930 . S
H1160 C1173 0.929 . S
H1161 C1171 0.929 . S
H1162 C1166 0.929 . S
H1163 C1172 0.929 . S
C1164 H1158 0.930 . S
C1164 C1165 1.367 . S
C1164 C1172 1.378 . S
C1165 C1164 1.367 . S
C1165 C1173 1.433 . S
C1166 H1162 0.929 . S
C1166 C1168 1.378 . S
C1166 C1170 1.350 . S
C1167 C1170 1.463 . S
C1167 C1172 1.350 . S
C1167 N1175 1.427 . S
C1168 H1159 0.930 . S
C1168 C1166 1.378 . S
C1168 C1169 1.367 . S
C1169 C1168 1.367 . S
C1169 C1171 1.433 . S
C1170 C1166 1.350 . S
C1170 C1167 1.463 . S
C1170 N1174 1.427 . S
C1171 H1161 0.929 . S
C1171 C1169 1.433 . S
C1171 N1174 1.384 . S
C1172 H1163 0.929 . S
C1172 C1164 1.378 . S
C1172 C1167 1.350 . S
C1173 H1160 0.929 . S
C1173 C1165 1.433 . S
C1173 N1175 1.384 . S
N1174 C1170 1.427 . S
N1174 C1171 1.384 . S
N1175 C1167 1.427 . S
N1175 C1173 1.384 . S
H1176 C1182 0.930 . S
H1177 C1186 0.930 . S
H1178 C1191 0.929 . S
H1179 C1189 0.929 . S
H1180 C1184 0.929 . S
H1181 C1190 0.929 . S
C1182 H1176 0.930 . S
C1182 C1183 1.367 . S
C1182 C1190 1.378 . S
C1183 C1182 1.367 . S
C1183 C1191 1.433 . S
C1184 H1180 0.929 . S
C1184 C1186 1.378 . S
C1184 C1188 1.350 . S
C1185 C1188 1.463 . S
C1185 C1190 1.350 . S
C1185 N1193 1.427 . S
C1186 H1177 0.930 . S
C1186 C1184 1.378 . S
C1186 C1187 1.367 . S
C1187 C1186 1.367 . S
C1187 C1189 1.433 . S
C1188 C1184 1.350 . S
C1188 C1185 1.463 . S
C1188 N1192 1.427 . S
C1189 H1179 0.929 . S
C1189 C1187 1.433 . S
C1189 N1192 1.384 . S
C1190 H1181 0.929 . S
C1190 C1182 1.378 . S
C1190 C1185 1.350 . S
C1191 H1178 0.929 . S
C1191 C1183 1.433 . S
C1191 N1193 1.384 . S
N1192 C1188 1.427 . S
N1192 C1189 1.384 . S
N1193 C1185 1.427 . S
N1193 C1191 1.384 . S
H1194 C1200 0.930 . S
H1195 C1204 0.930 . S
H1196 C1209 0.929 . S
H1197 C1207 0.929 . S
H1198 C1202 0.929 . S
H1199 C1208 0.929 . S
C1200 H1194 0.930 . S
C1200 C1201 1.367 . S
C1200 C1208 1.378 . S
C1201 C1200 1.367 . S
C1201 C1209 1.433 . S
C1202 H1198 0.929 . S
C1202 C1204 1.378 1_565 S
C1202 C1206 1.350 . S
C1203 C1206 1.463 . S
C1203 C1208 1.350 . S
C1203 N1211 1.427 . S
C1204 H1195 0.930 . S
C1204 C1202 1.378 1_545 S
C1204 C1205 1.367 1_545 S
C1205 C1204 1.367 1_565 S
C1205 C1207 1.433 . S
C1206 C1202 1.350 . S
C1206 C1203 1.463 . S
C1206 N1210 1.427 . S
C1207 H1197 0.929 . S
C1207 C1205 1.433 . S
C1207 N1210 1.384 . S
C1208 H1199 0.929 . S
C1208 C1200 1.378 . S
C1208 C1203 1.350 . S
C1209 H1196 0.929 . S
C1209 C1201 1.433 . S
C1209 N1211 1.384 . S
N1210 C1206 1.427 . S
N1210 C1207 1.384 . S
N1211 C1203 1.427 . S
N1211 C1209 1.384 . S
H1212 C1218 0.930 . S
H1213 C1222 0.930 . S
H1214 C1227 0.929 . S
H1215 C1225 0.929 . S
H1216 C1220 0.929 . S
H1217 C1226 0.929 . S
C1218 H1212 0.930 . S
C1218 C1219 1.367 . S
C1218 C1226 1.378 . S
C1219 C1218 1.367 . S
C1219 C1227 1.433 . S
C1220 H1216 0.929 . S
C1220 C1222 1.378 . S
C1220 C1224 1.350 . S
C1221 C1224 1.463 . S
C1221 C1226 1.350 . S
C1221 N1229 1.427 . S
C1222 H1213 0.930 . S
C1222 C1220 1.378 . S
C1222 C1223 1.367 . S
C1223 C1222 1.367 . S
C1223 C1225 1.433 . S
C1224 C1220 1.350 . S
C1224 C1221 1.463 . S
C1224 N1228 1.427 . S
C1225 H1215 0.929 . S
C1225 C1223 1.433 . S
C1225 N1228 1.384 . S
C1226 H1217 0.929 . S
C1226 C1218 1.378 . S
C1226 C1221 1.350 . S
C1227 H1214 0.929 . S
C1227 C1219 1.433 . S
C1227 N1229 1.384 . S
N1228 C1224 1.427 . S
N1228 C1225 1.384 . S
N1229 C1221 1.427 . S
N1229 C1227 1.384 . S
H1230 C1236 0.930 . S
H1231 C1240 0.930 . S
H1232 C1245 0.929 . S
H1233 C1243 0.929 . S
H1234 C1238 0.929 . S
H1235 C1244 0.929 . S
C1236 H1230 0.930 . S
C1236 C1237 1.367 . S
C1236 C1244 1.378 . S
C1237 C1236 1.367 . S
C1237 C1245 1.433 . S
C1238 H1234 0.929 . S
C1238 C1240 1.378 . S
C1238 C1242 1.350 . S
C1239 C1242 1.463 . S
C1239 C1244 1.350 . S
C1239 N1247 1.427 . S
C1240 H1231 0.930 . S
C1240 C1238 1.378 . S
C1240 C1241 1.367 . S
C1241 C1240 1.367 . S
C1241 C1243 1.433 . S
C1242 C1238 1.350 . S
C1242 C1239 1.463 . S
C1242 N1246 1.427 . S
C1243 H1233 0.929 . S
C1243 C1241 1.433 . S
C1243 N1246 1.384 . S
C1244 H1235 0.929 . S
C1244 C1236 1.378 . S
C1244 C1239 1.350 . S
C1245 H1232 0.929 . S
C1245 C1237 1.433 . S
C1245 N1247 1.384 . S
N1246 C1242 1.427 . S
N1246 C1243 1.384 . S
N1247 C1239 1.427 . S
N1247 C1245 1.384 . S
H1248 C1254 0.930 . S
H1249 C1258 0.930 . S
H1250 C1263 0.929 . S
H1251 C1261 0.929 . S
H1252 C1256 0.929 . S
H1253 C1262 0.929 . S
C1254 H1248 0.930 . S
C1254 C1255 1.367 . S
C1254 C1262 1.378 . S
C1255 C1254 1.367 . S
C1255 C1263 1.433 . S
C1256 H1252 0.929 . S
C1256 C1258 1.378 . S
C1256 C1260 1.350 . S
C1257 C1260 1.463 . S
C1257 C1262 1.350 . S
C1257 N1265 1.427 . S
C1258 H1249 0.930 . S
C1258 C1256 1.378 . S
C1258 C1259 1.367 . S
C1259 C1258 1.367 . S
C1259 C1261 1.433 1_556 S
C1260 C1256 1.350 . S
C1260 C1257 1.463 . S
C1260 N1264 1.427 . S
C1261 H1251 0.929 . S
C1261 C1259 1.433 1_554 S
C1261 N1264 1.384 1_554 S
C1262 H1253 0.929 . S
C1262 C1254 1.378 . S
C1262 C1257 1.350 . S
C1263 H1250 0.929 . S
C1263 C1255 1.433 . S
C1263 N1265 1.384 . S
N1264 C1260 1.427 . S
N1264 C1261 1.384 1_556 S
N1265 C1257 1.427 . S
N1265 C1263 1.384 . S
H1266 C1272 0.930 . S
H1267 C1276 0.930 . S
H1268 C1281 0.929 . S
H1269 C1279 0.929 . S
H1270 C1274 0.929 . S
H1271 C1280 0.929 . S
C1272 H1266 0.930 . S
C1272 C1273 1.367 . S
C1272 C1280 1.378 . S
C1273 C1272 1.367 . S
C1273 C1281 1.433 . S
C1274 H1270 0.929 . S
C1274 C1276 1.378 . S
C1274 C1278 1.350 . S
C1275 C1278 1.463 . S
C1275 C1280 1.350 . S
C1275 N1283 1.427 . S
C1276 H1267 0.930 . S
C1276 C1274 1.378 . S
C1276 C1277 1.367 . S
C1277 C1276 1.367 . S
C1277 C1279 1.433 . S
C1278 C1274 1.350 . S
C1278 C1275 1.463 . S
C1278 N1282 1.427 . S
C1279 H1269 0.929 . S
C1279 C1277 1.433 . S
C1279 N1282 1.384 . S
C1280 H1271 0.929 . S
C1280 C1272 1.378 . S
C1280 C1275 1.350 . S
C1281 H1268 0.929 . S
C1281 C1273 1.433 . S
C1281 N1283 1.384 . S
N1282 C1278 1.427 . S
N1282 C1279 1.384 . S
N1283 C1275 1.427 . S
N1283 C1281 1.384 . S
H1284 C1290 0.930 . S
H1285 C1294 0.930 . S
H1286 C1299 0.929 . S
H1287 C1297 0.929 . S
H1288 C1292 0.929 . S
H1289 C1298 0.929 . S
C1290 H1284 0.930 . S
C1290 C1291 1.367 . S
C1290 C1298 1.378 . S
C1291 C1290 1.367 . S
C1291 C1299 1.433 . S
C1292 H1288 0.929 . S
C1292 C1294 1.378 . S
C1292 C1296 1.350 . S
C1293 C1296 1.463 . S
C1293 C1298 1.350 . S
C1293 N1301 1.427 . S
C1294 H1285 0.930 . S
C1294 C1292 1.378 . S
C1294 C1295 1.367 . S
C1295 C1294 1.367 . S
C1295 C1297 1.433 . S
C1296 C1292 1.350 . S
C1296 C1293 1.463 . S
C1296 N1300 1.427 . S
C1297 H1287 0.929 . S
C1297 C1295 1.433 . S
C1297 N1300 1.384 . S
C1298 H1289 0.929 . S
C1298 C1290 1.378 . S
C1298 C1293 1.350 . S
C1299 H1286 0.929 . S
C1299 C1291 1.433 . S
C1299 N1301 1.384 . S
N1300 C1296 1.427 . S
N1300 C1297 1.384 . S
N1301 C1293 1.427 . S
N1301 C1299 1.384 . S
H1302 C1308 0.930 . S
H1303 C1312 0.930 . S
H1304 C1317 0.929 . S
H1305 C1315 0.929 . S
H1306 C1310 0.929 . S
H1307 C1316 0.929 . S
C1308 H1302 0.930 . S
C1308 C1309 1.367 . S
C1308 C1316 1.378 . S
C1309 C1308 1.367 . S
C1309 C1317 1.433 . S
C1310 H1306 0.929 . S
C1310 C1312 1.378 . S
C1310 C1314 1.350 . S
C1311 C1314 1.463 . S
C1311 C1316 1.350 . S
C1311 N1319 1.427 . S
C1312 H1303 0.930 . S
C1312 C1310 1.378 . S
C1312 C1313 1.367 . S
C1313 C1312 1.367 . S
C1313 C1315 1.433 . S
C1314 C1310 1.350 . S
C1314 C1311 1.463 . S
C1314 N1318 1.427 . S
C1315 H1305 0.929 . S
C1315 C1313 1.433 . S
C1315 N1318 1.384 . S
C1316 H1307 0.929 . S
C1316 C1308 1.378 . S
C1316 C1311 1.350 . S
C1317 H1304 0.929 . S
C1317 C1309 1.433 . S
C1317 N1319 1.384 . S
N1318 C1314 1.427 . S
N1318 C1315 1.384 . S
N1319 C1311 1.427 . S
N1319 C1317 1.384 . S
H1320 C1326 0.930 . S
H1321 C1330 0.930 . S
H1322 C1335 0.929 . S
H1323 C1333 0.929 . S
H1324 C1328 0.929 . S
H1325 C1334 0.929 . S
C1326 H1320 0.930 . S
C1326 C1327 1.367 1_655 S
C1326 C1334 1.378 . S
C1327 C1326 1.367 1_455 S
C1327 C1335 1.433 . S
C1328 H1324 0.929 . S
C1328 C1330 1.378 . S
C1328 C1332 1.350 . S
C1329 C1332 1.463 . S
C1329 C1334 1.350 1_455 S
C1329 N1337 1.427 . S
C1330 H1321 0.930 . S
C1330 C1328 1.378 . S
C1330 C1331 1.367 . S
C1331 C1330 1.367 . S
C1331 C1333 1.433 . S
C1332 C1328 1.350 . S
C1332 C1329 1.463 . S
C1332 N1336 1.427 . S
C1333 H1323 0.929 . S
C1333 C1331 1.433 . S
C1333 N1336 1.384 . S
C1334 H1325 0.929 . S
C1334 C1326 1.378 . S
C1334 C1329 1.350 1_655 S
C1335 H1322 0.929 . S
C1335 C1327 1.433 . S
C1335 N1337 1.384 . S
N1336 C1332 1.427 . S
N1336 C1333 1.384 . S
N1337 C1329 1.427 . S
N1337 C1335 1.384 . S
H1338 C1344 0.930 . S
H1339 C1348 0.930 . S
H1340 C1353 0.929 . S
H1341 C1351 0.929 . S
H1342 C1346 0.929 . S
H1343 C1352 0.929 . S
C1344 H1338 0.930 . S
C1344 C1345 1.367 . S
C1344 C1352 1.378 . S
C1345 C1344 1.367 . S
C1345 C1353 1.433 . S
C1346 H1342 0.929 . S
C1346 C1348 1.378 . S
C1346 C1350 1.350 . S
C1347 C1350 1.463 . S
C1347 C1352 1.350 . S
C1347 N1355 1.427 . S
C1348 H1339 0.930 . S
C1348 C1346 1.378 . S
C1348 C1349 1.367 . S
C1349 C1348 1.367 . S
C1349 C1351 1.433 . S
C1350 C1346 1.350 . S
C1350 C1347 1.463 . S
C1350 N1354 1.427 . S
C1351 H1341 0.929 . S
C1351 C1349 1.433 . S
C1351 N1354 1.384 . S
C1352 H1343 0.929 . S
C1352 C1344 1.378 . S
C1352 C1347 1.350 . S
C1353 H1340 0.929 . S
C1353 C1345 1.433 . S
C1353 N1355 1.384 . S
N1354 C1350 1.427 . S
N1354 C1351 1.384 . S
N1355 C1347 1.427 . S
N1355 C1353 1.384 . S
H1356 C1362 0.930 . S
H1357 C1366 0.930 . S
H1358 C1371 0.929 . S
H1359 C1369 0.929 . S
H1360 C1364 0.929 . S
H1361 C1370 0.929 . S
C1362 H1356 0.930 . S
C1362 C1363 1.367 . S
C1362 C1370 1.378 . S
C1363 C1362 1.367 . S
C1363 C1371 1.433 . S
C1364 H1360 0.929 . S
C1364 C1366 1.378 . S
C1364 C1368 1.350 . S
C1365 C1368 1.463 . S
C1365 C1370 1.350 . S
C1365 N1373 1.427 . S
C1366 H1357 0.930 . S
C1366 C1364 1.378 . S
C1366 C1367 1.367 . S
C1367 C1366 1.367 . S
C1367 C1369 1.433 . S
C1368 C1364 1.350 . S
C1368 C1365 1.463 . S
C1368 N1372 1.427 . S
C1369 H1359 0.929 . S
C1369 C1367 1.433 . S
C1369 N1372 1.384 . S
C1370 H1361 0.929 . S
C1370 C1362 1.378 . S
C1370 C1365 1.350 . S
C1371 H1358 0.929 . S
C1371 C1363 1.433 . S
C1371 N1373 1.384 . S
N1372 C1368 1.427 . S
N1372 C1369 1.384 . S
N1373 C1365 1.427 . S
N1373 C1371 1.384 . S
H1374 C1380 0.930 . S
H1375 C1384 0.930 . S
H1376 C1389 0.929 . S
H1377 C1387 0.929 . S
H1378 C1382 0.929 . S
H1379 C1388 0.929 . S
C1380 H1374 0.930 . S
C1380 C1381 1.367 . S
C1380 C1388 1.378 . S
C1381 C1380 1.367 . S
C1381 C1389 1.433 . S
C1382 H1378 0.929 . S
C1382 C1384 1.378 . S
C1382 C1386 1.350 . S
C1383 C1386 1.463 . S
C1383 C1388 1.350 . S
C1383 N1391 1.427 . S
C1384 H1375 0.930 . S
C1384 C1382 1.378 . S
C1384 C1385 1.367 . S
C1385 C1384 1.367 . S
C1385 C1387 1.433 . S
C1386 C1382 1.350 . S
C1386 C1383 1.463 . S
C1386 N1390 1.427 . S
C1387 H1377 0.929 . S
C1387 C1385 1.433 . S
C1387 N1390 1.384 . S
C1388 H1379 0.929 . S
C1388 C1380 1.378 . S
C1388 C1383 1.350 . S
C1389 H1376 0.929 . S
C1389 C1381 1.433 . S
C1389 N1391 1.384 . S
N1390 C1386 1.427 . S
N1390 C1387 1.384 . S
N1391 C1383 1.427 . S
N1391 C1389 1.384 . S
H1392 C1398 0.930 . S
H1393 C1402 0.930 . S
H1394 C1407 0.929 . S
H1395 C1405 0.929 . S
H1396 C1400 0.916 1_455 S
H1397 C1406 0.929 . S
C1398 H1392 0.930 . S
C1398 C1399 1.367 . S
C1398 C1406 1.378 . S
C1399 C1398 1.367 . S
C1399 C1407 1.433 . S
C1400 H1396 0.916 1_655 S
C1400 C1402 1.378 1_655 S
C1400 C1404 1.350 . S
C1401 C1404 1.463 . S
C1401 C1406 1.350 . S
C1401 N1409 1.427 . S
C1402 H1393 0.930 . S
C1402 C1400 1.378 1_455 S
C1402 C1403 1.367 1_455 S
C1403 C1402 1.367 1_655 S
C1403 C1405 1.433 . S
C1404 C1400 1.350 . S
C1404 C1401 1.463 . S
C1404 N1408 1.427 . S
C1405 H1395 0.929 . S
C1405 C1403 1.433 . S
C1405 N1408 1.384 . S
C1406 H1397 0.929 . S
C1406 C1398 1.378 . S
C1406 C1401 1.350 . S
C1407 H1394 0.929 . S
C1407 C1399 1.433 . S
C1407 N1409 1.384 . S
N1408 C1404 1.427 . S
N1408 C1405 1.384 . S
N1409 C1401 1.427 . S
N1409 C1407 1.384 . S
H1410 C1416 0.930 . S
H1411 C1420 0.930 . S
H1412 C1425 0.929 . S
H1413 C1423 0.929 . S
H1414 C1418 0.929 . S
H1415 C1424 0.929 . S
C1416 H1410 0.930 . S
C1416 C1417 1.367 . S
C1416 C1424 1.378 . S
C1417 C1416 1.367 . S
C1417 C1425 1.433 . S
C1418 H1414 0.929 . S
C1418 C1420 1.378 . S
C1418 C1422 1.350 . S
C1419 C1422 1.463 . S
C1419 C1424 1.350 . S
C1419 N1427 1.427 . S
C1420 H1411 0.930 . S
C1420 C1418 1.378 . S
C1420 C1421 1.367 . S
C1421 C1420 1.367 . S
C1421 C1423 1.433 . S
C1422 C1418 1.350 . S
C1422 C1419 1.463 . S
C1422 N1426 1.427 . S
C1423 H1413 0.929 . S
C1423 C1421 1.433 . S
C1423 N1426 1.384 . S
C1424 H1415 0.929 . S
C1424 C1416 1.378 . S
C1424 C1419 1.350 . S
C1425 H1412 0.929 . S
C1425 C1417 1.433 . S
C1425 N1427 1.384 . S
N1426 C1422 1.427 . S
N1426 C1423 1.384 . S
N1427 C1419 1.427 . S
N1427 C1425 1.384 . S
H1428 C1434 0.930 . S
H1429 C1438 0.917 1_565 S
H1430 C1443 0.901 1_565 S
H1431 C1441 0.929 . S
H1432 C1436 0.929 1_565 S
H1433 C1442 0.929 . S
C1434 H1428 0.930 . S
C1434 C1435 1.367 . S
C1434 C1442 1.378 . S
C1435 C1434 1.367 . S
C1435 C1443 1.460 . S
C1436 H1432 0.929 1_545 S
C1436 C1438 1.378 . S
C1436 C1440 1.350 . S
C1437 C1440 1.463 . S
C1437 C1442 1.350 . S
C1437 N1445 1.427 . S
C1438 H1429 0.917 1_545 S
C1438 C1436 1.378 . S
C1438 C1439 1.367 . S
C1439 C1438 1.367 . S
C1439 C1441 1.433 . S
C1440 C1436 1.350 . S
C1440 C1437 1.463 . S
C1440 N1444 1.427 . S
C1441 H1431 0.929 . S
C1441 C1439 1.433 . S
C1441 N1444 1.384 . S
C1442 H1433 0.929 . S
C1442 C1434 1.378 . S
C1442 C1437 1.350 . S
C1443 H1430 0.901 1_545 S
C1443 C1435 1.460 . S
C1443 N1445 1.389 . S
N1444 C1440 1.427 . S
N1444 C1441 1.384 . S
N1445 C1437 1.427 . S
N1445 C1443 1.389 . S
H1446 C1452 0.930 . S
H1447 C1456 0.930 . S
H1448 C1461 0.929 . S
H1449 C1459 0.929 . S
H1450 C1454 0.929 . S
H1451 C1460 0.929 . S
C1452 H1446 0.930 . S
C1452 C1453 1.367 . S
C1452 C1460 1.378 . S
C1453 C1452 1.367 . S
C1453 C1461 1.433 . S
C1454 H1450 0.929 . S
C1454 C1456 1.378 . S
C1454 C1458 1.350 . S
C1455 C1458 1.463 . S
C1455 C1460 1.350 . S
C1455 N1463 1.427 . S
C1456 H1447 0.930 . S
C1456 C1454 1.378 . S
C1456 C1457 1.367 . S
C1457 C1456 1.367 . S
C1457 C1459 1.433 . S
C1458 C1454 1.350 . S
C1458 C1455 1.463 . S
C1458 N1462 1.427 . S
C1459 H1449 0.929 . S
C1459 C1457 1.433 . S
C1459 N1462 1.384 . S
C1460 H1451 0.929 . S
C1460 C1452 1.378 . S
C1460 C1455 1.350 . S
C1461 H1448 0.929 . S
C1461 C1453 1.433 . S
C1461 N1463 1.384 . S
N1462 C1458 1.427 . S
N1462 C1459 1.384 . S
N1463 C1455 1.427 . S
N1463 C1461 1.384 . S
H1464 C1470 0.930 . S
H1465 C1474 0.930 1_565 S
H1466 C1479 0.929 . S
H1467 C1477 0.929 1_455 S
H1468 C1472 0.929 1_565 S
H1469 C1478 0.929 . S
C1470 H1464 0.930 . S
C1470 C1471 1.367 . S
C1470 C1478 1.378 . S
C1471 C1470 1.367 . S
C1471 C1479 1.433 . S
C1472 H1468 0.929 1_545 S
C1472 C1474 1.378 . S
C1472 C1476 1.350 . S
C1473 C1476 1.463 . S
C1473 C1478 1.350 . S
C1473 N1481 1.427 . S
C1474 H1465 0.930 1_545 S
C1474 C1472 1.378 . S
C1474 C1475 1.367 . S
C1475 C1474 1.367 . S
C1475 C1477 1.433 . S
C1476 C1472 1.350 . S
C1476 C1473 1.463 . S
C1476 N1480 1.427 . S
C1477 H1467 0.929 1_655 S
C1477 C1475 1.433 . S
C1477 N1480 1.384 . S
C1478 H1469 0.929 . S
C1478 C1470 1.378 . S
C1478 C1473 1.350 . S
C1479 H1466 0.929 . S
C1479 C1471 1.433 . S
C1479 N1481 1.384 . S
N1480 C1476 1.427 . S
N1480 C1477 1.384 . S
N1481 C1473 1.427 . S
N1481 C1479 1.384 . S
H1482 C1488 0.930 . S
H1483 C1492 0.930 . S
H1484 C1497 0.929 . S
H1485 C1495 0.929 . S
H1486 C1490 0.929 . S
H1487 C1496 0.929 . S
C1488 H1482 0.930 . S
C1488 C1489 1.367 . S
C1488 C1496 1.378 . S
C1489 C1488 1.367 . S
C1489 C1497 1.433 . S
C1490 H1486 0.929 . S
C1490 C1492 1.378 . S
C1490 C1494 1.350 . S
C1491 C1494 1.463 . S
C1491 C1496 1.350 . S
C1491 N1499 1.427 . S
C1492 H1483 0.930 . S
C1492 C1490 1.378 . S
C1492 C1493 1.367 . S
C1493 C1492 1.367 . S
C1493 C1495 1.433 . S
C1494 C1490 1.350 . S
C1494 C1491 1.463 . S
C1494 N1498 1.427 . S
C1495 H1485 0.929 . S
C1495 C1493 1.433 . S
C1495 N1498 1.384 . S
C1496 H1487 0.929 . S
C1496 C1488 1.378 . S
C1496 C1491 1.350 . S
C1497 H1484 0.929 . S
C1497 C1489 1.433 . S
C1497 N1499 1.384 . S
N1498 C1494 1.427 . S
N1498 C1495 1.384 . S
N1499 C1491 1.427 . S
N1499 C1497 1.384 . S
H1500 C1506 0.930 . S
H1501 C1510 0.930 . S
H1502 C1515 0.929 . S
H1503 C1513 0.929 . S
H1504 C1508 0.929 . S
H1505 C1514 0.929 1_565 S
C1506 H1500 0.930 . S
C1506 C1507 1.367 1_565 S
C1506 C1514 1.378 1_565 S
C1507 C1506 1.367 1_545 S
C1507 C1515 1.433 . S
C1508 H1504 0.929 . S
C1508 C1510 1.378 . S
C1508 C1512 1.350 . S
C1509 C1512 1.463 . S
C1509 C1514 1.350 . S
C1509 N1517 1.427 . S
C1510 H1501 0.930 . S
C1510 C1508 1.378 . S
C1510 C1511 1.367 . S
C1511 C1510 1.367 . S
C1511 C1513 1.433 . S
C1512 C1508 1.350 . S
C1512 C1509 1.463 . S
C1512 N1516 1.427 . S
C1513 H1503 0.929 . S
C1513 C1511 1.433 . S
C1513 N1516 1.384 . S
C1514 H1505 0.929 1_545 S
C1514 C1506 1.378 1_545 S
C1514 C1509 1.350 . S
C1515 H1502 0.929 . S
C1515 C1507 1.433 . S
C1515 N1517 1.384 . S
N1516 C1512 1.427 . S
N1516 C1513 1.384 . S
N1517 C1509 1.427 . S
N1517 C1515 1.384 . S
H1518 C1524 0.930 . S
H1519 C1528 0.930 . S
H1520 C1533 0.929 . S
H1521 C1531 0.929 . S
H1522 C1526 0.929 . S
H1523 C1532 0.929 . S
C1524 H1518 0.930 . S
C1524 C1525 1.367 . S
C1524 C1532 1.378 . S
C1525 C1524 1.367 . S
C1525 C1533 1.433 . S
C1526 H1522 0.929 . S
C1526 C1528 1.378 . S
C1526 C1530 1.350 . S
C1527 C1530 1.463 . S
C1527 C1532 1.350 . S
C1527 N1535 1.427 . S
C1528 H1519 0.930 . S
C1528 C1526 1.378 . S
C1528 C1529 1.367 . S
C1529 C1528 1.367 . S
C1529 C1531 1.433 . S
C1530 C1526 1.350 . S
C1530 C1527 1.463 . S
C1530 N1534 1.427 . S
C1531 H1521 0.929 . S
C1531 C1529 1.433 . S
C1531 N1534 1.384 . S
C1532 H1523 0.929 . S
C1532 C1524 1.378 . S
C1532 C1527 1.350 . S
C1533 H1520 0.929 . S
C1533 C1525 1.433 . S
C1533 N1535 1.384 . S
N1534 C1530 1.427 . S
N1534 C1531 1.384 . S
N1535 C1527 1.427 . S
N1535 C1533 1.384 . S
H1536 C1542 0.930 1_556 S
H1537 C1546 0.930 . S
H1538 C1551 0.929 . S
H1539 C1549 0.940 . S
H1540 C1544 0.929 . S
H1541 C1550 0.932 . S
C1542 H1536 0.930 1_554 S
C1542 C1543 1.367 . S
C1542 C1550 1.378 . S
C1543 C1542 1.367 . S
C1543 C1551 1.433 . S
C1544 H1540 0.929 . S
C1544 C1546 1.378 . S
C1544 C1548 1.350 . S
C1545 C1548 1.463 . S
C1545 C1550 1.350 . S
C1545 N1553 1.427 . S
C1546 H1537 0.930 . S
C1546 C1544 1.378 . S
C1546 C1547 1.367 . S
C1547 C1546 1.367 . S
C1547 C1549 1.429 1_565 S
C1548 C1544 1.350 . S
C1548 C1545 1.463 . S
C1548 N1552 1.427 . S
C1549 H1539 0.940 . S
C1549 C1547 1.429 1_545 S
C1549 N1552 1.377 1_545 S
C1550 H1541 0.932 . S
C1550 C1542 1.378 . S
C1550 C1545 1.350 . S
C1551 H1538 0.929 . S
C1551 C1543 1.433 . S
C1551 N1553 1.384 . S
N1552 C1548 1.427 . S
N1552 C1549 1.377 1_565 S
N1553 C1545 1.427 . S
N1553 C1551 1.384 . S
H1554 C1560 0.930 . S
H1555 C1564 0.930 . S
H1556 C1569 0.929 . S
H1557 C1567 0.929 . S
H1558 C1562 0.929 1_556 S
H1559 C1568 0.929 . S
C1560 H1554 0.930 . S
C1560 C1561 1.367 . S
C1560 C1568 1.378 . S
C1561 C1560 1.367 . S
C1561 C1569 1.433 1_554 S
C1562 H1558 0.929 1_554 S
C1562 C1564 1.378 . S
C1562 C1566 1.350 . S
C1563 C1566 1.463 . S
C1563 C1568 1.350 . S
C1563 N1571 1.427 . S
C1564 H1555 0.930 . S
C1564 C1562 1.378 . S
C1564 C1565 1.367 . S
C1565 C1564 1.367 . S
C1565 C1567 1.433 . S
C1566 C1562 1.350 . S
C1566 C1563 1.463 . S
C1566 N1570 1.427 . S
C1567 H1557 0.929 . S
C1567 C1565 1.433 . S
C1567 N1570 1.384 . S
C1568 H1559 0.929 . S
C1568 C1560 1.378 . S
C1568 C1563 1.350 . S
C1569 H1556 0.929 . S
C1569 C1561 1.433 1_556 S
C1569 N1571 1.384 1_556 S
N1570 C1566 1.427 . S
N1570 C1567 1.384 . S
N1571 C1563 1.427 . S
N1571 C1569 1.384 1_554 S
H1572 C1578 0.930 . S
H1573 C1582 0.930 . S
H1574 C1587 0.929 . S
H1575 C1585 0.929 . S
H1576 C1580 0.929 . S
H1577 C1586 0.929 . S
C1578 H1572 0.930 . S
C1578 C1579 1.367 . S
C1578 C1586 1.378 . S
C1579 C1578 1.367 . S
C1579 C1587 1.433 . S
C1580 H1576 0.929 . S
C1580 C1582 1.378 . S
C1580 C1584 1.350 . S
C1581 C1584 1.463 . S
C1581 C1586 1.350 . S
C1581 N1589 1.427 . S
C1582 H1573 0.930 . S
C1582 C1580 1.378 . S
C1582 C1583 1.367 . S
C1583 C1582 1.367 . S
C1583 C1585 1.433 . S
C1584 C1580 1.350 . S
C1584 C1581 1.463 . S
C1584 N1588 1.427 . S
C1585 H1575 0.929 . S
C1585 C1583 1.433 . S
C1585 N1588 1.384 . S
C1586 H1577 0.929 . S
C1586 C1578 1.378 . S
C1586 C1581 1.350 . S
C1587 H1574 0.929 . S
C1587 C1579 1.433 . S
C1587 N1589 1.384 . S
N1588 C1584 1.427 . S
N1588 C1585 1.384 . S
N1589 C1581 1.427 . S
N1589 C1587 1.384 . S
H1590 C1596 0.930 . S
H1591 C1600 0.930 . S
H1592 C1605 0.929 . S
H1593 C1603 0.929 . S
H1594 C1598 0.929 . S
H1595 C1604 0.929 . S
C1596 H1590 0.930 . S
C1596 C1597 1.367 . S
C1596 C1604 1.378 . S
C1597 C1596 1.367 . S
C1597 C1605 1.433 . S
C1598 H1594 0.929 . S
C1598 C1600 1.378 . S
C1598 C1602 1.350 . S
C1599 C1602 1.463 . S
C1599 C1604 1.350 . S
C1599 N1607 1.427 . S
C1600 H1591 0.930 . S
C1600 C1598 1.378 . S
C1600 C1601 1.367 . S
C1601 C1600 1.367 . S
C1601 C1603 1.433 . S
C1602 C1598 1.350 . S
C1602 C1599 1.463 . S
C1602 N1606 1.427 . S
C1603 H1593 0.929 . S
C1603 C1601 1.433 . S
C1603 N1606 1.384 . S
C1604 H1595 0.929 . S
C1604 C1596 1.378 . S
C1604 C1599 1.350 . S
C1605 H1592 0.929 . S
C1605 C1597 1.433 . S
C1605 N1607 1.384 . S
N1606 C1602 1.427 . S
N1606 C1603 1.384 . S
N1607 C1599 1.427 . S
N1607 C1605 1.384 . S
H1608 C1614 0.930 . S
H1609 C1618 0.930 . S
H1610 C1623 0.929 . S
H1611 C1621 0.929 . S
H1612 C1616 0.929 . S
H1613 C1622 0.929 . S
C1614 H1608 0.930 . S
C1614 C1615 1.367 . S
C1614 C1622 1.378 . S
C1615 C1614 1.367 . S
C1615 C1623 1.433 . S
C1616 H1612 0.929 . S
C1616 C1618 1.378 . S
C1616 C1620 1.350 . S
C1617 C1620 1.463 . S
C1617 C1622 1.350 . S
C1617 N1625 1.427 . S
C1618 H1609 0.930 . S
C1618 C1616 1.378 . S
C1618 C1619 1.367 . S
C1619 C1618 1.367 . S
C1619 C1621 1.433 . S
C1620 C1616 1.350 . S
C1620 C1617 1.463 . S
C1620 N1624 1.427 . S
C1621 H1611 0.929 . S
C1621 C1619 1.433 . S
C1621 N1624 1.384 . S
C1622 H1613 0.929 . S
C1622 C1614 1.378 . S
C1622 C1617 1.350 . S
C1623 H1610 0.929 . S
C1623 C1615 1.433 . S
C1623 N1625 1.384 . S
N1624 C1620 1.427 . S
N1624 C1621 1.384 . S
N1625 C1617 1.427 . S
N1625 C1623 1.384 . S
H1626 C1632 0.930 . S
H1627 C1636 0.930 . S
H1628 C1641 0.929 . S
H1629 C1639 0.929 . S
H1630 C1634 0.929 . S
H1631 C1640 0.929 . S
C1632 H1626 0.930 . S
C1632 C1633 1.367 . S
C1632 C1640 1.378 . S
C1633 C1632 1.367 . S
C1633 C1641 1.433 . S
C1634 H1630 0.929 . S
C1634 C1636 1.378 . S
C1634 C1638 1.350 . S
C1635 C1638 1.463 . S
C1635 C1640 1.350 . S
C1635 N1643 1.427 . S
C1636 H1627 0.930 . S
C1636 C1634 1.378 . S
C1636 C1637 1.367 . S
C1637 C1636 1.367 . S
C1637 C1639 1.433 . S
C1638 C1634 1.350 . S
C1638 C1635 1.463 . S
C1638 N1642 1.427 . S
C1639 H1629 0.929 . S
C1639 C1637 1.433 . S
C1639 N1642 1.384 . S
C1640 H1631 0.929 . S
C1640 C1632 1.378 . S
C1640 C1635 1.350 . S
C1641 H1628 0.929 . S
C1641 C1633 1.433 . S
C1641 N1643 1.384 . S
N1642 C1638 1.427 . S
N1642 C1639 1.384 . S
N1643 C1635 1.427 . S
N1643 C1641 1.384 . S
H1644 C1650 0.930 . S
H1645 C1654 0.930 . S
H1646 C1659 0.929 . S
H1647 C1657 0.929 . S
H1648 C1652 0.929 . S
H1649 C1658 0.929 . S
C1650 H1644 0.930 . S
C1650 C1651 1.367 . S
C1650 C1658 1.378 . S
C1651 C1650 1.367 . S
C1651 C1659 1.433 . S
C1652 H1648 0.929 . S
C1652 C1654 1.378 . S
C1652 C1656 1.350 . S
C1653 C1656 1.463 . S
C1653 C1658 1.350 . S
C1653 N1661 1.427 . S
C1654 H1645 0.930 . S
C1654 C1652 1.378 . S
C1654 C1655 1.367 . S
C1655 C1654 1.367 . S
C1655 C1657 1.433 . S
C1656 C1652 1.350 . S
C1656 C1653 1.463 . S
C1656 N1660 1.427 . S
C1657 H1647 0.929 . S
C1657 C1655 1.433 . S
C1657 N1660 1.384 . S
C1658 H1649 0.929 . S
C1658 C1650 1.378 . S
C1658 C1653 1.350 . S
C1659 H1646 0.929 . S
C1659 C1651 1.433 . S
C1659 N1661 1.384 . S
N1660 C1656 1.427 . S
N1660 C1657 1.384 . S
N1661 C1653 1.427 . S
N1661 C1659 1.384 . S
H1662 C1668 0.930 . S
H1663 C1672 0.930 . S
H1664 C1677 0.929 . S
H1665 C1675 0.929 . S
H1666 C1670 0.929 . S
H1667 C1676 0.929 . S
C1668 H1662 0.930 . S
C1668 C1669 1.367 . S
C1668 C1676 1.378 . S
C1669 C1668 1.367 . S
C1669 C1677 1.433 . S
C1670 H1666 0.929 . S
C1670 C1672 1.378 . S
C1670 C1674 1.350 . S
C1671 C1674 1.463 . S
C1671 C1676 1.350 . S
C1671 N1679 1.427 . S
C1672 H1663 0.930 . S
C1672 C1670 1.378 . S
C1672 C1673 1.367 . S
C1673 C1672 1.367 . S
C1673 C1675 1.433 . S
C1674 C1670 1.350 . S
C1674 C1671 1.463 . S
C1674 N1678 1.427 . S
C1675 H1665 0.929 . S
C1675 C1673 1.433 . S
C1675 N1678 1.384 . S
C1676 H1667 0.929 . S
C1676 C1668 1.378 . S
C1676 C1671 1.350 . S
C1677 H1664 0.929 . S
C1677 C1669 1.433 . S
C1677 N1679 1.384 . S
N1678 C1674 1.427 . S
N1678 C1675 1.384 . S
N1679 C1671 1.427 . S
N1679 C1677 1.384 . S
H1680 C1686 0.930 . S
H1681 C1690 0.930 . S
H1682 C1695 0.929 . S
H1683 C1693 0.929 . S
H1684 C1688 0.929 . S
H1685 C1694 0.929 . S
C1686 H1680 0.930 . S
C1686 C1687 1.367 . S
C1686 C1694 1.378 . S
C1687 C1686 1.367 . S
C1687 C1695 1.433 . S
C1688 H1684 0.929 . S
C1688 C1690 1.378 . S
C1688 C1692 1.350 . S
C1689 C1692 1.463 . S
C1689 C1694 1.350 . S
C1689 N1697 1.427 . S
C1690 H1681 0.930 . S
C1690 C1688 1.378 . S
C1690 C1691 1.367 . S
C1691 C1690 1.367 . S
C1691 C1693 1.433 . S
C1692 C1688 1.350 . S
C1692 C1689 1.463 . S
C1692 N1696 1.427 . S
C1693 H1683 0.929 . S
C1693 C1691 1.433 . S
C1693 N1696 1.384 . S
C1694 H1685 0.929 . S
C1694 C1686 1.378 . S
C1694 C1689 1.350 . S
C1695 H1682 0.929 . S
C1695 C1687 1.433 . S
C1695 N1697 1.384 . S
N1696 C1692 1.427 . S
N1696 C1693 1.384 . S
N1697 C1689 1.427 . S
N1697 C1695 1.384 . S
H1698 C1704 0.930 . S
H1699 C1708 0.930 . S
H1700 C1713 0.929 . S
H1701 C1711 0.929 . S
H1702 C1706 0.929 . S
H1703 C1712 0.929 . S
C1704 H1698 0.930 . S
C1704 C1705 1.367 . S
C1704 C1712 1.378 . S
C1705 C1704 1.367 . S
C1705 C1713 1.433 . S
C1706 H1702 0.929 . S
C1706 C1708 1.378 . S
C1706 C1710 1.350 . S
C1707 C1710 1.463 . S
C1707 C1712 1.350 . S
C1707 N1715 1.427 . S
C1708 H1699 0.930 . S
C1708 C1706 1.378 . S
C1708 C1709 1.367 . S
C1709 C1708 1.367 . S
C1709 C1711 1.433 . S
C1710 C1706 1.350 . S
C1710 C1707 1.463 . S
C1710 N1714 1.427 . S
C1711 H1701 0.929 . S
C1711 C1709 1.433 . S
C1711 N1714 1.384 . S
C1712 H1703 0.929 . S
C1712 C1704 1.378 . S
C1712 C1707 1.350 . S
C1713 H1700 0.929 . S
C1713 C1705 1.433 . S
C1713 N1715 1.384 . S
N1714 C1710 1.427 . S
N1714 C1711 1.384 . S
N1715 C1707 1.427 . S
N1715 C1713 1.384 . S
H1716 C1722 0.930 . S
H1717 C1726 0.930 . S
H1718 C1731 0.929 . S
H1719 C1729 0.929 . S
H1720 C1724 0.929 . S
H1721 C1730 0.929 . S
C1722 H1716 0.930 . S
C1722 C1723 1.367 . S
C1722 C1730 1.378 . S
C1723 C1722 1.367 . S
C1723 C1731 1.433 . S
C1724 H1720 0.929 . S
C1724 C1726 1.378 . S
C1724 C1728 1.350 . S
C1725 C1728 1.463 . S
C1725 C1730 1.350 . S
C1725 N1733 1.427 . S
C1726 H1717 0.930 . S
C1726 C1724 1.378 . S
C1726 C1727 1.367 . S
C1727 C1726 1.367 . S
C1727 C1729 1.433 . S
C1728 C1724 1.350 . S
C1728 C1725 1.463 . S
C1728 N1732 1.427 . S
C1729 H1719 0.929 . S
C1729 C1727 1.433 . S
C1729 N1732 1.384 . S
C1730 H1721 0.929 . S
C1730 C1722 1.378 . S
C1730 C1725 1.350 . S
C1731 H1718 0.929 . S
C1731 C1723 1.433 . S
C1731 N1733 1.384 . S
N1732 C1728 1.427 . S
N1732 C1729 1.384 . S
N1733 C1725 1.427 . S
N1733 C1731 1.384 . S
H1734 C1740 0.930 . S
H1735 C1744 0.930 . S
H1736 C1749 0.929 . S
H1737 C1747 0.929 . S
H1738 C1742 0.929 . S
H1739 C1748 0.929 . S
C1740 H1734 0.930 . S
C1740 C1741 1.367 . S
C1740 C1748 1.378 . S
C1741 C1740 1.367 . S
C1741 C1749 1.433 . S
C1742 H1738 0.929 . S
C1742 C1744 1.378 . S
C1742 C1746 1.350 . S
C1743 C1746 1.463 . S
C1743 C1748 1.350 . S
C1743 N1751 1.427 . S
C1744 H1735 0.930 . S
C1744 C1742 1.378 . S
C1744 C1745 1.367 . S
C1745 C1744 1.367 . S
C1745 C1747 1.433 . S
C1746 C1742 1.350 . S
C1746 C1743 1.463 . S
C1746 N1750 1.427 . S
C1747 H1737 0.929 . S
C1747 C1745 1.433 . S
C1747 N1750 1.384 . S
C1748 H1739 0.929 . S
C1748 C1740 1.378 . S
C1748 C1743 1.350 . S
C1749 H1736 0.929 . S
C1749 C1741 1.433 . S
C1749 N1751 1.384 . S
N1750 C1746 1.427 . S
N1750 C1747 1.384 . S
N1751 C1743 1.427 . S
N1751 C1749 1.384 . S
H1752 C1758 0.930 . S
H1753 C1762 0.930 . S
H1754 C1767 0.929 . S
H1755 C1765 0.929 . S
H1756 C1760 0.929 . S
H1757 C1766 0.929 . S
C1758 H1752 0.930 . S
C1758 C1759 1.367 . S
C1758 C1766 1.378 . S
C1759 C1758 1.367 . S
C1759 C1767 1.433 . S
C1760 H1756 0.929 . S
C1760 C1762 1.378 1_556 S
C1760 C1764 1.350 . S
C1761 C1764 1.463 . S
C1761 C1766 1.350 . S
C1761 N1769 1.427 . S
C1762 H1753 0.930 . S
C1762 C1760 1.378 1_554 S
C1762 C1763 1.367 . S
C1763 C1762 1.367 . S
C1763 C1765 1.433 1_554 S
C1764 C1760 1.350 . S
C1764 C1761 1.463 . S
C1764 N1768 1.427 . S
C1765 H1755 0.929 . S
C1765 C1763 1.433 1_556 S
C1765 N1768 1.384 . S
C1766 H1757 0.929 . S
C1766 C1758 1.378 . S
C1766 C1761 1.350 . S
C1767 H1754 0.929 . S
C1767 C1759 1.433 . S
C1767 N1769 1.384 . S
N1768 C1764 1.427 . S
N1768 C1765 1.384 . S
N1769 C1761 1.427 . S
N1769 C1767 1.384 . S
H1770 C1776 0.930 . S
H1771 C1780 0.930 . S
H1772 C1785 0.929 . S
H1773 C1783 0.929 . S
H1774 C1778 0.929 . S
H1775 C1784 0.929 . S
C1776 H1770 0.930 . S
C1776 C1777 1.367 . S
C1776 C1784 1.378 . S
C1777 C1776 1.367 . S
C1777 C1785 1.433 . S
C1778 H1774 0.929 . S
C1778 C1780 1.378 . S
C1778 C1782 1.350 . S
C1779 C1782 1.463 . S
C1779 C1784 1.350 . S
C1779 N1787 1.427 . S
C1780 H1771 0.930 . S
C1780 C1778 1.378 . S
C1780 C1781 1.367 . S
C1781 C1780 1.367 . S
C1781 C1783 1.433 . S
C1782 C1778 1.350 . S
C1782 C1779 1.463 . S
C1782 N1786 1.427 . S
C1783 H1773 0.929 . S
C1783 C1781 1.433 . S
C1783 N1786 1.384 . S
C1784 H1775 0.929 . S
C1784 C1776 1.378 . S
C1784 C1779 1.350 . S
C1785 H1772 0.929 . S
C1785 C1777 1.433 . S
C1785 N1787 1.384 . S
N1786 C1782 1.427 . S
N1786 C1783 1.384 . S
N1787 C1779 1.427 . S
N1787 C1785 1.384 . S
H1788 C1794 0.930 . S
H1789 C1798 0.930 . S
H1790 C1803 0.929 . S
H1791 C1801 0.929 . S
H1792 C1796 0.929 . S
H1793 C1802 0.929 . S
C1794 H1788 0.930 . S
C1794 C1795 1.367 . S
C1794 C1802 1.378 . S
C1795 C1794 1.367 . S
C1795 C1803 1.433 . S
C1796 H1792 0.929 . S
C1796 C1798 1.378 . S
C1796 C1800 1.350 . S
C1797 C1800 1.463 . S
C1797 C1802 1.350 . S
C1797 N1805 1.427 . S
C1798 H1789 0.930 . S
C1798 C1796 1.378 . S
C1798 C1799 1.367 . S
C1799 C1798 1.367 . S
C1799 C1801 1.433 . S
C1800 C1796 1.350 . S
C1800 C1797 1.463 . S
C1800 N1804 1.427 . S
C1801 H1791 0.929 . S
C1801 C1799 1.433 . S
C1801 N1804 1.384 . S
C1802 H1793 0.929 . S
C1802 C1794 1.378 . S
C1802 C1797 1.350 . S
C1803 H1790 0.929 . S
C1803 C1795 1.433 . S
C1803 N1805 1.384 . S
N1804 C1800 1.427 . S
N1804 C1801 1.384 . S
N1805 C1797 1.427 . S
N1805 C1803 1.384 . S
H1806 C1812 0.930 . S
H1807 C1816 0.930 . S
H1808 C1821 0.929 . S
H1809 C1819 0.929 . S
H1810 C1814 0.929 . S
H1811 C1820 0.929 . S
C1812 H1806 0.930 . S
C1812 C1813 1.367 . S
C1812 C1820 1.378 . S
C1813 C1812 1.367 . S
C1813 C1821 1.433 . S
C1814 H1810 0.929 . S
C1814 C1816 1.378 . S
C1814 C1818 1.350 . S
C1815 C1818 1.463 . S
C1815 C1820 1.350 . S
C1815 N1823 1.427 . S
C1816 H1807 0.930 . S
C1816 C1814 1.378 . S
C1816 C1817 1.367 . S
C1817 C1816 1.367 . S
C1817 C1819 1.433 . S
C1818 C1814 1.350 . S
C1818 C1815 1.463 . S
C1818 N1822 1.427 . S
C1819 H1809 0.929 . S
C1819 C1817 1.433 . S
C1819 N1822 1.384 . S
C1820 H1811 0.929 . S
C1820 C1812 1.378 . S
C1820 C1815 1.350 . S
C1821 H1808 0.929 . S
C1821 C1813 1.433 . S
C1821 N1823 1.384 . S
N1822 C1818 1.427 . S
N1822 C1819 1.384 . S
N1823 C1815 1.427 . S
N1823 C1821 1.384 . S
H1824 C1830 0.930 . S
H1825 C1834 0.930 . S
H1826 C1839 0.929 . S
H1827 C1837 0.929 . S
H1828 C1832 0.929 . S
H1829 C1838 0.929 . S
C1830 H1824 0.930 . S
C1830 C1831 1.367 . S
C1830 C1838 1.378 . S
C1831 C1830 1.367 . S
C1831 C1839 1.433 . S
C1832 H1828 0.929 . S
C1832 C1834 1.378 . S
C1832 C1836 1.350 . S
C1833 C1836 1.463 . S
C1833 C1838 1.350 . S
C1833 N1841 1.427 . S
C1834 H1825 0.930 . S
C1834 C1832 1.378 . S
C1834 C1835 1.367 . S
C1835 C1834 1.367 . S
C1835 C1837 1.433 . S
C1836 C1832 1.350 . S
C1836 C1833 1.463 . S
C1836 N1840 1.427 . S
C1837 H1827 0.929 . S
C1837 C1835 1.433 . S
C1837 N1840 1.384 . S
C1838 H1829 0.929 . S
C1838 C1830 1.378 . S
C1838 C1833 1.350 . S
C1839 H1826 0.929 . S
C1839 C1831 1.433 . S
C1839 N1841 1.384 . S
N1840 C1836 1.427 . S
N1840 C1837 1.384 . S
N1841 C1833 1.427 . S
N1841 C1839 1.384 . S
H1842 C1848 0.930 . S
H1843 C1852 0.930 . S
H1844 C1857 0.929 . S
H1845 C1855 0.929 . S
H1846 C1850 0.929 . S
H1847 C1856 0.929 . S
C1848 H1842 0.930 . S
C1848 C1849 1.367 . S
C1848 C1856 1.378 . S
C1849 C1848 1.367 . S
C1849 C1857 1.433 . S
C1850 H1846 0.929 . S
C1850 C1852 1.378 . S
C1850 C1854 1.350 . S
C1851 C1854 1.463 . S
C1851 C1856 1.350 . S
C1851 N1859 1.427 . S
C1852 H1843 0.930 . S
C1852 C1850 1.378 . S
C1852 C1853 1.367 . S
C1853 C1852 1.367 . S
C1853 C1855 1.433 . S
C1854 C1850 1.350 . S
C1854 C1851 1.463 . S
C1854 N1858 1.427 . S
C1855 H1845 0.929 . S
C1855 C1853 1.433 . S
C1855 N1858 1.384 . S
C1856 H1847 0.929 . S
C1856 C1848 1.378 . S
C1856 C1851 1.350 . S
C1857 H1844 0.929 . S
C1857 C1849 1.433 . S
C1857 N1859 1.384 . S
N1858 C1854 1.427 . S
N1858 C1855 1.384 . S
N1859 C1851 1.427 . S
N1859 C1857 1.384 . S
H1860 C1866 0.930 . S
H1861 C1870 0.930 . S
H1862 C1875 0.929 . S
H1863 C1873 0.929 . S
H1864 C1868 0.929 . S
H1865 C1874 0.929 . S
C1866 H1860 0.930 . S
C1866 C1867 1.367 . S
C1866 C1874 1.378 . S
C1867 C1866 1.367 . S
C1867 C1875 1.433 . S
C1868 H1864 0.929 . S
C1868 C1870 1.378 . S
C1868 C1872 1.350 . S
C1869 C1872 1.463 . S
C1869 C1874 1.350 . S
C1869 N1877 1.427 . S
C1870 H1861 0.930 . S
C1870 C1868 1.378 . S
C1870 C1871 1.367 1_655 S
C1871 C1870 1.367 1_455 S
C1871 C1873 1.433 . S
C1872 C1868 1.350 . S
C1872 C1869 1.463 . S
C1872 N1876 1.427 . S
C1873 H1863 0.929 . S
C1873 C1871 1.433 . S
C1873 N1876 1.384 1_455 S
C1874 H1865 0.929 . S
C1874 C1866 1.378 . S
C1874 C1869 1.350 . S
C1875 H1862 0.929 . S
C1875 C1867 1.433 . S
C1875 N1877 1.384 . S
N1876 C1872 1.427 . S
N1876 C1873 1.384 1_655 S
N1877 C1869 1.427 . S
N1877 C1875 1.384 . S
H1878 C1884 0.930 . S
H1879 C1888 0.930 . S
H1880 C1893 0.929 . S
H1881 C1891 0.929 . S
H1882 C1886 0.929 . S
H1883 C1892 0.929 . S
C1884 H1878 0.930 . S
C1884 C1885 1.367 . S
C1884 C1892 1.378 . S
C1885 C1884 1.367 . S
C1885 C1893 1.433 . S
C1886 H1882 0.929 . S
C1886 C1888 1.378 . S
C1886 C1890 1.350 . S
C1887 C1890 1.463 . S
C1887 C1892 1.350 . S
C1887 N1895 1.427 . S
C1888 H1879 0.930 . S
C1888 C1886 1.378 . S
C1888 C1889 1.367 . S
C1889 C1888 1.367 . S
C1889 C1891 1.433 . S
C1890 C1886 1.350 . S
C1890 C1887 1.463 . S
C1890 N1894 1.427 . S
C1891 H1881 0.929 . S
C1891 C1889 1.433 . S
C1891 N1894 1.384 . S
C1892 H1883 0.929 . S
C1892 C1884 1.378 . S
C1892 C1887 1.350 . S
C1893 H1880 0.929 . S
C1893 C1885 1.433 . S
C1893 N1895 1.384 . S
N1894 C1890 1.427 . S
N1894 C1891 1.384 . S
N1895 C1887 1.427 . S
N1895 C1893 1.384 . S
H1896 C1902 0.930 . S
H1897 C1906 0.930 . S
H1898 C1911 0.929 . S
H1899 C1909 0.929 . S
H1900 C1904 0.929 . S
H1901 C1910 0.929 . S
C1902 H1896 0.930 . S
C1902 C1903 1.367 . S
C1902 C1910 1.378 . S
C1903 C1902 1.367 . S
C1903 C1911 1.433 . S
C1904 H1900 0.929 . S
C1904 C1906 1.378 . S
C1904 C1908 1.350 . S
C1905 C1908 1.463 . S
C1905 C1910 1.350 . S
C1905 N1913 1.427 . S
C1906 H1897 0.930 . S
C1906 C1904 1.378 . S
C1906 C1907 1.367 . S
C1907 C1906 1.367 . S
C1907 C1909 1.433 . S
C1908 C1904 1.350 . S
C1908 C1905 1.463 . S
C1908 N1912 1.427 . S
C1909 H1899 0.929 . S
C1909 C1907 1.433 . S
C1909 N1912 1.384 . S
C1910 H1901 0.929 . S
C1910 C1902 1.378 . S
C1910 C1905 1.350 . S
C1911 H1898 0.929 . S
C1911 C1903 1.433 . S
C1911 N1913 1.384 . S
N1912 C1908 1.427 . S
N1912 C1909 1.384 . S
N1913 C1905 1.427 . S
N1913 C1911 1.384 . S
H1914 C1920 0.930 . S
H1915 C1924 0.930 . S
H1916 C1929 0.929 . S
H1917 C1927 0.929 . S
H1918 C1922 0.929 . S
H1919 C1928 0.929 . S
C1920 H1914 0.930 . S
C1920 C1921 1.367 . S
C1920 C1928 1.378 . S
C1921 C1920 1.367 . S
C1921 C1929 1.433 . S
C1922 H1918 0.929 . S
C1922 C1924 1.378 . S
C1922 C1926 1.350 . S
C1923 C1926 1.463 . S
C1923 C1928 1.350 . S
C1923 N1931 1.427 . S
C1924 H1915 0.930 . S
C1924 C1922 1.378 . S
C1924 C1925 1.367 . S
C1925 C1924 1.367 . S
C1925 C1927 1.433 . S
C1926 C1922 1.350 . S
C1926 C1923 1.463 . S
C1926 N1930 1.427 . S
C1927 H1917 0.929 . S
C1927 C1925 1.433 . S
C1927 N1930 1.384 . S
C1928 H1919 0.929 . S
C1928 C1920 1.378 . S
C1928 C1923 1.350 . S
C1929 H1916 0.929 . S
C1929 C1921 1.433 . S
C1929 N1931 1.384 . S
N1930 C1926 1.427 . S
N1930 C1927 1.384 . S
N1931 C1923 1.427 . S
N1931 C1929 1.384 . S
H1932 C1938 0.930 . S
H1933 C1942 0.930 1_455 S
H1934 C1947 0.929 . S
H1935 C1945 0.929 . S
H1936 C1940 0.929 . S
H1937 C1946 0.929 . S
C1938 H1932 0.930 . S
C1938 C1939 1.367 . S
C1938 C1946 1.378 . S
C1939 C1938 1.367 . S
C1939 C1947 1.433 . S
C1940 H1936 0.929 . S
C1940 C1942 1.378 . S
C1940 C1944 1.350 . S
C1941 C1944 1.463 . S
C1941 C1946 1.350 . S
C1941 N1949 1.427 . S
C1942 H1933 0.930 1_655 S
C1942 C1940 1.378 . S
C1942 C1943 1.367 . S
C1943 C1942 1.367 . S
C1943 C1945 1.433 . S
C1944 C1940 1.350 . S
C1944 C1941 1.463 . S
C1944 N1948 1.427 . S
C1945 H1935 0.929 . S
C1945 C1943 1.433 . S
C1945 N1948 1.384 . S
C1946 H1937 0.929 . S
C1946 C1938 1.378 . S
C1946 C1941 1.350 . S
C1947 H1934 0.929 . S
C1947 C1939 1.433 . S
C1947 N1949 1.384 . S
N1948 C1944 1.427 . S
N1948 C1945 1.384 . S
N1949 C1941 1.427 . S
N1949 C1947 1.384 . S
H1950 C1956 0.930 . S
H1951 C1960 0.930 . S
H1952 C1965 0.929 . S
H1953 C1963 0.929 . S
H1954 C1958 0.929 . S
H1955 C1964 0.929 . S
C1956 H1950 0.930 . S
C1956 C1957 1.367 . S
C1956 C1964 1.378 . S
C1957 C1956 1.367 . S
C1957 C1965 1.433 . S
C1958 H1954 0.929 . S
C1958 C1960 1.378 . S
C1958 C1962 1.350 . S
C1959 C1962 1.463 . S
C1959 C1964 1.350 . S
C1959 N1967 1.427 . S
C1960 H1951 0.930 . S
C1960 C1958 1.378 . S
C1960 C1961 1.367 . S
C1961 C1960 1.367 . S
C1961 C1963 1.433 . S
C1962 C1958 1.350 . S
C1962 C1959 1.463 . S
C1962 N1966 1.427 . S
C1963 H1953 0.929 . S
C1963 C1961 1.433 . S
C1963 N1966 1.384 . S
C1964 H1955 0.929 . S
C1964 C1956 1.378 . S
C1964 C1959 1.350 . S
C1965 H1952 0.929 . S
C1965 C1957 1.433 . S
C1965 N1967 1.384 . S
N1966 C1962 1.427 . S
N1966 C1963 1.384 . S
N1967 C1959 1.427 . S
N1967 C1965 1.384 . S
H1968 C1974 0.930 . S
H1969 C1978 0.930 . S
H1970 C1983 0.929 . S
H1971 C1981 0.929 . S
H1972 C1976 0.929 . S
H1973 C1982 0.929 . S
C1974 H1968 0.930 . S
C1974 C1975 1.367 . S
C1974 C1982 1.378 . S
C1975 C1974 1.367 . S
C1975 C1983 1.433 . S
C1976 H1972 0.929 . S
C1976 C1978 1.378 . S
C1976 C1980 1.350 . S
C1977 C1980 1.463 . S
C1977 C1982 1.350 . S
C1977 N1985 1.427 . S
C1978 H1969 0.930 . S
C1978 C1976 1.378 . S
C1978 C1979 1.367 . S
C1979 C1978 1.367 . S
C1979 C1981 1.433 . S
C1980 C1976 1.350 . S
C1980 C1977 1.463 . S
C1980 N1984 1.427 . S
C1981 H1971 0.929 . S
C1981 C1979 1.433 . S
C1981 N1984 1.384 . S
C1982 H1973 0.929 . S
C1982 C1974 1.378 . S
C1982 C1977 1.350 . S
C1983 H1970 0.929 . S
C1983 C1975 1.433 . S
C1983 N1985 1.384 . S
N1984 C1980 1.427 . S
N1984 C1981 1.384 . S
N1985 C1977 1.427 . S
N1985 C1983 1.384 . S
H1986 C1992 0.930 . S
H1987 C1996 0.930 . S
H1988 C2001 0.929 . S
H1989 C1999 0.929 . S
H1990 C1994 0.929 . S
H1991 C2000 0.929 . S
C1992 H1986 0.930 . S
C1992 C1993 1.367 . S
C1992 C2000 1.378 . S
C1993 C1992 1.367 . S
C1993 C2001 1.433 . S
C1994 H1990 0.929 . S
C1994 C1996 1.378 . S
C1994 C1998 1.350 . S
C1995 C1998 1.463 . S
C1995 C2000 1.350 . S
C1995 N2003 1.427 . S
C1996 H1987 0.930 . S
C1996 C1994 1.378 . S
C1996 C1997 1.367 1_565 S
C1997 C1996 1.367 1_545 S
C1997 C1999 1.433 . S
C1998 C1994 1.350 . S
C1998 C1995 1.463 . S
C1998 N2002 1.427 . S
C1999 H1989 0.929 . S
C1999 C1997 1.433 . S
C1999 N2002 1.384 1_545 S
C2000 H1991 0.929 . S
C2000 C1992 1.378 . S
C2000 C1995 1.350 . S
C2001 H1988 0.929 . S
C2001 C1993 1.433 . S
C2001 N2003 1.384 . S
N2002 C1998 1.427 . S
N2002 C1999 1.384 1_565 S
N2003 C1995 1.427 . S
N2003 C2001 1.384 . S
H2004 C2010 0.930 . S
H2005 C2014 0.930 . S
H2006 C2019 0.929 1_545 S
H2007 C2017 0.929 . S
H2008 C2012 0.929 . S
H2009 C2018 0.929 . S
C2010 H2004 0.930 . S
C2010 C2011 1.367 . S
C2010 C2018 1.378 . S
C2011 C2010 1.367 . S
C2011 C2019 1.433 . S
C2012 H2008 0.929 . S
C2012 C2014 1.378 . S
C2012 C2016 1.350 . S
C2013 C2016 1.463 . S
C2013 C2018 1.350 . S
C2013 N2021 1.427 . S
C2014 H2005 0.930 . S
C2014 C2012 1.378 . S
C2014 C2015 1.367 . S
C2015 C2014 1.367 . S
C2015 C2017 1.433 . S
C2016 C2012 1.350 . S
C2016 C2013 1.463 . S
C2016 N2020 1.427 . S
C2017 H2007 0.929 . S
C2017 C2015 1.433 . S
C2017 N2020 1.384 . S
C2018 H2009 0.929 . S
C2018 C2010 1.378 . S
C2018 C2013 1.350 . S
C2019 H2006 0.929 1_565 S
C2019 C2011 1.433 . S
C2019 N2021 1.384 . S
N2020 C2016 1.427 . S
N2020 C2017 1.384 . S
N2021 C2013 1.427 . S
N2021 C2019 1.384 . S
H2022 C2028 0.930 . S
H2023 C2032 0.930 . S
H2024 C2037 0.929 1_556 S
H2025 C2035 0.929 . S
H2026 C2030 0.929 . S
H2027 C2036 0.929 . S
C2028 H2022 0.930 . S
C2028 C2029 1.367 . S
C2028 C2036 1.378 . S
C2029 C2028 1.367 . S
C2029 C2037 1.433 . S
C2030 H2026 0.929 . S
C2030 C2032 1.378 . S
C2030 C2034 1.350 . S
C2031 C2034 1.463 . S
C2031 C2036 1.350 . S
C2031 N2039 1.427 . S
C2032 H2023 0.930 . S
C2032 C2030 1.378 . S
C2032 C2033 1.367 . S
C2033 C2032 1.367 . S
C2033 C2035 1.433 . S
C2034 C2030 1.350 . S
C2034 C2031 1.463 . S
C2034 N2038 1.427 . S
C2035 H2025 0.929 . S
C2035 C2033 1.433 . S
C2035 N2038 1.384 . S
C2036 H2027 0.929 . S
C2036 C2028 1.378 . S
C2036 C2031 1.350 . S
C2037 H2024 0.929 1_554 S
C2037 C2029 1.433 . S
C2037 N2039 1.384 . S
N2038 C2034 1.427 . S
N2038 C2035 1.384 . S
N2039 C2031 1.427 . S
N2039 C2037 1.384 . S
H2040 C2046 0.930 . S
H2041 C2050 0.930 . S
H2042 C2055 0.929 . S
H2043 C2053 0.929 . S
H2044 C2048 0.929 . S
H2045 C2054 0.929 . S
C2046 H2040 0.930 . S
C2046 C2047 1.367 . S
C2046 C2054 1.378 . S
C2047 C2046 1.367 . S
C2047 C2055 1.433 . S
C2048 H2044 0.929 . S
C2048 C2050 1.378 . S
C2048 C2052 1.350 . S
C2049 C2052 1.463 . S
C2049 C2054 1.350 . S
C2049 N2057 1.427 . S
C2050 H2041 0.930 . S
C2050 C2048 1.378 . S
C2050 C2051 1.367 . S
C2051 C2050 1.367 . S
C2051 C2053 1.433 . S
C2052 C2048 1.350 . S
C2052 C2049 1.463 . S
C2052 N2056 1.427 . S
C2053 H2043 0.929 . S
C2053 C2051 1.433 . S
C2053 N2056 1.384 . S
C2054 H2045 0.929 . S
C2054 C2046 1.378 . S
C2054 C2049 1.350 . S
C2055 H2042 0.929 . S
C2055 C2047 1.433 . S
C2055 N2057 1.384 . S
N2056 C2052 1.427 . S
N2056 C2053 1.384 . S
N2057 C2049 1.427 . S
N2057 C2055 1.384 . S
H2058 C2064 0.930 . S
H2059 C2068 0.930 1_556 S
H2060 C2073 0.929 . S
H2061 C2071 0.929 . S
H2062 C2066 0.929 . S
H2063 C2072 0.929 . S
C2064 H2058 0.930 . S
C2064 C2065 1.367 . S
C2064 C2072 1.378 . S
C2065 C2064 1.367 . S
C2065 C2073 1.433 . S
C2066 H2062 0.929 . S
C2066 C2068 1.378 . S
C2066 C2070 1.350 . S
C2067 C2070 1.463 . S
C2067 C2072 1.350 . S
C2067 N2075 1.427 . S
C2068 H2059 0.930 1_554 S
C2068 C2066 1.378 . S
C2068 C2069 1.367 . S
C2069 C2068 1.367 . S
C2069 C2071 1.433 . S
C2070 C2066 1.350 . S
C2070 C2067 1.463 . S
C2070 N2074 1.427 . S
C2071 H2061 0.929 . S
C2071 C2069 1.433 . S
C2071 N2074 1.384 . S
C2072 H2063 0.929 . S
C2072 C2064 1.378 . S
C2072 C2067 1.350 . S
C2073 H2060 0.929 . S
C2073 C2065 1.433 . S
C2073 N2075 1.384 . S
N2074 C2070 1.427 . S
N2074 C2071 1.384 . S
N2075 C2067 1.427 . S
N2075 C2073 1.384 . S
H2076 C2082 0.930 . S
H2077 C2086 0.930 . S
H2078 C2091 0.929 . S
H2079 C2089 0.929 . S
H2080 C2084 0.929 . S
H2081 C2090 0.929 . S
C2082 H2076 0.930 . S
C2082 C2083 1.367 . S
C2082 C2090 1.378 . S
C2083 C2082 1.367 . S
C2083 C2091 1.433 . S
C2084 H2080 0.929 . S
C2084 C2086 1.378 . S
C2084 C2088 1.350 . S
C2085 C2088 1.463 . S
C2085 C2090 1.350 . S
C2085 N2093 1.427 . S
C2086 H2077 0.930 . S
C2086 C2084 1.378 . S
C2086 C2087 1.367 . S
C2087 C2086 1.367 . S
C2087 C2089 1.433 . S
C2088 C2084 1.350 . S
C2088 C2085 1.463 . S
C2088 N2092 1.427 . S
C2089 H2079 0.929 . S
C2089 C2087 1.433 . S
C2089 N2092 1.384 . S
C2090 H2081 0.929 . S
C2090 C2082 1.378 . S
C2090 C2085 1.350 . S
C2091 H2078 0.929 . S
C2091 C2083 1.433 . S
C2091 N2093 1.384 . S
N2092 C2088 1.427 . S
N2092 C2089 1.384 . S
N2093 C2085 1.427 . S
N2093 C2091 1.384 . S
H2094 C2100 0.930 . S
H2095 C2104 0.930 . S
H2096 C2109 0.929 . S
H2097 C2107 0.929 . S
H2098 C2102 0.929 . S
H2099 C2108 0.929 . S
C2100 H2094 0.930 . S
C2100 C2101 1.367 . S
C2100 C2108 1.378 . S
C2101 C2100 1.367 . S
C2101 C2109 1.433 . S
C2102 H2098 0.929 . S
C2102 C2104 1.378 . S
C2102 C2106 1.350 . S
C2103 C2106 1.463 . S
C2103 C2108 1.350 . S
C2103 N2111 1.427 . S
C2104 H2095 0.930 . S
C2104 C2102 1.378 . S
C2104 C2105 1.367 . S
C2105 C2104 1.367 . S
C2105 C2107 1.433 . S
C2106 C2102 1.350 . S
C2106 C2103 1.463 . S
C2106 N2110 1.427 . S
C2107 H2097 0.929 . S
C2107 C2105 1.433 . S
C2107 N2110 1.384 . S
C2108 H2099 0.929 . S
C2108 C2100 1.378 . S
C2108 C2103 1.350 . S
C2109 H2096 0.929 . S
C2109 C2101 1.433 . S
C2109 N2111 1.384 . S
N2110 C2106 1.427 . S
N2110 C2107 1.384 . S
N2111 C2103 1.427 . S
N2111 C2109 1.384 . S
H2112 C2118 0.930 . S
H2113 C2122 0.930 . S
H2114 C2127 0.929 . S
H2115 C2125 0.929 . S
H2116 C2120 0.929 . S
H2117 C2126 0.929 . S
C2118 H2112 0.930 . S
C2118 C2119 1.367 . S
C2118 C2126 1.378 . S
C2119 C2118 1.367 . S
C2119 C2127 1.433 . S
C2120 H2116 0.929 . S
C2120 C2122 1.378 . S
C2120 C2124 1.350 . S
C2121 C2124 1.463 . S
C2121 C2126 1.350 . S
C2121 N2129 1.427 . S
C2122 H2113 0.930 . S
C2122 C2120 1.378 . S
C2122 C2123 1.367 . S
C2123 C2122 1.367 . S
C2123 C2125 1.433 . S
C2124 C2120 1.350 . S
C2124 C2121 1.463 . S
C2124 N2128 1.427 . S
C2125 H2115 0.929 . S
C2125 C2123 1.433 . S
C2125 N2128 1.384 . S
C2126 H2117 0.929 . S
C2126 C2118 1.378 . S
C2126 C2121 1.350 . S
C2127 H2114 0.929 . S
C2127 C2119 1.433 . S
C2127 N2129 1.384 . S
N2128 C2124 1.427 . S
N2128 C2125 1.384 . S
N2129 C2121 1.427 . S
N2129 C2127 1.384 . S
H2130 C2136 0.930 . S
H2131 C2140 0.930 . S
H2132 C2145 0.929 . S
H2133 C2143 0.929 . S
H2134 C2138 0.929 . S
H2135 C2144 0.929 . S
C2136 H2130 0.930 . S
C2136 C2137 1.367 . S
C2136 C2144 1.378 . S
C2137 C2136 1.367 . S
C2137 C2145 1.433 . S
C2138 H2134 0.929 . S
C2138 C2140 1.378 . S
C2138 C2142 1.350 . S
C2139 C2142 1.463 . S
C2139 C2144 1.350 . S
C2139 N2147 1.427 . S
C2140 H2131 0.930 . S
C2140 C2138 1.378 . S
C2140 C2141 1.367 . S
C2141 C2140 1.367 . S
C2141 C2143 1.433 . S
C2142 C2138 1.350 . S
C2142 C2139 1.463 . S
C2142 N2146 1.427 . S
C2143 H2133 0.929 . S
C2143 C2141 1.433 . S
C2143 N2146 1.384 . S
C2144 H2135 0.929 . S
C2144 C2136 1.378 . S
C2144 C2139 1.350 . S
C2145 H2132 0.929 . S
C2145 C2137 1.433 . S
C2145 N2147 1.384 . S
N2146 C2142 1.427 . S
N2146 C2143 1.384 . S
N2147 C2139 1.427 . S
N2147 C2145 1.384 . S
H2148 C2154 0.930 . S
H2149 C2158 0.930 . S
H2150 C2163 0.929 . S
H2151 C2161 0.929 . S
H2152 C2156 0.929 . S
H2153 C2162 0.929 . S
C2154 H2148 0.930 . S
C2154 C2155 1.367 . S
C2154 C2162 1.378 . S
C2155 C2154 1.367 . S
C2155 C2163 1.433 . S
C2156 H2152 0.929 . S
C2156 C2158 1.378 . S
C2156 C2160 1.350 . S
C2157 C2160 1.463 . S
C2157 C2162 1.350 . S
C2157 N2165 1.427 . S
C2158 H2149 0.930 . S
C2158 C2156 1.378 . S
C2158 C2159 1.367 1_556 S
C2159 C2158 1.367 1_554 S
C2159 C2161 1.433 . S
C2160 C2156 1.350 . S
C2160 C2157 1.463 . S
C2160 N2164 1.427 1_556 S
C2161 H2151 0.929 . S
C2161 C2159 1.433 . S
C2161 N2164 1.384 . S
C2162 H2153 0.929 . S
C2162 C2154 1.378 . S
C2162 C2157 1.350 . S
C2163 H2150 0.929 . S
C2163 C2155 1.433 . S
C2163 N2165 1.384 . S
N2164 C2160 1.427 1_554 S
N2164 C2161 1.384 . S
N2165 C2157 1.427 . S
N2165 C2163 1.384 . S
H2166 C2172 0.930 . S
H2167 C2176 0.930 . S
H2168 C2181 0.929 . S
H2169 C2179 0.929 . S
H2170 C2174 0.929 . S
H2171 C2180 0.929 . S
C2172 H2166 0.930 . S
C2172 C2173 1.367 . S
C2172 C2180 1.378 . S
C2173 C2172 1.367 . S
C2173 C2181 1.433 . S
C2174 H2170 0.929 . S
C2174 C2176 1.378 . S
C2174 C2178 1.350 . S
C2175 C2178 1.463 . S
C2175 C2180 1.350 . S
C2175 N2183 1.427 . S
C2176 H2167 0.930 . S
C2176 C2174 1.378 . S
C2176 C2177 1.367 . S
C2177 C2176 1.367 . S
C2177 C2179 1.433 . S
C2178 C2174 1.350 . S
C2178 C2175 1.463 . S
C2178 N2182 1.427 . S
C2179 H2169 0.929 . S
C2179 C2177 1.433 . S
C2179 N2182 1.384 . S
C2180 H2171 0.929 . S
C2180 C2172 1.378 . S
C2180 C2175 1.350 . S
C2181 H2168 0.929 . S
C2181 C2173 1.433 . S
C2181 N2183 1.384 . S
N2182 C2178 1.427 . S
N2182 C2179 1.384 . S
N2183 C2175 1.427 . S
N2183 C2181 1.384 . S
H2184 C2190 0.930 . S
H2185 C2194 0.930 . S
H2186 C2199 0.929 . S
H2187 C2197 0.929 . S
H2188 C2192 0.929 . S
H2189 C2198 0.929 . S
C2190 H2184 0.930 . S
C2190 C2191 1.367 . S
C2190 C2198 1.378 . S
C2191 C2190 1.367 . S
C2191 C2199 1.433 . S
C2192 H2188 0.929 . S
C2192 C2194 1.378 . S
C2192 C2196 1.350 . S
C2193 C2196 1.463 . S
C2193 C2198 1.350 . S
C2193 N2201 1.427 . S
C2194 H2185 0.930 . S
C2194 C2192 1.378 . S
C2194 C2195 1.367 . S
C2195 C2194 1.367 . S
C2195 C2197 1.433 . S
C2196 C2192 1.350 . S
C2196 C2193 1.463 . S
C2196 N2200 1.427 . S
C2197 H2187 0.929 . S
C2197 C2195 1.433 . S
C2197 N2200 1.384 . S
C2198 H2189 0.929 . S
C2198 C2190 1.378 . S
C2198 C2193 1.350 . S
C2199 H2186 0.929 . S
C2199 C2191 1.433 . S
C2199 N2201 1.384 . S
N2200 C2196 1.427 . S
N2200 C2197 1.384 . S
N2201 C2193 1.427 . S
N2201 C2199 1.384 . S
H2202 C2208 0.930 . S
H2203 C2212 0.930 . S
H2204 C2217 0.929 . S
H2205 C2215 0.929 . S
H2206 C2210 0.929 . S
H2207 C2216 0.929 . S
C2208 H2202 0.930 . S
C2208 C2209 1.367 . S
C2208 C2216 1.378 . S
C2209 C2208 1.367 . S
C2209 C2217 1.433 . S
C2210 H2206 0.929 . S
C2210 C2212 1.378 . S
C2210 C2214 1.350 . S
C2211 C2214 1.463 . S
C2211 C2216 1.350 . S
C2211 N2219 1.427 . S
C2212 H2203 0.930 . S
C2212 C2210 1.378 . S
C2212 C2213 1.367 . S
C2213 C2212 1.367 . S
C2213 C2215 1.433 . S
C2214 C2210 1.350 . S
C2214 C2211 1.463 . S
C2214 N2218 1.427 . S
C2215 H2205 0.929 . S
C2215 C2213 1.433 . S
C2215 N2218 1.384 . S
C2216 H2207 0.929 . S
C2216 C2208 1.378 . S
C2216 C2211 1.350 . S
C2217 H2204 0.929 . S
C2217 C2209 1.433 . S
C2217 N2219 1.384 . S
N2218 C2214 1.427 . S
N2218 C2215 1.384 . S
N2219 C2211 1.427 . S
N2219 C2217 1.384 . S
H2220 C2226 0.930 . S
H2221 C2230 0.930 . S
H2222 C2235 0.929 . S
H2223 C2233 0.929 1_655 S
H2224 C2228 0.929 . S
H2225 C2234 0.929 . S
C2226 H2220 0.930 . S
C2226 C2227 1.367 1_655 S
C2226 C2234 1.378 . S
C2227 C2226 1.367 1_455 S
C2227 C2235 1.433 . S
C2228 H2224 0.929 . S
C2228 C2230 1.378 . S
C2228 C2232 1.350 . S
C2229 C2232 1.463 . S
C2229 C2234 1.350 1_455 S
C2229 N2237 1.427 . S
C2230 H2221 0.930 . S
C2230 C2228 1.378 . S
C2230 C2231 1.367 . S
C2231 C2230 1.367 . S
C2231 C2233 1.433 . S
C2232 C2228 1.350 . S
C2232 C2229 1.463 . S
C2232 N2236 1.440 . S
C2233 H2223 0.929 1_455 S
C2233 C2231 1.433 . S
C2233 N2236 1.384 . S
C2234 H2225 0.929 . S
C2234 C2226 1.378 . S
C2234 C2229 1.350 1_655 S
C2235 H2222 0.929 . S
C2235 C2227 1.433 . S
C2235 N2237 1.384 . S
N2236 C2232 1.440 . S
N2236 C2233 1.384 . S
N2237 C2229 1.427 . S
N2237 C2235 1.384 . S
H2238 C2244 0.930 . S
H2239 C2248 0.930 . S
H2240 C2253 0.929 . S
H2241 C2251 0.929 . S
H2242 C2246 0.929 . S
H2243 C2252 0.929 . S
C2244 H2238 0.930 . S
C2244 C2245 1.367 . S
C2244 C2252 1.378 . S
C2245 C2244 1.367 . S
C2245 C2253 1.433 . S
C2246 H2242 0.929 . S
C2246 C2248 1.378 . S
C2246 C2250 1.350 . S
C2247 C2250 1.463 . S
C2247 C2252 1.350 . S
C2247 N2255 1.427 . S
C2248 H2239 0.930 . S
C2248 C2246 1.378 . S
C2248 C2249 1.367 . S
C2249 C2248 1.367 . S
C2249 C2251 1.433 . S
C2250 C2246 1.350 . S
C2250 C2247 1.463 . S
C2250 N2254 1.427 . S
C2251 H2241 0.929 . S
C2251 C2249 1.433 . S
C2251 N2254 1.384 . S
C2252 H2243 0.929 . S
C2252 C2244 1.378 . S
C2252 C2247 1.350 . S
C2253 H2240 0.929 . S
C2253 C2245 1.433 . S
C2253 N2255 1.384 . S
N2254 C2250 1.427 . S
N2254 C2251 1.384 . S
N2255 C2247 1.427 . S
N2255 C2253 1.384 . S
H2256 C2262 0.930 . S
H2257 C2266 0.930 . S
H2258 C2271 0.929 . S
H2259 C2269 0.929 . S
H2260 C2264 0.929 . S
H2261 C2270 0.929 . S
C2262 H2256 0.930 . S
C2262 C2263 1.367 . S
C2262 C2270 1.378 . S
C2263 C2262 1.367 . S
C2263 C2271 1.433 . S
C2264 H2260 0.929 . S
C2264 C2266 1.378 . S
C2264 C2268 1.350 . S
C2265 C2268 1.463 . S
C2265 C2270 1.350 . S
C2265 N2273 1.427 . S
C2266 H2257 0.930 . S
C2266 C2264 1.378 . S
C2266 C2267 1.367 . S
C2267 C2266 1.367 . S
C2267 C2269 1.433 . S
C2268 C2264 1.350 . S
C2268 C2265 1.463 . S
C2268 N2272 1.427 . S
C2269 H2259 0.929 . S
C2269 C2267 1.433 . S
C2269 N2272 1.384 . S
C2270 H2261 0.929 . S
C2270 C2262 1.378 . S
C2270 C2265 1.350 . S
C2271 H2258 0.929 . S
C2271 C2263 1.433 . S
C2271 N2273 1.384 . S
N2272 C2268 1.427 . S
N2272 C2269 1.384 . S
N2273 C2265 1.427 . S
N2273 C2271 1.384 . S
H2274 C2280 0.930 . S
H2275 C2284 0.930 . S
H2276 C2289 0.929 . S
H2277 C2287 0.929 . S
H2278 C2282 0.929 . S
H2279 C2288 0.929 . S
C2280 H2274 0.930 . S
C2280 C2281 1.367 . S
C2280 C2288 1.378 . S
C2281 C2280 1.367 . S
C2281 C2289 1.433 . S
C2282 H2278 0.929 . S
C2282 C2284 1.378 . S
C2282 C2286 1.350 . S
C2283 C2286 1.463 . S
C2283 C2288 1.350 . S
C2283 N2291 1.427 . S
C2284 H2275 0.930 . S
C2284 C2282 1.378 . S
C2284 C2285 1.367 . S
C2285 C2284 1.367 . S
C2285 C2287 1.433 . S
C2286 C2282 1.350 . S
C2286 C2283 1.463 . S
C2286 N2290 1.427 . S
C2287 H2277 0.929 . S
C2287 C2285 1.433 . S
C2287 N2290 1.384 . S
C2288 H2279 0.929 . S
C2288 C2280 1.378 . S
C2288 C2283 1.350 . S
C2289 H2276 0.929 . S
C2289 C2281 1.433 . S
C2289 N2291 1.384 . S
N2290 C2286 1.427 . S
N2290 C2287 1.384 . S
N2291 C2283 1.427 . S
N2291 C2289 1.384 . S
H2292 C2298 0.930 . S
H2293 C2302 0.930 . S
H2294 C2307 0.929 . S
H2295 C2305 0.929 . S
H2296 C2300 0.929 . S
H2297 C2306 0.929 . S
C2298 H2292 0.930 . S
C2298 C2299 1.367 . S
C2298 C2306 1.378 . S
C2299 C2298 1.367 . S
C2299 C2307 1.433 . S
C2300 H2296 0.929 . S
C2300 C2302 1.378 . S
C2300 C2304 1.350 . S
C2301 C2304 1.463 . S
C2301 C2306 1.350 . S
C2301 N2309 1.427 . S
C2302 H2293 0.930 . S
C2302 C2300 1.378 . S
C2302 C2303 1.367 . S
C2303 C2302 1.367 . S
C2303 C2305 1.433 . S
C2304 C2300 1.350 . S
C2304 C2301 1.463 . S
C2304 N2308 1.427 . S
C2305 H2295 0.929 . S
C2305 C2303 1.433 . S
C2305 N2308 1.384 . S
C2306 H2297 0.929 . S
C2306 C2298 1.378 . S
C2306 C2301 1.350 . S
C2307 H2294 0.929 . S
C2307 C2299 1.433 . S
C2307 N2309 1.384 . S
N2308 C2304 1.427 . S
N2308 C2305 1.384 . S
N2309 C2301 1.427 . S
N2309 C2307 1.384 . S
H2310 C2316 0.930 . S
H2311 C2320 0.930 . S
H2312 C2325 0.929 . S
H2313 C2323 0.929 . S
H2314 C2318 0.929 . S
H2315 C2324 0.929 . S
C2316 H2310 0.930 . S
C2316 C2317 1.367 . S
C2316 C2324 1.378 . S
C2317 C2316 1.367 . S
C2317 C2325 1.433 . S
C2318 H2314 0.929 . S
C2318 C2320 1.378 . S
C2318 C2322 1.350 . S
C2319 C2322 1.463 . S
C2319 C2324 1.350 . S
C2319 N2327 1.427 . S
C2320 H2311 0.930 . S
C2320 C2318 1.378 . S
C2320 C2321 1.367 . S
C2321 C2320 1.367 . S
C2321 C2323 1.433 . S
C2322 C2318 1.350 . S
C2322 C2319 1.463 . S
C2322 N2326 1.427 . S
C2323 H2313 0.929 . S
C2323 C2321 1.433 . S
C2323 N2326 1.384 . S
C2324 H2315 0.929 . S
C2324 C2316 1.378 . S
C2324 C2319 1.350 . S
C2325 H2312 0.929 . S
C2325 C2317 1.433 . S
C2325 N2327 1.384 . S
N2326 C2322 1.427 . S
N2326 C2323 1.384 . S
N2327 C2319 1.427 . S
N2327 C2325 1.384 . S
H2328 C2334 0.930 . S
H2329 C2338 0.930 . S
H2330 C2343 0.929 . S
H2331 C2341 0.929 . S
H2332 C2336 0.929 . S
H2333 C2342 0.929 . S
C2334 H2328 0.930 . S
C2334 C2335 1.367 . S
C2334 C2342 1.378 . S
C2335 C2334 1.367 . S
C2335 C2343 1.433 . S
C2336 H2332 0.929 . S
C2336 C2338 1.378 . S
C2336 C2340 1.350 . S
C2337 C2340 1.463 . S
C2337 C2342 1.350 . S
C2337 N2345 1.427 . S
C2338 H2329 0.930 . S
C2338 C2336 1.378 . S
C2338 C2339 1.367 . S
C2339 C2338 1.367 . S
C2339 C2341 1.433 . S
C2340 C2336 1.350 . S
C2340 C2337 1.463 . S
C2340 N2344 1.427 . S
C2341 H2331 0.929 . S
C2341 C2339 1.433 . S
C2341 N2344 1.384 . S
C2342 H2333 0.929 . S
C2342 C2334 1.378 . S
C2342 C2337 1.350 . S
C2343 H2330 0.929 . S
C2343 C2335 1.433 . S
C2343 N2345 1.384 . S
N2344 C2340 1.427 . S
N2344 C2341 1.384 . S
N2345 C2337 1.427 . S
N2345 C2343 1.384 . S
H2346 C2352 0.930 . S
H2347 C2356 0.930 . S
H2348 C2361 0.929 . S
H2349 C2359 0.929 . S
H2350 C2354 0.929 . S
H2351 C2360 0.929 . S
C2352 H2346 0.930 . S
C2352 C2353 1.367 . S
C2352 C2360 1.378 . S
C2353 C2352 1.367 . S
C2353 C2361 1.433 . S
C2354 H2350 0.929 . S
C2354 C2356 1.378 . S
C2354 C2358 1.350 . S
C2355 C2358 1.463 . S
C2355 C2360 1.350 . S
C2355 N2363 1.427 . S
C2356 H2347 0.930 . S
C2356 C2354 1.378 . S
C2356 C2357 1.367 . S
C2357 C2356 1.367 . S
C2357 C2359 1.433 . S
C2358 C2354 1.350 . S
C2358 C2355 1.463 . S
C2358 N2362 1.427 . S
C2359 H2349 0.929 . S
C2359 C2357 1.433 . S
C2359 N2362 1.384 . S
C2360 H2351 0.929 . S
C2360 C2352 1.378 . S
C2360 C2355 1.350 . S
C2361 H2348 0.929 . S
C2361 C2353 1.433 . S
C2361 N2363 1.384 . S
N2362 C2358 1.427 . S
N2362 C2359 1.384 . S
N2363 C2355 1.427 . S
N2363 C2361 1.384 . S
H2364 C2370 0.930 . S
H2365 C2374 0.930 . S
H2366 C2379 0.929 . S
H2367 C2377 0.929 . S
H2368 C2372 0.929 . S
H2369 C2378 0.929 . S
C2370 H2364 0.930 . S
C2370 C2371 1.367 . S
C2370 C2378 1.378 . S
C2371 C2370 1.367 . S
C2371 C2379 1.433 . S
C2372 H2368 0.929 . S
C2372 C2374 1.378 . S
C2372 C2376 1.350 . S
C2373 C2376 1.463 . S
C2373 C2378 1.350 . S
C2373 N2381 1.427 . S
C2374 H2365 0.930 . S
C2374 C2372 1.378 . S
C2374 C2375 1.367 . S
C2375 C2374 1.367 . S
C2375 C2377 1.433 . S
C2376 C2372 1.350 . S
C2376 C2373 1.463 . S
C2376 N2380 1.427 . S
C2377 H2367 0.929 . S
C2377 C2375 1.433 . S
C2377 N2380 1.384 . S
C2378 H2369 0.929 . S
C2378 C2370 1.378 . S
C2378 C2373 1.350 . S
C2379 H2366 0.929 . S
C2379 C2371 1.433 . S
C2379 N2381 1.384 . S
N2380 C2376 1.427 . S
N2380 C2377 1.384 . S
N2381 C2373 1.427 . S
N2381 C2379 1.384 . S
H2382 C2388 0.930 . S
H2383 C2392 0.930 . S
H2384 C2397 0.929 . S
H2385 C2395 0.929 . S
H2386 C2390 0.929 . S
H2387 C2396 0.929 . S
C2388 H2382 0.930 . S
C2388 C2389 1.367 . S
C2388 C2396 1.378 . S
C2389 C2388 1.367 . S
C2389 C2397 1.433 . S
C2390 H2386 0.929 . S
C2390 C2392 1.378 . S
C2390 C2394 1.350 . S
C2391 C2394 1.463 . S
C2391 C2396 1.350 . S
C2391 N2399 1.427 . S
C2392 H2383 0.930 . S
C2392 C2390 1.378 . S
C2392 C2393 1.367 . S
C2393 C2392 1.367 . S
C2393 C2395 1.433 . S
C2394 C2390 1.350 . S
C2394 C2391 1.463 . S
C2394 N2398 1.427 . S
C2395 H2385 0.929 . S
C2395 C2393 1.433 . S
C2395 N2398 1.384 . S
C2396 H2387 0.929 . S
C2396 C2388 1.378 . S
C2396 C2391 1.350 . S
C2397 H2384 0.929 . S
C2397 C2389 1.433 . S
C2397 N2399 1.384 . S
N2398 C2394 1.427 . S
N2398 C2395 1.384 . S
N2399 C2391 1.427 . S
N2399 C2397 1.384 . S
H2400 C2406 0.930 . S
H2401 C2410 0.930 . S
H2402 C2415 0.929 . S
H2403 C2413 0.929 . S
H2404 C2408 0.929 . S
H2405 C2414 0.929 . S
C2406 H2400 0.930 . S
C2406 C2407 1.367 . S
C2406 C2414 1.378 . S
C2407 C2406 1.367 . S
C2407 C2415 1.433 . S
C2408 H2404 0.929 . S
C2408 C2410 1.378 . S
C2408 C2412 1.350 . S
C2409 C2412 1.463 . S
C2409 C2414 1.350 . S
C2409 N2417 1.427 . S
C2410 H2401 0.930 . S
C2410 C2408 1.378 . S
C2410 C2411 1.367 . S
C2411 C2410 1.367 . S
C2411 C2413 1.433 . S
C2412 C2408 1.350 . S
C2412 C2409 1.463 . S
C2412 N2416 1.427 . S
C2413 H2403 0.929 . S
C2413 C2411 1.433 . S
C2413 N2416 1.384 . S
C2414 H2405 0.929 . S
C2414 C2406 1.378 . S
C2414 C2409 1.350 . S
C2415 H2402 0.929 . S
C2415 C2407 1.433 . S
C2415 N2417 1.384 . S
N2416 C2412 1.427 . S
N2416 C2413 1.384 . S
N2417 C2409 1.427 . S
N2417 C2415 1.384 . S
H2418 C2424 0.930 . S
H2419 C2428 0.930 . S
H2420 C2433 0.929 . S
H2421 C2431 0.929 . S
H2422 C2426 0.929 . S
H2423 C2432 0.929 . S
C2424 H2418 0.930 . S
C2424 C2425 1.367 . S
C2424 C2432 1.378 . S
C2425 C2424 1.367 . S
C2425 C2433 1.433 . S
C2426 H2422 0.929 . S
C2426 C2428 1.378 . S
C2426 C2430 1.350 . S
C2427 C2430 1.463 . S
C2427 C2432 1.350 . S
C2427 N2435 1.427 . S
C2428 H2419 0.930 . S
C2428 C2426 1.378 . S
C2428 C2429 1.367 . S
C2429 C2428 1.367 . S
C2429 C2431 1.433 . S
C2430 C2426 1.350 . S
C2430 C2427 1.463 . S
C2430 N2434 1.427 . S
C2431 H2421 0.929 . S
C2431 C2429 1.433 . S
C2431 N2434 1.384 . S
C2432 H2423 0.929 . S
C2432 C2424 1.378 . S
C2432 C2427 1.350 . S
C2433 H2420 0.929 . S
C2433 C2425 1.433 . S
C2433 N2435 1.384 . S
N2434 C2430 1.427 . S
N2434 C2431 1.384 . S
N2435 C2427 1.427 . S
N2435 C2433 1.384 . S
H2436 C2442 0.930 . S
H2437 C2446 0.930 . S
H2438 C2451 0.929 . S
H2439 C2449 0.929 . S
H2440 C2444 0.929 . S
H2441 C2450 0.929 . S
C2442 H2436 0.930 . S
C2442 C2443 1.367 . S
C2442 C2450 1.378 . S
C2443 C2442 1.367 . S
C2443 C2451 1.433 . S
C2444 H2440 0.929 . S
C2444 C2446 1.378 . S
C2444 C2448 1.350 . S
C2445 C2448 1.463 . S
C2445 C2450 1.350 . S
C2445 N2453 1.427 . S
C2446 H2437 0.930 . S
C2446 C2444 1.378 . S
C2446 C2447 1.367 . S
C2447 C2446 1.367 . S
C2447 C2449 1.433 . S
C2448 C2444 1.350 . S
C2448 C2445 1.463 . S
C2448 N2452 1.427 . S
C2449 H2439 0.929 . S
C2449 C2447 1.433 . S
C2449 N2452 1.384 . S
C2450 H2441 0.929 . S
C2450 C2442 1.378 . S
C2450 C2445 1.350 . S
C2451 H2438 0.929 . S
C2451 C2443 1.433 . S
C2451 N2453 1.384 . S
N2452 C2448 1.427 . S
N2452 C2449 1.384 . S
N2453 C2445 1.427 . S
N2453 C2451 1.384 . S
H2454 C2460 0.930 . S
H2455 C2464 0.930 . S
H2456 C2469 0.929 . S
H2457 C2467 0.929 1_556 S
H2458 C2462 0.929 . S
H2459 C2468 0.929 . S
C2460 H2454 0.930 . S
C2460 C2461 1.367 . S
C2460 C2468 1.378 . S
C2461 C2460 1.367 . S
C2461 C2469 1.433 . S
C2462 H2458 0.929 . S
C2462 C2464 1.378 . S
C2462 C2466 1.350 . S
C2463 C2466 1.463 . S
C2463 C2468 1.350 . S
C2463 N2471 1.427 . S
C2464 H2455 0.930 . S
C2464 C2462 1.378 . S
C2464 C2465 1.367 1_565 S
C2465 C2464 1.367 1_545 S
C2465 C2467 1.433 . S
C2466 C2462 1.350 . S
C2466 C2463 1.463 . S
C2466 N2470 1.427 1_565 S
C2467 H2457 0.929 1_554 S
C2467 C2465 1.433 . S
C2467 N2470 1.384 . S
C2468 H2459 0.929 . S
C2468 C2460 1.378 . S
C2468 C2463 1.350 . S
C2469 H2456 0.929 . S
C2469 C2461 1.433 . S
C2469 N2471 1.384 . S
N2470 C2466 1.427 1_545 S
N2470 C2467 1.384 . S
N2471 C2463 1.427 . S
N2471 C2469 1.384 . S
H2472 C2478 0.930 . S
H2473 C2482 0.930 . S
H2474 C2487 0.929 . S
H2475 C2485 0.929 . S
H2476 C2480 0.929 . S
H2477 C2486 0.929 . S
C2478 H2472 0.930 . S
C2478 C2479 1.367 . S
C2478 C2486 1.378 . S
C2479 C2478 1.367 . S
C2479 C2487 1.433 . S
C2480 H2476 0.929 . S
C2480 C2482 1.378 . S
C2480 C2484 1.350 . S
C2481 C2484 1.463 . S
C2481 C2486 1.350 . S
C2481 N2489 1.427 . S
C2482 H2473 0.930 . S
C2482 C2480 1.378 . S
C2482 C2483 1.367 . S
C2483 C2482 1.367 . S
C2483 C2485 1.433 . S
C2484 C2480 1.350 . S
C2484 C2481 1.463 . S
C2484 N2488 1.427 . S
C2485 H2475 0.929 . S
C2485 C2483 1.433 . S
C2485 N2488 1.384 . S
C2486 H2477 0.929 . S
C2486 C2478 1.378 . S
C2486 C2481 1.350 . S
C2487 H2474 0.929 . S
C2487 C2479 1.433 . S
C2487 N2489 1.384 . S
N2488 C2484 1.427 . S
N2488 C2485 1.384 . S
N2489 C2481 1.427 . S
N2489 C2487 1.384 . S
H2490 C2496 0.930 . S
H2491 C2500 0.930 . S
H2492 C2505 0.929 . S
H2493 C2503 0.929 . S
H2494 C2498 0.894 1_556 S
H2495 C2504 0.929 . S
C2496 H2490 0.930 . S
C2496 C2497 1.367 . S
C2496 C2504 1.378 . S
C2497 C2496 1.367 . S
C2497 C2505 1.433 1_554 S
C2498 H2494 0.894 1_554 S
C2498 C2500 1.378 . S
C2498 C2502 1.350 . S
C2499 C2502 1.463 . S
C2499 C2504 1.350 . S
C2499 N2507 1.427 1_554 S
C2500 H2491 0.930 . S
C2500 C2498 1.378 . S
C2500 C2501 1.367 . S
C2501 C2500 1.367 . S
C2501 C2503 1.433 . S
C2502 C2498 1.350 . S
C2502 C2499 1.463 . S
C2502 N2506 1.427 . S
C2503 H2493 0.929 . S
C2503 C2501 1.433 . S
C2503 N2506 1.384 . S
C2504 H2495 0.929 . S
C2504 C2496 1.378 . S
C2504 C2499 1.350 . S
C2505 H2492 0.929 . S
C2505 C2497 1.433 1_556 S
C2505 N2507 1.384 . S
N2506 C2502 1.427 . S
N2506 C2503 1.384 . S
N2507 C2499 1.427 1_556 S
N2507 C2505 1.384 . S
H2508 C2514 0.930 . S
H2509 C2518 0.930 . S
H2510 C2523 0.929 . S
H2511 C2521 0.929 . S
H2512 C2516 0.929 . S
H2513 C2522 0.929 . S
C2514 H2508 0.930 . S
C2514 C2515 1.367 . S
C2514 C2522 1.378 . S
C2515 C2514 1.367 . S
C2515 C2523 1.433 . S
C2516 H2512 0.929 . S
C2516 C2518 1.378 . S
C2516 C2520 1.350 . S
C2517 C2520 1.463 . S
C2517 C2522 1.350 . S
C2517 N2525 1.427 . S
C2518 H2509 0.930 . S
C2518 C2516 1.378 . S
C2518 C2519 1.367 . S
C2519 C2518 1.367 . S
C2519 C2521 1.433 . S
C2520 C2516 1.350 . S
C2520 C2517 1.463 . S
C2520 N2524 1.427 . S
C2521 H2511 0.929 . S
C2521 C2519 1.433 . S
C2521 N2524 1.384 . S
C2522 H2513 0.929 . S
C2522 C2514 1.378 . S
C2522 C2517 1.350 . S
C2523 H2510 0.929 . S
C2523 C2515 1.433 . S
C2523 N2525 1.384 . S
N2524 C2520 1.427 . S
N2524 C2521 1.384 . S
N2525 C2517 1.427 . S
N2525 C2523 1.384 . S
H2526 C2532 0.930 . S
H2527 C2536 0.930 . S
H2528 C2541 0.929 . S
H2529 C2539 0.929 . S
H2530 C2534 0.929 . S
H2531 C2540 0.929 . S
C2532 H2526 0.930 . S
C2532 C2533 1.367 . S
C2532 C2540 1.378 . S
C2533 C2532 1.367 . S
C2533 C2541 1.433 . S
C2534 H2530 0.929 . S
C2534 C2536 1.378 . S
C2534 C2538 1.350 . S
C2535 C2538 1.463 . S
C2535 C2540 1.350 . S
C2535 N2543 1.427 . S
C2536 H2527 0.930 . S
C2536 C2534 1.378 . S
C2536 C2537 1.367 . S
C2537 C2536 1.367 . S
C2537 C2539 1.433 . S
C2538 C2534 1.350 . S
C2538 C2535 1.463 . S
C2538 N2542 1.427 . S
C2539 H2529 0.929 . S
C2539 C2537 1.433 . S
C2539 N2542 1.384 . S
C2540 H2531 0.929 . S
C2540 C2532 1.378 . S
C2540 C2535 1.350 . S
C2541 H2528 0.929 . S
C2541 C2533 1.433 . S
C2541 N2543 1.384 . S
N2542 C2538 1.427 . S
N2542 C2539 1.384 . S
N2543 C2535 1.427 . S
N2543 C2541 1.384 . S
C827 C337 1.913 . S
C823 C8 1.916 . S
C841 C22 1.238 . S
C845 C382 1.216 . S
C859 C35 1.560 . S
C863 C406 1.579 . S
C881 N432 1.047 . S
C877 C49 1.007 . S
C895 C23 1.470 . S
C899 N462 1.520 . S
C917 C496 1.441 . S
C913 C34 1.425 . S
C935 C532 1.030 . S
C931 C48 1.018 . S
C949 C9 1.905 . S
C953 C556 1.896 . S
C967 C64 1.082 . S
C971 N350 1.085 . S
C985 C77 0.968 . S
C989 N372 1.008 . S
C1007 C412 1.223 . S
C1003 C92 1.229 . S
C1025 C436 1.877 . S
C1021 C105 1.863 . S
C1039 C63 1.187 . S
C1043 C466 1.203 . S
C1061 C502 1.323 . S
C1057 C78 1.336 . S
C1079 N522 1.116 . S
C1075 C91 1.083 . S
C1097 C562 1.796 . S
C1093 C106 1.794 . S
C1115 C363 1.734 . S
C1111 C107 1.742 . S
C1133 C592 0.932 . S
C1129 C118 0.926 . S
C1147 C135 1.295 . S
C1151 N612 1.331 . S
C1169 C646 1.629 . S
C1165 C146 1.629 . S
C1183 C65 1.065 . S
C1187 N552 1.060 . S
C1205 N402 1.302 1_565 S
C1201 C79 1.269 . S
C1219 C132 1.074 . S
C1223 C682 1.093 . S
C1241 C706 1.001 . S
C1237 C160 0.997 . S
C1255 C177 1.914 . S
C1259 C346 1.871 1_556 S
C1277 C723 0.844 . S
C1273 C188 0.826 . S
C1291 C204 1.883 . S
C1295 C397 1.860 . S
C1309 C219 1.100 . S
C1313 N680 1.104 . S
C1331 N470 1.194 . S
C1327 C190 1.189 . S
C1349 C607 1.512 . S
C1345 C202 1.503 . S
C1367 C543 1.037 . S
C1363 C217 1.016 . S
C1385 C727 1.664 . S
C1381 C175 1.636 . S
C1403 N342 0.901 1_655 S
C1399 C231 0.896 . S
C1417 C246 1.230 . S
C1421 N710 1.234 . S
C1439 C423 0.948 . S
C1435 C259 0.919 . S
C1453 C274 1.913 . S
C1457 C667 1.899 . S
C1471 C232 1.308 . S
C1475 C457 1.278 1_655 S
C1489 C245 0.976 . S
C1493 C633 0.996 . S
C1511 N530 1.113 . S
C1507 C260 1.112 . S
C1525 C273 1.584 . S
C1529 C753 1.602 . S
C1543 C275 1.794 . S
C1547 C352 1.775 1_565 S
C1561 C286 0.989 . S
C1565 C603 1.031 . S
C1579 C303 1.196 . S
C1583 N500 1.200 . S
C1597 C314 1.454 . S
C1601 C637 1.463 . S
C1619 N740 1.009 . S
C1615 C233 1.006 1_565 S
C1637 N410 1.157 . S
C1633 C247 1.154 . S
C1655 C453 1.000 . S
C1651 C300 0.991 . S
C1673 C367 0.999 . S
C1669 C328 1.010 . S
C1687 C36 1.897 . S
C1691 C757 1.900 . S
C1709 C712 1.226 . S
C1705 C50 1.247 . S
C1727 C796 1.552 . S
C1723 C7 1.551 . S
C1741 C21 0.995 . S
C1745 N672 1.041 . S
C1759 C51 1.461 . S
C1763 N582 1.511 . S
C1781 C616 1.421 . S
C1777 C6 1.418 . S
C1799 C652 1.032 . S
C1795 C20 1.017 . S
C1817 C736 1.892 . S
C1813 C37 1.901 . S
C1835 N770 1.027 . S
C1831 C162 1.020 . S
C1849 C119 0.967 . S
C1853 N702 0.985 . S
C1867 C134 1.181 . S
C1871 C802 1.166 . S
C1889 C676 1.871 . S
C1885 C147 1.863 . S
C1907 C586 1.182 . S
C1903 C161 1.168 . S
C1921 C120 1.288 . S
C1925 C622 1.270 . S
C1943 N642 1.093 1_655 S
C1939 C133 1.062 . S
C1957 C148 1.732 . S
C1961 C742 1.736 . S
C1979 C783 1.795 . S
C1975 C149 1.792 . S
C1997 C472 0.861 . S
C1993 C76 0.849 . S
C2015 N492 1.339 . S
C2011 C93 1.308 1_565 S
C2029 C104 1.573 . S
C2033 C526 1.580 . S
C2051 N732 1.075 . S
C2047 C163 1.082 . S
C2065 C121 1.270 . S
C2069 N792 1.294 . S
C2087 C442 1.038 . S
C2083 C90 1.026 . S
C2105 C376 0.964 . S
C2101 C62 0.968 . S
C2119 C203 1.648 . S
C2123 C766 1.651 . S
C2141 C393 0.902 . S
C2137 C216 0.881 . S
C2159 C787 1.623 . S
C2155 C174 1.604 . S
C2173 C191 1.132 . S
C2177 N440 1.134 . S
C2191 C218 1.161 . S
C2195 N590 1.167 . S
C2209 C176 1.765 . S
C2213 C487 1.739 . S
C2227 C189 0.971 . S
C2231 C663 0.982 . S
C2245 C205 1.938 . S
C2249 C547 1.902 . S
C2267 N762 0.867 . S
C2263 C329 0.861 . S
C2281 C288 1.191 . S
C2285 N380 1.195 . S
C2303 C813 0.894 . S
C2299 C301 0.891 . S
C2317 C316 1.849 . S
C2321 C427 1.835 . S
C2335 C330 1.373 . S
C2339 C577 1.337 . S
C2357 C513 1.058 . S
C2353 C287 1.024 . S
C2371 C302 1.150 . S
C2375 N650 1.153 . S
C2393 C573 1.627 . S
C2389 C315 1.603 . S
C2411 C772 1.705 . S
C2407 C317 1.731 . S
C2429 C483 1.013 . S
C2425 C244 0.996 . S
C2443 C261 1.172 . S
C2447 N620 1.175 . S
C2465 C517 1.434 . S
C2461 C272 1.428 . S
C2483 N560 1.047 . S
C2479 C331 1.043 . S
C2497 C289 1.128 . S
C2501 N800 1.132 . S
C2519 C693 1.015 . S
C2515 C258 0.982 . S
C2537 C697 1.027 . S
C2533 C230 1.032 . S
