# Generated by pormake.
# Topology llj, (12,3)-cn, num edge types: 1
# Building blocks:
#     Node 0, Type 0, BuildingBlock: QEWDON_clean_sbu_0, # of connection points: 12
#     Node 1, Type 0, BuildingBlock: QEWDON_clean_sbu_0, # of connection points: 12
#     Node 2, Type 1, BuildingBlock: OLANEW_clean_sbu_2, # of connection points: 3
#     Node 3, Type 1, BuildingBlock: OLANEW_clean_sbu_2, # of connection points: 3
#     Node 4, Type 1, BuildingBlock: OLANEW_clean_sbu_2, # of connection points: 3
#     Node 5, Type 1, BuildingBlock: OLANEW_clean_sbu_2, # of connection points: 3
#     Node 6, Type 1, BuildingBlock: OLANEW_clean_sbu_2, # of connection points: 3
#     Node 7, Type 1, BuildingBlock: OLANEW_clean_sbu_2, # of connection points: 3
#     Node 8, Type 1, BuildingBlock: OLANEW_clean_sbu_2, # of connection points: 3
#     Node 9, Type 1, BuildingBlock: OLANEW_clean_sbu_2, # of connection points: 3
#     Edge 10, Type (0, 1), BuildingBlock: KIFKEQ_clean_linker_1, # of connection points: 2
#     Edge 11, Type (0, 1), BuildingBlock: KIFKEQ_clean_linker_1, # of connection points: 2
#     Edge 12, Type (0, 1), BuildingBlock: KIFKEQ_clean_linker_1, # of connection points: 2
#     Edge 13, Type (0, 1), BuildingBlock: KIFKEQ_clean_linker_1, # of connection points: 2
#     Edge 14, Type (0, 1), BuildingBlock: KIFKEQ_clean_linker_1, # of connection points: 2
#     Edge 15, Type (0, 1), BuildingBlock: KIFKEQ_clean_linker_1, # of connection points: 2
#     Edge 16, Type (0, 1), BuildingBlock: KIFKEQ_clean_linker_1, # of connection points: 2
#     Edge 17, Type (0, 1), BuildingBlock: KIFKEQ_clean_linker_1, # of connection points: 2
#     Edge 18, Type (0, 1), BuildingBlock: KIFKEQ_clean_linker_1, # of connection points: 2
#     Edge 19, Type (0, 1), BuildingBlock: KIFKEQ_clean_linker_1, # of connection points: 2
#     Edge 20, Type (0, 1), BuildingBlock: KIFKEQ_clean_linker_1, # of connection points: 2
#     Edge 21, Type (0, 1), BuildingBlock: KIFKEQ_clean_linker_1, # of connection points: 2
#     Edge 22, Type (0, 1), BuildingBlock: KIFKEQ_clean_linker_1, # of connection points: 2
#     Edge 23, Type (0, 1), BuildingBlock: KIFKEQ_clean_linker_1, # of connection points: 2
#     Edge 24, Type (0, 1), BuildingBlock: KIFKEQ_clean_linker_1, # of connection points: 2
#     Edge 25, Type (0, 1), BuildingBlock: KIFKEQ_clean_linker_1, # of connection points: 2
#     Edge 26, Type (0, 1), BuildingBlock: KIFKEQ_clean_linker_1, # of connection points: 2
#     Edge 27, Type (0, 1), BuildingBlock: KIFKEQ_clean_linker_1, # of connection points: 2
#     Edge 28, Type (0, 1), BuildingBlock: KIFKEQ_clean_linker_1, # of connection points: 2
#     Edge 29, Type (0, 1), BuildingBlock: KIFKEQ_clean_linker_1, # of connection points: 2
#     Edge 30, Type (0, 1), BuildingBlock: KIFKEQ_clean_linker_1, # of connection points: 2
#     Edge 31, Type (0, 1), BuildingBlock: KIFKEQ_clean_linker_1, # of connection points: 2
#     Edge 32, Type (0, 1), BuildingBlock: KIFKEQ_clean_linker_1, # of connection points: 2
#     Edge 33, Type (0, 1), BuildingBlock: KIFKEQ_clean_linker_1, # of connection points: 2
# Relax obj value: 0.012
# Max RMSD: 0.104
# Mean RMSD: 0.084
data_MOF--net-llj--node1-QEWDON_clean_sbu_0--node2-OLANEW_clean_sbu_2--edge1-KIFKEQ_clean_linker_1
_symmetry_space_group_name_H-M    P1
_symmetry_Int_Tables_number       1
_symmetry_cell_setting            triclinic
loop_
_symmetry_equiv_pos_as_xyz
'x, y, z'
_cell_length_a     42.177469
_cell_length_b     42.258907
_cell_length_c     26.313057
_cell_angle_alpha  88.000133
_cell_angle_beta   92.244114
_cell_angle_gamma 90.145984
loop_
_atom_site_label
_atom_site_type_symbol
_atom_site_fract_x
_atom_site_fract_y
_atom_site_fract_z
_atom_type_partial_charge
Zn0 Zn 0.96846 0.06664 0.95561 0.0
Zn1 Zn 0.96363 0.0632 0.07353 0.0
O2 O 0.99612 0.06613 0.02029 0.0
H3 H 0.01769 0.05851 0.02268 0.0
C4 C 0.92344 0.00347 0.88259 0.0
O5 O 0.9293 0.01787 0.9254 0.0
Zn6 Zn 0.06975 0.93289 0.07377 0.0
Zn7 Zn 0.07436 0.9314 0.95112 0.0
O8 O 0.04641 0.94364 0.0082 0.0
H9 H 0.02806 0.95722 0.00445 0.0
Zn10 Zn 0.94212 0.94853 0.94749 0.0
O11 O 0.96282 0.97323 0.00477 0.0
Zn12 Zn 0.95806 0.9457 0.06732 0.0
H13 H 0.97779 0.99041 0.00058 0.0
Zn14 Zn 0.07797 0.05702 0.99122 0.0
O15 O 0.06792 0.02206 0.04221 0.0
H16 H 0.05211 0.00627 0.03392 0.0
Zn17 Zn 0.072 0.0433 0.10884 0.0
C18 C 0.0588 0.02677 0.89768 0.0
O19 O 0.03544 0.01794 0.92664 0.0
O20 O 0.9263 0.08887 0.96635 0.0
O21 O 0.92427 0.08879 0.05067 0.0
O22 O 0.11351 0.90567 0.97804 0.0
O23 O 0.11077 0.90993 0.0619 0.0
O24 O 0.91166 0.91367 0.9732 0.0
O25 O 0.92354 0.9127 0.05634 0.0
C26 C 0.0114 0.07317 0.15135 0.0
O27 O 0.10868 0.09004 0.02101 0.0
O28 O 0.10486 0.07886 0.10392 0.0
O29 O 0.05084 0.9161 0.88547 0.0
C30 C 0.91266 0.09659 0.00641 0.0
O31 O 0.98968 0.07994 0.8885 0.0
C32 C 0.01365 0.90627 0.11574 0.0
O33 O 0.92757 0.97374 0.88158 0.0
C34 C 0.12454 0.89984 0.02324 0.0
O35 O 0.08061 0.04433 0.91599 0.0
C36 C 0.94783 0.00223 0.12464 0.0
O37 O 0.9824 0.07881 0.1396 0.0
O38 O 0.02784 0.05974 0.11886 0.0
C39 C 0.90734 0.9027 0.01816 0.0
O40 O 0.04359 0.90344 0.11633 0.0
O41 O 0.00096 0.92658 0.08445 0.0
C42 C 0.08373 0.9817 0.15446 0.0
O43 O 0.94701 0.97222 0.12589 0.0
O44 O 0.95379 0.01699 0.08323 0.0
C45 C 0.11679 0.09496 0.06728 0.0
O46 O 0.08469 0.01084 0.16486 0.0
O47 O 0.07639 0.97419 0.10919 0.0
C48 C 0.02113 0.92075 0.87963 0.0
O49 O 0.00645 0.93615 0.91425 0.0
C50 C 0.01699 0.09264 0.8913 0.0
O51 O 0.03111 0.09578 0.93622 0.0
Zn52 Zn 0.45268 0.5697 0.43203 0.0
Zn53 Zn 0.45278 0.5613 0.55479 0.0
O54 O 0.47889 0.55475 0.49421 0.0
H55 H 0.49619 0.53992 0.49294 0.0
C56 C 0.42054 0.48954 0.3722 0.0
O57 O 0.44068 0.50574 0.40046 0.0
Zn58 Zn 0.55736 0.43579 0.56077 0.0
Zn59 Zn 0.55971 0.43244 0.44318 0.0
O60 O 0.52817 0.43841 0.49903 0.0
H61 H 0.50962 0.45176 0.4952 0.0
Zn62 Zn 0.42946 0.44205 0.45568 0.0
O63 O 0.44449 0.47339 0.50793 0.0
Zn64 Zn 0.44477 0.4479 0.57308 0.0
H65 H 0.45921 0.49031 0.50032 0.0
Zn66 Zn 0.57219 0.56706 0.4496 0.0
O67 O 0.56464 0.52994 0.49827 0.0
H68 H 0.55274 0.51125 0.48924 0.0
Zn69 Zn 0.566 0.55071 0.56528 0.0
C70 C 0.55647 0.53786 0.35279 0.0
O71 O 0.53389 0.52508 0.37979 0.0
O72 O 0.41005 0.58947 0.4491 0.0
O73 O 0.4116 0.58498 0.53378 0.0
O74 O 0.59621 0.40214 0.46678 0.0
O75 O 0.59258 0.40451 0.55051 0.0
O76 O 0.4019 0.40647 0.48653 0.0
O77 O 0.41254 0.41217 0.56911 0.0
C78 C 0.50868 0.57992 0.6102 0.0
O79 O 0.60066 0.60161 0.48108 0.0
O80 O 0.59397 0.58981 0.56301 0.0
O81 O 0.54058 0.4246 0.37093 0.0
C82 C 0.39771 0.59404 0.4917 0.0
O83 O 0.47682 0.58918 0.37134 0.0
C84 C 0.50484 0.42559 0.62487 0.0
O85 O 0.41262 0.4618 0.38702 0.0
C86 C 0.60538 0.39341 0.51181 0.0
O87 O 0.5759 0.55692 0.3737 0.0
C88 C 0.43637 0.50538 0.62612 0.0
O89 O 0.47896 0.58488 0.60724 0.0
O90 O 0.52063 0.56163 0.5788 0.0
C91 C 0.39768 0.39839 0.53288 0.0
O92 O 0.5347 0.42252 0.62383 0.0
O93 O 0.48947 0.43287 0.58376 0.0
C94 C 0.58413 0.49095 0.61333 0.0
O95 O 0.43453 0.47544 0.63101 0.0
O96 O 0.44364 0.5174 0.58313 0.0
C97 C 0.60626 0.60693 0.52799 0.0
O98 O 0.58521 0.52062 0.61882 0.0
O99 O 0.57138 0.48037 0.57283 0.0
C100 C 0.51215 0.43196 0.35789 0.0
O101 O 0.49484 0.44673 0.39006 0.0
C102 C 0.50447 0.60008 0.38054 0.0
O103 O 0.51631 0.59842 0.42747 0.0
O104 O 0.41209 0.25527 0.1393 0.0
Cd105 Cd 0.39092 0.21091 0.09222 0.0
O106 O 0.39013 0.28763 0.08153 0.0
Cd107 Cd 0.38451 0.33244 0.03839 0.0
O108 O 0.39383 0.36398 0.97353 0.0
C109 C 0.42281 0.37075 0.96737 0.0
O110 O 0.4441 0.36038 0.00175 0.0
C111 C 0.40746 0.28335 0.1218 0.0
C112 C 0.32675 0.19942 0.10502 0.0
O113 O 0.34796 0.18555 0.13401 0.0
O114 O 0.33596 0.21925 0.07064 0.0
O115 O 0.74063 0.37228 0.88218 0.0
Cd116 Cd 0.78201 0.35909 0.94653 0.0
O117 O 0.70733 0.38407 0.94017 0.0
Cd118 Cd 0.6656 0.40417 0.97365 0.0
O119 O 0.63346 0.4233 0.0277 0.0
C120 C 0.62677 0.45261 0.02649 0.0
O121 O 0.63828 0.47114 0.99051 0.0
C122 C 0.71355 0.38235 0.89343 0.0
C123 C 0.79074 0.2944 0.96339 0.0
O124 O 0.8006 0.30869 0.92329 0.0
O125 O 0.77633 0.31055 0.99572 0.0
O126 O 0.61053 0.76861 0.13402 0.0
Cd127 Cd 0.62538 0.80974 0.0724 0.0
O128 O 0.61249 0.73513 0.07299 0.0
Cd129 Cd 0.60971 0.6916 0.03055 0.0
O130 O 0.60119 0.66351 0.96338 0.0
C131 C 0.60589 0.6773 0.92062 0.0
O132 O 0.61649 0.70658 0.91976 0.0
C133 C 0.60707 0.7405 0.11913 0.0
C134 C 0.69081 0.81749 0.06948 0.0
O135 O 0.6744 0.83282 0.10038 0.0
O136 O 0.67625 0.79822 0.04007 0.0
O137 O 0.24746 0.59616 0.12023 0.0
Cd138 Cd 0.20825 0.62006 0.0608 0.0
O139 O 0.28366 0.61056 0.06685 0.0
Cd140 Cd 0.32994 0.60978 0.03255 0.0
O141 O 0.36284 0.60132 0.97275 0.0
C142 C 0.35387 0.61053 0.92801 0.0
O143 O 0.32679 0.62572 0.92143 0.0
C144 C 0.27637 0.59677 0.1085 0.0
C145 C 0.20791 0.68565 0.06529 0.0
O146 O 0.19076 0.66832 0.09428 0.0
O147 O 0.22552 0.67186 0.0342 0.0
O148 O 0.89903 0.7486 0.67618 0.0
Cd149 Cd 0.88201 0.70236 0.62975 0.0
O150 O 0.90284 0.77285 0.60202 0.0
Cd151 Cd 0.91175 0.81054 0.54547 0.0
O152 O 0.92092 0.83228 0.47109 0.0
C153 C 0.92637 0.8133 0.43605 0.0
O154 O 0.92604 0.7827 0.44683 0.0
C155 C 0.90622 0.7733 0.65022 0.0
C156 C 0.8164 0.69685 0.61846 0.0
O157 O 0.83168 0.68359 0.6565 0.0
O158 O 0.83217 0.71316 0.5861 0.0
O159 O 0.12469 0.78424 0.41639 0.0
Cd160 Cd 0.13107 0.74316 0.48401 0.0
O161 O 0.12456 0.81892 0.47613 0.0
Cd162 Cd 0.11816 0.86494 0.50998 0.0
O163 O 0.11197 0.90141 0.56557 0.0
C164 C 0.08464 0.91234 0.57368 0.0
O165 O 0.06005 0.90247 0.54638 0.0
C166 C 0.12258 0.81287 0.42911 0.0
C167 C 0.1891 0.71145 0.48554 0.0
O168 O 0.16523 0.70193 0.45851 0.0
O169 O 0.18566 0.73627 0.51143 0.0
O170 O 0.09814 0.26716 0.64023 0.0
Cd171 Cd 0.11686 0.3111 0.58739 0.0
O172 O 0.12379 0.23448 0.59377 0.0
Cd173 Cd 0.13245 0.1879 0.56383 0.0
O174 O 0.11973 0.15632 0.5026 0.0
C175 C 0.09483 0.16543 0.47761 0.0
O176 O 0.08023 0.19087 0.49195 0.0
C177 C 0.10563 0.23903 0.63024 0.0
C178 C 0.1827 0.31511 0.58939 0.0
O179 O 0.16645 0.32994 0.62114 0.0
O180 O 0.16775 0.29808 0.55694 0.0
O181 O 0.7532 0.10026 0.6212 0.0
Cd182 Cd 0.71114 0.11308 0.55799 0.0
O183 O 0.78693 0.1079 0.56103 0.0
Cd184 Cd 0.83231 0.11054 0.5238 0.0
O185 O 0.86459 0.10424 0.46222 0.0
C186 C 0.87356 0.07614 0.45507 0.0
O187 O 0.86457 0.05334 0.48661 0.0
C188 C 0.78166 0.10033 0.60714 0.0
C189 C 0.69815 0.17758 0.55399 0.0
O190 O 0.68376 0.15857 0.58436 0.0
O191 O 0.71876 0.16601 0.52532 0.0
H192 H 0.14882 0.13169 0.99895 0.0
H193 H 0.14356 0.10991 0.1602 0.0
H194 H 0.19643 0.16257 0.01484 0.0
H195 H 0.19104 0.14173 0.17626 0.0
H196 H 0.27599 0.22682 0.05291 0.0
H197 H 0.22118 0.20827 0.05033 0.0
H198 H 0.24641 0.1338 0.16121 0.0
H199 H 0.30084 0.1529 0.1649 0.0
C200 C 0.15743 0.13401 0.03797 0.0
C201 C 0.14263 0.11784 0.0782 0.0
C202 C 0.18469 0.152 0.04715 0.0
C203 C 0.19777 0.15444 0.09682 0.0
C204 C 0.18187 0.13988 0.13745 0.0
C205 C 0.15457 0.12177 0.12825 0.0
C206 C 0.26969 0.20682 0.07738 0.0
C207 C 0.29284 0.19104 0.10858 0.0
C208 C 0.23831 0.19612 0.07575 0.0
C209 C 0.22945 0.16929 0.10506 0.0
C210 C 0.25226 0.1547 0.13847 0.0
C211 C 0.28359 0.16551 0.14032 0.0
H212 H 0.87346 0.11639 0.08028 0.0
H213 H 0.89022 0.12685 0.91957 0.0
H214 H 0.83442 0.15897 0.07184 0.0
H215 H 0.85354 0.17027 0.91174 0.0
H216 H 0.78587 0.24714 0.89643 0.0
H217 H 0.80511 0.19305 0.90902 0.0
H218 H 0.83431 0.21326 0.0642 0.0
H219 H 0.81222 0.26623 0.0523 0.0
C220 C 0.86861 0.12756 0.04311 0.0
C221 C 0.8853 0.1185 0.00081 0.0
C222 C 0.84643 0.15222 0.03828 0.0
C223 C 0.84095 0.16871 0.99125 0.0
C224 C 0.85641 0.15816 0.94853 0.0
C225 C 0.87794 0.13323 0.95313 0.0
C226 C 0.79572 0.23954 0.93351 0.0
C227 C 0.79792 0.2607 0.97328 0.0
C228 C 0.80708 0.20866 0.94074 0.0
C229 C 0.82224 0.19873 0.98726 0.0
C230 C 0.82265 0.2196 0.02794 0.0
C231 C 0.81019 0.25016 0.02114 0.0
H232 H 0.86519 0.87911 0.94733 0.0
H233 H 0.88804 0.87729 0.10908 0.0
H234 H 0.81536 0.85221 0.96317 0.0
H235 H 0.83831 0.8498 0.12471 0.0
H236 H 0.73157 0.79197 0.00357 0.0
H237 H 0.78753 0.80496 0.99387 0.0
H238 H 0.78369 0.86884 0.11816 0.0
H239 H 0.72814 0.85554 0.12838 0.0
C240 C 0.85997 0.87233 0.9862 0.0
C241 C 0.88039 0.8809 0.02698 0.0
C242 C 0.83141 0.85672 0.99525 0.0
C243 C 0.82267 0.84927 0.04527 0.0
C244 C 0.84413 0.85578 0.08581 0.0
C245 C 0.87271 0.87139 0.07678 0.0
C246 C 0.74281 0.80847 0.02924 0.0
C247 C 0.72535 0.82297 0.06643 0.0
C248 C 0.77483 0.81596 0.02357 0.0
C249 C 0.79003 0.83799 0.05512 0.0
C250 C 0.77285 0.85145 0.09365 0.0
C251 C 0.74088 0.84404 0.09923 0.0
H252 H 0.15353 0.86581 0.95171 0.0
H253 H 0.15332 0.87967 0.11375 0.0
H254 H 0.18323 0.81712 0.96707 0.0
H255 H 0.18386 0.8312 0.12897 0.0
H256 H 0.17356 0.72112 0.12776 0.0
H257 H 0.1642 0.77775 0.12117 0.0
H258 H 0.22877 0.78625 0.99784 0.0
H259 H 0.23767 0.72911 0.00378 0.0
C260 C 0.16073 0.85908 0.99055 0.0
C261 C 0.15024 0.8762 0.03156 0.0
C262 C 0.17798 0.83115 0.99937 0.0
C263 C 0.18525 0.81988 0.04935 0.0
C264 C 0.17788 0.83887 0.09007 0.0
C265 C 0.16052 0.86676 0.08128 0.0
C266 C 0.18617 0.73508 0.09974 0.0
C267 C 0.20595 0.72056 0.06576 0.0
C268 C 0.18107 0.76769 0.09629 0.0
C269 C 0.19566 0.78657 0.05881 0.0
C270 C 0.21691 0.77229 0.02673 0.0
C271 C 0.22204 0.73959 0.03021 0.0
H272 H 0.62139 0.62846 0.62291 0.0
H273 H 0.64721 0.63813 0.46573 0.0
H274 H 0.66857 0.65825 0.64849 0.0
H275 H 0.69472 0.66684 0.49138 0.0
H276 H 0.7766 0.72444 0.54522 0.0
H277 H 0.72108 0.71142 0.52641 0.0
H278 H 0.72325 0.64394 0.65383 0.0
H279 H 0.77817 0.65771 0.6735 0.0
C280 C 0.63686 0.63734 0.59372 0.0
C281 C 0.63084 0.6304 0.54235 0.0
C282 C 0.66401 0.65426 0.60843 0.0
C283 C 0.68582 0.6644 0.57216 0.0
C284 C 0.67843 0.65959 0.5204 0.0
C285 C 0.65117 0.64292 0.50565 0.0
C286 C 0.76502 0.70721 0.56967 0.0
C287 C 0.78188 0.69183 0.61049 0.0
C288 C 0.73323 0.69966 0.55878 0.0
C289 C 0.71771 0.67643 0.58828 0.0
C290 C 0.73421 0.66225 0.63063 0.0
C291 C 0.76588 0.66995 0.6417 0.0
H292 H 0.36607 0.614 0.57403 0.0
H293 H 0.3592 0.6117 0.40978 0.0
H294 H 0.31543 0.64203 0.57341 0.0
H295 H 0.30903 0.6399 0.40935 0.0
H296 H 0.20429 0.65998 0.43147 0.0
H297 H 0.25423 0.63097 0.43455 0.0
H298 H 0.29297 0.69448 0.5462 0.0
H299 H 0.24282 0.72338 0.54359 0.0
C300 C 0.35381 0.61943 0.53784 0.0
C301 C 0.36675 0.61058 0.49196 0.0
C302 C 0.3249 0.63565 0.53749 0.0
C303 C 0.30823 0.64317 0.49133 0.0
C304 C 0.32109 0.63414 0.44558 0.0
C305 C 0.34999 0.61811 0.44587 0.0
C306 C 0.22343 0.66779 0.45669 0.0
C307 C 0.21959 0.69405 0.48719 0.0
C308 C 0.2521 0.65123 0.4583 0.0
C309 C 0.27757 0.66045 0.49057 0.0
C310 C 0.27368 0.68659 0.52134 0.0
C311 C 0.24502 0.70327 0.51957 0.0
H312 H 0.37923 0.37723 0.62695 0.0
H313 H 0.35742 0.36863 0.46607 0.0
H314 H 0.33046 0.34894 0.64622 0.0
H315 H 0.30851 0.3413 0.4853 0.0
H316 H 0.22402 0.28561 0.52895 0.0
H317 H 0.28038 0.29687 0.52053 0.0
H318 H 0.27597 0.36555 0.638 0.0
H319 H 0.22009 0.35365 0.64737 0.0
C320 C 0.36437 0.36885 0.59569 0.0
C321 C 0.37197 0.37574 0.54493 0.0
C322 C 0.33631 0.3528 0.60677 0.0
C323 C 0.31527 0.34336 0.56733 0.0
C324 C 0.32418 0.34804 0.51669 0.0
C325 C 0.35223 0.36395 0.50562 0.0
C326 C 0.23525 0.30273 0.55352 0.0
C327 C 0.21751 0.31905 0.58835 0.0
C328 C 0.26751 0.30925 0.5486 0.0
C329 C 0.28267 0.3323 0.57826 0.0
C330 C 0.26524 0.34736 0.61495 0.0
C331 C 0.23305 0.34075 0.62002 0.0
H332 H 0.63158 0.3581 0.43902 0.0
H333 H 0.63024 0.3682 0.6019 0.0
H334 H 0.65966 0.30812 0.45219 0.0
H335 H 0.65893 0.31845 0.61491 0.0
H336 H 0.65667 0.20881 0.61127 0.0
H337 H 0.6412 0.26417 0.60315 0.0
H338 H 0.70718 0.27935 0.48312 0.0
H339 H 0.72236 0.22358 0.49065 0.0
C340 C 0.63797 0.3501 0.47761 0.0
C341 C 0.62814 0.3669 0.51941 0.0
C342 C 0.65421 0.32146 0.48515 0.0
C343 C 0.66105 0.30907 0.53462 0.0
C344 C 0.65338 0.32707 0.57634 0.0
C345 C 0.63711 0.35569 0.56883 0.0
C346 C 0.6681 0.22397 0.58342 0.0
C347 C 0.69055 0.21174 0.55132 0.0
C348 C 0.65944 0.25582 0.57908 0.0
C349 C 0.67301 0.2762 0.54254 0.0
C350 C 0.69612 0.26417 0.51134 0.0
C351 C 0.70485 0.23226 0.51576 0.0
H352 H 0.97829 0.09055 0.23202 0.0
H353 H 0.07398 0.07565 0.18547 0.0
H354 H -0.00142 0.10862 0.31338 0.0
H355 H 0.09457 0.09524 0.26655 0.0
H356 H 0.11909 0.11233 0.43576 0.0
H357 H 0.09928 0.08627 0.35911 0.0
H358 H 0.02459 0.15597 0.33965 0.0
H359 H 0.04369 0.18129 0.41616 0.0
C360 C 0.00374 0.09115 0.23907 0.0
C361 C 0.02456 0.0821 0.20179 0.0
C362 C 0.01539 0.1017 0.28574 0.0
C363 C 0.04821 0.10397 0.29616 0.0
C364 C 0.06913 0.09369 0.25978 0.0
C365 C 0.05737 0.0827 0.21309 0.0
C366 C 0.09832 0.12189 0.41519 0.0
C367 C 0.08291 0.14883 0.43212 0.0
C368 C 0.0871 0.10708 0.37117 0.0
C369 C 0.06025 0.11892 0.34343 0.0
C370 C 0.04494 0.14581 0.36061 0.0
C371 C 0.05605 0.1605 0.40441 0.0
H372 H 0.91135 0.05413 0.13967 0.0
H373 H 0.97465 0.98656 0.21671 0.0
H374 H 0.89833 0.07538 0.22176 0.0
H375 H 0.96264 0.00823 0.29842 0.0
H376 H 0.8934 0.01816 0.42753 0.0
H377 H 0.91614 0.0043 0.34806 0.0
H378 H 0.91587 0.10287 0.29848 0.0
H379 H 0.8922 0.11678 0.37811 0.0
C380 C 0.92308 0.04449 0.17412 0.0
C381 C 0.94381 0.01871 0.17222 0.0
C382 C 0.91573 0.05662 0.22108 0.0
C383 C 0.92913 0.04318 0.26672 0.0
C384 C 0.95137 0.01864 0.26413 0.0
C385 C 0.95839 0.00634 0.21742 0.0
C386 C 0.89848 0.03699 0.40004 0.0
C387 C 0.89075 0.06854 0.40906 0.0
C388 C 0.91176 0.02906 0.35449 0.0
C389 C 0.9178 0.05249 0.31682 0.0
C390 C 0.91112 0.08425 0.32649 0.0
C391 C 0.89775 0.09221 0.37221 0.0
H392 H 0.95218 0.91525 0.14499 0.0
H393 H 0.03508 0.85712 0.17663 0.0
H394 H 0.92718 0.89129 0.21899 0.0
H395 H 0.01017 0.83316 0.25015 0.0
H396 H 0.94736 0.77917 0.358 0.0
H397 H 0.96399 0.79903 0.2751 0.0
H398 H 0.9403 0.89419 0.31456 0.0
H399 H 0.92359 0.87439 0.39772 0.0
C400 C 0.96492 0.8972 0.16706 0.0
C401 C 0.99578 0.88858 0.15501 0.0
C402 C 0.95064 0.88352 0.20965 0.0
C403 C 0.96683 0.86052 0.24049 0.0
C404 C 0.99698 0.85064 0.22688 0.0
C405 C 0.01128 0.86452 0.18474 0.0
C406 C 0.94541 0.8043 0.34892 0.0
C407 C 0.93442 0.82525 0.38463 0.0
C408 C 0.95499 0.81564 0.30146 0.0
C409 C 0.95348 0.84813 0.28849 0.0
C410 C 0.94142 0.86898 0.3234 0.0
C411 C 0.9321 0.85767 0.37113 0.0
H412 H 0.0406 0.94223 0.19596 0.0
H413 H 0.1394 0.96825 0.20566 0.0
H414 H 0.0499 0.90123 0.26303 0.0
H415 H 0.14894 0.92756 0.27338 0.0
H416 H 0.14376 0.87415 0.42918 0.0
H417 H 0.13392 0.9157 0.36347 0.0
H418 H 0.07959 0.84972 0.2733 0.0
H419 H 0.08911 0.80834 0.3393 0.0
C420 C 0.06442 0.93858 0.21189 0.0
C421 C 0.08952 0.95737 0.19485 0.0
C422 C 0.06973 0.91538 0.25038 0.0
C423 C 0.10022 0.91096 0.27303 0.0
C424 C 0.12519 0.93049 0.25672 0.0
C425 C 0.11984 0.95358 0.21795 0.0
C426 C 0.12929 0.8687 0.39573 0.0
C427 C 0.11676 0.83818 0.38971 0.0
C428 C 0.12403 0.89234 0.35781 0.0
C429 C 0.10591 0.88597 0.31334 0.0
C430 C 0.09337 0.85542 0.3074 0.0
C431 C 0.09897 0.83171 0.345 0.0
H432 H 0.01619 0.98893 0.84789 0.0
H433 H 0.10476 0.0387 0.82894 0.0
H434 H 0.02186 0.96455 0.76638 0.0
H435 H 0.10978 0.01542 0.74619 0.0
H436 H 0.12984 0.93332 0.64177 0.0
H437 H 0.12211 0.96447 0.71616 0.0
H438 H 0.02195 0.97166 0.6761 0.0
H439 H 0.02957 0.93958 0.60231 0.0
C440 C 0.03676 0.99488 0.8261 0.0
C441 C 0.06044 0.01507 0.8455 0.0
C442 C 0.03984 0.98116 0.779 0.0
C443 C 0.06651 0.98767 0.74989 0.0
C444 C 0.08933 0.00928 0.76814 0.0
C445 C 0.08636 0.02278 0.81546 0.0
C446 C 0.10619 0.94174 0.64854 0.0
C447 C 0.0803 0.93376 0.61623 0.0
C448 C 0.10178 0.95985 0.69109 0.0
C449 C 0.07138 0.97058 0.70229 0.0
C450 C 0.04561 0.9634 0.66908 0.0
C451 C 0.05002 0.94516 0.62657 0.0
H452 H 0.07817 0.11207 0.88132 0.0
H453 H 0.98836 0.10464 0.79767 0.0
H454 H 0.09989 0.14218 0.8099 0.0
H455 H 0.01015 0.13502 0.72636 0.0
H456 H 0.04708 0.2354 0.66883 0.0
H457 H 0.02612 0.19366 0.72451 0.0
H458 H 0.11322 0.14103 0.71533 0.0
H459 H 0.13425 0.18298 0.65933 0.0
C460 C 0.06324 0.11643 0.84737 0.0
C461 C 0.03142 0.10647 0.84538 0.0
C462 C 0.07576 0.13346 0.80637 0.0
C463 C 0.05658 0.14113 0.76289 0.0
C464 C 0.02532 0.12962 0.75971 0.0
C465 C 0.01291 0.11221 0.80045 0.0
C466 C 0.06154 0.21469 0.67811 0.0
C467 C 0.09218 0.21227 0.65965 0.0
C468 C 0.04947 0.1907 0.70958 0.0
C469 C 0.06802 0.16408 0.72397 0.0
C470 C 0.09844 0.1613 0.70463 0.0
C471 C 0.11034 0.18513 0.67238 0.0
H472 H 0.9071 0.06607 0.87461 0.0
H473 H 0.907 0.98051 0.78929 0.0
H474 H 0.87762 0.09329 0.80464 0.0
H475 H 0.87714 0.00763 0.71966 0.0
H476 H 0.83716 0.06953 0.58949 0.0
H477 H 0.87696 0.04994 0.65283 0.0
H478 H 0.82261 0.08828 0.77211 0.0
H479 H 0.78348 0.10856 0.70879 0.0
C480 C 0.9011 0.05315 0.84076 0.0
C481 C 0.90901 0.02099 0.83784 0.0
C482 C 0.88411 0.06873 0.80072 0.0
C483 C 0.87478 0.05253 0.75682 0.0
C484 C 0.88417 0.02085 0.75279 0.0
C485 C 0.9011 0.00524 0.79289 0.0
C486 C 0.83429 0.07466 0.62902 0.0
C487 C 0.80745 0.09097 0.64413 0.0
C488 C 0.85684 0.06304 0.66538 0.0
C489 C 0.85297 0.06761 0.71748 0.0
C490 C 0.82657 0.08477 0.73227 0.0
C491 C 0.80401 0.09617 0.69604 0.0
H492 H 0.95682 0.91881 0.86488 0.0
H493 H 0.04385 0.88983 0.79886 0.0
H494 H 0.9263 0.88936 0.80191 0.0
H495 H 0.0133 0.85955 0.73664 0.0
H496 H 0.94937 0.81701 0.61585 0.0
H497 H 0.97483 0.85915 0.66407 0.0
H498 H 0.91947 0.83259 0.7936 0.0
H499 H 0.8935 0.79133 0.74501 0.0
C500 C 0.96945 0.90656 0.83647 0.0
C501 C 0.00277 0.90629 0.83734 0.0
C502 C 0.95194 0.88949 0.80056 0.0
C503 C 0.96737 0.87173 0.76475 0.0
C504 C 0.00066 0.87309 0.76357 0.0
C505 C 0.01819 0.8902 0.79954 0.0
C506 C 0.94188 0.82092 0.65396 0.0
C507 C 0.91914 0.80114 0.67645 0.0
C508 C 0.9568 0.84475 0.68185 0.0
C509 C 0.94916 0.84926 0.73265 0.0
C510 C 0.92558 0.83013 0.75434 0.0
C511 C 0.91085 0.8063 0.72663 0.0
H512 H 0.55199 0.55131 0.67492 0.0
H513 H 0.5073 0.64114 0.63788 0.0
H514 H 0.58107 0.57439 0.74681 0.0
H515 H 0.53545 0.66427 0.71073 0.0
H516 H 0.60811 0.70256 0.82385 0.0
H517 H 0.58917 0.67881 0.74512 0.0
H518 H 0.56432 0.5935 0.8297 0.0
H519 H 0.5835 0.61706 0.90846 0.0
C520 C 0.54937 0.57627 0.68116 0.0
C521 C 0.52833 0.59473 0.65014 0.0
C522 C 0.56544 0.58935 0.72287 0.0
C523 C 0.56062 0.62118 0.73432 0.0
C524 C 0.54003 0.63982 0.70242 0.0
C525 C 0.52382 0.62661 0.66096 0.0
C526 C 0.59892 0.67861 0.82565 0.0
C527 C 0.59706 0.66179 0.87251 0.0
C528 C 0.58797 0.66509 0.78054 0.0
C529 C 0.57511 0.63439 0.78128 0.0
C530 C 0.57438 0.61711 0.82786 0.0
C531 C 0.58519 0.63068 0.87303 0.0
H532 H 0.41902 0.56793 0.62672 0.0
H533 H 0.43925 0.48634 0.72576 0.0
H534 H 0.40526 0.59818 0.69979 0.0
H535 H 0.42399 0.51584 0.79845 0.0
H536 H 0.41064 0.5792 0.92761 0.0
H537 H 0.43611 0.55809 0.85436 0.0
H538 H 0.36152 0.59813 0.75488 0.0
H539 H 0.33673 0.61999 0.82764 0.0
C540 C 0.42109 0.55664 0.66407 0.0
C541 C 0.43041 0.52486 0.67032 0.0
C542 C 0.4128 0.57383 0.706 0.0
C543 C 0.41337 0.55944 0.75506 0.0
C544 C 0.42368 0.52789 0.76143 0.0
C545 C 0.43211 0.51084 0.71958 0.0
C546 C 0.39998 0.5839 0.88999 0.0
C547 C 0.37148 0.60097 0.8835 0.0
C548 C 0.41448 0.57166 0.84804 0.0
C549 C 0.4007 0.57611 0.79876 0.0
C550 C 0.37302 0.59451 0.79214 0.0
C551 C 0.35864 0.60687 0.83401 0.0
H552 H 0.44855 0.39753 0.64756 0.0
H553 H 0.5271 0.44962 0.71308 0.0
H554 H 0.42632 0.39044 0.73156 0.0
H555 H 0.50475 0.44352 0.79684 0.0
H556 H 0.48324 0.38225 0.93895 0.0
H557 H 0.50049 0.40053 0.85621 0.0
H558 H 0.40275 0.41302 0.80379 0.0
H559 H 0.38537 0.39356 0.88669 0.0
C560 C 0.46052 0.40819 0.67979 0.0
C561 C 0.48948 0.42397 0.67411 0.0
C562 C 0.44785 0.40421 0.72794 0.0
C563 C 0.46391 0.41615 0.77116 0.0
C564 C 0.49211 0.43339 0.76467 0.0
C565 C 0.5049 0.43697 0.71674 0.0
C566 C 0.46537 0.38926 0.91008 0.0
C567 C 0.43293 0.38613 0.91929 0.0
C568 C 0.47528 0.39999 0.86257 0.0
C569 C 0.45301 0.40815 0.82312 0.0
C570 C 0.42052 0.40644 0.83306 0.0
C571 C 0.41057 0.3955 0.88067 0.0
H572 H 0.57636 0.49437 0.71506 0.0
H573 H 0.62381 0.44173 0.60321 0.0
H574 H 0.60459 0.46367 0.78325 0.0
H575 H 0.65098 0.40999 0.67079 0.0
H576 H 0.72856 0.4029 0.7988 0.0
H577 H 0.6936 0.42469 0.73106 0.0
H578 H 0.61308 0.40998 0.82563 0.0
H579 H 0.64822 0.38732 0.89349 0.0
C580 C 0.59213 0.47553 0.70521 0.0
C581 C 0.59731 0.46961 0.65404 0.0
C582 C 0.60811 0.45785 0.74411 0.0
C583 C 0.62997 0.43439 0.73236 0.0
C584 C 0.63429 0.42791 0.68103 0.0
C585 C 0.61824 0.44552 0.64228 0.0
C586 C 0.70338 0.40401 0.80516 0.0
C587 C 0.69132 0.39414 0.85217 0.0
C588 C 0.68329 0.41637 0.76615 0.0
C589 C 0.65058 0.41911 0.77304 0.0
C590 C 0.63829 0.40858 0.81958 0.0
C591 C 0.65847 0.39597 0.85867 0.0
H592 H 0.52452 0.49196 0.30066 0.0
H593 H 0.59805 0.56264 0.28519 0.0
H594 H 0.5357 0.4728 0.21677 0.0
H595 H 0.60946 0.54333 0.20188 0.0
H596 H 0.61288 0.51487 0.04028 0.0
H597 H 0.59006 0.53759 0.11454 0.0
H598 H 0.57944 0.44377 0.18244 0.0
H599 H 0.60165 0.42104 0.10798 0.0
C600 C 0.5429 0.50355 0.27924 0.0
C601 C 0.56078 0.52845 0.29992 0.0
C602 C 0.54935 0.49252 0.23124 0.0
C603 C 0.57362 0.50639 0.20278 0.0
C604 C 0.59042 0.53229 0.22254 0.0
C605 C 0.58407 0.54319 0.27055 0.0
C606 C 0.60525 0.49906 0.07071 0.0
C607 C 0.60944 0.46616 0.06846 0.0
C608 C 0.59231 0.5121 0.11337 0.0
C609 C 0.58324 0.49253 0.15462 0.0
C610 C 0.58594 0.45953 0.15118 0.0
C611 C 0.59889 0.4465 0.10858 0.0
H612 H 0.48508 0.61203 0.28126 0.0
H613 H 0.56478 0.62349 0.38729 0.0
H614 H 0.51306 0.64219 0.21641 0.0
H615 H 0.59338 0.65228 0.32183 0.0
H616 H 0.61198 0.74085 0.22206 0.0
H617 H 0.5898 0.70342 0.28292 0.0
H618 H 0.55572 0.64572 0.15974 0.0
H619 H 0.57627 0.6844 0.09861 0.0
C620 C 0.50878 0.62057 0.29049 0.0
C621 C 0.52252 0.61577 0.33965 0.0
C622 C 0.52498 0.63761 0.25311 0.0
C623 C 0.55541 0.64998 0.26395 0.0
C624 C 0.56971 0.64375 0.31245 0.0
C625 C 0.55336 0.62708 0.34996 0.0
C626 C 0.59998 0.72005 0.20787 0.0
C627 C 0.59629 0.71549 0.15534 0.0
C628 C 0.58751 0.69834 0.2429 0.0
C629 C 0.57106 0.67137 0.22638 0.0
C630 C 0.56807 0.66633 0.17382 0.0
C631 C 0.58041 0.68825 0.13866 0.0
H632 H 0.42077 0.55209 0.34176 0.0
H633 H 0.38403 0.46069 0.29965 0.0
H634 H 0.38847 0.57741 0.27301 0.0
H635 H 0.35223 0.48593 0.23046 0.0
H636 H 0.26692 0.54571 0.17117 0.0
H637 H 0.30515 0.51925 0.22966 0.0
H638 H 0.37826 0.58391 0.1805 0.0
H639 H 0.33949 0.61121 0.12311 0.0
C640 C 0.40627 0.53735 0.31724 0.0
C641 C 0.40455 0.50446 0.32657 0.0
C642 C 0.38786 0.55185 0.27773 0.0
C643 C 0.36748 0.53369 0.24675 0.0
C644 C 0.36719 0.50061 0.25438 0.0
C645 C 0.38548 0.48615 0.2939 0.0
C646 C 0.2912 0.55418 0.17262 0.0
C647 C 0.30035 0.58018 0.1419 0.0
C648 C 0.31319 0.53884 0.20579 0.0
C649 C 0.34484 0.54925 0.20928 0.0
C650 C 0.35405 0.5753 0.17854 0.0
C651 C 0.33198 0.59064 0.14513 0.0
H652 H 0.54184 0.40534 0.27945 0.0
H653 H 0.44909 0.42912 0.33053 0.0
H654 H 0.51721 0.37452 0.21189 0.0
H655 H 0.42448 0.39799 0.26367 0.0
H656 H 0.38733 0.34484 0.12773 0.0
H657 H 0.41399 0.38754 0.17329 0.0
H658 H 0.49024 0.32354 0.22005 0.0
H659 H 0.46419 0.28148 0.1735 0.0
C660 C 0.51618 0.40442 0.27579 0.0
C661 C 0.49739 0.41908 0.31106 0.0
C662 C 0.50209 0.38671 0.23717 0.0
C663 C 0.46892 0.38324 0.23313 0.0
C664 C 0.45009 0.4002 0.26564 0.0
C665 C 0.46421 0.41799 0.30418 0.0
C666 C 0.41021 0.34024 0.14652 0.0
C667 C 0.42387 0.30995 0.14661 0.0
C668 C 0.4253 0.36457 0.17306 0.0
C669 C 0.45434 0.35901 0.19998 0.0
C670 C 0.46822 0.32885 0.19892 0.0
C671 C 0.45311 0.30461 0.17274 0.0
loop_
_geom_bond_atom_site_label_1
_geom_bond_atom_site_label_2
_geom_bond_distance
_geom_bond_site_symmetry_2
_ccdc_geom_bond_type
Zn0 O2 1.933 1_556 S
Zn0 O20 1.985 . S
Zn0 O31 1.955 . S
Zn1 O2 1.911 . S
Zn1 O21 1.970 . S
Zn1 O37 1.945 . S
Zn1 O44 1.981 . S
O2 Zn0 1.933 1_554 S
O2 Zn1 1.911 . S
O2 H3 0.841 1_655 S
H3 O2 0.841 1_455 S
C4 O5 1.246 . S
C4 O33 1.288 . S
O5 C4 1.246 . S
Zn6 O8 1.911 . S
Zn6 O23 1.970 . S
Zn6 O40 1.945 . S
Zn6 O47 1.981 . S
Zn7 O8 1.933 1_556 S
Zn7 O22 1.985 . S
Zn7 O29 1.955 . S
O8 Zn6 1.911 . S
O8 Zn7 1.933 1_554 S
O8 H9 0.841 1_455 S
H9 O8 0.841 1_655 S
Zn10 O11 1.933 1_556 S
Zn10 O24 1.985 . S
Zn10 O33 1.950 1_565 S
O11 Zn10 1.933 1_554 S
O11 Zn12 1.911 . S
O11 H13 0.841 1_565 S
Zn12 O11 1.911 . S
Zn12 O25 1.970 . S
Zn12 O41 1.981 . S
Zn12 O43 1.945 . S
H13 O11 0.841 1_545 S
Zn14 O15 1.933 1_556 S
Zn14 O27 1.985 . S
Zn14 O35 1.955 . S
O15 Zn14 1.933 1_554 S
O15 H16 0.841 1_545 S
O15 Zn17 1.911 . S
H16 O15 0.841 1_565 S
Zn17 O15 1.911 . S
Zn17 O28 1.970 . S
Zn17 O38 1.981 . S
Zn17 O46 1.945 . S
C18 O19 1.246 . S
C18 O35 1.276 1_565 S
O19 C18 1.246 . S
O20 Zn0 1.985 . S
O20 C30 1.245 1_556 S
O21 Zn1 1.970 . S
O21 C30 1.263 . S
O22 Zn7 1.985 . S
O22 C34 1.245 1_556 S
O23 Zn6 1.970 . S
O23 C34 1.263 . S
O24 Zn10 1.985 . S
O24 C39 1.245 1_556 S
O25 Zn12 1.970 . S
O25 C39 1.263 . S
C26 O37 1.262 1_455 S
C26 O38 1.245 . S
O27 Zn14 1.985 . S
O27 C45 1.245 1_556 S
O28 Zn17 1.970 . S
O28 C45 1.263 . S
O29 Zn7 1.955 . S
O29 C48 1.276 1_455 S
C30 O20 1.245 1_554 S
C30 O21 1.263 . S
O31 Zn0 1.955 . S
O31 C50 1.276 1_655 S
C32 O40 1.262 1_655 S
C32 O41 1.245 . S
O33 C4 1.288 . S
O33 Zn10 1.950 1_545 S
C34 O22 1.245 1_554 S
C34 O23 1.263 . S
O35 Zn14 1.955 . S
O35 C18 1.276 1_545 S
C36 O43 1.262 1_545 S
C36 O44 1.245 . S
O37 Zn1 1.945 . S
O37 C26 1.262 1_655 S
O38 Zn17 1.981 . S
O38 C26 1.245 . S
C39 O24 1.245 1_554 S
C39 O25 1.263 . S
O40 Zn6 1.945 . S
O40 C32 1.262 1_455 S
O41 Zn12 1.981 . S
O41 C32 1.245 . S
C42 O46 1.262 1_565 S
C42 O47 1.245 . S
O43 Zn12 1.945 . S
O43 C36 1.262 1_565 S
O44 Zn1 1.981 . S
O44 C36 1.245 . S
C45 O27 1.245 1_554 S
C45 O28 1.263 . S
O46 Zn17 1.945 . S
O46 C42 1.262 1_545 S
O47 Zn6 1.981 . S
O47 C42 1.245 . S
C48 O29 1.276 1_655 S
C48 O49 1.246 . S
O49 C48 1.246 . S
C50 O31 1.276 1_455 S
C50 O51 1.246 . S
O51 C50 1.246 . S
Zn52 O54 1.933 . S
Zn52 O72 1.985 . S
Zn52 O83 1.955 . S
Zn53 O54 1.911 . S
Zn53 O73 1.970 . S
Zn53 O89 1.945 . S
Zn53 O96 1.981 . S
O54 Zn52 1.933 . S
O54 Zn53 1.911 . S
O54 H55 0.841 . S
H55 O54 0.841 . S
C56 O57 1.246 . S
C56 O85 1.276 . S
O57 C56 1.246 . S
Zn58 O60 1.911 . S
Zn58 O75 1.970 . S
Zn58 O92 1.945 . S
Zn58 O99 1.981 . S
Zn59 O60 1.933 . S
Zn59 O74 1.985 . S
Zn59 O81 1.955 . S
O60 Zn58 1.911 . S
O60 Zn59 1.933 . S
O60 H61 0.841 . S
H61 O60 0.841 . S
Zn62 O63 1.933 . S
Zn62 O76 1.985 . S
Zn62 O85 1.955 . S
O63 Zn62 1.933 . S
O63 Zn64 1.911 . S
O63 H65 0.841 . S
Zn64 O63 1.911 . S
Zn64 O77 1.970 . S
Zn64 O93 1.981 . S
Zn64 O95 1.945 . S
H65 O63 0.841 . S
Zn66 O67 1.933 . S
Zn66 O79 1.985 . S
Zn66 O87 1.955 . S
O67 Zn66 1.933 . S
O67 H68 0.841 . S
O67 Zn69 1.911 . S
H68 O67 0.841 . S
Zn69 O67 1.911 . S
Zn69 O80 1.970 . S
Zn69 O90 1.981 . S
Zn69 O98 1.945 . S
C70 O71 1.246 . S
C70 O87 1.276 . S
O71 C70 1.246 . S
O72 Zn52 1.985 . S
O72 C82 1.245 . S
O73 Zn53 1.970 . S
O73 C82 1.263 . S
O74 Zn59 1.985 . S
O74 C86 1.245 . S
O75 Zn58 1.970 . S
O75 C86 1.263 . S
O76 Zn62 1.985 . S
O76 C91 1.245 . S
O77 Zn64 1.970 . S
O77 C91 1.263 . S
C78 O89 1.262 . S
C78 O90 1.245 . S
O79 Zn66 1.985 . S
O79 C97 1.245 . S
O80 Zn69 1.970 . S
O80 C97 1.263 . S
O81 Zn59 1.955 . S
O81 C100 1.276 . S
C82 O72 1.245 . S
C82 O73 1.263 . S
O83 Zn52 1.955 . S
O83 C102 1.276 . S
C84 O92 1.262 . S
C84 O93 1.245 . S
O85 C56 1.276 . S
O85 Zn62 1.955 . S
C86 O74 1.245 . S
C86 O75 1.263 . S
O87 Zn66 1.955 . S
O87 C70 1.276 . S
C88 O95 1.262 . S
C88 O96 1.245 . S
O89 Zn53 1.945 . S
O89 C78 1.262 . S
O90 Zn69 1.981 . S
O90 C78 1.245 . S
C91 O76 1.245 . S
C91 O77 1.263 . S
O92 Zn58 1.945 . S
O92 C84 1.262 . S
O93 Zn64 1.981 . S
O93 C84 1.245 . S
C94 O98 1.262 . S
C94 O99 1.245 . S
O95 Zn64 1.945 . S
O95 C88 1.262 . S
O96 Zn53 1.981 . S
O96 C88 1.245 . S
C97 O79 1.245 . S
C97 O80 1.263 . S
O98 Zn69 1.945 . S
O98 C94 1.262 . S
O99 Zn58 1.981 . S
O99 C94 1.245 . S
C100 O81 1.276 . S
C100 O101 1.246 . S
O101 C100 1.246 . S
C102 O83 1.276 . S
C102 O103 1.246 . S
O103 C102 1.246 . S
O104 Cd105 2.300 . S
O104 C111 1.275 . S
Cd105 O104 2.300 . S
Cd105 O113 2.381 . S
Cd105 O114 2.378 . S
O106 Cd107 2.393 . S
O106 C111 1.255 . S
Cd107 O106 2.393 . S
Cd107 O108 2.310 1_554 S
O108 Cd107 2.310 1_556 S
O108 C109 1.232 . S
C109 O108 1.232 . S
C109 O110 1.218 . S
O110 C109 1.218 . S
C111 O104 1.275 . S
C111 O106 1.255 . S
C112 O113 1.258 . S
C112 O114 1.256 . S
O113 Cd105 2.381 . S
O113 C112 1.258 . S
O114 Cd105 2.378 . S
O114 C112 1.256 . S
O115 Cd116 2.300 . S
O115 C122 1.275 . S
Cd116 O115 2.300 . S
Cd116 O124 2.381 . S
Cd116 O125 2.378 1_556 S
O117 Cd118 2.385 1_556 S
O117 C122 1.255 . S
Cd118 O117 2.385 1_554 S
Cd118 O119 2.317 . S
O119 Cd118 2.317 . S
O119 C120 1.232 . S
C120 O119 1.232 . S
C120 O121 1.218 . S
O121 C120 1.218 . S
C122 O115 1.275 . S
C122 O117 1.255 . S
C123 O124 1.259 . S
C123 O125 1.254 1_556 S
O124 Cd116 2.381 . S
O124 C123 1.259 . S
O125 Cd116 2.378 1_554 S
O125 C123 1.254 1_554 S
O126 Cd127 2.300 . S
O126 C133 1.275 . S
Cd127 O126 2.300 . S
Cd127 O135 2.381 . S
Cd127 O136 2.378 . S
O128 Cd129 2.373 1_554 S
O128 C133 1.255 . S
Cd129 O128 2.373 1_556 S
Cd129 O130 2.328 . S
O130 Cd129 2.328 . S
O130 C131 1.232 . S
C131 O130 1.232 . S
C131 O132 1.218 . S
O132 C131 1.218 . S
C133 O126 1.275 . S
C133 O128 1.255 . S
C134 O135 1.258 . S
C134 O136 1.256 . S
O135 Cd127 2.381 . S
O135 C134 1.258 . S
O136 Cd127 2.378 . S
O136 C134 1.256 . S
O137 Cd138 2.300 . S
O137 C144 1.275 . S
Cd138 O137 2.300 . S
Cd138 O146 2.381 . S
Cd138 O147 2.378 . S
O139 Cd140 2.385 1_554 S
O139 C144 1.255 . S
Cd140 O139 2.385 1_556 S
Cd140 O141 2.317 . S
O141 Cd140 2.317 . S
O141 C142 1.232 . S
C142 O141 1.232 . S
C142 O143 1.218 . S
O143 C142 1.218 . S
C144 O137 1.275 . S
C144 O139 1.255 . S
C145 O146 1.258 . S
C145 O147 1.256 . S
O146 Cd138 2.381 . S
O146 C145 1.258 . S
O147 Cd138 2.378 . S
O147 C145 1.256 . S
O148 Cd149 2.300 . S
O148 C155 1.275 . S
Cd149 O148 2.300 . S
Cd149 O157 2.381 . S
Cd149 O158 2.378 . S
O150 Cd151 2.385 . S
O150 C155 1.255 . S
Cd151 O150 2.385 . S
Cd151 O152 2.317 . S
O152 Cd151 2.317 . S
O152 C153 1.232 . S
C153 O152 1.232 . S
C153 O154 1.218 . S
O154 C153 1.218 . S
C155 O148 1.275 . S
C155 O150 1.255 . S
C156 O157 1.258 . S
C156 O158 1.256 . S
O157 Cd149 2.381 . S
O157 C156 1.258 . S
O158 Cd149 2.378 . S
O158 C156 1.256 . S
O159 Cd160 2.300 . S
O159 C166 1.275 . S
Cd160 O159 2.300 . S
Cd160 O168 2.381 . S
Cd160 O169 2.378 . S
O161 Cd162 2.385 . S
O161 C166 1.255 . S
Cd162 O161 2.385 . S
Cd162 O163 2.317 . S
O163 Cd162 2.317 . S
O163 C164 1.232 . S
C164 O163 1.232 . S
C164 O165 1.218 . S
O165 C164 1.218 . S
C166 O159 1.275 . S
C166 O161 1.255 . S
C167 O168 1.258 . S
C167 O169 1.256 . S
O168 Cd160 2.381 . S
O168 C167 1.258 . S
O169 Cd160 2.378 . S
O169 C167 1.256 . S
O170 Cd171 2.300 . S
O170 C177 1.275 . S
Cd171 O170 2.300 . S
Cd171 O179 2.381 . S
Cd171 O180 2.378 . S
O172 Cd173 2.385 . S
O172 C177 1.255 . S
Cd173 O172 2.385 . S
Cd173 O174 2.317 . S
O174 Cd173 2.317 . S
O174 C175 1.232 . S
C175 O174 1.232 . S
C175 O176 1.218 . S
O176 C175 1.218 . S
C177 O170 1.275 . S
C177 O172 1.255 . S
C178 O179 1.258 . S
C178 O180 1.256 . S
O179 Cd171 2.381 . S
O179 C178 1.258 . S
O180 Cd171 2.378 . S
O180 C178 1.256 . S
O181 Cd182 2.300 . S
O181 C188 1.275 . S
Cd182 O181 2.300 . S
Cd182 O190 2.381 . S
Cd182 O191 2.378 . S
O183 Cd184 2.385 . S
O183 C188 1.255 . S
Cd184 O183 2.385 . S
Cd184 O185 2.317 . S
O185 Cd184 2.317 . S
O185 C186 1.232 . S
C186 O185 1.232 . S
C186 O187 1.218 . S
O187 C186 1.218 . S
C188 O181 1.275 . S
C188 O183 1.255 . S
C189 O190 1.258 . S
C189 O191 1.256 . S
O190 Cd182 2.381 . S
O190 C189 1.258 . S
O191 Cd182 2.378 . S
O191 C189 1.256 . S
H192 C200 0.950 1_556 S
H193 C205 0.950 . S
H194 C202 0.950 1_556 S
H195 C204 0.950 . S
H196 C206 0.950 . S
H197 C208 0.950 . S
H198 C210 0.950 . S
H199 C211 0.950 . S
C200 H192 0.950 1_554 S
C200 C201 1.386 . S
C200 C202 1.391 . S
C201 C200 1.386 . S
C201 C205 1.393 . S
C202 H194 0.950 1_554 S
C202 C200 1.391 . S
C202 C203 1.400 . S
C203 C202 1.400 . S
C203 C204 1.398 . S
C203 C209 1.491 . S
C204 H195 0.950 . S
C204 C203 1.398 . S
C204 C205 1.391 . S
C205 H193 0.950 . S
C205 C201 1.393 . S
C205 C204 1.391 . S
C206 H196 0.950 . S
C206 C207 1.386 . S
C206 C208 1.391 . S
C207 C206 1.386 . S
C207 C211 1.393 . S
C208 H197 0.950 . S
C208 C206 1.391 . S
C208 C209 1.400 . S
C209 C203 1.491 . S
C209 C208 1.400 . S
C209 C210 1.398 . S
C210 H198 0.950 . S
C210 C209 1.398 . S
C210 C211 1.391 . S
C211 H199 0.950 . S
C211 C207 1.393 . S
C211 C210 1.391 . S
H212 C220 0.950 . S
H213 C225 0.950 . S
H214 C222 0.950 . S
H215 C224 0.950 . S
H216 C226 0.950 . S
H217 C228 0.950 . S
H218 C230 0.950 . S
H219 C231 0.950 . S
C220 H212 0.950 . S
C220 C221 1.386 . S
C220 C222 1.391 . S
C221 C220 1.386 . S
C221 C225 1.393 1_554 S
C222 H214 0.950 . S
C222 C220 1.391 . S
C222 C223 1.400 . S
C223 C222 1.400 . S
C223 C224 1.398 1_554 S
C223 C229 1.491 . S
C224 H215 0.950 . S
C224 C223 1.398 1_556 S
C224 C225 1.391 . S
C225 H213 0.950 . S
C225 C221 1.393 1_556 S
C225 C224 1.391 . S
C226 H216 0.950 . S
C226 C227 1.378 1_556 S
C226 C228 1.391 . S
C227 C226 1.378 1_554 S
C227 C231 1.400 . S
C228 H217 0.950 . S
C228 C226 1.391 . S
C228 C229 1.400 1_556 S
C229 C223 1.491 . S
C229 C228 1.400 1_554 S
C229 C230 1.398 . S
C230 H218 0.950 . S
C230 C229 1.398 . S
C230 C231 1.391 . S
C231 H219 0.950 . S
C231 C227 1.400 . S
C231 C230 1.391 . S
H232 C240 0.950 . S
H233 C245 0.950 . S
H234 C242 0.950 . S
H235 C244 0.950 . S
H236 C246 0.950 . S
H237 C248 0.950 . S
H238 C250 0.950 . S
H239 C251 0.948 1_556 S
C240 H232 0.950 . S
C240 C241 1.386 1_556 S
C240 C242 1.391 . S
C241 C240 1.386 1_554 S
C241 C245 1.393 . S
C242 H234 0.950 . S
C242 C240 1.391 . S
C242 C243 1.400 1_556 S
C243 C242 1.400 1_554 S
C243 C244 1.398 . S
C243 C249 1.491 . S
C244 H235 0.950 . S
C244 C243 1.398 . S
C244 C245 1.391 . S
C245 H233 0.950 . S
C245 C241 1.393 . S
C245 C244 1.391 . S
C246 H236 0.950 . S
C246 C247 1.386 . S
C246 C248 1.391 . S
C247 C246 1.386 . S
C247 C251 1.395 . S
C248 H237 0.950 . S
C248 C246 1.391 . S
C248 C249 1.400 . S
C249 C243 1.491 . S
C249 C248 1.400 . S
C249 C250 1.398 1_554 S
C250 H238 0.950 . S
C250 C249 1.398 1_556 S
C250 C251 1.390 1_556 S
C251 H239 0.948 1_554 S
C251 C247 1.395 . S
C251 C250 1.390 1_554 S
H252 C260 0.950 . S
H253 C265 0.950 . S
H254 C262 0.950 . S
H255 C264 0.950 . S
H256 C266 0.950 . S
H257 C268 0.950 . S
H258 C270 0.950 . S
H259 C271 0.950 . S
C260 H252 0.950 . S
C260 C261 1.386 1_556 S
C260 C262 1.391 . S
C261 C260 1.386 1_554 S
C261 C265 1.393 . S
C262 H254 0.950 . S
C262 C260 1.391 . S
C262 C263 1.400 1_556 S
C263 C262 1.400 1_554 S
C263 C264 1.398 . S
C263 C269 1.491 . S
C264 H255 0.950 . S
C264 C263 1.398 . S
C264 C265 1.391 . S
C265 H253 0.950 . S
C265 C261 1.393 . S
C265 C264 1.391 . S
C266 H256 0.950 . S
C266 C267 1.386 . S
C266 C268 1.391 . S
C267 C266 1.386 . S
C267 C271 1.393 1_554 S
C268 H257 0.950 . S
C268 C266 1.391 . S
C268 C269 1.400 . S
C269 C263 1.491 . S
C269 C268 1.400 . S
C269 C270 1.398 1_554 S
C270 H258 0.950 . S
C270 C269 1.398 1_556 S
C270 C271 1.391 . S
C271 H259 0.950 . S
C271 C267 1.393 1_556 S
C271 C270 1.391 . S
H272 C280 0.950 . S
H273 C285 0.950 . S
H274 C282 0.950 . S
H275 C284 0.950 . S
H276 C286 0.950 . S
H277 C288 0.950 . S
H278 C290 0.950 . S
H279 C291 0.950 . S
C280 H272 0.950 . S
C280 C281 1.386 . S
C280 C282 1.391 . S
C281 C280 1.386 . S
C281 C285 1.393 . S
C282 H274 0.950 . S
C282 C280 1.391 . S
C282 C283 1.400 . S
C283 C282 1.400 . S
C283 C284 1.398 . S
C283 C289 1.491 . S
C284 H275 0.950 . S
C284 C283 1.398 . S
C284 C285 1.391 . S
C285 H273 0.950 . S
C285 C281 1.393 . S
C285 C284 1.391 . S
C286 H276 0.950 . S
C286 C287 1.386 . S
C286 C288 1.391 . S
C287 C286 1.386 . S
C287 C291 1.393 . S
C288 H277 0.950 . S
C288 C286 1.391 . S
C288 C289 1.400 . S
C289 C283 1.491 . S
C289 C288 1.400 . S
C289 C290 1.398 . S
C290 H278 0.950 . S
C290 C289 1.398 . S
C290 C291 1.391 . S
C291 H279 0.950 . S
C291 C287 1.393 . S
C291 C290 1.391 . S
H292 C300 0.950 . S
H293 C305 0.950 . S
H294 C302 0.950 . S
H295 C304 0.950 . S
H296 C306 0.950 . S
H297 C308 0.950 . S
H298 C310 0.950 . S
H299 C311 0.950 . S
C300 H292 0.950 . S
C300 C301 1.386 . S
C300 C302 1.391 . S
C301 C300 1.386 . S
C301 C305 1.393 . S
C302 H294 0.950 . S
C302 C300 1.391 . S
C302 C303 1.400 . S
C303 C302 1.400 . S
C303 C304 1.398 . S
C303 C309 1.491 . S
C304 H295 0.950 . S
C304 C303 1.398 . S
C304 C305 1.391 . S
C305 H293 0.950 . S
C305 C301 1.393 . S
C305 C304 1.391 . S
C306 H296 0.950 . S
C306 C307 1.386 . S
C306 C308 1.391 . S
C307 C306 1.386 . S
C307 C311 1.393 . S
C308 H297 0.950 . S
C308 C306 1.391 . S
C308 C309 1.400 . S
C309 C303 1.491 . S
C309 C308 1.400 . S
C309 C310 1.398 . S
C310 H298 0.950 . S
C310 C309 1.398 . S
C310 C311 1.391 . S
C311 H299 0.950 . S
C311 C307 1.393 . S
C311 C310 1.391 . S
H312 C320 0.950 . S
H313 C325 0.950 . S
H314 C322 0.950 . S
H315 C324 0.950 . S
H316 C326 0.950 . S
H317 C328 0.950 . S
H318 C330 0.950 . S
H319 C331 0.950 . S
C320 H312 0.950 . S
C320 C321 1.386 . S
C320 C322 1.391 . S
C321 C320 1.386 . S
C321 C325 1.393 . S
C322 H314 0.950 . S
C322 C320 1.391 . S
C322 C323 1.400 . S
C323 C322 1.400 . S
C323 C324 1.398 . S
C323 C329 1.491 . S
C324 H315 0.950 . S
C324 C323 1.398 . S
C324 C325 1.391 . S
C325 H313 0.950 . S
C325 C321 1.393 . S
C325 C324 1.391 . S
C326 H316 0.950 . S
C326 C327 1.386 . S
C326 C328 1.391 . S
C327 C326 1.386 . S
C327 C331 1.393 . S
C328 H317 0.950 . S
C328 C326 1.391 . S
C328 C329 1.400 . S
C329 C323 1.491 . S
C329 C328 1.400 . S
C329 C330 1.398 . S
C330 H318 0.950 . S
C330 C329 1.398 . S
C330 C331 1.391 . S
C331 H319 0.950 . S
C331 C327 1.393 . S
C331 C330 1.391 . S
H332 C340 0.950 . S
H333 C345 0.950 . S
H334 C342 0.950 . S
H335 C344 0.950 . S
H336 C346 0.950 . S
H337 C348 0.950 . S
H338 C350 0.950 . S
H339 C351 0.950 . S
C340 H332 0.950 . S
C340 C341 1.386 . S
C340 C342 1.391 . S
C341 C340 1.386 . S
C341 C345 1.393 . S
C342 H334 0.950 . S
C342 C340 1.391 . S
C342 C343 1.400 . S
C343 C342 1.400 . S
C343 C344 1.398 . S
C343 C349 1.491 . S
C344 H335 0.950 . S
C344 C343 1.398 . S
C344 C345 1.391 . S
C345 H333 0.950 . S
C345 C341 1.393 . S
C345 C344 1.391 . S
C346 H336 0.950 . S
C346 C347 1.386 . S
C346 C348 1.391 . S
C347 C346 1.386 . S
C347 C351 1.393 . S
C348 H337 0.950 . S
C348 C346 1.391 . S
C348 C349 1.400 . S
C349 C343 1.491 . S
C349 C348 1.400 . S
C349 C350 1.398 . S
C350 H338 0.950 . S
C350 C349 1.398 . S
C350 C351 1.391 . S
C351 H339 0.950 . S
C351 C347 1.393 . S
C351 C350 1.391 . S
H352 C360 0.950 1_655 S
H353 C365 0.950 . S
H354 C362 0.950 . S
H355 C364 0.950 . S
H356 C366 0.950 . S
H357 C368 0.950 . S
H358 C370 0.950 . S
H359 C371 0.950 . S
C360 H352 0.950 1_455 S
C360 C361 1.386 . S
C360 C362 1.391 . S
C361 C360 1.386 . S
C361 C365 1.393 . S
C362 H354 0.950 . S
C362 C360 1.391 . S
C362 C363 1.400 . S
C363 C362 1.400 . S
C363 C364 1.398 . S
C363 C369 1.491 . S
C364 H355 0.950 . S
C364 C363 1.398 . S
C364 C365 1.391 . S
C365 H353 0.950 . S
C365 C361 1.393 . S
C365 C364 1.391 . S
C366 H356 0.950 . S
C366 C367 1.386 . S
C366 C368 1.391 . S
C367 C366 1.386 . S
C367 C371 1.393 . S
C368 H357 0.950 . S
C368 C366 1.391 . S
C368 C369 1.400 . S
C369 C363 1.491 . S
C369 C368 1.400 . S
C369 C370 1.398 . S
C370 H358 0.950 . S
C370 C369 1.398 . S
C370 C371 1.391 . S
C371 H359 0.950 . S
C371 C367 1.393 . S
C371 C370 1.391 . S
H372 C380 0.950 . S
H373 C385 0.950 1_565 S
H374 C382 0.950 . S
H375 C384 0.950 . S
H376 C386 0.950 . S
H377 C388 0.950 . S
H378 C390 0.950 . S
H379 C391 0.950 . S
C380 H372 0.950 . S
C380 C381 1.386 . S
C380 C382 1.391 . S
C381 C380 1.386 . S
C381 C385 1.393 . S
C382 H374 0.950 . S
C382 C380 1.391 . S
C382 C383 1.400 . S
C383 C382 1.400 . S
C383 C384 1.398 . S
C383 C389 1.491 . S
C384 H375 0.950 . S
C384 C383 1.398 . S
C384 C385 1.391 . S
C385 H373 0.950 1_545 S
C385 C381 1.393 . S
C385 C384 1.391 . S
C386 H376 0.950 . S
C386 C387 1.386 . S
C386 C388 1.391 . S
C387 C386 1.386 . S
C387 C391 1.393 . S
C388 H377 0.950 . S
C388 C386 1.391 . S
C388 C389 1.400 . S
C389 C383 1.491 . S
C389 C388 1.400 . S
C389 C390 1.398 . S
C390 H378 0.950 . S
C390 C389 1.398 . S
C390 C391 1.391 . S
C391 H379 0.950 . S
C391 C387 1.393 . S
C391 C390 1.391 . S
H392 C400 0.950 . S
H393 C405 0.950 1_455 S
H394 C402 0.950 . S
H395 C404 0.950 1_455 S
H396 C406 0.950 . S
H397 C408 0.950 . S
H398 C410 0.950 . S
H399 C411 0.950 . S
C400 H392 0.950 . S
C400 C401 1.386 . S
C400 C402 1.391 . S
C401 C400 1.386 . S
C401 C405 1.393 . S
C402 H394 0.950 . S
C402 C400 1.391 . S
C402 C403 1.400 . S
C403 C402 1.400 . S
C403 C404 1.398 . S
C403 C409 1.491 . S
C404 H395 0.950 1_655 S
C404 C403 1.398 . S
C404 C405 1.391 . S
C405 H393 0.950 1_655 S
C405 C401 1.393 . S
C405 C404 1.391 . S
C406 H396 0.950 . S
C406 C407 1.386 . S
C406 C408 1.391 . S
C407 C406 1.386 . S
C407 C411 1.393 . S
C408 H397 0.950 . S
C408 C406 1.391 . S
C408 C409 1.400 . S
C409 C403 1.491 . S
C409 C408 1.400 . S
C409 C410 1.398 . S
C410 H398 0.950 . S
C410 C409 1.398 . S
C410 C411 1.391 . S
C411 H399 0.950 . S
C411 C407 1.393 . S
C411 C410 1.391 . S
H412 C420 0.950 . S
H413 C425 0.950 . S
H414 C422 0.950 . S
H415 C424 0.950 . S
H416 C426 0.950 . S
H417 C428 0.950 . S
H418 C430 0.950 . S
H419 C431 0.950 . S
C420 H412 0.950 . S
C420 C421 1.386 . S
C420 C422 1.391 . S
C421 C420 1.386 . S
C421 C425 1.393 . S
C422 H414 0.950 . S
C422 C420 1.391 . S
C422 C423 1.400 . S
C423 C422 1.400 . S
C423 C424 1.398 . S
C423 C429 1.491 . S
C424 H415 0.950 . S
C424 C423 1.398 . S
C424 C425 1.391 . S
C425 H413 0.950 . S
C425 C421 1.393 . S
C425 C424 1.391 . S
C426 H416 0.950 . S
C426 C427 1.386 . S
C426 C428 1.391 . S
C427 C426 1.386 . S
C427 C431 1.393 . S
C428 H417 0.950 . S
C428 C426 1.391 . S
C428 C429 1.400 . S
C429 C423 1.491 . S
C429 C428 1.400 . S
C429 C430 1.398 . S
C430 H418 0.950 . S
C430 C429 1.398 . S
C430 C431 1.391 . S
C431 H419 0.950 . S
C431 C427 1.393 . S
C431 C430 1.391 . S
H432 C440 0.950 . S
H433 C445 0.950 1_545 S
H434 C442 0.950 . S
H435 C444 0.972 . S
H436 C446 0.950 . S
H437 C448 0.950 . S
H438 C450 0.950 . S
H439 C451 0.950 . S
C440 H432 0.950 . S
C440 C441 1.386 . S
C440 C442 1.391 . S
C441 C440 1.386 . S
C441 C445 1.393 . S
C442 H434 0.950 . S
C442 C440 1.391 . S
C442 C443 1.400 . S
C443 C442 1.400 . S
C443 C444 1.398 . S
C443 C449 1.491 . S
C444 H435 0.972 . S
C444 C443 1.398 . S
C444 C445 1.391 . S
C445 H433 0.950 1_565 S
C445 C441 1.393 . S
C445 C444 1.391 . S
C446 H436 0.950 . S
C446 C447 1.386 . S
C446 C448 1.391 . S
C447 C446 1.386 . S
C447 C451 1.393 . S
C448 H437 0.950 . S
C448 C446 1.391 . S
C448 C449 1.400 . S
C449 C443 1.491 . S
C449 C448 1.400 . S
C449 C450 1.398 . S
C450 H438 0.950 . S
C450 C449 1.398 . S
C450 C451 1.391 . S
C451 H439 0.950 . S
C451 C447 1.393 . S
C451 C450 1.391 . S
H452 C460 0.950 . S
H453 C465 0.950 . S
H454 C462 0.950 . S
H455 C464 0.950 . S
H456 C466 0.950 . S
H457 C468 0.950 . S
H458 C470 0.950 . S
H459 C471 0.950 . S
C460 H452 0.950 . S
C460 C461 1.386 . S
C460 C462 1.391 . S
C461 C460 1.386 . S
C461 C465 1.393 . S
C462 H454 0.950 . S
C462 C460 1.391 . S
C462 C463 1.400 . S
C463 C462 1.400 . S
C463 C464 1.398 . S
C463 C469 1.491 . S
C464 H455 0.950 . S
C464 C463 1.398 . S
C464 C465 1.391 . S
C465 H453 0.950 . S
C465 C461 1.393 . S
C465 C464 1.391 . S
C466 H456 0.950 . S
C466 C467 1.386 . S
C466 C468 1.391 . S
C467 C466 1.386 . S
C467 C471 1.393 . S
C468 H457 0.950 . S
C468 C466 1.391 . S
C468 C469 1.400 . S
C469 C463 1.491 . S
C469 C468 1.400 . S
C469 C470 1.398 . S
C470 H458 0.950 . S
C470 C469 1.398 . S
C470 C471 1.391 . S
C471 H459 0.950 . S
C471 C467 1.393 . S
C471 C470 1.391 . S
H472 C480 0.950 . S
H473 C485 0.950 . S
H474 C482 0.950 . S
H475 C484 0.950 . S
H476 C486 0.950 . S
H477 C488 0.950 . S
H478 C490 0.950 . S
H479 C491 0.950 . S
C480 H472 0.950 . S
C480 C481 1.386 . S
C480 C482 1.391 . S
C481 C480 1.386 . S
C481 C485 1.393 . S
C482 H474 0.950 . S
C482 C480 1.391 . S
C482 C483 1.400 . S
C483 C482 1.400 . S
C483 C484 1.398 . S
C483 C489 1.491 . S
C484 H475 0.950 . S
C484 C483 1.398 . S
C484 C485 1.391 . S
C485 H473 0.950 . S
C485 C481 1.393 . S
C485 C484 1.391 . S
C486 H476 0.950 . S
C486 C487 1.386 . S
C486 C488 1.391 . S
C487 C486 1.386 . S
C487 C491 1.393 . S
C488 H477 0.950 . S
C488 C486 1.391 . S
C488 C489 1.400 . S
C489 C483 1.491 . S
C489 C488 1.400 . S
C489 C490 1.398 . S
C490 H478 0.950 . S
C490 C489 1.398 . S
C490 C491 1.391 . S
C491 H479 0.950 . S
C491 C487 1.393 . S
C491 C490 1.391 . S
H492 C500 0.950 . S
H493 C505 0.950 . S
H494 C502 0.950 . S
H495 C504 0.950 . S
H496 C506 0.950 . S
H497 C508 0.950 . S
H498 C510 0.950 . S
H499 C511 0.950 . S
C500 H492 0.950 . S
C500 C501 1.386 . S
C500 C502 1.391 . S
C501 C500 1.386 . S
C501 C505 1.393 . S
C502 H494 0.950 . S
C502 C500 1.391 . S
C502 C503 1.400 . S
C503 C502 1.400 . S
C503 C504 1.398 . S
C503 C509 1.491 . S
C504 H495 0.950 . S
C504 C503 1.398 . S
C504 C505 1.391 . S
C505 H493 0.950 . S
C505 C501 1.393 . S
C505 C504 1.391 . S
C506 H496 0.950 . S
C506 C507 1.386 . S
C506 C508 1.391 . S
C507 C506 1.386 . S
C507 C511 1.393 . S
C508 H497 0.950 . S
C508 C506 1.391 . S
C508 C509 1.400 . S
C509 C503 1.491 . S
C509 C508 1.400 . S
C509 C510 1.398 . S
C510 H498 0.950 . S
C510 C509 1.398 . S
C510 C511 1.391 . S
C511 H499 0.950 . S
C511 C507 1.393 . S
C511 C510 1.391 . S
H512 C520 0.950 . S
H513 C525 0.950 . S
H514 C522 0.950 . S
H515 C524 0.950 . S
H516 C526 0.950 . S
H517 C528 0.950 . S
H518 C530 0.950 . S
H519 C531 0.950 . S
C520 H512 0.950 . S
C520 C521 1.386 . S
C520 C522 1.391 . S
C521 C520 1.386 . S
C521 C525 1.393 . S
C522 H514 0.950 . S
C522 C520 1.391 . S
C522 C523 1.400 . S
C523 C522 1.400 . S
C523 C524 1.398 . S
C523 C529 1.491 . S
C524 H515 0.950 . S
C524 C523 1.398 . S
C524 C525 1.391 . S
C525 H513 0.950 . S
C525 C521 1.393 . S
C525 C524 1.391 . S
C526 H516 0.950 . S
C526 C527 1.386 . S
C526 C528 1.391 . S
C527 C526 1.386 . S
C527 C531 1.393 . S
C528 H517 0.950 . S
C528 C526 1.391 . S
C528 C529 1.400 . S
C529 C523 1.491 . S
C529 C528 1.400 . S
C529 C530 1.398 . S
C530 H518 0.950 . S
C530 C529 1.398 . S
C530 C531 1.391 . S
C531 H519 0.950 . S
C531 C527 1.393 . S
C531 C530 1.391 . S
H532 C540 0.950 . S
H533 C545 0.950 . S
H534 C542 0.950 . S
H535 C544 0.950 . S
H536 C546 0.950 . S
H537 C548 0.950 . S
H538 C550 0.950 . S
H539 C551 0.950 . S
C540 H532 0.950 . S
C540 C541 1.386 . S
C540 C542 1.391 . S
C541 C540 1.386 . S
C541 C545 1.393 . S
C542 H534 0.950 . S
C542 C540 1.391 . S
C542 C543 1.400 . S
C543 C542 1.400 . S
C543 C544 1.398 . S
C543 C549 1.491 . S
C544 H535 0.950 . S
C544 C543 1.398 . S
C544 C545 1.391 . S
C545 H533 0.950 . S
C545 C541 1.393 . S
C545 C544 1.391 . S
C546 H536 0.950 . S
C546 C547 1.386 . S
C546 C548 1.391 . S
C547 C546 1.386 . S
C547 C551 1.393 . S
C548 H537 0.950 . S
C548 C546 1.391 . S
C548 C549 1.400 . S
C549 C543 1.491 . S
C549 C548 1.400 . S
C549 C550 1.398 . S
C550 H538 0.950 . S
C550 C549 1.398 . S
C550 C551 1.391 . S
C551 H539 0.950 . S
C551 C547 1.393 . S
C551 C550 1.391 . S
H552 C560 0.950 . S
H553 C565 0.950 . S
H554 C562 0.950 . S
H555 C564 0.950 . S
H556 C566 0.950 . S
H557 C568 0.950 . S
H558 C570 0.950 . S
H559 C571 0.950 . S
C560 H552 0.950 . S
C560 C561 1.386 . S
C560 C562 1.391 . S
C561 C560 1.386 . S
C561 C565 1.393 . S
C562 H554 0.950 . S
C562 C560 1.391 . S
C562 C563 1.400 . S
C563 C562 1.400 . S
C563 C564 1.398 . S
C563 C569 1.491 . S
C564 H555 0.950 . S
C564 C563 1.398 . S
C564 C565 1.391 . S
C565 H553 0.950 . S
C565 C561 1.393 . S
C565 C564 1.391 . S
C566 H556 0.950 . S
C566 C567 1.386 . S
C566 C568 1.391 . S
C567 C566 1.386 . S
C567 C571 1.393 . S
C568 H557 0.950 . S
C568 C566 1.391 . S
C568 C569 1.400 . S
C569 C563 1.491 . S
C569 C568 1.400 . S
C569 C570 1.398 . S
C570 H558 0.950 . S
C570 C569 1.398 . S
C570 C571 1.391 . S
C571 H559 0.950 . S
C571 C567 1.393 . S
C571 C570 1.391 . S
H572 C580 0.950 . S
H573 C585 0.950 . S
H574 C582 0.950 . S
H575 C584 0.950 . S
H576 C586 0.950 . S
H577 C588 0.950 . S
H578 C590 0.950 . S
H579 C591 0.950 . S
C580 H572 0.950 . S
C580 C581 1.386 . S
C580 C582 1.391 . S
C581 C580 1.386 . S
C581 C585 1.393 . S
C582 H574 0.950 . S
C582 C580 1.391 . S
C582 C583 1.400 . S
C583 C582 1.400 . S
C583 C584 1.398 . S
C583 C589 1.491 . S
C584 H575 0.950 . S
C584 C583 1.398 . S
C584 C585 1.391 . S
C585 H573 0.950 . S
C585 C581 1.393 . S
C585 C584 1.391 . S
C586 H576 0.950 . S
C586 C587 1.386 . S
C586 C588 1.391 . S
C587 C586 1.386 . S
C587 C591 1.393 . S
C588 H577 0.950 . S
C588 C586 1.391 . S
C588 C589 1.400 . S
C589 C583 1.491 . S
C589 C588 1.400 . S
C589 C590 1.398 . S
C590 H578 0.950 . S
C590 C589 1.398 . S
C590 C591 1.391 . S
C591 H579 0.950 . S
C591 C587 1.393 . S
C591 C590 1.391 . S
H592 C600 0.950 . S
H593 C605 0.950 . S
H594 C602 0.950 . S
H595 C604 0.950 . S
H596 C606 0.950 . S
H597 C608 0.950 . S
H598 C610 0.950 . S
H599 C611 0.950 . S
C600 H592 0.950 . S
C600 C601 1.386 . S
C600 C602 1.391 . S
C601 C600 1.386 . S
C601 C605 1.393 . S
C602 H594 0.950 . S
C602 C600 1.391 . S
C602 C603 1.400 . S
C603 C602 1.400 . S
C603 C604 1.398 . S
C603 C609 1.491 . S
C604 H595 0.950 . S
C604 C603 1.398 . S
C604 C605 1.391 . S
C605 H593 0.950 . S
C605 C601 1.393 . S
C605 C604 1.391 . S
C606 H596 0.950 . S
C606 C607 1.386 . S
C606 C608 1.391 . S
C607 C606 1.386 . S
C607 C611 1.393 . S
C608 H597 0.950 . S
C608 C606 1.391 . S
C608 C609 1.400 . S
C609 C603 1.491 . S
C609 C608 1.400 . S
C609 C610 1.398 . S
C610 H598 0.950 . S
C610 C609 1.398 . S
C610 C611 1.391 . S
C611 H599 0.950 . S
C611 C607 1.393 . S
C611 C610 1.391 . S
H612 C620 0.950 . S
H613 C625 0.950 . S
H614 C622 0.950 . S
H615 C624 0.950 . S
H616 C626 0.950 . S
H617 C628 0.950 . S
H618 C630 0.950 . S
H619 C631 0.950 . S
C620 H612 0.950 . S
C620 C621 1.386 . S
C620 C622 1.391 . S
C621 C620 1.386 . S
C621 C625 1.393 . S
C622 H614 0.950 . S
C622 C620 1.391 . S
C622 C623 1.400 . S
C623 C622 1.400 . S
C623 C624 1.398 . S
C623 C629 1.491 . S
C624 H615 0.950 . S
C624 C623 1.398 . S
C624 C625 1.391 . S
C625 H613 0.950 . S
C625 C621 1.393 . S
C625 C624 1.391 . S
C626 H616 0.950 . S
C626 C627 1.386 . S
C626 C628 1.391 . S
C627 C626 1.386 . S
C627 C631 1.393 . S
C628 H617 0.950 . S
C628 C626 1.391 . S
C628 C629 1.400 . S
C629 C623 1.491 . S
C629 C628 1.400 . S
C629 C630 1.398 . S
C630 H618 0.950 . S
C630 C629 1.398 . S
C630 C631 1.391 . S
C631 H619 0.950 . S
C631 C627 1.393 . S
C631 C630 1.391 . S
H632 C640 0.950 . S
H633 C645 0.950 . S
H634 C642 0.950 . S
H635 C644 0.950 . S
H636 C646 0.950 . S
H637 C648 0.950 . S
H638 C650 0.950 . S
H639 C651 0.950 . S
C640 H632 0.950 . S
C640 C641 1.386 . S
C640 C642 1.391 . S
C641 C640 1.386 . S
C641 C645 1.393 . S
C642 H634 0.950 . S
C642 C640 1.391 . S
C642 C643 1.400 . S
C643 C642 1.400 . S
C643 C644 1.398 . S
C643 C649 1.491 . S
C644 H635 0.950 . S
C644 C643 1.398 . S
C644 C645 1.391 . S
C645 H633 0.950 . S
C645 C641 1.393 . S
C645 C644 1.391 . S
C646 H636 0.950 . S
C646 C647 1.386 . S
C646 C648 1.391 . S
C647 C646 1.386 . S
C647 C651 1.393 . S
C648 H637 0.950 . S
C648 C646 1.391 . S
C648 C649 1.400 . S
C649 C643 1.491 . S
C649 C648 1.400 . S
C649 C650 1.398 . S
C650 H638 0.950 . S
C650 C649 1.398 . S
C650 C651 1.391 . S
C651 H639 0.950 . S
C651 C647 1.393 . S
C651 C650 1.391 . S
H652 C660 0.950 . S
H653 C665 0.950 . S
H654 C662 0.950 . S
H655 C664 0.950 . S
H656 C666 0.950 . S
H657 C668 0.950 . S
H658 C670 0.950 . S
H659 C671 0.950 . S
C660 H652 0.950 . S
C660 C661 1.386 . S
C660 C662 1.391 . S
C661 C660 1.386 . S
C661 C665 1.393 . S
C662 H654 0.950 . S
C662 C660 1.391 . S
C662 C663 1.400 . S
C663 C662 1.400 . S
C663 C664 1.398 . S
C663 C669 1.491 . S
C664 H655 0.950 . S
C664 C663 1.398 . S
C664 C665 1.391 . S
C665 H653 0.950 . S
C665 C661 1.393 . S
C665 C664 1.391 . S
C666 H656 0.950 . S
C666 C667 1.386 . S
C666 C668 1.391 . S
C667 C666 1.386 . S
C667 C671 1.393 . S
C668 H657 0.950 . S
C668 C666 1.391 . S
C668 C669 1.400 . S
C669 C663 1.491 . S
C669 C668 1.400 . S
C669 C670 1.398 . S
C670 H658 0.950 . S
C670 C669 1.398 . S
C670 C671 1.391 . S
C671 H659 0.950 . S
C671 C667 1.393 . S
C671 C670 1.391 . S
C201 C45 1.608 . S
C207 C112 1.585 . S
C221 C30 1.582 . S
C227 C123 1.612 1_554 S
C241 C39 1.611 . S
C247 C134 1.589 . S
C267 C145 1.576 . S
C261 C34 1.597 . S
C281 C97 1.594 . S
C287 C156 1.566 . S
C307 C167 1.612 . S
C301 C82 1.587 . S
C327 C178 1.567 . S
C321 C91 1.595 . S
C347 C189 1.576 . S
C341 C86 1.596 . S
C367 C175 1.145 . S
C361 C26 1.350 . S
C387 C186 1.213 . S
C381 C36 1.470 . S
C407 C153 1.089 . S
C401 C32 1.326 . S
C427 C166 1.569 . S
C421 C42 1.512 . S
C441 C18 1.549 . S
C447 C164 1.527 . S
C467 C177 1.718 . S
C461 C50 1.744 . S
C481 C4 1.591 . S
C487 C188 1.583 . S
C501 C48 1.746 . S
C507 C155 1.746 . S
C527 C131 1.125 . S
C521 C78 1.339 . S
C541 C88 1.479 . S
C547 C142 1.228 . S
C567 C109 1.085 . S
C561 C84 1.325 . S
C587 C122 1.563 . S
C581 C94 1.527 . S
C607 C120 1.506 . S
C601 C70 1.552 . S
C627 C133 1.724 . S
C621 C102 1.734 . S
C641 C56 1.595 . S
C647 C144 1.567 . S
C661 C100 1.738 . S
C667 C111 1.741 . S
