# Generated by pormake.
# Topology iac, (4,6)-cn, num edge types: 1
# Building blocks:
#     Node 0, Type 0, BuildingBlock: NAHDIM_clean_sbu_0, # of connection points: 4
#     Node 1, Type 0, BuildingBlock: NAHDIM_clean_sbu_0, # of connection points: 4
#     Node 2, Type 0, BuildingBlock: NAHDIM_clean_sbu_0, # of connection points: 4
#     Node 3, Type 0, BuildingBlock: NAHDIM_clean_sbu_0, # of connection points: 4
#     Node 4, Type 0, BuildingBlock: NAHDIM_clean_sbu_0, # of connection points: 4
#     Node 5, Type 0, BuildingBlock: NAHDIM_clean_sbu_0, # of connection points: 4
#     Node 6, Type 0, BuildingBlock: NAHDIM_clean_sbu_0, # of connection points: 4
#     Node 7, Type 0, BuildingBlock: NAHDIM_clean_sbu_0, # of connection points: 4
#     Node 8, Type 0, BuildingBlock: NAHDIM_clean_sbu_0, # of connection points: 4
#     Node 9, Type 0, BuildingBlock: NAHDIM_clean_sbu_0, # of connection points: 4
#     Node 10, Type 0, BuildingBlock: NAHDIM_clean_sbu_0, # of connection points: 4
#     Node 11, Type 0, BuildingBlock: NAHDIM_clean_sbu_0, # of connection points: 4
#     Node 12, Type 0, BuildingBlock: NAHDIM_clean_sbu_0, # of connection points: 4
#     Node 13, Type 0, BuildingBlock: NAHDIM_clean_sbu_0, # of connection points: 4
#     Node 14, Type 0, BuildingBlock: NAHDIM_clean_sbu_0, # of connection points: 4
#     Node 15, Type 0, BuildingBlock: NAHDIM_clean_sbu_0, # of connection points: 4
#     Node 16, Type 0, BuildingBlock: NAHDIM_clean_sbu_0, # of connection points: 4
#     Node 17, Type 0, BuildingBlock: NAHDIM_clean_sbu_0, # of connection points: 4
#     Node 18, Type 0, BuildingBlock: NAHDIM_clean_sbu_0, # of connection points: 4
#     Node 19, Type 0, BuildingBlock: NAHDIM_clean_sbu_0, # of connection points: 4
#     Node 20, Type 0, BuildingBlock: NAHDIM_clean_sbu_0, # of connection points: 4
#     Node 21, Type 0, BuildingBlock: NAHDIM_clean_sbu_0, # of connection points: 4
#     Node 22, Type 0, BuildingBlock: NAHDIM_clean_sbu_0, # of connection points: 4
#     Node 23, Type 0, BuildingBlock: NAHDIM_clean_sbu_0, # of connection points: 4
#     Node 24, Type 1, BuildingBlock: JUFBIX_clean_sbu_0, # of connection points: 6
#     Node 25, Type 1, BuildingBlock: JUFBIX_clean_sbu_0, # of connection points: 6
#     Node 26, Type 1, BuildingBlock: JUFBIX_clean_sbu_0, # of connection points: 6
#     Node 27, Type 1, BuildingBlock: JUFBIX_clean_sbu_0, # of connection points: 6
#     Node 28, Type 1, BuildingBlock: JUFBIX_clean_sbu_0, # of connection points: 6
#     Node 29, Type 1, BuildingBlock: JUFBIX_clean_sbu_0, # of connection points: 6
#     Node 30, Type 1, BuildingBlock: JUFBIX_clean_sbu_0, # of connection points: 6
#     Node 31, Type 1, BuildingBlock: JUFBIX_clean_sbu_0, # of connection points: 6
#     Node 32, Type 1, BuildingBlock: JUFBIX_clean_sbu_0, # of connection points: 6
#     Node 33, Type 1, BuildingBlock: JUFBIX_clean_sbu_0, # of connection points: 6
#     Node 34, Type 1, BuildingBlock: JUFBIX_clean_sbu_0, # of connection points: 6
#     Node 35, Type 1, BuildingBlock: JUFBIX_clean_sbu_0, # of connection points: 6
#     Node 36, Type 1, BuildingBlock: JUFBIX_clean_sbu_0, # of connection points: 6
#     Node 37, Type 1, BuildingBlock: JUFBIX_clean_sbu_0, # of connection points: 6
#     Node 38, Type 1, BuildingBlock: JUFBIX_clean_sbu_0, # of connection points: 6
#     Node 39, Type 1, BuildingBlock: JUFBIX_clean_sbu_0, # of connection points: 6
#     Edge 40, Type (0, 1), None
#     Edge 41, Type (0, 1), None
#     Edge 42, Type (0, 1), None
#     Edge 43, Type (0, 1), None
#     Edge 44, Type (0, 1), None
#     Edge 45, Type (0, 1), None
#     Edge 46, Type (0, 1), None
#     Edge 47, Type (0, 1), None
#     Edge 48, Type (0, 1), None
#     Edge 49, Type (0, 1), None
#     Edge 50, Type (0, 1), None
#     Edge 51, Type (0, 1), None
#     Edge 52, Type (0, 1), None
#     Edge 53, Type (0, 1), None
#     Edge 54, Type (0, 1), None
#     Edge 55, Type (0, 1), None
#     Edge 56, Type (0, 1), None
#     Edge 57, Type (0, 1), None
#     Edge 58, Type (0, 1), None
#     Edge 59, Type (0, 1), None
#     Edge 60, Type (0, 1), None
#     Edge 61, Type (0, 1), None
#     Edge 62, Type (0, 1), None
#     Edge 63, Type (0, 1), None
#     Edge 64, Type (0, 1), None
#     Edge 65, Type (0, 1), None
#     Edge 66, Type (0, 1), None
#     Edge 67, Type (0, 1), None
#     Edge 68, Type (0, 1), None
#     Edge 69, Type (0, 1), None
#     Edge 70, Type (0, 1), None
#     Edge 71, Type (0, 1), None
#     Edge 72, Type (0, 1), None
#     Edge 73, Type (0, 1), None
#     Edge 74, Type (0, 1), None
#     Edge 75, Type (0, 1), None
#     Edge 76, Type (0, 1), None
#     Edge 77, Type (0, 1), None
#     Edge 78, Type (0, 1), None
#     Edge 79, Type (0, 1), None
#     Edge 80, Type (0, 1), None
#     Edge 81, Type (0, 1), None
#     Edge 82, Type (0, 1), None
#     Edge 83, Type (0, 1), None
#     Edge 84, Type (0, 1), None
#     Edge 85, Type (0, 1), None
#     Edge 86, Type (0, 1), None
#     Edge 87, Type (0, 1), None
#     Edge 88, Type (0, 1), None
#     Edge 89, Type (0, 1), None
#     Edge 90, Type (0, 1), None
#     Edge 91, Type (0, 1), None
#     Edge 92, Type (0, 1), None
#     Edge 93, Type (0, 1), None
#     Edge 94, Type (0, 1), None
#     Edge 95, Type (0, 1), None
#     Edge 96, Type (0, 1), None
#     Edge 97, Type (0, 1), None
#     Edge 98, Type (0, 1), None
#     Edge 99, Type (0, 1), None
#     Edge 100, Type (0, 1), None
#     Edge 101, Type (0, 1), None
#     Edge 102, Type (0, 1), None
#     Edge 103, Type (0, 1), None
#     Edge 104, Type (0, 1), None
#     Edge 105, Type (0, 1), None
#     Edge 106, Type (0, 1), None
#     Edge 107, Type (0, 1), None
#     Edge 108, Type (0, 1), None
#     Edge 109, Type (0, 1), None
#     Edge 110, Type (0, 1), None
#     Edge 111, Type (0, 1), None
#     Edge 112, Type (0, 1), None
#     Edge 113, Type (0, 1), None
#     Edge 114, Type (0, 1), None
#     Edge 115, Type (0, 1), None
#     Edge 116, Type (0, 1), None
#     Edge 117, Type (0, 1), None
#     Edge 118, Type (0, 1), None
#     Edge 119, Type (0, 1), None
#     Edge 120, Type (0, 1), None
#     Edge 121, Type (0, 1), None
#     Edge 122, Type (0, 1), None
#     Edge 123, Type (0, 1), None
#     Edge 124, Type (0, 1), None
#     Edge 125, Type (0, 1), None
#     Edge 126, Type (0, 1), None
#     Edge 127, Type (0, 1), None
#     Edge 128, Type (0, 1), None
#     Edge 129, Type (0, 1), None
#     Edge 130, Type (0, 1), None
#     Edge 131, Type (0, 1), None
#     Edge 132, Type (0, 1), None
#     Edge 133, Type (0, 1), None
#     Edge 134, Type (0, 1), None
#     Edge 135, Type (0, 1), None
# Relax obj value: 0.357
# Max RMSD: 0.271
# Mean RMSD: 0.163
data_MOF--net-iac--node1-NAHDIM_clean_sbu_0--node2-JUFBIX_clean_sbu_0--edge1-none
_symmetry_space_group_name_H-M    P1
_symmetry_Int_Tables_number       1
_symmetry_cell_setting            triclinic
loop_
_symmetry_equiv_pos_as_xyz
'x, y, z'
_cell_length_a     25.596258
_cell_length_b     26.185223
_cell_length_c     25.584378
_cell_angle_alpha  88.740388
_cell_angle_beta   87.673775
_cell_angle_gamma 87.438527
loop_
_atom_site_label
_atom_site_type_symbol
_atom_site_fract_x
_atom_site_fract_y
_atom_site_fract_z
_atom_type_partial_charge
C0 C 0.95757 0.28518 0.22729 0.0
O1 O 0.96656 0.24395 0.19959 0.0
O2 O 0.07383 0.2385 0.15088 0.0
Zn3 Zn 0.07079 0.3148 0.19062 0.0
O4 O 0.07629 0.3894 0.14348 0.0
C5 C 0.17536 0.33716 0.24536 0.0
O6 O 0.18134 0.36875 0.2053 0.0
O7 O 0.99407 0.31747 0.22987 0.0
C8 C 0.08987 0.43444 0.15769 0.0
O9 O 0.10275 0.43983 0.20632 0.0
C10 C 0.0477 0.21819 0.11469 0.0
O11 O 1.01379 0.24763 0.08958 0.0
O12 O 0.13396 0.31056 0.24783 0.0
C13 C 0.21659 0.73904 0.36328 0.0
O14 O 0.17881 0.71769 0.33964 0.0
O15 O 0.11232 0.70994 0.4545 0.0
Zn16 Zn 0.13265 0.77682 0.42753 0.0
O17 O 0.11594 0.8306 0.48139 0.0
C18 C 0.04336 0.79108 0.37499 0.0
O19 O 0.03229 0.7516 0.40535 0.0
O20 O 0.2057 0.76723 0.40247 0.0
C21 C 0.07237 0.83059 0.50759 0.0
O22 O 0.04437 0.78972 0.50839 0.0
C23 C 0.12928 0.69852 0.49911 0.0
O24 O 0.15797 0.7305 0.52291 0.0
O25 O 0.0901 0.80449 0.37011 0.0
C26 C 0.45758 0.78519 0.72729 0.0
O27 O 0.46659 0.74395 0.69961 0.0
O28 O 0.57383 0.73853 0.65087 0.0
Zn29 Zn 0.5708 0.81482 0.69061 0.0
O30 O 0.5763 0.88942 0.64348 0.0
C31 C 0.67537 0.83717 0.74536 0.0
O32 O 0.68136 0.86877 0.70529 0.0
O33 O 0.49408 0.81749 0.72986 0.0
C34 C 0.58988 0.93447 0.65768 0.0
O35 O 0.60277 0.93985 0.70631 0.0
C36 C 0.54769 0.71822 0.61468 0.0
O37 O 0.51377 0.74766 0.58958 0.0
O38 O 0.63396 0.81058 0.74782 0.0
C39 C 0.71658 0.23906 0.86335 0.0
O40 O 0.67881 0.21769 0.83972 0.0
O41 O 0.61231 0.20997 0.95452 0.0
Zn42 Zn 0.63265 0.27685 0.92758 0.0
O43 O 0.61592 0.33061 0.98145 0.0
C44 C 0.54336 0.29111 0.87503 0.0
O45 O 0.53229 0.25163 0.90538 0.0
O46 O 0.7057 0.26726 0.90253 0.0
C47 C 0.57235 0.33059 0.00766 0.0
O48 O 0.54436 0.28972 0.00845 0.0
C49 C 0.62929 0.19853 -0.00087 0.0
O50 O 0.65798 0.23051 0.02293 0.0
O51 O 0.5901 0.30453 0.87016 0.0
C52 C 0.23048 0.90702 0.38019 0.0
O53 O 0.18256 0.91161 0.36359 0.0
O54 O 0.20321 0.99287 0.29765 0.0
Zn55 Zn 0.21228 1.00257 0.37232 0.0
O56 O 0.14124 1.00666 0.40176 0.0
C57 C 0.28015 0.08676 0.3627 0.0
O58 O 0.30026 0.0663 0.31952 0.0
O59 O 0.24974 0.94429 0.40158 0.0
C60 C 0.11551 0.04894 0.39878 0.0
O61 O 0.13384 0.08591 0.36889 0.0
C62 C 0.18943 0.02933 0.26739 0.0
O63 O 0.19728 0.07671 0.27981 0.0
O64 O 0.24615 0.06367 0.39014 0.0
C65 C 0.21876 0.99884 0.55505 0.0
O66 O 0.2611 0.02256 0.56526 0.0
O67 O 0.28933 0.90231 0.6474 0.0
Zn68 Zn 0.28409 0.91125 0.57076 0.0
O69 O 0.3001 0.84428 0.53741 0.0
C70 C 0.36899 0.97304 0.56564 0.0
O71 O 0.36624 0.96488 0.61653 0.0
O72 O 0.21882 0.95009 0.55516 0.0
C73 C 0.34806 0.82901 0.54021 0.0
O74 O 0.37661 0.84874 0.57559 0.0
C75 C 0.26425 0.8651 0.66611 0.0
O76 O 0.23595 0.83912 0.63524 0.0
O77 O 0.33717 0.95279 0.53723 0.0
C78 C 0.38289 0.19058 0.76204 0.0
O79 O 0.36145 0.15498 0.73578 0.0
O80 O 0.46637 0.0981 0.71505 0.0
Zn81 Zn 0.44566 0.11095 0.78679 0.0
O82 O 0.50456 0.09875 0.83068 0.0
C83 C 0.38712 0.02606 0.79312 0.0
O84 O 0.40943 0.02062 0.7463 0.0
O85 O 0.42198 0.17987 0.78932 0.0
C86 C 0.52197 0.05278 0.83376 0.0
O87 O 0.51118 0.02042 0.7976 0.0
C88 C 0.50535 0.12348 0.70072 0.0
O89 O 0.52598 0.15406 0.73348 0.0
O90 O 0.3919 0.06699 0.81718 0.0
C91 C 0.42971 0.15096 0.07905 0.0
O92 O 0.42598 0.18398 0.11699 0.0
O93 O 0.31799 0.22584 0.14236 0.0
Zn94 Zn 0.31694 0.19082 0.06246 0.0
O95 O 0.31309 0.24475 0.99452 0.0
C96 C 0.21624 0.1307 0.02809 0.0
O97 O 0.222 0.1523 0.98166 0.0
O98 O 0.3895 0.14593 0.05134 0.0
C99 C 0.30973 0.23244 0.94599 0.0
O100 O 0.30983 0.18377 0.93493 0.0
C101 C 0.3421 0.26328 0.1618 0.0
O102 O 0.37159 0.29066 0.12986 0.0
O103 O 0.24873 0.14103 0.06356 0.0
C104 C 0.71872 0.49884 0.05512 0.0
O105 O 0.76107 0.52256 0.06534 0.0
O106 O 0.78932 0.40233 0.14742 0.0
Zn107 Zn 0.78407 0.41127 0.07079 0.0
O108 O 0.80008 0.3443 0.03745 0.0
C109 C 0.86896 0.47305 0.06565 0.0
O110 O 0.86623 0.46489 0.11655 0.0
O111 O 0.71879 0.45009 0.0552 0.0
C112 C 0.84804 0.32904 0.04024 0.0
O113 O 0.87659 0.34877 0.07562 0.0
C114 C 0.76424 0.36512 0.16613 0.0
O115 O 0.73593 0.33914 0.13526 0.0
O116 O 0.83714 0.45282 0.03725 0.0
C117 C 0.88288 0.69058 0.26204 0.0
O118 O 0.86143 0.65497 0.23578 0.0
O119 O 0.96636 0.59809 0.21505 0.0
Zn120 Zn 0.94565 0.61094 0.28678 0.0
O121 O 1.00455 0.59874 0.33067 0.0
C122 C 0.88711 0.52606 0.29313 0.0
O123 O 0.90943 0.52062 0.2463 0.0
O124 O 0.92197 0.67987 0.28932 0.0
C125 C 0.02196 0.55278 0.33376 0.0
O126 O 1.01117 0.52042 0.29759 0.0
C127 C 1.00535 0.62347 0.20072 0.0
O128 O 0.02597 0.65404 0.23348 0.0
O129 O 0.89189 0.56698 0.31718 0.0
C130 C 0.9297 0.65095 0.57904 0.0
O131 O 0.92597 0.68398 0.61698 0.0
O132 O 0.81799 0.72583 0.64236 0.0
Zn133 Zn 0.81693 0.69082 0.56246 0.0
O134 O 0.81309 0.74476 0.49451 0.0
C135 C 0.71621 0.63074 0.52808 0.0
O136 O 0.72196 0.65237 0.48167 0.0
O137 O 0.88949 0.64593 0.55134 0.0
C138 C 0.80972 0.73244 0.44599 0.0
O139 O 0.80982 0.68377 0.43494 0.0
C140 C 0.8421 0.76326 0.6618 0.0
O141 O 0.8716 0.79064 0.62986 0.0
O142 O 0.74872 0.64104 0.56355 0.0
C143 C 0.73049 0.40704 0.88014 0.0
O144 O 0.68256 0.41162 0.86354 0.0
O145 O 0.70312 0.49292 0.79769 0.0
Zn146 Zn 0.71223 0.50259 0.87235 0.0
O147 O 0.64121 0.50665 0.90184 0.0
C148 C 0.78009 0.58677 0.86272 0.0
O149 O 0.8002 0.5663 0.81954 0.0
O150 O 0.74974 0.44431 0.90155 0.0
C151 C 0.61547 0.54892 0.89886 0.0
O152 O 0.63377 0.58589 0.86896 0.0
C153 C 0.68935 0.52938 0.76742 0.0
O154 O 0.69719 0.57676 0.77984 0.0
O155 O 0.7461 0.56368 0.89017 0.0
C156 C 0.17236 0.83591 0.88161 0.0
O157 O 0.17124 0.87597 0.91164 0.0
O158 O 0.07471 0.75358 0.99106 0.0
Zn159 Zn 0.06653 0.8208 0.93611 0.0
O160 O 0.07164 0.89922 0.96975 0.0
C161 C 0.96916 0.79319 0.86375 0.0
O162 O 0.9912 0.74782 0.85494 0.0
O163 O 0.13234 0.8081 0.883 0.0
C164 C 0.09722 0.91923 0.00643 0.0
O165 O 0.12758 0.88875 0.03457 0.0
C166 C 0.05098 0.71105 0.98903 0.0
O167 O 1.01457 0.70829 0.9547 0.0
O168 O 0.99237 0.82389 0.89338 0.0
C169 C 0.94495 0.37956 0.74894 0.0
O170 O 0.98933 0.3905 0.76909 0.0
O171 O 0.0257 0.2868 0.61337 0.0
Zn172 Zn 1.01118 0.34806 0.65945 0.0
O173 O 1.01975 0.40946 0.6151 0.0
C174 C 0.1114 0.32226 0.70097 0.0
O175 O 0.12901 0.32427 0.65211 0.0
O176 O 0.94484 0.35925 0.70377 0.0
C177 C 0.02255 0.45125 0.63795 0.0
O178 O 0.02168 0.45203 0.6892 0.0
C179 C 0.059 0.29166 0.57506 0.0
O180 O 0.07157 0.33758 0.55878 0.0
O181 O 0.06443 0.33603 0.71244 0.0
C182 C 0.67235 0.33592 0.38162 0.0
O183 O 0.67125 0.37597 0.41167 0.0
O184 O 0.5747 0.25361 0.49106 0.0
Zn185 Zn 0.56651 0.32083 0.43611 0.0
O186 O 0.57162 0.39925 0.46974 0.0
C187 C 0.46916 0.29322 0.36374 0.0
O188 O 0.49121 0.24785 0.35492 0.0
O189 O 0.63233 0.30812 0.383 0.0
C190 C 0.5972 0.41926 0.50642 0.0
O191 O 0.62756 0.38878 0.53456 0.0
C192 C 0.55098 0.21107 0.48902 0.0
O193 O 0.51457 0.20831 0.45469 0.0
O194 O 0.49236 0.32391 0.39337 0.0
C195 C 0.44494 0.8796 0.24896 0.0
O196 O 0.48932 0.89053 0.26911 0.0
O197 O 0.52566 0.78681 0.1134 0.0
Zn198 Zn 0.51116 0.84808 0.15946 0.0
O199 O 0.51974 0.90947 0.11511 0.0
C200 C 0.61139 0.82228 0.20098 0.0
O201 O 0.62899 0.8243 0.15212 0.0
O202 O 0.44483 0.85929 0.20378 0.0
C203 C 0.52256 0.95126 0.13796 0.0
O204 O 0.5217 0.95204 0.18921 0.0
C205 C 0.55897 0.79167 0.07509 0.0
O206 O 0.57155 0.83758 0.0588 0.0
O207 O 0.56442 0.83604 0.21246 0.0
C208 C 0.93449 0.21972 0.7415 0.0
O209 O 0.9829 0.21487 0.75652 0.0
O210 O 1.0068 0.10916 0.68173 0.0
Zn211 Zn 0.95106 0.12071 0.73095 0.0
O212 O 0.98091 0.12598 0.79945 0.0
C213 C 0.90944 0.02192 0.72367 0.0
O214 O 0.95729 1.00549 0.71078 0.0
O215 O 0.91546 0.18504 0.71575 0.0
C216 C 0.98063 0.09551 0.83819 0.0
O217 O 0.95786 0.05166 0.83585 0.0
C218 C 0.04491 0.07784 0.68862 0.0
O219 O 0.04807 0.04983 0.73163 0.0
O220 O 0.89926 0.06897 0.73085 0.0
C221 C 0.93739 0.12909 0.53599 0.0
O222 O 0.89351 0.10701 0.52805 0.0
O223 O 0.86142 0.27283 0.59101 0.0
Zn224 Zn 0.87526 0.22391 0.53552 0.0
O225 O 0.87167 0.26292 0.46944 0.0
C226 C 0.7755 0.1872 0.57213 0.0
O227 O 0.75731 0.23487 0.57293 0.0
O228 O 0.93875 0.17767 0.53963 0.0
C229 C 0.86181 0.23835 0.42965 0.0
O230 O 0.85715 0.18864 0.43363 0.0
C231 C 0.83275 0.31344 0.58499 0.0
O232 O 0.82718 0.33445 0.53836 0.0
O233 O 0.81983 0.17614 0.55084 0.0
C234 C 0.74979 0.94419 0.35747 0.0
O235 O 0.77177 0.9869 0.36797 0.0
O236 O 0.60634 1.01055 0.29004 0.0
Zn237 Zn 0.66184 1.00772 0.34008 0.0
O238 O 0.62837 0.02111 0.40684 0.0
C239 C 0.70235 0.10443 0.3068 0.0
O240 O 0.65725 0.1243 0.32459 0.0
O241 O 0.7021 0.94414 0.34533 0.0
C242 C 0.65366 0.02565 0.44737 0.0
O243 O 0.70496 0.02497 0.44497 0.0
C244 C 0.57993 0.05276 0.29317 0.0
O245 O 0.56308 0.06933 0.33921 0.0
O246 O 0.71279 0.05718 0.31304 0.0
C247 C 0.71465 0.99433 0.05229 0.0
O248 O 0.71255 0.95397 0.02304 0.0
O249 O 0.81578 0.90057 0.12875 0.0
Zn250 Zn 0.82442 0.95159 0.06037 0.0
O251 O 0.81875 0.91607 0.98168 0.0
C252 C 0.92388 0.01632 0.09412 0.0
O253 O 0.90462 0.01878 0.14237 0.0
O254 O 0.75857 1.00371 0.07155 0.0
C255 C 0.79588 0.87678 0.96463 0.0
O256 O 0.77072 0.84783 0.99884 0.0
C257 C 0.84721 0.89494 0.16673 0.0
O258 O 0.89229 0.91685 0.16214 0.0
O259 O 0.89828 0.99296 0.05976 0.0
C260 C 0.43736 0.62908 0.03605 0.0
O261 O 0.39348 0.607 0.0281 0.0
O262 O 0.36134 0.77283 0.09101 0.0
Zn263 Zn 0.37523 0.72392 0.03553 0.0
O264 O 0.37166 0.76293 0.96944 0.0
C265 C 0.27547 0.68719 0.07212 0.0
O266 O 0.25729 0.73486 0.07296 0.0
O267 O 0.43871 0.67767 0.03968 0.0
C268 C 0.36182 0.73836 0.92965 0.0
O269 O 0.35716 0.68865 0.93363 0.0
C270 C 0.3327 0.81346 0.08499 0.0
O271 O 0.32716 0.83447 0.03835 0.0
O272 O 0.31979 0.67614 0.05081 0.0
C273 C 0.24979 0.4442 0.85747 0.0
O274 O 0.27177 0.4869 0.86798 0.0
O275 O 0.10636 0.51056 0.79004 0.0
Zn276 Zn 0.16185 0.50773 0.84008 0.0
O277 O 0.12837 0.52111 0.90684 0.0
C278 C 0.20236 0.60444 0.8068 0.0
O279 O 0.15726 0.62432 0.82456 0.0
O280 O 0.2021 0.44414 0.84533 0.0
C281 C 0.15365 0.52562 0.94738 0.0
O282 O 0.20496 0.52491 0.94498 0.0
C283 C 0.07994 0.55277 0.79317 0.0
O284 O 0.0631 0.56935 0.83921 0.0
O285 O 0.2128 0.55719 0.81305 0.0
C286 C 0.21464 0.49432 0.55228 0.0
O287 O 0.21254 0.45397 0.52303 0.0
O288 O 0.31578 0.40058 0.62875 0.0
Zn289 Zn 0.32441 0.45159 0.56037 0.0
O290 O 0.31874 0.41607 0.48169 0.0
C291 C 0.42386 0.51634 0.59412 0.0
O292 O 0.4046 0.5188 0.64236 0.0
O293 O 0.25855 0.5037 0.57155 0.0
C294 C 0.29588 0.37678 0.46463 0.0
O295 O 0.27072 0.34783 0.49884 0.0
C296 C 0.34721 0.39495 0.66673 0.0
O297 O 0.39228 0.41687 0.66214 0.0
O298 O 0.39826 0.49297 0.55975 0.0
C299 C 0.43447 0.71977 0.24141 0.0
O300 O 0.48288 0.71491 0.25641 0.0
O301 O 0.50676 0.60917 0.18179 0.0
Zn302 Zn 0.45097 0.62075 0.23097 0.0
O303 O 0.48078 0.62607 0.29948 0.0
C304 C 0.40936 0.52196 0.22368 0.0
O305 O 0.45722 0.50555 0.21075 0.0
O306 O 0.4154 0.68509 0.21569 0.0
C307 C 0.48056 0.59557 0.3382 0.0
O308 O 0.45786 0.55168 0.33583 0.0
C309 C 0.54486 0.57785 0.18869 0.0
O310 O 0.548 0.54984 0.23171 0.0
O311 O 0.39918 0.56901 0.23087 0.0
Co312 Co 0.05955 0.08006 0.02213 0.0
C313 C 0.055 0.16221 0.09836 0.0
Co314 Co 0.0855 0.05751 0.09855 0.0
C315 C 1.01148 0.08039 0.92504 0.0
C316 C 0.05118 0.14968 0.93614 0.0
N317 N 0.03982 0.10454 0.95917 0.0
N318 N 1.00513 0.10855 0.88125 0.0
C319 C 0.02976 0.15229 0.88787 0.0
H320 H 0.99653 0.04267 0.93187 0.0
H321 H 0.07401 0.1784 0.95312 0.0
C322 C 0.09063 0.97545 0.02202 0.0
N323 N 0.10677 0.03155 0.16079 0.0
C324 C 0.13954 0.05339 0.19244 0.0
C325 C 0.10369 0.98274 0.17828 0.0
N326 N 0.1583 0.01966 0.22794 0.0
C327 C 0.13598 0.97511 0.21944 0.0
C328 C 0.97706 0.03813 0.08177 0.0
O329 O 0.07451 1.01116 0.99135 0.0
O330 O 0.10092 0.98851 0.06815 0.0
O331 O 1.01264 0.03662 0.11568 0.0
O332 O 0.98812 0.05862 0.03747 0.0
O333 O 0.07136 0.12643 0.12906 0.0
H334 H 0.08142 0.95394 0.16071 0.0
H335 H 0.15138 0.0925 0.1879 0.0
O336 O 0.04368 0.14921 0.05231 0.0
O337 O 0.13131 0.10207 0.00568 0.0
O338 O 0.15738 0.07895 0.0828 0.0
C339 C 0.16712 0.10118 0.03912 0.0
H340 H 0.03252 0.1836 0.85963 0.0
H341 H 0.14217 0.93983 0.2417 0.0
Co342 Co 0.35421 0.80588 0.34667 0.0
C343 C 0.39773 0.75225 0.2699 0.0
Co344 Co 0.30968 0.81919 0.27567 0.0
C345 C 0.34756 0.79594 0.45466 0.0
C346 C 0.42848 0.79916 0.43094 0.0
N347 N 0.38038 0.79519 0.41224 0.0
N348 N 0.37197 0.80518 0.49857 0.0
C349 C 0.42343 0.80506 0.48457 0.0
H350 H 0.30536 0.79758 0.45225 0.0
H351 H 0.46378 0.80359 0.40686 0.0
C352 C 0.26706 0.87317 0.35315 0.0
N353 N 0.28182 0.83296 0.21117 0.0
C354 C 0.29618 0.80324 0.1708 0.0
C355 C 0.27222 0.87992 0.18941 0.0
N356 N 0.30304 0.83043 0.12635 0.0
C357 C 0.28492 0.8783 0.13638 0.0
C358 C 0.26591 0.74771 0.33561 0.0
O359 O 0.30816 0.85715 0.37499 0.0
O360 O 0.26015 0.86318 0.30601 0.0
O361 O 0.26388 0.76673 0.28974 0.0
O362 O 0.30371 0.75739 0.36377 0.0
O363 O 0.36047 0.77373 0.24599 0.0
H364 H 0.26522 0.91451 0.21147 0.0
H365 H 0.30808 0.76319 0.17493 0.0
O366 O 0.40043 0.75643 0.31887 0.0
O367 O 0.40436 0.85385 0.32787 0.0
O368 O 0.35588 0.87155 0.26065 0.0
C369 C 0.39854 0.87514 0.28327 0.0
H370 H 0.45419 0.81565 0.50954 0.0
H371 H 0.28795 0.91081 0.10969 0.0
Co372 Co 0.54245 0.06066 0.55717 0.0
C373 C 0.56232 0.16312 0.52267 0.0
Co374 Co 0.61287 0.08727 0.58938 0.0
C375 C 0.44621 0.01917 0.56871 0.0
C376 C 0.4608 0.03908 0.48781 0.0
N377 N 0.4805 0.04153 0.53575 0.0
N378 N 0.40649 1.00152 0.54354 0.0
C379 C 0.41465 0.01395 0.49253 0.0
H380 H 0.45203 0.0129 0.61011 0.0
H381 H 0.47988 0.05245 0.45189 0.0
C382 C 0.58842 0.98301 0.62285 0.0
N383 N 0.67666 0.10486 0.61088 0.0
C384 C 0.69534 0.15184 0.60398 0.0
C385 C 0.71919 0.07242 0.61021 0.0
N386 N 0.747 0.14933 0.59323 0.0
C387 C 0.76272 0.0998 0.59866 0.0
C388 C 0.53255 0.11044 0.65254 0.0
O389 O 0.55236 0.99192 0.59086 0.0
O390 O 0.61899 0.01977 0.62977 0.0
O391 O 0.58085 0.11724 0.64709 0.0
O392 O 0.50939 0.08612 0.61883 0.0
O393 O 0.60364 0.15458 0.54854 0.0
H394 H 0.71801 0.03121 0.60966 0.0
H395 H 0.67102 0.18637 0.59924 0.0
O396 O 0.53048 0.12712 0.52241 0.0
O397 O 0.5754 0.03627 0.49676 0.0
O398 O 0.6477 0.058 0.53129 0.0
C399 C 0.62459 0.03892 0.49448 0.0
H400 H 0.39015 1.00408 0.46105 0.0
H401 H 0.80192 0.08405 0.59023 0.0
Co402 Co 0.35585 0.33437 0.82235 0.0
C403 C 0.33463 0.36661 0.71762 0.0
Co404 Co 0.28427 0.3041 0.79498 0.0
C405 C 0.45353 0.31062 0.86031 0.0
C406 C 0.45607 0.38215 0.81838 0.0
N407 N 0.42303 0.34682 0.8374 0.0
N408 N 0.5042 0.32078 0.85534 0.0
C409 C 0.50662 0.36608 0.82957 0.0
H410 H 0.43914 0.27542 0.87728 0.0
H411 H 0.44465 0.41551 0.79515 0.0
C412 C 0.30905 0.27027 0.90012 0.0
N413 N 0.21681 0.29059 0.78097 0.0
C414 C 0.19521 0.29721 0.73413 0.0
C415 C 0.17615 0.29172 0.81635 0.0
N416 N 0.14325 0.30598 0.73922 0.0
C417 C 0.1306 0.30136 0.79062 0.0
C418 C 0.35674 0.23913 0.77045 0.0
O419 O 0.34524 0.30166 0.89245 0.0
O420 O 0.27855 0.26451 0.8624 0.0
O421 O 0.3087 0.2458 0.76241 0.0
O422 O 0.38058 0.2717 0.79516 0.0
O423 O 0.29255 0.3432 0.7271 0.0
H424 H 0.17977 0.29168 0.85832 0.0
H425 H 0.21741 0.30092 0.69744 0.0
O426 O 0.36725 0.36657 0.75382 0.0
O427 O 0.33066 0.39673 0.84889 0.0
O428 O 0.25809 0.36252 0.8272 0.0
C429 C 0.28128 0.39865 0.84664 0.0
H430 H 0.5421 0.38546 0.81881 0.0
H431 H 0.0919 0.30816 0.80853 0.0
Co432 Co 0.05926 0.02556 0.54512 0.0
C433 C 0.07103 0.06281 0.64107 0.0
Co434 Co 0.09653 0.10004 0.54243 0.0
C435 C 0.07144 0.921 0.52152 0.0
C436 C 1.00071 0.93353 0.56787 0.0
N437 N 0.04107 0.95803 0.5448 0.0
N438 N 0.0522 0.87446 0.52911 0.0
C439 C 1.00723 0.88186 0.5578 0.0
H440 H 0.10681 0.92819 0.49832 0.0
H441 H 0.969 0.95189 0.59071 0.0
C442 C 0.08734 0.06184 0.44655 0.0
N443 N 0.11225 0.16833 0.54363 0.0
C444 C 0.08247 0.20163 0.57297 0.0
C445 C 0.13757 0.19782 0.50784 0.0
N446 N 0.08633 0.25012 0.5558 0.0
C447 C 0.12213 0.24843 0.51567 0.0
C448 C 0.16973 0.02752 0.54911 0.0
O449 O 0.06677 0.02553 0.47236 0.0
O450 O 0.1017 0.10064 0.4699 0.0
O451 O 0.16676 0.07609 0.54536 0.0
O452 O 0.12879 1.00232 0.55002 0.0
O453 O 0.09168 0.09858 0.61485 0.0
H454 H 0.16136 0.1834 0.47517 0.0
H455 H 0.05476 0.19006 0.60363 0.0
O456 O 0.05264 0.02577 0.61783 0.0
O457 O 0.98866 0.05031 0.54037 0.0
O458 O 0.02725 0.12323 0.53938 0.0
C459 C 0.98608 0.09888 0.5387 0.0
H460 H 0.98105 0.85225 0.57047 0.0
H461 H 0.1339 0.28092 0.4918 0.0
Co462 Co 0.3248 0.84307 0.81431 0.0
C463 C 0.22152 0.82393 0.84937 0.0
Co464 Co 0.29944 0.77023 0.78728 0.0
C465 C 0.36301 0.93942 0.79789 0.0
C466 C 0.33088 0.93311 0.87629 0.0
N467 N 0.34179 0.90638 0.83239 0.0
N468 N 0.36536 0.98593 0.81785 0.0
C469 C 0.34564 0.98265 0.86739 0.0
H470 H 0.37577 0.92967 0.75831 0.0
H471 H 0.31216 0.91798 0.91164 0.0
C472 C 0.4046 0.79325 0.75427 0.0
N473 N 0.28182 0.7057 0.76964 0.0
C474 C 0.2351 0.6857 0.7812 0.0
C475 C 0.31528 0.66492 0.76182 0.0
N476 N 0.23892 0.63461 0.78479 0.0
C477 C 0.28877 0.62089 0.77093 0.0
C478 C 0.27679 0.84415 0.71728 0.0
O479 O 0.39401 0.83232 0.78171 0.0
O480 O 0.36868 0.76121 0.75005 0.0
O481 O 0.27093 0.79721 0.72676 0.0
O482 O 0.29943 0.87078 0.74969 0.0
O483 O 0.23085 0.78202 0.82577 0.0
H484 H 0.35723 0.66669 0.75609 0.0
H485 H 0.19977 0.70778 0.79196 0.0
O486 O 0.25726 0.85589 0.84784 0.0
O487 O 0.34969 0.81416 0.87772 0.0
O488 O 0.32733 0.74106 0.84713 0.0
C489 C 0.34707 0.76588 0.88241 0.0
H490 H 0.34221 0.0136 0.8949 0.0
H491 H 0.30586 0.5823 0.77222 0.0
Co492 Co 0.56217 0.05816 0.02969 0.0
C493 C 0.66571 0.02743 0.05978 0.0
Co494 Co 0.58548 0.09067 0.10257 0.0
C495 C 0.54086 0.06327 0.92302 0.0
C496 C 0.56224 0.98655 0.9466 0.0
N497 N 0.55337 0.03438 0.96474 0.0
N498 N 0.54081 0.03556 0.87951 0.0
C499 C 0.55409 0.9871 0.89372 0.0
H500 H 0.5304 0.10377 0.9249 0.0
H501 H 0.57396 0.95357 0.97026 0.0
C502 C 0.481 0.12099 0.07104 0.0
N503 N 0.59468 0.11159 0.1694 0.0
C504 C 0.60642 0.07573 0.20577 0.0
C505 C 0.56674 0.14861 0.19563 0.0
N506 N 0.58206 0.08573 0.25193 0.0
C507 C 0.55885 0.13261 0.24698 0.0
C508 C 0.61182 0.15294 0.02584 0.0
O509 O 0.49157 0.09195 0.03229 0.0
O510 O 0.51634 0.1255 0.10414 0.0
O511 O 0.61474 0.1486 0.07489 0.0
O512 O 0.59059 0.11892 0.00029 0.0
O513 O 0.65552 0.05519 0.09959 0.0
H514 H 0.54713 0.18143 0.17742 0.0
H515 H 0.6257 0.03916 0.19652 0.0
O516 O 0.63057 0.02456 0.02653 0.0
O517 O 0.53459 0.99841 0.05887 0.0
O518 O 0.55554 0.03209 0.13175 0.0
C519 C 0.53648 0.99627 0.10807 0.0
H520 H 0.55627 0.95453 0.86822 0.0
H521 H 0.53444 0.15176 0.27677 0.0
Co522 Co 0.30634 0.28142 0.32684 0.0
C523 C 0.4149 0.30499 0.34309 0.0
Co524 Co 0.32845 0.35628 0.30053 0.0
C525 C 0.30596 0.17213 0.34024 0.0
C526 C 0.2652 0.2123 0.40284 0.0
N527 N 0.29272 0.21944 0.35727 0.0
N528 N 0.28652 0.13622 0.37299 0.0
C529 C 0.26212 0.16127 0.41296 0.0
H530 H 0.32617 0.16421 0.30312 0.0
H531 H 0.24613 0.24186 0.4265 0.0
C532 C 0.22103 0.33093 0.28161 0.0
N533 N 0.33833 0.41931 0.27299 0.0
C534 C 0.38034 0.43839 0.24778 0.0
C535 C 0.30282 0.4588 0.27764 0.0
N536 N 0.37263 0.48874 0.23794 0.0
C537 C 0.32377 0.50163 0.25586 0.0
C538 C 0.33547 0.27999 0.21892 0.0
O539 O 0.23177 0.29035 0.30806 0.0
O540 O 0.25607 0.36396 0.27797 0.0
O541 O 0.34598 0.32558 0.23102 0.0
O542 O 0.31928 0.25071 0.25621 0.0
O543 O 0.40156 0.34816 0.32238 0.0
H544 H 0.26497 0.4571 0.29784 0.0
H545 H 0.41685 0.41675 0.24037 0.0
O546 O 0.38096 0.27045 0.34476 0.0
O547 O 0.29333 0.31304 0.39688 0.0
O548 O 0.31241 0.38873 0.36941 0.0
C549 C 0.30048 0.35939 0.40779 0.0
H550 H 0.24045 0.14379 0.44535 0.0
H551 H 0.3058 0.5399 0.25618 0.0
Co552 Co 0.55922 0.52555 0.0452 0.0
C553 C 0.57099 0.56281 0.14115 0.0
Co554 Co 0.59649 0.60004 0.0425 0.0
C555 C 0.57141 0.421 0.0216 0.0
C556 C 0.50069 0.43351 0.06796 0.0
N557 N 0.54104 0.45803 0.04489 0.0
N558 N 0.55218 0.37446 0.02918 0.0
C559 C 0.50721 0.38184 0.05788 0.0
H560 H 0.60678 0.4282 0.9984 0.0
H561 H 0.46897 0.45187 0.0908 0.0
C562 C 0.58731 0.56182 0.94663 0.0
N563 N 0.61222 0.66832 0.0437 0.0
C564 C 0.58243 0.70164 0.07302 0.0
C565 C 0.63754 0.6978 0.0079 0.0
N566 N 0.5863 0.75012 0.05584 0.0
C567 C 0.6221 0.74842 0.01572 0.0
C568 C 0.66969 0.52753 0.04919 0.0
O569 O 0.56673 0.52552 0.97244 0.0
O570 O 0.60167 0.60063 0.96997 0.0
O571 O 0.66672 0.57609 0.04544 0.0
O572 O 0.62876 0.50232 0.05011 0.0
O573 O 0.59164 0.59858 0.11493 0.0
H574 H 0.66134 0.68338 0.97524 0.0
H575 H 0.55472 0.69007 0.10369 0.0
O576 O 0.5526 0.52577 0.11792 0.0
O577 O 0.48863 0.55031 0.04045 0.0
O578 O 0.52722 0.62322 0.03945 0.0
C579 C 0.48605 0.59888 0.03877 0.0
H580 H 0.48103 0.35223 0.07054 0.0
H581 H 0.63388 0.78091 0.99184 0.0
Co582 Co 0.8248 0.34307 0.31432 0.0
C583 C 0.72152 0.32393 0.34938 0.0
Co584 Co 0.79942 0.27023 0.28728 0.0
C585 C 0.86301 0.43941 0.2979 0.0
C586 C 0.83089 0.4331 0.3763 0.0
N587 N 0.84179 0.40637 0.33241 0.0
N588 N 0.86536 0.48592 0.31786 0.0
C589 C 0.84564 0.48265 0.3674 0.0
H590 H 0.87577 0.42966 0.25832 0.0
H591 H 0.81216 0.41797 0.41165 0.0
C592 C 0.90459 0.29324 0.25427 0.0
N593 N 0.7818 0.2057 0.26964 0.0
C594 C 0.73508 0.1857 0.28122 0.0
C595 C 0.81525 0.16492 0.26179 0.0
N596 N 0.7389 0.13461 0.28479 0.0
C597 C 0.78874 0.12089 0.2709 0.0
C598 C 0.77677 0.34416 0.21729 0.0
O599 O 0.89401 0.33231 0.28172 0.0
O600 O 0.86866 0.2612 0.25006 0.0
O601 O 0.77092 0.29722 0.22677 0.0
O602 O 0.79943 0.37078 0.24971 0.0
O603 O 0.73084 0.28202 0.32577 0.0
H604 H 0.8572 0.16669 0.25604 0.0
H605 H 0.69975 0.20777 0.292 0.0
O606 O 0.75726 0.35589 0.34786 0.0
O607 O 0.84969 0.31415 0.37772 0.0
O608 O 0.82732 0.24105 0.34714 0.0
C609 C 0.84705 0.26587 0.38241 0.0
H610 H 0.84221 0.51359 0.3949 0.0
H611 H 0.80583 0.0823 0.27217 0.0
Co612 Co 0.06216 0.55815 0.52968 0.0
C613 C 0.1657 0.52742 0.55977 0.0
Co614 Co 0.08546 0.59067 0.60256 0.0
C615 C 0.04085 0.56326 0.42301 0.0
C616 C 0.06222 0.48654 0.44659 0.0
N617 N 0.05336 0.53437 0.46473 0.0
N618 N 0.0408 0.53556 0.3795 0.0
C619 C 0.05408 0.48709 0.39371 0.0
H620 H 0.03039 0.60376 0.42489 0.0
H621 H 0.07395 0.45357 0.47025 0.0
C622 C 0.98098 0.62098 0.57103 0.0
N623 N 0.09467 0.61158 0.66938 0.0
C624 C 0.10641 0.57573 0.70576 0.0
C625 C 0.06672 0.64861 0.69561 0.0
N626 N 0.08206 0.58574 0.75192 0.0
C627 C 0.05884 0.63261 0.74697 0.0
C628 C 0.1118 0.65294 0.52583 0.0
O629 O 0.99155 0.59194 0.53228 0.0
O630 O 1.01632 0.6255 0.60413 0.0
O631 O 0.11473 0.6486 0.57487 0.0
O632 O 0.09058 0.61891 0.50028 0.0
O633 O 0.15551 0.55519 0.59958 0.0
H634 H 0.04712 0.68143 0.6774 0.0
H635 H 0.12569 0.53916 0.69651 0.0
O636 O 0.13055 0.52455 0.52652 0.0
O637 O 0.03457 0.4984 0.55886 0.0
O638 O 0.05553 0.53208 0.63174 0.0
C639 C 0.03647 0.49626 0.60806 0.0
H640 H 0.05626 0.45453 0.36821 0.0
H641 H 0.03444 0.65177 0.77677 0.0
Co642 Co 0.85584 0.83436 0.32235 0.0
C643 C 0.83462 0.8666 0.21761 0.0
Co644 Co 0.78426 0.8041 0.29498 0.0
C645 C 0.95353 0.81061 0.3603 0.0
C646 C 0.95607 0.88214 0.31837 0.0
N647 N 0.92302 0.84681 0.3374 0.0
N648 N 1.0042 0.82075 0.35532 0.0
C649 C 1.00662 0.86606 0.32955 0.0
H650 H 0.93914 0.77541 0.37727 0.0
H651 H 0.94465 0.91549 0.29514 0.0
C652 C 0.80904 0.77026 0.40011 0.0
N653 N 0.7168 0.79059 0.28097 0.0
C654 C 0.69519 0.79722 0.23413 0.0
C655 C 0.67614 0.79172 0.31635 0.0
N656 N 0.64324 0.80599 0.23922 0.0
C657 C 0.63059 0.80136 0.29063 0.0
C658 C 0.85672 0.73913 0.27044 0.0
O659 O 0.84524 0.80166 0.39245 0.0
O660 O 0.77854 0.76451 0.3624 0.0
O661 O 0.80869 0.7458 0.26241 0.0
O662 O 0.88057 0.77169 0.29515 0.0
O663 O 0.79254 0.8432 0.2271 0.0
H664 H 0.67977 0.79167 0.35832 0.0
H665 H 0.7174 0.80093 0.19744 0.0
O666 O 0.86724 0.86656 0.25382 0.0
O667 O 0.83066 0.89673 0.34888 0.0
O668 O 0.75809 0.86252 0.32719 0.0
C669 C 0.78128 0.89865 0.34664 0.0
H670 H 0.0421 0.88544 0.31878 0.0
H671 H 0.59189 0.80817 0.30854 0.0
Co672 Co 0.85421 0.30588 0.84669 0.0
C673 C 0.89773 0.25219 0.76997 0.0
Co674 Co 0.80969 0.31914 0.77569 0.0
C675 C 0.84755 0.29599 0.95468 0.0
C676 C 0.92847 0.2992 0.93097 0.0
N677 N 0.88038 0.29522 0.91227 0.0
N678 N 0.87196 0.30522 0.99861 0.0
C679 C 0.92342 0.30509 0.98461 0.0
H680 H 0.80535 0.29762 0.95228 0.0
H681 H 0.96378 0.30361 0.9069 0.0
C682 C 0.76707 0.37317 0.85313 0.0
N683 N 0.78184 0.33288 0.71118 0.0
C684 C 0.79624 0.30317 0.6708 0.0
C685 C 0.77219 0.37983 0.68942 0.0
N686 N 0.80308 0.33039 0.62637 0.0
C687 C 0.78491 0.37824 0.63639 0.0
C688 C 0.76591 0.24771 0.83567 0.0
O689 O 0.80817 0.35717 0.87498 0.0
O690 O 0.76016 0.36315 0.806 0.0
O691 O 0.76388 0.26669 0.78979 0.0
O692 O 0.80371 0.25741 0.86382 0.0
O693 O 0.86047 0.27365 0.74604 0.0
H694 H 0.76514 0.41442 0.71149 0.0
H695 H 0.80818 0.26313 0.67492 0.0
O696 O 0.90043 0.25642 0.81893 0.0
O697 O 0.90437 0.35384 0.82787 0.0
O698 O 0.85589 0.37148 0.76063 0.0
C699 C 0.89855 0.3751 0.78325 0.0
H700 H 0.95418 0.31568 0.00958 0.0
H701 H 0.78791 0.41075 0.60971 0.0
Co702 Co 0.80634 0.78142 0.82684 0.0
C703 C 0.9149 0.80497 0.8431 0.0
Co704 Co 0.82846 0.85627 0.80053 0.0
C705 C 0.80593 0.67213 0.84025 0.0
C706 C 0.76518 0.71231 0.90285 0.0
N707 N 0.7927 0.71945 0.85727 0.0
N708 N 0.78648 0.63623 0.873 0.0
C709 C 0.76209 0.66128 0.91297 0.0
H710 H 0.82613 0.6642 0.80313 0.0
H711 H 0.74613 0.74188 0.92651 0.0
C712 C 0.72104 0.83094 0.78161 0.0
N713 N 0.83836 0.91929 0.77299 0.0
C714 C 0.88038 0.93836 0.74778 0.0
C715 C 0.80286 0.95879 0.77762 0.0
N716 N 0.87269 0.98871 0.73793 0.0
C717 C 0.82383 1.00162 0.75584 0.0
C718 C 0.83547 0.77998 0.71892 0.0
O719 O 0.73177 0.79036 0.80806 0.0
O720 O 0.75608 0.86397 0.77796 0.0
O721 O 0.84599 0.82556 0.73102 0.0
O722 O 0.81927 0.7507 0.75622 0.0
O723 O 0.90157 0.84814 0.82239 0.0
H724 H 0.765 0.95711 0.7978 0.0
H725 H 0.91689 0.91671 0.74039 0.0
O726 O 0.88096 0.77044 0.84476 0.0
O727 O 0.79333 0.81304 0.89688 0.0
O728 O 0.81242 0.88873 0.86941 0.0
C729 C 0.80049 0.8594 0.90779 0.0
H730 H 0.74042 0.64381 0.94536 0.0
H731 H 0.80587 0.03989 0.75613 0.0
Co732 Co 0.55952 0.58009 0.52212 0.0
C733 C 0.55498 0.66224 0.59835 0.0
Co734 Co 0.58548 0.55754 0.59853 0.0
C735 C 0.51145 0.58042 0.42502 0.0
C736 C 0.5511 0.64974 0.43615 0.0
N737 N 0.53979 0.60458 0.45916 0.0
N738 N 0.50506 0.60861 0.38126 0.0
C739 C 0.52965 0.65237 0.38789 0.0
H740 H 0.49653 0.54269 0.43184 0.0
H741 H 0.57391 0.67847 0.45315 0.0
C742 C 0.59061 0.47548 0.52201 0.0
N743 N 0.60674 0.53158 0.66078 0.0
C744 C 0.6395 0.55343 0.69244 0.0
C745 C 0.60366 0.48277 0.67827 0.0
N746 N 0.65824 0.5197 0.72795 0.0
C747 C 0.63593 0.47515 0.71944 0.0
C748 C 0.47704 0.53815 0.58176 0.0
O749 O 0.57449 0.51119 0.49133 0.0
O750 O 0.6009 0.48854 0.56814 0.0
O751 O 0.51262 0.53665 0.61567 0.0
O752 O 0.4881 0.55865 0.53746 0.0
O753 O 0.57135 0.62646 0.62905 0.0
H754 H 0.5814 0.45397 0.66069 0.0
H755 H 0.65134 0.59254 0.68791 0.0
O756 O 0.54365 0.64924 0.5523 0.0
O757 O 0.63128 0.6021 0.50567 0.0
O758 O 0.65736 0.57897 0.58279 0.0
C759 C 0.66709 0.60121 0.53911 0.0
H760 H 0.53237 0.6837 0.35968 0.0
H761 H 0.64211 0.43987 0.74172 0.0
Co762 Co 0.04244 0.56064 0.05717 0.0
C763 C 0.06232 0.66309 0.02268 0.0
Co764 Co 0.11286 0.58724 0.08939 0.0
C765 C 0.9462 0.51916 0.06871 0.0
C766 C 0.96079 0.53908 0.98782 0.0
N767 N 0.98049 0.54151 0.03575 0.0
N768 N 0.90648 0.50152 0.04355 0.0
C769 C 0.91463 0.51396 0.99254 0.0
H770 H 0.95203 0.51288 0.11011 0.0
H771 H 0.97986 0.55244 0.95189 0.0
C772 C 0.08841 0.48299 0.12286 0.0
N773 N 0.17665 0.60483 0.11088 0.0
C774 C 0.19532 0.65182 0.104 0.0
C775 C 0.21919 0.5724 0.11019 0.0
N776 N 0.24699 0.64931 0.09323 0.0
C777 C 0.26271 0.59978 0.09864 0.0
C778 C 0.03255 0.61042 0.15255 0.0
O779 O 0.05235 0.4919 0.09087 0.0
O780 O 0.11898 0.51974 0.12977 0.0
O781 O 0.08084 0.61722 0.14709 0.0
O782 O 1.00939 0.5861 0.11883 0.0
O783 O 0.10364 0.65455 0.04855 0.0
H784 H 0.21801 0.53118 0.10963 0.0
H785 H 0.171 0.68634 0.09927 0.0
O786 O 0.03048 0.62709 0.02242 0.0
O787 O 0.07539 0.53625 0.99677 0.0
O788 O 0.14769 0.55796 0.0313 0.0
C789 C 0.12458 0.53889 0.99448 0.0
H790 H 0.89012 0.5041 0.96107 0.0
H791 H 0.30191 0.58403 0.09019 0.0
loop_
_geom_bond_atom_site_label_1
_geom_bond_atom_site_label_2
_geom_bond_distance
_geom_bond_site_symmetry_2
_ccdc_geom_bond_type
C0 O1 1.160 . S
C0 O7 1.185 . S
O1 C0 1.160 . S
O2 Zn3 1.899 . S
O2 C10 1.284 . S
Zn3 O2 1.899 . S
Zn3 O4 2.032 . S
Zn3 O7 2.086 1_455 S
Zn3 O12 1.977 . S
O4 Zn3 2.032 . S
O4 C8 1.278 . S
C5 O6 1.203 . S
C5 O12 1.267 . S
O6 C5 1.203 . S
O7 C0 1.185 . S
O7 Zn3 2.086 1_655 S
C8 O4 1.278 . S
C8 O9 1.211 . S
O9 C8 1.211 . S
C10 O2 1.284 . S
C10 O11 1.273 . S
O11 C10 1.273 . S
O12 Zn3 1.977 . S
O12 C5 1.267 . S
C13 O14 1.160 . S
C13 O20 1.185 . S
O14 C13 1.160 . S
O15 Zn16 1.899 . S
O15 C23 1.284 . S
Zn16 O15 1.899 . S
Zn16 O17 2.032 . S
Zn16 O20 2.086 . S
Zn16 O25 1.977 . S
O17 Zn16 2.032 . S
O17 C21 1.278 . S
C18 O19 1.203 1_455 S
C18 O25 1.267 . S
O19 C18 1.203 1_655 S
O20 C13 1.185 . S
O20 Zn16 2.086 . S
C21 O17 1.278 . S
C21 O22 1.211 . S
O22 C21 1.211 . S
C23 O15 1.284 . S
C23 O24 1.273 . S
O24 C23 1.273 . S
O25 Zn16 1.977 . S
O25 C18 1.267 . S
C26 O27 1.160 . S
C26 O33 1.185 . S
O27 C26 1.160 . S
O28 Zn29 1.899 . S
O28 C36 1.284 . S
Zn29 O28 1.899 . S
Zn29 O30 2.032 . S
Zn29 O33 2.086 . S
Zn29 O38 1.977 . S
O30 Zn29 2.032 . S
O30 C34 1.278 . S
C31 O32 1.203 . S
C31 O38 1.267 . S
O32 C31 1.203 . S
O33 C26 1.185 . S
O33 Zn29 2.086 . S
C34 O30 1.278 . S
C34 O35 1.211 . S
O35 C34 1.211 . S
C36 O28 1.284 . S
C36 O37 1.273 . S
O37 C36 1.273 . S
O38 Zn29 1.977 . S
O38 C31 1.267 . S
C39 O40 1.160 . S
C39 O46 1.185 . S
O40 C39 1.160 . S
O41 Zn42 1.899 . S
O41 C49 1.284 1_556 S
Zn42 O41 1.899 . S
Zn42 O43 2.032 . S
Zn42 O46 2.086 . S
Zn42 O51 1.977 . S
O43 Zn42 2.032 . S
O43 C47 1.278 . S
C44 O45 1.203 . S
C44 O51 1.267 . S
O45 C44 1.203 . S
O46 C39 1.185 . S
O46 Zn42 2.086 . S
C47 O43 1.278 . S
C47 O48 1.211 . S
O48 C47 1.211 . S
C49 O41 1.284 1_554 S
C49 O50 1.273 . S
O50 C49 1.273 . S
O51 Zn42 1.977 . S
O51 C44 1.267 . S
C52 O53 1.160 . S
C52 O59 1.185 . S
O53 C52 1.160 . S
O54 Zn55 1.899 . S
O54 C62 1.284 1_565 S
Zn55 O54 1.899 . S
Zn55 O56 2.032 . S
Zn55 O59 2.086 . S
Zn55 O64 1.977 1_565 S
O56 Zn55 2.032 . S
O56 C60 1.278 1_565 S
C57 O58 1.203 . S
C57 O64 1.267 . S
O58 C57 1.203 . S
O59 C52 1.185 . S
O59 Zn55 2.086 . S
C60 O56 1.278 1_545 S
C60 O61 1.211 . S
O61 C60 1.211 . S
C62 O54 1.284 1_545 S
C62 O63 1.273 . S
O63 C62 1.273 . S
O64 Zn55 1.977 1_545 S
O64 C57 1.267 . S
C65 O66 1.160 . S
C65 O72 1.192 . S
O66 C65 1.160 . S
O67 Zn68 1.899 . S
O67 C75 1.284 . S
Zn68 O67 1.899 . S
Zn68 O69 2.032 . S
Zn68 O72 2.101 . S
Zn68 O77 1.977 . S
O69 Zn68 2.032 . S
O69 C73 1.278 . S
C70 O71 1.203 . S
C70 O77 1.267 . S
O71 C70 1.203 . S
O72 C65 1.192 . S
O72 Zn68 2.101 . S
C73 O69 1.278 . S
C73 O74 1.211 . S
O74 C73 1.211 . S
C75 O67 1.284 . S
C75 O76 1.273 . S
O76 C75 1.273 . S
O77 Zn68 1.977 . S
O77 C70 1.267 . S
C78 O79 1.160 . S
C78 O85 1.185 . S
O79 C78 1.160 . S
O80 Zn81 1.899 . S
O80 C88 1.284 . S
Zn81 O80 1.899 . S
Zn81 O82 2.032 . S
Zn81 O85 2.086 . S
Zn81 O90 1.977 . S
O82 Zn81 2.032 . S
O82 C86 1.278 . S
C83 O84 1.203 1_545 S
C83 O90 1.267 . S
O84 C83 1.203 1_565 S
O85 C78 1.185 . S
O85 Zn81 2.086 . S
C86 O82 1.278 . S
C86 O87 1.211 . S
O87 C86 1.211 . S
C88 O80 1.284 . S
C88 O89 1.273 . S
O89 C88 1.273 . S
O90 Zn81 1.977 . S
O90 C83 1.267 . S
C91 O92 1.160 . S
C91 O98 1.185 . S
O92 C91 1.160 . S
O93 Zn94 1.899 . S
O93 C101 1.284 . S
Zn94 O93 1.899 . S
Zn94 O95 2.032 . S
Zn94 O98 2.086 . S
Zn94 O103 1.977 . S
O95 Zn94 2.032 . S
O95 C99 1.278 1_554 S
C96 O97 1.203 . S
C96 O103 1.267 . S
O97 C96 1.203 . S
O98 C91 1.185 . S
O98 Zn94 2.086 . S
C99 O95 1.278 1_556 S
C99 O100 1.211 . S
O100 C99 1.211 . S
C101 O93 1.284 . S
C101 O102 1.273 . S
O102 C101 1.273 . S
O103 Zn94 1.977 . S
O103 C96 1.267 . S
C104 O105 1.160 . S
C104 O111 1.185 . S
O105 C104 1.160 . S
O106 Zn107 1.899 . S
O106 C114 1.284 . S
Zn107 O106 1.899 . S
Zn107 O108 2.032 . S
Zn107 O111 2.086 . S
Zn107 O116 1.977 . S
O108 Zn107 2.032 . S
O108 C112 1.278 . S
C109 O110 1.203 . S
C109 O116 1.267 . S
O110 C109 1.203 . S
O111 C104 1.185 . S
O111 Zn107 2.086 . S
C112 O108 1.278 . S
C112 O113 1.211 . S
O113 C112 1.211 . S
C114 O106 1.284 . S
C114 O115 1.273 . S
O115 C114 1.273 . S
O116 Zn107 1.977 . S
O116 C109 1.267 . S
C117 O118 1.160 . S
C117 O124 1.185 . S
O118 C117 1.160 . S
O119 Zn120 1.899 . S
O119 C127 1.284 . S
Zn120 O119 1.899 . S
Zn120 O121 2.032 . S
Zn120 O124 2.086 . S
Zn120 O129 1.977 . S
O121 Zn120 2.032 . S
O121 C125 1.278 . S
C122 O123 1.203 . S
C122 O129 1.267 . S
O123 C122 1.203 . S
O124 C117 1.185 . S
O124 Zn120 2.086 . S
C125 O121 1.278 . S
C125 O126 1.211 . S
O126 C125 1.211 . S
C127 O119 1.284 . S
C127 O128 1.273 1_655 S
O128 C127 1.273 1_455 S
O129 Zn120 1.977 . S
O129 C122 1.267 . S
C130 O131 1.160 . S
C130 O137 1.185 . S
O131 C130 1.160 . S
O132 Zn133 1.899 . S
O132 C140 1.284 . S
Zn133 O132 1.899 . S
Zn133 O134 2.032 . S
Zn133 O137 2.086 . S
Zn133 O142 1.977 . S
O134 Zn133 2.032 . S
O134 C138 1.278 . S
C135 O136 1.203 . S
C135 O142 1.267 . S
O136 C135 1.203 . S
O137 C130 1.185 . S
O137 Zn133 2.086 . S
C138 O134 1.278 . S
C138 O139 1.211 . S
O139 C138 1.211 . S
C140 O132 1.284 . S
C140 O141 1.273 . S
O141 C140 1.273 . S
O142 Zn133 1.977 . S
O142 C135 1.267 . S
C143 O144 1.160 . S
C143 O150 1.185 . S
O144 C143 1.160 . S
O145 Zn146 1.899 . S
O145 C153 1.284 . S
Zn146 O145 1.899 . S
Zn146 O147 2.032 . S
Zn146 O150 2.086 . S
Zn146 O155 1.977 . S
O147 Zn146 2.032 . S
O147 C151 1.278 . S
C148 O149 1.203 . S
C148 O155 1.267 . S
O149 C148 1.203 . S
O150 C143 1.185 . S
O150 Zn146 2.086 . S
C151 O147 1.278 . S
C151 O152 1.211 . S
O152 C151 1.211 . S
C153 O145 1.284 . S
C153 O154 1.273 . S
O154 C153 1.273 . S
O155 Zn146 1.977 . S
O155 C148 1.267 . S
C156 O157 1.160 . S
C156 O163 1.185 . S
O157 C156 1.160 . S
O158 Zn159 1.899 . S
O158 C166 1.284 1_556 S
Zn159 O158 1.899 . S
Zn159 O160 2.032 . S
Zn159 O163 2.086 . S
Zn159 O168 1.977 1_455 S
O160 Zn159 2.032 . S
O160 C164 1.278 . S
C161 O162 1.203 . S
C161 O168 1.267 . S
O162 C161 1.203 . S
O163 C156 1.185 . S
O163 Zn159 2.086 . S
C164 O160 1.278 . S
C164 O165 1.211 1_455 S
O165 C164 1.211 1_655 S
C166 O158 1.284 1_554 S
C166 O167 1.273 . S
O167 C166 1.273 . S
O168 Zn159 1.977 1_655 S
O168 C161 1.267 . S
C169 O170 1.160 . S
C169 O176 1.185 . S
O170 C169 1.160 . S
O171 Zn172 1.899 . S
O171 C179 1.284 1_655 S
Zn172 O171 1.899 . S
Zn172 O173 2.032 . S
Zn172 O176 2.086 . S
Zn172 O181 1.977 1_655 S
O173 Zn172 2.032 . S
O173 C177 1.278 1_655 S
C174 O175 1.203 . S
C174 O181 1.267 . S
O175 C174 1.203 . S
O176 C169 1.185 . S
O176 Zn172 2.086 . S
C177 O173 1.278 1_455 S
C177 O178 1.211 . S
O178 C177 1.211 . S
C179 O171 1.284 1_455 S
C179 O180 1.273 . S
O180 C179 1.273 . S
O181 Zn172 1.977 1_455 S
O181 C174 1.267 . S
C182 O183 1.160 . S
C182 O189 1.185 . S
O183 C182 1.160 . S
O184 Zn185 1.899 . S
O184 C192 1.284 . S
Zn185 O184 1.899 . S
Zn185 O186 2.032 . S
Zn185 O189 2.086 . S
Zn185 O194 1.977 . S
O186 Zn185 2.032 . S
O186 C190 1.278 . S
C187 O188 1.203 . S
C187 O194 1.267 . S
O188 C187 1.203 . S
O189 C182 1.185 . S
O189 Zn185 2.086 . S
C190 O186 1.278 . S
C190 O191 1.211 . S
O191 C190 1.211 . S
C192 O184 1.284 . S
C192 O193 1.273 . S
O193 C192 1.273 . S
O194 Zn185 1.977 . S
O194 C187 1.267 . S
C195 O196 1.160 . S
C195 O202 1.185 . S
O196 C195 1.160 . S
O197 Zn198 1.899 . S
O197 C205 1.284 . S
Zn198 O197 1.899 . S
Zn198 O199 2.032 . S
Zn198 O202 2.086 . S
Zn198 O207 1.977 . S
O199 Zn198 2.032 . S
O199 C203 1.278 . S
C200 O201 1.203 . S
C200 O207 1.267 . S
O201 C200 1.203 . S
O202 C195 1.185 . S
O202 Zn198 2.086 . S
C203 O199 1.278 . S
C203 O204 1.211 . S
O204 C203 1.211 . S
C205 O197 1.284 . S
C205 O206 1.273 . S
O206 C205 1.273 . S
O207 Zn198 1.977 . S
O207 C200 1.267 . S
C208 O209 1.160 . S
C208 O215 1.185 . S
O209 C208 1.160 . S
O210 Zn211 1.899 . S
O210 C218 1.284 . S
Zn211 O210 1.899 . S
Zn211 O212 2.032 . S
Zn211 O215 2.086 . S
Zn211 O220 1.977 . S
O212 Zn211 2.032 . S
O212 C216 1.278 . S
C213 O214 1.203 1_545 S
C213 O220 1.267 . S
O214 C213 1.203 1_565 S
O215 C208 1.185 . S
O215 Zn211 2.086 . S
C216 O212 1.278 . S
C216 O217 1.211 . S
O217 C216 1.211 . S
C218 O210 1.284 . S
C218 O219 1.273 1_655 S
O219 C218 1.273 1_455 S
O220 Zn211 1.977 . S
O220 C213 1.267 . S
C221 O222 1.160 . S
C221 O228 1.185 . S
O222 C221 1.160 . S
O223 Zn224 1.899 . S
O223 C231 1.284 . S
Zn224 O223 1.899 . S
Zn224 O225 2.032 . S
Zn224 O228 2.086 . S
Zn224 O233 1.977 . S
O225 Zn224 2.032 . S
O225 C229 1.278 . S
C226 O227 1.203 . S
C226 O233 1.267 . S
O227 C226 1.203 . S
O228 C221 1.185 . S
O228 Zn224 2.086 . S
C229 O225 1.278 . S
C229 O230 1.211 . S
O230 C229 1.211 . S
C231 O223 1.284 . S
C231 O232 1.273 . S
O232 C231 1.273 . S
O233 Zn224 1.977 . S
O233 C226 1.267 . S
C234 O235 1.160 . S
C234 O241 1.185 . S
O235 C234 1.160 . S
O236 Zn237 1.899 . S
O236 C244 1.284 . S
Zn237 O236 1.899 . S
Zn237 O238 2.030 1_545 S
Zn237 O241 2.081 1_545 S
Zn237 O246 1.983 . S
O238 Zn237 2.030 1_565 S
O238 C242 1.278 1_565 S
C239 O240 1.203 . S
C239 O246 1.267 . S
O240 C239 1.203 . S
O241 C234 1.185 . S
O241 Zn237 2.081 1_565 S
C242 O238 1.278 1_545 S
C242 O243 1.211 . S
O243 C242 1.211 . S
C244 O236 1.284 . S
C244 O245 1.273 . S
O245 C244 1.273 . S
O246 Zn237 1.983 . S
O246 C239 1.267 . S
C247 O248 1.160 . S
C247 O254 1.184 1_565 S
O248 C247 1.160 . S
O249 Zn250 1.899 . S
O249 C257 1.284 . S
Zn250 O249 1.899 . S
Zn250 O251 2.032 1_554 S
Zn250 O254 2.084 1_565 S
Zn250 O259 1.977 . S
O251 Zn250 2.032 1_556 S
O251 C255 1.278 . S
C252 O253 1.203 . S
C252 O259 1.267 . S
O253 C252 1.203 . S
O254 C247 1.184 1_545 S
O254 Zn250 2.084 1_545 S
C255 O251 1.278 . S
C255 O256 1.211 . S
O256 C255 1.211 . S
C257 O249 1.284 . S
C257 O258 1.273 . S
O258 C257 1.273 . S
O259 Zn250 1.977 . S
O259 C252 1.267 . S
C260 O261 1.160 . S
C260 O267 1.185 1_554 S
O261 C260 1.160 . S
O262 Zn263 1.899 . S
O262 C270 1.284 . S
Zn263 O262 1.899 . S
Zn263 O264 2.032 1_554 S
Zn263 O267 2.086 1_554 S
Zn263 O272 1.977 1_554 S
O264 Zn263 2.032 1_556 S
O264 C268 1.278 . S
C265 O266 1.203 . S
C265 O272 1.267 1_554 S
O266 C265 1.203 . S
O267 C260 1.185 1_556 S
O267 Zn263 2.086 1_556 S
C268 O264 1.278 . S
C268 O269 1.211 . S
O269 C268 1.211 . S
C270 O262 1.284 . S
C270 O271 1.273 . S
O271 C270 1.273 . S
O272 Zn263 1.977 1_556 S
O272 C265 1.267 1_556 S
C273 O274 1.160 . S
C273 O280 1.185 . S
O274 C273 1.160 . S
O275 Zn276 1.899 . S
O275 C283 1.284 . S
Zn276 O275 1.899 . S
Zn276 O277 2.032 . S
Zn276 O280 2.086 . S
Zn276 O285 1.977 . S
O277 Zn276 2.032 . S
O277 C281 1.278 . S
C278 O279 1.203 . S
C278 O285 1.267 . S
O279 C278 1.203 . S
O280 C273 1.185 . S
O280 Zn276 2.086 . S
C281 O277 1.278 . S
C281 O282 1.211 . S
O282 C281 1.211 . S
C283 O275 1.284 . S
C283 O284 1.273 . S
O284 C283 1.273 . S
O285 Zn276 1.977 . S
O285 C278 1.267 . S
C286 O287 1.160 . S
C286 O293 1.185 . S
O287 C286 1.160 . S
O288 Zn289 1.899 . S
O288 C296 1.284 . S
Zn289 O288 1.899 . S
Zn289 O290 2.032 . S
Zn289 O293 2.086 . S
Zn289 O298 1.977 . S
O290 Zn289 2.032 . S
O290 C294 1.278 . S
C291 O292 1.203 . S
C291 O298 1.267 . S
O292 C291 1.203 . S
O293 C286 1.185 . S
O293 Zn289 2.086 . S
C294 O290 1.278 . S
C294 O295 1.211 . S
O295 C294 1.211 . S
C296 O288 1.284 . S
C296 O297 1.273 . S
O297 C296 1.273 . S
O298 Zn289 1.977 . S
O298 C291 1.267 . S
C299 O300 1.160 . S
C299 O306 1.185 . S
O300 C299 1.160 . S
O301 Zn302 1.899 . S
O301 C309 1.284 . S
Zn302 O301 1.899 . S
Zn302 O303 2.032 . S
Zn302 O306 2.086 . S
Zn302 O311 1.977 . S
O303 Zn302 2.032 . S
O303 C307 1.278 . S
C304 O305 1.203 . S
C304 O311 1.267 . S
O305 C304 1.203 . S
O306 C299 1.185 . S
O306 Zn302 2.086 . S
C307 O303 1.278 . S
C307 O308 1.211 . S
O308 C307 1.211 . S
C309 O301 1.284 . S
C309 O310 1.273 . S
O310 C309 1.273 . S
O311 Zn302 1.977 . S
O311 C304 1.267 . S
Co312 N317 2.057 1_554 S
Co312 O329 2.032 1_554 S
Co312 O332 2.062 1_455 S
Co312 O336 2.117 . S
Co312 O337 2.020 . S
C313 O333 1.259 . S
C313 O336 1.258 . S
Co314 N323 2.057 . S
Co314 O330 2.117 1_545 S
Co314 O331 2.020 1_455 S
Co314 O333 2.021 . S
Co314 O338 2.062 . S
C315 N317 1.316 . S
C315 N318 1.347 1_455 S
C315 H320 0.931 . S
C316 N317 1.375 . S
C316 C319 1.350 1_455 S
C316 H321 0.930 . S
N317 Co312 2.057 1_556 S
N317 C315 1.316 . S
N317 C316 1.375 . S
N318 C315 1.347 1_655 S
N318 C319 1.373 . S
C319 C316 1.350 1_655 S
C319 N318 1.373 . S
C319 H340 0.931 . S
H320 C315 0.931 . S
H321 C316 0.930 . S
C322 O329 1.252 1_564 S
C322 O330 1.258 . S
N323 Co314 2.057 . S
N323 C324 1.316 . S
N323 C325 1.375 1_545 S
C324 N323 1.316 . S
C324 N326 1.347 1_545 S
C324 H335 0.931 . S
C325 N323 1.375 1_565 S
C325 C327 1.350 . S
C325 H334 0.930 . S
N326 C324 1.347 1_565 S
N326 C327 1.373 . S
C327 C325 1.350 . S
C327 N326 1.373 . S
C327 H341 0.931 . S
C328 O331 1.256 . S
C328 O332 1.255 . S
O329 Co312 2.032 1_556 S
O329 C322 1.252 1_546 S
O330 Co314 2.117 1_565 S
O330 C322 1.258 . S
O331 Co314 2.020 1_655 S
O331 C328 1.256 . S
O332 Co312 2.062 1_655 S
O332 C328 1.255 . S
O333 C313 1.259 . S
O333 Co314 2.021 . S
H334 C325 0.930 . S
H335 C324 0.931 . S
O336 Co312 2.117 . S
O336 C313 1.258 . S
O337 Co312 2.020 . S
O337 C339 1.256 . S
O338 Co314 2.062 . S
O338 C339 1.255 . S
C339 O337 1.256 . S
C339 O338 1.255 . S
H340 C319 0.931 . S
H341 C327 0.931 . S
Co342 N347 2.057 . S
Co342 O359 2.021 . S
Co342 O362 2.062 . S
Co342 O366 2.117 . S
Co342 O367 2.020 . S
C343 O363 1.259 . S
C343 O366 1.258 . S
Co344 N353 2.057 . S
Co344 O360 2.117 . S
Co344 O361 2.020 . S
Co344 O363 2.021 . S
Co344 O368 2.062 . S
C345 N347 1.316 . S
C345 N348 1.347 . S
C345 H350 0.931 . S
C346 N347 1.375 . S
C346 C349 1.350 . S
C346 H351 0.930 . S
N347 Co342 2.057 . S
N347 C345 1.316 . S
N347 C346 1.375 . S
N348 C345 1.347 . S
N348 C349 1.373 . S
C349 C346 1.350 . S
C349 N348 1.373 . S
C349 H370 0.931 . S
H350 C345 0.931 . S
H351 C346 0.930 . S
C352 O359 1.259 . S
C352 O360 1.258 . S
N353 Co344 2.057 . S
N353 C354 1.316 . S
N353 C355 1.375 . S
C354 N353 1.316 . S
C354 N356 1.347 . S
C354 H365 0.931 . S
C355 N353 1.375 . S
C355 C357 1.350 . S
C355 H364 0.930 . S
N356 C354 1.347 . S
N356 C357 1.373 . S
C357 C355 1.350 . S
C357 N356 1.373 . S
C357 H371 0.931 . S
C358 O361 1.256 . S
C358 O362 1.255 . S
O359 Co342 2.021 . S
O359 C352 1.259 . S
O360 Co344 2.117 . S
O360 C352 1.258 . S
O361 Co344 2.020 . S
O361 C358 1.256 . S
O362 Co342 2.062 . S
O362 C358 1.255 . S
O363 C343 1.259 . S
O363 Co344 2.021 . S
H364 C355 0.930 . S
H365 C354 0.931 . S
O366 Co342 2.117 . S
O366 C343 1.258 . S
O367 Co342 2.020 . S
O367 C369 1.256 . S
O368 Co344 2.062 . S
O368 C369 1.255 . S
C369 O367 1.256 . S
C369 O368 1.255 . S
H370 C349 0.931 . S
H371 C357 0.931 . S
Co372 N377 2.057 . S
Co372 O389 2.021 1_545 S
Co372 O392 2.062 . S
Co372 O396 2.117 . S
Co372 O397 2.020 . S
C373 O393 1.259 . S
C373 O396 1.258 . S
Co374 N383 2.057 . S
Co374 O390 2.094 1_545 S
Co374 O391 2.020 . S
Co374 O393 2.021 . S
Co374 O398 2.062 . S
C375 N377 1.316 1_565 S
C375 N378 1.347 1_565 S
C375 H380 0.931 . S
C376 N377 1.375 . S
C376 C379 1.350 . S
C376 H381 0.930 . S
N377 Co372 2.057 . S
N377 C375 1.316 1_545 S
N377 C376 1.375 . S
N378 C375 1.347 1_545 S
N378 C379 1.373 . S
C379 C376 1.350 . S
C379 N378 1.373 . S
C379 H400 0.931 . S
H380 C375 0.931 . S
H381 C376 0.930 . S
C382 O389 1.259 . S
C382 O390 1.277 . S
N383 Co374 2.057 . S
N383 C384 1.316 . S
N383 C385 1.375 . S
C384 N383 1.316 . S
C384 N386 1.347 . S
C384 H395 0.931 . S
C385 N383 1.375 . S
C385 C387 1.350 . S
C385 H394 0.930 . S
N386 C384 1.347 . S
N386 C387 1.373 . S
C387 C385 1.350 . S
C387 N386 1.373 . S
C387 H401 0.931 . S
C388 O391 1.256 . S
C388 O392 1.255 . S
O389 Co372 2.021 1_565 S
O389 C382 1.259 . S
O390 Co374 2.094 1_565 S
O390 C382 1.277 . S
O391 Co374 2.020 . S
O391 C388 1.256 . S
O392 Co372 2.062 . S
O392 C388 1.255 . S
O393 C373 1.259 . S
O393 Co374 2.021 . S
H394 C385 0.930 . S
H395 C384 0.931 . S
O396 Co372 2.117 . S
O396 C373 1.258 . S
O397 Co372 2.020 . S
O397 C399 1.256 . S
O398 Co374 2.062 . S
O398 C399 1.255 . S
C399 O397 1.256 . S
C399 O398 1.255 . S
H400 C379 0.931 . S
H401 C387 0.931 . S
Co402 N407 2.057 . S
Co402 O419 2.021 . S
Co402 O422 2.062 . S
Co402 O426 2.117 . S
Co402 O427 2.020 . S
C403 O423 1.259 . S
C403 O426 1.258 . S
Co404 N413 2.057 . S
Co404 O420 2.117 . S
Co404 O421 2.020 . S
Co404 O423 2.021 . S
Co404 O428 2.062 . S
C405 N407 1.316 . S
C405 N408 1.347 . S
C405 H410 0.931 . S
C406 N407 1.375 . S
C406 C409 1.350 . S
C406 H411 0.930 . S
N407 Co402 2.057 . S
N407 C405 1.316 . S
N407 C406 1.375 . S
N408 C405 1.347 . S
N408 C409 1.373 . S
C409 C406 1.350 . S
C409 N408 1.373 . S
C409 H430 0.931 . S
H410 C405 0.931 . S
H411 C406 0.930 . S
C412 O419 1.259 . S
C412 O420 1.258 . S
N413 Co404 2.057 . S
N413 C414 1.316 . S
N413 C415 1.375 . S
C414 N413 1.316 . S
C414 N416 1.347 . S
C414 H425 0.931 . S
C415 N413 1.375 . S
C415 C417 1.350 . S
C415 H424 0.930 . S
N416 C414 1.347 . S
N416 C417 1.373 . S
C417 C415 1.350 . S
C417 N416 1.373 . S
C417 H431 0.931 . S
C418 O421 1.256 . S
C418 O422 1.255 . S
O419 Co402 2.021 . S
O419 C412 1.259 . S
O420 Co404 2.117 . S
O420 C412 1.258 . S
O421 Co404 2.020 . S
O421 C418 1.256 . S
O422 Co402 2.062 . S
O422 C418 1.255 . S
O423 C403 1.259 . S
O423 Co404 2.021 . S
H424 C415 0.930 . S
H425 C414 0.931 . S
O426 Co402 2.117 . S
O426 C403 1.258 . S
O427 Co402 2.020 . S
O427 C429 1.256 . S
O428 Co404 2.062 . S
O428 C429 1.255 . S
C429 O427 1.256 . S
C429 O428 1.255 . S
H430 C409 0.931 . S
H431 C417 0.931 . S
Co432 N437 2.057 1_545 S
Co432 O449 2.021 . S
Co432 O452 2.062 1_545 S
Co432 O456 2.117 . S
Co432 O457 2.020 1_455 S
C433 O453 1.259 . S
C433 O456 1.258 . S
Co434 N443 2.057 . S
Co434 O450 2.117 . S
Co434 O451 2.020 . S
Co434 O453 2.021 . S
Co434 O458 2.074 . S
C435 N437 1.316 . S
C435 N438 1.347 . S
C435 H440 0.931 . S
C436 N437 1.375 1_655 S
C436 C439 1.350 . S
C436 H441 0.930 . S
N437 Co432 2.057 1_565 S
N437 C435 1.316 . S
N437 C436 1.375 1_455 S
N438 C435 1.347 . S
N438 C439 1.373 1_455 S
C439 C436 1.350 . S
C439 N438 1.373 1_655 S
C439 H460 0.931 . S
H440 C435 0.931 . S
H441 C436 0.930 . S
C442 O449 1.259 . S
C442 O450 1.258 . S
N443 Co434 2.057 . S
N443 C444 1.316 . S
N443 C445 1.375 . S
C444 N443 1.316 . S
C444 N446 1.347 . S
C444 H455 0.931 . S
C445 N443 1.375 . S
C445 C447 1.350 . S
C445 H454 0.930 . S
N446 C444 1.347 . S
N446 C447 1.373 . S
C447 C445 1.350 . S
C447 N446 1.373 . S
C447 H461 0.931 . S
C448 O451 1.256 . S
C448 O452 1.255 1_545 S
O449 Co432 2.021 . S
O449 C442 1.259 . S
O450 Co434 2.117 . S
O450 C442 1.258 . S
O451 Co434 2.020 . S
O451 C448 1.256 . S
O452 Co432 2.062 1_565 S
O452 C448 1.255 1_565 S
O453 C433 1.259 . S
O453 Co434 2.021 . S
H454 C445 0.930 . S
H455 C444 0.931 . S
O456 Co432 2.117 . S
O456 C433 1.258 . S
O457 Co432 2.020 1_655 S
O457 C459 1.256 . S
O458 Co434 2.074 . S
O458 C459 1.246 1_455 S
C459 O457 1.256 . S
C459 O458 1.246 1_655 S
H460 C439 0.931 . S
H461 C447 0.931 . S
Co462 N467 2.057 . S
Co462 O479 2.021 . S
Co462 O482 2.062 . S
Co462 O486 2.117 . S
Co462 O487 2.020 . S
C463 O483 1.259 . S
C463 O486 1.258 . S
Co464 N473 2.057 . S
Co464 O480 2.117 . S
Co464 O481 2.020 . S
Co464 O483 2.021 . S
Co464 O488 2.062 . S
C465 N467 1.316 . S
C465 N468 1.346 . S
C465 H470 0.931 . S
C466 N467 1.375 . S
C466 C469 1.356 . S
C466 H471 0.930 . S
N467 Co462 2.057 . S
N467 C465 1.316 . S
N467 C466 1.375 . S
N468 C465 1.346 . S
N468 C469 1.373 . S
C469 C466 1.356 . S
C469 N468 1.373 . S
C469 H490 0.926 1_565 S
H470 C465 0.931 . S
H471 C466 0.930 . S
C472 O479 1.259 . S
C472 O480 1.258 . S
N473 Co464 2.057 . S
N473 C474 1.316 . S
N473 C475 1.375 . S
C474 N473 1.316 . S
C474 N476 1.347 . S
C474 H485 0.931 . S
C475 N473 1.375 . S
C475 C477 1.350 . S
C475 H484 0.930 . S
N476 C474 1.347 . S
N476 C477 1.373 . S
C477 C475 1.350 . S
C477 N476 1.373 . S
C477 H491 0.931 . S
C478 O481 1.256 . S
C478 O482 1.255 . S
O479 Co462 2.021 . S
O479 C472 1.259 . S
O480 Co464 2.117 . S
O480 C472 1.258 . S
O481 Co464 2.020 . S
O481 C478 1.256 . S
O482 Co462 2.062 . S
O482 C478 1.255 . S
O483 C463 1.259 . S
O483 Co464 2.021 . S
H484 C475 0.930 . S
H485 C474 0.931 . S
O486 Co462 2.117 . S
O486 C463 1.258 . S
O487 Co462 2.020 . S
O487 C489 1.256 . S
O488 Co464 2.062 . S
O488 C489 1.255 . S
C489 O487 1.256 . S
C489 O488 1.255 . S
H490 C469 0.926 1_545 S
H491 C477 0.931 . S
Co492 N497 2.057 1_554 S
Co492 O509 2.021 . S
Co492 O512 2.062 1_554 S
Co492 O516 2.117 . S
Co492 O517 2.020 1_545 S
C493 O513 1.259 . S
C493 O516 1.258 . S
Co494 N503 2.057 . S
Co494 O510 2.117 . S
Co494 O511 2.020 . S
Co494 O513 2.021 . S
Co494 O518 2.062 1_545 S
C495 N497 1.316 . S
C495 N498 1.347 . S
C495 H500 0.931 . S
C496 N497 1.375 . S
C496 C499 1.350 . S
C496 H501 0.930 1_545 S
N497 Co492 2.057 1_556 S
N497 C495 1.316 . S
N497 C496 1.375 . S
N498 C495 1.347 . S
N498 C499 1.373 . S
C499 C496 1.350 . S
C499 N498 1.373 . S
C499 H520 0.931 1_545 S
H500 C495 0.931 . S
H501 C496 0.930 1_565 S
C502 O509 1.259 . S
C502 O510 1.258 . S
N503 Co494 2.057 . S
N503 C504 1.316 . S
N503 C505 1.375 . S
C504 N503 1.316 . S
C504 N506 1.347 . S
C504 H515 0.931 . S
C505 N503 1.375 . S
C505 C507 1.350 . S
C505 H514 0.930 . S
N506 C504 1.347 . S
N506 C507 1.373 . S
C507 C505 1.350 . S
C507 N506 1.373 . S
C507 H521 0.931 . S
C508 O511 1.256 . S
C508 O512 1.255 1_554 S
O509 Co492 2.021 . S
O509 C502 1.259 . S
O510 Co494 2.117 . S
O510 C502 1.258 . S
O511 Co494 2.020 . S
O511 C508 1.256 . S
O512 Co492 2.062 1_556 S
O512 C508 1.255 1_556 S
O513 C493 1.259 . S
O513 Co494 2.021 . S
H514 C505 0.930 . S
H515 C504 0.931 . S
O516 Co492 2.117 . S
O516 C493 1.258 . S
O517 Co492 2.020 1_565 S
O517 C519 1.256 . S
O518 Co494 2.062 1_565 S
O518 C519 1.255 . S
C519 O517 1.256 . S
C519 O518 1.255 . S
H520 C499 0.931 1_565 S
H521 C507 0.931 . S
Co522 N527 2.057 . S
Co522 O539 2.021 . S
Co522 O542 2.062 . S
Co522 O546 2.117 . S
Co522 O547 2.020 . S
C523 O543 1.259 . S
C523 O546 1.258 . S
Co524 N533 2.057 . S
Co524 O540 2.117 . S
Co524 O541 2.020 . S
Co524 O543 2.021 . S
Co524 O548 2.062 . S
C525 N527 1.316 . S
C525 N528 1.347 . S
C525 H530 0.931 . S
C526 N527 1.375 . S
C526 C529 1.350 . S
C526 H531 0.930 . S
N527 Co522 2.057 . S
N527 C525 1.316 . S
N527 C526 1.375 . S
N528 C525 1.347 . S
N528 C529 1.373 . S
C529 C526 1.350 . S
C529 N528 1.373 . S
C529 H550 0.931 . S
H530 C525 0.931 . S
H531 C526 0.930 . S
C532 O539 1.259 . S
C532 O540 1.258 . S
N533 Co524 2.057 . S
N533 C534 1.316 . S
N533 C535 1.375 . S
C534 N533 1.316 . S
C534 N536 1.347 . S
C534 H545 0.931 . S
C535 N533 1.375 . S
C535 C537 1.350 . S
C535 H544 0.930 . S
N536 C534 1.347 . S
N536 C537 1.373 . S
C537 C535 1.350 . S
C537 N536 1.373 . S
C537 H551 0.931 . S
C538 O541 1.256 . S
C538 O542 1.255 . S
O539 Co522 2.021 . S
O539 C532 1.259 . S
O540 Co524 2.117 . S
O540 C532 1.258 . S
O541 Co524 2.020 . S
O541 C538 1.256 . S
O542 Co522 2.062 . S
O542 C538 1.255 . S
O543 C523 1.259 . S
O543 Co524 2.021 . S
H544 C535 0.930 . S
H545 C534 0.931 . S
O546 Co522 2.117 . S
O546 C523 1.258 . S
O547 Co522 2.020 . S
O547 C549 1.256 . S
O548 Co524 2.062 . S
O548 C549 1.255 . S
C549 O547 1.256 . S
C549 O548 1.255 . S
H550 C529 0.931 . S
H551 C537 0.931 . S
Co552 N557 2.057 . S
Co552 O569 2.021 1_554 S
Co552 O572 2.062 . S
Co552 O576 2.117 . S
Co552 O577 2.020 . S
C553 O573 1.259 . S
C553 O576 1.258 . S
Co554 N563 2.057 . S
Co554 O570 2.117 1_554 S
Co554 O571 2.020 . S
Co554 O573 2.021 . S
Co554 O578 2.062 . S
C555 N557 1.316 . S
C555 N558 1.347 . S
C555 H560 0.931 1_554 S
C556 N557 1.375 . S
C556 C559 1.350 . S
C556 H561 0.930 . S
N557 Co552 2.057 . S
N557 C555 1.316 . S
N557 C556 1.375 . S
N558 C555 1.347 . S
N558 C559 1.373 . S
C559 C556 1.350 . S
C559 N558 1.373 . S
C559 H580 0.931 . S
H560 C555 0.931 1_556 S
H561 C556 0.930 . S
C562 O569 1.259 . S
C562 O570 1.258 . S
N563 Co554 2.057 . S
N563 C564 1.316 . S
N563 C565 1.375 . S
C564 N563 1.316 . S
C564 N566 1.347 . S
C564 H575 0.931 . S
C565 N563 1.375 . S
C565 C567 1.350 . S
C565 H574 0.930 . S
N566 C564 1.347 . S
N566 C567 1.373 . S
C567 C565 1.350 . S
C567 N566 1.373 . S
C567 H581 0.931 . S
C568 O571 1.256 . S
C568 O572 1.255 . S
O569 Co552 2.021 1_556 S
O569 C562 1.259 . S
O570 Co554 2.117 1_556 S
O570 C562 1.258 . S
O571 Co554 2.020 . S
O571 C568 1.256 . S
O572 Co552 2.062 . S
O572 C568 1.255 . S
O573 C553 1.259 . S
O573 Co554 2.021 . S
H574 C565 0.930 . S
H575 C564 0.931 . S
O576 Co552 2.117 . S
O576 C553 1.258 . S
O577 Co552 2.020 . S
O577 C579 1.256 . S
O578 Co554 2.062 . S
O578 C579 1.255 . S
C579 O577 1.256 . S
C579 O578 1.255 . S
H580 C559 0.931 . S
H581 C567 0.931 . S
Co582 N587 2.057 . S
Co582 O599 2.021 . S
Co582 O602 2.062 . S
Co582 O606 2.117 . S
Co582 O607 2.020 . S
C583 O603 1.259 . S
C583 O606 1.258 . S
Co584 N593 2.057 . S
Co584 O600 2.117 . S
Co584 O601 2.020 . S
Co584 O603 2.021 . S
Co584 O608 2.062 . S
C585 N587 1.316 . S
C585 N588 1.347 . S
C585 H590 0.931 . S
C586 N587 1.375 . S
C586 C589 1.350 . S
C586 H591 0.930 . S
N587 Co582 2.057 . S
N587 C585 1.316 . S
N587 C586 1.375 . S
N588 C585 1.347 . S
N588 C589 1.373 . S
C589 C586 1.350 . S
C589 N588 1.373 . S
C589 H610 0.931 . S
H590 C585 0.931 . S
H591 C586 0.930 . S
C592 O599 1.259 . S
C592 O600 1.258 . S
N593 Co584 2.057 . S
N593 C594 1.316 . S
N593 C595 1.375 . S
C594 N593 1.316 . S
C594 N596 1.347 . S
C594 H605 0.931 . S
C595 N593 1.375 . S
C595 C597 1.350 . S
C595 H604 0.930 . S
N596 C594 1.347 . S
N596 C597 1.373 . S
C597 C595 1.350 . S
C597 N596 1.373 . S
C597 H611 0.931 . S
C598 O601 1.256 . S
C598 O602 1.255 . S
O599 Co582 2.021 . S
O599 C592 1.259 . S
O600 Co584 2.117 . S
O600 C592 1.258 . S
O601 Co584 2.020 . S
O601 C598 1.256 . S
O602 Co582 2.062 . S
O602 C598 1.255 . S
O603 C583 1.259 . S
O603 Co584 2.021 . S
H604 C595 0.930 . S
H605 C594 0.931 . S
O606 Co582 2.117 . S
O606 C583 1.258 . S
O607 Co582 2.020 . S
O607 C609 1.256 . S
O608 Co584 2.062 . S
O608 C609 1.255 . S
C609 O607 1.256 . S
C609 O608 1.255 . S
H610 C589 0.931 . S
H611 C597 0.931 . S
Co612 N617 2.057 . S
Co612 O629 2.021 1_455 S
Co612 O632 2.062 . S
Co612 O636 2.117 . S
Co612 O637 2.020 . S
C613 O633 1.259 . S
C613 O636 1.258 . S
Co614 N623 2.057 . S
Co614 O630 2.117 1_455 S
Co614 O631 2.020 . S
Co614 O633 2.021 . S
Co614 O638 2.062 . S
C615 N617 1.316 1_655 S
C615 N618 1.347 1_655 S
C615 H620 0.931 . S
C616 N617 1.375 . S
C616 C619 1.350 . S
C616 H621 0.930 . S
N617 Co612 2.057 . S
N617 C615 1.316 1_455 S
N617 C616 1.375 . S
N618 C615 1.347 1_455 S
N618 C619 1.373 . S
C619 C616 1.350 . S
C619 N618 1.373 . S
C619 H640 0.931 . S
H620 C615 0.931 . S
H621 C616 0.930 . S
C622 O629 1.259 . S
C622 O630 1.258 . S
N623 Co614 2.057 . S
N623 C624 1.316 . S
N623 C625 1.375 . S
C624 N623 1.316 . S
C624 N626 1.347 . S
C624 H635 0.931 . S
C625 N623 1.375 . S
C625 C627 1.350 . S
C625 H634 0.930 . S
N626 C624 1.347 . S
N626 C627 1.373 . S
C627 C625 1.350 . S
C627 N626 1.373 . S
C627 H641 0.931 . S
C628 O631 1.256 . S
C628 O632 1.255 . S
O629 Co612 2.021 1_655 S
O629 C622 1.259 . S
O630 Co614 2.117 1_655 S
O630 C622 1.258 . S
O631 Co614 2.020 . S
O631 C628 1.256 . S
O632 Co612 2.062 . S
O632 C628 1.255 . S
O633 C613 1.259 . S
O633 Co614 2.021 . S
H634 C625 0.930 . S
H635 C624 0.931 . S
O636 Co612 2.117 . S
O636 C613 1.258 . S
O637 Co612 2.020 . S
O637 C639 1.256 . S
O638 Co614 2.062 . S
O638 C639 1.255 . S
C639 O637 1.256 . S
C639 O638 1.255 . S
H640 C619 0.931 . S
H641 C627 0.931 . S
Co642 N647 2.057 . S
Co642 O659 2.021 . S
Co642 O662 2.062 . S
Co642 O666 2.117 . S
Co642 O667 2.020 . S
C643 O663 1.259 . S
C643 O666 1.258 . S
Co644 N653 2.057 . S
Co644 O660 2.117 . S
Co644 O661 2.020 . S
Co644 O663 2.021 . S
Co644 O668 2.062 . S
C645 N647 1.316 . S
C645 N648 1.347 . S
C645 H650 0.931 . S
C646 N647 1.375 . S
C646 C649 1.350 . S
C646 H651 0.930 . S
N647 Co642 2.057 . S
N647 C645 1.316 . S
N647 C646 1.375 . S
N648 C645 1.347 . S
N648 C649 1.373 . S
C649 C646 1.350 . S
C649 N648 1.373 . S
C649 H670 0.931 1_655 S
H650 C645 0.931 . S
H651 C646 0.930 . S
C652 O659 1.259 . S
C652 O660 1.258 . S
N653 Co644 2.057 . S
N653 C654 1.316 . S
N653 C655 1.375 . S
C654 N653 1.316 . S
C654 N656 1.347 . S
C654 H665 0.931 . S
C655 N653 1.375 . S
C655 C657 1.350 . S
C655 H664 0.930 . S
N656 C654 1.347 . S
N656 C657 1.373 . S
C657 C655 1.350 . S
C657 N656 1.373 . S
C657 H671 0.931 . S
C658 O661 1.256 . S
C658 O662 1.255 . S
O659 Co642 2.021 . S
O659 C652 1.259 . S
O660 Co644 2.117 . S
O660 C652 1.258 . S
O661 Co644 2.020 . S
O661 C658 1.256 . S
O662 Co642 2.062 . S
O662 C658 1.255 . S
O663 C643 1.259 . S
O663 Co644 2.021 . S
H664 C655 0.930 . S
H665 C654 0.931 . S
O666 Co642 2.117 . S
O666 C643 1.258 . S
O667 Co642 2.020 . S
O667 C669 1.256 . S
O668 Co644 2.062 . S
O668 C669 1.255 . S
C669 O667 1.256 . S
C669 O668 1.255 . S
H670 C649 0.931 1_455 S
H671 C657 0.931 . S
Co672 N677 2.057 . S
Co672 O689 2.021 . S
Co672 O692 2.062 . S
Co672 O696 2.117 . S
Co672 O697 2.020 . S
C673 O693 1.259 . S
C673 O696 1.258 . S
Co674 N683 2.057 . S
Co674 O690 2.117 . S
Co674 O691 2.020 . S
Co674 O693 2.021 . S
Co674 O698 2.062 . S
C675 N677 1.316 . S
C675 N678 1.347 1_556 S
C675 H680 0.931 . S
C676 N677 1.375 . S
C676 C679 1.350 1_556 S
C676 H681 0.930 . S
N677 Co672 2.057 . S
N677 C675 1.316 . S
N677 C676 1.375 . S
N678 C675 1.347 1_554 S
N678 C679 1.373 . S
C679 C676 1.350 1_554 S
C679 N678 1.373 . S
C679 H700 0.931 . S
H680 C675 0.931 . S
H681 C676 0.930 . S
C682 O689 1.259 . S
C682 O690 1.258 . S
N683 Co674 2.057 . S
N683 C684 1.316 . S
N683 C685 1.375 . S
C684 N683 1.316 . S
C684 N686 1.347 . S
C684 H695 0.931 . S
C685 N683 1.375 . S
C685 C687 1.350 . S
C685 H694 0.930 . S
N686 C684 1.347 . S
N686 C687 1.373 . S
C687 C685 1.350 . S
C687 N686 1.373 . S
C687 H701 0.931 . S
C688 O691 1.256 . S
C688 O692 1.255 . S
O689 Co672 2.021 . S
O689 C682 1.259 . S
O690 Co674 2.117 . S
O690 C682 1.258 . S
O691 Co674 2.020 . S
O691 C688 1.256 . S
O692 Co672 2.062 . S
O692 C688 1.255 . S
O693 C673 1.259 . S
O693 Co674 2.021 . S
H694 C685 0.930 . S
H695 C684 0.931 . S
O696 Co672 2.117 . S
O696 C673 1.258 . S
O697 Co672 2.020 . S
O697 C699 1.256 . S
O698 Co674 2.062 . S
O698 C699 1.255 . S
C699 O697 1.256 . S
C699 O698 1.255 . S
H700 C679 0.931 . S
H701 C687 0.931 . S
Co702 N707 2.057 . S
Co702 O719 2.021 . S
Co702 O722 2.062 . S
Co702 O726 2.117 . S
Co702 O727 2.020 . S
C703 O723 1.259 . S
C703 O726 1.258 . S
Co704 N713 2.057 . S
Co704 O720 2.117 . S
Co704 O721 2.020 . S
Co704 O723 2.021 . S
Co704 O728 2.062 . S
C705 N707 1.316 . S
C705 N708 1.347 . S
C705 H710 0.931 . S
C706 N707 1.375 . S
C706 C709 1.350 . S
C706 H711 0.930 . S
N707 Co702 2.057 . S
N707 C705 1.316 . S
N707 C706 1.375 . S
N708 C705 1.347 . S
N708 C709 1.373 . S
C709 C706 1.350 . S
C709 N708 1.373 . S
C709 H730 0.931 . S
H710 C705 0.931 . S
H711 C706 0.930 . S
C712 O719 1.259 . S
C712 O720 1.258 . S
N713 Co704 2.057 . S
N713 C714 1.316 . S
N713 C715 1.375 . S
C714 N713 1.316 . S
C714 N716 1.347 . S
C714 H725 0.931 . S
C715 N713 1.375 . S
C715 C717 1.350 . S
C715 H724 0.930 . S
N716 C714 1.347 . S
N716 C717 1.373 . S
C717 C715 1.350 . S
C717 N716 1.373 . S
C717 H731 0.931 1_565 S
C718 O721 1.256 . S
C718 O722 1.255 . S
O719 Co702 2.021 . S
O719 C712 1.259 . S
O720 Co704 2.117 . S
O720 C712 1.258 . S
O721 Co704 2.020 . S
O721 C718 1.256 . S
O722 Co702 2.062 . S
O722 C718 1.255 . S
O723 C703 1.259 . S
O723 Co704 2.021 . S
H724 C715 0.930 . S
H725 C714 0.931 . S
O726 Co702 2.117 . S
O726 C703 1.258 . S
O727 Co702 2.020 . S
O727 C729 1.256 . S
O728 Co704 2.062 . S
O728 C729 1.255 . S
C729 O727 1.256 . S
C729 O728 1.255 . S
H730 C709 0.931 . S
H731 C717 0.931 1_545 S
Co732 N737 2.057 . S
Co732 O749 2.021 . S
Co732 O752 2.062 . S
Co732 O756 2.117 . S
Co732 O757 2.020 . S
C733 O753 1.259 . S
C733 O756 1.258 . S
Co734 N743 2.057 . S
Co734 O750 2.117 . S
Co734 O751 2.020 . S
Co734 O753 2.021 . S
Co734 O758 2.062 . S
C735 N737 1.316 . S
C735 N738 1.347 . S
C735 H740 0.931 . S
C736 N737 1.375 . S
C736 C739 1.350 . S
C736 H741 0.930 . S
N737 Co732 2.057 . S
N737 C735 1.316 . S
N737 C736 1.375 . S
N738 C735 1.347 . S
N738 C739 1.373 . S
C739 C736 1.350 . S
C739 N738 1.373 . S
C739 H760 0.931 . S
H740 C735 0.931 . S
H741 C736 0.930 . S
C742 O749 1.259 . S
C742 O750 1.258 . S
N743 Co734 2.057 . S
N743 C744 1.316 . S
N743 C745 1.375 . S
C744 N743 1.316 . S
C744 N746 1.347 . S
C744 H755 0.931 . S
C745 N743 1.375 . S
C745 C747 1.350 . S
C745 H754 0.930 . S
N746 C744 1.347 . S
N746 C747 1.373 . S
C747 C745 1.350 . S
C747 N746 1.373 . S
C747 H761 0.931 . S
C748 O751 1.256 . S
C748 O752 1.255 . S
O749 Co732 2.021 . S
O749 C742 1.259 . S
O750 Co734 2.117 . S
O750 C742 1.258 . S
O751 Co734 2.020 . S
O751 C748 1.256 . S
O752 Co732 2.062 . S
O752 C748 1.255 . S
O753 C733 1.259 . S
O753 Co734 2.021 . S
H754 C745 0.930 . S
H755 C744 0.931 . S
O756 Co732 2.117 . S
O756 C733 1.258 . S
O757 Co732 2.020 . S
O757 C759 1.256 . S
O758 Co734 2.062 . S
O758 C759 1.255 . S
C759 O757 1.256 . S
C759 O758 1.255 . S
H760 C739 0.931 . S
H761 C747 0.931 . S
Co762 N767 2.057 1_455 S
Co762 O779 2.021 . S
Co762 O782 2.062 1_455 S
Co762 O786 2.117 . S
Co762 O787 2.020 1_554 S
C763 O783 1.259 . S
C763 O786 1.258 . S
Co764 N773 2.057 . S
Co764 O780 2.117 . S
Co764 O781 2.020 . S
Co764 O783 2.021 . S
Co764 O788 2.047 1_554 S
C765 N767 1.316 . S
C765 N768 1.347 . S
C765 H770 0.931 . S
C766 N767 1.375 . S
C766 C769 1.350 . S
C766 H771 0.930 1_554 S
N767 Co762 2.057 1_655 S
N767 C765 1.316 . S
N767 C766 1.375 . S
N768 C765 1.347 . S
N768 C769 1.373 . S
C769 C766 1.350 . S
C769 N768 1.373 . S
C769 H790 0.931 1_554 S
H770 C765 0.931 . S
H771 C766 0.930 1_556 S
C772 O779 1.259 . S
C772 O780 1.258 . S
N773 Co764 2.057 . S
N773 C774 1.316 . S
N773 C775 1.375 . S
C774 N773 1.316 . S
C774 N776 1.347 . S
C774 H785 0.931 . S
C775 N773 1.375 . S
C775 C777 1.350 . S
C775 H784 0.930 . S
N776 C774 1.347 . S
N776 C777 1.373 . S
C777 C775 1.350 . S
C777 N776 1.373 . S
C777 H791 0.931 . S
C778 O781 1.256 . S
C778 O782 1.255 1_455 S
O779 Co762 2.021 . S
O779 C772 1.259 . S
O780 Co764 2.117 . S
O780 C772 1.258 . S
O781 Co764 2.020 . S
O781 C778 1.256 . S
O782 Co762 2.062 1_655 S
O782 C778 1.255 1_655 S
O783 C763 1.259 . S
O783 Co764 2.021 . S
H784 C775 0.930 . S
H785 C774 0.931 . S
O786 Co762 2.117 . S
O786 C763 1.258 . S
O787 Co762 2.020 1_556 S
O787 C789 1.256 . S
O788 Co764 2.047 1_556 S
O788 C789 1.265 . S
C789 O787 1.256 . S
C789 O788 1.265 . S
H790 C769 0.931 1_556 S
H791 C777 0.931 . S
C313 C10 2.710 . S
C13 C358 1.001 . S
C34 C382 2.150 . S
N408 C44 2.178 . S
C21 N438 1.915 . S
C472 C26 1.736 . S
C508 C49 1.155 . S
C5 C532 2.431 . S
C62 N326 1.157 1_545 S
C73 N348 1.991 . S
C388 C88 0.846 . S
C412 C99 2.065 . S
C60 C442 1.355 . S
C478 C75 1.041 . S
N498 C86 1.708 . S
C538 C101 2.450 . S
C339 C96 2.357 . S
C568 C104 1.128 . S
C122 N588 2.332 . S
C622 C130 1.752 . S
C57 N528 1.102 . S
N378 C70 2.259 1_545 S
C117 C658 1.095 . S
C682 C143 1.342 . S
C164 C322 2.743 1_556 S
C699 C169 0.849 . S
C192 C373 2.356 . S
C200 N656 1.991 . S
N446 C179 2.193 . S
C583 C182 1.886 . S
C519 C203 1.176 . S
C703 C161 2.396 . S
N318 C216 1.225 . S
C231 N686 2.194 . S
C399 C242 0.902 . S
C257 C643 2.264 . S
C218 C433 1.527 1_655 S
C229 C609 1.110 . S
N506 C244 1.926 . S
C255 C729 2.529 . S
C252 C328 2.307 1_565 S
C260 C579 0.911 . S
C278 N476 2.127 . S
C286 C613 1.914 . S
N716 C213 0.956 1_565 S
N386 C226 2.053 . S
C429 C273 0.941 . S
C343 C299 1.694 . S
C36 C733 2.710 . S
C688 C39 1.001 . S
C772 C8 2.150 . S
C18 N648 2.178 1_455 S
C47 N558 1.915 1_556 S
C592 C0 1.736 . S
C628 C23 1.155 . S
C712 C31 2.431 . S
N746 C153 1.157 . S
C112 N678 1.991 . S
C127 C778 0.846 1_655 S
C652 C138 2.065 . S
C562 C151 1.355 . S
C114 C598 1.041 . S
N618 C125 1.708 1_455 S
C140 C718 2.450 . S
C759 C135 2.357 . S
C448 C65 1.128 1_545 S
N468 C83 2.332 1_565 S
C91 C502 1.752 . S
N708 C148 1.102 . S
C109 N768 2.259 . S
C418 C78 1.095 . S
C352 C52 1.342 . S
C190 C742 2.743 . S
C369 C195 0.849 . S
C763 C166 2.356 . S
C174 N416 1.991 . S
C205 N566 2.193 . S
C156 C463 1.886 . S
C177 C639 1.176 . S
C187 C523 2.396 . S
N738 C307 1.225 . S
C270 N356 2.193 . S
C789 C281 0.902 . S
C296 C403 2.264 . S
C309 C553 1.527 . S
C489 C268 1.112 . S
C283 N626 1.926 . S
C549 C294 2.529 . S
C748 C291 2.307 . S
C459 C221 0.913 . S
C239 N596 2.127 . S
C493 C247 1.914 1_545 S
N536 C304 0.956 . S
C265 N776 2.050 . S
C669 C234 0.941 . S
C673 C208 1.693 . S
