# Generated by pormake.
# Topology ssa, (4,4)-cn, num edge types: 1
# Building blocks:
#     Node 0, Type 0, BuildingBlock: ESEHIV_clean_sbu_0, # of connection points: 4
#     Node 1, Type 0, BuildingBlock: ESEHIV_clean_sbu_0, # of connection points: 4
#     Node 2, Type 0, BuildingBlock: ESEHIV_clean_sbu_0, # of connection points: 4
#     Node 3, Type 0, BuildingBlock: ESEHIV_clean_sbu_0, # of connection points: 4
#     Node 4, Type 0, BuildingBlock: ESEHIV_clean_sbu_0, # of connection points: 4
#     Node 5, Type 0, BuildingBlock: ESEHIV_clean_sbu_0, # of connection points: 4
#     Node 6, Type 1, BuildingBlock: ESEHIV_clean_sbu_0, # of connection points: 4
#     Node 7, Type 1, BuildingBlock: ESEHIV_clean_sbu_0, # of connection points: 4
#     Node 8, Type 1, BuildingBlock: ESEHIV_clean_sbu_0, # of connection points: 4
#     Node 9, Type 1, BuildingBlock: ESEHIV_clean_sbu_0, # of connection points: 4
#     Node 10, Type 1, BuildingBlock: ESEHIV_clean_sbu_0, # of connection points: 4
#     Node 11, Type 1, BuildingBlock: ESEHIV_clean_sbu_0, # of connection points: 4
#     Edge 12, Type (0, 1), BuildingBlock: UVAHIK_clean_linker_0, # of connection points: 2
#     Edge 13, Type (0, 1), BuildingBlock: UVAHIK_clean_linker_0, # of connection points: 2
#     Edge 14, Type (0, 1), BuildingBlock: UVAHIK_clean_linker_0, # of connection points: 2
#     Edge 15, Type (0, 1), BuildingBlock: UVAHIK_clean_linker_0, # of connection points: 2
#     Edge 16, Type (0, 1), BuildingBlock: UVAHIK_clean_linker_0, # of connection points: 2
#     Edge 17, Type (0, 1), BuildingBlock: UVAHIK_clean_linker_0, # of connection points: 2
#     Edge 18, Type (0, 1), BuildingBlock: UVAHIK_clean_linker_0, # of connection points: 2
#     Edge 19, Type (0, 1), BuildingBlock: UVAHIK_clean_linker_0, # of connection points: 2
#     Edge 20, Type (0, 1), BuildingBlock: UVAHIK_clean_linker_0, # of connection points: 2
#     Edge 21, Type (0, 1), BuildingBlock: UVAHIK_clean_linker_0, # of connection points: 2
#     Edge 22, Type (0, 1), BuildingBlock: UVAHIK_clean_linker_0, # of connection points: 2
#     Edge 23, Type (0, 1), BuildingBlock: UVAHIK_clean_linker_0, # of connection points: 2
#     Edge 24, Type (0, 1), BuildingBlock: UVAHIK_clean_linker_0, # of connection points: 2
#     Edge 25, Type (0, 1), BuildingBlock: UVAHIK_clean_linker_0, # of connection points: 2
#     Edge 26, Type (0, 1), BuildingBlock: UVAHIK_clean_linker_0, # of connection points: 2
#     Edge 27, Type (0, 1), BuildingBlock: UVAHIK_clean_linker_0, # of connection points: 2
#     Edge 28, Type (0, 1), BuildingBlock: UVAHIK_clean_linker_0, # of connection points: 2
#     Edge 29, Type (0, 1), BuildingBlock: UVAHIK_clean_linker_0, # of connection points: 2
#     Edge 30, Type (0, 1), BuildingBlock: UVAHIK_clean_linker_0, # of connection points: 2
#     Edge 31, Type (0, 1), BuildingBlock: UVAHIK_clean_linker_0, # of connection points: 2
#     Edge 32, Type (0, 1), BuildingBlock: UVAHIK_clean_linker_0, # of connection points: 2
#     Edge 33, Type (0, 1), BuildingBlock: UVAHIK_clean_linker_0, # of connection points: 2
#     Edge 34, Type (0, 1), BuildingBlock: UVAHIK_clean_linker_0, # of connection points: 2
#     Edge 35, Type (0, 1), BuildingBlock: UVAHIK_clean_linker_0, # of connection points: 2
# Relax obj value: 0.024
# Max RMSD: 0.105
# Mean RMSD: 0.096
data_MOF--net-ssa--node1-ESEHIV_clean_sbu_0--node2-ESEHIV_clean_sbu_0--edge1-UVAHIK_clean_linker_0
_symmetry_space_group_name_H-M    P1
_symmetry_Int_Tables_number       1
_symmetry_cell_setting            triclinic
loop_
_symmetry_equiv_pos_as_xyz
'x, y, z'
_cell_length_a     62.437147
_cell_length_b     66.490901
_cell_length_c     47.436469
_cell_angle_alpha  88.356747
_cell_angle_beta   90.860925
_cell_angle_gamma 122.1921
loop_
_atom_site_label
_atom_site_type_symbol
_atom_site_fract_x
_atom_site_fract_y
_atom_site_fract_z
_atom_type_partial_charge
Cu0 Cu 0.02942 0.51738 0.9918 0.0
N1 N 0.0329 0.49972 0.9644 0.0
N2 N 0.02119 0.46897 0.93665 0.0
C3 C 1.01478 0.47727 0.95849 0.0
C4 C 0.04449 0.48692 0.92867 0.0
C5 C 0.05163 0.50596 0.9458 0.0
O6 O 0.9958 0.51319 0.98505 0.0
C7 C 0.05812 0.50876 0.02946 0.0
O8 O 0.07167 0.51496 1.0063 0.0
H9 H 0.99708 0.46738 0.96991 0.0
H10 H 0.069 0.52322 0.94446 0.0
N11 N 0.0537 0.54964 0.9877 0.0
N12 N 0.08042 0.58663 1.0019 0.0
C13 C 0.06382 0.56387 1.00984 0.0
C14 C 0.06414 0.56382 0.96469 0.0
C15 C 0.08066 0.5868 0.97344 0.0
C16 C 0.99168 0.51633 0.95922 0.0
O17 O 1.00975 0.52241 0.94079 0.0
H18 H 0.0585 0.55762 0.03144 0.0
H19 H 0.05995 0.55797 0.94317 0.0
O20 O 0.03709 0.50786 0.02873 0.0
H21 H 0.05522 0.48661 0.91118 0.0
H22 H 0.09198 0.60232 0.95997 0.0
Cu23 Cu 0.52103 0.01161 0.53197 0.0
N24 N 0.53685 1.00765 0.50094 0.0
N25 N 0.54571 0.98926 0.46822 0.0
C26 C 0.52965 0.98676 0.48888 0.0
C27 C 0.56363 0.01276 0.46729 0.0
C28 C 0.55818 0.02398 0.48745 0.0
O29 O 0.48529 0.98781 0.5288 0.0
C30 C 0.54849 0.99867 0.56965 0.0
O31 O 0.55055 0.98751 0.54847 0.0
H32 H 0.5131 0.97002 0.49553 0.0
H33 H 0.56935 0.04262 0.49243 0.0
N34 N 0.52607 0.04217 0.53387 0.0
N35 N 0.52895 0.07417 0.55293 0.0
C36 C 0.52349 0.05168 0.55742 0.0
C37 C 0.53345 0.05921 0.51367 0.0
C38 C 0.53521 0.07888 0.5253 0.0
C39 C 0.47252 0.99143 0.51052 0.0
O40 O 0.48356 0.01181 0.49641 0.0
H41 H 0.51815 0.04231 0.57761 0.0
H42 H 0.53726 0.05747 0.49201 0.0
O43 O 0.53523 1.00793 0.56682 0.0
H44 H 0.58009 0.02122 0.4537 0.0
H45 H 0.54047 0.09528 0.51408 0.0
Cu46 Cu 0.5241 0.51689 0.02755 0.0
N47 N 0.52688 0.49009 0.02463 0.0
N48 N 0.52872 0.46083 1.00442 0.0
C49 C 0.52606 0.47963 1.00026 0.0
C50 C 0.53134 0.45948 0.03262 0.0
C51 C 0.53012 0.47743 0.04499 0.0
O52 O 0.54313 0.53734 0.99559 0.0
C53 C 0.47038 0.48641 0.0293 0.0
O54 O 0.47452 0.46901 0.02978 0.0
H55 H 0.52376 0.48589 0.97981 0.0
H56 H 0.53128 0.48084 0.06729 0.0
N57 N 0.53679 0.53326 0.06156 0.0
N58 N 0.54408 0.55871 0.09614 0.0
C59 C 0.53109 0.54853 0.07218 0.0
C60 C 0.55388 0.53362 0.07944 0.0
C61 C 0.55834 0.54915 0.10072 0.0
C62 C 0.5629 0.55802 0.99775 0.0
O63 O 0.5693 0.56798 0.02247 0.0
H64 H 0.51823 0.55262 0.06187 0.0
H65 H 0.56286 0.52366 0.07693 0.0
O66 O 0.48895 0.50776 0.02622 0.0
H67 H 0.53349 0.44618 0.04365 0.0
H68 H 0.57125 0.55307 0.11815 0.0
Cu69 Cu 0.03451 0.51069 0.54727 0.0
N70 N 0.05525 0.49897 0.55554 0.0
N71 N 0.07868 0.48357 0.54746 0.0
C72 C 0.06243 0.48915 0.53645 0.0
C73 C 0.08182 0.49 0.57464 0.0
C74 C 0.06708 0.49929 0.57967 0.0
O75 O 0.04587 0.52769 0.5102 0.0
C76 C 0.99349 0.4764 0.57845 0.0
O77 O 1.0107 0.48783 0.5979 0.0
H78 H 0.05665 0.48708 0.51455 0.0
H79 H 0.06543 0.5061 0.5994 0.0
N80 N 0.03931 0.53349 0.57299 0.0
N81 N 0.02942 0.55457 0.59949 0.0
C82 C 0.02191 0.53886 0.57862 0.0
C83 C 0.05873 0.54656 0.59064 0.0
C84 C 0.05255 0.55946 0.60726 0.0
C85 C 0.06977 0.54289 0.50874 0.0
O86 O 0.08357 0.54535 0.53109 0.0
H87 H 1.00361 0.53058 0.5684 0.0
H88 H 0.07599 0.54647 0.5917 0.0
O89 O 0.99932 0.48328 0.55264 0.0
H90 H 0.09402 0.48827 0.58964 0.0
H91 H 0.06402 0.57133 0.62385 0.0
Cu92 Cu 0.52892 0.02095 0.03994 0.0
N93 N 0.5228 0.04415 0.0502 0.0
N94 N 0.51647 0.07405 0.04548 0.0
C95 C 0.52408 0.06102 0.03278 0.0
C96 C 0.51016 0.06501 0.07204 0.0
C97 C 0.51418 0.04654 0.07491 0.0
O98 O 0.53881 0.02844 0.99982 0.0
C99 C 0.49469 0.96994 0.05462 0.0
O100 O 0.51215 0.96628 0.04578 0.0
H101 H 0.52932 0.06292 1.01078 0.0
H102 H 0.5104 0.03521 0.09339 0.0
N103 N 0.55673 0.02588 0.06083 0.0
N104 N 0.58163 0.0198 0.08919 0.0
C105 C 0.55781 0.01108 0.07987 0.0
C106 C 0.58055 0.04483 0.05849 0.0
C107 C 0.59604 0.04102 0.07579 0.0
C108 C 0.55772 0.02883 0.9892 0.0
O109 O 0.56761 0.01835 1.00316 0.0
H110 H 0.5417 0.99389 0.08603 0.0
H111 H 0.58633 0.05998 0.04444 0.0
O112 O 0.49808 0.99059 0.05139 0.0
H113 H 0.50279 0.07102 0.08803 0.0
H114 H 0.61633 0.05273 0.07802 0.0
Cu115 Cu 0.52218 0.50025 0.49708 0.0
N116 N 0.54892 0.51882 0.47223 0.0
N117 N 0.5748 0.54812 0.44237 0.0
C118 C 0.55147 0.53575 0.45387 0.0
C119 C 0.58735 0.53844 0.45359 0.0
C120 C 0.57123 0.52019 0.47184 0.0
O121 O 0.49236 0.50174 0.48625 0.0
C122 C 0.55656 0.5254 0.54243 0.0
O123 O 0.56723 0.54332 0.52418 0.0
H124 H 0.53712 0.53992 0.45025 0.0
H125 H 0.57584 0.50952 0.48512 0.0
N126 N 0.51215 0.46882 0.49234 0.0
N127 N 0.49588 0.43053 0.50325 0.0
C128 C 0.49858 0.45108 0.51113 0.0
C129 C 0.51821 0.45925 0.47168 0.0
C130 C 0.50825 0.43555 0.47845 0.0
C131 C 0.4905 0.51982 0.48206 0.0
O132 O 0.50945 0.54094 0.48903 0.0
H133 H 0.49189 0.45353 0.53089 0.0
H134 H 0.52965 0.46897 0.45346 0.0
O135 O 0.5353 0.5069 0.53612 0.0
H136 H 0.60701 0.5447 0.44969 0.0
H137 H 0.51035 0.42312 0.46639 0.0
Cu138 Cu 0.2456 0.47332 0.26443 0.0
N139 N 0.24919 0.45689 0.23539 0.0
N140 N 0.26659 0.4495 0.19948 0.0
C141 C 0.27043 0.46439 0.22046 0.0
C142 C 0.24194 0.43199 0.20128 0.0
C143 C 0.23123 0.43668 0.22329 0.0
O144 O 0.2785 0.49137 0.28441 0.0
C145 C 0.20634 0.47627 0.24066 0.0
O146 O 0.19498 0.4537 0.24811 0.0
H147 H 0.28828 0.48058 0.22483 0.0
H148 H 0.21154 0.42642 0.2294 0.0
N149 N 0.2234 0.45228 0.29219 0.0
N150 N 0.20133 0.44045 0.33227 0.0
C151 C 0.21786 0.45916 0.31592 0.0
C152 C 0.21014 0.42833 0.29374 0.0
C153 C 0.19624 0.42096 0.31838 0.0
C154 C 0.28592 0.4779 0.29417 0.0
O155 O 0.27209 0.4552 0.2884 0.0
H156 H 0.22552 0.47758 0.32087 0.0
H157 H 0.21059 0.41699 0.27822 0.0
O158 O 0.2299 0.48987 0.24659 0.0
H159 H 0.23213 0.41728 0.18709 0.0
H160 H 0.18364 0.40278 0.3257 0.0
Cu161 Cu 0.77901 0.22563 0.75644 0.0
N162 N 0.77545 0.20133 0.73454 0.0
N163 N 0.75775 0.16629 0.71382 0.0
C164 C 0.75511 0.17905 0.73352 0.0
C165 C 0.78069 0.18111 0.70209 0.0
C166 C 0.79164 0.20273 0.71504 0.0
O167 O 0.74637 0.21168 0.77646 0.0
C168 C 0.79742 0.27433 0.73662 0.0
O169 O 0.79367 0.27849 0.76242 0.0
H170 H 0.73821 0.17269 0.74602 0.0
H171 H 0.80977 0.21857 0.71007 0.0
N172 N 0.80485 0.23273 0.78216 0.0
N173 N 0.84006 0.25297 0.80785 0.0
C174 C 0.82516 0.25426 0.78789 0.0
C175 C 0.80704 0.21721 0.79882 0.0
C176 C 0.8287 0.22965 0.81481 0.0
C177 C 0.7445 0.21257 0.80313 0.0
O178 O 0.76484 0.22721 0.81758 0.0
H179 H 0.8287 0.27059 0.77803 0.0
H180 H 0.79369 0.19819 0.79938 0.0
O181 O 0.79042 0.25315 0.73027 0.0
H182 H 0.78874 0.17678 0.685 0.0
H183 H 0.83552 0.22207 0.83027 0.0
Cu184 Cu 0.58357 0.79194 0.28471 0.0
N185 N 0.60393 0.81715 0.25986 0.0
N186 N 0.61701 0.85053 0.23446 0.0
C187 C 0.59786 0.83247 0.24943 0.0
C188 C 0.63581 0.84616 0.23529 0.0
C189 C 0.6277 0.82558 0.25104 0.0
O190 O 0.56531 0.80283 0.3072 0.0
C191 C 0.57827 0.75654 0.25101 0.0
O192 O 0.60291 0.77114 0.25261 0.0
H193 H 0.5798 0.83048 0.25331 0.0
H194 H 0.63869 0.8178 0.25638 0.0
N195 N 0.60385 0.78639 0.30897 0.0
N196 N 0.61685 0.76449 0.33069 0.0
C197 C 0.59725 0.76462 0.31852 0.0
C198 C 0.62841 0.80077 0.31583 0.0
C199 C 0.63646 0.78731 0.32937 0.0
C200 C 0.57999 0.82133 0.32147 0.0
O201 O 0.60442 0.83008 0.32031 0.0
H202 H 0.57867 0.749 0.31519 0.0
H203 H 0.64006 0.81942 0.30995 0.0
O204 O 0.56418 0.76245 0.2629 0.0
H205 H 0.65443 0.85742 0.22612 0.0
H206 H 0.65564 0.7936 0.33602 0.0
Cu207 Cu 0.78032 0.55246 0.77401 0.0
N208 N 0.80835 0.57189 0.75138 0.0
N209 N 0.84387 0.58521 0.72693 0.0
C210 C 0.82795 0.56934 0.74655 0.0
C211 C 0.83392 0.59826 0.71922 0.0
C212 C 0.812 0.59001 0.73441 0.0
O213 O 0.78953 0.5327 0.79684 0.0
C214 C 0.72808 0.52365 0.75182 0.0
O215 O 0.72024 0.514 0.77708 0.0
H216 H 0.82983 0.55542 0.75624 0.0
H217 H 0.79922 0.59629 0.73267 0.0
N218 N 0.77587 0.57249 0.79659 0.0
N219 N 0.75749 0.58718 0.82174 0.0
C220 C 0.75416 0.56822 0.80792 0.0
C221 C 0.7936 0.59488 0.80347 0.0
C222 C 0.78235 0.60398 0.81903 0.0
C223 C 0.7941 0.53562 0.82331 0.0
O224 O 0.78819 0.549 0.83673 0.0
H225 H 0.73635 0.5515 0.80619 0.0
H226 H 0.81326 0.60404 0.79724 0.0
O227 O 0.75176 0.53762 0.74726 0.0
H228 H 0.84169 0.61247 0.70342 0.0
H229 H 0.79171 0.62176 0.82713 0.0
Cu230 Cu 0.25245 0.77512 0.2782 0.0
N231 N 0.22923 0.77262 0.25111 0.0
N232 N 0.20259 0.758 0.21475 0.0
C233 C 0.21679 0.75445 0.23347 0.0
C234 C 0.20631 0.77935 0.22078 0.0
C235 C 0.22277 0.78833 0.24331 0.0
O236 O 0.23783 0.74338 0.29691 0.0
C237 C 0.29357 0.81143 0.24912 0.0
O238 O 0.28073 0.82106 0.25598 0.0
H239 H 0.2188 0.73924 0.23385 0.0
H240 H 0.2299 0.80532 0.25291 0.0
N241 N 0.25577 0.79555 0.30647 0.0
N242 N 0.27233 0.82015 0.34263 0.0
C243 C 0.27583 0.80739 0.32365 0.0
C244 C 0.23888 0.80083 0.31486 0.0
C245 C 0.24905 0.81604 0.33714 0.0
C246 C 0.21483 0.73374 0.30508 0.0
O247 O 0.20333 0.74518 0.29967 0.0
H248 H 0.29245 0.80625 0.32247 0.0
H249 H 0.22039 0.79397 0.30559 0.0
O250 O 0.28517 0.79004 0.25774 0.0
H251 H 0.19784 0.78786 0.20969 0.0
H252 H 0.24006 0.82363 0.34821 0.0
Cu253 Cu 0.48726 0.24732 0.77811 0.0
N254 N 0.46457 0.24707 0.75195 0.0
N255 N 0.4501 0.25927 0.71637 0.0
C256 C 0.4694 0.26525 0.73442 0.0
C257 C 0.43248 0.23634 0.72273 0.0
C258 C 0.4415 0.22885 0.74469 0.0
O259 O 0.50622 0.27877 0.79569 0.0
C260 C 0.49377 0.214 0.75208 0.0
O261 O 0.47048 0.20069 0.76153 0.0
H262 H 0.48713 0.28227 0.73435 0.0
H263 H 0.43213 0.21121 0.75424 0.0
N264 N 0.46983 0.22596 0.80776 0.0
N265 N 0.46361 0.20386 0.84671 0.0
C266 C 0.48022 0.21811 0.82651 0.0
C267 C 0.44583 0.2166 0.81636 0.0
C268 C 0.4419 0.20286 0.84038 0.0
C269 C 0.49276 0.2867 0.80417 0.0
O270 O 0.4683 0.27421 0.79921 0.0
H271 H 0.49987 0.2234 0.82567 0.0
H272 H 0.43231 0.21986 0.80623 0.0
O273 O 0.50624 0.23616 0.7576 0.0
H274 H 0.41447 0.2257 0.71218 0.0
H275 H 0.42442 0.19297 0.85221 0.0
C276 C 0.08056 0.49094 0.05231 0.0
C277 C 0.06839 0.50348 0.0552 0.0
C278 C 0.09425 0.48889 0.07462 0.0
C279 C 0.13083 0.51849 0.13813 0.0
H280 H 0.12399 0.45784 0.15421 0.0
C281 C 0.20254 0.50434 0.20593 0.0
C282 C 0.19136 0.48408 0.22397 0.0
C283 C 0.18744 0.50869 0.18736 0.0
C284 C 0.12615 0.47494 0.15015 0.0
H285 H 0.06128 0.52395 0.08398 0.0
H286 H 0.0856 0.52057 0.12333 0.0
H287 H 0.09664 0.4605 0.11918 0.0
H288 H 0.15533 0.45355 0.23781 0.0
H289 H 0.12955 0.46111 0.20599 0.0
H290 H 0.16075 0.5329 0.16904 0.0
C291 C 0.08421 0.51208 0.10365 0.0
C292 C 0.11048 0.47648 0.1299 0.0
C293 C 0.06998 0.51373 0.0813 0.0
C294 C 0.16478 0.46915 0.22401 0.0
C295 C 0.14987 0.47342 0.20559 0.0
C296 C 0.14684 0.51701 0.15825 0.0
C297 C 0.0967 0.49975 0.10047 0.0
C298 C 0.11256 0.49823 0.12351 0.0
C299 C 0.16092 0.49282 0.18641 0.0
C300 C 0.14463 0.49515 0.1646 0.0
H301 H 0.08 0.48312 0.03236 0.0
H302 H 0.10372 0.47946 0.07123 0.0
H303 H 0.13314 0.53559 0.13354 0.0
H304 H 0.22292 0.51618 0.20525 0.0
H305 H 0.1966 0.52385 0.17288 0.0
C306 C 0.58349 0.99837 0.59603 0.0
C307 C 0.56577 1.00524 0.59414 0.0
C308 C 0.6032 1.00873 0.61573 0.0
C309 C 0.62854 0.05084 0.67608 0.0
H310 H 0.69316 0.07132 0.64166 0.0
C311 C 0.73603 0.13728 0.67624 0.0
C312 C 0.73859 0.1429 0.70486 0.0
C313 C 0.71574 0.11559 0.66704 0.0
C314 C 0.67529 0.06585 0.6516 0.0
H315 H 0.55357 0.02684 0.61312 0.0
H316 H 0.58799 0.04529 0.6465 0.0
H317 H 0.65442 0.04138 0.61907 0.0
H318 H 0.72293 0.12972 0.74657 0.0
H319 H 0.68785 0.09142 0.73074 0.0
H320 H 0.64931 0.07683 0.70723 0.0
C321 C 0.58673 0.03171 0.63325 0.0
C322 C 0.65298 0.04828 0.63887 0.0
C323 C 0.56697 0.02121 0.61383 0.0
C324 C 0.72115 0.12592 0.72432 0.0
C325 C 0.70103 0.10404 0.71519 0.0
C326 C 0.65084 0.06869 0.68855 0.0
C327 C 0.60568 0.02631 0.63377 0.0
C328 C 0.62925 0.04116 0.65038 0.0
C329 C 0.69769 0.0988 0.68632 0.0
C330 C 0.67447 0.07705 0.6759 0.0
H331 H 0.58294 0.9859 0.58138 0.0
H332 H 0.61707 1.00368 0.61598 0.0
H333 H 0.61067 0.04541 0.68596 0.0
H334 H 0.74899 0.15015 0.66074 0.0
H335 H 0.71363 0.11253 0.6446 0.0
C336 C 0.52407 0.58111 0.10978 0.0
C337 C 0.54374 0.57667 0.11266 0.0
C338 C 0.52397 0.59858 0.12572 0.0
C339 C 0.55157 0.63364 0.1908 0.0
H340 H 0.53487 0.67725 0.15652 0.0
C341 C 0.58406 0.72354 0.23913 0.0
C342 C 0.56851 0.73295 0.23825 0.0
C343 C 0.57713 0.7026 0.22547 0.0
C344 C 0.53916 0.66498 0.16659 0.0
H345 H 0.57904 0.58802 0.13463 0.0
H346 H 0.57869 0.61794 0.16223 0.0
H347 H 0.53065 0.64464 0.12908 0.0
H348 H 0.53298 0.72721 0.2226 0.0
H349 H 0.52073 0.69025 0.19818 0.0
H350 H 0.56048 0.65405 0.22808 0.0
C351 C 0.56307 0.60766 0.14796 0.0
C352 C 0.5368 0.64627 0.15081 0.0
C353 C 0.56326 0.59034 0.13198 0.0
C354 C 0.54533 0.7204 0.22376 0.0
C355 C 0.53845 0.69936 0.20961 0.0
C356 C 0.55389 0.65223 0.20651 0.0
C357 C 0.54342 0.61204 0.14518 0.0
C358 C 0.54357 0.63068 0.1625 0.0
C359 C 0.5544 0.69026 0.21021 0.0
C360 C 0.54835 0.66856 0.19447 0.0
H361 H 0.50852 0.57093 0.09545 0.0
H362 H 0.5084 0.60127 0.12313 0.0
H363 H 0.55633 0.62169 0.20084 0.0
H364 H 0.60198 0.73259 0.25024 0.0
H365 H 0.5901 0.69648 0.22621 0.0
C366 C 0.99851 0.56671 0.59543 0.0
C367 C 1.01454 0.56254 0.61216 0.0
C368 C 0.9823 0.57237 0.60781 0.0
C369 C 0.96789 0.59031 0.67538 0.0
H370 H 0.90111 0.56181 0.64195 0.0
C371 C 0.88022 0.58014 0.73099 0.0
C372 C 0.86539 0.58622 0.71472 0.0
C373 C 0.90024 0.5798 0.7187 0.0
C374 C 0.91977 0.57009 0.65135 0.0
H375 H 0.02662 0.56141 0.65484 0.0
H376 H 0.99771 0.57053 0.67676 0.0
H377 H 0.93267 0.55649 0.62015 0.0
H378 H 0.86 0.59687 0.67294 0.0
H379 H 0.89479 0.59603 0.6514 0.0
H380 H 0.95428 0.60307 0.70726 0.0
C381 C 0.99805 0.57007 0.65398 0.0
C382 C 0.93796 0.56716 0.63879 0.0
C383 C 1.01459 0.56479 0.64149 0.0
C384 C 0.87123 0.59233 0.68605 0.0
C385 C 0.89099 0.59166 0.67368 0.0
C386 C 0.94951 0.59296 0.68817 0.0
C387 C 0.98138 0.57355 0.63731 0.0
C388 C 0.9623 0.57726 0.65057 0.0
C389 C 0.90553 0.58518 0.68982 0.0
C390 C 0.9253 0.5829 0.67622 0.0
H391 H 0.99843 0.56542 0.57272 0.0
H392 H 0.97029 0.57557 0.5942 0.0
H393 H 0.9865 0.59863 0.68485 0.0
H394 H 0.87624 0.57555 0.75318 0.0
H395 H 0.91107 0.57461 0.73157 0.0
C396 C 0.46889 0.92841 0.07637 0.0
C397 C 0.47296 0.95127 0.07207 0.0
C398 C 0.45005 0.91175 0.09505 0.0
C399 C 0.41393 0.90914 0.15782 0.0
H400 H 0.36869 0.8424 0.14164 0.0
C401 C 0.32539 0.84988 0.22531 0.0
C402 C 0.3164 0.8257 0.23066 0.0
C403 C 0.34542 0.86375 0.20672 0.0
C404 C 0.38142 0.86089 0.14675 0.0
H405 H 0.45965 0.97406 0.08383 0.0
H406 H 0.42708 0.94524 0.1162 0.0
H407 H 0.40095 0.86902 0.10704 0.0
H408 H 0.32205 0.79732 0.22041 0.0
H409 H 0.35765 0.82183 0.18789 0.0
H410 H 0.3949 0.90128 0.19744 0.0
C411 C 0.43858 0.94019 0.10531 0.0
C412 C 0.39989 0.87621 0.1268 0.0
C413 C 0.45719 0.95672 0.08648 0.0
C414 C 0.3285 0.81588 0.21697 0.0
C415 C 0.34878 0.82992 0.19812 0.0
C416 C 0.39573 0.89388 0.17775 0.0
C417 C 0.43495 0.91758 0.11024 0.0
C418 C 0.41608 0.90068 0.13184 0.0
C419 C 0.35752 0.85414 0.1927 0.0
C420 C 0.37874 0.8696 0.17236 0.0
H421 H 0.48064 0.92351 0.06575 0.0
H422 H 0.4479 0.89458 0.09833 0.0
H423 H 0.42644 0.92769 0.16285 0.0
H424 H 0.31668 0.85826 0.23525 0.0
H425 H 0.35099 0.88205 0.20286 0.0
C426 C 0.46451 0.40261 0.53812 0.0
C427 C 0.48476 0.40885 0.5199 0.0
C428 C 0.45571 0.3833 0.55696 0.0
C429 C 0.45934 0.33044 0.57562 0.0
H430 H 0.44936 0.344 0.65159 0.0
C431 C 0.43537 0.26406 0.66937 0.0
C432 C 0.44937 0.27408 0.6941 0.0
C433 C 0.43591 0.27864 0.64719 0.0
C434 C 0.45209 0.33994 0.6305 0.0
H435 H 0.51099 0.3992 0.50623 0.0
H436 H 0.49596 0.36567 0.53943 0.0
H437 H 0.45709 0.3722 0.61336 0.0
H438 H 0.47409 0.30717 0.71533 0.0
H439 H 0.47543 0.33254 0.6766 0.0
H440 H 0.45554 0.29867 0.59317 0.0
C441 C 0.48656 0.37544 0.53889 0.0
C442 C 0.4562 0.35596 0.60848 0.0
C443 C 0.49522 0.39468 0.51988 0.0
C444 C 0.46339 0.29891 0.69643 0.0
C445 C 0.46389 0.31345 0.67434 0.0
C446 C 0.45528 0.3144 0.59771 0.0
C447 C 0.46712 0.3699 0.55815 0.0
C448 C 0.46028 0.35161 0.58084 0.0
C449 C 0.45033 0.30351 0.64937 0.0
C450 C 0.45209 0.31922 0.62548 0.0
H451 H 0.4558 0.41299 0.53818 0.0
H452 H 0.44033 0.37919 0.57106 0.0
H453 H 0.46214 0.32644 0.55452 0.0
H454 H 0.42453 0.24501 0.66684 0.0
H455 H 0.4251 0.27046 0.6283 0.0
C456 C 0.53221 0.94695 0.46167 0.0
C457 C 0.545 0.97078 0.45178 0.0
C458 C 0.53286 0.92945 0.44644 0.0
C459 C 0.57213 0.92357 0.39327 0.0
H460 H 0.51584 0.85814 0.38938 0.0
C461 C 0.58788 0.85094 0.35776 0.0
C462 C 0.57118 0.83437 0.33804 0.0
C463 C 0.58216 0.86591 0.37123 0.0
C464 C 0.53167 0.87637 0.39008 0.0
H465 H 0.56744 0.9943 0.41711 0.0
H466 H 0.56858 0.96404 0.39077 0.0
H467 H 0.51037 0.88761 0.41272 0.0
H468 H 0.53458 0.81995 0.31808 0.0
H469 H 0.52438 0.84632 0.34194 0.0
H470 H 0.59345 0.91257 0.37075 0.0
C471 C 0.55846 0.9589 0.41063 0.0
C472 C 0.52863 0.89325 0.40372 0.0
C473 C 0.55782 0.97636 0.42581 0.0
C474 C 0.54785 0.83244 0.33318 0.0
C475 C 0.54205 0.84759 0.34683 0.0
C476 C 0.57518 0.90677 0.37986 0.0
C477 C 0.54634 0.93523 0.42088 0.0
C478 C 0.5489 0.91711 0.40564 0.0
C479 C 0.55951 0.86496 0.36549 0.0
C480 C 0.55514 0.88286 0.37833 0.0
H481 H 0.5223 0.94189 0.48163 0.0
H482 H 0.5235 0.91152 0.45522 0.0
H483 H 0.58831 0.9416 0.39449 0.0
H484 H 0.60588 0.8528 0.36245 0.0
H485 H 0.59578 0.87854 0.38599 0.0
C486 C 0.57662 0.55569 0.94921 0.0
C487 C 0.5813 0.56829 0.9742 0.0
C488 C 0.59591 0.56279 0.92948 0.0
C489 C 0.66458 0.5923 0.9287 0.0
H490 H 0.65602 0.58569 0.8477 0.0
C491 C 0.74526 0.60581 0.85736 0.0
C492 C 0.73844 0.58904 0.83619 0.0
C493 C 0.72675 0.60705 0.87199 0.0
C494 C 0.65866 0.58749 0.8703 0.0
H495 H 0.60928 0.59945 0.99682 0.0
H496 H 0.64285 0.61189 0.96227 0.0
H497 H 0.62193 0.58195 0.87658 0.0
H498 H 0.70663 0.56103 0.81318 0.0
H499 H 0.67445 0.56262 0.83929 0.0
H500 H 0.70078 0.59691 0.92277 0.0
C501 C 0.62439 0.59626 0.95824 0.0
C502 C 0.63918 0.58544 0.8868 0.0
C503 C 0.60509 0.58919 0.97794 0.0
C504 C 0.71265 0.57389 0.82964 0.0
C505 C 0.69414 0.57506 0.84435 0.0
C506 C 0.68397 0.59424 0.91226 0.0
C507 C 0.62027 0.58264 0.93432 0.0
C508 C 0.6418 0.58749 0.91623 0.0
C509 C 0.70094 0.59149 0.8659 0.0
C510 C 0.68112 0.59149 0.88291 0.0
H511 H 0.55847 0.53955 0.9456 0.0
H512 H 0.59215 0.55186 0.91132 0.0
H513 H 0.66703 0.59353 0.95137 0.0
H514 H 0.76487 0.61768 0.86313 0.0
H515 H 0.73269 0.62012 0.88822 0.0
C516 C 0.07063 0.56476 0.46327 0.0
C517 C 0.08287 0.55828 0.48331 0.0
C518 C 0.08463 0.58178 0.44172 0.0
C519 C 0.15131 0.63114 0.42496 0.0
H520 H 0.12483 0.62927 0.3501 0.0
C521 C 0.21284 0.70153 0.33746 0.0
C522 C 0.20066 0.71071 0.32145 0.0
C523 C 0.19876 0.68136 0.35536 0.0
C524 C 0.13253 0.63018 0.37097 0.0
H525 H 0.11922 0.56363 0.49517 0.0
H526 H 0.14308 0.59229 0.45775 0.0
H527 H 0.09919 0.59743 0.38443 0.0
H528 H 0.16393 0.70508 0.31095 0.0
H529 H 0.13978 0.67042 0.34163 0.0
H530 H 0.18454 0.66393 0.41162 0.0
C531 C 0.12295 0.5851 0.45897 0.0
C532 C 0.11771 0.61188 0.39076 0.0
C533 C 0.10911 0.56839 0.48043 0.0
C534 C 0.17407 0.69866 0.32298 0.0
C535 C 0.16008 0.67854 0.34054 0.0
C536 C 0.16612 0.64937 0.40518 0.0
C537 C 0.11116 0.5926 0.43963 0.0
C538 C 0.12682 0.61206 0.41815 0.0
C539 C 0.17215 0.66974 0.35742 0.0
C540 C 0.15695 0.6493 0.37789 0.0
H541 H 0.05049 0.55744 0.4649 0.0
H542 H 0.07477 0.58706 0.42734 0.0
H543 H 0.15895 0.63236 0.44592 0.0
H544 H 0.23326 0.71038 0.33691 0.0
H545 H 0.20876 0.675 0.36778 0.0
C546 C 0.49377 0.09513 0.04018 0.0
C547 C 0.51336 0.09202 0.03206 0.0
C548 C 0.48897 0.11057 0.02476 0.0
C549 C 0.51635 0.15918 0.97023 0.0
H550 H 0.44638 0.13283 0.94835 0.0
C551 C 0.48864 0.18901 0.86931 0.0
C552 C 0.46856 0.1928 0.87036 0.0
C553 C 0.49407 0.17902 0.89239 0.0
C554 C 0.46594 0.14061 0.95463 0.0
H555 H 0.54426 0.10375 1.00262 0.0
H556 H 0.53571 0.13026 0.97551 0.0
H557 H 0.45667 0.11206 0.98398 0.0
H558 H 0.43832 0.18879 0.8967 0.0
H559 H 0.44757 0.17082 0.9369 0.0
H560 H 0.52567 0.18721 0.94005 0.0
C561 C 0.52407 0.12094 0.9938 0.0
C562 C 0.47185 0.12876 0.9751 0.0
C563 C 0.52881 0.10552 1.00913 0.0
C564 C 0.45376 0.18594 0.89501 0.0
C565 C 0.4591 0.17574 0.91809 0.0
C566 C 0.51045 0.17092 0.94971 0.0
C567 C 0.50378 0.12329 1.00106 0.0
C568 C 0.4972 0.13761 0.98258 0.0
C569 C 0.47945 0.17238 0.91705 0.0
C570 C 0.48526 0.16144 0.94119 0.0
H571 H 0.48148 0.08489 0.05767 0.0
H572 H 0.47336 0.1122 0.03103 0.0
H573 H 0.536 0.16669 0.97594 0.0
H574 H 0.50009 0.19352 0.85054 0.0
H575 H 0.50952 0.17613 0.89075 0.0
C576 C 0.46693 0.53728 0.45882 0.0
C577 C 0.46834 0.51731 0.46606 0.0
C578 C 0.44715 0.53509 0.44181 0.0
C579 C 0.38275 0.48981 0.41444 0.0
H580 H 0.39671 0.53793 0.3569 0.0
C581 C 0.31499 0.46959 0.32164 0.0
C582 C 0.30841 0.4861 0.31308 0.0
C583 C 0.33446 0.47551 0.34096 0.0
C584 C 0.3924 0.52448 0.37309 0.0
H585 H 0.4496 0.47926 0.46097 0.0
H586 H 0.41557 0.47547 0.43138 0.0
H587 H 0.43024 0.54384 0.38962 0.0
H588 H 0.31819 0.52234 0.31788 0.0
H589 H 0.35283 0.53291 0.35178 0.0
H590 H 0.34519 0.47021 0.3976 0.0
C591 C 0.42945 0.49287 0.43915 0.0
C592 C 0.41165 0.52785 0.39194 0.0
C593 C 0.44916 0.49505 0.45613 0.0
C594 C 0.32266 0.50916 0.32393 0.0
C595 C 0.34251 0.5152 0.34335 0.0
C596 C 0.36366 0.48642 0.39559 0.0
C597 C 0.42815 0.51285 0.43152 0.0
C598 C 0.40726 0.51033 0.41261 0.0
C599 C 0.34831 0.49822 0.35252 0.0
C600 C 0.36827 0.50345 0.37426 0.0
H601 H 0.48133 0.55475 0.46595 0.0
H602 H 0.44676 0.55088 0.4368 0.0
H603 H 0.37824 0.47617 0.43043 0.0
H604 H 0.30482 0.45171 0.3137 0.0
H605 H 0.33866 0.46212 0.3469 0.0
C606 C 1.01641 0.43558 0.90932 0.0
C607 C 1.00557 0.4462 0.92377 0.0
C608 C 1.00103 0.41329 0.89725 0.0
C609 C 0.93629 0.35982 0.90129 0.0
H610 H 0.94927 0.34891 0.82534 0.0
C611 C 0.86972 0.27083 0.8479 0.0
C612 C 0.86244 0.27266 0.82023 0.0
C613 C 0.89007 0.29058 0.86072 0.0
C614 C 0.94541 0.35169 0.84658 0.0
H615 H 0.97004 0.44208 0.93589 0.0
H616 H 0.94342 0.40347 0.91506 0.0
H617 H 0.97898 0.38653 0.84768 0.0
H618 H 0.8719 0.29641 0.7838 0.0
H619 H 0.90684 0.33092 0.80636 0.0
H620 H 0.90224 0.32554 0.89989 0.0
C621 C 0.96377 0.41202 0.9136 0.0
C622 C 0.96256 0.37314 0.85947 0.0
C623 C 0.97907 0.4342 0.92557 0.0
C624 C 0.87666 0.29445 0.8053 0.0
C625 C 0.89697 0.31419 0.81812 0.0
C626 C 0.91919 0.33844 0.88845 0.0
C627 C 0.97453 0.40122 0.89946 0.0
C628 C 0.95788 0.37762 0.88674 0.0
C629 C 0.90361 0.31261 0.84617 0.0
C630 C 0.92328 0.33428 0.86074 0.0
H631 H 0.03675 0.4443 0.90773 0.0
H632 H 1.00986 0.40536 0.88658 0.0
H633 H 0.93235 0.3626 0.9225 0.0
H634 H 0.85918 0.25438 0.86006 0.0
H635 H 0.89492 0.28869 0.88224 0.0
C636 C 0.96126 0.50817 0.91998 0.0
C637 C 0.96741 0.51317 0.94864 0.0
C638 C 0.94051 0.50782 0.90796 0.0
C639 C 0.88098 0.50604 0.92322 0.0
H640 H 0.89223 0.53361 0.84761 0.0
C641 C 0.81284 0.52973 0.86778 0.0
C642 C 0.80959 0.52753 0.83832 0.0
C643 C 0.83009 0.52556 0.88185 0.0
C644 C 0.88849 0.52548 0.86852 0.0
H645 H 0.95564 0.52084 0.98745 0.0
H646 H 0.91921 0.52057 0.96629 0.0
H647 H 0.92565 0.53148 0.87151 0.0
H648 H 0.82158 0.51831 0.80082 0.0
H649 H 0.85146 0.51074 0.82535 0.0
H650 H 0.8438 0.5004 0.92019 0.0
C651 C 0.93054 0.51671 0.95314 0.0
C652 C 0.90779 0.52427 0.88237 0.0
C653 C 0.95143 0.51686 0.96534 0.0
C654 C 0.82344 0.52011 0.82348 0.0
C655 C 0.84084 0.51603 0.83759 0.0
C656 C 0.86161 0.50731 0.90934 0.0
C657 C 0.92515 0.51273 0.92404 0.0
C658 C 0.90437 0.5144 0.90989 0.0
C659 C 0.84481 0.51915 0.86694 0.0
C660 C 0.86504 0.51699 0.88169 0.0
H661 H 0.97283 0.50482 0.90649 0.0
H662 H 0.93668 0.50391 0.88579 0.0
H663 H 0.87743 0.49812 0.94424 0.0
H664 H 0.80258 0.53543 0.88 0.0
H665 H 0.83263 0.52836 0.90434 0.0
C666 C 0.43277 0.97671 0.48284 0.0
C667 C 0.44703 0.97197 0.50198 0.0
C668 C 0.41047 0.95814 0.47129 0.0
C669 C 0.35898 0.91574 0.456 0.0
H670 H 0.36571 0.8654 0.42712 0.0
C671 C 0.28116 0.84022 0.38839 0.0
C672 C 0.28982 0.83502 0.36411 0.0
C673 C 0.29821 0.85486 0.40901 0.0
C674 C 0.36353 0.87931 0.43507 0.0
H675 H 0.44832 0.94408 0.52525 0.0
H676 H 0.40921 0.91156 0.50507 0.0
H677 H 0.39852 0.89495 0.45763 0.0
H678 H 0.32337 0.84145 0.34248 0.0
H679 H 0.35297 0.86681 0.37834 0.0
H680 H 0.32451 0.90066 0.4324 0.0
C681 C 0.41549 0.92968 0.49881 0.0
C682 C 0.38217 0.89608 0.45286 0.0
C683 C 0.43779 0.94831 0.5105 0.0
C684 C 0.31593 0.84469 0.36108 0.0
C685 C 0.33294 0.85924 0.38169 0.0
C686 C 0.34029 0.89892 0.43826 0.0
C687 C 0.40194 0.93439 0.47854 0.0
C688 C 0.3804 0.9148 0.46301 0.0
C689 C 0.3243 0.86456 0.40585 0.0
C690 C 0.34267 0.88085 0.42707 0.0
H691 H 0.43931 0.99475 0.47592 0.0
H692 H 0.40064 0.9624 0.45556 0.0
H693 H 0.35697 0.92983 0.46371 0.0
H694 H 0.26117 0.83282 0.39166 0.0
H695 H 0.29096 0.85845 0.42753 0.0
C696 C 0.54117 0.43323 0.98796 0.0
C697 C 0.5284 0.44524 0.98336 0.0
C698 C 0.54063 0.41795 0.96772 0.0
C699 C 0.5248 0.40156 0.89168 0.0
H700 H 0.52249 0.34429 0.91614 0.0
C701 C 0.49087 0.32124 0.81981 0.0
C702 C 0.50312 0.30858 0.82099 0.0
C703 C 0.49748 0.33975 0.83823 0.0
C704 C 0.52351 0.36037 0.9089 0.0
H705 H 0.5047 0.45009 0.95372 0.0
H706 H 0.50328 0.42325 0.91884 0.0
H707 H 0.52626 0.37225 0.95107 0.0
H708 H 0.53238 0.30583 0.84232 0.0
H709 H 0.54387 0.33821 0.87501 0.0
H710 H 0.52117 0.38918 0.84957 0.0
C711 C 0.51436 0.42606 0.93776 0.0
C712 C 0.52569 0.37651 0.92898 0.0
C713 C 0.51508 0.44149 0.95788 0.0
C714 C 0.52277 0.3154 0.84066 0.0
C715 C 0.52914 0.33377 0.85956 0.0
C716 C 0.52239 0.38533 0.87167 0.0
C717 C 0.52713 0.41401 0.94228 0.0
C718 C 0.52606 0.39726 0.92076 0.0
C719 C 0.51632 0.34599 0.85879 0.0
C720 C 0.5214 0.36436 0.87998 0.0
H721 H 0.55191 0.43589 1.00711 0.0
H722 H 0.55111 0.40945 0.97197 0.0
H723 H 0.52566 0.41751 0.88424 0.0
H724 H 0.47559 0.31642 0.80498 0.0
H725 H 0.48701 0.34852 0.83711 0.0
C726 C 0.07906 0.45832 0.5108 0.0
C727 C 0.09166 0.47485 0.53216 0.0
C728 C 0.09224 0.45177 0.49368 0.0
C729 C 0.15398 0.47673 0.46321 0.0
H730 H 0.12997 0.41228 0.44149 0.0
C731 C 0.20585 0.45918 0.37779 0.0
C732 C 0.19081 0.44139 0.35855 0.0
C733 C 0.1953 0.46126 0.40244 0.0
C734 C 0.13682 0.43041 0.44709 0.0
H735 H 0.12766 0.49702 0.55296 0.0
H736 H 0.15098 0.48592 0.52252 0.0
H737 H 0.10822 0.41917 0.47881 0.0
H738 H 0.15315 0.41157 0.35 0.0
H739 H 0.13429 0.41567 0.3924 0.0
H740 H 0.18156 0.48827 0.43064 0.0
C741 C 0.13083 0.47789 0.51929 0.0
C742 C 0.12446 0.43429 0.46861 0.0
C743 C 0.11752 0.48411 0.53676 0.0
C744 C 0.16514 0.42531 0.36469 0.0
C745 C 0.15443 0.42764 0.38908 0.0
C746 C 0.16608 0.4729 0.44141 0.0
C747 C 0.11837 0.46195 0.49732 0.0
C748 C 0.1328 0.4575 0.47665 0.0
C749 C 0.16931 0.44587 0.40812 0.0
C750 C 0.15751 0.4497 0.43281 0.0
H751 H 0.05909 0.45086 0.50701 0.0
H752 H 0.08223 0.43959 0.47677 0.0
H753 H 0.16053 0.49483 0.46871 0.0
H754 H 0.2258 0.47155 0.37368 0.0
H755 H 0.20754 0.47512 0.41687 0.0
C756 C 0.5667 0.06218 0.9546 0.0
C757 C 0.57173 0.04492 0.9645 0.0
C758 C 0.58246 0.07958 0.93437 0.0
C759 C 0.63287 0.09527 0.88077 0.0
H760 H 0.65227 0.1601 0.8942 0.0
C761 C 0.70175 0.17393 0.8055 0.0
C762 C 0.72088 0.19466 0.81859 0.0
C763 C 0.68135 0.15568 0.82124 0.0
C764 C 0.64712 0.14212 0.89009 0.0
H765 H 0.59693 0.0321 0.95976 0.0
H766 H 0.62408 0.06211 0.92455 0.0
H767 H 0.62099 0.12783 0.92472 0.0
H768 H 0.73283 0.21256 0.85851 0.0
H769 H 0.69742 0.18108 0.88569 0.0
H770 H 0.65949 0.10965 0.84659 0.0
C771 C 0.60794 0.06225 0.93232 0.0
C772 C 0.6289 0.1235 0.90747 0.0
C773 C 0.59233 0.04499 0.95266 0.0
C774 C 0.71849 0.19695 0.84761 0.0
C775 C 0.69804 0.17885 0.86326 0.0
C776 C 0.65097 0.11388 0.86326 0.0
C777 C 0.60359 0.08014 0.92324 0.0
C778 C 0.62171 0.0998 0.90334 0.0
C779 C 0.67936 0.15772 0.85047 0.0
C780 C 0.65864 0.13765 0.86787 0.0
H781 H 0.55113 0.06283 0.96324 0.0
H782 H 0.57824 0.09281 0.92769 0.0
H783 H 0.62771 0.07729 0.87666 0.0
H784 H 0.70296 0.17141 0.78326 0.0
H785 H 0.66724 0.13985 0.81052 0.0
C786 C 0.60947 0.58921 0.43119 0.0
C787 C 0.58505 0.5697 0.42575 0.0
C788 C 0.618 0.61125 0.41791 0.0
C789 C 0.60675 0.64108 0.35838 0.0
H790 H 0.62651 0.69217 0.41027 0.0
C791 C 0.59992 0.72145 0.32853 0.0
C792 C 0.61743 0.74385 0.33953 0.0
C793 C 0.60021 0.70139 0.33712 0.0
C794 C 0.62161 0.67834 0.39534 0.0
H795 H 0.551 0.55743 0.40115 0.0
H796 H 0.56602 0.59586 0.37752 0.0
H797 H 0.62025 0.65459 0.42774 0.0
H798 H 0.64935 0.76267 0.36784 0.0
H799 H 0.65033 0.72765 0.38231 0.0
H800 H 0.6079 0.66463 0.32597 0.0
C801 C 0.5785 0.59417 0.39212 0.0
C802 C 0.61798 0.65679 0.4054 0.0
C803 C 0.56985 0.57227 0.40572 0.0
C804 C 0.63562 0.74572 0.35892 0.0
C805 C 0.63603 0.7256 0.3674 0.0
C806 C 0.61069 0.66272 0.34824 0.0
C807 C 0.6024 0.614 0.39863 0.0
C808 C 0.60987 0.63777 0.38714 0.0
C809 C 0.6182 0.70315 0.35671 0.0
C810 C 0.61742 0.68138 0.36675 0.0
H811 H 0.62145 0.58773 0.44676 0.0
H812 H 0.63653 0.62628 0.4232 0.0
H813 H 0.60077 0.62675 0.34385 0.0
H814 H 0.58598 0.71929 0.31308 0.0
H815 H 0.58592 0.68438 0.32875 0.0
C816 C 0.54198 0.11466 0.56864 0.0
C817 C 0.52833 0.08981 0.57328 0.0
C818 C 0.54134 0.12974 0.58831 0.0
C819 C 0.52541 0.13143 0.66355 0.0
H820 H 0.52215 0.18567 0.63808 0.0
C821 C 0.49267 0.17797 0.73624 0.0
C822 C 0.50377 0.20275 0.7341 0.0
C823 C 0.49907 0.16614 0.71751 0.0
C824 C 0.52346 0.17084 0.64562 0.0
H825 H 0.50289 0.06163 0.60253 0.0
H826 H 0.50174 0.08771 0.63652 0.0
H827 H 0.52597 0.16114 0.60359 0.0
H828 H 0.53086 0.23458 0.71064 0.0
H829 H 0.54215 0.2138 0.67756 0.0
H830 H 0.52246 0.14084 0.70549 0.0
C831 C 0.51338 0.09566 0.61789 0.0
C832 C 0.52562 0.15668 0.62578 0.0
C833 C 0.51402 0.08059 0.59825 0.0
C834 C 0.5221 0.21553 0.71303 0.0
C835 C 0.52835 0.20356 0.69391 0.0
C836 C 0.52321 0.14552 0.68331 0.0
C837 C 0.52706 0.12049 0.61329 0.0
C838 C 0.52622 0.13651 0.63442 0.0
C839 C 0.51669 0.17862 0.69574 0.0
C840 C 0.52177 0.16521 0.67467 0.0
H841 H 0.55352 0.1226 0.54996 0.0
H842 H 0.55241 0.14874 0.58408 0.0
H843 H 0.52644 0.11646 0.67119 0.0
H844 H 0.47847 0.1675 0.75217 0.0
H845 H 0.48942 0.14697 0.71951 0.0
C846 C 0.44257 0.50041 0.04549 0.0
C847 C 0.44535 0.48164 0.03789 0.0
C848 C 0.42035 0.49576 0.05842 0.0
C849 C 0.36841 0.44902 0.10201 0.0
H850 H 0.34156 0.48973 0.09426 0.0
C851 C 0.28224 0.43221 0.16622 0.0
C852 C 0.28467 0.45223 0.17876 0.0
C853 C 0.29986 0.43483 0.14627 0.0
C854 C 0.34894 0.47828 0.09672 0.0
H855 H 0.42624 0.44329 0.03591 0.0
H856 H 0.38727 0.43518 0.05783 0.0
H857 H 0.37505 0.49572 0.06256 0.0
H858 H 0.30721 0.49073 0.17964 0.0
H859 H 0.33812 0.49529 0.14508 0.0
H860 H 0.34254 0.43177 0.13635 0.0
C861 C 0.40253 0.4535 0.05454 0.0
C862 C 0.36811 0.48169 0.07857 0.0
C863 C 0.4248 0.45815 0.04177 0.0
C864 C 0.30497 0.47494 0.17066 0.0
C865 C 0.32249 0.47757 0.15058 0.0
C866 C 0.34918 0.44554 0.12004 0.0
C867 C 0.40035 0.47223 0.06387 0.0
C868 C 0.37833 0.46731 0.08124 0.0
C869 C 0.32021 0.45753 0.13827 0.0
C870 C 0.33947 0.46033 0.11786 0.0
H871 H 0.45804 0.51873 0.04286 0.0
H872 H 0.41945 0.51063 0.06549 0.0
H873 H 0.37613 0.43789 0.10508 0.0
H874 H 0.26694 0.41448 0.17215 0.0
H875 H 0.2975 0.41906 0.13702 0.0
C876 C 0.95844 0.45826 0.61344 0.0
C877 C 0.96823 0.45623 0.58794 0.0
C878 C 0.93761 0.4385 0.62647 0.0
C879 C 0.88511 0.37495 0.61782 0.0
H880 H 0.89122 0.37352 0.69922 0.0
C881 C 0.81994 0.29089 0.68976 0.0
C882 C 0.81319 0.29464 0.71644 0.0
C883 C 0.83701 0.31017 0.6722 0.0
C884 C 0.88891 0.37366 0.67656 0.0
H885 H 0.96307 0.43182 0.5555 0.0
H886 H 0.92662 0.39688 0.57851 0.0
H887 H 0.92363 0.40723 0.67191 0.0
H888 H 0.81864 0.32197 0.74485 0.0
H889 H 0.84798 0.35532 0.71437 0.0
H890 H 0.85041 0.34092 0.62279 0.0
C891 C 0.93493 0.41398 0.58828 0.0
C892 C 0.9076 0.39315 0.66075 0.0
C893 C 0.95578 0.43402 0.57497 0.0
C894 C 0.82337 0.31825 0.72458 0.0
C895 C 0.84044 0.33747 0.70711 0.0
C896 C 0.86635 0.35529 0.63373 0.0
C897 C 0.92605 0.41581 0.61475 0.0
C898 C 0.90595 0.39434 0.63114 0.0
C899 C 0.84793 0.33378 0.68086 0.0
C900 C 0.86785 0.35446 0.66341 0.0
H901 H 0.96749 0.47514 0.62392 0.0
H902 H 0.93099 0.441 0.64624 0.0
H903 H 0.883 0.37513 0.59514 0.0
H904 H 0.8126 0.273 0.68272 0.0
H905 H 0.84234 0.30652 0.65227 0.0
C906 C 0.57437 0.99223 0.12895 0.0
C907 C 0.59003 1.00758 0.10719 0.0
C908 C 0.58148 0.97876 0.1449 0.0
C909 C 0.6171 0.95045 0.13884 0.0
H910 H 0.60919 0.94206 0.22004 0.0
C911 C 0.63501 0.88451 0.20023 0.0
C912 C 0.61759 0.87079 0.22173 0.0
C913 C 0.6352 0.9039 0.18768 0.0
C914 C 0.6113 0.94405 0.19733 0.0
H915 H 0.62558 0.02125 0.08532 0.0
H916 H 0.63793 0.99743 0.11308 0.0
H917 H 0.60297 0.97143 0.1958 0.0
H918 H 0.58723 0.86738 0.24739 0.0
H919 H 0.58679 0.90019 0.22478 0.0
H920 H 0.62423 0.92238 0.14001 0.0
C921 C 0.62023 0.99597 0.11784 0.0
C922 C 0.60787 0.96095 0.18353 0.0
C923 C 0.61327 0.0097 0.10214 0.0
C924 C 0.60062 0.87715 0.23058 0.0
C925 C 0.60067 0.89634 0.21791 0.0
C926 C 0.62024 0.93334 0.15259 0.0
C927 C 0.60425 0.98018 0.13913 0.0
C928 C 0.61037 0.96405 0.15412 0.0
C929 C 0.61788 0.90992 0.19623 0.0
C930 C 0.61694 0.92964 0.18196 0.0
H931 H 0.55645 0.99044 0.13336 0.0
H932 H 0.56872 0.96658 0.16107 0.0
H933 H 0.61886 0.95233 0.11609 0.0
H934 H 0.64827 0.88013 0.19274 0.0
H935 H 0.64892 0.91413 0.17125 0.0
C936 C 0.59719 0.54356 0.56998 0.0
C937 C 0.57166 0.52509 0.56711 0.0
C938 C 0.61276 0.54217 0.59052 0.0
C939 C 0.61383 0.5138 0.65814 0.0
H940 H 0.67945 0.52879 0.63221 0.0
C941 C 0.6833 0.50459 0.73319 0.0
C942 C 0.70944 0.52099 0.72968 0.0
C943 C 0.66575 0.50357 0.7134 0.0
C944 C 0.66143 0.5249 0.64013 0.0
H945 H 0.5424 0.49098 0.58471 0.0
H946 H 0.56955 0.48888 0.62116 0.0
H947 H 0.6504 0.5307 0.59917 0.0
H948 H 0.73742 0.54925 0.70229 0.0
H949 H 0.70717 0.54804 0.66857 0.0
H950 H 0.62507 0.50873 0.69931 0.0
C951 C 0.57748 0.50437 0.6072 0.0
C952 C 0.64464 0.52589 0.621 0.0
C953 C 0.5619 0.5056 0.58629 0.0
C954 C 0.71751 0.53616 0.70565 0.0
C955 C 0.7 0.53536 0.68609 0.0
C956 C 0.63081 0.51315 0.67745 0.0
C957 C 0.60329 0.52241 0.60914 0.0
C958 C 0.62067 0.52052 0.62971 0.0
C959 C 0.67375 0.51913 0.68961 0.0
C960 C 0.65503 0.51886 0.66884 0.0
H961 H 0.60552 0.55888 0.55572 0.0
H962 H 0.63241 0.55656 0.59164 0.0
H963 H 0.59559 0.50969 0.66564 0.0
H964 H 0.67632 0.4926 0.7514 0.0
H965 H 0.64587 0.4905 0.71683 0.0
C966 C 0.1005 0.62937 1.01218 0.0
C967 C 0.09396 0.60631 0.02055 0.0
C968 C 0.11142 0.64781 0.03152 0.0
C969 C 0.11475 0.65668 0.10782 0.0
H970 H 0.17479 0.71864 0.09209 0.0
C971 C 0.17674 0.71784 0.19565 0.0
C972 C 0.18758 0.74246 0.19241 0.0
C973 C 0.16341 0.70274 0.17358 0.0
C974 C 0.15774 0.70157 0.09662 0.0
H975 H 0.09541 0.58494 0.05506 0.0
H976 H 0.11412 0.61684 0.08861 0.0
H977 H 0.1558 0.68955 0.0546 0.0
H978 H 0.19263 0.77057 0.1636 0.0
H979 H 0.16904 0.74401 0.12485 0.0
H980 H 0.11676 0.66836 0.14982 0.0
C981 C 0.11028 0.6206 0.0674 0.0
C982 C 0.14694 0.68494 0.0752 0.0
C983 C 0.09955 0.60232 0.04817 0.0
C984 C 0.18433 0.75164 0.16675 0.0
C985 C 0.17105 0.73649 0.14451 0.0
C986 C 0.12545 0.67326 0.12912 0.0
C987 C 0.11584 0.64339 0.05949 0.0
C988 C 0.12576 0.66212 0.08086 0.0
C989 C 0.16058 0.71188 0.14768 0.0
C990 C 0.14745 0.69564 0.124 0.0
H991 H 0.09635 0.63295 0.99107 0.0
H992 H 0.1156 0.66526 0.02489 0.0
H993 H 0.09807 0.63939 0.11259 0.0
H994 H 0.17865 0.71022 0.21527 0.0
H995 H 0.15585 0.68391 0.17661 0.0
loop_
_geom_bond_atom_site_label_1
_geom_bond_atom_site_label_2
_geom_bond_distance
_geom_bond_site_symmetry_2
_ccdc_geom_bond_type
Cu0 N1 1.999 1_454 S
Cu0 O6 1.974 1_454 S
Cu0 N11 1.985 . S
Cu0 O20 1.959 . S
N1 Cu0 1.999 1_656 S
N1 C3 1.263 . S
N1 C5 1.389 1_556 S
N2 C3 1.358 . S
N2 C4 1.400 . S
C3 N1 1.263 . S
C3 N2 1.358 . S
C3 H9 0.930 . S
C4 N2 1.400 . S
C4 C5 1.351 1_556 S
C4 H21 0.930 . S
C5 N1 1.389 1_554 S
C5 C4 1.351 1_554 S
C5 H10 0.930 . S
O6 Cu0 1.974 1_656 S
O6 C16 1.282 . S
C7 O8 1.263 . S
C7 O20 1.251 . S
O8 C7 1.263 . S
H9 C3 0.930 . S
H10 C5 0.930 . S
N11 Cu0 1.985 . S
N11 C13 1.335 . S
N11 C14 1.390 . S
N12 C13 1.345 . S
N12 C15 1.336 . S
C13 N11 1.335 . S
C13 N12 1.345 . S
C13 H18 0.930 . S
C14 N11 1.390 . S
C14 C15 1.346 . S
C14 H19 0.930 1_554 S
C15 N12 1.336 . S
C15 C14 1.346 . S
C15 H22 0.929 . S
C16 O6 1.282 . S
C16 O17 1.216 1_655 S
O17 C16 1.216 1_455 S
H18 C13 0.930 . S
H19 C14 0.930 1_556 S
O20 Cu0 1.959 . S
O20 C7 1.251 . S
H21 C4 0.930 . S
H22 C15 0.929 . S
Cu23 N24 1.999 . S
Cu23 O29 1.974 . S
Cu23 N34 1.985 1_565 S
Cu23 O43 1.959 1_565 S
N24 Cu23 1.999 . S
N24 C26 1.263 . S
N24 C28 1.389 . S
N25 C26 1.358 . S
N25 C27 1.400 . S
C26 N24 1.263 . S
C26 N25 1.358 . S
C26 H32 0.930 . S
C27 N25 1.400 . S
C27 C28 1.351 . S
C27 H44 0.930 . S
C28 N24 1.389 . S
C28 C27 1.351 . S
C28 H33 0.930 . S
O29 Cu23 1.974 . S
O29 C39 1.282 . S
C30 O31 1.261 . S
C30 O43 1.251 . S
O31 C30 1.261 . S
H32 C26 0.930 . S
H33 C28 0.930 . S
N34 Cu23 1.985 1_545 S
N34 C36 1.335 . S
N34 C37 1.390 . S
N35 C36 1.345 . S
N35 C38 1.336 . S
C36 N34 1.335 . S
C36 N35 1.345 . S
C36 H41 0.930 . S
C37 N34 1.390 . S
C37 C38 1.346 . S
C37 H42 0.930 . S
C38 N35 1.336 . S
C38 C37 1.346 . S
C38 H45 0.929 . S
C39 O29 1.282 . S
C39 O40 1.216 1_565 S
O40 C39 1.216 1_545 S
H41 C36 0.930 . S
H42 C37 0.930 . S
O43 Cu23 1.959 1_545 S
O43 C30 1.251 . S
H44 C27 0.930 . S
H45 C38 0.929 . S
Cu46 N47 1.999 1_554 S
Cu46 O52 1.974 1_554 S
Cu46 N57 1.985 . S
Cu46 O66 1.959 . S
N47 Cu46 1.999 1_556 S
N47 C49 1.263 . S
N47 C51 1.389 . S
N48 C49 1.358 . S
N48 C50 1.400 . S
C49 N47 1.263 . S
C49 N48 1.358 . S
C49 H55 0.930 . S
C50 N48 1.400 . S
C50 C51 1.351 . S
C50 H67 0.930 . S
C51 N47 1.389 . S
C51 C50 1.351 . S
C51 H56 0.930 . S
O52 Cu46 1.974 1_556 S
O52 C62 1.282 . S
C53 O54 1.261 . S
C53 O66 1.251 . S
O54 C53 1.261 . S
H55 C49 0.930 . S
H56 C51 0.930 . S
N57 Cu46 1.985 . S
N57 C59 1.335 . S
N57 C60 1.390 . S
N58 C59 1.345 . S
N58 C61 1.336 . S
C59 N57 1.335 . S
C59 N58 1.345 . S
C59 H64 0.930 . S
C60 N57 1.390 . S
C60 C61 1.346 . S
C60 H65 0.930 . S
C61 N58 1.336 . S
C61 C60 1.346 . S
C61 H68 0.929 . S
C62 O52 1.282 . S
C62 O63 1.216 1_556 S
O63 C62 1.216 1_554 S
H64 C59 0.930 . S
H65 C60 0.930 . S
O66 Cu46 1.959 . S
O66 C53 1.251 . S
H67 C50 0.930 . S
H68 C61 0.929 . S
Cu69 N70 1.999 1_655 S
Cu69 O75 1.974 1_655 S
Cu69 N80 1.985 . S
Cu69 O89 1.959 . S
N70 Cu69 1.999 1_455 S
N70 C72 1.263 . S
N70 C74 1.389 1_455 S
N71 C72 1.358 . S
N71 C73 1.400 . S
C72 N70 1.263 . S
C72 N71 1.358 . S
C72 H78 0.930 . S
C73 N71 1.400 . S
C73 C74 1.351 1_455 S
C73 H90 0.930 . S
C74 N70 1.389 1_655 S
C74 C73 1.351 1_655 S
C74 H79 0.930 . S
O75 Cu69 1.974 1_455 S
O75 C85 1.282 . S
C76 O77 1.261 1_655 S
C76 O89 1.251 . S
O77 C76 1.261 1_455 S
H78 C72 0.930 . S
H79 C74 0.930 . S
N80 Cu69 1.985 . S
N80 C82 1.335 . S
N80 C83 1.390 . S
N81 C82 1.345 . S
N81 C84 1.336 . S
C82 N80 1.335 . S
C82 N81 1.345 . S
C82 H87 0.930 . S
C83 N80 1.390 . S
C83 C84 1.346 . S
C83 H88 0.930 1_655 S
C84 N81 1.336 . S
C84 C83 1.346 . S
C84 H91 0.929 . S
C85 O75 1.282 . S
C85 O86 1.216 . S
O86 C85 1.216 . S
H87 C82 0.930 . S
H88 C83 0.930 1_455 S
O89 Cu69 1.959 . S
O89 C76 1.251 . S
H90 C73 0.930 . S
H91 C84 0.929 . S
Cu92 N93 1.999 . S
Cu92 O98 1.974 1_554 S
Cu92 N103 1.985 1_545 S
Cu92 O112 1.959 1_545 S
N93 Cu92 1.999 . S
N93 C95 1.263 1_554 S
N93 C97 1.389 . S
N94 C95 1.358 . S
N94 C96 1.400 1_556 S
C95 N93 1.263 1_556 S
C95 N94 1.358 . S
C95 H101 0.930 . S
C96 N94 1.400 1_554 S
C96 C97 1.351 . S
C96 H113 0.930 . S
C97 N93 1.389 . S
C97 C96 1.351 . S
C97 H102 0.930 . S
O98 Cu92 1.974 1_556 S
O98 C108 1.282 . S
C99 O100 1.261 . S
C99 O112 1.251 . S
O100 C99 1.261 . S
H101 C95 0.930 . S
H102 C97 0.930 . S
N103 Cu92 1.985 1_565 S
N103 C105 1.335 . S
N103 C106 1.390 . S
N104 C105 1.345 . S
N104 C107 1.336 . S
C105 N103 1.335 . S
C105 N104 1.345 . S
C105 H110 0.930 . S
C106 N103 1.390 . S
C106 C107 1.346 . S
C106 H111 0.930 . S
C107 N104 1.336 . S
C107 C106 1.346 . S
C107 H114 0.929 . S
C108 O98 1.282 . S
C108 O109 1.216 . S
O109 C108 1.216 . S
H110 C105 0.930 . S
H111 C106 0.930 . S
O112 Cu92 1.959 1_565 S
O112 C99 1.251 . S
H113 C96 0.930 . S
H114 C107 0.929 . S
Cu115 N116 1.999 . S
Cu115 O121 1.974 . S
Cu115 N126 1.985 . S
Cu115 O135 1.959 . S
N116 Cu115 1.999 . S
N116 C118 1.263 . S
N116 C120 1.389 . S
N117 C118 1.358 . S
N117 C119 1.400 . S
C118 N116 1.263 . S
C118 N117 1.358 . S
C118 H124 0.930 . S
C119 N117 1.400 . S
C119 C120 1.351 . S
C119 H136 0.930 . S
C120 N116 1.389 . S
C120 C119 1.351 . S
C120 H125 0.930 . S
O121 Cu115 1.974 . S
O121 C131 1.282 . S
C122 O123 1.261 . S
C122 O135 1.251 . S
O123 C122 1.261 . S
H124 C118 0.930 . S
H125 C120 0.930 . S
N126 Cu115 1.985 . S
N126 C128 1.335 . S
N126 C129 1.390 . S
N127 C128 1.345 . S
N127 C130 1.336 . S
C128 N126 1.335 . S
C128 N127 1.345 . S
C128 H133 0.930 . S
C129 N126 1.390 . S
C129 C130 1.346 . S
C129 H134 0.930 . S
C130 N127 1.336 . S
C130 C129 1.346 . S
C130 H137 0.929 . S
C131 O121 1.282 . S
C131 O132 1.216 . S
O132 C131 1.216 . S
H133 C128 0.930 . S
H134 C129 0.930 . S
O135 Cu115 1.959 . S
O135 C122 1.251 . S
H136 C119 0.930 . S
H137 C130 0.929 . S
Cu138 N139 1.999 . S
Cu138 O144 1.974 . S
Cu138 N149 1.985 . S
Cu138 O158 1.959 . S
N139 Cu138 1.999 . S
N139 C141 1.263 . S
N139 C143 1.389 . S
N140 C141 1.358 . S
N140 C142 1.400 . S
C141 N139 1.263 . S
C141 N140 1.358 . S
C141 H147 0.930 . S
C142 N140 1.400 . S
C142 C143 1.351 . S
C142 H159 0.930 . S
C143 N139 1.389 . S
C143 C142 1.351 . S
C143 H148 0.930 . S
O144 Cu138 1.974 . S
O144 C154 1.282 . S
C145 O146 1.261 . S
C145 O158 1.251 . S
O146 C145 1.261 . S
H147 C141 0.930 . S
H148 C143 0.930 . S
N149 Cu138 1.985 . S
N149 C151 1.335 . S
N149 C152 1.390 . S
N150 C151 1.345 . S
N150 C153 1.336 . S
C151 N149 1.335 . S
C151 N150 1.345 . S
C151 H156 0.930 . S
C152 N149 1.390 . S
C152 C153 1.346 . S
C152 H157 0.930 . S
C153 N150 1.336 . S
C153 C152 1.346 . S
C153 H160 0.929 . S
C154 O144 1.282 . S
C154 O155 1.216 . S
O155 C154 1.216 . S
H156 C151 0.930 . S
H157 C152 0.930 . S
O158 Cu138 1.959 . S
O158 C145 1.251 . S
H159 C142 0.930 . S
H160 C153 0.929 . S
Cu161 N162 1.999 . S
Cu161 O167 1.974 . S
Cu161 N172 1.985 . S
Cu161 O181 1.959 . S
N162 Cu161 1.999 . S
N162 C164 1.263 . S
N162 C166 1.389 . S
N163 C164 1.358 . S
N163 C165 1.400 . S
C164 N162 1.263 . S
C164 N163 1.358 . S
C164 H170 0.930 . S
C165 N163 1.400 . S
C165 C166 1.351 . S
C165 H182 0.930 . S
C166 N162 1.389 . S
C166 C165 1.351 . S
C166 H171 0.930 . S
O167 Cu161 1.974 . S
O167 C177 1.282 . S
C168 O169 1.261 . S
C168 O181 1.251 . S
O169 C168 1.261 . S
H170 C164 0.930 . S
H171 C166 0.930 . S
N172 Cu161 1.985 . S
N172 C174 1.335 . S
N172 C175 1.390 . S
N173 C174 1.345 . S
N173 C176 1.336 . S
C174 N172 1.335 . S
C174 N173 1.345 . S
C174 H179 0.930 . S
C175 N172 1.390 . S
C175 C176 1.346 . S
C175 H180 0.930 . S
C176 N173 1.336 . S
C176 C175 1.346 . S
C176 H183 0.929 . S
C177 O167 1.282 . S
C177 O178 1.216 . S
O178 C177 1.216 . S
H179 C174 0.930 . S
H180 C175 0.930 . S
O181 Cu161 1.959 . S
O181 C168 1.251 . S
H182 C165 0.930 . S
H183 C176 0.929 . S
Cu184 N185 1.999 . S
Cu184 O190 1.974 . S
Cu184 N195 1.985 . S
Cu184 O204 1.959 . S
N185 Cu184 1.999 . S
N185 C187 1.263 . S
N185 C189 1.389 . S
N186 C187 1.358 . S
N186 C188 1.400 . S
C187 N185 1.263 . S
C187 N186 1.358 . S
C187 H193 0.930 . S
C188 N186 1.400 . S
C188 C189 1.351 . S
C188 H205 0.930 . S
C189 N185 1.389 . S
C189 C188 1.351 . S
C189 H194 0.930 . S
O190 Cu184 1.974 . S
O190 C200 1.282 . S
C191 O192 1.261 . S
C191 O204 1.251 . S
O192 C191 1.261 . S
H193 C187 0.930 . S
H194 C189 0.930 . S
N195 Cu184 1.985 . S
N195 C197 1.335 . S
N195 C198 1.390 . S
N196 C197 1.345 . S
N196 C199 1.336 . S
C197 N195 1.335 . S
C197 N196 1.345 . S
C197 H202 0.930 . S
C198 N195 1.390 . S
C198 C199 1.346 . S
C198 H203 0.930 . S
C199 N196 1.336 . S
C199 C198 1.346 . S
C199 H206 0.929 . S
C200 O190 1.282 . S
C200 O201 1.216 . S
O201 C200 1.216 . S
H202 C197 0.930 . S
H203 C198 0.930 . S
O204 Cu184 1.959 . S
O204 C191 1.251 . S
H205 C188 0.930 . S
H206 C199 0.929 . S
Cu207 N208 1.999 . S
Cu207 O213 1.974 . S
Cu207 N218 1.985 . S
Cu207 O227 1.959 . S
N208 Cu207 1.999 . S
N208 C210 1.263 . S
N208 C212 1.389 . S
N209 C210 1.358 . S
N209 C211 1.400 . S
C210 N208 1.263 . S
C210 N209 1.358 . S
C210 H216 0.930 . S
C211 N209 1.400 . S
C211 C212 1.351 . S
C211 H228 0.930 . S
C212 N208 1.389 . S
C212 C211 1.351 . S
C212 H217 0.930 . S
O213 Cu207 1.974 . S
O213 C223 1.282 . S
C214 O215 1.261 . S
C214 O227 1.251 . S
O215 C214 1.261 . S
H216 C210 0.930 . S
H217 C212 0.930 . S
N218 Cu207 1.985 . S
N218 C220 1.335 . S
N218 C221 1.390 . S
N219 C220 1.345 . S
N219 C222 1.336 . S
C220 N218 1.335 . S
C220 N219 1.345 . S
C220 H225 0.930 . S
C221 N218 1.390 . S
C221 C222 1.346 . S
C221 H226 0.930 . S
C222 N219 1.336 . S
C222 C221 1.346 . S
C222 H229 0.929 . S
C223 O213 1.282 . S
C223 O224 1.216 . S
O224 C223 1.216 . S
H225 C220 0.930 . S
H226 C221 0.930 . S
O227 Cu207 1.959 . S
O227 C214 1.251 . S
H228 C211 0.930 . S
H229 C222 0.929 . S
Cu230 N231 1.999 . S
Cu230 O236 1.974 . S
Cu230 N241 1.985 . S
Cu230 O250 1.959 . S
N231 Cu230 1.999 . S
N231 C233 1.263 . S
N231 C235 1.389 . S
N232 C233 1.358 . S
N232 C234 1.400 . S
C233 N231 1.263 . S
C233 N232 1.358 . S
C233 H239 0.930 . S
C234 N232 1.400 . S
C234 C235 1.351 . S
C234 H251 0.930 . S
C235 N231 1.389 . S
C235 C234 1.351 . S
C235 H240 0.930 . S
O236 Cu230 1.974 . S
O236 C246 1.282 . S
C237 O238 1.261 . S
C237 O250 1.251 . S
O238 C237 1.261 . S
H239 C233 0.930 . S
H240 C235 0.930 . S
N241 Cu230 1.985 . S
N241 C243 1.335 . S
N241 C244 1.390 . S
N242 C243 1.345 . S
N242 C245 1.336 . S
C243 N241 1.335 . S
C243 N242 1.345 . S
C243 H248 0.930 . S
C244 N241 1.390 . S
C244 C245 1.346 . S
C244 H249 0.930 . S
C245 N242 1.336 . S
C245 C244 1.346 . S
C245 H252 0.929 . S
C246 O236 1.282 . S
C246 O247 1.216 . S
O247 C246 1.216 . S
H248 C243 0.930 . S
H249 C244 0.930 . S
O250 Cu230 1.959 . S
O250 C237 1.251 . S
H251 C234 0.930 . S
H252 C245 0.929 . S
Cu253 N254 1.999 . S
Cu253 O259 1.974 . S
Cu253 N264 1.985 . S
Cu253 O273 1.959 . S
N254 Cu253 1.999 . S
N254 C256 1.263 . S
N254 C258 1.389 . S
N255 C256 1.358 . S
N255 C257 1.400 . S
C256 N254 1.263 . S
C256 N255 1.358 . S
C256 H262 0.930 . S
C257 N255 1.400 . S
C257 C258 1.351 . S
C257 H274 0.930 . S
C258 N254 1.389 . S
C258 C257 1.351 . S
C258 H263 0.930 . S
O259 Cu253 1.974 . S
O259 C269 1.282 . S
C260 O261 1.261 . S
C260 O273 1.251 . S
O261 C260 1.261 . S
H262 C256 0.930 . S
H263 C258 0.930 . S
N264 Cu253 1.985 . S
N264 C266 1.335 . S
N264 C267 1.390 . S
N265 C266 1.345 . S
N265 C268 1.336 . S
C266 N264 1.335 . S
C266 N265 1.345 . S
C266 H271 0.930 . S
C267 N264 1.390 . S
C267 C268 1.346 . S
C267 H272 0.930 . S
C268 N265 1.336 . S
C268 C267 1.346 . S
C268 H275 0.929 . S
C269 O259 1.282 . S
C269 O270 1.216 . S
O270 C269 1.216 . S
H271 C266 0.930 . S
H272 C267 0.930 . S
O273 Cu253 1.959 . S
O273 C260 1.251 . S
H274 C257 0.930 . S
H275 C268 0.929 . S
C276 C277 1.349 . S
C276 C278 1.327 . S
C276 H301 0.950 . S
C277 C276 1.349 . S
C277 C293 1.349 . S
C278 C276 1.327 . S
C278 C297 1.429 . S
C278 H302 0.950 . S
C279 C296 1.574 . S
C279 C298 1.368 . S
C279 H303 0.949 . S
H280 C284 0.949 . S
C281 C282 1.349 . S
C281 C283 1.327 . S
C281 H304 0.950 . S
C282 C281 1.349 . S
C282 C294 1.349 . S
C283 C281 1.327 . S
C283 C299 1.429 . S
C283 H305 0.950 . S
C284 H280 0.949 . S
C284 C292 1.574 . S
C284 C300 1.368 . S
H285 C293 0.950 . S
H286 C291 0.950 . S
H287 C292 0.949 . S
H288 C294 0.950 . S
H289 C295 0.950 . S
H290 C296 0.949 . S
C291 H286 0.950 . S
C291 C293 1.327 . S
C291 C297 1.429 . S
C292 C284 1.574 . S
C292 H287 0.949 . S
C292 C298 1.368 . S
C293 C277 1.349 . S
C293 H285 0.950 . S
C293 C291 1.327 . S
C294 C282 1.349 . S
C294 H288 0.950 . S
C294 C295 1.327 . S
C295 H289 0.950 . S
C295 C294 1.327 . S
C295 C299 1.429 . S
C296 C279 1.574 . S
C296 H290 0.949 . S
C296 C300 1.368 . S
C297 C278 1.429 . S
C297 C291 1.429 . S
C297 C298 1.523 . S
C298 C279 1.368 . S
C298 C292 1.368 . S
C298 C297 1.523 . S
C299 C283 1.429 . S
C299 C295 1.429 . S
C299 C300 1.523 . S
C300 C284 1.368 . S
C300 C296 1.368 . S
C300 C299 1.523 . S
H301 C276 0.950 . S
H302 C278 0.950 . S
H303 C279 0.949 . S
H304 C281 0.950 . S
H305 C283 0.950 . S
C306 C307 1.349 . S
C306 C308 1.327 . S
C306 H331 0.950 . S
C307 C306 1.349 . S
C307 C323 1.349 . S
C308 C306 1.327 . S
C308 C327 1.429 . S
C308 H332 0.950 . S
C309 C326 1.574 . S
C309 C328 1.368 . S
C309 H333 0.949 . S
H310 C314 0.949 . S
C311 C312 1.349 . S
C311 C313 1.327 . S
C311 H334 0.950 . S
C312 C311 1.349 . S
C312 C324 1.349 . S
C313 C311 1.327 . S
C313 C329 1.429 . S
C313 H335 0.950 . S
C314 H310 0.949 . S
C314 C322 1.574 . S
C314 C330 1.368 . S
H315 C323 0.950 . S
H316 C321 0.950 . S
H317 C322 0.949 . S
H318 C324 0.950 . S
H319 C325 0.950 . S
H320 C326 0.949 . S
C321 H316 0.950 . S
C321 C323 1.327 . S
C321 C327 1.429 . S
C322 C314 1.574 . S
C322 H317 0.949 . S
C322 C328 1.368 . S
C323 C307 1.349 . S
C323 H315 0.950 . S
C323 C321 1.327 . S
C324 C312 1.349 . S
C324 H318 0.950 . S
C324 C325 1.327 . S
C325 H319 0.950 . S
C325 C324 1.327 . S
C325 C329 1.429 . S
C326 C309 1.574 . S
C326 H320 0.949 . S
C326 C330 1.368 . S
C327 C308 1.429 . S
C327 C321 1.429 . S
C327 C328 1.523 . S
C328 C309 1.368 . S
C328 C322 1.368 . S
C328 C327 1.523 . S
C329 C313 1.429 . S
C329 C325 1.429 . S
C329 C330 1.523 . S
C330 C314 1.368 . S
C330 C326 1.368 . S
C330 C329 1.523 . S
H331 C306 0.950 . S
H332 C308 0.950 . S
H333 C309 0.949 . S
H334 C311 0.950 . S
H335 C313 0.950 . S
C336 C337 1.349 . S
C336 C338 1.327 . S
C336 H361 0.950 . S
C337 C336 1.349 . S
C337 C353 1.349 . S
C338 C336 1.327 . S
C338 C357 1.429 . S
C338 H362 0.950 . S
C339 C356 1.574 . S
C339 C358 1.368 . S
C339 H363 0.949 . S
H340 C344 0.949 . S
C341 C342 1.349 . S
C341 C343 1.327 . S
C341 H364 0.950 . S
C342 C341 1.349 . S
C342 C354 1.349 . S
C343 C341 1.327 . S
C343 C359 1.429 . S
C343 H365 0.950 . S
C344 H340 0.949 . S
C344 C352 1.574 . S
C344 C360 1.368 . S
H345 C353 0.950 . S
H346 C351 0.950 . S
H347 C352 0.949 . S
H348 C354 0.950 . S
H349 C355 0.950 . S
H350 C356 0.949 . S
C351 H346 0.950 . S
C351 C353 1.327 . S
C351 C357 1.429 . S
C352 C344 1.574 . S
C352 H347 0.949 . S
C352 C358 1.368 . S
C353 C337 1.349 . S
C353 H345 0.950 . S
C353 C351 1.327 . S
C354 C342 1.349 . S
C354 H348 0.950 . S
C354 C355 1.327 . S
C355 H349 0.950 . S
C355 C354 1.327 . S
C355 C359 1.429 . S
C356 C339 1.574 . S
C356 H350 0.949 . S
C356 C360 1.368 . S
C357 C338 1.429 . S
C357 C351 1.429 . S
C357 C358 1.523 . S
C358 C339 1.368 . S
C358 C352 1.368 . S
C358 C357 1.523 . S
C359 C343 1.429 . S
C359 C355 1.429 . S
C359 C360 1.523 . S
C360 C344 1.368 . S
C360 C356 1.368 . S
C360 C359 1.523 . S
H361 C336 0.950 . S
H362 C338 0.950 . S
H363 C339 0.949 . S
H364 C341 0.950 . S
H365 C343 0.950 . S
C366 C367 1.349 . S
C366 C368 1.327 . S
C366 H391 0.950 . S
C367 C366 1.349 . S
C367 C383 1.349 . S
C368 C366 1.327 . S
C368 C387 1.429 . S
C368 H392 0.950 . S
C369 C386 1.574 . S
C369 C388 1.368 . S
C369 H393 0.949 . S
H370 C374 0.949 . S
C371 C372 1.349 . S
C371 C373 1.327 . S
C371 H394 0.950 . S
C372 C371 1.349 . S
C372 C384 1.349 . S
C373 C371 1.327 . S
C373 C389 1.429 . S
C373 H395 0.950 . S
C374 H370 0.949 . S
C374 C382 1.574 . S
C374 C390 1.368 . S
H375 C383 0.950 . S
H376 C381 0.950 . S
H377 C382 0.949 . S
H378 C384 0.950 . S
H379 C385 0.950 . S
H380 C386 0.949 . S
C381 H376 0.950 . S
C381 C383 1.327 . S
C381 C387 1.429 . S
C382 C374 1.574 . S
C382 H377 0.949 . S
C382 C388 1.368 . S
C383 C367 1.349 . S
C383 H375 0.950 . S
C383 C381 1.327 . S
C384 C372 1.349 . S
C384 H378 0.950 . S
C384 C385 1.327 . S
C385 H379 0.950 . S
C385 C384 1.327 . S
C385 C389 1.429 . S
C386 C369 1.574 . S
C386 H380 0.949 . S
C386 C390 1.368 . S
C387 C368 1.429 . S
C387 C381 1.429 . S
C387 C388 1.523 . S
C388 C369 1.368 . S
C388 C382 1.368 . S
C388 C387 1.523 . S
C389 C373 1.429 . S
C389 C385 1.429 . S
C389 C390 1.523 . S
C390 C374 1.368 . S
C390 C386 1.368 . S
C390 C389 1.523 . S
H391 C366 0.950 . S
H392 C368 0.950 . S
H393 C369 0.949 . S
H394 C371 0.950 . S
H395 C373 0.950 . S
C396 C397 1.349 . S
C396 C398 1.327 . S
C396 H421 0.950 . S
C397 C396 1.349 . S
C397 C413 1.349 . S
C398 C396 1.327 . S
C398 C417 1.429 . S
C398 H422 0.950 . S
C399 C416 1.574 . S
C399 C418 1.368 . S
C399 H423 0.949 . S
H400 C404 0.949 . S
C401 C402 1.349 . S
C401 C403 1.327 . S
C401 H424 0.950 . S
C402 C401 1.349 . S
C402 C414 1.349 . S
C403 C401 1.327 . S
C403 C419 1.429 . S
C403 H425 0.950 . S
C404 H400 0.949 . S
C404 C412 1.574 . S
C404 C420 1.368 . S
H405 C413 0.950 . S
H406 C411 0.950 . S
H407 C412 0.949 . S
H408 C414 0.950 . S
H409 C415 0.950 . S
H410 C416 0.949 . S
C411 H406 0.950 . S
C411 C413 1.327 . S
C411 C417 1.429 . S
C412 C404 1.574 . S
C412 H407 0.949 . S
C412 C418 1.368 . S
C413 C397 1.349 . S
C413 H405 0.950 . S
C413 C411 1.327 . S
C414 C402 1.349 . S
C414 H408 0.950 . S
C414 C415 1.327 . S
C415 H409 0.950 . S
C415 C414 1.327 . S
C415 C419 1.429 . S
C416 C399 1.574 . S
C416 H410 0.949 . S
C416 C420 1.368 . S
C417 C398 1.429 . S
C417 C411 1.429 . S
C417 C418 1.523 . S
C418 C399 1.368 . S
C418 C412 1.368 . S
C418 C417 1.523 . S
C419 C403 1.429 . S
C419 C415 1.429 . S
C419 C420 1.523 . S
C420 C404 1.368 . S
C420 C416 1.368 . S
C420 C419 1.523 . S
H421 C396 0.950 . S
H422 C398 0.950 . S
H423 C399 0.949 . S
H424 C401 0.950 . S
H425 C403 0.950 . S
C426 C427 1.349 . S
C426 C428 1.327 . S
C426 H451 0.950 . S
C427 C426 1.349 . S
C427 C443 1.349 . S
C428 C426 1.327 . S
C428 C447 1.429 . S
C428 H452 0.950 . S
C429 C446 1.574 . S
C429 C448 1.368 . S
C429 H453 0.949 . S
H430 C434 0.949 . S
C431 C432 1.349 . S
C431 C433 1.327 . S
C431 H454 0.950 . S
C432 C431 1.349 . S
C432 C444 1.349 . S
C433 C431 1.327 . S
C433 C449 1.429 . S
C433 H455 0.950 . S
C434 H430 0.949 . S
C434 C442 1.574 . S
C434 C450 1.368 . S
H435 C443 0.950 . S
H436 C441 0.950 . S
H437 C442 0.949 . S
H438 C444 0.950 . S
H439 C445 0.950 . S
H440 C446 0.949 . S
C441 H436 0.950 . S
C441 C443 1.327 . S
C441 C447 1.429 . S
C442 C434 1.574 . S
C442 H437 0.949 . S
C442 C448 1.368 . S
C443 C427 1.349 . S
C443 H435 0.950 . S
C443 C441 1.327 . S
C444 C432 1.349 . S
C444 H438 0.950 . S
C444 C445 1.327 . S
C445 H439 0.950 . S
C445 C444 1.327 . S
C445 C449 1.429 . S
C446 C429 1.574 . S
C446 H440 0.949 . S
C446 C450 1.368 . S
C447 C428 1.429 . S
C447 C441 1.429 . S
C447 C448 1.523 . S
C448 C429 1.368 . S
C448 C442 1.368 . S
C448 C447 1.523 . S
C449 C433 1.429 . S
C449 C445 1.429 . S
C449 C450 1.523 . S
C450 C434 1.368 . S
C450 C446 1.368 . S
C450 C449 1.523 . S
H451 C426 0.950 . S
H452 C428 0.950 . S
H453 C429 0.949 . S
H454 C431 0.950 . S
H455 C433 0.950 . S
C456 C457 1.349 . S
C456 C458 1.327 . S
C456 H481 0.950 . S
C457 C456 1.349 . S
C457 C473 1.349 . S
C458 C456 1.327 . S
C458 C477 1.429 . S
C458 H482 0.950 . S
C459 C476 1.574 . S
C459 C478 1.368 . S
C459 H483 0.949 . S
H460 C464 0.949 . S
C461 C462 1.349 . S
C461 C463 1.327 . S
C461 H484 0.950 . S
C462 C461 1.349 . S
C462 C474 1.349 . S
C463 C461 1.327 . S
C463 C479 1.429 . S
C463 H485 0.950 . S
C464 H460 0.949 . S
C464 C472 1.574 . S
C464 C480 1.368 . S
H465 C473 0.950 . S
H466 C471 0.950 . S
H467 C472 0.949 . S
H468 C474 0.950 . S
H469 C475 0.950 . S
H470 C476 0.949 . S
C471 H466 0.950 . S
C471 C473 1.327 . S
C471 C477 1.429 . S
C472 C464 1.574 . S
C472 H467 0.949 . S
C472 C478 1.368 . S
C473 C457 1.349 . S
C473 H465 0.950 . S
C473 C471 1.327 . S
C474 C462 1.349 . S
C474 H468 0.950 . S
C474 C475 1.327 . S
C475 H469 0.950 . S
C475 C474 1.327 . S
C475 C479 1.429 . S
C476 C459 1.574 . S
C476 H470 0.949 . S
C476 C480 1.368 . S
C477 C458 1.429 . S
C477 C471 1.429 . S
C477 C478 1.523 . S
C478 C459 1.368 . S
C478 C472 1.368 . S
C478 C477 1.523 . S
C479 C463 1.429 . S
C479 C475 1.429 . S
C479 C480 1.523 . S
C480 C464 1.368 . S
C480 C476 1.368 . S
C480 C479 1.523 . S
H481 C456 0.950 . S
H482 C458 0.950 . S
H483 C459 0.949 . S
H484 C461 0.950 . S
H485 C463 0.950 . S
C486 C487 1.349 . S
C486 C488 1.327 . S
C486 H511 0.950 . S
C487 C486 1.349 . S
C487 C503 1.349 . S
C488 C486 1.327 . S
C488 C507 1.429 . S
C488 H512 0.950 . S
C489 C506 1.574 . S
C489 C508 1.368 . S
C489 H513 0.949 . S
H490 C494 0.949 . S
C491 C492 1.349 . S
C491 C493 1.327 . S
C491 H514 0.950 . S
C492 C491 1.349 . S
C492 C504 1.349 . S
C493 C491 1.327 . S
C493 C509 1.429 . S
C493 H515 0.950 . S
C494 H490 0.949 . S
C494 C502 1.574 . S
C494 C510 1.368 . S
H495 C503 0.914 1_554 S
H496 C501 0.950 . S
H497 C502 0.949 . S
H498 C504 0.950 . S
H499 C505 0.950 . S
H500 C506 0.949 . S
C501 H496 0.950 . S
C501 C503 1.327 . S
C501 C507 1.429 . S
C502 C494 1.574 . S
C502 H497 0.949 . S
C502 C508 1.368 . S
C503 C487 1.349 . S
C503 H495 0.914 1_556 S
C503 C501 1.327 . S
C504 C492 1.349 . S
C504 H498 0.950 . S
C504 C505 1.327 . S
C505 H499 0.950 . S
C505 C504 1.327 . S
C505 C509 1.429 . S
C506 C489 1.574 . S
C506 H500 0.949 . S
C506 C510 1.368 . S
C507 C488 1.429 . S
C507 C501 1.429 . S
C507 C508 1.523 . S
C508 C489 1.368 . S
C508 C502 1.368 . S
C508 C507 1.523 . S
C509 C493 1.429 . S
C509 C505 1.429 . S
C509 C510 1.523 . S
C510 C494 1.368 . S
C510 C506 1.368 . S
C510 C509 1.523 . S
H511 C486 0.950 . S
H512 C488 0.950 . S
H513 C489 0.949 . S
H514 C491 0.950 . S
H515 C493 0.950 . S
C516 C517 1.349 . S
C516 C518 1.327 . S
C516 H541 0.950 . S
C517 C516 1.349 . S
C517 C533 1.349 . S
C518 C516 1.327 . S
C518 C537 1.429 . S
C518 H542 0.950 . S
C519 C536 1.574 . S
C519 C538 1.368 . S
C519 H543 0.949 . S
H520 C524 0.949 . S
C521 C522 1.349 . S
C521 C523 1.327 . S
C521 H544 0.950 . S
C522 C521 1.349 . S
C522 C534 1.349 . S
C523 C521 1.327 . S
C523 C539 1.429 . S
C523 H545 0.950 . S
C524 H520 0.949 . S
C524 C532 1.574 . S
C524 C540 1.368 . S
H525 C533 0.950 . S
H526 C531 0.950 . S
H527 C532 0.949 . S
H528 C534 0.950 . S
H529 C535 0.950 . S
H530 C536 0.949 . S
C531 H526 0.950 . S
C531 C533 1.327 . S
C531 C537 1.429 . S
C532 C524 1.574 . S
C532 H527 0.949 . S
C532 C538 1.368 . S
C533 C517 1.349 . S
C533 H525 0.950 . S
C533 C531 1.327 . S
C534 C522 1.349 . S
C534 H528 0.950 . S
C534 C535 1.327 . S
C535 H529 0.950 . S
C535 C534 1.327 . S
C535 C539 1.429 . S
C536 C519 1.574 . S
C536 H530 0.949 . S
C536 C540 1.368 . S
C537 C518 1.429 . S
C537 C531 1.429 . S
C537 C538 1.523 . S
C538 C519 1.368 . S
C538 C532 1.368 . S
C538 C537 1.523 . S
C539 C523 1.429 . S
C539 C535 1.429 . S
C539 C540 1.523 . S
C540 C524 1.368 . S
C540 C536 1.368 . S
C540 C539 1.523 . S
H541 C516 0.950 . S
H542 C518 0.950 . S
H543 C519 0.949 . S
H544 C521 0.950 . S
H545 C523 0.950 . S
C546 C547 1.349 . S
C546 C548 1.327 . S
C546 H571 0.950 . S
C547 C546 1.349 . S
C547 C563 1.349 . S
C548 C546 1.327 . S
C548 C567 1.429 . S
C548 H572 0.950 . S
C549 C566 1.574 . S
C549 C568 1.368 . S
C549 H573 0.949 . S
H550 C554 0.949 . S
C551 C552 1.349 . S
C551 C553 1.327 . S
C551 H574 0.950 . S
C552 C551 1.349 . S
C552 C564 1.349 . S
C553 C551 1.327 . S
C553 C569 1.429 . S
C553 H575 0.950 . S
C554 H550 0.949 . S
C554 C562 1.574 . S
C554 C570 1.368 . S
H555 C563 0.950 . S
H556 C561 0.950 . S
H557 C562 0.949 . S
H558 C564 0.950 . S
H559 C565 0.950 . S
H560 C566 0.949 . S
C561 H556 0.950 . S
C561 C563 1.327 . S
C561 C567 1.429 . S
C562 C554 1.574 . S
C562 H557 0.949 . S
C562 C568 1.368 . S
C563 C547 1.349 . S
C563 H555 0.950 . S
C563 C561 1.327 . S
C564 C552 1.349 . S
C564 H558 0.950 . S
C564 C565 1.327 . S
C565 H559 0.950 . S
C565 C564 1.327 . S
C565 C569 1.429 . S
C566 C549 1.574 . S
C566 H560 0.949 . S
C566 C570 1.368 . S
C567 C548 1.429 . S
C567 C561 1.429 . S
C567 C568 1.523 . S
C568 C549 1.368 . S
C568 C562 1.368 . S
C568 C567 1.523 . S
C569 C553 1.429 . S
C569 C565 1.429 . S
C569 C570 1.523 . S
C570 C554 1.368 . S
C570 C566 1.368 . S
C570 C569 1.523 . S
H571 C546 0.950 . S
H572 C548 0.950 . S
H573 C549 0.949 . S
H574 C551 0.950 . S
H575 C553 0.950 . S
C576 C577 1.349 . S
C576 C578 1.327 . S
C576 H601 0.950 . S
C577 C576 1.349 . S
C577 C593 1.349 . S
C578 C576 1.327 . S
C578 C597 1.429 . S
C578 H602 0.950 . S
C579 C596 1.574 . S
C579 C598 1.368 . S
C579 H603 0.949 . S
H580 C584 0.949 . S
C581 C582 1.349 . S
C581 C583 1.327 . S
C581 H604 0.950 . S
C582 C581 1.349 . S
C582 C594 1.349 . S
C583 C581 1.327 . S
C583 C599 1.429 . S
C583 H605 0.950 . S
C584 H580 0.949 . S
C584 C592 1.574 . S
C584 C600 1.368 . S
H585 C593 0.950 . S
H586 C591 0.950 . S
H587 C592 0.949 . S
H588 C594 0.950 . S
H589 C595 0.950 . S
H590 C596 0.949 . S
C591 H586 0.950 . S
C591 C593 1.327 . S
C591 C597 1.429 . S
C592 C584 1.574 . S
C592 H587 0.949 . S
C592 C598 1.368 . S
C593 C577 1.349 . S
C593 H585 0.950 . S
C593 C591 1.327 . S
C594 C582 1.349 . S
C594 H588 0.950 . S
C594 C595 1.327 . S
C595 H589 0.950 . S
C595 C594 1.327 . S
C595 C599 1.429 . S
C596 C579 1.574 . S
C596 H590 0.949 . S
C596 C600 1.368 . S
C597 C578 1.429 . S
C597 C591 1.429 . S
C597 C598 1.523 . S
C598 C579 1.368 . S
C598 C592 1.368 . S
C598 C597 1.523 . S
C599 C583 1.429 . S
C599 C595 1.429 . S
C599 C600 1.523 . S
C600 C584 1.368 . S
C600 C596 1.368 . S
C600 C599 1.523 . S
H601 C576 0.950 . S
H602 C578 0.950 . S
H603 C579 0.949 . S
H604 C581 0.950 . S
H605 C583 0.950 . S
C606 C607 1.349 . S
C606 C608 1.327 . S
C606 H631 0.950 . S
C607 C606 1.349 . S
C607 C623 1.349 . S
C608 C606 1.327 . S
C608 C627 1.429 . S
C608 H632 0.950 . S
C609 C626 1.574 . S
C609 C628 1.368 . S
C609 H633 0.949 . S
H610 C614 0.949 . S
C611 C612 1.349 . S
C611 C613 1.327 . S
C611 H634 0.950 . S
C612 C611 1.349 . S
C612 C624 1.349 . S
C613 C611 1.327 . S
C613 C629 1.429 . S
C613 H635 0.950 . S
C614 H610 0.949 . S
C614 C622 1.574 . S
C614 C630 1.368 . S
H615 C623 0.950 . S
H616 C621 0.950 . S
H617 C622 0.949 . S
H618 C624 0.950 . S
H619 C625 0.950 . S
H620 C626 0.949 . S
C621 H616 0.950 . S
C621 C623 1.327 . S
C621 C627 1.429 . S
C622 C614 1.574 . S
C622 H617 0.949 . S
C622 C628 1.368 . S
C623 C607 1.349 . S
C623 H615 0.950 . S
C623 C621 1.327 . S
C624 C612 1.349 . S
C624 H618 0.950 . S
C624 C625 1.327 . S
C625 H619 0.950 . S
C625 C624 1.327 . S
C625 C629 1.429 . S
C626 C609 1.574 . S
C626 H620 0.949 . S
C626 C630 1.368 . S
C627 C608 1.429 . S
C627 C621 1.429 . S
C627 C628 1.523 . S
C628 C609 1.368 . S
C628 C622 1.368 . S
C628 C627 1.523 . S
C629 C613 1.429 . S
C629 C625 1.429 . S
C629 C630 1.523 . S
C630 C614 1.368 . S
C630 C626 1.368 . S
C630 C629 1.523 . S
H631 C606 0.950 . S
H632 C608 0.950 . S
H633 C609 0.949 . S
H634 C611 0.950 . S
H635 C613 0.950 . S
C636 C637 1.349 . S
C636 C638 1.327 . S
C636 H661 0.950 . S
C637 C636 1.349 . S
C637 C653 1.349 . S
C638 C636 1.327 . S
C638 C657 1.429 . S
C638 H662 0.950 . S
C639 C656 1.574 . S
C639 C658 1.368 . S
C639 H663 0.949 . S
H640 C644 0.949 . S
C641 C642 1.349 . S
C641 C643 1.327 . S
C641 H664 0.950 . S
C642 C641 1.349 . S
C642 C654 1.349 . S
C643 C641 1.327 . S
C643 C659 1.429 . S
C643 H665 0.950 . S
C644 H640 0.949 . S
C644 C652 1.574 . S
C644 C660 1.368 . S
H645 C653 0.950 . S
H646 C651 0.950 . S
H647 C652 0.949 . S
H648 C654 0.950 . S
H649 C655 0.950 . S
H650 C656 0.949 . S
C651 H646 0.950 . S
C651 C653 1.327 . S
C651 C657 1.429 . S
C652 C644 1.574 . S
C652 H647 0.949 . S
C652 C658 1.368 . S
C653 C637 1.349 . S
C653 H645 0.950 . S
C653 C651 1.327 . S
C654 C642 1.349 . S
C654 H648 0.950 . S
C654 C655 1.327 . S
C655 H649 0.950 . S
C655 C654 1.327 . S
C655 C659 1.429 . S
C656 C639 1.574 . S
C656 H650 0.949 . S
C656 C660 1.368 . S
C657 C638 1.429 . S
C657 C651 1.429 . S
C657 C658 1.523 . S
C658 C639 1.368 . S
C658 C652 1.368 . S
C658 C657 1.523 . S
C659 C643 1.429 . S
C659 C655 1.429 . S
C659 C660 1.523 . S
C660 C644 1.368 . S
C660 C656 1.368 . S
C660 C659 1.523 . S
H661 C636 0.950 . S
H662 C638 0.950 . S
H663 C639 0.949 . S
H664 C641 0.950 . S
H665 C643 0.950 . S
C666 C667 1.349 . S
C666 C668 1.327 . S
C666 H691 0.950 . S
C667 C666 1.349 . S
C667 C683 1.349 . S
C668 C666 1.327 . S
C668 C687 1.429 . S
C668 H692 0.950 . S
C669 C686 1.574 . S
C669 C688 1.368 . S
C669 H693 0.949 . S
H670 C674 0.949 . S
C671 C672 1.349 . S
C671 C673 1.327 . S
C671 H694 0.950 . S
C672 C671 1.349 . S
C672 C684 1.349 . S
C673 C671 1.327 . S
C673 C689 1.429 . S
C673 H695 0.950 . S
C674 H670 0.949 . S
C674 C682 1.574 . S
C674 C690 1.368 . S
H675 C683 0.950 . S
H676 C681 0.950 . S
H677 C682 0.949 . S
H678 C684 0.950 . S
H679 C685 0.950 . S
H680 C686 0.949 . S
C681 H676 0.950 . S
C681 C683 1.327 . S
C681 C687 1.429 . S
C682 C674 1.574 . S
C682 H677 0.949 . S
C682 C688 1.368 . S
C683 C667 1.349 . S
C683 H675 0.950 . S
C683 C681 1.327 . S
C684 C672 1.349 . S
C684 H678 0.950 . S
C684 C685 1.327 . S
C685 H679 0.950 . S
C685 C684 1.327 . S
C685 C689 1.429 . S
C686 C669 1.574 . S
C686 H680 0.949 . S
C686 C690 1.368 . S
C687 C668 1.429 . S
C687 C681 1.429 . S
C687 C688 1.523 . S
C688 C669 1.368 . S
C688 C682 1.368 . S
C688 C687 1.523 . S
C689 C673 1.429 . S
C689 C685 1.429 . S
C689 C690 1.523 . S
C690 C674 1.368 . S
C690 C686 1.368 . S
C690 C689 1.523 . S
H691 C666 0.950 . S
H692 C668 0.950 . S
H693 C669 0.949 . S
H694 C671 0.950 . S
H695 C673 0.950 . S
C696 C697 1.349 . S
C696 C698 1.327 . S
C696 H721 0.950 . S
C697 C696 1.349 . S
C697 C713 1.349 . S
C698 C696 1.327 . S
C698 C717 1.429 . S
C698 H722 0.950 . S
C699 C716 1.574 . S
C699 C718 1.368 . S
C699 H723 0.949 . S
H700 C704 0.949 . S
C701 C702 1.349 . S
C701 C703 1.327 . S
C701 H724 0.950 . S
C702 C701 1.349 . S
C702 C714 1.349 . S
C703 C701 1.327 . S
C703 C719 1.429 . S
C703 H725 0.950 . S
C704 H700 0.949 . S
C704 C712 1.574 . S
C704 C720 1.368 . S
H705 C713 0.950 . S
H706 C711 0.950 . S
H707 C712 0.949 . S
H708 C714 0.950 . S
H709 C715 0.950 . S
H710 C716 0.949 . S
C711 H706 0.950 . S
C711 C713 1.327 . S
C711 C717 1.429 . S
C712 C704 1.574 . S
C712 H707 0.949 . S
C712 C718 1.368 . S
C713 C697 1.349 . S
C713 H705 0.950 . S
C713 C711 1.327 . S
C714 C702 1.349 . S
C714 H708 0.950 . S
C714 C715 1.327 . S
C715 H709 0.950 . S
C715 C714 1.327 . S
C715 C719 1.429 . S
C716 C699 1.574 . S
C716 H710 0.949 . S
C716 C720 1.368 . S
C717 C698 1.429 . S
C717 C711 1.429 . S
C717 C718 1.523 . S
C718 C699 1.368 . S
C718 C712 1.368 . S
C718 C717 1.523 . S
C719 C703 1.429 . S
C719 C715 1.429 . S
C719 C720 1.523 . S
C720 C704 1.368 . S
C720 C716 1.368 . S
C720 C719 1.523 . S
H721 C696 0.950 . S
H722 C698 0.950 . S
H723 C699 0.949 . S
H724 C701 0.950 . S
H725 C703 0.950 . S
C726 C727 1.349 . S
C726 C728 1.327 . S
C726 H751 0.950 . S
C727 C726 1.349 . S
C727 C743 1.349 . S
C728 C726 1.327 . S
C728 C747 1.429 . S
C728 H752 0.950 . S
C729 C746 1.574 . S
C729 C748 1.368 . S
C729 H753 0.949 . S
H730 C734 0.949 . S
C731 C732 1.349 . S
C731 C733 1.327 . S
C731 H754 0.950 . S
C732 C731 1.349 . S
C732 C744 1.349 . S
C733 C731 1.327 . S
C733 C749 1.429 . S
C733 H755 0.950 . S
C734 H730 0.949 . S
C734 C742 1.574 . S
C734 C750 1.368 . S
H735 C743 0.950 . S
H736 C741 0.950 . S
H737 C742 0.949 . S
H738 C744 0.950 . S
H739 C745 0.950 . S
H740 C746 0.949 . S
C741 H736 0.950 . S
C741 C743 1.327 . S
C741 C747 1.429 . S
C742 C734 1.574 . S
C742 H737 0.949 . S
C742 C748 1.368 . S
C743 C727 1.349 . S
C743 H735 0.950 . S
C743 C741 1.327 . S
C744 C732 1.349 . S
C744 H738 0.950 . S
C744 C745 1.327 . S
C745 H739 0.950 . S
C745 C744 1.327 . S
C745 C749 1.429 . S
C746 C729 1.574 . S
C746 H740 0.949 . S
C746 C750 1.368 . S
C747 C728 1.429 . S
C747 C741 1.429 . S
C747 C748 1.523 . S
C748 C729 1.368 . S
C748 C742 1.368 . S
C748 C747 1.523 . S
C749 C733 1.429 . S
C749 C745 1.429 . S
C749 C750 1.523 . S
C750 C734 1.368 . S
C750 C746 1.368 . S
C750 C749 1.523 . S
H751 C726 0.950 . S
H752 C728 0.950 . S
H753 C729 0.949 . S
H754 C731 0.950 . S
H755 C733 0.950 . S
C756 C757 1.349 . S
C756 C758 1.327 . S
C756 H781 0.950 . S
C757 C756 1.349 . S
C757 C773 1.349 . S
C758 C756 1.327 . S
C758 C777 1.429 . S
C758 H782 0.950 . S
C759 C776 1.574 . S
C759 C778 1.368 . S
C759 H783 0.949 . S
H760 C764 0.949 . S
C761 C762 1.349 . S
C761 C763 1.327 . S
C761 H784 0.950 . S
C762 C761 1.349 . S
C762 C774 1.349 . S
C763 C761 1.327 . S
C763 C779 1.429 . S
C763 H785 0.950 . S
C764 H760 0.949 . S
C764 C772 1.574 . S
C764 C780 1.368 . S
H765 C773 0.950 . S
H766 C771 0.950 . S
H767 C772 0.949 . S
H768 C774 0.950 . S
H769 C775 0.950 . S
H770 C776 0.949 . S
C771 H766 0.950 . S
C771 C773 1.327 . S
C771 C777 1.429 . S
C772 C764 1.574 . S
C772 H767 0.949 . S
C772 C778 1.368 . S
C773 C757 1.349 . S
C773 H765 0.950 . S
C773 C771 1.327 . S
C774 C762 1.349 . S
C774 H768 0.950 . S
C774 C775 1.327 . S
C775 H769 0.950 . S
C775 C774 1.327 . S
C775 C779 1.429 . S
C776 C759 1.574 . S
C776 H770 0.949 . S
C776 C780 1.368 . S
C777 C758 1.429 . S
C777 C771 1.429 . S
C777 C778 1.523 . S
C778 C759 1.368 . S
C778 C772 1.368 . S
C778 C777 1.523 . S
C779 C763 1.429 . S
C779 C775 1.429 . S
C779 C780 1.523 . S
C780 C764 1.368 . S
C780 C776 1.368 . S
C780 C779 1.523 . S
H781 C756 0.950 . S
H782 C758 0.950 . S
H783 C759 0.949 . S
H784 C761 0.950 . S
H785 C763 0.950 . S
C786 C787 1.349 . S
C786 C788 1.327 . S
C786 H811 0.950 . S
C787 C786 1.349 . S
C787 C803 1.349 . S
C788 C786 1.327 . S
C788 C807 1.429 . S
C788 H812 0.950 . S
C789 C806 1.574 . S
C789 C808 1.368 . S
C789 H813 0.949 . S
H790 C794 0.949 . S
C791 C792 1.349 . S
C791 C793 1.327 . S
C791 H814 0.950 . S
C792 C791 1.349 . S
C792 C804 1.349 . S
C793 C791 1.327 . S
C793 C809 1.429 . S
C793 H815 0.950 . S
C794 H790 0.949 . S
C794 C802 1.574 . S
C794 C810 1.368 . S
H795 C803 0.950 . S
H796 C801 0.950 . S
H797 C802 0.949 . S
H798 C804 0.950 . S
H799 C805 0.950 . S
H800 C806 0.949 . S
C801 H796 0.950 . S
C801 C803 1.327 . S
C801 C807 1.429 . S
C802 C794 1.574 . S
C802 H797 0.949 . S
C802 C808 1.368 . S
C803 C787 1.349 . S
C803 H795 0.950 . S
C803 C801 1.327 . S
C804 C792 1.349 . S
C804 H798 0.950 . S
C804 C805 1.327 . S
C805 H799 0.950 . S
C805 C804 1.327 . S
C805 C809 1.429 . S
C806 C789 1.574 . S
C806 H800 0.949 . S
C806 C810 1.368 . S
C807 C788 1.429 . S
C807 C801 1.429 . S
C807 C808 1.523 . S
C808 C789 1.368 . S
C808 C802 1.368 . S
C808 C807 1.523 . S
C809 C793 1.429 . S
C809 C805 1.429 . S
C809 C810 1.523 . S
C810 C794 1.368 . S
C810 C806 1.368 . S
C810 C809 1.523 . S
H811 C786 0.950 . S
H812 C788 0.950 . S
H813 C789 0.949 . S
H814 C791 0.950 . S
H815 C793 0.950 . S
C816 C817 1.349 . S
C816 C818 1.327 . S
C816 H841 0.950 . S
C817 C816 1.349 . S
C817 C833 1.349 . S
C818 C816 1.327 . S
C818 C837 1.429 . S
C818 H842 0.950 . S
C819 C836 1.574 . S
C819 C838 1.368 . S
C819 H843 0.949 . S
H820 C824 0.949 . S
C821 C822 1.349 . S
C821 C823 1.327 . S
C821 H844 0.950 . S
C822 C821 1.349 . S
C822 C834 1.349 . S
C823 C821 1.327 . S
C823 C839 1.429 . S
C823 H845 0.950 . S
C824 H820 0.949 . S
C824 C832 1.574 . S
C824 C840 1.368 . S
H825 C833 0.950 . S
H826 C831 0.950 . S
H827 C832 0.949 . S
H828 C834 0.950 . S
H829 C835 0.950 . S
H830 C836 0.949 . S
C831 H826 0.950 . S
C831 C833 1.327 . S
C831 C837 1.429 . S
C832 C824 1.574 . S
C832 H827 0.949 . S
C832 C838 1.368 . S
C833 C817 1.349 . S
C833 H825 0.950 . S
C833 C831 1.327 . S
C834 C822 1.349 . S
C834 H828 0.950 . S
C834 C835 1.327 . S
C835 H829 0.950 . S
C835 C834 1.327 . S
C835 C839 1.429 . S
C836 C819 1.574 . S
C836 H830 0.949 . S
C836 C840 1.368 . S
C837 C818 1.429 . S
C837 C831 1.429 . S
C837 C838 1.523 . S
C838 C819 1.368 . S
C838 C832 1.368 . S
C838 C837 1.523 . S
C839 C823 1.429 . S
C839 C835 1.429 . S
C839 C840 1.523 . S
C840 C824 1.368 . S
C840 C836 1.368 . S
C840 C839 1.523 . S
H841 C816 0.950 . S
H842 C818 0.950 . S
H843 C819 0.949 . S
H844 C821 0.950 . S
H845 C823 0.950 . S
C846 C847 1.349 . S
C846 C848 1.327 . S
C846 H871 0.950 . S
C847 C846 1.349 . S
C847 C863 1.349 . S
C848 C846 1.327 . S
C848 C867 1.429 . S
C848 H872 0.950 . S
C849 C866 1.574 . S
C849 C868 1.368 . S
C849 H873 0.949 . S
H850 C854 0.949 . S
C851 C852 1.349 . S
C851 C853 1.327 . S
C851 H874 0.950 . S
C852 C851 1.349 . S
C852 C864 1.349 . S
C853 C851 1.327 . S
C853 C869 1.429 . S
C853 H875 0.950 . S
C854 H850 0.949 . S
C854 C862 1.574 . S
C854 C870 1.368 . S
H855 C863 0.950 . S
H856 C861 0.950 . S
H857 C862 0.949 . S
H858 C864 0.950 . S
H859 C865 0.950 . S
H860 C866 0.949 . S
C861 H856 0.950 . S
C861 C863 1.327 . S
C861 C867 1.429 . S
C862 C854 1.574 . S
C862 H857 0.949 . S
C862 C868 1.368 . S
C863 C847 1.349 . S
C863 H855 0.950 . S
C863 C861 1.327 . S
C864 C852 1.349 . S
C864 H858 0.950 . S
C864 C865 1.327 . S
C865 H859 0.950 . S
C865 C864 1.327 . S
C865 C869 1.429 . S
C866 C849 1.574 . S
C866 H860 0.949 . S
C866 C870 1.368 . S
C867 C848 1.429 . S
C867 C861 1.429 . S
C867 C868 1.523 . S
C868 C849 1.368 . S
C868 C862 1.368 . S
C868 C867 1.523 . S
C869 C853 1.429 . S
C869 C865 1.429 . S
C869 C870 1.523 . S
C870 C854 1.368 . S
C870 C866 1.368 . S
C870 C869 1.523 . S
H871 C846 0.950 . S
H872 C848 0.950 . S
H873 C849 0.949 . S
H874 C851 0.950 . S
H875 C853 0.950 . S
C876 C877 1.349 . S
C876 C878 1.327 . S
C876 H901 0.950 . S
C877 C876 1.349 . S
C877 C893 1.349 . S
C878 C876 1.327 . S
C878 C897 1.429 . S
C878 H902 0.950 . S
C879 C896 1.574 . S
C879 C898 1.368 . S
C879 H903 0.949 . S
H880 C884 0.949 . S
C881 C882 1.349 . S
C881 C883 1.327 . S
C881 H904 0.950 . S
C882 C881 1.349 . S
C882 C894 1.349 . S
C883 C881 1.327 . S
C883 C899 1.429 . S
C883 H905 0.950 . S
C884 H880 0.949 . S
C884 C892 1.574 . S
C884 C900 1.368 . S
H885 C893 0.950 . S
H886 C891 0.950 . S
H887 C892 0.949 . S
H888 C894 0.950 . S
H889 C895 0.950 . S
H890 C896 0.949 . S
C891 H886 0.950 . S
C891 C893 1.327 . S
C891 C897 1.429 . S
C892 C884 1.574 . S
C892 H887 0.949 . S
C892 C898 1.368 . S
C893 C877 1.349 . S
C893 H885 0.950 . S
C893 C891 1.327 . S
C894 C882 1.349 . S
C894 H888 0.950 . S
C894 C895 1.327 . S
C895 H889 0.950 . S
C895 C894 1.327 . S
C895 C899 1.429 . S
C896 C879 1.574 . S
C896 H890 0.949 . S
C896 C900 1.368 . S
C897 C878 1.429 . S
C897 C891 1.429 . S
C897 C898 1.523 . S
C898 C879 1.368 . S
C898 C892 1.368 . S
C898 C897 1.523 . S
C899 C883 1.429 . S
C899 C895 1.429 . S
C899 C900 1.523 . S
C900 C884 1.368 . S
C900 C896 1.368 . S
C900 C899 1.523 . S
H901 C876 0.950 . S
H902 C878 0.950 . S
H903 C879 0.949 . S
H904 C881 0.950 . S
H905 C883 0.950 . S
C906 C907 1.349 . S
C906 C908 1.327 . S
C906 H931 0.950 . S
C907 C906 1.349 . S
C907 C923 1.349 . S
C908 C906 1.327 . S
C908 C927 1.429 . S
C908 H932 0.950 . S
C909 C926 1.574 . S
C909 C928 1.368 . S
C909 H933 0.949 . S
H910 C914 0.949 . S
C911 C912 1.349 . S
C911 C913 1.327 . S
C911 H934 0.950 . S
C912 C911 1.349 . S
C912 C924 1.349 . S
C913 C911 1.327 . S
C913 C929 1.429 . S
C913 H935 0.950 . S
C914 H910 0.949 . S
C914 C922 1.574 . S
C914 C930 1.368 . S
H915 C923 0.950 . S
H916 C921 0.950 . S
H917 C922 0.949 . S
H918 C924 0.950 . S
H919 C925 0.950 . S
H920 C926 0.949 . S
C921 H916 0.950 . S
C921 C923 1.327 . S
C921 C927 1.429 . S
C922 C914 1.574 . S
C922 H917 0.949 . S
C922 C928 1.368 . S
C923 C907 1.349 . S
C923 H915 0.950 . S
C923 C921 1.327 . S
C924 C912 1.349 . S
C924 H918 0.950 . S
C924 C925 1.327 . S
C925 H919 0.950 . S
C925 C924 1.327 . S
C925 C929 1.429 . S
C926 C909 1.574 . S
C926 H920 0.949 . S
C926 C930 1.368 . S
C927 C908 1.429 . S
C927 C921 1.429 . S
C927 C928 1.523 . S
C928 C909 1.368 . S
C928 C922 1.368 . S
C928 C927 1.523 . S
C929 C913 1.429 . S
C929 C925 1.429 . S
C929 C930 1.523 . S
C930 C914 1.368 . S
C930 C926 1.368 . S
C930 C929 1.523 . S
H931 C906 0.950 . S
H932 C908 0.950 . S
H933 C909 0.949 . S
H934 C911 0.950 . S
H935 C913 0.950 . S
C936 C937 1.349 . S
C936 C938 1.327 . S
C936 H961 0.950 . S
C937 C936 1.349 . S
C937 C953 1.349 . S
C938 C936 1.327 . S
C938 C957 1.429 . S
C938 H962 0.950 . S
C939 C956 1.574 . S
C939 C958 1.368 . S
C939 H963 0.949 . S
H940 C944 0.949 . S
C941 C942 1.349 . S
C941 C943 1.327 . S
C941 H964 0.950 . S
C942 C941 1.349 . S
C942 C954 1.349 . S
C943 C941 1.327 . S
C943 C959 1.429 . S
C943 H965 0.950 . S
C944 H940 0.949 . S
C944 C952 1.574 . S
C944 C960 1.368 . S
H945 C953 0.950 . S
H946 C951 0.950 . S
H947 C952 0.949 . S
H948 C954 0.950 . S
H949 C955 0.950 . S
H950 C956 0.949 . S
C951 H946 0.950 . S
C951 C953 1.327 . S
C951 C957 1.429 . S
C952 C944 1.574 . S
C952 H947 0.949 . S
C952 C958 1.368 . S
C953 C937 1.349 . S
C953 H945 0.950 . S
C953 C951 1.327 . S
C954 C942 1.349 . S
C954 H948 0.950 . S
C954 C955 1.327 . S
C955 H949 0.950 . S
C955 C954 1.327 . S
C955 C959 1.429 . S
C956 C939 1.574 . S
C956 H950 0.949 . S
C956 C960 1.368 . S
C957 C938 1.429 . S
C957 C951 1.429 . S
C957 C958 1.523 . S
C958 C939 1.368 . S
C958 C952 1.368 . S
C958 C957 1.523 . S
C959 C943 1.429 . S
C959 C955 1.429 . S
C959 C960 1.523 . S
C960 C944 1.368 . S
C960 C956 1.368 . S
C960 C959 1.523 . S
H961 C936 0.950 . S
H962 C938 0.950 . S
H963 C939 0.949 . S
H964 C941 0.950 . S
H965 C943 0.950 . S
C966 C967 1.349 . S
C966 C968 1.327 . S
C966 H991 0.950 . S
C967 C966 1.349 . S
C967 C983 1.349 . S
C968 C966 1.327 . S
C968 C987 1.429 . S
C968 H992 0.950 . S
C969 C986 1.574 . S
C969 C988 1.368 . S
C969 H993 0.949 . S
H970 C974 0.949 . S
C971 C972 1.349 . S
C971 C973 1.327 . S
C971 H994 0.950 . S
C972 C971 1.349 . S
C972 C984 1.349 . S
C973 C971 1.327 . S
C973 C989 1.429 . S
C973 H995 0.950 . S
C974 H970 0.949 . S
C974 C982 1.574 . S
C974 C990 1.368 . S
H975 C983 0.950 . S
H976 C981 0.950 . S
H977 C982 0.949 . S
H978 C984 0.950 . S
H979 C985 0.950 . S
H980 C986 0.949 . S
C981 H976 0.950 . S
C981 C983 1.327 . S
C981 C987 1.429 . S
C982 C974 1.574 . S
C982 H977 0.949 . S
C982 C988 1.368 . S
C983 C967 1.349 . S
C983 H975 0.950 . S
C983 C981 1.327 . S
C984 C972 1.349 . S
C984 H978 0.950 . S
C984 C985 1.327 . S
C985 H979 0.950 . S
C985 C984 1.327 . S
C985 C989 1.429 . S
C986 C969 1.574 . S
C986 H980 0.949 . S
C986 C990 1.368 . S
C987 C968 1.429 . S
C987 C981 1.429 . S
C987 C988 1.523 . S
C988 C969 1.368 . S
C988 C982 1.368 . S
C988 C987 1.523 . S
C989 C973 1.429 . S
C989 C985 1.429 . S
C989 C990 1.523 . S
C990 C974 1.368 . S
C990 C986 1.368 . S
C990 C989 1.523 . S
H991 C966 0.950 . S
H992 C968 0.950 . S
H993 C969 0.949 . S
H994 C971 0.950 . S
H995 C973 0.950 . S
C277 C7 2.235 . S
C282 C145 2.210 . S
C307 C30 1.314 . S
C312 N163 1.303 . S
C342 C191 2.062 . S
C337 N58 2.034 . S
C372 N209 1.189 . S
C367 N81 1.162 . S
C402 C237 2.127 . S
C397 C99 2.152 . S
C432 N255 1.218 . S
C427 N127 1.190 . S
C457 N25 2.034 . S
C462 C200 2.076 . S
C487 C62 1.305 . S
C492 N219 1.245 . S
C522 C246 2.170 . S
C517 C85 2.162 . S
C552 N265 1.167 . S
C547 N94 1.195 . S
C577 C131 2.161 . S
C582 C154 2.159 . S
C612 N173 1.152 . S
C607 N2 1.179 . S
C642 C223 2.041 . S
C637 C16 2.078 . S
C667 C39 1.173 . S
C672 N242 1.160 . S
C702 C269 1.918 . S
C697 N48 1.924 . S
C727 N71 1.074 . S
C732 N150 1.081 . S
C757 C108 2.042 . S
C762 C177 2.004 . S
C787 N117 1.064 . S
C792 N196 1.074 . S
C817 N35 1.927 . S
C822 C260 1.954 . S
C852 N140 1.137 . S
C847 C53 1.196 . S
C877 C76 2.116 . S
C882 C168 2.103 . S
C907 N104 1.064 . S
C912 N186 1.035 . S
C937 C122 2.051 . S
C942 C214 2.037 . S
C967 N12 1.047 . S
C972 N232 1.021 . S
