# Generated by pormake.
# Topology ocu, (6,8)-cn, num edge types: 1
# Building blocks:
#     Node 0, Type 0, BuildingBlock: CUKXOW_clean_sbu_0, # of connection points: 6
#     Node 1, Type 0, BuildingBlock: CUKXOW_clean_sbu_0, # of connection points: 6
#     Node 2, Type 0, BuildingBlock: CUKXOW_clean_sbu_0, # of connection points: 6
#     Node 3, Type 0, BuildingBlock: CUKXOW_clean_sbu_0, # of connection points: 6
#     Node 4, Type 0, BuildingBlock: CUKXOW_clean_sbu_0, # of connection points: 6
#     Node 5, Type 0, BuildingBlock: CUKXOW_clean_sbu_0, # of connection points: 6
#     Node 6, Type 0, BuildingBlock: CUKXOW_clean_sbu_0, # of connection points: 6
#     Node 7, Type 0, BuildingBlock: CUKXOW_clean_sbu_0, # of connection points: 6
#     Node 8, Type 1, BuildingBlock: TAGTUT_clean_sbu_1, # of connection points: 8
#     Node 9, Type 1, BuildingBlock: TAGTUT_clean_sbu_1, # of connection points: 8
#     Node 10, Type 1, BuildingBlock: TAGTUT_clean_sbu_1, # of connection points: 8
#     Node 11, Type 1, BuildingBlock: TAGTUT_clean_sbu_1, # of connection points: 8
#     Node 12, Type 1, BuildingBlock: TAGTUT_clean_sbu_1, # of connection points: 8
#     Node 13, Type 1, BuildingBlock: TAGTUT_clean_sbu_1, # of connection points: 8
#     Edge 14, Type (0, 1), BuildingBlock: TEMPAE_clean_linker_10, # of connection points: 2
#     Edge 15, Type (0, 1), BuildingBlock: TEMPAE_clean_linker_10, # of connection points: 2
#     Edge 16, Type (0, 1), BuildingBlock: TEMPAE_clean_linker_10, # of connection points: 2
#     Edge 17, Type (0, 1), BuildingBlock: TEMPAE_clean_linker_10, # of connection points: 2
#     Edge 18, Type (0, 1), BuildingBlock: TEMPAE_clean_linker_10, # of connection points: 2
#     Edge 19, Type (0, 1), BuildingBlock: TEMPAE_clean_linker_10, # of connection points: 2
#     Edge 20, Type (0, 1), BuildingBlock: TEMPAE_clean_linker_10, # of connection points: 2
#     Edge 21, Type (0, 1), BuildingBlock: TEMPAE_clean_linker_10, # of connection points: 2
#     Edge 22, Type (0, 1), BuildingBlock: TEMPAE_clean_linker_10, # of connection points: 2
#     Edge 23, Type (0, 1), BuildingBlock: TEMPAE_clean_linker_10, # of connection points: 2
#     Edge 24, Type (0, 1), BuildingBlock: TEMPAE_clean_linker_10, # of connection points: 2
#     Edge 25, Type (0, 1), BuildingBlock: TEMPAE_clean_linker_10, # of connection points: 2
#     Edge 26, Type (0, 1), BuildingBlock: TEMPAE_clean_linker_10, # of connection points: 2
#     Edge 27, Type (0, 1), BuildingBlock: TEMPAE_clean_linker_10, # of connection points: 2
#     Edge 28, Type (0, 1), BuildingBlock: TEMPAE_clean_linker_10, # of connection points: 2
#     Edge 29, Type (0, 1), BuildingBlock: TEMPAE_clean_linker_10, # of connection points: 2
#     Edge 30, Type (0, 1), BuildingBlock: TEMPAE_clean_linker_10, # of connection points: 2
#     Edge 31, Type (0, 1), BuildingBlock: TEMPAE_clean_linker_10, # of connection points: 2
#     Edge 32, Type (0, 1), BuildingBlock: TEMPAE_clean_linker_10, # of connection points: 2
#     Edge 33, Type (0, 1), BuildingBlock: TEMPAE_clean_linker_10, # of connection points: 2
#     Edge 34, Type (0, 1), BuildingBlock: TEMPAE_clean_linker_10, # of connection points: 2
#     Edge 35, Type (0, 1), BuildingBlock: TEMPAE_clean_linker_10, # of connection points: 2
#     Edge 36, Type (0, 1), BuildingBlock: TEMPAE_clean_linker_10, # of connection points: 2
#     Edge 37, Type (0, 1), BuildingBlock: TEMPAE_clean_linker_10, # of connection points: 2
#     Edge 38, Type (0, 1), BuildingBlock: TEMPAE_clean_linker_10, # of connection points: 2
#     Edge 39, Type (0, 1), BuildingBlock: TEMPAE_clean_linker_10, # of connection points: 2
#     Edge 40, Type (0, 1), BuildingBlock: TEMPAE_clean_linker_10, # of connection points: 2
#     Edge 41, Type (0, 1), BuildingBlock: TEMPAE_clean_linker_10, # of connection points: 2
#     Edge 42, Type (0, 1), BuildingBlock: TEMPAE_clean_linker_10, # of connection points: 2
#     Edge 43, Type (0, 1), BuildingBlock: TEMPAE_clean_linker_10, # of connection points: 2
#     Edge 44, Type (0, 1), BuildingBlock: TEMPAE_clean_linker_10, # of connection points: 2
#     Edge 45, Type (0, 1), BuildingBlock: TEMPAE_clean_linker_10, # of connection points: 2
#     Edge 46, Type (0, 1), BuildingBlock: TEMPAE_clean_linker_10, # of connection points: 2
#     Edge 47, Type (0, 1), BuildingBlock: TEMPAE_clean_linker_10, # of connection points: 2
#     Edge 48, Type (0, 1), BuildingBlock: TEMPAE_clean_linker_10, # of connection points: 2
#     Edge 49, Type (0, 1), BuildingBlock: TEMPAE_clean_linker_10, # of connection points: 2
#     Edge 50, Type (0, 1), BuildingBlock: TEMPAE_clean_linker_10, # of connection points: 2
#     Edge 51, Type (0, 1), BuildingBlock: TEMPAE_clean_linker_10, # of connection points: 2
#     Edge 52, Type (0, 1), BuildingBlock: TEMPAE_clean_linker_10, # of connection points: 2
#     Edge 53, Type (0, 1), BuildingBlock: TEMPAE_clean_linker_10, # of connection points: 2
#     Edge 54, Type (0, 1), BuildingBlock: TEMPAE_clean_linker_10, # of connection points: 2
#     Edge 55, Type (0, 1), BuildingBlock: TEMPAE_clean_linker_10, # of connection points: 2
#     Edge 56, Type (0, 1), BuildingBlock: TEMPAE_clean_linker_10, # of connection points: 2
#     Edge 57, Type (0, 1), BuildingBlock: TEMPAE_clean_linker_10, # of connection points: 2
#     Edge 58, Type (0, 1), BuildingBlock: TEMPAE_clean_linker_10, # of connection points: 2
#     Edge 59, Type (0, 1), BuildingBlock: TEMPAE_clean_linker_10, # of connection points: 2
#     Edge 60, Type (0, 1), BuildingBlock: TEMPAE_clean_linker_10, # of connection points: 2
#     Edge 61, Type (0, 1), BuildingBlock: TEMPAE_clean_linker_10, # of connection points: 2
# Relax obj value: 0.096
# Max RMSD: 0.233
# Mean RMSD: 0.141
data_MOF--net-ocu--node1-CUKXOW_clean_sbu_0--node2-TAGTUT_clean_sbu_1--edge1-TEMPAE_clean_linker_10
_symmetry_space_group_name_H-M    P1
_symmetry_Int_Tables_number       1
_symmetry_cell_setting            triclinic
loop_
_symmetry_equiv_pos_as_xyz
'x, y, z'
_cell_length_a     37.537837
_cell_length_b     37.736395
_cell_length_c     39.908866
_cell_angle_alpha  92.420839
_cell_angle_beta   94.803863
_cell_angle_gamma 100.85177
loop_
_atom_site_label
_atom_site_type_symbol
_atom_site_fract_x
_atom_site_fract_y
_atom_site_fract_z
_atom_type_partial_charge
Tb0 Tb 0.25206 0.21089 0.2195 0.0
C1 C 0.30394 0.2843 0.20519 0.0
Tb2 Tb 0.25063 0.27796 0.26401 0.0
O3 O 0.23051 0.23336 0.17398 0.0
O4 O 0.2177 0.25 0.22113 0.0
O5 O 0.29869 0.2483 0.20224 0.0
C6 C 0.22738 0.3364 0.2831 0.0
O7 O 0.28514 0.30118 0.22533 0.0
C8 C 0.29627 0.23913 0.29312 0.0
C9 C 0.20135 0.20389 0.28114 0.0
O10 O 0.26131 0.33312 0.28628 0.0
O11 O 0.20704 0.30657 0.27045 0.0
O12 O 0.29018 0.26923 0.3066 0.0
O13 O 0.2775 0.23472 0.26506 0.0
O14 O 0.21022 0.23949 0.28807 0.0
O15 O 0.21466 0.18739 0.25619 0.0
C16 C 0.26817 0.14784 0.2046 0.0
O17 O 0.23696 0.15657 0.19546 0.0
O18 O 0.29035 0.17517 0.22008 0.0
C19 C 0.21543 0.25657 0.19003 0.0
Tb20 Tb 0.7232 0.23544 0.26802 0.0
C21 C 0.72886 0.18611 0.20557 0.0
Tb22 Tb 0.78234 0.25594 0.22792 0.0
O23 O 0.67708 0.25296 0.24144 0.0
O24 O 0.72754 0.26331 0.2219 0.0
O25 O 0.7182 0.18635 0.23619 0.0
C26 C 0.83669 0.28523 0.19397 0.0
O27 O 0.75012 0.21403 0.19444 0.0
C28 C 0.79569 0.21024 0.27399 0.0
C29 C 0.76711 0.31268 0.28064 0.0
O30 O 0.80477 0.26933 0.18054 0.0
O31 O 0.83784 0.28496 0.22641 0.0
O32 O 0.80404 0.20873 0.24331 0.0
O33 O 0.78051 0.23727 0.27806 0.0
O34 O 0.78029 0.30827 0.2515 0.0
O35 O 0.74826 0.28536 0.29481 0.0
C36 C 0.68608 0.20973 0.3177 0.0
O37 O 0.68296 0.23918 0.30337 0.0
O38 O 0.70942 0.19413 0.30362 0.0
C39 C 0.69482 0.26812 0.21775 0.0
Tb40 Tb 0.72745 0.76719 0.21686 0.0
C41 C 0.7026 0.68434 0.22233 0.0
Tb42 Tb 0.77056 0.72638 0.27021 0.0
O43 O 0.75391 0.7518 0.17207 0.0
O44 O 0.76861 0.73661 0.21881 0.0
O45 O 0.69181 0.71456 0.21366 0.0
C46 C 0.8127 0.68278 0.29205 0.0
O47 O 0.73319 0.68341 0.24108 0.0
C48 C 0.72107 0.75814 0.29789 0.0
C49 C 0.79537 0.80922 0.26536 0.0
O50 O 0.77979 0.68199 0.30012 0.0
O51 O 0.82274 0.70936 0.27315 0.0
O52 O 0.74208 0.73978 0.31451 0.0
O53 O 0.72933 0.75666 0.26797 0.0
O54 O 0.80595 0.77901 0.27419 0.0
O55 O 0.76483 0.81026 0.24652 0.0
C56 C 0.68647 0.81133 0.1938 0.0
O57 O 0.71956 0.81161 0.18649 0.0
O58 O 0.67564 0.78505 0.21283 0.0
C59 C 0.77516 0.73348 0.1884 0.0
Tb60 Tb 0.27486 0.77762 0.22364 0.0
C61 C 0.31086 0.75706 0.28916 0.0
Tb62 Tb 0.23279 0.71715 0.26042 0.0
O63 O 0.26987 0.81661 0.26468 0.0
O64 O 0.22881 0.77158 0.25254 0.0
O65 O 0.31683 0.76533 0.25826 0.0
C66 C 0.1837 0.69105 0.30061 0.0
O67 O 0.27784 0.74272 0.29708 0.0
C68 C 0.27603 0.68933 0.22142 0.0
C69 C 0.20352 0.73178 0.18698 0.0
O70 O 0.21817 0.70113 0.31 0.0
O71 O 0.17744 0.69341 0.26855 0.0
O72 O 0.25424 0.67017 0.24058 0.0
O73 O 0.27226 0.72168 0.22646 0.0
O74 O 0.19623 0.71552 0.21506 0.0
O75 O 0.23165 0.75825 0.18474 0.0
C76 C 0.32021 0.8134 0.18509 0.0
O77 O 0.29859 0.82829 0.20242 0.0
O78 O 0.31449 0.77912 0.18812 0.0
C79 C 0.23921 0.79872 0.27315 0.0
Tb80 Tb 0.22895 0.74147 0.7693 0.0
C81 C 0.22575 0.68296 0.71104 0.0
Tb82 Tb 0.28416 0.75119 0.72425 0.0
O83 O 0.18343 0.76112 0.74414 0.0
O84 O 0.23116 0.76376 0.72022 0.0
O85 O 0.21611 0.68964 0.74128 0.0
C86 C 0.33773 0.77343 0.68666 0.0
O87 O 0.24937 0.70619 0.69647 0.0
C88 C 0.29847 0.70967 0.77354 0.0
C89 C 0.27779 0.81618 0.77287 0.0
O90 O 0.30412 0.76121 0.67513 0.0
O91 O 0.34087 0.77308 0.71911 0.0
O92 O 0.30312 0.70391 0.74225 0.0
O93 O 0.28571 0.73853 0.77647 0.0
O94 O 0.28908 0.8065 0.74411 0.0
O95 O 0.25764 0.79294 0.79047 0.0
C96 C 0.19408 0.7192 0.82173 0.0
O97 O 0.19024 0.74756 0.80577 0.0
O98 O 0.21739 0.70329 0.80805 0.0
C99 C 0.19937 0.77136 0.71771 0.0
Tb100 Tb 0.2322 0.26352 0.71974 0.0
C101 C 0.19881 0.18256 0.72942 0.0
Tb102 Tb 0.27202 0.22081 0.76892 0.0
O103 O 0.27435 0.26379 0.68398 0.0
O104 O 0.26334 0.22244 0.71579 0.0
O105 O 0.19124 0.21475 0.72309 0.0
C106 C 0.32296 0.18373 0.78294 0.0
O107 O 0.22996 0.17851 0.74534 0.0
C108 C 0.22919 0.25636 0.80208 0.0
C109 C 0.29991 0.30246 0.76502 0.0
O110 O 0.28864 0.17218 0.78637 0.0
O111 O 0.32882 0.21682 0.77428 0.0
O112 O 0.2498 0.23595 0.81645 0.0
O113 O 0.23388 0.25436 0.77118 0.0
O114 O 0.31004 0.27089 0.76554 0.0
O115 O 0.26795 0.30582 0.75079 0.0
C116 C 0.18668 0.30244 0.69484 0.0
O117 O 0.21443 0.31439 0.71629 0.0
O118 O 0.18533 0.26874 0.68574 0.0
C119 C 0.2847 0.23484 0.6946 0.0
Tb120 Tb 0.75525 0.26771 0.71406 0.0
C121 C 0.80743 0.28896 0.78078 0.0
Tb122 Tb 0.75163 0.21556 0.77525 0.0
O123 O 0.71869 0.3026 0.73173 0.0
O124 O 0.72907 0.2596 0.75829 0.0
O125 O 0.80225 0.29288 0.74803 0.0
C126 C 0.72546 0.18576 0.82936 0.0
O127 O 0.78997 0.26202 0.79691 0.0
C128 C 0.79515 0.19875 0.73018 0.0
C129 C 0.69553 0.19817 0.70949 0.0
O130 O 0.74343 0.21853 0.8285 0.0
O131 O 0.7245 0.16948 0.79995 0.0
O132 O 0.79112 0.18281 0.75839 0.0
O133 O 0.77706 0.22369 0.73135 0.0
O134 O 0.70289 0.19308 0.74187 0.0
O135 O 0.71256 0.22493 0.69291 0.0
C136 C 0.78467 0.29407 0.66052 0.0
O137 O 0.78 0.26063 0.66798 0.0
O138 O 0.77045 0.31246 0.68227 0.0
C139 C 0.71297 0.28631 0.75957 0.0
Tb140 Tb 0.75384 0.7129 0.72109 0.0
C141 C 0.80764 0.78573 0.70759 0.0
Tb142 Tb 0.75528 0.7795 0.76697 0.0
O143 O 0.73194 0.73623 0.67626 0.0
O144 O 0.72109 0.75333 0.72395 0.0
O145 O 0.80012 0.74989 0.70294 0.0
C146 C 0.73869 0.8414 0.78613 0.0
O147 O 0.79098 0.80283 0.72939 0.0
C148 C 0.799 0.73839 0.79545 0.0
C149 C 0.70318 0.70654 0.78298 0.0
O150 O 0.77007 0.83256 0.79336 0.0
O151 O 0.71644 0.81479 0.76968 0.0
O152 O 0.7934 0.76846 0.80935 0.0
O153 O 0.78058 0.73487 0.76708 0.0
O154 O 0.71443 0.74178 0.7912 0.0
O155 O 0.71474 0.68991 0.75688 0.0
C156 C 0.77523 0.6529 0.70404 0.0
O157 O 0.74161 0.65742 0.69892 0.0
O158 O 0.79606 0.68239 0.71686 0.0
C159 C 0.71845 0.76025 0.69294 0.0
C160 C 0.91695 0.07936 0.54733 0.0
C161 C 0.93632 0.07805 0.44293 0.0
C162 C 0.94209 0.93386 0.45412 0.0
Mg163 Mg 0.98749 0.07942 0.50847 0.0
O164 O 0.97406 0.02917 0.51273 0.0
Mg165 Mg 0.92297 0.00664 0.49425 0.0
Mg166 Mg 0.00375 0.9942 0.49349 0.0
O167 O 0.03368 0.95946 0.47413 0.0
Mg168 Mg 0.02071 0.909 0.47602 0.0
Mg169 Mg 0.0846 0.98227 0.49276 0.0
C170 C 0.06564 0.05504 0.53136 0.0
C171 C 0.05853 0.03877 0.43956 0.0
O172 O 0.9025 0.04829 0.53222 0.0
O173 O 0.94941 0.09541 0.54259 0.0
O174 O 0.9194 0.04825 0.45293 0.0
O175 O 0.96691 0.09398 0.45822 0.0
O176 O 0.04554 0.07913 0.52647 0.0
O177 O 0.05426 0.02115 0.52392 0.0
C178 C 0.94807 0.9488 0.54625 0.0
O179 O 0.9807 0.95435 0.5366 0.0
O180 O 0.92429 0.96605 0.53406 0.0
O181 O 0.10608 0.94099 0.45564 0.0
O182 O 0.05922 0.89439 0.44173 0.0
O183 O 0.08741 0.94093 0.53539 0.0
C184 C 0.09208 0.9107 0.43905 0.0
O185 O 0.04173 0.89354 0.52572 0.0
O186 O 0.96264 0.90997 0.45812 0.0
C187 C 0.07072 0.90999 0.54342 0.0
O188 O 0.95317 0.96759 0.46262 0.0
O189 O 0.02658 0.03361 0.45059 0.0
O190 O 0.08313 0.02218 0.4513 0.0
C191 C 0.40052 0.05803 0.0422 0.0
C192 C 0.44185 0.07112 0.94404 0.0
C193 C 0.44414 0.93689 0.94284 0.0
Mg194 Mg 0.47615 0.07597 0.01552 0.0
O195 O 0.46636 0.02528 0.01246 0.0
Mg196 Mg 0.42059 -0.00207 0.98728 0.0
Mg197 Mg 0.49945 0.00012 0.9889 0.0
O198 O 0.53208 0.97284 0.96694 0.0
Mg199 Mg 0.52045 0.92204 0.97025 0.0
Mg200 Mg 0.57728 -0.00064 -0.00596 0.0
C201 C 0.55197 0.06022 0.0409 0.0
C202 C 0.54608 0.05095 0.94143 0.0
O203 O 0.39272 0.02844 0.0239 0.0
O204 O 0.43048 0.08078 0.04239 0.0
O205 O 0.42184 0.04153 0.95056 0.0
O206 O 0.46748 0.08896 0.96449 0.0
O207 O 0.52998 0.0823 0.04273 0.0
O208 O 0.54407 0.03114 0.02249 0.0
C209 C 0.45505 0.94486 0.03437 0.0
O210 O 0.48609 0.95903 0.02576 0.0
O211 O 0.42554 0.95459 0.02343 0.0
O212 O 0.60485 0.96394 0.96205 0.0
O213 O 0.56527 0.91248 0.94423 0.0
O214 O 0.57339 0.96045 0.03554 0.0
C215 C 0.59634 0.93365 0.94485 0.0
O216 O 0.53001 0.91151 0.02226 0.0
O217 O 0.46467 0.91331 0.94595 0.0
C218 C 0.55376 0.93117 0.04335 0.0
O219 O 0.45423 0.96929 0.955 0.0
O220 O 0.51446 0.04198 0.95159 0.0
O221 O 0.57377 0.0384 0.95315 0.0
C222 C 0.92081 0.58797 0.04827 0.0
C223 C 0.93372 0.57878 0.94111 0.0
C224 C 0.93899 0.43482 0.96428 0.0
Mg225 Mg 0.98793 0.58489 0.0063 0.0
O226 O 0.976 0.53543 0.01278 0.0
Mg227 Mg 0.9242 0.51233 -0.00164 0.0
Mg228 Mg 0.00405 0.49751 -0.00423 0.0
O229 O 0.0314 0.45961 0.97819 0.0
Mg230 Mg 0.01795 0.40955 0.98115 0.0
Mg231 Mg 0.08327 0.48192 0.99178 0.0
C232 C 0.06847 0.56113 0.02187 0.0
C233 C 0.04939 0.53154 0.93692 0.0
O234 O 0.90539 0.55727 0.03316 0.0
O235 O 0.9536 0.60288 0.04339 0.0
O236 O 0.91722 0.54915 0.95216 0.0
O237 O 0.96384 0.59591 0.95634 0.0
O238 O 0.04662 0.58362 0.01703 0.0
O239 O 0.05769 0.52659 0.02143 0.0
C240 C 0.95853 0.4651 0.05507 0.0
O241 O 0.98835 0.46756 0.04127 0.0
O242 O 0.93202 0.47923 0.04325 0.0
O243 O 0.10125 0.43718 0.95574 0.0
O244 O 0.05259 0.39235 0.94424 0.0
O245 O 0.08903 0.44295 0.03718 0.0
C246 C 0.08566 0.40685 0.94002 0.0
O247 O 0.04254 0.39586 0.02974 0.0
O248 O 0.95921 0.41066 0.96781 0.0
C249 C 0.07237 0.41222 0.04619 0.0
O250 O 0.9513 0.46883 0.96983 0.0
O251 O 0.0196 0.52806 0.95078 0.0
O252 O 0.07602 0.51695 0.94766 0.0
C253 C 0.42035 0.57856 0.05141 0.0
C254 C 0.44069 0.58312 0.94695 0.0
C255 C 0.44177 0.43762 0.95347 0.0
Mg256 Mg 0.49111 0.58078 0.01344 0.0
O257 O 0.47644 0.53035 0.01392 0.0
Mg258 Mg 0.42519 0.50939 -0.00542 0.0
Mg259 Mg 0.50499 0.49472 -0.00562 0.0
O260 O 0.5331 0.45861 0.97506 0.0
Mg261 Mg 0.51723 0.40853 0.97679 0.0
Mg262 Mg 0.5843 0.47875 -0.00581 0.0
C263 C 0.56833 0.55279 0.03375 0.0
C264 C 0.56211 0.5371 0.94073 0.0
O265 O 0.40497 0.55018 0.03261 0.0
O266 O 0.45389 0.59356 0.04992 0.0
O267 O 0.42402 0.55213 0.95453 0.0
O268 O 0.47006 0.59905 0.96445 0.0
O269 O 0.54897 0.57772 0.03019 0.0
O270 O 0.55582 0.51926 0.02553 0.0
C271 C 0.4471 0.44937 0.04572 0.0
O272 O 0.47996 0.45456 0.03665 0.0
O273 O 0.42405 0.46738 0.03344 0.0
O274 O 0.60353 0.43543 0.95697 0.0
O275 O 0.55374 0.39259 0.94175 0.0
O276 O 0.58469 0.4377 0.03666 0.0
C277 C 0.5874 0.40631 0.9394 0.0
O278 O 0.53797 0.39138 0.02598 0.0
O279 O 0.4604 0.41223 0.95753 0.0
C280 C 0.56696 0.40706 0.04416 0.0
O281 O 0.4544 0.4708 0.96256 0.0
O282 O 0.53024 0.53433 0.95183 0.0
O283 O 0.58485 0.5185 0.95275 0.0
C284 C 0.89634 0.55824 0.53408 0.0
C285 C 0.94363 0.56235 0.43654 0.0
C286 C 0.94676 0.42864 0.44907 0.0
Mg287 Mg 0.97321 0.57408 0.51029 0.0
O288 O 0.964 0.52324 0.51301 0.0
Mg289 Mg 0.92012 0.49405 0.48629 0.0
Mg290 Mg 0.99824 0.49647 0.49328 0.0
O291 O 0.03281 0.46974 0.47376 0.0
Mg292 Mg 0.02405 0.41966 0.47995 0.0
Mg293 Mg 0.07737 0.50049 0.49837 0.0
C294 C 0.05017 0.56328 0.5386 0.0
C295 C 0.04304 0.54647 0.44361 0.0
O296 O 0.88962 0.5278 0.51716 0.0
O297 O 0.92655 0.58082 0.53503 0.0
O298 O 0.92442 0.53275 0.44414 0.0
O299 O 0.96563 0.5831 0.45817 0.0
O300 O 0.02845 0.58574 0.5358 0.0
O301 O 0.04158 0.53101 0.52602 0.0
C302 C 0.95155 0.4453 0.54078 0.0
O303 O 0.98361 0.45702 0.53268 0.0
O304 O 0.92321 0.45534 0.52718 0.0
O305 O 0.10707 0.46598 0.46803 0.0
O306 O 0.07067 0.41127 0.45556 0.0
O307 O 0.07794 0.46375 0.54035 0.0
C308 C 0.10042 0.43401 0.45402 0.0
O309 O 0.03412 0.41427 0.53296 0.0
O310 O 0.96877 0.40671 0.45423 0.0
C311 C 0.05975 0.43531 0.55103 0.0
O312 O 0.9552 0.46176 0.45973 0.0
O313 O 0.01192 0.53559 0.45393 0.0
O314 O 0.07202 0.53684 0.45599 0.0
C315 C 0.41836 0.08576 0.54621 0.0
C316 C 0.42869 0.07773 0.43949 0.0
C317 C 0.43833 0.92903 0.46497 0.0
Mg318 Mg 0.48438 0.0808 0.50344 0.0
O319 O 0.46892 0.0311 0.5074 0.0
Mg320 Mg 0.41687 0.0095 0.49554 0.0
Mg321 Mg 0.49425 0.99181 0.49106 0.0
O322 O 0.52175 0.95127 0.47564 0.0
Mg323 Mg 0.50891 0.90159 0.48512 0.0
Mg324 Mg 0.57383 0.97471 0.48897 0.0
C325 C 0.56137 0.05309 0.52278 0.0
C326 C 0.54016 0.02358 0.43254 0.0
O327 O 0.40149 0.05557 0.53117 0.0
O328 O 0.45137 0.09947 0.54113 0.0
O329 O 0.4111 0.04849 0.45051 0.0
O330 O 0.45982 0.09346 0.454 0.0
O331 O 0.54257 0.07827 0.51835 0.0
O332 O 0.54786 0.01937 0.51699 0.0
C333 C 0.45043 0.96268 0.55259 0.0
O334 O 0.4799 0.96559 0.53843 0.0
O335 O 0.42335 0.97569 0.5405 0.0
O336 O 0.58983 0.92835 0.45442 0.0
O337 O 0.53977 0.88444 0.44416 0.0
O338 O 0.58337 0.93925 0.53665 0.0
C339 C 0.57287 0.89834 0.43899 0.0
O340 O 0.5393 0.89042 0.53153 0.0
O341 O 0.45537 0.91791 0.49025 0.0
C342 C 0.56885 0.90839 0.54689 0.0
O343 O 0.43905 0.96325 0.46318 0.0
O344 O 0.51017 0.02039 0.44583 0.0
O345 O 0.56638 0.0087 0.44376 0.0
C346 C 0.19127 0.15625 0.32358 0.0
C347 C 0.17729 0.18098 0.30341 0.0
C348 C 0.16942 0.13447 0.34507 0.0
C349 C 0.13197 0.13625 0.34583 0.0
C350 C 0.11759 0.1608 0.3249 0.0
C351 C 0.14046 0.18321 0.30451 0.0
C352 C 0.18665 0.10973 0.36728 0.0
C353 C 0.07781 0.16305 0.32372 0.0
C354 C 0.07254 0.05343 0.38049 0.0
C355 C 0.06944 0.06549 0.41372 0.0
C356 C 0.09112 0.07651 0.35776 0.0
C357 C 0.10821 0.11255 0.36855 0.0
C358 C 0.1043 0.12507 0.40191 0.0
C359 C 0.08506 0.10154 0.42392 0.0
C360 C 0.09375 0.0617 0.32254 0.0
C361 C 0.12228 0.1628 0.41509 0.0
H362 H 0.2197 0.15439 0.32298 0.0
H363 H 0.12931 0.202 0.28882 0.0
H364 H 0.18267 0.11575 0.39402 0.0
H365 H 0.17326 0.08122 0.36069 0.0
H366 H 0.21631 0.11246 0.36488 0.0
H367 H 0.07039 0.1825 0.30549 0.0
H368 H 0.06075 0.136 0.31655 0.0
H369 H 0.07107 0.1714 0.34903 0.0
H370 H 0.06158 0.02537 0.37261 0.0
H371 H 0.08395 0.11082 0.44983 0.0
H372 H 0.12222 0.05888 0.3196 0.0
H373 H 0.0864 0.08065 0.3038 0.0
H374 H 0.07572 0.03485 0.3167 0.0
H375 H 0.15232 0.16562 0.41594 0.0
H376 H 0.11502 0.16933 0.44075 0.0
H377 H 0.11436 0.18296 0.39795 0.0
C378 C 0.8285 0.208 0.33204 0.0
C379 C 0.8133 0.19083 0.30081 0.0
C380 C 0.84931 0.19065 0.35519 0.0
C381 C 0.85448 0.1549 0.34743 0.0
C382 C 0.8381 0.13722 0.3163 0.0
C383 C 0.81831 0.15548 0.29338 0.0
C384 C 0.86634 0.21087 0.38776 0.0
C385 C 0.84178 0.09898 0.30695 0.0
C386 C 0.934 0.11921 0.3939 0.0
C387 C 0.91625 0.09711 0.41732 0.0
C388 C 0.91434 0.13778 0.37084 0.0
C389 C 0.87617 0.13555 0.37195 0.0
C390 C 0.8584 0.11375 0.396 0.0
C391 C 0.87839 0.09453 0.4178 0.0
C392 C 0.93443 0.15966 0.34509 0.0
C393 C 0.81814 0.1109 0.39897 0.0
H394 H 0.82533 0.2355 0.33783 0.0
H395 H 0.80677 0.14203 0.26928 0.0
H396 H 0.85654 0.19563 0.40945 0.0
H397 H 0.89636 0.21327 0.38936 0.0
H398 H 0.86003 0.23843 0.39016 0.0
H399 H 0.82702 0.08875 0.2821 0.0
H400 H 0.87097 0.09761 0.30618 0.0
H401 H 0.83098 0.08069 0.32633 0.0
H402 H 0.96315 0.12153 0.39325 0.0
H403 H 0.86434 0.07813 0.43612 0.0
H404 H 0.93177 0.18835 0.34844 0.0
H405 H 0.92214 0.14972 0.31935 0.0
H406 H 0.96383 0.15827 0.34692 0.0
H407 H 0.81202 0.1382 0.40389 0.0
H408 H 0.80845 0.09365 0.41952 0.0
H409 H 0.80241 0.09947 0.37492 0.0
C410 C 0.84971 0.8536 0.28939 0.0
C411 C 0.81201 0.84204 0.28553 0.0
C412 C 0.86588 0.87826 0.31599 0.0
C413 C 0.84372 0.88912 0.34005 0.0
C414 C 0.80543 0.88031 0.33411 0.0
C415 C 0.78997 0.85729 0.30631 0.0
C416 C 0.90684 0.88938 0.32041 0.0
C417 C 0.78072 0.89079 0.35917 0.0
C418 C 0.8931 0.88674 0.42515 0.0
C419 C 0.90809 0.92337 0.4321 0.0
C420 C 0.8692 0.87545 0.39639 0.0
C421 C 0.86059 0.90157 0.37418 0.0
C422 C 0.8721 0.93879 0.38319 0.0
C423 C 0.89556 0.94933 0.41244 0.0
C424 C 0.85618 0.83539 0.38816 0.0
C425 C 0.86318 0.96747 0.3604 0.0
H426 H 0.86651 0.8419 0.27288 0.0
H427 H 0.76072 0.84811 0.30315 0.0
H428 H 0.91509 0.91817 0.32964 0.0
H429 H 0.9181 0.87277 0.33939 0.0
H430 H 0.91909 0.88547 0.29646 0.0
H431 H 0.75357 0.89219 0.34648 0.0
H432 H 0.77675 0.86992 0.37801 0.0
H433 H 0.7924 0.91715 0.37283 0.0
H434 H 0.90223 0.86671 0.44073 0.0
H435 H 0.90682 0.97782 0.41788 0.0
H436 H 0.87112 0.82646 0.36751 0.0
H437 H 0.82671 0.8294 0.37939 0.0
H438 H 0.8608 0.81923 0.41018 0.0
H439 H 0.88358 0.97206 0.34167 0.0
H440 H 0.86431 0.99352 0.3749 0.0
H441 H 0.83587 0.95921 0.34639 0.0
C442 C 0.23374 0.84149 0.32175 0.0
C443 C 0.21752 0.81212 0.29927 0.0
C444 C 0.21376 0.85623 0.34544 0.0
C445 C 0.17617 0.84178 0.34671 0.0
C446 C 0.15981 0.81148 0.32456 0.0
C447 C 0.18065 0.79694 0.30134 0.0
C448 C 0.23295 0.8877 0.36893 0.0
C449 C 0.11997 0.79495 0.32472 0.0
C450 C 0.12987 0.86424 0.42552 0.0
C451 C 0.11435 0.89377 0.4159 0.0
C452 C 0.14994 0.84712 0.40346 0.0
C453 C 0.15405 0.85916 0.37048 0.0
C454 C 0.1379 0.88875 0.36061 0.0
C455 C 0.11861 0.90581 0.38344 0.0
C456 C 0.16701 0.81627 0.41559 0.0
C457 C 0.1408 0.90232 0.32574 0.0
H458 H 0.26227 0.85323 0.3207 0.0
H459 H 0.16781 0.77417 0.28425 0.0
H460 H 0.22121 0.91196 0.36357 0.0
H461 H 0.22877 0.8816 0.39543 0.0
H462 H 0.2627 0.89429 0.36643 0.0
H463 H 0.11176 0.77029 0.30753 0.0
H464 H 0.11366 0.7878 0.35053 0.0
H465 H 0.10322 0.81499 0.31686 0.0
H466 H 0.12646 0.85464 0.45049 0.0
H467 H 0.10632 0.92831 0.3757 0.0
H468 H 0.19689 0.82277 0.41401 0.0
H469 H 0.15618 0.79149 0.39915 0.0
H470 H 0.16181 0.81036 0.44197 0.0
H471 H 0.16981 0.91221 0.32181 0.0
H472 H 0.12568 0.9246 0.32139 0.0
H473 H 0.12996 0.87987 0.30658 0.0
C474 C 0.1941 0.79622 0.65903 0.0
C475 C 0.18289 0.79287 0.69165 0.0
C476 C 0.17646 0.81537 0.6348 0.0
C477 C 0.14739 0.83245 0.64342 0.0
C478 C 0.13683 0.82983 0.67665 0.0
C479 C 0.15422 0.80992 0.69993 0.0
C480 C 0.18854 0.81683 0.59972 0.0
C481 C 0.1069 0.84806 0.68776 0.0
C482 C 0.12023 0.90856 0.59083 0.0
C483 C 0.08847 0.89091 0.57102 0.0
C484 C 0.13959 0.89006 0.61412 0.0
C485 C 0.12747 0.85257 0.61793 0.0
C486 C 0.0952 0.8347 0.59837 0.0
C487 C 0.07619 0.85392 0.57546 0.0
C488 C 0.17326 0.91075 0.6346 0.0
C489 C 0.0809 0.79493 0.60132 0.0
H490 H 0.21606 0.78318 0.65219 0.0
H491 H 0.14536 0.80793 0.72506 0.0
H492 H 0.16529 0.80474 0.58116 0.0
H493 H 0.19746 0.84535 0.59361 0.0
H494 H 0.21126 0.80221 0.59672 0.0
H495 H 0.1028 0.8448 0.71479 0.0
H496 H 0.11341 0.87736 0.68356 0.0
H497 H 0.08089 0.83665 0.67249 0.0
H498 H 0.13038 0.93699 0.58786 0.0
H499 H 0.05205 0.83959 0.56035 0.0
H500 H 0.19723 0.89899 0.62908 0.0
H501 H 0.17017 0.90842 0.66187 0.0
H502 H 0.17888 0.93986 0.62935 0.0
H503 H 0.10218 0.77928 0.59577 0.0
H504 H 0.05609 0.78458 0.58391 0.0
H505 H 0.0743 0.78986 0.62748 0.0
C506 C 0.14345 0.15026 0.69465 0.0
C507 C 0.17946 0.15176 0.7075 0.0
C508 C 0.12899 0.12818 0.66584 0.0
C509 C 0.15197 0.10907 0.64886 0.0
C510 C 0.18755 0.10867 0.66305 0.0
C511 C 0.2004 0.12912 0.69293 0.0
C512 C 0.09005 0.12744 0.65227 0.0
C513 C 0.21384 0.09039 0.64526 0.0
C514 C 0.10283 0.0419 0.581 0.0
C515 C 0.09798 0.06515 0.55521 0.0
C516 C 0.12267 0.0553 0.61144 0.0
C517 C 0.13939 0.09216 0.61507 0.0
C518 C 0.13955 0.11412 0.58716 0.0
C519 C 0.11788 0.10052 0.55755 0.0
C520 C 0.12209 0.03117 0.64073 0.0
C521 C 0.1598 0.15283 0.58957 0.0
H522 H 0.12735 0.16775 0.70599 0.0
H523 H 0.22846 0.13028 0.70265 0.0
H524 H 0.08966 0.14431 0.6302 0.0
H525 H 0.07618 0.09948 0.64379 0.0
H526 H 0.07429 0.13811 0.67141 0.0
H527 H 0.23269 0.08017 0.66377 0.0
H528 H 0.20002 0.06768 0.62746 0.0
H529 H 0.23063 0.11064 0.63077 0.0
H530 H 0.08754 0.01436 0.57907 0.0
H531 H 0.11449 0.11819 0.53726 0.0
H532 H 0.10495 0.04013 0.65955 0.0
H533 H 0.14987 0.03322 0.65344 0.0
H534 H 0.1109 0.00237 0.63279 0.0
H535 H 0.14422 0.17008 0.60325 0.0
H536 H 0.16352 0.16337 0.56427 0.0
H537 H 0.18694 0.15527 0.60382 0.0
C538 C 0.84433 0.17046 0.70746 0.0
C539 C 0.81288 0.18511 0.70119 0.0
C540 C 0.85987 0.15394 0.68133 0.0
C541 C 0.84331 0.15108 0.64775 0.0
C542 C 0.81128 0.16566 0.64127 0.0
C543 C 0.7965 0.18236 0.66796 0.0
C544 C 0.89391 0.13905 0.68984 0.0
C545 C 0.79217 0.16305 0.60622 0.0
C546 C 0.90534 0.13527 0.57875 0.0
C547 C 0.896 0.09766 0.5713 0.0
C548 C 0.88744 0.15302 0.60227 0.0
C549 C 0.85977 0.13288 0.61978 0.0
C550 C 0.84968 0.095 0.61194 0.0
C551 C 0.86755 0.078 0.58771 0.0
C552 C 0.89875 0.19344 0.60888 0.0
C553 C 0.8206 0.07215 0.62989 0.0
H554 H 0.8568 0.17174 0.7331 0.0
H555 H 0.77119 0.19183 0.663 0.0
H556 H 0.88859 0.1096 0.68303 0.0
H557 H 0.91594 0.15195 0.67492 0.0
H558 H 0.90372 0.14357 0.717 0.0
H559 H 0.768 0.17617 0.60509 0.0
H560 H 0.81128 0.17593 0.58854 0.0
H561 H 0.78318 0.13426 0.59729 0.0
H562 H 0.92687 0.15106 0.56611 0.0
H563 H 0.85995 0.04903 0.58239 0.0
H564 H 0.91143 0.19965 0.63511 0.0
H565 H 0.87454 0.2064 0.60631 0.0
H566 H 0.9185 0.20574 0.59144 0.0
H567 H 0.82942 0.07332 0.65722 0.0
H568 H 0.81471 0.04343 0.62016 0.0
H569 H 0.79505 0.08292 0.62714 0.0
C570 C 0.83963 0.846 0.68878 0.0
C571 C 0.83434 0.80798 0.68667 0.0
C572 C 0.86255 0.86742 0.66791 0.0
C573 C 0.88121 0.85087 0.64402 0.0
C574 C 0.87712 0.81259 0.64262 0.0
C575 C 0.85378 0.79173 0.66368 0.0
C576 C 0.86557 0.90792 0.67054 0.0
C577 C 0.8965 0.79349 0.61797 0.0
C578 C 0.89782 0.90224 0.56429 0.0
C579 C 0.93444 0.92021 0.56991 0.0
C580 C 0.88095 0.87908 0.58753 0.0
C581 C 0.90083 0.87316 0.61785 0.0
C582 C 0.93836 0.89 0.62328 0.0
C583 C 0.95477 0.91321 0.59925 0.0
C584 C 0.84117 0.86194 0.58002 0.0
C585 C 0.96085 0.88465 0.65508 0.0
H586 H 0.82505 0.85923 0.70629 0.0
H587 H 0.85033 0.76254 0.66168 0.0
H588 H 0.89461 0.92162 0.67314 0.0
H589 H 0.85261 0.91674 0.64713 0.0
H590 H 0.85221 0.91704 0.69226 0.0
H591 H 0.89399 0.76429 0.62239 0.0
H592 H 0.88485 0.79613 0.59192 0.0
H593 H 0.92582 0.80617 0.61969 0.0
H594 H 0.88174 0.90697 0.54164 0.0
H595 H 0.9829 0.927 0.60417 0.0
H596 H 0.82508 0.87201 0.59916 0.0
H597 H 0.83739 0.83219 0.58145 0.0
H598 H 0.82988 0.86788 0.5547 0.0
H599 H 0.95168 0.89882 0.67673 0.0
H600 H 0.99034 0.89533 0.65376 0.0
H601 H 0.95696 0.85555 0.66014 0.0
C602 C 0.31598 0.1121 0.20315 0.0
C603 C 0.28038 0.11572 0.19268 0.0
C604 C 0.33476 0.09301 0.18247 0.0
C605 C 0.31671 0.07698 0.15154 0.0
C606 C 0.27875 0.0744 0.14459 0.0
C607 C 0.26074 0.0943 0.16544 0.0
C608 C 0.37504 0.09502 0.19114 0.0
C609 C 0.25859 0.05548 0.11256 0.0
C610 C 0.36932 0.09644 0.07626 0.0
C611 C 0.37721 0.0626 0.06852 0.0
C612 C 0.3494 0.10137 0.10346 0.0
C613 C 0.3384 0.07182 0.12357 0.0
C614 C 0.34753 0.03795 0.11643 0.0
C615 C 0.36627 0.0335 0.08835 0.0
C616 C 0.34036 0.13817 0.11071 0.0
C617 C 0.33796 0.00638 0.13814 0.0
H618 H 0.33058 0.1278 0.22519 0.0
H619 H 0.23278 0.09643 0.15812 0.0
H620 H 0.3833 0.06947 0.18313 0.0
H621 H 0.39052 0.11716 0.17765 0.0
H622 H 0.38279 0.10076 0.21859 0.0
H623 H 0.22865 0.04997 0.11402 0.0
H624 H 0.26476 0.07284 0.09119 0.0
H625 H 0.26753 0.02959 0.10714 0.0
H626 H 0.37861 0.11886 0.06099 0.0
H627 H 0.37362 0.00757 0.08268 0.0
H628 H 0.35196 0.14884 0.13645 0.0
H629 H 0.31038 0.13596 0.10967 0.0
H630 H 0.35111 0.15806 0.09251 0.0
H631 H 0.33355 0.01478 0.16419 0.0
H632 H 0.36 0.99047 0.13953 0.0
H633 H 0.31267 0.98842 0.12658 0.0
C634 C 0.85761 0.30962 0.14134 0.0
C635 C 0.86441 0.30656 0.17591 0.0
C636 C 0.88007 0.33558 0.12484 0.0
C637 C 0.90988 0.35852 0.14364 0.0
C638 C 0.9184 0.35368 0.17804 0.0
C639 C 0.89538 0.32749 0.19391 0.0
C640 C 0.87019 0.34026 0.08799 0.0
C641 C 0.95002 0.37787 0.19857 0.0
C642 C 0.97023 0.41301 0.08692 0.0
C643 C 0.95283 0.44254 0.08363 0.0
C644 C 0.9585 0.38634 0.10889 0.0
C645 C 0.92918 0.38997 0.12788 0.0
C646 C 0.91427 0.42169 0.12731 0.0
C647 C 0.9263 0.44771 0.10496 0.0
C648 C 0.97485 0.35274 0.1091 0.0
C649 C 0.88314 0.42656 0.14764 0.0
H650 H 0.8336 0.29318 0.12758 0.0
H651 H 0.90049 0.32483 0.22075 0.0
H652 H 0.86053 0.36613 0.08525 0.0
H653 H 0.8944 0.3415 0.07364 0.0
H654 H 0.84835 0.31797 0.07648 0.0
H655 H 0.95574 0.36747 0.22369 0.0
H656 H 0.97497 0.38072 0.18507 0.0
H657 H 0.94376 0.40527 0.20233 0.0
H658 H 0.99092 0.40922 0.07047 0.0
H659 H 0.91343 0.47106 0.10277 0.0
H660 H 0.95611 0.33057 0.09378 0.0
H661 H 0.97854 0.3437 0.13503 0.0
H662 H 1.00152 0.35717 0.09835 0.0
H663 H 0.85763 0.40898 0.13603 0.0
H664 H 0.87897 0.45495 0.14856 0.0
H665 H 0.88795 0.41849 0.17378 0.0
C666 C 0.63564 0.84384 0.19965 0.0
C667 C 0.66487 0.83734 0.18231 0.0
C668 C 0.61316 0.86672 0.18688 0.0
C669 C 0.61953 0.88165 0.15558 0.0
C670 C 0.65093 0.8774 0.13957 0.0
C671 C 0.67354 0.85551 0.15351 0.0
C672 C 0.58172 0.87335 0.20587 0.0
C673 C 0.6592 0.89351 0.10634 0.0
C674 C 0.55085 0.88332 0.08418 0.0
C675 C 0.56013 0.91976 0.07755 0.0
C676 C 0.56616 0.87071 0.11331 0.0
C677 C 0.59074 0.8955 0.136 0.0
C678 C 0.5947 0.93303 0.13231 0.0
C679 C 0.57944 0.94483 0.10274 0.0
C680 C 0.56071 0.83038 0.11672 0.0
C681 C 0.61898 0.9605 0.15692 0.0
H682 H 0.63006 0.83066 0.2228 0.0
H683 H 0.69683 0.85092 0.14076 0.0
H684 H 0.57763 0.90157 0.20376 0.0
H685 H 0.5563 0.85513 0.19501 0.0
H686 H 0.58613 0.86808 0.23294 0.0
H687 H 0.68527 0.88815 0.09792 0.0
H688 H 0.637 0.88206 0.08653 0.0
H689 H 0.6609 0.92316 0.10847 0.0
H690 H 0.53477 0.86416 0.06516 0.0
H691 H 0.58507 0.97343 0.09832 0.0
H692 H 0.55663 0.82363 0.14304 0.0
H693 H 0.5854 0.82062 0.10982 0.0
H694 H 0.53693 0.81553 0.10004 0.0
H695 H 0.60777 0.98566 0.15902 0.0
H696 H 0.64627 0.96786 0.14756 0.0
H697 H 0.62236 0.94999 0.1823 0.0
C698 C 0.15197 0.69659 0.14908 0.0
C699 C 0.18909 0.71067 0.1559 0.0
C700 C 0.13983 0.66998 0.12294 0.0
C701 C 0.1658 0.65619 0.10486 0.0
C702 C 0.20325 0.67024 0.11213 0.0
C703 C 0.21441 0.69797 0.13707 0.0
C704 C 0.09942 0.65587 0.11537 0.0
C705 C 0.23165 0.65457 0.09521 0.0
C706 C 0.12004 0.56601 0.06488 0.0
C707 C 0.1058 0.57729 0.03453 0.0
C708 C 0.14391 0.59089 0.08721 0.0
C709 C 0.15332 0.62716 0.0783 0.0
C710 C 0.14431 0.6365 0.04517 0.0
C711 C 0.12073 0.61104 0.02334 0.0
C712 C 0.15454 0.57955 0.12188 0.0
C713 C 0.15471 0.67468 0.03445 0.0
H714 H 0.13272 0.70584 0.16453 0.0
H715 H 0.24334 0.70789 0.1436 0.0
H716 H 0.09127 0.65767 0.0882 0.0
H717 H 0.09279 0.62697 0.12103 0.0
H718 H 0.08294 0.67107 0.13033 0.0
H719 H 0.2595 0.66997 0.10309 0.0
H720 H 0.23023 0.62616 0.102 0.0
H721 H 0.22659 0.65428 0.06742 0.0
H722 H 0.10876 0.5396 0.07324 0.0
H723 H 0.11007 0.61921 -0.00065 0.0
H724 H 0.13514 0.5864 0.13948 0.0
H725 H 0.18225 0.59388 0.13169 0.0
H726 H 0.15359 0.54994 0.1218 0.0
H727 H 0.13704 0.6916 0.04567 0.0
H728 H 0.15123 0.67588 0.00662 0.0
H729 H 0.18333 0.68666 0.04355 0.0
C730 C 0.32887 0.86754 0.78524 0.0
C731 C 0.29261 0.85203 0.78863 0.0
C732 C 0.3484 0.89242 0.81013 0.0
C733 C 0.33058 0.90185 0.83816 0.0
C734 C 0.29241 0.89184 0.83781 0.0
C735 C 0.27368 0.86638 0.81299 0.0
C736 C 0.38911 0.90355 0.80923 0.0
C737 C 0.27228 0.90342 0.86622 0.0
C738 C 0.39166 0.89261 0.91494 0.0
C739 C 0.40968 0.92834 0.92153 0.0
C740 C 0.36285 0.88402 0.88967 0.0
C741 C 0.35266 0.91199 0.87048 0.0
C742 C 0.36846 0.94844 0.87926 0.0
C743 C 0.39692 0.9562 0.90483 0.0
C744 C 0.34559 0.8447 0.88167 0.0
C745 C 0.35806 0.97907 0.85987 0.0
H746 H 0.34323 0.85685 0.76586 0.0
H747 H 0.24515 0.85507 0.8147 0.0
H748 H 0.39851 0.93238 0.81779 0.0
H749 H 0.40308 0.88715 0.82655 0.0
H750 H 0.39753 0.89928 0.78356 0.0
H751 H 0.24333 0.9032 0.85752 0.0
H752 H 0.27281 0.88424 0.88649 0.0
H753 H 0.28515 0.93084 0.87708 0.0
H754 H 0.40115 0.87128 0.92841 0.0
H755 H 0.41092 0.98398 0.90982 0.0
H756 H 0.3534 0.83557 0.85699 0.0
H757 H 0.31547 0.84107 0.87979 0.0
H758 H 0.35422 0.82696 0.90105 0.0
H759 H 0.37561 0.98427 0.83888 0.0
H760 H 0.36244 0.0044 0.8762 0.0
H761 H 0.32926 0.97269 0.84897 0.0
C762 C 0.20641 0.27891 0.85507 0.0
C763 C 0.20795 0.2802 0.82007 0.0
C764 C 0.18701 0.30089 0.87307 0.0
C765 C 0.16853 0.32537 0.856 0.0
C766 C 0.17024 0.32712 0.82061 0.0
C767 C 0.18976 0.30456 0.80314 0.0
C768 C 0.186 0.29759 0.91055 0.0
C769 C 0.15152 0.35295 0.8012 0.0
C770 C 0.09006 0.35399 0.89999 0.0
C771 C 0.10654 0.38735 0.91683 0.0
C772 C 0.10945 0.33434 0.87946 0.0
C773 C 0.14661 0.348 0.87524 0.0
C774 C 0.16318 0.38215 0.89131 0.0
C775 C 0.14313 0.40124 0.91183 0.0
C776 C 0.09026 0.29835 0.86287 0.0
C777 C 0.20246 0.39826 0.88742 0.0
H778 H 0.22037 0.26039 0.86855 0.0
H779 H 0.19077 0.30603 0.77622 0.0
H780 H 0.19704 0.3242 0.92407 0.0
H781 H 0.15739 0.28927 0.91656 0.0
H782 H 0.20194 0.27761 0.92031 0.0
H783 H 0.15375 0.34994 0.77373 0.0
H784 H 0.12225 0.3485 0.80553 0.0
H785 H 0.16376 0.38117 0.81025 0.0
H786 H 0.06187 0.34275 0.90321 0.0
H787 H 0.1564 0.42695 0.92434 0.0
H788 H 0.10345 0.27653 0.87291 0.0
H789 H 0.09262 0.29801 0.83534 0.0
H790 H 0.06092 0.29215 0.86714 0.0
H791 H 0.22042 0.38123 0.8994 0.0
H792 H 0.21064 0.42619 0.89907 0.0
H793 H 0.2072 0.39874 0.86035 0.0
C794 C 0.69407 0.16043 0.87751 0.0
C795 C 0.69359 0.1784 0.84786 0.0
C796 C 0.66134 0.14744 0.89118 0.0
C797 C 0.628 0.15271 0.87432 0.0
C798 C 0.62806 0.17387 0.84608 0.0
C799 C 0.66104 0.18609 0.83285 0.0
C800 C 0.66222 0.12526 0.92178 0.0
C801 C 0.59337 0.18072 0.8278 0.0
C802 C 0.56466 0.06786 0.88644 0.0
C803 C 0.55207 0.07773 0.91666 0.0
C804 C 0.58531 0.09395 0.86866 0.0
C805 C 0.59389 0.13006 0.88244 0.0
C806 C 0.57595 0.14079 0.90977 0.0
C807 C 0.5549 0.11408 0.92683 0.0
C808 C 0.60266 0.08182 0.83848 0.0
C809 C 0.58329 0.17935 0.92408 0.0
H810 H 0.71955 0.15473 0.88877 0.0
H811 H 0.66108 0.1999 0.80955 0.0
H812 H 0.6449 0.13393 0.94052 0.0
H813 H 0.65122 0.09637 0.9142 0.0
H814 H 0.6903 0.12753 0.93407 0.0
H815 H 0.59834 0.2068 0.81541 0.0
H816 H 0.58331 0.1589 0.80786 0.0
H817 H 0.57164 0.1811 0.84494 0.0
H818 H 0.56172 0.03945 0.87872 0.0
H819 H 0.54457 0.12126 0.95026 0.0
H820 H 0.63138 0.08014 0.8462 0.0
H821 H 0.60276 0.10147 0.81858 0.0
H822 H 0.58826 0.05479 0.82767 0.0
H823 H 0.60783 0.18383 0.94245 0.0
H824 H 0.56007 0.18512 0.93752 0.0
H825 H 0.58852 0.19874 0.90411 0.0
C826 C 0.8211 0.67804 0.79887 0.0
C827 C 0.81928 0.71231 0.8131 0.0
C828 C 0.8407 0.65438 0.816 0.0
C829 C 0.85786 0.66425 0.84911 0.0
C830 C 0.85537 0.69852 0.86384 0.0
C831 C 0.83672 0.72201 0.84568 0.0
C832 C 0.84299 0.61874 0.79855 0.0
C833 C 0.87197 0.71028 0.89926 0.0
C834 C 0.87624 0.59201 0.91046 0.0
C835 C 0.91451 0.59669 0.91367 0.0
C836 C 0.85757 0.61293 0.88906 0.0
C837 C 0.87722 0.6387 0.86908 0.0
C838 C 0.91572 0.6419 0.8706 0.0
C839 C 0.93385 0.62162 0.89326 0.0
C840 C 0.81682 0.60882 0.88935 0.0
C841 C 0.93799 0.66752 0.84885 0.0
H842 H 0.80689 0.66932 0.77454 0.0
H843 H 0.8354 0.74812 0.85739 0.0
H844 H 0.8718 0.61541 0.7994 0.0
H845 H 0.82799 0.59617 0.81179 0.0
H846 H 0.83137 0.61641 0.77185 0.0
H847 H 0.86683 0.73715 0.90764 0.0
H848 H 0.86067 0.69016 0.91699 0.0
H849 H 0.90183 0.71157 0.90086 0.0
H850 H 0.86081 0.5733 0.92623 0.0
H851 H 0.96334 0.62559 0.89525 0.0
H852 H 0.80328 0.60304 0.86342 0.0
H853 H 0.81017 0.63456 0.89911 0.0
H854 H 0.80521 0.58686 0.90525 0.0
H855 H 0.9256 0.66385 0.82237 0.0
H856 H 0.9666 0.66349 0.84941 0.0
H857 H 0.93823 0.69582 0.85772 0.0
C858 C 0.19616 0.28648 0.13789 0.0
C859 C 0.19382 0.28171 0.17249 0.0
C860 C 0.17585 0.30876 0.11985 0.0
C861 C 0.15227 0.32748 0.13647 0.0
C862 C 0.14988 0.32302 0.17153 0.0
C863 C 0.17037 0.30019 0.18895 0.0
C864 C 0.17942 0.31192 0.08265 0.0
C865 C 0.12542 0.34226 0.19065 0.0
C866 C 0.12466 0.40791 0.09037 0.0
C867 C 0.0906 0.39248 0.0731 0.0
C868 C 0.1442 0.38772 0.11196 0.0
C869 C 0.12979 0.35082 0.11676 0.0
C870 C 0.09482 0.33556 0.10044 0.0
C871 C 0.07595 0.35628 0.07896 0.0
C872 C 0.18106 0.40564 0.12875 0.0
C873 C 0.07782 0.29661 0.10446 0.0
H874 H 0.21396 0.27248 0.12462 0.0
H875 H 0.16743 0.29635 0.21533 0.0
H876 H 0.15247 0.30241 0.06824 0.0
H877 H 0.18867 0.34064 0.0773 0.0
H878 H 0.19896 0.29595 0.07329 0.0
H879 H 0.12625 0.3361 0.21763 0.0
H880 H 0.13371 0.3719 0.18895 0.0
H881 H 0.09689 0.33441 0.1792 0.0
H882 H 0.13672 0.43562 0.08625 0.0
H883 H 0.05007 0.34346 0.06569 0.0
H884 H 0.20248 0.39308 0.11821 0.0
H885 H 0.18249 0.40148 0.15615 0.0
H886 H 0.18724 0.43511 0.12513 0.0
H887 H 0.09391 0.27867 0.09236 0.0
H888 H 0.04922 0.2896 0.09294 0.0
H889 H 0.07826 0.29091 0.13152 0.0
C890 C 0.13042 0.69599 0.83047 0.0
C891 C 0.16725 0.7005 0.84214 0.0
C892 C 0.10459 0.66991 0.84352 0.0
C893 C 0.11615 0.6494 0.86963 0.0
C894 C 0.15299 0.65621 0.88343 0.0
C895 C 0.17844 0.68125 0.86879 0.0
C896 C 0.06582 0.66221 0.82747 0.0
C897 C 0.16591 0.63556 0.9122 0.0
C898 C 0.05255 0.59448 0.9236 0.0
C899 C 0.05672 0.5597 0.91343 0.0
C900 C 0.07005 0.62442 0.90805 0.0
C901 C 0.09067 0.61882 0.88098 0.0
C902 C 0.0912 0.58339 0.86809 0.0
C903 C 0.07483 0.554 0.88516 0.0
C904 C 0.07006 0.66177 0.92323 0.0
C905 C 0.1118 0.57656 0.8383 0.0
H906 H 0.12229 0.71057 0.80918 0.0
H907 H 0.20718 0.68482 0.87728 0.0
H908 H 0.06032 0.63544 0.8134 0.0
H909 H 0.04625 0.66088 0.84692 0.0
H910 H 0.06058 0.68292 0.8097 0.0
H911 H 0.19411 0.64766 0.9228 0.0
H912 H 0.14754 0.63482 0.93266 0.0
H913 H 0.16542 0.60724 0.90321 0.0
H914 H 0.03891 0.59856 0.94596 0.0
H915 H 0.07785 0.52685 0.87759 0.0
H916 H 0.06676 0.6809 0.90339 0.0
H917 H 0.09665 0.67208 0.93805 0.0
H918 H 0.04811 0.66165 0.94028 0.0
H919 H 0.1075 0.59525 0.81827 0.0
H920 H 0.10341 0.54829 0.82751 0.0
H921 H 0.14141 0.58143 0.84639 0.0
C922 C 0.34363 0.12556 0.78421 0.0
C923 C 0.35139 0.16316 0.78932 0.0
C924 C 0.36799 0.10523 0.79811 0.0
C925 C 0.39873 0.12338 0.81909 0.0
C926 C 0.40956 0.16139 0.81909 0.0
C927 C 0.38554 0.18104 0.80365 0.0
C928 C 0.35765 0.06455 0.79527 0.0
C929 C 0.44253 0.1817 0.84088 0.0
C930 C 0.39963 0.09692 0.90821 0.0
C931 C 0.43269 0.08552 0.9124 0.0
C932 C 0.38747 0.10771 0.87722 0.0
C933 C 0.40913 0.10645 0.8498 0.0
C934 C 0.44197 0.09326 0.85365 0.0
C935 C 0.45355 0.08289 0.88534 0.0
C936 C 0.35179 0.12105 0.87438 0.0
C937 C 0.46417 0.08916 0.82439 0.0
H938 H 0.31765 0.11206 0.77147 0.0
H939 H 0.39164 0.21034 0.80644 0.0
H940 H 0.38224 0.05213 0.797 0.0
H941 H 0.3412 0.05515 0.81617 0.0
H942 H 0.34098 0.05497 0.77114 0.0
H943 H 0.45055 0.20996 0.83353 0.0
H944 H 0.43612 0.18254 0.86754 0.0
H945 H 0.46605 0.16799 0.83943 0.0
H946 H 0.38328 0.09735 0.92936 0.0
H947 H 0.4782 0.07195 0.8888 0.0
H948 H 0.33183 0.10332 0.85593 0.0
H949 H 0.35593 0.14886 0.86553 0.0
H950 H 0.33952 0.12137 0.89876 0.0
H951 H 0.45017 0.06536 0.80787 0.0
H952 H 0.49195 0.08496 0.8329 0.0
H953 H 0.46658 0.11304 0.80886 0.0
C954 C 0.86051 0.33009 0.81138 0.0
C955 C 0.82328 0.32108 0.80178 0.0
C956 C 0.87353 0.35636 0.83759 0.0
C957 C 0.84828 0.37254 0.85452 0.0
C958 C 0.81108 0.36537 0.84276 0.0
C959 C 0.79904 0.33972 0.81622 0.0
C960 C 0.91376 0.36462 0.84891 0.0
C961 C 0.78351 0.38182 0.86024 0.0
C962 C 0.88568 0.38781 0.94446 0.0
C963 C 0.9039 0.42366 0.94441 0.0
C964 C 0.86327 0.37168 0.91614 0.0
C965 C 0.86009 0.39201 0.8874 0.0
C966 C 0.87378 0.42959 0.88932 0.0
C967 C 0.89514 0.44528 0.9184 0.0
C968 C 0.84715 0.33181 0.91549 0.0
C969 C 0.87066 0.45227 0.85933 0.0
H970 H 0.87892 0.31538 0.79981 0.0
H971 H 0.77018 0.33237 0.80827 0.0
H972 H 0.92357 0.39422 0.85334 0.0
H973 H 0.91868 0.35201 0.87306 0.0
H974 H 0.93004 0.35413 0.83014 0.0
H975 H 0.7566 0.37679 0.84518 0.0
H976 H 0.78019 0.36982 0.88495 0.0
H977 H 0.79292 0.41136 0.86522 0.0
H978 H 0.89197 0.37144 0.96504 0.0
H979 H 0.90894 0.47327 0.91857 0.0
H980 H 0.86394 0.31641 0.90116 0.0
H981 H 0.81909 0.32599 0.90272 0.0
H982 H 0.8464 0.32184 0.94127 0.0
H983 H 0.89373 0.45078 0.84399 0.0
H984 H 0.87214 0.48109 0.86744 0.0
H985 H 0.84503 0.44255 0.84297 0.0
C986 C 0.69311 0.87957 0.78951 0.0
C987 C 0.72656 0.87174 0.80177 0.0
C988 C 0.67355 0.89744 0.81051 0.0
C989 C 0.68818 0.90698 0.84415 0.0
C990 C 0.72415 0.90356 0.85496 0.0
C991 C 0.74336 0.88622 0.83316 0.0
C992 C 0.63552 0.90156 0.79804 0.0
C993 C 0.74027 0.91331 0.89088 0.0
C994 C 0.64057 0.95549 0.90492 0.0
C995 C 0.62099 0.92635 0.92046 0.0
C996 C 0.66176 0.94959 0.87906 0.0
C997 C 0.66397 0.91381 0.86945 0.0
C998 C 0.64424 0.88417 0.88504 0.0
C999 C 0.62247 0.89088 0.91032 0.0
C1000 C 0.68154 0.98146 0.86195 0.0
C1001 C 0.64625 0.84551 0.8752 0.0
H1002 H 0.68069 0.86866 0.76478 0.0
H1003 H 0.76947 0.88016 0.84226 0.0
H1004 H 0.61553 0.87884 0.80635 0.0
H1005 H 0.62914 0.92709 0.80853 0.0
H1006 H 0.63185 0.90103 0.77009 0.0
H1007 H 0.77009 0.91404 0.89375 0.0
H1008 H 0.73508 0.93994 0.89979 0.0
H1009 H 0.72712 0.89285 0.90748 0.0
H1010 H 0.63839 0.98296 0.91224 0.0
H1011 H 0.6068 0.86855 0.92224 0.0
H1012 H 0.67466 0.97772 0.83428 0.0
H1013 H 0.71139 0.98333 0.86672 0.0
H1014 H 0.67468 0.00742 0.87091 0.0
H1015 H 0.63707 0.83929 0.84809 0.0
H1016 H 0.62919 0.82578 0.89001 0.0
H1017 H 0.67486 0.84166 0.87907 0.0
C1018 C 0.80995 0.68125 0.18635 0.0
C1019 C 0.79901 0.7113 0.17193 0.0
C1020 C 0.82974 0.65917 0.1685 0.0
C1021 C 0.83966 0.66765 0.13566 0.0
C1022 C 0.82918 0.69842 0.12151 0.0
C1023 C 0.80889 0.71939 0.13952 0.0
C1024 C 0.83958 0.62645 0.1846 0.0
C1025 C 0.83898 0.70902 0.0869 0.0
C1026 C 0.91836 0.63482 0.09531 0.0
C1027 C 0.90011 0.60689 0.07201 0.0
C1028 C 0.8993 0.65344 0.11716 0.0
C1029 C 0.86067 0.64474 0.1156 0.0
C1030 C 0.84214 0.61622 0.09245 0.0
C1031 C 0.86195 0.59754 0.07138 0.0
C1032 C 0.92059 0.6831 0.14149 0.0
C1033 C 0.80119 0.60548 0.08971 0.0
H1034 H 0.80209 0.6743 0.2111 0.0
H1035 H 0.8006 0.74241 0.12799 0.0
H1036 H 0.82848 0.60182 0.16803 0.0
H1037 H 0.86963 0.62911 0.18767 0.0
H1038 H 0.82896 0.62266 0.20962 0.0
H1039 H 0.82962 0.73409 0.07964 0.0
H1040 H 0.86894 0.7133 0.086 0.0
H1041 H 0.82655 0.68686 0.06791 0.0
H1042 H 0.94779 0.64224 0.09653 0.0
H1043 H 0.84731 0.57603 0.05376 0.0
H1044 H 0.91292 0.6784 0.16741 0.0
H1045 H 0.91383 0.70944 0.13474 0.0
H1046 H 0.95048 0.685 0.14148 0.0
H1047 H 0.79274 0.59366 0.11342 0.0
H1048 H 0.7905 0.58525 0.06849 0.0
H1049 H 0.78843 0.62949 0.08631 0.0
C1050 C 0.35246 0.86588 0.15807 0.0
C1051 C 0.35176 0.8319 0.1703 0.0
C1052 C 0.38128 0.8813 0.14025 0.0
C1053 C 0.40988 0.86214 0.13564 0.0
C1054 C 0.4109 0.82951 0.15112 0.0
C1055 C 0.38134 0.81442 0.16801 0.0
C1056 C 0.37945 0.91652 0.12412 0.0
C1057 C 0.4414 0.80898 0.1477 0.0
C1058 C 0.42898 0.88458 0.05026 0.0
C1059 C 0.45329 0.91709 0.05808 0.0
C1060 C 0.41923 0.86161 0.07564 0.0
C1061 C 0.43356 0.87279 0.10915 0.0
C1062 C 0.46292 0.90231 0.11592 0.0
C1063 C 0.47248 0.92467 0.08989 0.0
C1064 C 0.38894 0.82915 0.06734 0.0
C1065 C 0.48024 0.91341 0.15118 0.0
H1066 H 0.3296 0.87928 0.16069 0.0
H1067 H 0.38103 0.78843 0.17873 0.0
H1068 H 0.40437 0.93688 0.1324 0.0
H1069 H 0.37789 0.91251 0.0963 0.0
H1070 H 0.35528 0.92748 0.13055 0.0
H1071 H 0.44507 0.79292 0.16999 0.0
H1072 H 0.43447 0.78977 0.12526 0.0
H1073 H 0.4676 0.82728 0.14459 0.0
H1074 H 0.4154 0.87868 0.025 0.0
H1075 H 0.49217 0.9497 0.09521 0.0
H1076 H 0.3628 0.83606 0.0739 0.0
H1077 H 0.39387 0.80601 0.08206 0.0
H1078 H 0.38597 0.8206 0.0401 0.0
H1079 H 0.46502 0.93225 0.16319 0.0
H1080 H 0.50894 0.92766 0.15083 0.0
H1081 H 0.47959 0.88974 0.16686 0.0
C1082 C 0.71244 0.12179 0.1843 0.0
C1083 C 0.71018 0.15805 0.18109 0.0
C1084 C 0.69249 0.0952 0.16084 0.0
C1085 C 0.66886 0.10561 0.13516 0.0
C1086 C 0.6671 0.14258 0.13201 0.0
C1087 C 0.68844 0.16837 0.15477 0.0
C1088 C 0.69607 0.05635 0.16447 0.0
C1089 C 0.6414 0.15507 0.10575 0.0
C1090 C 0.61849 0.06698 0.05502 0.0
C1091 C 0.58344 0.06429 0.06521 0.0
C1092 C 0.64857 0.07422 0.07918 0.0
C1093 C 0.64257 0.0788 0.11347 0.0
C1094 C 0.60709 0.06928 0.12375 0.0
C1095 C 0.57765 0.06286 0.09923 0.0
C1096 C 0.68644 0.08172 0.06789 0.0
C1097 C 0.59985 0.0711 0.16033 0.0
H1098 H 0.72972 0.11434 0.20493 0.0
H1099 H 0.68689 0.19669 0.15296 0.0
H1100 H 0.67947 0.04495 0.1846 0.0
H1101 H 0.68698 0.03932 0.14084 0.0
H1102 H 0.72481 0.05474 0.17229 0.0
H1103 H 0.64316 0.18483 0.10764 0.0
H1104 H 0.64769 0.14736 0.08011 0.0
H1105 H 0.61285 0.14205 0.10863 0.0
H1106 H 0.62242 0.06584 0.0284 0.0
H1107 H 0.55007 0.0582 0.10666 0.0
H1108 H 0.70605 0.0727 0.08649 0.0
H1109 H 0.6953 0.11127 0.06589 0.0
H1110 H 0.68732 0.06808 0.04283 0.0
H1111 H 0.6202 0.0597 0.17603 0.0
H1112 H 0.57219 0.05612 0.1642 0.0
H1113 H 0.60199 0.09977 0.16919 0.0
C1114 C 0.68705 0.68471 0.83989 0.0
C1115 C 0.67798 0.68426 0.80497 0.0
C1116 C 0.66517 0.66203 0.86078 0.0
C1117 C 0.63231 0.63899 0.84694 0.0
C1118 C 0.62231 0.63962 0.81181 0.0
C1119 C 0.6455 0.6615 0.79127 0.0
C1120 C 0.67807 0.66171 0.89758 0.0
C1121 C 0.58728 0.61666 0.79574 0.0
C1122 C 0.60127 0.55283 0.89329 0.0
C1123 C 0.57503 0.56203 0.91362 0.0
C1124 C 0.61887 0.57695 0.87103 0.0
C1125 C 0.6106 0.61194 0.86855 0.0
C1126 C 0.583 0.62107 0.88792 0.0
C1127 C 0.56553 0.5961 0.91008 0.0
C1128 C 0.64752 0.56525 0.85102 0.0
C1129 C 0.57272 0.65771 0.88608 0.0
H1130 H 0.7122 0.70186 0.85074 0.0
H1131 H 0.63804 0.66102 0.7644 0.0
H1132 H 0.6566 0.66724 0.91342 0.0
H1133 H 0.68336 0.6345 0.90318 0.0
H1134 H 0.7034 0.68195 0.9049 0.0
H1135 H 0.58132 0.6229 0.76913 0.0
H1136 H 0.58896 0.58766 0.79641 0.0
H1137 H 0.56416 0.62081 0.81008 0.0
H1138 H 0.60884 0.52661 0.89535 0.0
H1139 H 0.54563 0.60389 0.92563 0.0
H1140 H 0.67442 0.58274 0.85881 0.0
H1141 H 0.64116 0.56839 0.8238 0.0
H1142 H 0.64976 0.53668 0.85454 0.0
H1143 H 0.59586 0.67876 0.89728 0.0
H1144 H 0.54845 0.65957 0.89971 0.0
H1145 H 0.56704 0.66383 0.85943 0.0
C1146 C 0.33361 0.66227 0.79151 0.0
C1147 C 0.31838 0.69226 0.80061 0.0
C1148 C 0.35465 0.64599 0.81502 0.0
C1149 C 0.36087 0.65956 0.84909 0.0
C1150 C 0.34527 0.68967 0.85866 0.0
C1151 C 0.32431 0.70566 0.83439 0.0
C1152 C 0.37027 0.61405 0.80325 0.0
C1153 C 0.35063 0.70493 0.89464 0.0
C1154 C 0.3836 0.59209 0.91313 0.0
C1155 C 0.42161 0.60255 0.92074 0.0
C1156 C 0.36373 0.61091 0.89087 0.0
C1157 C 0.38198 0.64085 0.87467 0.0
C1158 C 0.42045 0.65134 0.88173 0.0
C1159 C 0.43966 0.63252 0.90496 0.0
C1160 C 0.32291 0.59867 0.88479 0.0
C1161 C 0.4414 0.68233 0.86448 0.0
H1162 H 0.32927 0.65146 0.76558 0.0
H1163 H 0.31291 0.72881 0.8418 0.0
H1164 H 0.40022 0.61948 0.80959 0.0
H1165 H 0.35874 0.58981 0.81643 0.0
H1166 H 0.36444 0.6077 0.77567 0.0
H1167 H 0.33757 0.72875 0.8981 0.0
H1168 H 0.33902 0.68387 0.91139 0.0
H1169 H 0.38015 0.71303 0.90281 0.0
H1170 H 0.36893 0.56944 0.92534 0.0
H1171 H 0.46885 0.64108 0.91053 0.0
H1172 H 0.31518 0.58967 0.85791 0.0
H1173 H 0.30916 0.62155 0.89033 0.0
H1174 H 0.31244 0.57609 0.9005 0.0
H1175 H 0.43717 0.6767 0.83676 0.0
H1176 H 0.4711 0.68718 0.87235 0.0
H1177 H 0.43109 0.7074 0.87018 0.0
C1178 C 0.31133 0.366 0.78885 0.0
C1179 C 0.31896 0.33106 0.78948 0.0
C1180 C 0.32466 0.39152 0.81562 0.0
C1181 C 0.34574 0.3814 0.8433 0.0
C1182 C 0.35286 0.34591 0.84423 0.0
C1183 C 0.33984 0.3214 0.81706 0.0
C1184 C 0.31664 0.42915 0.81396 0.0
C1185 C 0.37468 0.33375 0.87373 0.0
C1186 C 0.42571 0.43518 0.89345 0.0
C1187 C 0.41385 0.43159 0.92556 0.0
C1188 C 0.40173 0.42359 0.86504 0.0
C1189 C 0.36518 0.40831 0.86935 0.0
C1190 C 0.35201 0.40963 0.90156 0.0
C1191 C 0.37698 0.42086 0.92984 0.0
C1192 C 0.41694 0.42243 0.8312 0.0
C1193 C 0.31263 0.39526 0.90649 0.0
H1194 H 0.29459 0.37322 0.76771 0.0
H1195 H 0.34493 0.29411 0.81816 0.0
H1196 H 0.31212 0.44015 0.83914 0.0
H1197 H 0.34028 0.44735 0.80502 0.0
H1198 H 0.29237 0.42973 0.79618 0.0
H1199 H 0.37632 0.3047 0.8708 0.0
H1200 H 0.40283 0.34985 0.87652 0.0
H1201 H 0.36217 0.33808 0.8974 0.0
H1202 H 0.45445 0.44448 0.89071 0.0
H1203 H 0.36812 0.41935 0.955 0.0
H1204 H 0.398 0.42995 0.81113 0.0
H1205 H 0.42051 0.39448 0.82472 0.0
H1206 H 0.44384 0.44077 0.83133 0.0
H1207 H 0.29434 0.4008 0.88483 0.0
H1208 H 0.30481 0.40732 0.93001 0.0
H1209 H 0.30837 0.36553 0.90838 0.0
C1210 C 0.6903 0.2846 0.81843 0.0
C1211 C 0.69616 0.30195 0.78841 0.0
C1212 C 0.67461 0.30044 0.84507 0.0
C1213 C 0.66463 0.33482 0.84193 0.0
C1214 C 0.67141 0.35275 0.81193 0.0
C1215 C 0.68675 0.33617 0.78578 0.0
C1216 C 0.66814 0.27997 0.87634 0.0
C1217 C 0.66198 0.3895 0.80718 0.0
C1218 C 0.58853 0.36208 0.89016 0.0
C1219 C 0.6077 0.38761 0.91525 0.0
C1220 C 0.60666 0.34429 0.86694 0.0
C1221 C 0.64527 0.35142 0.86872 0.0
C1222 C 0.6648 0.37639 0.89463 0.0
C1223 C 0.64594 0.39442 0.91714 0.0
C1224 C 0.5843 0.31829 0.83993 0.0
C1225 C 0.70577 0.38463 0.89844 0.0
H1226 H 0.6977 0.25857 0.82102 0.0
H1227 H 0.6915 0.35033 0.76302 0.0
H1228 H 0.67662 0.29821 0.89932 0.0
H1229 H 0.63861 0.26878 0.87636 0.0
H1230 H 0.68305 0.2572 0.87768 0.0
H1231 H 0.66964 0.40036 0.78279 0.0
H1232 H 0.63228 0.38786 0.80825 0.0
H1233 H 0.67616 0.40891 0.82787 0.0
H1234 H 0.55901 0.35637 0.88819 0.0
H1235 H 0.66125 0.4137 0.93645 0.0
H1236 H 0.59239 0.29152 0.84097 0.0
H1237 H 0.58961 0.32834 0.81473 0.0
H1238 H 0.55461 0.31467 0.84244 0.0
H1239 H 0.71659 0.3594 0.89544 0.0
H1240 H 0.71686 0.39836 0.92333 0.0
H1241 H 0.71557 0.40271 0.87859 0.0
C1242 C 0.6949 0.3013 0.16307 0.0
C1243 C 0.67812 0.28956 0.19187 0.0
C1244 C 0.67766 0.32081 0.13894 0.0
C1245 C 0.64303 0.32949 0.14384 0.0
C1246 C 0.62653 0.3182 0.17326 0.0
C1247 C 0.64394 0.2983 0.19647 0.0
C1248 C 0.69633 0.3318 0.10794 0.0
C1249 C 0.59024 0.32718 0.18036 0.0
C1250 C 0.60982 0.40627 0.09676 0.0
C1251 C 0.58394 0.38736 0.0715 0.0
C1252 C 0.62911 0.38801 0.12028 0.0
C1253 C 0.62345 0.34964 0.11826 0.0
C1254 C 0.59745 0.33044 0.09275 0.0
C1255 C 0.57784 0.34936 0.07012 0.0
C1256 C 0.65564 0.4099 0.14737 0.0
C1257 C 0.59071 0.2897 0.08896 0.0
H1258 H 0.72122 0.29479 0.15915 0.0
H1259 H 0.63066 0.28972 0.21866 0.0
H1260 H 0.67832 0.32047 0.08501 0.0
H1261 H 0.70154 0.36165 0.107 0.0
H1262 H 0.72263 0.32247 0.10727 0.0
H1263 H 0.58159 0.31778 0.20495 0.0
H1264 H 0.59171 0.35683 0.18036 0.0
H1265 H 0.56895 0.31448 0.16021 0.0
H1266 H 0.61516 0.43557 0.09811 0.0
H1267 H 0.5586 0.33427 0.05045 0.0
H1268 H 0.68346 0.40483 0.14475 0.0
H1269 H 0.64824 0.40146 0.17258 0.0
H1270 H 0.65626 0.43938 0.14631 0.0
H1271 H 0.61673 0.2805 0.08604 0.0
H1272 H 0.57107 0.2787 0.06693 0.0
H1273 H 0.5799 0.2781 0.11199 0.0
C1274 C 0.70867 0.63015 0.1889 0.0
C1275 C 0.68575 0.651 0.20288 0.0
C1276 C 0.69566 0.60561 0.16155 0.0
C1277 C 0.65874 0.60106 0.14922 0.0
C1278 C 0.63439 0.61776 0.1668 0.0
C1279 C 0.64847 0.64362 0.19299 0.0
C1280 C 0.72215 0.58798 0.14358 0.0
C1281 C 0.59412 0.6111 0.15576 0.0
C1282 C 0.62122 0.59747 0.05963 0.0
C1283 C 0.60228 0.56176 0.05577 0.0
C1284 C 0.64421 0.60952 0.08879 0.0
C1285 C 0.64675 0.58546 0.11483 0.0
C1286 C 0.63171 0.54828 0.109 0.0
C1287 C 0.6103 0.53664 0.07881 0.0
C1288 C 0.66219 0.64897 0.09332 0.0
C1289 C 0.63547 0.52104 0.13512 0.0
H1290 H 0.7376 0.63574 0.19686 0.0
H1291 H 0.63081 0.65939 0.20438 0.0
H1292 H 0.71117 0.55871 0.13834 0.0
H1293 H 0.72604 0.60021 0.11901 0.0
H1294 H 0.74911 0.59145 0.15842 0.0
H1295 H 0.57834 0.61973 0.17593 0.0
H1296 H 0.58934 0.62664 0.13337 0.0
H1297 H 0.58366 0.58202 0.14861 0.0
H1298 H 0.6157 0.61661 0.04127 0.0
H1299 H 0.59641 0.50863 0.07533 0.0
H1300 H 0.69008 0.65224 0.10623 0.0
H1301 H 0.64608 0.66362 0.10918 0.0
H1302 H 0.66386 0.66182 0.06882 0.0
H1303 H 0.65826 0.50745 0.12955 0.0
H1304 H 0.61045 0.49975 0.13398 0.0
H1305 H 0.64124 0.53344 0.16116 0.0
C1306 C 0.28827 0.63723 0.18517 0.0
C1307 C 0.29695 0.67417 0.19543 0.0
C1308 C 0.30751 0.62196 0.16105 0.0
C1309 C 0.33593 0.64412 0.14586 0.0
C1310 C 0.34444 0.68162 0.15583 0.0
C1311 C 0.32559 0.69576 0.18094 0.0
C1312 C 0.29791 0.58178 0.15246 0.0
C1313 C 0.37389 0.70739 0.14088 0.0
C1314 C 0.41166 0.60236 0.10959 0.0
C1315 C 0.39867 0.59488 0.07552 0.0
C1316 C 0.3914 0.61783 0.13263 0.0
C1317 C 0.35786 0.62757 0.12128 0.0
C1318 C 0.34554 0.6213 0.08647 0.0
C1319 C 0.36545 0.6042 0.06435 0.0
C1320 C 0.40598 0.62379 0.16921 0.0
C1321 C 0.3118 0.63349 0.07221 0.0
H1322 H 0.26644 0.61999 0.19625 0.0
H1323 H 0.33425 0.7236 0.18985 0.0
H1324 H 0.28844 0.5765 0.12534 0.0
H1325 H 0.32247 0.56964 0.1572 0.0
H1326 H 0.27624 0.56796 0.16735 0.0
H1327 H 0.39819 0.71426 0.15949 0.0
H1328 H 0.38211 0.69628 0.11718 0.0
H1329 H 0.36454 0.73302 0.13565 0.0
H1330 H 0.43745 0.59543 0.11839 0.0
H1331 H 0.35559 0.59917 0.03793 0.0
H1332 H 0.38496 0.61117 0.18534 0.0
H1333 H 0.4125 0.65318 0.17634 0.0
H1334 H 0.43096 0.61244 0.1746 0.0
H1335 H 0.28764 0.61684 0.08172 0.0
H1336 H 0.30835 0.6309 0.04424 0.0
H1337 H 0.31306 0.66218 0.08047 0.0
C1338 C 0.35034 0.291 0.16135 0.0
C1339 C 0.3304 0.30688 0.18415 0.0
C1340 C 0.37346 0.31214 0.14024 0.0
C1341 C 0.37704 0.35038 0.14153 0.0
C1342 C 0.35778 0.36658 0.16517 0.0
C1343 C 0.33496 0.34487 0.18596 0.0
C1344 C 0.3932 0.29334 0.11567 0.0
C1345 C 0.36025 0.407 0.16773 0.0
C1346 C 0.45204 0.41312 0.09854 0.0
C1347 C 0.4325 0.42059 0.06891 0.0
C1348 C 0.43486 0.38976 0.1221 0.0
C1349 C 0.39734 0.37305 0.11588 0.0
C1350 C 0.37824 0.37946 0.08527 0.0
C1351 C 0.39582 0.40292 0.06257 0.0
C1352 C 0.4565 0.38406 0.15429 0.0
C1353 C 0.33856 0.36242 0.07684 0.0
H1354 H 0.34741 0.26185 0.15948 0.0
H1355 H 0.32003 0.35788 0.20331 0.0
H1356 H 0.38206 0.29647 0.08955 0.0
H1357 H 0.42256 0.30593 0.11793 0.0
H1358 H 0.39048 0.26403 0.11968 0.0
H1359 H 0.34634 0.41589 0.18918 0.0
H1360 H 0.38918 0.42105 0.17075 0.0
H1361 H 0.34754 0.41569 0.14413 0.0
H1362 H 0.48018 0.42668 0.10405 0.0
H1363 H 0.38032 0.40807 0.03973 0.0
H1364 H 0.45353 0.35478 0.15831 0.0
H1365 H 0.44576 0.39669 0.17593 0.0
H1366 H 0.48591 0.39598 0.15424 0.0
H1367 H 0.33461 0.33266 0.07833 0.0
H1368 H 0.32804 0.36839 0.05126 0.0
H1369 H 0.32194 0.37255 0.09546 0.0
C1370 C 0.82783 0.62507 0.69543 0.0
C1371 C 0.78997 0.62242 0.69158 0.0
C1372 C 0.84455 0.60483 0.67385 0.0
C1373 C 0.82241 0.5811 0.64887 0.0
C1374 C 0.78415 0.57333 0.64949 0.0
C1375 C 0.76806 0.59471 0.67082 0.0
C1376 C 0.88558 0.61339 0.6743 0.0
C1377 C 0.76013 0.54641 0.62431 0.0
C1378 C 0.85861 0.59326 0.56432 0.0
C1379 C 0.87314 0.56223 0.56052 0.0
C1380 C 0.84033 0.59876 0.59254 0.0
C1381 C 0.83804 0.57303 0.61766 0.0
C1382 C 0.85258 0.54147 0.61362 0.0
C1383 C 0.8697 0.53623 0.58467 0.0
C1384 C 0.82482 0.63277 0.59606 0.0
C1385 C 0.85224 0.51447 0.64053 0.0
H1386 H 0.8447 0.64584 0.71254 0.0
H1387 H 0.73868 0.59207 0.66882 0.0
H1388 H 0.89652 0.58878 0.66838 0.0
H1389 H 0.89335 0.63286 0.65484 0.0
H1390 H 0.89869 0.62584 0.69911 0.0
H1391 H 0.73265 0.53749 0.63292 0.0
H1392 H 0.75696 0.55917 0.59996 0.0
H1393 H 0.77252 0.52236 0.61979 0.0
H1394 H 0.86206 0.61329 0.54555 0.0
H1395 H 0.88219 0.51271 0.58175 0.0
H1396 H 0.83958 0.65022 0.61786 0.0
H1397 H 0.7957 0.62589 0.60083 0.0
H1398 H 0.82698 0.64859 0.57321 0.0
H1399 H 0.87453 0.52491 0.66056 0.0
H1400 H 0.85668 0.48797 0.63029 0.0
H1401 H 0.82625 0.51026 0.65245 0.0
C1402 C 0.35635 0.79949 0.63388 0.0
C1403 C 0.36485 0.79465 0.66788 0.0
C1404 C 0.37722 0.82723 0.61797 0.0
C1405 C 0.40686 0.85031 0.63688 0.0
C1406 C 0.41726 0.84362 0.67044 0.0
C1407 C 0.39617 0.81538 0.68556 0.0
C1408 C 0.36574 0.83361 0.58185 0.0
C1409 C 0.44844 0.86817 0.69125 0.0
C1410 C 0.46458 0.91041 0.58231 0.0
C1411 C 0.4456 0.93897 0.58038 0.0
C1412 C 0.454 0.88211 0.60285 0.0
C1413 C 0.42446 0.88326 0.62222 0.0
C1414 C 0.40805 0.91407 0.62334 0.0
C1415 C 0.41863 0.9416 0.60193 0.0
C1416 C 0.47175 0.84943 0.60094 0.0
C1417 C 0.37705 0.91649 0.64461 0.0
H1418 H 0.33208 0.78323 0.62037 0.0
H1419 H 0.40261 0.81141 0.71196 0.0
H1420 H 0.35424 0.85862 0.58104 0.0
H1421 H 0.38958 0.83749 0.5668 0.0
H1422 H 0.3448 0.81087 0.56977 0.0
H1423 H 0.45578 0.85657 0.71541 0.0
H1424 H 0.47287 0.87361 0.67706 0.0
H1425 H 0.44059 0.89453 0.69701 0.0
H1426 H 0.48559 0.90853 0.56566 0.0
H1427 H 0.40451 0.96415 0.60075 0.0
H1428 H 0.45321 0.82733 0.58536 0.0
H1429 H 0.47677 0.83941 0.62629 0.0
H1430 H 0.49796 0.85537 0.58938 0.0
H1431 H 0.35165 0.89931 0.63235 0.0
H1432 H 0.37242 0.94464 0.64764 0.0
H1433 H 0.38236 0.90648 0.66993 0.0
C1434 C 0.13258 0.31014 0.65893 0.0
C1435 C 0.15961 0.32354 0.6848 0.0
C1436 C 0.10932 0.33213 0.6464 0.0
C1437 C 0.11342 0.36787 0.66069 0.0
C1438 C 0.13745 0.37962 0.68973 0.0
C1439 C 0.16113 0.35747 0.70106 0.0
C1440 C 0.08337 0.31853 0.61556 0.0
C1441 C 0.14057 0.41668 0.7068 0.0
C1442 C 0.11085 0.42571 0.58854 0.0
C1443 C 0.07341 0.42422 0.58302 0.0
C1444 C 0.12519 0.41053 0.61634 0.0
C1445 C 0.10123 0.3947 0.63952 0.0
C1446 C 0.06413 0.39756 0.63634 0.0
C1447 C 0.05022 0.41143 0.60721 0.0
C1448 C 0.165 0.40761 0.61834 0.0
C1449 C 0.03854 0.3837 0.66208 0.0
H1450 H 0.13111 0.2834 0.64715 0.0
H1451 H 0.18164 0.36729 0.72182 0.0
H1452 H 0.05552 0.32239 0.61983 0.0
H1453 H 0.09203 0.33416 0.59371 0.0
H1454 H 0.08224 0.28943 0.60891 0.0
H1455 H 0.15112 0.41722 0.73372 0.0
H1456 H 0.15985 0.43669 0.69429 0.0
H1457 H 0.1138 0.42528 0.70516 0.0
H1458 H 0.12861 0.4363 0.5697 0.0
H1459 H 0.02141 0.41152 0.60305 0.0
H1460 H 0.16737 0.37882 0.61506 0.0
H1461 H 0.17894 0.41827 0.64327 0.0
H1462 H 0.17973 0.42269 0.59871 0.0
H1463 H 0.02073 0.35789 0.65208 0.0
H1464 H 0.02056 0.40325 0.66677 0.0
H1465 H 0.0532 0.37925 0.68639 0.0
C1466 C 0.69568 0.14099 0.6797 0.0
C1467 C 0.67593 0.16737 0.68853 0.0
C1468 C 0.68321 0.1166 0.65213 0.0
C1469 C 0.64958 0.1181 0.63415 0.0
C1470 C 0.62821 0.14306 0.64474 0.0
C1471 C 0.64225 0.16825 0.67151 0.0
C1472 C 0.70741 0.09158 0.64067 0.0
C1473 C 0.59155 0.14456 0.62668 0.0
C1474 C 0.61908 0.09437 0.54326 0.0
C1475 C 0.59423 0.06232 0.54594 0.0
C1476 C 0.64172 0.11056 0.57155 0.0
C1477 C 0.63724 0.09522 0.60307 0.0
C1478 C 0.61509 0.06085 0.60495 0.0
C1479 C 0.59456 0.0442 0.57587 0.0
C1480 C 0.6672 0.14607 0.56844 0.0
C1481 C 0.60867 0.04414 0.6382 0.0
H1482 H 0.72235 0.14141 0.6927 0.0
H1483 H 0.62772 0.18939 0.67825 0.0
H1484 H 0.69168 0.06374 0.63483 0.0
H1485 H 0.71884 0.10115 0.61718 0.0
H1486 H 0.73042 0.09068 0.65983 0.0
H1487 H 0.5765 0.16194 0.64093 0.0
H1488 H 0.59536 0.15561 0.60163 0.0
H1489 H 0.57456 0.11702 0.62252 0.0
H1490 H 0.61882 0.10806 0.5199 0.0
H1491 H 0.57504 0.01937 0.57783 0.0
H1492 H 0.69283 0.14796 0.58502 0.0
H1493 H 0.65402 0.16864 0.57631 0.0
H1494 H 0.67398 0.14963 0.54206 0.0
H1495 H 0.63417 0.04792 0.65517 0.0
H1496 H 0.59686 0.01478 0.63469 0.0
H1497 H 0.58921 0.05764 0.65097 0.0
C1498 C 0.80977 0.37127 0.2926 0.0
C1499 C 0.77966 0.34653 0.3011 0.0
C1500 C 0.83186 0.39403 0.31771 0.0
C1501 C 0.82328 0.39115 0.35145 0.0
C1502 C 0.78923 0.37155 0.35875 0.0
C1503 C 0.76732 0.34965 0.33308 0.0
C1504 C 0.86707 0.41647 0.30871 0.0
C1505 C 0.77878 0.36863 0.39439 0.0
C1506 C 0.90408 0.38269 0.41106 0.0
C1507 C 0.9123 0.41697 0.42768 0.0
C1508 C 0.8745 0.37376 0.38654 0.0
C1509 C 0.85288 0.39989 0.37866 0.0
C1510 C 0.86019 0.434 0.39611 0.0
C1511 C 0.88958 0.44191 0.42071 0.0
C1512 C 0.86736 0.33689 0.36812 0.0
C1513 C 0.83788 0.46254 0.38811 0.0
H1514 H 0.8186 0.36997 0.26746 0.0
H1515 H 0.74297 0.33163 0.33926 0.0
H1516 H 0.87694 0.44007 0.32681 0.0
H1517 H 0.88823 0.39948 0.30904 0.0
H1518 H 0.86374 0.42619 0.28295 0.0
H1519 H 0.74895 0.3593 0.39495 0.0
H1520 H 0.79285 0.34872 0.40698 0.0
H1521 H 0.78725 0.39484 0.40914 0.0
H1522 H 0.92149 0.3633 0.41624 0.0
H1523 H 0.8954 0.46831 0.43337 0.0
H1524 H 0.87187 0.3399 0.34118 0.0
H1525 H 0.83862 0.32328 0.36926 0.0
H1526 H 0.88538 0.31911 0.37873 0.0
H1527 H 0.83437 0.46537 0.36054 0.0
H1528 H 0.85048 0.48936 0.4006 0.0
H1529 H 0.81032 0.45438 0.39665 0.0
C1530 C 0.679 0.76516 0.34222 0.0
C1531 C 0.69468 0.77794 0.31324 0.0
C1532 C 0.65686 0.78447 0.35976 0.0
C1533 C 0.6512 0.81858 0.34918 0.0
C1534 C 0.66649 0.83143 0.31946 0.0
C1535 C 0.6873 0.81063 0.30148 0.0
C1536 C 0.64027 0.76867 0.39031 0.0
C1537 C 0.66219 0.86786 0.30741 0.0
C1538 C 0.57395 0.8563 0.38766 0.0
C1539 C 0.59271 0.87899 0.41494 0.0
C1540 C 0.59261 0.83785 0.36524 0.0
C1541 C 0.63106 0.84115 0.37048 0.0
C1542 C 0.65004 0.86417 0.39794 0.0
C1543 C 0.63085 0.88301 0.41937 0.0
C1544 C 0.57102 0.81431 0.33618 0.0
C1545 C 0.69079 0.86853 0.40505 0.0
H1546 H 0.68424 0.73983 0.35141 0.0
H1547 H 0.69924 0.82083 0.27915 0.0
H1548 H 0.65251 0.7857 0.41324 0.0
H1549 H 0.61056 0.76845 0.38819 0.0
H1550 H 0.64453 0.74064 0.39363 0.0
H1551 H 0.67317 0.87289 0.28268 0.0
H1552 H 0.63307 0.87013 0.30521 0.0
H1553 H 0.67684 0.88937 0.32614 0.0
H1554 H 0.54457 0.85315 0.38364 0.0
H1555 H 0.64577 0.90028 0.4403 0.0
H1556 H 0.5733 0.78572 0.33929 0.0
H1557 H 0.5823 0.82218 0.31216 0.0
H1558 H 0.54174 0.81616 0.33421 0.0
H1559 H 0.69826 0.8419 0.4094 0.0
H1560 H 0.70167 0.88719 0.42737 0.0
H1561 H 0.70423 0.87913 0.38287 0.0
C1562 C 0.16431 0.67249 0.35572 0.0
C1563 C 0.15533 0.68114 0.32287 0.0
C1564 C 0.13688 0.65786 0.37541 0.0
C1565 C 0.10009 0.65225 0.36152 0.0
C1566 C 0.09093 0.66548 0.33011 0.0
C1567 C 0.11893 0.6795 0.31078 0.0
C1568 C 0.14751 0.64468 0.40938 0.0
C1569 C 0.05189 0.66142 0.31546 0.0
C1570 C 0.05952 0.5618 0.38764 0.0
C1571 C 0.04625 0.57168 0.41745 0.0
C1572 C 0.07304 0.58816 0.36623 0.0
C1573 C 0.07352 0.62488 0.37572 0.0
C1574 C 0.05575 0.63427 0.40363 0.0
C1575 C 0.04241 0.60722 0.42462 0.0
C1576 C 0.09124 0.57705 0.33615 0.0
C1577 C 0.05481 0.673 0.41384 0.0
H1578 H 0.19267 0.67491 0.36516 0.0
H1579 H 0.11226 0.68768 0.28566 0.0
H1580 H 0.13043 0.65287 0.42855 0.0
H1581 H 0.14302 0.6147 0.40772 0.0
H1582 H 0.1766 0.6553 0.41814 0.0
H1583 H 0.04898 0.68174 0.29658 0.0
H1584 H 0.04284 0.63414 0.30265 0.0
H1585 H 0.03352 0.66419 0.33541 0.0
H1586 H 0.06196 0.53393 0.38251 0.0
H1587 H 0.03224 0.61442 0.44811 0.0
H1588 H 0.12127 0.58478 0.34156 0.0
H1589 H 0.08327 0.59105 0.31366 0.0
H1590 H 0.08418 0.54741 0.33003 0.0
H1591 H 0.0788 0.68411 0.43193 0.0
H1592 H 0.02997 0.67471 0.42664 0.0
H1593 H 0.05562 0.69015 0.39191 0.0
C1594 C 0.3452 0.22722 0.33614 0.0
C1595 C 0.31746 0.21372 0.3104 0.0
C1596 C 0.36425 0.20416 0.35454 0.0
C1597 C 0.35526 0.16609 0.34777 0.0
C1598 C 0.32745 0.1523 0.32145 0.0
C1599 C 0.30902 0.17612 0.3032 0.0
C1600 C 0.39353 0.22066 0.38197 0.0
C1601 C 0.31641 0.11218 0.31307 0.0
C1602 C 0.42484 0.11069 0.38495 0.0
C1603 C 0.40924 0.09759 0.41393 0.0
C1604 C 0.40694 0.13142 0.36243 0.0
C1605 C 0.37333 0.14102 0.36967 0.0
C1606 C 0.35779 0.12799 0.39913 0.0
C1607 C 0.37544 0.10611 0.42031 0.0
C1608 C 0.42419 0.14333 0.33096 0.0
C1609 C 0.32295 0.13823 0.40901 0.0
H1610 H 0.35197 0.25613 0.34211 0.0
H1611 H 0.28703 0.1651 0.28414 0.0
H1612 H 0.38547 0.21129 0.40671 0.0
H1613 H 0.41939 0.2117 0.3778 0.0
H1614 H 0.39864 0.25068 0.38319 0.0
H1615 H 0.29734 0.10584 0.28983 0.0
H1616 H 0.3408 0.10022 0.30971 0.0
H1617 H 0.30289 0.09901 0.33424 0.0
H1618 H 0.45097 0.10453 0.37974 0.0
H1619 H 0.36341 0.09682 0.44292 0.0
H1620 H 0.43202 0.17322 0.33206 0.0
H1621 H 0.40428 0.1351 0.30855 0.0
H1622 H 0.44881 0.1317 0.32752 0.0
H1623 H 0.3268 0.16806 0.41291 0.0
H1624 H 0.31413 0.1259 0.43247 0.0
H1625 H 0.3008 0.12965 0.38847 0.0
C1626 C 0.67156 0.80209 0.6918 0.0
C1627 C 0.69721 0.78604 0.67595 0.0
C1628 C 0.65053 0.82444 0.67423 0.0
C1629 C 0.65493 0.83117 0.63978 0.0
C1630 C 0.68142 0.8156 0.62411 0.0
C1631 C 0.70184 0.79341 0.64214 0.0
C1632 C 0.62297 0.84024 0.6924 0.0
C1633 C 0.68777 0.82171 0.58777 0.0
C1634 C 0.57755 0.85328 0.57892 0.0
C1635 C 0.58884 0.8904 0.57409 0.0
C1636 C 0.5979 0.83432 0.60087 0.0
C1637 C 0.63077 0.85246 0.61928 0.0
C1638 C 0.64164 0.89024 0.61565 0.0
C1639 C 0.6209 0.90856 0.59312 0.0
C1640 C 0.58484 0.79424 0.60326 0.0
C1641 C 0.67595 0.91124 0.63486 0.0
H1642 H 0.66712 0.79641 0.71764 0.0
H1643 H 0.72151 0.78144 0.62945 0.0
H1644 H 0.62733 0.86989 0.68997 0.0
H1645 H 0.59512 0.82861 0.68071 0.0
H1646 H 0.62438 0.83482 0.71958 0.0
H1647 H 0.71071 0.80966 0.57969 0.0
H1648 H 0.66276 0.80964 0.5713 0.0
H1649 H 0.69369 0.85108 0.58382 0.0
H1650 H 0.55323 0.8384 0.56444 0.0
H1651 H 0.63028 0.93707 0.58994 0.0
H1652 H 0.5833 0.78767 0.63 0.0
H1653 H 0.60459 0.7793 0.5928 0.0
H1654 H 0.55765 0.78437 0.58931 0.0
H1655 H 0.67577 0.90637 0.66207 0.0
H1656 H 0.67925 0.94077 0.63176 0.0
H1657 H 0.69997 0.9018 0.62592 0.0
C1658 C 0.6736 0.17035 0.36432 0.0
C1659 C 0.66134 0.19247 0.34063 0.0
C1660 C 0.64869 0.14741 0.38141 0.0
C1661 C 0.61099 0.14571 0.37298 0.0
C1662 C 0.5987 0.17003 0.35087 0.0
C1663 C 0.62437 0.19387 0.33529 0.0
C1664 C 0.66266 0.12308 0.4064 0.0
C1665 C 0.55866 0.1684 0.34104 0.0
C1666 C 0.56356 0.05045 0.38144 0.0
C1667 C 0.5492 0.0542 0.41215 0.0
C1668 C 0.58059 0.08109 0.36641 0.0
C1669 C 0.58503 0.11537 0.38391 0.0
C1670 C 0.56878 0.11927 0.4141 0.0
C1671 C 0.5501 0.08845 0.42744 0.0
C1672 C 0.5964 0.07646 0.33329 0.0
C1673 C 0.57462 0.15494 0.43439 0.0
H1674 H 0.70246 0.16995 0.36843 0.0
H1675 H 0.61531 0.2112 0.3167 0.0
H1676 H 0.64728 0.1218 0.42903 0.0
H1677 H 0.6588 0.09526 0.39472 0.0
H1678 H 0.69212 0.13243 0.41449 0.0
H1679 H 0.55372 0.19264 0.3279 0.0
H1680 H 0.54797 0.14412 0.32388 0.0
H1681 H 0.54289 0.16584 0.36339 0.0
H1682 H 0.56278 0.02368 0.37003 0.0
H1683 H 0.53929 0.09085 0.45163 0.0
H1684 H 0.62636 0.07896 0.33783 0.0
H1685 H 0.59108 0.09783 0.31635 0.0
H1686 H 0.58494 0.04961 0.3203 0.0
H1687 H 0.6022 0.16006 0.44818 0.0
H1688 H 0.55435 0.15482 0.45316 0.0
H1689 H 0.57324 0.17771 0.41798 0.0
C1690 C 0.82657 0.63668 0.32978 0.0
C1691 C 0.83445 0.65626 0.30162 0.0
C1692 C 0.84937 0.61402 0.34179 0.0
C1693 C 0.88012 0.61048 0.3244 0.0
C1694 C 0.88534 0.62666 0.29349 0.0
C1695 C 0.86282 0.65036 0.28279 0.0
C1696 C 0.84211 0.59647 0.37459 0.0
C1697 C 0.91571 0.6207 0.27275 0.0
C1698 C 0.94894 0.60926 0.39485 0.0
C1699 C 0.93888 0.57301 0.4019 0.0
C1700 C 0.93449 0.62164 0.36526 0.0
C1701 C 0.90982 0.5968 0.3427 0.0
C1702 C 0.9059 0.55933 0.34652 0.0
C1703 C 0.92029 0.54771 0.37657 0.0
C1704 C 0.9405 0.66191 0.36138 0.0
C1705 C 0.88218 0.53189 0.32155 0.0
H1706 H 0.80383 0.64075 0.34359 0.0
H1707 H 0.86773 0.66461 0.26009 0.0
H1708 H 0.84 0.56683 0.3712 0.0
H1709 H 0.86494 0.60696 0.3941 0.0
H1710 H 0.81652 0.60161 0.38424 0.0
H1711 H 0.90795 0.62284 0.24554 0.0
H1712 H 0.94028 0.64176 0.28023 0.0
H1713 H 0.92296 0.59385 0.27645 0.0
H1714 H 0.96467 0.6286 0.41391 0.0
H1715 H 0.91433 0.51918 0.38124 0.0
H1716 H 0.9159 0.67214 0.36782 0.0
H1717 H 0.94505 0.66819 0.33505 0.0
H1718 H 0.96424 0.67668 0.37817 0.0
H1719 H 0.85456 0.52461 0.33022 0.0
H1720 H 0.89345 0.50677 0.31982 0.0
H1721 H 0.87956 0.54248 0.29613 0.0
C1722 C 0.32999 0.78249 0.3473 0.0
C1723 C 0.33956 0.77334 0.31546 0.0
C1724 C 0.35369 0.80814 0.36891 0.0
C1725 C 0.38781 0.82443 0.35839 0.0
C1726 C 0.39909 0.8127 0.32767 0.0
C1727 C 0.37472 0.78709 0.30648 0.0
C1728 C 0.3411 0.81955 0.40199 0.0
C1729 C 0.43555 0.82895 0.31598 0.0
C1730 C 0.41511 0.91539 0.40431 0.0
C1731 C 0.43327 0.9058 0.43361 0.0
C1732 C 0.4035 0.8899 0.37713 0.0
C1733 C 0.41057 0.85448 0.37964 0.0
C1734 C 0.43292 0.84627 0.40717 0.0
C1735 C 0.44327 0.8717 0.43418 0.0
C1736 C 0.38048 0.89971 0.3474 0.0
C1737 C 0.44225 0.80921 0.4101 0.0
H1738 H 0.30289 0.77193 0.35429 0.0
H1739 H 0.38233 0.77972 0.28189 0.0
H1740 H 0.36136 0.81682 0.42313 0.0
H1741 H 0.33866 0.84841 0.40199 0.0
H1742 H 0.31431 0.80329 0.40678 0.0
H1743 H 0.44333 0.8115 0.29579 0.0
H1744 H 0.43403 0.85556 0.30575 0.0
H1745 H 0.45737 0.83352 0.33711 0.0
H1746 H 0.40765 0.94176 0.40352 0.0
H1747 H 0.4571 0.86356 0.45659 0.0
H1748 H 0.35142 0.88781 0.34953 0.0
H1749 H 0.38814 0.88852 0.32348 0.0
H1750 H 0.38318 0.92945 0.34622 0.0
H1751 H 0.41886 0.79065 0.41905 0.0
H1752 H 0.46648 0.80992 0.42832 0.0
H1753 H 0.44767 0.79786 0.38536 0.0
C1754 C 0.17483 0.36247 0.29553 0.0
C1755 C 0.21258 0.36482 0.29921 0.0
C1756 C 0.15797 0.38004 0.31912 0.0
C1757 C 0.17984 0.40067 0.34627 0.0
C1758 C 0.21825 0.40707 0.3474 0.0
C1759 C 0.2344 0.38886 0.32352 0.0
C1760 C 0.11682 0.37279 0.31717 0.0
C1761 C 0.24208 0.42953 0.37594 0.0
C1762 C 0.13278 0.452 0.40519 0.0
C1763 C 0.12432 0.42654 0.42922 0.0
C1764 C 0.15142 0.44416 0.37801 0.0
C1765 C 0.16257 0.4106 0.3758 0.0
C1766 C 0.15525 0.38527 0.4008 0.0
C1767 C 0.13541 0.39339 0.42716 0.0
C1768 C 0.1575 0.47086 0.35092 0.0
C1769 C 0.16722 0.34923 0.39906 0.0
H1770 H 0.15818 0.34409 0.27622 0.0
H1771 H 0.2637 0.39077 0.3259 0.0
H1772 H 0.10744 0.35258 0.33554 0.0
H1773 H 0.10664 0.39769 0.32376 0.0
H1774 H 0.10431 0.36192 0.29169 0.0
H1775 H 0.27091 0.43665 0.37015 0.0
H1776 H 0.2321 0.45478 0.38165 0.0
H1777 H 0.24107 0.41402 0.39897 0.0
H1778 H 0.12311 0.47732 0.40673 0.0
H1779 H 0.12829 0.37391 0.44589 0.0
H1780 H 0.14219 0.45881 0.32686 0.0
H1781 H 0.18674 0.47711 0.3465 0.0
H1782 H 0.1485 0.4965 0.35742 0.0
H1783 H 0.15279 0.33255 0.37667 0.0
H1784 H 0.16156 0.33393 0.42183 0.0
H1785 H 0.19685 0.35324 0.39625 0.0
C1786 C 0.32805 0.22797 0.65058 0.0
C1787 C 0.30695 0.21295 0.67576 0.0
C1788 C 0.34712 0.20694 0.63108 0.0
C1789 C 0.34477 0.16958 0.6363 0.0
C1790 C 0.32406 0.15447 0.66223 0.0
C1791 C 0.3058 0.1763 0.68173 0.0
C1792 C 0.36935 0.22463 0.60438 0.0
C1793 C 0.32055 0.11498 0.669 0.0
C1794 C 0.36232 0.10797 0.56253 0.0
C1795 C 0.39905 0.10574 0.56999 0.0
C1796 C 0.34445 0.12846 0.5838 0.0
C1797 C 0.3632 0.14639 0.61405 0.0
C1798 C 0.39993 0.14305 0.62227 0.0
C1799 C 0.41752 0.12349 0.59993 0.0
C1800 C 0.3056 0.13155 0.57349 0.0
C1801 C 0.42084 0.16038 0.65462 0.0
H1802 H 0.32942 0.25625 0.64587 0.0
H1803 H 0.28993 0.1644 0.70129 0.0
H1804 H 0.39791 0.22077 0.60872 0.0
H1805 H 0.35831 0.21165 0.57923 0.0
H1806 H 0.3694 0.25405 0.60399 0.0
H1807 H 0.30554 0.10782 0.69137 0.0
H1808 H 0.30587 0.09817 0.64679 0.0
H1809 H 0.34791 0.1079 0.67301 0.0
H1810 H 0.34784 0.09459 0.53941 0.0
H1811 H 0.44578 0.12169 0.60612 0.0
H1812 H 0.30394 0.16036 0.57078 0.0
H1813 H 0.2879 0.12149 0.59332 0.0
H1814 H 0.29471 0.11612 0.54931 0.0
H1815 H 0.42513 0.19022 0.65389 0.0
H1816 H 0.44781 0.15245 0.65898 0.0
H1817 H 0.40502 0.15273 0.67636 0.0
C1818 C 0.81615 0.34471 0.63074 0.0
C1819 C 0.81515 0.31048 0.64273 0.0
C1820 C 0.84759 0.363 0.61814 0.0
C1821 C 0.87888 0.34684 0.61887 0.0
C1822 C 0.87835 0.31275 0.63215 0.0
C1823 C 0.84601 0.29447 0.64327 0.0
C1824 C 0.84707 0.39941 0.60381 0.0
C1825 C 0.91197 0.29607 0.63529 0.0
C1826 C 0.92733 0.38215 0.54721 0.0
C1827 C 0.94567 0.41531 0.56218 0.0
C1828 C 0.90903 0.35623 0.56666 0.0
C1829 C 0.91005 0.36411 0.60172 0.0
C1830 C 0.9338 0.39504 0.61744 0.0
C1831 C 0.95088 0.42114 0.59713 0.0
C1832 C 0.88369 0.32377 0.54885 0.0
C1833 C 0.9372 0.40271 0.65509 0.0
H1834 H 0.79239 0.35715 0.63137 0.0
H1835 H 0.84545 0.2684 0.65389 0.0
H1836 H 0.86747 0.42062 0.61859 0.0
H1837 H 0.85437 0.39906 0.57744 0.0
H1838 H 0.82 0.40724 0.6041 0.0
H1839 H 0.90693 0.26954 0.64686 0.0
H1840 H 0.92191 0.2923 0.61025 0.0
H1841 H 0.93416 0.31454 0.65102 0.0
H1842 H 0.92391 0.37818 0.51994 0.0
H1843 H 0.96569 0.44698 0.6083 0.0
H1844 H 0.85528 0.3284 0.54785 0.0
H1845 H 0.88474 0.29901 0.56254 0.0
H1846 H 0.89033 0.31895 0.52263 0.0
H1847 H 0.91236 0.41162 0.66268 0.0
H1848 H 0.96108 0.42431 0.66359 0.0
H1849 H 0.93973 0.37787 0.66825 0.0
C1850 C 0.22357 0.63391 0.66753 0.0
C1851 C 0.20617 0.65097 0.69134 0.0
C1852 C 0.20306 0.60971 0.64256 0.0
C1853 C 0.1647 0.60431 0.64105 0.0
C1854 C 0.14737 0.6183 0.6674 0.0
C1855 C 0.1686 0.64121 0.69273 0.0
C1856 C 0.22232 0.59317 0.61605 0.0
C1857 C 0.10635 0.61307 0.66661 0.0
C1858 C 0.10507 0.60729 0.56208 0.0
C1859 C 0.08412 0.57252 0.56026 0.0
C1860 C 0.13481 0.6169 0.58631 0.0
C1861 C 0.14262 0.59118 0.60939 0.0
C1862 C 0.12342 0.55519 0.60566 0.0
C1863 C 0.09414 0.54629 0.58106 0.0
C1864 C 0.15572 0.65541 0.58913 0.0
C1865 C 0.1313 0.52706 0.62959 0.0
H1866 H 0.25292 0.64105 0.66726 0.0
H1867 H 0.15542 0.65442 0.7115 0.0
H1868 H 0.20661 0.56641 0.60597 0.0
H1869 H 0.22556 0.6112 0.59481 0.0
H1870 H 0.24991 0.58999 0.62632 0.0
H1871 H 0.0975 0.62231 0.69082 0.0
H1872 H 0.09592 0.62875 0.64634 0.0
H1873 H 0.09355 0.58426 0.66101 0.0
H1874 H 0.09744 0.62715 0.54543 0.0
H1875 H 0.07745 0.51945 0.57984 0.0
H1876 H 0.18546 0.65594 0.59157 0.0
H1877 H 0.14916 0.66961 0.61207 0.0
H1878 H 0.14901 0.67059 0.56696 0.0
H1879 H 0.16099 0.52996 0.63651 0.0
H1880 H 0.12035 0.49924 0.61859 0.0
H1881 H 0.11821 0.53058 0.6531 0.0
loop_
_geom_bond_atom_site_label_1
_geom_bond_atom_site_label_2
_geom_bond_distance
_geom_bond_site_symmetry_2
_ccdc_geom_bond_type
Tb0 O3 2.453 . S
Tb0 O4 2.596 . S
Tb0 O5 2.374 . S
Tb0 O13 2.343 . S
Tb0 O15 2.353 . S
Tb0 O17 2.427 . S
Tb0 O18 2.513 . S
C1 O5 1.251 . S
C1 O7 1.263 . S
Tb2 O4 2.343 . S
Tb2 O7 2.353 . S
Tb2 O10 2.427 . S
Tb2 O11 2.513 . S
Tb2 O12 2.453 . S
Tb2 O13 2.596 . S
Tb2 O14 2.374 . S
O3 Tb0 2.453 . S
O3 C19 1.245 . S
O4 Tb0 2.596 . S
O4 Tb2 2.343 . S
O4 C19 1.259 . S
O5 Tb0 2.374 . S
O5 C1 1.251 . S
C6 O10 1.275 . S
C6 O11 1.246 . S
O7 C1 1.263 . S
O7 Tb2 2.353 . S
C8 O12 1.245 . S
C8 O13 1.259 . S
C9 O14 1.250 . S
C9 O15 1.263 . S
O10 Tb2 2.427 . S
O10 C6 1.275 . S
O11 Tb2 2.513 . S
O11 C6 1.246 . S
O12 Tb2 2.453 . S
O12 C8 1.245 . S
O13 Tb0 2.343 . S
O13 Tb2 2.596 . S
O13 C8 1.259 . S
O14 Tb2 2.374 . S
O14 C9 1.250 . S
O15 Tb0 2.353 . S
O15 C9 1.263 . S
C16 O17 1.275 . S
C16 O18 1.246 . S
O17 Tb0 2.427 . S
O17 C16 1.275 . S
O18 Tb0 2.513 . S
O18 C16 1.246 . S
C19 O3 1.245 . S
C19 O4 1.259 . S
Tb20 O23 2.453 . S
Tb20 O24 2.596 . S
Tb20 O25 2.374 . S
Tb20 O33 2.343 . S
Tb20 O35 2.353 . S
Tb20 O37 2.427 . S
Tb20 O38 2.513 . S
C21 O25 1.251 . S
C21 O27 1.263 . S
Tb22 O24 2.343 . S
Tb22 O27 2.353 . S
Tb22 O30 2.427 . S
Tb22 O31 2.513 . S
Tb22 O32 2.453 . S
Tb22 O33 2.596 . S
Tb22 O34 2.374 . S
O23 Tb20 2.453 . S
O23 C39 1.245 . S
O24 Tb20 2.596 . S
O24 Tb22 2.343 . S
O24 C39 1.259 . S
O25 Tb20 2.374 . S
O25 C21 1.251 . S
C26 O30 1.275 . S
C26 O31 1.246 . S
O27 C21 1.263 . S
O27 Tb22 2.353 . S
C28 O32 1.245 . S
C28 O33 1.259 . S
C29 O34 1.250 . S
C29 O35 1.263 . S
O30 Tb22 2.427 . S
O30 C26 1.275 . S
O31 Tb22 2.513 . S
O31 C26 1.246 . S
O32 Tb22 2.453 . S
O32 C28 1.245 . S
O33 Tb20 2.343 . S
O33 Tb22 2.596 . S
O33 C28 1.259 . S
O34 Tb22 2.374 . S
O34 C29 1.250 . S
O35 Tb20 2.353 . S
O35 C29 1.263 . S
C36 O37 1.275 . S
C36 O38 1.246 . S
O37 Tb20 2.427 . S
O37 C36 1.275 . S
O38 Tb20 2.513 . S
O38 C36 1.246 . S
C39 O23 1.245 . S
C39 O24 1.259 . S
Tb40 O43 2.453 . S
Tb40 O44 2.596 . S
Tb40 O45 2.374 . S
Tb40 O53 2.343 . S
Tb40 O55 2.353 . S
Tb40 O57 2.427 . S
Tb40 O58 2.513 . S
C41 O45 1.251 . S
C41 O47 1.263 . S
Tb42 O44 2.343 . S
Tb42 O47 2.353 . S
Tb42 O50 2.427 . S
Tb42 O51 2.513 . S
Tb42 O52 2.453 . S
Tb42 O53 2.596 . S
Tb42 O54 2.374 . S
O43 Tb40 2.453 . S
O43 C59 1.245 . S
O44 Tb40 2.596 . S
O44 Tb42 2.343 . S
O44 C59 1.259 . S
O45 Tb40 2.374 . S
O45 C41 1.251 . S
C46 O50 1.275 . S
C46 O51 1.246 . S
O47 C41 1.263 . S
O47 Tb42 2.353 . S
C48 O52 1.245 . S
C48 O53 1.259 . S
C49 O54 1.250 . S
C49 O55 1.263 . S
O50 Tb42 2.427 . S
O50 C46 1.275 . S
O51 Tb42 2.513 . S
O51 C46 1.246 . S
O52 Tb42 2.453 . S
O52 C48 1.245 . S
O53 Tb40 2.343 . S
O53 Tb42 2.596 . S
O53 C48 1.259 . S
O54 Tb42 2.374 . S
O54 C49 1.250 . S
O55 Tb40 2.353 . S
O55 C49 1.263 . S
C56 O57 1.275 . S
C56 O58 1.246 . S
O57 Tb40 2.427 . S
O57 C56 1.275 . S
O58 Tb40 2.513 . S
O58 C56 1.246 . S
C59 O43 1.245 . S
C59 O44 1.259 . S
Tb60 O63 2.453 . S
Tb60 O64 2.596 . S
Tb60 O65 2.374 . S
Tb60 O73 2.343 . S
Tb60 O75 2.353 . S
Tb60 O77 2.427 . S
Tb60 O78 2.513 . S
C61 O65 1.251 . S
C61 O67 1.263 . S
Tb62 O64 2.343 . S
Tb62 O67 2.353 . S
Tb62 O70 2.427 . S
Tb62 O71 2.513 . S
Tb62 O72 2.453 . S
Tb62 O73 2.596 . S
Tb62 O74 2.374 . S
O63 Tb60 2.453 . S
O63 C79 1.245 . S
O64 Tb60 2.596 . S
O64 Tb62 2.343 . S
O64 C79 1.259 . S
O65 Tb60 2.374 . S
O65 C61 1.251 . S
C66 O70 1.275 . S
C66 O71 1.246 . S
O67 C61 1.263 . S
O67 Tb62 2.353 . S
C68 O72 1.245 . S
C68 O73 1.259 . S
C69 O74 1.250 . S
C69 O75 1.263 . S
O70 Tb62 2.427 . S
O70 C66 1.275 . S
O71 Tb62 2.513 . S
O71 C66 1.246 . S
O72 Tb62 2.453 . S
O72 C68 1.245 . S
O73 Tb60 2.343 . S
O73 Tb62 2.596 . S
O73 C68 1.259 . S
O74 Tb62 2.374 . S
O74 C69 1.250 . S
O75 Tb60 2.353 . S
O75 C69 1.263 . S
C76 O77 1.275 . S
C76 O78 1.246 . S
O77 Tb60 2.427 . S
O77 C76 1.275 . S
O78 Tb60 2.513 . S
O78 C76 1.246 . S
C79 O63 1.245 . S
C79 O64 1.259 . S
Tb80 O83 2.453 . S
Tb80 O84 2.596 . S
Tb80 O85 2.374 . S
Tb80 O93 2.343 . S
Tb80 O95 2.353 . S
Tb80 O97 2.427 . S
Tb80 O98 2.513 . S
C81 O85 1.251 . S
C81 O87 1.263 . S
Tb82 O84 2.343 . S
Tb82 O87 2.353 . S
Tb82 O90 2.427 . S
Tb82 O91 2.513 . S
Tb82 O92 2.453 . S
Tb82 O93 2.596 . S
Tb82 O94 2.374 . S
O83 Tb80 2.453 . S
O83 C99 1.245 . S
O84 Tb80 2.596 . S
O84 Tb82 2.343 . S
O84 C99 1.259 . S
O85 Tb80 2.374 . S
O85 C81 1.251 . S
C86 O90 1.275 . S
C86 O91 1.246 . S
O87 C81 1.263 . S
O87 Tb82 2.353 . S
C88 O92 1.245 . S
C88 O93 1.259 . S
C89 O94 1.250 . S
C89 O95 1.263 . S
O90 Tb82 2.427 . S
O90 C86 1.275 . S
O91 Tb82 2.513 . S
O91 C86 1.246 . S
O92 Tb82 2.453 . S
O92 C88 1.245 . S
O93 Tb80 2.343 . S
O93 Tb82 2.596 . S
O93 C88 1.259 . S
O94 Tb82 2.374 . S
O94 C89 1.250 . S
O95 Tb80 2.353 . S
O95 C89 1.263 . S
C96 O97 1.275 . S
C96 O98 1.246 . S
O97 Tb80 2.427 . S
O97 C96 1.275 . S
O98 Tb80 2.513 . S
O98 C96 1.246 . S
C99 O83 1.245 . S
C99 O84 1.259 . S
Tb100 O103 2.453 . S
Tb100 O104 2.596 . S
Tb100 O105 2.374 . S
Tb100 O113 2.343 . S
Tb100 O115 2.353 . S
Tb100 O117 2.427 . S
Tb100 O118 2.513 . S
C101 O105 1.251 . S
C101 O107 1.263 . S
Tb102 O104 2.343 . S
Tb102 O107 2.353 . S
Tb102 O110 2.427 . S
Tb102 O111 2.513 . S
Tb102 O112 2.453 . S
Tb102 O113 2.596 . S
Tb102 O114 2.374 . S
O103 Tb100 2.453 . S
O103 C119 1.245 . S
O104 Tb100 2.596 . S
O104 Tb102 2.343 . S
O104 C119 1.259 . S
O105 Tb100 2.374 . S
O105 C101 1.251 . S
C106 O110 1.275 . S
C106 O111 1.246 . S
O107 C101 1.263 . S
O107 Tb102 2.353 . S
C108 O112 1.245 . S
C108 O113 1.259 . S
C109 O114 1.250 . S
C109 O115 1.263 . S
O110 Tb102 2.427 . S
O110 C106 1.275 . S
O111 Tb102 2.513 . S
O111 C106 1.246 . S
O112 Tb102 2.453 . S
O112 C108 1.245 . S
O113 Tb100 2.343 . S
O113 Tb102 2.596 . S
O113 C108 1.259 . S
O114 Tb102 2.374 . S
O114 C109 1.250 . S
O115 Tb100 2.353 . S
O115 C109 1.263 . S
C116 O117 1.275 . S
C116 O118 1.246 . S
O117 Tb100 2.427 . S
O117 C116 1.275 . S
O118 Tb100 2.513 . S
O118 C116 1.246 . S
C119 O103 1.245 . S
C119 O104 1.259 . S
Tb120 O123 2.453 . S
Tb120 O124 2.596 . S
Tb120 O125 2.374 . S
Tb120 O133 2.343 . S
Tb120 O135 2.353 . S
Tb120 O137 2.427 . S
Tb120 O138 2.513 . S
C121 O125 1.251 . S
C121 O127 1.263 . S
Tb122 O124 2.343 . S
Tb122 O127 2.353 . S
Tb122 O130 2.427 . S
Tb122 O131 2.513 . S
Tb122 O132 2.453 . S
Tb122 O133 2.596 . S
Tb122 O134 2.374 . S
O123 Tb120 2.453 . S
O123 C139 1.245 . S
O124 Tb120 2.596 . S
O124 Tb122 2.343 . S
O124 C139 1.259 . S
O125 Tb120 2.374 . S
O125 C121 1.251 . S
C126 O130 1.275 . S
C126 O131 1.246 . S
O127 C121 1.263 . S
O127 Tb122 2.353 . S
C128 O132 1.245 . S
C128 O133 1.259 . S
C129 O134 1.250 . S
C129 O135 1.263 . S
O130 Tb122 2.427 . S
O130 C126 1.275 . S
O131 Tb122 2.513 . S
O131 C126 1.246 . S
O132 Tb122 2.453 . S
O132 C128 1.245 . S
O133 Tb120 2.343 . S
O133 Tb122 2.596 . S
O133 C128 1.259 . S
O134 Tb122 2.374 . S
O134 C129 1.250 . S
O135 Tb120 2.353 . S
O135 C129 1.263 . S
C136 O137 1.275 . S
C136 O138 1.246 . S
O137 Tb120 2.427 . S
O137 C136 1.275 . S
O138 Tb120 2.513 . S
O138 C136 1.246 . S
C139 O123 1.245 . S
C139 O124 1.259 . S
Tb140 O143 2.453 . S
Tb140 O144 2.596 . S
Tb140 O145 2.374 . S
Tb140 O153 2.343 . S
Tb140 O155 2.353 . S
Tb140 O157 2.427 . S
Tb140 O158 2.513 . S
C141 O145 1.251 . S
C141 O147 1.263 . S
Tb142 O144 2.343 . S
Tb142 O147 2.353 . S
Tb142 O150 2.427 . S
Tb142 O151 2.513 . S
Tb142 O152 2.453 . S
Tb142 O153 2.596 . S
Tb142 O154 2.374 . S
O143 Tb140 2.453 . S
O143 C159 1.245 . S
O144 Tb140 2.596 . S
O144 Tb142 2.343 . S
O144 C159 1.259 . S
O145 Tb140 2.374 . S
O145 C141 1.251 . S
C146 O150 1.275 . S
C146 O151 1.246 . S
O147 C141 1.263 . S
O147 Tb142 2.353 . S
C148 O152 1.245 . S
C148 O153 1.259 . S
C149 O154 1.250 . S
C149 O155 1.263 . S
O150 Tb142 2.427 . S
O150 C146 1.275 . S
O151 Tb142 2.513 . S
O151 C146 1.246 . S
O152 Tb142 2.453 . S
O152 C148 1.245 . S
O153 Tb140 2.343 . S
O153 Tb142 2.596 . S
O153 C148 1.259 . S
O154 Tb142 2.374 . S
O154 C149 1.250 . S
O155 Tb140 2.353 . S
O155 C149 1.263 . S
C156 O157 1.275 . S
C156 O158 1.246 . S
O157 Tb140 2.427 . S
O157 C156 1.275 . S
O158 Tb140 2.513 . S
O158 C156 1.246 . S
C159 O143 1.245 . S
C159 O144 1.259 . S
C160 O172 1.241 . S
C160 O173 1.280 . S
C161 O174 1.277 . S
C161 O175 1.245 . S
C162 O186 1.247 . S
C162 O188 1.289 . S
Mg163 O164 1.926 . S
Mg163 O173 1.984 . S
Mg163 O175 1.988 . S
Mg163 O176 2.061 1_655 S
O164 Mg163 1.926 . S
O164 Mg165 1.986 . S
O164 Mg166 1.917 1_655 S
Mg165 O164 1.986 . S
Mg165 O172 2.042 . S
Mg165 O174 2.041 . S
Mg165 O180 2.038 1_545 S
Mg165 O188 2.238 1_545 S
Mg166 O164 1.917 1_455 S
Mg166 O167 1.917 1_545 S
Mg166 O177 2.106 . S
Mg166 O179 2.079 1_445 S
Mg166 O188 2.106 1_445 S
Mg166 O189 2.079 . S
O167 Mg166 1.917 1_565 S
O167 Mg168 1.926 . S
O167 Mg169 1.986 . S
Mg168 O167 1.926 . S
Mg168 O182 1.984 . S
Mg168 O185 1.988 . S
Mg168 O186 2.061 1_455 S
Mg169 O167 1.986 . S
Mg169 O177 2.238 1_565 S
Mg169 O181 2.042 . S
Mg169 O183 2.041 . S
Mg169 O190 2.038 1_565 S
C170 O176 1.247 . S
C170 O177 1.289 . S
C171 O189 1.245 . S
C171 O190 1.274 . S
O172 C160 1.241 . S
O172 Mg165 2.042 . S
O173 C160 1.280 . S
O173 Mg163 1.984 . S
O174 C161 1.277 . S
O174 Mg165 2.041 . S
O175 C161 1.245 . S
O175 Mg163 1.988 . S
O176 Mg163 2.061 1_455 S
O176 C170 1.247 . S
O177 Mg166 2.106 . S
O177 Mg169 2.238 1_545 S
O177 C170 1.289 . S
C178 O179 1.245 . S
C178 O180 1.274 . S
O179 Mg166 2.079 1_665 S
O179 C178 1.245 . S
O180 Mg165 2.038 1_565 S
O180 C178 1.274 . S
O181 Mg169 2.042 . S
O181 C184 1.241 . S
O182 Mg168 1.984 . S
O182 C184 1.280 . S
O183 Mg169 2.041 . S
O183 C187 1.277 . S
C184 O181 1.241 . S
C184 O182 1.280 . S
O185 Mg168 1.988 . S
O185 C187 1.245 . S
O186 C162 1.247 . S
O186 Mg168 2.061 1_655 S
C187 O183 1.277 . S
C187 O185 1.245 . S
O188 C162 1.289 . S
O188 Mg165 2.238 1_565 S
O188 Mg166 2.106 1_665 S
O189 Mg166 2.079 . S
O189 C171 1.245 . S
O190 Mg169 2.038 1_545 S
O190 C171 1.274 . S
C191 O203 1.241 . S
C191 O204 1.280 . S
C192 O205 1.277 . S
C192 O206 1.245 . S
C193 O217 1.247 . S
C193 O219 1.289 . S
Mg194 O195 1.926 . S
Mg194 O204 1.984 . S
Mg194 O206 1.988 1_554 S
Mg194 O207 2.061 . S
O195 Mg194 1.926 . S
O195 Mg196 1.986 1_554 S
O195 Mg197 1.917 . S
Mg196 O195 1.986 1_556 S
Mg196 O203 2.042 1_556 S
Mg196 O205 2.041 . S
Mg196 O211 2.038 1_546 S
Mg196 O219 2.238 1_545 S
Mg197 O195 1.917 . S
Mg197 O198 1.917 1_544 S
Mg197 O208 2.106 . S
Mg197 O210 2.079 1_545 S
Mg197 O219 2.106 1_544 S
Mg197 O220 2.079 1_554 S
O198 Mg197 1.917 1_566 S
O198 Mg199 1.926 . S
O198 Mg200 1.986 1_556 S
Mg199 O198 1.926 . S
Mg199 O213 1.984 . S
Mg199 O216 1.988 1_556 S
Mg199 O217 2.061 . S
Mg200 O198 1.986 1_554 S
Mg200 O208 2.238 1_565 S
Mg200 O212 2.042 1_554 S
Mg200 O214 2.041 . S
Mg200 O221 2.038 1_564 S
C201 O207 1.247 . S
C201 O208 1.289 . S
C202 O220 1.245 . S
C202 O221 1.274 . S
O203 C191 1.241 . S
O203 Mg196 2.042 1_554 S
O204 C191 1.280 . S
O204 Mg194 1.984 . S
O205 C192 1.277 . S
O205 Mg196 2.041 . S
O206 C192 1.245 . S
O206 Mg194 1.988 1_556 S
O207 Mg194 2.061 . S
O207 C201 1.247 . S
O208 Mg197 2.106 . S
O208 Mg200 2.238 1_545 S
O208 C201 1.289 . S
C209 O210 1.245 . S
C209 O211 1.274 . S
O210 Mg197 2.079 1_565 S
O210 C209 1.245 . S
O211 Mg196 2.038 1_564 S
O211 C209 1.274 . S
O212 Mg200 2.042 1_556 S
O212 C215 1.241 . S
O213 Mg199 1.984 . S
O213 C215 1.280 . S
O214 Mg200 2.041 . S
O214 C218 1.277 . S
C215 O212 1.241 . S
C215 O213 1.280 . S
O216 Mg199 1.988 1_554 S
O216 C218 1.245 . S
O217 C193 1.247 . S
O217 Mg199 2.061 . S
C218 O214 1.277 . S
C218 O216 1.245 . S
O219 C193 1.289 . S
O219 Mg196 2.238 1_565 S
O219 Mg197 2.106 1_566 S
O220 Mg197 2.079 1_556 S
O220 C202 1.245 . S
O221 Mg200 2.038 1_546 S
O221 C202 1.274 . S
C222 O234 1.241 . S
C222 O235 1.280 . S
C223 O236 1.277 . S
C223 O237 1.245 . S
C224 O248 1.247 . S
C224 O250 1.289 . S
Mg225 O226 1.926 . S
Mg225 O235 1.984 . S
Mg225 O237 1.988 1_554 S
Mg225 O238 2.061 1_655 S
O226 Mg225 1.926 . S
O226 Mg227 1.986 1_554 S
O226 Mg228 1.917 1_655 S
Mg227 O226 1.986 1_556 S
Mg227 O234 2.042 1_556 S
Mg227 O236 2.041 . S
Mg227 O242 2.038 1_556 S
Mg227 O250 2.238 . S
Mg228 O226 1.917 1_455 S
Mg228 O229 1.917 1_554 S
Mg228 O239 2.106 . S
Mg228 O241 2.079 1_455 S
Mg228 O250 2.106 1_454 S
Mg228 O251 2.079 1_554 S
O229 Mg228 1.917 1_556 S
O229 Mg230 1.926 . S
O229 Mg231 1.986 1_556 S
Mg230 O229 1.926 . S
Mg230 O244 1.984 . S
Mg230 O247 1.988 1_556 S
Mg230 O248 2.061 1_455 S
Mg231 O229 1.986 1_554 S
Mg231 O239 2.238 . S
Mg231 O243 2.042 1_554 S
Mg231 O245 2.041 . S
Mg231 O252 2.038 1_554 S
C232 O238 1.247 . S
C232 O239 1.289 . S
C233 O251 1.245 . S
C233 O252 1.274 . S
O234 C222 1.241 . S
O234 Mg227 2.042 1_554 S
O235 C222 1.280 . S
O235 Mg225 1.984 . S
O236 C223 1.277 . S
O236 Mg227 2.041 . S
O237 C223 1.245 . S
O237 Mg225 1.988 1_556 S
O238 Mg225 2.061 1_455 S
O238 C232 1.247 . S
O239 Mg228 2.106 . S
O239 Mg231 2.238 . S
O239 C232 1.289 . S
C240 O241 1.245 . S
C240 O242 1.274 . S
O241 Mg228 2.079 1_655 S
O241 C240 1.245 . S
O242 Mg227 2.038 1_554 S
O242 C240 1.274 . S
O243 Mg231 2.042 1_556 S
O243 C246 1.241 . S
O244 Mg230 1.984 . S
O244 C246 1.280 . S
O245 Mg231 2.041 . S
O245 C249 1.277 . S
C246 O243 1.241 . S
C246 O244 1.280 . S
O247 Mg230 1.988 1_554 S
O247 C249 1.245 . S
O248 C224 1.247 . S
O248 Mg230 2.061 1_655 S
C249 O245 1.277 . S
C249 O247 1.245 . S
O250 C224 1.289 . S
O250 Mg227 2.238 . S
O250 Mg228 2.106 1_656 S
O251 Mg228 2.079 1_556 S
O251 C233 1.245 . S
O252 Mg231 2.038 1_556 S
O252 C233 1.274 . S
C253 O265 1.241 . S
C253 O266 1.280 . S
C254 O267 1.277 . S
C254 O268 1.245 . S
C255 O279 1.247 . S
C255 O281 1.289 . S
Mg256 O257 1.926 . S
Mg256 O266 1.984 . S
Mg256 O268 1.988 1_554 S
Mg256 O269 2.061 . S
O257 Mg256 1.926 . S
O257 Mg258 1.986 1_554 S
O257 Mg259 1.917 . S
Mg258 O257 1.986 1_556 S
Mg258 O265 2.042 1_556 S
Mg258 O267 2.041 . S
Mg258 O273 2.038 1_556 S
Mg258 O281 2.238 . S
Mg259 O257 1.917 . S
Mg259 O260 1.917 1_554 S
Mg259 O270 2.106 . S
Mg259 O272 2.079 . S
Mg259 O281 2.106 1_554 S
Mg259 O282 2.079 1_554 S
O260 Mg259 1.917 1_556 S
O260 Mg261 1.926 . S
O260 Mg262 1.986 1_556 S
Mg261 O260 1.926 . S
Mg261 O275 1.984 . S
Mg261 O278 1.988 1_556 S
Mg261 O279 2.061 . S
Mg262 O260 1.986 1_554 S
Mg262 O270 2.238 . S
Mg262 O274 2.042 1_554 S
Mg262 O276 2.041 . S
Mg262 O283 2.038 1_554 S
C263 O269 1.247 . S
C263 O270 1.289 . S
C264 O282 1.245 . S
C264 O283 1.274 . S
O265 C253 1.241 . S
O265 Mg258 2.042 1_554 S
O266 C253 1.280 . S
O266 Mg256 1.984 . S
O267 C254 1.277 . S
O267 Mg258 2.041 . S
O268 C254 1.245 . S
O268 Mg256 1.988 1_556 S
O269 Mg256 2.061 . S
O269 C263 1.247 . S
O270 Mg259 2.106 . S
O270 Mg262 2.238 . S
O270 C263 1.289 . S
C271 O272 1.245 . S
C271 O273 1.274 . S
O272 Mg259 2.079 . S
O272 C271 1.245 . S
O273 Mg258 2.038 1_554 S
O273 C271 1.274 . S
O274 Mg262 2.042 1_556 S
O274 C277 1.241 . S
O275 Mg261 1.984 . S
O275 C277 1.280 . S
O276 Mg262 2.041 . S
O276 C280 1.277 . S
C277 O274 1.241 . S
C277 O275 1.280 . S
O278 Mg261 1.988 1_554 S
O278 C280 1.245 . S
O279 C255 1.247 . S
O279 Mg261 2.061 . S
C280 O276 1.277 . S
C280 O278 1.245 . S
O281 C255 1.289 . S
O281 Mg258 2.238 . S
O281 Mg259 2.106 1_556 S
O282 Mg259 2.079 1_556 S
O282 C264 1.245 . S
O283 Mg262 2.038 1_556 S
O283 C264 1.274 . S
C284 O296 1.241 . S
C284 O297 1.280 . S
C285 O298 1.277 . S
C285 O299 1.245 . S
C286 O310 1.247 . S
C286 O312 1.289 . S
Mg287 O288 1.926 . S
Mg287 O297 1.984 . S
Mg287 O299 1.988 . S
Mg287 O300 2.061 1_655 S
O288 Mg287 1.926 . S
O288 Mg289 1.986 . S
O288 Mg290 1.917 1_655 S
Mg289 O288 1.986 . S
Mg289 O296 2.042 . S
Mg289 O298 2.041 . S
Mg289 O304 2.038 . S
Mg289 O312 2.238 . S
Mg290 O288 1.917 1_455 S
Mg290 O291 1.917 . S
Mg290 O301 2.106 . S
Mg290 O303 2.079 1_455 S
Mg290 O312 2.106 1_455 S
Mg290 O313 2.079 . S
O291 Mg290 1.917 . S
O291 Mg292 1.926 . S
O291 Mg293 1.986 . S
Mg292 O291 1.926 . S
Mg292 O306 1.984 . S
Mg292 O309 1.988 . S
Mg292 O310 2.061 1_455 S
Mg293 O291 1.986 . S
Mg293 O301 2.238 . S
Mg293 O305 2.042 . S
Mg293 O307 2.041 . S
Mg293 O314 2.038 . S
C294 O300 1.247 . S
C294 O301 1.289 . S
C295 O313 1.245 . S
C295 O314 1.274 . S
O296 C284 1.241 . S
O296 Mg289 2.042 . S
O297 C284 1.280 . S
O297 Mg287 1.984 . S
O298 C285 1.277 . S
O298 Mg289 2.041 . S
O299 C285 1.245 . S
O299 Mg287 1.988 . S
O300 Mg287 2.061 1_455 S
O300 C294 1.247 . S
O301 Mg290 2.106 . S
O301 Mg293 2.238 . S
O301 C294 1.289 . S
C302 O303 1.245 . S
C302 O304 1.274 . S
O303 Mg290 2.079 1_655 S
O303 C302 1.245 . S
O304 Mg289 2.038 . S
O304 C302 1.274 . S
O305 Mg293 2.042 . S
O305 C308 1.241 . S
O306 Mg292 1.984 . S
O306 C308 1.280 . S
O307 Mg293 2.041 . S
O307 C311 1.277 . S
C308 O305 1.241 . S
C308 O306 1.280 . S
O309 Mg292 1.988 . S
O309 C311 1.245 . S
O310 C286 1.247 . S
O310 Mg292 2.061 1_655 S
C311 O307 1.277 . S
C311 O309 1.245 . S
O312 C286 1.289 . S
O312 Mg289 2.238 . S
O312 Mg290 2.106 1_655 S
O313 Mg290 2.079 . S
O313 C295 1.245 . S
O314 Mg293 2.038 . S
O314 C295 1.274 . S
C315 O327 1.241 . S
C315 O328 1.280 . S
C316 O329 1.277 . S
C316 O330 1.245 . S
C317 O341 1.247 . S
C317 O343 1.289 . S
Mg318 O319 1.926 . S
Mg318 O328 1.984 . S
Mg318 O330 1.988 . S
Mg318 O331 2.061 . S
O319 Mg318 1.926 . S
O319 Mg320 1.986 . S
O319 Mg321 1.917 . S
Mg320 O319 1.986 . S
Mg320 O327 2.042 . S
Mg320 O329 2.041 . S
Mg320 O335 2.038 1_545 S
Mg320 O343 2.238 1_545 S
Mg321 O319 1.917 . S
Mg321 O322 1.917 1_545 S
Mg321 O332 2.106 . S
Mg321 O334 2.079 1_545 S
Mg321 O343 2.106 1_545 S
Mg321 O344 2.079 . S
O322 Mg321 1.917 1_565 S
O322 Mg323 1.926 . S
O322 Mg324 1.986 . S
Mg323 O322 1.926 . S
Mg323 O337 1.984 . S
Mg323 O340 1.988 . S
Mg323 O341 2.061 . S
Mg324 O322 1.986 . S
Mg324 O332 2.238 1_565 S
Mg324 O336 2.042 . S
Mg324 O338 2.041 . S
Mg324 O345 2.038 1_565 S
C325 O331 1.247 . S
C325 O332 1.289 . S
C326 O344 1.245 . S
C326 O345 1.274 . S
O327 C315 1.241 . S
O327 Mg320 2.042 . S
O328 C315 1.280 . S
O328 Mg318 1.984 . S
O329 C316 1.277 . S
O329 Mg320 2.041 . S
O330 C316 1.245 . S
O330 Mg318 1.988 . S
O331 Mg318 2.061 . S
O331 C325 1.247 . S
O332 Mg321 2.106 . S
O332 Mg324 2.238 1_545 S
O332 C325 1.289 . S
C333 O334 1.245 . S
C333 O335 1.274 . S
O334 Mg321 2.079 1_565 S
O334 C333 1.245 . S
O335 Mg320 2.038 1_565 S
O335 C333 1.274 . S
O336 Mg324 2.042 . S
O336 C339 1.241 . S
O337 Mg323 1.984 . S
O337 C339 1.280 . S
O338 Mg324 2.041 . S
O338 C342 1.277 . S
C339 O336 1.241 . S
C339 O337 1.280 . S
O340 Mg323 1.988 . S
O340 C342 1.245 . S
O341 C317 1.247 . S
O341 Mg323 2.061 . S
C342 O338 1.277 . S
C342 O340 1.245 . S
O343 C317 1.289 . S
O343 Mg320 2.238 1_565 S
O343 Mg321 2.106 1_565 S
O344 Mg321 2.079 . S
O344 C326 1.245 . S
O345 Mg324 2.038 1_545 S
O345 C326 1.274 . S
C346 C347 1.391 . S
C346 C348 1.394 . S
C346 H362 0.931 . S
C347 C346 1.391 . S
C347 C351 1.376 . S
C348 C346 1.394 . S
C348 C349 1.369 . S
C348 C352 1.531 . S
C349 C348 1.369 . S
C349 C350 1.410 . S
C349 C357 1.503 . S
C350 C349 1.410 . S
C350 C351 1.392 . S
C350 C353 1.511 . S
C351 C347 1.376 . S
C351 C350 1.392 . S
C351 H363 0.929 . S
C352 C348 1.531 . S
C352 H364 0.960 . S
C352 H365 0.962 . S
C352 H366 0.960 . S
C353 C350 1.511 . S
C353 H367 0.961 . S
C353 H368 0.961 . S
C353 H369 0.961 . S
C354 C355 1.370 . S
C354 C356 1.363 . S
C354 H370 0.931 . S
C355 C354 1.370 . S
C355 C359 1.408 . S
C356 C354 1.363 . S
C356 C357 1.370 . S
C356 C360 1.524 . S
C357 C349 1.503 . S
C357 C356 1.370 . S
C357 C358 1.403 . S
C358 C357 1.403 . S
C358 C359 1.404 . S
C358 C361 1.539 . S
C359 C355 1.408 . S
C359 C358 1.404 . S
C359 H371 0.930 . S
C360 C356 1.524 . S
C360 H372 0.956 . S
C360 H373 0.961 . S
C360 H374 0.961 . S
C361 C358 1.539 . S
C361 H375 0.958 . S
C361 H376 0.961 . S
C361 H377 0.960 . S
H362 C346 0.931 . S
H363 C351 0.929 . S
H364 C352 0.960 . S
H365 C352 0.962 . S
H366 C352 0.960 . S
H367 C353 0.961 . S
H368 C353 0.961 . S
H369 C353 0.961 . S
H370 C354 0.931 . S
H371 C359 0.930 . S
H372 C360 0.956 . S
H373 C360 0.961 . S
H374 C360 0.961 . S
H375 C361 0.958 . S
H376 C361 0.961 . S
H377 C361 0.960 . S
C378 C379 1.391 . S
C378 C380 1.394 . S
C378 H394 0.931 . S
C379 C378 1.391 . S
C379 C383 1.376 . S
C380 C378 1.394 . S
C380 C381 1.369 . S
C380 C384 1.531 . S
C381 C380 1.369 . S
C381 C382 1.410 . S
C381 C389 1.503 . S
C382 C381 1.410 . S
C382 C383 1.392 . S
C382 C385 1.511 . S
C383 C379 1.376 . S
C383 C382 1.392 . S
C383 H395 0.929 . S
C384 C380 1.531 . S
C384 H396 0.960 . S
C384 H397 0.962 . S
C384 H398 0.960 . S
C385 C382 1.511 . S
C385 H399 0.961 . S
C385 H400 0.961 . S
C385 H401 0.961 . S
C386 C387 1.370 . S
C386 C388 1.363 . S
C386 H402 0.931 . S
C387 C386 1.370 . S
C387 C391 1.408 . S
C388 C386 1.363 . S
C388 C389 1.370 . S
C388 C392 1.524 . S
C389 C381 1.503 . S
C389 C388 1.370 . S
C389 C390 1.403 . S
C390 C389 1.403 . S
C390 C391 1.404 . S
C390 C393 1.539 . S
C391 C387 1.408 . S
C391 C390 1.404 . S
C391 H403 0.930 . S
C392 C388 1.524 . S
C392 H404 0.956 . S
C392 H405 0.961 . S
C392 H406 0.961 . S
C393 C390 1.539 . S
C393 H407 0.958 . S
C393 H408 0.961 . S
C393 H409 0.960 . S
H394 C378 0.931 . S
H395 C383 0.929 . S
H396 C384 0.960 . S
H397 C384 0.962 . S
H398 C384 0.960 . S
H399 C385 0.961 . S
H400 C385 0.961 . S
H401 C385 0.961 . S
H402 C386 0.931 . S
H403 C391 0.930 . S
H404 C392 0.956 . S
H405 C392 0.961 . S
H406 C392 0.961 . S
H407 C393 0.958 . S
H408 C393 0.961 . S
H409 C393 0.960 . S
C410 C411 1.391 . S
C410 C412 1.394 . S
C410 H426 0.931 . S
C411 C410 1.391 . S
C411 C415 1.376 . S
C412 C410 1.394 . S
C412 C413 1.369 . S
C412 C416 1.531 . S
C413 C412 1.369 . S
C413 C414 1.410 . S
C413 C421 1.503 . S
C414 C413 1.410 . S
C414 C415 1.392 . S
C414 C417 1.511 . S
C415 C411 1.376 . S
C415 C414 1.392 . S
C415 H427 0.929 . S
C416 C412 1.531 . S
C416 H428 0.960 . S
C416 H429 0.962 . S
C416 H430 0.960 . S
C417 C414 1.511 . S
C417 H431 0.961 . S
C417 H432 0.961 . S
C417 H433 0.961 . S
C418 C419 1.370 . S
C418 C420 1.363 . S
C418 H434 0.931 . S
C419 C418 1.370 . S
C419 C423 1.408 . S
C420 C418 1.363 . S
C420 C421 1.370 . S
C420 C424 1.524 . S
C421 C413 1.503 . S
C421 C420 1.370 . S
C421 C422 1.403 . S
C422 C421 1.403 . S
C422 C423 1.404 . S
C422 C425 1.539 . S
C423 C419 1.408 . S
C423 C422 1.404 . S
C423 H435 0.930 . S
C424 C420 1.524 . S
C424 H436 0.956 . S
C424 H437 0.961 . S
C424 H438 0.961 . S
C425 C422 1.539 . S
C425 H439 0.958 . S
C425 H440 0.961 . S
C425 H441 0.960 . S
H426 C410 0.931 . S
H427 C415 0.929 . S
H428 C416 0.960 . S
H429 C416 0.962 . S
H430 C416 0.960 . S
H431 C417 0.961 . S
H432 C417 0.961 . S
H433 C417 0.961 . S
H434 C418 0.931 . S
H435 C423 0.930 . S
H436 C424 0.956 . S
H437 C424 0.961 . S
H438 C424 0.961 . S
H439 C425 0.958 . S
H440 C425 0.961 . S
H441 C425 0.960 . S
C442 C443 1.391 . S
C442 C444 1.394 . S
C442 H458 0.931 . S
C443 C442 1.391 . S
C443 C447 1.376 . S
C444 C442 1.394 . S
C444 C445 1.369 . S
C444 C448 1.531 . S
C445 C444 1.369 . S
C445 C446 1.410 . S
C445 C453 1.503 . S
C446 C445 1.410 . S
C446 C447 1.392 . S
C446 C449 1.511 . S
C447 C443 1.376 . S
C447 C446 1.392 . S
C447 H459 0.929 . S
C448 C444 1.531 . S
C448 H460 0.960 . S
C448 H461 0.962 . S
C448 H462 0.960 . S
C449 C446 1.511 . S
C449 H463 0.961 . S
C449 H464 0.961 . S
C449 H465 0.961 . S
C450 C451 1.370 . S
C450 C452 1.363 . S
C450 H466 0.931 . S
C451 C450 1.370 . S
C451 C455 1.408 . S
C452 C450 1.363 . S
C452 C453 1.370 . S
C452 C456 1.524 . S
C453 C445 1.503 . S
C453 C452 1.370 . S
C453 C454 1.403 . S
C454 C453 1.403 . S
C454 C455 1.404 . S
C454 C457 1.539 . S
C455 C451 1.408 . S
C455 C454 1.404 . S
C455 H467 0.930 . S
C456 C452 1.524 . S
C456 H468 0.956 . S
C456 H469 0.961 . S
C456 H470 0.961 . S
C457 C454 1.539 . S
C457 H471 0.958 . S
C457 H472 0.961 . S
C457 H473 0.960 . S
H458 C442 0.931 . S
H459 C447 0.929 . S
H460 C448 0.960 . S
H461 C448 0.962 . S
H462 C448 0.960 . S
H463 C449 0.961 . S
H464 C449 0.961 . S
H465 C449 0.961 . S
H466 C450 0.931 . S
H467 C455 0.930 . S
H468 C456 0.956 . S
H469 C456 0.961 . S
H470 C456 0.961 . S
H471 C457 0.958 . S
H472 C457 0.961 . S
H473 C457 0.960 . S
C474 C475 1.391 . S
C474 C476 1.394 . S
C474 H490 0.931 . S
C475 C474 1.391 . S
C475 C479 1.376 . S
C476 C474 1.394 . S
C476 C477 1.369 . S
C476 C480 1.531 . S
C477 C476 1.369 . S
C477 C478 1.410 . S
C477 C485 1.503 . S
C478 C477 1.410 . S
C478 C479 1.392 . S
C478 C481 1.511 . S
C479 C475 1.376 . S
C479 C478 1.392 . S
C479 H491 0.929 . S
C480 C476 1.531 . S
C480 H492 0.960 . S
C480 H493 0.962 . S
C480 H494 0.960 . S
C481 C478 1.511 . S
C481 H495 0.961 . S
C481 H496 0.961 . S
C481 H497 0.961 . S
C482 C483 1.370 . S
C482 C484 1.363 . S
C482 H498 0.931 . S
C483 C482 1.370 . S
C483 C487 1.408 . S
C484 C482 1.363 . S
C484 C485 1.370 . S
C484 C488 1.524 . S
C485 C477 1.503 . S
C485 C484 1.370 . S
C485 C486 1.403 . S
C486 C485 1.403 . S
C486 C487 1.404 . S
C486 C489 1.539 . S
C487 C483 1.408 . S
C487 C486 1.404 . S
C487 H499 0.930 . S
C488 C484 1.524 . S
C488 H500 0.956 . S
C488 H501 0.961 . S
C488 H502 0.961 . S
C489 C486 1.539 . S
C489 H503 0.958 . S
C489 H504 0.961 . S
C489 H505 0.960 . S
H490 C474 0.931 . S
H491 C479 0.929 . S
H492 C480 0.960 . S
H493 C480 0.962 . S
H494 C480 0.960 . S
H495 C481 0.961 . S
H496 C481 0.961 . S
H497 C481 0.961 . S
H498 C482 0.931 . S
H499 C487 0.930 . S
H500 C488 0.956 . S
H501 C488 0.961 . S
H502 C488 0.961 . S
H503 C489 0.958 . S
H504 C489 0.961 . S
H505 C489 0.960 . S
C506 C507 1.391 . S
C506 C508 1.394 . S
C506 H522 0.931 . S
C507 C506 1.391 . S
C507 C511 1.376 . S
C508 C506 1.394 . S
C508 C509 1.369 . S
C508 C512 1.531 . S
C509 C508 1.369 . S
C509 C510 1.410 . S
C509 C517 1.503 . S
C510 C509 1.410 . S
C510 C511 1.392 . S
C510 C513 1.511 . S
C511 C507 1.376 . S
C511 C510 1.392 . S
C511 H523 0.929 . S
C512 C508 1.531 . S
C512 H524 0.960 . S
C512 H525 0.962 . S
C512 H526 0.960 . S
C513 C510 1.511 . S
C513 H527 0.961 . S
C513 H528 0.961 . S
C513 H529 0.961 . S
C514 C515 1.370 . S
C514 C516 1.363 . S
C514 H530 0.931 . S
C515 C514 1.370 . S
C515 C519 1.408 . S
C516 C514 1.363 . S
C516 C517 1.370 . S
C516 C520 1.524 . S
C517 C509 1.503 . S
C517 C516 1.370 . S
C517 C518 1.403 . S
C518 C517 1.403 . S
C518 C519 1.404 . S
C518 C521 1.539 . S
C519 C515 1.408 . S
C519 C518 1.404 . S
C519 H531 0.930 . S
C520 C516 1.524 . S
C520 H532 0.956 . S
C520 H533 0.961 . S
C520 H534 0.961 . S
C521 C518 1.539 . S
C521 H535 0.958 . S
C521 H536 0.961 . S
C521 H537 0.960 . S
H522 C506 0.931 . S
H523 C511 0.929 . S
H524 C512 0.960 . S
H525 C512 0.962 . S
H526 C512 0.960 . S
H527 C513 0.961 . S
H528 C513 0.961 . S
H529 C513 0.961 . S
H530 C514 0.931 . S
H531 C519 0.930 . S
H532 C520 0.956 . S
H533 C520 0.961 . S
H534 C520 0.961 . S
H535 C521 0.958 . S
H536 C521 0.961 . S
H537 C521 0.960 . S
C538 C539 1.391 . S
C538 C540 1.394 . S
C538 H554 0.931 . S
C539 C538 1.391 . S
C539 C543 1.376 . S
C540 C538 1.394 . S
C540 C541 1.369 . S
C540 C544 1.531 . S
C541 C540 1.369 . S
C541 C542 1.410 . S
C541 C549 1.503 . S
C542 C541 1.410 . S
C542 C543 1.392 . S
C542 C545 1.511 . S
C543 C539 1.376 . S
C543 C542 1.392 . S
C543 H555 0.929 . S
C544 C540 1.531 . S
C544 H556 0.960 . S
C544 H557 0.962 . S
C544 H558 0.960 . S
C545 C542 1.511 . S
C545 H559 0.961 . S
C545 H560 0.961 . S
C545 H561 0.961 . S
C546 C547 1.370 . S
C546 C548 1.363 . S
C546 H562 0.931 . S
C547 C546 1.370 . S
C547 C551 1.408 . S
C548 C546 1.363 . S
C548 C549 1.370 . S
C548 C552 1.524 . S
C549 C541 1.503 . S
C549 C548 1.370 . S
C549 C550 1.403 . S
C550 C549 1.403 . S
C550 C551 1.404 . S
C550 C553 1.539 . S
C551 C547 1.408 . S
C551 C550 1.404 . S
C551 H563 0.930 . S
C552 C548 1.524 . S
C552 H564 0.956 . S
C552 H565 0.961 . S
C552 H566 0.961 . S
C553 C550 1.539 . S
C553 H567 0.958 . S
C553 H568 0.961 . S
C553 H569 0.960 . S
H554 C538 0.931 . S
H555 C543 0.929 . S
H556 C544 0.960 . S
H557 C544 0.962 . S
H558 C544 0.960 . S
H559 C545 0.961 . S
H560 C545 0.961 . S
H561 C545 0.961 . S
H562 C546 0.931 . S
H563 C551 0.930 . S
H564 C552 0.956 . S
H565 C552 0.961 . S
H566 C552 0.961 . S
H567 C553 0.958 . S
H568 C553 0.961 . S
H569 C553 0.960 . S
C570 C571 1.391 . S
C570 C572 1.394 . S
C570 H586 0.931 . S
C571 C570 1.391 . S
C571 C575 1.376 . S
C572 C570 1.394 . S
C572 C573 1.369 . S
C572 C576 1.531 . S
C573 C572 1.369 . S
C573 C574 1.410 . S
C573 C581 1.503 . S
C574 C573 1.410 . S
C574 C575 1.392 . S
C574 C577 1.511 . S
C575 C571 1.376 . S
C575 C574 1.392 . S
C575 H587 0.929 . S
C576 C572 1.531 . S
C576 H588 0.960 . S
C576 H589 0.962 . S
C576 H590 0.960 . S
C577 C574 1.511 . S
C577 H591 0.961 . S
C577 H592 0.961 . S
C577 H593 0.961 . S
C578 C579 1.370 . S
C578 C580 1.363 . S
C578 H594 0.931 . S
C579 C578 1.370 . S
C579 C583 1.408 . S
C580 C578 1.363 . S
C580 C581 1.370 . S
C580 C584 1.524 . S
C581 C573 1.503 . S
C581 C580 1.370 . S
C581 C582 1.403 . S
C582 C581 1.403 . S
C582 C583 1.404 . S
C582 C585 1.539 . S
C583 C579 1.408 . S
C583 C582 1.404 . S
C583 H595 0.930 . S
C584 C580 1.524 . S
C584 H596 0.956 . S
C584 H597 0.961 . S
C584 H598 0.961 . S
C585 C582 1.539 . S
C585 H599 0.958 . S
C585 H600 0.961 . S
C585 H601 0.960 . S
H586 C570 0.931 . S
H587 C575 0.929 . S
H588 C576 0.960 . S
H589 C576 0.962 . S
H590 C576 0.960 . S
H591 C577 0.961 . S
H592 C577 0.961 . S
H593 C577 0.961 . S
H594 C578 0.931 . S
H595 C583 0.930 . S
H596 C584 0.956 . S
H597 C584 0.961 . S
H598 C584 0.961 . S
H599 C585 0.958 . S
H600 C585 0.961 . S
H601 C585 0.960 . S
C602 C603 1.391 . S
C602 C604 1.394 . S
C602 H618 0.931 . S
C603 C602 1.391 . S
C603 C607 1.376 . S
C604 C602 1.394 . S
C604 C605 1.369 . S
C604 C608 1.531 . S
C605 C604 1.369 . S
C605 C606 1.410 . S
C605 C613 1.503 . S
C606 C605 1.410 . S
C606 C607 1.392 . S
C606 C609 1.511 . S
C607 C603 1.376 . S
C607 C606 1.392 . S
C607 H619 0.929 . S
C608 C604 1.531 . S
C608 H620 0.960 . S
C608 H621 0.962 . S
C608 H622 0.960 . S
C609 C606 1.511 . S
C609 H623 0.961 . S
C609 H624 0.961 . S
C609 H625 0.961 . S
C610 C611 1.370 . S
C610 C612 1.363 . S
C610 H626 0.931 . S
C611 C610 1.370 . S
C611 C615 1.408 . S
C612 C610 1.363 . S
C612 C613 1.370 . S
C612 C616 1.524 . S
C613 C605 1.503 . S
C613 C612 1.370 . S
C613 C614 1.403 . S
C614 C613 1.403 . S
C614 C615 1.404 . S
C614 C617 1.539 . S
C615 C611 1.408 . S
C615 C614 1.404 . S
C615 H627 0.930 . S
C616 C612 1.524 . S
C616 H628 0.956 . S
C616 H629 0.961 . S
C616 H630 0.961 . S
C617 C614 1.539 . S
C617 H631 0.958 . S
C617 H632 0.961 . S
C617 H633 0.960 . S
H618 C602 0.931 . S
H619 C607 0.929 . S
H620 C608 0.960 . S
H621 C608 0.962 . S
H622 C608 0.960 . S
H623 C609 0.961 . S
H624 C609 0.961 . S
H625 C609 0.961 . S
H626 C610 0.931 . S
H627 C615 0.930 . S
H628 C616 0.956 . S
H629 C616 0.961 . S
H630 C616 0.961 . S
H631 C617 0.958 . S
H632 C617 0.961 . S
H633 C617 0.960 . S
C634 C635 1.391 . S
C634 C636 1.394 . S
C634 H650 0.931 . S
C635 C634 1.391 . S
C635 C639 1.376 . S
C636 C634 1.394 . S
C636 C637 1.369 . S
C636 C640 1.531 . S
C637 C636 1.369 . S
C637 C638 1.410 . S
C637 C645 1.503 . S
C638 C637 1.410 . S
C638 C639 1.392 . S
C638 C641 1.511 . S
C639 C635 1.376 . S
C639 C638 1.392 . S
C639 H651 0.929 . S
C640 C636 1.531 . S
C640 H652 0.960 . S
C640 H653 0.962 . S
C640 H654 0.960 . S
C641 C638 1.511 . S
C641 H655 0.961 . S
C641 H656 0.961 . S
C641 H657 0.961 . S
C642 C643 1.370 . S
C642 C644 1.363 . S
C642 H658 0.931 . S
C643 C642 1.370 . S
C643 C647 1.408 . S
C644 C642 1.363 . S
C644 C645 1.370 . S
C644 C648 1.524 . S
C645 C637 1.503 . S
C645 C644 1.370 . S
C645 C646 1.403 . S
C646 C645 1.403 . S
C646 C647 1.404 . S
C646 C649 1.539 . S
C647 C643 1.408 . S
C647 C646 1.404 . S
C647 H659 0.930 . S
C648 C644 1.524 . S
C648 H660 0.956 . S
C648 H661 0.961 . S
C648 H662 0.961 . S
C649 C646 1.539 . S
C649 H663 0.958 . S
C649 H664 0.961 . S
C649 H665 0.960 . S
H650 C634 0.931 . S
H651 C639 0.929 . S
H652 C640 0.960 . S
H653 C640 0.962 . S
H654 C640 0.960 . S
H655 C641 0.961 . S
H656 C641 0.961 . S
H657 C641 0.961 . S
H658 C642 0.931 . S
H659 C647 0.930 . S
H660 C648 0.956 . S
H661 C648 0.961 . S
H662 C648 0.961 . S
H663 C649 0.958 . S
H664 C649 0.961 . S
H665 C649 0.960 . S
C666 C667 1.391 . S
C666 C668 1.394 . S
C666 H682 0.931 . S
C667 C666 1.391 . S
C667 C671 1.376 . S
C668 C666 1.394 . S
C668 C669 1.369 . S
C668 C672 1.531 . S
C669 C668 1.369 . S
C669 C670 1.410 . S
C669 C677 1.503 . S
C670 C669 1.410 . S
C670 C671 1.392 . S
C670 C673 1.511 . S
C671 C667 1.376 . S
C671 C670 1.392 . S
C671 H683 0.929 . S
C672 C668 1.531 . S
C672 H684 0.960 . S
C672 H685 0.962 . S
C672 H686 0.960 . S
C673 C670 1.511 . S
C673 H687 0.961 . S
C673 H688 0.961 . S
C673 H689 0.961 . S
C674 C675 1.370 . S
C674 C676 1.363 . S
C674 H690 0.931 . S
C675 C674 1.370 . S
C675 C679 1.408 . S
C676 C674 1.363 . S
C676 C677 1.370 . S
C676 C680 1.524 . S
C677 C669 1.503 . S
C677 C676 1.370 . S
C677 C678 1.403 . S
C678 C677 1.403 . S
C678 C679 1.404 . S
C678 C681 1.539 . S
C679 C675 1.408 . S
C679 C678 1.404 . S
C679 H691 0.930 . S
C680 C676 1.524 . S
C680 H692 0.956 . S
C680 H693 0.961 . S
C680 H694 0.961 . S
C681 C678 1.539 . S
C681 H695 0.958 . S
C681 H696 0.961 . S
C681 H697 0.960 . S
H682 C666 0.931 . S
H683 C671 0.929 . S
H684 C672 0.960 . S
H685 C672 0.962 . S
H686 C672 0.960 . S
H687 C673 0.961 . S
H688 C673 0.961 . S
H689 C673 0.961 . S
H690 C674 0.931 . S
H691 C679 0.930 . S
H692 C680 0.956 . S
H693 C680 0.961 . S
H694 C680 0.961 . S
H695 C681 0.958 . S
H696 C681 0.961 . S
H697 C681 0.960 . S
C698 C699 1.391 . S
C698 C700 1.394 . S
C698 H714 0.931 . S
C699 C698 1.391 . S
C699 C703 1.376 . S
C700 C698 1.394 . S
C700 C701 1.369 . S
C700 C704 1.531 . S
C701 C700 1.369 . S
C701 C702 1.410 . S
C701 C709 1.503 . S
C702 C701 1.410 . S
C702 C703 1.392 . S
C702 C705 1.511 . S
C703 C699 1.376 . S
C703 C702 1.392 . S
C703 H715 0.929 . S
C704 C700 1.531 . S
C704 H716 0.960 . S
C704 H717 0.962 . S
C704 H718 0.960 . S
C705 C702 1.511 . S
C705 H719 0.961 . S
C705 H720 0.961 . S
C705 H721 0.961 . S
C706 C707 1.370 . S
C706 C708 1.363 . S
C706 H722 0.931 . S
C707 C706 1.370 . S
C707 C711 1.408 . S
C708 C706 1.363 . S
C708 C709 1.370 . S
C708 C712 1.524 . S
C709 C701 1.503 . S
C709 C708 1.370 . S
C709 C710 1.403 . S
C710 C709 1.403 . S
C710 C711 1.404 . S
C710 C713 1.539 . S
C711 C707 1.408 . S
C711 C710 1.404 . S
C711 H723 0.930 . S
C712 C708 1.524 . S
C712 H724 0.956 . S
C712 H725 0.961 . S
C712 H726 0.961 . S
C713 C710 1.539 . S
C713 H727 0.958 . S
C713 H728 0.961 . S
C713 H729 0.960 . S
H714 C698 0.931 . S
H715 C703 0.929 . S
H716 C704 0.960 . S
H717 C704 0.962 . S
H718 C704 0.960 . S
H719 C705 0.961 . S
H720 C705 0.961 . S
H721 C705 0.961 . S
H722 C706 0.931 . S
H723 C711 0.930 . S
H724 C712 0.956 . S
H725 C712 0.961 . S
H726 C712 0.961 . S
H727 C713 0.958 . S
H728 C713 0.961 . S
H729 C713 0.960 . S
C730 C731 1.391 . S
C730 C732 1.394 . S
C730 H746 0.931 . S
C731 C730 1.391 . S
C731 C735 1.376 . S
C732 C730 1.394 . S
C732 C733 1.369 . S
C732 C736 1.531 . S
C733 C732 1.369 . S
C733 C734 1.410 . S
C733 C741 1.503 . S
C734 C733 1.410 . S
C734 C735 1.392 . S
C734 C737 1.511 . S
C735 C731 1.376 . S
C735 C734 1.392 . S
C735 H747 0.929 . S
C736 C732 1.531 . S
C736 H748 0.960 . S
C736 H749 0.962 . S
C736 H750 0.960 . S
C737 C734 1.511 . S
C737 H751 0.961 . S
C737 H752 0.961 . S
C737 H753 0.961 . S
C738 C739 1.370 . S
C738 C740 1.363 . S
C738 H754 0.931 . S
C739 C738 1.370 . S
C739 C743 1.408 . S
C740 C738 1.363 . S
C740 C741 1.370 . S
C740 C744 1.524 . S
C741 C733 1.503 . S
C741 C740 1.370 . S
C741 C742 1.403 . S
C742 C741 1.403 . S
C742 C743 1.404 . S
C742 C745 1.539 . S
C743 C739 1.408 . S
C743 C742 1.404 . S
C743 H755 0.930 . S
C744 C740 1.524 . S
C744 H756 0.956 . S
C744 H757 0.961 . S
C744 H758 0.961 . S
C745 C742 1.539 . S
C745 H759 0.958 . S
C745 H760 0.961 . S
C745 H761 0.960 . S
H746 C730 0.931 . S
H747 C735 0.929 . S
H748 C736 0.960 . S
H749 C736 0.962 . S
H750 C736 0.960 . S
H751 C737 0.961 . S
H752 C737 0.961 . S
H753 C737 0.961 . S
H754 C738 0.931 . S
H755 C743 0.930 . S
H756 C744 0.956 . S
H757 C744 0.961 . S
H758 C744 0.961 . S
H759 C745 0.958 . S
H760 C745 0.961 . S
H761 C745 0.960 . S
C762 C763 1.391 . S
C762 C764 1.394 . S
C762 H778 0.931 . S
C763 C762 1.391 . S
C763 C767 1.376 . S
C764 C762 1.394 . S
C764 C765 1.369 . S
C764 C768 1.531 . S
C765 C764 1.369 . S
C765 C766 1.410 . S
C765 C773 1.503 . S
C766 C765 1.410 . S
C766 C767 1.392 . S
C766 C769 1.511 . S
C767 C763 1.376 . S
C767 C766 1.392 . S
C767 H779 0.929 . S
C768 C764 1.531 . S
C768 H780 0.960 . S
C768 H781 0.962 . S
C768 H782 0.960 . S
C769 C766 1.511 . S
C769 H783 0.961 . S
C769 H784 0.961 . S
C769 H785 0.961 . S
C770 C771 1.370 . S
C770 C772 1.363 . S
C770 H786 0.931 . S
C771 C770 1.370 . S
C771 C775 1.408 . S
C772 C770 1.363 . S
C772 C773 1.370 . S
C772 C776 1.524 . S
C773 C765 1.503 . S
C773 C772 1.370 . S
C773 C774 1.403 . S
C774 C773 1.403 . S
C774 C775 1.404 . S
C774 C777 1.539 . S
C775 C771 1.408 . S
C775 C774 1.404 . S
C775 H787 0.930 . S
C776 C772 1.524 . S
C776 H788 0.956 . S
C776 H789 0.961 . S
C776 H790 0.961 . S
C777 C774 1.539 . S
C777 H791 0.958 . S
C777 H792 0.961 . S
C777 H793 0.960 . S
H778 C762 0.931 . S
H779 C767 0.929 . S
H780 C768 0.960 . S
H781 C768 0.962 . S
H782 C768 0.960 . S
H783 C769 0.961 . S
H784 C769 0.961 . S
H785 C769 0.961 . S
H786 C770 0.931 . S
H787 C775 0.930 . S
H788 C776 0.956 . S
H789 C776 0.961 . S
H790 C776 0.961 . S
H791 C777 0.958 . S
H792 C777 0.961 . S
H793 C777 0.960 . S
C794 C795 1.391 . S
C794 C796 1.394 . S
C794 H810 0.931 . S
C795 C794 1.391 . S
C795 C799 1.376 . S
C796 C794 1.394 . S
C796 C797 1.369 . S
C796 C800 1.531 . S
C797 C796 1.369 . S
C797 C798 1.410 . S
C797 C805 1.503 . S
C798 C797 1.410 . S
C798 C799 1.392 . S
C798 C801 1.511 . S
C799 C795 1.376 . S
C799 C798 1.392 . S
C799 H811 0.929 . S
C800 C796 1.531 . S
C800 H812 0.960 . S
C800 H813 0.962 . S
C800 H814 0.960 . S
C801 C798 1.511 . S
C801 H815 0.961 . S
C801 H816 0.961 . S
C801 H817 0.961 . S
C802 C803 1.370 . S
C802 C804 1.363 . S
C802 H818 0.931 . S
C803 C802 1.370 . S
C803 C807 1.408 . S
C804 C802 1.363 . S
C804 C805 1.370 . S
C804 C808 1.524 . S
C805 C797 1.503 . S
C805 C804 1.370 . S
C805 C806 1.403 . S
C806 C805 1.403 . S
C806 C807 1.404 . S
C806 C809 1.539 . S
C807 C803 1.408 . S
C807 C806 1.404 . S
C807 H819 0.930 . S
C808 C804 1.524 . S
C808 H820 0.956 . S
C808 H821 0.961 . S
C808 H822 0.961 . S
C809 C806 1.539 . S
C809 H823 0.958 . S
C809 H824 0.961 . S
C809 H825 0.960 . S
H810 C794 0.931 . S
H811 C799 0.929 . S
H812 C800 0.960 . S
H813 C800 0.962 . S
H814 C800 0.960 . S
H815 C801 0.961 . S
H816 C801 0.961 . S
H817 C801 0.961 . S
H818 C802 0.931 . S
H819 C807 0.930 . S
H820 C808 0.956 . S
H821 C808 0.961 . S
H822 C808 0.961 . S
H823 C809 0.958 . S
H824 C809 0.961 . S
H825 C809 0.960 . S
C826 C827 1.391 . S
C826 C828 1.394 . S
C826 H842 0.931 . S
C827 C826 1.391 . S
C827 C831 1.376 . S
C828 C826 1.394 . S
C828 C829 1.369 . S
C828 C832 1.531 . S
C829 C828 1.369 . S
C829 C830 1.410 . S
C829 C837 1.503 . S
C830 C829 1.410 . S
C830 C831 1.392 . S
C830 C833 1.511 . S
C831 C827 1.376 . S
C831 C830 1.392 . S
C831 H843 0.929 . S
C832 C828 1.531 . S
C832 H844 0.960 . S
C832 H845 0.962 . S
C832 H846 0.960 . S
C833 C830 1.511 . S
C833 H847 0.961 . S
C833 H848 0.961 . S
C833 H849 0.961 . S
C834 C835 1.370 . S
C834 C836 1.363 . S
C834 H850 0.931 . S
C835 C834 1.370 . S
C835 C839 1.408 . S
C836 C834 1.363 . S
C836 C837 1.370 . S
C836 C840 1.524 . S
C837 C829 1.503 . S
C837 C836 1.370 . S
C837 C838 1.403 . S
C838 C837 1.403 . S
C838 C839 1.404 . S
C838 C841 1.539 . S
C839 C835 1.408 . S
C839 C838 1.404 . S
C839 H851 0.930 . S
C840 C836 1.524 . S
C840 H852 0.956 . S
C840 H853 0.961 . S
C840 H854 0.961 . S
C841 C838 1.539 . S
C841 H855 0.958 . S
C841 H856 0.961 . S
C841 H857 0.960 . S
H842 C826 0.931 . S
H843 C831 0.929 . S
H844 C832 0.960 . S
H845 C832 0.962 . S
H846 C832 0.960 . S
H847 C833 0.961 . S
H848 C833 0.961 . S
H849 C833 0.961 . S
H850 C834 0.931 . S
H851 C839 0.930 . S
H852 C840 0.956 . S
H853 C840 0.961 . S
H854 C840 0.961 . S
H855 C841 0.958 . S
H856 C841 0.961 . S
H857 C841 0.960 . S
C858 C859 1.391 . S
C858 C860 1.394 . S
C858 H874 0.931 . S
C859 C858 1.391 . S
C859 C863 1.376 . S
C860 C858 1.394 . S
C860 C861 1.369 . S
C860 C864 1.531 . S
C861 C860 1.369 . S
C861 C862 1.410 . S
C861 C869 1.503 . S
C862 C861 1.410 . S
C862 C863 1.392 . S
C862 C865 1.511 . S
C863 C859 1.376 . S
C863 C862 1.392 . S
C863 H875 0.929 . S
C864 C860 1.531 . S
C864 H876 0.960 . S
C864 H877 0.962 . S
C864 H878 0.960 . S
C865 C862 1.511 . S
C865 H879 0.961 . S
C865 H880 0.961 . S
C865 H881 0.961 . S
C866 C867 1.370 . S
C866 C868 1.363 . S
C866 H882 0.931 . S
C867 C866 1.370 . S
C867 C871 1.408 . S
C868 C866 1.363 . S
C868 C869 1.370 . S
C868 C872 1.524 . S
C869 C861 1.503 . S
C869 C868 1.370 . S
C869 C870 1.403 . S
C870 C869 1.403 . S
C870 C871 1.404 . S
C870 C873 1.539 . S
C871 C867 1.408 . S
C871 C870 1.404 . S
C871 H883 0.930 . S
C872 C868 1.524 . S
C872 H884 0.956 . S
C872 H885 0.961 . S
C872 H886 0.961 . S
C873 C870 1.539 . S
C873 H887 0.958 . S
C873 H888 0.961 . S
C873 H889 0.960 . S
H874 C858 0.931 . S
H875 C863 0.929 . S
H876 C864 0.960 . S
H877 C864 0.962 . S
H878 C864 0.960 . S
H879 C865 0.961 . S
H880 C865 0.961 . S
H881 C865 0.961 . S
H882 C866 0.931 . S
H883 C871 0.930 . S
H884 C872 0.956 . S
H885 C872 0.961 . S
H886 C872 0.961 . S
H887 C873 0.958 . S
H888 C873 0.961 . S
H889 C873 0.960 . S
C890 C891 1.391 . S
C890 C892 1.394 . S
C890 H906 0.931 . S
C891 C890 1.391 . S
C891 C895 1.376 . S
C892 C890 1.394 . S
C892 C893 1.369 . S
C892 C896 1.531 . S
C893 C892 1.369 . S
C893 C894 1.410 . S
C893 C901 1.503 . S
C894 C893 1.410 . S
C894 C895 1.392 . S
C894 C897 1.511 . S
C895 C891 1.376 . S
C895 C894 1.392 . S
C895 H907 0.929 . S
C896 C892 1.531 . S
C896 H908 0.960 . S
C896 H909 0.962 . S
C896 H910 0.960 . S
C897 C894 1.511 . S
C897 H911 0.961 . S
C897 H912 0.961 . S
C897 H913 0.961 . S
C898 C899 1.370 . S
C898 C900 1.363 . S
C898 H914 0.931 . S
C899 C898 1.370 . S
C899 C903 1.408 . S
C900 C898 1.363 . S
C900 C901 1.370 . S
C900 C904 1.524 . S
C901 C893 1.503 . S
C901 C900 1.370 . S
C901 C902 1.403 . S
C902 C901 1.403 . S
C902 C903 1.404 . S
C902 C905 1.539 . S
C903 C899 1.408 . S
C903 C902 1.404 . S
C903 H915 0.930 . S
C904 C900 1.524 . S
C904 H916 0.956 . S
C904 H917 0.961 . S
C904 H918 0.961 . S
C905 C902 1.539 . S
C905 H919 0.958 . S
C905 H920 0.961 . S
C905 H921 0.960 . S
H906 C890 0.931 . S
H907 C895 0.929 . S
H908 C896 0.960 . S
H909 C896 0.962 . S
H910 C896 0.960 . S
H911 C897 0.961 . S
H912 C897 0.961 . S
H913 C897 0.961 . S
H914 C898 0.931 . S
H915 C903 0.930 . S
H916 C904 0.956 . S
H917 C904 0.961 . S
H918 C904 0.961 . S
H919 C905 0.958 . S
H920 C905 0.961 . S
H921 C905 0.960 . S
C922 C923 1.391 . S
C922 C924 1.394 . S
C922 H938 0.931 . S
C923 C922 1.391 . S
C923 C927 1.376 . S
C924 C922 1.394 . S
C924 C925 1.369 . S
C924 C928 1.531 . S
C925 C924 1.369 . S
C925 C926 1.410 . S
C925 C933 1.503 . S
C926 C925 1.410 . S
C926 C927 1.392 . S
C926 C929 1.511 . S
C927 C923 1.376 . S
C927 C926 1.392 . S
C927 H939 0.929 . S
C928 C924 1.531 . S
C928 H940 0.960 . S
C928 H941 0.962 . S
C928 H942 0.960 . S
C929 C926 1.511 . S
C929 H943 0.961 . S
C929 H944 0.961 . S
C929 H945 0.961 . S
C930 C931 1.370 . S
C930 C932 1.363 . S
C930 H946 0.931 . S
C931 C930 1.370 . S
C931 C935 1.408 . S
C932 C930 1.363 . S
C932 C933 1.370 . S
C932 C936 1.524 . S
C933 C925 1.503 . S
C933 C932 1.370 . S
C933 C934 1.403 . S
C934 C933 1.403 . S
C934 C935 1.404 . S
C934 C937 1.539 . S
C935 C931 1.408 . S
C935 C934 1.404 . S
C935 H947 0.930 . S
C936 C932 1.524 . S
C936 H948 0.956 . S
C936 H949 0.961 . S
C936 H950 0.961 . S
C937 C934 1.539 . S
C937 H951 0.958 . S
C937 H952 0.961 . S
C937 H953 0.960 . S
H938 C922 0.931 . S
H939 C927 0.929 . S
H940 C928 0.960 . S
H941 C928 0.962 . S
H942 C928 0.960 . S
H943 C929 0.961 . S
H944 C929 0.961 . S
H945 C929 0.961 . S
H946 C930 0.931 . S
H947 C935 0.930 . S
H948 C936 0.956 . S
H949 C936 0.961 . S
H950 C936 0.961 . S
H951 C937 0.958 . S
H952 C937 0.961 . S
H953 C937 0.960 . S
C954 C955 1.391 . S
C954 C956 1.394 . S
C954 H970 0.931 . S
C955 C954 1.391 . S
C955 C959 1.376 . S
C956 C954 1.394 . S
C956 C957 1.369 . S
C956 C960 1.531 . S
C957 C956 1.369 . S
C957 C958 1.410 . S
C957 C965 1.503 . S
C958 C957 1.410 . S
C958 C959 1.392 . S
C958 C961 1.511 . S
C959 C955 1.376 . S
C959 C958 1.392 . S
C959 H971 0.929 . S
C960 C956 1.531 . S
C960 H972 0.960 . S
C960 H973 0.962 . S
C960 H974 0.960 . S
C961 C958 1.511 . S
C961 H975 0.961 . S
C961 H976 0.961 . S
C961 H977 0.961 . S
C962 C963 1.370 . S
C962 C964 1.363 . S
C962 H978 0.931 . S
C963 C962 1.370 . S
C963 C967 1.408 . S
C964 C962 1.363 . S
C964 C965 1.370 . S
C964 C968 1.524 . S
C965 C957 1.503 . S
C965 C964 1.370 . S
C965 C966 1.403 . S
C966 C965 1.403 . S
C966 C967 1.404 . S
C966 C969 1.539 . S
C967 C963 1.408 . S
C967 C966 1.404 . S
C967 H979 0.930 . S
C968 C964 1.524 . S
C968 H980 0.956 . S
C968 H981 0.961 . S
C968 H982 0.961 . S
C969 C966 1.539 . S
C969 H983 0.958 . S
C969 H984 0.961 . S
C969 H985 0.960 . S
H970 C954 0.931 . S
H971 C959 0.929 . S
H972 C960 0.960 . S
H973 C960 0.962 . S
H974 C960 0.960 . S
H975 C961 0.961 . S
H976 C961 0.961 . S
H977 C961 0.961 . S
H978 C962 0.931 . S
H979 C967 0.930 . S
H980 C968 0.956 . S
H981 C968 0.961 . S
H982 C968 0.961 . S
H983 C969 0.958 . S
H984 C969 0.961 . S
H985 C969 0.960 . S
C986 C987 1.391 . S
C986 C988 1.394 . S
C986 H1002 0.931 . S
C987 C986 1.391 . S
C987 C991 1.376 . S
C988 C986 1.394 . S
C988 C989 1.369 . S
C988 C992 1.531 . S
C989 C988 1.369 . S
C989 C990 1.410 . S
C989 C997 1.503 . S
C990 C989 1.410 . S
C990 C991 1.392 . S
C990 C993 1.511 . S
C991 C987 1.376 . S
C991 C990 1.392 . S
C991 H1003 0.929 . S
C992 C988 1.531 . S
C992 H1004 0.960 . S
C992 H1005 0.962 . S
C992 H1006 0.960 . S
C993 C990 1.511 . S
C993 H1007 0.961 . S
C993 H1008 0.961 . S
C993 H1009 0.961 . S
C994 C995 1.370 . S
C994 C996 1.363 . S
C994 H1010 0.931 . S
C995 C994 1.370 . S
C995 C999 1.408 . S
C996 C994 1.363 . S
C996 C997 1.370 . S
C996 C1000 1.524 . S
C997 C989 1.503 . S
C997 C996 1.370 . S
C997 C998 1.403 . S
C998 C997 1.403 . S
C998 C999 1.404 . S
C998 C1001 1.539 . S
C999 C995 1.408 . S
C999 C998 1.404 . S
C999 H1011 0.930 . S
C1000 C996 1.524 . S
C1000 H1012 0.956 . S
C1000 H1013 0.961 . S
C1000 H1014 0.961 . S
C1001 C998 1.539 . S
C1001 H1015 0.958 . S
C1001 H1016 0.961 . S
C1001 H1017 0.960 . S
H1002 C986 0.931 . S
H1003 C991 0.929 . S
H1004 C992 0.960 . S
H1005 C992 0.962 . S
H1006 C992 0.960 . S
H1007 C993 0.961 . S
H1008 C993 0.961 . S
H1009 C993 0.961 . S
H1010 C994 0.931 . S
H1011 C999 0.930 . S
H1012 C1000 0.956 . S
H1013 C1000 0.961 . S
H1014 C1000 0.961 . S
H1015 C1001 0.958 . S
H1016 C1001 0.961 . S
H1017 C1001 0.960 . S
C1018 C1019 1.391 . S
C1018 C1020 1.394 . S
C1018 H1034 0.931 . S
C1019 C1018 1.391 . S
C1019 C1023 1.376 . S
C1020 C1018 1.394 . S
C1020 C1021 1.369 . S
C1020 C1024 1.531 . S
C1021 C1020 1.369 . S
C1021 C1022 1.410 . S
C1021 C1029 1.503 . S
C1022 C1021 1.410 . S
C1022 C1023 1.392 . S
C1022 C1025 1.511 . S
C1023 C1019 1.376 . S
C1023 C1022 1.392 . S
C1023 H1035 0.929 . S
C1024 C1020 1.531 . S
C1024 H1036 0.960 . S
C1024 H1037 0.962 . S
C1024 H1038 0.960 . S
C1025 C1022 1.511 . S
C1025 H1039 0.961 . S
C1025 H1040 0.961 . S
C1025 H1041 0.961 . S
C1026 C1027 1.370 . S
C1026 C1028 1.363 . S
C1026 H1042 0.931 . S
C1027 C1026 1.370 . S
C1027 C1031 1.408 . S
C1028 C1026 1.363 . S
C1028 C1029 1.370 . S
C1028 C1032 1.524 . S
C1029 C1021 1.503 . S
C1029 C1028 1.370 . S
C1029 C1030 1.403 . S
C1030 C1029 1.403 . S
C1030 C1031 1.404 . S
C1030 C1033 1.539 . S
C1031 C1027 1.408 . S
C1031 C1030 1.404 . S
C1031 H1043 0.930 . S
C1032 C1028 1.524 . S
C1032 H1044 0.956 . S
C1032 H1045 0.961 . S
C1032 H1046 0.961 . S
C1033 C1030 1.539 . S
C1033 H1047 0.958 . S
C1033 H1048 0.961 . S
C1033 H1049 0.960 . S
H1034 C1018 0.931 . S
H1035 C1023 0.929 . S
H1036 C1024 0.960 . S
H1037 C1024 0.962 . S
H1038 C1024 0.960 . S
H1039 C1025 0.961 . S
H1040 C1025 0.961 . S
H1041 C1025 0.961 . S
H1042 C1026 0.931 . S
H1043 C1031 0.930 . S
H1044 C1032 0.956 . S
H1045 C1032 0.961 . S
H1046 C1032 0.961 . S
H1047 C1033 0.958 . S
H1048 C1033 0.961 . S
H1049 C1033 0.960 . S
C1050 C1051 1.391 . S
C1050 C1052 1.394 . S
C1050 H1066 0.931 . S
C1051 C1050 1.391 . S
C1051 C1055 1.376 . S
C1052 C1050 1.394 . S
C1052 C1053 1.369 . S
C1052 C1056 1.531 . S
C1053 C1052 1.369 . S
C1053 C1054 1.410 . S
C1053 C1061 1.503 . S
C1054 C1053 1.410 . S
C1054 C1055 1.392 . S
C1054 C1057 1.511 . S
C1055 C1051 1.376 . S
C1055 C1054 1.392 . S
C1055 H1067 0.929 . S
C1056 C1052 1.531 . S
C1056 H1068 0.960 . S
C1056 H1069 0.962 . S
C1056 H1070 0.960 . S
C1057 C1054 1.511 . S
C1057 H1071 0.961 . S
C1057 H1072 0.961 . S
C1057 H1073 0.961 . S
C1058 C1059 1.370 . S
C1058 C1060 1.363 . S
C1058 H1074 0.931 . S
C1059 C1058 1.370 . S
C1059 C1063 1.408 . S
C1060 C1058 1.363 . S
C1060 C1061 1.370 . S
C1060 C1064 1.524 . S
C1061 C1053 1.503 . S
C1061 C1060 1.370 . S
C1061 C1062 1.403 . S
C1062 C1061 1.403 . S
C1062 C1063 1.404 . S
C1062 C1065 1.539 . S
C1063 C1059 1.408 . S
C1063 C1062 1.404 . S
C1063 H1075 0.930 . S
C1064 C1060 1.524 . S
C1064 H1076 0.956 . S
C1064 H1077 0.961 . S
C1064 H1078 0.961 . S
C1065 C1062 1.539 . S
C1065 H1079 0.958 . S
C1065 H1080 0.961 . S
C1065 H1081 0.960 . S
H1066 C1050 0.931 . S
H1067 C1055 0.929 . S
H1068 C1056 0.960 . S
H1069 C1056 0.962 . S
H1070 C1056 0.960 . S
H1071 C1057 0.961 . S
H1072 C1057 0.961 . S
H1073 C1057 0.961 . S
H1074 C1058 0.931 . S
H1075 C1063 0.930 . S
H1076 C1064 0.956 . S
H1077 C1064 0.961 . S
H1078 C1064 0.961 . S
H1079 C1065 0.958 . S
H1080 C1065 0.961 . S
H1081 C1065 0.960 . S
C1082 C1083 1.391 . S
C1082 C1084 1.394 . S
C1082 H1098 0.931 . S
C1083 C1082 1.391 . S
C1083 C1087 1.376 . S
C1084 C1082 1.394 . S
C1084 C1085 1.369 . S
C1084 C1088 1.531 . S
C1085 C1084 1.369 . S
C1085 C1086 1.410 . S
C1085 C1093 1.503 . S
C1086 C1085 1.410 . S
C1086 C1087 1.392 . S
C1086 C1089 1.511 . S
C1087 C1083 1.376 . S
C1087 C1086 1.392 . S
C1087 H1099 0.929 . S
C1088 C1084 1.531 . S
C1088 H1100 0.960 . S
C1088 H1101 0.962 . S
C1088 H1102 0.960 . S
C1089 C1086 1.511 . S
C1089 H1103 0.961 . S
C1089 H1104 0.961 . S
C1089 H1105 0.961 . S
C1090 C1091 1.370 . S
C1090 C1092 1.363 . S
C1090 H1106 0.931 . S
C1091 C1090 1.370 . S
C1091 C1095 1.408 . S
C1092 C1090 1.363 . S
C1092 C1093 1.370 . S
C1092 C1096 1.524 . S
C1093 C1085 1.503 . S
C1093 C1092 1.370 . S
C1093 C1094 1.403 . S
C1094 C1093 1.403 . S
C1094 C1095 1.404 . S
C1094 C1097 1.539 . S
C1095 C1091 1.408 . S
C1095 C1094 1.404 . S
C1095 H1107 0.930 . S
C1096 C1092 1.524 . S
C1096 H1108 0.956 . S
C1096 H1109 0.961 . S
C1096 H1110 0.961 . S
C1097 C1094 1.539 . S
C1097 H1111 0.958 . S
C1097 H1112 0.961 . S
C1097 H1113 0.960 . S
H1098 C1082 0.931 . S
H1099 C1087 0.929 . S
H1100 C1088 0.960 . S
H1101 C1088 0.962 . S
H1102 C1088 0.960 . S
H1103 C1089 0.961 . S
H1104 C1089 0.961 . S
H1105 C1089 0.961 . S
H1106 C1090 0.931 . S
H1107 C1095 0.930 . S
H1108 C1096 0.956 . S
H1109 C1096 0.961 . S
H1110 C1096 0.961 . S
H1111 C1097 0.958 . S
H1112 C1097 0.961 . S
H1113 C1097 0.960 . S
C1114 C1115 1.391 . S
C1114 C1116 1.394 . S
C1114 H1130 0.931 . S
C1115 C1114 1.391 . S
C1115 C1119 1.376 . S
C1116 C1114 1.394 . S
C1116 C1117 1.369 . S
C1116 C1120 1.531 . S
C1117 C1116 1.369 . S
C1117 C1118 1.410 . S
C1117 C1125 1.503 . S
C1118 C1117 1.410 . S
C1118 C1119 1.392 . S
C1118 C1121 1.511 . S
C1119 C1115 1.376 . S
C1119 C1118 1.392 . S
C1119 H1131 0.929 . S
C1120 C1116 1.531 . S
C1120 H1132 0.960 . S
C1120 H1133 0.962 . S
C1120 H1134 0.960 . S
C1121 C1118 1.511 . S
C1121 H1135 0.961 . S
C1121 H1136 0.961 . S
C1121 H1137 0.961 . S
C1122 C1123 1.370 . S
C1122 C1124 1.363 . S
C1122 H1138 0.931 . S
C1123 C1122 1.370 . S
C1123 C1127 1.408 . S
C1124 C1122 1.363 . S
C1124 C1125 1.370 . S
C1124 C1128 1.524 . S
C1125 C1117 1.503 . S
C1125 C1124 1.370 . S
C1125 C1126 1.403 . S
C1126 C1125 1.403 . S
C1126 C1127 1.404 . S
C1126 C1129 1.539 . S
C1127 C1123 1.408 . S
C1127 C1126 1.404 . S
C1127 H1139 0.930 . S
C1128 C1124 1.524 . S
C1128 H1140 0.956 . S
C1128 H1141 0.961 . S
C1128 H1142 0.961 . S
C1129 C1126 1.539 . S
C1129 H1143 0.958 . S
C1129 H1144 0.961 . S
C1129 H1145 0.960 . S
H1130 C1114 0.931 . S
H1131 C1119 0.929 . S
H1132 C1120 0.960 . S
H1133 C1120 0.962 . S
H1134 C1120 0.960 . S
H1135 C1121 0.961 . S
H1136 C1121 0.961 . S
H1137 C1121 0.961 . S
H1138 C1122 0.931 . S
H1139 C1127 0.930 . S
H1140 C1128 0.956 . S
H1141 C1128 0.961 . S
H1142 C1128 0.961 . S
H1143 C1129 0.958 . S
H1144 C1129 0.961 . S
H1145 C1129 0.960 . S
C1146 C1147 1.391 . S
C1146 C1148 1.394 . S
C1146 H1162 0.931 . S
C1147 C1146 1.391 . S
C1147 C1151 1.376 . S
C1148 C1146 1.394 . S
C1148 C1149 1.369 . S
C1148 C1152 1.531 . S
C1149 C1148 1.369 . S
C1149 C1150 1.410 . S
C1149 C1157 1.503 . S
C1150 C1149 1.410 . S
C1150 C1151 1.392 . S
C1150 C1153 1.511 . S
C1151 C1147 1.376 . S
C1151 C1150 1.392 . S
C1151 H1163 0.929 . S
C1152 C1148 1.531 . S
C1152 H1164 0.960 . S
C1152 H1165 0.962 . S
C1152 H1166 0.960 . S
C1153 C1150 1.511 . S
C1153 H1167 0.961 . S
C1153 H1168 0.961 . S
C1153 H1169 0.961 . S
C1154 C1155 1.370 . S
C1154 C1156 1.363 . S
C1154 H1170 0.931 . S
C1155 C1154 1.370 . S
C1155 C1159 1.408 . S
C1156 C1154 1.363 . S
C1156 C1157 1.370 . S
C1156 C1160 1.524 . S
C1157 C1149 1.503 . S
C1157 C1156 1.370 . S
C1157 C1158 1.403 . S
C1158 C1157 1.403 . S
C1158 C1159 1.404 . S
C1158 C1161 1.539 . S
C1159 C1155 1.408 . S
C1159 C1158 1.404 . S
C1159 H1171 0.930 . S
C1160 C1156 1.524 . S
C1160 H1172 0.956 . S
C1160 H1173 0.961 . S
C1160 H1174 0.961 . S
C1161 C1158 1.539 . S
C1161 H1175 0.958 . S
C1161 H1176 0.961 . S
C1161 H1177 0.960 . S
H1162 C1146 0.931 . S
H1163 C1151 0.929 . S
H1164 C1152 0.960 . S
H1165 C1152 0.962 . S
H1166 C1152 0.960 . S
H1167 C1153 0.961 . S
H1168 C1153 0.961 . S
H1169 C1153 0.961 . S
H1170 C1154 0.931 . S
H1171 C1159 0.930 . S
H1172 C1160 0.956 . S
H1173 C1160 0.961 . S
H1174 C1160 0.961 . S
H1175 C1161 0.958 . S
H1176 C1161 0.961 . S
H1177 C1161 0.960 . S
C1178 C1179 1.391 . S
C1178 C1180 1.394 . S
C1178 H1194 0.931 . S
C1179 C1178 1.391 . S
C1179 C1183 1.376 . S
C1180 C1178 1.394 . S
C1180 C1181 1.369 . S
C1180 C1184 1.531 . S
C1181 C1180 1.369 . S
C1181 C1182 1.410 . S
C1181 C1189 1.503 . S
C1182 C1181 1.410 . S
C1182 C1183 1.392 . S
C1182 C1185 1.511 . S
C1183 C1179 1.376 . S
C1183 C1182 1.392 . S
C1183 H1195 0.929 . S
C1184 C1180 1.531 . S
C1184 H1196 0.960 . S
C1184 H1197 0.962 . S
C1184 H1198 0.960 . S
C1185 C1182 1.511 . S
C1185 H1199 0.961 . S
C1185 H1200 0.961 . S
C1185 H1201 0.961 . S
C1186 C1187 1.370 . S
C1186 C1188 1.363 . S
C1186 H1202 0.931 . S
C1187 C1186 1.370 . S
C1187 C1191 1.408 . S
C1188 C1186 1.363 . S
C1188 C1189 1.370 . S
C1188 C1192 1.524 . S
C1189 C1181 1.503 . S
C1189 C1188 1.370 . S
C1189 C1190 1.403 . S
C1190 C1189 1.403 . S
C1190 C1191 1.404 . S
C1190 C1193 1.539 . S
C1191 C1187 1.408 . S
C1191 C1190 1.404 . S
C1191 H1203 0.930 . S
C1192 C1188 1.524 . S
C1192 H1204 0.956 . S
C1192 H1205 0.961 . S
C1192 H1206 0.961 . S
C1193 C1190 1.539 . S
C1193 H1207 0.958 . S
C1193 H1208 0.961 . S
C1193 H1209 0.960 . S
H1194 C1178 0.931 . S
H1195 C1183 0.929 . S
H1196 C1184 0.960 . S
H1197 C1184 0.962 . S
H1198 C1184 0.960 . S
H1199 C1185 0.961 . S
H1200 C1185 0.961 . S
H1201 C1185 0.961 . S
H1202 C1186 0.931 . S
H1203 C1191 0.930 . S
H1204 C1192 0.956 . S
H1205 C1192 0.961 . S
H1206 C1192 0.961 . S
H1207 C1193 0.958 . S
H1208 C1193 0.961 . S
H1209 C1193 0.960 . S
C1210 C1211 1.391 . S
C1210 C1212 1.394 . S
C1210 H1226 0.931 . S
C1211 C1210 1.391 . S
C1211 C1215 1.376 . S
C1212 C1210 1.394 . S
C1212 C1213 1.369 . S
C1212 C1216 1.531 . S
C1213 C1212 1.369 . S
C1213 C1214 1.410 . S
C1213 C1221 1.503 . S
C1214 C1213 1.410 . S
C1214 C1215 1.392 . S
C1214 C1217 1.511 . S
C1215 C1211 1.376 . S
C1215 C1214 1.392 . S
C1215 H1227 0.929 . S
C1216 C1212 1.531 . S
C1216 H1228 0.960 . S
C1216 H1229 0.962 . S
C1216 H1230 0.960 . S
C1217 C1214 1.511 . S
C1217 H1231 0.961 . S
C1217 H1232 0.961 . S
C1217 H1233 0.961 . S
C1218 C1219 1.370 . S
C1218 C1220 1.363 . S
C1218 H1234 0.931 . S
C1219 C1218 1.370 . S
C1219 C1223 1.408 . S
C1220 C1218 1.363 . S
C1220 C1221 1.370 . S
C1220 C1224 1.524 . S
C1221 C1213 1.503 . S
C1221 C1220 1.370 . S
C1221 C1222 1.403 . S
C1222 C1221 1.403 . S
C1222 C1223 1.404 . S
C1222 C1225 1.539 . S
C1223 C1219 1.408 . S
C1223 C1222 1.404 . S
C1223 H1235 0.930 . S
C1224 C1220 1.524 . S
C1224 H1236 0.956 . S
C1224 H1237 0.961 . S
C1224 H1238 0.961 . S
C1225 C1222 1.539 . S
C1225 H1239 0.958 . S
C1225 H1240 0.961 . S
C1225 H1241 0.960 . S
H1226 C1210 0.931 . S
H1227 C1215 0.929 . S
H1228 C1216 0.960 . S
H1229 C1216 0.962 . S
H1230 C1216 0.960 . S
H1231 C1217 0.961 . S
H1232 C1217 0.961 . S
H1233 C1217 0.961 . S
H1234 C1218 0.931 . S
H1235 C1223 0.930 . S
H1236 C1224 0.956 . S
H1237 C1224 0.961 . S
H1238 C1224 0.961 . S
H1239 C1225 0.958 . S
H1240 C1225 0.961 . S
H1241 C1225 0.960 . S
C1242 C1243 1.391 . S
C1242 C1244 1.394 . S
C1242 H1258 0.931 . S
C1243 C1242 1.391 . S
C1243 C1247 1.376 . S
C1244 C1242 1.394 . S
C1244 C1245 1.369 . S
C1244 C1248 1.531 . S
C1245 C1244 1.369 . S
C1245 C1246 1.410 . S
C1245 C1253 1.503 . S
C1246 C1245 1.410 . S
C1246 C1247 1.392 . S
C1246 C1249 1.511 . S
C1247 C1243 1.376 . S
C1247 C1246 1.392 . S
C1247 H1259 0.929 . S
C1248 C1244 1.531 . S
C1248 H1260 0.960 . S
C1248 H1261 0.962 . S
C1248 H1262 0.960 . S
C1249 C1246 1.511 . S
C1249 H1263 0.961 . S
C1249 H1264 0.961 . S
C1249 H1265 0.961 . S
C1250 C1251 1.370 . S
C1250 C1252 1.363 . S
C1250 H1266 0.931 . S
C1251 C1250 1.370 . S
C1251 C1255 1.408 . S
C1252 C1250 1.363 . S
C1252 C1253 1.370 . S
C1252 C1256 1.524 . S
C1253 C1245 1.503 . S
C1253 C1252 1.370 . S
C1253 C1254 1.403 . S
C1254 C1253 1.403 . S
C1254 C1255 1.404 . S
C1254 C1257 1.539 . S
C1255 C1251 1.408 . S
C1255 C1254 1.404 . S
C1255 H1267 0.930 . S
C1256 C1252 1.524 . S
C1256 H1268 0.956 . S
C1256 H1269 0.961 . S
C1256 H1270 0.961 . S
C1257 C1254 1.539 . S
C1257 H1271 0.958 . S
C1257 H1272 0.961 . S
C1257 H1273 0.960 . S
H1258 C1242 0.931 . S
H1259 C1247 0.929 . S
H1260 C1248 0.960 . S
H1261 C1248 0.962 . S
H1262 C1248 0.960 . S
H1263 C1249 0.961 . S
H1264 C1249 0.961 . S
H1265 C1249 0.961 . S
H1266 C1250 0.931 . S
H1267 C1255 0.930 . S
H1268 C1256 0.956 . S
H1269 C1256 0.961 . S
H1270 C1256 0.961 . S
H1271 C1257 0.958 . S
H1272 C1257 0.961 . S
H1273 C1257 0.960 . S
C1274 C1275 1.391 . S
C1274 C1276 1.394 . S
C1274 H1290 0.931 . S
C1275 C1274 1.391 . S
C1275 C1279 1.376 . S
C1276 C1274 1.394 . S
C1276 C1277 1.369 . S
C1276 C1280 1.531 . S
C1277 C1276 1.369 . S
C1277 C1278 1.410 . S
C1277 C1285 1.503 . S
C1278 C1277 1.410 . S
C1278 C1279 1.392 . S
C1278 C1281 1.511 . S
C1279 C1275 1.376 . S
C1279 C1278 1.392 . S
C1279 H1291 0.929 . S
C1280 C1276 1.531 . S
C1280 H1292 0.960 . S
C1280 H1293 0.962 . S
C1280 H1294 0.960 . S
C1281 C1278 1.511 . S
C1281 H1295 0.961 . S
C1281 H1296 0.961 . S
C1281 H1297 0.961 . S
C1282 C1283 1.370 . S
C1282 C1284 1.363 . S
C1282 H1298 0.931 . S
C1283 C1282 1.370 . S
C1283 C1287 1.408 . S
C1284 C1282 1.363 . S
C1284 C1285 1.370 . S
C1284 C1288 1.524 . S
C1285 C1277 1.503 . S
C1285 C1284 1.370 . S
C1285 C1286 1.403 . S
C1286 C1285 1.403 . S
C1286 C1287 1.404 . S
C1286 C1289 1.539 . S
C1287 C1283 1.408 . S
C1287 C1286 1.404 . S
C1287 H1299 0.930 . S
C1288 C1284 1.524 . S
C1288 H1300 0.956 . S
C1288 H1301 0.961 . S
C1288 H1302 0.961 . S
C1289 C1286 1.539 . S
C1289 H1303 0.958 . S
C1289 H1304 0.961 . S
C1289 H1305 0.960 . S
H1290 C1274 0.931 . S
H1291 C1279 0.929 . S
H1292 C1280 0.960 . S
H1293 C1280 0.962 . S
H1294 C1280 0.960 . S
H1295 C1281 0.961 . S
H1296 C1281 0.961 . S
H1297 C1281 0.961 . S
H1298 C1282 0.931 . S
H1299 C1287 0.930 . S
H1300 C1288 0.956 . S
H1301 C1288 0.961 . S
H1302 C1288 0.961 . S
H1303 C1289 0.958 . S
H1304 C1289 0.961 . S
H1305 C1289 0.960 . S
C1306 C1307 1.391 . S
C1306 C1308 1.394 . S
C1306 H1322 0.931 . S
C1307 C1306 1.391 . S
C1307 C1311 1.376 . S
C1308 C1306 1.394 . S
C1308 C1309 1.369 . S
C1308 C1312 1.531 . S
C1309 C1308 1.369 . S
C1309 C1310 1.410 . S
C1309 C1317 1.503 . S
C1310 C1309 1.410 . S
C1310 C1311 1.392 . S
C1310 C1313 1.511 . S
C1311 C1307 1.376 . S
C1311 C1310 1.392 . S
C1311 H1323 0.929 . S
C1312 C1308 1.531 . S
C1312 H1324 0.960 . S
C1312 H1325 0.962 . S
C1312 H1326 0.960 . S
C1313 C1310 1.511 . S
C1313 H1327 0.961 . S
C1313 H1328 0.961 . S
C1313 H1329 0.961 . S
C1314 C1315 1.370 . S
C1314 C1316 1.363 . S
C1314 H1330 0.931 . S
C1315 C1314 1.370 . S
C1315 C1319 1.408 . S
C1316 C1314 1.363 . S
C1316 C1317 1.370 . S
C1316 C1320 1.524 . S
C1317 C1309 1.503 . S
C1317 C1316 1.370 . S
C1317 C1318 1.403 . S
C1318 C1317 1.403 . S
C1318 C1319 1.404 . S
C1318 C1321 1.539 . S
C1319 C1315 1.408 . S
C1319 C1318 1.404 . S
C1319 H1331 0.930 . S
C1320 C1316 1.524 . S
C1320 H1332 0.956 . S
C1320 H1333 0.961 . S
C1320 H1334 0.961 . S
C1321 C1318 1.539 . S
C1321 H1335 0.958 . S
C1321 H1336 0.961 . S
C1321 H1337 0.960 . S
H1322 C1306 0.931 . S
H1323 C1311 0.929 . S
H1324 C1312 0.960 . S
H1325 C1312 0.962 . S
H1326 C1312 0.960 . S
H1327 C1313 0.961 . S
H1328 C1313 0.961 . S
H1329 C1313 0.961 . S
H1330 C1314 0.931 . S
H1331 C1319 0.930 . S
H1332 C1320 0.956 . S
H1333 C1320 0.961 . S
H1334 C1320 0.961 . S
H1335 C1321 0.958 . S
H1336 C1321 0.961 . S
H1337 C1321 0.960 . S
C1338 C1339 1.391 . S
C1338 C1340 1.394 . S
C1338 H1354 0.931 . S
C1339 C1338 1.391 . S
C1339 C1343 1.376 . S
C1340 C1338 1.394 . S
C1340 C1341 1.369 . S
C1340 C1344 1.531 . S
C1341 C1340 1.369 . S
C1341 C1342 1.410 . S
C1341 C1349 1.503 . S
C1342 C1341 1.410 . S
C1342 C1343 1.392 . S
C1342 C1345 1.511 . S
C1343 C1339 1.376 . S
C1343 C1342 1.392 . S
C1343 H1355 0.929 . S
C1344 C1340 1.531 . S
C1344 H1356 0.960 . S
C1344 H1357 0.962 . S
C1344 H1358 0.960 . S
C1345 C1342 1.511 . S
C1345 H1359 0.961 . S
C1345 H1360 0.961 . S
C1345 H1361 0.961 . S
C1346 C1347 1.370 . S
C1346 C1348 1.363 . S
C1346 H1362 0.931 . S
C1347 C1346 1.370 . S
C1347 C1351 1.408 . S
C1348 C1346 1.363 . S
C1348 C1349 1.370 . S
C1348 C1352 1.524 . S
C1349 C1341 1.503 . S
C1349 C1348 1.370 . S
C1349 C1350 1.403 . S
C1350 C1349 1.403 . S
C1350 C1351 1.404 . S
C1350 C1353 1.539 . S
C1351 C1347 1.408 . S
C1351 C1350 1.404 . S
C1351 H1363 0.930 . S
C1352 C1348 1.524 . S
C1352 H1364 0.956 . S
C1352 H1365 0.961 . S
C1352 H1366 0.961 . S
C1353 C1350 1.539 . S
C1353 H1367 0.958 . S
C1353 H1368 0.961 . S
C1353 H1369 0.960 . S
H1354 C1338 0.931 . S
H1355 C1343 0.929 . S
H1356 C1344 0.960 . S
H1357 C1344 0.962 . S
H1358 C1344 0.960 . S
H1359 C1345 0.961 . S
H1360 C1345 0.961 . S
H1361 C1345 0.961 . S
H1362 C1346 0.931 . S
H1363 C1351 0.930 . S
H1364 C1352 0.956 . S
H1365 C1352 0.961 . S
H1366 C1352 0.961 . S
H1367 C1353 0.958 . S
H1368 C1353 0.961 . S
H1369 C1353 0.960 . S
C1370 C1371 1.391 . S
C1370 C1372 1.394 . S
C1370 H1386 0.931 . S
C1371 C1370 1.391 . S
C1371 C1375 1.376 . S
C1372 C1370 1.394 . S
C1372 C1373 1.369 . S
C1372 C1376 1.531 . S
C1373 C1372 1.369 . S
C1373 C1374 1.410 . S
C1373 C1381 1.503 . S
C1374 C1373 1.410 . S
C1374 C1375 1.392 . S
C1374 C1377 1.511 . S
C1375 C1371 1.376 . S
C1375 C1374 1.392 . S
C1375 H1387 0.929 . S
C1376 C1372 1.531 . S
C1376 H1388 0.960 . S
C1376 H1389 0.962 . S
C1376 H1390 0.960 . S
C1377 C1374 1.511 . S
C1377 H1391 0.961 . S
C1377 H1392 0.961 . S
C1377 H1393 0.961 . S
C1378 C1379 1.370 . S
C1378 C1380 1.363 . S
C1378 H1394 0.931 . S
C1379 C1378 1.370 . S
C1379 C1383 1.408 . S
C1380 C1378 1.363 . S
C1380 C1381 1.370 . S
C1380 C1384 1.524 . S
C1381 C1373 1.503 . S
C1381 C1380 1.370 . S
C1381 C1382 1.403 . S
C1382 C1381 1.403 . S
C1382 C1383 1.404 . S
C1382 C1385 1.539 . S
C1383 C1379 1.408 . S
C1383 C1382 1.404 . S
C1383 H1395 0.930 . S
C1384 C1380 1.524 . S
C1384 H1396 0.956 . S
C1384 H1397 0.961 . S
C1384 H1398 0.961 . S
C1385 C1382 1.539 . S
C1385 H1399 0.958 . S
C1385 H1400 0.961 . S
C1385 H1401 0.960 . S
H1386 C1370 0.931 . S
H1387 C1375 0.929 . S
H1388 C1376 0.960 . S
H1389 C1376 0.962 . S
H1390 C1376 0.960 . S
H1391 C1377 0.961 . S
H1392 C1377 0.961 . S
H1393 C1377 0.961 . S
H1394 C1378 0.931 . S
H1395 C1383 0.930 . S
H1396 C1384 0.956 . S
H1397 C1384 0.961 . S
H1398 C1384 0.961 . S
H1399 C1385 0.958 . S
H1400 C1385 0.961 . S
H1401 C1385 0.960 . S
C1402 C1403 1.391 . S
C1402 C1404 1.394 . S
C1402 H1418 0.931 . S
C1403 C1402 1.391 . S
C1403 C1407 1.376 . S
C1404 C1402 1.394 . S
C1404 C1405 1.369 . S
C1404 C1408 1.531 . S
C1405 C1404 1.369 . S
C1405 C1406 1.410 . S
C1405 C1413 1.503 . S
C1406 C1405 1.410 . S
C1406 C1407 1.392 . S
C1406 C1409 1.511 . S
C1407 C1403 1.376 . S
C1407 C1406 1.392 . S
C1407 H1419 0.929 . S
C1408 C1404 1.531 . S
C1408 H1420 0.960 . S
C1408 H1421 0.962 . S
C1408 H1422 0.960 . S
C1409 C1406 1.511 . S
C1409 H1423 0.961 . S
C1409 H1424 0.961 . S
C1409 H1425 0.961 . S
C1410 C1411 1.370 . S
C1410 C1412 1.363 . S
C1410 H1426 0.931 . S
C1411 C1410 1.370 . S
C1411 C1415 1.408 . S
C1412 C1410 1.363 . S
C1412 C1413 1.370 . S
C1412 C1416 1.524 . S
C1413 C1405 1.503 . S
C1413 C1412 1.370 . S
C1413 C1414 1.403 . S
C1414 C1413 1.403 . S
C1414 C1415 1.404 . S
C1414 C1417 1.539 . S
C1415 C1411 1.408 . S
C1415 C1414 1.404 . S
C1415 H1427 0.930 . S
C1416 C1412 1.524 . S
C1416 H1428 0.956 . S
C1416 H1429 0.961 . S
C1416 H1430 0.961 . S
C1417 C1414 1.539 . S
C1417 H1431 0.958 . S
C1417 H1432 0.961 . S
C1417 H1433 0.960 . S
H1418 C1402 0.931 . S
H1419 C1407 0.929 . S
H1420 C1408 0.960 . S
H1421 C1408 0.962 . S
H1422 C1408 0.960 . S
H1423 C1409 0.961 . S
H1424 C1409 0.961 . S
H1425 C1409 0.961 . S
H1426 C1410 0.931 . S
H1427 C1415 0.930 . S
H1428 C1416 0.956 . S
H1429 C1416 0.961 . S
H1430 C1416 0.961 . S
H1431 C1417 0.958 . S
H1432 C1417 0.961 . S
H1433 C1417 0.960 . S
C1434 C1435 1.391 . S
C1434 C1436 1.394 . S
C1434 H1450 0.931 . S
C1435 C1434 1.391 . S
C1435 C1439 1.376 . S
C1436 C1434 1.394 . S
C1436 C1437 1.369 . S
C1436 C1440 1.531 . S
C1437 C1436 1.369 . S
C1437 C1438 1.410 . S
C1437 C1445 1.503 . S
C1438 C1437 1.410 . S
C1438 C1439 1.392 . S
C1438 C1441 1.511 . S
C1439 C1435 1.376 . S
C1439 C1438 1.392 . S
C1439 H1451 0.929 . S
C1440 C1436 1.531 . S
C1440 H1452 0.960 . S
C1440 H1453 0.962 . S
C1440 H1454 0.960 . S
C1441 C1438 1.511 . S
C1441 H1455 0.961 . S
C1441 H1456 0.961 . S
C1441 H1457 0.961 . S
C1442 C1443 1.370 . S
C1442 C1444 1.363 . S
C1442 H1458 0.931 . S
C1443 C1442 1.370 . S
C1443 C1447 1.408 . S
C1444 C1442 1.363 . S
C1444 C1445 1.370 . S
C1444 C1448 1.524 . S
C1445 C1437 1.503 . S
C1445 C1444 1.370 . S
C1445 C1446 1.403 . S
C1446 C1445 1.403 . S
C1446 C1447 1.404 . S
C1446 C1449 1.539 . S
C1447 C1443 1.408 . S
C1447 C1446 1.404 . S
C1447 H1459 0.930 . S
C1448 C1444 1.524 . S
C1448 H1460 0.956 . S
C1448 H1461 0.961 . S
C1448 H1462 0.961 . S
C1449 C1446 1.539 . S
C1449 H1463 0.958 . S
C1449 H1464 0.961 . S
C1449 H1465 0.960 . S
H1450 C1434 0.931 . S
H1451 C1439 0.929 . S
H1452 C1440 0.960 . S
H1453 C1440 0.962 . S
H1454 C1440 0.960 . S
H1455 C1441 0.961 . S
H1456 C1441 0.961 . S
H1457 C1441 0.961 . S
H1458 C1442 0.931 . S
H1459 C1447 0.930 . S
H1460 C1448 0.956 . S
H1461 C1448 0.961 . S
H1462 C1448 0.961 . S
H1463 C1449 0.958 . S
H1464 C1449 0.961 . S
H1465 C1449 0.960 . S
C1466 C1467 1.391 . S
C1466 C1468 1.394 . S
C1466 H1482 0.931 . S
C1467 C1466 1.391 . S
C1467 C1471 1.376 . S
C1468 C1466 1.394 . S
C1468 C1469 1.369 . S
C1468 C1472 1.531 . S
C1469 C1468 1.369 . S
C1469 C1470 1.410 . S
C1469 C1477 1.503 . S
C1470 C1469 1.410 . S
C1470 C1471 1.392 . S
C1470 C1473 1.511 . S
C1471 C1467 1.376 . S
C1471 C1470 1.392 . S
C1471 H1483 0.929 . S
C1472 C1468 1.531 . S
C1472 H1484 0.960 . S
C1472 H1485 0.962 . S
C1472 H1486 0.960 . S
C1473 C1470 1.511 . S
C1473 H1487 0.961 . S
C1473 H1488 0.961 . S
C1473 H1489 0.961 . S
C1474 C1475 1.370 . S
C1474 C1476 1.363 . S
C1474 H1490 0.931 . S
C1475 C1474 1.370 . S
C1475 C1479 1.408 . S
C1476 C1474 1.363 . S
C1476 C1477 1.370 . S
C1476 C1480 1.524 . S
C1477 C1469 1.503 . S
C1477 C1476 1.370 . S
C1477 C1478 1.403 . S
C1478 C1477 1.403 . S
C1478 C1479 1.404 . S
C1478 C1481 1.539 . S
C1479 C1475 1.408 . S
C1479 C1478 1.404 . S
C1479 H1491 0.930 . S
C1480 C1476 1.524 . S
C1480 H1492 0.956 . S
C1480 H1493 0.961 . S
C1480 H1494 0.961 . S
C1481 C1478 1.539 . S
C1481 H1495 0.958 . S
C1481 H1496 0.961 . S
C1481 H1497 0.960 . S
H1482 C1466 0.931 . S
H1483 C1471 0.929 . S
H1484 C1472 0.960 . S
H1485 C1472 0.962 . S
H1486 C1472 0.960 . S
H1487 C1473 0.961 . S
H1488 C1473 0.961 . S
H1489 C1473 0.961 . S
H1490 C1474 0.931 . S
H1491 C1479 0.930 . S
H1492 C1480 0.956 . S
H1493 C1480 0.961 . S
H1494 C1480 0.961 . S
H1495 C1481 0.958 . S
H1496 C1481 0.961 . S
H1497 C1481 0.960 . S
C1498 C1499 1.391 . S
C1498 C1500 1.394 . S
C1498 H1514 0.931 . S
C1499 C1498 1.391 . S
C1499 C1503 1.376 . S
C1500 C1498 1.394 . S
C1500 C1501 1.369 . S
C1500 C1504 1.531 . S
C1501 C1500 1.369 . S
C1501 C1502 1.410 . S
C1501 C1509 1.503 . S
C1502 C1501 1.410 . S
C1502 C1503 1.392 . S
C1502 C1505 1.511 . S
C1503 C1499 1.376 . S
C1503 C1502 1.392 . S
C1503 H1515 0.929 . S
C1504 C1500 1.531 . S
C1504 H1516 0.960 . S
C1504 H1517 0.962 . S
C1504 H1518 0.960 . S
C1505 C1502 1.511 . S
C1505 H1519 0.961 . S
C1505 H1520 0.961 . S
C1505 H1521 0.961 . S
C1506 C1507 1.370 . S
C1506 C1508 1.363 . S
C1506 H1522 0.931 . S
C1507 C1506 1.370 . S
C1507 C1511 1.408 . S
C1508 C1506 1.363 . S
C1508 C1509 1.370 . S
C1508 C1512 1.524 . S
C1509 C1501 1.503 . S
C1509 C1508 1.370 . S
C1509 C1510 1.403 . S
C1510 C1509 1.403 . S
C1510 C1511 1.404 . S
C1510 C1513 1.539 . S
C1511 C1507 1.408 . S
C1511 C1510 1.404 . S
C1511 H1523 0.930 . S
C1512 C1508 1.524 . S
C1512 H1524 0.956 . S
C1512 H1525 0.961 . S
C1512 H1526 0.961 . S
C1513 C1510 1.539 . S
C1513 H1527 0.958 . S
C1513 H1528 0.961 . S
C1513 H1529 0.960 . S
H1514 C1498 0.931 . S
H1515 C1503 0.929 . S
H1516 C1504 0.960 . S
H1517 C1504 0.962 . S
H1518 C1504 0.960 . S
H1519 C1505 0.961 . S
H1520 C1505 0.961 . S
H1521 C1505 0.961 . S
H1522 C1506 0.931 . S
H1523 C1511 0.930 . S
H1524 C1512 0.956 . S
H1525 C1512 0.961 . S
H1526 C1512 0.961 . S
H1527 C1513 0.958 . S
H1528 C1513 0.961 . S
H1529 C1513 0.960 . S
C1530 C1531 1.391 . S
C1530 C1532 1.394 . S
C1530 H1546 0.931 . S
C1531 C1530 1.391 . S
C1531 C1535 1.376 . S
C1532 C1530 1.394 . S
C1532 C1533 1.369 . S
C1532 C1536 1.531 . S
C1533 C1532 1.369 . S
C1533 C1534 1.410 . S
C1533 C1541 1.503 . S
C1534 C1533 1.410 . S
C1534 C1535 1.392 . S
C1534 C1537 1.511 . S
C1535 C1531 1.376 . S
C1535 C1534 1.392 . S
C1535 H1547 0.929 . S
C1536 C1532 1.531 . S
C1536 H1548 0.960 . S
C1536 H1549 0.962 . S
C1536 H1550 0.960 . S
C1537 C1534 1.511 . S
C1537 H1551 0.961 . S
C1537 H1552 0.961 . S
C1537 H1553 0.961 . S
C1538 C1539 1.370 . S
C1538 C1540 1.363 . S
C1538 H1554 0.931 . S
C1539 C1538 1.370 . S
C1539 C1543 1.408 . S
C1540 C1538 1.363 . S
C1540 C1541 1.370 . S
C1540 C1544 1.524 . S
C1541 C1533 1.503 . S
C1541 C1540 1.370 . S
C1541 C1542 1.403 . S
C1542 C1541 1.403 . S
C1542 C1543 1.404 . S
C1542 C1545 1.539 . S
C1543 C1539 1.408 . S
C1543 C1542 1.404 . S
C1543 H1555 0.930 . S
C1544 C1540 1.524 . S
C1544 H1556 0.956 . S
C1544 H1557 0.961 . S
C1544 H1558 0.961 . S
C1545 C1542 1.539 . S
C1545 H1559 0.958 . S
C1545 H1560 0.961 . S
C1545 H1561 0.960 . S
H1546 C1530 0.931 . S
H1547 C1535 0.929 . S
H1548 C1536 0.960 . S
H1549 C1536 0.962 . S
H1550 C1536 0.960 . S
H1551 C1537 0.961 . S
H1552 C1537 0.961 . S
H1553 C1537 0.961 . S
H1554 C1538 0.931 . S
H1555 C1543 0.930 . S
H1556 C1544 0.956 . S
H1557 C1544 0.961 . S
H1558 C1544 0.961 . S
H1559 C1545 0.958 . S
H1560 C1545 0.961 . S
H1561 C1545 0.960 . S
C1562 C1563 1.391 . S
C1562 C1564 1.394 . S
C1562 H1578 0.931 . S
C1563 C1562 1.391 . S
C1563 C1567 1.376 . S
C1564 C1562 1.394 . S
C1564 C1565 1.369 . S
C1564 C1568 1.531 . S
C1565 C1564 1.369 . S
C1565 C1566 1.410 . S
C1565 C1573 1.503 . S
C1566 C1565 1.410 . S
C1566 C1567 1.392 . S
C1566 C1569 1.511 . S
C1567 C1563 1.376 . S
C1567 C1566 1.392 . S
C1567 H1579 0.929 . S
C1568 C1564 1.531 . S
C1568 H1580 0.960 . S
C1568 H1581 0.962 . S
C1568 H1582 0.960 . S
C1569 C1566 1.511 . S
C1569 H1583 0.961 . S
C1569 H1584 0.961 . S
C1569 H1585 0.961 . S
C1570 C1571 1.370 . S
C1570 C1572 1.363 . S
C1570 H1586 0.931 . S
C1571 C1570 1.370 . S
C1571 C1575 1.408 . S
C1572 C1570 1.363 . S
C1572 C1573 1.370 . S
C1572 C1576 1.524 . S
C1573 C1565 1.503 . S
C1573 C1572 1.370 . S
C1573 C1574 1.403 . S
C1574 C1573 1.403 . S
C1574 C1575 1.404 . S
C1574 C1577 1.539 . S
C1575 C1571 1.408 . S
C1575 C1574 1.404 . S
C1575 H1587 0.930 . S
C1576 C1572 1.524 . S
C1576 H1588 0.956 . S
C1576 H1589 0.961 . S
C1576 H1590 0.961 . S
C1577 C1574 1.539 . S
C1577 H1591 0.958 . S
C1577 H1592 0.961 . S
C1577 H1593 0.960 . S
H1578 C1562 0.931 . S
H1579 C1567 0.929 . S
H1580 C1568 0.960 . S
H1581 C1568 0.962 . S
H1582 C1568 0.960 . S
H1583 C1569 0.961 . S
H1584 C1569 0.961 . S
H1585 C1569 0.961 . S
H1586 C1570 0.931 . S
H1587 C1575 0.930 . S
H1588 C1576 0.956 . S
H1589 C1576 0.961 . S
H1590 C1576 0.961 . S
H1591 C1577 0.958 . S
H1592 C1577 0.961 . S
H1593 C1577 0.960 . S
C1594 C1595 1.391 . S
C1594 C1596 1.394 . S
C1594 H1610 0.931 . S
C1595 C1594 1.391 . S
C1595 C1599 1.376 . S
C1596 C1594 1.394 . S
C1596 C1597 1.369 . S
C1596 C1600 1.531 . S
C1597 C1596 1.369 . S
C1597 C1598 1.410 . S
C1597 C1605 1.503 . S
C1598 C1597 1.410 . S
C1598 C1599 1.392 . S
C1598 C1601 1.511 . S
C1599 C1595 1.376 . S
C1599 C1598 1.392 . S
C1599 H1611 0.929 . S
C1600 C1596 1.531 . S
C1600 H1612 0.960 . S
C1600 H1613 0.962 . S
C1600 H1614 0.960 . S
C1601 C1598 1.511 . S
C1601 H1615 0.961 . S
C1601 H1616 0.961 . S
C1601 H1617 0.961 . S
C1602 C1603 1.370 . S
C1602 C1604 1.363 . S
C1602 H1618 0.931 . S
C1603 C1602 1.370 . S
C1603 C1607 1.408 . S
C1604 C1602 1.363 . S
C1604 C1605 1.370 . S
C1604 C1608 1.524 . S
C1605 C1597 1.503 . S
C1605 C1604 1.370 . S
C1605 C1606 1.403 . S
C1606 C1605 1.403 . S
C1606 C1607 1.404 . S
C1606 C1609 1.539 . S
C1607 C1603 1.408 . S
C1607 C1606 1.404 . S
C1607 H1619 0.930 . S
C1608 C1604 1.524 . S
C1608 H1620 0.956 . S
C1608 H1621 0.961 . S
C1608 H1622 0.961 . S
C1609 C1606 1.539 . S
C1609 H1623 0.958 . S
C1609 H1624 0.961 . S
C1609 H1625 0.960 . S
H1610 C1594 0.931 . S
H1611 C1599 0.929 . S
H1612 C1600 0.960 . S
H1613 C1600 0.962 . S
H1614 C1600 0.960 . S
H1615 C1601 0.961 . S
H1616 C1601 0.961 . S
H1617 C1601 0.961 . S
H1618 C1602 0.931 . S
H1619 C1607 0.930 . S
H1620 C1608 0.956 . S
H1621 C1608 0.961 . S
H1622 C1608 0.961 . S
H1623 C1609 0.958 . S
H1624 C1609 0.961 . S
H1625 C1609 0.960 . S
C1626 C1627 1.391 . S
C1626 C1628 1.394 . S
C1626 H1642 0.931 . S
C1627 C1626 1.391 . S
C1627 C1631 1.376 . S
C1628 C1626 1.394 . S
C1628 C1629 1.369 . S
C1628 C1632 1.531 . S
C1629 C1628 1.369 . S
C1629 C1630 1.410 . S
C1629 C1637 1.503 . S
C1630 C1629 1.410 . S
C1630 C1631 1.392 . S
C1630 C1633 1.511 . S
C1631 C1627 1.376 . S
C1631 C1630 1.392 . S
C1631 H1643 0.929 . S
C1632 C1628 1.531 . S
C1632 H1644 0.960 . S
C1632 H1645 0.962 . S
C1632 H1646 0.960 . S
C1633 C1630 1.511 . S
C1633 H1647 0.961 . S
C1633 H1648 0.961 . S
C1633 H1649 0.961 . S
C1634 C1635 1.370 . S
C1634 C1636 1.363 . S
C1634 H1650 0.931 . S
C1635 C1634 1.370 . S
C1635 C1639 1.408 . S
C1636 C1634 1.363 . S
C1636 C1637 1.370 . S
C1636 C1640 1.524 . S
C1637 C1629 1.503 . S
C1637 C1636 1.370 . S
C1637 C1638 1.403 . S
C1638 C1637 1.403 . S
C1638 C1639 1.404 . S
C1638 C1641 1.539 . S
C1639 C1635 1.408 . S
C1639 C1638 1.404 . S
C1639 H1651 0.930 . S
C1640 C1636 1.524 . S
C1640 H1652 0.956 . S
C1640 H1653 0.961 . S
C1640 H1654 0.961 . S
C1641 C1638 1.539 . S
C1641 H1655 0.958 . S
C1641 H1656 0.961 . S
C1641 H1657 0.960 . S
H1642 C1626 0.931 . S
H1643 C1631 0.929 . S
H1644 C1632 0.960 . S
H1645 C1632 0.962 . S
H1646 C1632 0.960 . S
H1647 C1633 0.961 . S
H1648 C1633 0.961 . S
H1649 C1633 0.961 . S
H1650 C1634 0.931 . S
H1651 C1639 0.930 . S
H1652 C1640 0.956 . S
H1653 C1640 0.961 . S
H1654 C1640 0.961 . S
H1655 C1641 0.958 . S
H1656 C1641 0.961 . S
H1657 C1641 0.960 . S
C1658 C1659 1.391 . S
C1658 C1660 1.394 . S
C1658 H1674 0.931 . S
C1659 C1658 1.391 . S
C1659 C1663 1.376 . S
C1660 C1658 1.394 . S
C1660 C1661 1.369 . S
C1660 C1664 1.531 . S
C1661 C1660 1.369 . S
C1661 C1662 1.410 . S
C1661 C1669 1.503 . S
C1662 C1661 1.410 . S
C1662 C1663 1.392 . S
C1662 C1665 1.511 . S
C1663 C1659 1.376 . S
C1663 C1662 1.392 . S
C1663 H1675 0.929 . S
C1664 C1660 1.531 . S
C1664 H1676 0.960 . S
C1664 H1677 0.962 . S
C1664 H1678 0.960 . S
C1665 C1662 1.511 . S
C1665 H1679 0.961 . S
C1665 H1680 0.961 . S
C1665 H1681 0.961 . S
C1666 C1667 1.370 . S
C1666 C1668 1.363 . S
C1666 H1682 0.931 . S
C1667 C1666 1.370 . S
C1667 C1671 1.408 . S
C1668 C1666 1.363 . S
C1668 C1669 1.370 . S
C1668 C1672 1.524 . S
C1669 C1661 1.503 . S
C1669 C1668 1.370 . S
C1669 C1670 1.403 . S
C1670 C1669 1.403 . S
C1670 C1671 1.404 . S
C1670 C1673 1.539 . S
C1671 C1667 1.408 . S
C1671 C1670 1.404 . S
C1671 H1683 0.930 . S
C1672 C1668 1.524 . S
C1672 H1684 0.956 . S
C1672 H1685 0.961 . S
C1672 H1686 0.961 . S
C1673 C1670 1.539 . S
C1673 H1687 0.958 . S
C1673 H1688 0.961 . S
C1673 H1689 0.960 . S
H1674 C1658 0.931 . S
H1675 C1663 0.929 . S
H1676 C1664 0.960 . S
H1677 C1664 0.962 . S
H1678 C1664 0.960 . S
H1679 C1665 0.961 . S
H1680 C1665 0.961 . S
H1681 C1665 0.961 . S
H1682 C1666 0.931 . S
H1683 C1671 0.930 . S
H1684 C1672 0.956 . S
H1685 C1672 0.961 . S
H1686 C1672 0.961 . S
H1687 C1673 0.958 . S
H1688 C1673 0.961 . S
H1689 C1673 0.960 . S
C1690 C1691 1.391 . S
C1690 C1692 1.394 . S
C1690 H1706 0.931 . S
C1691 C1690 1.391 . S
C1691 C1695 1.376 . S
C1692 C1690 1.394 . S
C1692 C1693 1.369 . S
C1692 C1696 1.531 . S
C1693 C1692 1.369 . S
C1693 C1694 1.410 . S
C1693 C1701 1.503 . S
C1694 C1693 1.410 . S
C1694 C1695 1.392 . S
C1694 C1697 1.511 . S
C1695 C1691 1.376 . S
C1695 C1694 1.392 . S
C1695 H1707 0.929 . S
C1696 C1692 1.531 . S
C1696 H1708 0.960 . S
C1696 H1709 0.962 . S
C1696 H1710 0.960 . S
C1697 C1694 1.511 . S
C1697 H1711 0.961 . S
C1697 H1712 0.961 . S
C1697 H1713 0.961 . S
C1698 C1699 1.370 . S
C1698 C1700 1.363 . S
C1698 H1714 0.931 . S
C1699 C1698 1.370 . S
C1699 C1703 1.408 . S
C1700 C1698 1.363 . S
C1700 C1701 1.370 . S
C1700 C1704 1.524 . S
C1701 C1693 1.503 . S
C1701 C1700 1.370 . S
C1701 C1702 1.403 . S
C1702 C1701 1.403 . S
C1702 C1703 1.404 . S
C1702 C1705 1.539 . S
C1703 C1699 1.408 . S
C1703 C1702 1.404 . S
C1703 H1715 0.930 . S
C1704 C1700 1.524 . S
C1704 H1716 0.956 . S
C1704 H1717 0.961 . S
C1704 H1718 0.961 . S
C1705 C1702 1.539 . S
C1705 H1719 0.958 . S
C1705 H1720 0.961 . S
C1705 H1721 0.960 . S
H1706 C1690 0.931 . S
H1707 C1695 0.929 . S
H1708 C1696 0.960 . S
H1709 C1696 0.962 . S
H1710 C1696 0.960 . S
H1711 C1697 0.961 . S
H1712 C1697 0.961 . S
H1713 C1697 0.961 . S
H1714 C1698 0.931 . S
H1715 C1703 0.930 . S
H1716 C1704 0.956 . S
H1717 C1704 0.961 . S
H1718 C1704 0.961 . S
H1719 C1705 0.958 . S
H1720 C1705 0.961 . S
H1721 C1705 0.960 . S
C1722 C1723 1.391 . S
C1722 C1724 1.394 . S
C1722 H1738 0.931 . S
C1723 C1722 1.391 . S
C1723 C1727 1.376 . S
C1724 C1722 1.394 . S
C1724 C1725 1.369 . S
C1724 C1728 1.531 . S
C1725 C1724 1.369 . S
C1725 C1726 1.410 . S
C1725 C1733 1.503 . S
C1726 C1725 1.410 . S
C1726 C1727 1.392 . S
C1726 C1729 1.511 . S
C1727 C1723 1.376 . S
C1727 C1726 1.392 . S
C1727 H1739 0.929 . S
C1728 C1724 1.531 . S
C1728 H1740 0.960 . S
C1728 H1741 0.962 . S
C1728 H1742 0.960 . S
C1729 C1726 1.511 . S
C1729 H1743 0.961 . S
C1729 H1744 0.961 . S
C1729 H1745 0.961 . S
C1730 C1731 1.370 . S
C1730 C1732 1.363 . S
C1730 H1746 0.931 . S
C1731 C1730 1.370 . S
C1731 C1735 1.408 . S
C1732 C1730 1.363 . S
C1732 C1733 1.370 . S
C1732 C1736 1.524 . S
C1733 C1725 1.503 . S
C1733 C1732 1.370 . S
C1733 C1734 1.403 . S
C1734 C1733 1.403 . S
C1734 C1735 1.404 . S
C1734 C1737 1.539 . S
C1735 C1731 1.408 . S
C1735 C1734 1.404 . S
C1735 H1747 0.930 . S
C1736 C1732 1.524 . S
C1736 H1748 0.956 . S
C1736 H1749 0.961 . S
C1736 H1750 0.961 . S
C1737 C1734 1.539 . S
C1737 H1751 0.958 . S
C1737 H1752 0.961 . S
C1737 H1753 0.960 . S
H1738 C1722 0.931 . S
H1739 C1727 0.929 . S
H1740 C1728 0.960 . S
H1741 C1728 0.962 . S
H1742 C1728 0.960 . S
H1743 C1729 0.961 . S
H1744 C1729 0.961 . S
H1745 C1729 0.961 . S
H1746 C1730 0.931 . S
H1747 C1735 0.930 . S
H1748 C1736 0.956 . S
H1749 C1736 0.961 . S
H1750 C1736 0.961 . S
H1751 C1737 0.958 . S
H1752 C1737 0.961 . S
H1753 C1737 0.960 . S
C1754 C1755 1.391 . S
C1754 C1756 1.394 . S
C1754 H1770 0.931 . S
C1755 C1754 1.391 . S
C1755 C1759 1.376 . S
C1756 C1754 1.394 . S
C1756 C1757 1.369 . S
C1756 C1760 1.531 . S
C1757 C1756 1.369 . S
C1757 C1758 1.410 . S
C1757 C1765 1.503 . S
C1758 C1757 1.410 . S
C1758 C1759 1.392 . S
C1758 C1761 1.511 . S
C1759 C1755 1.376 . S
C1759 C1758 1.392 . S
C1759 H1771 0.929 . S
C1760 C1756 1.531 . S
C1760 H1772 0.960 . S
C1760 H1773 0.962 . S
C1760 H1774 0.960 . S
C1761 C1758 1.511 . S
C1761 H1775 0.961 . S
C1761 H1776 0.961 . S
C1761 H1777 0.961 . S
C1762 C1763 1.370 . S
C1762 C1764 1.363 . S
C1762 H1778 0.931 . S
C1763 C1762 1.370 . S
C1763 C1767 1.408 . S
C1764 C1762 1.363 . S
C1764 C1765 1.370 . S
C1764 C1768 1.524 . S
C1765 C1757 1.503 . S
C1765 C1764 1.370 . S
C1765 C1766 1.403 . S
C1766 C1765 1.403 . S
C1766 C1767 1.404 . S
C1766 C1769 1.539 . S
C1767 C1763 1.408 . S
C1767 C1766 1.404 . S
C1767 H1779 0.930 . S
C1768 C1764 1.524 . S
C1768 H1780 0.956 . S
C1768 H1781 0.961 . S
C1768 H1782 0.961 . S
C1769 C1766 1.539 . S
C1769 H1783 0.958 . S
C1769 H1784 0.961 . S
C1769 H1785 0.960 . S
H1770 C1754 0.931 . S
H1771 C1759 0.929 . S
H1772 C1760 0.960 . S
H1773 C1760 0.962 . S
H1774 C1760 0.960 . S
H1775 C1761 0.961 . S
H1776 C1761 0.961 . S
H1777 C1761 0.961 . S
H1778 C1762 0.931 . S
H1779 C1767 0.930 . S
H1780 C1768 0.956 . S
H1781 C1768 0.961 . S
H1782 C1768 0.961 . S
H1783 C1769 0.958 . S
H1784 C1769 0.961 . S
H1785 C1769 0.960 . S
C1786 C1787 1.391 . S
C1786 C1788 1.394 . S
C1786 H1802 0.931 . S
C1787 C1786 1.391 . S
C1787 C1791 1.376 . S
C1788 C1786 1.394 . S
C1788 C1789 1.369 . S
C1788 C1792 1.531 . S
C1789 C1788 1.369 . S
C1789 C1790 1.410 . S
C1789 C1797 1.503 . S
C1790 C1789 1.410 . S
C1790 C1791 1.392 . S
C1790 C1793 1.511 . S
C1791 C1787 1.376 . S
C1791 C1790 1.392 . S
C1791 H1803 0.929 . S
C1792 C1788 1.531 . S
C1792 H1804 0.960 . S
C1792 H1805 0.962 . S
C1792 H1806 0.960 . S
C1793 C1790 1.511 . S
C1793 H1807 0.961 . S
C1793 H1808 0.961 . S
C1793 H1809 0.961 . S
C1794 C1795 1.370 . S
C1794 C1796 1.363 . S
C1794 H1810 0.931 . S
C1795 C1794 1.370 . S
C1795 C1799 1.408 . S
C1796 C1794 1.363 . S
C1796 C1797 1.370 . S
C1796 C1800 1.524 . S
C1797 C1789 1.503 . S
C1797 C1796 1.370 . S
C1797 C1798 1.403 . S
C1798 C1797 1.403 . S
C1798 C1799 1.404 . S
C1798 C1801 1.539 . S
C1799 C1795 1.408 . S
C1799 C1798 1.404 . S
C1799 H1811 0.930 . S
C1800 C1796 1.524 . S
C1800 H1812 0.956 . S
C1800 H1813 0.961 . S
C1800 H1814 0.961 . S
C1801 C1798 1.539 . S
C1801 H1815 0.958 . S
C1801 H1816 0.961 . S
C1801 H1817 0.960 . S
H1802 C1786 0.931 . S
H1803 C1791 0.929 . S
H1804 C1792 0.960 . S
H1805 C1792 0.962 . S
H1806 C1792 0.960 . S
H1807 C1793 0.961 . S
H1808 C1793 0.961 . S
H1809 C1793 0.961 . S
H1810 C1794 0.931 . S
H1811 C1799 0.930 . S
H1812 C1800 0.956 . S
H1813 C1800 0.961 . S
H1814 C1800 0.961 . S
H1815 C1801 0.958 . S
H1816 C1801 0.961 . S
H1817 C1801 0.960 . S
C1818 C1819 1.391 . S
C1818 C1820 1.394 . S
C1818 H1834 0.931 . S
C1819 C1818 1.391 . S
C1819 C1823 1.376 . S
C1820 C1818 1.394 . S
C1820 C1821 1.369 . S
C1820 C1824 1.531 . S
C1821 C1820 1.369 . S
C1821 C1822 1.410 . S
C1821 C1829 1.503 . S
C1822 C1821 1.410 . S
C1822 C1823 1.392 . S
C1822 C1825 1.511 . S
C1823 C1819 1.376 . S
C1823 C1822 1.392 . S
C1823 H1835 0.929 . S
C1824 C1820 1.531 . S
C1824 H1836 0.960 . S
C1824 H1837 0.962 . S
C1824 H1838 0.960 . S
C1825 C1822 1.511 . S
C1825 H1839 0.961 . S
C1825 H1840 0.961 . S
C1825 H1841 0.961 . S
C1826 C1827 1.370 . S
C1826 C1828 1.363 . S
C1826 H1842 0.931 . S
C1827 C1826 1.370 . S
C1827 C1831 1.408 . S
C1828 C1826 1.363 . S
C1828 C1829 1.370 . S
C1828 C1832 1.524 . S
C1829 C1821 1.503 . S
C1829 C1828 1.370 . S
C1829 C1830 1.403 . S
C1830 C1829 1.403 . S
C1830 C1831 1.404 . S
C1830 C1833 1.539 . S
C1831 C1827 1.408 . S
C1831 C1830 1.404 . S
C1831 H1843 0.930 . S
C1832 C1828 1.524 . S
C1832 H1844 0.956 . S
C1832 H1845 0.961 . S
C1832 H1846 0.961 . S
C1833 C1830 1.539 . S
C1833 H1847 0.958 . S
C1833 H1848 0.961 . S
C1833 H1849 0.960 . S
H1834 C1818 0.931 . S
H1835 C1823 0.929 . S
H1836 C1824 0.960 . S
H1837 C1824 0.962 . S
H1838 C1824 0.960 . S
H1839 C1825 0.961 . S
H1840 C1825 0.961 . S
H1841 C1825 0.961 . S
H1842 C1826 0.931 . S
H1843 C1831 0.930 . S
H1844 C1832 0.956 . S
H1845 C1832 0.961 . S
H1846 C1832 0.961 . S
H1847 C1833 0.958 . S
H1848 C1833 0.961 . S
H1849 C1833 0.960 . S
C1850 C1851 1.391 . S
C1850 C1852 1.394 . S
C1850 H1866 0.931 . S
C1851 C1850 1.391 . S
C1851 C1855 1.376 . S
C1852 C1850 1.394 . S
C1852 C1853 1.369 . S
C1852 C1856 1.531 . S
C1853 C1852 1.369 . S
C1853 C1854 1.410 . S
C1853 C1861 1.503 . S
C1854 C1853 1.410 . S
C1854 C1855 1.392 . S
C1854 C1857 1.511 . S
C1855 C1851 1.376 . S
C1855 C1854 1.392 . S
C1855 H1867 0.929 . S
C1856 C1852 1.531 . S
C1856 H1868 0.960 . S
C1856 H1869 0.962 . S
C1856 H1870 0.960 . S
C1857 C1854 1.511 . S
C1857 H1871 0.961 . S
C1857 H1872 0.961 . S
C1857 H1873 0.961 . S
C1858 C1859 1.370 . S
C1858 C1860 1.363 . S
C1858 H1874 0.931 . S
C1859 C1858 1.370 . S
C1859 C1863 1.408 . S
C1860 C1858 1.363 . S
C1860 C1861 1.370 . S
C1860 C1864 1.524 . S
C1861 C1853 1.503 . S
C1861 C1860 1.370 . S
C1861 C1862 1.403 . S
C1862 C1861 1.403 . S
C1862 C1863 1.404 . S
C1862 C1865 1.539 . S
C1863 C1859 1.408 . S
C1863 C1862 1.404 . S
C1863 H1875 0.930 . S
C1864 C1860 1.524 . S
C1864 H1876 0.956 . S
C1864 H1877 0.961 . S
C1864 H1878 0.961 . S
C1865 C1862 1.539 . S
C1865 H1879 0.958 . S
C1865 H1880 0.961 . S
C1865 H1881 0.960 . S
H1866 C1850 0.931 . S
H1867 C1855 0.929 . S
H1868 C1856 0.960 . S
H1869 C1856 0.962 . S
H1870 C1856 0.960 . S
H1871 C1857 0.961 . S
H1872 C1857 0.961 . S
H1873 C1857 0.961 . S
H1874 C1858 0.931 . S
H1875 C1863 0.930 . S
H1876 C1864 0.956 . S
H1877 C1864 0.961 . S
H1878 C1864 0.961 . S
H1879 C1865 0.958 . S
H1880 C1865 0.961 . S
H1881 C1865 0.960 . S
C355 C171 1.753 . S
C347 C9 1.753 . S
C387 C161 2.031 . S
C379 C28 2.024 . S
C419 C162 0.868 . S
C411 C49 0.896 . S
C443 C79 1.927 . S
C451 C184 1.985 . S
C475 C99 1.991 . S
C483 C187 2.041 . S
C515 C170 0.832 . S
C507 C101 0.825 . S
C539 C128 1.927 . S
C547 C160 1.984 . S
C571 C141 1.767 . S
C579 C178 1.768 . S
C611 C191 1.312 . S
C603 C16 1.289 . S
C635 C26 1.120 . S
C643 C240 1.078 . S
C675 C218 1.346 . S
C667 C56 1.332 . S
C707 C232 0.812 . S
C699 C69 0.874 . S
C731 C89 0.801 . S
C739 C193 0.857 . S
C771 C246 1.992 . S
C763 C108 1.974 . S
C795 C126 1.140 . S
C803 C202 1.089 . S
C827 C148 2.029 . S
C835 C223 2.063 . S
C859 C19 2.009 . S
C867 C249 2.055 . S
C891 C96 1.091 . S
C899 C233 1.086 . S
C931 C192 1.356 . S
C923 C106 1.325 . S
C963 C224 0.859 . S
C955 C121 0.822 . S
C987 C146 1.217 . S
C995 C215 1.296 . S
C1019 C59 1.960 . S
C1027 C222 1.985 . S
C1059 C209 1.113 . S
C1051 C76 1.073 . S
C1083 C21 0.810 . S
C1091 C201 0.841 . S
C1115 C149 1.751 . S
C1123 C264 1.759 . S
C1147 C88 1.977 . S
C1155 C254 2.044 . S
C1187 C255 0.847 . S
C1179 C109 0.876 . S
C1219 C277 1.976 . S
C1211 C139 1.955 . S
C1243 C39 2.003 . S
C1251 C280 2.035 . S
C1283 C263 0.871 . S
C1275 C41 0.888 . S
C1307 C68 1.971 . S
C1315 C253 1.967 . S
C1339 C1 1.775 . S
C1347 C271 1.743 . S
C1371 C156 1.291 . S
C1379 C284 1.314 . S
C1411 C333 1.080 . S
C1403 C86 1.120 . S
C1435 C116 1.326 . S
C1443 C311 1.355 . S
C1467 C129 0.809 . S
C1475 C325 0.848 . S
C1507 C286 0.842 . S
C1499 C29 0.828 . S
C1531 C48 1.948 . S
C1539 C339 1.983 . S
C1571 C295 1.092 . S
C1563 C66 1.138 . S
C1603 C316 2.050 . S
C1595 C8 2.002 . S
C1635 C342 2.060 . S
C1627 C159 2.047 . S
C1659 C36 1.105 . S
C1667 C326 1.073 . S
C1691 C46 1.329 . S
C1699 C285 1.350 . S
C1731 C317 0.809 . S
C1723 C61 0.853 . S
C1755 C6 1.203 . S
C1763 C308 1.291 . S
C1787 C119 1.987 . S
C1795 C315 1.993 . S
C1827 C302 1.113 . S
C1819 C136 1.066 . S
C1859 C294 0.851 . S
C1851 C81 0.800 . S
