# Generated by pormake.
# Topology gar, (4,6)-cn, num edge types: 1
# Building blocks:
#     Node 0, Type 0, BuildingBlock: NAHDIM_clean_sbu_0, # of connection points: 4
#     Node 1, Type 0, BuildingBlock: NAHDIM_clean_sbu_0, # of connection points: 4
#     Node 2, Type 0, BuildingBlock: NAHDIM_clean_sbu_0, # of connection points: 4
#     Node 3, Type 0, BuildingBlock: NAHDIM_clean_sbu_0, # of connection points: 4
#     Node 4, Type 0, BuildingBlock: NAHDIM_clean_sbu_0, # of connection points: 4
#     Node 5, Type 0, BuildingBlock: NAHDIM_clean_sbu_0, # of connection points: 4
#     Node 6, Type 0, BuildingBlock: NAHDIM_clean_sbu_0, # of connection points: 4
#     Node 7, Type 0, BuildingBlock: NAHDIM_clean_sbu_0, # of connection points: 4
#     Node 8, Type 0, BuildingBlock: NAHDIM_clean_sbu_0, # of connection points: 4
#     Node 9, Type 0, BuildingBlock: NAHDIM_clean_sbu_0, # of connection points: 4
#     Node 10, Type 0, BuildingBlock: NAHDIM_clean_sbu_0, # of connection points: 4
#     Node 11, Type 0, BuildingBlock: NAHDIM_clean_sbu_0, # of connection points: 4
#     Node 12, Type 0, BuildingBlock: NAHDIM_clean_sbu_0, # of connection points: 4
#     Node 13, Type 0, BuildingBlock: NAHDIM_clean_sbu_0, # of connection points: 4
#     Node 14, Type 0, BuildingBlock: NAHDIM_clean_sbu_0, # of connection points: 4
#     Node 15, Type 0, BuildingBlock: NAHDIM_clean_sbu_0, # of connection points: 4
#     Node 16, Type 0, BuildingBlock: NAHDIM_clean_sbu_0, # of connection points: 4
#     Node 17, Type 0, BuildingBlock: NAHDIM_clean_sbu_0, # of connection points: 4
#     Node 18, Type 0, BuildingBlock: NAHDIM_clean_sbu_0, # of connection points: 4
#     Node 19, Type 0, BuildingBlock: NAHDIM_clean_sbu_0, # of connection points: 4
#     Node 20, Type 0, BuildingBlock: NAHDIM_clean_sbu_0, # of connection points: 4
#     Node 21, Type 0, BuildingBlock: NAHDIM_clean_sbu_0, # of connection points: 4
#     Node 22, Type 0, BuildingBlock: NAHDIM_clean_sbu_0, # of connection points: 4
#     Node 23, Type 0, BuildingBlock: NAHDIM_clean_sbu_0, # of connection points: 4
#     Node 24, Type 1, BuildingBlock: BETDEL_clean_sbu_0, # of connection points: 6
#     Node 25, Type 1, BuildingBlock: BETDEL_clean_sbu_0, # of connection points: 6
#     Node 26, Type 1, BuildingBlock: BETDEL_clean_sbu_0, # of connection points: 6
#     Node 27, Type 1, BuildingBlock: BETDEL_clean_sbu_0, # of connection points: 6
#     Node 28, Type 1, BuildingBlock: BETDEL_clean_sbu_0, # of connection points: 6
#     Node 29, Type 1, BuildingBlock: BETDEL_clean_sbu_0, # of connection points: 6
#     Node 30, Type 1, BuildingBlock: BETDEL_clean_sbu_0, # of connection points: 6
#     Node 31, Type 1, BuildingBlock: BETDEL_clean_sbu_0, # of connection points: 6
#     Node 32, Type 1, BuildingBlock: BETDEL_clean_sbu_0, # of connection points: 6
#     Node 33, Type 1, BuildingBlock: BETDEL_clean_sbu_0, # of connection points: 6
#     Node 34, Type 1, BuildingBlock: BETDEL_clean_sbu_0, # of connection points: 6
#     Node 35, Type 1, BuildingBlock: BETDEL_clean_sbu_0, # of connection points: 6
#     Node 36, Type 1, BuildingBlock: BETDEL_clean_sbu_0, # of connection points: 6
#     Node 37, Type 1, BuildingBlock: BETDEL_clean_sbu_0, # of connection points: 6
#     Node 38, Type 1, BuildingBlock: BETDEL_clean_sbu_0, # of connection points: 6
#     Node 39, Type 1, BuildingBlock: BETDEL_clean_sbu_0, # of connection points: 6
#     Edge 40, Type (0, 1), BuildingBlock: ZUJKAS_clean_linker_0, # of connection points: 2
#     Edge 41, Type (0, 1), BuildingBlock: ZUJKAS_clean_linker_0, # of connection points: 2
#     Edge 42, Type (0, 1), BuildingBlock: ZUJKAS_clean_linker_0, # of connection points: 2
#     Edge 43, Type (0, 1), BuildingBlock: ZUJKAS_clean_linker_0, # of connection points: 2
#     Edge 44, Type (0, 1), BuildingBlock: ZUJKAS_clean_linker_0, # of connection points: 2
#     Edge 45, Type (0, 1), BuildingBlock: ZUJKAS_clean_linker_0, # of connection points: 2
#     Edge 46, Type (0, 1), BuildingBlock: ZUJKAS_clean_linker_0, # of connection points: 2
#     Edge 47, Type (0, 1), BuildingBlock: ZUJKAS_clean_linker_0, # of connection points: 2
#     Edge 48, Type (0, 1), BuildingBlock: ZUJKAS_clean_linker_0, # of connection points: 2
#     Edge 49, Type (0, 1), BuildingBlock: ZUJKAS_clean_linker_0, # of connection points: 2
#     Edge 50, Type (0, 1), BuildingBlock: ZUJKAS_clean_linker_0, # of connection points: 2
#     Edge 51, Type (0, 1), BuildingBlock: ZUJKAS_clean_linker_0, # of connection points: 2
#     Edge 52, Type (0, 1), BuildingBlock: ZUJKAS_clean_linker_0, # of connection points: 2
#     Edge 53, Type (0, 1), BuildingBlock: ZUJKAS_clean_linker_0, # of connection points: 2
#     Edge 54, Type (0, 1), BuildingBlock: ZUJKAS_clean_linker_0, # of connection points: 2
#     Edge 55, Type (0, 1), BuildingBlock: ZUJKAS_clean_linker_0, # of connection points: 2
#     Edge 56, Type (0, 1), BuildingBlock: ZUJKAS_clean_linker_0, # of connection points: 2
#     Edge 57, Type (0, 1), BuildingBlock: ZUJKAS_clean_linker_0, # of connection points: 2
#     Edge 58, Type (0, 1), BuildingBlock: ZUJKAS_clean_linker_0, # of connection points: 2
#     Edge 59, Type (0, 1), BuildingBlock: ZUJKAS_clean_linker_0, # of connection points: 2
#     Edge 60, Type (0, 1), BuildingBlock: ZUJKAS_clean_linker_0, # of connection points: 2
#     Edge 61, Type (0, 1), BuildingBlock: ZUJKAS_clean_linker_0, # of connection points: 2
#     Edge 62, Type (0, 1), BuildingBlock: ZUJKAS_clean_linker_0, # of connection points: 2
#     Edge 63, Type (0, 1), BuildingBlock: ZUJKAS_clean_linker_0, # of connection points: 2
#     Edge 64, Type (0, 1), BuildingBlock: ZUJKAS_clean_linker_0, # of connection points: 2
#     Edge 65, Type (0, 1), BuildingBlock: ZUJKAS_clean_linker_0, # of connection points: 2
#     Edge 66, Type (0, 1), BuildingBlock: ZUJKAS_clean_linker_0, # of connection points: 2
#     Edge 67, Type (0, 1), BuildingBlock: ZUJKAS_clean_linker_0, # of connection points: 2
#     Edge 68, Type (0, 1), BuildingBlock: ZUJKAS_clean_linker_0, # of connection points: 2
#     Edge 69, Type (0, 1), BuildingBlock: ZUJKAS_clean_linker_0, # of connection points: 2
#     Edge 70, Type (0, 1), BuildingBlock: ZUJKAS_clean_linker_0, # of connection points: 2
#     Edge 71, Type (0, 1), BuildingBlock: ZUJKAS_clean_linker_0, # of connection points: 2
#     Edge 72, Type (0, 1), BuildingBlock: ZUJKAS_clean_linker_0, # of connection points: 2
#     Edge 73, Type (0, 1), BuildingBlock: ZUJKAS_clean_linker_0, # of connection points: 2
#     Edge 74, Type (0, 1), BuildingBlock: ZUJKAS_clean_linker_0, # of connection points: 2
#     Edge 75, Type (0, 1), BuildingBlock: ZUJKAS_clean_linker_0, # of connection points: 2
#     Edge 76, Type (0, 1), BuildingBlock: ZUJKAS_clean_linker_0, # of connection points: 2
#     Edge 77, Type (0, 1), BuildingBlock: ZUJKAS_clean_linker_0, # of connection points: 2
#     Edge 78, Type (0, 1), BuildingBlock: ZUJKAS_clean_linker_0, # of connection points: 2
#     Edge 79, Type (0, 1), BuildingBlock: ZUJKAS_clean_linker_0, # of connection points: 2
#     Edge 80, Type (0, 1), BuildingBlock: ZUJKAS_clean_linker_0, # of connection points: 2
#     Edge 81, Type (0, 1), BuildingBlock: ZUJKAS_clean_linker_0, # of connection points: 2
#     Edge 82, Type (0, 1), BuildingBlock: ZUJKAS_clean_linker_0, # of connection points: 2
#     Edge 83, Type (0, 1), BuildingBlock: ZUJKAS_clean_linker_0, # of connection points: 2
#     Edge 84, Type (0, 1), BuildingBlock: ZUJKAS_clean_linker_0, # of connection points: 2
#     Edge 85, Type (0, 1), BuildingBlock: ZUJKAS_clean_linker_0, # of connection points: 2
#     Edge 86, Type (0, 1), BuildingBlock: ZUJKAS_clean_linker_0, # of connection points: 2
#     Edge 87, Type (0, 1), BuildingBlock: ZUJKAS_clean_linker_0, # of connection points: 2
#     Edge 88, Type (0, 1), BuildingBlock: ZUJKAS_clean_linker_0, # of connection points: 2
#     Edge 89, Type (0, 1), BuildingBlock: ZUJKAS_clean_linker_0, # of connection points: 2
#     Edge 90, Type (0, 1), BuildingBlock: ZUJKAS_clean_linker_0, # of connection points: 2
#     Edge 91, Type (0, 1), BuildingBlock: ZUJKAS_clean_linker_0, # of connection points: 2
#     Edge 92, Type (0, 1), BuildingBlock: ZUJKAS_clean_linker_0, # of connection points: 2
#     Edge 93, Type (0, 1), BuildingBlock: ZUJKAS_clean_linker_0, # of connection points: 2
#     Edge 94, Type (0, 1), BuildingBlock: ZUJKAS_clean_linker_0, # of connection points: 2
#     Edge 95, Type (0, 1), BuildingBlock: ZUJKAS_clean_linker_0, # of connection points: 2
#     Edge 96, Type (0, 1), BuildingBlock: ZUJKAS_clean_linker_0, # of connection points: 2
#     Edge 97, Type (0, 1), BuildingBlock: ZUJKAS_clean_linker_0, # of connection points: 2
#     Edge 98, Type (0, 1), BuildingBlock: ZUJKAS_clean_linker_0, # of connection points: 2
#     Edge 99, Type (0, 1), BuildingBlock: ZUJKAS_clean_linker_0, # of connection points: 2
#     Edge 100, Type (0, 1), BuildingBlock: ZUJKAS_clean_linker_0, # of connection points: 2
#     Edge 101, Type (0, 1), BuildingBlock: ZUJKAS_clean_linker_0, # of connection points: 2
#     Edge 102, Type (0, 1), BuildingBlock: ZUJKAS_clean_linker_0, # of connection points: 2
#     Edge 103, Type (0, 1), BuildingBlock: ZUJKAS_clean_linker_0, # of connection points: 2
#     Edge 104, Type (0, 1), BuildingBlock: ZUJKAS_clean_linker_0, # of connection points: 2
#     Edge 105, Type (0, 1), BuildingBlock: ZUJKAS_clean_linker_0, # of connection points: 2
#     Edge 106, Type (0, 1), BuildingBlock: ZUJKAS_clean_linker_0, # of connection points: 2
#     Edge 107, Type (0, 1), BuildingBlock: ZUJKAS_clean_linker_0, # of connection points: 2
#     Edge 108, Type (0, 1), BuildingBlock: ZUJKAS_clean_linker_0, # of connection points: 2
#     Edge 109, Type (0, 1), BuildingBlock: ZUJKAS_clean_linker_0, # of connection points: 2
#     Edge 110, Type (0, 1), BuildingBlock: ZUJKAS_clean_linker_0, # of connection points: 2
#     Edge 111, Type (0, 1), BuildingBlock: ZUJKAS_clean_linker_0, # of connection points: 2
#     Edge 112, Type (0, 1), BuildingBlock: ZUJKAS_clean_linker_0, # of connection points: 2
#     Edge 113, Type (0, 1), BuildingBlock: ZUJKAS_clean_linker_0, # of connection points: 2
#     Edge 114, Type (0, 1), BuildingBlock: ZUJKAS_clean_linker_0, # of connection points: 2
#     Edge 115, Type (0, 1), BuildingBlock: ZUJKAS_clean_linker_0, # of connection points: 2
#     Edge 116, Type (0, 1), BuildingBlock: ZUJKAS_clean_linker_0, # of connection points: 2
#     Edge 117, Type (0, 1), BuildingBlock: ZUJKAS_clean_linker_0, # of connection points: 2
#     Edge 118, Type (0, 1), BuildingBlock: ZUJKAS_clean_linker_0, # of connection points: 2
#     Edge 119, Type (0, 1), BuildingBlock: ZUJKAS_clean_linker_0, # of connection points: 2
#     Edge 120, Type (0, 1), BuildingBlock: ZUJKAS_clean_linker_0, # of connection points: 2
#     Edge 121, Type (0, 1), BuildingBlock: ZUJKAS_clean_linker_0, # of connection points: 2
#     Edge 122, Type (0, 1), BuildingBlock: ZUJKAS_clean_linker_0, # of connection points: 2
#     Edge 123, Type (0, 1), BuildingBlock: ZUJKAS_clean_linker_0, # of connection points: 2
#     Edge 124, Type (0, 1), BuildingBlock: ZUJKAS_clean_linker_0, # of connection points: 2
#     Edge 125, Type (0, 1), BuildingBlock: ZUJKAS_clean_linker_0, # of connection points: 2
#     Edge 126, Type (0, 1), BuildingBlock: ZUJKAS_clean_linker_0, # of connection points: 2
#     Edge 127, Type (0, 1), BuildingBlock: ZUJKAS_clean_linker_0, # of connection points: 2
#     Edge 128, Type (0, 1), BuildingBlock: ZUJKAS_clean_linker_0, # of connection points: 2
#     Edge 129, Type (0, 1), BuildingBlock: ZUJKAS_clean_linker_0, # of connection points: 2
#     Edge 130, Type (0, 1), BuildingBlock: ZUJKAS_clean_linker_0, # of connection points: 2
#     Edge 131, Type (0, 1), BuildingBlock: ZUJKAS_clean_linker_0, # of connection points: 2
#     Edge 132, Type (0, 1), BuildingBlock: ZUJKAS_clean_linker_0, # of connection points: 2
#     Edge 133, Type (0, 1), BuildingBlock: ZUJKAS_clean_linker_0, # of connection points: 2
#     Edge 134, Type (0, 1), BuildingBlock: ZUJKAS_clean_linker_0, # of connection points: 2
#     Edge 135, Type (0, 1), BuildingBlock: ZUJKAS_clean_linker_0, # of connection points: 2
# Relax obj value: 0.152
# Max RMSD: 0.262
# Mean RMSD: 0.172
data_MOF--net-gar--node1-NAHDIM_clean_sbu_0--node2-BETDEL_clean_sbu_0--edge1-ZUJKAS_clean_linker_0
_symmetry_space_group_name_H-M    P1
_symmetry_Int_Tables_number       1
_symmetry_cell_setting            triclinic
loop_
_symmetry_equiv_pos_as_xyz
'x, y, z'
_cell_length_a     72.89192
_cell_length_b     68.837727
_cell_length_c     68.802037
_cell_angle_alpha  95.188634
_cell_angle_beta   92.870906
_cell_angle_gamma 100.78691
loop_
_atom_site_label
_atom_site_type_symbol
_atom_site_fract_x
_atom_site_fract_y
_atom_site_fract_z
_atom_type_partial_charge
C0 C 0.05909 0.27935 0.37817 0.0
O1 O 0.06199 0.28708 0.3965 0.0
O2 O 0.01929 0.2484 0.40463 0.0
Zn3 Zn 0.021 0.27195 0.38879 0.0
O4 O 0.02543 0.29759 0.40668 0.0
C5 C 0.98168 0.25966 0.3738 0.0
O6 O 0.98097 0.24586 0.38588 0.0
O7 O 0.04245 0.27197 0.37142 0.0
C8 C 0.0114 0.30483 0.41188 0.0
O9 O 0.99447 0.2951 0.40608 0.0
C10 C 0.01039 0.24674 0.42002 0.0
O11 O 0.00151 0.26081 0.42617 0.0
O12 O -0.0028 0.27116 0.37208 0.0
C13 C 0.96204 0.77897 0.64335 0.0
O14 O 0.95805 0.7743 0.62448 0.0
O15 O 0.99242 0.7528 0.61555 0.0
Zn16 Zn -0.00124 0.77992 0.63065 0.0
O17 O 0.00011 0.80213 0.61308 0.0
C18 C 0.03615 0.7739 0.63579 0.0
O19 O 0.03212 0.76664 0.61744 0.0
O20 O 0.97908 0.78232 0.6499 0.0
C21 C 0.00692 0.802 0.59642 0.0
O22 O 0.01363 0.78651 0.58958 0.0
C23 C 0.98353 0.74746 0.59899 0.0
O24 O 0.97656 0.76052 0.58961 0.0
O25 O 0.02393 0.78128 0.645 0.0
C26 C 0.56089 0.76756 0.87893 0.0
O27 O 0.56276 0.76278 0.89688 0.0
O28 O 0.52206 0.74832 0.90598 0.0
Zn29 Zn 0.52581 0.77332 0.89223 0.0
O30 O 0.53354 0.79758 0.91144 0.0
C31 C 0.48771 0.77726 0.88826 0.0
O32 O 0.48919 0.77539 0.90708 0.0
O33 O 0.54577 0.7726 0.8732 0.0
C34 C 0.53499 0.81425 0.90454 0.0
O35 O 0.5323 0.81456 0.88554 0.0
C36 C 0.52069 0.74852 0.92435 0.0
O37 O 0.52149 0.76557 0.93493 0.0
O38 O 0.50172 0.77617 0.87822 0.0
C39 C 0.4577 0.27617 0.14201 0.0
O40 O 0.45436 0.27825 0.12344 0.0
O41 O 0.48539 0.24407 0.11214 0.0
Zn42 Zn 0.49268 0.27069 0.12795 0.0
O43 O 0.4938 0.29266 0.11025 0.0
C44 C 0.53078 0.26657 0.1314 0.0
O45 O 0.52741 0.26244 0.11239 0.0
O46 O 0.47362 0.27299 0.14773 0.0
C47 C 0.50598 0.30864 0.11298 0.0
O48 O 0.51839 0.31119 0.12796 0.0
C49 C 0.48049 0.24176 0.09397 0.0
O50 O 0.47934 0.25741 0.08472 0.0
O51 O 0.51789 0.27128 0.14157 0.0
C52 C 0.98854 0.80063 0.16202 0.0
O53 O 0.99052 0.811 0.14689 0.0
O54 O 0.02281 0.76425 0.1359 0.0
Zn55 Zn 0.0237 0.79109 0.15061 0.0
O56 O 0.02496 0.8124 0.13219 0.0
C57 C 0.06262 0.79761 0.16108 0.0
O58 O 0.06284 0.79493 0.14195 0.0
O59 O 0.00095 0.79069 0.16641 0.0
C60 C 0.02754 0.81017 0.11405 0.0
O61 O 0.03017 0.79291 0.10612 0.0
C62 C 0.00882 0.75478 0.125 0.0
O63 O 0.99385 0.76268 0.12293 0.0
O64 O 0.04701 0.79701 0.16866 0.0
C65 C 0.53004 0.75266 0.3592 0.0
O66 O 0.53201 0.7548 0.37842 0.0
O67 O 0.49229 0.72813 0.38519 0.0
Zn68 Zn 0.49197 0.75014 0.36773 0.0
O69 O 0.49451 0.77676 0.38356 0.0
C70 C 0.45523 0.72984 0.3501 0.0
O71 O 0.45763 0.71568 0.36099 0.0
O72 O 0.51376 0.75063 0.35084 0.0
C73 C 0.48049 0.78153 0.3917 0.0
O74 O 0.46453 0.76873 0.38997 0.0
C75 C 0.49365 0.73053 0.40378 0.0
O76 O 0.4945 0.74833 0.41283 0.0
O77 O 0.46797 0.7453 0.3506 0.0
C78 C 0.48299 0.28189 0.66266 0.0
O79 O 0.47979 0.27951 0.64354 0.0
O80 O 0.51649 0.25685 0.6355 0.0
Zn81 Zn 0.5201 0.28356 0.65129 0.0
O82 O 0.51855 0.30474 0.63329 0.0
C83 C 0.5487 0.27464 0.67622 0.0
O84 O 0.53578 0.25857 0.6765 0.0
O85 O 0.49968 0.28373 0.66988 0.0
C86 C 0.53256 0.31474 0.62605 0.0
O87 O 0.54938 0.31138 0.63033 0.0
C88 C 0.52939 0.25303 0.62486 0.0
O89 O 0.54444 0.26677 0.62415 0.0
O90 O 0.54516 0.28842 0.66639 0.0
C91 C 0.03005 0.25774 0.86103 0.0
O92 O 0.03269 0.26444 0.87964 0.0
O93 O 0.99075 0.23185 0.88886 0.0
Zn94 Zn 0.99175 0.25315 0.8704 0.0
O95 O 0.99524 0.28025 0.88544 0.0
C96 C 0.95623 0.23225 0.85065 0.0
O97 O 0.95982 0.21711 0.85949 0.0
O98 O 0.01341 0.25206 0.8535 0.0
C99 C 0.98327 0.28422 0.89724 0.0
O100 O 0.96878 0.27032 0.89966 0.0
C101 C -0.0007 0.23489 0.90574 0.0
O102 O 0.00884 0.25273 0.91185 0.0
O103 O 0.96781 0.2487 0.85319 0.0
C104 C 0.37307 0.07337 0.27361 0.0
O105 O 0.3897 0.08221 0.28139 0.0
O106 O 0.40644 0.04503 0.24405 0.0
Zn107 Zn 0.39118 0.03986 0.26715 0.0
O108 O 0.40746 0.04698 0.29211 0.0
C109 C 0.36849 0.00295 0.25093 0.0
O110 O 0.36487 0.01381 0.23698 0.0
O111 O 0.37047 0.05525 0.26676 0.0
C112 C 0.42386 0.04316 0.29275 0.0
O113 O 0.42988 0.03496 0.27693 0.0
C114 C 0.41876 0.06069 0.24359 0.0
O115 O 0.42165 0.07427 0.25868 0.0
O116 O 0.37968 0.01095 0.26541 0.0
C117 C 0.30237 0.13523 0.49629 0.0
O118 O 0.30781 0.1545 0.49602 0.0
O119 O 0.26623 0.16035 0.52305 0.0
Zn120 Zn 0.2661 0.14582 0.49625 0.0
O121 O 0.27206 0.1647 0.47566 0.0
C122 C 0.22642 0.13364 0.49778 0.0
O123 O 0.2288 0.15026 0.50939 0.0
O124 O 0.28502 0.12804 0.49654 0.0
C125 C 0.26139 0.17648 0.47122 0.0
O126 O 0.24621 0.1768 0.48065 0.0
C127 C 0.27679 0.17667 0.52973 0.0
O128 O 0.2894 0.1855 0.51877 0.0
O129 O 0.24049 0.12864 0.48991 0.0
C130 C 0.16557 0.98532 0.79054 0.0
O131 O 0.16531 0.9961 0.80725 0.0
O132 O 0.12479 0.00761 0.75182 0.0
Zn133 Zn 0.13829 0.00776 0.77827 0.0
O134 O 0.12041 0.00115 0.79932 0.0
C135 C 0.14983 0.0501 0.77858 0.0
O136 O 0.13457 0.04773 0.76696 0.0
O137 O 0.15504 0.98769 0.77601 0.0
C138 C 0.11271 0.01446 0.80769 0.0
O139 O 0.11615 0.03248 0.80216 0.0
C140 C 0.10786 0.0095 0.74906 0.0
O141 O 0.09756 0.01055 0.7641 0.0
O142 O 0.15436 0.03501 0.78552 0.0
C143 C 0.2097 0.90929 0.99596 0.0
O144 O 0.20353 0.89109 0.98775 0.0
O145 O 0.23639 0.87949 0.03188 0.0
Zn146 Zn 0.24194 0.89327 0.0078 0.0
O147 O 0.23806 0.87286 0.98448 0.0
C148 C 0.27608 0.91912 0.0242 0.0
O149 O 0.26579 0.92286 0.03871 0.0
O150 O 0.22571 0.91353 0.00514 0.0
C151 C 0.24416 0.85686 0.9858 0.0
O152 O 0.25256 0.8541 0.00239 0.0
C153 C 0.22214 0.86565 0.03185 0.0
O154 O 0.21065 0.86099 0.01609 0.0
O155 O 0.26877 0.90697 0.00966 0.0
C156 C 0.21484 0.41403 0.03059 0.0
O157 O 0.21007 0.39476 0.02577 0.0
O158 O 0.2501 0.38839 0.05634 0.0
Zn159 Zn 0.2512 0.40405 0.0328 0.0
O160 O 0.2463 0.38601 0.00758 0.0
C161 C 0.29117 0.41628 0.04095 0.0
O162 O 0.28874 0.40099 0.05131 0.0
O163 O 0.23206 0.42174 0.0343 0.0
C164 C 0.25667 0.37347 0.00353 0.0
O165 O 0.26991 0.37162 0.01651 0.0
C166 C 0.23905 0.37187 0.05704 0.0
O167 O 0.22767 0.36416 0.04173 0.0
O168 O 0.27702 0.42078 0.03216 0.0
C169 C 0.81013 0.12763 0.01573 0.0
O170 O 0.81719 0.14661 0.01545 0.0
O171 O 0.77513 0.15657 0.04014 0.0
Zn172 Zn 0.77532 0.14144 0.01389 0.0
O173 O 0.78318 0.1606 0.99422 0.0
C174 C 0.73594 0.13568 0.00533 0.0
O175 O 0.73939 0.15508 0.00951 0.0
O176 O 0.79249 0.12199 0.01526 0.0
C177 C 0.78778 0.15473 0.97746 0.0
O178 O 0.78753 0.1357 0.97301 0.0
C179 C 0.78647 0.17286 0.04511 0.0
O180 O 0.79886 0.17972 0.03295 0.0
O181 O 0.74942 0.1264 0.00602 0.0
C182 C 0.15395 0.47971 0.25827 0.0
O183 O 0.15661 0.4989 0.26352 0.0
O184 O 0.10193 0.47601 0.2226 0.0
Zn185 Zn 0.11674 0.48522 0.24809 0.0
O186 O 0.09964 0.48014 0.26974 0.0
C187 C 0.12285 0.52856 0.25855 0.0
O188 O 0.10865 0.5249 0.26957 0.0
O189 O 0.13788 0.47052 0.25122 0.0
C190 C 0.10576 0.48372 0.28755 0.0
O191 O 0.12363 0.49104 0.29183 0.0
C192 C 0.08758 0.48361 0.21967 0.0
O193 O 0.0835 0.49648 0.23328 0.0
O194 O 0.12776 0.5143 0.24839 0.0
C195 C 0.7271 0.92724 0.51523 0.0
O196 O 0.73422 0.92396 0.49835 0.0
O197 O 0.75213 0.88701 0.55093 0.0
Zn198 Zn 0.75261 0.90293 0.52777 0.0
O199 O 0.74804 0.8856 0.50217 0.0
C200 C 0.79232 0.91277 0.53159 0.0
O201 O 0.78987 0.89476 0.53718 0.0
O202 O 0.73303 0.91988 0.53005 0.0
C203 C 0.75209 0.86843 0.49946 0.0
O204 O 0.75857 0.86047 0.51436 0.0
C205 C 0.73769 0.87475 0.55456 0.0
O206 O 0.72264 0.87186 0.54253 0.0
O207 O 0.77806 0.92007 0.52723 0.0
C208 C 0.86396 0.07238 0.24355 0.0
O209 O 0.87948 0.07411 0.25467 0.0
O210 O 0.88938 0.03593 0.20817 0.0
Zn211 Zn 0.87245 0.03404 0.23043 0.0
O212 O 0.88745 0.0337 0.25578 0.0
C213 C 0.85377 0.99449 0.21308 0.0
O214 O 0.86575 -0.0026 0.1995 0.0
O215 O 0.8584 0.05668 0.23197 0.0
C216 C 0.89318 0.01778 0.25866 0.0
O217 O 0.88992 0.00294 0.24475 0.0
C218 C 0.9039 0.04948 0.20846 0.0
O219 O 0.90797 0.06287 0.22368 0.0
O220 O 0.85384 0.0082 0.22677 0.0
C221 C 0.29509 0.60828 0.51031 0.0
O222 O 0.28124 0.60489 0.49672 0.0
O223 O 0.28079 0.66035 0.54537 0.0
Zn224 Zn 0.27983 0.64301 0.51995 0.0
O225 O 0.28685 0.66004 0.49822 0.0
C226 C 0.24698 0.61499 0.52554 0.0
O227 O 0.25773 0.6117 0.54033 0.0
O228 O 0.29741 0.62396 0.52213 0.0
C229 C 0.27711 0.67287 0.49434 0.0
O230 O 0.26276 0.6747 0.50468 0.0
C231 C 0.26614 0.66608 0.55103 0.0
O232 O 0.25036 0.66055 0.54016 0.0
O233 O 0.25365 0.62764 0.51415 0.0
C234 C 0.36648 0.57714 0.74695 0.0
O235 O 0.38409 0.581 0.75373 0.0
O236 O 0.39008 0.53977 0.71431 0.0
Zn237 Zn 0.37396 0.53761 0.7373 0.0
O238 O 0.38954 0.5376 0.76234 0.0
C239 C 0.35597 0.49768 0.72048 0.0
O240 O 0.36775 0.50075 0.70675 0.0
O241 O 0.35927 0.55969 0.73935 0.0
C242 C 0.39645 0.52221 0.76442 0.0
O243 O 0.39425 0.50811 0.74982 0.0
C244 C 0.4052 0.55243 0.71433 0.0
O245 O 0.41089 0.5649 0.72999 0.0
O246 O 0.35588 0.51142 0.7341 0.0
C247 C 0.65201 0.97899 0.76271 0.0
O248 O 0.64993 0.99367 0.77548 0.0
O249 O 0.60665 0.98284 0.71861 0.0
Zn250 Zn 0.61964 0.98906 0.74538 0.0
O251 O 0.60157 0.98284 0.76598 0.0
C252 C 0.62618 0.0312 0.74009 0.0
O253 O 0.6112 0.02631 0.72793 0.0
O254 O 0.64014 0.9737 0.74814 0.0
C255 C 0.58723 0.99081 0.76707 0.0
O256 O 0.58416 0.00315 0.75433 0.0
C257 C 0.59255 0.96892 0.71422 0.0
O258 O 0.58618 0.95743 0.7276 0.0
O259 O 0.63177 0.0179 0.74918 0.0
C260 C 0.79944 0.63187 0.99479 0.0
O261 O 0.80417 0.65008 0.00343 0.0
O262 O 0.76636 0.65686 0.01882 0.0
Zn263 Zn 0.76373 0.64323 0.99134 0.0
O264 O 0.76766 0.66311 0.97143 0.0
C265 C 0.72398 0.63538 0.99013 0.0
O266 O 0.72723 0.65471 0.99475 0.0
O267 O 0.78255 0.62539 0.98838 0.0
C268 C 0.76996 0.65712 0.95386 0.0
O269 O 0.76957 0.63811 0.94918 0.0
C270 C 0.76719 0.67542 0.02277 0.0
O271 O 0.76709 0.68675 0.0084 0.0
O272 O 0.73773 0.62678 0.98727 0.0
C273 C 0.87575 0.57756 0.77191 0.0
O274 O 0.89289 0.58756 0.77621 0.0
O275 O 0.9119 0.55028 0.75488 0.0
Zn276 Zn 0.8938 0.54474 0.77563 0.0
O277 O 0.90718 0.55469 0.80179 0.0
C278 C 0.87225 0.50751 0.75996 0.0
O279 O 0.86895 0.51826 0.7458 0.0
O280 O 0.87267 0.55875 0.77101 0.0
C281 C 0.92097 0.54691 0.8067 0.0
O282 O 0.92532 0.53271 0.79479 0.0
C283 C 0.9208 0.53741 0.7478 0.0
O284 O 0.9178 0.51957 0.75379 0.0
O285 O 0.88311 0.51566 0.77464 0.0
C286 C 0.72112 0.42765 0.5114 0.0
O287 O 0.72959 0.42611 0.52833 0.0
O288 O 0.7374 0.38438 0.52396 0.0
Zn289 Zn 0.74155 0.39773 0.49936 0.0
O290 O 0.73789 0.37661 0.47669 0.0
C291 C 0.77731 0.42034 0.51591 0.0
O292 O 0.76926 0.41906 0.53253 0.0
O293 O 0.72395 0.41666 0.49643 0.0
C294 C 0.74634 0.36217 0.47806 0.0
O295 O 0.75679 0.36172 0.49408 0.0
C296 C 0.72417 0.36953 0.52435 0.0
O297 O 0.71276 0.36348 0.50868 0.0
O298 O 0.76805 0.41253 0.5001 0.0
C299 C 0.64905 0.47255 0.27084 0.0
O300 O 0.6327 0.46903 0.26089 0.0
O301 O 0.62569 0.5094 0.25505 0.0
Zn302 Zn 0.63773 0.50943 0.28224 0.0
O303 O 0.6188 0.50337 0.30249 0.0
C304 C 0.64973 0.55165 0.28261 0.0
O305 O 0.63466 0.54933 0.2707 0.0
O306 O 0.65426 0.48902 0.28135 0.0
C307 C 0.61045 0.51666 0.3098 0.0
O308 O 0.61373 0.53438 0.30355 0.0
C309 C 0.60881 0.51086 0.25106 0.0
O310 O 0.59745 0.51141 0.26523 0.0
O311 O 0.65396 0.53654 0.28978 0.0
Dy312 Dy 0.99048 0.01668 0.00855 0.0
C313 C 0.07045 0.02599 0.00667 0.0
C314 C 0.95422 0.01815 0.015 0.0
Dy315 Dy 0.03398 0.02718 0.01261 0.0
O316 O 0.95955 0.00811 0.0001 0.0
O317 O 0.96865 0.02711 0.02632 0.0
O318 O 0.99132 -0.00116 0.97959 0.0
O319 O 0.0125 0.02361 0.98893 0.0
C320 C 0.00751 0.0091 0.97611 0.0
C321 C 0.01662 0.0347 0.04493 0.0
O322 O 0.02894 0.05545 0.00189 0.0
O323 O -0.00319 0.04968 0.00552 0.0
O324 O 0.06447 0.03249 0.02305 0.0
O325 O 0.05656 0.02049 0.99361 0.0
O326 O 0.03263 0.04531 0.04135 0.0
O327 O 0.01192 0.0201 0.03216 0.0
O328 O 0.99593 0.98879 0.01992 0.0
O329 O 0.02752 0.99395 0.01391 0.0
C330 C 0.01268 0.06149 0.00194 0.0
C331 C 0.01192 0.98237 0.01845 0.0
Dy332 Dy 0.25363 0.7584 0.23408 0.0
C333 C 0.2731 0.75973 0.31651 0.0
C334 C 0.24114 0.76223 0.19692 0.0
Dy335 Dy 0.26053 0.76386 0.27947 0.0
O336 O 0.25798 0.76001 0.20204 0.0
O337 O 0.2312 0.76212 0.21202 0.0
O338 O 0.27566 0.73937 0.23231 0.0
O339 O 0.2777 0.7627 0.25479 0.0
C340 C 0.28479 0.74827 0.24842 0.0
C341 C 0.22944 0.7742 0.2653 0.0
O342 O 0.27674 0.79293 0.2727 0.0
O343 O 0.2634 0.7915 0.24101 0.0
O344 O 0.25896 0.76792 0.31212 0.0
O345 O 0.28037 0.7539 0.3007 0.0
O346 O 0.23847 0.7828 0.28156 0.0
O347 O 0.23651 0.75978 0.25883 0.0
O348 O 0.23806 0.72887 0.24019 0.0
O349 O 0.24815 0.73107 0.27318 0.0
C350 C 0.27362 0.8014 0.2566 0.0
C351 C 0.23921 0.72093 0.25696 0.0
Dy352 Dy 0.52657 0.01756 0.51112 0.0
C353 C 0.44913 0.02428 0.50003 0.0
C354 C 0.56139 0.00996 0.51926 0.0
Dy355 Dy 0.48365 0.01596 0.5083 0.0
O356 O 0.55763 0.023 0.50792 0.0
O357 O 0.54616 0.0012 0.52628 0.0
O358 O 0.52975 0.0365 0.48598 0.0
O359 O 0.5051 0.01567 0.48768 0.0
C360 C 0.51276 0.02969 0.4786 0.0
C361 C 0.49739 0.00292 0.54021 0.0
O362 O 0.48398 0.98684 0.49124 0.0
O363 O 0.51473 0.9853 0.50093 0.0
O364 O 0.45329 0.01414 0.5141 0.0
O365 O 0.46375 0.02959 0.49033 0.0
O366 O 0.48052 0.99596 0.53249 0.0
O367 O 0.50506 0.01745 0.53173 0.0
O368 O 0.52591 0.04624 0.52882 0.0
O369 O 0.49562 0.04822 0.51811 0.0
C370 C 0.49792 0.97695 0.49253 0.0
C371 C 0.51222 0.05637 0.52706 0.0
Dy372 Dy 0.23764 0.27029 0.76312 0.0
C373 C 0.3182 0.28652 0.7639 0.0
C374 C 0.20029 0.25918 0.76779 0.0
Dy375 Dy 0.28073 0.27634 0.76842 0.0
O376 O 0.20756 0.2726 0.75682 0.0
O377 O 0.2134 0.25162 0.77596 0.0
O378 O 0.24001 0.29575 0.74468 0.0
O379 O 0.26061 0.2959 0.76726 0.0
C380 C 0.25619 0.30464 0.75293 0.0
C381 C 0.2618 0.24176 0.77803 0.0
O382 O 0.27583 0.29219 0.79687 0.0
O383 O 0.2438 0.27966 0.79547 0.0
O384 O 0.31043 0.27238 0.77381 0.0
O385 O 0.30551 0.29537 0.75676 0.0
O386 O 0.27787 0.25048 0.78666 0.0
O387 O 0.25776 0.2509 0.76391 0.0
O388 O 0.24283 0.25435 0.73474 0.0
O389 O 0.27464 0.26788 0.73598 0.0
C390 C 0.25965 0.28909 0.80521 0.0
C391 C 0.25892 0.25808 0.72627 0.0
Dy392 Dy 0.00236 0.01532 0.48242 0.0
C393 C 0.03817 0.04212 0.5596 0.0
C394 C 0.98417 0.00899 0.44618 0.0
Dy395 Dy 0.01776 0.02901 0.52517 0.0
O396 O -3e-05 0.02109 0.45101 0.0
O397 O 0.97821 5e-05 0.4612 0.0
O398 O 0.03085 0.00939 0.47543 0.0
O399 O 0.02854 0.03233 0.49666 0.0
C400 C 0.03983 0.02298 0.48862 0.0
C401 C 0.98224 0.00924 0.5209 0.0
O402 O 0.01424 0.05847 0.51573 0.0
O403 O -0.00286 0.0465 0.48609 0.0
O404 O 0.02096 0.04409 0.55584 0.0
O405 O 0.04434 0.03356 0.5443 0.0
O406 O 0.99345 0.00876 0.536 0.0
O407 O 0.98996 0.02148 0.50989 0.0
O408 O 0.00181 0.98612 0.49444 0.0
O409 O 0.02462 -0.0013 0.51942 0.0
C410 C 0.00445 0.06118 0.49974 0.0
C411 C 0.01398 0.98349 0.50847 0.0
Dy412 Dy 0.28317 0.78877 0.77673 0.0
C413 C 0.20911 0.76069 0.7376 0.0
C414 C 0.31414 0.8033 0.80116 0.0
Dy415 Dy 0.2432 0.76954 0.75792 0.0
O416 O 0.31118 0.80894 0.7839 0.0
O417 O 0.29994 0.79014 0.80519 0.0
O418 O 0.29621 0.77886 0.74969 0.0
O419 O 0.26911 0.78503 0.74753 0.0
C420 C 0.28137 0.77822 0.73824 0.0
C421 C 0.2488 0.76825 0.79658 0.0
O422 O 0.25813 0.74417 0.7533 0.0
O423 O 0.28111 0.756 0.77843 0.0
O424 O 0.21225 0.76828 0.75568 0.0
O425 O 0.22465 0.75753 0.73054 0.0
O426 O 0.23742 0.75445 0.78542 0.0
O427 O 0.25525 0.78216 0.78676 0.0
O428 O 0.27089 0.81623 0.77679 0.0
O429 O 0.2429 0.80214 0.75856 0.0
C430 C 0.27204 0.74159 0.76537 0.0
C431 C 0.2547 0.81768 0.76784 0.0
Dy432 Dy 0.5102 0.02833 0.03055 0.0
C433 C 0.50514 0.00328 0.94782 0.0
C434 C 0.50872 0.04308 0.0684 0.0
Dy435 Dy 0.50345 0.01828 0.98556 0.0
O436 O 0.51066 0.0251 0.06276 0.0
O437 O 0.50774 0.05303 0.05337 0.0
O438 O 0.52699 0.00408 0.0315 0.0
O439 O 0.50437 0.00142 0.01054 0.0
C440 C 0.51772 0.99361 0.0162 0.0
C441 C 0.49584 0.05299 -0.00022 0.0
O442 O 0.4759 0.00303 0.99444 0.0
O443 O 0.47879 0.01932 0.02591 0.0
O444 O 0.499 0.01935 0.95313 0.0
O445 O 0.51023 0.99536 0.96312 0.0
O446 O 0.48681 0.04259 0.98432 0.0
O447 O 0.50918 0.04522 0.00553 0.0
O448 O 0.53819 0.04271 0.02223 0.0
O449 O 0.5348 0.02865 0.98982 0.0
C450 C 0.46865 0.00794 0.01106 0.0
C451 C 0.54516 0.03891 0.00516 0.0
Dy452 Dy 0.26582 0.29875 0.26872 0.0
C453 C 0.25862 0.21405 0.26399 0.0
C454 C 0.2649 0.33773 0.26603 0.0
Dy455 Dy 0.2573 0.25295 0.26111 0.0
O456 O 0.27265 0.33097 0.28076 0.0
O457 O 0.25773 0.32323 0.25289 0.0
O458 O 0.28258 0.29684 0.29667 0.0
O459 O 0.25957 0.27435 0.28661 0.0
C460 C 0.27308 0.2794 0.29928 0.0
C461 C 0.24963 0.27229 0.23072 0.0
O462 O 0.23021 0.25691 0.27304 0.0
O463 O 0.23462 0.29117 0.27183 0.0
O464 O 0.25238 0.22092 0.2485 0.0
O465 O 0.26393 0.2284 0.27784 0.0
O466 O 0.2402 0.25483 0.23342 0.0
O467 O 0.26334 0.27735 0.24318 0.0
O468 O 0.29253 0.29467 0.25604 0.0
O469 O 0.28857 0.26068 0.25846 0.0
C470 C 0.2239 0.27383 0.27446 0.0
C471 C 0.29906 0.27791 0.25516 0.0
Dy472 Dy 0.49788 0.51336 0.98665 0.0
C473 C 0.54057 0.54121 0.0607 0.0
C474 C 0.47534 0.49952 0.95352 0.0
Dy475 Dy 0.51815 0.52743 0.02748 0.0
O476 O 0.49261 0.4975 0.9563 0.0
O477 O 0.4702 0.50854 0.96915 0.0
O478 O 0.52219 0.53018 0.97263 0.0
O479 O 0.5268 0.51806 -0.00106 0.0
C480 C 0.53436 0.52892 0.98663 0.0
C481 C 0.48159 0.51188 0.02729 0.0
O482 O 0.518 0.55645 0.01496 0.0
O483 O 0.4948 0.54512 0.9899 0.0
O484 O 0.52316 0.54275 0.05806 0.0
O485 O 0.5459 0.53269 0.04491 0.0
O486 O 0.49372 0.51037 0.04124 0.0
O487 O 0.48925 0.52287 0.01514 0.0
O488 O 0.49818 0.48435 -0.00066 0.0
O489 O 0.52176 0.49593 0.02395 0.0
C490 C 0.50618 0.55975 0.00086 0.0
C491 C 0.51032 0.48119 0.01322 0.0
Dy492 Dy 0.77792 0.28515 0.27163 0.0
C493 C 0.70294 0.25166 0.2328 0.0
C494 C 0.80762 0.29598 0.29838 0.0
Dy495 Dy 0.73686 0.26218 0.25335 0.0
O496 O 0.80501 0.30526 0.28307 0.0
O497 O 0.79372 0.28125 0.29926 0.0
O498 O 0.79174 0.28664 0.24269 0.0
O499 O 0.76388 0.27403 0.24397 0.0
C500 C 0.77661 0.27739 0.23245 0.0
C501 C 0.7439 0.26463 0.29212 0.0
O502 O 0.75262 0.23742 0.24984 0.0
O503 O 0.77853 0.25249 0.27107 0.0
O504 O 0.70549 0.25728 0.25143 0.0
O505 O 0.71897 0.2514 0.22539 0.0
O506 O 0.73234 0.2498 0.28238 0.0
O507 O 0.74966 0.27759 0.28095 0.0
O508 O 0.76304 0.31072 0.27172 0.0
O509 O 0.73665 0.29468 0.25155 0.0
C510 C 0.76849 0.23687 0.25998 0.0
C511 C 0.74726 0.31091 0.26119 0.0
Dy512 Dy 0.01099 0.52812 0.53681 0.0
C513 C 0.00821 0.50808 0.45342 0.0
C514 C 0.0129 0.54131 0.57551 0.0
Dy515 Dy 0.00966 0.52301 0.4916 0.0
O516 O 0.01415 0.52348 0.56855 0.0
O517 O 0.01079 0.55206 0.5613 0.0
O518 O 0.00797 0.49497 0.5368 0.0
O519 O 0.02217 0.50968 0.51488 0.0
C520 C 0.0161 0.49297 0.52055 0.0
C521 C 0.00427 0.55818 0.50748 0.0
O522 O 0.98072 0.50726 0.49733 0.0
O523 O 0.98022 0.51835 0.53026 0.0
O524 O 0.01086 0.52685 0.45962 0.0
O525 O 0.00604 0.49744 0.46807 0.0
O526 O 0.01177 0.55593 0.49088 0.0
O527 O -0.00153 0.54153 0.51345 0.0
O528 O 0.03957 0.54459 0.53107 0.0
O529 O 0.04052 0.53188 0.49874 0.0
C530 C 0.97185 0.50866 0.51368 0.0
C531 C 0.04873 0.54228 0.51507 0.0
Dy532 Dy 0.73732 0.76759 0.25907 0.0
C533 C 0.81758 0.78749 0.25759 0.0
C534 C 0.70012 0.75625 0.26438 0.0
Dy535 Dy 0.78062 0.7752 0.26339 0.0
O536 O 0.70722 0.77024 0.25396 0.0
O537 O 0.71333 0.7482 0.27164 0.0
O538 O 0.7387 0.79276 0.2403 0.0
O539 O 0.75967 0.79378 0.26271 0.0
C540 C 0.75473 0.80225 0.2484 0.0
C541 C 0.76309 0.74044 0.27384 0.0
O542 O 0.77575 0.79053 0.29213 0.0
O543 O 0.74404 0.7765 0.29138 0.0
O544 O 0.81086 0.77239 0.26684 0.0
O545 O 0.80415 0.79607 0.25183 0.0
O546 O 0.77919 0.74974 0.28201 0.0
O547 O 0.75831 0.74917 0.25969 0.0
O548 O 0.74227 0.75156 0.2307 0.0
O549 O 0.77384 0.76594 0.23111 0.0
C550 C 0.75982 0.78651 0.30082 0.0
C551 C 0.75811 0.75557 0.22185 0.0
Dy552 Dy 0.75935 0.26377 0.7296 0.0
C553 C 0.77899 0.2575 0.81169 0.0
C554 C 0.7502 0.27022 0.69228 0.0
Dy555 Dy 0.76396 0.2649 0.77695 0.0
O556 O 0.76712 0.274 0.7005 0.0
O557 O 0.73835 0.26265 0.70435 0.0
O558 O 0.78121 0.24431 0.7278 0.0
O559 O 0.78133 0.26487 0.75221 0.0
C560 C 0.78879 0.25101 0.74526 0.0
C561 C 0.73061 0.27207 0.76419 0.0
O562 O 0.7791 0.2953 0.77234 0.0
O563 O 0.76791 0.2963 0.73994 0.0
O564 O 0.77149 0.27295 0.80918 0.0
O565 O 0.7782 0.24629 0.79532 0.0
O566 O 0.73497 0.27127 0.7827 0.0
O567 O 0.74424 0.26898 0.75482 0.0
O568 O 0.74118 0.23503 0.73426 0.0
O569 O 0.75136 0.23302 0.76673 0.0
C570 C 0.77688 0.30497 0.75675 0.0
C571 C 0.74176 0.22526 0.74998 0.0
Dy572 Dy 0.76622 0.79968 0.76632 0.0
C573 C 0.7598 0.7152 0.75797 0.0
C574 C 0.76499 0.83891 0.76601 0.0
Dy575 Dy 0.75812 0.75417 0.75661 0.0
O576 O 0.77168 0.83111 0.78065 0.0
O577 O 0.75912 0.82531 0.7516 0.0
O578 O 0.78324 0.79649 0.79375 0.0
O579 O 0.76025 0.77431 0.78299 0.0
C580 C 0.77379 0.77883 0.79565 0.0
C581 C 0.74972 0.77471 0.72751 0.0
O582 O 0.7312 0.75724 0.7694 0.0
O583 O 0.73498 0.79152 0.769 0.0
O584 O 0.7528 0.72241 0.74308 0.0
O585 O 0.76571 0.72923 0.77197 0.0
O586 O 0.74055 0.75698 0.72966 0.0
O587 O 0.76366 0.7795 0.73975 0.0
O588 O 0.79328 0.79679 0.75378 0.0
O589 O 0.78924 0.7624 0.75329 0.0
C590 C 0.72456 0.77393 0.77131 0.0
C591 C 0.79976 0.78003 0.75138 0.0
Dy592 Dy 0.48746 0.51412 0.51046 0.0
C593 C 0.56851 0.52681 0.51456 0.0
C594 C 0.45083 0.51499 0.5157 0.0
Dy595 Dy 0.53102 0.52554 0.51626 0.0
O596 O 0.45665 0.5036 0.50218 0.0
O597 O 0.46498 0.52569 0.52629 0.0
O598 O 0.48853 0.49491 0.48244 0.0
O599 O 0.51042 0.51898 0.49154 0.0
C600 C 0.50552 0.5036 0.47967 0.0
C601 C 0.51208 0.53549 0.54667 0.0
O602 O 0.52582 0.55292 0.50371 0.0
O603 O 0.49333 0.54641 0.50491 0.0
O604 O 0.55943 0.52502 0.53027 0.0
O605 O 0.55715 0.52831 0.49988 0.0
O606 O 0.5281 0.54597 0.543 0.0
O607 O 0.50809 0.5199 0.53505 0.0
O608 O 0.49351 0.48779 0.5244 0.0
O609 O 0.52481 0.49233 0.51735 0.0
C610 C 0.5093 0.55827 0.50184 0.0
C611 C 0.50948 0.48127 0.52312 0.0
Dy612 Dy 0.02655 0.52275 0.01555 0.0
C613 C 0.94788 0.52463 0.0015 0.0
C614 C 0.06144 0.51617 0.02542 0.0
Dy615 Dy 0.98306 0.51847 0.01046 0.0
O616 O 0.05743 0.52647 0.01142 0.0
O617 O 0.04645 0.50976 0.03418 0.0
O618 O 0.02974 0.54454 0.99284 0.0
O619 O 0.00604 0.52155 0.9915 0.0
C620 C 0.01337 0.53695 0.98412 0.0
C621 C 0.99639 0.50403 0.04167 0.0
O622 O 0.98524 0.49001 0.99347 0.0
O623 O 0.01655 0.4907 0.00307 0.0
O624 O 0.95413 0.52127 0.01864 0.0
O625 O 0.96074 0.52426 0.98916 0.0
O626 O 0.98016 0.49627 0.03273 0.0
O627 O 0.0036 0.51965 0.03454 0.0
O628 O 0.0236 0.55056 0.03346 0.0
O629 O 0.99362 0.55097 0.02033 0.0
C630 C 0.0001 0.48147 0.99435 0.0
C631 C 0.00935 0.55974 0.0307 0.0
H632 H 0.98036 0.19654 0.89785 0.0
H633 H 0.98202 0.16858 0.91694 0.0
H634 H 0.02049 0.20726 0.95978 0.0
H635 H 0.0187 0.23541 0.94095 0.0
H636 H 0.01365 0.15391 0.92566 0.0
H637 H 0.98254 0.17759 0.99376 0.0
H638 H 0.98018 0.189 0.97137 0.0
H639 H 0.00153 0.19566 0.98675 0.0
C640 C 0.98902 0.19917 0.91145 0.0
C641 C -0.00059 0.21821 0.91788 0.0
C642 C 0.98995 0.18317 0.92233 0.0
C643 C 0.00122 0.18588 0.93987 0.0
C644 C 0.01142 0.20491 0.94648 0.0
H645 H 0.0415 0.08975 0.99203 0.0
H646 H 0.03925 0.12086 0.97838 0.0
C647 C 0.01046 0.22096 0.93563 0.0
C648 C 0.00316 0.16853 0.95054 0.0
H649 H -0.00312 0.1493 0.99433 0.0
C650 C 0.00996 0.15289 0.94067 0.0
C651 C -0.00181 0.16719 0.97006 0.0
C652 C 0.99004 0.18316 0.98109 0.0
C653 C 0.01203 0.13595 0.94979 0.0
C654 C 0.00751 0.13481 0.96947 0.0
C655 C 0.00056 0.15036 0.97933 0.0
C656 C 0.00922 0.11714 0.97971 0.0
C657 C 0.01862 0.11922 0.93813 0.0
C658 C 0.99319 0.10521 0.98578 0.0
C659 C 0.99442 0.08748 0.99371 0.0
C660 C 0.01174 0.08136 0.99574 0.0
C661 C 0.02791 0.09388 0.99051 0.0
C662 C 0.02666 0.11163 0.98263 0.0
H663 H 0.01718 0.12037 0.92214 0.0
H664 H 0.03363 0.11979 0.94231 0.0
H665 H 0.01063 0.10456 0.94119 0.0
H666 H 0.97961 0.10927 0.98375 0.0
H667 H 0.98168 0.07829 -0.00232 0.0
H668 H 0.06717 0.80328 0.20108 0.0
H669 H 0.09579 0.80427 0.22162 0.0
H670 H 0.12608 0.79723 0.16999 0.0
H671 H 0.0977 0.79659 0.14938 0.0
H672 H 0.11506 0.77431 0.22256 0.0
H673 H 0.16179 0.84166 0.20285 0.0
H674 H 0.13682 0.83667 0.19693 0.0
H675 H 0.15194 0.82504 0.18175 0.0
C676 C 0.07999 0.80225 0.19409 0.0
C677 C 0.08015 0.79982 0.17359 0.0
C678 C 0.09633 0.80283 0.20585 0.0
C679 C 0.11313 0.8011 0.19734 0.0
C680 C 0.1134 0.79907 0.17688 0.0
H681 H 0.20485 0.75157 0.23755 0.0
H682 H 0.17649 0.75965 0.22258 0.0
C683 C 0.0971 0.79855 0.16512 0.0
C684 C 0.12992 0.79956 0.20971 0.0
H685 H 0.17676 0.81808 0.21822 0.0
C686 C 0.12849 0.78407 0.22183 0.0
C687 C 0.14739 0.81242 0.20892 0.0
C688 C 0.14956 0.83001 0.19706 0.0
C689 C 0.14423 0.78055 0.23249 0.0
C690 C 0.16189 0.79264 0.23073 0.0
C691 C 0.16321 0.8087 0.21935 0.0
C692 C 0.17926 0.78812 0.23973 0.0
C693 C 0.14186 0.76375 0.24536 0.0
C694 C 0.19044 0.80168 0.25401 0.0
C695 C 0.20679 0.79716 0.26249 0.0
C696 C 0.21223 0.77912 0.2566 0.0
C697 C 0.20107 0.76566 0.24222 0.0
C698 C 0.18478 0.77017 0.23379 0.0
H699 H 0.12717 0.75972 0.24945 0.0
H700 H 0.14549 0.75043 0.2373 0.0
H701 H 0.15123 0.76771 0.25893 0.0
H702 H 0.18643 0.81566 0.25869 0.0
H703 H 0.21522 0.80779 0.27352 0.0
H704 H 0.51047 0.81251 0.3956 0.0
H705 H 0.51278 0.84525 0.41372 0.0
H706 H 0.4565 0.82802 0.43108 0.0
H707 H 0.45403 0.79523 0.41305 0.0
H708 H 0.48828 0.87316 0.40788 0.0
H709 H 0.48879 0.8496 0.48309 0.0
H710 H 0.49409 0.83429 0.46218 0.0
H711 H 0.47026 0.83602 0.46612 0.0
C712 C 0.4986 0.81563 0.40335 0.0
C713 C 0.48207 0.80124 0.40291 0.0
C714 C 0.49995 0.83435 0.41365 0.0
C715 C 0.48488 0.83894 0.42387 0.0
C716 C 0.46837 0.82464 0.4235 0.0
H717 H 0.46799 0.95629 0.46875 0.0
H718 H 0.4643 0.92262 0.45226 0.0
C719 C 0.46697 0.80595 0.41312 0.0
C720 C 0.48628 0.8589 0.43448 0.0
H721 H 0.4873 0.88329 0.48013 0.0
C722 C 0.48806 0.8754 0.42366 0.0
C723 C 0.48612 0.86172 0.45508 0.0
C724 C 0.48486 0.84453 0.46739 0.0
C725 C 0.48952 0.89471 0.43292 0.0
C726 C 0.48907 0.8975 0.45349 0.0
C727 C 0.48747 0.88102 0.46433 0.0
C728 C 0.49087 0.91754 0.46405 0.0
C729 C 0.49189 0.91202 0.4207 0.0
C730 C 0.50683 0.92559 0.47647 0.0
C731 C 0.509 0.9448 0.4859 0.0
C732 C 0.49516 0.95626 0.48321 0.0
C733 C 0.47894 0.94791 0.47112 0.0
C734 C 0.47683 0.92872 0.46161 0.0
H735 H 0.49561 0.90778 0.40564 0.0
H736 H 0.47856 0.91756 0.4196 0.0
H737 H 0.50292 0.92442 0.42763 0.0
H738 H 0.51777 0.91713 0.47858 0.0
H739 H 0.52162 0.9507 0.49519 0.0
H740 H 0.48493 0.28918 0.70263 0.0
H741 H 0.45896 0.29104 0.72359 0.0
H742 H 0.42004 0.27905 0.67272 0.0
H743 H 0.44578 0.27707 0.65169 0.0
H744 H 0.43209 0.31684 0.7222 0.0
H745 H 0.39896 0.23695 0.70938 0.0
H746 H 0.42277 0.24623 0.70383 0.0
H747 H 0.40358 0.2487 0.68739 0.0
C748 C 0.47083 0.28685 0.69591 0.0
C749 C 0.46741 0.28286 0.67549 0.0
C750 C 0.45604 0.28798 0.7079 0.0
C751 C 0.4376 0.28496 0.6997 0.0
C752 C 0.43416 0.28113 0.67934 0.0
H753 H 0.33505 0.31239 0.73952 0.0
H754 H 0.36589 0.31345 0.72663 0.0
C755 C 0.44891 0.28006 0.66735 0.0
C756 C 0.42187 0.28594 0.7123 0.0
H757 H 0.38081 0.25866 0.72452 0.0
C758 C 0.42094 0.3041 0.7229 0.0
C759 C 0.40752 0.26921 0.71337 0.0
C760 C 0.40827 0.24911 0.70304 0.0
C761 C 0.40561 0.30615 0.73398 0.0
C762 C 0.39081 0.28966 0.73424 0.0
C763 C 0.39212 0.27133 0.72422 0.0
C764 C 0.37341 0.29111 0.74407 0.0
C765 C 0.40537 0.32592 0.74525 0.0
C766 C 0.36745 0.2783 0.75823 0.0
C767 C 0.34981 0.27758 0.7655 0.0
C768 C 0.33781 0.2896 0.75864 0.0
C769 C 0.34409 0.30305 0.74512 0.0
C770 C 0.36174 0.30374 0.73783 0.0
H771 H 0.41973 0.33495 0.74827 0.0
H772 H 0.39708 0.33441 0.73647 0.0
H773 H 0.39884 0.32393 0.75935 0.0
H774 H 0.37621 0.26837 0.76317 0.0
H775 H 0.34528 0.26705 0.77589 0.0
H776 H 0.01675 0.80506 0.55875 0.0
H777 H 0.01776 0.83376 0.53999 0.0
H778 H -0.00044 0.86666 0.58934 0.0
H779 H -0.00195 0.83794 0.60801 0.0
H780 H 0.98099 0.87094 0.55519 0.0
H781 H 0.05762 0.884 0.54693 0.0
H782 H 0.04531 0.85955 0.53774 0.0
H783 H 0.04647 0.86736 0.5635 0.0
C784 C 0.01298 0.81841 0.56562 0.0
C785 C 0.00742 0.81925 0.58492 0.0
C786 C 0.01366 0.83484 0.55491 0.0
C787 C 0.00904 0.85247 0.56338 0.0
C788 C 0.00324 0.85323 0.58253 0.0
H789 H 0.03582 0.97277 0.53749 0.0
H790 H 0.03436 0.93985 0.54833 0.0
C791 C 0.00242 0.83679 0.5932 0.0
C792 C 0.01014 0.87019 0.5524 0.0
H793 H 0.0405 0.90465 0.53108 0.0
C794 C 0.99397 0.87827 0.54981 0.0
C795 C 0.02714 0.8798 0.54554 0.0
C796 C 0.04518 0.87238 0.54869 0.0
C797 C 0.9944 0.8959 0.54091 0.0
C798 C 0.01138 0.90545 0.53397 0.0
C799 C 0.02747 0.89717 0.53623 0.0
C800 C 0.01316 0.92499 0.526 0.0
C801 C 0.97687 0.90458 0.53982 0.0
C802 C 0.0021 0.92752 0.50945 0.0
C803 C 0.00279 0.94644 0.50325 0.0
C804 C 0.01471 0.96312 0.51338 0.0
C805 C 0.02642 0.96032 0.52935 0.0
C806 C 0.02563 0.94146 0.53559 0.0
H807 H 0.96638 0.89789 0.54969 0.0
H808 H 0.98016 0.92092 0.54373 0.0
H809 H 0.97039 0.90163 0.52464 0.0
H810 H 0.99268 0.91492 0.50157 0.0
H811 H 0.99367 0.94805 0.49083 0.0
H812 H 0.45381 0.77495 0.90395 0.0
H813 H 0.42526 0.78298 0.88927 0.0
H814 H 0.45401 0.79865 0.83795 0.0
H815 H 0.48245 0.79006 0.85227 0.0
H816 H 0.41822 0.81759 0.87782 0.0
H817 H 0.40818 0.76044 0.81393 0.0
H818 H 0.42475 0.76051 0.83431 0.0
H819 H 0.43053 0.77689 0.81563 0.0
C820 C 0.45402 0.77996 0.88947 0.0
C821 C 0.47033 0.78168 0.87918 0.0
C822 C 0.43771 0.78461 0.88113 0.0
C823 C 0.43741 0.79114 0.8624 0.0
C824 C 0.45377 0.79317 0.85221 0.0
H825 H 0.34771 0.82177 0.78978 0.0
H826 H 0.37867 0.82221 0.80569 0.0
C827 C 0.47004 0.78831 0.86045 0.0
C828 C 0.42 0.79595 0.85365 0.0
H829 H 0.38803 0.78371 0.8144 0.0
C830 C 0.41162 0.81018 0.86395 0.0
C831 C 0.41138 0.78625 0.83556 0.0
C832 C 0.41905 0.77004 0.82429 0.0
C833 C 0.39486 0.81495 0.85664 0.0
C834 C 0.38631 0.80524 0.8386 0.0
C835 C 0.39479 0.79126 0.82815 0.0
C836 C 0.3679 0.80825 0.8308 0.0
C837 C 0.38635 0.83029 0.86818 0.0
C838 C 0.35168 0.80067 0.83992 0.0
C839 C 0.33403 0.80027 0.83082 0.0
C840 C 0.33237 0.8075 0.81249 0.0
C841 C 0.34861 0.8162 0.80396 0.0
C842 C 0.36627 0.81642 0.81298 0.0
H843 H 0.3965 0.83933 0.87962 0.0
H844 H 0.38123 0.84036 0.85835 0.0
H845 H 0.37418 0.82267 0.87547 0.0
H846 H 0.35267 0.79407 0.85356 0.0
H847 H 0.32171 0.79342 0.83767 0.0
H848 H 0.47332 0.23176 0.05452 0.0
H849 H 0.4717 0.19909 0.03648 0.0
H850 H 0.48039 0.17411 0.09068 0.0
H851 H 0.48184 0.20655 0.10883 0.0
H852 H 0.50068 0.17812 0.03663 0.0
H853 H 0.43678 0.13359 0.06245 0.0
H854 H 0.44173 0.16045 0.06538 0.0
H855 H 0.4528 0.14676 0.08202 0.0
C856 C 0.47458 0.21925 0.06263 0.0
C857 C 0.47775 0.22177 0.08311 0.0
C858 C 0.47366 0.20061 0.05229 0.0
C859 C 0.4757 0.18416 0.06227 0.0
C860 C 0.47839 0.18653 0.08273 0.0
H861 H 0.51803 0.0797 0.02665 0.0
H862 H 0.512 0.11162 0.04081 0.0
C863 C 0.47935 0.20513 0.09307 0.0
C864 C 0.47671 0.16494 0.05128 0.0
H865 H 0.45797 0.11531 0.04694 0.0
C866 C 0.4912 0.16442 0.03868 0.0
C867 C 0.46423 0.14714 0.05389 0.0
C868 C 0.44789 0.14698 0.06653 0.0
C869 C 0.49399 0.14643 0.02918 0.0
C870 C 0.48212 0.12852 0.03258 0.0
C871 C 0.46716 0.12909 0.04455 0.0
C872 C 0.48543 0.10901 0.02432 0.0
C873 C 0.50973 0.1467 0.01571 0.0
C874 C 0.47226 0.09682 0.01071 0.0
C875 C 0.47563 0.07853 0.00268 0.0
C876 C 0.49212 0.07213 0.00833 0.0
C877 C 0.50515 0.08425 0.02214 0.0
C878 C 0.5018 0.10252 0.03012 0.0
H879 H 0.51438 0.16167 0.0108 0.0
H880 H 0.52187 0.14258 0.02359 0.0
H881 H 0.50543 0.13578 0.00263 0.0
H882 H 0.4595 0.10158 0.00615 0.0
H883 H 0.46535 0.06939 0.9921 0.0
H884 H 0.05826 0.26233 0.34049 0.0
H885 H 0.08489 0.26039 0.32057 0.0
H886 H 0.12247 0.29337 0.36762 0.0
H887 H 0.09603 0.29513 0.38774 0.0
H888 H 0.11166 0.29023 0.30804 0.0
H889 H 0.1445 0.24359 0.35563 0.0
H890 H 0.12081 0.24733 0.35784 0.0
H891 H 0.14022 0.26602 0.36845 0.0
C892 C 0.07219 0.26917 0.34661 0.0
C893 C 0.07504 0.27874 0.36577 0.0
C894 C 0.08738 0.26806 0.33519 0.0
C895 C 0.10567 0.27644 0.34275 0.0
C896 C 0.1085 0.28643 0.36167 0.0
H897 H 0.20758 0.30581 0.2842 0.0
H898 H 0.17776 0.30566 0.29885 0.0
C899 C 0.09336 0.2875 0.37311 0.0
C900 C 0.12182 0.27473 0.33089 0.0
H901 H 0.16296 0.25788 0.33108 0.0
C902 C 0.12284 0.28305 0.31298 0.0
C903 C 0.1362 0.26506 0.33722 0.0
C904 C 0.13534 0.25481 0.35574 0.0
C905 C 0.13817 0.28246 0.30151 0.0
C906 C 0.15297 0.2736 0.30831 0.0
C907 C 0.15167 0.26481 0.32594 0.0
C908 C 0.17019 0.27362 0.29769 0.0
C909 C 0.13829 0.29117 0.28216 0.0
C910 C 0.17594 0.25566 0.29227 0.0
C911 C 0.1931 0.25568 0.28407 0.0
C912 C 0.20489 0.2737 0.28119 0.0
C913 C 0.19883 0.29165 0.28611 0.0
C914 C 0.1817 0.2916 0.29439 0.0
H915 H 0.12391 0.29179 0.27644 0.0
H916 H 0.1465 0.30659 0.28417 0.0
H917 H 0.14483 0.28242 0.27107 0.0
H918 H 0.1673 0.24161 0.29475 0.0
H919 H 0.19728 0.24158 0.28043 0.0
H920 H 0.90024 0.02296 0.17582 0.0
H921 H 0.92063 0.02344 0.14869 0.0
H922 H 0.95539 0.07761 0.17613 0.0
H923 H 0.93522 0.07709 0.20356 0.0
H924 H 0.92927 0.05211 0.12312 0.0
H925 H 0.99332 0.04191 0.16521 0.0
H926 H 0.97052 0.03771 0.1749 0.0
H927 H 0.98343 0.0626 0.17454 0.0
C928 C 0.91224 0.03497 0.17614 0.0
C929 C 0.91615 0.04995 0.19191 0.0
C930 C 0.92387 0.03522 0.16061 0.0
C931 C 0.93966 0.0504 0.16052 0.0
C932 C 0.94349 0.06553 0.1761 0.0
H933 H 0.02331 0.06667 0.07275 0.0
H934 H 0.0048 0.07238 0.10092 0.0
C935 C 0.93188 0.06527 0.1917 0.0
C936 C 0.95186 0.05042 0.14392 0.0
H937 H 0.99605 0.04668 0.13182 0.0
C938 C 0.94389 0.05099 0.12503 0.0
C939 C 0.97095 0.04902 0.14647 0.0
C940 C 0.98008 0.04761 0.16633 0.0
C941 C 0.95443 0.04999 0.10859 0.0
C942 C 0.97338 0.04817 0.1111 0.0
C943 C 0.98152 0.04813 0.13 0.0
C944 C 0.98459 0.04495 0.09418 0.0
C945 C 0.94518 0.05079 0.08863 0.0
C946 C 0.97952 0.02751 0.08137 0.0
C947 C 0.99008 0.02417 0.06548 0.0
C948 C 0.00587 0.03827 0.06205 0.0
C949 C 0.01113 0.05563 0.07503 0.0
C950 C 0.00059 0.0589 0.09106 0.0
H951 H 0.93245 0.05745 0.0896 0.0
H952 H 0.95499 0.05949 0.07936 0.0
H953 H 0.94089 0.03545 0.0813 0.0
H954 H 0.96744 0.01638 0.08376 0.0
H955 H 0.98586 0.01052 0.05588 0.0
H956 H 0.30491 0.67197 0.46911 0.0
H957 H 0.31036 0.69064 0.44062 0.0
H958 H 0.264 0.71935 0.45358 0.0
H959 H 0.2586 0.70102 0.48214 0.0
H960 H 0.28463 0.68807 0.4093 0.0
H961 H 0.30438 0.76594 0.44276 0.0
H962 H 0.3049 0.74494 0.45659 0.0
H963 H 0.28317 0.75286 0.45137 0.0
C964 C 0.29604 0.68247 0.46605 0.0
C965 C 0.28129 0.68499 0.47786 0.0
C966 C 0.2992 0.69313 0.4498 0.0
C967 C 0.28778 0.7066 0.4452 0.0
C968 C 0.27327 0.7094 0.45715 0.0
H969 H 0.25571 0.76581 0.34996 0.0
H970 H 0.26244 0.75425 0.3817 0.0
C971 C 0.2701 0.69876 0.47338 0.0
C972 C 0.28975 0.71628 0.42688 0.0
H973 H 0.29403 0.76128 0.40862 0.0
C974 C 0.28703 0.70409 0.40911 0.0
C975 C 0.29282 0.73717 0.42675 0.0
C976 C 0.29667 0.751 0.4454 0.0
C977 C 0.28632 0.71217 0.39117 0.0
C978 C 0.28878 0.73304 0.39105 0.0
C979 C 0.29215 0.74529 0.4088 0.0
C980 C 0.28643 0.74222 0.37269 0.0
C981 C 0.28197 0.69822 0.37258 0.0
C982 C 0.2981 0.73987 0.35739 0.0
C983 C 0.29418 0.7463 0.33922 0.0
C984 C 0.27867 0.75537 0.33623 0.0
C985 C 0.2677 0.7588 0.35191 0.0
C986 C 0.27155 0.75224 0.37002 0.0
H987 H 0.2766 0.68265 0.37554 0.0
H988 H 0.27144 0.70294 0.36276 0.0
H989 H 0.29493 0.69846 0.36473 0.0
H990 H 0.30987 0.73252 0.35931 0.0
H991 H 0.30295 0.74366 0.32738 0.0
H992 H 0.55962 0.94389 0.70091 0.0
H993 H 0.54219 0.94279 0.66929 0.0
H994 H 0.58552 0.98846 0.65203 0.0
H995 H 0.60305 0.98952 0.6833 0.0
H996 H 0.5289 0.97457 0.656 0.0
H997 H 0.57638 0.94837 0.60371 0.0
H998 H 0.57853 0.94553 0.62953 0.0
H999 H 0.58826 0.96878 0.62056 0.0
C1000 C 0.56557 0.95345 0.69024 0.0
C1001 C 0.5827 0.96681 0.69462 0.0
C1002 C 0.55561 0.95279 0.67221 0.0
C1003 C 0.56272 0.96532 0.65823 0.0
C1004 C 0.58 0.97832 0.66242 0.0
H1005 H 0.53132 0.01823 0.55918 0.0
H1006 H 0.54588 0.00599 0.58722 0.0
C1007 C 0.58993 0.97903 0.6804 0.0
C1008 C 0.55143 0.96637 0.64003 0.0
H1009 H 0.55399 0.96645 0.59066 0.0
C1010 C 0.53415 0.97238 0.64165 0.0
C1011 C 0.55836 0.96349 0.62137 0.0
C1012 C 0.57632 0.95599 0.61865 0.0
C1013 C 0.52417 0.97679 0.6252 0.0
C1014 C 0.53159 0.97488 0.60669 0.0
C1015 C 0.54842 0.96798 0.60493 0.0
C1016 C 0.52287 0.9815 0.58927 0.0
C1017 C 0.50629 0.9845 0.62785 0.0
C1018 C 0.50522 0.97161 0.58109 0.0
C1019 C 0.49689 0.97855 0.56503 0.0
C1020 C 0.50615 0.99542 0.55698 0.0
C1021 C 0.52391 0.00515 0.56509 0.0
C1022 C 0.53224 -0.00183 0.58106 0.0
H1023 H 0.50402 0.98803 0.64352 0.0
H1024 H 0.50647 -0.00191 0.62024 0.0
H1025 H 0.49424 0.97308 0.6213 0.0
H1026 H 0.49789 0.95858 0.58714 0.0
H1027 H 0.48322 0.97075 0.55896 0.0
H1028 H 0.2324 0.37574 0.97251 0.0
H1029 H 0.23154 0.35969 0.93918 0.0
H1030 H 0.27658 0.33084 0.95633 0.0
H1031 H 0.27746 0.34665 0.98972 0.0
H1032 H 0.26125 0.36448 0.91472 0.0
H1033 H 0.23803 0.2852 0.92667 0.0
H1034 H 0.23551 0.30538 0.9444 0.0
H1035 H 0.2578 0.29804 0.94244 0.0
C1036 C 0.24197 0.36577 0.96927 0.0
C1037 C 0.25501 0.36248 0.98379 0.0
C1038 C 0.24147 0.35665 0.95021 0.0
C1039 C 0.25388 0.34394 0.94533 0.0
C1040 C 0.26667 0.34032 0.95986 0.0
H1041 H 0.28827 0.31132 0.82973 0.0
H1042 H 0.2868 0.32453 0.86372 0.0
C1043 C 0.2672 0.34946 0.97893 0.0
C1044 C 0.25421 0.33546 0.9248 0.0
H1045 H 0.24903 0.29176 0.89549 0.0
C1046 C 0.2585 0.34858 0.91048 0.0
C1047 C 0.25048 0.31473 0.91933 0.0
C1048 C 0.24502 0.29999 0.93396 0.0
C1049 C 0.25945 0.34152 0.89085 0.0
C1050 C 0.25627 0.32079 0.88547 0.0
C1051 C 0.25166 0.30766 0.89972 0.0
C1052 C 0.25731 0.31246 0.86502 0.0
C1053 C 0.2636 0.3563 0.87598 0.0
C1054 C 0.24133 0.30093 0.85466 0.0
C1055 C 0.24211 0.29331 0.83526 0.0
C1056 C 0.25896 0.29698 0.82588 0.0
C1057 C 0.27504 0.30829 0.83644 0.0
C1058 C 0.27422 0.31593 0.85585 0.0
H1059 H 0.26129 0.37125 0.88154 0.0
H1060 H 0.27847 0.35774 0.87251 0.0
H1061 H 0.25473 0.35121 0.8622 0.0
H1062 H 0.22817 0.29801 0.86152 0.0
H1063 H 0.22947 0.28459 0.82763 0.0
H1064 H 0.9033 0.98428 0.27056 0.0
H1065 H 0.91715 0.97986 0.30254 0.0
H1066 H 0.91794 0.04141 0.32188 0.0
H1067 H 0.90367 0.04587 0.29004 0.0
H1068 H 0.95028 -0.00236 0.32114 0.0
H1069 H 0.89248 0.01347 0.36554 0.0
H1070 H 0.88993 0.00912 0.33918 0.0
H1071 H 0.90097 0.03317 0.35098 0.0
C1072 C 0.90638 0.99689 0.28161 0.0
C1073 C 0.9023 0.01541 0.27778 0.0
C1074 C 0.91428 0.99432 0.29989 0.0
C1075 C 0.91824 0.01019 0.31472 0.0
C1076 C 0.91454 0.02881 0.31082 0.0
H1077 H 0.99565 0.0281 0.41497 0.0
H1078 H 0.97905 0.02616 0.38298 0.0
C1079 C 0.90654 0.03138 0.29256 0.0
C1080 C 0.9268 0.0074 0.33403 0.0
H1081 H 0.92158 0.01315 0.38313 0.0
C1082 C 0.94391 0.00086 0.33468 0.0
C1083 C 0.9183 0.01119 0.35167 0.0
C1084 C 0.89931 0.01692 0.35185 0.0
C1085 C 0.95313 -0.00123 0.35255 0.0
C1086 C 0.94521 0.00377 0.37023 0.0
C1087 C 0.92773 0.00953 0.36956 0.0
C1088 C 0.95535 0.00427 0.38953 0.0
C1089 C 0.97129 0.99125 0.35229 0.0
C1090 C 0.94733 0.99294 0.40405 0.0
C1091 C 0.95678 0.99415 0.4225 0.0
C1092 C 0.97429 0.00681 0.42666 0.0
C1093 C 0.98224 0.0181 0.41211 0.0
C1094 C 0.97282 0.01691 0.39377 0.0
H1095 H 0.97226 0.98221 0.33829 0.0
H1096 H 0.98317 0.00411 0.35378 0.0
H1097 H 0.97283 0.9821 0.36454 0.0
H1098 H 0.93378 0.98321 0.40111 0.0
H1099 H 0.95032 0.98539 0.43352 0.0
H1100 H 0.29547 0.67773 0.57857 0.0
H1101 H 0.29611 0.69847 0.60949 0.0
H1102 H 0.23909 0.70439 0.59616 0.0
H1103 H 0.23817 0.68337 0.56542 0.0
H1104 H 0.29063 0.73726 0.61584 0.0
H1105 H 0.23704 0.68562 0.65064 0.0
H1106 H 0.24782 0.67796 0.62893 0.0
H1107 H 0.22947 0.69204 0.62723 0.0
C1108 C 0.28304 0.68339 0.58224 0.0
C1109 C 0.26673 0.6788 0.56961 0.0
C1110 C 0.28344 0.69524 0.59989 0.0
C1111 C 0.26755 0.70269 0.60522 0.0
C1112 C 0.25135 0.69842 0.59251 0.0
H1113 H 0.25194 0.77683 0.71152 0.0
H1114 H 0.24752 0.75966 0.6782 0.0
C1115 C 0.25091 0.68649 0.5749 0.0
C1116 C 0.2681 0.71515 0.62399 0.0
H1117 H 0.24872 0.71704 0.66813 0.0
C1118 C 0.28144 0.73287 0.62725 0.0
C1119 C 0.25601 0.7094 0.63879 0.0
C1120 C 0.24187 0.69014 0.63636 0.0
C1121 C 0.28317 0.74492 0.64504 0.0
C1122 C 0.27134 0.73896 0.65995 0.0
C1123 C 0.25767 0.72154 0.65655 0.0
C1124 C 0.27399 0.74977 0.67971 0.0
C1125 C 0.2977 0.76386 0.64786 0.0
C1126 C 0.29021 0.74965 0.69148 0.0
C1127 C 0.29263 0.75916 0.71043 0.0
C1128 C 0.27884 0.76892 0.71794 0.0
C1129 C 0.26265 0.7692 0.7061 0.0
C1130 C 0.26017 0.75952 0.68711 0.0
H1131 H 0.30238 0.76878 0.63367 0.0
H1132 H 0.29217 0.77598 0.65596 0.0
H1133 H 0.3101 0.7613 0.65657 0.0
H1134 H 0.30089 0.74193 0.68607 0.0
H1135 H 0.30521 0.75865 0.7193 0.0
H1136 H 0.58781 0.96369 0.79359 0.0
H1137 H 0.56936 0.95978 0.82215 0.0
H1138 H 0.54084 0.00617 0.80621 0.0
H1139 H 0.55895 0.00989 0.77738 0.0
H1140 H 0.57092 0.98882 0.85161 0.0
H1141 H 0.49767 0.96499 0.82071 0.0
H1142 H 0.5175 0.96384 0.80621 0.0
H1143 H 0.50965 0.98696 0.81119 0.0
C1144 C 0.5774 0.97285 0.79598 0.0
C1145 C 0.5749 0.98718 0.78329 0.0
C1146 C 0.56684 0.97055 0.81228 0.0
C1147 C 0.55357 0.9825 0.81617 0.0
C1148 C 0.55067 0.99645 0.80323 0.0
H1149 H 0.49878 0.02098 0.91501 0.0
H1150 H 0.50886 0.01288 0.88233 0.0
C1151 C 0.56115 -0.00132 0.78684 0.0
C1152 C 0.54435 0.98196 0.83485 0.0
H1153 H 0.50193 0.97776 0.85465 0.0
C1154 C 0.55583 0.98607 0.85229 0.0
C1155 C 0.52467 0.97849 0.83566 0.0
C1156 C 0.51165 0.97313 0.81744 0.0
C1157 C 0.5482 0.98756 0.87052 0.0
C1158 C 0.52853 0.98453 0.87132 0.0
C1159 C 0.517 0.98001 0.85393 0.0
C1160 C 0.51991 0.98733 0.89009 0.0
C1161 C 0.56128 0.9932 0.88871 0.0
C1162 C 0.52219 0.97519 0.905 0.0
C1163 C 0.51655 0.97985 0.92367 0.0
C1164 C 0.50844 0.99663 0.9276 0.0
C1165 C 0.50507 0.00801 0.91234 0.0
C1166 C 0.51077 0.00337 0.89369 0.0
H1167 H 0.57591 -0.00106 0.88523 0.0
H1168 H 0.55662 0.00471 0.89861 0.0
H1169 H 0.56126 0.97991 0.89671 0.0
H1170 H 0.52898 0.96257 0.90238 0.0
H1171 H 0.51918 0.97077 0.93519 0.0
H1172 H 0.26293 0.38195 0.08986 0.0
H1173 H 0.26296 0.36469 0.11938 0.0
H1174 H 0.21485 0.32151 0.09474 0.0
H1175 H 0.21494 0.33843 0.06497 0.0
H1176 H 0.23582 0.35711 0.14555 0.0
H1177 H 0.25093 0.28646 0.11049 0.0
H1178 H 0.25346 0.30883 0.09828 0.0
H1179 H 0.23067 0.29373 0.09964 0.0
C1180 C 0.25238 0.36874 0.09067 0.0
C1181 C 0.239 0.36149 0.07499 0.0
C1182 C 0.25241 0.35891 0.10758 0.0
C1183 C 0.23908 0.34165 0.10915 0.0
C1184 C 0.22552 0.33455 0.09367 0.0
H1185 H 0.22143 0.26279 0.20187 0.0
H1186 H 0.21759 0.28012 0.1727 0.0
C1187 C 0.22554 0.3443 0.07669 0.0
C1188 C 0.23933 0.33125 0.1271 0.0
H1189 H 0.24394 0.28702 0.14374 0.0
C1190 C 0.23761 0.34179 0.14516 0.0
C1191 C 0.24166 0.31125 0.12656 0.0
C1192 C 0.24446 0.29943 0.10774 0.0
C1193 C 0.23806 0.33285 0.16269 0.0
C1194 C 0.24049 0.31291 0.16213 0.0
C1195 C 0.24198 0.30228 0.14408 0.0
C1196 C 0.24227 0.303 0.18017 0.0
C1197 C 0.23577 0.34473 0.18164 0.0
C1198 C 0.25748 0.31007 0.1939 0.0
C1199 C 0.25974 0.30018 0.21045 0.0
C1200 C 0.24681 0.28304 0.21355 0.0
C1201 C 0.23155 0.27601 0.19985 0.0
C1202 C 0.22935 0.28587 0.18322 0.0
H1203 H 0.22924 0.35771 0.17911 0.0
H1204 H 0.22709 0.33535 0.19138 0.0
H1205 H 0.24975 0.3504 0.18937 0.0
H1206 H 0.26783 0.32301 0.19161 0.0
H1207 H 0.27178 0.30578 0.22064 0.0
H1208 H 0.21929 0.94882 0.00897 0.0
H1209 H 0.19893 0.97338 0.01004 0.0
H1210 H 0.15303 0.92878 0.983 0.0
H1211 H 0.17323 0.90409 0.98178 0.0
H1212 H 0.17441 0.9844 0.97676 0.0
H1213 H 0.1371 0.95161 0.03824 0.0
H1214 H 0.16006 0.94748 0.03246 0.0
H1215 H 0.13972 0.93446 0.0177 0.0
C1216 C 0.2049 0.94425 0.00311 0.0
C1217 C 0.19782 0.92446 0.99542 0.0
C1218 C 0.19334 0.95833 0.00368 0.0
C1219 C 0.17453 0.95279 0.99671 0.0
C1220 C 0.16753 0.93324 0.98853 0.0
H1221 H 0.0834 0.01029 0.97368 0.0
H1222 H 0.11166 0.99619 0.97137 0.0
C1223 C 0.17909 0.91918 0.98784 0.0
C1224 C 0.16188 0.96712 -0.00108 0.0
H1225 H 0.12448 0.97637 0.02348 0.0
C1226 C 0.16356 0.98281 0.98705 0.0
C1227 C 0.148 0.96509 0.01258 0.0
C1228 C 0.1461 0.94886 0.02612 0.0
C1229 C 0.15116 0.99617 0.98803 0.0
C1230 C 0.13676 0.99361 0.00112 0.0
C1231 C 0.13556 0.97832 0.01345 0.0
C1232 C 0.12189 0.00557 0.00149 0.0
C1233 C 0.1535 0.01282 0.975 0.0
C1234 C 0.11842 0.01582 0.01909 0.0
C1235 C 0.1022 0.0238 0.02047 0.0
C1236 C 0.0892 0.02148 0.00429 0.0
C1237 C 0.09325 0.01232 0.98636 0.0
C1238 C 0.10946 0.00436 0.98498 0.0
H1239 H 0.16803 0.01635 0.97035 0.0
H1240 H 0.14392 0.00824 0.96165 0.0
H1241 H 0.14998 0.02649 0.98251 0.0
H1242 H 0.12781 0.01679 0.03201 0.0
H1243 H 0.09936 0.03076 0.03446 0.0
H1244 H 0.71262 0.59495 0.98385 0.0
H1245 H 0.68078 0.57576 0.98387 0.0
H1246 H 0.65986 0.63008 0.99459 0.0
H1247 H 0.69165 0.64938 0.99491 0.0
H1248 H 0.64585 0.60135 0.01876 0.0
H1249 H 0.63879 0.57004 0.94086 0.0
H1250 H 0.65888 0.56549 0.95463 0.0
H1251 H 0.65721 0.59051 0.95042 0.0
C1252 C 0.70124 0.60283 0.98609 0.0
C1253 C 0.70467 0.62371 0.9893 0.0
C1254 C 0.68304 0.59184 0.98603 0.0
C1255 C 0.66795 0.60152 0.989 0.0
C1256 C 0.67132 0.62233 0.99222 0.0
H1257 H 0.55009 0.55702 0.96419 0.0
H1258 H 0.58273 0.57421 0.9658 0.0
C1259 C 0.6895 0.63333 0.99234 0.0
C1260 C 0.64863 0.59 0.98907 0.0
H1261 H 0.61424 0.55806 0.9605 0.0
C1262 C 0.63892 0.59185 0.00605 0.0
C1263 C 0.63961 0.57778 0.97239 0.0
C1264 C 0.64906 0.57592 0.95347 0.0
C1265 C 0.62037 0.58182 0.00678 0.0
C1266 C 0.61145 0.56938 0.99019 0.0
C1267 C 0.62119 0.56749 0.97324 0.0
C1268 C 0.59168 0.55899 0.98969 0.0
C1269 C 0.61031 0.58508 0.02509 0.0
C1270 C 0.5859 0.54465 0.00255 0.0
C1271 C 0.56719 0.53484 0.00169 0.0
C1272 C 0.55408 0.53915 0.98787 0.0
C1273 C 0.55993 0.55339 0.97496 0.0
C1274 C 0.57856 0.56322 0.97586 0.0
H1275 H 0.61756 0.59846 0.03466 0.0
H1276 H 0.59571 0.58674 0.02142 0.0
H1277 H 0.60976 0.57201 0.03353 0.0
H1278 H 0.59589 0.5409 0.01307 0.0
H1279 H 0.56305 0.52373 0.01163 0.0
H1280 H 0.68327 0.47468 0.29018 0.0
H1281 H 0.70338 0.44988 0.28796 0.0
H1282 H 0.66259 0.41191 0.24683 0.0
H1283 H 0.64248 0.43659 0.2488 0.0
H1284 H 0.69463 0.41015 0.29659 0.0
H1285 H 0.71156 0.41456 0.21927 0.0
H1286 H 0.70196 0.43348 0.23299 0.0
H1287 H 0.68692 0.41076 0.22261 0.0
C1288 C 0.67861 0.46109 0.28059 0.0
C1289 C 0.66129 0.45764 0.26961 0.0
C1290 C 0.69013 0.44696 0.27934 0.0
C1291 C 0.68461 0.42923 0.26699 0.0
C1292 C 0.66729 0.42569 0.25613 0.0
H1293 H 0.71624 0.31751 0.24079 0.0
H1294 H 0.70324 0.34769 0.24258 0.0
C1295 C 0.65576 0.43977 0.25738 0.0
C1296 C 0.69652 0.414 0.26601 0.0
H1297 H 0.71837 0.38645 0.2342 0.0
C1298 C 0.70006 0.40513 0.28303 0.0
C1299 C 0.7036 0.40755 0.2483 0.0
C1300 C 0.70099 0.4172 0.22978 0.0
C1301 C 0.70975 0.38929 0.28261 0.0
C1302 C 0.71633 0.38245 0.26475 0.0
C1303 C 0.71329 0.39174 0.24786 0.0
C1304 C 0.72518 0.36473 0.26297 0.0
C1305 C 0.7121 0.37944 0.30106 0.0
C1306 C 0.74211 0.36445 0.27351 0.0
C1307 C 0.74963 0.34714 0.27257 0.0
C1308 C 0.74036 0.32984 0.261 0.0
C1309 C 0.72375 0.33047 0.24994 0.0
C1310 C 0.71627 0.34774 0.2509 0.0
H1311 H 0.70298 0.38387 0.31246 0.0
H1312 H 0.70884 0.36301 0.29794 0.0
H1313 H 0.72685 0.38383 0.30709 0.0
H1314 H 0.74938 0.37755 0.28263 0.0
H1315 H 0.76248 0.34722 0.2812 0.0
H1316 H 0.7985 0.42331 0.48428 0.0
H1317 H 0.83154 0.4385 0.48386 0.0
H1318 H 0.83395 0.45507 0.54604 0.0
H1319 H 0.80094 0.43962 0.5467 0.0
H1320 H 0.84967 0.47755 0.49492 0.0
H1321 H 0.87706 0.42502 0.54011 0.0
H1322 H 0.85333 0.42018 0.52939 0.0
H1323 H 0.85976 0.43691 0.55131 0.0
C1324 C 0.80604 0.43017 0.49789 0.0
C1325 C 0.79713 0.43014 0.51557 0.0
C1326 C 0.82491 0.43885 0.4976 0.0
C1327 C 0.83523 0.4476 0.51496 0.0
C1328 C 0.82631 0.448 0.53256 0.0
H1329 H 0.94929 0.50803 0.54422 0.0
H1330 H 0.91606 0.49349 0.5438 0.0
C1331 C 0.80743 0.43926 0.53288 0.0
C1332 C 0.85532 0.45642 0.51457 0.0
H1333 H 0.89892 0.45303 0.53269 0.0
C1334 C 0.86047 0.47215 0.50309 0.0
C1335 C 0.86932 0.44927 0.52523 0.0
C1336 C 0.86466 0.43179 0.53707 0.0
C1337 C 0.87929 0.48123 0.5023 0.0
C1338 C 0.89326 0.47416 0.51307 0.0
C1339 C 0.88812 0.45839 0.52448 0.0
C1340 C 0.91331 0.48314 0.51298 0.0
C1341 C 0.88407 0.49857 0.49032 0.0
C1342 C 0.92277 0.48194 0.49578 0.0
C1343 C 0.94182 0.49023 0.49593 0.0
C1344 C 0.9517 0.49981 0.51333 0.0
C1345 C 0.94213 0.50084 0.53054 0.0
C1346 C 0.92314 0.49252 0.53037 0.0
H1347 H 0.87158 0.5049 0.48645 0.0
H1348 H 0.89488 0.5105 0.49836 0.0
H1349 H 0.88982 0.49351 0.47654 0.0
H1350 H 0.91545 0.47445 0.48229 0.0
H1351 H 0.94877 0.48909 0.48244 0.0
H1352 H 0.33642 0.05876 0.26123 0.0
H1353 H 0.31128 0.07757 0.25757 0.0
H1354 H 0.34968 0.13174 0.27891 0.0
H1355 H 0.3749 0.11315 0.28266 0.0
H1356 H 0.29791 0.10436 0.28751 0.0
H1357 H 0.3266 0.14122 0.22405 0.0
H1358 H 0.3333 0.11888 0.23151 0.0
H1359 H 0.34334 0.14264 0.24447 0.0
C1360 C 0.33951 0.07468 0.26519 0.0
C1361 C 0.35768 0.08451 0.27214 0.0
C1362 C 0.32513 0.08535 0.26312 0.0
C1363 C 0.32876 0.106 0.26776 0.0
C1364 C 0.34674 0.11581 0.27504 0.0
H1365 H 0.27278 0.199 0.29524 0.0
H1366 H 0.28535 0.16855 0.29493 0.0
C1367 C 0.36109 0.10516 0.27723 0.0
C1368 C 0.31387 0.11752 0.26489 0.0
H1369 H 0.30341 0.15536 0.24048 0.0
C1370 C 0.29889 0.11532 0.27704 0.0
C1371 C 0.31503 0.13145 0.25093 0.0
C1372 C 0.33033 0.13362 0.23684 0.0
C1373 C 0.28562 0.12767 0.27642 0.0
C1374 C 0.28761 0.14264 0.26346 0.0
C1375 C 0.30193 0.14393 0.25047 0.0
C1376 C 0.27654 0.15859 0.26455 0.0
C1377 C 0.26986 0.12486 0.2899 0.0
C1378 C 0.26718 0.163 0.24764 0.0
C1379 C 0.26012 0.18054 0.24776 0.0
C1380 C 0.26247 0.19392 0.26474 0.0
C1381 C 0.27077 0.18889 0.28196 0.0
C1382 C 0.27782 0.1714 0.28184 0.0
H1383 H 0.26641 0.10923 0.29347 0.0
H1384 H 0.27423 0.13447 0.30381 0.0
H1385 H 0.25706 0.12896 0.28333 0.0
H1386 H 0.26617 0.15337 0.23412 0.0
H1387 H 0.25378 0.18412 0.23429 0.0
H1388 H 0.29563 0.09461 0.49447 0.0
H1389 H 0.31868 0.07292 0.49454 0.0
H1390 H 0.36338 0.12415 0.49776 0.0
H1391 H 0.34049 0.14598 0.49778 0.0
H1392 H 0.34736 0.06989 0.46766 0.0
H1393 H 0.3761 0.09333 0.54425 0.0
H1394 H 0.35389 0.09809 0.53504 0.0
H1395 H 0.37538 0.11342 0.52944 0.0
C1396 C 0.31036 0.10128 0.49524 0.0
C1397 C 0.31624 0.12204 0.49623 0.0
C1398 C 0.32349 0.08886 0.49523 0.0
C1399 C 0.34269 0.09698 0.49638 0.0
C1400 C 0.3486 0.11765 0.49716 0.0
H1401 H 0.43973 0.04726 0.47243 0.0
H1402 H 0.41209 0.06263 0.47066 0.0
C1403 C 0.3355 0.13008 0.4971 0.0
C1404 C 0.35659 0.08386 0.49667 0.0
H1405 H 0.39296 0.07363 0.52453 0.0
C1406 C 0.35726 0.07057 0.48013 0.0
C1407 C 0.36928 0.08463 0.51307 0.0
C1408 C 0.36859 0.09799 0.53155 0.0
C1409 C 0.37075 0.05843 0.47932 0.0
C1410 C 0.38394 0.05982 0.49541 0.0
C1411 C 0.38287 0.07267 0.51217 0.0
C1412 C 0.39946 0.04869 0.49501 0.0
C1413 C 0.37077 0.04424 0.46129 0.0
C1414 C 0.40149 0.03574 0.50925 0.0
C1415 C 0.4173 0.02702 0.51033 0.0
C1416 C 0.43137 0.03125 0.49727 0.0
C1417 C 0.42903 0.04368 0.48262 0.0
C1418 C 0.41321 0.05238 0.48153 0.0
H1419 H 0.35695 0.04094 0.45286 0.0
H1420 H 0.38138 0.05105 0.45164 0.0
H1421 H 0.3744 0.03005 0.46518 0.0
H1422 H 0.39107 0.0328 0.51984 0.0
H1423 H 0.41882 0.01753 0.52181 0.0
H1424 H 0.68215 0.56209 0.30636 0.0
H1425 H 0.70265 0.59493 0.31214 0.0
H1426 H 0.66533 0.61858 0.27413 0.0
H1427 H 0.64472 0.58615 0.26858 0.0
H1428 H 0.72094 0.61591 0.28479 0.0
H1429 H 0.67394 0.66013 0.32073 0.0
H1430 H 0.66912 0.63328 0.31834 0.0
H1431 H 0.66297 0.64659 0.29837 0.0
C1432 C 0.67821 0.57437 0.29945 0.0
C1433 C 0.66179 0.57152 0.28703 0.0
C1434 C 0.68992 0.5931 0.30278 0.0
C1435 C 0.68532 0.60927 0.29387 0.0
C1436 C 0.66889 0.60646 0.2816 0.0
H1437 H 0.73084 0.71874 0.25578 0.0
H1438 H 0.71322 0.68717 0.26427 0.0
C1439 C 0.65719 0.58782 0.2783 0.0
C1440 C 0.69831 0.62876 0.29593 0.0
H1441 H 0.69933 0.67859 0.3044 0.0
C1442 C 0.7164 0.6296 0.28953 0.0
C1443 C 0.69238 0.64659 0.30222 0.0
C1444 C 0.6736 0.6466 0.3105 0.0
C1445 C 0.72825 0.64789 0.28797 0.0
C1446 C 0.72179 0.66567 0.29302 0.0
C1447 C 0.70413 0.66486 0.30043 0.0
C1448 C 0.73234 0.68509 0.28873 0.0
C1449 C 0.74713 0.64816 0.27986 0.0
C1450 C 0.74881 0.69437 0.29984 0.0
C1451 C 0.75885 0.71253 0.29511 0.0
C1452 C 0.75252 0.72152 0.27919 0.0
C1453 C 0.73596 0.7122 0.2682 0.0
C1454 C 0.7259 0.69419 0.27301 0.0
H1455 H 0.74949 0.63298 0.27527 0.0
H1456 H 0.74846 0.65699 0.26709 0.0
H1457 H 0.75831 0.65543 0.29116 0.0
H1458 H 0.7539 0.68755 0.31209 0.0
H1459 H 0.77157 0.71946 0.30382 0.0
H1460 H 0.87505 0.48172 0.78742 0.0
H1461 H 0.85855 0.44725 0.78665 0.0
H1462 H 0.83143 0.45139 0.73043 0.0
H1463 H 0.84795 0.48582 0.73096 0.0
H1464 H 0.81897 0.43358 0.78343 0.0
H1465 H 0.85381 0.40064 0.7221 0.0
H1466 H 0.86338 0.42466 0.73513 0.0
H1467 H 0.84422 0.42201 0.71701 0.0
C1468 C 0.86568 0.47527 0.77482 0.0
C1469 C 0.86284 0.48648 0.75922 0.0
C1470 C 0.85625 0.4556 0.77443 0.0
C1471 C 0.84396 0.44678 0.7584 0.0
C1472 C 0.84111 0.45788 0.74279 0.0
H1473 H 0.77417 0.33051 0.72896 0.0
H1474 H 0.78961 0.36529 0.73004 0.0
C1475 C 0.85051 0.47756 0.74316 0.0
C1476 C 0.83368 0.42613 0.75829 0.0
H1477 H 0.82798 0.37981 0.73386 0.0
C1478 C 0.82096 0.42177 0.77266 0.0
C1479 C 0.83632 0.41087 0.74415 0.0
C1480 C 0.85028 0.41466 0.7288 0.0
C1481 C 0.81054 0.40252 0.77309 0.0
C1482 C 0.81323 0.38723 0.759 0.0
C1483 C 0.82595 0.39161 0.74462 0.0
C1484 C 0.80314 0.3665 0.75895 0.0
C1485 C 0.79649 0.3988 0.78837 0.0
C1486 C 0.80566 0.35568 0.77488 0.0
C1487 C 0.79682 0.33579 0.77436 0.0
C1488 C 0.78544 0.32632 0.75781 0.0
C1489 C 0.78285 0.3373 0.74194 0.0
C1490 C 0.79166 0.35718 0.7425 0.0
H1491 H 0.79256 0.41281 0.79456 0.0
H1492 H 0.7836 0.38835 0.78217 0.0
H1493 H 0.8027 0.39206 0.80053 0.0
H1494 H 0.81478 0.36251 0.78754 0.0
H1495 H 0.79922 0.32777 0.78679 0.0
H1496 H 0.03156 0.8106 0.07467 0.0
H1497 H 0.03015 0.83825 0.05489 0.0
H1498 H 0.02049 0.87471 0.10625 0.0
H1499 H 0.02203 0.84739 0.12611 0.0
H1500 H 0.00047 0.85886 0.04949 0.0
H1501 H 0.06474 0.90915 0.08324 0.0
H1502 H 0.05964 0.88292 0.08617 0.0
H1503 H 0.04876 0.89997 0.10082 0.0
C1504 C 0.02925 0.82455 0.08177 0.0
C1505 C 0.02703 0.82683 0.10199 0.0
C1506 C 0.02841 0.84029 0.07044 0.0
C1507 C 0.02549 0.85858 0.07918 0.0
C1508 C 0.02312 0.86083 0.0993 0.0
H1509 H 0.9854 0.95643 0.03494 0.0
H1510 H 0.98881 0.92492 0.04704 0.0
C1511 C 0.02394 0.84515 0.11061 0.0
C1512 C 0.02447 0.87529 0.06732 0.0
H1513 H 0.04378 0.92391 0.0642 0.0
C1514 C 0.01005 0.87303 0.05251 0.0
C1515 C 0.03717 0.89363 0.07111 0.0
C1516 C 0.05357 0.89656 0.08607 0.0
C1517 C 0.00751 0.88897 0.04194 0.0
C1518 C 0.01956 0.90765 0.04655 0.0
C1519 C 0.03444 0.90963 0.0608 0.0
C1520 C 0.0167 0.9256 0.03735 0.0
C1521 C 0.99196 0.88565 0.02598 0.0
C1522 C 0.03128 0.93652 0.02797 0.0
C1523 C 0.02946 0.95464 0.02122 0.0
C1524 C 0.01303 0.96224 0.02379 0.0
C1525 C -0.00179 0.95097 0.03263 0.0
C1526 C 8e-05 0.93287 0.03946 0.0
H1527 H 0.98794 0.86971 0.02028 0.0
H1528 H 0.97944 0.89031 0.032 0.0
H1529 H 0.99608 0.8945 0.01364 0.0
H1530 H 0.04425 0.93121 0.02626 0.0
H1531 H 0.04113 0.96288 0.0144 0.0
H1532 H 0.92732 0.20015 0.84391 0.0
H1533 H 0.89805 0.19761 0.82388 0.0
H1534 H 0.91613 0.25756 0.80944 0.0
H1535 H 0.94539 0.26022 0.82923 0.0
H1536 H 0.8712 0.22147 0.82893 0.0
H1537 H 0.89934 0.2263 0.75588 0.0
H1538 H 0.91266 0.22061 0.77676 0.0
H1539 H 0.91107 0.24594 0.77369 0.0
C1540 C 0.92514 0.21274 0.83634 0.0
C1541 C 0.93872 0.23038 0.83814 0.0
C1542 C 0.90841 0.21125 0.82491 0.0
C1543 C 0.90507 0.22728 0.81493 0.0
C1544 C 0.91861 0.24486 0.81667 0.0
H1545 H 0.80846 0.26875 0.77862 0.0
H1546 H 0.83529 0.25933 0.79522 0.0
C1547 C 0.93528 0.24639 0.82811 0.0
C1548 C 0.88702 0.2262 0.80359 0.0
H1549 H 0.86844 0.23326 0.75885 0.0
C1550 C 0.87053 0.22373 0.81353 0.0
C1551 C 0.88613 0.22881 0.78343 0.0
C1552 C 0.90322 0.23036 0.77175 0.0
C1553 C 0.85333 0.22498 0.80411 0.0
C1554 C 0.85269 0.22905 0.78431 0.0
C1555 C 0.86898 0.23033 0.77407 0.0
C1556 C 0.83575 0.23383 0.77453 0.0
C1557 C 0.83606 0.2223 0.81555 0.0
C1558 C 0.82733 0.22289 0.75707 0.0
C1559 C 0.81189 0.22828 0.74748 0.0
C1560 C 0.80481 0.24477 0.75517 0.0
C1561 C 0.81342 0.25577 0.77251 0.0
C1562 C 0.82871 0.25035 0.78209 0.0
H1563 H 0.83753 0.21324 0.8279 0.0
H1564 H 0.83391 0.23708 0.82179 0.0
H1565 H 0.82344 0.21506 0.80603 0.0
H1566 H 0.83272 0.21023 0.75088 0.0
H1567 H 0.80556 0.21965 0.73407 0.0
H1568 H 0.50136 0.22044 0.62507 0.0
H1569 H 0.49952 0.18735 0.60788 0.0
H1570 H 0.55208 0.20744 0.58313 0.0
H1571 H 0.55402 0.24061 0.60013 0.0
H1572 H 0.52351 0.18519 0.55589 0.0
H1573 H 0.53221 0.14703 0.62256 0.0
H1574 H 0.51394 0.1613 0.62292 0.0
H1575 H 0.53789 0.17372 0.62264 0.0
C1576 C 0.51252 0.21785 0.61596 0.0
C1577 C 0.52788 0.23314 0.61405 0.0
C1578 C 0.51149 0.1989 0.60624 0.0
C1579 C 0.5258 0.19491 0.59449 0.0
C1580 C 0.54095 0.21022 0.59223 0.0
H1581 H 0.54276 0.07756 0.54962 0.0
H1582 H 0.5469 0.11163 0.56524 0.0
C1583 C 0.54203 0.22915 0.60198 0.0
C1584 C 0.52491 0.17479 0.58441 0.0
H1585 H 0.52396 0.12646 0.59262 0.0
C1586 C 0.52367 0.17235 0.56389 0.0
C1587 C 0.5254 0.15815 0.59493 0.0
C1588 C 0.5276 0.16012 0.61698 0.0
C1589 C 0.52246 0.15355 0.55357 0.0
C1590 C 0.52228 0.1368 0.56409 0.0
C1591 C 0.52397 0.13933 0.58461 0.0
C1592 C 0.52001 0.11644 0.55409 0.0
C1593 C 0.52152 0.15179 0.53151 0.0
C1594 C 0.50347 0.10786 0.54277 0.0
C1595 C 0.50103 0.08842 0.53386 0.0
C1596 C 0.51508 0.07714 0.53616 0.0
C1597 C 0.53168 0.08582 0.54749 0.0
C1598 C 0.53407 0.10528 0.55646 0.0
H1599 H 0.52665 0.16633 0.5259 0.0
H1600 H 0.5299 0.14094 0.52568 0.0
H1601 H 0.50676 0.14646 0.52577 0.0
H1602 H 0.49231 0.11611 0.54106 0.0
H1603 H 0.48805 0.08223 0.52527 0.0
H1604 H 0.56672 0.75832 0.37268 0.0
H1605 H 0.59396 0.75752 0.35353 0.0
H1606 H 0.55811 0.74522 0.30035 0.0
H1607 H 0.53068 0.74592 0.31939 0.0
H1608 H 0.58589 0.72039 0.30367 0.0
H1609 H 0.61605 0.80099 0.31845 0.0
H1610 H 0.61039 0.78861 0.3399 0.0
H1611 H 0.59199 0.79071 0.3223 0.0
C1612 C 0.56459 0.75549 0.35691 0.0
C1613 C 0.54653 0.75229 0.34755 0.0
C1614 C 0.58019 0.7551 0.34599 0.0
C1615 C 0.57804 0.75153 0.32554 0.0
C1616 C 0.56004 0.74807 0.31613 0.0
H1617 H 0.672 0.77425 0.25227 0.0
H1618 H 0.64085 0.7714 0.26479 0.0
C1619 C 0.54441 0.74854 0.32704 0.0
C1620 C 0.59463 0.75138 0.31403 0.0
H1621 H 0.63548 0.78056 0.30374 0.0
C1622 C 0.5967 0.73355 0.30353 0.0
C1623 C 0.60855 0.76865 0.31372 0.0
C1624 C 0.60663 0.78839 0.32404 0.0
C1625 C 0.61266 0.7324 0.29318 0.0
C1626 C 0.62692 0.74949 0.29353 0.0
C1627 C 0.62456 0.76744 0.30357 0.0
C1628 C 0.64469 0.74913 0.28408 0.0
C1629 C 0.6141 0.71297 0.28192 0.0
C1630 C 0.65704 0.7373 0.29055 0.0
C1631 C 0.67483 0.73887 0.28338 0.0
C1632 C 0.68054 0.75241 0.26976 0.0
C1633 C 0.66792 0.76367 0.26275 0.0
C1634 C 0.65015 0.76209 0.2699 0.0
H1635 H 0.60015 0.70314 0.27866 0.0
H1636 H 0.62074 0.71547 0.26795 0.0
H1637 H 0.6229 0.70508 0.29082 0.0
H1638 H 0.65326 0.72748 0.30175 0.0
H1639 H 0.68435 0.7301 0.2891 0.0
H1640 H 0.0324 0.21879 0.41613 0.0
H1641 H 0.03014 0.18845 0.43246 0.0
H1642 H 0.98367 0.2032 0.46325 0.0
H1643 H 0.98627 0.23398 0.44746 0.0
H1644 H 0.00714 0.18881 0.48701 0.0
H1645 H 0.99104 0.13915 0.41796 0.0
H1646 H 0.01279 0.15634 0.41788 0.0
H1647 H 0.99122 0.16545 0.41902 0.0
C1648 C 0.0217 0.2156 0.42639 0.0
C1649 C 0.00939 0.22869 0.43036 0.0
C1650 C 0.02037 0.19819 0.43564 0.0
C1651 C 0.00645 0.19331 0.44872 0.0
C1652 C 0.99444 0.2066 0.45311 0.0
H1653 H 0.97654 0.07197 0.47795 0.0
H1654 H 0.97536 0.10488 0.46798 0.0
C1655 C 0.99593 0.22417 0.44405 0.0
C1656 C 0.00434 0.17425 0.45765 0.0
H1657 H -0.00109 0.12416 0.44631 0.0
C1658 C 0.00519 0.17464 0.47813 0.0
C1659 C 0.0014 0.15574 0.44607 0.0
C1660 C -0.00115 0.15409 0.42403 0.0
C1661 C 0.00368 0.15704 0.48734 0.0
C1662 C 0.00178 0.13863 0.47573 0.0
C1663 C 0.00052 0.13826 0.45525 0.0
C1664 C 0.00122 0.11946 0.48426 0.0
C1665 C 0.00385 0.15839 0.50936 0.0
C1666 C 0.01589 0.11674 0.49715 0.0
C1667 C 0.01638 0.09796 0.5032 0.0
C1668 C 0.00246 0.08151 0.49604 0.0
C1669 C 0.98751 0.08437 0.48363 0.0
C1670 C 0.98684 0.10317 0.47791 0.0
H1671 H -0.00089 0.172 0.5154 0.0
H1672 H 0.99473 0.14523 0.51433 0.0
H1673 H 0.01836 0.15916 0.51551 0.0
H1674 H 0.0274 0.12891 0.50187 0.0
H1675 H 0.0282 0.09612 0.51257 0.0
H1676 H 0.54144 0.27157 0.17053 0.0
H1677 H 0.57099 0.26691 0.18617 0.0
H1678 H 0.59049 0.25206 0.12961 0.0
H1679 H 0.56108 0.25681 0.1138 0.0
H1680 H 0.58638 0.23137 0.18263 0.0
H1681 H 0.63325 0.2958 0.15657 0.0
H1682 H 0.60816 0.29368 0.1561 0.0
H1683 H 0.61838 0.27941 0.13795 0.0
C1684 C 0.55206 0.26747 0.16139 0.0
C1685 C 0.54893 0.26463 0.1409 0.0
C1686 C 0.5689 0.26476 0.17036 0.0
C1687 C 0.58295 0.25932 0.15902 0.0
C1688 C 0.57992 0.25655 0.13859 0.0
H1689 H 0.69593 0.24367 0.19325 0.0
H1690 H 0.66629 0.24293 0.17437 0.0
C1691 C 0.56307 0.25921 0.1296 0.0
C1692 C 0.6006 0.25611 0.16865 0.0
H1693 H 0.64763 0.27428 0.17434 0.0
C1694 C 0.59979 0.24072 0.18082 0.0
C1695 C 0.61805 0.26825 0.16611 0.0
C1696 C 0.61961 0.28533 0.1536 0.0
C1697 C 0.61602 0.23716 0.1906 0.0
C1698 C 0.63343 0.24958 0.1884 0.0
C1699 C 0.63427 0.26474 0.17594 0.0
C1700 C 0.65078 0.24794 0.19977 0.0
C1701 C 0.61439 0.22004 0.20304 0.0
C1702 C 0.65183 0.25084 0.22028 0.0
C1703 C 0.66866 0.2512 0.23104 0.0
C1704 C 0.68479 0.24883 0.22147 0.0
C1705 C 0.68366 0.24543 0.20097 0.0
C1706 C 0.66678 0.24506 0.19019 0.0
H1707 H 0.60168 0.20856 0.19844 0.0
H1708 H 0.62686 0.21296 0.20233 0.0
H1709 H 0.61328 0.22565 0.21849 0.0
H1710 H 0.63979 0.25354 0.22796 0.0
H1711 H 0.66919 0.25399 0.24683 0.0
H1712 H 0.54158 0.81913 0.9444 0.0
H1713 H 0.54288 0.84955 0.96624 0.0
H1714 H 0.53521 0.88168 0.91641 0.0
H1715 H 0.53435 0.85156 0.89449 0.0
H1716 H 0.56115 0.90342 0.94466 0.0
H1717 H 0.49538 0.87074 0.97703 0.0
H1718 H 0.51398 0.85708 0.97915 0.0
H1719 H 0.50349 0.85912 0.9554 0.0
C1720 C 0.54037 0.83272 0.93809 0.0
C1721 C 0.53765 0.83289 0.91772 0.0
C1722 C 0.54103 0.85006 0.95059 0.0
C1723 C 0.53877 0.86775 0.94294 0.0
C1724 C 0.53691 0.86815 0.9226 0.0
H1725 H 0.49584 0.96779 0.98854 0.0
H1726 H 0.50271 0.93731 0.97202 0.0
C1727 C 0.53637 0.85089 0.9101 0.0
C1728 C 0.53731 0.88564 0.95598 0.0
H1729 H 0.50955 0.90348 0.989 0.0
C1730 C 0.54999 0.90343 0.95451 0.0
C1731 C 0.52256 0.88561 0.9686 0.0
C1732 C 0.50796 0.86719 0.97008 0.0
C1733 C 0.54811 0.92129 0.96508 0.0
C1734 C 0.53336 0.92122 0.97767 0.0
C1735 C 0.52093 0.90338 0.97944 0.0
C1736 C 0.52958 0.93975 0.98788 0.0
C1737 C 0.56138 0.94025 0.96207 0.0
C1738 C 0.54237 0.95113 0.0024 0.0
C1739 C 0.5385 0.96866 0.01181 0.0
C1740 C 0.5218 0.97496 0.00681 0.0
C1741 C 0.50892 0.96337 0.99252 0.0
C1742 C 0.51279 0.94593 0.98313 0.0
H1743 H 0.56979 0.93835 0.94924 0.0
H1744 H 0.55356 0.95236 0.95995 0.0
H1745 H 0.57116 0.94495 0.97525 0.0
H1746 H 0.55527 0.94641 0.00647 0.0
H1747 H 0.54861 0.97732 0.02285 0.0
H1748 H 0.92442 0.76966 0.63404 0.0
H1749 H 0.89923 0.77174 0.65569 0.0
H1750 H 0.93977 0.79334 0.7043 0.0
H1751 H 0.96521 0.79093 0.68274 0.0
H1752 H 0.91094 0.76461 0.71377 0.0
H1753 H 0.88275 0.82214 0.67705 0.0
H1754 H 0.88432 0.80103 0.66035 0.0
H1755 H 0.90533 0.81623 0.67238 0.0
C1756 C 0.92804 0.77492 0.64932 0.0
C1757 C 0.94685 0.78026 0.65663 0.0
C1758 C 0.91359 0.77621 0.66166 0.0
C1759 C 0.91762 0.78308 0.68152 0.0
C1760 C 0.93637 0.78814 0.68898 0.0
H1761 H 0.82704 0.81296 0.74967 0.0
H1762 H 0.85731 0.81449 0.73555 0.0
C1763 C 0.95087 0.78677 0.67663 0.0
C1764 C 0.90216 0.78458 0.69446 0.0
H1765 H 0.8627 0.80416 0.69857 0.0
C1766 C 0.90049 0.77343 0.71061 0.0
C1767 C 0.88874 0.79639 0.69054 0.0
C1768 C 0.89046 0.80979 0.67426 0.0
C1769 C 0.8853 0.77312 0.72245 0.0
C1770 C 0.87124 0.78391 0.71774 0.0
C1771 C 0.87335 0.7957 0.70207 0.0
C1772 C 0.85384 0.7827 0.72829 0.0
C1773 C 0.88453 0.76127 0.73989 0.0
C1774 C 0.84187 0.76431 0.72909 0.0
C1775 C 0.82461 0.76336 0.73731 0.0
C1776 C 0.81883 0.78084 0.74459 0.0
C1777 C 0.83101 0.79921 0.74414 0.0
C1778 C 0.84834 0.80012 0.73607 0.0
H1779 H 0.89875 0.7596 0.74521 0.0
H1780 H 0.8779 0.76834 0.75212 0.0
H1781 H 0.87617 0.74615 0.73558 0.0
H1782 H 0.84556 0.75071 0.72273 0.0
H1783 H 0.81554 0.74897 0.73728 0.0
H1784 H 0.10649 0.98064 0.82654 0.0
H1785 H 0.08688 0.97408 0.85406 0.0
H1786 H 0.07153 0.03148 0.85264 0.0
H1787 H 0.09101 0.03818 0.82525 0.0
H1788 H 0.09102 -0.00188 0.89105 0.0
H1789 H 0.02088 0.99221 0.8533 0.0
H1790 H 0.04136 0.98948 0.84034 0.0
H1791 H 0.03746 0.01381 0.84863 0.0
C1792 C 0.0988 0.99178 0.83198 0.0
C1793 C 0.10029 0.00994 0.82371 0.0
C1794 C 0.08763 0.98801 0.84769 0.0
C1795 C 0.0776 0.00219 0.85517 0.0
C1796 C 0.07892 0.02021 0.84684 0.0
H1797 H 0.03744 0.03381 0.96424 0.0
H1798 H 0.05448 0.02879 0.93514 0.0
C1799 C 0.09016 0.02405 0.83126 0.0
C1800 C 0.06655 -0.00117 0.87243 0.0
H1801 H 0.02283 -0.00202 0.88829 0.0
C1802 C 0.07606 -0.00224 0.89043 0.0
C1803 C 0.04702 -0.00187 0.8715 0.0
C1804 C 0.03601 -0.00173 0.85237 0.0
C1805 C 0.06668 -0.00287 0.90775 0.0
C1806 C 0.04737 -0.00225 0.90698 0.0
C1807 C 0.03767 -0.00233 0.88884 0.0
C1808 C 0.03736 0.00012 0.92496 0.0
C1809 C 0.07759 0.99623 0.92677 0.0
C1810 C 0.02182 0.98583 0.92865 0.0
C1811 C 0.01207 0.98864 0.94538 0.0
C1812 C 0.01766 0.00585 0.95849 0.0
C1813 C 0.03305 0.02022 0.95458 0.0
C1814 C 0.04282 0.01736 0.93798 0.0
H1815 H 0.09033 0.98991 0.9243 0.0
H1816 H 0.08213 0.01151 0.93418 0.0
H1817 H 0.06887 0.98718 0.93672 0.0
H1818 H 0.01729 0.97253 0.91862 0.0
H1819 H 0.00019 0.9774 0.94804 0.0
H1820 H 0.7023 0.33321 0.52749 0.0
H1821 H 0.70211 0.31326 0.55525 0.0
H1822 H 0.74291 0.35992 0.58763 0.0
H1823 H 0.74323 0.37994 0.56005 0.0
H1824 H 0.73497 0.30125 0.5719 0.0
H1825 H 0.70127 0.34534 0.62607 0.0
H1826 H 0.69905 0.34741 0.6001 0.0
H1827 H 0.71996 0.35975 0.61442 0.0
C1828 C 0.71104 0.33933 0.54062 0.0
C1829 C 0.72279 0.35815 0.54159 0.0
C1830 C 0.71093 0.3279 0.55642 0.0
C1831 C 0.72235 0.33523 0.57349 0.0
C1832 C 0.73379 0.35415 0.57466 0.0
H1833 H 0.77348 0.28559 0.66547 0.0
H1834 H 0.76468 0.29858 0.6351 0.0
C1835 C 0.73402 0.36552 0.55885 0.0
C1836 C 0.72334 0.3227 0.58968 0.0
H1837 H 0.71776 0.32167 0.63851 0.0
C1838 C 0.73097 0.30552 0.58642 0.0
C1839 C 0.71793 0.32824 0.60849 0.0
C1840 C 0.70893 0.3461 0.61251 0.0
C1841 C 0.73417 0.29423 0.60178 0.0
C1842 C 0.72974 0.30043 0.62083 0.0
C1843 C 0.72126 0.31706 0.62388 0.0
C1844 C 0.73485 0.2907 0.63804 0.0
C1845 C 0.74252 0.27595 0.5976 0.0
C1846 C 0.72097 0.282 0.6497 0.0
C1847 C 0.72596 0.27457 0.66702 0.0
C1848 C 0.74492 0.27596 0.67301 0.0
C1849 C 0.75877 0.28426 0.6611 0.0
C1850 C 0.75377 0.29159 0.64374 0.0
H1851 H 0.74033 0.2702 0.58187 0.0
H1852 H 0.75782 0.27977 0.60146 0.0
H1853 H 0.73637 0.26397 0.60648 0.0
H1854 H 0.7063 0.28134 0.64558 0.0
H1855 H 0.71502 0.26833 0.67603 0.0
H1856 H 0.46042 0.03974 0.29852 0.0
H1857 H 0.47855 0.04191 0.32979 0.0
H1858 H 0.43161 0.05566 0.36037 0.0
H1859 H 0.41351 0.05399 0.32918 0.0
H1860 H 0.46601 0.07766 0.37655 0.0
H1861 H 0.46691 0.99687 0.3647 0.0
H1862 H 0.4768 0.01116 0.34588 0.0
H1863 H 0.45227 0.0087 0.34959 0.0
C1864 C 0.45401 0.04342 0.31189 0.0
C1865 C 0.43544 0.0464 0.31141 0.0
C1866 C 0.46438 0.04461 0.32972 0.0
C1867 C 0.45627 0.04855 0.34736 0.0
C1868 C 0.43808 0.05252 0.34689 0.0
H1869 H 0.47935 0.01247 0.45975 0.0
H1870 H 0.46651 0.01924 0.42822 0.0
C1871 C 0.42774 0.05149 0.32906 0.0
C1872 C 0.46617 0.04719 0.36632 0.0
H1873 H 0.48287 0.01438 0.39345 0.0
C1874 C 0.46982 0.06388 0.38026 0.0
C1875 C 0.47086 0.02909 0.37113 0.0
C1876 C 0.46639 0.01037 0.35714 0.0
C1877 C 0.47791 0.06289 0.39902 0.0
C1878 C 0.48267 0.04481 0.40374 0.0
C1879 C 0.47927 0.02824 0.3897 0.0
C1880 C 0.49009 0.04219 0.42352 0.0
C1881 C 0.48068 0.08092 0.41382 0.0
C1882 C 0.50755 0.053 0.4314 0.0
C1883 C 0.51485 0.04928 0.4496 0.0
C1884 C 0.50483 0.03462 0.46001 0.0
C1885 C 0.4873 0.024 0.45214 0.0
C1886 C 0.47998 0.02779 0.43409 0.0
H1887 H 0.47269 0.09218 0.40924 0.0
H1888 H 0.4763 0.07665 0.42832 0.0
H1889 H 0.49574 0.08793 0.41552 0.0
H1890 H 0.51572 0.06392 0.42329 0.0
H1891 H 0.52845 0.05759 0.45534 0.0
H1892 H 0.7639 0.65549 0.05542 0.0
H1893 H 0.76197 0.66925 0.08908 0.0
H1894 H 0.7685 0.72817 0.07046 0.0
H1895 H 0.77007 0.7145 0.03664 0.0
H1896 H 0.78708 0.69643 0.11317 0.0
H1897 H 0.72138 0.72445 0.10032 0.0
H1898 H 0.72952 0.70765 0.08255 0.0
H1899 H 0.73949 0.73377 0.08492 0.0
C1900 C 0.76493 0.67139 0.05845 0.0
C1901 C 0.76701 0.68389 0.04331 0.0
C1902 C 0.76383 0.67922 0.07771 0.0
C1903 C 0.76474 0.69968 0.08222 0.0
C1904 C 0.7673 0.71228 0.06723 0.0
H1905 H 0.78679 0.76371 0.19793 0.0
H1906 H 0.78815 0.75004 0.16419 0.0
C1907 C 0.76833 0.70445 0.04793 0.0
C1908 C 0.76325 0.70779 0.10266 0.0
H1909 H 0.73767 0.73401 0.13153 0.0
C1910 C 0.77626 0.7046 0.1172 0.0
C1911 C 0.74893 0.71817 0.10793 0.0
C1912 C 0.73391 0.72107 0.09316 0.0
C1913 C 0.77552 0.71179 0.13683 0.0
C1914 C 0.76162 0.72282 0.14198 0.0
C1915 C 0.74842 0.72572 0.12751 0.0
C1916 C 0.76055 0.73146 0.16233 0.0
C1917 C 0.78943 0.7072 0.15192 0.0
C1918 C 0.74431 0.72607 0.17229 0.0
C1919 C 0.74339 0.73402 0.19158 0.0
C1920 C 0.75871 0.74753 0.20123 0.0
C1921 C 0.77481 0.75317 0.19105 0.0
C1922 C 0.77567 0.7453 0.17176 0.0
H1923 H 0.79546 0.69417 0.14664 0.0
H1924 H 0.80111 0.72018 0.15502 0.0
H1925 H 0.78283 0.70419 0.16581 0.0
H1926 H 0.73243 0.7155 0.16521 0.0
H1927 H 0.73077 0.72939 0.19897 0.0
H1928 H 0.07388 0.01844 0.73864 0.0
H1929 H 0.06286 0.02597 0.70647 0.0
H1930 H 0.11446 0.01605 0.68301 0.0
H1931 H 0.12557 0.00839 0.715 0.0
H1932 H 0.08094 0.05664 0.68412 0.0
H1933 H 0.07316 0.98107 0.64489 0.0
H1934 H 0.07474 0.98548 0.67125 0.0
H1935 H 0.09547 0.99036 0.65801 0.0
C1936 C 0.08282 0.01766 0.7266 0.0
C1937 C 0.10058 0.01274 0.72938 0.0
C1938 C 0.07652 0.02205 0.70826 0.0
C1939 C 0.0878 0.02141 0.69238 0.0
C1940 C 0.10545 0.01635 0.69504 0.0
H1941 H 0.07335 0.03684 0.5695 0.0
H1942 H 0.08671 0.03463 0.60239 0.0
C1943 C 0.11178 0.01202 0.71335 0.0
C1944 C 0.08131 0.02645 0.67307 0.0
H1945 H 0.07005 0.00719 0.62563 0.0
C1946 C 0.07848 0.04585 0.67131 0.0
C1947 C 0.0782 0.01232 0.65645 0.0
C1948 C 0.08038 0.99108 0.65768 0.0
C1949 C 0.07291 0.05161 0.6532 0.0
C1950 C 0.06979 0.03747 0.63656 0.0
C1951 C 0.07259 0.01806 0.63838 0.0
C1952 C 0.06305 0.0421 0.61715 0.0
C1953 C 0.07076 0.07285 0.65197 0.0
C1954 C 0.04554 0.04759 0.61459 0.0
C1955 C 0.03795 0.04901 0.59582 0.0
C1956 C 0.04767 0.04474 0.57934 0.0
C1957 C 0.06559 0.04025 0.58198 0.0
C1958 C 0.0732 0.03892 0.60074 0.0
H1959 H 0.07874 0.08295 0.66431 0.0
H1960 H 0.07556 0.0782 0.63799 0.0
H1961 H 0.05576 0.07375 0.65268 0.0
H1962 H 0.03731 0.04974 0.627 0.0
H1963 H 0.02405 0.05235 0.59417 0.0
H1964 H 0.7287 0.36049 0.44183 0.0
H1965 H 0.7283 0.33573 0.41406 0.0
H1966 H 0.7604 0.30347 0.44923 0.0
H1967 H 0.76122 0.32848 0.47707 0.0
H1968 H 0.77509 0.30906 0.41482 0.0
H1969 H 0.69932 0.27974 0.40148 0.0
H1970 H 0.70402 0.30634 0.40271 0.0
H1971 H 0.70928 0.29432 0.42397 0.0
C1972 C 0.73549 0.34802 0.44376 0.0
C1973 C 0.74502 0.34647 0.46164 0.0
C1974 C 0.7351 0.33376 0.42791 0.0
C1975 C 0.744 0.31753 0.42969 0.0
C1976 C 0.7533 0.31578 0.44761 0.0
H1977 H 0.72996 0.23992 0.31913 0.0
H1978 H 0.73189 0.24793 0.35482 0.0
C1979 C 0.75377 0.3301 0.46347 0.0
C1980 C 0.74491 0.30352 0.41228 0.0
H1981 H 0.71792 0.27725 0.37325 0.0
C1982 C 0.76258 0.30171 0.40594 0.0
C1983 C 0.72862 0.29348 0.40094 0.0
C1984 C 0.70926 0.29338 0.40777 0.0
C1985 C 0.76438 0.29156 0.38774 0.0
C1986 C 0.7481 0.28345 0.37544 0.0
C1987 C 0.73042 0.28375 0.38253 0.0
C1988 C 0.74906 0.27717 0.35443 0.0
C1989 C 0.78372 0.29021 0.38161 0.0
C1990 C 0.75814 0.29088 0.34246 0.0
C1991 C 0.75705 0.28636 0.32226 0.0
C1992 C 0.74671 0.2681 0.31357 0.0
C1993 C 0.73806 0.25408 0.32552 0.0
C1994 C 0.73917 0.25863 0.34584 0.0
H1995 H 0.79337 0.28977 0.39452 0.0
H1996 H 0.78352 0.27684 0.37123 0.0
H1997 H 0.78945 0.30362 0.37439 0.0
H1998 H 0.76537 0.30549 0.34865 0.0
H1999 H 0.7637 0.29753 0.31339 0.0
H2000 H 0.41543 0.03579 0.20995 0.0
H2001 H 0.43468 0.03913 0.18201 0.0
H2002 H 0.46704 0.09423 0.2103 0.0
H2003 H 0.44788 0.09097 0.23856 0.0
H2004 H 0.44037 0.07134 0.15818 0.0
H2005 H 0.50646 0.05958 0.19549 0.0
H2006 H 0.48398 0.05278 0.20548 0.0
H2007 H 0.49521 0.07842 0.20679 0.0
C2008 C 0.42663 0.04864 0.21029 0.0
C2009 C 0.43017 0.06309 0.22651 0.0
C2010 C 0.43759 0.05052 0.1943 0.0
C2011 C 0.45235 0.06682 0.19422 0.0
C2012 C 0.45585 0.08142 0.21024 0.0
H2013 H 0.50319 0.07988 0.08177 0.0
H2014 H 0.49249 0.08978 0.11375 0.0
C2015 C 0.44484 0.07957 0.2263 0.0
C2016 C 0.46382 0.0683 0.17713 0.0
H2017 H 0.50652 0.06284 0.16176 0.0
C2018 C 0.45493 0.0698 0.15894 0.0
C2019 C 0.48274 0.06615 0.17831 0.0
C2020 C 0.49273 0.06402 0.19751 0.0
C2021 C 0.46422 0.06837 0.14168 0.0
C2022 C 0.48303 0.06576 0.14276 0.0
C2023 C 0.49216 0.06501 0.16106 0.0
C2024 C 0.49259 0.06138 0.12489 0.0
C2025 C 0.45347 0.06852 0.12237 0.0
C2026 C 0.49714 0.04255 0.12105 0.0
C2027 C 0.50341 0.03695 0.10294 0.0
C2028 C 0.50518 0.05012 0.08842 0.0
C2029 C 0.50178 0.06942 0.09271 0.0
C2030 C 0.49561 0.07505 0.1109 0.0
H2031 H 0.43817 0.06694 0.12393 0.0
H2032 H 0.45841 0.08282 0.11628 0.0
H2033 H 0.45582 0.05631 0.11167 0.0
H2034 H 0.49493 0.03181 0.13169 0.0
H2035 H 0.50601 0.02201 0.1 0.0
H2036 H 0.77406 0.6488 0.91492 0.0
H2037 H 0.77786 0.67195 0.88989 0.0
H2038 H 0.77639 0.72061 0.93355 0.0
H2039 H 0.77226 0.69747 0.9587 0.0
H2040 H 0.75313 0.72066 0.90128 0.0
H2041 H 0.82335 0.71239 0.87872 0.0
H2042 H 0.80741 0.68902 0.87786 0.0
H2043 H 0.81425 0.70368 0.90097 0.0
C2044 C 0.77468 0.66444 0.91926 0.0
C2045 C 0.77286 0.67128 0.93882 0.0
C2046 C 0.77701 0.67769 0.90494 0.0
C2047 C 0.77776 0.69806 0.90991 0.0
C2048 C 0.776 0.70496 0.92943 0.0
H2049 H 0.80138 0.78668 0.82539 0.0
H2050 H 0.8034 0.76839 0.85429 0.0
C2051 C 0.77363 0.69171 0.94377 0.0
C2052 C 0.77913 0.7119 0.8945 0.0
H2053 H 0.80496 0.72753 0.85677 0.0
C2054 C 0.76458 0.72234 0.89171 0.0
C2055 C 0.79421 0.7143 0.88217 0.0
C2056 C 0.81079 0.70441 0.88518 0.0
C2057 C 0.76429 0.73446 0.87641 0.0
C2058 C 0.77878 0.73591 0.86338 0.0
C2059 C 0.79376 0.72619 0.86666 0.0
C2060 C 0.77807 0.74669 0.84576 0.0
C2061 C 0.74838 0.7455 0.87425 0.0
C2062 C 0.76342 0.74026 0.83128 0.0
C2063 C 0.76224 0.75063 0.81491 0.0
C2064 C 0.77579 0.76753 0.8126 0.0
C2065 C 0.79073 0.77372 0.82686 0.0
C2066 C 0.79191 0.7633 0.84331 0.0
H2067 H 0.7416 0.74741 0.88822 0.0
H2068 H 0.75331 0.76038 0.86928 0.0
H2069 H 0.73761 0.7369 0.86318 0.0
H2070 H 0.7528 0.72726 0.83272 0.0
H2071 H 0.75053 0.74553 0.80419 0.0
H2072 H 0.84824 0.1345 0.01545 0.0
H2073 H 0.86854 0.10999 0.01516 0.0
H2074 H 0.82042 0.06301 0.01631 0.0
H2075 H 0.79994 0.08743 0.01677 0.0
H2076 H 0.8509 0.06075 0.04289 0.0
H2077 H 0.87291 0.07017 0.96783 0.0
H2078 H 0.876 0.09322 0.98319 0.0
H2079 H 0.85281 0.07895 0.97698 0.0
C2080 C 0.84195 0.11897 0.01564 0.0
C2081 C 0.82247 0.1129 0.01601 0.0
C2082 C 0.85356 0.10498 0.01538 0.0
C2083 C 0.84591 0.0847 0.0154 0.0
C2084 C 0.82654 0.0786 0.01617 0.0
H2085 H 0.92314 0.00428 0.99024 0.0
H2086 H 0.89326 0.01576 0.99098 0.0
C2087 C 0.81489 0.09258 0.0164 0.0
C2088 C 0.85829 0.06998 0.01475 0.0
H2089 H 0.89169 0.05396 0.98807 0.0
C2090 C 0.85965 0.059 0.0308 0.0
C2091 C 0.86933 0.06742 -0.00124 0.0
C2092 C 0.86759 0.07791 0.98062 0.0
C2093 C 0.87266 0.04638 0.03179 0.0
C2094 C 0.8847 0.04501 0.01645 0.0
C2095 C 0.88252 0.0551 -0.0001 0.0
C2096 C 0.90092 0.03499 0.01798 0.0
C2097 C 0.87357 0.03493 0.04938 0.0
C2098 C 0.9149 0.04163 0.03314 0.0
C2099 C 0.93186 0.03507 0.03275 0.0
C2100 C 0.93519 0.02192 0.01711 0.0
C2101 C 0.92086 0.01441 0.00248 0.0
C2102 C 0.90384 0.02096 0.00289 0.0
H2103 H 0.85978 0.0319 0.05584 0.0
H2104 H 0.87805 0.02059 0.04556 0.0
H2105 H 0.88381 0.04391 0.06073 0.0
H2106 H 0.91319 0.05281 0.04467 0.0
H2107 H 0.94275 0.04117 0.04413 0.0
H2108 H 0.30159 0.44624 0.01773 0.0
H2109 H 0.33343 0.46299 0.01255 0.0
H2110 H 0.35568 0.42819 0.05367 0.0
H2111 H 0.32403 0.41117 0.05872 0.0
H2112 H 0.36117 0.48541 0.03878 0.0
H2113 H 0.38441 0.41853 0.00557 0.0
H2114 H 0.36008 0.41921 0.00869 0.0
H2115 H 0.37505 0.41514 0.02892 0.0
C2116 C 0.31326 0.44216 0.02569 0.0
C2117 C 0.31028 0.42726 0.03854 0.0
C2118 C 0.33143 0.45174 0.02269 0.0
C2119 C 0.34691 0.44653 0.03241 0.0
C2120 C 0.34395 0.43207 0.04564 0.0
H2121 H 0.46516 0.48426 0.04986 0.0
H2122 H 0.43199 0.46901 0.04923 0.0
C2123 C 0.32582 0.42246 0.04861 0.0
C2124 C 0.3662 0.45638 0.02902 0.0
H2125 H 0.40846 0.44682 0.01595 0.0
C2126 C 0.37146 0.47704 0.03355 0.0
C2127 C 0.37956 0.44541 0.02206 0.0
C2128 C 0.37447 0.42338 0.01583 0.0
C2129 C 0.38998 0.4869 0.03216 0.0
C2130 C 0.40345 0.4758 0.0259 0.0
C2131 C 0.39807 0.45525 0.02082 0.0
C2132 C 0.42347 0.48499 0.02576 0.0
C2133 C 0.3952 0.50897 0.03812 0.0
C2134 C 0.42965 0.49885 0.01259 0.0
C2135 C 0.44863 0.50758 0.0129 0.0
C2136 C 0.46163 0.50253 0.0264 0.0
C2137 C 0.45541 0.48849 0.03938 0.0
C2138 C 0.4365 0.47973 0.03901 0.0
H2139 H 0.38383 0.51479 0.0455 0.0
H2140 H 0.40809 0.51247 0.0481 0.0
H2141 H 0.39812 0.51687 0.02492 0.0
H2142 H 0.41979 0.50291 0.00211 0.0
H2143 H 0.4531 0.51841 0.00278 0.0
H2144 H 0.32871 0.57309 0.73902 0.0
H2145 H 0.31011 0.5993 0.741 0.0
H2146 H 0.35992 0.64293 0.75941 0.0
H2147 H 0.37865 0.61688 0.75758 0.0
H2148 H 0.30819 0.62747 0.77585 0.0
H2149 H 0.33445 0.66369 0.71095 0.0
H2150 H 0.33616 0.63841 0.71462 0.0
H2151 H 0.3521 0.6588 0.72806 0.0
C2152 C 0.33573 0.58827 0.74345 0.0
C2153 C 0.35518 0.59291 0.7481 0.0
C2154 C 0.32507 0.60319 0.74459 0.0
C2155 C 0.3337 0.62301 0.75016 0.0
C2156 C 0.35307 0.62771 0.75487 0.0
H2157 H 0.29505 0.72818 0.7914 0.0
H2158 H 0.30792 0.69787 0.78732 0.0
C2159 C 0.36372 0.6128 0.75389 0.0
C2160 C 0.32246 0.63881 0.75139 0.0
H2161 H 0.31626 0.68096 0.73147 0.0
C2162 C 0.30981 0.63909 0.76608 0.0
C2163 C 0.3245 0.65377 0.73845 0.0
C2164 C 0.33742 0.65368 0.722 0.0
C2165 C 0.29959 0.65442 0.7686 0.0
C2166 C 0.30221 0.66982 0.75616 0.0
C2167 C 0.31436 0.66915 0.74104 0.0
C2168 C 0.29319 0.68732 0.75916 0.0
C2169 C 0.28616 0.65408 0.7846 0.0
C2170 C 0.2807 0.69145 0.74462 0.0
C2171 C 0.27326 0.70877 0.74691 0.0
C2172 C 0.27843 0.72237 0.76368 0.0
C2173 C 0.29076 0.71801 0.77832 0.0
C2174 C 0.29806 0.70064 0.77608 0.0
H2175 H 0.28222 0.639 0.78948 0.0
H2176 H 0.29291 0.66437 0.79738 0.0
H2177 H 0.27324 0.6591 0.77963 0.0
H2178 H 0.2769 0.68139 0.73138 0.0
H2179 H 0.26393 0.71178 0.73528 0.0
H2180 H 0.22073 0.62035 0.49782 0.0
H2181 H 0.18707 0.6072 0.49593 0.0
H2182 H 0.19405 0.57588 0.54648 0.0
H2183 H 0.22781 0.5888 0.54843 0.0
H2184 H 0.1698 0.5533 0.51527 0.0
H2185 H 0.15195 0.62721 0.53532 0.0
H2186 H 0.16645 0.62625 0.51503 0.0
H2187 H 0.17537 0.62249 0.53894 0.0
C2188 C 0.21515 0.61055 0.50847 0.0
C2189 C 0.22691 0.60574 0.52339 0.0
C2190 C 0.19591 0.60316 0.50741 0.0
C2191 C 0.18811 0.5909 0.52127 0.0
C2192 C 0.19986 0.58545 0.53574 0.0
H2193 H 0.07116 0.56285 0.54622 0.0
H2194 H 0.1051 0.57426 0.54792 0.0
C2195 C 0.21912 0.59285 0.53682 0.0
C2196 C 0.16764 0.58404 0.52088 0.0
H2197 H 0.1266 0.60061 0.52516 0.0
C2198 C 0.16033 0.5636 0.51747 0.0
C2199 C 0.15542 0.59755 0.52405 0.0
C2200 C 0.16265 0.61959 0.52872 0.0
C2201 C 0.14098 0.55631 0.51675 0.0
C2202 C 0.12872 0.56989 0.51926 0.0
C2203 C 0.13607 0.59029 0.52306 0.0
C2204 C 0.10819 0.56321 0.51806 0.0
C2205 C 0.13383 0.53415 0.51356 0.0
C2206 C 0.09871 0.55359 0.50057 0.0
C2207 C 0.07935 0.54706 0.49952 0.0
C2208 C 0.0691 0.55012 0.51594 0.0
C2209 C 0.07861 0.56019 0.53332 0.0
C2210 C 0.098 0.56671 0.53434 0.0
H2211 H 0.14502 0.52572 0.51685 0.0
H2212 H 0.12204 0.52959 0.52282 0.0
H2213 H 0.12866 0.52996 0.49802 0.0
H2214 H 0.10631 0.55114 0.48772 0.0
H2215 H 0.07246 0.53947 0.48586 0.0
H2216 H 0.66149 0.94992 0.73775 0.0
H2217 H 0.6879 0.9331 0.74183 0.0
H2218 H 0.70557 0.9687 0.79673 0.0
H2219 H 0.6791 0.98566 0.79285 0.0
H2220 H 0.72854 0.95102 0.74866 0.0
H2221 H 0.69792 0.90899 0.80879 0.0
H2222 H 0.68377 0.92024 0.7925 0.0
H2223 H 0.69968 0.93554 0.81093 0.0
C2224 C 0.67098 0.95423 0.75069 0.0
C2225 C 0.66813 0.96902 0.76505 0.0
C2226 C 0.68611 0.94468 0.75294 0.0
C2227 C 0.69856 0.94966 0.7696 0.0
C2228 C 0.69599 0.96462 0.78384 0.0
H2229 H 0.77206 0.86766 0.79689 0.0
H2230 H 0.76118 0.89936 0.79939 0.0
C2231 C 0.68087 0.97425 0.78158 0.0
C2232 C 0.71368 0.93841 0.77224 0.0
H2233 H 0.72459 0.90021 0.7958 0.0
C2234 C 0.72794 0.94013 0.75918 0.0
C2235 C 0.71291 0.92445 0.78616 0.0
C2236 C 0.69775 0.92201 0.80039 0.0
C2237 C 0.74095 0.92748 0.75903 0.0
C2238 C 0.7393 0.9125 0.77195 0.0
C2239 C 0.72582 0.91171 0.78589 0.0
C2240 C 0.74935 0.89575 0.76949 0.0
C2241 C 0.75598 0.92994 0.74467 0.0
C2242 C 0.74665 0.88347 0.75175 0.0
C2243 C 0.75285 0.86546 0.75031 0.0
C2244 C 0.76166 0.85935 0.76664 0.0
C2245 C 0.7653 0.87209 0.78409 0.0
C2246 C 0.75911 0.89017 0.78553 0.0
H2247 H 0.75992 0.94571 0.74163 0.0
H2248 H 0.76871 0.92489 0.75015 0.0
H2249 H 0.75056 0.92101 0.73062 0.0
H2250 H 0.73874 0.88719 0.73934 0.0
H2251 H 0.74984 0.85586 0.7367 0.0
H2252 H 0.70876 0.94163 0.48574 0.0
H2253 H 0.6821 0.95845 0.48812 0.0
H2254 H 0.68373 0.9548 0.55039 0.0
H2255 H 0.71043 0.93801 0.54822 0.0
H2256 H 0.64731 0.94172 0.50307 0.0
H2257 H 0.68094 0.01385 0.54429 0.0
H2258 H 0.69414 -0.00234 0.53137 0.0
H2259 H 0.68553 0.992 0.55461 0.0
C2260 C 0.70359 0.94458 0.49998 0.0
C2261 C 0.7117 0.93846 0.51679 0.0
C2262 C 0.68836 0.95418 0.5013 0.0
C2263 C 0.68111 0.95802 0.51945 0.0
C2264 C 0.68934 0.95225 0.5363 0.0
H2265 H 0.57014 0.98064 0.5399 0.0
H2266 H 0.59982 0.96875 0.54115 0.0
C2267 C 0.70452 0.94255 0.535 0.0
C2268 C 0.66416 0.96689 0.52053 0.0
H2269 H 0.64777 0.00742 0.53953 0.0
C2270 C 0.6474 0.95609 0.511 0.0
C2271 C 0.66442 0.98568 0.53082 0.0
C2272 C 0.68223 -0.00189 0.54075 0.0
C2273 C 0.63077 0.96351 0.51166 0.0
C2274 C 0.63093 0.98211 0.52227 0.0
C2275 C 0.64773 0.99306 0.53159 0.0
C2276 C 0.61376 0.99056 0.52331 0.0
C2277 C 0.61319 0.95152 0.5008 0.0
C2278 C 0.61207 0.00713 0.51339 0.0
C2279 C 0.59516 0.01391 0.51263 0.0
C2280 C 0.57978 0.00428 0.52189 0.0
C2281 C 0.58178 0.98827 0.53257 0.0
C2282 C 0.59867 0.98144 0.53326 0.0
H2283 H 0.61622 0.93944 0.49033 0.0
H2284 H 0.6037 0.94465 0.51146 0.0
H2285 H 0.60569 0.96122 0.49265 0.0
H2286 H 0.62361 0.01435 0.50566 0.0
H2287 H 0.59398 0.02632 0.50435 0.0
H2288 H 0.33359 0.48535 0.74939 0.0
H2289 H 0.3165 0.45185 0.75236 0.0
H2290 H 0.33451 0.43144 0.69666 0.0
H2291 H 0.35207 0.46492 0.69373 0.0
H2292 H 0.28813 0.42776 0.72939 0.0
H2293 H 0.3512 0.39335 0.73272 0.0
H2294 H 0.35263 0.41992 0.7349 0.0
H2295 H 0.34839 0.40584 0.71127 0.0
C2296 C 0.33388 0.47379 0.7377 0.0
C2297 C 0.34432 0.47777 0.72139 0.0
C2298 C 0.32409 0.45464 0.73943 0.0
C2299 C 0.32452 0.4391 0.72491 0.0
C2300 C 0.33436 0.44314 0.70825 0.0
H2301 H 0.24919 0.32387 0.72139 0.0
H2302 H 0.26598 0.35606 0.71328 0.0
C2303 C 0.34427 0.4623 0.70654 0.0
C2304 C 0.31475 0.4187 0.72744 0.0
H2305 H 0.32186 0.37173 0.7325 0.0
C2306 C 0.29548 0.41548 0.73 0.0
C2307 C 0.32445 0.4028 0.72851 0.0
C2308 C 0.34534 0.40561 0.72689 0.0
C2309 C 0.28563 0.3968 0.73372 0.0
C2310 C 0.29525 0.3808 0.73441 0.0
C2311 C 0.31451 0.38399 0.73178 0.0
C2312 C 0.28572 0.36083 0.73862 0.0
C2313 C 0.26515 0.39455 0.73748 0.0
C2314 C 0.29172 0.35251 0.75514 0.0
C2315 C 0.28229 0.33405 0.75967 0.0
C2316 C 0.26672 0.32365 0.74774 0.0
C2317 C 0.26103 0.33172 0.73094 0.0
C2318 C 0.27054 0.35012 0.72635 0.0
H2319 H 0.26119 0.40915 0.74144 0.0
H2320 H 0.25657 0.38749 0.72402 0.0
H2321 H 0.26159 0.38498 0.74943 0.0
H2322 H 0.30347 0.3605 0.76473 0.0
H2323 H 0.28698 0.32809 0.77267 0.0
H2324 H 0.15305 0.54057 0.23769 0.0
H2325 H 0.17276 0.57355 0.23957 0.0
H2326 H 0.13831 0.59548 0.28232 0.0
H2327 H 0.11826 0.56244 0.28042 0.0
H2328 H 0.14712 0.62045 0.2527 0.0
H2329 H 0.21063 0.59893 0.28515 0.0
H2330 H 0.20084 0.58361 0.26321 0.0
H2331 H 0.18764 0.58347 0.28461 0.0
C2332 C 0.14959 0.55238 0.24749 0.0
C2333 C 0.13412 0.54885 0.259 0.0
C2334 C 0.16097 0.57119 0.24863 0.0
C2335 C 0.15721 0.5868 0.26138 0.0
C2336 C 0.14152 0.58353 0.27253 0.0
H2337 H 0.23439 0.70049 0.28933 0.0
H2338 H 0.21432 0.6681 0.29138 0.0
C2339 C 0.13008 0.56467 0.2714 0.0
C2340 C 0.16952 0.60662 0.26271 0.0
H2341 H 0.21495 0.63049 0.27236 0.0
C2342 C 0.16192 0.62271 0.25716 0.0
C2343 C 0.18875 0.60955 0.26881 0.0
C2344 C 0.19744 0.59303 0.27598 0.0
C2345 C 0.1732 0.64156 0.25686 0.0
C2346 C 0.19262 0.64422 0.26196 0.0
C2347 C 0.2001 0.62831 0.26822 0.0
C2348 C 0.20543 0.66334 0.26057 0.0
C2349 C 0.16424 0.65845 0.25113 0.0
C2350 C 0.2075 0.67104 0.24246 0.0
C2351 C 0.21892 0.6895 0.24121 0.0
C2352 C 0.22861 0.70056 0.25806 0.0
C2353 C 0.22709 0.69241 0.27608 0.0
C2354 C 0.21561 0.67393 0.2773 0.0
H2355 H 0.14893 0.65545 0.25294 0.0
H2356 H 0.17067 0.67261 0.25998 0.0
H2357 H 0.16631 0.6604 0.2355 0.0
H2358 H 0.2001 0.66285 0.2293 0.0
H2359 H 0.21988 0.69521 0.22706 0.0
H2360 H 0.49241 0.72908 0.44334 0.0
H2361 H 0.49501 0.70088 0.46184 0.0
H2362 H 0.50095 0.66547 0.40834 0.0
H2363 H 0.49786 0.69335 0.38971 0.0
H2364 H 0.47679 0.64523 0.43088 0.0
H2365 H 0.54197 0.68037 0.47562 0.0
H2366 H 0.52344 0.69413 0.47792 0.0
H2367 H 0.53354 0.69112 0.45478 0.0
C2368 C 0.4943 0.7153 0.43552 0.0
C2369 C 0.49499 0.71348 0.41506 0.0
C2370 C 0.49591 0.69924 0.44614 0.0
C2371 C 0.49853 0.68119 0.43652 0.0
C2372 C 0.49903 0.67929 0.41608 0.0
H2373 H 0.53645 0.58267 0.4846 0.0
H2374 H 0.53354 0.61298 0.46971 0.0
C2375 C 0.49725 0.69526 0.40545 0.0
C2376 C 0.5003 0.66403 0.44758 0.0
H2377 H 0.52649 0.64894 0.4838 0.0
C2378 C 0.48766 0.64603 0.44245 0.0
C2379 C 0.51465 0.66506 0.4625 0.0
C2380 C 0.52929 0.68364 0.46793 0.0
C2381 C 0.48895 0.62902 0.4518 0.0
C2382 C 0.50296 0.63018 0.46711 0.0
C2383 C 0.51564 0.64816 0.47222 0.0
C2384 C 0.50508 0.61267 0.47744 0.0
C2385 C 0.47563 0.60982 0.44477 0.0
C2386 C 0.49024 0.60277 0.48724 0.0
C2387 C 0.49179 0.58535 0.4956 0.0
C2388 C 0.50833 0.57767 0.49459 0.0
C2389 C 0.52351 0.58816 0.48562 0.0
C2390 C 0.52187 0.60549 0.47709 0.0
H2391 H 0.46935 0.61014 0.42978 0.0
H2392 H 0.48282 0.59695 0.44477 0.0
H2393 H 0.46405 0.60748 0.4547 0.0
H2394 H 0.47734 0.60835 0.48816 0.0
H2395 H 0.47992 0.57778 0.50264 0.0
H2396 H 0.561 0.24684 0.69665 0.0
H2397 H 0.59219 0.24854 0.71224 0.0
H2398 H 0.60998 0.3071 0.69416 0.0
H2399 H 0.57872 0.30561 0.67855 0.0
H2400 H 0.62627 0.25403 0.6931 0.0
H2401 H 0.62605 0.31334 0.75355 0.0
H2402 H 0.60484 0.29978 0.74024 0.0
H2403 H 0.61973 0.31913 0.72944 0.0
C2404 C 0.57147 0.26017 0.6961 0.0
C2405 C 0.56736 0.27611 0.68638 0.0
C2406 C 0.5893 0.26109 0.705 0.0
C2407 C 0.6033 0.27801 0.70449 0.0
C2408 C 0.59925 0.29404 0.69496 0.0
H2409 H 0.72282 0.28323 0.72827 0.0
H2410 H 0.69207 0.28525 0.71333 0.0
C2411 C 0.58142 0.29312 0.68599 0.0
C2412 C 0.62233 0.27844 0.71329 0.0
H2413 H 0.65443 0.30183 0.74983 0.0
C2414 C 0.63246 0.26449 0.70548 0.0
C2415 C 0.63024 0.29201 0.72952 0.0
C2416 C 0.61965 0.30684 0.73884 0.0
C2417 C 0.65038 0.26377 0.71346 0.0
C2418 C 0.65841 0.27752 0.72953 0.0
C2419 C 0.64825 0.29142 0.7374 0.0
C2420 C 0.67713 0.27722 0.73873 0.0
C2421 C 0.6604 0.24802 0.70491 0.0
C2422 C 0.67896 0.27264 0.75811 0.0
C2423 C 0.69648 0.27133 0.76655 0.0
C2424 C 0.71237 0.27458 0.7557 0.0
C2425 C 0.71064 0.27991 0.73659 0.0
C2426 C 0.69314 0.28121 0.72814 0.0
H2427 H 0.65073 0.23599 0.69559 0.0
H2428 H 0.67141 0.25491 0.69572 0.0
H2429 H 0.66729 0.24131 0.71667 0.0
H2430 H 0.66677 0.26964 0.76655 0.0
H2431 H 0.69751 0.26734 0.78139 0.0
H2432 H 0.96066 0.29728 0.92403 0.0
H2433 H 0.96378 0.33076 0.94076 0.0
H2434 H 0.01384 0.35006 0.91135 0.0
H2435 H 0.0108 0.31667 0.89443 0.0
H2436 H 0.99423 0.35355 0.96553 0.0
H2437 H 0.98004 0.39007 0.89906 0.0
H2438 H 0.97459 0.36345 0.89965 0.0
H2439 H -0.00172 0.37578 0.89741 0.0
C2440 C 0.97234 0.30863 0.9211 0.0
C2441 C 0.98542 0.30433 0.90779 0.0
C2442 C 0.9741 0.32774 0.9307 0.0
C2443 C 0.98889 0.34292 0.92708 0.0
C2444 C 0.00215 0.33862 0.91408 0.0
H2445 H 0.02664 0.45803 0.99417 0.0
H2446 H 0.02389 0.42431 0.97822 0.0
C2447 C 0.00043 0.3195 0.9045 0.0
C2448 C 0.99044 0.36324 0.93697 0.0
H2449 H 0.98963 0.41117 0.92837 0.0
C2450 C 0.99321 0.36617 0.95744 0.0
C2451 C 0.98889 0.37959 0.92635 0.0
C2452 C 0.98512 0.37714 0.90441 0.0
C2453 C 0.99473 0.3851 0.96758 0.0
C2454 C 0.99363 0.40153 0.95692 0.0
C2455 C 0.99061 0.39855 0.93647 0.0
C2456 C 0.99529 0.4219 0.96672 0.0
C2457 C -0.00281 0.38734 0.98962 0.0
C2458 C 0.98024 0.43186 0.96523 0.0
C2459 C 0.98176 0.45116 0.97426 0.0
C2460 C -0.00155 0.46095 0.98485 0.0
C2461 C 0.01357 0.45095 0.98619 0.0
C2462 C 0.012 0.43162 0.97718 0.0
H2463 H 0.99336 0.37283 0.99573 0.0
H2464 H 0.01208 0.39363 0.99427 0.0
H2465 H 0.98853 0.39765 0.996 0.0
H2466 H 0.96726 0.42463 0.95714 0.0
H2467 H 0.96986 0.4584 0.97286 0.0
H2468 H 0.96083 0.82187 0.15743 0.0
H2469 H 0.93339 0.82173 0.17638 0.0
H2470 H 0.95114 0.77913 0.21179 0.0
H2471 H 0.97888 0.77942 0.19308 0.0
H2472 H 0.90543 0.78981 0.18004 0.0
H2473 H 0.93981 0.82101 0.25294 0.0
H2474 H 0.95202 0.82248 0.23076 0.0
H2475 H 0.94815 0.79978 0.24229 0.0
C2476 C 0.959 0.81255 0.16932 0.0
C2477 C 0.97207 0.80066 0.17375 0.0
C2478 C 0.94331 0.81251 0.18016 0.0
C2479 C 0.94037 0.80065 0.19567 0.0
C2480 C 0.95336 0.78875 0.20016 0.0
H2481 H 0.84629 0.76869 0.26614 0.0
H2482 H 0.87691 0.77321 0.25215 0.0
C2483 C 0.96913 0.78881 0.18935 0.0
C2484 C 0.92314 0.79999 0.20637 0.0
H2485 H 0.90706 0.80814 0.25163 0.0
C2486 C 0.90579 0.79394 0.19567 0.0
C2487 C 0.92367 0.80532 0.22678 0.0
C2488 C 0.9419 0.81269 0.23887 0.0
C2489 C 0.88894 0.79281 0.20485 0.0
C2490 C 0.88945 0.79815 0.22523 0.0
C2491 C 0.90677 0.80413 0.23599 0.0
C2492 C 0.87203 0.79719 0.23554 0.0
C2493 C 0.87069 0.78553 0.19273 0.0
C2494 C 0.85949 0.80967 0.23133 0.0
C2495 C 0.84205 0.80714 0.23931 0.0
C2496 C 0.83693 0.79212 0.25163 0.0
C2497 C 0.84989 0.78036 0.25665 0.0
C2498 C 0.86736 0.78291 0.24869 0.0
H2499 H 0.87279 0.77806 0.17823 0.0
H2500 H 0.86092 0.77499 0.20048 0.0
H2501 H 0.86398 0.79838 0.19023 0.0
H2502 H 0.86298 0.82095 0.22141 0.0
H2503 H 0.83232 0.81646 0.23526 0.0
H2504 H 0.53048 0.34411 0.11413 0.0
H2505 H 0.53008 0.37023 0.09236 0.0
H2506 H 0.48149 0.33471 0.05952 0.0
H2507 H 0.48165 0.30852 0.0813 0.0
H2508 H 0.53165 0.3677 0.05035 0.0
H2509 H 0.46579 0.38853 0.07534 0.0
H2510 H 0.47892 0.37399 0.08914 0.0
H2511 H 0.46477 0.3627 0.06749 0.0
C2512 C 0.51969 0.34183 0.10229 0.0
C2513 C 0.50602 0.32428 0.09954 0.0
C2514 C 0.51952 0.35675 0.08984 0.0
C2515 C 0.50564 0.35447 0.07448 0.0
C2516 C 0.49215 0.33686 0.07147 0.0
H2517 H 0.48449 0.44718 0.00124 0.0
H2518 H 0.48319 0.41425 0.0127 0.0
C2519 C 0.49232 0.3219 0.0839 0.0
C2520 C 0.50527 0.37071 0.06184 0.0
H2521 H 0.48074 0.40651 0.05122 0.0
C2522 C 0.52045 0.3761 0.0504 0.0
C2523 C 0.49056 0.3815 0.06182 0.0
C2524 C 0.47411 0.37656 0.07418 0.0
C2525 C 0.52152 0.39232 0.03924 0.0
C2526 C 0.50721 0.40365 0.03988 0.0
C2527 C 0.49167 0.39777 0.05072 0.0
C2528 C 0.50894 0.42274 0.03109 0.0
C2529 C 0.53805 0.39726 0.027 0.0
C2530 C 0.52388 0.43836 0.03754 0.0
C2531 C 0.52467 0.45709 0.03105 0.0
C2532 C 0.51045 0.46068 0.01805 0.0
C2533 C 0.49573 0.44487 0.01115 0.0
C2534 C 0.49493 0.42607 0.01772 0.0
H2535 H 0.54403 0.38389 0.02282 0.0
H2536 H 0.5341 0.40363 0.01349 0.0
H2537 H 0.54916 0.40835 0.03564 0.0
H2538 H 0.53461 0.43628 0.0482 0.0
H2539 H 0.5362 0.4689 0.03671 0.0
H2540 H 0.94568 0.2413 0.37819 0.0
H2541 H 0.91685 0.25085 0.36605 0.0
H2542 H 0.94924 0.29763 0.33743 0.0
H2543 H 0.97814 0.28815 0.34936 0.0
H2544 H 0.90756 0.28953 0.37405 0.0
H2545 H 0.90963 0.2679 0.29442 0.0
H2546 H 0.92326 0.2585 0.31277 0.0
H2547 H 0.9306 0.28329 0.30621 0.0
C2548 C 0.94669 0.25343 0.36907 0.0
C2549 C 0.96422 0.26393 0.36472 0.0
C2550 C 0.9302 0.25892 0.36224 0.0
C2551 C 0.93095 0.27487 0.35079 0.0
C2552 C 0.94838 0.28512 0.34605 0.0
H2553 H 0.84075 0.32041 0.29329 0.0
H2554 H 0.8716 0.31876 0.30824 0.0
C2555 C 0.96487 0.27968 0.35291 0.0
C2556 C 0.9135 0.28124 0.34443 0.0
H2557 H 0.88559 0.28455 0.30405 0.0
C2558 C 0.90274 0.28849 0.35875 0.0
C2559 C 0.90739 0.28002 0.32446 0.0
C2560 C 0.9182 0.27187 0.30853 0.0
C2561 C 0.88591 0.29447 0.35362 0.0
C2562 C 0.87956 0.2928 0.33367 0.0
C2563 C 0.89054 0.28593 0.31934 0.0
C2564 C 0.86092 0.29654 0.3273 0.0
C2565 C 0.87516 0.30261 0.3696 0.0
C2566 C 0.84468 0.28502 0.33347 0.0
C2567 C 0.8271 0.28602 0.32504 0.0
C2568 C 0.82548 0.29841 0.31016 0.0
C2569 C 0.84161 0.3108 0.3048 0.0
C2570 C 0.85923 0.3098 0.31325 0.0
H2571 H 0.8845 0.30897 0.3828 0.0
H2572 H 0.86793 0.31428 0.36457 0.0
H2573 H 0.86444 0.29037 0.37393 0.0
H2574 H 0.84564 0.2744 0.34398 0.0
H2575 H 0.81489 0.27624 0.32939 0.0
H2576 H 0.97107 0.73205 0.56145 0.0
H2577 H 0.97251 0.69899 0.54582 0.0
H2578 H 0.99527 0.68365 0.60017 0.0
H2579 H 0.99417 0.7166 0.6158 0.0
H2580 H 0.01607 0.67637 0.56904 0.0
H2581 H 0.94077 0.64414 0.55108 0.0
H2582 H 0.94851 0.66798 0.54245 0.0
H2583 H 0.94867 0.66588 0.56829 0.0
C2584 C 0.97613 0.72153 0.57014 0.0
C2585 C 0.98257 0.72697 0.58984 0.0
C2586 C 0.97686 0.70262 0.56121 0.0
C2587 C 0.98385 0.68883 0.5719 0.0
C2588 C 0.98981 0.69407 0.59168 0.0
H2589 H 0.98359 0.56411 0.53864 0.0
H2590 H 0.97868 0.59596 0.55435 0.0
C2591 C 0.98916 0.71293 0.60058 0.0
C2592 C 0.98625 0.66944 0.56227 0.0
H2593 H 0.96266 0.62589 0.53775 0.0
C2594 C 0.00439 0.66531 0.56223 0.0
C2595 C 0.97095 0.655 0.55358 0.0
C2596 C 0.95109 0.65833 0.55396 0.0
C2597 C 0.00769 0.64717 0.55359 0.0
C2598 C 0.99248 0.63295 0.54444 0.0
C2599 C 0.9743 0.63695 0.54465 0.0
C2600 C 0.99521 0.61374 0.53472 0.0
C2601 C 0.02739 0.64324 0.55462 0.0
C2602 C 0.00596 0.61325 0.5184 0.0
C2603 C 0.00889 0.59512 0.50951 0.0
C2604 C 0.00104 0.57724 0.51678 0.0
C2605 C 0.99 0.57773 0.53292 0.0
C2606 C 0.98709 0.59586 0.54181 0.0
H2607 H 0.03653 0.65343 0.56613 0.0
H2608 H 0.02748 0.62767 0.5576 0.0
H2609 H 0.03351 0.64556 0.54037 0.0
H2610 H 0.01209 0.62689 0.51254 0.0
H2611 H 0.01736 0.59512 0.49702 0.0
H2612 H 0.56273 0.77939 0.84197 0.0
H2613 H 0.58898 0.78061 0.82099 0.0
H2614 H 0.62019 0.75705 0.86512 0.0
H2615 H 0.59419 0.75606 0.8863 0.0
H2616 H 0.64046 0.79018 0.85101 0.0
H2617 H 0.60655 0.73467 0.78998 0.0
H2618 H 0.59415 0.75438 0.79604 0.0
H2619 H 0.59674 0.73699 0.81346 0.0
C2620 C 0.57513 0.77433 0.84716 0.0
C2621 C 0.57637 0.76762 0.86581 0.0
C2622 C 0.59007 0.77494 0.8351 0.0
C2623 C 0.60643 0.76869 0.84141 0.0
C2624 C 0.60765 0.76188 0.85996 0.0
H2625 H 0.70035 0.74155 0.78133 0.0
H2626 H 0.6709 0.74116 0.79681 0.0
C2627 C 0.59277 0.76132 0.87203 0.0
C2628 C 0.62265 0.77 0.82913 0.0
H2629 H 0.63701 0.7523 0.78563 0.0
C2630 C 0.63971 0.78194 0.83669 0.0
C2631 C 0.62162 0.75911 0.81053 0.0
C2632 C 0.60384 0.74542 0.80203 0.0
C2633 C 0.65584 0.78322 0.82623 0.0
C2634 C 0.65477 0.77254 0.80751 0.0
C2635 C 0.6377 0.76064 0.79989 0.0
C2636 C 0.67155 0.77265 0.79623 0.0
C2637 C 0.67402 0.79547 0.83558 0.0
C2638 C 0.68137 0.79038 0.7902 0.0
C2639 C 0.69829 0.7907 0.78141 0.0
C2640 C 0.70561 0.77324 0.77838 0.0
C2641 C 0.6952 0.7553 0.78351 0.0
C2642 C 0.67833 0.75502 0.79235 0.0
H2643 H 0.67335 0.799 0.85158 0.0
H2644 H 0.68579 0.78758 0.83313 0.0
H2645 H 0.6771 0.80971 0.82891 0.0
H2646 H 0.67616 0.80407 0.79273 0.0
H2647 H 0.70583 0.80474 0.77748 0.0
H2648 H 0.39955 0.52607 0.68144 0.0
H2649 H 0.41831 0.52646 0.65298 0.0
H2650 H 0.45441 0.58048 0.67893 0.0
H2651 H 0.43598 0.57995 0.70771 0.0
H2652 H 0.42581 0.55408 0.62682 0.0
H2653 H 0.49168 0.54509 0.66618 0.0
H2654 H 0.46949 0.54139 0.67716 0.0
H2655 H 0.48243 0.56612 0.67576 0.0
C2656 C 0.41151 0.53803 0.68114 0.0
C2657 C 0.41636 0.55291 0.69692 0.0
C2658 C 0.42219 0.53824 0.66484 0.0
C2659 C 0.43792 0.55332 0.66396 0.0
C2660 C 0.44258 0.56844 0.6795 0.0
H2661 H 0.51839 0.56851 0.57317 0.0
H2662 H 0.50015 0.57492 0.60136 0.0
C2663 C 0.43198 0.56817 0.69589 0.0
C2664 C 0.44934 0.55313 0.64672 0.0
H2665 H 0.49303 0.54984 0.63267 0.0
C2666 C 0.44052 0.55321 0.6281 0.0
C2667 C 0.46854 0.55202 0.64843 0.0
C2668 C 0.47859 0.55096 0.66792 0.0
C2669 C 0.45035 0.55204 0.61115 0.0
C2670 C 0.46945 0.55063 0.61287 0.0
C2671 C 0.4784 0.55104 0.63147 0.0
C2672 C 0.48006 0.5473 0.5955 0.0
C2673 C 0.44023 0.55225 0.5915 0.0
C2674 C 0.47489 0.52958 0.5831 0.0
C2675 C 0.48531 0.52584 0.56721 0.0
C2676 C 0.50105 0.5398 0.56336 0.0
C2677 C 0.50625 0.55756 0.57578 0.0
C2678 C 0.49587 0.56124 0.59182 0.0
H2679 H 0.4274 0.55866 0.59294 0.0
H2680 H 0.44946 0.5609 0.58167 0.0
H2681 H 0.43597 0.53678 0.58449 0.0
H2682 H 0.46297 0.51846 0.58594 0.0
H2683 H 0.48114 0.5119 0.55805 0.0
H2684 H 0.79027 0.19501 0.9824 0.0
H2685 H 0.79471 0.21816 0.95732 0.0
H2686 H 0.79936 0.17004 0.91431 0.0
H2687 H 0.79518 0.14678 0.93931 0.0
H2688 H 0.82556 0.20673 0.91177 0.0
H2689 H 0.75172 0.21693 0.91545 0.0
H2690 H 0.76598 0.22197 0.93807 0.0
H2691 H 0.76017 0.19706 0.92624 0.0
C2692 C 0.7924 0.18936 0.96764 0.0
C2693 C 0.79212 0.169 0.96276 0.0
C2694 C 0.79492 0.20262 0.95335 0.0
C2695 C 0.79708 0.19572 0.93396 0.0
C2696 C 0.79767 0.17561 0.92923 0.0
H2697 H 0.7931 0.22482 0.81797 0.0
H2698 H 0.80097 0.21348 0.84929 0.0
C2699 C 0.7952 0.16234 0.94351 0.0
C2700 C 0.79742 0.20907 0.91828 0.0
H2701 H 0.76939 0.23328 0.89219 0.0
C2702 C 0.81338 0.21275 0.90758 0.0
C2703 C 0.78151 0.21695 0.91297 0.0
C2704 C 0.7638 0.21297 0.92364 0.0
C2705 C 0.81368 0.22375 0.89134 0.0
C2706 C 0.79747 0.23086 0.88552 0.0
C2707 C 0.78183 0.22789 0.89674 0.0
C2708 C 0.79549 0.23935 0.86669 0.0
C2709 C 0.83127 0.22741 0.88046 0.0
C2710 C 0.78968 0.25764 0.86601 0.0
C2711 C 0.78498 0.26407 0.84803 0.0
C2712 C 0.78592 0.25221 0.83056 0.0
C2713 C 0.79236 0.23429 0.83125 0.0
C2714 C 0.79703 0.22788 0.84915 0.0
H2715 H 0.84388 0.22766 0.89031 0.0
H2716 H 0.8306 0.21515 0.86864 0.0
H2717 H 0.8329 0.24166 0.87375 0.0
H2718 H 0.78823 0.26662 0.87941 0.0
H2719 H 0.78002 0.27794 0.84785 0.0
H2720 H 0.05936 0.50132 0.20719 0.0
H2721 H 0.04216 0.49559 0.17532 0.0
H2722 H 0.0725 0.4495 0.15772 0.0
H2723 H 0.09026 0.45558 0.18957 0.0
H2724 H 0.07273 0.47442 0.13083 0.0
H2725 H 5e-05 0.45324 0.15094 0.0
H2726 H 0.01103 0.47602 0.16494 0.0
H2727 H 0.01984 0.45358 0.16792 0.0
C2728 C 0.06222 0.48976 0.19667 0.0
C2729 C 0.07619 0.47893 0.20089 0.0
C2730 C 0.05222 0.48636 0.17849 0.0
C2731 C 0.05574 0.47181 0.16427 0.0
C2732 C 0.06944 0.46067 0.16856 0.0
H2733 H 0.98604 0.46767 0.05503 0.0
H2734 H 0.00084 0.45498 0.08286 0.0
C2735 C 0.07959 0.46419 0.18673 0.0
C2736 C 0.04641 0.46987 0.14439 0.0
H2737 H 0.00407 0.46935 0.12074 0.0
C2738 C 0.05767 0.47283 0.12854 0.0
C2739 C 0.02674 0.46725 0.14121 0.0
C2740 C 0.01375 0.46211 0.15716 0.0
C2741 C 0.04989 0.47499 0.11 0.0
C2742 C 0.03047 0.47473 0.10746 0.0
C2743 C 0.01903 0.46999 0.12282 0.0
C2744 C 0.02215 0.48153 0.08987 0.0
C2745 C 0.06263 0.47808 0.09347 0.0
C2746 C 0.02905 0.50072 0.08484 0.0
C2747 C 0.02067 0.50792 0.06908 0.0
C2748 C 0.00512 0.49614 0.05818 0.0
C2749 C -0.00194 0.477 0.06325 0.0
C2750 C 0.00652 0.46973 0.07904 0.0
H2751 H 0.0749 0.47084 0.09553 0.0
H2752 H 0.05511 0.47207 0.07912 0.0
H2753 H 0.06802 0.49422 0.09316 0.0
H2754 H 0.04069 0.51033 0.09338 0.0
H2755 H 0.02623 0.52284 0.06562 0.0
H2756 H 0.75623 0.83037 0.48814 0.0
H2757 H 0.75685 0.815 0.45472 0.0
H2758 H 0.74757 0.86901 0.43201 0.0
H2759 H 0.74629 0.8842 0.4652 0.0
H2760 H 0.72683 0.83744 0.4113 0.0
H2761 H 0.79991 0.8258 0.42033 0.0
H2762 H 0.78486 0.81379 0.43734 0.0
H2763 H 0.78978 0.84049 0.43837 0.0
C2764 C 0.75423 0.83892 0.47601 0.0
C2765 C 0.75132 0.85854 0.47934 0.0
C2766 C 0.75475 0.83018 0.45693 0.0
C2767 C 0.7527 0.84101 0.44087 0.0
C2768 C 0.7493 0.8604 0.44416 0.0
H2769 H 0.78501 0.81576 0.32287 0.0
H2770 H 0.783 0.82873 0.35687 0.0
C2771 C 0.74856 0.86906 0.46318 0.0
C2772 C 0.75401 0.83228 0.42057 0.0
H2773 H 0.78279 0.81186 0.3905 0.0
C2774 C 0.73908 0.83186 0.40674 0.0
C2775 C 0.77014 0.82531 0.41456 0.0
C2776 C 0.78717 0.82653 0.42837 0.0
C2777 C 0.73977 0.82464 0.38712 0.0
C2778 C 0.7556 0.81702 0.38126 0.0
C2779 C 0.77058 0.81752 0.39505 0.0
C2780 C 0.75702 0.80879 0.36081 0.0
C2781 C 0.72373 0.8258 0.37278 0.0
C2782 C 0.7433 0.79302 0.35186 0.0
C2783 C 0.74429 0.78578 0.3324 0.0
C2784 C 0.75922 0.7939 0.3216 0.0
C2785 C 0.77331 0.80922 0.33078 0.0
C2786 C 0.77218 0.81664 0.35021 0.0
H2787 H 0.71573 0.83721 0.37819 0.0
H2788 H 0.72877 0.82938 0.35832 0.0
H2789 H 0.71393 0.81123 0.37075 0.0
H2790 H 0.73179 0.78632 0.35992 0.0
H2791 H 0.73336 0.77375 0.32585 0.0
H2792 H 0.40951 0.48948 0.7743 0.0
H2793 H 0.42199 0.48354 0.80639 0.0
H2794 H 0.4155 0.54186 0.82999 0.0
H2795 H 0.40302 0.54803 0.79787 0.0
H2796 H 0.45078 0.53149 0.84035 0.0
H2797 H 0.39031 0.47332 0.85431 0.0
H2798 H 0.40041 0.46936 0.83132 0.0
H2799 H 0.38906 0.49019 0.83586 0.0
C2800 C 0.4108 0.50111 0.78627 0.0
C2801 C 0.40519 0.51921 0.78354 0.0
C2802 C 0.41781 0.49762 0.80463 0.0
C2803 C 0.41934 0.51213 0.8206 0.0
C2804 C 0.41427 0.53042 0.81784 0.0
H2805 H 0.44066 0.50715 0.94473 0.0
H2806 H 0.42627 0.50844 0.91199 0.0
C2807 C 0.40718 0.53392 0.79949 0.0
C2808 C 0.42644 0.5083 0.84014 0.0
H2809 H 0.4167 0.47881 0.87714 0.0
C2810 C 0.44335 0.51998 0.84841 0.0
C2811 C 0.41658 0.49338 0.85065 0.0
C2812 C 0.398 0.48091 0.84271 0.0
C2813 C 0.45081 0.51699 0.86685 0.0
C2814 C 0.44117 0.50179 0.87717 0.0
C2815 C 0.42413 0.49028 0.86905 0.0
C2816 C 0.44845 0.49819 0.89671 0.0
C2817 C 0.46882 0.5303 0.8753 0.0
C2818 C 0.46523 0.49119 0.89885 0.0
C2819 C 0.47341 0.49035 0.91749 0.0
C2820 C 0.46491 0.49652 0.93423 0.0
C2821 C 0.44749 0.50231 0.93205 0.0
C2822 C 0.43929 0.50309 0.91339 0.0
H2823 H 0.4725 0.54366 0.86731 0.0
H2824 H 0.46779 0.5352 0.89097 0.0
H2825 H 0.48039 0.5219 0.87433 0.0
H2826 H 0.47236 0.4871 0.88611 0.0
H2827 H 0.48683 0.4858 0.91876 0.0
H2828 H 0.80971 0.20705 0.0612 0.0
H2829 H 0.80763 0.22578 0.09273 0.0
H2830 H 0.75846 0.18344 0.10326 0.0
H2831 H 0.76058 0.16443 0.07201 0.0
H2832 H 0.77861 0.24347 0.10583 0.0
H2833 H 0.79197 0.18558 0.15292 0.0
H2834 H 0.79649 0.18443 0.12733 0.0
H2835 H 0.77306 0.17702 0.13462 0.0
C2836 C 0.79851 0.20166 0.07028 0.0
C2837 C 0.78538 0.18418 0.06417 0.0
C2838 C 0.79734 0.2124 0.08825 0.0
C2839 C 0.78307 0.20581 0.10042 0.0
C2840 C 0.76982 0.18852 0.09427 0.0
H2841 H 0.75014 0.24796 0.21299 0.0
H2842 H 0.75086 0.23193 0.17991 0.0
C2843 C 0.77102 0.17773 0.07636 0.0
C2844 C 0.78182 0.2172 0.11942 0.0
H2845 H 0.78156 0.21339 0.16851 0.0
C2846 C 0.77936 0.23696 0.11956 0.0
C2847 C 0.78283 0.20863 0.13727 0.0
C2848 C 0.78641 0.18781 0.13812 0.0
C2849 C 0.77749 0.24828 0.13711 0.0
C2850 C 0.77827 0.2396 0.15489 0.0
C2851 C 0.78082 0.2199 0.15477 0.0
C2852 C 0.77681 0.25074 0.17392 0.0
C2853 C 0.77437 0.26927 0.13652 0.0
C2854 C 0.79106 0.2667 0.18137 0.0
C2855 C 0.7906 0.27589 0.20024 0.0
C2856 C 0.77585 0.26927 0.21186 0.0
C2857 C 0.76138 0.25364 0.20418 0.0
C2858 C 0.76188 0.24438 0.18537 0.0
H2859 H 0.77015 0.27228 0.12151 0.0
H2860 H 0.76343 0.27225 0.14644 0.0
H2861 H 0.78756 0.27982 0.14158 0.0
H2862 H 0.80286 0.27158 0.17286 0.0
H2863 H 0.80202 0.28782 0.20592 0.0
H2864 H 0.11271 0.49611 0.32646 0.0
H2865 H 0.09061 0.49259 0.35197 0.0
H2866 H 0.04728 0.46045 0.30974 0.0
H2867 H 0.0692 0.46445 0.28395 0.0
H2868 H 0.03471 0.48818 0.3312 0.0
H2869 H 0.07011 0.4462 0.38083 0.0
H2870 H 0.08598 0.46806 0.37576 0.0
H2871 H 0.07677 0.44898 0.35617 0.0
C2872 C 0.09854 0.48809 0.32263 0.0
C2873 C 0.0927 0.48054 0.3032 0.0
C2874 C 0.08596 0.48594 0.33726 0.0
C2875 C 0.0674 0.47587 0.33285 0.0
C2876 C 0.06158 0.46812 0.31349 0.0
H2877 H 0.00608 0.4694 0.43903 0.0
H2878 H 0.01551 0.45739 0.40712 0.0
C2879 C 0.07412 0.47044 0.29879 0.0
C2880 C 0.05382 0.47491 0.34822 0.0
H2881 H 0.0494 0.46617 0.39587 0.0
C2882 C 0.0377 0.48297 0.34521 0.0
C2883 C 0.05736 0.46758 0.3663 0.0
C2884 C 0.0734 0.45701 0.36985 0.0
C2885 C 0.02589 0.48538 0.36035 0.0
C2886 C 0.03065 0.48011 0.37909 0.0
C2887 C 0.04588 0.47054 0.3816 0.0
C2888 C 0.02162 0.48654 0.39674 0.0
C2889 C 0.00868 0.49396 0.35618 0.0
C2890 C 0.02157 0.50682 0.40135 0.0
C2891 C 0.01602 0.51364 0.4194 0.0
C2892 C 0.01074 0.50034 0.43331 0.0
C2893 C 0.01002 0.47993 0.42848 0.0
C2894 C 0.01543 0.47308 0.4103 0.0
H2895 H 0.00298 0.48955 0.3408 0.0
H2896 H -0.00246 0.48906 0.36609 0.0
H2897 H 0.01251 0.51043 0.35814 0.0
H2898 H 0.02681 0.5176 0.39144 0.0
H2899 H 0.01683 0.52946 0.42284 0.0
H2900 H 0.71016 0.84593 0.5658 0.0
H2901 H 0.71026 0.82928 0.59581 0.0
H2902 H 0.76533 0.86331 0.61373 0.0
H2903 H 0.7654 0.88003 0.58387 0.0
H2904 H 0.73777 0.80686 0.60897 0.0
H2905 H 0.73351 0.87197 0.6613 0.0
H2906 H 0.72724 0.87091 0.63543 0.0
H2907 H 0.75143 0.87625 0.64431 0.0
C2908 C 0.72228 0.8499 0.57614 0.0
C2909 C 0.73774 0.86436 0.57247 0.0
C2910 C 0.7223 0.84038 0.59326 0.0
C2911 C 0.73768 0.8453 0.60707 0.0
C2912 C 0.75319 0.85957 0.60339 0.0
H2913 H 0.77227 0.80769 0.7168 0.0
H2914 H 0.76816 0.82466 0.68758 0.0
C2915 C 0.75324 0.86901 0.58625 0.0
C2916 C 0.73782 0.83514 0.62511 0.0
H2917 H 0.74009 0.84334 0.67492 0.0
C2918 C 0.7381 0.81475 0.62341 0.0
C2919 C 0.73833 0.84556 0.64386 0.0
C2920 C 0.73746 0.86736 0.64644 0.0
C2921 C 0.73948 0.80457 0.64004 0.0
C2922 C 0.74013 0.81501 0.65884 0.0
C2923 C 0.73958 0.83537 0.6605 0.0
C2924 C 0.74201 0.80522 0.67696 0.0
C2925 C 0.74092 0.78291 0.63732 0.0
C2926 C 0.72844 0.78897 0.68091 0.0
C2927 C 0.73081 0.77921 0.69755 0.0
C2928 C 0.74667 0.7857 0.7106 0.0
C2929 C 0.75991 0.80238 0.70698 0.0
C2930 C 0.75758 0.81207 0.6903 0.0
H2931 H 0.74503 0.77857 0.62245 0.0
H2932 H 0.75127 0.77952 0.64827 0.0
H2933 H 0.72708 0.77362 0.63927 0.0
H2934 H 0.7161 0.78374 0.67106 0.0
H2935 H 0.72031 0.7665 0.70012 0.0
H2936 H 0.70372 0.43691 0.47826 0.0
H2937 H 0.68142 0.45926 0.47607 0.0
H2938 H 0.68654 0.47195 0.53888 0.0
H2939 H 0.70912 0.45005 0.54117 0.0
H2940 H 0.64793 0.45483 0.49141 0.0
H2941 H 0.69077 0.52716 0.52202 0.0
H2942 H 0.70099 0.50597 0.51448 0.0
H2943 H 0.69151 0.50815 0.53808 0.0
C2944 C 0.70026 0.44464 0.49159 0.0
C2945 C 0.70818 0.4417 0.50989 0.0
C2946 C 0.68756 0.45744 0.4903 0.0
C2947 C 0.68258 0.46756 0.50727 0.0
C2948 C 0.69057 0.46475 0.52554 0.0
H2949 H 0.59301 0.52157 0.54384 0.0
H2950 H 0.62252 0.50991 0.54025 0.0
C2951 C 0.70335 0.45206 0.52684 0.0
C2952 C 0.66778 0.47959 0.50609 0.0
H2953 H 0.6573 0.52465 0.52122 0.0
C2954 C 0.65007 0.47021 0.4976 0.0
C2955 C 0.6706 0.49965 0.5142 0.0
C2956 C 0.68956 0.51088 0.52253 0.0
C2957 C 0.63488 0.48003 0.49781 0.0
C2958 C 0.63755 0.49984 0.50654 0.0
C2959 C 0.65535 0.50946 0.51453 0.0
C2960 C 0.62159 0.51009 0.50879 0.0
C2961 C 0.61588 0.46885 0.48947 0.0
C2962 C 0.61176 0.51476 0.49235 0.0
C2963 C 0.59492 0.52143 0.49436 0.0
C2964 C 0.58775 0.5235 0.51285 0.0
C2965 C 0.59824 0.52005 0.52943 0.0
C2966 C 0.61508 0.51343 0.52741 0.0
H2967 H 0.61558 0.45269 0.48621 0.0
H2968 H 0.605 0.47086 0.49981 0.0
H2969 H 0.61215 0.47481 0.47566 0.0
H2970 H 0.6167 0.51243 0.47789 0.0
H2971 H 0.58708 0.524 0.48135 0.0
H2972 H 0.21654 0.09748 0.47583 0.0
H2973 H 0.18551 0.07582 0.47149 0.0
H2974 H 0.16328 0.11848 0.50856 0.0
H2975 H 0.19399 0.14023 0.5128 0.0
H2976 H 0.16327 0.05904 0.50053 0.0
H2977 H 0.12724 0.10832 0.45954 0.0
H2978 H 0.15243 0.11169 0.46252 0.0
H2979 H 0.1395 0.12072 0.48184 0.0
C2980 C 0.205 0.1023 0.48293 0.0
C2981 C 0.20771 0.12063 0.49458 0.0
C2982 C 0.18732 0.08989 0.48047 0.0
C2983 C 0.17208 0.0957 0.48947 0.0
C2984 C 0.17478 0.11391 0.50116 0.0
H2985 H 0.05921 0.05461 0.51218 0.0
H2986 H 0.09222 0.06991 0.51158 0.0
C2987 C 0.19239 0.12629 0.50363 0.0
C2988 C 0.15337 0.08263 0.48721 0.0
H2989 H 0.10758 0.08239 0.47406 0.0
C2990 C 0.15111 0.06395 0.49446 0.0
C2991 C 0.13758 0.08907 0.47917 0.0
C2992 C 0.1393 0.10846 0.47014 0.0
C2993 C 0.13327 0.05201 0.4948 0.0
C2994 C 0.11745 0.05895 0.48764 0.0
C2995 C 0.11979 0.07723 0.47969 0.0
C2996 C 0.09817 0.04816 0.48929 0.0
C2997 C 0.13128 0.03248 0.50356 0.0
C2998 C 0.09075 0.03066 0.47716 0.0
C2999 C 0.07183 0.02186 0.47745 0.0
C3000 C 0.06018 0.03053 0.48984 0.0
C3001 C 0.06788 0.04761 0.50248 0.0
C3002 C 0.0867 0.05639 0.50215 0.0
H3003 H 0.14478 0.03013 0.51025 0.0
H3004 H 0.12092 0.03183 0.5149 0.0
H3005 H 0.12597 0.02011 0.49199 0.0
H3006 H 0.09941 0.02423 0.46703 0.0
H3007 H 0.06621 0.00871 0.46756 0.0
H3008 H 0.1876 0.97428 0.81935 0.0
H3009 H 0.20679 0.94867 0.81635 0.0
H3010 H 0.19007 0.93676 0.75476 0.0
H3011 H 0.17094 0.96235 0.75755 0.0
H3012 H 0.19329 0.90827 0.80357 0.0
H3013 H 0.24748 0.94223 0.75645 0.0
H3014 H 0.23286 0.95647 0.7698 0.0
H3015 H 0.2239 0.9418 0.7472 0.0
C3016 C 0.18813 0.96635 0.80512 0.0
C3017 C 0.17773 0.97035 0.78869 0.0
C3018 C 0.19912 0.95174 0.80345 0.0
C3019 C 0.20006 0.94105 0.78529 0.0
C3020 C 0.18984 0.94513 0.76883 0.0
H3021 H 0.22196 0.82598 0.75281 0.0
H3022 H 0.21055 0.85702 0.75783 0.0
C3023 C 0.17879 0.95966 0.7705 0.0
C3024 C 0.2106 0.92463 0.78375 0.0
H3025 H 0.24511 0.90747 0.75953 0.0
C3026 C 0.20478 0.9082 0.79414 0.0
C3027 C 0.22566 0.92466 0.77154 0.0
C3028 C 0.233 0.94231 0.76074 0.0
C3029 C 0.21311 0.89143 0.79201 0.0
C3030 C 0.22755 0.89108 0.7791 0.0
C3031 C 0.23392 0.9078 0.76931 0.0
C3032 C 0.23538 0.87298 0.77489 0.0
C3033 C 0.20622 0.87399 0.80329 0.0
C3034 C 0.25335 0.87192 0.78243 0.0
C3035 C 0.25998 0.85411 0.77966 0.0
C3036 C 0.24873 0.83716 0.76919 0.0
C3037 C 0.23101 0.83865 0.76102 0.0
C3038 C 0.22441 0.85637 0.76388 0.0
H3039 H 0.19771 0.87806 0.81542 0.0
H3040 H 0.19739 0.86194 0.79325 0.0
H3041 H 0.21818 0.86805 0.80944 0.0
H3042 H 0.26201 0.88467 0.79093 0.0
H3043 H 0.2737 0.85351 0.78612 0.0
H3044 H 0.29665 0.94543 0.05311 0.0
H3045 H 0.32964 0.96153 0.05333 0.0
H3046 H 0.33325 0.93136 0.99633 0.0
H3047 H 0.3005 0.91503 0.99605 0.0
H3048 H 0.3626 0.92921 0.02357 0.0
H3049 H 0.3516 0.00682 0.02105 0.0
H3050 H 0.34096 0.9938 0.04037 0.0
H3051 H 0.33288 0.98552 0.01538 0.0
C3052 C 0.30446 0.94226 0.04061 0.0
C3053 C 0.29595 0.92899 0.02454 0.0
C3054 C 0.32326 0.95155 0.04072 0.0
C3055 C 0.33376 0.94781 0.02474 0.0
C3056 C 0.32533 0.93448 0.00878 0.0
H3057 H 0.44381 0.98218 0.98527 0.0
H3058 H 0.41124 0.96787 0.98987 0.0
C3059 C 0.30661 0.92518 0.00865 0.0
C3060 C 0.35367 0.95736 0.02463 0.0
H3061 H 0.38287 0.00209 0.02302 0.0
C3062 C 0.36705 0.94514 0.02351 0.0
C3063 C 0.35939 0.97816 0.02464 0.0
C3064 C 0.34549 0.99189 0.02528 0.0
C3065 C 0.38604 0.95316 0.02221 0.0
C3066 C 0.39169 0.97389 0.02171 0.0
C3067 C 0.37841 0.98619 0.02334 0.0
C3068 C 0.41127 0.98297 0.01885 0.0
C3069 C 0.39991 0.93939 0.02142 0.0
C3070 C 0.42185 0.99661 0.03343 0.0
C3071 C 0.44047 0.00489 0.03084 0.0
C3072 C 0.44875 -0.00025 0.01355 0.0
C3073 C 0.43792 0.98639 -0.0012 0.0
C3074 C 0.41934 0.97811 0.00143 0.0
H3075 H 0.39422 0.925 0.02706 0.0
H3076 H 0.40317 0.93622 0.00601 0.0
H3077 H 0.41317 0.94632 0.03005 0.0
H3078 H 0.41578 0.00062 0.04692 0.0
H3079 H 0.44838 0.0152 0.04246 0.0
H3080 H 0.87683 0.61754 0.77574 0.0
H3081 H 0.851 0.63473 0.76972 0.0
H3082 H 0.81385 0.5785 0.75289 0.0
H3083 H 0.83955 0.5611 0.75923 0.0
H3084 H 0.82916 0.63378 0.73505 0.0
H3085 H 0.78607 0.60534 0.79475 0.0
H3086 H 0.81027 0.60311 0.79351 0.0
H3087 H 0.79251 0.58703 0.77744 0.0
C3088 C 0.86317 0.60881 0.7708 0.0
C3089 C 0.8602 0.58798 0.76808 0.0
C3090 C 0.84844 0.61865 0.76733 0.0
C3091 C 0.83051 0.60785 0.76107 0.0
C3092 C 0.82752 0.58706 0.75805 0.0
H3093 H 0.75345 0.68551 0.72781 0.0
H3094 H 0.76596 0.65471 0.72628 0.0
C3095 C 0.84224 0.57718 0.76162 0.0
C3096 C 0.81512 0.61862 0.75772 0.0
H3097 H 0.77521 0.62878 0.77672 0.0
C3098 C 0.81718 0.63252 0.74391 0.0
C3099 C 0.79955 0.61681 0.76935 0.0
C3100 C 0.79692 0.60238 0.78471 0.0
C3101 C 0.80468 0.64553 0.74218 0.0
C3102 C 0.78946 0.64423 0.75431 0.0
C3103 C 0.7868 0.62956 0.76735 0.0
C3104 C 0.77828 0.66004 0.75603 0.0
C3105 C 0.80865 0.66145 0.72839 0.0
C3106 C 0.78007 0.67245 0.77361 0.0
C3107 C 0.77283 0.68982 0.77456 0.0
C3108 C 0.76372 0.69504 0.75793 0.0
C3109 C 0.76057 0.68183 0.74078 0.0
C3110 C 0.76776 0.66433 0.73986 0.0
H3111 H 0.82261 0.66225 0.72239 0.0
H3112 H 0.7979 0.6582 0.71593 0.0
H3113 H 0.80802 0.67624 0.73594 0.0
H3114 H 0.78808 0.66935 0.78627 0.0
H3115 H 0.7753 0.69969 0.78801 0.0
H3116 H 0.8355 0.63957 0.01053 0.0
H3117 H 0.85874 0.61837 0.00724 0.0
H3118 H 0.81889 0.57426 0.97055 0.0
H3119 H 0.79534 0.59522 0.97415 0.0
H3120 H 0.83676 0.55762 -0.00221 0.0
H3121 H 0.88881 0.60826 0.96105 0.0
H3122 H 0.88287 0.6202 0.98347 0.0
H3123 H 0.86523 0.6122 0.96362 0.0
C3124 C 0.83168 0.62542 0.00166 0.0
C3125 C 0.81359 0.61911 0.99255 0.0
C3126 C 0.84504 0.61337 -0.00032 0.0
C3127 C 0.84068 0.59492 0.9883 0.0
C3128 C 0.82259 0.58852 0.97927 0.0
H3129 H 0.93361 0.53309 0.96658 0.0
H3130 H 0.90563 0.54732 0.96075 0.0
C3131 C 0.80916 0.60051 0.98135 0.0
C3132 C 0.8548 0.582 0.98662 0.0
H3133 H 0.90011 0.58222 0.97624 0.0
C3134 C 0.85053 0.56288 0.99282 0.0
C3135 C 0.87262 0.58866 0.97971 0.0
C3136 C 0.87759 0.60837 0.97138 0.0
C3137 C 0.86394 0.55068 0.99327 0.0
C3138 C 0.88222 0.55801 0.98784 0.0
C3139 C 0.88617 0.57669 0.98066 0.0
C3140 C 0.89782 0.54723 0.99071 0.0
C3141 C 0.85836 0.53012 -0.00035 0.0
C3142 C 0.90264 0.54232 0.00941 0.0
C3143 C 0.91848 0.53407 0.0127 0.0
C3144 C 0.92994 0.53088 -0.0026 0.0
C3145 C 0.92493 0.53536 0.97859 0.0
C3146 C 0.909 0.5435 0.97526 0.0
H3147 H 0.84313 0.52429 0.99646 0.0
H3148 H 0.86622 0.51954 0.99231 0.0
H3149 H 0.86136 0.53078 0.0157 0.0
H3150 H 0.89458 0.54556 0.02168 0.0
H3151 H 0.92215 0.53093 0.02739 0.0
H3152 H 0.18204 0.06081 0.80261 0.0
H3153 H 0.20192 0.09393 0.80911 0.0
H3154 H 0.16445 0.11734 0.77105 0.0
H3155 H 0.14444 0.08459 0.76477 0.0
H3156 H 0.22024 0.11611 0.78252 0.0
H3157 H 0.17124 0.15767 0.81863 0.0
H3158 H 0.16713 0.13084 0.81553 0.0
H3159 H 0.16104 0.14449 0.79581 0.0
C3160 C 0.17795 0.07307 0.7958 0.0
C3161 C 0.16164 0.07008 0.78321 0.0
C3162 C 0.1893 0.09197 0.79955 0.0
C3163 C 0.18446 0.10816 0.79087 0.0
C3164 C 0.16818 0.10518 0.77834 0.0
H3165 H 0.2295 0.22123 0.75899 0.0
H3166 H 0.2117 0.18896 0.76547 0.0
C3167 C 0.15683 0.08638 0.77463 0.0
C3168 C 0.197 0.12791 0.79359 0.0
H3169 H 0.19692 0.17734 0.80387 0.0
C3170 C 0.21531 0.12948 0.78761 0.0
C3171 C 0.19054 0.1453 0.80031 0.0
C3172 C 0.17147 0.14448 0.80813 0.0
C3173 C 0.22691 0.1481 0.78698 0.0
C3174 C 0.22001 0.16549 0.79259 0.0
C3175 C 0.20207 0.16391 0.79948 0.0
C3176 C 0.23052 0.18538 0.78963 0.0
C3177 C 0.24608 0.14916 0.77932 0.0
C3178 C 0.24685 0.19406 0.80128 0.0
C3179 C 0.25699 0.2126 0.79769 0.0
C3180 C 0.25092 0.22258 0.78239 0.0
C3181 C 0.23445 0.21391 0.77094 0.0
C3182 C 0.22428 0.1955 0.77461 0.0
H3183 H 0.2486 0.1343 0.77373 0.0
H3184 H 0.2478 0.15904 0.76737 0.0
H3185 H 0.25692 0.15561 0.79124 0.0
H3186 H 0.25177 0.18646 0.81302 0.0
H3187 H 0.26964 0.21902 0.80675 0.0
H3188 H 0.37211 0.97704 0.27803 0.0
H3189 H 0.3559 0.94257 0.27743 0.0
H3190 H 0.32768 0.94653 0.22173 0.0
H3191 H 0.34365 0.98121 0.22231 0.0
H3192 H 0.30386 0.92997 0.24893 0.0
H3193 H 0.36566 0.8939 0.24401 0.0
H3194 H 0.36805 0.91321 0.26385 0.0
H3195 H 0.36638 0.91934 0.23904 0.0
C3196 C 0.36256 0.97058 0.26557 0.0
C3197 C 0.3592 0.98186 0.25019 0.0
C3198 C 0.35339 0.95083 0.26521 0.0
C3199 C 0.34083 0.94194 0.2494 0.0
C3200 C 0.33742 0.95312 0.23401 0.0
H3201 H 0.26985 0.82438 0.22673 0.0
H3202 H 0.28563 0.85863 0.22456 0.0
C3203 C 0.34657 0.97291 0.23436 0.0
C3204 C 0.33071 0.92121 0.24937 0.0
H3205 H 0.33727 0.87368 0.25188 0.0
C3206 C 0.31112 0.91762 0.24939 0.0
C3207 C 0.34028 0.90517 0.24997 0.0
C3208 C 0.36124 0.90802 0.24903 0.0
C3209 C 0.30083 0.89843 0.25059 0.0
C3210 C 0.31044 0.88247 0.25155 0.0
C3211 C 0.33 0.88601 0.25126 0.0
C3212 C 0.30047 0.86196 0.25305 0.0
C3213 C 0.27985 0.89546 0.25138 0.0
C3214 C 0.30379 0.85247 0.26971 0.0
C3215 C 0.29485 0.83288 0.271 0.0
C3216 C 0.28253 0.82239 0.25557 0.0
C3217 C 0.27921 0.83201 0.23891 0.0
C3218 C 0.28814 0.85162 0.23766 0.0
H3219 H 0.27512 0.90974 0.25482 0.0
H3220 H 0.2731 0.88859 0.23694 0.0
H3221 H 0.27495 0.88531 0.26251 0.0
H3222 H 0.31334 0.86023 0.2817 0.0
H3223 H 0.29778 0.82592 0.28401 0.0
H3224 H 0.49977 0.32602 0.61553 0.0
H3225 H 0.49536 0.3524 0.59531 0.0
H3226 H 0.55461 0.36529 0.58766 0.0
H3227 H 0.55919 0.33879 0.60778 0.0
H3228 H 0.5124 0.39288 0.60344 0.0
H3229 H 0.53045 0.36101 0.53141 0.0
H3230 H 0.52471 0.34612 0.55136 0.0
H3231 H 0.54748 0.36158 0.55137 0.0
C3232 C 0.51187 0.33434 0.60943 0.0
C3233 C 0.52985 0.3303 0.61327 0.0
C3234 C 0.50931 0.3494 0.59788 0.0
C3235 C 0.52461 0.3606 0.58981 0.0
C3236 C 0.54256 0.35655 0.59346 0.0
H3237 H 0.54063 0.46462 0.52658 0.0
H3238 H 0.54356 0.43455 0.54182 0.0
C3239 C 0.54517 0.34149 0.60507 0.0
C3240 C 0.52189 0.37728 0.57854 0.0
H3241 H 0.52619 0.39449 0.53365 0.0
C3242 C 0.51529 0.39319 0.58815 0.0
C3243 C 0.52578 0.37764 0.55863 0.0
C3244 C 0.53235 0.36062 0.54748 0.0
C3245 C 0.5128 0.40969 0.57849 0.0
C3246 C 0.51661 0.41004 0.55855 0.0
C3247 C 0.5232 0.39411 0.54891 0.0
C3248 C 0.51433 0.42714 0.54768 0.0
C3249 C 0.50662 0.42684 0.5899 0.0
C3250 C 0.49679 0.43256 0.54535 0.0
C3251 C 0.49505 0.4498 0.53673 0.0
C3252 C 0.51083 0.46184 0.53014 0.0
C3253 C 0.5282 0.45577 0.53158 0.0
C3254 C 0.52992 0.43857 0.54027 0.0
H3255 H 0.50884 0.42643 0.60594 0.0
H3256 H 0.51428 0.4413 0.58595 0.0
H3257 H 0.49145 0.42604 0.58641 0.0
H3258 H 0.4845 0.42367 0.55059 0.0
H3259 H 0.48143 0.45392 0.53569 0.0
H3260 H 0.4457 0.7569 0.32669 0.0
H3261 H 0.41594 0.75531 0.30814 0.0
H3262 H 0.39494 0.69785 0.32726 0.0
H3263 H 0.42467 0.69939 0.34614 0.0
H3264 H 0.39696 0.7271 0.27806 0.0
H3265 H 0.35582 0.7311 0.34382 0.0
H3266 H 0.38108 0.73683 0.34534 0.0
H3267 H 0.36892 0.71143 0.34171 0.0
C3268 C 0.4348 0.74388 0.32694 0.0
C3269 C 0.43752 0.72833 0.33803 0.0
C3270 C 0.41781 0.74298 0.31628 0.0
C3271 C 0.40318 0.72658 0.31652 0.0
C3272 C 0.40597 0.71078 0.32714 0.0
H3273 H 0.2999 0.7152 0.23993 0.0
H3274 H 0.32821 0.70729 0.25584 0.0
C3275 C 0.42299 0.71167 0.33785 0.0
C3276 C 0.38492 0.72644 0.30598 0.0
H3277 H 0.33949 0.7294 0.31318 0.0
C3278 C 0.38432 0.72739 0.28567 0.0
C3279 C 0.36853 0.72697 0.31603 0.0
C3280 C 0.36853 0.72668 0.33795 0.0
C3281 C 0.36786 0.72935 0.27518 0.0
C3282 C 0.35154 0.73012 0.28527 0.0
C3283 C 0.35202 0.72865 0.3055 0.0
C3284 C 0.33437 0.73439 0.27554 0.0
C3285 C 0.36826 0.73148 0.25356 0.0
C3286 C 0.3284 0.75207 0.28152 0.0
C3287 C 0.31236 0.75655 0.27253 0.0
C3288 C 0.30187 0.74336 0.25749 0.0
C3289 C 0.3078 0.72563 0.25146 0.0
C3290 C 0.32394 0.72114 0.26048 0.0
H3291 H 0.38275 0.73414 0.24872 0.0
H3292 H 0.36034 0.71764 0.24524 0.0
H3293 H 0.36149 0.74395 0.24978 0.0
H3294 H 0.33627 0.76251 0.29307 0.0
H3295 H 0.3082 0.77041 0.27736 0.0
H3296 H 0.0375 0.73433 0.12674 0.0
H3297 H 0.03872 0.70184 0.10988 0.0
H3298 H 0.98314 0.69804 0.08335 0.0
H3299 H 0.98181 0.73065 0.10003 0.0
H3300 H 0.01445 0.66545 0.11277 0.0
H3301 H 0.01373 0.68605 0.03659 0.0
H3302 H 0.01892 0.70433 0.05764 0.0
H3303 H 0.9951 0.69263 0.05035 0.0
C3304 C 0.02554 0.72665 0.11726 0.0
C3305 C 0.00956 0.73513 0.11469 0.0
C3306 C 0.02628 0.70808 0.10765 0.0
C3307 C 0.01113 0.69767 0.09518 0.0
C3308 C 0.99512 0.70601 0.09263 0.0
H3309 H 0.98306 0.58314 0.02811 0.0
H3310 H 0.9845 0.61659 0.04393 0.0
C3311 C 0.99435 0.7246 0.10227 0.0
C3312 C 0.01188 0.67781 0.08535 0.0
H3313 H 0.01002 0.65162 0.04048 0.0
C3314 C 0.01362 0.66243 0.09697 0.0
C3315 C 0.0108 0.67396 0.06474 0.0
C3316 C 0.0097 0.69013 0.05156 0.0
C3317 C 0.01378 0.64312 0.08853 0.0
C3318 C 0.01254 0.63923 0.06791 0.0
C3319 C 0.01099 0.65467 0.05629 0.0
C3320 C 0.01212 0.61906 0.0581 0.0
C3321 C 0.0147 0.62693 0.10173 0.0
C3322 C 0.02732 0.60945 0.06058 0.0
C3323 C 0.02655 0.59022 0.05158 0.0
C3324 C 0.01059 0.58033 0.03985 0.0
C3325 C 0.99556 0.59022 0.03711 0.0
C3326 C 0.99635 0.60939 0.04611 0.0
H3327 H 0.01117 0.63127 0.11684 0.0
H3328 H 0.005 0.61296 0.09592 0.0
H3329 H 0.02913 0.62389 0.10253 0.0
H3330 H 0.03978 0.61682 0.06948 0.0
H3331 H 0.03842 0.5831 0.05391 0.0
H3332 H 0.06714 0.26829 0.87299 0.0
H3333 H 0.09394 0.26685 0.85339 0.0
H3334 H 0.05669 0.2437 0.80249 0.0
H3335 H 0.02968 0.24486 0.82208 0.0
H3336 H 0.0864 0.22327 0.80755 0.0
H3337 H 0.1119 0.30476 0.81258 0.0
H3338 H 0.10856 0.29551 0.83598 0.0
H3339 H 0.08873 0.29382 0.81884 0.0
C3340 C 0.0646 0.26293 0.85762 0.0
C3341 C 0.04626 0.25681 0.84907 0.0
C3342 C 0.07995 0.2622 0.84642 0.0
C3343 C 0.07729 0.25547 0.82643 0.0
C3344 C 0.05903 0.24905 0.81788 0.0
H3345 H 0.17191 0.27543 0.75308 0.0
H3346 H 0.1403 0.27258 0.76445 0.0
C3347 C 0.04362 0.24977 0.82909 0.0
C3348 C 0.09366 0.25501 0.8146 0.0
H3349 H 0.13311 0.28441 0.80126 0.0
C3350 C 0.09654 0.23664 0.80598 0.0
C3351 C 0.10667 0.27252 0.8123 0.0
C3352 C 0.10376 0.2928 0.82024 0.0
C3353 C 0.11254 0.23523 0.79578 0.0
C3354 C 0.12608 0.25262 0.79445 0.0
C3355 C 0.12279 0.27106 0.80241 0.0
C3356 C 0.14418 0.25208 0.78568 0.0
C3357 C 0.11478 0.21516 0.78655 0.0
C3358 C 0.15675 0.24126 0.79362 0.0
C3359 C 0.17477 0.24279 0.78707 0.0
C3360 C 0.18055 0.25534 0.77263 0.0
C3361 C 0.16778 0.26562 0.76421 0.0
C3362 C 0.14974 0.26403 0.77071 0.0
H3363 H 0.10103 0.2049 0.78347 0.0
H3364 H 0.12189 0.21646 0.77269 0.0
H3365 H 0.12339 0.20841 0.7968 0.0
H3366 H 0.15294 0.2323 0.80548 0.0
H3367 H 0.1844 0.23479 0.79388 0.0
H3368 H 0.51947 0.71099 0.90683 0.0
H3369 H 0.5164 0.68012 0.92242 0.0
H3370 H 0.51441 0.71264 0.97861 0.0
H3371 H 0.51728 0.74362 0.96314 0.0
H3372 H 0.54047 0.67101 0.95207 0.0
H3373 H 0.46812 0.66741 0.9755 0.0
H3374 H 0.47771 0.68336 0.95757 0.0
H3375 H 0.48418 0.69031 0.98314 0.0
C3376 C 0.51828 0.7116 0.92249 0.0
C3377 C 0.51856 0.72977 0.93373 0.0
C3378 C 0.51656 0.69394 0.93137 0.0
C3379 C 0.51498 0.69408 0.95162 0.0
C3380 C 0.5153 0.71218 0.96291 0.0
H3381 H 0.53026 0.59377 0.01642 0.0
H3382 H 0.53238 0.62725 0.00625 0.0
C3383 C 0.51703 0.72987 0.95405 0.0
C3384 C 0.51347 0.6753 0.96088 0.0
H3385 H 0.48429 0.6429 0.98559 0.0
C3386 C 0.52823 0.66488 0.95948 0.0
C3387 C 0.49741 0.66732 0.97038 0.0
C3388 C 0.48086 0.67755 0.97165 0.0
C3389 C 0.52733 0.64659 0.96723 0.0
C3390 C 0.51135 0.63868 0.97689 0.0
C3391 C 0.49661 0.64914 0.97836 0.0
C3392 C 0.50918 0.61894 0.98438 0.0
C3393 C 0.54323 0.63557 0.96449 0.0
C3394 C 0.495 0.60338 0.97594 0.0
C3395 C 0.49368 0.58429 0.98175 0.0
C3396 C 0.50647 0.58039 0.99621 0.0
C3397 C 0.52021 0.59622 0.00521 0.0
C3398 C 0.52153 0.61534 -0.00065 0.0
H3399 H 0.55256 0.64164 0.95329 0.0
H3400 H 0.55176 0.63692 0.97854 0.0
H3401 H 0.5378 0.61952 0.96006 0.0
H3402 H 0.48529 0.60589 0.96441 0.0
H3403 H 0.48286 0.57251 0.97456 0.0
H3404 H 0.06544 0.76063 0.61944 0.0
H3405 H 0.09466 0.75633 0.63595 0.0
H3406 H 0.07716 0.77919 0.69097 0.0
H3407 H 0.04776 0.78347 0.6746 0.0
H3408 H 0.12238 0.78552 0.65859 0.0
H3409 H 0.09061 0.72502 0.70179 0.0
H3410 H 0.07832 0.73207 0.68092 0.0
H3411 H 0.08042 0.74688 0.70408 0.0
C3412 C 0.06777 0.76478 0.63506 0.0
C3413 C 0.05421 0.77231 0.64573 0.0
C3414 C 0.08449 0.7623 0.64445 0.0
C3415 C 0.08791 0.76714 0.66469 0.0
C3416 C 0.0746 0.77503 0.67537 0.0
H3417 H 0.17669 0.7682 0.75131 0.0
H3418 H 0.1474 0.76827 0.73248 0.0
C3419 C 0.05788 0.77759 0.66597 0.0
C3420 C 0.10554 0.76416 0.67458 0.0
H3421 H 0.12283 0.7387 0.70929 0.0
C3422 C 0.12254 0.77519 0.66958 0.0
C3423 C 0.10563 0.75062 0.68883 0.0
C3424 C 0.0878 0.73781 0.69416 0.0
C3425 C 0.13965 0.77354 0.67897 0.0
C3426 C 0.13973 0.76017 0.69343 0.0
C3427 C 0.12273 0.74889 0.69817 0.0
C3428 C 0.15717 0.75864 0.70471 0.0
C3429 C 0.15739 0.78667 0.67386 0.0
C3430 C 0.17224 0.75267 0.6954 0.0
C3431 C 0.18907 0.75268 0.70616 0.0
C3432 C 0.19096 0.75851 0.72637 0.0
C3433 C 0.17562 0.76367 0.73573 0.0
C3434 C 0.15888 0.76371 0.72501 0.0
H3435 H 0.15444 0.79915 0.66581 0.0
H3436 H 0.16649 0.79292 0.68724 0.0
H3437 H 0.16526 0.77771 0.6644 0.0
H3438 H 0.17107 0.74831 0.6798 0.0
H3439 H 0.20069 0.74858 0.69862 0.0
H3440 H 0.98417 0.32467 0.42351 0.0
H3441 H 0.9881 0.35736 0.44183 0.0
H3442 H 0.04802 0.36207 0.44512 0.0
H3443 H 0.04426 0.32916 0.42676 0.0
H3444 H 0.03256 0.37281 0.48126 0.0
H3445 H 0.00829 0.41082 0.4199 0.0
H3446 H 0.99255 0.38841 0.42406 0.0
H3447 H 0.0155 0.3871 0.41624 0.0
C3448 C -0.00179 0.3326 0.42811 0.0
C3449 C 0.01392 0.32435 0.42359 0.0
C3450 C 0.00041 0.35133 0.43849 0.0
C3451 C 0.01834 0.36221 0.44451 0.0
C3452 C 0.03407 0.35391 0.44044 0.0
H3453 H 0.03649 0.48742 0.4892 0.0
H3454 H 0.03893 0.45584 0.47107 0.0
C3455 C 0.03189 0.33514 0.42997 0.0
C3456 C 0.02049 0.38214 0.45531 0.0
H3457 H 0.01023 0.4281 0.45179 0.0
C3458 C 0.02786 0.38499 0.47481 0.0
C3459 C 0.01458 0.39802 0.44671 0.0
C3460 C 0.00745 0.39606 0.42552 0.0
C3461 C 0.02882 0.40316 0.4862 0.0
C3462 C 0.02197 0.41869 0.4779 0.0
C3463 C 0.01527 0.41607 0.45818 0.0
C3464 C 0.02121 0.43767 0.48948 0.0
C3465 C 0.03715 0.40557 0.507 0.0
C3466 C 0.01032 0.43788 0.50574 0.0
C3467 C 0.00886 0.4559 0.51607 0.0
C3468 C 0.01813 0.47394 0.51017 0.0
C3469 C 0.02912 0.47369 0.49398 0.0
C3470 C 0.03056 0.4557 0.48366 0.0
H3471 H 0.04645 0.39478 0.50927 0.0
H3472 H 0.0453 0.42085 0.51104 0.0
H3473 H 0.0257 0.40284 0.51703 0.0
H3474 H 0.00265 0.42414 0.5102 0.0
H3475 H 0.00023 0.45572 0.52845 0.0
H3476 H 0.45913 0.2699 0.18079 0.0
H3477 H 0.43395 0.26932 0.20312 0.0
H3478 H 0.39777 0.28339 0.15709 0.0
H3479 H 0.42269 0.28372 0.13461 0.0
H3480 H 0.41407 0.29858 0.2154 0.0
H3481 H 0.36702 0.23313 0.17524 0.0
H3482 H 0.39144 0.24 0.17069 0.0
H3483 H 0.3745 0.2526 0.16005 0.0
C3484 C 0.44581 0.27288 0.17541 0.0
C3485 C 0.44286 0.27669 0.15586 0.0
C3486 C 0.43146 0.27255 0.1882 0.0
C3487 C 0.41391 0.27594 0.18165 0.0
C3488 C 0.41109 0.28028 0.16231 0.0
H3489 H 0.32287 0.30889 0.24212 0.0
H3490 H 0.35214 0.30788 0.22679 0.0
C3491 C 0.42539 0.28057 0.14951 0.0
C3492 C 0.39849 0.275 0.19496 0.0
H3493 H 0.35336 0.2521 0.19929 0.0
C3494 C 0.40084 0.2883 0.21201 0.0
C3495 C 0.38139 0.26131 0.1907 0.0
C3496 C 0.37845 0.2458 0.17328 0.0
C3497 C 0.38624 0.28883 0.2245 0.0
C3498 C 0.36877 0.27593 0.2196 0.0
C3499 C 0.3667 0.2621 0.20296 0.0
C3500 C 0.35213 0.27707 0.23088 0.0
C3501 C 0.38967 0.30317 0.24281 0.0
C3502 C 0.34229 0.26004 0.2382 0.0
C3503 C 0.32538 0.26049 0.24681 0.0
C3504 C 0.31796 0.27798 0.24818 0.0
C3505 C 0.32819 0.29518 0.24141 0.0
C3506 C 0.34504 0.29469 0.23274 0.0
H3507 H 0.4048 0.30707 0.24766 0.0
H3508 H 0.385 0.3171 0.23977 0.0
H3509 H 0.38179 0.29691 0.25494 0.0
H3510 H 0.34748 0.24625 0.23683 0.0
H3511 H 0.31791 0.24697 0.25189 0.0
H3512 H 0.60448 0.48381 0.33009 0.0
H3513 H 0.58533 0.47854 0.35807 0.0
H3514 H 0.56868 0.53495 0.35346 0.0
H3515 H 0.58806 0.54054 0.32582 0.0
H3516 H 0.58094 0.53092 0.39038 0.0
H3517 H 0.52894 0.46382 0.36093 0.0
H3518 H 0.55284 0.46104 0.35931 0.0
H3519 H 0.54395 0.47866 0.34551 0.0
C3520 C 0.59657 0.49499 0.3349 0.0
C3521 C 0.59782 0.51263 0.32576 0.0
C3522 C 0.58554 0.49189 0.35082 0.0
C3523 C 0.57539 0.50624 0.35771 0.0
C3524 C 0.57636 0.52366 0.34836 0.0
H3525 H 0.49077 0.50016 0.44219 0.0
H3526 H 0.5079 0.49931 0.41235 0.0
C3527 C 0.58745 0.52683 0.33255 0.0
C3528 C 0.56474 0.50383 0.37543 0.0
H3529 H 0.52901 0.4739 0.39495 0.0
C3530 C 0.56956 0.51847 0.39136 0.0
C3531 C 0.54981 0.48766 0.37661 0.0
C3532 C 0.54342 0.47198 0.35962 0.0
C3533 C 0.55991 0.51739 0.40847 0.0
C3534 C 0.5453 0.50095 0.40987 0.0
C3535 C 0.54037 0.48635 0.3939 0.0
C3536 C 0.53459 0.49915 0.42759 0.0
C3537 C 0.56516 0.53416 0.42467 0.0
C3538 C 0.54376 0.49854 0.4459 0.0
C3539 C 0.53403 0.49917 0.46285 0.0
C3540 C 0.515 0.50019 0.46171 0.0
C3541 C 0.5055 0.49945 0.44334 0.0
C3542 C 0.51527 0.49899 0.42636 0.0
H3543 H 0.57309 0.54783 0.41933 0.0
H3544 H 0.55253 0.53781 0.4314 0.0
H3545 H 0.57419 0.52961 0.43622 0.0
H3546 H 0.55853 0.49802 0.44712 0.0
H3547 H 0.54136 0.49891 0.47685 0.0
H3548 H 0.19613 0.83194 0.03471 0.0
H3549 H 0.19355 0.81105 0.06182 0.0
H3550 H 0.23996 0.8513 0.09377 0.0
H3551 H 0.24258 0.8723 0.06693 0.0
H3552 H 0.22181 0.79237 0.07659 0.0
H3553 H 0.20005 0.84346 0.13395 0.0
H3554 H 0.19813 0.84691 0.10826 0.0
H3555 H 0.22021 0.85487 0.12228 0.0
C3556 C 0.20562 0.83649 0.04762 0.0
C3557 C 0.21955 0.85379 0.0487 0.0
C3558 C 0.20414 0.82451 0.06305 0.0
C3559 C 0.21641 0.82978 0.07984 0.0
C3560 C 0.23013 0.84719 0.08107 0.0
H3561 H 0.26193 0.76829 0.16546 0.0
H3562 H 0.25288 0.78154 0.13537 0.0
C3563 C 0.23167 0.85911 0.06567 0.0
C3564 C 0.21577 0.81661 0.09569 0.0
H3565 H 0.2134 0.81673 0.14503 0.0
C3566 C 0.21966 0.79752 0.09153 0.0
C3567 C 0.21267 0.82328 0.11506 0.0
C3568 C 0.20734 0.84318 0.12016 0.0
C3569 C 0.22161 0.78533 0.10648 0.0
C3570 C 0.21987 0.7926 0.12605 0.0
C3571 C 0.21491 0.81124 0.13003 0.0
C3572 C 0.22441 0.78191 0.14281 0.0
C3573 C 0.22575 0.76492 0.1012 0.0
C3574 C 0.21142 0.77771 0.15696 0.0
C3575 C 0.21664 0.77035 0.17423 0.0
C3576 C 0.23495 0.76714 0.17761 0.0
C3577 C 0.2477 0.77052 0.16311 0.0
C3578 C 0.2425 0.77797 0.14587 0.0
H3579 H 0.22051 0.75915 0.08593 0.0
H3580 H 0.24113 0.76578 0.10231 0.0
H3581 H 0.21936 0.75419 0.11122 0.0
H3582 H 0.19744 0.78077 0.15492 0.0
H3583 H 0.20655 0.76788 0.18523 0.0
H3584 H 0.91657 0.57664 0.83439 0.0
H3585 H 0.93408 0.58628 0.86624 0.0
H3586 H 0.9669 0.5412 0.85356 0.0
H3587 H 0.94987 0.5318 0.82178 0.0
H3588 H 0.93519 0.56364 0.89566 0.0
H3589 H 0.00722 0.58754 0.87477 0.0
H3590 H 0.98713 0.58509 0.85761 0.0
H3591 H -0.00268 0.56379 0.86192 0.0
C3592 C 0.92769 0.56898 0.83832 0.0
C3593 C 0.93185 0.55345 0.82559 0.0
C3594 C 0.9377 0.57455 0.85647 0.0
C3595 C 0.95207 0.56477 0.86208 0.0
C3596 C 0.95629 0.54939 0.8493 0.0
H3597 H 0.98385 0.51784 0.96008 0.0
H3598 H 0.96864 0.53044 0.9329 0.0
C3599 C 0.94638 0.54387 0.83119 0.0
C3600 C 0.96142 0.56889 0.882 0.0
H3601 H 0.00424 0.57252 0.90581 0.0
C3602 C 0.95032 0.56616 0.89798 0.0
C3603 C 0.98115 0.57275 0.88516 0.0
C3604 C 0.99385 0.57769 0.86893 0.0
C3605 C 0.95838 0.56506 0.91666 0.0
C3606 C 0.97795 0.56626 0.91923 0.0
C3607 C 0.98919 0.57116 0.90374 0.0
C3608 C 0.98662 0.55958 0.93668 0.0
C3609 C 0.94573 0.56166 0.93323 0.0
C3610 C 0.00221 0.57154 0.94744 0.0
C3611 C 0.01107 0.56423 0.96296 0.0
C3612 C 0.00445 0.54489 0.96779 0.0
C3613 C 0.98899 0.53295 0.95688 0.0
C3614 C 0.9802 0.54019 0.94144 0.0
H3615 H 0.93355 0.56908 0.93142 0.0
H3616 H 0.94017 0.54549 0.93305 0.0
H3617 H 0.95325 0.56722 0.94767 0.0
H3618 H 0.00754 0.58643 0.94377 0.0
H3619 H 0.02302 0.57368 0.97118 0.0
H3620 H 0.29937 0.20884 0.55075 0.0
H3621 H 0.29588 0.22285 0.58409 0.0
H3622 H 0.24563 0.179 0.58689 0.0
H3623 H 0.24922 0.16467 0.55389 0.0
H3624 H 0.26734 0.23901 0.5993 0.0
H3625 H 0.27567 0.17247 0.63612 0.0
H3626 H 0.28135 0.17516 0.61116 0.0
H3627 H 0.25743 0.16734 0.61682 0.0
C3628 C 0.28762 0.20214 0.5585 0.0
C3629 C 0.27468 0.18552 0.54973 0.0
C3630 C 0.28564 0.21017 0.57753 0.0
C3631 C 0.2707 0.20173 0.58811 0.0
C3632 C 0.25754 0.18543 0.57921 0.0
H3633 H 0.2324 0.23122 0.70302 0.0
H3634 H 0.23466 0.21808 0.66906 0.0
C3635 C 0.25957 0.17732 0.56028 0.0
C3636 C 0.26866 0.21012 0.60834 0.0
H3637 H 0.26522 0.19824 0.65535 0.0
C3638 C 0.26698 0.23013 0.61157 0.0
C3639 C 0.26819 0.1985 0.62434 0.0
C3640 C 0.27094 0.17724 0.62202 0.0
C3641 C 0.26456 0.23874 0.63033 0.0
C3642 C 0.26391 0.22705 0.64623 0.0
C3643 C 0.26557 0.20707 0.64304 0.0
C3644 C 0.26222 0.23549 0.66646 0.0
C3645 C 0.26247 0.26019 0.63302 0.0
C3646 C 0.27702 0.2495 0.67618 0.0
C3647 C 0.27584 0.25692 0.69555 0.0
C3648 C 0.2598 0.25049 0.70557 0.0
C3649 C 0.24491 0.23654 0.69571 0.0
C3650 C 0.24618 0.229 0.67634 0.0
H3651 H 0.25938 0.2659 0.61886 0.0
H3652 H 0.25113 0.26204 0.64281 0.0
H3653 H 0.27572 0.26941 0.63994 0.0
H3654 H 0.28961 0.25449 0.66886 0.0
H3655 H 0.28756 0.26767 0.70267 0.0
H3656 H 0.57538 0.51955 0.2383 0.0
H3657 H 0.56624 0.52703 0.20549 0.0
H3658 H 0.61935 0.51755 0.18568 0.0
H3659 H 0.62863 0.50997 0.21837 0.0
H3660 H 0.58644 0.55809 0.18399 0.0
H3661 H 0.57946 0.48211 0.14562 0.0
H3662 H 0.57931 0.48661 0.17187 0.0
H3663 H 0.60096 0.49156 0.16023 0.0
C3664 C 0.58506 0.51886 0.22693 0.0
C3665 C 0.60271 0.5141 0.23095 0.0
C3666 C 0.57984 0.52323 0.20823 0.0
C3667 C 0.59209 0.52272 0.19318 0.0
C3668 C 0.60963 0.51779 0.19706 0.0
H3669 H 0.57594 0.53523 0.06898 0.0
H3670 H 0.59075 0.53375 0.10144 0.0
C3671 C 0.6149 0.5135 0.21576 0.0
C3672 C 0.58663 0.5277 0.1735 0.0
H3673 H 0.57576 0.50778 0.1262 0.0
C3674 C 0.58412 0.54713 0.17132 0.0
C3675 C 0.58378 0.51339 0.15703 0.0
C3676 C 0.58586 0.49219 0.15871 0.0
C3677 C 0.57881 0.55265 0.15301 0.0
C3678 C 0.57555 0.53821 0.13659 0.0
C3679 C 0.57835 0.51886 0.13877 0.0
C3680 C 0.56811 0.54235 0.11725 0.0
C3681 C 0.57694 0.57391 0.15142 0.0
C3682 C 0.5507 0.54818 0.11537 0.0
C3683 C 0.54231 0.54919 0.09688 0.0
C3684 C 0.55109 0.54415 0.07994 0.0
C3685 C 0.56891 0.53926 0.08181 0.0
C3686 C 0.57734 0.53834 0.10033 0.0
H3687 H 0.58564 0.58417 0.16319 0.0
H3688 H 0.58108 0.57875 0.13704 0.0
H3689 H 0.56213 0.57524 0.15297 0.0
H3690 H 0.54312 0.55092 0.12816 0.0
H3691 H 0.5285 0.55285 0.09585 0.0
H3692 H 0.25296 0.81984 0.98441 0.0
H3693 H 0.25243 0.79626 0.95543 0.0
H3694 H 0.23205 0.83694 0.91948 0.0
H3695 H 0.23207 0.86031 0.94833 0.0
H3696 H 0.21423 0.79801 0.90969 0.0
H3697 H 0.29171 0.80473 0.91541 0.0
H3698 H 0.27957 0.7965 0.93617 0.0
H3699 H 0.28007 0.82133 0.92983 0.0
C3700 C 0.24825 0.8237 0.97034 0.0
C3701 C 0.24274 0.84203 0.96861 0.0
C3702 C 0.24803 0.81023 0.95381 0.0
C3703 C 0.2425 0.81501 0.93529 0.0
C3704 C 0.2364 0.83299 0.93365 0.0
H3705 H 0.26789 0.7995 0.82062 0.0
H3706 H 0.26653 0.80561 0.85585 0.0
C3707 C 0.23647 0.84636 0.95015 0.0
C3708 C 0.24376 0.8019 0.91734 0.0
H3709 H 0.27532 0.78637 0.88751 0.0
C3710 C 0.22751 0.79512 0.90493 0.0
C3711 C 0.26116 0.79822 0.91126 0.0
C3712 C 0.27917 0.80565 0.92374 0.0
C3713 C 0.22834 0.78587 0.88607 0.0
C3714 C 0.24587 0.78294 0.87967 0.0
C3715 C 0.26192 0.78855 0.89256 0.0
C3716 C 0.24835 0.77747 0.85881 0.0
C3717 C 0.2107 0.78064 0.87268 0.0
C3718 C 0.23904 0.75931 0.84885 0.0
C3719 C 0.23973 0.7558 0.82855 0.0
C3720 C 0.24985 0.77037 0.8181 0.0
C3721 C 0.25998 0.788 0.8283 0.0
C3722 C 0.25924 0.7915 0.84845 0.0
H3723 H 0.1989 0.7866 0.87901 0.0
H3724 H 0.21317 0.78654 0.85834 0.0
H3725 H 0.20644 0.76424 0.87002 0.0
H3726 H 0.23082 0.74815 0.85666 0.0
H3727 H 0.23191 0.74203 0.82099 0.0
H3728 H 0.94288 0.51385 0.73048 0.0
H3729 H 0.9642 0.52182 0.70482 0.0
H3730 H 0.95085 0.58033 0.70589 0.0
H3731 H 0.92934 0.57248 0.73148 0.0
H3732 H 0.94677 0.55943 0.66901 0.0
H3733 H 0.0159 0.55798 0.70543 0.0
H3734 H -0.00146 0.53641 0.70835 0.0
H3735 H 0.99565 0.56044 0.71888 0.0
C3736 C 0.94461 0.52849 0.72542 0.0
C3737 C 0.93436 0.5425 0.73295 0.0
C3738 C 0.95695 0.53309 0.7109 0.0
C3739 C 0.95933 0.55178 0.70374 0.0
C3740 C 0.94933 0.5659 0.71141 0.0
H3741 H 0.00725 0.57712 0.59195 0.0
H3742 H -0.00237 0.58435 0.62508 0.0
C3743 C 0.93701 0.56134 0.72596 0.0
C3744 C 0.97071 0.5557 0.68684 0.0
H3745 H 0.01377 0.5542 0.6702 0.0
C3746 C 0.96152 0.55873 0.66931 0.0
C3747 C 0.98992 0.55475 0.68739 0.0
C3748 C 0.00064 0.55241 0.70608 0.0
C3749 C 0.97072 0.55951 0.65192 0.0
C3750 C 0.98976 0.55769 0.65226 0.0
C3751 C -0.0008 0.55565 0.67002 0.0
C3752 C -0.00078 0.55529 0.63394 0.0
C3753 C 0.9596 0.56094 0.63315 0.0
C3754 C 0.00444 0.53707 0.62848 0.0
C3755 C 0.01013 0.53302 0.60975 0.0
C3756 C 0.01064 0.54714 0.5962 0.0
C3757 C 0.00682 0.56595 0.60213 0.0
C3758 C 0.00124 0.57005 0.62097 0.0
H3759 H 0.9443 0.55847 0.63495 0.0
H3760 H 0.96393 0.57598 0.62835 0.0
H3761 H 0.96226 0.54989 0.62137 0.0
H3762 H 0.00305 0.52552 0.63832 0.0
H3763 H 0.01312 0.51844 0.60556 0.0
H3764 H 0.23949 0.19994 0.45527 0.0
H3765 H 0.24515 0.21836 0.42672 0.0
H3766 H 0.29812 0.19968 0.42163 0.0
H3767 H 0.29242 0.18086 0.44997 0.0
H3768 H 0.27359 0.24884 0.41925 0.0
H3769 H 0.27179 0.18146 0.36761 0.0
H3770 H 0.26422 0.18014 0.39211 0.0
H3771 H 0.28876 0.18459 0.38805 0.0
C3772 C 0.25238 0.19979 0.44814 0.0
C3773 C 0.26542 0.18876 0.45478 0.0
C3774 C 0.25561 0.21035 0.43183 0.0
C3775 C 0.27191 0.21011 0.42186 0.0
C3776 C 0.28526 0.1997 0.42886 0.0
H3777 H 0.30075 0.28842 0.32888 0.0
H3778 H 0.30264 0.27188 0.35891 0.0
C3779 C 0.28201 0.18904 0.44511 0.0
C3780 C 0.27461 0.22043 0.40391 0.0
H3781 H 0.27831 0.2124 0.35467 0.0
C3782 C 0.27474 0.24092 0.40513 0.0
C3783 C 0.27593 0.20999 0.3855 0.0
C3784 C 0.27501 0.18781 0.38311 0.0
C3785 C 0.27587 0.25123 0.38839 0.0
C3786 C 0.27725 0.2408 0.37 0.0
C3787 C 0.27742 0.22037 0.36883 0.0
C3788 C 0.27693 0.25039 0.35157 0.0
C3789 C 0.2748 0.273 0.39042 0.0
C3790 C 0.26219 0.2434 0.33728 0.0
C3791 C 0.26118 0.25268 0.32016 0.0
C3792 C 0.27493 0.2691 0.31696 0.0
C3793 C 0.28993 0.27585 0.33105 0.0
C3794 C 0.29096 0.2665 0.34822 0.0
H3795 H 0.26975 0.27769 0.40474 0.0
H3796 H 0.28896 0.28199 0.3893 0.0
H3797 H 0.26535 0.27639 0.37857 0.0
H3798 H 0.25124 0.23098 0.33955 0.0
H3799 H 0.2494 0.24721 0.30961 0.0
H3800 H 0.32536 0.61124 0.53626 0.0
H3801 H 0.34774 0.58894 0.53723 0.0
H3802 H 0.31661 0.55118 0.48852 0.0
H3803 H 0.29421 0.57354 0.48725 0.0
H3804 H 0.34228 0.54709 0.54129 0.0
H3805 H 0.37 0.56643 0.47007 0.0
H3806 H 0.35572 0.58107 0.48334 0.0
H3807 H 0.34516 0.55772 0.46995 0.0
C3808 C 0.32321 0.59817 0.52578 0.0
C3809 C 0.30811 0.59427 0.51154 0.0
C3810 C 0.33598 0.58541 0.52641 0.0
C3811 C 0.33391 0.56857 0.51282 0.0
C3812 C 0.31856 0.56428 0.49896 0.0
H3813 H 0.42031 0.49804 0.49119 0.0
H3814 H 0.38917 0.50676 0.49115 0.0
C3815 C 0.30578 0.57705 0.49829 0.0
C3816 C 0.34835 0.55608 0.51275 0.0
H3817 H 0.38407 0.54426 0.4868 0.0
C3818 C 0.35132 0.54627 0.5293 0.0
C3819 C 0.36001 0.55499 0.49703 0.0
C3820 C 0.35774 0.5657 0.47912 0.0
C3821 C 0.36599 0.53576 0.53076 0.0
C3822 C 0.37815 0.53539 0.51541 0.0
C3823 C 0.37468 0.54451 0.49852 0.0
C3824 C 0.39564 0.52752 0.51724 0.0
C3825 C 0.36845 0.52533 0.54881 0.0
C3826 C 0.40945 0.53605 0.5321 0.0
C3827 C 0.42715 0.5311 0.53214 0.0
C3828 C 0.43138 0.51766 0.51723 0.0
C3829 C 0.41735 0.50842 0.50286 0.0
C3830 C 0.3996 0.51339 0.50282 0.0
H3831 H 0.35494 0.52117 0.55561 0.0
H3832 H 0.37428 0.51172 0.54539 0.0
H3833 H 0.37826 0.53552 0.55973 0.0
H3834 H 0.40688 0.54732 0.54311 0.0
H3835 H 0.43776 0.53846 0.54337 0.0
H3836 H 0.82543 0.90388 0.54456 0.0
H3837 H 0.85701 0.92139 0.53983 0.0
H3838 H 0.83401 0.96351 0.50801 0.0
H3839 H 0.80233 0.94641 0.51319 0.0
H3840 H 0.87369 0.92735 0.50603 0.0
H3841 H 0.87095 3e-05 0.54695 0.0
H3842 H 0.85343 0.97803 0.54846 0.0
H3843 H 0.85285 0.99206 0.52769 0.0
C3844 C 0.82708 0.91698 0.53671 0.0
C3845 C 0.81139 0.92384 0.52935 0.0
C3846 C 0.84514 0.92693 0.53397 0.0
C3847 C 0.84787 0.94389 0.52377 0.0
C3848 C 0.83224 0.95073 0.51631 0.0
H3849 H 0.95446 0.01538 0.4953 0.0
H3850 H 0.92122 -0.00079 0.49338 0.0
C3851 C 0.81414 0.94089 0.51922 0.0
C3852 C 0.86714 0.95401 0.52063 0.0
H3853 H 0.89826 -0.00201 0.53033 0.0
C3854 C 0.87903 0.94282 0.51129 0.0
C3855 C 0.87406 0.97421 0.52746 0.0
C3856 C 0.86224 0.98677 0.53835 0.0
C3857 C 0.89774 0.9512 0.50889 0.0
C3858 C 0.90468 0.97124 0.51598 0.0
C3859 C 0.89273 0.98263 0.5248 0.0
C3860 C 0.92474 0.98012 0.51603 0.0
C3861 C 0.91011 0.93856 0.49907 0.0
C3862 C 0.93753 0.9746 0.52935 0.0
C3863 C 0.95633 0.98389 0.53061 0.0
C3864 C 0.96262 -0.00123 0.5185 0.0
C3865 C 0.9499 0.00394 0.50479 0.0
C3866 C 0.93099 0.99477 0.50369 0.0
H3867 H 0.90186 0.92464 0.49114 0.0
H3868 H 0.91874 0.94697 0.48861 0.0
H3869 H 0.91979 0.9345 0.51031 0.0
H3870 H 0.93288 0.96341 0.53907 0.0
H3871 H 0.9659 0.97958 0.54123 0.0
H3872 H 0.87156 0.10747 0.26713 0.0
H3873 H 0.85295 0.13356 0.26951 0.0
H3874 H 0.81257 0.09959 0.22539 0.0
H3875 H 0.83118 0.07345 0.22274 0.0
H3876 H 0.82319 0.13995 0.21946 0.0
H3877 H 0.80309 0.13103 0.2953 0.0
H3878 H 0.82785 0.13428 0.29277 0.0
H3879 H 0.81252 0.11248 0.28083 0.0
C3880 C 0.85871 0.1055 0.25795 0.0
C3881 C 0.85282 0.08832 0.24481 0.0
C3882 C 0.84803 0.12038 0.25941 0.0
C3883 C 0.83122 0.11833 0.24787 0.0
C3884 C 0.82544 0.10137 0.23453 0.0
H3885 H 0.75479 0.20215 0.23653 0.0
H3886 H 0.76842 0.17218 0.23318 0.0
C3887 C 0.8361 0.08646 0.23305 0.0
C3888 C 0.81995 0.13415 0.24944 0.0
H3889 H 0.7973 0.16017 0.28181 0.0
C3890 C 0.81733 0.14426 0.23301 0.0
C3891 C 0.8123 0.13965 0.26713 0.0
C3892 C 0.8139 0.12868 0.28498 0.0
C3893 C 0.80792 0.16032 0.23403 0.0
C3894 C 0.80067 0.16614 0.25188 0.0
C3895 C 0.80289 0.15569 0.26816 0.0
C3896 C 0.79176 0.18378 0.25433 0.0
C3897 C 0.80646 0.17143 0.21625 0.0
C3898 C 0.80003 0.19995 0.26777 0.0
C3899 C 0.79224 0.21699 0.26983 0.0
C3900 C 0.77593 0.21821 0.25854 0.0
C3901 C 0.76737 0.20175 0.24542 0.0
C3902 C 0.77521 0.18466 0.24337 0.0
H3903 H 0.81614 0.16776 0.20511 0.0
H3904 H 0.79197 0.16737 0.20943 0.0
H3905 H 0.8096 0.18774 0.2204 0.0
H3906 H 0.81276 0.19953 0.27643 0.0
H3907 H 0.7992 0.2293 0.28015 0.0
H3908 H 0.72432 0.09592 0.99445 0.0
H3909 H 0.69214 0.07728 0.98982 0.0
H3910 H 0.67156 0.13151 0.0027 0.0
H3911 H 0.70365 0.15033 0.007 0.0
H3912 H 0.66704 0.07404 0.01757 0.0
H3913 H 0.63873 0.10613 0.95429 0.0
H3914 H 0.66352 0.10959 0.96084 0.0
H3915 H 0.64942 0.12484 0.97346 0.0
C3916 C 0.71294 0.10393 0.99604 0.0
C3917 C 0.71652 0.12461 0.00113 0.0
C3918 C 0.69458 0.09325 0.99337 0.0
C3919 C 0.67947 0.10304 0.99566 0.0
C3920 C 0.683 0.12372 0.0004 0.0
H3921 H 0.57057 0.06152 0.03264 0.0
H3922 H 0.60338 0.0753 0.02896 0.0
C3923 C 0.70136 0.13444 0.003 0.0
C3924 C 0.66013 0.09148 0.99477 0.0
H3925 H 0.6161 0.08839 0.97382 0.0
C3926 C 0.65595 0.07699 0.00782 0.0
C3927 C 0.64573 0.09515 0.98185 0.0
C3928 C 0.64959 0.10963 0.96668 0.0
C3929 C 0.6376 0.06669 0.00891 0.0
C3930 C 0.62303 0.07128 0.99689 0.0
C3931 C 0.6273 0.08509 0.9832 0.0
C3932 C 0.60318 0.06261 -0.00102 0.0
C3933 C 0.63396 0.05107 0.02303 0.0
C3934 C 0.59209 0.05129 0.98318 0.0
C3935 C 0.57324 0.04344 0.98517 0.0
C3936 C 0.56515 0.04695 0.00299 0.0
C3937 C 0.57633 0.05842 0.01874 0.0
C3938 C 0.59514 0.06623 0.01672 0.0
H3939 H 0.64678 0.04521 0.02668 0.0
H3940 H 0.62944 0.05777 0.03683 0.0
H3941 H 0.62272 0.03846 0.01695 0.0
H3942 H 0.59806 0.04846 0.96933 0.0
H3943 H 0.56503 0.03471 0.97274 0.0
H3944 H 0.15227 0.43965 0.25282 0.0
H3945 H 0.17789 0.42178 0.25728 0.0
H3946 H 0.21627 0.47725 0.2737 0.0
H3947 H 0.19069 0.49537 0.2693 0.0
H3948 H 0.22842 0.44904 0.24449 0.0
H3949 H 0.20431 0.41589 0.31148 0.0
H3950 H 0.18624 0.41314 0.29213 0.0
H3951 H 0.19677 0.43756 0.30334 0.0
C3952 C 0.16614 0.44808 0.2574 0.0
C3953 C 0.16945 0.46891 0.26078 0.0
C3954 C 0.18072 0.43785 0.26001 0.0
C3955 C 0.19884 0.44825 0.26604 0.0
C3956 C 0.20231 0.46903 0.26916 0.0
H3957 H 0.27347 0.36823 0.29516 0.0
H3958 H 0.26279 0.40002 0.29627 0.0
C3959 C 0.18769 0.47931 0.26667 0.0
C3960 C 0.21407 0.43716 0.26871 0.0
H3961 H 0.22566 0.40003 0.2934 0.0
C3962 C 0.22811 0.43859 0.25542 0.0
C3963 C 0.2138 0.4239 0.28323 0.0
C3964 C 0.19958 0.42262 0.2985 0.0
C3965 C 0.2411 0.4259 0.25535 0.0
C3966 C 0.23976 0.4114 0.26878 0.0
C3967 C 0.22661 0.41109 0.28303 0.0
C3968 C 0.24987 0.3947 0.26677 0.0
C3969 C 0.25573 0.42771 0.24054 0.0
C3970 C 0.24654 0.38146 0.24965 0.0
C3971 C 0.25256 0.36337 0.24902 0.0
C3972 C 0.26188 0.35819 0.26554 0.0
C3973 C 0.26629 0.37193 0.28224 0.0
C3974 C 0.26023 0.39006 0.28288 0.0
H3975 H 0.25934 0.44319 0.23657 0.0
H3976 H 0.26868 0.42316 0.24611 0.0
H3977 H 0.2501 0.41796 0.227 0.0
H3978 H 0.23821 0.38451 0.23722 0.0
H3979 H 0.249 0.35301 0.23597 0.0
H3980 H 0.21983 0.45456 0.03814 0.0
H3981 H 0.19562 0.47491 0.03895 0.0
H3982 H 0.15296 0.42204 0.02621 0.0
H3983 H 0.17699 0.40165 0.02507 0.0
H3984 H 0.14862 0.45156 0.00286 0.0
H3985 H 0.15898 0.48136 0.08126 0.0
H3986 H 0.17966 0.48537 0.06784 0.0
H3987 H 0.1687 0.46049 0.07161 0.0
C3988 C 0.20529 0.44726 0.03561 0.0
C3989 C 0.20034 0.42647 0.03155 0.0
C3990 C 0.19147 0.45891 0.0362 0.0
C3991 C 0.17249 0.44996 0.0329 0.0
C3992 C 0.16753 0.42924 0.02887 0.0
H3993 H 0.07021 0.49172 0.05185 0.0
H3994 H 0.0986 0.47763 0.05433 0.0
C3995 C 0.1813 0.4176 0.02822 0.0
C3996 C 0.15771 0.46211 0.03284 0.0
H3997 H 0.13713 0.49383 0.06159 0.0
C3998 C 0.14614 0.46087 0.01568 0.0
C3999 C 0.15444 0.47408 0.04964 0.0
C4000 C 0.16597 0.47534 0.06871 0.0
C4001 C 0.13128 0.47114 0.01487 0.0
C4002 C 0.12813 0.48333 0.03158 0.0
C4003 C 0.13974 0.48466 0.04875 0.0
C4004 C 0.11215 0.49382 0.03175 0.0
C4005 C 0.11869 0.46833 0.99632 0.0
C4006 C 0.11067 0.50813 0.01875 0.0
C4007 C 0.09444 0.51613 0.01727 0.0
C4008 C 0.07954 0.51004 0.02889 0.0
C4009 C 0.08149 0.49661 0.0427 0.0
C4010 C 0.09769 0.48857 0.04413 0.0
H4011 H 0.1204 0.45511 0.98656 0.0
H4012 H 0.10376 0.46664 -0.00033 0.0
H4013 H 0.12223 0.4816 0.9882 0.0
H4014 H 0.12183 0.51265 0.00933 0.0
H4015 H 0.09331 0.52656 0.00659 0.0
H4016 H 0.83065 0.98258 0.24153 0.0
H4017 H 0.81331 0.9492 0.24452 0.0
H4018 H 0.83209 0.92824 0.18941 0.0
H4019 H 0.84991 0.96161 0.18647 0.0
H4020 H 0.78522 0.92465 0.22135 0.0
H4021 H 0.84863 0.8909 0.22649 0.0
H4022 H 0.84986 0.91743 0.22827 0.0
H4023 H 0.84595 0.90305 0.20478 0.0
C4024 C 0.83104 0.97093 0.22996 0.0
C4025 C 0.84181 0.97472 0.21384 0.0
C4026 C 0.8211 0.95185 0.2317 0.0
C4027 C 0.8217 0.93618 0.21738 0.0
C4028 C 0.8318 0.94004 0.20085 0.0
H4029 H 0.74731 0.82037 0.21619 0.0
H4030 H 0.76362 0.85241 0.2072 0.0
C4031 C 0.84186 0.95915 0.19914 0.0
C4032 C 0.81198 0.91581 0.22009 0.0
H4033 H 0.81941 0.86922 0.22656 0.0
C4034 C 0.79266 0.91249 0.2224 0.0
C4035 C 0.8218 0.90007 0.22172 0.0
C4036 C 0.84273 0.903 0.22037 0.0
C4037 C 0.78289 0.8939 0.22647 0.0
C4038 C 0.79266 0.87808 0.22782 0.0
C4039 C 0.81195 0.88135 0.22536 0.0
C4040 C 0.78328 0.85828 0.23265 0.0
C4041 C 0.76235 0.89157 0.22997 0.0
C4042 C 0.78936 0.85066 0.24956 0.0
C4043 C 0.7802 0.83229 0.2546 0.0
C4044 C 0.76483 0.82127 0.24278 0.0
C4045 C 0.75901 0.8287 0.22564 0.0
C4046 C 0.76825 0.84701 0.22055 0.0
H4047 H 0.75819 0.90618 0.23332 0.0
H4048 H 0.75394 0.88399 0.2166 0.0
H4049 H 0.75878 0.88244 0.24224 0.0
H4050 H 0.80099 0.85909 0.25905 0.0
H4051 H 0.78497 0.82687 0.26788 0.0
H4052 H 0.6595 0.04491 0.76123 0.0
H4053 H 0.67876 0.07823 0.76344 0.0
H4054 H 0.63757 0.09707 0.7261 0.0
H4055 H 0.61811 0.0637 0.72374 0.0
H4056 H 0.69254 0.09819 0.72979 0.0
H4057 H 0.64857 0.13957 0.77525 0.0
H4058 H 0.64648 0.11292 0.77432 0.0
H4059 H 0.63678 0.1237 0.75436 0.0
C4060 C 0.65442 0.05615 0.7536 0.0
C4061 C 0.63726 0.05166 0.7423 0.0
C4062 C 0.66547 0.07516 0.75487 0.0
C4063 C 0.65949 0.09005 0.74504 0.0
C4064 C 0.64228 0.08577 0.73396 0.0
H4065 H 0.72348 0.20223 0.71771 0.0
H4066 H 0.70393 0.16911 0.71649 0.0
C4067 C 0.63123 0.0667 0.73259 0.0
C4068 C 0.67167 0.10984 0.7458 0.0
H4069 H 0.67516 0.15856 0.76294 0.0
C4070 C 0.68878 0.11141 0.73702 0.0
C4071 C 0.6667 0.12694 0.7554 0.0
C4072 C 0.6487 0.12581 0.76552 0.0
C4073 C 0.70102 0.12978 0.73741 0.0
C4074 C 0.69592 0.14692 0.74675 0.0
C4075 C 0.67892 0.14533 0.75572 0.0
C4076 C 0.70814 0.16668 0.74744 0.0
C4077 C 0.71941 0.13075 0.72805 0.0
C4078 C 0.71686 0.17621 0.76529 0.0
C4079 C 0.72811 0.1951 0.76607 0.0
C4080 C 0.73063 0.20486 0.74901 0.0
C4081 C 0.72186 0.19517 0.73113 0.0
C4082 C 0.71073 0.17622 0.73036 0.0
H4083 H 0.72274 0.11576 0.72464 0.0
H4084 H 0.7187 0.13776 0.7142 0.0
H4085 H 0.73099 0.14002 0.7378 0.0
H4086 H 0.71494 0.16902 0.77862 0.0
H4087 H 0.73456 0.20215 0.7801 0.0
loop_
_geom_bond_atom_site_label_1
_geom_bond_atom_site_label_2
_geom_bond_distance
_geom_bond_site_symmetry_2
_ccdc_geom_bond_type
C0 O1 1.160 . S
C0 O7 1.185 . S
O1 C0 1.160 . S
O2 Zn3 1.899 . S
O2 C10 1.284 . S
Zn3 O2 1.899 . S
Zn3 O4 2.032 . S
Zn3 O7 2.086 . S
Zn3 O12 1.977 1_455 S
O4 Zn3 2.032 . S
O4 C8 1.278 . S
C5 O6 1.203 . S
C5 O12 1.267 . S
O6 C5 1.203 . S
O7 C0 1.185 . S
O7 Zn3 2.086 . S
C8 O4 1.278 . S
C8 O9 1.211 1_455 S
O9 C8 1.211 1_655 S
C10 O2 1.284 . S
C10 O11 1.273 . S
O11 C10 1.273 . S
O12 Zn3 1.977 1_655 S
O12 C5 1.267 . S
C13 O14 1.160 . S
C13 O20 1.185 . S
O14 C13 1.160 . S
O15 Zn16 1.899 . S
O15 C23 1.284 . S
Zn16 O15 1.899 . S
Zn16 O17 2.037 . S
Zn16 O20 2.086 1_455 S
Zn16 O25 1.977 . S
O17 Zn16 2.037 . S
O17 C21 1.290 . S
C18 O19 1.203 . S
C18 O25 1.267 . S
O19 C18 1.203 . S
O20 C13 1.185 . S
O20 Zn16 2.086 1_655 S
C21 O17 1.290 . S
C21 O22 1.211 . S
O22 C21 1.211 . S
C23 O15 1.284 . S
C23 O24 1.273 . S
O24 C23 1.273 . S
O25 Zn16 1.977 . S
O25 C18 1.267 . S
C26 O27 1.160 . S
C26 O33 1.185 . S
O27 C26 1.160 . S
O28 Zn29 1.899 . S
O28 C36 1.284 . S
Zn29 O28 1.899 . S
Zn29 O30 2.032 . S
Zn29 O33 2.086 . S
Zn29 O38 1.977 . S
O30 Zn29 2.032 . S
O30 C34 1.278 . S
C31 O32 1.203 . S
C31 O38 1.267 . S
O32 C31 1.203 . S
O33 C26 1.185 . S
O33 Zn29 2.086 . S
C34 O30 1.278 . S
C34 O35 1.211 . S
O35 C34 1.211 . S
C36 O28 1.284 . S
C36 O37 1.273 . S
O37 C36 1.273 . S
O38 Zn29 1.977 . S
O38 C31 1.267 . S
C39 O40 1.160 . S
C39 O46 1.185 . S
O40 C39 1.160 . S
O41 Zn42 1.899 . S
O41 C49 1.284 . S
Zn42 O41 1.899 . S
Zn42 O43 2.032 . S
Zn42 O46 2.086 . S
Zn42 O51 1.977 . S
O43 Zn42 2.032 . S
O43 C47 1.278 . S
C44 O45 1.203 . S
C44 O51 1.267 . S
O45 C44 1.203 . S
O46 C39 1.185 . S
O46 Zn42 2.086 . S
C47 O43 1.278 . S
C47 O48 1.211 . S
O48 C47 1.211 . S
C49 O41 1.284 . S
C49 O50 1.273 . S
O50 C49 1.273 . S
O51 Zn42 1.977 . S
O51 C44 1.267 . S
C52 O53 1.160 . S
C52 O59 1.185 . S
O53 C52 1.160 . S
O54 Zn55 1.899 . S
O54 C62 1.284 . S
Zn55 O54 1.899 . S
Zn55 O56 2.032 . S
Zn55 O59 2.086 1_455 S
Zn55 O64 1.977 . S
O56 Zn55 2.032 . S
O56 C60 1.278 . S
C57 O58 1.203 . S
C57 O64 1.267 . S
O58 C57 1.203 . S
O59 C52 1.185 . S
O59 Zn55 2.086 1_655 S
C60 O56 1.278 . S
C60 O61 1.211 . S
O61 C60 1.211 . S
C62 O54 1.284 . S
C62 O63 1.273 . S
O63 C62 1.273 . S
O64 Zn55 1.977 . S
O64 C57 1.267 . S
C65 O66 1.160 . S
C65 O72 1.185 . S
O66 C65 1.160 . S
O67 Zn68 1.899 . S
O67 C75 1.284 . S
Zn68 O67 1.899 . S
Zn68 O69 2.032 . S
Zn68 O72 2.086 . S
Zn68 O77 1.977 . S
O69 Zn68 2.032 . S
O69 C73 1.278 . S
C70 O71 1.203 . S
C70 O77 1.267 . S
O71 C70 1.203 . S
O72 C65 1.185 . S
O72 Zn68 2.086 . S
C73 O69 1.278 . S
C73 O74 1.211 . S
O74 C73 1.211 . S
C75 O67 1.284 . S
C75 O76 1.273 . S
O76 C75 1.273 . S
O77 Zn68 1.977 . S
O77 C70 1.267 . S
C78 O79 1.160 . S
C78 O85 1.185 . S
O79 C78 1.160 . S
O80 Zn81 1.899 . S
O80 C88 1.284 . S
Zn81 O80 1.899 . S
Zn81 O82 2.032 . S
Zn81 O85 2.086 . S
Zn81 O90 1.977 . S
O82 Zn81 2.032 . S
O82 C86 1.278 . S
C83 O84 1.203 . S
C83 O90 1.267 . S
O84 C83 1.203 . S
O85 C78 1.185 . S
O85 Zn81 2.086 . S
C86 O82 1.278 . S
C86 O87 1.211 . S
O87 C86 1.211 . S
C88 O80 1.284 . S
C88 O89 1.273 . S
O89 C88 1.273 . S
O90 Zn81 1.977 . S
O90 C83 1.267 . S
C91 O92 1.160 . S
C91 O98 1.185 . S
O92 C91 1.160 . S
O93 Zn94 1.899 . S
O93 C101 1.281 1_455 S
Zn94 O93 1.899 . S
Zn94 O95 2.032 . S
Zn94 O98 2.086 . S
Zn94 O103 1.977 1_455 S
O95 Zn94 2.032 . S
O95 C99 1.278 . S
C96 O97 1.203 . S
C96 O103 1.267 . S
O97 C96 1.203 . S
O98 C91 1.185 . S
O98 Zn94 2.086 . S
C99 O95 1.278 . S
C99 O100 1.211 1_455 S
O100 C99 1.211 1_655 S
C101 O93 1.281 1_655 S
C101 O102 1.279 . S
O102 C101 1.279 . S
O103 Zn94 1.977 1_655 S
O103 C96 1.267 . S
C104 O105 1.160 . S
C104 O111 1.185 . S
O105 C104 1.160 . S
O106 Zn107 1.899 . S
O106 C114 1.284 . S
Zn107 O106 1.899 . S
Zn107 O108 2.032 . S
Zn107 O111 2.086 . S
Zn107 O116 2.013 . S
O108 Zn107 2.032 . S
O108 C112 1.278 . S
C109 O110 1.203 . S
C109 O116 1.222 1_565 S
O110 C109 1.203 . S
O111 C104 1.185 . S
O111 Zn107 2.086 . S
C112 O108 1.278 . S
C112 O113 1.211 . S
O113 C112 1.211 . S
C114 O106 1.284 . S
C114 O115 1.273 . S
O115 C114 1.273 . S
O116 Zn107 2.013 . S
O116 C109 1.222 1_545 S
C117 O118 1.160 . S
C117 O124 1.185 . S
O118 C117 1.160 . S
O119 Zn120 1.899 . S
O119 C127 1.284 . S
Zn120 O119 1.899 . S
Zn120 O121 2.032 . S
Zn120 O124 2.086 . S
Zn120 O129 1.977 . S
O121 Zn120 2.032 . S
O121 C125 1.278 . S
C122 O123 1.203 . S
C122 O129 1.267 . S
O123 C122 1.203 . S
O124 C117 1.185 . S
O124 Zn120 2.086 . S
C125 O121 1.278 . S
C125 O126 1.211 . S
O126 C125 1.211 . S
C127 O119 1.284 . S
C127 O128 1.273 . S
O128 C127 1.273 . S
O129 Zn120 1.977 . S
O129 C122 1.267 . S
C130 O131 1.160 . S
C130 O137 1.185 . S
O131 C130 1.160 . S
O132 Zn133 1.899 . S
O132 C140 1.284 . S
Zn133 O132 1.899 . S
Zn133 O134 2.032 . S
Zn133 O137 2.086 . S
Zn133 O142 1.977 1_565 S
O134 Zn133 2.032 . S
O134 C138 1.278 1_565 S
C135 O136 1.203 . S
C135 O142 1.267 . S
O136 C135 1.203 . S
O137 C130 1.185 . S
O137 Zn133 2.086 . S
C138 O134 1.278 1_545 S
C138 O139 1.211 . S
O139 C138 1.211 . S
C140 O132 1.284 . S
C140 O141 1.273 1_565 S
O141 C140 1.273 1_545 S
O142 Zn133 1.977 1_545 S
O142 C135 1.267 . S
C143 O144 1.160 . S
C143 O150 1.185 . S
O144 C143 1.160 . S
O145 Zn146 1.899 . S
O145 C153 1.284 . S
Zn146 O145 1.899 . S
Zn146 O147 2.032 . S
Zn146 O150 2.086 . S
Zn146 O155 1.977 . S
O147 Zn146 2.032 . S
O147 C151 1.278 1_554 S
C148 O149 1.203 . S
C148 O155 1.267 . S
O149 C148 1.203 . S
O150 C143 1.185 . S
O150 Zn146 2.086 . S
C151 O147 1.278 1_556 S
C151 O152 1.211 . S
O152 C151 1.211 . S
C153 O145 1.284 . S
C153 O154 1.273 . S
O154 C153 1.273 . S
O155 Zn146 1.977 . S
O155 C148 1.267 . S
C156 O157 1.160 . S
C156 O163 1.185 . S
O157 C156 1.160 . S
O158 Zn159 1.899 . S
O158 C166 1.284 . S
Zn159 O158 1.899 . S
Zn159 O160 2.032 1_554 S
Zn159 O163 2.086 . S
Zn159 O168 1.977 . S
O160 Zn159 2.032 1_556 S
O160 C164 1.278 . S
C161 O162 1.203 . S
C161 O168 1.267 . S
O162 C161 1.203 . S
O163 C156 1.185 . S
O163 Zn159 2.086 . S
C164 O160 1.278 . S
C164 O165 1.211 . S
O165 C164 1.211 . S
C166 O158 1.284 . S
C166 O167 1.273 . S
O167 C166 1.273 . S
O168 Zn159 1.977 . S
O168 C161 1.267 . S
C169 O170 1.160 . S
C169 O176 1.185 1_554 S
O170 C169 1.160 . S
O171 Zn172 1.899 . S
O171 C179 1.284 . S
Zn172 O171 1.899 . S
Zn172 O173 2.032 1_554 S
Zn172 O176 2.086 1_554 S
Zn172 O181 1.977 1_554 S
O173 Zn172 2.032 1_556 S
O173 C177 1.278 . S
C174 O175 1.220 . S
C174 O181 1.255 1_554 S
O175 C174 1.220 . S
O176 C169 1.185 1_556 S
O176 Zn172 2.086 1_556 S
C177 O173 1.278 . S
C177 O178 1.211 . S
O178 C177 1.211 . S
C179 O171 1.284 . S
C179 O180 1.273 . S
O180 C179 1.273 . S
O181 Zn172 1.977 1_556 S
O181 C174 1.255 1_556 S
C182 O183 1.160 . S
C182 O189 1.185 . S
O183 C182 1.160 . S
O184 Zn185 1.899 . S
O184 C192 1.284 . S
Zn185 O184 1.899 . S
Zn185 O186 2.032 . S
Zn185 O189 2.086 . S
Zn185 O194 1.977 . S
O186 Zn185 2.032 . S
O186 C190 1.278 . S
C187 O188 1.203 . S
C187 O194 1.267 . S
O188 C187 1.203 . S
O189 C182 1.185 . S
O189 Zn185 2.086 . S
C190 O186 1.278 . S
C190 O191 1.211 . S
O191 C190 1.211 . S
C192 O184 1.284 . S
C192 O193 1.273 . S
O193 C192 1.273 . S
O194 Zn185 1.977 . S
O194 C187 1.267 . S
C195 O196 1.160 . S
C195 O202 1.185 . S
O196 C195 1.160 . S
O197 Zn198 1.899 . S
O197 C205 1.284 . S
Zn198 O197 1.899 . S
Zn198 O199 2.032 . S
Zn198 O202 2.086 . S
Zn198 O207 1.977 . S
O199 Zn198 2.032 . S
O199 C203 1.278 . S
C200 O201 1.203 . S
C200 O207 1.267 . S
O201 C200 1.203 . S
O202 C195 1.185 . S
O202 Zn198 2.086 . S
C203 O199 1.278 . S
C203 O204 1.211 . S
O204 C203 1.211 . S
C205 O197 1.284 . S
C205 O206 1.273 . S
O206 C205 1.273 . S
O207 Zn198 1.977 . S
O207 C200 1.267 . S
C208 O209 1.160 . S
C208 O215 1.185 . S
O209 C208 1.160 . S
O210 Zn211 1.899 . S
O210 C218 1.284 . S
Zn211 O210 1.899 . S
Zn211 O212 2.032 . S
Zn211 O215 2.086 . S
Zn211 O220 1.977 . S
O212 Zn211 2.032 . S
O212 C216 1.278 . S
C213 O214 1.203 . S
C213 O220 1.267 . S
O214 C213 1.203 . S
O215 C208 1.185 . S
O215 Zn211 2.086 . S
C216 O212 1.278 . S
C216 O217 1.211 . S
O217 C216 1.211 . S
C218 O210 1.284 . S
C218 O219 1.273 . S
O219 C218 1.273 . S
O220 Zn211 1.977 . S
O220 C213 1.267 . S
C221 O222 1.160 . S
C221 O228 1.185 . S
O222 C221 1.160 . S
O223 Zn224 1.899 . S
O223 C231 1.284 . S
Zn224 O223 1.899 . S
Zn224 O225 2.032 . S
Zn224 O228 2.086 . S
Zn224 O233 1.977 . S
O225 Zn224 2.032 . S
O225 C229 1.278 . S
C226 O227 1.203 . S
C226 O233 1.267 . S
O227 C226 1.203 . S
O228 C221 1.185 . S
O228 Zn224 2.086 . S
C229 O225 1.278 . S
C229 O230 1.211 . S
O230 C229 1.211 . S
C231 O223 1.284 . S
C231 O232 1.273 . S
O232 C231 1.273 . S
O233 Zn224 1.977 . S
O233 C226 1.267 . S
C234 O235 1.160 . S
C234 O241 1.185 . S
O235 C234 1.160 . S
O236 Zn237 1.899 . S
O236 C244 1.284 . S
Zn237 O236 1.899 . S
Zn237 O238 2.032 . S
Zn237 O241 2.086 . S
Zn237 O246 1.977 . S
O238 Zn237 2.032 . S
O238 C242 1.278 . S
C239 O240 1.203 . S
C239 O246 1.267 . S
O240 C239 1.203 . S
O241 C234 1.185 . S
O241 Zn237 2.086 . S
C242 O238 1.278 . S
C242 O243 1.211 . S
O243 C242 1.211 . S
C244 O236 1.284 . S
C244 O245 1.273 . S
O245 C244 1.273 . S
O246 Zn237 1.977 . S
O246 C239 1.267 . S
C247 O248 1.160 . S
C247 O254 1.185 1_565 S
O248 C247 1.160 . S
O249 Zn250 1.899 . S
O249 C257 1.284 . S
Zn250 O249 1.899 . S
Zn250 O251 2.032 . S
Zn250 O254 2.086 . S
Zn250 O259 1.977 . S
O251 Zn250 2.032 . S
O251 C255 1.278 . S
C252 O253 1.203 . S
C252 O259 1.267 . S
O253 C252 1.203 . S
O254 C247 1.185 1_545 S
O254 Zn250 2.086 . S
C255 O251 1.278 . S
C255 O256 1.211 . S
O256 C255 1.211 . S
C257 O249 1.284 . S
C257 O258 1.273 . S
O258 C257 1.273 . S
O259 Zn250 1.977 . S
O259 C252 1.267 . S
C260 O261 1.160 . S
C260 O267 1.185 . S
O261 C260 1.160 . S
O262 Zn263 1.899 . S
O262 C270 1.284 . S
Zn263 O262 1.899 . S
Zn263 O264 2.032 1_554 S
Zn263 O267 2.086 . S
Zn263 O272 1.977 . S
O264 Zn263 2.032 1_556 S
O264 C268 1.278 . S
C265 O266 1.203 . S
C265 O272 1.267 . S
O266 C265 1.203 . S
O267 C260 1.185 . S
O267 Zn263 2.086 . S
C268 O264 1.278 . S
C268 O269 1.211 . S
O269 C268 1.211 . S
C270 O262 1.284 . S
C270 O271 1.273 . S
O271 C270 1.273 . S
O272 Zn263 1.977 . S
O272 C265 1.267 . S
C273 O274 1.160 . S
C273 O280 1.185 . S
O274 C273 1.160 . S
O275 Zn276 1.899 . S
O275 C283 1.284 . S
Zn276 O275 1.899 . S
Zn276 O277 2.032 . S
Zn276 O280 2.086 . S
Zn276 O285 1.977 . S
O277 Zn276 2.032 . S
O277 C281 1.278 . S
C278 O279 1.203 . S
C278 O285 1.267 . S
O279 C278 1.203 . S
O280 C273 1.185 . S
O280 Zn276 2.086 . S
C281 O277 1.278 . S
C281 O282 1.211 . S
O282 C281 1.211 . S
C283 O275 1.284 . S
C283 O284 1.273 . S
O284 C283 1.273 . S
O285 Zn276 1.977 . S
O285 C278 1.267 . S
C286 O287 1.160 . S
C286 O293 1.185 . S
O287 C286 1.160 . S
O288 Zn289 1.899 . S
O288 C296 1.284 . S
Zn289 O288 1.899 . S
Zn289 O290 2.032 . S
Zn289 O293 2.086 . S
Zn289 O298 1.977 . S
O290 Zn289 2.032 . S
O290 C294 1.278 . S
C291 O292 1.203 . S
C291 O298 1.267 . S
O292 C291 1.203 . S
O293 C286 1.185 . S
O293 Zn289 2.086 . S
C294 O290 1.278 . S
C294 O295 1.211 . S
O295 C294 1.211 . S
C296 O288 1.284 . S
C296 O297 1.273 . S
O297 C296 1.273 . S
O298 Zn289 1.977 . S
O298 C291 1.267 . S
C299 O300 1.160 . S
C299 O306 1.185 . S
O300 C299 1.160 . S
O301 Zn302 1.899 . S
O301 C309 1.284 . S
Zn302 O301 1.899 . S
Zn302 O303 2.032 . S
Zn302 O306 2.086 . S
Zn302 O311 1.977 . S
O303 Zn302 2.032 . S
O303 C307 1.278 . S
C304 O305 1.203 . S
C304 O311 1.267 . S
O305 C304 1.203 . S
O306 C299 1.185 . S
O306 Zn302 2.086 . S
C307 O303 1.278 . S
C307 O308 1.211 . S
O308 C307 1.211 . S
C309 O301 1.284 . S
C309 O310 1.273 . S
O310 C309 1.273 . S
O311 Zn302 1.977 . S
O311 C304 1.267 . S
Dy312 O316 2.413 . S
Dy312 O317 2.486 1_556 S
Dy312 O318 2.426 . S
Dy312 O319 2.670 1_655 S
Dy312 O323 2.334 . S
Dy312 O327 2.296 1_556 S
Dy312 O328 2.342 1_546 S
C313 O324 1.185 . S
C313 O325 1.355 . S
C314 O316 1.185 . S
C314 O317 1.355 1_556 S
Dy315 O319 2.310 1_554 S
Dy315 O322 2.351 . S
Dy315 O324 2.398 . S
Dy315 O325 2.491 . S
Dy315 O326 2.403 . S
Dy315 O327 2.651 1_455 S
Dy315 O329 2.326 1_545 S
O316 Dy312 2.413 . S
O316 C314 1.185 . S
O317 Dy312 2.486 1_554 S
O317 C314 1.355 1_554 S
O318 Dy312 2.426 . S
O318 C320 1.254 1_655 S
O319 Dy312 2.670 1_455 S
O319 Dy315 2.310 1_556 S
O319 C320 1.268 . S
C320 O318 1.254 1_455 S
C320 O319 1.268 . S
C321 O326 1.254 . S
C321 O327 1.265 1_455 S
O322 Dy315 2.351 . S
O322 C330 1.249 . S
O323 Dy312 2.334 . S
O323 C330 1.267 1_656 S
O324 C313 1.185 . S
O324 Dy315 2.398 . S
O325 C313 1.355 . S
O325 Dy315 2.491 . S
O326 Dy315 2.403 . S
O326 C321 1.254 . S
O327 Dy312 2.296 1_554 S
O327 Dy315 2.651 1_655 S
O327 C321 1.265 1_655 S
O328 Dy312 2.342 1_564 S
O328 C331 1.249 1_655 S
O329 Dy315 2.326 1_565 S
O329 C331 1.267 . S
C330 O322 1.249 . S
C330 O323 1.267 1_454 S
C331 O328 1.249 1_455 S
C331 O329 1.267 . S
Dy332 O336 2.398 . S
Dy332 O337 2.491 . S
Dy332 O338 2.403 . S
Dy332 O339 2.664 . S
Dy332 O343 2.326 . S
Dy332 O347 2.310 . S
Dy332 O348 2.351 . S
C333 O344 1.185 . S
C333 O345 1.355 . S
C334 O336 1.185 . S
C334 O337 1.355 . S
Dy335 O339 2.310 . S
Dy335 O342 2.351 . S
Dy335 O344 2.398 . S
Dy335 O345 2.491 . S
Dy335 O346 2.403 . S
Dy335 O347 2.664 . S
Dy335 O349 2.326 . S
O336 Dy332 2.398 . S
O336 C334 1.185 . S
O337 Dy332 2.491 . S
O337 C334 1.355 . S
O338 Dy332 2.403 . S
O338 C340 1.254 . S
O339 Dy332 2.664 . S
O339 Dy335 2.310 . S
O339 C340 1.268 . S
C340 O338 1.254 . S
C340 O339 1.268 . S
C341 O346 1.254 . S
C341 O347 1.268 . S
O342 Dy335 2.351 . S
O342 C350 1.249 . S
O343 Dy332 2.326 . S
O343 C350 1.267 . S
O344 C333 1.185 . S
O344 Dy335 2.398 . S
O345 C333 1.355 . S
O345 Dy335 2.491 . S
O346 Dy335 2.403 . S
O346 C341 1.254 . S
O347 Dy332 2.310 . S
O347 Dy335 2.664 . S
O347 C341 1.268 . S
O348 Dy332 2.351 . S
O348 C351 1.249 . S
O349 Dy335 2.326 . S
O349 C351 1.267 . S
C350 O342 1.249 . S
C350 O343 1.267 . S
C351 O348 1.249 . S
C351 O349 1.267 . S
Dy352 O356 2.398 . S
Dy352 O357 2.491 . S
Dy352 O358 2.403 . S
Dy352 O359 2.664 . S
Dy352 O363 2.280 1_545 S
Dy352 O367 2.310 . S
Dy352 O368 2.351 . S
C353 O364 1.185 . S
C353 O365 1.355 . S
C354 O356 1.185 . S
C354 O357 1.355 . S
Dy355 O359 2.310 . S
Dy355 O362 2.351 1_545 S
Dy355 O364 2.398 . S
Dy355 O365 2.491 . S
Dy355 O366 2.403 . S
Dy355 O367 2.664 . S
Dy355 O369 2.326 . S
O356 Dy352 2.398 . S
O356 C354 1.185 . S
O357 Dy352 2.491 . S
O357 C354 1.355 . S
O358 Dy352 2.403 . S
O358 C360 1.254 . S
O359 Dy352 2.664 . S
O359 Dy355 2.310 . S
O359 C360 1.268 . S
C360 O358 1.254 . S
C360 O359 1.268 . S
C361 O366 1.254 . S
C361 O367 1.268 . S
O362 Dy355 2.351 1_565 S
O362 C370 1.249 . S
O363 Dy352 2.280 1_565 S
O363 C370 1.296 . S
O364 C353 1.185 . S
O364 Dy355 2.398 . S
O365 C353 1.355 . S
O365 Dy355 2.491 . S
O366 Dy355 2.403 . S
O366 C361 1.254 . S
O367 Dy352 2.310 . S
O367 Dy355 2.664 . S
O367 C361 1.268 . S
O368 Dy352 2.351 . S
O368 C371 1.249 . S
O369 Dy355 2.326 . S
O369 C371 1.267 . S
C370 O362 1.249 . S
C370 O363 1.296 . S
C371 O368 1.249 . S
C371 O369 1.267 . S
Dy372 O376 2.398 . S
Dy372 O377 2.491 . S
Dy372 O378 2.403 . S
Dy372 O379 2.664 . S
Dy372 O383 2.326 . S
Dy372 O387 2.310 . S
Dy372 O388 2.351 . S
C373 O384 1.185 . S
C373 O385 1.355 . S
C374 O376 1.185 . S
C374 O377 1.355 . S
Dy375 O379 2.310 . S
Dy375 O382 2.351 . S
Dy375 O384 2.398 . S
Dy375 O385 2.491 . S
Dy375 O386 2.403 . S
Dy375 O387 2.664 . S
Dy375 O389 2.326 . S
O376 Dy372 2.398 . S
O376 C374 1.185 . S
O377 Dy372 2.491 . S
O377 C374 1.355 . S
O378 Dy372 2.403 . S
O378 C380 1.254 . S
O379 Dy372 2.664 . S
O379 Dy375 2.310 . S
O379 C380 1.268 . S
C380 O378 1.254 . S
C380 O379 1.268 . S
C381 O386 1.254 . S
C381 O387 1.268 . S
O382 Dy375 2.351 . S
O382 C390 1.249 . S
O383 Dy372 2.326 . S
O383 C390 1.267 . S
O384 C373 1.185 . S
O384 Dy375 2.398 . S
O385 C373 1.355 . S
O385 Dy375 2.491 . S
O386 Dy375 2.403 . S
O386 C381 1.254 . S
O387 Dy372 2.310 . S
O387 Dy375 2.664 . S
O387 C381 1.268 . S
O388 Dy372 2.351 . S
O388 C391 1.249 . S
O389 Dy375 2.326 . S
O389 C391 1.267 . S
C390 O382 1.249 . S
C390 O383 1.267 . S
C391 O388 1.249 . S
C391 O389 1.267 . S
Dy392 O396 2.398 . S
Dy392 O397 2.491 1_455 S
Dy392 O398 2.403 . S
Dy392 O399 2.664 . S
Dy392 O403 2.326 . S
Dy392 O407 2.310 1_455 S
Dy392 O408 2.351 1_545 S
C393 O404 1.185 . S
C393 O405 1.355 . S
C394 O396 1.185 1_655 S
C394 O397 1.355 . S
Dy395 O399 2.310 . S
Dy395 O402 2.351 . S
Dy395 O404 2.398 . S
Dy395 O405 2.491 . S
Dy395 O406 2.403 1_455 S
Dy395 O407 2.664 1_455 S
Dy395 O409 2.326 . S
O396 Dy392 2.398 . S
O396 C394 1.185 1_455 S
O397 Dy392 2.491 1_655 S
O397 C394 1.355 . S
O398 Dy392 2.403 . S
O398 C400 1.254 . S
O399 Dy392 2.664 . S
O399 Dy395 2.310 . S
O399 C400 1.268 . S
C400 O398 1.254 . S
C400 O399 1.268 . S
C401 O406 1.254 . S
C401 O407 1.268 . S
O402 Dy395 2.351 . S
O402 C410 1.249 . S
O403 Dy392 2.326 . S
O403 C410 1.267 . S
O404 C393 1.185 . S
O404 Dy395 2.398 . S
O405 C393 1.355 . S
O405 Dy395 2.491 . S
O406 Dy395 2.403 1_655 S
O406 C401 1.254 . S
O407 Dy392 2.310 1_655 S
O407 Dy395 2.664 1_655 S
O407 C401 1.268 . S
O408 Dy392 2.351 1_565 S
O408 C411 1.249 . S
O409 Dy395 2.326 . S
O409 C411 1.267 1_545 S
C410 O402 1.249 . S
C410 O403 1.267 . S
C411 O408 1.249 . S
C411 O409 1.267 1_565 S
Dy412 O416 2.398 . S
Dy412 O417 2.491 . S
Dy412 O418 2.403 . S
Dy412 O419 2.664 . S
Dy412 O423 2.326 . S
Dy412 O427 2.310 . S
Dy412 O428 2.351 . S
C413 O424 1.185 . S
C413 O425 1.355 . S
C414 O416 1.185 . S
C414 O417 1.355 . S
Dy415 O419 2.310 . S
Dy415 O422 2.351 . S
Dy415 O424 2.398 . S
Dy415 O425 2.491 . S
Dy415 O426 2.403 . S
Dy415 O427 2.664 . S
Dy415 O429 2.326 . S
O416 Dy412 2.398 . S
O416 C414 1.185 . S
O417 Dy412 2.491 . S
O417 C414 1.355 . S
O418 Dy412 2.403 . S
O418 C420 1.254 . S
O419 Dy412 2.664 . S
O419 Dy415 2.310 . S
O419 C420 1.268 . S
C420 O418 1.254 . S
C420 O419 1.268 . S
C421 O426 1.254 . S
C421 O427 1.268 . S
O422 Dy415 2.351 . S
O422 C430 1.249 . S
O423 Dy412 2.326 . S
O423 C430 1.267 . S
O424 C413 1.185 . S
O424 Dy415 2.398 . S
O425 C413 1.355 . S
O425 Dy415 2.491 . S
O426 Dy415 2.403 . S
O426 C421 1.254 . S
O427 Dy412 2.310 . S
O427 Dy415 2.664 . S
O427 C421 1.268 . S
O428 Dy412 2.351 . S
O428 C431 1.249 . S
O429 Dy415 2.326 . S
O429 C431 1.267 . S
C430 O422 1.249 . S
C430 O423 1.267 . S
C431 O428 1.249 . S
C431 O429 1.267 . S
Dy432 O436 2.398 1_545 S
Dy432 O437 2.491 . S
Dy432 O438 2.403 1_545 S
Dy432 O439 2.664 . S
Dy432 O443 2.326 . S
Dy432 O447 2.310 . S
Dy432 O448 2.351 . S
C433 O444 1.185 . S
C433 O445 1.355 . S
C434 O436 1.185 1_545 S
C434 O437 1.355 . S
Dy435 O439 2.310 1_556 S
Dy435 O442 2.350 1_556 S
Dy435 O444 2.398 . S
Dy435 O445 2.491 . S
Dy435 O446 2.403 1_556 S
Dy435 O447 2.664 1_556 S
Dy435 O449 2.326 1_556 S
O436 Dy432 2.398 1_565 S
O436 C434 1.185 1_565 S
O437 Dy432 2.491 . S
O437 C434 1.355 . S
O438 Dy432 2.403 1_565 S
O438 C440 1.254 . S
O439 Dy432 2.664 . S
O439 Dy435 2.310 1_554 S
O439 C440 1.268 1_545 S
C440 O438 1.254 . S
C440 O439 1.268 1_565 S
C441 O446 1.254 . S
C441 O447 1.268 . S
O442 Dy435 2.350 1_554 S
O442 C450 1.252 . S
O443 Dy432 2.326 . S
O443 C450 1.267 . S
O444 C433 1.185 . S
O444 Dy435 2.398 . S
O445 C433 1.355 . S
O445 Dy435 2.491 . S
O446 Dy435 2.403 1_554 S
O446 C441 1.254 . S
O447 Dy432 2.310 . S
O447 Dy435 2.664 1_554 S
O447 C441 1.268 . S
O448 Dy432 2.351 . S
O448 C451 1.249 . S
O449 Dy435 2.326 1_554 S
O449 C451 1.267 . S
C450 O442 1.252 . S
C450 O443 1.267 . S
C451 O448 1.249 . S
C451 O449 1.267 . S
Dy452 O456 2.398 . S
Dy452 O457 2.491 . S
Dy452 O458 2.403 . S
Dy452 O459 2.664 . S
Dy452 O463 2.326 . S
Dy452 O467 2.310 . S
Dy452 O468 2.351 . S
C453 O464 1.185 . S
C453 O465 1.355 . S
C454 O456 1.185 . S
C454 O457 1.355 . S
Dy455 O459 2.310 . S
Dy455 O462 2.351 . S
Dy455 O464 2.398 . S
Dy455 O465 2.491 . S
Dy455 O466 2.403 . S
Dy455 O467 2.664 . S
Dy455 O469 2.326 . S
O456 Dy452 2.398 . S
O456 C454 1.185 . S
O457 Dy452 2.491 . S
O457 C454 1.355 . S
O458 Dy452 2.403 . S
O458 C460 1.254 . S
O459 Dy452 2.664 . S
O459 Dy455 2.310 . S
O459 C460 1.268 . S
C460 O458 1.254 . S
C460 O459 1.268 . S
C461 O466 1.254 . S
C461 O467 1.268 . S
O462 Dy455 2.351 . S
O462 C470 1.249 . S
O463 Dy452 2.326 . S
O463 C470 1.267 . S
O464 C453 1.185 . S
O464 Dy455 2.398 . S
O465 C453 1.355 . S
O465 Dy455 2.491 . S
O466 Dy455 2.403 . S
O466 C461 1.254 . S
O467 Dy452 2.310 . S
O467 Dy455 2.664 . S
O467 C461 1.268 . S
O468 Dy452 2.351 . S
O468 C471 1.249 . S
O469 Dy455 2.326 . S
O469 C471 1.267 . S
C470 O462 1.249 . S
C470 O463 1.267 . S
C471 O468 1.249 . S
C471 O469 1.267 . S
Dy472 O476 2.398 . S
Dy472 O477 2.491 . S
Dy472 O478 2.403 . S
Dy472 O479 2.664 1_556 S
Dy472 O483 2.326 . S
Dy472 O487 2.310 1_556 S
Dy472 O488 2.351 1_556 S
C473 O484 1.185 . S
C473 O485 1.355 . S
C474 O476 1.185 . S
C474 O477 1.355 . S
Dy475 O479 2.310 . S
Dy475 O482 2.351 . S
Dy475 O484 2.398 . S
Dy475 O485 2.491 . S
Dy475 O486 2.403 . S
Dy475 O487 2.664 . S
Dy475 O489 2.326 . S
O476 Dy472 2.398 . S
O476 C474 1.185 . S
O477 Dy472 2.491 . S
O477 C474 1.355 . S
O478 Dy472 2.403 . S
O478 C480 1.254 1_556 S
O479 Dy472 2.664 1_554 S
O479 Dy475 2.310 . S
O479 C480 1.268 . S
C480 O478 1.254 1_554 S
C480 O479 1.268 . S
C481 O486 1.254 . S
C481 O487 1.268 . S
O482 Dy475 2.351 . S
O482 C490 1.249 . S
O483 Dy472 2.326 . S
O483 C490 1.267 1_556 S
O484 C473 1.185 . S
O484 Dy475 2.398 . S
O485 C473 1.355 . S
O485 Dy475 2.491 . S
O486 Dy475 2.403 . S
O486 C481 1.254 . S
O487 Dy472 2.310 1_554 S
O487 Dy475 2.664 . S
O487 C481 1.268 . S
O488 Dy472 2.351 1_554 S
O488 C491 1.249 . S
O489 Dy475 2.326 . S
O489 C491 1.267 . S
C490 O482 1.249 . S
C490 O483 1.267 1_554 S
C491 O488 1.249 . S
C491 O489 1.267 . S
Dy492 O496 2.398 . S
Dy492 O497 2.491 . S
Dy492 O498 2.403 . S
Dy492 O499 2.664 . S
Dy492 O503 2.326 . S
Dy492 O507 2.310 . S
Dy492 O508 2.351 . S
C493 O504 1.185 . S
C493 O505 1.355 . S
C494 O496 1.185 . S
C494 O497 1.355 . S
Dy495 O499 2.310 . S
Dy495 O502 2.351 . S
Dy495 O504 2.398 . S
Dy495 O505 2.491 . S
Dy495 O506 2.403 . S
Dy495 O507 2.664 . S
Dy495 O509 2.326 . S
O496 Dy492 2.398 . S
O496 C494 1.185 . S
O497 Dy492 2.491 . S
O497 C494 1.355 . S
O498 Dy492 2.403 . S
O498 C500 1.254 . S
O499 Dy492 2.664 . S
O499 Dy495 2.310 . S
O499 C500 1.268 . S
C500 O498 1.254 . S
C500 O499 1.268 . S
C501 O506 1.254 . S
C501 O507 1.268 . S
O502 Dy495 2.351 . S
O502 C510 1.249 . S
O503 Dy492 2.326 . S
O503 C510 1.267 . S
O504 C493 1.185 . S
O504 Dy495 2.398 . S
O505 C493 1.355 . S
O505 Dy495 2.491 . S
O506 Dy495 2.403 . S
O506 C501 1.254 . S
O507 Dy492 2.310 . S
O507 Dy495 2.664 . S
O507 C501 1.268 . S
O508 Dy492 2.351 . S
O508 C511 1.249 . S
O509 Dy495 2.326 . S
O509 C511 1.267 . S
C510 O502 1.249 . S
C510 O503 1.267 . S
C511 O508 1.249 . S
C511 O509 1.267 . S
Dy512 O516 2.398 . S
Dy512 O517 2.491 1_455 S
Dy512 O518 2.403 . S
Dy512 O519 2.664 . S
Dy512 O523 2.326 1_455 S
Dy512 O527 2.310 . S
Dy512 O528 2.351 . S
C513 O524 1.185 . S
C513 O525 1.355 . S
C514 O516 1.185 1_655 S
C514 O517 1.355 . S
Dy515 O519 2.310 . S
Dy515 O522 2.351 1_455 S
Dy515 O524 2.398 . S
Dy515 O525 2.491 . S
Dy515 O526 2.403 . S
Dy515 O527 2.664 . S
Dy515 O529 2.326 . S
O516 Dy512 2.398 . S
O516 C514 1.185 1_455 S
O517 Dy512 2.491 1_655 S
O517 C514 1.355 . S
O518 Dy512 2.403 . S
O518 C520 1.254 . S
O519 Dy512 2.664 . S
O519 Dy515 2.310 . S
O519 C520 1.268 . S
C520 O518 1.254 . S
C520 O519 1.268 . S
C521 O526 1.254 . S
C521 O527 1.268 . S
O522 Dy515 2.351 1_655 S
O522 C530 1.249 . S
O523 Dy512 2.326 1_655 S
O523 C530 1.267 . S
O524 C513 1.185 . S
O524 Dy515 2.398 . S
O525 C513 1.355 . S
O525 Dy515 2.491 . S
O526 Dy515 2.403 . S
O526 C521 1.254 . S
O527 Dy512 2.310 . S
O527 Dy515 2.664 . S
O527 C521 1.268 . S
O528 Dy512 2.351 . S
O528 C531 1.249 . S
O529 Dy515 2.326 . S
O529 C531 1.267 . S
C530 O522 1.249 . S
C530 O523 1.267 . S
C531 O528 1.249 . S
C531 O529 1.267 . S
Dy532 O536 2.398 . S
Dy532 O537 2.491 . S
Dy532 O538 2.403 . S
Dy532 O539 2.664 . S
Dy532 O543 2.326 . S
Dy532 O547 2.310 . S
Dy532 O548 2.351 . S
C533 O544 1.185 . S
C533 O545 1.355 . S
C534 O536 1.185 . S
C534 O537 1.355 . S
Dy535 O539 2.310 . S
Dy535 O542 2.351 . S
Dy535 O544 2.398 . S
Dy535 O545 2.491 . S
Dy535 O546 2.403 . S
Dy535 O547 2.664 . S
Dy535 O549 2.326 . S
O536 Dy532 2.398 . S
O536 C534 1.185 . S
O537 Dy532 2.491 . S
O537 C534 1.355 . S
O538 Dy532 2.403 . S
O538 C540 1.254 . S
O539 Dy532 2.664 . S
O539 Dy535 2.310 . S
O539 C540 1.268 . S
C540 O538 1.254 . S
C540 O539 1.268 . S
C541 O546 1.254 . S
C541 O547 1.268 . S
O542 Dy535 2.351 . S
O542 C550 1.249 . S
O543 Dy532 2.326 . S
O543 C550 1.267 . S
O544 C533 1.185 . S
O544 Dy535 2.398 . S
O545 C533 1.355 . S
O545 Dy535 2.491 . S
O546 Dy535 2.403 . S
O546 C541 1.254 . S
O547 Dy532 2.310 . S
O547 Dy535 2.664 . S
O547 C541 1.268 . S
O548 Dy532 2.351 . S
O548 C551 1.249 . S
O549 Dy535 2.326 . S
O549 C551 1.267 . S
C550 O542 1.249 . S
C550 O543 1.267 . S
C551 O548 1.249 . S
C551 O549 1.267 . S
Dy552 O556 2.398 . S
Dy552 O557 2.491 . S
Dy552 O558 2.403 . S
Dy552 O559 2.664 . S
Dy552 O563 2.326 . S
Dy552 O567 2.310 . S
Dy552 O568 2.351 . S
C553 O564 1.185 . S
C553 O565 1.355 . S
C554 O556 1.185 . S
C554 O557 1.355 . S
Dy555 O559 2.310 . S
Dy555 O562 2.351 . S
Dy555 O564 2.398 . S
Dy555 O565 2.491 . S
Dy555 O566 2.403 . S
Dy555 O567 2.664 . S
Dy555 O569 2.326 . S
O556 Dy552 2.398 . S
O556 C554 1.185 . S
O557 Dy552 2.491 . S
O557 C554 1.355 . S
O558 Dy552 2.403 . S
O558 C560 1.254 . S
O559 Dy552 2.664 . S
O559 Dy555 2.310 . S
O559 C560 1.268 . S
C560 O558 1.254 . S
C560 O559 1.268 . S
C561 O566 1.254 . S
C561 O567 1.268 . S
O562 Dy555 2.351 . S
O562 C570 1.249 . S
O563 Dy552 2.326 . S
O563 C570 1.267 . S
O564 C553 1.185 . S
O564 Dy555 2.398 . S
O565 C553 1.355 . S
O565 Dy555 2.491 . S
O566 Dy555 2.403 . S
O566 C561 1.254 . S
O567 Dy552 2.310 . S
O567 Dy555 2.664 . S
O567 C561 1.268 . S
O568 Dy552 2.351 . S
O568 C571 1.249 . S
O569 Dy555 2.326 . S
O569 C571 1.267 . S
C570 O562 1.249 . S
C570 O563 1.267 . S
C571 O568 1.249 . S
C571 O569 1.267 . S
Dy572 O576 2.398 . S
Dy572 O577 2.491 . S
Dy572 O578 2.403 . S
Dy572 O579 2.664 . S
Dy572 O583 2.326 . S
Dy572 O587 2.310 . S
Dy572 O588 2.351 . S
C573 O584 1.185 . S
C573 O585 1.355 . S
C574 O576 1.185 . S
C574 O577 1.355 . S
Dy575 O579 2.310 . S
Dy575 O582 2.351 . S
Dy575 O584 2.398 . S
Dy575 O585 2.491 . S
Dy575 O586 2.403 . S
Dy575 O587 2.664 . S
Dy575 O589 2.326 . S
O576 Dy572 2.398 . S
O576 C574 1.185 . S
O577 Dy572 2.491 . S
O577 C574 1.355 . S
O578 Dy572 2.403 . S
O578 C580 1.254 . S
O579 Dy572 2.664 . S
O579 Dy575 2.310 . S
O579 C580 1.268 . S
C580 O578 1.254 . S
C580 O579 1.268 . S
C581 O586 1.254 . S
C581 O587 1.268 . S
O582 Dy575 2.351 . S
O582 C590 1.249 . S
O583 Dy572 2.326 . S
O583 C590 1.267 . S
O584 C573 1.185 . S
O584 Dy575 2.398 . S
O585 C573 1.355 . S
O585 Dy575 2.491 . S
O586 Dy575 2.403 . S
O586 C581 1.254 . S
O587 Dy572 2.310 . S
O587 Dy575 2.664 . S
O587 C581 1.268 . S
O588 Dy572 2.351 . S
O588 C591 1.249 . S
O589 Dy575 2.326 . S
O589 C591 1.267 . S
C590 O582 1.249 . S
C590 O583 1.267 . S
C591 O588 1.249 . S
C591 O589 1.267 . S
Dy592 O596 2.398 . S
Dy592 O597 2.491 . S
Dy592 O598 2.403 . S
Dy592 O599 2.664 . S
Dy592 O603 2.326 . S
Dy592 O607 2.310 . S
Dy592 O608 2.351 . S
C593 O604 1.185 . S
C593 O605 1.355 . S
C594 O596 1.185 . S
C594 O597 1.355 . S
Dy595 O599 2.310 . S
Dy595 O602 2.351 . S
Dy595 O604 2.398 . S
Dy595 O605 2.491 . S
Dy595 O606 2.403 . S
Dy595 O607 2.664 . S
Dy595 O609 2.326 . S
O596 Dy592 2.398 . S
O596 C594 1.185 . S
O597 Dy592 2.491 . S
O597 C594 1.355 . S
O598 Dy592 2.403 . S
O598 C600 1.254 . S
O599 Dy592 2.664 . S
O599 Dy595 2.310 . S
O599 C600 1.268 . S
C600 O598 1.254 . S
C600 O599 1.268 . S
C601 O606 1.254 . S
C601 O607 1.268 . S
O602 Dy595 2.351 . S
O602 C610 1.249 . S
O603 Dy592 2.326 . S
O603 C610 1.267 . S
O604 C593 1.185 . S
O604 Dy595 2.398 . S
O605 C593 1.355 . S
O605 Dy595 2.491 . S
O606 Dy595 2.403 . S
O606 C601 1.254 . S
O607 Dy592 2.310 . S
O607 Dy595 2.664 . S
O607 C601 1.268 . S
O608 Dy592 2.351 . S
O608 C611 1.249 . S
O609 Dy595 2.326 . S
O609 C611 1.267 . S
C610 O602 1.249 . S
C610 O603 1.267 . S
C611 O608 1.249 . S
C611 O609 1.267 . S
Dy612 O616 2.398 1_554 S
Dy612 O617 2.491 . S
Dy612 O618 2.403 1_554 S
Dy612 O619 2.664 1_554 S
Dy612 O623 2.326 1_554 S
Dy612 O627 2.310 . S
Dy612 O628 2.351 . S
C613 O624 1.185 . S
C613 O625 1.355 . S
C614 O616 1.185 . S
C614 O617 1.355 1_556 S
Dy615 O619 2.310 1_654 S
Dy615 O622 2.351 . S
Dy615 O624 2.398 . S
Dy615 O625 2.491 . S
Dy615 O626 2.403 1_655 S
Dy615 O627 2.664 1_655 S
Dy615 O629 2.326 1_655 S
O616 Dy612 2.398 1_556 S
O616 C614 1.185 . S
O617 Dy612 2.491 . S
O617 C614 1.355 1_554 S
O618 Dy612 2.403 1_556 S
O618 C620 1.254 . S
O619 Dy612 2.664 1_556 S
O619 Dy615 2.310 1_456 S
O619 C620 1.268 . S
C620 O618 1.254 . S
C620 O619 1.268 . S
C621 O626 1.254 . S
C621 O627 1.268 . S
O622 Dy615 2.351 . S
O622 C630 1.237 1_654 S
O623 Dy612 2.326 1_556 S
O623 C630 1.282 . S
O624 C613 1.185 . S
O624 Dy615 2.398 . S
O625 C613 1.355 . S
O625 Dy615 2.491 . S
O626 Dy615 2.403 1_455 S
O626 C621 1.254 . S
O627 Dy612 2.310 . S
O627 Dy615 2.664 1_455 S
O627 C621 1.268 . S
O628 Dy612 2.351 . S
O628 C631 1.249 . S
O629 Dy615 2.326 1_455 S
O629 C631 1.267 . S
C630 O622 1.237 1_456 S
C630 O623 1.282 . S
C631 O628 1.249 . S
C631 O629 1.267 . S
H632 C640 0.929 . S
H633 C642 0.930 . S
H634 C644 0.930 . S
H635 C647 0.929 . S
H636 C650 0.930 . S
H637 C652 0.960 . S
H638 C652 0.960 . S
H639 C652 0.960 . S
C640 H632 0.929 . S
C640 C641 1.377 . S
C640 C642 1.384 . S
C641 C640 1.377 . S
C641 C647 1.390 1_655 S
C642 H633 0.930 . S
C642 C640 1.384 . S
C642 C643 1.363 1_655 S
C643 C642 1.363 1_455 S
C643 C644 1.399 . S
C643 C648 1.503 . S
C644 H634 0.930 . S
C644 C643 1.399 . S
C644 C647 1.386 . S
H645 C661 0.930 . S
H646 C662 0.931 1_554 S
C647 H635 0.929 . S
C647 C641 1.390 1_455 S
C647 C644 1.386 . S
C648 C643 1.503 . S
C648 C650 1.395 . S
C648 C651 1.403 1_455 S
H649 C655 0.930 . S
C650 H636 0.930 . S
C650 C648 1.395 . S
C650 C653 1.403 . S
C651 C648 1.403 1_655 S
C651 C652 1.524 . S
C651 C655 1.400 . S
C652 H637 0.960 . S
C652 H638 0.960 . S
C652 H639 0.960 . S
C652 C651 1.524 . S
C653 C650 1.403 . S
C653 C654 1.392 . S
C653 C657 1.495 . S
C654 C653 1.392 . S
C654 C655 1.385 1_455 S
C654 C656 1.478 . S
C655 H649 0.930 . S
C655 C651 1.400 . S
C655 C654 1.385 1_655 S
C656 C654 1.478 . S
C656 C658 1.381 . S
C656 C662 1.383 . S
C657 C653 1.495 . S
C657 H663 0.959 . S
C657 H664 0.961 . S
C657 H665 0.960 . S
C658 C656 1.381 . S
C658 C659 1.394 . S
C658 H666 0.918 1_455 S
C659 C658 1.394 . S
C659 C660 1.383 . S
C659 H667 0.929 1_455 S
C660 C659 1.383 . S
C660 C661 1.377 1_556 S
C661 H645 0.930 . S
C661 C660 1.377 1_554 S
C661 C662 1.379 1_554 S
C662 H646 0.931 1_556 S
C662 C656 1.383 . S
C662 C661 1.379 1_556 S
H663 C657 0.959 . S
H664 C657 0.961 . S
H665 C657 0.960 . S
H666 C658 0.918 1_655 S
H667 C659 0.929 1_655 S
H668 C676 0.929 . S
H669 C678 0.930 . S
H670 C680 0.930 . S
H671 C683 0.929 . S
H672 C686 0.930 . S
H673 C688 0.960 . S
H674 C688 0.960 . S
H675 C688 0.960 . S
C676 H668 0.929 . S
C676 C677 1.377 . S
C676 C678 1.384 . S
C677 C676 1.377 . S
C677 C683 1.390 . S
C678 H669 0.930 . S
C678 C676 1.384 . S
C678 C679 1.372 . S
C679 C678 1.372 . S
C679 C680 1.400 . S
C679 C684 1.490 . S
C680 H670 0.930 . S
C680 C679 1.400 . S
C680 C683 1.386 . S
H681 C697 0.930 . S
H682 C698 0.931 . S
C683 H671 0.929 . S
C683 C677 1.390 . S
C683 C680 1.386 . S
C684 C679 1.490 . S
C684 C686 1.395 . S
C684 C687 1.403 . S
H685 C691 0.930 . S
C686 H672 0.930 . S
C686 C684 1.395 . S
C686 C689 1.403 . S
C687 C684 1.403 . S
C687 C688 1.524 . S
C687 C691 1.400 . S
C688 H673 0.960 . S
C688 H674 0.960 . S
C688 H675 0.960 . S
C688 C687 1.524 . S
C689 C686 1.403 . S
C689 C690 1.392 . S
C689 C693 1.495 . S
C690 C689 1.392 . S
C690 C691 1.385 . S
C690 C692 1.478 . S
C691 H685 0.930 . S
C691 C687 1.400 . S
C691 C690 1.385 . S
C692 C690 1.478 . S
C692 C694 1.381 . S
C692 C698 1.383 . S
C693 C689 1.495 . S
C693 H699 0.959 . S
C693 H700 0.961 . S
C693 H701 0.960 . S
C694 C692 1.381 . S
C694 C695 1.394 . S
C694 H702 0.930 . S
C695 C694 1.394 . S
C695 C696 1.383 . S
C695 H703 0.929 . S
C696 C695 1.383 . S
C696 C697 1.377 . S
C697 H681 0.930 . S
C697 C696 1.377 . S
C697 C698 1.379 . S
C698 H682 0.931 . S
C698 C692 1.383 . S
C698 C697 1.379 . S
H699 C693 0.959 . S
H700 C693 0.961 . S
H701 C693 0.960 . S
H702 C694 0.930 . S
H703 C695 0.929 . S
H704 C712 0.929 . S
H705 C714 0.930 . S
H706 C716 0.930 . S
H707 C719 0.929 . S
H708 C722 0.930 . S
H709 C724 0.960 . S
H710 C724 0.960 . S
H711 C724 0.960 . S
C712 H704 0.929 . S
C712 C713 1.377 . S
C712 C714 1.384 . S
C713 C712 1.377 . S
C713 C719 1.390 . S
C714 H705 0.930 . S
C714 C712 1.384 . S
C714 C715 1.372 . S
C715 C714 1.372 . S
C715 C716 1.400 . S
C715 C720 1.490 . S
C716 H706 0.930 . S
C716 C715 1.400 . S
C716 C719 1.386 . S
H717 C733 0.930 . S
H718 C734 0.931 . S
C719 H707 0.929 . S
C719 C713 1.390 . S
C719 C716 1.386 . S
C720 C715 1.490 . S
C720 C722 1.395 . S
C720 C723 1.403 . S
H721 C727 0.930 . S
C722 H708 0.930 . S
C722 C720 1.395 . S
C722 C725 1.403 . S
C723 C720 1.403 . S
C723 C724 1.524 . S
C723 C727 1.400 . S
C724 H709 0.960 . S
C724 H710 0.960 . S
C724 H711 0.960 . S
C724 C723 1.524 . S
C725 C722 1.403 . S
C725 C726 1.392 . S
C725 C729 1.495 . S
C726 C725 1.392 . S
C726 C727 1.385 . S
C726 C728 1.478 . S
C727 H721 0.930 . S
C727 C723 1.400 . S
C727 C726 1.385 . S
C728 C726 1.478 . S
C728 C730 1.381 . S
C728 C734 1.383 . S
C729 C725 1.495 . S
C729 H735 0.959 . S
C729 H736 0.961 . S
C729 H737 0.960 . S
C730 C728 1.381 . S
C730 C731 1.394 . S
C730 H738 0.930 . S
C731 C730 1.394 . S
C731 C732 1.383 . S
C731 H739 0.929 . S
C732 C731 1.383 . S
C732 C733 1.377 . S
C733 H717 0.930 . S
C733 C732 1.377 . S
C733 C734 1.379 . S
C734 H718 0.931 . S
C734 C728 1.383 . S
C734 C733 1.379 . S
H735 C729 0.959 . S
H736 C729 0.961 . S
H737 C729 0.960 . S
H738 C730 0.930 . S
H739 C731 0.929 . S
H740 C748 0.929 . S
H741 C750 0.930 . S
H742 C752 0.930 . S
H743 C755 0.929 . S
H744 C758 0.930 . S
H745 C760 0.960 . S
H746 C760 0.960 . S
H747 C760 0.960 . S
C748 H740 0.929 . S
C748 C749 1.377 . S
C748 C750 1.384 . S
C749 C748 1.377 . S
C749 C755 1.390 . S
C750 H741 0.930 . S
C750 C748 1.384 . S
C750 C751 1.372 . S
C751 C750 1.372 . S
C751 C752 1.400 . S
C751 C756 1.490 . S
C752 H742 0.930 . S
C752 C751 1.400 . S
C752 C755 1.386 . S
H753 C769 0.930 . S
H754 C770 0.931 . S
C755 H743 0.929 . S
C755 C749 1.390 . S
C755 C752 1.386 . S
C756 C751 1.490 . S
C756 C758 1.395 . S
C756 C759 1.403 . S
H757 C763 0.930 . S
C758 H744 0.930 . S
C758 C756 1.395 . S
C758 C761 1.403 . S
C759 C756 1.403 . S
C759 C760 1.524 . S
C759 C763 1.400 . S
C760 H745 0.960 . S
C760 H746 0.960 . S
C760 H747 0.960 . S
C760 C759 1.524 . S
C761 C758 1.403 . S
C761 C762 1.392 . S
C761 C765 1.495 . S
C762 C761 1.392 . S
C762 C763 1.385 . S
C762 C764 1.478 . S
C763 H757 0.930 . S
C763 C759 1.400 . S
C763 C762 1.385 . S
C764 C762 1.478 . S
C764 C766 1.381 . S
C764 C770 1.383 . S
C765 C761 1.495 . S
C765 H771 0.959 . S
C765 H772 0.961 . S
C765 H773 0.960 . S
C766 C764 1.381 . S
C766 C767 1.394 . S
C766 H774 0.930 . S
C767 C766 1.394 . S
C767 C768 1.383 . S
C767 H775 0.929 . S
C768 C767 1.383 . S
C768 C769 1.377 . S
C769 H753 0.930 . S
C769 C768 1.377 . S
C769 C770 1.379 . S
C770 H754 0.931 . S
C770 C764 1.383 . S
C770 C769 1.379 . S
H771 C765 0.959 . S
H772 C765 0.961 . S
H773 C765 0.960 . S
H774 C766 0.930 . S
H775 C767 0.929 . S
H776 C784 0.929 . S
H777 C786 0.930 . S
H778 C788 0.930 . S
H779 C791 0.929 . S
H780 C794 0.970 . S
H781 C796 0.960 . S
H782 C796 0.960 . S
H783 C796 0.960 . S
C784 H776 0.929 . S
C784 C785 1.377 . S
C784 C786 1.384 . S
C785 C784 1.377 . S
C785 C791 1.390 . S
C786 H777 0.930 . S
C786 C784 1.384 . S
C786 C787 1.372 . S
C787 C786 1.372 . S
C787 C788 1.400 . S
C787 C792 1.490 . S
C788 H778 0.930 . S
C788 C787 1.400 . S
C788 C791 1.386 . S
H789 C805 0.930 . S
H790 C806 0.931 . S
C791 H779 0.929 . S
C791 C785 1.390 . S
C791 C788 1.386 . S
C792 C787 1.490 . S
C792 C794 1.348 1_455 S
C792 C795 1.403 . S
H793 C799 0.930 . S
C794 H780 0.970 . S
C794 C792 1.348 1_655 S
C794 C797 1.415 . S
C795 C792 1.403 . S
C795 C796 1.524 . S
C795 C799 1.400 . S
C796 H781 0.960 . S
C796 H782 0.960 . S
C796 H783 0.960 . S
C796 C795 1.524 . S
C797 C794 1.415 . S
C797 C798 1.392 1_655 S
C797 C801 1.495 . S
C798 C797 1.392 1_455 S
C798 C799 1.385 . S
C798 C800 1.478 . S
C799 H793 0.930 . S
C799 C795 1.400 . S
C799 C798 1.385 . S
C800 C798 1.478 . S
C800 C802 1.381 . S
C800 C806 1.383 . S
C801 C797 1.495 . S
C801 H807 0.959 . S
C801 H808 0.961 . S
C801 H809 0.960 . S
C802 C800 1.381 . S
C802 C803 1.394 . S
C802 H810 0.930 . S
C803 C802 1.394 . S
C803 C804 1.383 . S
C803 H811 0.929 . S
C804 C803 1.383 . S
C804 C805 1.377 . S
C805 H789 0.930 . S
C805 C804 1.377 . S
C805 C806 1.379 . S
C806 H790 0.931 . S
C806 C800 1.383 . S
C806 C805 1.379 . S
H807 C801 0.959 . S
H808 C801 0.961 . S
H809 C801 0.960 . S
H810 C802 0.930 . S
H811 C803 0.929 . S
H812 C820 0.929 . S
H813 C822 0.930 . S
H814 C824 0.930 . S
H815 C827 0.929 . S
H816 C830 0.930 . S
H817 C832 0.960 . S
H818 C832 0.960 . S
H819 C832 0.960 . S
C820 H812 0.929 . S
C820 C821 1.377 . S
C820 C822 1.384 . S
C821 C820 1.377 . S
C821 C827 1.390 . S
C822 H813 0.930 . S
C822 C820 1.384 . S
C822 C823 1.372 . S
C823 C822 1.372 . S
C823 C824 1.400 . S
C823 C828 1.490 . S
C824 H814 0.930 . S
C824 C823 1.400 . S
C824 C827 1.386 . S
H825 C841 0.930 . S
H826 C842 0.931 . S
C827 H815 0.929 . S
C827 C821 1.390 . S
C827 C824 1.386 . S
C828 C823 1.490 . S
C828 C830 1.395 . S
C828 C831 1.403 . S
H829 C835 0.930 . S
C830 H816 0.930 . S
C830 C828 1.395 . S
C830 C833 1.403 . S
C831 C828 1.403 . S
C831 C832 1.524 . S
C831 C835 1.400 . S
C832 H817 0.960 . S
C832 H818 0.960 . S
C832 H819 0.960 . S
C832 C831 1.524 . S
C833 C830 1.403 . S
C833 C834 1.392 . S
C833 C837 1.495 . S
C834 C833 1.392 . S
C834 C835 1.385 . S
C834 C836 1.478 . S
C835 H829 0.930 . S
C835 C831 1.400 . S
C835 C834 1.385 . S
C836 C834 1.478 . S
C836 C838 1.381 . S
C836 C842 1.383 . S
C837 C833 1.495 . S
C837 H843 0.959 . S
C837 H844 0.961 . S
C837 H845 0.960 . S
C838 C836 1.381 . S
C838 C839 1.394 . S
C838 H846 0.930 . S
C839 C838 1.394 . S
C839 C840 1.383 . S
C839 H847 0.929 . S
C840 C839 1.383 . S
C840 C841 1.377 . S
C841 H825 0.930 . S
C841 C840 1.377 . S
C841 C842 1.379 . S
C842 H826 0.931 . S
C842 C836 1.383 . S
C842 C841 1.379 . S
H843 C837 0.959 . S
H844 C837 0.961 . S
H845 C837 0.960 . S
H846 C838 0.930 . S
H847 C839 0.929 . S
H848 C856 0.929 . S
H849 C858 0.930 . S
H850 C860 0.930 . S
H851 C863 0.929 . S
H852 C866 0.930 . S
H853 C868 0.960 . S
H854 C868 0.960 . S
H855 C868 0.960 . S
C856 H848 0.929 . S
C856 C857 1.377 . S
C856 C858 1.384 . S
C857 C856 1.377 . S
C857 C863 1.390 . S
C858 H849 0.930 . S
C858 C856 1.384 . S
C858 C859 1.372 . S
C859 C858 1.372 . S
C859 C860 1.400 . S
C859 C864 1.490 . S
C860 H850 0.930 . S
C860 C859 1.400 . S
C860 C863 1.386 . S
H861 C877 0.930 . S
H862 C878 0.931 . S
C863 H851 0.929 . S
C863 C857 1.390 . S
C863 C860 1.386 . S
C864 C859 1.490 . S
C864 C866 1.395 . S
C864 C867 1.403 . S
H865 C871 0.930 . S
C866 H852 0.930 . S
C866 C864 1.395 . S
C866 C869 1.403 . S
C867 C864 1.403 . S
C867 C868 1.524 . S
C867 C871 1.400 . S
C868 H853 0.960 . S
C868 H854 0.960 . S
C868 H855 0.960 . S
C868 C867 1.524 . S
C869 C866 1.403 . S
C869 C870 1.392 . S
C869 C873 1.495 . S
C870 C869 1.392 . S
C870 C871 1.385 . S
C870 C872 1.478 . S
C871 H865 0.930 . S
C871 C867 1.400 . S
C871 C870 1.385 . S
C872 C870 1.478 . S
C872 C874 1.381 . S
C872 C878 1.383 . S
C873 C869 1.495 . S
C873 H879 0.959 . S
C873 H880 0.961 . S
C873 H881 0.960 . S
C874 C872 1.381 . S
C874 C875 1.394 . S
C874 H882 0.930 . S
C875 C874 1.394 . S
C875 C876 1.383 . S
C875 H883 0.929 . S
C876 C875 1.383 . S
C876 C877 1.377 . S
C877 H861 0.930 . S
C877 C876 1.377 . S
C877 C878 1.379 . S
C878 H862 0.931 . S
C878 C872 1.383 . S
C878 C877 1.379 . S
H879 C873 0.959 . S
H880 C873 0.961 . S
H881 C873 0.960 . S
H882 C874 0.930 . S
H883 C875 0.929 . S
H884 C892 0.929 . S
H885 C894 0.930 . S
H886 C896 0.930 . S
H887 C899 0.929 . S
H888 C902 0.930 . S
H889 C904 0.960 . S
H890 C904 0.960 . S
H891 C904 0.960 . S
C892 H884 0.929 . S
C892 C893 1.377 . S
C892 C894 1.384 . S
C893 C892 1.377 . S
C893 C899 1.390 . S
C894 H885 0.930 . S
C894 C892 1.384 . S
C894 C895 1.372 . S
C895 C894 1.372 . S
C895 C896 1.400 . S
C895 C900 1.490 . S
C896 H886 0.930 . S
C896 C895 1.400 . S
C896 C899 1.386 . S
H897 C913 0.930 . S
H898 C914 0.931 . S
C899 H887 0.929 . S
C899 C893 1.390 . S
C899 C896 1.386 . S
C900 C895 1.490 . S
C900 C902 1.395 . S
C900 C903 1.403 . S
H901 C907 0.930 . S
C902 H888 0.930 . S
C902 C900 1.395 . S
C902 C905 1.403 . S
C903 C900 1.403 . S
C903 C904 1.524 . S
C903 C907 1.400 . S
C904 H889 0.960 . S
C904 H890 0.960 . S
C904 H891 0.960 . S
C904 C903 1.524 . S
C905 C902 1.403 . S
C905 C906 1.392 . S
C905 C909 1.495 . S
C906 C905 1.392 . S
C906 C907 1.385 . S
C906 C908 1.478 . S
C907 H901 0.930 . S
C907 C903 1.400 . S
C907 C906 1.385 . S
C908 C906 1.478 . S
C908 C910 1.381 . S
C908 C914 1.383 . S
C909 C905 1.495 . S
C909 H915 0.959 . S
C909 H916 0.961 . S
C909 H917 0.960 . S
C910 C908 1.381 . S
C910 C911 1.394 . S
C910 H918 0.930 . S
C911 C910 1.394 . S
C911 C912 1.383 . S
C911 H919 0.929 . S
C912 C911 1.383 . S
C912 C913 1.377 . S
C913 H897 0.930 . S
C913 C912 1.377 . S
C913 C914 1.379 . S
C914 H898 0.931 . S
C914 C908 1.383 . S
C914 C913 1.379 . S
H915 C909 0.959 . S
H916 C909 0.961 . S
H917 C909 0.960 . S
H918 C910 0.930 . S
H919 C911 0.929 . S
H920 C928 0.929 . S
H921 C930 0.930 . S
H922 C932 0.930 . S
H923 C935 0.929 . S
H924 C938 0.930 . S
H925 C940 0.960 1_565 S
H926 C940 0.960 . S
H927 C940 0.960 . S
C928 H920 0.929 . S
C928 C929 1.377 . S
C928 C930 1.384 . S
C929 C928 1.377 . S
C929 C935 1.390 . S
C930 H921 0.930 . S
C930 C928 1.384 . S
C930 C931 1.372 . S
C931 C930 1.372 . S
C931 C932 1.400 . S
C931 C936 1.490 . S
C932 H922 0.930 . S
C932 C931 1.400 . S
C932 C935 1.386 . S
H933 C949 0.930 . S
H934 C950 0.923 1_455 S
C935 H923 0.929 . S
C935 C929 1.390 . S
C935 C932 1.386 . S
C936 C931 1.490 . S
C936 C938 1.395 . S
C936 C939 1.403 . S
H937 C943 0.930 . S
C938 H924 0.930 . S
C938 C936 1.395 . S
C938 C941 1.403 . S
C939 C936 1.403 . S
C939 C940 1.524 . S
C939 C943 1.400 . S
C940 H925 0.960 1_545 S
C940 H926 0.960 . S
C940 H927 0.960 . S
C940 C939 1.524 . S
C941 C938 1.403 . S
C941 C942 1.392 . S
C941 C945 1.495 . S
C942 C941 1.392 . S
C942 C943 1.385 . S
C942 C944 1.478 . S
C943 H937 0.930 . S
C943 C939 1.400 . S
C943 C942 1.385 . S
C944 C942 1.478 . S
C944 C946 1.381 . S
C944 C950 1.383 . S
C945 C941 1.495 . S
C945 H951 0.959 . S
C945 H952 0.961 . S
C945 H953 0.960 . S
C946 C944 1.381 . S
C946 C947 1.394 . S
C946 H954 0.930 . S
C947 C946 1.394 . S
C947 C948 1.383 . S
C947 H955 0.929 . S
C948 C947 1.383 . S
C948 C949 1.377 1_655 S
C949 H933 0.930 . S
C949 C948 1.377 1_455 S
C949 C950 1.379 1_455 S
C950 H934 0.923 1_655 S
C950 C944 1.383 . S
C950 C949 1.379 1_655 S
H951 C945 0.959 . S
H952 C945 0.961 . S
H953 C945 0.960 . S
H954 C946 0.930 . S
H955 C947 0.929 . S
H956 C964 0.929 . S
H957 C966 0.930 . S
H958 C968 0.930 . S
H959 C971 0.929 . S
H960 C974 0.930 . S
H961 C976 0.960 . S
H962 C976 0.960 . S
H963 C976 0.960 . S
C964 H956 0.929 . S
C964 C965 1.377 . S
C964 C966 1.384 . S
C965 C964 1.377 . S
C965 C971 1.390 . S
C966 H957 0.930 . S
C966 C964 1.384 . S
C966 C967 1.372 . S
C967 C966 1.372 . S
C967 C968 1.400 . S
C967 C972 1.490 . S
C968 H958 0.930 . S
C968 C967 1.400 . S
C968 C971 1.386 . S
H969 C985 0.930 . S
H970 C986 0.931 . S
C971 H959 0.929 . S
C971 C965 1.390 . S
C971 C968 1.386 . S
C972 C967 1.490 . S
C972 C974 1.395 . S
C972 C975 1.403 . S
H973 C979 0.930 . S
C974 H960 0.930 . S
C974 C972 1.395 . S
C974 C977 1.403 . S
C975 C972 1.403 . S
C975 C976 1.524 . S
C975 C979 1.400 . S
C976 H961 0.960 . S
C976 H962 0.960 . S
C976 H963 0.960 . S
C976 C975 1.524 . S
C977 C974 1.403 . S
C977 C978 1.392 . S
C977 C981 1.495 . S
C978 C977 1.392 . S
C978 C979 1.385 . S
C978 C980 1.478 . S
C979 H973 0.930 . S
C979 C975 1.400 . S
C979 C978 1.385 . S
C980 C978 1.478 . S
C980 C982 1.381 . S
C980 C986 1.383 . S
C981 C977 1.495 . S
C981 H987 0.959 . S
C981 H988 0.961 . S
C981 H989 0.960 . S
C982 C980 1.381 . S
C982 C983 1.394 . S
C982 H990 0.930 . S
C983 C982 1.394 . S
C983 C984 1.383 . S
C983 H991 0.929 . S
C984 C983 1.383 . S
C984 C985 1.377 . S
C985 H969 0.930 . S
C985 C984 1.377 . S
C985 C986 1.379 . S
C986 H970 0.931 . S
C986 C980 1.383 . S
C986 C985 1.379 . S
H987 C981 0.959 . S
H988 C981 0.961 . S
H989 C981 0.960 . S
H990 C982 0.930 . S
H991 C983 0.929 . S
H992 C1000 0.929 . S
H993 C1002 0.930 . S
H994 C1004 0.930 . S
H995 C1007 0.929 . S
H996 C1010 0.930 . S
H997 C1012 0.960 . S
H998 C1012 0.960 . S
H999 C1012 0.960 . S
C1000 H992 0.929 . S
C1000 C1001 1.377 . S
C1000 C1002 1.384 . S
C1001 C1000 1.377 . S
C1001 C1007 1.390 . S
C1002 H993 0.930 . S
C1002 C1000 1.384 . S
C1002 C1003 1.372 . S
C1003 C1002 1.372 . S
C1003 C1004 1.400 . S
C1003 C1008 1.490 . S
C1004 H994 0.930 . S
C1004 C1003 1.400 . S
C1004 C1007 1.386 . S
H1005 C1021 0.930 . S
H1006 C1022 0.931 . S
C1007 H995 0.929 . S
C1007 C1001 1.390 . S
C1007 C1004 1.386 . S
C1008 C1003 1.490 . S
C1008 C1010 1.395 . S
C1008 C1011 1.403 . S
H1009 C1015 0.930 1_565 S
C1010 H996 0.930 . S
C1010 C1008 1.395 . S
C1010 C1013 1.403 . S
C1011 C1008 1.403 . S
C1011 C1012 1.524 1_545 S
C1011 C1015 1.400 . S
C1012 H997 0.960 . S
C1012 H998 0.960 . S
C1012 H999 0.960 . S
C1012 C1011 1.524 1_565 S
C1013 C1010 1.403 . S
C1013 C1014 1.392 . S
C1013 C1017 1.495 . S
C1014 C1013 1.392 . S
C1014 C1015 1.385 . S
C1014 C1016 1.478 . S
C1015 H1009 0.930 1_545 S
C1015 C1011 1.400 . S
C1015 C1014 1.385 . S
C1016 C1014 1.478 . S
C1016 C1018 1.381 . S
C1016 C1022 1.383 . S
C1017 C1013 1.495 . S
C1017 H1023 0.959 . S
C1017 H1024 0.961 . S
C1017 H1025 0.960 . S
C1018 C1016 1.381 . S
C1018 C1019 1.394 . S
C1018 H1026 0.930 . S
C1019 C1018 1.394 . S
C1019 C1020 1.383 . S
C1019 H1027 0.929 . S
C1020 C1019 1.383 . S
C1020 C1021 1.377 . S
C1021 H1005 0.930 . S
C1021 C1020 1.377 . S
C1021 C1022 1.379 . S
C1022 H1006 0.931 . S
C1022 C1016 1.383 . S
C1022 C1021 1.379 . S
H1023 C1017 0.959 . S
H1024 C1017 0.961 . S
H1025 C1017 0.960 . S
H1026 C1018 0.930 . S
H1027 C1019 0.929 . S
H1028 C1036 0.929 . S
H1029 C1038 0.930 . S
H1030 C1040 0.930 . S
H1031 C1043 0.929 . S
H1032 C1046 0.930 . S
H1033 C1048 0.960 . S
H1034 C1048 0.960 . S
H1035 C1048 0.960 . S
C1036 H1028 0.929 . S
C1036 C1037 1.377 . S
C1036 C1038 1.384 . S
C1037 C1036 1.377 . S
C1037 C1043 1.390 . S
C1038 H1029 0.930 . S
C1038 C1036 1.384 . S
C1038 C1039 1.372 . S
C1039 C1038 1.372 . S
C1039 C1040 1.400 . S
C1039 C1044 1.490 . S
C1040 H1030 0.930 . S
C1040 C1039 1.400 . S
C1040 C1043 1.386 . S
H1041 C1057 0.930 . S
H1042 C1058 0.931 . S
C1043 H1031 0.929 . S
C1043 C1037 1.390 . S
C1043 C1040 1.386 . S
C1044 C1039 1.490 . S
C1044 C1046 1.395 . S
C1044 C1047 1.403 . S
H1045 C1051 0.930 . S
C1046 H1032 0.930 . S
C1046 C1044 1.395 . S
C1046 C1049 1.403 . S
C1047 C1044 1.403 . S
C1047 C1048 1.524 . S
C1047 C1051 1.400 . S
C1048 H1033 0.960 . S
C1048 H1034 0.960 . S
C1048 H1035 0.960 . S
C1048 C1047 1.524 . S
C1049 C1046 1.403 . S
C1049 C1050 1.392 . S
C1049 C1053 1.495 . S
C1050 C1049 1.392 . S
C1050 C1051 1.385 . S
C1050 C1052 1.478 . S
C1051 H1045 0.930 . S
C1051 C1047 1.400 . S
C1051 C1050 1.385 . S
C1052 C1050 1.478 . S
C1052 C1054 1.381 . S
C1052 C1058 1.383 . S
C1053 C1049 1.495 . S
C1053 H1059 0.959 . S
C1053 H1060 0.961 . S
C1053 H1061 0.960 . S
C1054 C1052 1.381 . S
C1054 C1055 1.394 . S
C1054 H1062 0.930 . S
C1055 C1054 1.394 . S
C1055 C1056 1.383 . S
C1055 H1063 0.929 . S
C1056 C1055 1.383 . S
C1056 C1057 1.377 . S
C1057 H1041 0.930 . S
C1057 C1056 1.377 . S
C1057 C1058 1.379 . S
C1058 H1042 0.931 . S
C1058 C1052 1.383 . S
C1058 C1057 1.379 . S
H1059 C1053 0.959 . S
H1060 C1053 0.961 . S
H1061 C1053 0.960 . S
H1062 C1054 0.930 . S
H1063 C1055 0.929 . S
H1064 C1072 0.929 . S
H1065 C1074 0.930 . S
H1066 C1076 0.930 . S
H1067 C1079 0.929 . S
H1068 C1082 0.930 . S
H1069 C1084 0.960 . S
H1070 C1084 0.960 . S
H1071 C1084 0.960 . S
C1072 H1064 0.929 . S
C1072 C1073 1.377 . S
C1072 C1074 1.384 . S
C1073 C1072 1.377 . S
C1073 C1079 1.390 . S
C1074 H1065 0.930 . S
C1074 C1072 1.384 . S
C1074 C1075 1.372 . S
C1075 C1074 1.372 . S
C1075 C1076 1.400 . S
C1075 C1080 1.490 . S
C1076 H1066 0.930 . S
C1076 C1075 1.400 . S
C1076 C1079 1.386 . S
H1077 C1093 0.930 1_455 S
H1078 C1094 0.931 . S
C1079 H1067 0.929 . S
C1079 C1073 1.390 . S
C1079 C1076 1.386 . S
C1080 C1075 1.490 . S
C1080 C1082 1.395 . S
C1080 C1083 1.403 . S
H1081 C1087 0.930 . S
C1082 H1068 0.930 . S
C1082 C1080 1.395 . S
C1082 C1085 1.403 . S
C1083 C1080 1.403 . S
C1083 C1084 1.524 . S
C1083 C1087 1.400 . S
C1084 H1069 0.960 . S
C1084 H1070 0.960 . S
C1084 H1071 0.960 . S
C1084 C1083 1.524 . S
C1085 C1082 1.403 . S
C1085 C1086 1.392 . S
C1085 C1089 1.495 . S
C1086 C1085 1.392 . S
C1086 C1087 1.385 . S
C1086 C1088 1.478 . S
C1087 H1081 0.930 . S
C1087 C1083 1.400 . S
C1087 C1086 1.385 . S
C1088 C1086 1.478 . S
C1088 C1090 1.381 . S
C1088 C1094 1.383 . S
C1089 C1085 1.495 . S
C1089 H1095 0.959 . S
C1089 H1096 0.961 . S
C1089 H1097 0.960 . S
C1090 C1088 1.381 . S
C1090 C1091 1.394 . S
C1090 H1098 0.930 . S
C1091 C1090 1.394 . S
C1091 C1092 1.383 . S
C1091 H1099 0.892 1_545 S
C1092 C1091 1.383 . S
C1092 C1093 1.377 . S
C1093 H1077 0.930 1_655 S
C1093 C1092 1.377 . S
C1093 C1094 1.379 . S
C1094 H1078 0.931 . S
C1094 C1088 1.383 . S
C1094 C1093 1.379 . S
H1095 C1089 0.959 . S
H1096 C1089 0.961 . S
H1097 C1089 0.960 . S
H1098 C1090 0.930 . S
H1099 C1091 0.892 1_565 S
H1100 C1108 0.929 . S
H1101 C1110 0.930 . S
H1102 C1112 0.930 . S
H1103 C1115 0.929 . S
H1104 C1118 0.930 . S
H1105 C1120 0.960 . S
H1106 C1120 0.960 . S
H1107 C1120 0.960 . S
C1108 H1100 0.929 . S
C1108 C1109 1.377 . S
C1108 C1110 1.384 . S
C1109 C1108 1.377 . S
C1109 C1115 1.390 . S
C1110 H1101 0.930 . S
C1110 C1108 1.384 . S
C1110 C1111 1.372 . S
C1111 C1110 1.372 . S
C1111 C1112 1.400 . S
C1111 C1116 1.490 . S
C1112 H1102 0.930 . S
C1112 C1111 1.400 . S
C1112 C1115 1.386 . S
H1113 C1129 0.930 . S
H1114 C1130 0.931 . S
C1115 H1103 0.929 . S
C1115 C1109 1.390 . S
C1115 C1112 1.386 . S
C1116 C1111 1.490 . S
C1116 C1118 1.395 . S
C1116 C1119 1.403 . S
H1117 C1123 0.930 . S
C1118 H1104 0.930 . S
C1118 C1116 1.395 . S
C1118 C1121 1.403 . S
C1119 C1116 1.403 . S
C1119 C1120 1.524 . S
C1119 C1123 1.400 . S
C1120 H1105 0.960 . S
C1120 H1106 0.960 . S
C1120 H1107 0.960 . S
C1120 C1119 1.524 . S
C1121 C1118 1.403 . S
C1121 C1122 1.392 . S
C1121 C1125 1.495 . S
C1122 C1121 1.392 . S
C1122 C1123 1.385 . S
C1122 C1124 1.478 . S
C1123 H1117 0.930 . S
C1123 C1119 1.400 . S
C1123 C1122 1.385 . S
C1124 C1122 1.478 . S
C1124 C1126 1.381 . S
C1124 C1130 1.383 . S
C1125 C1121 1.495 . S
C1125 H1131 0.959 . S
C1125 H1132 0.961 . S
C1125 H1133 0.960 . S
C1126 C1124 1.381 . S
C1126 C1127 1.394 . S
C1126 H1134 0.930 . S
C1127 C1126 1.394 . S
C1127 C1128 1.383 . S
C1127 H1135 0.929 . S
C1128 C1127 1.383 . S
C1128 C1129 1.377 . S
C1129 H1113 0.930 . S
C1129 C1128 1.377 . S
C1129 C1130 1.379 . S
C1130 H1114 0.931 . S
C1130 C1124 1.383 . S
C1130 C1129 1.379 . S
H1131 C1125 0.959 . S
H1132 C1125 0.961 . S
H1133 C1125 0.960 . S
H1134 C1126 0.930 . S
H1135 C1127 0.929 . S
H1136 C1144 0.929 1_565 S
H1137 C1146 0.930 1_565 S
H1138 C1148 0.930 . S
H1139 C1151 0.929 . S
H1140 C1154 0.930 . S
H1141 C1156 0.960 . S
H1142 C1156 0.960 . S
H1143 C1156 0.960 . S
C1144 H1136 0.929 1_545 S
C1144 C1145 1.377 . S
C1144 C1146 1.384 . S
C1145 C1144 1.377 . S
C1145 C1151 1.390 . S
C1146 H1137 0.930 1_545 S
C1146 C1144 1.384 . S
C1146 C1147 1.372 . S
C1147 C1146 1.372 . S
C1147 C1148 1.400 . S
C1147 C1152 1.490 . S
C1148 H1138 0.930 . S
C1148 C1147 1.400 . S
C1148 C1151 1.386 . S
H1149 C1165 0.930 . S
H1150 C1166 0.931 . S
C1151 H1139 0.929 . S
C1151 C1145 1.390 . S
C1151 C1148 1.386 . S
C1152 C1147 1.490 . S
C1152 C1154 1.395 . S
C1152 C1155 1.403 . S
H1153 C1159 0.930 . S
C1154 H1140 0.930 . S
C1154 C1152 1.395 . S
C1154 C1157 1.403 . S
C1155 C1152 1.403 . S
C1155 C1156 1.524 . S
C1155 C1159 1.400 . S
C1156 H1141 0.960 . S
C1156 H1142 0.960 . S
C1156 H1143 0.960 . S
C1156 C1155 1.524 . S
C1157 C1154 1.403 . S
C1157 C1158 1.392 . S
C1157 C1161 1.495 . S
C1158 C1157 1.392 . S
C1158 C1159 1.385 . S
C1158 C1160 1.478 . S
C1159 H1153 0.930 . S
C1159 C1155 1.400 . S
C1159 C1158 1.385 . S
C1160 C1158 1.478 . S
C1160 C1162 1.381 . S
C1160 C1166 1.383 . S
C1161 C1157 1.495 . S
C1161 H1167 0.959 . S
C1161 H1168 0.961 . S
C1161 H1169 0.960 1_545 S
C1162 C1160 1.381 . S
C1162 C1163 1.394 . S
C1162 H1170 0.930 . S
C1163 C1162 1.394 . S
C1163 C1164 1.383 . S
C1163 H1171 0.929 . S
C1164 C1163 1.383 . S
C1164 C1165 1.377 . S
C1165 H1149 0.930 . S
C1165 C1164 1.377 . S
C1165 C1166 1.379 . S
C1166 H1150 0.931 . S
C1166 C1160 1.383 . S
C1166 C1165 1.379 . S
H1167 C1161 0.959 . S
H1168 C1161 0.961 . S
H1169 C1161 0.960 1_565 S
H1170 C1162 0.930 . S
H1171 C1163 0.929 . S
H1172 C1180 0.929 . S
H1173 C1182 0.930 . S
H1174 C1184 0.930 . S
H1175 C1187 0.929 . S
H1176 C1190 0.930 . S
H1177 C1192 0.960 . S
H1178 C1192 0.960 . S
H1179 C1192 0.960 . S
C1180 H1172 0.929 . S
C1180 C1181 1.377 . S
C1180 C1182 1.384 . S
C1181 C1180 1.377 . S
C1181 C1187 1.390 . S
C1182 H1173 0.930 . S
C1182 C1180 1.384 . S
C1182 C1183 1.372 . S
C1183 C1182 1.372 . S
C1183 C1184 1.400 . S
C1183 C1188 1.490 . S
C1184 H1174 0.930 . S
C1184 C1183 1.400 . S
C1184 C1187 1.386 . S
H1185 C1201 0.930 . S
H1186 C1202 0.931 . S
C1187 H1175 0.929 . S
C1187 C1181 1.390 . S
C1187 C1184 1.386 . S
C1188 C1183 1.490 . S
C1188 C1190 1.395 . S
C1188 C1191 1.403 . S
H1189 C1195 0.930 . S
C1190 H1176 0.930 . S
C1190 C1188 1.395 . S
C1190 C1193 1.403 . S
C1191 C1188 1.403 . S
C1191 C1192 1.524 . S
C1191 C1195 1.400 . S
C1192 H1177 0.960 . S
C1192 H1178 0.960 . S
C1192 H1179 0.960 . S
C1192 C1191 1.524 . S
C1193 C1190 1.403 . S
C1193 C1194 1.392 . S
C1193 C1197 1.495 . S
C1194 C1193 1.392 . S
C1194 C1195 1.385 . S
C1194 C1196 1.478 . S
C1195 H1189 0.930 . S
C1195 C1191 1.400 . S
C1195 C1194 1.385 . S
C1196 C1194 1.478 . S
C1196 C1198 1.381 . S
C1196 C1202 1.383 . S
C1197 C1193 1.495 . S
C1197 H1203 0.959 . S
C1197 H1204 0.961 . S
C1197 H1205 0.960 . S
C1198 C1196 1.381 . S
C1198 C1199 1.394 . S
C1198 H1206 0.930 . S
C1199 C1198 1.394 . S
C1199 C1200 1.383 . S
C1199 H1207 0.929 . S
C1200 C1199 1.383 . S
C1200 C1201 1.377 . S
C1201 H1185 0.930 . S
C1201 C1200 1.377 . S
C1201 C1202 1.379 . S
C1202 H1186 0.931 . S
C1202 C1196 1.383 . S
C1202 C1201 1.379 . S
H1203 C1197 0.959 . S
H1204 C1197 0.961 . S
H1205 C1197 0.960 . S
H1206 C1198 0.930 . S
H1207 C1199 0.929 . S
H1208 C1216 0.929 . S
H1209 C1218 0.930 . S
H1210 C1220 0.930 . S
H1211 C1223 0.929 . S
H1212 C1226 0.930 . S
H1213 C1228 0.960 . S
H1214 C1228 0.960 . S
H1215 C1228 0.960 . S
C1216 H1208 0.929 . S
C1216 C1217 1.377 . S
C1216 C1218 1.384 . S
C1217 C1216 1.377 . S
C1217 C1223 1.390 . S
C1218 H1209 0.930 . S
C1218 C1216 1.384 . S
C1218 C1219 1.372 . S
C1219 C1218 1.372 . S
C1219 C1220 1.400 . S
C1219 C1224 1.490 . S
C1220 H1210 0.930 . S
C1220 C1219 1.400 . S
C1220 C1223 1.386 . S
H1221 C1237 0.930 . S
H1222 C1238 0.931 . S
C1223 H1211 0.929 . S
C1223 C1217 1.390 . S
C1223 C1220 1.386 . S
C1224 C1219 1.490 . S
C1224 C1226 1.395 . S
C1224 C1227 1.403 . S
H1225 C1231 0.930 . S
C1226 H1212 0.930 . S
C1226 C1224 1.395 . S
C1226 C1229 1.403 . S
C1227 C1224 1.403 . S
C1227 C1228 1.524 . S
C1227 C1231 1.400 . S
C1228 H1213 0.960 . S
C1228 H1214 0.960 . S
C1228 H1215 0.960 . S
C1228 C1227 1.524 . S
C1229 C1226 1.403 . S
C1229 C1230 1.392 . S
C1229 C1233 1.495 1_565 S
C1230 C1229 1.392 . S
C1230 C1231 1.385 . S
C1230 C1232 1.478 . S
C1231 H1225 0.930 . S
C1231 C1227 1.400 . S
C1231 C1230 1.385 . S
C1232 C1230 1.478 . S
C1232 C1234 1.403 . S
C1232 C1238 1.383 . S
C1233 C1229 1.495 1_545 S
C1233 H1239 0.959 . S
C1233 H1240 0.961 . S
C1233 H1241 0.960 . S
C1234 C1232 1.403 . S
C1234 C1235 1.379 1_565 S
C1234 H1242 0.925 1_565 S
C1235 C1234 1.379 1_545 S
C1235 C1236 1.383 1_545 S
C1235 H1243 0.929 . S
C1236 C1235 1.383 1_565 S
C1236 C1237 1.377 . S
C1237 H1221 0.930 . S
C1237 C1236 1.377 . S
C1237 C1238 1.379 . S
C1238 H1222 0.931 . S
C1238 C1232 1.383 . S
C1238 C1237 1.379 . S
H1239 C1233 0.959 . S
H1240 C1233 0.961 . S
H1241 C1233 0.960 . S
H1242 C1234 0.925 1_545 S
H1243 C1235 0.929 . S
H1244 C1252 0.929 . S
H1245 C1254 0.930 . S
H1246 C1256 0.930 . S
H1247 C1259 0.929 . S
H1248 C1262 0.930 . S
H1249 C1264 0.960 . S
H1250 C1264 0.960 . S
H1251 C1264 0.960 . S
C1252 H1244 0.929 . S
C1252 C1253 1.377 . S
C1252 C1254 1.384 . S
C1253 C1252 1.377 . S
C1253 C1259 1.390 1_554 S
C1254 H1245 0.930 . S
C1254 C1252 1.384 . S
C1254 C1255 1.372 . S
C1255 C1254 1.372 . S
C1255 C1256 1.400 1_554 S
C1255 C1260 1.490 . S
C1256 H1246 0.930 . S
C1256 C1255 1.400 1_556 S
C1256 C1259 1.386 . S
H1257 C1273 0.930 1_556 S
H1258 C1274 0.931 1_556 S
C1259 H1247 0.929 . S
C1259 C1253 1.390 1_556 S
C1259 C1256 1.386 . S
C1260 C1255 1.490 . S
C1260 C1262 1.395 . S
C1260 C1263 1.403 1_554 S
H1261 C1267 0.930 . S
C1262 H1248 0.930 . S
C1262 C1260 1.395 . S
C1262 C1265 1.403 . S
C1263 C1260 1.403 1_556 S
C1263 C1264 1.524 . S
C1263 C1267 1.400 . S
C1264 H1249 0.960 . S
C1264 H1250 0.960 . S
C1264 H1251 0.960 . S
C1264 C1263 1.524 . S
C1265 C1262 1.403 . S
C1265 C1266 1.392 . S
C1265 C1269 1.495 . S
C1266 C1265 1.392 . S
C1266 C1267 1.385 1_554 S
C1266 C1268 1.478 . S
C1267 H1261 0.930 . S
C1267 C1263 1.400 . S
C1267 C1266 1.385 1_556 S
C1268 C1266 1.478 . S
C1268 C1270 1.381 . S
C1268 C1274 1.383 . S
C1269 C1265 1.495 . S
C1269 H1275 0.959 . S
C1269 H1276 0.961 . S
C1269 H1277 0.960 . S
C1270 C1268 1.381 . S
C1270 C1271 1.394 . S
C1270 H1278 0.930 . S
C1271 C1270 1.394 . S
C1271 C1272 1.383 . S
C1271 H1279 0.929 . S
C1272 C1271 1.383 . S
C1272 C1273 1.377 . S
C1273 H1257 0.930 1_554 S
C1273 C1272 1.377 . S
C1273 C1274 1.379 . S
C1274 H1258 0.931 1_554 S
C1274 C1268 1.383 . S
C1274 C1273 1.379 . S
H1275 C1269 0.959 . S
H1276 C1269 0.961 . S
H1277 C1269 0.960 . S
H1278 C1270 0.930 . S
H1279 C1271 0.929 . S
H1280 C1288 0.929 . S
H1281 C1290 0.930 . S
H1282 C1292 0.930 . S
H1283 C1295 0.929 . S
H1284 C1298 0.930 . S
H1285 C1300 0.960 . S
H1286 C1300 0.960 . S
H1287 C1300 0.960 . S
C1288 H1280 0.929 . S
C1288 C1289 1.377 . S
C1288 C1290 1.384 . S
C1289 C1288 1.377 . S
C1289 C1295 1.390 . S
C1290 H1281 0.930 . S
C1290 C1288 1.384 . S
C1290 C1291 1.372 . S
C1291 C1290 1.372 . S
C1291 C1292 1.400 . S
C1291 C1296 1.490 . S
C1292 H1282 0.930 . S
C1292 C1291 1.400 . S
C1292 C1295 1.386 . S
H1293 C1309 0.930 . S
H1294 C1310 0.931 . S
C1295 H1283 0.929 . S
C1295 C1289 1.390 . S
C1295 C1292 1.386 . S
C1296 C1291 1.490 . S
C1296 C1298 1.395 . S
C1296 C1299 1.403 . S
H1297 C1303 0.930 . S
C1298 H1284 0.930 . S
C1298 C1296 1.395 . S
C1298 C1301 1.403 . S
C1299 C1296 1.403 . S
C1299 C1300 1.524 . S
C1299 C1303 1.400 . S
C1300 H1285 0.960 . S
C1300 H1286 0.960 . S
C1300 H1287 0.960 . S
C1300 C1299 1.524 . S
C1301 C1298 1.403 . S
C1301 C1302 1.392 . S
C1301 C1305 1.495 . S
C1302 C1301 1.392 . S
C1302 C1303 1.385 . S
C1302 C1304 1.478 . S
C1303 H1297 0.930 . S
C1303 C1299 1.400 . S
C1303 C1302 1.385 . S
C1304 C1302 1.478 . S
C1304 C1306 1.381 . S
C1304 C1310 1.383 . S
C1305 C1301 1.495 . S
C1305 H1311 0.959 . S
C1305 H1312 0.961 . S
C1305 H1313 0.960 . S
C1306 C1304 1.381 . S
C1306 C1307 1.394 . S
C1306 H1314 0.930 . S
C1307 C1306 1.394 . S
C1307 C1308 1.383 . S
C1307 H1315 0.929 . S
C1308 C1307 1.383 . S
C1308 C1309 1.377 . S
C1309 H1293 0.930 . S
C1309 C1308 1.377 . S
C1309 C1310 1.379 . S
C1310 H1294 0.931 . S
C1310 C1304 1.383 . S
C1310 C1309 1.379 . S
H1311 C1305 0.959 . S
H1312 C1305 0.961 . S
H1313 C1305 0.960 . S
H1314 C1306 0.930 . S
H1315 C1307 0.929 . S
H1316 C1324 0.929 . S
H1317 C1326 0.930 . S
H1318 C1328 0.930 . S
H1319 C1331 0.929 . S
H1320 C1334 0.930 . S
H1321 C1336 0.960 . S
H1322 C1336 0.960 . S
H1323 C1336 0.960 . S
C1324 H1316 0.929 . S
C1324 C1325 1.377 . S
C1324 C1326 1.384 . S
C1325 C1324 1.377 . S
C1325 C1331 1.390 . S
C1326 H1317 0.930 . S
C1326 C1324 1.384 . S
C1326 C1327 1.372 . S
C1327 C1326 1.372 . S
C1327 C1328 1.400 . S
C1327 C1332 1.490 . S
C1328 H1318 0.930 . S
C1328 C1327 1.400 . S
C1328 C1331 1.386 . S
H1329 C1345 0.930 . S
H1330 C1346 0.931 . S
C1331 H1319 0.929 . S
C1331 C1325 1.390 . S
C1331 C1328 1.386 . S
C1332 C1327 1.490 . S
C1332 C1334 1.395 . S
C1332 C1335 1.403 . S
H1333 C1339 0.930 . S
C1334 H1320 0.930 . S
C1334 C1332 1.395 . S
C1334 C1337 1.403 . S
C1335 C1332 1.403 . S
C1335 C1336 1.524 . S
C1335 C1339 1.400 . S
C1336 H1321 0.960 . S
C1336 H1322 0.960 . S
C1336 H1323 0.960 . S
C1336 C1335 1.524 . S
C1337 C1334 1.403 . S
C1337 C1338 1.392 . S
C1337 C1341 1.495 . S
C1338 C1337 1.392 . S
C1338 C1339 1.385 . S
C1338 C1340 1.478 . S
C1339 H1333 0.930 . S
C1339 C1335 1.400 . S
C1339 C1338 1.385 . S
C1340 C1338 1.478 . S
C1340 C1342 1.381 . S
C1340 C1346 1.383 . S
C1341 C1337 1.495 . S
C1341 H1347 0.959 . S
C1341 H1348 0.961 . S
C1341 H1349 0.960 . S
C1342 C1340 1.381 . S
C1342 C1343 1.394 . S
C1342 H1350 0.930 . S
C1343 C1342 1.394 . S
C1343 C1344 1.383 . S
C1343 H1351 0.929 . S
C1344 C1343 1.383 . S
C1344 C1345 1.377 . S
C1345 H1329 0.930 . S
C1345 C1344 1.377 . S
C1345 C1346 1.379 . S
C1346 H1330 0.931 . S
C1346 C1340 1.383 . S
C1346 C1345 1.379 . S
H1347 C1341 0.959 . S
H1348 C1341 0.961 . S
H1349 C1341 0.960 . S
H1350 C1342 0.930 . S
H1351 C1343 0.929 . S
H1352 C1360 0.929 . S
H1353 C1362 0.930 . S
H1354 C1364 0.930 . S
H1355 C1367 0.929 . S
H1356 C1370 0.930 . S
H1357 C1372 0.960 . S
H1358 C1372 0.960 . S
H1359 C1372 0.960 . S
C1360 H1352 0.929 . S
C1360 C1361 1.377 . S
C1360 C1362 1.384 . S
C1361 C1360 1.377 . S
C1361 C1367 1.390 . S
C1362 H1353 0.930 . S
C1362 C1360 1.384 . S
C1362 C1363 1.372 . S
C1363 C1362 1.372 . S
C1363 C1364 1.400 . S
C1363 C1368 1.490 . S
C1364 H1354 0.930 . S
C1364 C1363 1.400 . S
C1364 C1367 1.386 . S
H1365 C1381 0.930 . S
H1366 C1382 0.931 . S
C1367 H1355 0.929 . S
C1367 C1361 1.390 . S
C1367 C1364 1.386 . S
C1368 C1363 1.490 . S
C1368 C1370 1.395 . S
C1368 C1371 1.403 . S
H1369 C1375 0.930 . S
C1370 H1356 0.930 . S
C1370 C1368 1.395 . S
C1370 C1373 1.403 . S
C1371 C1368 1.403 . S
C1371 C1372 1.524 . S
C1371 C1375 1.400 . S
C1372 H1357 0.960 . S
C1372 H1358 0.960 . S
C1372 H1359 0.960 . S
C1372 C1371 1.524 . S
C1373 C1370 1.403 . S
C1373 C1374 1.392 . S
C1373 C1377 1.495 . S
C1374 C1373 1.392 . S
C1374 C1375 1.385 . S
C1374 C1376 1.478 . S
C1375 H1369 0.930 . S
C1375 C1371 1.400 . S
C1375 C1374 1.385 . S
C1376 C1374 1.478 . S
C1376 C1378 1.381 . S
C1376 C1382 1.383 . S
C1377 C1373 1.495 . S
C1377 H1383 0.959 . S
C1377 H1384 0.961 . S
C1377 H1385 0.960 . S
C1378 C1376 1.381 . S
C1378 C1379 1.394 . S
C1378 H1386 0.930 . S
C1379 C1378 1.394 . S
C1379 C1380 1.383 . S
C1379 H1387 0.929 . S
C1380 C1379 1.383 . S
C1380 C1381 1.377 . S
C1381 H1365 0.930 . S
C1381 C1380 1.377 . S
C1381 C1382 1.379 . S
C1382 H1366 0.931 . S
C1382 C1376 1.383 . S
C1382 C1381 1.379 . S
H1383 C1377 0.959 . S
H1384 C1377 0.961 . S
H1385 C1377 0.960 . S
H1386 C1378 0.930 . S
H1387 C1379 0.929 . S
H1388 C1396 0.929 . S
H1389 C1398 0.930 . S
H1390 C1400 0.930 . S
H1391 C1403 0.929 . S
H1392 C1406 0.930 . S
H1393 C1408 0.960 . S
H1394 C1408 0.960 . S
H1395 C1408 0.960 . S
C1396 H1388 0.929 . S
C1396 C1397 1.377 . S
C1396 C1398 1.384 . S
C1397 C1396 1.377 . S
C1397 C1403 1.390 . S
C1398 H1389 0.930 . S
C1398 C1396 1.384 . S
C1398 C1399 1.372 . S
C1399 C1398 1.372 . S
C1399 C1400 1.400 . S
C1399 C1404 1.490 . S
C1400 H1390 0.930 . S
C1400 C1399 1.400 . S
C1400 C1403 1.386 . S
H1401 C1417 0.930 . S
H1402 C1418 0.931 . S
C1403 H1391 0.929 . S
C1403 C1397 1.390 . S
C1403 C1400 1.386 . S
C1404 C1399 1.490 . S
C1404 C1406 1.395 . S
C1404 C1407 1.403 . S
H1405 C1411 0.930 . S
C1406 H1392 0.930 . S
C1406 C1404 1.395 . S
C1406 C1409 1.403 . S
C1407 C1404 1.403 . S
C1407 C1408 1.524 . S
C1407 C1411 1.400 . S
C1408 H1393 0.960 . S
C1408 H1394 0.960 . S
C1408 H1395 0.960 . S
C1408 C1407 1.524 . S
C1409 C1406 1.403 . S
C1409 C1410 1.392 . S
C1409 C1413 1.495 . S
C1410 C1409 1.392 . S
C1410 C1411 1.385 . S
C1410 C1412 1.478 . S
C1411 H1405 0.930 . S
C1411 C1407 1.400 . S
C1411 C1410 1.385 . S
C1412 C1410 1.478 . S
C1412 C1414 1.381 . S
C1412 C1418 1.383 . S
C1413 C1409 1.495 . S
C1413 H1419 0.959 . S
C1413 H1420 0.961 . S
C1413 H1421 0.960 . S
C1414 C1412 1.381 . S
C1414 C1415 1.394 . S
C1414 H1422 0.930 . S
C1415 C1414 1.394 . S
C1415 C1416 1.383 . S
C1415 H1423 0.929 . S
C1416 C1415 1.383 . S
C1416 C1417 1.377 . S
C1417 H1401 0.930 . S
C1417 C1416 1.377 . S
C1417 C1418 1.379 . S
C1418 H1402 0.931 . S
C1418 C1412 1.383 . S
C1418 C1417 1.379 . S
H1419 C1413 0.959 . S
H1420 C1413 0.961 . S
H1421 C1413 0.960 . S
H1422 C1414 0.930 . S
H1423 C1415 0.929 . S
H1424 C1432 0.929 . S
H1425 C1434 0.930 . S
H1426 C1436 0.930 . S
H1427 C1439 0.929 . S
H1428 C1442 0.930 . S
H1429 C1444 0.960 . S
H1430 C1444 0.960 . S
H1431 C1444 0.960 . S
C1432 H1424 0.929 . S
C1432 C1433 1.377 . S
C1432 C1434 1.384 . S
C1433 C1432 1.377 . S
C1433 C1439 1.390 . S
C1434 H1425 0.930 . S
C1434 C1432 1.384 . S
C1434 C1435 1.372 . S
C1435 C1434 1.372 . S
C1435 C1436 1.400 . S
C1435 C1440 1.490 . S
C1436 H1426 0.930 . S
C1436 C1435 1.400 . S
C1436 C1439 1.386 . S
H1437 C1453 0.930 . S
H1438 C1454 0.931 . S
C1439 H1427 0.929 . S
C1439 C1433 1.390 . S
C1439 C1436 1.386 . S
C1440 C1435 1.490 . S
C1440 C1442 1.395 . S
C1440 C1443 1.403 . S
H1441 C1447 0.930 . S
C1442 H1428 0.930 . S
C1442 C1440 1.395 . S
C1442 C1445 1.403 . S
C1443 C1440 1.403 . S
C1443 C1444 1.524 . S
C1443 C1447 1.400 . S
C1444 H1429 0.960 . S
C1444 H1430 0.960 . S
C1444 H1431 0.960 . S
C1444 C1443 1.524 . S
C1445 C1442 1.403 . S
C1445 C1446 1.392 . S
C1445 C1449 1.495 . S
C1446 C1445 1.392 . S
C1446 C1447 1.385 . S
C1446 C1448 1.478 . S
C1447 H1441 0.930 . S
C1447 C1443 1.400 . S
C1447 C1446 1.385 . S
C1448 C1446 1.478 . S
C1448 C1450 1.381 . S
C1448 C1454 1.383 . S
C1449 C1445 1.495 . S
C1449 H1455 0.959 . S
C1449 H1456 0.961 . S
C1449 H1457 0.960 . S
C1450 C1448 1.381 . S
C1450 C1451 1.394 . S
C1450 H1458 0.930 . S
C1451 C1450 1.394 . S
C1451 C1452 1.383 . S
C1451 H1459 0.929 . S
C1452 C1451 1.383 . S
C1452 C1453 1.377 . S
C1453 H1437 0.930 . S
C1453 C1452 1.377 . S
C1453 C1454 1.379 . S
C1454 H1438 0.931 . S
C1454 C1448 1.383 . S
C1454 C1453 1.379 . S
H1455 C1449 0.959 . S
H1456 C1449 0.961 . S
H1457 C1449 0.960 . S
H1458 C1450 0.930 . S
H1459 C1451 0.929 . S
H1460 C1468 0.929 . S
H1461 C1470 0.930 . S
H1462 C1472 0.930 . S
H1463 C1475 0.929 . S
H1464 C1478 0.930 . S
H1465 C1480 0.960 . S
H1466 C1480 0.960 . S
H1467 C1480 0.960 . S
C1468 H1460 0.929 . S
C1468 C1469 1.377 . S
C1468 C1470 1.384 . S
C1469 C1468 1.377 . S
C1469 C1475 1.390 . S
C1470 H1461 0.930 . S
C1470 C1468 1.384 . S
C1470 C1471 1.372 . S
C1471 C1470 1.372 . S
C1471 C1472 1.400 . S
C1471 C1476 1.490 . S
C1472 H1462 0.930 . S
C1472 C1471 1.400 . S
C1472 C1475 1.386 . S
H1473 C1489 0.930 . S
H1474 C1490 0.931 . S
C1475 H1463 0.929 . S
C1475 C1469 1.390 . S
C1475 C1472 1.386 . S
C1476 C1471 1.490 . S
C1476 C1478 1.395 . S
C1476 C1479 1.403 . S
H1477 C1483 0.930 . S
C1478 H1464 0.930 . S
C1478 C1476 1.395 . S
C1478 C1481 1.403 . S
C1479 C1476 1.403 . S
C1479 C1480 1.524 . S
C1479 C1483 1.400 . S
C1480 H1465 0.960 . S
C1480 H1466 0.960 . S
C1480 H1467 0.960 . S
C1480 C1479 1.524 . S
C1481 C1478 1.403 . S
C1481 C1482 1.392 . S
C1481 C1485 1.495 . S
C1482 C1481 1.392 . S
C1482 C1483 1.385 . S
C1482 C1484 1.478 . S
C1483 H1477 0.930 . S
C1483 C1479 1.400 . S
C1483 C1482 1.385 . S
C1484 C1482 1.478 . S
C1484 C1486 1.381 . S
C1484 C1490 1.383 . S
C1485 C1481 1.495 . S
C1485 H1491 0.959 . S
C1485 H1492 0.961 . S
C1485 H1493 0.960 . S
C1486 C1484 1.381 . S
C1486 C1487 1.394 . S
C1486 H1494 0.930 . S
C1487 C1486 1.394 . S
C1487 C1488 1.383 . S
C1487 H1495 0.929 . S
C1488 C1487 1.383 . S
C1488 C1489 1.377 . S
C1489 H1473 0.930 . S
C1489 C1488 1.377 . S
C1489 C1490 1.379 . S
C1490 H1474 0.931 . S
C1490 C1484 1.383 . S
C1490 C1489 1.379 . S
H1491 C1485 0.959 . S
H1492 C1485 0.961 . S
H1493 C1485 0.960 . S
H1494 C1486 0.930 . S
H1495 C1487 0.929 . S
H1496 C1504 0.929 . S
H1497 C1506 0.930 . S
H1498 C1508 0.930 . S
H1499 C1511 0.929 . S
H1500 C1514 0.930 1_655 S
H1501 C1516 0.960 . S
H1502 C1516 0.960 . S
H1503 C1516 0.960 . S
C1504 H1496 0.929 . S
C1504 C1505 1.377 . S
C1504 C1506 1.384 . S
C1505 C1504 1.377 . S
C1505 C1511 1.390 . S
C1506 H1497 0.930 . S
C1506 C1504 1.384 . S
C1506 C1507 1.372 . S
C1507 C1506 1.372 . S
C1507 C1508 1.400 . S
C1507 C1512 1.490 . S
C1508 H1498 0.930 . S
C1508 C1507 1.400 . S
C1508 C1511 1.386 . S
H1509 C1525 0.930 . S
H1510 C1526 0.931 . S
C1511 H1499 0.929 . S
C1511 C1505 1.390 . S
C1511 C1508 1.386 . S
C1512 C1507 1.490 . S
C1512 C1514 1.395 . S
C1512 C1515 1.403 . S
H1513 C1519 0.930 . S
C1514 H1500 0.930 1_455 S
C1514 C1512 1.395 . S
C1514 C1517 1.403 1_455 S
C1515 C1512 1.403 . S
C1515 C1516 1.524 . S
C1515 C1519 1.400 . S
C1516 H1501 0.960 . S
C1516 H1502 0.960 . S
C1516 H1503 0.960 . S
C1516 C1515 1.524 . S
C1517 C1514 1.403 1_655 S
C1517 C1518 1.392 1_655 S
C1517 C1521 1.495 . S
C1518 C1517 1.392 1_455 S
C1518 C1519 1.385 . S
C1518 C1520 1.478 . S
C1519 H1513 0.930 . S
C1519 C1515 1.400 . S
C1519 C1518 1.385 . S
C1520 C1518 1.478 . S
C1520 C1522 1.381 . S
C1520 C1526 1.383 . S
C1521 C1517 1.495 . S
C1521 H1527 0.959 . S
C1521 H1528 0.961 . S
C1521 H1529 0.960 . S
C1522 C1520 1.381 . S
C1522 C1523 1.394 . S
C1522 H1530 0.930 . S
C1523 C1522 1.394 . S
C1523 C1524 1.383 . S
C1523 H1531 0.929 1_554 S
C1524 C1523 1.383 . S
C1524 C1525 1.377 . S
C1525 H1509 0.930 . S
C1525 C1524 1.377 . S
C1525 C1526 1.379 . S
C1526 H1510 0.931 . S
C1526 C1520 1.383 . S
C1526 C1525 1.379 . S
H1527 C1521 0.959 . S
H1528 C1521 0.961 . S
H1529 C1521 0.960 . S
H1530 C1522 0.930 . S
H1531 C1523 0.929 1_556 S
H1532 C1540 0.929 . S
H1533 C1542 0.930 . S
H1534 C1544 0.930 . S
H1535 C1547 0.929 . S
H1536 C1550 0.930 . S
H1537 C1552 0.960 . S
H1538 C1552 0.960 . S
H1539 C1552 0.960 . S
C1540 H1532 0.929 . S
C1540 C1541 1.377 . S
C1540 C1542 1.384 . S
C1541 C1540 1.377 . S
C1541 C1547 1.390 . S
C1542 H1533 0.930 . S
C1542 C1540 1.384 . S
C1542 C1543 1.372 . S
C1543 C1542 1.372 . S
C1543 C1544 1.400 . S
C1543 C1548 1.490 . S
C1544 H1534 0.930 . S
C1544 C1543 1.400 . S
C1544 C1547 1.386 . S
H1545 C1561 0.930 . S
H1546 C1562 0.931 . S
C1547 H1535 0.929 . S
C1547 C1541 1.390 . S
C1547 C1544 1.386 . S
C1548 C1543 1.490 . S
C1548 C1550 1.395 . S
C1548 C1551 1.403 . S
H1549 C1555 0.930 . S
C1550 H1536 0.930 . S
C1550 C1548 1.395 . S
C1550 C1553 1.403 . S
C1551 C1548 1.403 . S
C1551 C1552 1.524 . S
C1551 C1555 1.400 . S
C1552 H1537 0.960 . S
C1552 H1538 0.960 . S
C1552 H1539 0.960 . S
C1552 C1551 1.524 . S
C1553 C1550 1.403 . S
C1553 C1554 1.392 . S
C1553 C1557 1.495 . S
C1554 C1553 1.392 . S
C1554 C1555 1.385 . S
C1554 C1556 1.478 . S
C1555 H1549 0.930 . S
C1555 C1551 1.400 . S
C1555 C1554 1.385 . S
C1556 C1554 1.478 . S
C1556 C1558 1.381 . S
C1556 C1562 1.383 . S
C1557 C1553 1.495 . S
C1557 H1563 0.959 . S
C1557 H1564 0.961 . S
C1557 H1565 0.960 . S
C1558 C1556 1.381 . S
C1558 C1559 1.394 . S
C1558 H1566 0.930 . S
C1559 C1558 1.394 . S
C1559 C1560 1.383 . S
C1559 H1567 0.929 . S
C1560 C1559 1.383 . S
C1560 C1561 1.377 . S
C1561 H1545 0.930 . S
C1561 C1560 1.377 . S
C1561 C1562 1.379 . S
C1562 H1546 0.931 . S
C1562 C1556 1.383 . S
C1562 C1561 1.379 . S
H1563 C1557 0.959 . S
H1564 C1557 0.961 . S
H1565 C1557 0.960 . S
H1566 C1558 0.930 . S
H1567 C1559 0.929 . S
H1568 C1576 0.929 . S
H1569 C1578 0.930 . S
H1570 C1580 0.930 . S
H1571 C1583 0.929 . S
H1572 C1586 0.930 . S
H1573 C1588 0.960 . S
H1574 C1588 0.960 . S
H1575 C1588 0.960 . S
C1576 H1568 0.929 . S
C1576 C1577 1.377 . S
C1576 C1578 1.384 . S
C1577 C1576 1.377 . S
C1577 C1583 1.390 . S
C1578 H1569 0.930 . S
C1578 C1576 1.384 . S
C1578 C1579 1.372 . S
C1579 C1578 1.372 . S
C1579 C1580 1.400 . S
C1579 C1584 1.490 . S
C1580 H1570 0.930 . S
C1580 C1579 1.400 . S
C1580 C1583 1.386 . S
H1581 C1597 0.930 . S
H1582 C1598 0.931 . S
C1583 H1571 0.929 . S
C1583 C1577 1.390 . S
C1583 C1580 1.386 . S
C1584 C1579 1.490 . S
C1584 C1586 1.395 . S
C1584 C1587 1.403 . S
H1585 C1591 0.930 . S
C1586 H1572 0.930 . S
C1586 C1584 1.395 . S
C1586 C1589 1.403 . S
C1587 C1584 1.403 . S
C1587 C1588 1.524 . S
C1587 C1591 1.400 . S
C1588 H1573 0.960 . S
C1588 H1574 0.960 . S
C1588 H1575 0.960 . S
C1588 C1587 1.524 . S
C1589 C1586 1.403 . S
C1589 C1590 1.392 . S
C1589 C1593 1.495 . S
C1590 C1589 1.392 . S
C1590 C1591 1.385 . S
C1590 C1592 1.478 . S
C1591 H1585 0.930 . S
C1591 C1587 1.400 . S
C1591 C1590 1.385 . S
C1592 C1590 1.478 . S
C1592 C1594 1.381 . S
C1592 C1598 1.383 . S
C1593 C1589 1.495 . S
C1593 H1599 0.959 . S
C1593 H1600 0.961 . S
C1593 H1601 0.960 . S
C1594 C1592 1.381 . S
C1594 C1595 1.394 . S
C1594 H1602 0.930 . S
C1595 C1594 1.394 . S
C1595 C1596 1.383 . S
C1595 H1603 0.929 . S
C1596 C1595 1.383 . S
C1596 C1597 1.377 . S
C1597 H1581 0.930 . S
C1597 C1596 1.377 . S
C1597 C1598 1.379 . S
C1598 H1582 0.931 . S
C1598 C1592 1.383 . S
C1598 C1597 1.379 . S
H1599 C1593 0.959 . S
H1600 C1593 0.961 . S
H1601 C1593 0.960 . S
H1602 C1594 0.930 . S
H1603 C1595 0.929 . S
H1604 C1612 0.929 . S
H1605 C1614 0.930 . S
H1606 C1616 0.930 . S
H1607 C1619 0.929 . S
H1608 C1622 0.930 . S
H1609 C1624 0.960 . S
H1610 C1624 0.960 . S
H1611 C1624 0.960 . S
C1612 H1604 0.929 . S
C1612 C1613 1.377 . S
C1612 C1614 1.384 . S
C1613 C1612 1.377 . S
C1613 C1619 1.390 . S
C1614 H1605 0.930 . S
C1614 C1612 1.384 . S
C1614 C1615 1.372 . S
C1615 C1614 1.372 . S
C1615 C1616 1.400 . S
C1615 C1620 1.490 . S
C1616 H1606 0.930 . S
C1616 C1615 1.400 . S
C1616 C1619 1.386 . S
H1617 C1633 0.930 . S
H1618 C1634 0.931 . S
C1619 H1607 0.929 . S
C1619 C1613 1.390 . S
C1619 C1616 1.386 . S
C1620 C1615 1.490 . S
C1620 C1622 1.395 . S
C1620 C1623 1.403 . S
H1621 C1627 0.930 . S
C1622 H1608 0.930 . S
C1622 C1620 1.395 . S
C1622 C1625 1.403 . S
C1623 C1620 1.403 . S
C1623 C1624 1.524 . S
C1623 C1627 1.400 . S
C1624 H1609 0.960 . S
C1624 H1610 0.960 . S
C1624 H1611 0.960 . S
C1624 C1623 1.524 . S
C1625 C1622 1.403 . S
C1625 C1626 1.392 . S
C1625 C1629 1.495 . S
C1626 C1625 1.392 . S
C1626 C1627 1.385 . S
C1626 C1628 1.478 . S
C1627 H1621 0.930 . S
C1627 C1623 1.400 . S
C1627 C1626 1.385 . S
C1628 C1626 1.478 . S
C1628 C1630 1.381 . S
C1628 C1634 1.383 . S
C1629 C1625 1.495 . S
C1629 H1635 0.959 . S
C1629 H1636 0.961 . S
C1629 H1637 0.960 . S
C1630 C1628 1.381 . S
C1630 C1631 1.394 . S
C1630 H1638 0.930 . S
C1631 C1630 1.394 . S
C1631 C1632 1.383 . S
C1631 H1639 0.929 . S
C1632 C1631 1.383 . S
C1632 C1633 1.377 . S
C1633 H1617 0.930 . S
C1633 C1632 1.377 . S
C1633 C1634 1.379 . S
C1634 H1618 0.931 . S
C1634 C1628 1.383 . S
C1634 C1633 1.379 . S
H1635 C1629 0.959 . S
H1636 C1629 0.961 . S
H1637 C1629 0.960 . S
H1638 C1630 0.930 . S
H1639 C1631 0.929 . S
H1640 C1648 0.929 . S
H1641 C1650 0.930 . S
H1642 C1652 0.930 . S
H1643 C1655 0.929 . S
H1644 C1658 0.930 . S
H1645 C1660 0.960 1_655 S
H1646 C1660 0.988 . S
H1647 C1660 0.931 1_655 S
C1648 H1640 0.929 . S
C1648 C1649 1.377 . S
C1648 C1650 1.384 . S
C1649 C1648 1.377 . S
C1649 C1655 1.390 1_455 S
C1650 H1641 0.930 . S
C1650 C1648 1.384 . S
C1650 C1651 1.372 . S
C1651 C1650 1.372 . S
C1651 C1652 1.400 1_455 S
C1651 C1656 1.490 . S
C1652 H1642 0.930 . S
C1652 C1651 1.400 1_655 S
C1652 C1655 1.386 . S
H1653 C1669 0.930 . S
H1654 C1670 0.931 . S
C1655 H1643 0.929 . S
C1655 C1649 1.390 1_655 S
C1655 C1652 1.386 . S
C1656 C1651 1.490 . S
C1656 C1658 1.395 . S
C1656 C1659 1.403 . S
H1657 C1663 0.930 1_655 S
C1658 H1644 0.930 . S
C1658 C1656 1.395 . S
C1658 C1661 1.403 . S
C1659 C1656 1.403 . S
C1659 C1660 1.526 . S
C1659 C1663 1.400 . S
C1660 H1645 0.960 1_455 S
C1660 H1646 0.988 . S
C1660 H1647 0.931 1_455 S
C1660 C1659 1.526 . S
C1661 C1658 1.403 . S
C1661 C1662 1.392 . S
C1661 C1665 1.495 . S
C1662 C1661 1.392 . S
C1662 C1663 1.385 . S
C1662 C1664 1.478 . S
C1663 H1657 0.930 1_455 S
C1663 C1659 1.400 . S
C1663 C1662 1.385 . S
C1664 C1662 1.478 . S
C1664 C1666 1.381 . S
C1664 C1670 1.383 1_455 S
C1665 C1661 1.495 . S
C1665 H1671 0.959 . S
C1665 H1672 0.961 . S
C1665 H1673 0.960 . S
C1666 C1664 1.381 . S
C1666 C1667 1.394 . S
C1666 H1674 0.930 . S
C1667 C1666 1.394 . S
C1667 C1668 1.390 . S
C1667 H1675 0.929 . S
C1668 C1667 1.390 . S
C1668 C1669 1.370 1_455 S
C1669 H1653 0.930 . S
C1669 C1668 1.370 1_655 S
C1669 C1670 1.379 . S
C1670 H1654 0.931 . S
C1670 C1664 1.383 1_655 S
C1670 C1669 1.379 . S
H1671 C1665 0.959 . S
H1672 C1665 0.961 . S
H1673 C1665 0.960 . S
H1674 C1666 0.930 . S
H1675 C1667 0.929 . S
H1676 C1684 0.929 . S
H1677 C1686 0.930 . S
H1678 C1688 0.930 . S
H1679 C1691 0.929 . S
H1680 C1694 0.930 . S
H1681 C1696 0.960 . S
H1682 C1696 0.960 . S
H1683 C1696 0.960 . S
C1684 H1676 0.929 . S
C1684 C1685 1.377 . S
C1684 C1686 1.384 . S
C1685 C1684 1.377 . S
C1685 C1691 1.390 . S
C1686 H1677 0.930 . S
C1686 C1684 1.384 . S
C1686 C1687 1.372 . S
C1687 C1686 1.372 . S
C1687 C1688 1.400 . S
C1687 C1692 1.490 . S
C1688 H1678 0.930 . S
C1688 C1687 1.400 . S
C1688 C1691 1.386 . S
H1689 C1705 0.930 . S
H1690 C1706 0.931 . S
C1691 H1679 0.929 . S
C1691 C1685 1.390 . S
C1691 C1688 1.386 . S
C1692 C1687 1.490 . S
C1692 C1694 1.395 . S
C1692 C1695 1.403 . S
H1693 C1699 0.930 . S
C1694 H1680 0.930 . S
C1694 C1692 1.395 . S
C1694 C1697 1.403 . S
C1695 C1692 1.403 . S
C1695 C1696 1.524 . S
C1695 C1699 1.400 . S
C1696 H1681 0.960 . S
C1696 H1682 0.960 . S
C1696 H1683 0.960 . S
C1696 C1695 1.524 . S
C1697 C1694 1.403 . S
C1697 C1698 1.392 . S
C1697 C1701 1.495 . S
C1698 C1697 1.392 . S
C1698 C1699 1.385 . S
C1698 C1700 1.478 . S
C1699 H1693 0.930 . S
C1699 C1695 1.400 . S
C1699 C1698 1.385 . S
C1700 C1698 1.478 . S
C1700 C1702 1.381 . S
C1700 C1706 1.383 . S
C1701 C1697 1.495 . S
C1701 H1707 0.959 . S
C1701 H1708 0.961 . S
C1701 H1709 0.960 . S
C1702 C1700 1.381 . S
C1702 C1703 1.394 . S
C1702 H1710 0.930 . S
C1703 C1702 1.394 . S
C1703 C1704 1.383 . S
C1703 H1711 0.929 . S
C1704 C1703 1.383 . S
C1704 C1705 1.377 . S
C1705 H1689 0.930 . S
C1705 C1704 1.377 . S
C1705 C1706 1.379 . S
C1706 H1690 0.931 . S
C1706 C1700 1.383 . S
C1706 C1705 1.379 . S
H1707 C1701 0.959 . S
H1708 C1701 0.961 . S
H1709 C1701 0.960 . S
H1710 C1702 0.930 . S
H1711 C1703 0.929 . S
H1712 C1720 0.929 . S
H1713 C1722 0.930 . S
H1714 C1724 0.930 . S
H1715 C1727 0.929 . S
H1716 C1730 0.930 . S
H1717 C1732 0.960 . S
H1718 C1732 0.960 . S
H1719 C1732 0.960 . S
C1720 H1712 0.929 . S
C1720 C1721 1.377 . S
C1720 C1722 1.384 . S
C1721 C1720 1.377 . S
C1721 C1727 1.390 . S
C1722 H1713 0.930 . S
C1722 C1720 1.384 . S
C1722 C1723 1.372 . S
C1723 C1722 1.372 . S
C1723 C1724 1.400 . S
C1723 C1728 1.490 . S
C1724 H1714 0.930 . S
C1724 C1723 1.400 . S
C1724 C1727 1.386 . S
H1725 C1741 0.930 . S
H1726 C1742 0.931 . S
C1727 H1715 0.929 . S
C1727 C1721 1.390 . S
C1727 C1724 1.386 . S
C1728 C1723 1.490 . S
C1728 C1730 1.395 . S
C1728 C1731 1.403 . S
H1729 C1735 0.930 . S
C1730 H1716 0.930 . S
C1730 C1728 1.395 . S
C1730 C1733 1.403 . S
C1731 C1728 1.403 . S
C1731 C1732 1.524 . S
C1731 C1735 1.400 . S
C1732 H1717 0.960 . S
C1732 H1718 0.960 . S
C1732 H1719 0.960 . S
C1732 C1731 1.524 . S
C1733 C1730 1.403 . S
C1733 C1734 1.392 . S
C1733 C1737 1.495 . S
C1734 C1733 1.392 . S
C1734 C1735 1.385 . S
C1734 C1736 1.478 . S
C1735 H1729 0.930 . S
C1735 C1731 1.400 . S
C1735 C1734 1.385 . S
C1736 C1734 1.478 . S
C1736 C1738 1.381 . S
C1736 C1742 1.383 . S
C1737 C1733 1.495 . S
C1737 H1743 0.959 . S
C1737 H1744 0.961 . S
C1737 H1745 0.960 . S
C1738 C1736 1.381 . S
C1738 C1739 1.394 1_556 S
C1738 H1746 0.946 . S
C1739 C1738 1.394 1_554 S
C1739 C1740 1.383 1_554 S
C1739 H1747 0.929 . S
C1740 C1739 1.383 1_556 S
C1740 C1741 1.377 . S
C1741 H1725 0.930 . S
C1741 C1740 1.377 . S
C1741 C1742 1.379 . S
C1742 H1726 0.931 . S
C1742 C1736 1.383 . S
C1742 C1741 1.379 . S
H1743 C1737 0.959 . S
H1744 C1737 0.961 . S
H1745 C1737 0.960 . S
H1746 C1738 0.946 . S
H1747 C1739 0.929 . S
H1748 C1756 0.929 . S
H1749 C1758 0.930 . S
H1750 C1760 0.930 . S
H1751 C1763 0.929 . S
H1752 C1766 0.930 . S
H1753 C1768 0.960 . S
H1754 C1768 0.960 . S
H1755 C1768 0.960 . S
C1756 H1748 0.929 . S
C1756 C1757 1.377 . S
C1756 C1758 1.384 . S
C1757 C1756 1.377 . S
C1757 C1763 1.390 . S
C1758 H1749 0.930 . S
C1758 C1756 1.384 . S
C1758 C1759 1.372 . S
C1759 C1758 1.372 . S
C1759 C1760 1.400 . S
C1759 C1764 1.490 . S
C1760 H1750 0.930 . S
C1760 C1759 1.400 . S
C1760 C1763 1.386 . S
H1761 C1777 0.930 . S
H1762 C1778 0.931 . S
C1763 H1751 0.929 . S
C1763 C1757 1.390 . S
C1763 C1760 1.386 . S
C1764 C1759 1.490 . S
C1764 C1766 1.395 . S
C1764 C1767 1.403 . S
H1765 C1771 0.930 . S
C1766 H1752 0.930 . S
C1766 C1764 1.395 . S
C1766 C1769 1.403 . S
C1767 C1764 1.403 . S
C1767 C1768 1.524 . S
C1767 C1771 1.400 . S
C1768 H1753 0.960 . S
C1768 H1754 0.960 . S
C1768 H1755 0.960 . S
C1768 C1767 1.524 . S
C1769 C1766 1.403 . S
C1769 C1770 1.392 . S
C1769 C1773 1.495 . S
C1770 C1769 1.392 . S
C1770 C1771 1.385 . S
C1770 C1772 1.478 . S
C1771 H1765 0.930 . S
C1771 C1767 1.400 . S
C1771 C1770 1.385 . S
C1772 C1770 1.478 . S
C1772 C1774 1.381 . S
C1772 C1778 1.383 . S
C1773 C1769 1.495 . S
C1773 H1779 0.959 . S
C1773 H1780 0.961 . S
C1773 H1781 0.960 . S
C1774 C1772 1.381 . S
C1774 C1775 1.394 . S
C1774 H1782 0.930 . S
C1775 C1774 1.394 . S
C1775 C1776 1.383 . S
C1775 H1783 0.929 . S
C1776 C1775 1.383 . S
C1776 C1777 1.377 . S
C1777 H1761 0.930 . S
C1777 C1776 1.377 . S
C1777 C1778 1.379 . S
C1778 H1762 0.931 . S
C1778 C1772 1.383 . S
C1778 C1777 1.379 . S
H1779 C1773 0.959 . S
H1780 C1773 0.961 . S
H1781 C1773 0.960 . S
H1782 C1774 0.930 . S
H1783 C1775 0.929 . S
H1784 C1792 0.929 . S
H1785 C1794 0.930 . S
H1786 C1796 0.930 . S
H1787 C1799 0.929 . S
H1788 C1802 0.930 . S
H1789 C1804 0.960 . S
H1790 C1804 0.960 . S
H1791 C1804 0.960 . S
C1792 H1784 0.929 . S
C1792 C1793 1.377 . S
C1792 C1794 1.384 . S
C1793 C1792 1.377 . S
C1793 C1799 1.390 1_565 S
C1794 H1785 0.930 . S
C1794 C1792 1.384 . S
C1794 C1795 1.360 1_565 S
C1795 C1794 1.360 1_545 S
C1795 C1796 1.411 . S
C1795 C1800 1.491 . S
C1796 H1786 0.930 . S
C1796 C1795 1.411 . S
C1796 C1799 1.386 . S
H1797 C1813 0.930 . S
H1798 C1814 0.931 . S
C1799 H1787 0.929 . S
C1799 C1793 1.390 1_545 S
C1799 C1796 1.386 . S
C1800 C1795 1.491 . S
C1800 C1802 1.395 1_545 S
C1800 C1803 1.403 . S
H1801 C1807 0.930 . S
C1802 H1788 0.930 . S
C1802 C1800 1.395 1_565 S
C1802 C1805 1.403 . S
C1803 C1800 1.403 . S
C1803 C1804 1.524 . S
C1803 C1807 1.400 . S
C1804 H1789 0.960 . S
C1804 H1790 0.960 . S
C1804 H1791 0.960 . S
C1804 C1803 1.524 . S
C1805 C1802 1.403 . S
C1805 C1806 1.392 1_565 S
C1805 C1809 1.495 . S
C1806 C1805 1.392 1_545 S
C1806 C1807 1.385 . S
C1806 C1808 1.478 . S
C1807 H1801 0.930 . S
C1807 C1803 1.400 . S
C1807 C1806 1.385 . S
C1808 C1806 1.478 . S
C1808 C1810 1.381 1_545 S
C1808 C1814 1.383 . S
C1809 C1805 1.495 . S
C1809 H1815 0.959 . S
C1809 H1816 0.961 . S
C1809 H1817 0.960 . S
C1810 C1808 1.381 1_565 S
C1810 C1811 1.394 . S
C1810 H1818 0.930 . S
C1811 C1810 1.394 . S
C1811 C1812 1.383 1_565 S
C1811 H1819 0.929 . S
C1812 C1811 1.383 1_545 S
C1812 C1813 1.377 . S
C1813 H1797 0.930 . S
C1813 C1812 1.377 . S
C1813 C1814 1.379 . S
C1814 H1798 0.931 . S
C1814 C1808 1.383 . S
C1814 C1813 1.379 . S
H1815 C1809 0.959 . S
H1816 C1809 0.961 . S
H1817 C1809 0.960 . S
H1818 C1810 0.930 . S
H1819 C1811 0.929 . S
H1820 C1828 0.929 . S
H1821 C1830 0.930 . S
H1822 C1832 0.930 . S
H1823 C1835 0.929 . S
H1824 C1838 0.930 . S
H1825 C1840 0.960 . S
H1826 C1840 0.960 . S
H1827 C1840 0.960 . S
C1828 H1820 0.929 . S
C1828 C1829 1.377 . S
C1828 C1830 1.384 . S
C1829 C1828 1.377 . S
C1829 C1835 1.390 . S
C1830 H1821 0.930 . S
C1830 C1828 1.384 . S
C1830 C1831 1.372 . S
C1831 C1830 1.372 . S
C1831 C1832 1.400 . S
C1831 C1836 1.490 . S
C1832 H1822 0.930 . S
C1832 C1831 1.400 . S
C1832 C1835 1.386 . S
H1833 C1849 0.930 . S
H1834 C1850 0.931 . S
C1835 H1823 0.929 . S
C1835 C1829 1.390 . S
C1835 C1832 1.386 . S
C1836 C1831 1.490 . S
C1836 C1838 1.395 . S
C1836 C1839 1.403 . S
H1837 C1843 0.930 . S
C1838 H1824 0.930 . S
C1838 C1836 1.395 . S
C1838 C1841 1.403 . S
C1839 C1836 1.403 . S
C1839 C1840 1.524 . S
C1839 C1843 1.400 . S
C1840 H1825 0.960 . S
C1840 H1826 0.960 . S
C1840 H1827 0.960 . S
C1840 C1839 1.524 . S
C1841 C1838 1.403 . S
C1841 C1842 1.392 . S
C1841 C1845 1.495 . S
C1842 C1841 1.392 . S
C1842 C1843 1.385 . S
C1842 C1844 1.478 . S
C1843 H1837 0.930 . S
C1843 C1839 1.400 . S
C1843 C1842 1.385 . S
C1844 C1842 1.478 . S
C1844 C1846 1.381 . S
C1844 C1850 1.383 . S
C1845 C1841 1.495 . S
C1845 H1851 0.959 . S
C1845 H1852 0.961 . S
C1845 H1853 0.960 . S
C1846 C1844 1.381 . S
C1846 C1847 1.394 . S
C1846 H1854 0.930 . S
C1847 C1846 1.394 . S
C1847 C1848 1.383 . S
C1847 H1855 0.929 . S
C1848 C1847 1.383 . S
C1848 C1849 1.377 . S
C1849 H1833 0.930 . S
C1849 C1848 1.377 . S
C1849 C1850 1.379 . S
C1850 H1834 0.931 . S
C1850 C1844 1.383 . S
C1850 C1849 1.379 . S
H1851 C1845 0.959 . S
H1852 C1845 0.961 . S
H1853 C1845 0.960 . S
H1854 C1846 0.930 . S
H1855 C1847 0.929 . S
H1856 C1864 0.929 . S
H1857 C1866 0.930 . S
H1858 C1868 0.930 . S
H1859 C1871 0.929 . S
H1860 C1874 0.930 . S
H1861 C1876 0.962 . S
H1862 C1876 0.962 . S
H1863 C1876 0.958 1_545 S
C1864 H1856 0.929 . S
C1864 C1865 1.377 . S
C1864 C1866 1.384 . S
C1865 C1864 1.377 . S
C1865 C1871 1.390 . S
C1866 H1857 0.930 . S
C1866 C1864 1.384 . S
C1866 C1867 1.372 . S
C1867 C1866 1.372 . S
C1867 C1868 1.400 . S
C1867 C1872 1.490 . S
C1868 H1858 0.930 . S
C1868 C1867 1.400 . S
C1868 C1871 1.386 . S
H1869 C1885 0.930 . S
H1870 C1886 0.931 . S
C1871 H1859 0.929 . S
C1871 C1865 1.390 . S
C1871 C1868 1.386 . S
C1872 C1867 1.490 . S
C1872 C1874 1.395 . S
C1872 C1875 1.403 . S
H1873 C1879 0.930 . S
C1874 H1860 0.930 . S
C1874 C1872 1.395 . S
C1874 C1877 1.403 . S
C1875 C1872 1.403 . S
C1875 C1876 1.521 1_545 S
C1875 C1879 1.400 . S
C1876 H1861 0.962 . S
C1876 H1862 0.962 . S
C1876 H1863 0.958 1_565 S
C1876 C1875 1.521 1_565 S
C1877 C1874 1.403 . S
C1877 C1878 1.392 . S
C1877 C1881 1.495 . S
C1878 C1877 1.392 . S
C1878 C1879 1.385 . S
C1878 C1880 1.478 . S
C1879 H1873 0.930 . S
C1879 C1875 1.400 . S
C1879 C1878 1.385 . S
C1880 C1878 1.478 . S
C1880 C1882 1.381 . S
C1880 C1886 1.383 . S
C1881 C1877 1.495 . S
C1881 H1887 0.959 . S
C1881 H1888 0.961 . S
C1881 H1889 0.960 . S
C1882 C1880 1.381 . S
C1882 C1883 1.394 . S
C1882 H1890 0.930 . S
C1883 C1882 1.394 . S
C1883 C1884 1.383 . S
C1883 H1891 0.929 . S
C1884 C1883 1.383 . S
C1884 C1885 1.377 . S
C1885 H1869 0.930 . S
C1885 C1884 1.377 . S
C1885 C1886 1.379 . S
C1886 H1870 0.931 . S
C1886 C1880 1.383 . S
C1886 C1885 1.379 . S
H1887 C1881 0.959 . S
H1888 C1881 0.961 . S
H1889 C1881 0.960 . S
H1890 C1882 0.930 . S
H1891 C1883 0.929 . S
H1892 C1900 0.929 . S
H1893 C1902 0.930 . S
H1894 C1904 0.930 . S
H1895 C1907 0.929 . S
H1896 C1910 0.930 . S
H1897 C1912 0.960 . S
H1898 C1912 0.960 . S
H1899 C1912 0.960 . S
C1900 H1892 0.929 . S
C1900 C1901 1.377 . S
C1900 C1902 1.384 . S
C1901 C1900 1.377 . S
C1901 C1907 1.390 . S
C1902 H1893 0.930 . S
C1902 C1900 1.384 . S
C1902 C1903 1.372 . S
C1903 C1902 1.372 . S
C1903 C1904 1.400 . S
C1903 C1908 1.490 . S
C1904 H1894 0.930 . S
C1904 C1903 1.400 . S
C1904 C1907 1.386 . S
H1905 C1921 0.930 . S
H1906 C1922 0.931 . S
C1907 H1895 0.929 . S
C1907 C1901 1.390 . S
C1907 C1904 1.386 . S
C1908 C1903 1.490 . S
C1908 C1910 1.395 . S
C1908 C1911 1.403 . S
H1909 C1915 0.930 . S
C1910 H1896 0.930 . S
C1910 C1908 1.395 . S
C1910 C1913 1.403 . S
C1911 C1908 1.403 . S
C1911 C1912 1.524 . S
C1911 C1915 1.400 . S
C1912 H1897 0.960 . S
C1912 H1898 0.960 . S
C1912 H1899 0.960 . S
C1912 C1911 1.524 . S
C1913 C1910 1.403 . S
C1913 C1914 1.392 . S
C1913 C1917 1.495 . S
C1914 C1913 1.392 . S
C1914 C1915 1.385 . S
C1914 C1916 1.478 . S
C1915 H1909 0.930 . S
C1915 C1911 1.400 . S
C1915 C1914 1.385 . S
C1916 C1914 1.478 . S
C1916 C1918 1.381 . S
C1916 C1922 1.383 . S
C1917 C1913 1.495 . S
C1917 H1923 0.959 . S
C1917 H1924 0.961 . S
C1917 H1925 0.960 . S
C1918 C1916 1.381 . S
C1918 C1919 1.394 . S
C1918 H1926 0.930 . S
C1919 C1918 1.394 . S
C1919 C1920 1.383 . S
C1919 H1927 0.929 . S
C1920 C1919 1.383 . S
C1920 C1921 1.377 . S
C1921 H1905 0.930 . S
C1921 C1920 1.377 . S
C1921 C1922 1.379 . S
C1922 H1906 0.931 . S
C1922 C1916 1.383 . S
C1922 C1921 1.379 . S
H1923 C1917 0.959 . S
H1924 C1917 0.961 . S
H1925 C1917 0.960 . S
H1926 C1918 0.930 . S
H1927 C1919 0.929 . S
H1928 C1936 0.929 . S
H1929 C1938 0.930 . S
H1930 C1940 0.930 . S
H1931 C1943 0.929 . S
H1932 C1946 0.930 1_565 S
H1933 C1948 0.960 . S
H1934 C1948 0.960 . S
H1935 C1948 0.960 . S
C1936 H1928 0.929 . S
C1936 C1937 1.377 . S
C1936 C1938 1.384 . S
C1937 C1936 1.377 . S
C1937 C1943 1.390 1_565 S
C1938 H1929 0.930 . S
C1938 C1936 1.384 . S
C1938 C1939 1.372 1_565 S
C1939 C1938 1.372 1_545 S
C1939 C1940 1.400 . S
C1939 C1944 1.490 . S
C1940 H1930 0.930 . S
C1940 C1939 1.400 . S
C1940 C1943 1.386 . S
H1941 C1957 0.930 . S
H1942 C1958 0.931 . S
C1943 H1931 0.929 . S
C1943 C1937 1.390 1_545 S
C1943 C1940 1.386 . S
C1944 C1939 1.490 . S
C1944 C1946 1.395 . S
C1944 C1947 1.403 . S
H1945 C1951 0.930 . S
C1946 H1932 0.930 1_545 S
C1946 C1944 1.395 . S
C1946 C1949 1.403 . S
C1947 C1944 1.403 . S
C1947 C1948 1.524 . S
C1947 C1951 1.400 . S
C1948 H1933 0.960 . S
C1948 H1934 0.960 . S
C1948 H1935 0.960 . S
C1948 C1947 1.524 . S
C1949 C1946 1.403 . S
C1949 C1950 1.392 . S
C1949 C1953 1.495 . S
C1950 C1949 1.392 . S
C1950 C1951 1.385 . S
C1950 C1952 1.478 . S
C1951 H1945 0.930 . S
C1951 C1947 1.400 . S
C1951 C1950 1.385 . S
C1952 C1950 1.478 . S
C1952 C1954 1.381 . S
C1952 C1958 1.383 . S
C1953 C1949 1.495 . S
C1953 H1959 0.959 1_545 S
C1953 H1960 0.961 . S
C1953 H1961 0.960 1_545 S
C1954 C1952 1.381 . S
C1954 C1955 1.394 . S
C1954 H1962 0.930 1_545 S
C1955 C1954 1.394 . S
C1955 C1956 1.383 . S
C1955 H1963 0.929 1_545 S
C1956 C1955 1.383 . S
C1956 C1957 1.377 . S
C1957 H1941 0.930 . S
C1957 C1956 1.377 . S
C1957 C1958 1.379 . S
C1958 H1942 0.931 . S
C1958 C1952 1.383 . S
C1958 C1957 1.379 . S
H1959 C1953 0.959 1_565 S
H1960 C1953 0.961 . S
H1961 C1953 0.960 1_565 S
H1962 C1954 0.930 1_565 S
H1963 C1955 0.929 1_565 S
H1964 C1972 0.929 . S
H1965 C1974 0.930 . S
H1966 C1976 0.930 . S
H1967 C1979 0.929 . S
H1968 C1982 0.930 . S
H1969 C1984 0.960 . S
H1970 C1984 0.960 . S
H1971 C1984 0.960 . S
C1972 H1964 0.929 . S
C1972 C1973 1.377 . S
C1972 C1974 1.384 . S
C1973 C1972 1.377 . S
C1973 C1979 1.390 . S
C1974 H1965 0.930 . S
C1974 C1972 1.384 . S
C1974 C1975 1.372 . S
C1975 C1974 1.372 . S
C1975 C1976 1.400 . S
C1975 C1980 1.490 . S
C1976 H1966 0.930 . S
C1976 C1975 1.400 . S
C1976 C1979 1.386 . S
H1977 C1993 0.930 . S
H1978 C1994 0.931 . S
C1979 H1967 0.929 . S
C1979 C1973 1.390 . S
C1979 C1976 1.386 . S
C1980 C1975 1.490 . S
C1980 C1982 1.395 . S
C1980 C1983 1.403 . S
H1981 C1987 0.930 . S
C1982 H1968 0.930 . S
C1982 C1980 1.395 . S
C1982 C1985 1.403 . S
C1983 C1980 1.403 . S
C1983 C1984 1.524 . S
C1983 C1987 1.400 . S
C1984 H1969 0.960 . S
C1984 H1970 0.960 . S
C1984 H1971 0.960 . S
C1984 C1983 1.524 . S
C1985 C1982 1.403 . S
C1985 C1986 1.392 . S
C1985 C1989 1.495 . S
C1986 C1985 1.392 . S
C1986 C1987 1.385 . S
C1986 C1988 1.478 . S
C1987 H1981 0.930 . S
C1987 C1983 1.400 . S
C1987 C1986 1.385 . S
C1988 C1986 1.478 . S
C1988 C1990 1.381 . S
C1988 C1994 1.383 . S
C1989 C1985 1.495 . S
C1989 H1995 0.959 . S
C1989 H1996 0.961 . S
C1989 H1997 0.960 . S
C1990 C1988 1.381 . S
C1990 C1991 1.394 . S
C1990 H1998 0.930 . S
C1991 C1990 1.394 . S
C1991 C1992 1.383 . S
C1991 H1999 0.929 . S
C1992 C1991 1.383 . S
C1992 C1993 1.377 . S
C1993 H1977 0.930 . S
C1993 C1992 1.377 . S
C1993 C1994 1.379 . S
C1994 H1978 0.931 . S
C1994 C1988 1.383 . S
C1994 C1993 1.379 . S
H1995 C1989 0.959 . S
H1996 C1989 0.961 . S
H1997 C1989 0.960 . S
H1998 C1990 0.930 . S
H1999 C1991 0.929 . S
H2000 C2008 0.929 . S
H2001 C2010 0.946 . S
H2002 C2012 0.930 . S
H2003 C2015 0.929 . S
H2004 C2018 0.930 . S
H2005 C2020 0.964 . S
H2006 C2020 0.965 . S
H2007 C2020 0.956 1_545 S
C2008 H2000 0.929 . S
C2008 C2009 1.377 . S
C2008 C2010 1.384 . S
C2009 C2008 1.377 . S
C2009 C2015 1.390 . S
C2010 H2001 0.946 . S
C2010 C2008 1.384 . S
C2010 C2011 1.372 . S
C2011 C2010 1.372 . S
C2011 C2012 1.400 . S
C2011 C2016 1.490 . S
C2012 H2002 0.930 . S
C2012 C2011 1.400 . S
C2012 C2015 1.386 . S
H2013 C2029 0.930 . S
H2014 C2030 0.931 . S
C2015 H2003 0.929 . S
C2015 C2009 1.390 . S
C2015 C2012 1.386 . S
C2016 C2011 1.490 . S
C2016 C2018 1.395 . S
C2016 C2019 1.403 . S
H2017 C2023 0.930 . S
C2018 H2004 0.930 . S
C2018 C2016 1.395 . S
C2018 C2021 1.403 . S
C2019 C2016 1.403 . S
C2019 C2020 1.520 1_545 S
C2019 C2023 1.400 . S
C2020 H2005 0.964 . S
C2020 H2006 0.965 . S
C2020 H2007 0.956 1_565 S
C2020 C2019 1.520 1_565 S
C2021 C2018 1.403 . S
C2021 C2022 1.392 . S
C2021 C2025 1.495 . S
C2022 C2021 1.392 . S
C2022 C2023 1.385 . S
C2022 C2024 1.478 . S
C2023 H2017 0.930 . S
C2023 C2019 1.400 . S
C2023 C2022 1.385 . S
C2024 C2022 1.478 . S
C2024 C2026 1.381 1_545 S
C2024 C2030 1.383 . S
C2025 C2021 1.495 . S
C2025 H2031 0.959 . S
C2025 H2032 0.961 . S
C2025 H2033 0.960 . S
C2026 C2024 1.381 1_565 S
C2026 C2027 1.394 . S
C2026 H2034 0.930 . S
C2027 C2026 1.394 . S
C2027 C2028 1.383 1_565 S
C2027 H2035 0.929 . S
C2028 C2027 1.383 1_545 S
C2028 C2029 1.377 . S
C2029 H2013 0.930 . S
C2029 C2028 1.377 . S
C2029 C2030 1.379 . S
C2030 H2014 0.931 . S
C2030 C2024 1.383 . S
C2030 C2029 1.379 . S
H2031 C2025 0.959 . S
H2032 C2025 0.961 . S
H2033 C2025 0.960 . S
H2034 C2026 0.930 . S
H2035 C2027 0.929 . S
H2036 C2044 0.929 . S
H2037 C2046 0.930 . S
H2038 C2048 0.930 . S
H2039 C2051 0.929 . S
H2040 C2054 0.930 . S
H2041 C2056 0.960 . S
H2042 C2056 0.960 . S
H2043 C2056 0.960 . S
C2044 H2036 0.929 . S
C2044 C2045 1.377 . S
C2044 C2046 1.384 . S
C2045 C2044 1.377 . S
C2045 C2051 1.390 . S
C2046 H2037 0.930 . S
C2046 C2044 1.384 . S
C2046 C2047 1.372 . S
C2047 C2046 1.372 . S
C2047 C2048 1.400 . S
C2047 C2052 1.490 . S
C2048 H2038 0.930 . S
C2048 C2047 1.400 . S
C2048 C2051 1.386 . S
H2049 C2065 0.930 . S
H2050 C2066 0.931 . S
C2051 H2039 0.929 . S
C2051 C2045 1.390 . S
C2051 C2048 1.386 . S
C2052 C2047 1.490 . S
C2052 C2054 1.395 . S
C2052 C2055 1.403 . S
H2053 C2059 0.930 . S
C2054 H2040 0.930 . S
C2054 C2052 1.395 . S
C2054 C2057 1.403 . S
C2055 C2052 1.403 . S
C2055 C2056 1.524 . S
C2055 C2059 1.400 . S
C2056 H2041 0.960 . S
C2056 H2042 0.960 . S
C2056 H2043 0.960 . S
C2056 C2055 1.524 . S
C2057 C2054 1.403 . S
C2057 C2058 1.392 . S
C2057 C2061 1.495 . S
C2058 C2057 1.392 . S
C2058 C2059 1.385 . S
C2058 C2060 1.478 . S
C2059 H2053 0.930 . S
C2059 C2055 1.400 . S
C2059 C2058 1.385 . S
C2060 C2058 1.478 . S
C2060 C2062 1.381 . S
C2060 C2066 1.383 . S
C2061 C2057 1.495 . S
C2061 H2067 0.959 . S
C2061 H2068 0.961 . S
C2061 H2069 0.960 . S
C2062 C2060 1.381 . S
C2062 C2063 1.394 . S
C2062 H2070 0.930 . S
C2063 C2062 1.394 . S
C2063 C2064 1.383 . S
C2063 H2071 0.929 . S
C2064 C2063 1.383 . S
C2064 C2065 1.377 . S
C2065 H2049 0.930 . S
C2065 C2064 1.377 . S
C2065 C2066 1.379 . S
C2066 H2050 0.931 . S
C2066 C2060 1.383 . S
C2066 C2065 1.379 . S
H2067 C2061 0.959 . S
H2068 C2061 0.961 . S
H2069 C2061 0.960 . S
H2070 C2062 0.930 . S
H2071 C2063 0.929 . S
H2072 C2080 0.930 . S
H2073 C2082 0.930 . S
H2074 C2084 0.930 . S
H2075 C2087 0.929 . S
H2076 C2090 0.930 . S
H2077 C2092 0.960 . S
H2078 C2092 0.960 . S
H2079 C2092 0.960 . S
C2080 H2072 0.930 . S
C2080 C2081 1.377 . S
C2080 C2082 1.384 . S
C2081 C2080 1.377 . S
C2081 C2087 1.390 . S
C2082 H2073 0.930 . S
C2082 C2080 1.384 . S
C2082 C2083 1.372 . S
C2083 C2082 1.372 . S
C2083 C2084 1.400 . S
C2083 C2088 1.490 . S
C2084 H2074 0.930 . S
C2084 C2083 1.400 . S
C2084 C2087 1.386 . S
H2085 C2101 0.930 . S
H2086 C2102 0.931 . S
C2087 H2075 0.929 . S
C2087 C2081 1.390 . S
C2087 C2084 1.386 . S
C2088 C2083 1.490 . S
C2088 C2090 1.395 1_556 S
C2088 C2091 1.403 . S
H2089 C2095 0.930 . S
C2090 H2076 0.930 . S
C2090 C2088 1.395 1_554 S
C2090 C2093 1.403 . S
C2091 C2088 1.403 . S
C2091 C2092 1.524 . S
C2091 C2095 1.400 . S
C2092 H2077 0.960 . S
C2092 H2078 0.960 . S
C2092 H2079 0.960 . S
C2092 C2091 1.524 . S
C2093 C2090 1.403 . S
C2093 C2094 1.392 1_554 S
C2093 C2097 1.495 . S
C2094 C2093 1.392 1_556 S
C2094 C2095 1.385 . S
C2094 C2096 1.478 . S
C2095 H2089 0.930 . S
C2095 C2091 1.400 . S
C2095 C2094 1.385 . S
C2096 C2094 1.478 . S
C2096 C2098 1.381 . S
C2096 C2102 1.383 . S
C2097 C2093 1.495 . S
C2097 H2103 0.959 . S
C2097 H2104 0.961 . S
C2097 H2105 0.960 . S
C2098 C2096 1.381 . S
C2098 C2099 1.394 . S
C2098 H2106 0.930 . S
C2099 C2098 1.394 . S
C2099 C2100 1.383 . S
C2099 H2107 0.929 . S
C2100 C2099 1.383 . S
C2100 C2101 1.377 . S
C2101 H2085 0.930 . S
C2101 C2100 1.377 . S
C2101 C2102 1.379 . S
C2102 H2086 0.931 . S
C2102 C2096 1.383 . S
C2102 C2101 1.379 . S
H2103 C2097 0.959 . S
H2104 C2097 0.961 . S
H2105 C2097 0.960 . S
H2106 C2098 0.930 . S
H2107 C2099 0.929 . S
H2108 C2116 0.929 1_556 S
H2109 C2118 0.930 1_556 S
H2110 C2120 0.930 . S
H2111 C2123 0.929 . S
H2112 C2126 0.930 . S
H2113 C2128 0.960 . S
H2114 C2128 0.960 . S
H2115 C2128 0.960 . S
C2116 H2108 0.929 1_554 S
C2116 C2117 1.377 . S
C2116 C2118 1.384 . S
C2117 C2116 1.377 . S
C2117 C2123 1.390 . S
C2118 H2109 0.930 1_554 S
C2118 C2116 1.384 . S
C2118 C2119 1.372 . S
C2119 C2118 1.372 . S
C2119 C2120 1.400 . S
C2119 C2124 1.490 . S
C2120 H2110 0.930 . S
C2120 C2119 1.400 . S
C2120 C2123 1.386 . S
H2121 C2137 0.930 . S
H2122 C2138 0.931 . S
C2123 H2111 0.929 . S
C2123 C2117 1.390 . S
C2123 C2120 1.386 . S
C2124 C2119 1.490 . S
C2124 C2126 1.395 . S
C2124 C2127 1.403 . S
H2125 C2131 0.930 . S
C2126 H2112 0.930 . S
C2126 C2124 1.395 . S
C2126 C2129 1.403 . S
C2127 C2124 1.403 . S
C2127 C2128 1.524 . S
C2127 C2131 1.400 . S
C2128 H2113 0.960 . S
C2128 H2114 0.960 . S
C2128 H2115 0.960 . S
C2128 C2127 1.524 . S
C2129 C2126 1.403 . S
C2129 C2130 1.392 . S
C2129 C2133 1.495 . S
C2130 C2129 1.392 . S
C2130 C2131 1.385 . S
C2130 C2132 1.478 . S
C2131 H2125 0.930 . S
C2131 C2127 1.400 . S
C2131 C2130 1.385 . S
C2132 C2130 1.478 . S
C2132 C2134 1.381 . S
C2132 C2138 1.383 . S
C2133 C2129 1.495 . S
C2133 H2139 0.959 . S
C2133 H2140 0.961 . S
C2133 H2141 0.960 . S
C2134 C2132 1.381 . S
C2134 C2135 1.394 . S
C2134 H2142 0.930 1_554 S
C2135 C2134 1.394 . S
C2135 C2136 1.383 . S
C2135 H2143 0.929 1_554 S
C2136 C2135 1.383 . S
C2136 C2137 1.377 . S
C2137 H2121 0.930 . S
C2137 C2136 1.377 . S
C2137 C2138 1.379 . S
C2138 H2122 0.931 . S
C2138 C2132 1.383 . S
C2138 C2137 1.379 . S
H2139 C2133 0.959 . S
H2140 C2133 0.961 . S
H2141 C2133 0.960 . S
H2142 C2134 0.930 1_556 S
H2143 C2135 0.929 1_556 S
H2144 C2152 0.929 . S
H2145 C2154 0.930 . S
H2146 C2156 0.930 . S
H2147 C2159 0.929 . S
H2148 C2162 0.930 . S
H2149 C2164 0.960 . S
H2150 C2164 0.960 . S
H2151 C2164 0.960 . S
C2152 H2144 0.929 . S
C2152 C2153 1.377 . S
C2152 C2154 1.384 . S
C2153 C2152 1.377 . S
C2153 C2159 1.390 . S
C2154 H2145 0.930 . S
C2154 C2152 1.384 . S
C2154 C2155 1.372 . S
C2155 C2154 1.372 . S
C2155 C2156 1.400 . S
C2155 C2160 1.490 . S
C2156 H2146 0.930 . S
C2156 C2155 1.400 . S
C2156 C2159 1.386 . S
H2157 C2173 0.930 . S
H2158 C2174 0.931 . S
C2159 H2147 0.929 . S
C2159 C2153 1.390 . S
C2159 C2156 1.386 . S
C2160 C2155 1.490 . S
C2160 C2162 1.395 . S
C2160 C2163 1.403 . S
H2161 C2167 0.930 . S
C2162 H2148 0.930 . S
C2162 C2160 1.395 . S
C2162 C2165 1.403 . S
C2163 C2160 1.403 . S
C2163 C2164 1.524 . S
C2163 C2167 1.400 . S
C2164 H2149 0.960 . S
C2164 H2150 0.960 . S
C2164 H2151 0.960 . S
C2164 C2163 1.524 . S
C2165 C2162 1.403 . S
C2165 C2166 1.392 . S
C2165 C2169 1.495 . S
C2166 C2165 1.392 . S
C2166 C2167 1.385 . S
C2166 C2168 1.478 . S
C2167 H2161 0.930 . S
C2167 C2163 1.400 . S
C2167 C2166 1.385 . S
C2168 C2166 1.478 . S
C2168 C2170 1.381 . S
C2168 C2174 1.383 . S
C2169 C2165 1.495 . S
C2169 H2175 0.959 . S
C2169 H2176 0.961 . S
C2169 H2177 0.960 . S
C2170 C2168 1.381 . S
C2170 C2171 1.394 . S
C2170 H2178 0.930 . S
C2171 C2170 1.394 . S
C2171 C2172 1.383 . S
C2171 H2179 0.929 . S
C2172 C2171 1.383 . S
C2172 C2173 1.377 . S
C2173 H2157 0.930 . S
C2173 C2172 1.377 . S
C2173 C2174 1.379 . S
C2174 H2158 0.931 . S
C2174 C2168 1.383 . S
C2174 C2173 1.379 . S
H2175 C2169 0.959 . S
H2176 C2169 0.961 . S
H2177 C2169 0.960 . S
H2178 C2170 0.930 . S
H2179 C2171 0.929 . S
H2180 C2188 0.929 . S
H2181 C2190 0.930 . S
H2182 C2192 0.930 . S
H2183 C2195 0.929 . S
H2184 C2198 0.930 . S
H2185 C2200 0.960 . S
H2186 C2200 0.960 . S
H2187 C2200 0.960 . S
C2188 H2180 0.929 . S
C2188 C2189 1.377 . S
C2188 C2190 1.384 . S
C2189 C2188 1.377 . S
C2189 C2195 1.390 . S
C2190 H2181 0.930 . S
C2190 C2188 1.384 . S
C2190 C2191 1.372 . S
C2191 C2190 1.372 . S
C2191 C2192 1.400 . S
C2191 C2196 1.490 . S
C2192 H2182 0.930 . S
C2192 C2191 1.400 . S
C2192 C2195 1.386 . S
H2193 C2209 0.930 . S
H2194 C2210 0.931 . S
C2195 H2183 0.929 . S
C2195 C2189 1.390 . S
C2195 C2192 1.386 . S
C2196 C2191 1.490 . S
C2196 C2198 1.395 . S
C2196 C2199 1.403 . S
H2197 C2203 0.930 . S
C2198 H2184 0.930 . S
C2198 C2196 1.395 . S
C2198 C2201 1.403 . S
C2199 C2196 1.403 . S
C2199 C2200 1.524 . S
C2199 C2203 1.400 . S
C2200 H2185 0.960 . S
C2200 H2186 0.960 . S
C2200 H2187 0.960 . S
C2200 C2199 1.524 . S
C2201 C2198 1.403 . S
C2201 C2202 1.392 . S
C2201 C2205 1.495 . S
C2202 C2201 1.392 . S
C2202 C2203 1.385 . S
C2202 C2204 1.478 . S
C2203 H2197 0.930 . S
C2203 C2199 1.400 . S
C2203 C2202 1.385 . S
C2204 C2202 1.478 . S
C2204 C2206 1.381 . S
C2204 C2210 1.383 . S
C2205 C2201 1.495 . S
C2205 H2211 0.959 . S
C2205 H2212 0.961 . S
C2205 H2213 0.960 . S
C2206 C2204 1.381 . S
C2206 C2207 1.394 . S
C2206 H2214 0.930 . S
C2207 C2206 1.394 . S
C2207 C2208 1.383 . S
C2207 H2215 0.929 . S
C2208 C2207 1.383 . S
C2208 C2209 1.377 . S
C2209 H2193 0.930 . S
C2209 C2208 1.377 . S
C2209 C2210 1.379 . S
C2210 H2194 0.931 . S
C2210 C2204 1.383 . S
C2210 C2209 1.379 . S
H2211 C2205 0.959 . S
H2212 C2205 0.961 . S
H2213 C2205 0.960 . S
H2214 C2206 0.930 . S
H2215 C2207 0.929 . S
H2216 C2224 0.929 . S
H2217 C2226 0.930 . S
H2218 C2228 0.930 . S
H2219 C2231 0.929 . S
H2220 C2234 0.930 . S
H2221 C2236 0.960 . S
H2222 C2236 0.960 . S
H2223 C2236 0.960 . S
C2224 H2216 0.929 . S
C2224 C2225 1.377 . S
C2224 C2226 1.384 . S
C2225 C2224 1.377 . S
C2225 C2231 1.390 . S
C2226 H2217 0.930 . S
C2226 C2224 1.384 . S
C2226 C2227 1.372 . S
C2227 C2226 1.372 . S
C2227 C2228 1.400 . S
C2227 C2232 1.490 . S
C2228 H2218 0.930 . S
C2228 C2227 1.400 . S
C2228 C2231 1.386 . S
H2229 C2245 0.930 . S
H2230 C2246 0.931 . S
C2231 H2219 0.929 . S
C2231 C2225 1.390 . S
C2231 C2228 1.386 . S
C2232 C2227 1.490 . S
C2232 C2234 1.395 . S
C2232 C2235 1.403 . S
H2233 C2239 0.930 . S
C2234 H2220 0.930 . S
C2234 C2232 1.395 . S
C2234 C2237 1.403 . S
C2235 C2232 1.403 . S
C2235 C2236 1.524 . S
C2235 C2239 1.400 . S
C2236 H2221 0.960 . S
C2236 H2222 0.960 . S
C2236 H2223 0.960 . S
C2236 C2235 1.524 . S
C2237 C2234 1.403 . S
C2237 C2238 1.392 . S
C2237 C2241 1.495 . S
C2238 C2237 1.392 . S
C2238 C2239 1.385 . S
C2238 C2240 1.478 . S
C2239 H2233 0.930 . S
C2239 C2235 1.400 . S
C2239 C2238 1.385 . S
C2240 C2238 1.478 . S
C2240 C2242 1.381 . S
C2240 C2246 1.383 . S
C2241 C2237 1.495 . S
C2241 H2247 0.959 . S
C2241 H2248 0.961 . S
C2241 H2249 0.960 . S
C2242 C2240 1.381 . S
C2242 C2243 1.394 . S
C2242 H2250 0.930 . S
C2243 C2242 1.394 . S
C2243 C2244 1.383 . S
C2243 H2251 0.929 . S
C2244 C2243 1.383 . S
C2244 C2245 1.377 . S
C2245 H2229 0.930 . S
C2245 C2244 1.377 . S
C2245 C2246 1.379 . S
C2246 H2230 0.931 . S
C2246 C2240 1.383 . S
C2246 C2245 1.379 . S
H2247 C2241 0.959 . S
H2248 C2241 0.961 . S
H2249 C2241 0.960 . S
H2250 C2242 0.930 . S
H2251 C2243 0.929 . S
H2252 C2260 0.929 . S
H2253 C2262 0.930 . S
H2254 C2264 0.930 . S
H2255 C2267 0.929 . S
H2256 C2270 0.930 . S
H2257 C2272 0.960 . S
H2258 C2272 0.960 . S
H2259 C2272 0.960 . S
C2260 H2252 0.929 . S
C2260 C2261 1.377 . S
C2260 C2262 1.384 . S
C2261 C2260 1.377 . S
C2261 C2267 1.390 . S
C2262 H2253 0.930 . S
C2262 C2260 1.384 . S
C2262 C2263 1.372 . S
C2263 C2262 1.372 . S
C2263 C2264 1.400 . S
C2263 C2268 1.490 . S
C2264 H2254 0.930 . S
C2264 C2263 1.400 . S
C2264 C2267 1.386 . S
H2265 C2281 0.930 . S
H2266 C2282 0.931 . S
C2267 H2255 0.929 . S
C2267 C2261 1.390 . S
C2267 C2264 1.386 . S
C2268 C2263 1.490 . S
C2268 C2270 1.395 . S
C2268 C2271 1.403 . S
H2269 C2275 0.930 . S
C2270 H2256 0.930 . S
C2270 C2268 1.395 . S
C2270 C2273 1.403 . S
C2271 C2268 1.403 . S
C2271 C2272 1.524 . S
C2271 C2275 1.400 . S
C2272 H2257 0.960 . S
C2272 H2258 0.960 . S
C2272 H2259 0.960 . S
C2272 C2271 1.524 . S
C2273 C2270 1.403 . S
C2273 C2274 1.392 . S
C2273 C2277 1.495 . S
C2274 C2273 1.392 . S
C2274 C2275 1.385 . S
C2274 C2276 1.478 . S
C2275 H2269 0.930 . S
C2275 C2271 1.400 . S
C2275 C2274 1.385 . S
C2276 C2274 1.478 . S
C2276 C2278 1.381 . S
C2276 C2282 1.383 . S
C2277 C2273 1.495 . S
C2277 H2283 0.959 . S
C2277 H2284 0.961 . S
C2277 H2285 0.960 . S
C2278 C2276 1.381 . S
C2278 C2279 1.394 . S
C2278 H2286 0.930 . S
C2279 C2278 1.394 . S
C2279 C2280 1.383 . S
C2279 H2287 0.929 . S
C2280 C2279 1.383 . S
C2280 C2281 1.377 . S
C2281 H2265 0.930 . S
C2281 C2280 1.377 . S
C2281 C2282 1.379 . S
C2282 H2266 0.931 . S
C2282 C2276 1.383 . S
C2282 C2281 1.379 . S
H2283 C2277 0.959 . S
H2284 C2277 0.961 . S
H2285 C2277 0.960 . S
H2286 C2278 0.930 . S
H2287 C2279 0.929 . S
H2288 C2296 0.929 . S
H2289 C2298 0.930 . S
H2290 C2300 0.930 . S
H2291 C2303 0.929 . S
H2292 C2306 0.930 . S
H2293 C2308 0.960 . S
H2294 C2308 0.960 . S
H2295 C2308 0.960 . S
C2296 H2288 0.929 . S
C2296 C2297 1.377 . S
C2296 C2298 1.384 . S
C2297 C2296 1.377 . S
C2297 C2303 1.390 . S
C2298 H2289 0.930 . S
C2298 C2296 1.384 . S
C2298 C2299 1.372 . S
C2299 C2298 1.372 . S
C2299 C2300 1.400 . S
C2299 C2304 1.490 . S
C2300 H2290 0.930 . S
C2300 C2299 1.400 . S
C2300 C2303 1.386 . S
H2301 C2317 0.930 . S
H2302 C2318 0.931 . S
C2303 H2291 0.929 . S
C2303 C2297 1.390 . S
C2303 C2300 1.386 . S
C2304 C2299 1.490 . S
C2304 C2306 1.395 . S
C2304 C2307 1.403 . S
H2305 C2311 0.930 . S
C2306 H2292 0.930 . S
C2306 C2304 1.395 . S
C2306 C2309 1.403 . S
C2307 C2304 1.403 . S
C2307 C2308 1.524 . S
C2307 C2311 1.400 . S
C2308 H2293 0.960 . S
C2308 H2294 0.960 . S
C2308 H2295 0.960 . S
C2308 C2307 1.524 . S
C2309 C2306 1.403 . S
C2309 C2310 1.392 . S
C2309 C2313 1.495 . S
C2310 C2309 1.392 . S
C2310 C2311 1.385 . S
C2310 C2312 1.478 . S
C2311 H2305 0.930 . S
C2311 C2307 1.400 . S
C2311 C2310 1.385 . S
C2312 C2310 1.478 . S
C2312 C2314 1.381 . S
C2312 C2318 1.383 . S
C2313 C2309 1.495 . S
C2313 H2319 0.959 . S
C2313 H2320 0.961 . S
C2313 H2321 0.960 . S
C2314 C2312 1.381 . S
C2314 C2315 1.394 . S
C2314 H2322 0.930 . S
C2315 C2314 1.394 . S
C2315 C2316 1.383 . S
C2315 H2323 0.929 . S
C2316 C2315 1.383 . S
C2316 C2317 1.377 . S
C2317 H2301 0.930 . S
C2317 C2316 1.377 . S
C2317 C2318 1.379 . S
C2318 H2302 0.931 . S
C2318 C2312 1.383 . S
C2318 C2317 1.379 . S
H2319 C2313 0.959 . S
H2320 C2313 0.961 . S
H2321 C2313 0.960 . S
H2322 C2314 0.930 . S
H2323 C2315 0.929 . S
H2324 C2332 0.929 . S
H2325 C2334 0.930 . S
H2326 C2336 0.930 . S
H2327 C2339 0.929 . S
H2328 C2342 0.930 . S
H2329 C2344 0.960 . S
H2330 C2344 0.960 . S
H2331 C2344 0.960 . S
C2332 H2324 0.929 . S
C2332 C2333 1.377 . S
C2332 C2334 1.384 . S
C2333 C2332 1.377 . S
C2333 C2339 1.390 . S
C2334 H2325 0.930 . S
C2334 C2332 1.384 . S
C2334 C2335 1.372 . S
C2335 C2334 1.372 . S
C2335 C2336 1.400 . S
C2335 C2340 1.490 . S
C2336 H2326 0.930 . S
C2336 C2335 1.400 . S
C2336 C2339 1.386 . S
H2337 C2353 0.930 . S
H2338 C2354 0.931 . S
C2339 H2327 0.929 . S
C2339 C2333 1.390 . S
C2339 C2336 1.386 . S
C2340 C2335 1.490 . S
C2340 C2342 1.395 . S
C2340 C2343 1.403 . S
H2341 C2347 0.930 . S
C2342 H2328 0.930 . S
C2342 C2340 1.395 . S
C2342 C2345 1.403 . S
C2343 C2340 1.403 . S
C2343 C2344 1.524 . S
C2343 C2347 1.400 . S
C2344 H2329 0.960 . S
C2344 H2330 0.960 . S
C2344 H2331 0.960 . S
C2344 C2343 1.524 . S
C2345 C2342 1.403 . S
C2345 C2346 1.392 . S
C2345 C2349 1.495 . S
C2346 C2345 1.392 . S
C2346 C2347 1.385 . S
C2346 C2348 1.478 . S
C2347 H2341 0.930 . S
C2347 C2343 1.400 . S
C2347 C2346 1.385 . S
C2348 C2346 1.478 . S
C2348 C2350 1.381 . S
C2348 C2354 1.383 . S
C2349 C2345 1.495 . S
C2349 H2355 0.959 . S
C2349 H2356 0.961 . S
C2349 H2357 0.960 . S
C2350 C2348 1.381 . S
C2350 C2351 1.394 . S
C2350 H2358 0.930 . S
C2351 C2350 1.394 . S
C2351 C2352 1.383 . S
C2351 H2359 0.929 . S
C2352 C2351 1.383 . S
C2352 C2353 1.377 . S
C2353 H2337 0.930 . S
C2353 C2352 1.377 . S
C2353 C2354 1.379 . S
C2354 H2338 0.931 . S
C2354 C2348 1.383 . S
C2354 C2353 1.379 . S
H2355 C2349 0.959 . S
H2356 C2349 0.961 . S
H2357 C2349 0.960 . S
H2358 C2350 0.930 . S
H2359 C2351 0.929 . S
H2360 C2368 0.929 . S
H2361 C2370 0.930 . S
H2362 C2372 0.930 . S
H2363 C2375 0.929 . S
H2364 C2378 0.930 . S
H2365 C2380 0.960 . S
H2366 C2380 0.960 . S
H2367 C2380 0.960 . S
C2368 H2360 0.929 . S
C2368 C2369 1.377 . S
C2368 C2370 1.384 . S
C2369 C2368 1.377 . S
C2369 C2375 1.390 . S
C2370 H2361 0.930 . S
C2370 C2368 1.384 . S
C2370 C2371 1.372 . S
C2371 C2370 1.372 . S
C2371 C2372 1.400 . S
C2371 C2376 1.490 . S
C2372 H2362 0.930 . S
C2372 C2371 1.400 . S
C2372 C2375 1.386 . S
H2373 C2389 0.930 . S
H2374 C2390 0.931 . S
C2375 H2363 0.929 . S
C2375 C2369 1.390 . S
C2375 C2372 1.386 . S
C2376 C2371 1.490 . S
C2376 C2378 1.395 . S
C2376 C2379 1.403 . S
H2377 C2383 0.930 . S
C2378 H2364 0.930 . S
C2378 C2376 1.395 . S
C2378 C2381 1.403 . S
C2379 C2376 1.403 . S
C2379 C2380 1.524 . S
C2379 C2383 1.400 . S
C2380 H2365 0.960 . S
C2380 H2366 0.960 . S
C2380 H2367 0.960 . S
C2380 C2379 1.524 . S
C2381 C2378 1.403 . S
C2381 C2382 1.392 . S
C2381 C2385 1.495 . S
C2382 C2381 1.392 . S
C2382 C2383 1.385 . S
C2382 C2384 1.478 . S
C2383 H2377 0.930 . S
C2383 C2379 1.400 . S
C2383 C2382 1.385 . S
C2384 C2382 1.478 . S
C2384 C2386 1.381 . S
C2384 C2390 1.383 . S
C2385 C2381 1.495 . S
C2385 H2391 0.959 . S
C2385 H2392 0.961 . S
C2385 H2393 0.960 . S
C2386 C2384 1.381 . S
C2386 C2387 1.394 . S
C2386 H2394 0.930 . S
C2387 C2386 1.394 . S
C2387 C2388 1.383 . S
C2387 H2395 0.929 . S
C2388 C2387 1.383 . S
C2388 C2389 1.377 . S
C2389 H2373 0.930 . S
C2389 C2388 1.377 . S
C2389 C2390 1.379 . S
C2390 H2374 0.931 . S
C2390 C2384 1.383 . S
C2390 C2389 1.379 . S
H2391 C2385 0.959 . S
H2392 C2385 0.961 . S
H2393 C2385 0.960 . S
H2394 C2386 0.930 . S
H2395 C2387 0.929 . S
H2396 C2404 0.929 . S
H2397 C2406 0.930 . S
H2398 C2408 0.930 . S
H2399 C2411 0.929 . S
H2400 C2414 0.930 . S
H2401 C2416 0.960 . S
H2402 C2416 0.960 . S
H2403 C2416 0.960 . S
C2404 H2396 0.929 . S
C2404 C2405 1.377 . S
C2404 C2406 1.384 . S
C2405 C2404 1.377 . S
C2405 C2411 1.390 . S
C2406 H2397 0.930 . S
C2406 C2404 1.384 . S
C2406 C2407 1.372 . S
C2407 C2406 1.372 . S
C2407 C2408 1.400 . S
C2407 C2412 1.490 . S
C2408 H2398 0.930 . S
C2408 C2407 1.400 . S
C2408 C2411 1.386 . S
H2409 C2425 0.930 . S
H2410 C2426 0.931 . S
C2411 H2399 0.929 . S
C2411 C2405 1.390 . S
C2411 C2408 1.386 . S
C2412 C2407 1.490 . S
C2412 C2414 1.395 . S
C2412 C2415 1.403 . S
H2413 C2419 0.930 . S
C2414 H2400 0.930 . S
C2414 C2412 1.395 . S
C2414 C2417 1.403 . S
C2415 C2412 1.403 . S
C2415 C2416 1.524 . S
C2415 C2419 1.400 . S
C2416 H2401 0.960 . S
C2416 H2402 0.960 . S
C2416 H2403 0.960 . S
C2416 C2415 1.524 . S
C2417 C2414 1.403 . S
C2417 C2418 1.392 . S
C2417 C2421 1.495 . S
C2418 C2417 1.392 . S
C2418 C2419 1.385 . S
C2418 C2420 1.478 . S
C2419 H2413 0.930 . S
C2419 C2415 1.400 . S
C2419 C2418 1.385 . S
C2420 C2418 1.478 . S
C2420 C2422 1.381 . S
C2420 C2426 1.383 . S
C2421 C2417 1.495 . S
C2421 H2427 0.959 . S
C2421 H2428 0.961 . S
C2421 H2429 0.960 . S
C2422 C2420 1.381 . S
C2422 C2423 1.394 . S
C2422 H2430 0.930 . S
C2423 C2422 1.394 . S
C2423 C2424 1.383 . S
C2423 H2431 0.929 . S
C2424 C2423 1.383 . S
C2424 C2425 1.377 . S
C2425 H2409 0.930 . S
C2425 C2424 1.377 . S
C2425 C2426 1.379 . S
C2426 H2410 0.931 . S
C2426 C2420 1.383 . S
C2426 C2425 1.379 . S
H2427 C2421 0.959 . S
H2428 C2421 0.961 . S
H2429 C2421 0.960 . S
H2430 C2422 0.930 . S
H2431 C2423 0.929 . S
H2432 C2440 0.929 . S
H2433 C2442 0.930 . S
H2434 C2444 0.930 . S
H2435 C2447 0.929 . S
H2436 C2450 0.930 . S
H2437 C2452 0.960 . S
H2438 C2452 0.960 . S
H2439 C2452 0.960 1_455 S
C2440 H2432 0.929 . S
C2440 C2441 1.377 1_655 S
C2440 C2442 1.384 . S
C2441 C2440 1.377 1_455 S
C2441 C2447 1.390 . S
C2442 H2433 0.930 . S
C2442 C2440 1.384 . S
C2442 C2443 1.372 1_655 S
C2443 C2442 1.372 1_455 S
C2443 C2444 1.400 . S
C2443 C2448 1.490 . S
C2444 H2434 0.930 . S
C2444 C2443 1.400 . S
C2444 C2447 1.386 . S
H2445 C2461 0.930 . S
H2446 C2462 0.931 . S
C2447 H2435 0.929 . S
C2447 C2441 1.390 . S
C2447 C2444 1.386 . S
C2448 C2443 1.490 . S
C2448 C2450 1.395 . S
C2448 C2451 1.403 . S
H2449 C2455 0.948 . S
C2450 H2436 0.930 . S
C2450 C2448 1.395 . S
C2450 C2453 1.403 . S
C2451 C2448 1.403 . S
C2451 C2452 1.524 1_455 S
C2451 C2455 1.400 . S
C2452 H2437 0.960 . S
C2452 H2438 0.960 . S
C2452 H2439 0.960 1_655 S
C2452 C2451 1.524 1_655 S
C2453 C2450 1.403 . S
C2453 C2454 1.392 . S
C2453 C2457 1.495 1_556 S
C2454 C2453 1.392 . S
C2454 C2455 1.385 . S
C2454 C2456 1.478 . S
C2455 H2449 0.948 . S
C2455 C2451 1.400 . S
C2455 C2454 1.385 . S
C2456 C2454 1.478 . S
C2456 C2458 1.411 . S
C2456 C2462 1.383 . S
C2457 C2453 1.495 1_554 S
C2457 H2463 0.959 . S
C2457 H2464 0.961 . S
C2457 H2465 0.960 . S
C2458 C2456 1.411 . S
C2458 C2459 1.385 1_556 S
C2458 H2466 0.910 1_456 S
C2459 C2458 1.385 1_554 S
C2459 C2460 1.376 1_554 S
C2459 H2467 0.926 1_455 S
C2460 C2459 1.376 1_556 S
C2460 C2461 1.393 . S
C2461 H2445 0.930 . S
C2461 C2460 1.393 . S
C2461 C2462 1.379 . S
C2462 H2446 0.931 . S
C2462 C2456 1.383 . S
C2462 C2461 1.379 . S
H2463 C2457 0.959 . S
H2464 C2457 0.961 . S
H2465 C2457 0.960 . S
H2466 C2458 0.910 1_654 S
H2467 C2459 0.926 1_655 S
H2468 C2476 0.929 . S
H2469 C2478 0.930 . S
H2470 C2480 0.930 . S
H2471 C2483 0.929 . S
H2472 C2486 0.930 . S
H2473 C2488 0.960 . S
H2474 C2488 0.960 . S
H2475 C2488 0.960 . S
C2476 H2468 0.929 . S
C2476 C2477 1.377 . S
C2476 C2478 1.384 . S
C2477 C2476 1.377 . S
C2477 C2483 1.390 . S
C2478 H2469 0.930 . S
C2478 C2476 1.384 . S
C2478 C2479 1.372 . S
C2479 C2478 1.372 . S
C2479 C2480 1.400 . S
C2479 C2484 1.490 . S
C2480 H2470 0.930 . S
C2480 C2479 1.400 . S
C2480 C2483 1.386 . S
H2481 C2497 0.930 . S
H2482 C2498 0.931 . S
C2483 H2471 0.929 . S
C2483 C2477 1.390 . S
C2483 C2480 1.386 . S
C2484 C2479 1.490 . S
C2484 C2486 1.395 . S
C2484 C2487 1.403 . S
H2485 C2491 0.930 . S
C2486 H2472 0.930 . S
C2486 C2484 1.395 . S
C2486 C2489 1.403 . S
C2487 C2484 1.403 . S
C2487 C2488 1.524 . S
C2487 C2491 1.400 . S
C2488 H2473 0.960 . S
C2488 H2474 0.960 . S
C2488 H2475 0.960 . S
C2488 C2487 1.524 . S
C2489 C2486 1.403 . S
C2489 C2490 1.392 . S
C2489 C2493 1.495 . S
C2490 C2489 1.392 . S
C2490 C2491 1.385 . S
C2490 C2492 1.478 . S
C2491 H2485 0.930 . S
C2491 C2487 1.400 . S
C2491 C2490 1.385 . S
C2492 C2490 1.478 . S
C2492 C2494 1.381 . S
C2492 C2498 1.383 . S
C2493 C2489 1.495 . S
C2493 H2499 0.959 . S
C2493 H2500 0.961 . S
C2493 H2501 0.960 . S
C2494 C2492 1.381 . S
C2494 C2495 1.394 . S
C2494 H2502 0.930 . S
C2495 C2494 1.394 . S
C2495 C2496 1.383 . S
C2495 H2503 0.929 . S
C2496 C2495 1.383 . S
C2496 C2497 1.377 . S
C2497 H2481 0.930 . S
C2497 C2496 1.377 . S
C2497 C2498 1.379 . S
C2498 H2482 0.931 . S
C2498 C2492 1.383 . S
C2498 C2497 1.379 . S
H2499 C2493 0.959 . S
H2500 C2493 0.961 . S
H2501 C2493 0.960 . S
H2502 C2494 0.930 . S
H2503 C2495 0.929 . S
H2504 C2512 0.929 . S
H2505 C2514 0.930 . S
H2506 C2516 0.930 . S
H2507 C2519 0.929 . S
H2508 C2522 0.930 . S
H2509 C2524 0.960 . S
H2510 C2524 0.960 . S
H2511 C2524 0.960 . S
C2512 H2504 0.929 . S
C2512 C2513 1.377 . S
C2512 C2514 1.384 . S
C2513 C2512 1.377 . S
C2513 C2519 1.390 . S
C2514 H2505 0.930 . S
C2514 C2512 1.384 . S
C2514 C2515 1.372 . S
C2515 C2514 1.372 . S
C2515 C2516 1.400 . S
C2515 C2520 1.490 . S
C2516 H2506 0.930 . S
C2516 C2515 1.400 . S
C2516 C2519 1.386 . S
H2517 C2533 0.930 . S
H2518 C2534 0.931 . S
C2519 H2507 0.929 . S
C2519 C2513 1.390 . S
C2519 C2516 1.386 . S
C2520 C2515 1.490 . S
C2520 C2522 1.395 . S
C2520 C2523 1.403 . S
H2521 C2527 0.930 . S
C2522 H2508 0.930 . S
C2522 C2520 1.395 . S
C2522 C2525 1.403 . S
C2523 C2520 1.403 . S
C2523 C2524 1.524 . S
C2523 C2527 1.400 . S
C2524 H2509 0.960 . S
C2524 H2510 0.960 . S
C2524 H2511 0.960 . S
C2524 C2523 1.524 . S
C2525 C2522 1.403 . S
C2525 C2526 1.392 . S
C2525 C2529 1.495 . S
C2526 C2525 1.392 . S
C2526 C2527 1.385 . S
C2526 C2528 1.478 . S
C2527 H2521 0.930 . S
C2527 C2523 1.400 . S
C2527 C2526 1.385 . S
C2528 C2526 1.478 . S
C2528 C2530 1.381 . S
C2528 C2534 1.383 . S
C2529 C2525 1.495 . S
C2529 H2535 0.959 . S
C2529 H2536 0.961 . S
C2529 H2537 0.960 . S
C2530 C2528 1.381 . S
C2530 C2531 1.394 . S
C2530 H2538 0.930 . S
C2531 C2530 1.394 . S
C2531 C2532 1.383 . S
C2531 H2539 0.929 . S
C2532 C2531 1.383 . S
C2532 C2533 1.377 . S
C2533 H2517 0.930 . S
C2533 C2532 1.377 . S
C2533 C2534 1.379 . S
C2534 H2518 0.931 . S
C2534 C2528 1.383 . S
C2534 C2533 1.379 . S
H2535 C2529 0.959 . S
H2536 C2529 0.961 . S
H2537 C2529 0.960 . S
H2538 C2530 0.930 . S
H2539 C2531 0.929 . S
H2540 C2548 0.929 . S
H2541 C2550 0.930 . S
H2542 C2552 0.930 . S
H2543 C2555 0.929 . S
H2544 C2558 0.930 . S
H2545 C2560 0.960 . S
H2546 C2560 0.960 . S
H2547 C2560 0.960 . S
C2548 H2540 0.929 . S
C2548 C2549 1.377 . S
C2548 C2550 1.384 . S
C2549 C2548 1.377 . S
C2549 C2555 1.390 . S
C2550 H2541 0.930 . S
C2550 C2548 1.384 . S
C2550 C2551 1.372 . S
C2551 C2550 1.372 . S
C2551 C2552 1.400 . S
C2551 C2556 1.490 . S
C2552 H2542 0.930 . S
C2552 C2551 1.400 . S
C2552 C2555 1.386 . S
H2553 C2569 0.930 . S
H2554 C2570 0.931 . S
C2555 H2543 0.929 . S
C2555 C2549 1.390 . S
C2555 C2552 1.386 . S
C2556 C2551 1.490 . S
C2556 C2558 1.395 . S
C2556 C2559 1.403 . S
H2557 C2563 0.930 . S
C2558 H2544 0.930 . S
C2558 C2556 1.395 . S
C2558 C2561 1.403 . S
C2559 C2556 1.403 . S
C2559 C2560 1.524 . S
C2559 C2563 1.400 . S
C2560 H2545 0.960 . S
C2560 H2546 0.960 . S
C2560 H2547 0.960 . S
C2560 C2559 1.524 . S
C2561 C2558 1.403 . S
C2561 C2562 1.392 . S
C2561 C2565 1.495 . S
C2562 C2561 1.392 . S
C2562 C2563 1.385 . S
C2562 C2564 1.478 . S
C2563 H2557 0.930 . S
C2563 C2559 1.400 . S
C2563 C2562 1.385 . S
C2564 C2562 1.478 . S
C2564 C2566 1.381 . S
C2564 C2570 1.383 . S
C2565 C2561 1.495 . S
C2565 H2571 0.959 . S
C2565 H2572 0.961 . S
C2565 H2573 0.960 . S
C2566 C2564 1.381 . S
C2566 C2567 1.394 . S
C2566 H2574 0.930 . S
C2567 C2566 1.394 . S
C2567 C2568 1.383 . S
C2567 H2575 0.929 . S
C2568 C2567 1.383 . S
C2568 C2569 1.377 . S
C2569 H2553 0.930 . S
C2569 C2568 1.377 . S
C2569 C2570 1.379 . S
C2570 H2554 0.931 . S
C2570 C2564 1.383 . S
C2570 C2569 1.379 . S
H2571 C2565 0.959 . S
H2572 C2565 0.961 . S
H2573 C2565 0.960 . S
H2574 C2566 0.930 . S
H2575 C2567 0.929 . S
H2576 C2584 0.929 . S
H2577 C2586 0.930 . S
H2578 C2588 0.930 1_655 S
H2579 C2591 0.920 1_655 S
H2580 C2594 0.930 . S
H2581 C2596 0.960 . S
H2582 C2596 0.960 . S
H2583 C2596 0.960 . S
C2584 H2576 0.929 . S
C2584 C2585 1.377 . S
C2584 C2586 1.384 . S
C2585 C2584 1.377 . S
C2585 C2591 1.393 . S
C2586 H2577 0.930 . S
C2586 C2584 1.384 . S
C2586 C2587 1.372 . S
C2587 C2586 1.372 . S
C2587 C2588 1.400 . S
C2587 C2592 1.490 . S
C2588 H2578 0.930 1_455 S
C2588 C2587 1.400 . S
C2588 C2591 1.392 . S
H2589 C2605 0.930 . S
H2590 C2606 0.931 . S
C2591 H2579 0.920 1_455 S
C2591 C2585 1.393 . S
C2591 C2588 1.392 . S
C2592 C2587 1.490 . S
C2592 C2594 1.395 . S
C2592 C2595 1.403 1_455 S
H2593 C2599 0.930 . S
C2594 H2580 0.930 . S
C2594 C2592 1.395 . S
C2594 C2597 1.403 . S
C2595 C2592 1.403 1_655 S
C2595 C2596 1.524 . S
C2595 C2599 1.400 . S
C2596 H2581 0.960 . S
C2596 H2582 0.960 . S
C2596 H2583 0.960 . S
C2596 C2595 1.524 . S
C2597 C2594 1.403 . S
C2597 C2598 1.392 . S
C2597 C2601 1.495 . S
C2598 C2597 1.392 . S
C2598 C2599 1.385 1_455 S
C2598 C2600 1.478 . S
C2599 H2593 0.930 . S
C2599 C2595 1.400 . S
C2599 C2598 1.385 1_655 S
C2600 C2598 1.478 . S
C2600 C2602 1.381 . S
C2600 C2606 1.383 . S
C2601 C2597 1.495 . S
C2601 H2607 0.959 . S
C2601 H2608 0.961 . S
C2601 H2609 0.960 . S
C2602 C2600 1.381 . S
C2602 C2603 1.394 . S
C2602 H2610 0.930 . S
C2603 C2602 1.394 . S
C2603 C2604 1.383 . S
C2603 H2611 0.929 . S
C2604 C2603 1.383 . S
C2604 C2605 1.377 . S
C2605 H2589 0.930 . S
C2605 C2604 1.377 . S
C2605 C2606 1.379 . S
C2606 H2590 0.931 . S
C2606 C2600 1.383 . S
C2606 C2605 1.379 . S
H2607 C2601 0.959 . S
H2608 C2601 0.961 . S
H2609 C2601 0.960 . S
H2610 C2602 0.930 . S
H2611 C2603 0.929 . S
H2612 C2620 0.929 . S
H2613 C2622 0.930 . S
H2614 C2624 0.930 . S
H2615 C2627 0.929 . S
H2616 C2630 0.930 . S
H2617 C2632 0.960 . S
H2618 C2632 0.960 . S
H2619 C2632 0.960 . S
C2620 H2612 0.929 . S
C2620 C2621 1.377 . S
C2620 C2622 1.384 . S
C2621 C2620 1.377 . S
C2621 C2627 1.390 . S
C2622 H2613 0.930 . S
C2622 C2620 1.384 . S
C2622 C2623 1.372 . S
C2623 C2622 1.372 . S
C2623 C2624 1.400 . S
C2623 C2628 1.490 . S
C2624 H2614 0.930 . S
C2624 C2623 1.400 . S
C2624 C2627 1.386 . S
H2625 C2641 0.930 . S
H2626 C2642 0.931 . S
C2627 H2615 0.929 . S
C2627 C2621 1.390 . S
C2627 C2624 1.386 . S
C2628 C2623 1.490 . S
C2628 C2630 1.395 . S
C2628 C2631 1.403 . S
H2629 C2635 0.930 . S
C2630 H2616 0.930 . S
C2630 C2628 1.395 . S
C2630 C2633 1.403 . S
C2631 C2628 1.403 . S
C2631 C2632 1.524 . S
C2631 C2635 1.400 . S
C2632 H2617 0.960 . S
C2632 H2618 0.960 . S
C2632 H2619 0.960 . S
C2632 C2631 1.524 . S
C2633 C2630 1.403 . S
C2633 C2634 1.392 . S
C2633 C2637 1.495 . S
C2634 C2633 1.392 . S
C2634 C2635 1.385 . S
C2634 C2636 1.478 . S
C2635 H2629 0.930 . S
C2635 C2631 1.400 . S
C2635 C2634 1.385 . S
C2636 C2634 1.478 . S
C2636 C2638 1.381 . S
C2636 C2642 1.383 . S
C2637 C2633 1.495 . S
C2637 H2643 0.959 . S
C2637 H2644 0.961 . S
C2637 H2645 0.960 . S
C2638 C2636 1.381 . S
C2638 C2639 1.394 . S
C2638 H2646 0.930 . S
C2639 C2638 1.394 . S
C2639 C2640 1.383 . S
C2639 H2647 0.929 . S
C2640 C2639 1.383 . S
C2640 C2641 1.377 . S
C2641 H2625 0.930 . S
C2641 C2640 1.377 . S
C2641 C2642 1.379 . S
C2642 H2626 0.931 . S
C2642 C2636 1.383 . S
C2642 C2641 1.379 . S
H2643 C2637 0.959 . S
H2644 C2637 0.961 . S
H2645 C2637 0.960 . S
H2646 C2638 0.930 . S
H2647 C2639 0.929 . S
H2648 C2656 0.929 . S
H2649 C2658 0.930 . S
H2650 C2660 0.930 . S
H2651 C2663 0.929 . S
H2652 C2666 0.930 . S
H2653 C2668 0.960 . S
H2654 C2668 0.960 . S
H2655 C2668 0.960 . S
C2656 H2648 0.929 . S
C2656 C2657 1.377 . S
C2656 C2658 1.384 . S
C2657 C2656 1.377 . S
C2657 C2663 1.390 . S
C2658 H2649 0.930 . S
C2658 C2656 1.384 . S
C2658 C2659 1.372 . S
C2659 C2658 1.372 . S
C2659 C2660 1.400 . S
C2659 C2664 1.490 . S
C2660 H2650 0.930 . S
C2660 C2659 1.400 . S
C2660 C2663 1.386 . S
H2661 C2677 0.930 . S
H2662 C2678 0.931 . S
C2663 H2651 0.929 . S
C2663 C2657 1.390 . S
C2663 C2660 1.386 . S
C2664 C2659 1.490 . S
C2664 C2666 1.395 . S
C2664 C2667 1.403 . S
H2665 C2671 0.930 . S
C2666 H2652 0.930 . S
C2666 C2664 1.395 . S
C2666 C2669 1.403 . S
C2667 C2664 1.403 . S
C2667 C2668 1.524 . S
C2667 C2671 1.400 . S
C2668 H2653 0.960 . S
C2668 H2654 0.960 . S
C2668 H2655 0.960 . S
C2668 C2667 1.524 . S
C2669 C2666 1.403 . S
C2669 C2670 1.392 . S
C2669 C2673 1.495 . S
C2670 C2669 1.392 . S
C2670 C2671 1.385 . S
C2670 C2672 1.478 . S
C2671 H2665 0.930 . S
C2671 C2667 1.400 . S
C2671 C2670 1.385 . S
C2672 C2670 1.478 . S
C2672 C2674 1.381 . S
C2672 C2678 1.383 . S
C2673 C2669 1.495 . S
C2673 H2679 0.959 . S
C2673 H2680 0.961 . S
C2673 H2681 0.960 . S
C2674 C2672 1.381 . S
C2674 C2675 1.394 . S
C2674 H2682 0.930 . S
C2675 C2674 1.394 . S
C2675 C2676 1.383 . S
C2675 H2683 0.929 . S
C2676 C2675 1.383 . S
C2676 C2677 1.377 . S
C2677 H2661 0.930 . S
C2677 C2676 1.377 . S
C2677 C2678 1.379 . S
C2678 H2662 0.931 . S
C2678 C2672 1.383 . S
C2678 C2677 1.379 . S
H2679 C2673 0.959 . S
H2680 C2673 0.961 . S
H2681 C2673 0.960 . S
H2682 C2674 0.930 . S
H2683 C2675 0.929 . S
H2684 C2692 0.929 . S
H2685 C2694 0.930 . S
H2686 C2696 0.930 . S
H2687 C2699 0.929 . S
H2688 C2702 0.930 . S
H2689 C2704 0.960 . S
H2690 C2704 0.960 . S
H2691 C2704 0.960 . S
C2692 H2684 0.929 . S
C2692 C2693 1.377 . S
C2692 C2694 1.384 . S
C2693 C2692 1.377 . S
C2693 C2699 1.390 . S
C2694 H2685 0.930 . S
C2694 C2692 1.384 . S
C2694 C2695 1.372 . S
C2695 C2694 1.372 . S
C2695 C2696 1.400 . S
C2695 C2700 1.490 . S
C2696 H2686 0.930 . S
C2696 C2695 1.400 . S
C2696 C2699 1.386 . S
H2697 C2713 0.930 . S
H2698 C2714 0.931 . S
C2699 H2687 0.929 . S
C2699 C2693 1.390 . S
C2699 C2696 1.386 . S
C2700 C2695 1.490 . S
C2700 C2702 1.395 . S
C2700 C2703 1.403 . S
H2701 C2707 0.930 . S
C2702 H2688 0.930 . S
C2702 C2700 1.395 . S
C2702 C2705 1.403 . S
C2703 C2700 1.403 . S
C2703 C2704 1.524 . S
C2703 C2707 1.400 . S
C2704 H2689 0.960 . S
C2704 H2690 0.960 . S
C2704 H2691 0.960 . S
C2704 C2703 1.524 . S
C2705 C2702 1.403 . S
C2705 C2706 1.392 . S
C2705 C2709 1.495 . S
C2706 C2705 1.392 . S
C2706 C2707 1.385 . S
C2706 C2708 1.478 . S
C2707 H2701 0.930 . S
C2707 C2703 1.400 . S
C2707 C2706 1.385 . S
C2708 C2706 1.478 . S
C2708 C2710 1.381 . S
C2708 C2714 1.383 . S
C2709 C2705 1.495 . S
C2709 H2715 0.959 . S
C2709 H2716 0.961 . S
C2709 H2717 0.960 . S
C2710 C2708 1.381 . S
C2710 C2711 1.394 . S
C2710 H2718 0.930 . S
C2711 C2710 1.394 . S
C2711 C2712 1.383 . S
C2711 H2719 0.929 . S
C2712 C2711 1.383 . S
C2712 C2713 1.377 . S
C2713 H2697 0.930 . S
C2713 C2712 1.377 . S
C2713 C2714 1.379 . S
C2714 H2698 0.931 . S
C2714 C2708 1.383 . S
C2714 C2713 1.379 . S
H2715 C2709 0.959 . S
H2716 C2709 0.961 . S
H2717 C2709 0.960 . S
H2718 C2710 0.930 . S
H2719 C2711 0.929 . S
H2720 C2728 0.929 . S
H2721 C2730 0.930 . S
H2722 C2732 0.930 . S
H2723 C2735 0.929 . S
H2724 C2738 0.930 . S
H2725 C2740 0.960 . S
H2726 C2740 0.960 . S
H2727 C2740 0.960 . S
C2728 H2720 0.929 . S
C2728 C2729 1.377 . S
C2728 C2730 1.384 . S
C2729 C2728 1.377 . S
C2729 C2735 1.390 . S
C2730 H2721 0.930 . S
C2730 C2728 1.384 . S
C2730 C2731 1.372 . S
C2731 C2730 1.372 . S
C2731 C2732 1.400 . S
C2731 C2736 1.490 . S
C2732 H2722 0.930 . S
C2732 C2731 1.400 . S
C2732 C2735 1.386 . S
H2733 C2749 0.930 . S
H2734 C2750 0.931 . S
C2735 H2723 0.929 . S
C2735 C2729 1.390 . S
C2735 C2732 1.386 . S
C2736 C2731 1.490 . S
C2736 C2738 1.395 . S
C2736 C2739 1.403 . S
H2737 C2743 0.930 . S
C2738 H2724 0.930 . S
C2738 C2736 1.395 . S
C2738 C2741 1.403 . S
C2739 C2736 1.403 . S
C2739 C2740 1.524 . S
C2739 C2743 1.400 . S
C2740 H2725 0.960 . S
C2740 H2726 0.960 . S
C2740 H2727 0.960 . S
C2740 C2739 1.524 . S
C2741 C2738 1.403 . S
C2741 C2742 1.392 . S
C2741 C2745 1.495 . S
C2742 C2741 1.392 . S
C2742 C2743 1.385 . S
C2742 C2744 1.478 . S
C2743 H2737 0.930 . S
C2743 C2739 1.400 . S
C2743 C2742 1.385 . S
C2744 C2742 1.478 . S
C2744 C2746 1.381 . S
C2744 C2750 1.383 . S
C2745 C2741 1.495 . S
C2745 H2751 0.959 . S
C2745 H2752 0.961 . S
C2745 H2753 0.960 . S
C2746 C2744 1.381 . S
C2746 C2747 1.394 . S
C2746 H2754 0.930 . S
C2747 C2746 1.394 . S
C2747 C2748 1.383 . S
C2747 H2755 0.929 . S
C2748 C2747 1.383 . S
C2748 C2749 1.377 . S
C2749 H2733 0.930 . S
C2749 C2748 1.377 . S
C2749 C2750 1.379 . S
C2750 H2734 0.931 . S
C2750 C2744 1.383 . S
C2750 C2749 1.379 . S
H2751 C2745 0.959 . S
H2752 C2745 0.961 . S
H2753 C2745 0.960 . S
H2754 C2746 0.930 . S
H2755 C2747 0.929 . S
H2756 C2764 0.929 . S
H2757 C2766 0.930 . S
H2758 C2768 0.930 . S
H2759 C2771 0.929 . S
H2760 C2774 0.930 . S
H2761 C2776 0.960 . S
H2762 C2776 0.960 . S
H2763 C2776 0.960 . S
C2764 H2756 0.929 . S
C2764 C2765 1.377 . S
C2764 C2766 1.384 . S
C2765 C2764 1.377 . S
C2765 C2771 1.390 . S
C2766 H2757 0.930 . S
C2766 C2764 1.384 . S
C2766 C2767 1.372 . S
C2767 C2766 1.372 . S
C2767 C2768 1.400 . S
C2767 C2772 1.490 . S
C2768 H2758 0.930 . S
C2768 C2767 1.400 . S
C2768 C2771 1.386 . S
H2769 C2785 0.930 . S
H2770 C2786 0.931 . S
C2771 H2759 0.929 . S
C2771 C2765 1.390 . S
C2771 C2768 1.386 . S
C2772 C2767 1.490 . S
C2772 C2774 1.395 . S
C2772 C2775 1.403 . S
H2773 C2779 0.930 . S
C2774 H2760 0.930 . S
C2774 C2772 1.395 . S
C2774 C2777 1.403 . S
C2775 C2772 1.403 . S
C2775 C2776 1.524 . S
C2775 C2779 1.400 . S
C2776 H2761 0.960 . S
C2776 H2762 0.960 . S
C2776 H2763 0.960 . S
C2776 C2775 1.524 . S
C2777 C2774 1.403 . S
C2777 C2778 1.392 . S
C2777 C2781 1.495 . S
C2778 C2777 1.392 . S
C2778 C2779 1.385 . S
C2778 C2780 1.478 . S
C2779 H2773 0.930 . S
C2779 C2775 1.400 . S
C2779 C2778 1.385 . S
C2780 C2778 1.478 . S
C2780 C2782 1.381 . S
C2780 C2786 1.383 . S
C2781 C2777 1.495 . S
C2781 H2787 0.959 . S
C2781 H2788 0.961 . S
C2781 H2789 0.960 . S
C2782 C2780 1.381 . S
C2782 C2783 1.394 . S
C2782 H2790 0.930 . S
C2783 C2782 1.394 . S
C2783 C2784 1.383 . S
C2783 H2791 0.929 . S
C2784 C2783 1.383 . S
C2784 C2785 1.377 . S
C2785 H2769 0.930 . S
C2785 C2784 1.377 . S
C2785 C2786 1.379 . S
C2786 H2770 0.931 . S
C2786 C2780 1.383 . S
C2786 C2785 1.379 . S
H2787 C2781 0.959 . S
H2788 C2781 0.961 . S
H2789 C2781 0.960 . S
H2790 C2782 0.930 . S
H2791 C2783 0.929 . S
H2792 C2800 0.929 . S
H2793 C2802 0.930 . S
H2794 C2804 0.930 . S
H2795 C2807 0.929 . S
H2796 C2810 0.930 . S
H2797 C2812 0.960 . S
H2798 C2812 0.960 . S
H2799 C2812 0.960 . S
C2800 H2792 0.929 . S
C2800 C2801 1.377 . S
C2800 C2802 1.384 . S
C2801 C2800 1.377 . S
C2801 C2807 1.390 . S
C2802 H2793 0.930 . S
C2802 C2800 1.384 . S
C2802 C2803 1.372 . S
C2803 C2802 1.372 . S
C2803 C2804 1.400 . S
C2803 C2808 1.490 . S
C2804 H2794 0.930 . S
C2804 C2803 1.400 . S
C2804 C2807 1.386 . S
H2805 C2821 0.930 . S
H2806 C2822 0.931 . S
C2807 H2795 0.929 . S
C2807 C2801 1.390 . S
C2807 C2804 1.386 . S
C2808 C2803 1.490 . S
C2808 C2810 1.395 . S
C2808 C2811 1.403 . S
H2809 C2815 0.930 . S
C2810 H2796 0.930 . S
C2810 C2808 1.395 . S
C2810 C2813 1.403 . S
C2811 C2808 1.403 . S
C2811 C2812 1.524 . S
C2811 C2815 1.400 . S
C2812 H2797 0.960 . S
C2812 H2798 0.960 . S
C2812 H2799 0.960 . S
C2812 C2811 1.524 . S
C2813 C2810 1.403 . S
C2813 C2814 1.392 . S
C2813 C2817 1.495 . S
C2814 C2813 1.392 . S
C2814 C2815 1.385 . S
C2814 C2816 1.478 . S
C2815 H2809 0.930 . S
C2815 C2811 1.400 . S
C2815 C2814 1.385 . S
C2816 C2814 1.478 . S
C2816 C2818 1.381 . S
C2816 C2822 1.383 . S
C2817 C2813 1.495 . S
C2817 H2823 0.959 . S
C2817 H2824 0.961 . S
C2817 H2825 0.960 . S
C2818 C2816 1.381 . S
C2818 C2819 1.394 . S
C2818 H2826 0.930 . S
C2819 C2818 1.394 . S
C2819 C2820 1.383 . S
C2819 H2827 0.929 . S
C2820 C2819 1.383 . S
C2820 C2821 1.377 . S
C2821 H2805 0.930 . S
C2821 C2820 1.377 . S
C2821 C2822 1.379 . S
C2822 H2806 0.931 . S
C2822 C2816 1.383 . S
C2822 C2821 1.379 . S
H2823 C2817 0.959 . S
H2824 C2817 0.961 . S
H2825 C2817 0.960 . S
H2826 C2818 0.930 . S
H2827 C2819 0.929 . S
H2828 C2836 0.929 . S
H2829 C2838 0.930 . S
H2830 C2840 0.930 . S
H2831 C2843 0.929 . S
H2832 C2846 0.930 . S
H2833 C2848 0.960 . S
H2834 C2848 0.960 . S
H2835 C2848 0.960 . S
C2836 H2828 0.929 . S
C2836 C2837 1.377 . S
C2836 C2838 1.384 . S
C2837 C2836 1.377 . S
C2837 C2843 1.390 . S
C2838 H2829 0.930 . S
C2838 C2836 1.384 . S
C2838 C2839 1.372 . S
C2839 C2838 1.372 . S
C2839 C2840 1.400 . S
C2839 C2844 1.490 . S
C2840 H2830 0.930 . S
C2840 C2839 1.400 . S
C2840 C2843 1.386 . S
H2841 C2857 0.930 . S
H2842 C2858 0.931 . S
C2843 H2831 0.929 . S
C2843 C2837 1.390 . S
C2843 C2840 1.386 . S
C2844 C2839 1.490 . S
C2844 C2846 1.395 . S
C2844 C2847 1.403 . S
H2845 C2851 0.930 . S
C2846 H2832 0.930 . S
C2846 C2844 1.395 . S
C2846 C2849 1.403 . S
C2847 C2844 1.403 . S
C2847 C2848 1.524 . S
C2847 C2851 1.400 . S
C2848 H2833 0.960 . S
C2848 H2834 0.960 . S
C2848 H2835 0.960 . S
C2848 C2847 1.524 . S
C2849 C2846 1.403 . S
C2849 C2850 1.392 . S
C2849 C2853 1.495 . S
C2850 C2849 1.392 . S
C2850 C2851 1.385 . S
C2850 C2852 1.478 . S
C2851 H2845 0.930 . S
C2851 C2847 1.400 . S
C2851 C2850 1.385 . S
C2852 C2850 1.478 . S
C2852 C2854 1.381 . S
C2852 C2858 1.383 . S
C2853 C2849 1.495 . S
C2853 H2859 0.959 . S
C2853 H2860 0.961 . S
C2853 H2861 0.960 . S
C2854 C2852 1.381 . S
C2854 C2855 1.394 . S
C2854 H2862 0.930 . S
C2855 C2854 1.394 . S
C2855 C2856 1.383 . S
C2855 H2863 0.929 . S
C2856 C2855 1.383 . S
C2856 C2857 1.377 . S
C2857 H2841 0.930 . S
C2857 C2856 1.377 . S
C2857 C2858 1.379 . S
C2858 H2842 0.931 . S
C2858 C2852 1.383 . S
C2858 C2857 1.379 . S
H2859 C2853 0.959 . S
H2860 C2853 0.961 . S
H2861 C2853 0.960 . S
H2862 C2854 0.930 . S
H2863 C2855 0.929 . S
H2864 C2872 0.929 . S
H2865 C2874 0.930 . S
H2866 C2876 0.930 . S
H2867 C2879 0.929 . S
H2868 C2882 0.930 . S
H2869 C2884 0.960 . S
H2870 C2884 0.960 . S
H2871 C2884 0.960 . S
C2872 H2864 0.929 . S
C2872 C2873 1.377 . S
C2872 C2874 1.384 . S
C2873 C2872 1.377 . S
C2873 C2879 1.390 . S
C2874 H2865 0.930 . S
C2874 C2872 1.384 . S
C2874 C2875 1.372 . S
C2875 C2874 1.372 . S
C2875 C2876 1.400 . S
C2875 C2880 1.490 . S
C2876 H2866 0.930 . S
C2876 C2875 1.400 . S
C2876 C2879 1.386 . S
H2877 C2893 0.930 . S
H2878 C2894 0.931 . S
C2879 H2867 0.929 . S
C2879 C2873 1.390 . S
C2879 C2876 1.386 . S
C2880 C2875 1.490 . S
C2880 C2882 1.395 . S
C2880 C2883 1.403 . S
H2881 C2887 0.930 . S
C2882 H2868 0.930 . S
C2882 C2880 1.395 . S
C2882 C2885 1.403 . S
C2883 C2880 1.403 . S
C2883 C2884 1.524 . S
C2883 C2887 1.400 . S
C2884 H2869 0.960 . S
C2884 H2870 0.960 . S
C2884 H2871 0.960 . S
C2884 C2883 1.524 . S
C2885 C2882 1.403 . S
C2885 C2886 1.392 . S
C2885 C2889 1.495 . S
C2886 C2885 1.392 . S
C2886 C2887 1.385 . S
C2886 C2888 1.478 . S
C2887 H2881 0.930 . S
C2887 C2883 1.400 . S
C2887 C2886 1.385 . S
C2888 C2886 1.478 . S
C2888 C2890 1.381 . S
C2888 C2894 1.383 . S
C2889 C2885 1.495 . S
C2889 H2895 0.959 . S
C2889 H2896 0.961 . S
C2889 H2897 0.960 . S
C2890 C2888 1.381 . S
C2890 C2891 1.394 . S
C2890 H2898 0.930 . S
C2891 C2890 1.394 . S
C2891 C2892 1.383 . S
C2891 H2899 0.929 . S
C2892 C2891 1.383 . S
C2892 C2893 1.377 . S
C2893 H2877 0.930 . S
C2893 C2892 1.377 . S
C2893 C2894 1.379 . S
C2894 H2878 0.931 . S
C2894 C2888 1.383 . S
C2894 C2893 1.379 . S
H2895 C2889 0.959 . S
H2896 C2889 0.961 . S
H2897 C2889 0.960 . S
H2898 C2890 0.930 . S
H2899 C2891 0.929 . S
H2900 C2908 0.929 . S
H2901 C2910 0.930 . S
H2902 C2912 0.930 . S
H2903 C2915 0.929 . S
H2904 C2918 0.930 . S
H2905 C2920 0.960 . S
H2906 C2920 0.960 . S
H2907 C2920 0.960 . S
C2908 H2900 0.929 . S
C2908 C2909 1.377 . S
C2908 C2910 1.384 . S
C2909 C2908 1.377 . S
C2909 C2915 1.390 . S
C2910 H2901 0.930 . S
C2910 C2908 1.384 . S
C2910 C2911 1.372 . S
C2911 C2910 1.372 . S
C2911 C2912 1.400 . S
C2911 C2916 1.490 . S
C2912 H2902 0.930 . S
C2912 C2911 1.400 . S
C2912 C2915 1.386 . S
H2913 C2929 0.930 . S
H2914 C2930 0.931 . S
C2915 H2903 0.929 . S
C2915 C2909 1.390 . S
C2915 C2912 1.386 . S
C2916 C2911 1.490 . S
C2916 C2918 1.395 . S
C2916 C2919 1.403 . S
H2917 C2923 0.930 . S
C2918 H2904 0.930 . S
C2918 C2916 1.395 . S
C2918 C2921 1.403 . S
C2919 C2916 1.403 . S
C2919 C2920 1.524 . S
C2919 C2923 1.400 . S
C2920 H2905 0.960 . S
C2920 H2906 0.960 . S
C2920 H2907 0.960 . S
C2920 C2919 1.524 . S
C2921 C2918 1.403 . S
C2921 C2922 1.392 . S
C2921 C2925 1.495 . S
C2922 C2921 1.392 . S
C2922 C2923 1.385 . S
C2922 C2924 1.478 . S
C2923 H2917 0.930 . S
C2923 C2919 1.400 . S
C2923 C2922 1.385 . S
C2924 C2922 1.478 . S
C2924 C2926 1.381 . S
C2924 C2930 1.383 . S
C2925 C2921 1.495 . S
C2925 H2931 0.959 . S
C2925 H2932 0.961 . S
C2925 H2933 0.960 . S
C2926 C2924 1.381 . S
C2926 C2927 1.394 . S
C2926 H2934 0.930 . S
C2927 C2926 1.394 . S
C2927 C2928 1.383 . S
C2927 H2935 0.929 . S
C2928 C2927 1.383 . S
C2928 C2929 1.377 . S
C2929 H2913 0.930 . S
C2929 C2928 1.377 . S
C2929 C2930 1.379 . S
C2930 H2914 0.931 . S
C2930 C2924 1.383 . S
C2930 C2929 1.379 . S
H2931 C2925 0.959 . S
H2932 C2925 0.961 . S
H2933 C2925 0.960 . S
H2934 C2926 0.930 . S
H2935 C2927 0.929 . S
H2936 C2944 0.929 . S
H2937 C2946 0.930 . S
H2938 C2948 0.930 . S
H2939 C2951 0.929 . S
H2940 C2954 0.930 . S
H2941 C2956 0.960 . S
H2942 C2956 0.960 . S
H2943 C2956 0.960 . S
C2944 H2936 0.929 . S
C2944 C2945 1.377 . S
C2944 C2946 1.384 . S
C2945 C2944 1.377 . S
C2945 C2951 1.390 . S
C2946 H2937 0.930 . S
C2946 C2944 1.384 . S
C2946 C2947 1.372 . S
C2947 C2946 1.372 . S
C2947 C2948 1.400 . S
C2947 C2952 1.490 . S
C2948 H2938 0.930 . S
C2948 C2947 1.400 . S
C2948 C2951 1.386 . S
H2949 C2965 0.930 . S
H2950 C2966 0.931 . S
C2951 H2939 0.929 . S
C2951 C2945 1.390 . S
C2951 C2948 1.386 . S
C2952 C2947 1.490 . S
C2952 C2954 1.395 . S
C2952 C2955 1.403 . S
H2953 C2959 0.930 . S
C2954 H2940 0.930 . S
C2954 C2952 1.395 . S
C2954 C2957 1.403 . S
C2955 C2952 1.403 . S
C2955 C2956 1.524 . S
C2955 C2959 1.400 . S
C2956 H2941 0.960 . S
C2956 H2942 0.960 . S
C2956 H2943 0.960 . S
C2956 C2955 1.524 . S
C2957 C2954 1.403 . S
C2957 C2958 1.392 . S
C2957 C2961 1.495 . S
C2958 C2957 1.392 . S
C2958 C2959 1.385 . S
C2958 C2960 1.478 . S
C2959 H2953 0.930 . S
C2959 C2955 1.400 . S
C2959 C2958 1.385 . S
C2960 C2958 1.478 . S
C2960 C2962 1.381 . S
C2960 C2966 1.383 . S
C2961 C2957 1.495 . S
C2961 H2967 0.959 . S
C2961 H2968 0.961 . S
C2961 H2969 0.960 . S
C2962 C2960 1.381 . S
C2962 C2963 1.394 . S
C2962 H2970 0.930 . S
C2963 C2962 1.394 . S
C2963 C2964 1.383 . S
C2963 H2971 0.929 . S
C2964 C2963 1.383 . S
C2964 C2965 1.377 . S
C2965 H2949 0.930 . S
C2965 C2964 1.377 . S
C2965 C2966 1.379 . S
C2966 H2950 0.931 . S
C2966 C2960 1.383 . S
C2966 C2965 1.379 . S
H2967 C2961 0.959 . S
H2968 C2961 0.961 . S
H2969 C2961 0.960 . S
H2970 C2962 0.930 . S
H2971 C2963 0.929 . S
H2972 C2980 0.929 . S
H2973 C2982 0.930 . S
H2974 C2984 0.930 . S
H2975 C2987 0.929 . S
H2976 C2990 0.930 . S
H2977 C2992 0.960 . S
H2978 C2992 0.960 . S
H2979 C2992 0.960 . S
C2980 H2972 0.929 . S
C2980 C2981 1.377 . S
C2980 C2982 1.384 . S
C2981 C2980 1.377 . S
C2981 C2987 1.390 . S
C2982 H2973 0.930 . S
C2982 C2980 1.384 . S
C2982 C2983 1.372 . S
C2983 C2982 1.372 . S
C2983 C2984 1.400 . S
C2983 C2988 1.490 . S
C2984 H2974 0.930 . S
C2984 C2983 1.400 . S
C2984 C2987 1.386 . S
H2985 C3001 0.930 . S
H2986 C3002 0.931 . S
C2987 H2975 0.929 . S
C2987 C2981 1.390 . S
C2987 C2984 1.386 . S
C2988 C2983 1.490 . S
C2988 C2990 1.395 . S
C2988 C2991 1.403 . S
H2989 C2995 0.930 . S
C2990 H2976 0.930 . S
C2990 C2988 1.395 . S
C2990 C2993 1.403 . S
C2991 C2988 1.403 . S
C2991 C2992 1.524 . S
C2991 C2995 1.400 . S
C2992 H2977 0.960 . S
C2992 H2978 0.960 . S
C2992 H2979 0.960 . S
C2992 C2991 1.524 . S
C2993 C2990 1.403 . S
C2993 C2994 1.392 . S
C2993 C2997 1.495 . S
C2994 C2993 1.392 . S
C2994 C2995 1.385 . S
C2994 C2996 1.478 . S
C2995 H2989 0.930 . S
C2995 C2991 1.400 . S
C2995 C2994 1.385 . S
C2996 C2994 1.478 . S
C2996 C2998 1.381 . S
C2996 C3002 1.383 . S
C2997 C2993 1.495 . S
C2997 H3003 0.959 . S
C2997 H3004 0.961 . S
C2997 H3005 0.960 . S
C2998 C2996 1.381 . S
C2998 C2999 1.394 . S
C2998 H3006 0.930 . S
C2999 C2998 1.394 . S
C2999 C3000 1.383 . S
C2999 H3007 0.929 . S
C3000 C2999 1.383 . S
C3000 C3001 1.377 . S
C3001 H2985 0.930 . S
C3001 C3000 1.377 . S
C3001 C3002 1.379 . S
C3002 H2986 0.931 . S
C3002 C2996 1.383 . S
C3002 C3001 1.379 . S
H3003 C2997 0.959 . S
H3004 C2997 0.961 . S
H3005 C2997 0.960 . S
H3006 C2998 0.930 . S
H3007 C2999 0.929 . S
H3008 C3016 0.929 . S
H3009 C3018 0.930 . S
H3010 C3020 0.930 . S
H3011 C3023 0.929 . S
H3012 C3026 0.930 . S
H3013 C3028 0.960 . S
H3014 C3028 0.960 . S
H3015 C3028 0.960 . S
C3016 H3008 0.929 . S
C3016 C3017 1.377 . S
C3016 C3018 1.384 . S
C3017 C3016 1.377 . S
C3017 C3023 1.390 . S
C3018 H3009 0.930 . S
C3018 C3016 1.384 . S
C3018 C3019 1.372 . S
C3019 C3018 1.372 . S
C3019 C3020 1.400 . S
C3019 C3024 1.490 . S
C3020 H3010 0.930 . S
C3020 C3019 1.400 . S
C3020 C3023 1.386 . S
H3021 C3037 0.930 . S
H3022 C3038 0.931 . S
C3023 H3011 0.929 . S
C3023 C3017 1.390 . S
C3023 C3020 1.386 . S
C3024 C3019 1.490 . S
C3024 C3026 1.395 . S
C3024 C3027 1.403 . S
H3025 C3031 0.930 . S
C3026 H3012 0.930 . S
C3026 C3024 1.395 . S
C3026 C3029 1.403 . S
C3027 C3024 1.403 . S
C3027 C3028 1.524 . S
C3027 C3031 1.400 . S
C3028 H3013 0.960 . S
C3028 H3014 0.960 . S
C3028 H3015 0.960 . S
C3028 C3027 1.524 . S
C3029 C3026 1.403 . S
C3029 C3030 1.392 . S
C3029 C3033 1.495 . S
C3030 C3029 1.392 . S
C3030 C3031 1.385 . S
C3030 C3032 1.478 . S
C3031 H3025 0.930 . S
C3031 C3027 1.400 . S
C3031 C3030 1.385 . S
C3032 C3030 1.478 . S
C3032 C3034 1.381 . S
C3032 C3038 1.383 . S
C3033 C3029 1.495 . S
C3033 H3039 0.959 . S
C3033 H3040 0.961 . S
C3033 H3041 0.960 . S
C3034 C3032 1.381 . S
C3034 C3035 1.394 . S
C3034 H3042 0.930 . S
C3035 C3034 1.394 . S
C3035 C3036 1.383 . S
C3035 H3043 0.929 . S
C3036 C3035 1.383 . S
C3036 C3037 1.377 . S
C3037 H3021 0.930 . S
C3037 C3036 1.377 . S
C3037 C3038 1.379 . S
C3038 H3022 0.931 . S
C3038 C3032 1.383 . S
C3038 C3037 1.379 . S
H3039 C3033 0.959 . S
H3040 C3033 0.961 . S
H3041 C3033 0.960 . S
H3042 C3034 0.930 . S
H3043 C3035 0.929 . S
H3044 C3052 0.929 . S
H3045 C3054 0.930 . S
H3046 C3056 0.930 . S
H3047 C3059 0.929 . S
H3048 C3062 0.930 . S
H3049 C3064 0.960 1_545 S
H3050 C3064 0.960 . S
H3051 C3064 0.960 . S
C3052 H3044 0.929 . S
C3052 C3053 1.377 . S
C3052 C3054 1.384 . S
C3053 C3052 1.377 . S
C3053 C3059 1.390 . S
C3054 H3045 0.930 . S
C3054 C3052 1.384 . S
C3054 C3055 1.372 . S
C3055 C3054 1.372 . S
C3055 C3056 1.400 . S
C3055 C3060 1.490 . S
C3056 H3046 0.930 . S
C3056 C3055 1.400 . S
C3056 C3059 1.386 . S
H3057 C3073 0.930 1_556 S
H3058 C3074 0.931 1_556 S
C3059 H3047 0.929 . S
C3059 C3053 1.390 . S
C3059 C3056 1.386 . S
C3060 C3055 1.490 . S
C3060 C3062 1.395 . S
C3060 C3063 1.403 . S
H3061 C3067 0.930 1_545 S
C3062 H3048 0.930 . S
C3062 C3060 1.395 . S
C3062 C3065 1.403 . S
C3063 C3060 1.403 . S
C3063 C3064 1.524 . S
C3063 C3067 1.400 . S
C3064 H3049 0.960 1_565 S
C3064 H3050 0.960 . S
C3064 H3051 0.960 . S
C3064 C3063 1.524 . S
C3065 C3062 1.403 . S
C3065 C3066 1.392 . S
C3065 C3069 1.495 . S
C3066 C3065 1.392 . S
C3066 C3067 1.385 . S
C3066 C3068 1.478 . S
C3067 H3061 0.930 1_565 S
C3067 C3063 1.400 . S
C3067 C3066 1.385 . S
C3068 C3066 1.478 . S
C3068 C3070 1.381 . S
C3068 C3074 1.383 . S
C3069 C3065 1.495 . S
C3069 H3075 0.959 . S
C3069 H3076 0.961 . S
C3069 H3077 0.960 . S
C3070 C3068 1.381 . S
C3070 C3071 1.394 . S
C3070 H3078 0.930 . S
C3071 C3070 1.394 . S
C3071 C3072 1.383 1_565 S
C3071 H3079 0.929 . S
C3072 C3071 1.383 1_545 S
C3072 C3073 1.377 . S
C3073 H3057 0.930 1_554 S
C3073 C3072 1.377 . S
C3073 C3074 1.379 1_545 S
C3074 H3058 0.931 1_554 S
C3074 C3068 1.383 . S
C3074 C3073 1.379 1_565 S
H3075 C3069 0.959 . S
H3076 C3069 0.961 . S
H3077 C3069 0.960 . S
H3078 C3070 0.930 . S
H3079 C3071 0.929 . S
H3080 C3088 0.929 . S
H3081 C3090 0.930 . S
H3082 C3092 0.930 . S
H3083 C3095 0.929 . S
H3084 C3098 0.930 . S
H3085 C3100 0.960 . S
H3086 C3100 0.960 . S
H3087 C3100 0.960 . S
C3088 H3080 0.929 . S
C3088 C3089 1.377 . S
C3088 C3090 1.384 . S
C3089 C3088 1.377 . S
C3089 C3095 1.390 . S
C3090 H3081 0.930 . S
C3090 C3088 1.384 . S
C3090 C3091 1.372 . S
C3091 C3090 1.372 . S
C3091 C3092 1.400 . S
C3091 C3096 1.490 . S
C3092 H3082 0.930 . S
C3092 C3091 1.400 . S
C3092 C3095 1.386 . S
H3093 C3109 0.930 . S
H3094 C3110 0.931 . S
C3095 H3083 0.929 . S
C3095 C3089 1.390 . S
C3095 C3092 1.386 . S
C3096 C3091 1.490 . S
C3096 C3098 1.395 . S
C3096 C3099 1.403 . S
H3097 C3103 0.930 . S
C3098 H3084 0.930 . S
C3098 C3096 1.395 . S
C3098 C3101 1.403 . S
C3099 C3096 1.403 . S
C3099 C3100 1.524 . S
C3099 C3103 1.400 . S
C3100 H3085 0.960 . S
C3100 H3086 0.960 . S
C3100 H3087 0.960 . S
C3100 C3099 1.524 . S
C3101 C3098 1.403 . S
C3101 C3102 1.392 . S
C3101 C3105 1.495 . S
C3102 C3101 1.392 . S
C3102 C3103 1.385 . S
C3102 C3104 1.478 . S
C3103 H3097 0.930 . S
C3103 C3099 1.400 . S
C3103 C3102 1.385 . S
C3104 C3102 1.478 . S
C3104 C3106 1.381 . S
C3104 C3110 1.383 . S
C3105 C3101 1.495 . S
C3105 H3111 0.959 . S
C3105 H3112 0.961 . S
C3105 H3113 0.960 . S
C3106 C3104 1.381 . S
C3106 C3107 1.394 . S
C3106 H3114 0.930 . S
C3107 C3106 1.394 . S
C3107 C3108 1.383 . S
C3107 H3115 0.929 . S
C3108 C3107 1.383 . S
C3108 C3109 1.377 . S
C3109 H3093 0.930 . S
C3109 C3108 1.377 . S
C3109 C3110 1.379 . S
C3110 H3094 0.931 . S
C3110 C3104 1.383 . S
C3110 C3109 1.379 . S
H3111 C3105 0.959 . S
H3112 C3105 0.961 . S
H3113 C3105 0.960 . S
H3114 C3106 0.930 . S
H3115 C3107 0.929 . S
H3116 C3124 0.929 . S
H3117 C3126 0.930 . S
H3118 C3128 0.930 . S
H3119 C3131 0.929 . S
H3120 C3134 0.930 . S
H3121 C3136 0.960 . S
H3122 C3136 0.960 . S
H3123 C3136 0.960 . S
C3124 H3116 0.929 . S
C3124 C3125 1.377 . S
C3124 C3126 1.384 . S
C3125 C3124 1.377 . S
C3125 C3131 1.390 . S
C3126 H3117 0.930 . S
C3126 C3124 1.384 . S
C3126 C3127 1.372 . S
C3127 C3126 1.372 . S
C3127 C3128 1.400 . S
C3127 C3132 1.490 . S
C3128 H3118 0.930 . S
C3128 C3127 1.400 . S
C3128 C3131 1.386 . S
H3129 C3145 0.930 . S
H3130 C3146 0.931 . S
C3131 H3119 0.929 . S
C3131 C3125 1.390 . S
C3131 C3128 1.386 . S
C3132 C3127 1.490 . S
C3132 C3134 1.395 . S
C3132 C3135 1.403 . S
H3133 C3139 0.930 1_556 S
C3134 H3120 0.930 . S
C3134 C3132 1.395 . S
C3134 C3137 1.403 . S
C3135 C3132 1.403 . S
C3135 C3136 1.524 1_554 S
C3135 C3139 1.400 . S
C3136 H3121 0.960 . S
C3136 H3122 0.960 . S
C3136 H3123 0.960 . S
C3136 C3135 1.524 1_556 S
C3137 C3134 1.403 . S
C3137 C3138 1.392 . S
C3137 C3141 1.495 . S
C3138 C3137 1.392 . S
C3138 C3139 1.385 . S
C3138 C3140 1.478 . S
C3139 H3133 0.930 1_554 S
C3139 C3135 1.400 . S
C3139 C3138 1.385 . S
C3140 C3138 1.478 . S
C3140 C3142 1.381 . S
C3140 C3146 1.383 . S
C3141 C3137 1.495 . S
C3141 H3147 0.959 . S
C3141 H3148 0.961 . S
C3141 H3149 0.960 . S
C3142 C3140 1.381 . S
C3142 C3143 1.394 . S
C3142 H3150 0.930 . S
C3143 C3142 1.394 . S
C3143 C3144 1.383 . S
C3143 H3151 0.929 . S
C3144 C3143 1.383 . S
C3144 C3145 1.377 . S
C3145 H3129 0.930 . S
C3145 C3144 1.377 . S
C3145 C3146 1.379 . S
C3146 H3130 0.931 . S
C3146 C3140 1.383 . S
C3146 C3145 1.379 . S
H3147 C3141 0.959 . S
H3148 C3141 0.961 . S
H3149 C3141 0.960 . S
H3150 C3142 0.930 . S
H3151 C3143 0.929 . S
H3152 C3160 0.929 . S
H3153 C3162 0.930 . S
H3154 C3164 0.930 . S
H3155 C3167 0.929 . S
H3156 C3170 0.930 . S
H3157 C3172 0.960 . S
H3158 C3172 0.960 . S
H3159 C3172 0.960 . S
C3160 H3152 0.929 . S
C3160 C3161 1.377 . S
C3160 C3162 1.384 . S
C3161 C3160 1.377 . S
C3161 C3167 1.390 . S
C3162 H3153 0.930 . S
C3162 C3160 1.384 . S
C3162 C3163 1.372 . S
C3163 C3162 1.372 . S
C3163 C3164 1.400 . S
C3163 C3168 1.490 . S
C3164 H3154 0.930 . S
C3164 C3163 1.400 . S
C3164 C3167 1.386 . S
H3165 C3181 0.930 . S
H3166 C3182 0.931 . S
C3167 H3155 0.929 . S
C3167 C3161 1.390 . S
C3167 C3164 1.386 . S
C3168 C3163 1.490 . S
C3168 C3170 1.395 . S
C3168 C3171 1.403 . S
H3169 C3175 0.930 . S
C3170 H3156 0.930 . S
C3170 C3168 1.395 . S
C3170 C3173 1.403 . S
C3171 C3168 1.403 . S
C3171 C3172 1.524 . S
C3171 C3175 1.400 . S
C3172 H3157 0.960 . S
C3172 H3158 0.960 . S
C3172 H3159 0.960 . S
C3172 C3171 1.524 . S
C3173 C3170 1.403 . S
C3173 C3174 1.392 . S
C3173 C3177 1.495 . S
C3174 C3173 1.392 . S
C3174 C3175 1.385 . S
C3174 C3176 1.478 . S
C3175 H3169 0.930 . S
C3175 C3171 1.400 . S
C3175 C3174 1.385 . S
C3176 C3174 1.478 . S
C3176 C3178 1.381 . S
C3176 C3182 1.383 . S
C3177 C3173 1.495 . S
C3177 H3183 0.959 . S
C3177 H3184 0.961 . S
C3177 H3185 0.960 . S
C3178 C3176 1.381 . S
C3178 C3179 1.394 . S
C3178 H3186 0.930 . S
C3179 C3178 1.394 . S
C3179 C3180 1.383 . S
C3179 H3187 0.929 . S
C3180 C3179 1.383 . S
C3180 C3181 1.377 . S
C3181 H3165 0.930 . S
C3181 C3180 1.377 . S
C3181 C3182 1.379 . S
C3182 H3166 0.931 . S
C3182 C3176 1.383 . S
C3182 C3181 1.379 . S
H3183 C3177 0.959 . S
H3184 C3177 0.961 . S
H3185 C3177 0.960 . S
H3186 C3178 0.930 . S
H3187 C3179 0.929 . S
H3188 C3196 0.929 . S
H3189 C3198 0.930 . S
H3190 C3200 0.930 . S
H3191 C3203 0.929 . S
H3192 C3206 0.930 . S
H3193 C3208 0.960 . S
H3194 C3208 0.960 . S
H3195 C3208 0.960 . S
C3196 H3188 0.929 . S
C3196 C3197 1.377 . S
C3196 C3198 1.384 . S
C3197 C3196 1.377 . S
C3197 C3203 1.390 . S
C3198 H3189 0.930 . S
C3198 C3196 1.384 . S
C3198 C3199 1.372 . S
C3199 C3198 1.372 . S
C3199 C3200 1.400 . S
C3199 C3204 1.490 . S
C3200 H3190 0.930 . S
C3200 C3199 1.400 . S
C3200 C3203 1.386 . S
H3201 C3217 0.930 . S
H3202 C3218 0.931 . S
C3203 H3191 0.929 . S
C3203 C3197 1.390 . S
C3203 C3200 1.386 . S
C3204 C3199 1.490 . S
C3204 C3206 1.395 . S
C3204 C3207 1.403 . S
H3205 C3211 0.930 . S
C3206 H3192 0.930 . S
C3206 C3204 1.395 . S
C3206 C3209 1.403 . S
C3207 C3204 1.403 . S
C3207 C3208 1.524 . S
C3207 C3211 1.400 . S
C3208 H3193 0.960 . S
C3208 H3194 0.960 . S
C3208 H3195 0.960 . S
C3208 C3207 1.524 . S
C3209 C3206 1.403 . S
C3209 C3210 1.392 . S
C3209 C3213 1.495 . S
C3210 C3209 1.392 . S
C3210 C3211 1.385 . S
C3210 C3212 1.478 . S
C3211 H3205 0.930 . S
C3211 C3207 1.400 . S
C3211 C3210 1.385 . S
C3212 C3210 1.478 . S
C3212 C3214 1.381 . S
C3212 C3218 1.383 . S
C3213 C3209 1.495 . S
C3213 H3219 0.959 . S
C3213 H3220 0.961 . S
C3213 H3221 0.960 . S
C3214 C3212 1.381 . S
C3214 C3215 1.394 . S
C3214 H3222 0.930 . S
C3215 C3214 1.394 . S
C3215 C3216 1.383 . S
C3215 H3223 0.929 . S
C3216 C3215 1.383 . S
C3216 C3217 1.377 . S
C3217 H3201 0.930 . S
C3217 C3216 1.377 . S
C3217 C3218 1.379 . S
C3218 H3202 0.931 . S
C3218 C3212 1.383 . S
C3218 C3217 1.379 . S
H3219 C3213 0.959 . S
H3220 C3213 0.961 . S
H3221 C3213 0.960 . S
H3222 C3214 0.930 . S
H3223 C3215 0.929 . S
H3224 C3232 0.929 . S
H3225 C3234 0.930 . S
H3226 C3236 0.930 . S
H3227 C3239 0.929 . S
H3228 C3242 0.930 . S
H3229 C3244 0.960 . S
H3230 C3244 0.960 . S
H3231 C3244 0.960 . S
C3232 H3224 0.929 . S
C3232 C3233 1.377 . S
C3232 C3234 1.384 . S
C3233 C3232 1.377 . S
C3233 C3239 1.390 . S
C3234 H3225 0.930 . S
C3234 C3232 1.384 . S
C3234 C3235 1.372 . S
C3235 C3234 1.372 . S
C3235 C3236 1.400 . S
C3235 C3240 1.490 . S
C3236 H3226 0.930 . S
C3236 C3235 1.400 . S
C3236 C3239 1.386 . S
H3237 C3253 0.930 . S
H3238 C3254 0.931 . S
C3239 H3227 0.929 . S
C3239 C3233 1.390 . S
C3239 C3236 1.386 . S
C3240 C3235 1.490 . S
C3240 C3242 1.395 . S
C3240 C3243 1.403 . S
H3241 C3247 0.930 . S
C3242 H3228 0.930 . S
C3242 C3240 1.395 . S
C3242 C3245 1.403 . S
C3243 C3240 1.403 . S
C3243 C3244 1.524 . S
C3243 C3247 1.400 . S
C3244 H3229 0.960 . S
C3244 H3230 0.960 . S
C3244 H3231 0.960 . S
C3244 C3243 1.524 . S
C3245 C3242 1.403 . S
C3245 C3246 1.392 . S
C3245 C3249 1.495 . S
C3246 C3245 1.392 . S
C3246 C3247 1.385 . S
C3246 C3248 1.478 . S
C3247 H3241 0.930 . S
C3247 C3243 1.400 . S
C3247 C3246 1.385 . S
C3248 C3246 1.478 . S
C3248 C3250 1.381 . S
C3248 C3254 1.383 . S
C3249 C3245 1.495 . S
C3249 H3255 0.959 . S
C3249 H3256 0.961 . S
C3249 H3257 0.960 . S
C3250 C3248 1.381 . S
C3250 C3251 1.394 . S
C3250 H3258 0.930 . S
C3251 C3250 1.394 . S
C3251 C3252 1.383 . S
C3251 H3259 0.929 . S
C3252 C3251 1.383 . S
C3252 C3253 1.377 . S
C3253 H3237 0.930 . S
C3253 C3252 1.377 . S
C3253 C3254 1.379 . S
C3254 H3238 0.931 . S
C3254 C3248 1.383 . S
C3254 C3253 1.379 . S
H3255 C3249 0.959 . S
H3256 C3249 0.961 . S
H3257 C3249 0.960 . S
H3258 C3250 0.930 . S
H3259 C3251 0.929 . S
H3260 C3268 0.929 . S
H3261 C3270 0.930 . S
H3262 C3272 0.930 . S
H3263 C3275 0.929 . S
H3264 C3278 0.930 . S
H3265 C3280 0.960 . S
H3266 C3280 0.960 . S
H3267 C3280 0.960 . S
C3268 H3260 0.929 . S
C3268 C3269 1.377 . S
C3268 C3270 1.384 . S
C3269 C3268 1.377 . S
C3269 C3275 1.390 . S
C3270 H3261 0.930 . S
C3270 C3268 1.384 . S
C3270 C3271 1.372 . S
C3271 C3270 1.372 . S
C3271 C3272 1.400 . S
C3271 C3276 1.490 . S
C3272 H3262 0.930 . S
C3272 C3271 1.400 . S
C3272 C3275 1.386 . S
H3273 C3289 0.930 . S
H3274 C3290 0.931 . S
C3275 H3263 0.929 . S
C3275 C3269 1.390 . S
C3275 C3272 1.386 . S
C3276 C3271 1.490 . S
C3276 C3278 1.395 . S
C3276 C3279 1.403 . S
H3277 C3283 0.930 . S
C3278 H3264 0.930 . S
C3278 C3276 1.395 . S
C3278 C3281 1.403 . S
C3279 C3276 1.403 . S
C3279 C3280 1.524 . S
C3279 C3283 1.400 . S
C3280 H3265 0.960 . S
C3280 H3266 0.960 . S
C3280 H3267 0.960 . S
C3280 C3279 1.524 . S
C3281 C3278 1.403 . S
C3281 C3282 1.392 . S
C3281 C3285 1.495 . S
C3282 C3281 1.392 . S
C3282 C3283 1.385 . S
C3282 C3284 1.478 . S
C3283 H3277 0.930 . S
C3283 C3279 1.400 . S
C3283 C3282 1.385 . S
C3284 C3282 1.478 . S
C3284 C3286 1.381 . S
C3284 C3290 1.383 . S
C3285 C3281 1.495 . S
C3285 H3291 0.959 . S
C3285 H3292 0.961 . S
C3285 H3293 0.960 . S
C3286 C3284 1.381 . S
C3286 C3287 1.394 . S
C3286 H3294 0.930 . S
C3287 C3286 1.394 . S
C3287 C3288 1.383 . S
C3287 H3295 0.929 . S
C3288 C3287 1.383 . S
C3288 C3289 1.377 . S
C3289 H3273 0.930 . S
C3289 C3288 1.377 . S
C3289 C3290 1.379 . S
C3290 H3274 0.931 . S
C3290 C3284 1.383 . S
C3290 C3289 1.379 . S
H3291 C3285 0.959 . S
H3292 C3285 0.961 . S
H3293 C3285 0.960 . S
H3294 C3286 0.930 . S
H3295 C3287 0.929 . S
H3296 C3304 0.929 . S
H3297 C3306 0.930 . S
H3298 C3308 0.930 . S
H3299 C3311 0.929 . S
H3300 C3314 0.944 . S
H3301 C3316 0.960 . S
H3302 C3316 0.960 . S
H3303 C3316 0.960 . S
C3304 H3296 0.929 . S
C3304 C3305 1.377 . S
C3304 C3306 1.384 . S
C3305 C3304 1.377 . S
C3305 C3311 1.390 . S
C3306 H3297 0.930 . S
C3306 C3304 1.384 . S
C3306 C3307 1.372 . S
C3307 C3306 1.372 . S
C3307 C3308 1.400 . S
C3307 C3312 1.490 . S
C3308 H3298 0.930 . S
C3308 C3307 1.400 . S
C3308 C3311 1.386 . S
H3309 C3325 0.920 1_556 S
H3310 C3326 0.931 . S
C3311 H3299 0.929 . S
C3311 C3305 1.390 . S
C3311 C3308 1.386 . S
C3312 C3307 1.490 . S
C3312 C3314 1.395 . S
C3312 C3315 1.403 . S
H3313 C3319 0.930 . S
C3314 H3300 0.944 . S
C3314 C3312 1.395 . S
C3314 C3317 1.403 . S
C3315 C3312 1.403 . S
C3315 C3316 1.524 . S
C3315 C3319 1.400 . S
C3316 H3301 0.960 . S
C3316 H3302 0.960 . S
C3316 H3303 0.960 . S
C3316 C3315 1.524 . S
C3317 C3314 1.403 . S
C3317 C3318 1.392 . S
C3317 C3321 1.495 1_455 S
C3318 C3317 1.392 . S
C3318 C3319 1.385 . S
C3318 C3320 1.478 . S
C3319 H3313 0.930 . S
C3319 C3315 1.400 . S
C3319 C3318 1.385 . S
C3320 C3318 1.478 . S
C3320 C3322 1.381 . S
C3320 C3326 1.383 . S
C3321 C3317 1.495 1_655 S
C3321 H3327 0.959 . S
C3321 H3328 0.961 . S
C3321 H3329 0.960 1_655 S
C3322 C3320 1.381 . S
C3322 C3323 1.394 . S
C3322 H3330 0.930 . S
C3323 C3322 1.394 . S
C3323 C3324 1.383 . S
C3323 H3331 0.929 . S
C3324 C3323 1.383 . S
C3324 C3325 1.377 . S
C3325 H3309 0.920 1_554 S
C3325 C3324 1.377 . S
C3325 C3326 1.379 . S
C3326 H3310 0.931 . S
C3326 C3320 1.383 . S
C3326 C3325 1.379 . S
H3327 C3321 0.959 . S
H3328 C3321 0.961 . S
H3329 C3321 0.960 1_455 S
H3330 C3322 0.930 . S
H3331 C3323 0.929 . S
H3332 C3340 0.929 . S
H3333 C3342 0.930 . S
H3334 C3344 0.930 . S
H3335 C3347 0.929 . S
H3336 C3350 0.930 . S
H3337 C3352 0.960 . S
H3338 C3352 0.960 . S
H3339 C3352 0.960 . S
C3340 H3332 0.929 . S
C3340 C3341 1.377 . S
C3340 C3342 1.384 . S
C3341 C3340 1.377 . S
C3341 C3347 1.390 . S
C3342 H3333 0.930 . S
C3342 C3340 1.384 . S
C3342 C3343 1.372 . S
C3343 C3342 1.372 . S
C3343 C3344 1.400 . S
C3343 C3348 1.490 . S
C3344 H3334 0.930 . S
C3344 C3343 1.400 . S
C3344 C3347 1.386 . S
H3345 C3361 0.930 . S
H3346 C3362 0.931 . S
C3347 H3335 0.929 . S
C3347 C3341 1.390 . S
C3347 C3344 1.386 . S
C3348 C3343 1.490 . S
C3348 C3350 1.395 . S
C3348 C3351 1.403 . S
H3349 C3355 0.930 . S
C3350 H3336 0.930 . S
C3350 C3348 1.395 . S
C3350 C3353 1.403 . S
C3351 C3348 1.403 . S
C3351 C3352 1.524 . S
C3351 C3355 1.400 . S
C3352 H3337 0.960 . S
C3352 H3338 0.960 . S
C3352 H3339 0.960 . S
C3352 C3351 1.524 . S
C3353 C3350 1.403 . S
C3353 C3354 1.392 . S
C3353 C3357 1.495 . S
C3354 C3353 1.392 . S
C3354 C3355 1.385 . S
C3354 C3356 1.478 . S
C3355 H3349 0.930 . S
C3355 C3351 1.400 . S
C3355 C3354 1.385 . S
C3356 C3354 1.478 . S
C3356 C3358 1.381 . S
C3356 C3362 1.383 . S
C3357 C3353 1.495 . S
C3357 H3363 0.959 . S
C3357 H3364 0.961 . S
C3357 H3365 0.960 . S
C3358 C3356 1.381 . S
C3358 C3359 1.394 . S
C3358 H3366 0.930 . S
C3359 C3358 1.394 . S
C3359 C3360 1.383 . S
C3359 H3367 0.929 . S
C3360 C3359 1.383 . S
C3360 C3361 1.377 . S
C3361 H3345 0.930 . S
C3361 C3360 1.377 . S
C3361 C3362 1.379 . S
C3362 H3346 0.931 . S
C3362 C3356 1.383 . S
C3362 C3361 1.379 . S
H3363 C3357 0.959 . S
H3364 C3357 0.961 . S
H3365 C3357 0.960 . S
H3366 C3358 0.930 . S
H3367 C3359 0.929 . S
H3368 C3376 0.929 . S
H3369 C3378 0.930 . S
H3370 C3380 0.930 . S
H3371 C3383 0.929 . S
H3372 C3386 0.930 . S
H3373 C3388 0.960 . S
H3374 C3388 0.960 . S
H3375 C3388 0.960 . S
C3376 H3368 0.929 . S
C3376 C3377 1.377 . S
C3376 C3378 1.384 . S
C3377 C3376 1.377 . S
C3377 C3383 1.390 . S
C3378 H3369 0.930 . S
C3378 C3376 1.384 . S
C3378 C3379 1.372 . S
C3379 C3378 1.372 . S
C3379 C3380 1.400 . S
C3379 C3384 1.490 . S
C3380 H3370 0.930 . S
C3380 C3379 1.400 . S
C3380 C3383 1.386 . S
H3381 C3397 0.972 . S
H3382 C3398 0.931 . S
C3383 H3371 0.929 . S
C3383 C3377 1.390 . S
C3383 C3380 1.386 . S
C3384 C3379 1.490 . S
C3384 C3386 1.395 . S
C3384 C3387 1.403 . S
H3385 C3391 0.930 . S
C3386 H3372 0.930 . S
C3386 C3384 1.395 . S
C3386 C3389 1.403 . S
C3387 C3384 1.403 . S
C3387 C3388 1.524 . S
C3387 C3391 1.400 . S
C3388 H3373 0.960 . S
C3388 H3374 0.960 . S
C3388 H3375 0.960 . S
C3388 C3387 1.524 . S
C3389 C3386 1.403 . S
C3389 C3390 1.392 . S
C3389 C3393 1.495 . S
C3390 C3389 1.392 . S
C3390 C3391 1.385 . S
C3390 C3392 1.478 . S
C3391 H3385 0.930 . S
C3391 C3387 1.400 . S
C3391 C3390 1.385 . S
C3392 C3390 1.478 . S
C3392 C3394 1.381 . S
C3392 C3398 1.383 . S
C3393 C3389 1.495 . S
C3393 H3399 0.959 . S
C3393 H3400 0.961 . S
C3393 H3401 0.960 . S
C3394 C3392 1.381 . S
C3394 C3395 1.394 . S
C3394 H3402 0.930 . S
C3395 C3394 1.394 . S
C3395 C3396 1.383 . S
C3395 H3403 0.929 . S
C3396 C3395 1.383 . S
C3396 C3397 1.364 1_556 S
C3397 H3381 0.972 . S
C3397 C3396 1.364 1_554 S
C3397 C3398 1.352 1_554 S
C3398 H3382 0.931 . S
C3398 C3392 1.383 . S
C3398 C3397 1.352 1_556 S
H3399 C3393 0.959 . S
H3400 C3393 0.961 . S
H3401 C3393 0.960 . S
H3402 C3394 0.930 . S
H3403 C3395 0.929 . S
H3404 C3412 0.929 . S
H3405 C3414 0.930 . S
H3406 C3416 0.930 . S
H3407 C3419 0.929 . S
H3408 C3422 0.930 . S
H3409 C3424 0.960 . S
H3410 C3424 0.960 . S
H3411 C3424 0.960 . S
C3412 H3404 0.929 . S
C3412 C3413 1.377 . S
C3412 C3414 1.384 . S
C3413 C3412 1.377 . S
C3413 C3419 1.390 . S
C3414 H3405 0.930 . S
C3414 C3412 1.384 . S
C3414 C3415 1.372 . S
C3415 C3414 1.372 . S
C3415 C3416 1.400 . S
C3415 C3420 1.490 . S
C3416 H3406 0.930 . S
C3416 C3415 1.400 . S
C3416 C3419 1.386 . S
H3417 C3433 0.930 . S
H3418 C3434 0.931 . S
C3419 H3407 0.929 . S
C3419 C3413 1.390 . S
C3419 C3416 1.386 . S
C3420 C3415 1.490 . S
C3420 C3422 1.395 . S
C3420 C3423 1.403 . S
H3421 C3427 0.930 . S
C3422 H3408 0.930 . S
C3422 C3420 1.395 . S
C3422 C3425 1.403 . S
C3423 C3420 1.403 . S
C3423 C3424 1.524 . S
C3423 C3427 1.400 . S
C3424 H3409 0.960 . S
C3424 H3410 0.960 . S
C3424 H3411 0.960 . S
C3424 C3423 1.524 . S
C3425 C3422 1.403 . S
C3425 C3426 1.392 . S
C3425 C3429 1.495 . S
C3426 C3425 1.392 . S
C3426 C3427 1.385 . S
C3426 C3428 1.478 . S
C3427 H3421 0.930 . S
C3427 C3423 1.400 . S
C3427 C3426 1.385 . S
C3428 C3426 1.478 . S
C3428 C3430 1.381 . S
C3428 C3434 1.383 . S
C3429 C3425 1.495 . S
C3429 H3435 0.959 . S
C3429 H3436 0.961 . S
C3429 H3437 0.960 . S
C3430 C3428 1.381 . S
C3430 C3431 1.394 . S
C3430 H3438 0.930 . S
C3431 C3430 1.394 . S
C3431 C3432 1.383 . S
C3431 H3439 0.929 . S
C3432 C3431 1.383 . S
C3432 C3433 1.377 . S
C3433 H3417 0.930 . S
C3433 C3432 1.377 . S
C3433 C3434 1.379 . S
C3434 H3418 0.931 . S
C3434 C3428 1.383 . S
C3434 C3433 1.379 . S
H3435 C3429 0.959 . S
H3436 C3429 0.961 . S
H3437 C3429 0.960 . S
H3438 C3430 0.930 . S
H3439 C3431 0.929 . S
H3440 C3448 0.929 . S
H3441 C3450 0.930 . S
H3442 C3452 0.930 . S
H3443 C3455 0.929 . S
H3444 C3458 0.930 . S
H3445 C3460 0.960 . S
H3446 C3460 0.960 . S
H3447 C3460 0.960 1_455 S
C3448 H3440 0.929 . S
C3448 C3449 1.377 . S
C3448 C3450 1.384 . S
C3449 C3448 1.377 . S
C3449 C3455 1.390 . S
C3450 H3441 0.930 . S
C3450 C3448 1.384 . S
C3450 C3451 1.372 . S
C3451 C3450 1.372 . S
C3451 C3452 1.400 . S
C3451 C3456 1.490 . S
C3452 H3442 0.930 . S
C3452 C3451 1.400 . S
C3452 C3455 1.386 . S
H3453 C3469 0.930 . S
H3454 C3470 0.931 . S
C3455 H3443 0.929 . S
C3455 C3449 1.390 . S
C3455 C3452 1.386 . S
C3456 C3451 1.490 . S
C3456 C3458 1.395 . S
C3456 C3459 1.403 . S
H3457 C3463 0.930 . S
C3458 H3444 0.930 . S
C3458 C3456 1.395 . S
C3458 C3461 1.403 . S
C3459 C3456 1.403 . S
C3459 C3460 1.524 1_455 S
C3459 C3463 1.400 . S
C3460 H3445 0.960 . S
C3460 H3446 0.960 . S
C3460 H3447 0.960 1_655 S
C3460 C3459 1.524 1_655 S
C3461 C3458 1.403 . S
C3461 C3462 1.392 . S
C3461 C3465 1.495 . S
C3462 C3461 1.392 . S
C3462 C3463 1.385 . S
C3462 C3464 1.478 . S
C3463 H3457 0.930 . S
C3463 C3459 1.400 . S
C3463 C3462 1.385 . S
C3464 C3462 1.478 . S
C3464 C3466 1.381 . S
C3464 C3470 1.383 . S
C3465 C3461 1.495 . S
C3465 H3471 0.959 . S
C3465 H3472 0.961 . S
C3465 H3473 0.960 . S
C3466 C3464 1.381 . S
C3466 C3467 1.394 . S
C3466 H3474 0.930 . S
C3467 C3466 1.394 . S
C3467 C3468 1.383 . S
C3467 H3475 0.929 . S
C3468 C3467 1.383 . S
C3468 C3469 1.377 . S
C3469 H3453 0.930 . S
C3469 C3468 1.377 . S
C3469 C3470 1.379 . S
C3470 H3454 0.931 . S
C3470 C3464 1.383 . S
C3470 C3469 1.379 . S
H3471 C3465 0.959 . S
H3472 C3465 0.961 . S
H3473 C3465 0.960 . S
H3474 C3466 0.930 . S
H3475 C3467 0.929 . S
H3476 C3484 0.929 . S
H3477 C3486 0.930 . S
H3478 C3488 0.930 . S
H3479 C3491 0.929 . S
H3480 C3494 0.930 . S
H3481 C3496 0.960 . S
H3482 C3496 0.960 . S
H3483 C3496 0.960 . S
C3484 H3476 0.929 . S
C3484 C3485 1.377 . S
C3484 C3486 1.384 . S
C3485 C3484 1.377 . S
C3485 C3491 1.390 . S
C3486 H3477 0.930 . S
C3486 C3484 1.384 . S
C3486 C3487 1.372 . S
C3487 C3486 1.372 . S
C3487 C3488 1.400 . S
C3487 C3492 1.490 . S
C3488 H3478 0.930 . S
C3488 C3487 1.400 . S
C3488 C3491 1.386 . S
H3489 C3505 0.930 . S
H3490 C3506 0.931 . S
C3491 H3479 0.929 . S
C3491 C3485 1.390 . S
C3491 C3488 1.386 . S
C3492 C3487 1.490 . S
C3492 C3494 1.395 . S
C3492 C3495 1.403 . S
H3493 C3499 0.930 . S
C3494 H3480 0.930 . S
C3494 C3492 1.395 . S
C3494 C3497 1.403 . S
C3495 C3492 1.403 . S
C3495 C3496 1.524 . S
C3495 C3499 1.400 . S
C3496 H3481 0.960 . S
C3496 H3482 0.960 . S
C3496 H3483 0.960 . S
C3496 C3495 1.524 . S
C3497 C3494 1.403 . S
C3497 C3498 1.392 . S
C3497 C3501 1.495 . S
C3498 C3497 1.392 . S
C3498 C3499 1.385 . S
C3498 C3500 1.478 . S
C3499 H3493 0.930 . S
C3499 C3495 1.400 . S
C3499 C3498 1.385 . S
C3500 C3498 1.478 . S
C3500 C3502 1.381 . S
C3500 C3506 1.383 . S
C3501 C3497 1.495 . S
C3501 H3507 0.959 . S
C3501 H3508 0.961 . S
C3501 H3509 0.960 . S
C3502 C3500 1.381 . S
C3502 C3503 1.394 . S
C3502 H3510 0.930 . S
C3503 C3502 1.394 . S
C3503 C3504 1.383 . S
C3503 H3511 0.929 . S
C3504 C3503 1.383 . S
C3504 C3505 1.377 . S
C3505 H3489 0.930 . S
C3505 C3504 1.377 . S
C3505 C3506 1.379 . S
C3506 H3490 0.931 . S
C3506 C3500 1.383 . S
C3506 C3505 1.379 . S
H3507 C3501 0.959 . S
H3508 C3501 0.961 . S
H3509 C3501 0.960 . S
H3510 C3502 0.930 . S
H3511 C3503 0.929 . S
H3512 C3520 0.929 . S
H3513 C3522 0.930 . S
H3514 C3524 0.930 . S
H3515 C3527 0.929 . S
H3516 C3530 0.930 . S
H3517 C3532 0.960 . S
H3518 C3532 0.960 . S
H3519 C3532 0.960 . S
C3520 H3512 0.929 . S
C3520 C3521 1.377 . S
C3520 C3522 1.384 . S
C3521 C3520 1.377 . S
C3521 C3527 1.390 . S
C3522 H3513 0.930 . S
C3522 C3520 1.384 . S
C3522 C3523 1.372 . S
C3523 C3522 1.372 . S
C3523 C3524 1.400 . S
C3523 C3528 1.490 . S
C3524 H3514 0.930 . S
C3524 C3523 1.400 . S
C3524 C3527 1.386 . S
H3525 C3541 0.930 . S
H3526 C3542 0.931 . S
C3527 H3515 0.929 . S
C3527 C3521 1.390 . S
C3527 C3524 1.386 . S
C3528 C3523 1.490 . S
C3528 C3530 1.395 . S
C3528 C3531 1.403 . S
H3529 C3535 0.930 . S
C3530 H3516 0.930 . S
C3530 C3528 1.395 . S
C3530 C3533 1.403 . S
C3531 C3528 1.403 . S
C3531 C3532 1.524 . S
C3531 C3535 1.400 . S
C3532 H3517 0.960 . S
C3532 H3518 0.960 . S
C3532 H3519 0.960 . S
C3532 C3531 1.524 . S
C3533 C3530 1.403 . S
C3533 C3534 1.392 . S
C3533 C3537 1.495 . S
C3534 C3533 1.392 . S
C3534 C3535 1.385 . S
C3534 C3536 1.478 . S
C3535 H3529 0.930 . S
C3535 C3531 1.400 . S
C3535 C3534 1.385 . S
C3536 C3534 1.478 . S
C3536 C3538 1.381 . S
C3536 C3542 1.383 . S
C3537 C3533 1.495 . S
C3537 H3543 0.959 . S
C3537 H3544 0.961 . S
C3537 H3545 0.960 . S
C3538 C3536 1.381 . S
C3538 C3539 1.394 . S
C3538 H3546 0.930 . S
C3539 C3538 1.394 . S
C3539 C3540 1.383 . S
C3539 H3547 0.929 . S
C3540 C3539 1.383 . S
C3540 C3541 1.377 . S
C3541 H3525 0.930 . S
C3541 C3540 1.377 . S
C3541 C3542 1.379 . S
C3542 H3526 0.931 . S
C3542 C3536 1.383 . S
C3542 C3541 1.379 . S
H3543 C3537 0.959 . S
H3544 C3537 0.961 . S
H3545 C3537 0.960 . S
H3546 C3538 0.930 . S
H3547 C3539 0.929 . S
H3548 C3556 0.929 . S
H3549 C3558 0.930 . S
H3550 C3560 0.930 . S
H3551 C3563 0.929 . S
H3552 C3566 0.930 . S
H3553 C3568 0.960 . S
H3554 C3568 0.960 . S
H3555 C3568 0.960 . S
C3556 H3548 0.929 . S
C3556 C3557 1.377 . S
C3556 C3558 1.384 . S
C3557 C3556 1.377 . S
C3557 C3563 1.390 . S
C3558 H3549 0.930 . S
C3558 C3556 1.384 . S
C3558 C3559 1.372 . S
C3559 C3558 1.372 . S
C3559 C3560 1.400 . S
C3559 C3564 1.490 . S
C3560 H3550 0.930 . S
C3560 C3559 1.400 . S
C3560 C3563 1.386 . S
H3561 C3577 0.930 . S
H3562 C3578 0.931 . S
C3563 H3551 0.929 . S
C3563 C3557 1.390 . S
C3563 C3560 1.386 . S
C3564 C3559 1.490 . S
C3564 C3566 1.395 . S
C3564 C3567 1.403 . S
H3565 C3571 0.930 . S
C3566 H3552 0.930 . S
C3566 C3564 1.395 . S
C3566 C3569 1.403 . S
C3567 C3564 1.403 . S
C3567 C3568 1.524 . S
C3567 C3571 1.400 . S
C3568 H3553 0.960 . S
C3568 H3554 0.960 . S
C3568 H3555 0.960 . S
C3568 C3567 1.524 . S
C3569 C3566 1.403 . S
C3569 C3570 1.392 . S
C3569 C3573 1.495 . S
C3570 C3569 1.392 . S
C3570 C3571 1.385 . S
C3570 C3572 1.478 . S
C3571 H3565 0.930 . S
C3571 C3567 1.400 . S
C3571 C3570 1.385 . S
C3572 C3570 1.478 . S
C3572 C3574 1.381 . S
C3572 C3578 1.383 . S
C3573 C3569 1.495 . S
C3573 H3579 0.959 . S
C3573 H3580 0.961 . S
C3573 H3581 0.960 . S
C3574 C3572 1.381 . S
C3574 C3575 1.394 . S
C3574 H3582 0.930 . S
C3575 C3574 1.394 . S
C3575 C3576 1.383 . S
C3575 H3583 0.929 . S
C3576 C3575 1.383 . S
C3576 C3577 1.377 . S
C3577 H3561 0.930 . S
C3577 C3576 1.377 . S
C3577 C3578 1.379 . S
C3578 H3562 0.931 . S
C3578 C3572 1.383 . S
C3578 C3577 1.379 . S
H3579 C3573 0.959 . S
H3580 C3573 0.961 . S
H3581 C3573 0.960 . S
H3582 C3574 0.930 . S
H3583 C3575 0.929 . S
H3584 C3592 0.929 . S
H3585 C3594 0.930 . S
H3586 C3596 0.930 . S
H3587 C3599 0.929 . S
H3588 C3602 0.930 . S
H3589 C3604 0.960 . S
H3590 C3604 0.960 . S
H3591 C3604 0.960 . S
C3592 H3584 0.929 . S
C3592 C3593 1.377 . S
C3592 C3594 1.384 . S
C3593 C3592 1.377 . S
C3593 C3599 1.390 . S
C3594 H3585 0.930 . S
C3594 C3592 1.384 . S
C3594 C3595 1.372 . S
C3595 C3594 1.372 . S
C3595 C3596 1.400 . S
C3595 C3600 1.490 . S
C3596 H3586 0.930 . S
C3596 C3595 1.400 . S
C3596 C3599 1.386 . S
H3597 C3613 0.930 . S
H3598 C3614 0.931 . S
C3599 H3587 0.929 . S
C3599 C3593 1.390 . S
C3599 C3596 1.386 . S
C3600 C3595 1.490 . S
C3600 C3602 1.395 . S
C3600 C3603 1.403 . S
H3601 C3607 0.930 . S
C3602 H3588 0.930 . S
C3602 C3600 1.395 . S
C3602 C3605 1.403 . S
C3603 C3600 1.403 . S
C3603 C3604 1.524 . S
C3603 C3607 1.400 . S
C3604 H3589 0.960 . S
C3604 H3590 0.960 . S
C3604 H3591 0.960 . S
C3604 C3603 1.524 . S
C3605 C3602 1.403 . S
C3605 C3606 1.392 . S
C3605 C3609 1.495 . S
C3606 C3605 1.392 . S
C3606 C3607 1.385 . S
C3606 C3608 1.478 . S
C3607 H3601 0.930 . S
C3607 C3603 1.400 . S
C3607 C3606 1.385 . S
C3608 C3606 1.478 . S
C3608 C3610 1.381 . S
C3608 C3614 1.383 . S
C3609 C3605 1.495 . S
C3609 H3615 0.959 . S
C3609 H3616 0.961 . S
C3609 H3617 0.960 . S
C3610 C3608 1.381 . S
C3610 C3611 1.394 . S
C3610 H3618 0.930 . S
C3611 C3610 1.394 . S
C3611 C3612 1.383 . S
C3611 H3619 0.929 . S
C3612 C3611 1.383 . S
C3612 C3613 1.377 . S
C3613 H3597 0.930 . S
C3613 C3612 1.377 . S
C3613 C3614 1.379 . S
C3614 H3598 0.931 . S
C3614 C3608 1.383 . S
C3614 C3613 1.379 . S
H3615 C3609 0.959 . S
H3616 C3609 0.961 . S
H3617 C3609 0.960 . S
H3618 C3610 0.930 . S
H3619 C3611 0.929 . S
H3620 C3628 0.929 . S
H3621 C3630 0.930 . S
H3622 C3632 0.930 . S
H3623 C3635 0.929 . S
H3624 C3638 0.930 . S
H3625 C3640 0.960 . S
H3626 C3640 0.960 . S
H3627 C3640 0.960 . S
C3628 H3620 0.929 . S
C3628 C3629 1.377 . S
C3628 C3630 1.384 . S
C3629 C3628 1.377 . S
C3629 C3635 1.390 . S
C3630 H3621 0.930 . S
C3630 C3628 1.384 . S
C3630 C3631 1.372 . S
C3631 C3630 1.372 . S
C3631 C3632 1.400 . S
C3631 C3636 1.490 . S
C3632 H3622 0.930 . S
C3632 C3631 1.400 . S
C3632 C3635 1.386 . S
H3633 C3649 0.930 . S
H3634 C3650 0.931 . S
C3635 H3623 0.929 . S
C3635 C3629 1.390 . S
C3635 C3632 1.386 . S
C3636 C3631 1.490 . S
C3636 C3638 1.395 . S
C3636 C3639 1.403 . S
H3637 C3643 0.930 . S
C3638 H3624 0.930 . S
C3638 C3636 1.395 . S
C3638 C3641 1.403 . S
C3639 C3636 1.403 . S
C3639 C3640 1.524 . S
C3639 C3643 1.400 . S
C3640 H3625 0.960 . S
C3640 H3626 0.960 . S
C3640 H3627 0.960 . S
C3640 C3639 1.524 . S
C3641 C3638 1.403 . S
C3641 C3642 1.392 . S
C3641 C3645 1.495 . S
C3642 C3641 1.392 . S
C3642 C3643 1.385 . S
C3642 C3644 1.478 . S
C3643 H3637 0.930 . S
C3643 C3639 1.400 . S
C3643 C3642 1.385 . S
C3644 C3642 1.478 . S
C3644 C3646 1.381 . S
C3644 C3650 1.383 . S
C3645 C3641 1.495 . S
C3645 H3651 0.959 . S
C3645 H3652 0.961 . S
C3645 H3653 0.960 . S
C3646 C3644 1.381 . S
C3646 C3647 1.394 . S
C3646 H3654 0.930 . S
C3647 C3646 1.394 . S
C3647 C3648 1.383 . S
C3647 H3655 0.929 . S
C3648 C3647 1.383 . S
C3648 C3649 1.377 . S
C3649 H3633 0.930 . S
C3649 C3648 1.377 . S
C3649 C3650 1.379 . S
C3650 H3634 0.931 . S
C3650 C3644 1.383 . S
C3650 C3649 1.379 . S
H3651 C3645 0.959 . S
H3652 C3645 0.961 . S
H3653 C3645 0.960 . S
H3654 C3646 0.930 . S
H3655 C3647 0.929 . S
H3656 C3664 0.929 . S
H3657 C3666 0.930 . S
H3658 C3668 0.930 . S
H3659 C3671 0.929 . S
H3660 C3674 0.930 . S
H3661 C3676 0.960 . S
H3662 C3676 0.960 . S
H3663 C3676 0.960 . S
C3664 H3656 0.929 . S
C3664 C3665 1.377 . S
C3664 C3666 1.384 . S
C3665 C3664 1.377 . S
C3665 C3671 1.390 . S
C3666 H3657 0.930 . S
C3666 C3664 1.384 . S
C3666 C3667 1.372 . S
C3667 C3666 1.372 . S
C3667 C3668 1.400 . S
C3667 C3672 1.490 . S
C3668 H3658 0.930 . S
C3668 C3667 1.400 . S
C3668 C3671 1.386 . S
H3669 C3685 0.930 . S
H3670 C3686 0.931 . S
C3671 H3659 0.929 . S
C3671 C3665 1.390 . S
C3671 C3668 1.386 . S
C3672 C3667 1.490 . S
C3672 C3674 1.395 . S
C3672 C3675 1.403 . S
H3673 C3679 0.930 . S
C3674 H3660 0.930 . S
C3674 C3672 1.395 . S
C3674 C3677 1.403 . S
C3675 C3672 1.403 . S
C3675 C3676 1.524 . S
C3675 C3679 1.400 . S
C3676 H3661 0.960 . S
C3676 H3662 0.960 . S
C3676 H3663 0.960 . S
C3676 C3675 1.524 . S
C3677 C3674 1.403 . S
C3677 C3678 1.392 . S
C3677 C3681 1.495 . S
C3678 C3677 1.392 . S
C3678 C3679 1.385 . S
C3678 C3680 1.478 . S
C3679 H3673 0.930 . S
C3679 C3675 1.400 . S
C3679 C3678 1.385 . S
C3680 C3678 1.478 . S
C3680 C3682 1.381 . S
C3680 C3686 1.383 . S
C3681 C3677 1.495 . S
C3681 H3687 0.959 . S
C3681 H3688 0.961 . S
C3681 H3689 0.960 . S
C3682 C3680 1.381 . S
C3682 C3683 1.394 . S
C3682 H3690 0.930 . S
C3683 C3682 1.394 . S
C3683 C3684 1.383 . S
C3683 H3691 0.929 . S
C3684 C3683 1.383 . S
C3684 C3685 1.377 . S
C3685 H3669 0.930 . S
C3685 C3684 1.377 . S
C3685 C3686 1.379 . S
C3686 H3670 0.931 . S
C3686 C3680 1.383 . S
C3686 C3685 1.379 . S
H3687 C3681 0.959 . S
H3688 C3681 0.961 . S
H3689 C3681 0.960 . S
H3690 C3682 0.930 . S
H3691 C3683 0.929 . S
H3692 C3700 0.929 . S
H3693 C3702 0.930 . S
H3694 C3704 0.930 . S
H3695 C3707 0.929 . S
H3696 C3710 0.930 . S
H3697 C3712 0.960 . S
H3698 C3712 0.960 . S
H3699 C3712 0.960 . S
C3700 H3692 0.929 . S
C3700 C3701 1.377 . S
C3700 C3702 1.384 . S
C3701 C3700 1.377 . S
C3701 C3707 1.390 . S
C3702 H3693 0.930 . S
C3702 C3700 1.384 . S
C3702 C3703 1.372 . S
C3703 C3702 1.372 . S
C3703 C3704 1.400 . S
C3703 C3708 1.490 . S
C3704 H3694 0.930 . S
C3704 C3703 1.400 . S
C3704 C3707 1.386 . S
H3705 C3721 0.930 . S
H3706 C3722 0.931 . S
C3707 H3695 0.929 . S
C3707 C3701 1.390 . S
C3707 C3704 1.386 . S
C3708 C3703 1.490 . S
C3708 C3710 1.395 . S
C3708 C3711 1.403 . S
H3709 C3715 0.930 . S
C3710 H3696 0.930 . S
C3710 C3708 1.395 . S
C3710 C3713 1.403 . S
C3711 C3708 1.403 . S
C3711 C3712 1.524 . S
C3711 C3715 1.400 . S
C3712 H3697 0.960 . S
C3712 H3698 0.960 . S
C3712 H3699 0.960 . S
C3712 C3711 1.524 . S
C3713 C3710 1.403 . S
C3713 C3714 1.392 . S
C3713 C3717 1.495 . S
C3714 C3713 1.392 . S
C3714 C3715 1.385 . S
C3714 C3716 1.478 . S
C3715 H3709 0.930 . S
C3715 C3711 1.400 . S
C3715 C3714 1.385 . S
C3716 C3714 1.478 . S
C3716 C3718 1.381 . S
C3716 C3722 1.383 . S
C3717 C3713 1.495 . S
C3717 H3723 0.959 . S
C3717 H3724 0.961 . S
C3717 H3725 0.960 . S
C3718 C3716 1.381 . S
C3718 C3719 1.394 . S
C3718 H3726 0.930 . S
C3719 C3718 1.394 . S
C3719 C3720 1.383 . S
C3719 H3727 0.929 . S
C3720 C3719 1.383 . S
C3720 C3721 1.377 . S
C3721 H3705 0.930 . S
C3721 C3720 1.377 . S
C3721 C3722 1.379 . S
C3722 H3706 0.931 . S
C3722 C3716 1.383 . S
C3722 C3721 1.379 . S
H3723 C3717 0.959 . S
H3724 C3717 0.961 . S
H3725 C3717 0.960 . S
H3726 C3718 0.930 . S
H3727 C3719 0.929 . S
H3728 C3736 0.929 . S
H3729 C3738 0.930 . S
H3730 C3740 0.930 . S
H3731 C3743 0.929 . S
H3732 C3746 0.930 . S
H3733 C3748 0.960 . S
H3734 C3748 0.960 . S
H3735 C3748 0.960 . S
C3736 H3728 0.929 . S
C3736 C3737 1.377 . S
C3736 C3738 1.384 . S
C3737 C3736 1.377 . S
C3737 C3743 1.390 . S
C3738 H3729 0.930 . S
C3738 C3736 1.384 . S
C3738 C3739 1.372 . S
C3739 C3738 1.372 . S
C3739 C3740 1.400 . S
C3739 C3744 1.490 . S
C3740 H3730 0.930 . S
C3740 C3739 1.400 . S
C3740 C3743 1.386 . S
H3741 C3757 0.930 . S
H3742 C3758 0.931 . S
C3743 H3731 0.929 . S
C3743 C3737 1.390 . S
C3743 C3740 1.386 . S
C3744 C3739 1.490 . S
C3744 C3746 1.395 . S
C3744 C3747 1.403 . S
H3745 C3751 0.930 . S
C3746 H3732 0.930 . S
C3746 C3744 1.395 . S
C3746 C3749 1.403 . S
C3747 C3744 1.403 . S
C3747 C3748 1.524 . S
C3747 C3751 1.400 . S
C3748 H3733 0.960 . S
C3748 H3734 0.960 . S
C3748 H3735 0.960 . S
C3748 C3747 1.524 . S
C3749 C3746 1.403 . S
C3749 C3750 1.392 . S
C3749 C3753 1.495 . S
C3750 C3749 1.392 . S
C3750 C3751 1.385 . S
C3750 C3752 1.478 . S
C3751 H3745 0.930 . S
C3751 C3747 1.400 . S
C3751 C3750 1.385 . S
C3752 C3750 1.478 . S
C3752 C3754 1.381 . S
C3752 C3758 1.383 . S
C3753 C3749 1.495 . S
C3753 H3759 0.959 . S
C3753 H3760 0.961 . S
C3753 H3761 0.960 . S
C3754 C3752 1.381 . S
C3754 C3755 1.394 . S
C3754 H3762 0.930 . S
C3755 C3754 1.394 . S
C3755 C3756 1.383 . S
C3755 H3763 0.929 . S
C3756 C3755 1.383 . S
C3756 C3757 1.377 . S
C3757 H3741 0.930 . S
C3757 C3756 1.377 . S
C3757 C3758 1.379 . S
C3758 H3742 0.931 . S
C3758 C3752 1.383 . S
C3758 C3757 1.379 . S
H3759 C3753 0.959 . S
H3760 C3753 0.961 . S
H3761 C3753 0.960 . S
H3762 C3754 0.930 . S
H3763 C3755 0.929 . S
H3764 C3772 0.929 . S
H3765 C3774 0.930 . S
H3766 C3776 0.930 . S
H3767 C3779 0.929 . S
H3768 C3782 0.930 . S
H3769 C3784 0.960 . S
H3770 C3784 0.960 . S
H3771 C3784 0.960 . S
C3772 H3764 0.929 . S
C3772 C3773 1.377 . S
C3772 C3774 1.384 . S
C3773 C3772 1.377 . S
C3773 C3779 1.390 . S
C3774 H3765 0.930 . S
C3774 C3772 1.384 . S
C3774 C3775 1.372 . S
C3775 C3774 1.372 . S
C3775 C3776 1.400 . S
C3775 C3780 1.490 . S
C3776 H3766 0.930 . S
C3776 C3775 1.400 . S
C3776 C3779 1.386 . S
H3777 C3793 0.930 . S
H3778 C3794 0.931 . S
C3779 H3767 0.929 . S
C3779 C3773 1.390 . S
C3779 C3776 1.386 . S
C3780 C3775 1.490 . S
C3780 C3782 1.395 . S
C3780 C3783 1.403 . S
H3781 C3787 0.930 . S
C3782 H3768 0.930 . S
C3782 C3780 1.395 . S
C3782 C3785 1.403 . S
C3783 C3780 1.403 . S
C3783 C3784 1.524 . S
C3783 C3787 1.400 . S
C3784 H3769 0.960 . S
C3784 H3770 0.960 . S
C3784 H3771 0.960 . S
C3784 C3783 1.524 . S
C3785 C3782 1.403 . S
C3785 C3786 1.392 . S
C3785 C3789 1.495 . S
C3786 C3785 1.392 . S
C3786 C3787 1.385 . S
C3786 C3788 1.478 . S
C3787 H3781 0.930 . S
C3787 C3783 1.400 . S
C3787 C3786 1.385 . S
C3788 C3786 1.478 . S
C3788 C3790 1.381 . S
C3788 C3794 1.383 . S
C3789 C3785 1.495 . S
C3789 H3795 0.959 . S
C3789 H3796 0.961 . S
C3789 H3797 0.960 . S
C3790 C3788 1.381 . S
C3790 C3791 1.394 . S
C3790 H3798 0.930 . S
C3791 C3790 1.394 . S
C3791 C3792 1.383 . S
C3791 H3799 0.929 . S
C3792 C3791 1.383 . S
C3792 C3793 1.377 . S
C3793 H3777 0.930 . S
C3793 C3792 1.377 . S
C3793 C3794 1.379 . S
C3794 H3778 0.931 . S
C3794 C3788 1.383 . S
C3794 C3793 1.379 . S
H3795 C3789 0.959 . S
H3796 C3789 0.961 . S
H3797 C3789 0.960 . S
H3798 C3790 0.930 . S
H3799 C3791 0.929 . S
H3800 C3808 0.929 . S
H3801 C3810 0.930 . S
H3802 C3812 0.930 . S
H3803 C3815 0.929 . S
H3804 C3818 0.930 . S
H3805 C3820 0.960 . S
H3806 C3820 0.960 . S
H3807 C3820 0.960 . S
C3808 H3800 0.929 . S
C3808 C3809 1.377 . S
C3808 C3810 1.384 . S
C3809 C3808 1.377 . S
C3809 C3815 1.390 . S
C3810 H3801 0.930 . S
C3810 C3808 1.384 . S
C3810 C3811 1.372 . S
C3811 C3810 1.372 . S
C3811 C3812 1.400 . S
C3811 C3816 1.490 . S
C3812 H3802 0.930 . S
C3812 C3811 1.400 . S
C3812 C3815 1.386 . S
H3813 C3829 0.930 . S
H3814 C3830 0.931 . S
C3815 H3803 0.929 . S
C3815 C3809 1.390 . S
C3815 C3812 1.386 . S
C3816 C3811 1.490 . S
C3816 C3818 1.395 . S
C3816 C3819 1.403 . S
H3817 C3823 0.930 . S
C3818 H3804 0.930 . S
C3818 C3816 1.395 . S
C3818 C3821 1.403 . S
C3819 C3816 1.403 . S
C3819 C3820 1.524 . S
C3819 C3823 1.400 . S
C3820 H3805 0.960 . S
C3820 H3806 0.960 . S
C3820 H3807 0.960 . S
C3820 C3819 1.524 . S
C3821 C3818 1.403 . S
C3821 C3822 1.392 . S
C3821 C3825 1.495 . S
C3822 C3821 1.392 . S
C3822 C3823 1.385 . S
C3822 C3824 1.478 . S
C3823 H3817 0.930 . S
C3823 C3819 1.400 . S
C3823 C3822 1.385 . S
C3824 C3822 1.478 . S
C3824 C3826 1.381 . S
C3824 C3830 1.383 . S
C3825 C3821 1.495 . S
C3825 H3831 0.959 . S
C3825 H3832 0.961 . S
C3825 H3833 0.960 . S
C3826 C3824 1.381 . S
C3826 C3827 1.394 . S
C3826 H3834 0.930 . S
C3827 C3826 1.394 . S
C3827 C3828 1.383 . S
C3827 H3835 0.929 . S
C3828 C3827 1.383 . S
C3828 C3829 1.377 . S
C3829 H3813 0.930 . S
C3829 C3828 1.377 . S
C3829 C3830 1.379 . S
C3830 H3814 0.931 . S
C3830 C3824 1.383 . S
C3830 C3829 1.379 . S
H3831 C3825 0.959 . S
H3832 C3825 0.961 . S
H3833 C3825 0.960 . S
H3834 C3826 0.930 . S
H3835 C3827 0.929 . S
H3836 C3844 0.929 . S
H3837 C3846 0.930 . S
H3838 C3848 0.930 . S
H3839 C3851 0.929 . S
H3840 C3854 0.930 . S
H3841 C3856 0.960 . S
H3842 C3856 0.960 . S
H3843 C3856 0.960 . S
C3844 H3836 0.929 . S
C3844 C3845 1.377 . S
C3844 C3846 1.384 . S
C3845 C3844 1.377 . S
C3845 C3851 1.390 . S
C3846 H3837 0.930 . S
C3846 C3844 1.384 . S
C3846 C3847 1.372 . S
C3847 C3846 1.372 . S
C3847 C3848 1.400 . S
C3847 C3852 1.490 . S
C3848 H3838 0.930 . S
C3848 C3847 1.400 . S
C3848 C3851 1.386 . S
H3849 C3865 0.930 . S
H3850 C3866 0.931 . S
C3851 H3839 0.929 . S
C3851 C3845 1.390 . S
C3851 C3848 1.386 . S
C3852 C3847 1.490 . S
C3852 C3854 1.395 . S
C3852 C3855 1.403 . S
H3853 C3859 0.930 . S
C3854 H3840 0.930 . S
C3854 C3852 1.395 . S
C3854 C3857 1.403 . S
C3855 C3852 1.403 . S
C3855 C3856 1.524 . S
C3855 C3859 1.400 . S
C3856 H3841 0.960 . S
C3856 H3842 0.960 . S
C3856 H3843 0.960 . S
C3856 C3855 1.524 . S
C3857 C3854 1.403 . S
C3857 C3858 1.392 . S
C3857 C3861 1.495 . S
C3858 C3857 1.392 . S
C3858 C3859 1.385 . S
C3858 C3860 1.478 . S
C3859 H3853 0.930 . S
C3859 C3855 1.400 . S
C3859 C3858 1.385 . S
C3860 C3858 1.478 . S
C3860 C3862 1.381 . S
C3860 C3866 1.383 . S
C3861 C3857 1.495 . S
C3861 H3867 0.959 . S
C3861 H3868 0.961 . S
C3861 H3869 0.960 . S
C3862 C3860 1.381 . S
C3862 C3863 1.394 . S
C3862 H3870 0.930 . S
C3863 C3862 1.394 . S
C3863 C3864 1.383 1_565 S
C3863 H3871 0.929 . S
C3864 C3863 1.383 1_545 S
C3864 C3865 1.377 . S
C3865 H3849 0.930 . S
C3865 C3864 1.377 . S
C3865 C3866 1.379 1_545 S
C3866 H3850 0.931 . S
C3866 C3860 1.383 . S
C3866 C3865 1.379 1_565 S
H3867 C3861 0.959 . S
H3868 C3861 0.961 . S
H3869 C3861 0.960 . S
H3870 C3862 0.930 . S
H3871 C3863 0.929 . S
H3872 C3880 0.929 . S
H3873 C3882 0.930 . S
H3874 C3884 0.930 . S
H3875 C3887 0.929 . S
H3876 C3890 0.930 . S
H3877 C3892 0.960 . S
H3878 C3892 0.960 . S
H3879 C3892 0.960 . S
C3880 H3872 0.929 . S
C3880 C3881 1.377 . S
C3880 C3882 1.384 . S
C3881 C3880 1.377 . S
C3881 C3887 1.390 . S
C3882 H3873 0.930 . S
C3882 C3880 1.384 . S
C3882 C3883 1.372 . S
C3883 C3882 1.372 . S
C3883 C3884 1.400 . S
C3883 C3888 1.490 . S
C3884 H3874 0.930 . S
C3884 C3883 1.400 . S
C3884 C3887 1.386 . S
H3885 C3901 0.930 . S
H3886 C3902 0.931 . S
C3887 H3875 0.929 . S
C3887 C3881 1.390 . S
C3887 C3884 1.386 . S
C3888 C3883 1.490 . S
C3888 C3890 1.395 . S
C3888 C3891 1.403 . S
H3889 C3895 0.930 . S
C3890 H3876 0.930 . S
C3890 C3888 1.395 . S
C3890 C3893 1.403 . S
C3891 C3888 1.403 . S
C3891 C3892 1.524 . S
C3891 C3895 1.400 . S
C3892 H3877 0.960 . S
C3892 H3878 0.960 . S
C3892 H3879 0.960 . S
C3892 C3891 1.524 . S
C3893 C3890 1.403 . S
C3893 C3894 1.392 . S
C3893 C3897 1.495 . S
C3894 C3893 1.392 . S
C3894 C3895 1.385 . S
C3894 C3896 1.478 . S
C3895 H3889 0.930 . S
C3895 C3891 1.400 . S
C3895 C3894 1.385 . S
C3896 C3894 1.478 . S
C3896 C3898 1.381 . S
C3896 C3902 1.383 . S
C3897 C3893 1.495 . S
C3897 H3903 0.959 . S
C3897 H3904 0.961 . S
C3897 H3905 0.960 . S
C3898 C3896 1.381 . S
C3898 C3899 1.394 . S
C3898 H3906 0.930 . S
C3899 C3898 1.394 . S
C3899 C3900 1.383 . S
C3899 H3907 0.929 . S
C3900 C3899 1.383 . S
C3900 C3901 1.377 . S
C3901 H3885 0.930 . S
C3901 C3900 1.377 . S
C3901 C3902 1.379 . S
C3902 H3886 0.931 . S
C3902 C3896 1.383 . S
C3902 C3901 1.379 . S
H3903 C3897 0.959 . S
H3904 C3897 0.961 . S
H3905 C3897 0.960 . S
H3906 C3898 0.930 . S
H3907 C3899 0.929 . S
H3908 C3916 0.929 . S
H3909 C3918 0.930 . S
H3910 C3920 0.930 . S
H3911 C3923 0.929 . S
H3912 C3926 0.930 . S
H3913 C3928 0.960 . S
H3914 C3928 0.960 . S
H3915 C3928 0.960 . S
C3916 H3908 0.929 . S
C3916 C3917 1.377 . S
C3916 C3918 1.384 . S
C3917 C3916 1.377 . S
C3917 C3923 1.390 1_556 S
C3918 H3909 0.930 . S
C3918 C3916 1.384 . S
C3918 C3919 1.372 1_556 S
C3919 C3918 1.372 1_554 S
C3919 C3920 1.400 . S
C3919 C3924 1.490 . S
C3920 H3910 0.930 . S
C3920 C3919 1.400 . S
C3920 C3923 1.386 . S
H3921 C3937 0.930 . S
H3922 C3938 0.931 . S
C3923 H3911 0.929 . S
C3923 C3917 1.390 1_554 S
C3923 C3920 1.386 . S
C3924 C3919 1.490 . S
C3924 C3926 1.395 . S
C3924 C3927 1.403 1_554 S
H3925 C3931 0.930 1_556 S
C3926 H3912 0.930 . S
C3926 C3924 1.395 . S
C3926 C3929 1.403 . S
C3927 C3924 1.403 1_556 S
C3927 C3928 1.524 . S
C3927 C3931 1.400 1_556 S
C3928 H3913 0.960 . S
C3928 H3914 0.960 . S
C3928 H3915 0.960 . S
C3928 C3927 1.524 . S
C3929 C3926 1.403 . S
C3929 C3930 1.392 . S
C3929 C3933 1.495 . S
C3930 C3929 1.392 . S
C3930 C3931 1.385 . S
C3930 C3932 1.478 . S
C3931 H3925 0.930 1_554 S
C3931 C3927 1.400 1_554 S
C3931 C3930 1.385 . S
C3932 C3930 1.478 . S
C3932 C3934 1.367 1_554 S
C3932 C3938 1.383 . S
C3933 C3929 1.495 . S
C3933 H3939 0.959 . S
C3933 H3940 0.961 . S
C3933 H3941 0.960 . S
C3934 C3932 1.367 1_556 S
C3934 C3935 1.385 1_556 S
C3934 H3942 0.949 . S
C3935 C3934 1.385 1_554 S
C3935 C3936 1.415 . S
C3935 H3943 0.907 1_554 S
C3936 C3935 1.415 . S
C3936 C3937 1.377 . S
C3937 H3921 0.930 . S
C3937 C3936 1.377 . S
C3937 C3938 1.379 . S
C3938 H3922 0.931 . S
C3938 C3932 1.383 . S
C3938 C3937 1.379 . S
H3939 C3933 0.959 . S
H3940 C3933 0.961 . S
H3941 C3933 0.960 . S
H3942 C3934 0.949 . S
H3943 C3935 0.907 1_556 S
H3944 C3952 0.929 . S
H3945 C3954 0.930 . S
H3946 C3956 0.930 . S
H3947 C3959 0.929 . S
H3948 C3962 0.930 . S
H3949 C3964 0.960 . S
H3950 C3964 0.960 . S
H3951 C3964 0.960 . S
C3952 H3944 0.929 . S
C3952 C3953 1.377 . S
C3952 C3954 1.384 . S
C3953 C3952 1.377 . S
C3953 C3959 1.390 . S
C3954 H3945 0.930 . S
C3954 C3952 1.384 . S
C3954 C3955 1.372 . S
C3955 C3954 1.372 . S
C3955 C3956 1.400 . S
C3955 C3960 1.490 . S
C3956 H3946 0.930 . S
C3956 C3955 1.400 . S
C3956 C3959 1.386 . S
H3957 C3973 0.930 . S
H3958 C3974 0.931 . S
C3959 H3947 0.929 . S
C3959 C3953 1.390 . S
C3959 C3956 1.386 . S
C3960 C3955 1.490 . S
C3960 C3962 1.395 . S
C3960 C3963 1.403 . S
H3961 C3967 0.930 . S
C3962 H3948 0.930 . S
C3962 C3960 1.395 . S
C3962 C3965 1.403 . S
C3963 C3960 1.403 . S
C3963 C3964 1.524 . S
C3963 C3967 1.400 . S
C3964 H3949 0.960 . S
C3964 H3950 0.960 . S
C3964 H3951 0.960 . S
C3964 C3963 1.524 . S
C3965 C3962 1.403 . S
C3965 C3966 1.392 . S
C3965 C3969 1.495 . S
C3966 C3965 1.392 . S
C3966 C3967 1.385 . S
C3966 C3968 1.478 . S
C3967 H3961 0.930 . S
C3967 C3963 1.400 . S
C3967 C3966 1.385 . S
C3968 C3966 1.478 . S
C3968 C3970 1.381 . S
C3968 C3974 1.383 . S
C3969 C3965 1.495 . S
C3969 H3975 0.959 . S
C3969 H3976 0.961 . S
C3969 H3977 0.960 . S
C3970 C3968 1.381 . S
C3970 C3971 1.394 . S
C3970 H3978 0.930 . S
C3971 C3970 1.394 . S
C3971 C3972 1.383 . S
C3971 H3979 0.929 . S
C3972 C3971 1.383 . S
C3972 C3973 1.377 . S
C3973 H3957 0.930 . S
C3973 C3972 1.377 . S
C3973 C3974 1.379 . S
C3974 H3958 0.931 . S
C3974 C3968 1.383 . S
C3974 C3973 1.379 . S
H3975 C3969 0.959 . S
H3976 C3969 0.961 . S
H3977 C3969 0.960 . S
H3978 C3970 0.930 . S
H3979 C3971 0.929 . S
H3980 C3988 0.929 . S
H3981 C3990 0.930 1_556 S
H3982 C3992 0.930 . S
H3983 C3995 0.929 . S
H3984 C3998 0.930 . S
H3985 C4000 0.960 . S
H3986 C4000 0.960 . S
H3987 C4000 0.960 . S
C3988 H3980 0.929 . S
C3988 C3989 1.377 . S
C3988 C3990 1.384 . S
C3989 C3988 1.377 . S
C3989 C3995 1.390 . S
C3990 H3981 0.930 1_554 S
C3990 C3988 1.384 . S
C3990 C3991 1.372 . S
C3991 C3990 1.372 . S
C3991 C3992 1.400 . S
C3991 C3996 1.490 . S
C3992 H3982 0.930 . S
C3992 C3991 1.400 . S
C3992 C3995 1.386 . S
H3993 C4009 0.934 . S
H3994 C4010 0.931 1_554 S
C3995 H3983 0.929 . S
C3995 C3989 1.390 . S
C3995 C3992 1.386 . S
C3996 C3991 1.490 . S
C3996 C3998 1.395 1_554 S
C3996 C3999 1.403 . S
H3997 C4003 0.930 . S
C3998 H3984 0.930 . S
C3998 C3996 1.395 1_556 S
C3998 C4001 1.403 . S
C3999 C3996 1.403 . S
C3999 C4000 1.524 . S
C3999 C4003 1.400 . S
C4000 H3985 0.960 . S
C4000 H3986 0.960 . S
C4000 H3987 0.960 . S
C4000 C3999 1.524 . S
C4001 C3998 1.403 . S
C4001 C4002 1.392 . S
C4001 C4005 1.495 . S
C4002 C4001 1.392 . S
C4002 C4003 1.385 1_556 S
C4002 C4004 1.478 . S
C4003 H3997 0.930 . S
C4003 C3999 1.400 . S
C4003 C4002 1.385 1_554 S
C4004 C4002 1.478 . S
C4004 C4006 1.381 . S
C4004 C4010 1.383 . S
C4005 C4001 1.495 . S
C4005 H4011 0.959 . S
C4005 H4012 0.961 . S
C4005 H4013 0.960 . S
C4006 C4004 1.381 . S
C4006 C4007 1.394 . S
C4006 H4014 0.930 . S
C4007 C4006 1.394 . S
C4007 C4008 1.383 . S
C4007 H4015 0.929 . S
C4008 C4007 1.383 . S
C4008 C4009 1.377 . S
C4009 H3993 0.934 . S
C4009 C4008 1.377 . S
C4009 C4010 1.379 . S
C4010 H3994 0.931 1_556 S
C4010 C4004 1.383 . S
C4010 C4009 1.379 . S
H4011 C4005 0.959 . S
H4012 C4005 0.961 . S
H4013 C4005 0.960 . S
H4014 C4006 0.930 . S
H4015 C4007 0.929 . S
H4016 C4024 0.929 . S
H4017 C4026 0.930 . S
H4018 C4028 0.930 . S
H4019 C4031 0.929 . S
H4020 C4034 0.930 . S
H4021 C4036 0.960 . S
H4022 C4036 0.960 . S
H4023 C4036 0.960 . S
C4024 H4016 0.929 . S
C4024 C4025 1.377 . S
C4024 C4026 1.384 . S
C4025 C4024 1.377 . S
C4025 C4031 1.390 . S
C4026 H4017 0.930 . S
C4026 C4024 1.384 . S
C4026 C4027 1.372 . S
C4027 C4026 1.372 . S
C4027 C4028 1.400 . S
C4027 C4032 1.490 . S
C4028 H4018 0.930 . S
C4028 C4027 1.400 . S
C4028 C4031 1.386 . S
H4029 C4045 0.930 . S
H4030 C4046 0.931 . S
C4031 H4019 0.929 . S
C4031 C4025 1.390 . S
C4031 C4028 1.386 . S
C4032 C4027 1.490 . S
C4032 C4034 1.395 . S
C4032 C4035 1.403 . S
H4033 C4039 0.930 . S
C4034 H4020 0.930 . S
C4034 C4032 1.395 . S
C4034 C4037 1.403 . S
C4035 C4032 1.403 . S
C4035 C4036 1.524 . S
C4035 C4039 1.400 . S
C4036 H4021 0.960 . S
C4036 H4022 0.960 . S
C4036 H4023 0.960 . S
C4036 C4035 1.524 . S
C4037 C4034 1.403 . S
C4037 C4038 1.392 . S
C4037 C4041 1.495 . S
C4038 C4037 1.392 . S
C4038 C4039 1.385 . S
C4038 C4040 1.478 . S
C4039 H4033 0.930 . S
C4039 C4035 1.400 . S
C4039 C4038 1.385 . S
C4040 C4038 1.478 . S
C4040 C4042 1.381 . S
C4040 C4046 1.383 . S
C4041 C4037 1.495 . S
C4041 H4047 0.959 . S
C4041 H4048 0.961 . S
C4041 H4049 0.960 . S
C4042 C4040 1.381 . S
C4042 C4043 1.394 . S
C4042 H4050 0.930 . S
C4043 C4042 1.394 . S
C4043 C4044 1.383 . S
C4043 H4051 0.929 . S
C4044 C4043 1.383 . S
C4044 C4045 1.377 . S
C4045 H4029 0.930 . S
C4045 C4044 1.377 . S
C4045 C4046 1.379 . S
C4046 H4030 0.931 . S
C4046 C4040 1.383 . S
C4046 C4045 1.379 . S
H4047 C4041 0.959 . S
H4048 C4041 0.961 . S
H4049 C4041 0.960 . S
H4050 C4042 0.930 . S
H4051 C4043 0.929 . S
H4052 C4060 0.929 . S
H4053 C4062 0.930 . S
H4054 C4064 0.930 . S
H4055 C4067 0.929 . S
H4056 C4070 0.930 . S
H4057 C4072 0.960 . S
H4058 C4072 0.960 . S
H4059 C4072 0.960 . S
C4060 H4052 0.929 . S
C4060 C4061 1.377 . S
C4060 C4062 1.384 . S
C4061 C4060 1.377 . S
C4061 C4067 1.390 . S
C4062 H4053 0.930 . S
C4062 C4060 1.384 . S
C4062 C4063 1.372 . S
C4063 C4062 1.372 . S
C4063 C4064 1.400 . S
C4063 C4068 1.490 . S
C4064 H4054 0.930 . S
C4064 C4063 1.400 . S
C4064 C4067 1.386 . S
H4065 C4081 0.930 . S
H4066 C4082 0.931 . S
C4067 H4055 0.929 . S
C4067 C4061 1.390 . S
C4067 C4064 1.386 . S
C4068 C4063 1.490 . S
C4068 C4070 1.395 . S
C4068 C4071 1.403 . S
H4069 C4075 0.930 . S
C4070 H4056 0.930 . S
C4070 C4068 1.395 . S
C4070 C4073 1.403 . S
C4071 C4068 1.403 . S
C4071 C4072 1.524 . S
C4071 C4075 1.400 . S
C4072 H4057 0.960 . S
C4072 H4058 0.960 . S
C4072 H4059 0.960 . S
C4072 C4071 1.524 . S
C4073 C4070 1.403 . S
C4073 C4074 1.392 . S
C4073 C4077 1.495 . S
C4074 C4073 1.392 . S
C4074 C4075 1.385 . S
C4074 C4076 1.478 . S
C4075 H4069 0.930 . S
C4075 C4071 1.400 . S
C4075 C4074 1.385 . S
C4076 C4074 1.478 . S
C4076 C4078 1.381 . S
C4076 C4082 1.383 . S
C4077 C4073 1.495 . S
C4077 H4083 0.959 . S
C4077 H4084 0.961 . S
C4077 H4085 0.960 . S
C4078 C4076 1.381 . S
C4078 C4079 1.394 . S
C4078 H4086 0.930 . S
C4079 C4078 1.394 . S
C4079 C4080 1.383 . S
C4079 H4087 0.929 . S
C4080 C4079 1.383 . S
C4080 C4081 1.377 . S
C4081 H4065 0.930 . S
C4081 C4080 1.377 . S
C4081 C4082 1.379 . S
C4082 H4066 0.931 . S
C4082 C4076 1.383 . S
C4082 C4081 1.379 . S
H4083 C4077 0.959 . S
H4084 C4077 0.961 . S
H4085 C4077 0.960 . S
H4086 C4078 0.930 . S
H4087 C4079 0.929 . S
C641 C101 1.549 . S
C660 C330 1.501 1_556 S
C677 C57 1.544 . S
C696 C341 1.557 . S
C713 C73 0.893 . S
C732 C370 0.859 . S
C768 C373 1.384 . S
C749 C78 1.373 . S
C785 C21 1.626 . S
C804 C411 1.591 . S
C840 C414 0.789 . S
C821 C31 0.797 . S
C876 C441 1.422 . S
C857 C49 1.444 . S
C893 C0 1.538 . S
C912 C470 1.563 . S
C948 C321 1.469 1_655 S
C929 C218 1.480 . S
C965 C229 0.688 . S
C984 C333 0.670 . S
C1020 C361 1.583 . S
C1001 C257 1.606 . S
C1056 C390 0.928 . S
C1037 C164 0.938 . S
C1073 C216 0.802 . S
C1092 C394 0.823 . S
C1128 C420 1.602 . S
C1109 C231 1.645 . S
C1164 C433 0.607 . S
C1145 C255 0.624 . S
C1200 C461 1.536 . S
C1181 C166 1.541 . S
C1236 C313 1.459 1_565 S
C1217 C143 1.448 . S
C1253 C265 1.727 . S
C1272 C480 1.750 . S
C1308 C511 1.353 . S
C1289 C299 1.386 . S
C1344 C530 0.864 . S
C1325 C291 0.829 . S
C1361 C104 1.182 . S
C1380 C453 1.182 . S
C1397 C117 1.337 . S
C1416 C353 1.356 . S
C1433 C304 1.509 . S
C1452 C541 1.516 . S
C1488 C570 0.761 . S
C1469 C278 0.718 . S
C1524 C331 1.461 . S
C1505 C60 1.476 . S
C1560 C560 1.491 . S
C1541 C96 1.476 . S
C1577 C88 0.793 . S
C1596 C371 0.825 . S
C1613 C65 1.307 . S
C1632 C534 1.311 . S
C1668 C410 1.518 . S
C1649 C10 1.560 . S
C1685 C44 0.733 . S
C1704 C493 0.749 . S
C1740 C440 1.348 1_556 S
C1721 C34 1.309 . S
C1776 C591 1.487 . S
C1757 C13 1.499 . S
C1812 C320 1.415 . S
C1793 C138 1.381 1_565 S
C1848 C554 0.591 . S
C1829 C296 0.579 . S
C1865 C112 1.485 . S
C1884 C360 1.517 . S
C1901 C270 0.839 . S
C1920 C551 0.804 . S
C1937 C140 0.731 . S
C1956 C393 0.734 . S
C1992 C501 1.566 . S
C1973 C294 1.533 . S
C2009 C114 0.495 . S
C2028 C434 0.516 . S
C2045 C268 1.421 . S
C2064 C580 1.440 . S
C2081 C169 1.420 1_556 S
C2100 C314 1.415 . S
C2117 C161 1.662 . S
C2136 C481 1.666 . S
C2153 C234 1.364 . S
C2172 C430 1.344 . S
C2189 C226 0.723 . S
C2208 C531 0.763 . S
C2244 C574 1.136 . S
C2225 C247 1.145 . S
C2261 C195 1.320 . S
C2280 C354 1.323 1_565 S
C2316 C380 1.427 . S
C2297 C239 1.431 . S
C2352 C351 0.584 . S
C2333 C187 0.634 . S
C2369 C75 1.549 . S
C2388 C610 1.502 . S
C2424 C561 1.576 . S
C2405 C83 1.542 . S
C2441 C99 0.876 . S
C2460 C630 0.923 . S
C2477 C52 1.382 . S
C2496 C533 1.409 . S
C2513 C47 1.626 . S
C2532 C491 1.631 . S
C2568 C494 0.793 . S
C2549 C5 0.803 . S
C2604 C521 1.430 . S
C2585 C23 1.444 . S
C2640 C590 1.535 . S
C2621 C26 1.545 . S
C2676 C601 1.480 . S
C2657 C244 1.479 . S
C2693 C177 0.669 . S
C2712 C553 0.646 . S
C2748 C621 1.602 . S
C2729 C192 1.605 . S
C2784 C550 0.957 . S
C2765 C203 0.929 . S
C2820 C474 0.835 . S
C2801 C242 0.799 . S
C2837 C179 1.644 . S
C2856 C500 1.608 . S
C2892 C513 0.576 . S
C2873 C190 0.602 . S
C2909 C205 1.542 . S
C2928 C581 1.508 . S
C2964 C593 1.480 . S
C2945 C286 1.458 . S
C2981 C122 1.723 . S
C3000 C400 1.737 . S
C3036 C431 1.366 . S
C3017 C130 1.402 . S
C3072 C450 0.806 . S
C3053 C148 0.838 . S
C3108 C573 1.217 . S
C3089 C273 1.185 . S
C3125 C260 1.344 . S
C3144 C613 1.381 . S
C3180 C381 1.514 . S
C3161 C135 1.500 . S
C3216 C350 0.770 . S
C3197 C109 0.722 . S
C3233 C86 1.478 . S
C3252 C611 1.442 . S
C3288 C340 1.472 . S
C3269 C70 1.473 . S
C3305 C62 0.789 . S
C3324 C631 0.760 . S
C3341 C91 1.305 . S
C3360 C374 1.308 . S
C3377 C36 1.561 . S
C3396 C490 1.492 1_556 S
C3432 C413 0.716 . S
C3413 C18 0.736 . S
C3449 C8 1.303 . S
C3468 C520 1.333 . S
C3485 C39 1.498 . S
C3504 C471 1.485 . S
C3540 C600 1.413 . S
C3521 C307 1.381 . S
C3557 C153 0.577 . S
C3576 C334 0.604 . S
C3612 C620 1.534 1_655 S
C3593 C281 1.493 . S
C3629 C127 0.845 . S
C3648 C391 0.868 . S
C3665 C309 0.728 . S
C3684 C473 0.721 . S
C3720 C421 1.539 . S
C3701 C151 1.528 . S
C3737 C283 0.492 . S
C3756 C514 0.552 . S
C3792 C460 1.439 . S
C3773 C125 1.420 . S
C3828 C594 1.416 . S
C3809 C221 1.415 . S
C3864 C401 1.671 . S
C3845 C200 1.662 . S
C3881 C208 1.362 . S
C3900 C510 1.293 . S
C3936 C451 0.755 . S
C3917 C174 0.726 1_556 S
C3953 C182 1.145 . S
C3972 C454 1.137 . S
C3989 C156 1.317 . S
C4008 C614 1.327 . S
C4044 C540 1.427 . S
C4025 C213 1.430 1_565 S
C4080 C571 0.688 . S
C4061 C252 0.638 . S
