# Generated by pormake.
# Topology soc, (4,6)-cn, num edge types: 1
# Building blocks:
#     Node 0, Type 0, BuildingBlock: ESEHIV_clean_sbu_0, # of connection points: 4
#     Node 1, Type 0, BuildingBlock: ESEHIV_clean_sbu_0, # of connection points: 4
#     Node 2, Type 0, BuildingBlock: ESEHIV_clean_sbu_0, # of connection points: 4
#     Node 3, Type 0, BuildingBlock: ESEHIV_clean_sbu_0, # of connection points: 4
#     Node 4, Type 0, BuildingBlock: ESEHIV_clean_sbu_0, # of connection points: 4
#     Node 5, Type 0, BuildingBlock: ESEHIV_clean_sbu_0, # of connection points: 4
#     Node 6, Type 0, BuildingBlock: ESEHIV_clean_sbu_0, # of connection points: 4
#     Node 7, Type 0, BuildingBlock: ESEHIV_clean_sbu_0, # of connection points: 4
#     Node 8, Type 0, BuildingBlock: ESEHIV_clean_sbu_0, # of connection points: 4
#     Node 9, Type 0, BuildingBlock: ESEHIV_clean_sbu_0, # of connection points: 4
#     Node 10, Type 0, BuildingBlock: ESEHIV_clean_sbu_0, # of connection points: 4
#     Node 11, Type 0, BuildingBlock: ESEHIV_clean_sbu_0, # of connection points: 4
#     Node 12, Type 1, BuildingBlock: PAMTUU_clean_sbu_0, # of connection points: 6
#     Node 13, Type 1, BuildingBlock: PAMTUU_clean_sbu_0, # of connection points: 6
#     Node 14, Type 1, BuildingBlock: PAMTUU_clean_sbu_0, # of connection points: 6
#     Node 15, Type 1, BuildingBlock: PAMTUU_clean_sbu_0, # of connection points: 6
#     Node 16, Type 1, BuildingBlock: PAMTUU_clean_sbu_0, # of connection points: 6
#     Node 17, Type 1, BuildingBlock: PAMTUU_clean_sbu_0, # of connection points: 6
#     Node 18, Type 1, BuildingBlock: PAMTUU_clean_sbu_0, # of connection points: 6
#     Node 19, Type 1, BuildingBlock: PAMTUU_clean_sbu_0, # of connection points: 6
#     Edge 20, Type (0, 1), BuildingBlock: UVAHIK_clean_linker_0, # of connection points: 2
#     Edge 21, Type (0, 1), BuildingBlock: UVAHIK_clean_linker_0, # of connection points: 2
#     Edge 22, Type (0, 1), BuildingBlock: UVAHIK_clean_linker_0, # of connection points: 2
#     Edge 23, Type (0, 1), BuildingBlock: UVAHIK_clean_linker_0, # of connection points: 2
#     Edge 24, Type (0, 1), BuildingBlock: UVAHIK_clean_linker_0, # of connection points: 2
#     Edge 25, Type (0, 1), BuildingBlock: UVAHIK_clean_linker_0, # of connection points: 2
#     Edge 26, Type (0, 1), BuildingBlock: UVAHIK_clean_linker_0, # of connection points: 2
#     Edge 27, Type (0, 1), BuildingBlock: UVAHIK_clean_linker_0, # of connection points: 2
#     Edge 28, Type (0, 1), BuildingBlock: UVAHIK_clean_linker_0, # of connection points: 2
#     Edge 29, Type (0, 1), BuildingBlock: UVAHIK_clean_linker_0, # of connection points: 2
#     Edge 30, Type (0, 1), BuildingBlock: UVAHIK_clean_linker_0, # of connection points: 2
#     Edge 31, Type (0, 1), BuildingBlock: UVAHIK_clean_linker_0, # of connection points: 2
#     Edge 32, Type (0, 1), BuildingBlock: UVAHIK_clean_linker_0, # of connection points: 2
#     Edge 33, Type (0, 1), BuildingBlock: UVAHIK_clean_linker_0, # of connection points: 2
#     Edge 34, Type (0, 1), BuildingBlock: UVAHIK_clean_linker_0, # of connection points: 2
#     Edge 35, Type (0, 1), BuildingBlock: UVAHIK_clean_linker_0, # of connection points: 2
#     Edge 36, Type (0, 1), BuildingBlock: UVAHIK_clean_linker_0, # of connection points: 2
#     Edge 37, Type (0, 1), BuildingBlock: UVAHIK_clean_linker_0, # of connection points: 2
#     Edge 38, Type (0, 1), BuildingBlock: UVAHIK_clean_linker_0, # of connection points: 2
#     Edge 39, Type (0, 1), BuildingBlock: UVAHIK_clean_linker_0, # of connection points: 2
#     Edge 40, Type (0, 1), BuildingBlock: UVAHIK_clean_linker_0, # of connection points: 2
#     Edge 41, Type (0, 1), BuildingBlock: UVAHIK_clean_linker_0, # of connection points: 2
#     Edge 42, Type (0, 1), BuildingBlock: UVAHIK_clean_linker_0, # of connection points: 2
#     Edge 43, Type (0, 1), BuildingBlock: UVAHIK_clean_linker_0, # of connection points: 2
#     Edge 44, Type (0, 1), BuildingBlock: UVAHIK_clean_linker_0, # of connection points: 2
#     Edge 45, Type (0, 1), BuildingBlock: UVAHIK_clean_linker_0, # of connection points: 2
#     Edge 46, Type (0, 1), BuildingBlock: UVAHIK_clean_linker_0, # of connection points: 2
#     Edge 47, Type (0, 1), BuildingBlock: UVAHIK_clean_linker_0, # of connection points: 2
#     Edge 48, Type (0, 1), BuildingBlock: UVAHIK_clean_linker_0, # of connection points: 2
#     Edge 49, Type (0, 1), BuildingBlock: UVAHIK_clean_linker_0, # of connection points: 2
#     Edge 50, Type (0, 1), BuildingBlock: UVAHIK_clean_linker_0, # of connection points: 2
#     Edge 51, Type (0, 1), BuildingBlock: UVAHIK_clean_linker_0, # of connection points: 2
#     Edge 52, Type (0, 1), BuildingBlock: UVAHIK_clean_linker_0, # of connection points: 2
#     Edge 53, Type (0, 1), BuildingBlock: UVAHIK_clean_linker_0, # of connection points: 2
#     Edge 54, Type (0, 1), BuildingBlock: UVAHIK_clean_linker_0, # of connection points: 2
#     Edge 55, Type (0, 1), BuildingBlock: UVAHIK_clean_linker_0, # of connection points: 2
#     Edge 56, Type (0, 1), BuildingBlock: UVAHIK_clean_linker_0, # of connection points: 2
#     Edge 57, Type (0, 1), BuildingBlock: UVAHIK_clean_linker_0, # of connection points: 2
#     Edge 58, Type (0, 1), BuildingBlock: UVAHIK_clean_linker_0, # of connection points: 2
#     Edge 59, Type (0, 1), BuildingBlock: UVAHIK_clean_linker_0, # of connection points: 2
#     Edge 60, Type (0, 1), BuildingBlock: UVAHIK_clean_linker_0, # of connection points: 2
#     Edge 61, Type (0, 1), BuildingBlock: UVAHIK_clean_linker_0, # of connection points: 2
#     Edge 62, Type (0, 1), BuildingBlock: UVAHIK_clean_linker_0, # of connection points: 2
#     Edge 63, Type (0, 1), BuildingBlock: UVAHIK_clean_linker_0, # of connection points: 2
#     Edge 64, Type (0, 1), BuildingBlock: UVAHIK_clean_linker_0, # of connection points: 2
#     Edge 65, Type (0, 1), BuildingBlock: UVAHIK_clean_linker_0, # of connection points: 2
#     Edge 66, Type (0, 1), BuildingBlock: UVAHIK_clean_linker_0, # of connection points: 2
#     Edge 67, Type (0, 1), BuildingBlock: UVAHIK_clean_linker_0, # of connection points: 2
# Relax obj value: 0.113
# Max RMSD: 0.198
# Mean RMSD: 0.147
data_MOF--net-soc--node1-ESEHIV_clean_sbu_0--node2-PAMTUU_clean_sbu_0--edge1-UVAHIK_clean_linker_0
_symmetry_space_group_name_H-M    P1
_symmetry_Int_Tables_number       1
_symmetry_cell_setting            triclinic
loop_
_symmetry_equiv_pos_as_xyz
'x, y, z'
_cell_length_a     64.95117
_cell_length_b     62.778812
_cell_length_c     55.334235
_cell_angle_alpha  84.439773
_cell_angle_beta   84.187154
_cell_angle_gamma 74.748678
loop_
_atom_site_label
_atom_site_type_symbol
_atom_site_fract_x
_atom_site_fract_y
_atom_site_fract_z
_atom_type_partial_charge
Cu0 Cu 0.04029 0.02046 0.3447 0.0
N1 N 0.04999 0.03756 0.36467 0.0
N2 N 0.06761 0.06083 0.37573 0.0
C3 C 0.06531 0.04835 0.35809 0.0
C4 C 0.05306 0.05774 0.39409 0.0
C5 C 0.04218 0.04347 0.38717 0.0
O6 O 0.0648 0.00306 0.32551 0.0
C7 C 0.99948 0.04689 0.3369 0.0
O8 O 0.99563 0.03783 0.35871 0.0
H9 H 0.07403 0.04762 0.34033 0.0
H10 H 0.02912 0.03824 0.39756 0.0
N11 N 0.02807 0.99948 0.3627 0.0
N12 N 1.00983 0.97361 0.37044 0.0
C13 C 1.01601 0.98821 0.35358 0.0
C14 C 0.02987 0.99161 0.3861 0.0
C15 C 0.01851 0.97573 0.39097 0.0
C16 C 0.08046 0.99261 0.33777 0.0
O17 O 0.07931 0.99539 0.36114 0.0
H18 H 1.01168 0.99092 0.33494 0.0
H19 H 0.03904 0.99678 0.39861 0.0
O20 O 0.0183 0.04129 0.32631 0.0
H21 H 0.05031 0.06534 0.41125 0.0
H22 H 1.01715 0.96617 0.40814 0.0
Cu23 Cu 0.03834 0.02446 0.73976 0.0
N24 N 0.02493 0.00959 0.72103 0.0
N25 N 1.00371 0.98893 0.71246 0.0
C26 C 1.00965 0.99935 0.72978 0.0
C27 C 1.01577 0.99282 0.69199 0.0
C28 C 0.02885 0.00555 0.69734 0.0
O29 O 1.01593 0.04524 0.7583 0.0
C30 C 0.07338 0.98994 0.74392 0.0
O31 O 0.07197 0.99375 0.7203 0.0
H32 H 1.00353 0.99903 0.7487 0.0
H33 H 0.04072 0.01098 0.68493 0.0
N34 N 0.0541 0.04181 0.72072 0.0
N35 N 0.07644 0.06371 0.71308 0.0
C36 C 0.06907 0.04957 0.72946 0.0
C37 C 0.05191 0.05129 0.69792 0.0
C38 C 0.06569 0.06485 0.69316 0.0
C39 C 1.00337 0.05918 0.74456 0.0
O40 O 1.00604 0.05703 0.72099 0.0
H41 H 0.07363 0.04576 0.74798 0.0
H42 H 0.0405 0.04928 0.68596 0.0
O43 O 0.05921 0.00204 0.75796 0.0
H44 H 1.01529 0.98685 0.67441 0.0
H45 H 0.06732 0.0751 0.67655 0.0
Cu46 Cu 0.27637 0.04604 0.07792 0.0
N47 N 0.2533 0.03722 0.0687 0.0
N48 N 0.23523 0.01453 0.05753 0.0
C49 C 0.25231 0.01612 0.06858 0.0
C50 C 0.22505 0.03555 0.05048 0.0
C51 C 0.2363 0.0495 0.05731 0.0
O52 O 0.29327 0.0205 0.09654 0.0
C53 C 0.30442 0.06694 0.04596 0.0
O54 O 0.31241 0.0702 0.06574 0.0
H55 H 0.26481 0.00214 0.0748 0.0
H56 H 0.23299 0.0672 0.05307 0.0
N57 N 0.26634 0.0699 0.09745 0.0
N58 N 0.26538 0.09604 0.12255 0.0
C59 C 0.27787 0.07897 0.11045 0.0
C60 C 0.24587 0.08141 0.10173 0.0
C61 C 0.24523 0.09753 0.11712 0.0
C62 C 0.28508 0.01594 0.11772 0.0
O63 O 0.26716 0.0294 0.12595 0.0
H64 H 0.29505 0.07317 0.11095 0.0
H65 H 0.23227 0.07816 0.09447 0.0
O66 O 0.29047 0.05582 0.04771 0.0
H67 H 0.21104 0.04044 0.04018 0.0
H68 H 0.23092 0.10912 0.12415 0.0
Cu69 Cu 0.05836 0.29822 0.07915 0.0
N70 N 0.06837 0.31583 0.05379 0.0
N71 N 0.08833 0.32269 0.01996 0.0
C72 C 0.08762 0.3101 0.04113 0.0
C73 C 0.06877 0.33694 0.01935 0.0
C74 C 0.05647 0.33255 0.04008 0.0
O75 O 0.08188 0.28495 0.10035 0.0
C76 C 0.03263 0.26883 0.06708 0.0
O77 O 0.02712 0.26546 0.09031 0.0
H78 H 0.10017 0.29571 0.04629 0.0
H79 H 0.03952 0.33974 0.04374 0.0
N80 N 0.03557 0.3151 0.09847 0.0
N81 N 1.00668 0.32255 0.12508 0.0
C82 C 0.02341 0.3068 0.11616 0.0
C83 C 0.02672 0.3371 0.09688 0.0
C84 C 1.00885 0.34173 0.11319 0.0
C85 C 0.09189 0.29841 0.10643 0.0
O86 O 0.08612 0.3192 0.0979 0.0
H87 H 0.02671 0.2895 0.12239 0.0
H88 H 0.03249 0.34895 0.08439 0.0
O89 O 0.04701 0.27916 0.06057 0.0
H90 H 0.06334 0.34888 1.00439 0.0
H91 H 0.99782 0.3578 0.11532 0.0
Cu92 Cu 0.78548 0.99759 1.00784 0.0
N93 N 0.80121 0.00837 0.98172 0.0
N94 N 0.80994 0.0333 0.95383 0.0
C95 C 0.80062 0.02985 0.97622 0.0
C96 C 0.81663 0.01321 0.94477 0.0
C97 C 0.81123 0.99782 0.96209 0.0
O98 O 0.77553 0.02102 0.03023 0.0
C99 C 0.75799 0.97034 1.00059 0.0
O100 O 0.76352 0.96038 0.0218 0.0
H101 H 0.79198 0.04294 0.98758 0.0
H102 H 0.81319 0.98044 0.95991 0.0
N103 N 0.80264 0.97347 0.02492 0.0
N104 N 0.81247 0.94821 0.05573 0.0
C105 C 0.79825 0.96698 0.04829 0.0
C106 C 0.82047 0.95855 0.0172 0.0
C107 C 0.82657 0.9429 0.03619 0.0
C108 C 0.79084 0.02661 0.03848 0.0
O109 O 0.81059 0.01618 0.03154 0.0
H110 H 0.78419 0.97537 0.05917 0.0
H111 H 0.82821 0.95877 0.99897 0.0
O112 O 0.76366 0.98797 0.99323 0.0
H113 H 0.82401 0.01007 0.92659 0.0
H114 H 0.84018 0.9286 0.03548 0.0
Cu115 Cu 0.02656 0.74267 0.01548 0.0
N116 N 1.01448 0.72908 0.99379 0.0
N117 N 0.99208 0.72451 0.96766 0.0
C118 C 0.99693 0.73864 0.98179 0.0
C119 C 1.00727 0.70533 0.97091 0.0
C120 C 0.02101 0.70819 0.98701 0.0
O121 O 1.00349 0.7578 0.03871 0.0
C122 C 0.05785 0.74987 0.97992 0.0
O123 O 0.05713 0.72981 0.97599 0.0
H124 H 0.98773 0.75554 0.98382 0.0
H125 H 0.03495 0.69596 0.99307 0.0
N126 N 0.0452 0.7222 0.0349 0.0
N127 N 0.06986 0.7115 0.06189 0.0
C128 C 0.05951 0.72816 0.04686 0.0
C129 C 0.04642 0.70092 0.04256 0.0
C130 C 0.06186 0.69417 0.05914 0.0
C131 C 0.9905 0.74635 0.04767 0.0
O132 O 0.99297 0.72663 0.03996 0.0
H133 H 0.06192 0.74468 0.0449 0.0
H134 H 0.03627 0.69128 0.03729 0.0
O135 O 0.04487 0.76004 0.99655 0.0
H136 H 1.00861 0.69034 0.96206 0.0
H137 H 0.06617 0.67816 0.06916 0.0
Cu138 Cu 0.53073 0.52495 0.84775 0.0
N139 N 0.542 0.54109 0.86709 0.0
N140 N 0.56412 0.55974 0.87802 0.0
C141 C 0.56197 0.54389 0.86428 0.0
C142 C 0.54469 0.56705 0.88995 0.0
C143 C 0.53107 0.55567 0.88302 0.0
O144 O 0.55478 0.50351 0.8322 0.0
C145 C 0.49633 0.54447 0.81692 0.0
O146 O 0.49387 0.52441 0.81659 0.0
H147 H 0.57431 0.5352 0.8515 0.0
H148 H 0.51405 0.55896 0.88789 0.0
N149 N 0.51342 0.50924 0.86682 0.0
N150 N 0.49307 0.48551 0.87632 0.0
C151 C 0.50681 0.49252 0.85945 0.0
C152 C 0.50389 0.51267 0.88937 0.0
C153 C 0.49125 0.4981 0.89525 0.0
C154 C 0.56421 0.48764 0.84664 0.0
O155 O 0.55717 0.48716 0.86975 0.0
H156 H 0.5113 0.4863 0.84159 0.0
H157 H 0.50563 0.52511 0.90062 0.0
O158 O 0.51235 0.54718 0.82666 0.0
H159 H 0.54016 0.58076 0.90151 0.0
H160 H 0.48129 0.49709 0.912 0.0
Cu161 Cu 0.5441 0.52662 0.23794 0.0
N162 N 0.53031 0.51151 0.21987 0.0
N163 N 0.50812 0.49153 0.21208 0.0
C164 C 0.51523 0.50119 0.22923 0.0
C165 C 0.51931 0.49599 0.1911 0.0
C166 C 0.53298 0.50825 0.19597 0.0
O167 O 0.52208 0.54651 0.25762 0.0
C168 C 0.57934 0.49231 0.24114 0.0
O169 O 0.57757 0.49614 0.21757 0.0
H170 H 0.50991 0.50055 0.24839 0.0
H171 H 0.54421 0.51414 0.18301 0.0
N172 N 0.55898 0.54457 0.2185 0.0
N173 N 0.58149 0.56623 0.20955 0.0
C174 C 0.57443 0.55221 0.2264 0.0
C175 C 0.55605 0.55411 0.19584 0.0
C176 C 0.57004 0.56739 0.1902 0.0
C177 C 0.50739 0.55883 0.24515 0.0
O178 O 0.5085 0.55648 0.22167 0.0
H179 H 0.58013 0.54773 0.24438 0.0
H180 H 0.54411 0.55223 0.18453 0.0
O181 O 0.56544 0.50437 0.25543 0.0
H182 H 0.51773 0.49093 0.17339 0.0
H183 H 0.57106 0.57775 0.17354 0.0
Cu184 Cu 0.81203 0.54701 0.57297 0.0
N185 N 0.82666 0.56013 0.54731 0.0
N186 N 0.83679 0.5728 0.50999 0.0
C187 C 0.8258 0.55948 0.52314 0.0
C188 C 0.84513 0.58184 0.52657 0.0
C189 C 0.83889 0.57403 0.54944 0.0
O190 O 0.79975 0.56874 0.59716 0.0
C191 C 0.77936 0.54142 0.54329 0.0
O192 O 0.77737 0.5618 0.5338 0.0
H193 H 0.81697 0.54979 0.51536 0.0
H194 H 0.84237 0.57893 0.56642 0.0
N195 N 0.83094 0.52262 0.58744 0.0
N196 N 0.84198 0.48906 0.60626 0.0
C197 C 0.82525 0.50446 0.59751 0.0
C198 C 0.85212 0.51853 0.58962 0.0
C199 C 0.85895 0.49783 0.60155 0.0
C200 C 0.81259 0.57362 0.6104 0.0
O201 O 0.83292 0.56302 0.60833 0.0
H202 H 0.80904 0.50267 0.59861 0.0
H203 H 0.86187 0.52975 0.58299 0.0
O204 O 0.79146 0.53405 0.56054 0.0
H205 H 0.85413 0.5942 0.52259 0.0
H206 H 0.87512 0.48973 0.60608 0.0
Cu207 Cu 0.55959 0.78156 0.57512 0.0
N208 N 0.57842 0.76505 0.55132 0.0
N209 N 0.60475 0.75613 0.52152 0.0
C210 C 0.59523 0.77071 0.53831 0.0
C211 C 0.59362 0.74053 0.52435 0.0
C212 C 0.57741 0.74611 0.54258 0.0
O213 O 0.57671 0.79179 0.59607 0.0
C214 C 0.54064 0.81293 0.5373 0.0
O215 O 0.55945 0.80786 0.52507 0.0
H216 H 0.6001 0.78552 0.54081 0.0
H217 H 0.56536 0.73728 0.54858 0.0
N218 N 0.54287 0.76511 0.59483 0.0
N219 N 0.51561 0.75816 0.62009 0.0
C220 C 0.5235 0.77374 0.60639 0.0
C221 C 0.54735 0.74327 0.60133 0.0
C222 C 0.53066 0.73895 0.61689 0.0
C223 C 0.58941 0.77649 0.60815 0.0
O224 O 0.58997 0.75581 0.60526 0.0
H225 H 0.5156 0.79124 0.60517 0.0
H226 H 0.56184 0.73131 0.59541 0.0
O227 O 0.53863 0.80527 0.55929 0.0
H228 H 0.59647 0.72653 0.51337 0.0
H229 H 0.52966 0.72285 0.62508 0.0
Cu230 Cu 0.29224 0.49378 0.51443 0.0
N231 N 0.30936 0.50806 0.49276 0.0
N232 N 0.3178 0.53592 0.46876 0.0
C233 C 0.30577 0.53022 0.48847 0.0
C234 C 0.32958 0.51652 0.46049 0.0
C235 C 0.32432 0.4994 0.47528 0.0
O236 O 0.27816 0.51488 0.53797 0.0
C237 C 0.26739 0.49246 0.47516 0.0
O238 O 0.27257 0.51074 0.46642 0.0
H239 H 0.29334 0.5419 0.49847 0.0
H240 H 0.32999 0.48195 0.47249 0.0
N241 N 0.30785 0.46837 0.53165 0.0
N242 N 0.31535 0.44093 0.56105 0.0
C243 C 0.30179 0.46034 0.554 0.0
C244 C 0.32587 0.4535 0.52427 0.0
C245 C 0.33052 0.43656 0.54234 0.0
C246 C 0.29061 0.5181 0.55279 0.0
O247 O 0.31084 0.50702 0.55108 0.0
H248 H 0.28732 0.46829 0.56455 0.0
H249 H 0.33477 0.45461 0.50682 0.0
O250 O 0.27283 0.48397 0.49614 0.0
H251 H 0.34058 0.51478 0.44433 0.0
H252 H 0.344 0.42212 0.54171 0.0
Cu253 Cu 0.52192 0.24474 0.51816 0.0
N254 N 0.5448 0.22922 0.49822 0.0
N255 N 0.57611 0.22202 0.47575 0.0
C256 C 0.56295 0.23553 0.49151 0.0
C257 C 0.56582 0.20656 0.47244 0.0
C258 C 0.54651 0.21103 0.48636 0.0
O259 O 0.53389 0.26438 0.53516 0.0
C260 C 0.48748 0.24511 0.49188 0.0
O261 O 0.49409 0.22404 0.49898 0.0
H262 H 0.56605 0.25027 0.49737 0.0
H263 H 0.53445 0.20189 0.48736 0.0
N264 N 0.51225 0.22581 0.54228 0.0
N265 N 0.49376 0.21548 0.57558 0.0
C266 C 0.49781 0.23263 0.56095 0.0
C267 C 0.51765 0.20355 0.54518 0.0
C268 C 0.50615 0.19711 0.56568 0.0
C269 C 0.54608 0.25459 0.55184 0.0
O270 O 0.5491 0.23314 0.55652 0.0
H271 H 0.49025 0.24989 0.56353 0.0
H272 H 0.52913 0.19277 0.5333 0.0
O273 O 0.49765 0.25842 0.49798 0.0
H274 H 0.57171 0.1931 0.46067 0.0
H275 H 0.50708 0.18027 0.57293 0.0
Tb276 Tb 0.29435 0.2946 0.28552 0.0
Tb277 Tb 0.26814 0.27006 0.3298 0.0
C278 C 0.24922 0.28642 0.27803 0.0
C279 C 0.32967 0.32821 0.25111 0.0
C280 C 0.35674 0.35735 0.24567 0.0
C281 C 0.3365 0.36322 0.25868 0.0
C282 C 0.32309 0.34877 0.26142 0.0
C283 C 0.34986 0.32229 0.23834 0.0
C284 C 0.36327 0.3366 0.23574 0.0
C285 C 0.31603 0.31256 0.25316 0.0
O286 O 0.27254 0.32118 0.30505 0.0
O287 O 0.26719 0.30215 0.34179 0.0
O288 O 0.30113 0.26386 0.33991 0.0
O289 O 0.31093 0.29312 0.31813 0.0
O290 O 0.24083 0.27132 0.35404 0.0
O291 O 0.26772 0.2425 0.35437 0.0
O292 O 0.27726 0.24702 0.30188 0.0
O293 O 0.30495 0.2591 0.28087 0.0
O294 O 0.26782 0.28895 0.26816 0.0
O295 O 0.24545 0.28262 0.30175 0.0
C296 C 0.2665 0.32076 0.32847 0.0
O297 O 0.32354 0.29356 0.26499 0.0
O298 O 0.2955 0.32024 0.25836 0.0
C299 C 0.31375 0.2774 0.33586 0.0
C300 C 0.2334 0.23649 0.36272 0.0
C301 C 0.20587 0.20826 0.36347 0.0
C302 C 0.21046 0.21528 0.38527 0.0
C303 C 0.22411 0.22925 0.38488 0.0
C304 C 0.22887 0.22966 0.34088 0.0
C305 C 0.21524 0.21565 0.34125 0.0
C306 C 0.24799 0.25088 0.36263 0.0
C307 C 0.29398 0.24415 0.28607 0.0
H308 H 0.33086 0.37912 0.26642 0.0
H309 H 0.3076 0.35371 0.27146 0.0
H310 H 0.35531 0.30646 0.23037 0.0
H311 H 0.37888 0.33125 0.22609 0.0
H312 H 0.20376 0.20968 0.40271 0.0
H313 H 0.22751 0.23429 0.40191 0.0
H314 H 0.23589 0.23515 0.32357 0.0
H315 H 0.21187 0.21078 0.32412 0.0
Tb316 Tb 0.78353 0.26472 0.28325 0.0
Tb317 Tb 0.80007 0.28737 0.32691 0.0
C318 C 0.7619 0.31358 0.29696 0.0
C319 C 0.77411 0.22833 0.23582 0.0
C320 C 0.77731 0.19476 0.20392 0.0
C321 C 0.78654 0.21254 0.19677 0.0
C322 C 0.78485 0.22924 0.21251 0.0
C323 C 0.76548 0.21019 0.24316 0.0
C324 C 0.76711 0.1936 0.22746 0.0
C325 C 0.76927 0.24731 0.25132 0.0
O326 O 0.81482 0.26888 0.2695 0.0
O327 O 0.81416 0.29798 0.29179 0.0
O328 O 0.82497 0.25727 0.3199 0.0
O329 O 0.80516 0.23771 0.30316 0.0
O330 O 0.81161 0.31346 0.33599 0.0
O331 O 0.80763 0.28753 0.36312 0.0
O332 O 0.77874 0.26805 0.34513 0.0
O333 O 0.75888 0.26858 0.31304 0.0
O334 O 0.76931 0.30038 0.27921 0.0
O335 O 0.76921 0.30897 0.31863 0.0
C336 C 0.82216 0.2857 0.27345 0.0
O337 O 0.76634 0.24293 0.27472 0.0
O338 O 0.77955 0.26269 0.24623 0.0
C339 C 0.82253 0.23866 0.31296 0.0
C340 C 0.80246 0.32366 0.37621 0.0
C341 C 0.78688 0.35928 0.40633 0.0
C342 C 0.80632 0.34349 0.41037 0.0
C343 C 0.81403 0.3259 0.39542 0.0
C344 C 0.78268 0.33887 0.37257 0.0
C345 C 0.77498 0.35655 0.38747 0.0
C346 C 0.81217 0.30664 0.35894 0.0
C347 C 0.76164 0.26527 0.33636 0.0
H348 H 0.79437 0.21401 0.17868 0.0
H349 H 0.79137 0.24316 0.20612 0.0
H350 H 0.75684 0.20911 0.26086 0.0
H351 H 0.7601 0.17997 0.23367 0.0
H352 H 0.81604 0.3452 0.4245 0.0
H353 H 0.82939 0.31442 0.3984 0.0
H354 H 0.77348 0.33743 0.35781 0.0
H355 H 0.75983 0.36824 0.38405 0.0
Tb356 Tb 0.81564 0.77186 0.30894 0.0
Tb357 Tb 0.78644 0.75603 0.2711 0.0
C358 C 0.81308 0.72187 0.30969 0.0
C359 C 0.85134 0.79893 0.33788 0.0
C360 C 0.87845 0.82705 0.34028 0.0
C361 C 0.87722 0.81039 0.35889 0.0
C362 C 0.86377 0.79651 0.3577 0.0
C363 C 0.85295 0.81503 0.31883 0.0
C364 C 0.8664 0.829 0.32002 0.0
C365 C 0.83604 0.78529 0.33825 0.0
O366 O 0.83819 0.76156 0.27744 0.0
O367 O 0.81506 0.75994 0.24891 0.0
O368 O 0.77906 0.79212 0.26765 0.0
O369 O 0.80969 0.79778 0.28002 0.0
O370 O 0.78406 0.73719 0.24268 0.0
O371 O 0.75637 0.76106 0.25743 0.0
O372 O 0.76977 0.75365 0.30693 0.0
O373 O 0.78269 0.77801 0.32561 0.0
O374 O 0.8164 0.73789 0.32114 0.0
O375 O 0.80395 0.72514 0.28901 0.0
C376 C 0.83421 0.75984 0.25488 0.0
O377 O 0.81679 0.79565 0.33246 0.0
O378 O 0.84295 0.76634 0.32852 0.0
C379 C 0.79278 0.80424 0.26755 0.0
C380 C 0.75037 0.72999 0.24127 0.0
C381 C 0.72544 0.69996 0.23765 0.0
C382 C 0.72575 0.71727 0.21956 0.0
C383 C 0.73811 0.73209 0.22137 0.0
C384 C 0.75003 0.71294 0.25958 0.0
C385 C 0.73763 0.69803 0.25779 0.0
C386 C 0.76348 0.74565 0.24224 0.0
C387 C 0.76876 0.7662 0.32487 0.0
H388 H 0.88658 0.80813 0.3745 0.0
H389 H 0.86279 0.78411 0.37252 0.0
H390 H 0.84346 0.81712 0.30335 0.0
H391 H 0.86687 0.84173 0.30545 0.0
H392 H 0.71626 0.71952 0.20406 0.0
H393 H 0.73812 0.74523 0.20714 0.0
H394 H 0.75944 0.71111 0.2751 0.0
H395 H 0.73786 0.68481 0.27195 0.0
Tb396 Tb 0.30993 0.79168 0.31907 0.0
Tb397 Tb 0.29178 0.76873 0.27726 0.0
C398 C 0.26165 0.80814 0.30511 0.0
C399 C 0.33812 0.80782 0.36878 0.0
C400 C 0.36826 0.80766 0.40204 0.0
C401 C 0.34768 0.82215 0.40409 0.0
C402 C 0.33278 0.82224 0.38755 0.0
C403 C 0.35819 0.79239 0.36752 0.0
C404 C 0.37315 0.79234 0.38402 0.0
C405 C 0.32373 0.81138 0.3491 0.0
O406 O 0.29805 0.76503 0.33949 0.0
O407 O 0.29809 0.74408 0.30767 0.0
O408 O 0.32671 0.75828 0.27365 0.0
O409 O 0.33465 0.76162 0.31235 0.0
O410 O 0.27384 0.74762 0.26901 0.0
O411 O 0.29305 0.7615 0.24062 0.0
O412 O 0.29172 0.80178 0.26162 0.0
O413 O 0.31823 0.80651 0.2832 0.0
O414 O 0.27853 0.81285 0.31223 0.0
O415 O 0.26295 0.78976 0.29478 0.0
C416 C 0.29732 0.74633 0.33109 0.0
O417 O 0.33272 0.80736 0.32731 0.0
O418 O 0.30615 0.80485 0.35341 0.0
C419 C 0.33959 0.75262 0.29141 0.0
C420 C 0.26282 0.75138 0.22908 0.0
C421 C 0.23085 0.74771 0.20011 0.0
C422 C 0.25263 0.73928 0.19277 0.0
C423 C 0.26844 0.74108 0.20716 0.0
C424 C 0.24117 0.761 0.23583 0.0
C425 C 0.22529 0.75918 0.22142 0.0
C426 C 0.27957 0.74924 0.24577 0.0
C427 C 0.30618 0.81221 0.26472 0.0
H428 H 0.34346 0.83427 0.41761 0.0
H429 H 0.31743 0.83436 0.3887 0.0
H430 H 0.36262 0.78105 0.3532 0.0
H431 H 0.38877 0.78076 0.38225 0.0
H432 H 0.25743 0.73075 0.17621 0.0
H433 H 0.28507 0.73356 0.20167 0.0
H434 H 0.23648 0.76904 0.25271 0.0
H435 H 0.20866 0.76579 0.2276 0.0
Tb436 Tb 0.27342 0.76308 0.7821 0.0
Tb437 Tb 0.29392 0.78123 0.82545 0.0
C438 C 0.25759 0.81224 0.79587 0.0
C439 C 0.25903 0.7333 0.73274 0.0
C440 C 0.26455 0.69947 0.70105 0.0
C441 C 0.24429 0.71401 0.70575 0.0
C442 C 0.2416 0.73078 0.72143 0.0
C443 C 0.27936 0.71907 0.72806 0.0
C444 C 0.28212 0.70227 0.71225 0.0
C445 C 0.25523 0.75033 0.75009 0.0
O446 O 0.30545 0.76347 0.76665 0.0
O447 O 0.31276 0.78756 0.79147 0.0
O448 O 0.3155 0.74931 0.81865 0.0
O449 O 0.29461 0.73329 0.79869 0.0
O450 O 0.30427 0.80685 0.83791 0.0
O451 O 0.30632 0.77598 0.85973 0.0
O452 O 0.2689 0.76683 0.84426 0.0
O453 O 0.24869 0.76914 0.81209 0.0
O454 O 0.26388 0.79914 0.77798 0.0
O455 O 0.2649 0.80642 0.81739 0.0
C456 C 0.31724 0.7763 0.77179 0.0
O457 O 0.25428 0.74336 0.77303 0.0
O458 O 0.26609 0.76524 0.7457 0.0
C459 C 0.31195 0.73203 0.80985 0.0
C460 C 0.29726 0.80856 0.88013 0.0
C461 C 0.27698 0.83348 0.91943 0.0
C462 C 0.29934 0.82485 0.91746 0.0
C463 C 0.3094 0.8125 0.8979 0.0
C464 C 0.2749 0.81662 0.88232 0.0
C465 C 0.26483 0.82906 0.90179 0.0
C466 C 0.30791 0.7963 0.85918 0.0
C467 C 0.25076 0.7669 0.8356 0.0
H468 H 0.23037 0.7121 0.69782 0.0
H469 H 0.22577 0.74159 0.72506 0.0
H470 H 0.29297 0.72082 0.73678 0.0
H471 H 0.29796 0.69148 0.70881 0.0
H472 H 0.30912 0.82821 0.93063 0.0
H473 H 0.32667 0.80633 0.89645 0.0
H474 H 0.26527 0.81351 0.86882 0.0
H475 H 0.24758 0.83534 0.90297 0.0
Tb476 Tb 0.31078 0.27015 0.82225 0.0
Tb477 Tb 0.28548 0.24559 0.78944 0.0
C478 C 0.30517 0.22207 0.83736 0.0
C479 C 0.34124 0.30554 0.84721 0.0
C480 C 0.36491 0.33736 0.84562 0.0
C481 C 0.35536 0.3303 0.86783 0.0
C482 C 0.34364 0.31454 0.86858 0.0
C483 C 0.35062 0.31249 0.8249 0.0
C484 C 0.36246 0.32827 0.82412 0.0
C485 C 0.32896 0.28887 0.84891 0.0
O486 O 0.33226 0.26187 0.7901 0.0
O487 O 0.31973 0.23342 0.77926 0.0
O488 O 0.2934 0.27252 0.76598 0.0
O489 O 0.29641 0.29551 0.79447 0.0
O490 O 0.28281 0.21674 0.77525 0.0
O491 O 0.26163 0.2486 0.7654 0.0
O492 O 0.26066 0.26695 0.8124 0.0
O493 O 0.28135 0.2679 0.84316 0.0
O494 O 0.31815 0.23521 0.83514 0.0
O495 O 0.28884 0.22573 0.82394 0.0
C496 C 0.33445 0.24457 0.77759 0.0
O497 O 0.3089 0.29606 0.84433 0.0
O498 O 0.33823 0.27032 0.8391 0.0
C499 C 0.29432 0.29198 0.77188 0.0
C500 C 0.24863 0.21704 0.76353 0.0
C501 C 0.21611 0.1952 0.76157 0.0
C502 C 0.22287 0.20718 0.74084 0.0
C503 C 0.23894 0.21797 0.74185 0.0
C504 C 0.24175 0.20552 0.78449 0.0
C505 C 0.22561 0.19463 0.7835 0.0
C506 C 0.26652 0.22735 0.7631 0.0
C507 C 0.26255 0.27056 0.83499 0.0
H508 H 0.35724 0.33669 0.88474 0.0
H509 H 0.33652 0.30928 0.88595 0.0
H510 H 0.34881 0.30571 0.8082 0.0
H511 H 0.36952 0.33352 0.80674 0.0
H512 H 0.21621 0.20767 0.72357 0.0
H513 H 0.24415 0.2267 0.72547 0.0
H514 H 0.24904 0.20467 0.80144 0.0
H515 H 0.22062 0.18571 0.79983 0.0
Tb516 Tb 0.8036 0.28957 0.81787 0.0
Tb517 Tb 0.77851 0.27026 0.77733 0.0
C518 C 0.75576 0.31253 0.80547 0.0
C519 C 0.84128 0.29646 0.86347 0.0
C520 C 0.87514 0.28492 0.89493 0.0
C521 C 0.87124 0.30497 0.88027 0.0
C522 C 0.85455 0.31063 0.8648 0.0
C523 C 0.84518 0.27626 0.87781 0.0
C524 C 0.86191 0.27058 0.89342 0.0
C525 C 0.82317 0.30377 0.84769 0.0
O526 O 0.79952 0.25804 0.83399 0.0
O527 O 0.77133 0.25538 0.81338 0.0
O528 O 0.80785 0.24461 0.78305 0.0
O529 O 0.82802 0.26484 0.79834 0.0
O530 O 0.75147 0.25999 0.77101 0.0
O531 O 0.7767 0.25982 0.74249 0.0
O532 O 0.79769 0.29037 0.75643 0.0
O533 O 0.80087 0.31262 0.78591 0.0
O534 O 0.76953 0.30678 0.8224 0.0
O535 O 0.75891 0.30292 0.78488 0.0
C536 C 0.78406 0.24885 0.83117 0.0
O537 O 0.82799 0.30429 0.82423 0.0
O538 O 0.80615 0.2965 0.85376 0.0
C539 C 0.82622 0.24683 0.7892 0.0
C540 C 0.74112 0.26507 0.73027 0.0
C541 C 0.70805 0.27441 0.69783 0.0
C542 C 0.72895 0.26238 0.69059 0.0
C543 C 0.74523 0.25768 0.70665 0.0
C544 C 0.72047 0.27793 0.73717 0.0
C545 C 0.70416 0.28249 0.72118 0.0
C546 C 0.75759 0.2569 0.74818 0.0
C547 C 0.80229 0.30805 0.76305 0.0
H548 H 0.88077 0.31663 0.88115 0.0
H549 H 0.8518 0.32635 0.85405 0.0
H550 H 0.83524 0.26496 0.87711 0.0
H551 H 0.86454 0.2549 0.9042 0.0
H552 H 0.73253 0.25573 0.67286 0.0
H553 H 0.76088 0.24753 0.70091 0.0
H554 H 0.71668 0.28393 0.75521 0.0
H555 H 0.68837 0.29209 0.72726 0.0
Tb556 Tb 0.78704 0.79468 0.77857 0.0
Tb557 Tb 0.76243 0.76804 0.82184 0.0
C558 C 0.74019 0.78991 0.77461 0.0
C559 C 0.82219 0.82945 0.74694 0.0
C560 C 0.85291 0.85451 0.7438 0.0
C561 C 0.831 0.86468 0.74836 0.0
C562 C 0.81582 0.85233 0.74982 0.0
C563 C 0.84411 0.81925 0.74247 0.0
C564 C 0.85929 0.83162 0.74098 0.0
C565 C 0.806 0.81657 0.74735 0.0
O566 O 0.78142 0.8135 0.81064 0.0
O567 O 0.75169 0.80316 0.82784 0.0
O568 O 0.79126 0.77119 0.83631 0.0
O569 O 0.81186 0.77422 0.80064 0.0
O570 O 0.73477 0.76656 0.84432 0.0
O571 O 0.76446 0.74147 0.84842 0.0
O572 O 0.77855 0.74327 0.7964 0.0
O573 O 0.78482 0.76543 0.76209 0.0
O574 O 0.7534 0.80283 0.77069 0.0
O575 O 0.74299 0.77328 0.79129 0.0
C576 C 0.76402 0.8169 0.82553 0.0
O577 O 0.81243 0.79518 0.75197 0.0
O578 O 0.78728 0.82475 0.75847 0.0
C579 C 0.80999 0.76991 0.82435 0.0
C580 C 0.73254 0.73018 0.85631 0.0
C581 C 0.70982 0.69731 0.85964 0.0
C582 C 0.71814 0.70224 0.88033 0.0
C583 C 0.72935 0.71856 0.87866 0.0
C584 C 0.72467 0.72511 0.83546 0.0
C585 C 0.71335 0.70884 0.83712 0.0
C586 C 0.74405 0.74752 0.85507 0.0
C587 C 0.78347 0.74617 0.77282 0.0
H588 H 0.82549 0.88234 0.75023 0.0
H589 H 0.79905 0.86079 0.75291 0.0
H590 H 0.84957 0.8017 0.73992 0.0
H591 H 0.87605 0.82323 0.73768 0.0
H592 H 0.71607 0.69341 0.89785 0.0
H593 H 0.7355 0.72216 0.89487 0.0
H594 H 0.72711 0.73389 0.81799 0.0
H595 H 0.70699 0.70564 0.82088 0.0
C596 C 0.10054 0.07165 0.35874 0.0
C597 C 0.0818 0.07527 0.37459 0.0
C598 C 0.11403 0.0859 0.35725 0.0
C599 C 0.11459 0.14252 0.37047 0.0
H600 H 0.17623 0.119 0.36469 0.0
C601 C 0.17281 0.19626 0.37995 0.0
C602 C 0.19147 0.19323 0.364 0.0
C603 C 0.15945 0.18196 0.38077 0.0
C604 C 0.15905 0.12587 0.36601 0.0
H605 H 0.06266 0.09693 0.40132 0.0
H606 H 0.08635 0.12142 0.39912 0.0
H607 H 0.15307 0.09381 0.36728 0.0
H608 H 0.2107 0.17262 0.33645 0.0
H609 H 0.18722 0.14785 0.33763 0.0
H610 H 0.12057 0.17457 0.36931 0.0
C611 C 0.09049 0.10769 0.38758 0.0
C612 C 0.14575 0.11142 0.36749 0.0
C613 C 0.07701 0.09344 0.38907 0.0
C614 C 0.19636 0.17557 0.34879 0.0
C615 C 0.18302 0.16121 0.34967 0.0
C616 C 0.12787 0.15696 0.36902 0.0
C617 C 0.10914 0.10417 0.37159 0.0
C618 C 0.12334 0.11955 0.36981 0.0
C619 C 0.16441 0.1642 0.3657 0.0
C620 C 0.15027 0.14883 0.36684 0.0
H621 H 0.1049 0.05771 0.34752 0.0
H622 H 0.12815 0.08277 0.34458 0.0
H623 H 0.09741 0.14942 0.37179 0.0
H624 H 0.16843 0.20982 0.39173 0.0
H625 H 0.14536 0.18463 0.3935 0.0
C626 C 0.96121 0.06274 0.32957 0.0
C627 C 0.9823 0.06485 0.32667 0.0
C628 C 0.94404 0.08094 0.32475 0.0
C629 C 0.92959 0.14034 0.29954 0.0
H630 H 0.87896 0.14237 0.34386 0.0
C631 C 0.86164 0.22029 0.31543 0.0
C632 C 0.84061 0.2185 0.31436 0.0
C633 C 0.87891 0.20144 0.31528 0.0
C634 C 0.89291 0.14197 0.33123 0.0
H635 H 1.00215 0.08743 0.31575 0.0
H636 H 0.97217 0.11961 0.3082 0.0
H637 H 0.9091 0.10989 0.34564 0.0
H638 H 0.82126 0.19542 0.31256 0.0
H639 H 0.8514 0.16242 0.31307 0.0
H640 H 0.91342 0.1731 0.28604 0.0
C641 C 0.96876 0.10377 0.31349 0.0
C642 C 0.91023 0.12323 0.33206 0.0
C643 C 0.98603 0.08531 0.31777 0.0
C644 C 0.83724 0.19737 0.31346 0.0
C645 C 0.85448 0.17848 0.31378 0.0
C646 C 0.91236 0.15929 0.29903 0.0
C647 C 0.94745 0.10199 0.31763 0.0
C648 C 0.92884 0.12202 0.31616 0.0
C649 C 0.87552 0.18033 0.3145 0.0
C650 C 0.89382 0.16025 0.31483 0.0
H651 H 0.95793 0.04708 0.33635 0.0
H652 H 0.92803 0.07857 0.32732 0.0
H653 H 0.94342 0.14006 0.28677 0.0
H654 H 0.86484 0.23633 0.3159 0.0
H655 H 0.89493 0.20334 0.31604 0.0
C656 C 0.98437 0.95153 0.38677 0.0
C657 C 0.99681 0.95888 0.36704 0.0
C658 C 0.97146 0.93758 0.38335 0.0
C659 C 0.96436 0.89813 0.34141 0.0
H660 H 0.90718 0.90872 0.37381 0.0
C661 C 0.90402 0.84948 0.32223 0.0
C662 C 0.89176 0.8427 0.34249 0.0
C663 C 0.91661 0.86404 0.32458 0.0
C664 C 0.92319 0.90538 0.36482 0.0
H665 H 1.00568 0.95687 0.3283 0.0
H666 H 0.98298 0.93283 0.3223 0.0
H667 H 0.92975 0.93305 0.37941 0.0
H668 H 0.88277 0.8464 0.38101 0.0
H669 H 0.90502 0.87129 0.38521 0.0
H670 H 0.95786 0.87036 0.32694 0.0
C671 C 0.98329 0.93777 0.34045 0.0
C672 C 0.93613 0.91934 0.36804 0.0
C673 C 0.99614 0.95178 0.34385 0.0
C674 C 0.89225 0.85099 0.36509 0.0
C675 C 0.9048 0.86553 0.36743 0.0
C676 C 0.95143 0.88413 0.33821 0.0
C677 C 0.97074 0.93056 0.36014 0.0
C678 C 0.95691 0.91583 0.35647 0.0
C679 C 0.91717 0.87222 0.34724 0.0
C680 C 0.93072 0.88752 0.34998 0.0
H681 H 0.98437 0.95681 0.40481 0.0
H682 H 0.96216 0.93213 0.39896 0.0
H683 H 0.98038 0.8948 0.33246 0.0
H684 H 0.90411 0.8433 0.3046 0.0
H685 H 0.92578 0.86904 0.3086 0.0
C686 C 0.0972 0.96311 0.30866 0.0
C687 C 0.09911 0.97613 0.3272 0.0
C688 C 0.11428 0.94521 0.30182 0.0
C689 C 0.17277 0.92226 0.30522 0.0
H690 H 0.1614 0.86452 0.30627 0.0
C691 C 0.23913 0.84349 0.32095 0.0
C692 C 0.24107 0.82553 0.30679 0.0
C693 C 0.22112 0.86143 0.32056 0.0
C694 C 0.16482 0.88056 0.30554 0.0
H695 H 0.1206 0.98129 0.35227 0.0
H696 H 0.15028 0.95068 0.34009 0.0
H697 H 0.13147 0.89773 0.30892 0.0
H698 H 0.22501 0.81206 0.28177 0.0
H699 H 0.19328 0.84364 0.28115 0.0
H700 H 0.20598 0.9053 0.30233 0.0
C701 C 0.13571 0.95406 0.33085 0.0
C702 C 0.14769 0.89959 0.30699 0.0
C703 C 0.11865 0.97158 0.3379 0.0
C704 C 0.22401 0.82559 0.29296 0.0
C705 C 0.20585 0.84369 0.29256 0.0
C706 C 0.18981 0.90335 0.30372 0.0
C707 C 0.13366 0.94037 0.31307 0.0
C708 C 0.1515 0.92059 0.30756 0.0
C709 C 0.20446 0.86207 0.30594 0.0
C710 C 0.1861 0.88218 0.30462 0.0
H711 H 0.08224 0.96611 0.30028 0.0
H712 H 0.11226 0.935 0.28799 0.0
H713 H 0.17626 0.93822 0.30515 0.0
H714 H 0.25178 0.84395 0.33208 0.0
H715 H 0.22035 0.87497 0.33164 0.0
C716 C 0.10515 0.95846 0.73612 0.0
C717 C 0.09176 0.97239 0.75291 0.0
C718 C 0.12342 0.94277 0.74322 0.0
C719 C 0.14978 0.90975 0.79519 0.0
H720 H 0.20012 0.90353 0.74958 0.0
C721 C 0.23059 0.84526 0.81231 0.0
C722 C 0.24046 0.83302 0.79235 0.0
C723 C 0.21323 0.86381 0.80934 0.0
C724 C 0.1862 0.90495 0.76247 0.0
H725 H 0.08685 0.9802 0.7907 0.0
H726 H 0.11917 0.95241 0.80328 0.0
H727 H 0.16811 0.93294 0.74184 0.0
H728 H 0.23997 0.83103 0.75351 0.0
H729 H 0.20987 0.86331 0.74832 0.0
H730 H 0.16792 0.88142 0.81562 0.0
C731 C 0.11531 0.95384 0.78451 0.0
C732 C 0.16783 0.92184 0.75805 0.0
C733 C 0.09684 0.96974 0.77732 0.0
C734 C 0.23285 0.84008 0.76927 0.0
C735 C 0.21561 0.85868 0.76628 0.0
C736 C 0.16825 0.8928 0.79965 0.0
C737 C 0.12901 0.94046 0.76735 0.0
C738 C 0.1492 0.92412 0.77399 0.0
C739 C 0.20545 0.87067 0.7863 0.0
C740 C 0.18651 0.8899 0.78302 0.0
H741 H 0.10167 0.95974 0.71722 0.0
H742 H 0.13324 0.93237 0.72967 0.0
H743 H 0.13568 0.911 0.80778 0.0
H744 H 0.23598 0.84028 0.83039 0.0
H745 H 0.20591 0.87278 0.82508 0.0
C746 C 0.08915 0.09779 0.70578 0.0
C747 C 0.09106 0.07648 0.71726 0.0
C748 C 0.10245 0.1107 0.71111 0.0
C749 C 0.13717 0.11623 0.75815 0.0
H750 H 0.1585 0.15369 0.70723 0.0
C751 C 0.2026 0.161 0.77058 0.0
C752 C 0.19992 0.18265 0.75971 0.0
C753 C 0.18858 0.14838 0.76662 0.0
C754 C 0.15247 0.1435 0.7217 0.0
H755 H 0.10892 0.05168 0.74261 0.0
H756 H 0.13234 0.07401 0.75164 0.0
H757 H 0.13623 0.13059 0.69713 0.0
H758 H 0.17965 0.20845 0.73736 0.0
H759 H 0.15533 0.1864 0.73035 0.0
H760 H 0.15373 0.129 0.78263 0.0
C761 C 0.12022 0.08101 0.73899 0.0
C762 C 0.13969 0.13026 0.71592 0.0
C763 C 0.10686 0.06817 0.73376 0.0
C764 C 0.18243 0.19168 0.74559 0.0
C765 C 0.1685 0.17905 0.74156 0.0
C766 C 0.15007 0.1294 0.7639 0.0
C767 C 0.11805 0.10253 0.72792 0.0
C768 C 0.13184 0.11648 0.73407 0.0
C769 C 0.17164 0.15713 0.75165 0.0
C770 C 0.1578 0.14323 0.74575 0.0
H771 H 0.07695 0.10479 0.69326 0.0
H772 H 0.10011 0.12731 0.70249 0.0
H773 H 0.13112 0.10609 0.77266 0.0
H774 H 0.21603 0.15346 0.78134 0.0
H775 H 0.1915 0.13149 0.77452 0.0
C776 C 0.97821 0.07903 0.7781 0.0
C777 C 0.98689 0.07849 0.75376 0.0
C778 C 0.96181 0.09732 0.78555 0.0
C779 C 0.9379 0.15648 0.76812 0.0
H780 H 0.88503 0.14725 0.80106 0.0
C781 C 0.8656 0.22967 0.79236 0.0
C782 C 0.84542 0.22775 0.78717 0.0
C783 C 0.8835 0.21147 0.79131 0.0
C784 C 0.89971 0.15009 0.79186 0.0
H785 H 0.98561 0.09698 0.71844 0.0
H786 H 0.95761 0.12853 0.73141 0.0
H787 H 0.91578 0.11545 0.79443 0.0
H788 H 0.82835 0.20493 0.77705 0.0
H789 H 0.85957 0.17335 0.77501 0.0
H790 H 0.9218 0.19093 0.76479 0.0
C791 C 0.96326 0.11498 0.74477 0.0
C792 C 0.91738 0.1319 0.78834 0.0
C793 C 0.97925 0.09673 0.7373 0.0
C794 C 0.84362 0.20711 0.78103 0.0
C795 C 0.8615 0.18889 0.78011 0.0
C796 C 0.92034 0.17462 0.77178 0.0
C797 C 0.95423 0.11551 0.7689 0.0
C798 C 0.93651 0.13486 0.77591 0.0
C799 C 0.88168 0.19084 0.7852 0.0
C800 C 0.90087 0.17164 0.78324 0.0
H801 H 0.98374 0.0652 0.79116 0.0
H802 H 0.95514 0.09731 0.8043 0.0
H803 H 0.95248 0.15931 0.75864 0.0
H804 H 0.86761 0.24523 0.79732 0.0
H805 H 0.89876 0.21351 0.79553 0.0
C806 C 0.99003 0.95861 0.70018 0.0
C807 C 0.98842 0.97564 0.71555 0.0
C808 C 0.97549 0.94544 0.70353 0.0
C809 C 0.92163 0.94426 0.73162 0.0
H810 H 0.9423 0.88099 0.72577 0.0
C811 C 0.86721 0.88469 0.75709 0.0
C812 C 0.86896 0.86784 0.74142 0.0
C813 C 0.88197 0.89761 0.7544 0.0
C814 C 0.93623 0.89866 0.72722 0.0
H815 H 0.96991 0.99239 0.74626 0.0
H816 H 0.94478 0.96922 0.75234 0.0
H817 H 0.96752 0.90411 0.71995 0.0
H818 H 0.88755 0.8515 0.71052 0.0
H819 H 0.91328 0.87401 0.70585 0.0
H820 H 0.89033 0.93883 0.73883 0.0
C821 C 0.95722 0.96614 0.73757 0.0
C822 C 0.95069 0.91192 0.72387 0.0
C823 C 0.97179 0.97928 0.73425 0.0
C824 C 0.88593 0.86411 0.72314 0.0
C825 C 0.90068 0.87702 0.72045 0.0
C826 C 0.90717 0.931 0.73496 0.0
C827 C 0.95894 0.94901 0.72231 0.0
C828 C 0.94356 0.93489 0.72598 0.0
C829 C 0.89883 0.894 0.73598 0.0
C830 C 0.91428 0.90805 0.73276 0.0
H831 H 1.00273 0.95518 0.68576 0.0
H832 H 0.97713 0.93255 0.69127 0.0
H833 H 0.91555 0.96193 0.73303 0.0
H834 H 0.85452 0.88778 0.77159 0.0
H835 H 0.88028 0.9103 0.76692 0.0
C836 C 0.2589 0.13098 0.14254 0.0
C837 C 0.27192 0.10975 0.13822 0.0
C838 C 0.26449 0.14389 0.15865 0.0
C839 C 0.30867 0.15256 0.1896 0.0
H840 H 0.26274 0.17976 0.23605 0.0
C841 C 0.29006 0.20661 0.28028 0.0
C842 C 0.29875 0.22448 0.27179 0.0
C843 C 0.29056 0.19 0.26509 0.0
C844 C 0.27584 0.17209 0.22341 0.0
H845 H 0.30145 0.08578 0.14708 0.0
H846 H 0.31129 0.10856 0.17513 0.0
H847 H 0.25593 0.15649 0.20677 0.0
H848 H 0.31626 0.23804 0.24133 0.0
H849 H 0.31694 0.20898 0.21458 0.0
H850 H 0.32851 0.1685 0.20632 0.0
C851 C 0.29676 0.1151 0.16591 0.0
C852 C 0.27185 0.15897 0.20644 0.0
C853 C 0.2911 0.10208 0.14983 0.0
C854 C 0.30944 0.22448 0.24839 0.0
C855 C 0.30985 0.20783 0.23308 0.0
C856 C 0.31265 0.16592 0.20655 0.0
C857 C 0.28329 0.13598 0.17079 0.0
C858 C 0.28813 0.14921 0.18922 0.0
C859 C 0.29964 0.19093 0.24099 0.0
C860 C 0.29622 0.17584 0.22361 0.0
H861 H 0.24433 0.1377 0.13349 0.0
H862 H 0.25401 0.16011 0.1617 0.0
H863 H 0.32149 0.14527 0.17645 0.0
H864 H 0.28198 0.20595 0.29835 0.0
H865 H 0.28299 0.17691 0.27188 0.0
C866 C 0.97668 0.33581 0.15592 0.0
C867 C 0.98884 0.31907 0.14136 0.0
C868 C 0.95885 0.33262 0.17092 0.0
C869 C 0.93331 0.28844 0.19882 0.0
H870 H 0.88223 0.33693 0.2045 0.0
C871 C 0.85207 0.27537 0.24085 0.0
C872 C 0.84044 0.29051 0.25752 0.0
C873 C 0.87008 0.27928 0.22687 0.0
C874 C 0.89644 0.32328 0.20325 0.0
H875 H 0.99147 0.286 0.13085 0.0
H876 H 0.96049 0.28053 0.15663 0.0
H877 H 0.91408 0.34291 0.18035 0.0
H878 H 0.83842 0.3219 0.27218 0.0
H879 H 0.86973 0.32877 0.24764 0.0
H880 H 0.91551 0.26875 0.2214 0.0
C881 C 0.96495 0.29593 0.15704 0.0
C882 C 0.91474 0.32671 0.18948 0.0
C883 C 0.98279 0.29907 0.14221 0.0
C884 C 0.84699 0.30988 0.25952 0.0
C885 C 0.86489 0.31388 0.24538 0.0
C886 C 0.91497 0.28499 0.21242 0.0
C887 C 0.9527 0.31266 0.17159 0.0
C888 C 0.9334 0.3093 0.18698 0.0
C889 C 0.87678 0.29851 0.22908 0.0
C890 C 0.89629 0.30233 0.21472 0.0
H891 H 0.98102 0.35133 0.15583 0.0
H892 H 0.95 0.34576 0.18212 0.0
H893 H 0.94748 0.27474 0.19774 0.0
H894 H 0.84752 0.26026 0.23886 0.0
H895 H 0.87875 0.26725 0.21426 0.0
C896 C 0.79929 0.94574 0.09926 0.0
C897 C 0.81132 0.93562 0.07889 0.0
C898 C 0.79675 0.93329 0.12116 0.0
C899 C 0.82041 0.88147 0.15621 0.0
H900 H 0.7633 0.88867 0.18836 0.0
C901 C 0.77589 0.82923 0.23272 0.0
C902 C 0.79109 0.82401 0.25018 0.0
C903 C 0.77704 0.84526 0.21355 0.0
C904 C 0.77932 0.88652 0.17958 0.0
H905 H 0.83047 0.90436 0.06602 0.0
H906 H 0.82637 0.88278 0.10439 0.0
H907 H 0.76881 0.91143 0.15098 0.0
H908 H 0.81847 0.83276 0.26215 0.0
H909 H 0.82036 0.86061 0.22884 0.0
H910 H 0.83092 0.8564 0.18454 0.0
C911 C 0.8189 0.9004 0.10328 0.0
C912 C 0.78251 0.89963 0.15832 0.0
C913 C 0.8213 0.91282 0.08129 0.0
C914 C 0.80659 0.83617 0.24892 0.0
C915 C 0.80779 0.85206 0.22975 0.0
C916 C 0.81727 0.86855 0.17757 0.0
C917 C 0.80636 0.91046 0.12334 0.0
C918 C 0.80307 0.89711 0.14633 0.0
C919 C 0.79346 0.85628 0.21146 0.0
C920 C 0.79668 0.87085 0.18942 0.0
H921 H 0.79175 0.96331 0.09835 0.0
H922 H 0.7873 0.94155 0.13645 0.0
H923 H 0.83645 0.87928 0.14746 0.0
H924 H 0.76376 0.82018 0.23312 0.0
H925 H 0.76579 0.84816 0.19968 0.0
C926 C 0.10202 0.69461 0.08424 0.0
C927 C 0.08504 0.71291 0.0785 0.0
C928 C 0.11749 0.69668 0.09913 0.0
C929 C 0.12748 0.73217 0.14402 0.0
H930 H 0.18717 0.70965 0.1218 0.0
C931 C 0.19512 0.75946 0.18229 0.0
C932 C 0.21412 0.74314 0.1865 0.0
C933 C 0.17922 0.75474 0.17004 0.0
C934 C 0.17059 0.7158 0.12845 0.0
H935 H 0.0703 0.74735 0.08482 0.0
H936 H 0.09724 0.75102 0.11042 0.0
H937 H 0.15941 0.70227 0.09977 0.0
H938 H 0.2311 0.70892 0.18164 0.0
H939 H 0.20344 0.70073 0.1603 0.0
H940 H 0.13862 0.74587 0.17255 0.0
C941 C 0.09871 0.73508 0.10351 0.0
C942 C 0.15469 0.71152 0.11585 0.0
C943 C 0.08341 0.73305 0.08857 0.0
C944 C 0.21685 0.72201 0.17823 0.0
C945 C 0.20097 0.71729 0.16603 0.0
C946 C 0.14337 0.73642 0.15663 0.0
C947 C 0.11606 0.71702 0.10873 0.0
C948 C 0.13296 0.71989 0.12333 0.0
C949 C 0.18197 0.73358 0.16181 0.0
C950 C 0.1651 0.72849 0.14884 0.0
H951 H 0.10366 0.67893 0.07668 0.0
H952 H 0.13062 0.68241 0.10303 0.0
H953 H 0.11087 0.73858 0.15042 0.0
H954 H 0.19263 0.77594 0.18826 0.0
H955 H 0.16489 0.76776 0.16675 0.0
C956 C 0.23931 0.97422 0.06416 0.0
C957 C 0.23155 0.99438 0.05059 0.0
C958 C 0.2391 0.95419 0.05532 0.0
C959 C 0.21881 0.92897 1.00763 0.0
H960 H 0.27538 0.8885 1.00651 0.0
C961 C 0.2726 0.84301 0.96297 0.0
C962 C 0.2666 0.84818 0.93899 0.0
C963 C 0.26441 0.85802 0.98078 0.0
C964 C 0.25931 0.89926 1.00709 0.0
H965 H 0.21612 0.00934 0.01787 0.0
H966 H 0.21576 0.97449 1.00248 0.0
H967 H 0.26722 0.92012 0.03099 0.0
H968 H 0.24682 0.87277 0.91502 0.0
H969 H 0.23285 0.8991 0.94585 0.0
H970 H 0.21117 0.90838 0.98302 0.0
C971 C 0.22189 0.97414 0.02004 0.0
C972 C 0.25463 0.91744 0.02116 0.0
C973 C 0.22212 0.99417 0.02887 0.0
C974 C 0.25157 0.86823 0.93341 0.0
C975 C 0.2435 0.8833 0.95114 0.0
C976 C 0.22346 0.91067 0.99361 0.0
C977 C 0.23106 0.95392 0.03275 0.0
C978 C 0.23454 0.93284 0.02106 0.0
C979 C 0.25018 0.8786 0.97491 0.0
C980 C 0.24398 0.89596 0.99263 0.0
H981 H 0.24623 0.97387 0.08123 0.0
H982 H 0.24593 0.93887 0.06573 0.0
H983 H 0.20309 0.94041 1.00745 0.0
H984 H 0.28392 0.8275 0.96786 0.0
H985 H 0.2696 0.85372 0.99901 0.0
C986 C 0.12666 0.31081 1.00566 0.0
C987 C 0.10515 0.31918 1.0005 0.0
C988 C 0.14293 0.30678 0.98678 0.0
C989 C 0.15317 0.29503 0.92216 0.0
H990 H 0.20536 0.31288 0.92645 0.0
C991 C 0.2225 0.28306 0.84489 0.0
C992 C 0.2434 0.2767 0.85248 0.0
C993 C 0.20481 0.28923 0.86191 0.0
C994 C 0.191 0.30754 0.92504 0.0
H995 H 0.08389 0.32956 0.97137 0.0
H996 H 0.11228 0.32253 0.93845 0.0
H997 H 0.17639 0.32149 0.95834 0.0
H998 H 0.26196 0.2712 0.8841 0.0
H999 H 0.23148 0.28133 0.91338 0.0
H1000 H 0.16799 0.28061 0.88911 0.0
C1001 C 0.11654 0.31914 0.95712 0.0
C1002 C 0.17438 0.31253 0.94334 0.0
C1003 C 0.1003 0.32341 0.976 0.0
C1004 C 0.24615 0.27629 0.87743 0.0
C1005 C 0.2286 0.28227 0.89433 0.0
C1006 C 0.16992 0.28985 0.9039 0.0
C1007 C 0.13804 0.31079 0.96229 0.0
C1008 C 0.15535 0.30616 0.94226 0.0
C1009 C 0.20768 0.28906 0.88685 0.0
C1010 C 0.18918 0.29579 0.90527 0.0
H1011 H 0.13089 0.30747 0.02433 0.0
H1012 H 0.15933 0.30016 0.99136 0.0
H1013 H 0.13874 0.28977 0.92089 0.0
H1014 H 0.21982 0.28355 0.82582 0.0
H1015 H 0.18893 0.29447 0.85546 0.0
C1016 C 0.8117 0.07199 0.95378 0.0
C1017 C 0.80927 0.05454 0.94119 0.0
C1018 C 0.80903 0.09323 0.94226 0.0
C1019 C 0.78019 0.12957 0.89508 0.0
H1020 H 0.82193 0.1636 0.89619 0.0
C1021 C 0.77442 0.21262 0.83796 0.0
C1022 C 0.78288 0.22859 0.84662 0.0
C1023 C 0.7765 0.19189 0.85061 0.0
C1024 C 0.80986 0.15455 0.8961 0.0
H1025 H 0.8023 0.04548 0.90671 0.0
H1026 H 0.79728 0.08282 0.88658 0.0
H1027 H 0.82879 0.12613 0.91556 0.0
H1028 H 0.79896 0.2359 0.87606 0.0
H1029 H 0.80168 0.20018 0.89876 0.0
H1030 H 0.76091 0.15803 0.87631 0.0
C1031 C 0.80142 0.07995 0.90531 0.0
C1032 C 0.81393 0.13301 0.90703 0.0
C1033 C 0.80449 0.05861 0.91671 0.0
C1034 C 0.79241 0.22386 0.86885 0.0
C1035 C 0.79417 0.20326 0.88172 0.0
C1036 C 0.77593 0.15125 0.88449 0.0
C1037 C 0.80348 0.09748 0.91807 0.0
C1038 C 0.79921 0.12028 0.90646 0.0
C1039 C 0.7868 0.18676 0.87242 0.0
C1040 C 0.79078 0.16401 0.88471 0.0
H1041 H 0.81542 0.0692 0.97265 0.0
H1042 H 0.81063 0.10649 0.9525 0.0
H1043 H 0.76844 0.12016 0.89472 0.0
H1044 H 0.7672 0.21568 0.82073 0.0
H1045 H 0.77085 0.1796 0.84265 0.0
C1046 C 0.96662 0.71138 0.94608 0.0
C1047 C 0.97434 0.72885 0.9525 0.0
C1048 C 0.94939 0.71553 0.93156 0.0
C1049 C 0.91847 0.75767 0.88811 0.0
H1050 H 0.87554 0.72468 0.90414 0.0
C1051 C 0.8497 0.7638 0.82646 0.0
C1052 C 0.82932 0.76452 0.83826 0.0
C1053 C 0.86775 0.75916 0.83984 0.0
C1054 C 0.88731 0.73415 0.89948 0.0
H1055 H 0.96997 0.76444 0.94821 0.0
H1056 H 0.93964 0.77171 0.92336 0.0
H1057 H 0.90598 0.71767 0.92874 0.0
H1058 H 0.81206 0.76093 0.8735 0.0
H1059 H 0.84336 0.7531 0.89669 0.0
H1060 H 0.89946 0.77455 0.85921 0.0
C1061 C 0.94711 0.75474 0.92936 0.0
C1062 C 0.90492 0.72993 0.91343 0.0
C1063 C 0.96436 0.75059 0.9439 0.0
C1064 C 0.82748 0.76043 0.86373 0.0
C1065 C 0.84549 0.75579 0.87707 0.0
C1066 C 0.90083 0.76189 0.87415 0.0
C1067 C 0.93935 0.73727 0.92307 0.0
C1068 C 0.92072 0.74167 0.90798 0.0
C1069 C 0.86587 0.7551 0.86533 0.0
C1070 C 0.88497 0.75025 0.87972 0.0
H1071 H 0.9737 0.69446 0.95252 0.0
H1072 H 0.94402 0.70164 0.92686 0.0
H1073 H 0.93044 0.76685 0.88323 0.0
H1074 H 0.85173 0.76687 0.80687 0.0
H1075 H 0.88323 0.75851 0.83017 0.0
C1076 C 0.10933 0.27654 0.14334 0.0
C1077 C 0.10958 0.29179 0.12299 0.0
C1078 C 0.12466 0.27326 0.16059 0.0
C1079 C 0.17844 0.28036 0.16881 0.0
H1080 H 0.15866 0.28655 0.23685 0.0
C1081 C 0.2339 0.29528 0.23712 0.0
C1082 C 0.23235 0.28661 0.26145 0.0
C1083 C 0.21892 0.29436 0.22096 0.0
C1084 C 0.16463 0.2844 0.21803 0.0
H1085 H 0.1266 0.31481 0.10437 0.0
H1086 H 0.15347 0.30859 0.1337 0.0
H1087 H 0.13332 0.28598 0.20726 0.0
H1088 H 0.21355 0.27007 0.28774 0.0
H1089 H 0.18771 0.26795 0.25948 0.0
H1090 H 0.2097 0.27849 0.17927 0.0
C1091 C 0.14143 0.29931 0.13662 0.0
C1092 C 0.15002 0.28408 0.20102 0.0
C1093 C 0.12596 0.30291 0.1198 0.0
C1094 C 0.21518 0.27714 0.26921 0.0
C1095 C 0.20028 0.27597 0.25293 0.0
C1096 C 0.19307 0.28039 0.18578 0.0
C1097 C 0.14082 0.28476 0.1575 0.0
C1098 C 0.15666 0.2825 0.17611 0.0
C1099 C 0.20198 0.28441 0.22843 0.0
C1100 C 0.18639 0.28289 0.21063 0.0
H1101 H 0.09678 0.26791 0.14646 0.0
H1102 H 0.12379 0.26186 0.17642 0.0
H1103 H 0.1842 0.27879 0.14984 0.0
H1104 H 0.24678 0.30285 0.23045 0.0
H1105 H 0.22063 0.30162 0.20256 0.0
C1106 C 0.07992 0.75425 0.94122 0.0
C1107 C 0.07471 0.75897 0.96573 0.0
C1108 C 0.09818 0.75869 0.92835 0.0
C1109 C 0.15224 0.76259 0.93698 0.0
H1110 H 0.15178 0.7849 0.86919 0.0
C1111 C 0.23012 0.77069 0.8771 0.0
C1112 C 0.2314 0.76624 0.85245 0.0
C1113 C 0.21107 0.77171 0.8921 0.0
C1114 C 0.15235 0.77837 0.88801 0.0
H1115 H 0.08457 0.77233 0.99597 0.0
H1116 H 0.11691 0.77996 0.97343 0.0
H1117 H 0.11818 0.78461 0.89288 0.0
H1118 H 0.21371 0.75865 0.82464 0.0
H1119 H 0.18111 0.75979 0.85063 0.0
H1120 H 0.18651 0.75566 0.93188 0.0
C1121 C 0.1066 0.77298 0.96414 0.0
C1122 C 0.13297 0.77836 0.90168 0.0
C1123 C 0.08796 0.76889 0.97696 0.0
C1124 C 0.21335 0.76232 0.84343 0.0
C1125 C 0.19446 0.76319 0.85838 0.0
C1126 C 0.17173 0.76243 0.92321 0.0
C1127 C 0.11208 0.76763 0.93973 0.0
C1128 C 0.13263 0.7701 0.92623 0.0
C1129 C 0.19283 0.76824 0.88287 0.0
C1130 C 0.17211 0.76989 0.89834 0.0
H1131 H 0.07017 0.74638 0.93215 0.0
H1132 H 0.10193 0.75413 0.90972 0.0
H1133 H 0.15261 0.75593 0.95578 0.0
H1134 H 0.24363 0.77396 0.88465 0.0
H1135 H 0.2105 0.77577 0.91077 0.0
C1136 C 0.2975 0.07874 1.00221 0.0
C1137 C 0.30906 0.07888 0.02234 0.0
C1138 C 0.29979 0.09219 0.98094 0.0
C1139 C 0.31648 0.14346 0.96001 0.0
H1140 H 0.31099 0.12655 0.89587 0.0
C1141 C 0.32393 0.20095 0.87326 0.0
C1142 C 0.30833 0.20348 0.85657 0.0
C1143 C 0.32597 0.18441 0.89239 0.0
C1144 C 0.31242 0.13156 0.91368 0.0
H1145 H 0.33294 0.09254 0.03532 0.0
H1146 H 0.33733 0.11559 0.99805 0.0
H1147 H 0.31183 0.09967 0.93097 0.0
H1148 H 0.28302 0.19009 0.84666 0.0
H1149 H 0.28662 0.16125 0.88002 0.0
H1150 H 0.317 0.17535 0.94273 0.0
C1151 C 0.32606 0.10547 0.99891 0.0
C1152 C 0.31289 0.11615 0.93384 0.0
C1153 C 0.32368 0.09209 0.02024 0.0
C1154 C 0.29521 0.18866 0.85915 0.0
C1155 C 0.29734 0.17203 0.87822 0.0
C1156 C 0.31614 0.1588 0.93985 0.0
C1157 C 0.3138 0.10608 0.97915 0.0
C1158 C 0.31471 0.12195 0.95734 0.0
C1159 C 0.31256 0.16988 0.89527 0.0
C1160 C 0.31391 0.15312 0.91647 0.0
H1161 H 0.28603 0.06883 1.00315 0.0
H1162 H 0.2899 0.09233 0.96628 0.0
H1163 H 0.31749 0.14873 0.97782 0.0
H1164 H 0.33436 0.21201 0.87186 0.0
H1165 H 0.33804 0.18305 0.905 0.0
C1166 C 1.00147 0.25604 0.05565 0.0
C1167 C 0.01927 0.26465 0.04849 0.0
C1168 C 0.98697 0.25525 0.03881 0.0
C1169 C 0.97926 0.2597 0.97222 0.0
H1170 H 0.91907 0.2778 0.99427 0.0
C1171 C 0.91225 0.2848 0.90517 0.0
C1172 C 0.89264 0.27941 0.912 0.0
C1173 C 0.92819 0.28088 0.92155 0.0
C1174 C 0.93578 0.27237 0.98782 0.0
H1175 H 0.03611 0.27839 0.01752 0.0
H1176 H 1.0109 0.27706 0.98827 0.0
H1177 H 0.94603 0.27428 0.02294 0.0
H1178 H 0.87476 0.26528 0.94165 0.0
H1179 H 0.90265 0.25806 0.97002 0.0
H1180 H 0.96896 0.25806 0.937 0.0
C1181 C 1.00817 0.27075 1.0069 0.0
C1182 C 0.95132 0.27034 1.00434 0.0
C1183 C 0.02267 0.27155 0.02375 0.0
C1184 C 0.88966 0.26952 0.9356 0.0
C1185 C 0.9056 0.26562 0.95202 0.0
C1186 C 0.96371 0.26173 0.95569 0.0
C1187 C 0.98984 0.26304 0.01428 0.0
C1188 C 0.97331 0.26412 0.99678 0.0
C1189 C 0.92505 0.27143 0.94532 0.0
C1190 C 0.94171 0.26826 0.96318 0.0
H1191 H 0.99829 0.25053 0.07449 0.0
H1192 H 0.97331 0.2488 0.04513 0.0
H1193 H 0.99599 0.25455 0.96574 0.0
H1194 H 0.91531 0.29217 0.88709 0.0
H1195 H 0.9428 0.28578 0.9157 0.0
C1196 C 0.74584 0.96787 0.95945 0.0
C1197 C 0.75005 0.95842 0.98311 0.0
C1198 C 0.74239 0.95508 0.94162 0.0
C1199 C 0.73375 0.89979 0.93191 0.0
H1200 H 0.7633 0.90885 0.86884 0.0
C1201 C 0.73929 0.84152 0.85524 0.0
C1202 C 0.75899 0.83575 0.84126 0.0
C1203 C 0.73509 0.85856 0.87104 0.0
C1204 C 0.75507 0.90596 0.88637 0.0
H1205 H 0.7526 0.92841 1.0069 0.0
H1206 H 0.74714 0.90612 0.97591 0.0
H1207 H 0.76077 0.93452 0.89976 0.0
H1208 H 0.78964 0.84357 0.83278 0.0
H1209 H 0.78263 0.87268 0.86069 0.0
H1210 H 0.72924 0.87045 0.919 0.0
C1211 C 0.74615 0.92346 0.97104 0.0
C1212 C 0.75328 0.92097 0.90406 0.0
C1213 C 0.7494 0.93629 0.98889 0.0
C1214 C 0.77424 0.84765 0.84316 0.0
C1215 C 0.77013 0.86451 0.85911 0.0
C1216 C 0.73574 0.88465 0.91429 0.0
C1217 C 0.74324 0.93248 0.94695 0.0
C1218 C 0.74292 0.9179 0.92725 0.0
C1219 C 0.75056 0.87012 0.87343 0.0
C1220 C 0.74677 0.8873 0.89142 0.0
H1221 H 0.74608 0.98492 0.9544 0.0
H1222 H 0.73967 0.96278 0.92345 0.0
H1223 H 0.72535 0.89703 0.94937 0.0
H1224 H 0.72712 0.8328 0.85411 0.0
H1225 H 0.71969 0.86262 0.88142 0.0
C1226 C 0.95462 0.74652 0.06828 0.0
C1227 C 0.97348 0.75361 0.06744 0.0
C1228 C 0.93993 0.74917 0.08873 0.0
C1229 C 0.92397 0.77632 0.14749 0.0
H1230 H 0.89877 0.72668 0.16365 0.0
C1231 C 0.8703 0.76544 0.23771 0.0
C1232 C 0.85154 0.759 0.23477 0.0
C1233 C 0.8859 0.76561 0.21811 0.0
C1234 C 0.90551 0.74077 0.15937 0.0
H1235 H 0.99132 0.7699 0.0872 0.0
H1236 H 0.96572 0.77427 0.12343 0.0
H1237 H 0.92401 0.7264 0.12814 0.0
H1238 H 0.83474 0.74757 0.20876 0.0
H1239 H 0.86182 0.74759 0.17506 0.0
H1240 H 0.90545 0.79043 0.17925 0.0
C1241 C 0.96214 0.76689 0.108 0.0
C1242 C 0.91998 0.7407 0.13883 0.0
C1243 C 0.97681 0.76448 0.0872 0.0
C1244 C 0.84894 0.75257 0.21184 0.0
C1245 C 0.86457 0.7525 0.19245 0.0
C1246 C 0.90952 0.77631 0.16827 0.0
C1247 C 0.94379 0.75861 0.10933 0.0
C1248 C 0.92916 0.75864 0.13221 0.0
C1249 C 0.88327 0.75903 0.19523 0.0
C1250 C 0.89982 0.75867 0.17423 0.0
H1251 H 0.95148 0.73824 0.05327 0.0
H1252 H 0.92572 0.74327 0.08854 0.0
H1253 H 0.93062 0.79046 0.14306 0.0
H1254 H 0.87279 0.77067 0.25503 0.0
H1255 H 0.90015 0.77063 0.22095 0.0
C1256 C 0.28663 0.99241 0.15683 0.0
C1257 C 0.29366 0.99477 0.13208 0.0
C1258 C 0.29217 0.97192 0.17009 0.0
C1259 C 0.30705 0.91225 0.16206 0.0
H1260 H 0.31664 0.90789 0.2306 0.0
C1261 C 0.29504 0.83854 0.22835 0.0
C1262 C 0.30856 0.83126 0.24743 0.0
C1263 C 0.29639 0.85727 0.21295 0.0
C1264 C 0.31428 0.90866 0.21141 0.0
H1265 H 0.31262 0.97749 0.102 0.0
H1266 H 0.32243 0.94147 0.12531 0.0
H1267 H 0.31463 0.94281 0.20645 0.0
H1268 H 0.33457 0.83776 0.26478 0.0
H1269 H 0.33706 0.87023 0.23781 0.0
H1270 H 0.30661 0.87808 0.16708 0.0
C1271 C 0.31248 0.95558 0.13437 0.0
C1272 C 0.3129 0.9288 0.19759 0.0
C1273 C 0.30705 0.97624 0.12108 0.0
C1274 C 0.32381 0.84291 0.25036 0.0
C1275 C 0.32517 0.86164 0.23495 0.0
C1276 C 0.3084 0.89208 0.1759 0.0
C1277 C 0.30484 0.95312 0.15897 0.0
C1278 C 0.30886 0.931 0.17285 0.0
C1279 C 0.31131 0.86924 0.21621 0.0
C1280 C 0.31166 0.89012 0.20088 0.0
H1281 H 0.2763 0.00633 0.16589 0.0
H1282 H 0.28576 0.97067 0.18887 0.0
H1283 H 0.30377 0.91335 0.14311 0.0
H1284 H 0.28306 0.83004 0.22554 0.0
H1285 H 0.28525 0.86276 0.19896 0.0
C1286 C 0.80465 0.05297 0.05904 0.0
C1287 C 0.78727 0.04472 0.05497 0.0
C1288 C 0.80223 0.06932 0.07518 0.0
C1289 C 0.76253 0.11282 0.10776 0.0
H1290 H 0.80959 0.10726 0.14787 0.0
C1291 C 0.75923 0.17037 0.18503 0.0
C1292 C 0.77763 0.17783 0.18672 0.0
C1293 C 0.75948 0.15431 0.16908 0.0
C1294 C 0.7964 0.10918 0.13665 0.0
H1295 H 0.7535 0.04757 0.06434 0.0
H1296 H 0.74927 0.07614 0.09312 0.0
H1297 H 0.81114 0.0788 0.12041 0.0
H1298 H 0.81069 0.17428 0.17284 0.0
H1299 H 0.81111 0.1463 0.14491 0.0
H1300 H 0.74777 0.14324 0.12431 0.0
C1301 C 0.76478 0.06999 0.08352 0.0
C1302 C 0.79727 0.09285 0.12087 0.0
C1303 C 0.76719 0.05359 0.06712 0.0
C1304 C 0.79624 0.16897 0.17191 0.0
C1305 C 0.79652 0.15279 0.15608 0.0
C1306 C 0.76161 0.12915 0.1237 0.0
C1307 C 0.7824 0.07782 0.08796 0.0
C1308 C 0.78052 0.0946 0.10592 0.0
C1309 C 0.77817 0.14521 0.15454 0.0
C1310 C 0.77868 0.12764 0.1381 0.0
H1311 H 0.82029 0.0468 0.04974 0.0
H1312 H 0.81601 0.07534 0.07757 0.0
H1313 H 0.74943 0.11479 0.09639 0.0
H1314 H 0.74455 0.17707 0.19593 0.0
H1315 H 0.74513 0.14874 0.16845 0.0
C1316 C 0.58439 0.58141 0.89653 0.0
C1317 C 0.58206 0.5694 0.87726 0.0
C1318 C 0.60052 0.59256 0.89489 0.0
C1319 C 0.63471 0.61689 0.84906 0.0
H1320 H 0.66331 0.62284 0.90529 0.0
C1321 C 0.69922 0.66599 0.84328 0.0
C1322 C 0.69714 0.68054 0.8617 0.0
C1323 C 0.68696 0.65053 0.84514 0.0
C1324 C 0.65537 0.6214 0.88945 0.0
H1325 H 0.59555 0.55918 0.84139 0.0
H1326 H 0.62397 0.5781 0.83884 0.0
H1327 H 0.63919 0.59855 0.90884 0.0
H1328 H 0.68029 0.69034 0.8964 0.0
H1329 H 0.65914 0.66329 0.89972 0.0
H1330 H 0.65077 0.63989 0.82974 0.0
C1331 C 0.61302 0.57923 0.85507 0.0
C1332 C 0.64154 0.60751 0.89149 0.0
C1333 C 0.59684 0.56812 0.85668 0.0
C1334 C 0.68262 0.67913 0.88209 0.0
C1335 C 0.67047 0.66363 0.884 0.0
C1336 C 0.64861 0.6307 0.847 0.0
C1337 C 0.61482 0.59191 0.87396 0.0
C1338 C 0.63081 0.60532 0.8714 0.0
C1339 C 0.67243 0.64922 0.86552 0.0
C1340 C 0.65886 0.63335 0.86727 0.0
H1341 H 0.57351 0.58249 0.91279 0.0
H1342 H 0.60131 0.6023 0.90973 0.0
H1343 H 0.62647 0.61588 0.83331 0.0
H1344 H 0.71047 0.66639 0.8275 0.0
H1345 H 0.68898 0.63948 0.83072 0.0
C1346 C 0.46012 0.56127 0.80108 0.0
C1347 C 0.4784 0.56396 0.81085 0.0
C1348 C 0.44182 0.57898 0.7991 0.0
C1349 C 0.41463 0.6297 0.82877 0.0
H1350 H 0.38042 0.64515 0.77313 0.0
C1351 C 0.34799 0.71028 0.82213 0.0
C1352 C 0.32929 0.71106 0.81088 0.0
C1353 C 0.36525 0.69154 0.82175 0.0
C1354 C 0.38958 0.64084 0.78899 0.0
H1355 H 0.49201 0.58784 0.82504 0.0
H1356 H 0.46017 0.61856 0.82164 0.0
H1357 H 0.41282 0.6145 0.77175 0.0
H1358 H 0.31416 0.69231 0.79059 0.0
H1359 H 0.34425 0.65917 0.79046 0.0
H1360 H 0.39146 0.65551 0.84631 0.0
C1361 C 0.45993 0.60268 0.81572 0.0
C1362 C 0.40822 0.62334 0.78812 0.0
C1363 C 0.47826 0.58508 0.81747 0.0
C1364 C 0.32824 0.69229 0.79955 0.0
C1365 C 0.3456 0.67336 0.79927 0.0
C1366 C 0.39596 0.64695 0.82975 0.0
C1367 C 0.44131 0.59971 0.80709 0.0
C1368 C 0.42115 0.61783 0.80787 0.0
C1369 C 0.3644 0.67279 0.81031 0.0
C1370 C 0.38333 0.65308 0.80974 0.0
H1371 H 0.45964 0.54525 0.79578 0.0
H1372 H 0.42774 0.57614 0.79239 0.0
H1373 H 0.42393 0.62553 0.84454 0.0
H1374 H 0.3496 0.72438 0.83093 0.0
H1375 H 0.37951 0.69205 0.83 0.0
C1376 C 0.4893 0.45274 0.85747 0.0
C1377 C 0.48112 0.4697 0.87335 0.0
C1378 C 0.47708 0.4384 0.85321 0.0
C1379 C 0.42116 0.43498 0.85608 0.0
H1380 H 0.44623 0.37188 0.8534 0.0
C1381 C 0.3703 0.37219 0.85941 0.0
C1382 C 0.37763 0.35387 0.84525 0.0
C1383 C 0.38294 0.38682 0.86076 0.0
C1384 C 0.43907 0.38951 0.8537 0.0
H1385 H 0.45377 0.48465 0.89748 0.0
H1386 H 0.43261 0.45939 0.89039 0.0
H1387 H 0.46861 0.39596 0.86071 0.0
H1388 H 0.40373 0.33685 0.82086 0.0
H1389 H 0.42575 0.36269 0.82291 0.0
H1390 H 0.3916 0.42856 0.84922 0.0
C1391 C 0.44839 0.45737 0.881 0.0
C1392 C 0.45188 0.40329 0.85796 0.0
C1393 C 0.46063 0.47167 0.88531 0.0
C1394 C 0.39761 0.35089 0.83183 0.0
C1395 C 0.4103 0.36553 0.83322 0.0
C1396 C 0.40837 0.42123 0.85178 0.0
C1397 C 0.45638 0.44074 0.8647 0.0
C1398 C 0.443 0.42614 0.85946 0.0
C1399 C 0.40321 0.3835 0.84795 0.0
C1400 C 0.41712 0.3983 0.85081 0.0
H1401 H 0.50512 0.45063 0.8482 0.0
H1402 H 0.48365 0.4258 0.84049 0.0
H1403 H 0.41395 0.45258 0.85664 0.0
H1404 H 0.35485 0.37508 0.86972 0.0
H1405 H 0.37706 0.40037 0.87245 0.0
C1406 C 0.59767 0.47356 0.8192 0.0
C1407 C 0.58291 0.46984 0.8385 0.0
C1408 C 0.61643 0.45698 0.81377 0.0
C1409 C 0.63967 0.39668 0.82082 0.0
H1410 H 0.69483 0.41032 0.81732 0.0
C1411 C 0.71894 0.33308 0.79443 0.0
C1412 C 0.73602 0.33076 0.80907 0.0
C1413 C 0.70044 0.35039 0.79705 0.0
C1414 C 0.67953 0.40628 0.81831 0.0
H1415 H 0.57584 0.44563 0.86659 0.0
H1416 H 0.60802 0.41674 0.85673 0.0
H1417 H 0.66183 0.44006 0.82215 0.0
H1418 H 0.74699 0.34506 0.83787 0.0
H1419 H 0.71458 0.37557 0.84229 0.0
H1420 H 0.65722 0.36297 0.8171 0.0
C1421 C 0.60532 0.43243 0.84594 0.0
C1422 C 0.66067 0.42332 0.82079 0.0
C1423 C 0.58691 0.44904 0.85163 0.0
C1424 C 0.73412 0.34629 0.82639 0.0
C1425 C 0.71564 0.36386 0.82878 0.0
C1426 C 0.65847 0.37974 0.81799 0.0
C1427 C 0.62047 0.43625 0.82719 0.0
C1428 C 0.64053 0.41865 0.82236 0.0
C1429 C 0.69856 0.36604 0.81418 0.0
C1430 C 0.67864 0.38428 0.81692 0.0
H1431 H 0.59508 0.48949 0.8089 0.0
H1432 H 0.6278 0.46034 0.79913 0.0
H1433 H 0.6244 0.39257 0.82191 0.0
H1434 H 0.71978 0.32144 0.78091 0.0
H1435 H 0.68766 0.35167 0.7854 0.0
C1436 C 0.60249 0.47163 0.27442 0.0
C1437 C 0.59762 0.47462 0.24993 0.0
C1438 C 0.62065 0.45537 0.28167 0.0
C1439 C 0.67276 0.42206 0.25569 0.0
H1440 H 0.67124 0.38257 0.31382 0.0
C1441 C 0.73661 0.3398 0.26957 0.0
C1442 C 0.74412 0.33362 0.29282 0.0
C1443 C 0.71935 0.35822 0.26589 0.0
C1444 C 0.672 0.39367 0.29768 0.0
H1445 H 0.60759 0.46231 0.21411 0.0
H1446 H 0.63864 0.43419 0.22669 0.0
H1447 H 0.63965 0.41267 0.30515 0.0
H1448 H 0.73931 0.34213 0.33047 0.0
H1449 H 0.70919 0.37427 0.32396 0.0
H1450 H 0.70486 0.40292 0.24792 0.0
C1451 C 0.6289 0.44462 0.24026 0.0
C1452 C 0.65391 0.41092 0.29275 0.0
C1453 C 0.61094 0.46073 0.23307 0.0
C1454 C 0.734 0.34641 0.31229 0.0
C1455 C 0.71662 0.36476 0.30862 0.0
C1456 C 0.69074 0.40484 0.26057 0.0
C1457 C 0.63422 0.44191 0.26452 0.0
C1458 C 0.65395 0.42502 0.2714 0.0
C1459 C 0.70909 0.37087 0.28538 0.0
C1460 C 0.69045 0.39017 0.28136 0.0
H1461 H 0.59253 0.48207 0.28784 0.0
H1462 H 0.62432 0.45367 0.30053 0.0
H1463 H 0.67352 0.43295 0.23938 0.0
H1464 H 0.74396 0.33033 0.25418 0.0
H1465 H 0.71376 0.36232 0.24781 0.0
C1466 C 0.60901 0.58535 0.19198 0.0
C1467 C 0.59697 0.57845 0.21235 0.0
C1468 C 0.62383 0.59742 0.19474 0.0
C1469 C 0.65491 0.6117 0.24086 0.0
H1470 H 0.65905 0.66046 0.19357 0.0
C1471 C 0.70034 0.677 0.2556 0.0
C1472 C 0.71235 0.68414 0.23531 0.0
C1473 C 0.68715 0.66309 0.25297 0.0
C1474 C 0.65828 0.64673 0.20679 0.0
H1475 H 0.59086 0.57919 0.25157 0.0
H1476 H 0.61646 0.60032 0.25635 0.0
H1477 H 0.63439 0.63826 0.18849 0.0
H1478 H 0.72063 0.68136 0.19656 0.0
H1479 H 0.6976 0.65727 0.19199 0.0
H1480 H 0.67864 0.62045 0.25932 0.0
C1481 C 0.61485 0.59601 0.23828 0.0
C1482 C 0.64415 0.63397 0.20386 0.0
C1483 C 0.60012 0.58388 0.23553 0.0
C1484 C 0.71125 0.67658 0.21248 0.0
C1485 C 0.69805 0.66276 0.20984 0.0
C1486 C 0.66899 0.62454 0.24385 0.0
C1487 C 0.62688 0.60297 0.21792 0.0
C1488 C 0.64225 0.61629 0.22086 0.0
C1489 C 0.68565 0.65605 0.22999 0.0
C1490 C 0.67084 0.64221 0.22684 0.0
H1491 H 0.60717 0.5812 0.17393 0.0
H1492 H 0.63305 0.6022 0.17869 0.0
H1493 H 0.65411 0.59801 0.25412 0.0
H1494 H 0.70065 0.68268 0.2734 0.0
H1495 H 0.67766 0.65838 0.26882 0.0
C1496 C 0.49092 0.5852 0.27773 0.0
C1497 C 0.48965 0.57624 0.25577 0.0
C1498 C 0.47471 0.60337 0.28575 0.0
C1499 C 0.41852 0.63438 0.27601 0.0
H1500 H 0.43479 0.68523 0.29486 0.0
C1501 C 0.36218 0.72116 0.26833 0.0
C1502 C 0.35891 0.73387 0.2886 0.0
C1503 C 0.37863 0.70174 0.26711 0.0
C1504 C 0.43 0.67106 0.2899 0.0
H1505 H 0.47007 0.5787 0.22558 0.0
H1506 H 0.44222 0.60994 0.23937 0.0
H1507 H 0.46212 0.65037 0.28928 0.0
H1508 H 0.3711 0.73659 0.32298 0.0
H1509 H 0.40012 0.70269 0.32056 0.0
H1510 H 0.38662 0.65516 0.27578 0.0
C1511 C 0.45549 0.60309 0.25057 0.0
C1512 C 0.44561 0.65107 0.28682 0.0
C1513 C 0.47161 0.58522 0.24254 0.0
C1514 C 0.37314 0.72719 0.30711 0.0
C1515 C 0.38978 0.70779 0.30574 0.0
C1516 C 0.40303 0.6543 0.27889 0.0
C1517 C 0.45689 0.6126 0.2721 0.0
C1518 C 0.44011 0.63268 0.27919 0.0
C1519 C 0.39234 0.69459 0.286 0.0
C1520 C 0.40867 0.67302 0.28524 0.0
H1521 H 0.50468 0.57867 0.28824 0.0
H1522 H 0.47619 0.61027 0.30249 0.0
H1523 H 0.41364 0.6204 0.27067 0.0
H1524 H 0.35159 0.72576 0.25372 0.0
H1525 H 0.38045 0.6921 0.25145 0.0
C1526 C 0.47778 0.48055 0.23646 0.0
C1527 C 0.49228 0.4788 0.21558 0.0
C1528 C 0.46274 0.46794 0.24004 0.0
C1529 C 0.45143 0.41772 0.21966 0.0
H1530 H 0.39424 0.4425 0.24874 0.0
C1531 C 0.38367 0.37411 0.22028 0.0
C1532 C 0.3711 0.37263 0.24233 0.0
C1533 C 0.39797 0.38751 0.21739 0.0
C1534 C 0.41021 0.4353 0.24079 0.0
H1535 H 0.50201 0.46221 0.18206 0.0
H1536 H 0.47546 0.44092 0.18789 0.0
H1537 H 0.42004 0.46504 0.24273 0.0
H1538 H 0.36356 0.38456 0.27852 0.0
H1539 H 0.38831 0.40831 0.27325 0.0
H1540 H 0.44146 0.38813 0.21739 0.0
C1541 C 0.47598 0.45173 0.20179 0.0
C1542 C 0.42504 0.44819 0.23739 0.0
C1543 C 0.4911 0.46424 0.19827 0.0
C1544 C 0.3728 0.38544 0.2612 0.0
C1545 C 0.38703 0.39901 0.25822 0.0
C1546 C 0.43657 0.40494 0.22289 0.0
C1547 C 0.46167 0.4533 0.22278 0.0
C1548 C 0.44585 0.43959 0.22669 0.0
C1549 C 0.39996 0.39997 0.23638 0.0
C1550 C 0.41577 0.41359 0.23341 0.0
H1551 H 0.4779 0.49174 0.25008 0.0
H1552 H 0.45214 0.46945 0.25655 0.0
H1553 H 0.46741 0.41033 0.21188 0.0
H1554 H 0.38245 0.36494 0.20512 0.0
H1555 H 0.40742 0.38822 0.20017 0.0
C1556 C 0.82031 0.6048 0.62912 0.0
C1557 C 0.80577 0.59231 0.62626 0.0
C1558 C 0.8149 0.62197 0.64466 0.0
C1559 C 0.78761 0.63941 0.70053 0.0
H1560 H 0.7885 0.69902 0.67539 0.0
C1561 C 0.77473 0.71109 0.76425 0.0
C1562 C 0.78563 0.7276 0.75731 0.0
C1563 C 0.77513 0.69479 0.74847 0.0
C1564 C 0.7885 0.68244 0.68286 0.0
H1565 H 0.77411 0.58798 0.63747 0.0
H1566 H 0.76486 0.61783 0.66573 0.0
H1567 H 0.79227 0.67044 0.64725 0.0
H1568 H 0.80611 0.73949 0.72877 0.0
H1569 H 0.80782 0.71057 0.70188 0.0
H1570 H 0.78523 0.65082 0.73616 0.0
C1571 C 0.78032 0.61436 0.65545 0.0
C1572 C 0.79035 0.66616 0.66665 0.0
C1573 C 0.78556 0.59743 0.63928 0.0
C1574 C 0.79742 0.72709 0.73458 0.0
C1575 C 0.79817 0.71058 0.71902 0.0
C1576 C 0.78617 0.6556 0.71684 0.0
C1577 C 0.795 0.62676 0.65818 0.0
C1578 C 0.79017 0.64447 0.67532 0.0
C1579 C 0.78673 0.69438 0.72549 0.0
C1580 C 0.78695 0.67731 0.70825 0.0
H1581 H 0.83596 0.60132 0.61923 0.0
H1582 H 0.82648 0.63125 0.64653 0.0
H1583 H 0.78771 0.62269 0.70762 0.0
H1584 H 0.76525 0.71122 0.78154 0.0
H1585 H 0.76588 0.68287 0.7541 0.0
C1586 C 0.47785 0.77902 0.62994 0.0
C1587 C 0.4956 0.76132 0.63528 0.0
C1588 C 0.45843 0.78185 0.6445 0.0
C1589 C 0.43524 0.76676 0.70608 0.0
H1590 H 0.3816 0.78212 0.67556 0.0
C1591 C 0.35257 0.78651 0.76248 0.0
C1592 C 0.33689 0.77706 0.75544 0.0
C1593 C 0.37165 0.78579 0.74774 0.0
C1594 C 0.39643 0.77777 0.68442 0.0
H1595 H 0.50672 0.73298 0.66062 0.0
H1596 H 0.47301 0.73785 0.68586 0.0
H1597 H 0.41531 0.77827 0.65033 0.0
H1598 H 0.32908 0.75978 0.72691 0.0
H1599 H 0.3621 0.7587 0.70131 0.0
H1600 H 0.41638 0.76599 0.74015 0.0
C1601 C 0.47408 0.74961 0.67041 0.0
C1602 C 0.41579 0.77577 0.66992 0.0
C1603 C 0.49341 0.74667 0.65574 0.0
C1604 C 0.34069 0.76729 0.733 0.0
C1605 C 0.35965 0.76675 0.71819 0.0
C1606 C 0.41587 0.76896 0.72059 0.0
C1607 C 0.45626 0.76719 0.66499 0.0
C1608 C 0.43551 0.77005 0.68052 0.0
C1609 C 0.37553 0.77579 0.72542 0.0
C1610 C 0.39616 0.77433 0.70997 0.0
H1611 H 0.47883 0.79055 0.61427 0.0
H1612 H 0.44515 0.79569 0.63982 0.0
H1613 H 0.45005 0.76256 0.71495 0.0
H1614 H 0.35031 0.79412 0.77963 0.0
H1615 H 0.38338 0.79313 0.75383 0.0
C1616 C 0.32088 0.40413 0.58368 0.0
C1617 C 0.31349 0.42728 0.58335 0.0
C1618 C 0.31889 0.39083 0.60516 0.0
C1619 C 0.29009 0.39151 0.66734 0.0
H1620 H 0.33337 0.33641 0.67784 0.0
C1621 C 0.29306 0.33157 0.75621 0.0
C1622 C 0.29553 0.30929 0.75179 0.0
C1623 C 0.29512 0.34732 0.73684 0.0
C1624 C 0.32113 0.35174 0.67516 0.0
H1625 H 0.29847 0.45463 0.60552 0.0
H1626 H 0.29549 0.43153 0.6432 0.0
H1627 H 0.33763 0.36124 0.64219 0.0
H1628 H 0.30222 0.28623 0.72341 0.0
H1629 H 0.30611 0.31342 0.69012 0.0
H1630 H 0.27387 0.38187 0.70078 0.0
C1631 C 0.30236 0.42352 0.62672 0.0
C1632 C 0.32347 0.36597 0.65458 0.0
C1633 C 0.30411 0.43682 0.60511 0.0
C1634 C 0.30007 0.30321 0.72761 0.0
C1635 C 0.30247 0.31877 0.70845 0.0
C1636 C 0.28792 0.37736 0.68817 0.0
C1637 C 0.30972 0.40029 0.62709 0.0
C1638 C 0.30779 0.38588 0.65004 0.0
C1639 C 0.30014 0.34098 0.71279 0.0
C1640 C 0.30323 0.35712 0.69204 0.0
H1641 H 0.32783 0.39622 0.56717 0.0
H1642 H 0.32428 0.37304 0.60438 0.0
H1643 H 0.27754 0.40652 0.66448 0.0
H1644 H 0.28959 0.33681 0.77459 0.0
H1645 H 0.29328 0.36433 0.74072 0.0
C1646 C 0.57262 0.27712 0.55353 0.0
C1647 C 0.55791 0.26601 0.56554 0.0
C1648 C 0.58766 0.28277 0.56664 0.0
C1649 C 0.60073 0.28934 0.62907 0.0
H1650 H 0.65987 0.26825 0.60415 0.0
C1651 C 0.67015 0.2745 0.69142 0.0
C1652 C 0.69016 0.27743 0.6817 0.0
C1653 C 0.65361 0.27625 0.67634 0.0
C1654 C 0.64348 0.27466 0.61128 0.0
H1655 H 0.5468 0.25288 0.60058 0.0
H1656 H 0.57228 0.26343 0.62348 0.0
H1657 H 0.63119 0.26742 0.5793 0.0
H1658 H 0.70819 0.28506 0.64833 0.0
H1659 H 0.67925 0.2886 0.62206 0.0
H1660 H 0.61284 0.29658 0.66103 0.0
C1661 C 0.57239 0.26778 0.60405 0.0
C1662 C 0.62699 0.27417 0.59695 0.0
C1663 C 0.55773 0.26177 0.59094 0.0
C1664 C 0.69306 0.28247 0.65644 0.0
C1665 C 0.67643 0.28442 0.64134 0.0
C1666 C 0.61718 0.29006 0.64329 0.0
C1667 C 0.58799 0.27774 0.59202 0.0
C1668 C 0.6054 0.28107 0.60586 0.0
C1669 C 0.65645 0.28119 0.65102 0.0
C1670 C 0.63886 0.28226 0.63488 0.0
H1671 H 0.57342 0.2801 0.53389 0.0
H1672 H 0.59942 0.2905 0.55683 0.0
H1673 H 0.58428 0.29503 0.6364 0.0
H1674 H 0.66741 0.27019 0.71069 0.0
H1675 H 0.63874 0.27312 0.68456 0.0
C1676 C 0.76407 0.53077 0.50759 0.0
C1677 C 0.77151 0.5254 0.53098 0.0
C1678 C 0.76046 0.51436 0.49429 0.0
C1679 C 0.75566 0.45596 0.49923 0.0
H1680 H 0.78045 0.45599 0.4325 0.0
C1681 C 0.78231 0.37717 0.44604 0.0
C1682 C 0.77978 0.37907 0.42091 0.0
C1683 C 0.77733 0.39599 0.45931 0.0
C1684 C 0.77311 0.45587 0.45096 0.0
H1685 H 0.77963 0.49883 0.55928 0.0
H1686 H 0.7735 0.47042 0.53618 0.0
H1687 H 0.77798 0.48749 0.45603 0.0
H1688 H 0.76954 0.40236 0.3902 0.0
H1689 H 0.76058 0.43514 0.41341 0.0
H1690 H 0.7514 0.42399 0.4943 0.0
C1691 C 0.77032 0.48725 0.52805 0.0
C1692 C 0.77164 0.474 0.46448 0.0
C1693 C 0.77396 0.50359 0.5413 0.0
C1694 C 0.77153 0.40024 0.40955 0.0
C1695 C 0.76661 0.41907 0.42281 0.0
C1696 C 0.75717 0.4378 0.48572 0.0
C1697 C 0.76412 0.49226 0.50411 0.0
C1698 C 0.76326 0.47413 0.48895 0.0
C1699 C 0.76974 0.41722 0.44779 0.0
C1700 C 0.76626 0.43735 0.46153 0.0
H1701 H 0.762 0.54739 0.49908 0.0
H1702 H 0.75533 0.51889 0.47605 0.0
H1703 H 0.74878 0.45563 0.51789 0.0
H1704 H 0.7884 0.36111 0.45543 0.0
H1705 H 0.78012 0.39393 0.47847 0.0
C1706 C 0.62458 0.77826 0.49297 0.0
C1707 C 0.62199 0.7576 0.50313 0.0
C1708 C 0.64055 0.77961 0.47418 0.0
C1709 C 0.67742 0.74546 0.42745 0.0
H1710 H 0.70397 0.79445 0.42044 0.0
C1711 C 0.73412 0.75792 0.34248 0.0
C1712 C 0.75157 0.76663 0.34509 0.0
C1713 C 0.71834 0.75747 0.36167 0.0
C1714 C 0.69696 0.78047 0.42218 0.0
H1715 H 0.63478 0.72219 0.50199 0.0
H1716 H 0.66296 0.72441 0.47 0.0
H1717 H 0.67765 0.7919 0.4544 0.0
H1718 H 0.76597 0.78173 0.37025 0.0
H1719 H 0.73891 0.78038 0.4039 0.0
H1720 H 0.69733 0.73349 0.39591 0.0
C1721 C 0.65225 0.73969 0.47583 0.0
C1722 C 0.6815 0.77919 0.44158 0.0
C1723 C 0.63611 0.73836 0.49436 0.0
C1724 C 0.7527 0.77504 0.36745 0.0
C1725 C 0.73703 0.77435 0.3868 0.0
C1726 C 0.69301 0.74662 0.40823 0.0
C1727 C 0.65462 0.76033 0.46516 0.0
C1728 C 0.67139 0.76168 0.44455 0.0
C1729 C 0.71961 0.76545 0.3843 0.0
C1730 C 0.70302 0.7642 0.40513 0.0
H1731 H 0.61382 0.79342 0.49903 0.0
H1732 H 0.64146 0.79585 0.46635 0.0
H1733 H 0.66991 0.73187 0.42864 0.0
H1734 H 0.73257 0.75143 0.3255 0.0
H1735 H 0.70504 0.75096 0.3586 0.0
C1736 C 0.31027 0.57665 0.47063 0.0
C1737 C 0.31591 0.55788 0.45698 0.0
C1738 C 0.30753 0.598 0.45903 0.0
C1739 C 0.29385 0.62894 0.4005 0.0
H1740 H 0.32011 0.67241 0.4207 0.0
C1741 C 0.29917 0.70591 0.33809 0.0
C1742 C 0.2975 0.72622 0.3479 0.0
C1743 C 0.3002 0.68655 0.35312 0.0
C1744 C 0.31234 0.66064 0.41505 0.0
H1745 H 0.32299 0.54698 0.42037 0.0
H1746 H 0.3181 0.58406 0.40021 0.0
H1747 H 0.3245 0.63638 0.44379 0.0
H1748 H 0.29556 0.74187 0.38159 0.0
H1749 H 0.29691 0.7079 0.40808 0.0
H1750 H 0.28142 0.65296 0.37205 0.0
C1751 C 0.31586 0.58229 0.4199 0.0
C1752 C 0.31494 0.63995 0.42825 0.0
C1753 C 0.31889 0.56099 0.43148 0.0
C1754 C 0.29678 0.72657 0.37338 0.0
C1755 C 0.2977 0.70704 0.38855 0.0
C1756 C 0.29104 0.64961 0.38753 0.0
C1757 C 0.31001 0.60107 0.43348 0.0
C1758 C 0.3061 0.62369 0.42078 0.0
C1759 C 0.29939 0.68674 0.37858 0.0
C1760 C 0.30066 0.66562 0.39421 0.0
H1761 H 0.30798 0.5748 0.4903 0.0
H1762 H 0.30297 0.61214 0.46999 0.0
H1763 H 0.28642 0.61698 0.39458 0.0
H1764 H 0.30001 0.70475 0.3186 0.0
H1765 H 0.30206 0.67127 0.34459 0.0
C1766 C 0.46391 0.272 0.46222 0.0
C1767 C 0.46833 0.25226 0.47737 0.0
C1768 C 0.44657 0.27703 0.44739 0.0
C1769 C 0.39537 0.26245 0.44047 0.0
H1770 H 0.40388 0.28167 0.37238 0.0
C1771 C 0.33555 0.25864 0.37099 0.0
C1772 C 0.33132 0.2755 0.3521 0.0
C1773 C 0.35184 0.25725 0.3864 0.0
C1774 C 0.40104 0.27659 0.39142 0.0
H1775 H 0.45748 0.22276 0.48921 0.0
H1776 H 0.42765 0.23152 0.46389 0.0
H1777 H 0.43234 0.27803 0.39938 0.0
H1778 H 0.34116 0.30419 0.33482 0.0
H1779 H 0.36916 0.30195 0.36176 0.0
H1780 H 0.36419 0.26092 0.43269 0.0
C1781 C 0.43738 0.2432 0.46331 0.0
C1782 C 0.41743 0.27454 0.40694 0.0
C1783 C 0.45469 0.2381 0.47777 0.0
C1784 C 0.34392 0.29088 0.34906 0.0
C1785 C 0.36015 0.28953 0.36449 0.0
C1786 C 0.379 0.26457 0.42503 0.0
C1787 C 0.4331 0.26261 0.44772 0.0
C1788 C 0.41495 0.26708 0.43161 0.0
C1789 C 0.36437 0.27273 0.38348 0.0
C1790 C 0.38165 0.27136 0.40016 0.0
H1791 H 0.47412 0.28323 0.46139 0.0
H1792 H 0.44368 0.2922 0.43569 0.0
H1793 H 0.39269 0.25703 0.45944 0.0
H1794 H 0.32629 0.24644 0.3739 0.0
H1795 H 0.35474 0.24383 0.40049 0.0
C1796 C 0.6079 0.8021 0.62456 0.0
C1797 C 0.60354 0.78127 0.62515 0.0
C1798 C 0.62243 0.80562 0.63995 0.0
C1799 C 0.66708 0.77371 0.67626 0.0
H1800 H 0.65795 0.82744 0.7095 0.0
C1801 C 0.71166 0.77612 0.75904 0.0
C1802 C 0.72279 0.79264 0.75827 0.0
C1803 C 0.69684 0.77713 0.74216 0.0
C1804 C 0.66075 0.81246 0.70011 0.0
H1805 H 0.61015 0.74817 0.64313 0.0
H1806 H 0.63472 0.75441 0.67012 0.0
H1807 H 0.63239 0.82469 0.68088 0.0
H1808 H 0.72626 0.82373 0.73972 0.0
H1809 H 0.69985 0.8256 0.7103 0.0
H1810 H 0.69494 0.76119 0.69601 0.0
C1811 C 0.62764 0.76787 0.65732 0.0
C1812 C 0.64619 0.81088 0.6837 0.0
C1813 C 0.61339 0.76433 0.6419 0.0
C1814 C 0.71802 0.81071 0.74078 0.0
C1815 C 0.70289 0.81184 0.72399 0.0
C1816 C 0.68139 0.7752 0.69277 0.0
C1817 C 0.63272 0.78838 0.65625 0.0
C1818 C 0.64896 0.79126 0.67199 0.0
C1819 C 0.69256 0.79476 0.72422 0.0
C1820 C 0.67817 0.79439 0.70522 0.0
H1821 H 0.60053 0.81548 0.61182 0.0
H1822 H 0.62599 0.82162 0.63863 0.0
H1823 H 0.67012 0.75861 0.66704 0.0
H1824 H 0.71485 0.76196 0.77223 0.0
H1825 H 0.6889 0.76388 0.74291 0.0
C1826 C 0.60908 0.23497 0.47485 0.0
C1827 C 0.59609 0.22474 0.46361 0.0
C1828 C 0.62791 0.23863 0.46256 0.0
C1829 C 0.65202 0.24654 0.40069 0.0
H1830 H 0.70589 0.23355 0.43056 0.0
C1831 C 0.7294 0.25037 0.34321 0.0
C1832 C 0.74431 0.25919 0.35285 0.0
C1833 C 0.71216 0.24572 0.35791 0.0
C1834 C 0.69091 0.23756 0.42205 0.0
H1835 H 0.59286 0.21015 0.43072 0.0
H1836 H 0.62565 0.21653 0.40928 0.0
H1837 H 0.67418 0.22621 0.45414 0.0
H1838 H 0.7531 0.26957 0.38572 0.0
H1839 H 0.72251 0.26189 0.4115 0.0
H1840 H 0.66835 0.25826 0.36884 0.0
C1841 C 0.62124 0.22176 0.4276 0.0
C1842 C 0.67277 0.23328 0.43555 0.0
C1843 C 0.60256 0.21791 0.43997 0.0
C1844 C 0.74188 0.26275 0.37778 0.0
C1845 C 0.72438 0.25828 0.39254 0.0
C1846 C 0.67001 0.25099 0.38732 0.0
C1847 C 0.63402 0.23236 0.43866 0.0
C1848 C 0.65322 0.23746 0.42487 0.0
C1849 C 0.70912 0.25002 0.38266 0.0
C1850 C 0.6898 0.24625 0.39765 0.0
H1851 H 0.60465 0.24021 0.49315 0.0
H1852 H 0.63739 0.2469 0.47151 0.0
H1853 H 0.63707 0.2504 0.39213 0.0
H1854 H 0.73098 0.24707 0.32416 0.0
H1855 H 0.70114 0.23877 0.34977 0.0
C1856 C 0.85335 0.58801 0.47239 0.0
C1857 C 0.83707 0.57891 0.48414 0.0
C1858 C 0.85211 0.59701 0.44836 0.0
C1859 C 0.81146 0.62268 0.40534 0.0
H1860 H 0.86163 0.62759 0.36302 0.0
C1861 C 0.80587 0.68463 0.32046 0.0
C1862 C 0.81856 0.69939 0.32195 0.0
C1863 C 0.80918 0.66481 0.33528 0.0
C1864 C 0.84746 0.62617 0.37453 0.0
H1865 H 0.80735 0.57084 0.4791 0.0
H1866 H 0.8055 0.58598 0.4369 0.0
H1867 H 0.86549 0.60087 0.39844 0.0
H1868 H 0.84547 0.70443 0.33875 0.0
H1869 H 0.85153 0.66976 0.36411 0.0
H1870 H 0.79356 0.64841 0.38167 0.0
C1871 C 0.81901 0.58662 0.44653 0.0
C1872 C 0.84966 0.61098 0.3949 0.0
C1873 C 0.8202 0.5777 0.47069 0.0
C1874 C 0.8354 0.69339 0.33732 0.0
C1875 C 0.83897 0.67346 0.35171 0.0
C1876 C 0.80925 0.63768 0.38479 0.0
C1877 C 0.83463 0.59699 0.43529 0.0
C1878 C 0.83181 0.60969 0.41113 0.0
C1879 C 0.82553 0.65926 0.35136 0.0
C1880 C 0.82733 0.64017 0.36973 0.0
H1881 H 0.86677 0.58884 0.48202 0.0
H1882 H 0.86437 0.605 0.44051 0.0
H1883 H 0.79737 0.62236 0.41748 0.0
H1884 H 0.79269 0.68893 0.30886 0.0
H1885 H 0.79862 0.65412 0.33468 0.0
C1886 C 0.50079 0.82575 0.5369 0.0
C1887 C 0.52112 0.82208 0.52414 0.0
C1888 C 0.48243 0.8291 0.52441 0.0
C1889 C 0.46185 0.83864 0.46273 0.0
H1890 H 0.42572 0.80089 0.49115 0.0
C1891 C 0.40561 0.80979 0.40663 0.0
C1892 C 0.385 0.80992 0.41729 0.0
C1893 C 0.42096 0.81367 0.42037 0.0
C1894 C 0.43544 0.81176 0.48312 0.0
H1895 H 0.53789 0.8211 0.48814 0.0
H1896 H 0.50598 0.82665 0.46642 0.0
H1897 H 0.45414 0.80574 0.51384 0.0
H1898 H 0.36448 0.81375 0.45085 0.0
H1899 H 0.39134 0.82058 0.47489 0.0
H1900 H 0.44343 0.84409 0.43169 0.0
C1901 C 0.50414 0.82703 0.48606 0.0
C1902 C 0.4517 0.81464 0.49617 0.0
C1903 C 0.5225 0.82379 0.49854 0.0
C1904 C 0.38019 0.81365 0.44211 0.0
C1905 C 0.3956 0.81744 0.45589 0.0
C1906 C 0.44561 0.8357 0.44965 0.0
C1907 C 0.48401 0.82879 0.49891 0.0
C1908 C 0.4653 0.82787 0.48601 0.0
C1909 C 0.41608 0.81771 0.4451 0.0
C1910 C 0.43244 0.82196 0.45956 0.0
H1911 H 0.49913 0.82479 0.55662 0.0
H1912 H 0.46709 0.83096 0.53481 0.0
H1913 H 0.47185 0.84916 0.45451 0.0
H1914 H 0.40973 0.80726 0.38748 0.0
H1915 H 0.4367 0.81345 0.41162 0.0
C1916 C 0.25442 0.45952 0.46792 0.0
C1917 C 0.25913 0.4796 0.45903 0.0
C1918 C 0.25007 0.44557 0.45198 0.0
C1919 C 0.26344 0.43131 0.38882 0.0
H1920 H 0.22333 0.395 0.40467 0.0
C1921 C 0.26147 0.36196 0.32826 0.0
C1922 C 0.26029 0.34172 0.34088 0.0
C1923 C 0.25742 0.38124 0.34069 0.0
C1924 C 0.23468 0.40494 0.40001 0.0
H1925 H 0.26166 0.50136 0.42653 0.0
H1926 H 0.25406 0.47699 0.39875 0.0
H1927 H 0.22278 0.42462 0.43044 0.0
H1928 H 0.25319 0.32611 0.3764 0.0
H1929 H 0.24656 0.35937 0.39795 0.0
H1930 H 0.27597 0.41116 0.35903 0.0
C1931 C 0.25397 0.47195 0.41804 0.0
C1932 C 0.23432 0.42195 0.41476 0.0
C1933 C 0.25819 0.48598 0.43401 0.0
C1934 C 0.25428 0.34137 0.36603 0.0
C1935 C 0.25028 0.36056 0.37842 0.0
C1936 C 0.26389 0.41423 0.37416 0.0
C1937 C 0.25043 0.45133 0.42676 0.0
C1938 C 0.24897 0.43505 0.4096 0.0
C1939 C 0.2521 0.38069 0.36601 0.0
C1940 C 0.24983 0.40052 0.37986 0.0
H1941 H 0.25496 0.45411 0.48709 0.0
H1942 H 0.24754 0.42974 0.45928 0.0
H1943 H 0.27514 0.4409 0.38452 0.0
H1944 H 0.266 0.36287 0.30887 0.0
H1945 H 0.2587 0.39652 0.33049 0.0
C1946 C 0.46845 0.20012 0.60404 0.0
C1947 C 0.47921 0.21675 0.59717 0.0
C1948 C 0.45365 0.20192 0.62444 0.0
C1949 C 0.41957 0.24378 0.66436 0.0
H1950 H 0.4142 0.19257 0.70728 0.0
C1951 C 0.36707 0.25272 0.75459 0.0
C1952 C 0.35303 0.23889 0.75935 0.0
C1953 C 0.38329 0.24885 0.73574 0.0
C1954 C 0.41544 0.20698 0.69535 0.0
H1955 H 0.48357 0.24778 0.60691 0.0
H1956 H 0.45811 0.2508 0.64261 0.0
H1957 H 0.44103 0.18808 0.67256 0.0
H1958 H 0.34561 0.20961 0.74851 0.0
H1959 H 0.3741 0.2028 0.71561 0.0
H1960 H 0.39414 0.26269 0.68722 0.0
C1961 C 0.46058 0.23666 0.63191 0.0
C1962 C 0.43076 0.20442 0.67541 0.0
C1963 C 0.47522 0.23493 0.61145 0.0
C1964 C 0.35612 0.2206 0.74535 0.0
C1965 C 0.37248 0.21664 0.72655 0.0
C1966 C 0.4044 0.24634 0.68433 0.0
C1967 C 0.44939 0.22033 0.63852 0.0
C1968 C 0.43306 0.22282 0.65971 0.0
C1969 C 0.38597 0.23099 0.72126 0.0
C1970 C 0.40219 0.228 0.70009 0.0
H1971 H 0.47105 0.18602 0.59326 0.0
H1972 H 0.44516 0.18916 0.62881 0.0
H1973 H 0.42051 0.25825 0.65238 0.0
H1974 H 0.36523 0.26695 0.76501 0.0
H1975 H 0.39363 0.26 0.73234 0.0
C1976 C 0.85309 0.45961 0.63873 0.0
C1977 C 0.84135 0.46793 0.61844 0.0
C1978 C 0.8508 0.44011 0.65194 0.0
C1979 C 0.81263 0.40462 0.66285 0.0
H1980 H 0.85852 0.3655 0.6977 0.0
C1981 C 0.80337 0.32491 0.72008 0.0
C1982 C 0.80887 0.3238 0.74417 0.0
C1983 C 0.80881 0.34064 0.70268 0.0
C1984 C 0.8456 0.37629 0.688 0.0
H1985 H 0.81906 0.46185 0.59506 0.0
H1986 H 0.81562 0.4274 0.61739 0.0
H1987 H 0.86576 0.39608 0.67037 0.0
H1988 H 0.82503 0.33771 0.76872 0.0
H1989 H 0.8348 0.36486 0.73824 0.0
H1990 H 0.79257 0.3846 0.68041 0.0
C1991 C 0.82598 0.43626 0.62382 0.0
C1992 C 0.84967 0.3939 0.67246 0.0
C1993 C 0.82801 0.45593 0.61092 0.0
C1994 C 0.82043 0.33826 0.75034 0.0
C1995 C 0.82618 0.35369 0.73287 0.0
C1996 C 0.80866 0.38682 0.67808 0.0
C1997 C 0.83696 0.42832 0.64486 0.0
C1998 C 0.83315 0.40853 0.65998 0.0
C1999 C 0.82021 0.35521 0.70897 0.0
C2000 C 0.82501 0.37272 0.69109 0.0
H2001 H 0.86334 0.4687 0.64497 0.0
H2002 H 0.85929 0.43476 0.66821 0.0
H2003 H 0.79936 0.41571 0.65398 0.0
H2004 H 0.79444 0.31399 0.71482 0.0
H2005 H 0.80408 0.34147 0.68432 0.0
C2006 C 0.29459 0.53308 0.59134 0.0
C2007 C 0.28352 0.53519 0.57039 0.0
C2008 C 0.29064 0.55051 0.60632 0.0
C2009 C 0.254 0.60469 0.62041 0.0
H2010 H 0.30568 0.6148 0.64135 0.0
C2011 C 0.25571 0.6842 0.66423 0.0
C2012 C 0.26701 0.68104 0.68523 0.0
C2013 C 0.25702 0.66653 0.65014 0.0
C2014 C 0.29109 0.61208 0.63583 0.0
H2015 H 0.25889 0.55666 0.54921 0.0
H2016 H 0.25222 0.58758 0.57523 0.0
H2017 H 0.30819 0.58348 0.61761 0.0
H2018 H 0.28858 0.65679 0.70784 0.0
H2019 H 0.29118 0.62607 0.68297 0.0
H2020 H 0.23701 0.63367 0.63845 0.0
C2021 C 0.26376 0.57229 0.58025 0.0
C2022 C 0.29249 0.59409 0.6223 0.0
C2023 C 0.26755 0.55463 0.56536 0.0
C2024 C 0.27996 0.65989 0.69156 0.0
C2025 C 0.28138 0.64227 0.67739 0.0
C2026 C 0.25262 0.62283 0.63387 0.0
C2027 C 0.27577 0.57062 0.60048 0.0
C2028 C 0.27396 0.59003 0.61463 0.0
C2029 C 0.26981 0.64538 0.65664 0.0
C2030 C 0.27116 0.62657 0.64185 0.0
H2031 H 0.30679 0.51811 0.5958 0.0
H2032 H 0.2997 0.54843 0.62217 0.0
H2033 H 0.23942 0.60194 0.61491 0.0
H2034 H 0.24586 0.70037 0.65862 0.0
H2035 H 0.2482 0.66946 0.63403 0.0
loop_
_geom_bond_atom_site_label_1
_geom_bond_atom_site_label_2
_geom_bond_distance
_geom_bond_site_symmetry_2
_ccdc_geom_bond_type
Cu0 N1 1.999 . S
Cu0 O6 1.974 1_545 S
Cu0 N11 1.985 1_545 S
Cu0 O20 1.956 1_455 S
N1 Cu0 1.999 . S
N1 C3 1.263 . S
N1 C5 1.389 . S
N2 C3 1.358 . S
N2 C4 1.400 . S
C3 N1 1.263 . S
C3 N2 1.358 . S
C3 H9 0.930 . S
C4 N2 1.400 . S
C4 C5 1.351 . S
C4 H21 0.930 . S
C5 N1 1.389 . S
C5 C4 1.351 . S
C5 H10 0.930 . S
O6 Cu0 1.974 1_565 S
O6 C16 1.282 . S
C7 O8 1.261 1_655 S
C7 O20 1.253 . S
O8 C7 1.261 1_455 S
H9 C3 0.930 . S
H10 C5 0.930 . S
N11 Cu0 1.985 1_565 S
N11 C13 1.335 1_455 S
N11 C14 1.390 . S
N12 C13 1.345 . S
N12 C15 1.336 1_655 S
C13 N11 1.335 1_655 S
C13 N12 1.345 . S
C13 H18 0.930 . S
C14 N11 1.390 . S
C14 C15 1.346 . S
C14 H19 0.930 . S
C15 N12 1.336 1_455 S
C15 C14 1.346 . S
C15 H22 0.929 . S
C16 O6 1.282 . S
C16 O17 1.216 . S
O17 C16 1.216 . S
H18 C13 0.930 . S
H19 C14 0.930 . S
O20 Cu0 1.956 1_655 S
O20 C7 1.253 . S
H21 C4 0.930 . S
H22 C15 0.929 . S
Cu23 N24 2.029 . S
Cu23 O29 1.974 1_455 S
Cu23 N34 1.985 . S
Cu23 O43 1.959 . S
N24 Cu23 2.029 . S
N24 C26 1.227 1_455 S
N24 C28 1.391 1_545 S
N25 C26 1.358 1_565 S
N25 C27 1.400 . S
C26 N24 1.227 1_655 S
C26 N25 1.358 1_545 S
C26 H32 0.930 . S
C27 N25 1.400 . S
C27 C28 1.351 1_655 S
C27 H44 0.930 . S
C28 N24 1.391 1_565 S
C28 C27 1.351 1_455 S
C28 H33 0.930 . S
O29 Cu23 1.974 1_655 S
O29 C39 1.282 . S
C30 O31 1.261 . S
C30 O43 1.251 . S
O31 C30 1.261 . S
H32 C26 0.930 . S
H33 C28 0.930 . S
N34 Cu23 1.985 . S
N34 C36 1.335 . S
N34 C37 1.390 . S
N35 C36 1.345 . S
N35 C38 1.336 . S
C36 N34 1.335 . S
C36 N35 1.345 . S
C36 H41 0.930 . S
C37 N34 1.390 . S
C37 C38 1.346 . S
C37 H42 0.930 . S
C38 N35 1.336 . S
C38 C37 1.346 . S
C38 H45 0.929 . S
C39 O29 1.282 . S
C39 O40 1.216 . S
O40 C39 1.216 . S
H41 C36 0.930 . S
H42 C37 0.930 . S
O43 Cu23 1.959 . S
O43 C30 1.251 . S
H44 C27 0.930 . S
H45 C38 0.929 . S
Cu46 N47 1.999 . S
Cu46 O52 1.974 . S
Cu46 N57 1.985 . S
Cu46 O66 1.959 . S
N47 Cu46 1.999 . S
N47 C49 1.263 . S
N47 C51 1.389 . S
N48 C49 1.358 1_565 S
N48 C50 1.400 1_565 S
C49 N47 1.263 . S
C49 N48 1.358 1_545 S
C49 H55 0.930 1_545 S
C50 N48 1.400 1_545 S
C50 C51 1.351 . S
C50 H67 0.930 1_554 S
C51 N47 1.389 . S
C51 C50 1.351 . S
C51 H56 0.930 . S
O52 Cu46 1.974 . S
O52 C62 1.282 . S
C53 O54 1.261 . S
C53 O66 1.251 . S
O54 C53 1.261 . S
H55 C49 0.930 1_565 S
H56 C51 0.930 . S
N57 Cu46 1.985 . S
N57 C59 1.335 . S
N57 C60 1.390 . S
N58 C59 1.345 . S
N58 C61 1.336 . S
C59 N57 1.335 . S
C59 N58 1.345 . S
C59 H64 0.930 . S
C60 N57 1.390 . S
C60 C61 1.346 . S
C60 H65 0.930 . S
C61 N58 1.336 . S
C61 C60 1.346 . S
C61 H68 0.929 . S
C62 O52 1.282 . S
C62 O63 1.216 . S
O63 C62 1.216 . S
H64 C59 0.930 . S
H65 C60 0.930 . S
O66 Cu46 1.959 . S
O66 C53 1.251 . S
H67 C50 0.930 1_556 S
H68 C61 0.929 . S
Cu69 N70 1.999 . S
Cu69 O75 1.974 . S
Cu69 N80 1.985 . S
Cu69 O89 1.959 . S
N70 Cu69 1.999 . S
N70 C72 1.263 . S
N70 C74 1.389 . S
N71 C72 1.358 . S
N71 C73 1.400 1_554 S
C72 N70 1.263 . S
C72 N71 1.358 . S
C72 H78 0.930 . S
C73 N71 1.400 1_556 S
C73 C74 1.351 1_556 S
C73 H90 0.930 . S
C74 N70 1.389 . S
C74 C73 1.351 1_554 S
C74 H79 0.930 . S
O75 Cu69 1.974 . S
O75 C85 1.282 . S
C76 O77 1.261 . S
C76 O89 1.251 . S
O77 C76 1.261 . S
H78 C72 0.930 . S
H79 C74 0.930 . S
N80 Cu69 1.985 . S
N80 C82 1.335 1_455 S
N80 C83 1.390 . S
N81 C82 1.345 . S
N81 C84 1.312 1_655 S
C82 N80 1.335 1_655 S
C82 N81 1.345 . S
C82 H87 0.930 . S
C83 N80 1.390 . S
C83 C84 1.374 . S
C83 H88 0.930 . S
C84 N81 1.312 1_455 S
C84 C83 1.374 . S
C84 H91 0.926 1_455 S
C85 O75 1.282 . S
C85 O86 1.216 . S
O86 C85 1.216 . S
H87 C82 0.930 . S
H88 C83 0.930 . S
O89 Cu69 1.959 . S
O89 C76 1.251 . S
H90 C73 0.930 . S
H91 C84 0.926 1_655 S
Cu92 N93 1.999 1_554 S
Cu92 O98 1.974 . S
Cu92 N103 1.985 1_545 S
Cu92 O112 1.959 1_544 S
N93 Cu92 1.999 1_556 S
N93 C95 1.263 . S
N93 C97 1.389 . S
N94 C95 1.358 . S
N94 C96 1.400 . S
C95 N93 1.263 . S
C95 N94 1.358 . S
C95 H101 0.930 . S
C96 N94 1.400 . S
C96 C97 1.351 . S
C96 H113 0.930 . S
C97 N93 1.389 . S
C97 C96 1.351 . S
C97 H102 0.930 . S
O98 Cu92 1.974 . S
O98 C108 1.282 . S
C99 O100 1.261 . S
C99 O112 1.251 . S
O100 C99 1.261 . S
H101 C95 0.930 . S
H102 C97 0.930 . S
N103 Cu92 1.985 1_565 S
N103 C105 1.335 . S
N103 C106 1.390 . S
N104 C105 1.345 . S
N104 C107 1.336 . S
C105 N103 1.335 . S
C105 N104 1.345 . S
C105 H110 0.930 . S
C106 N103 1.390 . S
C106 C107 1.346 . S
C106 H111 0.930 . S
C107 N104 1.336 . S
C107 C106 1.346 . S
C107 H114 0.929 . S
C108 O98 1.282 . S
C108 O109 1.216 . S
O109 C108 1.216 . S
H110 C105 0.930 . S
H111 C106 0.930 . S
O112 Cu92 1.959 1_566 S
O112 C99 1.251 . S
H113 C96 0.930 . S
H114 C107 0.929 . S
Cu115 N116 1.999 1_454 S
Cu115 O121 1.974 1_455 S
Cu115 N126 1.985 . S
Cu115 O135 1.959 1_554 S
N116 Cu115 1.999 1_656 S
N116 C118 1.263 . S
N116 C120 1.389 . S
N117 C118 1.358 . S
N117 C119 1.400 . S
C118 N116 1.263 . S
C118 N117 1.358 . S
C118 H124 0.937 . S
C119 N117 1.400 . S
C119 C120 1.351 . S
C119 H136 0.930 . S
C120 N116 1.389 . S
C120 C119 1.351 . S
C120 H125 0.929 1_655 S
O121 Cu115 1.974 1_655 S
O121 C131 1.282 . S
C122 O123 1.261 . S
C122 O135 1.251 . S
O123 C122 1.261 . S
H124 C118 0.937 . S
H125 C120 0.929 1_455 S
N126 Cu115 1.985 . S
N126 C128 1.335 . S
N126 C129 1.390 . S
N127 C128 1.345 . S
N127 C130 1.336 . S
C128 N126 1.335 . S
C128 N127 1.345 . S
C128 H133 0.930 . S
C129 N126 1.390 . S
C129 C130 1.346 . S
C129 H134 0.930 . S
C130 N127 1.336 . S
C130 C129 1.346 . S
C130 H137 0.929 . S
C131 O121 1.282 . S
C131 O132 1.216 . S
O132 C131 1.216 . S
H133 C128 0.930 . S
H134 C129 0.930 . S
O135 Cu115 1.959 1_556 S
O135 C122 1.251 . S
H136 C119 0.930 . S
H137 C130 0.929 . S
Cu138 N139 1.999 . S
Cu138 O144 1.974 . S
Cu138 N149 1.985 . S
Cu138 O158 1.959 . S
N139 Cu138 1.999 . S
N139 C141 1.263 . S
N139 C143 1.389 . S
N140 C141 1.358 . S
N140 C142 1.400 . S
C141 N139 1.263 . S
C141 N140 1.358 . S
C141 H147 0.930 . S
C142 N140 1.400 . S
C142 C143 1.351 . S
C142 H159 0.930 . S
C143 N139 1.389 . S
C143 C142 1.351 . S
C143 H148 0.930 . S
O144 Cu138 1.974 . S
O144 C154 1.282 . S
C145 O146 1.261 . S
C145 O158 1.251 . S
O146 C145 1.261 . S
H147 C141 0.930 . S
H148 C143 0.930 . S
N149 Cu138 1.985 . S
N149 C151 1.335 . S
N149 C152 1.390 . S
N150 C151 1.345 . S
N150 C153 1.336 . S
C151 N149 1.335 . S
C151 N150 1.345 . S
C151 H156 0.930 . S
C152 N149 1.390 . S
C152 C153 1.346 . S
C152 H157 0.930 . S
C153 N150 1.336 . S
C153 C152 1.346 . S
C153 H160 0.929 . S
C154 O144 1.282 . S
C154 O155 1.216 . S
O155 C154 1.216 . S
H156 C151 0.930 . S
H157 C152 0.930 . S
O158 Cu138 1.959 . S
O158 C145 1.251 . S
H159 C142 0.930 . S
H160 C153 0.929 . S
Cu161 N162 1.999 . S
Cu161 O167 1.974 . S
Cu161 N172 1.985 . S
Cu161 O181 1.959 . S
N162 Cu161 1.999 . S
N162 C164 1.263 . S
N162 C166 1.389 . S
N163 C164 1.358 . S
N163 C165 1.400 . S
C164 N162 1.263 . S
C164 N163 1.358 . S
C164 H170 0.930 . S
C165 N163 1.400 . S
C165 C166 1.351 . S
C165 H182 0.930 . S
C166 N162 1.389 . S
C166 C165 1.351 . S
C166 H171 0.930 . S
O167 Cu161 1.974 . S
O167 C177 1.282 . S
C168 O169 1.261 . S
C168 O181 1.251 . S
O169 C168 1.261 . S
H170 C164 0.930 . S
H171 C166 0.930 . S
N172 Cu161 1.985 . S
N172 C174 1.335 . S
N172 C175 1.390 . S
N173 C174 1.345 . S
N173 C176 1.336 . S
C174 N172 1.335 . S
C174 N173 1.345 . S
C174 H179 0.930 . S
C175 N172 1.390 . S
C175 C176 1.346 . S
C175 H180 0.930 . S
C176 N173 1.336 . S
C176 C175 1.346 . S
C176 H183 0.929 . S
C177 O167 1.282 . S
C177 O178 1.216 . S
O178 C177 1.216 . S
H179 C174 0.930 . S
H180 C175 0.930 . S
O181 Cu161 1.959 . S
O181 C168 1.251 . S
H182 C165 0.930 . S
H183 C176 0.929 . S
Cu184 N185 1.999 . S
Cu184 O190 1.974 . S
Cu184 N195 1.985 . S
Cu184 O204 1.959 . S
N185 Cu184 1.999 . S
N185 C187 1.263 . S
N185 C189 1.389 . S
N186 C187 1.358 . S
N186 C188 1.400 . S
C187 N185 1.263 . S
C187 N186 1.358 . S
C187 H193 0.930 . S
C188 N186 1.400 . S
C188 C189 1.351 . S
C188 H205 0.930 . S
C189 N185 1.389 . S
C189 C188 1.351 . S
C189 H194 0.930 . S
O190 Cu184 1.974 . S
O190 C200 1.282 . S
C191 O192 1.261 . S
C191 O204 1.251 . S
O192 C191 1.261 . S
H193 C187 0.930 . S
H194 C189 0.930 . S
N195 Cu184 1.985 . S
N195 C197 1.335 . S
N195 C198 1.390 . S
N196 C197 1.345 . S
N196 C199 1.336 . S
C197 N195 1.335 . S
C197 N196 1.345 . S
C197 H202 0.930 . S
C198 N195 1.390 . S
C198 C199 1.346 . S
C198 H203 0.930 . S
C199 N196 1.336 . S
C199 C198 1.346 . S
C199 H206 0.929 . S
C200 O190 1.282 . S
C200 O201 1.216 . S
O201 C200 1.216 . S
H202 C197 0.930 . S
H203 C198 0.930 . S
O204 Cu184 1.959 . S
O204 C191 1.251 . S
H205 C188 0.930 . S
H206 C199 0.929 . S
Cu207 N208 1.999 . S
Cu207 O213 1.974 . S
Cu207 N218 1.985 . S
Cu207 O227 1.959 . S
N208 Cu207 1.999 . S
N208 C210 1.263 . S
N208 C212 1.389 . S
N209 C210 1.358 . S
N209 C211 1.400 . S
C210 N208 1.263 . S
C210 N209 1.358 . S
C210 H216 0.930 . S
C211 N209 1.400 . S
C211 C212 1.351 . S
C211 H228 0.930 . S
C212 N208 1.389 . S
C212 C211 1.351 . S
C212 H217 0.930 . S
O213 Cu207 1.974 . S
O213 C223 1.282 . S
C214 O215 1.261 . S
C214 O227 1.251 . S
O215 C214 1.261 . S
H216 C210 0.930 . S
H217 C212 0.930 . S
N218 Cu207 1.985 . S
N218 C220 1.335 . S
N218 C221 1.390 . S
N219 C220 1.345 . S
N219 C222 1.336 . S
C220 N218 1.335 . S
C220 N219 1.345 . S
C220 H225 0.930 . S
C221 N218 1.390 . S
C221 C222 1.346 . S
C221 H226 0.930 . S
C222 N219 1.336 . S
C222 C221 1.346 . S
C222 H229 0.929 . S
C223 O213 1.282 . S
C223 O224 1.216 . S
O224 C223 1.216 . S
H225 C220 0.930 . S
H226 C221 0.930 . S
O227 Cu207 1.959 . S
O227 C214 1.251 . S
H228 C211 0.930 . S
H229 C222 0.929 . S
Cu230 N231 1.999 . S
Cu230 O236 1.974 . S
Cu230 N241 1.985 . S
Cu230 O250 1.959 . S
N231 Cu230 1.999 . S
N231 C233 1.263 . S
N231 C235 1.389 . S
N232 C233 1.358 . S
N232 C234 1.400 . S
C233 N231 1.263 . S
C233 N232 1.358 . S
C233 H239 0.930 . S
C234 N232 1.400 . S
C234 C235 1.351 . S
C234 H251 0.930 . S
C235 N231 1.389 . S
C235 C234 1.351 . S
C235 H240 0.930 . S
O236 Cu230 1.974 . S
O236 C246 1.282 . S
C237 O238 1.261 . S
C237 O250 1.251 . S
O238 C237 1.261 . S
H239 C233 0.930 . S
H240 C235 0.930 . S
N241 Cu230 1.985 . S
N241 C243 1.335 . S
N241 C244 1.390 . S
N242 C243 1.345 . S
N242 C245 1.336 . S
C243 N241 1.335 . S
C243 N242 1.345 . S
C243 H248 0.930 . S
C244 N241 1.390 . S
C244 C245 1.346 . S
C244 H249 0.930 . S
C245 N242 1.336 . S
C245 C244 1.346 . S
C245 H252 0.929 . S
C246 O236 1.282 . S
C246 O247 1.216 . S
O247 C246 1.216 . S
H248 C243 0.930 . S
H249 C244 0.930 . S
O250 Cu230 1.959 . S
O250 C237 1.251 . S
H251 C234 0.930 . S
H252 C245 0.929 . S
Cu253 N254 1.999 . S
Cu253 O259 1.974 . S
Cu253 N264 1.985 . S
Cu253 O273 1.959 . S
N254 Cu253 1.999 . S
N254 C256 1.263 . S
N254 C258 1.389 . S
N255 C256 1.358 . S
N255 C257 1.400 . S
C256 N254 1.263 . S
C256 N255 1.358 . S
C256 H262 0.930 . S
C257 N255 1.400 . S
C257 C258 1.351 . S
C257 H274 0.930 . S
C258 N254 1.389 . S
C258 C257 1.351 . S
C258 H263 0.930 . S
O259 Cu253 1.974 . S
O259 C269 1.282 . S
C260 O261 1.261 . S
C260 O273 1.251 . S
O261 C260 1.261 . S
H262 C256 0.930 . S
H263 C258 0.930 . S
N264 Cu253 1.985 . S
N264 C266 1.335 . S
N264 C267 1.390 . S
N265 C266 1.345 . S
N265 C268 1.336 . S
C266 N264 1.335 . S
C266 N265 1.345 . S
C266 H271 0.930 . S
C267 N264 1.390 . S
C267 C268 1.346 . S
C267 H272 0.930 . S
C268 N265 1.336 . S
C268 C267 1.346 . S
C268 H275 0.929 . S
C269 O259 1.282 . S
C269 O270 1.216 . S
O270 C269 1.216 . S
H271 C266 0.930 . S
H272 C267 0.930 . S
O273 Cu253 1.959 . S
O273 C260 1.251 . S
H274 C257 0.930 . S
H275 C268 0.929 . S
Tb276 C285 2.764 . S
Tb276 O286 2.325 . S
Tb276 O289 2.303 . S
Tb276 O293 2.322 . S
Tb276 O294 2.349 . S
Tb276 O297 2.415 . S
Tb276 O298 2.399 . S
Tb277 O287 2.322 . S
Tb277 O288 2.349 . S
Tb277 O290 2.415 . S
Tb277 O291 2.399 . S
Tb277 O292 2.325 . S
Tb277 O295 2.303 . S
Tb277 C306 2.764 . S
C278 O294 1.261 . S
C278 O295 1.257 . S
C279 C282 1.358 . S
C279 C283 1.332 . S
C279 C285 1.504 . S
C280 C281 1.373 . S
C280 C284 1.308 . S
C281 C280 1.373 . S
C281 C282 1.429 . S
C281 H308 0.932 . S
C282 C279 1.358 . S
C282 C281 1.429 . S
C282 H309 0.930 . S
C283 C279 1.332 . S
C283 C284 1.394 . S
C283 H310 0.932 . S
C284 C280 1.308 . S
C284 C283 1.394 . S
C284 H311 0.929 . S
C285 Tb276 2.764 . S
C285 C279 1.504 . S
C285 O297 1.239 . S
C285 O298 1.263 . S
O286 Tb276 2.325 . S
O286 C296 1.236 . S
O287 Tb277 2.322 . S
O287 C296 1.257 . S
O288 Tb277 2.349 . S
O288 C299 1.261 . S
O289 Tb276 2.303 . S
O289 C299 1.257 . S
O290 Tb277 2.415 . S
O290 C306 1.239 . S
O291 Tb277 2.399 . S
O291 C306 1.263 . S
O292 Tb277 2.325 . S
O292 C307 1.236 . S
O293 Tb276 2.322 . S
O293 C307 1.257 . S
O294 Tb276 2.349 . S
O294 C278 1.261 . S
O295 Tb277 2.303 . S
O295 C278 1.257 . S
C296 O286 1.236 . S
C296 O287 1.257 . S
O297 Tb276 2.415 . S
O297 C285 1.239 . S
O298 Tb276 2.399 . S
O298 C285 1.263 . S
C299 O288 1.261 . S
C299 O289 1.257 . S
C300 C303 1.358 . S
C300 C304 1.332 . S
C300 C306 1.504 . S
C301 C302 1.373 . S
C301 C305 1.308 . S
C302 C301 1.373 . S
C302 C303 1.429 . S
C302 H312 0.932 . S
C303 C300 1.358 . S
C303 C302 1.429 . S
C303 H313 0.930 . S
C304 C300 1.332 . S
C304 C305 1.394 . S
C304 H314 0.932 . S
C305 C301 1.308 . S
C305 C304 1.394 . S
C305 H315 0.929 . S
C306 Tb277 2.764 . S
C306 O290 1.239 . S
C306 O291 1.263 . S
C306 C300 1.504 . S
C307 O292 1.236 . S
C307 O293 1.257 . S
H308 C281 0.932 . S
H309 C282 0.930 . S
H310 C283 0.932 . S
H311 C284 0.929 . S
H312 C302 0.932 . S
H313 C303 0.930 . S
H314 C304 0.932 . S
H315 C305 0.929 . S
Tb316 C325 2.764 . S
Tb316 O326 2.325 . S
Tb316 O329 2.303 . S
Tb316 O333 2.322 . S
Tb316 O334 2.349 . S
Tb316 O337 2.415 . S
Tb316 O338 2.399 . S
Tb317 O327 2.322 . S
Tb317 O328 2.349 . S
Tb317 O330 2.415 . S
Tb317 O331 2.399 . S
Tb317 O332 2.325 . S
Tb317 O335 2.303 . S
Tb317 C346 2.764 . S
C318 O334 1.261 . S
C318 O335 1.257 . S
C319 C322 1.358 . S
C319 C323 1.332 . S
C319 C325 1.504 . S
C320 C321 1.373 . S
C320 C324 1.308 . S
C321 C320 1.373 . S
C321 C322 1.429 . S
C321 H348 0.932 . S
C322 C319 1.358 . S
C322 C321 1.429 . S
C322 H349 0.930 . S
C323 C319 1.332 . S
C323 C324 1.394 . S
C323 H350 0.932 . S
C324 C320 1.308 . S
C324 C323 1.394 . S
C324 H351 0.929 . S
C325 Tb316 2.764 . S
C325 C319 1.504 . S
C325 O337 1.239 . S
C325 O338 1.263 . S
O326 Tb316 2.325 . S
O326 C336 1.236 . S
O327 Tb317 2.322 . S
O327 C336 1.257 . S
O328 Tb317 2.349 . S
O328 C339 1.261 . S
O329 Tb316 2.303 . S
O329 C339 1.257 . S
O330 Tb317 2.415 . S
O330 C346 1.239 . S
O331 Tb317 2.399 . S
O331 C346 1.263 . S
O332 Tb317 2.325 . S
O332 C347 1.236 . S
O333 Tb316 2.322 . S
O333 C347 1.257 . S
O334 Tb316 2.349 . S
O334 C318 1.261 . S
O335 Tb317 2.303 . S
O335 C318 1.257 . S
C336 O326 1.236 . S
C336 O327 1.257 . S
O337 Tb316 2.415 . S
O337 C325 1.239 . S
O338 Tb316 2.399 . S
O338 C325 1.263 . S
C339 O328 1.261 . S
C339 O329 1.257 . S
C340 C343 1.358 . S
C340 C344 1.332 . S
C340 C346 1.504 . S
C341 C342 1.373 . S
C341 C345 1.308 . S
C342 C341 1.373 . S
C342 C343 1.429 . S
C342 H352 0.932 . S
C343 C340 1.358 . S
C343 C342 1.429 . S
C343 H353 0.930 . S
C344 C340 1.332 . S
C344 C345 1.394 . S
C344 H354 0.932 . S
C345 C341 1.308 . S
C345 C344 1.394 . S
C345 H355 0.929 . S
C346 Tb317 2.764 . S
C346 O330 1.239 . S
C346 O331 1.263 . S
C346 C340 1.504 . S
C347 O332 1.236 . S
C347 O333 1.257 . S
H348 C321 0.932 . S
H349 C322 0.930 . S
H350 C323 0.932 . S
H351 C324 0.929 . S
H352 C342 0.932 . S
H353 C343 0.930 . S
H354 C344 0.932 . S
H355 C345 0.929 . S
Tb356 C365 2.764 . S
Tb356 O366 2.325 . S
Tb356 O369 2.303 . S
Tb356 O373 2.322 . S
Tb356 O374 2.349 . S
Tb356 O377 2.415 . S
Tb356 O378 2.399 . S
Tb357 O367 2.322 . S
Tb357 O368 2.349 . S
Tb357 O370 2.415 . S
Tb357 O371 2.399 . S
Tb357 O372 2.325 . S
Tb357 O375 2.303 . S
Tb357 C386 2.764 . S
C358 O374 1.261 . S
C358 O375 1.257 . S
C359 C362 1.358 . S
C359 C363 1.332 . S
C359 C365 1.504 . S
C360 C361 1.373 . S
C360 C364 1.308 . S
C361 C360 1.373 . S
C361 C362 1.429 . S
C361 H388 0.932 . S
C362 C359 1.358 . S
C362 C361 1.429 . S
C362 H389 0.930 . S
C363 C359 1.332 . S
C363 C364 1.394 . S
C363 H390 0.932 . S
C364 C360 1.308 . S
C364 C363 1.394 . S
C364 H391 0.929 . S
C365 Tb356 2.764 . S
C365 C359 1.504 . S
C365 O377 1.239 . S
C365 O378 1.263 . S
O366 Tb356 2.325 . S
O366 C376 1.236 . S
O367 Tb357 2.322 . S
O367 C376 1.257 . S
O368 Tb357 2.349 . S
O368 C379 1.261 . S
O369 Tb356 2.303 . S
O369 C379 1.257 . S
O370 Tb357 2.415 . S
O370 C386 1.239 . S
O371 Tb357 2.399 . S
O371 C386 1.263 . S
O372 Tb357 2.325 . S
O372 C387 1.236 . S
O373 Tb356 2.322 . S
O373 C387 1.257 . S
O374 Tb356 2.349 . S
O374 C358 1.261 . S
O375 Tb357 2.303 . S
O375 C358 1.257 . S
C376 O366 1.236 . S
C376 O367 1.257 . S
O377 Tb356 2.415 . S
O377 C365 1.239 . S
O378 Tb356 2.399 . S
O378 C365 1.263 . S
C379 O368 1.261 . S
C379 O369 1.257 . S
C380 C383 1.358 . S
C380 C384 1.332 . S
C380 C386 1.504 . S
C381 C382 1.373 . S
C381 C385 1.308 . S
C382 C381 1.373 . S
C382 C383 1.429 . S
C382 H392 0.932 . S
C383 C380 1.358 . S
C383 C382 1.429 . S
C383 H393 0.930 . S
C384 C380 1.332 . S
C384 C385 1.394 . S
C384 H394 0.932 . S
C385 C381 1.308 . S
C385 C384 1.394 . S
C385 H395 0.929 . S
C386 Tb357 2.764 . S
C386 O370 1.239 . S
C386 O371 1.263 . S
C386 C380 1.504 . S
C387 O372 1.236 . S
C387 O373 1.257 . S
H388 C361 0.932 . S
H389 C362 0.930 . S
H390 C363 0.932 . S
H391 C364 0.929 . S
H392 C382 0.932 . S
H393 C383 0.930 . S
H394 C384 0.932 . S
H395 C385 0.929 . S
Tb396 C405 2.764 . S
Tb396 O406 2.325 . S
Tb396 O409 2.303 . S
Tb396 O413 2.322 . S
Tb396 O414 2.349 . S
Tb396 O417 2.415 . S
Tb396 O418 2.399 . S
Tb397 O407 2.322 . S
Tb397 O408 2.349 . S
Tb397 O410 2.415 . S
Tb397 O411 2.399 . S
Tb397 O412 2.325 . S
Tb397 O415 2.303 . S
Tb397 C426 2.764 . S
C398 O414 1.261 . S
C398 O415 1.257 . S
C399 C402 1.358 . S
C399 C403 1.332 . S
C399 C405 1.504 . S
C400 C401 1.373 . S
C400 C404 1.308 . S
C401 C400 1.373 . S
C401 C402 1.429 . S
C401 H428 0.932 . S
C402 C399 1.358 . S
C402 C401 1.429 . S
C402 H429 0.930 . S
C403 C399 1.332 . S
C403 C404 1.394 . S
C403 H430 0.932 . S
C404 C400 1.308 . S
C404 C403 1.394 . S
C404 H431 0.929 . S
C405 Tb396 2.764 . S
C405 C399 1.504 . S
C405 O417 1.239 . S
C405 O418 1.263 . S
O406 Tb396 2.325 . S
O406 C416 1.236 . S
O407 Tb397 2.322 . S
O407 C416 1.257 . S
O408 Tb397 2.349 . S
O408 C419 1.261 . S
O409 Tb396 2.303 . S
O409 C419 1.257 . S
O410 Tb397 2.415 . S
O410 C426 1.239 . S
O411 Tb397 2.399 . S
O411 C426 1.263 . S
O412 Tb397 2.325 . S
O412 C427 1.236 . S
O413 Tb396 2.322 . S
O413 C427 1.257 . S
O414 Tb396 2.349 . S
O414 C398 1.261 . S
O415 Tb397 2.303 . S
O415 C398 1.257 . S
C416 O406 1.236 . S
C416 O407 1.257 . S
O417 Tb396 2.415 . S
O417 C405 1.239 . S
O418 Tb396 2.399 . S
O418 C405 1.263 . S
C419 O408 1.261 . S
C419 O409 1.257 . S
C420 C423 1.358 . S
C420 C424 1.332 . S
C420 C426 1.504 . S
C421 C422 1.373 . S
C421 C425 1.308 . S
C422 C421 1.373 . S
C422 C423 1.429 . S
C422 H432 0.932 . S
C423 C420 1.358 . S
C423 C422 1.429 . S
C423 H433 0.930 . S
C424 C420 1.332 . S
C424 C425 1.394 . S
C424 H434 0.932 . S
C425 C421 1.308 . S
C425 C424 1.394 . S
C425 H435 0.929 . S
C426 Tb397 2.764 . S
C426 O410 1.239 . S
C426 O411 1.263 . S
C426 C420 1.504 . S
C427 O412 1.236 . S
C427 O413 1.257 . S
H428 C401 0.932 . S
H429 C402 0.930 . S
H430 C403 0.932 . S
H431 C404 0.929 . S
H432 C422 0.932 . S
H433 C423 0.930 . S
H434 C424 0.932 . S
H435 C425 0.929 . S
Tb436 C445 2.764 . S
Tb436 O446 2.325 . S
Tb436 O449 2.303 . S
Tb436 O453 2.322 . S
Tb436 O454 2.349 . S
Tb436 O457 2.415 . S
Tb436 O458 2.399 . S
Tb437 O447 2.322 . S
Tb437 O448 2.349 . S
Tb437 O450 2.415 . S
Tb437 O451 2.399 . S
Tb437 O452 2.325 . S
Tb437 O455 2.303 . S
Tb437 C466 2.764 . S
C438 O454 1.261 . S
C438 O455 1.257 . S
C439 C442 1.358 . S
C439 C443 1.332 . S
C439 C445 1.504 . S
C440 C441 1.373 . S
C440 C444 1.308 . S
C441 C440 1.373 . S
C441 C442 1.429 . S
C441 H468 0.932 . S
C442 C439 1.358 . S
C442 C441 1.429 . S
C442 H469 0.930 . S
C443 C439 1.332 . S
C443 C444 1.394 . S
C443 H470 0.932 . S
C444 C440 1.308 . S
C444 C443 1.394 . S
C444 H471 0.929 . S
C445 Tb436 2.764 . S
C445 C439 1.504 . S
C445 O457 1.239 . S
C445 O458 1.263 . S
O446 Tb436 2.325 . S
O446 C456 1.236 . S
O447 Tb437 2.322 . S
O447 C456 1.257 . S
O448 Tb437 2.349 . S
O448 C459 1.261 . S
O449 Tb436 2.303 . S
O449 C459 1.257 . S
O450 Tb437 2.415 . S
O450 C466 1.239 . S
O451 Tb437 2.399 . S
O451 C466 1.263 . S
O452 Tb437 2.325 . S
O452 C467 1.236 . S
O453 Tb436 2.322 . S
O453 C467 1.257 . S
O454 Tb436 2.349 . S
O454 C438 1.261 . S
O455 Tb437 2.303 . S
O455 C438 1.257 . S
C456 O446 1.236 . S
C456 O447 1.257 . S
O457 Tb436 2.415 . S
O457 C445 1.239 . S
O458 Tb436 2.399 . S
O458 C445 1.263 . S
C459 O448 1.261 . S
C459 O449 1.257 . S
C460 C463 1.358 . S
C460 C464 1.332 . S
C460 C466 1.504 . S
C461 C462 1.373 . S
C461 C465 1.308 . S
C462 C461 1.373 . S
C462 C463 1.429 . S
C462 H472 0.932 . S
C463 C460 1.358 . S
C463 C462 1.429 . S
C463 H473 0.930 . S
C464 C460 1.332 . S
C464 C465 1.394 . S
C464 H474 0.932 . S
C465 C461 1.308 . S
C465 C464 1.394 . S
C465 H475 0.929 . S
C466 Tb437 2.764 . S
C466 O450 1.239 . S
C466 O451 1.263 . S
C466 C460 1.504 . S
C467 O452 1.236 . S
C467 O453 1.257 . S
H468 C441 0.932 . S
H469 C442 0.930 . S
H470 C443 0.932 . S
H471 C444 0.929 . S
H472 C462 0.932 . S
H473 C463 0.930 . S
H474 C464 0.932 . S
H475 C465 0.929 . S
Tb476 C485 2.764 . S
Tb476 O486 2.325 . S
Tb476 O489 2.303 . S
Tb476 O493 2.322 . S
Tb476 O494 2.349 . S
Tb476 O497 2.415 . S
Tb476 O498 2.399 . S
Tb477 O487 2.322 . S
Tb477 O488 2.349 . S
Tb477 O490 2.415 . S
Tb477 O491 2.399 . S
Tb477 O492 2.325 . S
Tb477 O495 2.303 . S
Tb477 C506 2.764 . S
C478 O494 1.261 . S
C478 O495 1.257 . S
C479 C482 1.358 . S
C479 C483 1.332 . S
C479 C485 1.504 . S
C480 C481 1.373 . S
C480 C484 1.308 . S
C481 C480 1.373 . S
C481 C482 1.429 . S
C481 H508 0.932 . S
C482 C479 1.358 . S
C482 C481 1.429 . S
C482 H509 0.930 . S
C483 C479 1.332 . S
C483 C484 1.394 . S
C483 H510 0.932 . S
C484 C480 1.308 . S
C484 C483 1.394 . S
C484 H511 0.929 . S
C485 Tb476 2.764 . S
C485 C479 1.504 . S
C485 O497 1.239 . S
C485 O498 1.263 . S
O486 Tb476 2.325 . S
O486 C496 1.236 . S
O487 Tb477 2.322 . S
O487 C496 1.257 . S
O488 Tb477 2.349 . S
O488 C499 1.261 . S
O489 Tb476 2.303 . S
O489 C499 1.257 . S
O490 Tb477 2.415 . S
O490 C506 1.239 . S
O491 Tb477 2.399 . S
O491 C506 1.263 . S
O492 Tb477 2.325 . S
O492 C507 1.236 . S
O493 Tb476 2.322 . S
O493 C507 1.257 . S
O494 Tb476 2.349 . S
O494 C478 1.261 . S
O495 Tb477 2.303 . S
O495 C478 1.257 . S
C496 O486 1.236 . S
C496 O487 1.257 . S
O497 Tb476 2.415 . S
O497 C485 1.239 . S
O498 Tb476 2.399 . S
O498 C485 1.263 . S
C499 O488 1.261 . S
C499 O489 1.257 . S
C500 C503 1.358 . S
C500 C504 1.332 . S
C500 C506 1.504 . S
C501 C502 1.373 . S
C501 C505 1.308 . S
C502 C501 1.373 . S
C502 C503 1.429 . S
C502 H512 0.932 . S
C503 C500 1.358 . S
C503 C502 1.429 . S
C503 H513 0.930 . S
C504 C500 1.332 . S
C504 C505 1.394 . S
C504 H514 0.932 . S
C505 C501 1.308 . S
C505 C504 1.394 . S
C505 H515 0.929 . S
C506 Tb477 2.764 . S
C506 O490 1.239 . S
C506 O491 1.263 . S
C506 C500 1.504 . S
C507 O492 1.236 . S
C507 O493 1.257 . S
H508 C481 0.932 . S
H509 C482 0.930 . S
H510 C483 0.932 . S
H511 C484 0.929 . S
H512 C502 0.932 . S
H513 C503 0.930 . S
H514 C504 0.932 . S
H515 C505 0.929 . S
Tb516 C525 2.764 . S
Tb516 O526 2.325 . S
Tb516 O529 2.303 . S
Tb516 O533 2.322 . S
Tb516 O534 2.349 . S
Tb516 O537 2.415 . S
Tb516 O538 2.399 . S
Tb517 O527 2.322 . S
Tb517 O528 2.349 . S
Tb517 O530 2.415 . S
Tb517 O531 2.399 . S
Tb517 O532 2.325 . S
Tb517 O535 2.303 . S
Tb517 C546 2.764 . S
C518 O534 1.261 . S
C518 O535 1.257 . S
C519 C522 1.358 . S
C519 C523 1.332 . S
C519 C525 1.504 . S
C520 C521 1.373 . S
C520 C524 1.308 . S
C521 C520 1.373 . S
C521 C522 1.429 . S
C521 H548 0.932 . S
C522 C519 1.358 . S
C522 C521 1.429 . S
C522 H549 0.930 . S
C523 C519 1.332 . S
C523 C524 1.394 . S
C523 H550 0.932 . S
C524 C520 1.308 . S
C524 C523 1.394 . S
C524 H551 0.929 . S
C525 Tb516 2.764 . S
C525 C519 1.504 . S
C525 O537 1.239 . S
C525 O538 1.263 . S
O526 Tb516 2.325 . S
O526 C536 1.236 . S
O527 Tb517 2.322 . S
O527 C536 1.257 . S
O528 Tb517 2.349 . S
O528 C539 1.261 . S
O529 Tb516 2.303 . S
O529 C539 1.257 . S
O530 Tb517 2.415 . S
O530 C546 1.239 . S
O531 Tb517 2.399 . S
O531 C546 1.263 . S
O532 Tb517 2.325 . S
O532 C547 1.236 . S
O533 Tb516 2.322 . S
O533 C547 1.257 . S
O534 Tb516 2.349 . S
O534 C518 1.261 . S
O535 Tb517 2.303 . S
O535 C518 1.257 . S
C536 O526 1.236 . S
C536 O527 1.257 . S
O537 Tb516 2.415 . S
O537 C525 1.239 . S
O538 Tb516 2.399 . S
O538 C525 1.263 . S
C539 O528 1.261 . S
C539 O529 1.257 . S
C540 C543 1.358 . S
C540 C544 1.332 . S
C540 C546 1.504 . S
C541 C542 1.373 . S
C541 C545 1.308 . S
C542 C541 1.373 . S
C542 C543 1.429 . S
C542 H552 0.932 . S
C543 C540 1.358 . S
C543 C542 1.429 . S
C543 H553 0.930 . S
C544 C540 1.332 . S
C544 C545 1.394 . S
C544 H554 0.932 . S
C545 C541 1.308 . S
C545 C544 1.394 . S
C545 H555 0.929 . S
C546 Tb517 2.764 . S
C546 O530 1.239 . S
C546 O531 1.263 . S
C546 C540 1.504 . S
C547 O532 1.236 . S
C547 O533 1.257 . S
H548 C521 0.932 . S
H549 C522 0.930 . S
H550 C523 0.932 . S
H551 C524 0.929 . S
H552 C542 0.932 . S
H553 C543 0.930 . S
H554 C544 0.932 . S
H555 C545 0.929 . S
Tb556 C565 2.764 . S
Tb556 O566 2.325 . S
Tb556 O569 2.303 . S
Tb556 O573 2.322 . S
Tb556 O574 2.349 . S
Tb556 O577 2.415 . S
Tb556 O578 2.399 . S
Tb557 O567 2.322 . S
Tb557 O568 2.349 . S
Tb557 O570 2.415 . S
Tb557 O571 2.399 . S
Tb557 O572 2.325 . S
Tb557 O575 2.303 . S
Tb557 C586 2.764 . S
C558 O574 1.261 . S
C558 O575 1.257 . S
C559 C562 1.358 . S
C559 C563 1.332 . S
C559 C565 1.504 . S
C560 C561 1.373 . S
C560 C564 1.308 . S
C561 C560 1.373 . S
C561 C562 1.429 . S
C561 H588 0.932 . S
C562 C559 1.358 . S
C562 C561 1.429 . S
C562 H589 0.930 . S
C563 C559 1.332 . S
C563 C564 1.394 . S
C563 H590 0.932 . S
C564 C560 1.308 . S
C564 C563 1.394 . S
C564 H591 0.929 . S
C565 Tb556 2.764 . S
C565 C559 1.504 . S
C565 O577 1.239 . S
C565 O578 1.263 . S
O566 Tb556 2.325 . S
O566 C576 1.236 . S
O567 Tb557 2.322 . S
O567 C576 1.257 . S
O568 Tb557 2.349 . S
O568 C579 1.261 . S
O569 Tb556 2.303 . S
O569 C579 1.257 . S
O570 Tb557 2.415 . S
O570 C586 1.239 . S
O571 Tb557 2.399 . S
O571 C586 1.263 . S
O572 Tb557 2.325 . S
O572 C587 1.236 . S
O573 Tb556 2.322 . S
O573 C587 1.257 . S
O574 Tb556 2.349 . S
O574 C558 1.261 . S
O575 Tb557 2.303 . S
O575 C558 1.257 . S
C576 O566 1.236 . S
C576 O567 1.257 . S
O577 Tb556 2.415 . S
O577 C565 1.239 . S
O578 Tb556 2.399 . S
O578 C565 1.263 . S
C579 O568 1.261 . S
C579 O569 1.257 . S
C580 C583 1.358 . S
C580 C584 1.332 . S
C580 C586 1.504 . S
C581 C582 1.373 . S
C581 C585 1.308 . S
C582 C581 1.373 . S
C582 C583 1.429 . S
C582 H592 0.932 . S
C583 C580 1.358 . S
C583 C582 1.429 . S
C583 H593 0.930 . S
C584 C580 1.332 . S
C584 C585 1.394 . S
C584 H594 0.932 . S
C585 C581 1.308 . S
C585 C584 1.394 . S
C585 H595 0.929 . S
C586 Tb557 2.764 . S
C586 O570 1.239 . S
C586 O571 1.263 . S
C586 C580 1.504 . S
C587 O572 1.236 . S
C587 O573 1.257 . S
H588 C561 0.932 . S
H589 C562 0.930 . S
H590 C563 0.932 . S
H591 C564 0.929 . S
H592 C582 0.932 . S
H593 C583 0.930 . S
H594 C584 0.932 . S
H595 C585 0.929 . S
C596 C597 1.349 . S
C596 C598 1.327 . S
C596 H621 0.950 . S
C597 C596 1.349 . S
C597 C613 1.349 . S
C598 C596 1.327 . S
C598 C617 1.429 . S
C598 H622 0.950 . S
C599 C616 1.574 . S
C599 C618 1.368 . S
C599 H623 0.949 . S
H600 C604 0.949 . S
C601 C602 1.349 . S
C601 C603 1.327 . S
C601 H624 0.950 . S
C602 C601 1.349 . S
C602 C614 1.349 . S
C603 C601 1.327 . S
C603 C619 1.429 . S
C603 H625 0.950 . S
C604 H600 0.949 . S
C604 C612 1.574 . S
C604 C620 1.368 . S
H605 C613 0.950 . S
H606 C611 0.950 . S
H607 C612 0.949 . S
H608 C614 0.950 . S
H609 C615 0.950 . S
H610 C616 0.949 . S
C611 H606 0.950 . S
C611 C613 1.327 . S
C611 C617 1.429 . S
C612 C604 1.574 . S
C612 H607 0.949 . S
C612 C618 1.368 . S
C613 C597 1.349 . S
C613 H605 0.950 . S
C613 C611 1.327 . S
C614 C602 1.349 . S
C614 H608 0.950 . S
C614 C615 1.327 . S
C615 H609 0.950 . S
C615 C614 1.327 . S
C615 C619 1.429 . S
C616 C599 1.574 . S
C616 H610 0.949 . S
C616 C620 1.368 . S
C617 C598 1.429 . S
C617 C611 1.429 . S
C617 C618 1.523 . S
C618 C599 1.368 . S
C618 C612 1.368 . S
C618 C617 1.523 . S
C619 C603 1.429 . S
C619 C615 1.429 . S
C619 C620 1.523 . S
C620 C604 1.368 . S
C620 C616 1.368 . S
C620 C619 1.523 . S
H621 C596 0.950 . S
H622 C598 0.950 . S
H623 C599 0.949 . S
H624 C601 0.950 . S
H625 C603 0.950 . S
C626 C627 1.349 . S
C626 C628 1.327 . S
C626 H651 0.950 . S
C627 C626 1.349 . S
C627 C643 1.349 . S
C628 C626 1.327 . S
C628 C647 1.429 . S
C628 H652 0.950 . S
C629 C646 1.574 . S
C629 C648 1.368 . S
C629 H653 0.949 . S
H630 C634 0.949 . S
C631 C632 1.349 . S
C631 C633 1.327 . S
C631 H654 0.950 . S
C632 C631 1.349 . S
C632 C644 1.349 . S
C633 C631 1.327 . S
C633 C649 1.429 . S
C633 H655 0.950 . S
C634 H630 0.949 . S
C634 C642 1.574 . S
C634 C650 1.368 . S
H635 C643 0.950 . S
H636 C641 0.950 . S
H637 C642 0.949 . S
H638 C644 0.950 . S
H639 C645 0.950 . S
H640 C646 0.949 . S
C641 H636 0.950 . S
C641 C643 1.327 . S
C641 C647 1.429 . S
C642 C634 1.574 . S
C642 H637 0.949 . S
C642 C648 1.368 . S
C643 C627 1.349 . S
C643 H635 0.950 . S
C643 C641 1.327 . S
C644 C632 1.349 . S
C644 H638 0.950 . S
C644 C645 1.327 . S
C645 H639 0.950 . S
C645 C644 1.327 . S
C645 C649 1.429 . S
C646 C629 1.574 . S
C646 H640 0.949 . S
C646 C650 1.368 . S
C647 C628 1.429 . S
C647 C641 1.429 . S
C647 C648 1.523 . S
C648 C629 1.368 . S
C648 C642 1.368 . S
C648 C647 1.523 . S
C649 C633 1.429 . S
C649 C645 1.429 . S
C649 C650 1.523 . S
C650 C634 1.368 . S
C650 C646 1.368 . S
C650 C649 1.523 . S
H651 C626 0.950 . S
H652 C628 0.950 . S
H653 C629 0.949 . S
H654 C631 0.950 . S
H655 C633 0.950 . S
C656 C657 1.349 . S
C656 C658 1.327 . S
C656 H681 0.950 . S
C657 C656 1.349 . S
C657 C673 1.349 . S
C658 C656 1.327 . S
C658 C677 1.429 . S
C658 H682 0.950 . S
C659 C676 1.574 . S
C659 C678 1.368 . S
C659 H683 0.949 . S
H660 C664 0.949 . S
C661 C662 1.349 . S
C661 C663 1.327 . S
C661 H684 0.950 . S
C662 C661 1.349 . S
C662 C674 1.349 . S
C663 C661 1.327 . S
C663 C679 1.429 . S
C663 H685 0.950 . S
C664 H660 0.949 . S
C664 C672 1.574 . S
C664 C680 1.368 . S
H665 C673 0.950 . S
H666 C671 0.950 . S
H667 C672 0.949 . S
H668 C674 0.950 . S
H669 C675 0.950 . S
H670 C676 0.949 . S
C671 H666 0.950 . S
C671 C673 1.327 . S
C671 C677 1.429 . S
C672 C664 1.574 . S
C672 H667 0.949 . S
C672 C678 1.368 . S
C673 C657 1.349 . S
C673 H665 0.950 . S
C673 C671 1.327 . S
C674 C662 1.349 . S
C674 H668 0.950 . S
C674 C675 1.327 . S
C675 H669 0.950 . S
C675 C674 1.327 . S
C675 C679 1.429 . S
C676 C659 1.574 . S
C676 H670 0.949 . S
C676 C680 1.368 . S
C677 C658 1.429 . S
C677 C671 1.429 . S
C677 C678 1.523 . S
C678 C659 1.368 . S
C678 C672 1.368 . S
C678 C677 1.523 . S
C679 C663 1.429 . S
C679 C675 1.429 . S
C679 C680 1.523 . S
C680 C664 1.368 . S
C680 C676 1.368 . S
C680 C679 1.523 . S
H681 C656 0.950 . S
H682 C658 0.950 . S
H683 C659 0.949 . S
H684 C661 0.950 . S
H685 C663 0.950 . S
C686 C687 1.349 . S
C686 C688 1.327 . S
C686 H711 0.950 . S
C687 C686 1.349 . S
C687 C703 1.349 . S
C688 C686 1.327 . S
C688 C707 1.429 . S
C688 H712 0.950 . S
C689 C706 1.574 . S
C689 C708 1.368 . S
C689 H713 0.949 . S
H690 C694 0.949 . S
C691 C692 1.349 . S
C691 C693 1.327 . S
C691 H714 0.950 . S
C692 C691 1.349 . S
C692 C704 1.349 . S
C693 C691 1.327 . S
C693 C709 1.429 . S
C693 H715 0.950 . S
C694 H690 0.949 . S
C694 C702 1.574 . S
C694 C710 1.368 . S
H695 C703 0.950 . S
H696 C701 0.950 . S
H697 C702 0.949 . S
H698 C704 0.950 . S
H699 C705 0.950 . S
H700 C706 0.949 . S
C701 H696 0.950 . S
C701 C703 1.327 . S
C701 C707 1.429 . S
C702 C694 1.574 . S
C702 H697 0.949 . S
C702 C708 1.368 . S
C703 C687 1.349 . S
C703 H695 0.950 . S
C703 C701 1.327 . S
C704 C692 1.349 . S
C704 H698 0.950 . S
C704 C705 1.327 . S
C705 H699 0.950 . S
C705 C704 1.327 . S
C705 C709 1.429 . S
C706 C689 1.574 . S
C706 H700 0.949 . S
C706 C710 1.368 . S
C707 C688 1.429 . S
C707 C701 1.429 . S
C707 C708 1.523 . S
C708 C689 1.368 . S
C708 C702 1.368 . S
C708 C707 1.523 . S
C709 C693 1.429 . S
C709 C705 1.429 . S
C709 C710 1.523 . S
C710 C694 1.368 . S
C710 C706 1.368 . S
C710 C709 1.523 . S
H711 C686 0.950 . S
H712 C688 0.950 . S
H713 C689 0.949 . S
H714 C691 0.950 . S
H715 C693 0.950 . S
C716 C717 1.349 . S
C716 C718 1.327 . S
C716 H741 0.950 . S
C717 C716 1.349 . S
C717 C733 1.349 . S
C718 C716 1.327 . S
C718 C737 1.429 . S
C718 H742 0.950 . S
C719 C736 1.574 . S
C719 C738 1.368 . S
C719 H743 0.949 . S
H720 C724 0.949 . S
C721 C722 1.349 . S
C721 C723 1.327 . S
C721 H744 0.950 . S
C722 C721 1.349 . S
C722 C734 1.349 . S
C723 C721 1.327 . S
C723 C739 1.429 . S
C723 H745 0.950 . S
C724 H720 0.949 . S
C724 C732 1.574 . S
C724 C740 1.368 . S
H725 C733 0.950 . S
H726 C731 0.950 . S
H727 C732 0.949 . S
H728 C734 0.950 . S
H729 C735 0.950 . S
H730 C736 0.949 . S
C731 H726 0.950 . S
C731 C733 1.327 . S
C731 C737 1.429 . S
C732 C724 1.574 . S
C732 H727 0.949 . S
C732 C738 1.368 . S
C733 C717 1.349 . S
C733 H725 0.950 . S
C733 C731 1.327 . S
C734 C722 1.349 . S
C734 H728 0.950 . S
C734 C735 1.327 . S
C735 H729 0.950 . S
C735 C734 1.327 . S
C735 C739 1.429 . S
C736 C719 1.574 . S
C736 H730 0.949 . S
C736 C740 1.368 . S
C737 C718 1.429 . S
C737 C731 1.429 . S
C737 C738 1.523 . S
C738 C719 1.368 . S
C738 C732 1.368 . S
C738 C737 1.523 . S
C739 C723 1.429 . S
C739 C735 1.429 . S
C739 C740 1.523 . S
C740 C724 1.368 . S
C740 C736 1.368 . S
C740 C739 1.523 . S
H741 C716 0.950 . S
H742 C718 0.950 . S
H743 C719 0.949 . S
H744 C721 0.950 . S
H745 C723 0.950 . S
C746 C747 1.349 . S
C746 C748 1.327 . S
C746 H771 0.950 . S
C747 C746 1.349 . S
C747 C763 1.349 . S
C748 C746 1.327 . S
C748 C767 1.429 . S
C748 H772 0.950 . S
C749 C766 1.574 . S
C749 C768 1.368 . S
C749 H773 0.949 . S
H750 C754 0.949 . S
C751 C752 1.349 . S
C751 C753 1.327 . S
C751 H774 0.950 . S
C752 C751 1.349 . S
C752 C764 1.349 . S
C753 C751 1.327 . S
C753 C769 1.429 . S
C753 H775 0.950 . S
C754 H750 0.949 . S
C754 C762 1.574 . S
C754 C770 1.368 . S
H755 C763 0.950 . S
H756 C761 0.950 . S
H757 C762 0.949 . S
H758 C764 0.950 . S
H759 C765 0.950 . S
H760 C766 0.949 . S
C761 H756 0.950 . S
C761 C763 1.327 . S
C761 C767 1.429 . S
C762 C754 1.574 . S
C762 H757 0.949 . S
C762 C768 1.368 . S
C763 C747 1.349 . S
C763 H755 0.950 . S
C763 C761 1.327 . S
C764 C752 1.349 . S
C764 H758 0.950 . S
C764 C765 1.327 . S
C765 H759 0.950 . S
C765 C764 1.327 . S
C765 C769 1.429 . S
C766 C749 1.574 . S
C766 H760 0.949 . S
C766 C770 1.368 . S
C767 C748 1.429 . S
C767 C761 1.429 . S
C767 C768 1.523 . S
C768 C749 1.368 . S
C768 C762 1.368 . S
C768 C767 1.523 . S
C769 C753 1.429 . S
C769 C765 1.429 . S
C769 C770 1.523 . S
C770 C754 1.368 . S
C770 C766 1.368 . S
C770 C769 1.523 . S
H771 C746 0.950 . S
H772 C748 0.950 . S
H773 C749 0.949 . S
H774 C751 0.950 . S
H775 C753 0.950 . S
C776 C777 1.349 . S
C776 C778 1.327 . S
C776 H801 0.950 . S
C777 C776 1.349 . S
C777 C793 1.349 . S
C778 C776 1.327 . S
C778 C797 1.429 . S
C778 H802 0.950 . S
C779 C796 1.574 . S
C779 C798 1.368 . S
C779 H803 0.949 . S
H780 C784 0.949 . S
C781 C782 1.349 . S
C781 C783 1.327 . S
C781 H804 0.950 . S
C782 C781 1.349 . S
C782 C794 1.349 . S
C783 C781 1.327 . S
C783 C799 1.429 . S
C783 H805 0.950 . S
C784 H780 0.949 . S
C784 C792 1.574 . S
C784 C800 1.368 . S
H785 C793 0.950 . S
H786 C791 0.950 . S
H787 C792 0.949 . S
H788 C794 0.950 . S
H789 C795 0.950 . S
H790 C796 0.949 . S
C791 H786 0.950 . S
C791 C793 1.327 . S
C791 C797 1.429 . S
C792 C784 1.574 . S
C792 H787 0.949 . S
C792 C798 1.368 . S
C793 C777 1.349 . S
C793 H785 0.950 . S
C793 C791 1.327 . S
C794 C782 1.349 . S
C794 H788 0.950 . S
C794 C795 1.327 . S
C795 H789 0.950 . S
C795 C794 1.327 . S
C795 C799 1.429 . S
C796 C779 1.574 . S
C796 H790 0.949 . S
C796 C800 1.368 . S
C797 C778 1.429 . S
C797 C791 1.429 . S
C797 C798 1.523 . S
C798 C779 1.368 . S
C798 C792 1.368 . S
C798 C797 1.523 . S
C799 C783 1.429 . S
C799 C795 1.429 . S
C799 C800 1.523 . S
C800 C784 1.368 . S
C800 C796 1.368 . S
C800 C799 1.523 . S
H801 C776 0.950 . S
H802 C778 0.950 . S
H803 C779 0.949 . S
H804 C781 0.950 . S
H805 C783 0.950 . S
C806 C807 1.349 . S
C806 C808 1.327 . S
C806 H831 0.950 . S
C807 C806 1.349 . S
C807 C823 1.349 . S
C808 C806 1.327 . S
C808 C827 1.429 . S
C808 H832 0.950 . S
C809 C826 1.574 . S
C809 C828 1.368 . S
C809 H833 0.949 . S
H810 C814 0.949 . S
C811 C812 1.349 . S
C811 C813 1.327 . S
C811 H834 0.950 . S
C812 C811 1.349 . S
C812 C824 1.349 . S
C813 C811 1.327 . S
C813 C829 1.429 . S
C813 H835 0.950 . S
C814 H810 0.949 . S
C814 C822 1.574 . S
C814 C830 1.368 . S
H815 C823 0.950 1_545 S
H816 C821 0.950 . S
H817 C822 0.949 . S
H818 C824 0.950 . S
H819 C825 0.950 . S
H820 C826 0.949 . S
C821 H816 0.950 . S
C821 C823 1.327 . S
C821 C827 1.429 . S
C822 C814 1.574 . S
C822 H817 0.949 . S
C822 C828 1.368 . S
C823 C807 1.349 . S
C823 H815 0.950 1_565 S
C823 C821 1.327 . S
C824 C812 1.349 . S
C824 H818 0.950 . S
C824 C825 1.327 . S
C825 H819 0.950 . S
C825 C824 1.327 . S
C825 C829 1.429 . S
C826 C809 1.574 . S
C826 H820 0.949 . S
C826 C830 1.368 . S
C827 C808 1.429 . S
C827 C821 1.429 . S
C827 C828 1.523 . S
C828 C809 1.368 . S
C828 C822 1.368 . S
C828 C827 1.523 . S
C829 C813 1.429 . S
C829 C825 1.429 . S
C829 C830 1.523 . S
C830 C814 1.368 . S
C830 C826 1.368 . S
C830 C829 1.523 . S
H831 C806 0.950 . S
H832 C808 0.950 . S
H833 C809 0.949 . S
H834 C811 0.950 . S
H835 C813 0.950 . S
C836 C837 1.349 . S
C836 C838 1.327 . S
C836 H861 0.950 . S
C837 C836 1.349 . S
C837 C853 1.349 . S
C838 C836 1.327 . S
C838 C857 1.429 . S
C838 H862 0.950 . S
C839 C856 1.574 . S
C839 C858 1.368 . S
C839 H863 0.949 . S
H840 C844 0.949 . S
C841 C842 1.349 . S
C841 C843 1.327 . S
C841 H864 0.950 . S
C842 C841 1.349 . S
C842 C854 1.349 . S
C843 C841 1.327 . S
C843 C859 1.429 . S
C843 H865 0.950 . S
C844 H840 0.949 . S
C844 C852 1.574 . S
C844 C860 1.368 . S
H845 C853 0.950 . S
H846 C851 0.950 . S
H847 C852 0.949 . S
H848 C854 0.950 . S
H849 C855 0.950 . S
H850 C856 0.949 . S
C851 H846 0.950 . S
C851 C853 1.327 . S
C851 C857 1.429 . S
C852 C844 1.574 . S
C852 H847 0.949 . S
C852 C858 1.368 . S
C853 C837 1.349 . S
C853 H845 0.950 . S
C853 C851 1.327 . S
C854 C842 1.349 . S
C854 H848 0.950 . S
C854 C855 1.327 . S
C855 H849 0.950 . S
C855 C854 1.327 . S
C855 C859 1.429 . S
C856 C839 1.574 . S
C856 H850 0.949 . S
C856 C860 1.368 . S
C857 C838 1.429 . S
C857 C851 1.429 . S
C857 C858 1.523 . S
C858 C839 1.368 . S
C858 C852 1.368 . S
C858 C857 1.523 . S
C859 C843 1.429 . S
C859 C855 1.429 . S
C859 C860 1.523 . S
C860 C844 1.368 . S
C860 C856 1.368 . S
C860 C859 1.523 . S
H861 C836 0.950 . S
H862 C838 0.950 . S
H863 C839 0.949 . S
H864 C841 0.950 . S
H865 C843 0.950 . S
C866 C867 1.349 . S
C866 C868 1.327 . S
C866 H891 0.950 . S
C867 C866 1.349 . S
C867 C883 1.349 . S
C868 C866 1.327 . S
C868 C887 1.429 . S
C868 H892 0.950 . S
C869 C886 1.574 . S
C869 C888 1.368 . S
C869 H893 0.949 . S
H870 C874 0.949 . S
C871 C872 1.349 . S
C871 C873 1.327 . S
C871 H894 0.950 . S
C872 C871 1.349 . S
C872 C884 1.349 . S
C873 C871 1.327 . S
C873 C889 1.429 . S
C873 H895 0.950 . S
C874 H870 0.949 . S
C874 C882 1.574 . S
C874 C890 1.368 . S
H875 C883 0.950 . S
H876 C881 0.950 . S
H877 C882 0.949 . S
H878 C884 0.950 . S
H879 C885 0.950 . S
H880 C886 0.949 . S
C881 H876 0.950 . S
C881 C883 1.327 . S
C881 C887 1.429 . S
C882 C874 1.574 . S
C882 H877 0.949 . S
C882 C888 1.368 . S
C883 C867 1.349 . S
C883 H875 0.950 . S
C883 C881 1.327 . S
C884 C872 1.349 . S
C884 H878 0.950 . S
C884 C885 1.327 . S
C885 H879 0.950 . S
C885 C884 1.327 . S
C885 C889 1.429 . S
C886 C869 1.574 . S
C886 H880 0.949 . S
C886 C890 1.368 . S
C887 C868 1.429 . S
C887 C881 1.429 . S
C887 C888 1.523 . S
C888 C869 1.368 . S
C888 C882 1.368 . S
C888 C887 1.523 . S
C889 C873 1.429 . S
C889 C885 1.429 . S
C889 C890 1.523 . S
C890 C874 1.368 . S
C890 C886 1.368 . S
C890 C889 1.523 . S
H891 C866 0.950 . S
H892 C868 0.950 . S
H893 C869 0.949 . S
H894 C871 0.950 . S
H895 C873 0.950 . S
C896 C897 1.349 . S
C896 C898 1.327 . S
C896 H921 0.950 . S
C897 C896 1.349 . S
C897 C913 1.349 . S
C898 C896 1.327 . S
C898 C917 1.429 . S
C898 H922 0.950 . S
C899 C916 1.574 . S
C899 C918 1.368 . S
C899 H923 0.949 . S
H900 C904 0.949 . S
C901 C902 1.349 . S
C901 C903 1.327 . S
C901 H924 0.950 . S
C902 C901 1.349 . S
C902 C914 1.349 . S
C903 C901 1.327 . S
C903 C919 1.429 . S
C903 H925 0.950 . S
C904 H900 0.949 . S
C904 C912 1.574 . S
C904 C920 1.368 . S
H905 C913 0.950 . S
H906 C911 0.950 . S
H907 C912 0.949 . S
H908 C914 0.950 . S
H909 C915 0.950 . S
H910 C916 0.949 . S
C911 H906 0.950 . S
C911 C913 1.327 . S
C911 C917 1.429 . S
C912 C904 1.574 . S
C912 H907 0.949 . S
C912 C918 1.368 . S
C913 C897 1.349 . S
C913 H905 0.950 . S
C913 C911 1.327 . S
C914 C902 1.349 . S
C914 H908 0.950 . S
C914 C915 1.327 . S
C915 H909 0.950 . S
C915 C914 1.327 . S
C915 C919 1.429 . S
C916 C899 1.574 . S
C916 H910 0.949 . S
C916 C920 1.368 . S
C917 C898 1.429 . S
C917 C911 1.429 . S
C917 C918 1.523 . S
C918 C899 1.368 . S
C918 C912 1.368 . S
C918 C917 1.523 . S
C919 C903 1.429 . S
C919 C915 1.429 . S
C919 C920 1.523 . S
C920 C904 1.368 . S
C920 C916 1.368 . S
C920 C919 1.523 . S
H921 C896 0.950 . S
H922 C898 0.950 . S
H923 C899 0.949 . S
H924 C901 0.950 . S
H925 C903 0.950 . S
C926 C927 1.349 . S
C926 C928 1.327 . S
C926 H951 0.950 . S
C927 C926 1.349 . S
C927 C943 1.349 . S
C928 C926 1.327 . S
C928 C947 1.429 . S
C928 H952 0.950 . S
C929 C946 1.574 . S
C929 C948 1.368 . S
C929 H953 0.949 . S
H930 C934 0.949 . S
C931 C932 1.349 . S
C931 C933 1.327 . S
C931 H954 0.950 . S
C932 C931 1.349 . S
C932 C944 1.349 . S
C933 C931 1.327 . S
C933 C949 1.429 . S
C933 H955 0.950 . S
C934 H930 0.949 . S
C934 C942 1.574 . S
C934 C950 1.368 . S
H935 C943 0.950 . S
H936 C941 0.950 . S
H937 C942 0.949 . S
H938 C944 0.950 . S
H939 C945 0.950 . S
H940 C946 0.949 . S
C941 H936 0.950 . S
C941 C943 1.327 . S
C941 C947 1.429 . S
C942 C934 1.574 . S
C942 H937 0.949 . S
C942 C948 1.368 . S
C943 C927 1.349 . S
C943 H935 0.950 . S
C943 C941 1.327 . S
C944 C932 1.349 . S
C944 H938 0.950 . S
C944 C945 1.327 . S
C945 H939 0.950 . S
C945 C944 1.327 . S
C945 C949 1.429 . S
C946 C929 1.574 . S
C946 H940 0.949 . S
C946 C950 1.368 . S
C947 C928 1.429 . S
C947 C941 1.429 . S
C947 C948 1.523 . S
C948 C929 1.368 . S
C948 C942 1.368 . S
C948 C947 1.523 . S
C949 C933 1.429 . S
C949 C945 1.429 . S
C949 C950 1.523 . S
C950 C934 1.368 . S
C950 C946 1.368 . S
C950 C949 1.523 . S
H951 C926 0.950 . S
H952 C928 0.950 . S
H953 C929 0.949 . S
H954 C931 0.950 . S
H955 C933 0.950 . S
C956 C957 1.349 . S
C956 C958 1.327 1_554 S
C956 H981 0.950 . S
C957 C956 1.349 . S
C957 C973 1.349 . S
C958 C956 1.327 1_556 S
C958 C977 1.429 . S
C958 H982 0.950 . S
C959 C976 1.574 . S
C959 C978 1.368 . S
C959 H983 0.981 . S
H960 C964 0.949 . S
C961 C962 1.349 . S
C961 C963 1.327 . S
C961 H984 0.950 . S
C962 C961 1.349 . S
C962 C974 1.349 . S
C963 C961 1.327 . S
C963 C979 1.429 . S
C963 H985 0.950 . S
C964 H960 0.949 . S
C964 C972 1.574 . S
C964 C980 1.368 . S
H965 C973 0.950 . S
H966 C971 0.950 . S
H967 C972 0.949 . S
H968 C974 0.950 . S
H969 C975 0.950 . S
H970 C976 0.949 . S
C971 H966 0.950 . S
C971 C973 1.327 . S
C971 C977 1.429 1_554 S
C972 C964 1.574 . S
C972 H967 0.949 . S
C972 C978 1.368 . S
C973 C957 1.349 . S
C973 H965 0.950 . S
C973 C971 1.327 . S
C974 C962 1.349 . S
C974 H968 0.950 . S
C974 C975 1.327 . S
C975 H969 0.950 . S
C975 C974 1.327 . S
C975 C979 1.429 . S
C976 C959 1.574 . S
C976 H970 0.949 . S
C976 C980 1.368 . S
C977 C958 1.429 . S
C977 C971 1.429 1_556 S
C977 C978 1.523 . S
C978 C959 1.368 . S
C978 C972 1.368 . S
C978 C977 1.523 . S
C979 C963 1.429 . S
C979 C975 1.429 . S
C979 C980 1.523 . S
C980 C964 1.368 . S
C980 C976 1.368 . S
C980 C979 1.523 . S
H981 C956 0.950 . S
H982 C958 0.950 . S
H983 C959 0.981 . S
H984 C961 0.950 . S
H985 C963 0.950 . S
C986 C987 1.349 . S
C986 C988 1.327 . S
C986 H1011 0.950 1_556 S
C987 C986 1.349 . S
C987 C1003 1.349 . S
C988 C986 1.327 . S
C988 C1007 1.429 . S
C988 H1012 0.950 . S
C989 C1006 1.574 . S
C989 C1008 1.368 . S
C989 H1013 0.949 . S
H990 C994 0.949 . S
C991 C992 1.349 . S
C991 C993 1.327 . S
C991 H1014 0.950 . S
C992 C991 1.349 . S
C992 C1004 1.349 . S
C993 C991 1.327 . S
C993 C1009 1.429 . S
C993 H1015 0.950 . S
C994 H990 0.949 . S
C994 C1002 1.574 . S
C994 C1010 1.368 . S
H995 C1003 0.950 . S
H996 C1001 0.950 . S
H997 C1002 0.949 . S
H998 C1004 0.950 . S
H999 C1005 0.950 . S
H1000 C1006 0.949 . S
C1001 H996 0.950 . S
C1001 C1003 1.327 . S
C1001 C1007 1.429 . S
C1002 C994 1.574 . S
C1002 H997 0.949 . S
C1002 C1008 1.368 . S
C1003 C987 1.349 . S
C1003 H995 0.950 . S
C1003 C1001 1.327 . S
C1004 C992 1.349 . S
C1004 H998 0.950 . S
C1004 C1005 1.327 . S
C1005 H999 0.950 . S
C1005 C1004 1.327 . S
C1005 C1009 1.429 . S
C1006 C989 1.574 . S
C1006 H1000 0.949 . S
C1006 C1010 1.368 . S
C1007 C988 1.429 . S
C1007 C1001 1.429 . S
C1007 C1008 1.523 . S
C1008 C989 1.368 . S
C1008 C1002 1.368 . S
C1008 C1007 1.523 . S
C1009 C993 1.429 . S
C1009 C1005 1.429 . S
C1009 C1010 1.523 . S
C1010 C994 1.368 . S
C1010 C1006 1.368 . S
C1010 C1009 1.523 . S
H1011 C986 0.950 1_554 S
H1012 C988 0.950 . S
H1013 C989 0.949 . S
H1014 C991 0.950 . S
H1015 C993 0.950 . S
C1016 C1017 1.349 . S
C1016 C1018 1.327 . S
C1016 H1041 0.950 . S
C1017 C1016 1.349 . S
C1017 C1033 1.349 . S
C1018 C1016 1.327 . S
C1018 C1037 1.429 . S
C1018 H1042 0.950 . S
C1019 C1036 1.574 . S
C1019 C1038 1.368 . S
C1019 H1043 0.949 . S
H1020 C1024 0.949 . S
C1021 C1022 1.349 . S
C1021 C1023 1.327 . S
C1021 H1044 0.950 . S
C1022 C1021 1.349 . S
C1022 C1034 1.349 . S
C1023 C1021 1.327 . S
C1023 C1039 1.429 . S
C1023 H1045 0.950 . S
C1024 H1020 0.949 . S
C1024 C1032 1.574 . S
C1024 C1040 1.368 . S
H1025 C1033 0.950 . S
H1026 C1031 0.950 . S
H1027 C1032 0.949 . S
H1028 C1034 0.950 . S
H1029 C1035 0.950 . S
H1030 C1036 0.949 . S
C1031 H1026 0.950 . S
C1031 C1033 1.327 . S
C1031 C1037 1.429 . S
C1032 C1024 1.574 . S
C1032 H1027 0.949 . S
C1032 C1038 1.368 . S
C1033 C1017 1.349 . S
C1033 H1025 0.950 . S
C1033 C1031 1.327 . S
C1034 C1022 1.349 . S
C1034 H1028 0.950 . S
C1034 C1035 1.327 . S
C1035 H1029 0.950 . S
C1035 C1034 1.327 . S
C1035 C1039 1.429 . S
C1036 C1019 1.574 . S
C1036 H1030 0.949 . S
C1036 C1040 1.368 . S
C1037 C1018 1.429 . S
C1037 C1031 1.429 . S
C1037 C1038 1.523 . S
C1038 C1019 1.368 . S
C1038 C1032 1.368 . S
C1038 C1037 1.523 . S
C1039 C1023 1.429 . S
C1039 C1035 1.429 . S
C1039 C1040 1.523 . S
C1040 C1024 1.368 . S
C1040 C1036 1.368 . S
C1040 C1039 1.523 . S
H1041 C1016 0.950 . S
H1042 C1018 0.950 . S
H1043 C1019 0.949 . S
H1044 C1021 0.950 . S
H1045 C1023 0.950 . S
C1046 C1047 1.349 . S
C1046 C1048 1.327 . S
C1046 H1071 0.950 . S
C1047 C1046 1.349 . S
C1047 C1063 1.349 . S
C1048 C1046 1.327 . S
C1048 C1067 1.429 . S
C1048 H1072 0.950 . S
C1049 C1066 1.574 . S
C1049 C1068 1.368 . S
C1049 H1073 0.949 . S
H1050 C1054 0.949 . S
C1051 C1052 1.349 . S
C1051 C1053 1.327 . S
C1051 H1074 0.950 . S
C1052 C1051 1.349 . S
C1052 C1064 1.349 . S
C1053 C1051 1.327 . S
C1053 C1069 1.429 . S
C1053 H1075 0.950 . S
C1054 H1050 0.949 . S
C1054 C1062 1.574 . S
C1054 C1070 1.368 . S
H1055 C1063 0.950 . S
H1056 C1061 0.950 . S
H1057 C1062 0.949 . S
H1058 C1064 0.950 . S
H1059 C1065 0.950 . S
H1060 C1066 0.949 . S
C1061 H1056 0.950 . S
C1061 C1063 1.327 . S
C1061 C1067 1.429 . S
C1062 C1054 1.574 . S
C1062 H1057 0.949 . S
C1062 C1068 1.368 . S
C1063 C1047 1.349 . S
C1063 H1055 0.950 . S
C1063 C1061 1.327 . S
C1064 C1052 1.349 . S
C1064 H1058 0.950 . S
C1064 C1065 1.327 . S
C1065 H1059 0.950 . S
C1065 C1064 1.327 . S
C1065 C1069 1.429 . S
C1066 C1049 1.574 . S
C1066 H1060 0.949 . S
C1066 C1070 1.368 . S
C1067 C1048 1.429 . S
C1067 C1061 1.429 . S
C1067 C1068 1.523 . S
C1068 C1049 1.368 . S
C1068 C1062 1.368 . S
C1068 C1067 1.523 . S
C1069 C1053 1.429 . S
C1069 C1065 1.429 . S
C1069 C1070 1.523 . S
C1070 C1054 1.368 . S
C1070 C1066 1.368 . S
C1070 C1069 1.523 . S
H1071 C1046 0.950 . S
H1072 C1048 0.950 . S
H1073 C1049 0.949 . S
H1074 C1051 0.950 . S
H1075 C1053 0.950 . S
C1076 C1077 1.349 . S
C1076 C1078 1.327 . S
C1076 H1101 0.950 . S
C1077 C1076 1.349 . S
C1077 C1093 1.349 . S
C1078 C1076 1.327 . S
C1078 C1097 1.429 . S
C1078 H1102 0.950 . S
C1079 C1096 1.574 . S
C1079 C1098 1.368 . S
C1079 H1103 0.949 . S
H1080 C1084 0.949 . S
C1081 C1082 1.349 . S
C1081 C1083 1.327 . S
C1081 H1104 0.950 . S
C1082 C1081 1.349 . S
C1082 C1094 1.349 . S
C1083 C1081 1.327 . S
C1083 C1099 1.429 . S
C1083 H1105 0.950 . S
C1084 H1080 0.949 . S
C1084 C1092 1.574 . S
C1084 C1100 1.368 . S
H1085 C1093 0.950 . S
H1086 C1091 0.950 . S
H1087 C1092 0.949 . S
H1088 C1094 0.950 . S
H1089 C1095 0.950 . S
H1090 C1096 0.949 . S
C1091 H1086 0.950 . S
C1091 C1093 1.327 . S
C1091 C1097 1.429 . S
C1092 C1084 1.574 . S
C1092 H1087 0.949 . S
C1092 C1098 1.368 . S
C1093 C1077 1.349 . S
C1093 H1085 0.950 . S
C1093 C1091 1.327 . S
C1094 C1082 1.349 . S
C1094 H1088 0.950 . S
C1094 C1095 1.327 . S
C1095 H1089 0.950 . S
C1095 C1094 1.327 . S
C1095 C1099 1.429 . S
C1096 C1079 1.574 . S
C1096 H1090 0.949 . S
C1096 C1100 1.368 . S
C1097 C1078 1.429 . S
C1097 C1091 1.429 . S
C1097 C1098 1.523 . S
C1098 C1079 1.368 . S
C1098 C1092 1.368 . S
C1098 C1097 1.523 . S
C1099 C1083 1.429 . S
C1099 C1095 1.429 . S
C1099 C1100 1.523 . S
C1100 C1084 1.368 . S
C1100 C1096 1.368 . S
C1100 C1099 1.523 . S
H1101 C1076 0.950 . S
H1102 C1078 0.950 . S
H1103 C1079 0.949 . S
H1104 C1081 0.950 . S
H1105 C1083 0.950 . S
C1106 C1107 1.349 . S
C1106 C1108 1.327 . S
C1106 H1131 0.950 . S
C1107 C1106 1.349 . S
C1107 C1123 1.349 . S
C1108 C1106 1.327 . S
C1108 C1127 1.429 . S
C1108 H1132 0.950 . S
C1109 C1126 1.574 . S
C1109 C1128 1.368 . S
C1109 H1133 0.949 . S
H1110 C1114 0.949 . S
C1111 C1112 1.349 . S
C1111 C1113 1.327 . S
C1111 H1134 0.950 . S
C1112 C1111 1.349 . S
C1112 C1124 1.349 . S
C1113 C1111 1.327 . S
C1113 C1129 1.429 . S
C1113 H1135 0.950 . S
C1114 H1110 0.949 . S
C1114 C1122 1.574 . S
C1114 C1130 1.368 . S
H1115 C1123 0.950 . S
H1116 C1121 0.950 . S
H1117 C1122 0.949 . S
H1118 C1124 0.950 . S
H1119 C1125 0.950 . S
H1120 C1126 0.949 . S
C1121 H1116 0.950 . S
C1121 C1123 1.327 . S
C1121 C1127 1.429 . S
C1122 C1114 1.574 . S
C1122 H1117 0.949 . S
C1122 C1128 1.368 . S
C1123 C1107 1.349 . S
C1123 H1115 0.950 . S
C1123 C1121 1.327 . S
C1124 C1112 1.349 . S
C1124 H1118 0.950 . S
C1124 C1125 1.327 . S
C1125 H1119 0.950 . S
C1125 C1124 1.327 . S
C1125 C1129 1.429 . S
C1126 C1109 1.574 . S
C1126 H1120 0.949 . S
C1126 C1130 1.368 . S
C1127 C1108 1.429 . S
C1127 C1121 1.429 . S
C1127 C1128 1.523 . S
C1128 C1109 1.368 . S
C1128 C1122 1.368 . S
C1128 C1127 1.523 . S
C1129 C1113 1.429 . S
C1129 C1125 1.429 . S
C1129 C1130 1.523 . S
C1130 C1114 1.368 . S
C1130 C1126 1.368 . S
C1130 C1129 1.523 . S
H1131 C1106 0.950 . S
H1132 C1108 0.950 . S
H1133 C1109 0.949 . S
H1134 C1111 0.950 . S
H1135 C1113 0.950 . S
C1136 C1137 1.349 1_556 S
C1136 C1138 1.327 . S
C1136 H1161 0.950 . S
C1137 C1136 1.349 1_554 S
C1137 C1153 1.349 . S
C1138 C1136 1.327 . S
C1138 C1157 1.429 . S
C1138 H1162 0.950 . S
C1139 C1156 1.574 . S
C1139 C1158 1.368 . S
C1139 H1163 0.949 . S
H1140 C1144 0.949 . S
C1141 C1142 1.349 . S
C1141 C1143 1.327 . S
C1141 H1164 0.950 . S
C1142 C1141 1.349 . S
C1142 C1154 1.349 . S
C1143 C1141 1.327 . S
C1143 C1159 1.429 . S
C1143 H1165 0.950 . S
C1144 H1140 0.949 . S
C1144 C1152 1.574 . S
C1144 C1160 1.368 . S
H1145 C1153 0.950 . S
H1146 C1151 0.950 . S
H1147 C1152 0.949 . S
H1148 C1154 0.950 . S
H1149 C1155 0.950 . S
H1150 C1156 0.949 . S
C1151 H1146 0.950 . S
C1151 C1153 1.327 . S
C1151 C1157 1.429 1_554 S
C1152 C1144 1.574 . S
C1152 H1147 0.949 . S
C1152 C1158 1.368 . S
C1153 C1137 1.349 . S
C1153 H1145 0.950 . S
C1153 C1151 1.327 . S
C1154 C1142 1.349 . S
C1154 H1148 0.950 . S
C1154 C1155 1.327 . S
C1155 H1149 0.950 . S
C1155 C1154 1.327 . S
C1155 C1159 1.429 . S
C1156 C1139 1.574 . S
C1156 H1150 0.949 . S
C1156 C1160 1.368 . S
C1157 C1138 1.429 . S
C1157 C1151 1.429 1_556 S
C1157 C1158 1.523 . S
C1158 C1139 1.368 . S
C1158 C1152 1.368 . S
C1158 C1157 1.523 . S
C1159 C1143 1.429 . S
C1159 C1155 1.429 . S
C1159 C1160 1.523 . S
C1160 C1144 1.368 . S
C1160 C1156 1.368 . S
C1160 C1159 1.523 . S
H1161 C1136 0.950 . S
H1162 C1138 0.950 . S
H1163 C1139 0.949 . S
H1164 C1141 0.950 . S
H1165 C1143 0.950 . S
C1166 C1167 1.349 . S
C1166 C1168 1.327 . S
C1166 H1191 0.950 . S
C1167 C1166 1.349 . S
C1167 C1183 1.319 1_554 S
C1168 C1166 1.327 . S
C1168 C1187 1.429 1_554 S
C1168 H1192 0.950 . S
C1169 C1186 1.574 . S
C1169 C1188 1.368 . S
C1169 H1193 0.949 . S
H1170 C1174 0.949 . S
C1171 C1172 1.349 . S
C1171 C1173 1.327 . S
C1171 H1194 0.950 . S
C1172 C1171 1.349 . S
C1172 C1184 1.349 . S
C1173 C1171 1.327 . S
C1173 C1189 1.429 . S
C1173 H1195 0.950 . S
C1174 H1170 0.949 . S
C1174 C1182 1.574 . S
C1174 C1190 1.368 . S
H1175 C1183 0.958 . S
H1176 C1181 0.950 . S
H1177 C1182 0.949 1_554 S
H1178 C1184 0.950 . S
H1179 C1185 0.950 . S
H1180 C1186 0.949 . S
C1181 H1176 0.950 . S
C1181 C1183 1.350 . S
C1181 C1187 1.429 . S
C1182 C1174 1.574 . S
C1182 H1177 0.949 1_556 S
C1182 C1188 1.368 . S
C1183 C1167 1.319 1_556 S
C1183 H1175 0.958 . S
C1183 C1181 1.350 . S
C1184 C1172 1.349 . S
C1184 H1178 0.950 . S
C1184 C1185 1.327 . S
C1185 H1179 0.950 . S
C1185 C1184 1.327 . S
C1185 C1189 1.429 . S
C1186 C1169 1.574 . S
C1186 H1180 0.949 . S
C1186 C1190 1.368 . S
C1187 C1168 1.429 1_556 S
C1187 C1181 1.429 . S
C1187 C1188 1.523 . S
C1188 C1169 1.368 . S
C1188 C1182 1.368 . S
C1188 C1187 1.523 . S
C1189 C1173 1.429 . S
C1189 C1185 1.429 . S
C1189 C1190 1.523 . S
C1190 C1174 1.368 . S
C1190 C1186 1.368 . S
C1190 C1189 1.523 . S
H1191 C1166 0.950 . S
H1192 C1168 0.950 . S
H1193 C1169 0.949 . S
H1194 C1171 0.950 . S
H1195 C1173 0.950 . S
C1196 C1197 1.349 . S
C1196 C1198 1.327 . S
C1196 H1221 0.950 . S
C1197 C1196 1.349 . S
C1197 C1213 1.349 . S
C1198 C1196 1.327 . S
C1198 C1217 1.429 . S
C1198 H1222 0.950 . S
C1199 C1216 1.574 . S
C1199 C1218 1.368 . S
C1199 H1223 0.949 . S
H1200 C1204 0.949 . S
C1201 C1202 1.349 . S
C1201 C1203 1.327 . S
C1201 H1224 0.950 . S
C1202 C1201 1.349 . S
C1202 C1214 1.349 . S
C1203 C1201 1.327 . S
C1203 C1219 1.429 . S
C1203 H1225 0.950 . S
C1204 H1200 0.949 . S
C1204 C1212 1.574 . S
C1204 C1220 1.368 . S
H1205 C1213 0.950 . S
H1206 C1211 0.950 . S
H1207 C1212 0.949 . S
H1208 C1214 0.950 . S
H1209 C1215 0.950 . S
H1210 C1216 0.949 . S
C1211 H1206 0.950 . S
C1211 C1213 1.327 . S
C1211 C1217 1.429 . S
C1212 C1204 1.574 . S
C1212 H1207 0.949 . S
C1212 C1218 1.368 . S
C1213 C1197 1.349 . S
C1213 H1205 0.950 . S
C1213 C1211 1.327 . S
C1214 C1202 1.349 . S
C1214 H1208 0.950 . S
C1214 C1215 1.327 . S
C1215 H1209 0.950 . S
C1215 C1214 1.327 . S
C1215 C1219 1.429 . S
C1216 C1199 1.574 . S
C1216 H1210 0.949 . S
C1216 C1220 1.368 . S
C1217 C1198 1.429 . S
C1217 C1211 1.429 . S
C1217 C1218 1.523 . S
C1218 C1199 1.368 . S
C1218 C1212 1.368 . S
C1218 C1217 1.523 . S
C1219 C1203 1.429 . S
C1219 C1215 1.429 . S
C1219 C1220 1.523 . S
C1220 C1204 1.368 . S
C1220 C1216 1.368 . S
C1220 C1219 1.523 . S
H1221 C1196 0.950 . S
H1222 C1198 0.950 . S
H1223 C1199 0.949 . S
H1224 C1201 0.950 . S
H1225 C1203 0.950 . S
C1226 C1227 1.349 . S
C1226 C1228 1.327 . S
C1226 H1251 0.950 . S
C1227 C1226 1.349 . S
C1227 C1243 1.349 . S
C1228 C1226 1.327 . S
C1228 C1247 1.429 . S
C1228 H1252 0.950 . S
C1229 C1246 1.574 . S
C1229 C1248 1.368 . S
C1229 H1253 0.949 . S
H1230 C1234 0.949 . S
C1231 C1232 1.349 . S
C1231 C1233 1.327 . S
C1231 H1254 0.950 . S
C1232 C1231 1.349 . S
C1232 C1244 1.349 . S
C1233 C1231 1.327 . S
C1233 C1249 1.429 . S
C1233 H1255 0.950 . S
C1234 H1230 0.949 . S
C1234 C1242 1.574 . S
C1234 C1250 1.368 . S
H1235 C1243 0.950 . S
H1236 C1241 0.950 . S
H1237 C1242 0.949 . S
H1238 C1244 0.950 . S
H1239 C1245 0.950 . S
H1240 C1246 0.949 . S
C1241 H1236 0.950 . S
C1241 C1243 1.327 . S
C1241 C1247 1.429 . S
C1242 C1234 1.574 . S
C1242 H1237 0.949 . S
C1242 C1248 1.368 . S
C1243 C1227 1.349 . S
C1243 H1235 0.950 . S
C1243 C1241 1.327 . S
C1244 C1232 1.349 . S
C1244 H1238 0.950 . S
C1244 C1245 1.327 . S
C1245 H1239 0.950 . S
C1245 C1244 1.327 . S
C1245 C1249 1.429 . S
C1246 C1229 1.574 . S
C1246 H1240 0.949 . S
C1246 C1250 1.368 . S
C1247 C1228 1.429 . S
C1247 C1241 1.429 . S
C1247 C1248 1.523 . S
C1248 C1229 1.368 . S
C1248 C1242 1.368 . S
C1248 C1247 1.523 . S
C1249 C1233 1.429 . S
C1249 C1245 1.429 . S
C1249 C1250 1.523 . S
C1250 C1234 1.368 . S
C1250 C1246 1.368 . S
C1250 C1249 1.523 . S
H1251 C1226 0.950 . S
H1252 C1228 0.950 . S
H1253 C1229 0.949 . S
H1254 C1231 0.950 . S
H1255 C1233 0.950 . S
C1256 C1257 1.349 . S
C1256 C1258 1.327 . S
C1256 H1281 0.947 . S
C1257 C1256 1.349 . S
C1257 C1273 1.349 . S
C1258 C1256 1.327 . S
C1258 C1277 1.429 . S
C1258 H1282 0.950 . S
C1259 C1276 1.574 . S
C1259 C1278 1.368 . S
C1259 H1283 0.949 . S
H1260 C1264 0.949 . S
C1261 C1262 1.349 . S
C1261 C1263 1.327 . S
C1261 H1284 0.950 . S
C1262 C1261 1.349 . S
C1262 C1274 1.349 . S
C1263 C1261 1.327 . S
C1263 C1279 1.429 . S
C1263 H1285 0.950 . S
C1264 H1260 0.949 . S
C1264 C1272 1.574 . S
C1264 C1280 1.368 . S
H1265 C1273 0.950 . S
H1266 C1271 0.950 . S
H1267 C1272 0.949 . S
H1268 C1274 0.950 . S
H1269 C1275 0.950 . S
H1270 C1276 0.949 . S
C1271 H1266 0.950 . S
C1271 C1273 1.327 . S
C1271 C1277 1.429 . S
C1272 C1264 1.574 . S
C1272 H1267 0.949 . S
C1272 C1278 1.368 . S
C1273 C1257 1.349 . S
C1273 H1265 0.950 . S
C1273 C1271 1.327 . S
C1274 C1262 1.349 . S
C1274 H1268 0.950 . S
C1274 C1275 1.327 . S
C1275 H1269 0.950 . S
C1275 C1274 1.327 . S
C1275 C1279 1.429 . S
C1276 C1259 1.574 . S
C1276 H1270 0.949 . S
C1276 C1280 1.368 . S
C1277 C1258 1.429 . S
C1277 C1271 1.429 . S
C1277 C1278 1.523 . S
C1278 C1259 1.368 . S
C1278 C1272 1.368 . S
C1278 C1277 1.523 . S
C1279 C1263 1.429 . S
C1279 C1275 1.429 . S
C1279 C1280 1.523 . S
C1280 C1264 1.368 . S
C1280 C1276 1.368 . S
C1280 C1279 1.523 . S
H1281 C1256 0.947 . S
H1282 C1258 0.950 . S
H1283 C1259 0.949 . S
H1284 C1261 0.950 . S
H1285 C1263 0.950 . S
C1286 C1287 1.349 . S
C1286 C1288 1.327 . S
C1286 H1311 0.950 . S
C1287 C1286 1.349 . S
C1287 C1303 1.349 . S
C1288 C1286 1.327 . S
C1288 C1307 1.429 . S
C1288 H1312 0.950 . S
C1289 C1306 1.574 . S
C1289 C1308 1.368 . S
C1289 H1313 0.949 . S
H1290 C1294 0.949 . S
C1291 C1292 1.349 . S
C1291 C1293 1.327 . S
C1291 H1314 0.950 . S
C1292 C1291 1.349 . S
C1292 C1304 1.349 . S
C1293 C1291 1.327 . S
C1293 C1309 1.429 . S
C1293 H1315 0.950 . S
C1294 H1290 0.949 . S
C1294 C1302 1.574 . S
C1294 C1310 1.368 . S
H1295 C1303 0.950 . S
H1296 C1301 0.950 . S
H1297 C1302 0.949 . S
H1298 C1304 0.950 . S
H1299 C1305 0.950 . S
H1300 C1306 0.949 . S
C1301 H1296 0.950 . S
C1301 C1303 1.327 . S
C1301 C1307 1.429 . S
C1302 C1294 1.574 . S
C1302 H1297 0.949 . S
C1302 C1308 1.368 . S
C1303 C1287 1.349 . S
C1303 H1295 0.950 . S
C1303 C1301 1.327 . S
C1304 C1292 1.349 . S
C1304 H1298 0.950 . S
C1304 C1305 1.327 . S
C1305 H1299 0.950 . S
C1305 C1304 1.327 . S
C1305 C1309 1.429 . S
C1306 C1289 1.574 . S
C1306 H1300 0.949 . S
C1306 C1310 1.368 . S
C1307 C1288 1.429 . S
C1307 C1301 1.429 . S
C1307 C1308 1.523 . S
C1308 C1289 1.368 . S
C1308 C1302 1.368 . S
C1308 C1307 1.523 . S
C1309 C1293 1.429 . S
C1309 C1305 1.429 . S
C1309 C1310 1.523 . S
C1310 C1294 1.368 . S
C1310 C1306 1.368 . S
C1310 C1309 1.523 . S
H1311 C1286 0.950 . S
H1312 C1288 0.950 . S
H1313 C1289 0.949 . S
H1314 C1291 0.950 . S
H1315 C1293 0.950 . S
C1316 C1317 1.349 . S
C1316 C1318 1.327 . S
C1316 H1341 0.950 . S
C1317 C1316 1.349 . S
C1317 C1333 1.349 . S
C1318 C1316 1.327 . S
C1318 C1337 1.429 . S
C1318 H1342 0.950 . S
C1319 C1336 1.574 . S
C1319 C1338 1.368 . S
C1319 H1343 0.949 . S
H1320 C1324 0.949 . S
C1321 C1322 1.349 . S
C1321 C1323 1.327 . S
C1321 H1344 0.950 . S
C1322 C1321 1.349 . S
C1322 C1334 1.349 . S
C1323 C1321 1.327 . S
C1323 C1339 1.429 . S
C1323 H1345 0.950 . S
C1324 H1320 0.949 . S
C1324 C1332 1.574 . S
C1324 C1340 1.368 . S
H1325 C1333 0.950 . S
H1326 C1331 0.950 . S
H1327 C1332 0.949 . S
H1328 C1334 0.950 . S
H1329 C1335 0.950 . S
H1330 C1336 0.949 . S
C1331 H1326 0.950 . S
C1331 C1333 1.327 . S
C1331 C1337 1.429 . S
C1332 C1324 1.574 . S
C1332 H1327 0.949 . S
C1332 C1338 1.368 . S
C1333 C1317 1.349 . S
C1333 H1325 0.950 . S
C1333 C1331 1.327 . S
C1334 C1322 1.349 . S
C1334 H1328 0.950 . S
C1334 C1335 1.327 . S
C1335 H1329 0.950 . S
C1335 C1334 1.327 . S
C1335 C1339 1.429 . S
C1336 C1319 1.574 . S
C1336 H1330 0.949 . S
C1336 C1340 1.368 . S
C1337 C1318 1.429 . S
C1337 C1331 1.429 . S
C1337 C1338 1.523 . S
C1338 C1319 1.368 . S
C1338 C1332 1.368 . S
C1338 C1337 1.523 . S
C1339 C1323 1.429 . S
C1339 C1335 1.429 . S
C1339 C1340 1.523 . S
C1340 C1324 1.368 . S
C1340 C1336 1.368 . S
C1340 C1339 1.523 . S
H1341 C1316 0.950 . S
H1342 C1318 0.950 . S
H1343 C1319 0.949 . S
H1344 C1321 0.950 . S
H1345 C1323 0.950 . S
C1346 C1347 1.349 . S
C1346 C1348 1.327 . S
C1346 H1371 0.950 . S
C1347 C1346 1.349 . S
C1347 C1363 1.349 . S
C1348 C1346 1.327 . S
C1348 C1367 1.429 . S
C1348 H1372 0.950 . S
C1349 C1366 1.574 . S
C1349 C1368 1.368 . S
C1349 H1373 0.949 . S
H1350 C1354 0.949 . S
C1351 C1352 1.349 . S
C1351 C1353 1.327 . S
C1351 H1374 0.950 . S
C1352 C1351 1.349 . S
C1352 C1364 1.349 . S
C1353 C1351 1.327 . S
C1353 C1369 1.429 . S
C1353 H1375 0.950 . S
C1354 H1350 0.949 . S
C1354 C1362 1.574 . S
C1354 C1370 1.368 . S
H1355 C1363 0.950 . S
H1356 C1361 0.950 . S
H1357 C1362 0.949 . S
H1358 C1364 0.950 . S
H1359 C1365 0.950 . S
H1360 C1366 0.949 . S
C1361 H1356 0.950 . S
C1361 C1363 1.327 . S
C1361 C1367 1.429 . S
C1362 C1354 1.574 . S
C1362 H1357 0.949 . S
C1362 C1368 1.368 . S
C1363 C1347 1.349 . S
C1363 H1355 0.950 . S
C1363 C1361 1.327 . S
C1364 C1352 1.349 . S
C1364 H1358 0.950 . S
C1364 C1365 1.327 . S
C1365 H1359 0.950 . S
C1365 C1364 1.327 . S
C1365 C1369 1.429 . S
C1366 C1349 1.574 . S
C1366 H1360 0.949 . S
C1366 C1370 1.368 . S
C1367 C1348 1.429 . S
C1367 C1361 1.429 . S
C1367 C1368 1.523 . S
C1368 C1349 1.368 . S
C1368 C1362 1.368 . S
C1368 C1367 1.523 . S
C1369 C1353 1.429 . S
C1369 C1365 1.429 . S
C1369 C1370 1.523 . S
C1370 C1354 1.368 . S
C1370 C1366 1.368 . S
C1370 C1369 1.523 . S
H1371 C1346 0.950 . S
H1372 C1348 0.950 . S
H1373 C1349 0.949 . S
H1374 C1351 0.950 . S
H1375 C1353 0.950 . S
C1376 C1377 1.349 . S
C1376 C1378 1.327 . S
C1376 H1401 0.950 . S
C1377 C1376 1.349 . S
C1377 C1393 1.349 . S
C1378 C1376 1.327 . S
C1378 C1397 1.429 . S
C1378 H1402 0.950 . S
C1379 C1396 1.574 . S
C1379 C1398 1.368 . S
C1379 H1403 0.949 . S
H1380 C1384 0.949 . S
C1381 C1382 1.349 . S
C1381 C1383 1.327 . S
C1381 H1404 0.950 . S
C1382 C1381 1.349 . S
C1382 C1394 1.349 . S
C1383 C1381 1.327 . S
C1383 C1399 1.429 . S
C1383 H1405 0.950 . S
C1384 H1380 0.949 . S
C1384 C1392 1.574 . S
C1384 C1400 1.368 . S
H1385 C1393 0.950 . S
H1386 C1391 0.950 . S
H1387 C1392 0.949 . S
H1388 C1394 0.950 . S
H1389 C1395 0.950 . S
H1390 C1396 0.949 . S
C1391 H1386 0.950 . S
C1391 C1393 1.327 . S
C1391 C1397 1.429 . S
C1392 C1384 1.574 . S
C1392 H1387 0.949 . S
C1392 C1398 1.368 . S
C1393 C1377 1.349 . S
C1393 H1385 0.950 . S
C1393 C1391 1.327 . S
C1394 C1382 1.349 . S
C1394 H1388 0.950 . S
C1394 C1395 1.327 . S
C1395 H1389 0.950 . S
C1395 C1394 1.327 . S
C1395 C1399 1.429 . S
C1396 C1379 1.574 . S
C1396 H1390 0.949 . S
C1396 C1400 1.368 . S
C1397 C1378 1.429 . S
C1397 C1391 1.429 . S
C1397 C1398 1.523 . S
C1398 C1379 1.368 . S
C1398 C1392 1.368 . S
C1398 C1397 1.523 . S
C1399 C1383 1.429 . S
C1399 C1395 1.429 . S
C1399 C1400 1.523 . S
C1400 C1384 1.368 . S
C1400 C1396 1.368 . S
C1400 C1399 1.523 . S
H1401 C1376 0.950 . S
H1402 C1378 0.950 . S
H1403 C1379 0.949 . S
H1404 C1381 0.950 . S
H1405 C1383 0.950 . S
C1406 C1407 1.349 . S
C1406 C1408 1.327 . S
C1406 H1431 0.950 . S
C1407 C1406 1.349 . S
C1407 C1423 1.349 . S
C1408 C1406 1.327 . S
C1408 C1427 1.429 . S
C1408 H1432 0.950 . S
C1409 C1426 1.574 . S
C1409 C1428 1.368 . S
C1409 H1433 0.949 . S
H1410 C1414 0.949 . S
C1411 C1412 1.349 . S
C1411 C1413 1.327 . S
C1411 H1434 0.950 . S
C1412 C1411 1.349 . S
C1412 C1424 1.349 . S
C1413 C1411 1.327 . S
C1413 C1429 1.429 . S
C1413 H1435 0.950 . S
C1414 H1410 0.949 . S
C1414 C1422 1.574 . S
C1414 C1430 1.368 . S
H1415 C1423 0.950 . S
H1416 C1421 0.950 . S
H1417 C1422 0.949 . S
H1418 C1424 0.950 . S
H1419 C1425 0.950 . S
H1420 C1426 0.949 . S
C1421 H1416 0.950 . S
C1421 C1423 1.327 . S
C1421 C1427 1.429 . S
C1422 C1414 1.574 . S
C1422 H1417 0.949 . S
C1422 C1428 1.368 . S
C1423 C1407 1.349 . S
C1423 H1415 0.950 . S
C1423 C1421 1.327 . S
C1424 C1412 1.349 . S
C1424 H1418 0.950 . S
C1424 C1425 1.327 . S
C1425 H1419 0.950 . S
C1425 C1424 1.327 . S
C1425 C1429 1.429 . S
C1426 C1409 1.574 . S
C1426 H1420 0.949 . S
C1426 C1430 1.368 . S
C1427 C1408 1.429 . S
C1427 C1421 1.429 . S
C1427 C1428 1.523 . S
C1428 C1409 1.368 . S
C1428 C1422 1.368 . S
C1428 C1427 1.523 . S
C1429 C1413 1.429 . S
C1429 C1425 1.429 . S
C1429 C1430 1.523 . S
C1430 C1414 1.368 . S
C1430 C1426 1.368 . S
C1430 C1429 1.523 . S
H1431 C1406 0.950 . S
H1432 C1408 0.950 . S
H1433 C1409 0.949 . S
H1434 C1411 0.950 . S
H1435 C1413 0.950 . S
C1436 C1437 1.349 . S
C1436 C1438 1.327 . S
C1436 H1461 0.950 . S
C1437 C1436 1.349 . S
C1437 C1453 1.349 . S
C1438 C1436 1.327 . S
C1438 C1457 1.429 . S
C1438 H1462 0.950 . S
C1439 C1456 1.574 . S
C1439 C1458 1.368 . S
C1439 H1463 0.949 . S
H1440 C1444 0.949 . S
C1441 C1442 1.349 . S
C1441 C1443 1.327 . S
C1441 H1464 0.950 . S
C1442 C1441 1.349 . S
C1442 C1454 1.349 . S
C1443 C1441 1.327 . S
C1443 C1459 1.429 . S
C1443 H1465 0.950 . S
C1444 H1440 0.949 . S
C1444 C1452 1.574 . S
C1444 C1460 1.368 . S
H1445 C1453 0.950 . S
H1446 C1451 0.950 . S
H1447 C1452 0.949 . S
H1448 C1454 0.950 . S
H1449 C1455 0.950 . S
H1450 C1456 0.949 . S
C1451 H1446 0.950 . S
C1451 C1453 1.327 . S
C1451 C1457 1.429 . S
C1452 C1444 1.574 . S
C1452 H1447 0.949 . S
C1452 C1458 1.368 . S
C1453 C1437 1.349 . S
C1453 H1445 0.950 . S
C1453 C1451 1.327 . S
C1454 C1442 1.349 . S
C1454 H1448 0.950 . S
C1454 C1455 1.327 . S
C1455 H1449 0.950 . S
C1455 C1454 1.327 . S
C1455 C1459 1.429 . S
C1456 C1439 1.574 . S
C1456 H1450 0.949 . S
C1456 C1460 1.368 . S
C1457 C1438 1.429 . S
C1457 C1451 1.429 . S
C1457 C1458 1.523 . S
C1458 C1439 1.368 . S
C1458 C1452 1.368 . S
C1458 C1457 1.523 . S
C1459 C1443 1.429 . S
C1459 C1455 1.429 . S
C1459 C1460 1.523 . S
C1460 C1444 1.368 . S
C1460 C1456 1.368 . S
C1460 C1459 1.523 . S
H1461 C1436 0.950 . S
H1462 C1438 0.950 . S
H1463 C1439 0.949 . S
H1464 C1441 0.950 . S
H1465 C1443 0.950 . S
C1466 C1467 1.349 . S
C1466 C1468 1.327 . S
C1466 H1491 0.950 . S
C1467 C1466 1.349 . S
C1467 C1483 1.349 . S
C1468 C1466 1.327 . S
C1468 C1487 1.429 . S
C1468 H1492 0.950 . S
C1469 C1486 1.574 . S
C1469 C1488 1.368 . S
C1469 H1493 0.949 . S
H1470 C1474 0.949 . S
C1471 C1472 1.349 . S
C1471 C1473 1.327 . S
C1471 H1494 0.950 . S
C1472 C1471 1.349 . S
C1472 C1484 1.349 . S
C1473 C1471 1.327 . S
C1473 C1489 1.429 . S
C1473 H1495 0.950 . S
C1474 H1470 0.949 . S
C1474 C1482 1.574 . S
C1474 C1490 1.368 . S
H1475 C1483 0.950 . S
H1476 C1481 0.950 . S
H1477 C1482 0.949 . S
H1478 C1484 0.950 . S
H1479 C1485 0.950 . S
H1480 C1486 0.949 . S
C1481 H1476 0.950 . S
C1481 C1483 1.327 . S
C1481 C1487 1.429 . S
C1482 C1474 1.574 . S
C1482 H1477 0.949 . S
C1482 C1488 1.368 . S
C1483 C1467 1.349 . S
C1483 H1475 0.950 . S
C1483 C1481 1.327 . S
C1484 C1472 1.349 . S
C1484 H1478 0.950 . S
C1484 C1485 1.327 . S
C1485 H1479 0.950 . S
C1485 C1484 1.327 . S
C1485 C1489 1.429 . S
C1486 C1469 1.574 . S
C1486 H1480 0.949 . S
C1486 C1490 1.368 . S
C1487 C1468 1.429 . S
C1487 C1481 1.429 . S
C1487 C1488 1.523 . S
C1488 C1469 1.368 . S
C1488 C1482 1.368 . S
C1488 C1487 1.523 . S
C1489 C1473 1.429 . S
C1489 C1485 1.429 . S
C1489 C1490 1.523 . S
C1490 C1474 1.368 . S
C1490 C1486 1.368 . S
C1490 C1489 1.523 . S
H1491 C1466 0.950 . S
H1492 C1468 0.950 . S
H1493 C1469 0.949 . S
H1494 C1471 0.950 . S
H1495 C1473 0.950 . S
C1496 C1497 1.349 . S
C1496 C1498 1.327 . S
C1496 H1521 0.950 . S
C1497 C1496 1.349 . S
C1497 C1513 1.349 . S
C1498 C1496 1.327 . S
C1498 C1517 1.429 . S
C1498 H1522 0.950 . S
C1499 C1516 1.574 . S
C1499 C1518 1.368 . S
C1499 H1523 0.949 . S
H1500 C1504 0.949 . S
C1501 C1502 1.349 . S
C1501 C1503 1.327 . S
C1501 H1524 0.950 . S
C1502 C1501 1.349 . S
C1502 C1514 1.349 . S
C1503 C1501 1.327 . S
C1503 C1519 1.429 . S
C1503 H1525 0.950 . S
C1504 H1500 0.949 . S
C1504 C1512 1.574 . S
C1504 C1520 1.368 . S
H1505 C1513 0.950 . S
H1506 C1511 0.950 . S
H1507 C1512 0.949 . S
H1508 C1514 0.950 . S
H1509 C1515 0.950 . S
H1510 C1516 0.949 . S
C1511 H1506 0.950 . S
C1511 C1513 1.327 . S
C1511 C1517 1.429 . S
C1512 C1504 1.574 . S
C1512 H1507 0.949 . S
C1512 C1518 1.368 . S
C1513 C1497 1.349 . S
C1513 H1505 0.950 . S
C1513 C1511 1.327 . S
C1514 C1502 1.349 . S
C1514 H1508 0.950 . S
C1514 C1515 1.327 . S
C1515 H1509 0.950 . S
C1515 C1514 1.327 . S
C1515 C1519 1.429 . S
C1516 C1499 1.574 . S
C1516 H1510 0.949 . S
C1516 C1520 1.368 . S
C1517 C1498 1.429 . S
C1517 C1511 1.429 . S
C1517 C1518 1.523 . S
C1518 C1499 1.368 . S
C1518 C1512 1.368 . S
C1518 C1517 1.523 . S
C1519 C1503 1.429 . S
C1519 C1515 1.429 . S
C1519 C1520 1.523 . S
C1520 C1504 1.368 . S
C1520 C1516 1.368 . S
C1520 C1519 1.523 . S
H1521 C1496 0.950 . S
H1522 C1498 0.950 . S
H1523 C1499 0.949 . S
H1524 C1501 0.950 . S
H1525 C1503 0.950 . S
C1526 C1527 1.349 . S
C1526 C1528 1.327 . S
C1526 H1551 0.950 . S
C1527 C1526 1.349 . S
C1527 C1543 1.349 . S
C1528 C1526 1.327 . S
C1528 C1547 1.429 . S
C1528 H1552 0.950 . S
C1529 C1546 1.574 . S
C1529 C1548 1.368 . S
C1529 H1553 0.949 . S
H1530 C1534 0.949 . S
C1531 C1532 1.349 . S
C1531 C1533 1.327 . S
C1531 H1554 0.950 . S
C1532 C1531 1.349 . S
C1532 C1544 1.349 . S
C1533 C1531 1.327 . S
C1533 C1549 1.429 . S
C1533 H1555 0.950 . S
C1534 H1530 0.949 . S
C1534 C1542 1.574 . S
C1534 C1550 1.368 . S
H1535 C1543 0.950 . S
H1536 C1541 0.950 . S
H1537 C1542 0.949 . S
H1538 C1544 0.950 . S
H1539 C1545 0.950 . S
H1540 C1546 0.949 . S
C1541 H1536 0.950 . S
C1541 C1543 1.327 . S
C1541 C1547 1.429 . S
C1542 C1534 1.574 . S
C1542 H1537 0.949 . S
C1542 C1548 1.368 . S
C1543 C1527 1.349 . S
C1543 H1535 0.950 . S
C1543 C1541 1.327 . S
C1544 C1532 1.349 . S
C1544 H1538 0.950 . S
C1544 C1545 1.327 . S
C1545 H1539 0.950 . S
C1545 C1544 1.327 . S
C1545 C1549 1.429 . S
C1546 C1529 1.574 . S
C1546 H1540 0.949 . S
C1546 C1550 1.368 . S
C1547 C1528 1.429 . S
C1547 C1541 1.429 . S
C1547 C1548 1.523 . S
C1548 C1529 1.368 . S
C1548 C1542 1.368 . S
C1548 C1547 1.523 . S
C1549 C1533 1.429 . S
C1549 C1545 1.429 . S
C1549 C1550 1.523 . S
C1550 C1534 1.368 . S
C1550 C1546 1.368 . S
C1550 C1549 1.523 . S
H1551 C1526 0.950 . S
H1552 C1528 0.950 . S
H1553 C1529 0.949 . S
H1554 C1531 0.950 . S
H1555 C1533 0.950 . S
C1556 C1557 1.349 . S
C1556 C1558 1.327 . S
C1556 H1581 0.950 . S
C1557 C1556 1.349 . S
C1557 C1573 1.349 . S
C1558 C1556 1.327 . S
C1558 C1577 1.429 . S
C1558 H1582 0.950 . S
C1559 C1576 1.574 . S
C1559 C1578 1.368 . S
C1559 H1583 0.949 . S
H1560 C1564 0.949 . S
C1561 C1562 1.349 . S
C1561 C1563 1.327 . S
C1561 H1584 0.950 . S
C1562 C1561 1.349 . S
C1562 C1574 1.349 . S
C1563 C1561 1.327 . S
C1563 C1579 1.429 . S
C1563 H1585 0.950 . S
C1564 H1560 0.949 . S
C1564 C1572 1.574 . S
C1564 C1580 1.368 . S
H1565 C1573 0.950 . S
H1566 C1571 0.950 . S
H1567 C1572 0.949 . S
H1568 C1574 0.950 . S
H1569 C1575 0.950 . S
H1570 C1576 0.949 . S
C1571 H1566 0.950 . S
C1571 C1573 1.327 . S
C1571 C1577 1.429 . S
C1572 C1564 1.574 . S
C1572 H1567 0.949 . S
C1572 C1578 1.368 . S
C1573 C1557 1.349 . S
C1573 H1565 0.950 . S
C1573 C1571 1.327 . S
C1574 C1562 1.349 . S
C1574 H1568 0.950 . S
C1574 C1575 1.327 . S
C1575 H1569 0.950 . S
C1575 C1574 1.327 . S
C1575 C1579 1.429 . S
C1576 C1559 1.574 . S
C1576 H1570 0.949 . S
C1576 C1580 1.368 . S
C1577 C1558 1.429 . S
C1577 C1571 1.429 . S
C1577 C1578 1.523 . S
C1578 C1559 1.368 . S
C1578 C1572 1.368 . S
C1578 C1577 1.523 . S
C1579 C1563 1.429 . S
C1579 C1575 1.429 . S
C1579 C1580 1.523 . S
C1580 C1564 1.368 . S
C1580 C1576 1.368 . S
C1580 C1579 1.523 . S
H1581 C1556 0.950 . S
H1582 C1558 0.950 . S
H1583 C1559 0.949 . S
H1584 C1561 0.950 . S
H1585 C1563 0.950 . S
C1586 C1587 1.349 . S
C1586 C1588 1.327 . S
C1586 H1611 0.950 . S
C1587 C1586 1.349 . S
C1587 C1603 1.349 . S
C1588 C1586 1.327 . S
C1588 C1607 1.429 . S
C1588 H1612 0.950 . S
C1589 C1606 1.574 . S
C1589 C1608 1.368 . S
C1589 H1613 0.949 . S
H1590 C1594 0.949 . S
C1591 C1592 1.349 . S
C1591 C1593 1.327 . S
C1591 H1614 0.950 . S
C1592 C1591 1.349 . S
C1592 C1604 1.349 . S
C1593 C1591 1.327 . S
C1593 C1609 1.429 . S
C1593 H1615 0.950 . S
C1594 H1590 0.949 . S
C1594 C1602 1.574 . S
C1594 C1610 1.368 . S
H1595 C1603 0.950 . S
H1596 C1601 0.950 . S
H1597 C1602 0.949 . S
H1598 C1604 0.950 . S
H1599 C1605 0.950 . S
H1600 C1606 0.949 . S
C1601 H1596 0.950 . S
C1601 C1603 1.327 . S
C1601 C1607 1.429 . S
C1602 C1594 1.574 . S
C1602 H1597 0.949 . S
C1602 C1608 1.368 . S
C1603 C1587 1.349 . S
C1603 H1595 0.950 . S
C1603 C1601 1.327 . S
C1604 C1592 1.349 . S
C1604 H1598 0.950 . S
C1604 C1605 1.327 . S
C1605 H1599 0.950 . S
C1605 C1604 1.327 . S
C1605 C1609 1.429 . S
C1606 C1589 1.574 . S
C1606 H1600 0.949 . S
C1606 C1610 1.368 . S
C1607 C1588 1.429 . S
C1607 C1601 1.429 . S
C1607 C1608 1.523 . S
C1608 C1589 1.368 . S
C1608 C1602 1.368 . S
C1608 C1607 1.523 . S
C1609 C1593 1.429 . S
C1609 C1605 1.429 . S
C1609 C1610 1.523 . S
C1610 C1594 1.368 . S
C1610 C1606 1.368 . S
C1610 C1609 1.523 . S
H1611 C1586 0.950 . S
H1612 C1588 0.950 . S
H1613 C1589 0.949 . S
H1614 C1591 0.950 . S
H1615 C1593 0.950 . S
C1616 C1617 1.349 . S
C1616 C1618 1.327 . S
C1616 H1641 0.950 . S
C1617 C1616 1.349 . S
C1617 C1633 1.349 . S
C1618 C1616 1.327 . S
C1618 C1637 1.429 . S
C1618 H1642 0.950 . S
C1619 C1636 1.574 . S
C1619 C1638 1.368 . S
C1619 H1643 0.949 . S
H1620 C1624 0.949 . S
C1621 C1622 1.349 . S
C1621 C1623 1.327 . S
C1621 H1644 0.950 . S
C1622 C1621 1.349 . S
C1622 C1634 1.349 . S
C1623 C1621 1.327 . S
C1623 C1639 1.429 . S
C1623 H1645 0.950 . S
C1624 H1620 0.949 . S
C1624 C1632 1.574 . S
C1624 C1640 1.368 . S
H1625 C1633 0.950 . S
H1626 C1631 0.950 . S
H1627 C1632 0.949 . S
H1628 C1634 0.950 . S
H1629 C1635 0.950 . S
H1630 C1636 0.949 . S
C1631 H1626 0.950 . S
C1631 C1633 1.327 . S
C1631 C1637 1.429 . S
C1632 C1624 1.574 . S
C1632 H1627 0.949 . S
C1632 C1638 1.368 . S
C1633 C1617 1.349 . S
C1633 H1625 0.950 . S
C1633 C1631 1.327 . S
C1634 C1622 1.349 . S
C1634 H1628 0.950 . S
C1634 C1635 1.327 . S
C1635 H1629 0.950 . S
C1635 C1634 1.327 . S
C1635 C1639 1.429 . S
C1636 C1619 1.574 . S
C1636 H1630 0.949 . S
C1636 C1640 1.368 . S
C1637 C1618 1.429 . S
C1637 C1631 1.429 . S
C1637 C1638 1.523 . S
C1638 C1619 1.368 . S
C1638 C1632 1.368 . S
C1638 C1637 1.523 . S
C1639 C1623 1.429 . S
C1639 C1635 1.429 . S
C1639 C1640 1.523 . S
C1640 C1624 1.368 . S
C1640 C1636 1.368 . S
C1640 C1639 1.523 . S
H1641 C1616 0.950 . S
H1642 C1618 0.950 . S
H1643 C1619 0.949 . S
H1644 C1621 0.950 . S
H1645 C1623 0.950 . S
C1646 C1647 1.349 . S
C1646 C1648 1.327 . S
C1646 H1671 0.950 . S
C1647 C1646 1.349 . S
C1647 C1663 1.349 . S
C1648 C1646 1.327 . S
C1648 C1667 1.429 . S
C1648 H1672 0.950 . S
C1649 C1666 1.574 . S
C1649 C1668 1.368 . S
C1649 H1673 0.949 . S
H1650 C1654 0.949 . S
C1651 C1652 1.349 . S
C1651 C1653 1.327 . S
C1651 H1674 0.950 . S
C1652 C1651 1.349 . S
C1652 C1664 1.349 . S
C1653 C1651 1.327 . S
C1653 C1669 1.429 . S
C1653 H1675 0.950 . S
C1654 H1650 0.949 . S
C1654 C1662 1.574 . S
C1654 C1670 1.368 . S
H1655 C1663 0.950 . S
H1656 C1661 0.950 . S
H1657 C1662 0.949 . S
H1658 C1664 0.950 . S
H1659 C1665 0.950 . S
H1660 C1666 0.949 . S
C1661 H1656 0.950 . S
C1661 C1663 1.327 . S
C1661 C1667 1.429 . S
C1662 C1654 1.574 . S
C1662 H1657 0.949 . S
C1662 C1668 1.368 . S
C1663 C1647 1.349 . S
C1663 H1655 0.950 . S
C1663 C1661 1.327 . S
C1664 C1652 1.349 . S
C1664 H1658 0.950 . S
C1664 C1665 1.327 . S
C1665 H1659 0.950 . S
C1665 C1664 1.327 . S
C1665 C1669 1.429 . S
C1666 C1649 1.574 . S
C1666 H1660 0.949 . S
C1666 C1670 1.368 . S
C1667 C1648 1.429 . S
C1667 C1661 1.429 . S
C1667 C1668 1.523 . S
C1668 C1649 1.368 . S
C1668 C1662 1.368 . S
C1668 C1667 1.523 . S
C1669 C1653 1.429 . S
C1669 C1665 1.429 . S
C1669 C1670 1.523 . S
C1670 C1654 1.368 . S
C1670 C1666 1.368 . S
C1670 C1669 1.523 . S
H1671 C1646 0.950 . S
H1672 C1648 0.950 . S
H1673 C1649 0.949 . S
H1674 C1651 0.950 . S
H1675 C1653 0.950 . S
C1676 C1677 1.349 . S
C1676 C1678 1.327 . S
C1676 H1701 0.950 . S
C1677 C1676 1.349 . S
C1677 C1693 1.349 . S
C1678 C1676 1.327 . S
C1678 C1697 1.429 . S
C1678 H1702 0.950 . S
C1679 C1696 1.574 . S
C1679 C1698 1.368 . S
C1679 H1703 0.949 . S
H1680 C1684 0.949 . S
C1681 C1682 1.349 . S
C1681 C1683 1.327 . S
C1681 H1704 0.950 . S
C1682 C1681 1.349 . S
C1682 C1694 1.349 . S
C1683 C1681 1.327 . S
C1683 C1699 1.429 . S
C1683 H1705 0.950 . S
C1684 H1680 0.949 . S
C1684 C1692 1.574 . S
C1684 C1700 1.368 . S
H1685 C1693 0.950 . S
H1686 C1691 0.950 . S
H1687 C1692 0.949 . S
H1688 C1694 0.950 . S
H1689 C1695 0.950 . S
H1690 C1696 0.949 . S
C1691 H1686 0.950 . S
C1691 C1693 1.327 . S
C1691 C1697 1.429 . S
C1692 C1684 1.574 . S
C1692 H1687 0.949 . S
C1692 C1698 1.368 . S
C1693 C1677 1.349 . S
C1693 H1685 0.950 . S
C1693 C1691 1.327 . S
C1694 C1682 1.349 . S
C1694 H1688 0.950 . S
C1694 C1695 1.327 . S
C1695 H1689 0.950 . S
C1695 C1694 1.327 . S
C1695 C1699 1.429 . S
C1696 C1679 1.574 . S
C1696 H1690 0.949 . S
C1696 C1700 1.368 . S
C1697 C1678 1.429 . S
C1697 C1691 1.429 . S
C1697 C1698 1.523 . S
C1698 C1679 1.368 . S
C1698 C1692 1.368 . S
C1698 C1697 1.523 . S
C1699 C1683 1.429 . S
C1699 C1695 1.429 . S
C1699 C1700 1.523 . S
C1700 C1684 1.368 . S
C1700 C1696 1.368 . S
C1700 C1699 1.523 . S
H1701 C1676 0.950 . S
H1702 C1678 0.950 . S
H1703 C1679 0.949 . S
H1704 C1681 0.950 . S
H1705 C1683 0.950 . S
C1706 C1707 1.349 . S
C1706 C1708 1.327 . S
C1706 H1731 0.950 . S
C1707 C1706 1.349 . S
C1707 C1723 1.349 . S
C1708 C1706 1.327 . S
C1708 C1727 1.429 . S
C1708 H1732 0.950 . S
C1709 C1726 1.574 . S
C1709 C1728 1.368 . S
C1709 H1733 0.949 . S
H1710 C1714 0.949 . S
C1711 C1712 1.349 . S
C1711 C1713 1.327 . S
C1711 H1734 0.950 . S
C1712 C1711 1.349 . S
C1712 C1724 1.349 . S
C1713 C1711 1.327 . S
C1713 C1729 1.429 . S
C1713 H1735 0.950 . S
C1714 H1710 0.949 . S
C1714 C1722 1.574 . S
C1714 C1730 1.368 . S
H1715 C1723 0.950 . S
H1716 C1721 0.950 . S
H1717 C1722 0.949 . S
H1718 C1724 0.950 . S
H1719 C1725 0.950 . S
H1720 C1726 0.949 . S
C1721 H1716 0.950 . S
C1721 C1723 1.327 . S
C1721 C1727 1.429 . S
C1722 C1714 1.574 . S
C1722 H1717 0.949 . S
C1722 C1728 1.368 . S
C1723 C1707 1.349 . S
C1723 H1715 0.950 . S
C1723 C1721 1.327 . S
C1724 C1712 1.349 . S
C1724 H1718 0.950 . S
C1724 C1725 1.327 . S
C1725 H1719 0.950 . S
C1725 C1724 1.327 . S
C1725 C1729 1.429 . S
C1726 C1709 1.574 . S
C1726 H1720 0.949 . S
C1726 C1730 1.368 . S
C1727 C1708 1.429 . S
C1727 C1721 1.429 . S
C1727 C1728 1.523 . S
C1728 C1709 1.368 . S
C1728 C1722 1.368 . S
C1728 C1727 1.523 . S
C1729 C1713 1.429 . S
C1729 C1725 1.429 . S
C1729 C1730 1.523 . S
C1730 C1714 1.368 . S
C1730 C1726 1.368 . S
C1730 C1729 1.523 . S
H1731 C1706 0.950 . S
H1732 C1708 0.950 . S
H1733 C1709 0.949 . S
H1734 C1711 0.950 . S
H1735 C1713 0.950 . S
C1736 C1737 1.349 . S
C1736 C1738 1.327 . S
C1736 H1761 0.950 . S
C1737 C1736 1.349 . S
C1737 C1753 1.349 . S
C1738 C1736 1.327 . S
C1738 C1757 1.429 . S
C1738 H1762 0.950 . S
C1739 C1756 1.574 . S
C1739 C1758 1.368 . S
C1739 H1763 0.949 . S
H1740 C1744 0.949 . S
C1741 C1742 1.349 . S
C1741 C1743 1.327 . S
C1741 H1764 0.950 . S
C1742 C1741 1.349 . S
C1742 C1754 1.349 . S
C1743 C1741 1.327 . S
C1743 C1759 1.429 . S
C1743 H1765 0.950 . S
C1744 H1740 0.949 . S
C1744 C1752 1.574 . S
C1744 C1760 1.368 . S
H1745 C1753 0.950 . S
H1746 C1751 0.950 . S
H1747 C1752 0.949 . S
H1748 C1754 0.950 . S
H1749 C1755 0.950 . S
H1750 C1756 0.949 . S
C1751 H1746 0.950 . S
C1751 C1753 1.327 . S
C1751 C1757 1.429 . S
C1752 C1744 1.574 . S
C1752 H1747 0.949 . S
C1752 C1758 1.368 . S
C1753 C1737 1.349 . S
C1753 H1745 0.950 . S
C1753 C1751 1.327 . S
C1754 C1742 1.349 . S
C1754 H1748 0.950 . S
C1754 C1755 1.327 . S
C1755 H1749 0.950 . S
C1755 C1754 1.327 . S
C1755 C1759 1.429 . S
C1756 C1739 1.574 . S
C1756 H1750 0.949 . S
C1756 C1760 1.368 . S
C1757 C1738 1.429 . S
C1757 C1751 1.429 . S
C1757 C1758 1.523 . S
C1758 C1739 1.368 . S
C1758 C1752 1.368 . S
C1758 C1757 1.523 . S
C1759 C1743 1.429 . S
C1759 C1755 1.429 . S
C1759 C1760 1.523 . S
C1760 C1744 1.368 . S
C1760 C1756 1.368 . S
C1760 C1759 1.523 . S
H1761 C1736 0.950 . S
H1762 C1738 0.950 . S
H1763 C1739 0.949 . S
H1764 C1741 0.950 . S
H1765 C1743 0.950 . S
C1766 C1767 1.349 . S
C1766 C1768 1.327 . S
C1766 H1791 0.950 . S
C1767 C1766 1.349 . S
C1767 C1783 1.349 . S
C1768 C1766 1.327 . S
C1768 C1787 1.429 . S
C1768 H1792 0.950 . S
C1769 C1786 1.574 . S
C1769 C1788 1.368 . S
C1769 H1793 0.949 . S
H1770 C1774 0.949 . S
C1771 C1772 1.349 . S
C1771 C1773 1.327 . S
C1771 H1794 0.950 . S
C1772 C1771 1.349 . S
C1772 C1784 1.349 . S
C1773 C1771 1.327 . S
C1773 C1789 1.429 . S
C1773 H1795 0.950 . S
C1774 H1770 0.949 . S
C1774 C1782 1.574 . S
C1774 C1790 1.368 . S
H1775 C1783 0.950 . S
H1776 C1781 0.950 . S
H1777 C1782 0.949 . S
H1778 C1784 0.950 . S
H1779 C1785 0.950 . S
H1780 C1786 0.949 . S
C1781 H1776 0.950 . S
C1781 C1783 1.327 . S
C1781 C1787 1.429 . S
C1782 C1774 1.574 . S
C1782 H1777 0.949 . S
C1782 C1788 1.368 . S
C1783 C1767 1.349 . S
C1783 H1775 0.950 . S
C1783 C1781 1.327 . S
C1784 C1772 1.349 . S
C1784 H1778 0.950 . S
C1784 C1785 1.327 . S
C1785 H1779 0.950 . S
C1785 C1784 1.327 . S
C1785 C1789 1.429 . S
C1786 C1769 1.574 . S
C1786 H1780 0.949 . S
C1786 C1790 1.368 . S
C1787 C1768 1.429 . S
C1787 C1781 1.429 . S
C1787 C1788 1.523 . S
C1788 C1769 1.368 . S
C1788 C1782 1.368 . S
C1788 C1787 1.523 . S
C1789 C1773 1.429 . S
C1789 C1785 1.429 . S
C1789 C1790 1.523 . S
C1790 C1774 1.368 . S
C1790 C1786 1.368 . S
C1790 C1789 1.523 . S
H1791 C1766 0.950 . S
H1792 C1768 0.950 . S
H1793 C1769 0.949 . S
H1794 C1771 0.950 . S
H1795 C1773 0.950 . S
C1796 C1797 1.349 . S
C1796 C1798 1.327 . S
C1796 H1821 0.950 . S
C1797 C1796 1.349 . S
C1797 C1813 1.349 . S
C1798 C1796 1.327 . S
C1798 C1817 1.429 . S
C1798 H1822 0.950 . S
C1799 C1816 1.574 . S
C1799 C1818 1.368 . S
C1799 H1823 0.949 . S
H1800 C1804 0.949 . S
C1801 C1802 1.349 . S
C1801 C1803 1.327 . S
C1801 H1824 0.950 . S
C1802 C1801 1.349 . S
C1802 C1814 1.349 . S
C1803 C1801 1.327 . S
C1803 C1819 1.429 . S
C1803 H1825 0.950 . S
C1804 H1800 0.949 . S
C1804 C1812 1.574 . S
C1804 C1820 1.368 . S
H1805 C1813 0.950 . S
H1806 C1811 0.950 . S
H1807 C1812 0.949 . S
H1808 C1814 0.950 . S
H1809 C1815 0.950 . S
H1810 C1816 0.949 . S
C1811 H1806 0.950 . S
C1811 C1813 1.327 . S
C1811 C1817 1.429 . S
C1812 C1804 1.574 . S
C1812 H1807 0.949 . S
C1812 C1818 1.368 . S
C1813 C1797 1.349 . S
C1813 H1805 0.950 . S
C1813 C1811 1.327 . S
C1814 C1802 1.349 . S
C1814 H1808 0.950 . S
C1814 C1815 1.327 . S
C1815 H1809 0.950 . S
C1815 C1814 1.327 . S
C1815 C1819 1.429 . S
C1816 C1799 1.574 . S
C1816 H1810 0.949 . S
C1816 C1820 1.368 . S
C1817 C1798 1.429 . S
C1817 C1811 1.429 . S
C1817 C1818 1.523 . S
C1818 C1799 1.368 . S
C1818 C1812 1.368 . S
C1818 C1817 1.523 . S
C1819 C1803 1.429 . S
C1819 C1815 1.429 . S
C1819 C1820 1.523 . S
C1820 C1804 1.368 . S
C1820 C1816 1.368 . S
C1820 C1819 1.523 . S
H1821 C1796 0.950 . S
H1822 C1798 0.950 . S
H1823 C1799 0.949 . S
H1824 C1801 0.950 . S
H1825 C1803 0.950 . S
C1826 C1827 1.349 . S
C1826 C1828 1.327 . S
C1826 H1851 0.950 . S
C1827 C1826 1.349 . S
C1827 C1843 1.349 . S
C1828 C1826 1.327 . S
C1828 C1847 1.429 . S
C1828 H1852 0.950 . S
C1829 C1846 1.574 . S
C1829 C1848 1.368 . S
C1829 H1853 0.949 . S
H1830 C1834 0.949 . S
C1831 C1832 1.349 . S
C1831 C1833 1.327 . S
C1831 H1854 0.950 . S
C1832 C1831 1.349 . S
C1832 C1844 1.349 . S
C1833 C1831 1.327 . S
C1833 C1849 1.429 . S
C1833 H1855 0.950 . S
C1834 H1830 0.949 . S
C1834 C1842 1.574 . S
C1834 C1850 1.368 . S
H1835 C1843 0.950 . S
H1836 C1841 0.950 . S
H1837 C1842 0.949 . S
H1838 C1844 0.950 . S
H1839 C1845 0.950 . S
H1840 C1846 0.949 . S
C1841 H1836 0.950 . S
C1841 C1843 1.327 . S
C1841 C1847 1.429 . S
C1842 C1834 1.574 . S
C1842 H1837 0.949 . S
C1842 C1848 1.368 . S
C1843 C1827 1.349 . S
C1843 H1835 0.950 . S
C1843 C1841 1.327 . S
C1844 C1832 1.349 . S
C1844 H1838 0.950 . S
C1844 C1845 1.327 . S
C1845 H1839 0.950 . S
C1845 C1844 1.327 . S
C1845 C1849 1.429 . S
C1846 C1829 1.574 . S
C1846 H1840 0.949 . S
C1846 C1850 1.368 . S
C1847 C1828 1.429 . S
C1847 C1841 1.429 . S
C1847 C1848 1.523 . S
C1848 C1829 1.368 . S
C1848 C1842 1.368 . S
C1848 C1847 1.523 . S
C1849 C1833 1.429 . S
C1849 C1845 1.429 . S
C1849 C1850 1.523 . S
C1850 C1834 1.368 . S
C1850 C1846 1.368 . S
C1850 C1849 1.523 . S
H1851 C1826 0.950 . S
H1852 C1828 0.950 . S
H1853 C1829 0.949 . S
H1854 C1831 0.950 . S
H1855 C1833 0.950 . S
C1856 C1857 1.349 . S
C1856 C1858 1.327 . S
C1856 H1881 0.950 . S
C1857 C1856 1.349 . S
C1857 C1873 1.349 . S
C1858 C1856 1.327 . S
C1858 C1877 1.429 . S
C1858 H1882 0.950 . S
C1859 C1876 1.574 . S
C1859 C1878 1.368 . S
C1859 H1883 0.949 . S
H1860 C1864 0.949 . S
C1861 C1862 1.349 . S
C1861 C1863 1.327 . S
C1861 H1884 0.950 . S
C1862 C1861 1.349 . S
C1862 C1874 1.349 . S
C1863 C1861 1.327 . S
C1863 C1879 1.429 . S
C1863 H1885 0.950 . S
C1864 H1860 0.949 . S
C1864 C1872 1.574 . S
C1864 C1880 1.368 . S
H1865 C1873 0.950 . S
H1866 C1871 0.950 . S
H1867 C1872 0.949 . S
H1868 C1874 0.950 . S
H1869 C1875 0.950 . S
H1870 C1876 0.949 . S
C1871 H1866 0.950 . S
C1871 C1873 1.327 . S
C1871 C1877 1.429 . S
C1872 C1864 1.574 . S
C1872 H1867 0.949 . S
C1872 C1878 1.368 . S
C1873 C1857 1.349 . S
C1873 H1865 0.950 . S
C1873 C1871 1.327 . S
C1874 C1862 1.349 . S
C1874 H1868 0.950 . S
C1874 C1875 1.327 . S
C1875 H1869 0.950 . S
C1875 C1874 1.327 . S
C1875 C1879 1.429 . S
C1876 C1859 1.574 . S
C1876 H1870 0.949 . S
C1876 C1880 1.368 . S
C1877 C1858 1.429 . S
C1877 C1871 1.429 . S
C1877 C1878 1.523 . S
C1878 C1859 1.368 . S
C1878 C1872 1.368 . S
C1878 C1877 1.523 . S
C1879 C1863 1.429 . S
C1879 C1875 1.429 . S
C1879 C1880 1.523 . S
C1880 C1864 1.368 . S
C1880 C1876 1.368 . S
C1880 C1879 1.523 . S
H1881 C1856 0.950 . S
H1882 C1858 0.950 . S
H1883 C1859 0.949 . S
H1884 C1861 0.950 . S
H1885 C1863 0.950 . S
C1886 C1887 1.349 . S
C1886 C1888 1.327 . S
C1886 H1911 0.950 . S
C1887 C1886 1.349 . S
C1887 C1903 1.349 . S
C1888 C1886 1.327 . S
C1888 C1907 1.429 . S
C1888 H1912 0.950 . S
C1889 C1906 1.574 . S
C1889 C1908 1.368 . S
C1889 H1913 0.949 . S
H1890 C1894 0.949 . S
C1891 C1892 1.349 . S
C1891 C1893 1.327 . S
C1891 H1914 0.950 . S
C1892 C1891 1.349 . S
C1892 C1904 1.349 . S
C1893 C1891 1.327 . S
C1893 C1909 1.429 . S
C1893 H1915 0.950 . S
C1894 H1890 0.949 . S
C1894 C1902 1.574 . S
C1894 C1910 1.368 . S
H1895 C1903 0.950 . S
H1896 C1901 0.950 . S
H1897 C1902 0.949 . S
H1898 C1904 0.950 . S
H1899 C1905 0.950 . S
H1900 C1906 0.949 . S
C1901 H1896 0.950 . S
C1901 C1903 1.327 . S
C1901 C1907 1.429 . S
C1902 C1894 1.574 . S
C1902 H1897 0.949 . S
C1902 C1908 1.368 . S
C1903 C1887 1.349 . S
C1903 H1895 0.950 . S
C1903 C1901 1.327 . S
C1904 C1892 1.349 . S
C1904 H1898 0.950 . S
C1904 C1905 1.327 . S
C1905 H1899 0.950 . S
C1905 C1904 1.327 . S
C1905 C1909 1.429 . S
C1906 C1889 1.574 . S
C1906 H1900 0.949 . S
C1906 C1910 1.368 . S
C1907 C1888 1.429 . S
C1907 C1901 1.429 . S
C1907 C1908 1.523 . S
C1908 C1889 1.368 . S
C1908 C1902 1.368 . S
C1908 C1907 1.523 . S
C1909 C1893 1.429 . S
C1909 C1905 1.429 . S
C1909 C1910 1.523 . S
C1910 C1894 1.368 . S
C1910 C1906 1.368 . S
C1910 C1909 1.523 . S
H1911 C1886 0.950 . S
H1912 C1888 0.950 . S
H1913 C1889 0.949 . S
H1914 C1891 0.950 . S
H1915 C1893 0.950 . S
C1916 C1917 1.349 . S
C1916 C1918 1.327 . S
C1916 H1941 0.950 . S
C1917 C1916 1.349 . S
C1917 C1933 1.349 . S
C1918 C1916 1.327 . S
C1918 C1937 1.429 . S
C1918 H1942 0.950 . S
C1919 C1936 1.574 . S
C1919 C1938 1.368 . S
C1919 H1943 0.949 . S
H1920 C1924 0.949 . S
C1921 C1922 1.349 . S
C1921 C1923 1.327 . S
C1921 H1944 0.950 . S
C1922 C1921 1.349 . S
C1922 C1934 1.349 . S
C1923 C1921 1.327 . S
C1923 C1939 1.429 . S
C1923 H1945 0.950 . S
C1924 H1920 0.949 . S
C1924 C1932 1.574 . S
C1924 C1940 1.368 . S
H1925 C1933 0.950 . S
H1926 C1931 0.950 . S
H1927 C1932 0.949 . S
H1928 C1934 0.950 . S
H1929 C1935 0.950 . S
H1930 C1936 0.949 . S
C1931 H1926 0.950 . S
C1931 C1933 1.327 . S
C1931 C1937 1.429 . S
C1932 C1924 1.574 . S
C1932 H1927 0.949 . S
C1932 C1938 1.368 . S
C1933 C1917 1.349 . S
C1933 H1925 0.950 . S
C1933 C1931 1.327 . S
C1934 C1922 1.349 . S
C1934 H1928 0.950 . S
C1934 C1935 1.327 . S
C1935 H1929 0.950 . S
C1935 C1934 1.327 . S
C1935 C1939 1.429 . S
C1936 C1919 1.574 . S
C1936 H1930 0.949 . S
C1936 C1940 1.368 . S
C1937 C1918 1.429 . S
C1937 C1931 1.429 . S
C1937 C1938 1.523 . S
C1938 C1919 1.368 . S
C1938 C1932 1.368 . S
C1938 C1937 1.523 . S
C1939 C1923 1.429 . S
C1939 C1935 1.429 . S
C1939 C1940 1.523 . S
C1940 C1924 1.368 . S
C1940 C1936 1.368 . S
C1940 C1939 1.523 . S
H1941 C1916 0.950 . S
H1942 C1918 0.950 . S
H1943 C1919 0.949 . S
H1944 C1921 0.950 . S
H1945 C1923 0.950 . S
C1946 C1947 1.349 . S
C1946 C1948 1.327 . S
C1946 H1971 0.950 . S
C1947 C1946 1.349 . S
C1947 C1963 1.349 . S
C1948 C1946 1.327 . S
C1948 C1967 1.429 . S
C1948 H1972 0.950 . S
C1949 C1966 1.574 . S
C1949 C1968 1.368 . S
C1949 H1973 0.949 . S
H1950 C1954 0.949 . S
C1951 C1952 1.349 . S
C1951 C1953 1.327 . S
C1951 H1974 0.950 . S
C1952 C1951 1.349 . S
C1952 C1964 1.349 . S
C1953 C1951 1.327 . S
C1953 C1969 1.429 . S
C1953 H1975 0.950 . S
C1954 H1950 0.949 . S
C1954 C1962 1.574 . S
C1954 C1970 1.368 . S
H1955 C1963 0.950 . S
H1956 C1961 0.950 . S
H1957 C1962 0.949 . S
H1958 C1964 0.950 . S
H1959 C1965 0.950 . S
H1960 C1966 0.949 . S
C1961 H1956 0.950 . S
C1961 C1963 1.327 . S
C1961 C1967 1.429 . S
C1962 C1954 1.574 . S
C1962 H1957 0.949 . S
C1962 C1968 1.368 . S
C1963 C1947 1.349 . S
C1963 H1955 0.950 . S
C1963 C1961 1.327 . S
C1964 C1952 1.349 . S
C1964 H1958 0.950 . S
C1964 C1965 1.327 . S
C1965 H1959 0.950 . S
C1965 C1964 1.327 . S
C1965 C1969 1.429 . S
C1966 C1949 1.574 . S
C1966 H1960 0.949 . S
C1966 C1970 1.368 . S
C1967 C1948 1.429 . S
C1967 C1961 1.429 . S
C1967 C1968 1.523 . S
C1968 C1949 1.368 . S
C1968 C1962 1.368 . S
C1968 C1967 1.523 . S
C1969 C1953 1.429 . S
C1969 C1965 1.429 . S
C1969 C1970 1.523 . S
C1970 C1954 1.368 . S
C1970 C1966 1.368 . S
C1970 C1969 1.523 . S
H1971 C1946 0.950 . S
H1972 C1948 0.950 . S
H1973 C1949 0.949 . S
H1974 C1951 0.950 . S
H1975 C1953 0.950 . S
C1976 C1977 1.349 . S
C1976 C1978 1.327 . S
C1976 H2001 0.950 . S
C1977 C1976 1.349 . S
C1977 C1993 1.349 . S
C1978 C1976 1.327 . S
C1978 C1997 1.429 . S
C1978 H2002 0.950 . S
C1979 C1996 1.574 . S
C1979 C1998 1.368 . S
C1979 H2003 0.949 . S
H1980 C1984 0.949 . S
C1981 C1982 1.349 . S
C1981 C1983 1.327 . S
C1981 H2004 0.950 . S
C1982 C1981 1.349 . S
C1982 C1994 1.349 . S
C1983 C1981 1.327 . S
C1983 C1999 1.429 . S
C1983 H2005 0.950 . S
C1984 H1980 0.949 . S
C1984 C1992 1.574 . S
C1984 C2000 1.368 . S
H1985 C1993 0.950 . S
H1986 C1991 0.950 . S
H1987 C1992 0.949 . S
H1988 C1994 0.950 . S
H1989 C1995 0.950 . S
H1990 C1996 0.949 . S
C1991 H1986 0.950 . S
C1991 C1993 1.327 . S
C1991 C1997 1.429 . S
C1992 C1984 1.574 . S
C1992 H1987 0.949 . S
C1992 C1998 1.368 . S
C1993 C1977 1.349 . S
C1993 H1985 0.950 . S
C1993 C1991 1.327 . S
C1994 C1982 1.349 . S
C1994 H1988 0.950 . S
C1994 C1995 1.327 . S
C1995 H1989 0.950 . S
C1995 C1994 1.327 . S
C1995 C1999 1.429 . S
C1996 C1979 1.574 . S
C1996 H1990 0.949 . S
C1996 C2000 1.368 . S
C1997 C1978 1.429 . S
C1997 C1991 1.429 . S
C1997 C1998 1.523 . S
C1998 C1979 1.368 . S
C1998 C1992 1.368 . S
C1998 C1997 1.523 . S
C1999 C1983 1.429 . S
C1999 C1995 1.429 . S
C1999 C2000 1.523 . S
C2000 C1984 1.368 . S
C2000 C1996 1.368 . S
C2000 C1999 1.523 . S
H2001 C1976 0.950 . S
H2002 C1978 0.950 . S
H2003 C1979 0.949 . S
H2004 C1981 0.950 . S
H2005 C1983 0.950 . S
C2006 C2007 1.349 . S
C2006 C2008 1.327 . S
C2006 H2031 0.950 . S
C2007 C2006 1.349 . S
C2007 C2023 1.349 . S
C2008 C2006 1.327 . S
C2008 C2027 1.429 . S
C2008 H2032 0.950 . S
C2009 C2026 1.574 . S
C2009 C2028 1.368 . S
C2009 H2033 0.949 . S
H2010 C2014 0.949 . S
C2011 C2012 1.349 . S
C2011 C2013 1.327 . S
C2011 H2034 0.950 . S
C2012 C2011 1.349 . S
C2012 C2024 1.349 . S
C2013 C2011 1.327 . S
C2013 C2029 1.429 . S
C2013 H2035 0.950 . S
C2014 H2010 0.949 . S
C2014 C2022 1.574 . S
C2014 C2030 1.368 . S
H2015 C2023 0.950 . S
H2016 C2021 0.950 . S
H2017 C2022 0.949 . S
H2018 C2024 0.950 . S
H2019 C2025 0.950 . S
H2020 C2026 0.949 . S
C2021 H2016 0.950 . S
C2021 C2023 1.327 . S
C2021 C2027 1.429 . S
C2022 C2014 1.574 . S
C2022 H2017 0.949 . S
C2022 C2028 1.368 . S
C2023 C2007 1.349 . S
C2023 H2015 0.950 . S
C2023 C2021 1.327 . S
C2024 C2012 1.349 . S
C2024 H2018 0.950 . S
C2024 C2025 1.327 . S
C2025 H2019 0.950 . S
C2025 C2024 1.327 . S
C2025 C2029 1.429 . S
C2026 C2009 1.574 . S
C2026 H2020 0.949 . S
C2026 C2030 1.368 . S
C2027 C2008 1.429 . S
C2027 C2021 1.429 . S
C2027 C2028 1.523 . S
C2028 C2009 1.368 . S
C2028 C2022 1.368 . S
C2028 C2027 1.523 . S
C2029 C2013 1.429 . S
C2029 C2025 1.429 . S
C2029 C2030 1.523 . S
C2030 C2014 1.368 . S
C2030 C2026 1.368 . S
C2030 C2029 1.523 . S
H2031 C2006 0.950 . S
H2032 C2008 0.950 . S
H2033 C2009 0.949 . S
H2034 C2011 0.950 . S
H2035 C2013 0.950 . S
C602 C301 1.364 . S
C597 N2 1.338 . S
C632 C339 2.650 . S
C627 C7 2.665 . S
C662 C360 1.615 . S
C657 N12 1.505 . S
C687 C16 1.953 . S
C692 C398 1.987 . S
C722 C438 2.727 . S
C717 C30 2.731 1_565 S
C752 C501 1.423 . S
C747 N35 1.370 . S
C777 C39 2.114 . S
C782 C539 2.082 . S
C812 C560 1.230 . S
C807 N25 1.165 . S
C842 C307 1.132 . S
C837 N58 1.095 . S
C867 N81 1.874 . S
C872 C336 1.896 . S
C902 C379 1.290 . S
C897 N104 1.255 . S
C927 N127 1.047 . S
C932 C421 1.067 . S
C962 C461 0.678 . S
C957 N48 0.679 . S
C992 C507 1.603 . S
C987 N71 1.557 1_556 S
C1017 N94 1.188 . S
C1022 C536 1.181 . S
C1052 C579 1.895 . S
C1047 N117 1.888 . S
C1077 C85 2.394 . S
C1082 C278 2.375 . S
C1107 C122 2.359 . S
C1112 C467 2.346 . S
C1137 C53 1.857 . S
C1142 C478 1.828 . S
C1172 C520 1.335 . S
C1167 C76 1.343 1_655 S
C1202 C576 1.702 . S
C1197 C99 1.705 . S
C1232 C376 1.998 . S
C1227 C131 1.972 . S
C1262 C427 1.568 . S
C1257 C62 1.574 1_565 S
C1287 C108 0.950 . S
C1292 C320 0.947 . S
C1322 C581 1.419 . S
C1317 N140 1.392 . S
C1347 C145 2.660 . S
C1352 C459 2.644 . S
C1382 C480 1.512 . S
C1377 N150 1.409 . S
C1407 C154 1.961 . S
C1412 C518 1.995 . S
C1442 C318 2.730 . S
C1437 C168 2.736 . S
C1467 N173 1.267 . S
C1472 C381 1.317 . S
C1502 C419 2.084 . S
C1497 C177 2.119 . S
C1532 C280 1.289 . S
C1527 N163 1.213 . S
C1562 C587 1.597 . S
C1557 C200 1.587 . S
C1592 C456 2.192 . S
C1587 N219 2.169 . S
C1617 N242 1.500 . S
C1622 C499 1.548 . S
C1652 C541 1.330 . S
C1647 C269 1.350 . S
C1682 C341 0.972 . S
C1677 C191 0.978 . S
C1707 N209 1.808 . S
C1712 C387 1.861 . S
C1737 N232 1.497 . S
C1742 C416 1.494 . S
C1767 C260 2.411 . S
C1772 C299 2.389 . S
C1797 C223 2.096 . S
C1802 C558 2.079 . S
C1827 N255 1.897 . S
C1832 C347 1.934 . S
C1857 N186 1.353 . S
C1862 C358 1.375 . S
C1892 C400 1.028 . S
C1887 C214 1.034 . S
C1922 C296 1.384 . S
C1917 C237 1.382 . S
C1952 C496 1.566 . S
C1947 N265 1.500 . S
C1982 C547 1.196 . S
C1977 N196 1.188 . S
C2012 C440 0.646 . S
C2007 C246 0.647 . S
