# Generated by pormake.
# Topology ocu, (6,8)-cn, num edge types: 1
# Building blocks:
#     Node 0, Type 0, BuildingBlock: JUFBIX_clean_sbu_0, # of connection points: 6
#     Node 1, Type 0, BuildingBlock: JUFBIX_clean_sbu_0, # of connection points: 6
#     Node 2, Type 0, BuildingBlock: JUFBIX_clean_sbu_0, # of connection points: 6
#     Node 3, Type 0, BuildingBlock: JUFBIX_clean_sbu_0, # of connection points: 6
#     Node 4, Type 0, BuildingBlock: JUFBIX_clean_sbu_0, # of connection points: 6
#     Node 5, Type 0, BuildingBlock: JUFBIX_clean_sbu_0, # of connection points: 6
#     Node 6, Type 0, BuildingBlock: JUFBIX_clean_sbu_0, # of connection points: 6
#     Node 7, Type 0, BuildingBlock: JUFBIX_clean_sbu_0, # of connection points: 6
#     Node 8, Type 1, BuildingBlock: GIZVER_clean_sbu_0, # of connection points: 8
#     Node 9, Type 1, BuildingBlock: GIZVER_clean_sbu_0, # of connection points: 8
#     Node 10, Type 1, BuildingBlock: GIZVER_clean_sbu_0, # of connection points: 8
#     Node 11, Type 1, BuildingBlock: GIZVER_clean_sbu_0, # of connection points: 8
#     Node 12, Type 1, BuildingBlock: GIZVER_clean_sbu_0, # of connection points: 8
#     Node 13, Type 1, BuildingBlock: GIZVER_clean_sbu_0, # of connection points: 8
#     Edge 14, Type (0, 1), BuildingBlock: AJUNOK_clean_linker_0, # of connection points: 2
#     Edge 15, Type (0, 1), BuildingBlock: AJUNOK_clean_linker_0, # of connection points: 2
#     Edge 16, Type (0, 1), BuildingBlock: AJUNOK_clean_linker_0, # of connection points: 2
#     Edge 17, Type (0, 1), BuildingBlock: AJUNOK_clean_linker_0, # of connection points: 2
#     Edge 18, Type (0, 1), BuildingBlock: AJUNOK_clean_linker_0, # of connection points: 2
#     Edge 19, Type (0, 1), BuildingBlock: AJUNOK_clean_linker_0, # of connection points: 2
#     Edge 20, Type (0, 1), BuildingBlock: AJUNOK_clean_linker_0, # of connection points: 2
#     Edge 21, Type (0, 1), BuildingBlock: AJUNOK_clean_linker_0, # of connection points: 2
#     Edge 22, Type (0, 1), BuildingBlock: AJUNOK_clean_linker_0, # of connection points: 2
#     Edge 23, Type (0, 1), BuildingBlock: AJUNOK_clean_linker_0, # of connection points: 2
#     Edge 24, Type (0, 1), BuildingBlock: AJUNOK_clean_linker_0, # of connection points: 2
#     Edge 25, Type (0, 1), BuildingBlock: AJUNOK_clean_linker_0, # of connection points: 2
#     Edge 26, Type (0, 1), BuildingBlock: AJUNOK_clean_linker_0, # of connection points: 2
#     Edge 27, Type (0, 1), BuildingBlock: AJUNOK_clean_linker_0, # of connection points: 2
#     Edge 28, Type (0, 1), BuildingBlock: AJUNOK_clean_linker_0, # of connection points: 2
#     Edge 29, Type (0, 1), BuildingBlock: AJUNOK_clean_linker_0, # of connection points: 2
#     Edge 30, Type (0, 1), BuildingBlock: AJUNOK_clean_linker_0, # of connection points: 2
#     Edge 31, Type (0, 1), BuildingBlock: AJUNOK_clean_linker_0, # of connection points: 2
#     Edge 32, Type (0, 1), BuildingBlock: AJUNOK_clean_linker_0, # of connection points: 2
#     Edge 33, Type (0, 1), BuildingBlock: AJUNOK_clean_linker_0, # of connection points: 2
#     Edge 34, Type (0, 1), BuildingBlock: AJUNOK_clean_linker_0, # of connection points: 2
#     Edge 35, Type (0, 1), BuildingBlock: AJUNOK_clean_linker_0, # of connection points: 2
#     Edge 36, Type (0, 1), BuildingBlock: AJUNOK_clean_linker_0, # of connection points: 2
#     Edge 37, Type (0, 1), BuildingBlock: AJUNOK_clean_linker_0, # of connection points: 2
#     Edge 38, Type (0, 1), BuildingBlock: AJUNOK_clean_linker_0, # of connection points: 2
#     Edge 39, Type (0, 1), BuildingBlock: AJUNOK_clean_linker_0, # of connection points: 2
#     Edge 40, Type (0, 1), BuildingBlock: AJUNOK_clean_linker_0, # of connection points: 2
#     Edge 41, Type (0, 1), BuildingBlock: AJUNOK_clean_linker_0, # of connection points: 2
#     Edge 42, Type (0, 1), BuildingBlock: AJUNOK_clean_linker_0, # of connection points: 2
#     Edge 43, Type (0, 1), BuildingBlock: AJUNOK_clean_linker_0, # of connection points: 2
#     Edge 44, Type (0, 1), BuildingBlock: AJUNOK_clean_linker_0, # of connection points: 2
#     Edge 45, Type (0, 1), BuildingBlock: AJUNOK_clean_linker_0, # of connection points: 2
#     Edge 46, Type (0, 1), BuildingBlock: AJUNOK_clean_linker_0, # of connection points: 2
#     Edge 47, Type (0, 1), BuildingBlock: AJUNOK_clean_linker_0, # of connection points: 2
#     Edge 48, Type (0, 1), BuildingBlock: AJUNOK_clean_linker_0, # of connection points: 2
#     Edge 49, Type (0, 1), BuildingBlock: AJUNOK_clean_linker_0, # of connection points: 2
#     Edge 50, Type (0, 1), BuildingBlock: AJUNOK_clean_linker_0, # of connection points: 2
#     Edge 51, Type (0, 1), BuildingBlock: AJUNOK_clean_linker_0, # of connection points: 2
#     Edge 52, Type (0, 1), BuildingBlock: AJUNOK_clean_linker_0, # of connection points: 2
#     Edge 53, Type (0, 1), BuildingBlock: AJUNOK_clean_linker_0, # of connection points: 2
#     Edge 54, Type (0, 1), BuildingBlock: AJUNOK_clean_linker_0, # of connection points: 2
#     Edge 55, Type (0, 1), BuildingBlock: AJUNOK_clean_linker_0, # of connection points: 2
#     Edge 56, Type (0, 1), BuildingBlock: AJUNOK_clean_linker_0, # of connection points: 2
#     Edge 57, Type (0, 1), BuildingBlock: AJUNOK_clean_linker_0, # of connection points: 2
#     Edge 58, Type (0, 1), BuildingBlock: AJUNOK_clean_linker_0, # of connection points: 2
#     Edge 59, Type (0, 1), BuildingBlock: AJUNOK_clean_linker_0, # of connection points: 2
#     Edge 60, Type (0, 1), BuildingBlock: AJUNOK_clean_linker_0, # of connection points: 2
#     Edge 61, Type (0, 1), BuildingBlock: AJUNOK_clean_linker_0, # of connection points: 2
# Relax obj value: 0.296
# Max RMSD: 0.336
# Mean RMSD: 0.219
data_MOF--net-ocu--node1-JUFBIX_clean_sbu_0--node2-GIZVER_clean_sbu_0--edge1-AJUNOK_clean_linker_0
_symmetry_space_group_name_H-M    P1
_symmetry_Int_Tables_number       1
_symmetry_cell_setting            triclinic
loop_
_symmetry_equiv_pos_as_xyz
'x, y, z'
_cell_length_a     30.575233
_cell_length_b     31.965527
_cell_length_c     23.447616
_cell_angle_alpha  92.906566
_cell_angle_beta   95.397807
_cell_angle_gamma 102.92856
loop_
_atom_site_label
_atom_site_type_symbol
_atom_site_fract_x
_atom_site_fract_y
_atom_site_fract_z
_atom_type_partial_charge
Co0 Co 0.2708 0.27439 0.26618 0.0
C1 C 0.2601 0.34412 0.34049 0.0
Co2 Co 0.33132 0.32612 0.28598 0.0
C3 C 0.21129 0.19032 0.25926 0.0
C4 C 0.17738 0.23879 0.23222 0.0
N5 N 0.21837 0.23248 0.2505 0.0
N6 N 0.16724 0.17014 0.24884 0.0
C7 C 0.14598 0.20066 0.23123 0.0
H8 H 0.23746 0.17537 0.27704 0.0
H9 H 0.17022 0.26974 0.22422 0.0
C10 C 0.3419 0.25733 0.21064 0.0
N11 N 0.38372 0.36838 0.30109 0.0
C12 C 0.391 0.40981 0.28829 0.0
C13 C 0.42466 0.36269 0.32078 0.0
N14 N 0.43513 0.42996 0.29729 0.0
C15 C 0.45621 0.40032 0.31841 0.0
C16 C 0.32989 0.25846 0.35873 0.0
O17 O 0.30062 0.24227 0.21698 0.0
O18 O 0.36096 0.29448 0.23471 0.0
O19 O 0.35211 0.29538 0.34839 0.0
O20 O 0.2912 0.24419 0.33035 0.0
O21 O 0.30205 0.35773 0.3366 0.0
H22 H 0.4318 0.33223 0.33159 0.0
H23 H 0.36497 0.42399 0.26836 0.0
O24 O 0.24047 0.30734 0.31558 0.0
O25 O 0.25101 0.30366 0.20276 0.0
O26 O 0.30981 0.35681 0.22282 0.0
C27 C 0.2721 0.341 0.19292 0.0
H28 H 0.10977 0.19701 0.22451 0.0
H29 H 0.49239 0.40378 0.32514 0.0
Co30 Co 0.82591 0.29943 0.23686 0.0
C31 C 0.84641 0.36367 0.32905 0.0
Co32 Co 0.7784 0.29311 0.30166 0.0
C33 C 0.91325 0.32543 0.20345 0.0
C34 C 0.86444 0.30524 0.13003 0.0
N35 N 0.86961 0.30645 0.18776 0.0
N36 N 0.93504 0.33916 0.15848 0.0
C37 C 0.90469 0.32574 0.11193 0.0
H38 H 0.92709 0.33517 0.24757 0.0
H39 H 0.83237 0.29534 0.10368 0.0
C40 C 0.75625 0.22971 0.20904 0.0
N41 N 0.73411 0.28643 0.34991 0.0
C42 C 0.7112 0.24733 0.36052 0.0
C43 C 0.70662 0.31305 0.36039 0.0
N44 N 0.66922 0.24755 0.37236 0.0
C45 C 0.66614 0.28888 0.37401 0.0
C46 C 0.75776 0.34082 0.20988 0.0
O47 O 0.79204 0.24993 0.19042 0.0
O48 O 0.74563 0.24274 0.25651 0.0
O49 O 0.74599 0.32598 0.25652 0.0
O50 O 0.79406 0.33456 0.19252 0.0
O51 O 0.81019 0.34309 0.34612 0.0
H52 H 0.71314 0.34659 0.35129 0.0
H53 H 0.72302 0.21829 0.35241 0.0
O54 O 0.85907 0.34984 0.28314 0.0
O55 O 0.85793 0.26456 0.2812 0.0
O56 O 0.81091 0.25938 0.34681 0.0
C57 C 0.84601 0.25068 0.32861 0.0
H58 H 0.9092 0.3359 0.06908 0.0
H59 H 0.63566 0.30005 0.37864 0.0
Co60 Co 0.78822 0.77931 0.29136 0.0
C61 C 0.86621 0.84419 0.31967 0.0
Co62 Co 0.80657 0.82246 0.22366 0.0
C63 C 0.80637 0.73698 0.38813 0.0
C64 C 0.73617 0.73683 0.37793 0.0
N65 N 0.7746 0.74795 0.35265 0.0
N66 N 0.79013 0.72027 0.43514 0.0
C67 C 0.74561 0.719 0.42883 0.0
H68 H 0.84116 0.74085 0.37936 0.0
H69 H 0.70383 0.74212 0.36108 0.0
C70 C 0.72844 0.75616 0.19545 0.0
N71 N 0.82186 0.8537 0.16087 0.0
C72 C 0.81125 0.89101 0.14882 0.0
C73 C 0.83195 0.83782 0.11041 0.0
N74 N 0.81026 0.89729 0.09235 0.0
C75 C 0.82469 0.86449 0.0683 0.0
C76 C 0.84524 0.75065 0.22198 0.0
O77 O 0.73656 0.74707 0.24684 0.0
O78 O 0.75473 0.78795 0.17666 0.0
O79 O 0.84187 0.78524 0.20018 0.0
O80 O 0.82281 0.73922 0.26386 0.0
O81 O 0.85784 0.85614 0.26975 0.0
H82 H 0.83764 0.80597 0.10231 0.0
H83 H 0.79632 0.9093 0.17842 0.0
O84 O 0.84003 0.81169 0.33605 0.0
O85 O 0.75486 0.8186 0.31925 0.0
O86 O 0.77061 0.86103 0.25029 0.0
C87 C 0.75184 0.85302 0.29607 0.0
H88 H 0.72187 0.70597 0.45845 0.0
H89 H 0.8224 0.8564 0.02252 0.0
Co90 Co 0.27226 0.82261 0.259 0.0
C91 C 0.3355 0.85218 0.3554 0.0
Co92 Co 0.31894 0.78197 0.27622 0.0
C93 C 0.18663 0.83981 0.25197 0.0
C94 C 0.23777 0.89809 0.256 0.0
N95 N 0.2307 0.85509 0.24788 0.0
N96 N 0.16731 0.87051 0.27187 0.0
C97 C 0.19847 0.90769 0.2704 0.0
H98 H 0.17161 0.80589 0.25332 0.0
H99 H 0.27068 0.91999 0.26131 0.0
C100 C 0.25402 0.75298 0.18085 0.0
N101 N 0.36019 0.74863 0.28596 0.0
C102 C 0.40327 0.76014 0.27442 0.0
C103 C 0.35108 0.70548 0.28665 0.0
N104 N 0.41984 0.72588 0.26096 0.0
C105 C 0.38788 0.69143 0.27136 0.0
C106 C 0.24042 0.7492 0.33099 0.0
O107 O 0.24455 0.78874 0.19245 0.0
O108 O 0.28699 0.74365 0.21091 0.0
O109 O 0.28048 0.74504 0.3264 0.0
O110 O 0.22983 0.78117 0.30653 0.0
O111 O 0.34999 0.81934 0.34085 0.0
H112 H 0.31791 0.68526 0.28899 0.0
H113 H 0.41945 0.7924 0.26521 0.0
O114 O 0.30013 0.85815 0.32707 0.0
O115 O 0.3134 0.86247 0.21284 0.0
O116 O 0.35844 0.81947 0.22481 0.0
C117 C 0.35117 0.85393 0.2041 0.0
H118 H 0.1964 0.93832 0.29061 0.0
H119 H 0.3876 0.65841 0.25806 0.0
Co120 Co 0.32422 0.79731 0.73432 0.0
C121 C 0.34808 0.8602 0.82883 0.0
Co122 Co 0.27852 0.79206 0.80101 0.0
C123 C 0.39194 0.84331 0.6762 0.0
C124 C 0.39485 0.7771 0.67409 0.0
N125 N 0.36808 0.80425 0.6854 0.0
N126 N 0.4339 0.84246 0.66474 0.0
C127 C 0.4359 0.80083 0.66168 0.0
H128 H 0.38084 0.8726 0.68533 0.0
H129 H 0.38753 0.74336 0.68222 0.0
C130 C 0.25521 0.7288 0.7067 0.0
N131 N 0.2349 0.78386 0.8498 0.0
C132 C 0.2138 0.74409 0.86025 0.0
C133 C 0.20844 0.8096 0.86697 0.0
N134 N 0.17389 0.74297 0.88004 0.0
C135 C 0.17051 0.78429 0.88576 0.0
C136 C 0.2564 0.8401 0.71032 0.0
O137 O 0.29197 0.7476 0.68921 0.0
O138 O 0.24414 0.74347 0.75305 0.0
O139 O 0.24704 0.82753 0.75911 0.0
O140 O 0.2908 0.83139 0.68993 0.0
O141 O 0.31276 0.84002 0.84853 0.0
H142 H 0.21413 0.84367 0.86108 0.0
H143 H 0.2251 0.71574 0.84684 0.0
O144 O 0.35737 0.84763 0.78024 0.0
O145 O 0.3572 0.76379 0.77873 0.0
O146 O 0.30979 0.75586 0.84342 0.0
C147 C 0.34549 0.74883 0.82539 0.0
H148 H 0.46604 0.78905 0.65721 0.0
H149 H 0.14189 0.79527 0.89941 0.0
Co150 Co 0.28837 0.25521 0.81832 0.0
C151 C 0.36462 0.32333 0.84896 0.0
Co152 Co 0.30814 0.29841 0.75031 0.0
C153 C 0.28462 0.18721 0.894 0.0
C154 C 0.26139 0.23942 0.93083 0.0
N155 N 0.272 0.22347 0.88073 0.0
N156 N 0.28674 0.18201 0.95083 0.0
C157 C 0.27059 0.2141 0.97389 0.0
H158 H 0.30034 0.16929 0.86489 0.0
H159 H 0.2544 0.27085 0.93797 0.0
C160 C 0.23187 0.23273 0.71836 0.0
N161 N 0.32372 0.32945 0.68772 0.0
C162 C 0.31092 0.36552 0.67421 0.0
C163 C 0.33567 0.31395 0.63801 0.0
N164 N 0.31198 0.37177 0.6181 0.0
C165 C 0.32805 0.33981 0.595 0.0
C166 C 0.34641 0.2259 0.75064 0.0
O167 O 0.23879 0.22053 0.7687 0.0
O168 O 0.25796 0.26605 0.70357 0.0
O169 O 0.34287 0.25948 0.72612 0.0
O170 O 0.32665 0.21768 0.7954 0.0
O171 O 0.35822 0.33125 0.79669 0.0
H172 H 0.34382 0.28304 0.63095 0.0
H173 H 0.29494 0.38372 0.70259 0.0
O174 O 0.33841 0.29123 0.86741 0.0
O175 O 0.25085 0.29151 0.83927 0.0
O176 O 0.2719 0.33768 0.77635 0.0
C177 C 0.24838 0.32632 0.81732 0.0
H178 H 0.27299 0.22298 1.01947 0.0
H179 H 0.32906 0.33291 0.54951 0.0
Co180 Co 0.78595 0.31012 0.76442 0.0
C181 C 0.84808 0.33888 0.8609 0.0
Co182 Co 0.83319 0.27027 0.7805 0.0
C183 C 0.70066 0.33043 0.76491 0.0
C184 C 0.752 0.38549 0.75173 0.0
N185 N 0.74364 0.3424 0.75299 0.0
N186 N 0.68352 0.36438 0.77812 0.0
C187 C 0.71492 0.39905 0.767 0.0
H188 H 0.68503 0.29816 0.7747 0.0
H189 H 0.78495 0.40612 0.74949 0.0
C190 C 0.77241 0.23994 0.68394 0.0
N191 N 0.87612 0.24003 0.79535 0.0
C192 C 0.91051 0.2403 0.76419 0.0
C193 C 0.88422 0.21755 0.84091 0.0
N194 N 0.94013 0.21937 0.78809 0.0
C195 C 0.92335 0.20376 0.83569 0.0
C196 C 0.75337 0.23749 0.83403 0.0
O197 O 0.75644 0.2716 0.69991 0.0
O198 O 0.80879 0.23508 0.71118 0.0
O199 O 0.7906 0.22855 0.82339 0.0
O200 O 0.74665 0.27278 0.81566 0.0
O201 O 0.85755 0.30333 0.84853 0.0
H202 H 0.863 0.21135 0.87535 0.0
H203 H 0.91259 0.25335 0.72256 0.0
O204 O 0.81632 0.34921 0.82972 0.0
O205 O 0.82434 0.34706 0.71436 0.0
O206 O 0.87689 0.31356 0.73662 0.0
C207 C 0.86511 0.34462 0.7111 0.0
H208 H 0.71481 0.43201 0.78011 0.0
H209 H 0.93732 0.18257 0.86296 0.0
Co210 Co 0.77428 0.76239 0.75789 0.0
C211 C 0.76515 0.8302 0.83714 0.0
Co212 Co 0.83553 0.81274 0.78154 0.0
C213 C 0.71172 0.68026 0.75308 0.0
C214 C 0.67989 0.73033 0.727 0.0
N215 N 0.72058 0.72203 0.74218 0.0
N216 N 0.667 0.66275 0.74885 0.0
C217 C 0.64696 0.69396 0.731 0.0
H218 H 0.73734 0.66408 0.76898 0.0
H219 H 0.67417 0.76182 0.71904 0.0
C220 C 0.84405 0.74316 0.70385 0.0
N221 N 0.88922 0.85335 0.79682 0.0
C222 C 0.89706 0.89507 0.78572 0.0
C223 C 0.93046 0.84554 0.80943 0.0
N224 N 0.94148 0.91297 0.78692 0.0
C225 C 0.96265 0.88216 0.80331 0.0
C226 C 0.83294 0.74357 0.85012 0.0
O227 O 0.80184 0.73058 0.70637 0.0
O228 O 0.8643 0.77935 0.73002 0.0
O229 O 0.85501 0.78133 0.84339 0.0
O230 O 0.79504 0.7298 0.81956 0.0
O231 O 0.80686 0.84524 0.83274 0.0
H232 H 0.93681 0.81416 0.8167 0.0
H233 H 0.87073 0.91085 0.77139 0.0
O234 O 0.74619 0.79401 0.81045 0.0
O235 O 0.75433 0.79462 0.69687 0.0
O236 O 0.81544 0.84492 0.71891 0.0
C237 C 0.77704 0.83194 0.68937 0.0
H238 H 0.61104 0.69231 0.72821 0.0
H239 H 0.99851 0.88422 0.80363 0.0
Co240 Co 0.07665 0.94404 0.50752 0.0
Co241 Co 0.11581 0.99952 0.59038 0.0
Co242 Co 0.05049 1.04024 0.51213 0.0
O243 O 0.09648 1.0055 0.51565 0.0
H244 H 0.12155 1.01681 0.49435 0.0
O245 O 1.00332 0.07315 0.50863 0.0
Co246 Co 1.01948 0.13167 0.53247 0.0
Co247 Co 0.98547 0.08925 0.43993 0.0
H248 H 0.97692 0.05784 0.5248 0.0
O249 O 0.17128 0.9889 0.60703 0.0
O250 O 0.10451 0.93963 0.58821 0.0
O251 O 0.0844 1.0204 0.64928 0.0
O252 O 1.02623 1.01987 0.58499 0.0
O253 O 0.09432 0.08731 0.55717 0.0
O254 O 1.03133 0.1848 0.56293 0.0
O255 O 0.97007 0.12973 0.56374 0.0
O256 O 0.07692 0.1383 0.50665 0.0
O257 O 0.07469 0.06086 0.43896 0.0
O258 O 1.01942 0.07599 0.37989 0.0
O259 O 0.99164 0.14815 0.45689 0.0
O260 O 0.92841 0.0969 0.42489 0.0
C261 C 0.09898 0.89752 0.47194 0.0
C262 C 0.99645 0.95587 0.48504 0.0
C263 C 1.0427 1.01849 0.63674 0.0
C264 C 0.14816 0.9493 0.60467 0.0
C265 C 0.99645 0.16539 0.58702 0.0
C266 C 0.10318 0.1261 0.5444 0.0
C267 C 0.05853 0.06868 0.38926 0.0
C268 C 0.94889 0.13719 0.4359 0.0
O269 O 0.06132 0.88761 0.49455 0.0
O270 O 0.12549 0.93583 0.48078 0.0
O271 O 1.00714 0.9933 0.4679 0.0
O272 O 1.01953 0.94606 0.52847 0.0
Co273 Co 0.60126 0.96338 0.97139 0.0
Co274 Co 0.59673 0.9777 0.07982 0.0
Co275 Co 0.55199 0.04535 1.01819 0.0
O276 O 0.60179 1.01442 0.02063 0.0
H277 H 0.63113 1.0341 0.02559 0.0
O278 O 0.50237 0.0765 1.01588 0.0
Co279 Co 0.50312 0.12618 0.06806 0.0
Co280 Co 0.50786 0.11577 0.95967 0.0
H281 H 0.47297 0.05694 1.00996 0.0
O282 O 0.64854 0.97738 0.12092 0.0
O283 O 0.61314 0.93458 0.04174 0.0
O284 O 0.54114 0.95601 0.10909 0.0
O285 O 0.50643 1.00194 0.06663 0.0
O286 O 0.58289 0.08147 0.08878 0.0
O287 O 0.49985 0.17128 0.11457 0.0
O288 O 0.44269 0.11634 0.07978 0.0
O289 O 0.56694 0.14349 0.06587 0.0
O290 O 0.59739 0.08888 0.96968 0.0
O291 O 0.56438 0.13831 0.93303 0.0
O292 O 0.48984 0.15696 0.99998 0.0
O293 O 0.45626 0.11695 0.91782 0.0
C294 C 0.64761 0.93377 0.93295 0.0
C295 C 0.51022 0.96772 0.94905 0.0
C296 C 0.50541 0.96902 0.09822 0.0
C297 C 0.64878 0.94934 0.0788 0.0
C298 C 0.45697 0.15348 0.10991 0.0
C299 C 0.59413 0.12244 0.0888 0.0
C300 C 0.59931 0.12352 0.9412 0.0
C301 C 0.45452 0.14244 0.96224 0.0
O302 O 0.60452 0.91689 0.92781 0.0
O303 O 0.6622 0.97179 0.96084 0.0
O304 O 0.5211 1.00869 0.94782 0.0
O305 O 0.53752 0.94713 0.97273 0.0
Co306 Co 0.10022 0.45899 0.97898 0.0
Co307 Co 0.13141 0.5007 0.07639 0.0
Co308 Co 0.05219 0.54226 0.02447 0.0
O309 O 0.10577 0.51788 1.00935 0.0
H310 H 0.12824 0.53814 0.99213 0.0
O311 O 0.99826 0.56613 0.03857 0.0
Co312 Co 1.00182 0.62427 0.06823 0.0
Co313 Co 0.97333 0.58321 0.9709 0.0
H314 H 0.97564 0.5455 0.05504 0.0
O315 O 0.19034 0.49634 0.0866 0.0
O316 O 0.12943 0.44308 0.0548 0.0
O317 O 0.09917 0.50158 0.14278 0.0
O318 O 1.03662 0.50472 0.08839 0.0
O319 O 0.09222 0.58819 0.07807 0.0
O320 O 1.00041 0.67541 0.09986 0.0
O321 O 0.94644 0.61429 0.09467 0.0
O322 O 0.0634 0.64252 0.04865 0.0
O323 O 0.06785 0.57953 0.96109 0.0
O324 O 1.00643 0.58345 0.90518 0.0
O325 O 0.97325 0.64044 0.99161 0.0
O326 O 0.91421 0.58559 0.95913 0.0
C327 C 0.13942 0.42645 0.93387 0.0
C328 C 1.00626 0.45717 0.97763 0.0
C329 C 0.05655 0.49401 0.13372 0.0
C330 C 0.17208 0.4555 0.07642 0.0
C331 C 0.9607 0.65512 0.11135 0.0
C332 C 0.09666 0.62824 0.07111 0.0
C333 C 1.04891 0.59045 0.91536 0.0
C334 C 0.93118 0.62672 0.96804 0.0
O335 O 0.09986 0.4073 0.94712 0.0
O336 O 0.15507 0.46722 0.95044 0.0
O337 O 1.01222 0.49716 0.97053 0.0
O338 O 1.03874 0.44186 1.00016 0.0
Co339 Co 0.57957 0.4485 1.0126 0.0
Co340 Co 0.61542 0.50136 0.09836 0.0
Co341 Co 0.54744 0.54149 1.01974 0.0
O342 O 0.59516 0.50907 0.02556 0.0
H343 H 0.62055 0.52232 1.00592 0.0
O344 O 0.50001 0.57454 1.01316 0.0
Co345 Co 0.51764 0.63557 0.02581 0.0
Co346 Co 0.48102 0.58325 0.93941 0.0
H347 H 0.47445 0.56187 0.03288 0.0
O348 O 0.67231 0.49286 0.1144 0.0
O349 O 0.60754 0.44173 0.09191 0.0
O350 O 0.58278 0.51994 0.15697 0.0
O351 O 0.52442 0.52425 0.09478 0.0
O352 O 0.59117 0.59135 0.06082 0.0
O353 O 0.53041 0.69164 0.04408 0.0
O354 O 0.46807 0.64004 0.05475 0.0
O355 O 0.5746 0.63719 1.00085 0.0
O356 O 0.5706 0.55882 0.94533 0.0
O357 O 0.51532 0.56686 0.88092 0.0
O358 O 0.49022 0.64313 0.94671 0.0
O359 O 0.42478 0.59342 0.92222 0.0
C360 C 0.60693 0.40645 0.97277 0.0
C361 C 0.49492 0.4541 0.99775 0.0
C362 C 0.5421 0.52274 0.1461 0.0
C363 C 0.65088 0.45262 0.10928 0.0
C364 C 0.49266 0.67895 0.06598 0.0
C365 C 0.60042 0.62854 0.04208 0.0
C366 C 0.55567 0.56383 0.89407 0.0
C367 C 0.4471 0.63337 0.92831 0.0
O368 O 0.56898 0.39241 0.99379 0.0
O369 O 0.62984 0.44594 0.98414 0.0
O370 O 0.50378 0.49137 0.97895 0.0
O371 O 0.52193 0.44495 0.03733 0.0
Co372 Co 0.14185 0.50441 0.52417 0.0
Co373 Co 0.10719 0.50895 0.42217 0.0
Co374 Co 0.05055 0.54592 0.51802 0.0
O375 O 0.08108 0.50022 0.49088 0.0
H376 H 0.06211 0.4716 0.49051 0.0
O377 O 1.02021 0.5916 0.54589 0.0
Co378 Co 0.9577 0.58688 0.51954 0.0
Co379 Co 1.00066 0.58274 0.61947 0.0
H380 H 1.03861 0.62028 0.54451 0.0
O381 O 0.11193 0.46079 0.37709 0.0
O382 O 0.1636 0.49884 0.44593 0.0
O383 O 0.12023 0.56693 0.39912 0.0
O384 O 0.08825 0.59575 0.46896 0.0
O385 O 1.00149 0.52585 0.45385 0.0
O386 O 0.90219 0.58489 0.49582 0.0
O387 O 0.95813 0.64371 0.52072 0.0
O388 O 0.94842 0.52663 0.5113 0.0
O389 O 1.01311 0.49636 0.56687 0.0
O390 O 0.99141 0.52524 0.64535 0.0
O391 O 0.94211 0.58894 0.60114 0.0
O392 O 0.99527 0.63069 0.66506 0.0
C393 C 0.18067 0.46457 0.54974 0.0
C394 C 0.13905 0.58091 0.57122 0.0
C395 C 0.11343 0.60008 0.42583 0.0
C396 C 0.15094 0.46617 0.40711 0.0
C397 C 0.91538 0.62616 0.50516 0.0
C398 C 0.96109 0.51185 0.46566 0.0
C399 C 0.99307 0.49204 0.61429 0.0
C400 C 0.95472 0.62241 0.63863 0.0
O401 O 0.19526 0.50589 0.55512 0.0
O402 O 0.13894 0.44748 0.52854 0.0
O403 O 0.09889 0.56567 0.58246 0.0
O404 O 0.1534 0.56493 0.52773 0.0
Co405 Co 0.6499 0.99728 0.53548 0.0
Co406 Co 0.61956 1.01034 0.43902 0.0
Co407 Co 0.55405 0.04482 0.5224 0.0
O408 O 0.58894 0.9996 0.501 0.0
H409 H 0.56903 0.97181 0.49034 0.0
O410 O 0.51912 0.09014 0.54372 0.0
Co411 Co 0.45843 0.09314 0.50877 0.0
Co412 Co 0.48784 0.07874 0.60479 0.0
H413 H 0.53908 0.11781 0.55501 0.0
O414 O 0.61687 0.96591 0.38614 0.0
O415 O 0.67327 0.99365 0.4576 0.0
O416 O 0.61936 0.06581 0.41242 0.0
O417 O 0.55396 0.06968 0.44534 0.0
O418 O 0.49741 1.00015 0.49372 0.0
O419 O 0.40597 0.10009 0.47485 0.0
O420 O 0.4663 0.15254 0.50662 0.0
O421 O 0.44024 1.03221 0.5016 0.0
O422 O 0.55408 1.01988 0.5995 0.0
O423 O 0.4883 1.02345 0.63138 0.0
O424 O 0.43378 0.09481 0.58662 0.0
O425 O 0.49003 0.12264 0.65791 0.0
C426 C 0.68331 0.95033 0.56615 0.0
C427 C 0.65307 0.09139 0.55171 0.0
C428 C 0.58634 0.0837 0.41555 0.0
C429 C 0.65695 0.96747 0.4116 0.0
C430 C 0.42521 0.14083 0.48002 0.0
C431 C 0.45513 0.99879 0.49118 0.0
C432 C 0.52151 1.00576 0.62897 0.0
C433 C 0.44929 0.12007 0.63377 0.0
O434 O 0.70267 0.99099 0.56897 0.0
O435 O 0.64211 0.93806 0.54 0.0
O436 O 0.61075 0.08945 0.55104 0.0
O437 O 0.66824 0.05833 0.53998 0.0
C438 C 0.163 0.12335 0.32875 0.0
C439 C 0.14561 0.13193 0.27403 0.0
C440 C 0.13569 0.09756 0.36381 0.0
C441 C 0.08982 0.08014 0.34553 0.0
H442 H 0.19613 0.14056 0.34741 0.0
H443 H 0.14942 0.09558 0.40766 0.0
S444 S 1.03255 0.08132 0.19928 0.0
N445 N 0.08361 0.11204 0.19785 0.0
N446 N 1.03132 0.06415 0.26452 0.0
C447 C 0.07398 0.08305 0.28796 0.0
C448 C 0.10214 0.10891 0.25198 0.0
C449 C 0.91922 0.22961 0.35649 0.0
C450 C 0.87269 0.22433 0.36144 0.0
C451 C 0.94461 0.20328 0.38414 0.0
C452 C 0.9242 0.16999 0.41667 0.0
H453 H 0.93607 0.25394 0.33036 0.0
H454 H 0.9799 0.2076 0.37756 0.0
S455 S 0.80412 0.1438 0.44533 0.0
N456 N 0.808 0.18459 0.40415 0.0
N457 N 0.8552 0.13437 0.45431 0.0
C458 C 0.87807 0.16513 0.42323 0.0
C459 C 0.85247 0.19249 0.39617 0.0
C460 C 0.90352 0.86307 0.41982 0.0
C461 C 0.90378 0.86888 0.3605 0.0
C462 C 0.93567 0.88955 0.46048 0.0
C463 C 0.96893 0.92251 0.44294 0.0
H464 H 0.87711 0.83919 0.43529 0.0
H465 H 0.93295 0.88575 0.50575 0.0
S466 S 0.99006 0.94515 0.29274 0.0
N467 N 0.94407 0.90591 0.28628 0.0
N468 N 1.00481 0.95541 0.36244 0.0
C469 C 0.97183 0.92631 0.38366 0.0
C470 C 0.93909 0.89957 0.34244 0.0
C471 C 0.09949 0.8679 0.32061 0.0
C472 C 0.14374 0.86296 0.3213 0.0
C473 C 0.0807 0.87082 0.37229 0.0
C474 C 0.10658 0.87012 0.42503 0.0
H475 H 0.081 0.87294 0.28082 0.0
H476 H 1.04831 0.87942 0.37136 0.0
S477 S 0.22012 0.84867 0.44808 0.0
N478 N 0.20988 0.84987 0.37785 0.0
N479 N 0.17442 0.85676 0.47485 0.0
C480 C 0.14836 0.85979 0.42563 0.0
C481 C 0.16727 0.85623 0.37349 0.0
C482 C 0.24447 0.8946 0.6404 0.0
C483 C 0.22678 0.86406 0.67824 0.0
C484 C 0.21793 0.92062 0.61465 0.0
C485 C 0.1724 0.91642 0.62457 0.0
H486 H 0.27957 0.89976 0.63257 0.0
H487 H 0.23357 0.94504 0.58779 0.0
S488 S 0.10842 0.8378 0.71473 0.0
N489 N 0.15971 0.82874 0.72075 0.0
N490 N 0.10993 0.8771 0.67131 0.0
C491 C 0.15351 0.88423 0.6594 0.0
C492 C 0.18071 0.85827 0.68656 0.0
C493 C 0.19887 0.21411 0.61625 0.0
C494 C 0.19583 0.20797 0.67519 0.0
C495 C 0.16723 0.18915 0.57359 0.0
C496 C 0.13157 0.15736 0.58854 0.0
H497 H 0.22682 0.23735 0.60269 0.0
H498 H 0.17187 0.19339 0.52883 0.0
S499 S 0.1038 0.1334 0.73602 0.0
N500 N 0.15119 0.17103 0.74586 0.0
N501 N 0.09139 0.12449 0.66577 0.0
C502 C 0.12644 0.15273 0.64716 0.0
C503 C 0.15872 0.1779 0.69052 0.0
C504 C 0.95878 0.16107 0.7345 0.0
C505 C 0.97077 0.20435 0.75505 0.0
C506 C 0.9679 0.14895 0.67993 0.0
C507 C 0.99025 0.17969 0.64517 0.0
H508 H 0.93705 0.13762 0.7573 0.0
H509 H 0.9556 0.11552 0.66413 0.0
S510 S 1.03989 0.2949 0.68788 0.0
N511 N 1.01387 0.27624 0.74318 0.0
N512 N 1.03261 0.25337 0.64024 0.0
C513 C 1.00836 0.22183 0.66893 0.0
C514 C 0.99874 0.23407 0.72454 0.0
C515 C 1.00335 0.97443 0.77389 0.0
C516 C 0.96099 0.94781 0.75416 0.0
C517 C 1.02824 1.00112 0.73699 0.0
C518 C 1.01143 1.00196 0.67913 0.0
H519 H 1.01847 0.9724 0.81702 0.0
H520 H 0.06208 1.01887 0.75281 0.0
S521 S 0.9003 0.94054 0.60778 0.0
N522 N 0.90257 0.92517 0.67381 0.0
N523 N 0.94739 0.97724 0.60582 0.0
C524 C 0.96716 0.9785 0.66056 0.0
C525 C 0.94245 0.9507 0.69768 0.0
C526 C 0.41604 0.24596 0.18175 0.0
C527 C 0.36909 0.23042 0.18115 0.0
C528 C 0.44348 0.2206 0.1594 0.0
C529 C 0.42569 0.17814 0.13495 0.0
H530 H 0.43218 0.278 0.20051 0.0
H531 H 0.47928 0.23481 0.16138 0.0
S532 S 0.3045 0.12207 0.12012 0.0
N533 N 0.30568 0.16963 0.1521 0.0
N534 N 0.3573 0.12219 0.1102 0.0
C535 C 0.37866 0.16222 0.13317 0.0
C536 C 0.35049 0.18821 0.15606 0.0
C537 C 0.95212 0.41727 0.15909 0.0
C538 C 0.96739 0.37921 0.16338 0.0
C539 C 0.98257 0.45678 0.15912 0.0
C540 C 1.02922 0.45923 0.16241 0.0
H541 H 0.91626 0.41599 0.15304 0.0
H542 H 0.96936 0.4849 0.15069 0.0
S543 S 0.08553 0.36933 0.18886 0.0
N544 N 1.03098 0.34657 0.18246 0.0
N545 N 0.08933 0.42109 0.18119 0.0
C546 C 1.04492 0.42191 0.1739 0.0
C547 C 1.01358 0.3816 0.17418 0.0
C548 C 0.7337 0.88523 0.04616 0.0
C549 C 0.77471 0.91439 0.06636 0.0
C550 C 0.6926 0.89702 0.04851 0.0
C551 C 0.6917 0.93852 0.06969 0.0
H552 H 0.73308 0.85176 0.03518 0.0
H553 H 0.6615 0.87292 0.03693 0.0
S554 S 0.79039 1.02917 0.11369 0.0
N555 N 0.81239 0.98767 0.09895 0.0
N556 N 0.73517 1.01113 0.10046 0.0
C557 C 0.73264 0.96937 0.08293 0.0
C558 C 0.77427 0.95709 0.08123 0.0
C559 C 0.18503 0.73308 0.10967 0.0
C560 C 0.22043 0.72019 0.14202 0.0
C561 C 0.14619 0.70311 0.08483 0.0
C562 C 0.14086 0.65876 0.09107 0.0
H563 H 0.1861 0.76694 0.10603 0.0
H564 H 0.11938 0.71515 0.06257 0.0
S565 S 0.22666 0.60743 0.16399 0.0
N566 N 0.24975 0.65949 0.17326 0.0
N567 N 0.17721 0.60307 0.12638 0.0
C568 C 0.1776 0.6451 0.1194 0.0
C569 C 0.21724 0.67577 0.14475 0.0
C570 C 0.40507 0.93009 0.84338 0.0
C571 C 0.38307 0.89188 0.86551 0.0
C572 C 0.44506 0.9559 0.87235 0.0
C573 C 0.4651 0.9434 0.92325 0.0
H574 H 0.3922 0.93919 0.80233 0.0
H575 H 0.46168 0.98446 0.85306 0.0
S576 S 0.41955 0.84677 0.99961 0.0
N577 N 0.38266 0.84392 0.94259 0.0
N578 N 0.45864 0.89122 0.99586 0.0
C579 C 0.44251 0.90592 0.94665 0.0
C580 C 0.40121 0.88045 0.91807 0.0
C581 C 0.23001 0.39762 0.84586 0.0
C582 C 0.21854 0.35227 0.84145 0.0
C583 C 0.20454 0.4216 0.87581 0.0
C584 C 0.16629 0.40115 0.90174 0.0
H585 H 0.25969 0.41464 0.82781 0.0
H586 H 0.21504 0.45639 0.87885 0.0
S587 S 0.12081 0.28284 0.89946 0.0
N588 N 0.16532 0.28801 0.86352 0.0
N589 N 0.11787 0.33235 0.91893 0.0
C590 C 0.15401 0.35577 0.89608 0.0
C591 C 0.17996 0.33159 0.86618 0.0
C592 C 0.67645 0.21945 0.87459 0.0
C593 C 0.71693 0.20724 0.86471 0.0
C594 C 0.64075 0.19251 0.89961 0.0
C595 C 0.64193 0.15069 0.91733 0.0
H596 H 0.67176 0.2505 0.86232 0.0
H597 H 0.61126 0.20521 0.9048 0.0
S598 S 0.74068 0.10214 0.904 0.0
N599 N 0.75617 0.14934 0.87696 0.0
N600 N 0.68968 0.09945 0.92383 0.0
C601 C 0.68269 0.13811 0.90906 0.0
C602 C 0.71952 0.16583 0.88303 0.0
C603 C 0.8966 0.72992 0.92021 0.0
C604 C 0.85463 0.71419 0.88636 0.0
C605 C 0.9205 0.70209 0.94816 0.0
C606 C 0.90368 0.65703 0.94373 0.0
H607 H 0.91191 0.76407 0.92391 0.0
H608 H 0.95298 0.716 0.97217 0.0
S609 S 0.79529 0.5989 0.86048 0.0
N610 N 0.79789 0.65002 0.85048 0.0
N611 N 0.84113 0.5984 0.90319 0.0
C612 C 0.8611 0.64109 0.91133 0.0
C613 C 0.83713 0.66934 0.88272 0.0
C614 C 0.26693 0.41267 0.1553 0.0
C615 C 0.2493 0.36798 0.15433 0.0
C616 C 0.24254 0.43993 0.12786 0.0
C617 C 0.19904 0.42414 0.09792 0.0
H618 H 0.29915 0.4272 0.17959 0.0
H619 H 0.25758 0.47414 0.13216 0.0
S620 S 0.13975 0.30884 0.07533 0.0
N621 N 0.18706 0.3086 0.11547 0.0
N622 N 0.14156 0.35979 0.06434 0.0
C623 C 0.18208 0.37921 0.09363 0.0
C624 C 0.20701 0.35128 0.12163 0.0
C625 C 0.15492 0.66627 0.89477 0.0
C626 C 0.14046 0.70391 0.88258 0.0
C627 C 0.1243 0.62715 0.89541 0.0
C628 C 0.07767 0.62445 0.88721 0.0
H629 H 0.19031 0.66718 0.9058 0.0
H630 H 0.13719 0.59966 0.90814 0.0
S631 S 1.0222 0.71159 0.84327 0.0
N632 N 0.0767 0.7345 0.85186 0.0
N633 N 1.01819 0.66105 0.85833 0.0
C634 C 0.06251 0.6609 0.87052 0.0
C635 C 0.09411 0.70083 0.86798 0.0
C636 C 0.36326 0.19806 0.9988 0.0
C637 C 0.32393 0.16712 0.97707 0.0
C638 C 0.40601 0.18964 0.99615 0.0
C639 C 0.41023 0.14965 0.97303 0.0
H640 H 0.36108 0.23042 1.01166 0.0
H641 H 0.43568 0.21523 1.00891 0.0
S642 S 0.31711 0.05422 0.92718 0.0
N643 N 0.29152 0.093 0.943 0.0
N644 N 0.37174 0.07584 0.94041 0.0
C645 C 0.37105 0.11665 0.95899 0.0
C646 C 0.3278 0.12555 0.96119 0.0
C647 C 0.91429 0.35542 0.93622 0.0
C648 C 0.88095 0.37017 0.90224 0.0
C649 C 0.95363 0.38381 0.96272 0.0
C650 C 0.96138 0.4283 0.95665 0.0
H651 H 0.91135 0.32125 0.93964 0.0
H652 H 0.97899 0.37043 0.98597 0.0
S653 S 0.88092 0.48426 0.88065 0.0
N654 N 0.85572 0.43272 0.87018 0.0
N655 N 0.92901 0.48634 0.92033 0.0
C656 C 0.92635 0.44388 0.92712 0.0
C657 C 0.88628 0.41481 0.90002 0.0
C658 C 0.75239 0.90083 0.8809 0.0
C659 C 0.73715 0.85595 0.86729 0.0
C660 C 0.72395 0.92596 0.90268 0.0
C661 C 0.67882 0.90742 0.91123 0.0
H662 H 0.78619 0.91697 0.87321 0.0
H663 H 0.73715 0.96026 0.91171 0.0
S664 S 0.62419 0.79041 0.88976 0.0
N665 N 0.67502 0.79381 0.86963 0.0
N666 N 0.62211 0.84016 0.90931 0.0
C667 C 0.66397 0.86229 0.89992 0.0
C668 C 0.69287 0.83688 0.87838 0.0
C669 C 0.86801 0.68082 0.19747 0.0
C670 C 0.87616 0.72598 0.198 0.0
C671 C 0.89518 0.65783 0.16915 0.0
C672 C 0.93183 0.67925 0.14118 0.0
H673 H 0.8398 0.66309 0.21759 0.0
H674 H 0.88743 0.62307 0.16924 0.0
S675 S 0.96822 0.79752 0.13213 0.0
N676 N 0.92452 0.79123 0.16961 0.0
N677 N 0.97471 0.74853 0.11673 0.0
C678 C 0.94061 0.72446 0.14251 0.0
C679 C 0.91307 0.74764 0.17084 0.0
C680 C 0.43014 0.87416 0.16916 0.0
C681 C 0.38779 0.88419 0.17362 0.0
C682 C 0.46596 0.90152 0.14487 0.0
C683 C 0.46298 0.94152 0.12217 0.0
H684 H 0.43624 0.8446 0.18531 0.0
H685 H 0.49693 0.89053 0.144 0.0
S686 S 0.35897 0.98383 0.12006 0.0
N687 N 0.34495 0.93806 0.15102 0.0
N688 N 0.41154 0.98848 0.10499 0.0
C689 C 0.4204 0.95182 0.12497 0.0
C690 C 0.3835 0.92377 0.15052 0.0
C691 C 0.7 0.21157 0.1235 0.0
C692 C 0.72196 0.1978 0.17188 0.0
C693 C 0.65928 0.18634 0.09587 0.0
C694 C 0.63947 0.14617 0.1152 0.0
H695 H 0.71279 0.2433 0.10923 0.0
H696 H 0.64261 0.19896 0.06003 0.0
S697 S 0.68711 0.09381 0.23639 0.0
N698 N 0.72314 0.14075 0.23589 0.0
N699 N 0.64751 0.0922 0.18273 0.0
C700 C 0.66287 0.13086 0.16132 0.0
C701 C 0.70384 0.15705 0.19013 0.0
C702 C 0.60217 0.60352 0.75865 0.0
C703 C 0.64523 0.628 0.78011 0.0
C704 C 0.57433 0.57885 0.79462 0.0
C705 C 0.58894 0.57766 0.8531 0.0
H706 H 0.58875 0.60623 0.71492 0.0
H707 H 0.54009 0.56315 0.77753 0.0
S708 S 0.70074 0.63297 0.92902 0.0
N709 N 0.702 0.64765 0.86273 0.0
N710 N 0.65142 0.59921 0.92917 0.0
C711 C 0.63377 0.59844 0.87351 0.0
C712 C 0.66153 0.62429 0.8373 0.0
C713 C 0.3519 0.68831 0.88707 0.0
C714 C 0.3729 0.72293 0.85717 0.0
C715 C 0.37663 0.66046 0.91182 0.0
C716 C 0.42348 0.6668 0.90889 0.0
H717 H 0.31576 0.68153 0.8892 0.0
H718 H 0.3587 0.63317 0.93243 0.0
S719 S 0.49527 0.75601 0.84147 0.0
N720 N 0.4438 0.76414 0.82985 0.0
N721 N 0.49041 0.71251 0.87771 0.0
C722 C 0.44533 0.70289 0.88222 0.0
C723 C 0.41999 0.73072 0.85593 0.0
C724 C 0.41704 0.39522 0.86953 0.0
C725 C 0.39918 0.35439 0.88827 0.0
C726 C 0.44723 0.42697 0.90562 0.0
C727 C 0.46165 0.41939 0.96216 0.0
H728 H 0.40705 0.4033 0.82667 0.0
H729 H 0.4596 0.45773 0.88847 0.0
S730 S 0.4261 0.31771 0.03246 0.0
N731 N 0.39848 0.30785 0.96736 0.0
N732 N 0.45628 0.3677 0.03525 0.0
C733 C 0.44471 0.37855 0.98156 0.0
C734 C 0.41324 0.34609 0.94471 0.0
C735 C 0.61544 0.36843 0.82373 0.0
C736 C 0.66037 0.36495 0.82803 0.0
C737 C 0.59551 0.37603 0.87341 0.0
C738 C 0.62058 0.381 0.92781 0.0
H739 H 0.59679 0.36772 0.78195 0.0
H740 H 0.56196 0.38224 0.86884 0.0
S741 S 0.73735 0.36887 0.96125 0.0
N742 N 0.72755 0.36164 0.89054 0.0
N743 N 0.69033 0.3776 0.98371 0.0
C744 C 0.6642 0.37418 0.93272 0.0
C745 C 0.68415 0.36578 0.88262 0.0
C746 C 0.7489 0.40057 0.14768 0.0
C747 C 0.72922 0.36545 0.17762 0.0
C748 C 0.72283 0.42767 0.12378 0.0
C749 C 0.67599 0.42005 0.12772 0.0
H750 H 0.78497 0.40839 0.14506 0.0
H751 H 0.73972 0.45541 0.10312 0.0
S752 S 0.60746 0.32909 0.19564 0.0
N753 N 0.65954 0.32234 0.2059 0.0
N754 N 0.61057 0.37265 0.15981 0.0
C755 C 0.65549 0.38342 0.15432 0.0
C756 C 0.68212 0.35633 0.17964 0.0
C757 C 0.68998 0.72905 0.09658 0.0
C758 C 0.69152 0.72729 0.15675 0.0
C759 C 0.65923 0.69789 0.05924 0.0
C760 C 0.62945 0.66381 0.08091 0.0
H761 H 0.71376 0.75367 0.0781 0.0
H762 H 0.66001 0.69949 1.01329 0.0
S763 S 0.61447 0.64863 0.23443 0.0
N764 N 0.65634 0.69151 0.23573 0.0
N765 N 0.59933 0.63314 0.16587 0.0
C766 C 0.62876 0.66323 0.14078 0.0
C767 C 0.65959 0.69494 0.17861 0.0
C768 C 0.48604 0.715 0.21635 0.0
C769 C 0.44375 0.72507 0.21179 0.0
C770 C 0.50508 0.7055 0.16678 0.0
C771 C 0.48156 0.70505 0.11214 0.0
H772 H 0.5029 0.71192 0.25813 0.0
H773 H 0.5362 0.69449 0.17132 0.0
S774 S 0.37223 0.73391 0.07801 0.0
N775 N 0.38112 0.73867 0.14888 0.0
N776 N 0.41655 0.71908 0.05576 0.0
C777 C 0.44096 0.71811 0.10702 0.0
C778 C 0.42203 0.72857 0.1571 0.0
C779 C 0.43844 0.47291 0.21315 0.0
C780 C 0.4568 0.46631 0.26839 0.0
C781 C 0.46544 0.49614 0.1754 0.0
C782 C 0.51176 0.5132 0.19149 0.0
H783 H 0.40445 0.4563 0.19645 0.0
H784 H 0.45077 0.4967 0.13162 0.0
S785 S 0.57146 0.51795 0.33771 0.0
N786 N 0.52028 0.4885 0.34229 0.0
N787 N 0.57168 0.5318 0.2708 0.0
C788 C 0.52859 0.5127 0.2493 0.0
C789 C 0.50087 0.48929 0.28793 0.0
C790 C 0.918 0.72548 0.68313 0.0
C791 C 0.8705 0.71301 0.67951 0.0
C792 C 0.94432 0.69614 0.66912 0.0
C793 C 0.92471 0.65273 0.65031 0.0
H794 H 0.93535 0.758 0.69868 0.0
H795 H 0.98068 0.70768 0.67368 0.0
S796 S 0.802 0.60278 0.63319 0.0
N797 N 0.80501 0.6534 0.65488 0.0
N798 N 0.85454 0.59882 0.62874 0.0
C799 C 0.87729 0.63989 0.64511 0.0
C800 C 0.85031 0.66978 0.65955 0.0
C801 C 0.47078 0.91404 0.70918 0.0
C802 C 0.47026 0.87968 0.66895 0.0
C803 C 0.49377 0.95571 0.7009 0.0
C804 C 0.5177 0.96372 0.65296 0.0
H805 H 0.44953 0.90935 0.74377 0.0
H806 H 0.48878 0.98212 0.72847 0.0
S807 S 0.53921 0.88191 0.54788 0.0
N808 N 0.50369 0.85418 0.58849 0.0
N809 N 0.54964 0.93237 0.57466 0.0
C810 C 0.52437 0.92839 0.61932 0.0
C811 C 0.49986 0.88608 0.62689 0.0
C812 C 0.28938 0.43876 0.60767 0.0
C813 C 0.28356 0.3955 0.58941 0.0
C814 C 0.2553 0.46017 0.59514 0.0
C815 C 0.21402 0.43904 0.56359 0.0
H816 H 0.31959 0.4553 0.63477 0.0
H817 H 0.26127 0.49348 0.61159 0.0
S818 S 0.18364 0.32578 0.50286 0.0
N819 N 0.23487 0.33201 0.53657 0.0
N820 N 0.17032 0.37286 0.51144 0.0
C821 C 0.20836 0.396 0.54302 0.0
C822 C 0.24343 0.37413 0.55594 0.0
C823 C 0.69955 0.20478 0.62357 0.0
C824 C 0.74527 0.20564 0.64057 0.0
C825 C 0.67068 0.16889 0.59196 0.0
C826 C 0.68614 0.13214 0.57549 0.0
H827 H 0.68512 0.23112 0.63736 0.0
H828 H 0.63541 0.16931 0.58267 0.0
S829 S 0.80478 0.12056 0.60199 0.0
N830 N 0.80579 0.1683 0.63306 0.0
N831 N 0.75215 0.10126 0.57364 0.0
C832 C 0.73271 0.13396 0.58856 0.0
C833 C 0.76201 0.17048 0.62104 0.0
C834 C 0.91983 0.41743 0.3538 0.0
C835 C 0.87427 0.4025 0.36281 0.0
C836 C 0.9475 0.453 0.3868 0.0
C837 C 0.93064 0.47525 0.42992 0.0
H838 H 0.9346 0.40108 0.32169 0.0
H839 H 0.98253 0.46269 0.37881 0.0
S840 S 0.81231 0.45172 0.46642 0.0
N841 N 0.81273 0.41433 0.41544 0.0
N842 N 0.86437 0.48145 0.4769 0.0
C843 C 0.88471 0.46142 0.43814 0.0
C844 C 0.85664 0.42502 0.40476 0.0
C845 C 0.71753 0.87808 0.38159 0.0
C846 C 0.729 0.88396 0.32498 0.0
C847 C 0.69629 0.90639 0.41058 0.0
C848 C 0.68513 0.94158 0.38406 0.0
H849 H 0.72487 0.85119 0.40393 0.0
H850 H 0.68725 0.89984 0.45333 0.0
S851 S 0.70961 0.97352 0.23852 0.0
N852 N 0.72916 0.92966 0.24512 0.0
N853 N 0.68833 0.98192 0.29912 0.0
C854 C 0.69687 0.94839 0.32812 0.0
C855 C 0.71907 0.91994 0.29879 0.0
C856 C 0.22023 0.67813 0.38103 0.0
C857 C 0.20679 0.71493 0.36086 0.0
C858 C 0.1904 0.64383 0.40437 0.0
C859 C 0.14437 0.64306 0.41052 0.0
H860 H 0.25439 0.67493 0.37739 0.0
H861 H 0.20371 0.61651 0.41672 0.0
S862 S 0.0904 0.73182 0.36731 0.0
N863 N 0.14264 0.74835 0.35099 0.0
N864 N 0.08752 0.68471 0.39474 0.0
C865 C 0.1304 0.68023 0.3923 0.0
C866 C 0.16102 0.71548 0.36779 0.0
C867 C 0.3977 0.24366 0.41997 0.0
C868 C 0.35188 0.23014 0.39659 0.0
C869 C 0.42092 0.21555 0.44848 0.0
C870 C 0.39965 0.17231 0.45471 0.0
H871 H 0.4164 0.276 0.41472 0.0
H872 H 0.45624 0.22749 0.46409 0.0
S873 S 0.2791 0.1213 0.40589 0.0
N874 N 0.28568 0.17086 0.38588 0.0
N875 N 0.32867 0.1184 0.43759 0.0
C876 C 0.35343 0.1589 0.43324 0.0
C877 C 0.32981 0.18757 0.40489 0.0
C878 C 0.71527 0.84638 0.61661 0.0
C879 C 0.75586 0.86186 0.6534 0.0
C880 C 0.69222 0.87454 0.58777 0.0
C881 C 0.70859 0.91966 0.59424 0.0
H882 H 0.70059 0.81212 0.61081 0.0
H883 H 0.66106 0.8608 0.56078 0.0
S884 S 0.81198 0.97734 0.6879 0.0
N885 N 0.80971 0.926 0.69594 0.0
N886 N 0.76815 0.97816 0.6417 0.0
C887 C 0.74933 0.93541 0.63052 0.0
C888 C 0.7724 0.90686 0.65996 0.0
C889 C 0.6334 0.17476 0.33135 0.0
C890 C 0.63387 0.2097 0.37063 0.0
C891 C 0.61195 0.13307 0.34187 0.0
C892 C 0.58966 0.12553 0.39117 0.0
H893 H 0.65354 0.1792 0.29558 0.0
H894 H 0.61657 0.10638 0.31459 0.0
S895 S 0.5694 0.20821 0.49597 0.0
N896 N 0.60242 0.23577 0.45249 0.0
N897 N 0.55974 0.15738 0.47095 0.0
C898 C 0.58317 0.16106 0.42456 0.0
C899 C 0.60594 0.20346 0.41453 0.0
C900 C 0.86078 0.72045 0.49236 0.0
C901 C 0.81552 0.6998 0.47434 0.0
C902 C 0.89305 0.69663 0.50558 0.0
C903 C 0.88067 0.65154 0.50127 0.0
H904 H 0.872 0.7549 0.49001 0.0
H905 H 0.9281 0.71347 0.51521 0.0
S906 S 0.7638 0.58353 0.47107 0.0
N907 N 0.75831 0.63322 0.46401 0.0
N908 N 0.81809 0.58768 0.48953 0.0
C909 C 0.83428 0.63104 0.49104 0.0
C910 C 0.80172 0.65549 0.47795 0.0
C911 C 0.40819 0.88615 0.41701 0.0
C912 C 0.36284 0.88613 0.399 0.0
C913 C 0.4371 0.92152 0.4497 0.0
C914 C 0.42196 0.95844 0.46633 0.0
H915 H 0.42229 0.85958 0.40331 0.0
H916 H 0.47215 0.92057 0.45978 0.0
S917 S 0.30418 0.97192 0.43743 0.0
N918 N 0.30307 0.92456 0.4052 0.0
N919 N 0.35649 0.99018 0.46744 0.0
C920 C 0.37569 0.95736 0.4522 0.0
C921 C 0.34646 0.92156 0.41835 0.0
C922 C 0.18603 0.36529 0.34935 0.0
C923 C 0.23301 0.3736 0.36488 0.0
C924 C 0.16041 0.39511 0.36385 0.0
C925 C 0.18009 0.4349 0.39519 0.0
H926 H 0.16887 0.33603 0.32382 0.0
H927 H 0.1246 0.38686 0.34958 0.0
S928 S 0.30137 0.47158 0.45024 0.0
N929 N 0.29785 0.42416 0.41636 0.0
N930 N 0.24978 0.47988 0.44353 0.0
C931 C 0.2268 0.4431 0.41282 0.0
C932 C 0.25309 0.41268 0.39774 0.0
C933 C 0.40755 0.18457 0.75109 0.0
C934 C 0.3695 0.19533 0.72288 0.0
C935 C 0.43252 0.15982 0.72198 0.0
C936 C 0.41995 0.14401 0.6638 0.0
H937 H 0.41906 0.19664 0.79523 0.0
H938 H 0.46227 0.15337 0.74541 0.0
S939 S 0.3194 0.15994 0.57332 0.0
N940 N 0.3186 0.18667 0.63515 0.0
N941 N 0.364 0.13876 0.58124 0.0
C942 C 0.38045 0.15299 0.63629 0.0
C943 C 0.35573 0.17902 0.66558 0.0
C944 C 0.94458 0.3801 0.67752 0.0
C945 C 0.89797 0.37933 0.68072 0.0
C946 C 0.97499 0.41421 0.65294 0.0
C947 C 0.96085 0.44986 0.62942 0.0
H948 H 0.95821 0.35458 0.69558 0.0
H949 H 1.01027 0.41336 0.6545 0.0
S950 S 0.84338 0.46505 0.62629 0.0
N951 N 0.84059 0.41908 0.6563 0.0
N952 N 0.89613 0.48123 0.61225 0.0
C953 C 0.91443 0.44893 0.63179 0.0
C954 C 0.88374 0.41457 0.65641 0.0
C955 C 0.23935 0.6724 0.62471 0.0
C956 C 0.2251 0.69094 0.67329 0.0
C957 C 0.21136 0.63686 0.59208 0.0
C958 C 0.16793 0.61846 0.60664 0.0
H959 H 0.27246 0.68536 0.61165 0.0
H960 H 0.22396 0.62384 0.55505 0.0
S961 S 0.11398 0.65543 0.72938 0.0
N962 N 0.16422 0.68853 0.73397 0.0
N963 N 0.1118 0.62182 0.6729 0.0
C964 C 0.15314 0.63677 0.65509 0.0
C965 C 0.18166 0.67294 0.68834 0.0
loop_
_geom_bond_atom_site_label_1
_geom_bond_atom_site_label_2
_geom_bond_distance
_geom_bond_site_symmetry_2
_ccdc_geom_bond_type
Co0 N5 2.057 . S
Co0 O17 2.021 . S
Co0 O20 2.062 . S
Co0 O24 2.117 . S
Co0 O25 2.020 . S
C1 O21 1.259 . S
C1 O24 1.258 . S
Co2 N11 2.057 . S
Co2 O18 2.117 . S
Co2 O19 2.020 . S
Co2 O21 2.021 . S
Co2 O26 2.062 . S
C3 N5 1.316 . S
C3 N6 1.347 . S
C3 H8 0.931 . S
C4 N5 1.375 . S
C4 C7 1.350 . S
C4 H9 0.930 . S
N5 Co0 2.057 . S
N5 C3 1.316 . S
N5 C4 1.375 . S
N6 C3 1.347 . S
N6 C7 1.373 . S
C7 C4 1.350 . S
C7 N6 1.373 . S
C7 H28 0.931 . S
H8 C3 0.931 . S
H9 C4 0.930 . S
C10 O17 1.259 . S
C10 O18 1.258 . S
N11 Co2 2.057 . S
N11 C12 1.316 . S
N11 C13 1.375 . S
C12 N11 1.316 . S
C12 N14 1.347 . S
C12 H23 0.931 . S
C13 N11 1.375 . S
C13 C15 1.350 . S
C13 H22 0.930 . S
N14 C12 1.347 . S
N14 C15 1.373 . S
C15 C13 1.350 . S
C15 N14 1.373 . S
C15 H29 0.931 . S
C16 O19 1.256 . S
C16 O20 1.255 . S
O17 Co0 2.021 . S
O17 C10 1.259 . S
O18 Co2 2.117 . S
O18 C10 1.258 . S
O19 Co2 2.020 . S
O19 C16 1.256 . S
O20 Co0 2.062 . S
O20 C16 1.255 . S
O21 C1 1.259 . S
O21 Co2 2.021 . S
H22 C13 0.930 . S
H23 C12 0.931 . S
O24 Co0 2.117 . S
O24 C1 1.258 . S
O25 Co0 2.020 . S
O25 C27 1.256 . S
O26 Co2 2.062 . S
O26 C27 1.255 . S
C27 O25 1.256 . S
C27 O26 1.255 . S
H28 C7 0.931 . S
H29 C15 0.931 . S
Co30 N35 2.057 . S
Co30 O47 2.021 . S
Co30 O50 2.062 . S
Co30 O54 2.117 . S
Co30 O55 2.020 . S
C31 O51 1.259 . S
C31 O54 1.258 . S
Co32 N41 2.057 . S
Co32 O48 2.117 . S
Co32 O49 2.020 . S
Co32 O51 2.021 . S
Co32 O56 2.062 . S
C33 N35 1.316 . S
C33 N36 1.347 . S
C33 H38 0.931 . S
C34 N35 1.375 . S
C34 C37 1.350 . S
C34 H39 0.930 . S
N35 Co30 2.057 . S
N35 C33 1.316 . S
N35 C34 1.375 . S
N36 C33 1.347 . S
N36 C37 1.373 . S
C37 C34 1.350 . S
C37 N36 1.373 . S
C37 H58 0.931 . S
H38 C33 0.931 . S
H39 C34 0.930 . S
C40 O47 1.259 . S
C40 O48 1.258 . S
N41 Co32 2.057 . S
N41 C42 1.316 . S
N41 C43 1.375 . S
C42 N41 1.316 . S
C42 N44 1.347 . S
C42 H53 0.931 . S
C43 N41 1.375 . S
C43 C45 1.350 . S
C43 H52 0.930 . S
N44 C42 1.347 . S
N44 C45 1.373 . S
C45 C43 1.350 . S
C45 N44 1.373 . S
C45 H59 0.931 . S
C46 O49 1.256 . S
C46 O50 1.255 . S
O47 Co30 2.021 . S
O47 C40 1.259 . S
O48 Co32 2.117 . S
O48 C40 1.258 . S
O49 Co32 2.020 . S
O49 C46 1.256 . S
O50 Co30 2.062 . S
O50 C46 1.255 . S
O51 C31 1.259 . S
O51 Co32 2.021 . S
H52 C43 0.930 . S
H53 C42 0.931 . S
O54 Co30 2.117 . S
O54 C31 1.258 . S
O55 Co30 2.020 . S
O55 C57 1.256 . S
O56 Co32 2.062 . S
O56 C57 1.255 . S
C57 O55 1.256 . S
C57 O56 1.255 . S
H58 C37 0.931 . S
H59 C45 0.931 . S
Co60 N65 2.057 . S
Co60 O77 2.021 . S
Co60 O80 2.062 . S
Co60 O84 2.117 . S
Co60 O85 2.020 . S
C61 O81 1.259 . S
C61 O84 1.258 . S
Co62 N71 2.057 . S
Co62 O78 2.117 . S
Co62 O79 2.020 . S
Co62 O81 2.021 . S
Co62 O86 2.062 . S
C63 N65 1.316 . S
C63 N66 1.347 . S
C63 H68 0.931 . S
C64 N65 1.375 . S
C64 C67 1.350 . S
C64 H69 0.930 . S
N65 Co60 2.057 . S
N65 C63 1.316 . S
N65 C64 1.375 . S
N66 C63 1.347 . S
N66 C67 1.373 . S
C67 C64 1.350 . S
C67 N66 1.373 . S
C67 H88 0.931 . S
H68 C63 0.931 . S
H69 C64 0.930 . S
C70 O77 1.259 . S
C70 O78 1.258 . S
N71 Co62 2.057 . S
N71 C72 1.316 . S
N71 C73 1.375 . S
C72 N71 1.316 . S
C72 N74 1.347 . S
C72 H83 0.931 . S
C73 N71 1.375 . S
C73 C75 1.350 . S
C73 H82 0.930 . S
N74 C72 1.347 . S
N74 C75 1.373 . S
C75 C73 1.350 . S
C75 N74 1.373 . S
C75 H89 0.931 . S
C76 O79 1.256 . S
C76 O80 1.255 . S
O77 Co60 2.021 . S
O77 C70 1.259 . S
O78 Co62 2.117 . S
O78 C70 1.258 . S
O79 Co62 2.020 . S
O79 C76 1.256 . S
O80 Co60 2.062 . S
O80 C76 1.255 . S
O81 C61 1.259 . S
O81 Co62 2.021 . S
H82 C73 0.930 . S
H83 C72 0.931 . S
O84 Co60 2.117 . S
O84 C61 1.258 . S
O85 Co60 2.020 . S
O85 C87 1.256 . S
O86 Co62 2.062 . S
O86 C87 1.255 . S
C87 O85 1.256 . S
C87 O86 1.255 . S
H88 C67 0.931 . S
H89 C75 0.931 . S
Co90 N95 2.057 . S
Co90 O107 2.021 . S
Co90 O110 2.062 . S
Co90 O114 2.117 . S
Co90 O115 2.020 . S
C91 O111 1.259 . S
C91 O114 1.258 . S
Co92 N101 2.057 . S
Co92 O108 2.117 . S
Co92 O109 2.020 . S
Co92 O111 2.021 . S
Co92 O116 2.062 . S
C93 N95 1.316 . S
C93 N96 1.347 . S
C93 H98 0.931 . S
C94 N95 1.375 . S
C94 C97 1.350 . S
C94 H99 0.930 . S
N95 Co90 2.057 . S
N95 C93 1.316 . S
N95 C94 1.375 . S
N96 C93 1.347 . S
N96 C97 1.373 . S
C97 C94 1.350 . S
C97 N96 1.373 . S
C97 H118 0.931 . S
H98 C93 0.931 . S
H99 C94 0.930 . S
C100 O107 1.259 . S
C100 O108 1.258 . S
N101 Co92 2.057 . S
N101 C102 1.316 . S
N101 C103 1.375 . S
C102 N101 1.316 . S
C102 N104 1.347 . S
C102 H113 0.931 . S
C103 N101 1.375 . S
C103 C105 1.350 . S
C103 H112 0.930 . S
N104 C102 1.347 . S
N104 C105 1.373 . S
C105 C103 1.350 . S
C105 N104 1.373 . S
C105 H119 0.931 . S
C106 O109 1.256 . S
C106 O110 1.255 . S
O107 Co90 2.021 . S
O107 C100 1.259 . S
O108 Co92 2.117 . S
O108 C100 1.258 . S
O109 Co92 2.020 . S
O109 C106 1.256 . S
O110 Co90 2.062 . S
O110 C106 1.255 . S
O111 C91 1.259 . S
O111 Co92 2.021 . S
H112 C103 0.930 . S
H113 C102 0.931 . S
O114 Co90 2.117 . S
O114 C91 1.258 . S
O115 Co90 2.020 . S
O115 C117 1.256 . S
O116 Co92 2.062 . S
O116 C117 1.255 . S
C117 O115 1.256 . S
C117 O116 1.255 . S
H118 C97 0.931 . S
H119 C105 0.931 . S
Co120 N125 2.057 . S
Co120 O137 2.021 . S
Co120 O140 2.062 . S
Co120 O144 2.117 . S
Co120 O145 2.020 . S
C121 O141 1.259 . S
C121 O144 1.258 . S
Co122 N131 2.057 . S
Co122 O138 2.117 . S
Co122 O139 2.020 . S
Co122 O141 2.021 . S
Co122 O146 2.062 . S
C123 N125 1.316 . S
C123 N126 1.347 . S
C123 H128 0.931 . S
C124 N125 1.375 . S
C124 C127 1.350 . S
C124 H129 0.930 . S
N125 Co120 2.057 . S
N125 C123 1.316 . S
N125 C124 1.375 . S
N126 C123 1.347 . S
N126 C127 1.373 . S
C127 C124 1.350 . S
C127 N126 1.373 . S
C127 H148 0.931 . S
H128 C123 0.931 . S
H129 C124 0.930 . S
C130 O137 1.259 . S
C130 O138 1.258 . S
N131 Co122 2.057 . S
N131 C132 1.316 . S
N131 C133 1.375 . S
C132 N131 1.316 . S
C132 N134 1.347 . S
C132 H143 0.931 . S
C133 N131 1.375 . S
C133 C135 1.350 . S
C133 H142 0.930 . S
N134 C132 1.347 . S
N134 C135 1.373 . S
C135 C133 1.350 . S
C135 N134 1.373 . S
C135 H149 0.931 . S
C136 O139 1.256 . S
C136 O140 1.255 . S
O137 Co120 2.021 . S
O137 C130 1.259 . S
O138 Co122 2.117 . S
O138 C130 1.258 . S
O139 Co122 2.020 . S
O139 C136 1.256 . S
O140 Co120 2.062 . S
O140 C136 1.255 . S
O141 C121 1.259 . S
O141 Co122 2.021 . S
H142 C133 0.930 . S
H143 C132 0.931 . S
O144 Co120 2.117 . S
O144 C121 1.258 . S
O145 Co120 2.020 . S
O145 C147 1.256 . S
O146 Co122 2.062 . S
O146 C147 1.255 . S
C147 O145 1.256 . S
C147 O146 1.255 . S
H148 C127 0.931 . S
H149 C135 0.931 . S
Co150 N155 2.057 . S
Co150 O167 2.021 . S
Co150 O170 2.062 . S
Co150 O174 2.117 . S
Co150 O175 2.020 . S
C151 O171 1.259 . S
C151 O174 1.258 . S
Co152 N161 2.057 . S
Co152 O168 2.117 . S
Co152 O169 2.020 . S
Co152 O171 2.021 . S
Co152 O176 2.062 . S
C153 N155 1.316 . S
C153 N156 1.347 . S
C153 H158 0.931 . S
C154 N155 1.375 . S
C154 C157 1.350 . S
C154 H159 0.930 . S
N155 Co150 2.057 . S
N155 C153 1.316 . S
N155 C154 1.375 . S
N156 C153 1.347 . S
N156 C157 1.373 . S
C157 C154 1.350 . S
C157 N156 1.373 . S
C157 H178 0.931 . S
H158 C153 0.931 . S
H159 C154 0.930 . S
C160 O167 1.259 . S
C160 O168 1.258 . S
N161 Co152 2.057 . S
N161 C162 1.316 . S
N161 C163 1.375 . S
C162 N161 1.316 . S
C162 N164 1.347 . S
C162 H173 0.931 . S
C163 N161 1.375 . S
C163 C165 1.350 . S
C163 H172 0.930 . S
N164 C162 1.347 . S
N164 C165 1.373 . S
C165 C163 1.350 . S
C165 N164 1.373 . S
C165 H179 0.931 . S
C166 O169 1.256 . S
C166 O170 1.255 . S
O167 Co150 2.021 . S
O167 C160 1.259 . S
O168 Co152 2.117 . S
O168 C160 1.258 . S
O169 Co152 2.020 . S
O169 C166 1.256 . S
O170 Co150 2.062 . S
O170 C166 1.255 . S
O171 C151 1.259 . S
O171 Co152 2.021 . S
H172 C163 0.930 . S
H173 C162 0.931 . S
O174 Co150 2.117 . S
O174 C151 1.258 . S
O175 Co150 2.020 . S
O175 C177 1.256 . S
O176 Co152 2.062 . S
O176 C177 1.255 . S
C177 O175 1.256 . S
C177 O176 1.255 . S
H178 C157 0.931 . S
H179 C165 0.931 . S
Co180 N185 2.057 . S
Co180 O197 2.021 . S
Co180 O200 2.062 . S
Co180 O204 2.117 . S
Co180 O205 2.020 . S
C181 O201 1.259 . S
C181 O204 1.258 . S
Co182 N191 2.057 . S
Co182 O198 2.117 . S
Co182 O199 2.020 . S
Co182 O201 2.021 . S
Co182 O206 2.062 . S
C183 N185 1.316 . S
C183 N186 1.347 . S
C183 H188 0.931 . S
C184 N185 1.375 . S
C184 C187 1.350 . S
C184 H189 0.930 . S
N185 Co180 2.057 . S
N185 C183 1.316 . S
N185 C184 1.375 . S
N186 C183 1.347 . S
N186 C187 1.373 . S
C187 C184 1.350 . S
C187 N186 1.373 . S
C187 H208 0.931 . S
H188 C183 0.931 . S
H189 C184 0.930 . S
C190 O197 1.259 . S
C190 O198 1.258 . S
N191 Co182 2.057 . S
N191 C192 1.316 . S
N191 C193 1.375 . S
C192 N191 1.316 . S
C192 N194 1.347 . S
C192 H203 0.931 . S
C193 N191 1.375 . S
C193 C195 1.350 . S
C193 H202 0.930 . S
N194 C192 1.347 . S
N194 C195 1.373 . S
C195 C193 1.350 . S
C195 N194 1.373 . S
C195 H209 0.931 . S
C196 O199 1.256 . S
C196 O200 1.255 . S
O197 Co180 2.021 . S
O197 C190 1.259 . S
O198 Co182 2.117 . S
O198 C190 1.258 . S
O199 Co182 2.020 . S
O199 C196 1.256 . S
O200 Co180 2.062 . S
O200 C196 1.255 . S
O201 C181 1.259 . S
O201 Co182 2.021 . S
H202 C193 0.930 . S
H203 C192 0.931 . S
O204 Co180 2.117 . S
O204 C181 1.258 . S
O205 Co180 2.020 . S
O205 C207 1.256 . S
O206 Co182 2.062 . S
O206 C207 1.255 . S
C207 O205 1.256 . S
C207 O206 1.255 . S
H208 C187 0.931 . S
H209 C195 0.931 . S
Co210 N215 2.057 . S
Co210 O227 2.021 . S
Co210 O230 2.062 . S
Co210 O234 2.117 . S
Co210 O235 2.020 . S
C211 O231 1.259 . S
C211 O234 1.258 . S
Co212 N221 2.057 . S
Co212 O228 2.117 . S
Co212 O229 2.020 . S
Co212 O231 2.021 . S
Co212 O236 2.062 . S
C213 N215 1.316 . S
C213 N216 1.347 . S
C213 H218 0.931 . S
C214 N215 1.375 . S
C214 C217 1.350 . S
C214 H219 0.930 . S
N215 Co210 2.057 . S
N215 C213 1.316 . S
N215 C214 1.375 . S
N216 C213 1.347 . S
N216 C217 1.373 . S
C217 C214 1.350 . S
C217 N216 1.373 . S
C217 H238 0.931 . S
H218 C213 0.931 . S
H219 C214 0.930 . S
C220 O227 1.259 . S
C220 O228 1.258 . S
N221 Co212 2.057 . S
N221 C222 1.316 . S
N221 C223 1.375 . S
C222 N221 1.316 . S
C222 N224 1.347 . S
C222 H233 0.931 . S
C223 N221 1.375 . S
C223 C225 1.350 . S
C223 H232 0.930 . S
N224 C222 1.347 . S
N224 C225 1.373 . S
C225 C223 1.350 . S
C225 N224 1.373 . S
C225 H239 0.931 . S
C226 O229 1.256 . S
C226 O230 1.255 . S
O227 Co210 2.021 . S
O227 C220 1.259 . S
O228 Co212 2.117 . S
O228 C220 1.258 . S
O229 Co212 2.020 . S
O229 C226 1.256 . S
O230 Co210 2.062 . S
O230 C226 1.255 . S
O231 C211 1.259 . S
O231 Co212 2.021 . S
H232 C223 0.930 . S
H233 C222 0.931 . S
O234 Co210 2.117 . S
O234 C211 1.258 . S
O235 Co210 2.020 . S
O235 C237 1.256 . S
O236 Co212 2.062 . S
O236 C237 1.255 . S
C237 O235 1.256 . S
C237 O236 1.255 . S
H238 C217 0.931 . S
H239 C225 0.931 . S
Co240 O243 2.042 . S
Co240 O250 2.264 . S
Co240 O269 2.286 . S
Co240 O270 2.069 . S
Co240 O272 2.015 1_455 S
Co241 O243 2.122 . S
Co241 O249 2.073 . S
Co241 O250 2.327 . S
Co241 O251 1.976 1_455 S
Co242 O243 2.088 1_545 S
Co242 O245 2.086 1_455 S
Co242 O252 2.110 1_445 S
Co242 O253 2.144 . S
Co242 O257 2.112 . S
Co242 O271 2.143 1_445 S
O243 Co240 2.042 . S
O243 Co241 2.122 . S
O243 Co242 2.088 1_565 S
O243 H244 0.980 . S
H244 O243 0.980 . S
O245 Co242 2.086 1_655 S
O245 Co246 2.042 . S
O245 Co247 2.122 . S
O245 H248 0.980 . S
Co246 O245 2.042 . S
Co246 O254 2.286 . S
Co246 O255 2.069 . S
Co246 O256 2.015 1_655 S
Co246 O259 2.264 . S
Co247 O245 2.122 . S
Co247 O258 1.976 1_655 S
Co247 O259 2.327 . S
Co247 O260 2.073 . S
H248 O245 0.980 . S
O249 Co241 2.073 . S
O249 C264 1.245 . S
O250 Co240 2.264 . S
O250 Co241 2.327 . S
O250 C264 1.257 . S
O251 Co241 1.976 1_655 S
O251 C263 1.251 . S
O252 Co242 2.110 1_665 S
O252 C263 1.274 . S
O253 Co242 2.144 . S
O253 C266 1.246 . S
O254 Co246 2.286 . S
O254 C265 1.259 . S
O255 Co246 2.069 . S
O255 C265 1.289 . S
O256 Co246 2.015 1_455 S
O256 C266 1.257 . S
O257 Co242 2.112 . S
O257 C267 1.274 . S
O258 Co247 1.976 1_455 S
O258 C267 1.251 . S
O259 Co246 2.264 . S
O259 Co247 2.327 . S
O259 C268 1.257 . S
O260 Co247 2.073 . S
O260 C268 1.245 . S
C261 O269 1.259 . S
C261 O270 1.289 . S
C262 O271 1.246 . S
C262 O272 1.257 . S
C263 O251 1.251 . S
C263 O252 1.274 . S
C264 O249 1.245 . S
C264 O250 1.257 . S
C265 O254 1.259 . S
C265 O255 1.289 . S
C266 O253 1.246 . S
C266 O256 1.257 . S
C267 O257 1.274 . S
C267 O258 1.251 . S
C268 O259 1.257 . S
C268 O260 1.245 . S
O269 Co240 2.286 . S
O269 C261 1.259 . S
O270 Co240 2.069 . S
O270 C261 1.289 . S
O271 Co242 2.143 1_665 S
O271 C262 1.246 . S
O272 Co240 2.015 1_655 S
O272 C262 1.257 . S
Co273 O276 2.042 1_556 S
Co273 O283 2.264 1_556 S
Co273 O302 2.286 . S
Co273 O303 2.069 . S
Co273 O305 2.015 . S
Co274 O276 2.122 . S
Co274 O282 2.073 . S
Co274 O283 2.327 . S
Co274 O284 1.976 . S
Co275 O276 2.086 1_545 S
Co275 O278 2.087 1_554 S
Co275 O285 2.111 1_545 S
Co275 O286 2.144 . S
Co275 O290 2.111 1_554 S
Co275 O304 2.143 1_544 S
O276 Co273 2.042 1_554 S
O276 Co274 2.122 . S
O276 Co275 2.086 1_565 S
O276 H277 0.980 . S
H277 O276 0.980 . S
O278 Co275 2.087 1_556 S
O278 Co279 2.042 1_556 S
O278 Co280 2.122 . S
O278 H281 0.980 . S
Co279 O278 2.042 1_554 S
Co279 O287 2.286 . S
Co279 O288 2.069 . S
Co279 O289 2.015 . S
Co279 O292 2.264 1_554 S
Co280 O278 2.122 . S
Co280 O291 1.976 . S
Co280 O292 2.327 . S
Co280 O293 2.073 . S
H281 O278 0.980 . S
O282 Co274 2.073 . S
O282 C297 1.245 . S
O283 Co273 2.264 1_554 S
O283 Co274 2.327 . S
O283 C297 1.257 . S
O284 Co274 1.976 . S
O284 C296 1.251 . S
O285 Co275 2.111 1_565 S
O285 C296 1.274 . S
O286 Co275 2.144 . S
O286 C299 1.246 . S
O287 Co279 2.286 . S
O287 C298 1.259 . S
O288 Co279 2.069 . S
O288 C298 1.289 . S
O289 Co279 2.015 . S
O289 C299 1.257 . S
O290 Co275 2.111 1_556 S
O290 C300 1.274 . S
O291 Co280 1.976 . S
O291 C300 1.251 . S
O292 Co279 2.264 1_556 S
O292 Co280 2.327 . S
O292 C301 1.257 . S
O293 Co280 2.073 . S
O293 C301 1.245 . S
C294 O302 1.259 . S
C294 O303 1.289 . S
C295 O304 1.246 . S
C295 O305 1.257 . S
C296 O284 1.251 . S
C296 O285 1.274 . S
C297 O282 1.245 . S
C297 O283 1.257 . S
C298 O287 1.259 . S
C298 O288 1.289 . S
C299 O286 1.246 . S
C299 O289 1.257 . S
C300 O290 1.274 . S
C300 O291 1.251 . S
C301 O292 1.257 . S
C301 O293 1.245 . S
O302 Co273 2.286 . S
O302 C294 1.259 . S
O303 Co273 2.069 . S
O303 C294 1.289 . S
O304 Co275 2.143 1_566 S
O304 C295 1.246 . S
O305 Co273 2.015 . S
O305 C295 1.257 . S
Co306 O309 2.042 1_556 S
Co306 O316 2.264 1_556 S
Co306 O335 2.286 . S
Co306 O336 2.069 . S
Co306 O338 2.015 1_455 S
Co307 O309 2.122 . S
Co307 O315 2.073 . S
Co307 O316 2.327 . S
Co307 O317 1.976 1_455 S
Co308 O309 2.088 . S
Co308 O311 2.086 1_454 S
Co308 O318 2.110 1_455 S
Co308 O319 2.144 . S
Co308 O323 2.112 1_554 S
Co308 O337 2.143 1_454 S
O309 Co306 2.042 1_554 S
O309 Co307 2.122 . S
O309 Co308 2.088 . S
O309 H310 0.980 . S
H310 O309 0.980 . S
O311 Co308 2.086 1_656 S
O311 Co312 2.042 1_556 S
O311 Co313 2.122 . S
O311 H314 0.980 . S
Co312 O311 2.042 1_554 S
Co312 O320 2.286 . S
Co312 O321 2.069 . S
Co312 O322 2.015 1_655 S
Co312 O325 2.264 1_554 S
Co313 O311 2.122 . S
Co313 O324 1.976 1_655 S
Co313 O325 2.327 . S
Co313 O326 2.073 . S
H314 O311 0.980 . S
O315 Co307 2.073 . S
O315 C330 1.245 . S
O316 Co306 2.264 1_554 S
O316 Co307 2.327 . S
O316 C330 1.257 . S
O317 Co307 1.976 1_655 S
O317 C329 1.251 . S
O318 Co308 2.110 1_655 S
O318 C329 1.274 . S
O319 Co308 2.144 . S
O319 C332 1.246 . S
O320 Co312 2.286 . S
O320 C331 1.259 . S
O321 Co312 2.069 . S
O321 C331 1.289 . S
O322 Co312 2.015 1_455 S
O322 C332 1.257 . S
O323 Co308 2.112 1_556 S
O323 C333 1.274 . S
O324 Co313 1.976 1_455 S
O324 C333 1.251 . S
O325 Co312 2.264 1_556 S
O325 Co313 2.327 . S
O325 C334 1.257 . S
O326 Co313 2.073 . S
O326 C334 1.245 . S
C327 O335 1.259 . S
C327 O336 1.289 . S
C328 O337 1.246 . S
C328 O338 1.257 . S
C329 O317 1.251 . S
C329 O318 1.274 . S
C330 O315 1.245 . S
C330 O316 1.257 . S
C331 O320 1.259 . S
C331 O321 1.289 . S
C332 O319 1.246 . S
C332 O322 1.257 . S
C333 O323 1.274 . S
C333 O324 1.251 . S
C334 O325 1.257 . S
C334 O326 1.245 . S
O335 Co306 2.286 . S
O335 C327 1.259 . S
O336 Co306 2.069 . S
O336 C327 1.289 . S
O337 Co308 2.143 1_656 S
O337 C328 1.246 . S
O338 Co306 2.015 1_655 S
O338 C328 1.257 . S
Co339 O342 2.042 1_556 S
Co339 O349 2.264 1_556 S
Co339 O368 2.286 . S
Co339 O369 2.069 . S
Co339 O371 2.015 . S
Co340 O342 2.122 . S
Co340 O348 2.073 . S
Co340 O349 2.327 . S
Co340 O350 1.976 . S
Co341 O342 2.087 . S
Co341 O344 2.087 1_554 S
Co341 O351 2.111 . S
Co341 O352 2.143 . S
Co341 O356 2.111 1_554 S
Co341 O370 2.143 1_554 S
O342 Co339 2.042 1_554 S
O342 Co340 2.122 . S
O342 Co341 2.087 . S
O342 H343 0.980 . S
H343 O342 0.980 . S
O344 Co341 2.087 1_556 S
O344 Co345 2.042 1_556 S
O344 Co346 2.122 . S
O344 H347 0.980 . S
Co345 O344 2.042 1_554 S
Co345 O353 2.286 . S
Co345 O354 2.069 . S
Co345 O355 2.015 . S
Co345 O358 2.264 1_554 S
Co346 O344 2.122 . S
Co346 O357 1.976 . S
Co346 O358 2.327 . S
Co346 O359 2.073 . S
H347 O344 0.980 . S
O348 Co340 2.073 . S
O348 C363 1.245 . S
O349 Co339 2.264 1_554 S
O349 Co340 2.327 . S
O349 C363 1.257 . S
O350 Co340 1.976 . S
O350 C362 1.251 . S
O351 Co341 2.111 . S
O351 C362 1.274 . S
O352 Co341 2.143 . S
O352 C365 1.246 . S
O353 Co345 2.286 . S
O353 C364 1.259 . S
O354 Co345 2.069 . S
O354 C364 1.289 . S
O355 Co345 2.015 . S
O355 C365 1.257 . S
O356 Co341 2.111 1_556 S
O356 C366 1.274 . S
O357 Co346 1.976 . S
O357 C366 1.251 . S
O358 Co345 2.264 1_556 S
O358 Co346 2.327 . S
O358 C367 1.257 . S
O359 Co346 2.073 . S
O359 C367 1.245 . S
C360 O368 1.259 . S
C360 O369 1.289 . S
C361 O370 1.246 . S
C361 O371 1.257 . S
C362 O350 1.251 . S
C362 O351 1.274 . S
C363 O348 1.245 . S
C363 O349 1.257 . S
C364 O353 1.259 . S
C364 O354 1.289 . S
C365 O352 1.246 . S
C365 O355 1.257 . S
C366 O356 1.274 . S
C366 O357 1.251 . S
C367 O358 1.257 . S
C367 O359 1.245 . S
O368 Co339 2.286 . S
O368 C360 1.259 . S
O369 Co339 2.069 . S
O369 C360 1.289 . S
O370 Co341 2.143 1_556 S
O370 C361 1.246 . S
O371 Co339 2.015 . S
O371 C361 1.257 . S
Co372 O375 2.042 . S
Co372 O382 2.264 . S
Co372 O401 2.286 . S
Co372 O402 2.069 . S
Co372 O404 2.015 . S
Co373 O375 2.122 . S
Co373 O381 2.073 . S
Co373 O382 2.327 . S
Co373 O383 1.976 . S
Co374 O375 2.088 . S
Co374 O377 2.086 1_455 S
Co374 O384 2.112 . S
Co374 O385 2.143 1_455 S
Co374 O389 2.111 1_455 S
Co374 O403 2.144 . S
O375 Co372 2.042 . S
O375 Co373 2.122 . S
O375 Co374 2.088 . S
O375 H376 0.980 . S
H376 O375 0.980 . S
O377 Co374 2.086 1_655 S
O377 Co378 2.042 . S
O377 Co379 2.122 . S
O377 H380 0.980 . S
Co378 O377 2.042 . S
Co378 O386 2.286 . S
Co378 O387 2.069 . S
Co378 O388 2.015 . S
Co378 O391 2.264 . S
Co379 O377 2.122 . S
Co379 O390 1.976 . S
Co379 O391 2.327 . S
Co379 O392 2.073 . S
H380 O377 0.980 . S
O381 Co373 2.073 . S
O381 C396 1.245 . S
O382 Co372 2.264 . S
O382 Co373 2.327 . S
O382 C396 1.257 . S
O383 Co373 1.976 . S
O383 C395 1.251 . S
O384 Co374 2.112 . S
O384 C395 1.274 . S
O385 Co374 2.143 1_655 S
O385 C398 1.246 . S
O386 Co378 2.286 . S
O386 C397 1.259 . S
O387 Co378 2.069 . S
O387 C397 1.289 . S
O388 Co378 2.015 . S
O388 C398 1.257 . S
O389 Co374 2.111 1_655 S
O389 C399 1.274 . S
O390 Co379 1.976 . S
O390 C399 1.251 . S
O391 Co378 2.264 . S
O391 Co379 2.327 . S
O391 C400 1.257 . S
O392 Co379 2.073 . S
O392 C400 1.245 . S
C393 O401 1.259 . S
C393 O402 1.289 . S
C394 O403 1.246 . S
C394 O404 1.257 . S
C395 O383 1.251 . S
C395 O384 1.274 . S
C396 O381 1.245 . S
C396 O382 1.257 . S
C397 O386 1.259 . S
C397 O387 1.289 . S
C398 O385 1.246 . S
C398 O388 1.257 . S
C399 O389 1.274 . S
C399 O390 1.251 . S
C400 O391 1.257 . S
C400 O392 1.245 . S
O401 Co372 2.286 . S
O401 C393 1.259 . S
O402 Co372 2.069 . S
O402 C393 1.289 . S
O403 Co374 2.144 . S
O403 C394 1.246 . S
O404 Co372 2.015 . S
O404 C394 1.257 . S
Co405 O408 2.042 . S
Co405 O415 2.264 . S
Co405 O434 2.286 . S
Co405 O435 2.069 . S
Co405 O437 2.015 1_565 S
Co406 O408 2.122 . S
Co406 O414 2.073 . S
Co406 O415 2.327 . S
Co406 O416 1.976 1_565 S
Co407 O408 2.086 1_545 S
Co407 O410 2.087 . S
Co407 O417 2.112 . S
Co407 O418 2.143 1_545 S
Co407 O422 2.111 1_545 S
Co407 O436 2.144 . S
O408 Co405 2.042 . S
O408 Co406 2.122 . S
O408 Co407 2.086 1_565 S
O408 H409 0.980 . S
H409 O408 0.980 . S
O410 Co407 2.087 . S
O410 Co411 2.042 . S
O410 Co412 2.122 . S
O410 H413 0.980 . S
Co411 O410 2.042 . S
Co411 O419 2.286 . S
Co411 O420 2.069 . S
Co411 O421 2.015 1_545 S
Co411 O424 2.264 . S
Co412 O410 2.122 . S
Co412 O423 1.976 1_545 S
Co412 O424 2.327 . S
Co412 O425 2.073 . S
H413 O410 0.980 . S
O414 Co406 2.073 . S
O414 C429 1.245 . S
O415 Co405 2.264 . S
O415 Co406 2.327 . S
O415 C429 1.257 . S
O416 Co406 1.976 1_545 S
O416 C428 1.251 . S
O417 Co407 2.112 . S
O417 C428 1.274 . S
O418 Co407 2.143 1_565 S
O418 C431 1.246 . S
O419 Co411 2.286 . S
O419 C430 1.259 . S
O420 Co411 2.069 . S
O420 C430 1.289 . S
O421 Co411 2.015 1_565 S
O421 C431 1.257 . S
O422 Co407 2.111 1_565 S
O422 C432 1.274 . S
O423 Co412 1.976 1_565 S
O423 C432 1.251 . S
O424 Co411 2.264 . S
O424 Co412 2.327 . S
O424 C433 1.257 . S
O425 Co412 2.073 . S
O425 C433 1.245 . S
C426 O434 1.259 . S
C426 O435 1.289 . S
C427 O436 1.246 . S
C427 O437 1.257 . S
C428 O416 1.251 . S
C428 O417 1.274 . S
C429 O414 1.245 . S
C429 O415 1.257 . S
C430 O419 1.259 . S
C430 O420 1.289 . S
C431 O418 1.246 . S
C431 O421 1.257 . S
C432 O422 1.274 . S
C432 O423 1.251 . S
C433 O424 1.257 . S
C433 O425 1.245 . S
O434 Co405 2.286 . S
O434 C426 1.259 . S
O435 Co405 2.069 . S
O435 C426 1.289 . S
O436 Co407 2.144 . S
O436 C427 1.246 . S
O437 Co405 2.015 1_545 S
O437 C427 1.257 . S
C438 C439 1.369 . S
C438 C440 1.419 . S
C438 H442 0.930 . S
C439 C438 1.369 . S
C439 C448 1.429 . S
C440 C438 1.419 . S
C440 C441 1.363 . S
C440 H443 0.929 . S
C441 C440 1.363 . S
C441 C447 1.428 . S
H442 C438 0.930 . S
H443 C440 0.929 . S
S444 N445 1.613 . S
S444 N446 1.610 . S
N445 S444 1.613 . S
N445 C448 1.350 . S
N446 S444 1.610 . S
N446 C447 1.351 . S
C447 C441 1.428 . S
C447 N446 1.351 . S
C447 C448 1.434 . S
C448 C439 1.429 . S
C448 N445 1.350 . S
C448 C447 1.434 . S
C449 C450 1.369 . S
C449 C451 1.419 . S
C449 H453 0.930 . S
C450 C449 1.369 . S
C450 C459 1.429 . S
C451 C449 1.419 . S
C451 C452 1.363 . S
C451 H454 0.929 . S
C452 C451 1.363 . S
C452 C458 1.428 . S
H453 C449 0.930 . S
H454 C451 0.929 . S
S455 N456 1.613 . S
S455 N457 1.610 . S
N456 S455 1.613 . S
N456 C459 1.350 . S
N457 S455 1.610 . S
N457 C458 1.351 . S
C458 C452 1.428 . S
C458 N457 1.351 . S
C458 C459 1.434 . S
C459 C450 1.429 . S
C459 N456 1.350 . S
C459 C458 1.434 . S
C460 C461 1.369 . S
C460 C462 1.419 . S
C460 H464 0.930 . S
C461 C460 1.369 . S
C461 C470 1.429 . S
C462 C460 1.419 . S
C462 C463 1.363 . S
C462 H465 0.929 . S
C463 C462 1.363 . S
C463 C469 1.428 . S
H464 C460 0.930 . S
H465 C462 0.929 . S
S466 N467 1.613 . S
S466 N468 1.610 . S
N467 S466 1.613 . S
N467 C470 1.350 . S
N468 S466 1.610 . S
N468 C469 1.351 . S
C469 C463 1.428 . S
C469 N468 1.351 . S
C469 C470 1.434 . S
C470 C461 1.429 . S
C470 N467 1.350 . S
C470 C469 1.434 . S
C471 C472 1.369 . S
C471 C473 1.419 . S
C471 H475 0.930 . S
C472 C471 1.369 . S
C472 C481 1.429 . S
C473 C471 1.419 . S
C473 C474 1.363 . S
C473 H476 0.929 . S
C474 C473 1.363 . S
C474 C480 1.428 . S
H475 C471 0.930 . S
H476 C473 0.929 . S
S477 N478 1.613 . S
S477 N479 1.610 . S
N478 S477 1.613 . S
N478 C481 1.350 . S
N479 S477 1.610 . S
N479 C480 1.351 . S
C480 C474 1.428 . S
C480 N479 1.351 . S
C480 C481 1.434 . S
C481 C472 1.429 . S
C481 N478 1.350 . S
C481 C480 1.434 . S
C482 C483 1.369 . S
C482 C484 1.419 . S
C482 H486 0.930 . S
C483 C482 1.369 . S
C483 C492 1.429 . S
C484 C482 1.419 . S
C484 C485 1.363 . S
C484 H487 0.929 . S
C485 C484 1.363 . S
C485 C491 1.428 . S
H486 C482 0.930 . S
H487 C484 0.929 . S
S488 N489 1.613 . S
S488 N490 1.610 . S
N489 S488 1.613 . S
N489 C492 1.350 . S
N490 S488 1.610 . S
N490 C491 1.351 . S
C491 C485 1.428 . S
C491 N490 1.351 . S
C491 C492 1.434 . S
C492 C483 1.429 . S
C492 N489 1.350 . S
C492 C491 1.434 . S
C493 C494 1.369 . S
C493 C495 1.419 . S
C493 H497 0.930 . S
C494 C493 1.369 . S
C494 C503 1.429 . S
C495 C493 1.419 . S
C495 C496 1.363 . S
C495 H498 0.929 . S
C496 C495 1.363 . S
C496 C502 1.428 . S
H497 C493 0.930 . S
H498 C495 0.929 . S
S499 N500 1.613 . S
S499 N501 1.610 . S
N500 S499 1.613 . S
N500 C503 1.350 . S
N501 S499 1.610 . S
N501 C502 1.351 . S
C502 C496 1.428 . S
C502 N501 1.351 . S
C502 C503 1.434 . S
C503 C494 1.429 . S
C503 N500 1.350 . S
C503 C502 1.434 . S
C504 C505 1.369 . S
C504 C506 1.419 . S
C504 H508 0.930 . S
C505 C504 1.369 . S
C505 C514 1.429 . S
C506 C504 1.419 . S
C506 C507 1.363 . S
C506 H509 0.929 . S
C507 C506 1.363 . S
C507 C513 1.428 . S
H508 C504 0.930 . S
H509 C506 0.929 . S
S510 N511 1.613 . S
S510 N512 1.610 . S
N511 S510 1.613 . S
N511 C514 1.350 . S
N512 S510 1.610 . S
N512 C513 1.351 . S
C513 C507 1.428 . S
C513 N512 1.351 . S
C513 C514 1.434 . S
C514 C505 1.429 . S
C514 N511 1.350 . S
C514 C513 1.434 . S
C515 C516 1.369 . S
C515 C517 1.419 . S
C515 H519 0.930 . S
C516 C515 1.369 . S
C516 C525 1.429 . S
C517 C515 1.419 . S
C517 C518 1.363 . S
C517 H520 0.929 . S
C518 C517 1.363 . S
C518 C524 1.428 . S
H519 C515 0.930 . S
H520 C517 0.929 . S
S521 N522 1.613 . S
S521 N523 1.610 . S
N522 S521 1.613 . S
N522 C525 1.350 . S
N523 S521 1.610 . S
N523 C524 1.351 . S
C524 C518 1.428 . S
C524 N523 1.351 . S
C524 C525 1.434 . S
C525 C516 1.429 . S
C525 N522 1.350 . S
C525 C524 1.434 . S
C526 C527 1.369 . S
C526 C528 1.419 . S
C526 H530 0.930 . S
C527 C526 1.369 . S
C527 C536 1.429 . S
C528 C526 1.419 . S
C528 C529 1.363 . S
C528 H531 0.929 . S
C529 C528 1.363 . S
C529 C535 1.428 . S
H530 C526 0.930 . S
H531 C528 0.929 . S
S532 N533 1.613 1_556 S
S532 N534 1.610 1_556 S
N533 S532 1.613 1_554 S
N533 C536 1.350 . S
N534 S532 1.610 1_554 S
N534 C535 1.351 . S
C535 C529 1.428 . S
C535 N534 1.351 . S
C535 C536 1.434 . S
C536 C527 1.429 . S
C536 N533 1.350 . S
C536 C535 1.434 . S
C537 C538 1.369 . S
C537 C539 1.419 . S
C537 H541 0.930 . S
C538 C537 1.369 . S
C538 C547 1.429 . S
C539 C537 1.419 . S
C539 C540 1.363 . S
C539 H542 0.929 . S
C540 C539 1.363 . S
C540 C546 1.428 . S
H541 C537 0.930 . S
H542 C539 0.929 . S
S543 N544 1.613 . S
S543 N545 1.610 . S
N544 S543 1.613 . S
N544 C547 1.350 . S
N545 S543 1.610 . S
N545 C546 1.351 . S
C546 C540 1.428 . S
C546 N545 1.351 . S
C546 C547 1.434 . S
C547 C538 1.429 . S
C547 N544 1.350 . S
C547 C546 1.434 . S
C548 C549 1.369 . S
C548 C550 1.419 . S
C548 H552 0.930 . S
C549 C548 1.369 . S
C549 C558 1.429 . S
C550 C548 1.419 . S
C550 C551 1.363 . S
C550 H553 0.929 . S
C551 C550 1.363 . S
C551 C557 1.428 . S
H552 C548 0.930 . S
H553 C550 0.929 . S
S554 N555 1.613 . S
S554 N556 1.610 . S
N555 S554 1.613 . S
N555 C558 1.350 . S
N556 S554 1.610 . S
N556 C557 1.351 . S
C557 C551 1.428 . S
C557 N556 1.351 . S
C557 C558 1.434 . S
C558 C549 1.429 . S
C558 N555 1.350 . S
C558 C557 1.434 . S
C559 C560 1.369 . S
C559 C561 1.419 . S
C559 H563 0.930 . S
C560 C559 1.369 . S
C560 C569 1.429 . S
C561 C559 1.419 . S
C561 C562 1.363 . S
C561 H564 0.929 . S
C562 C561 1.363 . S
C562 C568 1.428 . S
H563 C559 0.930 . S
H564 C561 0.929 . S
S565 N566 1.613 . S
S565 N567 1.610 . S
N566 S565 1.613 . S
N566 C569 1.350 . S
N567 S565 1.610 . S
N567 C568 1.351 . S
C568 C562 1.428 . S
C568 N567 1.351 . S
C568 C569 1.434 . S
C569 C560 1.429 . S
C569 N566 1.350 . S
C569 C568 1.434 . S
C570 C571 1.369 . S
C570 C572 1.419 . S
C570 H574 0.930 . S
C571 C570 1.369 . S
C571 C580 1.429 . S
C572 C570 1.419 . S
C572 C573 1.363 . S
C572 H575 0.929 . S
C573 C572 1.363 . S
C573 C579 1.428 . S
H574 C570 0.930 . S
H575 C572 0.929 . S
S576 N577 1.613 1_554 S
S576 N578 1.610 1_554 S
N577 S576 1.613 1_556 S
N577 C580 1.350 . S
N578 S576 1.610 1_556 S
N578 C579 1.351 . S
C579 C573 1.428 . S
C579 N578 1.351 . S
C579 C580 1.434 . S
C580 C571 1.429 . S
C580 N577 1.350 . S
C580 C579 1.434 . S
C581 C582 1.369 . S
C581 C583 1.419 . S
C581 H585 0.930 . S
C582 C581 1.369 . S
C582 C591 1.429 . S
C583 C581 1.419 . S
C583 C584 1.363 . S
C583 H586 0.929 . S
C584 C583 1.363 . S
C584 C590 1.428 . S
H585 C581 0.930 . S
H586 C583 0.929 . S
S587 N588 1.613 . S
S587 N589 1.610 . S
N588 S587 1.613 . S
N588 C591 1.350 . S
N589 S587 1.610 . S
N589 C590 1.351 . S
C590 C584 1.428 . S
C590 N589 1.351 . S
C590 C591 1.434 . S
C591 C582 1.429 . S
C591 N588 1.350 . S
C591 C590 1.434 . S
C592 C593 1.369 . S
C592 C594 1.419 . S
C592 H596 0.930 . S
C593 C592 1.369 . S
C593 C602 1.429 . S
C594 C592 1.419 . S
C594 C595 1.363 . S
C594 H597 0.929 . S
C595 C594 1.363 . S
C595 C601 1.428 . S
H596 C592 0.930 . S
H597 C594 0.929 . S
S598 N599 1.613 . S
S598 N600 1.610 . S
N599 S598 1.613 . S
N599 C602 1.350 . S
N600 S598 1.610 . S
N600 C601 1.351 . S
C601 C595 1.428 . S
C601 N600 1.351 . S
C601 C602 1.434 . S
C602 C593 1.429 . S
C602 N599 1.350 . S
C602 C601 1.434 . S
C603 C604 1.369 . S
C603 C605 1.419 . S
C603 H607 0.930 . S
C604 C603 1.369 . S
C604 C613 1.429 . S
C605 C603 1.419 . S
C605 C606 1.363 . S
C605 H608 0.929 . S
C606 C605 1.363 . S
C606 C612 1.428 . S
H607 C603 0.930 . S
H608 C605 0.929 . S
S609 N610 1.613 . S
S609 N611 1.610 . S
N610 S609 1.613 . S
N610 C613 1.350 . S
N611 S609 1.610 . S
N611 C612 1.351 . S
C612 C606 1.428 . S
C612 N611 1.351 . S
C612 C613 1.434 . S
C613 C604 1.429 . S
C613 N610 1.350 . S
C613 C612 1.434 . S
C614 C615 1.369 . S
C614 C616 1.419 . S
C614 H618 0.930 . S
C615 C614 1.369 . S
C615 C624 1.429 . S
C616 C614 1.419 . S
C616 C617 1.363 . S
C616 H619 0.929 . S
C617 C616 1.363 . S
C617 C623 1.428 . S
H618 C614 0.930 . S
H619 C616 0.929 . S
S620 N621 1.613 . S
S620 N622 1.610 . S
N621 S620 1.613 . S
N621 C624 1.350 . S
N622 S620 1.610 . S
N622 C623 1.351 . S
C623 C617 1.428 . S
C623 N622 1.351 . S
C623 C624 1.434 . S
C624 C615 1.429 . S
C624 N621 1.350 . S
C624 C623 1.434 . S
C625 C626 1.369 . S
C625 C627 1.419 . S
C625 H629 0.930 . S
C626 C625 1.369 . S
C626 C635 1.429 . S
C627 C625 1.419 . S
C627 C628 1.363 . S
C627 H630 0.929 . S
C628 C627 1.363 . S
C628 C634 1.428 . S
H629 C625 0.930 . S
H630 C627 0.929 . S
S631 N632 1.613 . S
S631 N633 1.610 . S
N632 S631 1.613 . S
N632 C635 1.350 1_554 S
N633 S631 1.610 . S
N633 C634 1.351 1_554 S
C634 C628 1.428 . S
C634 N633 1.351 1_556 S
C634 C635 1.434 . S
C635 C626 1.429 . S
C635 N632 1.350 1_556 S
C635 C634 1.434 . S
C636 C637 1.369 . S
C636 C638 1.419 . S
C636 H640 0.930 . S
C637 C636 1.369 . S
C637 C646 1.429 . S
C638 C636 1.419 . S
C638 C639 1.363 . S
C638 H641 0.929 . S
C639 C638 1.363 . S
C639 C645 1.428 . S
H640 C636 0.930 . S
H641 C638 0.929 . S
S642 N643 1.613 . S
S642 N644 1.610 . S
N643 S642 1.613 . S
N643 C646 1.350 . S
N644 S642 1.610 . S
N644 C645 1.351 . S
C645 C639 1.428 . S
C645 N644 1.351 . S
C645 C646 1.434 . S
C646 C637 1.429 . S
C646 N643 1.350 . S
C646 C645 1.434 . S
C647 C648 1.369 . S
C647 C649 1.419 . S
C647 H651 0.930 . S
C648 C647 1.369 . S
C648 C657 1.429 . S
C649 C647 1.419 . S
C649 C650 1.363 . S
C649 H652 0.929 . S
C650 C649 1.363 . S
C650 C656 1.428 . S
H651 C647 0.930 . S
H652 C649 0.929 . S
S653 N654 1.613 . S
S653 N655 1.610 . S
N654 S653 1.613 . S
N654 C657 1.350 . S
N655 S653 1.610 . S
N655 C656 1.351 . S
C656 C650 1.428 . S
C656 N655 1.351 . S
C656 C657 1.434 . S
C657 C648 1.429 . S
C657 N654 1.350 . S
C657 C656 1.434 . S
C658 C659 1.369 . S
C658 C660 1.419 . S
C658 H662 0.930 . S
C659 C658 1.369 . S
C659 C668 1.429 . S
C660 C658 1.419 . S
C660 C661 1.363 . S
C660 H663 0.929 . S
C661 C660 1.363 . S
C661 C667 1.428 . S
H662 C658 0.930 . S
H663 C660 0.929 . S
S664 N665 1.613 . S
S664 N666 1.610 . S
N665 S664 1.613 . S
N665 C668 1.350 . S
N666 S664 1.610 . S
N666 C667 1.351 . S
C667 C661 1.428 . S
C667 N666 1.351 . S
C667 C668 1.434 . S
C668 C659 1.429 . S
C668 N665 1.350 . S
C668 C667 1.434 . S
C669 C670 1.369 . S
C669 C671 1.419 . S
C669 H673 0.930 . S
C670 C669 1.369 . S
C670 C679 1.429 . S
C671 C669 1.419 . S
C671 C672 1.363 . S
C671 H674 0.929 . S
C672 C671 1.363 . S
C672 C678 1.428 . S
H673 C669 0.930 . S
H674 C671 0.929 . S
S675 N676 1.613 . S
S675 N677 1.610 . S
N676 S675 1.613 . S
N676 C679 1.350 . S
N677 S675 1.610 . S
N677 C678 1.351 . S
C678 C672 1.428 . S
C678 N677 1.351 . S
C678 C679 1.434 . S
C679 C670 1.429 . S
C679 N676 1.350 . S
C679 C678 1.434 . S
C680 C681 1.369 . S
C680 C682 1.419 . S
C680 H684 0.930 . S
C681 C680 1.369 . S
C681 C690 1.429 . S
C682 C680 1.419 . S
C682 C683 1.363 . S
C682 H685 0.929 . S
C683 C682 1.363 . S
C683 C689 1.428 . S
H684 C680 0.930 . S
H685 C682 0.929 . S
S686 N687 1.613 . S
S686 N688 1.610 . S
N687 S686 1.613 . S
N687 C690 1.350 . S
N688 S686 1.610 . S
N688 C689 1.351 . S
C689 C683 1.428 . S
C689 N688 1.351 . S
C689 C690 1.434 . S
C690 C681 1.429 . S
C690 N687 1.350 . S
C690 C689 1.434 . S
C691 C692 1.369 . S
C691 C693 1.419 . S
C691 H695 0.930 . S
C692 C691 1.369 . S
C692 C701 1.429 . S
C693 C691 1.419 . S
C693 C694 1.363 . S
C693 H696 0.929 . S
C694 C693 1.363 . S
C694 C700 1.428 . S
H695 C691 0.930 . S
H696 C693 0.929 . S
S697 N698 1.613 . S
S697 N699 1.610 . S
N698 S697 1.613 . S
N698 C701 1.350 . S
N699 S697 1.610 . S
N699 C700 1.351 . S
C700 C694 1.428 . S
C700 N699 1.351 . S
C700 C701 1.434 . S
C701 C692 1.429 . S
C701 N698 1.350 . S
C701 C700 1.434 . S
C702 C703 1.369 . S
C702 C704 1.419 . S
C702 H706 0.930 . S
C703 C702 1.369 . S
C703 C712 1.429 . S
C704 C702 1.419 . S
C704 C705 1.363 . S
C704 H707 0.929 . S
C705 C704 1.363 . S
C705 C711 1.428 . S
H706 C702 0.930 . S
H707 C704 0.929 . S
S708 N709 1.613 . S
S708 N710 1.610 . S
N709 S708 1.613 . S
N709 C712 1.350 . S
N710 S708 1.610 . S
N710 C711 1.351 . S
C711 C705 1.428 . S
C711 N710 1.351 . S
C711 C712 1.434 . S
C712 C703 1.429 . S
C712 N709 1.350 . S
C712 C711 1.434 . S
C713 C714 1.369 . S
C713 C715 1.419 . S
C713 H717 0.930 . S
C714 C713 1.369 . S
C714 C723 1.429 . S
C715 C713 1.419 . S
C715 C716 1.363 . S
C715 H718 0.929 . S
C716 C715 1.363 . S
C716 C722 1.428 . S
H717 C713 0.930 . S
H718 C715 0.929 . S
S719 N720 1.613 . S
S719 N721 1.610 . S
N720 S719 1.613 . S
N720 C723 1.350 . S
N721 S719 1.610 . S
N721 C722 1.351 . S
C722 C716 1.428 . S
C722 N721 1.351 . S
C722 C723 1.434 . S
C723 C714 1.429 . S
C723 N720 1.350 . S
C723 C722 1.434 . S
C724 C725 1.369 . S
C724 C726 1.419 . S
C724 H728 0.930 . S
C725 C724 1.369 . S
C725 C734 1.429 . S
C726 C724 1.419 . S
C726 C727 1.363 . S
C726 H729 0.929 . S
C727 C726 1.363 . S
C727 C733 1.428 . S
H728 C724 0.930 . S
H729 C726 0.929 . S
S730 N731 1.613 . S
S730 N732 1.610 . S
N731 S730 1.613 . S
N731 C734 1.350 . S
N732 S730 1.610 . S
N732 C733 1.351 . S
C733 C727 1.428 . S
C733 N732 1.351 . S
C733 C734 1.434 . S
C734 C725 1.429 . S
C734 N731 1.350 . S
C734 C733 1.434 . S
C735 C736 1.369 . S
C735 C737 1.419 . S
C735 H739 0.930 . S
C736 C735 1.369 . S
C736 C745 1.429 . S
C737 C735 1.419 . S
C737 C738 1.363 . S
C737 H740 0.929 . S
C738 C737 1.363 . S
C738 C744 1.428 . S
H739 C735 0.930 . S
H740 C737 0.929 . S
S741 N742 1.613 . S
S741 N743 1.610 . S
N742 S741 1.613 . S
N742 C745 1.350 . S
N743 S741 1.610 . S
N743 C744 1.351 . S
C744 C738 1.428 . S
C744 N743 1.351 . S
C744 C745 1.434 . S
C745 C736 1.429 . S
C745 N742 1.350 . S
C745 C744 1.434 . S
C746 C747 1.369 . S
C746 C748 1.419 . S
C746 H750 0.930 . S
C747 C746 1.369 . S
C747 C756 1.429 . S
C748 C746 1.419 . S
C748 C749 1.363 . S
C748 H751 0.929 . S
C749 C748 1.363 . S
C749 C755 1.428 . S
H750 C746 0.930 . S
H751 C748 0.929 . S
S752 N753 1.613 . S
S752 N754 1.610 . S
N753 S752 1.613 . S
N753 C756 1.350 . S
N754 S752 1.610 . S
N754 C755 1.351 . S
C755 C749 1.428 . S
C755 N754 1.351 . S
C755 C756 1.434 . S
C756 C747 1.429 . S
C756 N753 1.350 . S
C756 C755 1.434 . S
C757 C758 1.369 . S
C757 C759 1.419 . S
C757 H761 0.930 . S
C758 C757 1.369 . S
C758 C767 1.429 . S
C759 C757 1.419 . S
C759 C760 1.363 . S
C759 H762 0.929 . S
C760 C759 1.363 . S
C760 C766 1.428 . S
H761 C757 0.930 . S
H762 C759 0.929 . S
S763 N764 1.613 . S
S763 N765 1.610 . S
N764 S763 1.613 . S
N764 C767 1.350 . S
N765 S763 1.610 . S
N765 C766 1.351 . S
C766 C760 1.428 . S
C766 N765 1.351 . S
C766 C767 1.434 . S
C767 C758 1.429 . S
C767 N764 1.350 . S
C767 C766 1.434 . S
C768 C769 1.369 . S
C768 C770 1.419 . S
C768 H772 0.930 . S
C769 C768 1.369 . S
C769 C778 1.429 . S
C770 C768 1.419 . S
C770 C771 1.363 . S
C770 H773 0.929 . S
C771 C770 1.363 . S
C771 C777 1.428 . S
H772 C768 0.930 . S
H773 C770 0.929 . S
S774 N775 1.613 . S
S774 N776 1.610 . S
N775 S774 1.613 . S
N775 C778 1.350 . S
N776 S774 1.610 . S
N776 C777 1.351 . S
C777 C771 1.428 . S
C777 N776 1.351 . S
C777 C778 1.434 . S
C778 C769 1.429 . S
C778 N775 1.350 . S
C778 C777 1.434 . S
C779 C780 1.369 . S
C779 C781 1.419 . S
C779 H783 0.930 . S
C780 C779 1.369 . S
C780 C789 1.429 . S
C781 C779 1.419 . S
C781 C782 1.363 . S
C781 H784 0.929 . S
C782 C781 1.363 . S
C782 C788 1.428 . S
H783 C779 0.930 . S
H784 C781 0.929 . S
S785 N786 1.613 . S
S785 N787 1.610 . S
N786 S785 1.613 . S
N786 C789 1.350 . S
N787 S785 1.610 . S
N787 C788 1.351 . S
C788 C782 1.428 . S
C788 N787 1.351 . S
C788 C789 1.434 . S
C789 C780 1.429 . S
C789 N786 1.350 . S
C789 C788 1.434 . S
C790 C791 1.369 . S
C790 C792 1.419 . S
C790 H794 0.930 . S
C791 C790 1.369 . S
C791 C800 1.429 . S
C792 C790 1.419 . S
C792 C793 1.363 . S
C792 H795 0.929 . S
C793 C792 1.363 . S
C793 C799 1.428 . S
H794 C790 0.930 . S
H795 C792 0.929 . S
S796 N797 1.613 . S
S796 N798 1.610 . S
N797 S796 1.613 . S
N797 C800 1.350 . S
N798 S796 1.610 . S
N798 C799 1.351 . S
C799 C793 1.428 . S
C799 N798 1.351 . S
C799 C800 1.434 . S
C800 C791 1.429 . S
C800 N797 1.350 . S
C800 C799 1.434 . S
C801 C802 1.369 . S
C801 C803 1.419 . S
C801 H805 0.930 . S
C802 C801 1.369 . S
C802 C811 1.429 . S
C803 C801 1.419 . S
C803 C804 1.363 . S
C803 H806 0.929 . S
C804 C803 1.363 . S
C804 C810 1.428 . S
H805 C801 0.930 . S
H806 C803 0.929 . S
S807 N808 1.613 . S
S807 N809 1.610 . S
N808 S807 1.613 . S
N808 C811 1.350 . S
N809 S807 1.610 . S
N809 C810 1.351 . S
C810 C804 1.428 . S
C810 N809 1.351 . S
C810 C811 1.434 . S
C811 C802 1.429 . S
C811 N808 1.350 . S
C811 C810 1.434 . S
C812 C813 1.369 . S
C812 C814 1.419 . S
C812 H816 0.930 . S
C813 C812 1.369 . S
C813 C822 1.429 . S
C814 C812 1.419 . S
C814 C815 1.363 . S
C814 H817 0.929 . S
C815 C814 1.363 . S
C815 C821 1.428 . S
H816 C812 0.930 . S
H817 C814 0.929 . S
S818 N819 1.613 . S
S818 N820 1.610 . S
N819 S818 1.613 . S
N819 C822 1.350 . S
N820 S818 1.610 . S
N820 C821 1.351 . S
C821 C815 1.428 . S
C821 N820 1.351 . S
C821 C822 1.434 . S
C822 C813 1.429 . S
C822 N819 1.350 . S
C822 C821 1.434 . S
C823 C824 1.369 . S
C823 C825 1.419 . S
C823 H827 0.930 . S
C824 C823 1.369 . S
C824 C833 1.429 . S
C825 C823 1.419 . S
C825 C826 1.363 . S
C825 H828 0.929 . S
C826 C825 1.363 . S
C826 C832 1.428 . S
H827 C823 0.930 . S
H828 C825 0.929 . S
S829 N830 1.613 . S
S829 N831 1.610 . S
N830 S829 1.613 . S
N830 C833 1.350 . S
N831 S829 1.610 . S
N831 C832 1.351 . S
C832 C826 1.428 . S
C832 N831 1.351 . S
C832 C833 1.434 . S
C833 C824 1.429 . S
C833 N830 1.350 . S
C833 C832 1.434 . S
C834 C835 1.369 . S
C834 C836 1.419 . S
C834 H838 0.930 . S
C835 C834 1.369 . S
C835 C844 1.429 . S
C836 C834 1.419 . S
C836 C837 1.363 . S
C836 H839 0.929 . S
C837 C836 1.363 . S
C837 C843 1.428 . S
H838 C834 0.930 . S
H839 C836 0.929 . S
S840 N841 1.613 . S
S840 N842 1.610 . S
N841 S840 1.613 . S
N841 C844 1.350 . S
N842 S840 1.610 . S
N842 C843 1.351 . S
C843 C837 1.428 . S
C843 N842 1.351 . S
C843 C844 1.434 . S
C844 C835 1.429 . S
C844 N841 1.350 . S
C844 C843 1.434 . S
C845 C846 1.369 . S
C845 C847 1.419 . S
C845 H849 0.930 . S
C846 C845 1.369 . S
C846 C855 1.429 . S
C847 C845 1.419 . S
C847 C848 1.363 . S
C847 H850 0.929 . S
C848 C847 1.363 . S
C848 C854 1.428 . S
H849 C845 0.930 . S
H850 C847 0.929 . S
S851 N852 1.613 . S
S851 N853 1.610 . S
N852 S851 1.613 . S
N852 C855 1.350 . S
N853 S851 1.610 . S
N853 C854 1.351 . S
C854 C848 1.428 . S
C854 N853 1.351 . S
C854 C855 1.434 . S
C855 C846 1.429 . S
C855 N852 1.350 . S
C855 C854 1.434 . S
C856 C857 1.369 . S
C856 C858 1.419 . S
C856 H860 0.930 . S
C857 C856 1.369 . S
C857 C866 1.429 . S
C858 C856 1.419 . S
C858 C859 1.363 . S
C858 H861 0.929 . S
C859 C858 1.363 . S
C859 C865 1.428 . S
H860 C856 0.930 . S
H861 C858 0.929 . S
S862 N863 1.613 . S
S862 N864 1.610 . S
N863 S862 1.613 . S
N863 C866 1.350 . S
N864 S862 1.610 . S
N864 C865 1.351 . S
C865 C859 1.428 . S
C865 N864 1.351 . S
C865 C866 1.434 . S
C866 C857 1.429 . S
C866 N863 1.350 . S
C866 C865 1.434 . S
C867 C868 1.369 . S
C867 C869 1.419 . S
C867 H871 0.930 . S
C868 C867 1.369 . S
C868 C877 1.429 . S
C869 C867 1.419 . S
C869 C870 1.363 . S
C869 H872 0.929 . S
C870 C869 1.363 . S
C870 C876 1.428 . S
H871 C867 0.930 . S
H872 C869 0.929 . S
S873 N874 1.613 . S
S873 N875 1.610 . S
N874 S873 1.613 . S
N874 C877 1.350 . S
N875 S873 1.610 . S
N875 C876 1.351 . S
C876 C870 1.428 . S
C876 N875 1.351 . S
C876 C877 1.434 . S
C877 C868 1.429 . S
C877 N874 1.350 . S
C877 C876 1.434 . S
C878 C879 1.369 . S
C878 C880 1.419 . S
C878 H882 0.930 . S
C879 C878 1.369 . S
C879 C888 1.429 . S
C880 C878 1.419 . S
C880 C881 1.363 . S
C880 H883 0.929 . S
C881 C880 1.363 . S
C881 C887 1.428 . S
H882 C878 0.930 . S
H883 C880 0.929 . S
S884 N885 1.613 . S
S884 N886 1.610 . S
N885 S884 1.613 . S
N885 C888 1.350 . S
N886 S884 1.610 . S
N886 C887 1.351 . S
C887 C881 1.428 . S
C887 N886 1.351 . S
C887 C888 1.434 . S
C888 C879 1.429 . S
C888 N885 1.350 . S
C888 C887 1.434 . S
C889 C890 1.369 . S
C889 C891 1.419 . S
C889 H893 0.930 . S
C890 C889 1.369 . S
C890 C899 1.429 . S
C891 C889 1.419 . S
C891 C892 1.363 . S
C891 H894 0.929 . S
C892 C891 1.363 . S
C892 C898 1.428 . S
H893 C889 0.930 . S
H894 C891 0.929 . S
S895 N896 1.613 . S
S895 N897 1.610 . S
N896 S895 1.613 . S
N896 C899 1.350 . S
N897 S895 1.610 . S
N897 C898 1.351 . S
C898 C892 1.428 . S
C898 N897 1.351 . S
C898 C899 1.434 . S
C899 C890 1.429 . S
C899 N896 1.350 . S
C899 C898 1.434 . S
C900 C901 1.369 . S
C900 C902 1.419 . S
C900 H904 0.930 . S
C901 C900 1.369 . S
C901 C910 1.429 . S
C902 C900 1.419 . S
C902 C903 1.363 . S
C902 H905 0.929 . S
C903 C902 1.363 . S
C903 C909 1.428 . S
H904 C900 0.930 . S
H905 C902 0.929 . S
S906 N907 1.613 . S
S906 N908 1.610 . S
N907 S906 1.613 . S
N907 C910 1.350 . S
N908 S906 1.610 . S
N908 C909 1.351 . S
C909 C903 1.428 . S
C909 N908 1.351 . S
C909 C910 1.434 . S
C910 C901 1.429 . S
C910 N907 1.350 . S
C910 C909 1.434 . S
C911 C912 1.369 . S
C911 C913 1.419 . S
C911 H915 0.930 . S
C912 C911 1.369 . S
C912 C921 1.429 . S
C913 C911 1.419 . S
C913 C914 1.363 . S
C913 H916 0.929 . S
C914 C913 1.363 . S
C914 C920 1.428 . S
H915 C911 0.930 . S
H916 C913 0.929 . S
S917 N918 1.613 . S
S917 N919 1.610 . S
N918 S917 1.613 . S
N918 C921 1.350 . S
N919 S917 1.610 . S
N919 C920 1.351 . S
C920 C914 1.428 . S
C920 N919 1.351 . S
C920 C921 1.434 . S
C921 C912 1.429 . S
C921 N918 1.350 . S
C921 C920 1.434 . S
C922 C923 1.369 . S
C922 C924 1.419 . S
C922 H926 0.930 . S
C923 C922 1.369 . S
C923 C932 1.429 . S
C924 C922 1.419 . S
C924 C925 1.363 . S
C924 H927 0.929 . S
C925 C924 1.363 . S
C925 C931 1.428 . S
H926 C922 0.930 . S
H927 C924 0.929 . S
S928 N929 1.613 . S
S928 N930 1.610 . S
N929 S928 1.613 . S
N929 C932 1.350 . S
N930 S928 1.610 . S
N930 C931 1.351 . S
C931 C925 1.428 . S
C931 N930 1.351 . S
C931 C932 1.434 . S
C932 C923 1.429 . S
C932 N929 1.350 . S
C932 C931 1.434 . S
C933 C934 1.369 . S
C933 C935 1.419 . S
C933 H937 0.930 . S
C934 C933 1.369 . S
C934 C943 1.429 . S
C935 C933 1.419 . S
C935 C936 1.363 . S
C935 H938 0.929 . S
C936 C935 1.363 . S
C936 C942 1.428 . S
H937 C933 0.930 . S
H938 C935 0.929 . S
S939 N940 1.613 . S
S939 N941 1.610 . S
N940 S939 1.613 . S
N940 C943 1.350 . S
N941 S939 1.610 . S
N941 C942 1.351 . S
C942 C936 1.428 . S
C942 N941 1.351 . S
C942 C943 1.434 . S
C943 C934 1.429 . S
C943 N940 1.350 . S
C943 C942 1.434 . S
C944 C945 1.369 . S
C944 C946 1.419 . S
C944 H948 0.930 . S
C945 C944 1.369 . S
C945 C954 1.429 . S
C946 C944 1.419 . S
C946 C947 1.363 . S
C946 H949 0.929 . S
C947 C946 1.363 . S
C947 C953 1.428 . S
H948 C944 0.930 . S
H949 C946 0.929 . S
S950 N951 1.613 . S
S950 N952 1.610 . S
N951 S950 1.613 . S
N951 C954 1.350 . S
N952 S950 1.610 . S
N952 C953 1.351 . S
C953 C947 1.428 . S
C953 N952 1.351 . S
C953 C954 1.434 . S
C954 C945 1.429 . S
C954 N951 1.350 . S
C954 C953 1.434 . S
C955 C956 1.369 . S
C955 C957 1.419 . S
C955 H959 0.930 . S
C956 C955 1.369 . S
C956 C965 1.429 . S
C957 C955 1.419 . S
C957 C958 1.363 . S
C957 H960 0.929 . S
C958 C957 1.363 . S
C958 C964 1.428 . S
H959 C955 0.930 . S
H960 C957 0.929 . S
S961 N962 1.613 . S
S961 N963 1.610 . S
N962 S961 1.613 . S
N962 C965 1.350 . S
N963 S961 1.610 . S
N963 C964 1.351 . S
C964 C958 1.428 . S
C964 N963 1.351 . S
C964 C965 1.434 . S
C965 C956 1.429 . S
C965 N962 1.350 . S
C965 C964 1.434 . S
C441 C267 0.879 . S
C439 N6 0.898 . S
C452 C268 2.104 . S
C450 C57 2.243 . S
C463 C262 1.485 . S
C461 C61 1.518 . S
C472 N96 0.696 . S
C474 C261 0.688 . S
C483 C136 2.246 . S
C485 C264 2.099 . S
C496 C266 1.480 . S
C494 C160 1.518 . S
C505 N194 0.706 . S
C507 C265 0.680 . S
C516 N224 0.914 . S
C518 C263 0.884 . S
C529 C298 2.087 . S
C527 C10 2.040 . S
C538 N36 0.948 . S
C540 C329 1.031 . S
C551 C297 0.733 . S
C549 N74 0.754 . S
C562 C332 1.376 . S
C560 C100 1.408 . S
C571 C121 1.586 . S
C573 C295 1.573 . S
C584 C327 1.951 . S
C582 C177 1.938 . S
C593 C196 2.188 . S
C595 C300 2.158 . S
C604 C226 1.990 . S
C606 C334 1.958 . S
C615 C27 1.994 . S
C617 C330 1.956 . S
C626 N134 0.970 . S
C628 C333 1.035 . S
C639 C301 0.735 . S
C637 N156 0.753 . S
C650 C328 1.376 . S
C648 C181 1.409 . S
C659 C211 2.036 . S
C661 C294 2.087 . S
C670 C76 1.939 . S
C672 C331 1.950 . S
C683 C296 2.160 . S
C681 C117 2.191 . S
C692 C40 1.584 . S
C694 C299 1.572 . S
C703 N216 0.928 . S
C705 C366 0.910 . S
C714 C147 1.958 . S
C716 C367 1.825 . S
C727 C361 1.373 . S
C725 C151 1.414 . S
C738 C360 0.702 . S
C736 N186 0.698 . S
C747 C46 1.959 . S
C749 C363 1.821 . S
C760 C365 1.372 . S
C758 C70 1.414 . S
C769 N104 0.707 . S
C771 C364 0.695 . S
C780 N14 0.932 . S
C782 C362 0.895 . S
C791 C220 2.121 . S
C793 C400 2.050 . S
C804 C432 1.153 . S
C802 N126 0.986 . S
C813 N164 0.588 . S
C815 C393 0.568 . S
C824 C190 1.635 . S
C826 C427 1.649 . S
C837 C398 1.435 . S
C835 C31 1.444 . S
C846 C87 2.127 . S
C848 C429 2.085 . S
C859 C395 2.254 . S
C857 C106 2.335 . S
C870 C430 2.020 . S
C868 C16 1.927 . S
C881 C426 2.019 . S
C879 C237 1.924 . S
C890 N44 0.990 . S
C892 C428 1.153 . S
C901 N66 0.599 . S
C903 C397 0.563 . S
C914 C431 1.648 . S
C912 C91 1.634 . S
C923 C1 2.123 . S
C925 C396 2.053 . S
C934 C166 2.127 . S
C936 C433 2.090 . S
C947 C399 2.251 . S
C945 C207 2.335 . S
C958 C394 1.436 . S
C956 C130 1.439 . S
