# Generated by pormake.
# Topology pts, (4,4)-cn, num edge types: 1
# Building blocks:
#     Node 0, Type 0, BuildingBlock: KOZSID_clean_sbu_0, # of connection points: 4
#     Node 1, Type 0, BuildingBlock: KOZSID_clean_sbu_0, # of connection points: 4
#     Node 2, Type 1, BuildingBlock: QUQFOY_clean_sbu_1, # of connection points: 4
#     Node 3, Type 1, BuildingBlock: QUQFOY_clean_sbu_1, # of connection points: 4
#     Edge 4, Type (0, 1), BuildingBlock: CIFDUS_clean_linker_0, # of connection points: 2
#     Edge 5, Type (0, 1), BuildingBlock: CIFDUS_clean_linker_0, # of connection points: 2
#     Edge 6, Type (0, 1), BuildingBlock: CIFDUS_clean_linker_0, # of connection points: 2
#     Edge 7, Type (0, 1), BuildingBlock: CIFDUS_clean_linker_0, # of connection points: 2
#     Edge 8, Type (0, 1), BuildingBlock: CIFDUS_clean_linker_0, # of connection points: 2
#     Edge 9, Type (0, 1), BuildingBlock: CIFDUS_clean_linker_0, # of connection points: 2
#     Edge 10, Type (0, 1), BuildingBlock: CIFDUS_clean_linker_0, # of connection points: 2
#     Edge 11, Type (0, 1), BuildingBlock: CIFDUS_clean_linker_0, # of connection points: 2
# Relax obj value: 0.094
# Max RMSD: 0.254
# Mean RMSD: 0.145
data_MOF--net-pts--node1-KOZSID_clean_sbu_0--node2-QUQFOY_clean_sbu_1--edge1-CIFDUS_clean_linker_0
_symmetry_space_group_name_H-M    P1
_symmetry_Int_Tables_number       1
_symmetry_cell_setting            triclinic
loop_
_symmetry_equiv_pos_as_xyz
'x, y, z'
_cell_length_a     22.512536
_cell_length_b     25.34287
_cell_length_c     37.260488
_cell_angle_alpha  85.8132
_cell_angle_beta   94.739693
_cell_angle_gamma 90.01236
loop_
_atom_site_label
_atom_site_type_symbol
_atom_site_fract_x
_atom_site_fract_y
_atom_site_fract_z
_atom_type_partial_charge
C0 C 0.66095 0.12799 0.05552 0.0
C1 C 0.68185 0.17789 0.0632 0.0
C2 C 0.64722 0.21371 0.04184 0.0
C3 C 0.60714 0.1839 0.02253 0.0
N4 N 0.61339 0.13118 0.03062 0.0
Co5 Co 0.56463 0.07391 0.00827 0.0
N6 N 0.51485 0.12674 0.97633 0.0
C7 C 0.51525 0.1798 0.97817 0.0
C8 C 0.47292 0.20592 0.95498 0.0
C9 C 0.44381 0.16725 0.93708 0.0
C10 C 0.47087 0.11953 0.95004 0.0
N11 N 0.51885 0.01661 0.98391 0.0
C12 C 0.4791 0.01961 0.95437 0.0
C13 C 0.4639 0.96962 0.94365 0.0
C14 C 0.49392 0.93392 0.96767 0.0
C15 C 0.52651 0.96389 0.99119 0.0
N16 N 0.61212 0.02119 0.04176 0.0
C17 C 0.60342 0.96833 0.04505 0.0
C18 C 0.6429 0.94196 0.07001 0.0
C19 C 0.6789 0.98023 0.08362 0.0
C20 C 0.65895 0.02817 0.06631 0.0
N21 N 0.50529 0.07661 0.04506 0.0
C22 C 0.41745 0.08221 0.0948 0.0
C23 C 0.42728 0.03548 0.07839 0.0
C24 C 0.47124 0.03344 0.05407 0.0
C25 C 0.45359 0.1255 0.08661 0.0
C26 C 0.49643 0.122 0.06189 0.0
N27 N 0.62321 0.07118 0.97167 0.0
C28 C 0.6921 0.02156 0.94065 0.0
C29 C 0.70379 0.06612 0.91797 0.0
C30 C 0.67475 0.11352 0.92305 0.0
C31 C 0.63525 0.11526 0.95001 0.0
C32 C 0.65185 0.02485 0.96694 0.0
H33 H 0.6146 0.15257 0.95278 0.0
H34 H 0.64452 0.98933 0.98312 0.0
H35 H 0.47616 0.99648 0.04274 0.0
H36 H 0.52139 0.15697 0.05691 0.0
C37 C 0.55978 0.2042 0.99915 0.0
C38 C 0.6871 0.07895 0.0731 0.0
C39 C 0.45424 0.0687 0.93596 0.0
C40 C 0.5643 0.94392 0.02054 0.0
H41 H 0.71787 0.18761 0.08261 0.0
H42 H 0.65008 0.25641 0.04106 0.0
H43 H 0.4651 0.24816 0.95094 0.0
H44 H 0.40725 0.17375 0.91651 0.0
H45 H 0.43441 0.95969 0.92076 0.0
H46 H 0.49267 0.89122 0.96774 0.0
H47 H 0.64689 0.89967 0.07631 0.0
H48 H 0.71657 0.97311 0.10332 0.0
H49 H 0.40037 1.00076 0.08356 0.0
H50 H 0.44902 0.16231 0.09921 0.0
H51 H 0.71434 0.98416 0.93851 0.0
H52 H 0.68173 0.14913 0.90607 0.0
C53 C 0.12043 0.48443 0.56314 0.0
C54 C 0.17607 0.46368 0.57556 0.0
C55 C 0.21715 0.49426 0.55901 0.0
C56 C 0.1844 0.53146 0.53731 0.0
N57 N 0.12492 0.52739 0.5396 0.0
Co58 Co 0.06089 0.56947 0.50948 0.0
N59 N 0.12105 0.61099 0.48252 0.0
C60 C 0.18097 0.6084 0.48915 0.0
C61 C 0.21088 0.64387 0.46781 0.0
C62 C 0.16744 0.6714 0.4466 0.0
C63 C 0.11332 0.65098 0.45629 0.0
N64 N 0.99669 0.60876 0.47771 0.0
C65 C 0.00066 0.64674 0.45044 0.0
C66 C 0.94473 0.66301 0.43514 0.0
C67 C 0.904 0.63463 0.4536 0.0
C68 C 0.93719 0.60264 0.47894 0.0
N69 N 0.00096 0.53012 0.53782 0.0
C70 C 0.94152 0.5389 0.53542 0.0
C71 C 0.9118 0.50555 0.55835 0.0
C72 C 0.95478 0.47316 0.57615 0.0
C73 C 0.00837 0.48852 0.56281 0.0
N74 N 0.06313 0.62545 0.54459 0.0
C75 C 0.06682 0.70587 0.59332 0.0
C76 C 0.01513 0.69677 0.57147 0.0
C77 C 0.014 0.65633 0.54784 0.0
C78 C 0.11666 0.67422 0.59053 0.0
C79 C 0.11412 0.63498 0.56594 0.0
N80 N 0.05858 0.51364 0.47475 0.0
C81 C 0.00576 0.44262 0.44634 0.0
C82 C 0.05754 0.42646 0.432 0.0
C83 C 0.10935 0.45596 0.43813 0.0
C84 C 0.109 0.499 0.45962 0.0
C85 C 0.00703 0.48641 0.46704 0.0
H86 H 0.15026 0.51918 0.46428 0.0
H87 H 0.96595 0.49697 0.47708 0.0
H88 H 0.97258 0.65102 0.53266 0.0
H89 H 0.15419 0.61313 0.56477 0.0
C90 C 0.20787 0.57045 0.51428 0.0
C91 C 0.06457 0.46081 0.57328 0.0
C92 C 0.05592 0.67102 0.43982 0.0
C93 C 0.91419 0.57165 0.50705 0.0
H94 H 0.18597 0.42936 0.59411 0.0
H95 H 0.2651 0.48923 0.56182 0.0
H96 H 0.2586 0.64893 0.46758 0.0
H97 H 0.17474 0.70301 0.42632 0.0
H98 H 0.93438 0.69351 0.41365 0.0
H99 H 0.85595 0.63845 0.44997 0.0
H100 H 0.86417 0.50303 0.56037 0.0
H101 H 0.94734 0.4407 0.59577 0.0
H102 H 0.97523 0.72006 0.57313 0.0
H103 H 0.15779 0.68017 0.60695 0.0
H104 H 0.96432 0.42152 0.44158 0.0
H105 H 0.15044 0.44489 0.42736 0.0
O106 O 0.9763 0.02856 0.24292 0.0
Cd107 Cd 0.05849 0.01196 0.27088 0.0
Cd108 Cd 0.06428 0.12668 0.25872 0.0
O109 O 0.98517 0.11447 0.22868 0.0
O110 O 0.05406 0.9339 0.28257 0.0
O111 O 0.0647 0.99089 0.32458 0.0
C112 C 0.05962 0.94239 0.31631 0.0
C113 C 0.06965 0.19883 0.29489 0.0
C114 C 0.95614 0.07163 0.22682 0.0
C115 C 0.16083 0.06109 0.2315 0.0
O116 O 0.14049 0.10664 0.2361 0.0
O117 O 0.13481 0.01946 0.24316 0.0
O118 O 0.07084 0.2051 0.26035 0.0
O119 O 0.06502 0.15119 0.30924 0.0
O120 O 0.00243 0.12275 0.78063 0.0
Cd121 Cd 0.07847 0.12924 0.75284 0.0
Cd122 Cd 0.05661 0.01788 0.75513 0.0
O123 O 0.97915 0.03861 0.77645 0.0
O124 O 0.09089 0.20741 0.7499 0.0
O125 O 0.07341 0.16308 0.70148 0.0
C126 C 0.08322 0.20782 0.71531 0.0
C127 C 0.05322 0.95609 0.71123 0.0
C128 C 0.96779 0.08402 0.7867 0.0
C129 C 0.16873 0.05648 0.79517 0.0
O130 O 0.13278 0.01867 0.78985 0.0
O131 O 0.15777 0.10255 0.78026 0.0
O132 O 0.04865 0.94187 0.7448 0.0
O133 O 0.05876 0.00596 0.70224 0.0
H134 H 0.37967 0.00684 0.1444 0.0
H135 H 0.34525 0.16744 0.1004 0.0
H136 H 0.26645 0.17583 0.1405 0.0
H137 H 0.20493 0.13728 0.18648 0.0
H138 H 0.23334 0.97499 0.22795 0.0
H139 H 0.31635 0.96747 0.19008 0.0
C140 C 0.35464 0.04354 0.1433 0.0
C141 C 0.36905 0.08654 0.11946 0.0
C142 C 0.30816 0.04784 0.16596 0.0
C143 C 0.33636 0.13398 0.11891 0.0
C144 C 0.29081 0.13876 0.14168 0.0
C145 C 0.22955 0.10033 0.18753 0.0
C146 C 0.21309 0.05684 0.21016 0.0
C147 C 0.27625 0.09597 0.16521 0.0
C148 C 0.24506 0.00909 0.21077 0.0
C149 C 0.2925 0.00476 0.1891 0.0
H150 H 0.09786 0.44132 0.64437 0.0
H151 H 0.03141 0.36539 0.54966 0.0
H152 H 0.03239 0.27942 0.58474 0.0
H153 H 0.05203 0.22617 0.64284 0.0
H154 H 0.11743 0.3038 0.73754 0.0
H155 H 0.11746 0.38843 0.70214 0.0
C156 C 0.08376 0.40575 0.63161 0.0
C157 C 0.06489 0.40906 0.59471 0.0
C158 C 0.08446 0.35682 0.65193 0.0
C159 C 0.04622 0.36323 0.57815 0.0
C160 C 0.04688 0.31427 0.59816 0.0
C161 C 0.06654 0.26157 0.65565 0.0
C162 C 0.08474 0.25849 0.69281 0.0
C163 C 0.06598 0.31054 0.63512 0.0
C164 C 0.10309 0.30488 0.70902 0.0
C165 C 0.10312 0.35344 0.68881 0.0
H166 H 0.70191 0.04798 0.14485 0.0
H167 H 0.79552 0.11566 0.0564 0.0
H168 H 0.88595 0.12335 0.09692 0.0
H169 H 0.93878 0.10926 0.15738 0.0
H170 H 0.84946 0.03096 0.24407 0.0
H171 H 0.75688 0.02829 0.20453 0.0
C172 C 0.74242 0.06382 0.13451 0.0
C173 C 0.74239 0.08122 0.09782 0.0
C174 C 0.79472 0.06621 0.15767 0.0
C175 C 0.79478 0.10213 0.08463 0.0
C176 C 0.84633 0.1065 0.10774 0.0
C177 C 0.89879 0.09197 0.16753 0.0
C178 C 0.90018 0.07102 0.20351 0.0
C179 C 0.84682 0.08862 0.14428 0.0
C180 C 0.84888 0.04757 0.21642 0.0
C181 C 0.79617 0.04602 0.19385 0.0
H182 H 0.03724 0.80994 0.58006 0.0
H183 H 0.09975 0.69403 0.66523 0.0
H184 H 0.09994 0.76104 0.70931 0.0
H185 H 0.08164 0.85226 0.72367 0.0
H186 H 0.02512 0.97006 0.63829 0.0
H187 H 0.0232 0.9028 0.59418 0.0
C188 C 0.0508 0.79956 0.60831 0.0
C189 C 0.06822 0.74722 0.61953 0.0
C190 C 0.05181 0.83855 0.63337 0.0
C191 C 0.08644 0.73417 0.65605 0.0
C192 C 0.08635 0.77239 0.68122 0.0
C193 C 0.06877 0.86321 0.69541 0.0
C194 C 0.05306 0.91595 0.68427 0.0
C195 C 0.069 0.82464 0.6702 0.0
C196 C 0.03738 0.9297 0.6475 0.0
C197 C 0.03619 0.89125 0.62231 0.0
H198 H 0.34708 0.01929 0.93374 0.0
H199 H 0.46002 0.11557 0.86808 0.0
H200 H 0.38187 0.12046 0.81803 0.0
H201 H 0.27921 0.10015 0.79413 0.0
H202 H 0.17164 0.99523 0.85785 0.0
H203 H 0.25038 0.98956 0.90717 0.0
C204 C 0.35493 0.04039 0.90819 0.0
C205 C 0.40889 0.06725 0.90453 0.0
C206 C 0.31083 0.04133 0.87924 0.0
C207 C 0.4185 0.09489 0.87145 0.0
C208 C 0.37395 0.09762 0.8429 0.0
C209 C 0.27352 0.0756 0.81868 0.0
C210 C 0.21974 0.04842 0.82253 0.0
C211 C 0.31961 0.07147 0.84664 0.0
C212 C 0.21286 0.0163 0.85426 0.0
C213 C 0.25767 0.01329 0.88255 0.0
H214 H 0.09834 0.41726 0.3661 0.0
H215 H 0.0161 0.32856 0.45167 0.0
H216 H 0.01459 0.24944 0.41766 0.0
H217 H 0.03526 0.20578 0.36293 0.0
H218 H 0.11246 0.29635 0.27604 0.0
H219 H 0.11766 0.37408 0.31114 0.0
C220 C 0.08046 0.38046 0.37731 0.0
C221 C 0.05745 0.37862 0.41129 0.0
C222 C 0.0788 0.33543 0.35733 0.0
C223 C 0.03368 0.33094 0.4254 0.0
C224 C 0.03299 0.2857 0.40603 0.0
C225 C 0.05348 0.24247 0.35181 0.0
C226 C 0.07357 0.2452 0.31697 0.0
C227 C 0.0552 0.28749 0.37187 0.0
C228 C 0.0965 0.2932 0.30275 0.0
C229 C 0.09957 0.33771 0.32282 0.0
H230 H 0.78292 0.1412 0.89611 0.0
H231 H 0.72099 0.98399 0.87581 0.0
H232 H 0.79549 0.97632 0.83257 0.0
H233 H 0.8809 0.01277 0.80221 0.0
H234 H 0.94 0.17132 0.82094 0.0
H235 H 0.8627 0.18028 0.86218 0.0
C236 C 0.78481 0.10558 0.88181 0.0
C237 C 0.7466 0.06306 0.8897 0.0
C238 C 0.82723 0.10162 0.85651 0.0
C239 C 0.75062 0.01696 0.87106 0.0
C240 C 0.79296 0.01263 0.84605 0.0
C241 C 0.87658 0.04949 0.81504 0.0
C242 C 0.91663 0.0911 0.80859 0.0
C243 C 0.83201 0.05446 0.83889 0.0
C244 C 0.90998 0.13851 0.82535 0.0
C245 C 0.86586 0.14367 0.84911 0.0
H246 H 0.07129 0.77462 0.45155 0.0
H247 H 0.03624 0.66866 0.3672 0.0
H248 H 0.03414 0.74341 0.32142 0.0
H249 H 0.04293 0.83848 0.30564 0.0
H250 H 0.07739 0.94543 0.38984 0.0
H251 H 0.07906 0.87087 0.43555 0.0
C252 C 0.06313 0.7683 0.42308 0.0
C253 C 0.05385 0.7167 0.41242 0.0
C254 C 0.06196 0.81147 0.39706 0.0
C255 C 0.04334 0.70832 0.37569 0.0
C256 C 0.04221 0.75094 0.34966 0.0
C257 C 0.05082 0.84562 0.33398 0.0
C258 C 0.06013 0.89755 0.34426 0.0
C259 C 0.05157 0.80265 0.36004 0.0
C260 C 0.07008 0.90592 0.38115 0.0
C261 C 0.07108 0.86328 0.40731 0.0
loop_
_geom_bond_atom_site_label_1
_geom_bond_atom_site_label_2
_geom_bond_distance
_geom_bond_site_symmetry_2
_ccdc_geom_bond_type
C0 C1 1.443 . S
C0 N4 1.376 . S
C0 C38 1.389 . S
C1 C0 1.443 . S
C1 C2 1.340 . S
C1 H41 0.951 . S
C2 C1 1.340 . S
C2 C3 1.439 . S
C2 H42 0.950 . S
C3 C2 1.439 . S
C3 N4 1.374 . S
C3 C37 1.395 1_554 S
N4 C0 1.376 . S
N4 C3 1.374 . S
N4 Co5 2.008 . S
Co5 N4 2.008 . S
Co5 N6 1.995 1_554 S
Co5 N11 2.008 1_554 S
Co5 N16 1.995 . S
Co5 N21 2.282 . S
Co5 N27 2.282 1_554 S
N6 Co5 1.995 1_556 S
N6 C7 1.376 . S
N6 C10 1.383 . S
C7 N6 1.376 . S
C7 C8 1.446 . S
C7 C37 1.391 . S
C8 C7 1.446 . S
C8 C9 1.339 . S
C8 H43 0.949 . S
C9 C8 1.339 . S
C9 C10 1.439 . S
C9 H44 0.950 . S
C10 N6 1.383 . S
C10 C9 1.439 . S
C10 C39 1.392 . S
N11 Co5 2.008 1_556 S
N11 C12 1.376 . S
N11 C15 1.374 1_545 S
C12 N11 1.376 . S
C12 C13 1.443 1_545 S
C12 C39 1.389 . S
C13 C12 1.443 1_565 S
C13 C14 1.340 . S
C13 H45 0.951 . S
C14 C13 1.340 . S
C14 C15 1.439 . S
C14 H46 0.950 . S
C15 N11 1.374 1_565 S
C15 C14 1.439 . S
C15 C40 1.395 1_556 S
N16 Co5 1.995 . S
N16 C17 1.376 1_545 S
N16 C20 1.383 . S
C17 N16 1.376 1_565 S
C17 C18 1.446 . S
C17 C40 1.391 . S
C18 C17 1.446 . S
C18 C19 1.339 . S
C18 H47 0.949 . S
C19 C18 1.339 . S
C19 C20 1.439 1_565 S
C19 H48 0.950 . S
C20 N16 1.383 . S
C20 C19 1.439 1_545 S
C20 C38 1.392 . S
N21 Co5 2.282 . S
N21 C24 1.332 . S
N21 C26 1.332 . S
C22 C23 1.386 . S
C22 C25 1.388 . S
C23 C22 1.386 . S
C23 C24 1.382 . S
C23 H49 0.950 1_545 S
C24 N21 1.332 . S
C24 C23 1.382 . S
C24 H35 0.952 . S
C25 C22 1.388 . S
C25 C26 1.382 . S
C25 H50 0.950 . S
C26 N21 1.332 . S
C26 C25 1.382 . S
C26 H36 0.948 . S
N27 Co5 2.282 1_556 S
N27 C31 1.332 . S
N27 C32 1.332 . S
C28 C29 1.388 . S
C28 C32 1.382 . S
C28 H51 0.950 . S
C29 C28 1.388 . S
C29 C30 1.386 . S
C30 C29 1.386 . S
C30 C31 1.382 . S
C30 H52 0.950 . S
C31 N27 1.332 . S
C31 C30 1.382 . S
C31 H33 0.952 . S
C32 N27 1.332 . S
C32 C28 1.382 . S
C32 H34 0.948 . S
H33 C31 0.952 . S
H34 C32 0.948 . S
H35 C24 0.952 . S
H36 C26 0.948 . S
C37 C3 1.395 1_556 S
C37 C7 1.391 . S
C38 C0 1.389 . S
C38 C20 1.392 . S
C39 C10 1.392 . S
C39 C12 1.389 . S
C40 C15 1.395 1_554 S
C40 C17 1.391 . S
H41 C1 0.951 . S
H42 C2 0.950 . S
H43 C8 0.949 . S
H44 C9 0.950 . S
H45 C13 0.951 . S
H46 C14 0.950 . S
H47 C18 0.949 . S
H48 C19 0.950 . S
H49 C23 0.950 1_565 S
H50 C25 0.950 . S
H51 C28 0.950 . S
H52 C30 0.950 . S
C53 C54 1.443 . S
C53 N57 1.376 . S
C53 C91 1.389 . S
C54 C53 1.443 . S
C54 C55 1.340 . S
C54 H94 0.951 . S
C55 C54 1.340 . S
C55 C56 1.439 . S
C55 H95 0.950 . S
C56 C55 1.439 . S
C56 N57 1.374 . S
C56 C90 1.395 . S
N57 C53 1.376 . S
N57 C56 1.374 . S
N57 Co58 2.008 . S
Co58 N57 2.008 . S
Co58 N59 1.995 . S
Co58 N64 2.008 . S
Co58 N69 1.995 . S
Co58 N74 2.282 . S
Co58 N80 2.282 . S
N59 Co58 1.995 . S
N59 C60 1.376 . S
N59 C63 1.383 . S
C60 N59 1.376 . S
C60 C61 1.446 . S
C60 C90 1.391 . S
C61 C60 1.446 . S
C61 C62 1.339 . S
C61 H96 0.949 . S
C62 C61 1.339 . S
C62 C63 1.439 . S
C62 H97 0.950 . S
C63 N59 1.383 . S
C63 C62 1.439 . S
C63 C92 1.392 . S
N64 Co58 2.008 . S
N64 C65 1.376 . S
N64 C68 1.374 1_455 S
C65 N64 1.376 . S
C65 C66 1.443 1_455 S
C65 C92 1.389 . S
C66 C65 1.443 1_655 S
C66 C67 1.340 . S
C66 H98 0.951 . S
C67 C66 1.340 . S
C67 C68 1.439 . S
C67 H99 0.950 . S
C68 N64 1.374 1_655 S
C68 C67 1.439 . S
C68 C93 1.395 . S
N69 Co58 1.995 . S
N69 C70 1.376 1_455 S
N69 C73 1.383 . S
C70 N69 1.376 1_655 S
C70 C71 1.446 . S
C70 C93 1.391 . S
C71 C70 1.446 . S
C71 C72 1.339 . S
C71 H100 0.949 . S
C72 C71 1.339 . S
C72 C73 1.439 1_655 S
C72 H101 0.950 . S
C73 N69 1.383 . S
C73 C72 1.439 1_455 S
C73 C91 1.392 . S
N74 Co58 2.282 . S
N74 C77 1.332 . S
N74 C79 1.332 . S
C75 C76 1.386 . S
C75 C78 1.388 . S
C76 C75 1.386 . S
C76 C77 1.382 . S
C76 H102 0.950 1_455 S
C77 N74 1.332 . S
C77 C76 1.382 . S
C77 H88 0.952 1_455 S
C78 C75 1.388 . S
C78 C79 1.382 . S
C78 H103 0.950 . S
C79 N74 1.332 . S
C79 C78 1.382 . S
C79 H89 0.948 . S
N80 Co58 2.282 . S
N80 C84 1.332 . S
N80 C85 1.332 . S
C81 C82 1.388 . S
C81 C85 1.382 . S
C81 H104 0.950 1_455 S
C82 C81 1.388 . S
C82 C83 1.386 . S
C83 C82 1.386 . S
C83 C84 1.382 . S
C83 H105 0.950 . S
C84 N80 1.332 . S
C84 C83 1.382 . S
C84 H86 0.952 . S
C85 N80 1.332 . S
C85 C81 1.382 . S
C85 H87 0.948 1_455 S
H86 C84 0.952 . S
H87 C85 0.948 1_655 S
H88 C77 0.952 1_655 S
H89 C79 0.948 . S
C90 C56 1.395 . S
C90 C60 1.391 . S
C91 C53 1.389 . S
C91 C73 1.392 . S
C92 C63 1.392 . S
C92 C65 1.389 . S
C93 C68 1.395 . S
C93 C70 1.391 . S
H94 C54 0.951 . S
H95 C55 0.950 . S
H96 C61 0.949 . S
H97 C62 0.950 . S
H98 C66 0.951 . S
H99 C67 0.950 . S
H100 C71 0.949 . S
H101 C72 0.950 . S
H102 C76 0.950 1_655 S
H103 C78 0.950 . S
H104 C81 0.950 1_655 S
H105 C83 0.950 . S
O106 Cd107 2.223 . S
O106 C114 1.315 1_465 S
Cd107 O106 2.223 . S
Cd107 O110 2.297 . S
Cd107 O111 2.439 . S
Cd107 O117 2.240 1_565 S
Cd108 O109 2.240 1_455 S
Cd108 O116 2.223 . S
Cd108 O118 2.297 . S
Cd108 O119 2.439 . S
O109 Cd108 2.240 1_655 S
O109 C114 1.279 . S
O110 Cd107 2.297 . S
O110 C112 1.247 . S
O111 Cd107 2.439 . S
O111 C112 1.208 . S
C112 O110 1.247 . S
C112 O111 1.208 . S
C113 O118 1.247 . S
C113 O119 1.208 . S
C114 O106 1.315 1_645 S
C114 O109 1.279 . S
C115 O116 1.315 . S
C115 O117 1.279 . S
O116 Cd108 2.223 . S
O116 C115 1.315 . S
O117 Cd107 2.240 1_545 S
O117 C115 1.279 . S
O118 Cd108 2.297 . S
O118 C113 1.247 . S
O119 Cd108 2.439 . S
O119 C113 1.208 . S
O120 Cd121 2.223 . S
O120 C128 1.315 . S
Cd121 O120 2.223 . S
Cd121 O124 2.297 . S
Cd121 O125 2.439 . S
Cd121 O131 2.240 . S
Cd122 O123 2.240 . S
Cd122 O130 2.223 . S
Cd122 O132 2.297 1_545 S
Cd122 O133 2.439 . S
O123 Cd122 2.240 . S
O123 C128 1.279 . S
O124 Cd121 2.297 . S
O124 C126 1.247 . S
O125 Cd121 2.439 . S
O125 C126 1.208 . S
C126 O124 1.247 . S
C126 O125 1.208 . S
C127 O132 1.247 . S
C127 O133 1.208 1_565 S
C128 O120 1.315 . S
C128 O123 1.279 . S
C129 O130 1.315 . S
C129 O131 1.279 . S
O130 Cd122 2.223 . S
O130 C129 1.315 . S
O131 Cd121 2.240 . S
O131 C129 1.279 . S
O132 Cd122 2.297 1_565 S
O132 C127 1.247 . S
O133 Cd122 2.439 . S
O133 C127 1.208 1_545 S
H134 C140 0.930 . S
H135 C143 0.930 . S
H136 C144 0.930 . S
H137 C145 0.930 . S
H138 C148 0.930 . S
H139 C149 0.930 . S
C140 H134 0.930 . S
C140 C141 1.355 . S
C140 C142 1.415 . S
C141 C140 1.355 . S
C141 C143 1.419 . S
C142 C140 1.415 . S
C142 C147 1.425 . S
C142 C149 1.409 . S
C143 H135 0.930 . S
C143 C141 1.419 . S
C143 C144 1.362 . S
C144 H136 0.930 . S
C144 C143 1.362 . S
C144 C147 1.409 . S
C145 H137 0.930 . S
C145 C146 1.355 . S
C145 C147 1.415 . S
C146 C145 1.355 . S
C146 C148 1.419 . S
C147 C142 1.425 . S
C147 C144 1.409 . S
C147 C145 1.415 . S
C148 H138 0.930 . S
C148 C146 1.419 . S
C148 C149 1.362 . S
C149 H139 0.930 . S
C149 C142 1.409 . S
C149 C148 1.362 . S
H150 C156 0.930 . S
H151 C159 0.930 1_655 S
H152 C160 0.943 . S
H153 C161 0.930 1_655 S
H154 C164 0.930 . S
H155 C165 0.930 . S
C156 H150 0.930 . S
C156 C157 1.355 . S
C156 C158 1.415 . S
C157 C156 1.355 . S
C157 C159 1.419 . S
C158 C156 1.415 . S
C158 C163 1.425 . S
C158 C165 1.409 . S
C159 H151 0.930 1_455 S
C159 C157 1.419 . S
C159 C160 1.356 1_455 S
C160 H152 0.943 . S
C160 C159 1.356 1_655 S
C160 C163 1.403 1_655 S
C161 H153 0.930 1_455 S
C161 C162 1.355 . S
C161 C163 1.415 . S
C162 C161 1.355 . S
C162 C164 1.419 . S
C163 C158 1.425 . S
C163 C160 1.403 1_455 S
C163 C161 1.415 . S
C164 H154 0.930 . S
C164 C162 1.419 . S
C164 C165 1.362 . S
C165 H155 0.930 . S
C165 C158 1.409 . S
C165 C164 1.362 . S
H166 C172 0.930 . S
H167 C175 0.930 . S
H168 C176 0.930 . S
H169 C177 0.930 . S
H170 C180 0.930 . S
H171 C181 0.930 . S
C172 H166 0.930 . S
C172 C173 1.355 . S
C172 C174 1.415 . S
C173 C172 1.355 . S
C173 C175 1.419 . S
C174 C172 1.415 . S
C174 C179 1.425 . S
C174 C181 1.409 . S
C175 H167 0.930 . S
C175 C173 1.419 . S
C175 C176 1.362 . S
C176 H168 0.930 . S
C176 C175 1.362 . S
C176 C179 1.409 . S
C177 H169 0.930 . S
C177 C178 1.355 . S
C177 C179 1.415 . S
C178 C177 1.355 . S
C178 C180 1.419 . S
C179 C174 1.425 . S
C179 C176 1.409 . S
C179 C177 1.415 . S
C180 H170 0.930 . S
C180 C178 1.419 . S
C180 C181 1.362 . S
C181 H171 0.930 . S
C181 C174 1.409 . S
C181 C180 1.362 . S
H182 C188 0.930 . S
H183 C191 0.930 . S
H184 C192 0.930 . S
H185 C193 0.930 . S
H186 C196 0.930 . S
H187 C197 0.930 1_655 S
C188 H182 0.930 . S
C188 C189 1.355 . S
C188 C190 1.415 . S
C189 C188 1.355 . S
C189 C191 1.419 . S
C190 C188 1.415 . S
C190 C195 1.425 . S
C190 C197 1.409 . S
C191 H183 0.930 . S
C191 C189 1.419 . S
C191 C192 1.362 . S
C192 H184 0.930 . S
C192 C191 1.362 . S
C192 C195 1.409 . S
C193 H185 0.930 . S
C193 C194 1.355 . S
C193 C195 1.415 . S
C194 C193 1.355 . S
C194 C196 1.419 . S
C195 C190 1.425 . S
C195 C192 1.409 . S
C195 C193 1.415 . S
C196 H186 0.930 . S
C196 C194 1.419 . S
C196 C197 1.362 . S
C197 H187 0.930 1_455 S
C197 C190 1.409 . S
C197 C196 1.362 . S
H198 C204 0.930 . S
H199 C207 0.930 . S
H200 C208 0.930 . S
H201 C209 0.930 . S
H202 C212 0.930 . S
H203 C213 0.930 . S
C204 H198 0.930 . S
C204 C205 1.355 . S
C204 C206 1.415 . S
C205 C204 1.355 . S
C205 C207 1.419 . S
C206 C204 1.415 . S
C206 C211 1.425 . S
C206 C213 1.409 . S
C207 H199 0.930 . S
C207 C205 1.419 . S
C207 C208 1.362 . S
C208 H200 0.930 . S
C208 C207 1.362 . S
C208 C211 1.409 . S
C209 H201 0.930 . S
C209 C210 1.355 . S
C209 C211 1.415 . S
C210 C209 1.355 . S
C210 C212 1.419 . S
C211 C206 1.425 . S
C211 C208 1.409 . S
C211 C209 1.415 . S
C212 H202 0.930 . S
C212 C210 1.419 . S
C212 C213 1.362 . S
C213 H203 0.930 . S
C213 C206 1.409 . S
C213 C212 1.362 . S
H214 C220 0.930 . S
H215 C223 0.930 . S
H216 C224 0.930 . S
H217 C225 0.930 . S
H218 C228 0.930 . S
H219 C229 0.930 . S
C220 H214 0.930 . S
C220 C221 1.355 . S
C220 C222 1.415 . S
C221 C220 1.355 . S
C221 C223 1.419 . S
C222 C220 1.415 . S
C222 C227 1.425 . S
C222 C229 1.409 . S
C223 H215 0.930 . S
C223 C221 1.419 . S
C223 C224 1.362 . S
C224 H216 0.930 . S
C224 C223 1.362 . S
C224 C227 1.409 . S
C225 H217 0.930 . S
C225 C226 1.355 . S
C225 C227 1.415 . S
C226 C225 1.355 . S
C226 C228 1.419 . S
C227 C222 1.425 . S
C227 C224 1.409 . S
C227 C225 1.415 . S
C228 H218 0.930 . S
C228 C226 1.419 . S
C228 C229 1.362 . S
C229 H219 0.930 . S
C229 C222 1.409 . S
C229 C228 1.362 . S
H230 C236 0.930 . S
H231 C239 0.930 . S
H232 C240 0.930 . S
H233 C241 0.930 . S
H234 C244 0.930 1_455 S
H235 C245 0.930 . S
C236 H230 0.930 . S
C236 C237 1.355 . S
C236 C238 1.415 . S
C237 C236 1.355 . S
C237 C239 1.419 . S
C238 C236 1.415 . S
C238 C243 1.425 . S
C238 C245 1.409 . S
C239 H231 0.930 . S
C239 C237 1.419 . S
C239 C240 1.362 . S
C240 H232 0.930 . S
C240 C239 1.362 . S
C240 C243 1.409 . S
C241 H233 0.930 . S
C241 C242 1.355 . S
C241 C243 1.415 . S
C242 C241 1.355 . S
C242 C244 1.419 . S
C243 C238 1.425 . S
C243 C240 1.409 . S
C243 C241 1.415 . S
C244 H234 0.930 1_655 S
C244 C242 1.419 . S
C244 C245 1.362 . S
C245 H235 0.930 . S
C245 C238 1.409 . S
C245 C244 1.362 . S
H246 C252 0.930 . S
H247 C255 0.934 . S
H248 C256 0.930 . S
H249 C257 0.930 1_655 S
H250 C260 0.930 . S
H251 C261 0.930 . S
C252 H246 0.930 . S
C252 C253 1.355 . S
C252 C254 1.415 . S
C253 C252 1.355 . S
C253 C255 1.419 . S
C254 C252 1.415 . S
C254 C259 1.425 . S
C254 C261 1.409 . S
C255 H247 0.934 . S
C255 C253 1.419 . S
C255 C256 1.362 1_455 S
C256 H248 0.930 . S
C256 C255 1.362 1_655 S
C256 C259 1.409 1_655 S
C257 H249 0.930 1_455 S
C257 C258 1.355 . S
C257 C259 1.415 . S
C258 C257 1.355 . S
C258 C260 1.419 . S
C259 C254 1.425 . S
C259 C256 1.409 1_455 S
C259 C257 1.415 . S
C260 H250 0.930 . S
C260 C258 1.419 . S
C260 C261 1.362 . S
C261 H251 0.930 . S
C261 C254 1.409 . S
C261 C260 1.362 . S
C146 C115 1.575 . S
C141 C22 1.588 . S
C162 C126 1.494 . S
C157 C91 1.613 . S
C178 C114 1.617 . S
C173 C38 1.626 . S
C194 C127 1.478 . S
C189 C75 1.566 . S
C210 C129 1.626 . S
C205 C39 1.609 . S
C226 C113 1.518 . S
C221 C82 1.582 . S
C242 C128 1.583 1_655 S
C237 C29 1.571 . S
C253 C92 1.598 . S
C258 C112 1.518 . S
