# Generated by pormake.
# Topology pyr, (3,6)-cn, num edge types: 1
# Building blocks:
#     Node 0, Type 0, BuildingBlock: OLANEW_clean_sbu_2, # of connection points: 3
#     Node 1, Type 0, BuildingBlock: OLANEW_clean_sbu_2, # of connection points: 3
#     Node 2, Type 0, BuildingBlock: OLANEW_clean_sbu_2, # of connection points: 3
#     Node 3, Type 0, BuildingBlock: OLANEW_clean_sbu_2, # of connection points: 3
#     Node 4, Type 0, BuildingBlock: OLANEW_clean_sbu_2, # of connection points: 3
#     Node 5, Type 0, BuildingBlock: OLANEW_clean_sbu_2, # of connection points: 3
#     Node 6, Type 0, BuildingBlock: OLANEW_clean_sbu_2, # of connection points: 3
#     Node 7, Type 0, BuildingBlock: OLANEW_clean_sbu_2, # of connection points: 3
#     Node 8, Type 1, BuildingBlock: BETFEN_clean_sbu_0, # of connection points: 6
#     Node 9, Type 1, BuildingBlock: BETFEN_clean_sbu_0, # of connection points: 6
#     Node 10, Type 1, BuildingBlock: BETFEN_clean_sbu_0, # of connection points: 6
#     Node 11, Type 1, BuildingBlock: BETFEN_clean_sbu_0, # of connection points: 6
#     Edge 12, Type (0, 1), BuildingBlock: UVAHIK_clean_linker_0, # of connection points: 2
#     Edge 13, Type (0, 1), BuildingBlock: UVAHIK_clean_linker_0, # of connection points: 2
#     Edge 14, Type (0, 1), BuildingBlock: UVAHIK_clean_linker_0, # of connection points: 2
#     Edge 15, Type (0, 1), BuildingBlock: UVAHIK_clean_linker_0, # of connection points: 2
#     Edge 16, Type (0, 1), BuildingBlock: UVAHIK_clean_linker_0, # of connection points: 2
#     Edge 17, Type (0, 1), BuildingBlock: UVAHIK_clean_linker_0, # of connection points: 2
#     Edge 18, Type (0, 1), BuildingBlock: UVAHIK_clean_linker_0, # of connection points: 2
#     Edge 19, Type (0, 1), BuildingBlock: UVAHIK_clean_linker_0, # of connection points: 2
#     Edge 20, Type (0, 1), BuildingBlock: UVAHIK_clean_linker_0, # of connection points: 2
#     Edge 21, Type (0, 1), BuildingBlock: UVAHIK_clean_linker_0, # of connection points: 2
#     Edge 22, Type (0, 1), BuildingBlock: UVAHIK_clean_linker_0, # of connection points: 2
#     Edge 23, Type (0, 1), BuildingBlock: UVAHIK_clean_linker_0, # of connection points: 2
#     Edge 24, Type (0, 1), BuildingBlock: UVAHIK_clean_linker_0, # of connection points: 2
#     Edge 25, Type (0, 1), BuildingBlock: UVAHIK_clean_linker_0, # of connection points: 2
#     Edge 26, Type (0, 1), BuildingBlock: UVAHIK_clean_linker_0, # of connection points: 2
#     Edge 27, Type (0, 1), BuildingBlock: UVAHIK_clean_linker_0, # of connection points: 2
#     Edge 28, Type (0, 1), BuildingBlock: UVAHIK_clean_linker_0, # of connection points: 2
#     Edge 29, Type (0, 1), BuildingBlock: UVAHIK_clean_linker_0, # of connection points: 2
#     Edge 30, Type (0, 1), BuildingBlock: UVAHIK_clean_linker_0, # of connection points: 2
#     Edge 31, Type (0, 1), BuildingBlock: UVAHIK_clean_linker_0, # of connection points: 2
#     Edge 32, Type (0, 1), BuildingBlock: UVAHIK_clean_linker_0, # of connection points: 2
#     Edge 33, Type (0, 1), BuildingBlock: UVAHIK_clean_linker_0, # of connection points: 2
#     Edge 34, Type (0, 1), BuildingBlock: UVAHIK_clean_linker_0, # of connection points: 2
#     Edge 35, Type (0, 1), BuildingBlock: UVAHIK_clean_linker_0, # of connection points: 2
# Relax obj value: 0.136
# Max RMSD: 0.270
# Mean RMSD: 0.142
data_MOF--net-pyr--node1-OLANEW_clean_sbu_2--node2-BETFEN_clean_sbu_0--edge1-UVAHIK_clean_linker_0
_symmetry_space_group_name_H-M    P1
_symmetry_Int_Tables_number       1
_symmetry_cell_setting            triclinic
loop_
_symmetry_equiv_pos_as_xyz
'x, y, z'
_cell_length_a     50.337078
_cell_length_b     55.819604
_cell_length_c     52.009332
_cell_angle_alpha  94.000552
_cell_angle_beta   99.246685
_cell_angle_gamma 111.84556
loop_
_atom_site_label
_atom_site_type_symbol
_atom_site_fract_x
_atom_site_fract_y
_atom_site_fract_z
_atom_type_partial_charge
O0 O 0.40083 0.32503 0.21766 0.0
Cd1 Cd 0.40169 0.36748 0.23387 0.0
O2 O 0.36816 0.30751 0.24125 0.0
Cd3 Cd 0.3362 0.27651 0.25689 0.0
O4 O 0.30601 0.25122 0.27869 0.0
C5 C 0.2939 0.26144 0.29322 0.0
O6 O 0.29966 0.2865 0.29413 0.0
C7 C 0.38423 0.30486 0.22565 0.0
C8 C 0.35289 0.37579 0.20967 0.0
O9 O 0.35237 0.36414 0.23008 0.0
O10 O 0.37647 0.38338 0.20061 0.0
O11 O 0.29704 0.83258 0.77538 0.0
Cd12 Cd 0.27016 0.81731 0.72998 0.0
O13 O 0.26129 0.83776 0.79134 0.0
Cd14 Cd 0.23282 0.83157 0.75296 0.0
O15 O 0.20533 0.8438 0.7243 0.0
C16 C 0.19897 0.86229 0.73336 0.0
O17 O 0.20875 0.87184 0.75843 0.0
C18 C 0.28709 0.83827 0.79488 0.0
C19 C 0.29611 0.78884 0.70447 0.0
O20 O 0.30479 0.81359 0.70495 0.0
O21 O 0.27473 0.77743 0.71563 0.0
O22 O 0.69184 0.362 0.81094 0.0
Cd23 Cd 0.65114 0.34117 0.7734 0.0
O24 O 0.67507 0.33054 0.83434 0.0
Cd25 Cd 0.67345 0.3065 0.86629 0.0
O26 O 0.66112 0.27643 0.89221 0.0
C27 C 0.63674 0.27074 0.89937 0.0
O28 O 0.62034 0.28351 0.89154 0.0
C29 C 0.69477 0.35217 0.83203 0.0
C30 C 0.63701 0.37716 0.74531 0.0
O31 O 0.62279 0.36679 0.76275 0.0
O32 O 0.65802 0.37066 0.74124 0.0
O33 O 0.89282 0.71675 0.32563 0.0
Cd34 Cd 0.8691 0.67099 0.30418 0.0
O35 O 0.86044 0.71064 0.35114 0.0
Cd36 Cd 0.83149 0.66941 0.3418 0.0
O37 O 0.79503 0.64617 0.35942 0.0
C38 C 0.78479 0.65999 0.37195 0.0
O39 O 0.79602 0.68538 0.37215 0.0
C40 C 0.88285 0.72559 0.34345 0.0
C41 C 0.89457 0.655 0.26543 0.0
O42 O 0.87565 0.66505 0.25947 0.0
O43 O 0.90211 0.65323 0.28974 0.0
O44 O 0.69329 0.69482 0.73259 0.0
Cd45 Cd 0.72097 0.67701 0.7082 0.0
O46 O 0.68521 0.72599 0.75344 0.0
Cd47 Cd 0.69114 0.76577 0.76773 0.0
O48 O 0.69136 0.79851 0.79339 0.0
C49 C 0.67862 0.8132 0.78527 0.0
O50 O 0.66584 0.80926 0.76037 0.0
C51 C 0.69958 0.71904 0.73859 0.0
C52 C 0.7565 0.66128 0.74397 0.0
O53 O 0.73037 0.64568 0.73328 0.0
O54 O 0.76606 0.68416 0.73726 0.0
O55 O 0.77425 0.21526 0.36508 0.0
Cd56 Cd 0.79951 0.23057 0.41086 0.0
O57 O 0.73909 0.22964 0.3664 0.0
Cd58 Cd 0.75267 0.25214 0.40561 0.0
O59 O 0.73577 0.2776 0.42549 0.0
C60 C 0.70868 0.27182 0.417 0.0
O61 O 0.6942 0.25141 0.3989 0.0
C62 C 0.75087 0.21721 0.354 0.0
C63 C 0.82809 0.19785 0.42605 0.0
O64 O 0.84132 0.219 0.41713 0.0
O65 O 0.8016 0.19249 0.42837 0.0
O66 O 0.44715 0.76409 0.24959 0.0
Cd67 Cd 0.41816 0.71955 0.25717 0.0
O68 O 0.41209 0.77779 0.25353 0.0
Cd69 Cd 0.38169 0.73964 0.25895 0.0
O70 O 0.34494 0.7038 0.24044 0.0
C71 C 0.34607 0.69507 0.21758 0.0
O72 O 0.36943 0.70703 0.208 0.0
C73 C 0.4375 0.7822 0.24909 0.0
C74 C 0.43745 0.69922 0.3008 0.0
O75 O 0.44632 0.69765 0.2792 0.0
O76 O 0.42046 0.7114 0.30216 0.0
O77 O 0.16805 0.40681 0.77042 0.0
Cd78 Cd 0.17462 0.38725 0.72917 0.0
O79 O 0.15332 0.36966 0.78664 0.0
Cd80 Cd 0.15587 0.34474 0.75328 0.0
O81 O 0.14584 0.30936 0.72571 0.0
C82 C 0.119 0.29522 0.71671 0.0
O83 O 0.09916 0.30293 0.72366 0.0
C84 C 0.159 0.39401 0.7888 0.0
C85 C 0.22306 0.416 0.70818 0.0
O86 O 0.19965 0.42051 0.70425 0.0
O87 O 0.22395 0.39856 0.7227 0.0
Pr88 Pr 0.97817 0.98795 0.54163 0.0
Pr89 Pr 0.04041 0.02783 0.52963 0.0
C90 C 0.93005 0.94697 0.54573 0.0
C91 C 0.91652 0.93112 0.56509 0.0
C92 C 0.88615 0.91767 0.55985 0.0
C93 C 0.8725 0.90278 0.578 0.0
C94 C 0.88901 0.90108 0.60183 0.0
C95 C 0.91958 0.91453 0.60698 0.0
C96 C 0.93324 0.92954 0.58877 0.0
C97 C 0.00502 0.0361 0.57374 0.0
C98 C 0.041 0.9837 0.56967 0.0
C99 C 0.08898 0.06974 0.52931 0.0
C100 C 0.10308 0.08443 0.50954 0.0
C101 C 0.0952 0.07348 0.48296 0.0
C102 C 0.10877 0.08762 0.46427 0.0
C103 C 0.13029 0.113 0.47186 0.0
C104 C 0.13789 0.12393 0.49853 0.0
C105 C 0.12439 0.10972 0.51721 0.0
C106 C 0.01219 0.98459 0.48958 0.0
C107 C 0.97745 0.03126 0.50289 0.0
O108 O 0.95327 0.94455 0.53961 0.0
O109 O 0.93168 0.97099 0.54783 0.0
O110 O 0.0181 0.02282 0.56523 0.0
O111 O 0.97687 0.02317 0.5681 0.0
O112 O 0.0564 0.00506 0.56054 0.0
O113 O 0.01203 0.97336 0.56464 0.0
O114 O 0.06438 0.07144 0.53244 0.0
O115 O 0.08856 0.04611 0.52943 0.0
O116 O 0.00368 0.99045 0.50951 0.0
O117 O 0.03754 1.00258 0.48934 0.0
O118 O 0.96339 0.00679 0.50629 0.0
O119 O 0.00558 0.04435 0.51305 0.0
H120 H 0.87293 0.91867 0.54164 0.0
H121 H 0.849 0.89232 0.57322 0.0
H122 H 0.93286 0.91377 0.62523 0.0
H123 H 0.95676 0.93996 0.59319 0.0
H124 H 0.07855 0.05402 0.47668 0.0
H125 H 0.10218 0.0788 0.44384 0.0
H126 H 0.1546 0.14332 0.50502 0.0
H127 H 0.13065 0.11845 0.53767 0.0
Pr128 Pr 0.50442 0.02435 0.08474 0.0
Pr129 Pr 0.55999 0.02167 0.05642 0.0
C130 C 0.46386 0.02014 0.1138 0.0
C131 C 0.45041 0.03785 0.12281 0.0
C132 C 0.43428 0.04737 0.10466 0.0
C133 C 0.42389 0.06585 0.11324 0.0
C134 C 0.42952 0.07541 0.14013 0.0
C135 C 0.44481 0.06523 0.15836 0.0
C136 C 0.45509 0.04659 0.14977 0.0
C137 C 0.52375 0.06328 0.05239 0.0
C138 C 0.57412 0.06017 0.113 0.0
C139 C 0.5988 0.02942 0.02482 0.0
C140 C 0.60807 0.01377 0.00717 0.0
C141 C 0.60395 0.98799 0.01051 0.0
C142 C 0.61191 0.97303 0.99293 0.0
C143 C 0.62386 0.98355 0.9716 0.0
C144 C 0.62796 0.00942 0.9684 0.0
C145 C 0.62015 0.0244 0.98608 0.0
C146 C 0.54215 0.98344 0.08961 0.0
C147 C 0.49053 0.98273 0.03003 0.0
O148 O 0.49149 0.02639 0.12433 0.0
O149 O 0.45728 0.01154 0.0885 0.0
O150 O 0.53277 0.04584 0.05783 0.0
O151 O 0.50212 0.06083 0.06414 0.0
O152 O 0.58326 0.05593 0.09123 0.0
O153 O 0.54686 0.04825 0.11615 0.0
O154 O 0.57244 0.02884 0.01699 0.0
O155 O 0.60545 0.02859 0.05013 0.0
O156 O 0.53206 1.0003 0.08405 0.0
O157 O 0.56318 0.98575 0.07699 0.0
O158 O 0.4816 0.98857 0.05139 0.0
O159 O 0.51771 0.99414 0.02649 0.0
H160 H 0.43014 0.041 0.08373 0.0
H161 H 0.4117 0.07288 0.09871 0.0
H162 H 0.44975 0.07229 0.17919 0.0
H163 H 0.46743 0.03955 0.16416 0.0
H164 H 0.5943 0.97936 0.02653 0.0
H165 H 0.60813 0.95306 0.9957 0.0
H166 H 0.63736 0.01812 0.95231 0.0
H167 H 0.62334 0.04424 0.98317 0.0
Pr168 Pr 0.5169 0.57302 0.56017 0.0
Pr169 Pr 0.50265 0.51282 0.53419 0.0
C170 C 0.51626 0.61987 0.57528 0.0
C171 C 0.49704 0.63134 0.58487 0.0
C172 C 0.47958 0.61993 0.60276 0.0
C173 C 0.46189 0.63154 0.61185 0.0
C174 C 0.46118 0.65465 0.60307 0.0
C175 C 0.47837 0.66565 0.58477 0.0
C176 C 0.49616 0.65414 0.57585 0.0
C177 C 0.54265 0.54438 0.58882 0.0
C178 C 0.45549 0.52323 0.56691 0.0
C179 C 0.50657 0.46611 0.52862 0.0
C180 C 0.52049 0.45225 0.514 0.0
C181 C 0.51021 0.42503 0.5117 0.0
C182 C 0.52537 0.41177 0.50075 0.0
C183 C 0.5512 0.42559 0.49207 0.0
C184 C 0.56087 0.45286 0.49361 0.0
C185 C 0.5456 0.46607 0.50443 0.0
C186 C 0.4845 0.54074 0.49705 0.0
C187 C 0.56109 0.56284 0.52416 0.0
O188 O 0.50821 0.60874 0.55075 0.0
O189 O 0.5273 0.60728 0.59126 0.0
O190 O 0.5169 0.53588 0.57565 0.0
O191 O 0.55633 0.56926 0.5884 0.0
O192 O 0.46392 0.50587 0.55589 0.0
O193 O 0.47019 0.54883 0.56878 0.0
O194 O 0.52451 0.48576 0.5463 0.0
O195 O 0.48468 0.47046 0.51539 0.0
O196 O 0.49629 0.5481 0.5209 0.0
O197 O 0.48028 0.51633 0.49122 0.0
O198 O 0.55108 0.57998 0.53309 0.0
O199 O 0.54904 0.53761 0.52599 0.0
H200 H 0.47975 0.60218 0.60983 0.0
H201 H 0.44916 0.62265 0.62609 0.0
H202 H 0.47794 0.68309 0.57714 0.0
H203 H 0.50928 0.66308 0.56186 0.0
H204 H 0.49097 0.41408 0.51915 0.0
H205 H 0.5175 0.3908 0.50007 0.0
H206 H 0.58047 0.464 0.48677 0.0
H207 H 0.55385 0.48713 0.50603 0.0
Pr208 Pr 0.01885 0.53395 0.01148 0.0
Pr209 Pr 0.02326 0.49472 0.04712 0.0
C210 C 0.00486 0.56556 0.97987 0.0
C211 C 0.98065 0.5725 0.96766 0.0
C212 C 0.98405 0.5987 0.97052 0.0
C213 C 0.96323 0.60632 0.95634 0.0
C214 C 0.93868 0.5879 0.93876 0.0
C215 C 0.93468 0.56146 0.93682 0.0
C216 C 0.95541 0.55382 0.95117 0.0
C217 C 0.07456 0.54801 0.0426 0.0
C218 C 0.99584 0.53498 0.06753 0.0
C219 C 0.0379 0.46335 0.07865 0.0
C220 C 0.06223 0.4552 0.08671 0.0
C221 C 0.06786 0.44993 0.1125 0.0
C222 C 0.09144 0.44306 0.1211 0.0
C223 C 0.1098 0.44127 0.104 0.0
C224 C 0.10393 0.44631 0.07801 0.0
C225 C 0.08039 0.45337 0.06946 0.0
C226 C 0.96726 0.48089 0.01664 0.0
C227 C 0.04756 0.49488 0.99131 0.0
O228 O 0.00435 0.54279 0.97132 0.0
O229 O 0.01497 0.57254 0.00519 0.0
O230 O 0.05088 0.53826 0.0503 0.0
O231 O 0.07015 0.55228 0.01843 0.0
O232 O 0.01164 0.52167 0.07559 0.0
O233 O 0.99087 0.53819 0.04253 0.0
O234 O 0.04272 0.48756 0.08671 0.0
O235 O 0.023 0.45517 0.0545 0.0
O236 O 0.99074 0.4904 0.00845 0.0
O237 O 0.9721 0.47697 0.04092 0.0
O238 O 0.03163 0.50801 0.9832 0.0
O239 O 0.05136 0.4905 0.01603 0.0
H240 H 0.00332 0.61343 0.98314 0.0
H241 H 0.96671 0.62677 0.95873 0.0
H242 H 0.91621 0.54675 0.92334 0.0
H243 H 0.95215 0.53342 0.9486 0.0
H244 H 0.05408 0.4513 0.12608 0.0
H245 H 0.0952 0.43899 0.14112 0.0
H246 H 0.11787 0.4453 0.06448 0.0
H247 H 0.07655 0.45762 0.04951 0.0
C248 C 0.26259 0.25748 0.32683 0.0
C249 C 0.27455 0.24569 0.3097 0.0
C250 C 0.24534 0.24295 0.34324 0.0
C251 C 0.20125 0.17573 0.35255 0.0
H252 H 0.21626 0.20628 0.42536 0.0
C253 C 0.15417 0.11584 0.43273 0.0
C254 C 0.14496 0.12796 0.45209 0.0
C255 C 0.16867 0.13008 0.41455 0.0
C256 C 0.21147 0.19758 0.40501 0.0
H257 H 0.27727 0.20921 0.296 0.0
H258 H 0.24725 0.18387 0.32477 0.0
H259 H 0.24361 0.23127 0.39492 0.0
H260 H 0.14294 0.16435 0.46706 0.0
H261 H 0.16803 0.18918 0.43523 0.0
H262 H 0.16912 0.14201 0.36268 0.0
C263 C 0.25106 0.20434 0.32536 0.0
C264 C 0.22718 0.21191 0.38757 0.0
C265 C 0.2684 0.2189 0.30898 0.0
C266 C 0.1502 0.15456 0.45264 0.0
C267 C 0.1646 0.16878 0.43441 0.0
C268 C 0.18545 0.16141 0.37 0.0
C269 C 0.23958 0.21627 0.34286 0.0
C270 C 0.22233 0.20113 0.36116 0.0
C271 C 0.17419 0.15677 0.41526 0.0
C272 C 0.19045 0.17213 0.39647 0.0
H273 H 0.26677 0.27805 0.3278 0.0
H274 H 0.23647 0.25262 0.35624 0.0
H275 H 0.19676 0.16701 0.33224 0.0
H276 H 0.15078 0.09545 0.432 0.0
H277 H 0.17614 0.1203 0.40032 0.0
C278 C 0.29501 0.8522 0.84335 0.0
C279 C 0.30617 0.84714 0.82141 0.0
C280 C 0.31355 0.86286 0.8679 0.0
C281 C 0.38837 0.87689 0.9058 0.0
H282 H 0.37614 0.9328 0.94405 0.0
C283 C 0.47733 0.95466 0.98635 0.0
C284 C 0.46871 0.96298 0.00859 0.0
C285 C 0.45653 0.93739 0.96534 0.0
C286 C 0.37962 0.91697 0.93384 0.0
H287 H 0.34546 0.84851 0.80832 0.0
H288 H 0.37782 0.86757 0.85092 0.0
H289 H 0.3414 0.90805 0.90412 0.0
H290 H 0.43138 0.95894 0.02643 0.0
H291 H 0.39519 0.92887 0.98975 0.0
H292 H 0.42718 0.8865 0.93526 0.0
C293 C 0.35468 0.86294 0.84932 0.0
C294 C 0.35965 0.90271 0.91095 0.0
C295 C 0.33611 0.85213 0.8248 0.0
C296 C 0.43885 0.95305 0.00961 0.0
C297 C 0.41805 0.9359 0.98853 0.0
C298 C 0.40845 0.89127 0.92866 0.0
C299 C 0.34372 0.86887 0.87107 0.0
C300 C 0.36392 0.88267 0.89647 0.0
C301 C 0.42663 0.92815 0.96603 0.0
C302 C 0.40443 0.91164 0.94277 0.0
H303 H 0.272 0.84838 0.84149 0.0
H304 H 0.30427 0.86671 0.88434 0.0
H305 H 0.39209 0.86132 0.89538 0.0
H306 H 0.50013 0.96181 0.98489 0.0
H307 H 0.46381 0.93196 0.94817 0.0
C308 C 0.64915 0.4128 0.71704 0.0
C309 C 0.62913 0.3958 0.73008 0.0
C310 C 0.64156 0.4303 0.70252 0.0
C311 C 0.58547 0.45965 0.69164 0.0
H312 H 0.61552 0.47668 0.6282 0.0
C313 C 0.53525 0.50479 0.61074 0.0
C314 C 0.55446 0.52833 0.60464 0.0
C315 C 0.54592 0.48981 0.6265 0.0
C316 C 0.60719 0.47221 0.646 0.0
H317 H 0.58531 0.38349 0.73779 0.0
H318 H 0.57153 0.41296 0.71158 0.0
H319 H 0.63067 0.44781 0.6547 0.0
H320 H 0.59987 0.55438 0.60956 0.0
H321 H 0.61873 0.52752 0.63661 0.0
H322 H 0.56088 0.48311 0.68197 0.0
C323 C 0.59352 0.41365 0.71325 0.0
C324 C 0.61595 0.45578 0.66132 0.0
C325 C 0.60132 0.39654 0.72817 0.0
C326 C 0.58463 0.53635 0.61409 0.0
C327 C 0.59539 0.52101 0.62944 0.0
C328 C 0.5763 0.4756 0.67603 0.0
C329 C 0.61355 0.43089 0.70028 0.0
C330 C 0.60507 0.44912 0.68431 0.0
C331 C 0.57605 0.49779 0.63601 0.0
C332 C 0.58697 0.48191 0.65304 0.0
H333 H 0.67084 0.4128 0.71831 0.0
H334 H 0.65783 0.44353 0.6933 0.0
H335 H 0.57715 0.45565 0.70949 0.0
H336 H 0.51187 0.49815 0.6037 0.0
H337 H 0.53063 0.47188 0.63117 0.0
C338 C 0.89808 0.64681 0.21813 0.0
C339 C 0.90643 0.64477 0.24476 0.0
C340 C 0.90808 0.63595 0.19855 0.0
C341 C 0.96518 0.61084 0.18838 0.0
H342 H 0.91138 0.57543 0.12261 0.0
C343 C 0.9912 0.54523 0.11398 0.0
C344 C 0.9843 0.54708 0.08708 0.0
C345 C 0.98161 0.55756 0.13267 0.0
C346 C 0.92679 0.58548 0.14074 0.0
H347 H 0.93213 0.62985 0.27163 0.0
H348 H 0.94924 0.6107 0.23759 0.0
H349 H 0.8954 0.59656 0.15616 0.0
H350 H 0.96145 0.56319 0.05879 0.0
H351 H 0.94468 0.58471 0.09146 0.0
H352 H 0.99645 0.59952 0.17307 0.0
C353 C 0.9353 0.62102 0.23178 0.0
C354 C 0.91765 0.59767 0.16 0.0
C355 C 0.92535 0.63192 0.25135 0.0
C356 C 0.96714 0.56129 0.07932 0.0
C357 C 0.95743 0.57356 0.09805 0.0
C358 C 0.97427 0.5986 0.16917 0.0
C359 C 0.92667 0.62273 0.20507 0.0
C360 C 0.93667 0.6104 0.18417 0.0
C361 C 0.96477 0.57205 0.12501 0.0
C362 C 0.95516 0.58562 0.14515 0.0
H363 H 0.88359 0.65663 0.21234 0.0
H364 H 0.90132 0.63803 0.17827 0.0
H365 H 0.98064 0.62086 0.20649 0.0
H366 H 0.00431 0.53443 0.12073 0.0
H367 H 0.98728 0.55561 0.15318 0.0
C368 C 0.39078 0.27437 0.19218 0.0
C369 C 0.38401 0.27903 0.21671 0.0
C370 C 0.39209 0.25054 0.18399 0.0
C371 C 0.40352 0.19461 0.20998 0.0
H372 H 0.37635 0.1632 0.13682 0.0
C373 C 0.41002 0.09712 0.17228 0.0
C374 C 0.42067 0.09679 0.14891 0.0
C375 C 0.40263 0.11775 0.18075 0.0
C376 C 0.38416 0.1718 0.1573 0.0
H377 H 0.37447 0.26268 0.25236 0.0
H378 H 0.37572 0.22072 0.23774 0.0
H379 H 0.36833 0.20204 0.15122 0.0
H380 H 0.43227 0.11817 0.11637 0.0
H381 H 0.41918 0.15386 0.13098 0.0
H382 H 0.41963 0.16449 0.21595 0.0
C383 C 0.37993 0.23548 0.22476 0.0
C384 C 0.3796 0.19407 0.16555 0.0
C385 C 0.37864 0.25937 0.23295 0.0
C386 C 0.42355 0.11747 0.13415 0.0
C387 C 0.41607 0.13798 0.14255 0.0
C388 C 0.40801 0.17227 0.20173 0.0
C389 C 0.38681 0.23083 0.20023 0.0
C390 C 0.38964 0.20599 0.19191 0.0
C391 C 0.40563 0.13843 0.16598 0.0
C392 C 0.39879 0.16087 0.17521 0.0
H393 H 0.39528 0.28925 0.17933 0.0
H394 H 0.39797 0.24782 0.16519 0.0
H395 H 0.41186 0.20346 0.23036 0.0
H396 H 0.4072 0.08135 0.18396 0.0
H397 H 0.39437 0.11743 0.19877 0.0
C398 C 0.17543 0.89432 0.72663 0.0
C399 C 0.18163 0.87355 0.71613 0.0
C400 C 0.15983 0.90561 0.7105 0.0
C401 C 0.10944 0.894 0.64677 0.0
H402 H 0.13573 0.96936 0.65713 0.0
C403 C 0.04161 0.94801 0.59635 0.0
C404 C 0.05691 0.97091 0.58644 0.0
C405 C 0.05668 0.93576 0.61181 0.0
C406 C 0.12821 0.94831 0.65384 0.0
H407 H 0.17594 0.84812 0.68041 0.0
H408 H 0.14876 0.86801 0.65214 0.0
H409 H 0.16241 0.94851 0.68426 0.0
H410 H 0.10019 0.99879 0.58506 0.0
H411 H 0.12634 0.97736 0.61185 0.0
H412 H 0.07546 0.89389 0.61606 0.0
C413 C 0.15583 0.8754 0.67295 0.0
C414 C 0.14332 0.93634 0.6696 0.0
C415 C 0.17152 0.86409 0.68912 0.0
C416 C 0.08764 0.98126 0.59242 0.0
C417 C 0.10268 0.96904 0.6079 0.0
C418 C 0.09426 0.906 0.63104 0.0
C419 C 0.15001 0.89643 0.68345 0.0
C420 C 0.13408 0.90904 0.66631 0.0
C421 C 0.08739 0.94614 0.61778 0.0
C422 C 0.10347 0.9333 0.63441 0.0
H423 H 0.18275 0.90202 0.74737 0.0
H424 H 0.15531 0.92149 0.71929 0.0
H425 H 0.10163 0.87293 0.64388 0.0
H426 H 0.01794 0.93948 0.59219 0.0
H427 H 0.04424 0.91833 0.61939 0.0
C428 C 0.74702 0.38257 0.84554 0.0
C429 C 0.7215 0.36566 0.85263 0.0
C430 C 0.77239 0.39595 0.86453 0.0
C431 C 0.80926 0.39484 0.93136 0.0
H432 H 0.85727 0.46634 0.92588 0.0
C433 C 0.9133 0.4558 0.00909 0.0
C434 C 0.93803 0.47023 0.99931 0.0
C435 C 0.88585 0.44431 0.99235 0.0
C436 C 0.84422 0.44633 0.92758 0.0
H437 H 0.70235 0.35043 0.88549 0.0
H438 H 0.74689 0.37357 0.91874 0.0
H439 H 0.81111 0.44358 0.89474 0.0
H440 H 0.95341 0.48475 0.96462 0.0
H441 H 0.90552 0.46459 0.93531 0.0
H442 H 0.84254 0.39752 0.96404 0.0
C443 C 0.74735 0.37602 0.89833 0.0
C444 C 0.81776 0.43327 0.90973 0.0
C445 C 0.72187 0.36259 0.87925 0.0
C446 C 0.93471 0.47363 0.97266 0.0
C447 C 0.90724 0.4622 0.95592 0.0
C448 C 0.83573 0.40792 0.94923 0.0
C449 C 0.7729 0.39292 0.89117 0.0
C450 C 0.80013 0.40726 0.91119 0.0
C451 C 0.88255 0.44712 0.9655 0.0
C452 C 0.85368 0.43373 0.94738 0.0
H453 H 0.74751 0.38534 0.82519 0.0
H454 H 0.79178 0.40845 0.85824 0.0
H455 H 0.79638 0.37474 0.93286 0.0
H456 H 0.91521 0.45303 0.02961 0.0
H457 H 0.86721 0.43317 1.00043 0.0
C458 C 0.75084 0.62155 0.38919 0.0
C459 C 0.76168 0.64832 0.38711 0.0
C460 C 0.72988 0.61115 0.40455 0.0
C461 C 0.70007 0.63108 0.45929 0.0
H462 H 0.63423 0.56525 0.43502 0.0
C463 C 0.59916 0.59849 0.50757 0.0
C464 C 0.58608 0.57204 0.5105 0.0
C465 C 0.62162 0.60695 0.49347 0.0
C466 C 0.6527 0.5835 0.44225 0.0
H467 H 0.75848 0.68502 0.39912 0.0
H468 H 0.72194 0.66695 0.42542 0.0
H469 H 0.67116 0.58124 0.40822 0.0
H470 H 0.58684 0.53381 0.50113 0.0
H471 H 0.62612 0.54864 0.47672 0.0
H472 H 0.68154 0.6335 0.49315 0.0
C473 C 0.72994 0.654 0.41567 0.0
C474 C 0.67387 0.59266 0.42688 0.0
C475 C 0.75079 0.66434 0.40038 0.0
C476 C 0.59633 0.55432 0.49927 0.0
C477 C 0.61875 0.56279 0.4851 0.0
C478 C 0.67893 0.62194 0.47461 0.0
C479 C 0.7194 0.62734 0.41818 0.0
C480 C 0.69763 0.61673 0.43506 0.0
C481 C 0.63156 0.58918 0.4819 0.0
C482 C 0.65481 0.59819 0.46617 0.0
H483 H 0.7588 0.60868 0.37925 0.0
H484 H 0.72234 0.59055 0.40618 0.0
H485 H 0.71841 0.64943 0.46648 0.0
H486 H 0.59181 0.61271 0.51582 0.0
H487 H 0.63073 0.62737 0.49112 0.0
C488 C 0.30052 0.37001 0.20555 0.0
C489 C 0.3272 0.38076 0.19723 0.0
C490 C 0.27652 0.37535 0.19438 0.0
C491 C 0.24734 0.40063 0.13686 0.0
H492 H 0.19917 0.41283 0.18319 0.0
C493 C 0.15316 0.44594 0.13826 0.0
C494 C 0.1351 0.4344 0.11349 0.0
C495 C 0.17647 0.43899 0.14771 0.0
C496 C 0.21253 0.40972 0.16999 0.0
H497 H 0.34955 0.40536 0.1705 0.0
H498 H 0.30791 0.41515 0.15143 0.0
H499 H 0.24005 0.40164 0.20096 0.0
H500 H 0.12738 0.40661 0.07911 0.0
H501 H 0.16791 0.39415 0.09574 0.0
H502 H 0.22036 0.40962 0.10606 0.0
C503 C 0.30531 0.40219 0.16623 0.0
C504 C 0.23576 0.40291 0.18012 0.0
C505 C 0.32926 0.39671 0.17729 0.0
C506 C 0.1411 0.41599 0.09819 0.0
C507 C 0.16435 0.4089 0.10771 0.0
C508 C 0.22417 0.40758 0.12673 0.0
C509 C 0.27868 0.39171 0.17475 0.0
C510 C 0.25352 0.39834 0.16371 0.0
C511 C 0.1822 0.4202 0.13268 0.0
C512 C 0.20656 0.41233 0.14321 0.0
H513 H 0.29816 0.35749 0.22075 0.0
H514 H 0.25622 0.36656 0.2011 0.0
H515 H 0.26034 0.39696 0.12358 0.0
H516 H 0.14939 0.46052 0.15031 0.0
H517 H 0.19014 0.44853 0.16675 0.0
C518 C 0.64269 0.23441 0.92259 0.0
C519 C 0.62634 0.24945 0.91547 0.0
C520 C 0.63222 0.21383 0.93707 0.0
C521 C 0.56365 0.16942 0.95405 0.0
H522 H 0.61577 0.15726 0.01028 0.0
C523 C 0.52086 0.09961 0.02828 0.0
C524 C 0.53568 0.08352 0.0358 0.0
C525 C 0.53225 0.11918 0.01301 0.0
C526 C 0.60099 0.16019 0.99442 0.0
H527 H 0.58636 0.25485 0.9184 0.0
H528 H 0.56837 0.21933 0.94384 0.0
H529 H 0.63523 0.19286 0.98505 0.0
H530 H 0.57427 0.07556 0.03377 0.0
H531 H 0.59408 0.10954 0.00671 0.0
H532 H 0.52938 0.13691 0.96351 0.0
C533 C 0.58904 0.22308 0.93787 0.0
C534 C 0.61215 0.18061 0.97995 0.0
C535 C 0.59948 0.24361 0.92341 0.0
C536 C 0.5622 0.08743 0.02789 0.0
C537 C 0.57368 0.10708 0.01266 0.0
C538 C 0.55251 0.14906 0.96852 0.0
C539 C 0.60515 0.2078 0.94474 0.0
C540 C 0.59357 0.18561 0.95971 0.0
C541 C 0.55881 0.12319 0.00501 0.0
C542 C 0.57098 0.1443 0.98902 0.0
H543 H 0.66345 0.23834 0.91675 0.0
H544 H 0.64508 0.20232 0.94181 0.0
H545 H 0.5488 0.17235 0.93825 0.0
H546 H 0.50047 0.09712 0.03428 0.0
H547 H 0.52045 0.13147 0.00783 0.0
C548 C 0.92342 0.77054 0.35058 0.0
C549 C 0.89705 0.75326 0.35605 0.0
C550 C 0.93679 0.79627 0.36367 0.0
C551 C 0.93829 0.83606 0.42443 0.0
H552 H 0.97212 0.89541 0.38864 0.0
C553 C 0.97147 0.94088 0.47474 0.0
C554 C 0.99834 0.95946 0.47192 0.0
C555 C 0.95951 0.91632 0.45942 0.0
C556 C 0.963 0.87901 0.39897 0.0
H557 H 0.86371 0.74991 0.37905 0.0
H558 H 0.88665 0.79428 0.40133 0.0
H559 H 0.95141 0.85132 0.36413 0.0
H560 H 0.03336 0.96733 0.4503 0.0
H561 H 0.01256 0.92437 0.42357 0.0
H562 H 0.94971 0.8635 0.45919 0.0
C563 C 0.89742 0.78798 0.38742 0.0
C564 C 0.95119 0.85375 0.38493 0.0
C565 C 0.88416 0.76247 0.37445 0.0
C566 C 0.01259 0.95334 0.45289 0.0
C567 C 1.00062 0.92876 0.43752 0.0
C568 C 0.95002 0.8612 0.4384 0.0
C569 C 0.92407 0.80515 0.38251 0.0
C570 C 0.93836 0.83199 0.39745 0.0
C571 C 0.97414 0.90979 0.44089 0.0
C572 C 0.96223 0.88304 0.42582 0.0
H573 H 0.93393 0.76411 0.33652 0.0
H574 H 0.95738 0.809 0.35949 0.0
H575 H 0.92919 0.81972 0.43486 0.0
H576 H 0.95985 0.94522 0.48901 0.0
H577 H 0.93879 0.90237 0.46217 0.0
C578 C 0.33679 0.78721 0.68325 0.0
C579 C 0.31094 0.77403 0.6921 0.0
C580 C 0.35155 0.7734 0.67261 0.0
C581 C 0.359 0.7097 0.6706 0.0
H582 H 0.39818 0.73339 0.61325 0.0
C583 C 0.415 0.65255 0.61755 0.0
C584 C 0.44289 0.66745 0.61304 0.0
C585 C 0.39782 0.66473 0.62665 0.0
C586 C 0.38749 0.72664 0.62938 0.0
H587 H 0.27998 0.73593 0.69623 0.0
H588 H 0.30536 0.71175 0.67709 0.0
H589 H 0.3696 0.75589 0.6294 0.0
H590 H 0.47478 0.70691 0.61533 0.0
H591 H 0.44462 0.72804 0.6307 0.0
H592 H 0.37682 0.6803 0.67033 0.0
C593 C 0.3146 0.73283 0.67888 0.0
C594 C 0.37117 0.73957 0.6387 0.0
C595 C 0.29992 0.74668 0.68969 0.0
C596 C 0.45319 0.6948 0.61801 0.0
C597 C 0.43594 0.70695 0.62689 0.0
C598 C 0.37516 0.69664 0.66112 0.0
C599 C 0.34072 0.74603 0.67036 0.0
C600 C 0.35695 0.73145 0.65962 0.0
C601 C 0.40805 0.69207 0.63124 0.0
C602 C 0.38983 0.70515 0.6406 0.0
H603 H 0.34597 0.80829 0.68496 0.0
H604 H 0.37184 0.78428 0.66668 0.0
H605 H 0.34872 0.70312 0.68699 0.0
H606 H 0.40619 0.63147 0.61361 0.0
H607 H 0.3763 0.65277 0.62962 0.0
C608 C 0.72707 0.73311 0.70284 0.0
C609 C 0.72304 0.73847 0.72837 0.0
C610 C 0.74852 0.75157 0.69254 0.0
C611 C 0.79166 0.8221 0.6997 0.0
H612 H 0.83489 0.80058 0.65399 0.0
C613 C 0.84764 0.88545 0.62585 0.0
C614 C 0.87416 0.88508 0.62094 0.0
C615 C 0.83248 0.8691 0.64231 0.0
C616 C 0.82334 0.80702 0.66699 0.0
H617 H 0.73905 0.76694 0.76355 0.0
H618 H 0.77642 0.79944 0.74547 0.0
H619 H 0.80293 0.76866 0.67674 0.0
H620 H 0.90594 0.86772 0.63012 0.0
H621 H 0.87962 0.83936 0.65923 0.0
H622 H 0.81206 0.86047 0.68991 0.0
C623 C 0.76267 0.78108 0.73326 0.0
C624 C 0.80473 0.78864 0.67979 0.0
C625 C 0.74118 0.76254 0.74358 0.0
C626 C 0.88564 0.86855 0.63358 0.0
C627 C 0.87041 0.85213 0.65005 0.0
C628 C 0.81027 0.84049 0.68689 0.0
C629 C 0.76647 0.77585 0.70755 0.0
C630 C 0.78826 0.79586 0.69591 0.0
C631 C 0.84345 0.85196 0.65433 0.0
C632 C 0.82594 0.83308 0.67001 0.0
H633 H 0.71305 0.7149 0.6905 0.0
H634 H 0.75045 0.74706 0.6725 0.0
H635 H 0.77918 0.8283 0.71185 0.0
H636 H 0.8384 0.89822 0.61671 0.0
H637 H 0.81165 0.86932 0.64494 0.0
C638 C 0.70818 0.20249 0.31632 0.0
C639 C 0.73648 0.20425 0.32676 0.0
C640 C 0.69383 0.18938 0.29112 0.0
C641 C 0.69385 0.13952 0.24052 0.0
H642 H 0.63919 0.1621 0.19807 0.0
C643 C 0.62555 0.08568 0.13739 0.0
C644 C 0.59538 0.07917 0.1351 0.0
C645 C 0.64544 0.10291 0.15895 0.0
C646 C 0.65444 0.15563 0.20972 0.0
H647 H 0.77223 0.19415 0.31859 0.0
H648 H 0.7474 0.17173 0.2742 0.0
H649 H 0.67002 0.18931 0.23881 0.0
H650 H 0.56247 0.08612 0.1532 0.0
H651 H 0.59722 0.11648 0.19052 0.0
H652 H 0.67811 0.10583 0.21116 0.0
C653 C 0.73606 0.18005 0.28578 0.0
C654 C 0.672 0.1711 0.23312 0.0
C655 C 0.75036 0.19301 0.31117 0.0
C656 C 0.58555 0.09064 0.15447 0.0
C657 C 0.60544 0.10815 0.17573 0.0
C658 C 0.67652 0.12421 0.2169 0.0
C659 C 0.70751 0.1779 0.27553 0.0
C660 C 0.69139 0.16293 0.24917 0.0
C661 C 0.63552 0.11428 0.17829 0.0
C662 C 0.65619 0.13184 0.20164 0.0
H663 H 0.69674 0.21077 0.32783 0.0
H664 H 0.67166 0.18768 0.28418 0.0
H665 H 0.70827 0.13245 0.25248 0.0
H666 H 0.63376 0.07709 0.12281 0.0
H667 H 0.66855 0.10741 0.16049 0.0
C668 C 0.43167 0.68423 0.34475 0.0
C669 C 0.44508 0.6859 0.32284 0.0
C670 C 0.4368 0.66963 0.36437 0.0
C671 C 0.46183 0.61577 0.37524 0.0
H672 H 0.46517 0.63709 0.44863 0.0
C673 C 0.46091 0.54664 0.45314 0.0
C674 C 0.47888 0.55761 0.47802 0.0
C675 C 0.4566 0.56263 0.43469 0.0
C676 C 0.46453 0.63091 0.42825 0.0
H677 H 0.47527 0.67428 0.30493 0.0
H678 H 0.48475 0.64938 0.33938 0.0
H679 H 0.45994 0.66529 0.41616 0.0
H680 H 0.50712 0.5938 0.50283 0.0
H681 H 0.49987 0.62177 0.47079 0.0
H682 H 0.46721 0.58175 0.38738 0.0
C683 C 0.46969 0.65881 0.34113 0.0
C684 C 0.46118 0.64698 0.40955 0.0
C685 C 0.46445 0.6733 0.32145 0.0
C686 C 0.49252 0.58485 0.4841 0.0
C687 C 0.48838 0.60086 0.46565 0.0
C688 C 0.46529 0.59976 0.39394 0.0
C689 C 0.45558 0.65642 0.36266 0.0
C690 C 0.45975 0.63962 0.38277 0.0
C691 C 0.47043 0.58998 0.44063 0.0
C692 C 0.46662 0.60706 0.42071 0.0
H693 H 0.41653 0.69359 0.3464 0.0
H694 H 0.42529 0.66805 0.38047 0.0
H695 H 0.46041 0.60923 0.35478 0.0
H696 H 0.45017 0.52567 0.44792 0.0
H697 H 0.44231 0.55353 0.4158 0.0
C698 C 0.14756 0.39409 0.8341 0.0
C699 C 0.15293 0.40684 0.81191 0.0
C700 C 0.13904 0.40492 0.85483 0.0
C701 C 0.10082 0.44739 0.86762 0.0
H702 H 0.13231 0.44971 0.94128 0.0
C703 C 0.06476 0.49637 0.94869 0.0
C704 C 0.06189 0.48563 0.97224 0.0
C705 C 0.07759 0.48759 0.9302 0.0
C706 C 0.12294 0.44888 0.92083 0.0
H707 H 0.15428 0.44139 0.79456 0.0
H708 H 0.13906 0.4601 0.83061 0.0
H709 H 0.15213 0.43324 0.90736 0.0
H710 H 0.07059 0.4573 0.99492 0.0
H711 H 0.09211 0.44122 0.9622 0.0
H712 H 0.07097 0.46206 0.88068 0.0
C713 C 0.14145 0.44169 0.8319 0.0
C714 C 0.13445 0.43957 0.90139 0.0
C715 C 0.15036 0.43105 0.81132 0.0
C716 C 0.07251 0.46602 0.97699 0.0
C717 C 0.08503 0.45692 0.95824 0.0
C718 C 0.08906 0.45635 0.88696 0.0
C719 C 0.13531 0.42858 0.85372 0.0
C720 C 0.12362 0.43885 0.87456 0.0
C721 C 0.08756 0.46747 0.93446 0.0
C722 C 0.10003 0.45742 0.9139 0.0
H723 H 0.14938 0.37545 0.83525 0.0
H724 H 0.13433 0.39428 0.87129 0.0
H725 H 0.09159 0.4466 0.84712 0.0
H726 H 0.05723 0.51179 0.94453 0.0
H727 H 0.07981 0.49679 0.91258 0.0
C728 C 0.66185 0.84921 0.79554 0.0
C729 C 0.67637 0.83315 0.80414 0.0
C730 C 0.65813 0.86685 0.81365 0.0
C731 C 0.65422 0.87743 0.88319 0.0
H732 H 0.66414 0.94747 0.87004 0.0
C733 C 0.64618 0.95154 0.96131 0.0
C734 C 0.63157 0.96746 0.95251 0.0
C735 C 0.65303 0.93609 0.9433 0.0
C736 C 0.66097 0.92787 0.87388 0.0
H737 H 0.69908 0.82356 0.83846 0.0
H738 H 0.69263 0.85434 0.86995 0.0
H739 H 0.67381 0.91903 0.83823 0.0
H740 H 0.61247 0.97948 0.91795 0.0
H741 H 0.62408 0.95229 0.8865 0.0
H742 H 0.64094 0.88598 0.91856 0.0
C743 C 0.68384 0.85308 0.84925 0.0
C744 C 0.66657 0.91161 0.85567 0.0
C745 C 0.68767 0.83555 0.83116 0.0
C746 C 0.62409 0.96769 0.92534 0.0
C747 C 0.6308 0.95213 0.90732 0.0
C748 C 0.6485 0.89361 0.90131 0.0
C749 C 0.66873 0.8687 0.84073 0.0
C750 C 0.66326 0.88622 0.86015 0.0
C751 C 0.64527 0.93607 0.91608 0.0
C752 C 0.65179 0.91903 0.89689 0.0
H753 H 0.6529 0.84786 0.77486 0.0
H754 H 0.64621 0.8785 0.80651 0.0
H755 H 0.65099 0.8578 0.88698 0.0
H756 H 0.65259 0.95124 0.98214 0.0
H757 H 0.66463 0.9243 0.95075 0.0
C758 C 0.8725 0.18688 0.43247 0.0
C759 C 0.8427 0.17981 0.4328 0.0
C760 C 0.88609 0.16957 0.43816 0.0
C761 C 0.87747 0.11027 0.46985 0.0
H762 H 0.93658 0.10704 0.43179 0.0
C763 C 0.93006 0.03507 0.48491 0.0
C764 C 0.96076 0.0454 0.4895 0.0
C765 C 0.91453 0.04995 0.47549 0.0
C766 C 0.92018 0.1078 0.44264 0.0
H767 H 0.80376 0.14892 0.43925 0.0
H768 H 0.82726 0.11857 0.44867 0.0
H769 H 0.91169 0.13617 0.42081 0.0
H770 H 0.99912 0.07902 0.48654 0.0
H771 H 0.97202 0.1048 0.46995 0.0
H772 H 0.88598 0.08184 0.49161 0.0
C773 C 0.84034 0.13768 0.44451 0.0
C774 C 0.906 0.12457 0.43645 0.0
C775 C 0.82681 0.15506 0.439 0.0
C776 C 0.97549 0.07046 0.4833 0.0
C777 C 0.95995 0.08523 0.47367 0.0
C778 C 0.89151 0.09337 0.4759 0.0
C779 C 0.87016 0.14468 0.44414 0.0
C780 C 0.88464 0.12621 0.45014 0.0
C781 C 0.92935 0.07536 0.47021 0.0
C782 C 0.9132 0.09211 0.46252 0.0
H783 H 0.8854 0.20584 0.42786 0.0
H784 H 0.90919 0.17584 0.43813 0.0
H785 H 0.8615 0.11128 0.4811 0.0
H786 H 0.91801 0.01586 0.4895 0.0
H787 H 0.89092 0.04171 0.4727 0.0
C788 C 0.32065 0.66702 0.1743 0.0
C789 C 0.32025 0.67406 0.20067 0.0
C790 C 0.29534 0.64959 0.15727 0.0
C791 C 0.22149 0.59968 0.15359 0.0
H792 H 0.20313 0.625 0.08824 0.0
C793 C 0.10596 0.55827 0.08753 0.0
C794 C 0.10352 0.55796 0.06022 0.0
C795 C 0.13334 0.56946 0.10439 0.0
C796 C 0.20808 0.61728 0.1061 0.0
H797 H 0.29336 0.66718 0.23023 0.0
H798 H 0.24909 0.63661 0.2004 0.0
H799 H 0.24942 0.64921 0.11833 0.0
H800 H 0.12769 0.5677 0.02894 0.0
H801 H 0.17558 0.58658 0.05823 0.0
H802 H 0.18005 0.56772 0.14134 0.0
C803 C 0.26904 0.64464 0.19296 0.0
C804 C 0.23464 0.63125 0.12341 0.0
C805 C 0.29436 0.66223 0.20999 0.0
C806 C 0.12897 0.56802 0.04997 0.0
C807 C 0.15637 0.57896 0.06678 0.0
C808 C 0.19494 0.58552 0.13612 0.0
C809 C 0.26911 0.63868 0.16627 0.0
C810 C 0.24154 0.62275 0.14743 0.0
C811 C 0.15888 0.58033 0.09425 0.0
C812 C 0.18779 0.59429 0.11225 0.0
H813 H 0.34026 0.67561 0.1665 0.0
H814 H 0.29613 0.64505 0.13689 0.0
H815 H 0.22636 0.59258 0.17188 0.0
H816 H 0.08664 0.55055 0.09594 0.0
H817 H 0.13434 0.57038 0.1254 0.0
C818 C 0.24966 0.45221 0.68407 0.0
C819 C 0.24764 0.42946 0.69515 0.0
C820 C 0.27189 0.46387 0.67033 0.0
C821 C 0.31764 0.44774 0.63063 0.0
H822 H 0.36946 0.52078 0.64617 0.0
C823 C 0.41939 0.48747 0.58485 0.0
C824 C 0.42973 0.51336 0.57956 0.0
C825 C 0.39644 0.47822 0.59822 0.0
C826 C 0.35487 0.50046 0.64116 0.0
H827 H 0.26757 0.4013 0.70071 0.0
H828 H 0.30585 0.42131 0.67619 0.0
H829 H 0.33109 0.50324 0.67129 0.0
H830 H 0.42359 0.54975 0.58395 0.0
H831 H 0.38261 0.53329 0.60639 0.0
H832 H 0.34038 0.44479 0.60006 0.0
C833 C 0.29037 0.4302 0.67833 0.0
C834 C 0.333 0.49041 0.65572 0.0
C835 C 0.26855 0.41884 0.69249 0.0
C836 C 0.41617 0.52969 0.58769 0.0
C837 C 0.3928 0.52027 0.60079 0.0
C838 C 0.33906 0.45783 0.61577 0.0
C839 C 0.29214 0.4527 0.66694 0.0
C840 C 0.3145 0.46386 0.65086 0.0
C841 C 0.3827 0.4944 0.6064 0.0
C842 C 0.35841 0.48424 0.62109 0.0
H843 H 0.23391 0.46087 0.68581 0.0
H844 H 0.27272 0.48117 0.66167 0.0
H845 H 0.30333 0.42729 0.62616 0.0
H846 H 0.42953 0.47439 0.57928 0.0
H847 H 0.39001 0.45843 0.60267 0.0
C848 C 0.8041 0.66979 0.7742 0.0
C849 C 0.77478 0.65336 0.76404 0.0
C850 C 0.82105 0.6627 0.79381 0.0
C851 C 0.82436 0.60574 0.82479 0.0
H852 H 0.87936 0.65896 0.88075 0.0
C853 C 0.92952 0.61932 0.90981 0.0
C854 C 0.91846 0.5964 0.9212 0.0
C855 C 0.911 0.62656 0.89195 0.0
C856 C 0.86419 0.64392 0.86517 0.0
H857 H 0.74023 0.61658 0.76648 0.0
H858 H 0.76961 0.60442 0.80099 0.0
H859 H 0.84909 0.67081 0.84667 0.0
H860 H 0.87896 0.56356 0.92326 0.0
H861 H 0.84667 0.57606 0.89173 0.0
H862 H 0.83945 0.57886 0.84345 0.0
C863 C 0.77971 0.62259 0.7935 0.0
C864 C 0.84692 0.6507 0.84557 0.0
C865 C 0.76282 0.62961 0.77379 0.0
C866 C 0.88829 0.58112 0.91458 0.0
C867 C 0.86978 0.58828 0.89655 0.0
C868 C 0.8415 0.59894 0.84449 0.0
C869 C 0.80902 0.63908 0.80384 0.0
C870 C 0.82695 0.63174 0.82501 0.0
C871 C 0.881 0.61097 0.8849 0.0
C872 C 0.86175 0.61798 0.86477 0.0
H873 H 0.81401 0.68818 0.76703 0.0
H874 H 0.84369 0.67566 0.80096 0.0
H875 H 0.80953 0.5907 0.80906 0.0
H876 H 0.95269 0.63131 0.91399 0.0
H877 H 0.92035 0.64395 0.88302 0.0
C878 C 0.47934 0.81058 0.23013 0.0
C879 C 0.45377 0.80706 0.23974 0.0
C880 C 0.49162 0.83181 0.21695 0.0
C881 C 0.49015 0.89581 0.2023 0.0
H882 H 0.51122 0.87759 0.13739 0.0
C883 C 0.50992 0.96324 0.12098 0.0
C884 C 0.53288 0.96459 0.10821 0.0
C885 C 0.50151 0.94519 0.13858 0.0
C886 C 0.50582 0.88317 0.15561 0.0
H887 H 0.4222 0.82413 0.24446 0.0
H888 H 0.44348 0.86092 0.22143 0.0
H889 H 0.49619 0.84512 0.16664 0.0
H890 H 0.56527 0.94848 0.10398 0.0
H891 H 0.55092 0.91733 0.13472 0.0
H892 H 0.49954 0.93386 0.19099 0.0
C893 C 0.45415 0.84737 0.22412 0.0
C894 C 0.49726 0.86452 0.17246 0.0
C895 C 0.44187 0.82616 0.23728 0.0
C896 C 0.54736 0.94776 0.11343 0.0
C897 C 0.53902 0.9298 0.13097 0.0
C898 C 0.49876 0.91452 0.18541 0.0
C899 C 0.47865 0.85003 0.21308 0.0
C900 C 0.48926 0.87055 0.19601 0.0
C901 C 0.51589 0.92816 0.14369 0.0
C902 C 0.50668 0.90841 0.16182 0.0
H903 H 0.48919 0.79635 0.23176 0.0
H904 H 0.51086 0.83356 0.20917 0.0
H905 H 0.48436 0.90118 0.22038 0.0
H906 H 0.49837 0.97599 0.11727 0.0
H907 H 0.48341 0.94428 0.14782 0.0
C908 C 0.08013 0.25495 0.68959 0.0
C909 C 0.10993 0.26993 0.69962 0.0
C910 C 0.07116 0.2307 0.67426 0.0
C911 C 0.09454 0.17676 0.65994 0.0
H912 H 0.02897 0.15564 0.60098 0.0
C913 C 0.04991 0.07609 0.59343 0.0
C914 C 0.01933 0.06327 0.58718 0.0
C915 C 0.06303 0.10201 0.60583 0.0
C916 C 0.04719 0.16116 0.61748 0.0
H917 H 0.15374 0.27117 0.70112 0.0
H918 H 0.13801 0.22874 0.67414 0.0
H919 H 0.04827 0.19975 0.62461 0.0
H920 H 0.97852 0.06741 0.58903 0.0
H921 H 1.00123 0.11232 0.61073 0.0
H922 H 0.09315 0.13795 0.6529 0.0
C923 C 0.12159 0.23575 0.67838 0.0
C924 C 0.05826 0.18646 0.63105 0.0
C925 C 0.1306 0.26013 0.69371 0.0
C926 C 1.00215 0.07678 0.59357 0.0
C927 C 0.01518 0.10261 0.60583 0.0
C928 C 0.08346 0.15139 0.64631 0.0
C929 C 0.09172 0.22071 0.66852 0.0
C930 C 0.08172 0.19446 0.65276 0.0
C931 C 0.04577 0.11561 0.61206 0.0
C932 C 0.05929 0.14315 0.62523 0.0
H933 H 0.06358 0.26182 0.69378 0.0
H934 H 0.04797 0.21951 0.66737 0.0
H935 H 0.11247 0.18219 0.67669 0.0
H936 H 0.06368 0.06612 0.58869 0.0
H937 H 0.08664 0.11151 0.61022 0.0
C938 C 0.70941 0.31202 0.44277 0.0
C939 C 0.69379 0.28837 0.42589 0.0
C940 C 0.69521 0.32807 0.44983 0.0
C941 C 0.62845 0.34079 0.42792 0.0
H942 H 0.64567 0.37569 0.4993 0.0
C943 C 0.55498 0.38769 0.46612 0.0
C944 C 0.56871 0.41168 0.48273 0.0
C945 C 0.57136 0.37397 0.45853 0.0
C946 C 0.64088 0.36633 0.4792 0.0
H947 H 0.65087 0.26275 0.40372 0.0
H948 H 0.6262 0.29039 0.41632 0.0
H949 H 0.67228 0.34911 0.48788 0.0
H950 H 0.61045 0.44011 0.50432 0.0
H951 H 0.63906 0.41627 0.49083 0.0
H952 H 0.5968 0.35772 0.41933 0.0
C953 C 0.64949 0.29688 0.42369 0.0
C954 C 0.65614 0.35111 0.47265 0.0
C955 C 0.66364 0.28092 0.41663 0.0
C956 C 0.59924 0.4218 0.49128 0.0
C957 C 0.6156 0.40801 0.48381 0.0
C958 C 0.61315 0.35593 0.43449 0.0
C959 C 0.66511 0.32078 0.44015 0.0
C960 C 0.64989 0.33794 0.44698 0.0
C961 C 0.60182 0.38385 0.46748 0.0
C962 C 0.61901 0.3687 0.46025 0.0
H963 H 0.73267 0.31836 0.45019 0.0
H964 H 0.70794 0.34645 0.4624 0.0
H965 H 0.6235 0.33137 0.40783 0.0
H966 H 0.53153 0.37947 0.45905 0.0
H967 H 0.56004 0.35531 0.44611 0.0
loop_
_geom_bond_atom_site_label_1
_geom_bond_atom_site_label_2
_geom_bond_distance
_geom_bond_site_symmetry_2
_ccdc_geom_bond_type
O0 Cd1 2.300 . S
O0 C7 1.275 . S
Cd1 O0 2.300 . S
Cd1 O9 2.381 . S
Cd1 O10 2.378 . S
O2 Cd3 2.385 . S
O2 C7 1.255 . S
Cd3 O2 2.385 . S
Cd3 O4 2.317 . S
O4 Cd3 2.317 . S
O4 C5 1.232 . S
C5 O4 1.232 . S
C5 O6 1.218 . S
O6 C5 1.218 . S
C7 O0 1.275 . S
C7 O2 1.255 . S
C8 O9 1.258 . S
C8 O10 1.256 . S
O9 Cd1 2.381 . S
O9 C8 1.258 . S
O10 Cd1 2.378 . S
O10 C8 1.256 . S
O11 Cd12 2.300 . S
O11 C18 1.275 . S
Cd12 O11 2.300 . S
Cd12 O20 2.381 . S
Cd12 O21 2.378 . S
O13 Cd14 2.385 . S
O13 C18 1.255 . S
Cd14 O13 2.385 . S
Cd14 O15 2.317 . S
O15 Cd14 2.317 . S
O15 C16 1.232 . S
C16 O15 1.232 . S
C16 O17 1.218 . S
O17 C16 1.218 . S
C18 O11 1.275 . S
C18 O13 1.255 . S
C19 O20 1.258 . S
C19 O21 1.256 . S
O20 Cd12 2.381 . S
O20 C19 1.258 . S
O21 Cd12 2.378 . S
O21 C19 1.256 . S
O22 Cd23 2.300 . S
O22 C29 1.275 . S
Cd23 O22 2.300 . S
Cd23 O31 2.381 . S
Cd23 O32 2.378 . S
O24 Cd25 2.385 . S
O24 C29 1.255 . S
Cd25 O24 2.385 . S
Cd25 O26 2.317 . S
O26 Cd25 2.317 . S
O26 C27 1.232 . S
C27 O26 1.232 . S
C27 O28 1.218 . S
O28 C27 1.218 . S
C29 O22 1.275 . S
C29 O24 1.255 . S
C30 O31 1.258 . S
C30 O32 1.256 . S
O31 Cd23 2.381 . S
O31 C30 1.258 . S
O32 Cd23 2.378 . S
O32 C30 1.256 . S
O33 Cd34 2.300 . S
O33 C40 1.275 . S
Cd34 O33 2.300 . S
Cd34 O42 2.381 . S
Cd34 O43 2.378 . S
O35 Cd36 2.385 . S
O35 C40 1.255 . S
Cd36 O35 2.385 . S
Cd36 O37 2.317 . S
O37 Cd36 2.317 . S
O37 C38 1.232 . S
C38 O37 1.232 . S
C38 O39 1.218 . S
O39 C38 1.218 . S
C40 O33 1.275 . S
C40 O35 1.255 . S
C41 O42 1.258 . S
C41 O43 1.256 . S
O42 Cd34 2.381 . S
O42 C41 1.258 . S
O43 Cd34 2.378 . S
O43 C41 1.256 . S
O44 Cd45 2.300 . S
O44 C51 1.275 . S
Cd45 O44 2.300 . S
Cd45 O53 2.381 . S
Cd45 O54 2.378 . S
O46 Cd47 2.385 . S
O46 C51 1.255 . S
Cd47 O46 2.385 . S
Cd47 O48 2.317 . S
O48 Cd47 2.317 . S
O48 C49 1.232 . S
C49 O48 1.232 . S
C49 O50 1.218 . S
O50 C49 1.218 . S
C51 O44 1.275 . S
C51 O46 1.255 . S
C52 O53 1.258 . S
C52 O54 1.256 . S
O53 Cd45 2.381 . S
O53 C52 1.258 . S
O54 Cd45 2.378 . S
O54 C52 1.256 . S
O55 Cd56 2.300 . S
O55 C62 1.275 . S
Cd56 O55 2.300 . S
Cd56 O64 2.381 . S
Cd56 O65 2.378 . S
O57 Cd58 2.385 . S
O57 C62 1.255 . S
Cd58 O57 2.385 . S
Cd58 O59 2.317 . S
O59 Cd58 2.317 . S
O59 C60 1.232 . S
C60 O59 1.232 . S
C60 O61 1.218 . S
O61 C60 1.218 . S
C62 O55 1.275 . S
C62 O57 1.255 . S
C63 O64 1.258 . S
C63 O65 1.256 . S
O64 Cd56 2.381 . S
O64 C63 1.258 . S
O65 Cd56 2.378 . S
O65 C63 1.256 . S
O66 Cd67 2.300 . S
O66 C73 1.275 . S
Cd67 O66 2.300 . S
Cd67 O75 2.381 . S
Cd67 O76 2.378 . S
O68 Cd69 2.385 . S
O68 C73 1.255 . S
Cd69 O68 2.385 . S
Cd69 O70 2.317 . S
O70 Cd69 2.317 . S
O70 C71 1.232 . S
C71 O70 1.232 . S
C71 O72 1.218 . S
O72 C71 1.218 . S
C73 O66 1.275 . S
C73 O68 1.255 . S
C74 O75 1.258 . S
C74 O76 1.256 . S
O75 Cd67 2.381 . S
O75 C74 1.258 . S
O76 Cd67 2.378 . S
O76 C74 1.256 . S
O77 Cd78 2.300 . S
O77 C84 1.275 . S
Cd78 O77 2.300 . S
Cd78 O86 2.381 . S
Cd78 O87 2.378 . S
O79 Cd80 2.385 . S
O79 C84 1.255 . S
Cd80 O79 2.385 . S
Cd80 O81 2.317 . S
O81 Cd80 2.317 . S
O81 C82 1.232 . S
C82 O81 1.232 . S
C82 O83 1.218 . S
O83 C82 1.218 . S
C84 O77 1.275 . S
C84 O79 1.255 . S
C85 O86 1.258 . S
C85 O87 1.256 . S
O86 Cd78 2.381 . S
O86 C85 1.258 . S
O87 Cd78 2.378 . S
O87 C85 1.256 . S
Pr88 C90 2.877 1_545 S
Pr88 O108 2.559 1_545 S
Pr88 O109 2.489 1_545 S
Pr88 O110 2.697 1_655 S
Pr88 O111 2.515 1_655 S
Pr88 O113 2.434 1_645 S
Pr88 O116 2.433 1_545 S
Pr88 O118 2.441 . S
Pr89 C99 2.880 . S
Pr89 O110 2.436 . S
Pr89 O112 2.438 1_545 S
Pr89 O114 2.562 . S
Pr89 O115 2.490 . S
Pr89 O116 2.695 1_445 S
Pr89 O117 2.512 1_545 S
Pr89 O119 2.437 1_455 S
C90 Pr88 2.877 1_565 S
C90 C91 1.491 . S
C90 O108 1.254 . S
C90 O109 1.225 . S
C91 C90 1.491 . S
C91 C92 1.392 . S
C91 C96 1.356 . S
C92 C91 1.392 . S
C92 C93 1.368 . S
C92 H120 0.929 . S
C93 C92 1.368 . S
C93 C94 1.386 . S
C93 H121 0.929 . S
C94 C93 1.386 . S
C94 C95 1.373 . S
C95 C94 1.373 . S
C95 C96 1.409 . S
C95 H122 0.931 . S
C96 C91 1.356 . S
C96 C95 1.409 . S
C96 H123 0.930 . S
C97 O110 1.270 . S
C97 O111 1.248 . S
C98 O112 1.267 . S
C98 O113 1.278 . S
C99 Pr89 2.880 . S
C99 C100 1.491 . S
C99 O114 1.254 . S
C99 O115 1.225 . S
C100 C99 1.491 . S
C100 C101 1.392 . S
C100 C105 1.356 . S
C101 C100 1.392 . S
C101 C102 1.368 . S
C101 H124 0.929 . S
C102 C101 1.368 . S
C102 C103 1.386 . S
C102 H125 0.929 . S
C103 C102 1.386 . S
C103 C104 1.373 . S
C104 C103 1.373 . S
C104 C105 1.409 . S
C104 H126 0.931 . S
C105 C100 1.356 . S
C105 C104 1.409 . S
C105 H127 0.930 . S
C106 O116 1.270 . S
C106 O117 1.248 1_655 S
C107 O118 1.267 . S
C107 O119 1.278 . S
O108 Pr88 2.559 1_565 S
O108 C90 1.254 . S
O109 Pr88 2.489 1_565 S
O109 C90 1.225 . S
O110 Pr88 2.697 1_455 S
O110 Pr89 2.436 . S
O110 C97 1.270 . S
O111 Pr88 2.515 1_455 S
O111 C97 1.248 . S
O112 Pr89 2.438 1_565 S
O112 C98 1.267 . S
O113 Pr88 2.434 1_465 S
O113 C98 1.278 . S
O114 Pr89 2.562 . S
O114 C99 1.254 . S
O115 Pr89 2.490 . S
O115 C99 1.225 . S
O116 Pr88 2.433 1_565 S
O116 Pr89 2.695 1_665 S
O116 C106 1.270 . S
O117 Pr89 2.512 1_565 S
O117 C106 1.248 1_455 S
O118 Pr88 2.441 . S
O118 C107 1.267 . S
O119 Pr89 2.437 1_655 S
O119 C107 1.278 . S
H120 C92 0.929 . S
H121 C93 0.929 . S
H122 C95 0.931 . S
H123 C96 0.930 . S
H124 C101 0.929 . S
H125 C102 0.929 . S
H126 C104 0.931 . S
H127 C105 0.930 . S
Pr128 C130 2.880 . S
Pr128 O148 2.562 . S
Pr128 O149 2.490 . S
Pr128 O150 2.695 . S
Pr128 O151 2.512 . S
Pr128 O153 2.437 . S
Pr128 O156 2.436 . S
Pr128 O158 2.438 . S
Pr129 C139 2.880 1_545 S
Pr129 O150 2.436 . S
Pr129 O152 2.438 . S
Pr129 O154 2.570 . S
Pr129 O155 2.490 1_545 S
Pr129 O156 2.695 . S
Pr129 O157 2.512 1_545 S
Pr129 O159 2.437 1_545 S
C130 Pr128 2.880 . S
C130 C131 1.491 . S
C130 O148 1.254 . S
C130 O149 1.225 . S
C131 C130 1.491 . S
C131 C132 1.392 . S
C131 C136 1.356 . S
C132 C131 1.392 . S
C132 C133 1.368 . S
C132 H160 0.929 . S
C133 C132 1.368 . S
C133 C134 1.386 . S
C133 H161 0.929 . S
C134 C133 1.386 . S
C134 C135 1.373 . S
C135 C134 1.373 . S
C135 C136 1.409 . S
C135 H162 0.931 . S
C136 C131 1.356 . S
C136 C135 1.409 . S
C136 H163 0.930 . S
C137 O150 1.270 . S
C137 O151 1.248 . S
C138 O152 1.267 . S
C138 O153 1.278 . S
C139 Pr129 2.880 1_565 S
C139 C140 1.491 1_554 S
C139 O154 1.256 1_565 S
C139 O155 1.225 . S
C140 C139 1.491 1_556 S
C140 C141 1.392 . S
C140 C145 1.356 . S
C141 C140 1.392 . S
C141 C142 1.368 . S
C141 H164 0.929 1_556 S
C142 C141 1.368 . S
C142 C143 1.386 . S
C142 H165 0.929 . S
C143 C142 1.386 . S
C143 C144 1.373 . S
C144 C143 1.373 . S
C144 C145 1.409 . S
C144 H166 0.931 . S
C145 C140 1.356 . S
C145 C144 1.409 . S
C145 H167 0.930 . S
C146 O156 1.270 1_565 S
C146 O157 1.248 . S
C147 O158 1.267 1_565 S
C147 O159 1.278 . S
O148 Pr128 2.562 . S
O148 C130 1.254 . S
O149 Pr128 2.490 . S
O149 C130 1.225 . S
O150 Pr128 2.695 . S
O150 Pr129 2.436 . S
O150 C137 1.270 . S
O151 Pr128 2.512 . S
O151 C137 1.248 . S
O152 Pr129 2.438 . S
O152 C138 1.267 . S
O153 Pr128 2.437 . S
O153 C138 1.278 . S
O154 Pr129 2.570 . S
O154 C139 1.256 1_545 S
O155 Pr129 2.490 1_565 S
O155 C139 1.225 . S
O156 Pr128 2.436 . S
O156 Pr129 2.695 . S
O156 C146 1.270 1_545 S
O157 Pr129 2.512 1_565 S
O157 C146 1.248 . S
O158 Pr128 2.438 . S
O158 C147 1.267 1_545 S
O159 Pr129 2.437 1_565 S
O159 C147 1.278 . S
H160 C132 0.929 . S
H161 C133 0.929 . S
H162 C135 0.931 . S
H163 C136 0.930 . S
H164 C141 0.929 1_554 S
H165 C142 0.929 . S
H166 C144 0.931 . S
H167 C145 0.930 . S
Pr168 C170 2.880 . S
Pr168 O188 2.562 . S
Pr168 O189 2.490 . S
Pr168 O190 2.695 . S
Pr168 O191 2.512 . S
Pr168 O193 2.437 . S
Pr168 O196 2.436 . S
Pr168 O198 2.438 . S
Pr169 C179 2.880 . S
Pr169 O190 2.436 . S
Pr169 O192 2.438 . S
Pr169 O194 2.562 . S
Pr169 O195 2.490 . S
Pr169 O196 2.695 . S
Pr169 O197 2.512 . S
Pr169 O199 2.437 . S
C170 Pr168 2.880 . S
C170 C171 1.491 . S
C170 O188 1.254 . S
C170 O189 1.225 . S
C171 C170 1.491 . S
C171 C172 1.392 . S
C171 C176 1.356 . S
C172 C171 1.392 . S
C172 C173 1.368 . S
C172 H200 0.929 . S
C173 C172 1.368 . S
C173 C174 1.386 . S
C173 H201 0.929 . S
C174 C173 1.386 . S
C174 C175 1.373 . S
C175 C174 1.373 . S
C175 C176 1.409 . S
C175 H202 0.931 . S
C176 C171 1.356 . S
C176 C175 1.409 . S
C176 H203 0.930 . S
C177 O190 1.270 . S
C177 O191 1.248 . S
C178 O192 1.267 . S
C178 O193 1.278 . S
C179 Pr169 2.880 . S
C179 C180 1.491 . S
C179 O194 1.254 . S
C179 O195 1.225 . S
C180 C179 1.491 . S
C180 C181 1.392 . S
C180 C185 1.356 . S
C181 C180 1.392 . S
C181 C182 1.368 . S
C181 H204 0.929 . S
C182 C181 1.368 . S
C182 C183 1.386 . S
C182 H205 0.929 . S
C183 C182 1.386 . S
C183 C184 1.373 . S
C184 C183 1.373 . S
C184 C185 1.409 . S
C184 H206 0.931 . S
C185 C180 1.356 . S
C185 C184 1.409 . S
C185 H207 0.930 . S
C186 O196 1.270 . S
C186 O197 1.248 . S
C187 O198 1.267 . S
C187 O199 1.278 . S
O188 Pr168 2.562 . S
O188 C170 1.254 . S
O189 Pr168 2.490 . S
O189 C170 1.225 . S
O190 Pr168 2.695 . S
O190 Pr169 2.436 . S
O190 C177 1.270 . S
O191 Pr168 2.512 . S
O191 C177 1.248 . S
O192 Pr169 2.438 . S
O192 C178 1.267 . S
O193 Pr168 2.437 . S
O193 C178 1.278 . S
O194 Pr169 2.562 . S
O194 C179 1.254 . S
O195 Pr169 2.490 . S
O195 C179 1.225 . S
O196 Pr168 2.436 . S
O196 Pr169 2.695 . S
O196 C186 1.270 . S
O197 Pr169 2.512 . S
O197 C186 1.248 . S
O198 Pr168 2.438 . S
O198 C187 1.267 . S
O199 Pr169 2.437 . S
O199 C187 1.278 . S
H200 C172 0.929 . S
H201 C173 0.929 . S
H202 C175 0.931 . S
H203 C176 0.930 . S
H204 C181 0.929 . S
H205 C182 0.929 . S
H206 C184 0.931 . S
H207 C185 0.930 . S
Pr208 C210 2.880 1_455 S
Pr208 O228 2.562 1_455 S
Pr208 O229 2.490 . S
Pr208 O230 2.695 1_556 S
Pr208 O231 2.512 1_556 S
Pr208 O233 2.437 1_556 S
Pr208 O236 2.436 1_455 S
Pr208 O238 2.438 . S
Pr209 C219 2.880 . S
Pr209 O230 2.436 . S
Pr209 O232 2.438 1_455 S
Pr209 O234 2.562 . S
Pr209 O235 2.490 . S
Pr209 O236 2.695 1_454 S
Pr209 O237 2.504 1_454 S
Pr209 O239 2.437 1_554 S
C210 Pr208 2.880 1_655 S
C210 C211 1.491 . S
C210 O228 1.254 . S
C210 O229 1.225 1_655 S
C211 C210 1.491 . S
C211 C212 1.392 . S
C211 C216 1.356 . S
C212 C211 1.392 . S
C212 C213 1.368 . S
C212 H240 0.929 1_655 S
C213 C212 1.368 . S
C213 C214 1.386 . S
C213 H241 0.929 . S
C214 C213 1.386 . S
C214 C215 1.373 . S
C215 C214 1.373 . S
C215 C216 1.409 . S
C215 H242 0.931 . S
C216 C211 1.356 . S
C216 C215 1.409 . S
C216 H243 0.930 . S
C217 O230 1.270 . S
C217 O231 1.248 . S
C218 O232 1.267 . S
C218 O233 1.278 1_655 S
C219 Pr209 2.880 . S
C219 C220 1.491 . S
C219 O234 1.254 . S
C219 O235 1.225 . S
C220 C219 1.491 . S
C220 C221 1.392 . S
C220 C225 1.356 . S
C221 C220 1.392 . S
C221 C222 1.368 . S
C221 H244 0.929 . S
C222 C221 1.368 . S
C222 C223 1.386 . S
C222 H245 0.929 . S
C223 C222 1.386 . S
C223 C224 1.373 . S
C224 C223 1.373 . S
C224 C225 1.409 . S
C224 H246 0.931 . S
C225 C220 1.356 . S
C225 C224 1.409 . S
C225 H247 0.930 . S
C226 O236 1.270 . S
C226 O237 1.259 . S
C227 O238 1.267 . S
C227 O239 1.278 . S
O228 Pr208 2.562 1_655 S
O228 C210 1.254 . S
O229 Pr208 2.490 . S
O229 C210 1.225 1_455 S
O230 Pr208 2.695 1_554 S
O230 Pr209 2.436 . S
O230 C217 1.270 . S
O231 Pr208 2.512 1_554 S
O231 C217 1.248 . S
O232 Pr209 2.438 1_655 S
O232 C218 1.267 . S
O233 Pr208 2.437 1_554 S
O233 C218 1.278 1_455 S
O234 Pr209 2.562 . S
O234 C219 1.254 . S
O235 Pr209 2.490 . S
O235 C219 1.225 . S
O236 Pr208 2.436 1_655 S
O236 Pr209 2.695 1_656 S
O236 C226 1.270 . S
O237 Pr209 2.504 1_656 S
O237 C226 1.259 . S
O238 Pr208 2.438 . S
O238 C227 1.267 . S
O239 Pr209 2.437 1_556 S
O239 C227 1.278 . S
H240 C212 0.929 1_455 S
H241 C213 0.929 . S
H242 C215 0.931 . S
H243 C216 0.930 . S
H244 C221 0.929 . S
H245 C222 0.929 . S
H246 C224 0.931 . S
H247 C225 0.930 . S
C248 C249 1.349 . S
C248 C250 1.327 . S
C248 H273 0.950 . S
C249 C248 1.349 . S
C249 C265 1.349 . S
C250 C248 1.327 . S
C250 C269 1.429 . S
C250 H274 0.950 . S
C251 C268 1.574 . S
C251 C270 1.368 . S
C251 H275 0.949 . S
H252 C256 0.949 . S
C253 C254 1.349 . S
C253 C255 1.327 . S
C253 H276 0.950 . S
C254 C253 1.349 . S
C254 C266 1.349 . S
C255 C253 1.327 . S
C255 C271 1.429 . S
C255 H277 0.950 . S
C256 H252 0.949 . S
C256 C264 1.574 . S
C256 C272 1.368 . S
H257 C265 0.950 . S
H258 C263 0.950 . S
H259 C264 0.949 . S
H260 C266 0.950 . S
H261 C267 0.950 . S
H262 C268 0.949 . S
C263 H258 0.950 . S
C263 C265 1.327 . S
C263 C269 1.429 . S
C264 C256 1.574 . S
C264 H259 0.949 . S
C264 C270 1.368 . S
C265 C249 1.349 . S
C265 H257 0.950 . S
C265 C263 1.327 . S
C266 C254 1.349 . S
C266 H260 0.950 . S
C266 C267 1.327 . S
C267 H261 0.950 . S
C267 C266 1.327 . S
C267 C271 1.429 . S
C268 C251 1.574 . S
C268 H262 0.949 . S
C268 C272 1.368 . S
C269 C250 1.429 . S
C269 C263 1.429 . S
C269 C270 1.523 . S
C270 C251 1.368 . S
C270 C264 1.368 . S
C270 C269 1.523 . S
C271 C255 1.429 . S
C271 C267 1.429 . S
C271 C272 1.523 . S
C272 C256 1.368 . S
C272 C268 1.368 . S
C272 C271 1.523 . S
H273 C248 0.950 . S
H274 C250 0.950 . S
H275 C251 0.949 . S
H276 C253 0.950 . S
H277 C255 0.950 . S
C278 C279 1.349 . S
C278 C280 1.327 . S
C278 H303 0.950 . S
C279 C278 1.349 . S
C279 C295 1.349 . S
C280 C278 1.327 . S
C280 C299 1.429 . S
C280 H304 0.950 . S
C281 C298 1.574 . S
C281 C300 1.368 . S
C281 H305 0.949 . S
H282 C286 0.949 . S
C283 C284 1.349 . S
C283 C285 1.327 . S
C283 H306 0.950 . S
C284 C283 1.349 . S
C284 C296 1.349 . S
C285 C283 1.327 . S
C285 C301 1.429 . S
C285 H307 0.950 . S
C286 H282 0.949 . S
C286 C294 1.574 . S
C286 C302 1.368 . S
H287 C295 0.950 . S
H288 C293 0.950 . S
H289 C294 0.949 . S
H290 C296 0.950 . S
H291 C297 0.950 . S
H292 C298 0.949 . S
C293 H288 0.950 . S
C293 C295 1.327 . S
C293 C299 1.429 . S
C294 C286 1.574 . S
C294 H289 0.949 . S
C294 C300 1.368 . S
C295 C279 1.349 . S
C295 H287 0.950 . S
C295 C293 1.327 . S
C296 C284 1.349 . S
C296 H290 0.950 . S
C296 C297 1.327 . S
C297 H291 0.950 . S
C297 C296 1.327 . S
C297 C301 1.429 . S
C298 C281 1.574 . S
C298 H292 0.949 . S
C298 C302 1.368 . S
C299 C280 1.429 . S
C299 C293 1.429 . S
C299 C300 1.523 . S
C300 C281 1.368 . S
C300 C294 1.368 . S
C300 C299 1.523 . S
C301 C285 1.429 . S
C301 C297 1.429 . S
C301 C302 1.523 . S
C302 C286 1.368 . S
C302 C298 1.368 . S
C302 C301 1.523 . S
H303 C278 0.950 . S
H304 C280 0.950 . S
H305 C281 0.949 . S
H306 C283 0.950 . S
H307 C285 0.950 . S
C308 C309 1.349 . S
C308 C310 1.327 . S
C308 H333 0.950 . S
C309 C308 1.349 . S
C309 C325 1.349 . S
C310 C308 1.327 . S
C310 C329 1.429 . S
C310 H334 0.950 . S
C311 C328 1.574 . S
C311 C330 1.368 . S
C311 H335 0.949 . S
H312 C316 0.949 . S
C313 C314 1.349 . S
C313 C315 1.327 . S
C313 H336 0.950 . S
C314 C313 1.349 . S
C314 C326 1.349 . S
C315 C313 1.327 . S
C315 C331 1.429 . S
C315 H337 0.950 . S
C316 H312 0.949 . S
C316 C324 1.574 . S
C316 C332 1.368 . S
H317 C325 0.950 . S
H318 C323 0.950 . S
H319 C324 0.949 . S
H320 C326 0.950 . S
H321 C327 0.950 . S
H322 C328 0.949 . S
C323 H318 0.950 . S
C323 C325 1.327 . S
C323 C329 1.429 . S
C324 C316 1.574 . S
C324 H319 0.949 . S
C324 C330 1.368 . S
C325 C309 1.349 . S
C325 H317 0.950 . S
C325 C323 1.327 . S
C326 C314 1.349 . S
C326 H320 0.950 . S
C326 C327 1.327 . S
C327 H321 0.950 . S
C327 C326 1.327 . S
C327 C331 1.429 . S
C328 C311 1.574 . S
C328 H322 0.949 . S
C328 C332 1.368 . S
C329 C310 1.429 . S
C329 C323 1.429 . S
C329 C330 1.523 . S
C330 C311 1.368 . S
C330 C324 1.368 . S
C330 C329 1.523 . S
C331 C315 1.429 . S
C331 C327 1.429 . S
C331 C332 1.523 . S
C332 C316 1.368 . S
C332 C328 1.368 . S
C332 C331 1.523 . S
H333 C308 0.950 . S
H334 C310 0.950 . S
H335 C311 0.949 . S
H336 C313 0.950 . S
H337 C315 0.950 . S
C338 C339 1.349 . S
C338 C340 1.327 . S
C338 H363 0.950 . S
C339 C338 1.349 . S
C339 C355 1.349 . S
C340 C338 1.327 . S
C340 C359 1.429 . S
C340 H364 0.950 . S
C341 C358 1.574 . S
C341 C360 1.368 . S
C341 H365 0.949 . S
H342 C346 0.949 . S
C343 C344 1.349 . S
C343 C345 1.327 . S
C343 H366 0.950 . S
C344 C343 1.349 . S
C344 C356 1.349 . S
C345 C343 1.327 . S
C345 C361 1.429 . S
C345 H367 0.950 . S
C346 H342 0.949 . S
C346 C354 1.574 . S
C346 C362 1.368 . S
H347 C355 0.950 . S
H348 C353 0.950 . S
H349 C354 0.949 . S
H350 C356 0.950 . S
H351 C357 0.950 . S
H352 C358 0.949 . S
C353 H348 0.950 . S
C353 C355 1.327 . S
C353 C359 1.429 . S
C354 C346 1.574 . S
C354 H349 0.949 . S
C354 C360 1.368 . S
C355 C339 1.349 . S
C355 H347 0.950 . S
C355 C353 1.327 . S
C356 C344 1.349 . S
C356 H350 0.950 . S
C356 C357 1.327 . S
C357 H351 0.950 . S
C357 C356 1.327 . S
C357 C361 1.429 . S
C358 C341 1.574 . S
C358 H352 0.949 . S
C358 C362 1.368 . S
C359 C340 1.429 . S
C359 C353 1.429 . S
C359 C360 1.523 . S
C360 C341 1.368 . S
C360 C354 1.368 . S
C360 C359 1.523 . S
C361 C345 1.429 . S
C361 C357 1.429 . S
C361 C362 1.523 . S
C362 C346 1.368 . S
C362 C358 1.368 . S
C362 C361 1.523 . S
H363 C338 0.950 . S
H364 C340 0.950 . S
H365 C341 0.949 . S
H366 C343 0.950 . S
H367 C345 0.950 . S
C368 C369 1.349 . S
C368 C370 1.327 . S
C368 H393 0.950 . S
C369 C368 1.349 . S
C369 C385 1.349 . S
C370 C368 1.327 . S
C370 C389 1.429 . S
C370 H394 0.950 . S
C371 C388 1.574 . S
C371 C390 1.368 . S
C371 H395 0.949 . S
H372 C376 0.949 . S
C373 C374 1.349 . S
C373 C375 1.327 . S
C373 H396 0.950 . S
C374 C373 1.349 . S
C374 C386 1.349 . S
C375 C373 1.327 . S
C375 C391 1.429 . S
C375 H397 0.950 . S
C376 H372 0.949 . S
C376 C384 1.574 . S
C376 C392 1.368 . S
H377 C385 0.950 . S
H378 C383 0.950 . S
H379 C384 0.949 . S
H380 C386 0.950 . S
H381 C387 0.950 . S
H382 C388 0.949 . S
C383 H378 0.950 . S
C383 C385 1.327 . S
C383 C389 1.429 . S
C384 C376 1.574 . S
C384 H379 0.949 . S
C384 C390 1.368 . S
C385 C369 1.349 . S
C385 H377 0.950 . S
C385 C383 1.327 . S
C386 C374 1.349 . S
C386 H380 0.950 . S
C386 C387 1.327 . S
C387 H381 0.950 . S
C387 C386 1.327 . S
C387 C391 1.429 . S
C388 C371 1.574 . S
C388 H382 0.949 . S
C388 C392 1.368 . S
C389 C370 1.429 . S
C389 C383 1.429 . S
C389 C390 1.523 . S
C390 C371 1.368 . S
C390 C384 1.368 . S
C390 C389 1.523 . S
C391 C375 1.429 . S
C391 C387 1.429 . S
C391 C392 1.523 . S
C392 C376 1.368 . S
C392 C388 1.368 . S
C392 C391 1.523 . S
H393 C368 0.950 . S
H394 C370 0.950 . S
H395 C371 0.949 . S
H396 C373 0.950 . S
H397 C375 0.950 . S
C398 C399 1.349 . S
C398 C400 1.327 . S
C398 H423 0.950 . S
C399 C398 1.349 . S
C399 C415 1.349 . S
C400 C398 1.327 . S
C400 C419 1.429 . S
C400 H424 0.950 . S
C401 C418 1.574 . S
C401 C420 1.368 . S
C401 H425 0.949 . S
H402 C406 0.949 . S
C403 C404 1.349 . S
C403 C405 1.327 . S
C403 H426 0.950 . S
C404 C403 1.349 . S
C404 C416 1.349 . S
C405 C403 1.327 . S
C405 C421 1.429 . S
C405 H427 0.950 . S
C406 H402 0.949 . S
C406 C414 1.574 . S
C406 C422 1.368 . S
H407 C415 0.950 . S
H408 C413 0.950 . S
H409 C414 0.949 . S
H410 C416 0.950 . S
H411 C417 0.950 . S
H412 C418 0.949 . S
C413 H408 0.950 . S
C413 C415 1.327 . S
C413 C419 1.429 . S
C414 C406 1.574 . S
C414 H409 0.949 . S
C414 C420 1.368 . S
C415 C399 1.349 . S
C415 H407 0.950 . S
C415 C413 1.327 . S
C416 C404 1.349 . S
C416 H410 0.950 . S
C416 C417 1.327 . S
C417 H411 0.950 . S
C417 C416 1.327 . S
C417 C421 1.429 . S
C418 C401 1.574 . S
C418 H412 0.949 . S
C418 C422 1.368 . S
C419 C400 1.429 . S
C419 C413 1.429 . S
C419 C420 1.523 . S
C420 C401 1.368 . S
C420 C414 1.368 . S
C420 C419 1.523 . S
C421 C405 1.429 . S
C421 C417 1.429 . S
C421 C422 1.523 . S
C422 C406 1.368 . S
C422 C418 1.368 . S
C422 C421 1.523 . S
H423 C398 0.950 . S
H424 C400 0.950 . S
H425 C401 0.949 . S
H426 C403 0.950 . S
H427 C405 0.950 . S
C428 C429 1.349 . S
C428 C430 1.327 . S
C428 H453 0.950 . S
C429 C428 1.349 . S
C429 C445 1.349 . S
C430 C428 1.327 . S
C430 C449 1.429 . S
C430 H454 0.950 . S
C431 C448 1.574 . S
C431 C450 1.368 . S
C431 H455 0.949 . S
H432 C436 0.949 . S
C433 C434 1.349 . S
C433 C435 1.327 . S
C433 H456 0.950 . S
C434 C433 1.349 . S
C434 C446 1.349 . S
C435 C433 1.327 . S
C435 C451 1.429 . S
C435 H457 0.950 . S
C436 H432 0.949 . S
C436 C444 1.574 . S
C436 C452 1.368 . S
H437 C445 0.950 . S
H438 C443 0.950 . S
H439 C444 0.949 . S
H440 C446 0.950 . S
H441 C447 0.950 . S
H442 C448 0.949 . S
C443 H438 0.950 . S
C443 C445 1.327 . S
C443 C449 1.429 . S
C444 C436 1.574 . S
C444 H439 0.949 . S
C444 C450 1.368 . S
C445 C429 1.349 . S
C445 H437 0.950 . S
C445 C443 1.327 . S
C446 C434 1.349 . S
C446 H440 0.950 . S
C446 C447 1.327 . S
C447 H441 0.950 . S
C447 C446 1.327 . S
C447 C451 1.429 . S
C448 C431 1.574 . S
C448 H442 0.949 . S
C448 C452 1.368 . S
C449 C430 1.429 . S
C449 C443 1.429 . S
C449 C450 1.523 . S
C450 C431 1.368 . S
C450 C444 1.368 . S
C450 C449 1.523 . S
C451 C435 1.429 . S
C451 C447 1.429 . S
C451 C452 1.523 . S
C452 C436 1.368 . S
C452 C448 1.368 . S
C452 C451 1.523 . S
H453 C428 0.950 . S
H454 C430 0.950 . S
H455 C431 0.949 . S
H456 C433 0.950 . S
H457 C435 0.950 . S
C458 C459 1.349 . S
C458 C460 1.327 . S
C458 H483 0.950 . S
C459 C458 1.349 . S
C459 C475 1.349 . S
C460 C458 1.327 . S
C460 C479 1.429 . S
C460 H484 0.950 . S
C461 C478 1.574 . S
C461 C480 1.368 . S
C461 H485 0.949 . S
H462 C466 0.949 . S
C463 C464 1.349 . S
C463 C465 1.327 . S
C463 H486 0.950 . S
C464 C463 1.349 . S
C464 C476 1.349 . S
C465 C463 1.327 . S
C465 C481 1.429 . S
C465 H487 0.950 . S
C466 H462 0.949 . S
C466 C474 1.574 . S
C466 C482 1.368 . S
H467 C475 0.950 . S
H468 C473 0.950 . S
H469 C474 0.949 . S
H470 C476 0.950 . S
H471 C477 0.950 . S
H472 C478 0.949 . S
C473 H468 0.950 . S
C473 C475 1.327 . S
C473 C479 1.429 . S
C474 C466 1.574 . S
C474 H469 0.949 . S
C474 C480 1.368 . S
C475 C459 1.349 . S
C475 H467 0.950 . S
C475 C473 1.327 . S
C476 C464 1.349 . S
C476 H470 0.950 . S
C476 C477 1.327 . S
C477 H471 0.950 . S
C477 C476 1.327 . S
C477 C481 1.429 . S
C478 C461 1.574 . S
C478 H472 0.949 . S
C478 C482 1.368 . S
C479 C460 1.429 . S
C479 C473 1.429 . S
C479 C480 1.523 . S
C480 C461 1.368 . S
C480 C474 1.368 . S
C480 C479 1.523 . S
C481 C465 1.429 . S
C481 C477 1.429 . S
C481 C482 1.523 . S
C482 C466 1.368 . S
C482 C478 1.368 . S
C482 C481 1.523 . S
H483 C458 0.950 . S
H484 C460 0.950 . S
H485 C461 0.949 . S
H486 C463 0.950 . S
H487 C465 0.950 . S
C488 C489 1.349 . S
C488 C490 1.327 . S
C488 H513 0.950 . S
C489 C488 1.349 . S
C489 C505 1.349 . S
C490 C488 1.327 . S
C490 C509 1.429 . S
C490 H514 0.950 . S
C491 C508 1.574 . S
C491 C510 1.368 . S
C491 H515 0.949 . S
H492 C496 0.949 . S
C493 C494 1.349 . S
C493 C495 1.327 . S
C493 H516 0.950 . S
C494 C493 1.349 . S
C494 C506 1.349 . S
C495 C493 1.327 . S
C495 C511 1.429 . S
C495 H517 0.950 . S
C496 H492 0.949 . S
C496 C504 1.574 . S
C496 C512 1.368 . S
H497 C505 0.950 . S
H498 C503 0.950 . S
H499 C504 0.949 . S
H500 C506 0.950 . S
H501 C507 0.950 . S
H502 C508 0.949 . S
C503 H498 0.950 . S
C503 C505 1.327 . S
C503 C509 1.429 . S
C504 C496 1.574 . S
C504 H499 0.949 . S
C504 C510 1.368 . S
C505 C489 1.349 . S
C505 H497 0.950 . S
C505 C503 1.327 . S
C506 C494 1.349 . S
C506 H500 0.950 . S
C506 C507 1.327 . S
C507 H501 0.950 . S
C507 C506 1.327 . S
C507 C511 1.429 . S
C508 C491 1.574 . S
C508 H502 0.949 . S
C508 C512 1.368 . S
C509 C490 1.429 . S
C509 C503 1.429 . S
C509 C510 1.523 . S
C510 C491 1.368 . S
C510 C504 1.368 . S
C510 C509 1.523 . S
C511 C495 1.429 . S
C511 C507 1.429 . S
C511 C512 1.523 . S
C512 C496 1.368 . S
C512 C508 1.368 . S
C512 C511 1.523 . S
H513 C488 0.950 . S
H514 C490 0.950 . S
H515 C491 0.949 . S
H516 C493 0.950 . S
H517 C495 0.950 . S
C518 C519 1.349 . S
C518 C520 1.327 . S
C518 H543 0.950 . S
C519 C518 1.349 . S
C519 C535 1.349 . S
C520 C518 1.327 . S
C520 C539 1.429 . S
C520 H544 0.950 . S
C521 C538 1.574 . S
C521 C540 1.368 . S
C521 H545 0.949 . S
H522 C526 0.949 . S
C523 C524 1.357 . S
C523 C525 1.350 . S
C523 H546 0.919 1_556 S
C524 C523 1.357 . S
C524 C536 1.349 . S
C525 C523 1.350 . S
C525 C541 1.429 . S
C525 H547 0.950 . S
C526 H522 0.949 . S
C526 C534 1.574 . S
C526 C542 1.368 . S
H527 C535 0.950 . S
H528 C533 0.950 . S
H529 C534 0.949 . S
H530 C536 0.950 . S
H531 C537 0.950 . S
H532 C538 0.949 . S
C533 H528 0.950 . S
C533 C535 1.327 . S
C533 C539 1.429 . S
C534 C526 1.574 . S
C534 H529 0.949 . S
C534 C540 1.368 . S
C535 C519 1.349 . S
C535 H527 0.950 . S
C535 C533 1.327 . S
C536 C524 1.349 . S
C536 H530 0.950 . S
C536 C537 1.327 . S
C537 H531 0.950 . S
C537 C536 1.327 . S
C537 C541 1.429 . S
C538 C521 1.574 . S
C538 H532 0.949 . S
C538 C542 1.368 . S
C539 C520 1.429 . S
C539 C533 1.429 . S
C539 C540 1.523 . S
C540 C521 1.368 . S
C540 C534 1.368 . S
C540 C539 1.523 . S
C541 C525 1.429 . S
C541 C537 1.429 . S
C541 C542 1.523 . S
C542 C526 1.368 . S
C542 C538 1.368 . S
C542 C541 1.523 . S
H543 C518 0.950 . S
H544 C520 0.950 . S
H545 C521 0.949 . S
H546 C523 0.919 1_554 S
H547 C525 0.950 . S
C548 C549 1.349 . S
C548 C550 1.327 . S
C548 H573 0.950 . S
C549 C548 1.349 . S
C549 C565 1.349 . S
C550 C548 1.327 . S
C550 C569 1.429 . S
C550 H574 0.950 . S
C551 C568 1.574 . S
C551 C570 1.368 . S
C551 H575 0.949 . S
H552 C556 0.949 . S
C553 C554 1.349 . S
C553 C555 1.327 . S
C553 H576 0.950 . S
C554 C553 1.349 . S
C554 C566 1.349 . S
C555 C553 1.327 . S
C555 C571 1.429 . S
C555 H577 0.950 . S
C556 H552 0.949 . S
C556 C564 1.574 . S
C556 C572 1.368 . S
H557 C565 0.950 . S
H558 C563 0.950 . S
H559 C564 0.949 . S
H560 C566 0.950 . S
H561 C567 0.950 . S
H562 C568 0.949 . S
C563 H558 0.950 . S
C563 C565 1.327 . S
C563 C569 1.429 . S
C564 C556 1.574 . S
C564 H559 0.949 . S
C564 C570 1.368 . S
C565 C549 1.349 . S
C565 H557 0.950 . S
C565 C563 1.327 . S
C566 C554 1.349 . S
C566 H560 0.950 . S
C566 C567 1.327 . S
C567 H561 0.950 . S
C567 C566 1.327 . S
C567 C571 1.429 . S
C568 C551 1.574 . S
C568 H562 0.949 . S
C568 C572 1.368 . S
C569 C550 1.429 . S
C569 C563 1.429 . S
C569 C570 1.523 . S
C570 C551 1.368 . S
C570 C564 1.368 . S
C570 C569 1.523 . S
C571 C555 1.429 . S
C571 C567 1.429 . S
C571 C572 1.523 . S
C572 C556 1.368 . S
C572 C568 1.368 . S
C572 C571 1.523 . S
H573 C548 0.950 . S
H574 C550 0.950 . S
H575 C551 0.949 . S
H576 C553 0.950 . S
H577 C555 0.950 . S
C578 C579 1.349 . S
C578 C580 1.327 . S
C578 H603 0.950 . S
C579 C578 1.349 . S
C579 C595 1.349 . S
C580 C578 1.327 . S
C580 C599 1.429 . S
C580 H604 0.950 . S
C581 C598 1.574 . S
C581 C600 1.368 . S
C581 H605 0.949 . S
H582 C586 0.949 . S
C583 C584 1.349 . S
C583 C585 1.327 . S
C583 H606 0.950 . S
C584 C583 1.349 . S
C584 C596 1.349 . S
C585 C583 1.327 . S
C585 C601 1.429 . S
C585 H607 0.950 . S
C586 H582 0.949 . S
C586 C594 1.574 . S
C586 C602 1.368 . S
H587 C595 0.950 . S
H588 C593 0.950 . S
H589 C594 0.949 . S
H590 C596 0.950 . S
H591 C597 0.950 . S
H592 C598 0.949 . S
C593 H588 0.950 . S
C593 C595 1.327 . S
C593 C599 1.429 . S
C594 C586 1.574 . S
C594 H589 0.949 . S
C594 C600 1.368 . S
C595 C579 1.349 . S
C595 H587 0.950 . S
C595 C593 1.327 . S
C596 C584 1.349 . S
C596 H590 0.950 . S
C596 C597 1.327 . S
C597 H591 0.950 . S
C597 C596 1.327 . S
C597 C601 1.429 . S
C598 C581 1.574 . S
C598 H592 0.949 . S
C598 C602 1.368 . S
C599 C580 1.429 . S
C599 C593 1.429 . S
C599 C600 1.523 . S
C600 C581 1.368 . S
C600 C594 1.368 . S
C600 C599 1.523 . S
C601 C585 1.429 . S
C601 C597 1.429 . S
C601 C602 1.523 . S
C602 C586 1.368 . S
C602 C598 1.368 . S
C602 C601 1.523 . S
H603 C578 0.950 . S
H604 C580 0.950 . S
H605 C581 0.949 . S
H606 C583 0.950 . S
H607 C585 0.950 . S
C608 C609 1.349 . S
C608 C610 1.327 . S
C608 H633 0.950 . S
C609 C608 1.349 . S
C609 C625 1.349 . S
C610 C608 1.327 . S
C610 C629 1.429 . S
C610 H634 0.950 . S
C611 C628 1.574 . S
C611 C630 1.368 . S
C611 H635 0.949 . S
H612 C616 0.949 . S
C613 C614 1.349 . S
C613 C615 1.327 . S
C613 H636 0.950 . S
C614 C613 1.349 . S
C614 C626 1.349 . S
C615 C613 1.327 . S
C615 C631 1.429 . S
C615 H637 0.950 . S
C616 H612 0.949 . S
C616 C624 1.574 . S
C616 C632 1.368 . S
H617 C625 0.950 . S
H618 C623 0.950 . S
H619 C624 0.949 . S
H620 C626 0.950 . S
H621 C627 0.950 . S
H622 C628 0.949 . S
C623 H618 0.950 . S
C623 C625 1.327 . S
C623 C629 1.429 . S
C624 C616 1.574 . S
C624 H619 0.949 . S
C624 C630 1.368 . S
C625 C609 1.349 . S
C625 H617 0.950 . S
C625 C623 1.327 . S
C626 C614 1.349 . S
C626 H620 0.950 . S
C626 C627 1.327 . S
C627 H621 0.950 . S
C627 C626 1.327 . S
C627 C631 1.429 . S
C628 C611 1.574 . S
C628 H622 0.949 . S
C628 C632 1.368 . S
C629 C610 1.429 . S
C629 C623 1.429 . S
C629 C630 1.523 . S
C630 C611 1.368 . S
C630 C624 1.368 . S
C630 C629 1.523 . S
C631 C615 1.429 . S
C631 C627 1.429 . S
C631 C632 1.523 . S
C632 C616 1.368 . S
C632 C628 1.368 . S
C632 C631 1.523 . S
H633 C608 0.950 . S
H634 C610 0.950 . S
H635 C611 0.949 . S
H636 C613 0.950 . S
H637 C615 0.950 . S
C638 C639 1.349 . S
C638 C640 1.327 . S
C638 H663 0.950 . S
C639 C638 1.349 . S
C639 C655 1.349 . S
C640 C638 1.327 . S
C640 C659 1.429 . S
C640 H664 0.950 . S
C641 C658 1.574 . S
C641 C660 1.368 . S
C641 H665 0.949 . S
H642 C646 0.949 . S
C643 C644 1.349 . S
C643 C645 1.327 . S
C643 H666 0.950 . S
C644 C643 1.349 . S
C644 C656 1.349 . S
C645 C643 1.327 . S
C645 C661 1.429 . S
C645 H667 0.950 . S
C646 H642 0.949 . S
C646 C654 1.574 . S
C646 C662 1.368 . S
H647 C655 0.950 . S
H648 C653 0.950 . S
H649 C654 0.949 . S
H650 C656 0.950 . S
H651 C657 0.950 . S
H652 C658 0.949 . S
C653 H648 0.950 . S
C653 C655 1.327 . S
C653 C659 1.429 . S
C654 C646 1.574 . S
C654 H649 0.949 . S
C654 C660 1.368 . S
C655 C639 1.349 . S
C655 H647 0.950 . S
C655 C653 1.327 . S
C656 C644 1.349 . S
C656 H650 0.950 . S
C656 C657 1.327 . S
C657 H651 0.950 . S
C657 C656 1.327 . S
C657 C661 1.429 . S
C658 C641 1.574 . S
C658 H652 0.949 . S
C658 C662 1.368 . S
C659 C640 1.429 . S
C659 C653 1.429 . S
C659 C660 1.523 . S
C660 C641 1.368 . S
C660 C654 1.368 . S
C660 C659 1.523 . S
C661 C645 1.429 . S
C661 C657 1.429 . S
C661 C662 1.523 . S
C662 C646 1.368 . S
C662 C658 1.368 . S
C662 C661 1.523 . S
H663 C638 0.950 . S
H664 C640 0.950 . S
H665 C641 0.949 . S
H666 C643 0.950 . S
H667 C645 0.950 . S
C668 C669 1.349 . S
C668 C670 1.327 . S
C668 H693 0.950 . S
C669 C668 1.349 . S
C669 C685 1.349 . S
C670 C668 1.327 . S
C670 C689 1.429 . S
C670 H694 0.950 . S
C671 C688 1.574 . S
C671 C690 1.368 . S
C671 H695 0.949 . S
H672 C676 0.949 . S
C673 C674 1.349 . S
C673 C675 1.327 . S
C673 H696 0.950 . S
C674 C673 1.349 . S
C674 C686 1.349 . S
C675 C673 1.327 . S
C675 C691 1.429 . S
C675 H697 0.950 . S
C676 H672 0.949 . S
C676 C684 1.574 . S
C676 C692 1.368 . S
H677 C685 0.950 . S
H678 C683 0.950 . S
H679 C684 0.949 . S
H680 C686 0.950 . S
H681 C687 0.950 . S
H682 C688 0.949 . S
C683 H678 0.950 . S
C683 C685 1.327 . S
C683 C689 1.429 . S
C684 C676 1.574 . S
C684 H679 0.949 . S
C684 C690 1.368 . S
C685 C669 1.349 . S
C685 H677 0.950 . S
C685 C683 1.327 . S
C686 C674 1.349 . S
C686 H680 0.950 . S
C686 C687 1.327 . S
C687 H681 0.950 . S
C687 C686 1.327 . S
C687 C691 1.429 . S
C688 C671 1.574 . S
C688 H682 0.949 . S
C688 C692 1.368 . S
C689 C670 1.429 . S
C689 C683 1.429 . S
C689 C690 1.523 . S
C690 C671 1.368 . S
C690 C684 1.368 . S
C690 C689 1.523 . S
C691 C675 1.429 . S
C691 C687 1.429 . S
C691 C692 1.523 . S
C692 C676 1.368 . S
C692 C688 1.368 . S
C692 C691 1.523 . S
H693 C668 0.950 . S
H694 C670 0.950 . S
H695 C671 0.949 . S
H696 C673 0.950 . S
H697 C675 0.950 . S
C698 C699 1.349 . S
C698 C700 1.327 . S
C698 H723 0.950 . S
C699 C698 1.349 . S
C699 C715 1.349 . S
C700 C698 1.327 . S
C700 C719 1.429 . S
C700 H724 0.950 . S
C701 C718 1.574 . S
C701 C720 1.368 . S
C701 H725 0.949 . S
H702 C706 0.949 . S
C703 C704 1.349 . S
C703 C705 1.327 . S
C703 H726 0.950 . S
C704 C703 1.349 . S
C704 C716 1.349 . S
C705 C703 1.327 . S
C705 C721 1.429 . S
C705 H727 0.950 . S
C706 H702 0.949 . S
C706 C714 1.574 . S
C706 C722 1.368 . S
H707 C715 0.950 . S
H708 C713 0.950 . S
H709 C714 0.949 . S
H710 C716 0.950 . S
H711 C717 0.950 . S
H712 C718 0.949 . S
C713 H708 0.950 . S
C713 C715 1.327 . S
C713 C719 1.429 . S
C714 C706 1.574 . S
C714 H709 0.949 . S
C714 C720 1.368 . S
C715 C699 1.349 . S
C715 H707 0.950 . S
C715 C713 1.327 . S
C716 C704 1.349 . S
C716 H710 0.950 . S
C716 C717 1.327 . S
C717 H711 0.950 . S
C717 C716 1.327 . S
C717 C721 1.429 . S
C718 C701 1.574 . S
C718 H712 0.949 . S
C718 C722 1.368 . S
C719 C700 1.429 . S
C719 C713 1.429 . S
C719 C720 1.523 . S
C720 C701 1.368 . S
C720 C714 1.368 . S
C720 C719 1.523 . S
C721 C705 1.429 . S
C721 C717 1.429 . S
C721 C722 1.523 . S
C722 C706 1.368 . S
C722 C718 1.368 . S
C722 C721 1.523 . S
H723 C698 0.950 . S
H724 C700 0.950 . S
H725 C701 0.949 . S
H726 C703 0.950 . S
H727 C705 0.950 . S
C728 C729 1.349 . S
C728 C730 1.327 . S
C728 H753 0.950 . S
C729 C728 1.349 . S
C729 C745 1.349 . S
C730 C728 1.327 . S
C730 C749 1.429 . S
C730 H754 0.950 . S
C731 C748 1.574 . S
C731 C750 1.368 . S
C731 H755 0.949 . S
H732 C736 0.949 . S
C733 C734 1.349 . S
C733 C735 1.327 . S
C733 H756 0.950 . S
C734 C733 1.349 . S
C734 C746 1.349 . S
C735 C733 1.327 . S
C735 C751 1.429 . S
C735 H757 0.950 . S
C736 H732 0.949 . S
C736 C744 1.574 . S
C736 C752 1.368 . S
H737 C745 0.950 . S
H738 C743 0.950 . S
H739 C744 0.949 . S
H740 C746 0.950 . S
H741 C747 0.950 . S
H742 C748 0.949 . S
C743 H738 0.950 . S
C743 C745 1.327 . S
C743 C749 1.429 . S
C744 C736 1.574 . S
C744 H739 0.949 . S
C744 C750 1.368 . S
C745 C729 1.349 . S
C745 H737 0.950 . S
C745 C743 1.327 . S
C746 C734 1.349 . S
C746 H740 0.950 . S
C746 C747 1.327 . S
C747 H741 0.950 . S
C747 C746 1.327 . S
C747 C751 1.429 . S
C748 C731 1.574 . S
C748 H742 0.949 . S
C748 C752 1.368 . S
C749 C730 1.429 . S
C749 C743 1.429 . S
C749 C750 1.523 . S
C750 C731 1.368 . S
C750 C744 1.368 . S
C750 C749 1.523 . S
C751 C735 1.429 . S
C751 C747 1.429 . S
C751 C752 1.523 . S
C752 C736 1.368 . S
C752 C748 1.368 . S
C752 C751 1.523 . S
H753 C728 0.950 . S
H754 C730 0.950 . S
H755 C731 0.949 . S
H756 C733 0.950 . S
H757 C735 0.950 . S
C758 C759 1.349 . S
C758 C760 1.327 . S
C758 H783 0.950 . S
C759 C758 1.349 . S
C759 C775 1.349 . S
C760 C758 1.327 . S
C760 C779 1.429 . S
C760 H784 0.950 . S
C761 C778 1.574 . S
C761 C780 1.368 . S
C761 H785 0.949 . S
H762 C766 0.949 . S
C763 C764 1.349 . S
C763 C765 1.327 . S
C763 H786 0.950 . S
C764 C763 1.349 . S
C764 C776 1.349 . S
C765 C763 1.327 . S
C765 C781 1.429 . S
C765 H787 0.950 . S
C766 H762 0.949 . S
C766 C774 1.574 . S
C766 C782 1.368 . S
H767 C775 0.950 . S
H768 C773 0.950 . S
H769 C774 0.949 . S
H770 C776 0.950 . S
H771 C777 0.950 . S
H772 C778 0.949 . S
C773 H768 0.950 . S
C773 C775 1.327 . S
C773 C779 1.429 . S
C774 C766 1.574 . S
C774 H769 0.949 . S
C774 C780 1.368 . S
C775 C759 1.349 . S
C775 H767 0.950 . S
C775 C773 1.327 . S
C776 C764 1.349 . S
C776 H770 0.950 . S
C776 C777 1.327 . S
C777 H771 0.950 . S
C777 C776 1.327 . S
C777 C781 1.429 . S
C778 C761 1.574 . S
C778 H772 0.949 . S
C778 C782 1.368 . S
C779 C760 1.429 . S
C779 C773 1.429 . S
C779 C780 1.523 . S
C780 C761 1.368 . S
C780 C774 1.368 . S
C780 C779 1.523 . S
C781 C765 1.429 . S
C781 C777 1.429 . S
C781 C782 1.523 . S
C782 C766 1.368 . S
C782 C778 1.368 . S
C782 C781 1.523 . S
H783 C758 0.950 . S
H784 C760 0.950 . S
H785 C761 0.949 . S
H786 C763 0.950 . S
H787 C765 0.950 . S
C788 C789 1.349 . S
C788 C790 1.327 . S
C788 H813 0.950 . S
C789 C788 1.349 . S
C789 C805 1.349 . S
C790 C788 1.327 . S
C790 C809 1.429 . S
C790 H814 0.950 . S
C791 C808 1.574 . S
C791 C810 1.368 . S
C791 H815 0.949 . S
H792 C796 0.949 . S
C793 C794 1.349 . S
C793 C795 1.327 . S
C793 H816 0.950 . S
C794 C793 1.349 . S
C794 C806 1.349 . S
C795 C793 1.327 . S
C795 C811 1.429 . S
C795 H817 0.950 . S
C796 H792 0.949 . S
C796 C804 1.574 . S
C796 C812 1.368 . S
H797 C805 0.950 . S
H798 C803 0.950 . S
H799 C804 0.949 . S
H800 C806 0.950 . S
H801 C807 0.950 . S
H802 C808 0.949 . S
C803 H798 0.950 . S
C803 C805 1.327 . S
C803 C809 1.429 . S
C804 C796 1.574 . S
C804 H799 0.949 . S
C804 C810 1.368 . S
C805 C789 1.349 . S
C805 H797 0.950 . S
C805 C803 1.327 . S
C806 C794 1.349 . S
C806 H800 0.950 . S
C806 C807 1.327 . S
C807 H801 0.950 . S
C807 C806 1.327 . S
C807 C811 1.429 . S
C808 C791 1.574 . S
C808 H802 0.949 . S
C808 C812 1.368 . S
C809 C790 1.429 . S
C809 C803 1.429 . S
C809 C810 1.523 . S
C810 C791 1.368 . S
C810 C804 1.368 . S
C810 C809 1.523 . S
C811 C795 1.429 . S
C811 C807 1.429 . S
C811 C812 1.523 . S
C812 C796 1.368 . S
C812 C808 1.368 . S
C812 C811 1.523 . S
H813 C788 0.950 . S
H814 C790 0.950 . S
H815 C791 0.949 . S
H816 C793 0.950 . S
H817 C795 0.950 . S
C818 C819 1.349 . S
C818 C820 1.327 . S
C818 H843 0.950 . S
C819 C818 1.349 . S
C819 C835 1.349 . S
C820 C818 1.327 . S
C820 C839 1.429 . S
C820 H844 0.950 . S
C821 C838 1.574 . S
C821 C840 1.368 . S
C821 H845 0.949 . S
H822 C826 0.949 . S
C823 C824 1.349 . S
C823 C825 1.327 . S
C823 H846 0.950 . S
C824 C823 1.349 . S
C824 C836 1.349 . S
C825 C823 1.327 . S
C825 C841 1.429 . S
C825 H847 0.950 . S
C826 H822 0.949 . S
C826 C834 1.574 . S
C826 C842 1.368 . S
H827 C835 0.950 . S
H828 C833 0.950 . S
H829 C834 0.949 . S
H830 C836 0.950 . S
H831 C837 0.950 . S
H832 C838 0.949 . S
C833 H828 0.950 . S
C833 C835 1.327 . S
C833 C839 1.429 . S
C834 C826 1.574 . S
C834 H829 0.949 . S
C834 C840 1.368 . S
C835 C819 1.349 . S
C835 H827 0.950 . S
C835 C833 1.327 . S
C836 C824 1.349 . S
C836 H830 0.950 . S
C836 C837 1.327 . S
C837 H831 0.950 . S
C837 C836 1.327 . S
C837 C841 1.429 . S
C838 C821 1.574 . S
C838 H832 0.949 . S
C838 C842 1.368 . S
C839 C820 1.429 . S
C839 C833 1.429 . S
C839 C840 1.523 . S
C840 C821 1.368 . S
C840 C834 1.368 . S
C840 C839 1.523 . S
C841 C825 1.429 . S
C841 C837 1.429 . S
C841 C842 1.523 . S
C842 C826 1.368 . S
C842 C838 1.368 . S
C842 C841 1.523 . S
H843 C818 0.950 . S
H844 C820 0.950 . S
H845 C821 0.949 . S
H846 C823 0.950 . S
H847 C825 0.950 . S
C848 C849 1.349 . S
C848 C850 1.327 . S
C848 H873 0.950 . S
C849 C848 1.349 . S
C849 C865 1.349 . S
C850 C848 1.327 . S
C850 C869 1.429 . S
C850 H874 0.950 . S
C851 C868 1.574 . S
C851 C870 1.368 . S
C851 H875 0.949 . S
H852 C856 0.949 . S
C853 C854 1.349 . S
C853 C855 1.327 . S
C853 H876 0.950 . S
C854 C853 1.349 . S
C854 C866 1.349 . S
C855 C853 1.327 . S
C855 C871 1.429 . S
C855 H877 0.950 . S
C856 H852 0.949 . S
C856 C864 1.574 . S
C856 C872 1.368 . S
H857 C865 0.950 . S
H858 C863 0.950 . S
H859 C864 0.949 . S
H860 C866 0.950 . S
H861 C867 0.950 . S
H862 C868 0.949 . S
C863 H858 0.950 . S
C863 C865 1.327 . S
C863 C869 1.429 . S
C864 C856 1.574 . S
C864 H859 0.949 . S
C864 C870 1.368 . S
C865 C849 1.349 . S
C865 H857 0.950 . S
C865 C863 1.327 . S
C866 C854 1.349 . S
C866 H860 0.950 . S
C866 C867 1.327 . S
C867 H861 0.950 . S
C867 C866 1.327 . S
C867 C871 1.429 . S
C868 C851 1.574 . S
C868 H862 0.949 . S
C868 C872 1.368 . S
C869 C850 1.429 . S
C869 C863 1.429 . S
C869 C870 1.523 . S
C870 C851 1.368 . S
C870 C864 1.368 . S
C870 C869 1.523 . S
C871 C855 1.429 . S
C871 C867 1.429 . S
C871 C872 1.523 . S
C872 C856 1.368 . S
C872 C868 1.368 . S
C872 C871 1.523 . S
H873 C848 0.950 . S
H874 C850 0.950 . S
H875 C851 0.949 . S
H876 C853 0.950 . S
H877 C855 0.950 . S
C878 C879 1.349 . S
C878 C880 1.327 . S
C878 H903 0.950 . S
C879 C878 1.349 . S
C879 C895 1.349 . S
C880 C878 1.327 . S
C880 C899 1.429 . S
C880 H904 0.950 . S
C881 C898 1.574 . S
C881 C900 1.368 . S
C881 H905 0.949 . S
H882 C886 0.949 . S
C883 C884 1.349 . S
C883 C885 1.327 . S
C883 H906 0.950 . S
C884 C883 1.349 . S
C884 C896 1.349 . S
C885 C883 1.327 . S
C885 C901 1.429 . S
C885 H907 0.950 . S
C886 H882 0.949 . S
C886 C894 1.574 . S
C886 C902 1.368 . S
H887 C895 0.950 . S
H888 C893 0.950 . S
H889 C894 0.949 . S
H890 C896 0.950 . S
H891 C897 0.950 . S
H892 C898 0.949 . S
C893 H888 0.950 . S
C893 C895 1.327 . S
C893 C899 1.429 . S
C894 C886 1.574 . S
C894 H889 0.949 . S
C894 C900 1.368 . S
C895 C879 1.349 . S
C895 H887 0.950 . S
C895 C893 1.327 . S
C896 C884 1.349 . S
C896 H890 0.950 . S
C896 C897 1.327 . S
C897 H891 0.950 . S
C897 C896 1.327 . S
C897 C901 1.429 . S
C898 C881 1.574 . S
C898 H892 0.949 . S
C898 C902 1.368 . S
C899 C880 1.429 . S
C899 C893 1.429 . S
C899 C900 1.523 . S
C900 C881 1.368 . S
C900 C894 1.368 . S
C900 C899 1.523 . S
C901 C885 1.429 . S
C901 C897 1.429 . S
C901 C902 1.523 . S
C902 C886 1.368 . S
C902 C898 1.368 . S
C902 C901 1.523 . S
H903 C878 0.950 . S
H904 C880 0.950 . S
H905 C881 0.949 . S
H906 C883 0.950 . S
H907 C885 0.950 . S
C908 C909 1.349 . S
C908 C910 1.327 . S
C908 H933 0.950 . S
C909 C908 1.349 . S
C909 C925 1.349 . S
C910 C908 1.327 . S
C910 C929 1.429 . S
C910 H934 0.950 . S
C911 C928 1.574 . S
C911 C930 1.368 . S
C911 H935 0.949 . S
H912 C916 0.949 . S
C913 C914 1.349 . S
C913 C915 1.327 . S
C913 H936 0.950 . S
C914 C913 1.349 . S
C914 C926 1.349 . S
C915 C913 1.327 . S
C915 C931 1.429 . S
C915 H937 0.950 . S
C916 H912 0.949 . S
C916 C924 1.574 . S
C916 C932 1.368 . S
H917 C925 0.950 . S
H918 C923 0.950 . S
H919 C924 0.949 . S
H920 C926 0.950 . S
H921 C927 0.950 . S
H922 C928 0.949 . S
C923 H918 0.950 . S
C923 C925 1.327 . S
C923 C929 1.429 . S
C924 C916 1.574 . S
C924 H919 0.949 . S
C924 C930 1.368 . S
C925 C909 1.349 . S
C925 H917 0.950 . S
C925 C923 1.327 . S
C926 C914 1.349 . S
C926 H920 0.950 . S
C926 C927 1.327 . S
C927 H921 0.950 . S
C927 C926 1.327 . S
C927 C931 1.429 . S
C928 C911 1.574 . S
C928 H922 0.949 . S
C928 C932 1.368 . S
C929 C910 1.429 . S
C929 C923 1.429 . S
C929 C930 1.523 . S
C930 C911 1.368 . S
C930 C924 1.368 . S
C930 C929 1.523 . S
C931 C915 1.429 . S
C931 C927 1.429 . S
C931 C932 1.523 . S
C932 C916 1.368 . S
C932 C928 1.368 . S
C932 C931 1.523 . S
H933 C908 0.950 . S
H934 C910 0.950 . S
H935 C911 0.949 . S
H936 C913 0.950 . S
H937 C915 0.950 . S
C938 C939 1.349 . S
C938 C940 1.327 . S
C938 H963 0.950 . S
C939 C938 1.349 . S
C939 C955 1.349 . S
C940 C938 1.327 . S
C940 C959 1.429 . S
C940 H964 0.950 . S
C941 C958 1.574 . S
C941 C960 1.368 . S
C941 H965 0.949 . S
H942 C946 0.949 . S
C943 C944 1.349 . S
C943 C945 1.327 . S
C943 H966 0.950 . S
C944 C943 1.349 . S
C944 C956 1.349 . S
C945 C943 1.327 . S
C945 C961 1.429 . S
C945 H967 0.950 . S
C946 H942 0.949 . S
C946 C954 1.574 . S
C946 C962 1.368 . S
H947 C955 0.950 . S
H948 C953 0.950 . S
H949 C954 0.949 . S
H950 C956 0.950 . S
H951 C957 0.950 . S
H952 C958 0.949 . S
C953 H948 0.950 . S
C953 C955 1.327 . S
C953 C959 1.429 . S
C954 C946 1.574 . S
C954 H949 0.949 . S
C954 C960 1.368 . S
C955 C939 1.349 . S
C955 H947 0.950 . S
C955 C953 1.327 . S
C956 C944 1.349 . S
C956 H950 0.950 . S
C956 C957 1.327 . S
C957 H951 0.950 . S
C957 C956 1.327 . S
C957 C961 1.429 . S
C958 C941 1.574 . S
C958 H952 0.949 . S
C958 C962 1.368 . S
C959 C940 1.429 . S
C959 C953 1.429 . S
C959 C960 1.523 . S
C960 C941 1.368 . S
C960 C954 1.368 . S
C960 C959 1.523 . S
C961 C945 1.429 . S
C961 C957 1.429 . S
C961 C962 1.523 . S
C962 C946 1.368 . S
C962 C958 1.368 . S
C962 C961 1.523 . S
H963 C938 0.950 . S
H964 C940 0.950 . S
H965 C941 0.949 . S
H966 C943 0.950 . S
H967 C945 0.950 . S
C249 C5 0.865 . S
C254 C103 1.004 . S
C279 C18 1.546 . S
C284 C147 1.554 1_556 S
C314 C177 1.892 . S
C309 C30 1.893 . S
C339 C41 2.403 . S
C344 C218 2.388 . S
C374 C134 0.999 . S
C369 C7 0.974 . S
C404 C98 2.754 . S
C399 C16 2.628 . S
C434 C226 1.154 . S
C429 C29 1.149 . S
C464 C187 1.646 . S
C459 C38 1.364 . S
C489 C8 0.798 . S
C494 C223 0.803 . S
C524 C137 2.178 1_556 S
C519 C27 2.045 . S
C549 C40 2.162 . S
C554 C106 2.139 . S
C579 C19 1.769 . S
C584 C174 1.751 . S
C614 C94 1.001 . S
C609 C51 0.934 . S
C639 C62 1.747 . S
C644 C138 1.733 . S
C669 C74 2.068 . S
C674 C186 2.069 . S
C699 C84 2.344 . S
C704 C227 2.365 . S
C729 C49 0.975 . S
C734 C143 1.159 . S
C764 C107 2.608 . S
C759 C63 2.605 . S
C794 C217 1.045 . S
C789 C71 0.987 . S
C824 C178 1.806 . S
C819 C85 1.864 . S
C849 C52 0.696 . S
C854 C214 0.683 . S
C884 C146 2.197 . S
C879 C73 2.279 . S
C914 C97 1.768 . S
C909 C82 1.685 . S
C939 C60 1.787 . S
C944 C183 1.918 . S
