# Generated by pormake.
# Topology hwx, (6,3)-cn, num edge types: 1
# Building blocks:
#     Node 0, Type 0, BuildingBlock: OJICUG_clean_sbu_0, # of connection points: 6
#     Node 1, Type 0, BuildingBlock: OJICUG_clean_sbu_0, # of connection points: 6
#     Node 2, Type 0, BuildingBlock: OJICUG_clean_sbu_0, # of connection points: 6
#     Node 3, Type 0, BuildingBlock: OJICUG_clean_sbu_0, # of connection points: 6
#     Node 4, Type 1, BuildingBlock: OLANEW_clean_sbu_2, # of connection points: 3
#     Node 5, Type 1, BuildingBlock: OLANEW_clean_sbu_2, # of connection points: 3
#     Node 6, Type 1, BuildingBlock: OLANEW_clean_sbu_2, # of connection points: 3
#     Node 7, Type 1, BuildingBlock: OLANEW_clean_sbu_2, # of connection points: 3
#     Node 8, Type 1, BuildingBlock: OLANEW_clean_sbu_2, # of connection points: 3
#     Node 9, Type 1, BuildingBlock: OLANEW_clean_sbu_2, # of connection points: 3
#     Node 10, Type 1, BuildingBlock: OLANEW_clean_sbu_2, # of connection points: 3
#     Node 11, Type 1, BuildingBlock: OLANEW_clean_sbu_2, # of connection points: 3
#     Edge 12, Type (0, 1), BuildingBlock: AJUNOK_clean_linker_0, # of connection points: 2
#     Edge 13, Type (0, 1), BuildingBlock: AJUNOK_clean_linker_0, # of connection points: 2
#     Edge 14, Type (0, 1), BuildingBlock: AJUNOK_clean_linker_0, # of connection points: 2
#     Edge 15, Type (0, 1), BuildingBlock: AJUNOK_clean_linker_0, # of connection points: 2
#     Edge 16, Type (0, 1), BuildingBlock: AJUNOK_clean_linker_0, # of connection points: 2
#     Edge 17, Type (0, 1), BuildingBlock: AJUNOK_clean_linker_0, # of connection points: 2
#     Edge 18, Type (0, 1), BuildingBlock: AJUNOK_clean_linker_0, # of connection points: 2
#     Edge 19, Type (0, 1), BuildingBlock: AJUNOK_clean_linker_0, # of connection points: 2
#     Edge 20, Type (0, 1), BuildingBlock: AJUNOK_clean_linker_0, # of connection points: 2
#     Edge 21, Type (0, 1), BuildingBlock: AJUNOK_clean_linker_0, # of connection points: 2
#     Edge 22, Type (0, 1), BuildingBlock: AJUNOK_clean_linker_0, # of connection points: 2
#     Edge 23, Type (0, 1), BuildingBlock: AJUNOK_clean_linker_0, # of connection points: 2
#     Edge 24, Type (0, 1), BuildingBlock: AJUNOK_clean_linker_0, # of connection points: 2
#     Edge 25, Type (0, 1), BuildingBlock: AJUNOK_clean_linker_0, # of connection points: 2
#     Edge 26, Type (0, 1), BuildingBlock: AJUNOK_clean_linker_0, # of connection points: 2
#     Edge 27, Type (0, 1), BuildingBlock: AJUNOK_clean_linker_0, # of connection points: 2
#     Edge 28, Type (0, 1), BuildingBlock: AJUNOK_clean_linker_0, # of connection points: 2
#     Edge 29, Type (0, 1), BuildingBlock: AJUNOK_clean_linker_0, # of connection points: 2
#     Edge 30, Type (0, 1), BuildingBlock: AJUNOK_clean_linker_0, # of connection points: 2
#     Edge 31, Type (0, 1), BuildingBlock: AJUNOK_clean_linker_0, # of connection points: 2
#     Edge 32, Type (0, 1), BuildingBlock: AJUNOK_clean_linker_0, # of connection points: 2
#     Edge 33, Type (0, 1), BuildingBlock: AJUNOK_clean_linker_0, # of connection points: 2
#     Edge 34, Type (0, 1), BuildingBlock: AJUNOK_clean_linker_0, # of connection points: 2
#     Edge 35, Type (0, 1), BuildingBlock: AJUNOK_clean_linker_0, # of connection points: 2
# Relax obj value: 0.021
# Max RMSD: 0.061
# Mean RMSD: 0.059
data_MOF--net-hwx--node1-OJICUG_clean_sbu_0--node2-OLANEW_clean_sbu_2--edge1-AJUNOK_clean_linker_0
_symmetry_space_group_name_H-M    P1
_symmetry_Int_Tables_number       1
_symmetry_cell_setting            triclinic
loop_
_symmetry_equiv_pos_as_xyz
'x, y, z'
_cell_length_a     42.642232
_cell_length_b     42.551269
_cell_length_c     16.865247
_cell_angle_alpha  84.75561
_cell_angle_beta   95.953519
_cell_angle_gamma 90.04648
loop_
_atom_site_label
_atom_site_type_symbol
_atom_site_fract_x
_atom_site_fract_y
_atom_site_fract_z
_atom_type_partial_charge
Sc0 Sc 0.23706 0.23812 0.12479 0.0
Sc1 Sc 0.1807 0.1925 0.01807 0.0
Sc2 Sc 0.23405 0.24003 0.91527 0.0
O3 O 0.21728 0.22355 0.01939 0.0
C4 C 0.23537 0.30214 0.0085 0.0
C5 C 0.16362 0.23786 0.14798 0.0
C6 C 0.15955 0.23922 0.86368 0.0
C7 C 0.22569 0.16437 0.17121 0.0
C8 C 0.29777 0.23103 0.03331 0.0
C9 C 0.22239 0.16737 0.88995 0.0
O10 O 0.23729 0.28711 0.07768 0.0
O11 O 0.15605 0.21756 0.09871 0.0
O12 O 0.18744 0.24829 0.85402 0.0
O13 O 0.23938 0.19043 0.18295 0.0
O14 O 0.28269 0.23367 0.96395 0.0
O15 O 0.20099 0.16385 0.93711 0.0
O16 O 0.28464 0.23184 0.09728 0.0
O17 O 0.20401 0.16188 0.1146 0.0
O18 O 0.23655 0.19333 0.8766 0.0
O19 O 0.19173 0.24711 0.16347 0.0
O20 O 0.23333 0.28846 0.94417 0.0
O21 O 0.15335 0.21944 0.92085 0.0
Sc22 Sc 0.26859 0.73775 0.38278 0.0
Sc23 Sc 0.32473 0.68719 0.49826 0.0
Sc24 Sc 0.26918 0.72807 0.59243 0.0
O25 O 0.28751 0.71767 0.49126 0.0
C26 C 0.2662 0.79536 0.4915 0.0
C27 C 0.34194 0.74029 0.36276 0.0
C28 C 0.34373 0.72677 0.64702 0.0
C29 C 0.28279 0.66692 0.34441 0.0
C30 C 0.20707 0.72189 0.46979 0.0
C31 C 0.28372 0.65425 0.63074 0.0
O32 O 0.26456 0.78411 0.42391 0.0
O33 O 0.34893 0.71678 0.41365 0.0
O34 O 0.31543 0.73424 0.65557 0.0
O35 O 0.26976 0.69392 0.3279 0.0
O36 O 0.22077 0.72312 0.54032 0.0
O37 O 0.30526 0.65399 0.58404 0.0
O38 O 0.22151 0.72615 0.40761 0.0
O39 O 0.30268 0.66066 0.40532 0.0
O40 O 0.26794 0.67899 0.63836 0.0
O41 O 0.31398 0.75111 0.34709 0.0
O42 O 0.26884 0.77819 0.55766 0.0
O43 O 0.35073 0.71027 0.59213 0.0
Sc44 Sc 0.74953 0.76297 0.91507 0.0
Sc45 Sc 0.80192 0.81338 0.01866 0.0
Sc46 Sc 0.76256 0.75251 0.12477 0.0
O47 O 0.77142 0.77627 0.01945 0.0
C48 C 0.69395 0.75621 0.02812 0.0
C49 C 0.74805 0.83823 0.88103 0.0
C50 C 0.76458 0.82434 0.16782 0.0
C51 C 0.81917 0.77849 0.86913 0.0
C52 C 0.76431 0.69595 0.01275 0.0
C53 C 0.8366 0.76429 0.15538 0.0
O54 O 0.70414 0.75875 0.95969 0.0
O55 O 0.77152 0.84258 0.93159 0.0
O56 O 0.75795 0.79533 0.18123 0.0
O57 O 0.79249 0.76529 0.85912 0.0
O58 O 0.76593 0.70669 0.08091 0.0
O59 O 0.83638 0.78896 0.10656 0.0
O60 O 0.75904 0.71349 0.94757 0.0
O61 O 0.8266 0.79626 0.92485 0.0
O62 O 0.81208 0.7481 0.16644 0.0
O63 O 0.73728 0.8109 0.86999 0.0
O64 O 0.712 0.75443 0.09345 0.0
O65 O 0.77991 0.83475 0.11032 0.0
Sc66 Sc 0.74392 0.26542 0.5922 0.0
Sc67 Sc 0.69229 0.31857 0.4691 0.0
Sc68 Sc 0.73993 0.26602 0.38275 0.0
O69 O 0.72535 0.28333 0.48135 0.0
C70 C 0.80475 0.2663 0.49613 0.0
C71 C 0.7405 0.33915 0.61254 0.0
C72 C 0.73558 0.34026 0.33077 0.0
C73 C 0.67116 0.27482 0.61709 0.0
C74 C 0.73487 0.20318 0.49995 0.0
C75 C 0.66606 0.27632 0.3308 0.0
O76 O 0.79173 0.26596 0.56063 0.0
O77 O 0.71814 0.345 0.5572 0.0
O78 O 0.74635 0.31269 0.32594 0.0
O79 O 0.6984 0.26272 0.63748 0.0
O80 O 0.73535 0.21761 0.43056 0.0
O81 O 0.66216 0.29628 0.38053 0.0
O82 O 0.73738 0.21726 0.56368 0.0
O83 O 0.66546 0.29517 0.55745 0.0
O84 O 0.69263 0.26374 0.3247 0.0
O85 O 0.75242 0.31176 0.63137 0.0
O86 O 0.78898 0.26631 0.42796 0.0
O87 O 0.71565 0.34596 0.37883 0.0
O88 O 0.23311 0.53989 0.87182 0.0
Cd89 Cd 0.21872 0.50487 -0.01313 0.0
O90 O 0.28418 0.5386 0.90754 0.0
Cd91 Cd 0.27762 0.51855 0.028 0.0
O92 O 0.27646 0.54433 0.13367 0.0
C93 C 0.2619 0.57066 0.12014 0.0
O94 O 0.24763 0.57823 0.04808 0.0
C95 C 0.26092 0.54767 0.8574 0.0
C96 C 0.22809 0.43959 -0.01386 0.0
O97 O 0.20356 0.4534 0.9481 0.0
O98 O 0.24873 0.45676 0.02193 0.0
O99 O 0.96994 0.70064 0.32771 0.0
Cd100 Cd 0.00974 0.67521 0.42949 0.0
O101 O 0.95975 0.73277 0.41569 0.0
Cd102 Cd 0.93186 0.76512 0.47377 0.0
O103 O 0.90737 0.77947 0.57215 0.0
C104 C 0.89797 0.7569 0.61821 0.0
O105 O 0.90315 0.72779 0.60238 0.0
C106 C 0.95288 0.72249 0.34764 0.0
C107 C 0.0726 0.69414 0.43236 0.0
O108 O 0.06135 0.67362 0.38624 0.0
O109 O 0.05375 0.70662 0.47532 0.0
O110 O 0.76325 0.46031 0.07331 0.0
Cd111 Cd 0.78099 0.49697 0.96658 0.0
O112 O 0.80772 0.43355 0.08252 0.0
Cd113 Cd 0.82081 0.4551 0.96883 0.0
O114 O 0.81118 0.43642 0.85301 0.0
C115 C 0.78237 0.43281 0.82796 0.0
O116 O 0.76063 0.44397 0.86787 0.0
C117 C 0.78119 0.43819 0.10789 0.0
C118 C 0.77475 0.56071 -0.01102 0.0
O119 O 0.75389 0.54683 0.94454 0.0
O120 O 0.79834 0.54437 0.02361 0.0
O121 O 0.04063 0.27101 0.5876 0.0
Cd122 Cd 0.00364 0.29024 0.47277 0.0
O123 O 0.06842 0.31431 0.57418 0.0
Cd124 Cd 0.0477 0.32691 0.45212 0.0
O125 O 0.06848 0.31561 0.34558 0.0
C126 C 0.07063 0.28663 0.33409 0.0
O127 O 0.0568 0.26565 0.3806 0.0
C128 C 0.06315 0.28822 0.61343 0.0
C129 C 0.94052 0.27781 0.49171 0.0
O130 O 0.95615 0.26052 0.4511 0.0
O131 O 0.95478 0.30068 0.52407 0.0
O132 O 0.71318 0.96786 0.64087 0.0
Cd133 Cd 0.69466 0.00463 0.52472 0.0
O134 O 0.68678 0.93097 0.58047 0.0
Cd135 Cd 0.68407 0.9547 0.45973 0.0
O136 O 0.70361 0.93445 0.36078 0.0
C137 C 0.71461 0.90688 0.3825 0.0
O138 O 0.71279 0.89531 0.45684 0.0
C139 C 0.70266 0.93984 0.64241 0.0
C140 C 0.71242 0.06778 0.52561 0.0
O141 O 0.68894 0.05732 0.56153 0.0
O142 O 0.72823 0.04809 0.49204 0.0
O143 O 0.53649 0.23221 0.12273 0.0
Cd144 Cd 0.49682 0.22314 0.01142 0.0
O145 O 0.55712 0.26684 0.03815 0.0
Cd146 Cd 0.52544 0.26203 0.93035 0.0
O147 O 0.54791 0.26174 0.82076 0.0
C148 C 0.57448 0.24766 0.83193 0.0
O149 O 0.58309 0.23294 0.90278 0.0
C150 C 0.55781 0.25209 0.10729 0.0
C151 C 0.43347 0.22406 0.03735 0.0
O152 O 0.4482 0.19783 0.03709 0.0
O153 O 0.44888 0.24975 0.02783 0.0
O154 O 0.24035 0.03345 0.41282 0.0
Cd155 Cd 0.24278 0.9941 0.52971 0.0
O156 O 0.27916 0.0617 0.46436 0.0
Cd157 Cd 0.28433 0.03509 0.58141 0.0
O158 O 0.27845 0.05784 0.68942 0.0
C159 C 0.25063 0.06597 0.69991 0.0
O160 O 0.22696 0.05661 0.65169 0.0
C161 C 0.25825 0.05733 0.40716 0.0
C162 C 0.25351 0.93083 0.50571 0.0
O163 O 0.22598 0.94332 0.48973 0.0
O164 O 0.27619 0.94851 0.53013 0.0
O165 O 0.4594 0.73285 0.92415 0.0
Cd166 Cd 0.49485 0.731 0.04938 0.0
O167 O 0.44791 0.78353 0.91499 0.0
Cd168 Cd 0.47552 0.78841 0.02898 0.0
O169 O 0.45808 0.77839 0.14499 0.0
C170 C 0.43152 0.79132 0.14886 0.0
O171 O 0.42004 0.81113 0.08846 0.0
C172 C 0.44438 0.7567 0.88794 0.0
C173 C 0.5588 0.74221 0.03717 0.0
O174 O 0.54651 0.71552 0.02323 0.0
O175 O 0.54073 0.76406 0.0546 0.0
C176 C 0.11337 0.23287 0.21243 0.0
C177 C 0.13865 0.25153 0.18923 0.0
C178 C 0.09081 0.24481 0.25692 0.0
C179 C 0.09234 0.27604 0.27844 0.0
H180 H 0.11162 0.20852 0.19862 0.0
H181 H 0.07237 0.22922 0.27592 0.0
S182 S 0.1522 0.33552 0.22413 0.0
N183 N 0.16277 0.30334 0.18564 0.0
N184 N 0.12019 0.32603 0.26793 0.0
C185 C 0.11669 0.29541 0.25194 0.0
C186 C 0.13991 0.28307 0.20781 0.0
C187 C 0.24772 0.62004 0.70905 0.0
C188 C 0.27743 0.62477 0.68078 0.0
C189 C 0.24196 0.59376 0.76191 0.0
C190 C 0.26586 0.57144 0.78987 0.0
H191 H 0.22886 0.6371 0.69141 0.0
H192 H 0.21903 0.59187 0.78415 0.0
S193 S 0.34712 0.57153 0.72968 0.0
N194 N 0.33048 0.60365 0.68075 0.0
N195 N 0.31977 0.55467 0.78122 0.0
C196 C 0.29529 0.57517 0.75962 0.0
C197 C 0.30104 0.60169 0.70481 0.0
C198 C 0.88598 0.77511 0.24262 0.0
C199 C 0.86677 0.75371 0.2014 0.0
C200 C 0.91387 0.76494 0.29002 0.0
C201 C 0.92389 0.73322 0.29593 0.0
H202 H 0.87903 0.7997 0.23976 0.0
H203 H 0.92779 0.78207 0.32165 0.0
S204 S 0.88276 0.66841 0.19552 0.0
N205 N 0.86002 0.6997 0.1677 0.0
N206 N 0.91277 0.68077 0.25427 0.0
C207 C 0.90526 0.71186 0.25301 0.0
C208 C 0.87658 0.72204 0.2065 0.0
C209 C 0.73108 0.38713 0.68181 0.0
C210 C 0.75233 0.3651 0.65961 0.0
C211 C 0.74129 0.40989 0.73358 0.0
C212 C 0.77321 0.41182 0.76397 0.0
H213 H 0.70616 0.3859 0.66185 0.0
H214 H 0.72382 0.42549 0.75164 0.0
S215 S 0.83881 0.36237 0.71387 0.0
N216 N 0.80699 0.34838 0.66523 0.0
N217 N 0.82644 0.39155 0.76111 0.0
C218 C 0.79497 0.39115 0.73791 0.0
C219 C 0.78445 0.36764 0.68627 0.0
C220 C 0.60824 0.26631 0.29995 0.0
C221 C 0.63875 0.26851 0.27484 0.0
C222 C 0.58198 0.25988 0.24639 0.0
C223 C 0.58539 0.25642 0.16567 0.0
H224 H 0.60466 0.26951 0.36139 0.0
H225 H 0.55885 0.25855 0.26759 0.0
S226 S 0.66011 0.25964 0.07031 0.0
N227 N 0.67076 0.26597 0.16439 0.0
N228 N 0.62156 0.25481 0.06369 0.0
C229 C 0.61577 0.25834 0.14019 0.0
C230 C 0.64244 0.26414 0.1948 0.0
C231 C 0.2076 0.11846 0.82384 0.0
C232 C 0.23084 0.14016 0.84755 0.0
C233 C 0.21453 0.09384 0.77846 0.0
C234 C 0.24509 0.08959 0.75644 0.0
H235 H 0.1836 0.12117 0.838 0.0
H236 H 0.1956 0.07838 0.7592 0.0
S237 S 0.31509 0.13825 0.811 0.0
N238 N 0.28605 0.15467 0.85056 0.0
N239 N 0.29931 0.10813 0.76655 0.0
C240 C 0.26891 0.11026 0.78322 0.0
C241 C 0.26171 0.13564 0.82828 0.0
C242 C 0.3593 0.78135 0.26105 0.0
C243 C 0.36689 0.75499 0.31649 0.0
C244 C 0.38099 0.79385 0.21025 0.0
C245 C 0.41131 0.78059 0.21239 0.0
H246 H 0.33602 0.79203 0.25488 0.0
H247 H 0.37341 0.81347 0.16701 0.0
S248 S 0.44463 0.71382 0.35303 0.0
N249 N 0.40817 0.71781 0.37546 0.0
N250 N 0.44893 0.74139 0.27962 0.0
C251 C 0.41999 0.75541 0.27061 0.0
C252 C 0.39782 0.7426 0.32264 0.0
C253 C 0.71108 0.86046 0.76456 0.0
C254 C 0.73394 0.86573 0.82826 0.0
C255 C 0.70005 0.88496 0.70764 0.0
C256 C 0.71129 0.91598 0.71142 0.0
H257 H 0.7023 0.83696 0.75651 0.0
H258 H 0.68331 0.87909 0.65849 0.0
S259 S 0.76774 0.94356 0.87268 0.0
N260 N 0.7649 0.90525 0.89676 0.0
N261 N 0.7442 0.95131 0.78907 0.0
C262 C 0.73265 0.92213 0.77752 0.0
C263 C 0.74395 0.89704 0.83593 0.0
C264 C 0.84188 0.74396 0.77788 0.0
C265 C 0.8419 0.77308 0.81114 0.0
C266 C 0.86071 0.73884 0.71707 0.0
C267 C 0.8799 0.76284 0.68589 0.0
H268 H 0.82689 0.72499 0.79843 0.0
H269 H 0.85948 0.7161 0.69287 0.0
S270 S 0.88932 0.8431 0.75441 0.0
N271 N 0.86358 0.82594 0.81072 0.0
N272 N 0.89871 0.81653 0.6951 0.0
C273 C 0.88067 0.79192 0.7197 0.0
C274 C 0.8618 0.79697 0.78277 0.0
C275 C 0.77606 0.36338 0.24622 0.0
C276 C 0.74726 0.36676 0.27851 0.0
C277 C 0.78734 0.38721 0.19414 0.0
C278 C 0.7702 0.41543 0.17116 0.0
H279 H 0.79004 0.34199 0.26077 0.0
H280 H 0.80935 0.38293 0.16994 0.0
S281 S 0.69413 0.43687 0.24202 0.0
N282 N 0.7024 0.40124 0.28661 0.0
N283 N 0.72351 0.44601 0.1879 0.0
C284 C 0.74176 0.41959 0.20474 0.0
C285 C 0.73035 0.39531 0.25856 0.0
C286 C 0.13784 0.28031 0.75687 0.0
C287 C 0.13335 0.25223 0.80503 0.0
C288 C 0.11443 0.29237 0.69774 0.0
C289 C 0.08554 0.27675 0.68346 0.0
H290 H 0.15983 0.29301 0.76415 0.0
H291 H 0.11956 0.31368 0.66129 0.0
S292 S 0.061 0.2034 0.7964 0.0
N293 N 0.09701 0.2099 0.83731 0.0
N294 N 0.05304 0.23253 0.72556 0.0
C295 C 0.08023 0.24919 0.7329 0.0
C296 C 0.10408 0.23698 0.79378 0.0
C297 C 0.29214 0.61308 0.30116 0.0
C298 C 0.27516 0.64183 0.28948 0.0
C299 C 0.28686 0.58972 0.24792 0.0
C300 C 0.26442 0.5941 0.18051 0.0
H301 H 0.31025 0.6087 0.35095 0.0
H302 H 0.30122 0.56847 0.25857 0.0
S303 S 0.2112 0.66355 0.12657 0.0
N304 N 0.2331 0.67219 0.20807 0.0
N305 N 0.22331 0.62837 0.10824 0.0
C306 C 0.24634 0.62214 0.16971 0.0
C307 C 0.25167 0.64595 0.22401 0.0
C308 C 0.39873 0.71994 0.71511 0.0
C309 C 0.36983 0.73665 0.70479 0.0
C310 C 0.42316 0.7273 0.7725 0.0
C311 C 0.42002 0.75212 0.82074 0.0
H312 H 0.40224 0.70029 0.68035 0.0
H313 H 0.44451 0.71308 0.78003 0.0
S314 S 0.34984 0.8041 0.81587 0.0
N315 N 0.33994 0.7798 0.74668 0.0
N316 N 0.38609 0.79396 0.85339 0.0
C317 C 0.39174 0.76977 0.80931 0.0
C318 C 0.3666 0.76193 0.7518 0.0
C319 C 0.74563 0.83503 0.29778 0.0
C320 C 0.75329 0.84666 0.22148 0.0
C321 C 0.73352 0.85485 0.34902 0.0
C322 C 0.72818 0.8872 0.32613 0.0
H323 H 0.74897 0.81028 0.31843 0.0
H324 H 0.72793 0.84446 0.40687 0.0
S325 S 0.74448 0.92975 0.13275 0.0
N326 N 0.75497 0.89285 0.12553 0.0
N327 N 0.73193 0.93019 0.22207 0.0
C328 C 0.73591 0.89934 0.25019 0.0
C329 C 0.74858 0.8791 0.19796 0.0
C330 C 0.65236 0.24883 0.74245 0.0
C331 C 0.64528 0.26571 0.66698 0.0
C332 C 0.629 0.24202 0.79369 0.0
C333 C 0.59752 0.25179 0.77183 0.0
H334 H 0.67635 0.24153 0.76347 0.0
H335 H 0.63604 0.22986 0.85209 0.0
S336 S 0.56562 0.2932 0.57688 0.0
N337 N 0.60374 0.28951 0.56989 0.0
N338 N 0.55989 0.2768 0.66669 0.0
C339 C 0.58972 0.26734 0.69508 0.0
C340 C 0.61356 0.27429 0.64264 0.0
C341 C 0.25926 0.13772 0.28936 0.0
C342 C 0.2352 0.13572 0.22628 0.0
C343 C 0.2676 0.11175 0.34474 0.0
C344 C 0.25221 0.08255 0.34001 0.0
H345 H 0.27146 0.15971 0.29733 0.0
H346 H 0.28561 0.11508 0.39339 0.0
S347 S 0.18982 0.06354 0.18161 0.0
N348 N 0.19773 0.10105 0.15878 0.0
N349 N 0.21336 0.05246 0.2633 0.0
C350 C 0.22908 0.0797 0.27526 0.0
C351 C 0.2206 0.10618 0.21848 0.0
C352 C 0.21676 0.35432 0.93852 0.0
C353 C 0.23492 0.33716 0.0025 0.0
C354 C 0.21489 0.38741 0.93337 0.0
C355 C 0.23169 0.40469 -0.00903 0.0
H356 H 0.20325 0.34206 0.89301 0.0
H357 H 0.20012 0.39953 0.88382 0.0
S358 S 0.28395 0.37097 0.16819 0.0
N359 N 0.2707 0.33991 0.12354 0.0
N360 N 0.2678 0.40201 0.11306 0.0
C361 C 0.25058 0.38782 0.05418 0.0
C362 C 0.252 0.3541 0.06021 0.0
C363 C 0.15287 0.72298 0.51535 0.0
C364 C 0.17283 0.71491 0.45885 0.0
C365 C 0.12039 0.7169 0.50523 0.0
C366 C 0.10667 0.70204 0.43889 0.0
H367 H 0.16233 0.73433 0.5675 0.0
H368 H 0.10604 0.72343 0.55061 0.0
S369 S 0.14877 0.67562 0.27439 0.0
N370 N 0.17651 0.69105 0.33427 0.0
N371 N 0.11573 0.67942 0.3158 0.0
C372 C 0.1264 0.6938 0.38204 0.0
C373 C 0.15937 0.70029 0.39186 0.0
C374 C 0.75425 0.64751 0.94048 0.0
C375 C 0.76757 0.66139 0.00874 0.0
C376 C 0.75623 0.6149 0.93537 0.0
C377 C 0.77215 0.5949 -0.00242 0.0
H378 H 0.7418 0.66189 0.89077 0.0
H379 H 0.74561 0.60538 0.88159 0.0
S380 S 0.81075 0.61896 0.18974 0.0
N381 N 0.79681 0.65224 0.14076 0.0
N382 N 0.80107 0.59104 0.13011 0.0
C383 C 0.78566 0.60833 0.0661 0.0
C384 C 0.78321 0.64151 0.07198 0.0
C385 C 0.85465 0.26055 0.43205 0.0
C386 C 0.83975 0.26733 0.49945 0.0
C387 C 0.88739 0.26291 0.43125 0.0
C388 C 0.90651 0.27271 0.49718 0.0
H389 H 0.84092 0.25357 0.37892 0.0
H390 H 0.89766 0.258 0.3775 0.0
S391 S 0.88026 0.2904 0.69111 0.0
N392 N 0.84744 0.28202 0.63644 0.0
N393 N 0.90891 0.28715 0.63357 0.0
C394 C 0.89227 0.27875 0.56571 0.0
C395 C 0.85894 0.27583 0.56725 0.0
C396 C 0.71497 0.1538 0.56967 0.0
C397 C 0.73064 0.16847 0.50693 0.0
C398 C 0.70949 0.1212 0.57574 0.0
C399 C 0.72006 0.10188 0.52031 0.0
H400 H 0.70617 0.16771 0.61344 0.0
H401 H 0.69679 0.11108 0.62419 0.0
S402 S 0.76364 0.12849 0.34707 0.0
N403 N 0.75743 0.16107 0.38947 0.0
N404 N 0.74769 0.09978 0.40166 0.0
C405 C 0.73647 0.11614 0.45844 0.0
C406 C 0.74157 0.14942 0.45148 0.0
C407 C 0.34667 0.20523 0.0004 0.0
C408 C 0.33235 0.22829 0.03948 0.0
C409 C 0.3796 0.20316 0.00307 0.0
C410 C 0.39915 0.22476 0.04265 0.0
H411 H 0.33232 0.18873 0.96756 0.0
H412 H 0.38975 0.18526 0.97149 0.0
S413 S 0.37296 0.28946 0.15412 0.0
N414 N 0.33993 0.27258 0.12042 0.0
N415 N 0.40181 0.26961 0.12254 0.0
C416 C 0.38505 0.24784 0.08214 0.0
C417 C 0.35161 0.24936 0.08133 0.0
C418 C 0.24132 0.84773 0.44262 0.0
C419 C 0.26442 0.83001 0.49327 0.0
C420 C 0.23812 0.8804 0.44649 0.0
C421 C 0.2585 0.89666 0.49948 0.0
H422 H 0.22503 0.83613 0.4013 0.0
H423 H 0.21951 0.89299 0.40774 0.0
S424 S 0.32423 0.86117 0.6408 0.0
N425 N 0.3086 0.83105 0.59605 0.0
N426 N 0.30338 0.89253 0.60158 0.0
C427 C 0.28237 0.87927 0.54854 0.0
C428 C 0.28509 0.84592 0.54596 0.0
C429 C 0.64174 0.73519 0.97827 0.0
C430 C 0.65952 0.75374 0.03109 0.0
C431 C 0.60917 0.73163 0.98072 0.0
C432 C 0.59302 0.74724 0.03445 0.0
H433 H 0.65321 0.72277 0.93579 0.0
H434 H 0.5965 0.71668 0.93984 0.0
S435 S 0.62864 0.79942 0.18345 0.0
N436 N 0.65871 0.78809 0.13823 0.0
N437 N 0.5972 0.78236 0.14101 0.0
C438 C 0.61042 0.76641 0.08649 0.0
C439 C 0.64376 0.76936 0.08539 0.0
loop_
_geom_bond_atom_site_label_1
_geom_bond_atom_site_label_2
_geom_bond_distance
_geom_bond_site_symmetry_2
_ccdc_geom_bond_type
Sc0 O3 2.025 . S
Sc0 O10 2.105 . S
Sc0 O13 2.105 . S
Sc0 O16 2.105 . S
Sc0 O19 2.105 . S
Sc1 O3 2.025 . S
Sc1 O11 2.105 . S
Sc1 O15 2.105 1_554 S
Sc1 O17 2.105 . S
Sc1 O21 2.105 1_554 S
Sc2 O3 2.025 1_556 S
Sc2 O12 2.105 . S
Sc2 O14 2.105 . S
Sc2 O18 2.105 . S
Sc2 O20 2.105 . S
O3 Sc0 2.025 . S
O3 Sc1 2.025 . S
O3 Sc2 2.025 1_554 S
C4 O10 1.268 . S
C4 O20 1.268 1_554 S
C5 O11 1.268 . S
C5 O19 1.268 . S
C6 O12 1.268 . S
C6 O21 1.268 . S
C7 O13 1.268 . S
C7 O17 1.268 . S
C8 O14 1.268 1_554 S
C8 O16 1.268 . S
C9 O15 1.268 . S
C9 O18 1.268 . S
O10 Sc0 2.105 . S
O10 C4 1.268 . S
O11 Sc1 2.105 . S
O11 C5 1.268 . S
O12 Sc2 2.105 . S
O12 C6 1.268 . S
O13 Sc0 2.105 . S
O13 C7 1.268 . S
O14 Sc2 2.105 . S
O14 C8 1.268 1_556 S
O15 Sc1 2.105 1_556 S
O15 C9 1.268 . S
O16 Sc0 2.105 . S
O16 C8 1.268 . S
O17 Sc1 2.105 . S
O17 C7 1.268 . S
O18 Sc2 2.105 . S
O18 C9 1.268 . S
O19 Sc0 2.105 . S
O19 C5 1.268 . S
O20 Sc2 2.105 . S
O20 C4 1.268 1_556 S
O21 Sc1 2.105 1_556 S
O21 C6 1.268 . S
Sc22 O25 2.025 . S
Sc22 O32 2.105 . S
Sc22 O35 2.105 . S
Sc22 O38 2.105 . S
Sc22 O41 2.105 . S
Sc23 O25 2.025 . S
Sc23 O33 2.105 . S
Sc23 O37 2.105 . S
Sc23 O39 2.105 . S
Sc23 O43 2.105 . S
Sc24 O25 2.025 . S
Sc24 O34 2.105 . S
Sc24 O36 2.105 . S
Sc24 O40 2.105 . S
Sc24 O42 2.105 . S
O25 Sc22 2.025 . S
O25 Sc23 2.025 . S
O25 Sc24 2.025 . S
C26 O32 1.268 . S
C26 O42 1.268 . S
C27 O33 1.268 . S
C27 O41 1.268 . S
C28 O34 1.268 . S
C28 O43 1.268 . S
C29 O35 1.268 . S
C29 O39 1.268 . S
C30 O36 1.268 . S
C30 O38 1.268 . S
C31 O37 1.268 . S
C31 O40 1.268 . S
O32 Sc22 2.105 . S
O32 C26 1.268 . S
O33 Sc23 2.105 . S
O33 C27 1.268 . S
O34 Sc24 2.105 . S
O34 C28 1.268 . S
O35 Sc22 2.105 . S
O35 C29 1.268 . S
O36 Sc24 2.105 . S
O36 C30 1.268 . S
O37 Sc23 2.105 . S
O37 C31 1.268 . S
O38 Sc22 2.105 . S
O38 C30 1.268 . S
O39 Sc23 2.105 . S
O39 C29 1.268 . S
O40 Sc24 2.105 . S
O40 C31 1.268 . S
O41 Sc22 2.105 . S
O41 C27 1.268 . S
O42 Sc24 2.105 . S
O42 C26 1.268 . S
O43 Sc23 2.105 . S
O43 C28 1.268 . S
Sc44 O47 2.025 1_556 S
Sc44 O54 2.105 . S
Sc44 O57 2.105 . S
Sc44 O60 2.105 . S
Sc44 O63 2.105 . S
Sc45 O47 2.025 . S
Sc45 O55 2.105 1_554 S
Sc45 O59 2.105 . S
Sc45 O61 2.105 1_554 S
Sc45 O65 2.105 . S
Sc46 O47 2.025 . S
Sc46 O56 2.105 . S
Sc46 O58 2.105 . S
Sc46 O62 2.105 . S
Sc46 O64 2.105 . S
O47 Sc44 2.025 1_554 S
O47 Sc45 2.025 . S
O47 Sc46 2.025 . S
C48 O54 1.268 1_554 S
C48 O64 1.268 . S
C49 O55 1.268 . S
C49 O63 1.268 . S
C50 O56 1.268 . S
C50 O65 1.268 . S
C51 O57 1.268 . S
C51 O61 1.268 . S
C52 O58 1.268 . S
C52 O60 1.268 1_554 S
C53 O59 1.268 . S
C53 O62 1.268 . S
O54 Sc44 2.105 . S
O54 C48 1.268 1_556 S
O55 Sc45 2.105 1_556 S
O55 C49 1.268 . S
O56 Sc46 2.105 . S
O56 C50 1.268 . S
O57 Sc44 2.105 . S
O57 C51 1.268 . S
O58 Sc46 2.105 . S
O58 C52 1.268 . S
O59 Sc45 2.105 . S
O59 C53 1.268 . S
O60 Sc44 2.105 . S
O60 C52 1.268 1_556 S
O61 Sc45 2.105 1_556 S
O61 C51 1.268 . S
O62 Sc46 2.105 . S
O62 C53 1.268 . S
O63 Sc44 2.105 . S
O63 C49 1.268 . S
O64 Sc46 2.105 . S
O64 C48 1.268 . S
O65 Sc45 2.105 . S
O65 C50 1.268 . S
Sc66 O69 2.025 . S
Sc66 O76 2.105 . S
Sc66 O79 2.105 . S
Sc66 O82 2.105 . S
Sc66 O85 2.105 . S
Sc67 O69 2.025 . S
Sc67 O77 2.105 . S
Sc67 O81 2.105 . S
Sc67 O83 2.105 . S
Sc67 O87 2.105 . S
Sc68 O69 2.025 . S
Sc68 O78 2.105 . S
Sc68 O80 2.105 . S
Sc68 O84 2.105 . S
Sc68 O86 2.105 . S
O69 Sc66 2.025 . S
O69 Sc67 2.025 . S
O69 Sc68 2.025 . S
C70 O76 1.268 . S
C70 O86 1.268 . S
C71 O77 1.268 . S
C71 O85 1.268 . S
C72 O78 1.268 . S
C72 O87 1.268 . S
C73 O79 1.268 . S
C73 O83 1.268 . S
C74 O80 1.268 . S
C74 O82 1.268 . S
C75 O81 1.268 . S
C75 O84 1.268 . S
O76 Sc66 2.105 . S
O76 C70 1.268 . S
O77 Sc67 2.105 . S
O77 C71 1.268 . S
O78 Sc68 2.105 . S
O78 C72 1.268 . S
O79 Sc66 2.105 . S
O79 C73 1.268 . S
O80 Sc68 2.105 . S
O80 C74 1.268 . S
O81 Sc67 2.105 . S
O81 C75 1.268 . S
O82 Sc66 2.105 . S
O82 C74 1.268 . S
O83 Sc67 2.105 . S
O83 C73 1.268 . S
O84 Sc68 2.105 . S
O84 C75 1.268 . S
O85 Sc66 2.105 . S
O85 C71 1.268 . S
O86 Sc68 2.105 . S
O86 C70 1.268 . S
O87 Sc67 2.105 . S
O87 C72 1.268 . S
O88 Cd89 2.300 . S
O88 C95 1.275 . S
Cd89 O88 2.300 . S
Cd89 O97 2.381 . S
Cd89 O98 2.378 1_556 S
O90 Cd91 2.385 1_556 S
O90 C95 1.255 . S
Cd91 O90 2.385 1_554 S
Cd91 O92 2.317 . S
O92 Cd91 2.317 . S
O92 C93 1.232 . S
C93 O92 1.232 . S
C93 O94 1.218 . S
O94 C93 1.218 . S
C95 O88 1.275 . S
C95 O90 1.255 . S
C96 O97 1.263 . S
C96 O98 1.250 1_556 S
O97 Cd89 2.381 . S
O97 C96 1.263 . S
O98 Cd89 2.378 1_554 S
O98 C96 1.250 1_554 S
O99 Cd100 2.300 1_655 S
O99 C106 1.275 . S
Cd100 O99 2.300 1_455 S
Cd100 O108 2.381 . S
Cd100 O109 2.378 . S
O101 Cd102 2.385 . S
O101 C106 1.255 . S
Cd102 O101 2.385 . S
Cd102 O103 2.317 . S
O103 Cd102 2.317 . S
O103 C104 1.232 . S
C104 O103 1.232 . S
C104 O105 1.218 . S
O105 C104 1.218 . S
C106 O99 1.275 . S
C106 O101 1.255 . S
C107 O108 1.258 . S
C107 O109 1.256 . S
O108 Cd100 2.381 . S
O108 C107 1.258 . S
O109 Cd100 2.378 . S
O109 C107 1.256 . S
O110 Cd111 2.300 . S
O110 C117 1.275 . S
Cd111 O110 2.300 . S
Cd111 O119 2.381 . S
Cd111 O120 2.378 1_554 S
O112 Cd113 2.385 1_554 S
O112 C117 1.255 . S
Cd113 O112 2.385 1_556 S
Cd113 O114 2.317 . S
O114 Cd113 2.317 . S
O114 C115 1.232 . S
C115 O114 1.232 . S
C115 O116 1.218 . S
O116 C115 1.218 . S
C117 O110 1.275 . S
C117 O112 1.255 . S
C118 O119 1.258 . S
C118 O120 1.256 1_554 S
O119 Cd111 2.381 . S
O119 C118 1.258 . S
O120 Cd111 2.378 1_556 S
O120 C118 1.256 1_556 S
O121 Cd122 2.300 1_455 S
O121 C128 1.275 . S
Cd122 O121 2.300 1_655 S
Cd122 O130 2.381 . S
Cd122 O131 2.378 . S
O123 Cd124 2.385 . S
O123 C128 1.255 . S
Cd124 O123 2.385 . S
Cd124 O125 2.317 . S
O125 Cd124 2.317 . S
O125 C126 1.232 . S
C126 O125 1.232 . S
C126 O127 1.218 . S
O127 C126 1.218 . S
C128 O121 1.275 . S
C128 O123 1.255 . S
C129 O130 1.258 . S
C129 O131 1.256 . S
O130 Cd122 2.381 . S
O130 C129 1.258 . S
O131 Cd122 2.378 . S
O131 C129 1.256 . S
O132 Cd133 2.300 1_565 S
O132 C139 1.275 . S
Cd133 O132 2.300 1_545 S
Cd133 O141 2.381 . S
Cd133 O142 2.378 . S
O134 Cd135 2.385 . S
O134 C139 1.255 . S
Cd135 O134 2.385 . S
Cd135 O136 2.317 . S
O136 Cd135 2.317 . S
O136 C137 1.232 . S
C137 O136 1.232 . S
C137 O138 1.218 . S
O138 C137 1.218 . S
C139 O132 1.275 . S
C139 O134 1.255 . S
C140 O141 1.258 . S
C140 O142 1.256 . S
O141 Cd133 2.381 . S
O141 C140 1.258 . S
O142 Cd133 2.378 . S
O142 C140 1.256 . S
O143 Cd144 2.300 . S
O143 C150 1.275 . S
Cd144 O143 2.300 . S
Cd144 O152 2.381 . S
Cd144 O153 2.378 1_554 S
O145 Cd146 2.385 1_554 S
O145 C150 1.255 . S
Cd146 O145 2.385 1_556 S
Cd146 O147 2.317 . S
O147 Cd146 2.317 . S
O147 C148 1.232 . S
C148 O147 1.232 . S
C148 O149 1.218 . S
O149 C148 1.218 . S
C150 O143 1.275 . S
C150 O145 1.255 . S
C151 O152 1.258 . S
C151 O153 1.256 1_554 S
O152 Cd144 2.381 . S
O152 C151 1.258 . S
O153 Cd144 2.378 1_556 S
O153 C151 1.256 1_556 S
O154 Cd155 2.300 1_545 S
O154 C161 1.275 . S
Cd155 O154 2.300 1_565 S
Cd155 O163 2.381 . S
Cd155 O164 2.378 . S
O156 Cd157 2.385 . S
O156 C161 1.255 . S
Cd157 O156 2.385 . S
Cd157 O158 2.317 . S
O158 Cd157 2.317 . S
O158 C159 1.232 . S
C159 O158 1.232 . S
C159 O160 1.218 . S
O160 C159 1.218 . S
C161 O154 1.275 . S
C161 O156 1.255 . S
C162 O163 1.258 . S
C162 O164 1.256 . S
O163 Cd155 2.381 . S
O163 C162 1.258 . S
O164 Cd155 2.378 . S
O164 C162 1.256 . S
O165 Cd166 2.300 . S
O165 C172 1.275 . S
Cd166 O165 2.300 . S
Cd166 O174 2.381 . S
Cd166 O175 2.378 1_556 S
O167 Cd168 2.385 1_556 S
O167 C172 1.255 . S
Cd168 O167 2.385 1_554 S
Cd168 O169 2.317 . S
O169 Cd168 2.317 . S
O169 C170 1.232 . S
C170 O169 1.232 . S
C170 O171 1.218 . S
O171 C170 1.218 . S
C172 O165 1.275 . S
C172 O167 1.255 . S
C173 O174 1.258 . S
C173 O175 1.256 1_556 S
O174 Cd166 2.381 . S
O174 C173 1.258 . S
O175 Cd166 2.378 1_554 S
O175 C173 1.256 1_554 S
C176 C177 1.369 . S
C176 C178 1.419 . S
C176 H180 0.930 . S
C177 C176 1.369 . S
C177 C186 1.429 . S
C178 C176 1.419 . S
C178 C179 1.363 . S
C178 H181 0.929 . S
C179 C178 1.363 . S
C179 C185 1.428 . S
H180 C176 0.930 . S
H181 C178 0.929 . S
S182 N183 1.613 . S
S182 N184 1.610 . S
N183 S182 1.613 . S
N183 C186 1.350 . S
N184 S182 1.610 . S
N184 C185 1.351 . S
C185 C179 1.428 . S
C185 N184 1.351 . S
C185 C186 1.434 . S
C186 C177 1.429 . S
C186 N183 1.350 . S
C186 C185 1.434 . S
C187 C188 1.369 . S
C187 C189 1.419 . S
C187 H191 0.930 . S
C188 C187 1.369 . S
C188 C197 1.429 . S
C189 C187 1.419 . S
C189 C190 1.363 . S
C189 H192 0.929 . S
C190 C189 1.363 . S
C190 C196 1.428 . S
H191 C187 0.930 . S
H192 C189 0.929 . S
S193 N194 1.613 . S
S193 N195 1.610 . S
N194 S193 1.613 . S
N194 C197 1.350 . S
N195 S193 1.610 . S
N195 C196 1.351 . S
C196 C190 1.428 . S
C196 N195 1.351 . S
C196 C197 1.434 . S
C197 C188 1.429 . S
C197 N194 1.350 . S
C197 C196 1.434 . S
C198 C199 1.369 . S
C198 C200 1.419 . S
C198 H202 0.930 . S
C199 C198 1.369 . S
C199 C208 1.429 . S
C200 C198 1.419 . S
C200 C201 1.363 . S
C200 H203 0.929 . S
C201 C200 1.363 . S
C201 C207 1.428 . S
H202 C198 0.930 . S
H203 C200 0.929 . S
S204 N205 1.613 . S
S204 N206 1.610 . S
N205 S204 1.613 . S
N205 C208 1.350 . S
N206 S204 1.610 . S
N206 C207 1.351 . S
C207 C201 1.428 . S
C207 N206 1.351 . S
C207 C208 1.434 . S
C208 C199 1.429 . S
C208 N205 1.350 . S
C208 C207 1.434 . S
C209 C210 1.369 . S
C209 C211 1.419 . S
C209 H213 0.930 . S
C210 C209 1.369 . S
C210 C219 1.429 . S
C211 C209 1.419 . S
C211 C212 1.363 . S
C211 H214 0.929 . S
C212 C211 1.363 . S
C212 C218 1.428 . S
H213 C209 0.930 . S
H214 C211 0.929 . S
S215 N216 1.613 . S
S215 N217 1.610 . S
N216 S215 1.613 . S
N216 C219 1.350 . S
N217 S215 1.610 . S
N217 C218 1.351 . S
C218 C212 1.428 . S
C218 N217 1.351 . S
C218 C219 1.434 . S
C219 C210 1.429 . S
C219 N216 1.350 . S
C219 C218 1.434 . S
C220 C221 1.369 . S
C220 C222 1.419 . S
C220 H224 0.930 . S
C221 C220 1.369 . S
C221 C230 1.429 . S
C222 C220 1.419 . S
C222 C223 1.363 . S
C222 H225 0.929 . S
C223 C222 1.363 . S
C223 C229 1.428 . S
H224 C220 0.930 . S
H225 C222 0.929 . S
S226 N227 1.613 . S
S226 N228 1.610 . S
N227 S226 1.613 . S
N227 C230 1.350 . S
N228 S226 1.610 . S
N228 C229 1.351 . S
C229 C223 1.428 . S
C229 N228 1.351 . S
C229 C230 1.434 . S
C230 C221 1.429 . S
C230 N227 1.350 . S
C230 C229 1.434 . S
C231 C232 1.369 . S
C231 C233 1.419 . S
C231 H235 0.930 . S
C232 C231 1.369 . S
C232 C241 1.429 . S
C233 C231 1.419 . S
C233 C234 1.363 . S
C233 H236 0.929 . S
C234 C233 1.363 . S
C234 C240 1.428 . S
H235 C231 0.930 . S
H236 C233 0.929 . S
S237 N238 1.613 . S
S237 N239 1.610 . S
N238 S237 1.613 . S
N238 C241 1.350 . S
N239 S237 1.610 . S
N239 C240 1.351 . S
C240 C234 1.428 . S
C240 N239 1.351 . S
C240 C241 1.434 . S
C241 C232 1.429 . S
C241 N238 1.350 . S
C241 C240 1.434 . S
C242 C243 1.369 . S
C242 C244 1.419 . S
C242 H246 0.930 . S
C243 C242 1.369 . S
C243 C252 1.429 . S
C244 C242 1.419 . S
C244 C245 1.363 . S
C244 H247 0.929 . S
C245 C244 1.363 . S
C245 C251 1.428 . S
H246 C242 0.930 . S
H247 C244 0.929 . S
S248 N249 1.613 . S
S248 N250 1.610 . S
N249 S248 1.613 . S
N249 C252 1.350 . S
N250 S248 1.610 . S
N250 C251 1.351 . S
C251 C245 1.428 . S
C251 N250 1.351 . S
C251 C252 1.434 . S
C252 C243 1.429 . S
C252 N249 1.350 . S
C252 C251 1.434 . S
C253 C254 1.369 . S
C253 C255 1.419 . S
C253 H257 0.930 . S
C254 C253 1.369 . S
C254 C263 1.429 . S
C255 C253 1.419 . S
C255 C256 1.363 . S
C255 H258 0.929 . S
C256 C255 1.363 . S
C256 C262 1.428 . S
H257 C253 0.930 . S
H258 C255 0.929 . S
S259 N260 1.613 . S
S259 N261 1.610 . S
N260 S259 1.613 . S
N260 C263 1.350 . S
N261 S259 1.610 . S
N261 C262 1.351 . S
C262 C256 1.428 . S
C262 N261 1.351 . S
C262 C263 1.434 . S
C263 C254 1.429 . S
C263 N260 1.350 . S
C263 C262 1.434 . S
C264 C265 1.369 . S
C264 C266 1.419 . S
C264 H268 0.930 . S
C265 C264 1.369 . S
C265 C274 1.429 . S
C266 C264 1.419 . S
C266 C267 1.363 . S
C266 H269 0.929 . S
C267 C266 1.363 . S
C267 C273 1.428 . S
H268 C264 0.930 . S
H269 C266 0.929 . S
S270 N271 1.613 . S
S270 N272 1.610 . S
N271 S270 1.613 . S
N271 C274 1.350 . S
N272 S270 1.610 . S
N272 C273 1.351 . S
C273 C267 1.428 . S
C273 N272 1.351 . S
C273 C274 1.434 . S
C274 C265 1.429 . S
C274 N271 1.350 . S
C274 C273 1.434 . S
C275 C276 1.369 . S
C275 C277 1.419 . S
C275 H279 0.930 . S
C276 C275 1.369 . S
C276 C285 1.429 . S
C277 C275 1.419 . S
C277 C278 1.363 . S
C277 H280 0.929 . S
C278 C277 1.363 . S
C278 C284 1.428 . S
H279 C275 0.930 . S
H280 C277 0.929 . S
S281 N282 1.613 . S
S281 N283 1.610 . S
N282 S281 1.613 . S
N282 C285 1.350 . S
N283 S281 1.610 . S
N283 C284 1.351 . S
C284 C278 1.428 . S
C284 N283 1.351 . S
C284 C285 1.434 . S
C285 C276 1.429 . S
C285 N282 1.350 . S
C285 C284 1.434 . S
C286 C287 1.369 . S
C286 C288 1.419 . S
C286 H290 0.930 . S
C287 C286 1.369 . S
C287 C296 1.429 . S
C288 C286 1.419 . S
C288 C289 1.363 . S
C288 H291 0.929 . S
C289 C288 1.363 . S
C289 C295 1.428 . S
H290 C286 0.930 . S
H291 C288 0.929 . S
S292 N293 1.613 . S
S292 N294 1.610 . S
N293 S292 1.613 . S
N293 C296 1.350 . S
N294 S292 1.610 . S
N294 C295 1.351 . S
C295 C289 1.428 . S
C295 N294 1.351 . S
C295 C296 1.434 . S
C296 C287 1.429 . S
C296 N293 1.350 . S
C296 C295 1.434 . S
C297 C298 1.369 . S
C297 C299 1.419 . S
C297 H301 0.930 . S
C298 C297 1.369 . S
C298 C307 1.429 . S
C299 C297 1.419 . S
C299 C300 1.363 . S
C299 H302 0.929 . S
C300 C299 1.363 . S
C300 C306 1.428 . S
H301 C297 0.930 . S
H302 C299 0.929 . S
S303 N304 1.613 . S
S303 N305 1.610 . S
N304 S303 1.613 . S
N304 C307 1.350 . S
N305 S303 1.610 . S
N305 C306 1.351 . S
C306 C300 1.428 . S
C306 N305 1.351 . S
C306 C307 1.434 . S
C307 C298 1.429 . S
C307 N304 1.350 . S
C307 C306 1.434 . S
C308 C309 1.369 . S
C308 C310 1.419 . S
C308 H312 0.930 . S
C309 C308 1.369 . S
C309 C318 1.429 . S
C310 C308 1.419 . S
C310 C311 1.363 . S
C310 H313 0.929 . S
C311 C310 1.363 . S
C311 C317 1.428 . S
H312 C308 0.930 . S
H313 C310 0.929 . S
S314 N315 1.613 . S
S314 N316 1.610 . S
N315 S314 1.613 . S
N315 C318 1.350 . S
N316 S314 1.610 . S
N316 C317 1.351 . S
C317 C311 1.428 . S
C317 N316 1.351 . S
C317 C318 1.434 . S
C318 C309 1.429 . S
C318 N315 1.350 . S
C318 C317 1.434 . S
C319 C320 1.369 . S
C319 C321 1.419 . S
C319 H323 0.930 . S
C320 C319 1.369 . S
C320 C329 1.429 . S
C321 C319 1.419 . S
C321 C322 1.363 . S
C321 H324 0.929 . S
C322 C321 1.363 . S
C322 C328 1.428 . S
H323 C319 0.930 . S
H324 C321 0.929 . S
S325 N326 1.613 . S
S325 N327 1.610 . S
N326 S325 1.613 . S
N326 C329 1.350 . S
N327 S325 1.610 . S
N327 C328 1.351 . S
C328 C322 1.428 . S
C328 N327 1.351 . S
C328 C329 1.434 . S
C329 C320 1.429 . S
C329 N326 1.350 . S
C329 C328 1.434 . S
C330 C331 1.369 . S
C330 C332 1.419 . S
C330 H334 0.930 . S
C331 C330 1.369 . S
C331 C340 1.429 . S
C332 C330 1.419 . S
C332 C333 1.363 . S
C332 H335 0.929 . S
C333 C332 1.363 . S
C333 C339 1.428 . S
H334 C330 0.930 . S
H335 C332 0.929 . S
S336 N337 1.613 . S
S336 N338 1.610 . S
N337 S336 1.613 . S
N337 C340 1.350 . S
N338 S336 1.610 . S
N338 C339 1.351 . S
C339 C333 1.428 . S
C339 N338 1.351 . S
C339 C340 1.434 . S
C340 C331 1.429 . S
C340 N337 1.350 . S
C340 C339 1.434 . S
C341 C342 1.369 . S
C341 C343 1.419 . S
C341 H345 0.930 . S
C342 C341 1.369 . S
C342 C351 1.429 . S
C343 C341 1.419 . S
C343 C344 1.363 . S
C343 H346 0.929 . S
C344 C343 1.363 . S
C344 C350 1.428 . S
H345 C341 0.930 . S
H346 C343 0.929 . S
S347 N348 1.613 . S
S347 N349 1.610 . S
N348 S347 1.613 . S
N348 C351 1.350 . S
N349 S347 1.610 . S
N349 C350 1.351 . S
C350 C344 1.428 . S
C350 N349 1.351 . S
C350 C351 1.434 . S
C351 C342 1.429 . S
C351 N348 1.350 . S
C351 C350 1.434 . S
C352 C353 1.369 1_556 S
C352 C354 1.419 . S
C352 H356 0.930 . S
C353 C352 1.369 1_554 S
C353 C362 1.429 . S
C354 C352 1.419 . S
C354 C355 1.363 1_556 S
C354 H357 0.929 . S
C355 C354 1.363 1_554 S
C355 C361 1.428 . S
H356 C352 0.930 . S
H357 C354 0.929 . S
S358 N359 1.613 . S
S358 N360 1.610 . S
N359 S358 1.613 . S
N359 C362 1.350 . S
N360 S358 1.610 . S
N360 C361 1.351 . S
C361 C355 1.428 . S
C361 N360 1.351 . S
C361 C362 1.434 . S
C362 C353 1.429 . S
C362 N359 1.350 . S
C362 C361 1.434 . S
C363 C364 1.369 . S
C363 C365 1.419 . S
C363 H367 0.930 . S
C364 C363 1.369 . S
C364 C373 1.429 . S
C365 C363 1.419 . S
C365 C366 1.363 . S
C365 H368 0.929 . S
C366 C365 1.363 . S
C366 C372 1.428 . S
H367 C363 0.930 . S
H368 C365 0.929 . S
S369 N370 1.613 . S
S369 N371 1.610 . S
N370 S369 1.613 . S
N370 C373 1.350 . S
N371 S369 1.610 . S
N371 C372 1.351 . S
C372 C366 1.428 . S
C372 N371 1.351 . S
C372 C373 1.434 . S
C373 C364 1.429 . S
C373 N370 1.350 . S
C373 C372 1.434 . S
C374 C375 1.369 1_556 S
C374 C376 1.419 . S
C374 H378 0.930 . S
C375 C374 1.369 1_554 S
C375 C384 1.429 . S
C376 C374 1.419 . S
C376 C377 1.363 1_556 S
C376 H379 0.929 . S
C377 C376 1.363 1_554 S
C377 C383 1.428 . S
H378 C374 0.930 . S
H379 C376 0.929 . S
S380 N381 1.613 . S
S380 N382 1.610 . S
N381 S380 1.613 . S
N381 C384 1.350 . S
N382 S380 1.610 . S
N382 C383 1.351 . S
C383 C377 1.428 . S
C383 N382 1.351 . S
C383 C384 1.434 . S
C384 C375 1.429 . S
C384 N381 1.350 . S
C384 C383 1.434 . S
C385 C386 1.369 . S
C385 C387 1.419 . S
C385 H389 0.930 . S
C386 C385 1.369 . S
C386 C395 1.429 . S
C387 C385 1.419 . S
C387 C388 1.363 . S
C387 H390 0.929 . S
C388 C387 1.363 . S
C388 C394 1.428 . S
H389 C385 0.930 . S
H390 C387 0.929 . S
S391 N392 1.613 . S
S391 N393 1.610 . S
N392 S391 1.613 . S
N392 C395 1.350 . S
N393 S391 1.610 . S
N393 C394 1.351 . S
C394 C388 1.428 . S
C394 N393 1.351 . S
C394 C395 1.434 . S
C395 C386 1.429 . S
C395 N392 1.350 . S
C395 C394 1.434 . S
C396 C397 1.369 . S
C396 C398 1.419 . S
C396 H400 0.930 . S
C397 C396 1.369 . S
C397 C406 1.429 . S
C398 C396 1.419 . S
C398 C399 1.363 . S
C398 H401 0.929 . S
C399 C398 1.363 . S
C399 C405 1.428 . S
H400 C396 0.930 . S
H401 C398 0.929 . S
S402 N403 1.613 . S
S402 N404 1.610 . S
N403 S402 1.613 . S
N403 C406 1.350 . S
N404 S402 1.610 . S
N404 C405 1.351 . S
C405 C399 1.428 . S
C405 N404 1.351 . S
C405 C406 1.434 . S
C406 C397 1.429 . S
C406 N403 1.350 . S
C406 C405 1.434 . S
C407 C408 1.369 1_556 S
C407 C409 1.419 . S
C407 H411 0.930 . S
C408 C407 1.369 1_554 S
C408 C417 1.429 . S
C409 C407 1.419 . S
C409 C410 1.363 1_556 S
C409 H412 0.929 . S
C410 C409 1.363 1_554 S
C410 C416 1.428 . S
H411 C407 0.930 . S
H412 C409 0.929 . S
S413 N414 1.613 . S
S413 N415 1.610 . S
N414 S413 1.613 . S
N414 C417 1.350 . S
N415 S413 1.610 . S
N415 C416 1.351 . S
C416 C410 1.428 . S
C416 N415 1.351 . S
C416 C417 1.434 . S
C417 C408 1.429 . S
C417 N414 1.350 . S
C417 C416 1.434 . S
C418 C419 1.369 . S
C418 C420 1.419 . S
C418 H422 0.930 . S
C419 C418 1.369 . S
C419 C428 1.429 . S
C420 C418 1.419 . S
C420 C421 1.363 . S
C420 H423 0.929 . S
C421 C420 1.363 . S
C421 C427 1.428 . S
H422 C418 0.930 . S
H423 C420 0.929 . S
S424 N425 1.613 . S
S424 N426 1.610 . S
N425 S424 1.613 . S
N425 C428 1.350 . S
N426 S424 1.610 . S
N426 C427 1.351 . S
C427 C421 1.428 . S
C427 N426 1.351 . S
C427 C428 1.434 . S
C428 C419 1.429 . S
C428 N425 1.350 . S
C428 C427 1.434 . S
C429 C430 1.369 1_556 S
C429 C431 1.419 . S
C429 H433 0.930 . S
C430 C429 1.369 1_554 S
C430 C439 1.429 . S
C431 C429 1.419 . S
C431 C432 1.363 . S
C431 H434 0.929 . S
C432 C431 1.363 . S
C432 C438 1.428 1_556 S
H433 C429 0.930 . S
H434 C431 0.929 . S
S435 N436 1.613 . S
S435 N437 1.610 . S
N436 S435 1.613 . S
N436 C439 1.350 . S
N437 S435 1.610 . S
N437 C438 1.351 . S
C438 C432 1.428 1_554 S
C438 N437 1.351 . S
C438 C439 1.434 . S
C439 C430 1.429 . S
C439 N436 1.350 . S
C439 C438 1.434 . S
C177 C5 1.465 . S
C179 C126 1.343 . S
C188 C31 1.542 . S
C190 C95 1.486 . S
C201 C106 1.458 . S
C199 C53 1.490 . S
C210 C71 1.419 . S
C212 C115 1.294 . S
C223 C150 1.487 . S
C221 C75 1.539 . S
C234 C159 1.343 . S
C232 C9 1.464 . S
C245 C170 1.303 . S
C243 C27 1.418 . S
C256 C139 1.454 . S
C254 C49 1.490 . S
C265 C51 1.466 . S
C267 C104 1.190 . S
C276 C72 1.540 . S
C278 C117 1.545 . S
C287 C6 1.490 . S
C289 C128 1.496 . S
C300 C93 1.181 . S
C298 C29 1.413 . S
C309 C28 1.541 . S
C311 C172 1.544 . S
C322 C137 1.199 . S
C320 C50 1.468 . S
C333 C148 1.189 . S
C331 C73 1.419 . S
C342 C7 1.485 . S
C344 C161 1.499 . S
C355 C96 1.498 1_554 S
C353 C4 1.519 . S
C366 C107 1.498 . S
C364 C30 1.523 . S
C375 C52 1.521 . S
C377 C118 1.529 . S
C386 C70 1.526 . S
C388 C129 1.532 . S
C399 C140 1.500 . S
C397 C74 1.525 . S
C408 C8 1.518 . S
C410 C151 1.496 . S
C419 C26 1.525 . S
C421 C162 1.532 . S
C430 C48 1.521 . S
C432 C173 1.529 . S
