# Generated by pormake.
# Topology ssa, (4,4)-cn, num edge types: 1
# Building blocks:
#     Node 0, Type 0, BuildingBlock: ESEHIV_clean_sbu_0, # of connection points: 4
#     Node 1, Type 0, BuildingBlock: ESEHIV_clean_sbu_0, # of connection points: 4
#     Node 2, Type 0, BuildingBlock: ESEHIV_clean_sbu_0, # of connection points: 4
#     Node 3, Type 0, BuildingBlock: ESEHIV_clean_sbu_0, # of connection points: 4
#     Node 4, Type 0, BuildingBlock: ESEHIV_clean_sbu_0, # of connection points: 4
#     Node 5, Type 0, BuildingBlock: ESEHIV_clean_sbu_0, # of connection points: 4
#     Node 6, Type 1, BuildingBlock: NAWXER_clean_sbu_0, # of connection points: 4
#     Node 7, Type 1, BuildingBlock: NAWXER_clean_sbu_0, # of connection points: 4
#     Node 8, Type 1, BuildingBlock: NAWXER_clean_sbu_0, # of connection points: 4
#     Node 9, Type 1, BuildingBlock: NAWXER_clean_sbu_0, # of connection points: 4
#     Node 10, Type 1, BuildingBlock: NAWXER_clean_sbu_0, # of connection points: 4
#     Node 11, Type 1, BuildingBlock: NAWXER_clean_sbu_0, # of connection points: 4
#     Edge 12, Type (0, 1), BuildingBlock: MIFKUJ_clean_linker_0, # of connection points: 2
#     Edge 13, Type (0, 1), BuildingBlock: MIFKUJ_clean_linker_0, # of connection points: 2
#     Edge 14, Type (0, 1), BuildingBlock: MIFKUJ_clean_linker_0, # of connection points: 2
#     Edge 15, Type (0, 1), BuildingBlock: MIFKUJ_clean_linker_0, # of connection points: 2
#     Edge 16, Type (0, 1), BuildingBlock: MIFKUJ_clean_linker_0, # of connection points: 2
#     Edge 17, Type (0, 1), BuildingBlock: MIFKUJ_clean_linker_0, # of connection points: 2
#     Edge 18, Type (0, 1), BuildingBlock: MIFKUJ_clean_linker_0, # of connection points: 2
#     Edge 19, Type (0, 1), BuildingBlock: MIFKUJ_clean_linker_0, # of connection points: 2
#     Edge 20, Type (0, 1), BuildingBlock: MIFKUJ_clean_linker_0, # of connection points: 2
#     Edge 21, Type (0, 1), BuildingBlock: MIFKUJ_clean_linker_0, # of connection points: 2
#     Edge 22, Type (0, 1), BuildingBlock: MIFKUJ_clean_linker_0, # of connection points: 2
#     Edge 23, Type (0, 1), BuildingBlock: MIFKUJ_clean_linker_0, # of connection points: 2
#     Edge 24, Type (0, 1), BuildingBlock: MIFKUJ_clean_linker_0, # of connection points: 2
#     Edge 25, Type (0, 1), BuildingBlock: MIFKUJ_clean_linker_0, # of connection points: 2
#     Edge 26, Type (0, 1), BuildingBlock: MIFKUJ_clean_linker_0, # of connection points: 2
#     Edge 27, Type (0, 1), BuildingBlock: MIFKUJ_clean_linker_0, # of connection points: 2
#     Edge 28, Type (0, 1), BuildingBlock: MIFKUJ_clean_linker_0, # of connection points: 2
#     Edge 29, Type (0, 1), BuildingBlock: MIFKUJ_clean_linker_0, # of connection points: 2
#     Edge 30, Type (0, 1), BuildingBlock: MIFKUJ_clean_linker_0, # of connection points: 2
#     Edge 31, Type (0, 1), BuildingBlock: MIFKUJ_clean_linker_0, # of connection points: 2
#     Edge 32, Type (0, 1), BuildingBlock: MIFKUJ_clean_linker_0, # of connection points: 2
#     Edge 33, Type (0, 1), BuildingBlock: MIFKUJ_clean_linker_0, # of connection points: 2
#     Edge 34, Type (0, 1), BuildingBlock: MIFKUJ_clean_linker_0, # of connection points: 2
#     Edge 35, Type (0, 1), BuildingBlock: MIFKUJ_clean_linker_0, # of connection points: 2
# Relax obj value: 0.014
# Max RMSD: 0.107
# Mean RMSD: 0.057
data_MOF--net-ssa--node1-ESEHIV_clean_sbu_0--node2-NAWXER_clean_sbu_0--edge1-MIFKUJ_clean_linker_0
_symmetry_space_group_name_H-M    P1
_symmetry_Int_Tables_number       1
_symmetry_cell_setting            triclinic
loop_
_symmetry_equiv_pos_as_xyz
'x, y, z'
_cell_length_a     58.21875
_cell_length_b     62.042295
_cell_length_c     50.212408
_cell_angle_alpha  88.51597
_cell_angle_beta   90.972377
_cell_angle_gamma 122.01696
loop_
_atom_site_label
_atom_site_type_symbol
_atom_site_fract_x
_atom_site_fract_y
_atom_site_fract_z
_atom_type_partial_charge
Cu0 Cu 0.99679 0.51891 0.02934 0.0
N1 N 0.97445 0.4835 0.03155 0.0
N2 N 0.94729 0.44358 0.01793 0.0
C3 C 0.96067 0.46847 0.01099 0.0
C4 C 0.95287 0.4429 0.04405 0.0
C5 C 0.96959 0.46762 0.05243 0.0
O6 O 0.98263 0.53013 1.00018 0.0
C7 C 0.0428 0.51383 0.02815 0.0
O8 O 0.02516 0.48992 0.02279 0.0
H9 H 0.9611 0.47564 0.99106 0.0
H10 H 0.97799 0.47359 0.07218 0.0
N11 N 0.99456 0.53333 0.06052 0.0
N12 N 0.01007 0.55881 0.09574 0.0
C13 C 0.01538 0.54641 0.07746 0.0
C14 C 0.97508 0.53716 0.06841 0.0
C15 C 0.98454 0.5528 0.0902 0.0
C16 C 0.98396 0.52667 0.9755 0.0
O17 O 0.9993 0.5183 0.96789 0.0
H18 H 0.03444 0.54753 0.07559 0.0
H19 H 0.956 0.53027 0.05815 0.0
O20 O 0.03503 0.52957 0.02771 0.0
H21 H 0.94545 0.42584 0.05622 0.0
H22 H 0.97394 0.56029 0.1001 0.0
Cu23 Cu 0.53566 0.012 0.51106 0.0
N24 N 0.54732 0.0068 0.47878 0.0
N25 N 0.54782 0.9852 0.44396 0.0
C26 C 0.53835 0.98371 0.46875 0.0
C27 C 0.56353 0.01038 0.43829 0.0
C28 C 0.56308 0.02364 0.45975 0.0
O29 O 0.49979 0.98178 0.5159 0.0
C30 C 0.58438 0.03661 0.53769 0.0
O31 O 0.59095 0.04982 0.51521 0.0
H32 H 0.52483 0.96616 0.47947 0.0
H33 H 0.57287 0.04405 0.46105 0.0
N34 N 0.53442 0.04149 0.50986 0.0
N35 N 0.53628 0.07595 0.52497 0.0
C36 C 0.53765 0.0554 0.53131 0.0
C37 C 0.53092 0.05361 0.48909 0.0
C38 C 0.5319 0.07487 0.4984 0.0
C39 C 0.47821 0.98168 0.51101 0.0
O40 O 0.47953 0.00342 0.50835 0.0
H41 H 0.54058 0.05025 0.55127 0.0
H42 H 0.52782 0.04742 0.46869 0.0
O43 O 0.56063 0.01695 0.53991 0.0
H44 H 0.57394 0.0187 0.41966 0.0
H45 H 0.52986 0.08857 0.48651 0.0
Cu46 Cu 0.5221 0.49636 0.02868 0.0
N47 N 0.52089 0.46588 0.02484 0.0
N48 N 0.52076 0.43448 1.00385 0.0
C49 C 0.51598 0.4535 1.00177 0.0
C50 C 0.52888 0.43481 0.02925 0.0
C51 C 0.52886 0.45417 0.04219 0.0
O52 O 0.54483 0.51855 0.99966 0.0
C53 C 0.46944 0.4741 0.04511 0.0
O54 O 0.4772 0.46068 0.05879 0.0
H55 H 0.51056 0.4593 0.98341 0.0
H56 H 0.53525 0.45993 0.06247 0.0
N57 N 0.53632 0.51106 0.06187 0.0
N58 N 0.53994 0.53098 0.09967 0.0
C59 C 0.52595 0.5216 0.07683 0.0
C60 C 0.55761 0.51376 0.0759 0.0
C61 C 0.56006 0.52631 0.09914 0.0
C62 C 0.56915 0.52379 0.99936 0.0
O63 O 0.57766 0.51557 0.01921 0.0
H64 H 0.5088 0.52293 0.07077 0.0
H65 H 0.5705 0.50714 0.0698 0.0
O66 O 0.4857 0.49032 0.02798 0.0
H67 H 0.53491 0.42231 0.03768 0.0
H68 H 0.5753 0.53148 0.11448 0.0
Cu69 Cu 1.0001 0.49015 0.51519 0.0
N70 N 0.99847 0.47204 0.48545 0.0
N71 N 0.01583 0.4632 0.45105 0.0
C72 C 0.02079 0.4745 0.47483 0.0
C73 C 0.98901 0.45275 0.44675 0.0
C74 C 0.97835 0.45837 0.468 0.0
O75 O 0.03735 0.51941 0.51408 0.0
C76 C 0.98 0.44564 0.54864 0.0
O77 O 0.98014 0.43431 0.52696 0.0
H78 H 0.04053 0.4852 0.48414 0.0
H79 H 0.95779 0.45391 0.46993 0.0
N80 N 0.97526 0.5004 0.51261 0.0
N81 N 0.94706 0.51174 0.52688 0.0
C82 C 0.9645 0.5045 0.53389 0.0
C83 C 0.96431 0.50515 0.49119 0.0
C84 C 0.94692 0.51228 0.49995 0.0
C85 C 0.04305 0.54155 0.50684 0.0
O86 O 0.0238 0.54658 0.50657 0.0
H87 H 0.96979 0.50256 0.55419 0.0
H88 H 0.9687 0.50362 0.47072 0.0
O89 O 0.9902 0.46958 0.548 0.0
H90 H 0.97815 0.44295 0.42893 0.0
H91 H 0.93489 0.51712 0.48749 0.0
Cu92 Cu 0.4944 0.99324 0.00959 0.0
N93 N 0.47209 0.98917 0.9807 0.0
N94 N 0.45365 1.00101 0.94867 0.0
C95 C 0.46858 0.00768 0.97125 0.0
C96 C 0.44756 0.97721 0.94376 0.0
C97 C 0.45906 0.96999 0.96354 0.0
O98 O 0.52183 0.0296 0.00881 0.0
C99 C 0.45364 0.9568 0.04173 0.0
O100 O 0.44886 0.94447 0.01943 0.0
H101 H 0.47806 0.02619 0.98018 0.0
H102 H 0.45867 0.95237 0.96484 0.0
N103 N 0.51029 0.97424 1.00521 0.0
N104 N 0.52553 0.94906 0.01677 0.0
C105 C 0.51244 0.96025 0.02479 0.0
C106 C 0.5225 0.97191 0.98391 0.0
C107 C 0.53215 0.95643 0.99109 0.0
C108 C 0.54715 0.03852 0.00725 0.0
O109 O 0.55615 0.02338 0.01223 0.0
H110 H 0.5051 0.95883 0.04481 0.0
H111 H 0.52457 0.9811 0.96472 0.0
O112 O 0.47286 0.98011 0.04218 0.0
H113 H 0.43606 0.96595 0.92687 0.0
H114 H 0.543 0.95092 0.97845 0.0
Cu115 Cu 0.52051 0.50902 0.49333 0.0
N116 N 0.54701 0.52863 0.468 0.0
N117 N 0.56904 0.55785 0.43579 0.0
C118 C 0.5457 0.54398 0.44951 0.0
C119 C 0.58571 0.55076 0.44608 0.0
C120 C 0.57206 0.53276 0.46601 0.0
O121 O 0.48714 0.50666 0.48102 0.0
C122 C 0.52462 0.51698 0.55011 0.0
O123 O 0.49842 0.50047 0.5515 0.0
H124 H 0.52835 0.54579 0.44709 0.0
H125 H 0.58008 0.5239 0.47869 0.0
N126 N 0.5159 0.47679 0.49568 0.0
N127 N 0.50995 0.44132 0.51529 0.0
C128 C 0.50514 0.46033 0.51645 0.0
C129 C 0.5275 0.46765 0.48045 0.0
C130 C 0.52385 0.4458 0.49244 0.0
C131 C 0.48429 0.52567 0.47984 0.0
O132 O 0.5026 0.54687 0.49125 0.0
H133 H 0.49476 0.46273 0.53255 0.0
H134 H 0.53921 0.47702 0.46271 0.0
O135 O 0.53573 0.52494 0.52739 0.0
H136 H 0.60643 0.55833 0.44012 0.0
H137 H 0.53225 0.43501 0.48558 0.0
C138 C 0.30326 0.52501 0.27831 0.0
C139 C 0.24287 0.527 0.20902 0.0
O140 O 0.28472 0.50297 0.27036 0.0
Zn141 Zn 0.25153 0.4867 0.24268 0.0
O142 O 0.30439 0.5446 0.26827 0.0
Zn143 Zn 0.27357 0.52717 0.24362 0.0
O144 O 0.23979 0.50814 0.2704 0.0
O145 O 0.22009 0.46679 0.26527 0.0
O146 O 0.26249 0.54613 0.22053 0.0
O147 O 0.23738 0.50463 0.21556 0.0
O148 O 0.26208 0.46952 0.21885 0.0
O149 O 0.28743 0.51137 0.21473 0.0
C150 C 0.22099 0.48532 0.27659 0.0
C151 C 0.28138 0.48926 0.20746 0.0
C152 C 0.78507 0.27373 0.74305 0.0
C153 C 0.72042 0.21927 0.81313 0.0
O154 O 0.76476 0.2743 0.75101 0.0
Zn155 Zn 0.75168 0.24668 0.77744 0.0
O156 O 0.78994 0.25746 0.7535 0.0
Zn157 Zn 0.77354 0.22792 0.78366 0.0
O158 O 0.7634 0.19772 0.76353 0.0
O159 O 0.73841 0.21389 0.75364 0.0
O160 O 0.73914 0.21481 0.80878 0.0
O161 O 0.71969 0.23638 0.79928 0.0
O162 O 0.78347 0.26336 0.80632 0.0
O163 O 0.8027 0.24085 0.81002 0.0
C164 C 0.74419 0.19689 0.75014 0.0
C165 C 0.80126 0.25966 0.81706 0.0
C166 C 0.53013 0.78911 0.28475 0.0
C167 C 0.52589 0.72367 0.22824 0.0
O168 O 0.55329 0.79526 0.2755 0.0
Zn169 Zn 0.56987 0.7791 0.25069 0.0
O170 O 0.50936 0.76763 0.27914 0.0
Zn171 Zn 0.52709 0.75615 0.2561 0.0
O172 O 0.55077 0.74848 0.28324 0.0
O173 O 0.59407 0.77498 0.27423 0.0
O174 O 0.50599 0.72334 0.23881 0.0
O175 O 0.54984 0.74323 0.23103 0.0
O176 O 0.585 0.80332 0.22142 0.0
O177 O 0.54038 0.78292 0.22331 0.0
C178 C 0.57573 0.75645 0.28792 0.0
C179 C 0.56276 0.79969 0.21224 0.0
C180 C 0.78257 0.52106 0.7983 0.0
C181 C 0.7186 0.51773 0.73003 0.0
O182 O 0.76104 0.50129 0.79018 0.0
Zn183 Zn 0.74952 0.51792 0.76407 0.0
O184 O 0.78922 0.5428 0.78826 0.0
Zn185 Zn 0.77479 0.55845 0.759 0.0
O186 O 0.76777 0.58035 0.77996 0.0
O187 O 0.73873 0.53934 0.78774 0.0
O188 O 0.73923 0.54005 0.7341 0.0
O189 O 0.71612 0.49879 0.74326 0.0
O190 O 0.77966 0.53082 0.7337 0.0
O191 O 0.80369 0.57278 0.73269 0.0
C192 C 0.74692 0.56262 0.7919 0.0
C193 C 0.79892 0.5518 0.72365 0.0
C194 C 0.29767 0.78851 0.25904 0.0
C195 C 0.24102 0.72195 0.32581 0.0
O196 O 0.2797 0.79137 0.2699 0.0
Zn197 Zn 0.24843 0.77304 0.29917 0.0
O198 O 0.29932 0.76946 0.26587 0.0
Zn199 Zn 0.27022 0.75461 0.29228 0.0
O200 O 0.23494 0.74224 0.26797 0.0
O201 O 0.21557 0.76316 0.27908 0.0
O202 O 0.26 0.7231 0.31234 0.0
O203 O 0.23565 0.73936 0.32246 0.0
O204 O 0.2611 0.79882 0.32604 0.0
O205 O 0.2868 0.78268 0.32276 0.0
C206 C 0.21581 0.74656 0.26494 0.0
C207 C 0.28168 0.79815 0.33366 0.0
C208 C 0.50932 0.27421 0.79549 0.0
C209 C 0.51667 0.2254 0.72471 0.0
O210 O 0.53039 0.27502 0.78759 0.0
Zn211 Zn 0.51323 0.24915 0.7609 0.0
O212 O 0.48629 0.25846 0.78486 0.0
Zn213 Zn 0.47089 0.23019 0.75418 0.0
O214 O 0.4468 0.19818 0.77244 0.0
O215 O 0.48962 0.21504 0.78417 0.0
O216 O 0.49239 0.2201 0.7279 0.0
O217 O 0.53539 0.24099 0.74015 0.0
O218 O 0.50022 0.26635 0.73123 0.0
O219 O 0.45553 0.24314 0.72897 0.0
C220 C 0.46467 0.19726 0.78637 0.0
C221 C 0.4779 0.26217 0.72093 0.0
H222 H 0.06395 0.48391 0.03503 0.0
H223 H 0.10168 0.49165 0.06377 0.0
H224 H 0.11879 0.56667 0.07997 0.0
H225 H 0.08081 0.55908 0.05119 0.0
H226 H 0.1668 0.56332 0.07479 0.0
H227 H 0.08349 0.52462 0.12323 0.0
H228 H 0.03505 0.49311 0.13091 0.0
H229 H 0.05092 0.43293 0.13241 0.0
H230 H 0.09943 0.46407 0.12425 0.0
H231 H 0.24248 0.57002 0.19393 0.0
H232 H 0.212 0.57291 0.16158 0.0
H233 H 0.17444 0.49316 0.1453 0.0
H234 H 0.20418 0.49005 0.1776 0.0
H235 H 0.13693 0.50352 0.15242 0.0
H236 H 0.2196 0.54166 0.10136 0.0
H237 H 0.26791 0.57283 0.0924 0.0
H238 H 0.25353 0.63381 0.09567 0.0
H239 H 0.20517 0.603 0.10499 0.0
C240 C 0.07602 0.5023 0.04419 0.0
C241 C 0.06908 0.52076 0.04093 0.0
C242 C 0.0976 0.50667 0.0607 0.0
C243 C 0.11283 0.5296 0.07433 0.0
C244 C 0.10729 0.54882 0.06968 0.0
C245 C 0.08554 0.54443 0.05319 0.0
C246 C 0.13261 0.53223 0.09522 0.0
C247 C 0.16029 0.55053 0.092 0.0
C248 C 0.12416 0.51542 0.11757 0.0
C249 C 0.09506 0.49667 0.1229 0.0
C250 C 0.07663 0.50465 0.125 0.0
C251 C 0.04916 0.48686 0.12946 0.0
C252 C 0.0399 0.46103 0.1321 0.0
C253 C 0.05812 0.45295 0.13034 0.0
C254 C 0.08561 0.47066 0.12582 0.0
C255 C 0.22783 0.55317 0.18331 0.0
C256 C 0.22578 0.52979 0.1885 0.0
C257 C 0.21045 0.55485 0.16475 0.0
C258 C 0.19088 0.53325 0.15084 0.0
C259 C 0.18919 0.51008 0.15579 0.0
C260 C 0.20634 0.50837 0.17432 0.0
C261 C 0.17142 0.53415 0.13172 0.0
C262 C 0.14359 0.5165 0.13536 0.0
C263 C 0.17983 0.55156 0.10981 0.0
C264 C 0.20885 0.57006 0.10418 0.0
C265 C 0.22679 0.56173 0.10039 0.0
C266 C 0.25417 0.57933 0.0952 0.0
C267 C 0.2638 0.60529 0.09355 0.0
C268 C 0.24605 0.6137 0.09701 0.0
C269 C 0.21866 0.59618 0.10222 0.0
H270 H 0.285 0.61888 0.08953 0.0
H271 H 0.01862 0.44727 0.13554 0.0
H272 H 0.5775 0.01624 0.58857 0.0
H273 H 0.60558 0.0372 0.62786 0.0
H274 H 0.65955 0.10277 0.57902 0.0
H275 H 0.63252 0.08172 0.53992 0.0
H276 H 0.68827 0.09646 0.61345 0.0
H277 H 0.60441 0.09605 0.61738 0.0
H278 H 0.55482 0.07591 0.62034 0.0
H279 H 0.55385 0.03833 0.69362 0.0
H280 H 0.60332 0.05779 0.6909 0.0
H281 H 0.70289 0.1912 0.7186 0.0
H282 H 0.67668 0.15862 0.68599 0.0
H283 H 0.72218 0.12343 0.70476 0.0
H284 H 0.74904 0.15649 0.73742 0.0
H285 H 0.64348 0.10899 0.6894 0.0
H286 H 0.72706 0.09683 0.64699 0.0
H287 H 0.77677 0.12111 0.64177 0.0
H288 H 0.77838 0.19112 0.64128 0.0
H289 H 0.72869 0.16725 0.64615 0.0
C290 C 0.59564 0.03493 0.58619 0.0
C291 C 0.60263 0.04734 0.56111 0.0
C292 C 0.61158 0.04698 0.60869 0.0
C293 C 0.63449 0.07182 0.60657 0.0
C294 C 0.64204 0.08365 0.58131 0.0
C295 C 0.62642 0.07155 0.55888 0.0
C296 C 0.64997 0.08639 0.63045 0.0
C297 C 0.67839 0.09893 0.63019 0.0
C298 C 0.63727 0.08989 0.65232 0.0
C299 C 0.60751 0.07811 0.65376 0.0
C300 C 0.59359 0.08333 0.63401 0.0
C301 C 0.56553 0.07208 0.63565 0.0
C302 C 0.55123 0.05587 0.65711 0.0
C303 C 0.56495 0.05085 0.67698 0.0
C304 C 0.59298 0.06195 0.67539 0.0
C305 C 0.70742 0.17657 0.7159 0.0
C306 C 0.72822 0.17658 0.7306 0.0
C307 C 0.69225 0.15782 0.69729 0.0
C308 C 0.69744 0.13857 0.69281 0.0
C309 C 0.71795 0.13823 0.70768 0.0
C310 C 0.73327 0.15712 0.72636 0.0
C311 C 0.6817 0.1195 0.67198 0.0
C312 C 0.65328 0.10606 0.67291 0.0
C313 C 0.69439 0.11571 0.65037 0.0
C314 C 0.72424 0.13026 0.64731 0.0
C315 C 0.73805 0.1174 0.64574 0.0
C316 C 0.7662 0.13109 0.64283 0.0
C317 C 0.78073 0.15764 0.64131 0.0
C318 C 0.76712 0.17056 0.64258 0.0
C319 C 0.73897 0.15697 0.64545 0.0
H320 H 0.80253 0.1682 0.63908 0.0
H321 H 0.52952 0.04724 0.65835 0.0
H322 H 0.57751 0.57253 0.12616 0.0
H323 H 0.56912 0.59922 0.15444 0.0
H324 H 0.48297 0.54659 0.14635 0.0
H325 H 0.49142 0.52033 0.11735 0.0
H326 H 0.49523 0.59269 0.13354 0.0
H327 H 0.51415 0.55565 0.20686 0.0
H328 H 0.53788 0.5404 0.23516 0.0
H329 H 0.6066 0.61664 0.24082 0.0
H330 H 0.58352 0.63234 0.21214 0.0
H331 H 0.47881 0.67746 0.21899 0.0
H332 H 0.47507 0.63919 0.20099 0.0
H333 H 0.56167 0.68038 0.19054 0.0
H334 H 0.56561 0.71836 0.20802 0.0
H335 H 0.54106 0.63389 0.21792 0.0
H336 H 0.5209 0.66844 0.13909 0.0
H337 H 0.49455 0.6815 0.11181 0.0
H338 H 0.42414 0.60611 0.11884 0.0
H339 H 0.44995 0.59269 0.14654 0.0
C340 C 0.55683 0.56644 0.1309 0.0
C341 C 0.53511 0.54459 0.11934 0.0
C342 C 0.55201 0.58163 0.14713 0.0
C343 C 0.52536 0.57498 0.15247 0.0
C344 C 0.50368 0.55224 0.14232 0.0
C345 C 0.5085 0.53728 0.12576 0.0
C346 C 0.52029 0.59317 0.1659 0.0
C347 C 0.50474 0.60124 0.15233 0.0
C348 C 0.53283 0.60453 0.19032 0.0
C349 C 0.54717 0.59514 0.20706 0.0
C350 C 0.53446 0.56914 0.21383 0.0
C351 C 0.54779 0.56042 0.22999 0.0
C352 C 0.57379 0.57752 0.23965 0.0
C353 C 0.5865 0.6034 0.23323 0.0
C354 C 0.57329 0.61222 0.21703 0.0
C355 C 0.49698 0.67841 0.21253 0.0
C356 C 0.5225 0.70101 0.215 0.0
C357 C 0.49481 0.65653 0.20231 0.0
C358 C 0.51814 0.65693 0.1946 0.0
C359 C 0.54345 0.67959 0.19655 0.0
C360 C 0.5456 0.70137 0.20645 0.0
C361 C 0.51682 0.63385 0.18505 0.0
C362 C 0.53116 0.62489 0.19939 0.0
C363 C 0.50283 0.62141 0.16155 0.0
C364 C 0.48723 0.62971 0.14538 0.0
C365 C 0.49969 0.65475 0.13519 0.0
C366 C 0.48487 0.66219 0.11955 0.0
C367 C 0.45764 0.64469 0.11373 0.0
C368 C 0.44519 0.61969 0.12349 0.0
C369 C 0.4599 0.61217 0.13918 0.0
H370 H 0.44623 0.65047 0.10155 0.0
H371 H 0.58403 0.57073 0.25222 0.0
H372 H 0.9315 0.49362 0.57726 0.0
H373 H 0.90766 0.50457 0.60818 0.0
H374 H 0.90404 0.55385 0.54835 0.0
H375 H 0.92826 0.54309 0.51717 0.0
H376 H 0.92129 0.54886 0.62921 0.0
H377 H 0.84414 0.5523 0.55861 0.0
H378 H 0.82021 0.53384 0.51633 0.0
H379 H 0.82611 0.46843 0.53096 0.0
H380 H 0.84975 0.48636 0.57345 0.0
H381 H 0.84761 0.59053 0.70337 0.0
H382 H 0.87412 0.58778 0.6675 0.0
H383 H 0.81277 0.50852 0.65816 0.0
H384 H 0.7864 0.51104 0.69373 0.0
H385 H 0.82978 0.53308 0.61001 0.0
H386 H 0.86966 0.52202 0.69072 0.0
H387 H 0.89146 0.53346 0.73493 0.0
H388 H 0.95554 0.60495 0.70299 0.0
H389 H 0.93423 0.59365 0.65841 0.0
C390 C 0.92591 0.50698 0.57066 0.0
C391 C 0.93201 0.51761 0.54473 0.0
C392 C 0.9122 0.51319 0.5884 0.0
C393 C 0.90409 0.53006 0.58064 0.0
C394 C 0.90992 0.54062 0.55471 0.0
C395 C 0.92368 0.53438 0.53688 0.0
C396 C 0.88944 0.5363 0.59989 0.0
C397 C 0.90142 0.54569 0.62484 0.0
C398 C 0.86337 0.5319 0.59441 0.0
C399 C 0.84902 0.52085 0.56901 0.0
C400 C 0.84028 0.53397 0.5528 0.0
C401 C 0.82677 0.52359 0.52881 0.0
C402 C 0.82175 0.50003 0.52091 0.0
C403 C 0.83013 0.48674 0.53704 0.0
C404 C 0.84362 0.49701 0.56106 0.0
C405 C 0.83975 0.57258 0.69356 0.0
C406 C 0.81496 0.55099 0.7015 0.0
C407 C 0.85493 0.57102 0.67313 0.0
C408 C 0.84541 0.54792 0.66019 0.0
C409 C 0.82045 0.52655 0.66777 0.0
C410 C 0.80547 0.52802 0.68825 0.0
C411 C 0.86161 0.54548 0.63929 0.0
C412 C 0.84994 0.53684 0.61407 0.0
C413 C 0.88769 0.54999 0.64467 0.0
C414 C 0.90022 0.55715 0.67142 0.0
C415 C 0.88828 0.54026 0.69321 0.0
C416 C 0.9006 0.54668 0.7183 0.0
C417 C 0.92477 0.57003 0.72185 0.0
C418 C 0.93677 0.58692 0.70024 0.0
C419 C 0.92466 0.58047 0.67504 0.0
H420 H 0.93428 0.57498 0.7413 0.0
H421 H 0.81129 0.49204 0.50233 0.0
H422 H 0.4096 0.9087 0.04444 0.0
H423 H 0.38578 0.88347 0.08378 0.0
H424 H 0.43887 0.94655 0.1338 0.0
H425 H 0.46335 0.97213 0.09408 0.0
H426 H 0.43067 0.90116 0.15415 0.0
H427 H 0.37553 0.93244 0.12309 0.0
H428 H 0.34994 0.94175 0.09008 0.0
H429 H 0.29728 0.86203 0.07545 0.0
H430 H 0.3228 0.85225 0.10812 0.0
H431 H 0.30104 0.83266 0.24435 0.0
H432 H 0.33006 0.86404 0.21086 0.0
H433 H 0.36507 0.81963 0.19391 0.0
H434 H 0.33618 0.78807 0.22804 0.0
H435 H 0.3309 0.85977 0.1598 0.0
H436 H 0.4297 0.85918 0.17085 0.0
H437 H 0.45569 0.85262 0.20595 0.0
H438 H 0.42191 0.87663 0.26511 0.0
H439 H 0.39578 0.88338 0.23036 0.0
C440 C 0.41625 0.91739 0.06374 0.0
C441 C 0.43835 0.94256 0.06604 0.0
C442 C 0.40251 0.90288 0.08628 0.0
C443 C 0.41034 0.91312 0.11178 0.0
C444 C 0.43245 0.93824 0.1143 0.0
C445 C 0.44627 0.95291 0.0916 0.0
C446 C 0.39513 0.89734 0.13552 0.0
C447 C 0.40887 0.89219 0.15548 0.0
C448 C 0.36672 0.88586 0.13749 0.0
C449 C 0.35121 0.89163 0.11792 0.0
C450 C 0.35861 0.9169 0.1127 0.0
C451 C 0.3441 0.92226 0.09407 0.0
C452 C 0.32203 0.9025 0.08064 0.0
C453 C 0.31439 0.87732 0.08586 0.0
C454 C 0.32885 0.87186 0.10446 0.0
C455 C 0.31496 0.82949 0.23365 0.0
C456 C 0.31613 0.80769 0.23888 0.0
C457 C 0.33158 0.84754 0.21442 0.0
C458 C 0.34989 0.84436 0.19985 0.0
C459 C 0.35139 0.82274 0.20513 0.0
C460 C 0.33474 0.80462 0.22455 0.0
C461 C 0.3663 0.86315 0.17834 0.0
C462 C 0.35272 0.8688 0.15865 0.0
C463 C 0.39486 0.87542 0.17698 0.0
C464 C 0.41062 0.87157 0.19801 0.0
C465 C 0.42789 0.86313 0.19134 0.0
C466 C 0.44263 0.85936 0.21118 0.0
C467 C 0.44047 0.86422 0.23775 0.0
C468 C 0.42352 0.87282 0.24454 0.0
C469 C 0.40867 0.87653 0.22478 0.0
H470 H 0.45194 0.86133 0.25307 0.0
H471 H 0.31083 0.90668 0.06621 0.0
H472 H 0.49803 0.44169 0.56759 0.0
H473 H 0.48915 0.40995 0.60183 0.0
H474 H 0.50214 0.36653 0.54498 0.0
H475 H 0.5093 0.39744 0.50997 0.0
H476 H 0.46224 0.33515 0.57443 0.0
H477 H 0.55293 0.4051 0.59557 0.0
H478 H 0.59028 0.44782 0.60839 0.0
H479 H 0.54347 0.44674 0.67413 0.0
H480 H 0.50603 0.40384 0.66197 0.0
H481 H 0.52245 0.29981 0.69514 0.0
H482 H 0.5245 0.32802 0.65947 0.0
H483 H 0.4376 0.29195 0.66194 0.0
H484 H 0.43528 0.263 0.69753 0.0
H485 H 0.51201 0.36231 0.66025 0.0
H486 H 0.4159 0.29798 0.59841 0.0
H487 H 0.38588 0.25267 0.58759 0.0
H488 H 0.45157 0.24089 0.60067 0.0
H489 H 0.48204 0.28618 0.61122 0.0
C490 C 0.49858 0.42526 0.56203 0.0
C491 C 0.50437 0.42228 0.53572 0.0
C492 C 0.49389 0.40721 0.58191 0.0
C493 C 0.49542 0.38599 0.5762 0.0
C494 C 0.50089 0.38276 0.54996 0.0
C495 C 0.50525 0.40064 0.52995 0.0
C496 C 0.49139 0.3672 0.59755 0.0
C497 C 0.47313 0.34113 0.5932 0.0
C498 C 0.50551 0.37477 0.62211 0.0
C499 C 0.52666 0.40145 0.62772 0.0
C500 C 0.55047 0.41416 0.6125 0.0
C501 C 0.5717 0.43828 0.61977 0.0
C502 C 0.56917 0.4499 0.64205 0.0
C503 C 0.54534 0.43765 0.65691 0.0
C504 C 0.52417 0.41342 0.6499 0.0
C505 C 0.5037 0.29777 0.68815 0.0
C506 C 0.47869 0.27921 0.69929 0.0
C507 C 0.50492 0.31395 0.66771 0.0
C508 C 0.48122 0.31208 0.65794 0.0
C509 C 0.45613 0.29353 0.66892 0.0
C510 C 0.45485 0.27711 0.68935 0.0
C511 C 0.48334 0.33036 0.63697 0.0
C512 C 0.50098 0.35634 0.64153 0.0
C513 C 0.46919 0.3226 0.61245 0.0
C514 C 0.45113 0.29539 0.60591 0.0
C515 C 0.42394 0.28572 0.59891 0.0
C516 C 0.40685 0.26005 0.59283 0.0
C517 C 0.41678 0.24389 0.59354 0.0
C518 C 0.44386 0.2534 0.60024 0.0
C519 C 0.46104 0.27906 0.60631 0.0
H520 H 0.40352 0.22402 0.58884 0.0
H521 H 0.58576 0.46822 0.64804 0.0
H522 H 0.57751 0.98603 0.4023 0.0
H523 H 0.56782 0.95056 0.37434 0.0
H524 H 0.49498 0.90108 0.41895 0.0
H525 H 0.50422 0.93655 0.44678 0.0
H526 H 0.52403 0.87919 0.41245 0.0
H527 H 0.48951 0.91804 0.35676 0.0
H528 H 0.48802 0.95212 0.33208 0.0
H529 H 0.55595 0.96688 0.28495 0.0
H530 H 0.55802 0.93302 0.30955 0.0
H531 H 0.48825 0.78029 0.31721 0.0
H532 H 0.48547 0.81144 0.34399 0.0
H533 H 0.56386 0.87068 0.31519 0.0
H534 H 0.56696 0.83985 0.28879 0.0
H535 H 0.52421 0.8841 0.31366 0.0
H536 H 0.55979 0.84645 0.37475 0.0
H537 H 0.55806 0.81059 0.3991 0.0
H538 H 0.48335 0.79169 0.43577 0.0
H539 H 0.48446 0.82727 0.41133 0.0
C540 C 0.55922 0.96775 0.40601 0.0
C541 C 0.54177 0.96429 0.42698 0.0
C542 C 0.5537 0.94742 0.38997 0.0
C543 C 0.53058 0.92315 0.39443 0.0
C544 C 0.513 0.9196 0.4152 0.0
C545 C 0.51844 0.93995 0.43121 0.0
C546 C 0.52553 0.90139 0.37803 0.0
C547 C 0.52354 0.88007 0.39085 0.0
C548 C 0.52493 0.90247 0.34984 0.0
C549 C 0.52406 0.92311 0.33518 0.0
C550 C 0.50428 0.92869 0.3413 0.0
C551 C 0.50329 0.94793 0.32727 0.0
C552 C 0.52193 0.96171 0.30701 0.0
C553 C 0.54155 0.95622 0.30068 0.0
C554 C 0.54261 0.93696 0.31463 0.0
C555 C 0.50487 0.79996 0.31661 0.0
C556 C 0.52789 0.80755 0.301 0.0
C557 C 0.50326 0.8177 0.33192 0.0
C558 C 0.5245 0.84336 0.3316 0.0
C559 C 0.54724 0.851 0.3157 0.0
C560 C 0.54903 0.83329 0.30074 0.0
C561 C 0.52354 0.8624 0.3481 0.0
C562 C 0.52435 0.88315 0.33526 0.0
C563 C 0.52264 0.86061 0.37625 0.0
C564 C 0.52203 0.8393 0.39097 0.0
C565 C 0.54287 0.8345 0.38782 0.0
C566 C 0.54203 0.81426 0.40168 0.0
C567 C 0.52056 0.79882 0.41891 0.0
C568 C 0.49993 0.80364 0.42238 0.0
C569 C 0.50066 0.82384 0.40854 0.0
H570 H 0.51995 0.78316 0.42962 0.0
H571 H 0.52113 0.97661 0.29617 0.0
H572 H 0.62377 0.54648 0.99774 0.0
H573 H 0.65269 0.56056 0.95857 0.0
H574 H 0.58396 0.54201 0.90841 0.0
H575 H 0.55464 0.52769 0.94786 0.0
H576 H 0.61171 0.52074 0.89147 0.0
H577 H 0.63444 0.60364 0.9154 0.0
H578 H 0.64814 0.63933 0.94547 0.0
H579 H 0.72362 0.64453 0.96128 0.0
H580 H 0.71022 0.60863 0.9316 0.0
H581 H 0.69794 0.55554 0.78073 0.0
H582 H 0.66669 0.55656 0.81201 0.0
H583 H 0.72698 0.58004 0.87427 0.0
H584 H 0.75862 0.58011 0.84249 0.0
H585 H 0.69991 0.60214 0.88085 0.0
H586 H 0.67511 0.51622 0.8635 0.0
H587 H 0.66122 0.47855 0.83646 0.0
H588 H 0.58982 0.4774 0.81092 0.0
H589 H 0.60344 0.51524 0.83759 0.0
C590 C 0.61484 0.54582 0.97845 0.0
C591 C 0.5869 0.53594 0.9759 0.0
C592 C 0.63146 0.55402 0.95605 0.0
C593 C 0.62057 0.55254 0.93054 0.0
C594 C 0.59281 0.54344 0.92793 0.0
C595 C 0.57612 0.5354 0.95047 0.0
C596 C 0.6379 0.55832 0.90672 0.0
C597 C 0.63068 0.53877 0.88872 0.0
C598 C 0.66301 0.5816 0.9036 0.0
C599 C 0.67124 0.60333 0.92136 0.0
C600 C 0.65388 0.61228 0.92542 0.0
C601 C 0.66161 0.63257 0.94238 0.0
C602 C 0.68672 0.64417 0.9553 0.0
C603 C 0.70418 0.63553 0.95125 0.0
C604 C 0.69654 0.61524 0.93432 0.0
C605 C 0.70468 0.56163 0.80093 0.0
C606 C 0.73063 0.56801 0.80931 0.0
C607 C 0.68676 0.56195 0.81886 0.0
C608 C 0.6942 0.56781 0.84571 0.0
C609 C 0.72072 0.57542 0.8537 0.0
C610 C 0.73882 0.57554 0.8356 0.0
C611 C 0.67396 0.56437 0.86587 0.0
C612 C 0.68068 0.5843 0.88323 0.0
C613 C 0.64848 0.5413 0.86862 0.0
C614 C 0.64051 0.5188 0.85222 0.0
C615 C 0.65661 0.50811 0.85187 0.0
C616 C 0.64874 0.48668 0.83668 0.0
C617 C 0.6247 0.47565 0.82191 0.0
C618 C 0.60845 0.48598 0.82235 0.0
C619 C 0.61624 0.50742 0.8375 0.0
H620 H 0.61863 0.45904 0.81018 0.0
H621 H 0.69266 0.65987 0.96843 0.0
H622 H 0.08119 0.53203 0.48871 0.0
H623 H 0.11808 0.55845 0.45742 0.0
H624 H 0.09949 0.61699 0.4608 0.0
H625 H 0.06257 0.59073 0.49164 0.0
H626 H 0.10082 0.60356 0.40978 0.0
H627 H 0.15677 0.62417 0.4898 0.0
H628 H 0.17497 0.61337 0.52912 0.0
H629 H 0.20573 0.57948 0.47877 0.0
H630 H 0.1874 0.58982 0.43916 0.0
H631 H 0.20296 0.71804 0.35946 0.0
H632 H 0.17268 0.6827 0.38855 0.0
H633 H 0.20937 0.64144 0.36475 0.0
H634 H 0.24038 0.67734 0.33513 0.0
H635 H 0.19913 0.63786 0.42049 0.0
H636 H 0.14752 0.61984 0.34051 0.0
H637 H 0.12845 0.62867 0.30046 0.0
H638 H 0.0893 0.65551 0.34932 0.0
H639 H 0.10783 0.64655 0.38971 0.0
C640 C 0.08536 0.55077 0.48327 0.0
C641 C 0.06877 0.55919 0.4926 0.0
C642 C 0.10645 0.56584 0.46532 0.0
C643 C 0.11146 0.58966 0.45661 0.0
C644 C 0.09586 0.59859 0.46705 0.0
C645 C 0.07482 0.58359 0.48484 0.0
C646 C 0.13156 0.60482 0.43535 0.0
C647 C 0.12233 0.61114 0.41224 0.0
C648 C 0.15946 0.61366 0.4378 0.0
C649 C 0.17048 0.60751 0.46158 0.0
C650 C 0.16722 0.61423 0.48715 0.0
C651 C 0.1776 0.60823 0.50948 0.0
C652 C 0.19143 0.59568 0.50646 0.0
C653 C 0.19498 0.58916 0.48109 0.0
C654 C 0.18462 0.5951 0.45869 0.0
C655 C 0.20483 0.70157 0.36029 0.0
C656 C 0.22408 0.70054 0.34471 0.0
C657 C 0.18733 0.68126 0.37696 0.0
C658 C 0.18838 0.65921 0.37851 0.0
C659 C 0.2081 0.65824 0.36372 0.0
C660 C 0.22579 0.67875 0.34683 0.0
C661 C 0.16843 0.63754 0.39565 0.0
C662 C 0.17758 0.62987 0.41785 0.0
C663 C 0.1403 0.62711 0.39229 0.0
C664 C 0.12921 0.63269 0.3681 0.0
C665 C 0.13499 0.62779 0.34269 0.0
C666 C 0.12425 0.63277 0.31994 0.0
C667 C 0.10789 0.64285 0.32231 0.0
C668 C 0.10202 0.64775 0.34749 0.0
C669 C 0.11251 0.64259 0.37033 0.0
H670 H 0.09967 0.64676 0.30465 0.0
H671 H 0.19945 0.59106 0.52377 0.0
H672 H 0.45369 0.04269 0.96405 0.0
H673 H 0.4495 0.07269 0.93557 0.0
H674 H 0.43532 0.02597 0.86762 0.0
H675 H 0.44095 0.9964 0.8958 0.0
H676 H 0.47265 0.07372 0.85681 0.0
H677 H 0.38427 0.03149 0.89453 0.0
H678 H 0.35024 0.01364 0.93034 0.0
H679 H 0.38477 0.08788 0.96316 0.0
H680 H 0.41928 0.10615 0.92776 0.0
H681 H 0.4331 0.14721 0.77433 0.0
H682 H 0.42662 0.11085 0.80157 0.0
H683 H 0.47321 0.1615 0.86508 0.0
H684 H 0.48096 0.19798 0.8374 0.0
H685 H 0.41605 0.1094 0.87571 0.0
H686 H 0.50652 0.15076 0.83955 0.0
H687 H 0.54168 0.1678 0.80495 0.0
H688 H 0.50498 0.09368 0.77134 0.0
H689 H 0.46848 0.07658 0.80456 0.0
C690 C 0.44974 0.0387 0.94307 0.0
C691 C 0.44802 0.01717 0.93226 0.0
C692 C 0.44693 0.05576 0.92684 0.0
C693 C 0.44182 0.05148 0.89949 0.0
C694 C 0.43914 0.02959 0.88872 0.0
C695 C 0.4422 0.01259 0.90493 0.0
C696 C 0.44155 0.07095 0.88191 0.0
C697 C 0.45988 0.08116 0.86065 0.0
C698 C 0.4253 0.08105 0.8873 0.0
C699 C 0.4045 0.07016 0.90857 0.0
C700 C 0.38474 0.04399 0.90949 0.0
C701 C 0.36534 0.0338 0.9297 0.0
C702 C 0.36537 0.0496 0.94904 0.0
C703 C 0.38478 0.07565 0.94817 0.0
C704 C 0.40424 0.08594 0.92801 0.0
C705 C 0.4416 0.15045 0.79425 0.0
C706 C 0.45744 0.17524 0.80393 0.0
C707 C 0.43804 0.12978 0.80966 0.0
C708 C 0.44964 0.13364 0.83516 0.0
C709 C 0.46423 0.15825 0.84538 0.0
C710 C 0.4686 0.17898 0.82964 0.0
C711 C 0.4473 0.11214 0.85092 0.0
C712 C 0.42852 0.10165 0.87177 0.0
C713 C 0.46321 0.10179 0.84523 0.0
C714 C 0.48419 0.11255 0.8241 0.0
C715 C 0.5053 0.13828 0.82419 0.0
C716 C 0.52556 0.14795 0.80483 0.0
C717 C 0.52533 0.13193 0.78564 0.0
C718 C 0.50486 0.10621 0.78583 0.0
C719 C 0.48425 0.09656 0.8048 0.0
H720 H 0.54116 0.13938 0.7708 0.0
H721 H 0.35033 0.04167 0.96468 0.0
H722 H 0.44993 0.4885 0.44517 0.0
H723 H 0.42047 0.49064 0.41132 0.0
H724 H 0.4435 0.56506 0.43789 0.0
H725 H 0.47297 0.56303 0.4719 0.0
H726 H 0.39003 0.5372 0.42761 0.0
H727 H 0.47049 0.55981 0.38001 0.0
H728 H 0.50791 0.55614 0.36345 0.0
H729 H 0.45075 0.48451 0.32864 0.0
H730 H 0.41292 0.48776 0.34483 0.0
H731 H 0.33768 0.56596 0.30948 0.0
H732 H 0.36888 0.56795 0.34437 0.0
H733 H 0.34471 0.49073 0.3285 0.0
H734 H 0.31348 0.48849 0.29404 0.0
H735 H 0.40077 0.52325 0.33297 0.0
H736 H 0.3202 0.50212 0.38129 0.0
H737 H 0.28405 0.50865 0.39558 0.0
H738 H 0.34355 0.58059 0.42846 0.0
H739 H 0.38011 0.57464 0.414 0.0
C740 C 0.44853 0.50523 0.44407 0.0
C741 C 0.46391 0.5256 0.46135 0.0
C742 C 0.43183 0.50653 0.42449 0.0
C743 C 0.43004 0.52821 0.42167 0.0
C744 C 0.44459 0.54818 0.43951 0.0
C745 C 0.46143 0.54696 0.45902 0.0
C746 C 0.41308 0.53 0.40008 0.0
C747 C 0.39268 0.53453 0.40688 0.0
C748 C 0.41623 0.52631 0.37296 0.0
C749 C 0.43887 0.52389 0.3639 0.0
C750 C 0.46589 0.54314 0.36907 0.0
C751 C 0.48717 0.54117 0.3597 0.0
C752 C 0.48172 0.52004 0.3452 0.0
C753 C 0.45495 0.50084 0.33994 0.0
C754 C 0.43357 0.50276 0.34913 0.0
C755 C 0.33908 0.54945 0.31339 0.0
C756 C 0.32298 0.52705 0.29897 0.0
C757 C 0.35685 0.55057 0.3334 0.0
C758 C 0.35907 0.52943 0.33918 0.0
C759 C 0.34339 0.50728 0.32445 0.0
C760 C 0.32543 0.50603 0.30478 0.0
C761 C 0.37756 0.5301 0.36057 0.0
C762 C 0.39824 0.52605 0.3537 0.0
C763 C 0.37485 0.5345 0.38754 0.0
C764 C 0.3529 0.53808 0.39628 0.0
C765 C 0.32559 0.51944 0.39134 0.0
C766 C 0.30502 0.52301 0.39952 0.0
C767 C 0.3115 0.54505 0.41284 0.0
C768 C 0.33857 0.56354 0.41808 0.0
C769 C 0.35922 0.56008 0.40992 0.0
H770 H 0.29555 0.54778 0.41917 0.0
H771 H 0.49825 0.5186 0.33794 0.0
H772 H 0.92072 0.4436 0.97319 0.0
H773 H 0.89624 0.40913 0.94201 0.0
H774 H 0.91247 0.36084 0.99157 0.0
H775 H 0.93794 0.39577 0.02266 0.0
H776 H 0.92152 0.35799 0.93855 0.0
H777 H 0.8495 0.35119 0.99055 0.0
H778 H 0.82347 0.36682 0.01219 0.0
H779 H 0.80928 0.39104 0.93615 0.0
H780 H 0.83546 0.37581 0.91408 0.0
H781 H 0.82851 0.25115 0.85725 0.0
H782 H 0.85373 0.27942 0.89433 0.0
H783 H 0.83967 0.33611 0.86046 0.0
H784 H 0.81408 0.30792 0.82415 0.0
H785 H 0.8277 0.32986 0.9107 0.0
H786 H 0.90271 0.3415 0.85895 0.0
H787 H 0.92976 0.3277 0.83601 0.0
H788 H 0.93958 0.2966 0.90961 0.0
H789 H 0.91229 0.30995 0.93294 0.0
C790 C 0.91925 0.42573 0.97749 0.0
C791 C 0.9314 0.42252 1.00044 0.0
C792 C 0.90499 0.40592 0.95972 0.0
C793 C 0.90226 0.3823 0.96459 0.0
C794 C 0.91425 0.37889 0.98749 0.0
C795 C 0.92858 0.39879 1.00536 0.0
C796 C 0.8872 0.36148 0.94533 0.0
C797 C 0.90081 0.35144 0.93279 0.0
C798 C 0.86038 0.35331 0.93747 0.0
C799 C 0.84452 0.36241 0.95068 0.0
C800 C 0.84094 0.35996 0.97846 0.0
C801 C 0.82612 0.36871 0.99079 0.0
C802 C 0.81466 0.37983 0.97554 0.0
C803 C 0.81805 0.3823 0.94792 0.0
C804 C 0.83285 0.37358 0.93549 0.0
C805 C 0.83115 0.26978 0.85763 0.0
C806 C 0.81917 0.27725 0.83791 0.0
C807 C 0.84556 0.28593 0.87879 0.0
C808 C 0.84857 0.30993 0.88026 0.0
C809 C 0.83741 0.31763 0.85999 0.0
C810 C 0.82282 0.30148 0.83916 0.0
C811 C 0.86225 0.32687 0.90324 0.0
C812 C 0.8483 0.33613 0.91661 0.0
C813 C 0.88882 0.33449 0.9116 0.0
C814 C 0.90518 0.32643 0.89761 0.0
C815 C 0.91044 0.33152 0.87019 0.0
C816 C 0.92585 0.32382 0.85713 0.0
C817 C 0.9363 0.3112 0.87132 0.0
C818 C 0.93143 0.30632 0.89863 0.0
C819 C 0.916 0.31396 0.91178 0.0
H820 H 0.94824 0.30526 0.86118 0.0
H821 H 0.80319 0.38659 0.98512 0.0
H822 H 0.94269 0.53411 0.98639 0.0
H823 H 0.90817 0.53131 0.95577 0.0
H824 H 0.94633 0.51818 0.89068 0.0
H825 H 0.98102 0.52091 0.92124 0.0
H826 H 0.93069 0.55147 0.8764 0.0
H827 H 0.88984 0.46845 0.91651 0.0
H828 H 0.87608 0.43756 0.95395 0.0
H829 H 0.82672 0.46332 0.98518 0.0
H830 H 0.84022 0.49442 0.94794 0.0
H831 H 0.78486 0.47933 0.81425 0.0
H832 H 0.8186 0.47881 0.84389 0.0
H833 H 0.85475 0.55879 0.85784 0.0
H834 H 0.82185 0.55959 0.82785 0.0
H835 H 0.8336 0.48847 0.89473 0.0
H836 H 0.92395 0.58844 0.86295 0.0
H837 H 0.93776 0.61788 0.8242 0.0
H838 H 0.88851 0.55524 0.77292 0.0
H839 H 0.87544 0.52528 0.81103 0.0
C840 C 0.94399 0.53089 0.96552 0.0
C841 C 0.96472 0.52773 0.95634 0.0
C842 C 0.92405 0.5291 0.94805 0.0
C843 C 0.92437 0.52417 0.92095 0.0
C844 C 0.94556 0.52189 0.91151 0.0
C845 C 0.96542 0.52349 0.92903 0.0
C846 C 0.90248 0.52125 0.90261 0.0
C847 C 0.90947 0.53771 0.88039 0.0
C848 C 0.87478 0.5029 0.90743 0.0
C849 C 0.86624 0.48392 0.92958 0.0
C850 C 0.87616 0.46762 0.93144 0.0
C851 C 0.86841 0.45007 0.95261 0.0
C852 C 0.85071 0.44862 0.97203 0.0
C853 C 0.84049 0.46453 0.97016 0.0
C854 C 0.84812 0.48207 0.94899 0.0
C855 C 0.79988 0.49674 0.82382 0.0
C856 C 0.80083 0.51956 0.81838 0.0
C857 C 0.81916 0.49643 0.84079 0.0
C858 C 0.83968 0.51889 0.85273 0.0
C859 C 0.83964 0.54133 0.84841 0.0
C860 C 0.82069 0.54173 0.83127 0.0
C861 C 0.86172 0.51927 0.86889 0.0
C862 C 0.85479 0.50226 0.89066 0.0
C863 C 0.88956 0.5369 0.86339 0.0
C864 C 0.89847 0.55461 0.83998 0.0
C865 C 0.91635 0.58089 0.84334 0.0
C866 C 0.92412 0.59767 0.82145 0.0
C867 C 0.91408 0.58842 0.79608 0.0
C868 C 0.89645 0.56235 0.79252 0.0
C869 C 0.88891 0.54545 0.81425 0.0
H870 H 0.91994 0.60145 0.77918 0.0
H871 H 0.84489 0.43516 0.98851 0.0
H872 H 0.42898 0.97465 0.49782 0.0
H873 H 0.3929 0.93981 0.47238 0.0
H874 H 0.43624 0.90098 0.47587 0.0
H875 H 0.4726 0.93589 0.50109 0.0
H876 H 0.424 0.90675 0.42571 0.0
H877 H 0.37561 0.87657 0.50781 0.0
H878 H 0.35601 0.87946 0.54971 0.0
H879 H 0.30572 0.89933 0.50573 0.0
H880 H 0.32529 0.89691 0.46356 0.0
H881 H 0.32441 0.79815 0.35684 0.0
H882 H 0.35573 0.82681 0.39039 0.0
H883 H 0.31284 0.86604 0.39121 0.0
H884 H 0.28093 0.83698 0.35788 0.0
H885 H 0.32475 0.85883 0.44041 0.0
H886 H 0.37391 0.89001 0.35839 0.0
H887 H 0.39521 0.88943 0.3166 0.0
H888 H 0.44557 0.86951 0.36036 0.0
H889 H 0.42422 0.86948 0.40237 0.0
C890 C 0.43055 0.95841 0.49379 0.0
C891 C 0.4538 0.95819 0.50133 0.0
C892 C 0.40983 0.93844 0.47927 0.0
C893 C 0.41188 0.91779 0.47215 0.0
C894 C 0.43427 0.91677 0.48108 0.0
C895 C 0.45498 0.9367 0.49566 0.0
C896 C 0.39225 0.89879 0.45308 0.0
C897 C 0.40231 0.89584 0.42915 0.0
C898 C 0.36393 0.8853 0.45719 0.0
C899 C 0.3521 0.88677 0.48252 0.0
C900 C 0.36054 0.88177 0.50708 0.0
C901 C 0.3494 0.88328 0.53088 0.0
C902 C 0.32968 0.88963 0.53039 0.0
C903 C 0.32102 0.89443 0.50608 0.0
C904 C 0.3321 0.89296 0.48222 0.0
C905 C 0.32156 0.81285 0.36413 0.0
C906 C 0.30018 0.81532 0.35456 0.0
C907 C 0.33962 0.82933 0.38325 0.0
C908 C 0.33695 0.84887 0.39303 0.0
C909 C 0.31537 0.85115 0.38388 0.0
C910 C 0.29716 0.83455 0.36481 0.0
C911 C 0.35651 0.86672 0.41301 0.0
C912 C 0.34645 0.86954 0.43705 0.0
C913 C 0.38491 0.88019 0.40896 0.0
C914 C 0.39715 0.87939 0.38354 0.0
C915 C 0.38924 0.88515 0.35909 0.0
C916 C 0.40139 0.885 0.33536 0.0
C917 C 0.42166 0.87936 0.33582 0.0
C918 C 0.42979 0.87379 0.36001 0.0
C919 C 0.41766 0.87384 0.38379 0.0
H920 H 0.43114 0.87938 0.31745 0.0
H921 H 0.32108 0.89078 0.54884 0.0
H922 H 0.55566 0.41912 0.99548 0.0
H923 H 0.55441 0.39307 0.95883 0.0
H924 H 0.48221 0.388 0.92787 0.0
H925 H 0.48374 0.41453 0.96422 0.0
H926 H 0.4812 0.33966 0.93418 0.0
H927 H 0.5334 0.42411 0.89577 0.0
H928 H 0.57073 0.46911 0.89507 0.0
H929 H 0.62887 0.44657 0.89748 0.0
H930 H 0.59188 0.40139 0.89868 0.0
H931 H 0.47001 0.28262 0.81109 0.0
H932 H 0.47277 0.3108 0.84568 0.0
H933 H 0.5552 0.33273 0.86273 0.0
H934 H 0.55284 0.30506 0.82748 0.0
H935 H 0.5515 0.37313 0.86386 0.0
H936 H 0.50129 0.28969 0.90315 0.0
H937 H 0.46516 0.24434 0.90637 0.0
H938 H 0.40486 0.26424 0.90468 0.0
H939 H 0.44064 0.30973 0.90107 0.0
C940 C 0.53948 0.41235 0.9809 0.0
C941 C 0.51974 0.41875 0.98268 0.0
C942 C 0.53888 0.39763 0.95993 0.0
C943 C 0.51827 0.38871 0.94063 0.0
C944 C 0.49831 0.39477 0.94255 0.0
C945 C 0.49924 0.40994 0.96321 0.0
C946 C 0.5173 0.37267 0.9187 0.0
C947 C 0.49632 0.34701 0.91856 0.0
C948 C 0.53754 0.38218 0.89886 0.0
C949 C 0.55984 0.40934 0.89773 0.0
C950 C 0.55414 0.42873 0.89643 0.0
C951 C 0.57523 0.45427 0.89589 0.0
C952 C 0.60213 0.46067 0.89646 0.0
C953 C 0.608 0.44156 0.89721 0.0
C954 C 0.58698 0.41598 0.8978 0.0
C955 C 0.48875 0.2934 0.82219 0.0
C956 C 0.51115 0.29141 0.8166 0.0
C957 C 0.49027 0.30948 0.84207 0.0
C958 C 0.51405 0.32363 0.85721 0.0
C959 C 0.5366 0.322 0.8514 0.0
C960 C 0.53519 0.30608 0.83129 0.0
C961 C 0.51524 0.33994 0.87916 0.0
C962 C 0.5363 0.36568 0.8794 0.0
C963 C 0.49522 0.33044 0.89933 0.0
C964 C 0.47365 0.3031 0.90158 0.0
C965 C 0.48032 0.28439 0.90326 0.0
C966 C 0.4599 0.25866 0.90519 0.0
C967 C 0.43273 0.25141 0.90566 0.0
C968 C 0.42592 0.26989 0.90428 0.0
C969 C 0.44626 0.29564 0.90231 0.0
H970 H 0.41695 0.23148 0.90716 0.0
H971 H 0.61841 0.48043 0.89634 0.0
H972 H 0.06956 0.49944 0.44928 0.0
H973 H 0.10335 0.50156 0.41981 0.0
H974 H 0.04172 0.43339 0.38128 0.0
H975 H 0.00764 0.43045 0.41175 0.0
H976 H 0.08723 0.43248 0.39132 0.0
H977 H 0.06768 0.49316 0.35158 0.0
H978 H 0.0625 0.5301 0.35275 0.0
H979 H 0.14538 0.57763 0.3776 0.0
H980 H 0.15101 0.5409 0.37675 0.0
H981 H 0.16941 0.44381 0.28193 0.0
H982 H 0.13378 0.43901 0.31128 0.0
H983 H 0.1899 0.51231 0.34479 0.0
H984 H 0.22507 0.51764 0.31464 0.0
H985 H 0.14582 0.51007 0.33653 0.0
H986 H 0.16724 0.45304 0.37872 0.0
H987 H 0.1748 0.41755 0.38233 0.0
H988 H 0.09241 0.36524 0.35879 0.0
H989 H 0.08445 0.40049 0.3547 0.0
C990 C 0.06306 0.48462 0.43486 0.0
C991 C 0.03575 0.46461 0.4331 0.0
C992 C 0.08247 0.48609 0.41771 0.0
C993 C 0.07505 0.46785 0.39805 0.0
C994 C 0.04788 0.44776 0.39623 0.0
C995 C 0.02839 0.4462 0.41353 0.0
C996 C 0.09582 0.46968 0.37971 0.0
C997 C 0.09975 0.44925 0.37896 0.0
C998 C 0.11287 0.49198 0.36439 0.0
C999 C 0.10971 0.51423 0.36422 0.0
C1000 C 0.08478 0.51147 0.35735 0.0
C1001 C 0.08177 0.53237 0.35795 0.0
C1002 C 0.10358 0.55618 0.36527 0.0
C1003 C 0.12851 0.55917 0.3719 0.0
C1004 C 0.13164 0.53833 0.3713 0.0
C1005 C 0.17418 0.45876 0.29576 0.0
C1006 C 0.20003 0.48109 0.29598 0.0
C1007 C 0.15381 0.45599 0.31262 0.0
C1008 C 0.1591 0.4752 0.33054 0.0
C1009 C 0.18516 0.49725 0.33111 0.0
C1010 C 0.20532 0.50024 0.31393 0.0
C1011 C 0.13741 0.47282 0.34808 0.0
C1012 C 0.13328 0.49318 0.34872 0.0
C1013 C 0.12062 0.4507 0.3638 0.0
C1014 C 0.12534 0.42946 0.36611 0.0
C1015 C 0.1508 0.434 0.37409 0.0
C1016 C 0.15514 0.41392 0.37627 0.0
C1017 C 0.13412 0.38917 0.37071 0.0
C1018 C 0.10869 0.38443 0.36303 0.0
C1019 C 0.10424 0.40445 0.3608 0.0
H1020 H 0.13752 0.37364 0.37242 0.0
H1021 H 0.10116 0.57229 0.36577 0.0
H1022 H 0.53471 0.07357 0.98962 0.0
H1023 H 0.56238 0.11105 0.96101 0.0
H1024 H 0.62731 0.09682 0.96473 0.0
H1025 H 0.60033 0.06011 0.99394 0.0
H1026 H 0.64793 0.1456 0.96474 0.0
H1027 H 0.57708 0.07555 0.9127 0.0
H1028 H 0.52947 0.04426 0.90106 0.0
H1029 H 0.51509 0.10467 0.88659 0.0
H1030 H 0.56251 0.13628 0.8985 0.0
H1031 H 0.71958 0.18371 0.8466 0.0
H1032 H 0.68837 0.1599 0.88264 0.0
H1033 H 0.64471 0.19711 0.86538 0.0
H1034 H 0.67621 0.22133 0.82865 0.0
H1035 H 0.61051 0.1446 0.87493 0.0
H1036 H 0.6838 0.21479 0.91886 0.0
H1037 H 0.73166 0.24594 0.92954 0.0
H1038 H 0.74159 0.18577 0.95898 0.0
H1039 H 0.6939 0.15419 0.94811 0.0
C1040 C 0.55512 0.07876 0.98482 0.0
C1041 C 0.56518 0.06364 0.99395 0.0
C1042 C 0.57084 0.1001 0.96824 0.0
C1043 C 0.59676 0.1065 0.96011 0.0
C1044 C 0.60737 0.0923 0.97053 0.0
C1045 C 0.59183 0.0712 0.98729 0.0
C1046 C 0.6125 0.12688 0.93966 0.0
C1047 C 0.63971 0.14532 0.94511 0.0
C1048 C 0.60162 0.12726 0.91425 0.0
C1049 C 0.57323 0.10824 0.90679 0.0
C1050 C 0.56371 0.08213 0.90718 0.0
C1051 C 0.53677 0.06435 0.90053 0.0
C1052 C 0.51926 0.07247 0.89315 0.0
C1053 C 0.52865 0.09839 0.89234 0.0
C1054 C 0.55555 0.11625 0.89905 0.0
C1055 C 0.7034 0.18698 0.8503 0.0
C1056 C 0.70055 0.20461 0.8347 0.0
C1057 C 0.68559 0.17335 0.87109 0.0
C1058 C 0.66444 0.17698 0.87704 0.0
C1059 C 0.66101 0.19413 0.86124 0.0
C1060 C 0.67904 0.20798 0.84031 0.0
C1061 C 0.64615 0.16247 0.89976 0.0
C1062 C 0.61853 0.14522 0.89475 0.0
C1063 C 0.65661 0.16314 0.92561 0.0
C1064 C 0.68526 0.18209 0.93255 0.0
C1065 C 0.69622 0.20817 0.92748 0.0
C1066 C 0.72332 0.22591 0.93358 0.0
C1067 C 0.73966 0.21784 0.94491 0.0
C1068 C 0.72891 0.192 0.95022 0.0
C1069 C 0.70182 0.17417 0.94413 0.0
H1070 H 0.76065 0.2316 0.94959 0.0
H1071 H 0.49847 0.05867 0.88795 0.0
H1072 H 0.53322 0.5645 0.40719 0.0
H1073 H 0.5431 0.60078 0.3793 0.0
H1074 H 0.62878 0.63284 0.39069 0.0
H1075 H 0.619 0.59712 0.42037 0.0
H1076 H 0.61805 0.66796 0.39715 0.0
H1077 H 0.59684 0.60892 0.32898 0.0
H1078 H 0.57163 0.56837 0.30531 0.0
H1079 H 0.50262 0.57591 0.29825 0.0
H1080 H 0.52719 0.61628 0.32231 0.0
H1081 H 0.62496 0.76096 0.2966 0.0
H1082 H 0.6325 0.72993 0.32006 0.0
H1083 H 0.5484 0.68619 0.34277 0.0
H1084 H 0.54075 0.71697 0.3201 0.0
H1085 H 0.56901 0.65977 0.3126 0.0
H1086 H 0.58943 0.71501 0.3886 0.0
H1087 H 0.61572 0.75591 0.41154 0.0
H1088 H 0.68863 0.75564 0.40114 0.0
H1089 H 0.66277 0.71487 0.37779 0.0
C1090 C 0.55421 0.57916 0.40394 0.0
C1091 C 0.57525 0.57785 0.41645 0.0
C1092 C 0.55986 0.59981 0.3875 0.0
C1093 C 0.58671 0.61939 0.38246 0.0
C1094 C 0.60789 0.61787 0.39417 0.0
C1095 C 0.60223 0.59728 0.411 0.0
C1096 C 0.59214 0.6422 0.36669 0.0
C1097 C 0.60788 0.66621 0.3783 0.0
C1098 C 0.57887 0.64003 0.34208 0.0
C1099 C 0.5639 0.61567 0.32756 0.0
C1100 C 0.57623 0.60188 0.32255 0.0
C1101 C 0.56205 0.57891 0.30904 0.0
C1102 C 0.53556 0.56959 0.30027 0.0
C1103 C 0.52318 0.58321 0.30498 0.0
C1104 C 0.53723 0.60614 0.31855 0.0
C1105 C 0.60827 0.74509 0.30719 0.0
C1106 C 0.58219 0.74131 0.30625 0.0
C1107 C 0.61259 0.72735 0.32043 0.0
C1108 C 0.59087 0.70568 0.33274 0.0
C1109 C 0.56531 0.7027 0.33312 0.0
C1110 C 0.56104 0.72041 0.32021 0.0
C1111 C 0.5938 0.68495 0.34374 0.0
C1112 C 0.5797 0.66143 0.33109 0.0
C1113 C 0.60878 0.68763 0.36714 0.0
C1114 C 0.62425 0.71211 0.38111 0.0
C1115 C 0.61111 0.72382 0.39093 0.0
C1116 C 0.62592 0.74693 0.40408 0.0
C1117 C 0.65385 0.75842 0.4077 0.0
C1118 C 0.66701 0.74676 0.39826 0.0
C1119 C 0.65229 0.72365 0.38508 0.0
H1120 H 0.66527 0.77631 0.41789 0.0
H1121 H 0.52462 0.55181 0.28982 0.0
H1122 H 0.51275 0.10371 0.52018 0.0
H1123 H 0.51383 0.13288 0.55285 0.0
H1124 H 0.56568 0.11955 0.60373 0.0
H1125 H 0.56483 0.09056 0.5711 0.0
H1126 H 0.52223 0.11364 0.63049 0.0
H1127 H 0.59072 0.17564 0.57137 0.0
H1128 H 0.60965 0.19694 0.52806 0.0
H1129 H 0.54841 0.21542 0.52033 0.0
H1130 H 0.52887 0.19391 0.56344 0.0
H1131 H 0.55438 0.21181 0.72373 0.0
H1132 H 0.56094 0.18884 0.68841 0.0
H1133 H 0.49879 0.18953 0.64117 0.0
H1134 H 0.4915 0.21161 0.67665 0.0
H1135 H 0.54933 0.20316 0.61276 0.0
H1136 H 0.47866 0.13954 0.66775 0.0
H1137 H 0.45584 0.11593 0.70896 0.0
H1138 H 0.51742 0.09858 0.72244 0.0
H1139 H 0.54098 0.12265 0.68158 0.0
C1140 C 0.52471 0.10729 0.53812 0.0
C1141 C 0.53845 0.09458 0.54317 0.0
C1142 C 0.5253 0.12395 0.5568 0.0
C1143 C 0.53982 0.12836 0.58076 0.0
C1144 C 0.55414 0.11624 0.58549 0.0
C1145 C 0.55354 0.09959 0.56688 0.0
C1146 C 0.53886 0.14445 0.60157 0.0
C1147 C 0.52868 0.13337 0.62674 0.0
C1148 C 0.54642 0.16994 0.59642 0.0
C1149 C 0.55819 0.18296 0.57053 0.0
C1150 C 0.58115 0.18407 0.56034 0.0
C1151 C 0.59202 0.19621 0.53584 0.0
C1152 C 0.5802 0.20748 0.52142 0.0
C1153 C 0.55753 0.20667 0.5315 0.0
C1154 C 0.54657 0.19452 0.55599 0.0
C1155 C 0.54231 0.20722 0.70571 0.0
C1156 C 0.52237 0.21336 0.70293 0.0
C1157 C 0.54603 0.1941 0.68562 0.0
C1158 C 0.53032 0.18754 0.66223 0.0
C1159 C 0.51113 0.1945 0.65904 0.0
C1160 C 0.50692 0.20698 0.67936 0.0
C1161 C 0.53296 0.17234 0.6416 0.0
C1162 C 0.54329 0.18354 0.61652 0.0
C1163 C 0.52524 0.14685 0.64667 0.0
C1164 C 0.51184 0.13328 0.67185 0.0
C1165 C 0.48763 0.13112 0.67977 0.0
C1166 C 0.47449 0.11757 0.70301 0.0
C1167 C 0.48519 0.10582 0.71835 0.0
C1168 C 0.50918 0.10776 0.71059 0.0
C1169 C 0.52247 0.12139 0.6874 0.0
H1170 H 0.47472 0.09504 0.73611 0.0
H1171 H 0.58865 0.21687 0.50246 0.0
H1172 H 0.44912 0.50289 0.02577 0.0
H1173 H 0.41223 0.50567 0.04498 0.0
H1174 H 0.39898 0.44844 0.10401 0.0
H1175 H 0.43458 0.44484 0.08451 0.0
H1176 H 0.3523 0.4411 0.08719 0.0
H1177 H 0.4421 0.51752 0.10744 0.0
H1178 H 0.48313 0.55813 0.09388 0.0
H1179 H 0.43443 0.58792 0.06881 0.0
H1180 H 0.39299 0.54704 0.08026 0.0
H1181 H 0.29332 0.45261 0.20195 0.0
H1182 H 0.32137 0.45045 0.16778 0.0
H1183 H 0.33146 0.51806 0.1294 0.0
H1184 H 0.30504 0.5212 0.16474 0.0
H1185 H 0.37583 0.5226 0.12713 0.0
H1186 H 0.28916 0.45399 0.10372 0.0
H1187 H 0.24414 0.41495 0.10954 0.0
H1188 H 0.28137 0.37338 0.13309 0.0
H1189 H 0.32663 0.41224 0.12777 0.0
C1190 C 0.43794 0.49057 0.04252 0.0
C1191 C 0.44498 0.47377 0.05371 0.0
C1192 C 0.417 0.49232 0.05361 0.0
C1193 C 0.40317 0.47766 0.07635 0.0
C1194 C 0.40938 0.46007 0.08659 0.0
C1195 C 0.42988 0.45807 0.07539 0.0
C1196 C 0.38294 0.48081 0.09064 0.0
C1197 C 0.35746 0.45893 0.09598 0.0
C1198 C 0.38902 0.50438 0.10093 0.0
C1199 C 0.41431 0.52895 0.09433 0.0
C1200 C 0.44005 0.53255 0.09868 0.0
C1201 C 0.4634 0.55563 0.09137 0.0
C1202 C 0.46138 0.57559 0.08074 0.0
C1203 C 0.43598 0.57243 0.07701 0.0
C1204 C 0.41254 0.54924 0.08366 0.0
C1205 C 0.30143 0.4669 0.18611 0.0
C1206 C 0.29699 0.48703 0.18595 0.0
C1207 C 0.3173 0.46557 0.16639 0.0
C1208 C 0.32821 0.48378 0.14546 0.0
C1209 C 0.32342 0.50375 0.1452 0.0
C1210 C 0.30823 0.5055 0.16538 0.0
C1211 C 0.34555 0.48261 0.12465 0.0
C1212 C 0.37039 0.50481 0.11806 0.0
C1213 C 0.3385 0.45959 0.1123 0.0
C1214 C 0.31131 0.4361 0.11551 0.0
C1215 C 0.28775 0.43656 0.1103 0.0
C1216 C 0.26219 0.41446 0.11349 0.0
C1217 C 0.2599 0.39171 0.12172 0.0
C1218 C 0.28318 0.39101 0.12673 0.0
C1219 C 0.3088 0.41307 0.12359 0.0
H1220 H 0.24008 0.37462 0.12418 0.0
H1221 H 0.47952 0.5935 0.07541 0.0
H1222 H 0.96463 0.3968 0.56191 0.0
H1223 H 0.93237 0.36919 0.59621 0.0
H1224 H 0.92426 0.43094 0.62091 0.0
H1225 H 0.95745 0.45894 0.58739 0.0
H1226 H 0.92143 0.4047 0.66284 0.0
H1227 H 0.87714 0.38269 0.57825 0.0
H1228 H 0.87053 0.37048 0.53109 0.0
H1229 H 0.86695 0.30132 0.55259 0.0
H1230 H 0.87392 0.31329 0.59986 0.0
H1231 H 0.79316 0.32017 0.72767 0.0
H1232 H 0.82661 0.351 0.69554 0.0
H1233 H 0.85236 0.29902 0.67969 0.0
H1234 H 0.8195 0.26846 0.71187 0.0
H1235 H 0.84433 0.32147 0.63319 0.0
H1236 H 0.8896 0.34579 0.71888 0.0
H1237 H 0.89421 0.35878 0.76564 0.0
H1238 H 0.89282 0.42486 0.74095 0.0
H1239 H 0.88779 0.41205 0.69404 0.0
C1240 C 0.95631 0.40461 0.57494 0.0
C1241 C 0.96354 0.43004 0.57182 0.0
C1242 C 0.93765 0.38874 0.59442 0.0
C1243 C 0.92517 0.39769 0.61075 0.0
C1244 C 0.93339 0.42345 0.60852 0.0
C1245 C 0.95245 0.43948 0.58934 0.0
C1246 C 0.90297 0.38 0.62939 0.0
C1247 C 0.90441 0.38668 0.65619 0.0
C1248 C 0.88064 0.35634 0.62096 0.0
C1249 C 0.8763 0.349 0.59257 0.0
C1250 C 0.87512 0.36495 0.5729 0.0
C1251 C 0.87129 0.35807 0.54615 0.0
C1252 C 0.86838 0.33517 0.53885 0.0
C1253 C 0.86924 0.31907 0.55828 0.0
C1254 C 0.8731 0.32588 0.58506 0.0
C1255 C 0.80582 0.31527 0.71718 0.0
C1256 C 0.80371 0.29189 0.72238 0.0
C1257 C 0.825 0.33293 0.69894 0.0
C1258 C 0.84209 0.32735 0.68534 0.0
C1259 C 0.83943 0.30374 0.68996 0.0
C1260 C 0.82065 0.28632 0.70843 0.0
C1261 C 0.86308 0.34608 0.66651 0.0
C1262 C 0.86133 0.33958 0.63969 0.0
C1263 C 0.8848 0.37002 0.67483 0.0
C1264 C 0.888 0.37781 0.70299 0.0
C1265 C 0.89003 0.36297 0.72344 0.0
C1266 C 0.89277 0.37032 0.74997 0.0
C1267 C 0.89372 0.39259 0.75627 0.0
C1268 C 0.89203 0.40759 0.73604 0.0
C1269 C 0.88924 0.4003 0.70949 0.0
H1270 H 0.89585 0.39825 0.77682 0.0
H1271 H 0.86542 0.32987 0.51813 0.0
H1272 H 0.57076 0.94678 0.01585 0.0
H1273 H 0.58227 0.92277 0.04715 0.0
H1274 H 0.5048 0.89141 0.08552 0.0
H1275 H 0.49361 0.9156 0.05475 0.0
H1276 H 0.54339 0.90893 0.12133 0.0
H1277 H 0.51991 0.85634 0.04381 0.0
H1278 H 0.5238 0.8476 0.99701 0.0
H1279 H 0.60696 0.87124 0.01018 0.0
H1280 H 0.60365 0.88043 0.05701 0.0
H1281 H 0.51967 0.80175 0.19408 0.0
H1282 H 0.51902 0.82923 0.15895 0.0
H1283 H 0.60389 0.86079 0.14418 0.0
H1284 H 0.60488 0.83331 0.17973 0.0
H1285 H 0.56983 0.84805 0.09686 0.0
H1286 H 0.59025 0.89506 0.17674 0.0
H1287 H 0.58465 0.90207 0.22366 0.0
H1288 H 0.50551 0.88804 0.20597 0.0
H1289 H 0.51028 0.88023 0.15905 0.0
C1290 C 0.55612 0.93444 0.03075 0.0
C1291 C 0.5314 0.93315 0.03306 0.0
C1292 C 0.56269 0.92078 0.04862 0.0
C1293 C 0.5444 0.90531 0.06873 0.0
C1294 C 0.51935 0.90341 0.07037 0.0
C1295 C 0.51296 0.91721 0.05279 0.0
C1296 C 0.55139 0.89175 0.0889 0.0
C1297 C 0.54897 0.89549 0.11593 0.0
C1298 C 0.55963 0.87488 0.08192 0.0
C1299 C 0.56163 0.86937 0.0538 0.0
C1300 C 0.53909 0.85988 0.03666 0.0
C1301 C 0.54117 0.8548 0.01015 0.0
C1302 C 0.56564 0.85894 1.0006 0.0
C1303 C 0.58804 0.8681 0.01758 0.0
C1304 C 0.58607 0.87323 0.04411 0.0
C1305 C 0.53822 0.81438 0.18331 0.0
C1306 C 0.56238 0.81542 0.18979 0.0
C1307 C 0.5378 0.83012 0.16328 0.0
C1308 C 0.56145 0.84715 0.1492 0.0
C1309 C 0.58546 0.84776 0.15493 0.0
C1310 C 0.58599 0.83213 0.17525 0.0
C1311 C 0.56083 0.86464 0.12905 0.0
C1312 C 0.56457 0.86175 0.10216 0.0
C1313 C 0.55358 0.88218 0.13611 0.0
C1314 C 0.55056 0.88683 0.16437 0.0
C1315 C 0.57151 0.89317 0.18289 0.0
C1316 C 0.56848 0.8973 0.20949 0.0
C1317 C 0.54468 0.89538 0.21781 0.0
C1318 C 0.52387 0.88938 0.19951 0.0
C1319 C 0.52673 0.88511 0.1729 0.0
H1320 H 0.54239 0.89863 0.2384 0.0
H1321 H 0.56721 0.85499 0.98007 0.0
H1322 H 0.57838 0.55304 0.55578 0.0
H1323 H 0.60954 0.55342 0.58921 0.0
H1324 H 0.54268 0.48957 0.63024 0.0
H1325 H 0.51121 0.48925 0.597 0.0
H1326 H 0.58274 0.52281 0.66556 0.0
H1327 H 0.57468 0.47904 0.58683 0.0
H1328 H 0.57409 0.47253 0.53865 0.0
H1329 H 0.65821 0.5316 0.53361 0.0
H1330 H 0.65921 0.5388 0.58182 0.0
H1331 H 0.66427 0.48067 0.72875 0.0
H1332 H 0.62939 0.47987 0.69964 0.0
H1333 H 0.69088 0.54791 0.65895 0.0
H1334 H 0.72556 0.549 0.68796 0.0
H1335 H 0.65153 0.51008 0.62435 0.0
H1336 H 0.65644 0.55415 0.70489 0.0
H1337 H 0.65527 0.55689 0.75373 0.0
H1338 H 0.57412 0.49161 0.75534 0.0
H1339 H 0.57498 0.48825 0.7065 0.0
C1340 C 0.57016 0.53951 0.5723 0.0
C1341 C 0.54229 0.52099 0.57355 0.0
C1342 C 0.58803 0.53971 0.59139 0.0
C1343 C 0.57851 0.52126 0.61198 0.0
C1344 C 0.55048 0.50401 0.61454 0.0
C1345 C 0.53251 0.50387 0.59548 0.0
C1346 C 0.59803 0.51825 0.62873 0.0
C1347 C 0.59761 0.51982 0.65656 0.0
C1348 C 0.61737 0.51414 0.61701 0.0
C1349 C 0.61698 0.50962 0.58801 0.0
C1350 C 0.59305 0.49077 0.57549 0.0
C1351 C 0.59263 0.48694 0.54814 0.0
C1352 C 0.61609 0.50168 0.53306 0.0
C1353 C 0.64004 0.52022 0.54533 0.0
C1354 C 0.64055 0.52417 0.57269 0.0
C1355 C 0.67035 0.4952 0.71333 0.0
C1356 C 0.69764 0.51495 0.71073 0.0
C1357 C 0.65042 0.49481 0.69682 0.0
C1358 C 0.65754 0.51398 0.67727 0.0
C1359 C 0.68491 0.53297 0.67389 0.0
C1360 C 0.7047 0.53359 0.69057 0.0
C1361 C 0.63657 0.51514 0.66107 0.0
C1362 C 0.63671 0.51319 0.63329 0.0
C1363 C 0.61669 0.51838 0.67286 0.0
C1364 C 0.61584 0.52085 0.70208 0.0
C1365 C 0.63839 0.54031 0.71567 0.0
C1366 C 0.63779 0.54198 0.74335 0.0
C1367 C 0.61465 0.52442 0.75762 0.0
C1368 C 0.59203 0.5052 0.74424 0.0
C1369 C 0.59255 0.50342 0.71656 0.0
H1370 H 0.61423 0.52575 0.77904 0.0
H1371 H 0.61573 0.49871 0.51187 0.0
H1372 H 0.99835 0.57697 0.13902 0.0
H1373 H 0.03063 0.6092 0.16973 0.0
H1374 H 0.09685 0.61422 0.12681 0.0
H1375 H 0.06519 0.58269 0.0959 0.0
H1376 H 0.10322 0.61206 0.18024 0.0
H1377 H 0.08073 0.65875 0.11771 0.0
H1378 H 0.04975 0.66832 0.09372 0.0
H1379 H 0.02309 0.68023 0.16805 0.0
H1380 H 0.05368 0.67039 0.19251 0.0
H1381 H 0.21849 0.72416 0.22044 0.0
H1382 H 0.18096 0.69303 0.19312 0.0
H1383 H 0.12476 0.70062 0.24082 0.0
H1384 H 0.16264 0.73272 0.26772 0.0
H1385 H 0.10944 0.69442 0.18969 0.0
H1386 H 0.13712 0.65269 0.25188 0.0
H1387 H 0.16981 0.64458 0.27462 0.0
H1388 H 0.18671 0.62262 0.20068 0.0
H1389 H 0.15493 0.63147 0.17727 0.0
C1390 C 0.01976 0.58498 0.13596 0.0
C1391 C 0.02892 0.57703 0.11476 0.0
C1392 C 0.0382 0.6034 0.15362 0.0
C1393 C 0.06617 0.61424 0.15046 0.0
C1394 C 0.07535 0.60605 0.1297 0.0
C1395 C 0.05703 0.5878 0.11202 0.0
C1396 C 0.08616 0.6343 0.16848 0.0
C1397 C 0.1047 0.63013 0.1822 0.0
C1398 C 0.08759 0.65759 0.17161 0.0
C1399 C 0.06923 0.66353 0.15694 0.0
C1400 C 0.06808 0.66319 0.12894 0.0
C1401 C 0.05063 0.66871 0.11526 0.0
C1402 C 0.03439 0.6748 0.12936 0.0
C1403 C 0.03564 0.67546 0.15716 0.0
C1404 C 0.05303 0.66992 0.17094 0.0
C1405 C 0.19818 0.71949 0.22487 0.0
C1406 C 0.19344 0.73069 0.24634 0.0
C1407 C 0.17671 0.70157 0.20934 0.0
C1408 C 0.14993 0.69389 0.21539 0.0
C1409 C 0.14524 0.70607 0.23592 0.0
C1410 C 0.16687 0.72444 0.25123 0.0
C1411 C 0.127 0.67244 0.20094 0.0
C1412 C 0.10781 0.67626 0.18802 0.0
C1413 C 0.12497 0.64876 0.19852 0.0
C1414 C 0.14372 0.64292 0.21275 0.0
C1415 C 0.14793 0.64629 0.24041 0.0
C1416 C 0.1663 0.64157 0.25343 0.0
C1417 C 0.18024 0.63303 0.23912 0.0
C1418 C 0.17588 0.62923 0.21174 0.0
C1419 C 0.15773 0.63415 0.19858 0.0
H1420 H 0.19441 0.62935 0.24925 0.0
H1421 H 0.0209 0.67908 0.11873 0.0
loop_
_geom_bond_atom_site_label_1
_geom_bond_atom_site_label_2
_geom_bond_distance
_geom_bond_site_symmetry_2
_ccdc_geom_bond_type
Cu0 N1 1.999 1_454 S
Cu0 O6 1.974 1_454 S
Cu0 N11 1.985 . S
Cu0 O20 1.959 . S
N1 Cu0 1.999 1_656 S
N1 C3 1.263 . S
N1 C5 1.389 1_556 S
N2 C3 1.358 . S
N2 C4 1.400 . S
C3 N1 1.263 . S
C3 N2 1.358 . S
C3 H9 0.930 . S
C4 N2 1.400 . S
C4 C5 1.351 1_556 S
C4 H21 0.930 . S
C5 N1 1.389 1_554 S
C5 C4 1.351 1_554 S
C5 H10 0.930 . S
O6 Cu0 1.974 1_656 S
O6 C16 1.282 . S
C7 O8 1.261 . S
C7 O20 1.251 . S
O8 C7 1.261 . S
H9 C3 0.930 . S
H10 C5 0.930 . S
N11 Cu0 1.985 . S
N11 C13 1.335 . S
N11 C14 1.390 . S
N12 C13 1.345 . S
N12 C15 1.336 . S
C13 N11 1.335 . S
C13 N12 1.345 . S
C13 H18 0.930 . S
C14 N11 1.390 . S
C14 C15 1.346 . S
C14 H19 0.930 1_554 S
C15 N12 1.336 . S
C15 C14 1.346 . S
C15 H22 0.929 . S
C16 O6 1.282 . S
C16 O17 1.216 1_655 S
O17 C16 1.216 1_455 S
H18 C13 0.930 . S
H19 C14 0.930 1_556 S
O20 Cu0 1.959 . S
O20 C7 1.251 . S
H21 C4 0.930 . S
H22 C15 0.929 . S
Cu23 N24 1.999 . S
Cu23 O29 1.974 . S
Cu23 N34 1.985 1_565 S
Cu23 O43 1.959 1_565 S
N24 Cu23 1.999 . S
N24 C26 1.263 . S
N24 C28 1.389 . S
N25 C26 1.358 . S
N25 C27 1.400 . S
C26 N24 1.263 . S
C26 N25 1.358 . S
C26 H32 0.930 . S
C27 N25 1.400 . S
C27 C28 1.351 . S
C27 H44 0.930 . S
C28 N24 1.389 . S
C28 C27 1.351 . S
C28 H33 0.930 . S
O29 Cu23 1.974 . S
O29 C39 1.282 . S
C30 O31 1.261 . S
C30 O43 1.251 . S
O31 C30 1.261 . S
H32 C26 0.930 . S
H33 C28 0.930 . S
N34 Cu23 1.985 1_545 S
N34 C36 1.335 . S
N34 C37 1.390 . S
N35 C36 1.345 . S
N35 C38 1.336 . S
C36 N34 1.335 . S
C36 N35 1.345 . S
C36 H41 0.930 . S
C37 N34 1.390 . S
C37 C38 1.346 . S
C37 H42 0.930 . S
C38 N35 1.336 . S
C38 C37 1.346 . S
C38 H45 0.929 . S
C39 O29 1.282 . S
C39 O40 1.216 1_565 S
O40 C39 1.216 1_545 S
H41 C36 0.930 . S
H42 C37 0.930 . S
O43 Cu23 1.959 1_545 S
O43 C30 1.251 . S
H44 C27 0.930 . S
H45 C38 0.929 . S
Cu46 N47 1.999 1_554 S
Cu46 O52 1.974 1_554 S
Cu46 N57 1.985 . S
Cu46 O66 1.959 . S
N47 Cu46 1.999 1_556 S
N47 C49 1.263 . S
N47 C51 1.389 . S
N48 C49 1.358 . S
N48 C50 1.400 . S
C49 N47 1.263 . S
C49 N48 1.358 . S
C49 H55 0.930 . S
C50 N48 1.400 . S
C50 C51 1.351 . S
C50 H67 0.930 . S
C51 N47 1.389 . S
C51 C50 1.351 . S
C51 H56 0.930 . S
O52 Cu46 1.974 1_556 S
O52 C62 1.282 . S
C53 O54 1.261 . S
C53 O66 1.251 . S
O54 C53 1.261 . S
H55 C49 0.930 . S
H56 C51 0.930 . S
N57 Cu46 1.985 . S
N57 C59 1.335 . S
N57 C60 1.390 . S
N58 C59 1.345 . S
N58 C61 1.336 . S
C59 N57 1.335 . S
C59 N58 1.345 . S
C59 H64 0.930 . S
C60 N57 1.390 . S
C60 C61 1.346 . S
C60 H65 0.930 . S
C61 N58 1.336 . S
C61 C60 1.346 . S
C61 H68 0.929 . S
C62 O52 1.282 . S
C62 O63 1.216 1_556 S
O63 C62 1.216 1_554 S
H64 C59 0.930 . S
H65 C60 0.930 . S
O66 Cu46 1.959 . S
O66 C53 1.251 . S
H67 C50 0.930 . S
H68 C61 0.929 . S
Cu69 N70 1.999 1_655 S
Cu69 O75 1.974 1_655 S
Cu69 N80 1.985 . S
Cu69 O89 1.959 . S
N70 Cu69 1.999 1_455 S
N70 C72 1.263 . S
N70 C74 1.389 1_455 S
N71 C72 1.358 . S
N71 C73 1.400 . S
C72 N70 1.263 . S
C72 N71 1.358 . S
C72 H78 0.930 . S
C73 N71 1.400 . S
C73 C74 1.351 1_455 S
C73 H90 0.934 1_455 S
C74 N70 1.389 1_655 S
C74 C73 1.351 1_655 S
C74 H79 0.930 . S
O75 Cu69 1.974 1_455 S
O75 C85 1.282 . S
C76 O77 1.261 1_655 S
C76 O89 1.251 . S
O77 C76 1.261 1_455 S
H78 C72 0.930 . S
H79 C74 0.930 . S
N80 Cu69 1.985 . S
N80 C82 1.335 . S
N80 C83 1.390 . S
N81 C82 1.345 . S
N81 C84 1.336 . S
C82 N80 1.335 . S
C82 N81 1.345 . S
C82 H87 0.930 . S
C83 N80 1.390 . S
C83 C84 1.346 . S
C83 H88 0.930 1_655 S
C84 N81 1.336 . S
C84 C83 1.346 . S
C84 H91 0.929 . S
C85 O75 1.282 . S
C85 O86 1.216 . S
O86 C85 1.216 . S
H87 C82 0.930 . S
H88 C83 0.930 1_455 S
O89 Cu69 1.959 . S
O89 C76 1.251 . S
H90 C73 0.934 1_655 S
H91 C84 0.929 . S
Cu92 N93 1.999 . S
Cu92 O98 1.974 1_554 S
Cu92 N103 1.985 1_545 S
Cu92 O112 1.959 1_545 S
N93 Cu92 1.999 . S
N93 C95 1.263 1_554 S
N93 C97 1.389 . S
N94 C95 1.358 . S
N94 C96 1.400 . S
C95 N93 1.263 1_556 S
C95 N94 1.358 . S
C95 H101 0.930 . S
C96 N94 1.400 . S
C96 C97 1.351 1_556 S
C96 H113 0.930 . S
C97 N93 1.389 . S
C97 C96 1.351 1_554 S
C97 H102 0.930 . S
O98 Cu92 1.974 1_556 S
O98 C108 1.282 . S
C99 O100 1.261 . S
C99 O112 1.251 . S
O100 C99 1.261 . S
H101 C95 0.930 . S
H102 C97 0.930 . S
N103 Cu92 1.985 1_565 S
N103 C105 1.335 . S
N103 C106 1.390 . S
N104 C105 1.345 . S
N104 C107 1.336 . S
C105 N103 1.335 . S
C105 N104 1.345 . S
C105 H110 0.930 . S
C106 N103 1.390 . S
C106 C107 1.346 . S
C106 H111 0.930 . S
C107 N104 1.336 . S
C107 C106 1.346 . S
C107 H114 0.929 . S
C108 O98 1.282 . S
C108 O109 1.216 . S
O109 C108 1.216 . S
H110 C105 0.930 . S
H111 C106 0.930 . S
O112 Cu92 1.959 1_565 S
O112 C99 1.251 . S
H113 C96 0.930 . S
H114 C107 0.929 . S
Cu115 N116 1.999 . S
Cu115 O121 1.974 . S
Cu115 N126 1.985 . S
Cu115 O135 1.959 . S
N116 Cu115 1.999 . S
N116 C118 1.263 . S
N116 C120 1.389 . S
N117 C118 1.358 . S
N117 C119 1.400 . S
C118 N116 1.263 . S
C118 N117 1.358 . S
C118 H124 0.930 . S
C119 N117 1.400 . S
C119 C120 1.351 . S
C119 H136 0.930 . S
C120 N116 1.389 . S
C120 C119 1.351 . S
C120 H125 0.930 . S
O121 Cu115 1.974 . S
O121 C131 1.282 . S
C122 O123 1.261 . S
C122 O135 1.251 . S
O123 C122 1.261 . S
H124 C118 0.930 . S
H125 C120 0.930 . S
N126 Cu115 1.985 . S
N126 C128 1.335 . S
N126 C129 1.390 . S
N127 C128 1.345 . S
N127 C130 1.336 . S
C128 N126 1.335 . S
C128 N127 1.345 . S
C128 H133 0.930 . S
C129 N126 1.390 . S
C129 C130 1.346 . S
C129 H134 0.930 . S
C130 N127 1.336 . S
C130 C129 1.346 . S
C130 H137 0.929 . S
C131 O121 1.282 . S
C131 O132 1.216 . S
O132 C131 1.216 . S
H133 C128 0.930 . S
H134 C129 0.930 . S
O135 Cu115 1.959 . S
O135 C122 1.251 . S
H136 C119 0.930 . S
H137 C130 0.929 . S
C138 O140 1.247 . S
C138 O142 1.258 . S
C139 O146 1.247 . S
C139 O147 1.258 . S
O140 C138 1.247 . S
O140 Zn141 2.028 . S
Zn141 O140 2.028 . S
Zn141 O145 2.035 . S
Zn141 O147 2.035 . S
Zn141 O148 2.028 . S
O142 C138 1.258 . S
O142 Zn143 2.035 . S
Zn143 O142 2.035 . S
Zn143 O144 2.028 . S
Zn143 O146 2.028 . S
Zn143 O149 2.035 . S
O144 Zn143 2.028 . S
O144 C150 1.247 . S
O145 Zn141 2.035 . S
O145 C150 1.258 . S
O146 C139 1.247 . S
O146 Zn143 2.028 . S
O147 C139 1.258 . S
O147 Zn141 2.035 . S
O148 Zn141 2.028 . S
O148 C151 1.247 . S
O149 Zn143 2.035 . S
O149 C151 1.258 . S
C150 O144 1.247 . S
C150 O145 1.258 . S
C151 O148 1.247 . S
C151 O149 1.258 . S
C152 O154 1.247 . S
C152 O156 1.258 . S
C153 O160 1.247 . S
C153 O161 1.258 . S
O154 C152 1.247 . S
O154 Zn155 2.028 . S
Zn155 O154 2.028 . S
Zn155 O159 2.035 . S
Zn155 O161 2.035 . S
Zn155 O162 2.028 . S
O156 C152 1.258 . S
O156 Zn157 2.035 . S
Zn157 O156 2.035 . S
Zn157 O158 2.028 . S
Zn157 O160 2.028 . S
Zn157 O163 2.035 . S
O158 Zn157 2.028 . S
O158 C164 1.247 . S
O159 Zn155 2.035 . S
O159 C164 1.258 . S
O160 C153 1.247 . S
O160 Zn157 2.028 . S
O161 C153 1.258 . S
O161 Zn155 2.035 . S
O162 Zn155 2.028 . S
O162 C165 1.247 . S
O163 Zn157 2.035 . S
O163 C165 1.258 . S
C164 O158 1.247 . S
C164 O159 1.258 . S
C165 O162 1.247 . S
C165 O163 1.258 . S
C166 O168 1.247 . S
C166 O170 1.258 . S
C167 O174 1.247 . S
C167 O175 1.258 . S
O168 C166 1.247 . S
O168 Zn169 2.028 . S
Zn169 O168 2.028 . S
Zn169 O173 2.035 . S
Zn169 O175 2.035 . S
Zn169 O176 2.028 . S
O170 C166 1.258 . S
O170 Zn171 2.035 . S
Zn171 O170 2.035 . S
Zn171 O172 2.028 . S
Zn171 O174 2.028 . S
Zn171 O177 2.035 . S
O172 Zn171 2.028 . S
O172 C178 1.247 . S
O173 Zn169 2.035 . S
O173 C178 1.258 . S
O174 C167 1.247 . S
O174 Zn171 2.028 . S
O175 C167 1.258 . S
O175 Zn169 2.035 . S
O176 Zn169 2.028 . S
O176 C179 1.247 . S
O177 Zn171 2.035 . S
O177 C179 1.258 . S
C178 O172 1.247 . S
C178 O173 1.258 . S
C179 O176 1.247 . S
C179 O177 1.258 . S
C180 O182 1.247 . S
C180 O184 1.258 . S
C181 O188 1.247 . S
C181 O189 1.258 . S
O182 C180 1.247 . S
O182 Zn183 2.028 . S
Zn183 O182 2.028 . S
Zn183 O187 2.035 . S
Zn183 O189 2.035 . S
Zn183 O190 2.028 . S
O184 C180 1.258 . S
O184 Zn185 2.035 . S
Zn185 O184 2.035 . S
Zn185 O186 2.028 . S
Zn185 O188 2.028 . S
Zn185 O191 2.035 . S
O186 Zn185 2.028 . S
O186 C192 1.247 . S
O187 Zn183 2.035 . S
O187 C192 1.258 . S
O188 C181 1.247 . S
O188 Zn185 2.028 . S
O189 C181 1.258 . S
O189 Zn183 2.035 . S
O190 Zn183 2.028 . S
O190 C193 1.247 . S
O191 Zn185 2.035 . S
O191 C193 1.258 . S
C192 O186 1.247 . S
C192 O187 1.258 . S
C193 O190 1.247 . S
C193 O191 1.258 . S
C194 O196 1.247 . S
C194 O198 1.258 . S
C195 O202 1.247 . S
C195 O203 1.258 . S
O196 C194 1.247 . S
O196 Zn197 2.028 . S
Zn197 O196 2.028 . S
Zn197 O201 2.035 . S
Zn197 O203 2.035 . S
Zn197 O204 2.028 . S
O198 C194 1.258 . S
O198 Zn199 2.035 . S
Zn199 O198 2.035 . S
Zn199 O200 2.028 . S
Zn199 O202 2.028 . S
Zn199 O205 2.035 . S
O200 Zn199 2.028 . S
O200 C206 1.247 . S
O201 Zn197 2.035 . S
O201 C206 1.258 . S
O202 C195 1.247 . S
O202 Zn199 2.028 . S
O203 C195 1.258 . S
O203 Zn197 2.035 . S
O204 Zn197 2.028 . S
O204 C207 1.247 . S
O205 Zn199 2.035 . S
O205 C207 1.258 . S
C206 O200 1.247 . S
C206 O201 1.258 . S
C207 O204 1.247 . S
C207 O205 1.258 . S
C208 O210 1.247 . S
C208 O212 1.258 . S
C209 O216 1.247 . S
C209 O217 1.258 . S
O210 C208 1.247 . S
O210 Zn211 2.028 . S
Zn211 O210 2.028 . S
Zn211 O215 2.035 . S
Zn211 O217 2.035 . S
Zn211 O218 2.028 . S
O212 C208 1.258 . S
O212 Zn213 2.035 . S
Zn213 O212 2.035 . S
Zn213 O214 2.028 . S
Zn213 O216 2.028 . S
Zn213 O219 2.035 . S
O214 Zn213 2.028 . S
O214 C220 1.247 . S
O215 Zn211 2.035 . S
O215 C220 1.258 . S
O216 C209 1.247 . S
O216 Zn213 2.028 . S
O217 C209 1.258 . S
O217 Zn211 2.035 . S
O218 Zn211 2.028 . S
O218 C221 1.247 . S
O219 Zn213 2.035 . S
O219 C221 1.258 . S
C220 O214 1.247 . S
C220 O215 1.258 . S
C221 O218 1.247 . S
C221 O219 1.258 . S
H222 C240 0.951 . S
H223 C242 0.951 . S
H224 C244 0.950 . S
H225 C245 0.950 . S
H226 C247 0.950 . S
H227 C250 0.950 . S
H228 C251 0.950 1_655 S
H229 C253 0.950 . S
H230 C254 0.950 . S
H231 C255 0.951 . S
H232 C257 0.951 . S
H233 C259 0.950 . S
H234 C260 0.950 . S
H235 C262 0.950 . S
H236 C265 0.950 . S
H237 C266 0.950 . S
H238 C268 0.950 . S
H239 C269 0.950 . S
C240 H222 0.951 . S
C240 C241 1.366 . S
C240 C242 1.388 . S
C241 C240 1.366 . S
C241 C245 1.385 . S
C242 H223 0.951 . S
C242 C240 1.388 . S
C242 C243 1.366 . S
C243 C242 1.366 . S
C243 C244 1.414 . S
C243 C246 1.499 . S
C244 H224 0.950 . S
C244 C243 1.414 . S
C244 C245 1.374 . S
C245 H225 0.950 . S
C245 C241 1.385 . S
C245 C244 1.374 . S
C246 C243 1.499 . S
C246 C247 1.373 . S
C246 C248 1.389 . S
C247 H226 0.950 . S
C247 C246 1.373 . S
C247 C263 1.377 . S
C248 C246 1.389 . S
C248 C249 1.524 . S
C248 C262 1.377 . S
C249 C248 1.524 . S
C249 C250 1.397 . S
C249 C254 1.363 . S
C250 H227 0.950 . S
C250 C249 1.397 . S
C250 C251 1.334 . S
C251 H228 0.950 1_455 S
C251 C250 1.334 . S
C251 C252 1.287 . S
C252 C251 1.287 . S
C252 C253 1.524 . S
C252 H271 0.913 1_455 S
C253 H229 0.950 . S
C253 C252 1.524 . S
C253 C254 1.415 . S
C254 H230 0.950 . S
C254 C249 1.363 . S
C254 C253 1.415 . S
C255 H231 0.951 . S
C255 C256 1.366 . S
C255 C257 1.388 . S
C256 C255 1.366 . S
C256 C260 1.385 . S
C257 H232 0.951 . S
C257 C255 1.388 . S
C257 C258 1.366 . S
C258 C257 1.366 . S
C258 C259 1.414 . S
C258 C261 1.499 . S
C259 H233 0.950 . S
C259 C258 1.414 . S
C259 C260 1.374 . S
C260 H234 0.950 . S
C260 C256 1.385 . S
C260 C259 1.374 . S
C261 C258 1.499 . S
C261 C262 1.373 . S
C261 C263 1.389 . S
C262 H235 0.950 . S
C262 C248 1.377 . S
C262 C261 1.373 . S
C263 C247 1.377 . S
C263 C261 1.389 . S
C263 C264 1.524 . S
C264 C263 1.524 . S
C264 C265 1.397 . S
C264 C269 1.363 . S
C265 H236 0.950 . S
C265 C264 1.397 . S
C265 C266 1.334 . S
C266 H237 0.950 . S
C266 C265 1.334 . S
C266 C267 1.287 . S
C267 C266 1.287 . S
C267 C268 1.524 . S
C267 H270 0.999 . S
C268 H238 0.950 . S
C268 C267 1.524 . S
C268 C269 1.415 . S
C269 H239 0.950 . S
C269 C264 1.363 . S
C269 C268 1.415 . S
H270 C267 0.999 . S
H271 C252 0.913 1_655 S
H272 C290 0.951 . S
H273 C292 0.951 . S
H274 C294 0.950 . S
H275 C295 0.950 . S
H276 C297 0.950 . S
H277 C300 0.950 . S
H278 C301 0.950 . S
H279 C303 0.950 1_565 S
H280 C304 0.950 . S
H281 C305 0.951 . S
H282 C307 0.951 . S
H283 C309 0.950 . S
H284 C310 0.950 . S
H285 C312 0.950 . S
H286 C315 0.950 . S
H287 C316 0.950 . S
H288 C318 0.950 . S
H289 C319 0.950 . S
C290 H272 0.951 . S
C290 C291 1.366 . S
C290 C292 1.388 . S
C291 C290 1.366 . S
C291 C295 1.385 . S
C292 H273 0.951 . S
C292 C290 1.388 . S
C292 C293 1.366 . S
C293 C292 1.366 . S
C293 C294 1.414 . S
C293 C296 1.499 . S
C294 H274 0.950 . S
C294 C293 1.414 . S
C294 C295 1.374 . S
C295 H275 0.950 . S
C295 C291 1.385 . S
C295 C294 1.374 . S
C296 C293 1.499 . S
C296 C297 1.373 . S
C296 C298 1.389 . S
C297 H276 0.950 . S
C297 C296 1.373 . S
C297 C313 1.377 . S
C298 C296 1.389 . S
C298 C299 1.524 . S
C298 C312 1.377 . S
C299 C298 1.524 . S
C299 C300 1.397 . S
C299 C304 1.363 . S
C300 H277 0.950 . S
C300 C299 1.397 . S
C300 C301 1.334 . S
C301 H278 0.950 . S
C301 C300 1.334 . S
C301 C302 1.286 . S
C302 C301 1.286 . S
C302 C303 1.524 . S
C302 H321 0.913 1_545 S
C303 H279 0.950 1_545 S
C303 C302 1.524 . S
C303 C304 1.415 . S
C304 H280 0.950 . S
C304 C299 1.363 . S
C304 C303 1.415 . S
C305 H281 0.951 . S
C305 C306 1.366 . S
C305 C307 1.388 . S
C306 C305 1.366 . S
C306 C310 1.385 . S
C307 H282 0.951 . S
C307 C305 1.388 . S
C307 C308 1.366 . S
C308 C307 1.366 . S
C308 C309 1.414 . S
C308 C311 1.499 . S
C309 H283 0.950 . S
C309 C308 1.414 . S
C309 C310 1.374 . S
C310 H284 0.950 . S
C310 C306 1.385 . S
C310 C309 1.374 . S
C311 C308 1.499 . S
C311 C312 1.373 . S
C311 C313 1.389 . S
C312 H285 0.950 . S
C312 C298 1.377 . S
C312 C311 1.373 . S
C313 C297 1.377 . S
C313 C311 1.389 . S
C313 C314 1.524 . S
C314 C313 1.524 . S
C314 C315 1.397 . S
C314 C319 1.363 . S
C315 H286 0.950 . S
C315 C314 1.397 . S
C315 C316 1.334 . S
C316 H287 0.950 . S
C316 C315 1.334 . S
C316 C317 1.287 . S
C317 C316 1.287 . S
C317 C318 1.524 . S
C317 H320 0.999 . S
C318 H288 0.950 . S
C318 C317 1.524 . S
C318 C319 1.415 . S
C319 H289 0.950 . S
C319 C314 1.363 . S
C319 C318 1.415 . S
H320 C317 0.999 . S
H321 C302 0.913 1_565 S
H322 C340 0.951 . S
H323 C342 0.951 . S
H324 C344 0.950 . S
H325 C345 0.950 . S
H326 C347 0.950 . S
H327 C350 0.950 . S
H328 C351 0.950 . S
H329 C353 0.950 . S
H330 C354 0.950 . S
H331 C355 0.951 . S
H332 C357 0.951 . S
H333 C359 0.950 . S
H334 C360 0.950 . S
H335 C362 0.950 . S
H336 C365 0.950 . S
H337 C366 0.950 . S
H338 C368 0.950 . S
H339 C369 0.950 . S
C340 H322 0.951 . S
C340 C341 1.366 . S
C340 C342 1.388 . S
C341 C340 1.366 . S
C341 C345 1.385 . S
C342 H323 0.951 . S
C342 C340 1.388 . S
C342 C343 1.366 . S
C343 C342 1.366 . S
C343 C344 1.414 . S
C343 C346 1.499 . S
C344 H324 0.950 . S
C344 C343 1.414 . S
C344 C345 1.374 . S
C345 H325 0.950 . S
C345 C341 1.385 . S
C345 C344 1.374 . S
C346 C343 1.499 . S
C346 C347 1.373 . S
C346 C348 1.389 . S
C347 H326 0.950 . S
C347 C346 1.373 . S
C347 C363 1.377 . S
C348 C346 1.389 . S
C348 C349 1.524 . S
C348 C362 1.377 . S
C349 C348 1.524 . S
C349 C350 1.397 . S
C349 C354 1.363 . S
C350 H327 0.950 . S
C350 C349 1.397 . S
C350 C351 1.334 . S
C351 H328 0.950 . S
C351 C350 1.334 . S
C351 C352 1.287 . S
C352 C351 1.287 . S
C352 C353 1.524 . S
C352 H371 0.913 . S
C353 H329 0.950 . S
C353 C352 1.524 . S
C353 C354 1.415 . S
C354 H330 0.950 . S
C354 C349 1.363 . S
C354 C353 1.415 . S
C355 H331 0.951 . S
C355 C356 1.366 . S
C355 C357 1.388 . S
C356 C355 1.366 . S
C356 C360 1.385 . S
C357 H332 0.951 . S
C357 C355 1.388 . S
C357 C358 1.366 . S
C358 C357 1.366 . S
C358 C359 1.414 . S
C358 C361 1.499 . S
C359 H333 0.950 . S
C359 C358 1.414 . S
C359 C360 1.374 . S
C360 H334 0.950 . S
C360 C356 1.385 . S
C360 C359 1.374 . S
C361 C358 1.499 . S
C361 C362 1.373 . S
C361 C363 1.389 . S
C362 H335 0.950 . S
C362 C348 1.377 . S
C362 C361 1.373 . S
C363 C347 1.377 . S
C363 C361 1.389 . S
C363 C364 1.524 . S
C364 C363 1.524 . S
C364 C365 1.397 . S
C364 C369 1.363 . S
C365 H336 0.950 . S
C365 C364 1.397 . S
C365 C366 1.334 . S
C366 H337 0.950 . S
C366 C365 1.334 . S
C366 C367 1.287 . S
C367 C366 1.287 . S
C367 C368 1.524 . S
C367 H370 0.999 . S
C368 H338 0.950 . S
C368 C367 1.524 . S
C368 C369 1.415 . S
C369 H339 0.950 . S
C369 C364 1.363 . S
C369 C368 1.415 . S
H370 C367 0.999 . S
H371 C352 0.913 . S
H372 C390 0.951 . S
H373 C392 0.951 . S
H374 C394 0.950 . S
H375 C395 0.950 . S
H376 C397 0.950 . S
H377 C400 0.950 . S
H378 C401 0.950 . S
H379 C403 0.950 . S
H380 C404 0.950 . S
H381 C405 0.951 . S
H382 C407 0.951 . S
H383 C409 0.950 . S
H384 C410 0.950 . S
H385 C412 0.950 . S
H386 C415 0.950 . S
H387 C416 0.950 . S
H388 C418 0.950 . S
H389 C419 0.950 . S
C390 H372 0.951 . S
C390 C391 1.366 . S
C390 C392 1.388 . S
C391 C390 1.366 . S
C391 C395 1.385 . S
C392 H373 0.951 . S
C392 C390 1.388 . S
C392 C393 1.366 . S
C393 C392 1.366 . S
C393 C394 1.414 . S
C393 C396 1.499 . S
C394 H374 0.950 . S
C394 C393 1.414 . S
C394 C395 1.374 . S
C395 H375 0.950 . S
C395 C391 1.385 . S
C395 C394 1.374 . S
C396 C393 1.499 . S
C396 C397 1.373 . S
C396 C398 1.389 . S
C397 H376 0.950 . S
C397 C396 1.373 . S
C397 C413 1.377 . S
C398 C396 1.389 . S
C398 C399 1.524 . S
C398 C412 1.377 . S
C399 C398 1.524 . S
C399 C400 1.397 . S
C399 C404 1.363 . S
C400 H377 0.950 . S
C400 C399 1.397 . S
C400 C401 1.334 . S
C401 H378 0.950 . S
C401 C400 1.334 . S
C401 C402 1.287 . S
C402 C401 1.287 . S
C402 C403 1.524 . S
C402 H421 0.913 . S
C403 H379 0.950 . S
C403 C402 1.524 . S
C403 C404 1.415 . S
C404 H380 0.950 . S
C404 C399 1.363 . S
C404 C403 1.415 . S
C405 H381 0.951 . S
C405 C406 1.366 . S
C405 C407 1.388 . S
C406 C405 1.366 . S
C406 C410 1.385 . S
C407 H382 0.951 . S
C407 C405 1.388 . S
C407 C408 1.366 . S
C408 C407 1.366 . S
C408 C409 1.414 . S
C408 C411 1.499 . S
C409 H383 0.950 . S
C409 C408 1.414 . S
C409 C410 1.374 . S
C410 H384 0.950 . S
C410 C406 1.385 . S
C410 C409 1.374 . S
C411 C408 1.499 . S
C411 C412 1.373 . S
C411 C413 1.389 . S
C412 H385 0.950 . S
C412 C398 1.377 . S
C412 C411 1.373 . S
C413 C397 1.377 . S
C413 C411 1.389 . S
C413 C414 1.524 . S
C414 C413 1.524 . S
C414 C415 1.397 . S
C414 C419 1.363 . S
C415 H386 0.950 . S
C415 C414 1.397 . S
C415 C416 1.334 . S
C416 H387 0.950 . S
C416 C415 1.334 . S
C416 C417 1.287 . S
C417 C416 1.287 . S
C417 C418 1.524 . S
C417 H420 0.999 . S
C418 H388 0.950 . S
C418 C417 1.524 . S
C418 C419 1.415 . S
C419 H389 0.950 . S
C419 C414 1.363 . S
C419 C418 1.415 . S
H420 C417 0.999 . S
H421 C402 0.913 . S
H422 C440 0.951 . S
H423 C442 0.951 . S
H424 C444 0.950 . S
H425 C445 0.950 . S
H426 C447 0.950 . S
H427 C450 0.950 . S
H428 C451 0.950 . S
H429 C453 0.950 . S
H430 C454 0.950 . S
H431 C455 0.951 . S
H432 C457 0.951 . S
H433 C459 0.950 . S
H434 C460 0.950 . S
H435 C462 0.950 . S
H436 C465 0.950 . S
H437 C466 0.950 . S
H438 C468 0.950 . S
H439 C469 0.950 . S
C440 H422 0.951 . S
C440 C441 1.366 . S
C440 C442 1.388 . S
C441 C440 1.366 . S
C441 C445 1.385 . S
C442 H423 0.951 . S
C442 C440 1.388 . S
C442 C443 1.366 . S
C443 C442 1.366 . S
C443 C444 1.414 . S
C443 C446 1.499 . S
C444 H424 0.950 . S
C444 C443 1.414 . S
C444 C445 1.374 . S
C445 H425 0.950 . S
C445 C441 1.385 . S
C445 C444 1.374 . S
C446 C443 1.499 . S
C446 C447 1.373 . S
C446 C448 1.389 . S
C447 H426 0.950 . S
C447 C446 1.373 . S
C447 C463 1.377 . S
C448 C446 1.389 . S
C448 C449 1.524 . S
C448 C462 1.377 . S
C449 C448 1.524 . S
C449 C450 1.397 . S
C449 C454 1.363 . S
C450 H427 0.950 . S
C450 C449 1.397 . S
C450 C451 1.334 . S
C451 H428 0.950 . S
C451 C450 1.334 . S
C451 C452 1.287 . S
C452 C451 1.287 . S
C452 C453 1.524 . S
C452 H471 0.913 . S
C453 H429 0.950 . S
C453 C452 1.524 . S
C453 C454 1.415 . S
C454 H430 0.950 . S
C454 C449 1.363 . S
C454 C453 1.415 . S
C455 H431 0.951 . S
C455 C456 1.366 . S
C455 C457 1.388 . S
C456 C455 1.366 . S
C456 C460 1.385 . S
C457 H432 0.951 . S
C457 C455 1.388 . S
C457 C458 1.366 . S
C458 C457 1.366 . S
C458 C459 1.414 . S
C458 C461 1.499 . S
C459 H433 0.950 . S
C459 C458 1.414 . S
C459 C460 1.374 . S
C460 H434 0.950 . S
C460 C456 1.385 . S
C460 C459 1.374 . S
C461 C458 1.499 . S
C461 C462 1.373 . S
C461 C463 1.389 . S
C462 H435 0.950 . S
C462 C448 1.377 . S
C462 C461 1.373 . S
C463 C447 1.377 . S
C463 C461 1.389 . S
C463 C464 1.524 . S
C464 C463 1.524 . S
C464 C465 1.397 . S
C464 C469 1.363 . S
C465 H436 0.950 . S
C465 C464 1.397 . S
C465 C466 1.334 . S
C466 H437 0.950 . S
C466 C465 1.334 . S
C466 C467 1.287 . S
C467 C466 1.287 . S
C467 C468 1.524 . S
C467 H470 0.999 . S
C468 H438 0.950 . S
C468 C467 1.524 . S
C468 C469 1.415 . S
C469 H439 0.950 . S
C469 C464 1.363 . S
C469 C468 1.415 . S
H470 C467 0.999 . S
H471 C452 0.913 . S
H472 C490 0.951 . S
H473 C492 0.951 . S
H474 C494 0.950 . S
H475 C495 0.950 . S
H476 C497 0.950 . S
H477 C500 0.950 . S
H478 C501 0.950 . S
H479 C503 0.950 . S
H480 C504 0.950 . S
H481 C505 0.951 . S
H482 C507 0.951 . S
H483 C509 0.950 . S
H484 C510 0.950 . S
H485 C512 0.950 . S
H486 C515 0.950 . S
H487 C516 0.950 . S
H488 C518 0.950 . S
H489 C519 0.950 . S
C490 H472 0.951 . S
C490 C491 1.366 . S
C490 C492 1.388 . S
C491 C490 1.366 . S
C491 C495 1.385 . S
C492 H473 0.951 . S
C492 C490 1.388 . S
C492 C493 1.366 . S
C493 C492 1.366 . S
C493 C494 1.414 . S
C493 C496 1.499 . S
C494 H474 0.950 . S
C494 C493 1.414 . S
C494 C495 1.374 . S
C495 H475 0.950 . S
C495 C491 1.385 . S
C495 C494 1.374 . S
C496 C493 1.499 . S
C496 C497 1.373 . S
C496 C498 1.389 . S
C497 H476 0.950 . S
C497 C496 1.373 . S
C497 C513 1.377 . S
C498 C496 1.389 . S
C498 C499 1.524 . S
C498 C512 1.377 . S
C499 C498 1.524 . S
C499 C500 1.397 . S
C499 C504 1.363 . S
C500 H477 0.950 . S
C500 C499 1.397 . S
C500 C501 1.334 . S
C501 H478 0.950 . S
C501 C500 1.334 . S
C501 C502 1.287 . S
C502 C501 1.287 . S
C502 C503 1.524 . S
C502 H521 0.913 . S
C503 H479 0.950 . S
C503 C502 1.524 . S
C503 C504 1.415 . S
C504 H480 0.950 . S
C504 C499 1.363 . S
C504 C503 1.415 . S
C505 H481 0.951 . S
C505 C506 1.366 . S
C505 C507 1.388 . S
C506 C505 1.366 . S
C506 C510 1.385 . S
C507 H482 0.951 . S
C507 C505 1.388 . S
C507 C508 1.366 . S
C508 C507 1.366 . S
C508 C509 1.414 . S
C508 C511 1.499 . S
C509 H483 0.950 . S
C509 C508 1.414 . S
C509 C510 1.374 . S
C510 H484 0.950 . S
C510 C506 1.385 . S
C510 C509 1.374 . S
C511 C508 1.499 . S
C511 C512 1.373 . S
C511 C513 1.389 . S
C512 H485 0.950 . S
C512 C498 1.377 . S
C512 C511 1.373 . S
C513 C497 1.377 . S
C513 C511 1.389 . S
C513 C514 1.524 . S
C514 C513 1.524 . S
C514 C515 1.397 . S
C514 C519 1.363 . S
C515 H486 0.950 . S
C515 C514 1.397 . S
C515 C516 1.334 . S
C516 H487 0.950 . S
C516 C515 1.334 . S
C516 C517 1.287 . S
C517 C516 1.287 . S
C517 C518 1.524 . S
C517 H520 0.999 . S
C518 H488 0.950 . S
C518 C517 1.524 . S
C518 C519 1.415 . S
C519 H489 0.950 . S
C519 C514 1.363 . S
C519 C518 1.415 . S
H520 C517 0.999 . S
H521 C502 0.913 . S
H522 C540 0.951 . S
H523 C542 0.951 . S
H524 C544 0.950 . S
H525 C545 0.950 . S
H526 C547 0.950 . S
H527 C550 0.950 . S
H528 C551 0.950 . S
H529 C553 0.950 1_545 S
H530 C554 0.950 . S
H531 C555 0.951 . S
H532 C557 0.951 . S
H533 C559 0.950 . S
H534 C560 0.950 . S
H535 C562 0.950 . S
H536 C565 0.950 . S
H537 C566 0.950 . S
H538 C568 0.950 . S
H539 C569 0.950 . S
C540 H522 0.951 . S
C540 C541 1.366 . S
C540 C542 1.388 . S
C541 C540 1.366 . S
C541 C545 1.385 . S
C542 H523 0.951 . S
C542 C540 1.388 . S
C542 C543 1.366 . S
C543 C542 1.366 . S
C543 C544 1.414 . S
C543 C546 1.499 . S
C544 H524 0.950 . S
C544 C543 1.414 . S
C544 C545 1.374 . S
C545 H525 0.950 . S
C545 C541 1.385 . S
C545 C544 1.374 . S
C546 C543 1.499 . S
C546 C547 1.373 . S
C546 C548 1.389 . S
C547 H526 0.950 . S
C547 C546 1.373 . S
C547 C563 1.377 . S
C548 C546 1.389 . S
C548 C549 1.524 . S
C548 C562 1.377 . S
C549 C548 1.524 . S
C549 C550 1.397 . S
C549 C554 1.363 . S
C550 H527 0.950 . S
C550 C549 1.397 . S
C550 C551 1.334 . S
C551 H528 0.950 . S
C551 C550 1.334 . S
C551 C552 1.287 . S
C552 C551 1.287 . S
C552 C553 1.524 . S
C552 H571 0.913 1_565 S
C553 H529 0.950 1_565 S
C553 C552 1.524 . S
C553 C554 1.415 . S
C554 H530 0.950 . S
C554 C549 1.363 . S
C554 C553 1.415 . S
C555 H531 0.951 . S
C555 C556 1.366 . S
C555 C557 1.388 . S
C556 C555 1.366 . S
C556 C560 1.385 . S
C557 H532 0.951 . S
C557 C555 1.388 . S
C557 C558 1.366 . S
C558 C557 1.366 . S
C558 C559 1.414 . S
C558 C561 1.499 . S
C559 H533 0.950 . S
C559 C558 1.414 . S
C559 C560 1.374 . S
C560 H534 0.950 . S
C560 C556 1.385 . S
C560 C559 1.374 . S
C561 C558 1.499 . S
C561 C562 1.373 . S
C561 C563 1.389 . S
C562 H535 0.950 . S
C562 C548 1.377 . S
C562 C561 1.373 . S
C563 C547 1.377 . S
C563 C561 1.389 . S
C563 C564 1.524 . S
C564 C563 1.524 . S
C564 C565 1.397 . S
C564 C569 1.363 . S
C565 H536 0.950 . S
C565 C564 1.397 . S
C565 C566 1.334 . S
C566 H537 0.950 . S
C566 C565 1.334 . S
C566 C567 1.287 . S
C567 C566 1.287 . S
C567 C568 1.524 . S
C567 H570 0.999 . S
C568 H538 0.950 . S
C568 C567 1.524 . S
C568 C569 1.415 . S
C569 H539 0.950 . S
C569 C564 1.363 . S
C569 C568 1.415 . S
H570 C567 0.999 . S
H571 C552 0.913 1_545 S
H572 C590 0.951 . S
H573 C592 0.951 . S
H574 C594 0.950 . S
H575 C595 0.950 . S
H576 C597 0.950 . S
H577 C600 0.950 . S
H578 C601 0.974 . S
H579 C603 0.950 . S
H580 C604 0.950 . S
H581 C605 0.951 . S
H582 C607 0.951 . S
H583 C609 0.950 . S
H584 C610 0.950 . S
H585 C612 0.950 . S
H586 C615 0.950 . S
H587 C616 0.950 . S
H588 C618 0.950 . S
H589 C619 0.950 . S
C590 H572 0.951 . S
C590 C591 1.366 . S
C590 C592 1.388 . S
C591 C590 1.366 . S
C591 C595 1.385 . S
C592 H573 0.951 . S
C592 C590 1.388 . S
C592 C593 1.366 . S
C593 C592 1.366 . S
C593 C594 1.414 . S
C593 C596 1.499 . S
C594 H574 0.950 . S
C594 C593 1.414 . S
C594 C595 1.374 . S
C595 H575 0.950 . S
C595 C591 1.385 . S
C595 C594 1.374 . S
C596 C593 1.499 . S
C596 C597 1.373 . S
C596 C598 1.389 . S
C597 H576 0.950 . S
C597 C596 1.373 . S
C597 C613 1.377 . S
C598 C596 1.389 . S
C598 C599 1.524 . S
C598 C612 1.377 . S
C599 C598 1.524 . S
C599 C600 1.397 . S
C599 C604 1.363 . S
C600 H577 0.950 . S
C600 C599 1.397 . S
C600 C601 1.334 . S
C601 H578 0.974 . S
C601 C600 1.334 . S
C601 C602 1.287 . S
C602 C601 1.287 . S
C602 C603 1.524 . S
C602 H621 0.913 1_556 S
C603 H579 0.950 . S
C603 C602 1.524 . S
C603 C604 1.415 . S
C604 H580 0.950 . S
C604 C599 1.363 . S
C604 C603 1.415 . S
C605 H581 0.951 . S
C605 C606 1.366 . S
C605 C607 1.388 . S
C606 C605 1.366 . S
C606 C610 1.385 . S
C607 H582 0.951 . S
C607 C605 1.388 . S
C607 C608 1.366 . S
C608 C607 1.366 . S
C608 C609 1.414 . S
C608 C611 1.499 . S
C609 H583 0.950 . S
C609 C608 1.414 . S
C609 C610 1.374 . S
C610 H584 0.950 . S
C610 C606 1.385 . S
C610 C609 1.374 . S
C611 C608 1.499 . S
C611 C612 1.373 . S
C611 C613 1.389 . S
C612 H585 0.950 . S
C612 C598 1.377 . S
C612 C611 1.373 . S
C613 C597 1.377 . S
C613 C611 1.389 . S
C613 C614 1.524 . S
C614 C613 1.524 . S
C614 C615 1.397 . S
C614 C619 1.363 . S
C615 H586 0.950 . S
C615 C614 1.397 . S
C615 C616 1.334 . S
C616 H587 0.950 . S
C616 C615 1.334 . S
C616 C617 1.287 . S
C617 C616 1.287 . S
C617 C618 1.524 . S
C617 H620 0.999 . S
C618 H588 0.950 . S
C618 C617 1.524 . S
C618 C619 1.415 . S
C619 H589 0.950 . S
C619 C614 1.363 . S
C619 C618 1.415 . S
H620 C617 0.999 . S
H621 C602 0.913 1_554 S
H622 C640 0.951 . S
H623 C642 0.951 . S
H624 C644 0.950 . S
H625 C645 0.950 . S
H626 C647 0.950 . S
H627 C650 0.950 . S
H628 C651 0.950 . S
H629 C653 0.950 . S
H630 C654 0.950 . S
H631 C655 0.951 . S
H632 C657 0.951 . S
H633 C659 0.950 . S
H634 C660 0.950 . S
H635 C662 0.950 . S
H636 C665 0.950 . S
H637 C666 0.950 . S
H638 C668 0.950 . S
H639 C669 0.950 . S
C640 H622 0.951 . S
C640 C641 1.366 . S
C640 C642 1.388 . S
C641 C640 1.366 . S
C641 C645 1.385 . S
C642 H623 0.951 . S
C642 C640 1.388 . S
C642 C643 1.366 . S
C643 C642 1.366 . S
C643 C644 1.414 . S
C643 C646 1.499 . S
C644 H624 0.950 . S
C644 C643 1.414 . S
C644 C645 1.374 . S
C645 H625 0.950 . S
C645 C641 1.385 . S
C645 C644 1.374 . S
C646 C643 1.499 . S
C646 C647 1.373 . S
C646 C648 1.389 . S
C647 H626 0.950 . S
C647 C646 1.373 . S
C647 C663 1.377 . S
C648 C646 1.389 . S
C648 C649 1.524 . S
C648 C662 1.377 . S
C649 C648 1.524 . S
C649 C650 1.397 . S
C649 C654 1.363 . S
C650 H627 0.950 . S
C650 C649 1.397 . S
C650 C651 1.334 . S
C651 H628 0.950 . S
C651 C650 1.334 . S
C651 C652 1.287 . S
C652 C651 1.287 . S
C652 C653 1.524 . S
C652 H671 0.913 . S
C653 H629 0.950 . S
C653 C652 1.524 . S
C653 C654 1.415 . S
C654 H630 0.950 . S
C654 C649 1.363 . S
C654 C653 1.415 . S
C655 H631 0.951 . S
C655 C656 1.366 . S
C655 C657 1.388 . S
C656 C655 1.366 . S
C656 C660 1.385 . S
C657 H632 0.951 . S
C657 C655 1.388 . S
C657 C658 1.366 . S
C658 C657 1.366 . S
C658 C659 1.414 . S
C658 C661 1.499 . S
C659 H633 0.950 . S
C659 C658 1.414 . S
C659 C660 1.374 . S
C660 H634 0.950 . S
C660 C656 1.385 . S
C660 C659 1.374 . S
C661 C658 1.499 . S
C661 C662 1.373 . S
C661 C663 1.389 . S
C662 H635 0.950 . S
C662 C648 1.377 . S
C662 C661 1.373 . S
C663 C647 1.377 . S
C663 C661 1.389 . S
C663 C664 1.524 . S
C664 C663 1.524 . S
C664 C665 1.397 . S
C664 C669 1.363 . S
C665 H636 0.950 . S
C665 C664 1.397 . S
C665 C666 1.334 . S
C666 H637 0.950 . S
C666 C665 1.334 . S
C666 C667 1.287 . S
C667 C666 1.287 . S
C667 C668 1.524 . S
C667 H670 0.999 . S
C668 H638 0.950 . S
C668 C667 1.524 . S
C668 C669 1.415 . S
C669 H639 0.950 . S
C669 C664 1.363 . S
C669 C668 1.415 . S
H670 C667 0.999 . S
H671 C652 0.913 . S
H672 C690 0.951 . S
H673 C692 0.951 . S
H674 C694 0.950 . S
H675 C695 0.950 . S
H676 C697 0.950 . S
H677 C700 0.950 . S
H678 C701 0.950 . S
H679 C703 0.950 . S
H680 C704 0.950 . S
H681 C705 0.951 . S
H682 C707 0.951 . S
H683 C709 0.950 . S
H684 C710 0.950 . S
H685 C712 0.950 . S
H686 C715 0.950 . S
H687 C716 0.950 . S
H688 C718 0.950 . S
H689 C719 0.950 . S
C690 H672 0.951 . S
C690 C691 1.366 . S
C690 C692 1.388 . S
C691 C690 1.366 . S
C691 C695 1.385 . S
C692 H673 0.951 . S
C692 C690 1.388 . S
C692 C693 1.366 . S
C693 C692 1.366 . S
C693 C694 1.414 . S
C693 C696 1.499 . S
C694 H674 0.950 . S
C694 C693 1.414 . S
C694 C695 1.374 . S
C695 H675 0.950 . S
C695 C691 1.385 . S
C695 C694 1.374 . S
C696 C693 1.499 . S
C696 C697 1.373 . S
C696 C698 1.389 . S
C697 H676 0.950 . S
C697 C696 1.373 . S
C697 C713 1.377 . S
C698 C696 1.389 . S
C698 C699 1.524 . S
C698 C712 1.377 . S
C699 C698 1.524 . S
C699 C700 1.397 . S
C699 C704 1.363 . S
C700 H677 0.950 . S
C700 C699 1.397 . S
C700 C701 1.334 . S
C701 H678 0.950 . S
C701 C700 1.334 . S
C701 C702 1.287 . S
C702 C701 1.287 . S
C702 C703 1.524 . S
C702 H721 0.913 1_556 S
C703 H679 0.950 . S
C703 C702 1.524 . S
C703 C704 1.415 . S
C704 H680 0.950 . S
C704 C699 1.363 . S
C704 C703 1.415 . S
C705 H681 0.951 . S
C705 C706 1.366 . S
C705 C707 1.388 . S
C706 C705 1.366 . S
C706 C710 1.385 . S
C707 H682 0.951 . S
C707 C705 1.388 . S
C707 C708 1.366 . S
C708 C707 1.366 . S
C708 C709 1.414 . S
C708 C711 1.499 . S
C709 H683 0.950 . S
C709 C708 1.414 . S
C709 C710 1.374 . S
C710 H684 0.950 . S
C710 C706 1.385 . S
C710 C709 1.374 . S
C711 C708 1.499 . S
C711 C712 1.373 . S
C711 C713 1.389 . S
C712 H685 0.950 . S
C712 C698 1.377 . S
C712 C711 1.373 . S
C713 C697 1.377 . S
C713 C711 1.389 . S
C713 C714 1.524 . S
C714 C713 1.524 . S
C714 C715 1.397 . S
C714 C719 1.363 . S
C715 H686 0.950 . S
C715 C714 1.397 . S
C715 C716 1.334 . S
C716 H687 0.950 . S
C716 C715 1.334 . S
C716 C717 1.287 . S
C717 C716 1.287 . S
C717 C718 1.524 . S
C717 H720 0.999 . S
C718 H688 0.950 . S
C718 C717 1.524 . S
C718 C719 1.415 . S
C719 H689 0.950 . S
C719 C714 1.363 . S
C719 C718 1.415 . S
H720 C717 0.999 . S
H721 C702 0.913 1_554 S
H722 C740 0.951 . S
H723 C742 0.951 . S
H724 C744 0.950 . S
H725 C745 0.950 . S
H726 C747 0.950 . S
H727 C750 0.950 . S
H728 C751 0.950 . S
H729 C753 0.950 . S
H730 C754 0.950 . S
H731 C755 0.951 . S
H732 C757 0.951 . S
H733 C759 0.950 . S
H734 C760 0.950 . S
H735 C762 0.950 . S
H736 C765 0.950 . S
H737 C766 0.950 . S
H738 C768 0.950 . S
H739 C769 0.950 . S
C740 H722 0.951 . S
C740 C741 1.366 . S
C740 C742 1.388 . S
C741 C740 1.366 . S
C741 C745 1.385 . S
C742 H723 0.951 . S
C742 C740 1.388 . S
C742 C743 1.366 . S
C743 C742 1.366 . S
C743 C744 1.414 . S
C743 C746 1.499 . S
C744 H724 0.950 . S
C744 C743 1.414 . S
C744 C745 1.374 . S
C745 H725 0.950 . S
C745 C741 1.385 . S
C745 C744 1.374 . S
C746 C743 1.499 . S
C746 C747 1.373 . S
C746 C748 1.389 . S
C747 H726 0.950 . S
C747 C746 1.373 . S
C747 C763 1.377 . S
C748 C746 1.389 . S
C748 C749 1.524 . S
C748 C762 1.377 . S
C749 C748 1.524 . S
C749 C750 1.397 . S
C749 C754 1.363 . S
C750 H727 0.950 . S
C750 C749 1.397 . S
C750 C751 1.334 . S
C751 H728 0.950 . S
C751 C750 1.334 . S
C751 C752 1.287 . S
C752 C751 1.287 . S
C752 C753 1.524 . S
C752 H771 0.913 . S
C753 H729 0.950 . S
C753 C752 1.524 . S
C753 C754 1.415 . S
C754 H730 0.950 . S
C754 C749 1.363 . S
C754 C753 1.415 . S
C755 H731 0.951 . S
C755 C756 1.366 . S
C755 C757 1.388 . S
C756 C755 1.366 . S
C756 C760 1.385 . S
C757 H732 0.951 . S
C757 C755 1.388 . S
C757 C758 1.366 . S
C758 C757 1.366 . S
C758 C759 1.414 . S
C758 C761 1.499 . S
C759 H733 0.950 . S
C759 C758 1.414 . S
C759 C760 1.374 . S
C760 H734 0.950 . S
C760 C756 1.385 . S
C760 C759 1.374 . S
C761 C758 1.499 . S
C761 C762 1.373 . S
C761 C763 1.389 . S
C762 H735 0.950 . S
C762 C748 1.377 . S
C762 C761 1.373 . S
C763 C747 1.377 . S
C763 C761 1.389 . S
C763 C764 1.524 . S
C764 C763 1.524 . S
C764 C765 1.397 . S
C764 C769 1.363 . S
C765 H736 0.950 . S
C765 C764 1.397 . S
C765 C766 1.334 . S
C766 H737 0.950 . S
C766 C765 1.334 . S
C766 C767 1.287 . S
C767 C766 1.287 . S
C767 C768 1.524 . S
C767 H770 0.999 . S
C768 H738 0.950 . S
C768 C767 1.524 . S
C768 C769 1.415 . S
C769 H739 0.950 . S
C769 C764 1.363 . S
C769 C768 1.415 . S
H770 C767 0.999 . S
H771 C752 0.913 . S
H772 C790 0.951 . S
H773 C792 0.951 . S
H774 C794 0.950 . S
H775 C795 0.950 . S
H776 C797 0.950 . S
H777 C800 0.950 . S
H778 C801 0.950 . S
H779 C803 0.950 . S
H780 C804 0.950 . S
H781 C805 0.951 . S
H782 C807 0.951 . S
H783 C809 0.950 . S
H784 C810 0.950 . S
H785 C812 0.950 . S
H786 C815 0.950 . S
H787 C816 0.950 . S
H788 C818 0.950 . S
H789 C819 0.950 . S
C790 H772 0.951 . S
C790 C791 1.366 . S
C790 C792 1.388 . S
C791 C790 1.366 . S
C791 C795 1.385 . S
C792 H773 0.951 . S
C792 C790 1.388 . S
C792 C793 1.366 . S
C793 C792 1.366 . S
C793 C794 1.414 . S
C793 C796 1.499 . S
C794 H774 0.950 . S
C794 C793 1.414 . S
C794 C795 1.374 . S
C795 H775 0.950 . S
C795 C791 1.385 . S
C795 C794 1.374 . S
C796 C793 1.499 . S
C796 C797 1.373 . S
C796 C798 1.389 . S
C797 H776 0.950 . S
C797 C796 1.373 . S
C797 C813 1.377 . S
C798 C796 1.389 . S
C798 C799 1.524 . S
C798 C812 1.377 . S
C799 C798 1.524 . S
C799 C800 1.397 . S
C799 C804 1.363 . S
C800 H777 0.950 . S
C800 C799 1.397 . S
C800 C801 1.334 . S
C801 H778 0.950 . S
C801 C800 1.334 . S
C801 C802 1.287 . S
C802 C801 1.287 . S
C802 C803 1.524 . S
C802 H821 0.913 . S
C803 H779 0.950 . S
C803 C802 1.524 . S
C803 C804 1.415 . S
C804 H780 0.950 . S
C804 C799 1.363 . S
C804 C803 1.415 . S
C805 H781 0.951 . S
C805 C806 1.366 . S
C805 C807 1.388 . S
C806 C805 1.366 . S
C806 C810 1.385 . S
C807 H782 0.951 . S
C807 C805 1.388 . S
C807 C808 1.366 . S
C808 C807 1.366 . S
C808 C809 1.414 . S
C808 C811 1.499 . S
C809 H783 0.950 . S
C809 C808 1.414 . S
C809 C810 1.374 . S
C810 H784 0.950 . S
C810 C806 1.385 . S
C810 C809 1.374 . S
C811 C808 1.499 . S
C811 C812 1.373 . S
C811 C813 1.389 . S
C812 H785 0.950 . S
C812 C798 1.377 . S
C812 C811 1.373 . S
C813 C797 1.377 . S
C813 C811 1.389 . S
C813 C814 1.524 . S
C814 C813 1.524 . S
C814 C815 1.397 . S
C814 C819 1.363 . S
C815 H786 0.950 . S
C815 C814 1.397 . S
C815 C816 1.334 . S
C816 H787 0.950 . S
C816 C815 1.334 . S
C816 C817 1.287 . S
C817 C816 1.287 . S
C817 C818 1.524 . S
C817 H820 0.999 . S
C818 H788 0.950 . S
C818 C817 1.524 . S
C818 C819 1.415 . S
C819 H789 0.950 . S
C819 C814 1.363 . S
C819 C818 1.415 . S
H820 C817 0.999 . S
H821 C802 0.913 . S
H822 C840 0.951 . S
H823 C842 0.951 . S
H824 C844 0.950 . S
H825 C845 0.950 . S
H826 C847 0.950 . S
H827 C850 0.950 . S
H828 C851 0.950 . S
H829 C853 0.950 . S
H830 C854 0.950 . S
H831 C855 0.951 . S
H832 C857 0.951 . S
H833 C859 0.950 . S
H834 C860 0.950 . S
H835 C862 0.950 . S
H836 C865 0.950 . S
H837 C866 0.950 . S
H838 C868 0.950 . S
H839 C869 0.950 . S
C840 H822 0.951 . S
C840 C841 1.366 . S
C840 C842 1.388 . S
C841 C840 1.366 . S
C841 C845 1.385 . S
C842 H823 0.951 . S
C842 C840 1.388 . S
C842 C843 1.366 . S
C843 C842 1.366 . S
C843 C844 1.414 . S
C843 C846 1.499 . S
C844 H824 0.950 . S
C844 C843 1.414 . S
C844 C845 1.374 . S
C845 H825 0.950 . S
C845 C841 1.385 . S
C845 C844 1.374 . S
C846 C843 1.499 . S
C846 C847 1.373 . S
C846 C848 1.389 . S
C847 H826 0.950 . S
C847 C846 1.373 . S
C847 C863 1.377 . S
C848 C846 1.389 . S
C848 C849 1.524 . S
C848 C862 1.377 . S
C849 C848 1.524 . S
C849 C850 1.397 . S
C849 C854 1.363 . S
C850 H827 0.950 . S
C850 C849 1.397 . S
C850 C851 1.334 . S
C851 H828 0.950 . S
C851 C850 1.334 . S
C851 C852 1.287 . S
C852 C851 1.287 . S
C852 C853 1.524 . S
C852 H871 0.913 . S
C853 H829 0.950 . S
C853 C852 1.524 . S
C853 C854 1.415 . S
C854 H830 0.950 . S
C854 C849 1.363 . S
C854 C853 1.415 . S
C855 H831 0.951 . S
C855 C856 1.366 . S
C855 C857 1.388 . S
C856 C855 1.366 . S
C856 C860 1.385 . S
C857 H832 0.951 . S
C857 C855 1.388 . S
C857 C858 1.366 . S
C858 C857 1.366 . S
C858 C859 1.414 . S
C858 C861 1.499 . S
C859 H833 0.950 . S
C859 C858 1.414 . S
C859 C860 1.374 . S
C860 H834 0.950 . S
C860 C856 1.385 . S
C860 C859 1.374 . S
C861 C858 1.499 . S
C861 C862 1.373 . S
C861 C863 1.389 . S
C862 H835 0.950 . S
C862 C848 1.377 . S
C862 C861 1.373 . S
C863 C847 1.377 . S
C863 C861 1.389 . S
C863 C864 1.524 . S
C864 C863 1.524 . S
C864 C865 1.397 . S
C864 C869 1.363 . S
C865 H836 0.950 . S
C865 C864 1.397 . S
C865 C866 1.334 . S
C866 H837 0.950 . S
C866 C865 1.334 . S
C866 C867 1.287 . S
C867 C866 1.287 . S
C867 C868 1.524 . S
C867 H870 0.999 . S
C868 H838 0.950 . S
C868 C867 1.524 . S
C868 C869 1.415 . S
C869 H839 0.950 . S
C869 C864 1.363 . S
C869 C868 1.415 . S
H870 C867 0.999 . S
H871 C852 0.913 . S
H872 C890 0.951 . S
H873 C892 0.951 . S
H874 C894 0.950 . S
H875 C895 0.950 . S
H876 C897 0.950 . S
H877 C900 0.950 . S
H878 C901 0.950 . S
H879 C903 0.950 . S
H880 C904 0.950 . S
H881 C905 0.951 . S
H882 C907 0.951 . S
H883 C909 0.950 . S
H884 C910 0.950 . S
H885 C912 0.950 . S
H886 C915 0.950 . S
H887 C916 0.950 . S
H888 C918 0.950 . S
H889 C919 0.950 . S
C890 H872 0.951 . S
C890 C891 1.366 . S
C890 C892 1.388 . S
C891 C890 1.366 . S
C891 C895 1.385 . S
C892 H873 0.951 . S
C892 C890 1.388 . S
C892 C893 1.366 . S
C893 C892 1.366 . S
C893 C894 1.414 . S
C893 C896 1.499 . S
C894 H874 0.950 . S
C894 C893 1.414 . S
C894 C895 1.374 . S
C895 H875 0.950 . S
C895 C891 1.385 . S
C895 C894 1.374 . S
C896 C893 1.499 . S
C896 C897 1.373 . S
C896 C898 1.389 . S
C897 H876 0.950 . S
C897 C896 1.373 . S
C897 C913 1.377 . S
C898 C896 1.389 . S
C898 C899 1.524 . S
C898 C912 1.377 . S
C899 C898 1.524 . S
C899 C900 1.397 . S
C899 C904 1.363 . S
C900 H877 0.950 . S
C900 C899 1.397 . S
C900 C901 1.334 . S
C901 H878 0.950 . S
C901 C900 1.334 . S
C901 C902 1.287 . S
C902 C901 1.287 . S
C902 C903 1.524 . S
C902 H921 0.913 . S
C903 H879 0.950 . S
C903 C902 1.524 . S
C903 C904 1.415 . S
C904 H880 0.950 . S
C904 C899 1.363 . S
C904 C903 1.415 . S
C905 H881 0.951 . S
C905 C906 1.366 . S
C905 C907 1.388 . S
C906 C905 1.366 . S
C906 C910 1.385 . S
C907 H882 0.951 . S
C907 C905 1.388 . S
C907 C908 1.366 . S
C908 C907 1.366 . S
C908 C909 1.414 . S
C908 C911 1.499 . S
C909 H883 0.950 . S
C909 C908 1.414 . S
C909 C910 1.374 . S
C910 H884 0.950 . S
C910 C906 1.385 . S
C910 C909 1.374 . S
C911 C908 1.499 . S
C911 C912 1.373 . S
C911 C913 1.389 . S
C912 H885 0.950 . S
C912 C898 1.377 . S
C912 C911 1.373 . S
C913 C897 1.377 . S
C913 C911 1.389 . S
C913 C914 1.524 . S
C914 C913 1.524 . S
C914 C915 1.397 . S
C914 C919 1.363 . S
C915 H886 0.950 . S
C915 C914 1.397 . S
C915 C916 1.334 . S
C916 H887 0.950 . S
C916 C915 1.334 . S
C916 C917 1.287 . S
C917 C916 1.287 . S
C917 C918 1.524 . S
C917 H920 0.999 . S
C918 H888 0.950 . S
C918 C917 1.524 . S
C918 C919 1.415 . S
C919 H889 0.950 . S
C919 C914 1.363 . S
C919 C918 1.415 . S
H920 C917 0.999 . S
H921 C902 0.913 . S
H922 C940 0.951 . S
H923 C942 0.951 . S
H924 C944 0.950 . S
H925 C945 0.950 . S
H926 C947 0.950 . S
H927 C950 0.950 . S
H928 C951 0.950 . S
H929 C953 0.950 . S
H930 C954 0.950 . S
H931 C955 0.951 . S
H932 C957 0.951 . S
H933 C959 0.950 . S
H934 C960 0.950 . S
H935 C962 0.950 . S
H936 C965 0.950 . S
H937 C966 0.950 . S
H938 C968 0.950 . S
H939 C969 0.950 . S
C940 H922 0.951 . S
C940 C941 1.366 . S
C940 C942 1.388 . S
C941 C940 1.366 . S
C941 C945 1.385 . S
C942 H923 0.951 . S
C942 C940 1.388 . S
C942 C943 1.366 . S
C943 C942 1.366 . S
C943 C944 1.414 . S
C943 C946 1.499 . S
C944 H924 0.950 . S
C944 C943 1.414 . S
C944 C945 1.374 . S
C945 H925 0.950 . S
C945 C941 1.385 . S
C945 C944 1.374 . S
C946 C943 1.499 . S
C946 C947 1.373 . S
C946 C948 1.389 . S
C947 H926 0.950 . S
C947 C946 1.373 . S
C947 C963 1.377 . S
C948 C946 1.389 . S
C948 C949 1.524 . S
C948 C962 1.377 . S
C949 C948 1.524 . S
C949 C950 1.397 . S
C949 C954 1.363 . S
C950 H927 0.950 . S
C950 C949 1.397 . S
C950 C951 1.334 . S
C951 H928 0.950 . S
C951 C950 1.334 . S
C951 C952 1.287 . S
C952 C951 1.287 . S
C952 C953 1.524 . S
C952 H971 0.913 . S
C953 H929 0.950 . S
C953 C952 1.524 . S
C953 C954 1.415 . S
C954 H930 0.950 . S
C954 C949 1.363 . S
C954 C953 1.415 . S
C955 H931 0.951 . S
C955 C956 1.366 . S
C955 C957 1.388 . S
C956 C955 1.366 . S
C956 C960 1.385 . S
C957 H932 0.951 . S
C957 C955 1.388 . S
C957 C958 1.366 . S
C958 C957 1.366 . S
C958 C959 1.414 . S
C958 C961 1.499 . S
C959 H933 0.950 . S
C959 C958 1.414 . S
C959 C960 1.374 . S
C960 H934 0.950 . S
C960 C956 1.385 . S
C960 C959 1.374 . S
C961 C958 1.499 . S
C961 C962 1.373 . S
C961 C963 1.389 . S
C962 H935 0.950 . S
C962 C948 1.377 . S
C962 C961 1.373 . S
C963 C947 1.377 . S
C963 C961 1.389 . S
C963 C964 1.524 . S
C964 C963 1.524 . S
C964 C965 1.397 . S
C964 C969 1.363 . S
C965 H936 0.950 . S
C965 C964 1.397 . S
C965 C966 1.334 . S
C966 H937 0.950 . S
C966 C965 1.334 . S
C966 C967 1.287 . S
C967 C966 1.287 . S
C967 C968 1.524 . S
C967 H970 0.999 . S
C968 H938 0.950 . S
C968 C967 1.524 . S
C968 C969 1.415 . S
C969 H939 0.950 . S
C969 C964 1.363 . S
C969 C968 1.415 . S
H970 C967 0.999 . S
H971 C952 0.913 . S
H972 C990 0.951 . S
H973 C992 0.951 . S
H974 C994 0.950 . S
H975 C995 0.950 . S
H976 C997 0.950 . S
H977 C1000 0.950 . S
H978 C1001 0.950 . S
H979 C1003 0.950 . S
H980 C1004 0.950 . S
H981 C1005 0.951 . S
H982 C1007 0.951 . S
H983 C1009 0.950 . S
H984 C1010 0.950 . S
H985 C1012 0.950 . S
H986 C1015 0.950 . S
H987 C1016 0.950 . S
H988 C1018 0.950 . S
H989 C1019 0.950 . S
C990 H972 0.951 . S
C990 C991 1.366 . S
C990 C992 1.388 . S
C991 C990 1.366 . S
C991 C995 1.385 . S
C992 H973 0.951 . S
C992 C990 1.388 . S
C992 C993 1.366 . S
C993 C992 1.366 . S
C993 C994 1.414 . S
C993 C996 1.499 . S
C994 H974 0.950 . S
C994 C993 1.414 . S
C994 C995 1.374 . S
C995 H975 0.950 . S
C995 C991 1.385 . S
C995 C994 1.374 . S
C996 C993 1.499 . S
C996 C997 1.373 . S
C996 C998 1.389 . S
C997 H976 0.950 . S
C997 C996 1.373 . S
C997 C1013 1.377 . S
C998 C996 1.389 . S
C998 C999 1.524 . S
C998 C1012 1.377 . S
C999 C998 1.524 . S
C999 C1000 1.397 . S
C999 C1004 1.363 . S
C1000 H977 0.950 . S
C1000 C999 1.397 . S
C1000 C1001 1.334 . S
C1001 H978 0.950 . S
C1001 C1000 1.334 . S
C1001 C1002 1.287 . S
C1002 C1001 1.287 . S
C1002 C1003 1.524 . S
C1002 H1021 0.913 . S
C1003 H979 0.950 . S
C1003 C1002 1.524 . S
C1003 C1004 1.415 . S
C1004 H980 0.950 . S
C1004 C999 1.363 . S
C1004 C1003 1.415 . S
C1005 H981 0.951 . S
C1005 C1006 1.366 . S
C1005 C1007 1.388 . S
C1006 C1005 1.366 . S
C1006 C1010 1.385 . S
C1007 H982 0.951 . S
C1007 C1005 1.388 . S
C1007 C1008 1.366 . S
C1008 C1007 1.366 . S
C1008 C1009 1.414 . S
C1008 C1011 1.499 . S
C1009 H983 0.950 . S
C1009 C1008 1.414 . S
C1009 C1010 1.374 . S
C1010 H984 0.950 . S
C1010 C1006 1.385 . S
C1010 C1009 1.374 . S
C1011 C1008 1.499 . S
C1011 C1012 1.373 . S
C1011 C1013 1.389 . S
C1012 H985 0.950 . S
C1012 C998 1.377 . S
C1012 C1011 1.373 . S
C1013 C997 1.377 . S
C1013 C1011 1.389 . S
C1013 C1014 1.524 . S
C1014 C1013 1.524 . S
C1014 C1015 1.397 . S
C1014 C1019 1.363 . S
C1015 H986 0.950 . S
C1015 C1014 1.397 . S
C1015 C1016 1.334 . S
C1016 H987 0.950 . S
C1016 C1015 1.334 . S
C1016 C1017 1.287 . S
C1017 C1016 1.287 . S
C1017 C1018 1.524 . S
C1017 H1020 0.999 . S
C1018 H988 0.950 . S
C1018 C1017 1.524 . S
C1018 C1019 1.415 . S
C1019 H989 0.950 . S
C1019 C1014 1.363 . S
C1019 C1018 1.415 . S
H1020 C1017 0.999 . S
H1021 C1002 0.913 . S
H1022 C1040 0.951 . S
H1023 C1042 0.951 . S
H1024 C1044 0.950 . S
H1025 C1045 0.950 . S
H1026 C1047 0.950 . S
H1027 C1050 0.950 . S
H1028 C1051 0.950 . S
H1029 C1053 0.950 . S
H1030 C1054 0.950 . S
H1031 C1055 0.951 . S
H1032 C1057 0.951 . S
H1033 C1059 0.950 . S
H1034 C1060 0.950 . S
H1035 C1062 0.950 . S
H1036 C1065 0.950 . S
H1037 C1066 0.950 . S
H1038 C1068 0.950 . S
H1039 C1069 0.950 . S
C1040 H1022 0.951 . S
C1040 C1041 1.366 . S
C1040 C1042 1.388 . S
C1041 C1040 1.366 . S
C1041 C1045 1.385 . S
C1042 H1023 0.951 . S
C1042 C1040 1.388 . S
C1042 C1043 1.366 . S
C1043 C1042 1.366 . S
C1043 C1044 1.414 . S
C1043 C1046 1.499 . S
C1044 H1024 0.950 . S
C1044 C1043 1.414 . S
C1044 C1045 1.374 . S
C1045 H1025 0.950 . S
C1045 C1041 1.385 . S
C1045 C1044 1.374 . S
C1046 C1043 1.499 . S
C1046 C1047 1.373 . S
C1046 C1048 1.389 . S
C1047 H1026 0.950 . S
C1047 C1046 1.373 . S
C1047 C1063 1.377 . S
C1048 C1046 1.389 . S
C1048 C1049 1.524 . S
C1048 C1062 1.377 . S
C1049 C1048 1.524 . S
C1049 C1050 1.397 . S
C1049 C1054 1.363 . S
C1050 H1027 0.950 . S
C1050 C1049 1.397 . S
C1050 C1051 1.334 . S
C1051 H1028 0.950 . S
C1051 C1050 1.334 . S
C1051 C1052 1.287 . S
C1052 C1051 1.287 . S
C1052 C1053 1.524 . S
C1052 H1071 0.913 . S
C1053 H1029 0.950 . S
C1053 C1052 1.524 . S
C1053 C1054 1.415 . S
C1054 H1030 0.950 . S
C1054 C1049 1.363 . S
C1054 C1053 1.415 . S
C1055 H1031 0.951 . S
C1055 C1056 1.366 . S
C1055 C1057 1.388 . S
C1056 C1055 1.366 . S
C1056 C1060 1.385 . S
C1057 H1032 0.951 . S
C1057 C1055 1.388 . S
C1057 C1058 1.366 . S
C1058 C1057 1.366 . S
C1058 C1059 1.414 . S
C1058 C1061 1.499 . S
C1059 H1033 0.950 . S
C1059 C1058 1.414 . S
C1059 C1060 1.374 . S
C1060 H1034 0.950 . S
C1060 C1056 1.385 . S
C1060 C1059 1.374 . S
C1061 C1058 1.499 . S
C1061 C1062 1.373 . S
C1061 C1063 1.389 . S
C1062 H1035 0.950 . S
C1062 C1048 1.377 . S
C1062 C1061 1.373 . S
C1063 C1047 1.377 . S
C1063 C1061 1.389 . S
C1063 C1064 1.524 . S
C1064 C1063 1.524 . S
C1064 C1065 1.397 . S
C1064 C1069 1.363 . S
C1065 H1036 0.950 . S
C1065 C1064 1.397 . S
C1065 C1066 1.334 . S
C1066 H1037 0.950 . S
C1066 C1065 1.334 . S
C1066 C1067 1.287 . S
C1067 C1066 1.287 . S
C1067 C1068 1.524 . S
C1067 H1070 0.999 . S
C1068 H1038 0.950 . S
C1068 C1067 1.524 . S
C1068 C1069 1.415 . S
C1069 H1039 0.950 . S
C1069 C1064 1.363 . S
C1069 C1068 1.415 . S
H1070 C1067 0.999 . S
H1071 C1052 0.913 . S
H1072 C1090 0.951 . S
H1073 C1092 0.951 . S
H1074 C1094 0.950 . S
H1075 C1095 0.950 . S
H1076 C1097 0.950 . S
H1077 C1100 0.950 . S
H1078 C1101 0.950 . S
H1079 C1103 0.950 . S
H1080 C1104 0.950 . S
H1081 C1105 0.951 . S
H1082 C1107 0.951 . S
H1083 C1109 0.950 . S
H1084 C1110 0.950 . S
H1085 C1112 0.950 . S
H1086 C1115 0.950 . S
H1087 C1116 0.950 . S
H1088 C1118 0.950 . S
H1089 C1119 0.950 . S
C1090 H1072 0.951 . S
C1090 C1091 1.366 . S
C1090 C1092 1.388 . S
C1091 C1090 1.366 . S
C1091 C1095 1.385 . S
C1092 H1073 0.951 . S
C1092 C1090 1.388 . S
C1092 C1093 1.366 . S
C1093 C1092 1.366 . S
C1093 C1094 1.414 . S
C1093 C1096 1.499 . S
C1094 H1074 0.950 . S
C1094 C1093 1.414 . S
C1094 C1095 1.374 . S
C1095 H1075 0.950 . S
C1095 C1091 1.385 . S
C1095 C1094 1.374 . S
C1096 C1093 1.499 . S
C1096 C1097 1.373 . S
C1096 C1098 1.389 . S
C1097 H1076 0.950 . S
C1097 C1096 1.373 . S
C1097 C1113 1.377 . S
C1098 C1096 1.389 . S
C1098 C1099 1.524 . S
C1098 C1112 1.377 . S
C1099 C1098 1.524 . S
C1099 C1100 1.397 . S
C1099 C1104 1.363 . S
C1100 H1077 0.950 . S
C1100 C1099 1.397 . S
C1100 C1101 1.334 . S
C1101 H1078 0.950 . S
C1101 C1100 1.334 . S
C1101 C1102 1.287 . S
C1102 C1101 1.287 . S
C1102 C1103 1.524 . S
C1102 H1121 0.913 . S
C1103 H1079 0.950 . S
C1103 C1102 1.524 . S
C1103 C1104 1.415 . S
C1104 H1080 0.950 . S
C1104 C1099 1.363 . S
C1104 C1103 1.415 . S
C1105 H1081 0.951 . S
C1105 C1106 1.366 . S
C1105 C1107 1.388 . S
C1106 C1105 1.366 . S
C1106 C1110 1.385 . S
C1107 H1082 0.951 . S
C1107 C1105 1.388 . S
C1107 C1108 1.366 . S
C1108 C1107 1.366 . S
C1108 C1109 1.414 . S
C1108 C1111 1.499 . S
C1109 H1083 0.950 . S
C1109 C1108 1.414 . S
C1109 C1110 1.374 . S
C1110 H1084 0.950 . S
C1110 C1106 1.385 . S
C1110 C1109 1.374 . S
C1111 C1108 1.499 . S
C1111 C1112 1.373 . S
C1111 C1113 1.389 . S
C1112 H1085 0.950 . S
C1112 C1098 1.377 . S
C1112 C1111 1.373 . S
C1113 C1097 1.377 . S
C1113 C1111 1.389 . S
C1113 C1114 1.524 . S
C1114 C1113 1.524 . S
C1114 C1115 1.397 . S
C1114 C1119 1.363 . S
C1115 H1086 0.950 . S
C1115 C1114 1.397 . S
C1115 C1116 1.334 . S
C1116 H1087 0.950 . S
C1116 C1115 1.334 . S
C1116 C1117 1.287 . S
C1117 C1116 1.287 . S
C1117 C1118 1.524 . S
C1117 H1120 0.999 . S
C1118 H1088 0.950 . S
C1118 C1117 1.524 . S
C1118 C1119 1.415 . S
C1119 H1089 0.950 . S
C1119 C1114 1.363 . S
C1119 C1118 1.415 . S
H1120 C1117 0.999 . S
H1121 C1102 0.913 . S
H1122 C1140 0.951 . S
H1123 C1142 0.951 . S
H1124 C1144 0.950 . S
H1125 C1145 0.950 . S
H1126 C1147 0.950 . S
H1127 C1150 0.950 . S
H1128 C1151 0.950 . S
H1129 C1153 0.950 . S
H1130 C1154 0.950 . S
H1131 C1155 0.951 . S
H1132 C1157 0.951 . S
H1133 C1159 0.950 . S
H1134 C1160 0.950 . S
H1135 C1162 0.950 . S
H1136 C1165 0.950 . S
H1137 C1166 0.950 . S
H1138 C1168 0.950 . S
H1139 C1169 0.950 . S
C1140 H1122 0.951 . S
C1140 C1141 1.366 . S
C1140 C1142 1.388 . S
C1141 C1140 1.366 . S
C1141 C1145 1.385 . S
C1142 H1123 0.951 . S
C1142 C1140 1.388 . S
C1142 C1143 1.366 . S
C1143 C1142 1.366 . S
C1143 C1144 1.414 . S
C1143 C1146 1.499 . S
C1144 H1124 0.950 . S
C1144 C1143 1.414 . S
C1144 C1145 1.374 . S
C1145 H1125 0.950 . S
C1145 C1141 1.385 . S
C1145 C1144 1.374 . S
C1146 C1143 1.499 . S
C1146 C1147 1.373 . S
C1146 C1148 1.389 . S
C1147 H1126 0.950 . S
C1147 C1146 1.373 . S
C1147 C1163 1.377 . S
C1148 C1146 1.389 . S
C1148 C1149 1.524 . S
C1148 C1162 1.377 . S
C1149 C1148 1.524 . S
C1149 C1150 1.397 . S
C1149 C1154 1.363 . S
C1150 H1127 0.950 . S
C1150 C1149 1.397 . S
C1150 C1151 1.334 . S
C1151 H1128 0.950 . S
C1151 C1150 1.334 . S
C1151 C1152 1.287 . S
C1152 C1151 1.287 . S
C1152 C1153 1.524 . S
C1152 H1171 0.913 . S
C1153 H1129 0.950 . S
C1153 C1152 1.524 . S
C1153 C1154 1.415 . S
C1154 H1130 0.950 . S
C1154 C1149 1.363 . S
C1154 C1153 1.415 . S
C1155 H1131 0.951 . S
C1155 C1156 1.366 . S
C1155 C1157 1.388 . S
C1156 C1155 1.366 . S
C1156 C1160 1.385 . S
C1157 H1132 0.951 . S
C1157 C1155 1.388 . S
C1157 C1158 1.366 . S
C1158 C1157 1.366 . S
C1158 C1159 1.414 . S
C1158 C1161 1.499 . S
C1159 H1133 0.950 . S
C1159 C1158 1.414 . S
C1159 C1160 1.374 . S
C1160 H1134 0.950 . S
C1160 C1156 1.385 . S
C1160 C1159 1.374 . S
C1161 C1158 1.499 . S
C1161 C1162 1.373 . S
C1161 C1163 1.389 . S
C1162 H1135 0.950 . S
C1162 C1148 1.377 . S
C1162 C1161 1.373 . S
C1163 C1147 1.377 . S
C1163 C1161 1.389 . S
C1163 C1164 1.524 . S
C1164 C1163 1.524 . S
C1164 C1165 1.397 . S
C1164 C1169 1.363 . S
C1165 H1136 0.950 . S
C1165 C1164 1.397 . S
C1165 C1166 1.334 . S
C1166 H1137 0.950 . S
C1166 C1165 1.334 . S
C1166 C1167 1.287 . S
C1167 C1166 1.287 . S
C1167 C1168 1.524 . S
C1167 H1170 0.999 . S
C1168 H1138 0.950 . S
C1168 C1167 1.524 . S
C1168 C1169 1.415 . S
C1169 H1139 0.950 . S
C1169 C1164 1.363 . S
C1169 C1168 1.415 . S
H1170 C1167 0.999 . S
H1171 C1152 0.913 . S
H1172 C1190 0.951 . S
H1173 C1192 0.951 . S
H1174 C1194 0.950 . S
H1175 C1195 0.950 . S
H1176 C1197 0.950 . S
H1177 C1200 0.950 . S
H1178 C1201 0.950 . S
H1179 C1203 0.950 . S
H1180 C1204 0.950 . S
H1181 C1205 0.951 . S
H1182 C1207 0.951 . S
H1183 C1209 0.950 . S
H1184 C1210 0.950 . S
H1185 C1212 0.950 . S
H1186 C1215 0.950 . S
H1187 C1216 0.950 . S
H1188 C1218 0.950 . S
H1189 C1219 0.950 . S
C1190 H1172 0.951 . S
C1190 C1191 1.366 . S
C1190 C1192 1.388 . S
C1191 C1190 1.366 . S
C1191 C1195 1.385 . S
C1192 H1173 0.951 . S
C1192 C1190 1.388 . S
C1192 C1193 1.366 . S
C1193 C1192 1.366 . S
C1193 C1194 1.414 . S
C1193 C1196 1.499 . S
C1194 H1174 0.950 . S
C1194 C1193 1.414 . S
C1194 C1195 1.374 . S
C1195 H1175 0.950 . S
C1195 C1191 1.385 . S
C1195 C1194 1.374 . S
C1196 C1193 1.499 . S
C1196 C1197 1.373 . S
C1196 C1198 1.389 . S
C1197 H1176 0.950 . S
C1197 C1196 1.373 . S
C1197 C1213 1.377 . S
C1198 C1196 1.389 . S
C1198 C1199 1.524 . S
C1198 C1212 1.377 . S
C1199 C1198 1.524 . S
C1199 C1200 1.397 . S
C1199 C1204 1.363 . S
C1200 H1177 0.950 . S
C1200 C1199 1.397 . S
C1200 C1201 1.334 . S
C1201 H1178 0.950 . S
C1201 C1200 1.334 . S
C1201 C1202 1.287 . S
C1202 C1201 1.287 . S
C1202 C1203 1.524 . S
C1202 H1221 0.913 . S
C1203 H1179 0.950 . S
C1203 C1202 1.524 . S
C1203 C1204 1.415 . S
C1204 H1180 0.950 . S
C1204 C1199 1.363 . S
C1204 C1203 1.415 . S
C1205 H1181 0.951 . S
C1205 C1206 1.366 . S
C1205 C1207 1.388 . S
C1206 C1205 1.366 . S
C1206 C1210 1.385 . S
C1207 H1182 0.951 . S
C1207 C1205 1.388 . S
C1207 C1208 1.366 . S
C1208 C1207 1.366 . S
C1208 C1209 1.414 . S
C1208 C1211 1.499 . S
C1209 H1183 0.950 . S
C1209 C1208 1.414 . S
C1209 C1210 1.374 . S
C1210 H1184 0.950 . S
C1210 C1206 1.385 . S
C1210 C1209 1.374 . S
C1211 C1208 1.499 . S
C1211 C1212 1.373 . S
C1211 C1213 1.389 . S
C1212 H1185 0.950 . S
C1212 C1198 1.377 . S
C1212 C1211 1.373 . S
C1213 C1197 1.377 . S
C1213 C1211 1.389 . S
C1213 C1214 1.524 . S
C1214 C1213 1.524 . S
C1214 C1215 1.397 . S
C1214 C1219 1.363 . S
C1215 H1186 0.950 . S
C1215 C1214 1.397 . S
C1215 C1216 1.334 . S
C1216 H1187 0.950 . S
C1216 C1215 1.334 . S
C1216 C1217 1.287 . S
C1217 C1216 1.287 . S
C1217 C1218 1.524 . S
C1217 H1220 0.999 . S
C1218 H1188 0.950 . S
C1218 C1217 1.524 . S
C1218 C1219 1.415 . S
C1219 H1189 0.950 . S
C1219 C1214 1.363 . S
C1219 C1218 1.415 . S
H1220 C1217 0.999 . S
H1221 C1202 0.913 . S
H1222 C1240 0.951 . S
H1223 C1242 0.951 . S
H1224 C1244 0.950 . S
H1225 C1245 0.950 . S
H1226 C1247 0.950 . S
H1227 C1250 0.950 . S
H1228 C1251 0.950 . S
H1229 C1253 0.950 . S
H1230 C1254 0.950 . S
H1231 C1255 0.951 . S
H1232 C1257 0.951 . S
H1233 C1259 0.950 . S
H1234 C1260 0.950 . S
H1235 C1262 0.950 . S
H1236 C1265 0.950 . S
H1237 C1266 0.950 . S
H1238 C1268 0.950 . S
H1239 C1269 0.950 . S
C1240 H1222 0.951 . S
C1240 C1241 1.366 . S
C1240 C1242 1.388 . S
C1241 C1240 1.366 . S
C1241 C1245 1.385 . S
C1242 H1223 0.951 . S
C1242 C1240 1.388 . S
C1242 C1243 1.366 . S
C1243 C1242 1.366 . S
C1243 C1244 1.414 . S
C1243 C1246 1.499 . S
C1244 H1224 0.950 . S
C1244 C1243 1.414 . S
C1244 C1245 1.374 . S
C1245 H1225 0.950 . S
C1245 C1241 1.385 . S
C1245 C1244 1.374 . S
C1246 C1243 1.499 . S
C1246 C1247 1.373 . S
C1246 C1248 1.389 . S
C1247 H1226 0.950 . S
C1247 C1246 1.373 . S
C1247 C1263 1.377 . S
C1248 C1246 1.389 . S
C1248 C1249 1.524 . S
C1248 C1262 1.377 . S
C1249 C1248 1.524 . S
C1249 C1250 1.397 . S
C1249 C1254 1.363 . S
C1250 H1227 0.950 . S
C1250 C1249 1.397 . S
C1250 C1251 1.334 . S
C1251 H1228 0.950 . S
C1251 C1250 1.334 . S
C1251 C1252 1.287 . S
C1252 C1251 1.287 . S
C1252 C1253 1.524 . S
C1252 H1271 0.913 . S
C1253 H1229 0.950 . S
C1253 C1252 1.524 . S
C1253 C1254 1.415 . S
C1254 H1230 0.950 . S
C1254 C1249 1.363 . S
C1254 C1253 1.415 . S
C1255 H1231 0.951 . S
C1255 C1256 1.366 . S
C1255 C1257 1.388 . S
C1256 C1255 1.366 . S
C1256 C1260 1.385 . S
C1257 H1232 0.951 . S
C1257 C1255 1.388 . S
C1257 C1258 1.366 . S
C1258 C1257 1.366 . S
C1258 C1259 1.414 . S
C1258 C1261 1.499 . S
C1259 H1233 0.950 . S
C1259 C1258 1.414 . S
C1259 C1260 1.374 . S
C1260 H1234 0.950 . S
C1260 C1256 1.385 . S
C1260 C1259 1.374 . S
C1261 C1258 1.499 . S
C1261 C1262 1.373 . S
C1261 C1263 1.389 . S
C1262 H1235 0.950 . S
C1262 C1248 1.377 . S
C1262 C1261 1.373 . S
C1263 C1247 1.377 . S
C1263 C1261 1.389 . S
C1263 C1264 1.524 . S
C1264 C1263 1.524 . S
C1264 C1265 1.397 . S
C1264 C1269 1.363 . S
C1265 H1236 0.950 . S
C1265 C1264 1.397 . S
C1265 C1266 1.334 . S
C1266 H1237 0.950 . S
C1266 C1265 1.334 . S
C1266 C1267 1.287 . S
C1267 C1266 1.287 . S
C1267 C1268 1.524 . S
C1267 H1270 0.999 . S
C1268 H1238 0.950 . S
C1268 C1267 1.524 . S
C1268 C1269 1.415 . S
C1269 H1239 0.950 . S
C1269 C1264 1.363 . S
C1269 C1268 1.415 . S
H1270 C1267 0.999 . S
H1271 C1252 0.913 . S
H1272 C1290 0.951 . S
H1273 C1292 0.951 . S
H1274 C1294 0.950 . S
H1275 C1295 0.950 . S
H1276 C1297 0.950 . S
H1277 C1300 0.950 . S
H1278 C1301 0.950 . S
H1279 C1303 0.950 . S
H1280 C1304 0.950 . S
H1281 C1305 0.951 . S
H1282 C1307 0.951 . S
H1283 C1309 0.950 . S
H1284 C1310 0.950 . S
H1285 C1312 0.950 . S
H1286 C1315 0.950 . S
H1287 C1316 0.950 . S
H1288 C1318 0.950 . S
H1289 C1319 0.950 . S
C1290 H1272 0.951 . S
C1290 C1291 1.366 . S
C1290 C1292 1.388 . S
C1291 C1290 1.366 . S
C1291 C1295 1.385 . S
C1292 H1273 0.951 . S
C1292 C1290 1.388 . S
C1292 C1293 1.366 . S
C1293 C1292 1.366 . S
C1293 C1294 1.414 . S
C1293 C1296 1.499 . S
C1294 H1274 0.950 . S
C1294 C1293 1.414 . S
C1294 C1295 1.374 . S
C1295 H1275 0.950 . S
C1295 C1291 1.385 . S
C1295 C1294 1.374 . S
C1296 C1293 1.499 . S
C1296 C1297 1.373 . S
C1296 C1298 1.389 . S
C1297 H1276 0.950 . S
C1297 C1296 1.373 . S
C1297 C1313 1.377 . S
C1298 C1296 1.389 . S
C1298 C1299 1.524 . S
C1298 C1312 1.377 . S
C1299 C1298 1.524 . S
C1299 C1300 1.397 . S
C1299 C1304 1.363 . S
C1300 H1277 0.950 . S
C1300 C1299 1.397 . S
C1300 C1301 1.334 . S
C1301 H1278 0.950 . S
C1301 C1300 1.334 . S
C1301 C1302 1.287 . S
C1302 C1301 1.287 . S
C1302 C1303 1.524 . S
C1302 H1321 0.913 . S
C1303 H1279 0.950 . S
C1303 C1302 1.524 . S
C1303 C1304 1.415 . S
C1304 H1280 0.950 . S
C1304 C1299 1.363 . S
C1304 C1303 1.415 . S
C1305 H1281 0.951 . S
C1305 C1306 1.366 . S
C1305 C1307 1.388 . S
C1306 C1305 1.366 . S
C1306 C1310 1.385 . S
C1307 H1282 0.951 . S
C1307 C1305 1.388 . S
C1307 C1308 1.366 . S
C1308 C1307 1.366 . S
C1308 C1309 1.414 . S
C1308 C1311 1.499 . S
C1309 H1283 0.950 . S
C1309 C1308 1.414 . S
C1309 C1310 1.374 . S
C1310 H1284 0.950 . S
C1310 C1306 1.385 . S
C1310 C1309 1.374 . S
C1311 C1308 1.499 . S
C1311 C1312 1.373 . S
C1311 C1313 1.389 . S
C1312 H1285 0.950 . S
C1312 C1298 1.377 . S
C1312 C1311 1.373 . S
C1313 C1297 1.377 . S
C1313 C1311 1.389 . S
C1313 C1314 1.524 . S
C1314 C1313 1.524 . S
C1314 C1315 1.397 . S
C1314 C1319 1.363 . S
C1315 H1286 0.950 . S
C1315 C1314 1.397 . S
C1315 C1316 1.334 . S
C1316 H1287 0.950 . S
C1316 C1315 1.334 . S
C1316 C1317 1.287 . S
C1317 C1316 1.287 . S
C1317 C1318 1.524 . S
C1317 H1320 0.999 . S
C1318 H1288 0.950 . S
C1318 C1317 1.524 . S
C1318 C1319 1.415 . S
C1319 H1289 0.950 . S
C1319 C1314 1.363 . S
C1319 C1318 1.415 . S
H1320 C1317 0.999 . S
H1321 C1302 0.913 . S
H1322 C1340 0.951 . S
H1323 C1342 0.951 . S
H1324 C1344 0.950 . S
H1325 C1345 0.950 . S
H1326 C1347 0.950 . S
H1327 C1350 0.950 . S
H1328 C1351 0.950 . S
H1329 C1353 0.950 . S
H1330 C1354 0.950 . S
H1331 C1355 0.951 . S
H1332 C1357 0.951 . S
H1333 C1359 0.950 . S
H1334 C1360 0.950 . S
H1335 C1362 0.950 . S
H1336 C1365 0.950 . S
H1337 C1366 0.950 . S
H1338 C1368 0.950 . S
H1339 C1369 0.950 . S
C1340 H1322 0.951 . S
C1340 C1341 1.366 . S
C1340 C1342 1.388 . S
C1341 C1340 1.366 . S
C1341 C1345 1.385 . S
C1342 H1323 0.951 . S
C1342 C1340 1.388 . S
C1342 C1343 1.366 . S
C1343 C1342 1.366 . S
C1343 C1344 1.414 . S
C1343 C1346 1.499 . S
C1344 H1324 0.950 . S
C1344 C1343 1.414 . S
C1344 C1345 1.374 . S
C1345 H1325 0.950 . S
C1345 C1341 1.385 . S
C1345 C1344 1.374 . S
C1346 C1343 1.499 . S
C1346 C1347 1.373 . S
C1346 C1348 1.389 . S
C1347 H1326 0.950 . S
C1347 C1346 1.373 . S
C1347 C1363 1.377 . S
C1348 C1346 1.389 . S
C1348 C1349 1.524 . S
C1348 C1362 1.377 . S
C1349 C1348 1.524 . S
C1349 C1350 1.397 . S
C1349 C1354 1.363 . S
C1350 H1327 0.950 . S
C1350 C1349 1.397 . S
C1350 C1351 1.334 . S
C1351 H1328 0.950 . S
C1351 C1350 1.334 . S
C1351 C1352 1.287 . S
C1352 C1351 1.287 . S
C1352 C1353 1.524 . S
C1352 H1371 0.913 . S
C1353 H1329 0.950 . S
C1353 C1352 1.524 . S
C1353 C1354 1.415 . S
C1354 H1330 0.950 . S
C1354 C1349 1.363 . S
C1354 C1353 1.415 . S
C1355 H1331 0.951 . S
C1355 C1356 1.366 . S
C1355 C1357 1.388 . S
C1356 C1355 1.366 . S
C1356 C1360 1.385 . S
C1357 H1332 0.951 . S
C1357 C1355 1.388 . S
C1357 C1358 1.366 . S
C1358 C1357 1.366 . S
C1358 C1359 1.414 . S
C1358 C1361 1.499 . S
C1359 H1333 0.950 . S
C1359 C1358 1.414 . S
C1359 C1360 1.374 . S
C1360 H1334 0.950 . S
C1360 C1356 1.385 . S
C1360 C1359 1.374 . S
C1361 C1358 1.499 . S
C1361 C1362 1.373 . S
C1361 C1363 1.389 . S
C1362 H1335 0.950 . S
C1362 C1348 1.377 . S
C1362 C1361 1.373 . S
C1363 C1347 1.377 . S
C1363 C1361 1.389 . S
C1363 C1364 1.524 . S
C1364 C1363 1.524 . S
C1364 C1365 1.397 . S
C1364 C1369 1.363 . S
C1365 H1336 0.950 . S
C1365 C1364 1.397 . S
C1365 C1366 1.334 . S
C1366 H1337 0.950 . S
C1366 C1365 1.334 . S
C1366 C1367 1.287 . S
C1367 C1366 1.287 . S
C1367 C1368 1.524 . S
C1367 H1370 0.999 . S
C1368 H1338 0.950 . S
C1368 C1367 1.524 . S
C1368 C1369 1.415 . S
C1369 H1339 0.950 . S
C1369 C1364 1.363 . S
C1369 C1368 1.415 . S
H1370 C1367 0.999 . S
H1371 C1352 0.913 . S
H1372 C1390 0.951 . S
H1373 C1392 0.951 . S
H1374 C1394 0.950 . S
H1375 C1395 0.950 . S
H1376 C1397 0.950 . S
H1377 C1400 0.950 . S
H1378 C1401 0.950 . S
H1379 C1403 0.950 . S
H1380 C1404 0.950 . S
H1381 C1405 0.951 . S
H1382 C1407 0.951 . S
H1383 C1409 0.950 . S
H1384 C1410 0.950 . S
H1385 C1412 0.950 . S
H1386 C1415 0.950 . S
H1387 C1416 0.950 . S
H1388 C1418 0.950 . S
H1389 C1419 0.950 . S
C1390 H1372 0.951 . S
C1390 C1391 1.366 . S
C1390 C1392 1.388 . S
C1391 C1390 1.366 . S
C1391 C1395 1.385 . S
C1392 H1373 0.951 . S
C1392 C1390 1.388 . S
C1392 C1393 1.366 . S
C1393 C1392 1.366 . S
C1393 C1394 1.414 . S
C1393 C1396 1.499 . S
C1394 H1374 0.950 . S
C1394 C1393 1.414 . S
C1394 C1395 1.374 . S
C1395 H1375 0.950 . S
C1395 C1391 1.385 . S
C1395 C1394 1.374 . S
C1396 C1393 1.499 . S
C1396 C1397 1.373 . S
C1396 C1398 1.389 . S
C1397 H1376 0.950 . S
C1397 C1396 1.373 . S
C1397 C1413 1.377 . S
C1398 C1396 1.389 . S
C1398 C1399 1.524 . S
C1398 C1412 1.377 . S
C1399 C1398 1.524 . S
C1399 C1400 1.397 . S
C1399 C1404 1.363 . S
C1400 H1377 0.950 . S
C1400 C1399 1.397 . S
C1400 C1401 1.334 . S
C1401 H1378 0.950 . S
C1401 C1400 1.334 . S
C1401 C1402 1.287 . S
C1402 C1401 1.287 . S
C1402 C1403 1.524 . S
C1402 H1421 0.913 1_455 S
C1403 H1379 0.950 . S
C1403 C1402 1.524 . S
C1403 C1404 1.415 . S
C1404 H1380 0.950 . S
C1404 C1399 1.363 . S
C1404 C1403 1.415 . S
C1405 H1381 0.951 . S
C1405 C1406 1.366 . S
C1405 C1407 1.388 . S
C1406 C1405 1.366 . S
C1406 C1410 1.385 . S
C1407 H1382 0.951 . S
C1407 C1405 1.388 . S
C1407 C1408 1.366 . S
C1408 C1407 1.366 . S
C1408 C1409 1.414 . S
C1408 C1411 1.499 . S
C1409 H1383 0.950 . S
C1409 C1408 1.414 . S
C1409 C1410 1.374 . S
C1410 H1384 0.950 . S
C1410 C1406 1.385 . S
C1410 C1409 1.374 . S
C1411 C1408 1.499 . S
C1411 C1412 1.373 . S
C1411 C1413 1.389 . S
C1412 H1385 0.950 . S
C1412 C1398 1.377 . S
C1412 C1411 1.373 . S
C1413 C1397 1.377 . S
C1413 C1411 1.389 . S
C1413 C1414 1.524 . S
C1414 C1413 1.524 . S
C1414 C1415 1.397 . S
C1414 C1419 1.363 . S
C1415 H1386 0.950 . S
C1415 C1414 1.397 . S
C1415 C1416 1.334 . S
C1416 H1387 0.950 . S
C1416 C1415 1.334 . S
C1416 C1417 1.287 . S
C1417 C1416 1.287 . S
C1417 C1418 1.524 . S
C1417 H1420 0.999 . S
C1418 H1388 0.950 . S
C1418 C1417 1.524 . S
C1418 C1419 1.415 . S
C1419 H1389 0.950 . S
C1419 C1414 1.363 . S
C1419 C1418 1.415 . S
H1420 C1417 0.999 . S
H1421 C1402 0.913 1_655 S
C241 C7 1.815 . S
C256 C139 1.791 . S
C291 C30 1.602 . S
C306 C164 1.583 . S
C356 C167 1.655 . S
C341 N58 1.637 . S
C406 C193 1.449 . S
C391 N81 1.430 . S
C456 C194 1.731 . S
C441 C99 1.752 . S
C506 C221 1.434 . S
C491 N127 1.420 . S
C541 N25 1.640 . S
C556 C166 1.655 . S
C591 C62 1.589 . S
C606 C192 1.571 . S
C656 C195 1.745 . S
C641 C85 1.757 . S
C706 C220 1.442 . S
C691 N94 1.431 . S
C741 C131 1.778 . S
C756 C138 1.758 . S
C806 C165 1.458 . S
C791 N2 1.445 . S
C856 C180 1.753 . S
C841 C16 1.766 . S
C891 C39 1.567 . S
C906 C207 1.560 . S
C956 C208 1.650 . S
C941 N48 1.629 . S
C991 N71 1.438 . S
C1006 C150 1.456 . S
C1041 C108 1.755 . S
C1056 C153 1.746 . S
C1091 N117 1.414 . S
C1106 C178 1.434 . S
C1141 N35 1.633 . S
C1156 C209 1.654 . S
C1206 C151 1.586 . S
C1191 C53 1.601 . S
C1241 C76 1.799 . S
C1256 C152 1.782 . S
C1291 N104 1.417 . S
C1306 C179 1.434 . S
C1341 C122 1.749 . S
C1356 C181 1.733 . S
C1391 N12 1.416 . S
C1406 C206 1.435 . S
