# Generated by pormake.
# Topology pts, (4,4)-cn, num edge types: 1
# Building blocks:
#     Node 0, Type 0, BuildingBlock: MUDLON_clean_sbu_0, # of connection points: 4
#     Node 1, Type 0, BuildingBlock: MUDLON_clean_sbu_0, # of connection points: 4
#     Node 2, Type 1, BuildingBlock: QUQFOY_clean_sbu_1, # of connection points: 4
#     Node 3, Type 1, BuildingBlock: QUQFOY_clean_sbu_1, # of connection points: 4
#     Edge 4, Type (0, 1), BuildingBlock: TEMPAE_clean_linker_10, # of connection points: 2
#     Edge 5, Type (0, 1), BuildingBlock: TEMPAE_clean_linker_10, # of connection points: 2
#     Edge 6, Type (0, 1), BuildingBlock: TEMPAE_clean_linker_10, # of connection points: 2
#     Edge 7, Type (0, 1), BuildingBlock: TEMPAE_clean_linker_10, # of connection points: 2
#     Edge 8, Type (0, 1), BuildingBlock: TEMPAE_clean_linker_10, # of connection points: 2
#     Edge 9, Type (0, 1), BuildingBlock: TEMPAE_clean_linker_10, # of connection points: 2
#     Edge 10, Type (0, 1), BuildingBlock: TEMPAE_clean_linker_10, # of connection points: 2
#     Edge 11, Type (0, 1), BuildingBlock: TEMPAE_clean_linker_10, # of connection points: 2
# Relax obj value: 0.129
# Max RMSD: 0.244
# Mean RMSD: 0.144
data_MOF--net-pts--node1-MUDLON_clean_sbu_0--node2-QUQFOY_clean_sbu_1--edge1-TEMPAE_clean_linker_10
_symmetry_space_group_name_H-M    P1
_symmetry_Int_Tables_number       1
_symmetry_cell_setting            triclinic
loop_
_symmetry_equiv_pos_as_xyz
'x, y, z'
_cell_length_a     21.798019
_cell_length_b     24.142371
_cell_length_c     41.929771
_cell_angle_alpha  90.206076
_cell_angle_beta   90.129361
_cell_angle_gamma 89.613304
loop_
_atom_site_label
_atom_site_type_symbol
_atom_site_fract_x
_atom_site_fract_y
_atom_site_fract_z
_atom_type_partial_charge
Mg0 Mg 0.48843 0.01375 0.01033 0.0
C1 C 0.44599 0.95916 0.94978 0.0
O2 O 0.50264 0.97051 0.94158 0.0
C3 C 0.53095 0.96283 0.07187 0.0
O4 O 0.47421 0.97517 0.07981 0.0
C5 C 0.3714 0.05817 0.03827 0.0
O6 O 0.34944 0.03423 0.01253 0.0
O7 O 0.4292 0.06216 0.04145 0.0
O8 O 0.42991 0.96624 0.97866 0.0
O9 O 0.54731 0.0595 0.97827 0.0
C10 C 0.60514 0.0545 0.98115 0.0
O11 O 0.62748 0.03129 1.00701 0.0
O12 O 0.54711 0.96797 0.0429 0.0
Mg13 Mg 0.99113 0.51722 0.51255 0.0
C14 C 0.06608 0.61083 0.54429 0.0
O15 O 0.06868 0.63295 0.5158 0.0
C16 C 0.06838 0.42945 0.46866 0.0
O17 O 0.12219 0.44148 0.48092 0.0
C18 C 0.99037 0.59475 0.46187 0.0
O19 O 0.04142 0.56553 0.46073 0.0
O20 O 0.95066 0.58215 0.48287 0.0
O21 O 0.0475 0.56126 0.54733 0.0
O22 O 0.94372 0.46075 0.54458 0.0
C23 C 0.9866 0.42882 0.55448 0.0
O24 O 0.04282 0.43879 0.54491 0.0
O25 O 0.02059 0.4551 0.47798 0.0
O26 O 0.90954 0.96769 0.2345 0.0
Cd27 Cd 0.99099 0.9665 0.25927 0.0
Cd28 Cd 0.97021 0.07628 0.25894 0.0
O29 O 0.88504 0.05582 0.24041 0.0
O30 O 0.99817 0.88732 0.27184 0.0
O31 O 0.98808 0.95531 0.30694 0.0
C32 C 0.9915 0.90279 0.30109 0.0
C33 C 0.98392 0.13802 0.30126 0.0
C34 C 0.87203 1.00749 0.23038 0.0
C35 C 0.07885 0.03384 0.22171 0.0
O36 O 0.04265 0.07392 0.22774 0.0
O37 O 0.06941 0.98642 0.23387 0.0
O38 O 0.9678 0.15492 0.27331 0.0
O39 O 0.98883 0.08521 0.30574 0.0
O40 O 0.93189 0.06162 0.79109 0.0
Cd41 Cd 0.00574 0.06477 0.76082 0.0
Cd42 Cd 0.98724 0.95361 0.76112 0.0
O43 O 0.90769 0.97345 0.78591 0.0
O44 O 0.0095 0.14431 0.74852 0.0
O45 O 0.9892 0.07737 0.71405 0.0
C46 C 0.99507 0.12968 0.71989 0.0
C47 C 0.99185 0.89022 0.71913 0.0
C48 C 0.8967 0.02141 0.7974 0.0
C49 C 0.10434 0.99669 0.79064 0.0
O50 O 0.06781 0.95659 0.78653 0.0
O51 O 0.0906 0.0446 0.78017 0.0
O52 O 0.98553 0.87416 0.74822 0.0
O53 O 0.99121 0.9428 0.71345 0.0
C54 C 0.35567 0.07607 0.09662 0.0
C55 C 0.33075 0.06737 0.06611 0.0
C56 C 0.31846 0.07462 0.12392 0.0
C57 C 0.25487 0.06454 0.12057 0.0
C58 C 0.22901 0.05874 0.08974 0.0
C59 C 0.26725 0.06024 0.0629 0.0
C60 C 0.34766 0.08128 0.15638 0.0
C61 C 0.16127 0.0485 0.08514 0.0
C62 C 0.16315 0.99709 0.18667 0.0
C63 C 0.12934 0.04222 0.19858 0.0
C64 C 0.20603 1.00415 0.16207 0.0
C65 C 0.21541 0.05761 0.14917 0.0
C66 C 0.18362 0.10366 0.16213 0.0
C67 C 0.14097 0.09542 0.18663 0.0
C68 C 0.23935 0.95403 0.14895 0.0
C69 C 0.1927 0.16134 0.14922 0.0
H70 H 0.40472 0.0815 0.09938 0.0
H71 H 0.24756 0.05372 0.03944 0.0
H72 H 0.32239 0.11276 0.17063 0.0
H73 H 0.34516 0.04154 0.16951 0.0
H74 H 0.39655 0.09368 0.1548 0.0
H75 H 0.14788 0.04788 0.05956 0.0
H76 H 0.14889 1.00816 0.09587 0.0
H77 H 0.13399 0.08102 0.09749 0.0
H78 H 0.15465 0.9559 0.19578 0.0
H79 H 0.11551 0.13071 0.19584 0.0
H80 H 0.28952 0.96142 0.14858 0.0
H81 H 0.22458 0.94645 0.12398 0.0
H82 H 0.23039 0.91613 0.1631 0.0
H83 H 0.24225 0.17137 0.14832 0.0
H84 H 0.16882 0.19334 0.1638 0.0
H85 H 0.17482 0.16356 0.12446 0.0
C86 C 0.92204 0.37451 0.59333 0.0
C87 C 0.97661 0.38139 0.57621 0.0
C88 C 0.91659 0.33157 0.61589 0.0
C89 C 0.96688 0.29513 0.62131 0.0
C90 C 0.02089 0.30071 0.60307 0.0
C91 C 0.02494 0.34345 0.5808 0.0
C92 C 0.85799 0.32637 0.63467 0.0
C93 C 0.07573 0.26296 0.60799 0.0
C94 C 0.9977 0.22784 0.70131 0.0
C95 C 0.9844 0.1721 0.69495 0.0
C96 C 0.98907 0.26874 0.67803 0.0
C97 C 0.96607 0.25377 0.64761 0.0
C98 C 0.95027 0.19793 0.6414 0.0
C99 C 0.95997 0.15765 0.66509 0.0
C100 C 0.00731 0.32763 0.68555 0.0
C101 C 0.92513 0.18041 0.60938 0.0
H102 H 0.88444 0.40346 0.5898 0.0
H103 H 0.06705 0.34773 0.56736 0.0
H104 H 0.84195 0.28285 0.63438 0.0
H105 H 0.86659 0.33784 0.65992 0.0
H106 H 0.82092 0.35353 0.62519 0.0
H107 H 0.11314 0.27116 0.59072 0.0
H108 H 0.09413 0.26864 0.63247 0.0
H109 H 0.06198 0.21901 0.60557 0.0
H110 H 0.01621 0.23951 0.72437 0.0
H111 H 0.9488 0.1148 0.66012 0.0
H112 H 0.96941 0.35665 0.67953 0.0
H113 H 0.04744 0.33917 0.67081 0.0
H114 H 0.01959 0.33336 0.71107 0.0
H115 H 0.88733 0.20856 0.60192 0.0
H116 H 0.90782 0.13724 0.60964 0.0
H117 H 0.9617 0.18324 0.59111 0.0
C118 C 0.64079 0.95674 0.08899 0.0
C119 C 0.57835 0.95678 0.09705 0.0
C120 C 0.68626 0.96158 0.11255 0.0
C121 C 0.66895 0.96603 0.145 0.0
C122 C 0.60627 0.96278 0.15346 0.0
C123 C 0.56167 0.9583 0.12937 0.0
C124 C 0.75268 0.96466 0.10256 0.0
C125 C 0.58609 0.96653 0.18782 0.0
C126 C 0.79707 0.9429 0.20498 0.0
C127 C 0.81535 0.99741 0.2117 0.0
C128 C 0.74788 0.93207 0.18431 0.0
C129 C 0.71646 0.97677 0.16976 0.0
C130 C 0.73303 0.03193 0.1774 0.0
C131 C 0.78212 0.04161 0.19842 0.0
C132 C 0.73107 0.87273 0.17712 0.0
C133 C 0.7006 0.08073 0.16231 0.0
H134 H 0.65421 0.95548 0.06412 0.0
H135 H 0.51357 0.95818 0.13586 0.0
H136 H 0.77126 1.00602 0.10876 0.0
H137 H 0.78041 0.93339 0.11561 0.0
H138 H 0.75872 0.95775 0.07654 0.0
H139 H 0.53637 0.95808 0.19065 0.0
H140 H 0.61248 0.93677 0.20267 0.0
H141 H 0.59555 1.00865 0.19722 0.0
H142 H 0.82214 0.90845 0.21535 0.0
H143 H 0.79597 0.08379 0.20344 0.0
H144 H 0.74189 0.86295 0.15187 0.0
H145 H 0.68107 0.86656 0.18032 0.0
H146 H 0.75618 0.84292 0.19258 0.0
H147 H 0.70863 0.08031 0.13618 0.0
H148 H 0.71666 0.12094 0.17209 0.0
H149 H 0.65038 0.07777 0.16607 0.0
C150 C 0.10121 0.69527 0.57387 0.0
C151 C 0.06434 0.64802 0.57239 0.0
C152 C 0.09335 0.73474 0.59834 0.0
C153 C 0.04569 0.7279 0.62092 0.0
C154 C 0.00877 0.67993 0.61962 0.0
C155 C 0.01933 0.64012 0.59577 0.0
C156 C 0.13531 0.78417 0.5997 0.0
C157 C 0.95625 0.67176 0.64255 0.0
C158 C 0.04318 0.80388 0.70041 0.0
C159 C 0.00504 0.84937 0.69372 0.0
C160 C 0.05874 0.76529 0.67661 0.0
C161 C 0.03348 0.77108 0.64567 0.0
C162 C 0.9944 0.81679 0.63886 0.0
C163 C 0.9817 0.85613 0.66285 0.0
C164 C 0.10237 0.71846 0.68457 0.0
C165 C 0.96484 0.82342 0.60649 0.0
H166 H 0.13576 0.70158 0.55571 0.0
H167 H 0.98981 0.60421 0.59436 0.0
H168 H 0.10891 0.82248 0.59441 0.0
H169 H 0.15476 0.7888 0.62404 0.0
H170 H 0.17364 0.78065 0.58237 0.0
H171 H 0.93137 0.63248 0.63808 0.0
H172 H 0.9734 0.67153 0.66746 0.0
H173 H 0.92323 0.70677 0.64045 0.0
H174 H 0.06214 0.79918 0.72419 0.0
H175 H 0.95226 0.89138 0.65771 0.0
H176 H 0.14074 0.71736 0.66721 0.0
H177 H 0.0783 0.67826 0.68272 0.0
H178 H 0.12173 0.72234 0.709 0.0
H179 H 0.00057 0.82661 0.58783 0.0
H180 H 0.93478 0.86069 0.60521 0.0
H181 H 0.93697 0.78632 0.60085 0.0
C182 C 0.41502 0.9518 0.8924 0.0
C183 C 0.39851 0.95203 0.92475 0.0
C184 C 0.37028 0.95525 0.86832 0.0
C185 C 0.30761 0.95922 0.87681 0.0
C186 C 0.29049 0.95656 0.90932 0.0
C187 C 0.33611 0.95273 0.93288 0.0
C188 C 0.39027 0.95716 0.83389 0.0
C189 C 0.22408 0.96043 0.91935 0.0
C190 C 0.19351 0.03228 0.82241 0.0
C191 C 0.16087 0.98748 0.80968 0.0
C192 C 0.24267 0.02358 0.84358 0.0
C193 C 0.25988 0.9688 0.85196 0.0
C194 C 0.22899 0.92343 0.83802 0.0
C195 C 0.17976 0.9333 0.81716 0.0
C196 C 0.27455 0.07307 0.858 0.0
C197 C 0.24647 0.86444 0.84601 0.0
H198 H 0.4631 0.9511 0.88585 0.0
H199 H 0.32282 0.95283 0.95778 0.0
H200 H 0.36418 0.9267 0.81947 0.0
H201 H 0.38028 0.99879 0.82395 0.0
H202 H 0.44009 0.94844 0.83111 0.0
H203 H 0.21822 0.95492 0.94546 0.0
H204 H 0.20505 1.00152 0.91262 0.0
H205 H 0.19661 0.92859 0.90676 0.0
H206 H 0.17922 0.07422 0.8168 0.0
H207 H 0.15517 0.89836 0.80721 0.0
H208 H 0.3248 0.06979 0.85423 0.0
H209 H 0.26664 0.07402 0.88413 0.0
H210 H 0.25798 0.1128 0.84771 0.0
H211 H 0.29651 0.85791 0.84279 0.0
H212 H 0.22155 0.83388 0.83104 0.0
H213 H 0.23597 0.85612 0.87142 0.0
C214 C 0.11118 0.35841 0.43024 0.0
C215 C 0.06074 0.3838 0.44515 0.0
C216 C 0.1027 0.316 0.40749 0.0
C217 C 0.04248 0.29844 0.39976 0.0
C218 C 0.99167 0.32312 0.4153 0.0
C219 C 0.00138 0.36544 0.43761 0.0
C220 C 0.15796 0.29079 0.39124 0.0
C221 C 0.92672 0.30551 0.40796 0.0
C222 C 0.00439 0.23488 0.31929 0.0
C223 C -0.00062 0.17846 0.3267 0.0
C224 C 0.02067 0.27395 0.3426 0.0
C225 C 0.03161 0.2564 0.37429 0.0
C226 C 0.0272 0.19944 0.38194 0.0
C227 C 0.01142 0.16106 0.358 0.0
C228 C 0.02506 0.33424 0.33341 0.0
C229 C 0.03782 0.17923 0.41554 0.0
H230 H 0.15713 0.3722 0.43595 0.0
H231 H 0.96196 0.38425 0.44918 0.0
H232 H 0.15781 0.24511 0.39403 0.0
H233 H 0.15599 0.29954 0.3653 0.0
H234 H 0.20176 0.30713 0.40092 0.0
H235 H 0.89244 0.32693 0.4233 0.0
H236 H 0.91566 0.31464 0.38267 0.0
H237 H 0.92202 0.26016 0.41127 0.0
H238 H 0.99586 0.24869 0.2951 0.0
H239 H 0.00794 0.11752 0.36388 0.0
H240 H 0.07015 0.35113 0.34076 0.0
H241 H 0.98917 0.35856 0.34604 0.0
H242 H 0.01926 0.3406 0.30734 0.0
H243 H 0.08308 0.1934 0.4244 0.0
H244 H 0.03607 0.13335 0.41723 0.0
H245 H 0.00241 0.19712 0.43159 0.0
C246 C 0.70887 0.05445 0.95605 0.0
C247 C 0.64526 0.06177 0.95301 0.0
C248 C 0.74673 0.05138 0.9291 0.0
C249 C 0.72036 0.05568 0.8983 0.0
C250 C 0.6566 0.06575 0.89507 0.0
C251 C 0.6198 0.06887 0.92249 0.0
C252 C 0.81467 0.04128 0.93356 0.0
C253 C 0.62686 0.07078 0.86265 0.0
C254 C 0.83295 0.08416 0.83166 0.0
C255 C 0.84574 0.03049 0.82028 0.0
C256 C 0.79031 0.09327 0.85614 0.0
C257 C 0.75959 0.04764 0.86964 0.0
C258 C 0.76997 0.99368 0.85726 0.0
C259 C 0.81292 0.98573 0.83269 0.0
C260 C 0.78024 0.15144 0.86852 0.0
C261 C 0.73772 0.94401 0.87094 0.0
H262 H 0.72897 0.04914 0.97953 0.0
H263 H 0.57066 0.07439 0.91987 0.0
H264 H 0.82751 1.00051 0.92315 0.0
H265 H 0.84131 0.07329 0.92082 0.0
H266 H 0.82838 0.04168 0.9591 0.0
H267 H 0.5777 0.08288 0.86425 0.0
H268 H 0.65121 0.10184 0.84801 0.0
H269 H 0.6302 0.03053 0.8499 0.0
H270 H 0.85762 0.11917 0.82207 0.0
H271 H 0.82232 0.94419 0.82402 0.0
H272 H 0.79842 0.15476 0.89319 0.0
H273 H 0.73052 0.16134 0.86951 0.0
H274 H 0.8033 0.18291 0.85354 0.0
H275 H 0.75307 0.93738 0.89589 0.0
H276 H 0.74708 0.90561 0.85705 0.0
H277 H 0.68744 0.95134 0.8715 0.0
C278 C 0.9278 0.67018 0.43542 0.0
C279 C 0.98442 0.64416 0.44118 0.0
C280 C 0.92349 0.71559 0.41444 0.0
C281 C 0.97715 0.73558 0.39936 0.0
C282 C 0.03453 0.71058 0.4061 0.0
C283 C 0.03735 0.66519 0.42669 0.0
C284 C 0.86146 0.74103 0.40763 0.0
C285 C 0.09301 0.73078 0.39086 0.0
C286 C 0.97525 0.80533 0.31858 0.0
C287 C 0.9852 0.86099 0.32668 0.0
C288 C 0.96909 0.76469 0.34213 0.0
C289 C 0.97381 0.77978 0.37469 0.0
C290 C 0.98238 0.83611 0.38311 0.0
C291 C 0.98763 0.87617 0.35898 0.0
C292 C 0.95962 0.70519 0.33208 0.0
C293 C 0.98833 0.85373 0.41755 0.0
H294 H 0.88683 0.65424 0.44664 0.0
H295 H 0.08154 0.64598 0.43136 0.0
H296 H 0.86293 0.78655 0.41121 0.0
H297 H 0.84895 0.73354 0.38232 0.0
H298 H 0.82499 0.72364 0.42303 0.0
H299 H 0.13439 0.70927 0.40033 0.0
H300 H 0.09099 0.72387 0.36471 0.0
H301 H 0.09824 0.77595 0.39489 0.0
H302 H 0.97238 0.7933 0.2937 0.0
H303 H 0.99489 0.91916 0.36541 0.0
H304 H 0.92035 0.68715 0.34513 0.0
H305 H 0.00095 0.6803 0.33818 0.0
H306 H 0.95095 0.7011 0.30606 0.0
H307 H 0.94991 0.83699 0.4318 0.0
H308 H 0.98894 0.89951 0.42029 0.0
H309 H 0.03148 0.83656 0.42767 0.0
loop_
_geom_bond_atom_site_label_1
_geom_bond_atom_site_label_2
_geom_bond_distance
_geom_bond_site_symmetry_2
_ccdc_geom_bond_type
Mg0 O7 2.141 . S
Mg0 O8 2.048 1_554 S
Mg0 O9 2.048 1_554 S
Mg0 O12 2.141 . S
C1 O2 1.313 . S
C1 O8 1.195 1_565 S
O2 C1 1.313 . S
C3 O4 1.245 . S
C3 O12 1.289 1_565 S
O4 C3 1.245 . S
C5 O6 1.245 . S
C5 O7 1.289 1_565 S
O6 C5 1.245 . S
O7 Mg0 2.141 . S
O7 C5 1.289 1_545 S
O8 Mg0 2.048 1_556 S
O8 C1 1.195 1_545 S
O9 Mg0 2.048 1_556 S
O9 C10 1.195 1_545 S
C10 O9 1.195 1_565 S
C10 O11 1.313 . S
O11 C10 1.313 . S
O12 Mg0 2.141 . S
O12 C3 1.289 1_545 S
Mg13 O20 2.141 . S
Mg13 O21 2.048 . S
Mg13 O22 2.048 . S
Mg13 O25 2.141 . S
C14 O15 1.313 . S
C14 O21 1.195 1_455 S
O15 C14 1.313 . S
C16 O17 1.245 . S
C16 O25 1.289 1_455 S
O17 C16 1.245 . S
C18 O19 1.245 . S
C18 O20 1.289 1_455 S
O19 C18 1.245 . S
O20 Mg13 2.141 . S
O20 C18 1.289 1_655 S
O21 Mg13 2.048 . S
O21 C14 1.195 1_655 S
O22 Mg13 2.048 . S
O22 C23 1.195 1_655 S
C23 O22 1.195 1_455 S
C23 O24 1.313 . S
O24 C23 1.313 . S
O25 Mg13 2.141 . S
O25 C16 1.289 1_655 S
O26 Cd27 2.223 1_655 S
O26 C34 1.315 . S
Cd27 O26 2.223 1_455 S
Cd27 O30 2.297 1_455 S
Cd27 O31 2.439 1_455 S
Cd27 O37 2.240 1_565 S
Cd28 O29 2.240 1_545 S
Cd28 O36 2.223 1_655 S
Cd28 O38 2.297 1_655 S
Cd28 O39 2.439 1_655 S
O29 Cd28 2.240 1_565 S
O29 C34 1.279 . S
O30 Cd27 2.297 1_655 S
O30 C32 1.247 . S
O31 Cd27 2.439 1_655 S
O31 C32 1.208 . S
C32 O30 1.247 . S
C32 O31 1.208 . S
C33 O38 1.247 . S
C33 O39 1.208 . S
C34 O26 1.315 . S
C34 O29 1.279 . S
C35 O36 1.315 . S
C35 O37 1.279 . S
O36 Cd28 2.223 1_455 S
O36 C35 1.315 . S
O37 Cd27 2.240 1_545 S
O37 C35 1.279 . S
O38 Cd28 2.297 1_455 S
O38 C33 1.247 . S
O39 Cd28 2.439 1_455 S
O39 C33 1.208 . S
O40 Cd41 2.223 1_655 S
O40 C48 1.315 . S
Cd41 O40 2.223 1_455 S
Cd41 O44 2.297 1_455 S
Cd41 O45 2.439 1_455 S
Cd41 O51 2.240 1_545 S
Cd42 O43 2.240 1_565 S
Cd42 O50 2.223 1_655 S
Cd42 O52 2.297 1_655 S
Cd42 O53 2.439 1_655 S
O43 Cd42 2.240 1_545 S
O43 C48 1.279 . S
O44 Cd41 2.297 1_655 S
O44 C46 1.247 . S
O45 Cd41 2.439 1_655 S
O45 C46 1.208 . S
C46 O44 1.247 . S
C46 O45 1.208 . S
C47 O52 1.247 . S
C47 O53 1.208 . S
C48 O40 1.315 . S
C48 O43 1.279 . S
C49 O50 1.315 . S
C49 O51 1.279 . S
O50 Cd42 2.223 1_455 S
O50 C49 1.315 . S
O51 Cd41 2.240 1_565 S
O51 C49 1.279 . S
O52 Cd42 2.297 1_455 S
O52 C47 1.247 . S
O53 Cd42 2.439 1_455 S
O53 C47 1.208 . S
C54 C55 1.391 . S
C54 C56 1.394 . S
C54 H70 0.931 . S
C55 C54 1.391 . S
C55 C59 1.376 1_545 S
C56 C54 1.394 . S
C56 C57 1.369 . S
C56 C60 1.531 . S
C57 C56 1.369 . S
C57 C58 1.410 1_545 S
C57 C65 1.503 . S
C58 C57 1.410 1_565 S
C58 C59 1.392 . S
C58 C61 1.511 . S
C59 C55 1.376 1_565 S
C59 C58 1.392 . S
C59 H71 0.929 . S
C60 C56 1.531 . S
C60 H72 0.960 . S
C60 H73 0.962 . S
C60 H74 0.960 . S
C61 C58 1.511 . S
C61 H75 0.961 . S
C61 H76 0.961 . S
C61 H77 0.961 . S
C62 C63 1.370 1_565 S
C62 C64 1.363 . S
C62 H78 0.931 . S
C63 C62 1.370 1_545 S
C63 C67 1.408 . S
C64 C62 1.363 . S
C64 C65 1.370 1_565 S
C64 C68 1.524 . S
C65 C57 1.503 . S
C65 C64 1.370 1_545 S
C65 C66 1.403 . S
C66 C65 1.403 . S
C66 C67 1.404 . S
C66 C69 1.539 . S
C67 C63 1.408 . S
C67 C66 1.404 . S
C67 H79 0.930 . S
C68 C64 1.524 . S
C68 H80 0.956 . S
C68 H81 0.961 . S
C68 H82 0.961 . S
C69 C66 1.539 . S
C69 H83 0.958 . S
C69 H84 0.961 . S
C69 H85 0.960 . S
H70 C54 0.931 . S
H71 C59 0.929 . S
H72 C60 0.960 . S
H73 C60 0.962 . S
H74 C60 0.960 . S
H75 C61 0.961 . S
H76 C61 0.961 . S
H77 C61 0.961 . S
H78 C62 0.931 . S
H79 C67 0.930 . S
H80 C68 0.956 . S
H81 C68 0.961 . S
H82 C68 0.961 . S
H83 C69 0.958 . S
H84 C69 0.961 . S
H85 C69 0.960 . S
C86 C87 1.391 . S
C86 C88 1.394 . S
C86 H102 0.931 . S
C87 C86 1.391 . S
C87 C91 1.376 1_655 S
C88 C86 1.394 . S
C88 C89 1.369 . S
C88 C92 1.531 . S
C89 C88 1.369 . S
C89 C90 1.410 . S
C89 C97 1.503 . S
C90 C89 1.410 . S
C90 C91 1.392 1_655 S
C90 C93 1.511 1_655 S
C91 C87 1.376 1_455 S
C91 C90 1.392 1_455 S
C91 H103 0.929 . S
C92 C88 1.531 . S
C92 H104 0.960 . S
C92 H105 0.962 . S
C92 H106 0.960 . S
C93 C90 1.511 1_455 S
C93 H107 0.961 . S
C93 H108 0.961 . S
C93 H109 0.961 1_455 S
C94 C95 1.370 1_455 S
C94 C96 1.363 . S
C94 H110 0.931 . S
C95 C94 1.370 1_655 S
C95 C99 1.408 . S
C96 C94 1.363 . S
C96 C97 1.370 1_455 S
C96 C100 1.524 . S
C97 C89 1.503 . S
C97 C96 1.370 1_655 S
C97 C98 1.403 . S
C98 C97 1.403 . S
C98 C99 1.404 . S
C98 C101 1.539 . S
C99 C95 1.408 . S
C99 C98 1.404 . S
C99 H111 0.930 . S
C100 C96 1.524 . S
C100 H112 0.956 . S
C100 H113 0.961 . S
C100 H114 0.961 . S
C101 C98 1.539 . S
C101 H115 0.958 . S
C101 H116 0.961 . S
C101 H117 0.960 . S
H102 C86 0.931 . S
H103 C91 0.929 . S
H104 C92 0.960 . S
H105 C92 0.962 . S
H106 C92 0.960 . S
H107 C93 0.961 . S
H108 C93 0.961 . S
H109 C93 0.961 1_655 S
H110 C94 0.931 . S
H111 C99 0.930 . S
H112 C100 0.956 . S
H113 C100 0.961 . S
H114 C100 0.961 . S
H115 C101 0.958 . S
H116 C101 0.961 . S
H117 C101 0.960 . S
C118 C119 1.391 . S
C118 C120 1.394 . S
C118 H134 0.931 . S
C119 C118 1.391 . S
C119 C123 1.376 1_545 S
C120 C118 1.394 . S
C120 C121 1.369 1_545 S
C120 C124 1.531 . S
C121 C120 1.369 1_565 S
C121 C122 1.410 . S
C121 C129 1.503 . S
C122 C121 1.410 . S
C122 C123 1.392 . S
C122 C125 1.511 . S
C123 C119 1.376 1_565 S
C123 C122 1.392 . S
C123 H135 0.929 . S
C124 C120 1.531 . S
C124 H136 0.960 . S
C124 H137 0.962 . S
C124 H138 0.960 . S
C125 C122 1.511 . S
C125 H139 0.961 . S
C125 H140 0.961 . S
C125 H141 0.961 . S
C126 C127 1.370 . S
C126 C128 1.363 . S
C126 H142 0.931 . S
C127 C126 1.370 . S
C127 C131 1.408 1_565 S
C128 C126 1.363 . S
C128 C129 1.370 . S
C128 C132 1.524 . S
C129 C121 1.503 . S
C129 C128 1.370 . S
C129 C130 1.403 1_565 S
C130 C129 1.403 1_545 S
C130 C131 1.404 . S
C130 C133 1.539 . S
C131 C127 1.408 1_545 S
C131 C130 1.404 . S
C131 H143 0.930 . S
C132 C128 1.524 . S
C132 H144 0.956 . S
C132 H145 0.961 . S
C132 H146 0.961 . S
C133 C130 1.539 . S
C133 H147 0.958 . S
C133 H148 0.961 . S
C133 H149 0.960 . S
H134 C118 0.931 . S
H135 C123 0.929 . S
H136 C124 0.960 . S
H137 C124 0.962 . S
H138 C124 0.960 . S
H139 C125 0.961 . S
H140 C125 0.961 . S
H141 C125 0.961 . S
H142 C126 0.931 . S
H143 C131 0.930 . S
H144 C132 0.956 . S
H145 C132 0.961 . S
H146 C132 0.961 . S
H147 C133 0.958 . S
H148 C133 0.961 . S
H149 C133 0.960 . S
C150 C151 1.391 . S
C150 C152 1.394 . S
C150 H166 0.931 . S
C151 C150 1.391 . S
C151 C155 1.376 1_455 S
C152 C150 1.394 . S
C152 C153 1.369 . S
C152 C156 1.531 . S
C153 C152 1.369 . S
C153 C154 1.410 1_455 S
C153 C161 1.503 . S
C154 C153 1.410 1_655 S
C154 C155 1.392 . S
C154 C157 1.511 . S
C155 C151 1.376 1_655 S
C155 C154 1.392 . S
C155 H167 0.929 . S
C156 C152 1.531 . S
C156 H168 0.960 . S
C156 H169 0.962 . S
C156 H170 0.960 . S
C157 C154 1.511 . S
C157 H171 0.961 . S
C157 H172 0.961 . S
C157 H173 0.961 . S
C158 C159 1.370 . S
C158 C160 1.363 . S
C158 H174 0.931 . S
C159 C158 1.370 . S
C159 C163 1.408 . S
C160 C158 1.363 . S
C160 C161 1.370 . S
C160 C164 1.524 . S
C161 C153 1.503 . S
C161 C160 1.370 . S
C161 C162 1.403 . S
C162 C161 1.403 . S
C162 C163 1.404 . S
C162 C165 1.539 . S
C163 C159 1.408 . S
C163 C162 1.404 . S
C163 H175 0.930 . S
C164 C160 1.524 . S
C164 H176 0.956 . S
C164 H177 0.960 . S
C164 H178 0.961 . S
C165 C162 1.539 . S
C165 H179 0.958 . S
C165 H180 0.961 1_455 S
C165 H181 0.960 1_455 S
H166 C150 0.931 . S
H167 C155 0.929 . S
H168 C156 0.960 . S
H169 C156 0.962 . S
H170 C156 0.960 . S
H171 C157 0.961 . S
H172 C157 0.961 . S
H173 C157 0.961 . S
H174 C158 0.931 . S
H175 C163 0.930 . S
H176 C164 0.956 . S
H177 C164 0.960 . S
H178 C164 0.961 . S
H179 C165 0.958 . S
H180 C165 0.961 1_655 S
H181 C165 0.960 1_655 S
C182 C183 1.391 . S
C182 C184 1.394 . S
C182 H198 0.931 . S
C183 C182 1.391 . S
C183 C187 1.376 . S
C184 C182 1.394 . S
C184 C185 1.369 . S
C184 C188 1.531 . S
C185 C184 1.369 . S
C185 C186 1.410 . S
C185 C193 1.503 . S
C186 C185 1.410 . S
C186 C187 1.392 . S
C186 C189 1.511 . S
C187 C183 1.376 . S
C187 C186 1.392 . S
C187 H199 0.929 1_565 S
C188 C184 1.531 . S
C188 H200 0.960 . S
C188 H201 0.962 . S
C188 H202 0.960 . S
C189 C186 1.511 . S
C189 H203 0.961 1_565 S
C189 H204 0.961 1_565 S
C189 H205 0.961 . S
C190 C191 1.370 1_545 S
C190 C192 1.363 . S
C190 H206 0.931 . S
C191 C190 1.370 1_565 S
C191 C195 1.408 . S
C192 C190 1.363 . S
C192 C193 1.370 1_545 S
C192 C196 1.524 . S
C193 C185 1.503 . S
C193 C192 1.370 1_565 S
C193 C194 1.403 . S
C194 C193 1.403 . S
C194 C195 1.404 . S
C194 C197 1.539 . S
C195 C191 1.408 . S
C195 C194 1.404 . S
C195 H207 0.930 . S
C196 C192 1.524 . S
C196 H208 0.956 . S
C196 H209 0.961 . S
C196 H210 0.961 . S
C197 C194 1.539 . S
C197 H211 0.958 . S
C197 H212 0.961 . S
C197 H213 0.960 . S
H198 C182 0.931 . S
H199 C187 0.929 1_545 S
H200 C188 0.960 . S
H201 C188 0.962 . S
H202 C188 0.960 . S
H203 C189 0.961 1_545 S
H204 C189 0.961 1_545 S
H205 C189 0.961 . S
H206 C190 0.931 . S
H207 C195 0.930 . S
H208 C196 0.956 . S
H209 C196 0.961 . S
H210 C196 0.961 . S
H211 C197 0.958 . S
H212 C197 0.961 . S
H213 C197 0.960 . S
C214 C215 1.391 . S
C214 C216 1.394 . S
C214 H230 0.931 . S
C215 C214 1.391 . S
C215 C219 1.376 1_455 S
C216 C214 1.394 . S
C216 C217 1.369 . S
C216 C220 1.531 . S
C217 C216 1.369 . S
C217 C218 1.410 1_455 S
C217 C225 1.503 . S
C218 C217 1.410 1_655 S
C218 C219 1.392 . S
C218 C221 1.511 . S
C219 C215 1.376 1_655 S
C219 C218 1.392 . S
C219 H231 0.929 . S
C220 C216 1.531 . S
C220 H232 0.960 . S
C220 H233 0.962 . S
C220 H234 0.960 . S
C221 C218 1.511 . S
C221 H235 0.961 . S
C221 H236 0.961 . S
C221 H237 0.961 . S
C222 C223 1.370 . S
C222 C224 1.363 . S
C222 H238 0.931 . S
C223 C222 1.370 . S
C223 C227 1.408 . S
C224 C222 1.363 . S
C224 C225 1.370 . S
C224 C228 1.524 . S
C225 C217 1.503 . S
C225 C224 1.370 . S
C225 C226 1.403 . S
C226 C225 1.403 . S
C226 C227 1.404 . S
C226 C229 1.539 1_455 S
C227 C223 1.408 . S
C227 C226 1.404 . S
C227 H239 0.930 1_455 S
C228 C224 1.524 . S
C228 H240 0.956 . S
C228 H241 0.961 . S
C228 H242 0.961 . S
C229 C226 1.539 1_655 S
C229 H243 0.946 1_655 S
C229 H244 0.961 . S
C229 H245 0.960 . S
H230 C214 0.931 . S
H231 C219 0.929 . S
H232 C220 0.960 . S
H233 C220 0.962 . S
H234 C220 0.960 . S
H235 C221 0.961 . S
H236 C221 0.961 . S
H237 C221 0.961 . S
H238 C222 0.931 . S
H239 C227 0.930 1_655 S
H240 C228 0.956 . S
H241 C228 0.961 . S
H242 C228 0.961 . S
H243 C229 0.946 1_455 S
H244 C229 0.961 . S
H245 C229 0.960 . S
C246 C247 1.391 . S
C246 C248 1.394 . S
C246 H262 0.931 . S
C247 C246 1.391 . S
C247 C251 1.376 1_565 S
C248 C246 1.394 . S
C248 C249 1.369 1_565 S
C248 C252 1.531 . S
C249 C248 1.369 1_545 S
C249 C250 1.410 . S
C249 C257 1.503 . S
C250 C249 1.410 . S
C250 C251 1.392 . S
C250 C253 1.511 . S
C251 C247 1.376 1_545 S
C251 C250 1.392 . S
C251 H263 0.929 . S
C252 C248 1.531 . S
C252 H264 0.960 . S
C252 H265 0.962 . S
C252 H266 0.960 . S
C253 C250 1.511 . S
C253 H267 0.961 . S
C253 H268 0.961 . S
C253 H269 0.961 . S
C254 C255 1.370 . S
C254 C256 1.363 . S
C254 H270 0.931 . S
C255 C254 1.370 . S
C255 C259 1.408 1_545 S
C256 C254 1.363 . S
C256 C257 1.370 . S
C256 C260 1.524 . S
C257 C249 1.503 . S
C257 C256 1.370 . S
C257 C258 1.403 1_545 S
C258 C257 1.403 1_565 S
C258 C259 1.404 . S
C258 C261 1.539 . S
C259 C255 1.408 1_565 S
C259 C258 1.404 . S
C259 H271 0.930 . S
C260 C256 1.524 . S
C260 H272 0.956 . S
C260 H273 0.961 . S
C260 H274 0.961 . S
C261 C258 1.539 . S
C261 H275 0.958 . S
C261 H276 0.961 . S
C261 H277 0.960 . S
H262 C246 0.931 . S
H263 C251 0.929 . S
H264 C252 0.960 . S
H265 C252 0.962 . S
H266 C252 0.960 . S
H267 C253 0.961 . S
H268 C253 0.961 . S
H269 C253 0.961 . S
H270 C254 0.931 . S
H271 C259 0.930 . S
H272 C260 0.956 . S
H273 C260 0.961 . S
H274 C260 0.961 . S
H275 C261 0.958 . S
H276 C261 0.961 . S
H277 C261 0.960 . S
C278 C279 1.383 1_655 S
C278 C280 1.394 . S
C278 H294 0.931 . S
C279 C278 1.383 1_455 S
C279 C283 1.384 . S
C280 C278 1.394 . S
C280 C281 1.369 . S
C280 C284 1.531 . S
C281 C280 1.369 . S
C281 C282 1.410 1_655 S
C281 C289 1.503 . S
C282 C281 1.410 1_455 S
C282 C283 1.392 . S
C282 C285 1.511 . S
C283 C279 1.384 . S
C283 C282 1.392 . S
C283 H295 0.929 . S
C284 C280 1.531 . S
C284 H296 0.960 . S
C284 H297 0.962 . S
C284 H298 0.960 . S
C285 C282 1.511 . S
C285 H299 0.961 . S
C285 H300 0.961 . S
C285 H301 0.961 . S
C286 C287 1.370 . S
C286 C288 1.363 . S
C286 H302 0.931 . S
C287 C286 1.370 . S
C287 C291 1.408 1_655 S
C288 C286 1.363 . S
C288 C289 1.370 . S
C288 C292 1.524 . S
C289 C281 1.503 . S
C289 C288 1.370 . S
C289 C290 1.403 1_655 S
C290 C289 1.403 1_455 S
C290 C291 1.404 . S
C290 C293 1.539 . S
C291 C287 1.408 1_455 S
C291 C290 1.404 . S
C291 H303 0.930 . S
C292 C288 1.524 . S
C292 H304 0.956 . S
C292 H305 0.961 . S
C292 H306 0.961 . S
C293 C290 1.539 . S
C293 H307 0.958 . S
C293 H308 0.961 . S
C293 H309 0.960 . S
H294 C278 0.931 . S
H295 C283 0.929 . S
H296 C284 0.960 . S
H297 C284 0.962 . S
H298 C284 0.960 . S
H299 C285 0.961 . S
H300 C285 0.961 . S
H301 C285 0.961 . S
H302 C286 0.931 . S
H303 C291 0.930 . S
H304 C292 0.956 . S
H305 C292 0.961 . S
H306 C292 0.961 . S
H307 C293 0.958 . S
H308 C293 0.961 . S
H309 C293 0.960 . S
C63 C35 1.494 . S
C55 C5 1.493 1_545 S
C95 C46 1.540 . S
C87 C23 1.584 1_655 S
C127 C34 1.495 . S
C119 C3 1.486 1_545 S
C159 C47 1.529 . S
C151 C14 1.571 . S
C191 C49 1.554 . S
C183 C1 1.521 . S
C223 C33 1.459 . S
C215 C16 1.497 . S
C255 C48 1.555 . S
C247 C10 1.546 . S
C279 C18 1.505 . S
C287 C32 1.454 . S
