# Generated by pormake.
# Topology gar, (4,6)-cn, num edge types: 1
# Building blocks:
#     Node 0, Type 0, BuildingBlock: AZAVOO_clean_sbu_0, # of connection points: 4
#     Node 1, Type 0, BuildingBlock: AZAVOO_clean_sbu_0, # of connection points: 4
#     Node 2, Type 0, BuildingBlock: AZAVOO_clean_sbu_0, # of connection points: 4
#     Node 3, Type 0, BuildingBlock: AZAVOO_clean_sbu_0, # of connection points: 4
#     Node 4, Type 0, BuildingBlock: AZAVOO_clean_sbu_0, # of connection points: 4
#     Node 5, Type 0, BuildingBlock: AZAVOO_clean_sbu_0, # of connection points: 4
#     Node 6, Type 0, BuildingBlock: AZAVOO_clean_sbu_0, # of connection points: 4
#     Node 7, Type 0, BuildingBlock: AZAVOO_clean_sbu_0, # of connection points: 4
#     Node 8, Type 0, BuildingBlock: AZAVOO_clean_sbu_0, # of connection points: 4
#     Node 9, Type 0, BuildingBlock: AZAVOO_clean_sbu_0, # of connection points: 4
#     Node 10, Type 0, BuildingBlock: AZAVOO_clean_sbu_0, # of connection points: 4
#     Node 11, Type 0, BuildingBlock: AZAVOO_clean_sbu_0, # of connection points: 4
#     Node 12, Type 0, BuildingBlock: AZAVOO_clean_sbu_0, # of connection points: 4
#     Node 13, Type 0, BuildingBlock: AZAVOO_clean_sbu_0, # of connection points: 4
#     Node 14, Type 0, BuildingBlock: AZAVOO_clean_sbu_0, # of connection points: 4
#     Node 15, Type 0, BuildingBlock: AZAVOO_clean_sbu_0, # of connection points: 4
#     Node 16, Type 0, BuildingBlock: AZAVOO_clean_sbu_0, # of connection points: 4
#     Node 17, Type 0, BuildingBlock: AZAVOO_clean_sbu_0, # of connection points: 4
#     Node 18, Type 0, BuildingBlock: AZAVOO_clean_sbu_0, # of connection points: 4
#     Node 19, Type 0, BuildingBlock: AZAVOO_clean_sbu_0, # of connection points: 4
#     Node 20, Type 0, BuildingBlock: AZAVOO_clean_sbu_0, # of connection points: 4
#     Node 21, Type 0, BuildingBlock: AZAVOO_clean_sbu_0, # of connection points: 4
#     Node 22, Type 0, BuildingBlock: AZAVOO_clean_sbu_0, # of connection points: 4
#     Node 23, Type 0, BuildingBlock: AZAVOO_clean_sbu_0, # of connection points: 4
#     Node 24, Type 1, BuildingBlock: CUKXOW_clean_sbu_0, # of connection points: 6
#     Node 25, Type 1, BuildingBlock: CUKXOW_clean_sbu_0, # of connection points: 6
#     Node 26, Type 1, BuildingBlock: CUKXOW_clean_sbu_0, # of connection points: 6
#     Node 27, Type 1, BuildingBlock: CUKXOW_clean_sbu_0, # of connection points: 6
#     Node 28, Type 1, BuildingBlock: CUKXOW_clean_sbu_0, # of connection points: 6
#     Node 29, Type 1, BuildingBlock: CUKXOW_clean_sbu_0, # of connection points: 6
#     Node 30, Type 1, BuildingBlock: CUKXOW_clean_sbu_0, # of connection points: 6
#     Node 31, Type 1, BuildingBlock: CUKXOW_clean_sbu_0, # of connection points: 6
#     Node 32, Type 1, BuildingBlock: CUKXOW_clean_sbu_0, # of connection points: 6
#     Node 33, Type 1, BuildingBlock: CUKXOW_clean_sbu_0, # of connection points: 6
#     Node 34, Type 1, BuildingBlock: CUKXOW_clean_sbu_0, # of connection points: 6
#     Node 35, Type 1, BuildingBlock: CUKXOW_clean_sbu_0, # of connection points: 6
#     Node 36, Type 1, BuildingBlock: CUKXOW_clean_sbu_0, # of connection points: 6
#     Node 37, Type 1, BuildingBlock: CUKXOW_clean_sbu_0, # of connection points: 6
#     Node 38, Type 1, BuildingBlock: CUKXOW_clean_sbu_0, # of connection points: 6
#     Node 39, Type 1, BuildingBlock: CUKXOW_clean_sbu_0, # of connection points: 6
#     Edge 40, Type (0, 1), BuildingBlock: KIFKEQ_clean_linker_1, # of connection points: 2
#     Edge 41, Type (0, 1), BuildingBlock: KIFKEQ_clean_linker_1, # of connection points: 2
#     Edge 42, Type (0, 1), BuildingBlock: KIFKEQ_clean_linker_1, # of connection points: 2
#     Edge 43, Type (0, 1), BuildingBlock: KIFKEQ_clean_linker_1, # of connection points: 2
#     Edge 44, Type (0, 1), BuildingBlock: KIFKEQ_clean_linker_1, # of connection points: 2
#     Edge 45, Type (0, 1), BuildingBlock: KIFKEQ_clean_linker_1, # of connection points: 2
#     Edge 46, Type (0, 1), BuildingBlock: KIFKEQ_clean_linker_1, # of connection points: 2
#     Edge 47, Type (0, 1), BuildingBlock: KIFKEQ_clean_linker_1, # of connection points: 2
#     Edge 48, Type (0, 1), BuildingBlock: KIFKEQ_clean_linker_1, # of connection points: 2
#     Edge 49, Type (0, 1), BuildingBlock: KIFKEQ_clean_linker_1, # of connection points: 2
#     Edge 50, Type (0, 1), BuildingBlock: KIFKEQ_clean_linker_1, # of connection points: 2
#     Edge 51, Type (0, 1), BuildingBlock: KIFKEQ_clean_linker_1, # of connection points: 2
#     Edge 52, Type (0, 1), BuildingBlock: KIFKEQ_clean_linker_1, # of connection points: 2
#     Edge 53, Type (0, 1), BuildingBlock: KIFKEQ_clean_linker_1, # of connection points: 2
#     Edge 54, Type (0, 1), BuildingBlock: KIFKEQ_clean_linker_1, # of connection points: 2
#     Edge 55, Type (0, 1), BuildingBlock: KIFKEQ_clean_linker_1, # of connection points: 2
#     Edge 56, Type (0, 1), BuildingBlock: KIFKEQ_clean_linker_1, # of connection points: 2
#     Edge 57, Type (0, 1), BuildingBlock: KIFKEQ_clean_linker_1, # of connection points: 2
#     Edge 58, Type (0, 1), BuildingBlock: KIFKEQ_clean_linker_1, # of connection points: 2
#     Edge 59, Type (0, 1), BuildingBlock: KIFKEQ_clean_linker_1, # of connection points: 2
#     Edge 60, Type (0, 1), BuildingBlock: KIFKEQ_clean_linker_1, # of connection points: 2
#     Edge 61, Type (0, 1), BuildingBlock: KIFKEQ_clean_linker_1, # of connection points: 2
#     Edge 62, Type (0, 1), BuildingBlock: KIFKEQ_clean_linker_1, # of connection points: 2
#     Edge 63, Type (0, 1), BuildingBlock: KIFKEQ_clean_linker_1, # of connection points: 2
#     Edge 64, Type (0, 1), BuildingBlock: KIFKEQ_clean_linker_1, # of connection points: 2
#     Edge 65, Type (0, 1), BuildingBlock: KIFKEQ_clean_linker_1, # of connection points: 2
#     Edge 66, Type (0, 1), BuildingBlock: KIFKEQ_clean_linker_1, # of connection points: 2
#     Edge 67, Type (0, 1), BuildingBlock: KIFKEQ_clean_linker_1, # of connection points: 2
#     Edge 68, Type (0, 1), BuildingBlock: KIFKEQ_clean_linker_1, # of connection points: 2
#     Edge 69, Type (0, 1), BuildingBlock: KIFKEQ_clean_linker_1, # of connection points: 2
#     Edge 70, Type (0, 1), BuildingBlock: KIFKEQ_clean_linker_1, # of connection points: 2
#     Edge 71, Type (0, 1), BuildingBlock: KIFKEQ_clean_linker_1, # of connection points: 2
#     Edge 72, Type (0, 1), BuildingBlock: KIFKEQ_clean_linker_1, # of connection points: 2
#     Edge 73, Type (0, 1), BuildingBlock: KIFKEQ_clean_linker_1, # of connection points: 2
#     Edge 74, Type (0, 1), BuildingBlock: KIFKEQ_clean_linker_1, # of connection points: 2
#     Edge 75, Type (0, 1), BuildingBlock: KIFKEQ_clean_linker_1, # of connection points: 2
#     Edge 76, Type (0, 1), BuildingBlock: KIFKEQ_clean_linker_1, # of connection points: 2
#     Edge 77, Type (0, 1), BuildingBlock: KIFKEQ_clean_linker_1, # of connection points: 2
#     Edge 78, Type (0, 1), BuildingBlock: KIFKEQ_clean_linker_1, # of connection points: 2
#     Edge 79, Type (0, 1), BuildingBlock: KIFKEQ_clean_linker_1, # of connection points: 2
#     Edge 80, Type (0, 1), BuildingBlock: KIFKEQ_clean_linker_1, # of connection points: 2
#     Edge 81, Type (0, 1), BuildingBlock: KIFKEQ_clean_linker_1, # of connection points: 2
#     Edge 82, Type (0, 1), BuildingBlock: KIFKEQ_clean_linker_1, # of connection points: 2
#     Edge 83, Type (0, 1), BuildingBlock: KIFKEQ_clean_linker_1, # of connection points: 2
#     Edge 84, Type (0, 1), BuildingBlock: KIFKEQ_clean_linker_1, # of connection points: 2
#     Edge 85, Type (0, 1), BuildingBlock: KIFKEQ_clean_linker_1, # of connection points: 2
#     Edge 86, Type (0, 1), BuildingBlock: KIFKEQ_clean_linker_1, # of connection points: 2
#     Edge 87, Type (0, 1), BuildingBlock: KIFKEQ_clean_linker_1, # of connection points: 2
#     Edge 88, Type (0, 1), BuildingBlock: KIFKEQ_clean_linker_1, # of connection points: 2
#     Edge 89, Type (0, 1), BuildingBlock: KIFKEQ_clean_linker_1, # of connection points: 2
#     Edge 90, Type (0, 1), BuildingBlock: KIFKEQ_clean_linker_1, # of connection points: 2
#     Edge 91, Type (0, 1), BuildingBlock: KIFKEQ_clean_linker_1, # of connection points: 2
#     Edge 92, Type (0, 1), BuildingBlock: KIFKEQ_clean_linker_1, # of connection points: 2
#     Edge 93, Type (0, 1), BuildingBlock: KIFKEQ_clean_linker_1, # of connection points: 2
#     Edge 94, Type (0, 1), BuildingBlock: KIFKEQ_clean_linker_1, # of connection points: 2
#     Edge 95, Type (0, 1), BuildingBlock: KIFKEQ_clean_linker_1, # of connection points: 2
#     Edge 96, Type (0, 1), BuildingBlock: KIFKEQ_clean_linker_1, # of connection points: 2
#     Edge 97, Type (0, 1), BuildingBlock: KIFKEQ_clean_linker_1, # of connection points: 2
#     Edge 98, Type (0, 1), BuildingBlock: KIFKEQ_clean_linker_1, # of connection points: 2
#     Edge 99, Type (0, 1), BuildingBlock: KIFKEQ_clean_linker_1, # of connection points: 2
#     Edge 100, Type (0, 1), BuildingBlock: KIFKEQ_clean_linker_1, # of connection points: 2
#     Edge 101, Type (0, 1), BuildingBlock: KIFKEQ_clean_linker_1, # of connection points: 2
#     Edge 102, Type (0, 1), BuildingBlock: KIFKEQ_clean_linker_1, # of connection points: 2
#     Edge 103, Type (0, 1), BuildingBlock: KIFKEQ_clean_linker_1, # of connection points: 2
#     Edge 104, Type (0, 1), BuildingBlock: KIFKEQ_clean_linker_1, # of connection points: 2
#     Edge 105, Type (0, 1), BuildingBlock: KIFKEQ_clean_linker_1, # of connection points: 2
#     Edge 106, Type (0, 1), BuildingBlock: KIFKEQ_clean_linker_1, # of connection points: 2
#     Edge 107, Type (0, 1), BuildingBlock: KIFKEQ_clean_linker_1, # of connection points: 2
#     Edge 108, Type (0, 1), BuildingBlock: KIFKEQ_clean_linker_1, # of connection points: 2
#     Edge 109, Type (0, 1), BuildingBlock: KIFKEQ_clean_linker_1, # of connection points: 2
#     Edge 110, Type (0, 1), BuildingBlock: KIFKEQ_clean_linker_1, # of connection points: 2
#     Edge 111, Type (0, 1), BuildingBlock: KIFKEQ_clean_linker_1, # of connection points: 2
#     Edge 112, Type (0, 1), BuildingBlock: KIFKEQ_clean_linker_1, # of connection points: 2
#     Edge 113, Type (0, 1), BuildingBlock: KIFKEQ_clean_linker_1, # of connection points: 2
#     Edge 114, Type (0, 1), BuildingBlock: KIFKEQ_clean_linker_1, # of connection points: 2
#     Edge 115, Type (0, 1), BuildingBlock: KIFKEQ_clean_linker_1, # of connection points: 2
#     Edge 116, Type (0, 1), BuildingBlock: KIFKEQ_clean_linker_1, # of connection points: 2
#     Edge 117, Type (0, 1), BuildingBlock: KIFKEQ_clean_linker_1, # of connection points: 2
#     Edge 118, Type (0, 1), BuildingBlock: KIFKEQ_clean_linker_1, # of connection points: 2
#     Edge 119, Type (0, 1), BuildingBlock: KIFKEQ_clean_linker_1, # of connection points: 2
#     Edge 120, Type (0, 1), BuildingBlock: KIFKEQ_clean_linker_1, # of connection points: 2
#     Edge 121, Type (0, 1), BuildingBlock: KIFKEQ_clean_linker_1, # of connection points: 2
#     Edge 122, Type (0, 1), BuildingBlock: KIFKEQ_clean_linker_1, # of connection points: 2
#     Edge 123, Type (0, 1), BuildingBlock: KIFKEQ_clean_linker_1, # of connection points: 2
#     Edge 124, Type (0, 1), BuildingBlock: KIFKEQ_clean_linker_1, # of connection points: 2
#     Edge 125, Type (0, 1), BuildingBlock: KIFKEQ_clean_linker_1, # of connection points: 2
#     Edge 126, Type (0, 1), BuildingBlock: KIFKEQ_clean_linker_1, # of connection points: 2
#     Edge 127, Type (0, 1), BuildingBlock: KIFKEQ_clean_linker_1, # of connection points: 2
#     Edge 128, Type (0, 1), BuildingBlock: KIFKEQ_clean_linker_1, # of connection points: 2
#     Edge 129, Type (0, 1), BuildingBlock: KIFKEQ_clean_linker_1, # of connection points: 2
#     Edge 130, Type (0, 1), BuildingBlock: KIFKEQ_clean_linker_1, # of connection points: 2
#     Edge 131, Type (0, 1), BuildingBlock: KIFKEQ_clean_linker_1, # of connection points: 2
#     Edge 132, Type (0, 1), BuildingBlock: KIFKEQ_clean_linker_1, # of connection points: 2
#     Edge 133, Type (0, 1), BuildingBlock: KIFKEQ_clean_linker_1, # of connection points: 2
#     Edge 134, Type (0, 1), BuildingBlock: KIFKEQ_clean_linker_1, # of connection points: 2
#     Edge 135, Type (0, 1), BuildingBlock: KIFKEQ_clean_linker_1, # of connection points: 2
# Relax obj value: 0.131
# Max RMSD: 0.231
# Mean RMSD: 0.169
data_MOF--net-gar--node1-AZAVOO_clean_sbu_0--node2-CUKXOW_clean_sbu_0--edge1-KIFKEQ_clean_linker_1
_symmetry_space_group_name_H-M    P1
_symmetry_Int_Tables_number       1
_symmetry_cell_setting            triclinic
loop_
_symmetry_equiv_pos_as_xyz
'x, y, z'
_cell_length_a     57.06277
_cell_length_b     53.318241
_cell_length_c     54.697203
_cell_angle_alpha  96.243361
_cell_angle_beta   95.153891
_cell_angle_gamma 100.27457
loop_
_atom_site_label
_atom_site_type_symbol
_atom_site_fract_x
_atom_site_fract_y
_atom_site_fract_z
_atom_type_partial_charge
Mg0 Mg 0.01237 0.25866 0.41873 0.0
O1 O 0.0097 0.2962 0.44268 0.0
O2 O 0.97283 0.28933 0.45464 0.0
Mg3 Mg 0.9528 0.24888 0.43947 0.0
C4 C 0.99321 0.30375 0.45429 0.0
C5 C 0.05953 0.24969 0.40857 0.0
O6 O 0.04469 0.22749 0.40663 0.0
O7 O 0.01701 0.23901 0.45297 0.0
O8 O 0.97954 0.23113 0.46309 0.0
O9 O 0.99731 0.27258 0.38512 0.0
O10 O 0.97571 0.2497 0.40949 0.0
C11 C 0.0016 0.22924 0.46648 0.0
C12 C 0.97651 0.26184 0.3904 0.0
O13 O 0.05232 0.26975 0.41713 0.0
Mg14 Mg 0.9946 0.82149 0.6297 0.0
O15 O 0.99103 0.78288 0.60518 0.0
O16 O 0.95382 0.7733 0.58551 0.0
Mg17 Mg 0.93486 0.80653 0.59577 0.0
C18 C 0.97454 0.76793 0.59036 0.0
C19 C 0.04349 0.83933 0.65708 0.0
O20 O 0.0294 0.85085 0.67025 0.0
O21 O 0.99872 0.84214 0.59638 0.0
O22 O 0.96178 0.833 0.57613 0.0
O23 O 0.98025 0.8016 0.66012 0.0
O24 O 0.95813 0.81563 0.63109 0.0
C25 C 0.98381 0.84407 0.57824 0.0
C26 C 0.95928 0.80367 0.65029 0.0
O27 O 0.03446 0.82482 0.63729 0.0
Mg28 Mg 0.51627 0.76209 0.91447 0.0
O29 O 0.51259 0.79989 0.93695 0.0
O30 O 0.47574 0.79387 0.9488 0.0
Mg31 Mg 0.45632 0.75291 0.93468 0.0
C32 C 0.49618 0.80802 0.94817 0.0
C33 C 0.56123 0.79492 0.90145 0.0
O34 O 0.54488 0.80882 0.89692 0.0
O35 O 0.52111 0.74421 0.94988 0.0
O36 O 0.48341 0.73711 0.95953 0.0
O37 O 0.50071 0.77402 0.87994 0.0
O38 O 0.47955 0.75179 0.90506 0.0
C39 C 0.50545 0.73536 0.96361 0.0
C40 C 0.4801 0.7631 0.88546 0.0
O41 O 0.55596 0.77579 0.91324 0.0
Mg42 Mg 0.49523 0.32635 0.11856 0.0
O43 O 0.49015 0.28599 0.09743 0.0
O44 O 0.45393 0.27741 0.07575 0.0
Mg45 Mg 0.43545 0.31155 0.08443 0.0
C46 C 0.47395 0.27114 0.08223 0.0
C47 C 0.54275 0.33743 0.14932 0.0
O48 O 0.5282 0.34715 0.16333 0.0
O49 O 0.50056 0.34334 0.08295 0.0
O50 O 0.463 0.33627 0.06437 0.0
O51 O 0.47966 0.31063 0.15059 0.0
O52 O 0.45868 0.32292 0.11958 0.0
C53 C 0.48534 0.34569 0.06519 0.0
C54 C 0.45909 0.31309 0.14007 0.0
O55 O 0.53472 0.32716 0.12744 0.0
Mg56 Mg 0.98249 0.77425 0.17263 0.0
O57 O 0.98451 0.7355 0.15045 0.0
O58 O 0.95035 0.72238 0.1256 0.0
Mg59 Mg 0.92538 0.75107 0.13369 0.0
C60 C 0.97129 0.71941 0.13355 0.0
C61 C 0.02984 0.77592 0.20606 0.0
O62 O 0.01344 0.76772 0.22022 0.0
O63 O 0.98694 0.79473 0.13795 0.0
O64 O 0.95018 0.78256 0.11744 0.0
O65 O 0.96498 0.75585 0.20332 0.0
O66 O 0.94484 0.7654 0.1706 0.0
C67 C 0.97136 0.7961 0.12 0.0
C68 C 0.94448 0.75659 0.19155 0.0
O69 O 0.02312 0.78075 0.18451 0.0
Mg70 Mg 0.51201 0.77973 0.35457 0.0
O71 O 0.51174 0.81657 0.38143 0.0
O72 O 0.4784 0.80736 0.40017 0.0
Mg73 Mg 0.45652 0.76814 0.38438 0.0
C74 C 0.4977 0.82241 0.39723 0.0
C75 C 0.55535 0.78875 0.32612 0.0
O76 O 0.5367 0.78109 0.30938 0.0
O77 O 0.52147 0.75877 0.38754 0.0
O78 O 0.48638 0.75119 0.40334 0.0
O79 O 0.49087 0.79373 0.32367 0.0
O80 O 0.47478 0.7706 0.35099 0.0
C81 C 0.50841 0.7494 0.4034 0.0
C82 C 0.47177 0.78253 0.33211 0.0
O83 O 0.55169 0.79189 0.34877 0.0
Mg84 Mg 0.47975 0.27261 0.67113 0.0
O85 O 0.48013 0.23449 0.64702 0.0
O86 O 0.44656 0.22498 0.62079 0.0
Mg87 Mg 0.42305 0.25447 0.63065 0.0
C88 C 0.46681 0.22027 0.62888 0.0
C89 C 0.52814 0.27891 0.70516 0.0
O90 O 0.5128 0.27744 0.72172 0.0
O91 O 0.48585 0.29464 0.63798 0.0
O92 O 0.44991 0.28489 0.61549 0.0
O93 O 0.46129 0.25283 0.70044 0.0
O94 O 0.4423 0.265 0.66829 0.0
C95 C 0.47159 0.29713 0.61938 0.0
C96 C 0.44116 0.2546 0.68841 0.0
O97 O 0.52022 0.27745 0.68245 0.0
Mg98 Mg 0.01118 0.27844 0.85907 0.0
O99 O 0.01269 0.31634 0.88501 0.0
O100 O 0.98127 0.30878 0.90678 0.0
Mg101 Mg 0.95847 0.26924 0.89336 0.0
C102 C 1.00012 0.3233 0.90185 0.0
C103 C 0.05383 0.28563 0.82839 0.0
O104 O 0.03523 0.27628 0.81194 0.0
O105 O 0.02261 0.25849 0.89203 0.0
O106 O 0.98899 0.25174 0.91048 0.0
O107 O 0.98846 0.29151 0.82892 0.0
O108 O 0.97388 0.26992 0.858 0.0
C109 C 0.01075 0.24951 0.90894 0.0
C110 C 0.96992 0.28121 0.83885 0.0
O111 O 0.05028 0.29011 0.85097 0.0
Mg112 Mg 0.4125 0.08707 0.26831 0.0
O113 O 0.38591 0.04918 0.27017 0.0
O114 O 0.36982 0.05458 0.30579 0.0
Mg115 Mg 0.38547 0.09418 0.32654 0.0
C116 C 0.37163 0.04102 0.28557 0.0
C117 C 0.42544 0.05564 0.2213 0.0
O118 O 0.42978 0.04088 0.23825 0.0
O119 O 0.38093 0.10714 0.25874 0.0
O120 O 0.36614 0.1108 0.29527 0.0
O121 O 0.44176 0.07232 0.28916 0.0
O122 O 0.41734 0.09441 0.30697 0.0
C123 C 0.36568 0.11422 0.27248 0.0
C124 C 0.43445 0.08174 0.30928 0.0
O125 O 0.41669 0.07546 0.22744 0.0
Mg126 Mg 0.28563 0.15362 0.47573 0.0
O127 O 0.28525 0.17549 0.51399 0.0
O128 O 0.32262 0.19639 0.52684 0.0
Mg129 Mg 0.34658 0.18763 0.49697 0.0
C130 C 0.30054 0.19033 0.53013 0.0
C131 C 0.23579 0.12451 0.45798 0.0
O132 O 0.24988 0.10969 0.44896 0.0
O133 O 0.28871 0.19077 0.4593 0.0
O134 O 0.32677 0.21024 0.47069 0.0
O135 O 0.29294 0.12006 0.49303 0.0
O136 O 0.32117 0.15118 0.48455 0.0
C137 C 0.30609 0.20943 0.45913 0.0
C138 C 0.31543 0.13043 0.4946 0.0
O139 O 0.24521 0.14628 0.46989 0.0
Mg140 Mg 0.1341 0.98747 0.7864 0.0
O141 O 0.15685 0.02824 0.79125 0.0
O142 O 0.1772 0.03566 0.82884 0.0
Mg143 Mg 0.1668 0.99954 0.8479 0.0
C144 C 0.17169 0.04288 0.80793 0.0
C145 C 0.11858 0.96899 0.7306 0.0
O146 O 0.11357 0.94695 0.73946 0.0
O147 O 0.16686 0.96954 0.78175 0.0
O148 O 0.18557 0.97604 0.82024 0.0
O149 O 0.1042 0.00282 0.80208 0.0
O150 O 0.13201 0.98808 0.82426 0.0
C151 C 0.18391 0.96687 0.79741 0.0
C152 C 0.11307 0.99815 0.82338 0.0
O153 O 0.1277 0.98919 0.74532 0.0
Mg154 Mg 0.22521 0.89703 0.02469 0.0
O155 O 0.22017 0.87024 0.98644 0.0
O156 O 0.25144 0.85013 0.98832 0.0
Mg157 Mg 0.27666 0.86404 0.02387 0.0
C158 C 0.23235 0.85438 0.97682 0.0
C159 C 0.1882 0.93089 0.02693 0.0
O160 O 0.2095 0.94538 0.0333 0.0
O161 O 0.21603 0.86419 0.04918 0.0
O162 O 0.24938 0.84754 0.049 0.0
O163 O 0.24705 0.92847 0.00745 0.0
O164 O 0.26223 0.89954 0.02621 0.0
C165 C 0.22906 0.84863 0.05665 0.0
C166 C 0.26564 0.9191 0.01429 0.0
O167 O 0.18699 0.9068 0.02113 0.0
Mg168 Mg 0.27231 0.43012 0.06472 0.0
O169 O 0.27484 0.40511 0.02832 0.0
O170 O 0.30702 0.38697 0.03418 0.0
Mg171 Mg 0.32452 0.3993 0.07365 0.0
C172 C 0.28888 0.39058 0.02052 0.0
C173 C 0.23031 0.44198 0.0293 0.0
O174 O 0.24652 0.44201 0.01371 0.0
O175 O 0.2573 0.39359 0.08114 0.0
O176 O 0.2906 0.37738 0.08663 0.0
O177 O 0.29647 0.46309 0.05284 0.0
O178 O 0.3093 0.43418 0.07385 0.0
C179 C 0.26827 0.37631 0.08829 0.0
C180 C 0.31425 0.45376 0.06207 0.0
O181 O 0.23506 0.43637 0.05099 0.0
Mg182 Mg 0.80019 0.156 0.98547 0.0
O183 O 0.80354 0.18279 0.02221 0.0
O184 O 0.8387 0.20948 0.02724 0.0
Mg185 Mg 0.85808 0.19812 0.9932 0.0
C186 C 0.81854 0.20128 0.0348 0.0
C187 C 0.75383 0.13791 0.00924 0.0
O188 O 0.77039 0.1378 0.02752 0.0
O189 O 0.79414 0.18809 0.962 0.0
O190 O 0.83115 0.21121 0.96458 0.0
O191 O 0.81673 0.12726 0.00424 0.0
O192 O 0.83788 0.1575 0.98651 0.0
C193 C 0.80909 0.20633 0.95546 0.0
C194 C 0.83736 0.13772 0.99834 0.0
O195 O 0.76019 0.14465 0.98885 0.0
Mg196 Mg 0.10089 0.48323 0.29038 0.0
O197 O 0.12855 0.52049 0.29139 0.0
O198 O 0.14952 0.529 0.32878 0.0
Mg199 Mg 0.1354 0.49733 0.35159 0.0
C200 C 0.14501 0.5345 0.30693 0.0
C201 C 0.07227 0.47571 0.23877 0.0
O202 O 0.05528 0.46908 0.25283 0.0
O203 O 0.13016 0.45945 0.28753 0.0
O204 O 0.15017 0.46843 0.32554 0.0
O205 O 0.07433 0.50525 0.30461 0.0
O206 O 0.10043 0.49015 0.3286 0.0
C207 C 0.14692 0.45668 0.30351 0.0
C208 C 0.08357 0.50328 0.32666 0.0
O209 O 0.09388 0.48174 0.24861 0.0
Mg210 Mg 0.77218 0.93222 0.56255 0.0
O211 O 0.77392 0.90597 0.52667 0.0
O212 O 0.80442 0.88539 0.53289 0.0
Mg213 Mg 0.82002 0.89591 0.57311 0.0
C214 C 0.7871 0.89038 0.51901 0.0
C215 C 0.73412 0.96376 0.55118 0.0
O216 O 0.75115 0.98033 0.56522 0.0
O217 O 0.75371 0.89761 0.57873 0.0
O218 O 0.78366 0.87596 0.58364 0.0
O219 O 0.79853 0.96299 0.55118 0.0
O220 O 0.80856 0.93319 0.573 0.0
C221 C 0.76183 0.87815 0.58486 0.0
C222 C 0.81513 0.95242 0.56112 0.0
O223 O 0.73679 0.94063 0.54659 0.0
Mg224 Mg 0.86913 0.06252 0.24215 0.0
O225 O 0.84705 0.02136 0.24221 0.0
O226 O 0.83104 0.02323 0.27807 0.0
Mg227 Mg 0.84357 0.06247 0.3011 0.0
C228 C 0.8339 0.01092 0.25752 0.0
C229 C 0.89236 0.07335 0.19796 0.0
O230 O 0.89963 0.09289 0.21543 0.0
O231 O 0.83543 0.07974 0.2347 0.0
O232 O 0.8234 0.08155 0.27257 0.0
O233 O 0.90118 0.05121 0.26074 0.0
O234 O 0.87466 0.06844 0.28049 0.0
C235 C 0.82142 0.0864 0.25018 0.0
C236 C 0.89387 0.05899 0.28144 0.0
O237 O 0.87565 0.05545 0.20182 0.0
Mg238 Mg 0.30047 0.6526 0.49026 0.0
O239 O 0.30398 0.68056 0.52609 0.0
O240 O 0.33878 0.7078 0.52997 0.0
Mg241 Mg 0.35734 0.69605 0.49565 0.0
C242 C 0.31888 0.69956 0.53801 0.0
C243 C 0.24682 0.62303 0.48204 0.0
O244 O 0.25496 0.61036 0.4637 0.0
O245 O 0.29318 0.6831 0.46561 0.0
O246 O 0.32911 0.70849 0.46782 0.0
O247 O 0.31786 0.62568 0.51032 0.0
O248 O 0.33828 0.65476 0.49058 0.0
C249 C 0.30699 0.70218 0.459 0.0
C250 C 0.33826 0.63595 0.50371 0.0
O251 O 0.26091 0.64154 0.49548 0.0
Mg252 Mg 0.37015 0.56489 0.74244 0.0
O253 O 0.34716 0.52455 0.74453 0.0
O254 O 0.33213 0.52846 0.78085 0.0
Mg255 Mg 0.34596 0.56828 0.80228 0.0
C256 C 0.33417 0.51521 0.76053 0.0
C257 C 0.38998 0.57435 0.69539 0.0
O258 O 0.39624 0.59567 0.71086 0.0
O259 O 0.33671 0.58263 0.73487 0.0
O260 O 0.32542 0.5861 0.77305 0.0
O261 O 0.40232 0.55374 0.76142 0.0
O262 O 0.3764 0.5724 0.7807 0.0
C263 C 0.32302 0.58999 0.75039 0.0
C264 C 0.39547 0.56273 0.78196 0.0
O265 O 0.3755 0.55581 0.70184 0.0
Mg266 Mg 0.60611 0.98051 0.79029 0.0
O267 O 0.63372 0.01764 0.79156 0.0
O268 O 0.65625 0.02495 0.82809 0.0
Mg269 Mg 0.64195 0.99285 0.85076 0.0
C270 C 0.65087 0.03108 0.80665 0.0
C271 C 0.57644 0.98265 0.74123 0.0
O272 O 0.56131 0.98478 0.75773 0.0
O273 O 0.63529 0.95645 0.78549 0.0
O274 O 0.65484 0.96341 0.82361 0.0
O275 O 0.58068 0.00311 0.80669 0.0
O276 O 0.60647 0.98607 0.82892 0.0
C277 C 0.65164 0.95234 0.8013 0.0
C278 C 0.59006 0.99981 0.82823 0.0
O279 O 0.59754 0.97989 0.74847 0.0
Mg280 Mg 0.79031 0.64439 0.98104 0.0
O281 O 0.7875 0.66979 0.0165 0.0
O282 O 0.82339 0.69484 0.02853 0.0
Mg283 Mg 0.84962 0.68309 0.00205 0.0
C284 C 0.8013 0.68762 0.03127 0.0
C285 C 0.73523 0.64891 0.97725 0.0
O286 O 0.74324 0.67308 0.98631 0.0
O287 O 0.79239 0.67894 0.96059 0.0
O288 O 0.83021 0.70016 0.9708 0.0
O289 O 0.79846 0.61418 0.00294 0.0
O290 O 0.8259 0.64512 0.99281 0.0
C291 C 0.80952 0.69727 0.95862 0.0
C292 C 0.82063 0.6258 0.00496 0.0
O293 O 0.74998 0.63419 0.97295 0.0
Mg294 Mg 0.91111 0.58802 0.77017 0.0
O295 O 0.88492 0.54948 0.77072 0.0
O296 O 0.87007 0.55203 0.80721 0.0
Mg297 Mg 0.88496 0.59128 0.82907 0.0
C298 C 0.87147 0.53977 0.78617 0.0
C299 C 0.93756 0.58329 0.72537 0.0
O300 O 0.95326 0.59495 0.74401 0.0
O301 O 0.87893 0.60786 0.76206 0.0
O302 O 0.86488 0.60882 0.79901 0.0
O303 O 0.94125 0.57312 0.78925 0.0
O304 O 0.91673 0.59328 0.80909 0.0
C305 C 0.86382 0.61367 0.77662 0.0
C306 C 0.93439 0.58122 0.81007 0.0
O307 O 0.91565 0.57769 0.72916 0.0
Mg308 Mg 0.72185 0.39569 0.52407 0.0
O309 O 0.71852 0.36938 0.48552 0.0
O310 O 0.75065 0.35066 0.48819 0.0
Mg311 Mg 0.77479 0.36488 0.52451 0.0
C312 C 0.73157 0.35429 0.47615 0.0
C313 C 0.68423 0.42887 0.52509 0.0
O314 O 0.70535 0.44326 0.53274 0.0
O315 O 0.71308 0.36234 0.54847 0.0
O316 O 0.74732 0.34728 0.54895 0.0
O317 O 0.74367 0.42803 0.50778 0.0
O318 O 0.75914 0.39956 0.52687 0.0
C319 C 0.72671 0.34743 0.55628 0.0
C320 C 0.76245 0.41935 0.51528 0.0
O321 O 0.6832 0.4048 0.51919 0.0
Mg322 Mg 0.63609 0.48507 0.28718 0.0
O323 O 0.65707 0.52645 0.29368 0.0
O324 O 0.67614 0.53397 0.33186 0.0
Mg325 Mg 0.66595 0.49707 0.35008 0.0
C326 C 0.67094 0.54134 0.31093 0.0
C327 C 0.61964 0.46906 0.23118 0.0
O328 O 0.61212 0.44719 0.23956 0.0
O329 O 0.67046 0.46954 0.28376 0.0
O330 O 0.68614 0.47441 0.32335 0.0
O331 O 0.6045 0.49805 0.30177 0.0
O332 O 0.63253 0.48448 0.32469 0.0
C333 C 0.68636 0.46632 0.30048 0.0
C334 C 0.61298 0.49341 0.32322 0.0
O335 O 0.63089 0.48813 0.24623 0.0
Tb336 Tb 0.02053 0.05667 0.01489 0.0
C337 C 0.01735 0.01412 0.96837 0.0
Tb338 Tb 0.99709 1.00073 0.01784 0.0
O339 O 0.05421 0.05214 0.03572 0.0
O340 O 0.03185 0.02106 0.01508 0.0
O341 O 0.01862 0.03878 0.97643 0.0
C342 C 0.99318 0.95488 0.03417 0.0
O343 O 0.01228 0.99578 0.98276 0.0
C344 C 0.96743 0.03007 1.00175 0.0
C345 C 0.99753 0.04379 0.06351 0.0
O346 O 0.9802 0.95986 0.01511 0.0
O347 O 0.00802 0.97564 0.04385 0.0
O348 O 0.96305 0.00503 0.99721 0.0
O349 O 0.98586 0.03625 0.01703 0.0
O350 O 0.99651 0.01903 0.05579 0.0
O351 O 0.00375 0.06193 0.0491 0.0
C352 C 0.0282 0.10217 0.99795 0.0
O353 O 0.03723 0.09776 0.01941 0.0
O354 O 0.01482 0.08125 0.98654 0.0
C355 C 0.05015 0.02723 0.03053 0.0
Tb356 Tb 0.25984 0.81026 0.26968 0.0
C357 C 0.30135 0.77792 0.26328 0.0
Tb358 Tb 0.24672 0.75276 0.25795 0.0
O359 O 0.25335 0.80803 0.30862 0.0
O360 O 0.26494 0.77852 0.28847 0.0
O361 O 0.29462 0.80047 0.26256 0.0
C362 C 0.229 0.70487 0.2658 0.0
O363 O 0.28561 0.75655 0.26446 0.0
C364 C 0.24976 0.77712 0.21858 0.0
C365 C 0.20511 0.78586 0.26215 0.0
O366 O 0.23816 0.71106 0.24583 0.0
O367 O 0.22991 0.7255 0.28097 0.0
O368 O 0.25382 0.75393 0.21933 0.0
O369 O 0.24209 0.78426 0.23861 0.0
O370 O 0.21153 0.76311 0.26268 0.0
O371 O 0.22117 0.80719 0.26197 0.0
C372 C 0.27751 0.86 0.26851 0.0
O373 O 0.268 0.85031 0.28688 0.0
O374 O 0.27674 0.84173 0.25058 0.0
C375 C 0.25777 0.785 0.30886 0.0
Tb376 Tb 0.53792 0.03199 0.51559 0.0
C377 C 0.52449 0.01152 0.56701 0.0
Tb378 Tb 0.48684 0.02711 0.52938 0.0
O379 O 0.54286 0.07424 0.52236 0.0
O380 O 0.52023 0.05074 0.54192 0.0
O381 O 0.54036 0.01532 0.5507 0.0
C382 C 0.44694 0.0422 0.54156 0.0
O383 O 0.50258 0.0166 0.56346 0.0
C384 C 0.4971 0.98508 0.5075 0.0
C385 C 0.49987 0.04623 0.47763 0.0
O386 O 0.44776 0.02041 0.52877 0.0
O387 O 0.46852 0.05509 0.54766 0.0
O388 O 0.481 0.98523 0.52296 0.0
O389 O 0.50456 0.00771 0.50319 0.0
O390 O 0.48536 0.04577 0.49541 0.0
O391 O 0.52075 0.0385 0.48028 0.0
C392 C 0.57917 0.0182 0.50616 0.0
O393 O 0.57589 0.04176 0.50992 0.0
O394 O 0.5592 0.00266 0.50736 0.0
C395 C 0.52712 0.07354 0.53819 0.0
Tb396 Tb 0.26078 0.28269 0.79774 0.0
C397 C 0.26755 0.3269 0.76274 0.0
Tb398 Tb 0.24884 0.26899 0.74235 0.0
O399 O 0.29132 0.2628 0.79608 0.0
O400 O 0.28035 0.28145 0.76677 0.0
O401 O 0.2633 0.32062 0.785 0.0
C402 C 0.25384 0.24859 0.69692 0.0
O403 O 0.26615 0.30914 0.74337 0.0
C404 C 0.21419 0.28388 0.76506 0.0
C405 C 0.23945 0.22497 0.77835 0.0
O406 O 0.2379 0.26236 0.70226 0.0
O407 O 0.26648 0.24614 0.71707 0.0
O408 O 0.21677 0.28614 0.74193 0.0
O409 O 0.22893 0.27087 0.77311 0.0
O410 O 0.24109 0.23081 0.75536 0.0
O411 O 0.24426 0.24277 0.798 0.0
C412 C 0.26455 0.30297 0.84501 0.0
O413 O 0.28219 0.29847 0.83294 0.0
O414 O 0.24462 0.29583 0.83055 0.0
C415 C 0.29458 0.26748 0.7737 0.0
Tb416 Tb 0.01352 0.0348 0.47795 0.0
C417 C 0.98197 0.00943 0.51625 0.0
Tb418 Tb 0.03907 0.02247 0.52569 0.0
O419 O 0.00204 0.99398 0.46451 0.0
O420 O 0.03346 0.00684 0.48804 0.0
O421 O 0.98257 0.02262 0.49699 0.0
C422 C 0.05939 0.00129 0.56201 0.0
O423 O 0.00165 0.0059 0.52941 0.0
C424 C 0.03132 0.06964 0.5271 0.0
C425 C 0.06916 0.04799 0.48758 0.0
O426 O 0.06806 0.02293 0.5546 0.0
O427 O 0.03899 0.99145 0.5491 0.0
O428 O 0.04832 0.0634 0.54111 0.0
O429 O 0.01838 0.04957 0.51582 0.0
O430 O 0.06772 0.02958 0.50218 0.0
O431 O 0.04989 0.0564 0.47915 0.0
C432 C 0.9951 0.05417 0.43951 0.0
O433 O 0.01176 0.04051 0.43901 0.0
O434 O 0.98904 0.05727 0.46178 0.0
C435 C 0.0192 0.98701 0.47771 0.0
Tb436 Tb 0.28925 0.78487 0.76326 0.0
C437 C 0.25181 0.79833 0.79873 0.0
Tb438 Tb 0.24002 0.78984 0.73956 0.0
O439 O 0.29725 0.82572 0.77787 0.0
O440 O 0.27461 0.81273 0.74541 0.0
O441 O 0.27108 0.78787 0.79649 0.0
C442 C 0.20123 0.80729 0.72424 0.0
O443 O 0.23853 0.80316 0.77909 0.0
C444 C 0.24613 0.74272 0.74209 0.0
C445 C 0.27711 0.77383 0.70447 0.0
O446 O 0.20155 0.78904 0.73808 0.0
O447 O 0.22266 0.8155 0.71876 0.0
O448 O 0.2313 0.74882 0.7253 0.0
O449 O 0.25448 0.76218 0.75761 0.0
O450 O 0.25768 0.78428 0.706 0.0
O451 O 0.29054 0.77009 0.72444 0.0
C452 C 0.32893 0.77023 0.78056 0.0
O453 O 0.32807 0.78767 0.76587 0.0
O454 O 0.30747 0.76091 0.78528 0.0
C455 C 0.28268 0.83213 0.76109 0.0
Tb456 Tb 0.48062 0.03411 0.014 0.0
C457 C 0.51367 0.99253 0.0192 0.0
Tb458 Tb 0.53422 0.05178 0.0298 0.0
O459 O 0.48505 0.04402 0.97645 0.0
O460 O 0.51264 0.03324 0.99749 0.0
O461 O 0.49186 0.99784 0.01998 0.0
C462 C 0.58008 0.07284 0.02841 0.0
O463 O 0.53282 0.01077 0.01881 0.0
C464 C 0.5079 0.04337 0.06618 0.0
C465 C 0.50025 0.09338 0.02523 0.0
O466 O 0.57219 0.05792 0.04434 0.0
O467 O 0.56217 0.076 0.01349 0.0
O468 O 0.53047 0.0419 0.06738 0.0
O469 O 0.50235 0.05236 0.04662 0.0
O470 O 0.52242 0.08856 0.02623 0.0
O471 O 0.48105 0.07478 0.02341 0.0
C472 C 0.43445 0.01272 0.01246 0.0
O473 O 0.44426 0.02318 0.99462 0.0
O474 O 0.45059 0.01441 0.03113 0.0
C475 C 0.50747 0.04207 0.9778 0.0
Tb476 Tb 0.22663 0.26864 0.26997 0.0
C477 C 0.2713 0.28823 0.31174 0.0
Tb478 Tb 0.27592 0.29058 0.25614 0.0
O479 O 0.22977 0.2302 0.25297 0.0
O480 O 0.25991 0.25676 0.2693 0.0
O481 O 0.24768 0.28413 0.30583 0.0
C482 C 0.31654 0.29503 0.23523 0.0
O483 O 0.28645 0.2883 0.29472 0.0
C484 C 0.25027 0.32439 0.27001 0.0
C485 C 0.23077 0.27298 0.21451 0.0
O486 O 0.30442 0.27387 0.24069 0.0
O487 O 0.30593 0.31391 0.24173 0.0
O488 O 0.27356 0.32894 0.27359 0.0
O489 O 0.24292 0.30284 0.25735 0.0
O490 O 0.25442 0.27694 0.22019 0.0
O491 O 0.21562 0.27197 0.23158 0.0
C492 C 0.18715 0.26196 0.29301 0.0
O493 O 0.19967 0.24452 0.28754 0.0
O494 O 0.19638 0.28299 0.28474 0.0
C495 C 0.25305 0.23494 0.25703 0.0
Tb496 Tb 0.51334 0.54415 0.98146 0.0
C497 C 0.48065 0.51614 0.0174 0.0
Tb498 Tb 0.53748 0.53151 0.03 0.0
O499 O 0.50469 0.5035 0.96629 0.0
O500 O 0.53442 0.51727 0.99208 0.0
O501 O 0.4816 0.52993 0.99858 0.0
C502 C 0.5573 0.5102 0.0666 0.0
O503 O 0.50012 0.51279 0.03105 0.0
C504 C 0.52808 0.57797 0.03204 0.0
C505 C 0.56846 0.56069 0.99453 0.0
O506 O 0.53629 0.50137 0.05455 0.0
O507 O 0.5669 0.5309 0.05815 0.0
O508 O 0.54454 0.57188 0.04689 0.0
O509 O 0.51625 0.55788 0.01958 0.0
O510 O 0.56718 0.54157 0.00831 0.0
O511 O 0.54895 0.56802 0.98512 0.0
C512 C 0.49538 0.56328 0.94253 0.0
O513 O 0.51315 0.55112 0.94287 0.0
O514 O 0.48805 0.56517 0.96432 0.0
C515 C 0.52174 0.49721 0.98021 0.0
Tb516 Tb 0.78879 0.28319 0.26168 0.0
C517 C 0.75169 0.29795 0.29736 0.0
Tb518 Tb 0.73907 0.28729 0.23839 0.0
O519 O 0.79763 0.32422 0.2752 0.0
O520 O 0.77353 0.31077 0.24377 0.0
O521 O 0.77097 0.28746 0.2951 0.0
C522 C 0.6991 0.30204 0.22173 0.0
O523 O 0.73806 0.30215 0.27766 0.0
C524 C 0.74586 0.24043 0.24162 0.0
C525 C 0.77635 0.27159 0.20303 0.0
O526 O 0.7005 0.28616 0.23794 0.0
O527 O 0.7201 0.30947 0.21488 0.0
O528 O 0.7307 0.24606 0.22492 0.0
O529 O 0.75418 0.26019 0.25675 0.0
O530 O 0.75681 0.28183 0.20476 0.0
O531 O 0.79005 0.26812 0.22292 0.0
C532 C 0.82809 0.2685 0.28016 0.0
O533 O 0.82763 0.28557 0.26499 0.0
O534 O 0.80644 0.25949 0.28453 0.0
C535 C 0.78227 0.33039 0.25906 0.0
Tb536 Tb 0.9776 0.53414 0.51513 0.0
C537 C 0.00855 0.49 0.51988 0.0
Tb538 Tb 0.03214 0.5485 0.52842 0.0
O539 O 0.98154 0.54479 0.47776 0.0
O540 O 0.00826 0.53081 0.49736 0.0
O541 O 0.9872 0.49673 0.52036 0.0
C542 C 0.07745 0.56613 0.52121 0.0
O543 O 0.02859 0.50705 0.51981 0.0
C544 C 0.0072 0.54231 0.5661 0.0
C545 C 0.00081 0.59279 0.52548 0.0
O546 O 0.0707 0.55747 0.54132 0.0
O547 O 0.05875 0.56504 0.50555 0.0
O548 O 0.02935 0.53915 0.56625 0.0
O549 O 0.00146 0.55141 0.54663 0.0
O550 O 0.02242 0.58647 0.52647 0.0
O551 O 0.98063 0.57546 0.52356 0.0
C552 C 0.93097 0.51531 0.51485 0.0
O553 O 0.94122 0.52278 0.49597 0.0
O554 O 0.94694 0.51866 0.53394 0.0
C555 C 0.00322 0.5404 0.47809 0.0
Tb556 Tb 0.76027 0.78109 0.29872 0.0
C557 C 0.77408 0.82245 0.26356 0.0
Tb558 Tb 0.75176 0.76406 0.24326 0.0
O559 O 0.7993 0.78905 0.2975 0.0
O560 O 0.77738 0.76067 0.27233 0.0
O561 O 0.76734 0.8182 0.28553 0.0
C562 C 0.75636 0.75011 0.19591 0.0
O563 O 0.77243 0.80349 0.24515 0.0
C564 C 0.7132 0.77145 0.26342 0.0
C565 C 0.73774 0.72294 0.27923 0.0
O566 O 0.74823 0.77027 0.20413 0.0
O567 O 0.76181 0.73802 0.21422 0.0
O568 O 0.71288 0.75625 0.24312 0.0
O569 O 0.7342 0.78406 0.26951 0.0
O570 O 0.74403 0.72683 0.25694 0.0
O571 O 0.74001 0.74201 0.29757 0.0
C572 C 0.75742 0.79613 0.3463 0.0
O573 O 0.77024 0.77987 0.33817 0.0
O574 O 0.74602 0.80353 0.32768 0.0
C575 C 0.79852 0.77287 0.27778 0.0
Tb576 Tb 0.75979 0.31143 0.76275 0.0
C577 C 0.79895 0.27749 0.76822 0.0
Tb578 Tb 0.7436 0.25304 0.75985 0.0
O579 O 0.7753 0.3148 0.80143 0.0
O580 O 0.74732 0.28492 0.78756 0.0
O581 O 0.79377 0.29877 0.7604 0.0
C582 C 0.72924 0.2051 0.76992 0.0
O583 O 0.78205 0.25796 0.7717 0.0
C584 C 0.74057 0.27056 0.71649 0.0
C585 C 0.7046 0.28755 0.75509 0.0
O586 O 0.7468 0.21221 0.75706 0.0
O587 O 0.72019 0.22488 0.77706 0.0
O588 O 0.72893 0.24857 0.72078 0.0
O589 O 0.75589 0.27946 0.73498 0.0
O590 O 0.70987 0.26622 0.76269 0.0
O591 O 0.72139 0.30692 0.75113 0.0
C592 C 0.77359 0.36059 0.75606 0.0
O593 O 0.75807 0.35227 0.77073 0.0
O594 O 0.78083 0.34117 0.74483 0.0
C595 C 0.76282 0.29338 0.80596 0.0
Tb596 Tb 0.71867 0.76344 0.76377 0.0
C597 C 0.76118 0.76721 0.80547 0.0
Tb598 Tb 0.77011 0.77656 0.75069 0.0
O599 O 0.72273 0.72423 0.76894 0.0
O600 O 0.74209 0.74424 0.74428 0.0
O601 O 0.73842 0.76908 0.8004 0.0
C602 C 0.81494 0.77794 0.7403 0.0
O603 O 0.77649 0.76787 0.78855 0.0
C604 C 0.74853 0.81533 0.76046 0.0
C605 C 0.728 0.77097 0.7084 0.0
O606 O 0.7989 0.75724 0.73943 0.0
O607 O 0.8058 0.79777 0.74726 0.0
O608 O 0.76408 0.81506 0.74457 0.0
O609 O 0.74704 0.79536 0.77094 0.0
O610 O 0.75075 0.7693 0.71397 0.0
O611 O 0.71243 0.77075 0.72515 0.0
C612 C 0.67611 0.76901 0.77768 0.0
O613 O 0.68347 0.74732 0.7743 0.0
O614 O 0.69231 0.78712 0.77215 0.0
C615 C 0.73969 0.7241 0.7546 0.0
Tb616 Tb 0.51539 0.55587 0.50968 0.0
C617 C 0.51836 0.51123 0.4687 0.0
Tb618 Tb 0.50025 0.50005 0.52016 0.0
O619 O 0.55265 0.55151 0.50805 0.0
O620 O 0.53108 0.52939 0.52937 0.0
O621 O 0.51509 0.5352 0.47317 0.0
C622 C 0.49879 0.45224 0.53106 0.0
O623 O 0.51563 0.49469 0.48517 0.0
C624 C 0.46473 0.52394 0.50848 0.0
C625 C 0.49484 0.54449 0.56025 0.0
O626 O 0.48332 0.4592 0.51551 0.0
O627 O 0.51489 0.47213 0.54031 0.0
O628 O 0.46304 0.50514 0.52187 0.0
O629 O 0.48491 0.5264 0.5003 0.0
O630 O 0.49887 0.52066 0.5564 0.0
O631 O 0.49847 0.56101 0.54378 0.0
C632 C 0.51738 0.60238 0.49552 0.0
O633 O 0.50438 0.58121 0.48421 0.0
O634 O 0.52902 0.59765 0.51555 0.0
C635 C 0.55116 0.53232 0.52088 0.0
Tb636 Tb 0.04509 0.53372 0.01644 0.0
C637 C 0.02928 0.51644 0.06656 0.0
Tb638 Tb 0.99314 0.53259 0.026 0.0
O639 O 0.05599 0.56815 0.0444 0.0
O640 O 0.02298 0.56094 0.0232 0.0
O641 O 0.04496 0.51551 0.05014 0.0
C642 C 0.95459 0.545 0.04453 0.0
O643 O 0.00861 0.52401 0.06159 0.0
C644 C 0.00115 0.49155 1.00019 0.0
C645 C 0.00851 0.54867 0.97548 0.0
O646 O 0.97632 0.55769 0.05008 0.0
O647 O 0.95454 0.52511 0.02854 0.0
O648 O 0.98082 0.49931 0.99801 0.0
O649 O 0.01475 0.50498 0.01814 0.0
O650 O 0.99364 0.5512 0.99256 0.0
O651 O 0.02896 0.54029 0.97999 0.0
C652 C 0.08591 0.52203 0.00229 0.0
O653 O 0.06473 0.50802 0.99622 0.0
O654 O 0.08394 0.54309 0.0156 0.0
C655 C 0.03564 0.5756 0.04077 0.0
H656 H 0.99911 0.24147 0.95504 0.0
H657 H 0.04591 0.22166 0.9012 0.0
H658 H 0.01012 0.20878 0.97939 0.0
H659 H 0.0567 0.18868 0.92555 0.0
H660 H 0.02353 0.1078 0.94956 0.0
H661 H 0.02662 0.14754 0.93096 0.0
H662 H 0.04465 0.19145 0.00344 0.0
H663 H 0.04209 0.15121 0.02219 0.0
C664 C 0.01219 0.23054 0.94872 0.0
C665 C 0.0214 0.23386 0.92604 0.0
C666 C 0.01862 0.21197 0.96278 0.0
C667 C 0.0341 0.1961 0.95423 0.0
C668 C 0.04464 0.20063 0.93246 0.0
C669 C 0.03852 0.21954 0.91858 0.0
C670 C 0.02855 0.12594 0.96151 0.0
C671 C 0.03244 0.12654 0.98728 0.0
C672 C 0.03054 0.14868 0.95084 0.0
C673 C 0.03601 0.17255 0.96575 0.0
C674 C 0.04051 0.17324 0.99156 0.0
C675 C 0.03905 0.15033 0.00226 0.0
H676 H 0.06915 0.79562 0.18367 0.0
H677 H 0.04886 0.7631 0.24944 0.0
H678 H 0.11145 0.79958 0.19905 0.0
H679 H 0.09092 0.76722 0.26474 0.0
H680 H 0.16699 0.74815 0.26652 0.0
H681 H 0.12478 0.74698 0.25358 0.0
H682 H 0.14231 0.82346 0.233 0.0
H683 H 0.18466 0.82464 0.2458 0.0
C684 C 0.07368 0.78941 0.20141 0.0
C685 C 0.05559 0.77896 0.21526 0.0
C686 C 0.09791 0.79183 0.2103 0.0
C687 C 0.10454 0.78367 0.23311 0.0
C688 C 0.08642 0.77342 0.24699 0.0
C689 C 0.06229 0.77117 0.23822 0.0
C690 C 0.16185 0.76486 0.25952 0.0
C691 C 0.17924 0.78649 0.25723 0.0
C692 C 0.13762 0.7642 0.25215 0.0
C693 C 0.13019 0.78507 0.24213 0.0
C694 C 0.1475 0.80696 0.24037 0.0
C695 C 0.17174 0.80772 0.24797 0.0
H696 H 0.50065 0.82847 0.44694 0.0
H697 H 0.50802 0.87115 0.38463 0.0
H698 H 0.50481 0.86826 0.47467 0.0
H699 H 0.51062 0.91128 0.41209 0.0
H700 H 0.52539 0.98183 0.46982 0.0
H701 H 0.53039 0.94307 0.44422 0.0
H702 H 0.48042 0.89729 0.48437 0.0
H703 H 0.47679 0.93572 0.51073 0.0
C704 C 0.50335 0.84655 0.43927 0.0
C705 C 0.50396 0.84689 0.41375 0.0
C706 C 0.50544 0.86937 0.45509 0.0
C707 C 0.50745 0.8931 0.44566 0.0
C708 C 0.50924 0.89347 0.42013 0.0
C709 C 0.50771 0.87053 0.40433 0.0
C710 C 0.5159 0.96337 0.47342 0.0
C711 C 0.50091 0.96173 0.49244 0.0
C712 C 0.51853 0.94115 0.45855 0.0
C713 C 0.50593 0.91686 0.46217 0.0
C714 C 0.49095 0.91544 0.48131 0.0
C715 C 0.48864 0.93755 0.49635 0.0
H716 H 0.4344 0.2464 0.73595 0.0
H717 H 0.39573 0.25025 0.66533 0.0
H718 H 0.39772 0.24595 0.75555 0.0
H719 H 0.35877 0.24858 0.68462 0.0
H720 H 0.30866 0.28572 0.73177 0.0
H721 H 0.34242 0.27763 0.7101 0.0
H722 H 0.35883 0.22622 0.76237 0.0
H723 H 0.32524 0.23517 0.78456 0.0
C724 C 0.41791 0.24636 0.72445 0.0
C725 C 0.41809 0.24863 0.69909 0.0
C726 C 0.39677 0.24605 0.73571 0.0
C727 C 0.3752 0.2477 0.72183 0.0
C728 C 0.37511 0.24805 0.6961 0.0
C729 C 0.3963 0.24871 0.68493 0.0
C730 C 0.31938 0.27254 0.73853 0.0
C731 C 0.31437 0.26115 0.75991 0.0
C732 C 0.33869 0.26769 0.72596 0.0
C733 C 0.3535 0.25116 0.73434 0.0
C734 C 0.3481 0.23932 0.75551 0.0
C735 C 0.32879 0.24433 0.76819 0.0
H736 H 0.02075 0.88494 0.5855 0.0
H737 H 0.96537 0.8417 0.53005 0.0
H738 H 0.03151 0.91621 0.55745 0.0
H739 H 0.97708 0.87221 0.50118 0.0
H740 H 0.97848 0.95156 0.47521 0.0
H741 H 0.97227 0.91388 0.49659 0.0
H742 H 0.0481 0.92777 0.52192 0.0
H743 H 0.05389 0.9666 0.50146 0.0
C744 C 0.01127 0.8818 0.56703 0.0
C745 C 0.99202 0.8611 0.56002 0.0
C746 C 0.01759 0.89964 0.55081 0.0
C747 C 0.0051 0.89689 0.52702 0.0
C748 C 0.98673 0.87528 0.51956 0.0
C749 C 0.98006 0.85772 0.53601 0.0
C750 C 0.99389 0.94626 0.48495 0.0
C751 C 0.01662 0.96197 0.48694 0.0
C752 C 0.99038 0.92451 0.49713 0.0
C753 C 0.00965 0.91776 0.51116 0.0
C754 C 0.03275 0.93267 0.51171 0.0
C755 C 0.03616 0.95475 0.49985 0.0
H756 H 0.47196 0.79799 0.85447 0.0
H757 H 0.4387 0.72817 0.88063 0.0
H758 H 0.43535 0.79764 0.82778 0.0
H759 H 0.40267 0.72662 0.85278 0.0
H760 H 0.33302 0.74803 0.82246 0.0
H761 H 0.36973 0.74572 0.84747 0.0
H762 H 0.41118 0.77796 0.79193 0.0
H763 H 0.37419 0.78186 0.76783 0.0
C764 C 0.45682 0.78246 0.85429 0.0
C765 C 0.45796 0.76326 0.86969 0.0
C766 C 0.43592 0.78204 0.8388 0.0
C767 C 0.41598 0.76202 0.83797 0.0
C768 C 0.41741 0.74263 0.85324 0.0
C769 C 0.43808 0.74344 0.86916 0.0
C770 C 0.35001 0.75433 0.81553 0.0
C771 C 0.35094 0.76525 0.7934 0.0
C772 C 0.37111 0.7529 0.82979 0.0
C773 C 0.39355 0.76184 0.82188 0.0
C774 C 0.39428 0.77153 0.79896 0.0
C775 C 0.37315 0.7735 0.78498 0.0
H776 H 0.51149 0.24806 0.09567 0.0
H777 H 0.44699 0.23719 0.04471 0.0
H778 H 0.51835 0.20604 0.07917 0.0
H779 H 0.45427 0.19551 0.02774 0.0
H780 H 0.45813 0.11032 0.02857 0.0
H781 H 0.45259 0.15382 0.0405 0.0
H782 H 0.52889 0.18135 0.04353 0.0
H783 H 0.53459 0.13746 0.03222 0.0
C784 C 0.49888 0.23683 0.08079 0.0
C785 C 0.47857 0.24593 0.07168 0.0
C786 C 0.50294 0.2128 0.07118 0.0
C787 C 0.48685 0.19736 0.05214 0.0
C788 C 0.46682 0.20672 0.04267 0.0
C789 C 0.46268 0.23067 0.05237 0.0
C790 C 0.47376 0.12561 0.03153 0.0
C791 C 0.49685 0.12032 0.02962 0.0
C792 C 0.47054 0.15066 0.03824 0.0
C793 C 0.4903 0.1711 0.0431 0.0
C794 C 0.51333 0.16597 0.04031 0.0
C795 C 0.51657 0.14083 0.03366 0.0
H796 H 0.09256 0.29286 0.40427 0.0
H797 H 0.07555 0.21061 0.38323 0.0
H798 H 0.12471 0.29593 0.37749 0.0
H799 H 0.10658 0.21377 0.35579 0.0
H800 H 0.17533 0.22352 0.3208 0.0
H801 H 0.14746 0.22136 0.35196 0.0
H802 H 0.12886 0.29307 0.33448 0.0
H803 H 0.15784 0.29575 0.30414 0.0
C804 C 0.09584 0.27543 0.39416 0.0
C805 C 0.08141 0.25153 0.39578 0.0
C806 C 0.11406 0.27721 0.37857 0.0
C807 C 0.11807 0.25515 0.36416 0.0
C808 C 0.10427 0.23116 0.36673 0.0
C809 C 0.08632 0.22936 0.38246 0.0
C810 C 0.16514 0.23871 0.32353 0.0
C811 C 0.16853 0.25969 0.30998 0.0
C812 C 0.14913 0.2375 0.34139 0.0
C813 C 0.13584 0.25704 0.34581 0.0
C814 C 0.13909 0.27791 0.33194 0.0
C815 C 0.15542 0.2793 0.31431 0.0
H816 H 0.88845 0.03164 0.16261 0.0
H817 H 0.92859 0.10861 0.18559 0.0
H818 H 0.91532 0.02566 0.13101 0.0
H819 H 0.95565 0.10242 0.15456 0.0
H820 H 0.9846 0.08945 0.07905 0.0
H821 H 0.95834 0.09724 0.11059 0.0
H822 H 0.95681 0.02046 0.12961 0.0
H823 H 0.98273 0.01245 0.09777 0.0
C824 C 0.90282 0.04736 0.16076 0.0
C825 C 0.9064 0.07056 0.17666 0.0
C826 C 0.9184 0.04384 0.14287 0.0
C827 C 0.93785 0.06346 0.14049 0.0
C828 C 0.94083 0.08697 0.15579 0.0
C829 C 0.92529 0.09047 0.17364 0.0
C830 C 0.97907 0.07437 0.09026 0.0
C831 C 0.98571 0.05027 0.08576 0.0
C832 C 0.96392 0.07883 0.10832 0.0
C833 C 0.95513 0.05932 0.12233 0.0
C834 C 0.96277 0.03568 0.1187 0.0
C835 C 0.97788 0.0312 0.10063 0.0
H836 H 0.32423 0.75086 0.44807 0.0
H837 H 0.26894 0.684 0.42358 0.0
H838 H 0.3106 0.77138 0.41273 0.0
H839 H 0.25593 0.70423 0.38801 0.0
H840 H 0.26921 0.73773 0.31205 0.0
H841 H 0.27904 0.71843 0.34929 0.0
H842 H 0.26969 0.78648 0.39473 0.0
H843 H 0.25869 0.80542 0.35735 0.0
C844 C 0.30909 0.74061 0.4353 0.0
C845 C 0.29768 0.71577 0.43879 0.0
C846 C 0.30126 0.7524 0.41509 0.0
C847 C 0.28224 0.73938 0.39754 0.0
C848 C 0.27068 0.7147 0.40116 0.0
C849 C 0.27809 0.70319 0.42165 0.0
C850 C 0.26871 0.74839 0.32994 0.0
C851 C 0.26276 0.77298 0.33166 0.0
C852 C 0.27447 0.73736 0.35129 0.0
C853 C 0.27514 0.75092 0.37496 0.0
C854 C 0.26938 0.77559 0.37675 0.0
C855 C 0.26297 0.78637 0.35535 0.0
H856 H 0.59955 0.97154 0.70057 0.0
H857 H 0.53652 0.99834 0.72253 0.0
H858 H 0.58684 0.97521 0.65742 0.0
H859 H 0.5244 0.00309 0.67995 0.0
H860 H 0.49627 0.99061 0.60014 0.0
H861 H 0.50886 0.98066 0.64108 0.0
H862 H 0.58298 0.00582 0.62976 0.0
H863 H 0.57033 0.01462 0.58835 0.0
C864 C 0.58305 0.97829 0.69619 0.0
C865 C 0.56901 0.98456 0.71496 0.0
C866 C 0.5758 0.98054 0.67148 0.0
C867 C 0.55449 0.98935 0.66506 0.0
C868 C 0.54059 0.99565 0.68397 0.0
C869 C 0.54766 0.99312 0.70852 0.0
C870 C 0.51526 0.99379 0.60632 0.0
C871 C 0.53228 0.00358 0.59107 0.0
C872 C 0.52251 0.98825 0.62989 0.0
C873 C 0.54697 0.99278 0.63899 0.0
C874 C 0.56402 0.00182 0.62337 0.0
C875 C 0.55675 0.007 0.59962 0.0
H876 H 0.25552 0.3968 0.98329 0.0
H877 H 0.31126 0.35384 0.99975 0.0
H878 H 0.24883 0.37534 0.94078 0.0
H879 H 0.30414 0.33209 0.95773 0.0
H880 H 0.30593 0.32124 0.87477 0.0
H881 H 0.31089 0.34258 0.91705 0.0
H882 H 0.23396 0.33362 0.91577 0.0
H883 H 0.2291 0.31277 0.87296 0.0
C884 C 0.26624 0.38271 0.97793 0.0
C885 C 0.28408 0.37724 0.99489 0.0
C886 C 0.2623 0.3703 0.95361 0.0
C887 C 0.27608 0.35215 0.94584 0.0
C888 C 0.29355 0.34635 0.96297 0.0
C889 C 0.29755 0.35878 0.98714 0.0
C890 C 0.29008 0.32379 0.88355 0.0
C891 C 0.26714 0.31531 0.87074 0.0
C892 C 0.2929 0.3359 0.90781 0.0
C893 C 0.27281 0.33964 0.91985 0.0
C894 C 0.24979 0.33121 0.90693 0.0
C895 C 0.24699 0.31915 0.88254 0.0
H896 H 0.92783 0.03026 0.29084 0.0
H897 H 0.89142 0.08663 0.32558 0.0
H898 H 0.95272 0.03152 0.32966 0.0
H899 H 0.91713 0.08905 0.36405 0.0
H900 H 0.95061 0.0657 0.43562 0.0
H901 H 0.9255 0.06708 0.39755 0.0
H902 H 0.9848 0.05771 0.35552 0.0
H903 H 0.0093 0.05483 0.39359 0.0
C904 C 0.92521 0.04295 0.3068 0.0
C905 C 0.9077 0.05828 0.30528 0.0
C906 C 0.93966 0.04394 0.32898 0.0
C907 C 0.93719 0.06067 0.34996 0.0
C908 C 0.91938 0.07574 0.34841 0.0
C909 C 0.90465 0.07439 0.32635 0.0
C910 C 0.9583 0.06436 0.41823 0.0
C911 C 0.98174 0.06 0.41736 0.0
C912 C 0.94396 0.06518 0.39639 0.0
C913 C 0.95298 0.06209 0.37336 0.0
C914 C 0.97702 0.05937 0.37282 0.0
C915 C 0.99118 0.05807 0.39461 0.0
H916 H 0.27581 0.69205 0.55736 0.0
H917 H 0.34824 0.73522 0.57309 0.0
H918 H 0.26607 0.71119 0.5968 0.0
H919 H 0.3384 0.75444 0.61262 0.0
H920 H 0.31848 0.75787 0.69334 0.0
H921 H 0.32856 0.74129 0.65309 0.0
H922 H 0.26077 0.75253 0.6187 0.0
H923 H 0.25057 0.76908 0.65905 0.0
C924 C 0.28968 0.70569 0.56916 0.0
C925 C 0.31288 0.71198 0.56191 0.0
C926 C 0.28402 0.71682 0.59178 0.0
C927 C 0.30142 0.7344 0.60799 0.0
C928 C 0.32459 0.7408 0.60074 0.0
C929 C 0.3302 0.72986 0.57796 0.0
C930 C 0.30571 0.75697 0.67722 0.0
C931 C 0.28366 0.76488 0.67958 0.0
C932 C 0.31159 0.74756 0.65406 0.0
C933 C 0.29551 0.74551 0.63255 0.0
C934 C 0.27352 0.75359 0.63486 0.0
C935 C 0.26773 0.76326 0.65802 0.0
H936 H 0.56326 0.03733 0.83355 0.0
H937 H 0.59691 0.98599 0.8745 0.0
H938 H 0.54571 0.0518 0.87031 0.0
H939 H 0.57842 0.99926 0.91083 0.0
H940 H 0.55376 0.03587 0.97826 0.0
H941 H 0.57642 0.03037 0.94315 0.0
H942 H 0.51503 0.03775 0.89385 0.0
H943 H 0.49306 0.04504 0.92936 0.0
C944 C 0.56697 0.0292 0.85047 0.0
C945 C 0.58142 0.01049 0.85113 0.0
C946 C 0.55672 0.03732 0.87152 0.0
C947 C 0.56036 0.02659 0.89366 0.0
C948 C 0.57544 0.00837 0.89438 0.0
C949 C 0.58599 1.00059 0.87345 0.0
C950 C 0.54533 0.03692 0.95996 0.0
C951 C 0.52168 0.04099 0.95655 0.0
C952 C 0.55822 0.0334 0.93972 0.0
C953 C 0.54758 0.03325 0.91545 0.0
C954 C 0.52405 0.03806 0.91219 0.0
C955 C 0.51133 0.04208 0.93254 0.0
H956 H 0.28635 0.33631 0.10399 0.0
H957 H 0.22114 0.36698 0.09845 0.0
H958 H 0.26826 0.3042 0.12756 0.0
H959 H 0.20224 0.33349 0.12151 0.0
H960 H 0.20283 0.30608 0.20078 0.0
H961 H 0.20502 0.32594 0.16298 0.0
H962 H 0.24197 0.26758 0.13266 0.0
H963 H 0.24159 0.24931 0.17161 0.0
C964 C 0.26787 0.33589 0.10736 0.0
C965 C 0.2554 0.35466 0.09972 0.0
C966 C 0.25723 0.31701 0.12067 0.0
C967 C 0.23363 0.31602 0.12659 0.0
C968 C 0.22055 0.33382 0.11761 0.0
C969 C 0.23136 0.353 0.10434 0.0
C970 C 0.21053 0.29691 0.18563 0.0
C971 C 0.22248 0.27655 0.18917 0.0
C972 C 0.21181 0.30831 0.16382 0.0
C973 C 0.22461 0.29906 0.14505 0.0
C974 C 0.23293 0.27595 0.14716 0.0
C975 C 0.2324 0.26516 0.16929 0.0
H976 H 0.18732 0.98175 0.02865 0.0
H977 H 0.14038 0.90819 0.02594 0.0
H978 H 0.15353 0.00324 0.03096 0.0
H979 H 0.10614 0.92999 0.02917 0.0
H980 H 0.04803 0.97788 0.00931 0.0
H981 H 0.08033 0.95349 0.00866 0.0
H982 H 0.12652 0.01533 0.05755 0.0
H983 H 0.09445 0.04011 0.05714 0.0
C984 C 0.16972 0.97009 0.02871 0.0
C985 C 0.16666 0.94316 0.0272 0.0
C986 C 0.15024 0.98253 0.0303 0.0
C987 C 0.12694 0.96856 0.03071 0.0
C988 C 0.12374 0.94149 0.0288 0.0
C989 C 0.14337 0.92893 0.02698 0.0
C990 C 0.06507 0.9862 0.02002 0.0
C991 C 0.06879 0.01112 0.033 0.0
C992 C 0.08361 0.9721 0.01978 0.0
C993 C 0.10634 0.98245 0.03273 0.0
C994 C 0.10956 0.0069 0.04676 0.0
C995 C 0.09108 0.02108 0.04677 0.0
H996 H 0.69855 0.67191 0.99192 0.0
H997 H 0.71357 0.60025 0.95789 0.0
H998 H 0.65706 0.65089 0.99364 0.0
H999 H 0.6723 0.57952 0.95954 0.0
H1000 H 0.61141 0.54582 0.00309 0.0
H1001 H 0.65068 0.56828 0.99582 0.0
H1002 H 0.61853 0.62821 0.96738 0.0
H1003 H 0.57904 0.60578 0.97478 0.0
C1004 C 0.69293 0.65185 0.98443 0.0
C1005 C 0.70942 0.63766 0.9751 0.0
C1006 C 0.66919 0.63986 0.98537 0.0
C1007 C 0.66164 0.61351 0.97706 0.0
C1008 C 0.6778 0.59974 0.9665 0.0
C1009 C 0.7014 0.61168 0.96548 0.0
C1010 C 0.61265 0.56372 0.9952 0.0
C1011 C 0.59213 0.57398 0.98943 0.0
C1012 C 0.63512 0.5765 0.99089 0.0
C1013 C 0.63758 0.59989 0.98089 0.0
C1014 C 0.6171 0.61024 0.97517 0.0
C1015 C 0.59453 0.59732 0.97927 0.0
H1016 H 0.71162 0.44099 0.33074 0.0
H1017 H 0.70095 0.45527 0.2547 0.0
H1018 H 0.73691 0.41079 0.3193 0.0
H1019 H 0.72767 0.42602 0.24326 0.0
H1020 H 0.75096 0.34794 0.22724 0.0
H1021 H 0.72941 0.38275 0.23675 0.0
H1022 H 0.77292 0.40366 0.30752 0.0
H1023 H 0.79225 0.36715 0.29884 0.0
C1024 C 0.7152 0.43818 0.31162 0.0
C1025 C 0.70421 0.45052 0.29363 0.0
C1026 C 0.72992 0.42088 0.30501 0.0
C1027 C 0.73453 0.4158 0.28027 0.0
C1028 C 0.72424 0.42896 0.2624 0.0
C1029 C 0.70907 0.44594 0.26897 0.0
C1030 C 0.75533 0.35962 0.24501 0.0
C1031 C 0.77231 0.35407 0.26273 0.0
C1032 C 0.74345 0.38005 0.25032 0.0
C1033 C 0.74895 0.39588 0.27324 0.0
C1034 C 0.76746 0.39143 0.29008 0.0
C1035 C 0.77882 0.37065 0.28498 0.0
H1036 H 0.8047 0.40719 0.53269 0.0
H1037 H 0.77563 0.46127 0.49116 0.0
H1038 H 0.84497 0.4309 0.53142 0.0
H1039 H 0.81622 0.48539 0.49029 0.0
H1040 H 0.89636 0.50599 0.4755 0.0
H1041 H 0.85517 0.48237 0.47376 0.0
H1042 H 0.86769 0.47297 0.55102 0.0
H1043 H 0.9088 0.49628 0.55263 0.0
C1044 C 0.80688 0.42397 0.52301 0.0
C1045 C 0.78692 0.43232 0.51201 0.0
C1046 C 0.83 0.43773 0.52254 0.0
C1047 C 0.83374 0.46021 0.51106 0.0
C1048 C 0.81388 0.46809 0.49922 0.0
C1049 C 0.79066 0.45431 0.49975 0.0
C1050 C 0.89018 0.499 0.49211 0.0
C1051 C 0.9057 0.50281 0.51418 0.0
C1052 C 0.86663 0.48556 0.49113 0.0
C1053 C 0.85828 0.4756 0.51218 0.0
C1054 C 0.87374 0.48001 0.53438 0.0
C1055 C 0.8972 0.4935 0.53537 0.0
H1056 H 0.37077 0.15147 0.24166 0.0
H1057 H 0.31931 0.10816 0.28183 0.0
H1058 H 0.34222 0.17958 0.23246 0.0
H1059 H 0.29065 0.13565 0.27201 0.0
H1060 H 0.24072 0.18471 0.23561 0.0
H1061 H 0.26683 0.15263 0.23326 0.0
H1062 H 0.32672 0.21031 0.26832 0.0
H1063 H 0.30066 0.24168 0.27202 0.0
C1064 C 0.35311 0.14747 0.2478 0.0
C1065 C 0.34724 0.1278 0.26255 0.0
C1066 C 0.33685 0.16355 0.24262 0.0
C1067 C 0.31428 0.1597 0.25154 0.0
C1068 C 0.30783 0.13886 0.26474 0.0
C1069 C 0.32426 0.12325 0.27045 0.0
C1070 C 0.25952 0.19052 0.24256 0.0
C1071 C 0.26874 0.21583 0.2536 0.0
C1072 C 0.27441 0.17224 0.24114 0.0
C1073 C 0.29884 0.17919 0.25022 0.0
C1074 C 0.3081 0.20463 0.26064 0.0
C1075 C 0.29315 0.22262 0.26266 0.0
H1076 H 0.30806 0.08755 0.51801 0.0
H1077 H 0.364 0.14689 0.50068 0.0
H1078 H 0.3383 0.06604 0.53638 0.0
H1079 H 0.39413 0.12535 0.51895 0.0
H1080 H 0.44466 0.08979 0.56323 0.0
H1081 H 0.41115 0.11215 0.55781 0.0
H1082 H 0.36759 0.04278 0.51753 0.0
H1083 H 0.40105 0.02038 0.52318 0.0
C1084 C 0.32679 0.09618 0.51837 0.0
C1085 C 0.33367 0.11885 0.50774 0.0
C1086 C 0.34406 0.08383 0.52889 0.0
C1087 C 0.36853 0.094 0.52908 0.0
C1088 C 0.37538 0.11725 0.51939 0.0
C1089 C 0.35812 0.12952 0.50878 0.0
C1090 C 0.4277 0.07915 0.55383 0.0
C1091 C 0.42541 0.05348 0.54335 0.0
C1092 C 0.4086 0.09199 0.55061 0.0
C1093 C 0.38693 0.0793 0.53694 0.0
C1094 C 0.38406 0.053 0.52826 0.0
C1095 C 0.4032 0.04018 0.53142 0.0
H1096 H 0.66326 0.56398 0.26906 0.0
H1097 H 0.70161 0.57917 0.34255 0.0
H1098 H 0.6793 0.60758 0.26168 0.0
H1099 H 0.71807 0.62273 0.33491 0.0
H1100 H 0.72206 0.707 0.32197 0.0
H1101 H 0.70617 0.66338 0.32964 0.0
H1102 H 0.71614 0.63473 0.25508 0.0
H1103 H 0.73158 0.67838 0.24722 0.0
C1104 C 0.67521 0.57655 0.28364 0.0
C1105 C 0.68109 0.56795 0.30644 0.0
C1106 C 0.68454 0.60157 0.27932 0.0
C1107 C 0.70004 0.61873 0.29766 0.0
C1108 C 0.70596 0.61016 0.32046 0.0
C1109 C 0.69661 0.58509 0.3248 0.0
C1110 C 0.72087 0.69143 0.30717 0.0
C1111 C 0.7281 0.6963 0.28394 0.0
C1112 C 0.71188 0.66635 0.31164 0.0
C1113 C 0.70986 0.64546 0.293 0.0
C1114 C 0.71713 0.65035 0.26978 0.0
C1115 C 0.72611 0.67542 0.26531 0.0
H1116 H 0.8629 0.50938 0.74103 0.0
H1117 H 0.8458 0.5111 0.81653 0.0
H1118 H 0.83682 0.46715 0.7306 0.0
H1119 H 0.8205 0.46901 0.80633 0.0
H1120 H 0.76104 0.40308 0.7797 0.0
H1121 H 0.78322 0.44725 0.78435 0.0
H1122 H 0.8345 0.42305 0.73776 0.0
H1123 H 0.81176 0.37914 0.73249 0.0
C1124 C 0.85372 0.50073 0.75542 0.0
C1125 C 0.85644 0.51372 0.7796 0.0
C1126 C 0.83879 0.47651 0.74945 0.0
C1127 C 0.82632 0.46473 0.76756 0.0
C1128 C 0.82929 0.47769 0.79174 0.0
C1129 C 0.84405 0.50183 0.79765 0.0
C1130 C 0.77679 0.40736 0.7701 0.0
C1131 C 0.78479 0.38773 0.75589 0.0
C1132 C 0.78965 0.4326 0.77292 0.0
C1133 C 0.81092 0.43867 0.76178 0.0
C1134 C 0.81816 0.41916 0.7465 0.0
C1135 C 0.80518 0.39396 0.74354 0.0
H1136 H 0.0143 0.82827 0.11736 0.0
H1137 H 0.94051 0.80951 0.08473 0.0
H1138 H 0.02128 0.86456 0.09365 0.0
H1139 H 0.94713 0.84622 0.06206 0.0
H1140 H 0.9672 0.90789 0.01342 0.0
H1141 H 0.96437 0.8671 0.03064 0.0
H1142 H 0.01188 0.90569 0.09504 0.0
H1143 H 0.01544 0.94581 0.07725 0.0
C1144 C 0.99962 0.83172 0.10501 0.0
C1145 C 0.9768 0.81601 0.10319 0.0
C1146 C 0.00354 0.85271 0.09155 0.0
C1147 C 0.98469 0.85871 0.07613 0.0
C1148 C 0.9622 0.84222 0.07346 0.0
C1149 C 0.95835 0.82112 0.08667 0.0
C1150 C 0.97712 0.90747 0.03116 0.0
C1151 C 0.99145 0.92998 0.04404 0.0
C1152 C 0.97545 0.88415 0.04113 0.0
C1153 C 0.98788 0.88293 0.06434 0.0
C1154 C 0.00242 0.90558 0.07696 0.0
C1155 C 0.00428 0.92872 0.06687 0.0
H1156 H 0.95573 0.30178 0.79747 0.0
H1157 H 0.92786 0.26111 0.85594 0.0
H1158 H 0.91492 0.29973 0.77857 0.0
H1159 H 0.8872 0.25986 0.83764 0.0
H1160 H 0.81772 0.23867 0.787 0.0
H1161 H 0.85915 0.23958 0.80308 0.0
H1162 H 0.8793 0.31638 0.78384 0.0
H1163 H 0.83816 0.31519 0.76712 0.0
C1164 C 0.94091 0.2927 0.80649 0.0
C1165 C 0.94513 0.28173 0.82832 0.0
C1166 C 0.91747 0.29157 0.79567 0.0
C1167 C 0.89766 0.2795 0.80646 0.0
C1168 C 0.90195 0.26888 0.82851 0.0
C1169 C 0.92535 0.2699 0.83923 0.0
C1170 C 0.83103 0.25562 0.78588 0.0
C1171 C 0.8245 0.27683 0.77573 0.0
C1172 C 0.8548 0.25626 0.79535 0.0
C1173 C 0.87263 0.27817 0.79502 0.0
C1174 C 0.86618 0.29908 0.78422 0.0
C1175 C 0.84247 0.2984 0.77468 0.0
H1176 H 0.50165 0.19537 0.64642 0.0
H1177 H 0.45229 0.19601 0.58186 0.0
H1178 H 0.51704 0.16033 0.62443 0.0
H1179 H 0.46806 0.16132 0.55986 0.0
H1180 H 0.52548 0.12051 0.52307 0.0
H1181 H 0.51076 0.15632 0.5451 0.0
H1182 H 0.4977 0.11226 0.60583 0.0
H1183 H 0.51187 0.07648 0.5837 0.0
C1184 C 0.49409 0.18807 0.62758 0.0
C1185 C 0.47568 0.19844 0.61595 0.0
C1186 C 0.50289 0.16802 0.61502 0.0
C1187 C 0.49383 0.15829 0.59042 0.0
C1188 C 0.47551 0.16867 0.57874 0.0
C1189 C 0.46637 0.18837 0.59143 0.0
C1190 C 0.51959 0.11865 0.54118 0.0
C1191 C 0.51975 0.09582 0.55171 0.0
C1192 C 0.51105 0.13898 0.55368 0.0
C1193 C 0.50312 0.13699 0.57715 0.0
C1194 C 0.50384 0.11435 0.58785 0.0
C1195 C 0.51188 0.09389 0.57517 0.0
H1196 H 0.5987 0.79684 0.35549 0.0
H1197 H 0.56756 0.78484 0.27917 0.0
H1198 H 0.63817 0.79452 0.34174 0.0
H1199 H 0.6066 0.78265 0.26568 0.0
H1200 H 0.66883 0.74266 0.25226 0.0
H1201 H 0.63196 0.74942 0.26876 0.0
H1202 H 0.67095 0.81628 0.31679 0.0
H1203 H 0.70817 0.80959 0.29985 0.0
C1204 C 0.6003 0.79409 0.33584 0.0
C1205 C 0.57988 0.79071 0.31845 0.0
C1206 C 0.62289 0.79281 0.32799 0.0
C1207 C 0.6254 0.78798 0.30264 0.0
C1208 C 0.60518 0.78586 0.28535 0.0
C1209 C 0.58277 0.78723 0.29313 0.0
C1210 C 0.66961 0.75882 0.26635 0.0
C1211 C 0.6914 0.77559 0.27477 0.0
C1212 C 0.64845 0.76274 0.27576 0.0
C1213 C 0.64848 0.78354 0.29391 0.0
C1214 C 0.67039 0.80003 0.30289 0.0
C1215 C 0.69168 0.79617 0.29327 0.0
H1216 H 0.97415 0.2048 0.49853 0.0
H1217 H 0.0449 0.21431 0.47417 0.0
H1218 H 0.98246 0.16903 0.51983 0.0
H1219 H 0.05295 0.17831 0.4952 0.0
H1220 H 0.06305 0.11466 0.54127 0.0
H1221 H 0.0574 0.15787 0.53382 0.0
H1222 H 0.98536 0.12606 0.49982 0.0
H1223 H 0.99096 0.08333 0.5076 0.0
C1224 C 0.99166 0.19966 0.49814 0.0
C1225 C 0.00865 0.21205 0.48415 0.0
C1226 C 0.99636 0.17911 0.51029 0.0
C1227 C 0.01815 0.17057 0.50873 0.0
C1228 C 0.036 0.18448 0.49676 0.0
C1229 C 0.03132 0.20506 0.4846 0.0
C1230 C 0.04595 0.11712 0.53255 0.0
C1231 C 0.02751 0.09581 0.5247 0.0
C1232 C 0.04273 0.14174 0.52824 0.0
C1233 C 0.02093 0.14534 0.51631 0.0
C1234 C 0.00224 0.124 0.50939 0.0
C1235 C 0.00553 0.09948 0.51352 0.0
H1236 H 0.56202 0.34961 0.19748 0.0
H1237 H 0.5785 0.32197 0.12492 0.0
H1238 H 0.60089 0.34345 0.21558 0.0
H1239 H 0.61745 0.3159 0.14316 0.0
H1240 H 0.69373 0.33033 0.18396 0.0
H1241 H 0.6567 0.34187 0.16648 0.0
H1242 H 0.61805 0.30291 0.22016 0.0
H1243 H 0.65504 0.29126 0.23755 0.0
C1244 C 0.57403 0.3425 0.18535 0.0
C1245 C 0.56716 0.33609 0.15979 0.0
C1246 C 0.5962 0.33887 0.19576 0.0
C1247 C 0.61201 0.32906 0.18076 0.0
C1248 C 0.60558 0.32363 0.15508 0.0
C1249 C 0.58328 0.327 0.14469 0.0
C1250 C 0.67731 0.32436 0.19205 0.0
C1251 C 0.67708 0.30984 0.21198 0.0
C1252 C 0.65619 0.33088 0.18202 0.0
C1253 C 0.63461 0.32326 0.192 0.0
C1254 C 0.63453 0.30921 0.2123 0.0
C1255 C 0.6556 0.30244 0.22214 0.0
H1256 H 0.53946 0.84073 0.96156 0.0
H1257 H 0.46322 0.83576 0.96323 0.0
H1258 H 0.54657 0.8846 0.98274 0.0
H1259 H 0.47014 0.87964 0.98323 0.0
H1260 H 0.48596 0.95155 0.0344 0.0
H1261 H 0.48419 0.90629 0.02029 0.0
H1262 H 0.54254 0.92691 0.97657 0.0
H1263 H 0.54504 0.97212 0.99186 0.0
C1264 C 0.52422 0.84905 0.96633 0.0
C1265 C 0.50078 0.83472 0.96078 0.0
C1266 C 0.52829 0.87423 0.9784 0.0
C1267 C 0.50897 0.88572 0.98494 0.0
C1268 C 0.48555 0.87132 0.97917 0.0
C1269 C 0.48153 0.84614 0.96745 0.0
C1270 C 0.49872 0.9463 0.02219 0.0
C1271 C 0.51553 0.96528 0.01411 0.0
C1272 C 0.49758 0.92038 0.01387 0.0
C1273 C 0.51284 0.91287 0.99678 0.0
C1274 C 0.53058 0.93187 0.98981 0.0
C1275 C 0.53202 0.95782 0.99855 0.0
H1276 H 0.91461 0.81316 0.639 0.0
H1277 H 0.95499 0.7737 0.68781 0.0
H1278 H 0.88036 0.80421 0.66238 0.0
H1279 H 0.92031 0.76452 0.71105 0.0
H1280 H 0.83618 0.73801 0.72451 0.0
H1281 H 0.87183 0.74061 0.70207 0.0
H1282 H 0.88046 0.82329 0.71062 0.0
H1283 H 0.84536 0.82084 0.73324 0.0
C1284 C 0.91602 0.80211 0.65437 0.0
C1285 C 0.93754 0.79436 0.66176 0.0
C1286 C 0.89647 0.79712 0.66778 0.0
C1287 C 0.898 0.78402 0.68858 0.0
C1288 C 0.91888 0.77471 0.69506 0.0
C1289 C 0.93863 0.78 0.6818 0.0
C1290 C 0.84604 0.75671 0.72196 0.0
C1291 C 0.83807 0.77924 0.73037 0.0
C1292 C 0.8663 0.75816 0.70917 0.0
C1293 C 0.87844 0.78211 0.70442 0.0
C1294 C 0.87108 0.80461 0.71385 0.0
C1295 C 0.85114 0.8032 0.72688 0.0
H1296 H 0.10608 0.9652 0.85729 0.0
H1297 H 0.08999 0.03695 0.83786 0.0
H1298 H 0.08041 0.96627 0.89016 0.0
H1299 H 0.06616 0.03982 0.87249 0.0
H1300 H 0.00946 0.03188 0.92404 0.0
H1301 H 0.03174 0.02695 0.88839 0.0
H1302 H 0.07461 0.98169 0.92802 0.0
H1303 H 0.05059 0.98458 0.96207 0.0
C1304 C 0.09754 0.98165 0.86065 0.0
C1305 C 0.10008 1.00108 0.84524 0.0
C1306 C 0.08281 0.98241 0.87966 0.0
C1307 C 0.07094 0.00318 0.88439 0.0
C1308 C 0.07426 0.02308 0.86925 0.0
C1309 C 0.08828 0.02175 0.84959 0.0
C1310 C 0.02321 0.02026 0.92458 0.0
C1311 C 0.02805 0.0082 0.94548 0.0
C1312 C 0.0364 0.0178 0.90437 0.0
C1313 C 0.05544 0.00414 0.90507 0.0
C1314 C 0.05988 0.99184 0.92612 0.0
C1315 C 0.04609 0.9935 0.94584 0.0
H1316 H 0.73514 0.29991 0.56319 0.0
H1317 H 0.70839 0.36367 0.59861 0.0
H1318 H 0.73667 0.28122 0.602 0.0
H1319 H 0.71034 0.34515 0.6378 0.0
H1320 H 0.75298 0.32084 0.70712 0.0
H1321 H 0.74537 0.33818 0.66802 0.0
H1322 H 0.71119 0.26232 0.63334 0.0
H1323 H 0.71869 0.24521 0.67235 0.0
C1324 C 0.72888 0.30954 0.57912 0.0
C1325 C 0.72129 0.33309 0.57764 0.0
C1326 C 0.72991 0.29891 0.60145 0.0
C1327 C 0.7239 0.3118 0.62316 0.0
C1328 C 0.71533 0.33484 0.6215 0.0
C1329 C 0.71381 0.34523 0.59894 0.0
C1330 C 0.74407 0.3079 0.69113 0.0
C1331 C 0.73684 0.2816 0.69284 0.0
C1332 C 0.73938 0.31786 0.66876 0.0
C1333 C 0.72763 0.30165 0.64745 0.0
C1334 C 0.7204 0.27535 0.64927 0.0
C1335 C 0.72472 0.26554 0.67167 0.0
H1336 H 0.42719 0.10441 0.35446 0.0
H1337 H 0.46485 0.0491 0.31998 0.0
H1338 H 0.44398 0.09743 0.3951 0.0
H1339 H 0.48118 0.04152 0.36071 0.0
H1340 H 0.524 0.05089 0.43664 0.0
H1341 H 0.50891 0.06045 0.39621 0.0
H1342 H 0.44084 0.06616 0.42303 0.0
H1343 H 0.4561 0.05743 0.46349 0.0
C1344 C 0.43888 0.09056 0.35556 0.0
C1345 C 0.44456 0.0772 0.33397 0.0
C1346 C 0.44849 0.08649 0.3789 0.0
C1347 C 0.46392 0.06883 0.38128 0.0
C1348 C 0.46966 0.05554 0.35963 0.0
C1349 C 0.46015 0.05974 0.33625 0.0
C1350 C 0.50587 0.05439 0.43396 0.0
C1351 C 0.4913 0.05339 0.45338 0.0
C1352 C 0.49714 0.05967 0.41069 0.0
C1353 C 0.47359 0.06399 0.40624 0.0
C1354 C 0.45917 0.06331 0.4258 0.0
C1355 C 0.46792 0.05817 0.44905 0.0
H1356 H 0.82063 0.73246 0.06119 0.0
H1357 H 0.76014 0.66912 0.05052 0.0
H1358 H 0.80647 0.74932 0.09942 0.0
H1359 H 0.74637 0.68588 0.08887 0.0
H1360 H 0.76155 0.70305 0.17627 0.0
H1361 H 0.76938 0.68968 0.13417 0.0
H1362 H 0.76744 0.76595 0.11548 0.0
H1363 H 0.75893 0.77927 0.15776 0.0
C1364 C 0.80422 0.7223 0.06685 0.0
C1365 C 0.79165 0.69931 0.05299 0.0
C1366 C 0.79606 0.73206 0.08858 0.0
C1367 C 0.77543 0.71879 0.09697 0.0
C1368 C 0.76238 0.69636 0.08272 0.0
C1369 C 0.77029 0.68683 0.0608 0.0
C1370 C 0.76251 0.71687 0.16309 0.0
C1371 C 0.75965 0.74214 0.17011 0.0
C1372 C 0.76687 0.7092 0.13904 0.0
C1373 C 0.76891 0.7268 0.12171 0.0
C1374 C 0.7659 0.75209 0.12862 0.0
C1375 C 0.76099 0.75964 0.15265 0.0
H1376 H 0.09719 0.93022 0.69398 0.0
H1377 H 0.12543 0.01191 0.70744 0.0
H1378 H 0.08485 0.93419 0.65078 0.0
H1379 H 0.11269 0.01592 0.66485 0.0
H1380 H 0.10452 0.01675 0.58451 0.0
H1381 H 0.1212 0.00531 0.62335 0.0
H1382 H 0.05496 0.95271 0.62728 0.0
H1383 H 0.03859 0.96359 0.58768 0.0
C1384 C 0.10088 0.94897 0.68771 0.0
C1385 C 0.11227 0.97077 0.70414 0.0
C1386 C 0.09371 0.95124 0.66303 0.0
C1387 C 0.09788 0.97534 0.65434 0.0
C1388 C 0.10962 0.99698 0.67075 0.0
C1389 C 0.11677 0.99471 0.69529 0.0
C1390 C 0.09368 0.00242 0.59349 0.0
C1391 C 0.07019 0.99132 0.58343 0.0
C1392 C 0.10317 0.99596 0.61578 0.0
C1393 C 0.08922 0.97854 0.62868 0.0
C1394 C 0.06618 0.96617 0.61778 0.0
C1395 C 0.05676 0.97246 0.59521 0.0
H1396 H 0.74031 0.30841 0.45603 0.0
H1397 H 0.71401 0.3751 0.43579 0.0
H1398 H 0.74206 0.29379 0.41269 0.0
H1399 H 0.71658 0.36096 0.39204 0.0
H1400 H 0.71373 0.31994 0.31189 0.0
H1401 H 0.70461 0.33167 0.35414 0.0
H1402 H 0.76768 0.30551 0.38308 0.0
H1403 H 0.77629 0.29331 0.34141 0.0
C1404 C 0.7345 0.31978 0.44223 0.0
C1405 C 0.72701 0.34295 0.44952 0.0
C1406 C 0.73582 0.31157 0.41725 0.0
C1407 C 0.73013 0.32646 0.39859 0.0
C1408 C 0.72114 0.34888 0.40571 0.0
C1409 C 0.71954 0.35697 0.43086 0.0
C1410 C 0.72555 0.31656 0.3273 0.0
C1411 C 0.74567 0.30541 0.323 0.0
C1412 C 0.72038 0.32343 0.35162 0.0
C1413 C 0.73516 0.31931 0.37235 0.0
C1414 C 0.75539 0.30843 0.36786 0.0
C1415 C 0.76049 0.30157 0.34373 0.0
H1416 H 0.44462 0.01511 0.20262 0.0
H1417 H 0.42525 0.08592 0.1838 0.0
H1418 H 0.46219 0.00979 0.16386 0.0
H1419 H 0.44332 0.08088 0.14525 0.0
H1420 H 0.46373 0.05587 0.06914 0.0
H1421 H 0.44103 0.05629 0.10495 0.0
H1422 H 0.49742 0.02974 0.14711 0.0
H1423 H 0.51971 0.0287 0.1111 0.0
C1424 C 0.44394 0.02947 0.19014 0.0
C1425 C 0.43364 0.05104 0.19645 0.0
C1426 C 0.45419 0.0265 0.16796 0.0
C1427 C 0.45445 0.04503 0.15149 0.0
C1428 C 0.44329 0.0661 0.15735 0.0
C1429 C 0.43299 0.06905 0.17954 0.0
C1430 C 0.4711 0.04982 0.08599 0.0
C1431 C 0.49349 0.04223 0.08735 0.0
C1432 C 0.45818 0.05026 0.10658 0.0
C1433 C 0.46737 0.04311 0.129 0.0
C1434 C 0.48959 0.03503 0.13009 0.0
C1435 C 0.50248 0.03459 0.10951 0.0
H1436 H 0.77127 0.72036 0.95235 0.0
H1437 H 0.83822 0.71298 0.92413 0.0
H1438 H 0.76133 0.74429 0.91864 0.0
H1439 H 0.82763 0.73491 0.88913 0.0
H1440 H 0.80664 0.77988 0.82949 0.0
H1441 H 0.82017 0.7698 0.87027 0.0
H1442 H 0.74751 0.73316 0.87771 0.0
H1443 H 0.73409 0.7448 0.83809 0.0
C1444 C 0.78389 0.72407 0.93889 0.0
C1445 C 0.80536 0.7148 0.94054 0.0
C1446 C 0.77814 0.73752 0.91942 0.0
C1447 C 0.79335 0.74104 0.90067 0.0
C1448 C 0.81551 0.73288 0.90323 0.0
C1449 C 0.82159 0.72015 0.92319 0.0
C1450 C 0.79362 0.77005 0.84017 0.0
C1451 C 0.76936 0.76312 0.83073 0.0
C1452 C 0.80135 0.76411 0.86346 0.0
C1453 C 0.78502 0.75054 0.87744 0.0
C1454 C 0.76063 0.74418 0.86799 0.0
C1455 C 0.75288 0.75066 0.84507 0.0
H1456 H 0.83872 0.09239 0.01687 0.0
H1457 H 0.88311 0.15224 0.98545 0.0
H1458 H 0.8704 0.06729 0.01641 0.0
H1459 H 0.91507 0.12695 0.98513 0.0
H1460 H 0.9196 0.0159 0.98473 0.0
H1461 H 0.88927 0.04313 0.9846 0.0
H1462 H 0.9439 0.10942 0.01304 0.0
H1463 H 0.97413 0.08215 0.01327 0.0
C1464 C 0.85536 0.10041 0.01012 0.0
C1465 C 0.85825 0.12444 1.00117 0.0
C1466 C 0.87349 0.08581 0.00962 0.0
C1467 C 0.89522 0.09484 1.00039 0.0
C1468 C 0.89858 0.11936 0.99237 0.0
C1469 C 0.88026 0.13391 0.9926 0.0
C1470 C 0.92516 0.03631 0.99068 0.0
C1471 C 0.94929 0.04681 0.999 0.0
C1472 C 0.90775 0.05193 0.99082 0.0
C1473 C 0.91405 0.07851 0.99902 0.0
C1474 C 0.93837 0.08911 0.0065 0.0
C1475 C 0.95571 0.07345 0.00665 0.0
H1476 H 0.32939 0.49202 0.03454 0.0
H1477 H 0.35538 0.438 0.07849 0.0
H1478 H 0.36984 0.5069 0.02466 0.0
H1479 H 0.39556 0.45178 0.06747 0.0
H1480 H 0.43792 0.50826 0.98859 0.0
H1481 H 0.39821 0.49305 1.00005 0.0
H1482 H 0.42933 0.48576 0.07338 0.0
H1483 H 0.46927 0.50008 0.0615 0.0
C1484 C 0.3437 0.48319 0.04198 0.0
C1485 C 0.33905 0.46352 0.05699 0.0
C1486 C 0.3669 0.49155 0.03612 0.0
C1487 C 0.38598 0.4803 0.04496 0.0
C1488 C 0.38138 0.46101 0.06043 0.0
C1489 C 0.35821 0.45284 0.06651 0.0
C1490 C 0.43631 0.50331 0.00714 0.0
C1491 C 0.45673 0.50548 0.02418 0.0
C1492 C 0.41349 0.49477 0.01379 0.0
C1493 C 0.41046 0.48848 0.03776 0.0
C1494 C 0.43096 0.4902 0.05469 0.0
C1495 C 0.45387 0.49848 0.04791 0.0
H1496 H 0.28547 0.60006 0.77455 0.0
H1497 H 0.32243 0.61839 0.71129 0.0
H1498 H 0.26413 0.6352 0.77025 0.0
H1499 H 0.30075 0.65372 0.70698 0.0
H1500 H 0.24366 0.70697 0.70187 0.0
H1501 H 0.25878 0.66655 0.70021 0.0
H1502 H 0.2824 0.68298 0.77851 0.0
H1503 H 0.26736 0.72318 0.7801 0.0
C1504 C 0.28867 0.61123 0.75936 0.0
C1505 C 0.30598 0.60668 0.74351 0.0
C1506 C 0.2765 0.63143 0.757 0.0
C1507 C 0.28119 0.64749 0.73864 0.0
C1508 C 0.29686 0.64163 0.72136 0.0
C1509 C 0.3092 0.62136 0.72378 0.0
C1510 C 0.25194 0.70174 0.71871 0.0
C1511 C 0.25439 0.71806 0.74114 0.0
C1512 C 0.26068 0.67876 0.71772 0.0
C1513 C 0.27157 0.67157 0.73925 0.0
C1514 C 0.27378 0.68788 0.76169 0.0
C1515 C 0.26538 0.71095 0.76259 0.0
H1516 H 0.21079 0.5875 0.4548 0.0
H1517 H 0.22644 0.64051 0.52238 0.0
H1518 H 0.17002 0.57375 0.46479 0.0
H1519 H 0.18562 0.62678 0.53225 0.0
H1520 H 0.11858 0.5736 0.55313 0.0
H1521 H 0.15977 0.58758 0.54378 0.0
H1522 H 0.13323 0.59214 0.46822 0.0
H1523 H 0.09229 0.57816 0.47754 0.0
C1524 C 0.20554 0.59628 0.47174 0.0
C1525 C 0.22187 0.61513 0.48776 0.0
C1526 C 0.18215 0.58846 0.47741 0.0
C1527 C 0.17462 0.59917 0.49932 0.0
C1528 C 0.19096 0.61798 0.51537 0.0
C1529 C 0.2143 0.62597 0.5096 0.0
C1530 C 0.12164 0.57766 0.53458 0.0
C1531 C 0.10233 0.57486 0.51608 0.0
C1532 C 0.14515 0.58575 0.52924 0.0
C1533 C 0.14973 0.5909 0.50524 0.0
C1534 C 0.13031 0.58805 0.48679 0.0
C1535 C 0.10687 0.58021 0.49218 0.0
H1536 H 0.65123 0.92419 0.75588 0.0
H1537 H 0.68672 0.93761 0.83065 0.0
H1538 H 0.67506 0.89149 0.7454 0.0
H1539 H 0.71049 0.90533 0.82008 0.0
H1540 H 0.72646 0.82504 0.80146 0.0
H1541 H 0.70317 0.85847 0.81027 0.0
H1542 H 0.71708 0.8861 0.74059 0.0
H1543 H 0.74008 0.85213 0.73161 0.0
C1544 C 0.66419 0.92035 0.77002 0.0
C1545 C 0.66691 0.93349 0.79416 0.0
C1546 C 0.67791 0.90168 0.76398 0.0
C1547 C 0.69453 0.89567 0.78197 0.0
C1548 C 0.69756 0.90918 0.8059 0.0
C1549 C 0.68398 0.92784 0.81191 0.0
C1550 C 0.72447 0.83822 0.78801 0.0
C1551 C 0.73493 0.83598 0.76582 0.0
C1552 C 0.71129 0.85749 0.79311 0.0
C1553 C 0.70834 0.87502 0.77616 0.0
C1554 C 0.71885 0.87276 0.75392 0.0
C1555 C 0.73216 0.85348 0.74886 0.0
H1556 H 0.69931 0.93727 0.51532 0.0
H1557 H 0.71993 0.00917 0.56353 0.0
H1558 H 0.66315 0.95097 0.49886 0.0
H1559 H 0.68349 0.02245 0.54787 0.0
H1560 H 0.62324 0.04861 0.50726 0.0
H1561 H 0.66209 0.03563 0.51374 0.0
H1562 H 0.62605 0.95684 0.51247 0.0
H1563 H 0.58757 0.96973 0.505 0.0
C1564 C 0.69607 0.95596 0.52245 0.0
C1565 C 0.71237 0.97207 0.54084 0.0
C1566 C 0.67534 0.96381 0.51305 0.0
C1567 C 0.67035 0.98782 0.52203 0.0
C1568 C 0.68692 0.00405 0.54015 0.0
C1569 C 0.70773 0.99632 0.54934 0.0
C1570 C 0.62377 0.02846 0.50781 0.0
C1571 C 0.60251 0.01019 0.50585 0.0
C1572 C 0.64596 0.02103 0.51174 0.0
C1573 C 0.64721 0.99523 0.51402 0.0
C1574 C 0.62585 0.97681 0.5106 0.0
C1575 C 0.60375 0.98422 0.50646 0.0
H1576 H 0.29523 0.49378 0.78141 0.0
H1577 H 0.34507 0.47468 0.73075 0.0
H1578 H 0.27748 0.44863 0.77939 0.0
H1579 H 0.32768 0.42898 0.72928 0.0
H1580 H 0.27902 0.34858 0.72081 0.0
H1581 H 0.29326 0.39403 0.71736 0.0
H1582 H 0.28941 0.41277 0.79558 0.0
H1583 H 0.27472 0.36789 0.79887 0.0
C1584 C 0.30238 0.4799 0.76974 0.0
C1585 C 0.32178 0.48786 0.75647 0.0
C1586 C 0.29227 0.45392 0.7687 0.0
C1587 C 0.30143 0.435 0.7546 0.0
C1588 C 0.3201 0.44299 0.74031 0.0
C1589 C 0.33012 0.46918 0.74116 0.0
C1590 C 0.28106 0.36246 0.73721 0.0
C1591 C 0.27559 0.3545 0.7601 0.0
C1592 C 0.28938 0.38851 0.73526 0.0
C1593 C 0.29236 0.40719 0.75614 0.0
C1594 C 0.28687 0.39911 0.77895 0.0
C1595 C 0.27855 0.37321 0.78089 0.0
H1596 H 0.18208 0.56835 0.33445 0.0
H1597 H 0.14013 0.55417 0.26275 0.0
H1598 H 0.20415 0.60809 0.32338 0.0
H1599 H 0.16209 0.59434 0.25188 0.0
H1600 H 0.21315 0.6918 0.30854 0.0
H1601 H 0.19422 0.64971 0.31738 0.0
H1602 H 0.20215 0.61692 0.24348 0.0
H1603 H 0.22101 0.65958 0.2345 0.0
C1604 C 0.17755 0.57365 0.3163 0.0
C1605 C 0.15913 0.55812 0.2996 0.0
C1606 C 0.19019 0.59651 0.30999 0.0
C1607 C 0.18473 0.60448 0.28683 0.0
C1608 C 0.16683 0.58863 0.2698 0.0
C1609 C 0.15414 0.5657 0.27612 0.0
C1610 C 0.21096 0.6756 0.29419 0.0
C1611 C 0.21851 0.67889 0.27083 0.0
C1612 C 0.20025 0.65143 0.29931 0.0
C1613 C 0.19678 0.62993 0.28118 0.0
C1614 C 0.20445 0.63317 0.25777 0.0
C1615 C 0.21533 0.65748 0.25266 0.0
H1616 H 0.54138 0.71859 0.39702 0.0
H1617 H 0.49634 0.74479 0.44986 0.0
H1618 H 0.54921 0.68532 0.42255 0.0
H1619 H 0.50457 0.71192 0.47552 0.0
H1620 H 0.53522 0.65129 0.51896 0.0
H1621 H 0.53973 0.69141 0.49973 0.0
H1622 H 0.51261 0.64758 0.42864 0.0
H1623 H 0.5074 0.60809 0.4477 0.0
C1624 C 0.5339 0.71785 0.41449 0.0
C1625 C 0.518 0.73397 0.42132 0.0
C1626 C 0.53833 0.69883 0.42904 0.0
C1627 C 0.52736 0.69608 0.45086 0.0
C1628 C 0.51334 0.71378 0.45886 0.0
C1629 C 0.50852 0.73244 0.4441 0.0
C1630 C 0.53032 0.6504 0.49925 0.0
C1631 C 0.52078 0.62675 0.48481 0.0
C1632 C 0.53299 0.6732 0.48829 0.0
C1633 C 0.52685 0.6724 0.46269 0.0
C1634 C 0.51787 0.64864 0.44832 0.0
C1635 C 0.51464 0.6261 0.45929 0.0
H1636 H 0.56536 0.28683 0.67663 0.0
H1637 H 0.55 0.27808 0.7515 0.0
H1638 H 0.60814 0.29092 0.6897 0.0
H1639 H 0.59265 0.28232 0.76449 0.0
H1640 H 0.66593 0.25688 0.7693 0.0
H1641 H 0.62367 0.25629 0.75756 0.0
H1642 H 0.64252 0.32009 0.71623 0.0
H1643 H 0.68507 0.32062 0.72787 0.0
C1644 C 0.57109 0.28588 0.69587 0.0
C1645 C 0.55421 0.282 0.71298 0.0
C1646 C 0.59562 0.2884 0.70339 0.0
C1647 C 0.6038 0.2869 0.72813 0.0
C1648 C 0.58693 0.28329 0.74525 0.0
C1649 C 0.56246 0.28095 0.7378 0.0
C1650 C 0.66113 0.27095 0.75787 0.0
C1651 C 0.67893 0.28883 0.74957 0.0
C1652 C 0.63686 0.27067 0.75122 0.0
C1653 C 0.62971 0.28813 0.73594 0.0
C1654 C 0.64747 0.30625 0.72786 0.0
C1655 C 0.67183 0.3067 0.73472 0.0
H1656 H 0.99842 0.33548 0.95092 0.0
H1657 H 0.01673 0.36913 0.88523 0.0
H1658 H 0.00434 0.37831 0.97423 0.0
H1659 H 0.02193 0.41228 0.90853 0.0
H1660 H 0.98104 0.47197 0.95381 0.0
H1661 H 0.98683 0.43283 0.92924 0.0
H1662 H 0.03854 0.42128 0.9875 0.0
H1663 H 0.03323 0.46102 0.0119 0.0
C1664 C 0.00407 0.35208 0.94159 0.0
C1665 C 0.00706 0.34907 0.91629 0.0
C1666 C 0.00758 0.37655 0.95496 0.0
C1667 C 0.01359 0.39852 0.94316 0.0
C1668 C 0.01736 0.39557 0.91802 0.0
C1669 C 0.01446 0.37097 0.90476 0.0
C1670 C 0.99391 0.46127 0.96118 0.0
C1671 C 0.00654 0.46928 0.98478 0.0
C1672 C 0.99737 0.43904 0.94706 0.0
C1673 C 0.01314 0.42412 0.95649 0.0
C1674 C 0.02631 0.43253 0.97983 0.0
C1675 C 0.02326 0.45516 0.99375 0.0
H1676 H 0.93998 0.75268 0.24035 0.0
H1677 H 0.89826 0.75182 0.17025 0.0
H1678 H 0.90428 0.75435 0.26155 0.0
H1679 H 0.8625 0.75309 0.1915 0.0
H1680 H 0.84486 0.79826 0.28814 0.0
H1681 H 0.87955 0.79012 0.26744 0.0
H1682 H 0.83434 0.72768 0.21865 0.0
H1683 H 0.79986 0.73523 0.24002 0.0
C1684 C 0.9231 0.75219 0.22937 0.0
C1685 C 0.92203 0.75218 0.20358 0.0
C1686 C 0.9027 0.7534 0.24157 0.0
C1687 C 0.88066 0.75416 0.22822 0.0
C1688 C 0.87922 0.75249 0.20228 0.0
C1689 C 0.89972 0.75173 0.19011 0.0
C1690 C 0.84236 0.78271 0.27308 0.0
C1691 C 0.81954 0.76767 0.26539 0.0
C1692 C 0.86223 0.77798 0.26131 0.0
C1693 C 0.85966 0.75828 0.24138 0.0
C1694 C 0.83683 0.74315 0.23377 0.0
C1695 C 0.81705 0.74761 0.24586 0.0
H1696 H 0.45739 0.36451 0.03145 0.0
H1697 H 0.5314 0.364 0.0562 0.0
H1698 H 0.47004 0.39719 0.00566 0.0
H1699 H 0.54428 0.39611 0.0292 0.0
H1700 H 0.55171 0.48169 0.01462 0.0
H1701 H 0.54537 0.44036 0.03048 0.0
H1702 H 0.48767 0.41127 0.97182 0.0
H1703 H 0.49272 0.45341 0.95765 0.0
C1704 C 0.47643 0.37085 0.03085 0.0
C1705 C 0.49338 0.36197 0.04621 0.0
C1706 C 0.48376 0.38953 0.0158 0.0
C1707 C 0.50826 0.39953 0.01541 0.0
C1708 C 0.52527 0.38925 0.02943 0.0
C1709 C 0.5179 0.37075 0.04481 0.0
C1710 C 0.5377 0.46638 0.00524 0.0
C1711 C 0.52195 0.47094 0.98578 0.0
C1712 C 0.5343 0.44251 0.01399 0.0
C1713 C 0.51552 0.42258 0.00284 0.0
C1714 C 0.5017 0.42644 0.98144 0.0
C1715 C 0.50469 0.4505 0.97318 0.0
H1716 H 0.93461 0.2276 0.38503 0.0
H1717 H 0.96925 0.29728 0.35965 0.0
H1718 H 0.89928 0.22636 0.3563 0.0
H1719 H 0.9333 0.29723 0.33202 0.0
H1720 H 0.87413 0.28066 0.26954 0.0
H1721 H 0.91032 0.27747 0.29547 0.0
H1722 H 0.86649 0.24525 0.34926 0.0
H1723 H 0.83066 0.24686 0.3225 0.0
C1724 C 0.93442 0.24295 0.3736 0.0
C1725 C 0.95454 0.26258 0.37455 0.0
C1726 C 0.91414 0.24231 0.35715 0.0
C1727 C 0.91332 0.26169 0.34173 0.0
C1728 C 0.93342 0.28163 0.34312 0.0
C1729 C 0.95393 0.28189 0.35917 0.0
C1730 C 0.8724 0.27245 0.28671 0.0
C1731 C 0.84976 0.26397 0.2941 0.0
C1732 C 0.89308 0.27091 0.30174 0.0
C1733 C 0.89143 0.2614 0.32469 0.0
C1734 C 0.86859 0.2523 0.33161 0.0
C1735 C 0.84799 0.25331 0.31633 0.0
H1736 H 0.01772 0.7564 0.58013 0.0
H1737 H 0.94217 0.72404 0.57408 0.0
H1738 H 0.02539 0.71579 0.56055 0.0
H1739 H 0.94981 0.6831 0.55602 0.0
H1740 H 0.96457 0.61588 0.50919 0.0
H1741 H 0.95949 0.65964 0.52174 0.0
H1742 H 0.02754 0.67421 0.56765 0.0
H1743 H 0.03315 0.63104 0.55368 0.0
C1744 C 0.00279 0.7405 0.57479 0.0
C1745 C 0.97936 0.74337 0.57861 0.0
C1746 C 0.00717 0.71715 0.56365 0.0
C1747 C 0.98825 0.69597 0.55658 0.0
C1748 C 0.96482 0.69901 0.56054 0.0
C1749 C 0.96041 0.72247 0.57115 0.0
C1750 C 0.97859 0.62868 0.5216 0.0
C1751 C 0.99919 0.62011 0.53052 0.0
C1752 C 0.97561 0.6537 0.52905 0.0
C1753 C 0.99287 0.6705 0.54614 0.0
C1754 C 0.01394 0.66209 0.55426 0.0
C1755 C 0.01717 0.63725 0.54633 0.0
H1756 H 0.57143 0.82553 0.8654 0.0
H1757 H 0.5965 0.76627 0.90274 0.0
H1758 H 0.59827 0.81989 0.83401 0.0
H1759 H 0.62388 0.76117 0.87167 0.0
H1760 H 0.64497 0.73381 0.79723 0.0
H1761 H 0.61862 0.7427 0.82855 0.0
H1762 H 0.63909 0.82413 0.82464 0.0
H1763 H 0.66479 0.8151 0.79283 0.0
C1764 C 0.58312 0.81177 0.8673 0.0
C1765 C 0.58156 0.79607 0.88639 0.0
C1766 C 0.5985 0.80851 0.84924 0.0
C1767 C 0.61276 0.78962 0.85 0.0
C1768 C 0.61255 0.77533 0.87015 0.0
C1769 C 0.5971 0.7785 0.88815 0.0
C1770 C 0.64337 0.75353 0.8027 0.0
C1771 C 0.65686 0.77376 0.79268 0.0
C1772 C 0.62861 0.75868 0.8209 0.0
C1773 C 0.62717 0.78417 0.82947 0.0
C1774 C 0.63977 0.8043 0.81846 0.0
C1775 C 0.65444 0.79912 0.80019 0.0
H1776 H 0.42078 0.61091 0.67704 0.0
H1777 H 0.3892 0.53005 0.66426 0.0
H1778 H 0.44689 0.60471 0.64505 0.0
H1779 H 0.41508 0.52393 0.63171 0.0
H1780 H 0.48417 0.5164 0.59821 0.0
H1781 H 0.45758 0.52409 0.62945 0.0
H1782 H 0.44818 0.59461 0.60113 0.0
H1783 H 0.47517 0.58725 0.5702 0.0
C1784 C 0.41911 0.59185 0.66711 0.0
C1785 C 0.40298 0.57094 0.67333 0.0
C1786 C 0.43408 0.58832 0.64869 0.0
C1787 C 0.43332 0.56378 0.63599 0.0
C1788 C 0.41647 0.54302 0.64149 0.0
C1789 C 0.40143 0.54656 0.65994 0.0
C1790 C 0.47677 0.53378 0.59886 0.0
C1791 C 0.48194 0.55124 0.58168 0.0
C1792 C 0.46124 0.53801 0.61659 0.0
C1793 C 0.45045 0.55978 0.61759 0.0
C1794 C 0.45628 0.57771 0.60099 0.0
C1795 C 0.47187 0.57352 0.58329 0.0
H1796 H 0.83704 0.24031 0.93083 0.0
H1797 H 0.76334 0.20445 0.93313 0.0
H1798 H 0.82514 0.26056 0.89528 0.0
H1799 H 0.75118 0.22562 0.89798 0.0
H1800 H 0.7404 0.24685 0.81862 0.0
H1801 H 0.75103 0.22629 0.85484 0.0
H1802 H 0.80662 0.29246 0.8814 0.0
H1803 H 0.79673 0.31201 0.84471 0.0
C1804 C 0.81819 0.23706 0.92406 0.0
C1805 C 0.80121 0.2207 0.93509 0.0
C1806 C 0.81127 0.24884 0.90357 0.0
C1807 C 0.78708 0.24494 0.89348 0.0
C1808 C 0.77002 0.2289 0.9048 0.0
C1809 C 0.77698 0.21691 0.92522 0.0
C1810 C 0.75497 0.25681 0.83209 0.0
C1811 C 0.76786 0.28091 0.82851 0.0
C1812 C 0.76097 0.24518 0.85312 0.0
C1813 C 0.77991 0.25748 0.87127 0.0
C1814 C 0.79234 0.28192 0.86777 0.0
C1815 C 0.78649 0.29333 0.84672 0.0
H1816 H 0.02806 0.46356 0.21207 0.0
H1817 H 0.10234 0.49455 0.20605 0.0
H1818 H 0.01729 0.47121 0.16977 0.0
H1819 H 0.09149 0.50278 0.16398 0.0
H1820 H 0.06723 0.49486 0.08183 0.0
H1821 H 0.07722 0.48249 0.12245 0.0
H1822 H 0.01452 0.50756 0.14762 0.0
H1823 H 0.00418 0.51938 0.10681 0.0
C1824 C 0.04211 0.47191 0.2017 0.0
C1825 C 0.06605 0.47852 0.21247 0.0
C1826 C 0.03591 0.47646 0.1775 0.0
C1827 C 0.05349 0.48778 0.16352 0.0
C1828 C 0.07752 0.49378 0.1741 0.0
C1829 C 0.08374 0.48916 0.19828 0.0
C1830 C 0.05548 0.49764 0.09597 0.0
C1831 C 0.0349 0.50816 0.09104 0.0
C1832 C 0.0613 0.49065 0.11932 0.0
C1833 C 0.04673 0.49409 0.13834 0.0
C1834 C 0.02597 0.50431 0.1333 0.0
C1835 C 0.02011 0.51122 0.10992 0.0
H1836 H 0.81649 0.86587 0.49256 0.0
H1837 H 0.74543 0.88382 0.48799 0.0
H1838 H 0.80742 0.84196 0.45141 0.0
H1839 H 0.73596 0.85897 0.44702 0.0
H1840 H 0.77934 0.78141 0.38718 0.0
H1841 H 0.78478 0.80328 0.42946 0.0
H1842 H 0.74459 0.85943 0.40544 0.0
H1843 H 0.73835 0.83683 0.36354 0.0
C1844 C 0.79885 0.86458 0.48281 0.0
C1845 C 0.78169 0.87676 0.49354 0.0
C1846 C 0.79356 0.85064 0.45926 0.0
C1847 C 0.77085 0.84825 0.44595 0.0
C1848 C 0.75371 0.8606 0.45663 0.0
C1849 C 0.75911 0.87483 0.48013 0.0
C1850 C 0.7714 0.7982 0.39112 0.0
C1851 C 0.75853 0.80752 0.37219 0.0
C1852 C 0.77468 0.81089 0.41525 0.0
C1853 C 0.76541 0.83336 0.42083 0.0
C1854 C 0.7518 0.84209 0.40193 0.0
C1855 C 0.7483 0.82921 0.37788 0.0
H1856 H 0.3925 0.59127 0.82544 0.0
H1857 H 0.43048 0.53543 0.79245 0.0
H1858 H 0.4179 0.59495 0.86427 0.0
H1859 H 0.4552 0.53805 0.8317 0.0
H1860 H 0.5106 0.56369 0.89694 0.0
H1861 H 0.4866 0.56518 0.85811 0.0
H1862 H 0.42587 0.57342 0.89825 0.0
H1863 H 0.45035 0.57329 0.93702 0.0
C1864 C 0.40603 0.57943 0.82665 0.0
C1865 C 0.40951 0.56302 0.80596 0.0
C1866 C 0.42059 0.58151 0.84894 0.0
C1867 C 0.43873 0.56692 0.85116 0.0
C1868 C 0.44181 0.55005 0.83053 0.0
C1869 C 0.42747 0.54829 0.8081 0.0
C1870 C 0.49226 0.56639 0.89739 0.0
C1871 C 0.48225 0.56836 0.91984 0.0
C1872 C 0.4784 0.56689 0.87516 0.0
C1873 C 0.45414 0.56895 0.87495 0.0
C1874 C 0.44451 0.57204 0.89766 0.0
C1875 C 0.45851 0.57194 0.91991 0.0
H1876 H 0.84775 0.23596 0.0709 0.0
H1877 H 0.77529 0.19314 0.05393 0.0
H1878 H 0.83776 0.2539 0.11086 0.0
H1879 H 0.7654 0.211 0.09382 0.0
H1880 H 0.74965 0.26713 0.15767 0.0
H1881 H 0.75986 0.25137 0.11707 0.0
H1882 H 0.82785 0.24006 0.15087 0.0
H1883 H 0.81774 0.25584 0.19139 0.0
C1884 C 0.82967 0.2304 0.07558 0.0
C1885 C 0.81239 0.21301 0.05902 0.0
C1886 C 0.82397 0.24061 0.09863 0.0
C1887 C 0.80074 0.23395 0.10571 0.0
C1888 C 0.78339 0.21684 0.08899 0.0
C1889 C 0.78915 0.20645 0.06608 0.0
C1890 C 0.76685 0.26143 0.15648 0.0
C1891 C 0.78283 0.26285 0.17798 0.0
C1892 C 0.77265 0.25221 0.13315 0.0
C1893 C 0.79471 0.24438 0.13055 0.0
C1894 C 0.81082 0.24615 0.15201 0.0
C1895 C 0.80493 0.2551 0.17535 0.0
H1896 H 0.10614 0.51609 0.37388 0.0
H1897 H 0.03973 0.51596 0.32933 0.0
H1898 H 0.08899 0.53046 0.4108 0.0
H1899 H 0.02197 0.52885 0.36631 0.0
H1900 H 0.99687 0.56259 0.43582 0.0
H1901 H 0.01881 0.55913 0.39954 0.0
H1902 H 0.06196 0.51209 0.43596 0.0
H1903 H 0.04094 0.51672 0.47222 0.0
C1904 C 0.08788 0.51915 0.37197 0.0
C1905 C 0.07422 0.51463 0.34874 0.0
C1906 C 0.07793 0.52725 0.39318 0.0
C1907 C 0.05388 0.53043 0.39174 0.0
C1908 C 0.04059 0.52694 0.36826 0.0
C1909 C 0.05073 0.51935 0.347 0.0
C1910 C 0.01128 0.55183 0.43602 0.0
C1911 C 0.01719 0.53988 0.45672 0.0
C1912 C 0.02377 0.54968 0.41523 0.0
C1913 C 0.04217 0.53522 0.41464 0.0
C1914 C 0.0483 0.52381 0.43574 0.0
C1915 C 0.03608 0.52626 0.45655 0.0
H1916 H 0.73298 0.8845 0.62093 0.0
H1917 H 0.75558 0.82664 0.57202 0.0
H1918 H 0.71489 0.85166 0.64466 0.0
H1919 H 0.73568 0.79322 0.59426 0.0
H1920 H 0.74931 0.75966 0.66742 0.0
H1921 H 0.7485 0.78109 0.63099 0.0
H1922 H 0.68998 0.81585 0.65482 0.0
H1923 H 0.69194 0.79518 0.69247 0.0
C1924 C 0.73319 0.86454 0.61473 0.0
C1925 C 0.74609 0.85801 0.59516 0.0
C1926 C 0.7226 0.84557 0.62818 0.0
C1927 C 0.72429 0.81964 0.62187 0.0
C1928 C 0.73478 0.81301 0.60031 0.0
C1929 C 0.74606 0.83208 0.58744 0.0
C1930 C 0.73581 0.77132 0.6646 0.0
C1931 C 0.7212 0.77637 0.68313 0.0
C1932 C 0.73513 0.78355 0.64342 0.0
C1933 C 0.71959 0.80096 0.64009 0.0
C1934 C 0.70273 0.80326 0.65713 0.0
C1935 C 0.70359 0.79113 0.67857 0.0
H1936 H 0.63585 0.4077 0.52445 0.0
H1937 H 0.68441 0.47915 0.52177 0.0
H1938 H 0.60197 0.4308 0.52344 0.0
H1939 H 0.6511 0.50173 0.52056 0.0
H1940 H 0.58558 0.52965 0.49034 0.0
H1941 H 0.61554 0.5024 0.49016 0.0
H1942 H 0.5871 0.46773 0.55162 0.0
H1943 H 0.55725 0.49587 0.55224 0.0
C1944 C 0.63929 0.42818 0.52345 0.0
C1945 C 0.66289 0.44151 0.52314 0.0
C1946 C 0.61995 0.44143 0.52306 0.0
C1947 C 0.62381 0.46813 0.52183 0.0
C1948 C 0.64738 0.48118 0.52126 0.0
C1949 C 0.66655 0.46816 0.52205 0.0
C1950 C 0.58561 0.51622 0.50385 0.0
C1951 C 0.56874 0.51472 0.52111 0.0
C1952 C 0.60279 0.50052 0.50369 0.0
C1953 C 0.60375 0.4828 0.52083 0.0
C1954 C 0.58662 0.48088 0.5379 0.0
C1955 C 0.56943 0.49688 0.53818 0.0
H1956 H 0.21155 0.07624 0.44016 0.0
H1957 H 0.20156 0.14984 0.47488 0.0
H1958 H 0.1701 0.05779 0.44443 0.0
H1959 H 0.16005 0.13122 0.47917 0.0
H1960 H 0.08075 0.09148 0.46559 0.0
H1961 H 0.12007 0.11049 0.45476 0.0
H1962 H 0.14988 0.04877 0.48252 0.0
H1963 H 0.11072 0.0297 0.4933 0.0
C1964 C 0.20043 0.08858 0.44838 0.0
C1965 C 0.20989 0.11444 0.45743 0.0
C1966 C 0.17675 0.07796 0.45092 0.0
C1967 C 0.16202 0.09302 0.46236 0.0
C1968 C 0.17104 0.11922 0.47019 0.0
C1969 C 0.19481 0.12983 0.46782 0.0
C1970 C 0.09567 0.08187 0.46921 0.0
C1971 C 0.09267 0.0591 0.48031 0.0
C1972 C 0.11815 0.09282 0.4631 0.0
C1973 C 0.13793 0.08103 0.46771 0.0
C1974 C 0.13484 0.05807 0.47846 0.0
C1975 C 0.11246 0.04727 0.4848 0.0
H1976 H 0.17769 0.92996 0.75743 0.0
H1977 H 0.22882 0.96694 0.81954 0.0
H1978 H 0.20346 0.89945 0.7475 0.0
H1979 H 0.2553 0.93731 0.80888 0.0
H1980 H 0.27935 0.85991 0.80471 0.0
H1981 H 0.25723 0.89445 0.8118 0.0
H1982 H 0.23882 0.89057 0.7328 0.0
H1983 H 0.26034 0.85508 0.726 0.0
C1984 C 0.19473 0.93196 0.76862 0.0
C1985 C 0.20112 0.95072 0.78942 0.0
C1986 C 0.20962 0.9145 0.76285 0.0
C1987 C 0.23146 0.91565 0.7775 0.0
C1988 C 0.23837 0.93535 0.79754 0.0
C1989 C 0.22328 0.95251 0.80356 0.0
C1990 C 0.2708 0.86668 0.78887 0.0
C1991 C 0.27134 0.85478 0.76482 0.0
C1992 C 0.25819 0.88662 0.79289 0.0
C1993 C 0.24617 0.89548 0.77289 0.0
C1994 C 0.24746 0.88402 0.7487 0.0
C1995 C 0.25983 0.86377 0.74474 0.0
H1996 H 0.30754 0.90409 0.02815 0.0
H1997 H 0.27913 0.96173 0.99129 0.0
H1998 H 0.34802 0.92646 0.02572 0.0
H1999 H 0.31996 0.98462 0.98943 0.0
H2000 H 0.39939 0.00593 0.97365 0.0
H2001 H 0.35814 0.98224 0.9715 0.0
H2002 H 0.37197 0.96679 0.04686 0.0
H2003 H 0.41307 0.99002 0.0488 0.0
C2004 C 0.30989 0.92135 0.01921 0.0
C2005 C 0.29007 0.93113 0.00994 0.0
C2006 C 0.33315 0.93435 0.01807 0.0
C2007 C 0.33718 0.95752 0.00775 0.0
C2008 C 0.31741 0.96676 0.99744 0.0
C2009 C 0.29404 0.95369 0.99856 0.0
C2010 C 0.39349 0.9975 0.98972 0.0
C2011 C 0.40934 0.99964 0.01135 0.0
C2012 C 0.36992 0.98403 0.98852 0.0
C2013 C 0.3619 0.97244 0.00891 0.0
C2014 C 0.37775 0.97506 0.03066 0.0
C2015 C 0.40122 0.98851 0.03186 0.0
H2016 H 0.8658 0.65264 0.7474 0.0
H2017 H 0.81797 0.60423 0.7871 0.0
H2018 H 0.83504 0.67854 0.73998 0.0
H2019 H 0.78689 0.62883 0.77863 0.0
H2020 H 0.74979 0.69626 0.79132 0.0
H2021 H 0.77913 0.66854 0.79371 0.0
H2022 H 0.79727 0.68343 0.72086 0.0
H2023 H 0.76819 0.71212 0.71907 0.0
C2024 C 0.84848 0.64716 0.75393 0.0
C2025 C 0.84432 0.62665 0.76805 0.0
C2026 C 0.8308 0.66195 0.74968 0.0
C2027 C 0.80853 0.6562 0.75916 0.0
C2028 C 0.80402 0.6345 0.77178 0.0
C2029 C 0.82176 0.62017 0.77643 0.0
C2030 C 0.75991 0.69343 0.77574 0.0
C2031 C 0.75676 0.7063 0.75503 0.0
C2032 C 0.77671 0.67738 0.777 0.0
C2033 C 0.79054 0.67336 0.75734 0.0
C2034 C 0.78718 0.68618 0.73645 0.0
C2035 C 0.77047 0.70252 0.73535 0.0
H2036 H 0.81441 0.5858 0.03232 0.0
H2037 H 0.86872 0.64511 0.01218 0.0
H2038 H 0.84558 0.56654 0.05221 0.0
H2039 H 0.89972 0.62586 0.03197 0.0
H2040 H 0.95326 0.59108 0.07039 0.0
H2041 H 0.9189 0.61265 0.0701 0.0
H2042 H 0.87383 0.54368 0.03074 0.0
H2043 H 0.90808 0.52221 0.03115 0.0
C2044 C 0.83296 0.59503 0.03256 0.0
C2045 C 0.83917 0.61673 0.02033 0.0
C2046 C 0.85075 0.58401 0.044 0.0
C2047 C 0.87502 0.59461 0.04351 0.0
C2048 C 0.88114 0.61742 0.03291 0.0
C2049 C 0.86337 0.62835 0.02136 0.0
C2050 C 0.93581 0.58033 0.06241 0.0
C2051 C 0.93325 0.55521 0.05035 0.0
C2052 C 0.91622 0.59268 0.0622 0.0
C2053 C 0.89384 0.57996 0.05007 0.0
C2054 C 0.89084 0.55393 0.04034 0.0
C2055 C 0.91045 0.54165 0.04044 0.0
H2056 H 0.16155 0.06699 0.76748 0.0
H2057 H 0.20669 0.0783 0.83708 0.0
H2058 H 0.1785 0.11041 0.76004 0.0
H2059 H 0.22408 0.12142 0.82931 0.0
H2060 H 0.22912 0.18189 0.74379 0.0
H2061 H 0.21392 0.13766 0.75046 0.0
H2062 H 0.21369 0.16267 0.82826 0.0
H2063 H 0.2294 0.20655 0.82176 0.0
C2064 C 0.17522 0.07863 0.78113 0.0
C2065 C 0.18262 0.06909 0.80297 0.0
C2066 C 0.18508 0.10354 0.77677 0.0
C2067 C 0.20265 0.11957 0.79409 0.0
C2068 C 0.2103 0.10985 0.81574 0.0
C2069 C 0.20039 0.085 0.82014 0.0
C2070 C 0.22591 0.17794 0.76234 0.0
C2071 C 0.23053 0.19787 0.78221 0.0
C2072 C 0.21704 0.15256 0.76615 0.0
C2073 C 0.21254 0.14648 0.78992 0.0
C2074 C 0.21729 0.16645 0.80977 0.0
C2075 C 0.22619 0.19175 0.80598 0.0
H2076 H 0.37898 0.99926 0.25512 0.0
H2077 H 0.32971 0.02422 0.30373 0.0
H2078 H 0.35516 0.95566 0.24948 0.0
H2079 H 0.30549 0.98131 0.29734 0.0
H2080 H 0.28566 0.89737 0.30768 0.0
H2081 H 0.30781 0.94108 0.30999 0.0
H2082 H 0.3183 0.92754 0.23268 0.0
H2083 H 0.29679 0.8832 0.2308 0.0
C2084 C 0.36289 0.99551 0.26429 0.0
C2085 C 0.35643 0.01507 0.28015 0.0
C2086 C 0.34915 0.97057 0.26098 0.0
C2087 C 0.32853 0.96481 0.27323 0.0
C2088 C 0.32159 0.98477 0.28817 0.0
C2089 C 0.33544 0.00947 0.29174 0.0
C2090 C 0.29256 0.9038 0.29115 0.0
C2091 C 0.28948 0.88698 0.26906 0.0
C2092 C 0.30517 0.92894 0.29239 0.0
C2093 C 0.31478 0.93801 0.27147 0.0
C2094 C 0.31141 0.92117 0.24922 0.0
C2095 C 0.29893 0.89585 0.24806 0.0
H2096 H 0.454 0.29831 0.5715 0.0
H2097 H 0.50664 0.34003 0.6303 0.0
H2098 H 0.46322 0.33303 0.54636 0.0
H2099 H 0.51496 0.37537 0.60593 0.0
H2100 H 0.45958 0.41382 0.52585 0.0
H2101 H 0.45546 0.37412 0.54462 0.0
H2102 H 0.53071 0.39292 0.57262 0.0
H2103 H 0.53422 0.43334 0.55503 0.0
C2104 C 0.46766 0.31488 0.57899 0.0
C2105 C 0.47949 0.31651 0.60293 0.0
C2106 C 0.47282 0.33492 0.56467 0.0
C2107 C 0.4896 0.35734 0.57414 0.0
C2108 C 0.50216 0.35839 0.59773 0.0
C2109 C 0.49732 0.33812 0.61185 0.0
C2110 C 0.47525 0.40922 0.53578 0.0
C2111 C 0.49713 0.42665 0.53924 0.0
C2112 C 0.47299 0.38636 0.54645 0.0
C2113 C 0.49271 0.38023 0.56043 0.0
C2114 C 0.51496 0.39719 0.56259 0.0
C2115 C 0.51706 0.42027 0.55234 0.0
H2116 H 0.45889 0.80801 0.29349 0.0
H2117 H 0.42938 0.75692 0.34382 0.0
H2118 H 0.4185 0.80597 0.27299 0.0
H2119 H 0.38934 0.75537 0.32388 0.0
H2120 H 0.32276 0.73694 0.27101 0.0
H2121 H 0.36466 0.73806 0.28522 0.0
H2122 H 0.38072 0.81962 0.28082 0.0
H2123 H 0.33893 0.81848 0.2661 0.0
C2124 C 0.44381 0.79654 0.30031 0.0
C2125 C 0.44737 0.78277 0.32041 0.0
C2126 C 0.42069 0.79539 0.28858 0.0
C2127 C 0.4007 0.7803 0.29663 0.0
C2128 C 0.40434 0.76677 0.31686 0.0
C2129 C 0.42734 0.76796 0.32856 0.0
C2130 C 0.33527 0.75504 0.2726 0.0
C2131 C 0.32735 0.77766 0.26766 0.0
C2132 C 0.35928 0.75572 0.28097 0.0
C2133 C 0.37597 0.77903 0.2846 0.0
C2134 C 0.36837 0.80134 0.27819 0.0
C2135 C 0.34434 0.80067 0.26981 0.0
H2136 H 0.9468 0.67706 0.10272 0.0
H2137 H 0.0178 0.71186 0.13762 0.0
H2138 H 0.96285 0.64242 0.08165 0.0
H2139 H 0.03406 0.67765 0.11579 0.0
H2140 H 0.0529 0.59981 0.08749 0.0
H2141 H 0.03737 0.63366 0.11134 0.0
H2142 H 0.98544 0.63453 0.04894 0.0
H2143 H 0.00048 0.6004 0.02576 0.0
C2144 C 0.96587 0.67737 0.10589 0.0
C2145 C 0.98097 0.6974 0.12185 0.0
C2146 C 0.97516 0.65753 0.09361 0.0
C2147 C 0.99989 0.65723 0.09667 0.0
C2148 C 0.01492 0.67697 0.11308 0.0
C2149 C 0.00558 0.69672 0.12556 0.0
C2150 C 0.03826 0.60743 0.07895 0.0
C2151 C 0.02779 0.59737 0.05487 0.0
C2152 C 0.02935 0.62686 0.09256 0.0
C2153 C 0.0099 0.63681 0.08226 0.0
C2154 C 0.99999 0.62706 0.05784 0.0
C2155 C 0.00876 0.6076 0.0444 0.0
H2156 H 0.09724 0.29753 0.85762 0.0
H2157 H 0.06603 0.28113 0.78135 0.0
H2158 H 0.13731 0.30028 0.84405 0.0
H2159 H 0.10567 0.28347 0.76793 0.0
H2160 H 0.17989 0.30913 0.74817 0.0
H2161 H 0.14236 0.31298 0.76505 0.0
H2162 H 0.16183 0.27156 0.82502 0.0
H2163 H 0.1996 0.26808 0.80821 0.0
C2164 C 0.09891 0.2947 0.83799 0.0
C2165 C 0.07838 0.28909 0.82059 0.0
C2166 C 0.12185 0.29611 0.83022 0.0
C2167 C 0.12477 0.29214 0.80488 0.0
C2168 C 0.10421 0.28704 0.78756 0.0
C2169 C 0.08139 0.28552 0.7953 0.0
C2170 C 0.17625 0.30108 0.76509 0.0
C2171 C 0.19259 0.28817 0.77677 0.0
C2172 C 0.15468 0.30317 0.77472 0.0
C2173 C 0.1489 0.29234 0.79627 0.0
C2174 C 0.16575 0.28031 0.80852 0.0
C2175 C 0.18737 0.27823 0.79885 0.0
H2176 H 0.54791 0.71886 0.97238 0.0
H2177 H 0.47765 0.71485 0.99732 0.0
H2178 H 0.55438 0.68362 0.99544 0.0
H2179 H 0.48431 0.67975 0.02039 0.0
H2180 H 0.4892 0.59243 0.00994 0.0
H2181 H 0.48562 0.63526 1.00034 0.0
H2182 H 0.55716 0.66537 0.03651 0.0
H2183 H 0.56071 0.6222 0.04604 0.0
C2184 C 0.53415 0.71104 0.98335 0.0
C2185 C 0.51201 0.71921 0.98248 0.0
C2186 C 0.53791 0.6909 0.99664 0.0
C2187 C 0.51962 0.67868 0.00924 0.0
C2188 C 0.4985 0.68857 0.0104 0.0
C2189 C 0.49474 0.7087 0.99721 0.0
C2190 C 0.50404 0.60826 0.01601 0.0
C2191 C 0.52526 0.60416 0.02849 0.0
C2192 C 0.50192 0.6328 0.0108 0.0
C2193 C 0.5211 0.65363 0.01783 0.0
C2194 C 0.54215 0.64962 0.03092 0.0
C2195 C 0.54414 0.62503 0.0364 0.0
H2196 H 0.07894 0.82449 0.63194 0.0
H2197 H 0.06496 0.85751 0.7037 0.0
H2198 H 0.11929 0.82185 0.64924 0.0
H2199 H 0.10521 0.85451 0.72093 0.0
H2200 H 0.15777 0.79804 0.7412 0.0
H2201 H 0.12123 0.81156 0.72534 0.0
H2202 H 0.15973 0.85099 0.67187 0.0
H2203 H 0.19655 0.83784 0.68809 0.0
C2204 C 0.0846 0.83151 0.65129 0.0
C2205 C 0.06875 0.84089 0.66656 0.0
C2206 C 0.1077 0.83016 0.66111 0.0
C2207 C 0.11513 0.83785 0.68638 0.0
C2208 C 0.09972 0.84835 0.7014 0.0
C2209 C 0.07676 0.85008 0.69151 0.0
C2210 C 0.15845 0.80983 0.72625 0.0
C2211 C 0.17977 0.81677 0.71567 0.0
C2212 C 0.13766 0.81771 0.71733 0.0
C2213 C 0.13783 0.83231 0.69747 0.0
C2214 C 0.15928 0.83971 0.6872 0.0
C2215 C 0.18022 0.8322 0.69644 0.0
H2216 H 0.03595 0.33672 0.47021 0.0
H2217 H 0.95925 0.33115 0.46675 0.0
H2218 H 0.04176 0.3809 0.4904 0.0
H2219 H 0.96487 0.37532 0.48551 0.0
H2220 H 0.97763 0.44987 0.5331 0.0
H2221 H 0.97602 0.4042 0.52105 0.0
H2222 H 0.03865 0.42236 0.48249 0.0
H2223 H 0.04097 0.46782 0.49589 0.0
C2224 C 0.02035 0.34497 0.47368 0.0
C2225 C 0.99716 0.33041 0.46694 0.0
C2226 C 0.02364 0.37035 0.48515 0.0
C2227 C 0.0038 0.38186 0.48975 0.0
C2228 C 0.98065 0.36711 0.48297 0.0
C2229 C 0.97739 0.34171 0.47195 0.0
C2230 C 0.99127 0.44399 0.52242 0.0
C2231 C 0.00934 0.46237 0.51535 0.0
C2232 C 0.99026 0.41781 0.51528 0.0
C2233 C 0.00694 0.40942 0.50033 0.0
C2234 C 0.02563 0.4279 0.49419 0.0
C2235 C 0.02693 0.45405 0.50181 0.0
H2236 H 0.45353 0.28809 0.18073 0.0
H2237 H 0.4151 0.32363 0.12661 0.0
H2238 H 0.41856 0.28247 0.20365 0.0
H2239 H 0.3802 0.3179 0.14952 0.0
H2240 H 0.33912 0.3365 0.21606 0.0
H2241 H 0.37305 0.33843 0.19156 0.0
H2242 H 0.37524 0.2591 0.19939 0.0
H2243 H 0.3413 0.25718 0.2239 0.0
C2244 C 0.43751 0.29434 0.17354 0.0
C2245 C 0.43707 0.30643 0.15197 0.0
C2246 C 0.41752 0.29107 0.18662 0.0
C2247 C 0.39687 0.30005 0.17846 0.0
C2248 C 0.39608 0.31118 0.15637 0.0
C2249 C 0.41598 0.31424 0.14317 0.0
C2250 C 0.34697 0.31957 0.21262 0.0
C2251 C 0.33774 0.29672 0.22179 0.0
C2252 C 0.36619 0.32058 0.19847 0.0
C2253 C 0.37656 0.29883 0.19347 0.0
C2254 C 0.36758 0.27612 0.20307 0.0
C2255 C 0.34821 0.27504 0.21702 0.0
H2256 H 0.60784 0.4616 0.35839 0.0
H2257 H 0.58747 0.53049 0.33608 0.0
H2258 H 0.58246 0.46259 0.3916 0.0
H2259 H 0.56384 0.53333 0.37084 0.0
H2260 H 0.50819 0.52485 0.42296 0.0
H2261 H 0.52997 0.51894 0.38716 0.0
H2262 H 0.57664 0.47941 0.42924 0.0
H2263 H 0.55307 0.48303 0.46368 0.0
C2264 C 0.59832 0.47737 0.3611 0.0
C2265 C 0.5996 0.49602 0.34482 0.0
C2266 C 0.58379 0.47809 0.38028 0.0
C2267 C 0.57082 0.49805 0.38425 0.0
C2268 C 0.57282 0.51717 0.36819 0.0
C2269 C 0.58667 0.51586 0.34842 0.0
C2270 C 0.52273 0.51429 0.42412 0.0
C2271 C 0.52891 0.50427 0.44594 0.0
C2272 C 0.53559 0.51129 0.40377 0.0
C2273 C 0.55559 0.4991 0.40512 0.0
C2274 C 0.56123 0.48851 0.42696 0.0
C2275 C 0.54776 0.49066 0.44691 0.0
H2276 H 0.21556 0.86808 0.10023 0.0
H2277 H 0.23256 0.79938 0.06274 0.0
H2278 H 0.21946 0.8509 0.13957 0.0
H2279 H 0.23474 0.78111 0.10159 0.0
H2280 H 0.26919 0.76815 0.17561 0.0
H2281 H 0.2605 0.78396 0.13637 0.0
H2282 H 0.20905 0.82439 0.16859 0.0
H2283 H 0.2192 0.80982 0.20825 0.0
C2284 C 0.21901 0.84875 0.10026 0.0
C2285 C 0.2236 0.83503 0.07835 0.0
C2286 C 0.22142 0.83883 0.12294 0.0
C2287 C 0.22805 0.81468 0.12425 0.0
C2288 C 0.23056 0.80014 0.10181 0.0
C2289 C 0.22877 0.81035 0.0793 0.0
C2290 C 0.25618 0.7806 0.17428 0.0
C2291 C 0.24501 0.78781 0.19504 0.0
C2292 C 0.25085 0.78945 0.1516 0.0
C2293 C 0.23368 0.80532 0.14877 0.0
C2294 C 0.22256 0.81255 0.16977 0.0
C2295 C 0.22833 0.80412 0.19263 0.0
H2296 H 0.91896 0.58691 0.85602 0.0
H2297 H 0.97682 0.56482 0.81827 0.0
H2298 H 0.93841 0.57937 0.89497 0.0
H2299 H 0.99725 0.55875 0.85767 0.0
H2300 H 0.01513 0.5254 0.93021 0.0
H2301 H 0.99785 0.53308 0.88976 0.0
H2302 H 0.96977 0.59622 0.9252 0.0
H2303 H 0.98578 0.5874 0.96537 0.0
C2304 C 0.93591 0.58057 0.85601 0.0
C2305 C 0.9462 0.57636 0.83393 0.0
C2306 C 0.94733 0.57653 0.87852 0.0
C2307 C 0.96968 0.56872 0.87974 0.0
C2308 C 0.97996 0.56445 0.85757 0.0
C2309 C 0.96828 0.56806 0.83493 0.0
C2310 C 0.00552 0.54111 0.92917 0.0
C2311 C 0.00164 0.55572 0.95085 0.0
C2312 C 0.9956 0.54557 0.906 0.0
C2313 C 0.98196 0.56504 0.90406 0.0
C2314 C 0.97939 0.58051 0.92585 0.0
C2315 C 0.98882 0.57568 0.94892 0.0
H2316 H 0.32831 0.21895 0.57038 0.0
H2317 H 0.25485 0.18397 0.54349 0.0
H2318 H 0.31574 0.23322 0.61003 0.0
H2319 H 0.2424 0.19816 0.58345 0.0
H2320 H 0.22924 0.2519 0.6524 0.0
H2321 H 0.23976 0.23846 0.61108 0.0
H2322 H 0.30032 0.21105 0.64449 0.0
H2323 H 0.28997 0.22453 0.68544 0.0
C2324 C 0.30947 0.21436 0.57285 0.0
C2325 C 0.29262 0.20014 0.55377 0.0
C2326 C 0.3023 0.22244 0.59564 0.0
C2327 C 0.27813 0.21659 0.59987 0.0
C2328 C 0.26114 0.20303 0.58063 0.0
C2329 C 0.26832 0.19481 0.55781 0.0
C2330 C 0.24467 0.24283 0.65078 0.0
C2331 C 0.25881 0.23923 0.67199 0.0
C2332 C 0.25065 0.23512 0.62722 0.0
C2333 C 0.27098 0.22393 0.62462 0.0
C2334 C 0.28479 0.21999 0.64593 0.0
C2335 C 0.27875 0.22752 0.66936 0.0
H2336 H 0.59503 0.43279 0.19395 0.0
H2337 H 0.62925 0.51283 0.20954 0.0
H2338 H 0.58174 0.43944 0.15181 0.0
H2339 H 0.61548 0.5196 0.168 0.0
H2340 H 0.60312 0.52366 0.08781 0.0
H2341 H 0.62048 0.51041 0.12546 0.0
H2342 H 0.55295 0.46091 0.13135 0.0
H2343 H 0.53591 0.47354 0.09293 0.0
C2344 C 0.59983 0.45174 0.18836 0.0
C2345 C 0.61314 0.47231 0.20511 0.0
C2346 C 0.5921 0.45558 0.16427 0.0
C2347 C 0.59753 0.48004 0.15651 0.0
C2348 C 0.61132 0.50039 0.17316 0.0
C2349 C 0.6191 0.49655 0.1971 0.0
C2350 C 0.59212 0.50968 0.09699 0.0
C2351 C 0.56814 0.49983 0.08775 0.0
C2352 C 0.602 0.50219 0.11863 0.0
C2353 C 0.588 0.48495 0.13167 0.0
C2354 C 0.56428 0.47412 0.12169 0.0
C2355 C 0.55446 0.48143 0.09981 0.0
H2356 H 0.23796 0.80722 0.95675 0.0
H2357 H 0.21604 0.87628 0.93683 0.0
H2358 H 0.23912 0.79229 0.91333 0.0
H2359 H 0.21807 0.86184 0.89308 0.0
H2360 H 0.2146 0.82159 0.81295 0.0
H2361 H 0.20507 0.83301 0.85507 0.0
H2362 H 0.26589 0.80321 0.88434 0.0
H2363 H 0.27488 0.79128 0.84275 0.0
C2364 C 0.23292 0.81902 0.94299 0.0
C2365 C 0.2269 0.84295 0.95034 0.0
C2366 C 0.23392 0.81063 0.918 0.0
C2367 C 0.22938 0.82611 0.89949 0.0
C2368 C 0.2217 0.8493 0.90667 0.0
C2369 C 0.2204 0.85758 0.9318 0.0
C2370 C 0.2258 0.81729 0.8284 0.0
C2371 C 0.24543 0.80527 0.82425 0.0
C2372 C 0.2204 0.824 0.85263 0.0
C2373 C 0.23447 0.81882 0.87337 0.0
C2374 C 0.25415 0.80696 0.86905 0.0
C2375 C 0.25949 0.80027 0.84499 0.0
H2376 H 0.91083 0.55992 0.68159 0.0
H2377 H 0.9836 0.58963 0.71444 0.0
H2378 H 0.92588 0.54693 0.64242 0.0
H2379 H 0.9984 0.57693 0.6757 0.0
H2380 H 0.02063 0.53008 0.61171 0.0
H2381 H 0.00202 0.53767 0.64967 0.0
H2382 H 0.94662 0.56698 0.60893 0.0
H2383 H 0.9652 0.55924 0.57096 0.0
C2384 C 0.92996 0.56373 0.68047 0.0
C2385 C 0.94597 0.57581 0.70119 0.0
C2386 C 0.93858 0.55633 0.65805 0.0
C2387 C 0.96337 0.56065 0.65601 0.0
C2388 C 0.97925 0.57284 0.67672 0.0
C2389 C 0.97069 0.58034 0.69894 0.0
C2390 C 0.00432 0.53785 0.61083 0.0
C2391 C 0.99445 0.54419 0.58842 0.0
C2392 C 0.99371 0.54232 0.63258 0.0
C2393 C 0.97296 0.55319 0.63239 0.0
C2394 C 0.96248 0.55844 0.60971 0.0
C2395 C 0.97317 0.55405 0.58796 0.0
H2396 H 0.26386 0.21678 0.43636 0.0
H2397 H 0.33992 0.24791 0.44647 0.0
H2398 H 0.25821 0.24486 0.40538 0.0
H2399 H 0.3341 0.27674 0.41561 0.0
H2400 H 0.2482 0.2972 0.35246 0.0
H2401 H 0.25892 0.28699 0.39385 0.0
H2402 H 0.325 0.26822 0.37111 0.0
H2403 H 0.31467 0.27923 0.33009 0.0
C2404 C 0.27935 0.23002 0.43235 0.0
C2405 C 0.30242 0.22971 0.44355 0.0
C2406 C 0.27606 0.24642 0.41473 0.0
C2407 C 0.29574 0.26299 0.40787 0.0
C2408 C 0.31862 0.26396 0.42028 0.0
C2409 C 0.32193 0.2475 0.43801 0.0
C2410 C 0.26533 0.29159 0.35653 0.0
C2411 C 0.28035 0.28845 0.3379 0.0
C2412 C 0.27143 0.28567 0.38022 0.0
C2413 C 0.29252 0.27618 0.38561 0.0
C2414 C 0.30864 0.27554 0.36766 0.0
C2415 C 0.30266 0.28174 0.34403 0.0
H2416 H 0.38372 0.64901 0.4892 0.0
H2417 H 0.3405 0.5933 0.52631 0.0
H2418 H 0.41616 0.62449 0.49176 0.0
H2419 H 0.37186 0.56838 0.52775 0.0
H2420 H 0.43547 0.53332 0.54337 0.0
H2421 H 0.40836 0.56353 0.545 0.0
H2422 H 0.42896 0.5871 0.47554 0.0
H2423 H 0.45741 0.55764 0.47496 0.0
C2424 C 0.3812 0.6317 0.4981 0.0
C2425 C 0.35944 0.62329 0.50764 0.0
C2426 C 0.39972 0.61739 0.49932 0.0
C2427 C 0.39692 0.59419 0.50995 0.0
C2428 C 0.37525 0.58627 0.51989 0.0
C2429 C 0.357 0.60063 0.51893 0.0
C2430 C 0.4343 0.54503 0.52848 0.0
C2431 C 0.44852 0.54296 0.50897 0.0
C2432 C 0.41853 0.56235 0.52929 0.0
C2433 C 0.41584 0.5777 0.51016 0.0
C2434 C 0.43051 0.57594 0.49079 0.0
C2435 C 0.44678 0.55892 0.49032 0.0
H2436 H 0.83311 0.9926 0.53748 0.0
H2437 H 0.85439 0.93181 0.57536 0.0
H2438 H 0.8739 0.00567 0.52814 0.0
H2439 H 0.89527 0.94434 0.56507 0.0
H2440 H 0.93889 0.00339 0.48869 0.0
H2441 H 0.89942 0.98891 0.50079 0.0
H2442 H 0.93128 0.97808 0.57267 0.0
H2443 H 0.97121 0.99203 0.5602 0.0
C2444 C 0.84647 0.98191 0.54373 0.0
C2445 C 0.84037 0.96086 0.5568 0.0
C2446 C 0.86987 0.98931 0.53822 0.0
C2447 C 0.88776 0.97575 0.54545 0.0
C2448 C 0.88189 0.9552 0.55925 0.0
C2449 C 0.85841 0.94787 0.56495 0.0
C2450 C 0.93758 0.99792 0.50709 0.0
C2451 C 0.95819 0.9992 0.52361 0.0
C2452 C 0.91489 0.98973 0.51408 0.0
C2453 C 0.91217 0.9828 0.53786 0.0
C2454 C 0.93279 0.98326 0.55419 0.0
C2455 C 0.95564 0.99132 0.54709 0.0
H2456 H 0.78485 0.09783 0.27536 0.0
H2457 H 0.82058 0.11464 0.21097 0.0
H2458 H 0.76413 0.1335 0.27133 0.0
H2459 H 0.79953 0.15045 0.20693 0.0
H2460 H 0.76741 0.22144 0.27991 0.0
H2461 H 0.78233 0.18116 0.27873 0.0
H2462 H 0.75806 0.1637 0.20061 0.0
H2463 H 0.74315 0.20419 0.20185 0.0
C2464 C 0.78793 0.10878 0.26001 0.0
C2465 C 0.8047 0.10361 0.24372 0.0
C2466 C 0.77612 0.12931 0.25781 0.0
C2467 C 0.78063 0.14504 0.23916 0.0
C2468 C 0.79579 0.13863 0.22154 0.0
C2469 C 0.80778 0.11807 0.22381 0.0
C2470 C 0.76532 0.209 0.26252 0.0
C2471 C 0.75422 0.21583 0.24099 0.0
C2472 C 0.77363 0.18587 0.26186 0.0
C2473 C 0.77119 0.16923 0.23959 0.0
C2474 C 0.76017 0.17617 0.21799 0.0
C2475 C 0.75155 0.1992 0.21874 0.0
H2476 H 0.73423 0.13051 0.05218 0.0
H2477 H 0.71553 0.12674 0.97338 0.0
H2478 H 0.69226 0.11616 0.05745 0.0
H2479 H 0.67361 0.11147 0.97849 0.0
H2480 H 0.59755 0.10701 0.99807 0.0
H2481 H 0.6394 0.12411 0.99403 0.0
H2482 H 0.66153 0.07892 0.04982 0.0
H2483 H 0.61958 0.06267 0.05443 0.0
C2484 C 0.72115 0.12648 0.03595 0.0
C2485 C 0.72821 0.12971 0.01235 0.0
C2486 C 0.69708 0.1181 0.03895 0.0
C2487 C 0.67949 0.11251 0.0184 0.0
C2488 C 0.68658 0.11594 0.9948 0.0
C2489 C 0.71065 0.12456 0.99183 0.0
C2490 C 0.61141 0.1009 0.00956 0.0
C2491 C 0.60541 0.08359 0.02659 0.0
C2492 C 0.6354 0.11053 0.00712 0.0
C2493 C 0.65392 0.10284 0.02151 0.0
C2494 C 0.64779 0.08558 0.03869 0.0
C2495 C 0.62377 0.07614 0.04126 0.0
H2496 H 0.19522 0.46294 0.31408 0.0
H2497 H 0.13309 0.4086 0.27882 0.0
H2498 H 0.22052 0.43165 0.30493 0.0
H2499 H 0.15765 0.37629 0.27162 0.0
H2500 H 0.2087 0.32783 0.24369 0.0
H2501 H 0.18465 0.36069 0.24998 0.0
H2502 H 0.23285 0.39587 0.31529 0.0
H2503 H 0.258 0.36414 0.30719 0.0
C2504 C 0.18703 0.44413 0.30448 0.0
C2505 C 0.16233 0.43815 0.29696 0.0
C2506 C 0.20144 0.42598 0.29949 0.0
C2507 C 0.19133 0.40107 0.28764 0.0
C2508 C 0.16643 0.39528 0.28021 0.0
C2509 C 0.1522 0.41375 0.28445 0.0
C2510 C 0.21412 0.34273 0.25928 0.0
C2511 C 0.23519 0.34364 0.27489 0.0
C2512 C 0.20019 0.36153 0.26312 0.0
C2513 C 0.20654 0.38122 0.28326 0.0
C2514 C 0.22752 0.38161 0.29919 0.0
C2515 C 0.24188 0.36326 0.29479 0.0
H2516 H 0.201 0.45983 0.06095 0.0
H2517 H 0.20997 0.44707 0.98323 0.0
H2518 H 0.16705 0.48038 0.05093 0.0
H2519 H 0.17548 0.46729 0.97326 0.0
H2520 H 0.09246 0.4779 0.97576 0.0
H2521 H 0.12792 0.4579 0.97992 0.0
H2522 H 0.1649 0.5236 0.03063 0.0
H2523 H 0.12981 0.54382 0.02613 0.0
C2524 C 0.19554 0.46109 0.0417 0.0
C2525 C 0.20822 0.45189 0.02288 0.0
C2526 C 0.17624 0.47304 0.03602 0.0
C2527 C 0.16891 0.47564 0.01138 0.0
C2528 C 0.1809 0.46557 0.99241 0.0
C2529 C 0.20057 0.45403 0.99813 0.0
C2530 C 0.10843 0.48834 0.98724 0.0
C2531 C 0.10844 0.51236 1.00067 0.0
C2532 C 0.12863 0.47688 0.98964 0.0
C2533 C 0.14892 0.48912 0.00584 0.0
C2534 C 0.14933 0.51371 0.01823 0.0
C2535 C 0.12934 0.52533 0.01551 0.0
H2536 H 0.84827 0.97186 0.22874 0.0
H2537 H 0.79428 0.98725 0.27576 0.0
H2538 H 0.83344 0.9255 0.22746 0.0
H2539 H 0.77927 0.94147 0.27402 0.0
H2540 H 0.78626 0.84209 0.22058 0.0
H2541 H 0.79942 0.88747 0.21532 0.0
H2542 H 0.7963 0.90897 0.29321 0.0
H2543 H 0.78305 0.86444 0.2984 0.0
C2544 C 0.83292 0.96539 0.23829 0.0
C2545 C 0.8227 0.98323 0.25268 0.0
C2546 C 0.82443 0.93885 0.23756 0.0
C2547 C 0.80552 0.92975 0.25111 0.0
C2548 C 0.7943 0.94775 0.26395 0.0
C2549 C 0.80284 0.97406 0.26484 0.0
C2550 C 0.78845 0.85656 0.23654 0.0
C2551 C 0.78331 0.84953 0.25986 0.0
C2552 C 0.79604 0.88253 0.23353 0.0
C2553 C 0.79849 0.90193 0.25375 0.0
C2554 C 0.79399 0.89468 0.27708 0.0
C2555 C 0.78649 0.86897 0.28008 0.0
H2556 H 0.63641 0.05885 0.77105 0.0
H2557 H 0.69557 0.05769 0.82587 0.0
H2558 H 0.65701 0.10007 0.76107 0.0
H2559 H 0.71634 0.09884 0.81536 0.0
H2560 H 0.75019 0.16245 0.76525 0.0
H2561 H 0.73273 0.11873 0.77315 0.0
H2562 H 0.66861 0.14503 0.79206 0.0
H2563 H 0.68609 0.18843 0.78494 0.0
C2564 C 0.65394 0.06718 0.78073 0.0
C2565 C 0.66427 0.05508 0.79939 0.0
C2566 C 0.66568 0.09077 0.77501 0.0
C2567 C 0.6882 0.1025 0.78746 0.0
C2568 C 0.69904 0.09002 0.80542 0.0
C2569 C 0.68707 0.06662 0.81152 0.0
C2570 C 0.73242 0.15878 0.77116 0.0
C2571 C 0.71946 0.17872 0.7745 0.0
C2572 C 0.7225 0.1339 0.77571 0.0
C2573 C 0.69931 0.12863 0.78303 0.0
C2574 C 0.68643 0.1486 0.78623 0.0
C2575 C 0.69649 0.17342 0.78225 0.0
loop_
_geom_bond_atom_site_label_1
_geom_bond_atom_site_label_2
_geom_bond_distance
_geom_bond_site_symmetry_2
_ccdc_geom_bond_type
Mg0 O1 2.028 . S
Mg0 O7 1.986 . S
Mg0 O9 2.114 1_455 S
Mg0 O10 2.251 1_455 S
Mg0 O13 2.010 . S
O1 Mg0 2.028 . S
O1 C4 1.250 . S
O2 Mg3 2.028 . S
O2 C4 1.248 1_655 S
Mg3 O2 2.028 . S
Mg3 O8 2.032 . S
Mg3 O10 2.079 . S
C4 O1 1.250 . S
C4 O2 1.248 1_455 S
C5 O6 1.264 . S
C5 O13 1.249 . S
O6 C5 1.264 . S
O7 Mg0 1.986 . S
O7 C11 1.246 . S
O8 Mg3 2.032 . S
O8 C11 1.259 1_655 S
O9 Mg0 2.114 1_655 S
O9 C12 1.252 . S
O10 Mg0 2.251 1_655 S
O10 Mg3 2.079 . S
O10 C12 1.273 . S
C11 O7 1.246 . S
C11 O8 1.259 1_455 S
C12 O9 1.252 . S
C12 O10 1.273 . S
O13 Mg0 2.010 . S
O13 C5 1.249 . S
Mg14 O15 2.028 . S
Mg14 O21 1.986 . S
Mg14 O23 2.114 1_455 S
Mg14 O24 2.251 1_455 S
Mg14 O27 2.010 . S
O15 Mg14 2.028 . S
O15 C18 1.250 1_455 S
O16 Mg17 2.028 . S
O16 C18 1.248 . S
Mg17 O16 2.028 . S
Mg17 O22 2.032 . S
Mg17 O24 2.079 . S
C18 O15 1.250 1_655 S
C18 O16 1.248 . S
C19 O20 1.264 . S
C19 O27 1.249 . S
O20 C19 1.264 . S
O21 Mg14 1.986 . S
O21 C25 1.246 1_455 S
O22 Mg17 2.032 . S
O22 C25 1.259 . S
O23 Mg14 2.114 1_655 S
O23 C26 1.252 . S
O24 Mg14 2.251 1_655 S
O24 Mg17 2.079 . S
O24 C26 1.273 . S
C25 O21 1.246 1_655 S
C25 O22 1.259 . S
C26 O23 1.252 . S
C26 O24 1.273 . S
O27 Mg14 2.010 . S
O27 C19 1.249 . S
Mg28 O29 2.028 . S
Mg28 O35 1.986 . S
Mg28 O37 2.114 . S
Mg28 O38 2.251 . S
Mg28 O41 2.010 . S
O29 Mg28 2.028 . S
O29 C32 1.250 . S
O30 Mg31 2.028 . S
O30 C32 1.248 . S
Mg31 O30 2.028 . S
Mg31 O36 2.032 . S
Mg31 O38 2.079 . S
C32 O29 1.250 . S
C32 O30 1.248 . S
C33 O34 1.264 . S
C33 O41 1.249 . S
O34 C33 1.264 . S
O35 Mg28 1.986 . S
O35 C39 1.246 . S
O36 Mg31 2.032 . S
O36 C39 1.259 . S
O37 Mg28 2.114 . S
O37 C40 1.252 . S
O38 Mg28 2.251 . S
O38 Mg31 2.079 . S
O38 C40 1.273 . S
C39 O35 1.246 . S
C39 O36 1.259 . S
C40 O37 1.252 . S
C40 O38 1.273 . S
O41 Mg28 2.010 . S
O41 C33 1.249 . S
Mg42 O43 2.028 . S
Mg42 O49 1.986 . S
Mg42 O51 2.114 . S
Mg42 O52 2.251 . S
Mg42 O55 2.010 . S
O43 Mg42 2.028 . S
O43 C46 1.250 . S
O44 Mg45 2.028 . S
O44 C46 1.248 . S
Mg45 O44 2.028 . S
Mg45 O50 2.032 . S
Mg45 O52 2.079 . S
C46 O43 1.250 . S
C46 O44 1.248 . S
C47 O48 1.264 . S
C47 O55 1.249 . S
O48 C47 1.264 . S
O49 Mg42 1.986 . S
O49 C53 1.246 . S
O50 Mg45 2.032 . S
O50 C53 1.259 . S
O51 Mg42 2.114 . S
O51 C54 1.252 . S
O52 Mg42 2.251 . S
O52 Mg45 2.079 . S
O52 C54 1.273 . S
C53 O49 1.246 . S
C53 O50 1.259 . S
C54 O51 1.252 . S
C54 O52 1.273 . S
O55 Mg42 2.010 . S
O55 C47 1.249 . S
Mg56 O57 2.028 . S
Mg56 O63 1.986 . S
Mg56 O65 2.114 1_455 S
Mg56 O66 2.251 1_455 S
Mg56 O69 2.010 . S
O57 Mg56 2.028 . S
O57 C60 1.234 1_455 S
O58 Mg59 2.028 . S
O58 C60 1.281 . S
Mg59 O58 2.028 . S
Mg59 O64 2.032 . S
Mg59 O66 2.079 . S
C60 O57 1.234 1_655 S
C60 O58 1.281 . S
C61 O62 1.264 . S
C61 O69 1.249 . S
O62 C61 1.264 . S
O63 Mg56 1.986 . S
O63 C67 1.246 . S
O64 Mg59 2.032 . S
O64 C67 1.259 1_655 S
O65 Mg56 2.114 1_655 S
O65 C68 1.252 . S
O66 Mg56 2.251 1_655 S
O66 Mg59 2.079 . S
O66 C68 1.273 . S
C67 O63 1.246 . S
C67 O64 1.259 1_455 S
C68 O65 1.252 . S
C68 O66 1.273 . S
O69 Mg56 2.010 . S
O69 C61 1.249 . S
Mg70 O71 2.028 . S
Mg70 O77 1.986 . S
Mg70 O79 2.114 . S
Mg70 O80 2.251 . S
Mg70 O83 2.010 . S
O71 Mg70 2.028 . S
O71 C74 1.250 . S
O72 Mg73 2.028 . S
O72 C74 1.248 . S
Mg73 O72 2.028 . S
Mg73 O78 2.032 . S
Mg73 O80 2.079 . S
C74 O71 1.250 . S
C74 O72 1.248 . S
C75 O76 1.264 . S
C75 O83 1.249 . S
O76 C75 1.264 . S
O77 Mg70 1.986 . S
O77 C81 1.246 . S
O78 Mg73 2.032 . S
O78 C81 1.259 . S
O79 Mg70 2.114 . S
O79 C82 1.252 . S
O80 Mg70 2.251 . S
O80 Mg73 2.079 . S
O80 C82 1.273 . S
C81 O77 1.246 . S
C81 O78 1.259 . S
C82 O79 1.252 . S
C82 O80 1.273 . S
O83 Mg70 2.010 . S
O83 C75 1.249 . S
Mg84 O85 2.028 . S
Mg84 O91 1.986 . S
Mg84 O93 2.114 . S
Mg84 O94 2.251 . S
Mg84 O97 2.010 . S
O85 Mg84 2.028 . S
O85 C88 1.250 . S
O86 Mg87 2.028 . S
O86 C88 1.248 . S
Mg87 O86 2.028 . S
Mg87 O92 2.032 . S
Mg87 O94 2.079 . S
C88 O85 1.250 . S
C88 O86 1.248 . S
C89 O90 1.264 . S
C89 O97 1.249 . S
O90 C89 1.264 . S
O91 Mg84 1.986 . S
O91 C95 1.246 . S
O92 Mg87 2.032 . S
O92 C95 1.259 . S
O93 Mg84 2.114 . S
O93 C96 1.252 . S
O94 Mg84 2.251 . S
O94 Mg87 2.079 . S
O94 C96 1.273 . S
C95 O91 1.246 . S
C95 O92 1.259 . S
C96 O93 1.252 . S
C96 O94 1.273 . S
O97 Mg84 2.010 . S
O97 C89 1.249 . S
Mg98 O99 2.028 . S
Mg98 O105 1.986 . S
Mg98 O107 2.114 1_455 S
Mg98 O108 2.251 1_455 S
Mg98 O111 2.010 . S
O99 Mg98 2.028 . S
O99 C102 1.250 . S
O100 Mg101 2.028 . S
O100 C102 1.248 1_655 S
Mg101 O100 2.028 . S
Mg101 O106 2.032 . S
Mg101 O108 2.079 . S
C102 O99 1.250 . S
C102 O100 1.248 1_455 S
C103 O104 1.264 . S
C103 O111 1.249 . S
O104 C103 1.264 . S
O105 Mg98 1.986 . S
O105 C109 1.246 . S
O106 Mg101 2.032 . S
O106 C109 1.259 1_655 S
O107 Mg98 2.114 1_655 S
O107 C110 1.252 . S
O108 Mg98 2.251 1_655 S
O108 Mg101 2.079 . S
O108 C110 1.273 . S
C109 O105 1.246 . S
C109 O106 1.259 1_455 S
C110 O107 1.252 . S
C110 O108 1.273 . S
O111 Mg98 2.010 . S
O111 C103 1.249 . S
Mg112 O113 2.028 . S
Mg112 O119 1.986 . S
Mg112 O121 2.114 . S
Mg112 O122 2.251 . S
Mg112 O125 2.010 . S
O113 Mg112 2.028 . S
O113 C116 1.250 . S
O114 Mg115 2.028 . S
O114 C116 1.248 . S
Mg115 O114 2.028 . S
Mg115 O120 2.032 . S
Mg115 O122 2.079 . S
C116 O113 1.250 . S
C116 O114 1.248 . S
C117 O118 1.264 . S
C117 O125 1.249 . S
O118 C117 1.264 . S
O119 Mg112 1.986 . S
O119 C123 1.246 . S
O120 Mg115 2.032 . S
O120 C123 1.259 . S
O121 Mg112 2.114 . S
O121 C124 1.252 . S
O122 Mg112 2.251 . S
O122 Mg115 2.079 . S
O122 C124 1.273 . S
C123 O119 1.246 . S
C123 O120 1.259 . S
C124 O121 1.252 . S
C124 O122 1.273 . S
O125 Mg112 2.010 . S
O125 C117 1.249 . S
Mg126 O127 2.028 . S
Mg126 O133 1.986 . S
Mg126 O135 2.114 . S
Mg126 O136 2.251 . S
Mg126 O139 2.010 . S
O127 Mg126 2.028 . S
O127 C130 1.250 . S
O128 Mg129 2.028 . S
O128 C130 1.248 . S
Mg129 O128 2.028 . S
Mg129 O134 2.032 . S
Mg129 O136 2.079 . S
C130 O127 1.250 . S
C130 O128 1.248 . S
C131 O132 1.264 . S
C131 O139 1.249 . S
O132 C131 1.264 . S
O133 Mg126 1.986 . S
O133 C137 1.246 . S
O134 Mg129 2.032 . S
O134 C137 1.259 . S
O135 Mg126 2.114 . S
O135 C138 1.252 . S
O136 Mg126 2.251 . S
O136 Mg129 2.079 . S
O136 C138 1.273 . S
C137 O133 1.246 . S
C137 O134 1.259 . S
C138 O135 1.252 . S
C138 O136 1.273 . S
O139 Mg126 2.010 . S
O139 C131 1.249 . S
Mg140 O141 2.028 1_565 S
Mg140 O147 1.986 . S
Mg140 O149 2.114 1_565 S
Mg140 O150 2.251 . S
Mg140 O153 2.010 . S
O141 Mg140 2.028 1_545 S
O141 C144 1.250 . S
O142 Mg143 2.028 . S
O142 C144 1.248 . S
Mg143 O142 2.028 . S
Mg143 O148 2.032 1_545 S
Mg143 O150 2.079 1_545 S
C144 O141 1.250 . S
C144 O142 1.248 . S
C145 O146 1.264 . S
C145 O153 1.249 . S
O146 C145 1.264 . S
O147 Mg140 1.986 . S
O147 C151 1.246 . S
O148 Mg143 2.032 1_565 S
O148 C151 1.259 . S
O149 Mg140 2.114 1_545 S
O149 C152 1.252 . S
O150 Mg140 2.251 . S
O150 Mg143 2.079 1_565 S
O150 C152 1.273 1_565 S
C151 O147 1.246 . S
C151 O148 1.259 . S
C152 O149 1.252 . S
C152 O150 1.273 1_545 S
O153 Mg140 2.010 . S
O153 C145 1.249 . S
Mg154 O155 2.028 . S
Mg154 O161 1.986 . S
Mg154 O163 2.114 . S
Mg154 O164 2.251 . S
Mg154 O167 2.010 . S
O155 Mg154 2.028 . S
O155 C158 1.250 1_554 S
O156 Mg157 2.028 . S
O156 C158 1.248 1_554 S
Mg157 O156 2.028 . S
Mg157 O162 2.032 . S
Mg157 O164 2.079 . S
C158 O155 1.250 1_556 S
C158 O156 1.248 1_556 S
C159 O160 1.264 . S
C159 O167 1.249 . S
O160 C159 1.264 . S
O161 Mg154 1.986 . S
O161 C165 1.246 . S
O162 Mg157 2.032 . S
O162 C165 1.259 . S
O163 Mg154 2.114 . S
O163 C166 1.252 . S
O164 Mg154 2.251 . S
O164 Mg157 2.079 . S
O164 C166 1.273 . S
C165 O161 1.246 . S
C165 O162 1.259 . S
C166 O163 1.252 . S
C166 O164 1.273 . S
O167 Mg154 2.010 . S
O167 C159 1.249 . S
Mg168 O169 2.028 . S
Mg168 O175 1.986 . S
Mg168 O177 2.114 . S
Mg168 O178 2.251 . S
Mg168 O181 2.010 . S
O169 Mg168 2.028 . S
O169 C172 1.250 1_554 S
O170 Mg171 2.028 1_556 S
O170 C172 1.248 . S
Mg171 O170 2.028 1_554 S
Mg171 O176 2.032 . S
Mg171 O178 2.079 . S
C172 O169 1.250 1_556 S
C172 O170 1.248 . S
C173 O174 1.264 . S
C173 O181 1.249 . S
O174 C173 1.264 . S
O175 Mg168 1.986 . S
O175 C179 1.246 . S
O176 Mg171 2.032 . S
O176 C179 1.259 . S
O177 Mg168 2.114 . S
O177 C180 1.252 . S
O178 Mg168 2.251 . S
O178 Mg171 2.079 . S
O178 C180 1.273 . S
C179 O175 1.246 . S
C179 O176 1.259 . S
C180 O177 1.252 . S
C180 O178 1.273 . S
O181 Mg168 2.010 . S
O181 C173 1.249 . S
Mg182 O183 2.028 1_556 S
Mg182 O189 1.986 . S
Mg182 O191 2.114 1_556 S
Mg182 O192 2.251 . S
Mg182 O195 2.010 . S
O183 Mg182 2.028 1_554 S
O183 C186 1.250 . S
O184 Mg185 2.028 . S
O184 C186 1.248 . S
Mg185 O184 2.028 . S
Mg185 O190 2.032 1_554 S
Mg185 O192 2.079 1_554 S
C186 O183 1.250 . S
C186 O184 1.248 . S
C187 O188 1.264 . S
C187 O195 1.249 . S
O188 C187 1.264 . S
O189 Mg182 1.986 . S
O189 C193 1.246 . S
O190 Mg185 2.032 1_556 S
O190 C193 1.259 . S
O191 Mg182 2.114 1_554 S
O191 C194 1.252 . S
O192 Mg182 2.251 . S
O192 Mg185 2.079 1_556 S
O192 C194 1.273 1_556 S
C193 O189 1.246 . S
C193 O190 1.259 . S
C194 O191 1.252 . S
C194 O192 1.273 1_554 S
O195 Mg182 2.010 . S
O195 C187 1.249 . S
Mg196 O197 2.028 . S
Mg196 O203 1.986 . S
Mg196 O205 2.114 . S
Mg196 O206 2.251 . S
Mg196 O209 2.010 . S
O197 Mg196 2.028 . S
O197 C200 1.250 . S
O198 Mg199 2.028 . S
O198 C200 1.248 . S
Mg199 O198 2.028 . S
Mg199 O204 2.032 . S
Mg199 O206 2.079 . S
C200 O197 1.250 . S
C200 O198 1.248 . S
C201 O202 1.264 . S
C201 O209 1.249 . S
O202 C201 1.264 . S
O203 Mg196 1.986 . S
O203 C207 1.246 . S
O204 Mg199 2.032 . S
O204 C207 1.259 . S
O205 Mg196 2.114 . S
O205 C208 1.252 . S
O206 Mg196 2.251 . S
O206 Mg199 2.079 . S
O206 C208 1.273 . S
C207 O203 1.246 . S
C207 O204 1.259 . S
C208 O205 1.252 . S
C208 O206 1.273 . S
O209 Mg196 2.010 . S
O209 C201 1.249 . S
Mg210 O211 2.028 . S
Mg210 O217 1.986 . S
Mg210 O219 2.114 . S
Mg210 O220 2.251 . S
Mg210 O223 2.010 . S
O211 Mg210 2.028 . S
O211 C214 1.250 . S
O212 Mg213 2.028 . S
O212 C214 1.248 . S
Mg213 O212 2.028 . S
Mg213 O218 2.032 . S
Mg213 O220 2.079 . S
C214 O211 1.250 . S
C214 O212 1.248 . S
C215 O216 1.264 . S
C215 O223 1.249 . S
O216 C215 1.264 . S
O217 Mg210 1.986 . S
O217 C221 1.246 . S
O218 Mg213 2.032 . S
O218 C221 1.259 . S
O219 Mg210 2.114 . S
O219 C222 1.252 . S
O220 Mg210 2.251 . S
O220 Mg213 2.079 . S
O220 C222 1.273 . S
C221 O217 1.246 . S
C221 O218 1.259 . S
C222 O219 1.252 . S
C222 O220 1.273 . S
O223 Mg210 2.010 . S
O223 C215 1.249 . S
Mg224 O225 2.028 . S
Mg224 O231 1.986 . S
Mg224 O233 2.114 . S
Mg224 O234 2.251 . S
Mg224 O237 2.010 . S
O225 Mg224 2.028 . S
O225 C228 1.250 . S
O226 Mg227 2.028 . S
O226 C228 1.248 . S
Mg227 O226 2.028 . S
Mg227 O232 2.032 . S
Mg227 O234 2.079 . S
C228 O225 1.250 . S
C228 O226 1.248 . S
C229 O230 1.264 . S
C229 O237 1.249 . S
O230 C229 1.264 . S
O231 Mg224 1.986 . S
O231 C235 1.246 . S
O232 Mg227 2.032 . S
O232 C235 1.259 . S
O233 Mg224 2.114 . S
O233 C236 1.252 . S
O234 Mg224 2.251 . S
O234 Mg227 2.079 . S
O234 C236 1.273 . S
C235 O231 1.246 . S
C235 O232 1.259 . S
C236 O233 1.252 . S
C236 O234 1.273 . S
O237 Mg224 2.010 . S
O237 C229 1.249 . S
Mg238 O239 2.028 . S
Mg238 O245 1.986 . S
Mg238 O247 2.114 . S
Mg238 O248 2.251 . S
Mg238 O251 2.010 . S
O239 Mg238 2.028 . S
O239 C242 1.250 . S
O240 Mg241 2.028 . S
O240 C242 1.248 . S
Mg241 O240 2.028 . S
Mg241 O246 2.032 . S
Mg241 O248 2.079 . S
C242 O239 1.250 . S
C242 O240 1.248 . S
C243 O244 1.264 . S
C243 O251 1.249 . S
O244 C243 1.264 . S
O245 Mg238 1.986 . S
O245 C249 1.246 . S
O246 Mg241 2.032 . S
O246 C249 1.259 . S
O247 Mg238 2.114 . S
O247 C250 1.252 . S
O248 Mg238 2.251 . S
O248 Mg241 2.079 . S
O248 C250 1.273 . S
C249 O245 1.246 . S
C249 O246 1.259 . S
C250 O247 1.252 . S
C250 O248 1.273 . S
O251 Mg238 2.010 . S
O251 C243 1.249 . S
Mg252 O253 2.028 . S
Mg252 O259 1.986 . S
Mg252 O261 2.114 . S
Mg252 O262 2.251 . S
Mg252 O265 2.010 . S
O253 Mg252 2.028 . S
O253 C256 1.250 . S
O254 Mg255 2.028 . S
O254 C256 1.248 . S
Mg255 O254 2.028 . S
Mg255 O260 2.032 . S
Mg255 O262 2.079 . S
C256 O253 1.250 . S
C256 O254 1.248 . S
C257 O258 1.264 . S
C257 O265 1.249 . S
O258 C257 1.264 . S
O259 Mg252 1.986 . S
O259 C263 1.246 . S
O260 Mg255 2.032 . S
O260 C263 1.259 . S
O261 Mg252 2.114 . S
O261 C264 1.252 . S
O262 Mg252 2.251 . S
O262 Mg255 2.079 . S
O262 C264 1.273 . S
C263 O259 1.246 . S
C263 O260 1.259 . S
C264 O261 1.252 . S
C264 O262 1.273 . S
O265 Mg252 2.010 . S
O265 C257 1.249 . S
Mg266 O267 2.028 . S
Mg266 O273 1.986 1_545 S
Mg266 O275 2.114 . S
Mg266 O276 2.251 . S
Mg266 O279 2.010 1_545 S
O267 Mg266 2.028 . S
O267 C270 1.250 . S
O268 Mg269 2.028 . S
O268 C270 1.248 . S
Mg269 O268 2.028 . S
Mg269 O274 2.032 1_545 S
Mg269 O276 2.079 . S
C270 O267 1.250 . S
C270 O268 1.248 . S
C271 O272 1.253 1_545 S
C271 O279 1.243 1_545 S
O272 C271 1.253 1_565 S
O273 Mg266 1.986 1_565 S
O273 C277 1.246 . S
O274 Mg269 2.032 1_565 S
O274 C277 1.259 . S
O275 Mg266 2.114 . S
O275 C278 1.252 . S
O276 Mg266 2.251 . S
O276 Mg269 2.079 . S
O276 C278 1.273 . S
C277 O273 1.246 . S
C277 O274 1.259 . S
C278 O275 1.252 . S
C278 O276 1.273 . S
O279 Mg266 2.010 1_565 S
O279 C271 1.243 1_565 S
Mg280 O281 2.028 1_556 S
Mg280 O287 1.986 . S
Mg280 O289 2.114 1_556 S
Mg280 O290 2.251 . S
Mg280 O293 2.010 . S
O281 Mg280 2.028 1_554 S
O281 C284 1.250 . S
O282 Mg283 2.028 . S
O282 C284 1.248 . S
Mg283 O282 2.028 . S
Mg283 O288 2.032 1_554 S
Mg283 O290 2.079 1_554 S
C284 O281 1.250 . S
C284 O282 1.248 . S
C285 O286 1.264 . S
C285 O293 1.249 . S
O286 C285 1.264 . S
O287 Mg280 1.986 . S
O287 C291 1.246 . S
O288 Mg283 2.032 1_556 S
O288 C291 1.259 . S
O289 Mg280 2.114 1_554 S
O289 C292 1.252 . S
O290 Mg280 2.251 . S
O290 Mg283 2.079 1_556 S
O290 C292 1.273 1_556 S
C291 O287 1.246 . S
C291 O288 1.259 . S
C292 O289 1.252 . S
C292 O290 1.273 1_554 S
O293 Mg280 2.010 . S
O293 C285 1.249 . S
Mg294 O295 2.028 . S
Mg294 O301 1.986 . S
Mg294 O303 2.114 . S
Mg294 O304 2.251 . S
Mg294 O307 2.010 . S
O295 Mg294 2.028 . S
O295 C298 1.250 . S
O296 Mg297 2.028 . S
O296 C298 1.248 . S
Mg297 O296 2.028 . S
Mg297 O302 2.032 . S
Mg297 O304 2.079 . S
C298 O295 1.250 . S
C298 O296 1.248 . S
C299 O300 1.264 . S
C299 O307 1.249 . S
O300 C299 1.264 . S
O301 Mg294 1.986 . S
O301 C305 1.246 . S
O302 Mg297 2.032 . S
O302 C305 1.259 . S
O303 Mg294 2.114 . S
O303 C306 1.252 . S
O304 Mg294 2.251 . S
O304 Mg297 2.079 . S
O304 C306 1.273 . S
C305 O301 1.246 . S
C305 O302 1.259 . S
C306 O303 1.252 . S
C306 O304 1.273 . S
O307 Mg294 2.010 . S
O307 C299 1.249 . S
Mg308 O309 2.028 . S
Mg308 O315 1.986 . S
Mg308 O317 2.114 . S
Mg308 O318 2.251 . S
Mg308 O321 2.010 . S
O309 Mg308 2.028 . S
O309 C312 1.250 . S
O310 Mg311 2.028 . S
O310 C312 1.248 . S
Mg311 O310 2.028 . S
Mg311 O316 2.032 . S
Mg311 O318 2.079 . S
C312 O309 1.250 . S
C312 O310 1.248 . S
C313 O314 1.264 . S
C313 O321 1.249 . S
O314 C313 1.264 . S
O315 Mg308 1.986 . S
O315 C319 1.246 . S
O316 Mg311 2.032 . S
O316 C319 1.259 . S
O317 Mg308 2.114 . S
O317 C320 1.252 . S
O318 Mg308 2.251 . S
O318 Mg311 2.079 . S
O318 C320 1.273 . S
C319 O315 1.246 . S
C319 O316 1.259 . S
C320 O317 1.252 . S
C320 O318 1.273 . S
O321 Mg308 2.010 . S
O321 C313 1.249 . S
Mg322 O323 2.028 . S
Mg322 O329 1.986 . S
Mg322 O331 2.114 . S
Mg322 O332 2.251 . S
Mg322 O335 2.010 . S
O323 Mg322 2.028 . S
O323 C326 1.250 . S
O324 Mg325 2.028 . S
O324 C326 1.248 . S
Mg325 O324 2.028 . S
Mg325 O330 2.032 . S
Mg325 O332 2.079 . S
C326 O323 1.250 . S
C326 O324 1.248 . S
C327 O328 1.264 . S
C327 O335 1.249 . S
O328 C327 1.264 . S
O329 Mg322 1.986 . S
O329 C333 1.246 . S
O330 Mg325 2.032 . S
O330 C333 1.259 . S
O331 Mg322 2.114 . S
O331 C334 1.252 . S
O332 Mg322 2.251 . S
O332 Mg325 2.079 . S
O332 C334 1.273 . S
C333 O329 1.246 . S
C333 O330 1.259 . S
C334 O331 1.252 . S
C334 O332 1.273 . S
O335 Mg322 2.010 . S
O335 C327 1.249 . S
Tb336 O339 2.453 . S
Tb336 O340 2.596 . S
Tb336 O341 2.374 1_554 S
Tb336 O349 2.343 1_455 S
Tb336 O351 2.353 . S
Tb336 O353 2.427 . S
Tb336 O354 2.513 1_554 S
C337 O341 1.251 . S
C337 O343 1.263 1_445 S
Tb338 O340 2.343 1_665 S
Tb338 O343 2.353 1_554 S
Tb338 O346 2.427 . S
Tb338 O347 2.513 . S
Tb338 O348 2.453 1_564 S
Tb338 O349 2.596 1_565 S
Tb338 O350 2.374 1_565 S
O339 Tb336 2.453 . S
O339 C355 1.245 . S
O340 Tb336 2.596 . S
O340 Tb338 2.343 1_445 S
O340 C355 1.259 . S
O341 Tb336 2.374 1_556 S
O341 C337 1.251 . S
C342 O346 1.275 1_455 S
C342 O347 1.246 1_455 S
O343 C337 1.263 1_665 S
O343 Tb338 2.353 1_556 S
C344 O348 1.245 . S
C344 O349 1.259 1_556 S
C345 O350 1.250 . S
C345 O351 1.263 1_655 S
O346 Tb338 2.427 . S
O346 C342 1.275 1_655 S
O347 Tb338 2.513 . S
O347 C342 1.246 1_655 S
O348 Tb338 2.453 1_546 S
O348 C344 1.245 . S
O349 Tb336 2.343 1_655 S
O349 Tb338 2.596 1_545 S
O349 C344 1.259 1_554 S
O350 Tb338 2.374 1_545 S
O350 C345 1.250 . S
O351 Tb336 2.353 . S
O351 C345 1.263 1_455 S
C352 O353 1.275 1_556 S
C352 O354 1.246 . S
O353 Tb336 2.427 . S
O353 C352 1.275 1_554 S
O354 Tb336 2.513 1_556 S
O354 C352 1.246 . S
C355 O339 1.245 . S
C355 O340 1.259 . S
Tb356 O359 2.453 . S
Tb356 O360 2.596 . S
Tb356 O361 2.374 . S
Tb356 O369 2.343 . S
Tb356 O371 2.353 . S
Tb356 O373 2.427 . S
Tb356 O374 2.513 . S
C357 O361 1.251 . S
C357 O363 1.263 . S
Tb358 O360 2.343 . S
Tb358 O363 2.353 . S
Tb358 O366 2.427 . S
Tb358 O367 2.513 . S
Tb358 O368 2.453 . S
Tb358 O369 2.596 . S
Tb358 O370 2.374 . S
O359 Tb356 2.453 . S
O359 C375 1.245 . S
O360 Tb356 2.596 . S
O360 Tb358 2.343 . S
O360 C375 1.259 . S
O361 Tb356 2.374 . S
O361 C357 1.251 . S
C362 O366 1.275 . S
C362 O367 1.246 . S
O363 C357 1.263 . S
O363 Tb358 2.353 . S
C364 O368 1.245 . S
C364 O369 1.259 . S
C365 O370 1.250 . S
C365 O371 1.263 . S
O366 Tb358 2.427 . S
O366 C362 1.275 . S
O367 Tb358 2.513 . S
O367 C362 1.246 . S
O368 Tb358 2.453 . S
O368 C364 1.245 . S
O369 Tb356 2.343 . S
O369 Tb358 2.596 . S
O369 C364 1.259 . S
O370 Tb358 2.374 . S
O370 C365 1.250 . S
O371 Tb356 2.353 . S
O371 C365 1.263 . S
C372 O373 1.275 . S
C372 O374 1.246 . S
O373 Tb356 2.427 . S
O373 C372 1.275 . S
O374 Tb356 2.513 . S
O374 C372 1.246 . S
C375 O359 1.245 . S
C375 O360 1.259 . S
Tb376 O379 2.453 . S
Tb376 O380 2.596 . S
Tb376 O381 2.374 . S
Tb376 O389 2.343 . S
Tb376 O391 2.353 . S
Tb376 O393 2.427 . S
Tb376 O394 2.513 . S
C377 O381 1.251 . S
C377 O383 1.263 . S
Tb378 O380 2.343 . S
Tb378 O383 2.353 . S
Tb378 O386 2.427 . S
Tb378 O387 2.513 . S
Tb378 O388 2.453 1_545 S
Tb378 O389 2.596 . S
Tb378 O390 2.374 . S
O379 Tb376 2.453 . S
O379 C395 1.245 . S
O380 Tb376 2.596 . S
O380 Tb378 2.343 . S
O380 C395 1.259 . S
O381 Tb376 2.374 . S
O381 C377 1.251 . S
C382 O386 1.275 . S
C382 O387 1.246 . S
O383 C377 1.263 . S
O383 Tb378 2.353 . S
C384 O388 1.245 . S
C384 O389 1.259 1_565 S
C385 O390 1.250 . S
C385 O391 1.263 . S
O386 Tb378 2.427 . S
O386 C382 1.275 . S
O387 Tb378 2.513 . S
O387 C382 1.246 . S
O388 Tb378 2.453 1_565 S
O388 C384 1.245 . S
O389 Tb376 2.343 . S
O389 Tb378 2.596 . S
O389 C384 1.259 1_545 S
O390 Tb378 2.374 . S
O390 C385 1.250 . S
O391 Tb376 2.353 . S
O391 C385 1.263 . S
C392 O393 1.275 . S
C392 O394 1.246 . S
O393 Tb376 2.427 . S
O393 C392 1.275 . S
O394 Tb376 2.513 . S
O394 C392 1.246 . S
C395 O379 1.245 . S
C395 O380 1.259 . S
Tb396 O399 2.453 . S
Tb396 O400 2.596 . S
Tb396 O401 2.374 . S
Tb396 O409 2.343 . S
Tb396 O411 2.353 . S
Tb396 O413 2.427 . S
Tb396 O414 2.513 . S
C397 O401 1.251 . S
C397 O403 1.263 . S
Tb398 O400 2.343 . S
Tb398 O403 2.353 . S
Tb398 O406 2.427 . S
Tb398 O407 2.513 . S
Tb398 O408 2.453 . S
Tb398 O409 2.596 . S
Tb398 O410 2.374 . S
O399 Tb396 2.453 . S
O399 C415 1.245 . S
O400 Tb396 2.596 . S
O400 Tb398 2.343 . S
O400 C415 1.259 . S
O401 Tb396 2.374 . S
O401 C397 1.251 . S
C402 O406 1.275 . S
C402 O407 1.246 . S
O403 C397 1.263 . S
O403 Tb398 2.353 . S
C404 O408 1.245 . S
C404 O409 1.259 . S
C405 O410 1.250 . S
C405 O411 1.263 . S
O406 Tb398 2.427 . S
O406 C402 1.275 . S
O407 Tb398 2.513 . S
O407 C402 1.246 . S
O408 Tb398 2.453 . S
O408 C404 1.245 . S
O409 Tb396 2.343 . S
O409 Tb398 2.596 . S
O409 C404 1.259 . S
O410 Tb398 2.374 . S
O410 C405 1.250 . S
O411 Tb396 2.353 . S
O411 C405 1.263 . S
C412 O413 1.275 . S
C412 O414 1.246 . S
O413 Tb396 2.427 . S
O413 C412 1.275 . S
O414 Tb396 2.513 . S
O414 C412 1.246 . S
C415 O399 1.245 . S
C415 O400 1.259 . S
Tb416 O419 2.453 1_645 S
Tb416 O420 2.596 1_655 S
Tb416 O421 2.374 . S
Tb416 O429 2.334 . S
Tb416 O431 2.353 1_655 S
Tb416 O433 2.427 1_655 S
Tb416 O434 2.513 . S
C417 O421 1.251 . S
C417 O423 1.263 . S
Tb418 O420 2.343 . S
Tb418 O423 2.353 1_455 S
Tb418 O426 2.426 1_455 S
Tb418 O427 2.513 . S
Tb418 O428 2.453 1_455 S
Tb418 O429 2.592 1_455 S
Tb418 O430 2.374 . S
O419 Tb416 2.453 1_465 S
O419 C435 1.245 . S
O420 Tb416 2.596 1_455 S
O420 Tb418 2.343 . S
O420 C435 1.259 1_545 S
O421 Tb416 2.374 . S
O421 C417 1.251 . S
C422 O426 1.273 1_455 S
C422 O427 1.246 . S
O423 C417 1.263 . S
O423 Tb418 2.353 1_655 S
C424 O428 1.245 . S
C424 O429 1.270 . S
C425 O430 1.250 . S
C425 O431 1.263 . S
O426 Tb418 2.426 1_655 S
O426 C422 1.273 1_655 S
O427 Tb418 2.513 . S
O427 C422 1.246 . S
O428 Tb418 2.453 1_655 S
O428 C424 1.245 . S
O429 Tb416 2.334 . S
O429 Tb418 2.592 1_655 S
O429 C424 1.270 . S
O430 Tb418 2.374 . S
O430 C425 1.250 . S
O431 Tb416 2.353 1_455 S
O431 C425 1.263 . S
C432 O433 1.275 1_655 S
C432 O434 1.246 . S
O433 Tb416 2.427 1_455 S
O433 C432 1.275 1_455 S
O434 Tb416 2.513 . S
O434 C432 1.246 . S
C435 O419 1.245 . S
C435 O420 1.259 1_565 S
Tb436 O439 2.453 . S
Tb436 O440 2.596 . S
Tb436 O441 2.374 . S
Tb436 O449 2.343 . S
Tb436 O451 2.353 . S
Tb436 O453 2.427 . S
Tb436 O454 2.513 . S
C437 O441 1.251 . S
C437 O443 1.263 . S
Tb438 O440 2.343 . S
Tb438 O443 2.353 . S
Tb438 O446 2.427 . S
Tb438 O447 2.513 . S
Tb438 O448 2.453 . S
Tb438 O449 2.596 . S
Tb438 O450 2.374 . S
O439 Tb436 2.453 . S
O439 C455 1.245 . S
O440 Tb436 2.596 . S
O440 Tb438 2.343 . S
O440 C455 1.259 . S
O441 Tb436 2.374 . S
O441 C437 1.251 . S
C442 O446 1.275 . S
C442 O447 1.246 . S
O443 C437 1.263 . S
O443 Tb438 2.353 . S
C444 O448 1.245 . S
C444 O449 1.259 . S
C445 O450 1.250 . S
C445 O451 1.263 . S
O446 Tb438 2.427 . S
O446 C442 1.275 . S
O447 Tb438 2.513 . S
O447 C442 1.246 . S
O448 Tb438 2.453 . S
O448 C444 1.245 . S
O449 Tb436 2.343 . S
O449 Tb438 2.596 . S
O449 C444 1.259 . S
O450 Tb438 2.374 . S
O450 C445 1.250 . S
O451 Tb436 2.353 . S
O451 C445 1.263 . S
C452 O453 1.275 . S
C452 O454 1.246 . S
O453 Tb436 2.427 . S
O453 C452 1.275 . S
O454 Tb436 2.513 . S
O454 C452 1.246 . S
C455 O439 1.245 . S
C455 O440 1.259 . S
Tb456 O459 2.453 . S
Tb456 O460 2.596 . S
Tb456 O461 2.374 1_545 S
Tb456 O469 2.343 1_556 S
Tb456 O471 2.353 1_556 S
Tb456 O473 2.427 1_556 S
Tb456 O474 2.513 1_546 S
C457 O461 1.251 . S
C457 O463 1.263 1_556 S
Tb458 O460 2.343 1_554 S
Tb458 O463 2.353 1_545 S
Tb458 O466 2.427 . S
Tb458 O467 2.513 . S
Tb458 O468 2.453 . S
Tb458 O469 2.596 . S
Tb458 O470 2.374 . S
O459 Tb456 2.453 . S
O459 C475 1.245 . S
O460 Tb456 2.596 . S
O460 Tb458 2.343 1_556 S
O460 C475 1.259 . S
O461 Tb456 2.374 1_565 S
O461 C457 1.251 . S
C462 O466 1.275 . S
C462 O467 1.246 . S
O463 C457 1.263 1_554 S
O463 Tb458 2.353 1_565 S
C464 O468 1.245 . S
C464 O469 1.259 . S
C465 O470 1.250 . S
C465 O471 1.263 . S
O466 Tb458 2.427 . S
O466 C462 1.275 . S
O467 Tb458 2.513 . S
O467 C462 1.246 . S
O468 Tb458 2.453 . S
O468 C464 1.245 . S
O469 Tb456 2.343 1_554 S
O469 Tb458 2.596 . S
O469 C464 1.259 . S
O470 Tb458 2.374 . S
O470 C465 1.250 . S
O471 Tb456 2.353 1_554 S
O471 C465 1.263 . S
C472 O473 1.275 . S
C472 O474 1.246 1_545 S
O473 Tb456 2.427 1_554 S
O473 C472 1.275 . S
O474 Tb456 2.513 1_564 S
O474 C472 1.246 1_565 S
C475 O459 1.245 . S
C475 O460 1.259 . S
Tb476 O479 2.453 . S
Tb476 O480 2.596 . S
Tb476 O481 2.374 . S
Tb476 O489 2.343 . S
Tb476 O491 2.353 . S
Tb476 O493 2.427 . S
Tb476 O494 2.513 . S
C477 O481 1.251 . S
C477 O483 1.263 . S
Tb478 O480 2.343 . S
Tb478 O483 2.353 . S
Tb478 O486 2.427 . S
Tb478 O487 2.513 . S
Tb478 O488 2.453 . S
Tb478 O489 2.596 . S
Tb478 O490 2.374 . S
O479 Tb476 2.453 . S
O479 C495 1.245 . S
O480 Tb476 2.596 . S
O480 Tb478 2.343 . S
O480 C495 1.259 . S
O481 Tb476 2.374 . S
O481 C477 1.251 . S
C482 O486 1.275 . S
C482 O487 1.246 . S
O483 C477 1.263 . S
O483 Tb478 2.353 . S
C484 O488 1.245 . S
C484 O489 1.259 . S
C485 O490 1.250 . S
C485 O491 1.263 . S
O486 Tb478 2.427 . S
O486 C482 1.275 . S
O487 Tb478 2.513 . S
O487 C482 1.246 . S
O488 Tb478 2.453 . S
O488 C484 1.245 . S
O489 Tb476 2.343 . S
O489 Tb478 2.596 . S
O489 C484 1.259 . S
O490 Tb478 2.374 . S
O490 C485 1.250 . S
O491 Tb476 2.353 . S
O491 C485 1.263 . S
C492 O493 1.275 . S
C492 O494 1.246 . S
O493 Tb476 2.427 . S
O493 C492 1.275 . S
O494 Tb476 2.513 . S
O494 C492 1.246 . S
C495 O479 1.245 . S
C495 O480 1.259 . S
Tb496 O499 2.453 1_556 S
Tb496 O500 2.596 1_556 S
Tb496 O501 2.376 . S
Tb496 O509 2.343 . S
Tb496 O511 2.353 . S
Tb496 O513 2.427 . S
Tb496 O514 2.513 . S
C497 O501 1.247 1_554 S
C497 O503 1.263 . S
Tb498 O500 2.343 . S
Tb498 O503 2.353 . S
Tb498 O506 2.427 . S
Tb498 O507 2.513 . S
Tb498 O508 2.453 . S
Tb498 O509 2.596 1_554 S
Tb498 O510 2.374 . S
O499 Tb496 2.453 1_554 S
O499 C515 1.245 . S
O500 Tb496 2.596 1_554 S
O500 Tb498 2.343 . S
O500 C515 1.259 . S
O501 Tb496 2.376 . S
O501 C497 1.247 1_556 S
C502 O506 1.275 . S
C502 O507 1.246 . S
O503 C497 1.263 . S
O503 Tb498 2.353 . S
C504 O508 1.245 . S
C504 O509 1.259 1_554 S
C505 O510 1.250 . S
C505 O511 1.263 1_554 S
O506 Tb498 2.427 . S
O506 C502 1.275 . S
O507 Tb498 2.513 . S
O507 C502 1.246 . S
O508 Tb498 2.453 . S
O508 C504 1.245 . S
O509 Tb496 2.343 . S
O509 Tb498 2.596 1_556 S
O509 C504 1.259 1_556 S
O510 Tb498 2.374 . S
O510 C505 1.250 . S
O511 Tb496 2.353 . S
O511 C505 1.263 1_556 S
C512 O513 1.275 . S
C512 O514 1.246 . S
O513 Tb496 2.427 . S
O513 C512 1.275 . S
O514 Tb496 2.513 . S
O514 C512 1.246 . S
C515 O499 1.245 . S
C515 O500 1.259 . S
Tb516 O519 2.453 . S
Tb516 O520 2.596 . S
Tb516 O521 2.374 . S
Tb516 O529 2.343 . S
Tb516 O531 2.353 . S
Tb516 O533 2.427 . S
Tb516 O534 2.513 . S
C517 O521 1.251 . S
C517 O523 1.263 . S
Tb518 O520 2.343 . S
Tb518 O523 2.353 . S
Tb518 O526 2.427 . S
Tb518 O527 2.513 . S
Tb518 O528 2.453 . S
Tb518 O529 2.596 . S
Tb518 O530 2.374 . S
O519 Tb516 2.453 . S
O519 C535 1.245 . S
O520 Tb516 2.596 . S
O520 Tb518 2.343 . S
O520 C535 1.259 . S
O521 Tb516 2.374 . S
O521 C517 1.251 . S
C522 O526 1.275 . S
C522 O527 1.246 . S
O523 C517 1.263 . S
O523 Tb518 2.353 . S
C524 O528 1.245 . S
C524 O529 1.259 . S
C525 O530 1.250 . S
C525 O531 1.263 . S
O526 Tb518 2.427 . S
O526 C522 1.275 . S
O527 Tb518 2.513 . S
O527 C522 1.246 . S
O528 Tb518 2.453 . S
O528 C524 1.245 . S
O529 Tb516 2.343 . S
O529 Tb518 2.596 . S
O529 C524 1.259 . S
O530 Tb518 2.374 . S
O530 C525 1.250 . S
O531 Tb516 2.353 . S
O531 C525 1.263 . S
C532 O533 1.275 . S
C532 O534 1.246 . S
O533 Tb516 2.427 . S
O533 C532 1.275 . S
O534 Tb516 2.513 . S
O534 C532 1.246 . S
C535 O519 1.245 . S
C535 O520 1.259 . S
Tb536 O539 2.461 . S
Tb536 O540 2.596 1_655 S
Tb536 O541 2.374 . S
Tb536 O549 2.343 . S
Tb536 O551 2.353 . S
Tb536 O553 2.427 . S
Tb536 O554 2.513 . S
C537 O541 1.251 1_455 S
C537 O543 1.263 . S
Tb538 O540 2.343 . S
Tb538 O543 2.353 . S
Tb538 O546 2.427 . S
Tb538 O547 2.513 . S
Tb538 O548 2.453 . S
Tb538 O549 2.596 1_455 S
Tb538 O550 2.374 . S
O539 Tb536 2.461 . S
O539 C555 1.232 1_655 S
O540 Tb536 2.596 1_455 S
O540 Tb538 2.343 . S
O540 C555 1.259 . S
O541 Tb536 2.374 . S
O541 C537 1.251 1_655 S
C542 O546 1.275 . S
C542 O547 1.246 . S
O543 C537 1.263 . S
O543 Tb538 2.353 . S
C544 O548 1.245 1_655 S
C544 O549 1.259 . S
C545 O550 1.250 . S
C545 O551 1.263 1_455 S
O546 Tb538 2.427 . S
O546 C542 1.275 . S
O547 Tb538 2.513 . S
O547 C542 1.246 . S
O548 Tb538 2.453 . S
O548 C544 1.245 1_455 S
O549 Tb536 2.343 . S
O549 Tb538 2.596 1_655 S
O549 C544 1.259 . S
O550 Tb538 2.374 . S
O550 C545 1.250 . S
O551 Tb536 2.353 . S
O551 C545 1.263 1_655 S
C552 O553 1.275 . S
C552 O554 1.246 . S
O553 Tb536 2.427 . S
O553 C552 1.275 . S
O554 Tb536 2.513 . S
O554 C552 1.246 . S
C555 O539 1.232 1_455 S
C555 O540 1.259 . S
Tb556 O559 2.453 . S
Tb556 O560 2.596 . S
Tb556 O561 2.374 . S
Tb556 O569 2.343 . S
Tb556 O571 2.353 . S
Tb556 O573 2.427 . S
Tb556 O574 2.513 . S
C557 O561 1.251 . S
C557 O563 1.263 . S
Tb558 O560 2.343 . S
Tb558 O563 2.353 . S
Tb558 O566 2.427 . S
Tb558 O567 2.513 . S
Tb558 O568 2.453 . S
Tb558 O569 2.596 . S
Tb558 O570 2.374 . S
O559 Tb556 2.453 . S
O559 C575 1.245 . S
O560 Tb556 2.596 . S
O560 Tb558 2.343 . S
O560 C575 1.259 . S
O561 Tb556 2.374 . S
O561 C557 1.251 . S
C562 O566 1.275 . S
C562 O567 1.246 . S
O563 C557 1.263 . S
O563 Tb558 2.353 . S
C564 O568 1.245 . S
C564 O569 1.259 . S
C565 O570 1.250 . S
C565 O571 1.263 . S
O566 Tb558 2.427 . S
O566 C562 1.275 . S
O567 Tb558 2.513 . S
O567 C562 1.246 . S
O568 Tb558 2.453 . S
O568 C564 1.245 . S
O569 Tb556 2.343 . S
O569 Tb558 2.596 . S
O569 C564 1.259 . S
O570 Tb558 2.374 . S
O570 C565 1.250 . S
O571 Tb556 2.353 . S
O571 C565 1.263 . S
C572 O573 1.275 . S
C572 O574 1.246 . S
O573 Tb556 2.427 . S
O573 C572 1.275 . S
O574 Tb556 2.513 . S
O574 C572 1.246 . S
C575 O559 1.245 . S
C575 O560 1.259 . S
Tb576 O579 2.453 . S
Tb576 O580 2.596 . S
Tb576 O581 2.374 . S
Tb576 O589 2.343 . S
Tb576 O591 2.353 . S
Tb576 O593 2.427 . S
Tb576 O594 2.513 . S
C577 O581 1.251 . S
C577 O583 1.263 . S
Tb578 O580 2.343 . S
Tb578 O583 2.353 . S
Tb578 O586 2.427 . S
Tb578 O587 2.513 . S
Tb578 O588 2.453 . S
Tb578 O589 2.596 . S
Tb578 O590 2.374 . S
O579 Tb576 2.453 . S
O579 C595 1.245 . S
O580 Tb576 2.596 . S
O580 Tb578 2.343 . S
O580 C595 1.259 . S
O581 Tb576 2.374 . S
O581 C577 1.251 . S
C582 O586 1.275 . S
C582 O587 1.246 . S
O583 C577 1.263 . S
O583 Tb578 2.353 . S
C584 O588 1.245 . S
C584 O589 1.259 . S
C585 O590 1.250 . S
C585 O591 1.263 . S
O586 Tb578 2.427 . S
O586 C582 1.275 . S
O587 Tb578 2.513 . S
O587 C582 1.246 . S
O588 Tb578 2.453 . S
O588 C584 1.245 . S
O589 Tb576 2.343 . S
O589 Tb578 2.596 . S
O589 C584 1.259 . S
O590 Tb578 2.374 . S
O590 C585 1.250 . S
O591 Tb576 2.353 . S
O591 C585 1.263 . S
C592 O593 1.275 . S
C592 O594 1.246 . S
O593 Tb576 2.427 . S
O593 C592 1.275 . S
O594 Tb576 2.513 . S
O594 C592 1.246 . S
C595 O579 1.245 . S
C595 O580 1.259 . S
Tb596 O599 2.453 . S
Tb596 O600 2.596 . S
Tb596 O601 2.374 . S
Tb596 O609 2.343 . S
Tb596 O611 2.353 . S
Tb596 O613 2.427 . S
Tb596 O614 2.513 . S
C597 O601 1.251 . S
C597 O603 1.263 . S
Tb598 O600 2.343 . S
Tb598 O603 2.353 . S
Tb598 O606 2.427 . S
Tb598 O607 2.513 . S
Tb598 O608 2.453 . S
Tb598 O609 2.596 . S
Tb598 O610 2.374 . S
O599 Tb596 2.453 . S
O599 C615 1.245 . S
O600 Tb596 2.596 . S
O600 Tb598 2.343 . S
O600 C615 1.259 . S
O601 Tb596 2.374 . S
O601 C597 1.251 . S
C602 O606 1.275 . S
C602 O607 1.246 . S
O603 C597 1.263 . S
O603 Tb598 2.353 . S
C604 O608 1.245 . S
C604 O609 1.259 . S
C605 O610 1.250 . S
C605 O611 1.263 . S
O606 Tb598 2.427 . S
O606 C602 1.275 . S
O607 Tb598 2.513 . S
O607 C602 1.246 . S
O608 Tb598 2.453 . S
O608 C604 1.245 . S
O609 Tb596 2.343 . S
O609 Tb598 2.596 . S
O609 C604 1.259 . S
O610 Tb598 2.374 . S
O610 C605 1.250 . S
O611 Tb596 2.353 . S
O611 C605 1.263 . S
C612 O613 1.275 . S
C612 O614 1.246 . S
O613 Tb596 2.427 . S
O613 C612 1.275 . S
O614 Tb596 2.513 . S
O614 C612 1.246 . S
C615 O599 1.245 . S
C615 O600 1.259 . S
Tb616 O619 2.453 . S
Tb616 O620 2.596 . S
Tb616 O621 2.374 . S
Tb616 O629 2.343 . S
Tb616 O631 2.353 . S
Tb616 O633 2.427 . S
Tb616 O634 2.513 . S
C617 O621 1.251 . S
C617 O623 1.263 . S
Tb618 O620 2.343 . S
Tb618 O623 2.353 . S
Tb618 O626 2.427 . S
Tb618 O627 2.513 . S
Tb618 O628 2.453 . S
Tb618 O629 2.596 . S
Tb618 O630 2.374 . S
O619 Tb616 2.453 . S
O619 C635 1.245 . S
O620 Tb616 2.596 . S
O620 Tb618 2.343 . S
O620 C635 1.259 . S
O621 Tb616 2.374 . S
O621 C617 1.251 . S
C622 O626 1.275 . S
C622 O627 1.246 . S
O623 C617 1.263 . S
O623 Tb618 2.353 . S
C624 O628 1.245 . S
C624 O629 1.259 . S
C625 O630 1.250 . S
C625 O631 1.263 . S
O626 Tb618 2.427 . S
O626 C622 1.275 . S
O627 Tb618 2.513 . S
O627 C622 1.246 . S
O628 Tb618 2.453 . S
O628 C624 1.245 . S
O629 Tb616 2.343 . S
O629 Tb618 2.596 . S
O629 C624 1.259 . S
O630 Tb618 2.374 . S
O630 C625 1.250 . S
O631 Tb616 2.353 . S
O631 C625 1.263 . S
C632 O633 1.275 . S
C632 O634 1.246 . S
O633 Tb616 2.427 . S
O633 C632 1.275 . S
O634 Tb616 2.513 . S
O634 C632 1.246 . S
C635 O619 1.245 . S
C635 O620 1.259 . S
Tb636 O639 2.453 . S
Tb636 O640 2.596 . S
Tb636 O641 2.374 . S
Tb636 O649 2.343 . S
Tb636 O651 2.353 1_554 S
Tb636 O653 2.427 1_554 S
Tb636 O654 2.513 . S
C637 O641 1.251 . S
C637 O643 1.263 1_455 S
Tb638 O640 2.343 1_655 S
Tb638 O643 2.353 . S
Tb638 O646 2.427 . S
Tb638 O647 2.513 . S
Tb638 O648 2.459 . S
Tb638 O649 2.596 1_655 S
Tb638 O650 2.374 1_554 S
O639 Tb636 2.453 . S
O639 C655 1.245 . S
O640 Tb636 2.596 . S
O640 Tb638 2.343 1_455 S
O640 C655 1.259 . S
O641 Tb636 2.374 . S
O641 C637 1.251 . S
C642 O646 1.275 . S
C642 O647 1.246 . S
O643 C637 1.263 1_655 S
O643 Tb638 2.353 . S
C644 O648 1.234 1_556 S
C644 O649 1.259 1_656 S
C645 O650 1.250 . S
C645 O651 1.263 1_655 S
O646 Tb638 2.427 . S
O646 C642 1.275 . S
O647 Tb638 2.513 . S
O647 C642 1.246 . S
O648 Tb638 2.459 . S
O648 C644 1.234 1_554 S
O649 Tb636 2.343 . S
O649 Tb638 2.596 1_455 S
O649 C644 1.259 1_454 S
O650 Tb638 2.374 1_556 S
O650 C645 1.250 . S
O651 Tb636 2.353 1_556 S
O651 C645 1.263 1_455 S
C652 O653 1.275 . S
C652 O654 1.246 1_556 S
O653 Tb636 2.427 1_556 S
O653 C652 1.275 . S
O654 Tb636 2.513 . S
O654 C652 1.246 1_554 S
C655 O639 1.245 . S
C655 O640 1.259 . S
H656 C664 0.950 . S
H657 C669 0.950 . S
H658 C666 0.950 . S
H659 C668 0.947 . S
H660 C670 0.950 . S
H661 C672 0.950 . S
H662 C674 0.950 . S
H663 C675 0.978 . S
C664 H656 0.950 . S
C664 C665 1.386 . S
C664 C666 1.391 . S
C665 C664 1.386 . S
C665 C669 1.393 . S
C666 H658 0.950 . S
C666 C664 1.391 . S
C666 C667 1.400 . S
C667 C666 1.400 . S
C667 C668 1.398 . S
C667 C673 1.491 . S
C668 H659 0.947 . S
C668 C667 1.398 . S
C668 C669 1.391 . S
C669 H657 0.950 . S
C669 C665 1.393 . S
C669 C668 1.391 . S
C670 H660 0.950 . S
C670 C671 1.386 . S
C670 C672 1.391 . S
C671 C670 1.386 . S
C671 C675 1.382 1_556 S
C672 H661 0.950 . S
C672 C670 1.391 . S
C672 C673 1.400 . S
C673 C667 1.491 . S
C673 C672 1.400 . S
C673 C674 1.398 . S
C674 H662 0.950 . S
C674 C673 1.398 . S
C674 C675 1.374 1_556 S
C675 H663 0.978 . S
C675 C671 1.382 1_554 S
C675 C674 1.374 1_554 S
H676 C684 0.950 . S
H677 C689 0.950 . S
H678 C686 0.950 . S
H679 C688 0.950 . S
H680 C690 0.950 . S
H681 C692 0.950 . S
H682 C694 0.950 . S
H683 C695 0.950 . S
C684 H676 0.950 . S
C684 C685 1.386 . S
C684 C686 1.391 . S
C685 C684 1.386 . S
C685 C689 1.393 . S
C686 H678 0.950 . S
C686 C684 1.391 . S
C686 C687 1.400 . S
C687 C686 1.400 . S
C687 C688 1.398 . S
C687 C693 1.491 . S
C688 H679 0.950 . S
C688 C687 1.398 . S
C688 C689 1.391 . S
C689 H677 0.950 . S
C689 C685 1.393 . S
C689 C688 1.391 . S
C690 H680 0.950 . S
C690 C691 1.386 . S
C690 C692 1.391 . S
C691 C690 1.386 . S
C691 C695 1.393 . S
C692 H681 0.950 . S
C692 C690 1.391 . S
C692 C693 1.400 . S
C693 C687 1.491 . S
C693 C692 1.400 . S
C693 C694 1.398 . S
C694 H682 0.950 . S
C694 C693 1.398 . S
C694 C695 1.391 . S
C695 H683 0.950 . S
C695 C691 1.393 . S
C695 C694 1.391 . S
H696 C704 0.950 . S
H697 C709 0.950 . S
H698 C706 0.950 . S
H699 C708 0.950 . S
H700 C710 0.950 . S
H701 C712 0.950 . S
H702 C714 0.950 . S
H703 C715 0.950 . S
C704 H696 0.950 . S
C704 C705 1.386 . S
C704 C706 1.391 . S
C705 C704 1.386 . S
C705 C709 1.393 . S
C706 H698 0.950 . S
C706 C704 1.391 . S
C706 C707 1.400 . S
C707 C706 1.400 . S
C707 C708 1.398 . S
C707 C713 1.491 . S
C708 H699 0.950 . S
C708 C707 1.398 . S
C708 C709 1.391 . S
C709 H697 0.950 . S
C709 C705 1.393 . S
C709 C708 1.391 . S
C710 H700 0.950 . S
C710 C711 1.386 . S
C710 C712 1.391 . S
C711 C710 1.386 . S
C711 C715 1.393 . S
C712 H701 0.950 . S
C712 C710 1.391 . S
C712 C713 1.400 . S
C713 C707 1.491 . S
C713 C712 1.400 . S
C713 C714 1.398 . S
C714 H702 0.950 . S
C714 C713 1.398 . S
C714 C715 1.391 . S
C715 H703 0.950 . S
C715 C711 1.393 . S
C715 C714 1.391 . S
H716 C724 0.950 . S
H717 C729 0.950 . S
H718 C726 0.950 . S
H719 C728 0.950 . S
H720 C730 0.950 . S
H721 C732 0.950 . S
H722 C734 0.950 . S
H723 C735 0.950 . S
C724 H716 0.950 . S
C724 C725 1.386 . S
C724 C726 1.391 . S
C725 C724 1.386 . S
C725 C729 1.393 . S
C726 H718 0.950 . S
C726 C724 1.391 . S
C726 C727 1.400 . S
C727 C726 1.400 . S
C727 C728 1.398 . S
C727 C733 1.491 . S
C728 H719 0.950 . S
C728 C727 1.398 . S
C728 C729 1.391 . S
C729 H717 0.950 . S
C729 C725 1.393 . S
C729 C728 1.391 . S
C730 H720 0.950 . S
C730 C731 1.386 . S
C730 C732 1.391 . S
C731 C730 1.386 . S
C731 C735 1.393 . S
C732 H721 0.950 . S
C732 C730 1.391 . S
C732 C733 1.400 . S
C733 C727 1.491 . S
C733 C732 1.400 . S
C733 C734 1.398 . S
C734 H722 0.950 . S
C734 C733 1.398 . S
C734 C735 1.391 . S
C735 H723 0.950 . S
C735 C731 1.393 . S
C735 C734 1.391 . S
H736 C744 0.950 . S
H737 C749 0.950 . S
H738 C746 0.950 . S
H739 C748 0.950 . S
H740 C750 0.950 . S
H741 C752 0.950 . S
H742 C754 0.950 . S
H743 C755 0.950 . S
C744 H736 0.950 . S
C744 C745 1.423 . S
C744 C746 1.391 . S
C745 C744 1.423 . S
C745 C749 1.352 1_455 S
C746 H738 0.950 . S
C746 C744 1.391 . S
C746 C747 1.400 . S
C747 C746 1.400 . S
C747 C748 1.398 1_455 S
C747 C753 1.491 . S
C748 H739 0.950 . S
C748 C747 1.398 1_655 S
C748 C749 1.391 . S
C749 H737 0.950 . S
C749 C745 1.352 1_655 S
C749 C748 1.391 . S
C750 H740 0.950 . S
C750 C751 1.386 1_655 S
C750 C752 1.391 . S
C751 C750 1.386 1_455 S
C751 C755 1.393 . S
C752 H741 0.950 . S
C752 C750 1.391 . S
C752 C753 1.400 1_655 S
C753 C747 1.491 . S
C753 C752 1.400 1_455 S
C753 C754 1.398 . S
C754 H742 0.950 . S
C754 C753 1.398 . S
C754 C755 1.391 . S
C755 H743 0.950 . S
C755 C751 1.393 . S
C755 C754 1.391 . S
H756 C764 0.950 . S
H757 C769 0.950 . S
H758 C766 0.950 . S
H759 C768 0.950 . S
H760 C770 0.950 . S
H761 C772 0.950 . S
H762 C774 0.950 . S
H763 C775 0.950 . S
C764 H756 0.950 . S
C764 C765 1.386 . S
C764 C766 1.391 . S
C765 C764 1.386 . S
C765 C769 1.393 . S
C766 H758 0.950 . S
C766 C764 1.391 . S
C766 C767 1.400 . S
C767 C766 1.400 . S
C767 C768 1.398 . S
C767 C773 1.491 . S
C768 H759 0.950 . S
C768 C767 1.398 . S
C768 C769 1.391 . S
C769 H757 0.950 . S
C769 C765 1.393 . S
C769 C768 1.391 . S
C770 H760 0.950 . S
C770 C771 1.386 . S
C770 C772 1.391 . S
C771 C770 1.386 . S
C771 C775 1.393 . S
C772 H761 0.950 . S
C772 C770 1.391 . S
C772 C773 1.400 . S
C773 C767 1.491 . S
C773 C772 1.400 . S
C773 C774 1.398 . S
C774 H762 0.950 . S
C774 C773 1.398 . S
C774 C775 1.391 . S
C775 H763 0.950 . S
C775 C771 1.393 . S
C775 C774 1.391 . S
H776 C784 0.950 . S
H777 C789 0.950 . S
H778 C786 0.950 . S
H779 C788 0.950 . S
H780 C790 0.950 . S
H781 C792 0.950 . S
H782 C794 0.950 . S
H783 C795 0.950 . S
C784 H776 0.950 . S
C784 C785 1.386 . S
C784 C786 1.391 . S
C785 C784 1.386 . S
C785 C789 1.393 . S
C786 H778 0.950 . S
C786 C784 1.391 . S
C786 C787 1.400 . S
C787 C786 1.400 . S
C787 C788 1.398 . S
C787 C793 1.491 . S
C788 H779 0.950 . S
C788 C787 1.398 . S
C788 C789 1.391 . S
C789 H777 0.950 . S
C789 C785 1.393 . S
C789 C788 1.391 . S
C790 H780 0.950 . S
C790 C791 1.386 . S
C790 C792 1.391 . S
C791 C790 1.386 . S
C791 C795 1.393 . S
C792 H781 0.950 . S
C792 C790 1.391 . S
C792 C793 1.400 . S
C793 C787 1.491 . S
C793 C792 1.400 . S
C793 C794 1.398 . S
C794 H782 0.950 . S
C794 C793 1.398 . S
C794 C795 1.391 . S
C795 H783 0.950 . S
C795 C791 1.393 . S
C795 C794 1.391 . S
H796 C804 0.950 . S
H797 C809 0.950 . S
H798 C806 0.950 . S
H799 C808 0.950 . S
H800 C810 0.950 . S
H801 C812 0.950 . S
H802 C814 0.950 . S
H803 C815 0.950 . S
C804 H796 0.950 . S
C804 C805 1.386 . S
C804 C806 1.391 . S
C805 C804 1.386 . S
C805 C809 1.393 . S
C806 H798 0.950 . S
C806 C804 1.391 . S
C806 C807 1.400 . S
C807 C806 1.400 . S
C807 C808 1.398 . S
C807 C813 1.491 . S
C808 H799 0.950 . S
C808 C807 1.398 . S
C808 C809 1.391 . S
C809 H797 0.950 . S
C809 C805 1.393 . S
C809 C808 1.391 . S
C810 H800 0.950 . S
C810 C811 1.386 . S
C810 C812 1.391 . S
C811 C810 1.386 . S
C811 C815 1.393 . S
C812 H801 0.950 . S
C812 C810 1.391 . S
C812 C813 1.400 . S
C813 C807 1.491 . S
C813 C812 1.400 . S
C813 C814 1.398 . S
C814 H802 0.950 . S
C814 C813 1.398 . S
C814 C815 1.391 . S
C815 H803 0.950 . S
C815 C811 1.393 . S
C815 C814 1.391 . S
H816 C824 0.950 . S
H817 C829 0.950 . S
H818 C826 0.950 . S
H819 C828 0.950 . S
H820 C830 0.950 1_455 S
H821 C832 0.950 . S
H822 C834 0.950 . S
H823 C835 0.950 . S
C824 H816 0.950 . S
C824 C825 1.386 . S
C824 C826 1.391 . S
C825 C824 1.386 . S
C825 C829 1.393 . S
C826 H818 0.950 . S
C826 C824 1.391 . S
C826 C827 1.400 . S
C827 C826 1.400 . S
C827 C828 1.398 . S
C827 C833 1.491 . S
C828 H819 0.950 . S
C828 C827 1.398 . S
C828 C829 1.391 . S
C829 H817 0.950 . S
C829 C825 1.393 . S
C829 C828 1.391 . S
C830 H820 0.950 1_655 S
C830 C831 1.386 . S
C830 C832 1.391 . S
C831 C830 1.386 . S
C831 C835 1.393 . S
C832 H821 0.950 . S
C832 C830 1.391 . S
C832 C833 1.400 . S
C833 C827 1.491 . S
C833 C832 1.400 . S
C833 C834 1.398 . S
C834 H822 0.950 . S
C834 C833 1.398 . S
C834 C835 1.391 . S
C835 H823 0.950 . S
C835 C831 1.393 . S
C835 C834 1.391 . S
H836 C844 0.950 . S
H837 C849 0.950 . S
H838 C846 0.950 . S
H839 C848 0.950 . S
H840 C850 0.950 . S
H841 C852 0.950 . S
H842 C854 0.950 . S
H843 C855 0.950 . S
C844 H836 0.950 . S
C844 C845 1.386 . S
C844 C846 1.391 . S
C845 C844 1.386 . S
C845 C849 1.393 . S
C846 H838 0.950 . S
C846 C844 1.391 . S
C846 C847 1.400 . S
C847 C846 1.400 . S
C847 C848 1.398 . S
C847 C853 1.491 . S
C848 H839 0.950 . S
C848 C847 1.398 . S
C848 C849 1.391 . S
C849 H837 0.950 . S
C849 C845 1.393 . S
C849 C848 1.391 . S
C850 H840 0.950 . S
C850 C851 1.386 . S
C850 C852 1.391 . S
C851 C850 1.386 . S
C851 C855 1.393 . S
C852 H841 0.950 . S
C852 C850 1.391 . S
C852 C853 1.400 . S
C853 C847 1.491 . S
C853 C852 1.400 . S
C853 C854 1.398 . S
C854 H842 0.950 . S
C854 C853 1.398 . S
C854 C855 1.391 . S
C855 H843 0.950 . S
C855 C851 1.393 . S
C855 C854 1.391 . S
H856 C864 0.950 . S
H857 C869 0.947 1_565 S
H858 C866 0.950 . S
H859 C868 0.950 . S
H860 C870 0.950 . S
H861 C872 0.950 . S
H862 C874 0.950 . S
H863 C875 0.950 . S
C864 H856 0.950 . S
C864 C865 1.386 . S
C864 C866 1.391 . S
C865 C864 1.386 . S
C865 C869 1.393 . S
C866 H858 0.950 . S
C866 C864 1.391 . S
C866 C867 1.400 . S
C867 C866 1.400 . S
C867 C868 1.398 . S
C867 C873 1.491 . S
C868 H859 0.950 . S
C868 C867 1.398 . S
C868 C869 1.391 . S
C869 H857 0.947 1_545 S
C869 C865 1.393 . S
C869 C868 1.391 . S
C870 H860 0.950 . S
C870 C871 1.386 . S
C870 C872 1.391 . S
C871 C870 1.386 . S
C871 C875 1.393 . S
C872 H861 0.950 . S
C872 C870 1.391 . S
C872 C873 1.400 . S
C873 C867 1.491 . S
C873 C872 1.400 . S
C873 C874 1.398 . S
C874 H862 0.950 . S
C874 C873 1.398 . S
C874 C875 1.391 . S
C875 H863 0.950 . S
C875 C871 1.393 . S
C875 C874 1.391 . S
H876 C884 0.950 . S
H877 C889 0.950 . S
H878 C886 0.950 . S
H879 C888 0.950 . S
H880 C890 0.950 . S
H881 C892 0.950 . S
H882 C894 0.950 . S
H883 C895 0.950 . S
C884 H876 0.950 . S
C884 C885 1.386 . S
C884 C886 1.391 . S
C885 C884 1.386 . S
C885 C889 1.393 . S
C886 H878 0.950 . S
C886 C884 1.391 . S
C886 C887 1.400 . S
C887 C886 1.400 . S
C887 C888 1.398 . S
C887 C893 1.491 . S
C888 H879 0.950 . S
C888 C887 1.398 . S
C888 C889 1.391 . S
C889 H877 0.950 . S
C889 C885 1.393 . S
C889 C888 1.391 . S
C890 H880 0.950 . S
C890 C891 1.386 . S
C890 C892 1.391 . S
C891 C890 1.386 . S
C891 C895 1.393 . S
C892 H881 0.950 . S
C892 C890 1.391 . S
C892 C893 1.400 . S
C893 C887 1.491 . S
C893 C892 1.400 . S
C893 C894 1.398 . S
C894 H882 0.950 . S
C894 C893 1.398 . S
C894 C895 1.391 . S
C895 H883 0.950 . S
C895 C891 1.393 . S
C895 C894 1.391 . S
H896 C904 0.950 . S
H897 C909 0.950 . S
H898 C906 0.950 . S
H899 C908 0.950 . S
H900 C910 0.950 . S
H901 C912 0.950 . S
H902 C914 0.950 . S
H903 C915 0.950 1_455 S
C904 H896 0.950 . S
C904 C905 1.386 . S
C904 C906 1.391 . S
C905 C904 1.386 . S
C905 C909 1.393 . S
C906 H898 0.950 . S
C906 C904 1.391 . S
C906 C907 1.400 . S
C907 C906 1.400 . S
C907 C908 1.398 . S
C907 C913 1.491 . S
C908 H899 0.950 . S
C908 C907 1.398 . S
C908 C909 1.391 . S
C909 H897 0.950 . S
C909 C905 1.393 . S
C909 C908 1.391 . S
C910 H900 0.950 . S
C910 C911 1.386 . S
C910 C912 1.391 . S
C911 C910 1.386 . S
C911 C915 1.393 . S
C912 H901 0.950 . S
C912 C910 1.391 . S
C912 C913 1.400 . S
C913 C907 1.491 . S
C913 C912 1.400 . S
C913 C914 1.398 . S
C914 H902 0.950 . S
C914 C913 1.398 . S
C914 C915 1.391 . S
C915 H903 0.950 1_655 S
C915 C911 1.393 . S
C915 C914 1.391 . S
H916 C924 0.950 . S
H917 C929 0.950 . S
H918 C926 0.950 . S
H919 C928 0.950 . S
H920 C930 0.950 . S
H921 C932 0.950 . S
H922 C934 0.950 . S
H923 C935 0.950 . S
C924 H916 0.950 . S
C924 C925 1.386 . S
C924 C926 1.391 . S
C925 C924 1.386 . S
C925 C929 1.393 . S
C926 H918 0.950 . S
C926 C924 1.391 . S
C926 C927 1.400 . S
C927 C926 1.400 . S
C927 C928 1.398 . S
C927 C933 1.491 . S
C928 H919 0.950 . S
C928 C927 1.398 . S
C928 C929 1.391 . S
C929 H917 0.950 . S
C929 C925 1.393 . S
C929 C928 1.391 . S
C930 H920 0.950 . S
C930 C931 1.386 . S
C930 C932 1.391 . S
C931 C930 1.386 . S
C931 C935 1.393 . S
C932 H921 0.950 . S
C932 C930 1.391 . S
C932 C933 1.400 . S
C933 C927 1.491 . S
C933 C932 1.400 . S
C933 C934 1.398 . S
C934 H922 0.950 . S
C934 C933 1.398 . S
C934 C935 1.391 . S
C935 H923 0.950 . S
C935 C931 1.393 . S
C935 C934 1.391 . S
H936 C944 0.950 1_565 S
H937 C949 0.950 . S
H938 C946 0.950 1_565 S
H939 C948 0.950 . S
H940 C950 0.950 . S
H941 C952 0.950 . S
H942 C954 0.950 . S
H943 C955 0.950 . S
C944 H936 0.950 1_545 S
C944 C945 1.386 . S
C944 C946 1.391 . S
C945 C944 1.386 . S
C945 C949 1.393 . S
C946 H938 0.950 1_545 S
C946 C944 1.391 . S
C946 C947 1.400 . S
C947 C946 1.400 . S
C947 C948 1.398 . S
C947 C953 1.491 . S
C948 H939 0.950 . S
C948 C947 1.398 . S
C948 C949 1.391 . S
C949 H937 0.950 . S
C949 C945 1.393 . S
C949 C948 1.391 . S
C950 H940 0.950 . S
C950 C951 1.386 . S
C950 C952 1.391 . S
C951 C950 1.386 . S
C951 C955 1.393 . S
C952 H941 0.950 . S
C952 C950 1.391 . S
C952 C953 1.400 . S
C953 C947 1.491 . S
C953 C952 1.400 . S
C953 C954 1.398 . S
C954 H942 0.950 . S
C954 C953 1.398 . S
C954 C955 1.391 . S
C955 H943 0.950 . S
C955 C951 1.393 . S
C955 C954 1.391 . S
H956 C964 0.950 . S
H957 C969 0.950 . S
H958 C966 0.950 . S
H959 C968 0.950 . S
H960 C970 0.950 . S
H961 C972 0.950 . S
H962 C974 0.950 . S
H963 C975 0.950 . S
C964 H956 0.950 . S
C964 C965 1.386 . S
C964 C966 1.391 . S
C965 C964 1.386 . S
C965 C969 1.393 . S
C966 H958 0.950 . S
C966 C964 1.391 . S
C966 C967 1.400 . S
C967 C966 1.400 . S
C967 C968 1.398 . S
C967 C973 1.491 . S
C968 H959 0.950 . S
C968 C967 1.398 . S
C968 C969 1.391 . S
C969 H957 0.950 . S
C969 C965 1.393 . S
C969 C968 1.391 . S
C970 H960 0.950 . S
C970 C971 1.386 . S
C970 C972 1.391 . S
C971 C970 1.386 . S
C971 C975 1.393 . S
C972 H961 0.950 . S
C972 C970 1.391 . S
C972 C973 1.400 . S
C973 C967 1.491 . S
C973 C972 1.400 . S
C973 C974 1.398 . S
C974 H962 0.950 . S
C974 C973 1.398 . S
C974 C975 1.391 . S
C975 H963 0.950 . S
C975 C971 1.393 . S
C975 C974 1.391 . S
H976 C984 0.950 . S
H977 C989 0.950 . S
H978 C986 0.950 . S
H979 C988 0.950 . S
H980 C990 0.950 . S
H981 C992 0.950 . S
H982 C994 0.950 . S
H983 C995 0.950 . S
C984 H976 0.950 . S
C984 C985 1.386 . S
C984 C986 1.391 . S
C985 C984 1.386 . S
C985 C989 1.393 . S
C986 H978 0.950 . S
C986 C984 1.391 . S
C986 C987 1.400 . S
C987 C986 1.400 . S
C987 C988 1.398 . S
C987 C993 1.491 . S
C988 H979 0.950 . S
C988 C987 1.398 . S
C988 C989 1.391 . S
C989 H977 0.950 . S
C989 C985 1.393 . S
C989 C988 1.391 . S
C990 H980 0.950 . S
C990 C991 1.394 . S
C990 C992 1.391 . S
C991 C990 1.394 . S
C991 C995 1.390 1_565 S
C992 H981 0.950 . S
C992 C990 1.391 . S
C992 C993 1.400 . S
C993 C987 1.491 . S
C993 C992 1.400 . S
C993 C994 1.398 1_565 S
C994 H982 0.950 . S
C994 C993 1.398 1_545 S
C994 C995 1.391 . S
C995 H983 0.950 . S
C995 C991 1.390 1_545 S
C995 C994 1.391 . S
H996 C1004 0.950 . S
H997 C1009 0.950 . S
H998 C1006 0.950 . S
H999 C1008 0.950 . S
H1000 C1010 0.950 . S
H1001 C1012 0.950 . S
H1002 C1014 0.950 . S
H1003 C1015 0.950 . S
C1004 H996 0.950 . S
C1004 C1005 1.379 1_556 S
C1004 C1006 1.391 . S
C1005 C1004 1.379 1_554 S
C1005 C1009 1.400 . S
C1006 H998 0.950 . S
C1006 C1004 1.391 . S
C1006 C1007 1.357 1_556 S
C1007 C1006 1.357 1_554 S
C1007 C1008 1.435 . S
C1007 C1013 1.498 . S
C1008 H999 0.950 . S
C1008 C1007 1.435 . S
C1008 C1009 1.391 . S
C1009 H997 0.950 . S
C1009 C1005 1.400 . S
C1009 C1008 1.391 . S
C1010 H1000 0.950 . S
C1010 C1011 1.386 . S
C1010 C1012 1.391 . S
C1011 C1010 1.386 . S
C1011 C1015 1.393 1_554 S
C1012 H1001 0.950 . S
C1012 C1010 1.391 . S
C1012 C1013 1.400 . S
C1013 C1007 1.498 . S
C1013 C1012 1.400 . S
C1013 C1014 1.398 1_554 S
C1014 H1002 0.950 . S
C1014 C1013 1.398 1_556 S
C1014 C1015 1.391 . S
C1015 H1003 0.950 . S
C1015 C1011 1.393 1_556 S
C1015 C1014 1.391 . S
H1016 C1024 0.950 . S
H1017 C1029 0.950 . S
H1018 C1026 0.950 . S
H1019 C1028 0.950 . S
H1020 C1030 0.950 . S
H1021 C1032 0.950 . S
H1022 C1034 0.950 . S
H1023 C1035 0.950 . S
C1024 H1016 0.950 . S
C1024 C1025 1.386 . S
C1024 C1026 1.391 . S
C1025 C1024 1.386 . S
C1025 C1029 1.393 . S
C1026 H1018 0.950 . S
C1026 C1024 1.391 . S
C1026 C1027 1.400 . S
C1027 C1026 1.400 . S
C1027 C1028 1.398 . S
C1027 C1033 1.491 . S
C1028 H1019 0.950 . S
C1028 C1027 1.398 . S
C1028 C1029 1.391 . S
C1029 H1017 0.950 . S
C1029 C1025 1.393 . S
C1029 C1028 1.391 . S
C1030 H1020 0.950 . S
C1030 C1031 1.386 . S
C1030 C1032 1.391 . S
C1031 C1030 1.386 . S
C1031 C1035 1.393 . S
C1032 H1021 0.950 . S
C1032 C1030 1.391 . S
C1032 C1033 1.400 . S
C1033 C1027 1.491 . S
C1033 C1032 1.400 . S
C1033 C1034 1.398 . S
C1034 H1022 0.950 . S
C1034 C1033 1.398 . S
C1034 C1035 1.391 . S
C1035 H1023 0.950 . S
C1035 C1031 1.393 . S
C1035 C1034 1.391 . S
H1036 C1044 0.950 . S
H1037 C1049 0.950 . S
H1038 C1046 0.950 . S
H1039 C1048 0.950 . S
H1040 C1050 0.950 . S
H1041 C1052 0.950 . S
H1042 C1054 0.950 . S
H1043 C1055 0.950 . S
C1044 H1036 0.950 . S
C1044 C1045 1.386 . S
C1044 C1046 1.391 . S
C1045 C1044 1.386 . S
C1045 C1049 1.393 . S
C1046 H1038 0.950 . S
C1046 C1044 1.391 . S
C1046 C1047 1.400 . S
C1047 C1046 1.400 . S
C1047 C1048 1.398 . S
C1047 C1053 1.491 . S
C1048 H1039 0.950 . S
C1048 C1047 1.398 . S
C1048 C1049 1.391 . S
C1049 H1037 0.950 . S
C1049 C1045 1.393 . S
C1049 C1048 1.391 . S
C1050 H1040 0.950 . S
C1050 C1051 1.386 . S
C1050 C1052 1.391 . S
C1051 C1050 1.386 . S
C1051 C1055 1.393 . S
C1052 H1041 0.950 . S
C1052 C1050 1.391 . S
C1052 C1053 1.400 . S
C1053 C1047 1.491 . S
C1053 C1052 1.400 . S
C1053 C1054 1.398 . S
C1054 H1042 0.950 . S
C1054 C1053 1.398 . S
C1054 C1055 1.391 . S
C1055 H1043 0.950 . S
C1055 C1051 1.393 . S
C1055 C1054 1.391 . S
H1056 C1064 0.950 . S
H1057 C1069 0.950 . S
H1058 C1066 0.950 . S
H1059 C1068 0.950 . S
H1060 C1070 0.950 . S
H1061 C1072 0.950 . S
H1062 C1074 0.950 . S
H1063 C1075 0.950 . S
C1064 H1056 0.950 . S
C1064 C1065 1.386 . S
C1064 C1066 1.391 . S
C1065 C1064 1.386 . S
C1065 C1069 1.393 . S
C1066 H1058 0.950 . S
C1066 C1064 1.391 . S
C1066 C1067 1.400 . S
C1067 C1066 1.400 . S
C1067 C1068 1.398 . S
C1067 C1073 1.491 . S
C1068 H1059 0.950 . S
C1068 C1067 1.398 . S
C1068 C1069 1.391 . S
C1069 H1057 0.950 . S
C1069 C1065 1.393 . S
C1069 C1068 1.391 . S
C1070 H1060 0.950 . S
C1070 C1071 1.386 . S
C1070 C1072 1.391 . S
C1071 C1070 1.386 . S
C1071 C1075 1.393 . S
C1072 H1061 0.950 . S
C1072 C1070 1.391 . S
C1072 C1073 1.400 . S
C1073 C1067 1.491 . S
C1073 C1072 1.400 . S
C1073 C1074 1.398 . S
C1074 H1062 0.950 . S
C1074 C1073 1.398 . S
C1074 C1075 1.391 . S
C1075 H1063 0.950 . S
C1075 C1071 1.393 . S
C1075 C1074 1.391 . S
H1076 C1084 0.950 . S
H1077 C1089 0.950 . S
H1078 C1086 0.950 . S
H1079 C1088 0.950 . S
H1080 C1090 0.950 . S
H1081 C1092 0.950 . S
H1082 C1094 0.950 . S
H1083 C1095 0.950 . S
C1084 H1076 0.950 . S
C1084 C1085 1.386 . S
C1084 C1086 1.391 . S
C1085 C1084 1.386 . S
C1085 C1089 1.393 . S
C1086 H1078 0.950 . S
C1086 C1084 1.391 . S
C1086 C1087 1.400 . S
C1087 C1086 1.400 . S
C1087 C1088 1.398 . S
C1087 C1093 1.491 . S
C1088 H1079 0.950 . S
C1088 C1087 1.398 . S
C1088 C1089 1.391 . S
C1089 H1077 0.950 . S
C1089 C1085 1.393 . S
C1089 C1088 1.391 . S
C1090 H1080 0.950 . S
C1090 C1091 1.386 . S
C1090 C1092 1.391 . S
C1091 C1090 1.386 . S
C1091 C1095 1.393 . S
C1092 H1081 0.950 . S
C1092 C1090 1.391 . S
C1092 C1093 1.400 . S
C1093 C1087 1.491 . S
C1093 C1092 1.400 . S
C1093 C1094 1.398 . S
C1094 H1082 0.950 . S
C1094 C1093 1.398 . S
C1094 C1095 1.391 . S
C1095 H1083 0.950 . S
C1095 C1091 1.393 . S
C1095 C1094 1.391 . S
H1096 C1104 0.950 . S
H1097 C1109 0.950 . S
H1098 C1106 0.950 . S
H1099 C1108 0.950 . S
H1100 C1110 0.950 . S
H1101 C1112 0.950 . S
H1102 C1114 0.950 . S
H1103 C1115 0.950 . S
C1104 H1096 0.950 . S
C1104 C1105 1.386 . S
C1104 C1106 1.391 . S
C1105 C1104 1.386 . S
C1105 C1109 1.393 . S
C1106 H1098 0.950 . S
C1106 C1104 1.391 . S
C1106 C1107 1.400 . S
C1107 C1106 1.400 . S
C1107 C1108 1.398 . S
C1107 C1113 1.491 . S
C1108 H1099 0.950 . S
C1108 C1107 1.398 . S
C1108 C1109 1.391 . S
C1109 H1097 0.950 . S
C1109 C1105 1.393 . S
C1109 C1108 1.391 . S
C1110 H1100 0.950 . S
C1110 C1111 1.386 . S
C1110 C1112 1.391 . S
C1111 C1110 1.386 . S
C1111 C1115 1.393 . S
C1112 H1101 0.950 . S
C1112 C1110 1.391 . S
C1112 C1113 1.400 . S
C1113 C1107 1.491 . S
C1113 C1112 1.400 . S
C1113 C1114 1.398 . S
C1114 H1102 0.950 . S
C1114 C1113 1.398 . S
C1114 C1115 1.391 . S
C1115 H1103 0.950 . S
C1115 C1111 1.393 . S
C1115 C1114 1.391 . S
H1116 C1124 0.950 . S
H1117 C1129 0.950 . S
H1118 C1126 0.950 . S
H1119 C1128 0.950 . S
H1120 C1130 0.950 . S
H1121 C1132 0.950 . S
H1122 C1134 0.950 . S
H1123 C1135 0.950 . S
C1124 H1116 0.950 . S
C1124 C1125 1.386 . S
C1124 C1126 1.391 . S
C1125 C1124 1.386 . S
C1125 C1129 1.393 . S
C1126 H1118 0.950 . S
C1126 C1124 1.391 . S
C1126 C1127 1.400 . S
C1127 C1126 1.400 . S
C1127 C1128 1.398 . S
C1127 C1133 1.491 . S
C1128 H1119 0.950 . S
C1128 C1127 1.398 . S
C1128 C1129 1.391 . S
C1129 H1117 0.950 . S
C1129 C1125 1.393 . S
C1129 C1128 1.391 . S
C1130 H1120 0.950 . S
C1130 C1131 1.386 . S
C1130 C1132 1.391 . S
C1131 C1130 1.386 . S
C1131 C1135 1.393 . S
C1132 H1121 0.950 . S
C1132 C1130 1.391 . S
C1132 C1133 1.400 . S
C1133 C1127 1.491 . S
C1133 C1132 1.400 . S
C1133 C1134 1.398 . S
C1134 H1122 0.950 . S
C1134 C1133 1.398 . S
C1134 C1135 1.391 . S
C1135 H1123 0.950 . S
C1135 C1131 1.393 . S
C1135 C1134 1.391 . S
H1136 C1144 0.950 . S
H1137 C1149 0.950 . S
H1138 C1146 0.950 . S
H1139 C1148 0.950 . S
H1140 C1150 0.950 . S
H1141 C1152 0.950 . S
H1142 C1154 0.950 . S
H1143 C1155 0.950 . S
C1144 H1136 0.950 . S
C1144 C1145 1.386 . S
C1144 C1146 1.391 . S
C1145 C1144 1.386 . S
C1145 C1149 1.393 . S
C1146 H1138 0.950 . S
C1146 C1144 1.391 . S
C1146 C1147 1.400 . S
C1147 C1146 1.400 . S
C1147 C1148 1.398 . S
C1147 C1153 1.491 . S
C1148 H1139 0.950 . S
C1148 C1147 1.398 . S
C1148 C1149 1.391 . S
C1149 H1137 0.950 . S
C1149 C1145 1.393 . S
C1149 C1148 1.391 . S
C1150 H1140 0.950 . S
C1150 C1151 1.386 . S
C1150 C1152 1.391 . S
C1151 C1150 1.386 . S
C1151 C1155 1.393 . S
C1152 H1141 0.950 . S
C1152 C1150 1.391 . S
C1152 C1153 1.400 . S
C1153 C1147 1.491 . S
C1153 C1152 1.400 . S
C1153 C1154 1.398 . S
C1154 H1142 0.950 . S
C1154 C1153 1.398 . S
C1154 C1155 1.391 . S
C1155 H1143 0.950 . S
C1155 C1151 1.393 . S
C1155 C1154 1.391 . S
H1156 C1164 0.950 . S
H1157 C1169 0.950 . S
H1158 C1166 0.950 . S
H1159 C1168 0.950 . S
H1160 C1170 0.950 . S
H1161 C1172 0.950 . S
H1162 C1174 0.950 . S
H1163 C1175 0.950 . S
C1164 H1156 0.950 . S
C1164 C1165 1.386 . S
C1164 C1166 1.391 . S
C1165 C1164 1.386 . S
C1165 C1169 1.393 . S
C1166 H1158 0.950 . S
C1166 C1164 1.391 . S
C1166 C1167 1.400 . S
C1167 C1166 1.400 . S
C1167 C1168 1.398 . S
C1167 C1173 1.491 . S
C1168 H1159 0.950 . S
C1168 C1167 1.398 . S
C1168 C1169 1.391 . S
C1169 H1157 0.950 . S
C1169 C1165 1.393 . S
C1169 C1168 1.391 . S
C1170 H1160 0.950 . S
C1170 C1171 1.386 . S
C1170 C1172 1.391 . S
C1171 C1170 1.386 . S
C1171 C1175 1.393 . S
C1172 H1161 0.950 . S
C1172 C1170 1.391 . S
C1172 C1173 1.400 . S
C1173 C1167 1.491 . S
C1173 C1172 1.400 . S
C1173 C1174 1.398 . S
C1174 H1162 0.950 . S
C1174 C1173 1.398 . S
C1174 C1175 1.391 . S
C1175 H1163 0.950 . S
C1175 C1171 1.393 . S
C1175 C1174 1.391 . S
H1176 C1184 0.950 . S
H1177 C1189 0.950 . S
H1178 C1186 0.950 . S
H1179 C1188 0.950 . S
H1180 C1190 0.950 . S
H1181 C1192 0.950 . S
H1182 C1194 0.950 . S
H1183 C1195 0.950 . S
C1184 H1176 0.950 . S
C1184 C1185 1.386 . S
C1184 C1186 1.391 . S
C1185 C1184 1.386 . S
C1185 C1189 1.393 . S
C1186 H1178 0.950 . S
C1186 C1184 1.391 . S
C1186 C1187 1.400 . S
C1187 C1186 1.400 . S
C1187 C1188 1.398 . S
C1187 C1193 1.491 . S
C1188 H1179 0.950 . S
C1188 C1187 1.398 . S
C1188 C1189 1.391 . S
C1189 H1177 0.950 . S
C1189 C1185 1.393 . S
C1189 C1188 1.391 . S
C1190 H1180 0.950 . S
C1190 C1191 1.386 . S
C1190 C1192 1.391 . S
C1191 C1190 1.386 . S
C1191 C1195 1.393 . S
C1192 H1181 0.950 . S
C1192 C1190 1.391 . S
C1192 C1193 1.400 . S
C1193 C1187 1.491 . S
C1193 C1192 1.400 . S
C1193 C1194 1.398 . S
C1194 H1182 0.950 . S
C1194 C1193 1.398 . S
C1194 C1195 1.391 . S
C1195 H1183 0.950 . S
C1195 C1191 1.393 . S
C1195 C1194 1.391 . S
H1196 C1204 0.950 . S
H1197 C1209 0.950 . S
H1198 C1206 0.950 . S
H1199 C1208 0.950 . S
H1200 C1210 0.950 . S
H1201 C1212 0.950 . S
H1202 C1214 0.950 . S
H1203 C1215 0.950 . S
C1204 H1196 0.950 . S
C1204 C1205 1.386 . S
C1204 C1206 1.391 . S
C1205 C1204 1.386 . S
C1205 C1209 1.393 . S
C1206 H1198 0.950 . S
C1206 C1204 1.391 . S
C1206 C1207 1.400 . S
C1207 C1206 1.400 . S
C1207 C1208 1.398 . S
C1207 C1213 1.491 . S
C1208 H1199 0.950 . S
C1208 C1207 1.398 . S
C1208 C1209 1.391 . S
C1209 H1197 0.950 . S
C1209 C1205 1.393 . S
C1209 C1208 1.391 . S
C1210 H1200 0.950 . S
C1210 C1211 1.386 . S
C1210 C1212 1.391 . S
C1211 C1210 1.386 . S
C1211 C1215 1.393 . S
C1212 H1201 0.950 . S
C1212 C1210 1.391 . S
C1212 C1213 1.400 . S
C1213 C1207 1.491 . S
C1213 C1212 1.400 . S
C1213 C1214 1.398 . S
C1214 H1202 0.950 . S
C1214 C1213 1.398 . S
C1214 C1215 1.391 . S
C1215 H1203 0.950 . S
C1215 C1211 1.393 . S
C1215 C1214 1.391 . S
H1216 C1224 0.950 . S
H1217 C1229 0.950 . S
H1218 C1226 0.950 . S
H1219 C1228 0.950 . S
H1220 C1230 0.950 . S
H1221 C1232 0.950 . S
H1222 C1234 0.950 . S
H1223 C1235 0.950 . S
C1224 H1216 0.950 . S
C1224 C1225 1.386 1_655 S
C1224 C1226 1.391 . S
C1225 C1224 1.386 1_455 S
C1225 C1229 1.393 . S
C1226 H1218 0.950 . S
C1226 C1224 1.391 . S
C1226 C1227 1.400 1_655 S
C1227 C1226 1.400 1_455 S
C1227 C1228 1.398 . S
C1227 C1233 1.491 . S
C1228 H1219 0.950 . S
C1228 C1227 1.398 . S
C1228 C1229 1.391 . S
C1229 H1217 0.950 . S
C1229 C1225 1.393 . S
C1229 C1228 1.391 . S
C1230 H1220 0.950 . S
C1230 C1231 1.401 . S
C1230 C1232 1.391 . S
C1231 C1230 1.401 . S
C1231 C1235 1.377 1_455 S
C1232 H1221 0.950 . S
C1232 C1230 1.391 . S
C1232 C1233 1.400 . S
C1233 C1227 1.491 . S
C1233 C1232 1.400 . S
C1233 C1234 1.398 1_455 S
C1234 H1222 0.950 . S
C1234 C1233 1.398 1_655 S
C1234 C1235 1.391 . S
C1235 H1223 0.950 . S
C1235 C1231 1.377 1_655 S
C1235 C1234 1.391 . S
H1236 C1244 0.950 . S
H1237 C1249 0.950 . S
H1238 C1246 0.950 . S
H1239 C1248 0.950 . S
H1240 C1250 0.950 . S
H1241 C1252 0.950 . S
H1242 C1254 0.950 . S
H1243 C1255 0.950 . S
C1244 H1236 0.950 . S
C1244 C1245 1.386 . S
C1244 C1246 1.391 . S
C1245 C1244 1.386 . S
C1245 C1249 1.393 . S
C1246 H1238 0.950 . S
C1246 C1244 1.391 . S
C1246 C1247 1.400 . S
C1247 C1246 1.400 . S
C1247 C1248 1.398 . S
C1247 C1253 1.491 . S
C1248 H1239 0.950 . S
C1248 C1247 1.398 . S
C1248 C1249 1.391 . S
C1249 H1237 0.950 . S
C1249 C1245 1.393 . S
C1249 C1248 1.391 . S
C1250 H1240 0.950 . S
C1250 C1251 1.386 . S
C1250 C1252 1.391 . S
C1251 C1250 1.386 . S
C1251 C1255 1.393 . S
C1252 H1241 0.950 . S
C1252 C1250 1.391 . S
C1252 C1253 1.400 . S
C1253 C1247 1.491 . S
C1253 C1252 1.400 . S
C1253 C1254 1.398 . S
C1254 H1242 0.950 . S
C1254 C1253 1.398 . S
C1254 C1255 1.391 . S
C1255 H1243 0.950 . S
C1255 C1251 1.393 . S
C1255 C1254 1.391 . S
H1256 C1264 0.950 . S
H1257 C1269 0.950 . S
H1258 C1266 0.950 . S
H1259 C1268 0.950 . S
H1260 C1270 0.950 . S
H1261 C1272 0.950 . S
H1262 C1274 0.950 . S
H1263 C1275 0.950 1_554 S
C1264 H1256 0.950 . S
C1264 C1265 1.386 . S
C1264 C1266 1.391 . S
C1265 C1264 1.386 . S
C1265 C1269 1.393 . S
C1266 H1258 0.950 . S
C1266 C1264 1.391 . S
C1266 C1267 1.400 . S
C1267 C1266 1.400 . S
C1267 C1268 1.398 . S
C1267 C1273 1.491 . S
C1268 H1259 0.950 . S
C1268 C1267 1.398 . S
C1268 C1269 1.391 . S
C1269 H1257 0.950 . S
C1269 C1265 1.393 . S
C1269 C1268 1.391 . S
C1270 H1260 0.950 . S
C1270 C1271 1.386 . S
C1270 C1272 1.391 . S
C1271 C1270 1.386 . S
C1271 C1275 1.393 . S
C1272 H1261 0.950 . S
C1272 C1270 1.391 . S
C1272 C1273 1.400 . S
C1273 C1267 1.491 . S
C1273 C1272 1.400 . S
C1273 C1274 1.398 . S
C1274 H1262 0.950 . S
C1274 C1273 1.398 . S
C1274 C1275 1.391 . S
C1275 H1263 0.950 1_556 S
C1275 C1271 1.393 . S
C1275 C1274 1.391 . S
H1276 C1284 0.950 . S
H1277 C1289 0.950 . S
H1278 C1286 0.950 . S
H1279 C1288 0.950 . S
H1280 C1290 0.950 . S
H1281 C1292 0.950 . S
H1282 C1294 0.950 . S
H1283 C1295 0.950 . S
C1284 H1276 0.950 . S
C1284 C1285 1.386 . S
C1284 C1286 1.391 . S
C1285 C1284 1.386 . S
C1285 C1289 1.393 . S
C1286 H1278 0.950 . S
C1286 C1284 1.391 . S
C1286 C1287 1.400 . S
C1287 C1286 1.400 . S
C1287 C1288 1.398 . S
C1287 C1293 1.491 . S
C1288 H1279 0.950 . S
C1288 C1287 1.398 . S
C1288 C1289 1.391 . S
C1289 H1277 0.950 . S
C1289 C1285 1.393 . S
C1289 C1288 1.391 . S
C1290 H1280 0.950 . S
C1290 C1291 1.386 . S
C1290 C1292 1.391 . S
C1291 C1290 1.386 . S
C1291 C1295 1.393 . S
C1292 H1281 0.950 . S
C1292 C1290 1.391 . S
C1292 C1293 1.400 . S
C1293 C1287 1.491 . S
C1293 C1292 1.400 . S
C1293 C1294 1.398 . S
C1294 H1282 0.950 . S
C1294 C1293 1.398 . S
C1294 C1295 1.391 . S
C1295 H1283 0.950 . S
C1295 C1291 1.393 . S
C1295 C1294 1.391 . S
H1296 C1304 0.950 . S
H1297 C1309 0.950 . S
H1298 C1306 0.950 . S
H1299 C1308 0.950 . S
H1300 C1310 0.950 . S
H1301 C1312 0.950 . S
H1302 C1314 0.950 . S
H1303 C1315 0.950 . S
C1304 H1296 0.950 . S
C1304 C1305 1.386 1_565 S
C1304 C1306 1.391 . S
C1305 C1304 1.386 1_545 S
C1305 C1309 1.393 . S
C1306 H1298 0.950 . S
C1306 C1304 1.391 . S
C1306 C1307 1.400 1_565 S
C1307 C1306 1.400 1_545 S
C1307 C1308 1.398 . S
C1307 C1313 1.491 . S
C1308 H1299 0.950 . S
C1308 C1307 1.398 . S
C1308 C1309 1.391 . S
C1309 H1297 0.950 . S
C1309 C1305 1.393 . S
C1309 C1308 1.391 . S
C1310 H1300 0.950 . S
C1310 C1311 1.386 . S
C1310 C1312 1.391 . S
C1311 C1310 1.386 . S
C1311 C1315 1.393 1_545 S
C1312 H1301 0.950 . S
C1312 C1310 1.391 . S
C1312 C1313 1.400 . S
C1313 C1307 1.491 . S
C1313 C1312 1.400 . S
C1313 C1314 1.398 1_545 S
C1314 H1302 0.950 . S
C1314 C1313 1.398 1_565 S
C1314 C1315 1.391 . S
C1315 H1303 0.950 . S
C1315 C1311 1.393 1_565 S
C1315 C1314 1.391 . S
H1316 C1324 0.950 . S
H1317 C1329 0.950 . S
H1318 C1326 0.950 . S
H1319 C1328 0.950 . S
H1320 C1330 0.950 . S
H1321 C1332 0.950 . S
H1322 C1334 0.950 . S
H1323 C1335 0.950 . S
C1324 H1316 0.950 . S
C1324 C1325 1.386 . S
C1324 C1326 1.391 . S
C1325 C1324 1.386 . S
C1325 C1329 1.393 . S
C1326 H1318 0.950 . S
C1326 C1324 1.391 . S
C1326 C1327 1.400 . S
C1327 C1326 1.400 . S
C1327 C1328 1.398 . S
C1327 C1333 1.491 . S
C1328 H1319 0.950 . S
C1328 C1327 1.398 . S
C1328 C1329 1.391 . S
C1329 H1317 0.950 . S
C1329 C1325 1.393 . S
C1329 C1328 1.391 . S
C1330 H1320 0.950 . S
C1330 C1331 1.386 . S
C1330 C1332 1.391 . S
C1331 C1330 1.386 . S
C1331 C1335 1.393 . S
C1332 H1321 0.950 . S
C1332 C1330 1.391 . S
C1332 C1333 1.400 . S
C1333 C1327 1.491 . S
C1333 C1332 1.400 . S
C1333 C1334 1.398 . S
C1334 H1322 0.950 . S
C1334 C1333 1.398 . S
C1334 C1335 1.391 . S
C1335 H1323 0.950 . S
C1335 C1331 1.393 . S
C1335 C1334 1.391 . S
H1336 C1344 0.950 . S
H1337 C1349 0.950 . S
H1338 C1346 0.950 . S
H1339 C1348 0.950 . S
H1340 C1350 0.950 . S
H1341 C1352 0.950 . S
H1342 C1354 0.950 . S
H1343 C1355 0.950 . S
C1344 H1336 0.950 . S
C1344 C1345 1.386 . S
C1344 C1346 1.391 . S
C1345 C1344 1.386 . S
C1345 C1349 1.393 . S
C1346 H1338 0.950 . S
C1346 C1344 1.391 . S
C1346 C1347 1.400 . S
C1347 C1346 1.400 . S
C1347 C1348 1.398 . S
C1347 C1353 1.491 . S
C1348 H1339 0.950 . S
C1348 C1347 1.398 . S
C1348 C1349 1.391 . S
C1349 H1337 0.950 . S
C1349 C1345 1.393 . S
C1349 C1348 1.391 . S
C1350 H1340 0.950 . S
C1350 C1351 1.386 . S
C1350 C1352 1.391 . S
C1351 C1350 1.386 . S
C1351 C1355 1.393 . S
C1352 H1341 0.950 . S
C1352 C1350 1.391 . S
C1352 C1353 1.400 . S
C1353 C1347 1.491 . S
C1353 C1352 1.400 . S
C1353 C1354 1.398 . S
C1354 H1342 0.950 . S
C1354 C1353 1.398 . S
C1354 C1355 1.391 . S
C1355 H1343 0.950 . S
C1355 C1351 1.393 . S
C1355 C1354 1.391 . S
H1356 C1364 0.950 . S
H1357 C1369 0.950 . S
H1358 C1366 0.950 . S
H1359 C1368 0.950 . S
H1360 C1370 0.950 . S
H1361 C1372 0.950 . S
H1362 C1374 0.950 . S
H1363 C1375 0.950 . S
C1364 H1356 0.950 . S
C1364 C1365 1.386 . S
C1364 C1366 1.391 . S
C1365 C1364 1.386 . S
C1365 C1369 1.393 . S
C1366 H1358 0.950 . S
C1366 C1364 1.391 . S
C1366 C1367 1.400 . S
C1367 C1366 1.400 . S
C1367 C1368 1.398 . S
C1367 C1373 1.491 . S
C1368 H1359 0.950 . S
C1368 C1367 1.398 . S
C1368 C1369 1.391 . S
C1369 H1357 0.950 . S
C1369 C1365 1.393 . S
C1369 C1368 1.391 . S
C1370 H1360 0.950 . S
C1370 C1371 1.386 . S
C1370 C1372 1.391 . S
C1371 C1370 1.386 . S
C1371 C1375 1.393 . S
C1372 H1361 0.950 . S
C1372 C1370 1.391 . S
C1372 C1373 1.400 . S
C1373 C1367 1.491 . S
C1373 C1372 1.400 . S
C1373 C1374 1.398 . S
C1374 H1362 0.950 . S
C1374 C1373 1.398 . S
C1374 C1375 1.391 . S
C1375 H1363 0.950 . S
C1375 C1371 1.393 . S
C1375 C1374 1.391 . S
H1376 C1384 0.950 . S
H1377 C1389 0.950 . S
H1378 C1386 0.950 . S
H1379 C1388 0.950 . S
H1380 C1390 0.950 . S
H1381 C1392 0.950 . S
H1382 C1394 0.950 . S
H1383 C1395 0.950 . S
C1384 H1376 0.950 . S
C1384 C1385 1.386 . S
C1384 C1386 1.391 . S
C1385 C1384 1.386 . S
C1385 C1389 1.393 1_565 S
C1386 H1378 0.950 . S
C1386 C1384 1.391 . S
C1386 C1387 1.400 1_565 S
C1387 C1386 1.400 1_545 S
C1387 C1388 1.398 . S
C1387 C1393 1.491 . S
C1388 H1379 0.950 . S
C1388 C1387 1.398 . S
C1388 C1389 1.391 . S
C1389 H1377 0.950 . S
C1389 C1385 1.393 1_545 S
C1389 C1388 1.391 . S
C1390 H1380 0.950 . S
C1390 C1391 1.386 . S
C1390 C1392 1.391 . S
C1391 C1390 1.386 . S
C1391 C1395 1.393 1_545 S
C1392 H1381 0.950 . S
C1392 C1390 1.391 . S
C1392 C1393 1.400 . S
C1393 C1387 1.491 . S
C1393 C1392 1.400 . S
C1393 C1394 1.398 1_545 S
C1394 H1382 0.950 . S
C1394 C1393 1.398 1_565 S
C1394 C1395 1.391 . S
C1395 H1383 0.950 . S
C1395 C1391 1.393 1_565 S
C1395 C1394 1.391 . S
H1396 C1404 0.950 . S
H1397 C1409 0.950 . S
H1398 C1406 0.950 . S
H1399 C1408 0.950 . S
H1400 C1410 0.950 . S
H1401 C1412 0.950 . S
H1402 C1414 0.950 . S
H1403 C1415 0.950 . S
C1404 H1396 0.950 . S
C1404 C1405 1.386 . S
C1404 C1406 1.391 . S
C1405 C1404 1.386 . S
C1405 C1409 1.393 . S
C1406 H1398 0.950 . S
C1406 C1404 1.391 . S
C1406 C1407 1.400 . S
C1407 C1406 1.400 . S
C1407 C1408 1.398 . S
C1407 C1413 1.491 . S
C1408 H1399 0.950 . S
C1408 C1407 1.398 . S
C1408 C1409 1.391 . S
C1409 H1397 0.950 . S
C1409 C1405 1.393 . S
C1409 C1408 1.391 . S
C1410 H1400 0.950 . S
C1410 C1411 1.386 . S
C1410 C1412 1.391 . S
C1411 C1410 1.386 . S
C1411 C1415 1.393 . S
C1412 H1401 0.950 . S
C1412 C1410 1.391 . S
C1412 C1413 1.400 . S
C1413 C1407 1.491 . S
C1413 C1412 1.400 . S
C1413 C1414 1.398 . S
C1414 H1402 0.950 . S
C1414 C1413 1.398 . S
C1414 C1415 1.391 . S
C1415 H1403 0.950 . S
C1415 C1411 1.393 . S
C1415 C1414 1.391 . S
H1416 C1424 0.950 . S
H1417 C1429 0.950 . S
H1418 C1426 0.950 . S
H1419 C1428 0.950 . S
H1420 C1430 0.950 . S
H1421 C1432 0.950 . S
H1422 C1434 0.950 1_565 S
H1423 C1435 0.950 1_565 S
C1424 H1416 0.950 . S
C1424 C1425 1.386 . S
C1424 C1426 1.391 . S
C1425 C1424 1.386 . S
C1425 C1429 1.393 . S
C1426 H1418 0.950 . S
C1426 C1424 1.391 . S
C1426 C1427 1.400 . S
C1427 C1426 1.400 . S
C1427 C1428 1.398 . S
C1427 C1433 1.491 . S
C1428 H1419 0.950 . S
C1428 C1427 1.398 . S
C1428 C1429 1.391 . S
C1429 H1417 0.950 . S
C1429 C1425 1.393 . S
C1429 C1428 1.391 . S
C1430 H1420 0.950 . S
C1430 C1431 1.386 . S
C1430 C1432 1.391 . S
C1431 C1430 1.386 . S
C1431 C1435 1.393 . S
C1432 H1421 0.950 . S
C1432 C1430 1.391 . S
C1432 C1433 1.400 . S
C1433 C1427 1.491 . S
C1433 C1432 1.400 . S
C1433 C1434 1.398 . S
C1434 H1422 0.950 1_545 S
C1434 C1433 1.398 . S
C1434 C1435 1.391 . S
C1435 H1423 0.950 1_545 S
C1435 C1431 1.393 . S
C1435 C1434 1.391 . S
H1436 C1444 0.950 . S
H1437 C1449 0.950 . S
H1438 C1446 0.950 . S
H1439 C1448 0.950 . S
H1440 C1450 0.950 . S
H1441 C1452 0.950 . S
H1442 C1454 0.950 . S
H1443 C1455 0.950 . S
C1444 H1436 0.950 . S
C1444 C1445 1.386 . S
C1444 C1446 1.391 . S
C1445 C1444 1.386 . S
C1445 C1449 1.393 . S
C1446 H1438 0.950 . S
C1446 C1444 1.391 . S
C1446 C1447 1.400 . S
C1447 C1446 1.400 . S
C1447 C1448 1.398 . S
C1447 C1453 1.491 . S
C1448 H1439 0.950 . S
C1448 C1447 1.398 . S
C1448 C1449 1.391 . S
C1449 H1437 0.950 . S
C1449 C1445 1.393 . S
C1449 C1448 1.391 . S
C1450 H1440 0.950 . S
C1450 C1451 1.386 . S
C1450 C1452 1.391 . S
C1451 C1450 1.386 . S
C1451 C1455 1.393 . S
C1452 H1441 0.950 . S
C1452 C1450 1.391 . S
C1452 C1453 1.400 . S
C1453 C1447 1.491 . S
C1453 C1452 1.400 . S
C1453 C1454 1.398 . S
C1454 H1442 0.950 . S
C1454 C1453 1.398 . S
C1454 C1455 1.391 . S
C1455 H1443 0.950 . S
C1455 C1451 1.393 . S
C1455 C1454 1.391 . S
H1456 C1464 0.950 . S
H1457 C1469 0.950 . S
H1458 C1466 0.950 . S
H1459 C1468 0.950 . S
H1460 C1470 0.950 . S
H1461 C1472 0.950 . S
H1462 C1474 0.950 . S
H1463 C1475 0.950 . S
C1464 H1456 0.950 . S
C1464 C1465 1.386 . S
C1464 C1466 1.391 . S
C1465 C1464 1.386 . S
C1465 C1469 1.393 1_554 S
C1466 H1458 0.950 . S
C1466 C1464 1.391 . S
C1466 C1467 1.403 1_554 S
C1467 C1466 1.403 1_556 S
C1467 C1468 1.396 . S
C1467 C1473 1.488 . S
C1468 H1459 0.950 . S
C1468 C1467 1.396 . S
C1468 C1469 1.391 . S
C1469 H1457 0.950 . S
C1469 C1465 1.393 1_556 S
C1469 C1468 1.391 . S
C1470 H1460 0.950 . S
C1470 C1471 1.386 . S
C1470 C1472 1.391 . S
C1471 C1470 1.386 . S
C1471 C1475 1.393 1_556 S
C1472 H1461 0.950 . S
C1472 C1470 1.391 . S
C1472 C1473 1.442 . S
C1473 C1467 1.488 . S
C1473 C1472 1.442 . S
C1473 C1474 1.360 1_556 S
C1474 H1462 0.950 . S
C1474 C1473 1.360 1_554 S
C1474 C1475 1.391 . S
C1475 H1463 0.950 . S
C1475 C1471 1.393 1_554 S
C1475 C1474 1.391 . S
H1476 C1484 0.950 . S
H1477 C1489 0.950 . S
H1478 C1486 0.950 . S
H1479 C1488 0.950 . S
H1480 C1490 0.950 . S
H1481 C1492 0.950 . S
H1482 C1494 0.950 . S
H1483 C1495 0.950 . S
C1484 H1476 0.950 . S
C1484 C1485 1.386 . S
C1484 C1486 1.391 . S
C1485 C1484 1.386 . S
C1485 C1489 1.393 . S
C1486 H1478 0.950 . S
C1486 C1484 1.391 . S
C1486 C1487 1.400 . S
C1487 C1486 1.400 . S
C1487 C1488 1.398 . S
C1487 C1493 1.491 . S
C1488 H1479 0.950 . S
C1488 C1487 1.398 . S
C1488 C1489 1.391 . S
C1489 H1477 0.950 . S
C1489 C1485 1.393 . S
C1489 C1488 1.391 . S
C1490 H1480 0.950 . S
C1490 C1491 1.386 . S
C1490 C1492 1.391 . S
C1491 C1490 1.386 . S
C1491 C1495 1.393 . S
C1492 H1481 0.950 . S
C1492 C1490 1.391 . S
C1492 C1493 1.400 . S
C1493 C1487 1.491 . S
C1493 C1492 1.400 . S
C1493 C1494 1.398 . S
C1494 H1482 0.950 . S
C1494 C1493 1.398 . S
C1494 C1495 1.391 . S
C1495 H1483 0.950 . S
C1495 C1491 1.393 . S
C1495 C1494 1.391 . S
H1496 C1504 0.950 . S
H1497 C1509 0.950 . S
H1498 C1506 0.950 . S
H1499 C1508 0.950 . S
H1500 C1510 0.950 . S
H1501 C1512 0.950 . S
H1502 C1514 0.950 . S
H1503 C1515 0.950 . S
C1504 H1496 0.950 . S
C1504 C1505 1.386 . S
C1504 C1506 1.391 . S
C1505 C1504 1.386 . S
C1505 C1509 1.393 . S
C1506 H1498 0.950 . S
C1506 C1504 1.391 . S
C1506 C1507 1.400 . S
C1507 C1506 1.400 . S
C1507 C1508 1.398 . S
C1507 C1513 1.491 . S
C1508 H1499 0.950 . S
C1508 C1507 1.398 . S
C1508 C1509 1.391 . S
C1509 H1497 0.950 . S
C1509 C1505 1.393 . S
C1509 C1508 1.391 . S
C1510 H1500 0.950 . S
C1510 C1511 1.386 . S
C1510 C1512 1.391 . S
C1511 C1510 1.386 . S
C1511 C1515 1.393 . S
C1512 H1501 0.950 . S
C1512 C1510 1.391 . S
C1512 C1513 1.400 . S
C1513 C1507 1.491 . S
C1513 C1512 1.400 . S
C1513 C1514 1.398 . S
C1514 H1502 0.950 . S
C1514 C1513 1.398 . S
C1514 C1515 1.391 . S
C1515 H1503 0.950 . S
C1515 C1511 1.393 . S
C1515 C1514 1.391 . S
H1516 C1524 0.950 . S
H1517 C1529 0.950 . S
H1518 C1526 0.950 . S
H1519 C1528 0.950 . S
H1520 C1530 0.950 . S
H1521 C1532 0.950 . S
H1522 C1534 0.950 . S
H1523 C1535 0.950 . S
C1524 H1516 0.950 . S
C1524 C1525 1.386 . S
C1524 C1526 1.391 . S
C1525 C1524 1.386 . S
C1525 C1529 1.393 . S
C1526 H1518 0.950 . S
C1526 C1524 1.391 . S
C1526 C1527 1.400 . S
C1527 C1526 1.400 . S
C1527 C1528 1.398 . S
C1527 C1533 1.491 . S
C1528 H1519 0.950 . S
C1528 C1527 1.398 . S
C1528 C1529 1.391 . S
C1529 H1517 0.950 . S
C1529 C1525 1.393 . S
C1529 C1528 1.391 . S
C1530 H1520 0.950 . S
C1530 C1531 1.386 . S
C1530 C1532 1.391 . S
C1531 C1530 1.386 . S
C1531 C1535 1.393 . S
C1532 H1521 0.950 . S
C1532 C1530 1.391 . S
C1532 C1533 1.400 . S
C1533 C1527 1.491 . S
C1533 C1532 1.400 . S
C1533 C1534 1.398 . S
C1534 H1522 0.950 . S
C1534 C1533 1.398 . S
C1534 C1535 1.391 . S
C1535 H1523 0.950 . S
C1535 C1531 1.393 . S
C1535 C1534 1.391 . S
H1536 C1544 0.950 . S
H1537 C1549 0.950 . S
H1538 C1546 0.950 . S
H1539 C1548 0.950 . S
H1540 C1550 0.950 . S
H1541 C1552 0.950 . S
H1542 C1554 0.950 . S
H1543 C1555 0.950 . S
C1544 H1536 0.950 . S
C1544 C1545 1.386 . S
C1544 C1546 1.391 . S
C1545 C1544 1.386 . S
C1545 C1549 1.393 . S
C1546 H1538 0.950 . S
C1546 C1544 1.391 . S
C1546 C1547 1.400 . S
C1547 C1546 1.400 . S
C1547 C1548 1.398 . S
C1547 C1553 1.491 . S
C1548 H1539 0.950 . S
C1548 C1547 1.398 . S
C1548 C1549 1.391 . S
C1549 H1537 0.950 . S
C1549 C1545 1.393 . S
C1549 C1548 1.391 . S
C1550 H1540 0.950 . S
C1550 C1551 1.386 . S
C1550 C1552 1.391 . S
C1551 C1550 1.386 . S
C1551 C1555 1.393 . S
C1552 H1541 0.950 . S
C1552 C1550 1.391 . S
C1552 C1553 1.400 . S
C1553 C1547 1.491 . S
C1553 C1552 1.400 . S
C1553 C1554 1.398 . S
C1554 H1542 0.950 . S
C1554 C1553 1.398 . S
C1554 C1555 1.391 . S
C1555 H1543 0.950 . S
C1555 C1551 1.393 . S
C1555 C1554 1.391 . S
H1556 C1564 0.950 . S
H1557 C1569 0.950 . S
H1558 C1566 0.950 . S
H1559 C1568 0.950 . S
H1560 C1570 0.950 . S
H1561 C1572 0.950 . S
H1562 C1574 0.950 . S
H1563 C1575 0.950 . S
C1564 H1556 0.950 . S
C1564 C1565 1.386 . S
C1564 C1566 1.391 . S
C1565 C1564 1.386 . S
C1565 C1569 1.393 . S
C1566 H1558 0.950 . S
C1566 C1564 1.391 . S
C1566 C1567 1.400 . S
C1567 C1566 1.400 . S
C1567 C1568 1.398 . S
C1567 C1573 1.491 . S
C1568 H1559 0.950 . S
C1568 C1567 1.398 . S
C1568 C1569 1.391 . S
C1569 H1557 0.950 . S
C1569 C1565 1.393 . S
C1569 C1568 1.391 . S
C1570 H1560 0.950 . S
C1570 C1571 1.386 . S
C1570 C1572 1.391 . S
C1571 C1570 1.386 . S
C1571 C1575 1.393 . S
C1572 H1561 0.950 . S
C1572 C1570 1.391 . S
C1572 C1573 1.400 . S
C1573 C1567 1.491 . S
C1573 C1572 1.400 . S
C1573 C1574 1.398 . S
C1574 H1562 0.950 . S
C1574 C1573 1.398 . S
C1574 C1575 1.391 . S
C1575 H1563 0.950 . S
C1575 C1571 1.393 . S
C1575 C1574 1.391 . S
H1576 C1584 0.950 . S
H1577 C1589 0.950 . S
H1578 C1586 0.950 . S
H1579 C1588 0.950 . S
H1580 C1590 0.950 . S
H1581 C1592 0.950 . S
H1582 C1594 0.950 . S
H1583 C1595 0.950 . S
C1584 H1576 0.950 . S
C1584 C1585 1.386 . S
C1584 C1586 1.391 . S
C1585 C1584 1.386 . S
C1585 C1589 1.393 . S
C1586 H1578 0.950 . S
C1586 C1584 1.391 . S
C1586 C1587 1.400 . S
C1587 C1586 1.400 . S
C1587 C1588 1.398 . S
C1587 C1593 1.491 . S
C1588 H1579 0.950 . S
C1588 C1587 1.398 . S
C1588 C1589 1.391 . S
C1589 H1577 0.950 . S
C1589 C1585 1.393 . S
C1589 C1588 1.391 . S
C1590 H1580 0.950 . S
C1590 C1591 1.386 . S
C1590 C1592 1.391 . S
C1591 C1590 1.386 . S
C1591 C1595 1.393 . S
C1592 H1581 0.950 . S
C1592 C1590 1.391 . S
C1592 C1593 1.400 . S
C1593 C1587 1.491 . S
C1593 C1592 1.400 . S
C1593 C1594 1.398 . S
C1594 H1582 0.950 . S
C1594 C1593 1.398 . S
C1594 C1595 1.391 . S
C1595 H1583 0.950 . S
C1595 C1591 1.393 . S
C1595 C1594 1.391 . S
H1596 C1604 0.950 . S
H1597 C1609 0.950 . S
H1598 C1606 0.950 . S
H1599 C1608 0.950 . S
H1600 C1610 0.950 . S
H1601 C1612 0.950 . S
H1602 C1614 0.950 . S
H1603 C1615 0.950 . S
C1604 H1596 0.950 . S
C1604 C1605 1.386 . S
C1604 C1606 1.391 . S
C1605 C1604 1.386 . S
C1605 C1609 1.393 . S
C1606 H1598 0.950 . S
C1606 C1604 1.391 . S
C1606 C1607 1.400 . S
C1607 C1606 1.400 . S
C1607 C1608 1.398 . S
C1607 C1613 1.491 . S
C1608 H1599 0.950 . S
C1608 C1607 1.398 . S
C1608 C1609 1.391 . S
C1609 H1597 0.950 . S
C1609 C1605 1.393 . S
C1609 C1608 1.391 . S
C1610 H1600 0.950 . S
C1610 C1611 1.386 . S
C1610 C1612 1.391 . S
C1611 C1610 1.386 . S
C1611 C1615 1.393 . S
C1612 H1601 0.950 . S
C1612 C1610 1.391 . S
C1612 C1613 1.400 . S
C1613 C1607 1.491 . S
C1613 C1612 1.400 . S
C1613 C1614 1.398 . S
C1614 H1602 0.950 . S
C1614 C1613 1.398 . S
C1614 C1615 1.391 . S
C1615 H1603 0.950 . S
C1615 C1611 1.393 . S
C1615 C1614 1.391 . S
H1616 C1624 0.950 . S
H1617 C1629 0.950 . S
H1618 C1626 0.950 . S
H1619 C1628 0.950 . S
H1620 C1630 0.950 . S
H1621 C1632 0.950 . S
H1622 C1634 0.950 . S
H1623 C1635 0.950 . S
C1624 H1616 0.950 . S
C1624 C1625 1.386 . S
C1624 C1626 1.391 . S
C1625 C1624 1.386 . S
C1625 C1629 1.393 . S
C1626 H1618 0.950 . S
C1626 C1624 1.391 . S
C1626 C1627 1.400 . S
C1627 C1626 1.400 . S
C1627 C1628 1.398 . S
C1627 C1633 1.491 . S
C1628 H1619 0.950 . S
C1628 C1627 1.398 . S
C1628 C1629 1.391 . S
C1629 H1617 0.950 . S
C1629 C1625 1.393 . S
C1629 C1628 1.391 . S
C1630 H1620 0.950 . S
C1630 C1631 1.386 . S
C1630 C1632 1.391 . S
C1631 C1630 1.386 . S
C1631 C1635 1.393 . S
C1632 H1621 0.950 . S
C1632 C1630 1.391 . S
C1632 C1633 1.400 . S
C1633 C1627 1.491 . S
C1633 C1632 1.400 . S
C1633 C1634 1.398 . S
C1634 H1622 0.950 . S
C1634 C1633 1.398 . S
C1634 C1635 1.391 . S
C1635 H1623 0.950 . S
C1635 C1631 1.393 . S
C1635 C1634 1.391 . S
H1636 C1644 0.950 . S
H1637 C1649 0.950 . S
H1638 C1646 0.950 . S
H1639 C1648 0.950 . S
H1640 C1650 0.950 . S
H1641 C1652 0.950 . S
H1642 C1654 0.950 . S
H1643 C1655 0.950 . S
C1644 H1636 0.950 . S
C1644 C1645 1.386 . S
C1644 C1646 1.391 . S
C1645 C1644 1.386 . S
C1645 C1649 1.393 . S
C1646 H1638 0.950 . S
C1646 C1644 1.391 . S
C1646 C1647 1.400 . S
C1647 C1646 1.400 . S
C1647 C1648 1.398 . S
C1647 C1653 1.491 . S
C1648 H1639 0.950 . S
C1648 C1647 1.398 . S
C1648 C1649 1.391 . S
C1649 H1637 0.950 . S
C1649 C1645 1.393 . S
C1649 C1648 1.391 . S
C1650 H1640 0.950 . S
C1650 C1651 1.386 . S
C1650 C1652 1.391 . S
C1651 C1650 1.386 . S
C1651 C1655 1.393 . S
C1652 H1641 0.950 . S
C1652 C1650 1.391 . S
C1652 C1653 1.400 . S
C1653 C1647 1.491 . S
C1653 C1652 1.400 . S
C1653 C1654 1.398 . S
C1654 H1642 0.950 . S
C1654 C1653 1.398 . S
C1654 C1655 1.391 . S
C1655 H1643 0.950 . S
C1655 C1651 1.393 . S
C1655 C1654 1.391 . S
H1656 C1664 0.950 . S
H1657 C1669 0.950 . S
H1658 C1666 0.950 . S
H1659 C1668 0.950 . S
H1660 C1670 0.950 . S
H1661 C1672 0.950 . S
H1662 C1674 0.950 . S
H1663 C1675 0.950 . S
C1664 H1656 0.950 . S
C1664 C1665 1.386 . S
C1664 C1666 1.391 . S
C1665 C1664 1.386 . S
C1665 C1669 1.393 1_455 S
C1666 H1658 0.950 . S
C1666 C1664 1.391 . S
C1666 C1667 1.400 . S
C1667 C1666 1.400 . S
C1667 C1668 1.398 1_455 S
C1667 C1673 1.491 . S
C1668 H1659 0.950 . S
C1668 C1667 1.398 1_655 S
C1668 C1669 1.391 . S
C1669 H1657 0.950 . S
C1669 C1665 1.393 1_655 S
C1669 C1668 1.391 . S
C1670 H1660 0.950 . S
C1670 C1671 1.386 1_655 S
C1670 C1672 1.391 . S
C1671 C1670 1.386 1_455 S
C1671 C1675 1.393 . S
C1672 H1661 0.950 . S
C1672 C1670 1.391 . S
C1672 C1673 1.400 1_655 S
C1673 C1667 1.491 . S
C1673 C1672 1.400 1_455 S
C1673 C1674 1.398 . S
C1674 H1662 0.950 . S
C1674 C1673 1.398 . S
C1674 C1675 1.391 . S
C1675 H1663 0.950 . S
C1675 C1671 1.393 . S
C1675 C1674 1.391 . S
H1676 C1684 0.950 . S
H1677 C1689 0.950 . S
H1678 C1686 0.950 . S
H1679 C1688 0.950 . S
H1680 C1690 0.950 . S
H1681 C1692 0.950 . S
H1682 C1694 0.950 . S
H1683 C1695 0.950 . S
C1684 H1676 0.950 . S
C1684 C1685 1.386 . S
C1684 C1686 1.391 . S
C1685 C1684 1.386 . S
C1685 C1689 1.393 . S
C1686 H1678 0.950 . S
C1686 C1684 1.391 . S
C1686 C1687 1.400 . S
C1687 C1686 1.400 . S
C1687 C1688 1.398 . S
C1687 C1693 1.491 . S
C1688 H1679 0.950 . S
C1688 C1687 1.398 . S
C1688 C1689 1.391 . S
C1689 H1677 0.950 . S
C1689 C1685 1.393 . S
C1689 C1688 1.391 . S
C1690 H1680 0.950 . S
C1690 C1691 1.386 . S
C1690 C1692 1.391 . S
C1691 C1690 1.386 . S
C1691 C1695 1.393 . S
C1692 H1681 0.950 . S
C1692 C1690 1.391 . S
C1692 C1693 1.400 . S
C1693 C1687 1.491 . S
C1693 C1692 1.400 . S
C1693 C1694 1.398 . S
C1694 H1682 0.950 . S
C1694 C1693 1.398 . S
C1694 C1695 1.391 . S
C1695 H1683 0.950 . S
C1695 C1691 1.393 . S
C1695 C1694 1.391 . S
H1696 C1704 0.950 . S
H1697 C1709 0.950 . S
H1698 C1706 0.950 . S
H1699 C1708 0.950 . S
H1700 C1710 0.950 . S
H1701 C1712 0.950 . S
H1702 C1714 0.950 . S
H1703 C1715 0.950 . S
C1704 H1696 0.950 . S
C1704 C1705 1.386 . S
C1704 C1706 1.391 . S
C1705 C1704 1.386 . S
C1705 C1709 1.393 . S
C1706 H1698 0.950 . S
C1706 C1704 1.391 . S
C1706 C1707 1.400 . S
C1707 C1706 1.400 . S
C1707 C1708 1.398 . S
C1707 C1713 1.491 . S
C1708 H1699 0.950 . S
C1708 C1707 1.398 . S
C1708 C1709 1.391 . S
C1709 H1697 0.950 . S
C1709 C1705 1.393 . S
C1709 C1708 1.391 . S
C1710 H1700 0.950 . S
C1710 C1711 1.386 . S
C1710 C1712 1.391 . S
C1711 C1710 1.386 . S
C1711 C1715 1.393 . S
C1712 H1701 0.950 . S
C1712 C1710 1.391 . S
C1712 C1713 1.400 . S
C1713 C1707 1.491 . S
C1713 C1712 1.400 . S
C1713 C1714 1.398 . S
C1714 H1702 0.950 . S
C1714 C1713 1.398 . S
C1714 C1715 1.391 . S
C1715 H1703 0.950 . S
C1715 C1711 1.393 . S
C1715 C1714 1.391 . S
H1716 C1724 0.950 . S
H1717 C1729 0.950 . S
H1718 C1726 0.950 . S
H1719 C1728 0.950 . S
H1720 C1730 0.950 . S
H1721 C1732 0.950 . S
H1722 C1734 0.950 . S
H1723 C1735 0.950 . S
C1724 H1716 0.950 . S
C1724 C1725 1.386 . S
C1724 C1726 1.391 . S
C1725 C1724 1.386 . S
C1725 C1729 1.393 . S
C1726 H1718 0.950 . S
C1726 C1724 1.391 . S
C1726 C1727 1.400 . S
C1727 C1726 1.400 . S
C1727 C1728 1.398 . S
C1727 C1733 1.491 . S
C1728 H1719 0.950 . S
C1728 C1727 1.398 . S
C1728 C1729 1.391 . S
C1729 H1717 0.950 . S
C1729 C1725 1.393 . S
C1729 C1728 1.391 . S
C1730 H1720 0.950 . S
C1730 C1731 1.386 . S
C1730 C1732 1.391 . S
C1731 C1730 1.386 . S
C1731 C1735 1.393 . S
C1732 H1721 0.950 . S
C1732 C1730 1.391 . S
C1732 C1733 1.400 . S
C1733 C1727 1.491 . S
C1733 C1732 1.400 . S
C1733 C1734 1.398 . S
C1734 H1722 0.950 . S
C1734 C1733 1.398 . S
C1734 C1735 1.391 . S
C1735 H1723 0.950 . S
C1735 C1731 1.393 . S
C1735 C1734 1.391 . S
H1736 C1744 0.950 . S
H1737 C1749 0.950 . S
H1738 C1746 0.950 . S
H1739 C1748 0.950 . S
H1740 C1750 0.950 . S
H1741 C1752 0.950 . S
H1742 C1754 0.950 . S
H1743 C1755 0.950 . S
C1744 H1736 0.950 . S
C1744 C1745 1.386 1_455 S
C1744 C1746 1.391 . S
C1745 C1744 1.386 1_655 S
C1745 C1749 1.393 . S
C1746 H1738 0.950 . S
C1746 C1744 1.391 . S
C1746 C1747 1.400 1_455 S
C1747 C1746 1.400 1_655 S
C1747 C1748 1.398 . S
C1747 C1753 1.491 . S
C1748 H1739 0.950 . S
C1748 C1747 1.398 . S
C1748 C1749 1.391 . S
C1749 H1737 0.950 . S
C1749 C1745 1.393 . S
C1749 C1748 1.391 . S
C1750 H1740 0.950 . S
C1750 C1751 1.394 . S
C1750 C1752 1.391 . S
C1751 C1750 1.394 . S
C1751 C1755 1.387 1_655 S
C1752 H1741 0.950 . S
C1752 C1750 1.391 . S
C1752 C1753 1.400 . S
C1753 C1747 1.491 . S
C1753 C1752 1.400 . S
C1753 C1754 1.398 1_655 S
C1754 H1742 0.950 . S
C1754 C1753 1.398 1_455 S
C1754 C1755 1.391 . S
C1755 H1743 0.950 . S
C1755 C1751 1.387 1_455 S
C1755 C1754 1.391 . S
H1756 C1764 0.950 . S
H1757 C1769 0.950 . S
H1758 C1766 0.950 . S
H1759 C1768 0.950 . S
H1760 C1770 0.950 . S
H1761 C1772 0.950 . S
H1762 C1774 0.950 . S
H1763 C1775 0.950 . S
C1764 H1756 0.950 . S
C1764 C1765 1.386 . S
C1764 C1766 1.391 . S
C1765 C1764 1.386 . S
C1765 C1769 1.393 . S
C1766 H1758 0.950 . S
C1766 C1764 1.391 . S
C1766 C1767 1.400 . S
C1767 C1766 1.400 . S
C1767 C1768 1.398 . S
C1767 C1773 1.491 . S
C1768 H1759 0.950 . S
C1768 C1767 1.398 . S
C1768 C1769 1.391 . S
C1769 H1757 0.950 . S
C1769 C1765 1.393 . S
C1769 C1768 1.391 . S
C1770 H1760 0.950 . S
C1770 C1771 1.386 . S
C1770 C1772 1.391 . S
C1771 C1770 1.386 . S
C1771 C1775 1.393 . S
C1772 H1761 0.950 . S
C1772 C1770 1.391 . S
C1772 C1773 1.400 . S
C1773 C1767 1.491 . S
C1773 C1772 1.400 . S
C1773 C1774 1.398 . S
C1774 H1762 0.950 . S
C1774 C1773 1.398 . S
C1774 C1775 1.391 . S
C1775 H1763 0.950 . S
C1775 C1771 1.393 . S
C1775 C1774 1.391 . S
H1776 C1784 0.950 . S
H1777 C1789 0.950 . S
H1778 C1786 0.950 . S
H1779 C1788 0.950 . S
H1780 C1790 0.950 . S
H1781 C1792 0.950 . S
H1782 C1794 0.950 . S
H1783 C1795 0.950 . S
C1784 H1776 0.950 . S
C1784 C1785 1.386 . S
C1784 C1786 1.391 . S
C1785 C1784 1.386 . S
C1785 C1789 1.393 . S
C1786 H1778 0.950 . S
C1786 C1784 1.391 . S
C1786 C1787 1.400 . S
C1787 C1786 1.400 . S
C1787 C1788 1.398 . S
C1787 C1793 1.491 . S
C1788 H1779 0.950 . S
C1788 C1787 1.398 . S
C1788 C1789 1.391 . S
C1789 H1777 0.950 . S
C1789 C1785 1.393 . S
C1789 C1788 1.391 . S
C1790 H1780 0.950 . S
C1790 C1791 1.386 . S
C1790 C1792 1.391 . S
C1791 C1790 1.386 . S
C1791 C1795 1.393 . S
C1792 H1781 0.950 . S
C1792 C1790 1.391 . S
C1792 C1793 1.400 . S
C1793 C1787 1.491 . S
C1793 C1792 1.400 . S
C1793 C1794 1.398 . S
C1794 H1782 0.950 . S
C1794 C1793 1.398 . S
C1794 C1795 1.391 . S
C1795 H1783 0.950 . S
C1795 C1791 1.393 . S
C1795 C1794 1.391 . S
H1796 C1804 0.950 . S
H1797 C1809 0.950 . S
H1798 C1806 0.950 . S
H1799 C1808 0.950 . S
H1800 C1810 0.950 . S
H1801 C1812 0.950 . S
H1802 C1814 0.950 . S
H1803 C1815 0.950 . S
C1804 H1796 0.950 . S
C1804 C1805 1.386 . S
C1804 C1806 1.391 . S
C1805 C1804 1.386 . S
C1805 C1809 1.393 . S
C1806 H1798 0.950 . S
C1806 C1804 1.391 . S
C1806 C1807 1.400 . S
C1807 C1806 1.400 . S
C1807 C1808 1.398 . S
C1807 C1813 1.491 . S
C1808 H1799 0.950 . S
C1808 C1807 1.398 . S
C1808 C1809 1.391 . S
C1809 H1797 0.950 . S
C1809 C1805 1.393 . S
C1809 C1808 1.391 . S
C1810 H1800 0.950 . S
C1810 C1811 1.386 . S
C1810 C1812 1.391 . S
C1811 C1810 1.386 . S
C1811 C1815 1.393 . S
C1812 H1801 0.950 . S
C1812 C1810 1.391 . S
C1812 C1813 1.400 . S
C1813 C1807 1.491 . S
C1813 C1812 1.400 . S
C1813 C1814 1.398 . S
C1814 H1802 0.950 . S
C1814 C1813 1.398 . S
C1814 C1815 1.391 . S
C1815 H1803 0.950 . S
C1815 C1811 1.393 . S
C1815 C1814 1.391 . S
H1816 C1824 0.950 . S
H1817 C1829 0.950 . S
H1818 C1826 0.950 . S
H1819 C1828 0.950 . S
H1820 C1830 0.950 . S
H1821 C1832 0.950 . S
H1822 C1834 0.950 . S
H1823 C1835 0.950 . S
C1824 H1816 0.950 . S
C1824 C1825 1.386 . S
C1824 C1826 1.391 . S
C1825 C1824 1.386 . S
C1825 C1829 1.393 . S
C1826 H1818 0.950 . S
C1826 C1824 1.391 . S
C1826 C1827 1.400 . S
C1827 C1826 1.400 . S
C1827 C1828 1.398 . S
C1827 C1833 1.491 . S
C1828 H1819 0.950 . S
C1828 C1827 1.398 . S
C1828 C1829 1.391 . S
C1829 H1817 0.950 . S
C1829 C1825 1.393 . S
C1829 C1828 1.391 . S
C1830 H1820 0.950 . S
C1830 C1831 1.386 . S
C1830 C1832 1.391 . S
C1831 C1830 1.386 . S
C1831 C1835 1.393 . S
C1832 H1821 0.950 . S
C1832 C1830 1.391 . S
C1832 C1833 1.400 . S
C1833 C1827 1.491 . S
C1833 C1832 1.400 . S
C1833 C1834 1.398 . S
C1834 H1822 0.950 . S
C1834 C1833 1.398 . S
C1834 C1835 1.391 . S
C1835 H1823 0.950 . S
C1835 C1831 1.393 . S
C1835 C1834 1.391 . S
H1836 C1844 0.950 . S
H1837 C1849 0.950 . S
H1838 C1846 0.950 . S
H1839 C1848 0.950 . S
H1840 C1850 0.950 . S
H1841 C1852 0.950 . S
H1842 C1854 0.950 . S
H1843 C1855 0.950 . S
C1844 H1836 0.950 . S
C1844 C1845 1.386 . S
C1844 C1846 1.391 . S
C1845 C1844 1.386 . S
C1845 C1849 1.393 . S
C1846 H1838 0.950 . S
C1846 C1844 1.391 . S
C1846 C1847 1.400 . S
C1847 C1846 1.400 . S
C1847 C1848 1.398 . S
C1847 C1853 1.491 . S
C1848 H1839 0.950 . S
C1848 C1847 1.398 . S
C1848 C1849 1.391 . S
C1849 H1837 0.950 . S
C1849 C1845 1.393 . S
C1849 C1848 1.391 . S
C1850 H1840 0.950 . S
C1850 C1851 1.386 . S
C1850 C1852 1.391 . S
C1851 C1850 1.386 . S
C1851 C1855 1.393 . S
C1852 H1841 0.950 . S
C1852 C1850 1.391 . S
C1852 C1853 1.400 . S
C1853 C1847 1.491 . S
C1853 C1852 1.400 . S
C1853 C1854 1.398 . S
C1854 H1842 0.950 . S
C1854 C1853 1.398 . S
C1854 C1855 1.391 . S
C1855 H1843 0.950 . S
C1855 C1851 1.393 . S
C1855 C1854 1.391 . S
H1856 C1864 0.950 . S
H1857 C1869 0.950 . S
H1858 C1866 0.950 . S
H1859 C1868 0.950 . S
H1860 C1870 0.950 . S
H1861 C1872 0.950 . S
H1862 C1874 0.950 . S
H1863 C1875 0.950 . S
C1864 H1856 0.950 . S
C1864 C1865 1.386 . S
C1864 C1866 1.391 . S
C1865 C1864 1.386 . S
C1865 C1869 1.393 . S
C1866 H1858 0.950 . S
C1866 C1864 1.391 . S
C1866 C1867 1.400 . S
C1867 C1866 1.400 . S
C1867 C1868 1.398 . S
C1867 C1873 1.491 . S
C1868 H1859 0.950 . S
C1868 C1867 1.398 . S
C1868 C1869 1.391 . S
C1869 H1857 0.950 . S
C1869 C1865 1.393 . S
C1869 C1868 1.391 . S
C1870 H1860 0.950 . S
C1870 C1871 1.386 . S
C1870 C1872 1.391 . S
C1871 C1870 1.386 . S
C1871 C1875 1.393 . S
C1872 H1861 0.950 . S
C1872 C1870 1.391 . S
C1872 C1873 1.400 . S
C1873 C1867 1.491 . S
C1873 C1872 1.400 . S
C1873 C1874 1.398 . S
C1874 H1862 0.950 . S
C1874 C1873 1.398 . S
C1874 C1875 1.391 . S
C1875 H1863 0.950 . S
C1875 C1871 1.393 . S
C1875 C1874 1.391 . S
H1876 C1884 0.950 . S
H1877 C1889 0.950 . S
H1878 C1886 0.950 . S
H1879 C1888 0.950 . S
H1880 C1890 0.950 . S
H1881 C1892 0.950 . S
H1882 C1894 0.950 . S
H1883 C1895 0.950 . S
C1884 H1876 0.950 . S
C1884 C1885 1.386 . S
C1884 C1886 1.391 . S
C1885 C1884 1.386 . S
C1885 C1889 1.393 . S
C1886 H1878 0.950 . S
C1886 C1884 1.391 . S
C1886 C1887 1.400 . S
C1887 C1886 1.400 . S
C1887 C1888 1.398 . S
C1887 C1893 1.491 . S
C1888 H1879 0.950 . S
C1888 C1887 1.398 . S
C1888 C1889 1.391 . S
C1889 H1877 0.950 . S
C1889 C1885 1.393 . S
C1889 C1888 1.391 . S
C1890 H1880 0.950 . S
C1890 C1891 1.386 . S
C1890 C1892 1.391 . S
C1891 C1890 1.386 . S
C1891 C1895 1.393 . S
C1892 H1881 0.950 . S
C1892 C1890 1.391 . S
C1892 C1893 1.400 . S
C1893 C1887 1.491 . S
C1893 C1892 1.400 . S
C1893 C1894 1.398 . S
C1894 H1882 0.950 . S
C1894 C1893 1.398 . S
C1894 C1895 1.391 . S
C1895 H1883 0.950 . S
C1895 C1891 1.393 . S
C1895 C1894 1.391 . S
H1896 C1904 0.950 . S
H1897 C1909 0.950 . S
H1898 C1906 0.950 . S
H1899 C1908 0.950 . S
H1900 C1910 0.950 . S
H1901 C1912 0.950 . S
H1902 C1914 0.950 . S
H1903 C1915 0.950 . S
C1904 H1896 0.950 . S
C1904 C1905 1.386 . S
C1904 C1906 1.391 . S
C1905 C1904 1.386 . S
C1905 C1909 1.393 . S
C1906 H1898 0.950 . S
C1906 C1904 1.391 . S
C1906 C1907 1.400 . S
C1907 C1906 1.400 . S
C1907 C1908 1.398 . S
C1907 C1913 1.491 . S
C1908 H1899 0.950 . S
C1908 C1907 1.398 . S
C1908 C1909 1.391 . S
C1909 H1897 0.950 . S
C1909 C1905 1.393 . S
C1909 C1908 1.391 . S
C1910 H1900 0.950 . S
C1910 C1911 1.386 . S
C1910 C1912 1.391 . S
C1911 C1910 1.386 . S
C1911 C1915 1.393 . S
C1912 H1901 0.950 . S
C1912 C1910 1.391 . S
C1912 C1913 1.400 . S
C1913 C1907 1.491 . S
C1913 C1912 1.400 . S
C1913 C1914 1.398 . S
C1914 H1902 0.950 . S
C1914 C1913 1.398 . S
C1914 C1915 1.391 . S
C1915 H1903 0.950 . S
C1915 C1911 1.393 . S
C1915 C1914 1.391 . S
H1916 C1924 0.950 . S
H1917 C1929 0.950 . S
H1918 C1926 0.950 . S
H1919 C1928 0.950 . S
H1920 C1930 0.950 . S
H1921 C1932 0.950 . S
H1922 C1934 0.950 . S
H1923 C1935 0.950 . S
C1924 H1916 0.950 . S
C1924 C1925 1.386 . S
C1924 C1926 1.391 . S
C1925 C1924 1.386 . S
C1925 C1929 1.393 . S
C1926 H1918 0.950 . S
C1926 C1924 1.391 . S
C1926 C1927 1.400 . S
C1927 C1926 1.400 . S
C1927 C1928 1.398 . S
C1927 C1933 1.491 . S
C1928 H1919 0.950 . S
C1928 C1927 1.398 . S
C1928 C1929 1.391 . S
C1929 H1917 0.950 . S
C1929 C1925 1.393 . S
C1929 C1928 1.391 . S
C1930 H1920 0.950 . S
C1930 C1931 1.386 . S
C1930 C1932 1.391 . S
C1931 C1930 1.386 . S
C1931 C1935 1.393 . S
C1932 H1921 0.950 . S
C1932 C1930 1.391 . S
C1932 C1933 1.400 . S
C1933 C1927 1.491 . S
C1933 C1932 1.400 . S
C1933 C1934 1.398 . S
C1934 H1922 0.950 . S
C1934 C1933 1.398 . S
C1934 C1935 1.391 . S
C1935 H1923 0.950 . S
C1935 C1931 1.393 . S
C1935 C1934 1.391 . S
H1936 C1944 0.950 . S
H1937 C1949 0.950 . S
H1938 C1946 0.950 . S
H1939 C1948 0.950 . S
H1940 C1950 0.950 . S
H1941 C1952 0.950 . S
H1942 C1954 0.950 . S
H1943 C1955 0.950 . S
C1944 H1936 0.950 . S
C1944 C1945 1.386 . S
C1944 C1946 1.391 . S
C1945 C1944 1.386 . S
C1945 C1949 1.393 . S
C1946 H1938 0.950 . S
C1946 C1944 1.391 . S
C1946 C1947 1.400 . S
C1947 C1946 1.400 . S
C1947 C1948 1.398 . S
C1947 C1953 1.491 . S
C1948 H1939 0.950 . S
C1948 C1947 1.398 . S
C1948 C1949 1.391 . S
C1949 H1937 0.950 . S
C1949 C1945 1.393 . S
C1949 C1948 1.391 . S
C1950 H1940 0.950 . S
C1950 C1951 1.386 . S
C1950 C1952 1.391 . S
C1951 C1950 1.386 . S
C1951 C1955 1.393 . S
C1952 H1941 0.950 . S
C1952 C1950 1.391 . S
C1952 C1953 1.400 . S
C1953 C1947 1.491 . S
C1953 C1952 1.400 . S
C1953 C1954 1.398 . S
C1954 H1942 0.950 . S
C1954 C1953 1.398 . S
C1954 C1955 1.391 . S
C1955 H1943 0.950 . S
C1955 C1951 1.393 . S
C1955 C1954 1.391 . S
H1956 C1964 0.950 . S
H1957 C1969 0.950 . S
H1958 C1966 0.950 . S
H1959 C1968 0.950 . S
H1960 C1970 0.950 . S
H1961 C1972 0.950 . S
H1962 C1974 0.950 . S
H1963 C1975 0.950 . S
C1964 H1956 0.950 . S
C1964 C1965 1.386 . S
C1964 C1966 1.391 . S
C1965 C1964 1.386 . S
C1965 C1969 1.393 . S
C1966 H1958 0.950 . S
C1966 C1964 1.391 . S
C1966 C1967 1.400 . S
C1967 C1966 1.400 . S
C1967 C1968 1.398 . S
C1967 C1973 1.491 . S
C1968 H1959 0.950 . S
C1968 C1967 1.398 . S
C1968 C1969 1.391 . S
C1969 H1957 0.950 . S
C1969 C1965 1.393 . S
C1969 C1968 1.391 . S
C1970 H1960 0.950 . S
C1970 C1971 1.386 . S
C1970 C1972 1.391 . S
C1971 C1970 1.386 . S
C1971 C1975 1.393 . S
C1972 H1961 0.950 . S
C1972 C1970 1.391 . S
C1972 C1973 1.400 . S
C1973 C1967 1.491 . S
C1973 C1972 1.400 . S
C1973 C1974 1.398 . S
C1974 H1962 0.950 . S
C1974 C1973 1.398 . S
C1974 C1975 1.391 . S
C1975 H1963 0.950 . S
C1975 C1971 1.393 . S
C1975 C1974 1.391 . S
H1976 C1984 0.950 . S
H1977 C1989 0.950 . S
H1978 C1986 0.950 . S
H1979 C1988 0.950 . S
H1980 C1990 0.950 . S
H1981 C1992 0.950 . S
H1982 C1994 0.950 . S
H1983 C1995 0.950 . S
C1984 H1976 0.950 . S
C1984 C1985 1.386 . S
C1984 C1986 1.391 . S
C1985 C1984 1.386 . S
C1985 C1989 1.393 . S
C1986 H1978 0.950 . S
C1986 C1984 1.391 . S
C1986 C1987 1.400 . S
C1987 C1986 1.400 . S
C1987 C1988 1.398 . S
C1987 C1993 1.491 . S
C1988 H1979 0.950 . S
C1988 C1987 1.398 . S
C1988 C1989 1.391 . S
C1989 H1977 0.950 . S
C1989 C1985 1.393 . S
C1989 C1988 1.391 . S
C1990 H1980 0.950 . S
C1990 C1991 1.386 . S
C1990 C1992 1.391 . S
C1991 C1990 1.386 . S
C1991 C1995 1.393 . S
C1992 H1981 0.950 . S
C1992 C1990 1.391 . S
C1992 C1993 1.400 . S
C1993 C1987 1.491 . S
C1993 C1992 1.400 . S
C1993 C1994 1.398 . S
C1994 H1982 0.950 . S
C1994 C1993 1.398 . S
C1994 C1995 1.391 . S
C1995 H1983 0.950 . S
C1995 C1991 1.393 . S
C1995 C1994 1.391 . S
H1996 C2004 0.950 . S
H1997 C2009 0.950 . S
H1998 C2006 0.957 . S
H1999 C2008 0.950 . S
H2000 C2010 0.950 . S
H2001 C2012 0.951 . S
H2002 C2014 0.931 1_556 S
H2003 C2015 0.950 1_556 S
C2004 H1996 0.950 . S
C2004 C2005 1.386 . S
C2004 C2006 1.391 . S
C2005 C2004 1.386 . S
C2005 C2009 1.393 . S
C2006 H1998 0.957 . S
C2006 C2004 1.391 . S
C2006 C2007 1.400 . S
C2007 C2006 1.400 . S
C2007 C2008 1.398 . S
C2007 C2013 1.491 . S
C2008 H1999 0.950 . S
C2008 C2007 1.398 . S
C2008 C2009 1.391 . S
C2009 H1997 0.950 . S
C2009 C2005 1.393 . S
C2009 C2008 1.391 . S
C2010 H2000 0.950 . S
C2010 C2011 1.392 . S
C2010 C2012 1.392 . S
C2011 C2010 1.392 . S
C2011 C2015 1.383 1_545 S
C2012 H2001 0.951 . S
C2012 C2010 1.392 . S
C2012 C2013 1.398 1_545 S
C2013 C2007 1.491 . S
C2013 C2012 1.398 1_565 S
C2013 C2014 1.398 . S
C2014 H2002 0.931 1_554 S
C2014 C2013 1.398 . S
C2014 C2015 1.391 . S
C2015 H2003 0.950 1_554 S
C2015 C2011 1.383 1_565 S
C2015 C2014 1.391 . S
H2016 C2024 0.950 . S
H2017 C2029 0.950 . S
H2018 C2026 0.950 . S
H2019 C2028 0.950 . S
H2020 C2030 0.950 . S
H2021 C2032 0.950 . S
H2022 C2034 0.950 . S
H2023 C2035 0.950 . S
C2024 H2016 0.950 . S
C2024 C2025 1.386 . S
C2024 C2026 1.391 . S
C2025 C2024 1.386 . S
C2025 C2029 1.393 . S
C2026 H2018 0.950 . S
C2026 C2024 1.391 . S
C2026 C2027 1.400 . S
C2027 C2026 1.400 . S
C2027 C2028 1.398 . S
C2027 C2033 1.491 . S
C2028 H2019 0.950 . S
C2028 C2027 1.398 . S
C2028 C2029 1.391 . S
C2029 H2017 0.950 . S
C2029 C2025 1.393 . S
C2029 C2028 1.391 . S
C2030 H2020 0.950 . S
C2030 C2031 1.386 . S
C2030 C2032 1.391 . S
C2031 C2030 1.386 . S
C2031 C2035 1.393 . S
C2032 H2021 0.950 . S
C2032 C2030 1.391 . S
C2032 C2033 1.400 . S
C2033 C2027 1.491 . S
C2033 C2032 1.400 . S
C2033 C2034 1.398 . S
C2034 H2022 0.950 . S
C2034 C2033 1.398 . S
C2034 C2035 1.391 . S
C2035 H2023 0.950 . S
C2035 C2031 1.393 . S
C2035 C2034 1.391 . S
H2036 C2044 0.950 . S
H2037 C2049 0.950 . S
H2038 C2046 0.950 . S
H2039 C2048 0.950 . S
H2040 C2050 0.944 1_556 S
H2041 C2052 0.950 1_556 S
H2042 C2054 0.950 . S
H2043 C2055 0.950 . S
C2044 H2036 0.950 . S
C2044 C2045 1.386 . S
C2044 C2046 1.391 . S
C2045 C2044 1.386 . S
C2045 C2049 1.393 1_554 S
C2046 H2038 0.950 . S
C2046 C2044 1.391 . S
C2046 C2047 1.400 . S
C2047 C2046 1.400 . S
C2047 C2048 1.398 1_554 S
C2047 C2053 1.491 . S
C2048 H2039 0.950 . S
C2048 C2047 1.398 1_556 S
C2048 C2049 1.391 . S
C2049 H2037 0.950 . S
C2049 C2045 1.393 1_556 S
C2049 C2048 1.391 . S
C2050 H2040 0.944 1_554 S
C2050 C2051 1.386 . S
C2050 C2052 1.391 . S
C2051 C2050 1.386 . S
C2051 C2055 1.393 . S
C2052 H2041 0.950 1_554 S
C2052 C2050 1.391 . S
C2052 C2053 1.400 . S
C2053 C2047 1.491 . S
C2053 C2052 1.400 . S
C2053 C2054 1.398 . S
C2054 H2042 0.950 . S
C2054 C2053 1.398 . S
C2054 C2055 1.391 . S
C2055 H2043 0.950 . S
C2055 C2051 1.393 . S
C2055 C2054 1.391 . S
H2056 C2064 0.950 . S
H2057 C2069 0.950 . S
H2058 C2066 0.950 . S
H2059 C2068 0.950 . S
H2060 C2070 0.950 . S
H2061 C2072 0.950 . S
H2062 C2074 0.950 . S
H2063 C2075 0.950 . S
C2064 H2056 0.950 . S
C2064 C2065 1.386 . S
C2064 C2066 1.391 . S
C2065 C2064 1.386 . S
C2065 C2069 1.393 . S
C2066 H2058 0.950 . S
C2066 C2064 1.391 . S
C2066 C2067 1.400 . S
C2067 C2066 1.400 . S
C2067 C2068 1.398 . S
C2067 C2073 1.491 . S
C2068 H2059 0.950 . S
C2068 C2067 1.398 . S
C2068 C2069 1.391 . S
C2069 H2057 0.950 . S
C2069 C2065 1.393 . S
C2069 C2068 1.391 . S
C2070 H2060 0.950 . S
C2070 C2071 1.386 . S
C2070 C2072 1.391 . S
C2071 C2070 1.386 . S
C2071 C2075 1.393 . S
C2072 H2061 0.950 . S
C2072 C2070 1.391 . S
C2072 C2073 1.400 . S
C2073 C2067 1.491 . S
C2073 C2072 1.400 . S
C2073 C2074 1.398 . S
C2074 H2062 0.950 . S
C2074 C2073 1.398 . S
C2074 C2075 1.391 . S
C2075 H2063 0.950 . S
C2075 C2071 1.393 . S
C2075 C2074 1.391 . S
H2076 C2084 0.950 . S
H2077 C2089 0.950 1_545 S
H2078 C2086 0.950 . S
H2079 C2088 0.950 . S
H2080 C2090 0.950 . S
H2081 C2092 0.950 . S
H2082 C2094 0.950 . S
H2083 C2095 0.950 . S
C2084 H2076 0.950 . S
C2084 C2085 1.386 . S
C2084 C2086 1.391 . S
C2085 C2084 1.386 . S
C2085 C2089 1.393 . S
C2086 H2078 0.950 . S
C2086 C2084 1.391 . S
C2086 C2087 1.400 . S
C2087 C2086 1.400 . S
C2087 C2088 1.398 . S
C2087 C2093 1.491 . S
C2088 H2079 0.950 . S
C2088 C2087 1.398 . S
C2088 C2089 1.391 . S
C2089 H2077 0.950 1_565 S
C2089 C2085 1.393 . S
C2089 C2088 1.391 . S
C2090 H2080 0.950 . S
C2090 C2091 1.386 . S
C2090 C2092 1.391 . S
C2091 C2090 1.386 . S
C2091 C2095 1.393 . S
C2092 H2081 0.950 . S
C2092 C2090 1.391 . S
C2092 C2093 1.400 . S
C2093 C2087 1.491 . S
C2093 C2092 1.400 . S
C2093 C2094 1.398 . S
C2094 H2082 0.950 . S
C2094 C2093 1.398 . S
C2094 C2095 1.391 . S
C2095 H2083 0.950 . S
C2095 C2091 1.393 . S
C2095 C2094 1.391 . S
H2096 C2104 0.950 . S
H2097 C2109 0.950 . S
H2098 C2106 0.950 . S
H2099 C2108 0.950 . S
H2100 C2110 0.950 . S
H2101 C2112 0.950 . S
H2102 C2114 0.950 . S
H2103 C2115 0.950 . S
C2104 H2096 0.950 . S
C2104 C2105 1.386 . S
C2104 C2106 1.391 . S
C2105 C2104 1.386 . S
C2105 C2109 1.393 . S
C2106 H2098 0.950 . S
C2106 C2104 1.391 . S
C2106 C2107 1.400 . S
C2107 C2106 1.400 . S
C2107 C2108 1.398 . S
C2107 C2113 1.491 . S
C2108 H2099 0.950 . S
C2108 C2107 1.398 . S
C2108 C2109 1.391 . S
C2109 H2097 0.950 . S
C2109 C2105 1.393 . S
C2109 C2108 1.391 . S
C2110 H2100 0.950 . S
C2110 C2111 1.386 . S
C2110 C2112 1.391 . S
C2111 C2110 1.386 . S
C2111 C2115 1.393 . S
C2112 H2101 0.950 . S
C2112 C2110 1.391 . S
C2112 C2113 1.400 . S
C2113 C2107 1.491 . S
C2113 C2112 1.400 . S
C2113 C2114 1.398 . S
C2114 H2102 0.950 . S
C2114 C2113 1.398 . S
C2114 C2115 1.391 . S
C2115 H2103 0.950 . S
C2115 C2111 1.393 . S
C2115 C2114 1.391 . S
H2116 C2124 0.950 . S
H2117 C2129 0.950 . S
H2118 C2126 0.950 . S
H2119 C2128 0.950 . S
H2120 C2130 0.950 . S
H2121 C2132 0.950 . S
H2122 C2134 0.950 . S
H2123 C2135 0.950 . S
C2124 H2116 0.950 . S
C2124 C2125 1.386 . S
C2124 C2126 1.391 . S
C2125 C2124 1.386 . S
C2125 C2129 1.393 . S
C2126 H2118 0.950 . S
C2126 C2124 1.391 . S
C2126 C2127 1.400 . S
C2127 C2126 1.400 . S
C2127 C2128 1.398 . S
C2127 C2133 1.491 . S
C2128 H2119 0.950 . S
C2128 C2127 1.398 . S
C2128 C2129 1.391 . S
C2129 H2117 0.950 . S
C2129 C2125 1.393 . S
C2129 C2128 1.391 . S
C2130 H2120 0.950 . S
C2130 C2131 1.386 . S
C2130 C2132 1.391 . S
C2131 C2130 1.386 . S
C2131 C2135 1.393 . S
C2132 H2121 0.950 . S
C2132 C2130 1.391 . S
C2132 C2133 1.400 . S
C2133 C2127 1.491 . S
C2133 C2132 1.400 . S
C2133 C2134 1.398 . S
C2134 H2122 0.950 . S
C2134 C2133 1.398 . S
C2134 C2135 1.391 . S
C2135 H2123 0.950 . S
C2135 C2131 1.393 . S
C2135 C2134 1.391 . S
H2136 C2144 0.950 . S
H2137 C2149 0.950 . S
H2138 C2146 0.950 . S
H2139 C2148 0.950 . S
H2140 C2150 0.950 . S
H2141 C2152 0.950 . S
H2142 C2154 0.950 . S
H2143 C2155 0.950 . S
C2144 H2136 0.950 . S
C2144 C2145 1.386 1_655 S
C2144 C2146 1.391 . S
C2145 C2144 1.386 1_455 S
C2145 C2149 1.393 . S
C2146 H2138 0.950 . S
C2146 C2144 1.391 . S
C2146 C2147 1.400 1_655 S
C2147 C2146 1.400 1_455 S
C2147 C2148 1.398 . S
C2147 C2153 1.491 . S
C2148 H2139 0.950 . S
C2148 C2147 1.398 . S
C2148 C2149 1.391 . S
C2149 H2137 0.950 . S
C2149 C2145 1.393 . S
C2149 C2148 1.391 . S
C2150 H2140 0.950 . S
C2150 C2151 1.386 . S
C2150 C2152 1.391 . S
C2151 C2150 1.386 . S
C2151 C2155 1.393 1_455 S
C2152 H2141 0.950 . S
C2152 C2150 1.391 . S
C2152 C2153 1.400 . S
C2153 C2147 1.491 . S
C2153 C2152 1.400 . S
C2153 C2154 1.398 1_455 S
C2154 H2142 0.950 . S
C2154 C2153 1.398 1_655 S
C2154 C2155 1.391 . S
C2155 H2143 0.950 . S
C2155 C2151 1.393 1_655 S
C2155 C2154 1.391 . S
H2156 C2164 0.950 . S
H2157 C2169 0.950 . S
H2158 C2166 0.950 . S
H2159 C2168 0.950 . S
H2160 C2170 0.950 . S
H2161 C2172 0.950 . S
H2162 C2174 0.950 . S
H2163 C2175 0.950 . S
C2164 H2156 0.950 . S
C2164 C2165 1.386 . S
C2164 C2166 1.391 . S
C2165 C2164 1.386 . S
C2165 C2169 1.393 . S
C2166 H2158 0.950 . S
C2166 C2164 1.391 . S
C2166 C2167 1.400 . S
C2167 C2166 1.400 . S
C2167 C2168 1.398 . S
C2167 C2173 1.491 . S
C2168 H2159 0.950 . S
C2168 C2167 1.398 . S
C2168 C2169 1.391 . S
C2169 H2157 0.950 . S
C2169 C2165 1.393 . S
C2169 C2168 1.391 . S
C2170 H2160 0.950 . S
C2170 C2171 1.386 . S
C2170 C2172 1.391 . S
C2171 C2170 1.386 . S
C2171 C2175 1.393 . S
C2172 H2161 0.950 . S
C2172 C2170 1.391 . S
C2172 C2173 1.400 . S
C2173 C2167 1.491 . S
C2173 C2172 1.400 . S
C2173 C2174 1.398 . S
C2174 H2162 0.950 . S
C2174 C2173 1.398 . S
C2174 C2175 1.391 . S
C2175 H2163 0.950 . S
C2175 C2171 1.393 . S
C2175 C2174 1.391 . S
H2176 C2184 0.950 . S
H2177 C2189 0.950 . S
H2178 C2186 0.950 . S
H2179 C2188 0.950 . S
H2180 C2190 0.950 . S
H2181 C2192 0.950 . S
H2182 C2194 0.950 . S
H2183 C2195 0.950 . S
C2184 H2176 0.950 . S
C2184 C2185 1.386 . S
C2184 C2186 1.391 . S
C2185 C2184 1.386 . S
C2185 C2189 1.393 . S
C2186 H2178 0.950 . S
C2186 C2184 1.391 . S
C2186 C2187 1.400 . S
C2187 C2186 1.400 . S
C2187 C2188 1.398 . S
C2187 C2193 1.491 . S
C2188 H2179 0.950 . S
C2188 C2187 1.398 . S
C2188 C2189 1.391 . S
C2189 H2177 0.950 . S
C2189 C2185 1.393 . S
C2189 C2188 1.391 . S
C2190 H2180 0.950 . S
C2190 C2191 1.386 . S
C2190 C2192 1.391 . S
C2191 C2190 1.386 . S
C2191 C2195 1.393 . S
C2192 H2181 0.950 . S
C2192 C2190 1.391 . S
C2192 C2193 1.400 . S
C2193 C2187 1.491 . S
C2193 C2192 1.400 . S
C2193 C2194 1.398 . S
C2194 H2182 0.950 . S
C2194 C2193 1.398 . S
C2194 C2195 1.391 . S
C2195 H2183 0.950 . S
C2195 C2191 1.393 . S
C2195 C2194 1.391 . S
H2196 C2204 0.950 . S
H2197 C2209 0.950 . S
H2198 C2206 0.950 . S
H2199 C2208 0.950 . S
H2200 C2210 0.950 . S
H2201 C2212 0.950 . S
H2202 C2214 0.950 . S
H2203 C2215 0.950 . S
C2204 H2196 0.950 . S
C2204 C2205 1.386 . S
C2204 C2206 1.391 . S
C2205 C2204 1.386 . S
C2205 C2209 1.393 . S
C2206 H2198 0.950 . S
C2206 C2204 1.391 . S
C2206 C2207 1.400 . S
C2207 C2206 1.400 . S
C2207 C2208 1.398 . S
C2207 C2213 1.491 . S
C2208 H2199 0.950 . S
C2208 C2207 1.398 . S
C2208 C2209 1.391 . S
C2209 H2197 0.950 . S
C2209 C2205 1.393 . S
C2209 C2208 1.391 . S
C2210 H2200 0.950 . S
C2210 C2211 1.386 . S
C2210 C2212 1.391 . S
C2211 C2210 1.386 . S
C2211 C2215 1.393 . S
C2212 H2201 0.950 . S
C2212 C2210 1.391 . S
C2212 C2213 1.400 . S
C2213 C2207 1.491 . S
C2213 C2212 1.400 . S
C2213 C2214 1.398 . S
C2214 H2202 0.950 . S
C2214 C2213 1.398 . S
C2214 C2215 1.391 . S
C2215 H2203 0.950 . S
C2215 C2211 1.393 . S
C2215 C2214 1.391 . S
H2216 C2224 0.950 . S
H2217 C2229 0.950 1_655 S
H2218 C2226 0.950 . S
H2219 C2228 0.950 1_655 S
H2220 C2230 0.950 . S
H2221 C2232 0.950 1_655 S
H2222 C2234 0.950 . S
H2223 C2235 0.950 . S
C2224 H2216 0.950 . S
C2224 C2225 1.386 . S
C2224 C2226 1.391 . S
C2225 C2224 1.386 . S
C2225 C2229 1.393 . S
C2226 H2218 0.950 . S
C2226 C2224 1.391 . S
C2226 C2227 1.400 . S
C2227 C2226 1.400 . S
C2227 C2228 1.398 . S
C2227 C2233 1.491 . S
C2228 H2219 0.950 1_455 S
C2228 C2227 1.398 . S
C2228 C2229 1.391 . S
C2229 H2217 0.950 1_455 S
C2229 C2225 1.393 . S
C2229 C2228 1.391 . S
C2230 H2220 0.950 . S
C2230 C2231 1.386 1_655 S
C2230 C2232 1.392 1_655 S
C2231 C2230 1.386 1_455 S
C2231 C2235 1.393 . S
C2232 H2221 0.950 1_455 S
C2232 C2230 1.392 1_455 S
C2232 C2233 1.399 . S
C2233 C2227 1.491 . S
C2233 C2232 1.399 . S
C2233 C2234 1.398 . S
C2234 H2222 0.950 . S
C2234 C2233 1.398 . S
C2234 C2235 1.391 . S
C2235 H2223 0.950 . S
C2235 C2231 1.393 . S
C2235 C2234 1.391 . S
H2236 C2244 0.950 . S
H2237 C2249 0.950 . S
H2238 C2246 0.950 . S
H2239 C2248 0.950 . S
H2240 C2250 0.950 . S
H2241 C2252 0.950 . S
H2242 C2254 0.950 . S
H2243 C2255 0.950 . S
C2244 H2236 0.950 . S
C2244 C2245 1.386 . S
C2244 C2246 1.391 . S
C2245 C2244 1.386 . S
C2245 C2249 1.393 . S
C2246 H2238 0.950 . S
C2246 C2244 1.391 . S
C2246 C2247 1.400 . S
C2247 C2246 1.400 . S
C2247 C2248 1.398 . S
C2247 C2253 1.491 . S
C2248 H2239 0.950 . S
C2248 C2247 1.398 . S
C2248 C2249 1.391 . S
C2249 H2237 0.950 . S
C2249 C2245 1.393 . S
C2249 C2248 1.391 . S
C2250 H2240 0.950 . S
C2250 C2251 1.386 . S
C2250 C2252 1.391 . S
C2251 C2250 1.386 . S
C2251 C2255 1.393 . S
C2252 H2241 0.950 . S
C2252 C2250 1.391 . S
C2252 C2253 1.400 . S
C2253 C2247 1.491 . S
C2253 C2252 1.400 . S
C2253 C2254 1.398 . S
C2254 H2242 0.950 . S
C2254 C2253 1.398 . S
C2254 C2255 1.391 . S
C2255 H2243 0.950 . S
C2255 C2251 1.393 . S
C2255 C2254 1.391 . S
H2256 C2264 0.950 . S
H2257 C2269 0.950 . S
H2258 C2266 0.950 . S
H2259 C2268 0.950 . S
H2260 C2270 0.950 . S
H2261 C2272 0.950 . S
H2262 C2274 0.950 . S
H2263 C2275 0.950 . S
C2264 H2256 0.950 . S
C2264 C2265 1.386 . S
C2264 C2266 1.391 . S
C2265 C2264 1.386 . S
C2265 C2269 1.393 . S
C2266 H2258 0.950 . S
C2266 C2264 1.391 . S
C2266 C2267 1.400 . S
C2267 C2266 1.400 . S
C2267 C2268 1.398 . S
C2267 C2273 1.491 . S
C2268 H2259 0.950 . S
C2268 C2267 1.398 . S
C2268 C2269 1.391 . S
C2269 H2257 0.950 . S
C2269 C2265 1.393 . S
C2269 C2268 1.391 . S
C2270 H2260 0.950 . S
C2270 C2271 1.386 . S
C2270 C2272 1.391 . S
C2271 C2270 1.386 . S
C2271 C2275 1.393 . S
C2272 H2261 0.950 . S
C2272 C2270 1.391 . S
C2272 C2273 1.400 . S
C2273 C2267 1.491 . S
C2273 C2272 1.400 . S
C2273 C2274 1.398 . S
C2274 H2262 0.950 . S
C2274 C2273 1.398 . S
C2274 C2275 1.391 . S
C2275 H2263 0.950 . S
C2275 C2271 1.393 . S
C2275 C2274 1.391 . S
H2276 C2284 0.950 . S
H2277 C2289 0.950 . S
H2278 C2286 0.950 . S
H2279 C2288 0.950 . S
H2280 C2290 0.950 . S
H2281 C2292 0.950 . S
H2282 C2294 0.950 . S
H2283 C2295 0.950 . S
C2284 H2276 0.950 . S
C2284 C2285 1.386 . S
C2284 C2286 1.391 . S
C2285 C2284 1.386 . S
C2285 C2289 1.393 . S
C2286 H2278 0.950 . S
C2286 C2284 1.391 . S
C2286 C2287 1.400 . S
C2287 C2286 1.400 . S
C2287 C2288 1.398 . S
C2287 C2293 1.491 . S
C2288 H2279 0.950 . S
C2288 C2287 1.398 . S
C2288 C2289 1.391 . S
C2289 H2277 0.950 . S
C2289 C2285 1.393 . S
C2289 C2288 1.391 . S
C2290 H2280 0.950 . S
C2290 C2291 1.386 . S
C2290 C2292 1.391 . S
C2291 C2290 1.386 . S
C2291 C2295 1.393 . S
C2292 H2281 0.950 . S
C2292 C2290 1.391 . S
C2292 C2293 1.400 . S
C2293 C2287 1.491 . S
C2293 C2292 1.400 . S
C2293 C2294 1.398 . S
C2294 H2282 0.950 . S
C2294 C2293 1.398 . S
C2294 C2295 1.391 . S
C2295 H2283 0.950 . S
C2295 C2291 1.393 . S
C2295 C2294 1.391 . S
H2296 C2304 0.950 . S
H2297 C2309 0.950 . S
H2298 C2306 0.950 . S
H2299 C2308 0.950 . S
H2300 C2310 0.950 1_455 S
H2301 C2312 0.950 . S
H2302 C2314 0.950 . S
H2303 C2315 0.950 . S
C2304 H2296 0.950 . S
C2304 C2305 1.386 . S
C2304 C2306 1.391 . S
C2305 C2304 1.386 . S
C2305 C2309 1.393 . S
C2306 H2298 0.950 . S
C2306 C2304 1.391 . S
C2306 C2307 1.400 . S
C2307 C2306 1.400 . S
C2307 C2308 1.398 . S
C2307 C2313 1.491 . S
C2308 H2299 0.950 . S
C2308 C2307 1.398 . S
C2308 C2309 1.391 . S
C2309 H2297 0.950 . S
C2309 C2305 1.393 . S
C2309 C2308 1.391 . S
C2310 H2300 0.950 1_655 S
C2310 C2311 1.386 . S
C2310 C2312 1.391 . S
C2311 C2310 1.386 . S
C2311 C2315 1.393 . S
C2312 H2301 0.950 . S
C2312 C2310 1.391 . S
C2312 C2313 1.400 . S
C2313 C2307 1.491 . S
C2313 C2312 1.400 . S
C2313 C2314 1.398 . S
C2314 H2302 0.950 . S
C2314 C2313 1.398 . S
C2314 C2315 1.391 . S
C2315 H2303 0.950 . S
C2315 C2311 1.393 . S
C2315 C2314 1.391 . S
H2316 C2324 0.950 . S
H2317 C2329 0.950 . S
H2318 C2326 0.950 . S
H2319 C2328 0.950 . S
H2320 C2330 0.950 . S
H2321 C2332 0.950 . S
H2322 C2334 0.950 . S
H2323 C2335 0.950 . S
C2324 H2316 0.950 . S
C2324 C2325 1.386 . S
C2324 C2326 1.391 . S
C2325 C2324 1.386 . S
C2325 C2329 1.393 . S
C2326 H2318 0.950 . S
C2326 C2324 1.391 . S
C2326 C2327 1.400 . S
C2327 C2326 1.400 . S
C2327 C2328 1.398 . S
C2327 C2333 1.491 . S
C2328 H2319 0.950 . S
C2328 C2327 1.398 . S
C2328 C2329 1.391 . S
C2329 H2317 0.950 . S
C2329 C2325 1.393 . S
C2329 C2328 1.391 . S
C2330 H2320 0.950 . S
C2330 C2331 1.386 . S
C2330 C2332 1.391 . S
C2331 C2330 1.386 . S
C2331 C2335 1.393 . S
C2332 H2321 0.950 . S
C2332 C2330 1.391 . S
C2332 C2333 1.400 . S
C2333 C2327 1.491 . S
C2333 C2332 1.400 . S
C2333 C2334 1.398 . S
C2334 H2322 0.950 . S
C2334 C2333 1.398 . S
C2334 C2335 1.391 . S
C2335 H2323 0.950 . S
C2335 C2331 1.393 . S
C2335 C2334 1.391 . S
H2336 C2344 0.950 . S
H2337 C2349 0.950 . S
H2338 C2346 0.950 . S
H2339 C2348 0.950 . S
H2340 C2350 0.950 . S
H2341 C2352 0.950 . S
H2342 C2354 0.950 . S
H2343 C2355 0.950 . S
C2344 H2336 0.950 . S
C2344 C2345 1.386 . S
C2344 C2346 1.391 . S
C2345 C2344 1.386 . S
C2345 C2349 1.393 . S
C2346 H2338 0.950 . S
C2346 C2344 1.391 . S
C2346 C2347 1.400 . S
C2347 C2346 1.400 . S
C2347 C2348 1.398 . S
C2347 C2353 1.491 . S
C2348 H2339 0.950 . S
C2348 C2347 1.398 . S
C2348 C2349 1.391 . S
C2349 H2337 0.950 . S
C2349 C2345 1.393 . S
C2349 C2348 1.391 . S
C2350 H2340 0.950 . S
C2350 C2351 1.386 . S
C2350 C2352 1.391 . S
C2351 C2350 1.386 . S
C2351 C2355 1.393 . S
C2352 H2341 0.950 . S
C2352 C2350 1.391 . S
C2352 C2353 1.400 . S
C2353 C2347 1.491 . S
C2353 C2352 1.400 . S
C2353 C2354 1.398 . S
C2354 H2342 0.950 . S
C2354 C2353 1.398 . S
C2354 C2355 1.391 . S
C2355 H2343 0.950 . S
C2355 C2351 1.393 . S
C2355 C2354 1.391 . S
H2356 C2364 0.950 . S
H2357 C2369 0.950 . S
H2358 C2366 0.950 . S
H2359 C2368 0.950 . S
H2360 C2370 0.950 . S
H2361 C2372 0.950 . S
H2362 C2374 0.950 . S
H2363 C2375 0.950 . S
C2364 H2356 0.950 . S
C2364 C2365 1.386 . S
C2364 C2366 1.391 . S
C2365 C2364 1.386 . S
C2365 C2369 1.393 . S
C2366 H2358 0.950 . S
C2366 C2364 1.391 . S
C2366 C2367 1.400 . S
C2367 C2366 1.400 . S
C2367 C2368 1.398 . S
C2367 C2373 1.491 . S
C2368 H2359 0.950 . S
C2368 C2367 1.398 . S
C2368 C2369 1.391 . S
C2369 H2357 0.950 . S
C2369 C2365 1.393 . S
C2369 C2368 1.391 . S
C2370 H2360 0.950 . S
C2370 C2371 1.386 . S
C2370 C2372 1.391 . S
C2371 C2370 1.386 . S
C2371 C2375 1.393 . S
C2372 H2361 0.950 . S
C2372 C2370 1.391 . S
C2372 C2373 1.400 . S
C2373 C2367 1.491 . S
C2373 C2372 1.400 . S
C2373 C2374 1.398 . S
C2374 H2362 0.950 . S
C2374 C2373 1.398 . S
C2374 C2375 1.391 . S
C2375 H2363 0.950 . S
C2375 C2371 1.393 . S
C2375 C2374 1.391 . S
H2376 C2384 0.950 . S
H2377 C2389 0.950 . S
H2378 C2386 0.950 . S
H2379 C2388 0.950 . S
H2380 C2390 0.950 1_455 S
H2381 C2392 0.950 . S
H2382 C2394 0.950 . S
H2383 C2395 0.950 . S
C2384 H2376 0.950 . S
C2384 C2385 1.386 . S
C2384 C2386 1.391 . S
C2385 C2384 1.386 . S
C2385 C2389 1.393 . S
C2386 H2378 0.950 . S
C2386 C2384 1.391 . S
C2386 C2387 1.400 . S
C2387 C2386 1.400 . S
C2387 C2388 1.398 . S
C2387 C2393 1.491 . S
C2388 H2379 0.950 . S
C2388 C2387 1.398 . S
C2388 C2389 1.391 . S
C2389 H2377 0.950 . S
C2389 C2385 1.393 . S
C2389 C2388 1.391 . S
C2390 H2380 0.950 1_655 S
C2390 C2391 1.386 . S
C2390 C2392 1.391 . S
C2391 C2390 1.386 . S
C2391 C2395 1.393 . S
C2392 H2381 0.950 . S
C2392 C2390 1.391 . S
C2392 C2393 1.400 . S
C2393 C2387 1.491 . S
C2393 C2392 1.400 . S
C2393 C2394 1.398 . S
C2394 H2382 0.950 . S
C2394 C2393 1.398 . S
C2394 C2395 1.391 . S
C2395 H2383 0.950 . S
C2395 C2391 1.393 . S
C2395 C2394 1.391 . S
H2396 C2404 0.950 . S
H2397 C2409 0.950 . S
H2398 C2406 0.950 . S
H2399 C2408 0.950 . S
H2400 C2410 0.950 . S
H2401 C2412 0.950 . S
H2402 C2414 0.950 . S
H2403 C2415 0.950 . S
C2404 H2396 0.950 . S
C2404 C2405 1.386 . S
C2404 C2406 1.391 . S
C2405 C2404 1.386 . S
C2405 C2409 1.393 . S
C2406 H2398 0.950 . S
C2406 C2404 1.391 . S
C2406 C2407 1.400 . S
C2407 C2406 1.400 . S
C2407 C2408 1.398 . S
C2407 C2413 1.491 . S
C2408 H2399 0.950 . S
C2408 C2407 1.398 . S
C2408 C2409 1.391 . S
C2409 H2397 0.950 . S
C2409 C2405 1.393 . S
C2409 C2408 1.391 . S
C2410 H2400 0.950 . S
C2410 C2411 1.386 . S
C2410 C2412 1.391 . S
C2411 C2410 1.386 . S
C2411 C2415 1.393 . S
C2412 H2401 0.950 . S
C2412 C2410 1.391 . S
C2412 C2413 1.400 . S
C2413 C2407 1.491 . S
C2413 C2412 1.400 . S
C2413 C2414 1.398 . S
C2414 H2402 0.950 . S
C2414 C2413 1.398 . S
C2414 C2415 1.391 . S
C2415 H2403 0.950 . S
C2415 C2411 1.393 . S
C2415 C2414 1.391 . S
H2416 C2424 0.950 . S
H2417 C2429 0.950 . S
H2418 C2426 0.950 . S
H2419 C2428 0.950 . S
H2420 C2430 0.950 . S
H2421 C2432 0.950 . S
H2422 C2434 0.950 . S
H2423 C2435 0.950 . S
C2424 H2416 0.950 . S
C2424 C2425 1.386 . S
C2424 C2426 1.391 . S
C2425 C2424 1.386 . S
C2425 C2429 1.393 . S
C2426 H2418 0.950 . S
C2426 C2424 1.391 . S
C2426 C2427 1.400 . S
C2427 C2426 1.400 . S
C2427 C2428 1.398 . S
C2427 C2433 1.491 . S
C2428 H2419 0.950 . S
C2428 C2427 1.398 . S
C2428 C2429 1.391 . S
C2429 H2417 0.950 . S
C2429 C2425 1.393 . S
C2429 C2428 1.391 . S
C2430 H2420 0.950 . S
C2430 C2431 1.386 . S
C2430 C2432 1.391 . S
C2431 C2430 1.386 . S
C2431 C2435 1.393 . S
C2432 H2421 0.950 . S
C2432 C2430 1.391 . S
C2432 C2433 1.400 . S
C2433 C2427 1.491 . S
C2433 C2432 1.400 . S
C2433 C2434 1.398 . S
C2434 H2422 0.950 . S
C2434 C2433 1.398 . S
C2434 C2435 1.391 . S
C2435 H2423 0.950 . S
C2435 C2431 1.393 . S
C2435 C2434 1.391 . S
H2436 C2444 0.950 . S
H2437 C2449 0.950 . S
H2438 C2446 0.950 . S
H2439 C2448 0.950 . S
H2440 C2450 0.950 . S
H2441 C2452 0.950 . S
H2442 C2454 0.941 1_545 S
H2443 C2455 0.950 . S
C2444 H2436 0.950 . S
C2444 C2445 1.386 . S
C2444 C2446 1.391 . S
C2445 C2444 1.386 . S
C2445 C2449 1.393 . S
C2446 H2438 0.950 . S
C2446 C2444 1.391 . S
C2446 C2447 1.400 . S
C2447 C2446 1.400 . S
C2447 C2448 1.398 . S
C2447 C2453 1.491 . S
C2448 H2439 0.950 . S
C2448 C2447 1.398 . S
C2448 C2449 1.391 . S
C2449 H2437 0.950 . S
C2449 C2445 1.393 . S
C2449 C2448 1.391 . S
C2450 H2440 0.950 . S
C2450 C2451 1.386 . S
C2450 C2452 1.391 . S
C2451 C2450 1.386 . S
C2451 C2455 1.393 1_565 S
C2452 H2441 0.950 . S
C2452 C2450 1.391 . S
C2452 C2453 1.400 . S
C2453 C2447 1.491 . S
C2453 C2452 1.400 . S
C2453 C2454 1.411 . S
C2454 H2442 0.941 1_565 S
C2454 C2453 1.411 . S
C2454 C2455 1.387 1_565 S
C2455 H2443 0.950 . S
C2455 C2451 1.393 1_545 S
C2455 C2454 1.387 1_545 S
H2456 C2464 0.950 . S
H2457 C2469 0.950 . S
H2458 C2466 0.950 . S
H2459 C2468 0.950 . S
H2460 C2470 0.950 . S
H2461 C2472 0.950 . S
H2462 C2474 0.950 . S
H2463 C2475 0.950 . S
C2464 H2456 0.950 . S
C2464 C2465 1.386 . S
C2464 C2466 1.391 . S
C2465 C2464 1.386 . S
C2465 C2469 1.393 . S
C2466 H2458 0.950 . S
C2466 C2464 1.391 . S
C2466 C2467 1.400 . S
C2467 C2466 1.400 . S
C2467 C2468 1.398 . S
C2467 C2473 1.491 . S
C2468 H2459 0.950 . S
C2468 C2467 1.398 . S
C2468 C2469 1.391 . S
C2469 H2457 0.950 . S
C2469 C2465 1.393 . S
C2469 C2468 1.391 . S
C2470 H2460 0.950 . S
C2470 C2471 1.386 . S
C2470 C2472 1.391 . S
C2471 C2470 1.386 . S
C2471 C2475 1.393 . S
C2472 H2461 0.950 . S
C2472 C2470 1.391 . S
C2472 C2473 1.400 . S
C2473 C2467 1.491 . S
C2473 C2472 1.400 . S
C2473 C2474 1.398 . S
C2474 H2462 0.950 . S
C2474 C2473 1.398 . S
C2474 C2475 1.391 . S
C2475 H2463 0.950 . S
C2475 C2471 1.393 . S
C2475 C2474 1.391 . S
H2476 C2484 0.950 . S
H2477 C2489 0.950 . S
H2478 C2486 0.950 . S
H2479 C2488 0.950 . S
H2480 C2490 0.950 . S
H2481 C2492 0.950 . S
H2482 C2494 0.950 . S
H2483 C2495 0.950 . S
C2484 H2476 0.950 . S
C2484 C2485 1.380 1_554 S
C2484 C2486 1.391 . S
C2485 C2484 1.380 1_556 S
C2485 C2489 1.397 . S
C2486 H2478 0.950 . S
C2486 C2484 1.391 . S
C2486 C2487 1.400 . S
C2487 C2486 1.400 . S
C2487 C2488 1.398 1_554 S
C2487 C2493 1.491 . S
C2488 H2479 0.950 . S
C2488 C2487 1.398 1_556 S
C2488 C2489 1.391 . S
C2489 H2477 0.950 . S
C2489 C2485 1.397 . S
C2489 C2488 1.391 . S
C2490 H2480 0.950 . S
C2490 C2491 1.386 1_556 S
C2490 C2492 1.391 . S
C2491 C2490 1.386 1_554 S
C2491 C2495 1.393 . S
C2492 H2481 0.950 . S
C2492 C2490 1.391 . S
C2492 C2493 1.400 1_556 S
C2493 C2487 1.491 . S
C2493 C2492 1.400 1_554 S
C2493 C2494 1.398 . S
C2494 H2482 0.950 . S
C2494 C2493 1.398 . S
C2494 C2495 1.391 . S
C2495 H2483 0.950 . S
C2495 C2491 1.393 . S
C2495 C2494 1.391 . S
H2496 C2504 0.950 . S
H2497 C2509 0.950 . S
H2498 C2506 0.950 . S
H2499 C2508 0.950 . S
H2500 C2510 0.950 . S
H2501 C2512 0.950 . S
H2502 C2514 0.950 . S
H2503 C2515 0.950 . S
C2504 H2496 0.950 . S
C2504 C2505 1.386 . S
C2504 C2506 1.391 . S
C2505 C2504 1.386 . S
C2505 C2509 1.393 . S
C2506 H2498 0.950 . S
C2506 C2504 1.391 . S
C2506 C2507 1.400 . S
C2507 C2506 1.400 . S
C2507 C2508 1.398 . S
C2507 C2513 1.491 . S
C2508 H2499 0.950 . S
C2508 C2507 1.398 . S
C2508 C2509 1.391 . S
C2509 H2497 0.950 . S
C2509 C2505 1.393 . S
C2509 C2508 1.391 . S
C2510 H2500 0.950 . S
C2510 C2511 1.386 . S
C2510 C2512 1.391 . S
C2511 C2510 1.386 . S
C2511 C2515 1.393 . S
C2512 H2501 0.950 . S
C2512 C2510 1.391 . S
C2512 C2513 1.400 . S
C2513 C2507 1.491 . S
C2513 C2512 1.400 . S
C2513 C2514 1.398 . S
C2514 H2502 0.950 . S
C2514 C2513 1.398 . S
C2514 C2515 1.391 . S
C2515 H2503 0.950 . S
C2515 C2511 1.393 . S
C2515 C2514 1.391 . S
H2516 C2524 0.950 . S
H2517 C2529 0.950 1_556 S
H2518 C2526 0.950 . S
H2519 C2528 0.950 . S
H2520 C2530 0.950 . S
H2521 C2532 0.950 . S
H2522 C2534 0.950 . S
H2523 C2535 0.950 . S
C2524 H2516 0.950 . S
C2524 C2525 1.386 . S
C2524 C2526 1.391 . S
C2525 C2524 1.386 . S
C2525 C2529 1.393 . S
C2526 H2518 0.950 . S
C2526 C2524 1.391 . S
C2526 C2527 1.400 . S
C2527 C2526 1.400 . S
C2527 C2528 1.398 1_554 S
C2527 C2533 1.491 . S
C2528 H2519 0.950 . S
C2528 C2527 1.398 1_556 S
C2528 C2529 1.391 1_556 S
C2529 H2517 0.950 1_554 S
C2529 C2525 1.393 . S
C2529 C2528 1.391 1_554 S
C2530 H2520 0.950 . S
C2530 C2531 1.386 . S
C2530 C2532 1.391 . S
C2531 C2530 1.386 . S
C2531 C2535 1.393 1_556 S
C2532 H2521 0.950 . S
C2532 C2530 1.391 . S
C2532 C2533 1.400 1_556 S
C2533 C2527 1.491 . S
C2533 C2532 1.400 1_554 S
C2533 C2534 1.398 . S
C2534 H2522 0.950 . S
C2534 C2533 1.398 . S
C2534 C2535 1.391 . S
C2535 H2523 0.950 . S
C2535 C2531 1.393 1_554 S
C2535 C2534 1.391 . S
H2536 C2544 0.950 . S
H2537 C2549 0.950 . S
H2538 C2546 0.950 . S
H2539 C2548 0.950 . S
H2540 C2550 0.950 . S
H2541 C2552 0.950 . S
H2542 C2554 0.950 . S
H2543 C2555 0.950 . S
C2544 H2536 0.950 . S
C2544 C2545 1.386 . S
C2544 C2546 1.391 . S
C2545 C2544 1.386 . S
C2545 C2549 1.393 . S
C2546 H2538 0.950 . S
C2546 C2544 1.391 . S
C2546 C2547 1.400 . S
C2547 C2546 1.400 . S
C2547 C2548 1.398 . S
C2547 C2553 1.491 . S
C2548 H2539 0.950 . S
C2548 C2547 1.398 . S
C2548 C2549 1.391 . S
C2549 H2537 0.950 . S
C2549 C2545 1.393 . S
C2549 C2548 1.391 . S
C2550 H2540 0.950 . S
C2550 C2551 1.386 . S
C2550 C2552 1.391 . S
C2551 C2550 1.386 . S
C2551 C2555 1.393 . S
C2552 H2541 0.950 . S
C2552 C2550 1.391 . S
C2552 C2553 1.400 . S
C2553 C2547 1.491 . S
C2553 C2552 1.400 . S
C2553 C2554 1.398 . S
C2554 H2542 0.950 . S
C2554 C2553 1.398 . S
C2554 C2555 1.391 . S
C2555 H2543 0.950 . S
C2555 C2551 1.393 . S
C2555 C2554 1.391 . S
H2556 C2564 0.950 . S
H2557 C2569 0.950 . S
H2558 C2566 0.950 . S
H2559 C2568 0.950 . S
H2560 C2570 0.950 . S
H2561 C2572 0.950 . S
H2562 C2574 0.950 . S
H2563 C2575 0.950 . S
C2564 H2556 0.950 . S
C2564 C2565 1.386 . S
C2564 C2566 1.391 . S
C2565 C2564 1.386 . S
C2565 C2569 1.393 . S
C2566 H2558 0.950 . S
C2566 C2564 1.391 . S
C2566 C2567 1.400 . S
C2567 C2566 1.400 . S
C2567 C2568 1.398 . S
C2567 C2573 1.491 . S
C2568 H2559 0.950 . S
C2568 C2567 1.398 . S
C2568 C2569 1.391 . S
C2569 H2557 0.950 . S
C2569 C2565 1.393 . S
C2569 C2568 1.391 . S
C2570 H2560 0.950 . S
C2570 C2571 1.386 . S
C2570 C2572 1.391 . S
C2571 C2570 1.386 . S
C2571 C2575 1.393 . S
C2572 H2561 0.950 . S
C2572 C2570 1.391 . S
C2572 C2573 1.400 . S
C2573 C2567 1.491 . S
C2573 C2572 1.400 . S
C2573 C2574 1.398 . S
C2574 H2562 0.950 . S
C2574 C2573 1.398 . S
C2574 C2575 1.391 . S
C2575 H2563 0.950 . S
C2575 C2571 1.393 . S
C2575 C2574 1.391 . S
C665 C109 1.122 . S
C671 C352 1.094 . S
C685 C61 1.070 . S
C691 C365 1.238 . S
C705 C74 1.278 . S
C711 C384 1.303 . S
C731 C415 1.902 . S
C725 C96 1.956 . S
C745 C25 1.630 1_455 S
C751 C435 1.618 . S
C771 C452 0.789 . S
C765 C40 0.813 . S
C791 C465 1.486 . S
C785 C46 1.488 . S
C805 C5 0.820 . S
C811 C492 0.948 . S
C831 C345 1.041 . S
C825 C229 0.910 . S
C845 C249 1.431 . S
C851 C375 1.381 . S
C871 C377 1.573 . S
C865 C271 1.438 . S
C891 C412 0.948 . S
C885 C172 0.895 . S
C905 C236 1.088 . S
C911 C432 1.070 . S
C931 C445 1.900 . S
C925 C242 1.910 . S
C951 C475 1.168 . S
C945 C278 1.210 . S
C971 C485 1.222 . S
C965 C179 1.235 . S
C991 C355 1.553 1_565 S
C985 C159 1.360 . S
C1005 C285 1.490 1_554 S
C1011 C505 1.690 . S
C1031 C535 1.451 . S
C1025 C333 1.468 . S
C1051 C552 1.153 . S
C1045 C320 1.154 . S
C1065 C123 1.813 . S
C1071 C495 1.788 . S
C1085 C138 1.245 . S
C1091 C382 1.212 . S
C1105 C326 1.942 . S
C1111 C565 1.935 . S
C1131 C592 0.989 . S
C1125 C298 0.944 . S
C1151 C342 1.089 . S
C1145 C67 1.129 . S
C1171 C577 1.198 . S
C1165 C110 1.225 . S
C1185 C88 1.305 . S
C1191 C395 1.290 . S
C1205 C75 1.562 . S
C1211 C564 1.830 . S
C1231 C424 1.559 1_455 S
C1225 C11 1.591 . S
C1245 C47 0.781 . S
C1251 C522 0.805 . S
C1271 C457 1.417 . S
C1265 C32 1.386 . S
C1291 C602 0.947 . S
C1285 C26 0.976 . S
C1311 C337 1.150 . S
C1305 C152 1.171 . S
C1331 C584 1.402 . S
C1325 C319 1.390 . S
C1345 C124 1.592 . S
C1351 C385 1.546 . S
C1365 C284 0.961 . S
C1371 C562 0.959 . S
C1385 C145 0.962 . S
C1391 C422 1.040 . S
C1411 C517 1.816 . S
C1405 C312 1.755 . S
C1425 C117 0.987 . S
C1431 C464 1.028 . S
C1445 C291 1.161 . S
C1451 C597 1.147 . S
C1465 C194 1.601 . S
C1471 C344 1.576 . S
C1485 C180 1.690 . S
C1491 C497 1.663 . S
C1505 C263 1.337 . S
C1511 C444 1.332 . S
C1525 C243 0.964 . S
C1531 C542 1.067 . S
C1551 C604 1.815 . S
C1545 C277 1.834 . S
C1565 C215 1.040 . S
C1571 C392 1.160 1_565 S
C1591 C397 1.855 . S
C1585 C256 1.816 . S
C1611 C362 1.029 . S
C1605 C200 1.041 . S
C1625 C81 1.135 . S
C1631 C632 1.116 . S
C1651 C585 1.236 . S
C1645 C89 1.068 . S
C1665 C102 1.276 . S
C1671 C644 1.298 1_455 S
C1685 C68 1.961 . S
C1691 C575 1.914 . S
C1705 C53 1.625 . S
C1711 C515 1.606 . S
C1731 C532 0.817 . S
C1725 C12 0.796 . S
C1751 C545 1.476 1_655 S
C1745 C18 1.482 . S
C1771 C612 0.944 . S
C1765 C33 0.851 . S
C1791 C625 1.067 . S
C1785 C257 0.964 . S
C1805 C193 1.431 . S
C1811 C595 1.377 . S
C1831 C637 1.566 . S
C1825 C201 1.460 . S
C1851 C572 0.936 . S
C1845 C214 0.915 . S
C1871 C512 1.088 . S
C1865 C264 1.071 . S
C1885 C186 1.914 . S
C1891 C525 1.908 . S
C1911 C555 1.174 . S
C1905 C208 1.207 . S
C1925 C221 1.243 . S
C1931 C605 1.231 . S
C1951 C635 1.564 . S
C1945 C313 1.312 . S
C1965 C131 1.520 . S
C1971 C425 1.688 . S
C1991 C455 1.451 . S
C1985 C151 1.478 . S
C2011 C472 1.149 . S
C2005 C166 1.158 . S
C2031 C615 1.792 . S
C2025 C305 1.809 . S
C2045 C292 1.243 . S
C2051 C642 1.210 . S
C2071 C405 1.936 . S
C2065 C144 1.937 . S
C2091 C372 0.989 . S
C2085 C116 0.943 1_565 S
C2105 C95 1.107 . S
C2111 C622 1.105 . S
C2131 C357 1.213 . S
C2125 C82 1.231 . S
C2145 C60 1.296 1_455 S
C2151 C655 1.300 . S
C2165 C103 1.560 . S
C2171 C404 1.834 . S
C2185 C39 1.588 . S
C2191 C504 1.576 1_556 S
C2211 C442 0.796 . S
C2205 C19 0.751 . S
C2225 C4 1.386 . S
C2231 C537 1.418 . S
C2245 C54 0.968 . S
C2251 C482 0.970 . S
C2271 C617 1.146 . S
C2265 C334 1.171 . S
C2285 C165 1.411 . S
C2291 C364 1.405 . S
C2311 C645 1.554 . S
C2305 C306 1.588 . S
C2325 C130 0.956 . S
C2331 C402 0.946 . S
C2345 C327 0.973 . S
C2351 C502 1.046 . S
C2371 C437 1.816 . S
C2365 C158 1.755 . S
C2385 C299 0.935 . S
C2391 C544 1.053 . S
C2411 C477 1.153 . S
C2405 C137 1.165 . S
C2431 C624 1.558 . S
C2425 C250 1.601 . S
C2451 C417 1.663 1_565 S
C2445 C222 1.689 . S
C2465 C235 1.333 . S
C2471 C524 1.353 . S
C2491 C462 1.084 . S
C2485 C187 1.015 . S
C2505 C207 1.825 . S
C2511 C484 1.814 . S
C2525 C173 1.025 . S
C2531 C652 1.170 . S
C2551 C557 1.861 . S
C2545 C228 1.797 1_565 S
C2571 C582 1.009 . S
C2565 C270 1.030 . S
